
###############################################################################
#
# This file contains modified crystal structure data generated from the
# MOF subset of the Cambridge Structural Database (CSD) v543 
# hosted by the Cambridge Crystallographic Data Centre (CCDC).
#
# This work is licensed under the Creative Commons
# Attribution-NonCommercial-ShareAlike 4.0 International License.
# To view a copy of this license, visit
# http://creativecommons.org/licenses/by-nc-sa/4.0/
# or send a letter to
# Creative Commons, PO Box 1866, Mountain View, CA 94042, USA.
#
# CIF created using the CSD Python API on 29 September 2022
# The structure has been converted into the P1 space group
# The structure has a 3D framework
# The original CSD entry REXCII is in the monoclinic crystal system
# The framework has been calculated to contain at least 10.0% void space
# The void calculation uses a probe of radius 1.32A, grid spacing 0.4
#
###############################################################################

data_REXCII
_chemical_formula_moiety         '(C288 H192 I48 N96 Zn24)n'
_symmetry_cell_setting           triclinic
_symmetry_space_group_name_H-M   'P 1'
_symmetry_Int_Tables_number      1
_space_group_name_Hall           'P 1'
loop_
_symmetry_equiv_pos_site_id
_symmetry_equiv_pos_as_xyz
1 x,y,z
_cell_length_a                   34.103(6)
_cell_length_b                   14.767(3)
_cell_length_c                   30.700(6)
_cell_angle_alpha                90
_cell_angle_beta                 99.802(2)
_cell_angle_gamma                90
_cell_volume                     15234.8
loop_
_atom_site_label
_atom_site_type_symbol
_atom_site_fract_x
_atom_site_fract_y
_atom_site_fract_z
N6 N 0.1836(3) 0.0053(6) 0.2757(3)
H9 H 0.2301 0.0112 0.3224
I3 I 0.23433(3) 0.23279(7) 0.29132(4)
Zn2 Zn 0.17139(5) 0.14252(9) 0.26822(5)
I4 I 0.12429(4) 0.16051(7) 0.19473(3)
N14 N 0.1402(3) 0.1613(6) 0.3187(3)
I1 I 0.39111(3) 0.25675(6) 0.40138(3)
Zn1 Zn 0.37056(4) 0.39518(9) 0.44154(5)
I2 I 0.34539(3) 0.39919(8) 0.51363(3)
N1 N 0.3286(3) 0.4625(6) 0.3966(3)
C1 C 0.3077(4) 0.4203(8) 0.3613(4)
H1 H 0.3138 0.3590 0.3560
C2 C 0.2778(4) 0.4617(8) 0.3329(4)
H2 H 0.2631 0.4290 0.3089
C3 C 0.2695(3) 0.5502(8) 0.3392(3)
C4 C 0.2914(4) 0.5957(7) 0.3745(4)
H3 H 0.2865 0.6577 0.3799
C5 C 0.3211(4) 0.5474(8) 0.4022(4)
H4 H 0.3365 0.5784 0.4264
C6 C 0.2371(3) 0.5970(7) 0.3086(3)
N2 N 0.2172(3) 0.5451(6) 0.2759(3)
C7 C 0.1862(3) 0.5872(6) 0.2508(3)
N3 N 0.1767(2) 0.6733(5) 0.2538(3)
C8 C 0.2013(3) 0.7204(7) 0.2851(3)
N4 N 0.2307(3) 0.6847(6) 0.3146(3)
N5 N 0.1174(3) 0.4415(6) 0.1448(3)
C9 C 0.1079(4) 0.5240(8) 0.1549(4)
H5 H 0.0848 0.5505 0.1381
C10 C 0.1299(4) 0.5759(8) 0.1891(4)
H6 H 0.1227 0.6365 0.1944
C11 C 0.1624(3) 0.5350(6) 0.2145(3)
C12 C 0.1721(4) 0.4467(7) 0.2047(4)
H7 H 0.1944 0.4178 0.2218
C13 C 0.1494(4) 0.4016(7) 0.1705(4)
H8 H 0.1561 0.3410 0.1643
C14 C 0.2126(4) 0.9709(9) 0.3043(4)
C15 C 0.2193(4) 0.8784(7) 0.3097(5)
H10 H 0.2406 0.8566 0.3311
C16 C 0.1949(3) 0.8193(7) 0.2839(3)
C17 C 0.1639(4) 0.8553(7) 0.2536(4)
H11 H 0.1459 0.8165 0.2354
C18 C 0.1598(4) 0.9473(8) 0.2501(4)
H12 H 0.1390 0.9711 0.2286
I5 I 0.11705(3) 0.25847(5) 0.06057(3)
Zn3 Zn 0.07833(4) 0.37266(8) 0.09778(4)
I6 I 0.01753(3) 0.34885(7) 0.13433(3)
N7 N 0.0649(3) 0.4788(6) 0.0530(3)
C19 C 0.0911(4) 0.4997(9) 0.0271(5)
H13 H 0.1135 0.4615 0.0273
C22 C 0.0279(4) 0.6089(8) 0.0256(4)
H15 H 0.0057 0.6474 0.0265
C23 C 0.0337(3) 0.5318(7) 0.0516(4)
H16 H 0.0142 0.5165 0.0692
N13 N 0.4184(3) 0.4843(6) 0.4461(3)
C3_2 C 0.7695(3) 0.0502(8) 0.3392(3)
C4_2 C 0.7914(4) 0.0957(7) 0.3745(4)
H3_2 H 0.7865 0.1577 0.3799
C5_2 C 0.8211(4) 0.0474(8) 0.4022(4)
H4_2 H 0.8365 0.0784 0.4264
C6_2 C 0.7371(3) 0.0970(7) 0.3086(3)
N2_2 N 0.7172(3) 0.0451(6) 0.2759(3)
C7_2 C 0.6862(3) 0.0872(6) 0.2508(3)
N3_2 N 0.6767(2) 0.1733(5) 0.2538(3)
C8_2 C 0.7013(3) 0.2204(7) 0.2851(3)
N4_2 N 0.7307(3) 0.1847(6) 0.3146(3)
C9_2 C 0.6079(4) 0.0240(8) 0.1549(4)
H5_2 H 0.5848 0.0505 0.1381
C10_2 C 0.6299(4) 0.0759(8) 0.1891(4)
H6_2 H 0.6227 0.1365 0.1944
C11_2 C 0.6624(3) 0.0350(6) 0.2145(3)
N6_2 N 0.6836(3) 0.5053(6) 0.2757(3)
C14_2 C 0.7126(4) 0.4709(9) 0.3043(4)
H9_2 H 0.7301 0.5112 0.3224
C15_2 C 0.7193(4) 0.3784(7) 0.3097(5)
H10_2 H 0.7406 0.3566 0.3311
C16_2 C 0.6949(3) 0.3193(7) 0.2839(3)
C17_2 C 0.6639(4) 0.3553(7) 0.2536(4)
H11_2 H 0.6459 0.3165 0.2354
C18_2 C 0.6598(4) 0.4473(8) 0.2501(4)
H12_2 H 0.6390 0.4711 0.2286
I3_2 I 0.73433(3) 0.73279(7) 0.29132(4)
Zn2_2 Zn 0.67139(5) 0.64252(9) 0.26822(5)
I4_2 I 0.62429(4) 0.66051(7) 0.19473(3)
C22_2 C 0.5279(4) 0.1089(8) 0.0256(4)
H15_2 H 0.5057 0.1474 0.0265
C23_2 C 0.5337(3) 0.0318(7) 0.0516(4)
H16_2 H 0.5142 0.0165 0.0692
H21 H 0.4199 0.4772 0.0093
H22 H 0.4740 0.3786 0.0110
N14_2 N 0.6402(3) 0.6613(6) 0.3187(3)
C20 C 0.5869(4) 0.0747(9) 0.9998(5)
H14 H 0.6063 0.0881 0.9821
C21 C 0.5547(3) 0.1287(7) 0.9987(4)
C24 C 0.5497(3) 0.2119(7) 0.9709(3)
N8 N 0.5742(3) 0.2219(6) 0.9418(3)
C25 C 0.5684(3) 0.2956(7) 0.9167(3)
N9 N 0.5399(3) 0.3571(6) 0.9189(3)
C26 C 0.5168(3) 0.3387(7) 0.9484(3)
N10 N 0.5205(3) 0.2693(6) 0.9760(3)
N11 N 0.4184(3) 0.5157(6) 0.9461(3)
C27 C 0.6190(4) 0.4056(9) 0.8328(5)
H17 H 0.6201 0.4638 0.8199
C28 C 0.5961(4) 0.3950(9) 0.8647(5)
H18 H 0.5817 0.4447 0.8738
C29 C 0.5941(3) 0.3108(6) 0.8837(4)
C30 C 0.6165(5) 0.2448(9) 0.8709(5)
H19 H 0.6170 0.1869 0.8844
C31 C 0.6387(5) 0.2597(10) 0.8386(6)
H20 H 0.6538 0.2108 0.8300
N12 N 0.6402(3) 0.3387(6) 0.8187(3)
C32 C 0.4321(3) 0.4698(7) 0.9840(4)
C33 C 0.4644(3) 0.4118(7) 0.9849(3)
C34 C 0.4823(3) 0.4021(7) 0.9495(4)
C35 C 0.4668(4) 0.4484(10) 0.9106(4)
H23 H 0.4777 0.4398 0.8844
C36 C 0.4359(5) 0.5057(11) 0.9109(5)
H24 H 0.4265 0.5401 0.8851
Zn4 Zn 0.37056(4) 0.60482(9) 0.94154(5)
Zn5 Zn 0.67139(5) 0.35748(9) 0.76822(5)
I1_2 I 0.39111(3) 0.74325(6) 0.90138(3)
N1_2 N 0.3286(3) 0.5375(6) 0.8966(3)
C1_2 C 0.3077(4) 0.5797(8) 0.8613(4)
H1_2 H 0.3138 0.6410 0.8560
C2_2 C 0.2778(4) 0.5383(8) 0.8329(4)
H2_2 H 0.2631 0.5710 0.8089
C3_3 C 0.2695(3) 0.4498(8) 0.8392(3)
C4_3 C 0.2914(4) 0.4043(7) 0.8745(4)
H3_3 H 0.2865 0.3423 0.8799
C5_3 C 0.3211(4) 0.4526(8) 0.9022(4)
H4_3 H 0.3365 0.4216 0.9264
C6_3 C 0.2371(3) 0.4030(7) 0.8086(3)
N2_3 N 0.2172(3) 0.4549(6) 0.7759(3)
C7_3 C 0.1862(3) 0.4128(6) 0.7508(3)
N3_3 N 0.1767(2) 0.3267(5) 0.7538(3)
C8_3 C 0.2013(3) 0.2796(7) 0.7851(3)
N4_3 N 0.2307(3) 0.3153(6) 0.8146(3)
N5_2 N 0.1174(3) 0.5585(6) 0.6448(3)
C9_3 C 0.1079(4) 0.4760(8) 0.6549(4)
H5_3 H 0.0848 0.4495 0.6381
C10_3 C 0.1299(4) 0.4241(8) 0.6891(4)
H6_3 H 0.1227 0.3635 0.6944
C11_3 C 0.1624(3) 0.4650(6) 0.7145(3)
C12_2 C 0.1721(4) 0.5533(7) 0.7047(4)
H7_2 H 0.1944 0.5822 0.7218
C13_2 C 0.1494(4) 0.5984(7) 0.6705(4)
H8_2 H 0.1561 0.6590 0.6643
C14_3 C 0.2126(4) 0.0291(9) 0.8043(4)
C15_3 C 0.2193(4) 0.1216(7) 0.8097(5)
H10_3 H 0.2406 0.1434 0.8311
C16_3 C 0.1949(3) 0.1807(7) 0.7839(3)
C17_3 C 0.1639(4) 0.1447(7) 0.7536(4)
H11_3 H 0.1459 0.1835 0.7354
C18_3 C 0.1598(4) 0.0527(8) 0.7501(4)
H12_3 H 0.1390 0.0289 0.7286
I5_2 I 0.11705(3) 0.74153(5) 0.56057(3)
Zn3_2 Zn 0.07833(4) 0.62734(8) 0.59778(4)
I6_2 I 0.01753(3) 0.65115(7) 0.63433(3)
N7_2 N 0.0649(3) 0.5212(6) 0.5530(3)
C19_2 C 0.0911(4) 0.5003(9) 0.5271(5)
H13_2 H 0.1135 0.5385 0.5273
C20_2 C 0.0869(4) 0.4253(9) 0.4998(5)
H14_2 H 0.1063 0.4119 0.4821
C21_2 C 0.0547(3) 0.3713(7) 0.4987(4)
C22_3 C 0.0279(4) 0.3911(8) 0.5256(4)
H15_3 H 0.0057 0.3526 0.5265
C23_3 C 0.0337(3) 0.4682(7) 0.5516(4)
H16_3 H 0.0142 0.4835 0.5692
C24_2 C 0.0497(3) 0.2881(7) 0.4709(3)
N8_2 N 0.0742(3) 0.2781(6) 0.4418(3)
C25_2 C 0.0684(3) 0.2044(7) 0.4167(3)
N9_2 N 0.0399(3) 0.1429(6) 0.4189(3)
C26_2 C 0.0168(3) 0.1613(7) 0.4484(3)
N10_2 N 0.0205(3) 0.2307(6) 0.4760(3)
C27_2 C 0.1190(4) 0.0944(9) 0.3328(5)
H17_2 H 0.1201 0.0362 0.3199
C28_2 C 0.0961(4) 0.1050(9) 0.3647(5)
H18_2 H 0.0817 0.0553 0.3738
C29_2 C 0.0941(3) 0.1892(6) 0.3837(4)
C30_2 C 0.1165(5) 0.2552(9) 0.3709(5)
H19_2 H 0.1170 0.3131 0.3844
C31_2 C 0.1387(5) 0.2403(10) 0.3386(6)
H20_2 H 0.1538 0.2892 0.3300
C3_4 C 0.7695(3) 0.9498(8) 0.8392(3)
C4_4 C 0.7914(4) 0.9043(7) 0.8745(4)
H3_4 H 0.7865 0.8423 0.8799
C5_4 C 0.8211(4) 0.9526(8) 0.9022(4)
H4_4 H 0.8365 0.9216 0.9264
C6_4 C 0.7371(3) 0.9030(7) 0.8086(3)
N2_4 N 0.7172(3) 0.9549(6) 0.7759(3)
C7_4 C 0.6862(3) 0.9128(6) 0.7508(3)
N3_4 N 0.6767(2) 0.8267(5) 0.7538(3)
C8_4 C 0.7013(3) 0.7796(7) 0.7851(3)
N4_4 N 0.7307(3) 0.8153(6) 0.8146(3)
C9_4 C 0.6079(4) 0.9760(8) 0.6549(4)
H5_4 H 0.5848 0.9495 0.6381
C10_4 C 0.6299(4) 0.9241(8) 0.6891(4)
H6_4 H 0.6227 0.8635 0.6944
C11_4 C 0.6624(3) 0.9650(6) 0.7145(3)
N6_3 N 0.6836(3) 0.4947(6) 0.7757(3)
C14_4 C 0.7126(4) 0.5291(9) 0.8043(4)
H9_3 H 0.7301 0.4888 0.8224
C15_4 C 0.7193(4) 0.6216(7) 0.8097(5)
H10_4 H 0.7406 0.6434 0.8311
C16_4 C 0.6949(3) 0.6807(7) 0.7839(3)
C17_4 C 0.6639(4) 0.6447(7) 0.7536(4)
H11_4 H 0.6459 0.6835 0.7354
C18_4 C 0.6598(4) 0.5527(8) 0.7501(4)
H12_4 H 0.6390 0.5289 0.7286
I3_3 I 0.73433(3) 0.26721(7) 0.79132(4)
I4_3 I 0.62429(4) 0.33949(7) 0.69473(3)
C20_3 C 0.5869(4) 0.9253(9) 0.4998(5)
H14_3 H 0.6063 0.9119 0.4821
C21_3 C 0.5547(3) 0.8713(7) 0.4987(4)
C22_4 C 0.5279(4) 0.8911(8) 0.5256(4)
H15_4 H 0.5057 0.8526 0.5265
C23_4 C 0.5337(3) 0.9682(7) 0.5516(4)
H16_4 H 0.5142 0.9835 0.5692
C24_3 C 0.5497(3) 0.7881(7) 0.4709(3)
N8_3 N 0.5742(3) 0.7781(6) 0.4418(3)
C25_3 C 0.5684(3) 0.7044(7) 0.4167(3)
N9_3 N 0.5399(3) 0.6429(6) 0.4189(3)
C26_3 C 0.5168(3) 0.6613(7) 0.4484(3)
N10_3 N 0.5205(3) 0.7307(6) 0.4760(3)
C27_3 C 0.6190(4) 0.5944(9) 0.3328(5)
H17_3 H 0.6201 0.5362 0.3199
C28_3 C 0.5961(4) 0.6050(9) 0.3647(5)
H18_3 H 0.5817 0.5553 0.3738
C29_3 C 0.5941(3) 0.6892(6) 0.3837(4)
C30_3 C 0.6165(5) 0.7552(9) 0.3709(5)
H19_3 H 0.6170 0.8131 0.3844
C31_3 C 0.6387(5) 0.7403(10) 0.3386(6)
H20_3 H 0.6538 0.7892 0.3300
C32_2 C 0.4321(3) 0.5302(7) 0.4840(4)
H21_2 H 0.4199 0.5228 0.5093
C33_2 C 0.4644(3) 0.5882(7) 0.4849(3)
H22_2 H 0.4740 0.6214 0.5110
C34_2 C 0.4823(3) 0.5979(7) 0.4495(4)
C35_2 C 0.4668(4) 0.5516(10) 0.4106(4)
H23_2 H 0.4777 0.5602 0.3844
C36_2 C 0.4359(5) 0.4943(11) 0.4109(5)
H24_2 H 0.4265 0.4599 0.3851
C20_4 C 0.0869(4) 0.5747(9) 0.9998(5)
H14_4 H 0.1063 0.5881 0.9821
C21_4 C 0.0547(3) 0.6287(7) 0.9987(4)
C24_4 C 0.0497(3) 0.7119(7) 0.9709(3)
N8_4 N 0.0742(3) 0.7219(6) 0.9418(3)
C25_4 C 0.0684(3) 0.7956(7) 0.9167(3)
N9_4 N 0.0399(3) 0.8571(6) 0.9189(3)
C26_4 C 0.0168(3) 0.8387(7) 0.9484(3)
N10_4 N 0.0205(3) 0.7693(6) 0.9760(3)
C27_4 C 0.1190(4) 0.9056(9) 0.8328(5)
H17_4 H 0.1201 0.9638 0.8199
C28_4 C 0.0961(4) 0.8950(9) 0.8647(5)
H18_4 H 0.0817 0.9447 0.8738
C29_4 C 0.0941(3) 0.8108(6) 0.8837(4)
C30_4 C 0.1165(5) 0.7448(9) 0.8709(5)
H19_4 H 0.1170 0.6869 0.8844
C31_4 C 0.1387(5) 0.7597(10) 0.8386(6)
H20_4 H 0.1538 0.7108 0.8300
N12_2 N 0.1402(3) 0.8387(6) 0.8187(3)
Zn5_2 Zn 0.17139(5) 0.85748(9) 0.76822(5)
N6_4 N 0.1836(3) 0.9947(6) 0.7757(3)
H9_4 H 0.2301 0.9888 0.8224
I3_4 I 0.23433(3) 0.76721(7) 0.79132(4)
I4_4 I 0.12429(4) 0.83949(7) 0.69473(3)
N11_2 N 0.9184(3) 0.0157(6) 0.9461(3)
C36_3 C 0.9359(5) 0.0057(11) 0.9109(5)
H24_3 H 0.9265 0.0401 0.8851
Zn4_2 Zn 0.87056(4) 0.10482(9) 0.94154(5)
I1_3 I 0.89111(3) 0.24325(6) 0.90138(3)
N1_3 N 0.8286(3) 0.0375(6) 0.8966(3)
C1_3 C 0.8077(4) 0.0797(8) 0.8613(4)
H1_3 H 0.8138 0.1410 0.8560
C2_3 C 0.7778(4) 0.0383(8) 0.8329(4)
H2_3 H 0.7631 0.0710 0.8089
N5_3 N 0.6174(3) 0.0585(6) 0.6448(3)
C12_3 C 0.6721(4) 0.0533(7) 0.7047(4)
H7_3 H 0.6944 0.0822 0.7218
C13_3 C 0.6494(4) 0.0984(7) 0.6705(4)
H8_3 H 0.6561 0.1590 0.6643
I5_3 I 0.61705(3) 0.24153(5) 0.56057(3)
Zn3_3 Zn 0.57833(4) 0.12734(8) 0.59778(4)
I6_3 I 0.51753(3) 0.15115(7) 0.63433(3)
N7_3 N 0.5649(3) 0.0212(6) 0.5530(3)
C19_3 C 0.5911(4) 0.0003(9) 0.5271(5)
H13_3 H 0.6135 0.0385 0.5273
H21_3 H 0.9199 0.9772 0.0093
H22_3 H 0.9740 0.8786 0.0110
C32_3 C 0.9321(3) 0.9698(7) 0.9840(4)
C33_3 C 0.9644(3) 0.9118(7) 0.9849(3)
C34_3 C 0.9823(3) 0.9021(7) 0.9495(4)
C35_3 C 0.9668(4) 0.9484(10) 0.9106(4)
H23_3 H 0.9777 0.9398 0.8844
N11_3 N 0.0816(3) 0.0157(6) 0.5539(3)
C36_4 C 0.0641(5) 0.0057(11) 0.5891(5)
H24_4 H 0.0735 0.0401 0.6149
Zn4_3 Zn 0.12944(4) 0.10482(9) 0.55846(5)
I1_4 I 0.10889(3) 0.24325(6) 0.59862(3)
I2_2 I 0.15461(3) 0.10081(8) 0.48637(3)
N1_4 N 0.1714(3) 0.0375(6) 0.6034(3)
C1_4 C 0.1923(4) 0.0797(8) 0.6387(4)
H1_4 H 0.1862 0.1410 0.6440
C2_4 C 0.2222(4) 0.0383(8) 0.6671(4)
H2_4 H 0.2369 0.0710 0.6911
N5_4 N 0.3826(3) 0.0585(6) 0.8552(3)
C12_4 C 0.3279(4) 0.0533(7) 0.7953(4)
H7_4 H 0.3056 0.0822 0.7782
C13_4 C 0.3506(4) 0.0984(7) 0.8295(4)
H8_4 H 0.3439 0.1590 0.8357
I5_4 I 0.38295(3) 0.24153(5) 0.93943(3)
Zn3_4 Zn 0.42167(4) 0.12734(8) 0.90222(4)
I6_4 I 0.48247(3) 0.15115(7) 0.86567(3)
N7_4 N 0.4351(3) 0.0212(6) 0.9470(3)
C19_4 C 0.4089(4) 0.0003(9) 0.9729(5)
H13_4 H 0.3865 0.0385 0.9727
C32_4 C 0.0679(3) 0.9698(7) 0.5160(4)
H21_4 H 0.0801 0.9772 0.4907
C33_4 C 0.0356(3) 0.9118(7) 0.5151(3)
H22_4 H 0.0260 0.8786 0.4890
C34_4 C 0.0177(3) 0.9021(7) 0.5505(4)
C35_4 C 0.0332(4) 0.9484(10) 0.5894(4)
H23_4 H 0.0223 0.9398 0.6156
N6_5 N 0.8164(3) 0.0053(6) 0.2243(3)
H9_5 H 0.7699 0.0112 0.1776
I3_5 I 0.76567(3) 0.23279(7) 0.20868(4)
Zn2_3 Zn 0.82861(5) 0.14252(9) 0.23178(5)
I4_5 I 0.87571(4) 0.16051(7) 0.30527(3)
N14_3 N 0.8598(3) 0.1613(6) 0.1813(3)
C20_5 C 0.9131(4) 0.4253(9) 0.0002(5)
H14_5 H 0.8937 0.4119 0.0179
C21_5 C 0.9453(3) 0.3713(7) 0.0013(4)
C24_5 C 0.9503(3) 0.2881(7) 0.0291(3)
N8_5 N 0.9258(3) 0.2781(6) 0.0582(3)
C25_5 C 0.9316(3) 0.2044(7) 0.0833(3)
N9_5 N 0.9601(3) 0.1429(6) 0.0811(3)
C26_5 C 0.9832(3) 0.1613(7) 0.0516(3)
N10_5 N 0.9795(3) 0.2307(6) 0.0240(3)
C27_5 C 0.8810(4) 0.0944(9) 0.1672(5)
H17_5 H 0.8799 0.0362 0.1801
C28_5 C 0.9039(4) 0.1050(9) 0.1353(5)
H18_5 H 0.9183 0.0553 0.1262
C29_5 C 0.9059(3) 0.1892(6) 0.1163(4)
C30_5 C 0.8835(5) 0.2552(9) 0.1291(5)
H19_5 H 0.8830 0.3131 0.1156
C31_5 C 0.8613(5) 0.2403(10) 0.1614(6)
H20_5 H 0.8462 0.2892 0.1700
I1_5 I 0.60889(3) 0.25675(6) 0.09862(3)
Zn1_2 Zn 0.62944(4) 0.39518(9) 0.05846(5)
N1_5 N 0.6714(3) 0.4625(6) 0.1034(3)
C1_5 C 0.6923(4) 0.4203(8) 0.1387(4)
H1_5 H 0.6862 0.3590 0.1440
C2_5 C 0.7222(4) 0.4617(8) 0.1671(4)
H2_5 H 0.7369 0.4290 0.1911
C3_5 C 0.7305(3) 0.5502(8) 0.1608(3)
C4_5 C 0.7086(4) 0.5957(7) 0.1255(4)
H3_5 H 0.7135 0.6577 0.1201
C5_5 C 0.6789(4) 0.5474(8) 0.0978(4)
H4_5 H 0.6635 0.5784 0.0736
C6_5 C 0.7629(3) 0.5970(7) 0.1914(3)
N2_5 N 0.7828(3) 0.5451(6) 0.2241(3)
C7_5 C 0.8138(3) 0.5872(6) 0.2492(3)
N3_5 N 0.8233(2) 0.6733(5) 0.2462(3)
C8_5 C 0.7987(3) 0.7204(7) 0.2149(3)
N4_5 N 0.7693(3) 0.6847(6) 0.1854(3)
N5_5 N 0.8826(3) 0.4415(6) 0.3552(3)
C9_5 C 0.8921(4) 0.5240(8) 0.3451(4)
H5_5 H 0.9152 0.5505 0.3619
C10_5 C 0.8701(4) 0.5759(8) 0.3109(4)
H6_5 H 0.8773 0.6365 0.3056
C11_5 C 0.8376(3) 0.5350(6) 0.2855(3)
C12_5 C 0.8279(4) 0.4467(7) 0.2953(4)
H7_5 H 0.8056 0.4178 0.2782
C13_5 C 0.8506(4) 0.4016(7) 0.3295(4)
H8_5 H 0.8439 0.3410 0.3357
C14_5 C 0.7874(4) 0.9709(9) 0.1957(4)
C15_5 C 0.7807(4) 0.8784(7) 0.1903(5)
H10_5 H 0.7594 0.8566 0.1689
C16_5 C 0.8051(3) 0.8193(7) 0.2161(3)
C17_5 C 0.8361(4) 0.8553(7) 0.2464(4)
H11_5 H 0.8541 0.8165 0.2646
C18_5 C 0.8402(4) 0.9473(8) 0.2499(4)
H12_5 H 0.8610 0.9711 0.2714
I5_5 I 0.88295(3) 0.25847(5) 0.43943(3)
Zn3_5 Zn 0.92167(4) 0.37266(8) 0.40222(4)
I6_5 I 0.98247(3) 0.34885(7) 0.36567(3)
N7_5 N 0.9351(3) 0.4788(6) 0.4470(3)
C19_5 C 0.9089(4) 0.4997(9) 0.4729(5)
H13_5 H 0.8865 0.4615 0.4727
C20_6 C 0.9131(4) 0.5747(9) 0.5002(5)
H14_6 H 0.8937 0.5881 0.5179
C21_6 C 0.9453(3) 0.6287(7) 0.5013(4)
C22_5 C 0.9721(4) 0.6089(8) 0.4744(4)
H15_5 H 0.9943 0.6474 0.4735
C23_5 C 0.9663(3) 0.5318(7) 0.4484(4)
H16_5 H 0.9858 0.5165 0.4308
C24_6 C 0.9503(3) 0.7119(7) 0.5291(3)
N8_6 N 0.9258(3) 0.7219(6) 0.5582(3)
C25_6 C 0.9316(3) 0.7956(7) 0.5833(3)
N9_6 N 0.9601(3) 0.8571(6) 0.5811(3)
C26_6 C 0.9832(3) 0.8387(7) 0.5516(3)
N10_6 N 0.9795(3) 0.7693(6) 0.5240(3)
C27_6 C 0.8810(4) 0.9056(9) 0.6672(5)
H17_6 H 0.8799 0.9638 0.6801
C28_6 C 0.9039(4) 0.8950(9) 0.6353(5)
H18_6 H 0.9183 0.9447 0.6262
C29_6 C 0.9059(3) 0.8108(6) 0.6163(4)
C30_6 C 0.8835(5) 0.7448(9) 0.6291(5)
H19_6 H 0.8830 0.6869 0.6156
C31_6 C 0.8613(5) 0.7597(10) 0.6614(6)
H20_6 H 0.8462 0.7108 0.6700
N12_3 N 0.8598(3) 0.8387(6) 0.6813(3)
Zn5_3 Zn 0.82861(5) 0.85748(9) 0.73178(5)
N13_2 N 0.5816(3) 0.4843(6) 0.0539(3)
C3_6 C 0.2305(3) 0.0502(8) 0.1608(3)
C4_6 C 0.2086(4) 0.0957(7) 0.1255(4)
H3_6 H 0.2135 0.1577 0.1201
C5_6 C 0.1789(4) 0.0474(8) 0.0978(4)
H4_6 H 0.1635 0.0784 0.0736
C6_6 C 0.2629(3) 0.0970(7) 0.1914(3)
N2_6 N 0.2828(3) 0.0451(6) 0.2241(3)
C7_6 C 0.3138(3) 0.0872(6) 0.2492(3)
N3_6 N 0.3233(2) 0.1733(5) 0.2462(3)
C8_6 C 0.2987(3) 0.2204(7) 0.2149(3)
N4_6 N 0.2693(3) 0.1847(6) 0.1854(3)
C9_6 C 0.3921(4) 0.0240(8) 0.3451(4)
H5_6 H 0.4152 0.0505 0.3619
C10_6 C 0.3701(4) 0.0759(8) 0.3109(4)
H6_6 H 0.3773 0.1365 0.3056
C11_6 C 0.3376(3) 0.0350(6) 0.2855(3)
N6_6 N 0.3164(3) 0.5053(6) 0.2243(3)
C14_6 C 0.2874(4) 0.4709(9) 0.1957(4)
H9_6 H 0.2699 0.5112 0.1776
C15_6 C 0.2807(4) 0.3784(7) 0.1903(5)
H10_6 H 0.2594 0.3566 0.1689
C16_6 C 0.3051(3) 0.3193(7) 0.2161(3)
C17_6 C 0.3361(4) 0.3553(7) 0.2464(4)
H11_6 H 0.3541 0.3165 0.2646
C18_6 C 0.3402(4) 0.4473(8) 0.2499(4)
H12_6 H 0.3610 0.4711 0.2714
I3_6 I 0.26567(3) 0.73279(7) 0.20868(4)
Zn2_4 Zn 0.32861(5) 0.64252(9) 0.23178(5)
I4_6 I 0.37571(4) 0.66051(7) 0.30527(3)
C20_7 C 0.4131(4) 0.0747(9) 0.5002(5)
H14_7 H 0.3937 0.0881 0.5179
C21_7 C 0.4453(3) 0.1287(7) 0.5013(4)
C22_6 C 0.4721(4) 0.1089(8) 0.4744(4)
H15_6 H 0.4943 0.1474 0.4735
C23_6 C 0.4663(3) 0.0318(7) 0.4484(4)
H16_6 H 0.4858 0.0165 0.4308
C24_7 C 0.4503(3) 0.2119(7) 0.5291(3)
N8_7 N 0.4258(3) 0.2219(6) 0.5582(3)
C25_7 C 0.4316(3) 0.2956(7) 0.5833(3)
N9_7 N 0.4601(3) 0.3571(6) 0.5811(3)
C26_7 C 0.4832(3) 0.3387(7) 0.5516(3)
N10_7 N 0.4795(3) 0.2693(6) 0.5240(3)
N11_4 N 0.5816(3) 0.5157(6) 0.5539(3)
C27_7 C 0.3810(4) 0.4056(9) 0.6672(5)
H17_7 H 0.3799 0.4638 0.6801
C28_7 C 0.4039(4) 0.3950(9) 0.6353(5)
H18_7 H 0.4183 0.4447 0.6262
C29_7 C 0.4059(3) 0.3108(6) 0.6163(4)
C30_7 C 0.3835(5) 0.2448(9) 0.6291(5)
H19_7 H 0.3830 0.1869 0.6156
C31_7 C 0.3613(5) 0.2597(10) 0.6614(6)
H20_7 H 0.3462 0.2108 0.6700
N12_4 N 0.3598(3) 0.3387(6) 0.6813(3)
C32_5 C 0.5679(3) 0.4698(7) 0.5160(4)
H21_5 H 0.5801 0.4772 0.4907
C33_5 C 0.5356(3) 0.4118(7) 0.5151(3)
H22_5 H 0.5260 0.3786 0.4890
C34_5 C 0.5177(3) 0.4021(7) 0.5505(4)
C35_5 C 0.5332(4) 0.4484(10) 0.5894(4)
H23_5 H 0.5223 0.4398 0.6156
C36_5 C 0.5641(5) 0.5057(11) 0.5891(5)
H24_5 H 0.5735 0.5401 0.6149
Zn4_4 Zn 0.62944(4) 0.60482(9) 0.55846(5)
Zn5_4 Zn 0.32861(5) 0.35748(9) 0.73178(5)
N14_4 N 0.3598(3) 0.6613(6) 0.1813(3)
I1_6 I 0.60889(3) 0.74325(6) 0.59862(3)
I2_3 I 0.65461(3) 0.60081(8) 0.48637(3)
N1_6 N 0.6714(3) 0.5375(6) 0.6034(3)
C1_6 C 0.6923(4) 0.5797(8) 0.6387(4)
H1_6 H 0.6862 0.6410 0.6440
C2_6 C 0.7222(4) 0.5383(8) 0.6671(4)
H2_6 H 0.7369 0.5710 0.6911
C3_7 C 0.7305(3) 0.4498(8) 0.6608(3)
C4_7 C 0.7086(4) 0.4043(7) 0.6255(4)
H3_7 H 0.7135 0.3423 0.6201
C5_7 C 0.6789(4) 0.4526(8) 0.5978(4)
H4_7 H 0.6635 0.4216 0.5736
C6_7 C 0.7629(3) 0.4030(7) 0.6914(3)
N2_7 N 0.7828(3) 0.4549(6) 0.7241(3)
C7_7 C 0.8138(3) 0.4128(6) 0.7492(3)
N3_7 N 0.8233(2) 0.3267(5) 0.7462(3)
C8_7 C 0.7987(3) 0.2796(7) 0.7149(3)
N4_7 N 0.7693(3) 0.3153(6) 0.6854(3)
N5_6 N 0.8826(3) 0.5585(6) 0.8552(3)
C9_7 C 0.8921(4) 0.4760(8) 0.8451(4)
H5_7 H 0.9152 0.4495 0.8619
C10_7 C 0.8701(4) 0.4241(8) 0.8109(4)
H6_7 H 0.8773 0.3635 0.8056
C11_7 C 0.8376(3) 0.4650(6) 0.7855(3)
C12_6 C 0.8279(4) 0.5533(7) 0.7953(4)
H7_6 H 0.8056 0.5822 0.7782
C13_6 C 0.8506(4) 0.5984(7) 0.8295(4)
H8_6 H 0.8439 0.6590 0.8357
C14_7 C 0.7874(4) 0.0291(9) 0.6957(4)
C15_7 C 0.7807(4) 0.1216(7) 0.6903(5)
H10_7 H 0.7594 0.1434 0.6689
C16_7 C 0.8051(3) 0.1807(7) 0.7161(3)
C17_7 C 0.8361(4) 0.1447(7) 0.7464(4)
H11_7 H 0.8541 0.1835 0.7646
C18_7 C 0.8402(4) 0.0527(8) 0.7499(4)
H12_7 H 0.8610 0.0289 0.7714
I5_6 I 0.88295(3) 0.74153(5) 0.93943(3)
Zn3_6 Zn 0.92167(4) 0.62734(8) 0.90222(4)
I6_6 I 0.98247(3) 0.65115(7) 0.86567(3)
N7_6 N 0.9351(3) 0.5212(6) 0.9470(3)
C19_6 C 0.9089(4) 0.5003(9) 0.9729(5)
H13_6 H 0.8865 0.5385 0.9727
C22_7 C 0.9721(4) 0.3911(8) 0.9744(4)
H15_7 H 0.9943 0.3526 0.9735
C23_7 C 0.9663(3) 0.4682(7) 0.9484(4)
H16_7 H 0.9858 0.4835 0.9308
N6_7 N 0.8164(3) 0.9947(6) 0.7243(3)
H9_7 H 0.7699 0.9888 0.6776
I3_7 I 0.76567(3) 0.76721(7) 0.70868(4)
I4_7 I 0.87571(4) 0.83949(7) 0.80527(3)
C20_8 C 0.4131(4) 0.9253(9) 0.0002(5)
H14_8 H 0.3937 0.9119 0.0179
C21_8 C 0.4453(3) 0.8713(7) 0.0013(4)
C24_8 C 0.4503(3) 0.7881(7) 0.0291(3)
N8_8 N 0.4258(3) 0.7781(6) 0.0582(3)
C25_8 C 0.4316(3) 0.7044(7) 0.0833(3)
N9_8 N 0.4601(3) 0.6429(6) 0.0811(3)
C26_8 C 0.4832(3) 0.6613(7) 0.0516(3)
N10_8 N 0.4795(3) 0.7307(6) 0.0240(3)
C27_8 C 0.3810(4) 0.5944(9) 0.1672(5)
H17_8 H 0.3799 0.5362 0.1801
C28_8 C 0.4039(4) 0.6050(9) 0.1353(5)
H18_8 H 0.4183 0.5553 0.1262
C29_8 C 0.4059(3) 0.6892(6) 0.1163(4)
C30_8 C 0.3835(5) 0.7552(9) 0.1291(5)
H19_8 H 0.3830 0.8131 0.1156
C31_8 C 0.3613(5) 0.7403(10) 0.1614(6)
H20_8 H 0.3462 0.7892 0.1700
C32_6 C 0.5679(3) 0.5302(7) 0.0160(4)
C33_6 C 0.5356(3) 0.5882(7) 0.0151(3)
C34_6 C 0.5177(3) 0.5979(7) 0.0505(4)
C35_6 C 0.5332(4) 0.5516(10) 0.0894(4)
H23_6 H 0.5223 0.5602 0.1156
C36_6 C 0.5641(5) 0.4943(11) 0.0891(5)
H24_6 H 0.5735 0.4599 0.1149
C3_8 C 0.2305(3) 0.9498(8) 0.6608(3)
C4_8 C 0.2086(4) 0.9043(7) 0.6255(4)
H3_8 H 0.2135 0.8423 0.6201
C5_8 C 0.1789(4) 0.9526(8) 0.5978(4)
H4_8 H 0.1635 0.9216 0.5736
C6_8 C 0.2629(3) 0.9030(7) 0.6914(3)
N2_8 N 0.2828(3) 0.9549(6) 0.7241(3)
C7_8 C 0.3138(3) 0.9128(6) 0.7492(3)
N3_8 N 0.3233(2) 0.8267(5) 0.7462(3)
C8_8 C 0.2987(3) 0.7796(7) 0.7149(3)
N4_8 N 0.2693(3) 0.8153(6) 0.6854(3)
C9_8 C 0.3921(4) 0.9760(8) 0.8451(4)
H5_8 H 0.4152 0.9495 0.8619
C10_8 C 0.3701(4) 0.9241(8) 0.8109(4)
H6_8 H 0.3773 0.8635 0.8056
C11_8 C 0.3376(3) 0.9650(6) 0.7855(3)
N6_8 N 0.3164(3) 0.4947(6) 0.7243(3)
C14_8 C 0.2874(4) 0.5291(9) 0.6957(4)
H9_8 H 0.2699 0.4888 0.6776
C15_8 C 0.2807(4) 0.6216(7) 0.6903(5)
H10_8 H 0.2594 0.6434 0.6689
C16_8 C 0.3051(3) 0.6807(7) 0.7161(3)
C17_8 C 0.3361(4) 0.6447(7) 0.7464(4)
H11_8 H 0.3541 0.6835 0.7646
C18_8 C 0.3402(4) 0.5527(8) 0.7499(4)
H12_8 H 0.3610 0.5289 0.7714
I3_8 I 0.26567(3) 0.26721(7) 0.70868(4)
I4_8 I 0.37571(4) 0.33949(7) 0.80527(3)
C22_8 C 0.4721(4) 0.8911(8) 0.9744(4)
H15_8 H 0.4943 0.8526 0.9735
C23_8 C 0.4663(3) 0.9682(7) 0.9484(4)
H16_8 H 0.4858 0.9835 0.9308
H21_6 H 0.5801 0.5228 0.9907
H22_6 H 0.5260 0.6214 0.9890
I2_4 I 0.65461(3) 0.39919(8) 0.98637(3)
I1_7 I 0.89111(3) 0.75675(6) 0.40138(3)
Zn1_3 Zn 0.87056(4) 0.89518(9) 0.44154(5)
I2_5 I 0.84539(3) 0.89919(8) 0.51363(3)
N1_7 N 0.8286(3) 0.9625(6) 0.3966(3)
C1_7 C 0.8077(4) 0.9203(8) 0.3613(4)
H1_7 H 0.8138 0.8590 0.3560
C2_7 C 0.7778(4) 0.9617(8) 0.3329(4)
H2_7 H 0.7631 0.9290 0.3089
N5_7 N 0.6174(3) 0.9415(6) 0.1448(3)
C12_7 C 0.6721(4) 0.9467(7) 0.2047(4)
H7_7 H 0.6944 0.9178 0.2218
C13_7 C 0.6494(4) 0.9016(7) 0.1705(4)
H8_7 H 0.6561 0.8410 0.1643
I5_7 I 0.61705(3) 0.75847(5) 0.06057(3)
Zn3_7 Zn 0.57833(4) 0.87266(8) 0.09778(4)
I6_7 I 0.51753(3) 0.84885(7) 0.13433(3)
N7_7 N 0.5649(3) 0.9788(6) 0.0530(3)
C19_7 C 0.5911(4) 0.9997(9) 0.0271(5)
H13_7 H 0.6135 0.9615 0.0273
N13_3 N 0.9184(3) 0.9843(6) 0.4461(3)
C36_7 C 0.9359(5) 0.9943(11) 0.4109(5)
H24_7 H 0.9265 0.9599 0.3851
I1_8 I 0.10889(3) 0.75675(6) 0.09862(3)
Zn1_4 Zn 0.12944(4) 0.89518(9) 0.05846(5)
N1_8 N 0.1714(3) 0.9625(6) 0.1034(3)
C1_8 C 0.1923(4) 0.9203(8) 0.1387(4)
H1_8 H 0.1862 0.8590 0.1440
C2_8 C 0.2222(4) 0.9617(8) 0.1671(4)
H2_8 H 0.2369 0.9290 0.1911
N5_8 N 0.3826(3) 0.9415(6) 0.3552(3)
C12_8 C 0.3279(4) 0.9467(7) 0.2953(4)
H7_8 H 0.3056 0.9178 0.2782
C13_8 C 0.3506(4) 0.9016(7) 0.3295(4)
H8_8 H 0.3439 0.8410 0.3357
I5_8 I 0.38295(3) 0.75847(5) 0.43943(3)
Zn3_8 Zn 0.42167(4) 0.87266(8) 0.40222(4)
I6_8 I 0.48247(3) 0.84885(7) 0.36567(3)
N7_8 N 0.4351(3) 0.9788(6) 0.4470(3)
C19_8 C 0.4089(4) 0.9997(9) 0.4729(5)
H13_8 H 0.3865 0.9615 0.4727
N13_4 N 0.0816(3) 0.9843(6) 0.0539(3)
C36_8 C 0.0641(5) 0.9943(11) 0.0891(5)
H24_8 H 0.0735 0.9599 0.1149
I2_6 I 0.15461(3) 0.89919(8) 0.98637(3)
C32_7 C 0.0679(3) 0.0302(7) 0.0160(4)
C33_7 C 0.0356(3) 0.0882(7) 0.0151(3)
C34_7 C 0.0177(3) 0.0979(7) 0.0505(4)
C35_7 C 0.0332(4) 0.0516(10) 0.0894(4)
H23_7 H 0.0223 0.0602 0.1156
H21_7 H 0.0801 0.0228 0.9907
H22_7 H 0.0260 0.1214 0.9890
I2_7 I 0.34539(3) 0.60081(8) 0.01363(3)
C32_8 C 0.9321(3) 0.0302(7) 0.4840(4)
H21_8 H 0.9199 0.0228 0.5093
C33_8 C 0.9644(3) 0.0882(7) 0.4849(3)
H22_8 H 0.9740 0.1214 0.5110
C34_8 C 0.9823(3) 0.0979(7) 0.4495(4)
C35_8 C 0.9668(4) 0.0516(10) 0.4106(4)
H23_8 H 0.9777 0.0602 0.3844
I2_8 I 0.84539(3) 0.10081(8) 0.01363(3)
loop_
_geom_bond_atom_site_label_1
_geom_bond_atom_site_label_2
_geom_bond_site_symmetry_1
_geom_bond_site_symmetry_2
I3 Zn2 1_555 1_555
Zn2 N6 1_555 1_555
I4 Zn2 1_555 1_555
N14 Zn2 1_555 1_555
I1 Zn1 1_555 1_555
Zn1 I2 1_555 1_555
N1 Zn1 1_555 1_555
C1 N1 1_555 1_555
H1 C1 1_555 1_555
C2 C1 1_555 1_555
H2 C2 1_555 1_555
C3 C2 1_555 1_555
C4 C3 1_555 1_555
H3 C4 1_555 1_555
C5 N1 1_555 1_555
H4 C5 1_555 1_555
C6 C3 1_555 1_555
N2 C6 1_555 1_555
C7 N2 1_555 1_555
N3 C7 1_555 1_555
C8 N3 1_555 1_555
N4 C6 1_555 1_555
N5 C9 1_555 1_555
C9 H5 1_555 1_555
C10 C9 1_555 1_555
H6 C10 1_555 1_555
C11 C7 1_555 1_555
C12 C11 1_555 1_555
H7 C12 1_555 1_555
C13 N5 1_555 1_555
H8 C13 1_555 1_555
C15 C14 1_555 1_555
H10 C15 1_555 1_555
C16 C8 1_555 1_555
C17 C16 1_555 1_555
H11 C17 1_555 1_555
H12 C18 1_555 1_555
I5 Zn3 1_555 1_555
Zn3 N5 1_555 1_555
I6 Zn3 1_555 1_555
N7 Zn3 1_555 1_555
C19 N7 1_555 1_555
H13 C19 1_555 1_555
H15 C22 1_555 1_555
C23 N7 1_555 1_555
H16 C23 1_555 1_555
N13 Zn1 1_555 1_555
C4 C5 1_555 1_555
C8 N4 1_555 1_555
C10 C11 1_555 1_555
C12 C13 1_555 1_555
C15 C16 1_555 1_555
C17 C18 1_555 1_555
C22 C23 1_555 1_555
C4_2 C3_2 1_555 1_555
H3_2 C4_2 1_555 1_555
H4_2 C5_2 1_555 1_555
C6_2 C3_2 1_555 1_555
N2_2 C6_2 1_555 1_555
C7_2 N2_2 1_555 1_555
N3_2 C7_2 1_555 1_555
C8_2 N3_2 1_555 1_555
N4_2 C6_2 1_555 1_555
C9_2 H5_2 1_555 1_555
C10_2 C9_2 1_555 1_555
H6_2 C10_2 1_555 1_555
C11_2 C7_2 1_555 1_555
N6_2 C14_2 1_555 1_555
C14_2 H9_2 1_555 1_555
C15_2 C14_2 1_555 1_555
H10_2 C15_2 1_555 1_555
C16_2 C8_2 1_555 1_555
C17_2 C16_2 1_555 1_555
H11_2 C17_2 1_555 1_555
C18_2 N6_2 1_555 1_555
H12_2 C18_2 1_555 1_555
I3_2 Zn2_2 1_555 1_555
Zn2_2 N6_2 1_555 1_555
I4_2 Zn2_2 1_555 1_555
H15_2 C22_2 1_555 1_555
H16_2 C23_2 1_555 1_555
N14_2 Zn2_2 1_555 1_555
C4_2 C5_2 1_555 1_555
C8_2 N4_2 1_555 1_555
C10_2 C11_2 1_555 1_555
C15_2 C16_2 1_555 1_555
C17_2 C18_2 1_555 1_555
C22_2 C23_2 1_555 1_555
H14 C20 1_555 1_555
C21 C20 1_555 1_555
C24 C21 1_555 1_555
N8 C24 1_555 1_555
C25 N8 1_555 1_555
N9 C25 1_555 1_555
C26 N9 1_555 1_555
N10 C24 1_555 1_555
N11 C32 1_555 1_555
C27 H17 1_555 1_555
C28 C27 1_555 1_555
H18 C28 1_555 1_555
C29 C25 1_555 1_555
C30 C29 1_555 1_555
H19 C30 1_555 1_555
C31 C30 1_555 1_555
H20 C31 1_555 1_555
N12 C27 1_555 1_555
C33 C32 1_555 1_555
C34 C26 1_555 1_555
C35 C34 1_555 1_555
H23 C35 1_555 1_555
C36 N11 1_555 1_555
H24 C36 1_555 1_555
Zn4 N11 1_555 1_555
Zn5 N12 1_555 1_555
C26 N10 1_555 1_555
C28 C29 1_555 1_555
C31 N12 1_555 1_555
C33 C34 1_555 1_555
C35 C36 1_555 1_555
I1_2 Zn4 1_555 1_555
N1_2 Zn4 1_555 1_555
C1_2 N1_2 1_555 1_555
H1_2 C1_2 1_555 1_555
C2_2 C1_2 1_555 1_555
H2_2 C2_2 1_555 1_555
C3_3 C2_2 1_555 1_555
C4_3 C3_3 1_555 1_555
H3_3 C4_3 1_555 1_555
C5_3 N1_2 1_555 1_555
H4_3 C5_3 1_555 1_555
C6_3 C3_3 1_555 1_555
N2_3 C6_3 1_555 1_555
C7_3 N2_3 1_555 1_555
N3_3 C7_3 1_555 1_555
C8_3 N3_3 1_555 1_555
N4_3 C6_3 1_555 1_555
N5_2 C9_3 1_555 1_555
C9_3 H5_3 1_555 1_555
C10_3 C9_3 1_555 1_555
H6_3 C10_3 1_555 1_555
C11_3 C7_3 1_555 1_555
C12_2 C11_3 1_555 1_555
H7_2 C12_2 1_555 1_555
C13_2 N5_2 1_555 1_555
H8_2 C13_2 1_555 1_555
C15_3 C14_3 1_555 1_555
H10_3 C15_3 1_555 1_555
C16_3 C8_3 1_555 1_555
C17_3 C16_3 1_555 1_555
H11_3 C17_3 1_555 1_555
H12_3 C18_3 1_555 1_555
I5_2 Zn3_2 1_555 1_555
Zn3_2 N5_2 1_555 1_555
I6_2 Zn3_2 1_555 1_555
N7_2 Zn3_2 1_555 1_555
C19_2 N7_2 1_555 1_555
H13_2 C19_2 1_555 1_555
C20_2 C19_2 1_555 1_555
H14_2 C20_2 1_555 1_555
C21_2 C20_2 1_555 1_555
C22_3 C21_2 1_555 1_555
H15_3 C22_3 1_555 1_555
C23_3 N7_2 1_555 1_555
H16_3 C23_3 1_555 1_555
C24_2 C21_2 1_555 1_555
N8_2 C24_2 1_555 1_555
C25_2 N8_2 1_555 1_555
N9_2 C25_2 1_555 1_555
C26_2 N9_2 1_555 1_555
N10_2 C24_2 1_555 1_555
C27_2 H17_2 1_555 1_555
C28_2 C27_2 1_555 1_555
H18_2 C28_2 1_555 1_555
C29_2 C25_2 1_555 1_555
C30_2 C29_2 1_555 1_555
H19_2 C30_2 1_555 1_555
C31_2 C30_2 1_555 1_555
H20_2 C31_2 1_555 1_555
N14 C27_2 1_555 1_555
C4_3 C5_3 1_555 1_555
C8_3 N4_3 1_555 1_555
C10_3 C11_3 1_555 1_555
C12_2 C13_2 1_555 1_555
C15_3 C16_3 1_555 1_555
C17_3 C18_3 1_555 1_555
C22_3 C23_3 1_555 1_555
C26_2 N10_2 1_555 1_555
C28_2 C29_2 1_555 1_555
C31_2 N14 1_555 1_555
C4_4 C3_4 1_555 1_555
H3_4 C4_4 1_555 1_555
H4_4 C5_4 1_555 1_555
C6_4 C3_4 1_555 1_555
N2_4 C6_4 1_555 1_555
C7_4 N2_4 1_555 1_555
N3_4 C7_4 1_555 1_555
C8_4 N3_4 1_555 1_555
N4_4 C6_4 1_555 1_555
C9_4 H5_4 1_555 1_555
C10_4 C9_4 1_555 1_555
H6_4 C10_4 1_555 1_555
C11_4 C7_4 1_555 1_555
N6_3 C14_4 1_555 1_555
C14_4 H9_3 1_555 1_555
C15_4 C14_4 1_555 1_555
H10_4 C15_4 1_555 1_555
C16_4 C8_4 1_555 1_555
C17_4 C16_4 1_555 1_555
H11_4 C17_4 1_555 1_555
C18_4 N6_3 1_555 1_555
H12_4 C18_4 1_555 1_555
I3_3 Zn5 1_555 1_555
Zn5 N6_3 1_555 1_555
I4_3 Zn5 1_555 1_555
H14_3 C20_3 1_555 1_555
C21_3 C20_3 1_555 1_555
C22_4 C21_3 1_555 1_555
H15_4 C22_4 1_555 1_555
H16_4 C23_4 1_555 1_555
C24_3 C21_3 1_555 1_555
N8_3 C24_3 1_555 1_555
C25_3 N8_3 1_555 1_555
N9_3 C25_3 1_555 1_555
C26_3 N9_3 1_555 1_555
N10_3 C24_3 1_555 1_555
N13 C32_2 1_555 1_555
C27_3 H17_3 1_555 1_555
C28_3 C27_3 1_555 1_555
H18_3 C28_3 1_555 1_555
C29_3 C25_3 1_555 1_555
C30_3 C29_3 1_555 1_555
H19_3 C30_3 1_555 1_555
C31_3 C30_3 1_555 1_555
H20_3 C31_3 1_555 1_555
N14_2 C27_3 1_555 1_555
C32_2 H21_2 1_555 1_555
C33_2 C32_2 1_555 1_555
H22_2 C33_2 1_555 1_555
C34_2 C26_3 1_555 1_555
C35_2 C34_2 1_555 1_555
H23_2 C35_2 1_555 1_555
C36_2 N13 1_555 1_555
H24_2 C36_2 1_555 1_555
C4_4 C5_4 1_555 1_555
C8_4 N4_4 1_555 1_555
C10_4 C11_4 1_555 1_555
C15_4 C16_4 1_555 1_555
C17_4 C18_4 1_555 1_555
C22_4 C23_4 1_555 1_555
C26_3 N10_3 1_555 1_555
C28_3 C29_3 1_555 1_555
C31_3 N14_2 1_555 1_555
C33_2 C34_2 1_555 1_555
C35_2 C36_2 1_555 1_555
H14_4 C20_4 1_555 1_555
C21_4 C20_4 1_555 1_555
C24_4 C21_4 1_555 1_555
N8_4 C24_4 1_555 1_555
C25_4 N8_4 1_555 1_555
N9_4 C25_4 1_555 1_555
C26_4 N9_4 1_555 1_555
N10_4 C24_4 1_555 1_555
C27_4 H17_4 1_555 1_555
C28_4 C27_4 1_555 1_555
H18_4 C28_4 1_555 1_555
C29_4 C25_4 1_555 1_555
C30_4 C29_4 1_555 1_555
H19_4 C30_4 1_555 1_555
C31_4 C30_4 1_555 1_555
H20_4 C31_4 1_555 1_555
N12_2 C27_4 1_555 1_555
Zn5_2 N12_2 1_555 1_555
C26_4 N10_4 1_555 1_555
C28_4 C29_4 1_555 1_555
C31_4 N12_2 1_555 1_555
I3_4 Zn5_2 1_555 1_555
Zn5_2 N6_4 1_555 1_555
I4_4 Zn5_2 1_555 1_555
C36_3 N11_2 1_555 1_555
H24_3 C36_3 1_555 1_555
Zn4_2 N11_2 1_555 1_555
I1_3 Zn4_2 1_555 1_555
N1_3 Zn4_2 1_555 1_555
C1_3 N1_3 1_555 1_555
H1_3 C1_3 1_555 1_555
C2_3 C1_3 1_555 1_555
H2_3 C2_3 1_555 1_555
H7_3 C12_3 1_555 1_555
C13_3 N5_3 1_555 1_555
H8_3 C13_3 1_555 1_555
I5_3 Zn3_3 1_555 1_555
Zn3_3 N5_3 1_555 1_555
I6_3 Zn3_3 1_555 1_555
N7_3 Zn3_3 1_555 1_555
C19_3 N7_3 1_555 1_555
H13_3 C19_3 1_555 1_555
C12_3 C13_3 1_555 1_555
C33_3 C32_3 1_555 1_555
C35_3 C34_3 1_555 1_555
H23_3 C35_3 1_555 1_555
C33_3 C34_3 1_555 1_555
C36_4 N11_3 1_555 1_555
H24_4 C36_4 1_555 1_555
Zn4_3 N11_3 1_555 1_555
I1_4 Zn4_3 1_555 1_555
Zn4_3 I2_2 1_555 1_555
N1_4 Zn4_3 1_555 1_555
C1_4 N1_4 1_555 1_555
H1_4 C1_4 1_555 1_555
C2_4 C1_4 1_555 1_555
H2_4 C2_4 1_555 1_555
H7_4 C12_4 1_555 1_555
C13_4 N5_4 1_555 1_555
H8_4 C13_4 1_555 1_555
I5_4 Zn3_4 1_555 1_555
Zn3_4 N5_4 1_555 1_555
I6_4 Zn3_4 1_555 1_555
N7_4 Zn3_4 1_555 1_555
C19_4 N7_4 1_555 1_555
H13_4 C19_4 1_555 1_555
C12_4 C13_4 1_555 1_555
C32_4 H21_4 1_555 1_555
C33_4 C32_4 1_555 1_555
H22_4 C33_4 1_555 1_555
C35_4 C34_4 1_555 1_555
H23_4 C35_4 1_555 1_555
C33_4 C34_4 1_555 1_555
I3_5 Zn2_3 1_555 1_555
Zn2_3 N6_5 1_555 1_555
I4_5 Zn2_3 1_555 1_555
N14_3 Zn2_3 1_555 1_555
H14_5 C20_5 1_555 1_555
C21_5 C20_5 1_555 1_555
C24_5 C21_5 1_555 1_555
N8_5 C24_5 1_555 1_555
C25_5 N8_5 1_555 1_555
N9_5 C25_5 1_555 1_555
C26_5 N9_5 1_555 1_555
N10_5 C24_5 1_555 1_555
C27_5 H17_5 1_555 1_555
C28_5 C27_5 1_555 1_555
H18_5 C28_5 1_555 1_555
C29_5 C25_5 1_555 1_555
C30_5 C29_5 1_555 1_555
H19_5 C30_5 1_555 1_555
C31_5 C30_5 1_555 1_555
H20_5 C31_5 1_555 1_555
N14_3 C27_5 1_555 1_555
C26_5 N10_5 1_555 1_555
C28_5 C29_5 1_555 1_555
C31_5 N14_3 1_555 1_555
I1_5 Zn1_2 1_555 1_555
N1_5 Zn1_2 1_555 1_555
C1_5 N1_5 1_555 1_555
H1_5 C1_5 1_555 1_555
C2_5 C1_5 1_555 1_555
H2_5 C2_5 1_555 1_555
C3_5 C2_5 1_555 1_555
C4_5 C3_5 1_555 1_555
H3_5 C4_5 1_555 1_555
C5_5 N1_5 1_555 1_555
H4_5 C5_5 1_555 1_555
C6_5 C3_5 1_555 1_555
N2_5 C6_5 1_555 1_555
C7_5 N2_5 1_555 1_555
N3_5 C7_5 1_555 1_555
C8_5 N3_5 1_555 1_555
N4_5 C6_5 1_555 1_555
N5_5 C9_5 1_555 1_555
C9_5 H5_5 1_555 1_555
C10_5 C9_5 1_555 1_555
H6_5 C10_5 1_555 1_555
C11_5 C7_5 1_555 1_555
C12_5 C11_5 1_555 1_555
H7_5 C12_5 1_555 1_555
C13_5 N5_5 1_555 1_555
H8_5 C13_5 1_555 1_555
C15_5 C14_5 1_555 1_555
H10_5 C15_5 1_555 1_555
C16_5 C8_5 1_555 1_555
C17_5 C16_5 1_555 1_555
H11_5 C17_5 1_555 1_555
H12_5 C18_5 1_555 1_555
I5_5 Zn3_5 1_555 1_555
Zn3_5 N5_5 1_555 1_555
I6_5 Zn3_5 1_555 1_555
N7_5 Zn3_5 1_555 1_555
C19_5 N7_5 1_555 1_555
H13_5 C19_5 1_555 1_555
C20_6 C19_5 1_555 1_555
H14_6 C20_6 1_555 1_555
C21_6 C20_6 1_555 1_555
C22_5 C21_6 1_555 1_555
H15_5 C22_5 1_555 1_555
C23_5 N7_5 1_555 1_555
H16_5 C23_5 1_555 1_555
C24_6 C21_6 1_555 1_555
N8_6 C24_6 1_555 1_555
C25_6 N8_6 1_555 1_555
N9_6 C25_6 1_555 1_555
C26_6 N9_6 1_555 1_555
N10_6 C24_6 1_555 1_555
C27_6 H17_6 1_555 1_555
C28_6 C27_6 1_555 1_555
H18_6 C28_6 1_555 1_555
C29_6 C25_6 1_555 1_555
C30_6 C29_6 1_555 1_555
H19_6 C30_6 1_555 1_555
C31_6 C30_6 1_555 1_555
H20_6 C31_6 1_555 1_555
N12_3 C27_6 1_555 1_555
Zn5_3 N12_3 1_555 1_555
N13_2 Zn1_2 1_555 1_555
C4_5 C5_5 1_555 1_555
C8_5 N4_5 1_555 1_555
C10_5 C11_5 1_555 1_555
C12_5 C13_5 1_555 1_555
C15_5 C16_5 1_555 1_555
C17_5 C18_5 1_555 1_555
C22_5 C23_5 1_555 1_555
C26_6 N10_6 1_555 1_555
C28_6 C29_6 1_555 1_555
C31_6 N12_3 1_555 1_555
C4_6 C3_6 1_555 1_555
H3_6 C4_6 1_555 1_555
H4_6 C5_6 1_555 1_555
C6_6 C3_6 1_555 1_555
N2_6 C6_6 1_555 1_555
C7_6 N2_6 1_555 1_555
N3_6 C7_6 1_555 1_555
C8_6 N3_6 1_555 1_555
N4_6 C6_6 1_555 1_555
C9_6 H5_6 1_555 1_555
C10_6 C9_6 1_555 1_555
H6_6 C10_6 1_555 1_555
C11_6 C7_6 1_555 1_555
N6_6 C14_6 1_555 1_555
C14_6 H9_6 1_555 1_555
C15_6 C14_6 1_555 1_555
H10_6 C15_6 1_555 1_555
C16_6 C8_6 1_555 1_555
C17_6 C16_6 1_555 1_555
H11_6 C17_6 1_555 1_555
C18_6 N6_6 1_555 1_555
H12_6 C18_6 1_555 1_555
I3_6 Zn2_4 1_555 1_555
Zn2_4 N6_6 1_555 1_555
I4_6 Zn2_4 1_555 1_555
H14_7 C20_7 1_555 1_555
C21_7 C20_7 1_555 1_555
C22_6 C21_7 1_555 1_555
H15_6 C22_6 1_555 1_555
H16_6 C23_6 1_555 1_555
C24_7 C21_7 1_555 1_555
N8_7 C24_7 1_555 1_555
C25_7 N8_7 1_555 1_555
N9_7 C25_7 1_555 1_555
C26_7 N9_7 1_555 1_555
N10_7 C24_7 1_555 1_555
N11_4 C32_5 1_555 1_555
C27_7 H17_7 1_555 1_555
C28_7 C27_7 1_555 1_555
H18_7 C28_7 1_555 1_555
C29_7 C25_7 1_555 1_555
C30_7 C29_7 1_555 1_555
H19_7 C30_7 1_555 1_555
C31_7 C30_7 1_555 1_555
H20_7 C31_7 1_555 1_555
N12_4 C27_7 1_555 1_555
C32_5 H21_5 1_555 1_555
C33_5 C32_5 1_555 1_555
H22_5 C33_5 1_555 1_555
C34_5 C26_7 1_555 1_555
C35_5 C34_5 1_555 1_555
H23_5 C35_5 1_555 1_555
C36_5 N11_4 1_555 1_555
H24_5 C36_5 1_555 1_555
Zn4_4 N11_4 1_555 1_555
Zn5_4 N12_4 1_555 1_555
N14_4 Zn2_4 1_555 1_555
C4_6 C5_6 1_555 1_555
C8_6 N4_6 1_555 1_555
C10_6 C11_6 1_555 1_555
C15_6 C16_6 1_555 1_555
C17_6 C18_6 1_555 1_555
C22_6 C23_6 1_555 1_555
C26_7 N10_7 1_555 1_555
C28_7 C29_7 1_555 1_555
C31_7 N12_4 1_555 1_555
C33_5 C34_5 1_555 1_555
C35_5 C36_5 1_555 1_555
I1_6 Zn4_4 1_555 1_555
Zn4_4 I2_3 1_555 1_555
N1_6 Zn4_4 1_555 1_555
C1_6 N1_6 1_555 1_555
H1_6 C1_6 1_555 1_555
C2_6 C1_6 1_555 1_555
H2_6 C2_6 1_555 1_555
C3_7 C2_6 1_555 1_555
C4_7 C3_7 1_555 1_555
H3_7 C4_7 1_555 1_555
C5_7 N1_6 1_555 1_555
H4_7 C5_7 1_555 1_555
C6_7 C3_7 1_555 1_555
N2_7 C6_7 1_555 1_555
C7_7 N2_7 1_555 1_555
N3_7 C7_7 1_555 1_555
C8_7 N3_7 1_555 1_555
N4_7 C6_7 1_555 1_555
N5_6 C9_7 1_555 1_555
C9_7 H5_7 1_555 1_555
C10_7 C9_7 1_555 1_555
H6_7 C10_7 1_555 1_555
C11_7 C7_7 1_555 1_555
C12_6 C11_7 1_555 1_555
H7_6 C12_6 1_555 1_555
C13_6 N5_6 1_555 1_555
H8_6 C13_6 1_555 1_555
C15_7 C14_7 1_555 1_555
H10_7 C15_7 1_555 1_555
C16_7 C8_7 1_555 1_555
C17_7 C16_7 1_555 1_555
H11_7 C17_7 1_555 1_555
H12_7 C18_7 1_555 1_555
I5_6 Zn3_6 1_555 1_555
Zn3_6 N5_6 1_555 1_555
I6_6 Zn3_6 1_555 1_555
N7_6 Zn3_6 1_555 1_555
C19_6 N7_6 1_555 1_555
H13_6 C19_6 1_555 1_555
H15_7 C22_7 1_555 1_555
C23_7 N7_6 1_555 1_555
H16_7 C23_7 1_555 1_555
C4_7 C5_7 1_555 1_555
C8_7 N4_7 1_555 1_555
C10_7 C11_7 1_555 1_555
C12_6 C13_6 1_555 1_555
C15_7 C16_7 1_555 1_555
C17_7 C18_7 1_555 1_555
C22_7 C23_7 1_555 1_555
I3_7 Zn5_3 1_555 1_555
Zn5_3 N6_7 1_555 1_555
I4_7 Zn5_3 1_555 1_555
H14_8 C20_8 1_555 1_555
C21_8 C20_8 1_555 1_555
C24_8 C21_8 1_555 1_555
N8_8 C24_8 1_555 1_555
C25_8 N8_8 1_555 1_555
N9_8 C25_8 1_555 1_555
C26_8 N9_8 1_555 1_555
N10_8 C24_8 1_555 1_555
N13_2 C32_6 1_555 1_555
C27_8 H17_8 1_555 1_555
C28_8 C27_8 1_555 1_555
H18_8 C28_8 1_555 1_555
C29_8 C25_8 1_555 1_555
C30_8 C29_8 1_555 1_555
H19_8 C30_8 1_555 1_555
C31_8 C30_8 1_555 1_555
H20_8 C31_8 1_555 1_555
N14_4 C27_8 1_555 1_555
C33_6 C32_6 1_555 1_555
C34_6 C26_8 1_555 1_555
C35_6 C34_6 1_555 1_555
H23_6 C35_6 1_555 1_555
C36_6 N13_2 1_555 1_555
H24_6 C36_6 1_555 1_555
C26_8 N10_8 1_555 1_555
C28_8 C29_8 1_555 1_555
C31_8 N14_4 1_555 1_555
C33_6 C34_6 1_555 1_555
C35_6 C36_6 1_555 1_555
C4_8 C3_8 1_555 1_555
H3_8 C4_8 1_555 1_555
H4_8 C5_8 1_555 1_555
C6_8 C3_8 1_555 1_555
N2_8 C6_8 1_555 1_555
C7_8 N2_8 1_555 1_555
N3_8 C7_8 1_555 1_555
C8_8 N3_8 1_555 1_555
N4_8 C6_8 1_555 1_555
C9_8 H5_8 1_555 1_555
C10_8 C9_8 1_555 1_555
H6_8 C10_8 1_555 1_555
C11_8 C7_8 1_555 1_555
N6_8 C14_8 1_555 1_555
C14_8 H9_8 1_555 1_555
C15_8 C14_8 1_555 1_555
H10_8 C15_8 1_555 1_555
C16_8 C8_8 1_555 1_555
C17_8 C16_8 1_555 1_555
H11_8 C17_8 1_555 1_555
C18_8 N6_8 1_555 1_555
H12_8 C18_8 1_555 1_555
I3_8 Zn5_4 1_555 1_555
Zn5_4 N6_8 1_555 1_555
I4_8 Zn5_4 1_555 1_555
H15_8 C22_8 1_555 1_555
H16_8 C23_8 1_555 1_555
C4_8 C5_8 1_555 1_555
C8_8 N4_8 1_555 1_555
C10_8 C11_8 1_555 1_555
C15_8 C16_8 1_555 1_555
C17_8 C18_8 1_555 1_555
C22_8 C23_8 1_555 1_555
I1_7 Zn1_3 1_555 1_555
Zn1_3 I2_5 1_555 1_555
N1_7 Zn1_3 1_555 1_555
C1_7 N1_7 1_555 1_555
H1_7 C1_7 1_555 1_555
C2_7 C1_7 1_555 1_555
H2_7 C2_7 1_555 1_555
H7_7 C12_7 1_555 1_555
C13_7 N5_7 1_555 1_555
H8_7 C13_7 1_555 1_555
I5_7 Zn3_7 1_555 1_555
Zn3_7 N5_7 1_555 1_555
I6_7 Zn3_7 1_555 1_555
N7_7 Zn3_7 1_555 1_555
C19_7 N7_7 1_555 1_555
H13_7 C19_7 1_555 1_555
N13_3 Zn1_3 1_555 1_555
C12_7 C13_7 1_555 1_555
C36_7 N13_3 1_555 1_555
H24_7 C36_7 1_555 1_555
I1_8 Zn1_4 1_555 1_555
N1_8 Zn1_4 1_555 1_555
C1_8 N1_8 1_555 1_555
H1_8 C1_8 1_555 1_555
C2_8 C1_8 1_555 1_555
H2_8 C2_8 1_555 1_555
H7_8 C12_8 1_555 1_555
C13_8 N5_8 1_555 1_555
H8_8 C13_8 1_555 1_555
I5_8 Zn3_8 1_555 1_555
Zn3_8 N5_8 1_555 1_555
I6_8 Zn3_8 1_555 1_555
N7_8 Zn3_8 1_555 1_555
C19_8 N7_8 1_555 1_555
H13_8 C19_8 1_555 1_555
N13_4 Zn1_4 1_555 1_555
C12_8 C13_8 1_555 1_555
C36_8 N13_4 1_555 1_555
H24_8 C36_8 1_555 1_555
C33_7 C32_7 1_555 1_555
C35_7 C34_7 1_555 1_555
H23_7 C35_7 1_555 1_555
C33_7 C34_7 1_555 1_555
C32_8 H21_8 1_555 1_555
C33_8 C32_8 1_555 1_555
H22_8 C33_8 1_555 1_555
C35_8 C34_8 1_555 1_555
H23_8 C35_8 1_555 1_555
C33_8 C34_8 1_555 1_555

#END
