
###############################################################################
#
# This file contains modified crystal structure data generated from the
# MOF subset of the Cambridge Structural Database (CSD) v543 
# hosted by the Cambridge Crystallographic Data Centre (CCDC).
#
# This work is licensed under the Creative Commons
# Attribution-NonCommercial-ShareAlike 4.0 International License.
# To view a copy of this license, visit
# http://creativecommons.org/licenses/by-nc-sa/4.0/
# or send a letter to
# Creative Commons, PO Box 1866, Mountain View, CA 94042, USA.
#
# CIF created using the CSD Python API on 29 September 2022
# The structure has been converted into the P1 space group
# The structure has a 3D framework
# The original CSD entry REXCUU is in the monoclinic crystal system
# The framework has been calculated to contain at least 10.0% void space
# The void calculation uses a probe of radius 1.32A, grid spacing 0.4
#
###############################################################################

data_REXCUU
_chemical_formula_moiety         '(C288 H192 I48 N96 Zn24)n'
_symmetry_cell_setting           triclinic
_symmetry_space_group_name_H-M   'P 1'
_symmetry_Int_Tables_number      1
_space_group_name_Hall           'P 1'
loop_
_symmetry_equiv_pos_site_id
_symmetry_equiv_pos_as_xyz
1 x,y,z
_cell_length_a                   34.562(8)
_cell_length_b                   14.950(4)
_cell_length_c                   30.348(7)
_cell_angle_alpha                90
_cell_angle_beta                 100.119(3)
_cell_angle_gamma                90
_cell_volume                     15437
loop_
_atom_site_label
_atom_site_type_symbol
_atom_site_fract_x
_atom_site_fract_y
_atom_site_fract_z
N11 N 0.1840(4) 0.0028(8) 0.2767(5)
H20 H 0.2301 0.0092 0.3248
Zn3 Zn 0.17253(6) 0.13871(11) 0.27003(7)
I5 I 0.12968(5) 0.16066(8) 0.19416(5)
I6 I 0.23379(4) 0.23033(8) 0.29538(7)
N13 N 0.1380(4) 0.1551(7) 0.3187(4)
N6 N 0.0674(3) 0.4795(7) 0.0505(4)
C14 C 0.0361(4) 0.5317(9) 0.0497(5)
H9 H 0.0173 0.5141 0.0674
C15 C 0.0291(4) 0.6075(10) 0.0256(5)
H10 H 0.0070 0.6434 0.0281
C18 C 0.0905(7) 0.5007(13) 0.0223(8)
H12 H 0.1122 0.4623 0.0207
Zn2 Zn 0.08267(5) 0.37405(10) 0.09434(5)
I3 I 0.02440(3) 0.34412(8) 0.13294(4)
I4 I 0.12064(4) 0.26470(7) 0.05517(4)
N7 N 0.1209(3) 0.4435(7) 0.1415(3)
C19 C 0.1135(5) 0.5288(11) 0.1520(6)
H13 H 0.0902 0.5554 0.1361
C20 C 0.1358(5) 0.5795(10) 0.1827(6)
H14 H 0.1312 0.6419 0.1846
C21 C 0.1659(3) 0.5378(9) 0.2115(4)
C22 C 0.1740(4) 0.4494(8) 0.2044(4)
H15 H 0.1951 0.4196 0.2230
C23 C 0.1508(4) 0.4051(9) 0.1693(5)
H16 H 0.1563 0.3439 0.1646
C24 C 0.1899(3) 0.5887(8) 0.2490(5)
N8 N 0.1804(3) 0.6760(6) 0.2511(4)
C25 C 0.2035(4) 0.7217(9) 0.2835(5)
N9 N 0.2316(3) 0.6880(7) 0.3120(4)
C26 C 0.2388(4) 0.5971(8) 0.3087(5)
N10 N 0.2185(3) 0.5480(7) 0.2752(4)
C27 C 0.1618(5) 0.9461(10) 0.2507(6)
H17 H 0.1405 0.9696 0.2299
C28 C 0.1672(5) 0.8566(9) 0.2515(6)
H18 H 0.1509 0.8193 0.2307
C29 C 0.1967(3) 0.8199(8) 0.2830(5)
C30 C 0.2204(5) 0.8790(10) 0.3111(7)
H19 H 0.2411 0.8574 0.3333
C31 C 0.2133(5) 0.9691(11) 0.3062(6)
N12 N 0.3278(3) 0.4671(7) 0.3985(4)
C32 C 0.3059(5) 0.4229(10) 0.3644(6)
H21 H 0.3104 0.3608 0.3611
C33 C 0.2766(5) 0.4655(9) 0.3335(6)
H22 H 0.2618 0.4335 0.3092
C34 C 0.2703(3) 0.5541(8) 0.3396(4)
C35 C 0.2917(4) 0.5999(10) 0.3755(5)
H23 H 0.2872 0.6616 0.3803
C36 C 0.3197(5) 0.5521(9) 0.4038(5)
H24 H 0.3342 0.5825 0.4289
Zn4 Zn 0.37036(5) 0.40291(12) 0.44359(7)
I1 I 0.34788(4) 0.59664(15) 0.01753(6)
H3 H 0.4733 0.3731 0.0117
H4 H 0.4229 0.4752 0.0119
C14_2 C 0.5361(4) 0.0317(9) 0.0497(5)
H9_2 H 0.5173 0.0141 0.0674
C15_2 C 0.5291(4) 0.1075(10) 0.0256(5)
H10_2 H 0.5070 0.1434 0.0281
C18_2 C 0.5905(7) 0.0007(13) 0.0223(8)
C19_2 C 0.6135(5) 0.0288(11) 0.1520(6)
H13_2 H 0.5902 0.0554 0.1361
C20_2 C 0.6358(5) 0.0795(10) 0.1827(6)
H14_2 H 0.6312 0.1419 0.1846
C21_2 C 0.6659(3) 0.0378(9) 0.2115(4)
C24_2 C 0.6899(3) 0.0887(8) 0.2490(5)
N8_2 N 0.6804(3) 0.1760(6) 0.2511(4)
C25_2 C 0.7035(4) 0.2217(9) 0.2835(5)
N9_2 N 0.7316(3) 0.1880(7) 0.3120(4)
C26_2 C 0.7388(4) 0.0971(8) 0.3087(5)
N10_2 N 0.7185(3) 0.0480(7) 0.2752(4)
N11_2 N 0.6840(4) 0.5028(8) 0.2767(5)
C27_2 C 0.6618(5) 0.4461(10) 0.2507(6)
H17_2 H 0.6405 0.4696 0.2299
C28_2 C 0.6672(5) 0.3566(9) 0.2515(6)
H18_2 H 0.6509 0.3193 0.2307
C29_2 C 0.6967(3) 0.3199(8) 0.2830(5)
C30_2 C 0.7204(5) 0.3790(10) 0.3111(7)
H19_2 H 0.7411 0.3574 0.3333
C31_2 C 0.7133(5) 0.4691(11) 0.3062(6)
H20_2 H 0.7301 0.5092 0.3248
Zn3_2 Zn 0.67253(6) 0.63871(11) 0.27003(7)
I5_2 I 0.62968(5) 0.66066(8) 0.19416(5)
I6_2 I 0.73379(4) 0.73033(8) 0.29538(7)
C34_2 C 0.7703(3) 0.0541(8) 0.3396(4)
C35_2 C 0.7917(4) 0.0999(10) 0.3755(5)
H23_2 H 0.7872 0.1616 0.3803
C36_2 C 0.8197(5) 0.0521(9) 0.4038(5)
H24_2 H 0.8342 0.0825 0.4289
N13_2 N 0.6380(4) 0.6551(7) 0.3187(4)
Zn1 Zn 0.37036(5) 0.59709(12) 0.94359(7)
I2 I 0.39129(5) 0.73223(9) 0.90343(7)
N1 N 0.4158(3) 0.5077(8) 0.9472(4)
C1 C 0.4306(6) 0.4935(17) 0.9103(8)
H1 H 0.4196 0.5245 0.8837
C2 C 0.4606(7) 0.437(2) 0.9095(7)
H2 H 0.4686 0.4241 0.8817
C3 C 0.4800(4) 0.3961(9) 0.9476(4)
C4 C 0.4635(4) 0.4063(10) 0.9854(5)
C5 C 0.4326(4) 0.4647(11) 0.9850(5)
C6 C 0.5142(4) 0.3354(8) 0.9472(4)
N2 N 0.5362(3) 0.3549(7) 0.9154(3)
C7 C 0.5645(4) 0.2964(8) 0.9139(4)
N3 N 0.5715(3) 0.2218(7) 0.9391(3)
C8 C 0.5480(3) 0.2116(8) 0.9690(4)
N4 N 0.5194(3) 0.2687(7) 0.9762(3)
N5 N 0.6380(4) 0.3449(7) 0.8187(4)
C9 C 0.6442(8) 0.2761(15) 0.8470(9)
H5 H 0.6657 0.2373 0.8456
C10 C 0.6206(7) 0.2593(14) 0.8782(8)
H6 H 0.6265 0.2106 0.8984
C11 C 0.5895(4) 0.3115(9) 0.8802(4)
C12 C 0.5860(7) 0.3825(14) 0.8515(9)
H7 H 0.5643 0.4219 0.8504
C13 C 0.6127(7) 0.3989(14) 0.8243(8)
H8 H 0.6116 0.4546 0.8091
C16 C 0.5541(4) 0.1327(9) 0.9976(5)
C17 C 0.5859(6) 0.0733(13) 0.9953(8)
H11 H 0.6035 0.0844 0.9751
Zn5 Zn 0.67253(6) 0.36129(11) 0.77003(7)
N14 N 0.3278(3) 0.5329(7) 0.8985(4)
C6_2 C 0.0142(4) 0.1646(8) 0.4472(4)
N2_2 N 0.0362(3) 0.1451(7) 0.4154(3)
C7_2 C 0.0645(4) 0.2036(8) 0.4139(4)
N3_2 N 0.0715(3) 0.2782(7) 0.4391(3)
C8_2 C 0.0480(3) 0.2884(8) 0.4690(4)
N4_2 N 0.0194(3) 0.2313(7) 0.4762(3)
C9_2 C 0.1442(8) 0.2239(15) 0.3470(9)
H5_2 H 0.1657 0.2627 0.3456
C10_2 C 0.1206(7) 0.2407(14) 0.3782(8)
H6_2 H 0.1265 0.2894 0.3984
C11_2 C 0.0895(4) 0.1885(9) 0.3802(4)
C12_2 C 0.0860(7) 0.1175(14) 0.3515(9)
H7_2 H 0.0643 0.0781 0.3504
C13_2 C 0.1127(7) 0.1011(14) 0.3243(8)
H8_2 H 0.1116 0.0454 0.3091
N6_2 N 0.0674(3) 0.5205(7) 0.5505(4)
C14_3 C 0.0361(4) 0.4683(9) 0.5497(5)
H9_3 H 0.0173 0.4859 0.5674
C15_3 C 0.0291(4) 0.3925(10) 0.5256(5)
H10_3 H 0.0070 0.3566 0.5281
C16_2 C 0.0541(4) 0.3673(9) 0.4976(5)
C17_2 C 0.0859(6) 0.4267(13) 0.4953(8)
H11_2 H 0.1035 0.4156 0.4751
C18_3 C 0.0905(7) 0.4993(13) 0.5223(8)
H12_2 H 0.1122 0.5377 0.5207
Zn2_2 Zn 0.08267(5) 0.62595(10) 0.59434(5)
I3_2 I 0.02440(3) 0.65588(8) 0.63294(4)
I4_2 I 0.12064(4) 0.73530(7) 0.55517(4)
N7_2 N 0.1209(3) 0.5565(7) 0.6415(3)
C19_3 C 0.1135(5) 0.4712(11) 0.6520(6)
H13_3 H 0.0902 0.4446 0.6361
C20_3 C 0.1358(5) 0.4205(10) 0.6827(6)
H14_3 H 0.1312 0.3581 0.6846
C21_3 C 0.1659(3) 0.4622(9) 0.7115(4)
C22_2 C 0.1740(4) 0.5506(8) 0.7044(4)
H15_2 H 0.1951 0.5804 0.7230
C23_2 C 0.1508(4) 0.5949(9) 0.6693(5)
H16_2 H 0.1563 0.6561 0.6646
C24_3 C 0.1899(3) 0.4113(8) 0.7490(5)
N8_3 N 0.1804(3) 0.3240(6) 0.7511(4)
C25_3 C 0.2035(4) 0.2783(9) 0.7835(5)
N9_3 N 0.2316(3) 0.3120(7) 0.8120(4)
C26_3 C 0.2388(4) 0.4029(8) 0.8087(5)
N10_3 N 0.2185(3) 0.4520(7) 0.7752(4)
C27_3 C 0.1618(5) 0.0539(10) 0.7507(6)
H17_3 H 0.1405 0.0304 0.7299
C28_3 C 0.1672(5) 0.1434(9) 0.7515(6)
H18_3 H 0.1509 0.1807 0.7307
C29_3 C 0.1967(3) 0.1801(8) 0.7830(5)
C30_3 C 0.2204(5) 0.1210(10) 0.8111(7)
H19_3 H 0.2411 0.1426 0.8333
C31_3 C 0.2133(5) 0.0309(11) 0.8062(6)
C32_2 C 0.3059(5) 0.5771(10) 0.8644(6)
H21_2 H 0.3104 0.6392 0.8611
C33_2 C 0.2766(5) 0.5345(9) 0.8335(6)
H22_2 H 0.2618 0.5665 0.8092
C34_3 C 0.2703(3) 0.4459(8) 0.8396(4)
C35_3 C 0.2917(4) 0.4001(10) 0.8755(5)
H23_3 H 0.2872 0.3384 0.8803
C36_3 C 0.3197(5) 0.4479(9) 0.9038(5)
H24_3 H 0.3342 0.4175 0.9289
I1_2 I 0.34788(4) 0.40336(15) 0.51753(6)
I2_2 I 0.39129(5) 0.26777(9) 0.40343(7)
N1_2 N 0.4158(3) 0.4923(8) 0.4472(4)
C1_2 C 0.4306(6) 0.5065(17) 0.4103(8)
H1_2 H 0.4196 0.4755 0.3837
C2_2 C 0.4606(7) 0.563(2) 0.4095(7)
H2_2 H 0.4686 0.5759 0.3817
C3_2 C 0.4800(4) 0.6039(9) 0.4476(4)
C4_2 C 0.4635(4) 0.5937(10) 0.4854(5)
H3_2 H 0.4733 0.6269 0.5117
C5_2 C 0.4326(4) 0.5353(11) 0.4850(5)
H4_2 H 0.4229 0.5248 0.5119
C6_3 C 0.5142(4) 0.6646(8) 0.4472(4)
N2_3 N 0.5362(3) 0.6451(7) 0.4154(3)
C7_3 C 0.5645(4) 0.7036(8) 0.4139(4)
N3_3 N 0.5715(3) 0.7782(7) 0.4391(3)
C8_3 C 0.5480(3) 0.7884(8) 0.4690(4)
N4_3 N 0.5194(3) 0.7313(7) 0.4762(3)
C9_3 C 0.6442(8) 0.7239(15) 0.3470(9)
H5_3 H 0.6657 0.7627 0.3456
C10_3 C 0.6206(7) 0.7407(14) 0.3782(8)
H6_3 H 0.6265 0.7894 0.3984
C11_3 C 0.5895(4) 0.6885(9) 0.3802(4)
C12_3 C 0.5860(7) 0.6175(14) 0.3515(9)
H7_3 H 0.5643 0.5781 0.3504
C13_3 C 0.6127(7) 0.6011(14) 0.3243(8)
H8_3 H 0.6116 0.5454 0.3091
C14_4 C 0.5361(4) 0.9683(9) 0.5497(5)
H9_4 H 0.5173 0.9859 0.5674
C15_4 C 0.5291(4) 0.8925(10) 0.5256(5)
H10_4 H 0.5070 0.8566 0.5281
C16_3 C 0.5541(4) 0.8673(9) 0.4976(5)
C17_3 C 0.5859(6) 0.9267(13) 0.4953(8)
H11_3 H 0.6035 0.9156 0.4751
C18_4 C 0.5905(7) 0.9993(13) 0.5223(8)
C19_4 C 0.6135(5) 0.9712(11) 0.6520(6)
H13_4 H 0.5902 0.9446 0.6361
C20_4 C 0.6358(5) 0.9205(10) 0.6827(6)
H14_4 H 0.6312 0.8581 0.6846
C21_4 C 0.6659(3) 0.9622(9) 0.7115(4)
C24_4 C 0.6899(3) 0.9113(8) 0.7490(5)
N8_4 N 0.6804(3) 0.8240(6) 0.7511(4)
C25_4 C 0.7035(4) 0.7783(9) 0.7835(5)
N9_4 N 0.7316(3) 0.8120(7) 0.8120(4)
C26_4 C 0.7388(4) 0.9029(8) 0.8087(5)
N10_4 N 0.7185(3) 0.9520(7) 0.7752(4)
N11_3 N 0.6840(4) 0.4972(8) 0.7767(5)
C27_4 C 0.6618(5) 0.5539(10) 0.7507(6)
H17_4 H 0.6405 0.5304 0.7299
C28_4 C 0.6672(5) 0.6434(9) 0.7515(6)
H18_4 H 0.6509 0.6807 0.7307
C29_4 C 0.6967(3) 0.6801(8) 0.7830(5)
C30_4 C 0.7204(5) 0.6210(10) 0.8111(7)
H19_4 H 0.7411 0.6426 0.8333
C31_4 C 0.7133(5) 0.5309(11) 0.8062(6)
H20_3 H 0.7301 0.4908 0.8248
I5_3 I 0.62968(5) 0.33934(8) 0.69416(5)
I6_3 I 0.73379(4) 0.26967(8) 0.79538(7)
C34_4 C 0.7703(3) 0.9459(8) 0.8396(4)
C35_4 C 0.7917(4) 0.9001(10) 0.8755(5)
H23_4 H 0.7872 0.8384 0.8803
C36_4 C 0.8197(5) 0.9479(9) 0.9038(5)
H24_4 H 0.8342 0.9175 0.9289
C6_4 C 0.0142(4) 0.8354(8) 0.9472(4)
N2_4 N 0.0362(3) 0.8549(7) 0.9154(3)
C7_4 C 0.0645(4) 0.7964(8) 0.9139(4)
N3_4 N 0.0715(3) 0.7218(7) 0.9391(3)
C8_4 C 0.0480(3) 0.7116(8) 0.9690(4)
N4_4 N 0.0194(3) 0.7687(7) 0.9762(3)
N5_2 N 0.1380(4) 0.8449(7) 0.8187(4)
C9_4 C 0.1442(8) 0.7761(15) 0.8470(9)
H5_4 H 0.1657 0.7373 0.8456
C10_4 C 0.1206(7) 0.7593(14) 0.8782(8)
H6_4 H 0.1265 0.7106 0.8984
C11_4 C 0.0895(4) 0.8115(9) 0.8802(4)
C12_4 C 0.0860(7) 0.8825(14) 0.8515(9)
H7_4 H 0.0643 0.9219 0.8504
C13_4 C 0.1127(7) 0.8989(14) 0.8243(8)
H8_4 H 0.1116 0.9546 0.8091
C16_4 C 0.0541(4) 0.6327(9) 0.9976(5)
C17_4 C 0.0859(6) 0.5733(13) 0.9953(8)
H11_4 H 0.1035 0.5844 0.9751
Zn5_2 Zn 0.17253(6) 0.86129(11) 0.77003(7)
N11_4 N 0.1840(4) 0.9972(8) 0.7767(5)
H20_4 H 0.2301 0.9908 0.8248
I5_4 I 0.12968(5) 0.83934(8) 0.69416(5)
I6_4 I 0.23379(4) 0.76967(8) 0.79538(7)
I1_3 I 0.84788(4) 0.09664(15) 0.01753(6)
Zn1_2 Zn 0.87036(5) 0.09709(12) 0.94359(7)
I2_3 I 0.89129(5) 0.23223(9) 0.90343(7)
N1_3 N 0.9158(3) 0.0077(8) 0.9472(4)
H1_3 H 0.9196 0.0245 0.8837
N14_2 N 0.8278(3) 0.0329(7) 0.8985(4)
N6_3 N 0.5674(3) 0.0205(7) 0.5505(4)
H12_3 H 0.6122 0.0377 0.5207
Zn2_3 Zn 0.58267(5) 0.12595(10) 0.59434(5)
I3_3 I 0.52440(3) 0.15588(8) 0.63294(4)
I4_3 I 0.62064(4) 0.23530(7) 0.55517(4)
N7_3 N 0.6209(3) 0.0565(7) 0.6415(3)
C22_3 C 0.6740(4) 0.0506(8) 0.7044(4)
H15_3 H 0.6951 0.0804 0.7230
C23_3 C 0.6508(4) 0.0949(9) 0.6693(5)
H16_3 H 0.6563 0.1561 0.6646
C32_3 C 0.8059(5) 0.0771(10) 0.8644(6)
H21_3 H 0.8104 0.1392 0.8611
C33_3 C 0.7766(5) 0.0345(9) 0.8335(6)
H22_3 H 0.7618 0.0665 0.8092
H3_3 H 0.9733 0.8731 0.0117
H4_3 H 0.9229 0.9752 0.0119
C1_3 C 0.9306(6) 0.9935(17) 0.9103(8)
C2_3 C 0.9606(7) 0.937(2) 0.9095(7)
H2_3 H 0.9686 0.9241 0.8817
C3_3 C 0.9800(4) 0.8961(9) 0.9476(4)
C4_3 C 0.9635(4) 0.9063(10) 0.9854(5)
C5_3 C 0.9326(4) 0.9647(11) 0.9850(5)
Zn1_3 Zn 0.12964(5) 0.09709(12) 0.55641(7)
I1_4 I 0.15212(4) 0.09664(15) 0.48247(6)
I2_4 I 0.10871(5) 0.23223(9) 0.59657(7)
N1_4 N 0.0842(3) 0.0077(8) 0.5528(4)
H1_4 H 0.0804 0.0245 0.6163
N14_3 N 0.1722(3) 0.0329(7) 0.6015(4)
N6_4 N 0.4326(3) 0.0205(7) 0.9495(4)
H12_4 H 0.3878 0.0377 0.9793
Zn2_4 Zn 0.41733(5) 0.12595(10) 0.90566(5)
I3_4 I 0.47560(3) 0.15588(8) 0.86706(4)
I4_4 I 0.37936(4) 0.23530(7) 0.94483(4)
N7_4 N 0.3791(3) 0.0565(7) 0.8585(3)
C22_4 C 0.3260(4) 0.0506(8) 0.7956(4)
H15_4 H 0.3049 0.0804 0.7770
C23_4 C 0.3492(4) 0.0949(9) 0.8307(5)
H16_4 H 0.3437 0.1561 0.8354
C32_4 C 0.1941(5) 0.0771(10) 0.6356(6)
H21_4 H 0.1896 0.1392 0.6389
C33_4 C 0.2234(5) 0.0345(9) 0.6665(6)
H22_4 H 0.2382 0.0665 0.6908
C1_4 C 0.0694(6) 0.9935(17) 0.5897(8)
C2_4 C 0.0394(7) 0.937(2) 0.5905(7)
H2_4 H 0.0314 0.9241 0.6183
C3_4 C 0.0200(4) 0.8961(9) 0.5524(4)
C4_4 C 0.0365(4) 0.9063(10) 0.5146(5)
H3_4 H 0.0267 0.8731 0.4883
C5_4 C 0.0674(4) 0.9647(11) 0.5150(5)
H4_4 H 0.0771 0.9752 0.4881
N11_5 N 0.8160(4) 0.0028(8) 0.2233(5)
H20_5 H 0.7699 0.0092 0.1752
Zn3_3 Zn 0.82747(6) 0.13871(11) 0.22997(7)
I5_5 I 0.87032(5) 0.16066(8) 0.30584(5)
I6_5 I 0.76621(4) 0.23033(8) 0.20462(7)
N13_3 N 0.8620(4) 0.1551(7) 0.1813(4)
C6_5 C 0.9858(4) 0.1646(8) 0.0528(4)
N2_5 N 0.9638(3) 0.1451(7) 0.0846(3)
C7_5 C 0.9355(4) 0.2036(8) 0.0861(4)
N3_5 N 0.9285(3) 0.2782(7) 0.0609(3)
C8_5 C 0.9520(3) 0.2884(8) 0.0310(4)
N4_5 N 0.9806(3) 0.2313(7) 0.0238(3)
C9_5 C 0.8558(8) 0.2239(15) 0.1530(9)
H5_5 H 0.8343 0.2627 0.1544
C10_5 C 0.8794(7) 0.2407(14) 0.1218(8)
H6_5 H 0.8735 0.2894 0.1016
C11_5 C 0.9105(4) 0.1885(9) 0.1198(4)
C12_5 C 0.9140(7) 0.1175(14) 0.1485(9)
H7_5 H 0.9357 0.0781 0.1496
C13_5 C 0.8873(7) 0.1011(14) 0.1757(8)
H8_5 H 0.8884 0.0454 0.1909
C16_5 C 0.9459(4) 0.3673(9) 0.0024(5)
C17_5 C 0.9141(6) 0.4267(13) 0.0047(8)
H11_5 H 0.8965 0.4156 0.0249
C6_6 C 0.9858(4) 0.8354(8) 0.5528(4)
N2_6 N 0.9638(3) 0.8549(7) 0.5846(3)
C7_6 C 0.9355(4) 0.7964(8) 0.5861(4)
N3_6 N 0.9285(3) 0.7218(7) 0.5609(3)
C8_6 C 0.9520(3) 0.7116(8) 0.5310(4)
N4_6 N 0.9806(3) 0.7687(7) 0.5238(3)
N5_3 N 0.8620(4) 0.8449(7) 0.6813(4)
C9_6 C 0.8558(8) 0.7761(15) 0.6530(9)
H5_6 H 0.8343 0.7373 0.6544
C10_6 C 0.8794(7) 0.7593(14) 0.6218(8)
H6_6 H 0.8735 0.7106 0.6016
C11_6 C 0.9105(4) 0.8115(9) 0.6198(4)
C12_6 C 0.9140(7) 0.8825(14) 0.6485(9)
H7_6 H 0.9357 0.9219 0.6496
C13_6 C 0.8873(7) 0.8989(14) 0.6757(8)
H8_6 H 0.8884 0.9546 0.6909
N6_5 N 0.9326(3) 0.4795(7) 0.4495(4)
C14_5 C 0.9639(4) 0.5317(9) 0.4503(5)
H9_5 H 0.9827 0.5141 0.4326
C15_5 C 0.9709(4) 0.6075(10) 0.4744(5)
H10_5 H 0.9930 0.6434 0.4719
C16_6 C 0.9459(4) 0.6327(9) 0.5024(5)
C17_6 C 0.9141(6) 0.5733(13) 0.5047(8)
H11_6 H 0.8965 0.5844 0.5249
C18_5 C 0.9095(7) 0.5007(13) 0.4777(8)
H12_5 H 0.8878 0.4623 0.4793
Zn2_5 Zn 0.91733(5) 0.37405(10) 0.40566(5)
I3_5 I 0.97560(3) 0.34412(8) 0.36706(4)
I4_5 I 0.87936(4) 0.26470(7) 0.44483(4)
N7_5 N 0.8791(3) 0.4435(7) 0.3585(3)
C19_5 C 0.8865(5) 0.5288(11) 0.3480(6)
H13_5 H 0.9098 0.5554 0.3639
C20_5 C 0.8642(5) 0.5795(10) 0.3173(6)
H14_5 H 0.8688 0.6419 0.3154
C21_5 C 0.8341(3) 0.5378(9) 0.2885(4)
C22_5 C 0.8260(4) 0.4494(8) 0.2956(4)
H15_5 H 0.8049 0.4196 0.2770
C23_5 C 0.8492(4) 0.4051(9) 0.3307(5)
H16_5 H 0.8437 0.3439 0.3354
C24_5 C 0.8101(3) 0.5887(8) 0.2510(5)
N8_5 N 0.8196(3) 0.6760(6) 0.2489(4)
C25_5 C 0.7965(4) 0.7217(9) 0.2165(5)
N9_5 N 0.7684(3) 0.6880(7) 0.1880(4)
C26_5 C 0.7612(4) 0.5971(8) 0.1913(5)
N10_5 N 0.7815(3) 0.5480(7) 0.2248(4)
C27_5 C 0.8382(5) 0.9461(10) 0.2493(6)
H17_5 H 0.8595 0.9696 0.2701
C28_5 C 0.8328(5) 0.8566(9) 0.2485(6)
H18_5 H 0.8491 0.8193 0.2693
C29_5 C 0.8033(3) 0.8199(8) 0.2170(5)
C30_5 C 0.7796(5) 0.8790(10) 0.1889(7)
H19_5 H 0.7589 0.8574 0.1667
C31_5 C 0.7867(5) 0.9691(11) 0.1938(6)
N12_2 N 0.6722(3) 0.4671(7) 0.1015(4)
C32_5 C 0.6941(5) 0.4229(10) 0.1356(6)
H21_5 H 0.6896 0.3608 0.1389
C33_5 C 0.7234(5) 0.4655(9) 0.1665(6)
H22_5 H 0.7382 0.4335 0.1908
C34_5 C 0.7297(3) 0.5541(8) 0.1604(4)
C35_5 C 0.7083(4) 0.5999(10) 0.1245(5)
H23_5 H 0.7128 0.6616 0.1197
C36_5 C 0.6803(5) 0.5521(9) 0.0962(5)
H24_5 H 0.6658 0.5825 0.0711
Zn4_2 Zn 0.62964(5) 0.40291(12) 0.05641(7)
Zn5_3 Zn 0.82747(6) 0.86129(11) 0.72997(7)
Zn1_4 Zn 0.62964(5) 0.59709(12) 0.55641(7)
I1_5 I 0.65212(4) 0.59664(15) 0.48247(6)
I2_5 I 0.60871(5) 0.73223(9) 0.59657(7)
N1_5 N 0.5842(3) 0.5077(8) 0.5528(4)
C1_5 C 0.5694(6) 0.4935(17) 0.5897(8)
H1_5 H 0.5804 0.5245 0.6163
C2_5 C 0.5394(7) 0.437(2) 0.5905(7)
H2_5 H 0.5314 0.4241 0.6183
C3_5 C 0.5200(4) 0.3961(9) 0.5524(4)
C4_5 C 0.5365(4) 0.4063(10) 0.5146(5)
H3_5 H 0.5267 0.3731 0.4883
C5_5 C 0.5674(4) 0.4647(11) 0.5150(5)
H4_5 H 0.5771 0.4752 0.4881
C6_7 C 0.4858(4) 0.3354(8) 0.5528(4)
N2_7 N 0.4638(3) 0.3549(7) 0.5846(3)
C7_7 C 0.4355(4) 0.2964(8) 0.5861(4)
N3_7 N 0.4285(3) 0.2218(7) 0.5609(3)
C8_7 C 0.4520(3) 0.2116(8) 0.5310(4)
N4_7 N 0.4806(3) 0.2687(7) 0.5238(3)
N5_4 N 0.3620(4) 0.3449(7) 0.6813(4)
C9_7 C 0.3558(8) 0.2761(15) 0.6530(9)
H5_7 H 0.3343 0.2373 0.6544
C10_7 C 0.3794(7) 0.2593(14) 0.6218(8)
H6_7 H 0.3735 0.2106 0.6016
C11_7 C 0.4105(4) 0.3115(9) 0.6198(4)
C12_7 C 0.4140(7) 0.3825(14) 0.6485(9)
H7_7 H 0.4357 0.4219 0.6496
C13_7 C 0.3873(7) 0.3989(14) 0.6757(8)
H8_7 H 0.3884 0.4546 0.6909
C14_6 C 0.4639(4) 0.0317(9) 0.4503(5)
H9_6 H 0.4827 0.0141 0.4326
C15_6 C 0.4709(4) 0.1075(10) 0.4744(5)
H10_6 H 0.4930 0.1434 0.4719
C16_7 C 0.4459(4) 0.1327(9) 0.5024(5)
C17_7 C 0.4141(6) 0.0733(13) 0.5047(8)
H11_7 H 0.3965 0.0844 0.5249
C18_6 C 0.4095(7) 0.0007(13) 0.4777(8)
C19_6 C 0.3865(5) 0.0288(11) 0.3480(6)
H13_6 H 0.4098 0.0554 0.3639
C20_6 C 0.3642(5) 0.0795(10) 0.3173(6)
H14_6 H 0.3688 0.1419 0.3154
C21_6 C 0.3341(3) 0.0378(9) 0.2885(4)
C24_6 C 0.3101(3) 0.0887(8) 0.2510(5)
N8_6 N 0.3196(3) 0.1760(6) 0.2489(4)
C25_6 C 0.2965(4) 0.2217(9) 0.2165(5)
N9_6 N 0.2684(3) 0.1880(7) 0.1880(4)
C26_6 C 0.2612(4) 0.0971(8) 0.1913(5)
N10_6 N 0.2815(3) 0.0480(7) 0.2248(4)
N11_6 N 0.3160(4) 0.5028(8) 0.2233(5)
C27_6 C 0.3382(5) 0.4461(10) 0.2493(6)
H17_6 H 0.3595 0.4696 0.2701
C28_6 C 0.3328(5) 0.3566(9) 0.2485(6)
H18_6 H 0.3491 0.3193 0.2693
C29_6 C 0.3033(3) 0.3199(8) 0.2170(5)
C30_6 C 0.2796(5) 0.3790(10) 0.1889(7)
H19_6 H 0.2589 0.3574 0.1667
C31_6 C 0.2867(5) 0.4691(11) 0.1938(6)
H20_6 H 0.2699 0.5092 0.1752
Zn3_4 Zn 0.32747(6) 0.63871(11) 0.22997(7)
I5_6 I 0.37032(5) 0.66066(8) 0.30584(5)
I6_6 I 0.26621(4) 0.73033(8) 0.20462(7)
C34_6 C 0.2297(3) 0.0541(8) 0.1604(4)
C35_6 C 0.2083(4) 0.0999(10) 0.1245(5)
H23_6 H 0.2128 0.1616 0.1197
C36_6 C 0.1803(5) 0.0521(9) 0.0962(5)
H24_6 H 0.1658 0.0825 0.0711
N13_4 N 0.3620(4) 0.6551(7) 0.1813(4)
Zn5_4 Zn 0.32747(6) 0.36129(11) 0.72997(7)
N14_4 N 0.6722(3) 0.5329(7) 0.6015(4)
N6_6 N 0.9326(3) 0.5205(7) 0.9495(4)
C14_7 C 0.9639(4) 0.4683(9) 0.9503(5)
H9_7 H 0.9827 0.4859 0.9326
C15_7 C 0.9709(4) 0.3925(10) 0.9744(5)
H10_7 H 0.9930 0.3566 0.9719
C18_7 C 0.9095(7) 0.4993(13) 0.9777(8)
H12_6 H 0.8878 0.5377 0.9793
Zn2_6 Zn 0.91733(5) 0.62595(10) 0.90566(5)
I3_6 I 0.97560(3) 0.65588(8) 0.86706(4)
I4_6 I 0.87936(4) 0.73530(7) 0.94483(4)
N7_6 N 0.8791(3) 0.5565(7) 0.8585(3)
C19_7 C 0.8865(5) 0.4712(11) 0.8480(6)
H13_7 H 0.9098 0.4446 0.8639
C20_7 C 0.8642(5) 0.4205(10) 0.8173(6)
H14_7 H 0.8688 0.3581 0.8154
C21_7 C 0.8341(3) 0.4622(9) 0.7885(4)
C22_6 C 0.8260(4) 0.5506(8) 0.7956(4)
H15_6 H 0.8049 0.5804 0.7770
C23_6 C 0.8492(4) 0.5949(9) 0.8307(5)
H16_6 H 0.8437 0.6561 0.8354
C24_7 C 0.8101(3) 0.4113(8) 0.7510(5)
N8_7 N 0.8196(3) 0.3240(6) 0.7489(4)
C25_7 C 0.7965(4) 0.2783(9) 0.7165(5)
N9_7 N 0.7684(3) 0.3120(7) 0.6880(4)
C26_7 C 0.7612(4) 0.4029(8) 0.6913(5)
N10_7 N 0.7815(3) 0.4520(7) 0.7248(4)
C27_7 C 0.8382(5) 0.0539(10) 0.7493(6)
H17_7 H 0.8595 0.0304 0.7701
C28_7 C 0.8328(5) 0.1434(9) 0.7485(6)
H18_7 H 0.8491 0.1807 0.7693
C29_7 C 0.8033(3) 0.1801(8) 0.7170(5)
C30_7 C 0.7796(5) 0.1210(10) 0.6889(7)
H19_7 H 0.7589 0.1426 0.6667
C31_7 C 0.7867(5) 0.0309(11) 0.6938(6)
C32_6 C 0.6941(5) 0.5771(10) 0.6356(6)
H21_6 H 0.6896 0.6392 0.6389
C33_6 C 0.7234(5) 0.5345(9) 0.6665(6)
H22_6 H 0.7382 0.5665 0.6908
C34_7 C 0.7297(3) 0.4459(8) 0.6604(4)
C35_7 C 0.7083(4) 0.4001(10) 0.6245(5)
H23_7 H 0.7128 0.3384 0.6197
C36_7 C 0.6803(5) 0.4479(9) 0.5962(5)
H24_7 H 0.6658 0.4175 0.5711
N11_7 N 0.8160(4) 0.9972(8) 0.7233(5)
H20_7 H 0.7699 0.9908 0.6752
I5_7 I 0.87032(5) 0.83934(8) 0.80584(5)
I6_7 I 0.76621(4) 0.76967(8) 0.70462(7)
I2_6 I 0.60871(5) 0.26777(9) 0.09657(7)
N1_6 N 0.5842(3) 0.4923(8) 0.0528(4)
C1_6 C 0.5694(6) 0.5065(17) 0.0897(8)
H1_6 H 0.5804 0.4755 0.1163
C2_6 C 0.5394(7) 0.563(2) 0.0905(7)
H2_6 H 0.5314 0.5759 0.1183
C3_6 C 0.5200(4) 0.6039(9) 0.0524(4)
C4_6 C 0.5365(4) 0.5937(10) 0.0146(5)
C5_6 C 0.5674(4) 0.5353(11) 0.0150(5)
C6_8 C 0.4858(4) 0.6646(8) 0.0528(4)
N2_8 N 0.4638(3) 0.6451(7) 0.0846(3)
C7_8 C 0.4355(4) 0.7036(8) 0.0861(4)
N3_8 N 0.4285(3) 0.7782(7) 0.0609(3)
C8_8 C 0.4520(3) 0.7884(8) 0.0310(4)
N4_8 N 0.4806(3) 0.7313(7) 0.0238(3)
C9_8 C 0.3558(8) 0.7239(15) 0.1530(9)
H5_8 H 0.3343 0.7627 0.1544
C10_8 C 0.3794(7) 0.7407(14) 0.1218(8)
H6_8 H 0.3735 0.7894 0.1016
C11_8 C 0.4105(4) 0.6885(9) 0.1198(4)
C12_8 C 0.4140(7) 0.6175(14) 0.1485(9)
H7_8 H 0.4357 0.5781 0.1496
C13_8 C 0.3873(7) 0.6011(14) 0.1757(8)
H8_8 H 0.3884 0.5454 0.1909
C16_8 C 0.4459(4) 0.8673(9) 0.0024(5)
C17_8 C 0.4141(6) 0.9267(13) 0.0047(8)
H11_8 H 0.3965 0.9156 0.0249
I1_6 I 0.65212(4) 0.40336(15) 0.98247(6)
H3_6 H 0.5267 0.6269 0.9883
H4_6 H 0.5771 0.5248 0.9881
C14_8 C 0.4639(4) 0.9683(9) 0.9503(5)
H9_8 H 0.4827 0.9859 0.9326
C15_8 C 0.4709(4) 0.8925(10) 0.9744(5)
H10_8 H 0.4930 0.8566 0.9719
C18_8 C 0.4095(7) 0.9993(13) 0.9777(8)
C19_8 C 0.3865(5) 0.9712(11) 0.8480(6)
H13_8 H 0.4098 0.9446 0.8639
C20_8 C 0.3642(5) 0.9205(10) 0.8173(6)
H14_8 H 0.3688 0.8581 0.8154
C21_8 C 0.3341(3) 0.9622(9) 0.7885(4)
C24_8 C 0.3101(3) 0.9113(8) 0.7510(5)
N8_8 N 0.3196(3) 0.8240(6) 0.7489(4)
C25_8 C 0.2965(4) 0.7783(9) 0.7165(5)
N9_8 N 0.2684(3) 0.8120(7) 0.6880(4)
C26_8 C 0.2612(4) 0.9029(8) 0.6913(5)
N10_8 N 0.2815(3) 0.9520(7) 0.7248(4)
N11_8 N 0.3160(4) 0.4972(8) 0.7233(5)
C27_8 C 0.3382(5) 0.5539(10) 0.7493(6)
H17_8 H 0.3595 0.5304 0.7701
C28_8 C 0.3328(5) 0.6434(9) 0.7485(6)
H18_8 H 0.3491 0.6807 0.7693
C29_8 C 0.3033(3) 0.6801(8) 0.7170(5)
C30_8 C 0.2796(5) 0.6210(10) 0.6889(7)
H19_8 H 0.2589 0.6426 0.6667
C31_8 C 0.2867(5) 0.5309(11) 0.6938(6)
H20_8 H 0.2699 0.4908 0.6752
I5_8 I 0.37032(5) 0.33934(8) 0.80584(5)
I6_8 I 0.26621(4) 0.26967(8) 0.70462(7)
C34_8 C 0.2297(3) 0.9459(8) 0.6604(4)
C35_8 C 0.2083(4) 0.9001(10) 0.6245(5)
H23_8 H 0.2128 0.8384 0.6197
C36_8 C 0.1803(5) 0.9479(9) 0.5962(5)
H24_8 H 0.1658 0.9175 0.5711
N6_7 N 0.5674(3) 0.9795(7) 0.0505(4)
H12_7 H 0.6122 0.9623 0.0207
Zn2_7 Zn 0.58267(5) 0.87405(10) 0.09434(5)
I3_7 I 0.52440(3) 0.84412(8) 0.13294(4)
I4_7 I 0.62064(4) 0.76470(7) 0.05517(4)
N7_7 N 0.6209(3) 0.9435(7) 0.1415(3)
C22_7 C 0.6740(4) 0.9494(8) 0.2044(4)
H15_7 H 0.6951 0.9196 0.2230
C23_7 C 0.6508(4) 0.9051(9) 0.1693(5)
H16_7 H 0.6563 0.8439 0.1646
N12_3 N 0.8278(3) 0.9671(7) 0.3985(4)
C32_7 C 0.8059(5) 0.9229(10) 0.3644(6)
H21_7 H 0.8104 0.8608 0.3611
C33_7 C 0.7766(5) 0.9655(9) 0.3335(6)
H22_7 H 0.7618 0.9335 0.3092
Zn4_3 Zn 0.87036(5) 0.90291(12) 0.44359(7)
I1_7 I 0.84788(4) 0.90336(15) 0.51753(6)
I2_7 I 0.89129(5) 0.76777(9) 0.40343(7)
N1_7 N 0.9158(3) 0.9923(8) 0.4472(4)
H1_7 H 0.9196 0.9755 0.3837
N6_8 N 0.4326(3) 0.9795(7) 0.4495(4)
H12_8 H 0.3878 0.9623 0.4793
Zn2_8 Zn 0.41733(5) 0.87405(10) 0.40566(5)
I3_8 I 0.47560(3) 0.84412(8) 0.36706(4)
I4_8 I 0.37936(4) 0.76470(7) 0.44483(4)
N7_8 N 0.3791(3) 0.9435(7) 0.3585(3)
C22_8 C 0.3260(4) 0.9494(8) 0.2956(4)
H15_8 H 0.3049 0.9196 0.2770
C23_8 C 0.3492(4) 0.9051(9) 0.3307(5)
H16_8 H 0.3437 0.8439 0.3354
N12_4 N 0.1722(3) 0.9671(7) 0.1015(4)
C32_8 C 0.1941(5) 0.9229(10) 0.1356(6)
H21_8 H 0.1896 0.8608 0.1389
C33_8 C 0.2234(5) 0.9655(9) 0.1665(6)
H22_8 H 0.2382 0.9335 0.1908
Zn4_4 Zn 0.12964(5) 0.90291(12) 0.05641(7)
I2_8 I 0.10871(5) 0.76777(9) 0.09657(7)
N1_8 N 0.0842(3) 0.9923(8) 0.0528(4)
H1_8 H 0.0804 0.9755 0.1163
C1_7 C 0.0694(6) 0.0065(17) 0.0897(8)
C2_7 C 0.0394(7) 0.063(2) 0.0905(7)
H2_7 H 0.0314 0.0759 0.1183
C3_7 C 0.0200(4) 0.1039(9) 0.0524(4)
C4_7 C 0.0365(4) 0.0937(10) 0.0146(5)
C5_7 C 0.0674(4) 0.0353(11) 0.0150(5)
H3_7 H 0.0267 0.1269 0.9883
H4_7 H 0.0771 0.0248 0.9881
I1_8 I 0.15212(4) 0.90336(15) 0.98247(6)
C1_8 C 0.9306(6) 0.0065(17) 0.4103(8)
C2_8 C 0.9606(7) 0.063(2) 0.4095(7)
H2_8 H 0.9686 0.0759 0.3817
C3_8 C 0.9800(4) 0.1039(9) 0.4476(4)
C4_8 C 0.9635(4) 0.0937(10) 0.4854(5)
H3_8 H 0.9733 0.1269 0.5117
C5_8 C 0.9326(4) 0.0353(11) 0.4850(5)
H4_8 H 0.9229 0.0248 0.5119
loop_
_geom_bond_atom_site_label_1
_geom_bond_atom_site_label_2
_geom_bond_site_symmetry_1
_geom_bond_site_symmetry_2
Zn3 N11 1_555 1_555
I5 Zn3 1_555 1_555
I6 Zn3 1_555 1_555
N13 Zn3 1_555 1_555
N6 C14 1_555 1_555
C14 H9 1_555 1_555
C15 C14 1_555 1_555
H10 C15 1_555 1_555
C18 N6 1_555 1_555
H12 C18 1_555 1_555
Zn2 N6 1_555 1_555
I3 Zn2 1_555 1_555
I4 Zn2 1_555 1_555
N7 Zn2 1_555 1_555
C19 N7 1_555 1_555
H13 C19 1_555 1_555
C20 C19 1_555 1_555
H14 C20 1_555 1_555
C21 C20 1_555 1_555
C22 C21 1_555 1_555
H15 C22 1_555 1_555
C23 N7 1_555 1_555
H16 C23 1_555 1_555
C24 C21 1_555 1_555
N8 C24 1_555 1_555
C25 N8 1_555 1_555
N9 C25 1_555 1_555
C26 N9 1_555 1_555
N10 C24 1_555 1_555
C27 H17 1_555 1_555
C28 C27 1_555 1_555
H18 C28 1_555 1_555
C29 C25 1_555 1_555
C30 C29 1_555 1_555
H19 C30 1_555 1_555
N12 C32 1_555 1_555
C32 H21 1_555 1_555
C33 C32 1_555 1_555
H22 C33 1_555 1_555
C34 C26 1_555 1_555
C35 C34 1_555 1_555
H23 C35 1_555 1_555
C36 N12 1_555 1_555
H24 C36 1_555 1_555
Zn4 N12 1_555 1_555
C22 C23 1_555 1_555
C26 N10 1_555 1_555
C28 C29 1_555 1_555
C30 C31 1_555 1_555
C33 C34 1_555 1_555
C35 C36 1_555 1_555
C14_2 H9_2 1_555 1_555
C15_2 C14_2 1_555 1_555
H10_2 C15_2 1_555 1_555
H13_2 C19_2 1_555 1_555
C20_2 C19_2 1_555 1_555
H14_2 C20_2 1_555 1_555
C21_2 C20_2 1_555 1_555
C24_2 C21_2 1_555 1_555
N8_2 C24_2 1_555 1_555
C25_2 N8_2 1_555 1_555
N9_2 C25_2 1_555 1_555
C26_2 N9_2 1_555 1_555
N10_2 C24_2 1_555 1_555
N11_2 C27_2 1_555 1_555
C27_2 H17_2 1_555 1_555
C28_2 C27_2 1_555 1_555
H18_2 C28_2 1_555 1_555
C29_2 C25_2 1_555 1_555
C30_2 C29_2 1_555 1_555
H19_2 C30_2 1_555 1_555
C31_2 N11_2 1_555 1_555
H20_2 C31_2 1_555 1_555
Zn3_2 N11_2 1_555 1_555
I5_2 Zn3_2 1_555 1_555
I6_2 Zn3_2 1_555 1_555
C34_2 C26_2 1_555 1_555
C35_2 C34_2 1_555 1_555
H23_2 C35_2 1_555 1_555
H24_2 C36_2 1_555 1_555
N13_2 Zn3_2 1_555 1_555
C26_2 N10_2 1_555 1_555
C28_2 C29_2 1_555 1_555
C30_2 C31_2 1_555 1_555
C35_2 C36_2 1_555 1_555
I2 Zn1 1_555 1_555
N1 Zn1 1_555 1_555
C1 N1 1_555 1_555
H1 C1 1_555 1_555
C2 C1 1_555 1_555
H2 C2 1_555 1_555
C3 C2 1_555 1_555
C4 C3 1_555 1_555
C5 N1 1_555 1_555
C6 C3 1_555 1_555
N2 C6 1_555 1_555
C7 N2 1_555 1_555
N3 C7 1_555 1_555
C8 N3 1_555 1_555
N4 C6 1_555 1_555
N5 C9 1_555 1_555
C9 H5 1_555 1_555
C10 C9 1_555 1_555
H6 C10 1_555 1_555
C11 C7 1_555 1_555
C12 C11 1_555 1_555
H7 C12 1_555 1_555
C13 N5 1_555 1_555
H8 C13 1_555 1_555
C16 C8 1_555 1_555
C17 C16 1_555 1_555
H11 C17 1_555 1_555
Zn5 N5 1_555 1_555
N14 Zn1 1_555 1_555
C4 C5 1_555 1_555
C8 N4 1_555 1_555
C10 C11 1_555 1_555
C12 C13 1_555 1_555
N2_2 C6_2 1_555 1_555
C7_2 N2_2 1_555 1_555
N3_2 C7_2 1_555 1_555
C8_2 N3_2 1_555 1_555
N4_2 C6_2 1_555 1_555
N13 C9_2 1_555 1_555
C9_2 H5_2 1_555 1_555
C10_2 C9_2 1_555 1_555
H6_2 C10_2 1_555 1_555
C11_2 C7_2 1_555 1_555
C12_2 C11_2 1_555 1_555
H7_2 C12_2 1_555 1_555
C13_2 N13 1_555 1_555
H8_2 C13_2 1_555 1_555
N6_2 C14_3 1_555 1_555
C14_3 H9_3 1_555 1_555
C15_3 C14_3 1_555 1_555
H10_3 C15_3 1_555 1_555
C16_2 C8_2 1_555 1_555
C17_2 C16_2 1_555 1_555
H11_2 C17_2 1_555 1_555
C18_3 N6_2 1_555 1_555
H12_2 C18_3 1_555 1_555
Zn2_2 N6_2 1_555 1_555
I3_2 Zn2_2 1_555 1_555
I4_2 Zn2_2 1_555 1_555
N7_2 Zn2_2 1_555 1_555
C19_3 N7_2 1_555 1_555
H13_3 C19_3 1_555 1_555
C20_3 C19_3 1_555 1_555
H14_3 C20_3 1_555 1_555
C21_3 C20_3 1_555 1_555
C22_2 C21_3 1_555 1_555
H15_2 C22_2 1_555 1_555
C23_2 N7_2 1_555 1_555
H16_2 C23_2 1_555 1_555
C24_3 C21_3 1_555 1_555
N8_3 C24_3 1_555 1_555
C25_3 N8_3 1_555 1_555
N9_3 C25_3 1_555 1_555
C26_3 N9_3 1_555 1_555
N10_3 C24_3 1_555 1_555
C27_3 H17_3 1_555 1_555
C28_3 C27_3 1_555 1_555
H18_3 C28_3 1_555 1_555
C29_3 C25_3 1_555 1_555
C30_3 C29_3 1_555 1_555
H19_3 C30_3 1_555 1_555
N14 C32_2 1_555 1_555
C32_2 H21_2 1_555 1_555
C33_2 C32_2 1_555 1_555
H22_2 C33_2 1_555 1_555
C34_3 C26_3 1_555 1_555
C35_3 C34_3 1_555 1_555
H23_3 C35_3 1_555 1_555
C36_3 N14 1_555 1_555
H24_3 C36_3 1_555 1_555
C8_2 N4_2 1_555 1_555
C10_2 C11_2 1_555 1_555
C12_2 C13_2 1_555 1_555
C15_3 C16_2 1_555 1_555
C17_2 C18_3 1_555 1_555
C22_2 C23_2 1_555 1_555
C26_3 N10_3 1_555 1_555
C28_3 C29_3 1_555 1_555
C30_3 C31_3 1_555 1_555
C33_2 C34_3 1_555 1_555
C35_3 C36_3 1_555 1_555
Zn4 I1_2 1_555 1_555
I2_2 Zn4 1_555 1_555
N1_2 Zn4 1_555 1_555
C1_2 N1_2 1_555 1_555
H1_2 C1_2 1_555 1_555
C2_2 C1_2 1_555 1_555
H2_2 C2_2 1_555 1_555
C3_2 C2_2 1_555 1_555
C4_2 C3_2 1_555 1_555
H3_2 C4_2 1_555 1_555
C5_2 N1_2 1_555 1_555
H4_2 C5_2 1_555 1_555
C6_3 C3_2 1_555 1_555
N2_3 C6_3 1_555 1_555
C7_3 N2_3 1_555 1_555
N3_3 C7_3 1_555 1_555
C8_3 N3_3 1_555 1_555
N4_3 C6_3 1_555 1_555
N13_2 C9_3 1_555 1_555
C9_3 H5_3 1_555 1_555
C10_3 C9_3 1_555 1_555
H6_3 C10_3 1_555 1_555
C11_3 C7_3 1_555 1_555
C12_3 C11_3 1_555 1_555
H7_3 C12_3 1_555 1_555
C13_3 N13_2 1_555 1_555
H8_3 C13_3 1_555 1_555
C14_4 H9_4 1_555 1_555
C15_4 C14_4 1_555 1_555
H10_4 C15_4 1_555 1_555
C16_3 C8_3 1_555 1_555
C17_3 C16_3 1_555 1_555
H11_3 C17_3 1_555 1_555
H13_4 C19_4 1_555 1_555
C20_4 C19_4 1_555 1_555
H14_4 C20_4 1_555 1_555
C21_4 C20_4 1_555 1_555
C24_4 C21_4 1_555 1_555
N8_4 C24_4 1_555 1_555
C25_4 N8_4 1_555 1_555
N9_4 C25_4 1_555 1_555
C26_4 N9_4 1_555 1_555
N10_4 C24_4 1_555 1_555
N11_3 C27_4 1_555 1_555
C27_4 H17_4 1_555 1_555
C28_4 C27_4 1_555 1_555
H18_4 C28_4 1_555 1_555
C29_4 C25_4 1_555 1_555
C30_4 C29_4 1_555 1_555
H19_4 C30_4 1_555 1_555
C31_4 N11_3 1_555 1_555
H20_3 C31_4 1_555 1_555
Zn5 N11_3 1_555 1_555
I5_3 Zn5 1_555 1_555
I6_3 Zn5 1_555 1_555
C34_4 C26_4 1_555 1_555
C35_4 C34_4 1_555 1_555
H23_4 C35_4 1_555 1_555
H24_4 C36_4 1_555 1_555
C4_2 C5_2 1_555 1_555
C8_3 N4_3 1_555 1_555
C10_3 C11_3 1_555 1_555
C12_3 C13_3 1_555 1_555
C15_4 C16_3 1_555 1_555
C17_3 C18_4 1_555 1_555
C26_4 N10_4 1_555 1_555
C28_4 C29_4 1_555 1_555
C30_4 C31_4 1_555 1_555
C35_4 C36_4 1_555 1_555
N2_4 C6_4 1_555 1_555
C7_4 N2_4 1_555 1_555
N3_4 C7_4 1_555 1_555
C8_4 N3_4 1_555 1_555
N4_4 C6_4 1_555 1_555
N5_2 C9_4 1_555 1_555
C9_4 H5_4 1_555 1_555
C10_4 C9_4 1_555 1_555
H6_4 C10_4 1_555 1_555
C11_4 C7_4 1_555 1_555
C12_4 C11_4 1_555 1_555
H7_4 C12_4 1_555 1_555
C13_4 N5_2 1_555 1_555
H8_4 C13_4 1_555 1_555
C16_4 C8_4 1_555 1_555
C17_4 C16_4 1_555 1_555
H11_4 C17_4 1_555 1_555
Zn5_2 N5_2 1_555 1_555
C8_4 N4_4 1_555 1_555
C10_4 C11_4 1_555 1_555
C12_4 C13_4 1_555 1_555
Zn5_2 N11_4 1_555 1_555
I5_4 Zn5_2 1_555 1_555
I6_4 Zn5_2 1_555 1_555
I2_3 Zn1_2 1_555 1_555
N1_3 Zn1_2 1_555 1_555
N14_2 Zn1_2 1_555 1_555
Zn2_3 N6_3 1_555 1_555
I3_3 Zn2_3 1_555 1_555
I4_3 Zn2_3 1_555 1_555
N7_3 Zn2_3 1_555 1_555
H15_3 C22_3 1_555 1_555
C23_3 N7_3 1_555 1_555
H16_3 C23_3 1_555 1_555
N14_2 C32_3 1_555 1_555
C32_3 H21_3 1_555 1_555
C33_3 C32_3 1_555 1_555
H22_3 C33_3 1_555 1_555
C22_3 C23_3 1_555 1_555
C2_3 C1_3 1_555 1_555
H2_3 C2_3 1_555 1_555
C3_3 C2_3 1_555 1_555
C4_3 C3_3 1_555 1_555
C4_3 C5_3 1_555 1_555
Zn1_3 I1_4 1_555 1_555
I2_4 Zn1_3 1_555 1_555
N1_4 Zn1_3 1_555 1_555
N14_3 Zn1_3 1_555 1_555
Zn2_4 N6_4 1_555 1_555
I3_4 Zn2_4 1_555 1_555
I4_4 Zn2_4 1_555 1_555
N7_4 Zn2_4 1_555 1_555
H15_4 C22_4 1_555 1_555
C23_4 N7_4 1_555 1_555
H16_4 C23_4 1_555 1_555
N14_3 C32_4 1_555 1_555
C32_4 H21_4 1_555 1_555
C33_4 C32_4 1_555 1_555
H22_4 C33_4 1_555 1_555
C22_4 C23_4 1_555 1_555
C2_4 C1_4 1_555 1_555
H2_4 C2_4 1_555 1_555
C3_4 C2_4 1_555 1_555
C4_4 C3_4 1_555 1_555
H3_4 C4_4 1_555 1_555
H4_4 C5_4 1_555 1_555
C4_4 C5_4 1_555 1_555
Zn3_3 N11_5 1_555 1_555
I5_5 Zn3_3 1_555 1_555
I6_5 Zn3_3 1_555 1_555
N13_3 Zn3_3 1_555 1_555
N2_5 C6_5 1_555 1_555
C7_5 N2_5 1_555 1_555
N3_5 C7_5 1_555 1_555
C8_5 N3_5 1_555 1_555
N4_5 C6_5 1_555 1_555
N13_3 C9_5 1_555 1_555
C9_5 H5_5 1_555 1_555
C10_5 C9_5 1_555 1_555
H6_5 C10_5 1_555 1_555
C11_5 C7_5 1_555 1_555
C12_5 C11_5 1_555 1_555
H7_5 C12_5 1_555 1_555
C13_5 N13_3 1_555 1_555
H8_5 C13_5 1_555 1_555
C16_5 C8_5 1_555 1_555
C17_5 C16_5 1_555 1_555
H11_5 C17_5 1_555 1_555
C8_5 N4_5 1_555 1_555
C10_5 C11_5 1_555 1_555
C12_5 C13_5 1_555 1_555
N2_6 C6_6 1_555 1_555
C7_6 N2_6 1_555 1_555
N3_6 C7_6 1_555 1_555
C8_6 N3_6 1_555 1_555
N4_6 C6_6 1_555 1_555
N5_3 C9_6 1_555 1_555
C9_6 H5_6 1_555 1_555
C10_6 C9_6 1_555 1_555
H6_6 C10_6 1_555 1_555
C11_6 C7_6 1_555 1_555
C12_6 C11_6 1_555 1_555
H7_6 C12_6 1_555 1_555
C13_6 N5_3 1_555 1_555
H8_6 C13_6 1_555 1_555
N6_5 C14_5 1_555 1_555
C14_5 H9_5 1_555 1_555
C15_5 C14_5 1_555 1_555
H10_5 C15_5 1_555 1_555
C16_6 C8_6 1_555 1_555
C17_6 C16_6 1_555 1_555
H11_6 C17_6 1_555 1_555
C18_5 N6_5 1_555 1_555
H12_5 C18_5 1_555 1_555
Zn2_5 N6_5 1_555 1_555
I3_5 Zn2_5 1_555 1_555
I4_5 Zn2_5 1_555 1_555
N7_5 Zn2_5 1_555 1_555
C19_5 N7_5 1_555 1_555
H13_5 C19_5 1_555 1_555
C20_5 C19_5 1_555 1_555
H14_5 C20_5 1_555 1_555
C21_5 C20_5 1_555 1_555
C22_5 C21_5 1_555 1_555
H15_5 C22_5 1_555 1_555
C23_5 N7_5 1_555 1_555
H16_5 C23_5 1_555 1_555
C24_5 C21_5 1_555 1_555
N8_5 C24_5 1_555 1_555
C25_5 N8_5 1_555 1_555
N9_5 C25_5 1_555 1_555
C26_5 N9_5 1_555 1_555
N10_5 C24_5 1_555 1_555
C27_5 H17_5 1_555 1_555
C28_5 C27_5 1_555 1_555
H18_5 C28_5 1_555 1_555
C29_5 C25_5 1_555 1_555
C30_5 C29_5 1_555 1_555
H19_5 C30_5 1_555 1_555
N12_2 C32_5 1_555 1_555
C32_5 H21_5 1_555 1_555
C33_5 C32_5 1_555 1_555
H22_5 C33_5 1_555 1_555
C34_5 C26_5 1_555 1_555
C35_5 C34_5 1_555 1_555
H23_5 C35_5 1_555 1_555
C36_5 N12_2 1_555 1_555
H24_5 C36_5 1_555 1_555
Zn4_2 N12_2 1_555 1_555
Zn5_3 N5_3 1_555 1_555
C8_6 N4_6 1_555 1_555
C10_6 C11_6 1_555 1_555
C12_6 C13_6 1_555 1_555
C15_5 C16_6 1_555 1_555
C17_6 C18_5 1_555 1_555
C22_5 C23_5 1_555 1_555
C26_5 N10_5 1_555 1_555
C28_5 C29_5 1_555 1_555
C30_5 C31_5 1_555 1_555
C33_5 C34_5 1_555 1_555
C35_5 C36_5 1_555 1_555
Zn1_4 I1_5 1_555 1_555
I2_5 Zn1_4 1_555 1_555
N1_5 Zn1_4 1_555 1_555
C1_5 N1_5 1_555 1_555
H1_5 C1_5 1_555 1_555
C2_5 C1_5 1_555 1_555
H2_5 C2_5 1_555 1_555
C3_5 C2_5 1_555 1_555
C4_5 C3_5 1_555 1_555
H3_5 C4_5 1_555 1_555
C5_5 N1_5 1_555 1_555
H4_5 C5_5 1_555 1_555
C6_7 C3_5 1_555 1_555
N2_7 C6_7 1_555 1_555
C7_7 N2_7 1_555 1_555
N3_7 C7_7 1_555 1_555
C8_7 N3_7 1_555 1_555
N4_7 C6_7 1_555 1_555
N5_4 C9_7 1_555 1_555
C9_7 H5_7 1_555 1_555
C10_7 C9_7 1_555 1_555
H6_7 C10_7 1_555 1_555
C11_7 C7_7 1_555 1_555
C12_7 C11_7 1_555 1_555
H7_7 C12_7 1_555 1_555
C13_7 N5_4 1_555 1_555
H8_7 C13_7 1_555 1_555
C14_6 H9_6 1_555 1_555
C15_6 C14_6 1_555 1_555
H10_6 C15_6 1_555 1_555
C16_7 C8_7 1_555 1_555
C17_7 C16_7 1_555 1_555
H11_7 C17_7 1_555 1_555
H13_6 C19_6 1_555 1_555
C20_6 C19_6 1_555 1_555
H14_6 C20_6 1_555 1_555
C21_6 C20_6 1_555 1_555
C24_6 C21_6 1_555 1_555
N8_6 C24_6 1_555 1_555
C25_6 N8_6 1_555 1_555
N9_6 C25_6 1_555 1_555
C26_6 N9_6 1_555 1_555
N10_6 C24_6 1_555 1_555
N11_6 C27_6 1_555 1_555
C27_6 H17_6 1_555 1_555
C28_6 C27_6 1_555 1_555
H18_6 C28_6 1_555 1_555
C29_6 C25_6 1_555 1_555
C30_6 C29_6 1_555 1_555
H19_6 C30_6 1_555 1_555
C31_6 N11_6 1_555 1_555
H20_6 C31_6 1_555 1_555
Zn3_4 N11_6 1_555 1_555
I5_6 Zn3_4 1_555 1_555
I6_6 Zn3_4 1_555 1_555
C34_6 C26_6 1_555 1_555
C35_6 C34_6 1_555 1_555
H23_6 C35_6 1_555 1_555
H24_6 C36_6 1_555 1_555
N13_4 Zn3_4 1_555 1_555
Zn5_4 N5_4 1_555 1_555
N14_4 Zn1_4 1_555 1_555
C4_5 C5_5 1_555 1_555
C8_7 N4_7 1_555 1_555
C10_7 C11_7 1_555 1_555
C12_7 C13_7 1_555 1_555
C15_6 C16_7 1_555 1_555
C17_7 C18_6 1_555 1_555
C26_6 N10_6 1_555 1_555
C28_6 C29_6 1_555 1_555
C30_6 C31_6 1_555 1_555
C35_6 C36_6 1_555 1_555
N6_6 C14_7 1_555 1_555
C14_7 H9_7 1_555 1_555
C15_7 C14_7 1_555 1_555
H10_7 C15_7 1_555 1_555
C18_7 N6_6 1_555 1_555
H12_6 C18_7 1_555 1_555
Zn2_6 N6_6 1_555 1_555
I3_6 Zn2_6 1_555 1_555
I4_6 Zn2_6 1_555 1_555
N7_6 Zn2_6 1_555 1_555
C19_7 N7_6 1_555 1_555
H13_7 C19_7 1_555 1_555
C20_7 C19_7 1_555 1_555
H14_7 C20_7 1_555 1_555
C21_7 C20_7 1_555 1_555
C22_6 C21_7 1_555 1_555
H15_6 C22_6 1_555 1_555
C23_6 N7_6 1_555 1_555
H16_6 C23_6 1_555 1_555
C24_7 C21_7 1_555 1_555
N8_7 C24_7 1_555 1_555
C25_7 N8_7 1_555 1_555
N9_7 C25_7 1_555 1_555
C26_7 N9_7 1_555 1_555
N10_7 C24_7 1_555 1_555
C27_7 H17_7 1_555 1_555
C28_7 C27_7 1_555 1_555
H18_7 C28_7 1_555 1_555
C29_7 C25_7 1_555 1_555
C30_7 C29_7 1_555 1_555
H19_7 C30_7 1_555 1_555
N14_4 C32_6 1_555 1_555
C32_6 H21_6 1_555 1_555
C33_6 C32_6 1_555 1_555
H22_6 C33_6 1_555 1_555
C34_7 C26_7 1_555 1_555
C35_7 C34_7 1_555 1_555
H23_7 C35_7 1_555 1_555
C36_7 N14_4 1_555 1_555
H24_7 C36_7 1_555 1_555
C22_6 C23_6 1_555 1_555
C26_7 N10_7 1_555 1_555
C28_7 C29_7 1_555 1_555
C30_7 C31_7 1_555 1_555
C33_6 C34_7 1_555 1_555
C35_7 C36_7 1_555 1_555
Zn5_3 N11_7 1_555 1_555
I5_7 Zn5_3 1_555 1_555
I6_7 Zn5_3 1_555 1_555
I2_6 Zn4_2 1_555 1_555
N1_6 Zn4_2 1_555 1_555
C1_6 N1_6 1_555 1_555
H1_6 C1_6 1_555 1_555
C2_6 C1_6 1_555 1_555
H2_6 C2_6 1_555 1_555
C3_6 C2_6 1_555 1_555
C4_6 C3_6 1_555 1_555
C5_6 N1_6 1_555 1_555
C6_8 C3_6 1_555 1_555
N2_8 C6_8 1_555 1_555
C7_8 N2_8 1_555 1_555
N3_8 C7_8 1_555 1_555
C8_8 N3_8 1_555 1_555
N4_8 C6_8 1_555 1_555
N13_4 C9_8 1_555 1_555
C9_8 H5_8 1_555 1_555
C10_8 C9_8 1_555 1_555
H6_8 C10_8 1_555 1_555
C11_8 C7_8 1_555 1_555
C12_8 C11_8 1_555 1_555
H7_8 C12_8 1_555 1_555
C13_8 N13_4 1_555 1_555
H8_8 C13_8 1_555 1_555
C16_8 C8_8 1_555 1_555
C17_8 C16_8 1_555 1_555
H11_8 C17_8 1_555 1_555
C4_6 C5_6 1_555 1_555
C8_8 N4_8 1_555 1_555
C10_8 C11_8 1_555 1_555
C12_8 C13_8 1_555 1_555
C14_8 H9_8 1_555 1_555
C15_8 C14_8 1_555 1_555
H10_8 C15_8 1_555 1_555
H13_8 C19_8 1_555 1_555
C20_8 C19_8 1_555 1_555
H14_8 C20_8 1_555 1_555
C21_8 C20_8 1_555 1_555
C24_8 C21_8 1_555 1_555
N8_8 C24_8 1_555 1_555
C25_8 N8_8 1_555 1_555
N9_8 C25_8 1_555 1_555
C26_8 N9_8 1_555 1_555
N10_8 C24_8 1_555 1_555
N11_8 C27_8 1_555 1_555
C27_8 H17_8 1_555 1_555
C28_8 C27_8 1_555 1_555
H18_8 C28_8 1_555 1_555
C29_8 C25_8 1_555 1_555
C30_8 C29_8 1_555 1_555
H19_8 C30_8 1_555 1_555
C31_8 N11_8 1_555 1_555
H20_8 C31_8 1_555 1_555
Zn5_4 N11_8 1_555 1_555
I5_8 Zn5_4 1_555 1_555
I6_8 Zn5_4 1_555 1_555
C34_8 C26_8 1_555 1_555
C35_8 C34_8 1_555 1_555
H23_8 C35_8 1_555 1_555
H24_8 C36_8 1_555 1_555
C26_8 N10_8 1_555 1_555
C28_8 C29_8 1_555 1_555
C30_8 C31_8 1_555 1_555
C35_8 C36_8 1_555 1_555
Zn2_7 N6_7 1_555 1_555
I3_7 Zn2_7 1_555 1_555
I4_7 Zn2_7 1_555 1_555
N7_7 Zn2_7 1_555 1_555
H15_7 C22_7 1_555 1_555
C23_7 N7_7 1_555 1_555
H16_7 C23_7 1_555 1_555
N12_3 C32_7 1_555 1_555
C32_7 H21_7 1_555 1_555
C33_7 C32_7 1_555 1_555
H22_7 C33_7 1_555 1_555
Zn4_3 N12_3 1_555 1_555
C22_7 C23_7 1_555 1_555
Zn4_3 I1_7 1_555 1_555
I2_7 Zn4_3 1_555 1_555
N1_7 Zn4_3 1_555 1_555
Zn2_8 N6_8 1_555 1_555
I3_8 Zn2_8 1_555 1_555
I4_8 Zn2_8 1_555 1_555
N7_8 Zn2_8 1_555 1_555
H15_8 C22_8 1_555 1_555
C23_8 N7_8 1_555 1_555
H16_8 C23_8 1_555 1_555
N12_4 C32_8 1_555 1_555
C32_8 H21_8 1_555 1_555
C33_8 C32_8 1_555 1_555
H22_8 C33_8 1_555 1_555
Zn4_4 N12_4 1_555 1_555
C22_8 C23_8 1_555 1_555
I2_8 Zn4_4 1_555 1_555
N1_8 Zn4_4 1_555 1_555
C2_7 C1_7 1_555 1_555
H2_7 C2_7 1_555 1_555
C3_7 C2_7 1_555 1_555
C4_7 C3_7 1_555 1_555
C4_7 C5_7 1_555 1_555
C2_8 C1_8 1_555 1_555
H2_8 C2_8 1_555 1_555
C3_8 C2_8 1_555 1_555
C4_8 C3_8 1_555 1_555
H3_8 C4_8 1_555 1_555
H4_8 C5_8 1_555 1_555
C4_8 C5_8 1_555 1_555

#END
