
###############################################################################
#
# This file contains modified crystal structure data generated from the
# MOF subset of the Cambridge Structural Database (CSD) v543 
# hosted by the Cambridge Crystallographic Data Centre (CCDC).
#
# This work is licensed under the Creative Commons
# Attribution-NonCommercial-ShareAlike 4.0 International License.
# To view a copy of this license, visit
# http://creativecommons.org/licenses/by-nc-sa/4.0/
# or send a letter to
# Creative Commons, PO Box 1866, Mountain View, CA 94042, USA.
#
# CIF created using the CSD Python API on 29 September 2022
# The structure has been converted into the P1 space group
# The structure has a 3D framework
# The original CSD entry REXDEF is in the triclinic crystal system
# The framework has been calculated to contain at least 10.0% void space
# The void calculation uses a probe of radius 1.32A, grid spacing 0.4
#
###############################################################################

data_REXDEF
_chemical_formula_moiety         '(C144 H96 I24 N48 Zn12)n'
_symmetry_cell_setting           triclinic
_symmetry_space_group_name_H-M   'P 1'
_symmetry_Int_Tables_number      1
_space_group_name_Hall           'P 1'
loop_
_symmetry_equiv_pos_site_id
_symmetry_equiv_pos_as_xyz
1 x,y,z
_cell_length_a                   14.952(9)
_cell_length_b                   18.584(11)
_cell_length_c                   32.756(19)
_cell_angle_alpha                104.933(8)
_cell_angle_beta                 102.349(7)
_cell_angle_gamma                111.615(8)
_cell_volume                     7677.77
loop_
_atom_site_label
_atom_site_type_symbol
_atom_site_fract_x
_atom_site_fract_y
_atom_site_fract_z
H48 H 0.5782 0.0129 0.6506
Zn8 Zn 0.56300(19) 0.0969(2) 0.73952(11)
C27 C 0.0574(10) 0.1401(11) 0.9806(5)
H17 H 0.0376 0.1835 0.9879
C29 C 0.1761(14) 0.0882(14) 0.9976(7)
C30 C 0.1009(12) 0.0058(17) 0.9671(8)
C31 C 0.0090(11) 0.0019(11) 0.9456(6)
H25 H 0.0066 0.0397 0.8666
C38 C 0.0371(15) 0.0908(14) 0.8206(7)
H26 H 0.0854 0.0720 0.8142
C39 C 0.0058(14) 0.1383(13) 0.7994(7)
C42 C 0.0533(13) 0.1556(12) 0.7637(6)
N14 N 0.1306(10) 0.1363(10) 0.7626(5)
C43 C 0.1682(13) 0.1568(15) 0.7314(7)
N15 N 0.1356(9) 0.1857(9) 0.7022(5)
C44 C 0.0569(11) 0.2014(12) 0.7072(5)
N16 N 0.0109(10) 0.1913(11) 0.7371(5)
N17 N 0.4409(13) 0.1251(13) 0.7363(7)
C45 C 0.3981(16) 0.1442(17) 0.7035(7)
H29 H 0.4281 0.1512 0.6811
C46 C 0.3103(14) 0.1542(17) 0.7014(7)
H30 H 0.2812 0.1680 0.6776
C47 C 0.2644(13) 0.1446(12) 0.7329(5)
C48 C 0.3040(15) 0.1177(15) 0.7642(7)
H31 H 0.2703 0.1029 0.7844
C49 C 0.3934(16) 0.1128(16) 0.7655(7)
H32 H 0.4239 0.0994 0.7892
I7 I 0.61067(15) 0.07418(16) 0.81328(8)
I8 I 0.68997(14) 0.19223(13) 0.71392(9)
C52 C 0.0123(12) 0.2337(13) 0.6763(7)
C53 C 0.0445(13) 0.2404(12) 0.6398(6)
H35 H 0.1003 0.2295 0.6365
H36 H 0.0120 0.2644 0.5821
C55 C 0.0044(14) 0.3987(12) 0.5227(7)
C56 C 0.0863(15) 0.4634(13) 0.5224(8)
H38 H 0.1029 0.4561 0.4957
C57 C 0.1461(15) 0.5380(16) 0.5578(6)
C58 C 0.1207(16) 0.5449(14) 0.5960(6)
H39 H 0.1637 0.5925 0.6227
C59 C 0.0342(17) 0.4839(14) 0.5962(9)
H40 H 0.0156 0.4939 0.6223
C60 C 0.2344(17) 0.6013(19) 0.5560(8)
N20 N 0.2796(11) 0.5793(11) 0.5269(6)
C61 C 0.3706(12) 0.6381(13) 0.5330(7)
N21 N 0.4102(12) 0.7173(13) 0.5611(6)
C62 C 0.3639(16) 0.7355(16) 0.5901(9)
N22 N 0.2706(12) 0.6798(13) 0.5880(6)
N23 N 0.5344(13) 0.5843(12) 0.4484(7)
C63 C 0.552(2) 0.6609(15) 0.4732(8)
H41 H 0.6047 0.7045 0.4699
C64 C 0.5072(16) 0.6882(13) 0.5029(8)
H42 H 0.5293 0.7450 0.5205
C65 C 0.4268(13) 0.6226(14) 0.5036(6)
C66 C 0.3972(14) 0.5388(17) 0.4758(7)
H43 H 0.3393 0.4942 0.4756
C67 C 0.4535(14) 0.5235(13) 0.4494(7)
H44 H 0.4339 0.4675 0.4313
N24 N 0.4840(13) 0.9847(11) 0.6849(7)
C68 C 0.421(2) 0.9215(14) 0.6920(12)
H45 H 0.4108 0.9289 0.7201
C69 C 0.371(2) 0.8469(19) 0.6586(10)
H46 H 0.3082 0.8078 0.6583
C70 C 0.4072(16) 0.8247(14) 0.6251(8)
C71 C 0.4822(16) 0.8891(15) 0.6204(9)
H47 H 0.5059 0.8791 0.5958
C72 C 0.5225(19) 0.9688(18) 0.6521(8)
Zn6 Zn 0.61102(19) 0.5623(2) 0.40367(10)
I11 I 0.79295(12) 0.67506(16) 0.44045(7)
I12 I 0.55025(16) 0.40779(16) 0.36782(7)
N25 N 0.5341(10) 0.5938(14) 0.3553(5)
C2 C 0.0461(13) 0.5446(16) 0.2378(7)
H2 H 0.0864 0.5289 0.2569
C3 C 0.0810(12) 0.5798(13) 0.2088(5)
C4 C 0.0194(10) 0.5950(14) 0.1787(6)
H3 H 0.0421 0.6136 0.1567
C6 C 0.1885(13) 0.5990(15) 0.2083(7)
N2 N 0.2480(9) 0.5892(11) 0.2409(5)
C7 C 0.3453(10) 0.6089(14) 0.2438(6)
N3 N 0.3850(9) 0.6380(11) 0.2153(5)
C8 C 0.3149(11) 0.6371(12) 0.1820(5)
N4 N 0.2218(9) 0.6229(10) 0.1775(4)
C9 C 0.5679(14) 0.6114(16) 0.3232(6)
H5 H 0.6336 0.6156 0.3241
C10 C 0.5132(12) 0.6241(15) 0.2887(7)
H6 H 0.5454 0.6466 0.2698
C11 C 0.4123(16) 0.6042(16) 0.2817(8)
C12 C 0.3705(14) 0.5752(16) 0.3102(7)
H7 H 0.3006 0.5604 0.3069
C13 C 0.4339(10) 0.5682(16) 0.3442(7)
H8 H 0.4022 0.5417 0.3620
N6 N 0.4286(11) 0.7118(12) 0.0814(6)
C14 C 0.3381(13) 0.7071(15) 0.0825(7)
H9 H 0.2964 0.7160 0.0600
C15 C 0.3055(14) 0.6893(15) 0.1165(6)
H10 H 0.2415 0.6877 0.1171
C16 C 0.3600(12) 0.6737(14) 0.1497(6)
C17 C 0.4559(12) 0.6832(17) 0.1512(7)
H11 H 0.5011 0.6787 0.1746
C18 C 0.4804(13) 0.6999(15) 0.1153(6)
H12 H 0.5451 0.7035 0.1148
Zn2 Zn 0.4713(3) 0.7310(3) 0.02771(14)
I4 I 0.6679(2) 0.7876(2) 0.05817(12)
N7 N 0.4530(13) 0.8338(13) 0.0302(6)
C21 C 0.4145(12) 0.9733(14) 0.0329(7)
C22 C 0.4863(14) 0.9747(14) 0.0673(7)
C23 C 0.5009(18) 0.9057(12) 0.0652(8)
H16 H 0.5489 0.9093 0.0909
I3 I 0.3359(3) 0.6071(2) 0.95937(10)
C19 C 0.3864(15) 0.8392(14) 0.9986(7)
H13 H 0.3505 0.7902 0.9722
C20 C 0.3586(15) 0.9010(13) 0.9962(8)
H14 H 0.3054 0.8941 0.9714
H19 H 0.1138 0.9585 0.9624
H15 H 0.5268 0.0246 0.0930
C24 C 0.3917(11) 0.0506(14) 0.0395(6)
N8 N 0.2980(9) 0.0297(9) 0.0125(4)
C25 C 0.2854(13) 0.0989(13) 0.0220(6)
N9 N 0.3495(9) 0.1749(11) 0.0509(5)
C26 C 0.4391(11) 0.1841(15) 0.0750(6)
N10 N 0.4630(11) 0.1209(11) 0.0692(5)
C28 C 0.1557(10) 0.1561(13) 0.0034(7)
H18 H 0.2067 0.2110 0.0221
N12 N 0.6542(9) 0.4283(12) 0.1692(5)
C32 C 0.6675(17) 0.3619(17) 0.1644(9)
H21 H 0.7291 0.3703 0.1850
C33 C 0.6070(13) 0.2814(16) 0.1343(8)
H22 H 0.6301 0.2399 0.1332
C34 C 0.5118(12) 0.2620(15) 0.1056(7)
C35 C 0.4977(18) 0.3323(12) 0.1105(7)
H23 H 0.4351 0.3253 0.0914
C36 C 0.5648(11) 0.4115(13) 0.1403(6)
H24 H 0.5473 0.4557 0.1403
Zn7 Zn 0.75000(17) 0.5410(2) 0.21501(10)
I1 I 0.75742(13) 0.53510(16) 0.29261(7)
I2 I 0.70039(12) 0.64018(13) 0.18541(8)
N1 N 0.8932(10) 0.5546(11) 0.2106(6)
C1 C 0.9499(12) 0.5332(16) 0.2378(7)
H1 H 0.9232 0.5094 0.2575
C5 C 0.9244(11) 0.5834(14) 0.1803(8)
H4 H 0.8815 0.5955 0.1601
N11 N 0.9890(10) 0.0670(9) 0.9489(5)
Zn3 Zn 0.85908(15) 0.06439(17) 0.90797(8)
I5 I 0.82794(10) 0.18183(11) 0.95147(5)
N13 N 0.9243(12) 0.1028(12) 0.8628(6)
C37 C 0.9908(16) 0.0737(15) 0.8519(7)
C40 C 0.9392(12) 0.1692(12) 0.8101(6)
H27 H 0.9210 0.2034 0.7963
C41 C 0.9009(12) 0.1474(13) 0.8420(6)
H28 H 0.8535 0.1666 0.8494
N18 N 0.9187(10) 0.2850(11) 0.6126(5)
C50 C 0.8880(15) 0.2787(17) 0.6476(6)
H33 H 0.8339 0.2921 0.6511
C51 C 0.9332(13) 0.2533(14) 0.6786(7)
H34 H 0.9083 0.2491 0.7027
C54 C 0.9928(13) 0.2638(12) 0.6079(7)
Zn5 Zn 0.85188(18) 0.3225(2) 0.56625(10)
I9 I 0.76383(15) 0.40038(18) 0.60323(8)
I10 I 0.76607(15) 0.19715(15) 0.49228(8)
N19 N 0.9751(13) 0.4119(13) 0.5620(6)
H37 H 0.9682 0.3471 0.4979
H20 H 0.9550 0.9483 0.9267
I6 I 0.73227(11) 0.91165(12) 0.86703(6)
H20_2 H 0.0450 0.0517 0.0733
I6_2 I 0.26773(11) 0.08835(12) 0.13297(6)
Zn1 Zn 0.25000(17) 0.4590(2) 0.78499(10)
I1_2 I 0.24258(13) 0.46490(16) 0.70739(7)
I2_2 I 0.29961(12) 0.35982(13) 0.81459(8)
N1_2 N 0.1068(10) 0.4454(11) 0.7894(6)
C1_2 C 0.0501(12) 0.4668(16) 0.7622(7)
H1_2 H 0.0768 0.4906 0.7425
C5_2 C 0.0756(11) 0.4166(14) 0.8197(8)
H4_2 H 0.1185 0.4045 0.8399
N26 N 0.3458(9) 0.5717(12) 0.8308(5)
H15_2 H 0.4732 0.9754 0.9070
C24_2 C 0.6083(11) 0.9494(14) 0.9605(6)
N8_2 N 0.7020(9) 0.9703(9) 0.9875(4)
C25_2 C 0.7146(13) 0.9011(13) 0.9780(6)
N9_2 N 0.6505(9) 0.8251(11) 0.9491(5)
C26_2 C 0.5609(11) 0.8159(15) 0.9250(6)
N10_2 N 0.5370(11) 0.8791(11) 0.9308(5)
C28_2 C 0.8443(10) 0.8439(13) 0.9966(7)
H18_2 H 0.7933 0.7890 0.9779
C32_2 C 0.3325(17) 0.6381(17) 0.8356(9)
H21_2 H 0.2709 0.6297 0.8150
C33_2 C 0.3930(13) 0.7186(16) 0.8657(8)
H22_2 H 0.3699 0.7601 0.8668
C34_2 C 0.4882(12) 0.7380(15) 0.8944(7)
C35_2 C 0.5023(18) 0.6677(12) 0.8895(7)
H23_2 H 0.5649 0.6747 0.9086
C36_2 C 0.4352(11) 0.5885(13) 0.8597(6)
H24_2 H 0.4527 0.5443 0.8597
N11_2 N 0.0110(10) 0.9330(9) 0.0511(5)
Zn3_2 Zn 0.14092(15) 0.93561(17) 0.09203(8)
I5_2 I 0.17206(10) 0.81817(11) 0.04853(5)
N13_2 N 0.0757(12) 0.8972(12) 0.1372(6)
C37_2 C 0.0092(16) 0.9263(15) 0.1481(7)
C40_2 C 0.0608(12) 0.8308(12) 0.1899(6)
H27_2 H 0.0790 0.7966 0.2037
C41_2 C 0.0991(12) 0.8526(13) 0.1580(6)
H28_2 H 0.1465 0.8334 0.1506
N18_2 N 0.0813(10) 0.7150(11) 0.3874(5)
C50_2 C 0.1120(15) 0.7213(17) 0.3524(6)
H33_2 H 0.1661 0.7079 0.3489
C51_2 C 0.0668(13) 0.7467(14) 0.3214(7)
H34_2 H 0.0917 0.7509 0.2973
C54_2 C 0.0072(13) 0.7362(12) 0.3921(7)
Zn5_2 Zn 0.14812(18) 0.6775(2) 0.43375(10)
I9_2 I 0.23617(15) 0.59962(18) 0.39677(8)
I10_2 I 0.23393(15) 0.80285(15) 0.50772(8)
N19_2 N 0.0249(13) 0.5881(13) 0.4380(6)
H37_2 H 0.0318 0.6529 0.5021
I3_2 I 0.6641(3) 0.3929(2) 0.04063(10)
C19_2 C 0.6136(15) 0.1608(14) 0.0014(7)
H13_2 H 0.6495 0.2098 0.0278
C20_2 C 0.6414(15) 0.0990(13) 0.0038(8)
H14_2 H 0.6946 0.1059 0.0286
H19_2 H 0.8862 0.0415 0.0376
N27 N 0.5160(13) 0.0153(11) 0.3151(7)
C2_2 C 0.9539(13) 0.4554(16) 0.7622(7)
H2_2 H 0.9136 0.4711 0.7431
C3_2 C 0.9190(12) 0.4202(13) 0.7912(5)
C4_2 C 0.9806(10) 0.4050(14) 0.8213(6)
H3_2 H 0.9579 0.3864 0.8433
C6_2 C 0.8115(13) 0.4010(15) 0.7917(7)
N2_2 N 0.7520(9) 0.4108(11) 0.7591(5)
C7_2 C 0.6547(10) 0.3911(14) 0.7562(6)
N3_2 N 0.6150(9) 0.3620(11) 0.7847(5)
C8_2 C 0.6851(11) 0.3629(12) 0.8180(5)
N4_2 N 0.7782(9) 0.3771(10) 0.8225(4)
N5 N 0.4659(10) 0.4062(14) 0.6447(5)
C9_2 C 0.4321(14) 0.3886(16) 0.6768(6)
H5_2 H 0.3664 0.3844 0.6759
C10_2 C 0.4868(12) 0.3759(15) 0.7113(7)
H6_2 H 0.4546 0.3534 0.7302
C11_2 C 0.5877(16) 0.3958(16) 0.7183(8)
C12_2 C 0.6295(14) 0.4248(16) 0.6898(7)
H7_2 H 0.6994 0.4396 0.6931
C13_2 C 0.5661(10) 0.4318(16) 0.6558(7)
H8_2 H 0.5978 0.4583 0.6380
N6_2 N 0.5714(11) 0.2882(12) 0.9186(6)
C14_2 C 0.6619(13) 0.2929(15) 0.9175(7)
H9_2 H 0.7036 0.2840 0.9400
C15_2 C 0.6945(14) 0.3107(15) 0.8835(6)
H10_2 H 0.7585 0.3123 0.8829
C16_2 C 0.6400(12) 0.3263(14) 0.8503(6)
C17_2 C 0.5441(12) 0.3168(17) 0.8488(7)
H11_2 H 0.4989 0.3213 0.8254
C18_2 C 0.5196(13) 0.3001(15) 0.8847(6)
H12_2 H 0.4549 0.2965 0.8852
Zn2_2 Zn 0.5287(3) 0.2690(3) 0.97229(14)
I4_2 I 0.3321(2) 0.2124(2) 0.94183(12)
N7_2 N 0.5470(13) 0.1662(13) 0.9698(6)
C21_2 C 0.5855(12) 0.0267(14) 0.9671(7)
C22_2 C 0.5137(14) 0.0253(14) 0.9327(7)
C23_2 C 0.4991(18) 0.0943(12) 0.9348(8)
H16_2 H 0.4511 0.0907 0.9091
Zn9 Zn 0.38898(19) 0.4377(2) 0.59633(10)
C27_2 C 0.9426(10) 0.8599(11) 0.0194(5)
H17_2 H 0.9624 0.8165 0.0121
C29_2 C 0.8239(14) 0.9118(14) 0.0024(7)
C30_2 C 0.8991(12) 0.9942(17) 0.0329(8)
C31_2 C 0.9910(11) 0.9981(11) 0.0544(6)
H25_2 H 0.9934 0.9603 0.1334
C38_2 C 0.9629(15) 0.9092(14) 0.1794(7)
H26_2 H 0.9146 0.9280 0.1858
C39_2 C 0.9942(14) 0.8617(13) 0.2006(7)
C42_2 C 0.9467(13) 0.8444(12) 0.2363(6)
N14_2 N 0.8694(10) 0.8637(10) 0.2374(5)
C43_2 C 0.8318(13) 0.8432(15) 0.2686(7)
N15_2 N 0.8644(9) 0.8143(9) 0.2978(5)
C44_2 C 0.9431(11) 0.7986(12) 0.2928(5)
N16_2 N 0.9891(10) 0.8087(11) 0.2629(5)
N17_2 N 0.5591(13) 0.8749(13) 0.2637(7)
C45_2 C 0.6019(16) 0.8558(17) 0.2965(7)
H29_2 H 0.5719 0.8488 0.3189
C46_2 C 0.6897(14) 0.8458(17) 0.2986(7)
H30_2 H 0.7188 0.8320 0.3224
C47_2 C 0.7356(13) 0.8554(12) 0.2671(5)
C48_2 C 0.6960(15) 0.8823(15) 0.2358(7)
H31_2 H 0.7297 0.8971 0.2156
C49_2 C 0.6066(16) 0.8872(16) 0.2345(7)
H32_2 H 0.5761 0.9006 0.2108
Zn4 Zn 0.43700(19) 0.9031(2) 0.26048(11)
I7_2 I 0.38933(15) 0.92582(16) 0.18672(8)
I8_2 I 0.31003(14) 0.80777(13) 0.28608(9)
C52_2 C 0.9877(12) 0.7663(13) 0.3237(7)
C53_2 C 0.9555(13) 0.7596(12) 0.3602(6)
H35_2 H 0.8997 0.7705 0.3635
H36_2 H 0.9880 0.7356 0.4179
C55_2 C 0.9956(14) 0.6013(12) 0.4773(7)
C56_2 C 0.9137(15) 0.5366(13) 0.4776(8)
H38_2 H 0.8971 0.5439 0.5043
C57_2 C 0.8539(15) 0.4620(16) 0.4422(6)
C58_2 C 0.8793(16) 0.4551(14) 0.4040(6)
H39_2 H 0.8363 0.4075 0.3773
C59_2 C 0.9658(17) 0.5161(14) 0.4038(9)
H40_2 H 0.9844 0.5061 0.3777
C60_2 C 0.7656(17) 0.3987(19) 0.4440(8)
N20_2 N 0.7204(11) 0.4207(11) 0.4731(6)
C61_2 C 0.6294(12) 0.3619(13) 0.4670(7)
N21_2 N 0.5898(12) 0.2827(13) 0.4389(6)
C62_2 C 0.6361(16) 0.2645(16) 0.4099(9)
N22_2 N 0.7294(12) 0.3202(13) 0.4120(6)
N23_2 N 0.4656(13) 0.4157(12) 0.5516(7)
C63_2 C 0.448(2) 0.3391(15) 0.5268(8)
H41_2 H 0.3953 0.2955 0.5301
C64_2 C 0.4928(16) 0.3118(13) 0.4971(8)
H42_2 H 0.4707 0.2550 0.4795
C65_2 C 0.5732(13) 0.3774(14) 0.4964(6)
C66_2 C 0.6028(14) 0.4612(17) 0.5242(7)
H43_2 H 0.6607 0.5058 0.5244
C67_2 C 0.5465(14) 0.4765(13) 0.5506(7)
H44_2 H 0.5661 0.5325 0.5687
C68_2 C 0.579(2) 0.0785(14) 0.3080(12)
H45_2 H 0.5892 0.0711 0.2799
C69_2 C 0.629(2) 0.1531(19) 0.3414(10)
H46_2 H 0.6918 0.1922 0.3417
C70_2 C 0.5928(16) 0.1753(14) 0.3749(8)
C71_2 C 0.5178(16) 0.1109(15) 0.3796(9)
H47_2 H 0.4941 0.1209 0.4042
C72_2 C 0.4775(19) 0.0312(18) 0.3479(8)
I11_2 I 0.20705(12) 0.32494(16) 0.55955(7)
I12_2 I 0.44975(16) 0.59221(16) 0.63218(7)
H48_2 H 0.4218 0.9871 0.3494
loop_
_geom_bond_atom_site_label_1
_geom_bond_atom_site_label_2
_geom_bond_site_symmetry_1
_geom_bond_site_symmetry_2
C27 H17 1_555 1_555
C30 C29 1_555 1_555
H26 C38 1_555 1_555
C39 C38 1_555 1_555
C42 C39 1_555 1_555
N14 C42 1_555 1_555
C43 N14 1_555 1_555
N15 C43 1_555 1_555
C44 N15 1_555 1_555
N16 C42 1_555 1_555
N17 C45 1_555 1_555
C45 H29 1_555 1_555
C46 C45 1_555 1_555
H30 C46 1_555 1_555
C47 C43 1_555 1_555
C48 C47 1_555 1_555
H31 C48 1_555 1_555
C49 N17 1_555 1_555
H32 C49 1_555 1_555
Zn8 N17 1_555 1_555
I7 Zn8 1_555 1_555
I8 Zn8 1_555 1_555
C52 C44 1_555 1_555
C53 C52 1_555 1_555
H35 C53 1_555 1_555
C56 C55 1_555 1_555
H38 C56 1_555 1_555
C57 C56 1_555 1_555
C58 C57 1_555 1_555
H39 C58 1_555 1_555
H40 C59 1_555 1_555
C60 C57 1_555 1_555
N20 C60 1_555 1_555
C61 N20 1_555 1_555
N21 C61 1_555 1_555
C62 N21 1_555 1_555
N22 C60 1_555 1_555
N23 C63 1_555 1_555
C63 H41 1_555 1_555
C64 C63 1_555 1_555
H42 C64 1_555 1_555
C65 C61 1_555 1_555
C66 C65 1_555 1_555
H43 C66 1_555 1_555
C67 N23 1_555 1_555
H44 C67 1_555 1_555
N24 C68 1_555 1_555
C68 H45 1_555 1_555
C69 C68 1_555 1_555
H46 C69 1_555 1_555
C70 C62 1_555 1_555
C71 C70 1_555 1_555
H47 C71 1_555 1_555
C72 N24 1_555 1_555
Zn6 N23 1_555 1_555
I11 Zn6 1_555 1_555
I12 Zn6 1_555 1_555
N25 Zn6 1_555 1_555
C30 C31 1_555 1_555
C44 N16 1_555 1_555
C46 C47 1_555 1_555
C48 C49 1_555 1_555
C58 C59 1_555 1_555
C62 N22 1_555 1_555
C64 C65 1_555 1_555
C66 C67 1_555 1_555
C69 C70 1_555 1_555
C71 C72 1_555 1_555
H2 C2 1_555 1_555
C3 C2 1_555 1_555
C4 C3 1_555 1_555
H3 C4 1_555 1_555
C6 C3 1_555 1_555
N2 C6 1_555 1_555
C7 N2 1_555 1_555
N3 C7 1_555 1_555
C8 N3 1_555 1_555
N4 C6 1_555 1_555
N25 C9 1_555 1_555
C9 H5 1_555 1_555
C10 C9 1_555 1_555
H6 C10 1_555 1_555
C11 C7 1_555 1_555
C12 C11 1_555 1_555
H7 C12 1_555 1_555
C13 N25 1_555 1_555
H8 C13 1_555 1_555
N6 C14 1_555 1_555
C14 H9 1_555 1_555
C15 C14 1_555 1_555
H10 C15 1_555 1_555
C16 C8 1_555 1_555
C17 C16 1_555 1_555
H11 C17 1_555 1_555
C18 N6 1_555 1_555
H12 C18 1_555 1_555
Zn2 N6 1_555 1_555
I4 Zn2 1_555 1_555
N7 Zn2 1_555 1_555
C22 C21 1_555 1_555
C23 N7 1_555 1_555
H16 C23 1_555 1_555
C8 N4 1_555 1_555
C10 C11 1_555 1_555
C12 C13 1_555 1_555
C15 C16 1_555 1_555
C17 C18 1_555 1_555
C22 C23 1_555 1_555
H13 C19 1_555 1_555
C20 C19 1_555 1_555
H14 C20 1_555 1_555
N8 C24 1_555 1_555
C25 N8 1_555 1_555
N9 C25 1_555 1_555
C26 N9 1_555 1_555
N10 C24 1_555 1_555
H18 C28 1_555 1_555
N12 C32 1_555 1_555
C32 H21 1_555 1_555
C33 C32 1_555 1_555
H22 C33 1_555 1_555
C34 C26 1_555 1_555
C35 C34 1_555 1_555
H23 C35 1_555 1_555
C36 N12 1_555 1_555
H24 C36 1_555 1_555
Zn7 N12 1_555 1_555
C26 N10 1_555 1_555
C33 C34 1_555 1_555
C35 C36 1_555 1_555
Zn7 I1 1_555 1_555
I2 Zn7 1_555 1_555
N1 Zn7 1_555 1_555
C1 N1 1_555 1_555
H1 C1 1_555 1_555
C5 N1 1_555 1_555
H4 C5 1_555 1_555
Zn3 N11 1_555 1_555
I5 Zn3 1_555 1_555
N13 Zn3 1_555 1_555
C37 N13 1_555 1_555
H27 C40 1_555 1_555
C41 N13 1_555 1_555
H28 C41 1_555 1_555
N18 C50 1_555 1_555
C50 H33 1_555 1_555
C51 C50 1_555 1_555
H34 C51 1_555 1_555
C54 N18 1_555 1_555
Zn5 N18 1_555 1_555
I9 Zn5 1_555 1_555
I10 Zn5 1_555 1_555
N19 Zn5 1_555 1_555
C40 C41 1_555 1_555
Zn1 I1_2 1_555 1_555
I2_2 Zn1 1_555 1_555
N1_2 Zn1 1_555 1_555
C1_2 N1_2 1_555 1_555
H1_2 C1_2 1_555 1_555
C5_2 N1_2 1_555 1_555
H4_2 C5_2 1_555 1_555
N26 Zn1 1_555 1_555
N8_2 C24_2 1_555 1_555
C25_2 N8_2 1_555 1_555
N9_2 C25_2 1_555 1_555
C26_2 N9_2 1_555 1_555
N10_2 C24_2 1_555 1_555
H18_2 C28_2 1_555 1_555
N26 C32_2 1_555 1_555
C32_2 H21_2 1_555 1_555
C33_2 C32_2 1_555 1_555
H22_2 C33_2 1_555 1_555
C34_2 C26_2 1_555 1_555
C35_2 C34_2 1_555 1_555
H23_2 C35_2 1_555 1_555
C36_2 N26 1_555 1_555
H24_2 C36_2 1_555 1_555
C26_2 N10_2 1_555 1_555
C33_2 C34_2 1_555 1_555
C35_2 C36_2 1_555 1_555
Zn3_2 N11_2 1_555 1_555
I5_2 Zn3_2 1_555 1_555
N13_2 Zn3_2 1_555 1_555
C37_2 N13_2 1_555 1_555
H27_2 C40_2 1_555 1_555
C41_2 N13_2 1_555 1_555
H28_2 C41_2 1_555 1_555
N18_2 C50_2 1_555 1_555
C50_2 H33_2 1_555 1_555
C51_2 C50_2 1_555 1_555
H34_2 C51_2 1_555 1_555
C54_2 N18_2 1_555 1_555
Zn5_2 N18_2 1_555 1_555
I9_2 Zn5_2 1_555 1_555
I10_2 Zn5_2 1_555 1_555
N19_2 Zn5_2 1_555 1_555
C40_2 C41_2 1_555 1_555
H13_2 C19_2 1_555 1_555
C20_2 C19_2 1_555 1_555
H14_2 C20_2 1_555 1_555
H2_2 C2_2 1_555 1_555
C3_2 C2_2 1_555 1_555
C4_2 C3_2 1_555 1_555
H3_2 C4_2 1_555 1_555
C6_2 C3_2 1_555 1_555
N2_2 C6_2 1_555 1_555
C7_2 N2_2 1_555 1_555
N3_2 C7_2 1_555 1_555
C8_2 N3_2 1_555 1_555
N4_2 C6_2 1_555 1_555
N5 C9_2 1_555 1_555
C9_2 H5_2 1_555 1_555
C10_2 C9_2 1_555 1_555
H6_2 C10_2 1_555 1_555
C11_2 C7_2 1_555 1_555
C12_2 C11_2 1_555 1_555
H7_2 C12_2 1_555 1_555
C13_2 N5 1_555 1_555
H8_2 C13_2 1_555 1_555
N6_2 C14_2 1_555 1_555
C14_2 H9_2 1_555 1_555
C15_2 C14_2 1_555 1_555
H10_2 C15_2 1_555 1_555
C16_2 C8_2 1_555 1_555
C17_2 C16_2 1_555 1_555
H11_2 C17_2 1_555 1_555
C18_2 N6_2 1_555 1_555
H12_2 C18_2 1_555 1_555
Zn2_2 N6_2 1_555 1_555
I4_2 Zn2_2 1_555 1_555
N7_2 Zn2_2 1_555 1_555
C22_2 C21_2 1_555 1_555
C23_2 N7_2 1_555 1_555
H16_2 C23_2 1_555 1_555
Zn9 N5 1_555 1_555
C8_2 N4_2 1_555 1_555
C10_2 C11_2 1_555 1_555
C12_2 C13_2 1_555 1_555
C15_2 C16_2 1_555 1_555
C17_2 C18_2 1_555 1_555
C22_2 C23_2 1_555 1_555
C27_2 H17_2 1_555 1_555
C30_2 C29_2 1_555 1_555
H26_2 C38_2 1_555 1_555
C39_2 C38_2 1_555 1_555
C42_2 C39_2 1_555 1_555
N14_2 C42_2 1_555 1_555
C43_2 N14_2 1_555 1_555
N15_2 C43_2 1_555 1_555
C44_2 N15_2 1_555 1_555
N16_2 C42_2 1_555 1_555
N17_2 C45_2 1_555 1_555
C45_2 H29_2 1_555 1_555
C46_2 C45_2 1_555 1_555
H30_2 C46_2 1_555 1_555
C47_2 C43_2 1_555 1_555
C48_2 C47_2 1_555 1_555
H31_2 C48_2 1_555 1_555
C49_2 N17_2 1_555 1_555
H32_2 C49_2 1_555 1_555
Zn4 N17_2 1_555 1_555
I7_2 Zn4 1_555 1_555
I8_2 Zn4 1_555 1_555
C52_2 C44_2 1_555 1_555
C53_2 C52_2 1_555 1_555
H35_2 C53_2 1_555 1_555
C56_2 C55_2 1_555 1_555
H38_2 C56_2 1_555 1_555
C57_2 C56_2 1_555 1_555
C58_2 C57_2 1_555 1_555
H39_2 C58_2 1_555 1_555
H40_2 C59_2 1_555 1_555
C60_2 C57_2 1_555 1_555
N20_2 C60_2 1_555 1_555
C61_2 N20_2 1_555 1_555
N21_2 C61_2 1_555 1_555
C62_2 N21_2 1_555 1_555
N22_2 C60_2 1_555 1_555
N23_2 C63_2 1_555 1_555
C63_2 H41_2 1_555 1_555
C64_2 C63_2 1_555 1_555
H42_2 C64_2 1_555 1_555
C65_2 C61_2 1_555 1_555
C66_2 C65_2 1_555 1_555
H43_2 C66_2 1_555 1_555
C67_2 N23_2 1_555 1_555
H44_2 C67_2 1_555 1_555
N27 C68_2 1_555 1_555
C68_2 H45_2 1_555 1_555
C69_2 C68_2 1_555 1_555
H46_2 C69_2 1_555 1_555
C70_2 C62_2 1_555 1_555
C71_2 C70_2 1_555 1_555
H47_2 C71_2 1_555 1_555
C72_2 N27 1_555 1_555
Zn9 N23_2 1_555 1_555
I11_2 Zn9 1_555 1_555
I12_2 Zn9 1_555 1_555
C30_2 C31_2 1_555 1_555
C44_2 N16_2 1_555 1_555
C46_2 C47_2 1_555 1_555
C48_2 C49_2 1_555 1_555
C58_2 C59_2 1_555 1_555
C62_2 N22_2 1_555 1_555
C64_2 C65_2 1_555 1_555
C66_2 C67_2 1_555 1_555
C69_2 C70_2 1_555 1_555
C71_2 C72_2 1_555 1_555

#END
