
###############################################################################
#
# This file contains modified crystal structure data generated from the
# MOF subset of the Cambridge Structural Database (CSD) v543 
# hosted by the Cambridge Crystallographic Data Centre (CCDC).
#
# This work is licensed under the Creative Commons
# Attribution-NonCommercial-ShareAlike 4.0 International License.
# To view a copy of this license, visit
# http://creativecommons.org/licenses/by-nc-sa/4.0/
# or send a letter to
# Creative Commons, PO Box 1866, Mountain View, CA 94042, USA.
#
# CIF created using the CSD Python API on 29 September 2022
# The structure has been converted into the P1 space group
# The structure has a 3D framework
# The original CSD entry REXDUV is in the monoclinic crystal system
# The framework has been calculated to contain at least 10.0% void space
# The void calculation uses a probe of radius 1.32A, grid spacing 0.4
#
###############################################################################

data_REXDUV
_chemical_formula_moiety         '(C288 H192 I48 N92 Zn24)n'
_symmetry_cell_setting           triclinic
_symmetry_space_group_name_H-M   'P 1'
_symmetry_Int_Tables_number      1
_space_group_name_Hall           'P 1'
loop_
_symmetry_equiv_pos_site_id
_symmetry_equiv_pos_as_xyz
1 x,y,z
_cell_length_a                   34.847(4)
_cell_length_b                   14.7560(16)
_cell_length_c                   30.740(4)
_cell_angle_alpha                90
_cell_angle_beta                 102.007(2)
_cell_angle_gamma                90
_cell_volume                     15460.8
loop_
_atom_site_label
_atom_site_type_symbol
_atom_site_fract_x
_atom_site_fract_y
_atom_site_fract_z
Zn1 Zn 0.41515(3) 0.12667(5) 0.40891(3)
I1 I 0.47282(2) 0.15121(5) 0.37122(3)
I2 I 0.37774(3) 0.23866(4) 0.44523(2)
Zn2 Zn 0.12338(3) 0.10169(6) 0.05980(3)
I4 I 0.10733(3) 0.24371(4) 0.09798(4)
N1 N 0.37733(19) 0.0590(4) 0.3592(2)
C1 C 0.3453(2) 0.0966(4) 0.3336(2)
H1 H 0.3382 0.1565 0.3401
C2 C 0.3228(2) 0.0526(4) 0.2989(2)
H2 H 0.3006 0.0819 0.2814
N2 N 0.16729(18) 0.0370(4) 0.1038(2)
C9 C 0.2157(2) 0.0363(5) 0.1693(3)
H7 H 0.2285 0.0671 0.1954
C10 C 0.1870(3) 0.0770(5) 0.1410(3)
H8 H 0.1801 0.1372 0.1473
N13 N 0.4285(2) 0.0200(4) 0.4528(2)
N14 N 0.07706(19) 0.0161(4) 0.0569(2)
C29 C 0.0596(4) 0.0119(9) 0.0908(4)
H21 H 0.0691 0.0510 0.1152
H20 H 0.3823 0.0366 0.4790
I3 I 0.14348(2) 0.09463(6) 0.98653(3)
Zn3 Zn 0.32673(3) 0.35818(5) 0.23091(3)
I5 I 0.264636(19) 0.26775(3) 0.20532(2)
I6 I 0.36990(2) 0.34092(4) 0.307868(19)
C3 C 0.3323(2) 0.9637(4) 0.2888(2)
C4 C 0.3640(3) 0.9245(5) 0.3155(3)
H3 H 0.3709 0.8635 0.3110
C5 C 0.3858(3) 0.9751(5) 0.3492(4)
H4 H 0.4086 0.9480 0.3666
C6 C 0.1778(2) 0.9524(5) 0.0959(3)
H5 H 0.1642 0.9233 0.0696
C7 C 0.2066(2) 0.9056(4) 0.1230(2)
H6 H 0.2124 0.8450 0.1163
C8 C 0.2273(2) 0.9481(4) 0.1610(2)
N3 N 0.31523(19) 0.4962(4) 0.2218(2)
C11 C 0.3398(3) 0.5536(5) 0.2473(3)
H9 H 0.3619 0.5297 0.2674
C12 C 0.3344(3) 0.6449(5) 0.2456(4)
H10 H 0.3520 0.6835 0.2649
C13 C 0.3028(2) 0.6811(4) 0.2156(2)
C14 C 0.2788(2) 0.6220(4) 0.1891(3)
H11 H 0.2574 0.6440 0.1673
C15 C 0.2854(2) 0.5293(4) 0.1940(3)
H12 H 0.2674 0.4888 0.1764
C16 C 0.3086(2) 0.9121(4) 0.2523(2)
N4 N 0.27860(17) 0.9548(3) 0.22585(19)
C17 C 0.2589(2) 0.9035(4) 0.1928(2)
N5 N 0.26623(17) 0.8143(3) 0.18570(19)
C18 C 0.2953(2) 0.7794(4) 0.2163(2)
N6 N 0.31920(17) 0.8260(3) 0.24849(19)
N7 N 0.36043(19) 0.3376(4) 0.1850(2)
C19 C 0.3492(3) 0.2824(6) 0.1500(3)
H13 H 0.3241 0.2547 0.1458
C20 C 0.3723(3) 0.2642(5) 0.1200(3)
H14 H 0.3638 0.2227 0.0964
C21 C 0.4086(2) 0.3080(4) 0.1250(2)
C22 C 0.4194(3) 0.3697(7) 0.1595(3)
H15 H 0.4434 0.4022 0.1639
C23 C 0.3930(3) 0.3808(8) 0.1870(4)
H16 H 0.3995 0.4250 0.2098
C26 C 0.4410(2) 0.1315(5) 0.0070(2)
C27 C 0.4083(3) 0.0776(7) 0.0055(3)
H19 H 0.3893 0.0923 0.0225
N9 N 0.57706(19) 0.5161(4) 0.0569(2)
C29_2 C 0.5596(4) 0.5119(9) 0.0908(4)
H21_2 H 0.5691 0.5510 0.1152
C30 C 0.5284(4) 0.4550(9) 0.0940(4)
H22 H 0.5173 0.4533 0.1198
C31 C 0.5147(2) 0.4018(5) 0.0578(2)
C32 C 0.5326(3) 0.4028(5) 0.0220(3)
C33 C 0.5632(2) 0.4617(6) 0.0233(3)
C34 C 0.4331(2) 0.2945(5) 0.0916(2)
N10 N 0.42524(18) 0.2201(4) 0.0662(2)
C35 C 0.4482(2) 0.2131(5) 0.0355(2)
N11 N 0.47487(18) 0.2706(4) 0.02966(18)
C36 C 0.4810(2) 0.3396(5) 0.0601(3)
N12 N 0.46141(18) 0.3529(4) 0.0915(2)
Zn5 Zn 0.62338(3) 0.60169(6) 0.05980(3)
Zn1_2 Zn 0.91515(3) 0.62667(5) 0.40891(3)
I1_2 I 0.97282(2) 0.65121(5) 0.37122(3)
I2_2 I 0.87774(3) 0.73866(4) 0.44523(2)
I4_2 I 0.60733(3) 0.74371(4) 0.09798(4)
N1_2 N 0.87733(19) 0.5590(4) 0.3592(2)
C1_2 C 0.8453(2) 0.5966(4) 0.3336(2)
H1_2 H 0.8382 0.6565 0.3401
C2_2 C 0.8228(2) 0.5526(4) 0.2989(2)
H2_2 H 0.8006 0.5819 0.2814
C3_2 C 0.8323(2) 0.4637(4) 0.2888(2)
C4_2 C 0.8640(3) 0.4245(5) 0.3155(3)
H3_2 H 0.8709 0.3635 0.3110
C5_2 C 0.8858(3) 0.4751(5) 0.3492(4)
H4_2 H 0.9086 0.4480 0.3666
N2_2 N 0.66729(18) 0.5370(4) 0.1038(2)
C6_2 C 0.6778(2) 0.4524(5) 0.0959(3)
H5_2 H 0.6642 0.4233 0.0696
C7_2 C 0.7066(2) 0.4056(4) 0.1230(2)
H6_2 H 0.7124 0.3450 0.1163
C8_2 C 0.7273(2) 0.4481(4) 0.1610(2)
C9_2 C 0.7157(2) 0.5363(5) 0.1693(3)
H7_2 H 0.7285 0.5671 0.1954
C10_2 C 0.6870(3) 0.5770(5) 0.1410(3)
H8_2 H 0.6801 0.6372 0.1473
C11_2 C 0.8398(3) 0.0536(5) 0.2473(3)
H9_2 H 0.8619 0.0297 0.2674
C12_2 C 0.8344(3) 0.1449(5) 0.2456(4)
H10_2 H 0.8520 0.1835 0.2649
C13_2 C 0.8028(2) 0.1811(4) 0.2156(2)
C14_2 C 0.7788(2) 0.1220(4) 0.1891(3)
H11_2 H 0.7574 0.1440 0.1673
C15_2 C 0.7854(2) 0.0293(4) 0.1940(3)
C16_2 C 0.8086(2) 0.4121(4) 0.2523(2)
N4_2 N 0.77860(17) 0.4548(3) 0.22585(19)
C17_2 C 0.7589(2) 0.4035(4) 0.1928(2)
N5_2 N 0.76623(17) 0.3143(3) 0.18570(19)
C18_2 C 0.7953(2) 0.2794(4) 0.2163(2)
N6_2 N 0.81920(17) 0.3260(3) 0.24849(19)
N13_2 N 0.9285(2) 0.5200(4) 0.4528(2)
Zn3_2 Zn 0.82673(3) 0.14182(5) 0.73091(3)
I5_2 I 0.764636(19) 0.23225(3) 0.70532(2)
I6_2 I 0.86990(2) 0.15908(4) 0.807868(19)
N3_2 N 0.81523(19) 0.0038(4) 0.7218(2)
H12_2 H 0.7674 0.0112 0.6764
N7_2 N 0.86043(19) 0.1624(4) 0.6850(2)
C19_2 C 0.8492(3) 0.2176(6) 0.6500(3)
H13_2 H 0.8241 0.2453 0.6458
C20_2 C 0.8723(3) 0.2358(5) 0.6200(3)
H14_2 H 0.8638 0.2773 0.5964
C21_2 C 0.9086(2) 0.1920(4) 0.6250(2)
C22_2 C 0.9194(3) 0.1303(7) 0.6595(3)
H15_2 H 0.9434 0.0978 0.6639
C23_2 C 0.8930(3) 0.1192(8) 0.6870(4)
H16_2 H 0.8995 0.0750 0.7098
C24 C 0.9607(2) 0.4670(5) 0.4548(2)
H17 H 0.9791 0.4820 0.4370
C25 C 0.9672(2) 0.3934(5) 0.4816(2)
H18 H 0.9903 0.3584 0.4828
C26_2 C 0.9410(2) 0.3685(5) 0.5070(2)
C27_2 C 0.9083(3) 0.4224(7) 0.5055(3)
H19_2 H 0.8893 0.4077 0.5225
C28 C 0.9040(3) 0.4979(6) 0.4788(4)
H20_2 H 0.8823 0.5366 0.4790
C34_2 C 0.9331(2) 0.2055(5) 0.5916(2)
N10_2 N 0.92524(18) 0.2799(4) 0.5662(2)
C35_2 C 0.9482(2) 0.2869(5) 0.5355(2)
N11_2 N 0.97487(18) 0.2294(4) 0.52966(18)
C36_2 C 0.9810(2) 0.1604(5) 0.5601(3)
N12_2 N 0.96141(18) 0.1471(4) 0.5915(2)
C24_2 C 0.4607(2) 0.0330(5) 0.9548(2)
H17_2 H 0.4791 0.0180 0.9370
C25_2 C 0.4672(2) 0.1066(5) 0.9816(2)
H18_2 H 0.4903 0.1416 0.9828
C28_2 C 0.4040(3) 0.0021(6) 0.9788(4)
H23 H 0.5240 0.3641 0.9972
H24 H 0.5752 0.4634 0.9982
N8 N 0.4285(2) 0.9800(4) 0.9528(2)
H20_3 H 0.3823 0.9634 0.9790
Zn4 Zn 0.41515(3) 0.87333(5) 0.90891(3)
I1_3 I 0.47282(2) 0.84879(5) 0.87122(3)
I2_3 I 0.37774(3) 0.76134(4) 0.94523(2)
Zn2_2 Zn 0.12338(3) 0.89831(6) 0.55980(3)
I3_2 I 0.14348(2) 0.90537(6) 0.48653(3)
I4_3 I 0.10733(3) 0.75629(4) 0.59798(4)
N1_3 N 0.37733(19) 0.9410(4) 0.8592(2)
C1_3 C 0.3453(2) 0.9034(4) 0.8336(2)
H1_3 H 0.3382 0.8435 0.8401
C2_3 C 0.3228(2) 0.9474(4) 0.7989(2)
H2_3 H 0.3006 0.9181 0.7814
N2_3 N 0.16729(18) 0.9630(4) 0.6038(2)
C9_3 C 0.2157(2) 0.9637(5) 0.6693(3)
H7_3 H 0.2285 0.9329 0.6954
C10_3 C 0.1870(3) 0.9230(5) 0.6410(3)
H8_3 H 0.1801 0.8628 0.6473
N14_2 N 0.07706(19) 0.9839(4) 0.5569(2)
C29_3 C 0.0596(4) 0.9881(9) 0.5908(4)
H21_3 H 0.0691 0.9490 0.6152
Zn1_3 Zn 0.58485(3) 0.12667(5) 0.09109(3)
I1_4 I 0.52718(2) 0.15121(5) 0.12878(3)
I2_4 I 0.62226(3) 0.23866(4) 0.05477(2)
Zn2_3 Zn 0.87662(3) 0.10169(6) 0.44020(3)
I3_3 I 0.85652(2) 0.09463(6) 0.51347(3)
I4_4 I 0.89267(3) 0.24371(4) 0.40202(4)
N1_4 N 0.62267(19) 0.0590(4) 0.1408(2)
C1_4 C 0.6547(2) 0.0966(4) 0.1664(2)
H1_4 H 0.6618 0.1565 0.1599
C2_4 C 0.6772(2) 0.0526(4) 0.2011(2)
H2_4 H 0.6994 0.0819 0.2186
N2_4 N 0.83271(18) 0.0370(4) 0.3962(2)
C9_4 C 0.7843(2) 0.0363(5) 0.3307(3)
H7_4 H 0.7715 0.0671 0.3046
C10_4 C 0.8130(3) 0.0770(5) 0.3590(3)
H8_4 H 0.8199 0.1372 0.3527
N13_3 N 0.5715(2) 0.0200(4) 0.0472(2)
N14_3 N 0.92294(19) 0.0161(4) 0.4431(2)
C29_4 C 0.9404(4) 0.0119(9) 0.4092(4)
H21_4 H 0.9309 0.0510 0.3848
H20_4 H 0.6177 0.0366 0.0210
Zn3_3 Zn 0.67327(3) 0.35818(5) 0.26909(3)
I5_3 I 0.735364(19) 0.26775(3) 0.29468(2)
I6_3 I 0.63010(2) 0.34092(4) 0.192132(19)
C3_3 C 0.6677(2) 0.9637(4) 0.2112(2)
C4_3 C 0.6360(3) 0.9245(5) 0.1845(3)
H3_3 H 0.6291 0.8635 0.1890
C5_3 C 0.6142(3) 0.9751(5) 0.1508(4)
H4_3 H 0.5914 0.9480 0.1334
C6_3 C 0.8222(2) 0.9524(5) 0.4041(3)
H5_3 H 0.8358 0.9233 0.4304
C7_3 C 0.7934(2) 0.9056(4) 0.3770(2)
H6_3 H 0.7876 0.8450 0.3837
C8_3 C 0.7727(2) 0.9481(4) 0.3390(2)
N3_3 N 0.68477(19) 0.4962(4) 0.2782(2)
C11_3 C 0.6602(3) 0.5536(5) 0.2527(3)
H9_3 H 0.6381 0.5297 0.2326
C12_3 C 0.6656(3) 0.6449(5) 0.2544(4)
H10_3 H 0.6480 0.6835 0.2351
C13_3 C 0.6972(2) 0.6811(4) 0.2844(2)
C14_3 C 0.7212(2) 0.6220(4) 0.3109(3)
H11_3 H 0.7426 0.6440 0.3327
C15_3 C 0.7146(2) 0.5293(4) 0.3060(3)
H12_3 H 0.7326 0.4888 0.3236
C16_3 C 0.6914(2) 0.9121(4) 0.2477(2)
N4_3 N 0.72140(17) 0.9548(3) 0.27415(19)
C17_3 C 0.7411(2) 0.9035(4) 0.3072(2)
N5_3 N 0.73377(17) 0.8143(3) 0.31430(19)
C18_3 C 0.7047(2) 0.7794(4) 0.2837(2)
N6_3 N 0.68080(17) 0.8260(3) 0.25151(19)
N7_3 N 0.63957(19) 0.3376(4) 0.3150(2)
C19_3 C 0.6508(3) 0.2824(6) 0.3500(3)
H13_3 H 0.6759 0.2547 0.3542
C20_3 C 0.6277(3) 0.2642(5) 0.3800(3)
H14_3 H 0.6362 0.2227 0.4036
C21_3 C 0.5914(2) 0.3080(4) 0.3750(2)
C22_3 C 0.5806(3) 0.3697(7) 0.3405(3)
H15_3 H 0.5566 0.4022 0.3361
C23_3 C 0.6070(3) 0.3808(8) 0.3130(4)
H16_3 H 0.6005 0.4250 0.2902
C24_3 C 0.5393(2) 0.0330(5) 0.5452(2)
H17_3 H 0.5209 0.0180 0.5630
C25_3 C 0.5328(2) 0.1066(5) 0.5184(2)
H18_3 H 0.5097 0.1416 0.5172
C26_3 C 0.5590(2) 0.1315(5) 0.4930(2)
C27_3 C 0.5917(3) 0.0776(7) 0.4945(3)
H19_3 H 0.6107 0.0923 0.4775
C28_3 C 0.5960(3) 0.0021(6) 0.5212(4)
N9_2 N 0.42294(19) 0.5161(4) 0.4431(2)
C29_5 C 0.4404(4) 0.5119(9) 0.4092(4)
H21_5 H 0.4309 0.5510 0.3848
C30_2 C 0.4716(4) 0.4550(9) 0.4060(4)
H22_2 H 0.4827 0.4533 0.3802
C31_2 C 0.4853(2) 0.4018(5) 0.4422(2)
C32_2 C 0.4674(3) 0.4028(5) 0.4780(3)
H23_2 H 0.4760 0.3641 0.5028
C33_2 C 0.4368(2) 0.4617(6) 0.4767(3)
H24_2 H 0.4248 0.4634 0.5018
C34_3 C 0.5669(2) 0.2945(5) 0.4084(2)
N10_3 N 0.57476(18) 0.2201(4) 0.4338(2)
C35_3 C 0.5518(2) 0.2131(5) 0.4645(2)
N11_3 N 0.52513(18) 0.2706(4) 0.47034(18)
C36_3 C 0.5190(2) 0.3396(5) 0.4399(3)
N12_3 N 0.53859(18) 0.3529(4) 0.4085(2)
Zn5_2 Zn 0.37662(3) 0.60169(6) 0.44020(3)
Zn1_4 Zn 0.08485(3) 0.62667(5) 0.09109(3)
I1_5 I 0.02718(2) 0.65121(5) 0.12878(3)
I2_5 I 0.12226(3) 0.73866(4) 0.05477(2)
I3_4 I 0.35652(2) 0.59463(6) 0.51347(3)
I4_5 I 0.39267(3) 0.74371(4) 0.40202(4)
N1_5 N 0.12267(19) 0.5590(4) 0.1408(2)
C1_5 C 0.1547(2) 0.5966(4) 0.1664(2)
H1_5 H 0.1618 0.6565 0.1599
C2_5 C 0.1772(2) 0.5526(4) 0.2011(2)
H2_5 H 0.1994 0.5819 0.2186
C3_4 C 0.1677(2) 0.4637(4) 0.2112(2)
C4_4 C 0.1360(3) 0.4245(5) 0.1845(3)
H3_4 H 0.1291 0.3635 0.1890
C5_4 C 0.1142(3) 0.4751(5) 0.1508(4)
H4_4 H 0.0914 0.4480 0.1334
N2_5 N 0.33271(18) 0.5370(4) 0.3962(2)
C6_4 C 0.3222(2) 0.4524(5) 0.4041(3)
H5_4 H 0.3358 0.4233 0.4304
C7_4 C 0.2934(2) 0.4056(4) 0.3770(2)
H6_4 H 0.2876 0.3450 0.3837
C8_4 C 0.2727(2) 0.4481(4) 0.3390(2)
C9_5 C 0.2843(2) 0.5363(5) 0.3307(3)
H7_5 H 0.2715 0.5671 0.3046
C10_5 C 0.3130(3) 0.5770(5) 0.3590(3)
H8_5 H 0.3199 0.6372 0.3527
C11_4 C 0.1602(3) 0.0536(5) 0.2527(3)
H9_4 H 0.1381 0.0297 0.2326
C12_4 C 0.1656(3) 0.1449(5) 0.2544(4)
H10_4 H 0.1480 0.1835 0.2351
C13_4 C 0.1972(2) 0.1811(4) 0.2844(2)
C14_4 C 0.2212(2) 0.1220(4) 0.3109(3)
H11_4 H 0.2426 0.1440 0.3327
C15_4 C 0.2146(2) 0.0293(4) 0.3060(3)
C16_4 C 0.1914(2) 0.4121(4) 0.2477(2)
N4_4 N 0.22140(17) 0.4548(3) 0.27415(19)
C17_4 C 0.2411(2) 0.4035(4) 0.3072(2)
N5_4 N 0.23377(17) 0.3143(3) 0.31430(19)
C18_4 C 0.2047(2) 0.2794(4) 0.2837(2)
N6_4 N 0.18080(17) 0.3260(3) 0.25151(19)
N13_4 N 0.0715(2) 0.5200(4) 0.0472(2)
C24_4 C 0.0393(2) 0.4670(5) 0.0452(2)
H17_4 H 0.0209 0.4820 0.0630
C25_4 C 0.0328(2) 0.3934(5) 0.0184(2)
H18_4 H 0.0097 0.3584 0.0172
C28_4 C 0.0960(3) 0.4979(6) 0.0212(4)
H20_5 H 0.1177 0.5366 0.0210
N8_2 N 0.5715(2) 0.9800(4) 0.5472(2)
H20_6 H 0.6177 0.9634 0.5210
Zn4_2 Zn 0.58485(3) 0.87333(5) 0.59109(3)
I1_6 I 0.52718(2) 0.84879(5) 0.62878(3)
I2_6 I 0.62226(3) 0.76134(4) 0.55477(2)
Zn2_4 Zn 0.87662(3) 0.89831(6) 0.94020(3)
I4_6 I 0.89267(3) 0.75629(4) 0.90202(4)
N1_6 N 0.62267(19) 0.9410(4) 0.6408(2)
C1_6 C 0.6547(2) 0.9034(4) 0.6664(2)
H1_6 H 0.6618 0.8435 0.6599
C2_6 C 0.6772(2) 0.9474(4) 0.7011(2)
H2_6 H 0.6994 0.9181 0.7186
N2_6 N 0.83271(18) 0.9630(4) 0.8962(2)
C9_6 C 0.7843(2) 0.9637(5) 0.8307(3)
H7_6 H 0.7715 0.9329 0.8046
C10_6 C 0.8130(3) 0.9230(5) 0.8590(3)
H8_6 H 0.8199 0.8628 0.8527
N14_4 N 0.92294(19) 0.9839(4) 0.9431(2)
C29_6 C 0.9404(4) 0.9881(9) 0.9092(4)
H21_6 H 0.9309 0.9490 0.8848
C30_3 C 0.0284(4) 0.9550(9) 0.0940(4)
H22_3 H 0.0173 0.9533 0.1198
C31_3 C 0.0147(2) 0.9018(5) 0.0578(2)
C32_3 C 0.0326(3) 0.9028(5) 0.0220(3)
C33_3 C 0.0632(2) 0.9617(6) 0.0233(3)
H23_3 H 0.0240 0.8641 0.9972
H24_3 H 0.0752 0.9634 0.9982
I3_5 I 0.64348(2) 0.59463(6) 0.98653(3)
Zn3_4 Zn 0.82673(3) 0.85818(5) 0.23091(3)
I5_4 I 0.764636(19) 0.76775(3) 0.20532(2)
I6_4 I 0.86990(2) 0.84092(4) 0.307868(19)
N3_4 N 0.81523(19) 0.9962(4) 0.2218(2)
H12_4 H 0.7674 0.9888 0.1764
N7_4 N 0.86043(19) 0.8376(4) 0.1850(2)
C19_4 C 0.8492(3) 0.7824(6) 0.1500(3)
H13_4 H 0.8241 0.7547 0.1458
C20_4 C 0.8723(3) 0.7642(5) 0.1200(3)
H14_4 H 0.8638 0.7227 0.0964
C21_4 C 0.9086(2) 0.8080(4) 0.1250(2)
C22_4 C 0.9194(3) 0.8697(7) 0.1595(3)
H15_4 H 0.9434 0.9022 0.1639
C23_4 C 0.8930(3) 0.8808(8) 0.1870(4)
H16_4 H 0.8995 0.9250 0.2098
C26_4 C 0.9410(2) 0.6315(5) 0.0070(2)
C27_4 C 0.9083(3) 0.5776(7) 0.0055(3)
H19_4 H 0.8893 0.5923 0.0225
C34_4 C 0.9331(2) 0.7945(5) 0.0916(2)
N10_4 N 0.92524(18) 0.7201(4) 0.0662(2)
C35_4 C 0.9482(2) 0.7131(5) 0.0355(2)
N11_4 N 0.97487(18) 0.7706(4) 0.02966(18)
C36_4 C 0.9810(2) 0.8396(5) 0.0601(3)
N12_4 N 0.96141(18) 0.8529(4) 0.0915(2)
N8_3 N 0.9285(2) 0.4800(4) 0.9528(2)
C24_5 C 0.9607(2) 0.5330(5) 0.9548(2)
H17_5 H 0.9791 0.5180 0.9370
C25_5 C 0.9672(2) 0.6066(5) 0.9816(2)
H18_5 H 0.9903 0.6416 0.9828
C28_5 C 0.9040(3) 0.5021(6) 0.9788(4)
H20_7 H 0.8823 0.4634 0.9790
Zn4_3 Zn 0.91515(3) 0.37333(5) 0.90891(3)
Zn3_5 Zn 0.32673(3) 0.64182(5) 0.73091(3)
I5_5 I 0.264636(19) 0.73225(3) 0.70532(2)
I6_5 I 0.36990(2) 0.65908(4) 0.807868(19)
C3_5 C 0.3323(2) 0.0363(4) 0.7888(2)
C4_5 C 0.3640(3) 0.0755(5) 0.8155(3)
H3_5 H 0.3709 0.1365 0.8110
C5_5 C 0.3858(3) 0.0249(5) 0.8492(4)
H4_5 H 0.4086 0.0520 0.8666
C6_5 C 0.1778(2) 0.0476(5) 0.5959(3)
H5_5 H 0.1642 0.0767 0.5696
C7_5 C 0.2066(2) 0.0944(4) 0.6230(2)
H6_5 H 0.2124 0.1550 0.6163
C8_5 C 0.2273(2) 0.0519(4) 0.6610(2)
N3_5 N 0.31523(19) 0.5038(4) 0.7218(2)
C11_5 C 0.3398(3) 0.4464(5) 0.7473(3)
H9_5 H 0.3619 0.4703 0.7674
C12_5 C 0.3344(3) 0.3551(5) 0.7456(4)
H10_5 H 0.3520 0.3165 0.7649
C13_5 C 0.3028(2) 0.3189(4) 0.7156(2)
C14_5 C 0.2788(2) 0.3780(4) 0.6891(3)
H11_5 H 0.2574 0.3560 0.6673
C15_5 C 0.2854(2) 0.4707(4) 0.6940(3)
H12_5 H 0.2674 0.5112 0.6764
C16_5 C 0.3086(2) 0.0879(4) 0.7523(2)
N4_5 N 0.27860(17) 0.0452(3) 0.72585(19)
C17_5 C 0.2589(2) 0.0965(4) 0.6928(2)
N5_5 N 0.26623(17) 0.1857(3) 0.68570(19)
C18_5 C 0.2953(2) 0.2206(4) 0.7163(2)
N6_5 N 0.31920(17) 0.1740(3) 0.74849(19)
N7_5 N 0.36043(19) 0.6624(4) 0.6850(2)
C19_5 C 0.3492(3) 0.7176(6) 0.6500(3)
H13_5 H 0.3241 0.7453 0.6458
C20_5 C 0.3723(3) 0.7358(5) 0.6200(3)
H14_5 H 0.3638 0.7773 0.5964
C21_5 C 0.4086(2) 0.6920(4) 0.6250(2)
C22_5 C 0.4194(3) 0.6303(7) 0.6595(3)
H15_5 H 0.4434 0.5978 0.6639
C23_5 C 0.3930(3) 0.6192(8) 0.6870(4)
H16_5 H 0.3995 0.5750 0.7098
C24_6 C 0.4607(2) 0.9670(5) 0.4548(2)
H17_6 H 0.4791 0.9820 0.4370
C25_6 C 0.4672(2) 0.8934(5) 0.4816(2)
H18_6 H 0.4903 0.8584 0.4828
C26_5 C 0.4410(2) 0.8685(5) 0.5070(2)
C27_5 C 0.4083(3) 0.9224(7) 0.5055(3)
H19_5 H 0.3893 0.9077 0.5225
C28_6 C 0.4040(3) 0.9979(6) 0.4788(4)
N9_3 N 0.57706(19) 0.4839(4) 0.5569(2)
C29_7 C 0.5596(4) 0.4881(9) 0.5908(4)
H21_7 H 0.5691 0.4490 0.6152
C30_4 C 0.5284(4) 0.5450(9) 0.5940(4)
H22_4 H 0.5173 0.5467 0.6198
C31_4 C 0.5147(2) 0.5982(5) 0.5578(2)
C32_4 C 0.5326(3) 0.5972(5) 0.5220(3)
H23_4 H 0.5240 0.6359 0.4972
C33_4 C 0.5632(2) 0.5383(6) 0.5233(3)
H24_4 H 0.5752 0.5366 0.4982
C34_5 C 0.4331(2) 0.7055(5) 0.5916(2)
N10_5 N 0.42524(18) 0.7799(4) 0.5662(2)
C35_5 C 0.4482(2) 0.7869(5) 0.5355(2)
N11_5 N 0.47487(18) 0.7294(4) 0.52966(18)
C36_5 C 0.4810(2) 0.6604(5) 0.5601(3)
N12_5 N 0.46141(18) 0.6471(4) 0.5915(2)
Zn5_3 Zn 0.62338(3) 0.39831(6) 0.55980(3)
I1_7 I 0.97282(2) 0.34879(5) 0.87122(3)
I2_7 I 0.87774(3) 0.26134(4) 0.94523(2)
I3_6 I 0.64348(2) 0.40537(6) 0.48653(3)
I4_7 I 0.60733(3) 0.25629(4) 0.59798(4)
N1_7 N 0.87733(19) 0.4410(4) 0.8592(2)
C1_7 C 0.8453(2) 0.4034(4) 0.8336(2)
H1_7 H 0.8382 0.3435 0.8401
C2_7 C 0.8228(2) 0.4474(4) 0.7989(2)
H2_7 H 0.8006 0.4181 0.7814
C3_6 C 0.8323(2) 0.5363(4) 0.7888(2)
C4_6 C 0.8640(3) 0.5755(5) 0.8155(3)
H3_6 H 0.8709 0.6365 0.8110
C5_6 C 0.8858(3) 0.5249(5) 0.8492(4)
H4_6 H 0.9086 0.5520 0.8666
N2_7 N 0.66729(18) 0.4630(4) 0.6038(2)
C6_6 C 0.6778(2) 0.5476(5) 0.5959(3)
H5_6 H 0.6642 0.5767 0.5696
C7_6 C 0.7066(2) 0.5944(4) 0.6230(2)
H6_6 H 0.7124 0.6550 0.6163
C8_6 C 0.7273(2) 0.5519(4) 0.6610(2)
C9_7 C 0.7157(2) 0.4637(5) 0.6693(3)
H7_7 H 0.7285 0.4329 0.6954
C10_7 C 0.6870(3) 0.4230(5) 0.6410(3)
H8_7 H 0.6801 0.3628 0.6473
C11_6 C 0.8398(3) 0.9464(5) 0.7473(3)
H9_6 H 0.8619 0.9703 0.7674
C12_6 C 0.8344(3) 0.8551(5) 0.7456(4)
H10_6 H 0.8520 0.8165 0.7649
C13_6 C 0.8028(2) 0.8189(4) 0.7156(2)
C14_6 C 0.7788(2) 0.8780(4) 0.6891(3)
H11_6 H 0.7574 0.8560 0.6673
C15_6 C 0.7854(2) 0.9707(4) 0.6940(3)
C16_6 C 0.8086(2) 0.5879(4) 0.7523(2)
N4_6 N 0.77860(17) 0.5452(3) 0.72585(19)
C17_6 C 0.7589(2) 0.5965(4) 0.6928(2)
N5_6 N 0.76623(17) 0.6857(3) 0.68570(19)
C18_6 C 0.7953(2) 0.7206(4) 0.7163(2)
N6_6 N 0.81920(17) 0.6740(3) 0.74849(19)
Zn3_6 Zn 0.17327(3) 0.85818(5) 0.26909(3)
I5_6 I 0.235364(19) 0.76775(3) 0.29468(2)
I6_6 I 0.13010(2) 0.84092(4) 0.192132(19)
N3_6 N 0.18477(19) 0.9962(4) 0.2782(2)
H12_6 H 0.2326 0.9888 0.3236
N7_6 N 0.13957(19) 0.8376(4) 0.3150(2)
C19_6 C 0.1508(3) 0.7824(6) 0.3500(3)
H13_6 H 0.1759 0.7547 0.3542
C20_6 C 0.1277(3) 0.7642(5) 0.3800(3)
H14_6 H 0.1362 0.7227 0.4036
C21_6 C 0.0914(2) 0.8080(4) 0.3750(2)
C22_6 C 0.0806(3) 0.8697(7) 0.3405(3)
H15_6 H 0.0566 0.9022 0.3361
C23_6 C 0.1070(3) 0.8808(8) 0.3130(4)
H16_6 H 0.1005 0.9250 0.2902
N8_4 N 0.0715(2) 0.4800(4) 0.5472(2)
C24_7 C 0.0393(2) 0.5330(5) 0.5452(2)
H17_7 H 0.0209 0.5180 0.5630
C25_7 C 0.0328(2) 0.6066(5) 0.5184(2)
H18_7 H 0.0097 0.6416 0.5172
C26_6 C 0.0590(2) 0.6315(5) 0.4930(2)
C27_6 C 0.0917(3) 0.5776(7) 0.4945(3)
H19_6 H 0.1107 0.5923 0.4775
C28_7 C 0.0960(3) 0.5021(6) 0.5212(4)
H20_8 H 0.1177 0.4634 0.5210
C34_6 C 0.0669(2) 0.7945(5) 0.4084(2)
N10_6 N 0.07476(18) 0.7201(4) 0.4338(2)
C35_6 C 0.0518(2) 0.7131(5) 0.4645(2)
N11_6 N 0.02513(18) 0.7706(4) 0.47034(18)
C36_6 C 0.0190(2) 0.8396(5) 0.4399(3)
N12_6 N 0.03859(18) 0.8529(4) 0.4085(2)
Zn4_4 Zn 0.08485(3) 0.37333(5) 0.59109(3)
Zn3_7 Zn 0.67327(3) 0.64182(5) 0.76909(3)
I5_7 I 0.735364(19) 0.73225(3) 0.79468(2)
I6_7 I 0.63010(2) 0.65908(4) 0.692132(19)
C3_7 C 0.6677(2) 0.0363(4) 0.7112(2)
C4_7 C 0.6360(3) 0.0755(5) 0.6845(3)
H3_7 H 0.6291 0.1365 0.6890
C5_7 C 0.6142(3) 0.0249(5) 0.6508(4)
H4_7 H 0.5914 0.0520 0.6334
C6_7 C 0.8222(2) 0.0476(5) 0.9041(3)
H5_7 H 0.8358 0.0767 0.9304
C7_7 C 0.7934(2) 0.0944(4) 0.8770(2)
H6_7 H 0.7876 0.1550 0.8837
C8_7 C 0.7727(2) 0.0519(4) 0.8390(2)
N3_7 N 0.68477(19) 0.5038(4) 0.7782(2)
C11_7 C 0.6602(3) 0.4464(5) 0.7527(3)
H9_7 H 0.6381 0.4703 0.7326
C12_7 C 0.6656(3) 0.3551(5) 0.7544(4)
H10_7 H 0.6480 0.3165 0.7351
C13_7 C 0.6972(2) 0.3189(4) 0.7844(2)
C14_7 C 0.7212(2) 0.3780(4) 0.8109(3)
H11_7 H 0.7426 0.3560 0.8327
C15_7 C 0.7146(2) 0.4707(4) 0.8060(3)
H12_7 H 0.7326 0.5112 0.8236
C16_7 C 0.6914(2) 0.0879(4) 0.7477(2)
N4_7 N 0.72140(17) 0.0452(3) 0.77415(19)
C17_7 C 0.7411(2) 0.0965(4) 0.8072(2)
N5_7 N 0.73377(17) 0.1857(3) 0.81430(19)
C18_7 C 0.7047(2) 0.2206(4) 0.7837(2)
N6_7 N 0.68080(17) 0.1740(3) 0.75151(19)
N7_7 N 0.63957(19) 0.6624(4) 0.8150(2)
C19_7 C 0.6508(3) 0.7176(6) 0.8500(3)
H13_7 H 0.6759 0.7453 0.8542
C20_7 C 0.6277(3) 0.7358(5) 0.8800(3)
H14_7 H 0.6362 0.7773 0.9036
C21_7 C 0.5914(2) 0.6920(4) 0.8750(2)
C22_7 C 0.5806(3) 0.6303(7) 0.8405(3)
H15_7 H 0.5566 0.5978 0.8361
C23_7 C 0.6070(3) 0.6192(8) 0.8130(4)
H16_7 H 0.6005 0.5750 0.7902
C26_7 C 0.5590(2) 0.8685(5) 0.9930(2)
C27_7 C 0.5917(3) 0.9224(7) 0.9945(3)
H19_7 H 0.6107 0.9077 0.9775
N9_4 N 0.42294(19) 0.4839(4) 0.9431(2)
C29_8 C 0.4404(4) 0.4881(9) 0.9092(4)
H21_8 H 0.4309 0.4490 0.8848
C30_5 C 0.4716(4) 0.5450(9) 0.9060(4)
H22_5 H 0.4827 0.5467 0.8802
C31_5 C 0.4853(2) 0.5982(5) 0.9422(2)
C32_5 C 0.4674(3) 0.5972(5) 0.9780(3)
C33_5 C 0.4368(2) 0.5383(6) 0.9767(3)
C34_7 C 0.5669(2) 0.7055(5) 0.9084(2)
N10_7 N 0.57476(18) 0.7799(4) 0.9338(2)
C35_7 C 0.5518(2) 0.7869(5) 0.9645(2)
N11_7 N 0.52513(18) 0.7294(4) 0.97034(18)
C36_7 C 0.5190(2) 0.6604(5) 0.9399(3)
N12_7 N 0.53859(18) 0.6471(4) 0.9085(2)
Zn5_4 Zn 0.37662(3) 0.39831(6) 0.94020(3)
I1_8 I 0.02718(2) 0.34879(5) 0.62878(3)
I2_8 I 0.12226(3) 0.26134(4) 0.55477(2)
I4_8 I 0.39267(3) 0.25629(4) 0.90202(4)
N1_8 N 0.12267(19) 0.4410(4) 0.6408(2)
C1_8 C 0.1547(2) 0.4034(4) 0.6664(2)
H1_8 H 0.1618 0.3435 0.6599
C2_8 C 0.1772(2) 0.4474(4) 0.7011(2)
H2_8 H 0.1994 0.4181 0.7186
C3_8 C 0.1677(2) 0.5363(4) 0.7112(2)
C4_8 C 0.1360(3) 0.5755(5) 0.6845(3)
H3_8 H 0.1291 0.6365 0.6890
C5_8 C 0.1142(3) 0.5249(5) 0.6508(4)
H4_8 H 0.0914 0.5520 0.6334
N2_8 N 0.33271(18) 0.4630(4) 0.8962(2)
C6_8 C 0.3222(2) 0.5476(5) 0.9041(3)
H5_8 H 0.3358 0.5767 0.9304
C7_8 C 0.2934(2) 0.5944(4) 0.8770(2)
H6_8 H 0.2876 0.6550 0.8837
C8_8 C 0.2727(2) 0.5519(4) 0.8390(2)
C9_8 C 0.2843(2) 0.4637(5) 0.8307(3)
H7_8 H 0.2715 0.4329 0.8046
C10_8 C 0.3130(3) 0.4230(5) 0.8590(3)
H8_8 H 0.3199 0.3628 0.8527
C11_8 C 0.1602(3) 0.9464(5) 0.7527(3)
H9_8 H 0.1381 0.9703 0.7326
C12_8 C 0.1656(3) 0.8551(5) 0.7544(4)
H10_8 H 0.1480 0.8165 0.7351
C13_8 C 0.1972(2) 0.8189(4) 0.7844(2)
C14_8 C 0.2212(2) 0.8780(4) 0.8109(3)
H11_8 H 0.2426 0.8560 0.8327
C15_8 C 0.2146(2) 0.9707(4) 0.8060(3)
C16_8 C 0.1914(2) 0.5879(4) 0.7477(2)
N4_8 N 0.22140(17) 0.5452(3) 0.77415(19)
C17_8 C 0.2411(2) 0.5965(4) 0.8072(2)
N5_8 N 0.23377(17) 0.6857(3) 0.81430(19)
C18_8 C 0.2047(2) 0.7206(4) 0.7837(2)
N6_8 N 0.18080(17) 0.6740(3) 0.75151(19)
C30_6 C 0.9716(4) 0.9550(9) 0.4060(4)
H22_6 H 0.9827 0.9533 0.3802
C31_6 C 0.9853(2) 0.9018(5) 0.4422(2)
C32_6 C 0.9674(3) 0.9028(5) 0.4780(3)
H23_5 H 0.9760 0.8641 0.5028
C33_6 C 0.9368(2) 0.9617(6) 0.4767(3)
H24_5 H 0.9248 0.9634 0.5018
C24_8 C 0.5393(2) 0.9670(5) 0.0452(2)
H17_8 H 0.5209 0.9820 0.0630
C25_8 C 0.5328(2) 0.8934(5) 0.0184(2)
H18_8 H 0.5097 0.8584 0.0172
C28_8 C 0.5960(3) 0.9979(6) 0.0212(4)
H23_6 H 0.4760 0.6359 0.0028
H24_6 H 0.4248 0.5366 0.0018
I3_7 I 0.85652(2) 0.90537(6) 0.01347(3)
Zn3_8 Zn 0.17327(3) 0.14182(5) 0.76909(3)
I5_8 I 0.235364(19) 0.23225(3) 0.79468(2)
I6_8 I 0.13010(2) 0.15908(4) 0.692132(19)
N3_8 N 0.18477(19) 0.0038(4) 0.7782(2)
H12_8 H 0.2326 0.0112 0.8236
N7_8 N 0.13957(19) 0.1624(4) 0.8150(2)
C19_8 C 0.1508(3) 0.2176(6) 0.8500(3)
H13_8 H 0.1759 0.2453 0.8542
C20_8 C 0.1277(3) 0.2358(5) 0.8800(3)
H14_8 H 0.1362 0.2773 0.9036
C21_8 C 0.0914(2) 0.1920(4) 0.8750(2)
C22_8 C 0.0806(3) 0.1303(7) 0.8405(3)
H15_8 H 0.0566 0.0978 0.8361
C23_8 C 0.1070(3) 0.1192(8) 0.8130(4)
H16_8 H 0.1005 0.0750 0.7902
C26_8 C 0.0590(2) 0.3685(5) 0.9930(2)
C27_8 C 0.0917(3) 0.4224(7) 0.9945(3)
H19_8 H 0.1107 0.4077 0.9775
C34_8 C 0.0669(2) 0.2055(5) 0.9084(2)
N10_8 N 0.07476(18) 0.2799(4) 0.9338(2)
C35_8 C 0.0518(2) 0.2869(5) 0.9645(2)
N11_8 N 0.02513(18) 0.2294(4) 0.97034(18)
C36_8 C 0.0190(2) 0.1604(5) 0.9399(3)
N12_8 N 0.03859(18) 0.1471(4) 0.9085(2)
I3_8 I 0.35652(2) 0.40537(6) 0.01347(3)
H23_7 H 0.9760 0.1359 0.0028
H24_7 H 0.9248 0.0366 0.0018
C30_7 C 0.9716(4) 0.0450(9) 0.9060(4)
H22_7 H 0.9827 0.0467 0.8802
C31_7 C 0.9853(2) 0.0982(5) 0.9422(2)
C32_7 C 0.9674(3) 0.0972(5) 0.9780(3)
C33_7 C 0.9368(2) 0.0383(6) 0.9767(3)
C30_8 C 0.0284(4) 0.0450(9) 0.5940(4)
H22_8 H 0.0173 0.0467 0.6198
C31_8 C 0.0147(2) 0.0982(5) 0.5578(2)
C32_8 C 0.0326(3) 0.0972(5) 0.5220(3)
H23_8 H 0.0240 0.1359 0.4972
C33_8 C 0.0632(2) 0.0383(6) 0.5233(3)
H24_8 H 0.0752 0.0366 0.4982
loop_
_geom_bond_atom_site_label_1
_geom_bond_atom_site_label_2
_geom_bond_site_symmetry_1
_geom_bond_site_symmetry_2
Zn1 I1 1_555 1_555
I2 Zn1 1_555 1_555
I4 Zn2 1_555 1_555
N1 Zn1 1_555 1_555
C1 N1 1_555 1_555
H1 C1 1_555 1_555
C2 C1 1_555 1_555
H2 C2 1_555 1_555
N2 Zn2 1_555 1_555
H7 C9 1_555 1_555
C10 N2 1_555 1_555
H8 C10 1_555 1_555
N13 Zn1 1_555 1_555
N14 Zn2 1_555 1_555
C9 C10 1_555 1_555
N14 C29 1_555 1_555
C29 H21 1_555 1_555
Zn3 I5 1_555 1_555
I6 Zn3 1_555 1_555
C4 C3 1_555 1_555
H3 C4 1_555 1_555
H4 C5 1_555 1_555
H5 C6 1_555 1_555
C7 C6 1_555 1_555
H6 C7 1_555 1_555
C8 C7 1_555 1_555
N3 Zn3 1_555 1_555
C11 N3 1_555 1_555
H9 C11 1_555 1_555
C12 C11 1_555 1_555
H10 C12 1_555 1_555
C13 C12 1_555 1_555
C14 C13 1_555 1_555
H11 C14 1_555 1_555
C15 N3 1_555 1_555
H12 C15 1_555 1_555
C16 C3 1_555 1_555
N4 C16 1_555 1_555
C17 C8 1_555 1_555
N5 C17 1_555 1_555
C18 C13 1_555 1_555
N6 C16 1_555 1_555
N7 Zn3 1_555 1_555
C19 N7 1_555 1_555
H13 C19 1_555 1_555
C20 C19 1_555 1_555
H14 C20 1_555 1_555
C21 C20 1_555 1_555
C22 C21 1_555 1_555
H15 C22 1_555 1_555
C23 N7 1_555 1_555
H16 C23 1_555 1_555
C27 C26 1_555 1_555
H19 C27 1_555 1_555
N9 C29_2 1_555 1_555
C29_2 H21_2 1_555 1_555
C30 C29_2 1_555 1_555
H22 C30 1_555 1_555
C31 C30 1_555 1_555
C32 C31 1_555 1_555
C33 N9 1_555 1_555
C34 C21 1_555 1_555
N10 C34 1_555 1_555
C35 C26 1_555 1_555
N11 C35 1_555 1_555
C36 C31 1_555 1_555
N12 C34 1_555 1_555
Zn5 N9 1_555 1_555
C4 C5 1_555 1_555
C14 C15 1_555 1_555
N4 C17 1_555 1_555
N5 C18 1_555 1_555
C18 N6 1_555 1_555
C22 C23 1_555 1_555
C32 C33 1_555 1_555
N10 C35 1_555 1_555
N11 C36 1_555 1_555
C36 N12 1_555 1_555
Zn1_2 I1_2 1_555 1_555
I2_2 Zn1_2 1_555 1_555
I4_2 Zn5 1_555 1_555
N1_2 Zn1_2 1_555 1_555
C1_2 N1_2 1_555 1_555
H1_2 C1_2 1_555 1_555
C2_2 C1_2 1_555 1_555
H2_2 C2_2 1_555 1_555
C3_2 C2_2 1_555 1_555
C4_2 C3_2 1_555 1_555
H3_2 C4_2 1_555 1_555
C5_2 N1_2 1_555 1_555
H4_2 C5_2 1_555 1_555
N2_2 Zn5 1_555 1_555
C6_2 N2_2 1_555 1_555
H5_2 C6_2 1_555 1_555
C7_2 C6_2 1_555 1_555
H6_2 C7_2 1_555 1_555
C8_2 C7_2 1_555 1_555
C9_2 C8_2 1_555 1_555
H7_2 C9_2 1_555 1_555
C10_2 N2_2 1_555 1_555
H8_2 C10_2 1_555 1_555
H9_2 C11_2 1_555 1_555
C12_2 C11_2 1_555 1_555
H10_2 C12_2 1_555 1_555
C13_2 C12_2 1_555 1_555
C14_2 C13_2 1_555 1_555
H11_2 C14_2 1_555 1_555
C16_2 C3_2 1_555 1_555
N4_2 C16_2 1_555 1_555
C17_2 C8_2 1_555 1_555
N5_2 C17_2 1_555 1_555
C18_2 C13_2 1_555 1_555
N6_2 C16_2 1_555 1_555
N13_2 Zn1_2 1_555 1_555
C4_2 C5_2 1_555 1_555
C9_2 C10_2 1_555 1_555
C14_2 C15_2 1_555 1_555
N4_2 C17_2 1_555 1_555
N5_2 C18_2 1_555 1_555
C18_2 N6_2 1_555 1_555
Zn3_2 I5_2 1_555 1_555
I6_2 Zn3_2 1_555 1_555
N3_2 Zn3_2 1_555 1_555
N7_2 Zn3_2 1_555 1_555
C19_2 N7_2 1_555 1_555
H13_2 C19_2 1_555 1_555
C20_2 C19_2 1_555 1_555
H14_2 C20_2 1_555 1_555
C21_2 C20_2 1_555 1_555
C22_2 C21_2 1_555 1_555
H15_2 C22_2 1_555 1_555
C23_2 N7_2 1_555 1_555
H16_2 C23_2 1_555 1_555
N13_2 C24 1_555 1_555
C24 H17 1_555 1_555
C25 C24 1_555 1_555
H18 C25 1_555 1_555
C26_2 C25 1_555 1_555
C27_2 C26_2 1_555 1_555
H19_2 C27_2 1_555 1_555
C28 N13_2 1_555 1_555
H20_2 C28 1_555 1_555
C34_2 C21_2 1_555 1_555
N10_2 C34_2 1_555 1_555
C35_2 C26_2 1_555 1_555
N11_2 C35_2 1_555 1_555
N12_2 C34_2 1_555 1_555
C22_2 C23_2 1_555 1_555
C27_2 C28 1_555 1_555
N10_2 C35_2 1_555 1_555
N11_2 C36_2 1_555 1_555
C36_2 N12_2 1_555 1_555
C24_2 H17_2 1_555 1_555
C25_2 C24_2 1_555 1_555
H18_2 C25_2 1_555 1_555
Zn4 N8 1_555 1_555
Zn4 I1_3 1_555 1_555
I2_3 Zn4 1_555 1_555
Zn2_2 I3_2 1_555 1_555
I4_3 Zn2_2 1_555 1_555
N1_3 Zn4 1_555 1_555
C1_3 N1_3 1_555 1_555
H1_3 C1_3 1_555 1_555
C2_3 C1_3 1_555 1_555
H2_3 C2_3 1_555 1_555
N2_3 Zn2_2 1_555 1_555
H7_3 C9_3 1_555 1_555
C10_3 N2_3 1_555 1_555
H8_3 C10_3 1_555 1_555
N14_2 Zn2_2 1_555 1_555
C9_3 C10_3 1_555 1_555
N14_2 C29_3 1_555 1_555
C29_3 H21_3 1_555 1_555
Zn1_3 I1_4 1_555 1_555
I2_4 Zn1_3 1_555 1_555
Zn2_3 I3_3 1_555 1_555
I4_4 Zn2_3 1_555 1_555
N1_4 Zn1_3 1_555 1_555
C1_4 N1_4 1_555 1_555
H1_4 C1_4 1_555 1_555
C2_4 C1_4 1_555 1_555
H2_4 C2_4 1_555 1_555
N2_4 Zn2_3 1_555 1_555
H7_4 C9_4 1_555 1_555
C10_4 N2_4 1_555 1_555
H8_4 C10_4 1_555 1_555
N13_3 Zn1_3 1_555 1_555
N14_3 Zn2_3 1_555 1_555
C9_4 C10_4 1_555 1_555
N14_3 C29_4 1_555 1_555
C29_4 H21_4 1_555 1_555
Zn3_3 I5_3 1_555 1_555
I6_3 Zn3_3 1_555 1_555
C4_3 C3_3 1_555 1_555
H3_3 C4_3 1_555 1_555
H4_3 C5_3 1_555 1_555
H5_3 C6_3 1_555 1_555
C7_3 C6_3 1_555 1_555
H6_3 C7_3 1_555 1_555
C8_3 C7_3 1_555 1_555
N3_3 Zn3_3 1_555 1_555
C11_3 N3_3 1_555 1_555
H9_3 C11_3 1_555 1_555
C12_3 C11_3 1_555 1_555
H10_3 C12_3 1_555 1_555
C13_3 C12_3 1_555 1_555
C14_3 C13_3 1_555 1_555
H11_3 C14_3 1_555 1_555
C15_3 N3_3 1_555 1_555
H12_3 C15_3 1_555 1_555
C16_3 C3_3 1_555 1_555
N4_3 C16_3 1_555 1_555
C17_3 C8_3 1_555 1_555
N5_3 C17_3 1_555 1_555
C18_3 C13_3 1_555 1_555
N6_3 C16_3 1_555 1_555
N7_3 Zn3_3 1_555 1_555
C19_3 N7_3 1_555 1_555
H13_3 C19_3 1_555 1_555
C20_3 C19_3 1_555 1_555
H14_3 C20_3 1_555 1_555
C21_3 C20_3 1_555 1_555
C22_3 C21_3 1_555 1_555
H15_3 C22_3 1_555 1_555
C23_3 N7_3 1_555 1_555
H16_3 C23_3 1_555 1_555
C24_3 H17_3 1_555 1_555
C25_3 C24_3 1_555 1_555
H18_3 C25_3 1_555 1_555
C26_3 C25_3 1_555 1_555
C27_3 C26_3 1_555 1_555
H19_3 C27_3 1_555 1_555
N9_2 C29_5 1_555 1_555
C29_5 H21_5 1_555 1_555
C30_2 C29_5 1_555 1_555
H22_2 C30_2 1_555 1_555
C31_2 C30_2 1_555 1_555
C32_2 C31_2 1_555 1_555
H23_2 C32_2 1_555 1_555
C33_2 N9_2 1_555 1_555
H24_2 C33_2 1_555 1_555
C34_3 C21_3 1_555 1_555
N10_3 C34_3 1_555 1_555
C35_3 C26_3 1_555 1_555
N11_3 C35_3 1_555 1_555
C36_3 C31_2 1_555 1_555
N12_3 C34_3 1_555 1_555
Zn5_2 N9_2 1_555 1_555
C4_3 C5_3 1_555 1_555
C14_3 C15_3 1_555 1_555
N4_3 C17_3 1_555 1_555
N5_3 C18_3 1_555 1_555
C18_3 N6_3 1_555 1_555
C22_3 C23_3 1_555 1_555
C27_3 C28_3 1_555 1_555
C32_2 C33_2 1_555 1_555
N10_3 C35_3 1_555 1_555
N11_3 C36_3 1_555 1_555
C36_3 N12_3 1_555 1_555
Zn1_4 I1_5 1_555 1_555
I2_5 Zn1_4 1_555 1_555
Zn5_2 I3_4 1_555 1_555
I4_5 Zn5_2 1_555 1_555
N1_5 Zn1_4 1_555 1_555
C1_5 N1_5 1_555 1_555
H1_5 C1_5 1_555 1_555
C2_5 C1_5 1_555 1_555
H2_5 C2_5 1_555 1_555
C3_4 C2_5 1_555 1_555
C4_4 C3_4 1_555 1_555
H3_4 C4_4 1_555 1_555
C5_4 N1_5 1_555 1_555
H4_4 C5_4 1_555 1_555
N2_5 Zn5_2 1_555 1_555
C6_4 N2_5 1_555 1_555
H5_4 C6_4 1_555 1_555
C7_4 C6_4 1_555 1_555
H6_4 C7_4 1_555 1_555
C8_4 C7_4 1_555 1_555
C9_5 C8_4 1_555 1_555
H7_5 C9_5 1_555 1_555
C10_5 N2_5 1_555 1_555
H8_5 C10_5 1_555 1_555
H9_4 C11_4 1_555 1_555
C12_4 C11_4 1_555 1_555
H10_4 C12_4 1_555 1_555
C13_4 C12_4 1_555 1_555
C14_4 C13_4 1_555 1_555
H11_4 C14_4 1_555 1_555
C16_4 C3_4 1_555 1_555
N4_4 C16_4 1_555 1_555
C17_4 C8_4 1_555 1_555
N5_4 C17_4 1_555 1_555
C18_4 C13_4 1_555 1_555
N6_4 C16_4 1_555 1_555
N13_4 Zn1_4 1_555 1_555
C4_4 C5_4 1_555 1_555
C9_5 C10_5 1_555 1_555
C14_4 C15_4 1_555 1_555
N4_4 C17_4 1_555 1_555
N5_4 C18_4 1_555 1_555
C18_4 N6_4 1_555 1_555
N13_4 C24_4 1_555 1_555
C24_4 H17_4 1_555 1_555
C25_4 C24_4 1_555 1_555
H18_4 C25_4 1_555 1_555
C28_4 N13_4 1_555 1_555
H20_5 C28_4 1_555 1_555
Zn4_2 N8_2 1_555 1_555
Zn4_2 I1_6 1_555 1_555
I2_6 Zn4_2 1_555 1_555
I4_6 Zn2_4 1_555 1_555
N1_6 Zn4_2 1_555 1_555
C1_6 N1_6 1_555 1_555
H1_6 C1_6 1_555 1_555
C2_6 C1_6 1_555 1_555
H2_6 C2_6 1_555 1_555
N2_6 Zn2_4 1_555 1_555
H7_6 C9_6 1_555 1_555
C10_6 N2_6 1_555 1_555
H8_6 C10_6 1_555 1_555
N14_4 Zn2_4 1_555 1_555
C9_6 C10_6 1_555 1_555
N14_4 C29_6 1_555 1_555
C29_6 H21_6 1_555 1_555
H22_3 C30_3 1_555 1_555
C31_3 C30_3 1_555 1_555
C32_3 C31_3 1_555 1_555
C32_3 C33_3 1_555 1_555
Zn3_4 I5_4 1_555 1_555
I6_4 Zn3_4 1_555 1_555
N3_4 Zn3_4 1_555 1_555
N7_4 Zn3_4 1_555 1_555
C19_4 N7_4 1_555 1_555
H13_4 C19_4 1_555 1_555
C20_4 C19_4 1_555 1_555
H14_4 C20_4 1_555 1_555
C21_4 C20_4 1_555 1_555
C22_4 C21_4 1_555 1_555
H15_4 C22_4 1_555 1_555
C23_4 N7_4 1_555 1_555
H16_4 C23_4 1_555 1_555
C27_4 C26_4 1_555 1_555
H19_4 C27_4 1_555 1_555
C34_4 C21_4 1_555 1_555
N10_4 C34_4 1_555 1_555
C35_4 C26_4 1_555 1_555
N11_4 C35_4 1_555 1_555
N12_4 C34_4 1_555 1_555
C22_4 C23_4 1_555 1_555
N10_4 C35_4 1_555 1_555
N11_4 C36_4 1_555 1_555
C36_4 N12_4 1_555 1_555
N8_3 C24_5 1_555 1_555
C24_5 H17_5 1_555 1_555
C25_5 C24_5 1_555 1_555
H18_5 C25_5 1_555 1_555
C28_5 N8_3 1_555 1_555
H20_7 C28_5 1_555 1_555
Zn4_3 N8_3 1_555 1_555
Zn3_5 I5_5 1_555 1_555
I6_5 Zn3_5 1_555 1_555
C4_5 C3_5 1_555 1_555
H3_5 C4_5 1_555 1_555
H4_5 C5_5 1_555 1_555
H5_5 C6_5 1_555 1_555
C7_5 C6_5 1_555 1_555
H6_5 C7_5 1_555 1_555
C8_5 C7_5 1_555 1_555
N3_5 Zn3_5 1_555 1_555
C11_5 N3_5 1_555 1_555
H9_5 C11_5 1_555 1_555
C12_5 C11_5 1_555 1_555
H10_5 C12_5 1_555 1_555
C13_5 C12_5 1_555 1_555
C14_5 C13_5 1_555 1_555
H11_5 C14_5 1_555 1_555
C15_5 N3_5 1_555 1_555
H12_5 C15_5 1_555 1_555
C16_5 C3_5 1_555 1_555
N4_5 C16_5 1_555 1_555
C17_5 C8_5 1_555 1_555
N5_5 C17_5 1_555 1_555
C18_5 C13_5 1_555 1_555
N6_5 C16_5 1_555 1_555
N7_5 Zn3_5 1_555 1_555
C19_5 N7_5 1_555 1_555
H13_5 C19_5 1_555 1_555
C20_5 C19_5 1_555 1_555
H14_5 C20_5 1_555 1_555
C21_5 C20_5 1_555 1_555
C22_5 C21_5 1_555 1_555
H15_5 C22_5 1_555 1_555
C23_5 N7_5 1_555 1_555
H16_5 C23_5 1_555 1_555
C24_6 H17_6 1_555 1_555
C25_6 C24_6 1_555 1_555
H18_6 C25_6 1_555 1_555
C26_5 C25_6 1_555 1_555
C27_5 C26_5 1_555 1_555
H19_5 C27_5 1_555 1_555
N9_3 C29_7 1_555 1_555
C29_7 H21_7 1_555 1_555
C30_4 C29_7 1_555 1_555
H22_4 C30_4 1_555 1_555
C31_4 C30_4 1_555 1_555
C32_4 C31_4 1_555 1_555
H23_4 C32_4 1_555 1_555
C33_4 N9_3 1_555 1_555
H24_4 C33_4 1_555 1_555
C34_5 C21_5 1_555 1_555
N10_5 C34_5 1_555 1_555
C35_5 C26_5 1_555 1_555
N11_5 C35_5 1_555 1_555
C36_5 C31_4 1_555 1_555
N12_5 C34_5 1_555 1_555
Zn5_3 N9_3 1_555 1_555
C4_5 C5_5 1_555 1_555
C14_5 C15_5 1_555 1_555
N4_5 C17_5 1_555 1_555
N5_5 C18_5 1_555 1_555
C18_5 N6_5 1_555 1_555
C22_5 C23_5 1_555 1_555
C27_5 C28_6 1_555 1_555
C32_4 C33_4 1_555 1_555
N10_5 C35_5 1_555 1_555
N11_5 C36_5 1_555 1_555
C36_5 N12_5 1_555 1_555
Zn4_3 I1_7 1_555 1_555
I2_7 Zn4_3 1_555 1_555
Zn5_3 I3_6 1_555 1_555
I4_7 Zn5_3 1_555 1_555
N1_7 Zn4_3 1_555 1_555
C1_7 N1_7 1_555 1_555
H1_7 C1_7 1_555 1_555
C2_7 C1_7 1_555 1_555
H2_7 C2_7 1_555 1_555
C3_6 C2_7 1_555 1_555
C4_6 C3_6 1_555 1_555
H3_6 C4_6 1_555 1_555
C5_6 N1_7 1_555 1_555
H4_6 C5_6 1_555 1_555
N2_7 Zn5_3 1_555 1_555
C6_6 N2_7 1_555 1_555
H5_6 C6_6 1_555 1_555
C7_6 C6_6 1_555 1_555
H6_6 C7_6 1_555 1_555
C8_6 C7_6 1_555 1_555
C9_7 C8_6 1_555 1_555
H7_7 C9_7 1_555 1_555
C10_7 N2_7 1_555 1_555
H8_7 C10_7 1_555 1_555
H9_6 C11_6 1_555 1_555
C12_6 C11_6 1_555 1_555
H10_6 C12_6 1_555 1_555
C13_6 C12_6 1_555 1_555
C14_6 C13_6 1_555 1_555
H11_6 C14_6 1_555 1_555
C16_6 C3_6 1_555 1_555
N4_6 C16_6 1_555 1_555
C17_6 C8_6 1_555 1_555
N5_6 C17_6 1_555 1_555
C18_6 C13_6 1_555 1_555
N6_6 C16_6 1_555 1_555
C4_6 C5_6 1_555 1_555
C9_7 C10_7 1_555 1_555
C14_6 C15_6 1_555 1_555
N4_6 C17_6 1_555 1_555
N5_6 C18_6 1_555 1_555
C18_6 N6_6 1_555 1_555
Zn3_6 I5_6 1_555 1_555
I6_6 Zn3_6 1_555 1_555
N3_6 Zn3_6 1_555 1_555
N7_6 Zn3_6 1_555 1_555
C19_6 N7_6 1_555 1_555
H13_6 C19_6 1_555 1_555
C20_6 C19_6 1_555 1_555
H14_6 C20_6 1_555 1_555
C21_6 C20_6 1_555 1_555
C22_6 C21_6 1_555 1_555
H15_6 C22_6 1_555 1_555
C23_6 N7_6 1_555 1_555
H16_6 C23_6 1_555 1_555
N8_4 C24_7 1_555 1_555
C24_7 H17_7 1_555 1_555
C25_7 C24_7 1_555 1_555
H18_7 C25_7 1_555 1_555
C26_6 C25_7 1_555 1_555
C27_6 C26_6 1_555 1_555
H19_6 C27_6 1_555 1_555
C28_7 N8_4 1_555 1_555
H20_8 C28_7 1_555 1_555
C34_6 C21_6 1_555 1_555
N10_6 C34_6 1_555 1_555
C35_6 C26_6 1_555 1_555
N11_6 C35_6 1_555 1_555
N12_6 C34_6 1_555 1_555
Zn4_4 N8_4 1_555 1_555
C22_6 C23_6 1_555 1_555
C27_6 C28_7 1_555 1_555
N10_6 C35_6 1_555 1_555
N11_6 C36_6 1_555 1_555
C36_6 N12_6 1_555 1_555
Zn3_7 I5_7 1_555 1_555
I6_7 Zn3_7 1_555 1_555
C4_7 C3_7 1_555 1_555
H3_7 C4_7 1_555 1_555
H4_7 C5_7 1_555 1_555
H5_7 C6_7 1_555 1_555
C7_7 C6_7 1_555 1_555
H6_7 C7_7 1_555 1_555
C8_7 C7_7 1_555 1_555
N3_7 Zn3_7 1_555 1_555
C11_7 N3_7 1_555 1_555
H9_7 C11_7 1_555 1_555
C12_7 C11_7 1_555 1_555
H10_7 C12_7 1_555 1_555
C13_7 C12_7 1_555 1_555
C14_7 C13_7 1_555 1_555
H11_7 C14_7 1_555 1_555
C15_7 N3_7 1_555 1_555
H12_7 C15_7 1_555 1_555
C16_7 C3_7 1_555 1_555
N4_7 C16_7 1_555 1_555
C17_7 C8_7 1_555 1_555
N5_7 C17_7 1_555 1_555
C18_7 C13_7 1_555 1_555
N6_7 C16_7 1_555 1_555
N7_7 Zn3_7 1_555 1_555
C19_7 N7_7 1_555 1_555
H13_7 C19_7 1_555 1_555
C20_7 C19_7 1_555 1_555
H14_7 C20_7 1_555 1_555
C21_7 C20_7 1_555 1_555
C22_7 C21_7 1_555 1_555
H15_7 C22_7 1_555 1_555
C23_7 N7_7 1_555 1_555
H16_7 C23_7 1_555 1_555
C27_7 C26_7 1_555 1_555
H19_7 C27_7 1_555 1_555
N9_4 C29_8 1_555 1_555
C29_8 H21_8 1_555 1_555
C30_5 C29_8 1_555 1_555
H22_5 C30_5 1_555 1_555
C31_5 C30_5 1_555 1_555
C32_5 C31_5 1_555 1_555
C33_5 N9_4 1_555 1_555
C34_7 C21_7 1_555 1_555
N10_7 C34_7 1_555 1_555
C35_7 C26_7 1_555 1_555
N11_7 C35_7 1_555 1_555
C36_7 C31_5 1_555 1_555
N12_7 C34_7 1_555 1_555
Zn5_4 N9_4 1_555 1_555
C4_7 C5_7 1_555 1_555
C14_7 C15_7 1_555 1_555
N4_7 C17_7 1_555 1_555
N5_7 C18_7 1_555 1_555
C18_7 N6_7 1_555 1_555
C22_7 C23_7 1_555 1_555
C32_5 C33_5 1_555 1_555
N10_7 C35_7 1_555 1_555
N11_7 C36_7 1_555 1_555
C36_7 N12_7 1_555 1_555
Zn4_4 I1_8 1_555 1_555
I2_8 Zn4_4 1_555 1_555
I4_8 Zn5_4 1_555 1_555
N1_8 Zn4_4 1_555 1_555
C1_8 N1_8 1_555 1_555
H1_8 C1_8 1_555 1_555
C2_8 C1_8 1_555 1_555
H2_8 C2_8 1_555 1_555
C3_8 C2_8 1_555 1_555
C4_8 C3_8 1_555 1_555
H3_8 C4_8 1_555 1_555
C5_8 N1_8 1_555 1_555
H4_8 C5_8 1_555 1_555
N2_8 Zn5_4 1_555 1_555
C6_8 N2_8 1_555 1_555
H5_8 C6_8 1_555 1_555
C7_8 C6_8 1_555 1_555
H6_8 C7_8 1_555 1_555
C8_8 C7_8 1_555 1_555
C9_8 C8_8 1_555 1_555
H7_8 C9_8 1_555 1_555
C10_8 N2_8 1_555 1_555
H8_8 C10_8 1_555 1_555
H9_8 C11_8 1_555 1_555
C12_8 C11_8 1_555 1_555
H10_8 C12_8 1_555 1_555
C13_8 C12_8 1_555 1_555
C14_8 C13_8 1_555 1_555
H11_8 C14_8 1_555 1_555
C16_8 C3_8 1_555 1_555
N4_8 C16_8 1_555 1_555
C17_8 C8_8 1_555 1_555
N5_8 C17_8 1_555 1_555
C18_8 C13_8 1_555 1_555
N6_8 C16_8 1_555 1_555
C4_8 C5_8 1_555 1_555
C9_8 C10_8 1_555 1_555
C14_8 C15_8 1_555 1_555
N4_8 C17_8 1_555 1_555
N5_8 C18_8 1_555 1_555
C18_8 N6_8 1_555 1_555
H22_6 C30_6 1_555 1_555
C31_6 C30_6 1_555 1_555
C32_6 C31_6 1_555 1_555
H23_5 C32_6 1_555 1_555
H24_5 C33_6 1_555 1_555
C32_6 C33_6 1_555 1_555
C24_8 H17_8 1_555 1_555
C25_8 C24_8 1_555 1_555
H18_8 C25_8 1_555 1_555
Zn3_8 I5_8 1_555 1_555
I6_8 Zn3_8 1_555 1_555
N3_8 Zn3_8 1_555 1_555
N7_8 Zn3_8 1_555 1_555
C19_8 N7_8 1_555 1_555
H13_8 C19_8 1_555 1_555
C20_8 C19_8 1_555 1_555
H14_8 C20_8 1_555 1_555
C21_8 C20_8 1_555 1_555
C22_8 C21_8 1_555 1_555
H15_8 C22_8 1_555 1_555
C23_8 N7_8 1_555 1_555
H16_8 C23_8 1_555 1_555
C27_8 C26_8 1_555 1_555
H19_8 C27_8 1_555 1_555
C34_8 C21_8 1_555 1_555
N10_8 C34_8 1_555 1_555
C35_8 C26_8 1_555 1_555
N11_8 C35_8 1_555 1_555
N12_8 C34_8 1_555 1_555
C22_8 C23_8 1_555 1_555
N10_8 C35_8 1_555 1_555
N11_8 C36_8 1_555 1_555
C36_8 N12_8 1_555 1_555
H22_7 C30_7 1_555 1_555
C31_7 C30_7 1_555 1_555
C32_7 C31_7 1_555 1_555
C32_7 C33_7 1_555 1_555
H22_8 C30_8 1_555 1_555
C31_8 C30_8 1_555 1_555
C32_8 C31_8 1_555 1_555
H23_8 C32_8 1_555 1_555
H24_8 C33_8 1_555 1_555
C32_8 C33_8 1_555 1_555

#END
