
###############################################################################
#
# This file contains modified crystal structure data generated from the
# MOF subset of the Cambridge Structural Database (CSD) v543 
# hosted by the Cambridge Crystallographic Data Centre (CCDC).
#
# This work is licensed under the Creative Commons
# Attribution-NonCommercial-ShareAlike 4.0 International License.
# To view a copy of this license, visit
# http://creativecommons.org/licenses/by-nc-sa/4.0/
# or send a letter to
# Creative Commons, PO Box 1866, Mountain View, CA 94042, USA.
#
# CIF created using the CSD Python API on 29 September 2022
# The structure has been converted into the P1 space group
# The structure has a 3D framework
# The original CSD entry REXDAB is in the monoclinic crystal system
# The original CSD entry REXDAB is in a Sohncke space group
# The framework has been calculated to contain at least 10.0% void space
# The void calculation uses a probe of radius 1.32A, grid spacing 0.4
#
###############################################################################

data_REXDAB
_chemical_formula_moiety         '(C288 H192 I48 N96 Zn24)n'
_symmetry_cell_setting           triclinic
_symmetry_space_group_name_H-M   'P 1'
_symmetry_Int_Tables_number      1
_space_group_name_Hall           'P 1'
loop_
_symmetry_equiv_pos_site_id
_symmetry_equiv_pos_as_xyz
1 x,y,z
_cell_length_a                   32.866(5)
_cell_length_b                   14.853(2)
_cell_length_c                   34.850(6)
_cell_angle_alpha                90
_cell_angle_beta                 105.848(2)
_cell_angle_gamma                90
_cell_volume                     16365.7
loop_
_atom_site_label
_atom_site_type_symbol
_atom_site_fract_x
_atom_site_fract_y
_atom_site_fract_z
I1 I 0.66090(4) 0.41370(8) 0.14429(4)
Zn1 Zn 0.69395(5) 0.26728(12) 0.13076(5)
I2 I 0.76281(3) 0.25194(9) 0.11194(3)
N1 N 0.6482(4) 0.2046(8) 0.0876(4)
C1 C 0.6480(5) 0.1208(11) 0.0818(4)
H1 H 0.6689 0.0859 0.1000
C2 C 0.6189(5) 0.0742(11) 0.0502(4)
H2 H 0.6213 0.0111 0.0470
C3 C 0.5880(4) 0.1219(11) 0.0251(4)
C4 C 0.5847(5) 0.2116(11) 0.0304(5)
H3 H 0.5614 0.2451 0.0150
C5 C 0.6187(5) 0.2550(12) 0.0611(5)
H4 H 0.6202 0.3189 0.0624
N52 N 0.6963(4) 0.1844(9) 0.1797(4)
N17 N 0.1515(3) 0.1456(8) 0.0877(3)
C45 C 0.1181(4) 0.1018(10) 0.0654(4)
H29 H 0.1167 0.0387 0.0695
C46 C 0.0863(5) 0.1397(10) 0.0375(4)
H30 H 0.0625 0.1046 0.0241
C47 C 0.0882(4) 0.2313(9) 0.0283(4)
C48 C 0.1235(4) 0.2777(10) 0.0521(4)
H31 H 0.1265 0.3405 0.0486
C49 C 0.1519(4) 0.2344(10) 0.0791(4)
H32 H 0.1753 0.2683 0.0942
I13 I 0.26967(3) 0.10946(8) 0.11566(3)
Zn7 Zn 0.19891(5) 0.08424(12) 0.12953(5)
N25 N 0.1961(4) 0.1613(9) 0.1792(3)
C73 C 0.2284(4) 0.2083(10) 0.1989(4)
H49 H 0.2541 0.2067 0.1915
C74 C 0.2250(4) 0.2618(10) 0.2313(4)
H50 H 0.2484 0.2972 0.2456
C75 C 0.1881(4) 0.2626(10) 0.2422(4)
C76 C 0.1558(4) 0.2087(10) 0.2218(4)
H51 H 0.1298 0.2080 0.2287
C77 C 0.1611(5) 0.1545(12) 0.1907(5)
H52 H 0.1397 0.1130 0.1779
C78 C 0.1841(4) 0.3189(9) 0.2765(4)
N26 N 0.2095(3) 0.3896(8) 0.2860(3)
C79 C 0.2019(4) 0.4383(9) 0.3151(4)
N27 N 0.1712(3) 0.4248(7) 0.3330(3)
C80 C 0.1480(4) 0.3510(9) 0.3217(4)
N28 N 0.1525(3) 0.2966(7) 0.2915(3)
N29 N 0.2807(3) 0.6647(7) 0.3580(3)
C81 C 0.2589(4) 0.6305(9) 0.3795(5)
H53 H 0.2603 0.6558 0.4048
C82 C 0.2329(4) 0.5562(9) 0.3661(4)
H54 H 0.2174 0.5300 0.3826
C83 C 0.2296(4) 0.5205(10) 0.3283(4)
C84 C 0.2525(4) 0.5591(10) 0.3052(4)
H55 H 0.2508 0.5360 0.2794
C85 C 0.2778(4) 0.6315(9) 0.3199(4)
H56 H 0.2935 0.6593 0.3040
I15 I 0.30836(3) 0.82589(7) 0.44474(3)
Zn8 Zn 0.32257(5) 0.76881(11) 0.38048(5)
I16 I 0.32474(4) 0.87625(8) 0.32633(4)
N30 N 0.0563(3) 0.2935(7) 0.3837(3)
C86 C 0.0724(4) 0.2273(9) 0.3649(4)
H57 H 0.0629 0.1672 0.3658
C87 C 0.1017(5) 0.2451(10) 0.3448(4)
H58 H 0.1123 0.1968 0.3324
C88 C 0.1164(4) 0.3307(9) 0.3419(4)
C89 C 0.1009(4) 0.3968(10) 0.3609(4)
H59 H 0.1113 0.4564 0.3606
C90 C 0.0704(4) 0.3799(9) 0.3809(4)
H60 H 0.0592 0.4283 0.3927
N31 N 0.3776(4) 0.6976(8) 0.3987(4)
C91 C 0.4165(4) 0.7395(10) 0.4131(5)
H61 H 0.4178 0.8033 0.4114
C92 C 0.4532(4) 0.6937(9) 0.4296(4)
H62 H 0.4793 0.7251 0.4386
C93 C 0.4520(4) 0.5996(9) 0.4329(4)
C94 C 0.4143(4) 0.5599(10) 0.4206(5)
H63 H 0.4122 0.4966 0.4233
C95 C 0.3784(5) 0.6086(10) 0.4041(5)
H64 H 0.3524 0.5769 0.3959
C96 C 0.4904(4) 0.5494(9) 0.4527(4)
N32 N 0.5201(3) 0.5902(8) 0.4795(3)
C97 C 0.5533(4) 0.5377(10) 0.4992(4)
N33 N 0.5556(3) 0.4487(8) 0.4938(3)
C98 C 0.5234(4) 0.4130(9) 0.4642(4)
N34 N 0.4897(3) 0.4604(7) 0.4435(3)
N35 N 0.6469(3) 0.6719(7) 0.5876(3)
C99 C 0.6466(5) 0.5826(9) 0.5883(4)
H65 H 0.6666 0.5508 0.6086
C100 C 0.6152(4) 0.5335(9) 0.5575(4)
H66 H 0.6150 0.4696 0.5565
C101 C 0.5862(4) 0.5827(9) 0.5304(4)
C102 C 0.5882(4) 0.6766(9) 0.5308(4)
H67 H 0.5693 0.7113 0.5107
C103 C 0.6187(4) 0.7178(9) 0.5613(4)
H68 H 0.6190 0.7816 0.5630
N36 N 0.5218(4) 0.1350(8) 0.4326(4)
C104 C 0.4901(5) 0.1889(10) 0.4159(5)
H69 H 0.4666 0.1654 0.3961
C105 C 0.4900(5) 0.2838(10) 0.4269(5)
H70 H 0.4669 0.3216 0.4143
C106 C 0.5237(4) 0.3172(9) 0.4554(4)
C107 C 0.5551(4) 0.2608(9) 0.4735(4)
H71 H 0.5788 0.2822 0.4936
C108 C 0.5522(5) 0.1702(10) 0.4623(5)
H72 H 0.5736 0.1307 0.4770
Zn9 Zn 0.51869(5) 0.00533(11) 0.41287(5)
I19 I 0.03576(3) 0.37835(7) 0.47268(3)
Zn10 Zn 0.01048(5) 0.27593(11) 0.41229(5)
N37 N 0.0165(4) 0.1401(8) 0.4268(3)
C109 C 0.0457(4) 0.1099(10) 0.4603(4)
H73 H 0.0642 0.1512 0.4773
C110 C 0.0480(4) 0.0217(10) 0.4690(4)
H74 H 0.0688 0.0023 0.4922
Zn15 Zn 0.69230(5) 0.74022(11) 0.63191(5)
N2 N 0.5595(4) 0.9908(9) 0.9865(4)
C7 C 0.5274(5) 0.9581(11) 0.9553(5)
N5 N 0.5181(4) 0.6767(10) 0.9312(4)
C9 C 0.4908(6) 0.7364(12) 0.9139(6)
H5 H 0.4672 0.7151 0.8935
C10 C 0.4918(6) 0.8251(12) 0.9212(5)
H6 H 0.4687 0.8624 0.9080
C11 C 0.5256(5) 0.8607(12) 0.9473(5)
C12 C 0.5540(5) 0.8025(12) 0.9695(6)
H7 H 0.5769 0.8225 0.9909
C13 C 0.5479(6) 0.7068(13) 0.9590(6)
H8 H 0.5678 0.6649 0.9741
C24 C 0.2065(4) 0.9563(9) 0.8100(4)
N8 N 0.1756(4) 0.9528(7) 0.8285(3)
C25 C 0.1521(4) 0.8807(9) 0.8208(4)
N9 N 0.1532(4) 0.8159(8) 0.7941(3)
C26 C 0.1849(4) 0.8260(9) 0.7775(4)
N10 N 0.2128(3) 0.8946(7) 0.7838(3)
N11 N 0.0602(4) 0.8371(8) 0.8861(4)
C27 C 0.0769(5) 0.7658(11) 0.8693(5)
H17 H 0.0695 0.7054 0.8733
C28 C 0.1044(5) 0.7839(11) 0.8470(5)
H18 H 0.1135 0.7350 0.8338
C29 C 0.1192(5) 0.8667(9) 0.8425(4)
C30 C 0.1038(5) 0.9409(10) 0.8602(4)
C31 C 0.0749(5) 0.9209(10) 0.8812(4)
H20 H 0.0644 0.9698 0.8932
N12 N 0.1866(4) 0.6380(8) 0.6842(4)
C32 C 0.2139(4) 0.7048(9) 0.6922(4)
H21 H 0.2332 0.7105 0.6765
C33 C 0.2162(4) 0.7691(9) 0.7228(4)
H22 H 0.2365 0.8162 0.7277
C34 C 0.1870(4) 0.7601(9) 0.7457(4)
C35 C 0.1572(5) 0.6878(10) 0.7369(4)
H23 H 0.1373 0.6789 0.7518
C36 C 0.1587(5) 0.6328(11) 0.7065(5)
H24 H 0.1383 0.5859 0.7002
I5 I 0.04369(4) 0.90588(7) 0.98232(3)
Zn3 Zn 0.01882(5) 0.81420(11) 0.91882(5)
N13 N 0.0270(4) 0.6779(8) 0.9325(3)
C37 C 0.0525(4) 0.6461(9) 0.9652(4)
H25 H 0.0699 0.6870 0.9835
C38 C 0.0551(4) 0.5545(10) 0.9745(4)
H26 H 0.0735 0.5339 0.9990
C39 C 0.0310(4) 0.4948(9) 0.9479(4)
C40 C 0.0054(5) 0.5244(10) 0.9134(4)
C41 C 0.0067(5) 0.6200(10) 0.9068(5)
C42 C 0.0312(4) 0.3966(9) 0.9584(4)
N14 N 0.0606(3) 0.3636(7) 0.9880(3)
C43 C 0.0549(4) 0.2763(9) 0.9963(4)
N15 N 0.0235(4) 0.2250(8) 0.9765(3)
Zn14 Zn 0.50966(6) 0.54039(13) 0.91602(6)
Zn17 Zn 0.18017(5) 0.55176(11) 0.63746(4)
I14 I 0.17115(4) 0.93297(7) 0.14200(4)
I17 I 0.44595(3) 0.97618(7) 0.36551(4)
I18 I 0.54785(3) 0.89907(7) 0.47195(3)
C111 C 0.0217(4) 0.9567(9) 0.4457(4)
C114 C 0.0214(4) 0.8600(9) 0.4562(4)
N38 N 0.0527(3) 0.8291(8) 0.4858(3)
C115 C 0.0474(4) 0.7437(9) 0.4944(4)
N39 N 0.0146(3) 0.6898(8) 0.4770(3)
N41 N 0.1351(3) 0.6143(8) 0.5912(3)
C117 C 0.1065(4) 0.5708(10) 0.5668(4)
H77 H 0.1047 0.5080 0.5714
C118 C 0.0783(4) 0.6063(10) 0.5347(4)
H78 H 0.0578 0.5690 0.5174
C119 C 0.0798(4) 0.7021(9) 0.5271(4)
C120 C 0.1114(4) 0.7499(10) 0.5548(4)
H79 H 0.1135 0.8133 0.5523
C121 C 0.1388(4) 0.7066(8) 0.5848(4)
H80 H 0.1612 0.7395 0.6021
I21 I 0.14322(4) 0.41286(7) 0.65439(3)
I22 I 0.24666(3) 0.54586(8) 0.61499(3)
N53 N 0.5603(3) 0.9980(8) 0.3805(3)
I20 I 0.94067(3) 0.30582(7) 0.36039(3)
C113 C 0.9921(4) 0.0807(9) 0.4028(4)
H76 H 0.9729 0.1018 0.3789
C133 C 0.6892(4) 0.0099(9) 0.2735(4)
N45 N 0.6586(3) 0.0253(8) 0.2916(3)
C135 C 0.6656(5) 0.1903(12) 0.1941(5)
H89 H 0.6435 0.2314 0.1826
C136 C 0.6625(5) 0.1366(12) 0.2278(5)
H90 H 0.6398 0.1445 0.2394
C137 C 0.6935(5) 0.0739(10) 0.2422(4)
C138 C 0.7250(5) 0.0678(10) 0.2240(4)
H91 H 0.7470 0.0251 0.2329
C139 C 0.7249(5) 0.1230(10) 0.1929(4)
H92 H 0.7468 0.1163 0.1800
C143 C 0.6080(5) 0.0611(10) 0.3449(4)
H95 H 0.6200 0.1138 0.3370
C144 C 0.5769(4) 0.0679(10) 0.3647(4)
H96 H 0.5663 0.1264 0.3674
I6 I 0.94407(3) 0.82839(7) 0.87322(3)
H27 H 0.9876 0.4850 0.8947
H28 H 0.9913 0.6422 0.8814
C44 C 0.9948(4) 0.2655(9) 0.9484(4)
N16 N 0.9974(4) 0.3534(8) 0.9362(3)
N18 N 0.8826(3) 0.1236(7) 0.8937(3)
C50 C 0.8825(5) 0.2123(9) 0.8945(4)
H33 H 0.8565 0.2435 0.8843
C51 C 0.9194(4) 0.2611(10) 0.9097(4)
H34 H 0.9191 0.3250 0.9087
C52 C 0.9568(4) 0.2142(9) 0.9266(4)
C53 C 0.9561(5) 0.1194(10) 0.9251(4)
H35 H 0.9808 0.0845 0.9359
C54 C 0.9182(4) 0.0806(10) 0.9073(4)
H36 H 0.9177 0.0170 0.9046
I7 I 0.81973(4) 0.01719(9) 0.95051(4)
Zn4 Zn 0.82516(5) 0.05396(12) 0.88042(5)
N19 N 0.7818(4) 0.1544(8) 0.8563(3)
C55 C 0.7578(5) 0.1888(11) 0.8787(5)
H37 H 0.7601 0.1637 0.9043
C56 C 0.7299(4) 0.2595(11) 0.8655(4)
H38 H 0.7125 0.2811 0.8812
C57 C 0.7280(4) 0.2971(10) 0.8296(4)
C58 C 0.7514(4) 0.2611(10) 0.8062(4)
H39 H 0.7496 0.2857 0.7806
C59 C 0.7787(5) 0.1858(10) 0.8209(4)
H40 H 0.7945 0.1592 0.8047
C60 C 0.6995(4) 0.3763(10) 0.8156(4)
N20 N 0.6709(4) 0.3916(8) 0.8355(3)
C61 C 0.6449(5) 0.4614(10) 0.8227(5)
N21 N 0.6480(4) 0.5140(8) 0.7933(4)
C62 C 0.6789(4) 0.4953(9) 0.7760(4)
N22 N 0.7059(3) 0.4284(8) 0.7866(3)
N23 N 0.5540(4) 0.5189(10) 0.8851(4)
C63 C 0.5600(5) 0.5727(12) 0.8568(5)
H41 H 0.5419 0.6233 0.8492
C64 C 0.5907(5) 0.5599(11) 0.8379(5)
H42 H 0.5958 0.6038 0.8199
C65 C 0.6144(5) 0.4809(11) 0.8454(5)
C66 C 0.6062(5) 0.4261(13) 0.8733(5)
H43 H 0.6210 0.3706 0.8788
C67 C 0.5793(5) 0.4453(12) 0.8930(5)
H44 H 0.5772 0.4062 0.9140
N24 N 0.6919(3) 0.6622(8) 0.6800(3)
C68 C 0.7231(4) 0.6095(9) 0.7017(4)
H45 H 0.7486 0.6075 0.6940
C69 C 0.7213(5) 0.5596(10) 0.7331(4)
H46 H 0.7454 0.5274 0.7481
C70 C 0.6838(4) 0.5562(10) 0.7429(4)
C71 C 0.6486(5) 0.6066(10) 0.7216(4)
H47 H 0.6231 0.6082 0.7294
C72 C 0.6532(5) 0.6533(11) 0.6890(5)
H48 H 0.6289 0.6807 0.6718
I9 I 0.43738(4) 0.52160(10) 0.86741(4)
I10 I 0.53599(5) 0.44716(9) 0.97919(4)
I11 I 0.65893(4) 0.88738(7) 0.64456(3)
I12 I 0.76203(3) 0.73038(7) 0.61502(3)
C112 C 0.9934(5) 0.9897(10) 0.4108(4)
H75 H 0.9752 0.9496 0.3928
C116 C 0.9860(4) 0.7307(9) 0.4479(4)
N40 N 0.9876(3) 0.8171(8) 0.4360(3)
N42 N 0.8737(3) 0.5938(7) 0.3873(3)
C122 C 0.8727(4) 0.6804(10) 0.3930(4)
H81 H 0.8468 0.7124 0.3836
C123 C 0.9099(4) 0.7268(10) 0.4130(4)
H82 H 0.9094 0.7904 0.4156
C124 C 0.9461(4) 0.6819(10) 0.4282(4)
C125 C 0.9460(4) 0.5879(9) 0.4250(4)
H83 H 0.9706 0.5536 0.4369
C126 C 0.9090(4) 0.5470(9) 0.4038(4)
H84 H 0.9085 0.4834 0.4008
I23 I 0.86054(3) 0.51255(7) 0.28888(3)
Zn12 Zn 0.82483(5) 0.53500(11) 0.34425(5)
I24 I 0.78833(3) 0.41553(7) 0.37523(3)
N43 N 0.7832(4) 0.6447(8) 0.3295(3)
C127 C 0.7852(4) 0.7005(9) 0.2993(4)
H85 H 0.8039 0.6873 0.2835
C128 C 0.7604(4) 0.7756(9) 0.2915(4)
H86 H 0.7614 0.8130 0.2696
C129 C 0.7340(4) 0.7988(9) 0.3148(4)
C130 C 0.7340(4) 0.7419(10) 0.3464(4)
H87 H 0.7172 0.7551 0.3640
C131 C 0.7590(5) 0.6654(10) 0.3518(4)
H88 H 0.7584 0.6260 0.3731
C132 C 0.7073(4) 0.8806(9) 0.3069(4)
N44 N 0.7173(3) 0.9415(7) 0.2825(3)
C134 C 0.6532(4) 0.9620(9) 0.3160(4)
N46 N 0.6760(4) 0.8864(7) 0.3238(3)
C140 C 0.5733(4) 0.9155(10) 0.3700(4)
H93 H 0.5603 0.8634 0.3772
C141 C 0.6031(4) 0.9028(10) 0.3502(4)
H94 H 0.6114 0.8434 0.3456
C142 C 0.6215(4) 0.9757(10) 0.3366(4)
C6 C 0.5563(5) 0.0792(11) 0.9929(4)
N3 N 0.4940(4) 0.0043(8) 0.9336(4)
C8 C 0.4931(4) 0.0895(10) 0.9448(4)
N4 N 0.5229(4) 0.1325(9) 0.9737(4)
N6 N 0.3805(4) 0.2306(10) 0.8866(4)
C14 C 0.4126(5) 0.2780(11) 0.9072(5)
H9 H 0.4102 0.3415 0.9092
C15 C 0.4521(5) 0.2324(11) 0.9272(5)
H10 H 0.4762 0.2665 0.9409
C16 C 0.4543(5) 0.1448(11) 0.9261(5)
C17 C 0.4193(5) 0.0948(12) 0.9036(6)
H11 H 0.4204 0.0311 0.9019
C18 C 0.3838(6) 0.1421(13) 0.8845(6)
H12 H 0.3602 0.1096 0.8688
I3 I 0.35764(5) 0.32542(11) 0.79030(4)
Zn2 Zn 0.32853(6) 0.29399(12) 0.84901(7)
I4 I 0.29307(4) 0.39939(9) 0.88698(5)
N7 N 0.2877(4) 0.1825(8) 0.8347(4)
C19 C 0.2674(4) 0.1549(10) 0.8607(5)
H13 H 0.2714 0.1863 0.8852
C20 C 0.2410(4) 0.0826(10) 0.8530(5)
H14 H 0.2270 0.0632 0.8721
C21 C 0.2350(4) 0.0384(10) 0.8178(4)
C22 C 0.2561(4) 0.0641(9) 0.7900(4)
H15 H 0.2521 0.0329 0.7655
C23 C 0.2831(4) 0.1372(10) 0.7996(4)
H16 H 0.2986 0.1559 0.7817
H19 H 0.1129 0.0008 0.8578
I8 I 0.82131(4) 0.93533(8) 0.82974(4)
I6_2 I 0.05593(3) 0.32839(7) 0.12678(3)
H28_2 H 0.0087 0.1422 0.1186
N21_2 N 0.3520(4) 0.0140(8) 0.2067(4)
N23_2 N 0.4460(4) 0.0189(10) 0.1149(4)
C63_2 C 0.4400(5) 0.0727(12) 0.1432(5)
H41_2 H 0.4581 0.1233 0.1508
C64_2 C 0.4093(5) 0.0599(11) 0.1621(5)
H42_2 H 0.4042 0.1038 0.1801
N24_2 N 0.3081(3) 0.1622(8) 0.3200(3)
C68_2 C 0.2769(4) 0.1095(9) 0.2983(4)
H45_2 H 0.2514 0.1075 0.3060
C69_2 C 0.2787(5) 0.0596(10) 0.2669(4)
H46_2 H 0.2546 0.0274 0.2519
C70_2 C 0.3162(4) 0.0562(10) 0.2571(4)
C71_2 C 0.3514(5) 0.1066(10) 0.2784(4)
H47_2 H 0.3769 0.1082 0.2706
C72_2 C 0.3468(5) 0.1533(11) 0.3110(5)
H48_2 H 0.3711 0.1807 0.3282
I9_2 I 0.56262(4) 0.02160(10) 0.13259(4)
Zn5 Zn 0.49034(6) 0.04039(13) 0.08398(6)
I11_2 I 0.34107(4) 0.38738(7) 0.35544(3)
Zn6 Zn 0.30770(5) 0.24022(11) 0.36809(5)
I12_2 I 0.23797(3) 0.23038(7) 0.38498(3)
N49 N 0.4819(4) 0.1767(10) 0.0688(4)
N51 N 0.3531(3) 0.1719(7) 0.4124(3)
I20_2 I 0.05933(3) 0.80582(7) 0.63961(3)
C112_2 C 0.0066(5) 0.4897(10) 0.5892(4)
H75_2 H 0.0248 0.4496 0.6072
C113_2 C 0.0079(4) 0.5807(9) 0.5972(4)
H76_2 H 0.0271 0.6018 0.6211
C116_2 C 0.0140(4) 0.2307(9) 0.5521(4)
N40_2 N 0.0124(3) 0.3171(8) 0.5640(3)
N42_2 N 0.1263(3) 0.0938(7) 0.6127(3)
C122_2 C 0.1273(4) 0.1804(10) 0.6070(4)
H81_2 H 0.1532 0.2124 0.6164
C123_2 C 0.0901(4) 0.2268(10) 0.5870(4)
H82_2 H 0.0906 0.2904 0.5844
C124_2 C 0.0539(4) 0.1819(10) 0.5718(4)
C125_2 C 0.0540(4) 0.0879(9) 0.5750(4)
H83_2 H 0.0294 0.0536 0.5631
C126_2 C 0.0910(4) 0.0470(9) 0.5962(4)
I23_2 I 0.13946(3) 0.01255(7) 0.71112(3)
Zn12_2 Zn 0.17517(5) 0.03500(11) 0.65575(5)
N43_2 N 0.2168(4) 0.1447(8) 0.6705(3)
C127_2 C 0.2148(4) 0.2005(9) 0.7007(4)
H85_2 H 0.1961 0.1873 0.7165
C128_2 C 0.2396(4) 0.2756(9) 0.7085(4)
H86_2 H 0.2386 0.3130 0.7304
C129_2 C 0.2660(4) 0.2988(9) 0.6852(4)
C130_2 C 0.2660(4) 0.2419(10) 0.6536(4)
H87_2 H 0.2828 0.2551 0.6360
C131_2 C 0.2410(5) 0.1654(10) 0.6482(4)
H88_2 H 0.2416 0.1260 0.6269
C132_2 C 0.2927(4) 0.3806(9) 0.6931(4)
N44_2 N 0.2827(3) 0.4415(7) 0.7175(3)
C133_2 C 0.3108(4) 0.5099(9) 0.7265(4)
N45_2 N 0.3414(3) 0.5253(8) 0.7084(3)
C134_2 C 0.3468(4) 0.4620(9) 0.6840(4)
N46_2 N 0.3240(4) 0.3864(7) 0.6762(3)
N47 N 0.3037(4) 0.6844(9) 0.8203(4)
C135_2 C 0.3344(5) 0.6903(12) 0.8059(5)
H89_2 H 0.3565 0.7314 0.8174
C136_2 C 0.3375(5) 0.6366(12) 0.7722(5)
H90_2 H 0.3602 0.6445 0.7606
C137_2 C 0.3065(5) 0.5739(10) 0.7578(4)
C138_2 C 0.2750(5) 0.5678(10) 0.7760(4)
H91_2 H 0.2530 0.5251 0.7671
C139_2 C 0.2751(5) 0.6230(10) 0.8071(4)
H92_2 H 0.2532 0.6163 0.8200
N48 N 0.4397(3) 0.4980(8) 0.6195(3)
C140_2 C 0.4267(4) 0.4155(10) 0.6300(4)
H93_2 H 0.4397 0.3634 0.6228
C141_2 C 0.3969(4) 0.4028(10) 0.6498(4)
H94_2 H 0.3886 0.3434 0.6544
C142_2 C 0.3785(4) 0.4757(10) 0.6634(4)
C143_2 C 0.3920(5) 0.5611(10) 0.6551(4)
H95_2 H 0.3800 0.6138 0.6630
C144_2 C 0.4231(4) 0.5679(10) 0.6353(4)
H96_2 H 0.4337 0.6264 0.6326
Zn13 Zn 0.30605(5) 0.76728(12) 0.86924(5)
Zn16 Zn 0.48131(5) 0.50533(11) 0.58713(5)
C6_2 C 0.4437(5) 0.5792(11) 0.0071(4)
N2_2 N 0.4405(4) 0.4908(9) 0.0135(4)
C7_2 C 0.4726(5) 0.4581(11) 0.0447(5)
N3_2 N 0.5060(4) 0.5043(8) 0.0664(4)
C8_2 C 0.5069(4) 0.5895(10) 0.0552(4)
N4_2 N 0.4771(4) 0.6325(9) 0.0263(4)
C9_2 C 0.5092(6) 0.2364(12) 0.0861(6)
H5_2 H 0.5328 0.2151 0.1065
C10_2 C 0.5082(6) 0.3251(12) 0.0788(5)
H6_2 H 0.5313 0.3624 0.0920
C11_2 C 0.4744(5) 0.3607(12) 0.0527(5)
C12_2 C 0.4460(5) 0.3025(12) 0.0305(6)
H7_2 H 0.4231 0.3225 0.0091
C13_2 C 0.4521(6) 0.2068(13) 0.0410(6)
H8_2 H 0.4322 0.1649 0.0259
N6_2 N 0.6195(4) 0.7306(10) 0.1134(4)
C14_2 C 0.5874(5) 0.7780(11) 0.0928(5)
H9_2 H 0.5898 0.8415 0.0908
C15_2 C 0.5479(5) 0.7324(11) 0.0728(5)
H10_2 H 0.5238 0.7665 0.0591
C16_2 C 0.5457(5) 0.6448(11) 0.0739(5)
C17_2 C 0.5807(5) 0.5948(12) 0.0964(6)
H11_2 H 0.5796 0.5311 0.0981
C18_2 C 0.6162(6) 0.6421(13) 0.1155(6)
H12_2 H 0.6398 0.6096 0.1312
I3_2 I 0.64236(5) 0.82542(11) 0.20970(4)
Zn2_2 Zn 0.67147(6) 0.79399(12) 0.15099(7)
I4_2 I 0.70693(4) 0.89939(9) 0.11302(5)
N7_2 N 0.7123(4) 0.6825(8) 0.1653(4)
C19_2 C 0.7326(4) 0.6549(10) 0.1393(5)
H13_2 H 0.7286 0.6863 0.1148
C20_2 C 0.7590(4) 0.5826(10) 0.1470(5)
H14_2 H 0.7730 0.5632 0.1279
C21_2 C 0.7650(4) 0.5384(10) 0.1822(4)
C22_2 C 0.7439(4) 0.5641(9) 0.2100(4)
H15_2 H 0.7479 0.5329 0.2345
C23_2 C 0.7169(4) 0.6372(10) 0.2004(4)
H16_2 H 0.7014 0.6559 0.2183
C24_2 C 0.7935(4) 0.4563(9) 0.1900(4)
N8_2 N 0.8244(4) 0.4528(7) 0.1715(3)
C25_2 C 0.8479(4) 0.3807(9) 0.1792(4)
N9_2 N 0.8468(4) 0.3159(8) 0.2059(3)
C26_2 C 0.8151(4) 0.3260(9) 0.2225(4)
N10_2 N 0.7872(3) 0.3946(7) 0.2162(3)
N11_2 N 0.9398(4) 0.3371(8) 0.1139(4)
C27_2 C 0.9231(5) 0.2658(11) 0.1307(5)
H17_2 H 0.9305 0.2054 0.1267
C28_2 C 0.8956(5) 0.2839(11) 0.1530(5)
H18_2 H 0.8865 0.2350 0.1662
C29_2 C 0.8808(5) 0.3667(9) 0.1575(4)
C30_2 C 0.8962(5) 0.4409(10) 0.1398(4)
H19_2 H 0.8871 0.5008 0.1422
C31_2 C 0.9251(5) 0.4209(10) 0.1188(4)
H20_2 H 0.9356 0.4698 0.1068
N12_2 N 0.8134(4) 0.1380(8) 0.3158(4)
C32_2 C 0.7861(4) 0.2048(9) 0.3078(4)
H21_2 H 0.7668 0.2105 0.3235
C33_2 C 0.7838(4) 0.2691(9) 0.2772(4)
H22_2 H 0.7635 0.3162 0.2723
C34_2 C 0.8130(4) 0.2601(9) 0.2543(4)
C35_2 C 0.8428(5) 0.1878(10) 0.2631(4)
H23_2 H 0.8627 0.1789 0.2482
C36_2 C 0.8413(5) 0.1328(11) 0.2935(5)
H24_2 H 0.8617 0.0859 0.2998
I5_2 I 0.95631(4) 0.40588(7) 0.01768(3)
Zn3_2 Zn 0.98118(5) 0.31420(11) 0.08118(5)
N13_2 N 0.9730(4) 0.1779(8) 0.0675(3)
C37_2 C 0.9475(4) 0.1461(9) 0.0348(4)
H25_2 H 0.9301 0.1870 0.0165
C38_2 C 0.9449(4) 0.0545(10) 0.0255(4)
H26_2 H 0.9265 0.0339 0.0010
C40_2 C 0.9946(5) 0.0244(10) 0.0866(4)
C41_2 C 0.9933(5) 0.1200(10) 0.0932(5)
Zn17_2 Zn 0.81983(5) 0.05176(11) 0.36254(4)
I1_2 I 0.33910(4) 0.91370(8) 0.85571(4)
I2_2 I 0.23719(3) 0.75194(9) 0.88806(3)
N1_2 N 0.3518(4) 0.7046(8) 0.9124(4)
C1_2 C 0.3520(5) 0.6208(11) 0.9182(4)
H1_2 H 0.3311 0.5859 0.9000
C2_2 C 0.3811(5) 0.5742(11) 0.9498(4)
H2_2 H 0.3787 0.5111 0.9530
C3_2 C 0.4120(4) 0.6219(11) 0.9749(4)
C4_2 C 0.4153(5) 0.7116(11) 0.9696(5)
H3_2 H 0.4386 0.7451 0.9850
C5_2 C 0.3813(5) 0.7550(12) 0.9389(5)
H4_2 H 0.3798 0.8189 0.9376
N29_2 N 0.7193(3) 0.1647(7) 0.6420(3)
C81_2 C 0.7411(4) 0.1305(9) 0.6205(5)
H53_2 H 0.7397 0.1558 0.5952
C82_2 C 0.7671(4) 0.0562(9) 0.6339(4)
H54_2 H 0.7826 0.0300 0.6174
C83_2 C 0.7704(4) 0.0205(10) 0.6717(4)
C84_2 C 0.7475(4) 0.0591(10) 0.6948(4)
H55_2 H 0.7492 0.0360 0.7206
C85_2 C 0.7222(4) 0.1315(9) 0.6801(4)
H56_2 H 0.7065 0.1593 0.6960
I15_2 I 0.69164(3) 0.32589(7) 0.55526(3)
Zn8_2 Zn 0.67743(5) 0.26881(11) 0.61952(5)
I16_2 I 0.67526(4) 0.37625(8) 0.67367(4)
N31_2 N 0.6224(4) 0.1976(8) 0.6013(4)
C91_2 C 0.5835(4) 0.2395(10) 0.5869(5)
H61_2 H 0.5822 0.3033 0.5886
C92_2 C 0.5468(4) 0.1937(9) 0.5704(4)
H62_2 H 0.5207 0.2251 0.5614
C93_2 C 0.5480(4) 0.0996(9) 0.5671(4)
C94_2 C 0.5857(4) 0.0599(10) 0.5794(5)
C95_2 C 0.6216(5) 0.1086(10) 0.5959(5)
H64_2 H 0.6476 0.0769 0.6041
C96_2 C 0.5096(4) 0.0494(9) 0.5473(4)
N32_2 N 0.4799(3) 0.0902(8) 0.5205(3)
C97_2 C 0.4467(4) 0.0377(10) 0.5008(4)
C99_2 C 0.3534(5) 0.0826(9) 0.4117(4)
H65_2 H 0.3334 0.0508 0.3914
C100_2 C 0.3848(4) 0.0335(9) 0.4425(4)
C101_2 C 0.4138(4) 0.0827(9) 0.4696(4)
C102_2 C 0.4118(4) 0.1766(9) 0.4692(4)
H67_2 H 0.4307 0.2113 0.4893
C103_2 C 0.3813(4) 0.2178(9) 0.4387(4)
H68_2 H 0.3810 0.2816 0.4370
N17_2 N 0.8485(3) 0.6456(8) 0.9123(3)
C45_2 C 0.8819(4) 0.6018(10) 0.9346(4)
H29_2 H 0.8833 0.5387 0.9305
C46_2 C 0.9137(5) 0.6397(10) 0.9625(4)
H30_2 H 0.9375 0.6046 0.9759
C47_2 C 0.9118(4) 0.7313(9) 0.9717(4)
C48_2 C 0.8765(4) 0.7777(10) 0.9479(4)
H31_2 H 0.8735 0.8405 0.9514
C49_2 C 0.8481(4) 0.7344(10) 0.9209(4)
H32_2 H 0.8247 0.7683 0.9058
I13_2 I 0.73033(3) 0.60946(8) 0.88434(3)
Zn7_2 Zn 0.80109(5) 0.58424(12) 0.87047(5)
I14_2 I 0.82885(4) 0.43297(7) 0.85800(4)
N25_2 N 0.8039(4) 0.6613(9) 0.8208(3)
C73_2 C 0.7716(4) 0.7083(10) 0.8011(4)
H49_2 H 0.7459 0.7067 0.8085
C74_2 C 0.7750(4) 0.7618(10) 0.7687(4)
H50_2 H 0.7516 0.7972 0.7544
C75_2 C 0.8119(4) 0.7626(10) 0.7578(4)
C76_2 C 0.8442(4) 0.7087(10) 0.7782(4)
H51_2 H 0.8702 0.7080 0.7713
C77_2 C 0.8389(5) 0.6545(12) 0.8093(5)
H52_2 H 0.8603 0.6130 0.8221
C78_2 C 0.8159(4) 0.8189(9) 0.7235(4)
N26_2 N 0.7905(3) 0.8896(8) 0.7140(3)
C79_2 C 0.7981(4) 0.9383(9) 0.6849(4)
N27_2 N 0.8288(3) 0.9248(7) 0.6670(3)
C80_2 C 0.8520(4) 0.8510(9) 0.6783(4)
N28_2 N 0.8475(3) 0.7966(7) 0.7085(3)
N30_2 N 0.9437(3) 0.7935(7) 0.6163(3)
C86_2 C 0.9276(4) 0.7273(9) 0.6351(4)
H57_2 H 0.9371 0.6672 0.6342
C87_2 C 0.8983(5) 0.7451(10) 0.6552(4)
H58_2 H 0.8877 0.6968 0.6676
C88_2 C 0.8836(4) 0.8307(9) 0.6581(4)
C89_2 C 0.8991(4) 0.8968(10) 0.6391(4)
H59_2 H 0.8887 0.9564 0.6394
C90_2 C 0.9296(4) 0.8799(9) 0.6191(4)
H60_2 H 0.9408 0.9283 0.6073
H63_2 H 0.5878 0.9966 0.5767
N33_2 N 0.4444(3) 0.9487(8) 0.5062(3)
C98_2 C 0.4766(4) 0.9130(9) 0.5358(4)
N34_2 N 0.5103(3) 0.9604(7) 0.5565(3)
H66_2 H 0.3850 0.9696 0.4435
N36_2 N 0.4782(4) 0.6350(8) 0.5674(4)
C104_2 C 0.5099(5) 0.6889(10) 0.5841(5)
H69_2 H 0.5334 0.6654 0.6039
C105_2 C 0.5100(5) 0.7838(10) 0.5731(5)
H70_2 H 0.5331 0.8216 0.5857
C106_2 C 0.4763(4) 0.8172(9) 0.5446(4)
C107_2 C 0.4449(4) 0.7608(9) 0.5265(4)
H71_2 H 0.4212 0.7822 0.5064
C108_2 C 0.4478(5) 0.6702(10) 0.5377(5)
H72_2 H 0.4264 0.6307 0.5230
I17_2 I 0.55405(3) 0.47618(7) 0.63449(4)
I18_2 I 0.45215(3) 0.39907(7) 0.52805(3)
I19_2 I 0.96424(3) 0.87835(7) 0.52732(3)
Zn10_2 Zn 0.98952(5) 0.77593(11) 0.58771(5)
N37_2 N 0.9835(4) 0.6401(8) 0.5732(3)
C109_2 C 0.9543(4) 0.6099(10) 0.5397(4)
H73_2 H 0.9358 0.6512 0.5227
C110_2 C 0.9520(4) 0.5217(10) 0.5310(4)
H74_2 H 0.9312 0.5023 0.5078
C111_2 C 0.9783(4) 0.4567(9) 0.5543(4)
C114_2 C 0.9786(4) 0.3600(9) 0.5438(4)
N38_2 N 0.9473(3) 0.3291(8) 0.5142(3)
C115_2 C 0.9526(4) 0.2437(9) 0.5056(4)
N39_2 N 0.9854(3) 0.1898(8) 0.5230(3)
N41_2 N 0.8649(3) 0.1143(8) 0.4088(3)
C117_2 C 0.8935(4) 0.0708(10) 0.4332(4)
H77_2 H 0.8953 0.0080 0.4286
C118_2 C 0.9217(4) 0.1063(10) 0.4653(4)
H78_2 H 0.9422 0.0690 0.4826
C119_2 C 0.9202(4) 0.2021(9) 0.4729(4)
C120_2 C 0.8886(4) 0.2499(10) 0.4452(4)
H79_2 H 0.8865 0.3133 0.4477
C121_2 C 0.8612(4) 0.2066(8) 0.4152(4)
H80_2 H 0.8388 0.2395 0.3979
I22_2 I 0.75334(3) 0.04586(8) 0.38501(3)
H27_2 H 0.0124 0.9850 0.1053
C44_2 C 0.0052(4) 0.7655(9) 0.0516(4)
N16_2 N 0.0026(4) 0.8534(8) 0.0638(3)
N18_2 N 0.1174(3) 0.6236(7) 0.1063(3)
C50_2 C 0.1175(5) 0.7123(9) 0.1055(4)
H33_2 H 0.1435 0.7435 0.1157
C51_2 C 0.0806(4) 0.7611(10) 0.0903(4)
H34_2 H 0.0809 0.8250 0.0913
C52_2 C 0.0432(4) 0.7142(9) 0.0734(4)
C53_2 C 0.0439(5) 0.6194(10) 0.0749(4)
H35_2 H 0.0192 0.5845 0.0641
C54_2 C 0.0818(4) 0.5806(10) 0.0927(4)
H36_2 H 0.0823 0.5170 0.0954
I7_2 I 0.18027(4) 0.51719(9) 0.04949(4)
Zn4_2 Zn 0.17484(5) 0.55396(12) 0.11958(5)
I8_2 I 0.17869(4) 0.43533(8) 0.17026(4)
N19_2 N 0.2182(4) 0.6544(8) 0.1437(3)
C55_2 C 0.2422(5) 0.6888(11) 0.1213(5)
H37_2 H 0.2399 0.6637 0.0957
C56_2 C 0.2701(4) 0.7595(11) 0.1345(4)
H38_2 H 0.2875 0.7811 0.1188
C57_2 C 0.2720(4) 0.7971(10) 0.1704(4)
C58_2 C 0.2486(4) 0.7611(10) 0.1938(4)
H39_2 H 0.2504 0.7857 0.2194
C59_2 C 0.2213(5) 0.6858(10) 0.1791(4)
H40_2 H 0.2055 0.6592 0.1953
C60_2 C 0.3005(4) 0.8763(10) 0.1844(4)
N20_2 N 0.3291(4) 0.8916(8) 0.1645(3)
C61_2 C 0.3551(5) 0.9614(10) 0.1773(5)
C62_2 C 0.3211(4) 0.9953(9) 0.2240(4)
N22_2 N 0.2941(3) 0.9284(8) 0.2134(3)
C65_2 C 0.3856(5) 0.9809(11) 0.1546(5)
C66_2 C 0.3938(5) 0.9261(13) 0.1267(5)
H43_2 H 0.3790 0.8706 0.1212
C67_2 C 0.4207(5) 0.9453(12) 0.1070(5)
H44_2 H 0.4228 0.9062 0.0860
I10_2 I 0.46401(5) 0.94716(9) 0.02081(4)
H84_2 H 0.0915 0.9834 0.5992
I24_2 I 0.21167(3) 0.91553(7) 0.62477(3)
C39_2 C 0.9690(4) 0.9948(9) 0.0521(4)
C42_2 C 0.9688(4) 0.8966(9) 0.0416(4)
N14_2 N 0.9394(3) 0.8636(7) 0.0120(3)
C43_2 C 0.9451(4) 0.7763(9) 0.0037(4)
N15_2 N 0.9765(4) 0.7250(8) 0.0235(3)
I21_2 I 0.85678(4) 0.91286(7) 0.34561(3)
loop_
_geom_bond_atom_site_label_1
_geom_bond_atom_site_label_2
_geom_bond_site_symmetry_1
_geom_bond_site_symmetry_2
I1 Zn1 1_555 1_555
Zn1 I2 1_555 1_555
N1 Zn1 1_555 1_555
C1 N1 1_555 1_555
H1 C1 1_555 1_555
C2 C1 1_555 1_555
H2 C2 1_555 1_555
C3 C2 1_555 1_555
C4 C3 1_555 1_555
H3 C4 1_555 1_555
C5 N1 1_555 1_555
H4 C5 1_555 1_555
N52 Zn1 1_555 1_555
C4 C5 1_555 1_555
N17 C45 1_555 1_555
C45 H29 1_555 1_555
C46 C45 1_555 1_555
H30 C46 1_555 1_555
C48 C47 1_555 1_555
H31 C48 1_555 1_555
C49 N17 1_555 1_555
H32 C49 1_555 1_555
I13 Zn7 1_555 1_555
Zn7 N17 1_555 1_555
N25 Zn7 1_555 1_555
C73 N25 1_555 1_555
H49 C73 1_555 1_555
C74 C73 1_555 1_555
H50 C74 1_555 1_555
C75 C74 1_555 1_555
C76 C75 1_555 1_555
H51 C76 1_555 1_555
C77 N25 1_555 1_555
H52 C77 1_555 1_555
C78 C75 1_555 1_555
N26 C78 1_555 1_555
C79 N26 1_555 1_555
N27 C79 1_555 1_555
C80 N27 1_555 1_555
N28 C78 1_555 1_555
N29 C81 1_555 1_555
C81 H53 1_555 1_555
C82 C81 1_555 1_555
H54 C82 1_555 1_555
C83 C79 1_555 1_555
C84 C83 1_555 1_555
H55 C84 1_555 1_555
C85 N29 1_555 1_555
H56 C85 1_555 1_555
I15 Zn8 1_555 1_555
Zn8 N29 1_555 1_555
I16 Zn8 1_555 1_555
N30 C86 1_555 1_555
C86 H57 1_555 1_555
C87 C86 1_555 1_555
H58 C87 1_555 1_555
C88 C80 1_555 1_555
C89 C88 1_555 1_555
H59 C89 1_555 1_555
C90 N30 1_555 1_555
H60 C90 1_555 1_555
N31 Zn8 1_555 1_555
C91 N31 1_555 1_555
H61 C91 1_555 1_555
C92 C91 1_555 1_555
H62 C92 1_555 1_555
C93 C92 1_555 1_555
C94 C93 1_555 1_555
H63 C94 1_555 1_555
C95 N31 1_555 1_555
H64 C95 1_555 1_555
C96 C93 1_555 1_555
N32 C96 1_555 1_555
C97 N32 1_555 1_555
N33 C97 1_555 1_555
C98 N33 1_555 1_555
N34 C96 1_555 1_555
N35 C99 1_555 1_555
C99 H65 1_555 1_555
C100 C99 1_555 1_555
H66 C100 1_555 1_555
C101 C97 1_555 1_555
C102 C101 1_555 1_555
H67 C102 1_555 1_555
C103 N35 1_555 1_555
H68 C103 1_555 1_555
N36 C104 1_555 1_555
C104 H69 1_555 1_555
C105 C104 1_555 1_555
H70 C105 1_555 1_555
C106 C98 1_555 1_555
C107 C106 1_555 1_555
H71 C107 1_555 1_555
C108 N36 1_555 1_555
H72 C108 1_555 1_555
Zn9 N36 1_555 1_555
I19 Zn10 1_555 1_555
Zn10 N30 1_555 1_555
N37 Zn10 1_555 1_555
C109 N37 1_555 1_555
H73 C109 1_555 1_555
C110 C109 1_555 1_555
H74 C110 1_555 1_555
Zn15 N35 1_555 1_555
C46 C47 1_555 1_555
C48 C49 1_555 1_555
C76 C77 1_555 1_555
C80 N28 1_555 1_555
C82 C83 1_555 1_555
C84 C85 1_555 1_555
C87 C88 1_555 1_555
C89 C90 1_555 1_555
C94 C95 1_555 1_555
C98 N34 1_555 1_555
C100 C101 1_555 1_555
C102 C103 1_555 1_555
C105 C106 1_555 1_555
C107 C108 1_555 1_555
C7 N2 1_555 1_555
N5 C9 1_555 1_555
C9 H5 1_555 1_555
C10 C9 1_555 1_555
H6 C10 1_555 1_555
C11 C7 1_555 1_555
C12 C11 1_555 1_555
H7 C12 1_555 1_555
C13 N5 1_555 1_555
H8 C13 1_555 1_555
N8 C24 1_555 1_555
C25 N8 1_555 1_555
N9 C25 1_555 1_555
C26 N9 1_555 1_555
N10 C24 1_555 1_555
N11 C27 1_555 1_555
C27 H17 1_555 1_555
C28 C27 1_555 1_555
H18 C28 1_555 1_555
C29 C25 1_555 1_555
C30 C29 1_555 1_555
C31 N11 1_555 1_555
H20 C31 1_555 1_555
N12 C32 1_555 1_555
C32 H21 1_555 1_555
C33 C32 1_555 1_555
H22 C33 1_555 1_555
C34 C26 1_555 1_555
C35 C34 1_555 1_555
H23 C35 1_555 1_555
C36 N12 1_555 1_555
H24 C36 1_555 1_555
I5 Zn3 1_555 1_555
Zn3 N11 1_555 1_555
N13 Zn3 1_555 1_555
C37 N13 1_555 1_555
H25 C37 1_555 1_555
C38 C37 1_555 1_555
H26 C38 1_555 1_555
C39 C38 1_555 1_555
C40 C39 1_555 1_555
C41 N13 1_555 1_555
C42 C39 1_555 1_555
N14 C42 1_555 1_555
C43 N14 1_555 1_555
N15 C43 1_555 1_555
Zn14 N5 1_555 1_555
Zn17 N12 1_555 1_555
C10 C11 1_555 1_555
C12 C13 1_555 1_555
C26 N10 1_555 1_555
C28 C29 1_555 1_555
C30 C31 1_555 1_555
C33 C34 1_555 1_555
C35 C36 1_555 1_555
C40 C41 1_555 1_555
C114 C111 1_555 1_555
N38 C114 1_555 1_555
C115 N38 1_555 1_555
N39 C115 1_555 1_555
N41 C117 1_555 1_555
C117 H77 1_555 1_555
C118 C117 1_555 1_555
H78 C118 1_555 1_555
C119 C115 1_555 1_555
C120 C119 1_555 1_555
H79 C120 1_555 1_555
C121 N41 1_555 1_555
H80 C121 1_555 1_555
I21 Zn17 1_555 1_555
Zn17 N41 1_555 1_555
I22 Zn17 1_555 1_555
C118 C119 1_555 1_555
C120 C121 1_555 1_555
H76 C113 1_555 1_555
N45 C133 1_555 1_555
N52 C135 1_555 1_555
C135 H89 1_555 1_555
C136 C135 1_555 1_555
H90 C136 1_555 1_555
C137 C133 1_555 1_555
C138 C137 1_555 1_555
H91 C138 1_555 1_555
C139 N52 1_555 1_555
H92 C139 1_555 1_555
H95 C143 1_555 1_555
H96 C144 1_555 1_555
C136 C137 1_555 1_555
C138 C139 1_555 1_555
C143 C144 1_555 1_555
N18 C50 1_555 1_555
C50 H33 1_555 1_555
C51 C50 1_555 1_555
H34 C51 1_555 1_555
C52 C44 1_555 1_555
C53 C52 1_555 1_555
H35 C53 1_555 1_555
C54 N18 1_555 1_555
H36 C54 1_555 1_555
I7 Zn4 1_555 1_555
Zn4 N18 1_555 1_555
N19 Zn4 1_555 1_555
C55 N19 1_555 1_555
H37 C55 1_555 1_555
C56 C55 1_555 1_555
H38 C56 1_555 1_555
C57 C56 1_555 1_555
C58 C57 1_555 1_555
H39 C58 1_555 1_555
C59 N19 1_555 1_555
H40 C59 1_555 1_555
C60 C57 1_555 1_555
N20 C60 1_555 1_555
C61 N20 1_555 1_555
N21 C61 1_555 1_555
C62 N21 1_555 1_555
N22 C60 1_555 1_555
N23 C63 1_555 1_555
C63 H41 1_555 1_555
C64 C63 1_555 1_555
H42 C64 1_555 1_555
C65 C61 1_555 1_555
C66 C65 1_555 1_555
H43 C66 1_555 1_555
C67 N23 1_555 1_555
H44 C67 1_555 1_555
N24 C68 1_555 1_555
C68 H45 1_555 1_555
C69 C68 1_555 1_555
H46 C69 1_555 1_555
C70 C62 1_555 1_555
C71 C70 1_555 1_555
H47 C71 1_555 1_555
C72 N24 1_555 1_555
H48 C72 1_555 1_555
I9 Zn14 1_555 1_555
Zn14 N23 1_555 1_555
I10 Zn14 1_555 1_555
I11 Zn15 1_555 1_555
Zn15 N24 1_555 1_555
I12 Zn15 1_555 1_555
C44 N16 1_555 1_555
C51 C52 1_555 1_555
C53 C54 1_555 1_555
C58 C59 1_555 1_555
C62 N22 1_555 1_555
C64 C65 1_555 1_555
C66 C67 1_555 1_555
C69 C70 1_555 1_555
C71 C72 1_555 1_555
H75 C112 1_555 1_555
N42 C122 1_555 1_555
C122 H81 1_555 1_555
C123 C122 1_555 1_555
H82 C123 1_555 1_555
C124 C116 1_555 1_555
C125 C124 1_555 1_555
H83 C125 1_555 1_555
C126 N42 1_555 1_555
H84 C126 1_555 1_555
I23 Zn12 1_555 1_555
Zn12 N42 1_555 1_555
I24 Zn12 1_555 1_555
N43 Zn12 1_555 1_555
C127 N43 1_555 1_555
H85 C127 1_555 1_555
C128 C127 1_555 1_555
H86 C128 1_555 1_555
C129 C128 1_555 1_555
C130 C129 1_555 1_555
H87 C130 1_555 1_555
C131 N43 1_555 1_555
H88 C131 1_555 1_555
C132 C129 1_555 1_555
N44 C132 1_555 1_555
N46 C132 1_555 1_555
N53 C140 1_555 1_555
C140 H93 1_555 1_555
C141 C140 1_555 1_555
H94 C141 1_555 1_555
C142 C134 1_555 1_555
C116 N40 1_555 1_555
C123 C124 1_555 1_555
C125 C126 1_555 1_555
C130 C131 1_555 1_555
C134 N46 1_555 1_555
C141 C142 1_555 1_555
C8 N3 1_555 1_555
N4 C6 1_555 1_555
N6 C14 1_555 1_555
C14 H9 1_555 1_555
C15 C14 1_555 1_555
H10 C15 1_555 1_555
C16 C8 1_555 1_555
C17 C16 1_555 1_555
H11 C17 1_555 1_555
C18 N6 1_555 1_555
H12 C18 1_555 1_555
I3 Zn2 1_555 1_555
Zn2 N6 1_555 1_555
I4 Zn2 1_555 1_555
N7 Zn2 1_555 1_555
C19 N7 1_555 1_555
H13 C19 1_555 1_555
C20 C19 1_555 1_555
H14 C20 1_555 1_555
C21 C20 1_555 1_555
C22 C21 1_555 1_555
H15 C22 1_555 1_555
C23 N7 1_555 1_555
H16 C23 1_555 1_555
C8 N4 1_555 1_555
C15 C16 1_555 1_555
C17 C18 1_555 1_555
C22 C23 1_555 1_555
N23_2 C63_2 1_555 1_555
C63_2 H41_2 1_555 1_555
C64_2 C63_2 1_555 1_555
H42_2 C64_2 1_555 1_555
N24_2 C68_2 1_555 1_555
C68_2 H45_2 1_555 1_555
C69_2 C68_2 1_555 1_555
H46_2 C69_2 1_555 1_555
C71_2 C70_2 1_555 1_555
H47_2 C71_2 1_555 1_555
C72_2 N24_2 1_555 1_555
H48_2 C72_2 1_555 1_555
I9_2 Zn5 1_555 1_555
Zn5 N23_2 1_555 1_555
I11_2 Zn6 1_555 1_555
Zn6 N24_2 1_555 1_555
I12_2 Zn6 1_555 1_555
N49 Zn5 1_555 1_555
N51 Zn6 1_555 1_555
C69_2 C70_2 1_555 1_555
C71_2 C72_2 1_555 1_555
H75_2 C112_2 1_555 1_555
H76_2 C113_2 1_555 1_555
N42_2 C122_2 1_555 1_555
C122_2 H81_2 1_555 1_555
C123_2 C122_2 1_555 1_555
H82_2 C123_2 1_555 1_555
C124_2 C116_2 1_555 1_555
C125_2 C124_2 1_555 1_555
H83_2 C125_2 1_555 1_555
C126_2 N42_2 1_555 1_555
I23_2 Zn12_2 1_555 1_555
Zn12_2 N42_2 1_555 1_555
N43_2 Zn12_2 1_555 1_555
C127_2 N43_2 1_555 1_555
H85_2 C127_2 1_555 1_555
C128_2 C127_2 1_555 1_555
H86_2 C128_2 1_555 1_555
C129_2 C128_2 1_555 1_555
C130_2 C129_2 1_555 1_555
H87_2 C130_2 1_555 1_555
C131_2 N43_2 1_555 1_555
H88_2 C131_2 1_555 1_555
C132_2 C129_2 1_555 1_555
N44_2 C132_2 1_555 1_555
C133_2 N44_2 1_555 1_555
N45_2 C133_2 1_555 1_555
C134_2 N45_2 1_555 1_555
N46_2 C132_2 1_555 1_555
N47 C135_2 1_555 1_555
C135_2 H89_2 1_555 1_555
C136_2 C135_2 1_555 1_555
H90_2 C136_2 1_555 1_555
C137_2 C133_2 1_555 1_555
C138_2 C137_2 1_555 1_555
H91_2 C138_2 1_555 1_555
C139_2 N47 1_555 1_555
H92_2 C139_2 1_555 1_555
N48 C140_2 1_555 1_555
C140_2 H93_2 1_555 1_555
C141_2 C140_2 1_555 1_555
H94_2 C141_2 1_555 1_555
C142_2 C134_2 1_555 1_555
C143_2 C142_2 1_555 1_555
H95_2 C143_2 1_555 1_555
C144_2 N48 1_555 1_555
H96_2 C144_2 1_555 1_555
Zn13 N47 1_555 1_555
Zn16 N48 1_555 1_555
C112_2 C113_2 1_555 1_555
C116_2 N40_2 1_555 1_555
C123_2 C124_2 1_555 1_555
C125_2 C126_2 1_555 1_555
C130_2 C131_2 1_555 1_555
C134_2 N46_2 1_555 1_555
C136_2 C137_2 1_555 1_555
C138_2 C139_2 1_555 1_555
C141_2 C142_2 1_555 1_555
C143_2 C144_2 1_555 1_555
N2_2 C6_2 1_555 1_555
C7_2 N2_2 1_555 1_555
N3_2 C7_2 1_555 1_555
C8_2 N3_2 1_555 1_555
N4_2 C6_2 1_555 1_555
N49 C9_2 1_555 1_555
C9_2 H5_2 1_555 1_555
C10_2 C9_2 1_555 1_555
H6_2 C10_2 1_555 1_555
C11_2 C7_2 1_555 1_555
C12_2 C11_2 1_555 1_555
H7_2 C12_2 1_555 1_555
C13_2 N49 1_555 1_555
H8_2 C13_2 1_555 1_555
N6_2 C14_2 1_555 1_555
C14_2 H9_2 1_555 1_555
C15_2 C14_2 1_555 1_555
H10_2 C15_2 1_555 1_555
C16_2 C8_2 1_555 1_555
C17_2 C16_2 1_555 1_555
H11_2 C17_2 1_555 1_555
C18_2 N6_2 1_555 1_555
H12_2 C18_2 1_555 1_555
I3_2 Zn2_2 1_555 1_555
Zn2_2 N6_2 1_555 1_555
I4_2 Zn2_2 1_555 1_555
N7_2 Zn2_2 1_555 1_555
C19_2 N7_2 1_555 1_555
H13_2 C19_2 1_555 1_555
C20_2 C19_2 1_555 1_555
H14_2 C20_2 1_555 1_555
C21_2 C20_2 1_555 1_555
C22_2 C21_2 1_555 1_555
H15_2 C22_2 1_555 1_555
C23_2 N7_2 1_555 1_555
H16_2 C23_2 1_555 1_555
C24_2 C21_2 1_555 1_555
N8_2 C24_2 1_555 1_555
C25_2 N8_2 1_555 1_555
N9_2 C25_2 1_555 1_555
C26_2 N9_2 1_555 1_555
N10_2 C24_2 1_555 1_555
N11_2 C27_2 1_555 1_555
C27_2 H17_2 1_555 1_555
C28_2 C27_2 1_555 1_555
H18_2 C28_2 1_555 1_555
C29_2 C25_2 1_555 1_555
C30_2 C29_2 1_555 1_555
H19_2 C30_2 1_555 1_555
C31_2 N11_2 1_555 1_555
H20_2 C31_2 1_555 1_555
N12_2 C32_2 1_555 1_555
C32_2 H21_2 1_555 1_555
C33_2 C32_2 1_555 1_555
H22_2 C33_2 1_555 1_555
C34_2 C26_2 1_555 1_555
C35_2 C34_2 1_555 1_555
H23_2 C35_2 1_555 1_555
C36_2 N12_2 1_555 1_555
H24_2 C36_2 1_555 1_555
I5_2 Zn3_2 1_555 1_555
Zn3_2 N11_2 1_555 1_555
N13_2 Zn3_2 1_555 1_555
C37_2 N13_2 1_555 1_555
H25_2 C37_2 1_555 1_555
C38_2 C37_2 1_555 1_555
H26_2 C38_2 1_555 1_555
C41_2 N13_2 1_555 1_555
Zn17_2 N12_2 1_555 1_555
C8_2 N4_2 1_555 1_555
C10_2 C11_2 1_555 1_555
C12_2 C13_2 1_555 1_555
C15_2 C16_2 1_555 1_555
C17_2 C18_2 1_555 1_555
C22_2 C23_2 1_555 1_555
C26_2 N10_2 1_555 1_555
C28_2 C29_2 1_555 1_555
C30_2 C31_2 1_555 1_555
C33_2 C34_2 1_555 1_555
C35_2 C36_2 1_555 1_555
C40_2 C41_2 1_555 1_555
I1_2 Zn13 1_555 1_555
Zn13 I2_2 1_555 1_555
N1_2 Zn13 1_555 1_555
C1_2 N1_2 1_555 1_555
H1_2 C1_2 1_555 1_555
C2_2 C1_2 1_555 1_555
H2_2 C2_2 1_555 1_555
C3_2 C2_2 1_555 1_555
C4_2 C3_2 1_555 1_555
H3_2 C4_2 1_555 1_555
C5_2 N1_2 1_555 1_555
H4_2 C5_2 1_555 1_555
N29_2 C81_2 1_555 1_555
C81_2 H53_2 1_555 1_555
C82_2 C81_2 1_555 1_555
H54_2 C82_2 1_555 1_555
C84_2 C83_2 1_555 1_555
H55_2 C84_2 1_555 1_555
C85_2 N29_2 1_555 1_555
H56_2 C85_2 1_555 1_555
I15_2 Zn8_2 1_555 1_555
Zn8_2 N29_2 1_555 1_555
I16_2 Zn8_2 1_555 1_555
N31_2 Zn8_2 1_555 1_555
C91_2 N31_2 1_555 1_555
H61_2 C91_2 1_555 1_555
C92_2 C91_2 1_555 1_555
H62_2 C92_2 1_555 1_555
C93_2 C92_2 1_555 1_555
C94_2 C93_2 1_555 1_555
C95_2 N31_2 1_555 1_555
H64_2 C95_2 1_555 1_555
C96_2 C93_2 1_555 1_555
N32_2 C96_2 1_555 1_555
C97_2 N32_2 1_555 1_555
N51 C99_2 1_555 1_555
C99_2 H65_2 1_555 1_555
C100_2 C99_2 1_555 1_555
C101_2 C97_2 1_555 1_555
C102_2 C101_2 1_555 1_555
H67_2 C102_2 1_555 1_555
C103_2 N51 1_555 1_555
H68_2 C103_2 1_555 1_555
C4_2 C5_2 1_555 1_555
C82_2 C83_2 1_555 1_555
C84_2 C85_2 1_555 1_555
C94_2 C95_2 1_555 1_555
C100_2 C101_2 1_555 1_555
C102_2 C103_2 1_555 1_555
N17_2 C45_2 1_555 1_555
C45_2 H29_2 1_555 1_555
C46_2 C45_2 1_555 1_555
H30_2 C46_2 1_555 1_555
C48_2 C47_2 1_555 1_555
H31_2 C48_2 1_555 1_555
C49_2 N17_2 1_555 1_555
H32_2 C49_2 1_555 1_555
I13_2 Zn7_2 1_555 1_555
Zn7_2 N17_2 1_555 1_555
I14_2 Zn7_2 1_555 1_555
N25_2 Zn7_2 1_555 1_555
C73_2 N25_2 1_555 1_555
H49_2 C73_2 1_555 1_555
C74_2 C73_2 1_555 1_555
H50_2 C74_2 1_555 1_555
C75_2 C74_2 1_555 1_555
C76_2 C75_2 1_555 1_555
H51_2 C76_2 1_555 1_555
C77_2 N25_2 1_555 1_555
H52_2 C77_2 1_555 1_555
C78_2 C75_2 1_555 1_555
N26_2 C78_2 1_555 1_555
C79_2 N26_2 1_555 1_555
N27_2 C79_2 1_555 1_555
C80_2 N27_2 1_555 1_555
N28_2 C78_2 1_555 1_555
N30_2 C86_2 1_555 1_555
C86_2 H57_2 1_555 1_555
C87_2 C86_2 1_555 1_555
H58_2 C87_2 1_555 1_555
C88_2 C80_2 1_555 1_555
C89_2 C88_2 1_555 1_555
H59_2 C89_2 1_555 1_555
C90_2 N30_2 1_555 1_555
H60_2 C90_2 1_555 1_555
C98_2 N33_2 1_555 1_555
N36_2 C104_2 1_555 1_555
C104_2 H69_2 1_555 1_555
C105_2 C104_2 1_555 1_555
H70_2 C105_2 1_555 1_555
C106_2 C98_2 1_555 1_555
C107_2 C106_2 1_555 1_555
H71_2 C107_2 1_555 1_555
C108_2 N36_2 1_555 1_555
H72_2 C108_2 1_555 1_555
I17_2 Zn16 1_555 1_555
Zn16 N36_2 1_555 1_555
I18_2 Zn16 1_555 1_555
I19_2 Zn10_2 1_555 1_555
Zn10_2 N30_2 1_555 1_555
N37_2 Zn10_2 1_555 1_555
C109_2 N37_2 1_555 1_555
H73_2 C109_2 1_555 1_555
C110_2 C109_2 1_555 1_555
H74_2 C110_2 1_555 1_555
C111_2 C110_2 1_555 1_555
C114_2 C111_2 1_555 1_555
N38_2 C114_2 1_555 1_555
C115_2 N38_2 1_555 1_555
N39_2 C115_2 1_555 1_555
N41_2 C117_2 1_555 1_555
C117_2 H77_2 1_555 1_555
C118_2 C117_2 1_555 1_555
H78_2 C118_2 1_555 1_555
C119_2 C115_2 1_555 1_555
C120_2 C119_2 1_555 1_555
H79_2 C120_2 1_555 1_555
C121_2 N41_2 1_555 1_555
H80_2 C121_2 1_555 1_555
Zn17_2 N41_2 1_555 1_555
I22_2 Zn17_2 1_555 1_555
C46_2 C47_2 1_555 1_555
C48_2 C49_2 1_555 1_555
C76_2 C77_2 1_555 1_555
C80_2 N28_2 1_555 1_555
C87_2 C88_2 1_555 1_555
C89_2 C90_2 1_555 1_555
C98_2 N34_2 1_555 1_555
C105_2 C106_2 1_555 1_555
C107_2 C108_2 1_555 1_555
C118_2 C119_2 1_555 1_555
C120_2 C121_2 1_555 1_555
N18_2 C50_2 1_555 1_555
C50_2 H33_2 1_555 1_555
C51_2 C50_2 1_555 1_555
H34_2 C51_2 1_555 1_555
C52_2 C44_2 1_555 1_555
C53_2 C52_2 1_555 1_555
H35_2 C53_2 1_555 1_555
C54_2 N18_2 1_555 1_555
H36_2 C54_2 1_555 1_555
I7_2 Zn4_2 1_555 1_555
Zn4_2 N18_2 1_555 1_555
I8_2 Zn4_2 1_555 1_555
N19_2 Zn4_2 1_555 1_555
C55_2 N19_2 1_555 1_555
H37_2 C55_2 1_555 1_555
C56_2 C55_2 1_555 1_555
H38_2 C56_2 1_555 1_555
C57_2 C56_2 1_555 1_555
C58_2 C57_2 1_555 1_555
H39_2 C58_2 1_555 1_555
C59_2 N19_2 1_555 1_555
H40_2 C59_2 1_555 1_555
C60_2 C57_2 1_555 1_555
N20_2 C60_2 1_555 1_555
C61_2 N20_2 1_555 1_555
N22_2 C60_2 1_555 1_555
C65_2 C61_2 1_555 1_555
C66_2 C65_2 1_555 1_555
H43_2 C66_2 1_555 1_555
H44_2 C67_2 1_555 1_555
C44_2 N16_2 1_555 1_555
C51_2 C52_2 1_555 1_555
C53_2 C54_2 1_555 1_555
C58_2 C59_2 1_555 1_555
C62_2 N22_2 1_555 1_555
C66_2 C67_2 1_555 1_555
C42_2 C39_2 1_555 1_555
N14_2 C42_2 1_555 1_555
C43_2 N14_2 1_555 1_555
N15_2 C43_2 1_555 1_555

#END
