
###############################################################################
#
# This file contains modified crystal structure data generated from the
# MOF subset of the Cambridge Structural Database (CSD) v543 
# hosted by the Cambridge Crystallographic Data Centre (CCDC).
#
# This work is licensed under the Creative Commons
# Attribution-NonCommercial-ShareAlike 4.0 International License.
# To view a copy of this license, visit
# http://creativecommons.org/licenses/by-nc-sa/4.0/
# or send a letter to
# Creative Commons, PO Box 1866, Mountain View, CA 94042, USA.
#
# CIF created using the CSD Python API on 29 September 2022
# The structure has been converted into the P1 space group
# The structure has a 3D framework
# The original CSD entry REXDIJ is in the monoclinic crystal system
# The framework has been calculated to contain at least 10.0% void space
# The void calculation uses a probe of radius 1.32A, grid spacing 0.4
#
###############################################################################

data_REXDIJ
_chemical_formula_moiety         '(C288 H192 I48 N96 Zn24)n'
_symmetry_cell_setting           triclinic
_symmetry_space_group_name_H-M   'P 1'
_symmetry_Int_Tables_number      1
_space_group_name_Hall           'P 1'
loop_
_symmetry_equiv_pos_site_id
_symmetry_equiv_pos_as_xyz
1 x,y,z
_cell_length_a                   35.862(5)
_cell_length_b                   14.902(2)
_cell_length_c                   31.358(5)
_cell_angle_alpha                90
_cell_angle_beta                 102.694(2)
_cell_angle_gamma                90
_cell_volume                     16348.6
loop_
_atom_site_label
_atom_site_type_symbol
_atom_site_fract_x
_atom_site_fract_y
_atom_site_fract_z
C1 C 0.2800(3) 0.0263(6) 0.6910(5)
C2 C 0.2735(4) 0.1172(6) 0.6918(4)
H2 H 0.2508 0.1407 0.6739
C3 C 0.2985(3) 0.1753(6) 0.7175(3)
C4 C 0.3314(3) 0.1391(8) 0.7419(4)
H3 H 0.3498 0.1760 0.7603
C5 C 0.3376(4) 0.0468(7) 0.7391(4)
H4 H 0.3606 0.0220 0.7559
C6 C 0.2902(3) 0.2726(6) 0.7207(3)
N2 N 0.2593(2) 0.3096(5) 0.6936(3)
C7 C 0.2542(3) 0.3955(7) 0.7014(3)
N3 N 0.2764(2) 0.4462(5) 0.7305(2)
C8 C 0.3068(3) 0.4039(6) 0.7541(3)
N4 N 0.3160(2) 0.3177(5) 0.7504(2)
N5 N 0.1630(3) 0.5332(5) 0.6154(3)
C9 C 0.1857(3) 0.5749(7) 0.6492(3)
H5 H 0.1808 0.6364 0.6539
C10 C 0.2151(3) 0.5348(7) 0.6771(4)
H6 H 0.2314 0.5686 0.6993
C11 C 0.2212(3) 0.4430(7) 0.6726(3)
C12 C 0.1970(3) 0.3995(7) 0.6387(4)
H7 H 0.2000 0.3371 0.6344
C13 C 0.1687(3) 0.4461(6) 0.6112(4)
H8 H 0.1524 0.4146 0.5880
N6 N 0.3866(3) 0.5511(5) 0.8508(3)
C14 C 0.3923(4) 0.4652(7) 0.8434(5)
H9 H 0.4143 0.4359 0.8600
C15 C 0.3666(4) 0.4166(7) 0.8117(5)
H10 H 0.3721 0.3561 0.8057
C16 C 0.3334(3) 0.4566(6) 0.7891(3)
C17 C 0.3275(4) 0.5476(7) 0.7973(3)
H11 H 0.3059 0.5787 0.7811
C18 C 0.3541(4) 0.5909(8) 0.8295(3)
H12 H 0.3492 0.6510 0.8369
Zn2 Zn 0.12204(4) 0.59980(10) 0.57029(6)
I3 I 0.14467(3) 0.59917(10) 0.49929(4)
I4 I 0.10416(4) 0.73903(8) 0.60754(5)
N7 N 0.0764(3) 0.5120(7) 0.5645(3)
C19 C 0.0617(4) 0.4657(7) 0.5286(4)
H13 H 0.0738 0.4710 0.5047
C20 C 0.0306(3) 0.4110(7) 0.5236(3)
H14 H 0.0204 0.3818 0.4966
C21 C 0.0150(3) 0.4005(8) 0.5589(4)
C22 C 0.0302(4) 0.4405(10) 0.5985(4)
H15 H 0.0192 0.4322 0.6232
C23 C 0.0622(4) 0.4931(12) 0.6005(5)
H16 H 0.0748 0.5171 0.6279
Zn5 Zn 0.42708(5) 0.61689(9) 0.89855(4)
H14_2 H 0.5204 0.1182 0.9966
N11 N 0.4384(3) 0.5145(6) 0.9435(3)
C27 C 0.4132(4) 0.4971(8) 0.9682(4)
H17 H 0.3933 0.5393 0.9681
C28 C 0.4145(4) 0.4215(8) 0.9938(4)
C29 C 0.4450(3) 0.3664(8) 0.9997(4)
C30 C 0.4726(3) 0.3830(7) 0.9751(3)
H19 H 0.4934 0.3434 0.9758
C31 C 0.4680(3) 0.4591(6) 0.9501(4)
H20 H 0.4881 0.4737 0.9360
I5 I 0.48462(4) 0.64181(8) 0.86506(4)
I6 I 0.39445(4) 0.73809(6) 0.93158(3)
Zn1 Zn 0.32502(6) 0.85457(9) 0.71740(6)
I1 I 0.36945(5) 0.82618(8) 0.79177(4)
I2 I 0.26287(4) 0.76933(6) 0.69162(5)
N1 N 0.3128(3) 0.9928(6) 0.7141(3)
H1 H 0.2614 0.9878 0.6741
N14 N 0.3572(3) 0.8389(7) 0.6706(4)
C24 C 0.9817(3) 0.3377(6) 0.5568(3)
N8 N 0.9769(3) 0.2730(5) 0.5266(2)
C25 C 0.9492(3) 0.2113(7) 0.5282(3)
N9 N 0.9250(3) 0.2231(6) 0.5555(3)
C26 C 0.9318(3) 0.2937(7) 0.5835(3)
N10 N 0.9605(2) 0.3505(6) 0.5860(3)
C27_2 C 0.9132(4) 0.0029(8) 0.4682(4)
C28_2 C 0.9145(4) 0.0785(8) 0.4938(4)
H18 H 0.8938 0.0918 0.5073
C29_2 C 0.9450(3) 0.1336(8) 0.4997(4)
C30_2 C 0.9726(3) 0.1170(7) 0.4751(3)
H19_2 H 0.9934 0.1566 0.4758
C31_2 C 0.9680(3) 0.0409(6) 0.4501(4)
H20_2 H 0.9881 0.0263 0.4360
N12 N 0.8572(3) 0.3389(7) 0.6706(4)
C32 C 0.8934(4) 0.3668(11) 0.6799(5)
H21 H 0.9024 0.3980 0.7066
C33 C 0.9183(4) 0.3533(11) 0.6531(4)
H22 H 0.9438 0.3754 0.6611
C34 C 0.9063(3) 0.3078(7) 0.6151(3)
C35 C 0.8698(3) 0.2732(8) 0.6075(4)
H23 H 0.8608 0.2385 0.5819
C36 C 0.8462(4) 0.2871(9) 0.6357(4)
H24 H 0.8217 0.2595 0.6302
Zn4 Zn 0.82502(6) 0.35457(9) 0.71740(6)
I1_2 I 0.86945(5) 0.32618(8) 0.79177(4)
I2_2 I 0.76287(4) 0.26933(6) 0.69162(5)
N1_2 N 0.8128(3) 0.4928(6) 0.7141(3)
C1_2 C 0.7800(3) 0.5263(6) 0.6910(5)
H1_2 H 0.7614 0.4878 0.6741
C2_2 C 0.7735(4) 0.6172(6) 0.6918(4)
H2_2 H 0.7508 0.6407 0.6739
C3_2 C 0.7985(3) 0.6753(6) 0.7175(3)
C4_2 C 0.8314(3) 0.6391(8) 0.7419(4)
H3_2 H 0.8498 0.6760 0.7603
C5_2 C 0.8376(4) 0.5468(7) 0.7391(4)
H4_2 H 0.8606 0.5220 0.7559
C6_2 C 0.7902(3) 0.7726(6) 0.7207(3)
N2_2 N 0.7593(2) 0.8096(5) 0.6936(3)
C7_2 C 0.7542(3) 0.8955(7) 0.7014(3)
N3_2 N 0.7764(2) 0.9462(5) 0.7305(2)
C8_2 C 0.8068(3) 0.9039(6) 0.7541(3)
N4_2 N 0.8160(2) 0.8177(5) 0.7504(2)
C11_2 C 0.7212(3) 0.9430(7) 0.6726(3)
C12_2 C 0.6970(3) 0.8995(7) 0.6387(4)
H7_2 H 0.7000 0.8371 0.6344
C13_2 C 0.6687(3) 0.9461(6) 0.6112(4)
H8_2 H 0.6524 0.9146 0.5880
C14_2 C 0.8923(4) 0.9652(7) 0.8434(5)
H9_2 H 0.9143 0.9359 0.8600
C15_2 C 0.8666(4) 0.9166(7) 0.8117(5)
H10_2 H 0.8721 0.8561 0.8057
C16_2 C 0.8334(3) 0.9566(6) 0.7891(3)
C19_2 C 0.5617(4) 0.9657(7) 0.5286(4)
H13_2 H 0.5738 0.9710 0.5047
C20_2 C 0.5306(3) 0.9110(7) 0.5236(3)
H14_3 H 0.5204 0.8818 0.4966
C21_2 C 0.5150(3) 0.9005(8) 0.5589(4)
C22_2 C 0.5302(4) 0.9405(10) 0.5985(4)
H15_2 H 0.5192 0.9322 0.6232
C23_2 C 0.5622(4) 0.9931(12) 0.6005(5)
C24_2 C 0.4817(3) 0.8377(6) 0.5568(3)
N8_2 N 0.4769(3) 0.7730(5) 0.5266(2)
C25_2 C 0.4492(3) 0.7113(7) 0.5282(3)
N9_2 N 0.4250(3) 0.7231(6) 0.5555(3)
C26_2 C 0.4318(3) 0.7937(7) 0.5835(3)
N10_2 N 0.4605(2) 0.8505(6) 0.5860(3)
N11_2 N 0.4384(3) 0.4855(6) 0.4435(3)
C27_3 C 0.4132(4) 0.5029(8) 0.4682(4)
H17_2 H 0.3933 0.4607 0.4681
C28_3 C 0.4145(4) 0.5785(8) 0.4938(4)
H18_2 H 0.3938 0.5918 0.5073
C29_3 C 0.4450(3) 0.6336(8) 0.4997(4)
C30_3 C 0.4726(3) 0.6170(7) 0.4751(3)
H19_3 H 0.4934 0.6566 0.4758
C31_3 C 0.4680(3) 0.5409(6) 0.4501(4)
H20_3 H 0.4881 0.5263 0.4360
C32_2 C 0.3934(4) 0.8668(11) 0.6799(5)
H21_2 H 0.4024 0.8980 0.7066
C33_2 C 0.4183(4) 0.8533(11) 0.6531(4)
H22_2 H 0.4438 0.8754 0.6611
C34_2 C 0.4063(3) 0.8078(7) 0.6151(3)
C35_2 C 0.3698(3) 0.7732(8) 0.6075(4)
H23_2 H 0.3608 0.7385 0.5819
C36_2 C 0.3462(4) 0.7871(9) 0.6357(4)
H24_2 H 0.3217 0.7595 0.6302
Zn3 Zn 0.42708(5) 0.38311(9) 0.39855(4)
I5_2 I 0.48462(4) 0.35819(8) 0.36506(4)
I6_2 I 0.39445(4) 0.26191(6) 0.43158(3)
N13 N 0.3866(3) 0.4489(5) 0.3508(3)
C1_3 C 0.2800(3) 0.9737(6) 0.1910(5)
C2_3 C 0.2735(4) 0.8828(6) 0.1918(4)
H2_3 H 0.2508 0.8593 0.1739
C3_3 C 0.2985(3) 0.8247(6) 0.2175(3)
C4_3 C 0.3314(3) 0.8609(8) 0.2419(4)
H3_3 H 0.3498 0.8240 0.2603
C5_3 C 0.3376(4) 0.9532(7) 0.2391(4)
H4_3 H 0.3606 0.9780 0.2559
C6_3 C 0.2902(3) 0.7274(6) 0.2207(3)
N2_3 N 0.2593(2) 0.6904(5) 0.1936(3)
C7_3 C 0.2542(3) 0.6045(7) 0.2014(3)
N3_3 N 0.2764(2) 0.5538(5) 0.2305(2)
C8_3 C 0.3068(3) 0.5961(6) 0.2541(3)
N4_3 N 0.3160(2) 0.6823(5) 0.2504(2)
N5_2 N 0.1630(3) 0.4668(5) 0.1154(3)
C9_2 C 0.1857(3) 0.4251(7) 0.1492(3)
H5_2 H 0.1808 0.3636 0.1539
C10_2 C 0.2151(3) 0.4652(7) 0.1771(4)
H6_2 H 0.2314 0.4314 0.1993
C11_3 C 0.2212(3) 0.5570(7) 0.1726(3)
C12_3 C 0.1970(3) 0.6005(7) 0.1387(4)
H7_3 H 0.2000 0.6629 0.1344
C13_3 C 0.1687(3) 0.5539(6) 0.1112(4)
H8_3 H 0.1524 0.5854 0.0880
C14_3 C 0.3923(4) 0.5348(7) 0.3434(5)
H9_3 H 0.4143 0.5641 0.3600
C15_3 C 0.3666(4) 0.5834(7) 0.3117(5)
H10_3 H 0.3721 0.6439 0.3057
C16_3 C 0.3334(3) 0.5434(6) 0.2891(3)
C17_2 C 0.3275(4) 0.4524(7) 0.2973(3)
H11_2 H 0.3059 0.4213 0.2811
C18_2 C 0.3541(4) 0.4091(8) 0.3295(3)
H12_2 H 0.3492 0.3490 0.3369
Zn2_2 Zn 0.12204(4) 0.40020(10) 0.07029(6)
I4_2 I 0.10416(4) 0.26097(8) 0.10754(5)
N7_2 N 0.0764(3) 0.4880(7) 0.0645(3)
C19_3 C 0.0617(4) 0.5343(7) 0.0286(4)
H13_3 H 0.0738 0.5290 0.0047
C20_3 C 0.0306(3) 0.5890(7) 0.0236(3)
C21_3 C 0.0150(3) 0.5995(8) 0.0589(4)
C22_3 C 0.0302(4) 0.5595(10) 0.0985(4)
H15_3 H 0.0192 0.5678 0.1232
C23_3 C 0.0622(4) 0.5069(12) 0.1005(5)
H16_2 H 0.0748 0.4829 0.1279
N11_3 N 0.9384(3) 0.9855(6) 0.4435(3)
H17_3 H 0.8933 0.9607 0.4681
Zn3_2 Zn 0.92708(5) 0.88311(9) 0.39855(4)
I5_3 I 0.98462(4) 0.85819(8) 0.36506(4)
I6_3 I 0.89445(4) 0.76191(6) 0.43158(3)
N13_2 N 0.8866(3) 0.9489(5) 0.3508(3)
N5_3 N 0.6630(3) 0.9668(5) 0.1154(3)
C9_3 C 0.6857(3) 0.9251(7) 0.1492(3)
H5_3 H 0.6808 0.8636 0.1539
C10_3 C 0.7151(3) 0.9652(7) 0.1771(4)
H6_3 H 0.7314 0.9314 0.1993
C17_3 C 0.8275(4) 0.9524(7) 0.2973(3)
H11_3 H 0.8059 0.9213 0.2811
C18_3 C 0.8541(4) 0.9091(8) 0.3295(3)
H12_3 H 0.8492 0.8490 0.3369
Zn2_3 Zn 0.62204(4) 0.90020(10) 0.07029(6)
I4_3 I 0.60416(4) 0.76097(8) 0.10754(5)
N7_3 N 0.5764(3) 0.9880(7) 0.0645(3)
H16_3 H 0.5748 0.9829 0.1279
C27_4 C 0.0868(4) 0.0029(8) 0.0318(4)
C28_4 C 0.0855(4) 0.0785(8) 0.0062(4)
C29_4 C 0.0550(3) 0.1336(8) 0.0003(4)
C30_4 C 0.0274(3) 0.1170(7) 0.0249(3)
H19_4 H 0.0066 0.1566 0.0242
C31_4 C 0.0320(3) 0.0409(6) 0.0499(4)
H20_4 H 0.0119 0.0263 0.0640
C24_3 C 0.0183(3) 0.3377(6) 0.9432(3)
N8_3 N 0.0231(3) 0.2730(5) 0.9734(2)
C25_3 C 0.0508(3) 0.2113(7) 0.9718(3)
N9_3 N 0.0750(3) 0.2231(6) 0.9445(3)
C26_3 C 0.0682(3) 0.2937(7) 0.9165(3)
N10_3 N 0.0395(2) 0.3505(6) 0.9140(3)
H18_3 H 0.1062 0.0918 0.9927
N12_2 N 0.1428(3) 0.3389(7) 0.8294(4)
C32_3 C 0.1066(4) 0.3668(11) 0.8201(5)
H21_3 H 0.0976 0.3980 0.7934
C33_3 C 0.0817(4) 0.3533(11) 0.8469(4)
H22_3 H 0.0562 0.3754 0.8389
C34_3 C 0.0937(3) 0.3078(7) 0.8849(3)
C35_3 C 0.1302(3) 0.2732(8) 0.8925(4)
H23_3 H 0.1392 0.2385 0.9181
C36_3 C 0.1538(4) 0.2871(9) 0.8643(4)
H24_3 H 0.1783 0.2595 0.8698
Zn4_2 Zn 0.17498(6) 0.35457(9) 0.78260(6)
Zn1_2 Zn 0.67498(6) 0.85457(9) 0.78260(6)
I1_3 I 0.63055(5) 0.82618(8) 0.70823(4)
I2_3 I 0.73713(4) 0.76933(6) 0.80838(5)
N1_3 N 0.6872(3) 0.9928(6) 0.7859(3)
H1_3 H 0.7386 0.9878 0.8259
N14_2 N 0.6428(3) 0.8389(7) 0.8294(4)
I1_4 I 0.13055(5) 0.32618(8) 0.70823(4)
I2_4 I 0.23713(4) 0.26933(6) 0.80838(5)
N1_4 N 0.1872(3) 0.4928(6) 0.7859(3)
C1_4 C 0.2200(3) 0.5263(6) 0.8090(5)
H1_4 H 0.2386 0.4878 0.8259
C2_4 C 0.2265(4) 0.6172(6) 0.8082(4)
H2_4 H 0.2492 0.6407 0.8261
C3_4 C 0.2015(3) 0.6753(6) 0.7825(3)
C4_4 C 0.1686(3) 0.6391(8) 0.7581(4)
H3_4 H 0.1502 0.6760 0.7397
C5_4 C 0.1624(4) 0.5468(7) 0.7609(4)
H4_4 H 0.1394 0.5220 0.7441
C6_4 C 0.2098(3) 0.7726(6) 0.7793(3)
N2_4 N 0.2407(2) 0.8096(5) 0.8064(3)
C7_4 C 0.2458(3) 0.8955(7) 0.7986(3)
N3_4 N 0.2236(2) 0.9462(5) 0.7695(2)
C8_4 C 0.1932(3) 0.9039(6) 0.7459(3)
N4_4 N 0.1840(2) 0.8177(5) 0.7496(2)
C11_4 C 0.2788(3) 0.9430(7) 0.8274(3)
C12_4 C 0.3030(3) 0.8995(7) 0.8613(4)
H7_4 H 0.3000 0.8371 0.8656
C13_4 C 0.3313(3) 0.9461(6) 0.8888(4)
H8_4 H 0.3476 0.9146 0.9120
C14_4 C 0.1077(4) 0.9652(7) 0.6566(5)
H9_4 H 0.0857 0.9359 0.6400
C15_4 C 0.1334(4) 0.9166(7) 0.6883(5)
H10_4 H 0.1279 0.8561 0.6943
C16_4 C 0.1666(3) 0.9566(6) 0.7109(3)
C19_4 C 0.4383(4) 0.9657(7) 0.9714(4)
H13_4 H 0.4262 0.9710 0.9953
C20_4 C 0.4694(3) 0.9110(7) 0.9764(3)
C21_4 C 0.4850(3) 0.9005(8) 0.9411(4)
C22_4 C 0.4698(4) 0.9405(10) 0.9015(4)
H15_4 H 0.4808 0.9322 0.8768
C23_4 C 0.4378(4) 0.9931(12) 0.8995(5)
C24_4 C 0.5183(3) 0.8377(6) 0.9432(3)
N8_4 N 0.5231(3) 0.7730(5) 0.9734(2)
C25_4 C 0.5508(3) 0.7113(7) 0.9718(3)
N9_4 N 0.5750(3) 0.7231(6) 0.9445(3)
C26_4 C 0.5682(3) 0.7937(7) 0.9165(3)
N10_4 N 0.5395(2) 0.8505(6) 0.9140(3)
H18_4 H 0.6062 0.5918 0.9927
C32_4 C 0.6066(4) 0.8668(11) 0.8201(5)
H21_4 H 0.5976 0.8980 0.7934
C33_4 C 0.5817(4) 0.8533(11) 0.8469(4)
H22_4 H 0.5562 0.8754 0.8389
C34_4 C 0.5937(3) 0.8078(7) 0.8849(3)
C35_4 C 0.6302(3) 0.7732(8) 0.8925(4)
H23_4 H 0.6392 0.7385 0.9181
C36_4 C 0.6538(4) 0.7871(9) 0.8643(4)
H24_4 H 0.6783 0.7595 0.8698
N11_4 N 0.0616(3) 0.9855(6) 0.0565(3)
H17_4 H 0.1067 0.9607 0.0319
Zn3_3 Zn 0.07292(5) 0.88311(9) 0.10145(4)
I5_4 I 0.01538(4) 0.85819(8) 0.13494(4)
I6_4 I 0.10555(4) 0.76191(6) 0.06842(3)
N13_3 N 0.1134(3) 0.9489(5) 0.1492(3)
N5_4 N 0.3370(3) 0.9668(5) 0.3846(3)
C9_4 C 0.3143(3) 0.9251(7) 0.3508(3)
H5_4 H 0.3192 0.8636 0.3461
C10_4 C 0.2849(3) 0.9652(7) 0.3229(4)
H6_4 H 0.2686 0.9314 0.3007
C17_4 C 0.1725(4) 0.9524(7) 0.2027(3)
H11_4 H 0.1941 0.9213 0.2189
C18_4 C 0.1459(4) 0.9091(8) 0.1705(3)
H12_4 H 0.1508 0.8490 0.1631
Zn2_4 Zn 0.37796(4) 0.90020(10) 0.42971(6)
I3_2 I 0.35533(3) 0.90083(10) 0.50071(4)
I4_4 I 0.39584(4) 0.76097(8) 0.39246(5)
N7_4 N 0.4236(3) 0.9880(7) 0.4355(3)
H16_4 H 0.4252 0.9829 0.3721
I3_3 I 0.85533(3) 0.59917(10) 0.00071(4)
H14_4 H 0.9796 0.3818 0.0034
C1_5 C 0.7200(3) 0.0263(6) 0.8090(5)
C2_5 C 0.7265(4) 0.1172(6) 0.8082(4)
H2_5 H 0.7492 0.1407 0.8261
C3_5 C 0.7015(3) 0.1753(6) 0.7825(3)
C4_5 C 0.6686(3) 0.1391(8) 0.7581(4)
H3_5 H 0.6502 0.1760 0.7397
C5_5 C 0.6624(4) 0.0468(7) 0.7609(4)
H4_5 H 0.6394 0.0220 0.7441
C6_5 C 0.7098(3) 0.2726(6) 0.7793(3)
N2_5 N 0.7407(2) 0.3096(5) 0.8064(3)
C7_5 C 0.7458(3) 0.3955(7) 0.7986(3)
N3_5 N 0.7236(2) 0.4462(5) 0.7695(2)
C8_5 C 0.6932(3) 0.4039(6) 0.7459(3)
N4_5 N 0.6840(2) 0.3177(5) 0.7496(2)
N5_5 N 0.8370(3) 0.5332(5) 0.8846(3)
C9_5 C 0.8143(3) 0.5749(7) 0.8508(3)
H5_5 H 0.8192 0.6364 0.8461
C10_5 C 0.7849(3) 0.5348(7) 0.8229(4)
H6_5 H 0.7686 0.5686 0.8007
C11_5 C 0.7788(3) 0.4430(7) 0.8274(3)
C12_5 C 0.8030(3) 0.3995(7) 0.8613(4)
H7_5 H 0.8000 0.3371 0.8656
C13_5 C 0.8313(3) 0.4461(6) 0.8888(4)
H8_5 H 0.8476 0.4146 0.9120
N6_2 N 0.6134(3) 0.5511(5) 0.6492(3)
C14_5 C 0.6077(4) 0.4652(7) 0.6566(5)
H9_5 H 0.5857 0.4359 0.6400
C15_5 C 0.6334(4) 0.4166(7) 0.6883(5)
H10_5 H 0.6279 0.3561 0.6943
C16_5 C 0.6666(3) 0.4566(6) 0.7109(3)
C17_5 C 0.6725(4) 0.5476(7) 0.7027(3)
H11_5 H 0.6941 0.5787 0.7189
C18_5 C 0.6459(4) 0.5909(8) 0.6705(3)
H12_5 H 0.6508 0.6510 0.6631
Zn2_5 Zn 0.87796(4) 0.59980(10) 0.92971(6)
I4_5 I 0.89584(4) 0.73903(8) 0.89246(5)
N7_5 N 0.9236(3) 0.5120(7) 0.9355(3)
C19_5 C 0.9383(4) 0.4657(7) 0.9714(4)
H13_5 H 0.9262 0.4710 0.9953
C20_5 C 0.9694(3) 0.4110(7) 0.9764(3)
C21_5 C 0.9850(3) 0.4005(8) 0.9411(4)
C22_5 C 0.9698(4) 0.4405(10) 0.9015(4)
H15_5 H 0.9808 0.4322 0.8768
C23_5 C 0.9378(4) 0.4931(12) 0.8995(5)
H16_5 H 0.9252 0.5171 0.8721
Zn5_2 Zn 0.57292(5) 0.61689(9) 0.60145(4)
C24_5 C 0.0183(3) 0.6623(6) 0.4432(3)
N8_5 N 0.0231(3) 0.7270(5) 0.4734(2)
C25_5 C 0.0508(3) 0.7887(7) 0.4718(3)
N9_5 N 0.0750(3) 0.7769(6) 0.4445(3)
C26_5 C 0.0682(3) 0.7063(7) 0.4165(3)
N10_5 N 0.0395(2) 0.6495(6) 0.4140(3)
C27_5 C 0.0868(4) 0.9971(8) 0.5318(4)
C28_5 C 0.0855(4) 0.9215(8) 0.5062(4)
H18_5 H 0.1062 0.9082 0.4927
C29_5 C 0.0550(3) 0.8664(8) 0.5003(4)
C30_5 C 0.0274(3) 0.8830(7) 0.5249(3)
H19_5 H 0.0066 0.8434 0.5242
C31_5 C 0.0320(3) 0.9591(6) 0.5499(4)
H20_5 H 0.0119 0.9737 0.5640
N12_3 N 0.1428(3) 0.6611(7) 0.3294(4)
C32_5 C 0.1066(4) 0.6332(11) 0.3201(5)
H21_5 H 0.0976 0.6020 0.2934
C33_5 C 0.0817(4) 0.6467(11) 0.3469(4)
H22_5 H 0.0562 0.6246 0.3389
C34_5 C 0.0937(3) 0.6922(7) 0.3849(3)
C35_5 C 0.1302(3) 0.7268(8) 0.3925(4)
H23_5 H 0.1392 0.7615 0.4181
C36_5 C 0.1538(4) 0.7129(9) 0.3643(4)
H24_5 H 0.1783 0.7405 0.3698
Zn4_3 Zn 0.17498(6) 0.64543(9) 0.28260(6)
Zn1_3 Zn 0.67498(6) 0.14543(9) 0.28260(6)
I1_5 I 0.63055(5) 0.17382(8) 0.20823(4)
I2_5 I 0.73713(4) 0.23067(6) 0.30838(5)
N1_5 N 0.6872(3) 0.0072(6) 0.2859(3)
H1_5 H 0.7386 0.0122 0.3259
N14_3 N 0.6428(3) 0.1611(7) 0.3294(4)
I1_6 I 0.13055(5) 0.67382(8) 0.20823(4)
I2_6 I 0.23713(4) 0.73067(6) 0.30838(5)
N1_6 N 0.1872(3) 0.5072(6) 0.2859(3)
C1_6 C 0.2200(3) 0.4737(6) 0.3090(5)
H1_6 H 0.2386 0.5122 0.3259
C2_6 C 0.2265(4) 0.3828(6) 0.3082(4)
H2_6 H 0.2492 0.3593 0.3261
C3_6 C 0.2015(3) 0.3247(6) 0.2825(3)
C4_6 C 0.1686(3) 0.3609(8) 0.2581(4)
H3_6 H 0.1502 0.3240 0.2397
C5_6 C 0.1624(4) 0.4532(7) 0.2609(4)
H4_6 H 0.1394 0.4780 0.2441
C6_6 C 0.2098(3) 0.2274(6) 0.2793(3)
N2_6 N 0.2407(2) 0.1904(5) 0.3064(3)
C7_6 C 0.2458(3) 0.1045(7) 0.2986(3)
N3_6 N 0.2236(2) 0.0538(5) 0.2695(2)
C8_6 C 0.1932(3) 0.0961(6) 0.2459(3)
N4_6 N 0.1840(2) 0.1823(5) 0.2496(2)
C11_6 C 0.2788(3) 0.0570(7) 0.3274(3)
C12_6 C 0.3030(3) 0.1005(7) 0.3613(4)
H7_6 H 0.3000 0.1629 0.3656
C13_6 C 0.3313(3) 0.0539(6) 0.3888(4)
H8_6 H 0.3476 0.0854 0.4120
C14_6 C 0.1077(4) 0.0348(7) 0.1566(5)
H9_6 H 0.0857 0.0641 0.1400
C15_6 C 0.1334(4) 0.0834(7) 0.1883(5)
H10_6 H 0.1279 0.1439 0.1943
C16_6 C 0.1666(3) 0.0434(6) 0.2109(3)
C19_6 C 0.4383(4) 0.0343(7) 0.4714(4)
H13_6 H 0.4262 0.0290 0.4953
C20_6 C 0.4694(3) 0.0890(7) 0.4764(3)
H14_5 H 0.4796 0.1182 0.5034
C21_6 C 0.4850(3) 0.0995(8) 0.4411(4)
C22_6 C 0.4698(4) 0.0595(10) 0.4015(4)
H15_6 H 0.4808 0.0678 0.3768
C23_6 C 0.4378(4) 0.0069(12) 0.3995(5)
C24_6 C 0.5183(3) 0.1623(6) 0.4432(3)
N8_6 N 0.5231(3) 0.2270(5) 0.4734(2)
C25_6 C 0.5508(3) 0.2887(7) 0.4718(3)
N9_6 N 0.5750(3) 0.2769(6) 0.4445(3)
C26_6 C 0.5682(3) 0.2063(7) 0.4165(3)
N10_6 N 0.5395(2) 0.1495(6) 0.4140(3)
N11_5 N 0.5616(3) 0.5145(6) 0.5565(3)
C27_6 C 0.5868(4) 0.4971(8) 0.5318(4)
H17_5 H 0.6067 0.5393 0.5319
C28_6 C 0.5855(4) 0.4215(8) 0.5062(4)
H18_6 H 0.6062 0.4082 0.4927
C29_6 C 0.5550(3) 0.3664(8) 0.5003(4)
C30_6 C 0.5274(3) 0.3830(7) 0.5249(3)
H19_6 H 0.5066 0.3434 0.5242
C31_6 C 0.5320(3) 0.4591(6) 0.5499(4)
H20_6 H 0.5119 0.4737 0.5640
C32_6 C 0.6066(4) 0.1332(11) 0.3201(5)
H21_6 H 0.5976 0.1020 0.2934
C33_6 C 0.5817(4) 0.1467(11) 0.3469(4)
H22_6 H 0.5562 0.1246 0.3389
C34_6 C 0.5937(3) 0.1922(7) 0.3849(3)
C35_6 C 0.6302(3) 0.2268(8) 0.3925(4)
H23_6 H 0.6392 0.2615 0.4181
C36_6 C 0.6538(4) 0.2129(9) 0.3643(4)
H24_6 H 0.6783 0.2405 0.3698
I5_5 I 0.51538(4) 0.64181(8) 0.63494(4)
I6_5 I 0.60555(4) 0.73809(6) 0.56842(3)
N5_6 N 0.6630(3) 0.0332(5) 0.6154(3)
C9_6 C 0.6857(3) 0.0749(7) 0.6492(3)
H5_6 H 0.6808 0.1364 0.6539
C10_6 C 0.7151(3) 0.0348(7) 0.6771(4)
H6_6 H 0.7314 0.0686 0.6993
N6_3 N 0.8866(3) 0.0511(5) 0.8508(3)
C17_6 C 0.8275(4) 0.0476(7) 0.7973(3)
H11_6 H 0.8059 0.0787 0.7811
C18_6 C 0.8541(4) 0.0909(8) 0.8295(3)
H12_6 H 0.8492 0.1510 0.8369
Zn2_6 Zn 0.62204(4) 0.09980(10) 0.57029(6)
I3_4 I 0.64467(3) 0.09917(10) 0.49929(4)
I4_6 I 0.60416(4) 0.23903(8) 0.60754(5)
N7_6 N 0.5764(3) 0.0120(7) 0.5645(3)
H16_6 H 0.5748 0.0171 0.6279
Zn5_3 Zn 0.92708(5) 0.11689(9) 0.89855(4)
N11_6 N 0.9384(3) 0.0145(6) 0.9435(3)
H17_6 H 0.8933 0.0393 0.9681
I5_6 I 0.98462(4) 0.14181(8) 0.86506(4)
I6_6 I 0.89445(4) 0.23809(6) 0.93158(3)
I3_5 I 0.35533(3) 0.09917(10) 0.00071(4)
N5_7 N 0.3370(3) 0.0332(5) 0.8846(3)
C9_7 C 0.3143(3) 0.0749(7) 0.8508(3)
H5_7 H 0.3192 0.1364 0.8461
C10_7 C 0.2849(3) 0.0348(7) 0.8229(4)
H6_7 H 0.2686 0.0686 0.8007
N6_4 N 0.1134(3) 0.0511(5) 0.6492(3)
C17_7 C 0.1725(4) 0.0476(7) 0.7027(3)
H11_7 H 0.1941 0.0787 0.7189
C18_7 C 0.1459(4) 0.0909(8) 0.6705(3)
H12_7 H 0.1508 0.1510 0.6631
Zn2_7 Zn 0.37796(4) 0.09980(10) 0.92971(6)
I4_7 I 0.39584(4) 0.23903(8) 0.89246(5)
N7_7 N 0.4236(3) 0.0120(7) 0.9355(3)
H16_7 H 0.4252 0.0171 0.8721
Zn5_4 Zn 0.07292(5) 0.11689(9) 0.60145(4)
N11_7 N 0.0616(3) 0.0145(6) 0.5565(3)
H17_7 H 0.1067 0.0393 0.5319
I5_7 I 0.01538(4) 0.14181(8) 0.63494(4)
I6_7 I 0.10555(4) 0.23809(6) 0.56842(3)
H14_6 H 0.4796 0.8818 0.0034
N11_8 N 0.5616(3) 0.4855(6) 0.0565(3)
C27_7 C 0.5868(4) 0.5029(8) 0.0318(4)
H17_8 H 0.6067 0.4607 0.0319
C28_7 C 0.5855(4) 0.5785(8) 0.0062(4)
C29_7 C 0.5550(3) 0.6336(8) 0.0003(4)
C30_7 C 0.5274(3) 0.6170(7) 0.0249(3)
H19_7 H 0.5066 0.6566 0.0242
C31_7 C 0.5320(3) 0.5409(6) 0.0499(4)
H20_7 H 0.5119 0.5263 0.0640
Zn3_4 Zn 0.57292(5) 0.38311(9) 0.10145(4)
I5_8 I 0.51538(4) 0.35819(8) 0.13494(4)
I6_8 I 0.60555(4) 0.26191(6) 0.06842(3)
N13_4 N 0.6134(3) 0.4489(5) 0.1492(3)
C1_7 C 0.7200(3) 0.9737(6) 0.3090(5)
C2_7 C 0.7265(4) 0.8828(6) 0.3082(4)
H2_7 H 0.7492 0.8593 0.3261
C3_7 C 0.7015(3) 0.8247(6) 0.2825(3)
C4_7 C 0.6686(3) 0.8609(8) 0.2581(4)
H3_7 H 0.6502 0.8240 0.2397
C5_7 C 0.6624(4) 0.9532(7) 0.2609(4)
H4_7 H 0.6394 0.9780 0.2441
C6_7 C 0.7098(3) 0.7274(6) 0.2793(3)
N2_7 N 0.7407(2) 0.6904(5) 0.3064(3)
C7_7 C 0.7458(3) 0.6045(7) 0.2986(3)
N3_7 N 0.7236(2) 0.5538(5) 0.2695(2)
C8_7 C 0.6932(3) 0.5961(6) 0.2459(3)
N4_7 N 0.6840(2) 0.6823(5) 0.2496(2)
N5_8 N 0.8370(3) 0.4668(5) 0.3846(3)
C9_8 C 0.8143(3) 0.4251(7) 0.3508(3)
H5_8 H 0.8192 0.3636 0.3461
C10_8 C 0.7849(3) 0.4652(7) 0.3229(4)
H6_8 H 0.7686 0.4314 0.3007
C11_7 C 0.7788(3) 0.5570(7) 0.3274(3)
C12_7 C 0.8030(3) 0.6005(7) 0.3613(4)
H7_7 H 0.8000 0.6629 0.3656
C13_7 C 0.8313(3) 0.5539(6) 0.3888(4)
H8_7 H 0.8476 0.5854 0.4120
C14_7 C 0.6077(4) 0.5348(7) 0.1566(5)
H9_7 H 0.5857 0.5641 0.1400
C15_7 C 0.6334(4) 0.5834(7) 0.1883(5)
H10_7 H 0.6279 0.6439 0.1943
C16_7 C 0.6666(3) 0.5434(6) 0.2109(3)
C17_8 C 0.6725(4) 0.4524(7) 0.2027(3)
H11_8 H 0.6941 0.4213 0.2189
C18_8 C 0.6459(4) 0.4091(8) 0.1705(3)
H12_8 H 0.6508 0.3490 0.1631
Zn2_8 Zn 0.87796(4) 0.40020(10) 0.42971(6)
I3_6 I 0.85533(3) 0.40083(10) 0.50071(4)
I4_8 I 0.89584(4) 0.26097(8) 0.39246(5)
N7_8 N 0.9236(3) 0.4880(7) 0.4355(3)
C19_7 C 0.9383(4) 0.5343(7) 0.4714(4)
H13_7 H 0.9262 0.5290 0.4953
C20_7 C 0.9694(3) 0.5890(7) 0.4764(3)
H14_7 H 0.9796 0.6182 0.5034
C21_7 C 0.9850(3) 0.5995(8) 0.4411(4)
C22_7 C 0.9698(4) 0.5595(10) 0.4015(4)
H15_7 H 0.9808 0.5678 0.3768
C23_7 C 0.9378(4) 0.5069(12) 0.3995(5)
H16_8 H 0.9252 0.4829 0.3721
Zn1_4 Zn 0.32502(6) 0.14543(9) 0.21740(6)
I1_7 I 0.36945(5) 0.17382(8) 0.29177(4)
I2_7 I 0.26287(4) 0.23067(6) 0.19162(5)
N1_7 N 0.3128(3) 0.0072(6) 0.2141(3)
H1_7 H 0.2614 0.0122 0.1741
N14_4 N 0.3572(3) 0.1611(7) 0.1706(4)
C24_7 C 0.9817(3) 0.6623(6) 0.0568(3)
N8_7 N 0.9769(3) 0.7270(5) 0.0266(2)
C25_7 C 0.9492(3) 0.7887(7) 0.0282(3)
N9_7 N 0.9250(3) 0.7769(6) 0.0555(3)
C26_7 C 0.9318(3) 0.7063(7) 0.0835(3)
N10_7 N 0.9605(2) 0.6495(6) 0.0860(3)
H18_7 H 0.8938 0.9082 0.0073
N12_4 N 0.8572(3) 0.6611(7) 0.1706(4)
C32_7 C 0.8934(4) 0.6332(11) 0.1799(5)
H21_7 H 0.9024 0.6020 0.2066
C33_7 C 0.9183(4) 0.6467(11) 0.1531(4)
H22_7 H 0.9438 0.6246 0.1611
C34_7 C 0.9063(3) 0.6922(7) 0.1151(3)
C35_7 C 0.8698(3) 0.7268(8) 0.1075(4)
H23_7 H 0.8608 0.7615 0.0819
C36_7 C 0.8462(4) 0.7129(9) 0.1357(4)
H24_7 H 0.8217 0.7405 0.1302
Zn4_4 Zn 0.82502(6) 0.64543(9) 0.21740(6)
I1_8 I 0.86945(5) 0.67382(8) 0.29177(4)
I2_8 I 0.76287(4) 0.73067(6) 0.19162(5)
N1_8 N 0.8128(3) 0.5072(6) 0.2141(3)
C1_8 C 0.7800(3) 0.4737(6) 0.1910(5)
H1_8 H 0.7614 0.5122 0.1741
C2_8 C 0.7735(4) 0.3828(6) 0.1918(4)
H2_8 H 0.7508 0.3593 0.1739
C3_8 C 0.7985(3) 0.3247(6) 0.2175(3)
C4_8 C 0.8314(3) 0.3609(8) 0.2419(4)
H3_8 H 0.8498 0.3240 0.2603
C5_8 C 0.8376(4) 0.4532(7) 0.2391(4)
H4_8 H 0.8606 0.4780 0.2559
C6_8 C 0.7902(3) 0.2274(6) 0.2207(3)
N2_8 N 0.7593(2) 0.1904(5) 0.1936(3)
C7_8 C 0.7542(3) 0.1045(7) 0.2014(3)
N3_8 N 0.7764(2) 0.0538(5) 0.2305(2)
C8_8 C 0.8068(3) 0.0961(6) 0.2541(3)
N4_8 N 0.8160(2) 0.1823(5) 0.2504(2)
C11_8 C 0.7212(3) 0.0570(7) 0.1726(3)
C12_8 C 0.6970(3) 0.1005(7) 0.1387(4)
H7_8 H 0.7000 0.1629 0.1344
C13_8 C 0.6687(3) 0.0539(6) 0.1112(4)
H8_8 H 0.6524 0.0854 0.0880
C14_8 C 0.8923(4) 0.0348(7) 0.3434(5)
H9_8 H 0.9143 0.0641 0.3600
C15_8 C 0.8666(4) 0.0834(7) 0.3117(5)
H10_8 H 0.8721 0.1439 0.3057
C16_8 C 0.8334(3) 0.0434(6) 0.2891(3)
C19_8 C 0.5617(4) 0.0343(7) 0.0286(4)
H13_8 H 0.5738 0.0290 0.0047
C20_8 C 0.5306(3) 0.0890(7) 0.0236(3)
C21_8 C 0.5150(3) 0.0995(8) 0.0589(4)
C22_8 C 0.5302(4) 0.0595(10) 0.0985(4)
H15_8 H 0.5192 0.0678 0.1232
C23_8 C 0.5622(4) 0.0069(12) 0.1005(5)
C24_8 C 0.4817(3) 0.1623(6) 0.0568(3)
N8_8 N 0.4769(3) 0.2270(5) 0.0266(2)
C25_8 C 0.4492(3) 0.2887(7) 0.0282(3)
N9_8 N 0.4250(3) 0.2769(6) 0.0555(3)
C26_8 C 0.4318(3) 0.2063(7) 0.0835(3)
N10_8 N 0.4605(2) 0.1495(6) 0.0860(3)
H18_8 H 0.3938 0.4082 0.0073
C32_8 C 0.3934(4) 0.1332(11) 0.1799(5)
H21_8 H 0.4024 0.1020 0.2066
C33_8 C 0.4183(4) 0.1467(11) 0.1531(4)
H22_8 H 0.4438 0.1246 0.1611
C34_8 C 0.4063(3) 0.1922(7) 0.1151(3)
C35_8 C 0.3698(3) 0.2268(8) 0.1075(4)
H23_8 H 0.3608 0.2615 0.0819
C36_8 C 0.3462(4) 0.2129(9) 0.1357(4)
H24_8 H 0.3217 0.2405 0.1302
I3_7 I 0.14467(3) 0.40083(10) 0.99929(4)
H14_8 H 0.0204 0.6182 0.9966
C27_8 C 0.9132(4) 0.9971(8) 0.9682(4)
C28_8 C 0.9145(4) 0.9215(8) 0.9938(4)
C29_8 C 0.9450(3) 0.8664(8) 0.9997(4)
C30_8 C 0.9726(3) 0.8830(7) 0.9751(3)
H19_8 H 0.9934 0.8434 0.9758
C31_8 C 0.9680(3) 0.9591(6) 0.9501(4)
H20_8 H 0.9881 0.9737 0.9360
I3_8 I 0.64467(3) 0.90083(10) 0.99929(4)
loop_
_geom_bond_atom_site_label_1
_geom_bond_atom_site_label_2
_geom_bond_site_symmetry_1
_geom_bond_site_symmetry_2
C2 C1 1_555 1_555
H2 C2 1_555 1_555
C3 C2 1_555 1_555
C4 C3 1_555 1_555
H3 C4 1_555 1_555
H4 C5 1_555 1_555
C6 C3 1_555 1_555
N2 C6 1_555 1_555
C7 N2 1_555 1_555
N3 C7 1_555 1_555
C8 N3 1_555 1_555
N4 C6 1_555 1_555
N5 C9 1_555 1_555
C9 H5 1_555 1_555
C10 C9 1_555 1_555
H6 C10 1_555 1_555
C11 C7 1_555 1_555
C12 C11 1_555 1_555
H7 C12 1_555 1_555
C13 N5 1_555 1_555
H8 C13 1_555 1_555
N6 C14 1_555 1_555
C14 H9 1_555 1_555
C15 C14 1_555 1_555
H10 C15 1_555 1_555
C16 C8 1_555 1_555
C17 C16 1_555 1_555
H11 C17 1_555 1_555
C18 N6 1_555 1_555
H12 C18 1_555 1_555
Zn2 N5 1_555 1_555
I3 Zn2 1_555 1_555
I4 Zn2 1_555 1_555
N7 Zn2 1_555 1_555
C19 N7 1_555 1_555
H13 C19 1_555 1_555
C20 C19 1_555 1_555
H14 C20 1_555 1_555
C21 C20 1_555 1_555
C22 C21 1_555 1_555
H15 C22 1_555 1_555
C23 N7 1_555 1_555
H16 C23 1_555 1_555
Zn5 N6 1_555 1_555
C4 C5 1_555 1_555
C8 N4 1_555 1_555
C10 C11 1_555 1_555
C12 C13 1_555 1_555
C15 C16 1_555 1_555
C17 C18 1_555 1_555
C22 C23 1_555 1_555
N11 C27 1_555 1_555
C27 H17 1_555 1_555
C28 C27 1_555 1_555
C30 C29 1_555 1_555
H19 C30 1_555 1_555
C31 N11 1_555 1_555
H20 C31 1_555 1_555
Zn5 N11 1_555 1_555
I5 Zn5 1_555 1_555
I6 Zn5 1_555 1_555
C28 C29 1_555 1_555
C30 C31 1_555 1_555
Zn1 I1 1_555 1_555
I2 Zn1 1_555 1_555
N1 Zn1 1_555 1_555
N14 Zn1 1_555 1_555
N8 C24 1_555 1_555
C25 N8 1_555 1_555
N9 C25 1_555 1_555
C26 N9 1_555 1_555
N10 C24 1_555 1_555
C28_2 C27_2 1_555 1_555
H18 C28_2 1_555 1_555
C29_2 C25 1_555 1_555
C30_2 C29_2 1_555 1_555
H19_2 C30_2 1_555 1_555
H20_2 C31_2 1_555 1_555
N12 C32 1_555 1_555
C32 H21 1_555 1_555
C33 C32 1_555 1_555
H22 C33 1_555 1_555
C34 C26 1_555 1_555
C35 C34 1_555 1_555
H23 C35 1_555 1_555
C36 N12 1_555 1_555
H24 C36 1_555 1_555
Zn4 N12 1_555 1_555
C26 N10 1_555 1_555
C28_2 C29_2 1_555 1_555
C30_2 C31_2 1_555 1_555
C33 C34 1_555 1_555
C35 C36 1_555 1_555
Zn4 I1_2 1_555 1_555
I2_2 Zn4 1_555 1_555
N1_2 Zn4 1_555 1_555
C1_2 N1_2 1_555 1_555
H1_2 C1_2 1_555 1_555
C2_2 C1_2 1_555 1_555
H2_2 C2_2 1_555 1_555
C3_2 C2_2 1_555 1_555
C4_2 C3_2 1_555 1_555
H3_2 C4_2 1_555 1_555
C5_2 N1_2 1_555 1_555
H4_2 C5_2 1_555 1_555
C6_2 C3_2 1_555 1_555
N2_2 C6_2 1_555 1_555
C7_2 N2_2 1_555 1_555
N3_2 C7_2 1_555 1_555
C8_2 N3_2 1_555 1_555
N4_2 C6_2 1_555 1_555
C11_2 C7_2 1_555 1_555
C12_2 C11_2 1_555 1_555
H7_2 C12_2 1_555 1_555
H8_2 C13_2 1_555 1_555
C14_2 H9_2 1_555 1_555
C15_2 C14_2 1_555 1_555
H10_2 C15_2 1_555 1_555
C16_2 C8_2 1_555 1_555
H13_2 C19_2 1_555 1_555
C20_2 C19_2 1_555 1_555
H14_3 C20_2 1_555 1_555
C21_2 C20_2 1_555 1_555
C22_2 C21_2 1_555 1_555
H15_2 C22_2 1_555 1_555
C24_2 C21_2 1_555 1_555
N8_2 C24_2 1_555 1_555
C25_2 N8_2 1_555 1_555
N9_2 C25_2 1_555 1_555
C26_2 N9_2 1_555 1_555
N10_2 C24_2 1_555 1_555
N11_2 C27_3 1_555 1_555
C27_3 H17_2 1_555 1_555
C28_3 C27_3 1_555 1_555
H18_2 C28_3 1_555 1_555
C29_3 C25_2 1_555 1_555
C30_3 C29_3 1_555 1_555
H19_3 C30_3 1_555 1_555
C31_3 N11_2 1_555 1_555
H20_3 C31_3 1_555 1_555
N14 C32_2 1_555 1_555
C32_2 H21_2 1_555 1_555
C33_2 C32_2 1_555 1_555
H22_2 C33_2 1_555 1_555
C34_2 C26_2 1_555 1_555
C35_2 C34_2 1_555 1_555
H23_2 C35_2 1_555 1_555
C36_2 N14 1_555 1_555
H24_2 C36_2 1_555 1_555
Zn3 N11_2 1_555 1_555
I5_2 Zn3 1_555 1_555
I6_2 Zn3 1_555 1_555
N13 Zn3 1_555 1_555
C4_2 C5_2 1_555 1_555
C8_2 N4_2 1_555 1_555
C12_2 C13_2 1_555 1_555
C15_2 C16_2 1_555 1_555
C22_2 C23_2 1_555 1_555
C26_2 N10_2 1_555 1_555
C28_3 C29_3 1_555 1_555
C30_3 C31_3 1_555 1_555
C33_2 C34_2 1_555 1_555
C35_2 C36_2 1_555 1_555
C2_3 C1_3 1_555 1_555
H2_3 C2_3 1_555 1_555
C3_3 C2_3 1_555 1_555
C4_3 C3_3 1_555 1_555
H3_3 C4_3 1_555 1_555
H4_3 C5_3 1_555 1_555
C6_3 C3_3 1_555 1_555
N2_3 C6_3 1_555 1_555
C7_3 N2_3 1_555 1_555
N3_3 C7_3 1_555 1_555
C8_3 N3_3 1_555 1_555
N4_3 C6_3 1_555 1_555
N5_2 C9_2 1_555 1_555
C9_2 H5_2 1_555 1_555
C10_2 C9_2 1_555 1_555
H6_2 C10_2 1_555 1_555
C11_3 C7_3 1_555 1_555
C12_3 C11_3 1_555 1_555
H7_3 C12_3 1_555 1_555
C13_3 N5_2 1_555 1_555
H8_3 C13_3 1_555 1_555
N13 C14_3 1_555 1_555
C14_3 H9_3 1_555 1_555
C15_3 C14_3 1_555 1_555
H10_3 C15_3 1_555 1_555
C16_3 C8_3 1_555 1_555
C17_2 C16_3 1_555 1_555
H11_2 C17_2 1_555 1_555
C18_2 N13 1_555 1_555
H12_2 C18_2 1_555 1_555
Zn2_2 N5_2 1_555 1_555
I4_2 Zn2_2 1_555 1_555
N7_2 Zn2_2 1_555 1_555
C19_3 N7_2 1_555 1_555
H13_3 C19_3 1_555 1_555
C20_3 C19_3 1_555 1_555
C21_3 C20_3 1_555 1_555
C22_3 C21_3 1_555 1_555
H15_3 C22_3 1_555 1_555
C23_3 N7_2 1_555 1_555
H16_2 C23_3 1_555 1_555
C4_3 C5_3 1_555 1_555
C8_3 N4_3 1_555 1_555
C10_2 C11_3 1_555 1_555
C12_3 C13_3 1_555 1_555
C15_3 C16_3 1_555 1_555
C17_2 C18_2 1_555 1_555
C22_3 C23_3 1_555 1_555
Zn3_2 N11_3 1_555 1_555
I5_3 Zn3_2 1_555 1_555
I6_3 Zn3_2 1_555 1_555
N13_2 Zn3_2 1_555 1_555
N5_3 C9_3 1_555 1_555
C9_3 H5_3 1_555 1_555
C10_3 C9_3 1_555 1_555
H6_3 C10_3 1_555 1_555
H11_3 C17_3 1_555 1_555
C18_3 N13_2 1_555 1_555
H12_3 C18_3 1_555 1_555
Zn2_3 N5_3 1_555 1_555
I4_3 Zn2_3 1_555 1_555
N7_3 Zn2_3 1_555 1_555
C17_3 C18_3 1_555 1_555
C28_4 C27_4 1_555 1_555
C30_4 C29_4 1_555 1_555
H19_4 C30_4 1_555 1_555
H20_4 C31_4 1_555 1_555
C28_4 C29_4 1_555 1_555
C30_4 C31_4 1_555 1_555
N8_3 C24_3 1_555 1_555
C25_3 N8_3 1_555 1_555
N9_3 C25_3 1_555 1_555
C26_3 N9_3 1_555 1_555
N10_3 C24_3 1_555 1_555
N12_2 C32_3 1_555 1_555
C32_3 H21_3 1_555 1_555
C33_3 C32_3 1_555 1_555
H22_3 C33_3 1_555 1_555
C34_3 C26_3 1_555 1_555
C35_3 C34_3 1_555 1_555
H23_3 C35_3 1_555 1_555
C36_3 N12_2 1_555 1_555
H24_3 C36_3 1_555 1_555
Zn4_2 N12_2 1_555 1_555
C26_3 N10_3 1_555 1_555
C33_3 C34_3 1_555 1_555
C35_3 C36_3 1_555 1_555
Zn1_2 I1_3 1_555 1_555
I2_3 Zn1_2 1_555 1_555
N1_3 Zn1_2 1_555 1_555
N14_2 Zn1_2 1_555 1_555
Zn4_2 I1_4 1_555 1_555
I2_4 Zn4_2 1_555 1_555
N1_4 Zn4_2 1_555 1_555
C1_4 N1_4 1_555 1_555
H1_4 C1_4 1_555 1_555
C2_4 C1_4 1_555 1_555
H2_4 C2_4 1_555 1_555
C3_4 C2_4 1_555 1_555
C4_4 C3_4 1_555 1_555
H3_4 C4_4 1_555 1_555
C5_4 N1_4 1_555 1_555
H4_4 C5_4 1_555 1_555
C6_4 C3_4 1_555 1_555
N2_4 C6_4 1_555 1_555
C7_4 N2_4 1_555 1_555
N3_4 C7_4 1_555 1_555
C8_4 N3_4 1_555 1_555
N4_4 C6_4 1_555 1_555
C11_4 C7_4 1_555 1_555
C12_4 C11_4 1_555 1_555
H7_4 C12_4 1_555 1_555
H8_4 C13_4 1_555 1_555
C14_4 H9_4 1_555 1_555
C15_4 C14_4 1_555 1_555
H10_4 C15_4 1_555 1_555
C16_4 C8_4 1_555 1_555
H13_4 C19_4 1_555 1_555
C20_4 C19_4 1_555 1_555
C21_4 C20_4 1_555 1_555
C22_4 C21_4 1_555 1_555
H15_4 C22_4 1_555 1_555
C24_4 C21_4 1_555 1_555
N8_4 C24_4 1_555 1_555
C25_4 N8_4 1_555 1_555
N9_4 C25_4 1_555 1_555
C26_4 N9_4 1_555 1_555
N10_4 C24_4 1_555 1_555
N14_2 C32_4 1_555 1_555
C32_4 H21_4 1_555 1_555
C33_4 C32_4 1_555 1_555
H22_4 C33_4 1_555 1_555
C34_4 C26_4 1_555 1_555
C35_4 C34_4 1_555 1_555
H23_4 C35_4 1_555 1_555
C36_4 N14_2 1_555 1_555
H24_4 C36_4 1_555 1_555
C4_4 C5_4 1_555 1_555
C8_4 N4_4 1_555 1_555
C12_4 C13_4 1_555 1_555
C15_4 C16_4 1_555 1_555
C22_4 C23_4 1_555 1_555
C26_4 N10_4 1_555 1_555
C33_4 C34_4 1_555 1_555
C35_4 C36_4 1_555 1_555
Zn3_3 N11_4 1_555 1_555
I5_4 Zn3_3 1_555 1_555
I6_4 Zn3_3 1_555 1_555
N13_3 Zn3_3 1_555 1_555
N5_4 C9_4 1_555 1_555
C9_4 H5_4 1_555 1_555
C10_4 C9_4 1_555 1_555
H6_4 C10_4 1_555 1_555
H11_4 C17_4 1_555 1_555
C18_4 N13_3 1_555 1_555
H12_4 C18_4 1_555 1_555
Zn2_4 N5_4 1_555 1_555
I3_2 Zn2_4 1_555 1_555
I4_4 Zn2_4 1_555 1_555
N7_4 Zn2_4 1_555 1_555
C17_4 C18_4 1_555 1_555
C2_5 C1_5 1_555 1_555
H2_5 C2_5 1_555 1_555
C3_5 C2_5 1_555 1_555
C4_5 C3_5 1_555 1_555
H3_5 C4_5 1_555 1_555
H4_5 C5_5 1_555 1_555
C6_5 C3_5 1_555 1_555
N2_5 C6_5 1_555 1_555
C7_5 N2_5 1_555 1_555
N3_5 C7_5 1_555 1_555
C8_5 N3_5 1_555 1_555
N4_5 C6_5 1_555 1_555
N5_5 C9_5 1_555 1_555
C9_5 H5_5 1_555 1_555
C10_5 C9_5 1_555 1_555
H6_5 C10_5 1_555 1_555
C11_5 C7_5 1_555 1_555
C12_5 C11_5 1_555 1_555
H7_5 C12_5 1_555 1_555
C13_5 N5_5 1_555 1_555
H8_5 C13_5 1_555 1_555
N6_2 C14_5 1_555 1_555
C14_5 H9_5 1_555 1_555
C15_5 C14_5 1_555 1_555
H10_5 C15_5 1_555 1_555
C16_5 C8_5 1_555 1_555
C17_5 C16_5 1_555 1_555
H11_5 C17_5 1_555 1_555
C18_5 N6_2 1_555 1_555
H12_5 C18_5 1_555 1_555
Zn2_5 N5_5 1_555 1_555
I4_5 Zn2_5 1_555 1_555
N7_5 Zn2_5 1_555 1_555
C19_5 N7_5 1_555 1_555
H13_5 C19_5 1_555 1_555
C20_5 C19_5 1_555 1_555
C21_5 C20_5 1_555 1_555
C22_5 C21_5 1_555 1_555
H15_5 C22_5 1_555 1_555
C23_5 N7_5 1_555 1_555
H16_5 C23_5 1_555 1_555
Zn5_2 N6_2 1_555 1_555
C4_5 C5_5 1_555 1_555
C8_5 N4_5 1_555 1_555
C10_5 C11_5 1_555 1_555
C12_5 C13_5 1_555 1_555
C15_5 C16_5 1_555 1_555
C17_5 C18_5 1_555 1_555
C22_5 C23_5 1_555 1_555
N8_5 C24_5 1_555 1_555
C25_5 N8_5 1_555 1_555
N9_5 C25_5 1_555 1_555
C26_5 N9_5 1_555 1_555
N10_5 C24_5 1_555 1_555
C28_5 C27_5 1_555 1_555
H18_5 C28_5 1_555 1_555
C29_5 C25_5 1_555 1_555
C30_5 C29_5 1_555 1_555
H19_5 C30_5 1_555 1_555
H20_5 C31_5 1_555 1_555
N12_3 C32_5 1_555 1_555
C32_5 H21_5 1_555 1_555
C33_5 C32_5 1_555 1_555
H22_5 C33_5 1_555 1_555
C34_5 C26_5 1_555 1_555
C35_5 C34_5 1_555 1_555
H23_5 C35_5 1_555 1_555
C36_5 N12_3 1_555 1_555
H24_5 C36_5 1_555 1_555
Zn4_3 N12_3 1_555 1_555
C26_5 N10_5 1_555 1_555
C28_5 C29_5 1_555 1_555
C30_5 C31_5 1_555 1_555
C33_5 C34_5 1_555 1_555
C35_5 C36_5 1_555 1_555
Zn1_3 I1_5 1_555 1_555
I2_5 Zn1_3 1_555 1_555
N1_5 Zn1_3 1_555 1_555
N14_3 Zn1_3 1_555 1_555
Zn4_3 I1_6 1_555 1_555
I2_6 Zn4_3 1_555 1_555
N1_6 Zn4_3 1_555 1_555
C1_6 N1_6 1_555 1_555
H1_6 C1_6 1_555 1_555
C2_6 C1_6 1_555 1_555
H2_6 C2_6 1_555 1_555
C3_6 C2_6 1_555 1_555
C4_6 C3_6 1_555 1_555
H3_6 C4_6 1_555 1_555
C5_6 N1_6 1_555 1_555
H4_6 C5_6 1_555 1_555
C6_6 C3_6 1_555 1_555
N2_6 C6_6 1_555 1_555
C7_6 N2_6 1_555 1_555
N3_6 C7_6 1_555 1_555
C8_6 N3_6 1_555 1_555
N4_6 C6_6 1_555 1_555
C11_6 C7_6 1_555 1_555
C12_6 C11_6 1_555 1_555
H7_6 C12_6 1_555 1_555
H8_6 C13_6 1_555 1_555
C14_6 H9_6 1_555 1_555
C15_6 C14_6 1_555 1_555
H10_6 C15_6 1_555 1_555
C16_6 C8_6 1_555 1_555
H13_6 C19_6 1_555 1_555
C20_6 C19_6 1_555 1_555
H14_5 C20_6 1_555 1_555
C21_6 C20_6 1_555 1_555
C22_6 C21_6 1_555 1_555
H15_6 C22_6 1_555 1_555
C24_6 C21_6 1_555 1_555
N8_6 C24_6 1_555 1_555
C25_6 N8_6 1_555 1_555
N9_6 C25_6 1_555 1_555
C26_6 N9_6 1_555 1_555
N10_6 C24_6 1_555 1_555
N11_5 C27_6 1_555 1_555
C27_6 H17_5 1_555 1_555
C28_6 C27_6 1_555 1_555
H18_6 C28_6 1_555 1_555
C29_6 C25_6 1_555 1_555
C30_6 C29_6 1_555 1_555
H19_6 C30_6 1_555 1_555
C31_6 N11_5 1_555 1_555
H20_6 C31_6 1_555 1_555
N14_3 C32_6 1_555 1_555
C32_6 H21_6 1_555 1_555
C33_6 C32_6 1_555 1_555
H22_6 C33_6 1_555 1_555
C34_6 C26_6 1_555 1_555
C35_6 C34_6 1_555 1_555
H23_6 C35_6 1_555 1_555
C36_6 N14_3 1_555 1_555
H24_6 C36_6 1_555 1_555
Zn5_2 N11_5 1_555 1_555
I5_5 Zn5_2 1_555 1_555
I6_5 Zn5_2 1_555 1_555
C4_6 C5_6 1_555 1_555
C8_6 N4_6 1_555 1_555
C12_6 C13_6 1_555 1_555
C15_6 C16_6 1_555 1_555
C22_6 C23_6 1_555 1_555
C26_6 N10_6 1_555 1_555
C28_6 C29_6 1_555 1_555
C30_6 C31_6 1_555 1_555
C33_6 C34_6 1_555 1_555
C35_6 C36_6 1_555 1_555
N5_6 C9_6 1_555 1_555
C9_6 H5_6 1_555 1_555
C10_6 C9_6 1_555 1_555
H6_6 C10_6 1_555 1_555
H11_6 C17_6 1_555 1_555
C18_6 N6_3 1_555 1_555
H12_6 C18_6 1_555 1_555
Zn2_6 N5_6 1_555 1_555
I3_4 Zn2_6 1_555 1_555
I4_6 Zn2_6 1_555 1_555
N7_6 Zn2_6 1_555 1_555
Zn5_3 N6_3 1_555 1_555
C17_6 C18_6 1_555 1_555
Zn5_3 N11_6 1_555 1_555
I5_6 Zn5_3 1_555 1_555
I6_6 Zn5_3 1_555 1_555
N5_7 C9_7 1_555 1_555
C9_7 H5_7 1_555 1_555
C10_7 C9_7 1_555 1_555
H6_7 C10_7 1_555 1_555
H11_7 C17_7 1_555 1_555
C18_7 N6_4 1_555 1_555
H12_7 C18_7 1_555 1_555
Zn2_7 N5_7 1_555 1_555
I4_7 Zn2_7 1_555 1_555
N7_7 Zn2_7 1_555 1_555
Zn5_4 N6_4 1_555 1_555
C17_7 C18_7 1_555 1_555
Zn5_4 N11_7 1_555 1_555
I5_7 Zn5_4 1_555 1_555
I6_7 Zn5_4 1_555 1_555
N11_8 C27_7 1_555 1_555
C27_7 H17_8 1_555 1_555
C28_7 C27_7 1_555 1_555
C30_7 C29_7 1_555 1_555
H19_7 C30_7 1_555 1_555
C31_7 N11_8 1_555 1_555
H20_7 C31_7 1_555 1_555
Zn3_4 N11_8 1_555 1_555
I5_8 Zn3_4 1_555 1_555
I6_8 Zn3_4 1_555 1_555
N13_4 Zn3_4 1_555 1_555
C28_7 C29_7 1_555 1_555
C30_7 C31_7 1_555 1_555
C2_7 C1_7 1_555 1_555
H2_7 C2_7 1_555 1_555
C3_7 C2_7 1_555 1_555
C4_7 C3_7 1_555 1_555
H3_7 C4_7 1_555 1_555
H4_7 C5_7 1_555 1_555
C6_7 C3_7 1_555 1_555
N2_7 C6_7 1_555 1_555
C7_7 N2_7 1_555 1_555
N3_7 C7_7 1_555 1_555
C8_7 N3_7 1_555 1_555
N4_7 C6_7 1_555 1_555
N5_8 C9_8 1_555 1_555
C9_8 H5_8 1_555 1_555
C10_8 C9_8 1_555 1_555
H6_8 C10_8 1_555 1_555
C11_7 C7_7 1_555 1_555
C12_7 C11_7 1_555 1_555
H7_7 C12_7 1_555 1_555
C13_7 N5_8 1_555 1_555
H8_7 C13_7 1_555 1_555
N13_4 C14_7 1_555 1_555
C14_7 H9_7 1_555 1_555
C15_7 C14_7 1_555 1_555
H10_7 C15_7 1_555 1_555
C16_7 C8_7 1_555 1_555
C17_8 C16_7 1_555 1_555
H11_8 C17_8 1_555 1_555
C18_8 N13_4 1_555 1_555
H12_8 C18_8 1_555 1_555
Zn2_8 N5_8 1_555 1_555
I3_6 Zn2_8 1_555 1_555
I4_8 Zn2_8 1_555 1_555
N7_8 Zn2_8 1_555 1_555
C19_7 N7_8 1_555 1_555
H13_7 C19_7 1_555 1_555
C20_7 C19_7 1_555 1_555
H14_7 C20_7 1_555 1_555
C21_7 C20_7 1_555 1_555
C22_7 C21_7 1_555 1_555
H15_7 C22_7 1_555 1_555
C23_7 N7_8 1_555 1_555
H16_8 C23_7 1_555 1_555
C4_7 C5_7 1_555 1_555
C8_7 N4_7 1_555 1_555
C10_8 C11_7 1_555 1_555
C12_7 C13_7 1_555 1_555
C15_7 C16_7 1_555 1_555
C17_8 C18_8 1_555 1_555
C22_7 C23_7 1_555 1_555
Zn1_4 I1_7 1_555 1_555
I2_7 Zn1_4 1_555 1_555
N1_7 Zn1_4 1_555 1_555
N14_4 Zn1_4 1_555 1_555
N8_7 C24_7 1_555 1_555
C25_7 N8_7 1_555 1_555
N9_7 C25_7 1_555 1_555
C26_7 N9_7 1_555 1_555
N10_7 C24_7 1_555 1_555
N12_4 C32_7 1_555 1_555
C32_7 H21_7 1_555 1_555
C33_7 C32_7 1_555 1_555
H22_7 C33_7 1_555 1_555
C34_7 C26_7 1_555 1_555
C35_7 C34_7 1_555 1_555
H23_7 C35_7 1_555 1_555
C36_7 N12_4 1_555 1_555
H24_7 C36_7 1_555 1_555
Zn4_4 N12_4 1_555 1_555
C26_7 N10_7 1_555 1_555
C33_7 C34_7 1_555 1_555
C35_7 C36_7 1_555 1_555
Zn4_4 I1_8 1_555 1_555
I2_8 Zn4_4 1_555 1_555
N1_8 Zn4_4 1_555 1_555
C1_8 N1_8 1_555 1_555
H1_8 C1_8 1_555 1_555
C2_8 C1_8 1_555 1_555
H2_8 C2_8 1_555 1_555
C3_8 C2_8 1_555 1_555
C4_8 C3_8 1_555 1_555
H3_8 C4_8 1_555 1_555
C5_8 N1_8 1_555 1_555
H4_8 C5_8 1_555 1_555
C6_8 C3_8 1_555 1_555
N2_8 C6_8 1_555 1_555
C7_8 N2_8 1_555 1_555
N3_8 C7_8 1_555 1_555
C8_8 N3_8 1_555 1_555
N4_8 C6_8 1_555 1_555
C11_8 C7_8 1_555 1_555
C12_8 C11_8 1_555 1_555
H7_8 C12_8 1_555 1_555
H8_8 C13_8 1_555 1_555
C14_8 H9_8 1_555 1_555
C15_8 C14_8 1_555 1_555
H10_8 C15_8 1_555 1_555
C16_8 C8_8 1_555 1_555
H13_8 C19_8 1_555 1_555
C20_8 C19_8 1_555 1_555
C21_8 C20_8 1_555 1_555
C22_8 C21_8 1_555 1_555
H15_8 C22_8 1_555 1_555
C24_8 C21_8 1_555 1_555
N8_8 C24_8 1_555 1_555
C25_8 N8_8 1_555 1_555
N9_8 C25_8 1_555 1_555
C26_8 N9_8 1_555 1_555
N10_8 C24_8 1_555 1_555
N14_4 C32_8 1_555 1_555
C32_8 H21_8 1_555 1_555
C33_8 C32_8 1_555 1_555
H22_8 C33_8 1_555 1_555
C34_8 C26_8 1_555 1_555
C35_8 C34_8 1_555 1_555
H23_8 C35_8 1_555 1_555
C36_8 N14_4 1_555 1_555
H24_8 C36_8 1_555 1_555
C4_8 C5_8 1_555 1_555
C8_8 N4_8 1_555 1_555
C12_8 C13_8 1_555 1_555
C15_8 C16_8 1_555 1_555
C22_8 C23_8 1_555 1_555
C26_8 N10_8 1_555 1_555
C33_8 C34_8 1_555 1_555
C35_8 C36_8 1_555 1_555
C28_8 C27_8 1_555 1_555
C30_8 C29_8 1_555 1_555
H19_8 C30_8 1_555 1_555
H20_8 C31_8 1_555 1_555
C28_8 C29_8 1_555 1_555
C30_8 C31_8 1_555 1_555

#END
