
###############################################################################
#
# This file contains modified crystal structure data generated from the
# MOF subset of the Cambridge Structural Database (CSD) v543 
# hosted by the Cambridge Crystallographic Data Centre (CCDC).
#
# This work is licensed under the Creative Commons
# Attribution-NonCommercial-ShareAlike 4.0 International License.
# To view a copy of this license, visit
# http://creativecommons.org/licenses/by-nc-sa/4.0/
# or send a letter to
# Creative Commons, PO Box 1866, Mountain View, CA 94042, USA.
#
# CIF created using the CSD Python API on 29 September 2022
# The structure has been converted into the P1 space group
# The structure has a 3D framework
# The original CSD entry REXDOP is in the triclinic crystal system
# The framework has been calculated to contain at least 10.0% void space
# The void calculation uses a probe of radius 1.32A, grid spacing 0.4
#
###############################################################################

data_REXDOP
_chemical_formula_moiety         '(C144 H96 I24 N48 Zn12)n'
_symmetry_cell_setting           triclinic
_symmetry_space_group_name_H-M   'P 1'
_symmetry_Int_Tables_number      1
_space_group_name_Hall           'P 1'
loop_
_symmetry_equiv_pos_site_id
_symmetry_equiv_pos_as_xyz
1 x,y,z
_cell_length_a                   14.907(5)
_cell_length_b                   18.608(6)
_cell_length_c                   32.920(11)
_cell_angle_alpha                103.269(4)
_cell_angle_beta                 93.089(4)
_cell_angle_gamma                108.970(4)
_cell_volume                     8322.85
loop_
_atom_site_label
_atom_site_type_symbol
_atom_site_fract_x
_atom_site_fract_y
_atom_site_fract_z
C44 C 0.6362(10) 0.0097(8) 0.3036(4)
H30 H 0.3827 0.0041 0.3302
N18 N 0.8525(8) 0.1774(7) 0.4007(3)
C50 C 0.8729(11) 0.1355(9) 0.3658(4)
H33 H 0.9386 0.1446 0.3633
C51 C 0.8079(11) 0.0813(11) 0.3336(6)
H34 H 0.8274 0.0536 0.3098
C52 C 0.7109(9) 0.0679(7) 0.3370(4)
C53 C 0.6858(9) 0.1118(7) 0.3709(4)
H35 H 0.6204 0.1046 0.3733
C54 C 0.7602(8) 0.1686(8) 0.4024(4)
H36 H 0.7438 0.2012 0.4253
Zn9 Zn 0.95583(11) 0.26074(8) 0.44713(5)
Zn1 Zn 0.79856(14) 0.26495(11) 0.93290(8)
I1 I 0.67157(11) 0.29850(10) 0.89678(7)
N1 N 0.8126(8) 0.1681(8) 0.8915(5)
C1 C 0.7430(10) 0.1147(9) 0.8639(5)
H1 H 0.6815 0.1195 0.8639
C2 C 0.7516(10) 0.0533(9) 0.8355(5)
H2 H 0.6981 0.0178 0.8157
C3 C 0.8374(10) 0.0430(8) 0.8356(4)
C4 C 0.9110(11) 0.0956(9) 0.8663(5)
H3 H 0.9723 0.0905 0.8678
C5 C 0.8947(9) 0.1549(9) 0.8946(5)
H4 H 0.9438 0.1878 0.9172
N26 N 0.9297(9) 0.3504(7) 0.9344(4)
I7 I 0.96473(8) 0.75887(8) 0.19833(3)
I8 I 0.98606(7) 0.97655(6) 0.29053(3)
N19 N 0.9909(9) 0.7952(7) 0.3162(4)
C55 C 0.9323(11) 0.8146(8) 0.3420(5)
H37 H 0.9172 0.8604 0.3419
C56 C 0.8935(12) 0.7705(8) 0.3685(5)
H38 H 0.8499 0.7851 0.3858
C57 C 0.9163(10) 0.7037(8) 0.3710(4)
C58 C 0.9766(12) 0.6822(9) 0.3433(5)
H39 H 0.9940 0.6373 0.3432
C60 C 0.8745(10) 0.6586(7) 0.3998(4)
N20 N 0.8129(8) 0.6832(6) 0.4227(4)
C61 C 0.7768(10) 0.6413(7) 0.4499(4)
N21 N 0.7996(8) 0.5795(6) 0.4564(3)
C62 C 0.8595(9) 0.5592(7) 0.4308(3)
N22 N 0.8970(8) 0.5956(6) 0.4023(3)
N23 N 0.5952(8) 0.7247(6) 0.5292(4)
C63 C 0.5928(11) 0.6497(9) 0.5225(4)
H41 H 0.5500 0.6161 0.5363
C64 C 0.6460(14) 0.6207(10) 0.4983(6)
H42 H 0.6414 0.5674 0.4948
C65 C 0.7116(9) 0.6699(8) 0.4770(4)
C66 C 0.7111(9) 0.7425(7) 0.4831(4)
H43 H 0.7530 0.7769 0.4695
C67 C 0.6530(10) 0.7702(8) 0.5081(4)
H44 H 0.6534 0.8222 0.5106
Zn5 Zn 0.51924(11) 0.77063(10) 0.57185(5)
I9 I 0.36086(8) 0.66974(8) 0.57479(4)
I10 I 0.53089(9) 0.90774(7) 0.56358(4)
N24 N 0.9299(8) 0.3627(6) 0.4449(3)
C68 C 0.9443(16) 0.3898(9) 0.4108(6)
H45 H 0.9683 0.3619 0.3887
C69 C 0.9267(16) 0.4552(11) 0.4054(5)
H46 H 0.9415 0.4738 0.3811
C70 C 0.8872(10) 0.4926(7) 0.4363(4)
C71 C 0.8738(10) 0.4678(8) 0.4734(5)
H47 H 0.8500 0.4944 0.4961
C72 C 0.8980(11) 0.4006(8) 0.4751(5)
H48 H 0.8902 0.3827 0.4999
I12 I 0.92030(8) 0.23247(6) 0.51759(3)
N25 N 0.6037(8) 0.7948(6) 0.6278(3)
C6 C 0.8512(10) 0.9789(9) 0.8046(5)
N2 N 0.7811(8) 0.9410(7) 0.7723(3)
C7 C 0.7977(10) 0.8857(7) 0.7435(4)
N3 N 0.8733(8) 0.8627(6) 0.7449(3)
C8 C 0.9388(8) 0.9064(7) 0.7782(3)
N4 N 0.9320(8) 0.9632(6) 0.8093(3)
C9 C 0.6980(10) 0.7992(9) 0.6296(4)
H5 H 0.7211 0.7826 0.6041
C10 C 0.7601(10) 0.8260(9) 0.6664(3)
H6 H 0.8244 0.8277 0.6660
C11 C 0.7286(8) 0.8505(7) 0.7037(4)
C12 C 0.6348(8) 0.8473(8) 0.7025(4)
H7 H 0.6117 0.8653 0.7278
C13 C 0.5737(9) 0.8175(8) 0.6642(4)
H8 H 0.5085 0.8134 0.6643
H11 H 0.9841 0.7887 0.7298
C27 C 0.9870(9) 0.3904(7) 0.9706(4)
H17 H 0.9679 0.3788 0.9961
C31 C 0.9537(12) 0.3704(10) 0.8992(5)
H20 H 0.9104 0.3441 0.8739
N12 N 0.5844(8) 0.6419(7) 0.0560(4)
C32 C 0.5845(11) 0.6917(11) 0.0314(5)
H21 H 0.6413 0.7354 0.0336
C33 C 0.5071(9) 0.6821(9) 0.0036(5)
C35 C 0.4241(10) 0.5631(8) 0.0213(4)
H23 H 0.3691 0.5174 0.0179
C36 C 0.5034(10) 0.5789(8) 0.0510(4)
H24 H 0.5003 0.5439 0.0683
Zn3 Zn 0.70009(12) 0.66988(10) 0.10112(5)
I5 I 0.84419(8) 0.72703(7) 0.06743(4)
I6 I 0.67241(9) 0.55828(7) 0.13679(4)
N13 N 0.6769(9) 0.7585(8) 0.1446(4)
C37 C 0.5863(11) 0.7503(10) 0.1493(5)
H25 H 0.5375 0.7093 0.1293
C38 C 0.5585(11) 0.7969(10) 0.1809(5)
H26 H 0.4926 0.7882 0.1830
C39 C 0.6300(11) 0.8575(10) 0.2099(5)
C40 C 0.7235(11) 0.8697(9) 0.2054(5)
H27 H 0.7735 0.9125 0.2240
C41 C 0.7437(10) 0.8171(8) 0.1726(4)
H28 H 0.8089 0.8237 0.1702
C42 C 0.6018(9) 0.9094(8) 0.2446(4)
N14 N 0.5063(8) 0.8912(6) 0.2451(3)
C43 C 0.4838(9) 0.9386(7) 0.2765(4)
N15 N 0.5453(8) 0.9972(6) 0.3072(3)
N16 N 0.6710(8) 0.9654(6) 0.2723(3)
N17 N 0.1820(8) 0.8858(7) 0.2757(4)
C45 C 0.2430(7) 0.9455(8) 0.3066(4)
H29 H 0.2187 0.9759 0.3274
C46 C 0.3406(7) 0.9626(7) 0.3080(5)
C47 C 0.3788(8) 0.9199(7) 0.2770(4)
C48 C 0.3139(9) 0.8615(8) 0.2452(4)
H31 H 0.3364 0.8328 0.2228
C49 C 0.2192(11) 0.8447(10) 0.2453(5)
H32 H 0.1764 0.8027 0.2235
Zn4 Zn 0.03533(11) 0.85522(9) 0.27104(5)
C59 C 0.0118(11) 0.7306(8) 0.3148(5)
H40 H 0.0504 0.7158 0.2948
I11 I 0.11730(7) 0.27343(6) 0.42252(3)
N6 N 0.2039(9) 0.8580(7) 0.7793(3)
C14 C 0.1928(9) 0.9159(9) 0.8087(5)
H9 H 0.2443 0.9468 0.8306
C15 C 0.1095(10) 0.9322(11) 0.8083(5)
H10 H 0.1077 0.9772 0.8284
C16 C 0.0295(11) 0.8871(8) 0.7806(4)
C17 C 0.0370(12) 0.8237(10) 0.7501(5)
C18 C 0.1275(11) 0.8144(11) 0.7513(6)
H12 H 0.1341 0.7730 0.7300
Zn2 Zn 0.32803(14) 0.83567(13) 0.77871(7)
I3 I 0.46983(10) 0.96108(10) 0.81060(7)
I4 I 0.32157(11) 0.74965(10) 0.70522(5)
N7 N 0.3187(10) 0.7690(8) 0.8231(5)
C19 C 0.2455(12) 0.7030(9) 0.8158(5)
H13 H 0.2008 0.6883 0.7910
C20 C 0.2307(13) 0.6543(10) 0.8422(5)
H14 H 0.1762 0.6075 0.8360
C21 C 0.2958(10) 0.6739(9) 0.8778(4)
C22 C 0.3684(14) 0.7412(10) 0.8827(6)
H15 H 0.4168 0.7573 0.9062
C23 C 0.3772(14) 0.7880(10) 0.8558(5)
H16 H 0.4292 0.8366 0.8620
C24 C 0.2847(12) 0.6282(9) 0.9098(4)
N8 N 0.1959(10) 0.5720(7) 0.9067(4)
C25 C 0.1923(9) 0.5354(8) 0.9362(4)
N9 N 0.2616(7) 0.5450(6) 0.9666(3)
C26 C 0.3432(8) 0.6012(7) 0.9639(4)
N10 N 0.3576(8) 0.6447(7) 0.9371(4)
C28 C 0.0732(11) 0.4479(9) 0.9717(5)
H18 H 0.1153 0.4729 0.9975
C29 C 0.0993(9) 0.4699(8) 0.9349(4)
C30 C 0.0405(12) 0.4289(10) 0.8980(5)
H19 H 0.0577 0.4396 0.8721
H22 H 0.5088 0.7212 0.9892
C34 C 0.4272(8) 0.6158(7) 0.9967(4)
I2 I 0.78771(14) 0.24288(9) 0.00615(6)
C6_2 C 0.1488(10) 0.0211(9) 0.1954(5)
N2_2 N 0.2189(8) 0.0590(7) 0.2277(3)
C7_2 C 0.2023(10) 0.1143(7) 0.2565(4)
N3_2 N 0.1267(8) 0.1373(6) 0.2551(3)
C8_2 C 0.0612(8) 0.0936(7) 0.2218(3)
N4_2 N 0.0680(8) 0.0368(6) 0.1907(3)
N5 N 0.3963(8) 0.2052(6) 0.3722(3)
C9_2 C 0.3020(10) 0.2008(9) 0.3704(4)
H5_2 H 0.2789 0.2174 0.3959
C10_2 C 0.2399(10) 0.1740(9) 0.3336(3)
H6_2 H 0.1756 0.1723 0.3340
C11_2 C 0.2714(8) 0.1495(7) 0.2963(4)
C12_2 C 0.3652(8) 0.1527(8) 0.2975(4)
H7_2 H 0.3883 0.1347 0.2722
C13_2 C 0.4263(9) 0.1825(8) 0.3358(4)
H8_2 H 0.4915 0.1866 0.3357
H11_2 H 0.0159 0.2113 0.2702
N11 N 0.0703(9) 0.6496(7) 0.0656(4)
C27_2 C 0.0130(9) 0.6096(7) 0.0294(4)
H17_2 H 0.0321 0.6212 0.0039
C31_2 C 0.0463(12) 0.6296(10) 0.1008(5)
H20_2 H 0.0896 0.6559 0.1261
Zn7 Zn 0.20144(14) 0.73505(11) 0.06710(8)
Zn8 Zn 0.48076(11) 0.22937(10) 0.42815(5)
I7_2 I 0.03527(8) 0.24113(8) 0.80167(3)
I8_2 I 0.01394(7) 0.02345(6) 0.70947(3)
N19_2 N 0.0091(9) 0.2048(7) 0.6838(4)
C55_2 C 0.0677(11) 0.1854(8) 0.6580(5)
H37_2 H 0.0828 0.1396 0.6581
C56_2 C 0.1065(12) 0.2295(8) 0.6315(5)
H38_2 H 0.1501 0.2149 0.6142
C57_2 C 0.0837(10) 0.2963(8) 0.6290(4)
C58_2 C 0.0234(12) 0.3178(9) 0.6567(5)
H39_2 H 0.0060 0.3627 0.6568
C60_2 C 0.1255(10) 0.3414(7) 0.6002(4)
N20_2 N 0.1871(8) 0.3168(6) 0.5773(4)
C61_2 C 0.2232(10) 0.3587(7) 0.5501(4)
N21_2 N 0.2004(8) 0.4205(6) 0.5436(3)
C62_2 C 0.1405(9) 0.4408(7) 0.5692(3)
N22_2 N 0.1030(8) 0.4044(6) 0.5977(3)
N23_2 N 0.4048(8) 0.2753(6) 0.4708(4)
C63_2 C 0.4072(11) 0.3503(9) 0.4775(4)
H41_2 H 0.4500 0.3839 0.4637
C64_2 C 0.3540(14) 0.3793(10) 0.5017(6)
H42_2 H 0.3586 0.4326 0.5052
C65_2 C 0.2884(9) 0.3301(8) 0.5230(4)
C66_2 C 0.2889(9) 0.2575(7) 0.5169(4)
H43_2 H 0.2470 0.2231 0.5305
C67_2 C 0.3470(10) 0.2298(8) 0.4919(4)
H44_2 H 0.3466 0.1778 0.4894
I9_2 I 0.63914(8) 0.33026(8) 0.42521(4)
I10_2 I 0.46911(9) 0.09226(7) 0.43642(4)
N24_2 N 0.0701(8) 0.6373(6) 0.5551(3)
C68_2 C 0.0557(16) 0.6102(9) 0.5892(6)
H45_2 H 0.0317 0.6381 0.6113
C69_2 C 0.0733(16) 0.5448(11) 0.5946(5)
H46_2 H 0.0585 0.5262 0.6189
C70_2 C 0.1128(10) 0.5074(7) 0.5637(4)
C71_2 C 0.1262(10) 0.5322(8) 0.5266(5)
H47_2 H 0.1500 0.5056 0.5039
C72_2 C 0.1020(11) 0.5994(8) 0.5249(5)
H48_2 H 0.1098 0.6173 0.5001
Zn6 Zn 0.04417(11) 0.73926(8) 0.55287(5)
I12_2 I 0.07970(8) 0.76753(6) 0.48241(3)
N27 N 0.1475(8) 0.8226(7) 0.5993(3)
I1_2 I 0.32843(11) 0.70150(10) 0.10322(7)
N1_2 N 0.1874(8) 0.8319(8) 0.1085(5)
C1_2 C 0.2570(10) 0.8853(9) 0.1361(5)
H1_2 H 0.3185 0.8805 0.1361
C2_2 C 0.2484(10) 0.9467(9) 0.1645(5)
H2_2 H 0.3019 0.9822 0.1843
C3_2 C 0.1626(10) 0.9570(8) 0.1644(4)
C4_2 C 0.0890(11) 0.9044(9) 0.1337(5)
H3_2 H 0.0277 0.9095 0.1322
C5_2 C 0.1053(9) 0.8451(9) 0.1054(5)
H4_2 H 0.0562 0.8122 0.0828
C44_2 C 0.3638(10) 0.9903(8) 0.6964(4)
H30_2 H 0.6173 0.9959 0.6698
C50_2 C 0.1271(11) 0.8645(9) 0.6342(4)
H33_2 H 0.0614 0.8554 0.6367
C51_2 C 0.1921(11) 0.9187(11) 0.6664(6)
H34_2 H 0.1726 0.9464 0.6902
C52_2 C 0.2891(9) 0.9321(7) 0.6630(4)
C53_2 C 0.3142(9) 0.8882(7) 0.6291(4)
H35_2 H 0.3796 0.8954 0.6267
C54_2 C 0.2398(8) 0.8314(8) 0.5976(4)
H36_2 H 0.2562 0.7988 0.5747
I2_2 I 0.21229(14) 0.75712(9) 0.99385(6)
N6_2 N 0.7961(9) 0.1420(7) 0.2207(3)
C14_2 C 0.8072(9) 0.0841(9) 0.1913(5)
H9_2 H 0.7557 0.0532 0.1694
C15_2 C 0.8905(10) 0.0678(11) 0.1917(5)
H10_2 H 0.8923 0.0228 0.1716
C16_2 C 0.9705(11) 0.1129(8) 0.2194(4)
C17_2 C 0.9630(12) 0.1763(10) 0.2499(5)
C18_2 C 0.8725(11) 0.1856(11) 0.2487(6)
H12_2 H 0.8659 0.2270 0.2700
Zn2_2 Zn 0.67197(14) 0.16433(13) 0.22129(7)
I3_2 I 0.53017(10) 0.03892(10) 0.18940(7)
I4_2 I 0.67843(11) 0.25035(10) 0.29478(5)
N7_2 N 0.6813(10) 0.2310(8) 0.1769(5)
C19_2 C 0.7545(12) 0.2970(9) 0.1842(5)
H13_2 H 0.7992 0.3117 0.2090
C20_2 C 0.7693(13) 0.3457(10) 0.1578(5)
H14_2 H 0.8238 0.3925 0.1640
C21_2 C 0.7042(10) 0.3261(9) 0.1222(4)
C22_2 C 0.6316(14) 0.2588(10) 0.1173(6)
H15_2 H 0.5832 0.2427 0.0938
C23_2 C 0.6228(14) 0.2120(10) 0.1442(5)
H16_2 H 0.5708 0.1634 0.1380
C24_2 C 0.7153(12) 0.3718(9) 0.0902(4)
N8_2 N 0.8041(10) 0.4280(7) 0.0933(4)
C25_2 C 0.8077(9) 0.4646(8) 0.0638(4)
N9_2 N 0.7384(7) 0.4550(6) 0.0334(3)
C26_2 C 0.6568(8) 0.3988(7) 0.0361(4)
N10_2 N 0.6424(8) 0.3553(7) 0.0629(4)
C28_2 C 0.9268(11) 0.5521(9) 0.0283(5)
H18_2 H 0.8847 0.5271 0.0025
C29_2 C 0.9007(9) 0.5301(8) 0.0651(4)
C30_2 C 0.9595(12) 0.5711(10) 0.1020(5)
H19_2 H 0.9423 0.5604 0.1279
H22_2 H 0.4912 0.2788 0.0108
C34_2 C 0.5728(8) 0.3842(7) 0.0033(4)
N12_2 N 0.4156(8) 0.3581(7) 0.9440(4)
C32_2 C 0.4155(11) 0.3083(11) 0.9686(5)
H21_2 H 0.3587 0.2646 0.9664
C33_2 C 0.4929(9) 0.3179(9) 0.9964(5)
C35_2 C 0.5759(10) 0.4369(8) 0.9787(4)
H23_2 H 0.6309 0.4826 0.9821
C36_2 C 0.4966(10) 0.4211(8) 0.9490(4)
H24_2 H 0.4997 0.4561 0.9317
Zn3_2 Zn 0.29991(12) 0.33012(10) 0.89888(5)
I5_2 I 0.15581(8) 0.27297(7) 0.93257(4)
I6_2 I 0.32759(9) 0.44172(7) 0.86321(4)
N13_2 N 0.3231(9) 0.2415(8) 0.8554(4)
C37_2 C 0.4137(11) 0.2497(10) 0.8507(5)
H25_2 H 0.4625 0.2907 0.8707
C38_2 C 0.4415(11) 0.2031(10) 0.8191(5)
H26_2 H 0.5074 0.2118 0.8170
C39_2 C 0.3700(11) 0.1425(10) 0.7901(5)
C40_2 C 0.2765(11) 0.1303(9) 0.7946(5)
H27_2 H 0.2265 0.0875 0.7760
C41_2 C 0.2563(10) 0.1829(8) 0.8274(4)
H28_2 H 0.1911 0.1763 0.8298
C42_2 C 0.3982(9) 0.0906(8) 0.7554(4)
N14_2 N 0.4937(8) 0.1088(6) 0.7549(3)
C43_2 C 0.5162(9) 0.0614(7) 0.7235(4)
N15_2 N 0.4547(8) 0.0028(6) 0.6928(3)
N16_2 N 0.3290(8) 0.0346(6) 0.7277(3)
N17_2 N 0.8180(8) 0.1142(7) 0.7243(4)
C45_2 C 0.7570(7) 0.0545(8) 0.6934(4)
H29_2 H 0.7813 0.0241 0.6726
C46_2 C 0.6594(7) 0.0374(7) 0.6920(5)
C47_2 C 0.6212(8) 0.0801(7) 0.7230(4)
C48_2 C 0.6861(9) 0.1385(8) 0.7548(4)
H31_2 H 0.6636 0.1672 0.7772
C49_2 C 0.7808(11) 0.1553(10) 0.7547(5)
H32_2 H 0.8236 0.1973 0.7765
Zn4_2 Zn 0.96467(11) 0.14478(9) 0.72896(5)
C59_2 C 0.9882(11) 0.2694(8) 0.6852(5)
H40_2 H 0.9496 0.2842 0.7052
I11_2 I 0.88270(7) 0.72657(6) 0.57748(3)
loop_
_geom_bond_atom_site_label_1
_geom_bond_atom_site_label_2
_geom_bond_site_symmetry_1
_geom_bond_site_symmetry_2
N18 C50 1_555 1_555
C50 H33 1_555 1_555
C51 C50 1_555 1_555
H34 C51 1_555 1_555
C52 C44 1_555 1_555
C53 C52 1_555 1_555
H35 C53 1_555 1_555
C54 N18 1_555 1_555
H36 C54 1_555 1_555
Zn9 N18 1_555 1_555
C51 C52 1_555 1_555
C53 C54 1_555 1_555
Zn1 I1 1_555 1_555
N1 Zn1 1_555 1_555
C1 N1 1_555 1_555
H1 C1 1_555 1_555
C2 C1 1_555 1_555
H2 C2 1_555 1_555
C3 C2 1_555 1_555
C4 C3 1_555 1_555
H3 C4 1_555 1_555
C5 N1 1_555 1_555
H4 C5 1_555 1_555
N26 Zn1 1_555 1_555
C4 C5 1_555 1_555
C55 N19 1_555 1_555
H37 C55 1_555 1_555
C56 C55 1_555 1_555
H38 C56 1_555 1_555
C57 C56 1_555 1_555
C58 C57 1_555 1_555
H39 C58 1_555 1_555
C60 C57 1_555 1_555
N20 C60 1_555 1_555
C61 N20 1_555 1_555
N21 C61 1_555 1_555
C62 N21 1_555 1_555
N22 C60 1_555 1_555
N23 C63 1_555 1_555
C63 H41 1_555 1_555
C64 C63 1_555 1_555
H42 C64 1_555 1_555
C65 C61 1_555 1_555
C66 C65 1_555 1_555
H43 C66 1_555 1_555
C67 N23 1_555 1_555
H44 C67 1_555 1_555
Zn5 N23 1_555 1_555
I9 Zn5 1_555 1_555
I10 Zn5 1_555 1_555
N24 C68 1_555 1_555
C68 H45 1_555 1_555
C69 C68 1_555 1_555
H46 C69 1_555 1_555
C70 C62 1_555 1_555
C71 C70 1_555 1_555
H47 C71 1_555 1_555
C72 N24 1_555 1_555
H48 C72 1_555 1_555
Zn9 N24 1_555 1_555
I12 Zn9 1_555 1_555
N25 Zn5 1_555 1_555
C62 N22 1_555 1_555
C64 C65 1_555 1_555
C66 C67 1_555 1_555
C69 C70 1_555 1_555
C71 C72 1_555 1_555
N2 C6 1_555 1_555
C7 N2 1_555 1_555
N3 C7 1_555 1_555
C8 N3 1_555 1_555
N4 C6 1_555 1_555
N25 C9 1_555 1_555
C9 H5 1_555 1_555
C10 C9 1_555 1_555
H6 C10 1_555 1_555
C11 C7 1_555 1_555
C12 C11 1_555 1_555
H7 C12 1_555 1_555
C13 N25 1_555 1_555
H8 C13 1_555 1_555
N26 C27 1_555 1_555
C27 H17 1_555 1_555
C31 N26 1_555 1_555
H20 C31 1_555 1_555
C8 N4 1_555 1_555
C10 C11 1_555 1_555
C12 C13 1_555 1_555
N12 C32 1_555 1_555
C32 H21 1_555 1_555
C33 C32 1_555 1_555
H23 C35 1_555 1_555
C36 N12 1_555 1_555
H24 C36 1_555 1_555
Zn3 N12 1_555 1_555
I5 Zn3 1_555 1_555
I6 Zn3 1_555 1_555
N13 Zn3 1_555 1_555
C37 N13 1_555 1_555
H25 C37 1_555 1_555
C38 C37 1_555 1_555
H26 C38 1_555 1_555
C39 C38 1_555 1_555
C40 C39 1_555 1_555
H27 C40 1_555 1_555
C41 N13 1_555 1_555
H28 C41 1_555 1_555
C42 C39 1_555 1_555
N14 C42 1_555 1_555
C43 N14 1_555 1_555
N15 C43 1_555 1_555
N16 C42 1_555 1_555
N17 C45 1_555 1_555
C45 H29 1_555 1_555
C46 C45 1_555 1_555
C47 C43 1_555 1_555
C48 C47 1_555 1_555
H31 C48 1_555 1_555
C49 N17 1_555 1_555
H32 C49 1_555 1_555
Zn4 N17 1_555 1_555
H40 C59 1_555 1_555
C35 C36 1_555 1_555
C40 C41 1_555 1_555
C46 C47 1_555 1_555
C48 C49 1_555 1_555
N6 C14 1_555 1_555
C14 H9 1_555 1_555
C15 C14 1_555 1_555
H10 C15 1_555 1_555
C17 C16 1_555 1_555
C18 N6 1_555 1_555
H12 C18 1_555 1_555
Zn2 N6 1_555 1_555
I3 Zn2 1_555 1_555
I4 Zn2 1_555 1_555
N7 Zn2 1_555 1_555
C19 N7 1_555 1_555
H13 C19 1_555 1_555
C20 C19 1_555 1_555
H14 C20 1_555 1_555
C21 C20 1_555 1_555
C22 C21 1_555 1_555
H15 C22 1_555 1_555
C23 N7 1_555 1_555
H16 C23 1_555 1_555
C24 C21 1_555 1_555
N8 C24 1_555 1_555
C25 N8 1_555 1_555
N9 C25 1_555 1_555
C26 N9 1_555 1_555
N10 C24 1_555 1_555
H18 C28 1_555 1_555
C29 C25 1_555 1_555
C30 C29 1_555 1_555
H19 C30 1_555 1_555
C34 C26 1_555 1_555
C15 C16 1_555 1_555
C17 C18 1_555 1_555
C22 C23 1_555 1_555
C26 N10 1_555 1_555
C28 C29 1_555 1_555
N2_2 C6_2 1_555 1_555
C7_2 N2_2 1_555 1_555
N3_2 C7_2 1_555 1_555
C8_2 N3_2 1_555 1_555
N4_2 C6_2 1_555 1_555
N5 C9_2 1_555 1_555
C9_2 H5_2 1_555 1_555
C10_2 C9_2 1_555 1_555
H6_2 C10_2 1_555 1_555
C11_2 C7_2 1_555 1_555
C12_2 C11_2 1_555 1_555
H7_2 C12_2 1_555 1_555
C13_2 N5 1_555 1_555
H8_2 C13_2 1_555 1_555
N11 C27_2 1_555 1_555
C27_2 H17_2 1_555 1_555
C31_2 N11 1_555 1_555
H20_2 C31_2 1_555 1_555
Zn7 N11 1_555 1_555
Zn8 N5 1_555 1_555
C8_2 N4_2 1_555 1_555
C10_2 C11_2 1_555 1_555
C12_2 C13_2 1_555 1_555
C55_2 N19_2 1_555 1_555
H37_2 C55_2 1_555 1_555
C56_2 C55_2 1_555 1_555
H38_2 C56_2 1_555 1_555
C57_2 C56_2 1_555 1_555
C58_2 C57_2 1_555 1_555
H39_2 C58_2 1_555 1_555
C60_2 C57_2 1_555 1_555
N20_2 C60_2 1_555 1_555
C61_2 N20_2 1_555 1_555
N21_2 C61_2 1_555 1_555
C62_2 N21_2 1_555 1_555
N22_2 C60_2 1_555 1_555
N23_2 C63_2 1_555 1_555
C63_2 H41_2 1_555 1_555
C64_2 C63_2 1_555 1_555
H42_2 C64_2 1_555 1_555
C65_2 C61_2 1_555 1_555
C66_2 C65_2 1_555 1_555
H43_2 C66_2 1_555 1_555
C67_2 N23_2 1_555 1_555
H44_2 C67_2 1_555 1_555
Zn8 N23_2 1_555 1_555
I9_2 Zn8 1_555 1_555
I10_2 Zn8 1_555 1_555
N24_2 C68_2 1_555 1_555
C68_2 H45_2 1_555 1_555
C69_2 C68_2 1_555 1_555
H46_2 C69_2 1_555 1_555
C70_2 C62_2 1_555 1_555
C71_2 C70_2 1_555 1_555
H47_2 C71_2 1_555 1_555
C72_2 N24_2 1_555 1_555
H48_2 C72_2 1_555 1_555
Zn6 N24_2 1_555 1_555
I12_2 Zn6 1_555 1_555
N27 Zn6 1_555 1_555
C62_2 N22_2 1_555 1_555
C64_2 C65_2 1_555 1_555
C66_2 C67_2 1_555 1_555
C69_2 C70_2 1_555 1_555
C71_2 C72_2 1_555 1_555
Zn7 I1_2 1_555 1_555
N1_2 Zn7 1_555 1_555
C1_2 N1_2 1_555 1_555
H1_2 C1_2 1_555 1_555
C2_2 C1_2 1_555 1_555
H2_2 C2_2 1_555 1_555
C3_2 C2_2 1_555 1_555
C4_2 C3_2 1_555 1_555
H3_2 C4_2 1_555 1_555
C5_2 N1_2 1_555 1_555
H4_2 C5_2 1_555 1_555
C4_2 C5_2 1_555 1_555
N27 C50_2 1_555 1_555
C50_2 H33_2 1_555 1_555
C51_2 C50_2 1_555 1_555
H34_2 C51_2 1_555 1_555
C52_2 C44_2 1_555 1_555
C53_2 C52_2 1_555 1_555
H35_2 C53_2 1_555 1_555
C54_2 N27 1_555 1_555
H36_2 C54_2 1_555 1_555
C51_2 C52_2 1_555 1_555
C53_2 C54_2 1_555 1_555
N6_2 C14_2 1_555 1_555
C14_2 H9_2 1_555 1_555
C15_2 C14_2 1_555 1_555
H10_2 C15_2 1_555 1_555
C17_2 C16_2 1_555 1_555
C18_2 N6_2 1_555 1_555
H12_2 C18_2 1_555 1_555
Zn2_2 N6_2 1_555 1_555
I3_2 Zn2_2 1_555 1_555
I4_2 Zn2_2 1_555 1_555
N7_2 Zn2_2 1_555 1_555
C19_2 N7_2 1_555 1_555
H13_2 C19_2 1_555 1_555
C20_2 C19_2 1_555 1_555
H14_2 C20_2 1_555 1_555
C21_2 C20_2 1_555 1_555
C22_2 C21_2 1_555 1_555
H15_2 C22_2 1_555 1_555
C23_2 N7_2 1_555 1_555
H16_2 C23_2 1_555 1_555
C24_2 C21_2 1_555 1_555
N8_2 C24_2 1_555 1_555
C25_2 N8_2 1_555 1_555
N9_2 C25_2 1_555 1_555
C26_2 N9_2 1_555 1_555
N10_2 C24_2 1_555 1_555
H18_2 C28_2 1_555 1_555
C29_2 C25_2 1_555 1_555
C30_2 C29_2 1_555 1_555
H19_2 C30_2 1_555 1_555
C34_2 C26_2 1_555 1_555
C15_2 C16_2 1_555 1_555
C17_2 C18_2 1_555 1_555
C22_2 C23_2 1_555 1_555
C26_2 N10_2 1_555 1_555
C28_2 C29_2 1_555 1_555
N12_2 C32_2 1_555 1_555
C32_2 H21_2 1_555 1_555
C33_2 C32_2 1_555 1_555
H23_2 C35_2 1_555 1_555
C36_2 N12_2 1_555 1_555
H24_2 C36_2 1_555 1_555
Zn3_2 N12_2 1_555 1_555
I5_2 Zn3_2 1_555 1_555
I6_2 Zn3_2 1_555 1_555
N13_2 Zn3_2 1_555 1_555
C37_2 N13_2 1_555 1_555
H25_2 C37_2 1_555 1_555
C38_2 C37_2 1_555 1_555
H26_2 C38_2 1_555 1_555
C39_2 C38_2 1_555 1_555
C40_2 C39_2 1_555 1_555
H27_2 C40_2 1_555 1_555
C41_2 N13_2 1_555 1_555
H28_2 C41_2 1_555 1_555
C42_2 C39_2 1_555 1_555
N14_2 C42_2 1_555 1_555
C43_2 N14_2 1_555 1_555
N15_2 C43_2 1_555 1_555
N16_2 C42_2 1_555 1_555
N17_2 C45_2 1_555 1_555
C45_2 H29_2 1_555 1_555
C46_2 C45_2 1_555 1_555
C47_2 C43_2 1_555 1_555
C48_2 C47_2 1_555 1_555
H31_2 C48_2 1_555 1_555
C49_2 N17_2 1_555 1_555
H32_2 C49_2 1_555 1_555
Zn4_2 N17_2 1_555 1_555
H40_2 C59_2 1_555 1_555
C35_2 C36_2 1_555 1_555
C40_2 C41_2 1_555 1_555
C46_2 C47_2 1_555 1_555
C48_2 C49_2 1_555 1_555

#END
