
###############################################################################
#
# This file contains modified crystal structure data generated from the
# MOF subset of the Cambridge Structural Database (CSD) v543 
# hosted by the Cambridge Crystallographic Data Centre (CCDC).
#
# This work is licensed under the Creative Commons
# Attribution-NonCommercial-ShareAlike 4.0 International License.
# To view a copy of this license, visit
# http://creativecommons.org/licenses/by-nc-sa/4.0/
# or send a letter to
# Creative Commons, PO Box 1866, Mountain View, CA 94042, USA.
#
# CIF created using the CSD Python API on 29 September 2022
# The structure has been converted into the P1 space group
# The structure has a 3D framework
# The original CSD entry REXFOR is in the monoclinic crystal system
# The framework has been calculated to contain at least 10.0% void space
# The void calculation uses a probe of radius 1.32A, grid spacing 0.4
#
###############################################################################

data_REXFOR
_chemical_formula_moiety         '(C288 H192 I48 N92 Zn24)n'
_symmetry_cell_setting           triclinic
_symmetry_space_group_name_H-M   'P 1'
_symmetry_Int_Tables_number      1
_space_group_name_Hall           'P 1'
loop_
_symmetry_equiv_pos_site_id
_symmetry_equiv_pos_as_xyz
1 x,y,z
_cell_length_a                   34.644(6)
_cell_length_b                   14.879(3)
_cell_length_c                   30.836(6)
_cell_angle_alpha                90
_cell_angle_beta                 101.787(2)
_cell_angle_gamma                90
_cell_volume                     15559.8
loop_
_atom_site_label
_atom_site_type_symbol
_atom_site_fract_x
_atom_site_fract_y
_atom_site_fract_z
C1 C 0.3250(4) 0.0499(7) 0.4009(4)
H1 H 0.3383 0.0787 0.4273
C2 C 0.2973(4) 0.0984(7) 0.3714(4)
H2 H 0.2934 0.1607 0.3756
C3 C 0.2749(3) 0.0519(6) 0.3346(3)
C6 C 0.2417(3) 0.0977(6) 0.3054(3)
N2 N 0.2361(2) 0.1849(4) 0.3120(3)
C7 C 0.2067(3) 0.2219(5) 0.2834(3)
N3 N 0.1814(2) 0.1751(4) 0.2520(2)
C8 C 0.1914(2) 0.0916(5) 0.2489(3)
N4 N 0.2214(2) 0.0496(4) 0.2735(2)
N5 N 0.1873(3) 0.5049(5) 0.2816(3)
C9 C 0.1624(4) 0.4478(7) 0.2579(4)
H5 H 0.1395 0.4723 0.2395
C10 C 0.1667(4) 0.3566(6) 0.2575(5)
H6 H 0.1481 0.3193 0.2388
C11 C 0.1991(3) 0.3216(5) 0.2854(3)
C12 C 0.2240(3) 0.3777(6) 0.3109(4)
H7 H 0.2467 0.3536 0.3300
C13 C 0.2182(4) 0.4683(7) 0.3105(5)
H8 H 0.2357 0.5057 0.3303
C16 C 0.1661(2) 0.0385(5) 0.2120(3)
C17 C 0.1354(4) 0.0788(7) 0.1835(4)
H11 H 0.1307 0.1413 0.1862
C18 C 0.1116(4) 0.0306(7) 0.1517(4)
H12 H 0.0892 0.0601 0.1347
C19 C 0.0341(3) 0.0369(6) 0.0490(3)
H13 H 0.0151 0.0233 0.0663
C20 C 0.0279(3) 0.1124(6) 0.0242(3)
H14 H 0.0063 0.1508 0.0254
Zn5 Zn 0.17588(5) 0.64280(8) 0.27631(6)
C21 C 0.0533(2) 0.1318(5) 0.9978(3)
C22 C 0.0837(3) 0.0716(7) 0.9966(3)
H15 H 0.1011 0.0799 0.9768
C24 C 0.0485(3) 0.2133(5) 0.9693(3)
N8 N 0.0211(2) 0.2732(5) 0.9740(2)
C25 C 0.0173(2) 0.3432(6) 0.9455(3)
N9 N 0.0392(2) 0.3577(4) 0.9160(2)
C26 C 0.0673(3) 0.2973(6) 0.9151(3)
N10 N 0.0739(2) 0.2228(4) 0.9415(2)
N12 N 0.1422(3) 0.3398(5) 0.8233(3)
C32 C 0.1527(4) 0.2837(7) 0.8584(4)
H21 H 0.1776 0.2548 0.8627
C33 C 0.1289(3) 0.2668(6) 0.8878(3)
H22 H 0.1370 0.2257 0.9115
C34 C 0.0929(3) 0.3101(6) 0.8827(3)
C35 C 0.0833(4) 0.3697(7) 0.8476(4)
H23 H 0.0594 0.4030 0.8438
C36 C 0.1081(4) 0.3808(8) 0.8183(4)
H24 H 0.1002 0.4196 0.7936
Zn3 Zn 0.17588(5) 0.35720(8) 0.77631(6)
I5 I 0.23902(4) 0.27213(6) 0.80226(5)
I6 I 0.13024(5) 0.33218(7) 0.70065(4)
N13 N 0.1873(3) 0.4951(5) 0.7816(3)
C1_2 C 0.3250(4) 0.9501(7) 0.9009(4)
H1_2 H 0.3383 0.9213 0.9273
C2_2 C 0.2973(4) 0.9016(7) 0.8714(4)
H2_2 H 0.2934 0.8393 0.8756
C3_2 C 0.2749(3) 0.9481(6) 0.8346(3)
C6_2 C 0.2417(3) 0.9023(6) 0.8054(3)
N2_2 N 0.2361(2) 0.8151(4) 0.8120(3)
C7_2 C 0.2067(3) 0.7781(5) 0.7834(3)
N3_2 N 0.1814(2) 0.8249(4) 0.7520(2)
C8_2 C 0.1914(2) 0.9084(5) 0.7489(3)
N4_2 N 0.2214(2) 0.9504(4) 0.7735(2)
C9_2 C 0.1624(4) 0.5522(7) 0.7579(4)
H5_2 H 0.1395 0.5277 0.7395
C10_2 C 0.1667(4) 0.6434(6) 0.7575(5)
H6_2 H 0.1481 0.6807 0.7388
C11_2 C 0.1991(3) 0.6784(5) 0.7854(3)
C12_2 C 0.2240(3) 0.6223(6) 0.8109(4)
H7_2 H 0.2467 0.6464 0.8300
C13_2 C 0.2182(4) 0.5317(7) 0.8105(5)
H8_2 H 0.2357 0.4943 0.8303
C16_2 C 0.1661(2) 0.9615(5) 0.7120(3)
C17_2 C 0.1354(4) 0.9212(7) 0.6835(4)
H11_2 H 0.1307 0.8587 0.6862
C18_2 C 0.1116(4) 0.9694(7) 0.6517(4)
H12_2 H 0.0892 0.9399 0.6347
C19_2 C 0.0341(3) 0.9631(6) 0.5490(3)
H13_2 H 0.0151 0.9767 0.5663
C20_2 C 0.0279(3) 0.8876(6) 0.5242(3)
H14_2 H 0.0063 0.8492 0.5254
C21_2 C 0.0533(2) 0.8682(5) 0.4978(3)
C22_2 C 0.0837(3) 0.9284(7) 0.4966(3)
H15_2 H 0.1011 0.9201 0.4768
C24_2 C 0.0485(3) 0.7867(5) 0.4693(3)
N8_2 N 0.0211(2) 0.7268(5) 0.4740(2)
C25_2 C 0.0173(2) 0.6568(6) 0.4455(3)
N9_2 N 0.0392(2) 0.6423(4) 0.4160(2)
C26_2 C 0.0673(3) 0.7027(6) 0.4151(3)
N10_2 N 0.0739(2) 0.7772(4) 0.4415(2)
N12_2 N 0.1422(3) 0.6602(5) 0.3233(3)
C32_2 C 0.1527(4) 0.7163(7) 0.3584(4)
H21_2 H 0.1776 0.7452 0.3627
C33_2 C 0.1289(3) 0.7332(6) 0.3878(3)
H22_2 H 0.1370 0.7743 0.4115
C34_2 C 0.0929(3) 0.6899(6) 0.3827(3)
C35_2 C 0.0833(4) 0.6303(7) 0.3476(4)
H23_2 H 0.0594 0.5970 0.3438
C36_2 C 0.1081(4) 0.6192(8) 0.3183(4)
H24_2 H 0.1002 0.5804 0.2936
I5_2 I 0.23902(4) 0.72787(6) 0.30226(5)
I6_2 I 0.13024(5) 0.66782(7) 0.20065(4)
Zn1 Zn 0.37396(4) 0.89436(10) 0.44168(5)
I1 I 0.34772(3) 0.90860(11) 0.51195(4)
I2 I 0.38888(4) 0.75416(7) 0.40549(5)
N1 N 0.3341(3) 0.9632(5) 0.3941(3)
C4 C 0.2831(3) 0.9637(6) 0.3290(4)
H3 H 0.2687 0.9315 0.3043
C5 C 0.3120(3) 0.9212(7) 0.3589(4)
H4 H 0.3167 0.8593 0.3546
N6 N 0.1171(2) 0.9462(5) 0.1427(2)
C14 C 0.1484(3) 0.9067(6) 0.1690(3)
H9 H 0.1535 0.8452 0.1640
C15 C 0.1732(3) 0.9505(5) 0.2026(3)
H10 H 0.1954 0.9200 0.2194
Zn2 Zn 0.07699(4) 0.87674(7) 0.09669(4)
I3 I 0.01897(3) 0.85289(6) 0.13383(3)
I4 I 0.11319(4) 0.75975(5) 0.06072(3)
N7 N 0.0634(3) 0.9807(5) 0.0517(3)
C23 C 0.0876(3) 0.9989(7) 0.0253(4)
H16 H 0.1093 0.9595 0.0258
N14 N 0.4223(3) 0.9770(7) 0.4482(3)
C21_3 C 0.5533(2) 0.6318(5) 0.9978(3)
C22_3 C 0.5837(3) 0.5716(7) 0.9966(3)
H15_3 H 0.6011 0.5799 0.9768
C24_3 C 0.5485(3) 0.7133(5) 0.9693(3)
N8_3 N 0.5211(2) 0.7732(5) 0.9740(2)
C25_3 C 0.5173(2) 0.8432(6) 0.9455(3)
N9_3 N 0.5392(2) 0.8577(4) 0.9160(2)
C26_3 C 0.5673(3) 0.7973(6) 0.9151(3)
N10_3 N 0.5739(2) 0.7228(4) 0.9415(2)
C28 C 0.4727(4) 0.9652(12) 0.9147(4)
H18 H 0.4847 0.9639 0.8896
C29 C 0.4849(3) 0.9074(6) 0.9485(4)
C30 C 0.4649(3) 0.9081(6) 0.9814(3)
C31 C 0.4355(3) 0.9655(7) 0.9803(3)
N12_3 N 0.6422(3) 0.8398(5) 0.8233(3)
C32_3 C 0.6527(4) 0.7837(7) 0.8584(4)
H21_3 H 0.6776 0.7548 0.8627
C33_3 C 0.6289(3) 0.7668(6) 0.8878(3)
H22_3 H 0.6370 0.7257 0.9115
C34_3 C 0.5929(3) 0.8101(6) 0.8827(3)
C35_3 C 0.5833(4) 0.8697(7) 0.8476(4)
H23_3 H 0.5594 0.9030 0.8438
C36_3 C 0.6081(4) 0.8808(8) 0.8183(4)
H24_3 H 0.6002 0.9196 0.7936
Zn3_2 Zn 0.67588(5) 0.85720(8) 0.77631(6)
I5_3 I 0.73902(4) 0.77213(6) 0.80226(5)
I6_3 I 0.63024(5) 0.83218(7) 0.70065(4)
N13_2 N 0.6873(3) 0.9951(5) 0.7816(3)
H8_3 H 0.7357 0.9943 0.8303
C27 C 0.4432(4) 0.9747(11) 0.4160(7)
H17 H 0.4373 0.9300 0.3937
H19 H 0.9718 0.3673 0.0055
H20 H 0.9228 0.4654 0.0049
N11 N 0.9223(3) 0.5230(7) 0.9482(3)
C27_2 C 0.9432(4) 0.5253(11) 0.9160(7)
H17_2 H 0.9373 0.5700 0.8937
C28_2 C 0.9727(4) 0.4652(12) 0.9147(4)
H18_2 H 0.9847 0.4639 0.8896
C29_2 C 0.9849(3) 0.4074(6) 0.9485(4)
C30_2 C 0.9649(3) 0.4081(6) 0.9814(3)
C31_2 C 0.9355(3) 0.4655(7) 0.9803(3)
Zn4 Zn 0.87396(4) 0.60564(10) 0.94168(5)
N5_2 N 0.6873(3) 0.0049(5) 0.2816(3)
H8_4 H 0.7357 0.0057 0.3303
Zn5_2 Zn 0.67588(5) 0.14280(8) 0.27631(6)
I2_2 I 0.88888(4) 0.74584(7) 0.90549(5)
N1_2 N 0.8341(3) 0.5368(5) 0.8941(3)
C1_3 C 0.8250(4) 0.4501(7) 0.9009(4)
H1_3 H 0.8383 0.4213 0.9273
C2_3 C 0.7973(4) 0.4016(7) 0.8714(4)
H2_3 H 0.7934 0.3393 0.8756
C3_3 C 0.7749(3) 0.4481(6) 0.8346(3)
C4_2 C 0.7831(3) 0.5363(6) 0.8290(4)
H3_2 H 0.7687 0.5685 0.8043
C5_2 C 0.8120(3) 0.5788(7) 0.8589(4)
H4_2 H 0.8167 0.6407 0.8546
C6_3 C 0.7417(3) 0.4023(6) 0.8054(3)
N2_3 N 0.7361(2) 0.3151(4) 0.8120(3)
C7_3 C 0.7067(3) 0.2781(5) 0.7834(3)
N3_3 N 0.6814(2) 0.3249(4) 0.7520(2)
C8_3 C 0.6914(2) 0.4084(5) 0.7489(3)
N4_3 N 0.7214(2) 0.4504(4) 0.7735(2)
C9_3 C 0.6624(4) 0.0522(7) 0.7579(4)
H5_3 H 0.6395 0.0277 0.7395
C10_3 C 0.6667(4) 0.1434(6) 0.7575(5)
H6_3 H 0.6481 0.1807 0.7388
C11_3 C 0.6991(3) 0.1784(5) 0.7854(3)
C12_3 C 0.7240(3) 0.1223(6) 0.8109(4)
H7_3 H 0.7467 0.1464 0.8300
C13_3 C 0.7182(4) 0.0317(7) 0.8105(5)
N6_2 N 0.6171(2) 0.5538(5) 0.6427(2)
C14_2 C 0.6484(3) 0.5933(6) 0.6690(3)
H9_2 H 0.6535 0.6548 0.6640
C15_2 C 0.6732(3) 0.5495(5) 0.7026(3)
H10_2 H 0.6954 0.5800 0.7194
C16_3 C 0.6661(2) 0.4615(5) 0.7120(3)
C17_3 C 0.6354(4) 0.4212(7) 0.6835(4)
H11_3 H 0.6307 0.3587 0.6862
C18_3 C 0.6116(4) 0.4694(7) 0.6517(4)
H12_3 H 0.5892 0.4399 0.6347
Zn2_2 Zn 0.57699(4) 0.62326(7) 0.59669(4)
I3_2 I 0.51897(3) 0.64711(6) 0.63383(3)
I4_2 I 0.61319(4) 0.74025(5) 0.56072(3)
N7_2 N 0.5634(3) 0.5193(5) 0.5517(3)
C19_3 C 0.5341(3) 0.4631(6) 0.5490(3)
H13_3 H 0.5151 0.4767 0.5663
C20_3 C 0.5279(3) 0.3876(6) 0.5242(3)
H14_3 H 0.5063 0.3492 0.5254
C21_4 C 0.5533(2) 0.3682(5) 0.4978(3)
C22_4 C 0.5837(3) 0.4284(7) 0.4966(3)
H15_4 H 0.6011 0.4201 0.4768
C23_2 C 0.5876(3) 0.5011(7) 0.5253(4)
H16_2 H 0.6093 0.5405 0.5258
C24_4 C 0.5485(3) 0.2867(5) 0.4693(3)
N8_4 N 0.5211(2) 0.2268(5) 0.4740(2)
C25_4 C 0.5173(2) 0.1568(6) 0.4455(3)
N9_4 N 0.5392(2) 0.1423(4) 0.4160(2)
C26_4 C 0.5673(3) 0.2027(6) 0.4151(3)
N10_4 N 0.5739(2) 0.2772(4) 0.4415(2)
C28_3 C 0.4727(4) 0.0348(12) 0.4147(4)
H18_3 H 0.4847 0.0361 0.3896
C29_3 C 0.4849(3) 0.0926(6) 0.4485(4)
C30_3 C 0.4649(3) 0.0919(6) 0.4814(3)
H19_2 H 0.4718 0.1327 0.5055
C31_3 C 0.4355(3) 0.0345(7) 0.4803(3)
H20_2 H 0.4228 0.0346 0.5049
N12_4 N 0.6422(3) 0.1602(5) 0.3233(3)
C32_4 C 0.6527(4) 0.2163(7) 0.3584(4)
H21_4 H 0.6776 0.2452 0.3627
C33_4 C 0.6289(3) 0.2332(6) 0.3878(3)
H22_4 H 0.6370 0.2743 0.4115
C34_4 C 0.5929(3) 0.1899(6) 0.3827(3)
C35_4 C 0.5833(4) 0.1303(7) 0.3476(4)
H23_4 H 0.5594 0.0970 0.3438
C36_4 C 0.6081(4) 0.1192(8) 0.3183(4)
H24_4 H 0.6002 0.0804 0.2936
I5_4 I 0.73902(4) 0.22787(6) 0.30226(5)
I6_4 I 0.63024(5) 0.16782(7) 0.20065(4)
N11_2 N 0.0777(3) 0.5230(7) 0.5518(3)
C27_3 C 0.0568(4) 0.5253(11) 0.5840(7)
H17_3 H 0.0627 0.5700 0.6063
C28_4 C 0.0273(4) 0.4652(12) 0.5853(4)
H18_4 H 0.0153 0.4639 0.6104
C29_4 C 0.0151(3) 0.4074(6) 0.5515(4)
C30_4 C 0.0351(3) 0.4081(6) 0.5186(3)
H19_3 H 0.0282 0.3673 0.4945
C31_4 C 0.0645(3) 0.4655(7) 0.5197(3)
H20_3 H 0.0772 0.4654 0.4951
Zn4_2 Zn 0.12604(4) 0.60564(10) 0.55832(5)
I1_2 I 0.15228(3) 0.59140(11) 0.48805(4)
I2_3 I 0.11112(4) 0.74584(7) 0.59451(5)
N1_3 N 0.1659(3) 0.5368(5) 0.6059(3)
C1_4 C 0.1750(4) 0.4501(7) 0.5991(4)
H1_4 H 0.1617 0.4213 0.5727
C2_4 C 0.2027(4) 0.4016(7) 0.6286(4)
H2_4 H 0.2066 0.3393 0.6244
C3_4 C 0.2251(3) 0.4481(6) 0.6654(3)
C4_3 C 0.2169(3) 0.5363(6) 0.6710(4)
H3_3 H 0.2313 0.5685 0.6957
C5_3 C 0.1880(3) 0.5788(7) 0.6411(4)
H4_3 H 0.1833 0.6407 0.6454
C6_4 C 0.2583(3) 0.4023(6) 0.6946(3)
N2_4 N 0.2639(2) 0.3151(4) 0.6880(3)
C7_4 C 0.2933(3) 0.2781(5) 0.7166(3)
N3_4 N 0.3186(2) 0.3249(4) 0.7480(2)
C8_4 C 0.3086(2) 0.4084(5) 0.7511(3)
N4_4 N 0.2786(2) 0.4504(4) 0.7265(2)
C9_4 C 0.3376(4) 0.0522(7) 0.7421(4)
H5_4 H 0.3605 0.0277 0.7605
C10_4 C 0.3333(4) 0.1434(6) 0.7425(5)
H6_4 H 0.3519 0.1807 0.7612
C11_4 C 0.3009(3) 0.1784(5) 0.7146(3)
C12_4 C 0.2760(3) 0.1223(6) 0.6891(4)
H7_4 H 0.2533 0.1464 0.6700
C13_4 C 0.2818(4) 0.0317(7) 0.6895(5)
N6_3 N 0.3829(2) 0.5538(5) 0.8573(2)
C14_3 C 0.3516(3) 0.5933(6) 0.8310(3)
H9_3 H 0.3465 0.6548 0.8360
C15_3 C 0.3268(3) 0.5495(5) 0.7974(3)
H10_3 H 0.3046 0.5800 0.7806
C16_4 C 0.3339(2) 0.4615(5) 0.7880(3)
C17_4 C 0.3646(4) 0.4212(7) 0.8165(4)
H11_4 H 0.3693 0.3587 0.8138
C18_4 C 0.3884(4) 0.4694(7) 0.8483(4)
H12_4 H 0.4108 0.4399 0.8653
Zn2_3 Zn 0.42301(4) 0.62326(7) 0.90331(4)
I3_3 I 0.48103(3) 0.64711(6) 0.86617(3)
I4_3 I 0.38681(4) 0.74025(5) 0.93928(3)
N7_3 N 0.4366(3) 0.5193(5) 0.9483(3)
C19_4 C 0.4659(3) 0.4631(6) 0.9510(3)
H13_4 H 0.4849 0.4767 0.9337
C20_4 C 0.4721(3) 0.3876(6) 0.9758(3)
H14_4 H 0.4937 0.3492 0.9746
C23_3 C 0.4124(3) 0.5011(7) 0.9747(4)
H16_3 H 0.3907 0.5405 0.9742
H19_4 H 0.5282 0.1327 0.9945
H20_4 H 0.5772 0.0346 0.9951
C1_5 C 0.6750(4) 0.0499(7) 0.0991(4)
H1_5 H 0.6617 0.0787 0.0727
C2_5 C 0.7027(4) 0.0984(7) 0.1286(4)
H2_5 H 0.7066 0.1607 0.1244
C3_5 C 0.7251(3) 0.0519(6) 0.1654(3)
C6_5 C 0.7583(3) 0.0977(6) 0.1946(3)
N2_5 N 0.7639(2) 0.1849(4) 0.1880(3)
C7_5 C 0.7933(3) 0.2219(5) 0.2166(3)
N3_5 N 0.8186(2) 0.1751(4) 0.2480(2)
C8_5 C 0.8086(2) 0.0916(5) 0.2511(3)
N4_5 N 0.7786(2) 0.0496(4) 0.2265(2)
N5_3 N 0.8127(3) 0.5049(5) 0.2184(3)
C9_5 C 0.8376(4) 0.4478(7) 0.2421(4)
H5_5 H 0.8605 0.4723 0.2605
C10_5 C 0.8333(4) 0.3566(6) 0.2425(5)
H6_5 H 0.8519 0.3193 0.2612
C11_5 C 0.8009(3) 0.3216(5) 0.2146(3)
C12_5 C 0.7760(3) 0.3777(6) 0.1891(4)
H7_5 H 0.7533 0.3536 0.1700
C13_5 C 0.7818(4) 0.4683(7) 0.1895(5)
H8_5 H 0.7643 0.5057 0.1697
C16_5 C 0.8339(2) 0.0385(5) 0.2880(3)
C17_5 C 0.8646(4) 0.0788(7) 0.3165(4)
H11_5 H 0.8693 0.1413 0.3138
C18_5 C 0.8884(4) 0.0306(7) 0.3483(4)
H12_5 H 0.9108 0.0601 0.3653
C19_5 C 0.9659(3) 0.0369(6) 0.4510(3)
H13_5 H 0.9849 0.0233 0.4337
C20_5 C 0.9721(3) 0.1124(6) 0.4758(3)
H14_5 H 0.9937 0.1508 0.4746
C21_5 C 0.9467(2) 0.1318(5) 0.5022(3)
C22_5 C 0.9163(3) 0.0716(7) 0.5034(3)
H15_5 H 0.8989 0.0799 0.5232
C24_5 C 0.9515(3) 0.2133(5) 0.5307(3)
N8_5 N 0.9789(2) 0.2732(5) 0.5260(2)
C25_5 C 0.9827(2) 0.3432(6) 0.5545(3)
N9_5 N 0.9608(2) 0.3577(4) 0.5840(2)
C26_5 C 0.9327(3) 0.2973(6) 0.5849(3)
N10_5 N 0.9261(2) 0.2228(4) 0.5585(2)
N12_5 N 0.8578(3) 0.3398(5) 0.6767(3)
C32_5 C 0.8473(4) 0.2837(7) 0.6416(4)
H21_5 H 0.8224 0.2548 0.6373
C33_5 C 0.8711(3) 0.2668(6) 0.6122(3)
H22_5 H 0.8630 0.2257 0.5885
C34_5 C 0.9071(3) 0.3101(6) 0.6173(3)
C35_5 C 0.9167(4) 0.3697(7) 0.6524(4)
H23_5 H 0.9406 0.4030 0.6562
C36_5 C 0.8919(4) 0.3808(8) 0.6817(4)
H24_5 H 0.8998 0.4196 0.7064
Zn3_3 Zn 0.82412(5) 0.35720(8) 0.72369(6)
I5_5 I 0.76098(4) 0.27213(6) 0.69774(5)
I6_5 I 0.86976(5) 0.33218(7) 0.79935(4)
N13_3 N 0.8127(3) 0.4951(5) 0.7184(3)
Zn5_3 Zn 0.82412(5) 0.64280(8) 0.22369(6)
C21_6 C 0.9467(2) 0.8682(5) 0.0022(3)
C22_6 C 0.9163(3) 0.9284(7) 0.0034(3)
H15_6 H 0.8989 0.9201 0.0232
C24_6 C 0.9515(3) 0.7867(5) 0.0307(3)
N8_6 N 0.9789(2) 0.7268(5) 0.0260(2)
C25_6 C 0.9827(2) 0.6568(6) 0.0545(3)
N9_6 N 0.9608(2) 0.6423(4) 0.0840(2)
C26_6 C 0.9327(3) 0.7027(6) 0.0849(3)
N10_6 N 0.9261(2) 0.7772(4) 0.0585(2)
N12_6 N 0.8578(3) 0.6602(5) 0.1767(3)
C32_6 C 0.8473(4) 0.7163(7) 0.1416(4)
H21_6 H 0.8224 0.7452 0.1373
C33_6 C 0.8711(3) 0.7332(6) 0.1122(3)
H22_6 H 0.8630 0.7743 0.0885
C34_6 C 0.9071(3) 0.6899(6) 0.1173(3)
C35_6 C 0.9167(4) 0.6303(7) 0.1524(4)
H23_6 H 0.9406 0.5970 0.1562
C36_6 C 0.8919(4) 0.6192(8) 0.1817(4)
H24_6 H 0.8998 0.5804 0.2064
I5_6 I 0.76098(4) 0.72787(6) 0.19774(5)
I6_6 I 0.86976(5) 0.66782(7) 0.29935(4)
C1_6 C 0.6750(4) 0.9501(7) 0.5991(4)
H1_6 H 0.6617 0.9213 0.5727
C2_6 C 0.7027(4) 0.9016(7) 0.6286(4)
H2_6 H 0.7066 0.8393 0.6244
C3_6 C 0.7251(3) 0.9481(6) 0.6654(3)
C6_6 C 0.7583(3) 0.9023(6) 0.6946(3)
N2_6 N 0.7639(2) 0.8151(4) 0.6880(3)
C7_6 C 0.7933(3) 0.7781(5) 0.7166(3)
N3_6 N 0.8186(2) 0.8249(4) 0.7480(2)
C8_6 C 0.8086(2) 0.9084(5) 0.7511(3)
N4_6 N 0.7786(2) 0.9504(4) 0.7265(2)
C9_6 C 0.8376(4) 0.5522(7) 0.7421(4)
H5_6 H 0.8605 0.5277 0.7605
C10_6 C 0.8333(4) 0.6434(6) 0.7425(5)
H6_6 H 0.8519 0.6807 0.7612
C11_6 C 0.8009(3) 0.6784(5) 0.7146(3)
C12_6 C 0.7760(3) 0.6223(6) 0.6891(4)
H7_6 H 0.7533 0.6464 0.6700
C13_6 C 0.7818(4) 0.5317(7) 0.6895(5)
H8_6 H 0.7643 0.4943 0.6697
C16_6 C 0.8339(2) 0.9615(5) 0.7880(3)
C17_6 C 0.8646(4) 0.9212(7) 0.8165(4)
H11_6 H 0.8693 0.8587 0.8138
C18_6 C 0.8884(4) 0.9694(7) 0.8483(4)
H12_6 H 0.9108 0.9399 0.8653
C19_6 C 0.9659(3) 0.9631(6) 0.9510(3)
H13_6 H 0.9849 0.9767 0.9337
C20_6 C 0.9721(3) 0.8876(6) 0.9758(3)
H14_6 H 0.9937 0.8492 0.9746
Zn1_2 Zn 0.62604(4) 0.89436(10) 0.05832(5)
I2_4 I 0.61112(4) 0.75416(7) 0.09451(5)
N1_4 N 0.6659(3) 0.9632(5) 0.1059(3)
C4_4 C 0.7169(3) 0.9637(6) 0.1710(4)
H3_4 H 0.7313 0.9315 0.1957
C5_4 C 0.6880(3) 0.9212(7) 0.1411(4)
H4_4 H 0.6833 0.8593 0.1454
N6_4 N 0.8829(2) 0.9462(5) 0.3573(2)
C14_4 C 0.8516(3) 0.9067(6) 0.3310(3)
H9_4 H 0.8465 0.8452 0.3360
C15_4 C 0.8268(3) 0.9505(5) 0.2974(3)
H10_4 H 0.8046 0.9200 0.2806
Zn2_4 Zn 0.92301(4) 0.87674(7) 0.40331(4)
I3_4 I 0.98103(3) 0.85289(6) 0.36617(3)
I4_4 I 0.88681(4) 0.75975(5) 0.43928(3)
N7_4 N 0.9366(3) 0.9807(5) 0.4483(3)
C23_4 C 0.9124(3) 0.9989(7) 0.4747(4)
H16_4 H 0.8907 0.9595 0.4742
N14_2 N 0.5777(3) 0.9770(7) 0.0518(3)
C27_4 C 0.5568(4) 0.9747(11) 0.0840(7)
H17_4 H 0.5627 0.9300 0.1063
I1_3 I 0.65228(3) 0.90860(11) 0.98805(4)
N11_3 N 0.4223(3) 0.0230(7) 0.9482(3)
C27_5 C 0.4432(4) 0.0253(11) 0.9160(7)
H17_5 H 0.4373 0.0700 0.8937
Zn4_3 Zn 0.37396(4) 0.10564(10) 0.94168(5)
I2_5 I 0.38888(4) 0.24584(7) 0.90549(5)
N1_5 N 0.3341(3) 0.0368(5) 0.8941(3)
C4_5 C 0.2831(3) 0.0363(6) 0.8290(4)
H3_5 H 0.2687 0.0685 0.8043
C5_5 C 0.3120(3) 0.0788(7) 0.8589(4)
H4_5 H 0.3167 0.1407 0.8546
N6_5 N 0.1171(2) 0.0538(5) 0.6427(2)
C14_5 C 0.1484(3) 0.0933(6) 0.6690(3)
H9_5 H 0.1535 0.1548 0.6640
C15_5 C 0.1732(3) 0.0495(5) 0.7026(3)
H10_5 H 0.1954 0.0800 0.7194
Zn2_5 Zn 0.07699(4) 0.12326(7) 0.59669(4)
I3_5 I 0.01897(3) 0.14711(6) 0.63383(3)
I4_5 I 0.11319(4) 0.24025(5) 0.56072(3)
N7_5 N 0.0634(3) 0.0193(5) 0.5517(3)
C23_5 C 0.0876(3) 0.0011(7) 0.5253(4)
H16_5 H 0.1093 0.0405 0.5258
Zn1_3 Zn 0.87396(4) 0.39436(10) 0.44168(5)
I1_4 I 0.84772(3) 0.40860(11) 0.51195(4)
I2_6 I 0.88888(4) 0.25416(7) 0.40549(5)
N1_6 N 0.8341(3) 0.4632(5) 0.3941(3)
C1_7 C 0.8250(4) 0.5499(7) 0.4009(4)
H1_7 H 0.8383 0.5787 0.4273
C2_7 C 0.7973(4) 0.5984(7) 0.3714(4)
H2_7 H 0.7934 0.6607 0.3756
C3_7 C 0.7749(3) 0.5519(6) 0.3346(3)
C4_6 C 0.7831(3) 0.4637(6) 0.3290(4)
H3_6 H 0.7687 0.4315 0.3043
C5_6 C 0.8120(3) 0.4212(7) 0.3589(4)
H4_6 H 0.8167 0.3593 0.3546
C6_7 C 0.7417(3) 0.5977(6) 0.3054(3)
N2_7 N 0.7361(2) 0.6849(4) 0.3120(3)
C7_7 C 0.7067(3) 0.7219(5) 0.2834(3)
N3_7 N 0.6814(2) 0.6751(4) 0.2520(2)
C8_7 C 0.6914(2) 0.5916(5) 0.2489(3)
N4_7 N 0.7214(2) 0.5496(4) 0.2735(2)
C9_7 C 0.6624(4) 0.9478(7) 0.2579(4)
H5_7 H 0.6395 0.9723 0.2395
C10_7 C 0.6667(4) 0.8566(6) 0.2575(5)
H6_7 H 0.6481 0.8193 0.2388
C11_7 C 0.6991(3) 0.8216(5) 0.2854(3)
C12_7 C 0.7240(3) 0.8777(6) 0.3109(4)
H7_7 H 0.7467 0.8536 0.3300
C13_7 C 0.7182(4) 0.9683(7) 0.3105(5)
N6_6 N 0.6171(2) 0.4462(5) 0.1427(2)
C14_6 C 0.6484(3) 0.4067(6) 0.1690(3)
H9_6 H 0.6535 0.3452 0.1640
C15_6 C 0.6732(3) 0.4505(5) 0.2026(3)
H10_6 H 0.6954 0.4200 0.2194
C16_7 C 0.6661(2) 0.5385(5) 0.2120(3)
C17_7 C 0.6354(4) 0.5788(7) 0.1835(4)
H11_7 H 0.6307 0.6413 0.1862
C18_7 C 0.6116(4) 0.5306(7) 0.1517(4)
H12_7 H 0.5892 0.5601 0.1347
Zn2_6 Zn 0.57699(4) 0.37674(7) 0.09669(4)
I3_6 I 0.51897(3) 0.35289(6) 0.13383(3)
I4_6 I 0.61319(4) 0.25975(5) 0.06072(3)
N7_6 N 0.5634(3) 0.4807(5) 0.0517(3)
C19_7 C 0.5341(3) 0.5369(6) 0.0490(3)
H13_7 H 0.5151 0.5233 0.0663
C20_7 C 0.5279(3) 0.6124(6) 0.0242(3)
H14_7 H 0.5063 0.6508 0.0254
C23_6 C 0.5876(3) 0.4989(7) 0.0253(4)
H16_6 H 0.6093 0.4595 0.0258
H19_5 H 0.4718 0.8673 0.0055
H20_5 H 0.4228 0.9654 0.0049
N14_3 N 0.9223(3) 0.4770(7) 0.4482(3)
C27_6 C 0.9432(4) 0.4747(11) 0.4160(7)
H17_6 H 0.9373 0.4300 0.3937
C28_5 C 0.9727(4) 0.5348(12) 0.4147(4)
H18_5 H 0.9847 0.5361 0.3896
C29_5 C 0.9849(3) 0.5926(6) 0.4485(4)
C30_5 C 0.9649(3) 0.5919(6) 0.4814(3)
H19_6 H 0.9718 0.6327 0.5055
C31_5 C 0.9355(3) 0.5345(7) 0.4803(3)
H20_6 H 0.9228 0.5346 0.5049
N5_4 N 0.3127(3) 0.0049(5) 0.2184(3)
H8_7 H 0.2643 0.0057 0.1697
N11_4 N 0.5777(3) 0.0230(7) 0.5518(3)
C27_7 C 0.5568(4) 0.0253(11) 0.5840(7)
H17_7 H 0.5627 0.0700 0.6063
Zn4_4 Zn 0.62604(4) 0.10564(10) 0.55832(5)
Zn5_4 Zn 0.32412(5) 0.14280(8) 0.22369(6)
I1_5 I 0.65228(3) 0.09140(11) 0.48805(4)
I2_7 I 0.61112(4) 0.24584(7) 0.59451(5)
N1_7 N 0.6659(3) 0.0368(5) 0.6059(3)
C4_7 C 0.7169(3) 0.0363(6) 0.6710(4)
H3_7 H 0.7313 0.0685 0.6957
C5_7 C 0.6880(3) 0.0788(7) 0.6411(4)
H4_7 H 0.6833 0.1407 0.6454
N6_7 N 0.8829(2) 0.0538(5) 0.8573(2)
C14_7 C 0.8516(3) 0.0933(6) 0.8310(3)
H9_7 H 0.8465 0.1548 0.8360
C15_7 C 0.8268(3) 0.0495(5) 0.7974(3)
H10_7 H 0.8046 0.0800 0.7806
Zn2_7 Zn 0.92301(4) 0.12326(7) 0.90331(4)
I3_7 I 0.98103(3) 0.14711(6) 0.86617(3)
I4_7 I 0.88681(4) 0.24025(5) 0.93928(3)
N7_7 N 0.9366(3) 0.0193(5) 0.9483(3)
C23_7 C 0.9124(3) 0.0011(7) 0.9747(4)
H16_7 H 0.8907 0.0405 0.9742
C21_7 C 0.4467(2) 0.3682(5) 0.0022(3)
C22_7 C 0.4163(3) 0.4284(7) 0.0034(3)
H15_7 H 0.3989 0.4201 0.0232
C24_7 C 0.4515(3) 0.2867(5) 0.0307(3)
N8_7 N 0.4789(2) 0.2268(5) 0.0260(2)
C25_7 C 0.4827(2) 0.1568(6) 0.0545(3)
N9_7 N 0.4608(2) 0.1423(4) 0.0840(2)
C26_7 C 0.4327(3) 0.2027(6) 0.0849(3)
N10_7 N 0.4261(2) 0.2772(4) 0.0585(2)
C28_6 C 0.5273(4) 0.0348(12) 0.0853(4)
H18_6 H 0.5153 0.0361 0.1104
C29_6 C 0.5151(3) 0.0926(6) 0.0515(4)
C30_6 C 0.5351(3) 0.0919(6) 0.0186(3)
C31_6 C 0.5645(3) 0.0345(7) 0.0197(3)
N12_7 N 0.3578(3) 0.1602(5) 0.1767(3)
C32_7 C 0.3473(4) 0.2163(7) 0.1416(4)
H21_7 H 0.3224 0.2452 0.1373
C33_7 C 0.3711(3) 0.2332(6) 0.1122(3)
H22_7 H 0.3630 0.2743 0.0885
C34_7 C 0.4071(3) 0.1899(6) 0.1173(3)
C35_7 C 0.4167(4) 0.1303(7) 0.1524(4)
H23_7 H 0.4406 0.0970 0.1562
C36_7 C 0.3919(4) 0.1192(8) 0.1817(4)
H24_7 H 0.3998 0.0804 0.2064
I5_7 I 0.26098(4) 0.22787(6) 0.19774(5)
I6_7 I 0.36976(5) 0.16782(7) 0.29935(4)
Zn1_4 Zn 0.12604(4) 0.39436(10) 0.05832(5)
I2_8 I 0.11112(4) 0.25416(7) 0.09451(5)
N1_8 N 0.1659(3) 0.4632(5) 0.1059(3)
C1_8 C 0.1750(4) 0.5499(7) 0.0991(4)
H1_8 H 0.1617 0.5787 0.0727
C2_8 C 0.2027(4) 0.5984(7) 0.1286(4)
H2_8 H 0.2066 0.6607 0.1244
C3_8 C 0.2251(3) 0.5519(6) 0.1654(3)
C4_8 C 0.2169(3) 0.4637(6) 0.1710(4)
H3_8 H 0.2313 0.4315 0.1957
C5_8 C 0.1880(3) 0.4212(7) 0.1411(4)
H4_8 H 0.1833 0.3593 0.1454
C6_8 C 0.2583(3) 0.5977(6) 0.1946(3)
N2_8 N 0.2639(2) 0.6849(4) 0.1880(3)
C7_8 C 0.2933(3) 0.7219(5) 0.2166(3)
N3_8 N 0.3186(2) 0.6751(4) 0.2480(2)
C8_8 C 0.3086(2) 0.5916(5) 0.2511(3)
N4_8 N 0.2786(2) 0.5496(4) 0.2265(2)
C9_8 C 0.3376(4) 0.9478(7) 0.2421(4)
H5_8 H 0.3605 0.9723 0.2605
C10_8 C 0.3333(4) 0.8566(6) 0.2425(5)
H6_8 H 0.3519 0.8193 0.2612
C11_8 C 0.3009(3) 0.8216(5) 0.2146(3)
C12_8 C 0.2760(3) 0.8777(6) 0.1891(4)
H7_8 H 0.2533 0.8536 0.1700
C13_8 C 0.2818(4) 0.9683(7) 0.1895(5)
N6_8 N 0.3829(2) 0.4462(5) 0.3573(2)
C14_8 C 0.3516(3) 0.4067(6) 0.3310(3)
H9_8 H 0.3465 0.3452 0.3360
C15_8 C 0.3268(3) 0.4505(5) 0.2974(3)
H10_8 H 0.3046 0.4200 0.2806
C16_8 C 0.3339(2) 0.5385(5) 0.2880(3)
C17_8 C 0.3646(4) 0.5788(7) 0.3165(4)
H11_8 H 0.3693 0.6413 0.3138
C18_8 C 0.3884(4) 0.5306(7) 0.3483(4)
H12_8 H 0.4108 0.5601 0.3653
Zn2_8 Zn 0.42301(4) 0.37674(7) 0.40331(4)
I3_8 I 0.48103(3) 0.35289(6) 0.36617(3)
I4_8 I 0.38681(4) 0.25975(5) 0.43928(3)
N7_8 N 0.4366(3) 0.4807(5) 0.4483(3)
C19_8 C 0.4659(3) 0.5369(6) 0.4510(3)
H13_8 H 0.4849 0.5233 0.4337
C20_8 C 0.4721(3) 0.6124(6) 0.4758(3)
H14_8 H 0.4937 0.6508 0.4746
C21_8 C 0.4467(2) 0.6318(5) 0.5022(3)
C22_8 C 0.4163(3) 0.5716(7) 0.5034(3)
H15_8 H 0.3989 0.5799 0.5232
C23_8 C 0.4124(3) 0.4989(7) 0.4747(4)
H16_8 H 0.3907 0.4595 0.4742
C24_8 C 0.4515(3) 0.7133(5) 0.5307(3)
N8_8 N 0.4789(2) 0.7732(5) 0.5260(2)
C25_8 C 0.4827(2) 0.8432(6) 0.5545(3)
N9_8 N 0.4608(2) 0.8577(4) 0.5840(2)
C26_8 C 0.4327(3) 0.7973(6) 0.5849(3)
N10_8 N 0.4261(2) 0.7228(4) 0.5585(2)
C28_7 C 0.5273(4) 0.9652(12) 0.5853(4)
H18_7 H 0.5153 0.9639 0.6104
C29_7 C 0.5151(3) 0.9074(6) 0.5515(4)
C30_7 C 0.5351(3) 0.9081(6) 0.5186(3)
H19_7 H 0.5282 0.8673 0.4945
C31_7 C 0.5645(3) 0.9655(7) 0.5197(3)
H20_7 H 0.5772 0.9654 0.4951
N12_8 N 0.3578(3) 0.8398(5) 0.6767(3)
C32_8 C 0.3473(4) 0.7837(7) 0.6416(4)
H21_8 H 0.3224 0.7548 0.6373
C33_8 C 0.3711(3) 0.7668(6) 0.6122(3)
H22_8 H 0.3630 0.7257 0.5885
C34_8 C 0.4071(3) 0.8101(6) 0.6173(3)
C35_8 C 0.4167(4) 0.8697(7) 0.6524(4)
H23_8 H 0.4406 0.9030 0.6562
C36_8 C 0.3919(4) 0.8808(8) 0.6817(4)
H24_8 H 0.3998 0.9196 0.7064
Zn3_4 Zn 0.32412(5) 0.85720(8) 0.72369(6)
I5_8 I 0.26098(4) 0.77213(6) 0.69774(5)
I6_8 I 0.36976(5) 0.83218(7) 0.79935(4)
N13_4 N 0.3127(3) 0.9951(5) 0.7184(3)
N14_4 N 0.0777(3) 0.4770(7) 0.0518(3)
C27_8 C 0.0568(4) 0.4747(11) 0.0840(7)
H17_8 H 0.0627 0.4300 0.1063
C28_8 C 0.0273(4) 0.5348(12) 0.0853(4)
H18_8 H 0.0153 0.5361 0.1104
C29_8 C 0.0151(3) 0.5926(6) 0.0515(4)
C30_8 C 0.0351(3) 0.5919(6) 0.0186(3)
C31_8 C 0.0645(3) 0.5345(7) 0.0197(3)
H8_8 H 0.2643 0.9943 0.6697
I1_6 I 0.15228(3) 0.40860(11) 0.98805(4)
H19_8 H 0.0282 0.6327 0.9945
H20_8 H 0.0772 0.5346 0.9951
I1_7 I 0.34772(3) 0.09140(11) 0.01195(4)
I1_8 I 0.84772(3) 0.59140(11) 0.01195(4)
loop_
_geom_bond_atom_site_label_1
_geom_bond_atom_site_label_2
_geom_bond_site_symmetry_1
_geom_bond_site_symmetry_2
H1 C1 1_555 1_555
C2 C1 1_555 1_555
H2 C2 1_555 1_555
C3 C2 1_555 1_555
C6 C3 1_555 1_555
N2 C6 1_555 1_555
C7 N2 1_555 1_555
N3 C7 1_555 1_555
C8 N3 1_555 1_555
N4 C6 1_555 1_555
N5 C9 1_555 1_555
C9 H5 1_555 1_555
C10 C9 1_555 1_555
H6 C10 1_555 1_555
C11 C7 1_555 1_555
C12 C11 1_555 1_555
H7 C12 1_555 1_555
C13 N5 1_555 1_555
H8 C13 1_555 1_555
C16 C8 1_555 1_555
C17 C16 1_555 1_555
H11 C17 1_555 1_555
H12 C18 1_555 1_555
H13 C19 1_555 1_555
C20 C19 1_555 1_555
H14 C20 1_555 1_555
Zn5 N5 1_555 1_555
C8 N4 1_555 1_555
C10 C11 1_555 1_555
C12 C13 1_555 1_555
C17 C18 1_555 1_555
C22 C21 1_555 1_555
H15 C22 1_555 1_555
C24 C21 1_555 1_555
N8 C24 1_555 1_555
C25 N8 1_555 1_555
N9 C25 1_555 1_555
C26 N9 1_555 1_555
N10 C24 1_555 1_555
N12 C32 1_555 1_555
C32 H21 1_555 1_555
C33 C32 1_555 1_555
H22 C33 1_555 1_555
C34 C26 1_555 1_555
C35 C34 1_555 1_555
H23 C35 1_555 1_555
C36 N12 1_555 1_555
H24 C36 1_555 1_555
Zn3 N12 1_555 1_555
I5 Zn3 1_555 1_555
I6 Zn3 1_555 1_555
N13 Zn3 1_555 1_555
C26 N10 1_555 1_555
C33 C34 1_555 1_555
C35 C36 1_555 1_555
H1_2 C1_2 1_555 1_555
C2_2 C1_2 1_555 1_555
H2_2 C2_2 1_555 1_555
C3_2 C2_2 1_555 1_555
C6_2 C3_2 1_555 1_555
N2_2 C6_2 1_555 1_555
C7_2 N2_2 1_555 1_555
N3_2 C7_2 1_555 1_555
C8_2 N3_2 1_555 1_555
N4_2 C6_2 1_555 1_555
N13 C9_2 1_555 1_555
C9_2 H5_2 1_555 1_555
C10_2 C9_2 1_555 1_555
H6_2 C10_2 1_555 1_555
C11_2 C7_2 1_555 1_555
C12_2 C11_2 1_555 1_555
H7_2 C12_2 1_555 1_555
C13_2 N13 1_555 1_555
H8_2 C13_2 1_555 1_555
C16_2 C8_2 1_555 1_555
C17_2 C16_2 1_555 1_555
H11_2 C17_2 1_555 1_555
H12_2 C18_2 1_555 1_555
H13_2 C19_2 1_555 1_555
C20_2 C19_2 1_555 1_555
H14_2 C20_2 1_555 1_555
C21_2 C20_2 1_555 1_555
C22_2 C21_2 1_555 1_555
H15_2 C22_2 1_555 1_555
C24_2 C21_2 1_555 1_555
N8_2 C24_2 1_555 1_555
C25_2 N8_2 1_555 1_555
N9_2 C25_2 1_555 1_555
C26_2 N9_2 1_555 1_555
N10_2 C24_2 1_555 1_555
N12_2 C32_2 1_555 1_555
C32_2 H21_2 1_555 1_555
C33_2 C32_2 1_555 1_555
H22_2 C33_2 1_555 1_555
C34_2 C26_2 1_555 1_555
C35_2 C34_2 1_555 1_555
H23_2 C35_2 1_555 1_555
C36_2 N12_2 1_555 1_555
H24_2 C36_2 1_555 1_555
Zn5 N12_2 1_555 1_555
I5_2 Zn5 1_555 1_555
I6_2 Zn5 1_555 1_555
C8_2 N4_2 1_555 1_555
C10_2 C11_2 1_555 1_555
C12_2 C13_2 1_555 1_555
C17_2 C18_2 1_555 1_555
C26_2 N10_2 1_555 1_555
C33_2 C34_2 1_555 1_555
C35_2 C36_2 1_555 1_555
Zn1 I1 1_555 1_555
I2 Zn1 1_555 1_555
N1 Zn1 1_555 1_555
H3 C4 1_555 1_555
C5 N1 1_555 1_555
H4 C5 1_555 1_555
N6 C14 1_555 1_555
C14 H9 1_555 1_555
C15 C14 1_555 1_555
H10 C15 1_555 1_555
Zn2 N6 1_555 1_555
I3 Zn2 1_555 1_555
I4 Zn2 1_555 1_555
N7 Zn2 1_555 1_555
C23 N7 1_555 1_555
H16 C23 1_555 1_555
N14 Zn1 1_555 1_555
C4 C5 1_555 1_555
C22_3 C21_3 1_555 1_555
H15_3 C22_3 1_555 1_555
C24_3 C21_3 1_555 1_555
N8_3 C24_3 1_555 1_555
C25_3 N8_3 1_555 1_555
N9_3 C25_3 1_555 1_555
C26_3 N9_3 1_555 1_555
N10_3 C24_3 1_555 1_555
H18 C28 1_555 1_555
C29 C25_3 1_555 1_555
C30 C29 1_555 1_555
N12_3 C32_3 1_555 1_555
C32_3 H21_3 1_555 1_555
C33_3 C32_3 1_555 1_555
H22_3 C33_3 1_555 1_555
C34_3 C26_3 1_555 1_555
C35_3 C34_3 1_555 1_555
H23_3 C35_3 1_555 1_555
C36_3 N12_3 1_555 1_555
H24_3 C36_3 1_555 1_555
Zn3_2 N12_3 1_555 1_555
I5_3 Zn3_2 1_555 1_555
I6_3 Zn3_2 1_555 1_555
N13_2 Zn3_2 1_555 1_555
C26_3 N10_3 1_555 1_555
C28 C29 1_555 1_555
C30 C31 1_555 1_555
C33_3 C34_3 1_555 1_555
C35_3 C36_3 1_555 1_555
N14 C27 1_555 1_555
C27 H17 1_555 1_555
N11 C27_2 1_555 1_555
C27_2 H17_2 1_555 1_555
C28_2 C27_2 1_555 1_555
H18_2 C28_2 1_555 1_555
C30_2 C29_2 1_555 1_555
C31_2 N11 1_555 1_555
Zn4 N11 1_555 1_555
C28_2 C29_2 1_555 1_555
C30_2 C31_2 1_555 1_555
Zn5_2 N5_2 1_555 1_555
I2_2 Zn4 1_555 1_555
N1_2 Zn4 1_555 1_555
C1_3 N1_2 1_555 1_555
H1_3 C1_3 1_555 1_555
C2_3 C1_3 1_555 1_555
H2_3 C2_3 1_555 1_555
C3_3 C2_3 1_555 1_555
C4_2 C3_3 1_555 1_555
H3_2 C4_2 1_555 1_555
C5_2 N1_2 1_555 1_555
H4_2 C5_2 1_555 1_555
C6_3 C3_3 1_555 1_555
N2_3 C6_3 1_555 1_555
C7_3 N2_3 1_555 1_555
N3_3 C7_3 1_555 1_555
C8_3 N3_3 1_555 1_555
N4_3 C6_3 1_555 1_555
C9_3 H5_3 1_555 1_555
C10_3 C9_3 1_555 1_555
H6_3 C10_3 1_555 1_555
C11_3 C7_3 1_555 1_555
C12_3 C11_3 1_555 1_555
H7_3 C12_3 1_555 1_555
N6_2 C14_2 1_555 1_555
C14_2 H9_2 1_555 1_555
C15_2 C14_2 1_555 1_555
H10_2 C15_2 1_555 1_555
C16_3 C8_3 1_555 1_555
C17_3 C16_3 1_555 1_555
H11_3 C17_3 1_555 1_555
C18_3 N6_2 1_555 1_555
H12_3 C18_3 1_555 1_555
Zn2_2 N6_2 1_555 1_555
I3_2 Zn2_2 1_555 1_555
I4_2 Zn2_2 1_555 1_555
N7_2 Zn2_2 1_555 1_555
C19_3 N7_2 1_555 1_555
H13_3 C19_3 1_555 1_555
C20_3 C19_3 1_555 1_555
H14_3 C20_3 1_555 1_555
C21_4 C20_3 1_555 1_555
C22_4 C21_4 1_555 1_555
H15_4 C22_4 1_555 1_555
C23_2 N7_2 1_555 1_555
H16_2 C23_2 1_555 1_555
C24_4 C21_4 1_555 1_555
N8_4 C24_4 1_555 1_555
C25_4 N8_4 1_555 1_555
N9_4 C25_4 1_555 1_555
C26_4 N9_4 1_555 1_555
N10_4 C24_4 1_555 1_555
H18_3 C28_3 1_555 1_555
C29_3 C25_4 1_555 1_555
C30_3 C29_3 1_555 1_555
H19_2 C30_3 1_555 1_555
H20_2 C31_3 1_555 1_555
N12_4 C32_4 1_555 1_555
C32_4 H21_4 1_555 1_555
C33_4 C32_4 1_555 1_555
H22_4 C33_4 1_555 1_555
C34_4 C26_4 1_555 1_555
C35_4 C34_4 1_555 1_555
H23_4 C35_4 1_555 1_555
C36_4 N12_4 1_555 1_555
H24_4 C36_4 1_555 1_555
Zn5_2 N12_4 1_555 1_555
I5_4 Zn5_2 1_555 1_555
I6_4 Zn5_2 1_555 1_555
C4_2 C5_2 1_555 1_555
C8_3 N4_3 1_555 1_555
C10_3 C11_3 1_555 1_555
C12_3 C13_3 1_555 1_555
C15_2 C16_3 1_555 1_555
C17_3 C18_3 1_555 1_555
C22_4 C23_2 1_555 1_555
C26_4 N10_4 1_555 1_555
C28_3 C29_3 1_555 1_555
C30_3 C31_3 1_555 1_555
C33_4 C34_4 1_555 1_555
C35_4 C36_4 1_555 1_555
N11_2 C27_3 1_555 1_555
C27_3 H17_3 1_555 1_555
C28_4 C27_3 1_555 1_555
H18_4 C28_4 1_555 1_555
C30_4 C29_4 1_555 1_555
H19_3 C30_4 1_555 1_555
C31_4 N11_2 1_555 1_555
H20_3 C31_4 1_555 1_555
Zn4_2 N11_2 1_555 1_555
C28_4 C29_4 1_555 1_555
C30_4 C31_4 1_555 1_555
Zn4_2 I1_2 1_555 1_555
I2_3 Zn4_2 1_555 1_555
N1_3 Zn4_2 1_555 1_555
C1_4 N1_3 1_555 1_555
H1_4 C1_4 1_555 1_555
C2_4 C1_4 1_555 1_555
H2_4 C2_4 1_555 1_555
C3_4 C2_4 1_555 1_555
C4_3 C3_4 1_555 1_555
H3_3 C4_3 1_555 1_555
C5_3 N1_3 1_555 1_555
H4_3 C5_3 1_555 1_555
C6_4 C3_4 1_555 1_555
N2_4 C6_4 1_555 1_555
C7_4 N2_4 1_555 1_555
N3_4 C7_4 1_555 1_555
C8_4 N3_4 1_555 1_555
N4_4 C6_4 1_555 1_555
C9_4 H5_4 1_555 1_555
C10_4 C9_4 1_555 1_555
H6_4 C10_4 1_555 1_555
C11_4 C7_4 1_555 1_555
C12_4 C11_4 1_555 1_555
H7_4 C12_4 1_555 1_555
N6_3 C14_3 1_555 1_555
C14_3 H9_3 1_555 1_555
C15_3 C14_3 1_555 1_555
H10_3 C15_3 1_555 1_555
C16_4 C8_4 1_555 1_555
C17_4 C16_4 1_555 1_555
H11_4 C17_4 1_555 1_555
C18_4 N6_3 1_555 1_555
H12_4 C18_4 1_555 1_555
Zn2_3 N6_3 1_555 1_555
I3_3 Zn2_3 1_555 1_555
I4_3 Zn2_3 1_555 1_555
N7_3 Zn2_3 1_555 1_555
C19_4 N7_3 1_555 1_555
H13_4 C19_4 1_555 1_555
C20_4 C19_4 1_555 1_555
H14_4 C20_4 1_555 1_555
C23_3 N7_3 1_555 1_555
H16_3 C23_3 1_555 1_555
C4_3 C5_3 1_555 1_555
C8_4 N4_4 1_555 1_555
C10_4 C11_4 1_555 1_555
C12_4 C13_4 1_555 1_555
C15_3 C16_4 1_555 1_555
C17_4 C18_4 1_555 1_555
H1_5 C1_5 1_555 1_555
C2_5 C1_5 1_555 1_555
H2_5 C2_5 1_555 1_555
C3_5 C2_5 1_555 1_555
C6_5 C3_5 1_555 1_555
N2_5 C6_5 1_555 1_555
C7_5 N2_5 1_555 1_555
N3_5 C7_5 1_555 1_555
C8_5 N3_5 1_555 1_555
N4_5 C6_5 1_555 1_555
N5_3 C9_5 1_555 1_555
C9_5 H5_5 1_555 1_555
C10_5 C9_5 1_555 1_555
H6_5 C10_5 1_555 1_555
C11_5 C7_5 1_555 1_555
C12_5 C11_5 1_555 1_555
H7_5 C12_5 1_555 1_555
C13_5 N5_3 1_555 1_555
H8_5 C13_5 1_555 1_555
C16_5 C8_5 1_555 1_555
C17_5 C16_5 1_555 1_555
H11_5 C17_5 1_555 1_555
H12_5 C18_5 1_555 1_555
H13_5 C19_5 1_555 1_555
C20_5 C19_5 1_555 1_555
H14_5 C20_5 1_555 1_555
C21_5 C20_5 1_555 1_555
C22_5 C21_5 1_555 1_555
H15_5 C22_5 1_555 1_555
C24_5 C21_5 1_555 1_555
N8_5 C24_5 1_555 1_555
C25_5 N8_5 1_555 1_555
N9_5 C25_5 1_555 1_555
C26_5 N9_5 1_555 1_555
N10_5 C24_5 1_555 1_555
N12_5 C32_5 1_555 1_555
C32_5 H21_5 1_555 1_555
C33_5 C32_5 1_555 1_555
H22_5 C33_5 1_555 1_555
C34_5 C26_5 1_555 1_555
C35_5 C34_5 1_555 1_555
H23_5 C35_5 1_555 1_555
C36_5 N12_5 1_555 1_555
H24_5 C36_5 1_555 1_555
Zn3_3 N12_5 1_555 1_555
I5_5 Zn3_3 1_555 1_555
I6_5 Zn3_3 1_555 1_555
N13_3 Zn3_3 1_555 1_555
Zn5_3 N5_3 1_555 1_555
C8_5 N4_5 1_555 1_555
C10_5 C11_5 1_555 1_555
C12_5 C13_5 1_555 1_555
C17_5 C18_5 1_555 1_555
C26_5 N10_5 1_555 1_555
C33_5 C34_5 1_555 1_555
C35_5 C36_5 1_555 1_555
C22_6 C21_6 1_555 1_555
H15_6 C22_6 1_555 1_555
C24_6 C21_6 1_555 1_555
N8_6 C24_6 1_555 1_555
C25_6 N8_6 1_555 1_555
N9_6 C25_6 1_555 1_555
C26_6 N9_6 1_555 1_555
N10_6 C24_6 1_555 1_555
N12_6 C32_6 1_555 1_555
C32_6 H21_6 1_555 1_555
C33_6 C32_6 1_555 1_555
H22_6 C33_6 1_555 1_555
C34_6 C26_6 1_555 1_555
C35_6 C34_6 1_555 1_555
H23_6 C35_6 1_555 1_555
C36_6 N12_6 1_555 1_555
H24_6 C36_6 1_555 1_555
Zn5_3 N12_6 1_555 1_555
I5_6 Zn5_3 1_555 1_555
I6_6 Zn5_3 1_555 1_555
C26_6 N10_6 1_555 1_555
C33_6 C34_6 1_555 1_555
C35_6 C36_6 1_555 1_555
H1_6 C1_6 1_555 1_555
C2_6 C1_6 1_555 1_555
H2_6 C2_6 1_555 1_555
C3_6 C2_6 1_555 1_555
C6_6 C3_6 1_555 1_555
N2_6 C6_6 1_555 1_555
C7_6 N2_6 1_555 1_555
N3_6 C7_6 1_555 1_555
C8_6 N3_6 1_555 1_555
N4_6 C6_6 1_555 1_555
N13_3 C9_6 1_555 1_555
C9_6 H5_6 1_555 1_555
C10_6 C9_6 1_555 1_555
H6_6 C10_6 1_555 1_555
C11_6 C7_6 1_555 1_555
C12_6 C11_6 1_555 1_555
H7_6 C12_6 1_555 1_555
C13_6 N13_3 1_555 1_555
H8_6 C13_6 1_555 1_555
C16_6 C8_6 1_555 1_555
C17_6 C16_6 1_555 1_555
H11_6 C17_6 1_555 1_555
H12_6 C18_6 1_555 1_555
H13_6 C19_6 1_555 1_555
C20_6 C19_6 1_555 1_555
H14_6 C20_6 1_555 1_555
C8_6 N4_6 1_555 1_555
C10_6 C11_6 1_555 1_555
C12_6 C13_6 1_555 1_555
C17_6 C18_6 1_555 1_555
I2_4 Zn1_2 1_555 1_555
N1_4 Zn1_2 1_555 1_555
H3_4 C4_4 1_555 1_555
C5_4 N1_4 1_555 1_555
H4_4 C5_4 1_555 1_555
N6_4 C14_4 1_555 1_555
C14_4 H9_4 1_555 1_555
C15_4 C14_4 1_555 1_555
H10_4 C15_4 1_555 1_555
Zn2_4 N6_4 1_555 1_555
I3_4 Zn2_4 1_555 1_555
I4_4 Zn2_4 1_555 1_555
N7_4 Zn2_4 1_555 1_555
C23_4 N7_4 1_555 1_555
H16_4 C23_4 1_555 1_555
N14_2 Zn1_2 1_555 1_555
C4_4 C5_4 1_555 1_555
N14_2 C27_4 1_555 1_555
C27_4 H17_4 1_555 1_555
N11_3 C27_5 1_555 1_555
C27_5 H17_5 1_555 1_555
Zn4_3 N11_3 1_555 1_555
I2_5 Zn4_3 1_555 1_555
N1_5 Zn4_3 1_555 1_555
H3_5 C4_5 1_555 1_555
C5_5 N1_5 1_555 1_555
H4_5 C5_5 1_555 1_555
N6_5 C14_5 1_555 1_555
C14_5 H9_5 1_555 1_555
C15_5 C14_5 1_555 1_555
H10_5 C15_5 1_555 1_555
Zn2_5 N6_5 1_555 1_555
I3_5 Zn2_5 1_555 1_555
I4_5 Zn2_5 1_555 1_555
N7_5 Zn2_5 1_555 1_555
C23_5 N7_5 1_555 1_555
H16_5 C23_5 1_555 1_555
C4_5 C5_5 1_555 1_555
Zn1_3 I1_4 1_555 1_555
I2_6 Zn1_3 1_555 1_555
N1_6 Zn1_3 1_555 1_555
C1_7 N1_6 1_555 1_555
H1_7 C1_7 1_555 1_555
C2_7 C1_7 1_555 1_555
H2_7 C2_7 1_555 1_555
C3_7 C2_7 1_555 1_555
C4_6 C3_7 1_555 1_555
H3_6 C4_6 1_555 1_555
C5_6 N1_6 1_555 1_555
H4_6 C5_6 1_555 1_555
C6_7 C3_7 1_555 1_555
N2_7 C6_7 1_555 1_555
C7_7 N2_7 1_555 1_555
N3_7 C7_7 1_555 1_555
C8_7 N3_7 1_555 1_555
N4_7 C6_7 1_555 1_555
C9_7 H5_7 1_555 1_555
C10_7 C9_7 1_555 1_555
H6_7 C10_7 1_555 1_555
C11_7 C7_7 1_555 1_555
C12_7 C11_7 1_555 1_555
H7_7 C12_7 1_555 1_555
N6_6 C14_6 1_555 1_555
C14_6 H9_6 1_555 1_555
C15_6 C14_6 1_555 1_555
H10_6 C15_6 1_555 1_555
C16_7 C8_7 1_555 1_555
C17_7 C16_7 1_555 1_555
H11_7 C17_7 1_555 1_555
C18_7 N6_6 1_555 1_555
H12_7 C18_7 1_555 1_555
Zn2_6 N6_6 1_555 1_555
I3_6 Zn2_6 1_555 1_555
I4_6 Zn2_6 1_555 1_555
N7_6 Zn2_6 1_555 1_555
C19_7 N7_6 1_555 1_555
H13_7 C19_7 1_555 1_555
C20_7 C19_7 1_555 1_555
H14_7 C20_7 1_555 1_555
C23_6 N7_6 1_555 1_555
H16_6 C23_6 1_555 1_555
N14_3 Zn1_3 1_555 1_555
C4_6 C5_6 1_555 1_555
C8_7 N4_7 1_555 1_555
C10_7 C11_7 1_555 1_555
C12_7 C13_7 1_555 1_555
C15_6 C16_7 1_555 1_555
C17_7 C18_7 1_555 1_555
N14_3 C27_6 1_555 1_555
C27_6 H17_6 1_555 1_555
C28_5 C27_6 1_555 1_555
H18_5 C28_5 1_555 1_555
C30_5 C29_5 1_555 1_555
H19_6 C30_5 1_555 1_555
C31_5 N14_3 1_555 1_555
H20_6 C31_5 1_555 1_555
C28_5 C29_5 1_555 1_555
C30_5 C31_5 1_555 1_555
N11_4 C27_7 1_555 1_555
C27_7 H17_7 1_555 1_555
Zn4_4 N11_4 1_555 1_555
Zn5_4 N5_4 1_555 1_555
Zn4_4 I1_5 1_555 1_555
I2_7 Zn4_4 1_555 1_555
N1_7 Zn4_4 1_555 1_555
H3_7 C4_7 1_555 1_555
C5_7 N1_7 1_555 1_555
H4_7 C5_7 1_555 1_555
N6_7 C14_7 1_555 1_555
C14_7 H9_7 1_555 1_555
C15_7 C14_7 1_555 1_555
H10_7 C15_7 1_555 1_555
Zn2_7 N6_7 1_555 1_555
I3_7 Zn2_7 1_555 1_555
I4_7 Zn2_7 1_555 1_555
N7_7 Zn2_7 1_555 1_555
C23_7 N7_7 1_555 1_555
H16_7 C23_7 1_555 1_555
C4_7 C5_7 1_555 1_555
C22_7 C21_7 1_555 1_555
H15_7 C22_7 1_555 1_555
C24_7 C21_7 1_555 1_555
N8_7 C24_7 1_555 1_555
C25_7 N8_7 1_555 1_555
N9_7 C25_7 1_555 1_555
C26_7 N9_7 1_555 1_555
N10_7 C24_7 1_555 1_555
H18_6 C28_6 1_555 1_555
C29_6 C25_7 1_555 1_555
C30_6 C29_6 1_555 1_555
N12_7 C32_7 1_555 1_555
C32_7 H21_7 1_555 1_555
C33_7 C32_7 1_555 1_555
H22_7 C33_7 1_555 1_555
C34_7 C26_7 1_555 1_555
C35_7 C34_7 1_555 1_555
H23_7 C35_7 1_555 1_555
C36_7 N12_7 1_555 1_555
H24_7 C36_7 1_555 1_555
Zn5_4 N12_7 1_555 1_555
I5_7 Zn5_4 1_555 1_555
I6_7 Zn5_4 1_555 1_555
C26_7 N10_7 1_555 1_555
C28_6 C29_6 1_555 1_555
C30_6 C31_6 1_555 1_555
C33_7 C34_7 1_555 1_555
C35_7 C36_7 1_555 1_555
I2_8 Zn1_4 1_555 1_555
N1_8 Zn1_4 1_555 1_555
C1_8 N1_8 1_555 1_555
H1_8 C1_8 1_555 1_555
C2_8 C1_8 1_555 1_555
H2_8 C2_8 1_555 1_555
C3_8 C2_8 1_555 1_555
C4_8 C3_8 1_555 1_555
H3_8 C4_8 1_555 1_555
C5_8 N1_8 1_555 1_555
H4_8 C5_8 1_555 1_555
C6_8 C3_8 1_555 1_555
N2_8 C6_8 1_555 1_555
C7_8 N2_8 1_555 1_555
N3_8 C7_8 1_555 1_555
C8_8 N3_8 1_555 1_555
N4_8 C6_8 1_555 1_555
C9_8 H5_8 1_555 1_555
C10_8 C9_8 1_555 1_555
H6_8 C10_8 1_555 1_555
C11_8 C7_8 1_555 1_555
C12_8 C11_8 1_555 1_555
H7_8 C12_8 1_555 1_555
N6_8 C14_8 1_555 1_555
C14_8 H9_8 1_555 1_555
C15_8 C14_8 1_555 1_555
H10_8 C15_8 1_555 1_555
C16_8 C8_8 1_555 1_555
C17_8 C16_8 1_555 1_555
H11_8 C17_8 1_555 1_555
C18_8 N6_8 1_555 1_555
H12_8 C18_8 1_555 1_555
Zn2_8 N6_8 1_555 1_555
I3_8 Zn2_8 1_555 1_555
I4_8 Zn2_8 1_555 1_555
N7_8 Zn2_8 1_555 1_555
C19_8 N7_8 1_555 1_555
H13_8 C19_8 1_555 1_555
C20_8 C19_8 1_555 1_555
H14_8 C20_8 1_555 1_555
C21_8 C20_8 1_555 1_555
C22_8 C21_8 1_555 1_555
H15_8 C22_8 1_555 1_555
C23_8 N7_8 1_555 1_555
H16_8 C23_8 1_555 1_555
C24_8 C21_8 1_555 1_555
N8_8 C24_8 1_555 1_555
C25_8 N8_8 1_555 1_555
N9_8 C25_8 1_555 1_555
C26_8 N9_8 1_555 1_555
N10_8 C24_8 1_555 1_555
H18_7 C28_7 1_555 1_555
C29_7 C25_8 1_555 1_555
C30_7 C29_7 1_555 1_555
H19_7 C30_7 1_555 1_555
H20_7 C31_7 1_555 1_555
N12_8 C32_8 1_555 1_555
C32_8 H21_8 1_555 1_555
C33_8 C32_8 1_555 1_555
H22_8 C33_8 1_555 1_555
C34_8 C26_8 1_555 1_555
C35_8 C34_8 1_555 1_555
H23_8 C35_8 1_555 1_555
C36_8 N12_8 1_555 1_555
H24_8 C36_8 1_555 1_555
Zn3_4 N12_8 1_555 1_555
I5_8 Zn3_4 1_555 1_555
I6_8 Zn3_4 1_555 1_555
N13_4 Zn3_4 1_555 1_555
N14_4 Zn1_4 1_555 1_555
C4_8 C5_8 1_555 1_555
C8_8 N4_8 1_555 1_555
C10_8 C11_8 1_555 1_555
C12_8 C13_8 1_555 1_555
C15_8 C16_8 1_555 1_555
C17_8 C18_8 1_555 1_555
C22_8 C23_8 1_555 1_555
C26_8 N10_8 1_555 1_555
C28_7 C29_7 1_555 1_555
C30_7 C31_7 1_555 1_555
C33_8 C34_8 1_555 1_555
C35_8 C36_8 1_555 1_555
N14_4 C27_8 1_555 1_555
C27_8 H17_8 1_555 1_555
C28_8 C27_8 1_555 1_555
H18_8 C28_8 1_555 1_555
C30_8 C29_8 1_555 1_555
C31_8 N14_4 1_555 1_555
C28_8 C29_8 1_555 1_555
C30_8 C31_8 1_555 1_555

#END
