
###############################################################################
#
# This file contains modified crystal structure data generated from the
# MOF subset of the Cambridge Structural Database (CSD) v543 
# hosted by the Cambridge Crystallographic Data Centre (CCDC).
#
# This work is licensed under the Creative Commons
# Attribution-NonCommercial-ShareAlike 4.0 International License.
# To view a copy of this license, visit
# http://creativecommons.org/licenses/by-nc-sa/4.0/
# or send a letter to
# Creative Commons, PO Box 1866, Mountain View, CA 94042, USA.
#
# CIF created using the CSD Python API on 29 September 2022
# The structure has been converted into the P1 space group
# The structure has a 3D framework
# The original CSD entry REXFEH is in the monoclinic crystal system
# The framework has been calculated to contain at least 10.0% void space
# The void calculation uses a probe of radius 1.32A, grid spacing 0.4
#
###############################################################################

data_REXFEH
_chemical_formula_moiety         '(C288 H192 I48 N96 Zn24)n'
_symmetry_cell_setting           triclinic
_symmetry_space_group_name_H-M   'P 1'
_symmetry_Int_Tables_number      1
_space_group_name_Hall           'P 1'
loop_
_symmetry_equiv_pos_site_id
_symmetry_equiv_pos_as_xyz
1 x,y,z
_cell_length_a                   35.602(11)
_cell_length_b                   14.879(5)
_cell_length_c                   30.538(10)
_cell_angle_alpha                90
_cell_angle_beta                 103.153(4)
_cell_angle_gamma                90
_cell_volume                     15752.3
loop_
_atom_site_label
_atom_site_type_symbol
_atom_site_fract_x
_atom_site_fract_y
_atom_site_fract_z
Zn1 Zn 0.58502(5) 0.12687(11) 0.58828(6)
I1 I 0.61502(5) 0.24472(8) 0.54887(5)
I2 I 0.53027(4) 0.14633(9) 0.62771(4)
N1 N 0.5709(4) 0.0186(8) 0.5434(4)
H1 H 0.6174 0.0324 0.5192
H21 H 0.2341 0.0049 0.3230
Zn3 Zn 0.17270(5) 0.13454(10) 0.26847(6)
I5 I 0.23324(3) 0.22745(7) 0.29751(4)
I6 I 0.12939(4) 0.15513(7) 0.19041(4)
N13 N 0.1379(3) 0.1560(7) 0.3133(4)
N14 N 0.6264(4) 0.0624(9) 0.6372(4)
Zn1_2 Zn 0.08502(5) 0.62687(11) 0.58828(6)
I1_2 I 0.11502(5) 0.74472(8) 0.54887(5)
I2_2 I 0.03027(4) 0.64633(9) 0.62771(4)
N1_2 N 0.0709(4) 0.5186(8) 0.5434(4)
C1 C 0.0951(5) 0.4963(11) 0.5175(6)
H1_2 H 0.1174 0.5324 0.5192
C2 C 0.0896(4) 0.4251(10) 0.4887(6)
H2 H 0.1062 0.4144 0.4689
C3 C 0.0590(3) 0.3693(8) 0.4897(4)
C4 C 0.0344(4) 0.3903(10) 0.5160(4)
H3 H 0.0128 0.3531 0.5164
C5 C 0.0411(4) 0.4655(9) 0.5420(5)
H4 H 0.0234 0.4804 0.5599
C6 C 0.0518(4) 0.2883(8) 0.4587(4)
N2 N 0.0730(3) 0.2818(6) 0.4284(3)
C7 C 0.0652(4) 0.2088(8) 0.4023(4)
N3 N 0.0379(3) 0.1482(7) 0.4039(4)
C8 C 0.0192(3) 0.1624(8) 0.4365(3)
N4 N 0.0261(3) 0.2294(6) 0.4665(4)
C9 C 0.1126(5) 0.0954(10) 0.3197(6)
H5 H 0.1109 0.0397 0.3041
C10 C 0.0886(5) 0.1111(13) 0.3484(6)
H6 H 0.0708 0.0657 0.3521
C11 C 0.0893(4) 0.1875(11) 0.3712(5)
C12 C 0.1146(6) 0.2542(11) 0.3623(8)
H7 H 0.1147 0.3122 0.3753
C13 C 0.1390(6) 0.2351(14) 0.3349(9)
H8 H 0.1573 0.2791 0.3309
N14_2 N 0.1264(4) 0.5624(9) 0.6372(4)
C2_2 C 0.5896(4) 0.0749(10) 0.9887(6)
H2_2 H 0.6062 0.0856 0.9689
C3_2 C 0.5590(3) 0.1307(8) 0.9897(4)
C6_2 C 0.5518(4) 0.2117(8) 0.9587(4)
N2_2 N 0.5730(3) 0.2182(6) 0.9284(3)
C7_2 C 0.5652(4) 0.2912(8) 0.9023(4)
N3_2 N 0.5379(3) 0.3518(7) 0.9039(4)
C8_2 C 0.5192(3) 0.3376(8) 0.9365(3)
N4_2 N 0.5261(3) 0.2706(6) 0.9665(4)
N5 N 0.6379(3) 0.3440(7) 0.8133(4)
C9_2 C 0.6126(5) 0.4046(10) 0.8197(6)
H5_2 H 0.6109 0.4603 0.8041
C10_2 C 0.5886(5) 0.3889(13) 0.8484(6)
H6_2 H 0.5708 0.4343 0.8521
C11_2 C 0.5893(4) 0.3125(11) 0.8712(5)
C12_2 C 0.6146(6) 0.2458(11) 0.8623(8)
H7_2 H 0.6147 0.1878 0.8753
C13_2 C 0.6390(6) 0.2649(14) 0.8349(9)
H8_2 H 0.6573 0.2209 0.8309
N6 N 0.4254(3) 0.5127(7) 0.9426(4)
C14 C 0.4427(4) 0.4613(8) 0.9773(4)
C15 C 0.4725(3) 0.4037(9) 0.9771(4)
C16 C 0.4873(4) 0.3974(10) 0.9396(4)
C17 C 0.4693(5) 0.4494(13) 0.9016(6)
H11 H 0.4771 0.4443 0.8739
C18 C 0.4404(5) 0.5067(14) 0.9060(6)
H12 H 0.4301 0.5452 0.8814
Zn2 Zn 0.38024(4) 0.59530(11) 0.94225(6)
I3 I 0.39446(3) 0.74104(7) 0.90552(4)
N7 N 0.3359(3) 0.5355(8) 0.8973(4)
C19 C 0.3147(4) 0.5784(8) 0.8605(5)
H13 H 0.3211 0.6384 0.8545
C20 C 0.2841(3) 0.5368(7) 0.8317(5)
H14 H 0.2695 0.5691 0.8067
C21 C 0.2745(3) 0.4490(7) 0.8387(4)
C22 C 0.2959(5) 0.4033(9) 0.8754(5)
H15 H 0.2909 0.3418 0.8802
C23 C 0.3257(4) 0.4508(9) 0.9058(5)
H16 H 0.3388 0.4221 0.9327
C24 C 0.2427(4) 0.4058(8) 0.8072(5)
N8 N 0.2232(3) 0.4563(7) 0.7730(3)
C25 C 0.1935(4) 0.4169(9) 0.7464(5)
N9 N 0.1840(3) 0.3301(7) 0.7474(4)
C26 C 0.2078(4) 0.2830(8) 0.7821(4)
N10 N 0.2362(3) 0.3158(6) 0.8129(4)
C27 C 0.1199(7) 0.4729(13) 0.6429(8)
H17 H 0.0999 0.4436 0.6218
C28 C 0.1418(6) 0.4228(10) 0.6790(7)
H18 H 0.1369 0.3609 0.6828
C29 C 0.1705(4) 0.4674(7) 0.7081(4)
C30 C 0.1775(4) 0.5566(6) 0.7008(4)
H19 H 0.1977 0.5880 0.7206
C31 C 0.1542(4) 0.6003(9) 0.6638(5)
H20 H 0.1597 0.6613 0.6584
N12 N 0.1845(3) 0.0017(7) 0.7765(4)
C32 C 0.2160(4) 0.0352(9) 0.8054(5)
C33 C 0.2222(4) 0.1269(8) 0.8096(4)
H22 H 0.2430 0.1490 0.8322
C34 C 0.1988(3) 0.1870(7) 0.7815(4)
C35 C 0.1678(4) 0.1500(9) 0.7521(5)
H23 H 0.1507 0.1881 0.7318
C36 C 0.1608(4) 0.0595(10) 0.7512(5)
H24 H 0.1380 0.0373 0.7316
Zn5 Zn 0.67270(5) 0.36546(10) 0.76847(6)
N6_2 N 0.9254(3) 0.0127(7) 0.9426(4)
C18_2 C 0.9404(5) 0.0067(14) 0.9060(6)
H12_2 H 0.9301 0.0452 0.8814
Zn2_2 Zn 0.88024(4) 0.09530(11) 0.94225(6)
I3_2 I 0.89446(3) 0.24104(7) 0.90552(4)
N7_2 N 0.8359(3) 0.0355(8) 0.8973(4)
C19_2 C 0.8147(4) 0.0784(8) 0.8605(5)
H13_2 H 0.8211 0.1384 0.8545
C20_2 C 0.7841(3) 0.0368(7) 0.8317(5)
H14_2 H 0.7695 0.0691 0.8067
C30_2 C 0.6775(4) 0.0566(6) 0.7008(4)
H19_2 H 0.6977 0.0880 0.7206
C31_2 C 0.6542(4) 0.1003(9) 0.6638(5)
H20_2 H 0.6597 0.1613 0.6584
C14_2 C 0.9427(4) 0.9613(8) 0.9773(4)
C15_2 C 0.9725(3) 0.9037(9) 0.9771(4)
C16_2 C 0.9873(4) 0.8974(10) 0.9396(4)
C17_2 C 0.9693(5) 0.9494(13) 0.9016(6)
H11_2 H 0.9771 0.9443 0.8739
C21_2 C 0.7745(3) 0.9490(7) 0.8387(4)
C22_2 C 0.7959(5) 0.9033(9) 0.8754(5)
H15_2 H 0.7909 0.8418 0.8802
C23_2 C 0.8257(4) 0.9508(9) 0.9058(5)
H16_2 H 0.8388 0.9221 0.9327
C24_2 C 0.7427(4) 0.9058(8) 0.8072(5)
N8_2 N 0.7232(3) 0.9563(7) 0.7730(3)
C25_2 C 0.6935(4) 0.9169(9) 0.7464(5)
N9_2 N 0.6840(3) 0.8301(7) 0.7474(4)
C26_2 C 0.7078(4) 0.7830(8) 0.7821(4)
N10_2 N 0.7362(3) 0.8158(6) 0.8129(4)
C27_2 C 0.6199(7) 0.9729(13) 0.6429(8)
H17_2 H 0.5999 0.9436 0.6218
C28_2 C 0.6418(6) 0.9228(10) 0.6790(7)
H18_2 H 0.6369 0.8609 0.6828
C29_2 C 0.6705(4) 0.9674(7) 0.7081(4)
N12_2 N 0.6845(3) 0.5017(7) 0.7765(4)
C32_2 C 0.7160(4) 0.5352(9) 0.8054(5)
H21_2 H 0.7341 0.4951 0.8230
C33_2 C 0.7222(4) 0.6269(8) 0.8096(4)
H22_2 H 0.7430 0.6490 0.8322
C34_2 C 0.6988(3) 0.6870(7) 0.7815(4)
C35_2 C 0.6678(4) 0.6500(9) 0.7521(5)
H23_2 H 0.6507 0.6881 0.7318
C36_2 C 0.6608(4) 0.5595(10) 0.7512(5)
H24_2 H 0.6380 0.5373 0.7316
I5_2 I 0.73324(3) 0.27255(7) 0.79751(4)
I6_2 I 0.62939(4) 0.34487(7) 0.69041(4)
C1_2 C 0.5951(5) 0.9963(11) 0.5175(6)
C2_3 C 0.5896(4) 0.9251(10) 0.4887(6)
H2_3 H 0.6062 0.9144 0.4689
C3_3 C 0.5590(3) 0.8693(8) 0.4897(4)
C4_2 C 0.5344(4) 0.8903(10) 0.5160(4)
H3_2 H 0.5128 0.8531 0.5164
C5_2 C 0.5411(4) 0.9655(9) 0.5420(5)
H4_2 H 0.5234 0.9804 0.5599
C6_3 C 0.5518(4) 0.7883(8) 0.4587(4)
N2_3 N 0.5730(3) 0.7818(6) 0.4284(3)
C7_3 C 0.5652(4) 0.7088(8) 0.4023(4)
N3_3 N 0.5379(3) 0.6482(7) 0.4039(4)
C8_3 C 0.5192(3) 0.6624(8) 0.4365(3)
N4_3 N 0.5261(3) 0.7294(6) 0.4665(4)
N5_2 N 0.6379(3) 0.6560(7) 0.3133(4)
C9_3 C 0.6126(5) 0.5954(10) 0.3197(6)
H5_3 H 0.6109 0.5397 0.3041
C10_3 C 0.5886(5) 0.6111(13) 0.3484(6)
H6_3 H 0.5708 0.5657 0.3521
C11_3 C 0.5893(4) 0.6875(11) 0.3712(5)
C12_3 C 0.6146(6) 0.7542(11) 0.3623(8)
H7_3 H 0.6147 0.8122 0.3753
C13_3 C 0.6390(6) 0.7351(14) 0.3349(9)
H8_3 H 0.6573 0.7791 0.3309
N6_3 N 0.4254(3) 0.4873(7) 0.4426(4)
C14_3 C 0.4427(4) 0.5387(8) 0.4773(4)
H9 H 0.4336 0.5347 0.5042
C15_3 C 0.4725(3) 0.5963(9) 0.4771(4)
H10 H 0.4829 0.6319 0.5028
C16_3 C 0.4873(4) 0.6026(10) 0.4396(4)
C17_3 C 0.4693(5) 0.5506(13) 0.4016(6)
H11_3 H 0.4771 0.5557 0.3739
C18_3 C 0.4404(5) 0.4933(14) 0.4060(6)
H12_3 H 0.4301 0.4548 0.3814
Zn2_3 Zn 0.38024(4) 0.40470(11) 0.44225(6)
I3_3 I 0.39446(3) 0.25896(7) 0.40552(4)
I4 I 0.36454(3) 0.41636(9) 0.51859(4)
N7_3 N 0.3359(3) 0.4645(8) 0.3973(4)
C19_3 C 0.3147(4) 0.4216(8) 0.3605(5)
H13_3 H 0.3211 0.3616 0.3545
C20_3 C 0.2841(3) 0.4632(7) 0.3317(5)
H14_3 H 0.2695 0.4309 0.3067
C21_3 C 0.2745(3) 0.5510(7) 0.3387(4)
C22_3 C 0.2959(5) 0.5967(9) 0.3754(5)
H15_3 H 0.2909 0.6582 0.3802
C23_3 C 0.3257(4) 0.5492(9) 0.4058(5)
H16_3 H 0.3388 0.5779 0.4327
C24_3 C 0.2427(4) 0.5942(8) 0.3072(5)
N8_3 N 0.2232(3) 0.5437(7) 0.2730(3)
C25_3 C 0.1935(4) 0.5831(9) 0.2464(5)
N9_3 N 0.1840(3) 0.6699(7) 0.2474(4)
C26_3 C 0.2078(4) 0.7170(8) 0.2821(4)
N10_3 N 0.2362(3) 0.6842(6) 0.3129(4)
N11 N 0.1264(4) 0.4376(9) 0.1372(4)
C27_3 C 0.1199(7) 0.5271(13) 0.1429(8)
H17_3 H 0.0999 0.5564 0.1218
C28_3 C 0.1418(6) 0.5772(10) 0.1790(7)
H18_3 H 0.1369 0.6391 0.1828
C29_3 C 0.1705(4) 0.5326(7) 0.2081(4)
C30_3 C 0.1775(4) 0.4434(6) 0.2008(4)
H19_3 H 0.1977 0.4120 0.2206
C31_3 C 0.1542(4) 0.3997(9) 0.1638(5)
H20_3 H 0.1597 0.3387 0.1584
N12_3 N 0.1845(3) 0.9983(7) 0.2765(4)
C32_3 C 0.2160(4) 0.9648(9) 0.3054(5)
C33_3 C 0.2222(4) 0.8731(8) 0.3096(4)
H22_3 H 0.2430 0.8510 0.3322
C34_3 C 0.1988(3) 0.8130(7) 0.2815(4)
C35_3 C 0.1678(4) 0.8500(9) 0.2521(5)
H23_3 H 0.1507 0.8119 0.2318
C36_3 C 0.1608(4) 0.9405(10) 0.2512(5)
H24_3 H 0.1380 0.9627 0.2316
Zn4 Zn 0.08502(5) 0.37313(11) 0.08828(6)
Zn5_2 Zn 0.67270(5) 0.63454(10) 0.26847(6)
C14_4 C 0.9427(4) 0.0387(8) 0.4773(4)
H9_2 H 0.9336 0.0347 0.5042
C15_4 C 0.9725(3) 0.0963(9) 0.4771(4)
H10_2 H 0.9829 0.1319 0.5028
C16_4 C 0.9873(4) 0.1026(10) 0.4396(4)
C17_4 C 0.9693(5) 0.0506(13) 0.4016(6)
H11_4 H 0.9771 0.0557 0.3739
C21_4 C 0.7745(3) 0.0510(7) 0.3387(4)
C22_4 C 0.7959(5) 0.0967(9) 0.3754(5)
H15_4 H 0.7909 0.1582 0.3802
C23_4 C 0.8257(4) 0.0492(9) 0.4058(5)
H16_4 H 0.8388 0.0779 0.4327
C24_4 C 0.7427(4) 0.0942(8) 0.3072(5)
N8_4 N 0.7232(3) 0.0437(7) 0.2730(3)
C25_4 C 0.6935(4) 0.0831(9) 0.2464(5)
N9_4 N 0.6840(3) 0.1699(7) 0.2474(4)
C26_4 C 0.7078(4) 0.2170(8) 0.2821(4)
N10_4 N 0.7362(3) 0.1842(6) 0.3129(4)
C27_4 C 0.6199(7) 0.0271(13) 0.1429(8)
H17_4 H 0.5999 0.0564 0.1218
C28_4 C 0.6418(6) 0.0772(10) 0.1790(7)
H18_4 H 0.6369 0.1391 0.1828
C29_4 C 0.6705(4) 0.0326(7) 0.2081(4)
N12_4 N 0.6845(3) 0.4983(7) 0.2765(4)
C32_4 C 0.7160(4) 0.4648(9) 0.3054(5)
H21_3 H 0.7341 0.5049 0.3230
C33_4 C 0.7222(4) 0.3731(8) 0.3096(4)
H22_4 H 0.7430 0.3510 0.3322
C34_4 C 0.6988(3) 0.3130(7) 0.2815(4)
C35_4 C 0.6678(4) 0.3500(9) 0.2521(5)
H23_4 H 0.6507 0.3119 0.2318
C36_4 C 0.6608(4) 0.4405(10) 0.2512(5)
H24_4 H 0.6380 0.4627 0.2316
I5_3 I 0.73324(3) 0.72745(7) 0.29751(4)
I6_3 I 0.62939(4) 0.65513(7) 0.19041(4)
I1_3 I 0.11502(5) 0.25528(8) 0.04887(5)
I2_3 I 0.03027(4) 0.35367(9) 0.12771(4)
N1_3 N 0.0709(4) 0.4814(8) 0.0434(4)
C1_3 C 0.0951(5) 0.5037(11) 0.0175(6)
H1_3 H 0.1174 0.4676 0.0192
C4_3 C 0.0344(4) 0.6097(10) 0.0160(4)
H3_3 H 0.0128 0.6469 0.0164
C5_3 C 0.0411(4) 0.5345(9) 0.0420(5)
H4_3 H 0.0234 0.5196 0.0599
H21_4 H 0.7659 0.0049 0.1770
Zn3_2 Zn 0.82730(5) 0.13454(10) 0.23153(6)
I5_4 I 0.76676(3) 0.22745(7) 0.20249(4)
I6_4 I 0.87061(4) 0.15513(7) 0.30959(4)
N13_2 N 0.8621(3) 0.1560(7) 0.1867(4)
C2_4 C 0.9104(4) 0.4251(10) 0.0113(6)
H2_4 H 0.8938 0.4144 0.0311
C3_4 C 0.9410(3) 0.3693(8) 0.0103(4)
C6_4 C 0.9482(4) 0.2883(8) 0.0413(4)
N2_4 N 0.9270(3) 0.2818(6) 0.0716(3)
C7_4 C 0.9348(4) 0.2088(8) 0.0977(4)
N3_4 N 0.9621(3) 0.1482(7) 0.0961(4)
C8_4 C 0.9808(3) 0.1624(8) 0.0635(3)
N4_4 N 0.9739(3) 0.2294(6) 0.0335(4)
C9_4 C 0.8874(5) 0.0954(10) 0.1803(6)
H5_4 H 0.8891 0.0397 0.1959
C10_4 C 0.9114(5) 0.1111(13) 0.1516(6)
H6_4 H 0.9292 0.0657 0.1479
C11_4 C 0.9107(4) 0.1875(11) 0.1288(5)
C12_4 C 0.8854(6) 0.2542(11) 0.1377(8)
H7_4 H 0.8853 0.3122 0.1247
C13_4 C 0.8610(6) 0.2351(14) 0.1651(9)
H8_4 H 0.8427 0.2791 0.1691
Zn1_3 Zn 0.41498(5) 0.12687(11) 0.91172(6)
I1_4 I 0.38498(5) 0.24472(8) 0.95113(5)
I2_4 I 0.46973(4) 0.14633(9) 0.87229(4)
N1_4 N 0.4291(4) 0.0186(8) 0.9566(4)
H1_4 H 0.3826 0.0324 0.9808
N14_3 N 0.3736(4) 0.0624(9) 0.8628(4)
N6_4 N 0.0746(3) 0.0127(7) 0.5574(4)
C18_4 C 0.0596(5) 0.0067(14) 0.5940(6)
H12_4 H 0.0699 0.0452 0.6186
Zn2_4 Zn 0.11976(4) 0.09530(11) 0.55775(6)
I3_4 I 0.10554(3) 0.24104(7) 0.59448(4)
I4_2 I 0.13546(3) 0.08364(9) 0.48141(4)
N7_4 N 0.1641(3) 0.0355(8) 0.6027(4)
C19_4 C 0.1853(4) 0.0784(8) 0.6395(5)
H13_4 H 0.1789 0.1384 0.6455
C20_4 C 0.2159(3) 0.0368(7) 0.6683(5)
H14_4 H 0.2305 0.0691 0.6933
C30_4 C 0.3225(4) 0.0566(6) 0.7992(4)
H19_4 H 0.3023 0.0880 0.7794
C31_4 C 0.3458(4) 0.1003(9) 0.8362(5)
H20_4 H 0.3403 0.1613 0.8416
C2_5 C 0.4104(4) 0.9251(10) 0.0113(6)
H2_5 H 0.3938 0.9144 0.0311
C3_5 C 0.4410(3) 0.8693(8) 0.0103(4)
C6_5 C 0.4482(4) 0.7883(8) 0.0413(4)
N2_5 N 0.4270(3) 0.7818(6) 0.0716(3)
C7_5 C 0.4348(4) 0.7088(8) 0.0977(4)
N3_5 N 0.4621(3) 0.6482(7) 0.0961(4)
C8_5 C 0.4808(3) 0.6624(8) 0.0635(3)
N4_5 N 0.4739(3) 0.7294(6) 0.0335(4)
N5_3 N 0.3621(3) 0.6560(7) 0.1867(4)
C9_5 C 0.3874(5) 0.5954(10) 0.1803(6)
H5_5 H 0.3891 0.5397 0.1959
C10_5 C 0.4114(5) 0.6111(13) 0.1516(6)
H6_5 H 0.4292 0.5657 0.1479
C11_5 C 0.4107(4) 0.6875(11) 0.1288(5)
C12_5 C 0.3854(6) 0.7542(11) 0.1377(8)
H7_5 H 0.3853 0.8122 0.1247
C13_5 C 0.3610(6) 0.7351(14) 0.1651(9)
H8_5 H 0.3427 0.7791 0.1691
N6_5 N 0.5746(3) 0.4873(7) 0.0574(4)
C14_5 C 0.5573(4) 0.5387(8) 0.0227(4)
C15_5 C 0.5275(3) 0.5963(9) 0.0229(4)
C16_5 C 0.5127(4) 0.6026(10) 0.0604(4)
C17_5 C 0.5307(5) 0.5506(13) 0.0984(6)
H11_5 H 0.5229 0.5557 0.1261
C18_5 C 0.5596(5) 0.4933(14) 0.0940(6)
H12_5 H 0.5699 0.4548 0.1186
Zn2_5 Zn 0.61976(4) 0.40470(11) 0.05775(6)
I3_5 I 0.60554(3) 0.25896(7) 0.09448(4)
N7_5 N 0.6641(3) 0.4645(8) 0.1027(4)
C19_5 C 0.6853(4) 0.4216(8) 0.1395(5)
H13_5 H 0.6789 0.3616 0.1455
C20_5 C 0.7159(3) 0.4632(7) 0.1683(5)
H14_5 H 0.7305 0.4309 0.1933
C21_5 C 0.7255(3) 0.5510(7) 0.1613(4)
C22_5 C 0.7041(5) 0.5967(9) 0.1246(5)
H15_5 H 0.7091 0.6582 0.1198
C23_5 C 0.6743(4) 0.5492(9) 0.0942(5)
H16_5 H 0.6612 0.5779 0.0673
C24_5 C 0.7573(4) 0.5942(8) 0.1928(5)
N8_5 N 0.7768(3) 0.5437(7) 0.2270(3)
C25_5 C 0.8065(4) 0.5831(9) 0.2536(5)
N9_5 N 0.8160(3) 0.6699(7) 0.2526(4)
C26_5 C 0.7922(4) 0.7170(8) 0.2179(4)
N10_5 N 0.7638(3) 0.6842(6) 0.1871(4)
N11_2 N 0.8736(4) 0.4376(9) 0.3628(4)
C27_5 C 0.8801(7) 0.5271(13) 0.3571(8)
H17_5 H 0.9001 0.5564 0.3782
C28_5 C 0.8582(6) 0.5772(10) 0.3210(7)
H18_5 H 0.8631 0.6391 0.3172
C29_5 C 0.8295(4) 0.5326(7) 0.2919(4)
C30_5 C 0.8225(4) 0.4434(6) 0.2992(4)
H19_5 H 0.8023 0.4120 0.2794
C31_5 C 0.8458(4) 0.3997(9) 0.3362(5)
H20_5 H 0.8403 0.3387 0.3416
N12_5 N 0.8155(3) 0.9983(7) 0.2235(4)
C32_5 C 0.7840(4) 0.9648(9) 0.1946(5)
C33_5 C 0.7778(4) 0.8731(8) 0.1904(4)
H22_5 H 0.7570 0.8510 0.1678
C34_5 C 0.8012(3) 0.8130(7) 0.2185(4)
C35_5 C 0.8322(4) 0.8500(9) 0.2479(5)
H23_5 H 0.8493 0.8119 0.2682
C36_5 C 0.8392(4) 0.9405(10) 0.2488(5)
H24_5 H 0.8620 0.9627 0.2684
Zn4_2 Zn 0.91498(5) 0.37313(11) 0.41172(6)
Zn5_3 Zn 0.32730(5) 0.63454(10) 0.23153(6)
C14_6 C 0.0573(4) 0.0387(8) 0.0227(4)
C15_6 C 0.0275(3) 0.0963(9) 0.0229(4)
C16_6 C 0.0127(4) 0.1026(10) 0.0604(4)
C17_6 C 0.0307(5) 0.0506(13) 0.0984(6)
H11_6 H 0.0229 0.0557 0.1261
C21_6 C 0.2255(3) 0.0510(7) 0.1613(4)
C22_6 C 0.2041(5) 0.0967(9) 0.1246(5)
H15_6 H 0.2091 0.1582 0.1198
C23_6 C 0.1743(4) 0.0492(9) 0.0942(5)
H16_6 H 0.1612 0.0779 0.0673
C24_6 C 0.2573(4) 0.0942(8) 0.1928(5)
N8_6 N 0.2768(3) 0.0437(7) 0.2270(3)
C25_6 C 0.3065(4) 0.0831(9) 0.2536(5)
N9_6 N 0.3160(3) 0.1699(7) 0.2526(4)
C26_6 C 0.2922(4) 0.2170(8) 0.2179(4)
N10_6 N 0.2638(3) 0.1842(6) 0.1871(4)
C27_6 C 0.3801(7) 0.0271(13) 0.3571(8)
H17_6 H 0.4001 0.0564 0.3782
C28_6 C 0.3582(6) 0.0772(10) 0.3210(7)
H18_6 H 0.3631 0.1391 0.3172
C29_6 C 0.3295(4) 0.0326(7) 0.2919(4)
N12_6 N 0.3155(3) 0.4983(7) 0.2235(4)
C32_6 C 0.2840(4) 0.4648(9) 0.1946(5)
H21_5 H 0.2659 0.5049 0.1770
C33_6 C 0.2778(4) 0.3731(8) 0.1904(4)
H22_6 H 0.2570 0.3510 0.1678
C34_6 C 0.3012(3) 0.3130(7) 0.2185(4)
C35_6 C 0.3322(4) 0.3500(9) 0.2479(5)
H23_6 H 0.3493 0.3119 0.2682
C36_6 C 0.3392(4) 0.4405(10) 0.2488(5)
H24_6 H 0.3620 0.4627 0.2684
I5_5 I 0.26676(3) 0.72745(7) 0.20249(4)
I6_5 I 0.37061(4) 0.65513(7) 0.30959(4)
N6_6 N 0.0746(3) 0.9873(7) 0.0574(4)
C18_6 C 0.0596(5) 0.9933(14) 0.0940(6)
H12_6 H 0.0699 0.9548 0.1186
Zn2_6 Zn 0.11976(4) 0.90470(11) 0.05775(6)
I3_6 I 0.10554(3) 0.75896(7) 0.09448(4)
N7_6 N 0.1641(3) 0.9645(8) 0.1027(4)
C19_6 C 0.1853(4) 0.9216(8) 0.1395(5)
H13_6 H 0.1789 0.8616 0.1455
C20_6 C 0.2159(3) 0.9632(7) 0.1683(5)
H14_6 H 0.2305 0.9309 0.1933
N11_3 N 0.3736(4) 0.9376(9) 0.3628(4)
C30_6 C 0.3225(4) 0.9434(6) 0.2992(4)
H19_6 H 0.3023 0.9120 0.2794
C31_6 C 0.3458(4) 0.8997(9) 0.3362(5)
H20_6 H 0.3403 0.8387 0.3416
Zn4_3 Zn 0.41498(5) 0.87313(11) 0.41172(6)
I1_5 I 0.38498(5) 0.75528(8) 0.45113(5)
I2_5 I 0.46973(4) 0.85367(9) 0.37229(4)
N1_5 N 0.4291(4) 0.9814(8) 0.4566(4)
H1_5 H 0.3826 0.9676 0.4808
H21_6 H 0.7659 0.9951 0.6770
Zn3_3 Zn 0.82730(5) 0.86546(10) 0.73153(6)
I5_6 I 0.76676(3) 0.77255(7) 0.70249(4)
I6_6 I 0.87061(4) 0.84487(7) 0.80959(4)
N13_3 N 0.8621(3) 0.8440(7) 0.6867(4)
I1_6 I 0.88498(5) 0.25528(8) 0.45113(5)
I2_6 I 0.96973(4) 0.35367(9) 0.37229(4)
N1_6 N 0.9291(4) 0.4814(8) 0.4566(4)
C1_4 C 0.9049(5) 0.5037(11) 0.4825(6)
H1_6 H 0.8826 0.4676 0.4808
C2_6 C 0.9104(4) 0.5749(10) 0.5113(6)
H2_6 H 0.8938 0.5856 0.5311
C3_6 C 0.9410(3) 0.6307(8) 0.5103(4)
C4_4 C 0.9656(4) 0.6097(10) 0.4840(4)
H3_4 H 0.9872 0.6469 0.4836
C5_4 C 0.9589(4) 0.5345(9) 0.4580(5)
H4_4 H 0.9766 0.5196 0.4401
C6_6 C 0.9482(4) 0.7117(8) 0.5413(4)
N2_6 N 0.9270(3) 0.7182(6) 0.5716(3)
C7_6 C 0.9348(4) 0.7912(8) 0.5977(4)
N3_6 N 0.9621(3) 0.8518(7) 0.5961(4)
C8_6 C 0.9808(3) 0.8376(8) 0.5635(3)
N4_6 N 0.9739(3) 0.7706(6) 0.5335(4)
C9_6 C 0.8874(5) 0.9046(10) 0.6803(6)
H5_6 H 0.8891 0.9603 0.6959
C10_6 C 0.9114(5) 0.8889(13) 0.6516(6)
H6_6 H 0.9292 0.9343 0.6479
C11_6 C 0.9107(4) 0.8125(11) 0.6288(5)
C12_6 C 0.8854(6) 0.7458(11) 0.6377(8)
H7_6 H 0.8853 0.6878 0.6247
C13_6 C 0.8610(6) 0.7649(14) 0.6651(9)
H8_6 H 0.8427 0.7209 0.6691
C1_5 C 0.4049(5) 0.9963(11) 0.9825(6)
C4_5 C 0.4656(4) 0.8903(10) 0.9840(4)
H3_5 H 0.4872 0.8531 0.9836
C5_5 C 0.4589(4) 0.9655(9) 0.9580(5)
H4_5 H 0.4766 0.9804 0.9401
H9_3 H 0.5664 0.5347 0.9958
H10_3 H 0.5171 0.6319 0.9972
I4_3 I 0.63546(3) 0.41636(9) 0.98141(4)
N6_7 N 0.9254(3) 0.9873(7) 0.4426(4)
C18_7 C 0.9404(5) 0.9933(14) 0.4060(6)
H12_7 H 0.9301 0.9548 0.3814
Zn2_7 Zn 0.88024(4) 0.90470(11) 0.44225(6)
I3_7 I 0.89446(3) 0.75896(7) 0.40552(4)
I4_4 I 0.86454(3) 0.91636(9) 0.51859(4)
N7_7 N 0.8359(3) 0.9645(8) 0.3973(4)
C19_7 C 0.8147(4) 0.9216(8) 0.3605(5)
H13_7 H 0.8211 0.8616 0.3545
C20_7 C 0.7841(3) 0.9632(7) 0.3317(5)
H14_7 H 0.7695 0.9309 0.3067
N11_4 N 0.6264(4) 0.9376(9) 0.1372(4)
C30_7 C 0.6775(4) 0.9434(6) 0.2008(4)
H19_7 H 0.6977 0.9120 0.2206
C31_7 C 0.6542(4) 0.8997(9) 0.1638(5)
H20_7 H 0.6597 0.8387 0.1584
Zn4_4 Zn 0.58502(5) 0.87313(11) 0.08828(6)
I1_7 I 0.61502(5) 0.75528(8) 0.04887(5)
I2_7 I 0.53027(4) 0.85367(9) 0.12771(4)
N1_7 N 0.5709(4) 0.9814(8) 0.0434(4)
H1_7 H 0.6174 0.9676 0.0192
H9_4 H 0.0664 0.0347 0.9958
H10_4 H 0.0171 0.1319 0.9972
I4_5 I 0.13546(3) 0.91636(9) 0.98141(4)
Zn1_4 Zn 0.91498(5) 0.62687(11) 0.91172(6)
I1_8 I 0.88498(5) 0.74472(8) 0.95113(5)
I2_8 I 0.96973(4) 0.64633(9) 0.87229(4)
N1_8 N 0.9291(4) 0.5186(8) 0.9566(4)
C1_6 C 0.9049(5) 0.4963(11) 0.9825(6)
H1_8 H 0.8826 0.5324 0.9808
C4_6 C 0.9656(4) 0.3903(10) 0.9840(4)
H3_6 H 0.9872 0.3531 0.9836
C5_6 C 0.9589(4) 0.4655(9) 0.9580(5)
H4_6 H 0.9766 0.4804 0.9401
N14_4 N 0.8736(4) 0.5624(9) 0.8628(4)
C1_7 C 0.4049(5) 0.0037(11) 0.4825(6)
C2_7 C 0.4104(4) 0.0749(10) 0.5113(6)
H2_7 H 0.3938 0.0856 0.5311
C3_7 C 0.4410(3) 0.1307(8) 0.5103(4)
C4_7 C 0.4656(4) 0.1097(10) 0.4840(4)
H3_7 H 0.4872 0.1469 0.4836
C5_7 C 0.4589(4) 0.0345(9) 0.4580(5)
H4_7 H 0.4766 0.0196 0.4401
C6_7 C 0.4482(4) 0.2117(8) 0.5413(4)
N2_7 N 0.4270(3) 0.2182(6) 0.5716(3)
C7_7 C 0.4348(4) 0.2912(8) 0.5977(4)
N3_7 N 0.4621(3) 0.3518(7) 0.5961(4)
C8_7 C 0.4808(3) 0.3376(8) 0.5635(3)
N4_7 N 0.4739(3) 0.2706(6) 0.5335(4)
N5_4 N 0.3621(3) 0.3440(7) 0.6867(4)
C9_7 C 0.3874(5) 0.4046(10) 0.6803(6)
H5_7 H 0.3891 0.4603 0.6959
C10_7 C 0.4114(5) 0.3889(13) 0.6516(6)
H6_7 H 0.4292 0.4343 0.6479
C11_7 C 0.4107(4) 0.3125(11) 0.6288(5)
C12_7 C 0.3854(6) 0.2458(11) 0.6377(8)
H7_7 H 0.3853 0.1878 0.6247
C13_7 C 0.3610(6) 0.2649(14) 0.6651(9)
H8_7 H 0.3427 0.2209 0.6691
N6_8 N 0.5746(3) 0.5127(7) 0.5574(4)
C14_7 C 0.5573(4) 0.4613(8) 0.5227(4)
H9_5 H 0.5664 0.4653 0.4958
C15_7 C 0.5275(3) 0.4037(9) 0.5229(4)
H10_5 H 0.5171 0.3681 0.4972
C16_7 C 0.5127(4) 0.3974(10) 0.5604(4)
C17_7 C 0.5307(5) 0.4494(13) 0.5984(6)
H11_7 H 0.5229 0.4443 0.6261
C18_8 C 0.5596(5) 0.5067(14) 0.5940(6)
H12_8 H 0.5699 0.5452 0.6186
Zn2_8 Zn 0.61976(4) 0.59530(11) 0.55775(6)
I3_8 I 0.60554(3) 0.74104(7) 0.59448(4)
I4_6 I 0.63546(3) 0.58364(9) 0.48141(4)
N7_8 N 0.6641(3) 0.5355(8) 0.6027(4)
C19_8 C 0.6853(4) 0.5784(8) 0.6395(5)
H13_8 H 0.6789 0.6384 0.6455
C20_8 C 0.7159(3) 0.5368(7) 0.6683(5)
H14_8 H 0.7305 0.5691 0.6933
C21_7 C 0.7255(3) 0.4490(7) 0.6613(4)
C22_7 C 0.7041(5) 0.4033(9) 0.6246(5)
H15_7 H 0.7091 0.3418 0.6198
C23_7 C 0.6743(4) 0.4508(9) 0.5942(5)
H16_7 H 0.6612 0.4221 0.5673
C24_7 C 0.7573(4) 0.4058(8) 0.6928(5)
N8_7 N 0.7768(3) 0.4563(7) 0.7270(3)
C25_7 C 0.8065(4) 0.4169(9) 0.7536(5)
N9_7 N 0.8160(3) 0.3301(7) 0.7526(4)
C26_7 C 0.7922(4) 0.2830(8) 0.7179(4)
N10_7 N 0.7638(3) 0.3158(6) 0.6871(4)
C27_7 C 0.8801(7) 0.4729(13) 0.8571(8)
H17_7 H 0.9001 0.4436 0.8782
C28_7 C 0.8582(6) 0.4228(10) 0.8210(7)
H18_7 H 0.8631 0.3609 0.8172
C29_7 C 0.8295(4) 0.4674(7) 0.7919(4)
C30_8 C 0.8225(4) 0.5566(6) 0.7992(4)
H19_8 H 0.8023 0.5880 0.7794
C31_8 C 0.8458(4) 0.6003(9) 0.8362(5)
H20_8 H 0.8403 0.6613 0.8416
N12_7 N 0.8155(3) 0.0017(7) 0.7235(4)
C32_7 C 0.7840(4) 0.0352(9) 0.6946(5)
C33_7 C 0.7778(4) 0.1269(8) 0.6904(4)
H22_7 H 0.7570 0.1490 0.6678
C34_7 C 0.8012(3) 0.1870(7) 0.7185(4)
C35_7 C 0.8322(4) 0.1500(9) 0.7479(5)
H23_7 H 0.8493 0.1881 0.7682
C36_7 C 0.8392(4) 0.0595(10) 0.7488(5)
H24_7 H 0.8620 0.0373 0.7684
Zn5_4 Zn 0.32730(5) 0.36546(10) 0.73153(6)
C14_8 C 0.0573(4) 0.9613(8) 0.5227(4)
H9_6 H 0.0664 0.9653 0.4958
C15_8 C 0.0275(3) 0.9037(9) 0.5229(4)
H10_6 H 0.0171 0.8681 0.4972
C16_8 C 0.0127(4) 0.8974(10) 0.5604(4)
C17_8 C 0.0307(5) 0.9494(13) 0.5984(6)
H11_8 H 0.0229 0.9443 0.6261
C21_8 C 0.2255(3) 0.9490(7) 0.6613(4)
C22_8 C 0.2041(5) 0.9033(9) 0.6246(5)
H15_8 H 0.2091 0.8418 0.6198
C23_8 C 0.1743(4) 0.9508(9) 0.5942(5)
H16_8 H 0.1612 0.9221 0.5673
C24_8 C 0.2573(4) 0.9058(8) 0.6928(5)
N8_8 N 0.2768(3) 0.9563(7) 0.7270(3)
C25_8 C 0.3065(4) 0.9169(9) 0.7536(5)
N9_8 N 0.3160(3) 0.8301(7) 0.7526(4)
C26_8 C 0.2922(4) 0.7830(8) 0.7179(4)
N10_8 N 0.2638(3) 0.8158(6) 0.6871(4)
C27_8 C 0.3801(7) 0.9729(13) 0.8571(8)
H17_8 H 0.4001 0.9436 0.8782
C28_8 C 0.3582(6) 0.9228(10) 0.8210(7)
H18_8 H 0.3631 0.8609 0.8172
C29_8 C 0.3295(4) 0.9674(7) 0.7919(4)
N12_8 N 0.3155(3) 0.5017(7) 0.7235(4)
C32_8 C 0.2840(4) 0.5352(9) 0.6946(5)
H21_7 H 0.2659 0.4951 0.6770
C33_8 C 0.2778(4) 0.6269(8) 0.6904(4)
H22_8 H 0.2570 0.6490 0.6678
C34_8 C 0.3012(3) 0.6870(7) 0.7185(4)
C35_8 C 0.3322(4) 0.6500(9) 0.7479(5)
H23_8 H 0.3493 0.6881 0.7682
C36_8 C 0.3392(4) 0.5595(10) 0.7488(5)
H24_8 H 0.3620 0.5373 0.7684
I5_7 I 0.26676(3) 0.27255(7) 0.70249(4)
I6_7 I 0.37061(4) 0.34487(7) 0.80959(4)
C1_8 C 0.5951(5) 0.0037(11) 0.0175(6)
C4_8 C 0.5344(4) 0.1097(10) 0.0160(4)
H3_8 H 0.5128 0.1469 0.0164
C5_8 C 0.5411(4) 0.0345(9) 0.0420(5)
H4_8 H 0.5234 0.0196 0.0599
H9_7 H 0.4336 0.4653 0.0042
H10_7 H 0.4829 0.3681 0.0028
I4_7 I 0.36454(3) 0.58364(9) 0.01859(4)
H21_8 H 0.2341 0.9951 0.8230
Zn3_4 Zn 0.17270(5) 0.86546(10) 0.76847(6)
I5_8 I 0.23324(3) 0.77255(7) 0.79751(4)
I6_8 I 0.12939(4) 0.84487(7) 0.69041(4)
N13_4 N 0.1379(3) 0.8440(7) 0.8133(4)
C2_8 C 0.0896(4) 0.5749(10) 0.9887(6)
H2_8 H 0.1062 0.5856 0.9689
C3_8 C 0.0590(3) 0.6307(8) 0.9897(4)
C6_8 C 0.0518(4) 0.7117(8) 0.9587(4)
N2_8 N 0.0730(3) 0.7182(6) 0.9284(3)
C7_8 C 0.0652(4) 0.7912(8) 0.9023(4)
N3_8 N 0.0379(3) 0.8518(7) 0.9039(4)
C8_8 C 0.0192(3) 0.8376(8) 0.9365(3)
N4_8 N 0.0261(3) 0.7706(6) 0.9665(4)
C9_8 C 0.1126(5) 0.9046(10) 0.8197(6)
H5_8 H 0.1109 0.9603 0.8041
C10_8 C 0.0886(5) 0.8889(13) 0.8484(6)
H6_8 H 0.0708 0.9343 0.8521
C11_8 C 0.0893(4) 0.8125(11) 0.8712(5)
C12_8 C 0.1146(6) 0.7458(11) 0.8623(8)
H7_8 H 0.1147 0.6878 0.8753
C13_8 C 0.1390(6) 0.7649(14) 0.8349(9)
H8_8 H 0.1573 0.7209 0.8309
I4_8 I 0.86454(3) 0.08364(9) 0.01859(4)
H9_8 H 0.9336 0.9653 0.0042
H10_8 H 0.9829 0.8681 0.0028
loop_
_geom_bond_atom_site_label_1
_geom_bond_atom_site_label_2
_geom_bond_site_symmetry_1
_geom_bond_site_symmetry_2
Zn1 I1 1_555 1_555
I2 Zn1 1_555 1_555
N1 Zn1 1_555 1_555
I5 Zn3 1_555 1_555
I6 Zn3 1_555 1_555
N13 Zn3 1_555 1_555
N14 Zn1 1_555 1_555
Zn1_2 I1_2 1_555 1_555
I2_2 Zn1_2 1_555 1_555
N1_2 Zn1_2 1_555 1_555
C1 N1_2 1_555 1_555
H1_2 C1 1_555 1_555
C2 C1 1_555 1_555
H2 C2 1_555 1_555
C3 C2 1_555 1_555
C4 C3 1_555 1_555
H3 C4 1_555 1_555
C5 N1_2 1_555 1_555
H4 C5 1_555 1_555
C6 C3 1_555 1_555
N2 C6 1_555 1_555
C7 N2 1_555 1_555
N3 C7 1_555 1_555
C8 N3 1_555 1_555
N4 C6 1_555 1_555
N13 C9 1_555 1_555
C9 H5 1_555 1_555
C10 C9 1_555 1_555
H6 C10 1_555 1_555
C11 C7 1_555 1_555
C12 C11 1_555 1_555
H7 C12 1_555 1_555
C13 N13 1_555 1_555
H8 C13 1_555 1_555
N14_2 Zn1_2 1_555 1_555
C4 C5 1_555 1_555
C8 N4 1_555 1_555
C10 C11 1_555 1_555
C12 C13 1_555 1_555
H2_2 C2_2 1_555 1_555
C3_2 C2_2 1_555 1_555
C6_2 C3_2 1_555 1_555
N2_2 C6_2 1_555 1_555
C7_2 N2_2 1_555 1_555
N3_2 C7_2 1_555 1_555
C8_2 N3_2 1_555 1_555
N4_2 C6_2 1_555 1_555
N5 C9_2 1_555 1_555
C9_2 H5_2 1_555 1_555
C10_2 C9_2 1_555 1_555
H6_2 C10_2 1_555 1_555
C11_2 C7_2 1_555 1_555
C12_2 C11_2 1_555 1_555
H7_2 C12_2 1_555 1_555
C13_2 N5 1_555 1_555
H8_2 C13_2 1_555 1_555
N6 C14 1_555 1_555
C15 C14 1_555 1_555
C16 C8_2 1_555 1_555
C17 C16 1_555 1_555
H11 C17 1_555 1_555
C18 N6 1_555 1_555
H12 C18 1_555 1_555
Zn2 N6 1_555 1_555
I3 Zn2 1_555 1_555
N7 Zn2 1_555 1_555
C19 N7 1_555 1_555
H13 C19 1_555 1_555
C20 C19 1_555 1_555
H14 C20 1_555 1_555
C21 C20 1_555 1_555
C22 C21 1_555 1_555
H15 C22 1_555 1_555
C23 N7 1_555 1_555
H16 C23 1_555 1_555
C24 C21 1_555 1_555
N8 C24 1_555 1_555
C25 N8 1_555 1_555
N9 C25 1_555 1_555
C26 N9 1_555 1_555
N10 C24 1_555 1_555
N14_2 C27 1_555 1_555
C27 H17 1_555 1_555
C28 C27 1_555 1_555
H18 C28 1_555 1_555
C29 C25 1_555 1_555
C30 C29 1_555 1_555
H19 C30 1_555 1_555
C31 N14_2 1_555 1_555
H20 C31 1_555 1_555
N12 C32 1_555 1_555
C33 C32 1_555 1_555
H22 C33 1_555 1_555
C34 C26 1_555 1_555
C35 C34 1_555 1_555
H23 C35 1_555 1_555
C36 N12 1_555 1_555
H24 C36 1_555 1_555
Zn5 N5 1_555 1_555
C8_2 N4_2 1_555 1_555
C10_2 C11_2 1_555 1_555
C12_2 C13_2 1_555 1_555
C15 C16 1_555 1_555
C17 C18 1_555 1_555
C22 C23 1_555 1_555
C26 N10 1_555 1_555
C28 C29 1_555 1_555
C30 C31 1_555 1_555
C33 C34 1_555 1_555
C35 C36 1_555 1_555
C18_2 N6_2 1_555 1_555
H12_2 C18_2 1_555 1_555
Zn2_2 N6_2 1_555 1_555
I3_2 Zn2_2 1_555 1_555
N7_2 Zn2_2 1_555 1_555
C19_2 N7_2 1_555 1_555
H13_2 C19_2 1_555 1_555
C20_2 C19_2 1_555 1_555
H14_2 C20_2 1_555 1_555
H19_2 C30_2 1_555 1_555
C31_2 N14 1_555 1_555
H20_2 C31_2 1_555 1_555
C30_2 C31_2 1_555 1_555
C15_2 C14_2 1_555 1_555
C17_2 C16_2 1_555 1_555
H11_2 C17_2 1_555 1_555
C22_2 C21_2 1_555 1_555
H15_2 C22_2 1_555 1_555
H16_2 C23_2 1_555 1_555
C24_2 C21_2 1_555 1_555
N8_2 C24_2 1_555 1_555
C25_2 N8_2 1_555 1_555
N9_2 C25_2 1_555 1_555
C26_2 N9_2 1_555 1_555
N10_2 C24_2 1_555 1_555
C27_2 H17_2 1_555 1_555
C28_2 C27_2 1_555 1_555
H18_2 C28_2 1_555 1_555
C29_2 C25_2 1_555 1_555
N12_2 C32_2 1_555 1_555
C32_2 H21_2 1_555 1_555
C33_2 C32_2 1_555 1_555
H22_2 C33_2 1_555 1_555
C34_2 C26_2 1_555 1_555
C35_2 C34_2 1_555 1_555
H23_2 C35_2 1_555 1_555
C36_2 N12_2 1_555 1_555
H24_2 C36_2 1_555 1_555
Zn5 N12_2 1_555 1_555
I5_2 Zn5 1_555 1_555
I6_2 Zn5 1_555 1_555
C15_2 C16_2 1_555 1_555
C22_2 C23_2 1_555 1_555
C26_2 N10_2 1_555 1_555
C28_2 C29_2 1_555 1_555
C33_2 C34_2 1_555 1_555
C35_2 C36_2 1_555 1_555
C2_3 C1_2 1_555 1_555
H2_3 C2_3 1_555 1_555
C3_3 C2_3 1_555 1_555
C4_2 C3_3 1_555 1_555
H3_2 C4_2 1_555 1_555
H4_2 C5_2 1_555 1_555
C6_3 C3_3 1_555 1_555
N2_3 C6_3 1_555 1_555
C7_3 N2_3 1_555 1_555
N3_3 C7_3 1_555 1_555
C8_3 N3_3 1_555 1_555
N4_3 C6_3 1_555 1_555
N5_2 C9_3 1_555 1_555
C9_3 H5_3 1_555 1_555
C10_3 C9_3 1_555 1_555
H6_3 C10_3 1_555 1_555
C11_3 C7_3 1_555 1_555
C12_3 C11_3 1_555 1_555
H7_3 C12_3 1_555 1_555
C13_3 N5_2 1_555 1_555
H8_3 C13_3 1_555 1_555
N6_3 C14_3 1_555 1_555
C14_3 H9 1_555 1_555
C15_3 C14_3 1_555 1_555
H10 C15_3 1_555 1_555
C16_3 C8_3 1_555 1_555
C17_3 C16_3 1_555 1_555
H11_3 C17_3 1_555 1_555
C18_3 N6_3 1_555 1_555
H12_3 C18_3 1_555 1_555
Zn2_3 N6_3 1_555 1_555
I3_3 Zn2_3 1_555 1_555
I4 Zn2_3 1_555 1_555
N7_3 Zn2_3 1_555 1_555
C19_3 N7_3 1_555 1_555
H13_3 C19_3 1_555 1_555
C20_3 C19_3 1_555 1_555
H14_3 C20_3 1_555 1_555
C21_3 C20_3 1_555 1_555
C22_3 C21_3 1_555 1_555
H15_3 C22_3 1_555 1_555
C23_3 N7_3 1_555 1_555
H16_3 C23_3 1_555 1_555
C24_3 C21_3 1_555 1_555
N8_3 C24_3 1_555 1_555
C25_3 N8_3 1_555 1_555
N9_3 C25_3 1_555 1_555
C26_3 N9_3 1_555 1_555
N10_3 C24_3 1_555 1_555
N11 C27_3 1_555 1_555
C27_3 H17_3 1_555 1_555
C28_3 C27_3 1_555 1_555
H18_3 C28_3 1_555 1_555
C29_3 C25_3 1_555 1_555
C30_3 C29_3 1_555 1_555
H19_3 C30_3 1_555 1_555
C31_3 N11 1_555 1_555
H20_3 C31_3 1_555 1_555
N12_3 C32_3 1_555 1_555
C33_3 C32_3 1_555 1_555
H22_3 C33_3 1_555 1_555
C34_3 C26_3 1_555 1_555
C35_3 C34_3 1_555 1_555
H23_3 C35_3 1_555 1_555
C36_3 N12_3 1_555 1_555
H24_3 C36_3 1_555 1_555
Zn4 N11 1_555 1_555
Zn5_2 N5_2 1_555 1_555
C4_2 C5_2 1_555 1_555
C8_3 N4_3 1_555 1_555
C10_3 C11_3 1_555 1_555
C12_3 C13_3 1_555 1_555
C15_3 C16_3 1_555 1_555
C17_3 C18_3 1_555 1_555
C22_3 C23_3 1_555 1_555
C26_3 N10_3 1_555 1_555
C28_3 C29_3 1_555 1_555
C30_3 C31_3 1_555 1_555
C33_3 C34_3 1_555 1_555
C35_3 C36_3 1_555 1_555
C14_4 H9_2 1_555 1_555
C15_4 C14_4 1_555 1_555
H10_2 C15_4 1_555 1_555
C17_4 C16_4 1_555 1_555
H11_4 C17_4 1_555 1_555
C22_4 C21_4 1_555 1_555
H15_4 C22_4 1_555 1_555
H16_4 C23_4 1_555 1_555
C24_4 C21_4 1_555 1_555
N8_4 C24_4 1_555 1_555
C25_4 N8_4 1_555 1_555
N9_4 C25_4 1_555 1_555
C26_4 N9_4 1_555 1_555
N10_4 C24_4 1_555 1_555
C27_4 H17_4 1_555 1_555
C28_4 C27_4 1_555 1_555
H18_4 C28_4 1_555 1_555
C29_4 C25_4 1_555 1_555
N12_4 C32_4 1_555 1_555
C32_4 H21_3 1_555 1_555
C33_4 C32_4 1_555 1_555
H22_4 C33_4 1_555 1_555
C34_4 C26_4 1_555 1_555
C35_4 C34_4 1_555 1_555
H23_4 C35_4 1_555 1_555
C36_4 N12_4 1_555 1_555
H24_4 C36_4 1_555 1_555
Zn5_2 N12_4 1_555 1_555
I5_3 Zn5_2 1_555 1_555
I6_3 Zn5_2 1_555 1_555
C15_4 C16_4 1_555 1_555
C22_4 C23_4 1_555 1_555
C26_4 N10_4 1_555 1_555
C28_4 C29_4 1_555 1_555
C33_4 C34_4 1_555 1_555
C35_4 C36_4 1_555 1_555
Zn4 I1_3 1_555 1_555
I2_3 Zn4 1_555 1_555
N1_3 Zn4 1_555 1_555
C1_3 N1_3 1_555 1_555
H1_3 C1_3 1_555 1_555
H3_3 C4_3 1_555 1_555
C5_3 N1_3 1_555 1_555
H4_3 C5_3 1_555 1_555
C4_3 C5_3 1_555 1_555
I5_4 Zn3_2 1_555 1_555
I6_4 Zn3_2 1_555 1_555
N13_2 Zn3_2 1_555 1_555
H2_4 C2_4 1_555 1_555
C3_4 C2_4 1_555 1_555
C6_4 C3_4 1_555 1_555
N2_4 C6_4 1_555 1_555
C7_4 N2_4 1_555 1_555
N3_4 C7_4 1_555 1_555
C8_4 N3_4 1_555 1_555
N4_4 C6_4 1_555 1_555
N13_2 C9_4 1_555 1_555
C9_4 H5_4 1_555 1_555
C10_4 C9_4 1_555 1_555
H6_4 C10_4 1_555 1_555
C11_4 C7_4 1_555 1_555
C12_4 C11_4 1_555 1_555
H7_4 C12_4 1_555 1_555
C13_4 N13_2 1_555 1_555
H8_4 C13_4 1_555 1_555
C8_4 N4_4 1_555 1_555
C10_4 C11_4 1_555 1_555
C12_4 C13_4 1_555 1_555
Zn1_3 I1_4 1_555 1_555
I2_4 Zn1_3 1_555 1_555
N1_4 Zn1_3 1_555 1_555
N14_3 Zn1_3 1_555 1_555
C18_4 N6_4 1_555 1_555
H12_4 C18_4 1_555 1_555
Zn2_4 N6_4 1_555 1_555
I3_4 Zn2_4 1_555 1_555
I4_2 Zn2_4 1_555 1_555
N7_4 Zn2_4 1_555 1_555
C19_4 N7_4 1_555 1_555
H13_4 C19_4 1_555 1_555
C20_4 C19_4 1_555 1_555
H14_4 C20_4 1_555 1_555
H19_4 C30_4 1_555 1_555
C31_4 N14_3 1_555 1_555
H20_4 C31_4 1_555 1_555
C30_4 C31_4 1_555 1_555
H2_5 C2_5 1_555 1_555
C3_5 C2_5 1_555 1_555
C6_5 C3_5 1_555 1_555
N2_5 C6_5 1_555 1_555
C7_5 N2_5 1_555 1_555
N3_5 C7_5 1_555 1_555
C8_5 N3_5 1_555 1_555
N4_5 C6_5 1_555 1_555
N5_3 C9_5 1_555 1_555
C9_5 H5_5 1_555 1_555
C10_5 C9_5 1_555 1_555
H6_5 C10_5 1_555 1_555
C11_5 C7_5 1_555 1_555
C12_5 C11_5 1_555 1_555
H7_5 C12_5 1_555 1_555
C13_5 N5_3 1_555 1_555
H8_5 C13_5 1_555 1_555
N6_5 C14_5 1_555 1_555
C15_5 C14_5 1_555 1_555
C16_5 C8_5 1_555 1_555
C17_5 C16_5 1_555 1_555
H11_5 C17_5 1_555 1_555
C18_5 N6_5 1_555 1_555
H12_5 C18_5 1_555 1_555
Zn2_5 N6_5 1_555 1_555
I3_5 Zn2_5 1_555 1_555
N7_5 Zn2_5 1_555 1_555
C19_5 N7_5 1_555 1_555
H13_5 C19_5 1_555 1_555
C20_5 C19_5 1_555 1_555
H14_5 C20_5 1_555 1_555
C21_5 C20_5 1_555 1_555
C22_5 C21_5 1_555 1_555
H15_5 C22_5 1_555 1_555
C23_5 N7_5 1_555 1_555
H16_5 C23_5 1_555 1_555
C24_5 C21_5 1_555 1_555
N8_5 C24_5 1_555 1_555
C25_5 N8_5 1_555 1_555
N9_5 C25_5 1_555 1_555
C26_5 N9_5 1_555 1_555
N10_5 C24_5 1_555 1_555
N11_2 C27_5 1_555 1_555
C27_5 H17_5 1_555 1_555
C28_5 C27_5 1_555 1_555
H18_5 C28_5 1_555 1_555
C29_5 C25_5 1_555 1_555
C30_5 C29_5 1_555 1_555
H19_5 C30_5 1_555 1_555
C31_5 N11_2 1_555 1_555
H20_5 C31_5 1_555 1_555
N12_5 C32_5 1_555 1_555
C33_5 C32_5 1_555 1_555
H22_5 C33_5 1_555 1_555
C34_5 C26_5 1_555 1_555
C35_5 C34_5 1_555 1_555
H23_5 C35_5 1_555 1_555
C36_5 N12_5 1_555 1_555
H24_5 C36_5 1_555 1_555
Zn4_2 N11_2 1_555 1_555
Zn5_3 N5_3 1_555 1_555
C8_5 N4_5 1_555 1_555
C10_5 C11_5 1_555 1_555
C12_5 C13_5 1_555 1_555
C15_5 C16_5 1_555 1_555
C17_5 C18_5 1_555 1_555
C22_5 C23_5 1_555 1_555
C26_5 N10_5 1_555 1_555
C28_5 C29_5 1_555 1_555
C30_5 C31_5 1_555 1_555
C33_5 C34_5 1_555 1_555
C35_5 C36_5 1_555 1_555
C15_6 C14_6 1_555 1_555
C17_6 C16_6 1_555 1_555
H11_6 C17_6 1_555 1_555
C22_6 C21_6 1_555 1_555
H15_6 C22_6 1_555 1_555
H16_6 C23_6 1_555 1_555
C24_6 C21_6 1_555 1_555
N8_6 C24_6 1_555 1_555
C25_6 N8_6 1_555 1_555
N9_6 C25_6 1_555 1_555
C26_6 N9_6 1_555 1_555
N10_6 C24_6 1_555 1_555
C27_6 H17_6 1_555 1_555
C28_6 C27_6 1_555 1_555
H18_6 C28_6 1_555 1_555
C29_6 C25_6 1_555 1_555
N12_6 C32_6 1_555 1_555
C32_6 H21_5 1_555 1_555
C33_6 C32_6 1_555 1_555
H22_6 C33_6 1_555 1_555
C34_6 C26_6 1_555 1_555
C35_6 C34_6 1_555 1_555
H23_6 C35_6 1_555 1_555
C36_6 N12_6 1_555 1_555
H24_6 C36_6 1_555 1_555
Zn5_3 N12_6 1_555 1_555
I5_5 Zn5_3 1_555 1_555
I6_5 Zn5_3 1_555 1_555
C15_6 C16_6 1_555 1_555
C22_6 C23_6 1_555 1_555
C26_6 N10_6 1_555 1_555
C28_6 C29_6 1_555 1_555
C33_6 C34_6 1_555 1_555
C35_6 C36_6 1_555 1_555
C18_6 N6_6 1_555 1_555
H12_6 C18_6 1_555 1_555
Zn2_6 N6_6 1_555 1_555
I3_6 Zn2_6 1_555 1_555
N7_6 Zn2_6 1_555 1_555
C19_6 N7_6 1_555 1_555
H13_6 C19_6 1_555 1_555
C20_6 C19_6 1_555 1_555
H14_6 C20_6 1_555 1_555
H19_6 C30_6 1_555 1_555
C31_6 N11_3 1_555 1_555
H20_6 C31_6 1_555 1_555
Zn4_3 N11_3 1_555 1_555
C30_6 C31_6 1_555 1_555
Zn4_3 I1_5 1_555 1_555
I2_5 Zn4_3 1_555 1_555
N1_5 Zn4_3 1_555 1_555
I5_6 Zn3_3 1_555 1_555
I6_6 Zn3_3 1_555 1_555
N13_3 Zn3_3 1_555 1_555
Zn4_2 I1_6 1_555 1_555
I2_6 Zn4_2 1_555 1_555
N1_6 Zn4_2 1_555 1_555
C1_4 N1_6 1_555 1_555
H1_6 C1_4 1_555 1_555
C2_6 C1_4 1_555 1_555
H2_6 C2_6 1_555 1_555
C3_6 C2_6 1_555 1_555
C4_4 C3_6 1_555 1_555
H3_4 C4_4 1_555 1_555
C5_4 N1_6 1_555 1_555
H4_4 C5_4 1_555 1_555
C6_6 C3_6 1_555 1_555
N2_6 C6_6 1_555 1_555
C7_6 N2_6 1_555 1_555
N3_6 C7_6 1_555 1_555
C8_6 N3_6 1_555 1_555
N4_6 C6_6 1_555 1_555
N13_3 C9_6 1_555 1_555
C9_6 H5_6 1_555 1_555
C10_6 C9_6 1_555 1_555
H6_6 C10_6 1_555 1_555
C11_6 C7_6 1_555 1_555
C12_6 C11_6 1_555 1_555
H7_6 C12_6 1_555 1_555
C13_6 N13_3 1_555 1_555
H8_6 C13_6 1_555 1_555
C4_4 C5_4 1_555 1_555
C8_6 N4_6 1_555 1_555
C10_6 C11_6 1_555 1_555
C12_6 C13_6 1_555 1_555
H3_5 C4_5 1_555 1_555
H4_5 C5_5 1_555 1_555
C4_5 C5_5 1_555 1_555
C18_7 N6_7 1_555 1_555
H12_7 C18_7 1_555 1_555
Zn2_7 N6_7 1_555 1_555
I3_7 Zn2_7 1_555 1_555
I4_4 Zn2_7 1_555 1_555
N7_7 Zn2_7 1_555 1_555
C19_7 N7_7 1_555 1_555
H13_7 C19_7 1_555 1_555
C20_7 C19_7 1_555 1_555
H14_7 C20_7 1_555 1_555
H19_7 C30_7 1_555 1_555
C31_7 N11_4 1_555 1_555
H20_7 C31_7 1_555 1_555
Zn4_4 N11_4 1_555 1_555
C30_7 C31_7 1_555 1_555
Zn4_4 I1_7 1_555 1_555
I2_7 Zn4_4 1_555 1_555
N1_7 Zn4_4 1_555 1_555
Zn1_4 I1_8 1_555 1_555
I2_8 Zn1_4 1_555 1_555
N1_8 Zn1_4 1_555 1_555
C1_6 N1_8 1_555 1_555
H1_8 C1_6 1_555 1_555
H3_6 C4_6 1_555 1_555
C5_6 N1_8 1_555 1_555
H4_6 C5_6 1_555 1_555
N14_4 Zn1_4 1_555 1_555
C4_6 C5_6 1_555 1_555
C2_7 C1_7 1_555 1_555
H2_7 C2_7 1_555 1_555
C3_7 C2_7 1_555 1_555
C4_7 C3_7 1_555 1_555
H3_7 C4_7 1_555 1_555
H4_7 C5_7 1_555 1_555
C6_7 C3_7 1_555 1_555
N2_7 C6_7 1_555 1_555
C7_7 N2_7 1_555 1_555
N3_7 C7_7 1_555 1_555
C8_7 N3_7 1_555 1_555
N4_7 C6_7 1_555 1_555
N5_4 C9_7 1_555 1_555
C9_7 H5_7 1_555 1_555
C10_7 C9_7 1_555 1_555
H6_7 C10_7 1_555 1_555
C11_7 C7_7 1_555 1_555
C12_7 C11_7 1_555 1_555
H7_7 C12_7 1_555 1_555
C13_7 N5_4 1_555 1_555
H8_7 C13_7 1_555 1_555
N6_8 C14_7 1_555 1_555
C14_7 H9_5 1_555 1_555
C15_7 C14_7 1_555 1_555
H10_5 C15_7 1_555 1_555
C16_7 C8_7 1_555 1_555
C17_7 C16_7 1_555 1_555
H11_7 C17_7 1_555 1_555
C18_8 N6_8 1_555 1_555
H12_8 C18_8 1_555 1_555
Zn2_8 N6_8 1_555 1_555
I3_8 Zn2_8 1_555 1_555
I4_6 Zn2_8 1_555 1_555
N7_8 Zn2_8 1_555 1_555
C19_8 N7_8 1_555 1_555
H13_8 C19_8 1_555 1_555
C20_8 C19_8 1_555 1_555
H14_8 C20_8 1_555 1_555
C21_7 C20_8 1_555 1_555
C22_7 C21_7 1_555 1_555
H15_7 C22_7 1_555 1_555
C23_7 N7_8 1_555 1_555
H16_7 C23_7 1_555 1_555
C24_7 C21_7 1_555 1_555
N8_7 C24_7 1_555 1_555
C25_7 N8_7 1_555 1_555
N9_7 C25_7 1_555 1_555
C26_7 N9_7 1_555 1_555
N10_7 C24_7 1_555 1_555
N14_4 C27_7 1_555 1_555
C27_7 H17_7 1_555 1_555
C28_7 C27_7 1_555 1_555
H18_7 C28_7 1_555 1_555
C29_7 C25_7 1_555 1_555
C30_8 C29_7 1_555 1_555
H19_8 C30_8 1_555 1_555
C31_8 N14_4 1_555 1_555
H20_8 C31_8 1_555 1_555
N12_7 C32_7 1_555 1_555
C33_7 C32_7 1_555 1_555
H22_7 C33_7 1_555 1_555
C34_7 C26_7 1_555 1_555
C35_7 C34_7 1_555 1_555
H23_7 C35_7 1_555 1_555
C36_7 N12_7 1_555 1_555
H24_7 C36_7 1_555 1_555
Zn5_4 N5_4 1_555 1_555
C4_7 C5_7 1_555 1_555
C8_7 N4_7 1_555 1_555
C10_7 C11_7 1_555 1_555
C12_7 C13_7 1_555 1_555
C15_7 C16_7 1_555 1_555
C17_7 C18_8 1_555 1_555
C22_7 C23_7 1_555 1_555
C26_7 N10_7 1_555 1_555
C28_7 C29_7 1_555 1_555
C30_8 C31_8 1_555 1_555
C33_7 C34_7 1_555 1_555
C35_7 C36_7 1_555 1_555
C14_8 H9_6 1_555 1_555
C15_8 C14_8 1_555 1_555
H10_6 C15_8 1_555 1_555
C17_8 C16_8 1_555 1_555
H11_8 C17_8 1_555 1_555
C22_8 C21_8 1_555 1_555
H15_8 C22_8 1_555 1_555
H16_8 C23_8 1_555 1_555
C24_8 C21_8 1_555 1_555
N8_8 C24_8 1_555 1_555
C25_8 N8_8 1_555 1_555
N9_8 C25_8 1_555 1_555
C26_8 N9_8 1_555 1_555
N10_8 C24_8 1_555 1_555
C27_8 H17_8 1_555 1_555
C28_8 C27_8 1_555 1_555
H18_8 C28_8 1_555 1_555
C29_8 C25_8 1_555 1_555
N12_8 C32_8 1_555 1_555
C32_8 H21_7 1_555 1_555
C33_8 C32_8 1_555 1_555
H22_8 C33_8 1_555 1_555
C34_8 C26_8 1_555 1_555
C35_8 C34_8 1_555 1_555
H23_8 C35_8 1_555 1_555
C36_8 N12_8 1_555 1_555
H24_8 C36_8 1_555 1_555
Zn5_4 N12_8 1_555 1_555
I5_7 Zn5_4 1_555 1_555
I6_7 Zn5_4 1_555 1_555
C15_8 C16_8 1_555 1_555
C22_8 C23_8 1_555 1_555
C26_8 N10_8 1_555 1_555
C28_8 C29_8 1_555 1_555
C33_8 C34_8 1_555 1_555
C35_8 C36_8 1_555 1_555
H3_8 C4_8 1_555 1_555
H4_8 C5_8 1_555 1_555
C4_8 C5_8 1_555 1_555
I5_8 Zn3_4 1_555 1_555
I6_8 Zn3_4 1_555 1_555
N13_4 Zn3_4 1_555 1_555
H2_8 C2_8 1_555 1_555
C3_8 C2_8 1_555 1_555
C6_8 C3_8 1_555 1_555
N2_8 C6_8 1_555 1_555
C7_8 N2_8 1_555 1_555
N3_8 C7_8 1_555 1_555
C8_8 N3_8 1_555 1_555
N4_8 C6_8 1_555 1_555
N13_4 C9_8 1_555 1_555
C9_8 H5_8 1_555 1_555
C10_8 C9_8 1_555 1_555
H6_8 C10_8 1_555 1_555
C11_8 C7_8 1_555 1_555
C12_8 C11_8 1_555 1_555
H7_8 C12_8 1_555 1_555
C13_8 N13_4 1_555 1_555
H8_8 C13_8 1_555 1_555
C8_8 N4_8 1_555 1_555
C10_8 C11_8 1_555 1_555
C12_8 C13_8 1_555 1_555

#END
