
###############################################################################
#
# This file contains modified crystal structure data generated from the
# MOF subset of the Cambridge Structural Database (CSD) v543 
# hosted by the Cambridge Crystallographic Data Centre (CCDC).
#
# This work is licensed under the Creative Commons
# Attribution-NonCommercial-ShareAlike 4.0 International License.
# To view a copy of this license, visit
# http://creativecommons.org/licenses/by-nc-sa/4.0/
# or send a letter to
# Creative Commons, PO Box 1866, Mountain View, CA 94042, USA.
#
# CIF created using the CSD Python API on 29 September 2022
# The structure has been converted into the P1 space group
# The structure has a 3D framework
# The original CSD entry REXFUX is in the monoclinic crystal system
# The framework has been calculated to contain at least 10.0% void space
# The void calculation uses a probe of radius 1.32A, grid spacing 0.4
#
###############################################################################

data_REXFUX
_chemical_formula_moiety         '(C288 H192 I48 N92 Zn24)n'
_symmetry_cell_setting           triclinic
_symmetry_space_group_name_H-M   'P 1'
_symmetry_Int_Tables_number      1
_space_group_name_Hall           'P 1'
loop_
_symmetry_equiv_pos_site_id
_symmetry_equiv_pos_as_xyz
1 x,y,z
_cell_length_a                   35.060(4)
_cell_length_b                   14.7672(16)
_cell_length_c                   30.527(3)
_cell_angle_alpha                90
_cell_angle_beta                 101.0880(10)
_cell_angle_gamma                90
_cell_volume                     15510
loop_
_atom_site_label
_atom_site_type_symbol
_atom_site_fract_x
_atom_site_fract_y
_atom_site_fract_z
N6 N 0.06377(14) 0.0205(3) 0.05492(16)
C14 C 0.0898(2) 0.0002(5) 0.0302(2)
H9 H 0.1117 0.0388 0.0314
Zn2 Zn 0.07576(2) 0.12847(4) 0.09988(2)
I3 I 0.017019(14) 0.15305(3) 0.135706(15)
I4 I 0.111631(15) 0.24252(3) 0.061038(16)
N7 N 0.11495(13) 0.0607(3) 0.14853(16)
C22 C 0.17318(16) 0.0496(3) 0.20364(19)
H15 H 0.1966 0.0768 0.2187
C23 C 0.14845(17) 0.0949(4) 0.1697(2)
H16 H 0.1559 0.1533 0.1612
N12 N 0.33335(13) 0.0340(3) 0.39077(16)
C32 C 0.31237(17) 0.0750(4) 0.3546(2)
H21 H 0.3185 0.1357 0.3485
C33 C 0.28279(17) 0.0332(4) 0.3266(2)
H22 H 0.2687 0.0644 0.3014
Zn5 Zn 0.37451(2) 0.10386(5) 0.43561(3)
Zn1 Zn 0.67258(2) 0.14681(4) 0.77221(2)
I1 I 0.626643(17) 0.16377(3) 0.696951(15)
I2 I 0.735349(15) 0.23427(3) 0.795707(19)
N1 N 0.64005(15) 0.1666(3) 0.82045(16)
C1 C 0.60471(19) 0.1296(4) 0.8149(2)
H1 H 0.5959 0.0946 0.7888
C2 C 0.5806(2) 0.1395(4) 0.8448(2)
H2 H 0.5561 0.1100 0.8399
C3 C 0.59243(16) 0.1941(4) 0.88305(18)
C4 C 0.62903(18) 0.2333(4) 0.8881(2)
H3 H 0.6382 0.2709 0.9132
C5 C 0.65237(18) 0.2182(4) 0.8570(2)
H4 H 0.6775 0.2447 0.8614
C6 C 0.56733(16) 0.2065(4) 0.91546(18)
N2 N 0.53920(13) 0.1472(3) 0.91560(15)
C7 C 0.51671(15) 0.1608(3) 0.94624(18)
N3 N 0.52152(13) 0.2293(3) 0.97530(14)
C8 C 0.55004(16) 0.2870(3) 0.97130(19)
N4 N 0.57404(13) 0.2787(3) 0.94300(15)
C9 C 0.43536(18) 0.0290(4) 0.9796(2)
C10 C 0.46664(17) 0.0867(4) 0.9818(2)
C11 C 0.48397(16) 0.0989(3) 0.94567(19)
C12 C 0.4685(2) 0.0525(5) 0.9074(2)
H7 H 0.4789 0.0606 0.8811
H10 H 0.6056 0.4113 0.9855
N13 N 0.68435(15) 0.0084(3) 0.77916(17)
N5 N 0.42143(14) 0.0169(3) 0.44196(18)
C13 C 0.4378(2) 0.0060(6) 0.4074(3)
H8 H 0.4281 0.0398 0.3811
H17 H 0.7332 0.0147 0.8232
I5 I 0.392174(19) 0.24286(3) 0.39517(3)
I6 I 0.349861(16) 0.10236(6) 0.50814(2)
C15 C 0.0863(2) 0.9245(5) 0.0026(2)
C16 C 0.05445(16) 0.8688(4) 0.00027(18)
C17 C 0.03332(16) 0.9674(4) 0.0530(2)
H11 H 0.0145 0.9821 0.0706
C18 C 0.02768(17) 0.8902(4) 0.02603(19)
H12 H 0.0055 0.8529 0.0255
C19 C 0.10465(18) 0.9786(4) 0.1603(2)
H13 H 0.0805 0.9541 0.1456
C20 C 0.12789(18) 0.9277(4) 0.1933(2)
H14 H 0.1200 0.8691 0.2008
C21 C 0.16258(15) 0.9637(3) 0.21477(18)
C24 C 0.18828(15) 0.9105(3) 0.24972(19)
N8 N 0.17813(13) 0.8224(3) 0.25432(15)
C25 C 0.20322(15) 0.7764(3) 0.28472(17)
N9 N 0.23351(13) 0.8105(3) 0.31240(15)
C26 C 0.24027(15) 0.9003(3) 0.30588(19)
N10 N 0.21948(13) 0.9504(3) 0.27348(15)
N11 N 0.18435(15) 0.4916(3) 0.27916(17)
C27 C 0.21519(18) 0.5256(4) 0.3060(2)
H17_2 H 0.2332 0.4853 0.3232
C28 C 0.22211(16) 0.6185(4) 0.3098(2)
H18 H 0.2445 0.6408 0.3294
C29 C 0.19611(15) 0.6778(3) 0.28500(18)
C30 C 0.16316(18) 0.6417(4) 0.2590(2)
H19 H 0.1437 0.6805 0.2431
C31 C 0.15847(19) 0.5494(4) 0.2563(2)
H20 H 0.1360 0.5256 0.2374
C34 C 0.27342(15) 0.9439(3) 0.33535(18)
C35 C 0.29520(18) 0.9013(4) 0.3718(2)
H23 H 0.2900 0.8404 0.3787
C36 C 0.3250(2) 0.9495(4) 0.3981(2)
H24 H 0.3402 0.9196 0.4230
Zn4 Zn 0.17258(2) 0.35319(4) 0.27221(2)
Zn1_2 Zn 0.17258(2) 0.64681(4) 0.77221(2)
I1_2 I 0.126643(17) 0.66377(3) 0.696951(15)
I2_2 I 0.235349(15) 0.73427(3) 0.795707(19)
N1_2 N 0.14005(15) 0.6666(3) 0.82045(16)
C1_2 C 0.10471(19) 0.6296(4) 0.8149(2)
H1_2 H 0.0959 0.5946 0.7888
C2_2 C 0.0806(2) 0.6395(4) 0.8448(2)
H2_2 H 0.0561 0.6100 0.8399
C3_2 C 0.09243(16) 0.6941(4) 0.88305(18)
C4_2 C 0.12903(18) 0.7333(4) 0.8881(2)
H3_2 H 0.1382 0.7709 0.9132
C5_2 C 0.15237(18) 0.7182(4) 0.8570(2)
H4_2 H 0.1775 0.7447 0.8614
C6_2 C 0.06733(16) 0.7065(4) 0.91546(18)
N2_2 N 0.03920(13) 0.6472(3) 0.91560(15)
C7_2 C 0.01671(15) 0.6608(3) 0.94624(18)
N3_2 N 0.02152(13) 0.7293(3) 0.97530(14)
C8_2 C 0.05004(16) 0.7870(3) 0.97130(19)
N4_2 N 0.07404(13) 0.7787(3) 0.94300(15)
H10_2 H 0.1056 0.9113 0.9855
N13_2 N 0.18435(15) 0.5084(3) 0.77916(17)
I1_3 I 0.126643(17) 0.33623(3) 0.196951(15)
I2_3 I 0.235349(15) 0.26573(3) 0.295707(19)
N1_3 N 0.14005(15) 0.3334(3) 0.32045(16)
C1_3 C 0.10471(19) 0.3704(4) 0.3149(2)
H1_3 H 0.0959 0.4054 0.2888
C2_3 C 0.0806(2) 0.3605(4) 0.3448(2)
H2_3 H 0.0561 0.3900 0.3399
C3_3 C 0.09243(16) 0.3059(4) 0.38305(18)
C4_3 C 0.12903(18) 0.2667(4) 0.3881(2)
H3_3 H 0.1382 0.2291 0.4132
C5_3 C 0.15237(18) 0.2818(4) 0.3570(2)
H4_3 H 0.1775 0.2553 0.3614
C6_3 C 0.06733(16) 0.2935(4) 0.41546(18)
N2_3 N 0.03920(13) 0.3528(3) 0.41560(15)
C7_3 C 0.01671(15) 0.3392(3) 0.44624(18)
N3_3 N 0.02152(13) 0.2707(3) 0.47530(14)
C8_3 C 0.05004(16) 0.2130(3) 0.47130(19)
N4_3 N 0.07404(13) 0.2213(3) 0.44300(15)
C15_2 C 0.0863(2) 0.0755(5) 0.5026(2)
H10_3 H 0.1056 0.0887 0.4855
C16_2 C 0.05445(16) 0.1312(4) 0.50027(18)
C17_2 C 0.03332(16) 0.0326(4) 0.5530(2)
H11_2 H 0.0145 0.0179 0.5706
C18_2 C 0.02768(17) 0.1098(4) 0.52603(19)
H12_2 H 0.0055 0.1471 0.5255
C19_2 C 0.10465(18) 0.0214(4) 0.6603(2)
H13_2 H 0.0805 0.0459 0.6456
C20_2 C 0.12789(18) 0.0723(4) 0.6933(2)
H14_2 H 0.1200 0.1309 0.7008
C21_2 C 0.16258(15) 0.0363(3) 0.71477(18)
C24_2 C 0.18828(15) 0.0895(3) 0.74972(19)
N8_2 N 0.17813(13) 0.1776(3) 0.75432(15)
C25_2 C 0.20322(15) 0.2236(3) 0.78472(17)
N9_2 N 0.23351(13) 0.1895(3) 0.81240(15)
C26_2 C 0.24027(15) 0.0997(3) 0.80588(19)
N10_2 N 0.21948(13) 0.0496(3) 0.77348(15)
C27_2 C 0.21519(18) 0.4744(4) 0.8060(2)
H17_3 H 0.2332 0.5147 0.8232
C28_2 C 0.22211(16) 0.3815(4) 0.8098(2)
H18_2 H 0.2445 0.3592 0.8294
C29_2 C 0.19611(15) 0.3222(3) 0.78500(18)
C30_2 C 0.16316(18) 0.3583(4) 0.7590(2)
H19_2 H 0.1437 0.3195 0.7431
C31_2 C 0.15847(19) 0.4506(4) 0.7563(2)
H20_2 H 0.1360 0.4744 0.7374
C34_2 C 0.27342(15) 0.0561(3) 0.83535(18)
C35_2 C 0.29520(18) 0.0987(4) 0.8718(2)
H23_2 H 0.2900 0.1596 0.8787
C36_2 C 0.3250(2) 0.0505(4) 0.8981(2)
H24_2 H 0.3402 0.0804 0.9230
H5 H 0.9236 0.5217 0.0049
H6 H 0.9763 0.6185 0.0087
I6_2 I 0.849861(16) 0.39764(6) 0.00814(2)
N5_2 N 0.92143(14) 0.4831(3) 0.94196(18)
C9_2 C 0.93536(18) 0.5290(4) 0.9796(2)
C10_2 C 0.96664(17) 0.5867(4) 0.9818(2)
C11_2 C 0.98397(16) 0.5989(3) 0.94567(19)
C12_2 C 0.9685(2) 0.5525(5) 0.9074(2)
H7_2 H 0.9789 0.5606 0.8811
C13_2 C 0.9378(2) 0.4940(6) 0.9074(3)
H8_2 H 0.9281 0.4602 0.8811
I5_2 I 0.892174(19) 0.25714(3) 0.89517(3)
Zn3 Zn 0.87451(2) 0.39614(5) 0.93561(3)
N14 N 0.83335(13) 0.4660(3) 0.89077(16)
N11_2 N 0.68435(15) 0.9916(3) 0.27916(17)
H17_4 H 0.7332 0.9853 0.3232
I6_3 I 0.349861(16) 0.89764(6) 0.00814(2)
Zn4_2 Zn 0.67258(2) 0.85319(4) 0.27221(2)
I1_4 I 0.626643(17) 0.83623(3) 0.196951(15)
I2_4 I 0.735349(15) 0.76573(3) 0.295707(19)
N1_4 N 0.64005(15) 0.8334(3) 0.32045(16)
C1_4 C 0.60471(19) 0.8704(4) 0.3149(2)
H1_4 H 0.5959 0.9054 0.2888
C2_4 C 0.5806(2) 0.8605(4) 0.3448(2)
H2_4 H 0.5561 0.8900 0.3399
C3_4 C 0.59243(16) 0.8059(4) 0.38305(18)
C4_4 C 0.62903(18) 0.7667(4) 0.3881(2)
H3_4 H 0.6382 0.7291 0.4132
C5_4 C 0.65237(18) 0.7818(4) 0.3570(2)
H4_4 H 0.6775 0.7553 0.3614
C6_4 C 0.56733(16) 0.7935(4) 0.41546(18)
N2_4 N 0.53920(13) 0.8528(3) 0.41560(15)
C7_4 C 0.51671(15) 0.8392(3) 0.44624(18)
N3_4 N 0.52152(13) 0.7707(3) 0.47530(14)
C8_4 C 0.55004(16) 0.7130(3) 0.47130(19)
N4_4 N 0.57404(13) 0.7213(3) 0.44300(15)
C9_3 C 0.43536(18) 0.9710(4) 0.4796(2)
H5_2 H 0.4236 0.9783 0.5049
C10_3 C 0.46664(17) 0.9133(4) 0.4818(2)
H6_2 H 0.4763 0.8815 0.5087
C11_3 C 0.48397(16) 0.9011(3) 0.44567(19)
C12_3 C 0.4685(2) 0.9475(5) 0.4074(2)
H7_3 H 0.4789 0.9394 0.3811
N6_2 N 0.56377(14) 0.4795(3) 0.55492(16)
C14_2 C 0.5898(2) 0.4998(5) 0.5302(2)
H9_2 H 0.6117 0.4612 0.5314
C15_3 C 0.5863(2) 0.5755(5) 0.5026(2)
H10_4 H 0.6056 0.5887 0.4855
C16_3 C 0.55445(16) 0.6312(4) 0.50027(18)
C17_3 C 0.53332(16) 0.5326(4) 0.5530(2)
H11_3 H 0.5145 0.5179 0.5706
C18_3 C 0.52768(17) 0.6098(4) 0.52603(19)
H12_3 H 0.5055 0.6471 0.5255
Zn2_2 Zn 0.57576(2) 0.37153(4) 0.59988(2)
I3_2 I 0.517019(14) 0.34695(3) 0.635706(15)
I4_2 I 0.611631(15) 0.25748(3) 0.561038(16)
N7_2 N 0.61495(13) 0.4393(3) 0.64853(16)
C19_3 C 0.60465(18) 0.5214(4) 0.6603(2)
H13_3 H 0.5805 0.5459 0.6456
C20_3 C 0.62789(18) 0.5723(4) 0.6933(2)
H14_3 H 0.6200 0.6309 0.7008
C21_3 C 0.66258(15) 0.5363(3) 0.71477(18)
C22_2 C 0.67318(16) 0.4504(3) 0.70364(19)
H15_2 H 0.6966 0.4232 0.7187
C23_2 C 0.64845(17) 0.4051(4) 0.6697(2)
H16_2 H 0.6559 0.3467 0.6612
C24_3 C 0.68828(15) 0.5895(3) 0.74972(19)
N8_3 N 0.67813(13) 0.6776(3) 0.75432(15)
C25_3 C 0.70322(15) 0.7236(3) 0.78472(17)
N9_3 N 0.73351(13) 0.6895(3) 0.81240(15)
C26_3 C 0.74027(15) 0.5997(3) 0.80588(19)
N10_3 N 0.71948(13) 0.5496(3) 0.77348(15)
C27_3 C 0.71519(18) 0.9744(4) 0.8060(2)
C28_3 C 0.72211(16) 0.8815(4) 0.8098(2)
H18_3 H 0.7445 0.8592 0.8294
C29_3 C 0.69611(15) 0.8222(3) 0.78500(18)
C30_3 C 0.66316(18) 0.8583(4) 0.7590(2)
H19_3 H 0.6437 0.8195 0.7431
C31_3 C 0.65847(19) 0.9506(4) 0.7563(2)
H20_3 H 0.6360 0.9744 0.7374
C32_2 C 0.81237(17) 0.4250(4) 0.8546(2)
H21_2 H 0.8185 0.3643 0.8485
C33_2 C 0.78279(17) 0.4668(4) 0.8266(2)
H22_2 H 0.7687 0.4356 0.8014
C34_3 C 0.77342(15) 0.5561(3) 0.83535(18)
C35_3 C 0.79520(18) 0.5987(4) 0.8718(2)
H23_3 H 0.7900 0.6596 0.8787
C36_3 C 0.8250(2) 0.5505(4) 0.8981(2)
H24_3 H 0.8402 0.5804 0.9230
N5_3 N 0.07857(14) 0.4831(3) 0.55804(18)
C9_4 C 0.06464(18) 0.5290(4) 0.5204(2)
H5_3 H 0.0764 0.5217 0.4951
C10_4 C 0.03336(17) 0.5867(4) 0.5182(2)
H6_3 H 0.0237 0.6185 0.4913
C11_4 C 0.01603(16) 0.5989(3) 0.55433(19)
C12_4 C 0.0315(2) 0.5525(5) 0.5926(2)
H7_4 H 0.0211 0.5606 0.6189
C13_3 C 0.0622(2) 0.4940(6) 0.5926(3)
H8_3 H 0.0719 0.4602 0.6189
I5_3 I 0.107826(19) 0.25714(3) 0.60483(3)
Zn3_2 Zn 0.12549(2) 0.39614(5) 0.56439(3)
I6_4 I 0.150139(16) 0.39764(6) 0.49186(2)
N14_2 N 0.16665(13) 0.4660(3) 0.60923(16)
H5_4 H 0.5764 0.9783 0.9951
H6_4 H 0.5237 0.8815 0.9913
N6_3 N 0.43623(14) 0.4795(3) 0.94508(16)
C14_3 C 0.4102(2) 0.4998(5) 0.9698(2)
H9_3 H 0.3883 0.4612 0.9686
C15_4 C 0.4137(2) 0.5755(5) 0.9974(2)
C16_4 C 0.44555(16) 0.6312(4) 0.99973(18)
C17_4 C 0.46668(16) 0.5326(4) 0.9470(2)
H11_4 H 0.4855 0.5179 0.9294
C18_4 C 0.47232(17) 0.6098(4) 0.97397(19)
H12_4 H 0.4945 0.6471 0.9745
Zn2_3 Zn 0.42424(2) 0.37153(4) 0.90012(2)
I3_3 I 0.482981(14) 0.34695(3) 0.864294(15)
I4_3 I 0.388369(15) 0.25748(3) 0.938962(16)
N7_3 N 0.38505(13) 0.4393(3) 0.85147(16)
C19_4 C 0.39535(18) 0.5214(4) 0.8397(2)
H13_4 H 0.4195 0.5459 0.8544
C20_4 C 0.37211(18) 0.5723(4) 0.8067(2)
H14_4 H 0.3800 0.6309 0.7992
C21_4 C 0.33742(15) 0.5363(3) 0.78523(18)
C22_3 C 0.32682(16) 0.4504(3) 0.79636(19)
H15_3 H 0.3034 0.4232 0.7813
C23_3 C 0.35155(17) 0.4051(4) 0.8303(2)
H16_3 H 0.3441 0.3467 0.8388
C24_4 C 0.31172(15) 0.5895(3) 0.75028(19)
N8_4 N 0.32187(13) 0.6776(3) 0.74568(15)
C25_4 C 0.29678(15) 0.7236(3) 0.71528(17)
N9_4 N 0.26649(13) 0.6895(3) 0.68760(15)
C26_4 C 0.25973(15) 0.5997(3) 0.69412(19)
N10_4 N 0.28052(13) 0.5496(3) 0.72652(15)
C27_4 C 0.28481(18) 0.9744(4) 0.6940(2)
C28_4 C 0.27789(16) 0.8815(4) 0.6902(2)
H18_4 H 0.2555 0.8592 0.6706
C29_4 C 0.30389(15) 0.8222(3) 0.71500(18)
C30_4 C 0.33684(18) 0.8583(4) 0.7410(2)
H19_4 H 0.3563 0.8195 0.7569
C31_4 C 0.34153(19) 0.9506(4) 0.7437(2)
H20_4 H 0.3640 0.9744 0.7626
C32_3 C 0.18763(17) 0.4250(4) 0.6454(2)
H21_3 H 0.1815 0.3643 0.6515
C33_3 C 0.21721(17) 0.4668(4) 0.6734(2)
H22_3 H 0.2313 0.4356 0.6986
C34_4 C 0.22658(15) 0.5561(3) 0.66465(18)
C35_4 C 0.20480(18) 0.5987(4) 0.6282(2)
H23_4 H 0.2100 0.6596 0.6213
C36_4 C 0.1750(2) 0.5505(4) 0.6019(2)
H24_4 H 0.1598 0.5804 0.5770
N6_4 N 0.93623(14) 0.0205(3) 0.44508(16)
C14_4 C 0.9102(2) 0.0002(5) 0.4698(2)
H9_4 H 0.8883 0.0388 0.4686
Zn2_4 Zn 0.92424(2) 0.12847(4) 0.40012(2)
I3_4 I 0.982981(14) 0.15305(3) 0.364294(15)
I4_4 I 0.888369(15) 0.24252(3) 0.438962(16)
N7_4 N 0.88505(13) 0.0607(3) 0.35147(16)
C22_4 C 0.82682(16) 0.0496(3) 0.29636(19)
H15_4 H 0.8034 0.0768 0.2813
C23_4 C 0.85155(17) 0.0949(4) 0.3303(2)
H16_4 H 0.8441 0.1533 0.3388
N12_2 N 0.66665(13) 0.0340(3) 0.10923(16)
C32_4 C 0.68763(17) 0.0750(4) 0.1454(2)
H21_4 H 0.6815 0.1357 0.1515
C33_4 C 0.71721(17) 0.0332(4) 0.1734(2)
H22_4 H 0.7313 0.0644 0.1986
Zn5_2 Zn 0.62549(2) 0.10386(5) 0.06439(3)
N5_4 N 0.57857(14) 0.0169(3) 0.05804(18)
C13_4 C 0.5622(2) 0.0060(6) 0.0926(3)
H8_4 H 0.5719 0.0398 0.1189
I5_4 I 0.607826(19) 0.24286(3) 0.10483(3)
Zn1_3 Zn 0.82742(2) 0.64681(4) 0.72779(2)
I1_5 I 0.873357(17) 0.66377(3) 0.803049(15)
I2_5 I 0.764651(15) 0.73427(3) 0.704293(19)
N1_5 N 0.85995(15) 0.6666(3) 0.67955(16)
C1_5 C 0.89529(19) 0.6296(4) 0.6851(2)
H1_5 H 0.9041 0.5946 0.7112
C2_5 C 0.9194(2) 0.6395(4) 0.6552(2)
H2_5 H 0.9439 0.6100 0.6601
C3_5 C 0.90757(16) 0.6941(4) 0.61695(18)
C4_5 C 0.87097(18) 0.7333(4) 0.6119(2)
H3_5 H 0.8618 0.7709 0.5868
C5_5 C 0.84763(18) 0.7182(4) 0.6430(2)
H4_5 H 0.8225 0.7447 0.6386
C6_5 C 0.93267(16) 0.7065(4) 0.58454(18)
N2_5 N 0.96080(13) 0.6472(3) 0.58440(15)
C7_5 C 0.98329(15) 0.6608(3) 0.55376(18)
N3_5 N 0.97848(13) 0.7293(3) 0.52470(14)
C8_5 C 0.94996(16) 0.7870(3) 0.52870(19)
N4_5 N 0.92596(13) 0.7787(3) 0.55700(15)
C15_5 C 0.9137(2) 0.9245(5) 0.4974(2)
H10_5 H 0.8944 0.9113 0.5145
C16_5 C 0.94555(16) 0.8688(4) 0.49973(18)
C17_5 C 0.96668(16) 0.9674(4) 0.4470(2)
H11_5 H 0.9855 0.9821 0.4294
C18_5 C 0.97232(17) 0.8902(4) 0.47397(19)
H12_5 H 0.9945 0.8529 0.4745
C19_5 C 0.89535(18) 0.9786(4) 0.3397(2)
H13_5 H 0.9195 0.9541 0.3544
C20_5 C 0.87211(18) 0.9277(4) 0.3067(2)
H14_5 H 0.8800 0.8691 0.2992
C21_5 C 0.83742(15) 0.9637(3) 0.28523(18)
C24_5 C 0.81172(15) 0.9105(3) 0.25028(19)
N8_5 N 0.82187(13) 0.8224(3) 0.24568(15)
C25_5 C 0.79678(15) 0.7764(3) 0.21528(17)
N9_5 N 0.76649(13) 0.8105(3) 0.18760(15)
C26_5 C 0.75973(15) 0.9003(3) 0.19412(19)
N10_5 N 0.78052(13) 0.9504(3) 0.22652(15)
N11_3 N 0.81565(15) 0.4916(3) 0.22084(17)
C27_5 C 0.78481(18) 0.5256(4) 0.1940(2)
H17_5 H 0.7668 0.4853 0.1768
C28_5 C 0.77789(16) 0.6185(4) 0.1902(2)
H18_5 H 0.7555 0.6408 0.1706
C29_5 C 0.80389(15) 0.6778(3) 0.21500(18)
C30_5 C 0.83684(18) 0.6417(4) 0.2410(2)
H19_5 H 0.8563 0.6805 0.2569
C31_5 C 0.84153(19) 0.5494(4) 0.2437(2)
H20_5 H 0.8640 0.5256 0.2626
C34_5 C 0.72658(15) 0.9439(3) 0.16465(18)
C35_5 C 0.70480(18) 0.9013(4) 0.1282(2)
H23_5 H 0.7100 0.8404 0.1213
C36_5 C 0.6750(2) 0.9495(4) 0.1019(2)
H24_5 H 0.6598 0.9196 0.0770
Zn4_3 Zn 0.82742(2) 0.35319(4) 0.22779(2)
N13_3 N 0.81565(15) 0.5084(3) 0.72084(17)
I1_6 I 0.873357(17) 0.33623(3) 0.303049(15)
I2_6 I 0.764651(15) 0.26573(3) 0.204293(19)
N1_6 N 0.85995(15) 0.3334(3) 0.17955(16)
C1_6 C 0.89529(19) 0.3704(4) 0.1851(2)
H1_6 H 0.9041 0.4054 0.2112
C2_6 C 0.9194(2) 0.3605(4) 0.1552(2)
H2_6 H 0.9439 0.3900 0.1601
C3_6 C 0.90757(16) 0.3059(4) 0.11695(18)
C4_6 C 0.87097(18) 0.2667(4) 0.1119(2)
H3_6 H 0.8618 0.2291 0.0868
C5_6 C 0.84763(18) 0.2818(4) 0.1430(2)
H4_6 H 0.8225 0.2553 0.1386
C6_6 C 0.93267(16) 0.2935(4) 0.08454(18)
N2_6 N 0.96080(13) 0.3528(3) 0.08440(15)
C7_6 C 0.98329(15) 0.3392(3) 0.05376(18)
N3_6 N 0.97848(13) 0.2707(3) 0.02470(14)
C8_6 C 0.94996(16) 0.2130(3) 0.02870(19)
N4_6 N 0.92596(13) 0.2213(3) 0.05700(15)
H10_6 H 0.8944 0.0887 0.0145
C15_6 C 0.9137(2) 0.0755(5) 0.9974(2)
C16_6 C 0.94555(16) 0.1312(4) 0.99973(18)
C17_6 C 0.96668(16) 0.0326(4) 0.9470(2)
H11_6 H 0.9855 0.0179 0.9294
C18_6 C 0.97232(17) 0.1098(4) 0.97397(19)
H12_6 H 0.9945 0.1471 0.9745
C19_6 C 0.89535(18) 0.0214(4) 0.8397(2)
H13_6 H 0.9195 0.0459 0.8544
C20_6 C 0.87211(18) 0.0723(4) 0.8067(2)
H14_6 H 0.8800 0.1309 0.7992
C21_6 C 0.83742(15) 0.0363(3) 0.78523(18)
C24_6 C 0.81172(15) 0.0895(3) 0.75028(19)
N8_6 N 0.82187(13) 0.1776(3) 0.74568(15)
C25_6 C 0.79678(15) 0.2236(3) 0.71528(17)
N9_6 N 0.76649(13) 0.1895(3) 0.68760(15)
C26_6 C 0.75973(15) 0.0997(3) 0.69412(19)
N10_6 N 0.78052(13) 0.0496(3) 0.72652(15)
C27_6 C 0.78481(18) 0.4744(4) 0.6940(2)
H17_6 H 0.7668 0.5147 0.6768
C28_6 C 0.77789(16) 0.3815(4) 0.6902(2)
H18_6 H 0.7555 0.3592 0.6706
C29_6 C 0.80389(15) 0.3222(3) 0.71500(18)
C30_6 C 0.83684(18) 0.3583(4) 0.7410(2)
H19_6 H 0.8563 0.3195 0.7569
C31_6 C 0.84153(19) 0.4506(4) 0.7437(2)
H20_6 H 0.8640 0.4744 0.7626
C34_6 C 0.72658(15) 0.0561(3) 0.66465(18)
C35_6 C 0.70480(18) 0.0987(4) 0.6282(2)
H23_6 H 0.7100 0.1596 0.6213
C36_6 C 0.6750(2) 0.0505(4) 0.6019(2)
H24_6 H 0.6598 0.0804 0.5770
H5_5 H 0.4236 0.0217 0.0049
H6_5 H 0.4763 0.1185 0.0087
N6_5 N 0.56377(14) 0.5205(3) 0.05492(16)
C14_5 C 0.5898(2) 0.5002(5) 0.0302(2)
H9_5 H 0.6117 0.5388 0.0314
C15_7 C 0.5863(2) 0.4245(5) 0.0026(2)
C16_7 C 0.55445(16) 0.3688(4) 0.00027(18)
C17_7 C 0.53332(16) 0.4674(4) 0.0530(2)
H11_7 H 0.5145 0.4821 0.0706
C18_7 C 0.52768(17) 0.3902(4) 0.02603(19)
H12_7 H 0.5055 0.3529 0.0255
Zn2_5 Zn 0.57576(2) 0.62847(4) 0.09988(2)
I3_5 I 0.517019(14) 0.65305(3) 0.135706(15)
I4_5 I 0.611631(15) 0.74252(3) 0.061038(16)
N7_5 N 0.61495(13) 0.5607(3) 0.14853(16)
C19_7 C 0.60465(18) 0.4786(4) 0.1603(2)
H13_7 H 0.5805 0.4541 0.1456
C20_7 C 0.62789(18) 0.4277(4) 0.1933(2)
H14_7 H 0.6200 0.3691 0.2008
C21_7 C 0.66258(15) 0.4637(3) 0.21477(18)
C22_5 C 0.67318(16) 0.5496(3) 0.20364(19)
H15_5 H 0.6966 0.5768 0.2187
C23_5 C 0.64845(17) 0.5949(4) 0.1697(2)
H16_5 H 0.6559 0.6533 0.1612
C24_7 C 0.68828(15) 0.4105(3) 0.24972(19)
N8_7 N 0.67813(13) 0.3224(3) 0.25432(15)
C25_7 C 0.70322(15) 0.2764(3) 0.28472(17)
N9_7 N 0.73351(13) 0.3105(3) 0.31240(15)
C26_7 C 0.74027(15) 0.4003(3) 0.30588(19)
N10_7 N 0.71948(13) 0.4504(3) 0.27348(15)
C27_7 C 0.71519(18) 0.0256(4) 0.3060(2)
C28_7 C 0.72211(16) 0.1185(4) 0.3098(2)
H18_7 H 0.7445 0.1408 0.3294
C29_7 C 0.69611(15) 0.1778(3) 0.28500(18)
C30_7 C 0.66316(18) 0.1417(4) 0.2590(2)
H19_7 H 0.6437 0.1805 0.2431
C31_7 C 0.65847(19) 0.0494(4) 0.2563(2)
H20_7 H 0.6360 0.0256 0.2374
N12_3 N 0.83335(13) 0.5340(3) 0.39077(16)
C32_5 C 0.81237(17) 0.5750(4) 0.3546(2)
H21_5 H 0.8185 0.6357 0.3485
C33_5 C 0.78279(17) 0.5332(4) 0.3266(2)
H22_5 H 0.7687 0.5644 0.3014
C34_7 C 0.77342(15) 0.4439(3) 0.33535(18)
C35_7 C 0.79520(18) 0.4013(4) 0.3718(2)
H23_7 H 0.7900 0.3404 0.3787
C36_7 C 0.8250(2) 0.4495(4) 0.3981(2)
H24_7 H 0.8402 0.4196 0.4230
Zn5_3 Zn 0.87451(2) 0.60386(5) 0.43561(3)
N5_5 N 0.92143(14) 0.5169(3) 0.44196(18)
C9_5 C 0.93536(18) 0.4710(4) 0.4796(2)
H5_6 H 0.9236 0.4783 0.5049
C10_5 C 0.96664(17) 0.4133(4) 0.4818(2)
H6_6 H 0.9763 0.3815 0.5087
C11_5 C 0.98397(16) 0.4011(3) 0.44567(19)
C12_5 C 0.9685(2) 0.4475(5) 0.4074(2)
H7_5 H 0.9789 0.4394 0.3811
C13_5 C 0.9378(2) 0.5060(6) 0.4074(3)
H8_5 H 0.9281 0.5398 0.3811
I5_5 I 0.892174(19) 0.74286(3) 0.39517(3)
I6_5 I 0.849861(16) 0.60236(6) 0.50814(2)
N5_6 N 0.42143(14) 0.9831(3) 0.94196(18)
C13_6 C 0.4378(2) 0.9940(6) 0.9074(3)
H8_6 H 0.4281 0.9602 0.8811
I5_6 I 0.392174(19) 0.75714(3) 0.89517(3)
Zn3_3 Zn 0.37451(2) 0.89614(5) 0.93561(3)
N14_3 N 0.33335(13) 0.9660(3) 0.89077(16)
N6_6 N 0.06377(14) 0.9795(3) 0.55492(16)
C14_6 C 0.0898(2) 0.9998(5) 0.5302(2)
H9_6 H 0.1117 0.9612 0.5314
Zn2_6 Zn 0.07576(2) 0.87153(4) 0.59988(2)
I3_6 I 0.017019(14) 0.84695(3) 0.635706(15)
I4_6 I 0.111631(15) 0.75748(3) 0.561038(16)
N7_6 N 0.11495(13) 0.9393(3) 0.64853(16)
C22_6 C 0.17318(16) 0.9504(3) 0.70364(19)
H15_6 H 0.1966 0.9232 0.7187
C23_6 C 0.14845(17) 0.9051(4) 0.6697(2)
H16_6 H 0.1559 0.8467 0.6612
C32_6 C 0.31237(17) 0.9250(4) 0.8546(2)
H21_6 H 0.3185 0.8643 0.8485
C33_6 C 0.28279(17) 0.9668(4) 0.8266(2)
H22_6 H 0.2687 0.9356 0.8014
Zn1_4 Zn 0.32742(2) 0.14681(4) 0.72779(2)
I1_7 I 0.373357(17) 0.16377(3) 0.803049(15)
I2_7 I 0.264651(15) 0.23427(3) 0.704293(19)
N1_7 N 0.35995(15) 0.1666(3) 0.67955(16)
C1_7 C 0.39529(19) 0.1296(4) 0.6851(2)
H1_7 H 0.4041 0.0946 0.7112
C2_7 C 0.4194(2) 0.1395(4) 0.6552(2)
H2_7 H 0.4439 0.1100 0.6601
C3_7 C 0.40757(16) 0.1941(4) 0.61695(18)
C4_7 C 0.37097(18) 0.2333(4) 0.6119(2)
H3_7 H 0.3618 0.2709 0.5868
C5_7 C 0.34763(18) 0.2182(4) 0.6430(2)
H4_7 H 0.3225 0.2447 0.6386
C6_7 C 0.43267(16) 0.2065(4) 0.58454(18)
N2_7 N 0.46080(13) 0.1472(3) 0.58440(15)
C7_7 C 0.48329(15) 0.1608(3) 0.55376(18)
N3_7 N 0.47848(13) 0.2293(3) 0.52470(14)
C8_7 C 0.44996(16) 0.2870(3) 0.52870(19)
N4_7 N 0.42596(13) 0.2787(3) 0.55700(15)
C9_6 C 0.56464(18) 0.0290(4) 0.5204(2)
H5_7 H 0.5764 0.0217 0.4951
C10_6 C 0.53336(17) 0.0867(4) 0.5182(2)
H6_7 H 0.5237 0.1185 0.4913
C11_6 C 0.51603(16) 0.0989(3) 0.55433(19)
C12_6 C 0.5315(2) 0.0525(5) 0.5926(2)
H7_6 H 0.5211 0.0606 0.6189
N6_7 N 0.43623(14) 0.5205(3) 0.44508(16)
C14_7 C 0.4102(2) 0.5002(5) 0.4698(2)
H9_7 H 0.3883 0.5388 0.4686
C15_8 C 0.4137(2) 0.4245(5) 0.4974(2)
H10_7 H 0.3944 0.4113 0.5145
C16_8 C 0.44555(16) 0.3688(4) 0.49973(18)
C17_8 C 0.46668(16) 0.4674(4) 0.4470(2)
H11_8 H 0.4855 0.4821 0.4294
C18_8 C 0.47232(17) 0.3902(4) 0.47397(19)
H12_8 H 0.4945 0.3529 0.4745
Zn2_7 Zn 0.42424(2) 0.62847(4) 0.40012(2)
I3_7 I 0.482981(14) 0.65305(3) 0.364294(15)
I4_7 I 0.388369(15) 0.74252(3) 0.438962(16)
N7_7 N 0.38505(13) 0.5607(3) 0.35147(16)
C19_8 C 0.39535(18) 0.4786(4) 0.3397(2)
H13_8 H 0.4195 0.4541 0.3544
C20_8 C 0.37211(18) 0.4277(4) 0.3067(2)
H14_8 H 0.3800 0.3691 0.2992
C21_8 C 0.33742(15) 0.4637(3) 0.28523(18)
C22_7 C 0.32682(16) 0.5496(3) 0.29636(19)
H15_7 H 0.3034 0.5768 0.2813
C23_7 C 0.35155(17) 0.5949(4) 0.3303(2)
H16_7 H 0.3441 0.6533 0.3388
C24_8 C 0.31172(15) 0.4105(3) 0.25028(19)
N8_8 N 0.32187(13) 0.3224(3) 0.24568(15)
C25_8 C 0.29678(15) 0.2764(3) 0.21528(17)
N9_8 N 0.26649(13) 0.3105(3) 0.18760(15)
C26_8 C 0.25973(15) 0.4003(3) 0.19412(19)
N10_8 N 0.28052(13) 0.4504(3) 0.22652(15)
C27_8 C 0.28481(18) 0.0256(4) 0.1940(2)
C28_8 C 0.27789(16) 0.1185(4) 0.1902(2)
H18_8 H 0.2555 0.1408 0.1706
C29_8 C 0.30389(15) 0.1778(3) 0.21500(18)
C30_8 C 0.33684(18) 0.1417(4) 0.2410(2)
H19_8 H 0.3563 0.1805 0.2569
C31_8 C 0.34153(19) 0.0494(4) 0.2437(2)
H20_8 H 0.3640 0.0256 0.2626
N12_4 N 0.16665(13) 0.5340(3) 0.10923(16)
C32_7 C 0.18763(17) 0.5750(4) 0.1454(2)
H21_7 H 0.1815 0.6357 0.1515
C33_7 C 0.21721(17) 0.5332(4) 0.1734(2)
H22_7 H 0.2313 0.5644 0.1986
C34_8 C 0.22658(15) 0.4439(3) 0.16465(18)
C35_8 C 0.20480(18) 0.4013(4) 0.1282(2)
H23_8 H 0.2100 0.3404 0.1213
C36_8 C 0.1750(2) 0.4495(4) 0.1019(2)
H24_8 H 0.1598 0.4196 0.0770
N13_4 N 0.31565(15) 0.0084(3) 0.72084(17)
Zn5_4 Zn 0.12549(2) 0.60386(5) 0.06439(3)
N5_7 N 0.07857(14) 0.5169(3) 0.05804(18)
C9_7 C 0.06464(18) 0.4710(4) 0.0204(2)
C10_7 C 0.03336(17) 0.4133(4) 0.0182(2)
C11_7 C 0.01603(16) 0.4011(3) 0.05433(19)
C12_7 C 0.0315(2) 0.4475(5) 0.0926(2)
H7_7 H 0.0211 0.4394 0.1189
C13_7 C 0.0622(2) 0.5060(6) 0.0926(3)
H8_7 H 0.0719 0.5398 0.1189
I5_7 I 0.107826(19) 0.74286(3) 0.10483(3)
H17_7 H 0.2668 0.0147 0.6768
I6_6 I 0.650139(16) 0.10236(6) 0.99186(2)
N5_8 N 0.57857(14) 0.9831(3) 0.55804(18)
C13_8 C 0.5622(2) 0.9940(6) 0.5926(3)
H8_8 H 0.5719 0.9602 0.6189
N11_4 N 0.31565(15) 0.9916(3) 0.22084(17)
H17_8 H 0.2668 0.9853 0.1768
I5_8 I 0.607826(19) 0.75714(3) 0.60483(3)
Zn3_4 Zn 0.62549(2) 0.89614(5) 0.56439(3)
I6_7 I 0.650139(16) 0.89764(6) 0.49186(2)
Zn4_4 Zn 0.32742(2) 0.85319(4) 0.22779(2)
N14_4 N 0.66665(13) 0.9660(3) 0.60923(16)
N6_8 N 0.93623(14) 0.9795(3) 0.94508(16)
C14_8 C 0.9102(2) 0.9998(5) 0.9698(2)
H9_8 H 0.8883 0.9612 0.9686
Zn2_8 Zn 0.92424(2) 0.87153(4) 0.90012(2)
I3_8 I 0.982981(14) 0.84695(3) 0.864294(15)
I4_8 I 0.888369(15) 0.75748(3) 0.938962(16)
N7_8 N 0.88505(13) 0.9393(3) 0.85147(16)
C22_8 C 0.82682(16) 0.9504(3) 0.79636(19)
H15_8 H 0.8034 0.9232 0.7813
C23_8 C 0.85155(17) 0.9051(4) 0.8303(2)
H16_8 H 0.8441 0.8467 0.8388
C32_8 C 0.68763(17) 0.9250(4) 0.6454(2)
H21_8 H 0.6815 0.8643 0.6515
C33_8 C 0.71721(17) 0.9668(4) 0.6734(2)
H22_8 H 0.7313 0.9356 0.6986
I1_8 I 0.373357(17) 0.83623(3) 0.303049(15)
I2_8 I 0.264651(15) 0.76573(3) 0.204293(19)
N1_8 N 0.35995(15) 0.8334(3) 0.17955(16)
C1_8 C 0.39529(19) 0.8704(4) 0.1851(2)
H1_8 H 0.4041 0.9054 0.2112
C2_8 C 0.4194(2) 0.8605(4) 0.1552(2)
H2_8 H 0.4439 0.8900 0.1601
C3_8 C 0.40757(16) 0.8059(4) 0.11695(18)
C4_8 C 0.37097(18) 0.7667(4) 0.1119(2)
H3_8 H 0.3618 0.7291 0.0868
C5_8 C 0.34763(18) 0.7818(4) 0.1430(2)
H4_8 H 0.3225 0.7553 0.1386
C6_8 C 0.43267(16) 0.7935(4) 0.08454(18)
N2_8 N 0.46080(13) 0.8528(3) 0.08440(15)
C7_8 C 0.48329(15) 0.8392(3) 0.05376(18)
N3_8 N 0.47848(13) 0.7707(3) 0.02470(14)
C8_8 C 0.44996(16) 0.7130(3) 0.02870(19)
N4_8 N 0.42596(13) 0.7213(3) 0.05700(15)
C9_8 C 0.56464(18) 0.9710(4) 0.0204(2)
C10_8 C 0.53336(17) 0.9133(4) 0.0182(2)
C11_8 C 0.51603(16) 0.9011(3) 0.05433(19)
C12_8 C 0.5315(2) 0.9475(5) 0.0926(2)
H7_8 H 0.5211 0.9394 0.1189
H10_8 H 0.3944 0.5887 0.0145
H5_8 H 0.0764 0.4783 0.9951
H6_8 H 0.0237 0.3815 0.9913
I6_8 I 0.150139(16) 0.60236(6) 0.99186(2)
loop_
_geom_bond_atom_site_label_1
_geom_bond_atom_site_label_2
_geom_bond_site_symmetry_1
_geom_bond_site_symmetry_2
N6 C14 1_555 1_555
C14 H9 1_555 1_555
Zn2 N6 1_555 1_555
I3 Zn2 1_555 1_555
I4 Zn2 1_555 1_555
N7 Zn2 1_555 1_555
H15 C22 1_555 1_555
C23 N7 1_555 1_555
H16 C23 1_555 1_555
N12 C32 1_555 1_555
C32 H21 1_555 1_555
C33 C32 1_555 1_555
H22 C33 1_555 1_555
Zn5 N12 1_555 1_555
C22 C23 1_555 1_555
Zn1 I1 1_555 1_555
I2 Zn1 1_555 1_555
N1 Zn1 1_555 1_555
C1 N1 1_555 1_555
H1 C1 1_555 1_555
C2 C1 1_555 1_555
H2 C2 1_555 1_555
C3 C2 1_555 1_555
C4 C3 1_555 1_555
H3 C4 1_555 1_555
C5 N1 1_555 1_555
H4 C5 1_555 1_555
C6 C3 1_555 1_555
N2 C6 1_555 1_555
C7 N2 1_555 1_555
N3 C7 1_555 1_555
C8 N3 1_555 1_555
N4 C6 1_555 1_555
C10 C9 1_555 1_555
C11 C7 1_555 1_555
C12 C11 1_555 1_555
H7 C12 1_555 1_555
N13 Zn1 1_555 1_555
C4 C5 1_555 1_555
C8 N4 1_555 1_555
C10 C11 1_555 1_555
C13 N5 1_555 1_555
H8 C13 1_555 1_555
I5 Zn5 1_555 1_555
Zn5 N5 1_555 1_555
I6 Zn5 1_555 1_555
H11 C17 1_555 1_555
C18 C16 1_555 1_555
H12 C18 1_555 1_555
H13 C19 1_555 1_555
C20 C19 1_555 1_555
H14 C20 1_555 1_555
C21 C20 1_555 1_555
C24 C21 1_555 1_555
N8 C24 1_555 1_555
C25 N8 1_555 1_555
N9 C25 1_555 1_555
C26 N9 1_555 1_555
N10 C24 1_555 1_555
N11 C27 1_555 1_555
C27 H17_2 1_555 1_555
C28 C27 1_555 1_555
H18 C28 1_555 1_555
C29 C25 1_555 1_555
C30 C29 1_555 1_555
H19 C30 1_555 1_555
C31 N11 1_555 1_555
H20 C31 1_555 1_555
C34 C26 1_555 1_555
C35 C34 1_555 1_555
H23 C35 1_555 1_555
H24 C36 1_555 1_555
Zn4 N11 1_555 1_555
C15 C16 1_555 1_555
C17 C18 1_555 1_555
C26 N10 1_555 1_555
C28 C29 1_555 1_555
C30 C31 1_555 1_555
C35 C36 1_555 1_555
Zn1_2 I1_2 1_555 1_555
I2_2 Zn1_2 1_555 1_555
N1_2 Zn1_2 1_555 1_555
C1_2 N1_2 1_555 1_555
H1_2 C1_2 1_555 1_555
C2_2 C1_2 1_555 1_555
H2_2 C2_2 1_555 1_555
C3_2 C2_2 1_555 1_555
C4_2 C3_2 1_555 1_555
H3_2 C4_2 1_555 1_555
C5_2 N1_2 1_555 1_555
H4_2 C5_2 1_555 1_555
C6_2 C3_2 1_555 1_555
N2_2 C6_2 1_555 1_555
C7_2 N2_2 1_555 1_555
N3_2 C7_2 1_555 1_555
C8_2 N3_2 1_555 1_555
N4_2 C6_2 1_555 1_555
N13_2 Zn1_2 1_555 1_555
C4_2 C5_2 1_555 1_555
C8_2 N4_2 1_555 1_555
Zn4 I1_3 1_555 1_555
I2_3 Zn4 1_555 1_555
N1_3 Zn4 1_555 1_555
C1_3 N1_3 1_555 1_555
H1_3 C1_3 1_555 1_555
C2_3 C1_3 1_555 1_555
H2_3 C2_3 1_555 1_555
C3_3 C2_3 1_555 1_555
C4_3 C3_3 1_555 1_555
H3_3 C4_3 1_555 1_555
C5_3 N1_3 1_555 1_555
H4_3 C5_3 1_555 1_555
C6_3 C3_3 1_555 1_555
N2_3 C6_3 1_555 1_555
C7_3 N2_3 1_555 1_555
N3_3 C7_3 1_555 1_555
C8_3 N3_3 1_555 1_555
N4_3 C6_3 1_555 1_555
H10_3 C15_2 1_555 1_555
C16_2 C8_3 1_555 1_555
H11_2 C17_2 1_555 1_555
C18_2 C16_2 1_555 1_555
H12_2 C18_2 1_555 1_555
H13_2 C19_2 1_555 1_555
C20_2 C19_2 1_555 1_555
H14_2 C20_2 1_555 1_555
C21_2 C20_2 1_555 1_555
C24_2 C21_2 1_555 1_555
N8_2 C24_2 1_555 1_555
C25_2 N8_2 1_555 1_555
N9_2 C25_2 1_555 1_555
C26_2 N9_2 1_555 1_555
N10_2 C24_2 1_555 1_555
N13_2 C27_2 1_555 1_555
C27_2 H17_3 1_555 1_555
C28_2 C27_2 1_555 1_555
H18_2 C28_2 1_555 1_555
C29_2 C25_2 1_555 1_555
C30_2 C29_2 1_555 1_555
H19_2 C30_2 1_555 1_555
C31_2 N13_2 1_555 1_555
H20_2 C31_2 1_555 1_555
C34_2 C26_2 1_555 1_555
C35_2 C34_2 1_555 1_555
H23_2 C35_2 1_555 1_555
H24_2 C36_2 1_555 1_555
C4_3 C5_3 1_555 1_555
C8_3 N4_3 1_555 1_555
C15_2 C16_2 1_555 1_555
C17_2 C18_2 1_555 1_555
C26_2 N10_2 1_555 1_555
C28_2 C29_2 1_555 1_555
C30_2 C31_2 1_555 1_555
C35_2 C36_2 1_555 1_555
N5_2 C9_2 1_555 1_555
C10_2 C9_2 1_555 1_555
C12_2 C11_2 1_555 1_555
H7_2 C12_2 1_555 1_555
C13_2 N5_2 1_555 1_555
H8_2 C13_2 1_555 1_555
I5_2 Zn3 1_555 1_555
Zn3 N5_2 1_555 1_555
N14 Zn3 1_555 1_555
C10_2 C11_2 1_555 1_555
C12_2 C13_2 1_555 1_555
Zn4_2 N11_2 1_555 1_555
Zn4_2 I1_4 1_555 1_555
I2_4 Zn4_2 1_555 1_555
N1_4 Zn4_2 1_555 1_555
C1_4 N1_4 1_555 1_555
H1_4 C1_4 1_555 1_555
C2_4 C1_4 1_555 1_555
H2_4 C2_4 1_555 1_555
C3_4 C2_4 1_555 1_555
C4_4 C3_4 1_555 1_555
H3_4 C4_4 1_555 1_555
C5_4 N1_4 1_555 1_555
H4_4 C5_4 1_555 1_555
C6_4 C3_4 1_555 1_555
N2_4 C6_4 1_555 1_555
C7_4 N2_4 1_555 1_555
N3_4 C7_4 1_555 1_555
C8_4 N3_4 1_555 1_555
N4_4 C6_4 1_555 1_555
C9_3 H5_2 1_555 1_555
C10_3 C9_3 1_555 1_555
H6_2 C10_3 1_555 1_555
C11_3 C7_4 1_555 1_555
C12_3 C11_3 1_555 1_555
H7_3 C12_3 1_555 1_555
N6_2 C14_2 1_555 1_555
C14_2 H9_2 1_555 1_555
C15_3 C14_2 1_555 1_555
H10_4 C15_3 1_555 1_555
C16_3 C8_4 1_555 1_555
C17_3 N6_2 1_555 1_555
H11_3 C17_3 1_555 1_555
C18_3 C16_3 1_555 1_555
H12_3 C18_3 1_555 1_555
Zn2_2 N6_2 1_555 1_555
I3_2 Zn2_2 1_555 1_555
I4_2 Zn2_2 1_555 1_555
N7_2 Zn2_2 1_555 1_555
C19_3 N7_2 1_555 1_555
H13_3 C19_3 1_555 1_555
C20_3 C19_3 1_555 1_555
H14_3 C20_3 1_555 1_555
C21_3 C20_3 1_555 1_555
C22_2 C21_3 1_555 1_555
H15_2 C22_2 1_555 1_555
C23_2 N7_2 1_555 1_555
H16_2 C23_2 1_555 1_555
C24_3 C21_3 1_555 1_555
N8_3 C24_3 1_555 1_555
C25_3 N8_3 1_555 1_555
N9_3 C25_3 1_555 1_555
C26_3 N9_3 1_555 1_555
N10_3 C24_3 1_555 1_555
C28_3 C27_3 1_555 1_555
H18_3 C28_3 1_555 1_555
C29_3 C25_3 1_555 1_555
C30_3 C29_3 1_555 1_555
H19_3 C30_3 1_555 1_555
H20_3 C31_3 1_555 1_555
N14 C32_2 1_555 1_555
C32_2 H21_2 1_555 1_555
C33_2 C32_2 1_555 1_555
H22_2 C33_2 1_555 1_555
C34_3 C26_3 1_555 1_555
C35_3 C34_3 1_555 1_555
H23_3 C35_3 1_555 1_555
C36_3 N14 1_555 1_555
H24_3 C36_3 1_555 1_555
C4_4 C5_4 1_555 1_555
C8_4 N4_4 1_555 1_555
C10_3 C11_3 1_555 1_555
C15_3 C16_3 1_555 1_555
C17_3 C18_3 1_555 1_555
C22_2 C23_2 1_555 1_555
C26_3 N10_3 1_555 1_555
C28_3 C29_3 1_555 1_555
C30_3 C31_3 1_555 1_555
C33_2 C34_3 1_555 1_555
C35_3 C36_3 1_555 1_555
N5_3 C9_4 1_555 1_555
C9_4 H5_3 1_555 1_555
C10_4 C9_4 1_555 1_555
H6_3 C10_4 1_555 1_555
C12_4 C11_4 1_555 1_555
H7_4 C12_4 1_555 1_555
C13_3 N5_3 1_555 1_555
H8_3 C13_3 1_555 1_555
I5_3 Zn3_2 1_555 1_555
Zn3_2 N5_3 1_555 1_555
I6_4 Zn3_2 1_555 1_555
N14_2 Zn3_2 1_555 1_555
C10_4 C11_4 1_555 1_555
C12_4 C13_3 1_555 1_555
N6_3 C14_3 1_555 1_555
C14_3 H9_3 1_555 1_555
C15_4 C14_3 1_555 1_555
C17_4 N6_3 1_555 1_555
H11_4 C17_4 1_555 1_555
C18_4 C16_4 1_555 1_555
H12_4 C18_4 1_555 1_555
Zn2_3 N6_3 1_555 1_555
I3_3 Zn2_3 1_555 1_555
I4_3 Zn2_3 1_555 1_555
N7_3 Zn2_3 1_555 1_555
C19_4 N7_3 1_555 1_555
H13_4 C19_4 1_555 1_555
C20_4 C19_4 1_555 1_555
H14_4 C20_4 1_555 1_555
C21_4 C20_4 1_555 1_555
C22_3 C21_4 1_555 1_555
H15_3 C22_3 1_555 1_555
C23_3 N7_3 1_555 1_555
H16_3 C23_3 1_555 1_555
C24_4 C21_4 1_555 1_555
N8_4 C24_4 1_555 1_555
C25_4 N8_4 1_555 1_555
N9_4 C25_4 1_555 1_555
C26_4 N9_4 1_555 1_555
N10_4 C24_4 1_555 1_555
C28_4 C27_4 1_555 1_555
H18_4 C28_4 1_555 1_555
C29_4 C25_4 1_555 1_555
C30_4 C29_4 1_555 1_555
H19_4 C30_4 1_555 1_555
H20_4 C31_4 1_555 1_555
N14_2 C32_3 1_555 1_555
C32_3 H21_3 1_555 1_555
C33_3 C32_3 1_555 1_555
H22_3 C33_3 1_555 1_555
C34_4 C26_4 1_555 1_555
C35_4 C34_4 1_555 1_555
H23_4 C35_4 1_555 1_555
C36_4 N14_2 1_555 1_555
H24_4 C36_4 1_555 1_555
C15_4 C16_4 1_555 1_555
C17_4 C18_4 1_555 1_555
C22_3 C23_3 1_555 1_555
C26_4 N10_4 1_555 1_555
C28_4 C29_4 1_555 1_555
C30_4 C31_4 1_555 1_555
C33_3 C34_4 1_555 1_555
C35_4 C36_4 1_555 1_555
N6_4 C14_4 1_555 1_555
C14_4 H9_4 1_555 1_555
Zn2_4 N6_4 1_555 1_555
I3_4 Zn2_4 1_555 1_555
I4_4 Zn2_4 1_555 1_555
N7_4 Zn2_4 1_555 1_555
H15_4 C22_4 1_555 1_555
C23_4 N7_4 1_555 1_555
H16_4 C23_4 1_555 1_555
N12_2 C32_4 1_555 1_555
C32_4 H21_4 1_555 1_555
C33_4 C32_4 1_555 1_555
H22_4 C33_4 1_555 1_555
Zn5_2 N12_2 1_555 1_555
C22_4 C23_4 1_555 1_555
C13_4 N5_4 1_555 1_555
H8_4 C13_4 1_555 1_555
I5_4 Zn5_2 1_555 1_555
Zn5_2 N5_4 1_555 1_555
Zn1_3 I1_5 1_555 1_555
I2_5 Zn1_3 1_555 1_555
N1_5 Zn1_3 1_555 1_555
C1_5 N1_5 1_555 1_555
H1_5 C1_5 1_555 1_555
C2_5 C1_5 1_555 1_555
H2_5 C2_5 1_555 1_555
C3_5 C2_5 1_555 1_555
C4_5 C3_5 1_555 1_555
H3_5 C4_5 1_555 1_555
C5_5 N1_5 1_555 1_555
H4_5 C5_5 1_555 1_555
C6_5 C3_5 1_555 1_555
N2_5 C6_5 1_555 1_555
C7_5 N2_5 1_555 1_555
N3_5 C7_5 1_555 1_555
C8_5 N3_5 1_555 1_555
N4_5 C6_5 1_555 1_555
H10_5 C15_5 1_555 1_555
C16_5 C8_5 1_555 1_555
H11_5 C17_5 1_555 1_555
C18_5 C16_5 1_555 1_555
H12_5 C18_5 1_555 1_555
H13_5 C19_5 1_555 1_555
C20_5 C19_5 1_555 1_555
H14_5 C20_5 1_555 1_555
C21_5 C20_5 1_555 1_555
C24_5 C21_5 1_555 1_555
N8_5 C24_5 1_555 1_555
C25_5 N8_5 1_555 1_555
N9_5 C25_5 1_555 1_555
C26_5 N9_5 1_555 1_555
N10_5 C24_5 1_555 1_555
N11_3 C27_5 1_555 1_555
C27_5 H17_5 1_555 1_555
C28_5 C27_5 1_555 1_555
H18_5 C28_5 1_555 1_555
C29_5 C25_5 1_555 1_555
C30_5 C29_5 1_555 1_555
H19_5 C30_5 1_555 1_555
C31_5 N11_3 1_555 1_555
H20_5 C31_5 1_555 1_555
C34_5 C26_5 1_555 1_555
C35_5 C34_5 1_555 1_555
H23_5 C35_5 1_555 1_555
H24_5 C36_5 1_555 1_555
Zn4_3 N11_3 1_555 1_555
N13_3 Zn1_3 1_555 1_555
C4_5 C5_5 1_555 1_555
C8_5 N4_5 1_555 1_555
C15_5 C16_5 1_555 1_555
C17_5 C18_5 1_555 1_555
C26_5 N10_5 1_555 1_555
C28_5 C29_5 1_555 1_555
C30_5 C31_5 1_555 1_555
C35_5 C36_5 1_555 1_555
Zn4_3 I1_6 1_555 1_555
I2_6 Zn4_3 1_555 1_555
N1_6 Zn4_3 1_555 1_555
C1_6 N1_6 1_555 1_555
H1_6 C1_6 1_555 1_555
C2_6 C1_6 1_555 1_555
H2_6 C2_6 1_555 1_555
C3_6 C2_6 1_555 1_555
C4_6 C3_6 1_555 1_555
H3_6 C4_6 1_555 1_555
C5_6 N1_6 1_555 1_555
H4_6 C5_6 1_555 1_555
C6_6 C3_6 1_555 1_555
N2_6 C6_6 1_555 1_555
C7_6 N2_6 1_555 1_555
N3_6 C7_6 1_555 1_555
C8_6 N3_6 1_555 1_555
N4_6 C6_6 1_555 1_555
C4_6 C5_6 1_555 1_555
C8_6 N4_6 1_555 1_555
H11_6 C17_6 1_555 1_555
C18_6 C16_6 1_555 1_555
H12_6 C18_6 1_555 1_555
H13_6 C19_6 1_555 1_555
C20_6 C19_6 1_555 1_555
H14_6 C20_6 1_555 1_555
C21_6 C20_6 1_555 1_555
C24_6 C21_6 1_555 1_555
N8_6 C24_6 1_555 1_555
C25_6 N8_6 1_555 1_555
N9_6 C25_6 1_555 1_555
C26_6 N9_6 1_555 1_555
N10_6 C24_6 1_555 1_555
N13_3 C27_6 1_555 1_555
C27_6 H17_6 1_555 1_555
C28_6 C27_6 1_555 1_555
H18_6 C28_6 1_555 1_555
C29_6 C25_6 1_555 1_555
C30_6 C29_6 1_555 1_555
H19_6 C30_6 1_555 1_555
C31_6 N13_3 1_555 1_555
H20_6 C31_6 1_555 1_555
C34_6 C26_6 1_555 1_555
C35_6 C34_6 1_555 1_555
H23_6 C35_6 1_555 1_555
H24_6 C36_6 1_555 1_555
C15_6 C16_6 1_555 1_555
C17_6 C18_6 1_555 1_555
C26_6 N10_6 1_555 1_555
C28_6 C29_6 1_555 1_555
C30_6 C31_6 1_555 1_555
C35_6 C36_6 1_555 1_555
N6_5 C14_5 1_555 1_555
C14_5 H9_5 1_555 1_555
C15_7 C14_5 1_555 1_555
C17_7 N6_5 1_555 1_555
H11_7 C17_7 1_555 1_555
C18_7 C16_7 1_555 1_555
H12_7 C18_7 1_555 1_555
Zn2_5 N6_5 1_555 1_555
I3_5 Zn2_5 1_555 1_555
I4_5 Zn2_5 1_555 1_555
N7_5 Zn2_5 1_555 1_555
C19_7 N7_5 1_555 1_555
H13_7 C19_7 1_555 1_555
C20_7 C19_7 1_555 1_555
H14_7 C20_7 1_555 1_555
C21_7 C20_7 1_555 1_555
C22_5 C21_7 1_555 1_555
H15_5 C22_5 1_555 1_555
C23_5 N7_5 1_555 1_555
H16_5 C23_5 1_555 1_555
C24_7 C21_7 1_555 1_555
N8_7 C24_7 1_555 1_555
C25_7 N8_7 1_555 1_555
N9_7 C25_7 1_555 1_555
C26_7 N9_7 1_555 1_555
N10_7 C24_7 1_555 1_555
C28_7 C27_7 1_555 1_555
H18_7 C28_7 1_555 1_555
C29_7 C25_7 1_555 1_555
C30_7 C29_7 1_555 1_555
H19_7 C30_7 1_555 1_555
H20_7 C31_7 1_555 1_555
N12_3 C32_5 1_555 1_555
C32_5 H21_5 1_555 1_555
C33_5 C32_5 1_555 1_555
H22_5 C33_5 1_555 1_555
C34_7 C26_7 1_555 1_555
C35_7 C34_7 1_555 1_555
H23_7 C35_7 1_555 1_555
C36_7 N12_3 1_555 1_555
H24_7 C36_7 1_555 1_555
Zn5_3 N12_3 1_555 1_555
C15_7 C16_7 1_555 1_555
C17_7 C18_7 1_555 1_555
C22_5 C23_5 1_555 1_555
C26_7 N10_7 1_555 1_555
C28_7 C29_7 1_555 1_555
C30_7 C31_7 1_555 1_555
C33_5 C34_7 1_555 1_555
C35_7 C36_7 1_555 1_555
N5_5 C9_5 1_555 1_555
C9_5 H5_6 1_555 1_555
C10_5 C9_5 1_555 1_555
H6_6 C10_5 1_555 1_555
C12_5 C11_5 1_555 1_555
H7_5 C12_5 1_555 1_555
C13_5 N5_5 1_555 1_555
H8_5 C13_5 1_555 1_555
I5_5 Zn5_3 1_555 1_555
Zn5_3 N5_5 1_555 1_555
I6_5 Zn5_3 1_555 1_555
C10_5 C11_5 1_555 1_555
C12_5 C13_5 1_555 1_555
C13_6 N5_6 1_555 1_555
H8_6 C13_6 1_555 1_555
I5_6 Zn3_3 1_555 1_555
Zn3_3 N5_6 1_555 1_555
N14_3 Zn3_3 1_555 1_555
N6_6 C14_6 1_555 1_555
C14_6 H9_6 1_555 1_555
Zn2_6 N6_6 1_555 1_555
I3_6 Zn2_6 1_555 1_555
I4_6 Zn2_6 1_555 1_555
N7_6 Zn2_6 1_555 1_555
H15_6 C22_6 1_555 1_555
C23_6 N7_6 1_555 1_555
H16_6 C23_6 1_555 1_555
N14_3 C32_6 1_555 1_555
C32_6 H21_6 1_555 1_555
C33_6 C32_6 1_555 1_555
H22_6 C33_6 1_555 1_555
C22_6 C23_6 1_555 1_555
Zn1_4 I1_7 1_555 1_555
I2_7 Zn1_4 1_555 1_555
N1_7 Zn1_4 1_555 1_555
C1_7 N1_7 1_555 1_555
H1_7 C1_7 1_555 1_555
C2_7 C1_7 1_555 1_555
H2_7 C2_7 1_555 1_555
C3_7 C2_7 1_555 1_555
C4_7 C3_7 1_555 1_555
H3_7 C4_7 1_555 1_555
C5_7 N1_7 1_555 1_555
H4_7 C5_7 1_555 1_555
C6_7 C3_7 1_555 1_555
N2_7 C6_7 1_555 1_555
C7_7 N2_7 1_555 1_555
N3_7 C7_7 1_555 1_555
C8_7 N3_7 1_555 1_555
N4_7 C6_7 1_555 1_555
C9_6 H5_7 1_555 1_555
C10_6 C9_6 1_555 1_555
H6_7 C10_6 1_555 1_555
C11_6 C7_7 1_555 1_555
C12_6 C11_6 1_555 1_555
H7_6 C12_6 1_555 1_555
N6_7 C14_7 1_555 1_555
C14_7 H9_7 1_555 1_555
C15_8 C14_7 1_555 1_555
H10_7 C15_8 1_555 1_555
C16_8 C8_7 1_555 1_555
C17_8 N6_7 1_555 1_555
H11_8 C17_8 1_555 1_555
C18_8 C16_8 1_555 1_555
H12_8 C18_8 1_555 1_555
Zn2_7 N6_7 1_555 1_555
I3_7 Zn2_7 1_555 1_555
I4_7 Zn2_7 1_555 1_555
N7_7 Zn2_7 1_555 1_555
C19_8 N7_7 1_555 1_555
H13_8 C19_8 1_555 1_555
C20_8 C19_8 1_555 1_555
H14_8 C20_8 1_555 1_555
C21_8 C20_8 1_555 1_555
C22_7 C21_8 1_555 1_555
H15_7 C22_7 1_555 1_555
C23_7 N7_7 1_555 1_555
H16_7 C23_7 1_555 1_555
C24_8 C21_8 1_555 1_555
N8_8 C24_8 1_555 1_555
C25_8 N8_8 1_555 1_555
N9_8 C25_8 1_555 1_555
C26_8 N9_8 1_555 1_555
N10_8 C24_8 1_555 1_555
C28_8 C27_8 1_555 1_555
H18_8 C28_8 1_555 1_555
C29_8 C25_8 1_555 1_555
C30_8 C29_8 1_555 1_555
H19_8 C30_8 1_555 1_555
H20_8 C31_8 1_555 1_555
N12_4 C32_7 1_555 1_555
C32_7 H21_7 1_555 1_555
C33_7 C32_7 1_555 1_555
H22_7 C33_7 1_555 1_555
C34_8 C26_8 1_555 1_555
C35_8 C34_8 1_555 1_555
H23_8 C35_8 1_555 1_555
C36_8 N12_4 1_555 1_555
H24_8 C36_8 1_555 1_555
N13_4 Zn1_4 1_555 1_555
Zn5_4 N12_4 1_555 1_555
C4_7 C5_7 1_555 1_555
C8_7 N4_7 1_555 1_555
C10_6 C11_6 1_555 1_555
C15_8 C16_8 1_555 1_555
C17_8 C18_8 1_555 1_555
C22_7 C23_7 1_555 1_555
C26_8 N10_8 1_555 1_555
C28_8 C29_8 1_555 1_555
C30_8 C31_8 1_555 1_555
C33_7 C34_8 1_555 1_555
C35_8 C36_8 1_555 1_555
N5_7 C9_7 1_555 1_555
C10_7 C9_7 1_555 1_555
C12_7 C11_7 1_555 1_555
H7_7 C12_7 1_555 1_555
C13_7 N5_7 1_555 1_555
H8_7 C13_7 1_555 1_555
I5_7 Zn5_4 1_555 1_555
Zn5_4 N5_7 1_555 1_555
C10_7 C11_7 1_555 1_555
C12_7 C13_7 1_555 1_555
C13_8 N5_8 1_555 1_555
H8_8 C13_8 1_555 1_555
I5_8 Zn3_4 1_555 1_555
Zn3_4 N5_8 1_555 1_555
I6_7 Zn3_4 1_555 1_555
Zn4_4 N11_4 1_555 1_555
N14_4 Zn3_4 1_555 1_555
N6_8 C14_8 1_555 1_555
C14_8 H9_8 1_555 1_555
Zn2_8 N6_8 1_555 1_555
I3_8 Zn2_8 1_555 1_555
I4_8 Zn2_8 1_555 1_555
N7_8 Zn2_8 1_555 1_555
H15_8 C22_8 1_555 1_555
C23_8 N7_8 1_555 1_555
H16_8 C23_8 1_555 1_555
N14_4 C32_8 1_555 1_555
C32_8 H21_8 1_555 1_555
C33_8 C32_8 1_555 1_555
H22_8 C33_8 1_555 1_555
C22_8 C23_8 1_555 1_555
Zn4_4 I1_8 1_555 1_555
I2_8 Zn4_4 1_555 1_555
N1_8 Zn4_4 1_555 1_555
C1_8 N1_8 1_555 1_555
H1_8 C1_8 1_555 1_555
C2_8 C1_8 1_555 1_555
H2_8 C2_8 1_555 1_555
C3_8 C2_8 1_555 1_555
C4_8 C3_8 1_555 1_555
H3_8 C4_8 1_555 1_555
C5_8 N1_8 1_555 1_555
H4_8 C5_8 1_555 1_555
C6_8 C3_8 1_555 1_555
N2_8 C6_8 1_555 1_555
C7_8 N2_8 1_555 1_555
N3_8 C7_8 1_555 1_555
C8_8 N3_8 1_555 1_555
N4_8 C6_8 1_555 1_555
C10_8 C9_8 1_555 1_555
C11_8 C7_8 1_555 1_555
C12_8 C11_8 1_555 1_555
H7_8 C12_8 1_555 1_555
C4_8 C5_8 1_555 1_555
C8_8 N4_8 1_555 1_555
C10_8 C11_8 1_555 1_555

#END
