
###############################################################################
#
# This file contains modified crystal structure data generated from the
# MOF subset of the Cambridge Structural Database (CSD) v543 
# hosted by the Cambridge Crystallographic Data Centre (CCDC).
#
# This work is licensed under the Creative Commons
# Attribution-NonCommercial-ShareAlike 4.0 International License.
# To view a copy of this license, visit
# http://creativecommons.org/licenses/by-nc-sa/4.0/
# or send a letter to
# Creative Commons, PO Box 1866, Mountain View, CA 94042, USA.
#
# CIF created using the CSD Python API on 29 September 2022
# The structure has been converted into the P1 space group
# The structure has a 3D framework
# The original CSD entry REXFIL is in the monoclinic crystal system
# The framework has been calculated to contain at least 10.0% void space
# The void calculation uses a probe of radius 1.32A, grid spacing 0.4
#
###############################################################################

data_REXFIL
_chemical_formula_moiety         '(C288 H192 I48 N96 Zn24)n'
_symmetry_cell_setting           triclinic
_symmetry_space_group_name_H-M   'P 1'
_symmetry_Int_Tables_number      1
_space_group_name_Hall           'P 1'
loop_
_symmetry_equiv_pos_site_id
_symmetry_equiv_pos_as_xyz
1 x,y,z
_cell_length_a                   34.576
_cell_length_b                   14.884
_cell_length_c                   30.646
_cell_angle_alpha                90
_cell_angle_beta                 101.17
_cell_angle_gamma                90
_cell_volume                     15472.6
loop_
_atom_site_label
_atom_site_type_symbol
_atom_site_fract_x
_atom_site_fract_y
_atom_site_fract_z
N12 N 0.5378(5) 0.0204(9) 0.3147(5)
C35 C 0.5141(6) 0.0095(13) 0.3405(6)
H23 H 0.4940 0.0517 0.3431
Zn4 Zn 0.52026(9) 0.1242(2) 0.26849(10)
I1 I 0.48284(6) 0.23848(11) 0.30448(6)
I2 I 0.57782(6) 0.15409(13) 0.22859(6)
N1 N 0.4821(5) 0.0569(14) 0.2184(5)
C4 C 0.4242(5) 0.0544(11) 0.1588(6)
H3 H 0.3999 0.0814 0.1455
C5 C 0.4545(5) 0.0984(14) 0.1907(5)
H4 H 0.4544 0.1622 0.1916
H9 H 0.2811 0.1456 0.0047
C15 C 0.3203(5) 0.0401(9) 0.0277(6)
H10 H 0.3361 0.0746 0.0504
C1 C 0.4828(6) 0.0340(15) 0.7129(7)
H1 H 0.5055 0.0637 0.7288
C2 C 0.4538(6) 0.0911(13) 0.6864(6)
H2 H 0.4480 0.1520 0.6919
C3 C 0.4356(6) 0.0358(10) 0.6497(6)
C6 C 0.4113(5) 0.0891(9) 0.6141(6)
N2 N 0.4173(4) 0.1764(8) 0.6092(5)
C7 C 0.3930(6) 0.2194(9) 0.5771(6)
N3 N 0.3640(4) 0.1811(7) 0.5476(6)
C8 C 0.3643(5) 0.0929(8) 0.5552(6)
N4 N 0.3824(4) 0.0433(11) 0.5896(4)
N5 N 0.4139(7) 0.5088(12) 0.5809(8)
C9 C 0.3842(7) 0.4666(16) 0.5501(9)
H5 H 0.3663 0.5029 0.5301
C10 C 0.3794(6) 0.3679(12) 0.5475(8)
H6 H 0.3586 0.3428 0.5263
C11 C 0.4028(7) 0.3156(10) 0.5734(10)
C12 C 0.4344(7) 0.3582(14) 0.6024(9)
H7 H 0.4543 0.3242 0.6210
C13 C 0.4353(8) 0.4601(17) 0.6027(9)
H8 H 0.4560 0.4871 0.6234
C16 C 0.3305(5) 0.0526(9) 0.5242(6)
C17 C 0.3059(5) 0.0972(12) 0.4874(6)
H11 H 0.3074 0.1604 0.4837
C18 C 0.2789(6) 0.0432(12) 0.4563(7)
H12 H 0.2689 0.0681 0.4279
Zn2 Zn 0.42749(13) 0.6394(2) 0.59042(16)
I3 I 0.46876(12) 0.66253(16) 0.66320(10)
I4 I 0.36177(10) 0.72501(15) 0.55821(14)
N7 N 0.4637(6) 0.6567(12) 0.5453(7)
C19 C 0.4942(8) 0.6091(16) 0.5442(7)
H13 H 0.4980 0.5572 0.5626
C20 C 0.5234(8) 0.6270(15) 0.5176(7)
H14 H 0.5490 0.6011 0.5224
C21 C 0.5086(8) 0.6886(15) 0.4833(7)
C22 C 0.4673(7) 0.7268(14) 0.4782(7)
H15 H 0.4552 0.7638 0.4541
C23 C 0.4498(7) 0.7018(14) 0.5119(7)
H16 H 0.4234 0.7212 0.5099
C24 C 0.5352(6) 0.6968(11) 0.4488(7)
N8 N 0.5632(5) 0.6360(10) 0.4481(5)
C25 C 0.5861(6) 0.6580(12) 0.4196(5)
N9 N 0.5789(5) 0.7292(11) 0.3928(5)
N10 N 0.5280(6) 0.7714(11) 0.4245(5)
N11 N 0.6795(6) 0.4811(13) 0.4093(6)
C26 C 0.6679(5) 0.5346(14) 0.3788(5)
H17 H 0.6794 0.5330 0.3530
C27 C 0.6415(8) 0.5907(15) 0.3809(7)
H18 H 0.6373 0.6354 0.3583
C28 C 0.6154(7) 0.5961(14) 0.4150(8)
C29 C 0.5513(5) 0.7907(15) 0.3956(7)
C30 C 0.6370(6) 0.5641(14) 0.4509(6)
H19 H 0.6311 0.5853 0.4781
C31 C 0.6692(7) 0.4997(14) 0.4549(7)
H20 H 0.6821 0.4730 0.4820
C32 C 0.5488(7) 0.8705(11) 0.3656(7)
C33 C 0.5204(7) 0.9222(14) 0.3674(7)
H21 H 0.5023 0.9067 0.3859
C34 C 0.5732(6) 0.8891(13) 0.3392(6)
H22 H 0.5948 0.8510 0.3370
C36 C 0.5656(6) 0.9697(13) 0.3138(6)
H24 H 0.5834 0.9853 0.2949
Zn3 Zn 0.72880(10) 0.3971(2) 0.41734(12)
I5 I 0.75225(8) 0.4093(2) 0.34666(8)
I6 I 0.71156(9) 0.25867(14) 0.45375(10)
N13 N 0.7675(5) 0.4626(12) 0.4647(6)
I1_2 I 0.98284(6) 0.26152(11) 0.80448(6)
N1_2 N 0.9821(5) 0.4431(14) 0.7184(5)
C1_2 C 0.9828(6) 0.5340(15) 0.7129(7)
C2_2 C 0.9538(6) 0.5911(13) 0.6864(6)
H2_2 H 0.9480 0.6520 0.6919
C3_2 C 0.9356(6) 0.5358(10) 0.6497(6)
C4_2 C 0.9242(5) 0.4456(11) 0.6588(6)
H3_2 H 0.8999 0.4186 0.6455
C5_2 C 0.9545(5) 0.4016(14) 0.6907(5)
H4_2 H 0.9544 0.3378 0.6916
C6_2 C 0.9113(5) 0.5891(9) 0.6141(6)
N2_2 N 0.9173(4) 0.6764(8) 0.6092(5)
C7_2 C 0.8930(6) 0.7194(9) 0.5771(6)
N3_2 N 0.8640(4) 0.6811(7) 0.5476(6)
C8_2 C 0.8643(5) 0.5929(8) 0.5552(6)
N4_2 N 0.8824(4) 0.5433(11) 0.5896(4)
C9_2 C 0.8842(7) 0.9666(16) 0.5501(9)
C10_2 C 0.8794(6) 0.8679(12) 0.5475(8)
H6_2 H 0.8586 0.8428 0.5263
C11_2 C 0.9028(7) 0.8156(10) 0.5734(10)
C12_2 C 0.9344(7) 0.8582(14) 0.6024(9)
H7_2 H 0.9543 0.8242 0.6210
C13_2 C 0.9353(8) 0.9601(17) 0.6027(9)
H8_2 H 0.9560 0.9871 0.6234
C14 C 0.7878(5) 0.4147(12) 0.4993(7)
H9_2 H 0.7811 0.3544 0.5047
C15_2 C 0.8203(5) 0.4599(9) 0.5277(6)
H10_2 H 0.8361 0.4254 0.5504
C16_2 C 0.8305(5) 0.5526(9) 0.5242(6)
C17_2 C 0.8059(5) 0.5972(12) 0.4874(6)
H11_2 H 0.8074 0.6604 0.4837
C18_2 C 0.7789(6) 0.5432(12) 0.4563(7)
H12_2 H 0.7689 0.5681 0.4279
Zn1 Zn 0.52026(9) 0.8758(2) 0.76849(10)
I1_3 I 0.48284(6) 0.76152(11) 0.80448(6)
I2_2 I 0.57782(6) 0.84591(13) 0.72859(6)
N1_3 N 0.4821(5) 0.9431(14) 0.7184(5)
C4_3 C 0.4242(5) 0.9456(11) 0.6588(6)
H3_3 H 0.3999 0.9186 0.6455
C5_3 C 0.4545(5) 0.9016(14) 0.6907(5)
H4_3 H 0.4544 0.8378 0.6916
N6 N 0.2675(5) 0.9626(12) 0.4647(6)
C14_2 C 0.2878(5) 0.9147(12) 0.4993(7)
H9_3 H 0.2811 0.8544 0.5047
C15_3 C 0.3203(5) 0.9599(9) 0.5277(6)
H10_3 H 0.3361 0.9254 0.5504
N14 N 0.5378(5) 0.9796(9) 0.8147(5)
Zn5 Zn 0.22880(10) 0.8971(2) 0.41734(12)
C35_2 C 0.5141(6) 0.9905(13) 0.8405(6)
H23_2 H 0.4940 0.9483 0.8431
Zn1_2 Zn 0.02026(9) 0.3758(2) 0.76849(10)
I2_3 I 0.07782(6) 0.34591(13) 0.72859(6)
H1_2 H 0.0055 0.5637 0.7288
N11_2 N 0.1795(6) 0.9811(13) 0.4093(6)
C31_2 C 0.1692(7) 0.9997(14) 0.4549(7)
H20_2 H 0.1821 0.9730 0.4820
I5_2 I 0.25225(8) 0.9093(2) 0.34666(8)
I6_2 I 0.21156(9) 0.75867(14) 0.45375(10)
N14_2 N 0.0378(5) 0.4796(9) 0.8147(5)
C21_2 C 0.0086(8) 0.8114(15) 0.9833(7)
C24_2 C 0.0352(6) 0.8032(11) 0.9488(7)
N8_2 N 0.0632(5) 0.8640(10) 0.9481(5)
C25_2 C 0.0861(6) 0.8420(12) 0.9196(5)
N9_2 N 0.0789(5) 0.7708(11) 0.8928(5)
N10_2 N 0.0280(6) 0.7286(11) 0.9245(5)
C26_2 C 0.1679(5) 0.9654(14) 0.8788(5)
H17_2 H 0.1794 0.9670 0.8530
C27_2 C 0.1415(8) 0.9093(15) 0.8809(7)
H18_2 H 0.1373 0.8646 0.8583
C28_2 C 0.1154(7) 0.9039(14) 0.9150(8)
C29_2 C 0.0513(5) 0.7093(15) 0.8956(7)
C30_2 C 0.1370(6) 0.9359(14) 0.9509(6)
H19_2 H 0.1311 0.9147 0.9781
C32_2 C 0.0488(7) 0.6295(11) 0.8656(7)
C33_2 C 0.0204(7) 0.5778(14) 0.8674(7)
H21_2 H 0.0023 0.5933 0.8859
C34_2 C 0.0732(6) 0.6109(13) 0.8392(6)
H22_2 H 0.0948 0.6490 0.8370
C35_3 C 0.0141(6) 0.4905(13) 0.8405(6)
C36_2 C 0.0656(6) 0.5303(13) 0.8138(6)
H24_2 H 0.0834 0.5147 0.7949
N6_2 N 0.2675(5) 0.0374(12) 0.9647(6)
C14_3 C 0.2878(5) 0.0853(12) 0.9993(7)
Zn5_2 Zn 0.22880(10) 0.1029(2) 0.91734(12)
N11_3 N 0.1795(6) 0.0189(13) 0.9093(6)
C31_3 C 0.1692(7) 0.0003(14) 0.9549(7)
H20_3 H 0.1821 0.0270 0.9820
I5_3 I 0.25225(8) 0.0907(2) 0.84666(8)
I6_3 I 0.21156(9) 0.24133(14) 0.95375(10)
C1_3 C 0.4828(6) 0.9660(15) 0.2129(7)
H1_3 H 0.5055 0.9363 0.2288
C2_3 C 0.4538(6) 0.9089(13) 0.1864(6)
H2_3 H 0.4480 0.8480 0.1919
C3_3 C 0.4356(6) 0.9642(10) 0.1497(6)
C6_3 C 0.4113(5) 0.9109(9) 0.1141(6)
N2_3 N 0.4173(4) 0.8236(8) 0.1092(5)
C7_3 C 0.3930(6) 0.7806(9) 0.0771(6)
N3_3 N 0.3640(4) 0.8189(7) 0.0476(6)
C8_3 C 0.3643(5) 0.9071(8) 0.0552(6)
N4_3 N 0.3824(4) 0.9567(11) 0.0896(4)
N5_2 N 0.4139(7) 0.4912(12) 0.0809(8)
C9_3 C 0.3842(7) 0.5334(16) 0.0501(9)
H5_2 H 0.3663 0.4971 0.0301
C10_3 C 0.3794(6) 0.6321(12) 0.0475(8)
H6_3 H 0.3586 0.6572 0.0263
C11_3 C 0.4028(7) 0.6844(10) 0.0734(10)
C12_3 C 0.4344(7) 0.6418(14) 0.1024(9)
H7_3 H 0.4543 0.6758 0.1210
C13_3 C 0.4353(8) 0.5399(17) 0.1027(9)
H8_3 H 0.4560 0.5129 0.1234
C16_3 C 0.3305(5) 0.9474(9) 0.0242(6)
Zn2_2 Zn 0.42749(13) 0.3606(2) 0.09042(16)
I3_2 I 0.46876(12) 0.33747(16) 0.16320(10)
I4_2 I 0.36177(10) 0.27499(15) 0.05821(14)
N7_2 N 0.4637(6) 0.3433(12) 0.0453(7)
C19_2 C 0.4942(8) 0.3909(16) 0.0442(7)
H13_2 H 0.4980 0.4428 0.0626
C20_2 C 0.5234(8) 0.3730(15) 0.0176(7)
H14_2 H 0.5490 0.3989 0.0224
C23_2 C 0.4498(7) 0.2982(14) 0.0119(7)
H16_2 H 0.4234 0.2788 0.0099
C17_3 C 0.3059(5) 0.9028(12) 0.9874(6)
H11_3 H 0.3074 0.8396 0.9837
C18_3 C 0.2789(6) 0.9568(12) 0.9563(7)
H12_3 H 0.2689 0.9319 0.9279
C21_3 C 0.5086(8) 0.3114(15) 0.9833(7)
C22_2 C 0.4673(7) 0.2732(14) 0.9782(7)
H15_2 H 0.4552 0.2362 0.9541
C24_3 C 0.5352(6) 0.3032(11) 0.9488(7)
N8_3 N 0.5632(5) 0.3640(10) 0.9481(5)
C25_3 C 0.5861(6) 0.3420(12) 0.9196(5)
N9_3 N 0.5789(5) 0.2708(11) 0.8928(5)
N10_3 N 0.5280(6) 0.2286(11) 0.9245(5)
N11_4 N 0.6795(6) 0.5189(13) 0.9093(6)
C26_3 C 0.6679(5) 0.4654(14) 0.8788(5)
H17_3 H 0.6794 0.4670 0.8530
C27_3 C 0.6415(8) 0.4093(15) 0.8809(7)
H18_3 H 0.6373 0.3646 0.8583
C28_3 C 0.6154(7) 0.4039(14) 0.9150(8)
C29_3 C 0.5513(5) 0.2093(15) 0.8956(7)
C30_3 C 0.6370(6) 0.4359(14) 0.9509(6)
H19_3 H 0.6311 0.4147 0.9781
C31_4 C 0.6692(7) 0.5003(14) 0.9549(7)
H20_4 H 0.6821 0.5270 0.9820
C32_3 C 0.5488(7) 0.1295(11) 0.8656(7)
C33_3 C 0.5204(7) 0.0778(14) 0.8674(7)
H21_3 H 0.5023 0.0933 0.8859
C34_3 C 0.5732(6) 0.1109(13) 0.8392(6)
H22_3 H 0.5948 0.1490 0.8370
C36_3 C 0.5656(6) 0.0303(13) 0.8138(6)
H24_3 H 0.5834 0.0147 0.7949
Zn3_2 Zn 0.72880(10) 0.6029(2) 0.91734(12)
I5_4 I 0.75225(8) 0.5907(2) 0.84666(8)
I6_4 I 0.71156(9) 0.74133(14) 0.95375(10)
N13_2 N 0.7675(5) 0.5374(12) 0.9647(6)
C14_4 C 0.7878(5) 0.5853(12) 0.9993(7)
C17_4 C 0.8059(5) 0.4028(12) 0.9874(6)
H11_4 H 0.8074 0.3396 0.9837
C18_4 C 0.7789(6) 0.4568(12) 0.9563(7)
H12_4 H 0.7689 0.4319 0.9279
C20_3 C 0.0234(8) 0.1270(15) 0.5176(7)
H14_3 H 0.0490 0.1011 0.5224
C21_4 C 0.0086(8) 0.1886(15) 0.4833(7)
C24_4 C 0.0352(6) 0.1968(11) 0.4488(7)
N8_4 N 0.0632(5) 0.1360(10) 0.4481(5)
C25_4 C 0.0861(6) 0.1580(12) 0.4196(5)
N9_4 N 0.0789(5) 0.2292(11) 0.3928(5)
N10_4 N 0.0280(6) 0.2714(11) 0.4245(5)
C26_4 C 0.1679(5) 0.0346(14) 0.3788(5)
H17_4 H 0.1794 0.0330 0.3530
C27_4 C 0.1415(8) 0.0907(15) 0.3809(7)
H18_4 H 0.1373 0.1354 0.3583
C28_4 C 0.1154(7) 0.0961(14) 0.4150(8)
C29_4 C 0.0513(5) 0.2907(15) 0.3956(7)
C30_4 C 0.1370(6) 0.0641(14) 0.4509(6)
H19_4 H 0.1311 0.0853 0.4781
C32_4 C 0.0488(7) 0.3705(11) 0.3656(7)
C33_4 C 0.0204(7) 0.4222(14) 0.3674(7)
H21_4 H 0.0023 0.4067 0.3859
C34_4 C 0.0732(6) 0.3891(13) 0.3392(6)
H22_4 H 0.0948 0.3510 0.3370
N12_2 N 0.0378(5) 0.5204(9) 0.3147(5)
C35_4 C 0.0141(6) 0.5095(13) 0.3405(6)
C36_4 C 0.0656(6) 0.4697(13) 0.3138(6)
H24_4 H 0.0834 0.4853 0.2949
Zn4_2 Zn 0.02026(9) 0.6242(2) 0.26849(10)
I2_4 I 0.07782(6) 0.65409(13) 0.22859(6)
H1_4 H 0.0055 0.4363 0.2288
N5_3 N 0.9139(7) 0.0088(12) 0.5809(8)
H5_3 H 0.8663 0.0029 0.5301
Zn2_3 Zn 0.92749(13) 0.1394(2) 0.59042(16)
I3_3 I 0.96876(12) 0.16253(16) 0.66320(10)
I4_3 I 0.86177(10) 0.22501(15) 0.55821(14)
N7_3 N 0.9637(6) 0.1567(12) 0.5453(7)
C19_3 C 0.9942(8) 0.1091(16) 0.5442(7)
H13_3 H 0.9980 0.0572 0.5626
C22_3 C 0.9673(7) 0.2268(14) 0.4782(7)
H15_3 H 0.9552 0.2638 0.4541
C23_3 C 0.9498(7) 0.2018(14) 0.5119(7)
H16_3 H 0.9234 0.2212 0.5099
H23_3 H 0.9940 0.5517 0.3431
C20_4 C 0.0234(8) 0.8730(15) 0.0176(7)
H14_4 H 0.0490 0.8989 0.0224
I1_4 I 0.98284(6) 0.73848(11) 0.30448(6)
N1_4 N 0.9821(5) 0.5569(14) 0.2184(5)
C1_4 C 0.9828(6) 0.4660(15) 0.2129(7)
C2_4 C 0.9538(6) 0.4089(13) 0.1864(6)
H2_4 H 0.9480 0.3480 0.1919
C3_4 C 0.9356(6) 0.4642(10) 0.1497(6)
C4_4 C 0.9242(5) 0.5544(11) 0.1588(6)
H3_4 H 0.8999 0.5814 0.1455
C5_4 C 0.9545(5) 0.5984(14) 0.1907(5)
H4_4 H 0.9544 0.6622 0.1916
C6_4 C 0.9113(5) 0.4109(9) 0.1141(6)
N2_4 N 0.9173(4) 0.3236(8) 0.1092(5)
C7_4 C 0.8930(6) 0.2806(9) 0.0771(6)
N3_4 N 0.8640(4) 0.3189(7) 0.0476(6)
C8_4 C 0.8643(5) 0.4071(8) 0.0552(6)
N4_4 N 0.8824(4) 0.4567(11) 0.0896(4)
C9_4 C 0.8842(7) 0.0334(16) 0.0501(9)
C10_4 C 0.8794(6) 0.1321(12) 0.0475(8)
H6_4 H 0.8586 0.1572 0.0263
C11_4 C 0.9028(7) 0.1844(10) 0.0734(10)
C12_4 C 0.9344(7) 0.1418(14) 0.1024(9)
H7_4 H 0.9543 0.1758 0.1210
C13_4 C 0.9353(8) 0.0399(17) 0.1027(9)
H8_4 H 0.9560 0.0129 0.1234
H9_4 H 0.7811 0.6456 0.0047
C15_4 C 0.8203(5) 0.5401(9) 0.0277(6)
H10_4 H 0.8361 0.5746 0.0504
C16_4 C 0.8305(5) 0.4474(9) 0.0242(6)
N5_4 N 0.9139(7) 0.9912(12) 0.0809(8)
H5_4 H 0.8663 0.9971 0.0301
Zn2_4 Zn 0.92749(13) 0.8606(2) 0.09042(16)
I3_4 I 0.96876(12) 0.83747(16) 0.16320(10)
I4_4 I 0.86177(10) 0.77499(15) 0.05821(14)
N7_4 N 0.9637(6) 0.8433(12) 0.0453(7)
C19_4 C 0.9942(8) 0.8909(16) 0.0442(7)
H13_4 H 0.9980 0.9428 0.0626
C23_4 C 0.9498(7) 0.7982(14) 0.0119(7)
H16_4 H 0.9234 0.7788 0.0099
C22_4 C 0.9673(7) 0.7732(14) 0.9782(7)
H15_4 H 0.9552 0.7362 0.9541
H23_4 H 0.9940 0.4483 0.8431
N27 N 0.0207(6) 0.9875(14) 0.8055(6)
C39 C 0.8749(6) 0.0534(13) 0.7024(6)
C40 C 0.8938(10) 0.0994(19) 0.7396(8)
H27 H 0.8852 0.1572 0.7468
C41 C 0.9244(7) 0.0597(15) 0.7647(8)
H28 H 0.9416 0.0938 0.7865
C42 C 0.8435(5) 0.1003(8) 0.6700(5)
N16 N 0.8234(4) 0.0494(8) 0.6371(4)
C43 C 0.7927(4) 0.0905(8) 0.6101(5)
N17 N 0.7790(4) 0.1750(8) 0.6129(5)
C44 C 0.8057(5) 0.2200(10) 0.6431(6)
N18 N 0.8342(4) 0.1876(8) 0.6757(5)
C45 C 0.7156(7) 0.0287(15) 0.5051(8)
H29 H 0.6954 0.0580 0.4846
C46 C 0.7386(5) 0.0784(10) 0.5418(5)
H30 H 0.7324 0.1396 0.5457
C47 C 0.7706(5) 0.0375(10) 0.5726(5)
N20 N 0.7843(6) 0.5004(12) 0.6379(6)
C50 C 0.8151(7) 0.4759(16) 0.6661(8)
H33 H 0.8304 0.5185 0.6852
C51 C 0.8259(7) 0.3817(14) 0.6680(8)
H34 H 0.8505 0.3629 0.6849
C52 C 0.7996(7) 0.3183(11) 0.6445(8)
C53 C 0.7707(7) 0.3509(15) 0.6187(9)
H35 H 0.7560 0.3099 0.5982
C54 C 0.7572(8) 0.4382(15) 0.6157(8)
H36 H 0.7317 0.4546 0.6000
Zn8 Zn 0.77674(14) 0.6397(2) 0.63549(15)
I11 I 0.83484(7) 0.73173(13) 0.65480(8)
I12 I 0.72868(8) 0.65688(14) 0.55608(8)
N21 N 0.7451(7) 0.6693(15) 0.6858(8)
C55 C 0.7138(10) 0.6361(16) 0.6816(8)
H37 H 0.7059 0.6021 0.6551
C56 C 0.6872(6) 0.6389(14) 0.7086(10)
H38 H 0.6640 0.6032 0.7030
C57 C 0.6954(8) 0.6962(16) 0.7449(10)
C58 C 0.7263(7) 0.7431(14) 0.7526(8)
H39 H 0.7308 0.7874 0.7753
C59 C 0.7568(6) 0.7237(13) 0.7222(7)
H40 H 0.7826 0.7486 0.7287
C60 C 0.6693(6) 0.7047(14) 0.7785(7)
N22 N 0.6366(5) 0.6507(12) 0.7792(6)
C61 C 0.6178(6) 0.6571(12) 0.8125(6)
N23 N 0.6212(4) 0.7260(9) 0.8397(4)
C62 C 0.6496(5) 0.7837(14) 0.8317(5)
N24 N 0.6739(5) 0.7798(11) 0.8035(5)
N25 N 0.5207(6) 0.4875(14) 0.8055(6)
C63 C 0.5326(7) 0.5372(15) 0.8385(8)
H41 H 0.5177 0.5364 0.8616
C64 C 0.5665(7) 0.5953(13) 0.8448(9)
H42 H 0.5757 0.6295 0.8709
C65 C 0.5827(6) 0.5948(12) 0.8103(8)
C66 C 0.5740(7) 0.5185(17) 0.7790(7)
H43 H 0.5901 0.5055 0.7579
C67 C 0.5449(7) 0.4728(18) 0.7815(7)
H44 H 0.5406 0.4208 0.7633
C69 C 0.6878(8) 0.9353(16) 0.8524(8)
H46 H 0.7040 0.9266 0.8310
C70 C 0.6566(8) 0.8694(12) 0.8582(7)
C71 C 0.6326(8) 0.883(2) 0.8872(9)
H47 H 0.6117 0.8429 0.8891
C72 C 0.6397(7) 0.9606(15) 0.9150(8)
H48 H 0.6234 0.9728 0.9361
Zn9 Zn 0.47448(10) 0.3979(2) 0.80581(11)
I7 I 0.49087(8) 0.25762(14) 0.76978(10)
I8 I 0.45028(7) 0.4100(2) 0.87749(8)
N15 N 0.4328(5) 0.4586(12) 0.7594(6)
C37 C 0.4088(6) 0.4227(17) 0.7222(8)
H25 H 0.4111 0.3602 0.7169
C38 C 0.3834(8) 0.4675(19) 0.6944(9)
H26 H 0.3705 0.4395 0.6676
C39_2 C 0.3749(6) 0.5534(13) 0.7024(6)
C40_2 C 0.3938(10) 0.5994(19) 0.7396(8)
H27_2 H 0.3852 0.6572 0.7468
C41_2 C 0.4244(7) 0.5597(15) 0.7647(8)
H28_2 H 0.4416 0.5938 0.7865
C42_2 C 0.3435(5) 0.6003(8) 0.6700(5)
N16_2 N 0.3234(4) 0.5494(8) 0.6371(4)
C43_2 C 0.2927(4) 0.5905(8) 0.6101(5)
N17_2 N 0.2790(4) 0.6750(8) 0.6129(5)
C44_2 C 0.3057(5) 0.7200(10) 0.6431(6)
N18_2 N 0.3342(4) 0.6876(8) 0.6757(5)
N19 N 0.2226(5) 0.4462(10) 0.5005(6)
C45_2 C 0.2156(7) 0.5287(15) 0.5051(8)
H29_2 H 0.1954 0.5580 0.4846
C46_2 C 0.2386(5) 0.5784(10) 0.5418(5)
H30_2 H 0.2324 0.6396 0.5457
C47_2 C 0.2706(5) 0.5375(10) 0.5726(5)
C48 C 0.2706(5) 0.4488(12) 0.5666(7)
H31 H 0.2850 0.4135 0.5901
C49 C 0.2517(6) 0.4038(12) 0.5291(7)
H32 H 0.2590 0.3440 0.5234
C50_2 C 0.3151(7) 0.9759(16) 0.6661(8)
C51_2 C 0.3259(7) 0.8817(14) 0.6680(8)
H34_2 H 0.3505 0.8629 0.6849
C52_2 C 0.2996(7) 0.8183(11) 0.6445(8)
C53_2 C 0.2707(7) 0.8509(15) 0.6187(9)
H35_2 H 0.2560 0.8099 0.5982
C54_2 C 0.2572(8) 0.9382(15) 0.6157(8)
H36_2 H 0.2317 0.9546 0.6000
Zn7 Zn 0.18158(10) 0.37298(19) 0.45700(9)
I9 I 0.21929(6) 0.26082(11) 0.41888(6)
I10 I 0.12518(6) 0.34570(14) 0.49514(6)
C67_2 C 0.0449(7) 0.9728(18) 0.7815(7)
H44_2 H 0.0406 0.9208 0.7633
N28 N 0.1700(6) 0.4829(11) 0.4111(6)
N20_2 N 0.2843(6) 0.9996(12) 0.1379(6)
H33_2 H 0.3304 0.9815 0.1852
Zn8_2 Zn 0.27674(14) 0.8603(2) 0.13549(15)
I11_2 I 0.33484(7) 0.76827(13) 0.15480(8)
I12_2 I 0.22868(8) 0.84312(14) 0.05608(8)
N21_2 N 0.2451(7) 0.8307(15) 0.1858(8)
C55_2 C 0.2138(10) 0.8639(16) 0.1816(8)
H37_2 H 0.2059 0.8979 0.1551
C56_2 C 0.1872(6) 0.8611(14) 0.2086(10)
H38_2 H 0.1640 0.8968 0.2030
C57_2 C 0.1954(8) 0.8038(16) 0.2449(10)
C58_2 C 0.2263(7) 0.7569(14) 0.2526(8)
H39_2 H 0.2308 0.7126 0.2753
C59_2 C 0.2568(6) 0.7763(13) 0.2222(7)
H40_2 H 0.2826 0.7514 0.2287
C60_2 C 0.1693(6) 0.7953(14) 0.2785(7)
N22_2 N 0.1366(5) 0.8493(12) 0.2792(6)
C61_2 C 0.1178(6) 0.8429(12) 0.3125(6)
N23_2 N 0.1212(4) 0.7740(9) 0.3397(4)
C62_2 C 0.1496(5) 0.7163(14) 0.3317(5)
N24_2 N 0.1739(5) 0.7202(11) 0.3035(5)
C63_2 C 0.0326(7) 0.9628(15) 0.3385(8)
H41_2 H 0.0177 0.9636 0.3616
C64_2 C 0.0665(7) 0.9047(13) 0.3448(9)
H42_2 H 0.0757 0.8705 0.3709
C65_2 C 0.0827(6) 0.9052(12) 0.3103(8)
C66_2 C 0.0740(7) 0.9815(17) 0.2790(7)
H43_2 H 0.0901 0.9945 0.2579
C68 C 0.1913(7) 0.4969(17) 0.3775(8)
H45 H 0.2099 0.4522 0.3733
C69_2 C 0.1878(8) 0.5647(16) 0.3524(8)
H46_2 H 0.2040 0.5734 0.3310
C70_2 C 0.1566(8) 0.6306(12) 0.3582(7)
C71_2 C 0.1326(8) 0.617(2) 0.3872(9)
H47_2 H 0.1117 0.6571 0.3891
C72_2 C 0.1397(7) 0.5394(15) 0.4150(8)
H48_2 H 0.1234 0.5272 0.4361
N26 N 0.6700(6) 0.0171(11) 0.9111(6)
C68_2 C 0.6913(7) 0.0031(17) 0.8775(8)
H45_2 H 0.7099 0.0478 0.8733
Zn10 Zn 0.68158(10) 0.12702(19) 0.95700(9)
I9_2 I 0.71929(6) 0.23918(11) 0.91888(6)
I10_2 I 0.62518(6) 0.15430(14) 0.99514(6)
Zn6 Zn 0.97448(10) 0.8979(2) 0.80581(11)
I7_2 I 0.99087(8) 0.75762(14) 0.76978(10)
I8_2 I 0.95028(7) 0.9100(2) 0.87749(8)
N15_2 N 0.9328(5) 0.9586(12) 0.7594(6)
C37_2 C 0.9088(6) 0.9227(17) 0.7222(8)
H25_2 H 0.9111 0.8602 0.7169
C38_2 C 0.8834(8) 0.9675(19) 0.6944(9)
H26_2 H 0.8705 0.9395 0.6676
N19_2 N 0.7226(5) 0.9462(10) 0.5005(6)
C48_2 C 0.7706(5) 0.9488(12) 0.5666(7)
H31_2 H 0.7850 0.9135 0.5901
C49_2 C 0.7517(6) 0.9038(12) 0.5291(7)
H32_2 H 0.7590 0.8440 0.5234
Zn7_2 Zn 0.68158(10) 0.87298(19) 0.45700(9)
I9_3 I 0.71929(6) 0.76082(11) 0.41888(6)
I10_3 I 0.62518(6) 0.84570(14) 0.49514(6)
N28_2 N 0.6700(6) 0.9829(11) 0.4111(6)
C68_3 C 0.6913(7) 0.9969(17) 0.3775(8)
H45_3 H 0.7099 0.9522 0.3733
N27_2 N 0.0207(6) 0.0125(14) 0.3055(6)
C39_3 C 0.8749(6) 0.9466(13) 0.2024(6)
C40_3 C 0.8938(10) 0.9006(19) 0.2396(8)
H27_3 H 0.8852 0.8428 0.2468
C41_3 C 0.9244(7) 0.9403(15) 0.2647(8)
H28_3 H 0.9416 0.9062 0.2865
C42_3 C 0.8435(5) 0.8997(8) 0.1700(5)
N16_3 N 0.8234(4) 0.9506(8) 0.1371(4)
C43_3 C 0.7927(4) 0.9095(8) 0.1101(5)
N17_3 N 0.7790(4) 0.8250(8) 0.1129(5)
C44_3 C 0.8057(5) 0.7800(10) 0.1431(6)
N18_3 N 0.8342(4) 0.8124(8) 0.1757(5)
C45_3 C 0.7156(7) 0.9713(15) 0.0051(8)
C46_3 C 0.7386(5) 0.9216(10) 0.0418(5)
H30_3 H 0.7324 0.8604 0.0457
C47_3 C 0.7706(5) 0.9625(10) 0.0726(5)
N20_3 N 0.7843(6) 0.4996(12) 0.1379(6)
C50_3 C 0.8151(7) 0.5241(16) 0.1661(8)
H33_3 H 0.8304 0.4815 0.1852
C51_3 C 0.8259(7) 0.6183(14) 0.1680(8)
H34_3 H 0.8505 0.6371 0.1849
C52_3 C 0.7996(7) 0.6817(11) 0.1445(8)
C53_3 C 0.7707(7) 0.6491(15) 0.1187(9)
H35_3 H 0.7560 0.6901 0.0982
C54_3 C 0.7572(8) 0.5618(15) 0.1157(8)
H36_3 H 0.7317 0.5454 0.1000
Zn8_3 Zn 0.77674(14) 0.3603(2) 0.13549(15)
I11_3 I 0.83484(7) 0.26827(13) 0.15480(8)
I12_3 I 0.72868(8) 0.34312(14) 0.05608(8)
N21_3 N 0.7451(7) 0.3307(15) 0.1858(8)
C55_3 C 0.7138(10) 0.3639(16) 0.1816(8)
H37_3 H 0.7059 0.3979 0.1551
C56_3 C 0.6872(6) 0.3611(14) 0.2086(10)
H38_3 H 0.6640 0.3968 0.2030
C57_3 C 0.6954(8) 0.3038(16) 0.2449(10)
C58_3 C 0.7263(7) 0.2569(14) 0.2526(8)
H39_3 H 0.7308 0.2126 0.2753
C59_3 C 0.7568(6) 0.2763(13) 0.2222(7)
H40_3 H 0.7826 0.2514 0.2287
C60_3 C 0.6693(6) 0.2953(14) 0.2785(7)
N22_3 N 0.6366(5) 0.3493(12) 0.2792(6)
C61_3 C 0.6178(6) 0.3429(12) 0.3125(6)
N23_3 N 0.6212(4) 0.2740(9) 0.3397(4)
C62_3 C 0.6496(5) 0.2163(14) 0.3317(5)
N24_3 N 0.6739(5) 0.2202(11) 0.3035(5)
N25_2 N 0.5207(6) 0.5125(14) 0.3055(6)
C63_3 C 0.5326(7) 0.4628(15) 0.3385(8)
H41_3 H 0.5177 0.4636 0.3616
C64_3 C 0.5665(7) 0.4047(13) 0.3448(9)
H42_3 H 0.5757 0.3705 0.3709
C65_3 C 0.5827(6) 0.4052(12) 0.3103(8)
C66_3 C 0.5740(7) 0.4815(17) 0.2790(7)
H43_3 H 0.5901 0.4945 0.2579
C67_3 C 0.5449(7) 0.5272(18) 0.2815(7)
H44_3 H 0.5406 0.5792 0.2633
C69_3 C 0.6878(8) 0.0647(16) 0.3524(8)
H46_3 H 0.7040 0.0734 0.3310
C70_3 C 0.6566(8) 0.1306(12) 0.3582(7)
C71_3 C 0.6326(8) 0.117(2) 0.3872(9)
H47_3 H 0.6117 0.1571 0.3891
C72_3 C 0.6397(7) 0.0394(15) 0.4150(8)
H48_3 H 0.6234 0.0272 0.4361
Zn9_2 Zn 0.47448(10) 0.6021(2) 0.30581(11)
I7_3 I 0.49087(8) 0.74238(14) 0.26978(10)
I8_3 I 0.45028(7) 0.5900(2) 0.37749(8)
N15_3 N 0.4328(5) 0.5414(12) 0.2594(6)
C37_3 C 0.4088(6) 0.5773(17) 0.2222(8)
H25_3 H 0.4111 0.6398 0.2169
C38_3 C 0.3834(8) 0.5325(19) 0.1944(9)
H26_3 H 0.3705 0.5605 0.1676
C39_4 C 0.3749(6) 0.4466(13) 0.2024(6)
C40_4 C 0.3938(10) 0.4006(19) 0.2396(8)
H27_4 H 0.3852 0.3428 0.2468
C41_4 C 0.4244(7) 0.4403(15) 0.2647(8)
H28_4 H 0.4416 0.4062 0.2865
C42_4 C 0.3435(5) 0.3997(8) 0.1700(5)
N16_4 N 0.3234(4) 0.4506(8) 0.1371(4)
C43_4 C 0.2927(4) 0.4095(8) 0.1101(5)
N17_4 N 0.2790(4) 0.3250(8) 0.1129(5)
C44_4 C 0.3057(5) 0.2800(10) 0.1431(6)
N18_4 N 0.3342(4) 0.3124(8) 0.1757(5)
N19_3 N 0.2226(5) 0.5538(10) 0.0005(6)
C45_4 C 0.2156(7) 0.4713(15) 0.0051(8)
C46_4 C 0.2386(5) 0.4216(10) 0.0418(5)
H30_4 H 0.2324 0.3604 0.0457
C47_4 C 0.2706(5) 0.4625(10) 0.0726(5)
C48_3 C 0.2706(5) 0.5512(12) 0.0666(7)
H31_3 H 0.2850 0.5865 0.0901
C49_3 C 0.2517(6) 0.5962(12) 0.0291(7)
H32_3 H 0.2590 0.6560 0.0234
C50_4 C 0.3151(7) 0.0241(16) 0.1661(8)
C51_4 C 0.3259(7) 0.1183(14) 0.1680(8)
H34_4 H 0.3505 0.1371 0.1849
C52_4 C 0.2996(7) 0.1817(11) 0.1445(8)
C53_4 C 0.2707(7) 0.1491(15) 0.1187(9)
H35_4 H 0.2560 0.1901 0.0982
C54_4 C 0.2572(8) 0.0618(15) 0.1157(8)
H36_4 H 0.2317 0.0454 0.1000
C67_4 C 0.0449(7) 0.0272(18) 0.2815(7)
H44_4 H 0.0406 0.0792 0.2633
Zn6_2 Zn 0.97448(10) 0.1021(2) 0.30581(11)
I7_4 I 0.99087(8) 0.24238(14) 0.26978(10)
I8_4 I 0.95028(7) 0.0900(2) 0.37749(8)
N15_4 N 0.9328(5) 0.0414(12) 0.2594(6)
C37_4 C 0.9088(6) 0.0773(17) 0.2222(8)
H25_4 H 0.9111 0.1398 0.2169
C38_4 C 0.8834(8) 0.0325(19) 0.1944(9)
H26_4 H 0.8705 0.0605 0.1676
N19_4 N 0.7226(5) 0.0538(10) 0.0005(6)
C48_4 C 0.7706(5) 0.0512(12) 0.0666(7)
H31_4 H 0.7850 0.0865 0.0901
C49_4 C 0.7517(6) 0.0962(12) 0.0291(7)
H32_4 H 0.7590 0.1560 0.0234
H29_3 H 0.6954 0.9420 0.9846
N20_4 N 0.2843(6) 0.0004(12) 0.6379(6)
H33_4 H 0.3304 0.0185 0.6852
Zn8_4 Zn 0.27674(14) 0.1397(2) 0.63549(15)
I11_4 I 0.33484(7) 0.23173(13) 0.65480(8)
I12_4 I 0.22868(8) 0.15688(14) 0.55608(8)
N21_4 N 0.2451(7) 0.1693(15) 0.6858(8)
C55_4 C 0.2138(10) 0.1361(16) 0.6816(8)
H37_4 H 0.2059 0.1021 0.6551
C56_4 C 0.1872(6) 0.1389(14) 0.7086(10)
H38_4 H 0.1640 0.1032 0.7030
C57_4 C 0.1954(8) 0.1962(16) 0.7449(10)
C58_4 C 0.2263(7) 0.2431(14) 0.7526(8)
H39_4 H 0.2308 0.2874 0.7753
C59_4 C 0.2568(6) 0.2237(13) 0.7222(7)
H40_4 H 0.2826 0.2486 0.7287
C60_4 C 0.1693(6) 0.2047(14) 0.7785(7)
N22_4 N 0.1366(5) 0.1507(12) 0.7792(6)
C61_4 C 0.1178(6) 0.1571(12) 0.8125(6)
N23_4 N 0.1212(4) 0.2260(9) 0.8397(4)
C62_4 C 0.1496(5) 0.2837(14) 0.8317(5)
N24_4 N 0.1739(5) 0.2798(11) 0.8035(5)
C63_4 C 0.0326(7) 0.0372(15) 0.8385(8)
H41_4 H 0.0177 0.0364 0.8616
C64_4 C 0.0665(7) 0.0953(13) 0.8448(9)
H42_4 H 0.0757 0.1295 0.8709
C65_4 C 0.0827(6) 0.0948(12) 0.8103(8)
C66_4 C 0.0740(7) 0.0185(17) 0.7790(7)
H43_4 H 0.0901 0.0055 0.7579
N26_2 N 0.1700(6) 0.5171(11) 0.9111(6)
C68_4 C 0.1913(7) 0.5031(17) 0.8775(8)
H45_4 H 0.2099 0.5478 0.8733
C69_4 C 0.1878(8) 0.4353(16) 0.8524(8)
H46_4 H 0.2040 0.4266 0.8310
C70_4 C 0.1566(8) 0.3694(12) 0.8582(7)
C71_4 C 0.1326(8) 0.383(2) 0.8872(9)
H47_4 H 0.1117 0.3429 0.8891
C72_4 C 0.1397(7) 0.4606(15) 0.9150(8)
H48_4 H 0.1234 0.4728 0.9361
Zn10_2 Zn 0.18158(10) 0.62702(19) 0.95700(9)
H29_4 H 0.1954 0.4420 0.9846
I9_4 I 0.21929(6) 0.73918(11) 0.91888(6)
I10_4 I 0.12518(6) 0.65430(14) 0.99514(6)
loop_
_geom_bond_atom_site_label_1
_geom_bond_atom_site_label_2
_geom_bond_site_symmetry_1
_geom_bond_site_symmetry_2
N12 C35 1_555 1_555
H23 C35 1_555 1_555
Zn4 N12 1_555 1_555
Zn4 I1 1_555 1_555
I2 Zn4 1_555 1_555
N1 Zn4 1_555 1_555
H3 C4 1_555 1_555
C5 N1 1_555 1_555
H4 C5 1_555 1_555
H10 C15 1_555 1_555
C4 C5 1_555 1_555
H1 C1 1_555 1_555
C2 C1 1_555 1_555
H2 C2 1_555 1_555
C3 C2 1_555 1_555
C6 C3 1_555 1_555
N2 C6 1_555 1_555
C7 N2 1_555 1_555
N3 C7 1_555 1_555
C8 N3 1_555 1_555
N4 C6 1_555 1_555
N5 C9 1_555 1_555
C9 H5 1_555 1_555
C10 C9 1_555 1_555
H6 C10 1_555 1_555
C11 C7 1_555 1_555
C12 C11 1_555 1_555
H7 C12 1_555 1_555
C13 N5 1_555 1_555
H8 C13 1_555 1_555
C16 C8 1_555 1_555
C17 C16 1_555 1_555
H11 C17 1_555 1_555
H12 C18 1_555 1_555
Zn2 N5 1_555 1_555
I3 Zn2 1_555 1_555
I4 Zn2 1_555 1_555
N7 Zn2 1_555 1_555
C19 N7 1_555 1_555
H13 C19 1_555 1_555
C20 C19 1_555 1_555
H14 C20 1_555 1_555
C21 C20 1_555 1_555
C22 C21 1_555 1_555
H15 C22 1_555 1_555
C23 N7 1_555 1_555
H16 C23 1_555 1_555
C24 C21 1_555 1_555
N8 C24 1_555 1_555
C25 N8 1_555 1_555
N9 C25 1_555 1_555
N10 C24 1_555 1_555
N11 C26 1_555 1_555
C26 H17 1_555 1_555
C27 C26 1_555 1_555
H18 C27 1_555 1_555
C28 C25 1_555 1_555
C29 N9 1_555 1_555
C30 C28 1_555 1_555
H19 C30 1_555 1_555
C31 N11 1_555 1_555
H20 C31 1_555 1_555
C32 C29 1_555 1_555
C33 C32 1_555 1_555
H21 C33 1_555 1_555
C34 C32 1_555 1_555
H22 C34 1_555 1_555
C36 C34 1_555 1_555
H24 C36 1_555 1_555
Zn3 N11 1_555 1_555
I5 Zn3 1_555 1_555
I6 Zn3 1_555 1_555
N13 Zn3 1_555 1_555
C8 N4 1_555 1_555
C10 C11 1_555 1_555
C12 C13 1_555 1_555
C17 C18 1_555 1_555
C22 C23 1_555 1_555
N10 C29 1_555 1_555
C27 C28 1_555 1_555
C30 C31 1_555 1_555
C1_2 N1_2 1_555 1_555
C2_2 C1_2 1_555 1_555
H2_2 C2_2 1_555 1_555
C3_2 C2_2 1_555 1_555
C4_2 C3_2 1_555 1_555
H3_2 C4_2 1_555 1_555
C5_2 N1_2 1_555 1_555
H4_2 C5_2 1_555 1_555
C6_2 C3_2 1_555 1_555
N2_2 C6_2 1_555 1_555
C7_2 N2_2 1_555 1_555
N3_2 C7_2 1_555 1_555
C8_2 N3_2 1_555 1_555
N4_2 C6_2 1_555 1_555
C10_2 C9_2 1_555 1_555
H6_2 C10_2 1_555 1_555
C11_2 C7_2 1_555 1_555
C12_2 C11_2 1_555 1_555
H7_2 C12_2 1_555 1_555
H8_2 C13_2 1_555 1_555
N13 C14 1_555 1_555
C14 H9_2 1_555 1_555
C15_2 C14 1_555 1_555
H10_2 C15_2 1_555 1_555
C16_2 C8_2 1_555 1_555
C17_2 C16_2 1_555 1_555
H11_2 C17_2 1_555 1_555
C18_2 N13 1_555 1_555
H12_2 C18_2 1_555 1_555
C4_2 C5_2 1_555 1_555
C8_2 N4_2 1_555 1_555
C10_2 C11_2 1_555 1_555
C12_2 C13_2 1_555 1_555
C15_2 C16_2 1_555 1_555
C17_2 C18_2 1_555 1_555
Zn1 I1_3 1_555 1_555
I2_2 Zn1 1_555 1_555
N1_3 Zn1 1_555 1_555
H3_3 C4_3 1_555 1_555
C5_3 N1_3 1_555 1_555
H4_3 C5_3 1_555 1_555
N6 C14_2 1_555 1_555
C14_2 H9_3 1_555 1_555
C15_3 C14_2 1_555 1_555
H10_3 C15_3 1_555 1_555
N14 Zn1 1_555 1_555
Zn5 N6 1_555 1_555
C4_3 C5_3 1_555 1_555
N14 C35_2 1_555 1_555
H23_2 C35_2 1_555 1_555
I2_3 Zn1_2 1_555 1_555
C31_2 N11_2 1_555 1_555
H20_2 C31_2 1_555 1_555
Zn5 N11_2 1_555 1_555
I5_2 Zn5 1_555 1_555
I6_2 Zn5 1_555 1_555
N14_2 Zn1_2 1_555 1_555
C24_2 C21_2 1_555 1_555
N8_2 C24_2 1_555 1_555
C25_2 N8_2 1_555 1_555
N9_2 C25_2 1_555 1_555
N10_2 C24_2 1_555 1_555
C26_2 H17_2 1_555 1_555
C27_2 C26_2 1_555 1_555
H18_2 C27_2 1_555 1_555
C28_2 C25_2 1_555 1_555
C29_2 N9_2 1_555 1_555
C30_2 C28_2 1_555 1_555
H19_2 C30_2 1_555 1_555
C32_2 C29_2 1_555 1_555
C33_2 C32_2 1_555 1_555
H21_2 C33_2 1_555 1_555
C34_2 C32_2 1_555 1_555
H22_2 C34_2 1_555 1_555
N14_2 C35_3 1_555 1_555
C35_3 C33_2 1_555 1_555
C36_2 C34_2 1_555 1_555
H24_2 C36_2 1_555 1_555
N10_2 C29_2 1_555 1_555
C27_2 C28_2 1_555 1_555
N14_2 C36_2 1_555 1_555
N6_2 C14_3 1_555 1_555
Zn5_2 N6_2 1_555 1_555
C31_3 N11_3 1_555 1_555
H20_3 C31_3 1_555 1_555
Zn5_2 N11_3 1_555 1_555
I5_3 Zn5_2 1_555 1_555
I6_3 Zn5_2 1_555 1_555
H1_3 C1_3 1_555 1_555
C2_3 C1_3 1_555 1_555
H2_3 C2_3 1_555 1_555
C3_3 C2_3 1_555 1_555
C6_3 C3_3 1_555 1_555
N2_3 C6_3 1_555 1_555
C7_3 N2_3 1_555 1_555
N3_3 C7_3 1_555 1_555
C8_3 N3_3 1_555 1_555
N4_3 C6_3 1_555 1_555
N5_2 C9_3 1_555 1_555
C9_3 H5_2 1_555 1_555
C10_3 C9_3 1_555 1_555
H6_3 C10_3 1_555 1_555
C11_3 C7_3 1_555 1_555
C12_3 C11_3 1_555 1_555
H7_3 C12_3 1_555 1_555
C13_3 N5_2 1_555 1_555
H8_3 C13_3 1_555 1_555
C16_3 C8_3 1_555 1_555
Zn2_2 N5_2 1_555 1_555
I3_2 Zn2_2 1_555 1_555
I4_2 Zn2_2 1_555 1_555
N7_2 Zn2_2 1_555 1_555
C19_2 N7_2 1_555 1_555
H13_2 C19_2 1_555 1_555
C20_2 C19_2 1_555 1_555
H14_2 C20_2 1_555 1_555
C23_2 N7_2 1_555 1_555
H16_2 C23_2 1_555 1_555
C8_3 N4_3 1_555 1_555
C10_3 C11_3 1_555 1_555
C12_3 C13_3 1_555 1_555
H11_3 C17_3 1_555 1_555
H12_3 C18_3 1_555 1_555
C22_2 C21_3 1_555 1_555
H15_2 C22_2 1_555 1_555
C24_3 C21_3 1_555 1_555
N8_3 C24_3 1_555 1_555
C25_3 N8_3 1_555 1_555
N9_3 C25_3 1_555 1_555
N10_3 C24_3 1_555 1_555
N11_4 C26_3 1_555 1_555
C26_3 H17_3 1_555 1_555
C27_3 C26_3 1_555 1_555
H18_3 C27_3 1_555 1_555
C28_3 C25_3 1_555 1_555
C29_3 N9_3 1_555 1_555
C30_3 C28_3 1_555 1_555
H19_3 C30_3 1_555 1_555
C31_4 N11_4 1_555 1_555
H20_4 C31_4 1_555 1_555
C32_3 C29_3 1_555 1_555
C33_3 C32_3 1_555 1_555
H21_3 C33_3 1_555 1_555
C34_3 C32_3 1_555 1_555
H22_3 C34_3 1_555 1_555
C36_3 C34_3 1_555 1_555
H24_3 C36_3 1_555 1_555
Zn3_2 N11_4 1_555 1_555
I5_4 Zn3_2 1_555 1_555
I6_4 Zn3_2 1_555 1_555
N13_2 Zn3_2 1_555 1_555
C17_3 C18_3 1_555 1_555
N10_3 C29_3 1_555 1_555
C27_3 C28_3 1_555 1_555
C30_3 C31_4 1_555 1_555
N13_2 C14_4 1_555 1_555
H11_4 C17_4 1_555 1_555
C18_4 N13_2 1_555 1_555
H12_4 C18_4 1_555 1_555
C17_4 C18_4 1_555 1_555
H14_3 C20_3 1_555 1_555
C21_4 C20_3 1_555 1_555
C24_4 C21_4 1_555 1_555
N8_4 C24_4 1_555 1_555
C25_4 N8_4 1_555 1_555
N9_4 C25_4 1_555 1_555
N10_4 C24_4 1_555 1_555
C26_4 H17_4 1_555 1_555
C27_4 C26_4 1_555 1_555
H18_4 C27_4 1_555 1_555
C28_4 C25_4 1_555 1_555
C29_4 N9_4 1_555 1_555
C30_4 C28_4 1_555 1_555
H19_4 C30_4 1_555 1_555
C32_4 C29_4 1_555 1_555
C33_4 C32_4 1_555 1_555
H21_4 C33_4 1_555 1_555
C34_4 C32_4 1_555 1_555
H22_4 C34_4 1_555 1_555
N12_2 C35_4 1_555 1_555
C35_4 C33_4 1_555 1_555
C36_4 C34_4 1_555 1_555
H24_4 C36_4 1_555 1_555
Zn4_2 N12_2 1_555 1_555
N10_4 C29_4 1_555 1_555
C27_4 C28_4 1_555 1_555
N12_2 C36_4 1_555 1_555
I2_4 Zn4_2 1_555 1_555
Zn2_3 N5_3 1_555 1_555
I3_3 Zn2_3 1_555 1_555
I4_3 Zn2_3 1_555 1_555
N7_3 Zn2_3 1_555 1_555
C19_3 N7_3 1_555 1_555
H13_3 C19_3 1_555 1_555
H15_3 C22_3 1_555 1_555
C23_3 N7_3 1_555 1_555
H16_3 C23_3 1_555 1_555
C22_3 C23_3 1_555 1_555
H14_4 C20_4 1_555 1_555
C1_4 N1_4 1_555 1_555
C2_4 C1_4 1_555 1_555
H2_4 C2_4 1_555 1_555
C3_4 C2_4 1_555 1_555
C4_4 C3_4 1_555 1_555
H3_4 C4_4 1_555 1_555
C5_4 N1_4 1_555 1_555
H4_4 C5_4 1_555 1_555
C6_4 C3_4 1_555 1_555
N2_4 C6_4 1_555 1_555
C7_4 N2_4 1_555 1_555
N3_4 C7_4 1_555 1_555
C8_4 N3_4 1_555 1_555
N4_4 C6_4 1_555 1_555
C10_4 C9_4 1_555 1_555
H6_4 C10_4 1_555 1_555
C11_4 C7_4 1_555 1_555
C12_4 C11_4 1_555 1_555
H7_4 C12_4 1_555 1_555
H8_4 C13_4 1_555 1_555
H10_4 C15_4 1_555 1_555
C16_4 C8_4 1_555 1_555
C4_4 C5_4 1_555 1_555
C8_4 N4_4 1_555 1_555
C10_4 C11_4 1_555 1_555
C12_4 C13_4 1_555 1_555
C15_4 C16_4 1_555 1_555
Zn2_4 N5_4 1_555 1_555
I3_4 Zn2_4 1_555 1_555
I4_4 Zn2_4 1_555 1_555
N7_4 Zn2_4 1_555 1_555
C19_4 N7_4 1_555 1_555
H13_4 C19_4 1_555 1_555
C23_4 N7_4 1_555 1_555
H16_4 C23_4 1_555 1_555
H15_4 C22_4 1_555 1_555
C40 C39 1_555 1_555
H27 C40 1_555 1_555
H28 C41 1_555 1_555
C42 C39 1_555 1_555
N16 C42 1_555 1_555
C43 N16 1_555 1_555
N17 C43 1_555 1_555
C44 N17 1_555 1_555
N18 C42 1_555 1_555
C45 H29 1_555 1_555
C46 C45 1_555 1_555
H30 C46 1_555 1_555
C47 C43 1_555 1_555
N20 C50 1_555 1_555
C50 H33 1_555 1_555
C51 C50 1_555 1_555
H34 C51 1_555 1_555
C52 C44 1_555 1_555
C53 C52 1_555 1_555
H35 C53 1_555 1_555
C54 N20 1_555 1_555
H36 C54 1_555 1_555
Zn8 N20 1_555 1_555
I11 Zn8 1_555 1_555
I12 Zn8 1_555 1_555
N21 Zn8 1_555 1_555
C55 N21 1_555 1_555
H37 C55 1_555 1_555
C56 C55 1_555 1_555
H38 C56 1_555 1_555
C57 C56 1_555 1_555
C58 C57 1_555 1_555
H39 C58 1_555 1_555
C59 N21 1_555 1_555
H40 C59 1_555 1_555
C60 C57 1_555 1_555
N22 C60 1_555 1_555
C61 N22 1_555 1_555
N23 C61 1_555 1_555
C62 N23 1_555 1_555
N24 C60 1_555 1_555
N25 C63 1_555 1_555
C63 H41 1_555 1_555
C64 C63 1_555 1_555
H42 C64 1_555 1_555
C65 C61 1_555 1_555
C66 C65 1_555 1_555
H43 C66 1_555 1_555
C67 N25 1_555 1_555
H44 C67 1_555 1_555
H46 C69 1_555 1_555
C70 C62 1_555 1_555
C71 C70 1_555 1_555
H47 C71 1_555 1_555
H48 C72 1_555 1_555
Zn9 N25 1_555 1_555
C40 C41 1_555 1_555
C44 N18 1_555 1_555
C46 C47 1_555 1_555
C51 C52 1_555 1_555
C53 C54 1_555 1_555
C58 C59 1_555 1_555
C62 N24 1_555 1_555
C64 C65 1_555 1_555
C66 C67 1_555 1_555
C69 C70 1_555 1_555
C71 C72 1_555 1_555
Zn9 I7 1_555 1_555
I8 Zn9 1_555 1_555
N15 Zn9 1_555 1_555
C37 N15 1_555 1_555
H25 C37 1_555 1_555
C38 C37 1_555 1_555
H26 C38 1_555 1_555
C39_2 C38 1_555 1_555
C40_2 C39_2 1_555 1_555
H27_2 C40_2 1_555 1_555
C41_2 N15 1_555 1_555
H28_2 C41_2 1_555 1_555
C42_2 C39_2 1_555 1_555
N16_2 C42_2 1_555 1_555
C43_2 N16_2 1_555 1_555
N17_2 C43_2 1_555 1_555
C44_2 N17_2 1_555 1_555
N18_2 C42_2 1_555 1_555
N19 C45_2 1_555 1_555
C45_2 H29_2 1_555 1_555
C46_2 C45_2 1_555 1_555
H30_2 C46_2 1_555 1_555
C47_2 C43_2 1_555 1_555
C48 C47_2 1_555 1_555
H31 C48 1_555 1_555
C49 N19 1_555 1_555
H32 C49 1_555 1_555
C51_2 C50_2 1_555 1_555
H34_2 C51_2 1_555 1_555
C52_2 C44_2 1_555 1_555
C53_2 C52_2 1_555 1_555
H35_2 C53_2 1_555 1_555
H36_2 C54_2 1_555 1_555
Zn7 N19 1_555 1_555
I9 Zn7 1_555 1_555
I10 Zn7 1_555 1_555
C67_2 N27 1_555 1_555
H44_2 C67_2 1_555 1_555
N28 Zn7 1_555 1_555
C40_2 C41_2 1_555 1_555
C44_2 N18_2 1_555 1_555
C46_2 C47_2 1_555 1_555
C48 C49 1_555 1_555
C51_2 C52_2 1_555 1_555
C53_2 C54_2 1_555 1_555
Zn8_2 N20_2 1_555 1_555
I11_2 Zn8_2 1_555 1_555
I12_2 Zn8_2 1_555 1_555
N21_2 Zn8_2 1_555 1_555
C55_2 N21_2 1_555 1_555
H37_2 C55_2 1_555 1_555
C56_2 C55_2 1_555 1_555
H38_2 C56_2 1_555 1_555
C57_2 C56_2 1_555 1_555
C58_2 C57_2 1_555 1_555
H39_2 C58_2 1_555 1_555
C59_2 N21_2 1_555 1_555
H40_2 C59_2 1_555 1_555
C60_2 C57_2 1_555 1_555
N22_2 C60_2 1_555 1_555
C61_2 N22_2 1_555 1_555
N23_2 C61_2 1_555 1_555
C62_2 N23_2 1_555 1_555
N24_2 C60_2 1_555 1_555
C63_2 H41_2 1_555 1_555
C64_2 C63_2 1_555 1_555
H42_2 C64_2 1_555 1_555
C65_2 C61_2 1_555 1_555
C66_2 C65_2 1_555 1_555
H43_2 C66_2 1_555 1_555
N28 C68 1_555 1_555
C68 H45 1_555 1_555
C69_2 C68 1_555 1_555
H46_2 C69_2 1_555 1_555
C70_2 C62_2 1_555 1_555
C71_2 C70_2 1_555 1_555
H47_2 C71_2 1_555 1_555
C72_2 N28 1_555 1_555
H48_2 C72_2 1_555 1_555
C58_2 C59_2 1_555 1_555
C62_2 N24_2 1_555 1_555
C64_2 C65_2 1_555 1_555
C69_2 C70_2 1_555 1_555
C71_2 C72_2 1_555 1_555
N26 C68_2 1_555 1_555
C68_2 H45_2 1_555 1_555
Zn10 N26 1_555 1_555
I9_2 Zn10 1_555 1_555
I10_2 Zn10 1_555 1_555
Zn6 I7_2 1_555 1_555
I8_2 Zn6 1_555 1_555
N15_2 Zn6 1_555 1_555
C37_2 N15_2 1_555 1_555
H25_2 C37_2 1_555 1_555
C38_2 C37_2 1_555 1_555
H26_2 C38_2 1_555 1_555
H31_2 C48_2 1_555 1_555
C49_2 N19_2 1_555 1_555
H32_2 C49_2 1_555 1_555
Zn7_2 N19_2 1_555 1_555
I9_3 Zn7_2 1_555 1_555
I10_3 Zn7_2 1_555 1_555
N28_2 Zn7_2 1_555 1_555
C48_2 C49_2 1_555 1_555
N28_2 C68_3 1_555 1_555
C68_3 H45_3 1_555 1_555
C40_3 C39_3 1_555 1_555
H27_3 C40_3 1_555 1_555
H28_3 C41_3 1_555 1_555
C42_3 C39_3 1_555 1_555
N16_3 C42_3 1_555 1_555
C43_3 N16_3 1_555 1_555
N17_3 C43_3 1_555 1_555
C44_3 N17_3 1_555 1_555
N18_3 C42_3 1_555 1_555
C46_3 C45_3 1_555 1_555
H30_3 C46_3 1_555 1_555
C47_3 C43_3 1_555 1_555
N20_3 C50_3 1_555 1_555
C50_3 H33_3 1_555 1_555
C51_3 C50_3 1_555 1_555
H34_3 C51_3 1_555 1_555
C52_3 C44_3 1_555 1_555
C53_3 C52_3 1_555 1_555
H35_3 C53_3 1_555 1_555
C54_3 N20_3 1_555 1_555
H36_3 C54_3 1_555 1_555
Zn8_3 N20_3 1_555 1_555
I11_3 Zn8_3 1_555 1_555
I12_3 Zn8_3 1_555 1_555
N21_3 Zn8_3 1_555 1_555
C55_3 N21_3 1_555 1_555
H37_3 C55_3 1_555 1_555
C56_3 C55_3 1_555 1_555
H38_3 C56_3 1_555 1_555
C57_3 C56_3 1_555 1_555
C58_3 C57_3 1_555 1_555
H39_3 C58_3 1_555 1_555
C59_3 N21_3 1_555 1_555
H40_3 C59_3 1_555 1_555
C60_3 C57_3 1_555 1_555
N22_3 C60_3 1_555 1_555
C61_3 N22_3 1_555 1_555
N23_3 C61_3 1_555 1_555
C62_3 N23_3 1_555 1_555
N24_3 C60_3 1_555 1_555
N25_2 C63_3 1_555 1_555
C63_3 H41_3 1_555 1_555
C64_3 C63_3 1_555 1_555
H42_3 C64_3 1_555 1_555
C65_3 C61_3 1_555 1_555
C66_3 C65_3 1_555 1_555
H43_3 C66_3 1_555 1_555
C67_3 N25_2 1_555 1_555
H44_3 C67_3 1_555 1_555
H46_3 C69_3 1_555 1_555
C70_3 C62_3 1_555 1_555
C71_3 C70_3 1_555 1_555
H47_3 C71_3 1_555 1_555
H48_3 C72_3 1_555 1_555
Zn9_2 N25_2 1_555 1_555
C40_3 C41_3 1_555 1_555
C44_3 N18_3 1_555 1_555
C46_3 C47_3 1_555 1_555
C51_3 C52_3 1_555 1_555
C53_3 C54_3 1_555 1_555
C58_3 C59_3 1_555 1_555
C62_3 N24_3 1_555 1_555
C64_3 C65_3 1_555 1_555
C66_3 C67_3 1_555 1_555
C69_3 C70_3 1_555 1_555
C71_3 C72_3 1_555 1_555
Zn9_2 I7_3 1_555 1_555
I8_3 Zn9_2 1_555 1_555
N15_3 Zn9_2 1_555 1_555
C37_3 N15_3 1_555 1_555
H25_3 C37_3 1_555 1_555
C38_3 C37_3 1_555 1_555
H26_3 C38_3 1_555 1_555
C39_4 C38_3 1_555 1_555
C40_4 C39_4 1_555 1_555
H27_4 C40_4 1_555 1_555
C41_4 N15_3 1_555 1_555
H28_4 C41_4 1_555 1_555
C42_4 C39_4 1_555 1_555
N16_4 C42_4 1_555 1_555
C43_4 N16_4 1_555 1_555
N17_4 C43_4 1_555 1_555
C44_4 N17_4 1_555 1_555
N18_4 C42_4 1_555 1_555
N19_3 C45_4 1_555 1_555
C46_4 C45_4 1_555 1_555
H30_4 C46_4 1_555 1_555
C47_4 C43_4 1_555 1_555
C48_3 C47_4 1_555 1_555
H31_3 C48_3 1_555 1_555
C49_3 N19_3 1_555 1_555
H32_3 C49_3 1_555 1_555
C51_4 C50_4 1_555 1_555
H34_4 C51_4 1_555 1_555
C52_4 C44_4 1_555 1_555
C53_4 C52_4 1_555 1_555
H35_4 C53_4 1_555 1_555
H36_4 C54_4 1_555 1_555
C67_4 N27_2 1_555 1_555
H44_4 C67_4 1_555 1_555
C40_4 C41_4 1_555 1_555
C44_4 N18_4 1_555 1_555
C46_4 C47_4 1_555 1_555
C48_3 C49_3 1_555 1_555
C51_4 C52_4 1_555 1_555
C53_4 C54_4 1_555 1_555
Zn6_2 I7_4 1_555 1_555
I8_4 Zn6_2 1_555 1_555
N15_4 Zn6_2 1_555 1_555
C37_4 N15_4 1_555 1_555
H25_4 C37_4 1_555 1_555
C38_4 C37_4 1_555 1_555
H26_4 C38_4 1_555 1_555
H31_4 C48_4 1_555 1_555
C49_4 N19_4 1_555 1_555
H32_4 C49_4 1_555 1_555
C48_4 C49_4 1_555 1_555
Zn8_4 N20_4 1_555 1_555
I11_4 Zn8_4 1_555 1_555
I12_4 Zn8_4 1_555 1_555
N21_4 Zn8_4 1_555 1_555
C55_4 N21_4 1_555 1_555
H37_4 C55_4 1_555 1_555
C56_4 C55_4 1_555 1_555
H38_4 C56_4 1_555 1_555
C57_4 C56_4 1_555 1_555
C58_4 C57_4 1_555 1_555
H39_4 C58_4 1_555 1_555
C59_4 N21_4 1_555 1_555
H40_4 C59_4 1_555 1_555
C60_4 C57_4 1_555 1_555
N22_4 C60_4 1_555 1_555
C61_4 N22_4 1_555 1_555
N23_4 C61_4 1_555 1_555
C62_4 N23_4 1_555 1_555
N24_4 C60_4 1_555 1_555
C63_4 H41_4 1_555 1_555
C64_4 C63_4 1_555 1_555
H42_4 C64_4 1_555 1_555
C65_4 C61_4 1_555 1_555
C66_4 C65_4 1_555 1_555
H43_4 C66_4 1_555 1_555
N26_2 C68_4 1_555 1_555
C68_4 H45_4 1_555 1_555
C69_4 C68_4 1_555 1_555
H46_4 C69_4 1_555 1_555
C70_4 C62_4 1_555 1_555
C71_4 C70_4 1_555 1_555
H47_4 C71_4 1_555 1_555
C72_4 N26_2 1_555 1_555
H48_4 C72_4 1_555 1_555
Zn10_2 N26_2 1_555 1_555
C58_4 C59_4 1_555 1_555
C62_4 N24_4 1_555 1_555
C64_4 C65_4 1_555 1_555
C69_4 C70_4 1_555 1_555
C71_4 C72_4 1_555 1_555
I9_4 Zn10_2 1_555 1_555
I10_4 Zn10_2 1_555 1_555

#END
