
###############################################################################
#
# This file contains modified crystal structure data generated from the
# MOF subset of the Cambridge Structural Database (CSD) v543 
# hosted by the Cambridge Crystallographic Data Centre (CCDC).
#
# This work is licensed under the Creative Commons
# Attribution-NonCommercial-ShareAlike 4.0 International License.
# To view a copy of this license, visit
# http://creativecommons.org/licenses/by-nc-sa/4.0/
# or send a letter to
# Creative Commons, PO Box 1866, Mountain View, CA 94042, USA.
#
# CIF created using the CSD Python API on 29 September 2022
# The structure has been converted into the P1 space group
# The structure has a 3D framework
# The original CSD entry REXFAD is in the monoclinic crystal system
# The framework has been calculated to contain at least 10.0% void space
# The void calculation uses a probe of radius 1.32A, grid spacing 0.4
#
###############################################################################

data_REXFAD
_chemical_formula_moiety         '(C288 H192 I48 N92 Zn24)n'
_symmetry_cell_setting           triclinic
_symmetry_space_group_name_H-M   'P 1'
_symmetry_Int_Tables_number      1
_space_group_name_Hall           'P 1'
loop_
_symmetry_equiv_pos_site_id
_symmetry_equiv_pos_as_xyz
1 x,y,z
_cell_length_a                   35.752(9)
_cell_length_b                   14.774(4)
_cell_length_c                   30.594(7)
_cell_angle_alpha                90
_cell_angle_beta                 101.647(4)
_cell_angle_gamma                90
_cell_volume                     15827
loop_
_atom_site_label
_atom_site_type_symbol
_atom_site_fract_x
_atom_site_fract_y
_atom_site_fract_z
Zn1 Zn 0.16637(4) 0.35698(9) 0.27546(5)
I1 I 0.22655(3) 0.26034(6) 0.29400(3)
I2 I 0.11781(3) 0.33581(7) 0.20235(3)
N1 N 0.1361(3) 0.3420(7) 0.3259(4)
C1 C 0.1116(4) 0.4014(9) 0.3321(5)
H1 H 0.1089 0.4545 0.3142
C2 C 0.0892(4) 0.3925(9) 0.3629(4)
H2 H 0.0714 0.4387 0.3660
C3 C 0.0922(3) 0.3171(6) 0.3895(4)
C4 C 0.1202(3) 0.2556(8) 0.3858(4)
H3 H 0.1242 0.2039 0.4047
C5 C 0.1425(4) 0.2695(8) 0.3545(4)
H4 H 0.1626 0.2284 0.3527
C6 C 0.0651(3) 0.3004(7) 0.4206(3)
N2 N 0.0377(3) 0.3613(6) 0.4207(3)
C7 C 0.0157(3) 0.3437(6) 0.4503(4)
N3 N 0.0202(3) 0.2754(6) 0.4794(3)
C8 C 0.0485(3) 0.2189(7) 0.4767(4)
N4 N 0.0722(3) 0.2290(6) 0.4480(3)
C14 C 0.0890(4) 0.0088(10) 0.5354(5)
C15 C 0.0870(3) 0.0873(9) 0.5100(4)
H10 H 0.1075 0.1055 0.4966
C16 C 0.0540(3) 0.1378(7) 0.5051(4)
C17 C 0.0262(3) 0.1137(9) 0.5280(4)
H11 H 0.0041 0.1501 0.5273
C18 C 0.0320(3) 0.0320(8) 0.5529(4)
H12 H 0.0120 0.0119 0.5668
C19 C 0.1047(3) 0.0168(6) 0.6613(4)
H13 H 0.0802 0.0399 0.6484
C20 C 0.1289(3) 0.0684(8) 0.6925(4)
H14 H 0.1210 0.1263 0.7007
C21 C 0.1640(4) 0.0356(8) 0.7112(4)
C24 C 0.1912(3) 0.0908(6) 0.7441(4)
N8 N 0.1805(3) 0.1760(6) 0.7489(3)
C25 C 0.2051(3) 0.2207(7) 0.7802(3)
N9 N 0.2360(3) 0.1892(6) 0.8076(3)
C26 C 0.2428(3) 0.1025(7) 0.7995(4)
N10 N 0.2227(3) 0.0495(6) 0.7668(3)
N11 N 0.1801(3) 0.5056(7) 0.7793(3)
C27 C 0.2118(3) 0.4740(7) 0.8055(4)
H17 H 0.2292 0.5150 0.8229
C28 C 0.2195(3) 0.3833(6) 0.8079(4)
H18 H 0.2416 0.3623 0.8279
C29 C 0.1960(3) 0.3215(7) 0.7820(4)
C30 C 0.1639(3) 0.3562(7) 0.7543(4)
H19 H 0.1468 0.3167 0.7355
C31 C 0.1566(4) 0.4477(6) 0.7538(5)
H20 H 0.1342 0.4703 0.7348
C34 C 0.2762(3) 0.0558(6) 0.8295(3)
C35 C 0.2988(3) 0.0999(8) 0.8645(4)
H23 H 0.2946 0.1620 0.8699
C36 C 0.3276(3) 0.0529(6) 0.8919(4)
H24 H 0.3435 0.0829 0.9162
Zn4 Zn 0.16637(4) 0.64302(9) 0.77546(5)
N13 N 0.1801(3) 0.4944(7) 0.2793(3)
C14_2 C 0.0890(4) 0.9912(10) 0.0354(5)
C15_2 C 0.0870(3) 0.9127(9) 0.0100(4)
C16_2 C 0.0540(3) 0.8622(7) 0.0051(4)
C17_2 C 0.0262(3) 0.8863(9) 0.0280(4)
H11_2 H 0.0041 0.8499 0.0273
C18_2 C 0.0320(3) 0.9680(8) 0.0529(4)
H12_2 H 0.0120 0.9881 0.0668
C19_2 C 0.1047(3) 0.9832(6) 0.1613(4)
H13_2 H 0.0802 0.9601 0.1484
C20_2 C 0.1289(3) 0.9316(8) 0.1925(4)
H14_2 H 0.1210 0.8737 0.2007
C21_2 C 0.1640(4) 0.9644(8) 0.2112(4)
C24_2 C 0.1912(3) 0.9092(6) 0.2441(4)
N8_2 N 0.1805(3) 0.8240(6) 0.2489(3)
C25_2 C 0.2051(3) 0.7793(7) 0.2802(3)
N9_2 N 0.2360(3) 0.8108(6) 0.3076(3)
C26_2 C 0.2428(3) 0.8975(7) 0.2995(4)
N10_2 N 0.2227(3) 0.9505(6) 0.2668(3)
C27_2 C 0.2118(3) 0.5260(7) 0.3055(4)
H17_2 H 0.2292 0.4850 0.3229
C28_2 C 0.2195(3) 0.6167(6) 0.3079(4)
H18_2 H 0.2416 0.6377 0.3279
C29_2 C 0.1960(3) 0.6785(7) 0.2820(4)
C30_2 C 0.1639(3) 0.6438(7) 0.2543(4)
H19_2 H 0.1468 0.6833 0.2355
C31_2 C 0.1566(4) 0.5523(6) 0.2538(5)
H20_2 H 0.1342 0.5297 0.2348
C34_2 C 0.2762(3) 0.9442(6) 0.3295(3)
C35_2 C 0.2988(3) 0.9001(8) 0.3645(4)
H23_2 H 0.2946 0.8380 0.3699
C36_2 C 0.3276(3) 0.9471(6) 0.3919(4)
H24_2 H 0.3435 0.9171 0.4162
I1_2 I 0.22655(3) 0.73966(6) 0.79400(3)
I2_2 I 0.11781(3) 0.66419(7) 0.70235(3)
N1_2 N 0.1361(3) 0.6580(7) 0.8259(4)
C1_2 C 0.1116(4) 0.5986(9) 0.8321(5)
H1_2 H 0.1089 0.5455 0.8142
C2_2 C 0.0892(4) 0.6075(9) 0.8629(4)
H2_2 H 0.0714 0.5613 0.8660
C3_2 C 0.0922(3) 0.6829(6) 0.8895(4)
C4_2 C 0.1202(3) 0.7444(8) 0.8858(4)
H3_2 H 0.1242 0.7961 0.9047
C5_2 C 0.1425(4) 0.7305(8) 0.8545(4)
H4_2 H 0.1626 0.7716 0.8527
C6_2 C 0.0651(3) 0.6996(7) 0.9206(3)
N2_2 N 0.0377(3) 0.6387(6) 0.9207(3)
C7_2 C 0.0157(3) 0.6563(6) 0.9503(4)
N3_2 N 0.0202(3) 0.7246(6) 0.9794(3)
C8_2 C 0.0485(3) 0.7811(7) 0.9767(4)
N4_2 N 0.0722(3) 0.7710(6) 0.9480(3)
H10_2 H 0.1075 0.8945 0.9966
N6 N 0.0631(3) 0.9817(7) 0.5580(4)
H9 H 0.1108 0.9714 0.5367
Zn3 Zn 0.07443(4) 0.86884(9) 0.59999(5)
I5 I 0.10832(3) 0.75820(6) 0.55794(3)
I6 I 0.01634(3) 0.84459(6) 0.63386(3)
N7 N 0.1148(3) 0.9356(6) 0.6489(3)
C22 C 0.1740(3) 0.9472(8) 0.6993(4)
H15 H 0.1978 0.9210 0.7129
C23 C 0.1484(3) 0.9006(7) 0.6676(4)
H16 H 0.1549 0.8419 0.6590
N12 N 0.3336(3) 0.9649(5) 0.8843(3)
C32 C 0.3130(3) 0.9230(7) 0.8490(4)
H21 H 0.3191 0.8626 0.8424
C33 C 0.2831(3) 0.9661(6) 0.8221(4)
H22 H 0.2672 0.9343 0.7984
Zn5 Zn 0.37455(4) 0.89490(10) 0.93032(5)
N5 N 0.4192(3) 0.9878(7) 0.9411(3)
H8 H 0.4209 0.9844 0.8773
I3 I 0.39716(3) 0.76586(6) 0.88619(4)
I4 I 0.34741(3) 0.87526(9) 0.99908(4)
N5_2 N 0.9192(3) 0.5122(7) 0.4411(3)
C9 C 0.9350(3) 0.4741(7) 0.4800(3)
H5 H 0.9243 0.4869 0.5053
C10 C 0.9660(3) 0.4171(7) 0.4851(4)
H6 H 0.9764 0.3885 0.5127
C11 C 0.9813(3) 0.4041(7) 0.4468(3)
C12 C 0.9651(3) 0.4400(8) 0.4064(4)
H7 H 0.9753 0.4293 0.3805
C13 C 0.9336(3) 0.4921(11) 0.4053(3)
H8_2 H 0.9209 0.5156 0.3773
Zn2 Zn 0.87455(4) 0.60510(10) 0.43032(5)
I3_2 I 0.89716(3) 0.73414(6) 0.38619(4)
I4_2 I 0.84741(3) 0.62474(9) 0.49908(4)
N14 N 0.8336(3) 0.5351(5) 0.3843(3)
H5_2 H 0.4243 0.0131 0.0053
H6_2 H 0.4764 0.1115 0.0127
N6_2 N 0.5631(3) 0.5183(7) 0.0580(4)
C14_3 C 0.5890(4) 0.4912(10) 0.0354(5)
H9_2 H 0.6108 0.5286 0.0367
C15_3 C 0.5870(3) 0.4127(9) 0.0100(4)
C16_3 C 0.5540(3) 0.3622(7) 0.0051(4)
C17_3 C 0.5262(3) 0.3863(9) 0.0280(4)
H11_3 H 0.5041 0.3499 0.0273
C18_3 C 0.5320(3) 0.4680(8) 0.0529(4)
H12_3 H 0.5120 0.4881 0.0668
Zn3_2 Zn 0.57443(4) 0.63116(9) 0.09999(5)
I5_2 I 0.60832(3) 0.74180(6) 0.05794(3)
I6_2 I 0.51634(3) 0.65541(6) 0.13386(3)
N7_2 N 0.6148(3) 0.5644(6) 0.1489(3)
C19_3 C 0.6047(3) 0.4832(6) 0.1613(4)
H13_3 H 0.5802 0.4601 0.1484
C20_3 C 0.6289(3) 0.4316(8) 0.1925(4)
H14_3 H 0.6210 0.3737 0.2007
C21_3 C 0.6640(4) 0.4644(8) 0.2112(4)
C22_2 C 0.6740(3) 0.5528(8) 0.1993(4)
H15_2 H 0.6978 0.5790 0.2129
C23_2 C 0.6484(3) 0.5994(7) 0.1676(4)
H16_2 H 0.6549 0.6581 0.1590
C24_3 C 0.6912(3) 0.4092(6) 0.2441(4)
N8_3 N 0.6805(3) 0.3240(6) 0.2489(3)
C25_3 C 0.7051(3) 0.2793(7) 0.2802(3)
N9_3 N 0.7360(3) 0.3108(6) 0.3076(3)
C26_3 C 0.7428(3) 0.3975(7) 0.2995(4)
N10_3 N 0.7227(3) 0.4505(6) 0.2668(3)
C27_3 C 0.7118(3) 0.0260(7) 0.3055(4)
C28_3 C 0.7195(3) 0.1167(6) 0.3079(4)
H18_3 H 0.7416 0.1377 0.3279
C29_3 C 0.6960(3) 0.1785(7) 0.2820(4)
C30_3 C 0.6639(3) 0.1438(7) 0.2543(4)
H19_3 H 0.6468 0.1833 0.2355
C31_3 C 0.6566(4) 0.0523(6) 0.2538(5)
H20_3 H 0.6342 0.0297 0.2348
C32_2 C 0.8130(3) 0.5770(7) 0.3490(4)
H21_2 H 0.8191 0.6374 0.3424
C33_2 C 0.7831(3) 0.5339(6) 0.3221(4)
H22_2 H 0.7672 0.5657 0.2984
C34_3 C 0.7762(3) 0.4442(6) 0.3295(3)
C35_3 C 0.7988(3) 0.4001(8) 0.3645(4)
H23_3 H 0.7946 0.3380 0.3699
C36_3 C 0.8276(3) 0.4471(6) 0.3919(4)
H24_3 H 0.8435 0.4171 0.4162
N5_3 N 0.0808(3) 0.5122(7) 0.0589(3)
C9_2 C 0.0650(3) 0.4741(7) 0.0200(3)
C10_2 C 0.0340(3) 0.4171(7) 0.0149(4)
C11_2 C 0.0187(3) 0.4041(7) 0.0532(3)
C12_2 C 0.0349(3) 0.4400(8) 0.0936(4)
H7_2 H 0.0247 0.4293 0.1195
C13_2 C 0.0664(3) 0.4921(11) 0.0947(3)
H8_3 H 0.0791 0.5156 0.1227
Zn2_2 Zn 0.12545(4) 0.60510(10) 0.06968(5)
I3_3 I 0.10284(3) 0.73414(6) 0.11381(4)
I4_3 I 0.15259(3) 0.62474(9) 0.00092(4)
N14_2 N 0.1664(3) 0.5351(5) 0.1157(3)
N11_2 N 0.3199(3) 0.0056(7) 0.7207(3)
H17_3 H 0.2708 0.0150 0.6771
Zn4_2 Zn 0.33363(4) 0.14302(9) 0.72454(5)
I1_3 I 0.27345(3) 0.23966(6) 0.70600(3)
I2_3 I 0.38219(3) 0.16419(7) 0.79765(3)
N1_3 N 0.3639(3) 0.1580(7) 0.6741(4)
C1_3 C 0.3884(4) 0.0986(9) 0.6679(5)
H1_3 H 0.3911 0.0455 0.6858
C2_3 C 0.4108(4) 0.1075(9) 0.6371(4)
H2_3 H 0.4286 0.0613 0.6340
C3_3 C 0.4078(3) 0.1829(6) 0.6105(4)
C4_3 C 0.3798(3) 0.2444(8) 0.6142(4)
H3_3 H 0.3758 0.2961 0.5953
C5_3 C 0.3575(4) 0.2305(8) 0.6455(4)
H4_3 H 0.3374 0.2716 0.6473
C6_3 C 0.4349(3) 0.1996(7) 0.5794(3)
N2_3 N 0.4623(3) 0.1387(6) 0.5793(3)
C7_3 C 0.4843(3) 0.1563(6) 0.5497(4)
N3_3 N 0.4798(3) 0.2246(6) 0.5206(3)
C8_3 C 0.4515(3) 0.2811(7) 0.5233(4)
N4_3 N 0.4278(3) 0.2710(6) 0.5520(3)
C9_3 C 0.5650(3) 0.0259(7) 0.5200(3)
H5_3 H 0.5757 0.0131 0.4947
C10_3 C 0.5340(3) 0.0829(7) 0.5149(4)
H6_3 H 0.5236 0.1115 0.4873
C11_3 C 0.5187(3) 0.0959(7) 0.5532(3)
C12_3 C 0.5349(3) 0.0600(8) 0.5936(4)
H7_3 H 0.5247 0.0707 0.6195
C13_3 C 0.5664(3) 0.0079(11) 0.5947(3)
N6_3 N 0.4369(3) 0.5183(7) 0.4420(4)
C14_4 C 0.4110(4) 0.4912(10) 0.4646(5)
H9_3 H 0.3892 0.5286 0.4633
C15_4 C 0.4130(3) 0.4127(9) 0.4900(4)
H10_3 H 0.3925 0.3945 0.5034
C16_4 C 0.4460(3) 0.3622(7) 0.4949(4)
C17_4 C 0.4738(3) 0.3863(9) 0.4720(4)
H11_4 H 0.4959 0.3499 0.4727
C18_4 C 0.4680(3) 0.4680(8) 0.4471(4)
H12_4 H 0.4880 0.4881 0.4332
Zn3_3 Zn 0.42557(4) 0.63116(9) 0.40001(5)
I5_3 I 0.39168(3) 0.74180(6) 0.44206(3)
I6_3 I 0.48366(3) 0.65541(6) 0.36614(3)
N7_3 N 0.3852(3) 0.5644(6) 0.3511(3)
C19_4 C 0.3953(3) 0.4832(6) 0.3387(4)
H13_4 H 0.4198 0.4601 0.3516
C20_4 C 0.3711(3) 0.4316(8) 0.3075(4)
H14_4 H 0.3790 0.3737 0.2993
C21_4 C 0.3360(4) 0.4644(8) 0.2888(4)
C22_3 C 0.3260(3) 0.5528(8) 0.3007(4)
H15_3 H 0.3022 0.5790 0.2871
C23_3 C 0.3516(3) 0.5994(7) 0.3324(4)
H16_3 H 0.3451 0.6581 0.3410
C24_4 C 0.3088(3) 0.4092(6) 0.2559(4)
N8_4 N 0.3195(3) 0.3240(6) 0.2511(3)
C25_4 C 0.2949(3) 0.2793(7) 0.2198(3)
N9_4 N 0.2640(3) 0.3108(6) 0.1924(3)
C26_4 C 0.2572(3) 0.3975(7) 0.2005(4)
N10_4 N 0.2773(3) 0.4505(6) 0.2332(3)
C27_4 C 0.2882(3) 0.0260(7) 0.1945(4)
C28_4 C 0.2805(3) 0.1167(6) 0.1921(4)
H18_4 H 0.2584 0.1377 0.1721
C29_4 C 0.3040(3) 0.1785(7) 0.2180(4)
C30_4 C 0.3361(3) 0.1438(7) 0.2457(4)
H19_4 H 0.3532 0.1833 0.2645
C31_4 C 0.3434(4) 0.0523(6) 0.2462(5)
H20_4 H 0.3658 0.0297 0.2652
C32_3 C 0.1870(3) 0.5770(7) 0.1510(4)
H21_3 H 0.1809 0.6374 0.1576
C33_3 C 0.2169(3) 0.5339(6) 0.1779(4)
H22_3 H 0.2328 0.5657 0.2016
C34_4 C 0.2238(3) 0.4442(6) 0.1705(3)
C35_4 C 0.2012(3) 0.4001(8) 0.1355(4)
H23_4 H 0.2054 0.3380 0.1301
C36_4 C 0.1724(3) 0.4471(6) 0.1081(4)
H24_4 H 0.1565 0.4171 0.0838
H5_4 H 0.0757 0.4869 0.9947
H6_4 H 0.0236 0.3885 0.9873
Zn1_2 Zn 0.83363(4) 0.35698(9) 0.22454(5)
I1_4 I 0.77345(3) 0.26034(6) 0.20600(3)
I2_4 I 0.88219(3) 0.33581(7) 0.29765(3)
N1_4 N 0.8639(3) 0.3420(7) 0.1741(4)
C1_4 C 0.8884(4) 0.4014(9) 0.1679(5)
H1_4 H 0.8911 0.4545 0.1858
C2_4 C 0.9108(4) 0.3925(9) 0.1371(4)
H2_4 H 0.9286 0.4387 0.1340
C3_4 C 0.9078(3) 0.3171(6) 0.1105(4)
C4_4 C 0.8798(3) 0.2556(8) 0.1142(4)
H3_4 H 0.8758 0.2039 0.0953
C5_4 C 0.8575(4) 0.2695(8) 0.1455(4)
H4_4 H 0.8374 0.2284 0.1473
C6_4 C 0.9349(3) 0.3004(7) 0.0794(3)
N2_4 N 0.9623(3) 0.3613(6) 0.0793(3)
C7_4 C 0.9843(3) 0.3437(6) 0.0497(4)
N3_4 N 0.9798(3) 0.2754(6) 0.0206(3)
C8_4 C 0.9515(3) 0.2189(7) 0.0233(4)
N4_4 N 0.9278(3) 0.2290(6) 0.0520(3)
H10_4 H 0.8925 0.1055 0.0034
N13_2 N 0.8199(3) 0.4944(7) 0.2207(3)
C14_5 C 0.9110(4) 0.0088(10) 0.9646(5)
C15_5 C 0.9130(3) 0.0873(9) 0.9900(4)
C16_5 C 0.9460(3) 0.1378(7) 0.9949(4)
C17_5 C 0.9738(3) 0.1137(9) 0.9720(4)
H11_5 H 0.9959 0.1501 0.9727
C18_5 C 0.9680(3) 0.0320(8) 0.9471(4)
H12_5 H 0.9880 0.0119 0.9332
C19_5 C 0.8953(3) 0.0168(6) 0.8387(4)
H13_5 H 0.9198 0.0399 0.8516
C20_5 C 0.8711(3) 0.0684(8) 0.8075(4)
H14_5 H 0.8790 0.1263 0.7993
C21_5 C 0.8360(4) 0.0356(8) 0.7888(4)
C24_5 C 0.8088(3) 0.0908(6) 0.7559(4)
N8_5 N 0.8195(3) 0.1760(6) 0.7511(3)
C25_5 C 0.7949(3) 0.2207(7) 0.7198(3)
N9_5 N 0.7640(3) 0.1892(6) 0.6924(3)
C26_5 C 0.7572(3) 0.1025(7) 0.7005(4)
N10_5 N 0.7773(3) 0.0495(6) 0.7332(3)
N11_3 N 0.8199(3) 0.5056(7) 0.7207(3)
C27_5 C 0.7882(3) 0.4740(7) 0.6945(4)
H17_4 H 0.7708 0.5150 0.6771
C28_5 C 0.7805(3) 0.3833(6) 0.6921(4)
H18_5 H 0.7584 0.3623 0.6721
C29_5 C 0.8040(3) 0.3215(7) 0.7180(4)
C30_5 C 0.8361(3) 0.3562(7) 0.7457(4)
H19_5 H 0.8532 0.3167 0.7645
C31_5 C 0.8434(4) 0.4477(6) 0.7462(5)
H20_5 H 0.8658 0.4703 0.7652
C34_5 C 0.7238(3) 0.0558(6) 0.6705(3)
C35_5 C 0.7012(3) 0.0999(8) 0.6355(4)
H23_5 H 0.7054 0.1620 0.6301
C36_5 C 0.6724(3) 0.0529(6) 0.6081(4)
H24_5 H 0.6565 0.0829 0.5838
Zn4_3 Zn 0.83363(4) 0.64302(9) 0.72454(5)
I1_5 I 0.77345(3) 0.73966(6) 0.70600(3)
I2_5 I 0.88219(3) 0.66419(7) 0.79765(3)
N1_5 N 0.8639(3) 0.6580(7) 0.6741(4)
C1_5 C 0.8884(4) 0.5986(9) 0.6679(5)
H1_5 H 0.8911 0.5455 0.6858
C2_5 C 0.9108(4) 0.6075(9) 0.6371(4)
H2_5 H 0.9286 0.5613 0.6340
C3_5 C 0.9078(3) 0.6829(6) 0.6105(4)
C4_5 C 0.8798(3) 0.7444(8) 0.6142(4)
H3_5 H 0.8758 0.7961 0.5953
C5_5 C 0.8575(4) 0.7305(8) 0.6455(4)
H4_5 H 0.8374 0.7716 0.6473
C6_5 C 0.9349(3) 0.6996(7) 0.5794(3)
N2_5 N 0.9623(3) 0.6387(6) 0.5793(3)
C7_5 C 0.9843(3) 0.6563(6) 0.5497(4)
N3_5 N 0.9798(3) 0.7246(6) 0.5206(3)
C8_5 C 0.9515(3) 0.7811(7) 0.5233(4)
N4_5 N 0.9278(3) 0.7710(6) 0.5520(3)
C14_6 C 0.9110(4) 0.9912(10) 0.4646(5)
C15_6 C 0.9130(3) 0.9127(9) 0.4900(4)
H10_5 H 0.8925 0.8945 0.5034
C16_6 C 0.9460(3) 0.8622(7) 0.4949(4)
C17_6 C 0.9738(3) 0.8863(9) 0.4720(4)
H11_6 H 0.9959 0.8499 0.4727
C18_6 C 0.9680(3) 0.9680(8) 0.4471(4)
H12_6 H 0.9880 0.9881 0.4332
C19_6 C 0.8953(3) 0.9832(6) 0.3387(4)
H13_6 H 0.9198 0.9601 0.3516
C20_6 C 0.8711(3) 0.9316(8) 0.3075(4)
H14_6 H 0.8790 0.8737 0.2993
C21_6 C 0.8360(4) 0.9644(8) 0.2888(4)
C24_6 C 0.8088(3) 0.9092(6) 0.2559(4)
N8_6 N 0.8195(3) 0.8240(6) 0.2511(3)
C25_6 C 0.7949(3) 0.7793(7) 0.2198(3)
N9_6 N 0.7640(3) 0.8108(6) 0.1924(3)
C26_6 C 0.7572(3) 0.8975(7) 0.2005(4)
N10_6 N 0.7773(3) 0.9505(6) 0.2332(3)
C27_6 C 0.7882(3) 0.5260(7) 0.1945(4)
H17_5 H 0.7708 0.4850 0.1771
C28_6 C 0.7805(3) 0.6167(6) 0.1921(4)
H18_6 H 0.7584 0.6377 0.1721
C29_6 C 0.8040(3) 0.6785(7) 0.2180(4)
C30_6 C 0.8361(3) 0.6438(7) 0.2457(4)
H19_6 H 0.8532 0.6833 0.2645
C31_6 C 0.8434(4) 0.5523(6) 0.2462(5)
H20_6 H 0.8658 0.5297 0.2652
C34_6 C 0.7238(3) 0.9442(6) 0.1705(3)
C35_6 C 0.7012(3) 0.9001(8) 0.1355(4)
H23_6 H 0.7054 0.8380 0.1301
C36_6 C 0.6724(3) 0.9471(6) 0.1081(4)
H24_6 H 0.6565 0.9171 0.0838
N6_4 N 0.9369(3) 0.9817(7) 0.9420(4)
H9_4 H 0.8892 0.9714 0.9633
Zn3_4 Zn 0.92557(4) 0.86884(9) 0.90001(5)
I5_4 I 0.89168(3) 0.75820(6) 0.94206(3)
I6_4 I 0.98366(3) 0.84459(6) 0.86614(3)
N7_4 N 0.8852(3) 0.9356(6) 0.8511(3)
C22_4 C 0.8260(3) 0.9472(8) 0.8007(4)
H15_4 H 0.8022 0.9210 0.7871
C23_4 C 0.8516(3) 0.9006(7) 0.8324(4)
H16_4 H 0.8451 0.8419 0.8410
N12_2 N 0.6664(3) 0.9649(5) 0.6157(3)
C32_4 C 0.6870(3) 0.9230(7) 0.6510(4)
H21_4 H 0.6809 0.8626 0.6576
C33_4 C 0.7169(3) 0.9661(6) 0.6779(4)
H22_4 H 0.7328 0.9343 0.7016
Zn5_2 Zn 0.62545(4) 0.89490(10) 0.56968(5)
Zn1_3 Zn 0.33363(4) 0.85698(9) 0.22454(5)
I1_6 I 0.27345(3) 0.76034(6) 0.20600(3)
I2_6 I 0.38219(3) 0.83581(7) 0.29765(3)
N1_6 N 0.3639(3) 0.8420(7) 0.1741(4)
C1_6 C 0.3884(4) 0.9014(9) 0.1679(5)
H1_6 H 0.3911 0.9545 0.1858
C2_6 C 0.4108(4) 0.8925(9) 0.1371(4)
H2_6 H 0.4286 0.9387 0.1340
C3_6 C 0.4078(3) 0.8171(6) 0.1105(4)
C4_6 C 0.3798(3) 0.7556(8) 0.1142(4)
H3_6 H 0.3758 0.7039 0.0953
C5_6 C 0.3575(4) 0.7695(8) 0.1455(4)
H4_6 H 0.3374 0.7284 0.1473
C6_6 C 0.4349(3) 0.8004(7) 0.0794(3)
N2_6 N 0.4623(3) 0.8613(6) 0.0793(3)
C7_6 C 0.4843(3) 0.8437(6) 0.0497(4)
N3_6 N 0.4798(3) 0.7754(6) 0.0206(3)
C8_6 C 0.4515(3) 0.7189(7) 0.0233(4)
N4_6 N 0.4278(3) 0.7290(6) 0.0520(3)
C9_4 C 0.5650(3) 0.9741(7) 0.0200(3)
C10_4 C 0.5340(3) 0.9171(7) 0.0149(4)
C11_4 C 0.5187(3) 0.9041(7) 0.0532(3)
C12_4 C 0.5349(3) 0.9400(8) 0.0936(4)
H7_4 H 0.5247 0.9293 0.1195
C13_4 C 0.5664(3) 0.9921(11) 0.0947(3)
H10_6 H 0.3925 0.6055 0.0034
N13_3 N 0.3199(3) 0.9944(7) 0.2207(3)
N5_4 N 0.5808(3) 0.9878(7) 0.5589(3)
H8_4 H 0.5791 0.9844 0.6227
I3_4 I 0.60284(3) 0.76586(6) 0.61381(4)
I4_4 I 0.65259(3) 0.87526(9) 0.50092(4)
H17_6 H 0.2708 0.9850 0.1771
N5_5 N 0.4192(3) 0.0122(7) 0.4411(3)
H8_5 H 0.4209 0.0156 0.3773
Zn2_3 Zn 0.37455(4) 0.10510(10) 0.43032(5)
I3_5 I 0.39716(3) 0.23414(6) 0.38619(4)
I4_5 I 0.34741(3) 0.12474(9) 0.49908(4)
N11_4 N 0.6801(3) 0.0056(7) 0.7793(3)
H17_7 H 0.7292 0.0150 0.8229
Zn4_4 Zn 0.66637(4) 0.14302(9) 0.77546(5)
N14_3 N 0.3336(3) 0.0351(5) 0.3843(3)
N6_5 N 0.0631(3) 0.0183(7) 0.0580(4)
H9_5 H 0.1108 0.0286 0.0367
Zn3_5 Zn 0.07443(4) 0.13116(9) 0.09999(5)
I5_5 I 0.10832(3) 0.24180(6) 0.05794(3)
I6_5 I 0.01634(3) 0.15541(6) 0.13386(3)
N7_5 N 0.1148(3) 0.0644(6) 0.1489(3)
C22_5 C 0.1740(3) 0.0528(8) 0.1993(4)
H15_5 H 0.1978 0.0790 0.2129
C23_5 C 0.1484(3) 0.0994(7) 0.1676(4)
H16_5 H 0.1549 0.1581 0.1590
C32_5 C 0.3130(3) 0.0770(7) 0.3490(4)
H21_5 H 0.3191 0.1374 0.3424
C33_5 C 0.2831(3) 0.0339(6) 0.3221(4)
H22_5 H 0.2672 0.0657 0.2984
I1_7 I 0.72655(3) 0.23966(6) 0.79400(3)
I2_7 I 0.61781(3) 0.16419(7) 0.70235(3)
N1_7 N 0.6361(3) 0.1580(7) 0.8259(4)
C1_7 C 0.6116(4) 0.0986(9) 0.8321(5)
H1_7 H 0.6089 0.0455 0.8142
C2_7 C 0.5892(4) 0.1075(9) 0.8629(4)
H2_7 H 0.5714 0.0613 0.8660
C3_7 C 0.5922(3) 0.1829(6) 0.8895(4)
C4_7 C 0.6202(3) 0.2444(8) 0.8858(4)
H3_7 H 0.6242 0.2961 0.9047
C5_7 C 0.6425(4) 0.2305(8) 0.8545(4)
H4_7 H 0.6626 0.2716 0.8527
C6_7 C 0.5651(3) 0.1996(7) 0.9206(3)
N2_7 N 0.5377(3) 0.1387(6) 0.9207(3)
C7_7 C 0.5157(3) 0.1563(6) 0.9503(4)
N3_7 N 0.5202(3) 0.2246(6) 0.9794(3)
C8_7 C 0.5485(3) 0.2811(7) 0.9767(4)
N4_7 N 0.5722(3) 0.2710(6) 0.9480(3)
C9_5 C 0.4350(3) 0.0259(7) 0.9800(3)
C10_5 C 0.4660(3) 0.0829(7) 0.9851(4)
C11_5 C 0.4813(3) 0.0959(7) 0.9468(3)
C12_5 C 0.4651(3) 0.0600(8) 0.9064(4)
H7_5 H 0.4753 0.0707 0.8805
C13_5 C 0.4336(3) 0.0079(11) 0.9053(3)
H10_7 H 0.6075 0.3945 0.9966
Zn1_4 Zn 0.66637(4) 0.85698(9) 0.27546(5)
I1_8 I 0.72655(3) 0.76034(6) 0.29400(3)
I2_8 I 0.61781(3) 0.83581(7) 0.20235(3)
N1_8 N 0.6361(3) 0.8420(7) 0.3259(4)
C1_8 C 0.6116(4) 0.9014(9) 0.3321(5)
H1_8 H 0.6089 0.9545 0.3142
C2_8 C 0.5892(4) 0.8925(9) 0.3629(4)
H2_8 H 0.5714 0.9387 0.3660
C3_8 C 0.5922(3) 0.8171(6) 0.3895(4)
C4_8 C 0.6202(3) 0.7556(8) 0.3858(4)
H3_8 H 0.6242 0.7039 0.4047
C5_8 C 0.6425(4) 0.7695(8) 0.3545(4)
H4_8 H 0.6626 0.7284 0.3527
C6_8 C 0.5651(3) 0.8004(7) 0.4206(3)
N2_8 N 0.5377(3) 0.8613(6) 0.4207(3)
C7_8 C 0.5157(3) 0.8437(6) 0.4503(4)
N3_8 N 0.5202(3) 0.7754(6) 0.4794(3)
C8_8 C 0.5485(3) 0.7189(7) 0.4767(4)
N4_8 N 0.5722(3) 0.7290(6) 0.4480(3)
C9_6 C 0.4350(3) 0.9741(7) 0.4800(3)
H5_5 H 0.4243 0.9869 0.5053
C10_6 C 0.4660(3) 0.9171(7) 0.4851(4)
H6_5 H 0.4764 0.8885 0.5127
C11_6 C 0.4813(3) 0.9041(7) 0.4468(3)
C12_6 C 0.4651(3) 0.9400(8) 0.4064(4)
H7_6 H 0.4753 0.9293 0.3805
C13_6 C 0.4336(3) 0.9921(11) 0.4053(3)
N6_6 N 0.5631(3) 0.4817(7) 0.5580(4)
C14_7 C 0.5890(4) 0.5088(10) 0.5354(5)
H9_6 H 0.6108 0.4714 0.5367
C15_7 C 0.5870(3) 0.5873(9) 0.5100(4)
H10_8 H 0.6075 0.6055 0.4966
C16_7 C 0.5540(3) 0.6378(7) 0.5051(4)
C17_7 C 0.5262(3) 0.6137(9) 0.5280(4)
H11_7 H 0.5041 0.6501 0.5273
C18_7 C 0.5320(3) 0.5320(8) 0.5529(4)
H12_7 H 0.5120 0.5119 0.5668
Zn3_6 Zn 0.57443(4) 0.36884(9) 0.59999(5)
I5_6 I 0.60832(3) 0.25820(6) 0.55794(3)
I6_6 I 0.51634(3) 0.34459(6) 0.63386(3)
N7_6 N 0.6148(3) 0.4356(6) 0.6489(3)
C19_7 C 0.6047(3) 0.5168(6) 0.6613(4)
H13_7 H 0.5802 0.5399 0.6484
C20_7 C 0.6289(3) 0.5684(8) 0.6925(4)
H14_7 H 0.6210 0.6263 0.7007
C21_7 C 0.6640(4) 0.5356(8) 0.7112(4)
C22_6 C 0.6740(3) 0.4472(8) 0.6993(4)
H15_6 H 0.6978 0.4210 0.7129
C23_6 C 0.6484(3) 0.4006(7) 0.6676(4)
H16_6 H 0.6549 0.3419 0.6590
C24_7 C 0.6912(3) 0.5908(6) 0.7441(4)
N8_7 N 0.6805(3) 0.6760(6) 0.7489(3)
C25_7 C 0.7051(3) 0.7207(7) 0.7802(3)
N9_7 N 0.7360(3) 0.6892(6) 0.8076(3)
C26_7 C 0.7428(3) 0.6025(7) 0.7995(4)
N10_7 N 0.7227(3) 0.5495(6) 0.7668(3)
C27_7 C 0.7118(3) 0.9740(7) 0.8055(4)
C28_7 C 0.7195(3) 0.8833(6) 0.8079(4)
H18_7 H 0.7416 0.8623 0.8279
C29_7 C 0.6960(3) 0.8215(7) 0.7820(4)
C30_7 C 0.6639(3) 0.8562(7) 0.7543(4)
H19_7 H 0.6468 0.8167 0.7355
C31_7 C 0.6566(4) 0.9477(6) 0.7538(5)
H20_7 H 0.6342 0.9703 0.7348
N12_3 N 0.8336(3) 0.4649(5) 0.8843(3)
C32_6 C 0.8130(3) 0.4230(7) 0.8490(4)
H21_6 H 0.8191 0.3626 0.8424
C33_6 C 0.7831(3) 0.4661(6) 0.8221(4)
H22_6 H 0.7672 0.4343 0.7984
C34_7 C 0.7762(3) 0.5558(6) 0.8295(3)
C35_7 C 0.7988(3) 0.5999(8) 0.8645(4)
H23_7 H 0.7946 0.6620 0.8699
C36_7 C 0.8276(3) 0.5529(6) 0.8919(4)
H24_7 H 0.8435 0.5829 0.9162
Zn5_3 Zn 0.87455(4) 0.39490(10) 0.93032(5)
N13_4 N 0.6801(3) 0.9944(7) 0.2793(3)
N5_6 N 0.9192(3) 0.4878(7) 0.9411(3)
C9_7 C 0.9350(3) 0.5259(7) 0.9800(3)
C10_7 C 0.9660(3) 0.5829(7) 0.9851(4)
C11_7 C 0.9813(3) 0.5959(7) 0.9468(3)
C12_7 C 0.9651(3) 0.5600(8) 0.9064(4)
H7_7 H 0.9753 0.5707 0.8805
C13_7 C 0.9336(3) 0.5079(11) 0.9053(3)
H8_6 H 0.9209 0.4844 0.8773
I3_6 I 0.89716(3) 0.26586(6) 0.88619(4)
I4_6 I 0.84741(3) 0.37526(9) 0.99908(4)
H17_8 H 0.7292 0.9850 0.3229
N5_7 N 0.5808(3) 0.0122(7) 0.0589(3)
H8_7 H 0.5791 0.0156 0.1227
Zn2_4 Zn 0.62545(4) 0.10510(10) 0.06968(5)
I3_7 I 0.60284(3) 0.23414(6) 0.11381(4)
I4_7 I 0.65259(3) 0.12474(9) 0.00092(4)
N14_4 N 0.6664(3) 0.0351(5) 0.1157(3)
N6_7 N 0.9369(3) 0.0183(7) 0.4420(4)
H9_7 H 0.8892 0.0286 0.4633
Zn3_7 Zn 0.92557(4) 0.13116(9) 0.40001(5)
I5_7 I 0.89168(3) 0.24180(6) 0.44206(3)
I6_7 I 0.98366(3) 0.15541(6) 0.36614(3)
N7_7 N 0.8852(3) 0.0644(6) 0.3511(3)
C22_7 C 0.8260(3) 0.0528(8) 0.3007(4)
H15_7 H 0.8022 0.0790 0.2871
C23_7 C 0.8516(3) 0.0994(7) 0.3324(4)
H16_7 H 0.8451 0.1581 0.3410
C32_7 C 0.6870(3) 0.0770(7) 0.1510(4)
H21_7 H 0.6809 0.1374 0.1576
C33_7 C 0.7169(3) 0.0339(6) 0.1779(4)
H22_7 H 0.7328 0.0657 0.2016
H5_6 H 0.5757 0.9869 0.9947
H6_6 H 0.5236 0.8885 0.9873
N6_8 N 0.4369(3) 0.4817(7) 0.9420(4)
C14_8 C 0.4110(4) 0.5088(10) 0.9646(5)
H9_8 H 0.3892 0.4714 0.9633
C15_8 C 0.4130(3) 0.5873(9) 0.9900(4)
C16_8 C 0.4460(3) 0.6378(7) 0.9949(4)
C17_8 C 0.4738(3) 0.6137(9) 0.9720(4)
H11_8 H 0.4959 0.6501 0.9727
C18_8 C 0.4680(3) 0.5320(8) 0.9471(4)
H12_8 H 0.4880 0.5119 0.9332
Zn3_8 Zn 0.42557(4) 0.36884(9) 0.90001(5)
I5_8 I 0.39168(3) 0.25820(6) 0.94206(3)
I6_8 I 0.48366(3) 0.34459(6) 0.86614(3)
N7_8 N 0.3852(3) 0.4356(6) 0.8511(3)
C19_8 C 0.3953(3) 0.5168(6) 0.8387(4)
H13_8 H 0.4198 0.5399 0.8516
C20_8 C 0.3711(3) 0.5684(8) 0.8075(4)
H14_8 H 0.3790 0.6263 0.7993
C21_8 C 0.3360(4) 0.5356(8) 0.7888(4)
C22_8 C 0.3260(3) 0.4472(8) 0.8007(4)
H15_8 H 0.3022 0.4210 0.7871
C23_8 C 0.3516(3) 0.4006(7) 0.8324(4)
H16_8 H 0.3451 0.3419 0.8410
C24_8 C 0.3088(3) 0.5908(6) 0.7559(4)
N8_8 N 0.3195(3) 0.6760(6) 0.7511(3)
C25_8 C 0.2949(3) 0.7207(7) 0.7198(3)
N9_8 N 0.2640(3) 0.6892(6) 0.6924(3)
C26_8 C 0.2572(3) 0.6025(7) 0.7005(4)
N10_8 N 0.2773(3) 0.5495(6) 0.7332(3)
C27_8 C 0.2882(3) 0.9740(7) 0.6945(4)
C28_8 C 0.2805(3) 0.8833(6) 0.6921(4)
H18_8 H 0.2584 0.8623 0.6721
C29_8 C 0.3040(3) 0.8215(7) 0.7180(4)
C30_8 C 0.3361(3) 0.8562(7) 0.7457(4)
H19_8 H 0.3532 0.8167 0.7645
C31_8 C 0.3434(4) 0.9477(6) 0.7462(5)
H20_8 H 0.3658 0.9703 0.7652
N12_4 N 0.1664(3) 0.4649(5) 0.6157(3)
C32_8 C 0.1870(3) 0.4230(7) 0.6510(4)
H21_8 H 0.1809 0.3626 0.6576
C33_8 C 0.2169(3) 0.4661(6) 0.6779(4)
H22_8 H 0.2328 0.4343 0.7016
C34_8 C 0.2238(3) 0.5558(6) 0.6705(3)
C35_8 C 0.2012(3) 0.5999(8) 0.6355(4)
H23_8 H 0.2054 0.6620 0.6301
C36_8 C 0.1724(3) 0.5529(6) 0.6081(4)
H24_8 H 0.1565 0.5829 0.5838
Zn5_4 Zn 0.12545(4) 0.39490(10) 0.56968(5)
N5_8 N 0.0808(3) 0.4878(7) 0.5589(3)
C9_8 C 0.0650(3) 0.5259(7) 0.5200(3)
H5_7 H 0.0757 0.5131 0.4947
C10_8 C 0.0340(3) 0.5829(7) 0.5149(4)
H6_7 H 0.0236 0.6115 0.4873
C11_8 C 0.0187(3) 0.5959(7) 0.5532(3)
C12_8 C 0.0349(3) 0.5600(8) 0.5936(4)
H7_8 H 0.0247 0.5707 0.6195
C13_8 C 0.0664(3) 0.5079(11) 0.5947(3)
H8_8 H 0.0791 0.4844 0.6227
I3_8 I 0.10284(3) 0.26586(6) 0.61381(4)
I4_8 I 0.15259(3) 0.37526(9) 0.50092(4)
H5_8 H 0.9243 0.5131 0.0053
H6_8 H 0.9764 0.6115 0.0127
loop_
_geom_bond_atom_site_label_1
_geom_bond_atom_site_label_2
_geom_bond_site_symmetry_1
_geom_bond_site_symmetry_2
Zn1 I1 1_555 1_555
I2 Zn1 1_555 1_555
N1 Zn1 1_555 1_555
C1 N1 1_555 1_555
H1 C1 1_555 1_555
C2 C1 1_555 1_555
H2 C2 1_555 1_555
C3 C2 1_555 1_555
C4 C3 1_555 1_555
H3 C4 1_555 1_555
C5 N1 1_555 1_555
H4 C5 1_555 1_555
C6 C3 1_555 1_555
N2 C6 1_555 1_555
C7 N2 1_555 1_555
N3 C7 1_555 1_555
C8 N3 1_555 1_555
N4 C6 1_555 1_555
C15 C14 1_555 1_555
H10 C15 1_555 1_555
C16 C8 1_555 1_555
C17 C16 1_555 1_555
H11 C17 1_555 1_555
H12 C18 1_555 1_555
H13 C19 1_555 1_555
C20 C19 1_555 1_555
H14 C20 1_555 1_555
C21 C20 1_555 1_555
C24 C21 1_555 1_555
N8 C24 1_555 1_555
C25 N8 1_555 1_555
N9 C25 1_555 1_555
C26 N9 1_555 1_555
N10 C24 1_555 1_555
N11 C27 1_555 1_555
C27 H17 1_555 1_555
C28 C27 1_555 1_555
H18 C28 1_555 1_555
C29 C25 1_555 1_555
C30 C29 1_555 1_555
H19 C30 1_555 1_555
C31 N11 1_555 1_555
H20 C31 1_555 1_555
C34 C26 1_555 1_555
C35 C34 1_555 1_555
H23 C35 1_555 1_555
H24 C36 1_555 1_555
Zn4 N11 1_555 1_555
N13 Zn1 1_555 1_555
C4 C5 1_555 1_555
C8 N4 1_555 1_555
C15 C16 1_555 1_555
C17 C18 1_555 1_555
C26 N10 1_555 1_555
C28 C29 1_555 1_555
C30 C31 1_555 1_555
C35 C36 1_555 1_555
C15_2 C14_2 1_555 1_555
C17_2 C16_2 1_555 1_555
H11_2 C17_2 1_555 1_555
H12_2 C18_2 1_555 1_555
H13_2 C19_2 1_555 1_555
C20_2 C19_2 1_555 1_555
H14_2 C20_2 1_555 1_555
C21_2 C20_2 1_555 1_555
C24_2 C21_2 1_555 1_555
N8_2 C24_2 1_555 1_555
C25_2 N8_2 1_555 1_555
N9_2 C25_2 1_555 1_555
C26_2 N9_2 1_555 1_555
N10_2 C24_2 1_555 1_555
N13 C27_2 1_555 1_555
C27_2 H17_2 1_555 1_555
C28_2 C27_2 1_555 1_555
H18_2 C28_2 1_555 1_555
C29_2 C25_2 1_555 1_555
C30_2 C29_2 1_555 1_555
H19_2 C30_2 1_555 1_555
C31_2 N13 1_555 1_555
H20_2 C31_2 1_555 1_555
C34_2 C26_2 1_555 1_555
C35_2 C34_2 1_555 1_555
H23_2 C35_2 1_555 1_555
H24_2 C36_2 1_555 1_555
C15_2 C16_2 1_555 1_555
C17_2 C18_2 1_555 1_555
C26_2 N10_2 1_555 1_555
C28_2 C29_2 1_555 1_555
C30_2 C31_2 1_555 1_555
C35_2 C36_2 1_555 1_555
Zn4 I1_2 1_555 1_555
I2_2 Zn4 1_555 1_555
N1_2 Zn4 1_555 1_555
C1_2 N1_2 1_555 1_555
H1_2 C1_2 1_555 1_555
C2_2 C1_2 1_555 1_555
H2_2 C2_2 1_555 1_555
C3_2 C2_2 1_555 1_555
C4_2 C3_2 1_555 1_555
H3_2 C4_2 1_555 1_555
C5_2 N1_2 1_555 1_555
H4_2 C5_2 1_555 1_555
C6_2 C3_2 1_555 1_555
N2_2 C6_2 1_555 1_555
C7_2 N2_2 1_555 1_555
N3_2 C7_2 1_555 1_555
C8_2 N3_2 1_555 1_555
N4_2 C6_2 1_555 1_555
C4_2 C5_2 1_555 1_555
C8_2 N4_2 1_555 1_555
Zn3 N6 1_555 1_555
I5 Zn3 1_555 1_555
I6 Zn3 1_555 1_555
N7 Zn3 1_555 1_555
H15 C22 1_555 1_555
C23 N7 1_555 1_555
H16 C23 1_555 1_555
N12 C32 1_555 1_555
C32 H21 1_555 1_555
C33 C32 1_555 1_555
H22 C33 1_555 1_555
Zn5 N12 1_555 1_555
C22 C23 1_555 1_555
Zn5 N5 1_555 1_555
I3 Zn5 1_555 1_555
I4 Zn5 1_555 1_555
N5_2 C9 1_555 1_555
C9 H5 1_555 1_555
C10 C9 1_555 1_555
H6 C10 1_555 1_555
C12 C11 1_555 1_555
H7 C12 1_555 1_555
C13 N5_2 1_555 1_555
H8_2 C13 1_555 1_555
Zn2 N5_2 1_555 1_555
I3_2 Zn2 1_555 1_555
I4_2 Zn2 1_555 1_555
N14 Zn2 1_555 1_555
C10 C11 1_555 1_555
C12 C13 1_555 1_555
N6_2 C14_3 1_555 1_555
C14_3 H9_2 1_555 1_555
C15_3 C14_3 1_555 1_555
C17_3 C16_3 1_555 1_555
H11_3 C17_3 1_555 1_555
C18_3 N6_2 1_555 1_555
H12_3 C18_3 1_555 1_555
Zn3_2 N6_2 1_555 1_555
I5_2 Zn3_2 1_555 1_555
I6_2 Zn3_2 1_555 1_555
N7_2 Zn3_2 1_555 1_555
C19_3 N7_2 1_555 1_555
H13_3 C19_3 1_555 1_555
C20_3 C19_3 1_555 1_555
H14_3 C20_3 1_555 1_555
C21_3 C20_3 1_555 1_555
C22_2 C21_3 1_555 1_555
H15_2 C22_2 1_555 1_555
C23_2 N7_2 1_555 1_555
H16_2 C23_2 1_555 1_555
C24_3 C21_3 1_555 1_555
N8_3 C24_3 1_555 1_555
C25_3 N8_3 1_555 1_555
N9_3 C25_3 1_555 1_555
C26_3 N9_3 1_555 1_555
N10_3 C24_3 1_555 1_555
C28_3 C27_3 1_555 1_555
H18_3 C28_3 1_555 1_555
C29_3 C25_3 1_555 1_555
C30_3 C29_3 1_555 1_555
H19_3 C30_3 1_555 1_555
H20_3 C31_3 1_555 1_555
N14 C32_2 1_555 1_555
C32_2 H21_2 1_555 1_555
C33_2 C32_2 1_555 1_555
H22_2 C33_2 1_555 1_555
C34_3 C26_3 1_555 1_555
C35_3 C34_3 1_555 1_555
H23_3 C35_3 1_555 1_555
C36_3 N14 1_555 1_555
H24_3 C36_3 1_555 1_555
C15_3 C16_3 1_555 1_555
C17_3 C18_3 1_555 1_555
C22_2 C23_2 1_555 1_555
C26_3 N10_3 1_555 1_555
C28_3 C29_3 1_555 1_555
C30_3 C31_3 1_555 1_555
C33_2 C34_3 1_555 1_555
C35_3 C36_3 1_555 1_555
N5_3 C9_2 1_555 1_555
C10_2 C9_2 1_555 1_555
C12_2 C11_2 1_555 1_555
H7_2 C12_2 1_555 1_555
C13_2 N5_3 1_555 1_555
H8_3 C13_2 1_555 1_555
Zn2_2 N5_3 1_555 1_555
I3_3 Zn2_2 1_555 1_555
I4_3 Zn2_2 1_555 1_555
N14_2 Zn2_2 1_555 1_555
C10_2 C11_2 1_555 1_555
C12_2 C13_2 1_555 1_555
Zn4_2 N11_2 1_555 1_555
Zn4_2 I1_3 1_555 1_555
I2_3 Zn4_2 1_555 1_555
N1_3 Zn4_2 1_555 1_555
C1_3 N1_3 1_555 1_555
H1_3 C1_3 1_555 1_555
C2_3 C1_3 1_555 1_555
H2_3 C2_3 1_555 1_555
C3_3 C2_3 1_555 1_555
C4_3 C3_3 1_555 1_555
H3_3 C4_3 1_555 1_555
C5_3 N1_3 1_555 1_555
H4_3 C5_3 1_555 1_555
C6_3 C3_3 1_555 1_555
N2_3 C6_3 1_555 1_555
C7_3 N2_3 1_555 1_555
N3_3 C7_3 1_555 1_555
C8_3 N3_3 1_555 1_555
N4_3 C6_3 1_555 1_555
C9_3 H5_3 1_555 1_555
C10_3 C9_3 1_555 1_555
H6_3 C10_3 1_555 1_555
C11_3 C7_3 1_555 1_555
C12_3 C11_3 1_555 1_555
H7_3 C12_3 1_555 1_555
N6_3 C14_4 1_555 1_555
C14_4 H9_3 1_555 1_555
C15_4 C14_4 1_555 1_555
H10_3 C15_4 1_555 1_555
C16_4 C8_3 1_555 1_555
C17_4 C16_4 1_555 1_555
H11_4 C17_4 1_555 1_555
C18_4 N6_3 1_555 1_555
H12_4 C18_4 1_555 1_555
Zn3_3 N6_3 1_555 1_555
I5_3 Zn3_3 1_555 1_555
I6_3 Zn3_3 1_555 1_555
N7_3 Zn3_3 1_555 1_555
C19_4 N7_3 1_555 1_555
H13_4 C19_4 1_555 1_555
C20_4 C19_4 1_555 1_555
H14_4 C20_4 1_555 1_555
C21_4 C20_4 1_555 1_555
C22_3 C21_4 1_555 1_555
H15_3 C22_3 1_555 1_555
C23_3 N7_3 1_555 1_555
H16_3 C23_3 1_555 1_555
C24_4 C21_4 1_555 1_555
N8_4 C24_4 1_555 1_555
C25_4 N8_4 1_555 1_555
N9_4 C25_4 1_555 1_555
C26_4 N9_4 1_555 1_555
N10_4 C24_4 1_555 1_555
C28_4 C27_4 1_555 1_555
H18_4 C28_4 1_555 1_555
C29_4 C25_4 1_555 1_555
C30_4 C29_4 1_555 1_555
H19_4 C30_4 1_555 1_555
H20_4 C31_4 1_555 1_555
N14_2 C32_3 1_555 1_555
C32_3 H21_3 1_555 1_555
C33_3 C32_3 1_555 1_555
H22_3 C33_3 1_555 1_555
C34_4 C26_4 1_555 1_555
C35_4 C34_4 1_555 1_555
H23_4 C35_4 1_555 1_555
C36_4 N14_2 1_555 1_555
H24_4 C36_4 1_555 1_555
C4_3 C5_3 1_555 1_555
C8_3 N4_3 1_555 1_555
C10_3 C11_3 1_555 1_555
C12_3 C13_3 1_555 1_555
C15_4 C16_4 1_555 1_555
C17_4 C18_4 1_555 1_555
C22_3 C23_3 1_555 1_555
C26_4 N10_4 1_555 1_555
C28_4 C29_4 1_555 1_555
C30_4 C31_4 1_555 1_555
C33_3 C34_4 1_555 1_555
C35_4 C36_4 1_555 1_555
Zn1_2 I1_4 1_555 1_555
I2_4 Zn1_2 1_555 1_555
N1_4 Zn1_2 1_555 1_555
C1_4 N1_4 1_555 1_555
H1_4 C1_4 1_555 1_555
C2_4 C1_4 1_555 1_555
H2_4 C2_4 1_555 1_555
C3_4 C2_4 1_555 1_555
C4_4 C3_4 1_555 1_555
H3_4 C4_4 1_555 1_555
C5_4 N1_4 1_555 1_555
H4_4 C5_4 1_555 1_555
C6_4 C3_4 1_555 1_555
N2_4 C6_4 1_555 1_555
C7_4 N2_4 1_555 1_555
N3_4 C7_4 1_555 1_555
C8_4 N3_4 1_555 1_555
N4_4 C6_4 1_555 1_555
N13_2 Zn1_2 1_555 1_555
C4_4 C5_4 1_555 1_555
C8_4 N4_4 1_555 1_555
C15_5 C14_5 1_555 1_555
C17_5 C16_5 1_555 1_555
H11_5 C17_5 1_555 1_555
H12_5 C18_5 1_555 1_555
H13_5 C19_5 1_555 1_555
C20_5 C19_5 1_555 1_555
H14_5 C20_5 1_555 1_555
C21_5 C20_5 1_555 1_555
C24_5 C21_5 1_555 1_555
N8_5 C24_5 1_555 1_555
C25_5 N8_5 1_555 1_555
N9_5 C25_5 1_555 1_555
C26_5 N9_5 1_555 1_555
N10_5 C24_5 1_555 1_555
N11_3 C27_5 1_555 1_555
C27_5 H17_4 1_555 1_555
C28_5 C27_5 1_555 1_555
H18_5 C28_5 1_555 1_555
C29_5 C25_5 1_555 1_555
C30_5 C29_5 1_555 1_555
H19_5 C30_5 1_555 1_555
C31_5 N11_3 1_555 1_555
H20_5 C31_5 1_555 1_555
C34_5 C26_5 1_555 1_555
C35_5 C34_5 1_555 1_555
H23_5 C35_5 1_555 1_555
H24_5 C36_5 1_555 1_555
Zn4_3 N11_3 1_555 1_555
C15_5 C16_5 1_555 1_555
C17_5 C18_5 1_555 1_555
C26_5 N10_5 1_555 1_555
C28_5 C29_5 1_555 1_555
C30_5 C31_5 1_555 1_555
C35_5 C36_5 1_555 1_555
Zn4_3 I1_5 1_555 1_555
I2_5 Zn4_3 1_555 1_555
N1_5 Zn4_3 1_555 1_555
C1_5 N1_5 1_555 1_555
H1_5 C1_5 1_555 1_555
C2_5 C1_5 1_555 1_555
H2_5 C2_5 1_555 1_555
C3_5 C2_5 1_555 1_555
C4_5 C3_5 1_555 1_555
H3_5 C4_5 1_555 1_555
C5_5 N1_5 1_555 1_555
H4_5 C5_5 1_555 1_555
C6_5 C3_5 1_555 1_555
N2_5 C6_5 1_555 1_555
C7_5 N2_5 1_555 1_555
N3_5 C7_5 1_555 1_555
C8_5 N3_5 1_555 1_555
N4_5 C6_5 1_555 1_555
C15_6 C14_6 1_555 1_555
H10_5 C15_6 1_555 1_555
C16_6 C8_5 1_555 1_555
C17_6 C16_6 1_555 1_555
H11_6 C17_6 1_555 1_555
H12_6 C18_6 1_555 1_555
H13_6 C19_6 1_555 1_555
C20_6 C19_6 1_555 1_555
H14_6 C20_6 1_555 1_555
C21_6 C20_6 1_555 1_555
C24_6 C21_6 1_555 1_555
N8_6 C24_6 1_555 1_555
C25_6 N8_6 1_555 1_555
N9_6 C25_6 1_555 1_555
C26_6 N9_6 1_555 1_555
N10_6 C24_6 1_555 1_555
N13_2 C27_6 1_555 1_555
C27_6 H17_5 1_555 1_555
C28_6 C27_6 1_555 1_555
H18_6 C28_6 1_555 1_555
C29_6 C25_6 1_555 1_555
C30_6 C29_6 1_555 1_555
H19_6 C30_6 1_555 1_555
C31_6 N13_2 1_555 1_555
H20_6 C31_6 1_555 1_555
C34_6 C26_6 1_555 1_555
C35_6 C34_6 1_555 1_555
H23_6 C35_6 1_555 1_555
H24_6 C36_6 1_555 1_555
C4_5 C5_5 1_555 1_555
C8_5 N4_5 1_555 1_555
C15_6 C16_6 1_555 1_555
C17_6 C18_6 1_555 1_555
C26_6 N10_6 1_555 1_555
C28_6 C29_6 1_555 1_555
C30_6 C31_6 1_555 1_555
C35_6 C36_6 1_555 1_555
Zn3_4 N6_4 1_555 1_555
I5_4 Zn3_4 1_555 1_555
I6_4 Zn3_4 1_555 1_555
N7_4 Zn3_4 1_555 1_555
H15_4 C22_4 1_555 1_555
C23_4 N7_4 1_555 1_555
H16_4 C23_4 1_555 1_555
N12_2 C32_4 1_555 1_555
C32_4 H21_4 1_555 1_555
C33_4 C32_4 1_555 1_555
H22_4 C33_4 1_555 1_555
Zn5_2 N12_2 1_555 1_555
C22_4 C23_4 1_555 1_555
Zn1_3 I1_6 1_555 1_555
I2_6 Zn1_3 1_555 1_555
N1_6 Zn1_3 1_555 1_555
C1_6 N1_6 1_555 1_555
H1_6 C1_6 1_555 1_555
C2_6 C1_6 1_555 1_555
H2_6 C2_6 1_555 1_555
C3_6 C2_6 1_555 1_555
C4_6 C3_6 1_555 1_555
H3_6 C4_6 1_555 1_555
C5_6 N1_6 1_555 1_555
H4_6 C5_6 1_555 1_555
C6_6 C3_6 1_555 1_555
N2_6 C6_6 1_555 1_555
C7_6 N2_6 1_555 1_555
N3_6 C7_6 1_555 1_555
C8_6 N3_6 1_555 1_555
N4_6 C6_6 1_555 1_555
C10_4 C9_4 1_555 1_555
C11_4 C7_6 1_555 1_555
C12_4 C11_4 1_555 1_555
H7_4 C12_4 1_555 1_555
N13_3 Zn1_3 1_555 1_555
C4_6 C5_6 1_555 1_555
C8_6 N4_6 1_555 1_555
C10_4 C11_4 1_555 1_555
C12_4 C13_4 1_555 1_555
Zn5_2 N5_4 1_555 1_555
I3_4 Zn5_2 1_555 1_555
I4_4 Zn5_2 1_555 1_555
Zn2_3 N5_5 1_555 1_555
I3_5 Zn2_3 1_555 1_555
I4_5 Zn2_3 1_555 1_555
Zn4_4 N11_4 1_555 1_555
N14_3 Zn2_3 1_555 1_555
Zn3_5 N6_5 1_555 1_555
I5_5 Zn3_5 1_555 1_555
I6_5 Zn3_5 1_555 1_555
N7_5 Zn3_5 1_555 1_555
H15_5 C22_5 1_555 1_555
C23_5 N7_5 1_555 1_555
H16_5 C23_5 1_555 1_555
N14_3 C32_5 1_555 1_555
C32_5 H21_5 1_555 1_555
C33_5 C32_5 1_555 1_555
H22_5 C33_5 1_555 1_555
C22_5 C23_5 1_555 1_555
Zn4_4 I1_7 1_555 1_555
I2_7 Zn4_4 1_555 1_555
N1_7 Zn4_4 1_555 1_555
C1_7 N1_7 1_555 1_555
H1_7 C1_7 1_555 1_555
C2_7 C1_7 1_555 1_555
H2_7 C2_7 1_555 1_555
C3_7 C2_7 1_555 1_555
C4_7 C3_7 1_555 1_555
H3_7 C4_7 1_555 1_555
C5_7 N1_7 1_555 1_555
H4_7 C5_7 1_555 1_555
C6_7 C3_7 1_555 1_555
N2_7 C6_7 1_555 1_555
C7_7 N2_7 1_555 1_555
N3_7 C7_7 1_555 1_555
C8_7 N3_7 1_555 1_555
N4_7 C6_7 1_555 1_555
C10_5 C9_5 1_555 1_555
C11_5 C7_7 1_555 1_555
C12_5 C11_5 1_555 1_555
H7_5 C12_5 1_555 1_555
C4_7 C5_7 1_555 1_555
C8_7 N4_7 1_555 1_555
C10_5 C11_5 1_555 1_555
C12_5 C13_5 1_555 1_555
Zn1_4 I1_8 1_555 1_555
I2_8 Zn1_4 1_555 1_555
N1_8 Zn1_4 1_555 1_555
C1_8 N1_8 1_555 1_555
H1_8 C1_8 1_555 1_555
C2_8 C1_8 1_555 1_555
H2_8 C2_8 1_555 1_555
C3_8 C2_8 1_555 1_555
C4_8 C3_8 1_555 1_555
H3_8 C4_8 1_555 1_555
C5_8 N1_8 1_555 1_555
H4_8 C5_8 1_555 1_555
C6_8 C3_8 1_555 1_555
N2_8 C6_8 1_555 1_555
C7_8 N2_8 1_555 1_555
N3_8 C7_8 1_555 1_555
C8_8 N3_8 1_555 1_555
N4_8 C6_8 1_555 1_555
C9_6 H5_5 1_555 1_555
C10_6 C9_6 1_555 1_555
H6_5 C10_6 1_555 1_555
C11_6 C7_8 1_555 1_555
C12_6 C11_6 1_555 1_555
H7_6 C12_6 1_555 1_555
N6_6 C14_7 1_555 1_555
C14_7 H9_6 1_555 1_555
C15_7 C14_7 1_555 1_555
H10_8 C15_7 1_555 1_555
C16_7 C8_8 1_555 1_555
C17_7 C16_7 1_555 1_555
H11_7 C17_7 1_555 1_555
C18_7 N6_6 1_555 1_555
H12_7 C18_7 1_555 1_555
Zn3_6 N6_6 1_555 1_555
I5_6 Zn3_6 1_555 1_555
I6_6 Zn3_6 1_555 1_555
N7_6 Zn3_6 1_555 1_555
C19_7 N7_6 1_555 1_555
H13_7 C19_7 1_555 1_555
C20_7 C19_7 1_555 1_555
H14_7 C20_7 1_555 1_555
C21_7 C20_7 1_555 1_555
C22_6 C21_7 1_555 1_555
H15_6 C22_6 1_555 1_555
C23_6 N7_6 1_555 1_555
H16_6 C23_6 1_555 1_555
C24_7 C21_7 1_555 1_555
N8_7 C24_7 1_555 1_555
C25_7 N8_7 1_555 1_555
N9_7 C25_7 1_555 1_555
C26_7 N9_7 1_555 1_555
N10_7 C24_7 1_555 1_555
C28_7 C27_7 1_555 1_555
H18_7 C28_7 1_555 1_555
C29_7 C25_7 1_555 1_555
C30_7 C29_7 1_555 1_555
H19_7 C30_7 1_555 1_555
H20_7 C31_7 1_555 1_555
N12_3 C32_6 1_555 1_555
C32_6 H21_6 1_555 1_555
C33_6 C32_6 1_555 1_555
H22_6 C33_6 1_555 1_555
C34_7 C26_7 1_555 1_555
C35_7 C34_7 1_555 1_555
H23_7 C35_7 1_555 1_555
C36_7 N12_3 1_555 1_555
H24_7 C36_7 1_555 1_555
Zn5_3 N12_3 1_555 1_555
N13_4 Zn1_4 1_555 1_555
C4_8 C5_8 1_555 1_555
C8_8 N4_8 1_555 1_555
C10_6 C11_6 1_555 1_555
C12_6 C13_6 1_555 1_555
C15_7 C16_7 1_555 1_555
C17_7 C18_7 1_555 1_555
C22_6 C23_6 1_555 1_555
C26_7 N10_7 1_555 1_555
C28_7 C29_7 1_555 1_555
C30_7 C31_7 1_555 1_555
C33_6 C34_7 1_555 1_555
C35_7 C36_7 1_555 1_555
N5_6 C9_7 1_555 1_555
C10_7 C9_7 1_555 1_555
C12_7 C11_7 1_555 1_555
H7_7 C12_7 1_555 1_555
C13_7 N5_6 1_555 1_555
H8_6 C13_7 1_555 1_555
Zn5_3 N5_6 1_555 1_555
I3_6 Zn5_3 1_555 1_555
I4_6 Zn5_3 1_555 1_555
C10_7 C11_7 1_555 1_555
C12_7 C13_7 1_555 1_555
Zn2_4 N5_7 1_555 1_555
I3_7 Zn2_4 1_555 1_555
I4_7 Zn2_4 1_555 1_555
N14_4 Zn2_4 1_555 1_555
Zn3_7 N6_7 1_555 1_555
I5_7 Zn3_7 1_555 1_555
I6_7 Zn3_7 1_555 1_555
N7_7 Zn3_7 1_555 1_555
H15_7 C22_7 1_555 1_555
C23_7 N7_7 1_555 1_555
H16_7 C23_7 1_555 1_555
N14_4 C32_7 1_555 1_555
C32_7 H21_7 1_555 1_555
C33_7 C32_7 1_555 1_555
H22_7 C33_7 1_555 1_555
C22_7 C23_7 1_555 1_555
N6_8 C14_8 1_555 1_555
C14_8 H9_8 1_555 1_555
C15_8 C14_8 1_555 1_555
C17_8 C16_8 1_555 1_555
H11_8 C17_8 1_555 1_555
C18_8 N6_8 1_555 1_555
H12_8 C18_8 1_555 1_555
Zn3_8 N6_8 1_555 1_555
I5_8 Zn3_8 1_555 1_555
I6_8 Zn3_8 1_555 1_555
N7_8 Zn3_8 1_555 1_555
C19_8 N7_8 1_555 1_555
H13_8 C19_8 1_555 1_555
C20_8 C19_8 1_555 1_555
H14_8 C20_8 1_555 1_555
C21_8 C20_8 1_555 1_555
C22_8 C21_8 1_555 1_555
H15_8 C22_8 1_555 1_555
C23_8 N7_8 1_555 1_555
H16_8 C23_8 1_555 1_555
C24_8 C21_8 1_555 1_555
N8_8 C24_8 1_555 1_555
C25_8 N8_8 1_555 1_555
N9_8 C25_8 1_555 1_555
C26_8 N9_8 1_555 1_555
N10_8 C24_8 1_555 1_555
C28_8 C27_8 1_555 1_555
H18_8 C28_8 1_555 1_555
C29_8 C25_8 1_555 1_555
C30_8 C29_8 1_555 1_555
H19_8 C30_8 1_555 1_555
H20_8 C31_8 1_555 1_555
N12_4 C32_8 1_555 1_555
C32_8 H21_8 1_555 1_555
C33_8 C32_8 1_555 1_555
H22_8 C33_8 1_555 1_555
C34_8 C26_8 1_555 1_555
C35_8 C34_8 1_555 1_555
H23_8 C35_8 1_555 1_555
C36_8 N12_4 1_555 1_555
H24_8 C36_8 1_555 1_555
Zn5_4 N12_4 1_555 1_555
C15_8 C16_8 1_555 1_555
C17_8 C18_8 1_555 1_555
C22_8 C23_8 1_555 1_555
C26_8 N10_8 1_555 1_555
C28_8 C29_8 1_555 1_555
C30_8 C31_8 1_555 1_555
C33_8 C34_8 1_555 1_555
C35_8 C36_8 1_555 1_555
N5_8 C9_8 1_555 1_555
C9_8 H5_7 1_555 1_555
C10_8 C9_8 1_555 1_555
H6_7 C10_8 1_555 1_555
C12_8 C11_8 1_555 1_555
H7_8 C12_8 1_555 1_555
C13_8 N5_8 1_555 1_555
H8_8 C13_8 1_555 1_555
Zn5_4 N5_8 1_555 1_555
I3_8 Zn5_4 1_555 1_555
I4_8 Zn5_4 1_555 1_555
C10_8 C11_8 1_555 1_555
C12_8 C13_8 1_555 1_555

#END
