
###############################################################################
#
# This file contains modified crystal structure data generated from the
# MOF subset of the Cambridge Structural Database (CSD) v543 
# hosted by the Cambridge Crystallographic Data Centre (CCDC).
#
# This work is licensed under the Creative Commons
# Attribution-NonCommercial-ShareAlike 4.0 International License.
# To view a copy of this license, visit
# http://creativecommons.org/licenses/by-nc-sa/4.0/
# or send a letter to
# Creative Commons, PO Box 1866, Mountain View, CA 94042, USA.
#
# CIF created using the CSD Python API on 29 September 2022
# The structure has been converted into the P1 space group
# The structure has a 3D framework
# The original CSD entry REYBEE is in the monoclinic crystal system
# The framework has been calculated to contain at least 10.0% void space
# The void calculation uses a probe of radius 1.32A, grid spacing 0.4
#
###############################################################################

data_REYBEE
_chemical_formula_moiety         '(C96 H76 N8 O20 Zn4)n'
_symmetry_cell_setting           triclinic
_symmetry_space_group_name_H-M   'P 1'
_symmetry_Int_Tables_number      1
_space_group_name_Hall           'P 1'
loop_
_symmetry_equiv_pos_site_id
_symmetry_equiv_pos_as_xyz
1 x,y,z
_cell_length_a                   8.695(5)
_cell_length_b                   16.594(9)
_cell_length_c                   17.034(9)
_cell_angle_alpha                90
_cell_angle_beta                 100.459(7)
_cell_angle_gamma                90
_cell_volume                     2416.91
loop_
_atom_site_label
_atom_site_type_symbol
_atom_site_fract_x
_atom_site_fract_y
_atom_site_fract_z
C23 C 0.1615(9) 0.7230(6) 0.7918(6)
H18 H 0.2595 0.7239 0.8246
C24 C 0.0490(10) 0.6723(6) 0.8105(6)
H19 H 0.0735 0.6385 0.8546
N2 N 0.1342(6) 0.7723(4) 0.7265(3)
Zn4 Zn 0.30919(7) 0.84437(4) 0.69732(4)
C11 C 0.9802(8) 0.4199(4) 0.4777(4)
H6 H 0.9653 0.3662 0.4623
C25 C 0.0957(8) 0.6333(4) 0.2945(4)
C26 C 0.2227(7) 0.6558(4) 0.3638(3)
C27 C 0.1985(7) 0.7115(4) 0.4188(3)
H20 H 0.1027 0.7378 0.4130
C28 C 0.3126(7) 0.7291(4) 0.4823(3)
C29 C 0.2824(8) 0.7888(4) 0.5468(4)
C30 C 0.4550(7) 0.6898(4) 0.4918(4)
H21 H 0.5322 0.7013 0.5357
C31 C 0.4831(7) 0.6336(4) 0.4364(4)
C32 C 0.3660(7) 0.6172(4) 0.3728(4)
H22 H 0.3833 0.5794 0.3351
C33 C 0.7348(7) 0.6007(5) 0.5107(4)
H23 H 0.7675 0.6565 0.5170
H24 H 0.6913 0.5851 0.5570
C34 C 0.8720(7) 0.5485(4) 0.5044(3)
C36 C 0.8521(7) 0.4693(5) 0.4827(4)
H26 H 0.7516 0.4479 0.4711
O7 O 0.1213(6) 0.5845(3) 0.2426(3)
O8 O 0.3836(5) 0.7902(3) 0.6103(2)
O9 O 0.1613(6) 0.8279(3) 0.5357(3)
O10 O 0.6209(5) 0.5919(3) 0.4410(2)
C1 C 0.5957(8) 0.8667(4) 0.7945(4)
C2 C 0.7227(7) 0.8442(4) 0.8638(3)
C3 C 0.6985(7) 0.7885(4) 0.9188(3)
H1 H 0.6027 0.7622 0.9130
C4 C 0.8126(7) 0.7709(4) 0.9823(3)
C6 C 0.9550(7) 0.8102(4) 0.9918(4)
C7 C 0.9831(7) 0.8664(4) 0.9364(4)
C8 C 0.8660(7) 0.8828(4) 0.8728(4)
H3 H 0.8833 0.9206 0.8351
C13 C 0.2102(9) 0.9867(5) 0.7685(4)
H8 H 0.2850 0.9681 0.8107
C17 C 0.0997(8) 0.9834(5) 0.6379(4)
H11 H 0.0950 0.9618 0.5871
N1 N 0.2037(6) 0.9530(3) 0.6971(3)
O1 O 0.4655(5) 0.8292(3) 0.7920(2)
O2 O 0.6213(6) 0.9155(3) 0.7426(3)
C13_2 C 0.2898(9) 0.4867(5) 0.7315(4)
H8_2 H 0.2150 0.4681 0.6893
C14 C 0.3877(8) 0.5472(5) 0.7171(4)
H9 H 0.3778 0.5691 0.6662
C15 C 0.5008(7) 0.5760(4) 0.7779(4)
C16 C 0.5013(9) 0.5447(5) 0.8530(4)
H10 H 0.5694 0.5651 0.8970
C17_2 C 0.4003(8) 0.4834(5) 0.8621(4)
H11_2 H 0.4050 0.4618 0.9129
C18 C 0.6177(9) 0.6381(5) 0.7619(5)
H12 H 0.5966 0.6513 0.7055
H13 H 0.6030 0.6868 0.7911
C19 C 0.7805(9) 0.6128(6) 0.7839(7)
H14 H 0.7929 0.5623 0.7571
H15 H 0.8023 0.6024 0.8409
C20 C 0.8995(9) 0.6702(5) 0.7652(5)
C21 C 0.8707(9) 0.7262(6) 0.7036(5)
H16 H 0.7712 0.7301 0.6726
C22 C 0.9893(9) 0.7762(6) 0.6879(5)
H17 H 0.9648 0.8146 0.6479
N1_2 N 0.2963(6) 0.4530(3) 0.8029(3)
O1_2 O 0.0345(5) 0.3292(3) 0.7080(2)
Zn1 Zn 0.19081(7) 0.34437(4) 0.80268(4)
N5 N 0.3658(6) 0.2723(4) 0.7735(3)
O12 O 0.1164(5) 0.2902(3) 0.8897(2)
C29_2 C 0.2176(8) 0.2888(4) 0.9532(4)
O9_2 O 0.3387(6) 0.3279(3) 0.9643(3)
C15_2 C 0.9992(7) 0.0760(4) 0.7221(4)
C16_2 C 0.9987(9) 0.0447(5) 0.6470(4)
H10_2 H 0.9306 0.0651 0.6030
C18_2 C 0.8823(9) 0.1381(5) 0.7381(5)
H12_2 H 0.9034 0.1513 0.7945
H13_2 H 0.8970 0.1868 0.7089
C19_2 C 0.7195(9) 0.1128(6) 0.7161(7)
H14_2 H 0.7071 0.0623 0.7429
H15_2 H 0.6977 0.1024 0.6591
C20_2 C 0.6005(9) 0.1702(5) 0.7348(5)
C21_2 C 0.6293(9) 0.2262(6) 0.7964(5)
H16_2 H 0.7288 0.2301 0.8274
C22_2 C 0.5107(9) 0.2762(6) 0.8121(5)
H17_2 H 0.5352 0.3146 0.8521
C23_2 C 0.3385(9) 0.2230(6) 0.7082(6)
H18_2 H 0.2405 0.2239 0.6754
C24_2 C 0.4510(10) 0.1723(6) 0.6895(6)
H19_2 H 0.4265 0.1385 0.6454
C1_2 C 0.9043(8) 0.3667(4) 0.7055(4)
C2_2 C 0.7773(7) 0.3442(4) 0.6362(3)
C3_2 C 0.8015(7) 0.2885(4) 0.5812(3)
H1_2 H 0.8973 0.2622 0.5870
C4_2 C 0.6874(7) 0.2709(4) 0.5177(3)
C5 C 0.7176(8) 0.2112(4) 0.4532(4)
C6_2 C 0.5450(7) 0.3102(4) 0.5082(4)
H2 H 0.4678 0.2987 0.4643
C7_2 C 0.5169(7) 0.3664(4) 0.5636(4)
C8_2 C 0.6340(7) 0.3828(4) 0.6272(4)
H3_2 H 0.6167 0.4206 0.6649
C9 C 0.2652(7) 0.3993(5) 0.4893(4)
H4 H 0.2325 0.3435 0.4830
H5 H 0.3087 0.4149 0.4430
C10 C 0.1280(7) 0.4515(4) 0.4956(3)
C12 C 0.1479(7) 0.5307(5) 0.5173(4)
H7 H 0.2484 0.5521 0.5289
O2_2 O 0.8787(6) 0.4155(3) 0.7574(3)
O3 O 0.6164(5) 0.2098(3) 0.3897(2)
O4 O 0.8387(6) 0.1721(3) 0.4643(3)
O5 O 0.3791(5) 0.4081(3) 0.5590(2)
C35 C 0.0198(8) 0.5801(4) 0.5223(4)
H25 H 0.0347 0.6338 0.5377
Zn6 Zn 0.69081(7) 0.15563(4) 0.30268(4)
C47 C 0.8385(9) 0.2770(6) 0.2082(6)
H37 H 0.7405 0.2761 0.1754
C48 C 0.9510(10) 0.3277(6) 0.1895(6)
H38 H 0.9265 0.3615 0.1454
N4 N 0.8658(6) 0.2277(4) 0.2735(3)
C25_2 C 0.4043(8) 0.1333(4) 0.2055(4)
C26_2 C 0.2773(7) 0.1558(4) 0.1362(3)
C27_2 C 0.3015(7) 0.2115(4) 0.0812(3)
H20_2 H 0.3973 0.2378 0.0870
C28_2 C 0.1874(7) 0.2291(4) 0.0177(3)
C30_2 C 0.0450(7) 0.1898(4) 0.0082(4)
C31_2 C 0.0169(7) 0.1336(4) 0.0636(4)
C32_2 C 0.1340(7) 0.1172(4) 0.1272(4)
H22_2 H 0.1167 0.0794 0.1649
O6 O 0.5345(5) 0.1708(3) 0.2080(2)
O7_2 O 0.3787(6) 0.0845(3) 0.2574(3)
C37 C 0.7898(9) 0.0133(5) 0.2315(4)
H27 H 0.7150 0.0319 0.1893
C41 C 0.9003(8) 0.0166(5) 0.3621(4)
H30 H 0.9050 0.0382 0.4129
N3 N 0.7963(6) 0.0470(3) 0.3029(3)
O6_2 O 0.9655(5) 0.6708(3) 0.2920(2)
C37_2 C 0.7102(9) 0.5133(5) 0.2685(4)
H27_2 H 0.7850 0.5319 0.3107
C38 C 0.6123(8) 0.4528(5) 0.2829(4)
H28 H 0.6222 0.4309 0.3338
C39 C 0.4992(7) 0.4240(4) 0.2221(4)
C40 C 0.4987(9) 0.4553(5) 0.1470(4)
H29 H 0.4306 0.4349 0.1030
C41_2 C 0.5997(8) 0.5166(5) 0.1379(4)
H30_2 H 0.5950 0.5382 0.0871
C42 C 0.3823(9) 0.3619(5) 0.2381(5)
H31 H 0.4034 0.3487 0.2945
H32 H 0.3970 0.3132 0.2089
C43 C 0.2195(9) 0.3872(6) 0.2161(7)
H33 H 0.2071 0.4377 0.2429
H34 H 0.1977 0.3976 0.1591
C44 C 0.1005(9) 0.3298(5) 0.2348(5)
C45 C 0.1293(9) 0.2738(6) 0.2964(5)
H35 H 0.2288 0.2699 0.3274
C46 C 0.0107(9) 0.2238(6) 0.3121(5)
H36 H 0.0352 0.1854 0.3521
N3_2 N 0.7037(6) 0.5470(3) 0.1971(3)
Zn2 Zn 0.80919(7) 0.65563(4) 0.19732(4)
N6 N 0.6342(6) 0.7277(4) 0.2265(3)
O11 O 0.8836(5) 0.7098(3) 0.1103(2)
C39_2 C 0.0008(7) 0.9240(4) 0.2779(4)
C40_2 C 0.0013(9) 0.9553(5) 0.3530(4)
H29_2 H 0.0694 0.9349 0.3970
C42_2 C 0.1177(9) 0.8619(5) 0.2619(5)
H31_2 H 0.0966 0.8487 0.2055
H32_2 H 0.1030 0.8132 0.2911
C43_2 C 0.2805(9) 0.8872(6) 0.2839(7)
H33_2 H 0.2929 0.9377 0.2571
H34_2 H 0.3023 0.8976 0.3409
C44_2 C 0.3995(9) 0.8298(5) 0.2652(5)
C45_2 C 0.3707(9) 0.7738(6) 0.2036(5)
H35_2 H 0.2712 0.7699 0.1726
C46_2 C 0.4893(9) 0.7238(6) 0.1879(5)
H36_2 H 0.4648 0.6854 0.1479
C47_2 C 0.6615(9) 0.7770(6) 0.2918(6)
H37_2 H 0.7595 0.7761 0.3246
C48_2 C 0.5490(10) 0.8277(6) 0.3105(6)
H38_2 H 0.5735 0.8615 0.3546
C5_2 C 0.7824(8) 0.7112(4) 0.0468(4)
O4_2 O 0.6613(6) 0.6721(3) 0.0357(3)
C38_2 C 0.8877(8) 0.9528(5) 0.2171(4)
H28_2 H 0.8778 0.9309 0.1662
O10_2 O 0.8791(5) 0.0919(3) 0.0590(2)
C12_2 C 0.3521(7) 0.0307(5) 0.9827(4)
H7_2 H 0.2516 0.0521 0.9711
H21_2 H 0.9678 0.2013 0.9643
C33_2 C 0.7652(7) 0.1007(5) 0.9893(4)
H23_2 H 0.7325 0.1565 0.9830
H24_2 H 0.8087 0.0851 0.9430
C34_2 C 0.6280(7) 0.0485(4) 0.9956(3)
C35_2 C 0.4802(8) 0.0801(4) 0.9777(4)
H25_2 H 0.4653 0.1338 0.9623
H2_2 H 0.0322 0.7987 0.0357
C9_2 C 0.2348(7) 0.8993(5) 0.0107(4)
H4_2 H 0.2675 0.8435 0.0170
H5_2 H 0.1913 0.9149 0.0570
C10_2 C 0.3720(7) 0.9515(4) 0.0044(3)
C11_2 C 0.5198(8) 0.9199(4) 0.0223(4)
H6_2 H 0.5347 0.8662 0.0377
C36_2 C 0.6479(7) 0.9693(5) 0.0173(4)
H26_2 H 0.7484 0.9479 0.0289
O5_2 O 0.1209(5) 0.9081(3) 0.9410(2)
C14_2 C 0.1123(8) 0.0472(5) 0.7829(4)
H9_2 H 0.1222 0.0691 0.8338
loop_
_geom_bond_atom_site_label_1
_geom_bond_atom_site_label_2
_geom_bond_site_symmetry_1
_geom_bond_site_symmetry_2
C23 H18 1_555 1_555
H19 C24 1_555 1_555
Zn4 N2 1_555 1_555
C23 C24 1_555 1_555
C23 N2 1_555 1_555
H6 C11 1_555 1_555
C25 C26 1_555 1_555
C26 C27 1_555 1_555
C27 H20 1_555 1_555
C28 C27 1_555 1_555
C29 C28 1_555 1_555
C30 C28 1_555 1_555
H21 C30 1_555 1_555
C31 C30 1_555 1_555
C32 C26 1_555 1_555
H22 C32 1_555 1_555
C33 H23 1_555 1_555
H24 C33 1_555 1_555
C34 C33 1_555 1_555
C36 C11 1_555 1_555
H26 C36 1_555 1_555
O7 C25 1_555 1_555
O8 C29 1_555 1_555
O9 C29 1_555 1_555
O10 C31 1_555 1_555
Zn4 O8 1_555 1_555
C31 C32 1_555 1_555
C33 O10 1_555 1_555
C34 C36 1_555 1_555
C1 C2 1_555 1_555
C2 C3 1_555 1_555
C3 H1 1_555 1_555
C4 C3 1_555 1_555
C6 C4 1_555 1_555
C7 C6 1_555 1_555
C8 C2 1_555 1_555
H3 C8 1_555 1_555
C13 H8 1_555 1_555
H11 C17 1_555 1_555
N1 C13 1_555 1_555
O1 C1 1_555 1_555
O2 C1 1_555 1_555
Zn4 N1 1_555 1_555
C7 C8 1_555 1_555
C17 N1 1_555 1_555
O1 Zn4 1_555 1_555
C13_2 H8_2 1_555 1_555
C14 C13_2 1_555 1_555
H9 C14 1_555 1_555
C15 C14 1_555 1_555
C16 C15 1_555 1_555
H10 C16 1_555 1_555
C17_2 C16 1_555 1_555
H11_2 C17_2 1_555 1_555
C18 C15 1_555 1_555
H12 C18 1_555 1_555
H13 C18 1_555 1_555
C19 C18 1_555 1_555
H14 C19 1_555 1_555
H15 C19 1_555 1_555
C20 C19 1_555 1_555
C21 C20 1_555 1_555
H16 C21 1_555 1_555
C22 C21 1_555 1_555
H17 C22 1_555 1_555
N1_2 C13_2 1_555 1_555
Zn1 N1_2 1_555 1_555
N5 Zn1 1_555 1_555
O12 Zn1 1_555 1_555
C17_2 N1_2 1_555 1_555
O1_2 Zn1 1_555 1_555
O12 C29_2 1_555 1_555
O9_2 C29_2 1_555 1_555
C16_2 C15_2 1_555 1_555
H10_2 C16_2 1_555 1_555
C18_2 C15_2 1_555 1_555
H12_2 C18_2 1_555 1_555
H13_2 C18_2 1_555 1_555
C19_2 C18_2 1_555 1_555
H14_2 C19_2 1_555 1_555
H15_2 C19_2 1_555 1_555
C20_2 C19_2 1_555 1_555
C21_2 C20_2 1_555 1_555
H16_2 C21_2 1_555 1_555
C22_2 C21_2 1_555 1_555
H17_2 C22_2 1_555 1_555
C23_2 H18_2 1_555 1_555
C24_2 C20_2 1_555 1_555
H19_2 C24_2 1_555 1_555
N5 C22_2 1_555 1_555
C23_2 C24_2 1_555 1_555
C23_2 N5 1_555 1_555
C1_2 C2_2 1_555 1_555
C2_2 C3_2 1_555 1_555
C3_2 H1_2 1_555 1_555
C4_2 C3_2 1_555 1_555
C5 C4_2 1_555 1_555
C6_2 C4_2 1_555 1_555
H2 C6_2 1_555 1_555
C7_2 C6_2 1_555 1_555
C8_2 C2_2 1_555 1_555
H3_2 C8_2 1_555 1_555
C9 H4 1_555 1_555
H5 C9 1_555 1_555
C10 C9 1_555 1_555
C12 C10 1_555 1_555
H7 C12 1_555 1_555
O2_2 C1_2 1_555 1_555
O3 C5 1_555 1_555
O4 C5 1_555 1_555
O5 C7_2 1_555 1_555
C35 C12 1_555 1_555
H25 C35 1_555 1_555
Zn6 O3 1_555 1_555
C7_2 C8_2 1_555 1_555
C9 O5 1_555 1_555
C47 H37 1_555 1_555
H38 C48 1_555 1_555
Zn6 N4 1_555 1_555
C47 C48 1_555 1_555
C47 N4 1_555 1_555
C25_2 C26_2 1_555 1_555
C26_2 C27_2 1_555 1_555
C27_2 H20_2 1_555 1_555
C28_2 C27_2 1_555 1_555
C30_2 C28_2 1_555 1_555
C31_2 C30_2 1_555 1_555
C32_2 C26_2 1_555 1_555
H22_2 C32_2 1_555 1_555
O6 C25_2 1_555 1_555
O7_2 C25_2 1_555 1_555
C37 H27 1_555 1_555
H30 C41 1_555 1_555
N3 C37 1_555 1_555
Zn6 O6 1_555 1_555
C31_2 C32_2 1_555 1_555
C41 N3 1_555 1_555
N3 Zn6 1_555 1_555
C37_2 H27_2 1_555 1_555
C38 C37_2 1_555 1_555
H28 C38 1_555 1_555
C39 C38 1_555 1_555
C40 C39 1_555 1_555
H29 C40 1_555 1_555
C41_2 C40 1_555 1_555
H30_2 C41_2 1_555 1_555
C42 C39 1_555 1_555
H31 C42 1_555 1_555
H32 C42 1_555 1_555
C43 C42 1_555 1_555
H33 C43 1_555 1_555
H34 C43 1_555 1_555
C44 C43 1_555 1_555
C45 C44 1_555 1_555
H35 C45 1_555 1_555
C46 C45 1_555 1_555
H36 C46 1_555 1_555
N3_2 C37_2 1_555 1_555
Zn2 O6_2 1_555 1_555
N6 Zn2 1_555 1_555
O11 Zn2 1_555 1_555
C41_2 N3_2 1_555 1_555
N3_2 Zn2 1_555 1_555
C40_2 C39_2 1_555 1_555
H29_2 C40_2 1_555 1_555
C42_2 C39_2 1_555 1_555
H31_2 C42_2 1_555 1_555
H32_2 C42_2 1_555 1_555
C43_2 C42_2 1_555 1_555
H33_2 C43_2 1_555 1_555
H34_2 C43_2 1_555 1_555
C44_2 C43_2 1_555 1_555
C45_2 C44_2 1_555 1_555
H35_2 C45_2 1_555 1_555
C46_2 C45_2 1_555 1_555
H36_2 C46_2 1_555 1_555
C47_2 H37_2 1_555 1_555
C48_2 C44_2 1_555 1_555
H38_2 C48_2 1_555 1_555
N6 C46_2 1_555 1_555
C47_2 C48_2 1_555 1_555
C47_2 N6 1_555 1_555
O11 C5_2 1_555 1_555
O4_2 C5_2 1_555 1_555
H28_2 C38_2 1_555 1_555
H7_2 C12_2 1_555 1_555
C33_2 H23_2 1_555 1_555
H24_2 C33_2 1_555 1_555
C34_2 C33_2 1_555 1_555
C35_2 C12_2 1_555 1_555
H25_2 C35_2 1_555 1_555
C34_2 C35_2 1_555 1_555
C9_2 H4_2 1_555 1_555
H5_2 C9_2 1_555 1_555
C10_2 C9_2 1_555 1_555
C11_2 C10_2 1_555 1_555
H6_2 C11_2 1_555 1_555
C36_2 C11_2 1_555 1_555
H26_2 C36_2 1_555 1_555
H9_2 C14_2 1_555 1_555

#END
