
###############################################################################
#
# This file contains modified crystal structure data generated from the
# MOF subset of the Cambridge Structural Database (CSD) v543 
# hosted by the Cambridge Crystallographic Data Centre (CCDC).
#
# This work is licensed under the Creative Commons
# Attribution-NonCommercial-ShareAlike 4.0 International License.
# To view a copy of this license, visit
# http://creativecommons.org/licenses/by-nc-sa/4.0/
# or send a letter to
# Creative Commons, PO Box 1866, Mountain View, CA 94042, USA.
#
# CIF created using the CSD Python API on 29 September 2022
# The structure has been converted into the P1 space group
# The structure has a 3D framework
# The original CSD entry REYBAA is in the monoclinic crystal system
# The framework has been calculated to contain at least 10.0% void space
# The void calculation uses a probe of radius 1.32A, grid spacing 0.4
#
###############################################################################

data_REYBAA
_chemical_formula_moiety         '(C88 H60 N16 O20 Zn4)n'
_symmetry_cell_setting           triclinic
_symmetry_space_group_name_H-M   'P 1'
_symmetry_Int_Tables_number      1
_space_group_name_Hall           'P 1'
loop_
_symmetry_equiv_pos_site_id
_symmetry_equiv_pos_as_xyz
1 x,y,z
_cell_length_a                   8.158(2)
_cell_length_b                   17.418(4)
_cell_length_c                   17.558(4)
_cell_angle_alpha                90
_cell_angle_beta                 98.280(3)
_cell_angle_gamma                90
_cell_volume                     2468.92
loop_
_atom_site_label
_atom_site_type_symbol
_atom_site_fract_x
_atom_site_fract_y
_atom_site_fract_z
C20 C 0.2595(8) 0.0249(5) 0.2360(4)
H13 H 0.3723 0.0302 0.2527
C21 C 0.0024(8) 0.0773(4) 0.2112(4)
N4 N 0.1672(6) 0.0859(3) 0.2336(3)
Zn4 Zn 0.25419(8) 0.19417(4) 0.25174(4)
C26 C 0.2683(7) 0.2956(3) 0.0404(3)
C27 C 0.2312(8) 0.2528(4) 0.1108(4)
C28 C 0.4162(7) 0.3339(3) 0.0421(3)
H17 H 0.4942 0.3335 0.0863
C31 C 0.7165(8) 0.4124(5) 0.0343(4)
H19 H 0.6747 0.4346 0.0784
H20 H 0.7510 0.3602 0.0471
C32 C 0.8628(7) 0.4587(3) 0.0158(4)
O8 O 0.0961(6) 0.2189(3) 0.1098(3)
O9 O 0.3397(5) 0.2532(3) 0.1699(2)
O6 O 0.9267(5) 0.2960(2) 0.8407(2)
C35 C 0.4267(8) 0.2260(4) 0.7462(4)
H23 H 0.4144 0.2402 0.6947
C36 C 0.2977(9) 0.1887(4) 0.7719(5)
H24 H 0.2007 0.1788 0.7386
C37 C 0.3135(8) 0.1658(4) 0.8486(4)
C38 C 0.4646(9) 0.1815(4) 0.8948(4)
H25 H 0.4824 0.1657 0.9459
C39 C 0.5863(8) 0.2203(4) 0.8643(4)
H26 H 0.6847 0.2312 0.8962
N5 N 0.5703(6) 0.2434(3) 0.7906(3)
N6 N 0.1896(7) 0.1293(3) 0.8793(4)
N7 N 0.0329(7) 0.1268(3) 0.8367(5)
Zn2 Zn 0.75419(8) 0.30583(4) 0.75174(4)
N10 N 0.6672(6) 0.4141(3) 0.7336(3)
O11 O 0.8397(5) 0.2468(3) 0.6699(2)
C35_2 C 0.0733(8) 0.7260(4) 0.7538(4)
H23_2 H 0.0856 0.7402 0.8053
C36_2 C 0.2023(9) 0.6887(4) 0.7281(5)
H24_2 H 0.2993 0.6788 0.7614
C37_2 C 0.1865(8) 0.6658(4) 0.6514(4)
C38_2 C 0.0354(9) 0.6815(4) 0.6052(4)
H25_2 H 0.0176 0.6657 0.5541
C40 C 0.5286(8) 0.5570(4) 0.6887(4)
C41 C 0.6984(9) 0.5483(4) 0.7146(6)
H27 H 0.7692 0.5904 0.7176
C42 C 0.7595(8) 0.4751(5) 0.7360(4)
H28 H 0.8723 0.4698 0.7527
C43 C 0.5024(8) 0.4227(4) 0.7112(4)
H29 H 0.4342 0.3799 0.7111
C44 C 0.4314(9) 0.4927(4) 0.6883(5)
H30 H 0.3178 0.4962 0.6727
N6_2 N 0.3104(7) 0.6293(3) 0.6207(4)
N7_2 N 0.4671(7) 0.6268(3) 0.6633(5)
C1 C 0.5570(7) 0.1614(3) 0.3396(3)
C2 C 0.6808(6) 0.1628(3) 0.4115(3)
C3 C 0.6509(7) 0.2022(3) 0.4752(3)
H1 H 0.5509 0.2279 0.4747
C4 C 0.7683(7) 0.2044(3) 0.5404(3)
C5 C 0.7312(8) 0.2472(4) 0.6108(4)
C6 C 0.9162(7) 0.1661(3) 0.5421(3)
H2 H 0.9942 0.1665 0.5863
C7 C 0.9473(7) 0.1268(4) 0.4768(3)
C8 C 0.8289(7) 0.1244(3) 0.4115(3)
H3 H 0.8491 0.0972 0.3683
C17 C 0.0863(8) 0.2797(4) 0.3643(4)
H11 H 0.1847 0.2688 0.3962
N1 N 0.0703(6) 0.2566(3) 0.2906(3)
O1 O 0.4267(5) 0.2040(2) 0.3407(2)
O2 O 0.5803(5) 0.1224(3) 0.2837(2)
O3 O 0.5961(6) 0.2811(3) 0.6098(3)
C18 C 0.0286(8) 0.9430(4) 0.1887(4)
C19 C 0.1984(9) 0.9517(4) 0.2146(6)
H12 H 0.2692 0.9096 0.2176
H14 H 0.9342 0.1201 0.2111
C22 C 0.9314(9) 0.0073(4) 0.1883(5)
H15 H 0.8178 0.0038 0.1727
C13 C 0.5733(8) 0.7740(4) 0.2538(4)
H8 H 0.5856 0.7598 0.3053
C14 C 0.7023(9) 0.8113(4) 0.2281(5)
H9 H 0.7993 0.8212 0.2614
C15 C 0.6865(8) 0.8342(4) 0.1514(4)
C16 C 0.5354(9) 0.8185(4) 0.1052(4)
H10 H 0.5176 0.8343 0.0541
C17_2 C 0.4137(8) 0.7797(4) 0.1357(4)
H11_2 H 0.3153 0.7688 0.1038
N1_2 N 0.4297(6) 0.7566(3) 0.2094(3)
N2 N 0.8104(7) 0.8707(3) 0.1207(4)
N3 N 0.9671(7) 0.8732(3) 0.1633(5)
O1_2 O 0.0733(5) 0.7040(2) 0.1593(2)
Zn1 Zn 0.24581(8) 0.69417(4) 0.24826(4)
N9 N 0.3328(6) 0.5859(3) 0.2664(3)
O12 O 0.1603(5) 0.7532(3) 0.3301(2)
C4_2 C 0.7317(7) 0.7044(3) 0.9596(3)
C5_2 C 0.7688(8) 0.7472(4) 0.8892(4)
C6_2 C 0.5838(7) 0.6661(3) 0.9579(3)
H2_2 H 0.5058 0.6665 0.9137
C9 C 0.2835(8) 0.5876(5) 0.9657(4)
H4 H 0.3253 0.5654 0.9216
H5 H 0.2490 0.6398 0.9529
C10 C 0.1372(7) 0.5413(3) 0.9842(4)
O3_2 O 0.9039(6) 0.7811(3) 0.8902(3)
O4 O 0.6603(5) 0.7468(3) 0.8301(2)
Zn6 Zn 0.74581(8) 0.80583(4) 0.74826(4)
C42_2 C 0.7405(8) 0.9751(5) 0.7640(4)
H28_2 H 0.6277 0.9698 0.7473
C43_2 C 0.9976(8) 0.9227(4) 0.7888(4)
N8 N 0.8328(6) 0.9141(3) 0.7664(3)
C23 C 0.4430(7) 0.8386(3) 0.6604(3)
C24 C 0.3192(6) 0.8372(3) 0.5885(3)
C25 C 0.3491(7) 0.7978(3) 0.5248(3)
H16 H 0.4491 0.7721 0.5253
C26_2 C 0.2317(7) 0.7956(3) 0.4596(3)
C27_2 C 0.2688(8) 0.7528(4) 0.3892(4)
C28_2 C 0.0838(7) 0.8339(3) 0.4579(3)
H17_2 H 0.0058 0.8335 0.4137
C29 C 0.0527(7) 0.8732(4) 0.5232(3)
C30 C 0.1711(7) 0.8756(3) 0.5885(3)
H18 H 0.1509 0.9028 0.6317
O6_2 O 0.5733(5) 0.7960(2) 0.6593(2)
O7 O 0.4197(5) 0.8776(3) 0.7163(2)
O8_2 O 0.4039(6) 0.7189(3) 0.3902(3)
C39_2 C 0.9137(8) 0.7203(4) 0.6357(4)
H26_2 H 0.8153 0.7312 0.6038
N5_2 N 0.9297(6) 0.7434(3) 0.7094(3)
C13_2 C 0.9267(8) 0.2740(4) 0.2462(4)
H8_2 H 0.9144 0.2598 0.1947
C14_2 C 0.7977(9) 0.3113(4) 0.2719(5)
H9_2 H 0.7007 0.3212 0.2386
C15_2 C 0.8135(8) 0.3342(4) 0.3486(4)
C16_2 C 0.9646(9) 0.3185(4) 0.3948(4)
H10_2 H 0.9824 0.3343 0.4459
C18_2 C 0.4714(8) 0.4430(4) 0.3113(4)
C19_2 C 0.3016(9) 0.4517(4) 0.2854(6)
H12_2 H 0.2308 0.4096 0.2824
C20_2 C 0.2405(8) 0.5249(5) 0.2640(4)
H13_2 H 0.1277 0.5302 0.2473
C21_2 C 0.4976(8) 0.5773(4) 0.2888(4)
H14_2 H 0.5658 0.6201 0.2889
C22_2 C 0.5686(9) 0.5073(4) 0.3117(5)
H15_2 H 0.6822 0.5038 0.3273
N2_2 N 0.6896(7) 0.3707(3) 0.3793(4)
N3_2 N 0.5329(7) 0.3732(3) 0.3367(5)
C1_2 C 0.9430(7) 0.6614(3) 0.1604(3)
C2_2 C 0.8192(6) 0.6628(3) 0.0885(3)
C3_2 C 0.8491(7) 0.7022(3) 0.0248(3)
H1_2 H 0.9491 0.7279 0.0253
C7_2 C 0.5527(7) 0.6268(4) 0.0232(3)
C8_2 C 0.6711(7) 0.6244(3) 0.0885(3)
H3_2 H 0.6509 0.5972 0.1317
C12 C 0.1382(8) 0.5040(4) 0.0540(4)
H7 H 0.2314 0.5068 0.0912
O2_2 O 0.9197(5) 0.6224(3) 0.2163(2)
O5 O 0.4095(5) 0.5877(3) 0.0297(3)
C33 C 0.0025(8) 0.4631(4) 0.0685(4)
H21 H 0.0059 0.4377 0.1154
C11 C 0.9975(8) 0.5369(4) 0.9315(4)
H6 H 0.9941 0.5623 0.8846
C23_2 C 0.0570(7) 0.3386(3) 0.8396(3)
C24_2 C 0.1808(6) 0.3372(3) 0.9115(3)
C25_2 C 0.1509(7) 0.2978(3) 0.9752(3)
H16_2 H 0.0509 0.2721 0.9747
C29_2 C 0.4473(7) 0.3732(4) 0.9768(3)
C30_2 C 0.3289(7) 0.3756(3) 0.9115(3)
H18_2 H 0.3491 0.4028 0.8683
C34 C 0.8618(8) 0.4960(4) 0.9460(4)
H22 H 0.7686 0.4932 0.9088
O7_2 O 0.0803(5) 0.3776(3) 0.7837(2)
O10 O 0.5905(5) 0.4123(3) 0.9703(3)
H29_2 H 0.0658 0.8799 0.7889
C44_2 C 0.0686(9) 0.9927(4) 0.8117(5)
H30_2 H 0.1822 0.9962 0.8273
C40_2 C 0.9714(8) 0.0570(4) 0.8113(4)
C41_2 C 0.8016(9) 0.0483(4) 0.7854(6)
H27_2 H 0.7308 0.0904 0.7824
C9_2 C 0.2165(8) 0.0876(5) 0.5343(4)
H4_2 H 0.1747 0.0654 0.5784
H5_2 H 0.2510 0.1398 0.5471
C10_2 C 0.3628(7) 0.0413(3) 0.5158(4)
C11_2 C 0.5025(8) 0.0369(4) 0.5685(4)
H6_2 H 0.5059 0.0623 0.6154
C12_2 C 0.3618(8) 0.0040(4) 0.4460(4)
H7_2 H 0.2686 0.0068 0.4088
O5_2 O 0.0905(5) 0.0877(3) 0.4703(3)
C31_2 C 0.7835(8) 0.9124(5) 0.4657(4)
H19_2 H 0.8253 0.9346 0.4216
H20_2 H 0.7490 0.8602 0.4529
C32_2 C 0.6372(7) 0.9587(3) 0.4842(4)
C33_2 C 0.4975(8) 0.9631(4) 0.4315(4)
H21_2 H 0.4941 0.9377 0.3846
C34_2 C 0.6382(8) 0.9960(4) 0.5540(4)
H22_2 H 0.7314 0.9932 0.5912
O10_2 O 0.9095(5) 0.9123(3) 0.5297(3)
loop_
_geom_bond_atom_site_label_1
_geom_bond_atom_site_label_2
_geom_bond_site_symmetry_1
_geom_bond_site_symmetry_2
H13 C20 1_555 1_555
N4 C20 1_555 1_555
Zn4 N4 1_555 1_555
C21 N4 1_555 1_555
C27 C26 1_555 1_555
C28 C26 1_555 1_555
H17 C28 1_555 1_555
C31 H19 1_555 1_555
H20 C31 1_555 1_555
C32 C31 1_555 1_555
O8 C27 1_555 1_555
O9 C27 1_555 1_555
Zn4 O9 1_555 1_555
C35 H23 1_555 1_555
C36 C35 1_555 1_555
H24 C36 1_555 1_555
C37 C36 1_555 1_555
C38 C37 1_555 1_555
H25 C38 1_555 1_555
C39 C38 1_555 1_555
H26 C39 1_555 1_555
N5 C35 1_555 1_555
N6 C37 1_555 1_555
Zn2 O6 1_555 1_555
N10 Zn2 1_555 1_555
O11 Zn2 1_555 1_555
C39 N5 1_555 1_555
N5 Zn2 1_555 1_555
N6 N7 1_555 1_555
C35_2 H23_2 1_555 1_555
C36_2 C35_2 1_555 1_555
H24_2 C36_2 1_555 1_555
C37_2 C36_2 1_555 1_555
C38_2 C37_2 1_555 1_555
H25_2 C38_2 1_555 1_555
C40 C41 1_555 1_555
C41 H27 1_555 1_555
C42 C41 1_555 1_555
H28 C42 1_555 1_555
C43 H29 1_555 1_555
C44 C40 1_555 1_555
H30 C44 1_555 1_555
N6_2 C37_2 1_555 1_555
N7_2 C40 1_555 1_555
N10 C42 1_555 1_555
C43 C44 1_555 1_555
C43 N10 1_555 1_555
N6_2 N7_2 1_555 1_555
C1 C2 1_555 1_555
C2 C3 1_555 1_555
C3 H1 1_555 1_555
C4 C3 1_555 1_555
C5 C4 1_555 1_555
C6 C4 1_555 1_555
H2 C6 1_555 1_555
C7 C6 1_555 1_555
C8 C2 1_555 1_555
H3 C8 1_555 1_555
H11 C17 1_555 1_555
O1 C1 1_555 1_555
O2 C1 1_555 1_555
O3 C5 1_555 1_555
O11 C5 1_555 1_555
Zn4 N1 1_555 1_555
C7 C8 1_555 1_555
C17 N1 1_555 1_555
O1 Zn4 1_555 1_555
C18 C19 1_555 1_555
C19 H12 1_555 1_555
H15 C22 1_555 1_555
C13 H8 1_555 1_555
C14 C13 1_555 1_555
H9 C14 1_555 1_555
C15 C14 1_555 1_555
C16 C15 1_555 1_555
H10 C16 1_555 1_555
C17_2 C16 1_555 1_555
H11_2 C17_2 1_555 1_555
N1_2 C13 1_555 1_555
N2 C15 1_555 1_555
Zn1 N1_2 1_555 1_555
N9 Zn1 1_555 1_555
O12 Zn1 1_555 1_555
C17_2 N1_2 1_555 1_555
N2 N3 1_555 1_555
O1_2 Zn1 1_555 1_555
C5_2 C4_2 1_555 1_555
C6_2 C4_2 1_555 1_555
H2_2 C6_2 1_555 1_555
C9 H4 1_555 1_555
H5 C9 1_555 1_555
C10 C9 1_555 1_555
O3_2 C5_2 1_555 1_555
O4 C5_2 1_555 1_555
Zn6 O4 1_555 1_555
H28_2 C42_2 1_555 1_555
N8 C42_2 1_555 1_555
Zn6 N8 1_555 1_555
C43_2 N8 1_555 1_555
C23 C24 1_555 1_555
C24 C25 1_555 1_555
C25 H16 1_555 1_555
C26_2 C25 1_555 1_555
C27_2 C26_2 1_555 1_555
C28_2 C26_2 1_555 1_555
H17_2 C28_2 1_555 1_555
C29 C28_2 1_555 1_555
C30 C24 1_555 1_555
H18 C30 1_555 1_555
O6_2 C23 1_555 1_555
O7 C23 1_555 1_555
O8_2 C27_2 1_555 1_555
O12 C27_2 1_555 1_555
H26_2 C39_2 1_555 1_555
Zn6 O6_2 1_555 1_555
C29 C30 1_555 1_555
C39_2 N5_2 1_555 1_555
N5_2 Zn6 1_555 1_555
C13_2 H8_2 1_555 1_555
C14_2 C13_2 1_555 1_555
H9_2 C14_2 1_555 1_555
C15_2 C14_2 1_555 1_555
C16_2 C15_2 1_555 1_555
H10_2 C16_2 1_555 1_555
C18_2 C19_2 1_555 1_555
C19_2 H12_2 1_555 1_555
C20_2 C19_2 1_555 1_555
H13_2 C20_2 1_555 1_555
C21_2 H14_2 1_555 1_555
C22_2 C18_2 1_555 1_555
H15_2 C22_2 1_555 1_555
N2_2 C15_2 1_555 1_555
N3_2 C18_2 1_555 1_555
N9 C20_2 1_555 1_555
C21_2 C22_2 1_555 1_555
C21_2 N9 1_555 1_555
N2_2 N3_2 1_555 1_555
C1_2 C2_2 1_555 1_555
C2_2 C3_2 1_555 1_555
C3_2 H1_2 1_555 1_555
C8_2 C2_2 1_555 1_555
H3_2 C8_2 1_555 1_555
H7 C12 1_555 1_555
O2_2 C1_2 1_555 1_555
O5 C7_2 1_555 1_555
C33 C12 1_555 1_555
H21 C33 1_555 1_555
C7_2 C8_2 1_555 1_555
H6 C11 1_555 1_555
C23_2 C24_2 1_555 1_555
C24_2 C25_2 1_555 1_555
C25_2 H16_2 1_555 1_555
C30_2 C24_2 1_555 1_555
H18_2 C30_2 1_555 1_555
C34 C11 1_555 1_555
H22 C34 1_555 1_555
O7_2 C23_2 1_555 1_555
O10 C29_2 1_555 1_555
C29_2 C30_2 1_555 1_555
H30_2 C44_2 1_555 1_555
C40_2 C41_2 1_555 1_555
C41_2 H27_2 1_555 1_555
C9_2 H4_2 1_555 1_555
H5_2 C9_2 1_555 1_555
C10_2 C9_2 1_555 1_555
C11_2 C10_2 1_555 1_555
H6_2 C11_2 1_555 1_555
C12_2 C10_2 1_555 1_555
H7_2 C12_2 1_555 1_555
C9_2 O5_2 1_555 1_555
C31_2 H19_2 1_555 1_555
H20_2 C31_2 1_555 1_555
C32_2 C31_2 1_555 1_555
H21_2 C33_2 1_555 1_555
H22_2 C34_2 1_555 1_555
C31_2 O10_2 1_555 1_555
C32_2 C33_2 1_555 1_555
C32_2 C34_2 1_555 1_555

#END
