
###############################################################################
#
# This file contains modified crystal structure data generated from the
# MOF subset of the Cambridge Structural Database (CSD) v543 
# hosted by the Cambridge Crystallographic Data Centre (CCDC).
#
# This work is licensed under the Creative Commons
# Attribution-NonCommercial-ShareAlike 4.0 International License.
# To view a copy of this license, visit
# http://creativecommons.org/licenses/by-nc-sa/4.0/
# or send a letter to
# Creative Commons, PO Box 1866, Mountain View, CA 94042, USA.
#
# CIF created using the CSD Python API on 29 September 2022
# The structure has been converted into the P1 space group
# The structure has a 3D framework
# The original CSD entry REYCOP is in the monoclinic crystal system
# The framework has been calculated to contain at least 10.0% void space
# The void calculation uses a probe of radius 1.32A, grid spacing 0.4
#
###############################################################################

data_REYCOP
_chemical_formula_moiety         '(C112 H108 N16 O20 Zn4)n'
_symmetry_cell_setting           triclinic
_symmetry_space_group_name_H-M   'P 1'
_symmetry_Int_Tables_number      1
_space_group_name_Hall           'P 1'
loop_
_symmetry_equiv_pos_site_id
_symmetry_equiv_pos_as_xyz
1 x,y,z
_cell_length_a                   9.3898(7)
_cell_length_b                   19.8601(14)
_cell_length_c                   17.9499(11)
_cell_angle_alpha                90
_cell_angle_beta                 110.534(3)
_cell_angle_gamma                90
_cell_volume                     3134.66
loop_
_atom_site_label
_atom_site_type_symbol
_atom_site_fract_x
_atom_site_fract_y
_atom_site_fract_z
C54 C 0.0481(7) 0.4264(3) 0.8309(3)
H52 H 0.0726 0.4018 0.8777
C55 C 0.0761(7) 0.4460(3) 0.7129(3)
H53 H 0.1205 0.4349 0.6757
N8 N 0.1097(4) 0.40863(19) 0.7777(2)
Zn6 Zn 0.21103(5) 0.31870(2) 0.77810(3)
C1 C 0.3929(5) 0.1575(2) 0.1880(3)
C2 C 0.4402(5) 0.1671(2) 0.1172(2)
C3 C 0.3603(5) 0.2106(2) 0.0559(2)
H1 H 0.2748 0.2330 0.0581
C7 C 0.6082(6) 0.1406(3) 0.0464(3)
C8 C 0.5649(5) 0.1324(2) 0.1122(3)
H3 H 0.6195 0.1035 0.1530
H8 H 0.0062 0.2418 0.1254
N1 N 0.0231(4) 0.2440(2) 0.2366(2)
O1 O 0.2683(4) 0.18502(15) 0.18361(19)
O2 O 0.4719(5) 0.1250(2) 0.2457(2)
O5 O 0.7293(5) 0.1017(2) 0.0459(2)
Zn1 Zn 0.21103(5) 0.18130(2) 0.27810(3)
N9 N 0.1097(4) 0.09137(19) 0.2777(2)
O12 O 0.3578(4) 0.22915(18) 0.36577(19)
C4 C 0.4073(5) 0.2208(2) 0.9919(2)
C5 C 0.3203(5) 0.2685(2) 0.9273(3)
C6 C 0.5312(6) 0.1848(2) 0.9860(3)
H2 H 0.5613 0.1906 0.9423
C9 C 0.7675(7) 0.1022(3) 0.9765(3)
H4 H 0.8062 0.1460 0.9693
H5 H 0.6786 0.0922 0.9302
C10 C 0.8876(6) 0.0490(3) 0.9874(3)
O3 O 0.2149(5) 0.3021(2) 0.9338(3)
O4 O 0.3578(4) 0.27085(18) 0.86577(19)
C26 C 0.0481(7) 0.0736(3) 0.3309(3)
H25 H 0.0726 0.0982 0.3777
C27 C 0.0761(7) 0.0540(3) 0.2129(3)
H26 H 0.1205 0.0651 0.1757
C11 C 0.9594(6) 0.5676(3) 0.4909(3)
H6 H 0.9316 0.6128 0.4849
C29 C 0.3929(5) 0.3425(2) 0.6880(3)
C30 C 0.4402(5) 0.3329(2) 0.6172(2)
C31 C 0.3603(5) 0.2894(2) 0.5559(2)
H28 H 0.2748 0.2670 0.5581
C32 C 0.4073(5) 0.2792(2) 0.4919(2)
C33 C 0.3203(5) 0.2315(2) 0.4273(3)
C34 C 0.5312(6) 0.3152(2) 0.4860(3)
H29 H 0.5613 0.3094 0.4423
C35 C 0.6082(6) 0.3594(3) 0.5464(3)
C36 C 0.5649(5) 0.3676(2) 0.6122(3)
H30 H 0.6195 0.3965 0.6530
C37 C 0.7675(7) 0.3978(3) 0.4765(3)
H31 H 0.8062 0.3540 0.4693
H32 H 0.6786 0.4078 0.4302
C38 C 0.8876(6) 0.4510(3) 0.4874(3)
C40 C 0.8502(6) 0.5180(3) 0.4783(3)
H34 H 0.7485 0.5305 0.4634
O6 O 0.2683(4) 0.31498(15) 0.68361(19)
O7 O 0.4719(5) 0.3750(2) 0.7457(2)
O8 O 0.2149(5) 0.1979(2) 0.4338(3)
O10 O 0.7293(5) 0.3983(2) 0.5459(2)
H35 H 0.0062 0.2582 0.6254
N5 N 0.0231(4) 0.2560(2) 0.7366(2)
C41 C 0.0330(6) 0.7379(3) 0.8392(3)
C42 C 0.1457(7) 0.6907(3) 0.8683(4)
H36 H 0.1820 0.6803 0.9222
C43 C 0.2054(6) 0.6587(3) 0.8174(4)
C44 C 0.1513(8) 0.6787(3) 0.7399(4)
H37 H 0.1906 0.6600 0.7037
C45 C 0.0379(7) 0.7268(3) 0.7149(4)
H38 H 0.0025 0.7394 0.6616
C46 C 0.3187(7) 0.6033(3) 0.8461(5)
H39 H 0.2656 0.5612 0.8448
H40 H 0.3822 0.6121 0.9009
C47 C 0.4949(7) 0.5322(3) 0.8108(5)
H41 H 0.5567 0.5278 0.8666
H42 H 0.4213 0.4958 0.7969
C48 C 0.5936(6) 0.5275(3) 0.7615(4)
H43 H 0.5311 0.5310 0.7057
H44 H 0.6438 0.4840 0.7699
C49 C 0.6288(6) 0.6457(3) 0.7683(4)
H45 H 0.7033 0.6817 0.7830
H46 H 0.5680 0.6508 0.7124
C50 C 0.5276(7) 0.6503(3) 0.8178(4)
H47 H 0.4763 0.6935 0.8088
H48 H 0.5894 0.6472 0.8738
C51 C 0.8040(6) 0.5773(3) 0.7346(4)
H49 H 0.7404 0.5765 0.6787
H50 H 0.8643 0.6181 0.7438
C52 C 0.9099(6) 0.5179(2) 0.7511(3)
C53 C 0.9491(7) 0.4801(3) 0.8196(4)
H51 H 0.9086 0.4907 0.8586
C56 C 0.9794(8) 0.5003(3) 0.6973(3)
H54 H 0.9606 0.5251 0.6508
N6 N 0.4158(5) 0.5969(2) 0.7973(3)
N7 N 0.7069(4) 0.5802(2) 0.7814(3)
C11_2 C 0.0406(6) 0.0676(3) 0.0091(3)
H6_2 H 0.0684 0.1128 0.0151
C40_2 C 0.1498(6) 0.0180(3) 0.0217(3)
H34_2 H 0.2515 0.0305 0.0366
C32_2 C 0.5927(5) 0.7792(2) 0.0081(2)
C33_2 C 0.6797(5) 0.7315(2) 0.0727(3)
C34_2 C 0.4688(6) 0.8152(2) 0.0140(3)
H29_2 H 0.4387 0.8094 0.0577
C37_2 C 0.2325(7) 0.8978(3) 0.0235(3)
H31_2 H 0.1938 0.8540 0.0307
H32_2 H 0.3214 0.9078 0.0698
C38_2 C 0.1124(6) 0.9510(3) 0.0126(3)
O8_2 O 0.7851(5) 0.6979(2) 0.0662(3)
O9 O 0.6422(4) 0.72915(18) 0.13423(19)
Zn4 Zn 0.78897(5) 0.68130(2) 0.22190(3)
C29_2 C 0.6071(5) 0.8425(2) 0.8120(3)
C30_2 C 0.5598(5) 0.8329(2) 0.8828(2)
C31_2 C 0.6397(5) 0.7894(2) 0.9441(2)
H28_2 H 0.7252 0.7670 0.9419
C35_2 C 0.3918(6) 0.8594(3) 0.9536(3)
C36_2 C 0.4351(5) 0.8676(2) 0.8878(3)
H30_2 H 0.3805 0.8965 0.8470
O6_2 O 0.7317(4) 0.81498(15) 0.81639(19)
O7_2 O 0.5281(5) 0.8750(2) 0.7543(2)
O10_2 O 0.2707(5) 0.8983(2) 0.9541(2)
H35_2 H 0.9938 0.7582 0.8746
N5_2 N 0.9769(4) 0.7560(2) 0.7634(2)
Zn2 Zn 0.78897(5) 0.81870(2) 0.72190(3)
N10 N 0.8903(4) 0.90863(19) 0.7223(2)
O11 O 0.6422(4) 0.77085(18) 0.63423(19)
C26_2 C 0.9519(7) 0.5736(3) 0.1691(3)
H25_2 H 0.9274 0.5982 0.1223
C27_2 C 0.9239(7) 0.5540(3) 0.2871(3)
H26_2 H 0.8795 0.5651 0.3243
N4 N 0.8903(4) 0.59137(19) 0.2223(2)
C1_2 C 0.6071(5) 0.6575(2) 0.3120(3)
C2_2 C 0.5598(5) 0.6671(2) 0.3828(2)
C3_2 C 0.6397(5) 0.7106(2) 0.4441(2)
H1_2 H 0.7252 0.7330 0.4419
C4_2 C 0.5927(5) 0.7208(2) 0.5081(2)
C5_2 C 0.6797(5) 0.7685(2) 0.5727(3)
C6_2 C 0.4688(6) 0.6848(2) 0.5140(3)
H2_2 H 0.4387 0.6906 0.5577
C7_2 C 0.3918(6) 0.6406(3) 0.4536(3)
C8_2 C 0.4351(5) 0.6324(2) 0.3878(3)
H3_2 H 0.3805 0.6035 0.3470
C9_2 C 0.2325(7) 0.6022(3) 0.5235(3)
H4_2 H 0.1938 0.6460 0.5307
H5_2 H 0.3214 0.5922 0.5698
C10_2 C 0.1124(6) 0.5490(3) 0.5126(3)
C12 C 0.1498(6) 0.4820(3) 0.5217(3)
H7 H 0.2515 0.4695 0.5366
H8_2 H 0.9938 0.7418 0.3746
N1_2 N 0.9769(4) 0.7440(2) 0.2634(2)
O1_2 O 0.7317(4) 0.68502(15) 0.31639(19)
O2_2 O 0.5281(5) 0.6250(2) 0.2543(2)
O3_2 O 0.7851(5) 0.8021(2) 0.5662(3)
O5_2 O 0.2707(5) 0.6017(2) 0.4541(2)
C39 C 0.0406(6) 0.4324(3) 0.5091(3)
H33 H 0.0684 0.3872 0.5151
C54_2 C 0.9519(7) 0.9264(3) 0.6691(3)
H52_2 H 0.9274 0.9018 0.6223
C55_2 C 0.9239(7) 0.9460(3) 0.7871(3)
H53_2 H 0.8795 0.9349 0.8243
C12_2 C 0.8502(6) 0.9820(3) 0.9783(3)
H7_2 H 0.7485 0.9695 0.9634
C39_2 C 0.9594(6) 0.9324(3) 0.9909(3)
H33_2 H 0.9316 0.8872 0.9849
C13 C 0.9670(6) 0.2621(3) 0.1608(3)
C14 C 0.8543(7) 0.3093(3) 0.1317(4)
H9 H 0.8180 0.3197 0.0778
C15 C 0.7946(6) 0.3413(3) 0.1826(4)
C16 C 0.8487(8) 0.3213(3) 0.2601(4)
H10 H 0.8094 0.3400 0.2963
C17 C 0.9621(7) 0.2732(3) 0.2851(4)
H11 H 0.9975 0.2606 0.3384
C18 C 0.6813(7) 0.3967(3) 0.1539(5)
H12 H 0.7344 0.4388 0.1552
H13 H 0.6178 0.3879 0.0991
C19 C 0.5051(7) 0.4678(3) 0.1892(5)
H14 H 0.4433 0.4722 0.1334
H15 H 0.5787 0.5042 0.2031
C20 C 0.4064(6) 0.4725(3) 0.2385(4)
H16 H 0.4689 0.4690 0.2943
H17 H 0.3562 0.5160 0.2301
C21 C 0.3712(6) 0.3543(3) 0.2317(4)
H18 H 0.2967 0.3183 0.2170
H19 H 0.4320 0.3492 0.2876
C22 C 0.4724(7) 0.3497(3) 0.1822(4)
H20 H 0.5237 0.3065 0.1912
H21 H 0.4106 0.3528 0.1262
C23 C 0.1960(6) 0.4227(3) 0.2654(4)
H22 H 0.2596 0.4235 0.3213
H23 H 0.1357 0.3819 0.2562
C24 C 0.0901(6) 0.4821(2) 0.2489(3)
C25 C 0.0509(7) 0.5199(3) 0.1804(4)
H24 H 0.0914 0.5093 0.1414
C28 C 0.0206(8) 0.4997(3) 0.3027(3)
H27 H 0.0394 0.4749 0.3492
N2 N 0.5842(5) 0.4031(2) 0.2027(3)
N3 N 0.2931(4) 0.4198(2) 0.2186(3)
H15_2 H 0.4213 0.0042 0.2969
H17_2 H 0.6438 0.0160 0.2699
C25_2 C 0.9491(7) 0.0199(3) 0.3196(4)
H24_2 H 0.9086 0.0093 0.3586
C13_2 C 0.0330(6) 0.7621(3) 0.3392(3)
C14_2 C 0.1457(7) 0.8093(3) 0.3683(4)
H9_2 H 0.1820 0.8197 0.4222
C15_2 C 0.2054(6) 0.8413(3) 0.3174(4)
C16_2 C 0.1513(8) 0.8213(3) 0.2399(4)
H10_2 H 0.1906 0.8400 0.2037
C17_2 C 0.0379(7) 0.7732(3) 0.2149(4)
H11_2 H 0.0025 0.7606 0.1616
C18_2 C 0.3187(7) 0.8967(3) 0.3461(5)
H12_2 H 0.2656 0.9388 0.3448
H13_2 H 0.3822 0.8879 0.4009
C19_2 C 0.4949(7) 0.9678(3) 0.3108(5)
H14_2 H 0.5567 0.9722 0.3666
C20_2 C 0.5936(6) 0.9725(3) 0.2615(4)
H16_2 H 0.5311 0.9690 0.2057
C21_2 C 0.6288(6) 0.8543(3) 0.2683(4)
H18_2 H 0.7033 0.8183 0.2830
H19_2 H 0.5680 0.8492 0.2124
C22_2 C 0.5276(7) 0.8497(3) 0.3178(4)
H20_2 H 0.4763 0.8065 0.3088
H21_2 H 0.5894 0.8528 0.3738
C23_2 C 0.8040(6) 0.9227(3) 0.2346(4)
H22_2 H 0.7404 0.9235 0.1787
H23_2 H 0.8643 0.8819 0.2438
C24_2 C 0.9099(6) 0.9821(2) 0.2511(3)
C28_2 C 0.9794(8) 0.9997(3) 0.1973(3)
H27_2 H 0.9606 0.9749 0.1508
N2_2 N 0.4158(5) 0.9031(2) 0.2973(3)
N3_2 N 0.7069(4) 0.9198(2) 0.2814(3)
C41_2 C 0.9670(6) 0.2379(3) 0.6608(3)
C42_2 C 0.8543(7) 0.1907(3) 0.6317(4)
H36_2 H 0.8180 0.1803 0.5778
C43_2 C 0.7946(6) 0.1587(3) 0.6826(4)
C44_2 C 0.8487(8) 0.1787(3) 0.7601(4)
H37_2 H 0.8094 0.1600 0.7963
C45_2 C 0.9621(7) 0.2268(3) 0.7851(4)
H38_2 H 0.9975 0.2394 0.8384
C46_2 C 0.6813(7) 0.1033(3) 0.6539(5)
H39_2 H 0.7344 0.0612 0.6552
H40_2 H 0.6178 0.1121 0.5991
C47_2 C 0.5051(7) 0.0322(3) 0.6892(5)
H41_2 H 0.4433 0.0278 0.6334
C48_2 C 0.4064(6) 0.0275(3) 0.7385(4)
H43_2 H 0.4689 0.0310 0.7943
C49_2 C 0.3712(6) 0.1457(3) 0.7317(4)
H45_2 H 0.2967 0.1817 0.7170
H46_2 H 0.4320 0.1508 0.7876
C50_2 C 0.4724(7) 0.1503(3) 0.6822(4)
H47_2 H 0.5237 0.1935 0.6912
H48_2 H 0.4106 0.1472 0.6262
C51_2 C 0.1960(6) 0.0773(3) 0.7654(4)
H49_2 H 0.2596 0.0765 0.8213
H50_2 H 0.1357 0.1181 0.7562
C52_2 C 0.0901(6) 0.0179(2) 0.7489(3)
C56_2 C 0.0206(8) 0.0003(3) 0.8027(3)
H54_2 H 0.0394 0.0251 0.8492
N6_2 N 0.5842(5) 0.0969(2) 0.7027(3)
N7_2 N 0.2931(4) 0.0802(2) 0.7186(3)
H42_2 H 0.5787 0.9958 0.7031
H44_2 H 0.3562 0.9840 0.7301
C53_2 C 0.0509(7) 0.9801(3) 0.6804(4)
H51_2 H 0.0914 0.9907 0.6414
loop_
_geom_bond_atom_site_label_1
_geom_bond_atom_site_label_2
_geom_bond_site_symmetry_1
_geom_bond_site_symmetry_2
H52 C54 1_555 1_555
C55 H53 1_555 1_555
N8 C54 1_555 1_555
Zn6 N8 1_555 1_555
C55 N8 1_555 1_555
C1 C2 1_555 1_555
C2 C3 1_555 1_555
C3 H1 1_555 1_555
C8 C2 1_555 1_555
H3 C8 1_555 1_555
O1 C1 1_555 1_555
O2 C1 1_555 1_555
O5 C7 1_555 1_555
Zn1 N1 1_555 1_555
N9 Zn1 1_555 1_555
O12 Zn1 1_555 1_555
C7 C8 1_555 1_555
O1 Zn1 1_555 1_555
C5 C4 1_555 1_555
C6 C4 1_555 1_555
H2 C6 1_555 1_555
C9 H4 1_555 1_555
H5 C9 1_555 1_555
C10 C9 1_555 1_555
O3 C5 1_555 1_555
O4 C5 1_555 1_555
Zn6 O4 1_555 1_555
H25 C26 1_555 1_555
C27 H26 1_555 1_555
N9 C26 1_555 1_555
C27 N9 1_555 1_555
H6 C11 1_555 1_555
C29 C30 1_555 1_555
C30 C31 1_555 1_555
C31 H28 1_555 1_555
C32 C31 1_555 1_555
C33 C32 1_555 1_555
C34 C32 1_555 1_555
H29 C34 1_555 1_555
C35 C34 1_555 1_555
C36 C30 1_555 1_555
H30 C36 1_555 1_555
C37 H31 1_555 1_555
H32 C37 1_555 1_555
C38 C37 1_555 1_555
C40 C11 1_555 1_555
H34 C40 1_555 1_555
O6 C29 1_555 1_555
O7 C29 1_555 1_555
O8 C33 1_555 1_555
O12 C33 1_555 1_555
O10 C35 1_555 1_555
Zn6 O6 1_555 1_555
C35 C36 1_555 1_555
C37 O10 1_555 1_555
C38 C40 1_555 1_555
N5 Zn6 1_555 1_555
C42 C41 1_555 1_555
H36 C42 1_555 1_555
C43 C42 1_555 1_555
C44 C43 1_555 1_555
H37 C44 1_555 1_555
C45 C44 1_555 1_555
H38 C45 1_555 1_555
C46 C43 1_555 1_555
H39 C46 1_555 1_555
H40 C46 1_555 1_555
C47 H41 1_555 1_555
H42 C47 1_555 1_555
C48 C47 1_555 1_555
H43 C48 1_555 1_555
H44 C48 1_555 1_555
C49 H45 1_555 1_555
H46 C49 1_555 1_555
C50 C49 1_555 1_555
H47 C50 1_555 1_555
H48 C50 1_555 1_555
C51 H49 1_555 1_555
H50 C51 1_555 1_555
C52 C51 1_555 1_555
C53 C52 1_555 1_555
H51 C53 1_555 1_555
C56 C52 1_555 1_555
H54 C56 1_555 1_555
N6 C46 1_555 1_555
N7 C48 1_555 1_555
C47 N6 1_555 1_555
C49 N7 1_555 1_555
C50 N6 1_555 1_555
C51 N7 1_555 1_555
H6_2 C11_2 1_555 1_555
C40_2 C11_2 1_555 1_555
H34_2 C40_2 1_555 1_555
C33_2 C32_2 1_555 1_555
C34_2 C32_2 1_555 1_555
H29_2 C34_2 1_555 1_555
C37_2 H31_2 1_555 1_555
H32_2 C37_2 1_555 1_555
C38_2 C37_2 1_555 1_555
O8_2 C33_2 1_555 1_555
O9 C33_2 1_555 1_555
Zn4 O9 1_555 1_555
C29_2 C30_2 1_555 1_555
C30_2 C31_2 1_555 1_555
C31_2 H28_2 1_555 1_555
C36_2 C30_2 1_555 1_555
H30_2 C36_2 1_555 1_555
O6_2 C29_2 1_555 1_555
O7_2 C29_2 1_555 1_555
O10_2 C35_2 1_555 1_555
Zn2 O6_2 1_555 1_555
N10 Zn2 1_555 1_555
O11 Zn2 1_555 1_555
C35_2 C36_2 1_555 1_555
N5_2 Zn2 1_555 1_555
H25_2 C26_2 1_555 1_555
C27_2 H26_2 1_555 1_555
N4 C26_2 1_555 1_555
Zn4 N4 1_555 1_555
C27_2 N4 1_555 1_555
C1_2 C2_2 1_555 1_555
C2_2 C3_2 1_555 1_555
C3_2 H1_2 1_555 1_555
C4_2 C3_2 1_555 1_555
C5_2 C4_2 1_555 1_555
C6_2 C4_2 1_555 1_555
H2_2 C6_2 1_555 1_555
C7_2 C6_2 1_555 1_555
C8_2 C2_2 1_555 1_555
H3_2 C8_2 1_555 1_555
C9_2 H4_2 1_555 1_555
H5_2 C9_2 1_555 1_555
C10_2 C9_2 1_555 1_555
C12 C10_2 1_555 1_555
H7 C12 1_555 1_555
O1_2 C1_2 1_555 1_555
O2_2 C1_2 1_555 1_555
O3_2 C5_2 1_555 1_555
O11 C5_2 1_555 1_555
O5_2 C7_2 1_555 1_555
Zn4 N1_2 1_555 1_555
C39 C12 1_555 1_555
H33 C39 1_555 1_555
C7_2 C8_2 1_555 1_555
C9_2 O5_2 1_555 1_555
O1_2 Zn4 1_555 1_555
H52_2 C54_2 1_555 1_555
C55_2 H53_2 1_555 1_555
N10 C54_2 1_555 1_555
C55_2 N10 1_555 1_555
H7_2 C12_2 1_555 1_555
C39_2 C12_2 1_555 1_555
H33_2 C39_2 1_555 1_555
C14 C13 1_555 1_555
H9 C14 1_555 1_555
C15 C14 1_555 1_555
C16 C15 1_555 1_555
H10 C16 1_555 1_555
C17 C16 1_555 1_555
H11 C17 1_555 1_555
C18 C15 1_555 1_555
H12 C18 1_555 1_555
H13 C18 1_555 1_555
C19 H14 1_555 1_555
H15 C19 1_555 1_555
C20 C19 1_555 1_555
H16 C20 1_555 1_555
H17 C20 1_555 1_555
C21 H18 1_555 1_555
H19 C21 1_555 1_555
C22 C21 1_555 1_555
H20 C22 1_555 1_555
H21 C22 1_555 1_555
C23 H22 1_555 1_555
H23 C23 1_555 1_555
C24 C23 1_555 1_555
C25 C24 1_555 1_555
H24 C25 1_555 1_555
C28 C24 1_555 1_555
H27 C28 1_555 1_555
N2 C18 1_555 1_555
N3 C20 1_555 1_555
C19 N2 1_555 1_555
C21 N3 1_555 1_555
C22 N2 1_555 1_555
C23 N3 1_555 1_555
H24_2 C25_2 1_555 1_555
C14_2 C13_2 1_555 1_555
H9_2 C14_2 1_555 1_555
C15_2 C14_2 1_555 1_555
C16_2 C15_2 1_555 1_555
H10_2 C16_2 1_555 1_555
C17_2 C16_2 1_555 1_555
H11_2 C17_2 1_555 1_555
C18_2 C15_2 1_555 1_555
H12_2 C18_2 1_555 1_555
H13_2 C18_2 1_555 1_555
C19_2 H14_2 1_555 1_555
C20_2 C19_2 1_555 1_555
H16_2 C20_2 1_555 1_555
C21_2 H18_2 1_555 1_555
H19_2 C21_2 1_555 1_555
C22_2 C21_2 1_555 1_555
H20_2 C22_2 1_555 1_555
H21_2 C22_2 1_555 1_555
C23_2 H22_2 1_555 1_555
H23_2 C23_2 1_555 1_555
C24_2 C23_2 1_555 1_555
C28_2 C24_2 1_555 1_555
H27_2 C28_2 1_555 1_555
N2_2 C18_2 1_555 1_555
N3_2 C20_2 1_555 1_555
C19_2 N2_2 1_555 1_555
C21_2 N3_2 1_555 1_555
C22_2 N2_2 1_555 1_555
C23_2 N3_2 1_555 1_555
C42_2 C41_2 1_555 1_555
H36_2 C42_2 1_555 1_555
C43_2 C42_2 1_555 1_555
C44_2 C43_2 1_555 1_555
H37_2 C44_2 1_555 1_555
C45_2 C44_2 1_555 1_555
H38_2 C45_2 1_555 1_555
C46_2 C43_2 1_555 1_555
H39_2 C46_2 1_555 1_555
H40_2 C46_2 1_555 1_555
C47_2 H41_2 1_555 1_555
C48_2 C47_2 1_555 1_555
H43_2 C48_2 1_555 1_555
C49_2 H45_2 1_555 1_555
H46_2 C49_2 1_555 1_555
C50_2 C49_2 1_555 1_555
H47_2 C50_2 1_555 1_555
H48_2 C50_2 1_555 1_555
C51_2 H49_2 1_555 1_555
H50_2 C51_2 1_555 1_555
C52_2 C51_2 1_555 1_555
C56_2 C52_2 1_555 1_555
H54_2 C56_2 1_555 1_555
N6_2 C46_2 1_555 1_555
N7_2 C48_2 1_555 1_555
C47_2 N6_2 1_555 1_555
C49_2 N7_2 1_555 1_555
C50_2 N6_2 1_555 1_555
C51_2 N7_2 1_555 1_555
H51_2 C53_2 1_555 1_555

#END
