
###############################################################################
#
# This file contains modified crystal structure data generated from the
# MOF subset of the Cambridge Structural Database (CSD) v543 
# hosted by the Cambridge Crystallographic Data Centre (CCDC).
#
# This work is licensed under the Creative Commons
# Attribution-NonCommercial-ShareAlike 4.0 International License.
# To view a copy of this license, visit
# http://creativecommons.org/licenses/by-nc-sa/4.0/
# or send a letter to
# Creative Commons, PO Box 1866, Mountain View, CA 94042, USA.
#
# CIF created using the CSD Python API on 29 September 2022
# The structure has been converted into the P1 space group
# The structure has a 3D framework
# The original CSD entry REYPES is in the orthorhombic crystal system
# The framework has been calculated to contain at least 10.0% void space
# The void calculation uses a probe of radius 1.32A, grid spacing 0.4
#
###############################################################################

data_REYPES
_chemical_formula_moiety         '(C264 H176 N128 O72 Zn24)n'
_symmetry_cell_setting           triclinic
_symmetry_space_group_name_H-M   'P 1'
_symmetry_Int_Tables_number      1
_space_group_name_Hall           'P 1'
loop_
_symmetry_equiv_pos_site_id
_symmetry_equiv_pos_as_xyz
1 x,y,z
_cell_length_a                   39.4912(15)
_cell_length_b                   23.7984(12)
_cell_length_c                   8.9131(3)
_cell_angle_alpha                90
_cell_angle_beta                 90
_cell_angle_gamma                90
_cell_volume                     8376.78
loop_
_atom_site_label
_atom_site_type_symbol
_atom_site_fract_x
_atom_site_fract_y
_atom_site_fract_z
N13 N 0.08426(18) 0.1101(3) 0.3883(7)
C27 C 0.0866(2) 0.0558(4) 0.4039(10)
H16 H 0.0867 0.0418 0.5013
C30 C 0.0810(3) 0.1270(4) 0.2492(11)
H18 H 0.0777 0.1652 0.2333
N15 N 0.09071(18) 0.0035(3) 0.0135(8)
C31 C 0.0879(2) 0.0375(3) 0.1469(9)
C32 C 0.0887(3) 0.0174(4) 0.2891(10)
C33 C 0.0820(3) 0.0930(5) 0.1250(11)
H20 H 0.0787 0.1075 0.0292
Zn10 Zn 0.09973(2) 0.16724(4) 0.57154(9)
N3 N 0.35708(15) 0.1140(3) 0.1064(7)
C9 C 0.3004(2) 0.0496(4) 0.1699(10)
C10 C 0.3549(2) 0.0837(4) 0.2307(10)
H4 H 0.3730 0.0850 0.2978
C11 C 0.3316(2) 0.1117(5) 0.0138(10)
C12 C 0.3276(2) 0.0507(4) 0.2661(10)
H6 H 0.3275 0.0294 0.3536
N10 N 0.26983(17) 0.0176(4) 0.1934(9)
C13 C 0.3026(3) 0.0804(5) 0.0413(12)
Zn8 Zn 0.40027(2) 0.16724(4) 0.07154(9)
Zn1 Zn 0.02164(2) 0.66373(3) 0.58594(9)
Zn3 Zn 0.14428(2) 0.82962(4) 0.41948(9)
C1 C 0.11932(17) 0.7285(3) 0.5776(8)
N2 N 0.18584(15) 0.8874(3) 0.3926(7)
N6 N 0.10747(14) 0.7659(3) 0.4771(6)
N7 N 0.06616(15) 0.7082(2) 0.5269(6)
N8 N 0.07551(14) 0.7536(3) 0.4474(6)
C3 C 0.09349(17) 0.6915(3) 0.6110(8)
C5 C 0.2446(2) 0.9055(4) 0.4133(10)
H1 H 0.2655 0.8950 0.4523
C6 C 0.21619(19) 0.8743(4) 0.4444(10)
H2 H 0.2184 0.8425 0.5045
C7 C 0.2099(2) 0.9666(4) 0.2680(10)
H3 H 0.2071 0.9980 0.2071
N9 N 0.27226(17) 0.9838(3) 0.2978(9)
C8 C 0.24174(19) 0.9524(4) 0.3239(9)
C14 C 0.1827(2) 0.9332(4) 0.3048(9)
H8 H 0.1614 0.9425 0.2677
O2 O 0.17185(12) 0.7738(2) 0.5567(6)
O3 O 0.06057(12) 0.6152(2) 0.6888(5)
C15 C 0.08838(18) 0.6405(3) 0.7055(8)
C17 C 0.15499(17) 0.7371(3) 0.6277(8)
O4 O 0.11159(12) 0.6236(2) 0.7921(5)
O5 O 0.16681(12) 0.7095(2) 0.7345(6)
N11 N 0.01890(15) 0.6164(3) 0.3862(7)
C19 C 0.01604(19) 0.5609(3) 0.3923(9)
H9 H 0.0172 0.5439 0.4861
C20 C 0.0181(2) 0.6404(3) 0.2506(9)
H10 H 0.0198 0.6793 0.2454
N12 N 0.13153(16) 0.8756(3) 0.6277(7)
C21 C 0.1067(2) 0.9128(4) 0.6299(10)
H11 H 0.0936 0.9171 0.5440
C22 C 0.1502(2) 0.8698(4) 0.7516(9)
H12 H 0.1680 0.8441 0.7507
C23 C 0.0149(2) 0.6111(3) 0.1182(9)
H13 H 0.0158 0.6289 0.0254
C24 C 0.1443(2) 0.9005(4) 0.8824(9)
H14 H 0.1576 0.8953 0.9672
C25 C 0.1186(2) 0.9379(4) 0.8824(8)
C26 C 0.0992(2) 0.9457(4) 0.7537(10)
H15 H 0.0818 0.9721 0.7510
C28 C 0.0101(2) 0.5530(4) 0.1312(9)
C29 C 0.0114(2) 0.5266(4) 0.2691(9)
H17 H 0.0093 0.4878 0.2784
O9 O 0.02147(13) 0.7151(2) 0.7786(6)
H21 H 0.0070 0.7029 0.8456
H22 H 0.0415 0.7145 0.8196
Zn14 Zn 0.14428(2) 0.67038(4) 0.91948(9)
O20 O 0.11159(12) 0.8764(2) 0.2921(5)
O22 O 0.16681(12) 0.7905(2) 0.2345(6)
N14 N 0.0081(2) 0.5220(3) 0.9920(8)
N19 N 0.02384(15) 0.2893(2) 0.4681(6)
N22 N 0.03159(14) 0.2435(3) 0.5427(7)
N23 N 0.06355(15) 0.2300(3) 0.5104(6)
C40 C 0.07548(16) 0.2682(3) 0.4101(8)
C42 C 0.04995(17) 0.3065(3) 0.3837(8)
O10 O 0.12680(12) 0.2178(2) 0.4159(6)
C54 C 0.11096(19) 0.2572(3) 0.3525(8)
O15 O 0.01752(12) 0.3835(2) 0.3104(6)
O16 O 0.12195(12) 0.2856(2) 0.2461(6)
C56 C 0.04535(18) 0.3597(3) 0.2958(8)
O17 O 0.06954(12) 0.3772(2) 0.2168(6)
Zn9 Zn 0.09973(2) 0.33276(4) 0.07154(9)
N34 N 0.14292(15) 0.1140(3) 0.6064(7)
O23 O 0.12195(12) 0.2144(2) 0.7461(6)
O25 O 0.06954(12) 0.1228(2) 0.7168(6)
Zn2 Zn 0.90027(2) 0.83276(4) 0.42846(9)
N1 N 0.97616(15) 0.7107(2) 0.5319(6)
N4 N 0.96841(14) 0.7565(3) 0.4573(7)
N5 N 0.93645(15) 0.7700(3) 0.4896(6)
C2 C 0.92452(16) 0.7318(3) 0.5899(8)
C4 C 0.95005(17) 0.6935(3) 0.6163(8)
O1 O 0.87320(12) 0.7822(2) 0.5841(6)
C16 C 0.88904(19) 0.7428(3) 0.6475(8)
O6 O 0.98248(12) 0.6165(2) 0.6896(6)
O7 O 0.87805(12) 0.7144(2) 0.7539(6)
C18 C 0.95465(18) 0.6403(3) 0.7042(8)
O8 O 0.93046(12) 0.6228(2) 0.7832(6)
N18 N 0.9919(2) 0.4780(3) 0.0080(8)
Zn12 Zn 0.90027(2) 0.66724(4) 0.92846(9)
N33 N 0.85708(15) 0.8860(3) 0.3936(7)
O24 O 0.87805(12) 0.7856(2) 0.2539(6)
O26 O 0.93046(12) 0.8772(2) 0.2832(6)
N36 N 0.91574(18) 0.8899(3) 0.6117(7)
N17 N 0.98110(15) 0.3836(3) 0.6138(7)
C34 C 0.98396(19) 0.4391(3) 0.6077(9)
H23 H 0.9828 0.4561 0.5139
C35 C 0.9819(2) 0.3596(3) 0.7494(9)
H24 H 0.9802 0.3207 0.7546
C36 C 0.9851(2) 0.3889(3) 0.8818(9)
H25 H 0.9842 0.3711 0.9746
C37 C 0.9899(2) 0.4470(4) 0.8688(9)
C38 C 0.9886(2) 0.4734(4) 0.7309(9)
H26 H 0.9907 0.5122 0.7216
Zn4 Zn 0.97836(2) 0.33627(3) 0.41406(9)
Zn6 Zn 0.85572(2) 0.17038(4) 0.58052(9)
C39 C 0.88068(17) 0.2715(3) 0.4224(8)
N20 N 0.81416(15) 0.1126(3) 0.6074(7)
N24 N 0.89253(14) 0.2341(3) 0.5229(6)
N25 N 0.93384(15) 0.2918(2) 0.4731(6)
N26 N 0.92449(14) 0.2464(3) 0.5526(6)
C41 C 0.90651(17) 0.3085(3) 0.3890(8)
C43 C 0.7554(2) 0.0945(4) 0.5867(10)
H27 H 0.7345 0.1050 0.5477
C44 C 0.78381(19) 0.1257(4) 0.5556(10)
H28 H 0.7816 0.1575 0.4955
C45 C 0.7901(2) 0.0334(4) 0.7320(10)
H29 H 0.7929 0.0020 0.7929
N27 N 0.72774(17) 0.0162(3) 0.7022(9)
C46 C 0.75826(19) 0.0476(4) 0.6761(9)
C52 C 0.8173(2) 0.0668(4) 0.6952(9)
H34 H 0.8386 0.0575 0.7323
O11 O 0.82815(12) 0.2262(2) 0.4433(6)
O12 O 0.93943(12) 0.3848(2) 0.3112(5)
C53 C 0.91162(18) 0.3595(3) 0.2945(8)
C55 C 0.84501(17) 0.2629(3) 0.3723(8)
O13 O 0.88841(12) 0.3764(2) 0.2079(5)
O14 O 0.83319(12) 0.2905(2) 0.2655(6)
N29 N 0.86847(16) 0.1244(3) 0.3723(7)
C57 C 0.8933(2) 0.0872(4) 0.3701(10)
H35 H 0.9064 0.0829 0.4560
C58 C 0.8498(2) 0.1302(4) 0.2484(9)
H36 H 0.8320 0.1559 0.2493
C59 C 0.8557(2) 0.0995(4) 0.1176(9)
H37 H 0.8424 0.1047 0.0328
C60 C 0.8814(2) 0.0621(4) 0.1176(8)
C61 C 0.9008(2) 0.0543(4) 0.2463(10)
H38 H 0.9182 0.0279 0.2490
O18 O 0.97853(13) 0.2849(2) 0.2214(6)
H43 H 0.9930 0.2971 0.1544
H44 H 0.9585 0.2855 0.1804
Zn13 Zn 0.85572(2) 0.32962(4) 0.08052(9)
O19 O 0.88841(12) 0.1236(2) 0.7079(5)
O21 O 0.83319(12) 0.2095(2) 0.7655(6)
N21 N 0.64292(15) 0.8860(3) 0.8936(7)
C47 C 0.6996(2) 0.9504(4) 0.8301(10)
C48 C 0.6451(2) 0.9163(4) 0.7693(10)
H30 H 0.6270 0.9150 0.7022
C49 C 0.6684(2) 0.8883(5) 0.9862(10)
C50 C 0.6724(2) 0.9493(4) 0.7339(10)
H32 H 0.6725 0.9706 0.6464
N28 N 0.73017(17) 0.9824(4) 0.8066(9)
C51 C 0.6974(3) 0.9196(5) 0.9587(12)
Zn11 Zn 0.59973(2) 0.83276(4) 0.92846(9)
C62 C 0.9134(2) 0.9442(4) 0.5961(10)
H39 H 0.9133 0.9582 0.4987
C63 C 0.9190(3) 0.8730(4) 0.7508(11)
H40 H 0.9223 0.8348 0.7667
N31 N 0.90929(18) 0.9965(3) 0.9865(8)
C64 C 0.9121(2) 0.9625(3) 0.8531(9)
C65 C 0.9113(3) 0.9826(4) 0.7109(10)
C66 C 0.9180(3) 0.9070(5) 0.8750(11)
H42 H 0.9213 0.8925 0.9708
N17_2 N 0.51890(15) 0.1164(3) 0.6138(7)
C34_2 C 0.51604(19) 0.0609(3) 0.6077(9)
H23_2 H 0.5172 0.0439 0.5139
C35_2 C 0.5181(2) 0.1404(3) 0.7494(9)
H24_2 H 0.5198 0.1793 0.7546
C36_2 C 0.5149(2) 0.1111(3) 0.8818(9)
H25_2 H 0.5158 0.1289 0.9746
C37_2 C 0.5101(2) 0.0530(4) 0.8688(9)
C38_2 C 0.5114(2) 0.0266(4) 0.7309(9)
Zn4_2 Zn 0.52164(2) 0.16373(3) 0.41406(9)
Zn5 Zn 0.40027(2) 0.33276(4) 0.57154(9)
Zn6_2 Zn 0.64428(2) 0.32962(4) 0.58052(9)
C39_2 C 0.61932(17) 0.2285(3) 0.4224(8)
N19_2 N 0.47616(15) 0.2107(2) 0.4681(6)
N20_2 N 0.68584(15) 0.3874(3) 0.6074(7)
N21_2 N 0.85708(15) 0.6140(3) 0.8936(7)
N22_2 N 0.46841(14) 0.2565(3) 0.5427(7)
N23_2 N 0.43645(15) 0.2700(3) 0.5104(6)
N24_2 N 0.60747(14) 0.2659(3) 0.5229(6)
N25_2 N 0.56616(15) 0.2082(2) 0.4731(6)
N26_2 N 0.57551(14) 0.2536(3) 0.5526(6)
C40_2 C 0.42452(16) 0.2318(3) 0.4101(8)
C41_2 C 0.59349(17) 0.1915(3) 0.3890(8)
C42_2 C 0.45005(17) 0.1935(3) 0.3837(8)
C43_2 C 0.7446(2) 0.4055(4) 0.5867(10)
H27_2 H 0.7655 0.3950 0.5477
C44_2 C 0.71619(19) 0.3743(4) 0.5556(10)
H28_2 H 0.7184 0.3425 0.4955
C45_2 C 0.7099(2) 0.4666(4) 0.7320(10)
H29_2 H 0.7071 0.4980 0.7929
N27_2 N 0.77226(17) 0.4838(3) 0.7022(9)
C46_2 C 0.74174(19) 0.4524(4) 0.6761(9)
C47_2 C 0.8004(2) 0.5496(4) 0.8301(10)
C48_2 C 0.8549(2) 0.5837(4) 0.7693(10)
H30_2 H 0.8730 0.5850 0.7022
C49_2 C 0.8316(2) 0.6117(5) 0.9862(10)
C50_2 C 0.8276(2) 0.5507(4) 0.7339(10)
H32_2 H 0.8275 0.5294 0.6464
N28_2 N 0.76983(17) 0.5176(4) 0.8066(9)
C51_2 C 0.8026(3) 0.5804(5) 0.9587(12)
C52_2 C 0.6827(2) 0.4332(4) 0.6952(9)
H34_2 H 0.6614 0.4425 0.7323
O10_2 O 0.37320(12) 0.2822(2) 0.4159(6)
O11_2 O 0.67185(12) 0.2738(2) 0.4433(6)
O12_2 O 0.56057(12) 0.1152(2) 0.3112(5)
C53_2 C 0.58838(18) 0.1405(3) 0.2945(8)
C54_2 C 0.38904(19) 0.2428(3) 0.3525(8)
C55_2 C 0.65499(17) 0.2371(3) 0.3723(8)
O13_2 O 0.61159(12) 0.1236(2) 0.2079(5)
O14_2 O 0.66681(12) 0.2095(2) 0.2655(6)
O15_2 O 0.48248(12) 0.1165(2) 0.3104(6)
O16_2 O 0.37805(12) 0.2144(2) 0.2461(6)
C56_2 C 0.45465(18) 0.1403(3) 0.2958(8)
O17_2 O 0.43046(12) 0.1228(2) 0.2168(6)
N29_2 N 0.63153(16) 0.3756(3) 0.3723(7)
C57_2 C 0.6067(2) 0.4128(4) 0.3701(10)
H35_2 H 0.5936 0.4171 0.4560
C58_2 C 0.6502(2) 0.3698(4) 0.2484(9)
H36_2 H 0.6680 0.3441 0.2493
C59_2 C 0.6443(2) 0.4005(4) 0.1176(9)
H37_2 H 0.6576 0.3953 0.0328
C60_2 C 0.6186(2) 0.4379(4) 0.1176(8)
C61_2 C 0.5992(2) 0.4457(4) 0.2463(10)
H38_2 H 0.5818 0.4721 0.2490
O18_2 O 0.52147(13) 0.2151(2) 0.2214(6)
H43_2 H 0.5070 0.2029 0.1544
H44_2 H 0.5415 0.2145 0.1804
Zn13_2 Zn 0.64428(2) 0.17038(4) 0.08052(9)
N34_2 N 0.35708(15) 0.3860(3) 0.6064(7)
O19_2 O 0.61159(12) 0.3764(2) 0.7079(5)
O21_2 O 0.66681(12) 0.2905(2) 0.7655(6)
O23_2 O 0.37805(12) 0.2856(2) 0.7461(6)
O25_2 O 0.43046(12) 0.3772(2) 0.7168(6)
N35 N 0.41574(18) 0.3899(3) 0.3883(7)
N30 N 0.58426(18) 0.6101(3) 0.6117(7)
C62_2 C 0.5866(2) 0.5558(4) 0.5961(10)
H39_2 H 0.5867 0.5418 0.4987
C63_2 C 0.5810(3) 0.6270(4) 0.7508(11)
H40_2 H 0.5777 0.6652 0.7667
N31_2 N 0.59071(18) 0.5035(3) 0.9865(8)
N32 N 0.61463(19) 0.4713(3) 0.9827(8)
C64_2 C 0.5879(2) 0.5375(3) 0.8531(9)
C65_2 C 0.5887(3) 0.5174(4) 0.7109(10)
H41 H 0.5907 0.4791 0.6916
C66_2 C 0.5820(3) 0.5930(5) 0.8750(11)
H42_2 H 0.5787 0.6075 0.9708
Zn7 Zn 0.59973(2) 0.66724(4) 0.42846(9)
C27_2 C 0.4134(2) 0.4442(4) 0.4039(10)
H16_2 H 0.4133 0.4582 0.5013
C30_2 C 0.4190(3) 0.3730(4) 0.2492(11)
H18_2 H 0.4223 0.3348 0.2333
N15_2 N 0.40929(18) 0.4965(3) 0.0135(8)
N16 N 0.38537(19) 0.5287(3) 0.0173(8)
C31_2 C 0.4121(2) 0.4625(3) 0.1469(9)
C32_2 C 0.4113(3) 0.4826(4) 0.2891(10)
H19 H 0.4093 0.5209 0.3084
C33_2 C 0.4180(3) 0.4070(5) 0.1250(11)
H20_2 H 0.4213 0.3925 0.0292
Zn1_2 Zn 0.47836(2) 0.83627(3) 0.58594(9)
Zn3_2 Zn 0.35572(2) 0.67038(4) 0.41948(9)
C1_2 C 0.38068(17) 0.7715(3) 0.5776(8)
N1_2 N 0.52384(15) 0.7893(2) 0.5319(6)
N2_2 N 0.31416(15) 0.6126(3) 0.3926(7)
N3_2 N 0.14292(15) 0.3860(3) 0.1064(7)
N4_2 N 0.53159(14) 0.7435(3) 0.4573(7)
N5_2 N 0.56355(15) 0.7300(3) 0.4896(6)
N6_2 N 0.39253(14) 0.7341(3) 0.4771(6)
N7_2 N 0.43384(15) 0.7918(2) 0.5269(6)
N8_2 N 0.42449(14) 0.7464(3) 0.4474(6)
C2_2 C 0.57548(16) 0.7682(3) 0.5899(8)
C3_2 C 0.40651(17) 0.8085(3) 0.6110(8)
C4_2 C 0.54995(17) 0.8065(3) 0.6163(8)
C5_2 C 0.2554(2) 0.5945(4) 0.4133(10)
H1_2 H 0.2345 0.6050 0.4523
C6_2 C 0.28381(19) 0.6257(4) 0.4444(10)
H2_2 H 0.2816 0.6575 0.5045
C7_2 C 0.2901(2) 0.5334(4) 0.2680(10)
H3_2 H 0.2929 0.5020 0.2071
N9_2 N 0.22774(17) 0.5162(3) 0.2978(9)
C8_2 C 0.25826(19) 0.5476(4) 0.3239(9)
C9_2 C 0.1996(2) 0.4504(4) 0.1699(10)
C10_2 C 0.1451(2) 0.4163(4) 0.2307(10)
H4_2 H 0.1270 0.4150 0.2978
C11_2 C 0.1684(2) 0.3883(5) 0.0138(10)
C12_2 C 0.1724(2) 0.4493(4) 0.2661(10)
H6_2 H 0.1725 0.4706 0.3536
N10_2 N 0.23017(17) 0.4824(4) 0.1934(9)
C13_2 C 0.1974(3) 0.4196(5) 0.0413(12)
C14_2 C 0.3173(2) 0.5668(4) 0.3048(9)
H8_2 H 0.3386 0.5575 0.2677
O1_2 O 0.62680(12) 0.7178(2) 0.5841(6)
O2_2 O 0.32815(12) 0.7262(2) 0.5567(6)
O3_2 O 0.43943(12) 0.8848(2) 0.6888(5)
C15_2 C 0.41162(18) 0.8595(3) 0.7055(8)
C16_2 C 0.61096(19) 0.7572(3) 0.6475(8)
C17_2 C 0.34501(17) 0.7629(3) 0.6277(8)
O4_2 O 0.38841(12) 0.8764(2) 0.7921(5)
O5_2 O 0.33319(12) 0.7905(2) 0.7345(6)
O6_2 O 0.51752(12) 0.8835(2) 0.6896(6)
O7_2 O 0.62195(12) 0.7856(2) 0.7539(6)
C18_2 C 0.54535(18) 0.8597(3) 0.7042(8)
O8_2 O 0.56954(12) 0.8772(2) 0.7832(6)
N11_2 N 0.48110(15) 0.8836(3) 0.3862(7)
C19_2 C 0.48396(19) 0.9391(3) 0.3923(9)
H9_2 H 0.4828 0.9561 0.4861
C20_2 C 0.4819(2) 0.8596(3) 0.2506(9)
H10_2 H 0.4802 0.8207 0.2454
N12_2 N 0.36847(16) 0.6244(3) 0.6277(7)
C21_2 C 0.3933(2) 0.5872(4) 0.6299(10)
H11_2 H 0.4064 0.5829 0.5440
C22_2 C 0.3498(2) 0.6302(4) 0.7516(9)
H12_2 H 0.3320 0.6559 0.7507
C23_2 C 0.4851(2) 0.8889(3) 0.1182(9)
H13_2 H 0.4842 0.8711 0.0254
C24_2 C 0.3557(2) 0.5995(4) 0.8824(9)
H14_2 H 0.3424 0.6047 0.9672
C25_2 C 0.3814(2) 0.5621(4) 0.8824(8)
C26_2 C 0.4008(2) 0.5543(4) 0.7537(10)
H15_2 H 0.4182 0.5279 0.7510
C28_2 C 0.4899(2) 0.9470(4) 0.1312(9)
C29_2 C 0.4886(2) 0.9734(4) 0.2691(9)
O9_2 O 0.47853(13) 0.7849(2) 0.7786(6)
H21_2 H 0.4930 0.7971 0.8456
H22_2 H 0.4585 0.7855 0.8196
Zn14_2 Zn 0.35572(2) 0.82962(4) 0.91948(9)
N33_2 N 0.64292(15) 0.6140(3) 0.3936(7)
O20_2 O 0.38841(12) 0.6236(2) 0.2921(5)
O22_2 O 0.33319(12) 0.7095(2) 0.2345(6)
O24_2 O 0.62195(12) 0.7144(2) 0.2539(6)
O26_2 O 0.56954(12) 0.6228(2) 0.2832(6)
H39_3 H 0.4133 0.0418 0.0013
N30_2 N 0.41574(18) 0.1101(3) 0.8883(7)
C62_3 C 0.4134(2) 0.0558(4) 0.9039(10)
C63_3 C 0.4190(3) 0.1270(4) 0.7492(11)
H40_3 H 0.4223 0.1652 0.7333
N31_3 N 0.40929(18) 0.0035(3) 0.5135(8)
C64_3 C 0.4121(2) 0.0375(3) 0.6469(9)
C65_3 C 0.4113(3) 0.0174(4) 0.7891(10)
C66_3 C 0.4180(3) 0.0930(5) 0.6250(11)
H42_3 H 0.4213 0.1075 0.5292
C47_3 C 0.1996(2) 0.0496(4) 0.6699(10)
C48_3 C 0.1451(2) 0.0837(4) 0.7307(10)
H30_3 H 0.1270 0.0850 0.7978
C49_3 C 0.1684(2) 0.1117(5) 0.5138(10)
H31 H 0.1672 0.1321 0.4250
C50_3 C 0.1724(2) 0.0507(4) 0.7661(10)
H32_3 H 0.1725 0.0294 0.8536
N28_3 N 0.23017(17) 0.0176(4) 0.6934(9)
C51_3 C 0.1974(3) 0.0804(5) 0.5413(12)
H33 H 0.2152 0.0805 0.4727
Zn4_3 Zn 0.47836(2) 0.66373(3) 0.08594(9)
C39_3 C 0.38068(17) 0.7285(3) 0.0776(8)
N19_3 N 0.52384(15) 0.7107(2) 0.0319(6)
N25_3 N 0.43384(15) 0.7082(2) 0.0269(6)
C40_3 C 0.57548(16) 0.7318(3) 0.0899(8)
C41_3 C 0.40651(17) 0.6915(3) 0.1110(8)
C42_3 C 0.54995(17) 0.6935(3) 0.1163(8)
H28_3 H 0.2816 0.8425 0.0045
O10_3 O 0.62680(12) 0.7822(2) 0.0841(6)
O11_3 O 0.32815(12) 0.7738(2) 0.0567(6)
O12_3 O 0.43943(12) 0.6152(2) 0.1888(5)
C53_3 C 0.41162(18) 0.6405(3) 0.2055(8)
C54_3 C 0.61096(19) 0.7428(3) 0.1475(8)
C55_3 C 0.34501(17) 0.7371(3) 0.1277(8)
O15_3 O 0.51752(12) 0.6165(2) 0.1896(6)
C56_3 C 0.54535(18) 0.6403(3) 0.2042(8)
N29_3 N 0.36847(16) 0.8756(3) 0.1277(7)
C57_3 C 0.3933(2) 0.9128(4) 0.1299(10)
H35_3 H 0.4064 0.9171 0.0440
C58_3 C 0.3498(2) 0.8698(4) 0.2516(9)
H36_3 H 0.3320 0.8441 0.2507
C59_3 C 0.3557(2) 0.9005(4) 0.3824(9)
H37_3 H 0.3424 0.8953 0.4672
C60_3 C 0.3814(2) 0.9379(4) 0.3824(8)
C61_3 C 0.4008(2) 0.9457(4) 0.2537(10)
H38_3 H 0.4182 0.9721 0.2510
N32_2 N 0.38537(19) 0.9713(3) 0.5173(8)
H41_2 H 0.4093 0.9791 0.8084
O18_3 O 0.47853(13) 0.7151(2) 0.2786(6)
H43_3 H 0.4930 0.7029 0.3456
H44_3 H 0.4585 0.7145 0.3196
N35_2 N 0.58426(18) 0.8899(3) 0.1117(7)
N2_3 N 0.68584(15) 0.1126(3) 0.1074(7)
N4_3 N 0.46841(14) 0.2435(3) 0.0427(7)
N5_3 N 0.43645(15) 0.2300(3) 0.0104(6)
N6_3 N 0.60747(14) 0.2341(3) 0.0229(6)
N8_3 N 0.57551(14) 0.2464(3) 0.0526(6)
C5_3 C 0.7446(2) 0.0945(4) 0.0867(10)
H1_3 H 0.7655 0.1050 0.0477
C6_3 C 0.71619(19) 0.1257(4) 0.0556(10)
C7_3 C 0.7099(2) 0.0334(4) 0.2320(10)
H3_3 H 0.7071 0.0020 0.2929
N9_3 N 0.77226(17) 0.0162(3) 0.2022(9)
C8_3 C 0.74174(19) 0.0476(4) 0.1761(9)
C14_3 C 0.6827(2) 0.0668(4) 0.1952(9)
H8_3 H 0.6614 0.0575 0.2323
N11_3 N 0.51890(15) 0.3836(3) 0.1138(7)
C19_3 C 0.51604(19) 0.4391(3) 0.1077(9)
H9_3 H 0.5172 0.4561 0.0139
C20_3 C 0.5181(2) 0.3596(3) 0.2494(9)
H10_3 H 0.5198 0.3207 0.2546
C23_3 C 0.5149(2) 0.3889(3) 0.3818(9)
H13_3 H 0.5158 0.3711 0.4746
N14_2 N 0.5081(2) 0.4780(3) 0.5080(8)
C28_3 C 0.5101(2) 0.4470(4) 0.3688(9)
C29_3 C 0.5114(2) 0.4734(4) 0.2309(9)
H17_2 H 0.5093 0.5122 0.2216
N17_3 N 0.48110(15) 0.6164(3) 0.8862(7)
C34_3 C 0.48396(19) 0.5609(3) 0.8923(9)
H23_3 H 0.4828 0.5439 0.9861
C35_3 C 0.4819(2) 0.6404(3) 0.7506(9)
H24_3 H 0.4802 0.6793 0.7454
C36_3 C 0.4851(2) 0.6111(3) 0.6182(9)
H25_3 H 0.4842 0.6289 0.5254
N18_2 N 0.4919(2) 0.5220(3) 0.4920(8)
C37_3 C 0.4899(2) 0.5530(4) 0.6312(9)
C38_3 C 0.4886(2) 0.5266(4) 0.7691(9)
H26_2 H 0.4907 0.4878 0.7784
N20_3 N 0.31416(15) 0.8874(3) 0.8926(7)
N22_3 N 0.53159(14) 0.7565(3) 0.9573(7)
N23_3 N 0.56355(15) 0.7700(3) 0.9896(6)
N24_3 N 0.39253(14) 0.7659(3) 0.9771(6)
N26_3 N 0.42449(14) 0.7536(3) 0.9474(6)
C43_3 C 0.2554(2) 0.9055(4) 0.9133(10)
H27_3 H 0.2345 0.8950 0.9523
C44_3 C 0.28381(19) 0.8743(4) 0.9444(10)
C45_3 C 0.2901(2) 0.9666(4) 0.7680(10)
H29_3 H 0.2929 0.9980 0.7071
N27_3 N 0.22774(17) 0.9838(3) 0.7978(9)
C46_3 C 0.25826(19) 0.9524(4) 0.8239(9)
C52_3 C 0.3173(2) 0.9332(4) 0.8048(9)
H34_3 H 0.3386 0.9425 0.7677
Zn1_3 Zn 0.52164(2) 0.33627(3) 0.91406(9)
C1_3 C 0.61932(17) 0.2715(3) 0.9224(8)
N1_3 N 0.47616(15) 0.2893(2) 0.9681(6)
N7_3 N 0.56616(15) 0.2918(2) 0.9731(6)
C2_3 C 0.42452(16) 0.2682(3) 0.9101(8)
C3_3 C 0.59349(17) 0.3085(3) 0.8890(8)
C4_3 C 0.45005(17) 0.3065(3) 0.8837(8)
H2_3 H 0.7184 0.1575 0.9955
O1_3 O 0.37320(12) 0.2178(2) 0.9159(6)
O2_3 O 0.67185(12) 0.2262(2) 0.9433(6)
O3_3 O 0.56057(12) 0.3848(2) 0.8112(5)
C15_3 C 0.58838(18) 0.3595(3) 0.7945(8)
C16_3 C 0.38904(19) 0.2572(3) 0.8525(8)
C17_3 C 0.65499(17) 0.2629(3) 0.8723(8)
O6_3 O 0.48248(12) 0.3835(2) 0.8104(6)
C18_3 C 0.45465(18) 0.3597(3) 0.7958(8)
N12_3 N 0.63153(16) 0.1244(3) 0.8723(7)
C21_3 C 0.6067(2) 0.0872(4) 0.8701(10)
H11_3 H 0.5936 0.0829 0.9560
C22_3 C 0.6502(2) 0.1302(4) 0.7484(9)
H12_3 H 0.6680 0.1559 0.7493
C24_3 C 0.6443(2) 0.0995(4) 0.6176(9)
H14_3 H 0.6576 0.1047 0.5328
C25_3 C 0.6186(2) 0.0621(4) 0.6176(8)
C26_3 C 0.5992(2) 0.0543(4) 0.7463(10)
H15_3 H 0.5818 0.0279 0.7490
N16_2 N 0.61463(19) 0.0287(3) 0.4827(8)
H19_2 H 0.5907 0.0209 0.1916
O9_3 O 0.52147(13) 0.2849(2) 0.7214(6)
H21_3 H 0.5070 0.2971 0.6544
H22_3 H 0.5415 0.2855 0.6804
C9_3 C 0.8004(2) 0.9504(4) 0.3301(10)
C10_3 C 0.8549(2) 0.9163(4) 0.2693(10)
H4_3 H 0.8730 0.9150 0.2022
C11_3 C 0.8316(2) 0.8883(5) 0.4862(10)
H5 H 0.8328 0.8679 0.5750
C12_3 C 0.8276(2) 0.9493(4) 0.2339(10)
H6_3 H 0.8275 0.9706 0.1464
N10_3 N 0.76983(17) 0.9824(4) 0.3066(9)
C13_3 C 0.8026(3) 0.9196(5) 0.4587(12)
H7 H 0.7848 0.9195 0.5273
C27_3 C 0.5866(2) 0.9442(4) 0.0961(10)
C30_3 C 0.5810(3) 0.8730(4) 0.2508(11)
H18_3 H 0.5777 0.8348 0.2667
N15_3 N 0.59071(18) 0.9965(3) 0.4865(8)
C31_3 C 0.5879(2) 0.9625(3) 0.3531(9)
C32_3 C 0.5887(3) 0.9826(4) 0.2109(10)
C33_3 C 0.5820(3) 0.9070(5) 0.3750(11)
H20_3 H 0.5787 0.8925 0.4708
H16_3 H 0.5867 0.9582 0.9987
N4_4 N 0.03159(14) 0.2565(3) 0.0427(7)
N5_4 N 0.06355(15) 0.2700(3) 0.0104(6)
H26_3 H 0.0093 0.0122 0.7784
N1_4 N 0.02384(15) 0.2107(2) 0.9681(6)
C2_4 C 0.07548(16) 0.2318(3) 0.9101(8)
C4_4 C 0.04995(17) 0.1935(3) 0.8837(8)
O1_4 O 0.12680(12) 0.2822(2) 0.9159(6)
C16_4 C 0.11096(19) 0.2428(3) 0.8525(8)
O6_4 O 0.01752(12) 0.1165(2) 0.8104(6)
C18_4 C 0.04535(18) 0.1403(3) 0.7958(8)
N36_2 N 0.08426(18) 0.3899(3) 0.8883(7)
H39_4 H 0.0867 0.4582 0.0013
Zn4_4 Zn 0.02164(2) 0.83627(3) 0.08594(9)
C39_4 C 0.11932(17) 0.7715(3) 0.0776(8)
N25_4 N 0.06616(15) 0.7918(2) 0.0269(6)
C41_4 C 0.09349(17) 0.8085(3) 0.1110(8)
H28_4 H 0.2184 0.6575 0.0045
O11_4 O 0.17185(12) 0.7262(2) 0.0567(6)
O12_4 O 0.06057(12) 0.8848(2) 0.1888(5)
C53_4 C 0.08838(18) 0.8595(3) 0.2055(8)
C55_4 C 0.15499(17) 0.7629(3) 0.1277(8)
N29_4 N 0.13153(16) 0.6244(3) 0.1277(7)
C57_4 C 0.1067(2) 0.5872(4) 0.1299(10)
H35_4 H 0.0936 0.5829 0.0440
C58_4 C 0.1502(2) 0.6302(4) 0.2516(9)
H36_4 H 0.1680 0.6559 0.2507
C59_4 C 0.1443(2) 0.5995(4) 0.3824(9)
H37_4 H 0.1576 0.6047 0.4672
C60_4 C 0.1186(2) 0.5621(4) 0.3824(8)
C61_4 C 0.0992(2) 0.5543(4) 0.2537(10)
H38_4 H 0.0818 0.5279 0.2510
C62_4 C 0.0866(2) 0.4442(4) 0.9039(10)
C63_4 C 0.0810(3) 0.3730(4) 0.7492(11)
H40_4 H 0.0777 0.3348 0.7333
N31_4 N 0.09071(18) 0.4965(3) 0.5135(8)
N32_3 N 0.11463(19) 0.5287(3) 0.5173(8)
C64_4 C 0.0879(2) 0.4625(3) 0.6469(9)
C65_4 C 0.0887(3) 0.4826(4) 0.7891(10)
H41_3 H 0.0907 0.5209 0.8084
C66_4 C 0.0820(3) 0.4070(5) 0.6250(11)
H42_4 H 0.0787 0.3925 0.5292
O18_4 O 0.02147(13) 0.7849(2) 0.2786(6)
H43_4 H 0.0070 0.7971 0.3456
H44_4 H 0.0415 0.7855 0.3196
N17_4 N 0.01890(15) 0.8836(3) 0.8862(7)
C34_4 C 0.01604(19) 0.9391(3) 0.8923(9)
H23_4 H 0.0172 0.9561 0.9861
C35_4 C 0.0181(2) 0.8596(3) 0.7506(9)
H24_4 H 0.0198 0.8207 0.7454
C36_4 C 0.0149(2) 0.8889(3) 0.6182(9)
H25_4 H 0.0158 0.8711 0.5254
N18_3 N 0.0081(2) 0.9780(3) 0.4920(8)
C37_4 C 0.0101(2) 0.9470(4) 0.6312(9)
C38_4 C 0.0114(2) 0.9734(4) 0.7691(9)
N20_4 N 0.18584(15) 0.6126(3) 0.8926(7)
N24_4 N 0.10747(14) 0.7341(3) 0.9771(6)
N26_4 N 0.07551(14) 0.7464(3) 0.9474(6)
C43_4 C 0.2446(2) 0.5945(4) 0.9133(10)
H27_4 H 0.2655 0.6050 0.9523
C44_4 C 0.21619(19) 0.6257(4) 0.9444(10)
C45_4 C 0.2099(2) 0.5334(4) 0.7680(10)
H29_4 H 0.2071 0.5020 0.7071
N27_4 N 0.27226(17) 0.5162(3) 0.7978(9)
C46_4 C 0.24174(19) 0.5476(4) 0.8239(9)
C47_4 C 0.3004(2) 0.4504(4) 0.6699(10)
C48_4 C 0.3549(2) 0.4163(4) 0.7307(10)
H30_4 H 0.3730 0.4150 0.7978
C49_4 C 0.3316(2) 0.3883(5) 0.5138(10)
H31_2 H 0.3328 0.3679 0.4250
C50_4 C 0.3276(2) 0.4493(4) 0.7661(10)
H32_4 H 0.3275 0.4706 0.8536
N28_4 N 0.26983(17) 0.4824(4) 0.6934(9)
C51_4 C 0.3026(3) 0.4196(5) 0.5413(12)
H33_2 H 0.2848 0.4195 0.4727
C52_4 C 0.1827(2) 0.5668(4) 0.8048(9)
H34_4 H 0.1614 0.5575 0.7677
N2_4 N 0.81416(15) 0.3874(3) 0.1074(7)
N6_4 N 0.89253(14) 0.2659(3) 0.0229(6)
N8_4 N 0.92449(14) 0.2536(3) 0.0526(6)
C5_4 C 0.7554(2) 0.4055(4) 0.0867(10)
H1_4 H 0.7345 0.3950 0.0477
C6_4 C 0.78381(19) 0.3743(4) 0.0556(10)
C7_4 C 0.7901(2) 0.4666(4) 0.2320(10)
H3_4 H 0.7929 0.4980 0.2929
N9_4 N 0.72774(17) 0.4838(3) 0.2022(9)
C8_4 C 0.75826(19) 0.4524(4) 0.1761(9)
C9_4 C 0.6996(2) 0.5496(4) 0.3301(10)
C10_4 C 0.6451(2) 0.5837(4) 0.2693(10)
H4_4 H 0.6270 0.5850 0.2022
C11_4 C 0.6684(2) 0.6117(5) 0.4862(10)
H5_2 H 0.6672 0.6321 0.5750
C12_4 C 0.6724(2) 0.5507(4) 0.2339(10)
H6_4 H 0.6725 0.5294 0.1464
N10_4 N 0.73017(17) 0.5176(4) 0.3066(9)
C13_4 C 0.6974(3) 0.5804(5) 0.4587(12)
H7_2 H 0.7152 0.5805 0.5273
C14_4 C 0.8173(2) 0.4332(4) 0.1952(9)
H8_4 H 0.8386 0.4425 0.2323
N11_4 N 0.98110(15) 0.1164(3) 0.1138(7)
C19_4 C 0.98396(19) 0.0609(3) 0.1077(9)
H9_4 H 0.9828 0.0439 0.0139
C20_4 C 0.9819(2) 0.1404(3) 0.2494(9)
H10_4 H 0.9802 0.1793 0.2546
C23_4 C 0.9851(2) 0.1111(3) 0.3818(9)
H13_4 H 0.9842 0.1289 0.4746
N14_3 N 0.9919(2) 0.0220(3) 0.5080(8)
C28_4 C 0.9899(2) 0.0530(4) 0.3688(9)
C29_4 C 0.9886(2) 0.0266(4) 0.2309(9)
Zn1_4 Zn 0.97836(2) 0.16373(3) 0.91406(9)
C1_4 C 0.88068(17) 0.2285(3) 0.9224(8)
N7_4 N 0.93384(15) 0.2082(2) 0.9731(6)
C3_4 C 0.90651(17) 0.1915(3) 0.8890(8)
H2_4 H 0.7816 0.3425 0.9955
O2_4 O 0.82815(12) 0.2738(2) 0.9433(6)
O3_4 O 0.93943(12) 0.1152(2) 0.8112(5)
C15_4 C 0.91162(18) 0.1405(3) 0.7945(8)
C17_4 C 0.84501(17) 0.2371(3) 0.8723(8)
N12_4 N 0.86847(16) 0.3756(3) 0.8723(7)
C21_4 C 0.8933(2) 0.4128(4) 0.8701(10)
H11_4 H 0.9064 0.4171 0.9560
C22_4 C 0.8498(2) 0.3698(4) 0.7484(9)
H12_4 H 0.8320 0.3441 0.7493
N13_2 N 0.91574(18) 0.6101(3) 0.1117(7)
C24_4 C 0.8557(2) 0.4005(4) 0.6176(9)
H14_4 H 0.8424 0.3953 0.5328
C25_4 C 0.8814(2) 0.4379(4) 0.6176(8)
C26_4 C 0.9008(2) 0.4457(4) 0.7463(10)
H15_4 H 0.9182 0.4721 0.7490
C27_4 C 0.9134(2) 0.5558(4) 0.0961(10)
C30_4 C 0.9190(3) 0.6270(4) 0.2508(11)
H18_4 H 0.9223 0.6652 0.2667
N15_4 N 0.90929(18) 0.5035(3) 0.4865(8)
N16_3 N 0.88537(19) 0.4713(3) 0.4827(8)
C31_4 C 0.9121(2) 0.5375(3) 0.3531(9)
C32_4 C 0.9113(3) 0.5174(4) 0.2109(10)
H19_3 H 0.9093 0.4791 0.1916
C33_4 C 0.9180(3) 0.5930(5) 0.3750(11)
H20_4 H 0.9213 0.6075 0.4708
O9_4 O 0.97853(13) 0.2151(2) 0.7214(6)
H21_4 H 0.9930 0.2029 0.6544
H22_4 H 0.9585 0.2145 0.6804
H16_4 H 0.9133 0.5418 0.9987
N19_4 N 0.97616(15) 0.7893(2) 0.0319(6)
C40_4 C 0.92452(16) 0.7682(3) 0.0899(8)
C42_4 C 0.95005(17) 0.8065(3) 0.1163(8)
O10_4 O 0.87320(12) 0.7178(2) 0.0841(6)
C54_4 C 0.88904(19) 0.7572(3) 0.1475(8)
O15_4 O 0.98248(12) 0.8835(2) 0.1896(6)
C56_4 C 0.95465(18) 0.8597(3) 0.2042(8)
H17_3 H 0.9907 0.9878 0.2216
N22_4 N 0.96841(14) 0.7435(3) 0.9573(7)
N23_4 N 0.93645(15) 0.7300(3) 0.9896(6)
H5_3 H 0.3328 0.1321 0.9250
H7_3 H 0.2848 0.0805 0.9727
N16_4 N 0.11463(19) 0.9713(3) 0.0173(8)
H19_4 H 0.0907 0.9791 0.3084
N32_4 N 0.88537(19) 0.0287(3) 0.9827(8)
H41_4 H 0.9093 0.0209 0.6916
H31_3 H 0.6672 0.8679 0.0750
H33_3 H 0.7152 0.9195 0.0273
H17_4 H 0.4907 0.0122 0.2784
N18_4 N 0.5081(2) 0.0220(3) 0.0080(8)
H31_4 H 0.8328 0.6321 0.0750
H33_4 H 0.7848 0.5805 0.0273
H5_4 H 0.1672 0.3679 0.9250
H7_4 H 0.2152 0.4195 0.9727
N14_4 N 0.4919(2) 0.9780(3) 0.9920(8)
H26_4 H 0.5093 0.9878 0.7216
loop_
_geom_bond_atom_site_label_1
_geom_bond_atom_site_label_2
_geom_bond_site_symmetry_1
_geom_bond_site_symmetry_2
N13 C27 1_555 1_555
C27 H16 1_555 1_555
C30 N13 1_555 1_555
H18 C30 1_555 1_555
C31 N15 1_555 1_555
C32 C27 1_555 1_555
C33 C30 1_555 1_555
H20 C33 1_555 1_555
Zn10 N13 1_555 1_555
C31 C32 1_555 1_555
C31 C33 1_555 1_555
N3 C10 1_555 1_555
C9 C12 1_555 1_555
C10 H4 1_555 1_555
C11 N3 1_555 1_555
C12 C10 1_555 1_555
H6 C12 1_555 1_555
C13 C9 1_555 1_555
Zn8 N3 1_555 1_555
C9 N10 1_555 1_555
C11 C13 1_555 1_555
Zn3 N2 1_555 1_555
C1 N6 1_555 1_555
N2 C6 1_555 1_555
N6 Zn3 1_555 1_555
N7 Zn1 1_555 1_555
N8 N6 1_555 1_555
C3 C1 1_555 1_555
C5 H1 1_555 1_555
C6 C5 1_555 1_555
H2 C6 1_555 1_555
C7 H3 1_555 1_555
N9 C8 1_555 1_555
C8 C5 1_555 1_555
C14 N2 1_555 1_555
H8 C14 1_555 1_555
O2 Zn3 1_555 1_555
O3 Zn1 1_555 1_555
C15 C3 1_555 1_555
C17 C1 1_555 1_555
O4 C15 1_555 1_555
O5 C17 1_555 1_555
N11 Zn1 1_555 1_555
C19 N11 1_555 1_555
H9 C19 1_555 1_555
C20 N11 1_555 1_555
H10 C20 1_555 1_555
N12 Zn3 1_555 1_555
C21 N12 1_555 1_555
H11 C21 1_555 1_555
C22 N12 1_555 1_555
H12 C22 1_555 1_555
C23 C20 1_555 1_555
H13 C23 1_555 1_555
C24 C22 1_555 1_555
H14 C24 1_555 1_555
C25 C24 1_555 1_555
C26 C21 1_555 1_555
H15 C26 1_555 1_555
C28 C23 1_555 1_555
C29 C19 1_555 1_555
H17 C29 1_555 1_555
O9 Zn1 1_555 1_555
H21 O9 1_555 1_555
H22 O9 1_555 1_555
Zn14 O4 1_555 1_555
O20 Zn3 1_555 1_555
O22 Zn3 1_555 1_555
N7 N8 1_555 1_555
N7 C3 1_555 1_555
C7 C8 1_555 1_555
C7 C14 1_555 1_555
O2 C17 1_555 1_555
O3 C15 1_555 1_555
O5 Zn14 1_555 1_555
C25 C26 1_555 1_555
C28 C29 1_555 1_555
Zn10 N23 1_555 1_555
N22 N19 1_555 1_555
N23 N22 1_555 1_555
C40 N23 1_555 1_555
C42 N19 1_555 1_555
O10 Zn10 1_555 1_555
C54 C40 1_555 1_555
O16 C54 1_555 1_555
C56 C42 1_555 1_555
O17 C56 1_555 1_555
Zn9 O16 1_555 1_555
N34 Zn10 1_555 1_555
O23 Zn10 1_555 1_555
O25 Zn10 1_555 1_555
C40 C42 1_555 1_555
O10 C54 1_555 1_555
O15 C56 1_555 1_555
O17 Zn9 1_555 1_555
Zn2 N5 1_555 1_555
N1 N4 1_555 1_555
N4 N5 1_555 1_555
N5 C2 1_555 1_555
C2 C4 1_555 1_555
C4 N1 1_555 1_555
O1 Zn2 1_555 1_555
C16 C2 1_555 1_555
O7 C16 1_555 1_555
C18 C4 1_555 1_555
O8 C18 1_555 1_555
Zn12 O7 1_555 1_555
N33 Zn2 1_555 1_555
O24 Zn2 1_555 1_555
O26 Zn2 1_555 1_555
N36 Zn2 1_555 1_555
O1 C16 1_555 1_555
O6 C18 1_555 1_555
O8 Zn12 1_555 1_555
N17 C34 1_555 1_555
C34 H23 1_555 1_555
C35 N17 1_555 1_555
H24 C35 1_555 1_555
C36 C35 1_555 1_555
H25 C36 1_555 1_555
C37 C36 1_555 1_555
C38 C34 1_555 1_555
H26 C38 1_555 1_555
Zn4 N17 1_555 1_555
Zn6 N20 1_555 1_555
C39 N24 1_555 1_555
N20 C44 1_555 1_555
N24 Zn6 1_555 1_555
N25 Zn4 1_555 1_555
N26 N24 1_555 1_555
C41 C39 1_555 1_555
C43 H27 1_555 1_555
C44 C43 1_555 1_555
H28 C44 1_555 1_555
C45 H29 1_555 1_555
N27 C46 1_555 1_555
C46 C43 1_555 1_555
C52 N20 1_555 1_555
H34 C52 1_555 1_555
O11 Zn6 1_555 1_555
O12 Zn4 1_555 1_555
C53 C41 1_555 1_555
C55 C39 1_555 1_555
O13 C53 1_555 1_555
O14 C55 1_555 1_555
N29 Zn6 1_555 1_555
C57 N29 1_555 1_555
H35 C57 1_555 1_555
C58 N29 1_555 1_555
H36 C58 1_555 1_555
C59 C58 1_555 1_555
H37 C59 1_555 1_555
C60 C59 1_555 1_555
C61 C57 1_555 1_555
H38 C61 1_555 1_555
O18 Zn4 1_555 1_555
H43 O18 1_555 1_555
H44 O18 1_555 1_555
Zn13 O13 1_555 1_555
O19 Zn6 1_555 1_555
O21 Zn6 1_555 1_555
C37 C38 1_555 1_555
N25 N26 1_555 1_555
N25 C41 1_555 1_555
C45 C46 1_555 1_555
C45 C52 1_555 1_555
O11 C55 1_555 1_555
O12 C53 1_555 1_555
O14 Zn13 1_555 1_555
C60 C61 1_555 1_555
N21 C48 1_555 1_555
C47 C50 1_555 1_555
C48 H30 1_555 1_555
C49 N21 1_555 1_555
C50 C48 1_555 1_555
H32 C50 1_555 1_555
C51 C47 1_555 1_555
Zn11 N21 1_555 1_555
C47 N28 1_555 1_555
C49 C51 1_555 1_555
N36 C62 1_555 1_555
C62 H39 1_555 1_555
C63 N36 1_555 1_555
H40 C63 1_555 1_555
C64 N31 1_555 1_555
C65 C62 1_555 1_555
C66 C63 1_555 1_555
H42 C66 1_555 1_555
C64 C65 1_555 1_555
C64 C66 1_555 1_555
N17_2 C34_2 1_555 1_555
C34_2 H23_2 1_555 1_555
C35_2 N17_2 1_555 1_555
H24_2 C35_2 1_555 1_555
C36_2 C35_2 1_555 1_555
H25_2 C36_2 1_555 1_555
C37_2 C36_2 1_555 1_555
C38_2 C34_2 1_555 1_555
Zn4_2 N17_2 1_555 1_555
Zn5 N23_2 1_555 1_555
Zn6_2 N20_2 1_555 1_555
C39_2 N24_2 1_555 1_555
N19_2 Zn4_2 1_555 1_555
N20_2 C44_2 1_555 1_555
N21_2 C48_2 1_555 1_555
N22_2 N19_2 1_555 1_555
N23_2 N22_2 1_555 1_555
N24_2 Zn6_2 1_555 1_555
N25_2 Zn4_2 1_555 1_555
N26_2 N24_2 1_555 1_555
C40_2 N23_2 1_555 1_555
C41_2 C39_2 1_555 1_555
C42_2 N19_2 1_555 1_555
C43_2 H27_2 1_555 1_555
C44_2 C43_2 1_555 1_555
H28_2 C44_2 1_555 1_555
C45_2 H29_2 1_555 1_555
N27_2 C46_2 1_555 1_555
C46_2 C43_2 1_555 1_555
C47_2 C50_2 1_555 1_555
C48_2 H30_2 1_555 1_555
C49_2 N21_2 1_555 1_555
C50_2 C48_2 1_555 1_555
H32_2 C50_2 1_555 1_555
N28_2 N27_2 1_555 1_555
C51_2 C47_2 1_555 1_555
C52_2 N20_2 1_555 1_555
H34_2 C52_2 1_555 1_555
O10_2 Zn5 1_555 1_555
O11_2 Zn6_2 1_555 1_555
O12_2 Zn4_2 1_555 1_555
C53_2 C41_2 1_555 1_555
C54_2 C40_2 1_555 1_555
C55_2 C39_2 1_555 1_555
O13_2 C53_2 1_555 1_555
O14_2 C55_2 1_555 1_555
O15_2 Zn4_2 1_555 1_555
O16_2 C54_2 1_555 1_555
C56_2 C42_2 1_555 1_555
O17_2 C56_2 1_555 1_555
N29_2 Zn6_2 1_555 1_555
C57_2 N29_2 1_555 1_555
H35_2 C57_2 1_555 1_555
C58_2 N29_2 1_555 1_555
H36_2 C58_2 1_555 1_555
C59_2 C58_2 1_555 1_555
H37_2 C59_2 1_555 1_555
C60_2 C59_2 1_555 1_555
C61_2 C57_2 1_555 1_555
H38_2 C61_2 1_555 1_555
O18_2 Zn4_2 1_555 1_555
H43_2 O18_2 1_555 1_555
H44_2 O18_2 1_555 1_555
Zn8 O16_2 1_555 1_555
Zn12 N21_2 1_555 1_555
Zn13_2 O13_2 1_555 1_555
N34_2 Zn5 1_555 1_555
O19_2 Zn6_2 1_555 1_555
O21_2 Zn6_2 1_555 1_555
O23_2 Zn5 1_555 1_555
O25_2 Zn5 1_555 1_555
N35 Zn5 1_555 1_555
C37_2 C38_2 1_555 1_555
N25_2 N26_2 1_555 1_555
N25_2 C41_2 1_555 1_555
C40_2 C42_2 1_555 1_555
C45_2 C46_2 1_555 1_555
C45_2 C52_2 1_555 1_555
C47_2 N28_2 1_555 1_555
C49_2 C51_2 1_555 1_555
O10_2 C54_2 1_555 1_555
O11_2 C55_2 1_555 1_555
O12_2 C53_2 1_555 1_555
O14_2 Zn13_2 1_555 1_555
O15_2 C56_2 1_555 1_555
O17_2 Zn8 1_555 1_555
C60_2 C61_2 1_555 1_555
N30 C62_2 1_555 1_555
C62_2 H39_2 1_555 1_555
C63_2 N30 1_555 1_555
H40_2 C63_2 1_555 1_555
N31_2 N32 1_555 1_555
C64_2 N31_2 1_555 1_555
C65_2 C62_2 1_555 1_555
H41 C65_2 1_555 1_555
C66_2 C63_2 1_555 1_555
H42_2 C66_2 1_555 1_555
Zn7 N30 1_555 1_555
C64_2 C65_2 1_555 1_555
C64_2 C66_2 1_555 1_555
N35 C27_2 1_555 1_555
C27_2 H16_2 1_555 1_555
C30_2 N35 1_555 1_555
H18_2 C30_2 1_555 1_555
N15_2 N16 1_555 1_555
C31_2 N15_2 1_555 1_555
C32_2 C27_2 1_555 1_555
H19 C32_2 1_555 1_555
C33_2 C30_2 1_555 1_555
H20_2 C33_2 1_555 1_555
C31_2 C32_2 1_555 1_555
C31_2 C33_2 1_555 1_555
Zn1_2 N1_2 1_555 1_555
Zn7 N5_2 1_555 1_555
Zn3_2 N2_2 1_555 1_555
C1_2 N6_2 1_555 1_555
N1_2 N4_2 1_555 1_555
N2_2 C6_2 1_555 1_555
N3_2 C10_2 1_555 1_555
N4_2 N5_2 1_555 1_555
N5_2 C2_2 1_555 1_555
N6_2 Zn3_2 1_555 1_555
N7_2 Zn1_2 1_555 1_555
N8_2 N6_2 1_555 1_555
C2_2 C4_2 1_555 1_555
C3_2 C1_2 1_555 1_555
C4_2 N1_2 1_555 1_555
C5_2 H1_2 1_555 1_555
C6_2 C5_2 1_555 1_555
H2_2 C6_2 1_555 1_555
C7_2 H3_2 1_555 1_555
N9_2 C8_2 1_555 1_555
C8_2 C5_2 1_555 1_555
C9_2 C12_2 1_555 1_555
C10_2 H4_2 1_555 1_555
C11_2 N3_2 1_555 1_555
C12_2 C10_2 1_555 1_555
H6_2 C12_2 1_555 1_555
N10_2 N9_2 1_555 1_555
C13_2 C9_2 1_555 1_555
C14_2 N2_2 1_555 1_555
H8_2 C14_2 1_555 1_555
O1_2 Zn7 1_555 1_555
O2_2 Zn3_2 1_555 1_555
O3_2 Zn1_2 1_555 1_555
C15_2 C3_2 1_555 1_555
C16_2 C2_2 1_555 1_555
C17_2 C1_2 1_555 1_555
O4_2 C15_2 1_555 1_555
O5_2 C17_2 1_555 1_555
O6_2 Zn1_2 1_555 1_555
O7_2 C16_2 1_555 1_555
C18_2 C4_2 1_555 1_555
O8_2 C18_2 1_555 1_555
N11_2 Zn1_2 1_555 1_555
C19_2 N11_2 1_555 1_555
H9_2 C19_2 1_555 1_555
C20_2 N11_2 1_555 1_555
H10_2 C20_2 1_555 1_555
N12_2 Zn3_2 1_555 1_555
C21_2 N12_2 1_555 1_555
H11_2 C21_2 1_555 1_555
C22_2 N12_2 1_555 1_555
H12_2 C22_2 1_555 1_555
C23_2 C20_2 1_555 1_555
H13_2 C23_2 1_555 1_555
C24_2 C22_2 1_555 1_555
H14_2 C24_2 1_555 1_555
C25_2 C24_2 1_555 1_555
C26_2 C21_2 1_555 1_555
H15_2 C26_2 1_555 1_555
C28_2 C23_2 1_555 1_555
C29_2 C19_2 1_555 1_555
O9_2 Zn1_2 1_555 1_555
H21_2 O9_2 1_555 1_555
H22_2 O9_2 1_555 1_555
Zn9 N3_2 1_555 1_555
Zn11 O7_2 1_555 1_555
Zn14_2 O4_2 1_555 1_555
N33_2 Zn7 1_555 1_555
O20_2 Zn3_2 1_555 1_555
O22_2 Zn3_2 1_555 1_555
O24_2 Zn7 1_555 1_555
O26_2 Zn7 1_555 1_555
N7_2 N8_2 1_555 1_555
N7_2 C3_2 1_555 1_555
C7_2 C8_2 1_555 1_555
C7_2 C14_2 1_555 1_555
C9_2 N10_2 1_555 1_555
C11_2 C13_2 1_555 1_555
O1_2 C16_2 1_555 1_555
O2_2 C17_2 1_555 1_555
O3_2 C15_2 1_555 1_555
O5_2 Zn14_2 1_555 1_555
O6_2 C18_2 1_555 1_555
O8_2 Zn11 1_555 1_555
C25_2 C26_2 1_555 1_555
C28_2 C29_2 1_555 1_555
N30_2 C62_3 1_555 1_555
C63_3 N30_2 1_555 1_555
H40_3 C63_3 1_555 1_555
C64_3 N31_3 1_555 1_555
C65_3 C62_3 1_555 1_555
C66_3 C63_3 1_555 1_555
H42_3 C66_3 1_555 1_555
C64_3 C65_3 1_555 1_555
C64_3 C66_3 1_555 1_555
N34 C48_3 1_555 1_555
C47_3 C50_3 1_555 1_555
C48_3 H30_3 1_555 1_555
C49_3 N34 1_555 1_555
H31 C49_3 1_555 1_555
C50_3 C48_3 1_555 1_555
H32_3 C50_3 1_555 1_555
C51_3 C47_3 1_555 1_555
H33 C51_3 1_555 1_555
C47_3 N28_3 1_555 1_555
C49_3 C51_3 1_555 1_555
N19_3 Zn4_3 1_555 1_555
N25_3 Zn4_3 1_555 1_555
C41_3 C39_3 1_555 1_555
C42_3 N19_3 1_555 1_555
O12_3 Zn4_3 1_555 1_555
C53_3 C41_3 1_555 1_555
C54_3 C40_3 1_555 1_555
C55_3 C39_3 1_555 1_555
O20_2 C53_3 1_555 1_555
O22_2 C55_3 1_555 1_555
O15_3 Zn4_3 1_555 1_555
O24_2 C54_3 1_555 1_555
C56_3 C42_3 1_555 1_555
O26_2 C56_3 1_555 1_555
C57_3 N29_3 1_555 1_555
H35_3 C57_3 1_555 1_555
C58_3 N29_3 1_555 1_555
H36_3 C58_3 1_555 1_555
C59_3 C58_3 1_555 1_555
H37_3 C59_3 1_555 1_555
C60_3 C59_3 1_555 1_555
C61_3 C57_3 1_555 1_555
H38_3 C61_3 1_555 1_555
N32_2 C60_3 1_555 1_555
O18_3 Zn4_3 1_555 1_555
H43_3 O18_3 1_555 1_555
H44_3 O18_3 1_555 1_555
N25_3 C41_3 1_555 1_555
C40_3 C42_3 1_555 1_555
O10_3 C54_3 1_555 1_555
O11_3 C55_3 1_555 1_555
O12_3 C53_3 1_555 1_555
O15_3 C56_3 1_555 1_555
C60_3 C61_3 1_555 1_555
Zn8 N5_3 1_555 1_555
Zn13_2 N2_3 1_555 1_555
N2_3 C6_3 1_555 1_555
N4_3 N5_3 1_555 1_555
N6_3 Zn13_2 1_555 1_555
N8_3 N6_3 1_555 1_555
C5_3 H1_3 1_555 1_555
C6_3 C5_3 1_555 1_555
C7_3 H3_3 1_555 1_555
N9_3 C8_3 1_555 1_555
C8_3 C5_3 1_555 1_555
C14_3 N2_3 1_555 1_555
H8_3 C14_3 1_555 1_555
C19_3 N11_3 1_555 1_555
H9_3 C19_3 1_555 1_555
C20_3 N11_3 1_555 1_555
H10_3 C20_3 1_555 1_555
C23_3 C20_3 1_555 1_555
H13_3 C23_3 1_555 1_555
N14_2 C28_3 1_555 1_555
C28_3 C23_3 1_555 1_555
C29_3 C19_3 1_555 1_555
H17_2 C29_3 1_555 1_555
N17_3 C34_3 1_555 1_555
C34_3 H23_3 1_555 1_555
C35_3 N17_3 1_555 1_555
H24_3 C35_3 1_555 1_555
C36_3 C35_3 1_555 1_555
H25_3 C36_3 1_555 1_555
N18_2 N14_2 1_555 1_555
C37_3 C36_3 1_555 1_555
C38_3 C34_3 1_555 1_555
H26_2 C38_3 1_555 1_555
Zn11 N23_3 1_555 1_555
Zn14_2 N20_3 1_555 1_555
N20_3 C44_3 1_555 1_555
N23_3 N22_3 1_555 1_555
N24_3 Zn14_2 1_555 1_555
N26_3 N24_3 1_555 1_555
C43_3 H27_3 1_555 1_555
C44_3 C43_3 1_555 1_555
C45_3 H29_3 1_555 1_555
N27_3 C46_3 1_555 1_555
C46_3 C43_3 1_555 1_555
C52_3 N20_3 1_555 1_555
H34_3 C52_3 1_555 1_555
C7_3 C8_3 1_555 1_555
C7_3 C14_3 1_555 1_555
C28_3 C29_3 1_555 1_555
N18_2 C37_3 1_555 1_555
C37_3 C38_3 1_555 1_555
C45_3 C46_3 1_555 1_555
C45_3 C52_3 1_555 1_555
Zn1_3 N1_3 1_555 1_555
N7_3 Zn1_3 1_555 1_555
C2_3 C4_3 1_555 1_555
C3_3 C1_3 1_555 1_555
C4_3 N1_3 1_555 1_555
O3_3 Zn1_3 1_555 1_555
C15_3 C3_3 1_555 1_555
C16_3 C2_3 1_555 1_555
C17_3 C1_3 1_555 1_555
O19_2 C15_3 1_555 1_555
O21_2 C17_3 1_555 1_555
O6_3 Zn1_3 1_555 1_555
O23_2 C16_3 1_555 1_555
C18_3 C4_3 1_555 1_555
O25_2 C18_3 1_555 1_555
C21_3 N12_3 1_555 1_555
H11_3 C21_3 1_555 1_555
C22_3 N12_3 1_555 1_555
H12_3 C22_3 1_555 1_555
C24_3 C22_3 1_555 1_555
H14_3 C24_3 1_555 1_555
C25_3 C24_3 1_555 1_555
C26_3 C21_3 1_555 1_555
H15_3 C26_3 1_555 1_555
N16_2 C25_3 1_555 1_555
O9_3 Zn1_3 1_555 1_555
H21_3 O9_3 1_555 1_555
H22_3 O9_3 1_555 1_555
N7_3 C3_3 1_555 1_555
O1_3 C16_3 1_555 1_555
O2_3 C17_3 1_555 1_555
O3_3 C15_3 1_555 1_555
O6_3 C18_3 1_555 1_555
C25_3 C26_3 1_555 1_555
N33 C10_3 1_555 1_555
C9_3 C12_3 1_555 1_555
C10_3 H4_3 1_555 1_555
C11_3 N33 1_555 1_555
H5 C11_3 1_555 1_555
C12_3 C10_3 1_555 1_555
H6_3 C12_3 1_555 1_555
C13_3 C9_3 1_555 1_555
H7 C13_3 1_555 1_555
C9_3 N10_3 1_555 1_555
C11_3 C13_3 1_555 1_555
N35_2 C27_3 1_555 1_555
C30_3 N35_2 1_555 1_555
H18_3 C30_3 1_555 1_555
C31_3 N15_3 1_555 1_555
C32_3 C27_3 1_555 1_555
C33_3 C30_3 1_555 1_555
H20_3 C33_3 1_555 1_555
C31_3 C32_3 1_555 1_555
C31_3 C33_3 1_555 1_555
Zn9 N5_4 1_555 1_555
N4_4 N5_4 1_555 1_555
C2_4 C4_4 1_555 1_555
C4_4 N1_4 1_555 1_555
C16_4 C2_4 1_555 1_555
O23 C16_4 1_555 1_555
C18_4 C4_4 1_555 1_555
O25 C18_4 1_555 1_555
O1_4 C16_4 1_555 1_555
O6_4 C18_4 1_555 1_555
N25_4 Zn4_4 1_555 1_555
C41_4 C39_4 1_555 1_555
O12_4 Zn4_4 1_555 1_555
C53_4 C41_4 1_555 1_555
C55_4 C39_4 1_555 1_555
O20 C53_4 1_555 1_555
O22 C55_4 1_555 1_555
C57_4 N29_4 1_555 1_555
H35_4 C57_4 1_555 1_555
C58_4 N29_4 1_555 1_555
H36_4 C58_4 1_555 1_555
N36_2 C62_4 1_555 1_555
C59_4 C58_4 1_555 1_555
H37_4 C59_4 1_555 1_555
C60_4 C59_4 1_555 1_555
C61_4 C57_4 1_555 1_555
H38_4 C61_4 1_555 1_555
C63_4 N36_2 1_555 1_555
H40_4 C63_4 1_555 1_555
N31_4 N32_3 1_555 1_555
N32_3 C60_4 1_555 1_555
C64_4 N31_4 1_555 1_555
C65_4 C62_4 1_555 1_555
H41_3 C65_4 1_555 1_555
C66_4 C63_4 1_555 1_555
H42_4 C66_4 1_555 1_555
O18_4 Zn4_4 1_555 1_555
H43_4 O18_4 1_555 1_555
H44_4 O18_4 1_555 1_555
N25_4 C41_4 1_555 1_555
O11_4 C55_4 1_555 1_555
O12_4 C53_4 1_555 1_555
C60_4 C61_4 1_555 1_555
C64_4 C65_4 1_555 1_555
C64_4 C66_4 1_555 1_555
N17_4 C34_4 1_555 1_555
C34_4 H23_4 1_555 1_555
C35_4 N17_4 1_555 1_555
H24_4 C35_4 1_555 1_555
C36_4 C35_4 1_555 1_555
H25_4 C36_4 1_555 1_555
C37_4 C36_4 1_555 1_555
C38_4 C34_4 1_555 1_555
Zn14 N20_4 1_555 1_555
N20_4 C44_4 1_555 1_555
N34_2 C48_4 1_555 1_555
N24_4 Zn14 1_555 1_555
N26_4 N24_4 1_555 1_555
C43_4 H27_4 1_555 1_555
C44_4 C43_4 1_555 1_555
C45_4 H29_4 1_555 1_555
N27_4 C46_4 1_555 1_555
C46_4 C43_4 1_555 1_555
C47_4 C50_4 1_555 1_555
C48_4 H30_4 1_555 1_555
C49_4 N34_2 1_555 1_555
H31_2 C49_4 1_555 1_555
C50_4 C48_4 1_555 1_555
H32_4 C50_4 1_555 1_555
N28_4 N27_4 1_555 1_555
C51_4 C47_4 1_555 1_555
H33_2 C51_4 1_555 1_555
C52_4 N20_4 1_555 1_555
H34_4 C52_4 1_555 1_555
N18_3 C37_4 1_555 1_555
C37_4 C38_4 1_555 1_555
C45_4 C46_4 1_555 1_555
C45_4 C52_4 1_555 1_555
C47_4 N28_4 1_555 1_555
C49_4 C51_4 1_555 1_555
Zn13 N2_4 1_555 1_555
N2_4 C6_4 1_555 1_555
N33_2 C10_4 1_555 1_555
N6_4 Zn13 1_555 1_555
N8_4 N6_4 1_555 1_555
C5_4 H1_4 1_555 1_555
C6_4 C5_4 1_555 1_555
C7_4 H3_4 1_555 1_555
N9_4 C8_4 1_555 1_555
C8_4 C5_4 1_555 1_555
C9_4 C12_4 1_555 1_555
C10_4 H4_4 1_555 1_555
C11_4 N33_2 1_555 1_555
H5_2 C11_4 1_555 1_555
C12_4 C10_4 1_555 1_555
H6_4 C12_4 1_555 1_555
N10_4 N9_4 1_555 1_555
C13_4 C9_4 1_555 1_555
H7_2 C13_4 1_555 1_555
C14_4 N2_4 1_555 1_555
H8_4 C14_4 1_555 1_555
C19_4 N11_4 1_555 1_555
H9_4 C19_4 1_555 1_555
C20_4 N11_4 1_555 1_555
H10_4 C20_4 1_555 1_555
C23_4 C20_4 1_555 1_555
H13_4 C23_4 1_555 1_555
N14_3 C28_4 1_555 1_555
C28_4 C23_4 1_555 1_555
C29_4 C19_4 1_555 1_555
C7_4 C8_4 1_555 1_555
C7_4 C14_4 1_555 1_555
C9_4 N10_4 1_555 1_555
C11_4 C13_4 1_555 1_555
C28_4 C29_4 1_555 1_555
N7_4 Zn1_4 1_555 1_555
C3_4 C1_4 1_555 1_555
O3_4 Zn1_4 1_555 1_555
C15_4 C3_4 1_555 1_555
C17_4 C1_4 1_555 1_555
O19 C15_4 1_555 1_555
O21 C17_4 1_555 1_555
C21_4 N12_4 1_555 1_555
H11_4 C21_4 1_555 1_555
C22_4 N12_4 1_555 1_555
H12_4 C22_4 1_555 1_555
N13_2 C27_4 1_555 1_555
C24_4 C22_4 1_555 1_555
H14_4 C24_4 1_555 1_555
C25_4 C24_4 1_555 1_555
C26_4 C21_4 1_555 1_555
H15_4 C26_4 1_555 1_555
C30_4 N13_2 1_555 1_555
H18_4 C30_4 1_555 1_555
N15_4 N16_3 1_555 1_555
N16_3 C25_4 1_555 1_555
C31_4 N15_4 1_555 1_555
C32_4 C27_4 1_555 1_555
H19_3 C32_4 1_555 1_555
C33_4 C30_4 1_555 1_555
H20_4 C33_4 1_555 1_555
O9_4 Zn1_4 1_555 1_555
H21_4 O9_4 1_555 1_555
H22_4 O9_4 1_555 1_555
N7_4 C3_4 1_555 1_555
O2_4 C17_4 1_555 1_555
O3_4 C15_4 1_555 1_555
C25_4 C26_4 1_555 1_555
C31_4 C32_4 1_555 1_555
C31_4 C33_4 1_555 1_555
C42_4 N19_4 1_555 1_555
C54_4 C40_4 1_555 1_555
O24 C54_4 1_555 1_555
C56_4 C42_4 1_555 1_555
O26 C56_4 1_555 1_555
C40_4 C42_4 1_555 1_555
O10_4 C54_4 1_555 1_555
O15_4 C56_4 1_555 1_555
Zn12 N23_4 1_555 1_555
N23_4 N22_4 1_555 1_555

#END
