
###############################################################################
#
# This file contains modified crystal structure data generated from the
# MOF subset of the Cambridge Structural Database (CSD) v543 
# hosted by the Cambridge Crystallographic Data Centre (CCDC).
#
# This work is licensed under the Creative Commons
# Attribution-NonCommercial-ShareAlike 4.0 International License.
# To view a copy of this license, visit
# http://creativecommons.org/licenses/by-nc-sa/4.0/
# or send a letter to
# Creative Commons, PO Box 1866, Mountain View, CA 94042, USA.
#
# CIF created using the CSD Python API on 29 September 2022
# The structure has been converted into the P1 space group
# The structure has a 3D framework
# The original CSD entry REYPIW is in the triclinic crystal system
# The framework has been calculated to contain at least 10.0% void space
# The void calculation uses a probe of radius 1.32A, grid spacing 0.4
#
###############################################################################

data_REYPIW
_chemical_formula_moiety         '(C38 H24 N12 O8 Zn11)n'
_symmetry_cell_setting           triclinic
_symmetry_space_group_name_H-M   'P 1'
_symmetry_Int_Tables_number      1
_space_group_name_Hall           'P 1'
loop_
_symmetry_equiv_pos_site_id
_symmetry_equiv_pos_as_xyz
1 x,y,z
_cell_length_a                   11.4581(4)
_cell_length_b                   11.6819(4)
_cell_length_c                   11.8696(6)
_cell_angle_alpha                64.132(4)
_cell_angle_beta                 81.202(4)
_cell_angle_gamma                72.663(3)
_cell_volume                     1364.15
loop_
_atom_site_label
_atom_site_type_symbol
_atom_site_fract_x
_atom_site_fract_y
_atom_site_fract_z
Zn8 Zn 0.0000 0.0000 0.0000
Zn8_2 Zn -0.0000 0.0000 1.0000
Zn6 Zn -0.0000 0.5000 0.5000
Zn8_3 Zn -0.0000 1.0000 0.0000
Zn8_4 Zn -0.0000 1.0000 1.0000
Zn1 Zn -0.0000 0.0000 0.5000
H1 H 0.2202 0.0007 0.3120
Zn8_5 Zn 1.0000 0.0000 0.0000
O9 O 0.0836(3) 0.1549(3) 0.4496(3)
C17 C 0.2205(5) 0.1087(6) 0.9848(6)
H10 H 0.1589 0.1863 0.9684
C18 C 0.3391(5) 0.1134(6) 0.9817(6)
H11 H 0.3561 0.1923 0.9653
N7 N 0.8113(4) 0.0014(4) 0.9898(4)
C20 C 0.5656(5) 0.0006(5) 0.9967(5)
C21 C 0.5992(5) 0.1152(6) 0.9684(6)
H13 H 0.5396 0.1944 0.9514
C24 C 0.7203(6) 0.1117(6) 0.9655(6)
H16 H 0.7404 0.1900 0.9457
Zn8_6 Zn 1.0000 0.0000 1.0000
Zn1_2 Zn -0.0000 1.0000 0.5000
N1 N 0.0032(3) 0.6760(4) 0.3495(4)
N2 N 0.1732(3) 0.8758(4) 0.4749(4)
N3 N 0.7996(4) 0.5441(4) 0.4828(4)
N4 N 0.0234(4) 0.7171(4) 0.2265(4)
C1 C 0.2492(4) 0.9194(5) 0.3777(5)
N5 N 0.0093(4) 0.8463(4) 0.1775(4)
C4 C 0.5467(4) 0.6563(5) 0.4725(5)
C5 C 0.3343(4) 0.6804(5) 0.5670(5)
H2 H 0.3599 0.5981 0.6326
C6 C 0.3687(4) 0.8494(5) 0.3702(5)
H3 H 0.4181 0.8829 0.3004
C7 C 0.7442(4) 0.6158(5) 0.3734(5)
H4 H 0.7916 0.6278 0.3002
N6 N 0.1887(4) 0.9986(4) 0.0102(4)
C10 C 0.4146(4) 0.7276(5) 0.4686(5)
C11 C 0.2160(4) 0.7567(5) 0.5669(5)
H5 H 0.1636 0.7238 0.6338
C12 C 0.6188(5) 0.6736(5) 0.3634(5)
H6 H 0.5837 0.7229 0.2852
C13 C 0.6037(4) 0.5761(5) 0.5861(5)
H7 H 0.5583 0.5581 0.6609
C14 C 0.7291(5) 0.5231(5) 0.5868(5)
H8 H 0.7662 0.4702 0.6637
C15 C 0.4344(5) 0.9994(5) 0.0033(5)
C16 C 0.4008(5) 0.8848(6) 0.0316(6)
H9 H 0.4604 0.8056 0.0486
C19 C 0.2797(6) 0.8883(6) 0.0345(6)
H12 H 0.2596 0.8100 0.0543
C22 C 0.7795(5) 0.8913(6) 0.0152(6)
H14 H 0.8411 0.8137 0.0316
C23 C 0.6609(5) 0.8866(6) 0.0183(6)
H15 H 0.6439 0.8077 0.0347
O6 O 0.0437(3) 0.3672(3) 0.4115(3)
C25 C 0.0233(4) 0.2205(5) 0.6195(5)
C27 C 0.0515(4) 0.2476(5) 0.4839(4)
C28 C 0.0196(4) 0.1113(5) 0.7298(4)
Zn6_2 Zn 1.0000 0.5000 0.5000
Zn8_7 Zn 1.0000 1.0000 0.0000
O10 O 0.0436(3) 0.9222(3) 0.6883(3)
N14 N 0.2004(4) 0.4559(4) 0.5172(4)
Zn8_8 Zn 1.0000 1.0000 1.0000
O11 O 0.0521(4) 0.8957(3) 0.8835(3)
C26 C 0.0396(4) 0.9668(5) 0.7666(4)
Zn1_3 Zn 1.0000 0.0000 0.5000
O3 O 0.9564(3) 0.0778(3) 0.3117(3)
O4 O 0.9479(4) 0.1043(3) 0.1165(3)
C3 C 0.9604(4) 0.0332(5) 0.2334(4)
N11 N 0.8268(3) 0.1242(4) 0.5251(4)
C29 C 0.7508(4) 0.0806(5) 0.6223(5)
C30 C 0.4533(4) 0.3437(5) 0.5275(5)
C31 C 0.6657(4) 0.3196(5) 0.4330(5)
H18 H 0.6401 0.4019 0.3674
C32 C 0.6313(4) 0.1506(5) 0.6298(5)
H19 H 0.5819 0.1171 0.6996
C33 C 0.2558(4) 0.3842(5) 0.6266(5)
H20 H 0.2084 0.3722 0.6998
C34 C 0.5854(4) 0.2724(5) 0.5314(5)
C35 C 0.7840(4) 0.2433(5) 0.4331(5)
H21 H 0.8364 0.2762 0.3662
C36 C 0.3812(5) 0.3264(5) 0.6366(5)
H22 H 0.4163 0.2771 0.7148
C37 C 0.3963(4) 0.4239(5) 0.4139(5)
H23 H 0.4417 0.4419 0.3391
C38 C 0.2709(5) 0.4769(5) 0.4132(5)
H24 H 0.2338 0.5298 0.3363
N15 N 0.9907(4) 0.1537(4) 0.8225(4)
Zn1_4 Zn 1.0000 1.0000 0.5000
O1 O 0.9164(3) 0.8451(3) 0.5504(3)
O2 O 0.9563(3) 0.6328(3) 0.5885(3)
C2 C 0.9767(4) 0.7795(5) 0.3805(5)
C8 C 0.9485(4) 0.7524(5) 0.5161(4)
C9 C 0.9804(4) 0.8887(5) 0.2702(4)
N8 N 0.9968(3) 0.3240(4) 0.6505(4)
N9 N 0.9766(4) 0.2829(4) 0.7735(4)
H17 H 0.7798 0.9993 0.6880
loop_
_geom_bond_atom_site_label_1
_geom_bond_atom_site_label_2
_geom_bond_site_symmetry_1
_geom_bond_site_symmetry_2
O9 Zn1 1_555 1_555
H10 C17 1_555 1_555
H11 C18 1_555 1_555
C21 C20 1_555 1_555
H13 C21 1_555 1_555
C24 N7 1_555 1_555
H16 C24 1_555 1_555
Zn8_6 N7 1_555 1_555
C17 C18 1_555 1_555
C21 C24 1_555 1_555
N1 Zn6 1_555 1_555
N2 Zn1_2 1_555 1_555
N3 C7 1_555 1_555
N4 N1 1_555 1_555
C1 N2 1_555 1_555
N5 Zn8_3 1_555 1_555
C4 C10 1_555 1_555
C5 H2 1_555 1_555
C6 C1 1_555 1_555
H3 C6 1_555 1_555
C7 H4 1_555 1_555
N6 Zn8_3 1_555 1_555
C10 C5 1_555 1_555
C11 N2 1_555 1_555
H5 C11 1_555 1_555
C12 C4 1_555 1_555
H6 C12 1_555 1_555
C13 C4 1_555 1_555
H7 C13 1_555 1_555
C14 N3 1_555 1_555
H8 C14 1_555 1_555
C15 C16 1_555 1_555
C16 H9 1_555 1_555
C19 N6 1_555 1_555
H12 C19 1_555 1_555
C22 H14 1_555 1_555
H15 C23 1_555 1_555
O9 C27 1_555 1_555
O6 Zn6 1_555 1_555
C27 O6 1_555 1_555
C28 C25 1_555 1_555
Zn6_2 N3 1_555 1_555
O10 Zn1_2 1_555 1_555
N14 Zn6 1_555 1_555
N4 N5 1_555 1_555
C5 C11 1_555 1_555
C6 C10 1_555 1_555
C7 C12 1_555 1_555
C13 C14 1_555 1_555
C16 C19 1_555 1_555
C22 C23 1_555 1_555
C25 C27 1_555 1_555
O11 Zn8_4 1_555 1_555
O10 C26 1_555 1_555
O11 C26 1_555 1_555
Zn8_5 O4 1_555 1_555
O3 Zn1_3 1_555 1_555
O4 C3 1_555 1_555
C3 O3 1_555 1_555
N11 Zn1_3 1_555 1_555
N14 C33 1_555 1_555
C29 N11 1_555 1_555
C30 C34 1_555 1_555
C31 H18 1_555 1_555
C32 C29 1_555 1_555
H19 C32 1_555 1_555
C33 H20 1_555 1_555
C34 C31 1_555 1_555
C35 N11 1_555 1_555
H21 C35 1_555 1_555
C36 C30 1_555 1_555
H22 C36 1_555 1_555
C37 C30 1_555 1_555
H23 C37 1_555 1_555
C38 N14 1_555 1_555
H24 C38 1_555 1_555
C31 C35 1_555 1_555
C32 C34 1_555 1_555
C33 C36 1_555 1_555
C37 C38 1_555 1_555
N15 Zn8_6 1_555 1_555
Zn1_4 O1 1_555 1_555
Zn6_2 O2 1_555 1_555
O1 C8 1_555 1_555
O2 C8 1_555 1_555
C8 C2 1_555 1_555
C9 C2 1_555 1_555
N8 Zn6_2 1_555 1_555
N9 N8 1_555 1_555
N15 N9 1_555 1_555

#END
