
###############################################################################
#
# This file contains modified crystal structure data generated from the
# MOF subset of the Cambridge Structural Database (CSD) v543 
# hosted by the Cambridge Crystallographic Data Centre (CCDC).
#
# This work is licensed under the Creative Commons
# Attribution-NonCommercial-ShareAlike 4.0 International License.
# To view a copy of this license, visit
# http://creativecommons.org/licenses/by-nc-sa/4.0/
# or send a letter to
# Creative Commons, PO Box 1866, Mountain View, CA 94042, USA.
#
# CIF created using the CSD Python API on 29 September 2022
# The structure has been converted into the P1 space group
# The structure has a 3D framework
# The original CSD entry REZBEG is in the trigonal crystal system
# The framework has been calculated to contain at least 10.0% void space
# The void calculation uses a probe of radius 1.32A, grid spacing 0.4
# The framework is charged, counterions have been retained in the structure
#
###############################################################################

data_REZBEG
_chemical_formula_moiety         '(C12 H12 Cr7 Mn1 O20)n'
_symmetry_cell_setting           triclinic
_symmetry_space_group_name_H-M   'P 1'
_symmetry_Int_Tables_number      1
_space_group_name_Hall           'P 1'
loop_
_symmetry_equiv_pos_site_id
_symmetry_equiv_pos_as_xyz
1 x,y,z
_cell_length_a                   8.2675(3)
_cell_length_b                   8.2675(3)
_cell_length_c                   14.0576(5)
_cell_angle_alpha                90
_cell_angle_beta                 90
_cell_angle_gamma                120
_cell_volume                     832.128
loop_
_atom_site_label
_atom_site_type_symbol
_atom_site_fract_x
_atom_site_fract_y
_atom_site_fract_z
Cr2 Cr -0.0000 -0.0000 0.0000
Cr1 Cr -0.0000 -0.0000 0.5000
Mn1 Mn 0.3333 0.6667 0.7500
O1 O 0.20337(13) 0.19097(13) 0.57954(7)
O2 O 0.33690(17) 0.44933(16) 0.66542(8)
C1 C 0.20914(19) 0.3334(2) 0.61572(9)
H1 H 0.1069 0.3526 0.6036
O8 O 0.11243(23) 0.44933(16) 0.83458(8)
C4 C 0.12426(28) 0.3334(2) 0.88428(9)
H4 H 0.2457 0.3526 0.8964
O11 O 0.01240(18) 0.20337(13) 0.42046(7)
Cr2_2 Cr -0.0000 -0.0000 1.0000
O14 O 0.55067(16) 0.88757(23) 0.66542(8)
O15 O 0.11243(23) 0.66310(17) 0.66542(8)
O16 O 0.55067(16) 0.66310(17) 0.83458(8)
O17 O 0.33690(17) 0.88757(23) 0.83458(8)
Cr2_3 Cr 0.0000 1.0000 0.0000
Cr1_2 Cr -0.0000 1.0000 0.5000
C3 C 0.12426(28) 0.79086(19) 0.61572(9)
H3 H 0.2457 0.8931 0.6036
Cr2_4 Cr 0.0000 1.0000 1.0000
O13 O 0.19097(13) 0.98760(18) 0.42046(7)
Cr2_5 Cr 1.0000 -0.0000 0.0000
Cr1_3 Cr 1.0000 -0.0000 0.5000
O3 O 0.80903(13) 0.01240(18) 0.57954(7)
O7 O 0.98760(18) 0.19097(13) 0.92046(7)
O12 O 0.88757(23) 0.33690(17) 0.33458(8)
C6 C 0.87574(28) 0.20914(19) 0.38428(9)
H6 H 0.7543 0.1069 0.3964
Cr2_6 Cr 1.0000 -0.0000 1.0000
Mn5 Mn 0.6667 0.3333 0.2500
Cr2_7 Cr 1.0000 1.0000 0.0000
Cr1_4 Cr 1.0000 1.0000 0.5000
C2 C 0.6666(2) 0.87574(28) 0.61572(9)
H2 H 0.6474 0.7543 0.6036
O5 O 0.98760(18) 0.79663(13) 0.57954(7)
O9 O 0.79663(13) 0.80903(13) 0.42046(7)
O10 O 0.66310(17) 0.55067(16) 0.33458(8)
C5 C 0.79086(19) 0.6666(2) 0.38428(9)
H5 H 0.8931 0.6474 0.3964
Cr2_8 Cr 1.0000 1.0000 1.0000
O10_2 O 0.44933(16) 0.11243(23) 0.33458(8)
C5_2 C 0.3334(2) 0.12426(28) 0.38428(9)
H5_2 H 0.3526 0.2457 0.3964
O7_2 O 0.80903(13) 0.79663(22) 0.92046(7)
C4_2 C 0.6666(2) 0.79086(34) 0.88428(9)
H4_2 H 0.6474 0.8931 0.8964
O7_3 O 0.20337(22) 0.01240(18) 0.92046(7)
C4_3 C 0.20914(34) 0.87574(28) 0.88428(9)
H4_3 H 0.1069 0.7543 0.8964
O9_2 O 0.19097(13) 0.20337(13) 0.07954(7)
O10_3 O 0.44933(16) 0.33690(17) 0.16542(8)
C5_3 C 0.3334(2) 0.20914(19) 0.11572(9)
H5_3 H 0.3526 0.1069 0.1036
O13_2 O 0.01240(18) 0.80903(13) 0.07954(7)
O12_2 O 0.66310(17) 0.11243(23) 0.16542(8)
C6_2 C 0.79086(19) 0.12426(28) 0.11572(9)
H6_2 H 0.8931 0.2457 0.1036
O11_2 O 0.79663(13) 0.98760(18) 0.07954(7)
O10_4 O 0.88757(23) 0.55067(16) 0.16542(8)
C5_4 C 0.87574(28) 0.6666(2) 0.11572(9)
H5_4 H 0.7543 0.6474 0.1036
loop_
_geom_bond_atom_site_label_1
_geom_bond_atom_site_label_2
_geom_bond_site_symmetry_1
_geom_bond_site_symmetry_2
Cr1 O1 1_555 1_555
Mn1 O2 1_555 1_555
O1 C1 1_555 1_555
O2 C1 1_555 1_555
C1 H1 1_555 1_555
O8 Mn1 1_555 1_555
C4 O8 1_555 1_555
H4 C4 1_555 1_555
O11 Cr1 1_555 1_555
O14 Mn1 1_555 1_555
O15 Mn1 1_555 1_555
O16 Mn1 1_555 1_555
O17 Mn1 1_555 1_555
O15 C3 1_555 1_555
H3 C3 1_555 1_555
O13 Cr1_2 1_555 1_555
O3 Cr1_3 1_555 1_555
O12 C6 1_555 1_555
H6 C6 1_555 1_555
Cr2_6 O7 1_555 1_555
Mn5 O12 1_555 1_555
O14 C2 1_555 1_555
H2 C2 1_555 1_555
O5 Cr1_4 1_555 1_555
O9 Cr1_4 1_555 1_555
O10 C5 1_555 1_555
C5 O9 1_555 1_555
H5 C5 1_555 1_555
Mn5 O10 1_555 1_555
O10_2 C5_2 1_555 1_555
H5_2 C5_2 1_555 1_555
Mn5 O10_2 1_555 1_555
O7_2 C4_2 1_555 1_555
C4_2 O16 1_555 1_555
H4_2 C4_2 1_555 1_555
Cr2_8 O7_2 1_555 1_555
Cr2_2 O7_3 1_555 1_555
C4_3 O17 1_555 1_555
H4_3 C4_3 1_555 1_555
O9_2 Cr2 1_555 1_555
O10_3 C5_3 1_555 1_555
C5_3 O9_2 1_555 1_555
H5_3 C5_3 1_555 1_555
Mn5 O10_3 1_555 1_555
O13_2 Cr2_3 1_555 1_555
O12_2 C6_2 1_555 1_555
H6_2 C6_2 1_555 1_555
Mn5 O12_2 1_555 1_555
O11_2 Cr2_7 1_555 1_555
O10_4 C5_4 1_555 1_555
H5_4 C5_4 1_555 1_555
Mn5 O10_4 1_555 1_555

#END
