
###############################################################################
#
# This file contains modified crystal structure data generated from the
# MOF subset of the Cambridge Structural Database (CSD) v543 
# hosted by the Cambridge Crystallographic Data Centre (CCDC).
#
# This work is licensed under the Creative Commons
# Attribution-NonCommercial-ShareAlike 4.0 International License.
# To view a copy of this license, visit
# http://creativecommons.org/licenses/by-nc-sa/4.0/
# or send a letter to
# Creative Commons, PO Box 1866, Mountain View, CA 94042, USA.
#
# CIF created using the CSD Python API on 29 September 2022
# The structure has been converted into the P1 space group
# The structure has a 3D framework
# The original CSD entry REZBEG01 is in the trigonal crystal system
# The framework has been calculated to contain at least 10.0% void space
# The void calculation uses a probe of radius 1.32A, grid spacing 0.4
# The framework is charged, counterions have been retained in the structure
#
###############################################################################

data_REZBEG01
_chemical_formula_moiety         '(C12 H12 Cr1 Mn4 O17)n'
_symmetry_cell_setting           triclinic
_symmetry_space_group_name_H-M   'P 1'
_symmetry_Int_Tables_number      1
_space_group_name_Hall           'P 1'
loop_
_symmetry_equiv_pos_site_id
_symmetry_equiv_pos_as_xyz
1 x,y,z
_cell_length_a                   8.2876(5)
_cell_length_b                   8.2876(5)
_cell_length_c                   14.1138(8)
_cell_angle_alpha                90
_cell_angle_beta                 90
_cell_angle_gamma                120
_cell_volume                     839.522
loop_
_atom_site_label
_atom_site_type_symbol
_atom_site_fract_x
_atom_site_fract_y
_atom_site_fract_z
Mn2 Mn -0.0000 0.0000 0.5000
O1 O 0.2008(2) 0.1922(2) 0.57955(11)
C1 C 0.2068(3) 0.3314(3) 0.61699(16)
O2 O 0.3338(3) 0.4473(3) 0.66584(13)
H1 H 0.1055 0.3486 0.6068
Cr1 Cr 0.3333 0.6667 0.7500
O6 O 0.0086(3) 0.2008(2) 0.42045(11)
Mn2_2 Mn -0.0000 1.0000 0.5000
Mn3 Mn 0.0000 0.0000 0.0000
Mn3_2 Mn 0.0000 -0.0000 1.0000
O7 O 0.1922(2) 0.9914(3) 0.42045(11)
Mn3_3 Mn 0.0000 1.0000 0.0000
Mn3_4 Mn 0.0000 1.0000 1.0000
Mn2_3 Mn 1.0000 0.0000 0.5000
O3 O 0.8078(2) 0.0086(3) 0.57955(11)
C2 C 0.8754(4) 0.2068(3) 0.38301(16)
O8 O 0.8865(4) 0.3338(3) 0.33416(13)
H2 H 0.7569 0.1055 0.3932
Cr2 Cr 0.6667 0.3333 0.2500
O9 O 0.6662(3) 0.1135(4) 0.16584(13)
O10 O 0.8865(4) 0.5527(3) 0.16584(13)
O11 O 0.6662(3) 0.5527(3) 0.33416(13)
O12 O 0.4473(3) 0.3338(3) 0.16584(13)
O13 O 0.4473(3) 0.1135(4) 0.33416(13)
C3 C 0.7932(3) 0.1246(4) 0.11699(16)
C4 C 0.7932(3) 0.6686(3) 0.38301(16)
C5 C 0.3314(3) 0.2068(3) 0.11699(16)
C6 C 0.3314(3) 0.1246(4) 0.38301(16)
H3 H 0.8945 0.2431 0.1068
O15 O 0.7992(2) 0.8078(2) 0.42045(11)
H4 H 0.8945 0.6514 0.3932
O16 O 0.1922(2) 0.2008(2) 0.07955(11)
H5 H 0.3486 0.1055 0.1068
H6 H 0.3486 0.2431 0.3932
Mn2_4 Mn 1.0000 1.0000 0.5000
Mn3_5 Mn 1.0000 0.0000 0.0000
Mn3_6 Mn 1.0000 -0.0000 1.0000
O4 O 0.9914(3) 0.7992(2) 0.57955(11)
O14 O 0.7992(2) 0.9914(3) 0.07955(11)
Mn3_7 Mn 1.0000 1.0000 0.0000
Mn3_8 Mn 1.0000 1.0000 1.0000
O14_2 O 0.0086(3) 0.8078(4) 0.07955(11)
C1_2 C 0.6686(3) 0.8754(4) 0.61699(16)
O2_2 O 0.5527(3) 0.8865(4) 0.66584(13)
H1_2 H 0.6514 0.7569 0.6068
C3_2 C 0.8754(4) 0.6686(5) 0.11699(16)
H3_2 H 0.7569 0.6514 0.1068
C1_3 C 0.1246(4) 0.7932(3) 0.61699(16)
O2_3 O 0.1135(4) 0.6662(3) 0.66584(13)
H1_3 H 0.2431 0.8945 0.6068
O4_2 O 0.2008(2) 0.0086(3) 0.92045(11)
O3_2 O 0.9914(3) 0.1922(2) 0.92045(11)
O1_2 O 0.8078(2) 0.7992(2) 0.92045(11)
C1_4 C 0.6686(3) 0.7932(3) 0.88301(16)
O2_4 O 0.5527(3) 0.6662(3) 0.83416(13)
H1_4 H 0.6514 0.8945 0.8932
C1_5 C 0.1246(4) 0.3314(3) 0.88301(16)
O2_5 O 0.1135(4) 0.4473(3) 0.83416(13)
H1_5 H 0.2431 0.3486 0.8932
C1_6 C 0.2068(3) 0.8754(4) 0.88301(16)
O2_6 O 0.3338(3) 0.8865(4) 0.83416(13)
H1_6 H 0.1055 0.7569 0.8932
loop_
_geom_bond_atom_site_label_1
_geom_bond_atom_site_label_2
_geom_bond_site_symmetry_1
_geom_bond_site_symmetry_2
Mn2 O1 1_555 1_555
O1 C1 1_555 1_555
C1 O2 1_555 1_555
O2 Cr1 1_555 1_555
H1 C1 1_555 1_555
O6 Mn2 1_555 1_555
O7 Mn2_2 1_555 1_555
O3 Mn2_3 1_555 1_555
O8 C2 1_555 1_555
H2 C2 1_555 1_555
Cr2 O8 1_555 1_555
O9 Cr2 1_555 1_555
O10 Cr2 1_555 1_555
O11 Cr2 1_555 1_555
O12 Cr2 1_555 1_555
O13 Cr2 1_555 1_555
C3 O9 1_555 1_555
C4 O11 1_555 1_555
C5 O12 1_555 1_555
C6 O13 1_555 1_555
H3 C3 1_555 1_555
O15 C4 1_555 1_555
H4 C4 1_555 1_555
O16 C5 1_555 1_555
H5 C5 1_555 1_555
H6 C6 1_555 1_555
Mn2_4 O15 1_555 1_555
Mn3 O16 1_555 1_555
O4 Mn2_4 1_555 1_555
Mn3_7 O14 1_555 1_555
Mn3_3 O14_2 1_555 1_555
C1_2 O2_2 1_555 1_555
O2_2 Cr1 1_555 1_555
H1_2 C1_2 1_555 1_555
C3_2 O10 1_555 1_555
H3_2 C3_2 1_555 1_555
C1_3 O2_3 1_555 1_555
O2_3 Cr1 1_555 1_555
H1_3 C1_3 1_555 1_555
O4_2 Mn3_2 1_555 1_555
O3_2 Mn3_6 1_555 1_555
Mn3_8 O1_2 1_555 1_555
O1_2 C1_4 1_555 1_555
C1_4 O2_4 1_555 1_555
O2_4 Cr1 1_555 1_555
H1_4 C1_4 1_555 1_555
C1_5 O2_5 1_555 1_555
O2_5 Cr1 1_555 1_555
H1_5 C1_5 1_555 1_555
C1_6 O2_6 1_555 1_555
O2_6 Cr1 1_555 1_555
H1_6 C1_6 1_555 1_555

#END
