
###############################################################################
#
# This file contains modified crystal structure data generated from the
# MOF subset of the Cambridge Structural Database (CSD) v543 
# hosted by the Cambridge Crystallographic Data Centre (CCDC).
#
# This work is licensed under the Creative Commons
# Attribution-NonCommercial-ShareAlike 4.0 International License.
# To view a copy of this license, visit
# http://creativecommons.org/licenses/by-nc-sa/4.0/
# or send a letter to
# Creative Commons, PO Box 1866, Mountain View, CA 94042, USA.
#
# CIF created using the CSD Python API on 29 September 2022
# The structure has been converted into the P1 space group
# The structure has a 3D framework
# The original CSD entry REZVAU is in the monoclinic crystal system
# The framework has been calculated to contain at least 10.0% void space
# The void calculation uses a probe of radius 1.32A, grid spacing 0.4
#
###############################################################################

data_REZVAU
_chemical_formula_moiety         '(C64 H56 Co9 N12 O20 S4)n'
_symmetry_cell_setting           triclinic
_symmetry_space_group_name_H-M   'P 1'
_symmetry_Int_Tables_number      1
_space_group_name_Hall           'P 1'
loop_
_symmetry_equiv_pos_site_id
_symmetry_equiv_pos_as_xyz
1 x,y,z
_cell_length_a                   11.4680(10)
_cell_length_b                   11.3457(10)
_cell_length_c                   20.2067(14)
_cell_angle_alpha                90
_cell_angle_beta                 116.709(4)
_cell_angle_gamma                90
_cell_volume                     2348.62
loop_
_atom_site_label
_atom_site_type_symbol
_atom_site_fract_x
_atom_site_fract_y
_atom_site_fract_z
Co5 Co -0.0000 0.75190(3) 0.7500
Co1 Co 0.0000 0.5000 0.0000
Co6 Co -0.0000 0.24810(3) 0.2500
N8 N 0.18982(17) 0.51429(18) 0.09285(10)
Co1_2 Co -0.0000 0.5000 1.0000
S1 S 0.13900(5) 0.70190(5) 0.93975(3)
O1 O 0.03780(19) 0.33488(16) 0.96461(11)
O2 O 0.06709(16) 0.59033(15) 0.93331(9)
O3 O 0.09084(17) 0.75445(14) 0.86528(9)
O4 O 0.2772(2) 0.6783(3) 0.96791(16)
O5 O 0.1110(3) 0.7839(2) 0.98667(15)
N1 N 0.19161(18) 0.76303(17) 0.75108(11)
N3 N 0.0000 0.5636(2) 0.7500
C1 C 0.0000 0.1875(3) 0.7500
C3 C 0.1023(3) 0.38089(19) 0.80414(14)
H2 H 0.1719 0.3418 0.8417
C5 C 0.4354(2) 0.7847(2) 0.75004(12)
C6 C 0.0993(2) 0.50267(18) 0.80140(14)
H3 H 0.1695 0.5441 0.8369
C8 C 0.3014(2) 0.7803(3) 0.81336(15)
H5 H 0.2963 0.7849 0.8579
C10 C 0.4228(2) 0.7916(4) 0.81459(15)
H7 H 0.4964 0.8041 0.8594
C12 C 0.3211(2) 0.7693(3) 0.68559(14)
H9 H 0.3234 0.7667 0.6402
C13 C 0.0220(4) 0.1246(2) 0.81289(16)
H10 H 0.0377 0.1639 0.8565
C14 C 0.2033(2) 0.7579(3) 0.68833(15)
H11 H 0.1283 0.7461 0.6441
C15 C 0.0206(4) 0.0031(2) 0.81070(16)
C16 C 0.0000 0.3177(2) 0.7500
H13 H 0.005(4) 0.286(4) 0.981(2)
H14 H 0.108(5) 0.305(4) 0.975(2)
Co5_2 Co 1.0000 0.75190(3) 0.7500
N5 N 0.80839(18) 0.76303(17) 0.74892(11)
N9 N -0.0000 0.9415(2) 0.7500
C20 C 0.5646(2) 0.7847(2) 0.74996(12)
C23 C 0.6986(2) 0.7803(3) 0.68664(15)
H19 H 0.7037 0.7849 0.6421
C25 C 0.5772(2) 0.7916(4) 0.68541(15)
H21 H 0.5036 0.8041 0.6406
C27 C 0.6789(2) 0.7693(3) 0.81441(14)
H23 H 0.6766 0.7667 0.8598
C29 C 0.7967(2) 0.7579(3) 0.81167(15)
H25 H 0.8717 0.7461 0.8559
H12 H 0.0347 0.9621 0.8535
Co1_3 Co 1.0000 0.5000 0.0000
Co6_2 Co 1.0000 0.24810(3) 0.2500
S2 S 0.86100(5) 0.29810(5) 0.06025(3)
O6 O 0.96220(19) 0.66512(16) 0.03539(11)
O7 O 0.93291(16) 0.40967(15) 0.06669(9)
O8 O 0.90916(17) 0.24555(14) 0.13472(9)
O10 O 0.7228(2) 0.3217(3) 0.03209(16)
O11 O 0.8890(3) 0.2161(2) 0.01333(15)
H27 H 0.995(4) 0.714(4) 0.019(2)
H28 H 0.892(5) 0.695(4) 0.025(2)
Co1_4 Co 1.0000 0.5000 1.0000
N2 N 0.81018(17) 0.48571(18) 0.90715(10)
N3_2 N 1.0000 0.5636(2) 0.7500
C1_2 C 1.0000 0.1875(3) 0.7500
C2 C 0.7984(3) 0.4594(2) 0.83985(14)
H1 H 0.8739 0.4455 0.8348
C4 C 0.5644(2) 0.4730(2) 0.78296(12)
C7 C 0.6790(3) 0.4518(2) 0.77738(14)
H4 H 0.6756 0.4325 0.7318
C9 C 0.5768(2) 0.4984(2) 0.85305(13)
H6 H 0.5028 0.5120 0.8597
C11 C 0.6998(2) 0.5035(2) 0.91321(13)
H8 H 0.7059 0.5201 0.9597
C16_2 C 1.0000 0.3177(2) 0.7500
Co3 Co 0.0000 0.5000 0.5000
O9 O 0.90916(17) 0.75445(14) 0.63472(9)
N7 N 0.18982(17) 0.48571(18) 0.59285(10)
N9_2 N 1.0000 0.9415(2) 0.7500
C17 C 0.2016(3) 0.4594(2) 0.66015(14)
H15 H 0.1261 0.4455 0.6652
C18 C 0.8977(3) 0.38089(19) 0.69586(14)
H16 H 0.8281 0.3418 0.6583
C19 C 0.4356(2) 0.4730(2) 0.71704(12)
C21 C 0.9007(2) 0.50267(18) 0.69860(14)
H17 H 0.8305 0.5441 0.6631
C22 C 0.3210(3) 0.4518(2) 0.72262(14)
H18 H 0.3244 0.4325 0.7682
C24 C 0.4232(2) 0.4984(2) 0.64695(13)
H20 H 0.4972 0.5120 0.6403
C26 C 0.3002(2) 0.5035(2) 0.58679(13)
H22 H 0.2941 0.5201 0.5403
C28 C 0.9780(4) 0.1246(2) 0.68711(16)
H24 H 0.9623 0.1639 0.6435
C30 C 0.9794(4) 0.0031(2) 0.68930(16)
H26 H 0.9653 0.9621 0.6465
Co3_2 Co 1.0000 0.5000 0.5000
S2_2 S 0.13900(5) 0.29810(5) 0.43975(3)
O6_2 O 0.03780(19) 0.66512(16) 0.46461(11)
O7_2 O 0.06709(16) 0.40967(15) 0.43331(9)
O8_2 O 0.09084(17) 0.24555(14) 0.36528(9)
O10_2 O 0.2772(2) 0.3217(3) 0.46791(16)
O11_2 O 0.1110(3) 0.2161(2) 0.48667(15)
H27_2 H 0.005(4) 0.714(4) 0.481(2)
H28_2 H 0.108(5) 0.695(4) 0.475(2)
S1_2 S 0.86100(5) 0.70190(5) 0.56025(3)
O1_2 O 0.96220(19) 0.33488(16) 0.53539(11)
O2_2 O 0.93291(16) 0.59033(15) 0.56669(9)
O4_2 O 0.7228(2) 0.6783(3) 0.53209(16)
O5_2 O 0.8890(3) 0.7839(2) 0.51333(15)
H13_2 H 0.995(4) 0.286(4) 0.519(2)
H14_2 H 0.892(5) 0.305(4) 0.525(2)
N8_2 N 0.81018(17) 0.51429(18) 0.40715(10)
N4 N -0.0000 0.0585(2) 0.2500
H26_2 H 0.0347 0.0379 0.3535
N3_3 N -0.0000 0.4364(2) 0.2500
C1_3 C -0.0000 0.8125(3) 0.2500
C2_2 C 0.2016(3) 0.5406(2) 0.16015(14)
H1_2 H 0.1261 0.5545 0.1652
C4_2 C 0.4356(2) 0.5270(2) 0.21704(12)
C7_2 C 0.3210(3) 0.5482(2) 0.22262(14)
H4_2 H 0.3244 0.5675 0.2682
C9_2 C 0.4232(2) 0.5016(2) 0.14695(13)
H6_2 H 0.4972 0.4880 0.1403
C11_2 C 0.3002(2) 0.4965(2) 0.08679(13)
H8_2 H 0.2941 0.4799 0.0403
C16_3 C -0.0000 0.6823(2) 0.2500
N6 N 0.19161(18) 0.23697(17) 0.25108(11)
C17_2 C 0.7984(3) 0.5406(2) 0.33985(14)
H15_2 H 0.8739 0.5545 0.3348
C18_2 C 0.1023(3) 0.61911(19) 0.30414(14)
H16_2 H 0.1719 0.6582 0.3417
C19_2 C 0.5644(2) 0.5270(2) 0.28296(12)
C21_2 C 0.0993(2) 0.49733(18) 0.30140(14)
H17_2 H 0.1695 0.4559 0.3369
C22_2 C 0.6790(3) 0.5482(2) 0.27738(14)
H18_2 H 0.6756 0.5675 0.2318
C24_2 C 0.5768(2) 0.5016(2) 0.35305(13)
H20_2 H 0.5028 0.4880 0.3597
C26_2 C 0.6998(2) 0.4965(2) 0.41321(13)
H22_2 H 0.7059 0.4799 0.4597
C28_2 C 0.0220(4) 0.8754(2) 0.31289(16)
H24_2 H 0.0377 0.8361 0.3565
C30_2 C 0.0206(4) 0.9969(2) 0.31070(16)
N4_2 N 1.0000 0.0585(2) 0.2500
H12_2 H 0.9653 0.0379 0.1465
N1_2 N 0.80839(18) 0.23697(17) 0.24892(11)
N3_4 N 1.0000 0.4364(2) 0.2500
C1_4 C 1.0000 0.8125(3) 0.2500
C3_2 C 0.8977(3) 0.61911(19) 0.19586(14)
H2_2 H 0.8281 0.6582 0.1583
C5_2 C 0.5646(2) 0.2153(2) 0.24996(12)
C6_2 C 0.9007(2) 0.49733(18) 0.19860(14)
H3_2 H 0.8305 0.4559 0.1631
C8_2 C 0.6986(2) 0.2197(3) 0.18664(15)
H5_2 H 0.7037 0.2151 0.1421
C10_2 C 0.5772(2) 0.2084(4) 0.18541(15)
H7_2 H 0.5036 0.1959 0.1406
C12_2 C 0.6789(2) 0.2307(3) 0.31441(14)
H9_2 H 0.6766 0.2333 0.3598
C13_2 C 0.9780(4) 0.8754(2) 0.18711(16)
H10_2 H 0.9623 0.8361 0.1435
C14_2 C 0.7967(2) 0.2421(3) 0.31167(15)
H11_2 H 0.8717 0.2539 0.3559
C15_2 C 0.9794(4) 0.9969(2) 0.18930(16)
C16_4 C 1.0000 0.6823(2) 0.2500
C20_2 C 0.4354(2) 0.2153(2) 0.25004(12)
C23_2 C 0.3014(2) 0.2197(3) 0.31336(15)
H19_2 H 0.2963 0.2151 0.3579
C25_2 C 0.4228(2) 0.2084(4) 0.31459(15)
H21_2 H 0.4964 0.1959 0.3594
C27_2 C 0.3211(2) 0.2307(3) 0.18559(14)
H23_2 H 0.3234 0.2333 0.1402
C29_2 C 0.2033(2) 0.2421(3) 0.18833(15)
H25_2 H 0.1283 0.2539 0.1441
loop_
_geom_bond_atom_site_label_1
_geom_bond_atom_site_label_2
_geom_bond_site_symmetry_1
_geom_bond_site_symmetry_2
N8 Co1 1_555 1_555
Co1_2 O1 1_555 1_555
Co5 O3 1_555 1_555
S1 O2 1_555 1_555
O1 H13 1_555 1_555
O2 Co1_2 1_555 1_555
O3 S1 1_555 1_555
O4 S1 1_555 1_555
O5 S1 1_555 1_555
N1 Co5 1_555 1_555
N3 Co5 1_555 1_555
C1 C13 1_555 1_555
C3 H2 1_555 1_555
C5 C10 1_555 1_555
C6 N3 1_555 1_555
H3 C6 1_555 1_555
C8 N1 1_555 1_555
H5 C8 1_555 1_555
C10 C8 1_555 1_555
H7 C10 1_555 1_555
C12 C5 1_555 1_555
H9 C12 1_555 1_555
C13 H10 1_555 1_555
C14 N1 1_555 1_555
H11 C14 1_555 1_555
C15 C13 1_555 1_555
C16 C1 1_555 1_555
H14 O1 1_555 1_555
Co5_2 N5 1_555 1_555
N5 C23 1_555 1_555
N9 Co5 1_555 1_555
C20 C5 1_555 1_555
C23 H19 1_555 1_555
C25 C20 1_555 1_555
H21 C25 1_555 1_555
C27 C20 1_555 1_555
H23 C27 1_555 1_555
C29 N5 1_555 1_555
H25 C29 1_555 1_555
C3 C6 1_555 1_555
C3 C16 1_555 1_555
C12 C14 1_555 1_555
C23 C25 1_555 1_555
C27 C29 1_555 1_555
Co6_2 O8 1_555 1_555
S2 O7 1_555 1_555
O6 Co1_3 1_555 1_555
O7 Co1_3 1_555 1_555
O8 S2 1_555 1_555
O10 S2 1_555 1_555
O11 S2 1_555 1_555
H27 O6 1_555 1_555
H28 O6 1_555 1_555
N2 Co1_4 1_555 1_555
N3_2 Co5_2 1_555 1_555
C2 N2 1_555 1_555
H1 C2 1_555 1_555
C4 C7 1_555 1_555
C7 C2 1_555 1_555
H4 C7 1_555 1_555
C9 C4 1_555 1_555
H6 C9 1_555 1_555
C11 N2 1_555 1_555
H8 C11 1_555 1_555
C16_2 C1_2 1_555 1_555
Co3 N7 1_555 1_555
O9 Co5_2 1_555 1_555
N7 C17 1_555 1_555
N9_2 Co5_2 1_555 1_555
C17 H15 1_555 1_555
C18 C16_2 1_555 1_555
H16 C18 1_555 1_555
C19 C4 1_555 1_555
C21 N3_2 1_555 1_555
H17 C21 1_555 1_555
C22 C17 1_555 1_555
H18 C22 1_555 1_555
C24 C19 1_555 1_555
H20 C24 1_555 1_555
C26 N7 1_555 1_555
H22 C26 1_555 1_555
C28 C1_2 1_555 1_555
H24 C28 1_555 1_555
C9 C11 1_555 1_555
C18 C21 1_555 1_555
C19 C22 1_555 1_555
C24 C26 1_555 1_555
C28 C30 1_555 1_555
Co6 O8_2 1_555 1_555
S2_2 O7_2 1_555 1_555
O6_2 Co3 1_555 1_555
O7_2 Co3 1_555 1_555
O8_2 S2_2 1_555 1_555
O10_2 S2_2 1_555 1_555
O11_2 S2_2 1_555 1_555
H27_2 O6_2 1_555 1_555
H28_2 O6_2 1_555 1_555
Co3_2 O1_2 1_555 1_555
S1_2 O2_2 1_555 1_555
O1_2 H13_2 1_555 1_555
O2_2 Co3_2 1_555 1_555
O9 S1_2 1_555 1_555
O4_2 S1_2 1_555 1_555
O5_2 S1_2 1_555 1_555
H14_2 O1_2 1_555 1_555
N8_2 Co3_2 1_555 1_555
Co6 N4 1_555 1_555
N3_3 Co6 1_555 1_555
C2_2 N8 1_555 1_555
H1_2 C2_2 1_555 1_555
C4_2 C7_2 1_555 1_555
C7_2 C2_2 1_555 1_555
H4_2 C7_2 1_555 1_555
C9_2 C4_2 1_555 1_555
H6_2 C9_2 1_555 1_555
C11_2 N8 1_555 1_555
H8_2 C11_2 1_555 1_555
C16_3 C1_3 1_555 1_555
N6 Co6 1_555 1_555
N8_2 C17_2 1_555 1_555
C17_2 H15_2 1_555 1_555
C18_2 C16_3 1_555 1_555
H16_2 C18_2 1_555 1_555
C19_2 C4_2 1_555 1_555
C21_2 N3_3 1_555 1_555
H17_2 C21_2 1_555 1_555
C22_2 C17_2 1_555 1_555
H18_2 C22_2 1_555 1_555
C24_2 C19_2 1_555 1_555
H20_2 C24_2 1_555 1_555
C26_2 N8_2 1_555 1_555
H22_2 C26_2 1_555 1_555
C28_2 C1_3 1_555 1_555
H24_2 C28_2 1_555 1_555
C9_2 C11_2 1_555 1_555
C18_2 C21_2 1_555 1_555
C19_2 C22_2 1_555 1_555
C24_2 C26_2 1_555 1_555
C28_2 C30_2 1_555 1_555
Co6_2 N4_2 1_555 1_555
N1_2 Co6_2 1_555 1_555
N3_4 Co6_2 1_555 1_555
C1_4 C13_2 1_555 1_555
C3_2 H2_2 1_555 1_555
C5_2 C10_2 1_555 1_555
C6_2 N3_4 1_555 1_555
H3_2 C6_2 1_555 1_555
C8_2 N1_2 1_555 1_555
H5_2 C8_2 1_555 1_555
C10_2 C8_2 1_555 1_555
H7_2 C10_2 1_555 1_555
C12_2 C5_2 1_555 1_555
H9_2 C12_2 1_555 1_555
C13_2 H10_2 1_555 1_555
C14_2 N1_2 1_555 1_555
H11_2 C14_2 1_555 1_555
C15_2 C13_2 1_555 1_555
C16_4 C1_4 1_555 1_555
N6 C23_2 1_555 1_555
C20_2 C5_2 1_555 1_555
C23_2 H19_2 1_555 1_555
C25_2 C20_2 1_555 1_555
H21_2 C25_2 1_555 1_555
C27_2 C20_2 1_555 1_555
H23_2 C27_2 1_555 1_555
C29_2 N6 1_555 1_555
H25_2 C29_2 1_555 1_555
C3_2 C6_2 1_555 1_555
C3_2 C16_4 1_555 1_555
C12_2 C14_2 1_555 1_555
C23_2 C25_2 1_555 1_555
C27_2 C29_2 1_555 1_555

#END
