
###############################################################################
#
# This file contains modified crystal structure data generated from the
# MOF subset of the Cambridge Structural Database (CSD) v543 
# hosted by the Cambridge Crystallographic Data Centre (CCDC).
#
# This work is licensed under the Creative Commons
# Attribution-NonCommercial-ShareAlike 4.0 International License.
# To view a copy of this license, visit
# http://creativecommons.org/licenses/by-nc-sa/4.0/
# or send a letter to
# Creative Commons, PO Box 1866, Mountain View, CA 94042, USA.
#
# CIF created using the CSD Python API on 29 September 2022
# The structure has been converted into the P1 space group
# The structure has a 3D framework
# The original CSD entry REZVEY is in the monoclinic crystal system
# The framework has been calculated to contain at least 10.0% void space
# The void calculation uses a probe of radius 1.32A, grid spacing 0.4
#
###############################################################################

data_REZVEY
_chemical_formula_moiety         '(C168 H144 Co15 N36 O36 S8)n'
_symmetry_cell_setting           triclinic
_symmetry_space_group_name_H-M   'P 1'
_symmetry_Int_Tables_number      1
_space_group_name_Hall           'P 1'
loop_
_symmetry_equiv_pos_site_id
_symmetry_equiv_pos_as_xyz
1 x,y,z
_cell_length_a                   22.599(7)
_cell_length_b                   11.386(3)
_cell_length_c                   21.359(7)
_cell_angle_alpha                90
_cell_angle_beta                 117.862(4)
_cell_angle_gamma                90
_cell_volume                     4858.82
loop_
_atom_site_label
_atom_site_type_symbol
_atom_site_fract_x
_atom_site_fract_y
_atom_site_fract_z
N5 N 0.0000 0.5056(8) 0.7500
C3 C 0.0000 0.2550(12) 0.7500
C9 C 0.0000 0.1271(10) 0.7500
Co5 Co 0.0000 0.69072(13) 0.7500
C48 C 0.0528(4) 0.4404(8) 0.7954(4)
H41 H 0.0907 0.4804 0.8277
C49 C 0.0548(4) 0.3221(8) 0.7974(4)
H42 H 0.0931 0.2843 0.8307
C63 C 0.0420(5) 0.0628(10) 0.8093(5)
H52 H 0.0719 0.1007 0.8506
Co8 Co 0.0000 0.5000 0.0000
Co11 Co 0.5000 0.5000 0.0000
N1 N 0.0000 0.8827(8) 0.7500
Co3 Co -0.0000 0.5000 0.5000
C43 C 0.0417(7) 0.7526(11) 0.4617(7)
H33 H 0.0819 0.7176 0.4656
H34 H 0.0521 0.8274 0.4853
H35 H 0.0103 0.7634 0.4127
O9 O 0.0151(3) 0.6827(6) 0.4918(4)
Co7 Co 0.5000 0.75572(12) 0.7500
S3 S 0.08129(9) 0.64635(19) 0.93076(10)
Co8_2 Co 0.0000 0.5000 1.0000
O11 O 0.0398(2) 0.5460(4) 0.9330(3)
O12 O 0.0398(2) 0.4540(4) 0.4330(3)
O15 O 0.0513(2) 0.6909(4) 0.8580(3)
O16 O 0.1486(3) 0.6049(5) 0.9502(3)
C44 C 0.3946(4) 0.8014(8) 0.7983(4)
H37 H 0.4333 0.8168 0.8402
N12 N 0.4001(3) 0.7754(5) 0.7401(3)
O19 O 0.0806(3) 0.7395(5) 0.9776(3)
C45 C 0.3439(4) 0.7642(7) 0.6794(4)
H38 H 0.3466 0.7527 0.6377
Co11_2 Co 0.5000 0.5000 1.0000
C47 C 0.2814(4) 0.7692(7) 0.6766(4)
H40 H 0.2431 0.7624 0.6332
N15 N 0.0973(3) 0.4810(6) 0.5912(3)
N16 N 0.0936(3) 0.7111(5) 0.7454(4)
C53 C 0.1495(4) 0.7776(8) 0.6814(5)
H46 H 0.1462 0.8054 0.6390
C54 C 0.2753(4) 0.7844(7) 0.7379(4)
C55 C 0.1546(4) 0.4967(7) 0.5870(4)
H47 H 0.1517 0.5202 0.5440
C56 C 0.1043(4) 0.4487(8) 0.6531(5)
H48 H 0.0658 0.4370 0.6577
C57 C 0.2164(4) 0.4795(7) 0.6428(4)
H49 H 0.2540 0.4893 0.6362
C58 C 0.2116(4) 0.7650(7) 0.7394(4)
N17 N 0.4154(3) 0.4437(6) 0.8968(3)
C59 C 0.3448(4) 0.5015(8) 0.7767(4)
H50 H 0.3407 0.5442 0.7377
C60 C 0.2250(4) 0.4482(7) 0.7087(4)
C61 C 0.2916(4) 0.4387(8) 0.7721(4)
C62 C 0.1526(4) 0.6999(7) 0.8017(5)
H51 H 0.1541 0.6744 0.8438
C64 C 0.1660(4) 0.4308(8) 0.7126(4)
H53 H 0.1676 0.4072 0.7551
C65 C 0.0389(4) 0.9404(8) 0.8064(5)
H54 H 0.0662 0.8984 0.8471
C66 C 0.2116(4) 0.7242(8) 0.8011(5)
H55 H 0.2520 0.7134 0.8419
C67 C 0.0925(4) 0.7494(8) 0.6858(5)
H56 H 0.0513 0.7574 0.6455
C68 C 0.3336(4) 0.8061(8) 0.7986(5)
H57 H 0.3321 0.8242 0.8403
C69 C 0.4045(4) 0.5023(8) 0.8386(4)
H58 H 0.4395 0.5467 0.8397
C70 C 0.3039(5) 0.3723(10) 0.8295(5)
H59 H 0.2706 0.3234 0.8287
C71 C 0.3650(5) 0.3768(10) 0.8887(5)
H60 H 0.3713 0.3282 0.9263
H72 H 0.020(4) 0.279(7) 0.503(4)
N3 N 0.5000 0.5659(8) 0.7500
N5_2 N 1.0000 0.5056(8) 0.7500
C3_2 C 1.0000 0.2550(12) 0.7500
C4 C 0.5248(5) 0.0029(9) 0.8079(5)
C6 C 0.9472(4) 0.4404(8) 0.7046(4)
H5 H 0.9093 0.4804 0.6723
C7 C 0.9452(4) 0.3221(8) 0.7026(4)
H6 H 0.9069 0.2843 0.6693
C8 C 0.5261(5) 0.1271(9) 0.8103(5)
H7 H 0.5451 0.1660 0.8535
C9_2 C 1.0000 0.1271(10) 0.7500
C10 C 0.5484(4) 0.5033(8) 0.8031(4)
H8 H 0.5823 0.5441 0.8403
C11 C 0.5501(4) 0.3825(8) 0.8050(4)
H9 H 0.5843 0.3431 0.8426
C12 C 0.5000 0.3209(10) 0.7500
C13 C 0.5000 0.1876(10) 0.7500
C24 C 0.9580(5) 0.0628(10) 0.6907(5)
H16 H 0.9281 0.1007 0.6494
Co5_2 Co 1.0000 0.69072(13) 0.7500
C46 C 0.4752(5) 0.0029(9) 0.6921(5)
C50 C 0.4739(5) 0.1271(9) 0.6897(5)
H43 H 0.4549 0.1660 0.6465
C51 C 0.4516(4) 0.5033(8) 0.6969(4)
H44 H 0.4177 0.5441 0.6597
C52 C 0.4499(4) 0.3825(8) 0.6950(4)
H45 H 0.4157 0.3431 0.6574
C73 C 0.6983(5) 0.0159(9) 0.5068(6)
H62 H 0.6584 0.0409 0.5050
N21 N 0.8026(5) 0.0704(9) 0.5109(6)
C77 C 0.7470(6) 0.0977(10) 0.5121(7)
H66 H 0.7391 0.1765 0.5169
Co8_3 Co 1.0000 0.5000 0.0000
S1 S 0.91871(9) 0.64635(19) 0.56924(10)
N1_2 N 1.0000 0.8827(8) 0.7500
Co3_2 Co 1.0000 0.5000 0.5000
N2 N 0.5000 0.9439(7) 0.7500
S2 S 0.43119(9) 0.71695(18) 0.56553(10)
O1 O 0.4621(2) 0.7441(4) 0.6420(2)
O2 O 0.9602(2) 0.5460(4) 0.5670(3)
O3 O 0.4711(2) 0.6206(4) 0.5566(3)
O4 O 0.9487(2) 0.6909(4) 0.6420(3)
O5 O 0.8514(3) 0.6049(5) 0.5498(3)
O6 O 0.3633(2) 0.6762(5) 0.5423(3)
O7 O 0.4342(3) 0.8209(5) 0.5279(3)
C1 C 0.6054(4) 0.8014(8) 0.7017(4)
H1 H 0.5667 0.8168 0.6598
N4 N 0.5999(3) 0.7754(5) 0.7599(3)
O8 O 0.9194(3) 0.7395(5) 0.5224(3)
C2 C 0.6561(4) 0.7642(7) 0.8206(4)
H2 H 0.6534 0.7527 0.8623
Co4 Co 0.5000 0.5000 0.5000
H3 H 0.5428 0.9619 0.8505
C5 C 0.7186(4) 0.7692(7) 0.8234(4)
H4 H 0.7569 0.7624 0.8668
N6 N 0.9027(3) 0.5190(6) 0.4088(3)
N7 N 0.9064(3) 0.7111(5) 0.7546(4)
C14 C 0.8505(4) 0.7776(8) 0.8186(5)
H10 H 0.8538 0.8054 0.8610
C15 C 0.7247(4) 0.7844(7) 0.7621(4)
C16 C 0.8454(4) 0.5033(7) 0.4130(4)
H11 H 0.8483 0.4798 0.4560
C17 C 0.8957(4) 0.5513(8) 0.3469(5)
H12 H 0.9342 0.5630 0.3423
C18 C 0.7836(4) 0.5205(7) 0.3572(4)
H13 H 0.7460 0.5107 0.3638
C19 C 0.7884(4) 0.7650(7) 0.7606(4)
N8 N 0.5846(3) 0.5563(6) 0.1032(3)
C20 C 0.6552(4) 0.4985(8) 0.2233(4)
H14 H 0.6593 0.4558 0.2623
C21 C 0.7750(4) 0.5518(7) 0.2913(4)
C22 C 0.7084(4) 0.5613(8) 0.2279(4)
C23 C 0.8474(4) 0.6999(7) 0.6983(5)
H15 H 0.8459 0.6744 0.6562
C25 C 0.8340(4) 0.5692(8) 0.2874(4)
H17 H 0.8324 0.5928 0.2449
C26 C 0.9611(4) 0.9404(8) 0.6936(5)
H18 H 0.9338 0.8984 0.6529
C27 C 0.7884(4) 0.7242(8) 0.6989(5)
H19 H 0.7480 0.7134 0.6581
C28 C 0.9075(4) 0.7494(8) 0.8142(5)
H20 H 0.9487 0.7574 0.8545
C29 C 0.6664(4) 0.8061(8) 0.7014(5)
H21 H 0.6679 0.8242 0.6597
C30 C 0.5955(4) 0.4977(8) 0.1614(4)
H22 H 0.5605 0.4533 0.1603
C31 C 0.6961(5) 0.6277(10) 0.1705(5)
H23 H 0.7294 0.6766 0.1713
C32 C 0.6350(5) 0.6232(10) 0.1113(5)
H24 H 0.6287 0.6718 0.0737
N9 N 0.4306(3) 0.3682(7) 0.5043(3)
C33 C 0.2300(5) 0.1315(10) 0.4965(6)
H25 H 0.2201 0.2097 0.5001
C35 C 0.3728(4) 0.3952(8) 0.5032(4)
H27 H 0.3633 0.4742 0.5052
C36 C 0.3999(4) 0.1642(8) 0.5011(4)
H28 H 0.4115 0.0859 0.5009
C37 C 0.1871(5) 0.0453(12) 0.4918(7)
H29 H 0.1469 0.0680 0.4904
C39 C 0.2892(4) 0.1010(9) 0.4958(5)
C40 C 0.3258(4) 0.3134(9) 0.4992(5)
H31 H 0.2857 0.3386 0.4970
C41 C 0.4435(4) 0.2547(9) 0.5039(4)
H32 H 0.4839 0.2335 0.5055
C42 C 0.3380(4) 0.1952(9) 0.4986(4)
H36 H 0.980(4) 0.721(7) 0.497(4)
Co8_4 Co 1.0000 0.5000 1.0000
S4 S 0.56881(9) 0.71695(18) 0.93447(10)
O10 O 0.5379(2) 0.7441(4) 0.8580(2)
O13 O 0.5289(2) 0.6206(4) 0.9434(3)
O14 O 0.5289(2) 0.3794(4) 0.4434(3)
O17 O 0.6367(2) 0.6762(5) 0.9577(3)
O18 O 0.5658(3) 0.8209(5) 0.9721(3)
H39 H 0.4572 0.9619 0.6495
N18 N 0.5846(3) 0.4437(6) 0.6032(3)
N19 N 0.4154(3) 0.5563(6) 0.3968(3)
N20 N 0.5694(3) 0.6318(7) 0.4957(3)
C72 C 0.7700(5) 0.8685(10) 0.5035(6)
H61 H 0.7799 0.7903 0.4999
C74 C 0.6272(4) 0.6048(8) 0.4968(4)
H63 H 0.6367 0.5258 0.4948
C75 C 0.6001(4) 0.8358(8) 0.4989(4)
H64 H 0.5885 0.9141 0.4991
C76 C 0.8129(5) 0.9547(12) 0.5082(7)
H65 H 0.8531 0.9320 0.5096
C78 C 0.7108(4) 0.8990(9) 0.5042(5)
C79 C 0.6742(4) 0.6866(9) 0.5008(5)
H67 H 0.7143 0.6614 0.5030
C80 C 0.5565(4) 0.7453(9) 0.4961(4)
H68 H 0.5161 0.7665 0.4945
C81 C 0.6620(4) 0.8048(9) 0.5014(4)
C82 C 0.9583(7) 0.2474(11) 0.5383(7)
H69 H 0.9181 0.2824 0.5344
H70 H 0.9479 0.1726 0.5147
H71 H 0.9897 0.2366 0.5873
O20 O 0.9849(3) 0.3173(6) 0.5082(4)
C34 C 0.3017(5) 0.9841(9) 0.4932(6)
H26 H 0.3416 0.9591 0.4950
N10 N 0.1974(5) 0.9296(9) 0.4891(6)
C38 C 0.2530(6) 0.9023(10) 0.4879(7)
H30 H 0.2609 0.8235 0.4831
C73_2 C 0.3017(5) 0.0159(9) 0.9932(6)
H62_2 H 0.3416 0.0409 0.9950
N21_2 N 0.1974(5) 0.0704(9) 0.9891(6)
C77_2 C 0.2530(6) 0.0977(10) 0.9879(7)
H66_2 H 0.2609 0.1765 0.9831
N6_2 N 0.0973(3) 0.5190(6) 0.0912(3)
C16_2 C 0.1546(4) 0.5033(7) 0.0870(4)
H11_2 H 0.1517 0.4798 0.0440
C17_2 C 0.1043(4) 0.5513(8) 0.1531(5)
H12_2 H 0.0658 0.5630 0.1577
C18_2 C 0.2164(4) 0.5205(7) 0.1428(4)
H13_2 H 0.2540 0.5107 0.1362
C20_2 C 0.3448(4) 0.4985(8) 0.2767(4)
H14_2 H 0.3407 0.4558 0.2377
C21_2 C 0.2250(4) 0.5518(7) 0.2087(4)
C22_2 C 0.2916(4) 0.5613(8) 0.2721(4)
C25_2 C 0.1660(4) 0.5692(8) 0.2126(4)
H17_2 H 0.1676 0.5928 0.2551
C30_2 C 0.4045(4) 0.4977(8) 0.3386(4)
H22_2 H 0.4395 0.4533 0.3397
C31_2 C 0.3039(5) 0.6277(10) 0.3295(5)
H23_2 H 0.2706 0.6766 0.3287
C32_2 C 0.3650(5) 0.6232(10) 0.3887(5)
H24_2 H 0.3713 0.6718 0.4263
C33_2 C 0.7700(5) 0.1315(10) 0.0035(6)
C37_2 C 0.8129(5) 0.0453(12) 0.0082(7)
H29_2 H 0.8531 0.0680 0.0096
C39_2 C 0.7108(4) 0.1010(9) 0.0042(5)
C40_2 C 0.6742(4) 0.3134(9) 0.0008(5)
H31_2 H 0.7143 0.3386 0.0030
C42_2 C 0.6620(4) 0.1952(9) 0.0014(4)
H36_2 H 0.020(4) 0.721(7) 0.003(4)
O14_2 O 0.4711(2) 0.3794(4) 0.0566(3)
N20_2 N 0.4306(3) 0.6318(7) 0.0043(3)
H61_2 H 0.2201 0.7903 0.0001
C74_2 C 0.3728(4) 0.6048(8) 0.0032(4)
H63_2 H 0.3633 0.5258 0.0052
C75_2 C 0.3999(4) 0.8358(8) 0.0011(4)
H64_2 H 0.4115 0.9141 0.0009
C80_2 C 0.4435(4) 0.7453(9) 0.0039(4)
H68_2 H 0.4839 0.7665 0.0055
N9_2 N 0.5694(3) 0.3682(7) 0.9957(3)
H25_2 H 0.7799 0.2097 0.9999
C35_2 C 0.6272(4) 0.3952(8) 0.9968(4)
H27_2 H 0.6367 0.4742 0.9948
C36_2 C 0.6001(4) 0.1642(8) 0.9989(4)
H28_2 H 0.5885 0.0859 0.9991
C41_2 C 0.5565(4) 0.2547(9) 0.9961(4)
H32_2 H 0.5161 0.2335 0.9945
C72_2 C 0.2300(5) 0.8685(10) 0.9965(6)
C76_2 C 0.1871(5) 0.9547(12) 0.9918(7)
H65_2 H 0.1469 0.9320 0.9904
C78_2 C 0.2892(4) 0.8990(9) 0.9958(5)
C79_2 C 0.3258(4) 0.6866(9) 0.9992(5)
H67_2 H 0.2857 0.6614 0.9970
C81_2 C 0.3380(4) 0.8048(9) 0.9986(4)
C82_2 C 0.0417(7) 0.2474(11) 0.9617(7)
H69_2 H 0.0819 0.2824 0.9656
H70_2 H 0.0521 0.1726 0.9853
H71_2 H 0.0103 0.2366 0.9127
O20_2 O 0.0151(3) 0.3173(6) 0.9918(4)
C34_2 C 0.6983(5) 0.9841(9) 0.0068(6)
H26_2 H 0.6584 0.9591 0.0050
N10_2 N 0.8026(5) 0.9296(9) 0.0109(6)
C38_2 C 0.7470(6) 0.9023(10) 0.0121(7)
H30_2 H 0.7391 0.8235 0.0169
C43_2 C 0.9583(7) 0.7526(11) 0.0383(7)
H33_2 H 0.9181 0.7176 0.0344
H34_2 H 0.9479 0.8274 0.0147
H35_2 H 0.9897 0.7634 0.0873
O9_2 O 0.9849(3) 0.6827(6) 0.0082(4)
O12_2 O 0.9602(2) 0.4540(4) 0.0670(3)
N15_2 N 0.9027(3) 0.4810(6) 0.9088(3)
C55_2 C 0.8454(4) 0.4967(7) 0.9130(4)
H47_2 H 0.8483 0.5202 0.9560
C56_2 C 0.8957(4) 0.4487(8) 0.8469(5)
H48_2 H 0.9342 0.4370 0.8423
C57_2 C 0.7836(4) 0.4795(7) 0.8572(4)
H49_2 H 0.7460 0.4893 0.8638
C59_2 C 0.6552(4) 0.5015(8) 0.7233(4)
H50_2 H 0.6593 0.5442 0.7623
C60_2 C 0.7750(4) 0.4482(7) 0.7913(4)
C61_2 C 0.7084(4) 0.4387(8) 0.7279(4)
C64_2 C 0.8340(4) 0.4308(8) 0.7874(4)
H53_2 H 0.8324 0.4072 0.7449
C69_2 C 0.5955(4) 0.5023(8) 0.6614(4)
H58_2 H 0.5605 0.5467 0.6603
C70_2 C 0.6961(5) 0.3723(10) 0.6705(5)
H59_2 H 0.7294 0.3234 0.6713
C71_2 C 0.6350(5) 0.3768(10) 0.6113(5)
H60_2 H 0.6287 0.3282 0.5737
H72_2 H 0.980(4) 0.279(7) 0.997(4)
Co1 Co -0.0000 0.30928(13) 0.2500
Co2 Co 0.5000 0.24428(12) 0.2500
S1_2 S 0.08129(9) 0.35365(19) 0.43076(10)
N1_3 N -0.0000 0.1173(8) 0.2500
N2_2 N 0.5000 0.0561(7) 0.2500
S2_2 S 0.56881(9) 0.28305(18) 0.43447(10)
O1_2 O 0.5379(2) 0.2559(4) 0.3580(2)
O4_2 O 0.0513(2) 0.3091(4) 0.3580(3)
O5_2 O 0.1486(3) 0.3951(5) 0.4502(3)
O6_2 O 0.6367(2) 0.3238(5) 0.4577(3)
O7_2 O 0.5658(3) 0.1791(5) 0.4721(3)
C1_2 C 0.3946(4) 0.1986(8) 0.2983(4)
H1_2 H 0.4333 0.1832 0.3402
N4_2 N 0.4001(3) 0.2246(5) 0.2401(3)
O8_2 O 0.0806(3) 0.2605(5) 0.4776(3)
C2_2 C 0.3439(4) 0.2358(7) 0.1794(4)
H2_2 H 0.3466 0.2473 0.1377
H3_2 H 0.4572 0.0381 0.1495
C5_2 C 0.2814(4) 0.2308(7) 0.1766(4)
H4_2 H 0.2431 0.2376 0.1332
N7_2 N 0.0936(3) 0.2889(5) 0.2454(4)
C14_2 C 0.1495(4) 0.2224(8) 0.1814(5)
H10_2 H 0.1462 0.1946 0.1390
C15_2 C 0.2753(4) 0.2156(7) 0.2379(4)
C19_2 C 0.2116(4) 0.2350(7) 0.2394(4)
C23_2 C 0.1526(4) 0.3001(7) 0.3017(5)
H15_2 H 0.1541 0.3256 0.3438
C26_2 C 0.0389(4) 0.0596(8) 0.3064(5)
H18_2 H 0.0662 0.1016 0.3471
C27_2 C 0.2116(4) 0.2758(8) 0.3011(5)
H19_2 H 0.2520 0.2866 0.3419
C28_2 C 0.0925(4) 0.2506(8) 0.1858(5)
H20_2 H 0.0513 0.2426 0.1455
C29_2 C 0.3336(4) 0.1939(8) 0.2986(5)
H21_2 H 0.3321 0.1758 0.3403
N11 N 0.5000 0.4341(8) 0.2500
S4_2 S 0.43119(9) 0.28305(18) 0.06553(10)
O10_2 O 0.4621(2) 0.2559(4) 0.1420(2)
O17_2 O 0.3633(2) 0.3238(5) 0.0423(3)
O18_2 O 0.4342(3) 0.1791(5) 0.0279(3)
N13 N 0.5999(3) 0.2246(5) 0.2599(3)
N14 N 0.0000 0.4944(8) 0.2500
H39_2 H 0.5428 0.0381 0.3505
C3_3 C -0.0000 0.7450(12) 0.2500
C4_2 C 0.4752(5) 0.9971(9) 0.1921(5)
C6_2 C 0.0528(4) 0.5596(8) 0.2954(4)
H5_2 H 0.0907 0.5196 0.3277
C7_2 C 0.0548(4) 0.6779(8) 0.2974(4)
H6_2 H 0.0931 0.7157 0.3307
C8_2 C 0.4739(5) 0.8729(9) 0.1897(5)
H7_2 H 0.4549 0.8340 0.1465
C9_3 C -0.0000 0.8729(10) 0.2500
C10_2 C 0.4516(4) 0.4967(8) 0.1969(4)
H8_2 H 0.4177 0.4559 0.1597
C11_2 C 0.4499(4) 0.6175(8) 0.1950(4)
H9_2 H 0.4157 0.6569 0.1574
C12_2 C 0.5000 0.6791(10) 0.2500
C13_2 C 0.5000 0.8124(10) 0.2500
C24_2 C 0.0420(5) 0.9372(10) 0.3093(5)
H16_2 H 0.0719 0.8993 0.3506
C46_2 C 0.5248(5) 0.9971(9) 0.3079(5)
C50_2 C 0.5261(5) 0.8729(9) 0.3103(5)
H43_2 H 0.5451 0.8340 0.3535
C51_2 C 0.5484(4) 0.4967(8) 0.3031(4)
H44_2 H 0.5823 0.4559 0.3403
C52_2 C 0.5501(4) 0.6175(8) 0.3050(4)
H45_2 H 0.5843 0.6569 0.3426
Co1_2 Co 1.0000 0.30928(13) 0.2500
N1_4 N 1.0000 0.1173(8) 0.2500
S3_2 S 0.91871(9) 0.35365(19) 0.06924(10)
O15_2 O 0.9487(2) 0.3091(4) 0.1420(3)
O16_2 O 0.8514(3) 0.3951(5) 0.0498(3)
C44_2 C 0.6054(4) 0.1986(8) 0.2017(4)
H37_2 H 0.5667 0.1832 0.1598
N14_2 N 1.0000 0.4944(8) 0.2500
O19_2 O 0.9194(3) 0.2605(5) 0.0224(3)
C45_2 C 0.6561(4) 0.2358(7) 0.3206(4)
H38_2 H 0.6534 0.2473 0.3623
C47_2 C 0.7186(4) 0.2308(7) 0.3234(4)
H40_2 H 0.7569 0.2376 0.3668
N16_2 N 0.9064(3) 0.2889(5) 0.2546(4)
C53_2 C 0.8505(4) 0.2224(8) 0.3186(5)
H46_2 H 0.8538 0.1946 0.3610
C54_2 C 0.7247(4) 0.2156(7) 0.2621(4)
C58_2 C 0.7884(4) 0.2350(7) 0.2606(4)
C62_2 C 0.8474(4) 0.3001(7) 0.1983(5)
H51_2 H 0.8459 0.3256 0.1562
C65_2 C 0.9611(4) 0.0596(8) 0.1936(5)
H54_2 H 0.9338 0.1016 0.1529
C66_2 C 0.7884(4) 0.2758(8) 0.1989(5)
H55_2 H 0.7480 0.2866 0.1581
C67_2 C 0.9075(4) 0.2506(8) 0.3142(5)
H56_2 H 0.9487 0.2426 0.3545
C68_2 C 0.6664(4) 0.1939(8) 0.2014(5)
H57_2 H 0.6679 0.1758 0.1597
C3_4 C 1.0000 0.7450(12) 0.2500
C9_4 C 1.0000 0.8729(10) 0.2500
C48_2 C 0.9472(4) 0.5596(8) 0.2046(4)
H41_2 H 0.9093 0.5196 0.1723
C49_2 C 0.9452(4) 0.6779(8) 0.2026(4)
H42_2 H 0.9069 0.7157 0.1693
C63_2 C 0.9580(5) 0.9372(10) 0.1907(5)
H52_2 H 0.9281 0.8993 0.1494
loop_
_geom_bond_atom_site_label_1
_geom_bond_atom_site_label_2
_geom_bond_site_symmetry_1
_geom_bond_site_symmetry_2
C9 C3 1_555 1_555
Co5 N5 1_555 1_555
C48 N5 1_555 1_555
H41 C48 1_555 1_555
C49 C3 1_555 1_555
H42 C49 1_555 1_555
C63 C9 1_555 1_555
H52 C63 1_555 1_555
C48 C49 1_555 1_555
Co5 N1 1_555 1_555
C43 H33 1_555 1_555
H34 C43 1_555 1_555
H35 C43 1_555 1_555
O9 Co3 1_555 1_555
Co7 N12 1_555 1_555
S3 O11 1_555 1_555
Co8_2 O11 1_555 1_555
O12 Co3 1_555 1_555
O15 Co5 1_555 1_555
O16 S3 1_555 1_555
C44 H37 1_555 1_555
N12 C44 1_555 1_555
O19 S3 1_555 1_555
C45 N12 1_555 1_555
H38 C45 1_555 1_555
Co11_2 N17 1_555 1_555
C47 C45 1_555 1_555
H40 C47 1_555 1_555
N15 Co3 1_555 1_555
N16 Co5 1_555 1_555
C53 H46 1_555 1_555
C54 C47 1_555 1_555
C55 N15 1_555 1_555
H47 C55 1_555 1_555
C56 N15 1_555 1_555
H48 C56 1_555 1_555
C57 C55 1_555 1_555
H49 C57 1_555 1_555
C58 C53 1_555 1_555
N17 C69 1_555 1_555
C59 H50 1_555 1_555
C60 C57 1_555 1_555
C61 C59 1_555 1_555
C62 N16 1_555 1_555
H51 C62 1_555 1_555
C64 C56 1_555 1_555
H53 C64 1_555 1_555
C65 N1 1_555 1_555
H54 C65 1_555 1_555
C66 C58 1_555 1_555
H55 C66 1_555 1_555
C67 N16 1_555 1_555
H56 C67 1_555 1_555
C68 C44 1_555 1_555
H57 C68 1_555 1_555
C69 C59 1_555 1_555
H58 C69 1_555 1_555
C70 C61 1_555 1_555
H59 C70 1_555 1_555
C71 N17 1_555 1_555
H60 C71 1_555 1_555
C43 O9 1_555 1_555
S3 O15 1_555 1_555
C53 C67 1_555 1_555
C54 C58 1_555 1_555
C54 C68 1_555 1_555
C60 C61 1_555 1_555
C60 C64 1_555 1_555
C62 C66 1_555 1_555
C70 C71 1_555 1_555
N3 C10 1_555 1_555
N5_2 C6 1_555 1_555
C3_2 C7 1_555 1_555
C6 H5 1_555 1_555
C7 C6 1_555 1_555
H6 C7 1_555 1_555
C8 C4 1_555 1_555
H7 C8 1_555 1_555
C9_2 C3_2 1_555 1_555
C10 H8 1_555 1_555
C11 C10 1_555 1_555
H9 C11 1_555 1_555
C12 C11 1_555 1_555
C13 C8 1_555 1_555
C24 C9_2 1_555 1_555
H16 C24 1_555 1_555
Co5_2 N5_2 1_555 1_555
Co7 N3 1_555 1_555
C50 C13 1_555 1_555
H43 C50 1_555 1_555
C51 N3 1_555 1_555
H44 C51 1_555 1_555
C52 C12 1_555 1_555
H45 C52 1_555 1_555
C73 H62 1_555 1_555
C77 C73 1_555 1_555
H66 C77 1_555 1_555
C12 C13 1_555 1_555
C46 C50 1_555 1_555
C51 C52 1_555 1_555
N21 C77 1_555 1_555
Co5_2 N1_2 1_555 1_555
Co7 N2 1_555 1_555
S1 O2 1_555 1_555
N1_2 C26 1_555 1_555
Co3_2 O2 1_555 1_555
S2 O1 1_555 1_555
O1 Co7 1_555 1_555
O3 S2 1_555 1_555
O4 Co5_2 1_555 1_555
O5 S1 1_555 1_555
O6 S2 1_555 1_555
O7 S2 1_555 1_555
C1 H1 1_555 1_555
N4 Co7 1_555 1_555
O8 S1 1_555 1_555
C2 N4 1_555 1_555
H2 C2 1_555 1_555
Co4 O3 1_555 1_555
C5 C2 1_555 1_555
H4 C5 1_555 1_555
N6 Co3_2 1_555 1_555
N7 Co5_2 1_555 1_555
C14 H10 1_555 1_555
C15 C5 1_555 1_555
C16 N6 1_555 1_555
H11 C16 1_555 1_555
C17 N6 1_555 1_555
H12 C17 1_555 1_555
C18 C16 1_555 1_555
H13 C18 1_555 1_555
C19 C14 1_555 1_555
N8 C30 1_555 1_555
C20 H14 1_555 1_555
C21 C18 1_555 1_555
C22 C20 1_555 1_555
C23 N7 1_555 1_555
H15 C23 1_555 1_555
C25 C17 1_555 1_555
H17 C25 1_555 1_555
H18 C26 1_555 1_555
C27 C19 1_555 1_555
H19 C27 1_555 1_555
C28 N7 1_555 1_555
H20 C28 1_555 1_555
C29 C1 1_555 1_555
H21 C29 1_555 1_555
C30 C20 1_555 1_555
H22 C30 1_555 1_555
C31 C22 1_555 1_555
H23 C31 1_555 1_555
C32 N8 1_555 1_555
H24 C32 1_555 1_555
N9 Co4 1_555 1_555
C33 H25 1_555 1_555
C35 N9 1_555 1_555
H27 C35 1_555 1_555
C36 H28 1_555 1_555
C37 C33 1_555 1_555
H29 C37 1_555 1_555
C39 C33 1_555 1_555
C40 C35 1_555 1_555
H31 C40 1_555 1_555
C41 N9 1_555 1_555
H32 C41 1_555 1_555
C42 C36 1_555 1_555
S4 O10 1_555 1_555
O10 Co7 1_555 1_555
O13 S4 1_555 1_555
O14 Co4 1_555 1_555
O17 S4 1_555 1_555
O18 S4 1_555 1_555
Co11 N8 1_555 1_555
Co11_2 O13 1_555 1_555
N18 Co4 1_555 1_555
N19 Co4 1_555 1_555
N20 Co4 1_555 1_555
C72 H61 1_555 1_555
C74 N20 1_555 1_555
H63 C74 1_555 1_555
C75 H64 1_555 1_555
C76 C72 1_555 1_555
H65 C76 1_555 1_555
C78 C72 1_555 1_555
C79 C74 1_555 1_555
H67 C79 1_555 1_555
C80 N20 1_555 1_555
H68 C80 1_555 1_555
C81 C75 1_555 1_555
C82 H69 1_555 1_555
H70 C82 1_555 1_555
H71 C82 1_555 1_555
O20 Co3_2 1_555 1_555
S1 O4 1_555 1_555
C1 N4 1_555 1_555
C14 C28 1_555 1_555
C15 C19 1_555 1_555
C15 C29 1_555 1_555
C21 C22 1_555 1_555
C21 C25 1_555 1_555
C23 C27 1_555 1_555
C31 C32 1_555 1_555
C36 C41 1_555 1_555
C39 C42 1_555 1_555
C40 C42 1_555 1_555
C75 C80 1_555 1_555
C78 C81 1_555 1_555
C79 C81 1_555 1_555
C82 O20 1_555 1_555
C34 H26 1_555 1_555
C38 C34 1_555 1_555
H30 C38 1_555 1_555
N10 C38 1_555 1_555
C73_2 H62_2 1_555 1_555
C77_2 C73_2 1_555 1_555
H66_2 C77_2 1_555 1_555
N21_2 C77_2 1_555 1_555
N6_2 Co8 1_555 1_555
C16_2 N6_2 1_555 1_555
H11_2 C16_2 1_555 1_555
C17_2 N6_2 1_555 1_555
H12_2 C17_2 1_555 1_555
C18_2 C16_2 1_555 1_555
H13_2 C18_2 1_555 1_555
N19 C30_2 1_555 1_555
C20_2 H14_2 1_555 1_555
C21_2 C18_2 1_555 1_555
C22_2 C20_2 1_555 1_555
C25_2 C17_2 1_555 1_555
H17_2 C25_2 1_555 1_555
C30_2 C20_2 1_555 1_555
H22_2 C30_2 1_555 1_555
C31_2 C22_2 1_555 1_555
H23_2 C31_2 1_555 1_555
C32_2 N19 1_555 1_555
H24_2 C32_2 1_555 1_555
C37_2 C33_2 1_555 1_555
H29_2 C37_2 1_555 1_555
C39_2 C33_2 1_555 1_555
H31_2 C40_2 1_555 1_555
O14_2 Co11 1_555 1_555
N20_2 Co11 1_555 1_555
C74_2 N20_2 1_555 1_555
H63_2 C74_2 1_555 1_555
C75_2 H64_2 1_555 1_555
C80_2 N20_2 1_555 1_555
H68_2 C80_2 1_555 1_555
C21_2 C22_2 1_555 1_555
C21_2 C25_2 1_555 1_555
C31_2 C32_2 1_555 1_555
C39_2 C42_2 1_555 1_555
C40_2 C42_2 1_555 1_555
C75_2 C80_2 1_555 1_555
N9_2 Co11_2 1_555 1_555
C35_2 N9_2 1_555 1_555
H27_2 C35_2 1_555 1_555
C36_2 H28_2 1_555 1_555
C41_2 N9_2 1_555 1_555
H32_2 C41_2 1_555 1_555
C76_2 C72_2 1_555 1_555
H65_2 C76_2 1_555 1_555
C78_2 C72_2 1_555 1_555
H67_2 C79_2 1_555 1_555
C82_2 H69_2 1_555 1_555
H70_2 C82_2 1_555 1_555
H71_2 C82_2 1_555 1_555
O20_2 Co8_2 1_555 1_555
C36_2 C41_2 1_555 1_555
C78_2 C81_2 1_555 1_555
C79_2 C81_2 1_555 1_555
C82_2 O20_2 1_555 1_555
C34_2 H26_2 1_555 1_555
C38_2 C34_2 1_555 1_555
H30_2 C38_2 1_555 1_555
N10_2 C38_2 1_555 1_555
C43_2 H33_2 1_555 1_555
H34_2 C43_2 1_555 1_555
H35_2 C43_2 1_555 1_555
O9_2 Co8_3 1_555 1_555
O12_2 Co8_3 1_555 1_555
C43_2 O9_2 1_555 1_555
N15_2 Co8_4 1_555 1_555
C55_2 N15_2 1_555 1_555
H47_2 C55_2 1_555 1_555
C56_2 N15_2 1_555 1_555
H48_2 C56_2 1_555 1_555
C57_2 C55_2 1_555 1_555
H49_2 C57_2 1_555 1_555
N18 C69_2 1_555 1_555
C59_2 H50_2 1_555 1_555
C60_2 C57_2 1_555 1_555
C61_2 C59_2 1_555 1_555
C64_2 C56_2 1_555 1_555
H53_2 C64_2 1_555 1_555
C69_2 C59_2 1_555 1_555
H58_2 C69_2 1_555 1_555
C70_2 C61_2 1_555 1_555
H59_2 C70_2 1_555 1_555
C71_2 N18 1_555 1_555
H60_2 C71_2 1_555 1_555
C60_2 C61_2 1_555 1_555
C60_2 C64_2 1_555 1_555
C70_2 C71_2 1_555 1_555
Co1 N1_3 1_555 1_555
Co2 N2_2 1_555 1_555
S1_2 O12 1_555 1_555
N1_3 C26_2 1_555 1_555
S2_2 O1_2 1_555 1_555
O1_2 Co2 1_555 1_555
O14 S2_2 1_555 1_555
O4_2 Co1 1_555 1_555
O5_2 S1_2 1_555 1_555
O6_2 S2_2 1_555 1_555
O7_2 S2_2 1_555 1_555
C1_2 H1_2 1_555 1_555
N4_2 Co2 1_555 1_555
O8_2 S1_2 1_555 1_555
C2_2 N4_2 1_555 1_555
H2_2 C2_2 1_555 1_555
C5_2 C2_2 1_555 1_555
H4_2 C5_2 1_555 1_555
N7_2 Co1 1_555 1_555
C14_2 H10_2 1_555 1_555
C15_2 C5_2 1_555 1_555
C19_2 C14_2 1_555 1_555
C23_2 N7_2 1_555 1_555
H15_2 C23_2 1_555 1_555
H18_2 C26_2 1_555 1_555
C27_2 C19_2 1_555 1_555
H19_2 C27_2 1_555 1_555
C28_2 N7_2 1_555 1_555
H20_2 C28_2 1_555 1_555
C29_2 C1_2 1_555 1_555
H21_2 C29_2 1_555 1_555
N11 Co2 1_555 1_555
S4_2 O10_2 1_555 1_555
O10_2 Co2 1_555 1_555
O14_2 S4_2 1_555 1_555
O17_2 S4_2 1_555 1_555
O18_2 S4_2 1_555 1_555
N13 Co2 1_555 1_555
N14 Co1 1_555 1_555
S1_2 O4_2 1_555 1_555
C1_2 N4_2 1_555 1_555
C14_2 C28_2 1_555 1_555
C15_2 C19_2 1_555 1_555
C15_2 C29_2 1_555 1_555
C23_2 C27_2 1_555 1_555
N11 C10_2 1_555 1_555
N14 C6_2 1_555 1_555
C3_3 C7_2 1_555 1_555
C6_2 H5_2 1_555 1_555
C7_2 C6_2 1_555 1_555
H6_2 C7_2 1_555 1_555
C8_2 C4_2 1_555 1_555
H7_2 C8_2 1_555 1_555
C9_3 C3_3 1_555 1_555
C10_2 H8_2 1_555 1_555
C11_2 C10_2 1_555 1_555
H9_2 C11_2 1_555 1_555
C12_2 C11_2 1_555 1_555
C13_2 C8_2 1_555 1_555
C24_2 C9_3 1_555 1_555
H16_2 C24_2 1_555 1_555
C50_2 C13_2 1_555 1_555
H43_2 C50_2 1_555 1_555
C51_2 N11 1_555 1_555
H44_2 C51_2 1_555 1_555
C52_2 C12_2 1_555 1_555
H45_2 C52_2 1_555 1_555
C12_2 C13_2 1_555 1_555
C46_2 C50_2 1_555 1_555
C51_2 C52_2 1_555 1_555
Co1_2 N1_4 1_555 1_555
S3_2 O12_2 1_555 1_555
O15_2 Co1_2 1_555 1_555
O16_2 S3_2 1_555 1_555
C44_2 H37_2 1_555 1_555
N13 C44_2 1_555 1_555
N14_2 Co1_2 1_555 1_555
O19_2 S3_2 1_555 1_555
C45_2 N13 1_555 1_555
H38_2 C45_2 1_555 1_555
C47_2 C45_2 1_555 1_555
H40_2 C47_2 1_555 1_555
N16_2 Co1_2 1_555 1_555
C53_2 H46_2 1_555 1_555
C54_2 C47_2 1_555 1_555
C58_2 C53_2 1_555 1_555
C62_2 N16_2 1_555 1_555
H51_2 C62_2 1_555 1_555
C65_2 N1_4 1_555 1_555
H54_2 C65_2 1_555 1_555
C66_2 C58_2 1_555 1_555
H55_2 C66_2 1_555 1_555
C67_2 N16_2 1_555 1_555
H56_2 C67_2 1_555 1_555
C68_2 C44_2 1_555 1_555
H57_2 C68_2 1_555 1_555
S3_2 O15_2 1_555 1_555
C53_2 C67_2 1_555 1_555
C54_2 C58_2 1_555 1_555
C54_2 C68_2 1_555 1_555
C62_2 C66_2 1_555 1_555
C9_4 C3_4 1_555 1_555
C48_2 N14_2 1_555 1_555
H41_2 C48_2 1_555 1_555
C49_2 C3_4 1_555 1_555
H42_2 C49_2 1_555 1_555
C63_2 C9_4 1_555 1_555
H52_2 C63_2 1_555 1_555
C48_2 C49_2 1_555 1_555

#END
