
###############################################################################
#
# This file contains modified crystal structure data generated from the
# MOF subset of the Cambridge Structural Database (CSD) v543 
# hosted by the Cambridge Crystallographic Data Centre (CCDC).
#
# This work is licensed under the Creative Commons
# Attribution-NonCommercial-ShareAlike 4.0 International License.
# To view a copy of this license, visit
# http://creativecommons.org/licenses/by-nc-sa/4.0/
# or send a letter to
# Creative Commons, PO Box 1866, Mountain View, CA 94042, USA.
#
# CIF created using the CSD Python API on 29 September 2022
# The structure has been converted into the P1 space group
# The structure has a 3D framework
# The original CSD entry REZXIE01 is in the hexagonal crystal system
# The framework has been calculated to contain at least 10.0% void space
# The void calculation uses a probe of radius 1.32A, grid spacing 0.4
# The framework is charged, counterions have been retained in the structure
# H atom positions have been added when not included in the experimental data
# Generated hydrogen atom positions removed from atoms on special positions
#
###############################################################################

data_REZXIE01
_chemical_formula_moiety         '(C24 H30 Fe6 O32 4+)n'
_symmetry_cell_setting           triclinic
_symmetry_space_group_name_H-M   'P 1'
_symmetry_Int_Tables_number      1
_space_group_name_Hall           'P 1'
loop_
_symmetry_equiv_pos_site_id
_symmetry_equiv_pos_as_xyz
1 x,y,z
_cell_length_a                   13.871(1)
_cell_length_b                   13.871(1)
_cell_length_c                   12.663(1)
_cell_angle_alpha                90
_cell_angle_beta                 90
_cell_angle_gamma                120
_cell_volume                     2110
loop_
_atom_site_label
_atom_site_type_symbol
_atom_site_fract_x
_atom_site_fract_y
_atom_site_fract_z
_atom_site_U_iso_or_equiv
_atom_site_thermal_displace_type
Fe6 Fe 0.2294 0.5160 0.7500 0.0000 Uiso
Fe7 Fe 0.2866 0.7706 0.7500 0.0000 Uiso
O7 O 0.1919 0.5705 0.6065 0.0000 Uiso
O15 O 0.1478 0.6932 0.6356 0.0000 Uiso
C5 C 0.1180 0.5934 0.6113 0.0000 Uiso
C10 C 0.0088 0.5160 0.5582 0.0000 Uiso
H3 H 0.0619691 0.524927 0.108346 . .
H12 H 0.0619691 0.524927 0.391654 . .
O5 O 0.1919 0.5705 0.8935 0.0000 Uiso
O13 O 0.1478 0.6932 0.8644 0.0000 Uiso
C3 C 0.1180 0.5934 0.8887 0.0000 Uiso
C8 C 0.0088 0.5160 0.9418 0.0000 Uiso
Fe1 Fe 0.7706 0.2866 0.2500 0.0000 Uiso
O1 O 0.6667 0.3333 0.2500 0.0000 Uiso
O2 O 0.8081 0.3786 0.1065 0.0000 Uiso
O3 O 0.8522 0.5454 0.1356 0.0000 Uiso
O4 O 0.9192 0.3046 0.2500 0.0000 Uiso
C1 C 0.8820 0.4754 0.1113 0.0000 Uiso
C2 C 0.9912 0.5072 0.0582 0.0000 Uiso
Fe2 Fe 0.7134 0.4840 0.2500 0.0000 Uiso
Fe3 Fe 0.5160 0.2294 0.2500 0.0000 Uiso
O6 O 0.8081 0.3786 0.3935 0.0000 Uiso
O8 O 0.5705 0.1919 0.1065 0.0000 Uiso
O10 O 0.6214 0.4295 0.1065 0.0000 Uiso
O11 O 0.6214 0.4295 0.3935 0.0000 Uiso
O12 O 0.5705 0.1919 0.3935 0.0000 Uiso
O14 O 0.8522 0.5454 0.3644 0.0000 Uiso
O16 O 0.6932 0.1478 0.1356 0.0000 Uiso
O18 O 0.6932 0.1478 0.3644 0.0000 Uiso
O19 O 0.4546 0.3068 0.1356 0.0000 Uiso
O20 O 0.4546 0.3068 0.3644 0.0000 Uiso
O21 O 0.6954 0.6146 0.2500 0.0000 Uiso
O22 O 0.3854 0.0808 0.2500 0.0000 Uiso
C4 C 0.8820 0.4754 0.3887 0.0000 Uiso
C6 C 0.5934 0.1180 0.1113 0.0000 Uiso
C9 C 0.9912 0.5072 0.4418 0.0000 Uiso
C11 C 0.5160 0.0088 0.0582 0.0000 Uiso
H5 H 0.938031 0.462958 0.608346 . .
H4 H 0.938031 0.462958 0.891654 . .
H8 H 0.524927 0.0619691 0.891654 . .
H9 H 0.462958 0.938031 0.108346 . .
Fe9 Fe 0.4840 0.7134 0.7500 0.0000 Uiso
O9 O 0.3786 0.8081 0.8935 0.0000 Uiso
O17 O 0.5454 0.8522 0.8644 0.0000 Uiso
C7 C 0.4754 0.8820 0.8887 0.0000 Uiso
C12 C 0.5072 0.9912 0.9418 0.0000 Uiso
C1_2 C 0.5934 0.1180 0.3887 0.0000 Uiso
C2_2 C 0.5160 0.0088 0.4418 0.0000 Uiso
O9_2 O 0.4295 0.6214 0.6065 0.0000 Uiso
O17_2 O 0.3068 0.4546 0.6356 0.0000 Uiso
C6_2 C 0.5246 0.4066 0.3887 0.0000 Uiso
C7_2 C 0.4066 0.5246 0.6113 0.0000 Uiso
C11_2 C 0.4928 0.4840 0.4418 0.0000 Uiso
C12_2 C 0.4840 0.4928 0.5582 0.0000 Uiso
H4_2 H 0.524927 0.0619691 0.608346 . .
H8_2 H 0.537042 0.475073 0.608346 . .
H9_2 H 0.475073 0.537042 0.391654 . .
O5_2 O 0.3786 0.8081 0.6065 0.0000 Uiso
O13_2 O 0.5454 0.8522 0.6356 0.0000 Uiso
C3_2 C 0.4754 0.8820 0.6113 0.0000 Uiso
C8_2 C 0.5072 0.9912 0.5582 0.0000 Uiso
H3_2 H 0.462958 0.938031 0.391654 . .
O1_2 O 0.3333 0.6667 0.7500 0.0000 Uiso
O4_2 O 0.3046 0.9192 0.7500 0.0000 Uiso
O11_2 O 0.4295 0.6214 0.8935 0.0000 Uiso
O20_2 O 0.3068 0.4546 0.8644 0.0000 Uiso
O21_2 O 0.6146 0.6954 0.7500 0.0000 Uiso
O22_2 O 0.0808 0.3854 0.7500 0.0000 Uiso
C1_3 C 0.5246 0.4066 0.1113 0.0000 Uiso
C2_3 C 0.4928 0.4840 0.0582 0.0000 Uiso
H3_3 H 0.475073 0.537042 0.108346 . .
C3_3 C 0.4066 0.5246 0.8887 0.0000 Uiso
C8_3 C 0.4840 0.4928 0.9418 0.0000 Uiso
H4_3 H 0.537042 0.475073 0.891654 . .
loop_
_geom_bond_atom_site_label_1
_geom_bond_atom_site_label_2
_geom_bond_site_symmetry_1
_geom_bond_site_symmetry_2
Fe6 O7 1_555 1_555
Fe7 O15 1_555 1_555
O7 C5 1_555 1_555
O15 C5 1_555 1_555
C5 C10 1_555 1_555
Fe6 O5 1_555 1_555
Fe7 O13 1_555 1_555
O5 C3 1_555 1_555
O13 C3 1_555 1_555
C3 C8 1_555 1_555
Fe1 O1 1_555 1_555
O1 Fe2 1_555 1_555
O2 Fe1 1_555 1_555
O3 C1 1_555 1_555
O4 Fe1 1_555 1_555
C1 O2 1_555 1_555
C2 C1 1_555 1_555
Fe2 O3 1_555 1_555
Fe3 O1 1_555 1_555
O6 Fe1 1_555 1_555
O8 Fe3 1_555 1_555
O10 Fe2 1_555 1_555
O11 Fe2 1_555 1_555
O12 Fe3 1_555 1_555
O14 Fe2 1_555 1_555
O16 Fe1 1_555 1_555
O18 Fe1 1_555 1_555
O19 Fe3 1_555 1_555
O20 Fe3 1_555 1_555
O21 Fe2 1_555 1_555
O22 Fe3 1_555 1_555
C4 O6 1_555 1_555
C6 O8 1_555 1_555
C9 C4 1_555 1_555
C11 C6 1_555 1_555
O14 C4 1_555 1_555
O16 C6 1_555 1_555
Fe7 O9 1_555 1_555
Fe9 O17 1_555 1_555
O9 C7 1_555 1_555
O17 C7 1_555 1_555
C7 C12 1_555 1_555
O18 C1_2 1_555 1_555
C1_2 O12 1_555 1_555
C2_2 C1_2 1_555 1_555
Fe9 O9_2 1_555 1_555
Fe6 O17_2 1_555 1_555
O9_2 C7_2 1_555 1_555
O17_2 C7_2 1_555 1_555
C6_2 O11 1_555 1_555
C7_2 C12_2 1_555 1_555
C11_2 C6_2 1_555 1_555
C12_2 C11_2 1_555 1_555
O20 C6_2 1_555 1_555
C12_2 H8_2 1_555 1_555
C11_2 H9_2 1_555 1_555
Fe7 O5_2 1_555 1_555
Fe9 O13_2 1_555 1_555
O5_2 C3_2 1_555 1_555
O13_2 C3_2 1_555 1_555
C3_2 C8_2 1_555 1_555
Fe7 O1_2 1_555 1_555
O1_2 Fe9 1_555 1_555
O4_2 Fe7 1_555 1_555
Fe6 O1_2 1_555 1_555
O11_2 Fe9 1_555 1_555
O20_2 Fe6 1_555 1_555
O21_2 Fe9 1_555 1_555
O22_2 Fe6 1_555 1_555
O19 C1_3 1_555 1_555
C1_3 O10 1_555 1_555
C2_3 C1_3 1_555 1_555
C2_3 H3_3 1_555 1_555
O11_2 C3_3 1_555 1_555
O20_2 C3_3 1_555 1_555
C3_3 C8_3 1_555 1_555
C8_3 H4_3 1_555 1_555

#END
