
###############################################################################
#
# This file contains modified crystal structure data generated from the
# MOF subset of the Cambridge Structural Database (CSD) v543 
# hosted by the Cambridge Crystallographic Data Centre (CCDC).
#
# This work is licensed under the Creative Commons
# Attribution-NonCommercial-ShareAlike 4.0 International License.
# To view a copy of this license, visit
# http://creativecommons.org/licenses/by-nc-sa/4.0/
# or send a letter to
# Creative Commons, PO Box 1866, Mountain View, CA 94042, USA.
#
# CIF created using the CSD Python API on 29 September 2022
# The structure has been converted into the P1 space group
# The structure has a 3D framework
# The original CSD entry REZXEA is in the hexagonal crystal system
# The framework has been calculated to contain at least 10.0% void space
# The void calculation uses a probe of radius 1.32A, grid spacing 0.4
# The framework is charged, counterions have been retained in the structure
# H atom positions have been added when not included in the experimental data
# Generated hydrogen atom positions removed from atoms on special positions
#
###############################################################################

data_REZXEA
_chemical_formula_moiety         '(C48 H96 Cr6 O32 4+)n'
_symmetry_cell_setting           triclinic
_symmetry_space_group_name_H-M   'P 1'
_symmetry_Int_Tables_number      1
_space_group_name_Hall           'P 1'
loop_
_symmetry_equiv_pos_site_id
_symmetry_equiv_pos_as_xyz
1 x,y,z
_cell_length_a                   15.6261(10)
_cell_length_b                   15.6261(10)
_cell_length_c                   15.9604(10)
_cell_angle_alpha                90
_cell_angle_beta                 90
_cell_angle_gamma                120
_cell_volume                     3375.01
loop_
_atom_site_label
_atom_site_type_symbol
_atom_site_fract_x
_atom_site_fract_y
_atom_site_fract_z
Cr8 Cr 0.2648 0.7352 0.2500
Cr9 Cr 0.2648 0.5296 0.2500
O13 O 0.1708 0.6553 0.1586
O14 O 0.1708 0.5155 0.1586
C8 C 0.1514 0.5757 0.1214
C13 C 0.0850 0.5425 0.0517
C22 C 0.0339 0.4414 0.0348
C23 C 0.0339 0.5925 0.0348
H5 H 0.0448635 0.38985 0.0728959
H10 H 0.0448635 0.655014 0.0728959
O9 O 0.1708 0.6553 0.3414
O10 O 0.1708 0.5155 0.3414
C6 C 0.1514 0.5757 0.3786
C11 C 0.0850 0.5425 0.4483
C18 C 0.0339 0.4414 0.4652
C19 C 0.0339 0.5925 0.4652
H4 H 0.0448635 0.655014 0.427104
H13 H 0.0448635 0.38985 0.427104
Cr4 Cr 0.4704 0.7352 0.2500
O5 O 0.4845 0.6553 0.1586
O6 O 0.3447 0.5155 0.1586
C4 C 0.4243 0.5757 0.1214
C9 C 0.4575 0.5425 0.0517
C14 C 0.4075 0.4414 0.0348
C15 C 0.5586 0.5925 0.0348
H9 H 0.61015 0.655014 0.0728959
H15 H 0.344986 0.38985 0.0728959
Cr1 Cr 0.7352 0.4704 0.7500
O1 O 0.6667 0.3333 0.7500
O2 O 0.6553 0.4845 0.8414
O3 O 0.8105 0.6209 0.7500
C1 C 0.5757 0.4243 0.8786
C2 C 0.5425 0.4575 0.9483
C3 C 0.4414 0.4075 0.9652
Cr2 Cr 0.5296 0.2648 0.7500
Cr3 Cr 0.7352 0.2648 0.7500
O4 O 0.5155 0.3447 0.8414
O7 O 0.8292 0.4845 0.6586
O8 O 0.8292 0.3447 0.6586
O11 O 0.8292 0.4845 0.8414
O12 O 0.8292 0.3447 0.8414
O15 O 0.6553 0.4845 0.6586
O16 O 0.5155 0.3447 0.6586
O17 O 0.5155 0.1708 0.8414
O18 O 0.5155 0.1708 0.6586
O19 O 0.6553 0.1708 0.6586
O20 O 0.6553 0.1708 0.8414
O21 O 0.3791 0.1895 0.7500
O22 O 0.8104 0.1895 0.7500
C5 C 0.8486 0.4243 0.6214
C7 C 0.8486 0.4243 0.8786
C10 C 0.9150 0.4575 0.5517
C12 C 0.9150 0.4575 0.9483
C16 C 0.5925 0.5586 0.9652
C17 C 0.9661 0.4075 0.5348
C20 C 0.9661 0.5586 0.5348
C21 C 0.9661 0.4075 0.9652
C24 C 0.9661 0.5586 0.9652
H1 H 0.38985 0.344986 0.927104
H6 H 0.955137 0.344986 0.927104
H11 H 0.655014 0.61015 0.927104
H12 H 0.955137 0.344986 0.572896
H14 H 0.955137 0.61015 0.927104
H18 H 0.955137 0.61015 0.572896
C8_2 C 0.5757 0.1514 0.6214
C13_2 C 0.5425 0.0850 0.5517
C22_2 C 0.5925 0.0339 0.5348
C23_2 C 0.4414 0.0339 0.5348
H5_2 H 0.655014 0.0448635 0.572896
H10_2 H 0.38985 0.0448635 0.572896
C6_2 C 0.5757 0.1514 0.8786
C11_2 C 0.5425 0.0850 0.9483
C18_2 C 0.5925 0.0339 0.9652
C19_2 C 0.4414 0.0339 0.9652
H4_2 H 0.38985 0.0448635 0.927104
H13_2 H 0.655014 0.0448635 0.927104
O1_2 O 0.3334 0.6667 0.2500
O3_2 O 0.1896 0.8105 0.2500
O7_2 O 0.3447 0.8292 0.1586
O8_2 O 0.4845 0.8292 0.1586
O11_2 O 0.3447 0.8292 0.3414
O12_2 O 0.4845 0.8292 0.3414
O17_2 O 0.3447 0.5155 0.3414
O20_2 O 0.4845 0.6553 0.3414
O21_2 O 0.1896 0.3791 0.2500
O22_2 O 0.6209 0.8104 0.2500
C5_2 C 0.4243 0.8486 0.1214
C7_2 C 0.4243 0.8486 0.3786
C10_2 C 0.4575 0.9150 0.0517
C12_2 C 0.4575 0.9150 0.4483
C17_2 C 0.5586 0.9661 0.0348
C20_2 C 0.4075 0.9661 0.0348
C21_2 C 0.5586 0.9661 0.4652
C24_2 C 0.4075 0.9661 0.4652
H6_2 H 0.61015 0.955137 0.427104
H12_2 H 0.61015 0.955137 0.0728959
H14_2 H 0.344986 0.955137 0.427104
H18_2 H 0.344986 0.955137 0.0728959
C1_2 C 0.5757 0.4243 0.6214
C2_2 C 0.5425 0.4575 0.5517
C3_2 C 0.5925 0.5586 0.5348
C4_2 C 0.4243 0.5757 0.3786
C9_2 C 0.4575 0.5425 0.4483
C14_2 C 0.5586 0.5925 0.4652
C15_2 C 0.4075 0.4414 0.4652
C16_2 C 0.4414 0.4075 0.5348
H1_2 H 0.655014 0.61015 0.572896
H9_2 H 0.344986 0.38985 0.427104
H11_2 H 0.38985 0.344986 0.572896
H15_2 H 0.61015 0.655014 0.427104
loop_
_geom_bond_atom_site_label_1
_geom_bond_atom_site_label_2
_geom_bond_site_symmetry_1
_geom_bond_site_symmetry_2
Cr8 O13 1_555 1_555
Cr9 O14 1_555 1_555
O13 C8 1_555 1_555
O14 C8 1_555 1_555
C8 C13 1_555 1_555
C13 C22 1_555 1_555
C23 C13 1_555 1_555
C22 H5 1_555 1_555
C23 H10 1_555 1_555
Cr8 O9 1_555 1_555
Cr9 O10 1_555 1_555
O9 C6 1_555 1_555
O10 C6 1_555 1_555
C6 C11 1_555 1_555
C11 C18 1_555 1_555
C19 C11 1_555 1_555
C19 H4 1_555 1_555
C18 H13 1_555 1_555
Cr4 O5 1_555 1_555
Cr9 O6 1_555 1_555
O5 C4 1_555 1_555
O6 C4 1_555 1_555
C4 C9 1_555 1_555
C9 C14 1_555 1_555
C15 C9 1_555 1_555
C15 H9 1_555 1_555
C14 H15 1_555 1_555
Cr1 O1 1_555 1_555
O1 Cr2 1_555 1_555
O2 Cr1 1_555 1_555
O3 Cr1 1_555 1_555
C1 O2 1_555 1_555
C2 C1 1_555 1_555
C3 C2 1_555 1_555
Cr2 O4 1_555 1_555
Cr3 O1 1_555 1_555
O4 C1 1_555 1_555
O7 Cr1 1_555 1_555
O8 Cr3 1_555 1_555
O11 Cr1 1_555 1_555
O12 Cr3 1_555 1_555
O15 Cr1 1_555 1_555
O16 Cr2 1_555 1_555
O17 Cr2 1_555 1_555
O18 Cr2 1_555 1_555
O19 Cr3 1_555 1_555
O20 Cr3 1_555 1_555
O21 Cr2 1_555 1_555
O22 Cr3 1_555 1_555
C5 O7 1_555 1_555
C7 O11 1_555 1_555
C10 C5 1_555 1_555
C12 C7 1_555 1_555
C16 C2 1_555 1_555
C17 C10 1_555 1_555
C20 C10 1_555 1_555
C21 C12 1_555 1_555
C24 C12 1_555 1_555
O8 C5 1_555 1_555
O12 C7 1_555 1_555
C3 H1 1_555 1_555
C21 H6 1_555 1_555
C16 H11 1_555 1_555
C17 H12 1_555 1_555
C24 H14 1_555 1_555
C20 H18 1_555 1_555
O18 C8_2 1_555 1_555
O19 C8_2 1_555 1_555
C8_2 C13_2 1_555 1_555
C13_2 C22_2 1_555 1_555
C23_2 C13_2 1_555 1_555
C22_2 H5_2 1_555 1_555
C23_2 H10_2 1_555 1_555
O17 C6_2 1_555 1_555
O20 C6_2 1_555 1_555
C6_2 C11_2 1_555 1_555
C11_2 C18_2 1_555 1_555
C19_2 C11_2 1_555 1_555
C19_2 H4_2 1_555 1_555
C18_2 H13_2 1_555 1_555
Cr8 O1_2 1_555 1_555
O1_2 Cr9 1_555 1_555
O3_2 Cr8 1_555 1_555
Cr4 O1_2 1_555 1_555
O7_2 Cr8 1_555 1_555
O8_2 Cr4 1_555 1_555
O11_2 Cr8 1_555 1_555
O12_2 Cr4 1_555 1_555
O17_2 Cr9 1_555 1_555
O20_2 Cr4 1_555 1_555
O21_2 Cr9 1_555 1_555
O22_2 Cr4 1_555 1_555
C5_2 O7_2 1_555 1_555
C7_2 O11_2 1_555 1_555
C10_2 C5_2 1_555 1_555
C12_2 C7_2 1_555 1_555
C17_2 C10_2 1_555 1_555
C20_2 C10_2 1_555 1_555
C21_2 C12_2 1_555 1_555
C24_2 C12_2 1_555 1_555
O8_2 C5_2 1_555 1_555
O12_2 C7_2 1_555 1_555
C21_2 H6_2 1_555 1_555
C17_2 H12_2 1_555 1_555
C24_2 H14_2 1_555 1_555
C20_2 H18_2 1_555 1_555
C1_2 O16 1_555 1_555
C2_2 C1_2 1_555 1_555
C3_2 C2_2 1_555 1_555
O15 C1_2 1_555 1_555
O17_2 C4_2 1_555 1_555
O20_2 C4_2 1_555 1_555
C4_2 C9_2 1_555 1_555
C9_2 C14_2 1_555 1_555
C14_2 C3_2 1_555 1_555
C15_2 C9_2 1_555 1_555
C16_2 C2_2 1_555 1_555
C15_2 C16_2 1_555 1_555
C3_2 H1_2 1_555 1_555
C15_2 H9_2 1_555 1_555
C16_2 H11_2 1_555 1_555
C14_2 H15_2 1_555 1_555

#END
