
###############################################################################
#
# This file contains modified crystal structure data generated from the
# MOF subset of the Cambridge Structural Database (CSD) v543 
# hosted by the Cambridge Crystallographic Data Centre (CCDC).
#
# This work is licensed under the Creative Commons
# Attribution-NonCommercial-ShareAlike 4.0 International License.
# To view a copy of this license, visit
# http://creativecommons.org/licenses/by-nc-sa/4.0/
# or send a letter to
# Creative Commons, PO Box 1866, Mountain View, CA 94042, USA.
#
# CIF created using the CSD Python API on 29 September 2022
# The structure has been converted into the P1 space group
# The structure has a 3D framework
# The original CSD entry RIBCEN is in the monoclinic crystal system
# The framework has been calculated to contain at least 10.0% void space
# The void calculation uses a probe of radius 1.32A, grid spacing 0.4
#
###############################################################################

data_RIBCEN
_chemical_formula_moiety         '(C336 H176 Cu12 O80)n'
_symmetry_cell_setting           triclinic
_symmetry_space_group_name_H-M   'P 1'
_symmetry_Int_Tables_number      1
_space_group_name_Hall           'P 1'
loop_
_symmetry_equiv_pos_site_id
_symmetry_equiv_pos_as_xyz
1 x,y,z
_cell_length_a                   42.7196(15)
_cell_length_b                   23.6272(18)
_cell_length_c                   21.5936(9)
_cell_angle_alpha                90
_cell_angle_beta                 120.317(4)
_cell_angle_gamma                90
_cell_volume                     18814.8
loop_
_atom_site_label
_atom_site_type_symbol
_atom_site_fract_x
_atom_site_fract_y
_atom_site_fract_z
O2 O 0.64542(13) 0.4210(2) 0.8460(3)
O4 O 0.64563(12) 0.4813(2) 0.7683(2)
O6 O 0.64183(13) 0.4262(3) 0.3426(3)
O7 O 0.22003(13) 0.0158(2) 0.3477(3)
O8 O 0.22042(13) 0.0744(3) 0.4289(3)
O9 O 0.21433(13) 0.0153(3) 0.0031(2)
O10 O 0.64000(13) 0.4883(3) 0.4182(3)
C1 C 0.23222(16) 0.0551(4) 0.3885(4)
C2 C 0.26390(17) 0.0896(4) 0.3940(4)
C3 C 0.40467(19) 0.2162(4) 0.3260(4)
C4 C 0.45984(18) 0.2735(4) 0.3747(4)
C5 C 0.3233(2) 0.1392(4) 0.4018(5)
C6 C 0.4321(2) 0.2424(4) 0.3185(4)
H5 H 0.431815 0.238979 0.274389
C7 C 0.2781(2) 0.1340(4) 0.4355(5)
H6 H 0.266682 0.150256 0.459292
C8 C 0.4902(2) 0.3020(4) 0.5049(4)
C9 C 0.4862(2) 0.3006(4) 0.3690(4)
C10 C 0.46140(18) 0.2728(4) 0.4456(4)
C11 C 0.4351(2) 0.2448(4) 0.4533(4)
H7 H 0.436317 0.243762 0.498475
C12 C 0.2792(2) 0.0695(5) 0.3565(5)
H8 H 0.268713 0.037887 0.325565
C13 C 0.3758(2) 0.1878(5) 0.2685(4)
C14 C 0.54482(19) 0.3507(4) 0.6127(4)
C15 C 0.40655(18) 0.2178(4) 0.3935(3)
C16 C 0.3496(3) 0.1638(5) 0.2209(4)
C17 C 0.3105(3) 0.1572(6) 0.4443(7)
H9 H 0.323217 0.185318 0.479763
C18 C 0.3777(2) 0.1914(5) 0.4008(4)
C19 C 0.5087(2) 0.3240(4) 0.3652(4)
C20 C 0.3546(2) 0.1646(5) 0.4041(5)
C21 C 0.3099(2) 0.0945(4) 0.3628(5)
H10 H 0.321219 0.078749 0.338485
C23 C 0.62950(19) 0.4441(3) 0.3771(4)
C24 C 0.58385(19) 0.3717(5) 0.3317(4)
H11 H 0.593273 0.361280 0.301820
C25 C 0.59708(17) 0.4162(3) 0.3731(4)
C26 C 0.5804(2) 0.4365(4) 0.4095(5)
H12 H 0.589306 0.469933 0.437531
C27 C 0.60362(16) 0.4082(3) 0.7266(4)
C28 C 0.2591(2) 0.0865(4) 0.0471(3)
C29 C 0.2811(2) 0.1179(4) 0.0356(5)
C30 C 0.63362(18) 0.4375(3) 0.7862(4)
C31 C 0.5150(2) 0.3227(4) 0.5540(4)
C32 C 0.5923(2) 0.4254(5) 0.6548(4)
H14 H 0.604252 0.454497 0.644326
C33 C 0.5544(2) 0.3369(4) 0.3304(4)
H15 H 0.546714 0.302651 0.303810
C34 C 0.5883(2) 0.3655(5) 0.7394(4)
H16 H 0.596878 0.353903 0.787479
C35 C 0.5509(3) 0.4089(6) 0.4058(5)
H17 H 0.538556 0.424718 0.427943
C36 C 0.53902(19) 0.3553(5) 0.3676(4)
C37 C 0.3201(2) 0.1379(4) 0.1602(4)
C38 C 0.5582(2) 0.3355(5) 0.6808(4)
H18 H 0.547869 0.304060 0.691456
C39 C 0.5610(3) 0.3948(5) 0.5987(4)
H19 H 0.551476 0.406179 0.550242
C40 C 0.3113(2) 0.1430(5) 0.0926(4)
H20 H 0.326593 0.165244 0.082164
C41 C 0.2996(3) 0.1042(6) 0.1701(6)
H21 H 0.306333 0.094570 0.218001
C42 C 0.2673(3) 0.0805(5) 0.1133(5)
H22 H 0.251527 0.059816 0.123926
Cu3 Cu 0.68136(2) 0.46659(5) 0.33919(5)
Cu5 Cu 0.68136(2) 0.53341(5) 0.83919(5)
Cu6 Cu 0.68004(2) 0.46248(5) 0.93209(5)
Cu7 Cu 0.18004(2) 0.03752(5) 0.43209(5)
Cu8 Cu 0.68004(2) 0.53752(5) 0.43209(5)
O12 O 0.14563(12) 0.0187(2) 0.2683(2)
O5 O 0.21841(13) 0.0746(2) 0.9240(2)
C22 C 0.22794(18) 0.0581(4) 0.9864(4)
H13 H 0.276310 0.123397 0.987983
Cu4 Cu 0.18136(2) 0.03341(5) 0.83919(5)
O16 O 0.14000(13) 0.0117(3) 0.9182(3)
Cu1 Cu 0.18136(2) 0.96659(5) 0.33919(5)
O1 O 0.18368(12) 0.9084(3) 0.2663(3)
H1 H 0.198512 0.880887 0.275825
H2 H 0.169853 0.907343 0.220660
O3 O 0.17857(14) 0.9070(2) 0.0070(3)
H3 H 0.198191 0.894953 0.051963
H4 H 0.158238 0.888143 0.004334
O13 O 0.21841(13) 0.9254(2) 0.4240(2)
O14 O 0.14183(13) 0.9262(3) 0.3426(3)
Cu2 Cu 0.18004(2) 0.96248(5) 0.93209(5)
O11 O 0.14542(13) 0.9210(2) 0.8460(3)
O15 O 0.22042(13) 0.9256(3) 0.9289(3)
O4_2 O 0.14563(12) 0.9813(2) 0.7683(2)
O10_2 O 0.14000(13) 0.9883(3) 0.4182(3)
C14_2 C 0.04482(19) 0.8507(4) 0.6127(4)
C19_2 C 0.0087(2) 0.8240(4) 0.3652(4)
C23_2 C 0.12950(19) 0.9441(3) 0.3771(4)
C24_2 C 0.08385(19) 0.8717(5) 0.3317(4)
H11_2 H 0.093273 0.861280 0.301820
C25_2 C 0.09708(17) 0.9162(3) 0.3731(4)
C26_2 C 0.0804(2) 0.9365(4) 0.4095(5)
H12_2 H 0.089306 0.969933 0.437531
C27_2 C 0.10362(16) 0.9082(3) 0.7266(4)
C30_2 C 0.13362(18) 0.9375(3) 0.7862(4)
C31_2 C 0.0150(2) 0.8227(4) 0.5540(4)
C32_2 C 0.0923(2) 0.9254(5) 0.6548(4)
H14_2 H 0.104252 0.954497 0.644326
C33_2 C 0.0544(2) 0.8369(4) 0.3304(4)
H15_2 H 0.046714 0.802651 0.303810
C34_2 C 0.0883(2) 0.8655(5) 0.7394(4)
H16_2 H 0.096878 0.853903 0.787479
C35_2 C 0.0509(3) 0.9089(6) 0.4058(5)
H17_2 H 0.038556 0.924718 0.427943
C36_2 C 0.03902(19) 0.8553(5) 0.3676(4)
C38_2 C 0.0582(2) 0.8355(5) 0.6808(4)
H18_2 H 0.047869 0.804060 0.691456
C39_2 C 0.0610(3) 0.8948(5) 0.5987(4)
H19_2 H 0.051476 0.906179 0.550242
O1_2 O 0.68368(12) 0.4084(3) 0.2663(3)
H1_2 H 0.698512 0.380887 0.275825
H2_2 H 0.669853 0.407343 0.220660
O3_2 O 0.67857(14) 0.4070(2) 0.0070(3)
H3_2 H 0.698191 0.394953 0.051963
H4_2 H 0.658238 0.388143 0.004334
O7_2 O 0.72003(13) 0.5158(2) 0.3477(3)
O8_2 O 0.72042(13) 0.5744(3) 0.4289(3)
O9_2 O 0.71433(13) 0.5153(3) 0.0031(2)
C1_2 C 0.73222(16) 0.5551(4) 0.3885(4)
C2_2 C 0.76390(17) 0.5896(4) 0.3940(4)
C3_2 C 0.90467(19) 0.7162(4) 0.3260(4)
C4_2 C 0.95984(18) 0.7735(4) 0.3747(4)
C5_2 C 0.8233(2) 0.6392(4) 0.4018(5)
C6_2 C 0.9321(2) 0.7424(4) 0.3185(4)
H5_2 H 0.931815 0.738979 0.274389
C7_2 C 0.7781(2) 0.6340(4) 0.4355(5)
H6_2 H 0.766682 0.650256 0.459292
C8_2 C 0.9902(2) 0.8020(4) 0.5049(4)
C9_2 C 0.9862(2) 0.8006(4) 0.3690(4)
C10_2 C 0.96140(18) 0.7728(4) 0.4456(4)
C11_2 C 0.9351(2) 0.7448(4) 0.4533(4)
H7_2 H 0.936317 0.743762 0.498475
C12_2 C 0.7792(2) 0.5695(5) 0.3565(5)
H8_2 H 0.768713 0.537887 0.325565
C13_2 C 0.8758(2) 0.6878(5) 0.2685(4)
C15_2 C 0.90655(18) 0.7178(4) 0.3935(3)
C16_2 C 0.8496(3) 0.6638(5) 0.2209(4)
C17_2 C 0.8105(3) 0.6572(6) 0.4443(7)
H9_2 H 0.823217 0.685318 0.479763
C18_2 C 0.8777(2) 0.6914(5) 0.4008(4)
C20_2 C 0.8546(2) 0.6646(5) 0.4041(5)
C21_2 C 0.8099(2) 0.5945(4) 0.3628(5)
H10_2 H 0.821219 0.578749 0.338485
C28_2 C 0.7591(2) 0.5865(4) 0.0471(3)
C29_2 C 0.7811(2) 0.6179(4) 0.0356(5)
C37_2 C 0.8201(2) 0.6379(4) 0.1602(4)
C40_2 C 0.8113(2) 0.6430(5) 0.0926(4)
H20_2 H 0.826593 0.665244 0.082164
C41_2 C 0.7996(3) 0.6042(6) 0.1701(6)
H21_2 H 0.806333 0.594570 0.218001
C42_2 C 0.7673(3) 0.5805(5) 0.1133(5)
H22_2 H 0.751527 0.559816 0.123926
O12_2 O 0.64563(12) 0.5187(2) 0.2683(2)
O13_2 O 0.71841(13) 0.4254(2) 0.4240(2)
O5_2 O 0.71841(13) 0.5746(2) 0.9240(2)
C22_2 C 0.72794(18) 0.5581(4) 0.9864(4)
H13_2 H 0.776310 0.623397 0.987983
O15_2 O 0.72042(13) 0.4256(3) 0.9289(3)
O16_2 O 0.64000(13) 0.5117(3) 0.9182(3)
O1_3 O 0.18368(12) 0.0916(3) 0.7663(3)
H1_3 H 0.198512 0.119113 0.775825
H2_3 H 0.169853 0.092657 0.720660
O3_3 O 0.17857(14) 0.0930(2) 0.5070(3)
H3_3 H 0.198191 0.105047 0.551963
H4_3 H 0.158238 0.111857 0.504334
O11_2 O 0.14542(13) 0.0790(2) 0.3460(3)
O14_2 O 0.14183(13) 0.0738(3) 0.8426(3)
O2_2 O 0.64542(13) 0.5790(2) 0.3460(3)
C8_3 C 0.4902(2) 0.6980(4) 0.0049(4)
C14_3 C 0.54482(19) 0.6493(4) 0.1127(4)
C27_3 C 0.60362(16) 0.5918(3) 0.2266(4)
C30_3 C 0.63362(18) 0.5625(3) 0.2862(4)
C31_3 C 0.5150(2) 0.6773(4) 0.0540(4)
C32_3 C 0.5923(2) 0.5746(5) 0.1548(4)
H14_3 H 0.604252 0.545503 0.144326
C34_3 C 0.5883(2) 0.6345(5) 0.2394(4)
H16_3 H 0.596878 0.646097 0.287479
C38_3 C 0.5582(2) 0.6645(5) 0.1808(4)
H18_3 H 0.547869 0.695940 0.191456
C39_3 C 0.5610(3) 0.6052(5) 0.0987(4)
H19_3 H 0.551476 0.593821 0.050242
O6_2 O 0.64183(13) 0.5738(3) 0.8426(3)
O7_3 O 0.22003(13) 0.9842(2) 0.8477(3)
O9_3 O 0.21433(13) 0.9847(3) 0.5031(2)
C1_3 C 0.23222(16) 0.9449(4) 0.8885(4)
C2_3 C 0.26390(17) 0.9104(4) 0.8940(4)
C3_3 C 0.40467(19) 0.7838(4) 0.8260(4)
C4_3 C 0.45984(18) 0.7265(4) 0.8747(4)
C5_3 C 0.3233(2) 0.8608(4) 0.9018(5)
C6_3 C 0.4321(2) 0.7576(4) 0.8185(4)
H5_3 H 0.431815 0.761021 0.774389
C7_3 C 0.2781(2) 0.8660(4) 0.9355(5)
H6_3 H 0.266682 0.849744 0.959292
C9_3 C 0.4862(2) 0.6994(4) 0.8690(4)
C10_3 C 0.46140(18) 0.7272(4) 0.9456(4)
C11_3 C 0.4351(2) 0.7552(4) 0.9533(4)
H7_3 H 0.436317 0.756238 0.998475
C12_3 C 0.2792(2) 0.9305(5) 0.8565(5)
H8_3 H 0.268713 0.962113 0.825565
C13_3 C 0.3758(2) 0.8122(5) 0.7685(4)
C15_3 C 0.40655(18) 0.7822(4) 0.8935(3)
C16_3 C 0.3496(3) 0.8362(5) 0.7209(4)
C17_3 C 0.3105(3) 0.8428(6) 0.9443(7)
H9_3 H 0.323217 0.814682 0.979763
C18_3 C 0.3777(2) 0.8086(5) 0.9008(4)
C19_3 C 0.5087(2) 0.6760(4) 0.8652(4)
C20_3 C 0.3546(2) 0.8354(5) 0.9041(5)
C21_3 C 0.3099(2) 0.9055(4) 0.8628(5)
H10_3 H 0.321219 0.921251 0.838485
C22_3 C 0.22794(18) 0.9419(4) 0.4864(4)
C23_3 C 0.62950(19) 0.5559(3) 0.8771(4)
C24_3 C 0.58385(19) 0.6283(5) 0.8317(4)
H11_3 H 0.593273 0.638720 0.801820
C25_3 C 0.59708(17) 0.5838(3) 0.8731(4)
C26_3 C 0.5804(2) 0.5635(4) 0.9095(5)
H12_3 H 0.589306 0.530067 0.937531
C28_3 C 0.2591(2) 0.9135(4) 0.5471(3)
C29_3 C 0.2811(2) 0.8821(4) 0.5356(5)
H13_3 H 0.276310 0.876603 0.487983
C33_3 C 0.5544(2) 0.6631(4) 0.8304(4)
H15_3 H 0.546714 0.697349 0.803810
C35_3 C 0.5509(3) 0.5911(6) 0.9058(5)
H17_3 H 0.538556 0.575282 0.927943
C36_3 C 0.53902(19) 0.6447(5) 0.8676(4)
C37_3 C 0.3201(2) 0.8621(4) 0.6602(4)
C40_3 C 0.3113(2) 0.8570(5) 0.5926(4)
H20_3 H 0.326593 0.834756 0.582164
C41_3 C 0.2996(3) 0.8958(6) 0.6701(6)
H21_3 H 0.306333 0.905430 0.718001
C42_3 C 0.2673(3) 0.9195(5) 0.6133(5)
H22_3 H 0.251527 0.940184 0.623926
C14_4 C 0.04482(19) 0.1493(4) 0.1127(4)
C27_4 C 0.10362(16) 0.0918(3) 0.2266(4)
C30_4 C 0.13362(18) 0.0625(3) 0.2862(4)
C31_4 C 0.0150(2) 0.1773(4) 0.0540(4)
C32_4 C 0.0923(2) 0.0746(5) 0.1548(4)
H14_4 H 0.104252 0.045503 0.144326
C34_4 C 0.0883(2) 0.1345(5) 0.2394(4)
H16_4 H 0.096878 0.146097 0.287479
C38_4 C 0.0582(2) 0.1645(5) 0.1808(4)
H18_4 H 0.047869 0.195940 0.191456
C39_4 C 0.0610(3) 0.1052(5) 0.0987(4)
H19_4 H 0.051476 0.093821 0.050242
C19_4 C 0.0087(2) 0.1760(4) 0.8652(4)
C23_4 C 0.12950(19) 0.0559(3) 0.8771(4)
C24_4 C 0.08385(19) 0.1283(5) 0.8317(4)
H11_4 H 0.093273 0.138720 0.801820
C25_4 C 0.09708(17) 0.0838(3) 0.8731(4)
C26_4 C 0.0804(2) 0.0635(4) 0.9095(5)
H12_4 H 0.089306 0.030067 0.937531
C33_4 C 0.0544(2) 0.1631(4) 0.8304(4)
H15_4 H 0.046714 0.197349 0.803810
C35_4 C 0.0509(3) 0.0911(6) 0.9058(5)
H17_4 H 0.038556 0.075282 0.927943
C36_4 C 0.03902(19) 0.1447(5) 0.8676(4)
O1_4 O 0.68368(12) 0.5916(3) 0.7663(3)
H1_4 H 0.698512 0.619113 0.775825
H2_4 H 0.669853 0.592657 0.720660
O3_4 O 0.67857(14) 0.5930(2) 0.5070(3)
H3_4 H 0.698191 0.605047 0.551963
H4_4 H 0.658238 0.611857 0.504334
O7_4 O 0.72003(13) 0.4842(2) 0.8477(3)
O9_4 O 0.71433(13) 0.4847(3) 0.5031(2)
C1_4 C 0.73222(16) 0.4449(4) 0.8885(4)
C2_4 C 0.76390(17) 0.4104(4) 0.8940(4)
C3_4 C 0.90467(19) 0.2838(4) 0.8260(4)
C4_4 C 0.95984(18) 0.2265(4) 0.8747(4)
C5_4 C 0.8233(2) 0.3608(4) 0.9018(5)
C6_4 C 0.9321(2) 0.2576(4) 0.8185(4)
H5_4 H 0.931815 0.261021 0.774389
C7_4 C 0.7781(2) 0.3660(4) 0.9355(5)
H6_4 H 0.766682 0.349744 0.959292
C9_4 C 0.9862(2) 0.1994(4) 0.8690(4)
C10_4 C 0.96140(18) 0.2272(4) 0.9456(4)
C11_4 C 0.9351(2) 0.2552(4) 0.9533(4)
H7_4 H 0.936317 0.256238 0.998475
C12_4 C 0.7792(2) 0.4305(5) 0.8565(5)
H8_4 H 0.768713 0.462113 0.825565
C13_4 C 0.8758(2) 0.3122(5) 0.7685(4)
C15_4 C 0.90655(18) 0.2822(4) 0.8935(3)
C16_4 C 0.8496(3) 0.3362(5) 0.7209(4)
C17_4 C 0.8105(3) 0.3428(6) 0.9443(7)
H9_4 H 0.823217 0.314682 0.979763
C18_4 C 0.8777(2) 0.3086(5) 0.9008(4)
C20_4 C 0.8546(2) 0.3354(5) 0.9041(5)
C21_4 C 0.8099(2) 0.4055(4) 0.8628(5)
H10_4 H 0.821219 0.421251 0.838485
C22_4 C 0.72794(18) 0.4419(4) 0.4864(4)
C28_4 C 0.7591(2) 0.4135(4) 0.5471(3)
C29_4 C 0.7811(2) 0.3821(4) 0.5356(5)
H13_4 H 0.776310 0.376603 0.487983
C37_4 C 0.8201(2) 0.3621(4) 0.6602(4)
C40_4 C 0.8113(2) 0.3570(5) 0.5926(4)
H20_4 H 0.826593 0.334756 0.582164
C41_4 C 0.7996(3) 0.3958(6) 0.6701(6)
H21_4 H 0.806333 0.405430 0.718001
C42_4 C 0.7673(3) 0.4195(5) 0.6133(5)
H22_4 H 0.751527 0.440184 0.623926
O5_3 O 0.78159(13) 0.0746(2) 0.5760(2)
O6_3 O 0.35817(13) 0.4262(3) 0.1574(3)
O7_5 O 0.77997(13) 0.0158(2) 0.1523(3)
O8_3 O 0.77958(13) 0.0744(3) 0.0711(3)
O9_5 O 0.78567(13) 0.0153(3) 0.4969(2)
O10_3 O 0.36000(13) 0.4883(3) 0.0818(3)
C1_5 C 0.76778(16) 0.0551(4) 0.1115(4)
C2_5 C 0.73610(17) 0.0896(4) 0.1060(4)
C3_5 C 0.59533(19) 0.2162(4) 0.1740(4)
C4_5 C 0.54016(18) 0.2735(4) 0.1253(4)
C5_5 C 0.6767(2) 0.1392(4) 0.0982(5)
C6_5 C 0.5679(2) 0.2424(4) 0.1815(4)
H5_5 H 0.568185 0.238979 0.225611
C7_5 C 0.7219(2) 0.1340(4) 0.0645(5)
H6_5 H 0.733318 0.150256 0.040708
C9_5 C 0.5138(2) 0.3006(4) 0.1310(4)
C10_5 C 0.53860(18) 0.2728(4) 0.0544(4)
C11_5 C 0.5649(2) 0.2448(4) 0.0467(4)
H7_5 H 0.563683 0.243762 0.001525
C12_5 C 0.7208(2) 0.0695(5) 0.1435(5)
H8_5 H 0.731287 0.037887 0.174435
C13_5 C 0.6242(2) 0.1878(5) 0.2315(4)
C15_5 C 0.59345(18) 0.2178(4) 0.1065(3)
C16_5 C 0.6504(3) 0.1638(5) 0.2791(4)
C17_5 C 0.6895(3) 0.1572(6) 0.0557(7)
H9_5 H 0.676783 0.185318 0.020237
C18_5 C 0.6223(2) 0.1914(5) 0.0992(4)
C19_5 C 0.4913(2) 0.3240(4) 0.1348(4)
C20_5 C 0.6454(2) 0.1646(5) 0.0959(5)
C21_5 C 0.6901(2) 0.0945(4) 0.1372(5)
H10_5 H 0.678781 0.078749 0.161515
C22_5 C 0.77206(18) 0.0581(4) 0.5136(4)
C23_5 C 0.37050(19) 0.4441(3) 0.1229(4)
C24_5 C 0.41615(19) 0.3717(5) 0.1683(4)
H11_5 H 0.406727 0.361280 0.198180
C25_5 C 0.40292(17) 0.4162(3) 0.1269(4)
C26_5 C 0.4196(2) 0.4365(4) 0.0905(5)
H12_5 H 0.410694 0.469933 0.062469
C28_5 C 0.7409(2) 0.0865(4) 0.4529(3)
C29_5 C 0.7189(2) 0.1179(4) 0.4644(5)
H13_5 H 0.723690 0.123397 0.512017
C33_5 C 0.4456(2) 0.3369(4) 0.1696(4)
H15_5 H 0.453286 0.302651 0.196190
C35_5 C 0.4491(3) 0.4089(6) 0.0942(5)
H17_5 H 0.461444 0.424718 0.072057
C36_5 C 0.46098(19) 0.3553(5) 0.1324(4)
C37_5 C 0.6799(2) 0.1379(4) 0.3398(4)
C40_5 C 0.6887(2) 0.1430(5) 0.4074(4)
H20_5 H 0.673407 0.165244 0.417836
C41_5 C 0.7004(3) 0.1042(6) 0.3299(6)
H21_5 H 0.693667 0.094570 0.281999
C42_5 C 0.7327(3) 0.0805(5) 0.3867(5)
H22_5 H 0.748473 0.059816 0.376074
Cu3_2 Cu 0.31864(2) 0.46659(5) 0.16081(5)
Cu4_2 Cu 0.81864(2) 0.03341(5) 0.66081(5)
Cu7_2 Cu 0.81996(2) 0.03752(5) 0.06791(5)
Cu8_2 Cu 0.31996(2) 0.53752(5) 0.06791(5)
O12_3 O 0.85437(12) 0.0187(2) 0.2317(2)
O16_3 O 0.86000(13) 0.0117(3) 0.5818(3)
O2_3 O 0.35458(13) 0.4210(2) 0.6540(3)
O4_3 O 0.35437(12) 0.4813(2) 0.7317(2)
C8_4 C 0.5098(2) 0.3020(4) 0.9951(4)
C14_5 C 0.45518(19) 0.3507(4) 0.8873(4)
C27_5 C 0.39638(16) 0.4082(3) 0.7734(4)
C30_5 C 0.36638(18) 0.4375(3) 0.7138(4)
C31_5 C 0.4850(2) 0.3227(4) 0.9460(4)
C32_5 C 0.4077(2) 0.4254(5) 0.8452(4)
H14_5 H 0.395748 0.454497 0.855674
C34_5 C 0.4117(2) 0.3655(5) 0.7606(4)
H16_5 H 0.403122 0.353903 0.712521
C38_5 C 0.4418(2) 0.3355(5) 0.8192(4)
H18_5 H 0.452131 0.304060 0.808544
C39_5 C 0.4390(3) 0.3948(5) 0.9013(4)
H19_5 H 0.448524 0.406179 0.949758
Cu5_2 Cu 0.31864(2) 0.53341(5) 0.66081(5)
Cu6_2 Cu 0.31996(2) 0.46248(5) 0.56791(5)
Cu1_2 Cu 0.81864(2) 0.96659(5) 0.16081(5)
Cu2_2 Cu 0.81996(2) 0.96248(5) 0.56791(5)
O1_5 O 0.81632(12) 0.9084(3) 0.2337(3)
H1_5 H 0.801488 0.880887 0.224175
H2_5 H 0.830147 0.907343 0.279340
O3_5 O 0.82143(14) 0.9070(2) 0.4930(3)
H3_5 H 0.801809 0.894953 0.448037
H4_5 H 0.841762 0.888143 0.495666
O11_3 O 0.85458(13) 0.9210(2) 0.6540(3)
O13_3 O 0.78159(13) 0.9254(2) 0.0760(2)
O14_3 O 0.85817(13) 0.9262(3) 0.1574(3)
O15_3 O 0.77958(13) 0.9256(3) 0.5711(3)
O1_6 O 0.31632(12) 0.4084(3) 0.2337(3)
H1_6 H 0.301488 0.380887 0.224175
H2_6 H 0.330147 0.407343 0.279340
O3_6 O 0.32143(14) 0.4070(2) 0.4930(3)
H3_6 H 0.301809 0.394953 0.448037
H4_6 H 0.341762 0.388143 0.495666
O5_4 O 0.28159(13) 0.5746(2) 0.5760(2)
O7_6 O 0.27997(13) 0.5158(2) 0.1523(3)
O8_4 O 0.27958(13) 0.5744(3) 0.0711(3)
O9_6 O 0.28567(13) 0.5153(3) 0.4969(2)
C1_6 C 0.26778(16) 0.5551(4) 0.1115(4)
C2_6 C 0.23610(17) 0.5896(4) 0.1060(4)
C3_6 C 0.09533(19) 0.7162(4) 0.1740(4)
C4_6 C 0.04016(18) 0.7735(4) 0.1253(4)
C5_6 C 0.1767(2) 0.6392(4) 0.0982(5)
C6_6 C 0.0679(2) 0.7424(4) 0.1815(4)
H5_6 H 0.068185 0.738979 0.225611
C7_6 C 0.2219(2) 0.6340(4) 0.0645(5)
H6_6 H 0.233318 0.650256 0.040708
C9_6 C 0.0138(2) 0.8006(4) 0.1310(4)
C10_6 C 0.03860(18) 0.7728(4) 0.0544(4)
C11_6 C 0.0649(2) 0.7448(4) 0.0467(4)
H7_6 H 0.063683 0.743762 0.001525
C12_6 C 0.2208(2) 0.5695(5) 0.1435(5)
H8_6 H 0.231287 0.537887 0.174435
C13_6 C 0.1242(2) 0.6878(5) 0.2315(4)
C15_6 C 0.09345(18) 0.7178(4) 0.1065(3)
C16_6 C 0.1504(3) 0.6638(5) 0.2791(4)
C17_6 C 0.1895(3) 0.6572(6) 0.0557(7)
H9_6 H 0.176783 0.685318 0.020237
C18_6 C 0.1223(2) 0.6914(5) 0.0992(4)
C20_6 C 0.1454(2) 0.6646(5) 0.0959(5)
C21_6 C 0.1901(2) 0.5945(4) 0.1372(5)
H10_6 H 0.178781 0.578749 0.161515
C22_6 C 0.27206(18) 0.5581(4) 0.5136(4)
C28_6 C 0.2409(2) 0.5865(4) 0.4529(3)
C29_6 C 0.2189(2) 0.6179(4) 0.4644(5)
H13_6 H 0.223690 0.623397 0.512017
C37_6 C 0.1799(2) 0.6379(4) 0.3398(4)
C40_6 C 0.1887(2) 0.6430(5) 0.4074(4)
H20_6 H 0.173407 0.665244 0.417836
C41_6 C 0.2004(3) 0.6042(6) 0.3299(6)
H21_6 H 0.193667 0.594570 0.281999
C42_6 C 0.2327(3) 0.5805(5) 0.3867(5)
H22_6 H 0.248473 0.559816 0.376074
O12_4 O 0.35437(12) 0.5187(2) 0.2317(2)
O13_4 O 0.28159(13) 0.4254(2) 0.0760(2)
O15_4 O 0.27958(13) 0.4256(3) 0.5711(3)
O16_4 O 0.36000(13) 0.5117(3) 0.5818(3)
O10_4 O 0.86000(13) 0.9883(3) 0.0818(3)
C19_6 C 0.9913(2) 0.8240(4) 0.1348(4)
C23_6 C 0.87050(19) 0.9441(3) 0.1229(4)
C24_6 C 0.91615(19) 0.8717(5) 0.1683(4)
H11_6 H 0.906727 0.861280 0.198180
C25_6 C 0.90292(17) 0.9162(3) 0.1269(4)
C26_6 C 0.9196(2) 0.9365(4) 0.0905(5)
H12_6 H 0.910694 0.969933 0.062469
C33_6 C 0.9456(2) 0.8369(4) 0.1696(4)
H15_6 H 0.953286 0.802651 0.196190
C35_6 C 0.9491(3) 0.9089(6) 0.0942(5)
H17_6 H 0.961444 0.924718 0.072057
C36_6 C 0.96098(19) 0.8553(5) 0.1324(4)
O4_4 O 0.85437(12) 0.9813(2) 0.7317(2)
C14_6 C 0.95518(19) 0.8507(4) 0.8873(4)
C27_6 C 0.89638(16) 0.9082(3) 0.7734(4)
C30_6 C 0.86638(18) 0.9375(3) 0.7138(4)
C31_6 C 0.9850(2) 0.8227(4) 0.9460(4)
C32_6 C 0.9077(2) 0.9254(5) 0.8452(4)
H14_6 H 0.895748 0.954497 0.855674
C34_6 C 0.9117(2) 0.8655(5) 0.7606(4)
H16_6 H 0.903122 0.853903 0.712521
C38_6 C 0.9418(2) 0.8355(5) 0.8192(4)
H18_6 H 0.952131 0.804060 0.808544
C39_6 C 0.9390(3) 0.8948(5) 0.9013(4)
H19_6 H 0.948524 0.906179 0.949758
O11_4 O 0.85458(13) 0.0790(2) 0.1540(3)
O1_7 O 0.81632(12) 0.0916(3) 0.7337(3)
H1_7 H 0.801488 0.119113 0.724175
H2_7 H 0.830147 0.092657 0.779340
O3_7 O 0.82143(14) 0.0930(2) 0.9930(3)
H3_7 H 0.801809 0.105047 0.948037
H4_7 H 0.841762 0.111857 0.995666
O14_4 O 0.85817(13) 0.0738(3) 0.6574(3)
C22_7 C 0.77206(18) 0.9419(4) 0.0136(4)
H13_7 H 0.723690 0.876603 0.012017
O2_4 O 0.35458(13) 0.5790(2) 0.1540(3)
O6_4 O 0.35817(13) 0.5738(3) 0.6574(3)
O7_7 O 0.77997(13) 0.9842(2) 0.6523(3)
O9_7 O 0.78567(13) 0.9847(3) 0.9969(2)
C1_7 C 0.76778(16) 0.9449(4) 0.6115(4)
C2_7 C 0.73610(17) 0.9104(4) 0.6060(4)
C3_7 C 0.59533(19) 0.7838(4) 0.6740(4)
C4_7 C 0.54016(18) 0.7265(4) 0.6253(4)
C5_7 C 0.6767(2) 0.8608(4) 0.5982(5)
C6_7 C 0.5679(2) 0.7576(4) 0.6815(4)
H5_7 H 0.568185 0.761021 0.725611
C7_7 C 0.7219(2) 0.8660(4) 0.5645(5)
H6_7 H 0.733318 0.849744 0.540708
C8_5 C 0.5098(2) 0.6980(4) 0.4951(4)
C9_7 C 0.5138(2) 0.6994(4) 0.6310(4)
C10_7 C 0.53860(18) 0.7272(4) 0.5544(4)
C11_7 C 0.5649(2) 0.7552(4) 0.5467(4)
H7_7 H 0.563683 0.756238 0.501525
C12_7 C 0.7208(2) 0.9305(5) 0.6435(5)
H8_7 H 0.731287 0.962113 0.674435
C13_7 C 0.6242(2) 0.8122(5) 0.7315(4)
C14_7 C 0.45518(19) 0.6493(4) 0.3873(4)
C15_7 C 0.59345(18) 0.7822(4) 0.6065(3)
C16_7 C 0.6504(3) 0.8362(5) 0.7791(4)
C17_7 C 0.6895(3) 0.8428(6) 0.5557(7)
H9_7 H 0.676783 0.814682 0.520237
C18_7 C 0.6223(2) 0.8086(5) 0.5992(4)
C19_7 C 0.4913(2) 0.6760(4) 0.6348(4)
C20_7 C 0.6454(2) 0.8354(5) 0.5959(5)
C21_7 C 0.6901(2) 0.9055(4) 0.6372(5)
H10_7 H 0.678781 0.921251 0.661515
C23_7 C 0.37050(19) 0.5559(3) 0.6229(4)
C24_7 C 0.41615(19) 0.6283(5) 0.6683(4)
H11_7 H 0.406727 0.638720 0.698180
C25_7 C 0.40292(17) 0.5838(3) 0.6269(4)
C26_7 C 0.4196(2) 0.5635(4) 0.5905(5)
H12_7 H 0.410694 0.530067 0.562469
C27_7 C 0.39638(16) 0.5918(3) 0.2734(4)
C28_7 C 0.7409(2) 0.9135(4) 0.9529(3)
C29_7 C 0.7189(2) 0.8821(4) 0.9644(5)
C30_7 C 0.36638(18) 0.5625(3) 0.2138(4)
C31_7 C 0.4850(2) 0.6773(4) 0.4460(4)
C32_7 C 0.4077(2) 0.5746(5) 0.3452(4)
H14_7 H 0.395748 0.545503 0.355674
C33_7 C 0.4456(2) 0.6631(4) 0.6696(4)
H15_7 H 0.453286 0.697349 0.696190
C34_7 C 0.4117(2) 0.6345(5) 0.2606(4)
H16_7 H 0.403122 0.646097 0.212521
C35_7 C 0.4491(3) 0.5911(6) 0.5942(5)
H17_7 H 0.461444 0.575282 0.572057
C36_7 C 0.46098(19) 0.6447(5) 0.6324(4)
C37_7 C 0.6799(2) 0.8621(4) 0.8398(4)
C38_7 C 0.4418(2) 0.6645(5) 0.3192(4)
H18_7 H 0.452131 0.695940 0.308544
C39_7 C 0.4390(3) 0.6052(5) 0.4013(4)
H19_7 H 0.448524 0.593821 0.449758
C40_7 C 0.6887(2) 0.8570(5) 0.9074(4)
H20_7 H 0.673407 0.834756 0.917836
C41_7 C 0.7004(3) 0.8958(6) 0.8299(6)
H21_7 H 0.693667 0.905430 0.781999
C42_7 C 0.7327(3) 0.9195(5) 0.8867(5)
H22_7 H 0.748473 0.940184 0.876074
C22_8 C 0.27206(18) 0.4419(4) 0.0136(4)
H13_8 H 0.223690 0.376603 0.012017
O1_8 O 0.31632(12) 0.5916(3) 0.7337(3)
H1_8 H 0.301488 0.619113 0.724175
H2_8 H 0.330147 0.592657 0.779340
O3_8 O 0.32143(14) 0.5930(2) 0.9930(3)
H3_8 H 0.301809 0.605047 0.948037
H4_8 H 0.341762 0.611857 0.995666
O7_8 O 0.27997(13) 0.4842(2) 0.6523(3)
O9_8 O 0.28567(13) 0.4847(3) 0.9969(2)
C1_8 C 0.26778(16) 0.4449(4) 0.6115(4)
C2_8 C 0.23610(17) 0.4104(4) 0.6060(4)
C3_8 C 0.09533(19) 0.2838(4) 0.6740(4)
C4_8 C 0.04016(18) 0.2265(4) 0.6253(4)
C5_8 C 0.1767(2) 0.3608(4) 0.5982(5)
C6_8 C 0.0679(2) 0.2576(4) 0.6815(4)
H5_8 H 0.068185 0.261021 0.725611
C7_8 C 0.2219(2) 0.3660(4) 0.5645(5)
H6_8 H 0.233318 0.349744 0.540708
C8_6 C 0.0098(2) 0.1980(4) 0.4951(4)
C9_8 C 0.0138(2) 0.1994(4) 0.6310(4)
C10_8 C 0.03860(18) 0.2272(4) 0.5544(4)
C11_8 C 0.0649(2) 0.2552(4) 0.5467(4)
H7_8 H 0.063683 0.256238 0.501525
C12_8 C 0.2208(2) 0.4305(5) 0.6435(5)
H8_8 H 0.231287 0.462113 0.674435
C13_8 C 0.1242(2) 0.3122(5) 0.7315(4)
C15_8 C 0.09345(18) 0.2822(4) 0.6065(3)
C16_8 C 0.1504(3) 0.3362(5) 0.7791(4)
C17_8 C 0.1895(3) 0.3428(6) 0.5557(7)
H9_8 H 0.176783 0.314682 0.520237
C18_8 C 0.1223(2) 0.3086(5) 0.5992(4)
C20_8 C 0.1454(2) 0.3354(5) 0.5959(5)
C21_8 C 0.1901(2) 0.4055(4) 0.6372(5)
H10_8 H 0.178781 0.421251 0.661515
C28_8 C 0.2409(2) 0.4135(4) 0.9529(3)
C29_8 C 0.2189(2) 0.3821(4) 0.9644(5)
C37_8 C 0.1799(2) 0.3621(4) 0.8398(4)
C40_8 C 0.1887(2) 0.3570(5) 0.9074(4)
H20_8 H 0.173407 0.334756 0.917836
C41_8 C 0.2004(3) 0.3958(6) 0.8299(6)
H21_8 H 0.193667 0.405430 0.781999
C42_8 C 0.2327(3) 0.4195(5) 0.8867(5)
H22_8 H 0.248473 0.440184 0.876074
C14_8 C 0.95518(19) 0.1493(4) 0.3873(4)
C19_8 C 0.9913(2) 0.1760(4) 0.6348(4)
C23_8 C 0.87050(19) 0.0559(3) 0.6229(4)
C24_8 C 0.91615(19) 0.1283(5) 0.6683(4)
H11_8 H 0.906727 0.138720 0.698180
C25_8 C 0.90292(17) 0.0838(3) 0.6269(4)
C26_8 C 0.9196(2) 0.0635(4) 0.5905(5)
H12_8 H 0.910694 0.030067 0.562469
C27_8 C 0.89638(16) 0.0918(3) 0.2734(4)
C30_8 C 0.86638(18) 0.0625(3) 0.2138(4)
C31_8 C 0.9850(2) 0.1773(4) 0.4460(4)
C32_8 C 0.9077(2) 0.0746(5) 0.3452(4)
H14_8 H 0.895748 0.045503 0.355674
C33_8 C 0.9456(2) 0.1631(4) 0.6696(4)
H15_8 H 0.953286 0.197349 0.696190
C34_8 C 0.9117(2) 0.1345(5) 0.2606(4)
H16_8 H 0.903122 0.146097 0.212521
C35_8 C 0.9491(3) 0.0911(6) 0.5942(5)
H17_8 H 0.961444 0.075282 0.572057
C36_8 C 0.96098(19) 0.1447(5) 0.6324(4)
C38_8 C 0.9418(2) 0.1645(5) 0.3192(4)
H18_8 H 0.952131 0.195940 0.308544
C39_8 C 0.9390(3) 0.1052(5) 0.4013(4)
H19_8 H 0.948524 0.093821 0.449758
C8_7 C 0.0098(2) 0.8020(4) 0.9951(4)
C8_8 C 0.9902(2) 0.1980(4) 0.0049(4)
loop_
_geom_bond_atom_site_label_1
_geom_bond_atom_site_label_2
_geom_bond_site_symmetry_1
_geom_bond_site_symmetry_2
O2 C30 1_555 1_555
O4 C30 1_555 1_555
O6 C23 1_555 1_555
O8 C1 1_555 1_555
O10 C23 1_555 1_555
C1 O7 1_555 1_555
C2 C1 1_555 1_555
C3 C6 1_555 1_555
C4 C6 1_555 1_555
C5 C17 1_555 1_555
C6 H5 1_555 1_555
C7 C2 1_555 1_555
H6 C7 1_555 1_555
C8 C10 1_555 1_555
C9 C4 1_555 1_555
C10 C4 1_555 1_555
C11 C10 1_555 1_555
H7 C11 1_555 1_555
C12 C2 1_555 1_555
H8 C12 1_555 1_555
C13 C3 1_555 1_555
C14 C31 1_555 1_555
C15 C3 1_555 1_555
C16 C13 1_555 1_555
C17 C7 1_555 1_555
H9 C17 1_555 1_555
C18 C15 1_555 1_555
C19 C9 1_555 1_555
C20 C5 1_555 1_555
C21 C5 1_555 1_555
H10 C21 1_555 1_555
C23 C25 1_555 1_555
C24 H11 1_555 1_555
C25 C24 1_555 1_555
C26 C25 1_555 1_555
H12 C26 1_555 1_555
C27 C30 1_555 1_555
C29 C28 1_555 1_555
C31 C8 1_555 1_555
C32 C27 1_555 1_555
H14 C32 1_555 1_555
C33 C24 1_555 1_555
H15 C33 1_555 1_555
C34 C27 1_555 1_555
H16 C34 1_555 1_555
C35 C26 1_555 1_555
H17 C35 1_555 1_555
C36 C19 1_555 1_555
C37 C16 1_555 1_555
C38 C14 1_555 1_555
H18 C38 1_555 1_555
C39 C14 1_555 1_555
H19 C39 1_555 1_555
C40 C29 1_555 1_555
H20 C40 1_555 1_555
C41 C37 1_555 1_555
H21 C41 1_555 1_555
C42 C28 1_555 1_555
H22 C42 1_555 1_555
Cu3 O6 1_555 1_555
Cu5 O4 1_555 1_555
Cu6 O2 1_555 1_555
Cu8 O10 1_555 1_555
O8 Cu7 1_555 1_555
C11 C15 1_555 1_555
C12 C21 1_555 1_555
C18 C20 1_555 1_555
C32 C39 1_555 1_555
C33 C36 1_555 1_555
C34 C38 1_555 1_555
C35 C36 1_555 1_555
C37 C40 1_555 1_555
C41 C42 1_555 1_555
Cu3 Cu8 1_555 1_555
Cu5 Cu6 1_555 1_555
O5 C22 1_555 1_555
O5 Cu4 1_555 1_555
Cu1 O1 1_555 1_555
O1 H1 1_555 1_555
H2 O1 1_555 1_555
O3 H3 1_555 1_555
H4 O3 1_555 1_555
O13 Cu1 1_555 1_555
O14 Cu1 1_555 1_555
O11 Cu2 1_555 1_555
O15 Cu2 1_555 1_555
O11 C30_2 1_555 1_555
O4_2 C30_2 1_555 1_555
O14 C23_2 1_555 1_555
O10_2 C23_2 1_555 1_555
C14_2 C31_2 1_555 1_555
C23_2 C25_2 1_555 1_555
C24_2 H11_2 1_555 1_555
C25_2 C24_2 1_555 1_555
C26_2 C25_2 1_555 1_555
H12_2 C26_2 1_555 1_555
C27_2 C30_2 1_555 1_555
C32_2 C27_2 1_555 1_555
H14_2 C32_2 1_555 1_555
C33_2 C24_2 1_555 1_555
H15_2 C33_2 1_555 1_555
C34_2 C27_2 1_555 1_555
H16_2 C34_2 1_555 1_555
C35_2 C26_2 1_555 1_555
H17_2 C35_2 1_555 1_555
C36_2 C19_2 1_555 1_555
C38_2 C14_2 1_555 1_555
H18_2 C38_2 1_555 1_555
C39_2 C14_2 1_555 1_555
H19_2 C39_2 1_555 1_555
C32_2 C39_2 1_555 1_555
C33_2 C36_2 1_555 1_555
C34_2 C38_2 1_555 1_555
C35_2 C36_2 1_555 1_555
Cu3 O1_2 1_555 1_555
O1_2 H1_2 1_555 1_555
H2_2 O1_2 1_555 1_555
O3_2 H3_2 1_555 1_555
H4_2 O3_2 1_555 1_555
O7_2 Cu3 1_555 1_555
O8_2 C1_2 1_555 1_555
C1_2 O7_2 1_555 1_555
C2_2 C1_2 1_555 1_555
C3_2 C6_2 1_555 1_555
C4_2 C6_2 1_555 1_555
C5_2 C17_2 1_555 1_555
C6_2 H5_2 1_555 1_555
C7_2 C2_2 1_555 1_555
H6_2 C7_2 1_555 1_555
C8_2 C10_2 1_555 1_555
C9_2 C4_2 1_555 1_555
C10_2 C4_2 1_555 1_555
C11_2 C10_2 1_555 1_555
H7_2 C11_2 1_555 1_555
C12_2 C2_2 1_555 1_555
H8_2 C12_2 1_555 1_555
C13_2 C3_2 1_555 1_555
C15_2 C3_2 1_555 1_555
C16_2 C13_2 1_555 1_555
C17_2 C7_2 1_555 1_555
H9_2 C17_2 1_555 1_555
C18_2 C15_2 1_555 1_555
C20_2 C5_2 1_555 1_555
C21_2 C5_2 1_555 1_555
H10_2 C21_2 1_555 1_555
C29_2 C28_2 1_555 1_555
C37_2 C16_2 1_555 1_555
C40_2 C29_2 1_555 1_555
H20_2 C40_2 1_555 1_555
C41_2 C37_2 1_555 1_555
H21_2 C41_2 1_555 1_555
C42_2 C28_2 1_555 1_555
H22_2 C42_2 1_555 1_555
O12_2 Cu3 1_555 1_555
O13_2 Cu3 1_555 1_555
O8_2 Cu8 1_555 1_555
C11_2 C15_2 1_555 1_555
C12_2 C21_2 1_555 1_555
C18_2 C20_2 1_555 1_555
C37_2 C40_2 1_555 1_555
C41_2 C42_2 1_555 1_555
O5_2 C22_2 1_555 1_555
O15_2 Cu6 1_555 1_555
O16_2 Cu6 1_555 1_555
O5_2 Cu5 1_555 1_555
Cu4 O1_3 1_555 1_555
Cu7 O3_3 1_555 1_555
O1_3 H1_3 1_555 1_555
H2_3 O1_3 1_555 1_555
O3_3 H3_3 1_555 1_555
H4_3 O3_3 1_555 1_555
O11_2 Cu7 1_555 1_555
O14_2 Cu4 1_555 1_555
O2_2 C30_3 1_555 1_555
O12_2 C30_3 1_555 1_555
C14_3 C31_3 1_555 1_555
C27_3 C30_3 1_555 1_555
C31_3 C8_3 1_555 1_555
C32_3 C27_3 1_555 1_555
H14_3 C32_3 1_555 1_555
C34_3 C27_3 1_555 1_555
H16_3 C34_3 1_555 1_555
C38_3 C14_3 1_555 1_555
H18_3 C38_3 1_555 1_555
C39_3 C14_3 1_555 1_555
H19_3 C39_3 1_555 1_555
Cu8 O2_2 1_555 1_555
C32_3 C39_3 1_555 1_555
C34_3 C38_3 1_555 1_555
O13 C22_3 1_555 1_555
O6_2 C23_3 1_555 1_555
O15 C1_3 1_555 1_555
O16_2 C23_3 1_555 1_555
C1_3 O7_3 1_555 1_555
C2_3 C1_3 1_555 1_555
C3_3 C6_3 1_555 1_555
C4_3 C6_3 1_555 1_555
C5_3 C17_3 1_555 1_555
C6_3 H5_3 1_555 1_555
C7_3 C2_3 1_555 1_555
H6_3 C7_3 1_555 1_555
C9_3 C4_3 1_555 1_555
C10_3 C4_3 1_555 1_555
C11_3 C10_3 1_555 1_555
H7_3 C11_3 1_555 1_555
C12_3 C2_3 1_555 1_555
H8_3 C12_3 1_555 1_555
C13_3 C3_3 1_555 1_555
C15_3 C3_3 1_555 1_555
C16_3 C13_3 1_555 1_555
C17_3 C7_3 1_555 1_555
H9_3 C17_3 1_555 1_555
C18_3 C15_3 1_555 1_555
C19_3 C9_3 1_555 1_555
C20_3 C5_3 1_555 1_555
C21_3 C5_3 1_555 1_555
H10_3 C21_3 1_555 1_555
C22_3 O9_3 1_555 1_555
C23_3 C25_3 1_555 1_555
C24_3 H11_3 1_555 1_555
C25_3 C24_3 1_555 1_555
C26_3 C25_3 1_555 1_555
H12_3 C26_3 1_555 1_555
C28_3 C22_3 1_555 1_555
C29_3 C28_3 1_555 1_555
H13_3 C29_3 1_555 1_555
C33_3 C24_3 1_555 1_555
H15_3 C33_3 1_555 1_555
C35_3 C26_3 1_555 1_555
H17_3 C35_3 1_555 1_555
C36_3 C19_3 1_555 1_555
C37_3 C16_3 1_555 1_555
C40_3 C29_3 1_555 1_555
H20_3 C40_3 1_555 1_555
C41_3 C37_3 1_555 1_555
H21_3 C41_3 1_555 1_555
C42_3 C28_3 1_555 1_555
H22_3 C42_3 1_555 1_555
Cu5 O6_2 1_555 1_555
C11_3 C15_3 1_555 1_555
C12_3 C21_3 1_555 1_555
C18_3 C20_3 1_555 1_555
C33_3 C36_3 1_555 1_555
C35_3 C36_3 1_555 1_555
C37_3 C40_3 1_555 1_555
C41_3 C42_3 1_555 1_555
O11_2 C30_4 1_555 1_555
O12 C30_4 1_555 1_555
C14_4 C31_4 1_555 1_555
C27_4 C30_4 1_555 1_555
C32_4 C27_4 1_555 1_555
H14_4 C32_4 1_555 1_555
C34_4 C27_4 1_555 1_555
H16_4 C34_4 1_555 1_555
C38_4 C14_4 1_555 1_555
H18_4 C38_4 1_555 1_555
C39_4 C14_4 1_555 1_555
H19_4 C39_4 1_555 1_555
C32_4 C39_4 1_555 1_555
C34_4 C38_4 1_555 1_555
O14_2 C23_4 1_555 1_555
O16 C23_4 1_555 1_555
C23_4 C25_4 1_555 1_555
C24_4 H11_4 1_555 1_555
C25_4 C24_4 1_555 1_555
C26_4 C25_4 1_555 1_555
H12_4 C26_4 1_555 1_555
C33_4 C24_4 1_555 1_555
H15_4 C33_4 1_555 1_555
C35_4 C26_4 1_555 1_555
H17_4 C35_4 1_555 1_555
C36_4 C19_4 1_555 1_555
C33_4 C36_4 1_555 1_555
C35_4 C36_4 1_555 1_555
Cu5 O1_4 1_555 1_555
Cu8 O3_4 1_555 1_555
O1_4 H1_4 1_555 1_555
H2_4 O1_4 1_555 1_555
O3_4 H3_4 1_555 1_555
H4_4 O3_4 1_555 1_555
O13_2 C22_4 1_555 1_555
O7_4 Cu5 1_555 1_555
O15_2 C1_4 1_555 1_555
O9_4 Cu8 1_555 1_555
C1_4 O7_4 1_555 1_555
C2_4 C1_4 1_555 1_555
C3_4 C6_4 1_555 1_555
C4_4 C6_4 1_555 1_555
C5_4 C17_4 1_555 1_555
C6_4 H5_4 1_555 1_555
C7_4 C2_4 1_555 1_555
H6_4 C7_4 1_555 1_555
C9_4 C4_4 1_555 1_555
C10_4 C4_4 1_555 1_555
C11_4 C10_4 1_555 1_555
H7_4 C11_4 1_555 1_555
C12_4 C2_4 1_555 1_555
H8_4 C12_4 1_555 1_555
C13_4 C3_4 1_555 1_555
C15_4 C3_4 1_555 1_555
C16_4 C13_4 1_555 1_555
C17_4 C7_4 1_555 1_555
H9_4 C17_4 1_555 1_555
C18_4 C15_4 1_555 1_555
C20_4 C5_4 1_555 1_555
C21_4 C5_4 1_555 1_555
H10_4 C21_4 1_555 1_555
C22_4 O9_4 1_555 1_555
C28_4 C22_4 1_555 1_555
C29_4 C28_4 1_555 1_555
H13_4 C29_4 1_555 1_555
C37_4 C16_4 1_555 1_555
C40_4 C29_4 1_555 1_555
H20_4 C40_4 1_555 1_555
C41_4 C37_4 1_555 1_555
H21_4 C41_4 1_555 1_555
C42_4 C28_4 1_555 1_555
H22_4 C42_4 1_555 1_555
C11_4 C15_4 1_555 1_555
C12_4 C21_4 1_555 1_555
C18_4 C20_4 1_555 1_555
C37_4 C40_4 1_555 1_555
C41_4 C42_4 1_555 1_555
O5_3 C22_5 1_555 1_555
O6_3 C23_5 1_555 1_555
O8_3 C1_5 1_555 1_555
O10_3 C23_5 1_555 1_555
C1_5 O7_5 1_555 1_555
C2_5 C1_5 1_555 1_555
C3_5 C6_5 1_555 1_555
C4_5 C6_5 1_555 1_555
C5_5 C17_5 1_555 1_555
C6_5 H5_5 1_555 1_555
C7_5 C2_5 1_555 1_555
H6_5 C7_5 1_555 1_555
C9_5 C4_5 1_555 1_555
C10_5 C4_5 1_555 1_555
C11_5 C10_5 1_555 1_555
H7_5 C11_5 1_555 1_555
C12_5 C2_5 1_555 1_555
H8_5 C12_5 1_555 1_555
C13_5 C3_5 1_555 1_555
C15_5 C3_5 1_555 1_555
C16_5 C13_5 1_555 1_555
C17_5 C7_5 1_555 1_555
H9_5 C17_5 1_555 1_555
C18_5 C15_5 1_555 1_555
C19_5 C9_5 1_555 1_555
C20_5 C5_5 1_555 1_555
C21_5 C5_5 1_555 1_555
H10_5 C21_5 1_555 1_555
C22_5 O9_5 1_555 1_555
C23_5 C25_5 1_555 1_555
C24_5 H11_5 1_555 1_555
C25_5 C24_5 1_555 1_555
C26_5 C25_5 1_555 1_555
H12_5 C26_5 1_555 1_555
C28_5 C22_5 1_555 1_555
C29_5 C28_5 1_555 1_555
H13_5 C29_5 1_555 1_555
C33_5 C24_5 1_555 1_555
H15_5 C33_5 1_555 1_555
C35_5 C26_5 1_555 1_555
H17_5 C35_5 1_555 1_555
C36_5 C19_5 1_555 1_555
C37_5 C16_5 1_555 1_555
C40_5 C29_5 1_555 1_555
H20_5 C40_5 1_555 1_555
C41_5 C37_5 1_555 1_555
H21_5 C41_5 1_555 1_555
C42_5 C28_5 1_555 1_555
H22_5 C42_5 1_555 1_555
Cu3_2 O6_3 1_555 1_555
Cu8_2 O10_3 1_555 1_555
O5_3 Cu4_2 1_555 1_555
O8_3 Cu7_2 1_555 1_555
C11_5 C15_5 1_555 1_555
C12_5 C21_5 1_555 1_555
C18_5 C20_5 1_555 1_555
C33_5 C36_5 1_555 1_555
C35_5 C36_5 1_555 1_555
C37_5 C40_5 1_555 1_555
C41_5 C42_5 1_555 1_555
Cu3_2 Cu8_2 1_555 1_555
O2_3 C30_5 1_555 1_555
O4_3 C30_5 1_555 1_555
C14_5 C31_5 1_555 1_555
C27_5 C30_5 1_555 1_555
C31_5 C8_4 1_555 1_555
C32_5 C27_5 1_555 1_555
H14_5 C32_5 1_555 1_555
C34_5 C27_5 1_555 1_555
H16_5 C34_5 1_555 1_555
C38_5 C14_5 1_555 1_555
H18_5 C38_5 1_555 1_555
C39_5 C14_5 1_555 1_555
H19_5 C39_5 1_555 1_555
Cu5_2 O4_3 1_555 1_555
Cu6_2 O2_3 1_555 1_555
C32_5 C39_5 1_555 1_555
C34_5 C38_5 1_555 1_555
Cu5_2 Cu6_2 1_555 1_555
Cu1_2 O1_5 1_555 1_555
Cu2_2 O3_5 1_555 1_555
O1_5 H1_5 1_555 1_555
H2_5 O1_5 1_555 1_555
O3_5 H3_5 1_555 1_555
H4_5 O3_5 1_555 1_555
O11_3 Cu2_2 1_555 1_555
O13_3 Cu1_2 1_555 1_555
O14_3 Cu1_2 1_555 1_555
O15_3 Cu2_2 1_555 1_555
Cu3_2 O1_6 1_555 1_555
Cu6_2 O3_6 1_555 1_555
O1_6 H1_6 1_555 1_555
H2_6 O1_6 1_555 1_555
O3_6 H3_6 1_555 1_555
H4_6 O3_6 1_555 1_555
O5_4 C22_6 1_555 1_555
O7_6 Cu3_2 1_555 1_555
O8_4 C1_6 1_555 1_555
O9_6 Cu6_2 1_555 1_555
C1_6 O7_6 1_555 1_555
C2_6 C1_6 1_555 1_555
C3_6 C6_6 1_555 1_555
C4_6 C6_6 1_555 1_555
C5_6 C17_6 1_555 1_555
C6_6 H5_6 1_555 1_555
C7_6 C2_6 1_555 1_555
H6_6 C7_6 1_555 1_555
C9_6 C4_6 1_555 1_555
C10_6 C4_6 1_555 1_555
C11_6 C10_6 1_555 1_555
H7_6 C11_6 1_555 1_555
C12_6 C2_6 1_555 1_555
H8_6 C12_6 1_555 1_555
C13_6 C3_6 1_555 1_555
C15_6 C3_6 1_555 1_555
C16_6 C13_6 1_555 1_555
C17_6 C7_6 1_555 1_555
H9_6 C17_6 1_555 1_555
C18_6 C15_6 1_555 1_555
C20_6 C5_6 1_555 1_555
C21_6 C5_6 1_555 1_555
H10_6 C21_6 1_555 1_555
C22_6 O9_6 1_555 1_555
C28_6 C22_6 1_555 1_555
C29_6 C28_6 1_555 1_555
H13_6 C29_6 1_555 1_555
C37_6 C16_6 1_555 1_555
C40_6 C29_6 1_555 1_555
H20_6 C40_6 1_555 1_555
C41_6 C37_6 1_555 1_555
H21_6 C41_6 1_555 1_555
C42_6 C28_6 1_555 1_555
H22_6 C42_6 1_555 1_555
O12_4 Cu3_2 1_555 1_555
O13_4 Cu3_2 1_555 1_555
O15_4 Cu6_2 1_555 1_555
O16_4 Cu6_2 1_555 1_555
O5_4 Cu5_2 1_555 1_555
O8_4 Cu8_2 1_555 1_555
C11_6 C15_6 1_555 1_555
C12_6 C21_6 1_555 1_555
C18_6 C20_6 1_555 1_555
C37_6 C40_6 1_555 1_555
C41_6 C42_6 1_555 1_555
O14_3 C23_6 1_555 1_555
O10_4 C23_6 1_555 1_555
C23_6 C25_6 1_555 1_555
C24_6 H11_6 1_555 1_555
C25_6 C24_6 1_555 1_555
C26_6 C25_6 1_555 1_555
H12_6 C26_6 1_555 1_555
C33_6 C24_6 1_555 1_555
H15_6 C33_6 1_555 1_555
C35_6 C26_6 1_555 1_555
H17_6 C35_6 1_555 1_555
C36_6 C19_6 1_555 1_555
C33_6 C36_6 1_555 1_555
C35_6 C36_6 1_555 1_555
O11_3 C30_6 1_555 1_555
O4_4 C30_6 1_555 1_555
C14_6 C31_6 1_555 1_555
C27_6 C30_6 1_555 1_555
C32_6 C27_6 1_555 1_555
H14_6 C32_6 1_555 1_555
C34_6 C27_6 1_555 1_555
H16_6 C34_6 1_555 1_555
C38_6 C14_6 1_555 1_555
H18_6 C38_6 1_555 1_555
C39_6 C14_6 1_555 1_555
H19_6 C39_6 1_555 1_555
C32_6 C39_6 1_555 1_555
C34_6 C38_6 1_555 1_555
O11_4 Cu7_2 1_555 1_555
Cu4_2 O1_7 1_555 1_555
O1_7 H1_7 1_555 1_555
H2_7 O1_7 1_555 1_555
O3_7 H3_7 1_555 1_555
H4_7 O3_7 1_555 1_555
O14_4 Cu4_2 1_555 1_555
O13_3 C22_7 1_555 1_555
O2_4 C30_7 1_555 1_555
O12_4 C30_7 1_555 1_555
O6_4 C23_7 1_555 1_555
O15_3 C1_7 1_555 1_555
O16_4 C23_7 1_555 1_555
C1_7 O7_7 1_555 1_555
C2_7 C1_7 1_555 1_555
C3_7 C6_7 1_555 1_555
C4_7 C6_7 1_555 1_555
C5_7 C17_7 1_555 1_555
C6_7 H5_7 1_555 1_555
C7_7 C2_7 1_555 1_555
H6_7 C7_7 1_555 1_555
C8_5 C10_7 1_555 1_555
C9_7 C4_7 1_555 1_555
C10_7 C4_7 1_555 1_555
C11_7 C10_7 1_555 1_555
H7_7 C11_7 1_555 1_555
C12_7 C2_7 1_555 1_555
H8_7 C12_7 1_555 1_555
C13_7 C3_7 1_555 1_555
C14_7 C31_7 1_555 1_555
C15_7 C3_7 1_555 1_555
C16_7 C13_7 1_555 1_555
C17_7 C7_7 1_555 1_555
H9_7 C17_7 1_555 1_555
C18_7 C15_7 1_555 1_555
C19_7 C9_7 1_555 1_555
C20_7 C5_7 1_555 1_555
C21_7 C5_7 1_555 1_555
H10_7 C21_7 1_555 1_555
C23_7 C25_7 1_555 1_555
C24_7 H11_7 1_555 1_555
C25_7 C24_7 1_555 1_555
C26_7 C25_7 1_555 1_555
H12_7 C26_7 1_555 1_555
C27_7 C30_7 1_555 1_555
C29_7 C28_7 1_555 1_555
C31_7 C8_5 1_555 1_555
C32_7 C27_7 1_555 1_555
H14_7 C32_7 1_555 1_555
C33_7 C24_7 1_555 1_555
H15_7 C33_7 1_555 1_555
C34_7 C27_7 1_555 1_555
H16_7 C34_7 1_555 1_555
C35_7 C26_7 1_555 1_555
H17_7 C35_7 1_555 1_555
C36_7 C19_7 1_555 1_555
C37_7 C16_7 1_555 1_555
C38_7 C14_7 1_555 1_555
H18_7 C38_7 1_555 1_555
C39_7 C14_7 1_555 1_555
H19_7 C39_7 1_555 1_555
C40_7 C29_7 1_555 1_555
H20_7 C40_7 1_555 1_555
C41_7 C37_7 1_555 1_555
H21_7 C41_7 1_555 1_555
C42_7 C28_7 1_555 1_555
H22_7 C42_7 1_555 1_555
Cu5_2 O6_4 1_555 1_555
Cu8_2 O2_4 1_555 1_555
C11_7 C15_7 1_555 1_555
C12_7 C21_7 1_555 1_555
C18_7 C20_7 1_555 1_555
C32_7 C39_7 1_555 1_555
C33_7 C36_7 1_555 1_555
C34_7 C38_7 1_555 1_555
C35_7 C36_7 1_555 1_555
C37_7 C40_7 1_555 1_555
C41_7 C42_7 1_555 1_555
O13_4 C22_8 1_555 1_555
Cu5_2 O1_8 1_555 1_555
O1_8 H1_8 1_555 1_555
H2_8 O1_8 1_555 1_555
O3_8 H3_8 1_555 1_555
H4_8 O3_8 1_555 1_555
O7_8 Cu5_2 1_555 1_555
O15_4 C1_8 1_555 1_555
C1_8 O7_8 1_555 1_555
C2_8 C1_8 1_555 1_555
C3_8 C6_8 1_555 1_555
C4_8 C6_8 1_555 1_555
C5_8 C17_8 1_555 1_555
C6_8 H5_8 1_555 1_555
C7_8 C2_8 1_555 1_555
H6_8 C7_8 1_555 1_555
C8_6 C10_8 1_555 1_555
C9_8 C4_8 1_555 1_555
C10_8 C4_8 1_555 1_555
C11_8 C10_8 1_555 1_555
H7_8 C11_8 1_555 1_555
C12_8 C2_8 1_555 1_555
H8_8 C12_8 1_555 1_555
C13_8 C3_8 1_555 1_555
C15_8 C3_8 1_555 1_555
C16_8 C13_8 1_555 1_555
C17_8 C7_8 1_555 1_555
H9_8 C17_8 1_555 1_555
C18_8 C15_8 1_555 1_555
C20_8 C5_8 1_555 1_555
C21_8 C5_8 1_555 1_555
H10_8 C21_8 1_555 1_555
C29_8 C28_8 1_555 1_555
C37_8 C16_8 1_555 1_555
C40_8 C29_8 1_555 1_555
H20_8 C40_8 1_555 1_555
C41_8 C37_8 1_555 1_555
H21_8 C41_8 1_555 1_555
C42_8 C28_8 1_555 1_555
H22_8 C42_8 1_555 1_555
C11_8 C15_8 1_555 1_555
C12_8 C21_8 1_555 1_555
C18_8 C20_8 1_555 1_555
C37_8 C40_8 1_555 1_555
C41_8 C42_8 1_555 1_555
O11_4 C30_8 1_555 1_555
O12_3 C30_8 1_555 1_555
O14_4 C23_8 1_555 1_555
O16_3 C23_8 1_555 1_555
C14_8 C31_8 1_555 1_555
C23_8 C25_8 1_555 1_555
C24_8 H11_8 1_555 1_555
C25_8 C24_8 1_555 1_555
C26_8 C25_8 1_555 1_555
H12_8 C26_8 1_555 1_555
C27_8 C30_8 1_555 1_555
C32_8 C27_8 1_555 1_555
H14_8 C32_8 1_555 1_555
C33_8 C24_8 1_555 1_555
H15_8 C33_8 1_555 1_555
C34_8 C27_8 1_555 1_555
H16_8 C34_8 1_555 1_555
C35_8 C26_8 1_555 1_555
H17_8 C35_8 1_555 1_555
C36_8 C19_8 1_555 1_555
C38_8 C14_8 1_555 1_555
H18_8 C38_8 1_555 1_555
C39_8 C14_8 1_555 1_555
H19_8 C39_8 1_555 1_555
C32_8 C39_8 1_555 1_555
C33_8 C36_8 1_555 1_555
C34_8 C38_8 1_555 1_555
C35_8 C36_8 1_555 1_555

#END
