
###############################################################################
#
# This file contains modified crystal structure data generated from the
# MOF subset of the Cambridge Structural Database (CSD) v543 
# hosted by the Cambridge Crystallographic Data Centre (CCDC).
#
# This work is licensed under the Creative Commons
# Attribution-NonCommercial-ShareAlike 4.0 International License.
# To view a copy of this license, visit
# http://creativecommons.org/licenses/by-nc-sa/4.0/
# or send a letter to
# Creative Commons, PO Box 1866, Mountain View, CA 94042, USA.
#
# CIF created using the CSD Python API on 29 September 2022
# The structure has been converted into the P1 space group
# The structure has a 3D framework
# The original CSD entry RIBTAZ is in the monoclinic crystal system
# The framework has been calculated to contain at least 10.0% void space
# The void calculation uses a probe of radius 1.32A, grid spacing 0.4
# H atom positions have been added when not included in the experimental data
#
###############################################################################

data_RIBTAZ
_chemical_formula_moiety         '(C124 H96 Cu16 N32 O66)n'
_symmetry_cell_setting           triclinic
_symmetry_space_group_name_H-M   'P 1'
_symmetry_Int_Tables_number      1
_space_group_name_Hall           'P 1'
loop_
_symmetry_equiv_pos_site_id
_symmetry_equiv_pos_as_xyz
1 x,y,z
_cell_length_a                   16.000(4)
_cell_length_b                   21.411(5)
_cell_length_c                   19.198(5)
_cell_angle_alpha                90
_cell_angle_beta                 99.861(3)
_cell_angle_gamma                90
_cell_volume                     6479.61
loop_
_atom_site_label
_atom_site_type_symbol
_atom_site_fract_x
_atom_site_fract_y
_atom_site_fract_z
O6 O 0.17571(14) 0.70250(11) 0.00979(12)
Cu5 Cu 0.36123(2) 0.649047(16) 0.02191(2)
Cu10 Cu 0.18732(2) 0.625899(17) 0.08536(2)
C1 C 0.03381(18) 0.80257(14) 0.84530(17)
C10 C 0.06906(18) 0.81441(14) 0.78453(17)
H6 H 0.0423 0.8414 0.7498
C12 C 0.07552(18) 0.76451(14) 0.89768(17)
H8 H 0.0522 0.7571 0.9381
C20 C 0.14527(19) 0.78493(14) 0.77698(16)
C21 C 0.15264(18) 0.73686(14) 0.89060(16)
C22 C 0.2017(2) 0.70107(14) 0.95174(17)
C23 C 0.18591(19) 0.74632(14) 0.82978(17)
H13 H 0.2361 0.7265 0.8243
C24 C 0.1829(2) 0.79637(15) 0.71106(17)
O5 O 0.26918(13) 0.67466(10) 0.94135(11)
O7 O 0.24247(13) 0.76069(10) 0.70211(11)
O8 O 0.15213(13) 0.83915(11) 0.67137(12)
Cu9 Cu 0.31256(2) 0.761569(17) 0.62940(2)
Cu12 Cu 0.18732(2) 0.874101(17) 0.58536(2)
C15 C 0.7306(2) 0.04080(15) 0.8758(2)
H10 H 0.7666 0.0659 0.8547
C16 C 0.65781(19) 0.06680(14) 0.89396(17)
C17 C 0.6062(2) 0.02842(16) 0.9256(2)
H11 H 0.5561 0.0443 0.9369
C18 C 0.6369(2) 0.13446(14) 0.88372(17)
O3 O 0.69340(14) 0.17115(9) 0.87033(12)
O4 O 0.56255(13) 0.14938(9) 0.88946(13)
Cu7 Cu 0.51047(2) 0.227945(16) 0.90416(2)
Cu8 Cu 0.68744(2) 0.261569(17) 0.87060(2)
Cu2 Cu 0.48953(2) 0.772055(16) 0.09584(2)
Cu3 Cu 0.31256(2) 0.738431(17) 0.12940(2)
C5 C 0.69400(18) 0.66933(14) 0.00414(16)
H4 H 0.6900 0.7121 0.0117
C9 C 0.63466(18) 0.56561(13) 0.00683(16)
H5 H 0.5898 0.5395 0.0123
O9 O 0.30446(11) 0.64851(9) 0.11492(10)
O10 O 0.38065(11) 0.73687(8) 0.05049(10)
O11 O 0.45097(13) 0.72782(11) 0.19686(12)
O12 O 0.48227(13) 0.62905(10) 0.02038(14)
O13 O 0.56043(13) 0.70766(10) 0.06996(13)
C25 C 0.62833(17) 0.62937(13) 0.01592(16)
C26 C 0.54969(19) 0.65742(14) 0.03664(17)
N7 N 0.5465(2) 0.72759(18) 0.29845(19)
C27 C 0.4732(2) 0.73836(18) 0.2608(2)
C28 C 0.6174(3) 0.7018(3) 0.2681(3)
H14 H 0.5981 0.6915 0.2193
H15 H 0.6383 0.6649 0.2936
H16 H 0.6619 0.7323 0.2715
C29 C 0.4170(3) 0.7652(3) 0.3087(3)
H17 H 0.3930 0.8048 0.2905
H18 H 0.3711 0.7367 0.3132
C30 C 0.4738(4) 0.7739(3) 0.3779(3)
H19 H 0.4498 0.7540 0.4154
H20 H 0.4812 0.8180 0.3888
C31 C 0.5581(3) 0.7442(3) 0.3712(3)
H21 H 0.6044 0.7735 0.3832
H22 H 0.5691 0.7076 0.4012
O14 O 0.59710(14) 0.81198(10) 0.14481(13)
O15 O 0.06810(13) 0.60252(11) 0.05774(13)
O16 O 0.59104(17) 0.84021(12) 0.03544(15)
N8 N 0.6285(2) 0.84280(14) 0.0976(2)
O17 O 0.69380(19) 0.87313(15) 0.11567(19)
O18 O 0.34396(12) 0.56138(9) 0.00677(12)
O19 O 0.21645(12) 0.54815(9) 0.03892(12)
O20 O 0.30660(14) 0.82885(9) 0.12967(12)
O21 O 0.43745(13) 0.85062(9) 0.11054(13)
O24 O 0.24247(13) 0.73931(10) 0.20211(11)
O25 O 0.15213(13) 0.66085(11) 0.17137(12)
H23 H 0.0322906 0.630608 0.0814309
H24 H 0.0513979 0.606411 0.00567239
N1 N 0.77032(15) 0.78105(11) 0.95393(15)
N2 N 0.83685(15) 0.85885(11) 0.89240(14)
N3 N 0.89667(15) 0.75648(11) 0.90915(14)
N4 N 0.82995(15) 0.68169(11) 0.96181(14)
H1 H 0.8774 0.6624 0.9632
N5 N 0.95831(15) 0.83524(12) 0.85202(14)
H2 H 0.9516 0.8713 0.8322
C2 C 0.77312(18) 0.58080(13) 0.97697(16)
H3 H 0.8227 0.5641 0.9656
C3 C 0.83092(19) 0.74217(14) 0.94130(17)
C4 C 0.89551(18) 0.81553(14) 0.88639(17)
C6 C 0.70881(17) 0.54093(13) 0.98935(16)
C7 C 0.76479(18) 0.64494(13) 0.98123(17)
C8 C 0.77808(19) 0.83878(14) 0.92859(18)
N6 N 0.71614(16) 0.87886(11) 0.94116(15)
H7 H 0.6805 0.8629 0.9650
C11 C 0.7002(2) 0.94154(14) 0.92218(19)
C13 C 0.7509(2) 0.97893(16) 0.8881(2)
H9 H 0.7988 0.9623 0.8736
C14 C 0.71711(19) 0.47140(14) 0.98025(17)
O1 O 0.65604(12) 0.43862(9) 0.99323(12)
O2 O 0.78355(12) 0.45185(9) 0.96108(12)
C19 C 0.6274(2) 0.96700(16) 0.9407(2)
H12 H 0.5926 0.9424 0.9636
Cu6 Cu 0.63877(2) 0.350953(16) 0.97809(2)
Cu11 Cu 0.81268(2) 0.374101(17) 0.91464(2)
Cu1 Cu 0.63877(2) 0.149047(16) 0.47809(2)
Cu2_2 Cu 0.51047(2) 0.272055(16) 0.40416(2)
Cu3_2 Cu 0.68744(2) 0.238431(17) 0.37060(2)
Cu4 Cu 0.81268(2) 0.125899(17) 0.41464(2)
N1_2 N 0.22968(15) 0.28105(11) 0.54607(15)
N2_2 N 0.16315(15) 0.35885(11) 0.60760(14)
N3_2 N 0.10333(15) 0.25648(11) 0.59085(14)
N4_2 N 0.17005(15) 0.18169(11) 0.53819(14)
H1_2 H 0.1226 0.1624 0.5368
N5_2 N 0.04169(15) 0.33524(12) 0.64798(14)
H2_2 H 0.0484 0.3713 0.6678
C2_2 C 0.22688(18) 0.08080(13) 0.52303(16)
H3_2 H 0.1773 0.0641 0.5344
C3_2 C 0.16908(19) 0.24217(14) 0.55870(17)
C4_2 C 0.10449(18) 0.31553(14) 0.61361(17)
C5_2 C 0.30600(18) 0.16933(14) 0.49586(16)
H4_2 H 0.3100 0.2121 0.4883
C6_2 C 0.29119(17) 0.04093(13) 0.51065(16)
C7_2 C 0.23521(18) 0.14494(13) 0.51877(17)
C8_2 C 0.22192(19) 0.33878(14) 0.57141(18)
C9_2 C 0.36534(18) 0.06561(13) 0.49317(16)
H5_2 H 0.4102 0.0395 0.4877
N6_2 N 0.28386(16) 0.37886(11) 0.55884(15)
H7_2 H 0.3195 0.3629 0.5350
C11_2 C 0.2998(2) 0.44154(14) 0.57782(19)
C13_2 C 0.2491(2) 0.47893(16) 0.6119(2)
H9_2 H 0.2012 0.4623 0.6264
C15_2 C 0.2694(2) 0.54080(15) 0.6242(2)
H10_2 H 0.2334 0.5659 0.6453
C16_2 C 0.34219(19) 0.56680(14) 0.60604(17)
C17_2 C 0.3938(2) 0.52842(16) 0.5744(2)
H11_2 H 0.4439 0.5443 0.5631
C18_2 C 0.3631(2) 0.63446(14) 0.61628(17)
C19_2 C 0.3726(2) 0.46700(16) 0.5593(2)
H12_2 H 0.4074 0.4424 0.5364
O3_2 O 0.30660(14) 0.67115(9) 0.62967(12)
O4_2 O 0.43745(13) 0.64938(9) 0.61054(13)
O9_2 O 0.69554(11) 0.14851(9) 0.38508(10)
O10_2 O 0.61935(11) 0.23687(8) 0.44951(10)
O11_2 O 0.54903(13) 0.22782(11) 0.30314(12)
O12_2 O 0.51773(13) 0.12905(10) 0.47962(14)
O13_2 O 0.43957(13) 0.20766(10) 0.43004(13)
C25_2 C 0.37167(17) 0.12937(13) 0.48408(16)
C26_2 C 0.45031(19) 0.15742(14) 0.46336(17)
N7_2 N 0.4535(2) 0.22759(18) 0.20155(19)
C27_2 C 0.5268(2) 0.23836(18) 0.2392(2)
C28_2 C 0.3826(3) 0.2018(3) 0.2319(3)
H14_2 H 0.4019 0.1915 0.2807
H15_2 H 0.3617 0.1649 0.2064
H16_2 H 0.3381 0.2323 0.2285
C29_2 C 0.5830(3) 0.2652(3) 0.1913(3)
H17_2 H 0.6070 0.3048 0.2095
H18_2 H 0.6289 0.2367 0.1868
C30_2 C 0.5262(4) 0.2739(3) 0.1221(3)
H19_2 H 0.5502 0.2540 0.0846
H20_2 H 0.5188 0.3180 0.1112
C31_2 C 0.4419(3) 0.2442(3) 0.1288(3)
H21_2 H 0.3956 0.2735 0.1168
H22_2 H 0.4309 0.2076 0.0988
O14_2 O 0.40290(14) 0.31198(10) 0.35519(13)
O15_2 O 0.93190(13) 0.10252(11) 0.44226(13)
O16_2 O 0.40896(17) 0.34021(12) 0.46456(15)
N8_2 N 0.3715(2) 0.34280(14) 0.4024(2)
O17_2 O 0.30620(19) 0.37313(15) 0.38433(19)
Cu7_2 Cu 0.48953(2) 0.727945(16) 0.59584(2)
O18_2 O 0.65604(12) 0.06138(9) 0.49323(12)
O19_2 O 0.78355(12) 0.04815(9) 0.46108(12)
O20_2 O 0.69340(14) 0.32885(9) 0.37033(12)
O21_2 O 0.56255(13) 0.35062(9) 0.38946(13)
O22 O 0.73082(13) 0.17466(10) 0.55865(11)
O23 O 0.82429(14) 0.20250(11) 0.49021(12)
O24_2 O 0.75753(13) 0.23931(10) 0.29789(11)
O25_2 O 0.84787(13) 0.16085(11) 0.32863(12)
H23_2 H 0.967709 0.130608 0.418569
H24_2 H 0.948602 0.106411 0.494328
C14_2 C 0.28289(19) 0.97140(14) 0.51975(17)
O1_2 O 0.34396(12) 0.93862(9) 0.50677(12)
O2_2 O 0.21645(12) 0.95185(9) 0.53892(12)
Cu6_2 Cu 0.36123(2) 0.850953(16) 0.52191(2)
C1_2 C 0.96619(18) 0.30257(14) 0.65470(17)
C10_2 C 0.93094(18) 0.31441(14) 0.71547(17)
H6_2 H 0.9577 0.3414 0.7502
C12_2 C 0.92448(18) 0.26451(14) 0.60232(17)
H8_2 H 0.9478 0.2571 0.5619
C20_2 C 0.85473(19) 0.28493(14) 0.72302(16)
C21_2 C 0.84736(18) 0.23686(14) 0.60940(16)
C22_2 C 0.7983(2) 0.20107(14) 0.54826(17)
C23_2 C 0.81409(19) 0.24632(14) 0.67022(17)
H13_2 H 0.7639 0.2265 0.6757
C24_2 C 0.8171(2) 0.29637(15) 0.78894(17)
O7_2 O 0.75753(13) 0.26069(10) 0.79789(11)
O8_2 O 0.84787(13) 0.33915(11) 0.82863(12)
N1_3 N 0.22968(15) 0.21895(11) 0.04607(15)
N2_3 N 0.16315(15) 0.14115(11) 0.10760(14)
N3_3 N 0.10333(15) 0.24352(11) 0.09085(14)
N4_3 N 0.17005(15) 0.31831(11) 0.03819(14)
H1_3 H 0.1226 0.3376 0.0368
N5_3 N 0.04169(15) 0.16476(12) 0.14798(14)
H2_3 H 0.0484 0.1287 0.1678
C2_3 C 0.22688(18) 0.41920(13) 0.02303(16)
H3_3 H 0.1773 0.4359 0.0344
C3_3 C 0.16908(19) 0.25783(14) 0.05870(17)
C4_3 C 0.10449(18) 0.18447(14) 0.11361(17)
C6_3 C 0.29119(17) 0.45907(13) 0.01065(16)
C7_3 C 0.23521(18) 0.35506(13) 0.01877(17)
C8_3 C 0.22192(19) 0.16122(14) 0.07141(18)
N6_3 N 0.28386(16) 0.12114(11) 0.05884(15)
H7_3 H 0.3195 0.1371 0.0350
C11_3 C 0.2998(2) 0.05846(14) 0.07782(19)
C13_3 C 0.2491(2) 0.02107(16) 0.1119(2)
H9_3 H 0.2012 0.0377 0.1264
C14_3 C 0.28289(19) 0.52860(14) 0.01975(17)
C19_3 C 0.3726(2) 0.03300(16) 0.0593(2)
H12_3 H 0.4074 0.0576 0.0364
O22_2 O 0.73082(13) 0.32534(10) 0.05865(11)
C5_3 C 0.30600(18) 0.33067(14) 0.99586(16)
H4_3 H 0.3100 0.2879 0.9883
C9_3 C 0.36534(18) 0.43439(13) 0.99317(16)
H5_3 H 0.4102 0.4605 0.9877
O9_3 O 0.69554(11) 0.35149(9) 0.88508(10)
O10_3 O 0.61935(11) 0.26313(8) 0.94951(10)
O11_3 O 0.54903(13) 0.27218(11) 0.80314(12)
O12_3 O 0.51773(13) 0.37095(10) 0.97962(14)
O13_3 O 0.43957(13) 0.29234(10) 0.93004(13)
C25_3 C 0.37167(17) 0.37063(13) 0.98408(16)
C26_3 C 0.45031(19) 0.34258(14) 0.96336(17)
N7_3 N 0.4535(2) 0.27241(18) 0.70155(19)
C27_3 C 0.5268(2) 0.26164(18) 0.7392(2)
C28_3 C 0.3826(3) 0.2982(3) 0.7319(3)
H14_3 H 0.4019 0.3085 0.7807
H15_3 H 0.3617 0.3351 0.7064
H16_3 H 0.3381 0.2677 0.7285
C29_3 C 0.5830(3) 0.2348(3) 0.6913(3)
H17_3 H 0.6070 0.1952 0.7095
H18_3 H 0.6289 0.2633 0.6868
C30_3 C 0.5262(4) 0.2261(3) 0.6221(3)
H19_3 H 0.5502 0.2460 0.5846
H20_3 H 0.5188 0.1820 0.6112
C31_3 C 0.4419(3) 0.2558(3) 0.6288(3)
H21_3 H 0.3956 0.2265 0.6168
H22_3 H 0.4309 0.2924 0.5988
O14_3 O 0.40290(14) 0.18802(10) 0.85519(13)
O15_3 O 0.93190(13) 0.39748(11) 0.94226(13)
O16_3 O 0.40896(17) 0.15979(12) 0.96456(15)
N8_3 N 0.3715(2) 0.15720(14) 0.9024(2)
O17_3 O 0.30620(19) 0.12687(15) 0.88433(19)
O23_2 O 0.82429(14) 0.29750(11) 0.99021(12)
H23_3 H 0.967709 0.369392 0.918569
H24_3 H 0.948602 0.393589 0.994328
C15_3 C 0.2694(2) 0.95920(15) 0.1242(2)
H10_3 H 0.2334 0.9341 0.1453
C16_3 C 0.34219(19) 0.93320(14) 0.10604(17)
C17_3 C 0.3938(2) 0.97158(16) 0.0744(2)
H11_3 H 0.4439 0.9557 0.0631
C18_3 C 0.3631(2) 0.86554(14) 0.11628(17)
C1_3 C 0.96619(18) 0.19743(14) 0.15470(17)
C10_3 C 0.93094(18) 0.18559(14) 0.21547(17)
H6_3 H 0.9577 0.1586 0.2502
C12_3 C 0.92448(18) 0.23549(14) 0.10232(17)
H8_3 H 0.9478 0.2429 0.0619
C20_3 C 0.85473(19) 0.21507(14) 0.22302(16)
C21_3 C 0.84736(18) 0.26314(14) 0.10940(16)
C22_3 C 0.7983(2) 0.29893(14) 0.04826(17)
C23_3 C 0.81409(19) 0.25368(14) 0.17022(17)
H13_3 H 0.7639 0.2735 0.1757
C24_3 C 0.8171(2) 0.20363(15) 0.28894(17)
C1_4 C 0.03381(18) 0.69743(14) 0.34530(17)
C10_4 C 0.06906(18) 0.68559(14) 0.28453(17)
H6_4 H 0.0423 0.6586 0.2498
C12_4 C 0.07552(18) 0.73549(14) 0.39768(17)
H8_4 H 0.0522 0.7429 0.4381
C20_4 C 0.14527(19) 0.71507(14) 0.27698(16)
C21_4 C 0.15264(18) 0.76314(14) 0.39060(16)
C22_4 C 0.2017(2) 0.79893(14) 0.45174(17)
C23_4 C 0.18591(19) 0.75368(14) 0.32978(17)
H13_4 H 0.2361 0.7735 0.3243
C24_4 C 0.1829(2) 0.70363(15) 0.21106(17)
O5_2 O 0.26918(13) 0.82534(10) 0.44135(11)
O6_2 O 0.17571(14) 0.79750(11) 0.50979(12)
C14_4 C 0.71711(19) 0.02860(14) 0.48025(17)
N1_4 N 0.77032(15) 0.71895(11) 0.45393(15)
N2_4 N 0.83685(15) 0.64115(11) 0.39240(14)
N3_4 N 0.89667(15) 0.74352(11) 0.40915(14)
N4_4 N 0.82995(15) 0.81831(11) 0.46181(14)
H1_4 H 0.8774 0.8376 0.4632
N5_4 N 0.95831(15) 0.66476(12) 0.35202(14)
H2_4 H 0.9516 0.6287 0.3322
C2_4 C 0.77312(18) 0.91920(13) 0.47697(16)
H3_4 H 0.8227 0.9359 0.4656
C3_4 C 0.83092(19) 0.75783(14) 0.44130(17)
C4_4 C 0.89551(18) 0.68447(14) 0.38639(17)
C5_4 C 0.69400(18) 0.83067(14) 0.50414(16)
H4_4 H 0.6900 0.7879 0.5117
C6_4 C 0.70881(17) 0.95907(13) 0.48935(16)
C7_4 C 0.76479(18) 0.85506(13) 0.48123(17)
C8_4 C 0.77808(19) 0.66122(14) 0.42859(18)
C9_4 C 0.63466(18) 0.93439(13) 0.50683(16)
H5_4 H 0.5898 0.9605 0.5123
N6_4 N 0.71614(16) 0.62114(11) 0.44116(15)
H7_4 H 0.6805 0.6371 0.4650
C11_4 C 0.7002(2) 0.55846(14) 0.42218(19)
C13_4 C 0.7509(2) 0.52107(16) 0.3881(2)
H9_4 H 0.7988 0.5377 0.3736
C15_4 C 0.7306(2) 0.45920(15) 0.3758(2)
H10_4 H 0.7666 0.4341 0.3547
C16_4 C 0.65781(19) 0.43320(14) 0.39396(17)
C17_4 C 0.6062(2) 0.47158(16) 0.4256(2)
H11_4 H 0.5561 0.4557 0.4369
C18_4 C 0.6369(2) 0.36554(14) 0.38372(17)
C19_4 C 0.6274(2) 0.53300(16) 0.4407(2)
H12_4 H 0.5926 0.5576 0.4636
O9_4 O 0.30446(11) 0.85149(9) 0.61492(10)
O10_4 O 0.38065(11) 0.76313(8) 0.55049(10)
O11_4 O 0.45097(13) 0.77218(11) 0.69686(12)
O12_4 O 0.48227(13) 0.87095(10) 0.52038(14)
O13_4 O 0.56043(13) 0.79234(10) 0.56996(13)
C25_4 C 0.62833(17) 0.87063(13) 0.51592(16)
C26_4 C 0.54969(19) 0.84258(14) 0.53664(17)
N7_4 N 0.5465(2) 0.77241(18) 0.79845(19)
C27_4 C 0.4732(2) 0.76164(18) 0.7608(2)
C28_4 C 0.6174(3) 0.7982(3) 0.7681(3)
H14_4 H 0.5981 0.8085 0.7193
H15_4 H 0.6383 0.8351 0.7936
H16_4 H 0.6619 0.7677 0.7715
C29_4 C 0.4170(3) 0.7348(3) 0.8087(3)
H17_4 H 0.3930 0.6952 0.7905
H18_4 H 0.3711 0.7633 0.8132
C30_4 C 0.4738(4) 0.7261(3) 0.8779(3)
H19_4 H 0.4498 0.7460 0.9154
H20_4 H 0.4812 0.6820 0.8888
C31_4 C 0.5581(3) 0.7558(3) 0.8712(3)
H21_4 H 0.6044 0.7265 0.8832
H22_4 H 0.5691 0.7924 0.9012
O14_4 O 0.59710(14) 0.68802(10) 0.64481(13)
O15_4 O 0.06810(13) 0.89748(11) 0.55774(13)
O16_4 O 0.59104(17) 0.65979(12) 0.53544(15)
N8_4 N 0.6285(2) 0.65720(14) 0.5976(2)
O17_4 O 0.69380(19) 0.62687(15) 0.61567(19)
H23_4 H 0.0322906 0.869392 0.581431
H24_4 H 0.0513979 0.893589 0.505672
loop_
_geom_bond_atom_site_label_1
_geom_bond_atom_site_label_2
_geom_bond_site_symmetry_1
_geom_bond_site_symmetry_2
Cu10 O6 1_555 1_555
C10 C1 1_555 1_555
H6 C10 1_555 1_555
C12 C1 1_555 1_555
H8 C12 1_555 1_555
C20 C10 1_555 1_555
C21 C12 1_555 1_555
C22 C21 1_555 1_555
C23 C20 1_555 1_555
H13 C23 1_555 1_555
C24 C20 1_555 1_555
O5 C22 1_555 1_555
O7 C24 1_555 1_555
O8 C24 1_555 1_555
Cu9 O7 1_555 1_555
Cu12 O8 1_555 1_555
C21 C23 1_555 1_555
H10 C15 1_555 1_555
C16 C15 1_555 1_555
C17 C16 1_555 1_555
H11 C17 1_555 1_555
C18 C16 1_555 1_555
O3 C18 1_555 1_555
O4 C18 1_555 1_555
Cu7 O4 1_555 1_555
Cu8 O3 1_555 1_555
Cu5 O9 1_555 1_555
Cu2 O10 1_555 1_555
Cu3 O9 1_555 1_555
Cu10 O9 1_555 1_555
C5 H4 1_555 1_555
H5 C9 1_555 1_555
O10 Cu5 1_555 1_555
O11 Cu2 1_555 1_555
O12 Cu5 1_555 1_555
O13 Cu2 1_555 1_555
C25 C5 1_555 1_555
C26 O12 1_555 1_555
N7 C27 1_555 1_555
C27 O11 1_555 1_555
C28 N7 1_555 1_555
H14 C28 1_555 1_555
H15 C28 1_555 1_555
H16 C28 1_555 1_555
C29 C27 1_555 1_555
H17 C29 1_555 1_555
H18 C29 1_555 1_555
C30 C29 1_555 1_555
H19 C30 1_555 1_555
H20 C30 1_555 1_555
C31 N7 1_555 1_555
H21 C31 1_555 1_555
H22 C31 1_555 1_555
O14 Cu2 1_555 1_555
O15 Cu10 1_555 1_555
O16 N8 1_555 1_555
N8 O14 1_555 1_555
O17 N8 1_555 1_555
O18 Cu5 1_555 1_555
O19 Cu10 1_555 1_555
O20 Cu3 1_555 1_555
O21 Cu2 1_555 1_555
O24 Cu3 1_555 1_555
O25 Cu10 1_555 1_555
Cu3 O10 1_555 1_555
Cu3 O11 1_555 1_555
C9 C25 1_555 1_555
O13 C26 1_555 1_555
C25 C26 1_555 1_555
C30 C31 1_555 1_555
O15 H23 1_555 1_555
O15 H24 1_555 1_555
N1 C3 1_555 1_555
N2 C4 1_555 1_555
N3 C3 1_555 1_555
N4 H1 1_555 1_555
N5 H2 1_555 1_555
C2 H3 1_555 1_555
C3 N4 1_555 1_555
C4 N3 1_555 1_555
C6 C2 1_555 1_555
C7 N4 1_555 1_555
C8 N1 1_555 1_555
N6 C8 1_555 1_555
H7 N6 1_555 1_555
C11 N6 1_555 1_555
C13 C11 1_555 1_555
H9 C13 1_555 1_555
C14 C6 1_555 1_555
O1 C14 1_555 1_555
O2 C14 1_555 1_555
C19 C11 1_555 1_555
H12 C19 1_555 1_555
Cu6 O1 1_555 1_555
Cu11 O2 1_555 1_555
N2 C8 1_555 1_555
N5 C4 1_555 1_555
C2 C7 1_555 1_555
Cu1 O9_2 1_555 1_555
Cu2_2 O10_2 1_555 1_555
Cu3_2 O9_2 1_555 1_555
Cu4 O9_2 1_555 1_555
N1_2 C3_2 1_555 1_555
N2_2 C4_2 1_555 1_555
N3_2 C3_2 1_555 1_555
N4_2 H1_2 1_555 1_555
N5_2 H2_2 1_555 1_555
C2_2 H3_2 1_555 1_555
C3_2 N4_2 1_555 1_555
C4_2 N3_2 1_555 1_555
C5_2 H4_2 1_555 1_555
C6_2 C2_2 1_555 1_555
C7_2 N4_2 1_555 1_555
C8_2 N1_2 1_555 1_555
C9_2 C6_2 1_555 1_555
H5_2 C9_2 1_555 1_555
N6_2 C8_2 1_555 1_555
H7_2 N6_2 1_555 1_555
C11_2 N6_2 1_555 1_555
C13_2 C11_2 1_555 1_555
H9_2 C13_2 1_555 1_555
C15_2 C13_2 1_555 1_555
H10_2 C15_2 1_555 1_555
C16_2 C15_2 1_555 1_555
C17_2 C16_2 1_555 1_555
H11_2 C17_2 1_555 1_555
C18_2 C16_2 1_555 1_555
C19_2 C11_2 1_555 1_555
H12_2 C19_2 1_555 1_555
O3_2 C18_2 1_555 1_555
O4_2 C18_2 1_555 1_555
O10_2 Cu1 1_555 1_555
O11_2 Cu2_2 1_555 1_555
O12_2 Cu1 1_555 1_555
O13_2 Cu2_2 1_555 1_555
C25_2 C5_2 1_555 1_555
C26_2 O12_2 1_555 1_555
N7_2 C27_2 1_555 1_555
C27_2 O11_2 1_555 1_555
C28_2 N7_2 1_555 1_555
H14_2 C28_2 1_555 1_555
H15_2 C28_2 1_555 1_555
H16_2 C28_2 1_555 1_555
C29_2 C27_2 1_555 1_555
H17_2 C29_2 1_555 1_555
H18_2 C29_2 1_555 1_555
C30_2 C29_2 1_555 1_555
H19_2 C30_2 1_555 1_555
H20_2 C30_2 1_555 1_555
C31_2 N7_2 1_555 1_555
H21_2 C31_2 1_555 1_555
H22_2 C31_2 1_555 1_555
O14_2 Cu2_2 1_555 1_555
O15_2 Cu4 1_555 1_555
O16_2 N8_2 1_555 1_555
N8_2 O14_2 1_555 1_555
O17_2 N8_2 1_555 1_555
Cu7_2 O4_2 1_555 1_555
Cu9 O3_2 1_555 1_555
O18_2 Cu1 1_555 1_555
O19_2 Cu4 1_555 1_555
O20_2 Cu3_2 1_555 1_555
O21_2 Cu2_2 1_555 1_555
O22 Cu1 1_555 1_555
O23 Cu4 1_555 1_555
O24_2 Cu3_2 1_555 1_555
O25_2 Cu4 1_555 1_555
Cu3_2 O10_2 1_555 1_555
Cu3_2 O11_2 1_555 1_555
N2_2 C8_2 1_555 1_555
N5_2 C4_2 1_555 1_555
C2_2 C7_2 1_555 1_555
C5_2 C7_2 1_555 1_555
C9_2 C25_2 1_555 1_555
C17_2 C19_2 1_555 1_555
O13_2 C26_2 1_555 1_555
C25_2 C26_2 1_555 1_555
C30_2 C31_2 1_555 1_555
O15_2 H23_2 1_555 1_555
O15_2 H24_2 1_555 1_555
O1_2 C14_2 1_555 1_555
O2_2 C14_2 1_555 1_555
Cu6_2 O1_2 1_555 1_555
Cu12 O2_2 1_555 1_555
C10_2 C1_2 1_555 1_555
H6_2 C10_2 1_555 1_555
C12_2 C1_2 1_555 1_555
H8_2 C12_2 1_555 1_555
C20_2 C10_2 1_555 1_555
C21_2 C12_2 1_555 1_555
C22_2 C21_2 1_555 1_555
C23_2 C20_2 1_555 1_555
H13_2 C23_2 1_555 1_555
C24_2 C20_2 1_555 1_555
O22 C22_2 1_555 1_555
O23 C22_2 1_555 1_555
O7_2 C24_2 1_555 1_555
O8_2 C24_2 1_555 1_555
Cu8 O7_2 1_555 1_555
Cu11 O8_2 1_555 1_555
C21_2 C23_2 1_555 1_555
N1_3 C3_3 1_555 1_555
N2_3 C4_3 1_555 1_555
N3_3 C3_3 1_555 1_555
N4_3 H1_3 1_555 1_555
N5_3 H2_3 1_555 1_555
C2_3 H3_3 1_555 1_555
C3_3 N4_3 1_555 1_555
C4_3 N3_3 1_555 1_555
C6_3 C2_3 1_555 1_555
C7_3 N4_3 1_555 1_555
C8_3 N1_3 1_555 1_555
N6_3 C8_3 1_555 1_555
H7_3 N6_3 1_555 1_555
C11_3 N6_3 1_555 1_555
C13_3 C11_3 1_555 1_555
H9_3 C13_3 1_555 1_555
C14_3 C6_3 1_555 1_555
O18 C14_3 1_555 1_555
O19 C14_3 1_555 1_555
C19_3 C11_3 1_555 1_555
H12_3 C19_3 1_555 1_555
N2_3 C8_3 1_555 1_555
N5_3 C4_3 1_555 1_555
C2_3 C7_3 1_555 1_555
Cu6 O9_3 1_555 1_555
Cu7 O10_3 1_555 1_555
Cu8 O9_3 1_555 1_555
Cu11 O9_3 1_555 1_555
C5_3 H4_3 1_555 1_555
H5_3 C9_3 1_555 1_555
O10_3 Cu6 1_555 1_555
O11_3 Cu7 1_555 1_555
O12_3 Cu6 1_555 1_555
O13_3 Cu7 1_555 1_555
C25_3 C5_3 1_555 1_555
C26_3 O12_3 1_555 1_555
N7_3 C27_3 1_555 1_555
C27_3 O11_3 1_555 1_555
C28_3 N7_3 1_555 1_555
H14_3 C28_3 1_555 1_555
H15_3 C28_3 1_555 1_555
H16_3 C28_3 1_555 1_555
C29_3 C27_3 1_555 1_555
H17_3 C29_3 1_555 1_555
H18_3 C29_3 1_555 1_555
C30_3 C29_3 1_555 1_555
H19_3 C30_3 1_555 1_555
H20_3 C30_3 1_555 1_555
C31_3 N7_3 1_555 1_555
H21_3 C31_3 1_555 1_555
H22_3 C31_3 1_555 1_555
O14_3 Cu7 1_555 1_555
O15_3 Cu11 1_555 1_555
O16_3 N8_3 1_555 1_555
N8_3 O14_3 1_555 1_555
O17_3 N8_3 1_555 1_555
O23_2 Cu11 1_555 1_555
Cu8 O10_3 1_555 1_555
Cu8 O11_3 1_555 1_555
C9_3 C25_3 1_555 1_555
O13_3 C26_3 1_555 1_555
C25_3 C26_3 1_555 1_555
C30_3 C31_3 1_555 1_555
O15_3 H23_3 1_555 1_555
O15_3 H24_3 1_555 1_555
H10_3 C15_3 1_555 1_555
C16_3 C15_3 1_555 1_555
C17_3 C16_3 1_555 1_555
H11_3 C17_3 1_555 1_555
C18_3 C16_3 1_555 1_555
O20 C18_3 1_555 1_555
O21 C18_3 1_555 1_555
C10_3 C1_3 1_555 1_555
H6_3 C10_3 1_555 1_555
C12_3 C1_3 1_555 1_555
H8_3 C12_3 1_555 1_555
C20_3 C10_3 1_555 1_555
C21_3 C12_3 1_555 1_555
C22_3 C21_3 1_555 1_555
C23_3 C20_3 1_555 1_555
H13_3 C23_3 1_555 1_555
C24_3 C20_3 1_555 1_555
O22_2 C22_3 1_555 1_555
O24_2 C24_3 1_555 1_555
O25_2 C24_3 1_555 1_555
C21_3 C23_3 1_555 1_555
C10_4 C1_4 1_555 1_555
H6_4 C10_4 1_555 1_555
C12_4 C1_4 1_555 1_555
H8_4 C12_4 1_555 1_555
C20_4 C10_4 1_555 1_555
C21_4 C12_4 1_555 1_555
C22_4 C21_4 1_555 1_555
C23_4 C20_4 1_555 1_555
H13_4 C23_4 1_555 1_555
C24_4 C20_4 1_555 1_555
O5_2 C22_4 1_555 1_555
O6_2 C22_4 1_555 1_555
O24 C24_4 1_555 1_555
O25 C24_4 1_555 1_555
Cu6_2 O5_2 1_555 1_555
Cu12 O6_2 1_555 1_555
C21_4 C23_4 1_555 1_555
O18_2 C14_4 1_555 1_555
O19_2 C14_4 1_555 1_555
Cu6_2 O9_4 1_555 1_555
Cu7_2 O10_4 1_555 1_555
Cu9 O9_4 1_555 1_555
Cu12 O9_4 1_555 1_555
N1_4 C3_4 1_555 1_555
N2_4 C4_4 1_555 1_555
N3_4 C3_4 1_555 1_555
N4_4 H1_4 1_555 1_555
N5_4 H2_4 1_555 1_555
C2_4 H3_4 1_555 1_555
C3_4 N4_4 1_555 1_555
C4_4 N3_4 1_555 1_555
C5_4 H4_4 1_555 1_555
C6_4 C2_4 1_555 1_555
C7_4 N4_4 1_555 1_555
C8_4 N1_4 1_555 1_555
C9_4 C6_4 1_555 1_555
H5_4 C9_4 1_555 1_555
N6_4 C8_4 1_555 1_555
H7_4 N6_4 1_555 1_555
C11_4 N6_4 1_555 1_555
C13_4 C11_4 1_555 1_555
H9_4 C13_4 1_555 1_555
C15_4 C13_4 1_555 1_555
H10_4 C15_4 1_555 1_555
C16_4 C15_4 1_555 1_555
C17_4 C16_4 1_555 1_555
H11_4 C17_4 1_555 1_555
C18_4 C16_4 1_555 1_555
C19_4 C11_4 1_555 1_555
H12_4 C19_4 1_555 1_555
O20_2 C18_4 1_555 1_555
O21_2 C18_4 1_555 1_555
O10_4 Cu6_2 1_555 1_555
O11_4 Cu7_2 1_555 1_555
O12_4 Cu6_2 1_555 1_555
O13_4 Cu7_2 1_555 1_555
C25_4 C5_4 1_555 1_555
C26_4 O12_4 1_555 1_555
N7_4 C27_4 1_555 1_555
C27_4 O11_4 1_555 1_555
C28_4 N7_4 1_555 1_555
H14_4 C28_4 1_555 1_555
H15_4 C28_4 1_555 1_555
H16_4 C28_4 1_555 1_555
C29_4 C27_4 1_555 1_555
H17_4 C29_4 1_555 1_555
H18_4 C29_4 1_555 1_555
C30_4 C29_4 1_555 1_555
H19_4 C30_4 1_555 1_555
H20_4 C30_4 1_555 1_555
C31_4 N7_4 1_555 1_555
H21_4 C31_4 1_555 1_555
H22_4 C31_4 1_555 1_555
O14_4 Cu7_2 1_555 1_555
O15_4 Cu12 1_555 1_555
O16_4 N8_4 1_555 1_555
N8_4 O14_4 1_555 1_555
O17_4 N8_4 1_555 1_555
Cu9 O10_4 1_555 1_555
Cu9 O11_4 1_555 1_555
N2_4 C8_4 1_555 1_555
N5_4 C4_4 1_555 1_555
C2_4 C7_4 1_555 1_555
C5_4 C7_4 1_555 1_555
C9_4 C25_4 1_555 1_555
C17_4 C19_4 1_555 1_555
O13_4 C26_4 1_555 1_555
C25_4 C26_4 1_555 1_555
C30_4 C31_4 1_555 1_555
O15_4 H23_4 1_555 1_555
O15_4 H24_4 1_555 1_555

#END
