
###############################################################################
#
# This file contains modified crystal structure data generated from the
# MOF subset of the Cambridge Structural Database (CSD) v543 
# hosted by the Cambridge Crystallographic Data Centre (CCDC).
#
# This work is licensed under the Creative Commons
# Attribution-NonCommercial-ShareAlike 4.0 International License.
# To view a copy of this license, visit
# http://creativecommons.org/licenses/by-nc-sa/4.0/
# or send a letter to
# Creative Commons, PO Box 1866, Mountain View, CA 94042, USA.
#
# CIF created using the CSD Python API on 29 September 2022
# The structure has been converted into the P1 space group
# The structure has a 3D framework
# The original CSD entry RIBZOS is in the monoclinic crystal system
# The framework has been calculated to contain at least 10.0% void space
# The void calculation uses a probe of radius 1.32A, grid spacing 0.4
#
###############################################################################

data_RIBZOS
_chemical_formula_moiety         '(C48 H56 Ho8 O62)n'
_symmetry_cell_setting           triclinic
_symmetry_space_group_name_H-M   'P 1'
_symmetry_Int_Tables_number      1
_space_group_name_Hall           'P 1'
loop_
_symmetry_equiv_pos_site_id
_symmetry_equiv_pos_as_xyz
1 x,y,z
_cell_length_a                   9.4149(3)
_cell_length_b                   14.6460(8)
_cell_length_c                   14.6985(11)
_cell_angle_alpha                90
_cell_angle_beta                 91.005(5)
_cell_angle_gamma                90
_cell_volume                     2026.47
loop_
_atom_site_label
_atom_site_type_symbol
_atom_site_fract_x
_atom_site_fract_y
_atom_site_fract_z
O3 O 0.2403(3) 0.1815(2) 0.2928(2)
O4 O 0.2065(3) 0.1277(2) 0.43263(19)
C3 C 0.0058(4) 0.1687(3) 0.3461(3)
C4 C 0.1627(4) 0.1601(2) 0.3574(3)
Ho3 Ho 0.476017(17) 0.163627(11) 0.254716(11)
Ho5 Ho 0.188568(17) 0.154282(11) 0.593250(11)
Ho2 Ho 0.688568(17) 0.345718(11) 0.093250(11)
O1 O 0.7161(3) 0.2227(2) 0.1965(2)
O2 O 0.7119(3) 0.1465(2) 0.3233(2)
O5 O 0.3511(3) 0.0170(2) 0.2185(2)
O6 O 0.5808(3) 0.0254(2) 0.1955(2)
O9 O 0.4616(3) 0.3136(2) 0.1868(2)
O10 O 0.4445(3) 0.3940(2) 0.0620(2)
C1 C 0.7815(4) 0.1862(3) 0.2632(3)
C2 C 0.9387(4) 0.1875(3) 0.2691(3)
H1 H 0.9906 0.2019 0.2178
H2 H 0.9510 0.1600 0.3974
C9 C 0.3861(4) 0.3534(3) 0.1268(3)
C10 C 0.2296(4) 0.3537(3) 0.1344(3)
H5 H 0.1911 0.3729 0.1890
C11 C 0.1421(4) 0.3284(3) 0.0690(3)
H6 H 0.1786 0.3100 0.0136
O13 O 0.4702(3) 0.0745(2) 0.3916(2)
H7 H 0.4941 0.0113 0.3869
H8 H 0.3756 0.0830 0.4132
O14 O 0.4897(4) 0.2771(2) 0.3687(2)
H9 H 0.4880 0.2672 0.4322
H10 H 0.4568 0.3363 0.3529
O15 O 0.7114(4) 0.5024(2) 0.0603(2)
H11 H 0.7355 0.5446 0.1079
H12 H 0.6493 0.5321 0.0171
O16 O 0.6887(3) 0.4236(2) 0.2352(2)
H13 H 0.6140 0.4448 0.2566
H14 H 0.7622 0.4484 0.2556
O19 O 0.5932(3) 0.2196(2) 0.0218(2)
O20 O 0.4145(4) 0.1545(2) 0.0961(2)
O21 O 0.9087(3) 0.2707(2) 0.0403(2)
O22 O 0.9310(3) 0.3878(2) 0.1323(2)
O18 O 0.7065(3) 0.3723(2) 0.93263(19)
O7 O 0.4068(3) 0.7804(2) 0.9782(2)
O8 O 0.5855(4) 0.8455(2) 0.9039(2)
C8 C 0.5080(5) 0.8354(3) 0.9726(3)
Ho4 Ho 0.523983(17) 0.836373(11) 0.745284(11)
Ho6 Ho 0.311432(17) 0.654282(11) 0.906750(11)
C12 C 0.9854(4) 0.3286(3) 0.0811(3)
Ho1 Ho 0.023983(17) 0.663627(11) 0.245284(11)
O5_2 O 0.1489(3) 0.5170(2) 0.2815(2)
O7_2 O 0.0932(3) 0.2804(2) 0.5218(2)
O9_2 O 0.0384(3) 0.8136(2) 0.3132(2)
O10_2 O 0.0555(3) 0.8940(2) 0.4380(2)
O11 O 0.5913(3) 0.7707(2) 0.4597(2)
O12 O 0.5690(3) 0.8878(2) 0.3677(2)
C5 C 0.0397(5) 0.4866(3) 0.3183(3)
C6 C 0.0538(5) 0.4107(3) 0.3839(3)
H3 H 0.1306 0.3712 0.3794
C9_2 C 0.1139(4) 0.8534(3) 0.3732(3)
C10_2 C 0.2704(4) 0.8537(3) 0.3656(3)
H5_2 H 0.3089 0.8729 0.3110
C11_2 C 0.3579(4) 0.8284(3) 0.4310(3)
H6_2 H 0.3214 0.8100 0.4864
C12_2 C 0.5146(4) 0.8286(3) 0.4189(3)
O13_2 O 0.0298(3) 0.5745(2) 0.1084(2)
H7_2 H 0.0059 0.5113 0.1131
H8_2 H 0.1244 0.5830 0.0868
O14_2 O 0.0103(4) 0.7771(2) 0.1313(2)
H9_2 H 0.0120 0.7672 0.0678
H10_2 H 0.0432 0.8363 0.1471
Ho7 Ho 0.811432(17) 0.845718(11) 0.406750(11)
O17 O 0.2597(3) 0.6815(2) 0.2072(2)
O20_2 O 0.0855(4) 0.6545(2) 0.4039(2)
O1_2 O 0.7839(3) 0.7227(2) 0.3035(2)
O2_2 O 0.7881(3) 0.6465(2) 0.1767(2)
O4_2 O 0.2935(3) 0.6277(2) 0.06737(19)
O6_2 O 0.9192(3) 0.5254(2) 0.3045(2)
O8_2 O 0.9145(4) 0.3455(2) 0.5961(2)
C1_2 C 0.7185(4) 0.6862(3) 0.2368(3)
C2_2 C 0.5613(4) 0.6875(3) 0.2309(3)
H1_2 H 0.5094 0.7019 0.2822
C3_2 C 0.4942(4) 0.6687(3) 0.1539(3)
H2_2 H 0.5490 0.6600 0.1026
C4_2 C 0.3373(4) 0.6601(2) 0.1426(3)
C7 C 0.9610(5) 0.3970(3) 0.4489(3)
H4 H 0.8738 0.4268 0.4456
C8_2 C 0.9920(5) 0.3354(3) 0.5274(3)
O16_2 O 0.8113(3) 0.9236(2) 0.2648(2)
H13_2 H 0.8860 0.9448 0.2434
H14_2 H 0.7378 0.9484 0.2444
Ho4_2 Ho 0.976017(17) 0.336373(11) 0.754716(11)
O18_2 O 0.7935(3) 0.8723(2) 0.56737(19)
O19_2 O 0.9068(3) 0.7196(2) 0.4782(2)
O11_2 O 0.0913(3) 0.7293(2) 0.9597(2)
O12_2 O 0.0690(3) 0.6122(2) 0.8677(2)
C12_3 C 0.0146(4) 0.6714(3) 0.9189(3)
C8_3 C 0.4920(5) 0.1646(3) 0.0274(3)
O1_3 O 0.2839(3) 0.7773(2) 0.8035(2)
O2_3 O 0.2881(3) 0.8535(2) 0.6767(2)
O5_3 O 0.6489(3) 0.9830(2) 0.7815(2)
O6_3 O 0.4192(3) 0.9746(2) 0.8045(2)
O9_3 O 0.5384(3) 0.6864(2) 0.8132(2)
O10_3 O 0.5555(3) 0.6060(2) 0.9380(2)
C1_3 C 0.2185(4) 0.8138(3) 0.7368(3)
C2_3 C 0.0613(4) 0.8125(3) 0.7309(3)
H1_3 H 0.0094 0.7981 0.7822
H2_3 H 0.0490 0.8400 0.6026
C9_3 C 0.6139(4) 0.6466(3) 0.8732(3)
C10_3 C 0.7704(4) 0.6463(3) 0.8656(3)
H5_3 H 0.8089 0.6271 0.8110
C11_3 C 0.8579(4) 0.6716(3) 0.9310(3)
H6_3 H 0.8214 0.6900 0.9864
O13_3 O 0.5298(3) 0.9255(2) 0.6084(2)
H7_3 H 0.5059 0.9887 0.6131
H8_3 H 0.6244 0.9170 0.5868
O14_3 O 0.5103(4) 0.7229(2) 0.6313(2)
H9_3 H 0.5120 0.7328 0.5678
H10_3 H 0.5432 0.6637 0.6471
O15_2 O 0.2886(4) 0.4976(2) 0.9397(2)
H11_2 H 0.2645 0.4554 0.8921
H12_2 H 0.3507 0.4679 0.9829
O16_3 O 0.3113(3) 0.5764(2) 0.7648(2)
H13_3 H 0.3860 0.5552 0.7434
H14_3 H 0.2378 0.5516 0.7444
O17_2 O 0.7597(3) 0.8185(2) 0.7072(2)
C3_3 C 0.9942(4) 0.8313(3) 0.6539(3)
C4_3 C 0.8373(4) 0.8399(2) 0.6426(3)
O1_4 O 0.2161(3) 0.2773(2) 0.6965(2)
O2_4 O 0.2119(3) 0.3535(2) 0.8233(2)
O3_2 O 0.7403(3) 0.3185(2) 0.7928(2)
O6_4 O 0.0808(3) 0.4746(2) 0.6955(2)
C1_4 C 0.2815(4) 0.3138(3) 0.7632(3)
C2_4 C 0.4387(4) 0.3125(3) 0.7691(3)
H1_4 H 0.4906 0.2981 0.7178
C3_4 C 0.5058(4) 0.3313(3) 0.8461(3)
H2_4 H 0.4510 0.3400 0.8974
C4_4 C 0.6627(4) 0.3399(2) 0.8574(3)
C7_2 C 0.0390(5) 0.6030(3) 0.5511(3)
H4_2 H 0.1262 0.5732 0.5544
C8_4 C 0.0080(5) 0.6646(3) 0.4726(3)
O16_4 O 0.1887(3) 0.0764(2) 0.7352(2)
H13_4 H 0.1140 0.0552 0.7566
H14_4 H 0.2622 0.0516 0.7556
O21_2 O 0.4087(3) 0.2293(2) 0.5403(2)
O22_2 O 0.4310(3) 0.1122(2) 0.6323(2)
O5_4 O 0.8511(3) 0.4830(2) 0.7185(2)
O9_4 O 0.9616(3) 0.1864(2) 0.6868(2)
O10_4 O 0.9445(3) 0.1060(2) 0.5620(2)
C5_2 C 0.9603(5) 0.5134(3) 0.6817(3)
C6_2 C 0.9462(5) 0.5893(3) 0.6161(3)
H3_2 H 0.8694 0.6288 0.6206
C9_4 C 0.8861(4) 0.1466(3) 0.6268(3)
C10_4 C 0.7296(4) 0.1463(3) 0.6344(3)
H5_4 H 0.6911 0.1271 0.6890
C11_4 C 0.6421(4) 0.1716(3) 0.5690(3)
H6_4 H 0.6786 0.1900 0.5136
C12_4 C 0.4854(4) 0.1714(3) 0.5811(3)
O13_4 O 0.9702(3) 0.4255(2) 0.8916(2)
H7_4 H 0.9941 0.4887 0.8869
H8_4 H 0.8756 0.4170 0.9132
O14_4 O 0.9897(4) 0.2229(2) 0.8687(2)
H9_4 H 0.9880 0.2328 0.9322
H10_4 H 0.9568 0.1637 0.8529
C5_3 C 0.4603(5) 0.9866(3) 0.1817(3)
C6_3 C 0.4462(5) 0.9107(3) 0.1161(3)
H3_3 H 0.3694 0.8712 0.1206
C7_3 C 0.5390(5) 0.8970(3) 0.0511(3)
H4_3 H 0.6262 0.9268 0.0544
O15_3 O 0.7886(4) 0.0024(2) 0.4397(2)
H11_3 H 0.7645 0.0446 0.3921
H12_3 H 0.8507 0.0321 0.4829
C5_4 C 0.5397(5) 0.0134(3) 0.8183(3)
C6_4 C 0.5538(5) 0.0893(3) 0.8839(3)
H3_4 H 0.6306 0.1288 0.8794
C7_4 C 0.4610(5) 0.1030(3) 0.9489(3)
H4_4 H 0.3738 0.0732 0.9456
O15_4 O 0.2114(4) 0.9976(2) 0.5603(2)
H11_4 H 0.2355 0.9554 0.6079
H12_4 H 0.1493 0.9679 0.5171
loop_
_geom_bond_atom_site_label_1
_geom_bond_atom_site_label_2
_geom_bond_site_symmetry_1
_geom_bond_site_symmetry_2
O3 C4 1_555 1_555
O4 C4 1_555 1_555
C4 C3 1_555 1_555
Ho3 O3 1_555 1_555
Ho5 O4 1_555 1_555
Ho3 O1 1_555 1_555
Ho2 O1 1_555 1_555
O1 C1 1_555 1_555
O2 Ho3 1_555 1_555
O5 Ho3 1_555 1_555
O6 Ho3 1_555 1_555
O9 Ho3 1_555 1_555
O10 Ho2 1_555 1_555
C1 O2 1_555 1_555
C2 C1 1_555 1_555
H1 C2 1_555 1_555
C9 O9 1_555 1_555
C10 C9 1_555 1_555
H5 C10 1_555 1_555
C11 C10 1_555 1_555
H6 C11 1_555 1_555
O13 Ho3 1_555 1_555
H7 O13 1_555 1_555
H8 O13 1_555 1_555
O14 Ho3 1_555 1_555
H9 O14 1_555 1_555
H10 O14 1_555 1_555
O15 Ho2 1_555 1_555
H11 O15 1_555 1_555
H12 O15 1_555 1_555
O16 Ho2 1_555 1_555
H13 O16 1_555 1_555
H14 O16 1_555 1_555
O19 Ho2 1_555 1_555
O20 Ho3 1_555 1_555
O21 Ho2 1_555 1_555
O22 Ho2 1_555 1_555
Ho2 O9 1_555 1_555
O10 C9 1_555 1_555
O7 C8 1_555 1_555
O8 C8 1_555 1_555
Ho4 O8 1_555 1_555
Ho6 O7 1_555 1_555
O21 C12 1_555 1_555
O22 C12 1_555 1_555
O5_2 Ho1 1_555 1_555
O9_2 Ho1 1_555 1_555
O11 C12_2 1_555 1_555
O12 C12_2 1_555 1_555
C5 O5_2 1_555 1_555
C6 C5 1_555 1_555
H3 C6 1_555 1_555
C9_2 O9_2 1_555 1_555
C10_2 C9_2 1_555 1_555
H5_2 C10_2 1_555 1_555
C11_2 C10_2 1_555 1_555
H6_2 C11_2 1_555 1_555
C12_2 C11_2 1_555 1_555
O13_2 Ho1 1_555 1_555
H7_2 O13_2 1_555 1_555
H8_2 O13_2 1_555 1_555
O14_2 Ho1 1_555 1_555
H9_2 O14_2 1_555 1_555
H10_2 O14_2 1_555 1_555
Ho5 O7_2 1_555 1_555
Ho7 O11 1_555 1_555
O17 Ho1 1_555 1_555
O20_2 Ho1 1_555 1_555
O10_2 C9_2 1_555 1_555
O12 Ho7 1_555 1_555
Ho7 O1_2 1_555 1_555
O1_2 C1_2 1_555 1_555
O17 C4_2 1_555 1_555
O4_2 C4_2 1_555 1_555
O8_2 C8_2 1_555 1_555
C1_2 O2_2 1_555 1_555
C2_2 C1_2 1_555 1_555
H1_2 C2_2 1_555 1_555
C3_2 C2_2 1_555 1_555
H2_2 C3_2 1_555 1_555
C4_2 C3_2 1_555 1_555
H4 C7 1_555 1_555
C8_2 C7 1_555 1_555
O16_2 Ho7 1_555 1_555
H13_2 O16_2 1_555 1_555
H14_2 O16_2 1_555 1_555
Ho4_2 O8_2 1_555 1_555
O18_2 Ho7 1_555 1_555
O19_2 Ho7 1_555 1_555
O11_2 C12_3 1_555 1_555
O12_2 C12_3 1_555 1_555
Ho6 O11_2 1_555 1_555
O12_2 Ho6 1_555 1_555
O19 C8_3 1_555 1_555
O20 C8_3 1_555 1_555
Ho4 O1_3 1_555 1_555
Ho6 O1_3 1_555 1_555
O1_3 C1_3 1_555 1_555
O2_3 Ho4 1_555 1_555
O5_3 Ho4 1_555 1_555
O6_3 Ho4 1_555 1_555
O9_3 Ho4 1_555 1_555
O10_3 Ho6 1_555 1_555
C1_3 O2_3 1_555 1_555
C2_3 C1_3 1_555 1_555
H1_3 C2_3 1_555 1_555
C9_3 O9_3 1_555 1_555
C10_3 C9_3 1_555 1_555
H5_3 C10_3 1_555 1_555
C11_3 C10_3 1_555 1_555
H6_3 C11_3 1_555 1_555
O13_3 Ho4 1_555 1_555
H7_3 O13_3 1_555 1_555
H8_3 O13_3 1_555 1_555
O14_3 Ho4 1_555 1_555
H9_3 O14_3 1_555 1_555
H10_3 O14_3 1_555 1_555
O15_2 Ho6 1_555 1_555
H11_2 O15_2 1_555 1_555
H12_2 O15_2 1_555 1_555
O16_3 Ho6 1_555 1_555
H13_3 O16_3 1_555 1_555
H14_3 O16_3 1_555 1_555
O17_2 Ho4 1_555 1_555
Ho6 O9_3 1_555 1_555
O10_3 C9_3 1_555 1_555
O17_2 C4_3 1_555 1_555
O18_2 C4_3 1_555 1_555
C4_3 C3_3 1_555 1_555
Ho5 O1_4 1_555 1_555
O1_4 C1_4 1_555 1_555
O3_2 C4_4 1_555 1_555
O18 C4_4 1_555 1_555
O20_2 C8_4 1_555 1_555
C1_4 O2_4 1_555 1_555
C2_4 C1_4 1_555 1_555
H1_4 C2_4 1_555 1_555
C3_4 C2_4 1_555 1_555
H2_4 C3_4 1_555 1_555
C4_4 C3_4 1_555 1_555
H4_2 C7_2 1_555 1_555
C8_4 C7_2 1_555 1_555
O16_4 Ho5 1_555 1_555
H13_4 O16_4 1_555 1_555
H14_4 O16_4 1_555 1_555
Ho4_2 O3_2 1_555 1_555
O21_2 Ho5 1_555 1_555
O22_2 Ho5 1_555 1_555
O5_4 Ho4_2 1_555 1_555
O9_4 Ho4_2 1_555 1_555
O21_2 C12_4 1_555 1_555
O22_2 C12_4 1_555 1_555
C5_2 O5_4 1_555 1_555
C6_2 C5_2 1_555 1_555
H3_2 C6_2 1_555 1_555
C9_4 O9_4 1_555 1_555
C10_4 C9_4 1_555 1_555
H5_4 C10_4 1_555 1_555
C11_4 C10_4 1_555 1_555
H6_4 C11_4 1_555 1_555
C12_4 C11_4 1_555 1_555
O13_4 Ho4_2 1_555 1_555
H7_4 O13_4 1_555 1_555
H8_4 O13_4 1_555 1_555
O14_4 Ho4_2 1_555 1_555
H9_4 O14_4 1_555 1_555
H10_4 O14_4 1_555 1_555
O10_4 C9_4 1_555 1_555
C6_3 C5_3 1_555 1_555
H3_3 C6_3 1_555 1_555
C7_3 C6_3 1_555 1_555
H4_3 C7_3 1_555 1_555
H11_3 O15_3 1_555 1_555
H12_3 O15_3 1_555 1_555
C6_4 C5_4 1_555 1_555
H3_4 C6_4 1_555 1_555
C7_4 C6_4 1_555 1_555
H4_4 C7_4 1_555 1_555
H11_4 O15_4 1_555 1_555
H12_4 O15_4 1_555 1_555

#END
