
###############################################################################
#
# This file contains modified crystal structure data generated from the
# MOF subset of the Cambridge Structural Database (CSD) v543 
# hosted by the Cambridge Crystallographic Data Centre (CCDC).
#
# This work is licensed under the Creative Commons
# Attribution-NonCommercial-ShareAlike 4.0 International License.
# To view a copy of this license, visit
# http://creativecommons.org/licenses/by-nc-sa/4.0/
# or send a letter to
# Creative Commons, PO Box 1866, Mountain View, CA 94042, USA.
#
# CIF created using the CSD Python API on 29 September 2022
# The structure has been converted into the P1 space group
# The structure has a 3D framework
# The original CSD entry RICBEM is in the orthorhombic crystal system
# The framework has been calculated to contain at least 10.0% void space
# The void calculation uses a probe of radius 1.32A, grid spacing 0.4
# H atom positions have been added when not included in the experimental data
# Generated hydrogen atom positions removed from atoms on special positions
#
###############################################################################

data_RICBEM
_chemical_formula_moiety         '(C216 H152 Cu8 O33)n'
_symmetry_cell_setting           triclinic
_symmetry_space_group_name_H-M   'P 1'
_symmetry_Int_Tables_number      1
_space_group_name_Hall           'P 1'
loop_
_symmetry_equiv_pos_site_id
_symmetry_equiv_pos_as_xyz
1 x,y,z
_cell_length_a                   37.755(19)
_cell_length_b                   13.781(7)
_cell_length_c                   29.867(13)
_cell_angle_alpha                90
_cell_angle_beta                 90
_cell_angle_gamma                90
_cell_volume                     15539.8
loop_
_atom_site_label
_atom_site_type_symbol
_atom_site_fract_x
_atom_site_fract_y
_atom_site_fract_z
C1 C 0.0393(2) 0.0672(7) 0.4604(2)
O2 O 0.04532(15) 0.5120(5) 0.85330(16)
C2 C 0.0903(3) 0.4394(9) 0.7860(3)
H1 H 0.0981 0.4974 0.7984
C3 C 0.0598(3) 0.3888(9) 0.7996(3)
C4 C 0.0592(3) 0.1091(9) 0.4985(3)
C5 C 0.0902(3) 0.0632(8) 0.5116(3)
H2 H 0.0979 0.0111 0.4944
C6 C 0.0681(3) 0.2661(9) 0.7421(3)
H3 H 0.0577 0.2172 0.7253
C7 C 0.0494(2) 0.3008(8) 0.7795(3)
H4 H 0.0303 0.2660 0.7909
C8 C 0.1556(3) 0.2167(8) 0.6110(3)
H5 H 0.1677 0.1985 0.5852
C9 C 0.1071(3) 0.3892(8) 0.7510(3)
H6 H 0.1266 0.4228 0.7400
C10 C 0.21273(17) 0.2447(11) 0.6506(4)
C11 C 0.0662(3) 0.2242(7) 0.5584(3)
H7 H 0.0605 0.2824 0.5724
C12 C 0.1112(3) 0.0896(8) 0.5495(3)
H8 H 0.1321 0.0589 0.5580
C13 C 0.2269(3) 0.4959(6) 0.6182(5)
H9 H 0.2124 0.5496 0.6227
C14 C 0.1176(2) 0.2766(6) 0.6880(2)
C15 C 0.1184(3) 0.1992(9) 0.6147(4)
C16 C 0.2306(2) 0.3092(5) 0.6262(3)
C17 C 0.2263(3) 0.1579(8) 0.6775(4)
C18 C 0.0345(4) 0.4225(10) 0.8388(4)
C19 C 0.2136(5) 0.3851(12) 0.6089(6)
H10 H 0.1937 0.3747 0.5911
C20 C 0.09934(15) 0.2387(9) 0.6511(3)
H11 H 0.0747 0.2395 0.6506
C21 C 0.1017(2) 0.3000(8) 0.7283(3)
C22 C 0.1534(2) 0.2866(8) 0.6840(3)
H12 H 0.1656 0.3125 0.7082
C23 C 0.0956(2) 0.1699(7) 0.5725(3)
C24 C 0.0457(3) 0.1896(9) 0.5231(3)
H13 H 0.0240 0.2178 0.5159
C25 C 0.17352(15) 0.2604(11) 0.6455(4)
O4 O 0.01214(19) 0.3693(6) 0.85287(18)
C26 C 0.2130(3) 0.1059(9) 0.7063(4)
H14 H 0.1888 0.1109 0.7115
O5 O 0.01408(17) 0.1189(5) 0.44565(18)
C27 C 0.2307(2) 0.0458(9) 0.7293(3)
H15 H 0.2187 0.0004 0.7466
C28 C 0.4607(2) 0.0672(7) 0.4604(2)
O7 O 0.45468(15) 0.5120(5) 0.85330(16)
C29 C 0.4097(3) 0.4394(9) 0.7860(3)
H16 H 0.4019 0.4974 0.7984
C30 C 0.4402(3) 0.3888(9) 0.7996(3)
C31 C 0.4408(3) 0.1091(9) 0.4985(3)
C32 C 0.4098(3) 0.0632(8) 0.5116(3)
H17 H 0.4021 0.0111 0.4944
C33 C 0.4319(3) 0.2661(9) 0.7421(3)
H18 H 0.4423 0.2172 0.7253
C34 C 0.4506(2) 0.3008(8) 0.7795(3)
H19 H 0.4697 0.2660 0.7909
C35 C 0.3444(3) 0.2167(8) 0.6110(3)
H20 H 0.3323 0.1985 0.5852
C36 C 0.3929(3) 0.3892(8) 0.7510(3)
H21 H 0.3734 0.4228 0.7400
C37 C 0.28727(17) 0.2447(11) 0.6506(4)
C38 C 0.4338(3) 0.2242(7) 0.5584(3)
H22 H 0.4395 0.2824 0.5724
C39 C 0.3888(3) 0.0896(8) 0.5495(3)
H23 H 0.3679 0.0589 0.5580
C40 C 0.2731(3) 0.4959(6) 0.6182(5)
H24 H 0.2876 0.5496 0.6227
C41 C 0.3824(2) 0.2766(6) 0.6880(2)
C42 C 0.3816(3) 0.1992(9) 0.6147(4)
C43 C 0.2694(2) 0.3092(5) 0.6262(3)
C44 C 0.2737(3) 0.1579(8) 0.6775(4)
C45 C 0.4655(4) 0.4225(10) 0.8388(4)
C46 C 0.2864(5) 0.3851(12) 0.6089(6)
H25 H 0.3063 0.3747 0.5911
C47 C 0.40066(15) 0.2387(9) 0.6511(3)
H26 H 0.4253 0.2395 0.6506
C48 C 0.3983(2) 0.3000(8) 0.7283(3)
C49 C 0.3466(2) 0.2866(8) 0.6840(3)
H27 H 0.3344 0.3125 0.7082
C50 C 0.4044(2) 0.1699(7) 0.5725(3)
C51 C 0.4543(3) 0.1896(9) 0.5231(3)
H28 H 0.4760 0.2178 0.5159
C52 C 0.32648(15) 0.2604(11) 0.6455(4)
O8 O 0.48786(19) 0.3693(6) 0.85287(18)
C53 C 0.2870(3) 0.1059(9) 0.7063(4)
H29 H 0.3112 0.1109 0.7115
O9 O 0.48592(17) 0.1189(5) 0.44565(18)
C54 C 0.2693(2) 0.0458(9) 0.7293(3)
H30 H 0.2813 0.0004 0.7466
Cu2 Cu 0.019657(15) 0.57828(5) 0.89848(5)
O10 O 0.05406(11) 0.7044(3) 0.8958(3)
Cu3 Cu 0.519657(15) 0.42172(5) 0.89848(5)
Cu4 Cu 0.480343(15) 0.57828(5) 0.89848(5)
Cu6 Cu 0.519657(15) 0.07828(5) 0.39848(5)
O12 O 0.04803(17) 0.5086(6) 0.94573(18)
O16 O 0.01408(17) 0.3811(5) 0.94565(18)
O1 O 0.04803(17) 0.9914(6) 0.44573(18)
O6 O 0.45197(17) 0.9914(6) 0.44573(18)
Cu5 Cu 0.480343(15) 0.92172(5) 0.39848(5)
Cu7 Cu 0.019657(15) 0.92172(5) 0.39848(5)
Cu1 Cu 0.980343(15) 0.42172(5) 0.89848(5)
O3 O 0.94594(11) 0.2956(3) 0.8958(3)
Cu8 Cu 0.980343(15) 0.07828(5) 0.39848(5)
O11 O 0.95197(17) 0.4914(6) 0.94573(18)
O13 O 0.95468(15) 0.4880(5) 0.85330(16)
O14 O 0.98786(19) 0.6307(6) 0.85287(18)
O15 O 0.98592(17) 0.6189(5) 0.94565(18)
O1_2 O 0.95197(17) 0.0086(6) 0.44573(18)
O6_2 O 0.54803(17) 0.0086(6) 0.44573(18)
C1_2 C 0.9607(2) 0.9328(7) 0.4604(2)
C2_2 C 0.9097(3) 0.5606(9) 0.7860(3)
H1_2 H 0.9019 0.5026 0.7984
C3_2 C 0.9402(3) 0.6112(9) 0.7996(3)
C4_2 C 0.9408(3) 0.8909(9) 0.4985(3)
C5_2 C 0.9098(3) 0.9368(8) 0.5116(3)
H2_2 H 0.9021 0.9889 0.4944
C6_2 C 0.9319(3) 0.7339(9) 0.7421(3)
H3_2 H 0.9423 0.7828 0.7253
C7_2 C 0.9506(2) 0.6992(8) 0.7795(3)
H4_2 H 0.9697 0.7340 0.7909
C8_2 C 0.8444(3) 0.7833(8) 0.6110(3)
H5_2 H 0.8323 0.8015 0.5852
C9_2 C 0.8929(3) 0.6108(8) 0.7510(3)
H6_2 H 0.8734 0.5772 0.7400
C10_2 C 0.78727(17) 0.7553(11) 0.6506(4)
C11_2 C 0.9338(3) 0.7758(7) 0.5584(3)
H7_2 H 0.9395 0.7176 0.5724
C12_2 C 0.8888(3) 0.9104(8) 0.5495(3)
H8_2 H 0.8679 0.9411 0.5580
C13_2 C 0.7731(3) 0.5041(6) 0.6182(5)
H9_2 H 0.7876 0.4504 0.6227
C14_2 C 0.8824(2) 0.7234(6) 0.6880(2)
C15_2 C 0.8816(3) 0.8008(9) 0.6147(4)
C16_2 C 0.7694(2) 0.6908(5) 0.6262(3)
C17_2 C 0.7737(3) 0.8421(8) 0.6775(4)
C18_2 C 0.9655(4) 0.5775(10) 0.8388(4)
C19_2 C 0.7864(5) 0.6149(12) 0.6089(6)
H10_2 H 0.8063 0.6253 0.5911
C20_2 C 0.90066(15) 0.7613(9) 0.6511(3)
H11_2 H 0.9253 0.7605 0.6506
C21_2 C 0.8983(2) 0.7000(8) 0.7283(3)
C22_2 C 0.8466(2) 0.7134(8) 0.6840(3)
H12_2 H 0.8344 0.6875 0.7082
C23_2 C 0.9044(2) 0.8301(7) 0.5725(3)
C24_2 C 0.9543(3) 0.8104(9) 0.5231(3)
H13_2 H 0.9760 0.7822 0.5159
C25_2 C 0.82648(15) 0.7396(11) 0.6455(4)
C26_2 C 0.7870(3) 0.8941(9) 0.7063(4)
H14_2 H 0.8112 0.8891 0.7115
O5_2 O 0.98592(17) 0.8811(5) 0.44565(18)
C27_2 C 0.7693(2) 0.9542(9) 0.7293(3)
H15_2 H 0.7813 0.9996 0.7466
C28_2 C 0.5393(2) 0.9328(7) 0.4604(2)
O7_2 O 0.54532(15) 0.4880(5) 0.85330(16)
C29_2 C 0.5903(3) 0.5606(9) 0.7860(3)
H16_2 H 0.5981 0.5026 0.7984
C30_2 C 0.5598(3) 0.6112(9) 0.7996(3)
C31_2 C 0.5592(3) 0.8909(9) 0.4985(3)
C32_2 C 0.5902(3) 0.9368(8) 0.5116(3)
H17_2 H 0.5979 0.9889 0.4944
C33_2 C 0.5681(3) 0.7339(9) 0.7421(3)
H18_2 H 0.5577 0.7828 0.7253
C34_2 C 0.5494(2) 0.6992(8) 0.7795(3)
H19_2 H 0.5303 0.7340 0.7909
C35_2 C 0.6556(3) 0.7833(8) 0.6110(3)
H20_2 H 0.6677 0.8015 0.5852
C36_2 C 0.6071(3) 0.6108(8) 0.7510(3)
H21_2 H 0.6266 0.5772 0.7400
C37_2 C 0.71273(17) 0.7553(11) 0.6506(4)
C38_2 C 0.5662(3) 0.7758(7) 0.5584(3)
H22_2 H 0.5605 0.7176 0.5724
C39_2 C 0.6112(3) 0.9104(8) 0.5495(3)
H23_2 H 0.6321 0.9411 0.5580
C40_2 C 0.7269(3) 0.5041(6) 0.6182(5)
H24_2 H 0.7124 0.4504 0.6227
C41_2 C 0.6176(2) 0.7234(6) 0.6880(2)
C42_2 C 0.6184(3) 0.8008(9) 0.6147(4)
C43_2 C 0.7306(2) 0.6908(5) 0.6262(3)
C44_2 C 0.7263(3) 0.8421(8) 0.6775(4)
C45_2 C 0.5345(4) 0.5775(10) 0.8388(4)
C46_2 C 0.7136(5) 0.6149(12) 0.6089(6)
H25_2 H 0.6937 0.6253 0.5911
C47_2 C 0.59934(15) 0.7613(9) 0.6511(3)
H26_2 H 0.5747 0.7605 0.6506
C48_2 C 0.6017(2) 0.7000(8) 0.7283(3)
C49_2 C 0.6534(2) 0.7134(8) 0.6840(3)
H27_2 H 0.6656 0.6875 0.7082
C50_2 C 0.5956(2) 0.8301(7) 0.5725(3)
C51_2 C 0.5457(3) 0.8104(9) 0.5231(3)
H28_2 H 0.5240 0.7822 0.5159
C52_2 C 0.67352(15) 0.7396(11) 0.6455(4)
O8_2 O 0.51214(19) 0.6307(6) 0.85287(18)
C53_2 C 0.7130(3) 0.8941(9) 0.7063(4)
H29_2 H 0.6888 0.8891 0.7115
O9_2 O 0.51408(17) 0.8811(5) 0.44565(18)
C54_2 C 0.7307(2) 0.9542(9) 0.7293(3)
H30_2 H 0.7187 0.9996 0.7466
O3_2 O 0.55406(11) 0.2956(3) 0.8958(3)
O10_2 O 0.44594(11) 0.7044(3) 0.8958(3)
O11_2 O 0.54803(17) 0.4914(6) 0.94573(18)
O12_2 O 0.45197(17) 0.5086(6) 0.94573(18)
O15_2 O 0.51408(17) 0.6189(5) 0.94565(18)
O16_2 O 0.48592(17) 0.3811(5) 0.94565(18)
O2_2 O 0.54532(15) 0.0120(5) 0.35330(16)
H9_3 H 0.7124 0.0496 0.1227
O7_3 O 0.95468(15) 0.0120(5) 0.35330(16)
H24_3 H 0.7876 0.0496 0.1227
O10_3 O 0.55406(11) 0.2044(3) 0.3958(3)
O14_2 O 0.48786(19) 0.1307(6) 0.35287(18)
C2_3 C 0.5903(3) 0.9394(9) 0.2860(3)
H1_3 H 0.5981 0.9974 0.2984
C3_3 C 0.5598(3) 0.8888(9) 0.2996(3)
C5_3 C 0.5902(3) 0.5632(8) 0.0116(3)
C6_3 C 0.5681(3) 0.7661(9) 0.2421(3)
H3_3 H 0.5577 0.7172 0.2253
C7_3 C 0.5494(2) 0.8008(8) 0.2795(3)
H4_3 H 0.5303 0.7660 0.2909
C8_3 C 0.6556(3) 0.7167(8) 0.1110(3)
H5_3 H 0.6677 0.6985 0.0852
C9_3 C 0.6071(3) 0.8892(8) 0.2510(3)
H6_3 H 0.6266 0.9228 0.2400
C10_3 C 0.71273(17) 0.7447(11) 0.1506(4)
C11_3 C 0.5662(3) 0.7242(7) 0.0584(3)
H7_3 H 0.5605 0.7824 0.0724
C12_3 C 0.6112(3) 0.5896(8) 0.0495(3)
H8_3 H 0.6321 0.5589 0.0580
C13_3 C 0.7269(3) 0.9959(6) 0.1182(5)
C14_3 C 0.6176(2) 0.7766(6) 0.1880(2)
C15_3 C 0.6184(3) 0.6992(9) 0.1147(4)
C16_3 C 0.7306(2) 0.8092(5) 0.1262(3)
C17_3 C 0.7263(3) 0.6579(8) 0.1775(4)
C18_3 C 0.5345(4) 0.9225(10) 0.3388(4)
C19_3 C 0.7136(5) 0.8851(12) 0.1089(6)
H10_3 H 0.6937 0.8747 0.0911
C20_3 C 0.59934(15) 0.7387(9) 0.1511(3)
H11_3 H 0.5747 0.7395 0.1506
C21_3 C 0.6017(2) 0.8000(8) 0.2283(3)
C22_3 C 0.6534(2) 0.7866(8) 0.1840(3)
H12_3 H 0.6656 0.8125 0.2082
C23_3 C 0.5956(2) 0.6699(7) 0.0725(3)
C24_3 C 0.5457(3) 0.6896(9) 0.0231(3)
H13_3 H 0.5240 0.7178 0.0159
C25_3 C 0.67352(15) 0.7604(11) 0.1455(4)
O3_3 O 0.44594(11) 0.7956(3) 0.3958(3)
O4_2 O 0.51214(19) 0.8693(6) 0.35287(18)
C26_3 C 0.7130(3) 0.6059(9) 0.2063(4)
H14_3 H 0.6888 0.6109 0.2115
C27_3 C 0.7307(2) 0.5458(9) 0.2293(3)
H15_3 H 0.7187 0.5004 0.2466
C29_3 C 0.9097(3) 0.9394(9) 0.2860(3)
H16_3 H 0.9019 0.9974 0.2984
C30_3 C 0.9402(3) 0.8888(9) 0.2996(3)
C32_3 C 0.9098(3) 0.5632(8) 0.0116(3)
C33_3 C 0.9319(3) 0.7661(9) 0.2421(3)
H18_3 H 0.9423 0.7172 0.2253
C34_3 C 0.9506(2) 0.8008(8) 0.2795(3)
H19_3 H 0.9697 0.7660 0.2909
C35_3 C 0.8444(3) 0.7167(8) 0.1110(3)
H20_3 H 0.8323 0.6985 0.0852
C36_3 C 0.8929(3) 0.8892(8) 0.2510(3)
H21_3 H 0.8734 0.9228 0.2400
C37_3 C 0.78727(17) 0.7447(11) 0.1506(4)
C38_3 C 0.9338(3) 0.7242(7) 0.0584(3)
H22_3 H 0.9395 0.7824 0.0724
C39_3 C 0.8888(3) 0.5896(8) 0.0495(3)
H23_3 H 0.8679 0.5589 0.0580
C40_3 C 0.7731(3) 0.9959(6) 0.1182(5)
C41_3 C 0.8824(2) 0.7766(6) 0.1880(2)
C42_3 C 0.8816(3) 0.6992(9) 0.1147(4)
C43_3 C 0.7694(2) 0.8092(5) 0.1262(3)
C44_3 C 0.7737(3) 0.6579(8) 0.1775(4)
C45_3 C 0.9655(4) 0.9225(10) 0.3388(4)
C46_3 C 0.7864(5) 0.8851(12) 0.1089(6)
H25_3 H 0.8063 0.8747 0.0911
C47_3 C 0.90066(15) 0.7387(9) 0.1511(3)
H26_3 H 0.9253 0.7395 0.1506
C48_3 C 0.8983(2) 0.8000(8) 0.2283(3)
C49_3 C 0.8466(2) 0.7866(8) 0.1840(3)
H27_3 H 0.8344 0.8125 0.2082
C50_3 C 0.9044(2) 0.6699(7) 0.0725(3)
C51_3 C 0.9543(3) 0.6896(9) 0.0231(3)
H28_3 H 0.9760 0.7178 0.0159
C52_3 C 0.82648(15) 0.7604(11) 0.1455(4)
O8_3 O 0.98786(19) 0.8693(6) 0.35287(18)
C53_3 C 0.7870(3) 0.6059(9) 0.2063(4)
H29_3 H 0.8112 0.6109 0.2115
C54_3 C 0.7693(2) 0.5458(9) 0.2293(3)
H30_3 H 0.7813 0.5004 0.2466
O13_2 O 0.45468(15) 0.9880(5) 0.35330(16)
C1_3 C 0.5393(2) 0.5672(7) 0.9604(2)
C4_3 C 0.5592(3) 0.6091(9) 0.9985(3)
H2_3 H 0.5979 0.5111 0.9944
C28_3 C 0.9607(2) 0.5672(7) 0.9604(2)
C31_3 C 0.9408(3) 0.6091(9) 0.9985(3)
H17_3 H 0.9021 0.5111 0.9944
C2_4 C 0.4097(3) 0.0606(9) 0.2860(3)
H1_4 H 0.4019 0.0026 0.2984
C3_4 C 0.4402(3) 0.1112(9) 0.2996(3)
C5_4 C 0.4098(3) 0.4368(8) 0.0116(3)
C6_4 C 0.4319(3) 0.2339(9) 0.2421(3)
H3_4 H 0.4423 0.2828 0.2253
C7_4 C 0.4506(2) 0.1992(8) 0.2795(3)
H4_4 H 0.4697 0.2340 0.2909
C8_4 C 0.3444(3) 0.2833(8) 0.1110(3)
H5_4 H 0.3323 0.3015 0.0852
C9_4 C 0.3929(3) 0.1108(8) 0.2510(3)
H6_4 H 0.3734 0.0772 0.2400
C10_4 C 0.28727(17) 0.2553(11) 0.1506(4)
C11_4 C 0.4338(3) 0.2758(7) 0.0584(3)
H7_4 H 0.4395 0.2176 0.0724
C12_4 C 0.3888(3) 0.4104(8) 0.0495(3)
H8_4 H 0.3679 0.4411 0.0580
C13_4 C 0.2731(3) 0.0041(6) 0.1182(5)
C14_4 C 0.3824(2) 0.2234(6) 0.1880(2)
C15_4 C 0.3816(3) 0.3008(9) 0.1147(4)
C16_4 C 0.2694(2) 0.1908(5) 0.1262(3)
C17_4 C 0.2737(3) 0.3421(8) 0.1775(4)
C18_4 C 0.4655(4) 0.0775(10) 0.3388(4)
C19_4 C 0.2864(5) 0.1149(12) 0.1089(6)
H10_4 H 0.3063 0.1253 0.0911
C20_4 C 0.40066(15) 0.2613(9) 0.1511(3)
H11_4 H 0.4253 0.2605 0.1506
C21_4 C 0.3983(2) 0.2000(8) 0.2283(3)
C22_4 C 0.3466(2) 0.2134(8) 0.1840(3)
H12_4 H 0.3344 0.1875 0.2082
C23_4 C 0.4044(2) 0.3301(7) 0.0725(3)
C24_4 C 0.4543(3) 0.3104(9) 0.0231(3)
H13_4 H 0.4760 0.2822 0.0159
C25_4 C 0.32648(15) 0.2396(11) 0.1455(4)
C26_4 C 0.2870(3) 0.3941(9) 0.2063(4)
H14_4 H 0.3112 0.3891 0.2115
C27_4 C 0.2693(2) 0.4542(9) 0.2293(3)
H15_4 H 0.2813 0.4996 0.2466
C29_4 C 0.0903(3) 0.0606(9) 0.2860(3)
H16_4 H 0.0981 0.0026 0.2984
C30_4 C 0.0598(3) 0.1112(9) 0.2996(3)
C32_4 C 0.0902(3) 0.4368(8) 0.0116(3)
C33_4 C 0.0681(3) 0.2339(9) 0.2421(3)
H18_4 H 0.0577 0.2828 0.2253
C34_4 C 0.0494(2) 0.1992(8) 0.2795(3)
H19_4 H 0.0303 0.2340 0.2909
C35_4 C 0.1556(3) 0.2833(8) 0.1110(3)
H20_4 H 0.1677 0.3015 0.0852
C36_4 C 0.1071(3) 0.1108(8) 0.2510(3)
H21_4 H 0.1266 0.0772 0.2400
C37_4 C 0.21273(17) 0.2553(11) 0.1506(4)
C38_4 C 0.0662(3) 0.2758(7) 0.0584(3)
H22_4 H 0.0605 0.2176 0.0724
C39_4 C 0.1112(3) 0.4104(8) 0.0495(3)
H23_4 H 0.1321 0.4411 0.0580
C40_4 C 0.2269(3) 0.0041(6) 0.1182(5)
C41_4 C 0.1176(2) 0.2234(6) 0.1880(2)
C42_4 C 0.1184(3) 0.3008(9) 0.1147(4)
C43_4 C 0.2306(2) 0.1908(5) 0.1262(3)
C44_4 C 0.2263(3) 0.3421(8) 0.1775(4)
C45_4 C 0.0345(4) 0.0775(10) 0.3388(4)
C46_4 C 0.2136(5) 0.1149(12) 0.1089(6)
H25_4 H 0.1937 0.1253 0.0911
C47_4 C 0.09934(15) 0.2613(9) 0.1511(3)
H26_4 H 0.0747 0.2605 0.1506
C48_4 C 0.1017(2) 0.2000(8) 0.2283(3)
C49_4 C 0.1534(2) 0.2134(8) 0.1840(3)
H27_4 H 0.1656 0.1875 0.2082
C50_4 C 0.0956(2) 0.3301(7) 0.0725(3)
C51_4 C 0.0457(3) 0.3104(9) 0.0231(3)
H28_4 H 0.0240 0.2822 0.0159
C52_4 C 0.17352(15) 0.2396(11) 0.1455(4)
O8_4 O 0.01214(19) 0.1307(6) 0.35287(18)
C53_4 C 0.2130(3) 0.3941(9) 0.2063(4)
H29_4 H 0.1888 0.3891 0.2115
C54_4 C 0.2307(2) 0.4542(9) 0.2293(3)
H30_4 H 0.2187 0.4996 0.2466
C1_4 C 0.4607(2) 0.4328(7) 0.9604(2)
C4_4 C 0.4408(3) 0.3909(9) 0.9985(3)
H2_4 H 0.4021 0.4889 0.9944
C28_4 C 0.0393(2) 0.4328(7) 0.9604(2)
C31_4 C 0.0592(3) 0.3909(9) 0.9985(3)
H17_4 H 0.0979 0.4889 0.9944
H9_4 H 0.2876 0.9504 0.1227
O7_4 O 0.04532(15) 0.9880(5) 0.35330(16)
H24_4 H 0.2124 0.9504 0.1227
O3_4 O 0.05406(11) 0.7956(3) 0.3958(3)
O10_4 O 0.94594(11) 0.2044(3) 0.3958(3)
loop_
_geom_bond_atom_site_label_1
_geom_bond_atom_site_label_2
_geom_bond_site_symmetry_1
_geom_bond_site_symmetry_2
O2 C18 1_555 1_555
C2 H1 1_555 1_555
C3 C2 1_555 1_555
C4 C1 1_555 1_555
C5 C4 1_555 1_555
H2 C5 1_555 1_555
C6 H3 1_555 1_555
C7 C3 1_555 1_555
H4 C7 1_555 1_555
C8 H5 1_555 1_555
C9 C2 1_555 1_555
H6 C9 1_555 1_555
C10 C16 1_555 1_555
C11 H7 1_555 1_555
C12 C5 1_555 1_555
H8 C12 1_555 1_555
C13 H9 1_555 1_555
C14 C20 1_555 1_555
C15 C8 1_555 1_555
C16 C19 1_555 1_555
C17 C10 1_555 1_555
C18 C3 1_555 1_555
C19 C13 1_555 1_555
H10 C19 1_555 1_555
C20 C15 1_555 1_555
H11 C20 1_555 1_555
C21 C6 1_555 1_555
C22 C14 1_555 1_555
H12 C22 1_555 1_555
C23 C11 1_555 1_555
C24 C4 1_555 1_555
H13 C24 1_555 1_555
C25 C8 1_555 1_555
C26 C17 1_555 1_555
H14 C26 1_555 1_555
O5 C1 1_555 1_555
C27 C26 1_555 1_555
H15 C27 1_555 1_555
O7 C45 1_555 1_555
C29 H16 1_555 1_555
C30 C29 1_555 1_555
C31 C28 1_555 1_555
C32 C31 1_555 1_555
H17 C32 1_555 1_555
C33 H18 1_555 1_555
C34 C30 1_555 1_555
H19 C34 1_555 1_555
C35 H20 1_555 1_555
C36 C29 1_555 1_555
H21 C36 1_555 1_555
C37 C43 1_555 1_555
C38 H22 1_555 1_555
C39 C32 1_555 1_555
H23 C39 1_555 1_555
C40 C13 1_555 1_555
H24 C40 1_555 1_555
C41 C47 1_555 1_555
C42 C35 1_555 1_555
C43 C16 1_555 1_555
C44 C17 1_555 1_555
C45 C30 1_555 1_555
C46 C40 1_555 1_555
H25 C46 1_555 1_555
C47 C42 1_555 1_555
H26 C47 1_555 1_555
C48 C33 1_555 1_555
C49 C41 1_555 1_555
H27 C49 1_555 1_555
C50 C38 1_555 1_555
C51 C31 1_555 1_555
H28 C51 1_555 1_555
C52 C35 1_555 1_555
O8 C45 1_555 1_555
C53 C44 1_555 1_555
H29 C53 1_555 1_555
O9 C28 1_555 1_555
C54 C27 1_555 1_555
H30 C54 1_555 1_555
Cu2 O2 1_555 1_555
O10 Cu2 1_555 1_555
Cu3 O8 1_555 1_555
Cu4 O7 1_555 1_555
Cu6 O9 1_555 1_555
O12 Cu2 1_555 1_555
C6 C7 1_555 1_555
C9 C21 1_555 1_555
C10 C25 1_555 1_555
C11 C24 1_555 1_555
C12 C23 1_555 1_555
C14 C21 1_555 1_555
C15 C23 1_555 1_555
C18 O4 1_555 1_555
C22 C25 1_555 1_555
C33 C34 1_555 1_555
C36 C48 1_555 1_555
C37 C44 1_555 1_555
C37 C52 1_555 1_555
C38 C51 1_555 1_555
C39 C50 1_555 1_555
C41 C48 1_555 1_555
C42 C50 1_555 1_555
C43 C46 1_555 1_555
C49 C52 1_555 1_555
C53 C54 1_555 1_555
O1 Cu7 1_555 1_555
O6 Cu5 1_555 1_555
Cu1 O3 1_555 1_555
O11 Cu1 1_555 1_555
O13 Cu1 1_555 1_555
O1_2 Cu8 1_555 1_555
O6_2 Cu6 1_555 1_555
O13 C18_2 1_555 1_555
C2_2 H1_2 1_555 1_555
C3_2 C2_2 1_555 1_555
C4_2 C1_2 1_555 1_555
C5_2 C4_2 1_555 1_555
H2_2 C5_2 1_555 1_555
C6_2 H3_2 1_555 1_555
C7_2 C3_2 1_555 1_555
H4_2 C7_2 1_555 1_555
C8_2 H5_2 1_555 1_555
C9_2 C2_2 1_555 1_555
H6_2 C9_2 1_555 1_555
C10_2 C16_2 1_555 1_555
C11_2 H7_2 1_555 1_555
C12_2 C5_2 1_555 1_555
H8_2 C12_2 1_555 1_555
C13_2 H9_2 1_555 1_555
C14_2 C20_2 1_555 1_555
C15_2 C8_2 1_555 1_555
C16_2 C19_2 1_555 1_555
C17_2 C10_2 1_555 1_555
C18_2 C3_2 1_555 1_555
C19_2 C13_2 1_555 1_555
H10_2 C19_2 1_555 1_555
C20_2 C15_2 1_555 1_555
H11_2 C20_2 1_555 1_555
C21_2 C6_2 1_555 1_555
C22_2 C14_2 1_555 1_555
H12_2 C22_2 1_555 1_555
C23_2 C11_2 1_555 1_555
C24_2 C4_2 1_555 1_555
H13_2 C24_2 1_555 1_555
C25_2 C8_2 1_555 1_555
C26_2 C17_2 1_555 1_555
H14_2 C26_2 1_555 1_555
O5_2 C1_2 1_555 1_555
C27_2 C26_2 1_555 1_555
H15_2 C27_2 1_555 1_555
O7_2 C45_2 1_555 1_555
C29_2 H16_2 1_555 1_555
C30_2 C29_2 1_555 1_555
C31_2 C28_2 1_555 1_555
C32_2 C31_2 1_555 1_555
H17_2 C32_2 1_555 1_555
C33_2 H18_2 1_555 1_555
C34_2 C30_2 1_555 1_555
H19_2 C34_2 1_555 1_555
C35_2 H20_2 1_555 1_555
C36_2 C29_2 1_555 1_555
H21_2 C36_2 1_555 1_555
C37_2 C43_2 1_555 1_555
C38_2 H22_2 1_555 1_555
C39_2 C32_2 1_555 1_555
H23_2 C39_2 1_555 1_555
C40_2 C13_2 1_555 1_555
H24_2 C40_2 1_555 1_555
C41_2 C47_2 1_555 1_555
C42_2 C35_2 1_555 1_555
C43_2 C16_2 1_555 1_555
C44_2 C17_2 1_555 1_555
C45_2 C30_2 1_555 1_555
C46_2 C40_2 1_555 1_555
H25_2 C46_2 1_555 1_555
C47_2 C42_2 1_555 1_555
H26_2 C47_2 1_555 1_555
C48_2 C33_2 1_555 1_555
C49_2 C41_2 1_555 1_555
H27_2 C49_2 1_555 1_555
C50_2 C38_2 1_555 1_555
C51_2 C31_2 1_555 1_555
H28_2 C51_2 1_555 1_555
C52_2 C35_2 1_555 1_555
O8_2 C45_2 1_555 1_555
C53_2 C44_2 1_555 1_555
H29_2 C53_2 1_555 1_555
O9_2 C28_2 1_555 1_555
C54_2 C27_2 1_555 1_555
H30_2 C54_2 1_555 1_555
Cu4 O8_2 1_555 1_555
Cu3 O7_2 1_555 1_555
Cu5 O9_2 1_555 1_555
C6_2 C7_2 1_555 1_555
C9_2 C21_2 1_555 1_555
C10_2 C25_2 1_555 1_555
C11_2 C24_2 1_555 1_555
C12_2 C23_2 1_555 1_555
C14_2 C21_2 1_555 1_555
C15_2 C23_2 1_555 1_555
C18_2 O14 1_555 1_555
C22_2 C25_2 1_555 1_555
C33_2 C34_2 1_555 1_555
C36_2 C48_2 1_555 1_555
C37_2 C44_2 1_555 1_555
C37_2 C52_2 1_555 1_555
C38_2 C51_2 1_555 1_555
C39_2 C50_2 1_555 1_555
C41_2 C48_2 1_555 1_555
C42_2 C50_2 1_555 1_555
C43_2 C46_2 1_555 1_555
C49_2 C52_2 1_555 1_555
C53_2 C54_2 1_555 1_555
Cu3 O3_2 1_555 1_555
O10_2 Cu4 1_555 1_555
O11_2 Cu3 1_555 1_555
O12_2 Cu4 1_555 1_555
O15_2 Cu4 1_555 1_555
O16_2 Cu3 1_555 1_555
Cu6 O2_2 1_555 1_555
O10_3 Cu6 1_555 1_555
Cu8 O7_3 1_555 1_555
O14_2 Cu6 1_555 1_555
Cu5 O3_3 1_555 1_555
C2_3 H1_3 1_555 1_555
C3_3 C2_3 1_555 1_555
C6_3 H3_3 1_555 1_555
C7_3 C3_3 1_555 1_555
H4_3 C7_3 1_555 1_555
C8_3 H5_3 1_555 1_555
C9_3 C2_3 1_555 1_555
H6_3 C9_3 1_555 1_555
C10_3 C16_3 1_555 1_555
C11_3 H7_3 1_555 1_555
C12_3 C5_3 1_555 1_555
H8_3 C12_3 1_555 1_555
C14_3 C20_3 1_555 1_555
C15_3 C8_3 1_555 1_555
C16_3 C19_3 1_555 1_555
C17_3 C10_3 1_555 1_555
C18_3 C3_3 1_555 1_555
C19_3 C13_3 1_555 1_555
H10_3 C19_3 1_555 1_555
C20_3 C15_3 1_555 1_555
H11_3 C20_3 1_555 1_555
C21_3 C6_3 1_555 1_555
C22_3 C14_3 1_555 1_555
H12_3 C22_3 1_555 1_555
C23_3 C11_3 1_555 1_555
H13_3 C24_3 1_555 1_555
C25_3 C8_3 1_555 1_555
O4_2 Cu5 1_555 1_555
C26_3 C17_3 1_555 1_555
H14_3 C26_3 1_555 1_555
C27_3 C26_3 1_555 1_555
H15_3 C27_3 1_555 1_555
C29_3 H16_3 1_555 1_555
C30_3 C29_3 1_555 1_555
C33_3 H18_3 1_555 1_555
C34_3 C30_3 1_555 1_555
H19_3 C34_3 1_555 1_555
C35_3 H20_3 1_555 1_555
C36_3 C29_3 1_555 1_555
H21_3 C36_3 1_555 1_555
C37_3 C43_3 1_555 1_555
C38_3 H22_3 1_555 1_555
C39_3 C32_3 1_555 1_555
H23_3 C39_3 1_555 1_555
C40_3 C13_3 1_555 1_555
C41_3 C47_3 1_555 1_555
C42_3 C35_3 1_555 1_555
C43_3 C16_3 1_555 1_555
C44_3 C17_3 1_555 1_555
C45_3 C30_3 1_555 1_555
C46_3 C40_3 1_555 1_555
H25_3 C46_3 1_555 1_555
C47_3 C42_3 1_555 1_555
H26_3 C47_3 1_555 1_555
C48_3 C33_3 1_555 1_555
C49_3 C41_3 1_555 1_555
H27_3 C49_3 1_555 1_555
C50_3 C38_3 1_555 1_555
H28_3 C51_3 1_555 1_555
C52_3 C35_3 1_555 1_555
O8_3 C45_3 1_555 1_555
C53_3 C44_3 1_555 1_555
H29_3 C53_3 1_555 1_555
C54_3 C27_3 1_555 1_555
H30_3 C54_3 1_555 1_555
O13_2 Cu5 1_555 1_555
C6_3 C7_3 1_555 1_555
C9_3 C21_3 1_555 1_555
C10_3 C25_3 1_555 1_555
C11_3 C24_3 1_555 1_555
C12_3 C23_3 1_555 1_555
C14_3 C21_3 1_555 1_555
C15_3 C23_3 1_555 1_555
C18_3 O4_2 1_555 1_555
C22_3 C25_3 1_555 1_555
C33_3 C34_3 1_555 1_555
C36_3 C48_3 1_555 1_555
C37_3 C44_3 1_555 1_555
C37_3 C52_3 1_555 1_555
C38_3 C51_3 1_555 1_555
C39_3 C50_3 1_555 1_555
C41_3 C48_3 1_555 1_555
C42_3 C50_3 1_555 1_555
C43_3 C46_3 1_555 1_555
C49_3 C52_3 1_555 1_555
C53_3 C54_3 1_555 1_555
C1_3 O11_2 1_555 1_555
C4_3 C1_3 1_555 1_555
O15_2 C1_3 1_555 1_555
C28_3 O11 1_555 1_555
C31_3 C28_3 1_555 1_555
O15 C28_3 1_555 1_555
C2_4 H1_4 1_555 1_555
C3_4 C2_4 1_555 1_555
C6_4 H3_4 1_555 1_555
C7_4 C3_4 1_555 1_555
H4_4 C7_4 1_555 1_555
C8_4 H5_4 1_555 1_555
C9_4 C2_4 1_555 1_555
H6_4 C9_4 1_555 1_555
C10_4 C16_4 1_555 1_555
C11_4 H7_4 1_555 1_555
C12_4 C5_4 1_555 1_555
H8_4 C12_4 1_555 1_555
C14_4 C20_4 1_555 1_555
C15_4 C8_4 1_555 1_555
C16_4 C19_4 1_555 1_555
C17_4 C10_4 1_555 1_555
C18_4 C3_4 1_555 1_555
C19_4 C13_4 1_555 1_555
H10_4 C19_4 1_555 1_555
C20_4 C15_4 1_555 1_555
H11_4 C20_4 1_555 1_555
C21_4 C6_4 1_555 1_555
C22_4 C14_4 1_555 1_555
H12_4 C22_4 1_555 1_555
C23_4 C11_4 1_555 1_555
H13_4 C24_4 1_555 1_555
C25_4 C8_4 1_555 1_555
C26_4 C17_4 1_555 1_555
H14_4 C26_4 1_555 1_555
C27_4 C26_4 1_555 1_555
H15_4 C27_4 1_555 1_555
C29_4 H16_4 1_555 1_555
C30_4 C29_4 1_555 1_555
C33_4 H18_4 1_555 1_555
C34_4 C30_4 1_555 1_555
H19_4 C34_4 1_555 1_555
C35_4 H20_4 1_555 1_555
C36_4 C29_4 1_555 1_555
H21_4 C36_4 1_555 1_555
C37_4 C43_4 1_555 1_555
C38_4 H22_4 1_555 1_555
C39_4 C32_4 1_555 1_555
H23_4 C39_4 1_555 1_555
C40_4 C13_4 1_555 1_555
C41_4 C47_4 1_555 1_555
C42_4 C35_4 1_555 1_555
C43_4 C16_4 1_555 1_555
C44_4 C17_4 1_555 1_555
C45_4 C30_4 1_555 1_555
C46_4 C40_4 1_555 1_555
H25_4 C46_4 1_555 1_555
C47_4 C42_4 1_555 1_555
H26_4 C47_4 1_555 1_555
C48_4 C33_4 1_555 1_555
C49_4 C41_4 1_555 1_555
H27_4 C49_4 1_555 1_555
C50_4 C38_4 1_555 1_555
H28_4 C51_4 1_555 1_555
C52_4 C35_4 1_555 1_555
O8_4 C45_4 1_555 1_555
C53_4 C44_4 1_555 1_555
H29_4 C53_4 1_555 1_555
C54_4 C27_4 1_555 1_555
H30_4 C54_4 1_555 1_555
C6_4 C7_4 1_555 1_555
C9_4 C21_4 1_555 1_555
C10_4 C25_4 1_555 1_555
C11_4 C24_4 1_555 1_555
C12_4 C23_4 1_555 1_555
C14_4 C21_4 1_555 1_555
C15_4 C23_4 1_555 1_555
C18_4 O14_2 1_555 1_555
C22_4 C25_4 1_555 1_555
C33_4 C34_4 1_555 1_555
C36_4 C48_4 1_555 1_555
C37_4 C44_4 1_555 1_555
C37_4 C52_4 1_555 1_555
C38_4 C51_4 1_555 1_555
C39_4 C50_4 1_555 1_555
C41_4 C48_4 1_555 1_555
C42_4 C50_4 1_555 1_555
C43_4 C46_4 1_555 1_555
C49_4 C52_4 1_555 1_555
C53_4 C54_4 1_555 1_555
C1_4 O12_2 1_555 1_555
C4_4 C1_4 1_555 1_555
O16_2 C1_4 1_555 1_555
C28_4 O12 1_555 1_555
C31_4 C28_4 1_555 1_555
O16 C28_4 1_555 1_555
Cu7 O7_4 1_555 1_555
Cu7 O3_4 1_555 1_555
O10_4 Cu8 1_555 1_555

#END
