
###############################################################################
#
# This file contains modified crystal structure data generated from the
# MOF subset of the Cambridge Structural Database (CSD) v543 
# hosted by the Cambridge Crystallographic Data Centre (CCDC).
#
# This work is licensed under the Creative Commons
# Attribution-NonCommercial-ShareAlike 4.0 International License.
# To view a copy of this license, visit
# http://creativecommons.org/licenses/by-nc-sa/4.0/
# or send a letter to
# Creative Commons, PO Box 1866, Mountain View, CA 94042, USA.
#
# CIF created using the CSD Python API on 29 September 2022
# The structure has been converted into the P1 space group
# The structure has a 3D framework
# The original CSD entry RIDCEN is in the cubic crystal system
# The framework has been calculated to contain at least 10.0% void space
# The void calculation uses a probe of radius 1.32A, grid spacing 0.4
# The framework is charged, counterions have been retained in the structure
# H atom positions have been added when not included in the experimental data
# Generated hydrogen atom positions removed from atoms on special positions
#
###############################################################################

data_RIDCEN
_chemical_formula_moiety         '(C192 H192 In24 N40 O172 5+)n'
_symmetry_cell_setting           triclinic
_symmetry_space_group_name_H-M   'P 1'
_symmetry_Int_Tables_number      1
_space_group_name_Hall           'P 1'
loop_
_symmetry_equiv_pos_site_id
_symmetry_equiv_pos_as_xyz
1 x,y,z
_cell_length_a                   22.4567(11)
_cell_length_b                   22.4567(11)
_cell_length_c                   22.4567(11)
_cell_angle_alpha                90
_cell_angle_beta                 90
_cell_angle_gamma                90
_cell_volume                     11325
loop_
_atom_site_label
_atom_site_type_symbol
_atom_site_fract_x
_atom_site_fract_y
_atom_site_fract_z
In6 In 0.30651(5) 0.23957(5) 0.17810(5)
In13 In 0.17810(5) 0.30651(5) 0.23957(5)
O9 O 0.2407(6) 0.2407(6) 0.2407(6)
O12 O 0.2484(4) 0.2613(5) 0.1030(5)
O25 O 0.3778(5) 0.2209(5) 0.2412(5)
O28 O 0.1634(5) 0.2939(4) 0.1464(5)
O34 O 0.2939(4) 0.1464(5) 0.1634(5)
O44 O 0.3237(5) 0.3327(6) 0.1896(5)
C16 C 0.1064(7) 0.2950(10) 0.0393(8)
H6 H 0.0833 0.2950 0.0748
C31 C 0.1972(9) 0.2798(8) 0.1013(8)
C36 C 0.1652(7) 0.2889(8) 0.0434(7)
O49 O 0.3761(5) 0.2375(6) 0.1108(5)
In14 In 0.32190(5) 0.26043(5) 0.80651(5)
In15 In 0.19349(5) 0.32190(5) 0.73957(5)
O18 O 0.2588(5) 0.2791(5) 0.8778(5)
O37 O 0.1763(5) 0.3104(5) 0.8327(6)
C11 C 0.2063(7) 0.2947(7) 0.8771(8)
C21 C 0.1114(8) 0.3009(11) 0.9310(9)
H11 H 0.0923 0.3043 0.8934
C26 C 0.1718(6) 0.2954(8) 0.9345(7)
C41 C 0.2000(8) 0.2864(8) 0.9899(7)
H16 H 0.2416 0.2788 0.9918
C46 C 0.0772(8) 0.3015(13) 0.9843(7)
N4 N 0.0158(6) 0.3077(10) 0.9775(6)
In1 In 0.67810(5) 0.26043(5) 0.19349(5)
O1 O 0.7407(6) 0.2593(6) 0.2593(6)
O2 O 0.6030(5) 0.2387(5) 0.2516(4)
O4 O 0.6464(5) 0.2061(4) 0.3366(5)
O5 O 0.3327(6) 0.1896(5) 0.3237(5)
C1 C 0.3771(8) 0.2053(7) 0.2937(7)
C2 C 0.5393(8) 0.2050(10) 0.3936(7)
H1 H 0.5748 0.2050 0.4167
C3 C 0.4310(9) 0.1991(11) 0.3886(8)
H2 H 0.3934 0.1957 0.4077
C4 C 0.4345(7) 0.2046(8) 0.3282(6)
C5 C 0.6013(8) 0.2202(8) 0.3028(9)
C6 C 0.5434(7) 0.2111(8) 0.3348(7)
O6 O 0.6108(5) 0.2625(6) 0.1239(5)
C7 C 0.4899(7) 0.2136(8) 0.3000(8)
H3 H 0.4918 0.2212 0.2584
C8 C 0.4843(7) 0.1985(13) 0.4228(8)
N1 N 0.4775(6) 0.1923(10) 0.4842(6)
In2 In 0.73957(5) 0.19349(5) 0.32190(5)
In3 In 0.80651(5) 0.32190(5) 0.26043(5)
In8 In 0.23957(5) 0.17810(5) 0.30651(5)
In9 In 0.26043(5) 0.19349(5) 0.67810(5)
In10 In 0.69349(5) 0.23957(5) 0.82190(5)
In11 In 0.76043(5) 0.17810(5) 0.69349(5)
In16 In 0.82190(5) 0.69349(5) 0.23957(5)
In17 In 0.69349(5) 0.76043(5) 0.17810(5)
In18 In 0.19349(5) 0.67810(5) 0.26043(5)
In19 In 0.32190(5) 0.73957(5) 0.19349(5)
O7 O 0.2593(6) 0.2593(6) 0.7407(6)
O10 O 0.3970(5) 0.2387(5) 0.7484(4)
O13 O 0.7484(4) 0.3970(5) 0.2387(5)
O14 O 0.2516(4) 0.6030(5) 0.2387(5)
O15 O 0.7613(5) 0.2516(4) 0.3970(5)
O16 O 0.6222(5) 0.2209(5) 0.7588(5)
O17 O 0.7412(5) 0.2791(5) 0.1222(5)
O19 O 0.7588(5) 0.6222(5) 0.2209(5)
O20 O 0.2412(5) 0.3778(5) 0.2209(5)
O21 O 0.7209(5) 0.1222(5) 0.2588(5)
O22 O 0.8778(5) 0.2588(5) 0.2791(5)
O26 O 0.3536(5) 0.2061(4) 0.6634(5)
O29 O 0.6634(5) 0.3536(5) 0.2061(4)
O30 O 0.3366(5) 0.6464(5) 0.2061(4)
O31 O 0.7939(4) 0.3366(5) 0.3536(5)
O32 O 0.3366(5) 0.3536(5) 0.7939(4)
O35 O 0.6673(6) 0.1896(5) 0.6763(5)
O36 O 0.8237(5) 0.3104(5) 0.1673(6)
O38 O 0.6763(5) 0.6673(6) 0.1896(5)
O40 O 0.6896(5) 0.1673(6) 0.1763(5)
O41 O 0.8327(6) 0.1763(5) 0.3104(5)
O42 O 0.3104(5) 0.1673(6) 0.8237(5)
C9 C 0.6229(8) 0.2053(7) 0.7063(7)
C10 C 0.7937(7) 0.2947(7) 0.1229(8)
C12 C 0.7063(7) 0.6229(8) 0.2053(7)
C13 C 0.2937(7) 0.3771(8) 0.2053(7)
C14 C 0.4607(8) 0.2050(10) 0.6064(7)
C17 C 0.6064(7) 0.4607(8) 0.2050(10)
C18 C 0.3936(7) 0.5393(8) 0.2050(10)
H4 H 0.4252 0.2050 0.5833
H7 H 0.5833 0.4252 0.2050
H8 H 0.4167 0.5748 0.2050
C19 C 0.5690(9) 0.1991(11) 0.6114(8)
C20 C 0.8886(8) 0.3009(11) 0.0690(9)
C22 C 0.6114(8) 0.5690(9) 0.1991(11)
C23 C 0.3886(8) 0.4310(9) 0.1991(11)
H9 H 0.6066 0.1957 0.5923
H10 H 0.9077 0.3043 0.1066
H12 H 0.5923 0.6066 0.1957
H13 H 0.4077 0.3934 0.1957
C24 C 0.5655(7) 0.2046(8) 0.6718(6)
C25 C 0.8282(6) 0.2954(8) 0.0655(7)
C27 C 0.6718(6) 0.5655(7) 0.2046(8)
C28 C 0.3282(6) 0.4345(7) 0.2046(8)
C29 C 0.3987(8) 0.2202(8) 0.6972(9)
C32 C 0.6972(9) 0.3987(8) 0.2202(8)
C33 C 0.3028(9) 0.6013(8) 0.2202(8)
C34 C 0.4566(7) 0.2111(8) 0.6652(7)
C37 C 0.6652(7) 0.4566(7) 0.2111(8)
C38 C 0.3348(7) 0.5434(7) 0.2111(8)
O45 O 0.7375(6) 0.1239(5) 0.3892(5)
O46 O 0.8761(5) 0.3892(5) 0.2625(6)
O47 O 0.3892(5) 0.2625(6) 0.8761(5)
C39 C 0.5101(7) 0.2136(8) 0.7000(8)
C40 C 0.8000(8) 0.2864(8) 0.0101(7)
C42 C 0.7000(8) 0.5101(7) 0.2136(8)
C43 C 0.3000(8) 0.4899(7) 0.2136(8)
H14 H 0.5082 0.2212 0.7416
H15 H 0.7584 0.2788 0.0082
H17 H 0.7416 0.5082 0.2212
H18 H 0.2584 0.4918 0.2212
C44 C 0.5157(7) 0.1985(13) 0.5772(8)
C45 C 0.9228(8) 0.3015(13) 0.0157(7)
C47 C 0.5772(8) 0.5157(7) 0.1985(13)
C48 C 0.4228(8) 0.4843(7) 0.1985(13)
N2 N 0.5225(6) 0.1923(10) 0.5158(6)
N3 N 0.9842(6) 0.3077(10) 0.0225(6)
N5 N 0.5158(6) 0.5225(6) 0.1923(10)
N6 N 0.4842(6) 0.4775(6) 0.1923(10)
In12 In 0.82190(5) 0.30651(5) 0.76043(5)
O8 O 0.7593(6) 0.2407(6) 0.7593(6)
O11 O 0.7516(4) 0.2613(5) 0.8970(5)
O27 O 0.8366(5) 0.2939(4) 0.8536(5)
O33 O 0.7061(4) 0.1464(5) 0.8366(5)
O43 O 0.6763(5) 0.3327(6) 0.8104(5)
C15 C 0.8936(7) 0.2950(10) 0.9607(8)
H5 H 0.9167 0.2950 0.9252
C30 C 0.8028(9) 0.2798(8) 0.8987(8)
C35 C 0.8348(7) 0.2889(8) 0.9566(7)
O48 O 0.6239(5) 0.2375(6) 0.8892(5)
O1_2 O 0.2593(6) 0.7407(6) 0.2593(6)
O2_2 O 0.3970(5) 0.7613(5) 0.2516(4)
O3 O 0.6222(5) 0.7791(5) 0.2412(5)
O4_2 O 0.3536(5) 0.7939(4) 0.3366(5)
O5_2 O 0.6673(6) 0.8104(5) 0.3237(5)
C1_2 C 0.6229(8) 0.7947(7) 0.2937(7)
C2_2 C 0.4607(8) 0.7950(10) 0.3936(7)
H1_2 H 0.4252 0.7950 0.4167
C3_2 C 0.5690(9) 0.8009(11) 0.3886(8)
H2_2 H 0.6066 0.8043 0.4077
C4_2 C 0.5655(7) 0.7954(8) 0.3282(6)
C5_2 C 0.3987(8) 0.7798(8) 0.3028(9)
C6_2 C 0.4566(7) 0.7889(8) 0.3348(7)
O6_2 O 0.3892(5) 0.7375(6) 0.1239(5)
C7_2 C 0.5101(7) 0.7864(8) 0.3000(8)
H3_2 H 0.5082 0.7788 0.2584
C8_2 C 0.5157(7) 0.8015(13) 0.4228(8)
N1_2 N 0.5225(6) 0.8077(10) 0.4842(6)
In2_2 In 0.26043(5) 0.80651(5) 0.32190(5)
In4 In 0.67810(5) 0.73957(5) 0.80651(5)
In8_2 In 0.76043(5) 0.82190(5) 0.30651(5)
In9_2 In 0.73957(5) 0.80651(5) 0.67810(5)
In10_2 In 0.30651(5) 0.76043(5) 0.82190(5)
In11_2 In 0.23957(5) 0.82190(5) 0.69349(5)
In21 In 0.80651(5) 0.67810(5) 0.73957(5)
O7_2 O 0.7407(6) 0.7407(6) 0.7407(6)
O10_2 O 0.6030(5) 0.7613(5) 0.7484(4)
O15_2 O 0.2387(5) 0.7484(4) 0.3970(5)
O16_2 O 0.3778(5) 0.7791(5) 0.7588(5)
O17_2 O 0.2588(5) 0.7209(5) 0.1222(5)
O21_2 O 0.2791(5) 0.8778(5) 0.2588(5)
O22_2 O 0.1222(5) 0.7412(5) 0.2791(5)
O23 O 0.7412(5) 0.7209(5) 0.8778(5)
O26_2 O 0.6464(5) 0.7939(4) 0.6634(5)
O31_2 O 0.2061(4) 0.6634(5) 0.3536(5)
O32_2 O 0.6634(5) 0.6464(5) 0.7939(4)
O35_2 O 0.3327(6) 0.8104(5) 0.6763(5)
O36_2 O 0.1763(5) 0.6896(5) 0.1673(6)
O40_2 O 0.3104(5) 0.8327(6) 0.1763(5)
O41_2 O 0.1673(6) 0.8237(5) 0.3104(5)
O42_2 O 0.6896(5) 0.8327(6) 0.8237(5)
C9_2 C 0.3771(8) 0.7947(7) 0.7063(7)
C10_2 C 0.2063(7) 0.7053(7) 0.1229(8)
C14_2 C 0.5393(8) 0.7950(10) 0.6064(7)
H4_2 H 0.5748 0.7950 0.5833
C19_2 C 0.4310(9) 0.8009(11) 0.6114(8)
C20_2 C 0.1114(8) 0.6991(11) 0.0690(9)
H9_2 H 0.3934 0.8043 0.5923
H10_2 H 0.0923 0.6957 0.1066
C24_2 C 0.4345(7) 0.7954(8) 0.6718(6)
C25_2 C 0.1718(6) 0.7046(8) 0.0655(7)
C29_2 C 0.6013(8) 0.7798(8) 0.6972(9)
C34_2 C 0.5434(7) 0.7889(8) 0.6652(7)
O45_2 O 0.2625(6) 0.8761(5) 0.3892(5)
O46_2 O 0.1239(5) 0.6108(5) 0.2625(6)
O47_2 O 0.6108(5) 0.7375(6) 0.8761(5)
C39_2 C 0.4899(7) 0.7864(8) 0.7000(8)
C40_2 C 0.2000(8) 0.7136(8) 0.0101(7)
H14_2 H 0.4918 0.7788 0.7416
H15_2 H 0.2416 0.7212 0.0082
C44_2 C 0.4843(7) 0.8015(13) 0.5772(8)
C45_2 C 0.0772(8) 0.6985(13) 0.0157(7)
N2_2 N 0.4775(6) 0.8077(10) 0.5158(6)
N3_2 N 0.0158(6) 0.6923(10) 0.0225(6)
In12_2 In 0.17810(5) 0.69349(5) 0.76043(5)
O8_2 O 0.2407(6) 0.7593(6) 0.7593(6)
O11_2 O 0.2484(4) 0.7387(5) 0.8970(5)
O27_2 O 0.1634(5) 0.7061(4) 0.8536(5)
O33_2 O 0.2939(4) 0.8536(5) 0.8366(5)
O43_2 O 0.3237(5) 0.6673(6) 0.8104(5)
C15_2 C 0.1064(7) 0.7050(10) 0.9607(8)
H5_2 H 0.0833 0.7050 0.9252
C30_2 C 0.1972(9) 0.7202(8) 0.8987(8)
C35_2 C 0.1652(7) 0.7111(8) 0.9566(7)
O48_2 O 0.3761(5) 0.7625(6) 0.8892(5)
O9_2 O 0.7593(6) 0.7593(6) 0.2407(6)
O12_2 O 0.7516(4) 0.7387(5) 0.1030(5)
O28_2 O 0.8366(5) 0.7061(4) 0.1464(5)
O34_2 O 0.7061(4) 0.8536(5) 0.1634(5)
C16_2 C 0.8936(7) 0.7050(10) 0.0393(8)
H6_2 H 0.9167 0.7050 0.0748
C31_2 C 0.8028(9) 0.7202(8) 0.1013(8)
C36_2 C 0.8348(7) 0.7111(8) 0.0434(7)
O49_2 O 0.6239(5) 0.7625(6) 0.1108(5)
O37_2 O 0.8237(5) 0.6896(5) 0.8327(6)
C11_2 C 0.7937(7) 0.7053(7) 0.8771(8)
C21_2 C 0.8886(8) 0.6991(11) 0.9310(9)
H11_2 H 0.9077 0.6957 0.8934
C26_2 C 0.8282(6) 0.7046(8) 0.9345(7)
C41_2 C 0.8000(8) 0.7136(8) 0.9899(7)
H16_2 H 0.7584 0.7212 0.9918
C46_2 C 0.9228(8) 0.6985(13) 0.9843(7)
N4_2 N 0.9842(6) 0.6923(10) 0.9775(6)
O13_2 O 0.2516(4) 0.3970(5) 0.7613(5)
O14_2 O 0.7484(4) 0.6030(5) 0.7613(5)
O15_3 O 0.2387(5) 0.2516(4) 0.6030(5)
O19_2 O 0.2412(5) 0.6222(5) 0.7791(5)
O20_2 O 0.7588(5) 0.3778(5) 0.7791(5)
O21_3 O 0.2791(5) 0.1222(5) 0.7412(5)
O22_3 O 0.1222(5) 0.2588(5) 0.7209(5)
O31_3 O 0.2061(4) 0.3366(5) 0.6464(5)
O41_3 O 0.1673(6) 0.1763(5) 0.6896(5)
C12_2 C 0.2937(7) 0.6229(8) 0.7947(7)
C13_2 C 0.7063(7) 0.3771(8) 0.7947(7)
C17_2 C 0.3936(7) 0.4607(8) 0.7950(10)
C18_2 C 0.6064(7) 0.5393(8) 0.7950(10)
H7_2 H 0.4167 0.4252 0.7950
H8_2 H 0.5833 0.5748 0.7950
C22_2 C 0.3886(8) 0.5690(9) 0.8009(11)
C23_2 C 0.6114(8) 0.4310(9) 0.8009(11)
H12_2 H 0.4077 0.6066 0.8043
H13_2 H 0.5923 0.3934 0.8043
C27_2 C 0.3282(6) 0.5655(7) 0.7954(8)
C28_2 C 0.6718(6) 0.4345(7) 0.7954(8)
C32_2 C 0.3028(9) 0.3987(8) 0.7798(8)
C33_2 C 0.6972(9) 0.6013(8) 0.7798(8)
C37_2 C 0.3348(7) 0.4566(7) 0.7889(8)
C38_2 C 0.6652(7) 0.5434(7) 0.7889(8)
O45_3 O 0.2625(6) 0.1239(5) 0.6108(5)
O46_3 O 0.1239(5) 0.3892(5) 0.7375(6)
C42_2 C 0.3000(8) 0.5101(7) 0.7864(8)
C43_2 C 0.7000(8) 0.4899(7) 0.7864(8)
H17_2 H 0.2584 0.5082 0.7788
H18_2 H 0.7416 0.4918 0.7788
C47_2 C 0.4228(8) 0.5157(7) 0.8015(13)
C48_2 C 0.5772(8) 0.4843(7) 0.8015(13)
N5_2 N 0.4842(6) 0.5225(6) 0.8077(10)
N6_2 N 0.5158(6) 0.4775(6) 0.8077(10)
O15_4 O 0.7613(5) 0.7484(4) 0.6030(5)
O21_4 O 0.7209(5) 0.8778(5) 0.7412(5)
O22_4 O 0.8778(5) 0.7412(5) 0.7209(5)
O31_4 O 0.7939(4) 0.6634(5) 0.6464(5)
O41_4 O 0.8327(6) 0.8237(5) 0.6896(5)
O45_4 O 0.7375(6) 0.8761(5) 0.6108(5)
O46_4 O 0.8761(5) 0.6108(5) 0.7375(6)
O12_3 O 0.1030(5) 0.2484(4) 0.2613(5)
O28_3 O 0.1464(5) 0.1634(5) 0.2939(4)
O44_2 O 0.1896(5) 0.3237(5) 0.3327(6)
C16_3 C 0.0393(8) 0.1064(7) 0.2950(10)
H6_3 H 0.0748 0.0833 0.2950
C31_3 C 0.1013(8) 0.1972(9) 0.2798(8)
C36_3 C 0.0434(7) 0.1652(7) 0.2889(8)
O49_3 O 0.1108(5) 0.3761(5) 0.2375(6)
O19_3 O 0.2209(5) 0.7588(5) 0.6222(5)
O20_3 O 0.2209(5) 0.2412(5) 0.3778(5)
O38_2 O 0.1896(5) 0.6763(5) 0.6673(6)
C10_3 C 0.1229(8) 0.7937(7) 0.2947(7)
C12_3 C 0.2053(7) 0.7063(7) 0.6229(8)
C13_3 C 0.2053(7) 0.2937(7) 0.3771(8)
C17_3 C 0.2050(10) 0.6064(7) 0.4607(8)
C18_3 C 0.2050(10) 0.3936(7) 0.5393(8)
H7_3 H 0.2050 0.5833 0.4252
H8_3 H 0.2050 0.4167 0.5748
C20_3 C 0.0690(9) 0.8886(8) 0.3009(11)
C22_3 C 0.1991(11) 0.6114(8) 0.5690(9)
C23_3 C 0.1991(11) 0.3886(8) 0.4310(9)
H10_3 H 0.1066 0.9077 0.3043
H12_3 H 0.1957 0.5923 0.6066
H13_3 H 0.1957 0.4077 0.3934
C25_3 C 0.0655(7) 0.8282(6) 0.2954(8)
C27_3 C 0.2046(8) 0.6718(6) 0.5655(7)
C28_3 C 0.2046(8) 0.3282(6) 0.4345(7)
C32_3 C 0.2202(8) 0.6972(9) 0.3987(8)
C33_3 C 0.2202(8) 0.3028(9) 0.6013(8)
C37_3 C 0.2111(8) 0.6652(7) 0.4566(7)
C38_3 C 0.2111(8) 0.3348(7) 0.5434(7)
C40_3 C 0.0101(7) 0.8000(8) 0.2864(8)
C42_3 C 0.2136(8) 0.7000(8) 0.5101(7)
C43_3 C 0.2136(8) 0.3000(8) 0.4899(7)
H15_3 H 0.0082 0.7584 0.2788
H17_3 H 0.2212 0.7416 0.5082
H18_3 H 0.2212 0.2584 0.4918
C45_3 C 0.0157(7) 0.9228(8) 0.3015(13)
C47_3 C 0.1985(13) 0.5772(8) 0.5157(7)
C48_3 C 0.1985(13) 0.4228(8) 0.4843(7)
N3_3 N 0.0225(6) 0.9842(6) 0.3077(10)
N5_3 N 0.1923(10) 0.5158(6) 0.5225(6)
N6_3 N 0.1923(10) 0.4842(6) 0.4775(6)
C11_3 C 0.8771(8) 0.2063(7) 0.2947(7)
C21_3 C 0.9310(9) 0.1114(8) 0.3009(11)
H11_3 H 0.8934 0.0923 0.3043
C26_3 C 0.9345(7) 0.1718(6) 0.2954(8)
C41_3 C 0.9899(7) 0.2000(8) 0.2864(8)
H16_3 H 0.9918 0.2416 0.2788
C46_3 C 0.9843(7) 0.0772(8) 0.3015(13)
N4_3 N 0.9775(6) 0.0158(6) 0.3077(10)
O11_3 O 0.8970(5) 0.7516(4) 0.2613(5)
O27_3 O 0.8536(5) 0.8366(5) 0.2939(4)
O43_3 O 0.8104(5) 0.6763(5) 0.3327(6)
C15_3 C 0.9607(8) 0.8936(7) 0.2950(10)
H5_3 H 0.9252 0.9167 0.2950
C30_3 C 0.8987(8) 0.8028(9) 0.2798(8)
C35_3 C 0.9566(7) 0.8348(7) 0.2889(8)
O48_3 O 0.8892(5) 0.6239(5) 0.2375(6)
C10_4 C 0.1229(8) 0.2063(7) 0.7053(7)
C20_4 C 0.0690(9) 0.1114(8) 0.6991(11)
H10_4 H 0.1066 0.0923 0.6957
C25_4 C 0.0655(7) 0.1718(6) 0.7046(8)
C40_4 C 0.0101(7) 0.2000(8) 0.7136(8)
H15_4 H 0.0082 0.2416 0.7212
C45_4 C 0.0157(7) 0.0772(8) 0.6985(13)
N3_4 N 0.0225(6) 0.0158(6) 0.6923(10)
O12_4 O 0.1030(5) 0.7516(4) 0.7387(5)
O28_4 O 0.1464(5) 0.8366(5) 0.7061(4)
C16_4 C 0.0393(8) 0.8936(7) 0.7050(10)
H6_4 H 0.0748 0.9167 0.7050
C31_4 C 0.1013(8) 0.8028(9) 0.7202(8)
C36_4 C 0.0434(7) 0.8348(7) 0.7111(8)
O49_4 O 0.1108(5) 0.6239(5) 0.7625(6)
O11_4 O 0.8970(5) 0.2484(4) 0.7387(5)
O27_4 O 0.8536(5) 0.1634(5) 0.7061(4)
O43_4 O 0.8104(5) 0.3237(5) 0.6673(6)
C15_4 C 0.9607(8) 0.1064(7) 0.7050(10)
H5_4 H 0.9252 0.0833 0.7050
C30_4 C 0.8987(8) 0.1972(9) 0.7202(8)
C35_4 C 0.9566(7) 0.1652(7) 0.7111(8)
O48_4 O 0.8892(5) 0.3761(5) 0.7625(6)
C11_4 C 0.8771(8) 0.7937(7) 0.7053(7)
C21_4 C 0.9310(9) 0.8886(8) 0.6991(11)
H11_4 H 0.8934 0.9077 0.6957
C26_4 C 0.9345(7) 0.8282(6) 0.7046(8)
C41_4 C 0.9899(7) 0.8000(8) 0.7136(8)
H16_4 H 0.9918 0.7584 0.7212
C46_4 C 0.9843(7) 0.9228(8) 0.6985(13)
N4_4 N 0.9775(6) 0.9842(6) 0.6923(10)
O19_4 O 0.7791(5) 0.2412(5) 0.6222(5)
O20_4 O 0.7791(5) 0.7588(5) 0.3778(5)
C12_4 C 0.7947(7) 0.2937(7) 0.6229(8)
C13_4 C 0.7947(7) 0.7063(7) 0.3771(8)
C17_4 C 0.7950(10) 0.3936(7) 0.4607(8)
C18_4 C 0.7950(10) 0.6064(7) 0.5393(8)
H7_4 H 0.7950 0.4167 0.4252
H8_4 H 0.7950 0.5833 0.5748
C22_4 C 0.8009(11) 0.3886(8) 0.5690(9)
C23_4 C 0.8009(11) 0.6114(8) 0.4310(9)
H12_4 H 0.8043 0.4077 0.6066
H13_4 H 0.8043 0.5923 0.3934
C27_4 C 0.7954(8) 0.3282(6) 0.5655(7)
C28_4 C 0.7954(8) 0.6718(6) 0.4345(7)
C32_4 C 0.7798(8) 0.3028(9) 0.3987(8)
C33_4 C 0.7798(8) 0.6972(9) 0.6013(8)
C37_4 C 0.7889(8) 0.3348(7) 0.4566(7)
C38_4 C 0.7889(8) 0.6652(7) 0.5434(7)
C42_4 C 0.7864(8) 0.3000(8) 0.5101(7)
C43_4 C 0.7864(8) 0.7000(8) 0.4899(7)
H17_4 H 0.7788 0.2584 0.5082
H18_4 H 0.7788 0.7416 0.4918
C47_4 C 0.8015(13) 0.4228(8) 0.5157(7)
C48_4 C 0.8015(13) 0.5772(8) 0.4843(7)
N5_4 N 0.8077(10) 0.4842(6) 0.5225(6)
N6_4 N 0.8077(10) 0.5158(6) 0.4775(6)
O12_5 O 0.2613(5) 0.1030(5) 0.2484(4)
C16_5 C 0.2950(10) 0.0393(8) 0.1064(7)
H6_5 H 0.2950 0.0748 0.0833
C31_5 C 0.2798(8) 0.1013(8) 0.1972(9)
C36_5 C 0.2889(8) 0.0434(7) 0.1652(7)
O49_5 O 0.2375(6) 0.1108(5) 0.3761(5)
C10_5 C 0.2947(7) 0.1229(8) 0.7937(7)
C20_5 C 0.3009(11) 0.0690(9) 0.8886(8)
H10_5 H 0.3043 0.1066 0.9077
C25_5 C 0.2954(8) 0.0655(7) 0.8282(6)
C40_5 C 0.2864(8) 0.0101(7) 0.8000(8)
H15_5 H 0.2788 0.0082 0.7584
C45_5 C 0.3015(13) 0.0157(7) 0.9228(8)
N3_5 N 0.3077(10) 0.0225(6) 0.9842(6)
C11_5 C 0.2947(7) 0.8771(8) 0.2063(7)
C21_5 C 0.3009(11) 0.9310(9) 0.1114(8)
H11_5 H 0.3043 0.8934 0.0923
C26_5 C 0.2954(8) 0.9345(7) 0.1718(6)
C41_5 C 0.2864(8) 0.9899(7) 0.2000(8)
H16_5 H 0.2788 0.9918 0.2416
C46_5 C 0.3015(13) 0.9843(7) 0.0772(8)
N4_5 N 0.3077(10) 0.9775(6) 0.0158(6)
O11_5 O 0.2613(5) 0.8970(5) 0.7516(4)
C15_5 C 0.2950(10) 0.9607(8) 0.8936(7)
H5_5 H 0.2950 0.9252 0.9167
C30_5 C 0.2798(8) 0.8987(8) 0.8028(9)
C35_5 C 0.2889(8) 0.9566(7) 0.8348(7)
O48_5 O 0.2375(6) 0.8892(5) 0.6239(5)
C10_6 C 0.7053(7) 0.1229(8) 0.2063(7)
C20_6 C 0.6991(11) 0.0690(9) 0.1114(8)
H10_6 H 0.6957 0.1066 0.0923
C25_6 C 0.7046(8) 0.0655(7) 0.1718(6)
C40_6 C 0.7136(8) 0.0101(7) 0.2000(8)
H15_6 H 0.7212 0.0082 0.2416
C45_6 C 0.6985(13) 0.0157(7) 0.0772(8)
N3_6 N 0.6923(10) 0.0225(6) 0.0158(6)
O12_6 O 0.7387(5) 0.1030(5) 0.7516(4)
C16_6 C 0.7050(10) 0.0393(8) 0.8936(7)
H6_6 H 0.7050 0.0748 0.9167
C31_6 C 0.7202(8) 0.1013(8) 0.8028(9)
C36_6 C 0.7111(8) 0.0434(7) 0.8348(7)
O49_6 O 0.7625(6) 0.1108(5) 0.6239(5)
O11_6 O 0.7387(5) 0.8970(5) 0.2484(4)
C15_6 C 0.7050(10) 0.9607(8) 0.1064(7)
H5_6 H 0.7050 0.9252 0.0833
C30_6 C 0.7202(8) 0.8987(8) 0.1972(9)
C35_6 C 0.7111(8) 0.9566(7) 0.1652(7)
O48_6 O 0.7625(6) 0.8892(5) 0.3761(5)
C11_6 C 0.7053(7) 0.8771(8) 0.7937(7)
C21_6 C 0.6991(11) 0.9310(9) 0.8886(8)
H11_6 H 0.6957 0.8934 0.9077
C26_6 C 0.7046(8) 0.9345(7) 0.8282(6)
C41_6 C 0.7136(8) 0.9899(7) 0.8000(8)
H16_6 H 0.7212 0.9918 0.7584
C46_6 C 0.6985(13) 0.9843(7) 0.9228(8)
N4_6 N 0.6923(10) 0.9775(6) 0.9842(6)
N7 N 0.8599(13) 0.1401(13) 0.1401(13)
O50 O 0.829(3) 0.0960(16) 0.153(3)
O51 O 0.847(3) 0.171(3) 0.0960(16)
O52 O 0.9040(16) 0.153(3) 0.171(3)
N7_2 N 0.1401(13) 0.8599(13) 0.1401(13)
O50_2 O 0.171(3) 0.9040(16) 0.153(3)
O51_2 O 0.153(3) 0.829(3) 0.0960(16)
O52_2 O 0.0960(16) 0.847(3) 0.171(3)
N7_3 N 0.1401(13) 0.1401(13) 0.8599(13)
O50_3 O 0.171(3) 0.0960(16) 0.847(3)
O51_3 O 0.153(3) 0.171(3) 0.9040(16)
O52_3 O 0.0960(16) 0.153(3) 0.829(3)
N7_4 N 0.8599(13) 0.8599(13) 0.8599(13)
O50_4 O 0.829(3) 0.9040(16) 0.847(3)
O51_4 O 0.847(3) 0.829(3) 0.9040(16)
O52_4 O 0.9040(16) 0.847(3) 0.829(3)
N7_5 N 0.6401(13) 0.3599(13) 0.6401(13)
O50_5 O 0.5960(16) 0.329(3) 0.653(3)
O51_5 O 0.671(3) 0.347(3) 0.5960(16)
O52_5 O 0.653(3) 0.4040(16) 0.671(3)
N7_6 N 0.3599(13) 0.6401(13) 0.6401(13)
O50_6 O 0.4040(16) 0.671(3) 0.653(3)
O51_6 O 0.329(3) 0.653(3) 0.5960(16)
O52_6 O 0.347(3) 0.5960(16) 0.671(3)
N7_7 N 0.6401(13) 0.6401(13) 0.3599(13)
O50_7 O 0.5960(16) 0.671(3) 0.347(3)
O51_7 O 0.671(3) 0.653(3) 0.4040(16)
O52_7 O 0.653(3) 0.5960(16) 0.329(3)
N7_8 N 0.3599(13) 0.3599(13) 0.3599(13)
O50_8 O 0.4040(16) 0.329(3) 0.347(3)
O51_8 O 0.329(3) 0.347(3) 0.4040(16)
O52_8 O 0.347(3) 0.4040(16) 0.329(3)
N8 N 0.6049(13) 0.3951(13) 0.3951(13)
O53 O 0.5587(15) 0.377(3) 0.368(3)
O54 O 0.632(3) 0.4413(15) 0.377(3)
O55 O 0.623(3) 0.368(3) 0.4413(15)
N8_2 N 0.3951(13) 0.6049(13) 0.3951(13)
O53_2 O 0.4413(15) 0.623(3) 0.368(3)
O54_2 O 0.368(3) 0.5587(15) 0.377(3)
O55_2 O 0.377(3) 0.632(3) 0.4413(15)
N8_3 N 0.3951(13) 0.3951(13) 0.6049(13)
O53_3 O 0.4413(15) 0.377(3) 0.632(3)
O54_3 O 0.368(3) 0.4413(15) 0.623(3)
O55_3 O 0.377(3) 0.368(3) 0.5587(15)
N8_4 N 0.6049(13) 0.6049(13) 0.6049(13)
O53_4 O 0.5587(15) 0.623(3) 0.632(3)
O54_4 O 0.632(3) 0.5587(15) 0.623(3)
O55_4 O 0.623(3) 0.632(3) 0.5587(15)
N8_5 N 0.8951(13) 0.1049(13) 0.8951(13)
O53_5 O 0.877(3) 0.0587(15) 0.868(3)
O54_5 O 0.9413(15) 0.132(3) 0.877(3)
O55_5 O 0.868(3) 0.123(3) 0.9413(15)
N8_6 N 0.1049(13) 0.8951(13) 0.8951(13)
O53_6 O 0.123(3) 0.9413(15) 0.868(3)
O54_6 O 0.0587(15) 0.868(3) 0.877(3)
O55_6 O 0.132(3) 0.877(3) 0.9413(15)
N8_7 N 0.8951(13) 0.8951(13) 0.1049(13)
O53_7 O 0.877(3) 0.9413(15) 0.132(3)
O54_7 O 0.9413(15) 0.868(3) 0.123(3)
O55_7 O 0.868(3) 0.877(3) 0.0587(15)
N8_8 N 0.1049(13) 0.1049(13) 0.1049(13)
O53_8 O 0.123(3) 0.0587(15) 0.132(3)
O54_8 O 0.0587(15) 0.132(3) 0.123(3)
O55_8 O 0.132(3) 0.123(3) 0.0587(15)
loop_
_geom_bond_atom_site_label_1
_geom_bond_atom_site_label_2
_geom_bond_site_symmetry_1
_geom_bond_site_symmetry_2
In6 O9 1_555 1_555
In13 O9 1_555 1_555
O12 In6 1_555 1_555
O25 In6 1_555 1_555
O28 In13 1_555 1_555
O34 In6 1_555 1_555
O44 In6 1_555 1_555
C16 H6 1_555 1_555
C31 O12 1_555 1_555
C36 C16 1_555 1_555
O49 In6 1_555 1_555
O28 C31 1_555 1_555
C31 C36 1_555 1_555
In14 O18 1_555 1_555
In15 O37 1_555 1_555
O18 C11 1_555 1_555
O37 C11 1_555 1_555
C11 C26 1_555 1_555
C21 H11 1_555 1_555
C26 C21 1_555 1_555
C41 C26 1_555 1_555
H16 C41 1_555 1_555
N4 C46 1_555 1_555
C21 C46 1_555 1_555
In1 O1 1_555 1_555
O1 In2 1_555 1_555
O2 In1 1_555 1_555
O25 C1 1_555 1_555
O4 C5 1_555 1_555
O5 C1 1_555 1_555
C1 C4 1_555 1_555
C2 H1 1_555 1_555
C3 H2 1_555 1_555
C4 C3 1_555 1_555
C5 O2 1_555 1_555
C6 C2 1_555 1_555
O6 In1 1_555 1_555
C7 C4 1_555 1_555
H3 C7 1_555 1_555
C8 C2 1_555 1_555
N1 C8 1_555 1_555
In2 O4 1_555 1_555
In3 O1 1_555 1_555
In14 O7 1_555 1_555
In8 O5 1_555 1_555
In9 O7 1_555 1_555
In10 O16 1_555 1_555
In11 O35 1_555 1_555
In16 O19 1_555 1_555
In17 O38 1_555 1_555
In18 O14 1_555 1_555
In19 O30 1_555 1_555
In13 O20 1_555 1_555
In15 O7 1_555 1_555
O10 In14 1_555 1_555
O13 In3 1_555 1_555
O14 C33 1_555 1_555
O15 In2 1_555 1_555
O16 C9 1_555 1_555
O17 In1 1_555 1_555
O19 C12 1_555 1_555
O20 C13 1_555 1_555
O21 In2 1_555 1_555
O22 In3 1_555 1_555
O26 In9 1_555 1_555
O29 In1 1_555 1_555
O30 C33 1_555 1_555
O31 In3 1_555 1_555
O32 In14 1_555 1_555
O35 C9 1_555 1_555
O36 In3 1_555 1_555
O38 C12 1_555 1_555
O40 In1 1_555 1_555
O41 In2 1_555 1_555
O42 In14 1_555 1_555
C9 C24 1_555 1_555
C10 O17 1_555 1_555
C12 C27 1_555 1_555
C13 O44 1_555 1_555
C14 H4 1_555 1_555
C17 H7 1_555 1_555
C18 H8 1_555 1_555
C19 H9 1_555 1_555
C20 H10 1_555 1_555
C22 H12 1_555 1_555
C23 H13 1_555 1_555
C24 C19 1_555 1_555
C25 C10 1_555 1_555
C27 C22 1_555 1_555
C28 C13 1_555 1_555
C29 O10 1_555 1_555
C32 O13 1_555 1_555
C33 C38 1_555 1_555
C34 C14 1_555 1_555
C37 C17 1_555 1_555
C38 C18 1_555 1_555
O45 In2 1_555 1_555
O46 In3 1_555 1_555
O47 In14 1_555 1_555
C39 C24 1_555 1_555
C40 C25 1_555 1_555
C42 C27 1_555 1_555
C43 C28 1_555 1_555
H14 C39 1_555 1_555
H15 C40 1_555 1_555
H17 C42 1_555 1_555
H18 C43 1_555 1_555
C44 C14 1_555 1_555
C47 C17 1_555 1_555
C48 C18 1_555 1_555
N2 N1 1_555 1_555
N3 C45 1_555 1_555
N5 C47 1_555 1_555
N6 C48 1_555 1_555
C3 C8 1_555 1_555
C5 C6 1_555 1_555
C6 C7 1_555 1_555
O26 C29 1_555 1_555
O29 C32 1_555 1_555
O36 C10 1_555 1_555
C19 C44 1_555 1_555
C20 C25 1_555 1_555
C20 C45 1_555 1_555
C22 C47 1_555 1_555
C23 C28 1_555 1_555
C23 C48 1_555 1_555
C29 C34 1_555 1_555
C32 C37 1_555 1_555
C34 C39 1_555 1_555
C37 C42 1_555 1_555
C38 C43 1_555 1_555
C44 N2 1_555 1_555
N5 N6 1_555 1_555
In10 O8 1_555 1_555
In12 O8 1_555 1_555
O11 In10 1_555 1_555
O27 In12 1_555 1_555
O33 In10 1_555 1_555
O43 In10 1_555 1_555
C15 H5 1_555 1_555
C30 O11 1_555 1_555
C35 C15 1_555 1_555
O48 In10 1_555 1_555
O27 C30 1_555 1_555
C30 C35 1_555 1_555
In19 O1_2 1_555 1_555
O1_2 In2_2 1_555 1_555
O2_2 In19 1_555 1_555
O3 C1_2 1_555 1_555
O4_2 C5_2 1_555 1_555
O5_2 C1_2 1_555 1_555
C1_2 C4_2 1_555 1_555
C2_2 H1_2 1_555 1_555
C3_2 H2_2 1_555 1_555
C4_2 C3_2 1_555 1_555
C5_2 O2_2 1_555 1_555
C6_2 C2_2 1_555 1_555
O6_2 In19 1_555 1_555
C7_2 C4_2 1_555 1_555
H3_2 C7_2 1_555 1_555
C8_2 C2_2 1_555 1_555
N1_2 C8_2 1_555 1_555
In2_2 O4_2 1_555 1_555
In18 O1_2 1_555 1_555
In4 O7_2 1_555 1_555
In17 O3 1_555 1_555
In8_2 O5_2 1_555 1_555
In9_2 O7_2 1_555 1_555
In10_2 O16_2 1_555 1_555
In11_2 O35_2 1_555 1_555
In21 O7_2 1_555 1_555
O10_2 In4 1_555 1_555
O15_2 In2_2 1_555 1_555
O16_2 C9_2 1_555 1_555
O17_2 In19 1_555 1_555
O21_2 In2_2 1_555 1_555
O22_2 In18 1_555 1_555
O23 In4 1_555 1_555
O26_2 In9_2 1_555 1_555
O31_2 In18 1_555 1_555
O32_2 In4 1_555 1_555
O35_2 C9_2 1_555 1_555
O36_2 In18 1_555 1_555
O40_2 In19 1_555 1_555
O41_2 In2_2 1_555 1_555
O42_2 In4 1_555 1_555
C9_2 C24_2 1_555 1_555
C10_2 O17_2 1_555 1_555
C14_2 H4_2 1_555 1_555
C19_2 H9_2 1_555 1_555
C20_2 H10_2 1_555 1_555
C24_2 C19_2 1_555 1_555
C25_2 C10_2 1_555 1_555
C29_2 O10_2 1_555 1_555
C34_2 C14_2 1_555 1_555
O45_2 In2_2 1_555 1_555
O46_2 In18 1_555 1_555
O47_2 In4 1_555 1_555
C39_2 C24_2 1_555 1_555
C40_2 C25_2 1_555 1_555
H14_2 C39_2 1_555 1_555
H15_2 C40_2 1_555 1_555
C44_2 C14_2 1_555 1_555
N2_2 N1_2 1_555 1_555
N3_2 C45_2 1_555 1_555
C3_2 C8_2 1_555 1_555
C5_2 C6_2 1_555 1_555
C6_2 C7_2 1_555 1_555
O26_2 C29_2 1_555 1_555
O36_2 C10_2 1_555 1_555
C19_2 C44_2 1_555 1_555
C20_2 C25_2 1_555 1_555
C20_2 C45_2 1_555 1_555
C29_2 C34_2 1_555 1_555
C34_2 C39_2 1_555 1_555
C44_2 N2_2 1_555 1_555
In10_2 O8_2 1_555 1_555
In12_2 O8_2 1_555 1_555
O11_2 In10_2 1_555 1_555
O27_2 In12_2 1_555 1_555
O33_2 In10_2 1_555 1_555
O43_2 In10_2 1_555 1_555
C15_2 H5_2 1_555 1_555
C30_2 O11_2 1_555 1_555
C35_2 C15_2 1_555 1_555
O48_2 In10_2 1_555 1_555
O27_2 C30_2 1_555 1_555
C30_2 C35_2 1_555 1_555
In17 O9_2 1_555 1_555
In16 O9_2 1_555 1_555
O12_2 In17 1_555 1_555
O28_2 In16 1_555 1_555
O34_2 In17 1_555 1_555
C16_2 H6_2 1_555 1_555
C31_2 O12_2 1_555 1_555
C36_2 C16_2 1_555 1_555
O49_2 In17 1_555 1_555
O28_2 C31_2 1_555 1_555
C31_2 C36_2 1_555 1_555
In21 O37_2 1_555 1_555
O23 C11_2 1_555 1_555
O37_2 C11_2 1_555 1_555
C11_2 C26_2 1_555 1_555
C21_2 H11_2 1_555 1_555
C26_2 C21_2 1_555 1_555
C41_2 C26_2 1_555 1_555
H16_2 C41_2 1_555 1_555
N4_2 C46_2 1_555 1_555
C21_2 C46_2 1_555 1_555
In12_2 O19_2 1_555 1_555
In21 O14_2 1_555 1_555
In12 O20_2 1_555 1_555
O13_2 In15 1_555 1_555
O14_2 C33_2 1_555 1_555
O15_3 In9 1_555 1_555
O19_2 C12_2 1_555 1_555
O20_2 C13_2 1_555 1_555
O21_3 In9 1_555 1_555
O22_3 In15 1_555 1_555
O32_2 C33_2 1_555 1_555
O31_3 In15 1_555 1_555
O43_2 C12_2 1_555 1_555
O41_3 In9 1_555 1_555
C12_2 C27_2 1_555 1_555
C13_2 O43 1_555 1_555
C17_2 H7_2 1_555 1_555
C18_2 H8_2 1_555 1_555
C22_2 H12_2 1_555 1_555
C23_2 H13_2 1_555 1_555
C27_2 C22_2 1_555 1_555
C28_2 C13_2 1_555 1_555
C32_2 O13_2 1_555 1_555
C33_2 C38_2 1_555 1_555
C37_2 C17_2 1_555 1_555
C38_2 C18_2 1_555 1_555
O45_3 In9 1_555 1_555
O46_3 In15 1_555 1_555
C42_2 C27_2 1_555 1_555
C43_2 C28_2 1_555 1_555
H17_2 C42_2 1_555 1_555
H18_2 C43_2 1_555 1_555
C47_2 C17_2 1_555 1_555
C48_2 C18_2 1_555 1_555
N5_2 C47_2 1_555 1_555
N6_2 C48_2 1_555 1_555
O32 C32_2 1_555 1_555
C22_2 C47_2 1_555 1_555
C23_2 C28_2 1_555 1_555
C23_2 C48_2 1_555 1_555
C32_2 C37_2 1_555 1_555
C37_2 C42_2 1_555 1_555
C38_2 C43_2 1_555 1_555
N5_2 N6_2 1_555 1_555
O15_4 In9_2 1_555 1_555
O21_4 In9_2 1_555 1_555
O22_4 In21 1_555 1_555
O31_4 In21 1_555 1_555
O41_4 In9_2 1_555 1_555
O45_4 In9_2 1_555 1_555
O46_4 In21 1_555 1_555
In8 O9 1_555 1_555
O12_3 In13 1_555 1_555
O28_3 In8 1_555 1_555
O44_2 In13 1_555 1_555
C16_3 H6_3 1_555 1_555
C31_3 O12_3 1_555 1_555
C36_3 C16_3 1_555 1_555
O49_3 In13 1_555 1_555
O28_3 C31_3 1_555 1_555
C31_3 C36_3 1_555 1_555
In11_2 O19_3 1_555 1_555
In12_2 O38_2 1_555 1_555
In8 O20_3 1_555 1_555
O15_3 C33_3 1_555 1_555
O19_3 C12_3 1_555 1_555
O20_3 C13_3 1_555 1_555
O31_3 C33_3 1_555 1_555
O38_2 C12_3 1_555 1_555
C10_3 O22_2 1_555 1_555
C12_3 C27_3 1_555 1_555
C13_3 O44_2 1_555 1_555
C17_3 H7_3 1_555 1_555
C18_3 H8_3 1_555 1_555
C20_3 H10_3 1_555 1_555
C22_3 H12_3 1_555 1_555
C23_3 H13_3 1_555 1_555
C25_3 C10_3 1_555 1_555
C27_3 C22_3 1_555 1_555
C28_3 C13_3 1_555 1_555
C32_3 O15_2 1_555 1_555
C33_3 C38_3 1_555 1_555
C37_3 C17_3 1_555 1_555
C38_3 C18_3 1_555 1_555
C40_3 C25_3 1_555 1_555
C42_3 C27_3 1_555 1_555
C43_3 C28_3 1_555 1_555
H15_3 C40_3 1_555 1_555
H17_3 C42_3 1_555 1_555
H18_3 C43_3 1_555 1_555
C47_3 C17_3 1_555 1_555
C48_3 C18_3 1_555 1_555
N3_3 C45_3 1_555 1_555
N5_3 C47_3 1_555 1_555
N6_3 C48_3 1_555 1_555
O31_2 C32_3 1_555 1_555
O41_2 C10_3 1_555 1_555
C20_3 C25_3 1_555 1_555
C20_3 C45_3 1_555 1_555
C22_3 C47_3 1_555 1_555
C23_3 C28_3 1_555 1_555
C23_3 C48_3 1_555 1_555
C32_3 C37_3 1_555 1_555
C37_3 C42_3 1_555 1_555
C38_3 C43_3 1_555 1_555
N5_3 N6_3 1_555 1_555
O22 C11_3 1_555 1_555
O41 C11_3 1_555 1_555
C11_3 C26_3 1_555 1_555
C21_3 H11_3 1_555 1_555
C26_3 C21_3 1_555 1_555
C41_3 C26_3 1_555 1_555
H16_3 C41_3 1_555 1_555
N4_3 C46_3 1_555 1_555
C21_3 C46_3 1_555 1_555
In8_2 O9_2 1_555 1_555
O11_3 In16 1_555 1_555
O27_3 In8_2 1_555 1_555
O43_3 In16 1_555 1_555
C15_3 H5_3 1_555 1_555
C30_3 O11_3 1_555 1_555
C35_3 C15_3 1_555 1_555
O48_3 In16 1_555 1_555
O27_3 C30_3 1_555 1_555
C30_3 C35_3 1_555 1_555
C10_4 O22_3 1_555 1_555
C20_4 H10_4 1_555 1_555
C25_4 C10_4 1_555 1_555
C40_4 C25_4 1_555 1_555
H15_4 C40_4 1_555 1_555
N3_4 C45_4 1_555 1_555
O41_3 C10_4 1_555 1_555
C20_4 C25_4 1_555 1_555
C20_4 C45_4 1_555 1_555
In11_2 O8_2 1_555 1_555
O12_4 In12_2 1_555 1_555
O28_4 In11_2 1_555 1_555
C16_4 H6_4 1_555 1_555
C31_4 O12_4 1_555 1_555
C36_4 C16_4 1_555 1_555
O49_4 In12_2 1_555 1_555
O28_4 C31_4 1_555 1_555
C31_4 C36_4 1_555 1_555
In11 O8 1_555 1_555
O11_4 In12 1_555 1_555
O27_4 In11 1_555 1_555
O43_4 In12 1_555 1_555
C15_4 H5_4 1_555 1_555
C30_4 O11_4 1_555 1_555
C35_4 C15_4 1_555 1_555
O48_4 In12 1_555 1_555
O27_4 C30_4 1_555 1_555
C30_4 C35_4 1_555 1_555
O22_4 C11_4 1_555 1_555
O41_4 C11_4 1_555 1_555
C11_4 C26_4 1_555 1_555
C21_4 H11_4 1_555 1_555
C26_4 C21_4 1_555 1_555
C41_4 C26_4 1_555 1_555
H16_4 C41_4 1_555 1_555
N4_4 C46_4 1_555 1_555
C21_4 C46_4 1_555 1_555
In11 O19_4 1_555 1_555
In8_2 O20_4 1_555 1_555
O15_4 C33_4 1_555 1_555
O19_4 C12_4 1_555 1_555
O20_4 C13_4 1_555 1_555
O31_4 C33_4 1_555 1_555
O43_4 C12_4 1_555 1_555
C12_4 C27_4 1_555 1_555
C13_4 O43_3 1_555 1_555
C17_4 H7_4 1_555 1_555
C18_4 H8_4 1_555 1_555
C22_4 H12_4 1_555 1_555
C23_4 H13_4 1_555 1_555
C27_4 C22_4 1_555 1_555
C28_4 C13_4 1_555 1_555
C32_4 O15 1_555 1_555
C33_4 C38_4 1_555 1_555
C37_4 C17_4 1_555 1_555
C38_4 C18_4 1_555 1_555
C42_4 C27_4 1_555 1_555
C43_4 C28_4 1_555 1_555
H17_4 C42_4 1_555 1_555
H18_4 C43_4 1_555 1_555
C47_4 C17_4 1_555 1_555
C48_4 C18_4 1_555 1_555
N5_4 C47_4 1_555 1_555
N6_4 C48_4 1_555 1_555
O31 C32_4 1_555 1_555
C22_4 C47_4 1_555 1_555
C23_4 C28_4 1_555 1_555
C23_4 C48_4 1_555 1_555
C32_4 C37_4 1_555 1_555
C37_4 C42_4 1_555 1_555
C38_4 C43_4 1_555 1_555
N5_4 N6_4 1_555 1_555
O12_5 In8 1_555 1_555
C16_5 H6_5 1_555 1_555
C31_5 O12_5 1_555 1_555
C36_5 C16_5 1_555 1_555
O49_5 In8 1_555 1_555
O34 C31_5 1_555 1_555
C31_5 C36_5 1_555 1_555
C10_5 O21_3 1_555 1_555
C20_5 H10_5 1_555 1_555
C25_5 C10_5 1_555 1_555
C40_5 C25_5 1_555 1_555
H15_5 C40_5 1_555 1_555
N3_5 C45_5 1_555 1_555
O42 C10_5 1_555 1_555
C20_5 C25_5 1_555 1_555
C20_5 C45_5 1_555 1_555
O21_2 C11_5 1_555 1_555
O40_2 C11_5 1_555 1_555
C11_5 C26_5 1_555 1_555
C21_5 H11_5 1_555 1_555
C26_5 C21_5 1_555 1_555
C41_5 C26_5 1_555 1_555
H16_5 C41_5 1_555 1_555
N4_5 C46_5 1_555 1_555
C21_5 C46_5 1_555 1_555
O11_5 In11_2 1_555 1_555
C15_5 H5_5 1_555 1_555
C30_5 O11_5 1_555 1_555
C35_5 C15_5 1_555 1_555
O48_5 In11_2 1_555 1_555
O33_2 C30_5 1_555 1_555
C30_5 C35_5 1_555 1_555
C10_6 O21 1_555 1_555
C20_6 H10_6 1_555 1_555
C25_6 C10_6 1_555 1_555
C40_6 C25_6 1_555 1_555
H15_6 C40_6 1_555 1_555
N3_6 C45_6 1_555 1_555
O40 C10_6 1_555 1_555
C20_6 C25_6 1_555 1_555
C20_6 C45_6 1_555 1_555
O12_6 In11 1_555 1_555
C16_6 H6_6 1_555 1_555
C31_6 O12_6 1_555 1_555
C36_6 C16_6 1_555 1_555
O49_6 In11 1_555 1_555
O33 C31_6 1_555 1_555
C31_6 C36_6 1_555 1_555
O11_6 In8_2 1_555 1_555
C15_6 H5_6 1_555 1_555
C30_6 O11_6 1_555 1_555
C35_6 C15_6 1_555 1_555
O48_6 In8_2 1_555 1_555
O34_2 C30_6 1_555 1_555
C30_6 C35_6 1_555 1_555
O21_4 C11_6 1_555 1_555
O42_2 C11_6 1_555 1_555
C11_6 C26_6 1_555 1_555
C21_6 H11_6 1_555 1_555
C26_6 C21_6 1_555 1_555
C41_6 C26_6 1_555 1_555
H16_6 C41_6 1_555 1_555
N4_6 C46_6 1_555 1_555
C21_6 C46_6 1_555 1_555
N7 O50 1_555 1_555
O51 N7 1_555 1_555
O52 N7 1_555 1_555
N7_2 O50_2 1_555 1_555
O51_2 N7_2 1_555 1_555
O52_2 N7_2 1_555 1_555
N7_3 O50_3 1_555 1_555
O51_3 N7_3 1_555 1_555
O52_3 N7_3 1_555 1_555
N7_4 O50_4 1_555 1_555
O51_4 N7_4 1_555 1_555
O52_4 N7_4 1_555 1_555
N7_5 O50_5 1_555 1_555
O51_5 N7_5 1_555 1_555
O52_5 N7_5 1_555 1_555
N7_6 O50_6 1_555 1_555
O51_6 N7_6 1_555 1_555
O52_6 N7_6 1_555 1_555
N7_7 O50_7 1_555 1_555
O51_7 N7_7 1_555 1_555
O52_7 N7_7 1_555 1_555
N7_8 O50_8 1_555 1_555
O51_8 N7_8 1_555 1_555
O52_8 N7_8 1_555 1_555
N8 O53 1_555 1_555
O54 N8 1_555 1_555
O55 N8 1_555 1_555
N8_2 O53_2 1_555 1_555
O54_2 N8_2 1_555 1_555
O55_2 N8_2 1_555 1_555
N8_3 O53_3 1_555 1_555
O54_3 N8_3 1_555 1_555
O55_3 N8_3 1_555 1_555
N8_4 O53_4 1_555 1_555
O54_4 N8_4 1_555 1_555
O55_4 N8_4 1_555 1_555
N8_5 O53_5 1_555 1_555
O54_5 N8_5 1_555 1_555
O55_5 N8_5 1_555 1_555
N8_6 O53_6 1_555 1_555
O54_6 N8_6 1_555 1_555
O55_6 N8_6 1_555 1_555
N8_7 O53_7 1_555 1_555
O54_7 N8_7 1_555 1_555
O55_7 N8_7 1_555 1_555
N8_8 O53_8 1_555 1_555
O54_8 N8_8 1_555 1_555
O55_8 N8_8 1_555 1_555

#END
