
###############################################################################
#
# This file contains modified crystal structure data generated from the
# MOF subset of the Cambridge Structural Database (CSD) v543 
# hosted by the Cambridge Crystallographic Data Centre (CCDC).
#
# This work is licensed under the Creative Commons
# Attribution-NonCommercial-ShareAlike 4.0 International License.
# To view a copy of this license, visit
# http://creativecommons.org/licenses/by-nc-sa/4.0/
# or send a letter to
# Creative Commons, PO Box 1866, Mountain View, CA 94042, USA.
#
# CIF created using the CSD Python API on 29 September 2022
# The structure has been converted into the P1 space group
# The structure has a 3D framework
# The original CSD entry RIDGIW is in the cubic crystal system
# The framework has been calculated to contain at least 10.0% void space
# The void calculation uses a probe of radius 1.32A, grid spacing 0.4
#
###############################################################################

data_RIDGIW
_chemical_formula_moiety         '(C192 H256 B16 N96 Zn9)n'
_symmetry_cell_setting           triclinic
_symmetry_space_group_name_H-M   'P 1'
_symmetry_Int_Tables_number      1
_space_group_name_Hall           'P 1'
loop_
_symmetry_equiv_pos_site_id
_symmetry_equiv_pos_as_xyz
1 x,y,z
_cell_length_a                   20.4868(3)
_cell_length_b                   20.4868(3)
_cell_length_c                   20.4868(3)
_cell_angle_alpha                90
_cell_angle_beta                 90
_cell_angle_gamma                90
_cell_volume                     8598.49
loop_
_atom_site_label
_atom_site_type_symbol
_atom_site_fract_x
_atom_site_fract_y
_atom_site_fract_z
Zn7 Zn -0.0000 0.2500 0.8750
H49 H 0.4479 0.0037 0.0839
C41 C 0.5513(10) 0.0814(10) 0.0115(9)
N21 N 0.4923(5) 0.1718(5) 0.0694(5)
C42 C 0.4574(8) 0.1506(7) 0.0311(7)
C43 C 0.4003(8) 0.1767(9) 0.0249(7)
H56 H 0.3689 0.1433 0.0113
H58 H 0.3866 0.1953 0.0669
C44 C 0.5466(14) 0.1332(14) 0.0579(12)
H59 H 0.5843 0.1420 0.0834
Zn9 Zn 0.5000 0.2500 0.1250
N20 N 0.4056(3) 0.0018(5) 0.9826(4)
H51 H 0.2887 0.0080 0.9021
B4 B 0.4422(7) 0.0578(7) 0.9422(7)
H53 H 0.4140 0.0860 0.9140
H55 H 0.5839 0.0521 0.9963
N22 N 0.4826(4) 0.0944(3) 0.9982(5)
H57 H 0.4021 0.2113 0.9920
N23 N 0.5694(5) 0.0077(5) 0.8282(5)
C46 C 0.5311(7) 0.0426(8) 0.8494(7)
N24 N 0.4982(5) 0.0174(4) 0.9056(3)
C47 C 0.5249(7) 0.0997(8) 0.8233(9)
H61 H 0.5113 0.1311 0.8567
H62 H 0.4920 0.0979 0.7887
H63 H 0.5669 0.1134 0.8047
Zn5 Zn 0.6250 0.0000 0.7500
Zn3 Zn 0.2500 0.8750 0.0000
C37 C 0.4186(10) 0.9885(9) 0.0513(10)
C40 C 0.3668(14) 0.9421(12) 0.0466(14)
H54 H 0.3580 0.9166 0.0843
N27 N 0.2577(5) 0.8194(5) 0.0782(5)
N29 N 0.1718(5) 0.9306(5) 0.0077(5)
Zn1 Zn 0.3750 0.5000 0.7500
C1 C 0.4885(9) 0.4487(10) 0.5814(10)
H1 H 0.5037 0.4161 0.5521
N1 N 0.4306(5) 0.5077(5) 0.6718(5)
C2 C 0.4689(7) 0.5426(8) 0.6506(7)
N2 N 0.5018(5) 0.5174(4) 0.5944(3)
C3 C 0.4751(7) 0.5997(8) 0.6767(9)
H2 H 0.4887 0.6311 0.6433
H3 H 0.5080 0.5979 0.7113
H4 H 0.4331 0.6134 0.6953
B1 B 0.5578(7) 0.5578(7) 0.5578(7)
H5 H 0.5860 0.5860 0.5860
C4 C 0.4421(12) 0.4534(14) 0.6332(14)
H6 H 0.4166 0.4157 0.6420
C5 C 0.5814(10) 0.4885(9) 0.4487(10)
H7 H 0.5521 0.5037 0.4161
N3 N 0.6718(5) 0.4306(5) 0.5077(5)
C6 C 0.6506(7) 0.4689(7) 0.5426(8)
N4 N 0.5944(3) 0.5018(5) 0.5174(4)
C7 C 0.6767(9) 0.4751(7) 0.5997(8)
H8 H 0.6433 0.4887 0.6311
H9 H 0.7113 0.5080 0.5979
H10 H 0.6953 0.4331 0.6134
C8 C 0.6332(14) 0.4421(12) 0.4534(14)
H11 H 0.6420 0.4166 0.4157
C9 C 0.4487(10) 0.5814(10) 0.4885(9)
H12 H 0.4161 0.5521 0.5037
N5 N 0.5077(5) 0.6718(5) 0.4306(5)
C10 C 0.5426(8) 0.6506(7) 0.4689(7)
N6 N 0.5174(4) 0.5944(3) 0.5018(5)
C11 C 0.5997(8) 0.6767(9) 0.4751(7)
H13 H 0.6311 0.6433 0.4887
H14 H 0.5979 0.7113 0.5080
H15 H 0.6134 0.6953 0.4331
C12 C 0.4534(14) 0.6332(14) 0.4421(12)
H16 H 0.4157 0.6420 0.4166
Zn2 Zn 0.7500 0.3750 0.5000
C13 C 0.6987(10) 0.2615(9) 0.6686(10)
H17 H 0.6661 0.2463 0.6979
N7 N 0.7577(5) 0.3194(5) 0.5782(5)
C14 C 0.7926(8) 0.2811(7) 0.5994(7)
N8 N 0.7674(4) 0.2482(5) 0.6556(3)
C15 C 0.8497(8) 0.2749(7) 0.5733(9)
H18 H 0.8811 0.2613 0.6067
H19 H 0.8479 0.2420 0.5387
H20 H 0.8634 0.3169 0.5547
B2 B 0.8078(7) 0.1922(7) 0.6922(7)
H21 H 0.8360 0.1640 0.6640
C16 C 0.7034(14) 0.3079(12) 0.6168(14)
H22 H 0.6657 0.3334 0.6080
C17 C 0.7385(9) 0.1686(10) 0.8013(10)
H23 H 0.7537 0.1979 0.8339
N9 N 0.6806(5) 0.0782(5) 0.7423(5)
C18 C 0.7189(7) 0.0994(7) 0.7074(8)
N10 N 0.7518(5) 0.1556(3) 0.7326(4)
C19 C 0.7251(7) 0.0733(9) 0.6503(8)
H24 H 0.7387 0.1067 0.6189
H25 H 0.7580 0.0387 0.6521
H26 H 0.6831 0.0547 0.6366
C20 C 0.6921(12) 0.1168(14) 0.7966(14)
H27 H 0.6666 0.1080 0.8343
C21 C 0.8314(10) 0.3013(10) 0.7615(9)
H28 H 0.8021 0.3339 0.7463
N11 N 0.9218(5) 0.2423(5) 0.8194(5)
C22 C 0.9006(7) 0.2074(8) 0.7811(7)
N12 N 0.8444(3) 0.2326(4) 0.7482(5)
C23 C 0.9267(9) 0.1503(8) 0.7749(7)
H29 H 0.8933 0.1189 0.7613
H30 H 0.9613 0.1521 0.7420
H31 H 0.9453 0.1366 0.8169
C24 C 0.8832(14) 0.2966(14) 0.8079(12)
H32 H 0.8920 0.3343 0.8334
C25 C 0.2615(9) 0.6686(10) 0.6987(10)
H33 H 0.2463 0.6979 0.6661
N13 N 0.3194(5) 0.5782(5) 0.7577(5)
C26 C 0.2811(7) 0.5994(7) 0.7926(8)
N14 N 0.2482(5) 0.6556(3) 0.7674(4)
C27 C 0.2749(7) 0.5733(9) 0.8497(8)
H34 H 0.2613 0.6067 0.8811
H35 H 0.2420 0.5387 0.8479
H36 H 0.3169 0.5547 0.8634
B3 B 0.1922(7) 0.6922(7) 0.8078(7)
H37 H 0.1640 0.6640 0.8360
C28 C 0.3079(12) 0.6168(14) 0.7034(14)
H38 H 0.3334 0.6080 0.6657
C29 C 0.1686(10) 0.8013(10) 0.7385(9)
H39 H 0.1979 0.8339 0.7537
N15 N 0.0782(5) 0.7423(5) 0.6806(5)
C30 C 0.0994(7) 0.7074(8) 0.7189(7)
N16 N 0.1556(3) 0.7326(4) 0.7518(5)
C31 C 0.0733(9) 0.6503(8) 0.7251(7)
H40 H 0.1067 0.6189 0.7387
H41 H 0.0387 0.6521 0.7580
H42 H 0.0547 0.6366 0.6831
C32 C 0.1168(14) 0.7966(14) 0.6921(12)
H43 H 0.1080 0.8343 0.6666
C33 C 0.3013(10) 0.7615(9) 0.8314(10)
H44 H 0.3339 0.7463 0.8021
N17 N 0.2423(5) 0.8194(5) 0.9218(5)
C34 C 0.2074(8) 0.7811(7) 0.9006(7)
N18 N 0.2326(4) 0.7482(5) 0.8444(3)
C35 C 0.1503(8) 0.7749(7) 0.9267(9)
H45 H 0.1189 0.7613 0.8933
H46 H 0.1521 0.7420 0.9613
H47 H 0.1366 0.8169 0.9453
C36 C 0.2966(14) 0.8079(12) 0.8832(14)
H48 H 0.3343 0.8334 0.8920
Zn3_2 Zn 0.2500 0.8750 1.0000
N19 N 0.3282(5) 0.9306(5) 0.9923(5)
C38 C 0.3494(7) 0.9689(7) 0.9574(8)
C39 C 0.3233(9) 0.9751(7) 0.9003(8)
H50 H 0.3567 0.9887 0.8689
H52 H 0.3047 0.9331 0.8866
C45 C 0.5115(9) 0.9487(10) 0.9186(10)
H60 H 0.4963 0.9161 0.9479
C48 C 0.5579(12) 0.9534(14) 0.8668(14)
H64 H 0.5834 0.9157 0.8580
Zn5_2 Zn 0.6250 1.0000 0.7500
Zn6 Zn 0.0000 0.7500 0.6250
Zn7_2 Zn 1.0000 0.2500 0.8750
Zn8 Zn 0.5000 0.7500 0.3750
N25 N 0.4306(5) 0.4923(5) 0.8282(5)
N26 N 0.8282(5) 0.4306(5) 0.4923(5)
N28 N 0.3194(5) 0.4218(5) 0.7423(5)
N30 N 0.7423(5) 0.3194(5) 0.4218(5)
Zn6_2 Zn 1.0000 0.7500 0.6250
C29_2 C 0.0513(10) 0.5814(10) 0.5115(9)
H39_2 H 0.0839 0.5521 0.4963
C32_2 C 0.0466(14) 0.6332(14) 0.5579(12)
H43_2 H 0.0843 0.6420 0.5834
C33_2 C 0.0115(9) 0.4487(10) 0.4186(10)
N17_2 N 0.0694(5) 0.5077(5) 0.3282(5)
C34_2 C 0.0311(7) 0.5426(8) 0.3494(7)
C35_2 C 0.0249(7) 0.5997(8) 0.3233(9)
H45_2 H 0.0113 0.6311 0.3567
H47_2 H 0.0669 0.6134 0.3047
C36_2 C 0.0579(12) 0.4534(14) 0.3668(14)
H48_2 H 0.0834 0.4157 0.3580
Zn3_3 Zn 0.1250 0.5000 0.2500
C37_2 C 0.2385(9) 0.3314(10) 0.1987(10)
H49_2 H 0.2537 0.3021 0.1661
N19_2 N 0.1806(5) 0.4218(5) 0.2577(5)
C38_2 C 0.2189(7) 0.4006(7) 0.2926(8)
N20_2 N 0.2518(5) 0.3444(3) 0.2674(4)
C39_2 C 0.2251(7) 0.4267(9) 0.3497(8)
H50_2 H 0.2387 0.3933 0.3811
H51_2 H 0.2580 0.4613 0.3479
H52_2 H 0.1831 0.4453 0.3634
B4_2 B 0.3078(7) 0.3078(7) 0.3078(7)
H53_2 H 0.3360 0.3360 0.3360
C40_2 C 0.1921(12) 0.3832(14) 0.2034(14)
H54_2 H 0.1666 0.3920 0.1657
C41_2 C 0.3314(10) 0.1987(10) 0.2385(9)
H55_2 H 0.3021 0.1661 0.2537
N21_2 N 0.4218(5) 0.2577(5) 0.1806(5)
C42_2 C 0.4006(7) 0.2926(8) 0.2189(7)
N22_2 N 0.3444(3) 0.2674(4) 0.2518(5)
C43_2 C 0.4267(9) 0.3497(8) 0.2251(7)
H56_2 H 0.3933 0.3811 0.2387
H57_2 H 0.4613 0.3479 0.2580
H58_2 H 0.4453 0.3634 0.1831
C44_2 C 0.3832(14) 0.2034(14) 0.1921(12)
H59_2 H 0.3920 0.1657 0.1666
C45_2 C 0.1987(10) 0.2385(9) 0.3314(10)
H60_2 H 0.1661 0.2537 0.3021
N23_2 N 0.2577(5) 0.1806(5) 0.4218(5)
C46_2 C 0.2926(8) 0.2189(7) 0.4006(7)
N24_2 N 0.2674(4) 0.2518(5) 0.3444(3)
C47_2 C 0.3497(8) 0.2251(7) 0.4267(9)
H61_2 H 0.3811 0.2387 0.3933
H62_2 H 0.3479 0.2580 0.4613
H63_2 H 0.3634 0.1831 0.4453
C48_2 C 0.2034(14) 0.1921(12) 0.3832(14)
H64_2 H 0.1657 0.1666 0.3920
Zn5_3 Zn 0.2500 0.1250 0.5000
N27_2 N 0.0694(5) 0.4923(5) 0.1718(5)
N29_2 N 0.1806(5) 0.5782(5) 0.2423(5)
C13_2 C 0.5115(9) 0.0513(10) 0.5814(10)
H17_2 H 0.4963 0.0839 0.5521
C16_2 C 0.5579(12) 0.0466(14) 0.6332(14)
H22_2 H 0.5834 0.0843 0.6420
C17_2 C 0.4186(10) 0.0115(9) 0.4487(10)
N9_2 N 0.3282(5) 0.0694(5) 0.5077(5)
C18_2 C 0.3494(7) 0.0311(7) 0.5426(8)
C19_2 C 0.3233(9) 0.0249(7) 0.5997(8)
H24_2 H 0.3567 0.0113 0.6311
H26_2 H 0.3047 0.0669 0.6134
C20_2 C 0.3668(14) 0.0579(12) 0.4534(14)
H27_2 H 0.3580 0.0834 0.4157
C25_2 C 0.9186(10) 0.4885(9) 0.5513(10)
H33_2 H 0.9479 0.5037 0.5839
C26_2 C 0.8494(7) 0.4689(7) 0.4574(8)
N14_2 N 0.9056(3) 0.5018(5) 0.4826(4)
C27_2 C 0.8233(9) 0.4751(7) 0.4003(8)
H34_2 H 0.8567 0.4887 0.3689
H35_2 H 0.7887 0.5080 0.4021
H36_2 H 0.8047 0.4331 0.3866
B3_2 B 0.9422(7) 0.5578(7) 0.4422(7)
H37_2 H 0.9140 0.5860 0.4140
C28_2 C 0.8668(14) 0.4421(12) 0.5466(14)
H38_2 H 0.8580 0.4166 0.5843
N15_2 N 0.9923(5) 0.6718(5) 0.5694(5)
C30_2 C 0.9574(8) 0.6506(7) 0.5311(7)
N16_2 N 0.9826(4) 0.5944(3) 0.4982(5)
C31_2 C 0.9003(8) 0.6767(9) 0.5249(7)
H40_2 H 0.8689 0.6433 0.5113
H41_2 H 0.9021 0.7113 0.4920
H42_2 H 0.8866 0.6953 0.5669
H44_2 H 0.9963 0.4161 0.4479
N18_2 N 0.9982(5) 0.5174(4) 0.4056(3)
H46_2 H 0.9920 0.5979 0.2887
N7_2 N 0.5694(5) 0.9923(5) 0.6718(5)
C14_2 C 0.5311(7) 0.9574(8) 0.6506(7)
N8_2 N 0.4982(5) 0.9826(4) 0.5944(3)
C15_2 C 0.5249(7) 0.9003(8) 0.6767(9)
H18_2 H 0.5113 0.8689 0.6433
H19_2 H 0.4920 0.9021 0.7113
H20_2 H 0.5669 0.8866 0.6953
B2_2 B 0.4422(7) 0.9422(7) 0.5578(7)
H21_2 H 0.4140 0.9140 0.5860
H23_2 H 0.4479 0.9963 0.4161
N10_2 N 0.4056(3) 0.9982(5) 0.5174(4)
H25_2 H 0.2887 0.9920 0.5979
C21_2 C 0.5513(10) 0.9186(10) 0.4885(9)
H28_2 H 0.5839 0.9479 0.5037
N11_2 N 0.4923(5) 0.8282(5) 0.4306(5)
C22_2 C 0.4574(8) 0.8494(7) 0.4689(7)
N12_2 N 0.4826(4) 0.9056(3) 0.5018(5)
C23_2 C 0.4003(8) 0.8233(9) 0.4751(7)
H29_2 H 0.3689 0.8567 0.4887
H30_2 H 0.4021 0.7887 0.5080
H31_2 H 0.3866 0.8047 0.4331
C24_2 C 0.5466(14) 0.8668(14) 0.4421(12)
H32_2 H 0.5843 0.8580 0.4166
N26_2 N 0.6806(5) 0.9218(5) 0.7577(5)
C13_3 C 0.3013(10) 0.2385(9) 0.6686(10)
H17_3 H 0.3339 0.2537 0.6979
N7_3 N 0.2423(5) 0.1806(5) 0.5782(5)
C14_3 C 0.2074(8) 0.2189(7) 0.5994(7)
N8_3 N 0.2326(4) 0.2518(5) 0.6556(3)
C15_3 C 0.1503(8) 0.2251(7) 0.5733(9)
H18_3 H 0.1189 0.2387 0.6067
H19_3 H 0.1521 0.2580 0.5387
H20_3 H 0.1366 0.1831 0.5547
B2_3 B 0.1922(7) 0.3078(7) 0.6922(7)
H21_3 H 0.1640 0.3360 0.6640
C16_3 C 0.2966(14) 0.1921(12) 0.6168(14)
H22_3 H 0.3343 0.1666 0.6080
C17_3 C 0.2615(9) 0.3314(10) 0.8013(10)
H23_3 H 0.2463 0.3021 0.8339
C18_3 C 0.2811(7) 0.4006(7) 0.7074(8)
N10_3 N 0.2482(5) 0.3444(3) 0.7326(4)
C19_3 C 0.2749(7) 0.4267(9) 0.6503(8)
H24_3 H 0.2613 0.3933 0.6189
H25_3 H 0.2420 0.4613 0.6521
H26_3 H 0.3169 0.4453 0.6366
C20_3 C 0.3079(12) 0.3832(14) 0.7966(14)
H27_3 H 0.3334 0.3920 0.8343
C21_3 C 0.1686(10) 0.1987(10) 0.7615(9)
H28_3 H 0.1979 0.1661 0.7463
N11_3 N 0.0782(5) 0.2577(5) 0.8194(5)
C22_3 C 0.0994(7) 0.2926(8) 0.7811(7)
N12_3 N 0.1556(3) 0.2674(4) 0.7482(5)
C23_3 C 0.0733(9) 0.3497(8) 0.7749(7)
H29_3 H 0.1067 0.3811 0.7613
H30_3 H 0.0387 0.3479 0.7420
H31_3 H 0.0547 0.3634 0.8169
C24_3 C 0.1168(14) 0.2034(14) 0.8079(12)
H32_3 H 0.1080 0.1657 0.8334
N26_3 N 0.1718(5) 0.0694(5) 0.4923(5)
Zn3_4 Zn 0.7500 0.6250 0.0000
C37_3 C 0.5814(10) 0.5115(9) 0.0513(10)
H49_3 H 0.5521 0.4963 0.0839
C40_3 C 0.6332(14) 0.5579(12) 0.0466(14)
H54_3 H 0.6420 0.5834 0.0843
C41_3 C 0.4487(10) 0.4186(10) 0.0115(9)
N21_3 N 0.5077(5) 0.3282(5) 0.0694(5)
C42_3 C 0.5426(8) 0.3494(7) 0.0311(7)
C43_3 C 0.5997(8) 0.3233(9) 0.0249(7)
H56_3 H 0.6311 0.3567 0.0113
H58_3 H 0.6134 0.3047 0.0669
C44_3 C 0.4534(14) 0.3668(14) 0.0579(12)
H59_3 H 0.4157 0.3580 0.0834
N27_3 N 0.7423(5) 0.6806(5) 0.0782(5)
N29_3 N 0.8282(5) 0.5694(5) 0.0077(5)
C25_3 C 0.7385(9) 0.8314(10) 0.6987(10)
H33_3 H 0.7537 0.8021 0.6661
C26_3 C 0.7189(7) 0.9006(7) 0.7926(8)
N14_3 N 0.7518(5) 0.8444(3) 0.7674(4)
C27_3 C 0.7251(7) 0.9267(9) 0.8497(8)
H34_3 H 0.7387 0.8933 0.8811
H35_3 H 0.7580 0.9613 0.8479
H36_3 H 0.6831 0.9453 0.8634
B3_3 B 0.8078(7) 0.8078(7) 0.8078(7)
H37_3 H 0.8360 0.8360 0.8360
C28_3 C 0.6921(12) 0.8832(14) 0.7034(14)
H38_3 H 0.6666 0.8920 0.6657
C29_3 C 0.8314(10) 0.6987(10) 0.7385(9)
H39_3 H 0.8021 0.6661 0.7537
N15_3 N 0.9218(5) 0.7577(5) 0.6806(5)
C30_3 C 0.9006(7) 0.7926(8) 0.7189(7)
N16_3 N 0.8444(3) 0.7674(4) 0.7518(5)
C31_3 C 0.9267(9) 0.8497(8) 0.7251(7)
H40_3 H 0.8933 0.8811 0.7387
H41_3 H 0.9613 0.8479 0.7580
H42_3 H 0.9453 0.8634 0.6831
C32_3 C 0.8832(14) 0.7034(14) 0.6921(12)
H43_3 H 0.8920 0.6657 0.6666
C33_3 C 0.6987(10) 0.7385(9) 0.8314(10)
H44_3 H 0.6661 0.7537 0.8021
N17_3 N 0.7577(5) 0.6806(5) 0.9218(5)
C34_3 C 0.7926(8) 0.7189(7) 0.9006(7)
N18_3 N 0.7674(4) 0.7518(5) 0.8444(3)
C35_3 C 0.8497(8) 0.7251(7) 0.9267(9)
H45_3 H 0.8811 0.7387 0.8933
H46_3 H 0.8479 0.7580 0.9613
H47_3 H 0.8634 0.6831 0.9453
C36_3 C 0.7034(14) 0.6921(12) 0.8832(14)
H48_3 H 0.6657 0.6666 0.8920
Zn3_5 Zn 0.7500 0.6250 1.0000
N19_3 N 0.6718(5) 0.5694(5) 0.9923(5)
C38_3 C 0.6506(7) 0.5311(7) 0.9574(8)
N20_3 N 0.5944(3) 0.4982(5) 0.9826(4)
C39_3 C 0.6767(9) 0.5249(7) 0.9003(8)
H50_3 H 0.6433 0.5113 0.8689
H51_3 H 0.7113 0.4920 0.9021
H52_3 H 0.6953 0.5669 0.8866
B4_3 B 0.5578(7) 0.4422(7) 0.9422(7)
H53_3 H 0.5860 0.4140 0.9140
H55_3 H 0.4161 0.4479 0.9963
N22_3 N 0.5174(4) 0.4056(3) 0.9982(5)
H57_3 H 0.5979 0.2887 0.9920
C45_3 C 0.4885(9) 0.5513(10) 0.9186(10)
H60_3 H 0.5037 0.5839 0.9479
C46_3 C 0.4689(7) 0.4574(8) 0.8494(7)
N24_3 N 0.5018(5) 0.4826(4) 0.9056(3)
C47_3 C 0.4751(7) 0.4003(8) 0.8233(9)
H61_3 H 0.4887 0.3689 0.8567
H62_3 H 0.5080 0.4021 0.7887
H63_3 H 0.4331 0.3866 0.8047
C48_3 C 0.4421(12) 0.5466(14) 0.8668(14)
H64_3 H 0.4166 0.5843 0.8580
N8_4 N 0.0018(5) 0.0174(4) 0.0944(3)
H19_4 H 0.0080 0.0979 0.2113
B2_4 B 0.0578(7) 0.0578(7) 0.0578(7)
H21_4 H 0.0860 0.0860 0.0860
N10_4 N 0.0944(3) 0.0018(5) 0.0174(4)
H25_4 H 0.2113 0.0080 0.0979
N12_4 N 0.0174(4) 0.0944(3) 0.0018(5)
H30_4 H 0.0979 0.2113 0.0080
H23_4 H 0.0521 0.0037 0.9161
N11_4 N 0.0077(5) 0.1718(5) 0.9306(5)
C22_4 C 0.0426(8) 0.1506(7) 0.9689(7)
C23_4 C 0.0997(8) 0.1767(9) 0.9751(7)
H29_4 H 0.1311 0.1433 0.9887
H31_4 H 0.1134 0.1953 0.9331
H17_4 H 0.0037 0.9161 0.0521
C18_4 C 0.1506(7) 0.9689(7) 0.0426(8)
C19_4 C 0.1767(9) 0.9751(7) 0.0997(8)
H24_4 H 0.1433 0.9887 0.1311
H26_4 H 0.1953 0.9331 0.1134
C17_4 C 0.0814(10) 0.9885(9) 0.9487(10)
C20_4 C 0.1332(14) 0.9421(12) 0.9534(14)
H27_4 H 0.1420 0.9166 0.9157
Zn2_2 Zn 0.8750 0.0000 0.2500
N7_4 N 0.9306(5) 0.0077(5) 0.1718(5)
C14_4 C 0.9689(7) 0.0426(8) 0.1506(7)
C15_4 C 0.9751(7) 0.0997(8) 0.1767(9)
H18_4 H 0.9887 0.1311 0.1433
H20_4 H 0.9331 0.1134 0.1953
H28_4 H 0.9161 0.0521 0.0037
N26_4 N 0.8194(5) 0.0782(5) 0.2577(5)
C21_4 C 0.9487(10) 0.0814(10) 0.9885(9)
C24_4 C 0.9534(14) 0.1332(14) 0.9421(12)
H32_4 H 0.9157 0.1420 0.9166
C1_2 C 0.8013(10) 0.7385(9) 0.1686(10)
H1_2 H 0.8339 0.7537 0.1979
C2_2 C 0.7074(8) 0.7189(7) 0.0994(7)
N2_2 N 0.7326(4) 0.7518(5) 0.1556(3)
C3_2 C 0.6503(8) 0.7251(7) 0.0733(9)
H2_2 H 0.6189 0.7387 0.1067
H3_2 H 0.6521 0.7580 0.0387
H4_2 H 0.6366 0.6831 0.0547
B1_2 B 0.6922(7) 0.8078(7) 0.1922(7)
H5_2 H 0.6640 0.8360 0.1640
C4_2 C 0.7966(14) 0.6921(12) 0.1168(14)
H6_2 H 0.8343 0.6666 0.1080
C5_2 C 0.7615(9) 0.8314(10) 0.3013(10)
H7_2 H 0.7463 0.8021 0.3339
N3_2 N 0.8194(5) 0.9218(5) 0.2423(5)
C6_2 C 0.7811(7) 0.9006(7) 0.2074(8)
N4_2 N 0.7482(5) 0.8444(3) 0.2326(4)
C7_2 C 0.7749(7) 0.9267(9) 0.1503(8)
H8_2 H 0.7613 0.8933 0.1189
H9_2 H 0.7420 0.9613 0.1521
H10_2 H 0.8169 0.9453 0.1366
C8_2 C 0.8079(12) 0.8832(14) 0.2966(14)
H11_2 H 0.8334 0.8920 0.3343
C9_2 C 0.6686(10) 0.6987(10) 0.2615(9)
H12_2 H 0.6979 0.6661 0.2463
N5_2 N 0.5782(5) 0.7577(5) 0.3194(5)
C10_2 C 0.5994(7) 0.7926(8) 0.2811(7)
N6_2 N 0.6556(3) 0.7674(4) 0.2482(5)
C11_2 C 0.5733(9) 0.8497(8) 0.2749(7)
H13_2 H 0.6067 0.8811 0.2613
H14_2 H 0.5387 0.8479 0.2420
H15_2 H 0.5547 0.8634 0.3169
C12_2 C 0.6168(14) 0.7034(14) 0.3079(12)
H16_2 H 0.6080 0.6657 0.3334
Zn2_3 Zn 0.8750 1.0000 0.2500
C13_4 C 0.9885(9) 0.9487(10) 0.0814(10)
C16_4 C 0.9421(12) 0.9534(14) 0.1332(14)
H22_4 H 0.9166 0.9157 0.1420
N30_2 N 0.9306(5) 0.9923(5) 0.3282(5)
N27_4 N 0.9923(5) 0.3282(5) 0.9306(5)
N26_5 N 0.4218(5) 0.7423(5) 0.3194(5)
N29_4 N 0.5782(5) 0.2423(5) 0.1806(5)
N30_3 N 0.0077(5) 0.8282(5) 0.5694(5)
C25_4 C 0.2385(9) 0.6686(10) 0.3013(10)
H33_4 H 0.2537 0.6979 0.3339
C26_4 C 0.2189(7) 0.5994(7) 0.2074(8)
N14_4 N 0.2518(5) 0.6556(3) 0.2326(4)
C27_4 C 0.2251(7) 0.5733(9) 0.1503(8)
H34_4 H 0.2387 0.6067 0.1189
H35_4 H 0.2580 0.5387 0.1521
H36_4 H 0.1831 0.5547 0.1366
B3_4 B 0.3078(7) 0.6922(7) 0.1922(7)
H37_4 H 0.3360 0.6640 0.1640
C28_4 C 0.1921(12) 0.6168(14) 0.2966(14)
H38_4 H 0.1666 0.6080 0.3343
C29_4 C 0.3314(10) 0.8013(10) 0.2615(9)
H39_4 H 0.3021 0.8339 0.2463
C30_4 C 0.4006(7) 0.7074(8) 0.2811(7)
N16_4 N 0.3444(3) 0.7326(4) 0.2482(5)
C31_4 C 0.4267(9) 0.6503(8) 0.2749(7)
H40_4 H 0.3933 0.6189 0.2613
H41_4 H 0.4613 0.6521 0.2420
H42_4 H 0.4453 0.6366 0.3169
C32_4 C 0.3832(14) 0.7966(14) 0.3079(12)
H43_4 H 0.3920 0.8343 0.3334
C33_4 C 0.1987(10) 0.7615(9) 0.1686(10)
H44_4 H 0.1661 0.7463 0.1979
C34_4 C 0.2926(8) 0.7811(7) 0.0994(7)
N18_4 N 0.2674(4) 0.7482(5) 0.1556(3)
C35_4 C 0.3497(8) 0.7749(7) 0.0733(9)
H45_4 H 0.3811 0.7613 0.1067
H46_4 H 0.3479 0.7420 0.0387
H47_4 H 0.3634 0.8169 0.0547
C36_4 C 0.2034(14) 0.8079(12) 0.1168(14)
H48_4 H 0.1657 0.8334 0.1080
C13_5 C 0.8013(10) 0.2615(9) 0.3314(10)
H17_5 H 0.8339 0.2463 0.3021
C14_5 C 0.7074(8) 0.2811(7) 0.4006(7)
N8_5 N 0.7326(4) 0.2482(5) 0.3444(3)
C15_5 C 0.6503(8) 0.2749(7) 0.4267(9)
H18_5 H 0.6189 0.2613 0.3933
H19_5 H 0.6521 0.2420 0.4613
H20_5 H 0.6366 0.3169 0.4453
B2_5 B 0.6922(7) 0.1922(7) 0.3078(7)
H21_5 H 0.6640 0.1640 0.3360
C16_5 C 0.7966(14) 0.3079(12) 0.3832(14)
H22_5 H 0.8343 0.3334 0.3920
C17_5 C 0.7615(9) 0.1686(10) 0.1987(10)
H23_5 H 0.7463 0.1979 0.1661
C18_5 C 0.7811(7) 0.0994(7) 0.2926(8)
N10_5 N 0.7482(5) 0.1556(3) 0.2674(4)
C19_5 C 0.7749(7) 0.0733(9) 0.3497(8)
H24_5 H 0.7613 0.1067 0.3811
H25_5 H 0.7420 0.0387 0.3479
H26_5 H 0.8169 0.0547 0.3634
C20_5 C 0.8079(12) 0.1168(14) 0.2034(14)
H27_5 H 0.8334 0.1080 0.1657
C21_5 C 0.6686(10) 0.3013(10) 0.2385(9)
H28_5 H 0.6979 0.3339 0.2537
C22_5 C 0.5994(7) 0.2074(8) 0.2189(7)
N12_5 N 0.6556(3) 0.2326(4) 0.2518(5)
C23_5 C 0.5733(9) 0.1503(8) 0.2251(7)
H29_5 H 0.6067 0.1189 0.2387
H30_5 H 0.5387 0.1521 0.2580
H31_5 H 0.5547 0.1366 0.1831
C24_5 C 0.6168(14) 0.2966(14) 0.1921(12)
H32_5 H 0.6080 0.3343 0.1666
H49_4 H 0.0839 0.4479 0.0037
C41_4 C 0.0115(9) 0.5513(10) 0.0814(10)
C42_4 C 0.0311(7) 0.4574(8) 0.1506(7)
C43_4 C 0.0249(7) 0.4003(8) 0.1767(9)
H56_4 H 0.0113 0.3689 0.1433
H58_4 H 0.0669 0.3866 0.1953
C44_4 C 0.0579(12) 0.5466(14) 0.1332(14)
H59_4 H 0.0834 0.5843 0.1420
C37_4 C 0.0513(10) 0.4186(10) 0.9885(9)
C40_4 C 0.0466(14) 0.3668(14) 0.9421(12)
H54_4 H 0.0843 0.3580 0.9166
N20_4 N 0.9826(4) 0.4056(3) 0.0018(5)
H51_4 H 0.9021 0.2887 0.0080
B4_4 B 0.9422(7) 0.4422(7) 0.0578(7)
H53_4 H 0.9140 0.4140 0.0860
H55_4 H 0.9963 0.5839 0.0521
N22_4 N 0.9982(5) 0.4826(4) 0.0944(3)
H57_4 H 0.9920 0.4021 0.2113
C46_4 C 0.8494(7) 0.5311(7) 0.0426(8)
N24_4 N 0.9056(3) 0.4982(5) 0.0174(4)
C47_4 C 0.8233(9) 0.5249(7) 0.0997(8)
H61_4 H 0.8567 0.5113 0.1311
H62_4 H 0.7887 0.4920 0.0979
H63_4 H 0.8047 0.5669 0.1134
C38_4 C 0.9574(8) 0.3494(7) 0.9689(7)
C39_4 C 0.9003(8) 0.3233(9) 0.9751(7)
H50_4 H 0.8689 0.3567 0.9887
H52_4 H 0.8866 0.3047 0.9331
C45_4 C 0.9186(10) 0.5115(9) 0.9487(10)
H60_4 H 0.9479 0.4963 0.9161
C48_4 C 0.8668(14) 0.5579(12) 0.9534(14)
H64_4 H 0.8580 0.5834 0.9157
H49_5 H 0.0037 0.0839 0.4479
C41_5 C 0.0814(10) 0.0115(9) 0.5513(10)
C42_5 C 0.1506(7) 0.0311(7) 0.4574(8)
C43_5 C 0.1767(9) 0.0249(7) 0.4003(8)
H56_5 H 0.1433 0.0113 0.3689
H58_5 H 0.1953 0.0669 0.3866
C44_5 C 0.1332(14) 0.0579(12) 0.5466(14)
H59_5 H 0.1420 0.0834 0.5843
N20_5 N 0.0018(5) 0.9826(4) 0.4056(3)
H51_5 H 0.0080 0.9021 0.2887
B4_5 B 0.0578(7) 0.9422(7) 0.4422(7)
H53_5 H 0.0860 0.9140 0.4140
H55_5 H 0.0521 0.9963 0.5839
N22_5 N 0.0944(3) 0.9982(5) 0.4826(4)
H57_5 H 0.2113 0.9920 0.4021
C46_5 C 0.0426(8) 0.8494(7) 0.5311(7)
N24_5 N 0.0174(4) 0.9056(3) 0.4982(5)
C47_5 C 0.0997(8) 0.8233(9) 0.5249(7)
H61_5 H 0.1311 0.8567 0.5113
H62_5 H 0.0979 0.7887 0.4920
H63_5 H 0.1134 0.8047 0.5669
C37_5 C 0.9885(9) 0.0513(10) 0.4186(10)
C40_5 C 0.9421(12) 0.0466(14) 0.3668(14)
H54_5 H 0.9166 0.0843 0.3580
C38_5 C 0.9689(7) 0.9574(8) 0.3494(7)
C39_5 C 0.9751(7) 0.9003(8) 0.3233(9)
H50_5 H 0.9887 0.8689 0.3567
H52_5 H 0.9331 0.8866 0.3047
C45_5 C 0.9487(10) 0.9186(10) 0.5115(9)
H60_5 H 0.9161 0.9479 0.4963
C48_5 C 0.9534(14) 0.8668(14) 0.5579(12)
H64_5 H 0.9157 0.8580 0.5834
loop_
_geom_bond_atom_site_label_1
_geom_bond_atom_site_label_2
_geom_bond_site_symmetry_1
_geom_bond_site_symmetry_2
N21 C42 1_555 1_555
C43 C42 1_555 1_555
H56 C43 1_555 1_555
H58 C43 1_555 1_555
C44 C41 1_555 1_555
H59 C44 1_555 1_555
Zn9 N21 1_555 1_555
N21 C44 1_555 1_555
B4 N20 1_555 1_555
H53 B4 1_555 1_555
N22 B4 1_555 1_555
N23 C46 1_555 1_555
C46 N24 1_555 1_555
N24 B4 1_555 1_555
C47 C46 1_555 1_555
H61 C47 1_555 1_555
H62 C47 1_555 1_555
H63 C47 1_555 1_555
Zn5 N23 1_555 1_555
C40 C37 1_555 1_555
H54 C40 1_555 1_555
N27 Zn3 1_555 1_555
N29 Zn3 1_555 1_555
Zn1 N1 1_555 1_555
C1 H1 1_555 1_555
N1 C2 1_555 1_555
C2 N2 1_555 1_555
N2 C1 1_555 1_555
C3 C2 1_555 1_555
H2 C3 1_555 1_555
H3 C3 1_555 1_555
H4 C3 1_555 1_555
B1 N2 1_555 1_555
H5 B1 1_555 1_555
C4 C1 1_555 1_555
H6 C4 1_555 1_555
C5 H7 1_555 1_555
N3 C6 1_555 1_555
C6 N4 1_555 1_555
N4 B1 1_555 1_555
C7 C6 1_555 1_555
H8 C7 1_555 1_555
H9 C7 1_555 1_555
H10 C7 1_555 1_555
C8 C5 1_555 1_555
H11 C8 1_555 1_555
C9 H12 1_555 1_555
N5 C10 1_555 1_555
C10 N6 1_555 1_555
N6 B1 1_555 1_555
C11 C10 1_555 1_555
H13 C11 1_555 1_555
H14 C11 1_555 1_555
H15 C11 1_555 1_555
C12 C9 1_555 1_555
H16 C12 1_555 1_555
Zn2 N3 1_555 1_555
C13 H17 1_555 1_555
N7 Zn2 1_555 1_555
C14 N7 1_555 1_555
N8 C13 1_555 1_555
C15 C14 1_555 1_555
H18 C15 1_555 1_555
H19 C15 1_555 1_555
H20 C15 1_555 1_555
B2 N8 1_555 1_555
H21 B2 1_555 1_555
C16 C13 1_555 1_555
H22 C16 1_555 1_555
C17 H23 1_555 1_555
N9 C18 1_555 1_555
C18 N10 1_555 1_555
N10 B2 1_555 1_555
C19 C18 1_555 1_555
H24 C19 1_555 1_555
H25 C19 1_555 1_555
H26 C19 1_555 1_555
C20 C17 1_555 1_555
H27 C20 1_555 1_555
C21 H28 1_555 1_555
N11 C22 1_555 1_555
C22 N12 1_555 1_555
N12 B2 1_555 1_555
C23 C22 1_555 1_555
H29 C23 1_555 1_555
H30 C23 1_555 1_555
H31 C23 1_555 1_555
C24 C21 1_555 1_555
H32 C24 1_555 1_555
C25 H33 1_555 1_555
N13 Zn1 1_555 1_555
C26 N13 1_555 1_555
N14 C25 1_555 1_555
C27 C26 1_555 1_555
H34 C27 1_555 1_555
H35 C27 1_555 1_555
H36 C27 1_555 1_555
B3 N14 1_555 1_555
H37 B3 1_555 1_555
C28 C25 1_555 1_555
H38 C28 1_555 1_555
C29 H39 1_555 1_555
N15 C30 1_555 1_555
C30 N16 1_555 1_555
N16 B3 1_555 1_555
C31 C30 1_555 1_555
H40 C31 1_555 1_555
H41 C31 1_555 1_555
H42 C31 1_555 1_555
C32 C29 1_555 1_555
H43 C32 1_555 1_555
C33 H44 1_555 1_555
N17 C34 1_555 1_555
C34 N18 1_555 1_555
N18 B3 1_555 1_555
C35 C34 1_555 1_555
H45 C35 1_555 1_555
H46 C35 1_555 1_555
H47 C35 1_555 1_555
C36 C33 1_555 1_555
H48 C36 1_555 1_555
Zn3_2 N17 1_555 1_555
N19 Zn3_2 1_555 1_555
C38 N19 1_555 1_555
C39 C38 1_555 1_555
H50 C39 1_555 1_555
H52 C39 1_555 1_555
C45 H60 1_555 1_555
C48 C45 1_555 1_555
H64 C48 1_555 1_555
Zn5 N9 1_555 1_555
Zn6 N15 1_555 1_555
Zn7_2 N11 1_555 1_555
Zn8 N5 1_555 1_555
N25 Zn1 1_555 1_555
N26 Zn2 1_555 1_555
N28 Zn1 1_555 1_555
N30 Zn2 1_555 1_555
N1 C4 1_555 1_555
C5 N4 1_555 1_555
N3 C8 1_555 1_555
C9 N6 1_555 1_555
N5 C12 1_555 1_555
N7 C16 1_555 1_555
C14 N8 1_555 1_555
C17 N10 1_555 1_555
N9 C20 1_555 1_555
C21 N12 1_555 1_555
N11 C24 1_555 1_555
N13 C28 1_555 1_555
C26 N14 1_555 1_555
C29 N16 1_555 1_555
N15 C32 1_555 1_555
C33 N18 1_555 1_555
N17 C36 1_555 1_555
C29_2 H39_2 1_555 1_555
C32_2 C29_2 1_555 1_555
H43_2 C32_2 1_555 1_555
N17_2 C34_2 1_555 1_555
C35_2 C34_2 1_555 1_555
H45_2 C35_2 1_555 1_555
H47_2 C35_2 1_555 1_555
C36_2 C33_2 1_555 1_555
H48_2 C36_2 1_555 1_555
Zn3_3 N17_2 1_555 1_555
C37_2 H49_2 1_555 1_555
N19_2 Zn3_3 1_555 1_555
C38_2 N19_2 1_555 1_555
N20_2 C37_2 1_555 1_555
C39_2 C38_2 1_555 1_555
H50_2 C39_2 1_555 1_555
H51_2 C39_2 1_555 1_555
H52_2 C39_2 1_555 1_555
B4_2 N20_2 1_555 1_555
H53_2 B4_2 1_555 1_555
C40_2 C37_2 1_555 1_555
H54_2 C40_2 1_555 1_555
C41_2 H55_2 1_555 1_555
N21_2 C42_2 1_555 1_555
C42_2 N22_2 1_555 1_555
N22_2 B4_2 1_555 1_555
C43_2 C42_2 1_555 1_555
H56_2 C43_2 1_555 1_555
H57_2 C43_2 1_555 1_555
H58_2 C43_2 1_555 1_555
C44_2 C41_2 1_555 1_555
H59_2 C44_2 1_555 1_555
C45_2 H60_2 1_555 1_555
N23_2 C46_2 1_555 1_555
C46_2 N24_2 1_555 1_555
N24_2 B4_2 1_555 1_555
C47_2 C46_2 1_555 1_555
H61_2 C47_2 1_555 1_555
H62_2 C47_2 1_555 1_555
H63_2 C47_2 1_555 1_555
C48_2 C45_2 1_555 1_555
H64_2 C48_2 1_555 1_555
Zn5_3 N23_2 1_555 1_555
Zn9 N21_2 1_555 1_555
N27_2 Zn3_3 1_555 1_555
N29_2 Zn3_3 1_555 1_555
N17_2 C36_2 1_555 1_555
N19_2 C40_2 1_555 1_555
C38_2 N20_2 1_555 1_555
C41_2 N22_2 1_555 1_555
N21_2 C44_2 1_555 1_555
C45_2 N24_2 1_555 1_555
N23_2 C48_2 1_555 1_555
C13_2 H17_2 1_555 1_555
C16_2 C13_2 1_555 1_555
H22_2 C16_2 1_555 1_555
N9_2 C18_2 1_555 1_555
C19_2 C18_2 1_555 1_555
H24_2 C19_2 1_555 1_555
H26_2 C19_2 1_555 1_555
C20_2 C17_2 1_555 1_555
H27_2 C20_2 1_555 1_555
C25_2 H33_2 1_555 1_555
C26_2 N26 1_555 1_555
N14_2 C25_2 1_555 1_555
C27_2 C26_2 1_555 1_555
H34_2 C27_2 1_555 1_555
H35_2 C27_2 1_555 1_555
H36_2 C27_2 1_555 1_555
B3_2 N14_2 1_555 1_555
H37_2 B3_2 1_555 1_555
C28_2 C25_2 1_555 1_555
H38_2 C28_2 1_555 1_555
N15_2 C30_2 1_555 1_555
C30_2 N16_2 1_555 1_555
N16_2 B3_2 1_555 1_555
C31_2 C30_2 1_555 1_555
H40_2 C31_2 1_555 1_555
H41_2 C31_2 1_555 1_555
H42_2 C31_2 1_555 1_555
N18_2 B3_2 1_555 1_555
Zn5_3 N9_2 1_555 1_555
Zn6_2 N15_2 1_555 1_555
N9_2 C20_2 1_555 1_555
N26 C28_2 1_555 1_555
C26_2 N14_2 1_555 1_555
N7_2 Zn5_2 1_555 1_555
C14_2 N7_2 1_555 1_555
C15_2 C14_2 1_555 1_555
H18_2 C15_2 1_555 1_555
H19_2 C15_2 1_555 1_555
H20_2 C15_2 1_555 1_555
B2_2 N8_2 1_555 1_555
H21_2 B2_2 1_555 1_555
N10_2 B2_2 1_555 1_555
C21_2 H28_2 1_555 1_555
N11_2 C22_2 1_555 1_555
C22_2 N12_2 1_555 1_555
N12_2 B2_2 1_555 1_555
C23_2 C22_2 1_555 1_555
H29_2 C23_2 1_555 1_555
H30_2 C23_2 1_555 1_555
H31_2 C23_2 1_555 1_555
C24_2 C21_2 1_555 1_555
H32_2 C24_2 1_555 1_555
Zn8 N11_2 1_555 1_555
N26_2 Zn5_2 1_555 1_555
C14_2 N8_2 1_555 1_555
C21_2 N12_2 1_555 1_555
N11_2 C24_2 1_555 1_555
C13_3 H17_3 1_555 1_555
N7_3 Zn5_3 1_555 1_555
C14_3 N7_3 1_555 1_555
N8_3 C13_3 1_555 1_555
C15_3 C14_3 1_555 1_555
H18_3 C15_3 1_555 1_555
H19_3 C15_3 1_555 1_555
H20_3 C15_3 1_555 1_555
B2_3 N8_3 1_555 1_555
H21_3 B2_3 1_555 1_555
C16_3 C13_3 1_555 1_555
H22_3 C16_3 1_555 1_555
C17_3 H23_3 1_555 1_555
N28 C18_3 1_555 1_555
C18_3 N10_3 1_555 1_555
N10_3 B2_3 1_555 1_555
C19_3 C18_3 1_555 1_555
H24_3 C19_3 1_555 1_555
H25_3 C19_3 1_555 1_555
H26_3 C19_3 1_555 1_555
C20_3 C17_3 1_555 1_555
H27_3 C20_3 1_555 1_555
C21_3 H28_3 1_555 1_555
N11_3 C22_3 1_555 1_555
C22_3 N12_3 1_555 1_555
N12_3 B2_3 1_555 1_555
C23_3 C22_3 1_555 1_555
H29_3 C23_3 1_555 1_555
H30_3 C23_3 1_555 1_555
H31_3 C23_3 1_555 1_555
C24_3 C21_3 1_555 1_555
H32_3 C24_3 1_555 1_555
Zn7 N11_3 1_555 1_555
N26_3 Zn5_3 1_555 1_555
N7_3 C16_3 1_555 1_555
C14_3 N8_3 1_555 1_555
C17_3 N10_3 1_555 1_555
N28 C20_3 1_555 1_555
C21_3 N12_3 1_555 1_555
N11_3 C24_3 1_555 1_555
C37_3 H49_3 1_555 1_555
C40_3 C37_3 1_555 1_555
H54_3 C40_3 1_555 1_555
N21_3 C42_3 1_555 1_555
C43_3 C42_3 1_555 1_555
H56_3 C43_3 1_555 1_555
H58_3 C43_3 1_555 1_555
C44_3 C41_3 1_555 1_555
H59_3 C44_3 1_555 1_555
Zn9 N21_3 1_555 1_555
N27_3 Zn3_4 1_555 1_555
N29_3 Zn3_4 1_555 1_555
N21_3 C44_3 1_555 1_555
C25_3 H33_3 1_555 1_555
C26_3 N26_2 1_555 1_555
N14_3 C25_3 1_555 1_555
C27_3 C26_3 1_555 1_555
H34_3 C27_3 1_555 1_555
H35_3 C27_3 1_555 1_555
H36_3 C27_3 1_555 1_555
B3_3 N14_3 1_555 1_555
H37_3 B3_3 1_555 1_555
C28_3 C25_3 1_555 1_555
H38_3 C28_3 1_555 1_555
C29_3 H39_3 1_555 1_555
N15_3 C30_3 1_555 1_555
C30_3 N16_3 1_555 1_555
N16_3 B3_3 1_555 1_555
C31_3 C30_3 1_555 1_555
H40_3 C31_3 1_555 1_555
H41_3 C31_3 1_555 1_555
H42_3 C31_3 1_555 1_555
C32_3 C29_3 1_555 1_555
H43_3 C32_3 1_555 1_555
C33_3 H44_3 1_555 1_555
N17_3 C34_3 1_555 1_555
C34_3 N18_3 1_555 1_555
N18_3 B3_3 1_555 1_555
C35_3 C34_3 1_555 1_555
H45_3 C35_3 1_555 1_555
H46_3 C35_3 1_555 1_555
H47_3 C35_3 1_555 1_555
C36_3 C33_3 1_555 1_555
H48_3 C36_3 1_555 1_555
Zn3_5 N17_3 1_555 1_555
N19_3 Zn3_5 1_555 1_555
C38_3 N19_3 1_555 1_555
C39_3 C38_3 1_555 1_555
H50_3 C39_3 1_555 1_555
H51_3 C39_3 1_555 1_555
H52_3 C39_3 1_555 1_555
B4_3 N20_3 1_555 1_555
H53_3 B4_3 1_555 1_555
N22_3 B4_3 1_555 1_555
C45_3 H60_3 1_555 1_555
N25 C46_3 1_555 1_555
C46_3 N24_3 1_555 1_555
N24_3 B4_3 1_555 1_555
C47_3 C46_3 1_555 1_555
H61_3 C47_3 1_555 1_555
H62_3 C47_3 1_555 1_555
H63_3 C47_3 1_555 1_555
C48_3 C45_3 1_555 1_555
H64_3 C48_3 1_555 1_555
Zn6_2 N15_3 1_555 1_555
N26_2 C28_3 1_555 1_555
C26_3 N14_3 1_555 1_555
C29_3 N16_3 1_555 1_555
N15_3 C32_3 1_555 1_555
C33_3 N18_3 1_555 1_555
N17_3 C36_3 1_555 1_555
C38_3 N20_3 1_555 1_555
C45_3 N24_3 1_555 1_555
N25 C48_3 1_555 1_555
B2_4 N8_4 1_555 1_555
H21_4 B2_4 1_555 1_555
N10_4 B2_4 1_555 1_555
N12_4 B2_4 1_555 1_555
N11_4 C22_4 1_555 1_555
C23_4 C22_4 1_555 1_555
H29_4 C23_4 1_555 1_555
H31_4 C23_4 1_555 1_555
Zn7 N11_4 1_555 1_555
N29 C18_4 1_555 1_555
C19_4 C18_4 1_555 1_555
H24_4 C19_4 1_555 1_555
H26_4 C19_4 1_555 1_555
C20_4 C17_4 1_555 1_555
H27_4 C20_4 1_555 1_555
N7_4 Zn2_2 1_555 1_555
C14_4 N7_4 1_555 1_555
C15_4 C14_4 1_555 1_555
H18_4 C15_4 1_555 1_555
H20_4 C15_4 1_555 1_555
N26_4 Zn2_2 1_555 1_555
C24_4 C21_4 1_555 1_555
H32_4 C24_4 1_555 1_555
C1_2 H1_2 1_555 1_555
N27_3 C2_2 1_555 1_555
C2_2 N2_2 1_555 1_555
N2_2 C1_2 1_555 1_555
C3_2 C2_2 1_555 1_555
H2_2 C3_2 1_555 1_555
H3_2 C3_2 1_555 1_555
H4_2 C3_2 1_555 1_555
B1_2 N2_2 1_555 1_555
H5_2 B1_2 1_555 1_555
C4_2 C1_2 1_555 1_555
H6_2 C4_2 1_555 1_555
C5_2 H7_2 1_555 1_555
N3_2 C6_2 1_555 1_555
C6_2 N4_2 1_555 1_555
N4_2 B1_2 1_555 1_555
C7_2 C6_2 1_555 1_555
H8_2 C7_2 1_555 1_555
H9_2 C7_2 1_555 1_555
H10_2 C7_2 1_555 1_555
C8_2 C5_2 1_555 1_555
H11_2 C8_2 1_555 1_555
C9_2 H12_2 1_555 1_555
N5_2 C10_2 1_555 1_555
C10_2 N6_2 1_555 1_555
N6_2 B1_2 1_555 1_555
C11_2 C10_2 1_555 1_555
H13_2 C11_2 1_555 1_555
H14_2 C11_2 1_555 1_555
H15_2 C11_2 1_555 1_555
C12_2 C9_2 1_555 1_555
H16_2 C12_2 1_555 1_555
Zn2_3 N3_2 1_555 1_555
C16_4 C13_4 1_555 1_555
H22_4 C16_4 1_555 1_555
Zn8 N5_2 1_555 1_555
N30_2 Zn2_3 1_555 1_555
N27_3 C4_2 1_555 1_555
C5_2 N4_2 1_555 1_555
N3_2 C8_2 1_555 1_555
C9_2 N6_2 1_555 1_555
N5_2 C12_2 1_555 1_555
N27_4 Zn7_2 1_555 1_555
N26_5 Zn8 1_555 1_555
N29_4 Zn9 1_555 1_555
N30_3 Zn6 1_555 1_555
C25_4 H33_4 1_555 1_555
C26_4 N29_2 1_555 1_555
N14_4 C25_4 1_555 1_555
C27_4 C26_4 1_555 1_555
H34_4 C27_4 1_555 1_555
H35_4 C27_4 1_555 1_555
H36_4 C27_4 1_555 1_555
B3_4 N14_4 1_555 1_555
H37_4 B3_4 1_555 1_555
C28_4 C25_4 1_555 1_555
H38_4 C28_4 1_555 1_555
C29_4 H39_4 1_555 1_555
N26_5 C30_4 1_555 1_555
C30_4 N16_4 1_555 1_555
N16_4 B3_4 1_555 1_555
C31_4 C30_4 1_555 1_555
H40_4 C31_4 1_555 1_555
H41_4 C31_4 1_555 1_555
H42_4 C31_4 1_555 1_555
C32_4 C29_4 1_555 1_555
H43_4 C32_4 1_555 1_555
C33_4 H44_4 1_555 1_555
N27 C34_4 1_555 1_555
C34_4 N18_4 1_555 1_555
N18_4 B3_4 1_555 1_555
C35_4 C34_4 1_555 1_555
H45_4 C35_4 1_555 1_555
H46_4 C35_4 1_555 1_555
H47_4 C35_4 1_555 1_555
C36_4 C33_4 1_555 1_555
H48_4 C36_4 1_555 1_555
N29_2 C28_4 1_555 1_555
C26_4 N14_4 1_555 1_555
C29_4 N16_4 1_555 1_555
N26_5 C32_4 1_555 1_555
C33_4 N18_4 1_555 1_555
N27 C36_4 1_555 1_555
C13_5 H17_5 1_555 1_555
C14_5 N30 1_555 1_555
N8_5 C13_5 1_555 1_555
C15_5 C14_5 1_555 1_555
H18_5 C15_5 1_555 1_555
H19_5 C15_5 1_555 1_555
H20_5 C15_5 1_555 1_555
B2_5 N8_5 1_555 1_555
H21_5 B2_5 1_555 1_555
C16_5 C13_5 1_555 1_555
H22_5 C16_5 1_555 1_555
C17_5 H23_5 1_555 1_555
N26_4 C18_5 1_555 1_555
C18_5 N10_5 1_555 1_555
N10_5 B2_5 1_555 1_555
C19_5 C18_5 1_555 1_555
H24_5 C19_5 1_555 1_555
H25_5 C19_5 1_555 1_555
H26_5 C19_5 1_555 1_555
C20_5 C17_5 1_555 1_555
H27_5 C20_5 1_555 1_555
C21_5 H28_5 1_555 1_555
N29_4 C22_5 1_555 1_555
C22_5 N12_5 1_555 1_555
N12_5 B2_5 1_555 1_555
C23_5 C22_5 1_555 1_555
H29_5 C23_5 1_555 1_555
H30_5 C23_5 1_555 1_555
H31_5 C23_5 1_555 1_555
C24_5 C21_5 1_555 1_555
H32_5 C24_5 1_555 1_555
N30 C16_5 1_555 1_555
C14_5 N8_5 1_555 1_555
C17_5 N10_5 1_555 1_555
N26_4 C20_5 1_555 1_555
C21_5 N12_5 1_555 1_555
N29_4 C24_5 1_555 1_555
N27_2 C42_4 1_555 1_555
C43_4 C42_4 1_555 1_555
H56_4 C43_4 1_555 1_555
H58_4 C43_4 1_555 1_555
C44_4 C41_4 1_555 1_555
H59_4 C44_4 1_555 1_555
N27_2 C44_4 1_555 1_555
C40_4 C37_4 1_555 1_555
H54_4 C40_4 1_555 1_555
B4_4 N20_4 1_555 1_555
H53_4 B4_4 1_555 1_555
N22_4 B4_4 1_555 1_555
N29_3 C46_4 1_555 1_555
C46_4 N24_4 1_555 1_555
N24_4 B4_4 1_555 1_555
C47_4 C46_4 1_555 1_555
H61_4 C47_4 1_555 1_555
H62_4 C47_4 1_555 1_555
H63_4 C47_4 1_555 1_555
C38_4 N27_4 1_555 1_555
C39_4 C38_4 1_555 1_555
H50_4 C39_4 1_555 1_555
H52_4 C39_4 1_555 1_555
C45_4 H60_4 1_555 1_555
C48_4 C45_4 1_555 1_555
H64_4 C48_4 1_555 1_555
N26_3 C42_5 1_555 1_555
C43_5 C42_5 1_555 1_555
H56_5 C43_5 1_555 1_555
H58_5 C43_5 1_555 1_555
C44_5 C41_5 1_555 1_555
H59_5 C44_5 1_555 1_555
N26_3 C44_5 1_555 1_555
B4_5 N20_5 1_555 1_555
H53_5 B4_5 1_555 1_555
N22_5 B4_5 1_555 1_555
N30_3 C46_5 1_555 1_555
C46_5 N24_5 1_555 1_555
N24_5 B4_5 1_555 1_555
C47_5 C46_5 1_555 1_555
H61_5 C47_5 1_555 1_555
H62_5 C47_5 1_555 1_555
H63_5 C47_5 1_555 1_555
C40_5 C37_5 1_555 1_555
H54_5 C40_5 1_555 1_555
C38_5 N30_2 1_555 1_555
C39_5 C38_5 1_555 1_555
H50_5 C39_5 1_555 1_555
H52_5 C39_5 1_555 1_555
C45_5 H60_5 1_555 1_555
C48_5 C45_5 1_555 1_555
H64_5 C48_5 1_555 1_555

#END
