
###############################################################################
#
# This file contains modified crystal structure data generated from the
# MOF subset of the Cambridge Structural Database (CSD) v543 
# hosted by the Cambridge Crystallographic Data Centre (CCDC).
#
# This work is licensed under the Creative Commons
# Attribution-NonCommercial-ShareAlike 4.0 International License.
# To view a copy of this license, visit
# http://creativecommons.org/licenses/by-nc-sa/4.0/
# or send a letter to
# Creative Commons, PO Box 1866, Mountain View, CA 94042, USA.
#
# CIF created using the CSD Python API on 29 September 2022
# The structure has been converted into the P1 space group
# The structure has a 3D framework
# The original CSD entry RIFDUG01 is in the cubic crystal system
# The framework has been calculated to contain at least 10.0% void space
# The void calculation uses a probe of radius 1.32A, grid spacing 0.4
# H atom positions have been added when not included in the experimental data
# Generated hydrogen atom positions removed from atoms on special positions
#
###############################################################################

data_RIFDUG01
_chemical_formula_moiety         '(C288 H672 O264 Zn72)n'
_symmetry_cell_setting           triclinic
_symmetry_space_group_name_H-M   'P 1'
_symmetry_Int_Tables_number      1
_space_group_name_Hall           'P 1'
loop_
_symmetry_equiv_pos_site_id
_symmetry_equiv_pos_as_xyz
1 x,y,z
_cell_length_a                   26.540(5)
_cell_length_b                   26.540(5)
_cell_length_c                   26.540(5)
_cell_angle_alpha                90
_cell_angle_beta                 90
_cell_angle_gamma                90
_cell_volume                     18694
loop_
_atom_site_label
_atom_site_type_symbol
_atom_site_fract_x
_atom_site_fract_y
_atom_site_fract_z
Zn1 Zn 0.289580(17) -0.0000 0.210420(17)
O2 O 0.3408(2) -0.0000 0.1592(2)
O8 O 0.31717(16) 0.05318(12) 0.25760(14)
O9 O 0.25760(14) 0.05318(12) 0.31717(16)
O10 O 0.44682(12) 0.24240(14) 0.31717(16)
O11 O 0.44682(12) 0.18283(16) 0.25760(14)
O12 O 0.25760(14) 0.18283(16) 0.44682(12)
O13 O 0.31717(16) 0.24240(14) 0.44682(12)
O14 O 0.24240(14) 0.05318(12) 0.18283(16)
O15 O 0.18283(16) 0.05318(12) 0.24240(14)
O16 O 0.18283(16) 0.24240(14) 0.05318(12)
O17 O 0.24240(14) 0.18283(16) 0.05318(12)
O18 O 0.05318(12) 0.18283(16) 0.24240(14)
O19 O 0.05318(12) 0.24240(14) 0.18283(16)
Zn2 Zn 0.210420(17) -0.0000 0.289580(17)
Zn7 Zn 0.5000 0.289580(17) 0.289580(17)
Zn8 Zn 0.5000 0.210420(17) 0.210420(17)
Zn9 Zn 0.210420(17) 0.210420(17) 0.5000
Zn10 Zn 0.289580(17) 0.289580(17) 0.5000
Zn11 Zn 0.210420(17) 0.289580(17) 0.0000
Zn12 Zn 0.289580(17) 0.210420(17) 0.0000
Zn13 Zn -0.0000 0.210420(17) 0.289580(17)
Zn14 Zn 0.0000 0.289580(17) 0.210420(17)
C6 C 0.29696(19) 0.0698(2) 0.29696(19)
C7 C 0.4302(2) 0.20304(19) 0.29696(19)
C8 C 0.29696(19) 0.20304(19) 0.4302(2)
C9 C 0.20304(19) 0.0698(2) 0.20304(19)
C10 C 0.20304(19) 0.20304(19) 0.0698(2)
C11 C 0.0698(2) 0.20304(19) 0.20304(19)
C17 C 0.32102(16) 0.1143(2) 0.32102(16)
C18 C 0.3857(2) 0.17898(16) 0.32102(16)
C19 C 0.32102(16) 0.17898(16) 0.3857(2)
C20 C 0.17898(16) 0.1143(2) 0.17898(16)
C21 C 0.17898(16) 0.17898(16) 0.1143(2)
C22 C 0.1143(2) 0.17898(16) 0.17898(16)
C28 C 0.36424(16) 0.13576(16) 0.2997(2)
C29 C 0.36424(16) 0.2003(2) 0.36424(16)
C30 C 0.2997(2) 0.13576(16) 0.36424(16)
C31 C 0.2003(2) 0.13576(16) 0.13576(16)
C32 C 0.13576(16) 0.2003(2) 0.13576(16)
C33 C 0.13576(16) 0.13576(16) 0.2003(2)
H4 H 0.3791 0.1209 0.2707
H5 H 0.2707 0.1209 0.3791
H6 H 0.3791 0.2293 0.3791
H7 H 0.2293 0.1209 0.1209
H8 H 0.1209 0.1209 0.2293
H9 H 0.1209 0.2293 0.1209
O38 O 0.1592(2) -0.0000 0.3408(2)
Zn11_2 Zn 0.210420(17) 0.289580(17) 1.0000
Zn12_2 Zn 0.289580(17) 0.210420(17) 1.0000
O1 O 0.24240(14) 0.94682(12) 0.18283(16)
Zn1_2 Zn 0.289580(17) 1.0000 0.210420(17)
C1 C 0.20304(19) 0.9302(2) 0.20304(19)
C2 C 0.17898(16) 0.8857(2) 0.17898(16)
C3 C 0.2003(2) 0.86424(16) 0.13576(16)
H1 H 0.2293 0.8791 0.1209
O2_2 O 0.3408(2) 1.0000 0.1592(2)
O3 O 0.18283(16) 0.94682(12) 0.24240(14)
O4 O 0.18283(16) 0.75760(14) 0.05318(12)
O5 O 0.24240(14) 0.81717(16) 0.05318(12)
O6 O 0.05318(12) 0.81717(16) 0.24240(14)
O7 O 0.05318(12) 0.75760(14) 0.18283(16)
O20 O 0.31717(16) 0.94682(12) 0.25760(14)
O21 O 0.25760(14) 0.94682(12) 0.31717(16)
O22 O 0.44682(12) 0.75760(14) 0.31717(16)
O23 O 0.44682(12) 0.81717(16) 0.25760(14)
O24 O 0.25760(14) 0.81717(16) 0.44682(12)
O25 O 0.31717(16) 0.75760(14) 0.44682(12)
O28 O 0.25760(14) 0.68283(16) 0.05318(12)
O31 O 0.31717(16) 0.74240(14) 0.05318(12)
O34 O 0.05318(12) 0.74240(14) 0.31717(16)
O37 O 0.05318(12) 0.68283(16) 0.25760(14)
Zn2_2 Zn 0.210420(17) 1.0000 0.289580(17)
Zn3 Zn 0.210420(17) 0.710420(17) 0.0000
Zn4 Zn 0.289580(17) 0.789580(17) 0.0000
Zn5 Zn -0.0000 0.789580(17) 0.289580(17)
Zn6 Zn -0.0000 0.710420(17) 0.210420(17)
Zn15 Zn 0.5000 0.710420(17) 0.289580(17)
Zn16 Zn 0.5000 0.789580(17) 0.210420(17)
Zn17 Zn 0.210420(17) 0.789580(17) 0.5000
Zn18 Zn 0.289580(17) 0.710420(17) 0.5000
C4 C 0.20304(19) 0.79696(19) 0.0698(2)
C5 C 0.0698(2) 0.79696(19) 0.20304(19)
C12 C 0.29696(19) 0.9302(2) 0.29696(19)
C13 C 0.4302(2) 0.79696(19) 0.29696(19)
C14 C 0.29696(19) 0.79696(19) 0.4302(2)
C15 C 0.17898(16) 0.82102(16) 0.1143(2)
C16 C 0.1143(2) 0.82102(16) 0.17898(16)
C23 C 0.32102(16) 0.8857(2) 0.32102(16)
C24 C 0.3857(2) 0.82102(16) 0.32102(16)
C25 C 0.32102(16) 0.82102(16) 0.3857(2)
C26 C 0.13576(16) 0.7997(2) 0.13576(16)
C27 C 0.13576(16) 0.86424(16) 0.2003(2)
C34 C 0.36424(16) 0.86424(16) 0.2997(2)
C35 C 0.36424(16) 0.7997(2) 0.36424(16)
C36 C 0.2997(2) 0.86424(16) 0.36424(16)
H2 H 0.1209 0.8791 0.2293
H3 H 0.1209 0.7707 0.1209
H10 H 0.3791 0.8791 0.2707
H11 H 0.2707 0.8791 0.3791
H12 H 0.3791 0.7707 0.3791
O38_2 O 0.1592(2) 1.0000 0.3408(2)
O39 O 0.1592(2) 0.6592(2) 0.0000
O40 O 0.3408(2) 0.8408(2) 0.0000
O41 O -0.0000 0.8408(2) 0.3408(2)
O42 O -0.0000 0.6592(2) 0.1592(2)
O26 O 0.25760(14) 0.68283(16) 0.94682(12)
O27 O 0.18283(16) 0.75760(14) 0.94682(12)
O29 O 0.31717(16) 0.74240(14) 0.94682(12)
O30 O 0.24240(14) 0.81717(16) 0.94682(12)
Zn3_2 Zn 0.210420(17) 0.710420(17) 1.0000
Zn4_2 Zn 0.289580(17) 0.789580(17) 1.0000
O39_2 O 0.1592(2) 0.6592(2) 1.0000
O40_2 O 0.3408(2) 0.8408(2) 1.0000
Zn13_2 Zn 1.0000 0.210420(17) 0.289580(17)
Zn14_2 Zn 1.0000 0.289580(17) 0.210420(17)
O32 O 0.94682(12) 0.74240(14) 0.31717(16)
O33 O 0.94682(12) 0.81717(16) 0.24240(14)
O35 O 0.94682(12) 0.68283(16) 0.25760(14)
O36 O 0.94682(12) 0.75760(14) 0.18283(16)
Zn5_2 Zn 1.0000 0.789580(17) 0.289580(17)
Zn6_2 Zn 1.0000 0.710420(17) 0.210420(17)
O41_2 O 1.0000 0.8408(2) 0.3408(2)
O42_2 O 1.0000 0.6592(2) 0.1592(2)
O32_2 O 0.05318(12) 0.25760(14) 0.31717(16)
O35_2 O 0.05318(12) 0.31717(16) 0.25760(14)
O41_3 O 0.0000 0.1592(2) 0.3408(2)
O42_3 O -0.0000 0.3408(2) 0.1592(2)
O1_2 O 0.75760(14) 0.05318(12) 0.18283(16)
Zn1_3 Zn 0.710420(17) 0.0000 0.210420(17)
C1_2 C 0.79696(19) 0.0698(2) 0.20304(19)
C2_2 C 0.82102(16) 0.1143(2) 0.17898(16)
C3_2 C 0.7997(2) 0.13576(16) 0.13576(16)
H1_2 H 0.7707 0.1209 0.1209
O2_3 O 0.6592(2) 0.0000 0.1592(2)
O3_2 O 0.81717(16) 0.05318(12) 0.24240(14)
O4_2 O 0.81717(16) 0.24240(14) 0.05318(12)
O5_2 O 0.75760(14) 0.18283(16) 0.05318(12)
O6_2 O 0.94682(12) 0.18283(16) 0.24240(14)
O7_2 O 0.94682(12) 0.24240(14) 0.18283(16)
O20_2 O 0.68283(16) 0.05318(12) 0.25760(14)
O21_2 O 0.74240(14) 0.05318(12) 0.31717(16)
O22_2 O 0.55318(12) 0.24240(14) 0.31717(16)
O23_2 O 0.55318(12) 0.18283(16) 0.25760(14)
O24_2 O 0.74240(14) 0.18283(16) 0.44682(12)
O25_2 O 0.68283(16) 0.24240(14) 0.44682(12)
O28_2 O 0.74240(14) 0.31717(16) 0.05318(12)
O31_2 O 0.68283(16) 0.25760(14) 0.05318(12)
O34_2 O 0.94682(12) 0.25760(14) 0.31717(16)
O37_2 O 0.94682(12) 0.31717(16) 0.25760(14)
Zn2_3 Zn 0.789580(17) 0.0000 0.289580(17)
Zn3_3 Zn 0.789580(17) 0.289580(17) 0.0000
Zn4_3 Zn 0.710420(17) 0.210420(17) 0.0000
Zn17_2 Zn 0.789580(17) 0.210420(17) 0.5000
Zn18_2 Zn 0.710420(17) 0.289580(17) 0.5000
C4_2 C 0.79696(19) 0.20304(19) 0.0698(2)
C5_2 C 0.9302(2) 0.20304(19) 0.20304(19)
C12_2 C 0.70304(19) 0.0698(2) 0.29696(19)
C13_2 C 0.5698(2) 0.20304(19) 0.29696(19)
C14_2 C 0.70304(19) 0.20304(19) 0.4302(2)
C15_2 C 0.82102(16) 0.17898(16) 0.1143(2)
C16_2 C 0.8857(2) 0.17898(16) 0.17898(16)
C23_2 C 0.67898(16) 0.1143(2) 0.32102(16)
C24_2 C 0.6143(2) 0.17898(16) 0.32102(16)
C25_2 C 0.67898(16) 0.17898(16) 0.3857(2)
C26_2 C 0.86424(16) 0.2003(2) 0.13576(16)
C27_2 C 0.86424(16) 0.13576(16) 0.2003(2)
C34_2 C 0.63576(16) 0.13576(16) 0.2997(2)
C35_2 C 0.63576(16) 0.2003(2) 0.36424(16)
C36_2 C 0.7003(2) 0.13576(16) 0.36424(16)
H2_2 H 0.8791 0.1209 0.2293
H3_2 H 0.8791 0.2293 0.1209
H10_2 H 0.6209 0.1209 0.2707
H11_2 H 0.7293 0.1209 0.3791
H12_2 H 0.6209 0.2293 0.3791
O38_3 O 0.8408(2) 0.0000 0.3408(2)
O39_3 O 0.8408(2) 0.3408(2) 0.0000
O40_3 O 0.6592(2) 0.1592(2) 0.0000
O41_4 O 1.0000 0.1592(2) 0.3408(2)
O42_4 O 1.0000 0.3408(2) 0.1592(2)
O26_2 O 0.74240(14) 0.31717(16) 0.94682(12)
O27_2 O 0.81717(16) 0.24240(14) 0.94682(12)
O29_2 O 0.68283(16) 0.25760(14) 0.94682(12)
O30_2 O 0.75760(14) 0.18283(16) 0.94682(12)
Zn3_4 Zn 0.789580(17) 0.289580(17) 1.0000
Zn4_4 Zn 0.710420(17) 0.210420(17) 1.0000
O39_4 O 0.8408(2) 0.3408(2) 1.0000
O40_4 O 0.6592(2) 0.1592(2) 1.0000
Zn1_4 Zn 0.710420(17) 1.0000 0.210420(17)
O2_4 O 0.6592(2) 1.0000 0.1592(2)
O8_2 O 0.68283(16) 0.94682(12) 0.25760(14)
O9_2 O 0.74240(14) 0.94682(12) 0.31717(16)
O10_2 O 0.55318(12) 0.75760(14) 0.31717(16)
O11_2 O 0.55318(12) 0.81717(16) 0.25760(14)
O12_2 O 0.74240(14) 0.81717(16) 0.44682(12)
O13_2 O 0.68283(16) 0.75760(14) 0.44682(12)
O14_2 O 0.75760(14) 0.94682(12) 0.18283(16)
O15_2 O 0.81717(16) 0.94682(12) 0.24240(14)
O16_2 O 0.81717(16) 0.75760(14) 0.05318(12)
O17_2 O 0.75760(14) 0.81717(16) 0.05318(12)
Zn2_4 Zn 0.789580(17) 1.0000 0.289580(17)
Zn9_2 Zn 0.789580(17) 0.789580(17) 0.5000
Zn10_2 Zn 0.710420(17) 0.710420(17) 0.5000
Zn11_3 Zn 0.789580(17) 0.710420(17) 0.0000
Zn12_3 Zn 0.710420(17) 0.789580(17) 0.0000
C6_2 C 0.70304(19) 0.9302(2) 0.29696(19)
C7_2 C 0.5698(2) 0.79696(19) 0.29696(19)
C8_2 C 0.70304(19) 0.79696(19) 0.4302(2)
C9_2 C 0.79696(19) 0.9302(2) 0.20304(19)
C10_2 C 0.79696(19) 0.79696(19) 0.0698(2)
C11_2 C 0.9302(2) 0.79696(19) 0.20304(19)
C17_2 C 0.67898(16) 0.8857(2) 0.32102(16)
C18_2 C 0.6143(2) 0.82102(16) 0.32102(16)
C19_2 C 0.67898(16) 0.82102(16) 0.3857(2)
C20_2 C 0.82102(16) 0.8857(2) 0.17898(16)
C21_2 C 0.82102(16) 0.82102(16) 0.1143(2)
C22_2 C 0.8857(2) 0.82102(16) 0.17898(16)
C28_2 C 0.63576(16) 0.86424(16) 0.2997(2)
C29_2 C 0.63576(16) 0.7997(2) 0.36424(16)
C30_2 C 0.7003(2) 0.86424(16) 0.36424(16)
C31_2 C 0.7997(2) 0.86424(16) 0.13576(16)
C32_2 C 0.86424(16) 0.7997(2) 0.13576(16)
C33_2 C 0.86424(16) 0.86424(16) 0.2003(2)
H4_2 H 0.6209 0.8791 0.2707
H5_2 H 0.7293 0.8791 0.3791
H6_2 H 0.6209 0.7707 0.3791
H7_2 H 0.7707 0.8791 0.1209
H8_2 H 0.8791 0.8791 0.2293
H9_2 H 0.8791 0.7707 0.1209
O38_4 O 0.8408(2) 1.0000 0.3408(2)
Zn11_4 Zn 0.789580(17) 0.710420(17) 1.0000
Zn12_4 Zn 0.710420(17) 0.789580(17) 1.0000
O26_3 O 0.25760(14) 0.31717(16) 0.05318(12)
O29_3 O 0.31717(16) 0.25760(14) 0.05318(12)
O39_5 O 0.1592(2) 0.3408(2) 0.0000
O40_5 O 0.3408(2) 0.1592(2) 0.0000
O1_3 O 0.24240(14) 0.05318(12) 0.81717(16)
Zn1_5 Zn 0.289580(17) 0.0000 0.789580(17)
C1_3 C 0.20304(19) 0.0698(2) 0.79696(19)
C2_3 C 0.17898(16) 0.1143(2) 0.82102(16)
C3_3 C 0.2003(2) 0.13576(16) 0.86424(16)
H1_3 H 0.2293 0.1209 0.8791
O2_5 O 0.3408(2) 0.0000 0.8408(2)
O3_3 O 0.18283(16) 0.05318(12) 0.75760(14)
O4_3 O 0.18283(16) 0.24240(14) 0.94682(12)
O5_3 O 0.24240(14) 0.18283(16) 0.94682(12)
O6_3 O 0.05318(12) 0.18283(16) 0.75760(14)
O7_3 O 0.05318(12) 0.24240(14) 0.81717(16)
O20_3 O 0.31717(16) 0.05318(12) 0.74240(14)
O21_3 O 0.25760(14) 0.05318(12) 0.68283(16)
O22_3 O 0.44682(12) 0.24240(14) 0.68283(16)
O23_3 O 0.44682(12) 0.18283(16) 0.74240(14)
O24_3 O 0.25760(14) 0.18283(16) 0.55318(12)
O25_3 O 0.31717(16) 0.24240(14) 0.55318(12)
O28_3 O 0.25760(14) 0.31717(16) 0.94682(12)
O31_3 O 0.31717(16) 0.25760(14) 0.94682(12)
O34_3 O 0.05318(12) 0.25760(14) 0.68283(16)
O37_3 O 0.05318(12) 0.31717(16) 0.74240(14)
Zn2_5 Zn 0.210420(17) 0.0000 0.710420(17)
Zn5_3 Zn -0.0000 0.210420(17) 0.710420(17)
Zn6_3 Zn -0.0000 0.289580(17) 0.789580(17)
Zn15_2 Zn 0.5000 0.289580(17) 0.710420(17)
Zn16_2 Zn 0.5000 0.210420(17) 0.789580(17)
C4_3 C 0.20304(19) 0.20304(19) 0.9302(2)
C5_3 C 0.0698(2) 0.20304(19) 0.79696(19)
C12_3 C 0.29696(19) 0.0698(2) 0.70304(19)
C13_3 C 0.4302(2) 0.20304(19) 0.70304(19)
C14_3 C 0.29696(19) 0.20304(19) 0.5698(2)
C15_3 C 0.17898(16) 0.17898(16) 0.8857(2)
C16_3 C 0.1143(2) 0.17898(16) 0.82102(16)
C23_3 C 0.32102(16) 0.1143(2) 0.67898(16)
C24_3 C 0.3857(2) 0.17898(16) 0.67898(16)
C25_3 C 0.32102(16) 0.17898(16) 0.6143(2)
C26_3 C 0.13576(16) 0.2003(2) 0.86424(16)
C27_3 C 0.13576(16) 0.13576(16) 0.7997(2)
C34_3 C 0.36424(16) 0.13576(16) 0.7003(2)
C35_3 C 0.36424(16) 0.2003(2) 0.63576(16)
C36_3 C 0.2997(2) 0.13576(16) 0.63576(16)
H2_3 H 0.1209 0.1209 0.7707
H3_3 H 0.1209 0.2293 0.8791
H10_3 H 0.3791 0.1209 0.7293
H11_3 H 0.2707 0.1209 0.6209
H12_3 H 0.3791 0.2293 0.6209
O38_5 O 0.1592(2) 0.0000 0.6592(2)
O39_6 O 0.1592(2) 0.3408(2) 1.0000
O40_6 O 0.3408(2) 0.1592(2) 1.0000
O41_5 O -0.0000 0.1592(2) 0.6592(2)
O42_5 O -0.0000 0.3408(2) 0.8408(2)
Zn1_6 Zn 0.289580(17) 1.0000 0.789580(17)
O2_6 O 0.3408(2) 1.0000 0.8408(2)
O8_3 O 0.31717(16) 0.94682(12) 0.74240(14)
O9_3 O 0.25760(14) 0.94682(12) 0.68283(16)
O10_3 O 0.44682(12) 0.75760(14) 0.68283(16)
O11_3 O 0.44682(12) 0.81717(16) 0.74240(14)
O12_3 O 0.25760(14) 0.81717(16) 0.55318(12)
O13_3 O 0.31717(16) 0.75760(14) 0.55318(12)
O14_3 O 0.24240(14) 0.94682(12) 0.81717(16)
O15_3 O 0.18283(16) 0.94682(12) 0.75760(14)
O18_2 O 0.05318(12) 0.81717(16) 0.75760(14)
O19_2 O 0.05318(12) 0.75760(14) 0.81717(16)
Zn2_6 Zn 0.210420(17) 1.0000 0.710420(17)
Zn7_2 Zn 0.5000 0.710420(17) 0.710420(17)
Zn8_2 Zn 0.5000 0.789580(17) 0.789580(17)
Zn13_3 Zn -0.0000 0.789580(17) 0.710420(17)
Zn14_3 Zn -0.0000 0.710420(17) 0.789580(17)
C6_3 C 0.29696(19) 0.9302(2) 0.70304(19)
C7_3 C 0.4302(2) 0.79696(19) 0.70304(19)
C8_3 C 0.29696(19) 0.79696(19) 0.5698(2)
C9_3 C 0.20304(19) 0.9302(2) 0.79696(19)
C10_3 C 0.20304(19) 0.79696(19) 0.9302(2)
C11_3 C 0.0698(2) 0.79696(19) 0.79696(19)
C17_3 C 0.32102(16) 0.8857(2) 0.67898(16)
C18_3 C 0.3857(2) 0.82102(16) 0.67898(16)
C19_3 C 0.32102(16) 0.82102(16) 0.6143(2)
C20_3 C 0.17898(16) 0.8857(2) 0.82102(16)
C21_3 C 0.17898(16) 0.82102(16) 0.8857(2)
C22_3 C 0.1143(2) 0.82102(16) 0.82102(16)
C28_3 C 0.36424(16) 0.86424(16) 0.7003(2)
C29_3 C 0.36424(16) 0.7997(2) 0.63576(16)
C30_3 C 0.2997(2) 0.86424(16) 0.63576(16)
C31_3 C 0.2003(2) 0.86424(16) 0.86424(16)
C32_3 C 0.13576(16) 0.7997(2) 0.86424(16)
C33_3 C 0.13576(16) 0.86424(16) 0.7997(2)
H4_3 H 0.3791 0.8791 0.7293
H5_3 H 0.2707 0.8791 0.6209
H6_3 H 0.3791 0.7707 0.6209
H7_3 H 0.2293 0.8791 0.8791
H8_3 H 0.1209 0.8791 0.7707
H9_3 H 0.1209 0.7707 0.8791
O38_6 O 0.1592(2) 1.0000 0.6592(2)
O32_3 O 0.94682(12) 0.25760(14) 0.68283(16)
O33_2 O 0.94682(12) 0.18283(16) 0.75760(14)
O35_3 O 0.94682(12) 0.31717(16) 0.74240(14)
O36_2 O 0.94682(12) 0.24240(14) 0.81717(16)
Zn5_4 Zn 1.0000 0.210420(17) 0.710420(17)
Zn6_4 Zn 1.0000 0.289580(17) 0.789580(17)
O41_6 O 1.0000 0.1592(2) 0.6592(2)
O42_6 O 1.0000 0.3408(2) 0.8408(2)
Zn13_4 Zn 1.0000 0.789580(17) 0.710420(17)
Zn14_4 Zn 1.0000 0.710420(17) 0.789580(17)
O32_4 O 0.05318(12) 0.74240(14) 0.68283(16)
O35_4 O 0.05318(12) 0.68283(16) 0.74240(14)
O41_7 O 0.0000 0.8408(2) 0.6592(2)
O42_7 O -0.0000 0.6592(2) 0.8408(2)
Zn1_7 Zn 0.710420(17) -0.0000 0.789580(17)
O2_7 O 0.6592(2) -0.0000 0.8408(2)
O8_4 O 0.68283(16) 0.05318(12) 0.74240(14)
O9_4 O 0.74240(14) 0.05318(12) 0.68283(16)
O10_4 O 0.55318(12) 0.24240(14) 0.68283(16)
O11_4 O 0.55318(12) 0.18283(16) 0.74240(14)
O12_4 O 0.74240(14) 0.18283(16) 0.55318(12)
O13_4 O 0.68283(16) 0.24240(14) 0.55318(12)
O14_4 O 0.75760(14) 0.05318(12) 0.81717(16)
O15_4 O 0.81717(16) 0.05318(12) 0.75760(14)
Zn2_7 Zn 0.789580(17) -0.0000 0.710420(17)
C6_4 C 0.70304(19) 0.0698(2) 0.70304(19)
C7_4 C 0.5698(2) 0.20304(19) 0.70304(19)
C8_4 C 0.70304(19) 0.20304(19) 0.5698(2)
C9_4 C 0.79696(19) 0.0698(2) 0.79696(19)
C10_4 C 0.79696(19) 0.20304(19) 0.9302(2)
C11_4 C 0.9302(2) 0.20304(19) 0.79696(19)
C17_4 C 0.67898(16) 0.1143(2) 0.67898(16)
C18_4 C 0.6143(2) 0.17898(16) 0.67898(16)
C19_4 C 0.67898(16) 0.17898(16) 0.6143(2)
C20_4 C 0.82102(16) 0.1143(2) 0.82102(16)
C21_4 C 0.82102(16) 0.17898(16) 0.8857(2)
C22_4 C 0.8857(2) 0.17898(16) 0.82102(16)
C28_4 C 0.63576(16) 0.13576(16) 0.7003(2)
C29_4 C 0.63576(16) 0.2003(2) 0.63576(16)
C30_4 C 0.7003(2) 0.13576(16) 0.63576(16)
C31_4 C 0.7997(2) 0.13576(16) 0.86424(16)
C32_4 C 0.86424(16) 0.2003(2) 0.86424(16)
C33_4 C 0.86424(16) 0.13576(16) 0.7997(2)
H4_4 H 0.6209 0.1209 0.7293
H5_4 H 0.7293 0.1209 0.6209
H6_4 H 0.6209 0.2293 0.6209
H7_4 H 0.7707 0.1209 0.8791
H8_4 H 0.8791 0.1209 0.7707
H9_4 H 0.8791 0.2293 0.8791
O38_7 O 0.8408(2) -0.0000 0.6592(2)
O26_4 O 0.74240(14) 0.68283(16) 0.05318(12)
O29_4 O 0.68283(16) 0.74240(14) 0.05318(12)
O39_7 O 0.8408(2) 0.6592(2) 0.0000
O40_7 O 0.6592(2) 0.8408(2) 0.0000
O1_4 O 0.75760(14) 0.94682(12) 0.81717(16)
Zn1_8 Zn 0.710420(17) 1.0000 0.789580(17)
C1_4 C 0.79696(19) 0.9302(2) 0.79696(19)
C2_4 C 0.82102(16) 0.8857(2) 0.82102(16)
C3_4 C 0.7997(2) 0.86424(16) 0.86424(16)
H1_4 H 0.7707 0.8791 0.8791
O2_8 O 0.6592(2) 1.0000 0.8408(2)
O3_4 O 0.81717(16) 0.94682(12) 0.75760(14)
O4_4 O 0.81717(16) 0.75760(14) 0.94682(12)
O5_4 O 0.75760(14) 0.81717(16) 0.94682(12)
O6_4 O 0.94682(12) 0.81717(16) 0.75760(14)
O7_4 O 0.94682(12) 0.75760(14) 0.81717(16)
O20_4 O 0.68283(16) 0.94682(12) 0.74240(14)
O21_4 O 0.74240(14) 0.94682(12) 0.68283(16)
O22_4 O 0.55318(12) 0.75760(14) 0.68283(16)
O23_4 O 0.55318(12) 0.81717(16) 0.74240(14)
O24_4 O 0.74240(14) 0.81717(16) 0.55318(12)
O25_4 O 0.68283(16) 0.75760(14) 0.55318(12)
O28_4 O 0.74240(14) 0.68283(16) 0.94682(12)
O31_4 O 0.68283(16) 0.74240(14) 0.94682(12)
O34_4 O 0.94682(12) 0.74240(14) 0.68283(16)
O37_4 O 0.94682(12) 0.68283(16) 0.74240(14)
Zn2_8 Zn 0.789580(17) 1.0000 0.710420(17)
C4_4 C 0.79696(19) 0.79696(19) 0.9302(2)
C5_4 C 0.9302(2) 0.79696(19) 0.79696(19)
C12_4 C 0.70304(19) 0.9302(2) 0.70304(19)
C13_4 C 0.5698(2) 0.79696(19) 0.70304(19)
C14_4 C 0.70304(19) 0.79696(19) 0.5698(2)
C15_4 C 0.82102(16) 0.82102(16) 0.8857(2)
C16_4 C 0.8857(2) 0.82102(16) 0.82102(16)
C23_4 C 0.67898(16) 0.8857(2) 0.67898(16)
C24_4 C 0.6143(2) 0.82102(16) 0.67898(16)
C25_4 C 0.67898(16) 0.82102(16) 0.6143(2)
C26_4 C 0.86424(16) 0.7997(2) 0.86424(16)
C27_4 C 0.86424(16) 0.86424(16) 0.7997(2)
C34_4 C 0.63576(16) 0.86424(16) 0.7003(2)
C35_4 C 0.63576(16) 0.7997(2) 0.63576(16)
C36_4 C 0.7003(2) 0.86424(16) 0.63576(16)
H2_4 H 0.8791 0.8791 0.7707
H3_4 H 0.8791 0.7707 0.8791
H10_4 H 0.6209 0.8791 0.7293
H11_4 H 0.7293 0.8791 0.6209
H12_4 H 0.6209 0.7707 0.6209
O38_8 O 0.8408(2) 1.0000 0.6592(2)
O39_8 O 0.8408(2) 0.6592(2) 1.0000
O40_8 O 0.6592(2) 0.8408(2) 1.0000
O41_8 O 1.0000 0.8408(2) 0.6592(2)
O42_8 O 1.0000 0.6592(2) 0.8408(2)
O10_5 O 0.31717(16) 0.44682(12) 0.24240(14)
O11_5 O 0.25760(14) 0.44682(12) 0.18283(16)
O12_5 O 0.44682(12) 0.25760(14) 0.18283(16)
O13_5 O 0.44682(12) 0.31717(16) 0.24240(14)
Zn7_3 Zn 0.289580(17) 0.5000 0.289580(17)
Zn8_3 Zn 0.210420(17) 0.5000 0.210420(17)
C6_5 C 0.29696(19) 0.29696(19) 0.0698(2)
C7_5 C 0.29696(19) 0.4302(2) 0.20304(19)
C8_5 C 0.4302(2) 0.29696(19) 0.20304(19)
C17_5 C 0.32102(16) 0.32102(16) 0.1143(2)
C18_5 C 0.32102(16) 0.3857(2) 0.17898(16)
C19_5 C 0.3857(2) 0.32102(16) 0.17898(16)
C28_5 C 0.2997(2) 0.36424(16) 0.13576(16)
C29_5 C 0.36424(16) 0.36424(16) 0.2003(2)
C30_5 C 0.36424(16) 0.2997(2) 0.13576(16)
H4_5 H 0.2707 0.3791 0.1209
H5_5 H 0.3791 0.2707 0.1209
H6_5 H 0.3791 0.3791 0.2293
O22_5 O 0.31717(16) 0.44682(12) 0.75760(14)
O23_5 O 0.25760(14) 0.44682(12) 0.81717(16)
O24_5 O 0.44682(12) 0.25760(14) 0.81717(16)
O25_5 O 0.44682(12) 0.31717(16) 0.75760(14)
Zn15_3 Zn 0.289580(17) 0.5000 0.710420(17)
Zn16_3 Zn 0.210420(17) 0.5000 0.789580(17)
C12_5 C 0.29696(19) 0.29696(19) 0.9302(2)
C13_5 C 0.29696(19) 0.4302(2) 0.79696(19)
C14_5 C 0.4302(2) 0.29696(19) 0.79696(19)
C23_5 C 0.32102(16) 0.32102(16) 0.8857(2)
C24_5 C 0.32102(16) 0.3857(2) 0.82102(16)
C25_5 C 0.3857(2) 0.32102(16) 0.82102(16)
C34_5 C 0.2997(2) 0.36424(16) 0.86424(16)
C35_5 C 0.36424(16) 0.36424(16) 0.7997(2)
C36_5 C 0.36424(16) 0.2997(2) 0.86424(16)
H10_5 H 0.2707 0.3791 0.8791
H11_5 H 0.3791 0.2707 0.8791
H12_5 H 0.3791 0.3791 0.7707
O10_6 O 0.24240(14) 0.31717(16) 0.44682(12)
O11_6 O 0.18283(16) 0.25760(14) 0.44682(12)
O12_6 O 0.18283(16) 0.44682(12) 0.25760(14)
O13_6 O 0.24240(14) 0.44682(12) 0.31717(16)
C6_6 C 0.0698(2) 0.29696(19) 0.29696(19)
C7_6 C 0.20304(19) 0.29696(19) 0.4302(2)
C8_6 C 0.20304(19) 0.4302(2) 0.29696(19)
C17_6 C 0.1143(2) 0.32102(16) 0.32102(16)
C18_6 C 0.17898(16) 0.32102(16) 0.3857(2)
C19_6 C 0.17898(16) 0.3857(2) 0.32102(16)
C28_6 C 0.13576(16) 0.2997(2) 0.36424(16)
C29_6 C 0.2003(2) 0.36424(16) 0.36424(16)
C30_6 C 0.13576(16) 0.36424(16) 0.2997(2)
H4_6 H 0.1209 0.2707 0.3791
H5_6 H 0.1209 0.3791 0.2707
H6_6 H 0.2293 0.3791 0.3791
O22_6 O 0.75760(14) 0.31717(16) 0.44682(12)
O23_6 O 0.81717(16) 0.25760(14) 0.44682(12)
O24_6 O 0.81717(16) 0.44682(12) 0.25760(14)
O25_6 O 0.75760(14) 0.44682(12) 0.31717(16)
Zn17_3 Zn 0.789580(17) 0.5000 0.210420(17)
Zn18_3 Zn 0.710420(17) 0.5000 0.289580(17)
C12_6 C 0.9302(2) 0.29696(19) 0.29696(19)
C13_6 C 0.79696(19) 0.29696(19) 0.4302(2)
C14_6 C 0.79696(19) 0.4302(2) 0.29696(19)
C23_6 C 0.8857(2) 0.32102(16) 0.32102(16)
C24_6 C 0.82102(16) 0.32102(16) 0.3857(2)
C25_6 C 0.82102(16) 0.3857(2) 0.32102(16)
C34_6 C 0.86424(16) 0.2997(2) 0.36424(16)
C35_6 C 0.7997(2) 0.36424(16) 0.36424(16)
C36_6 C 0.86424(16) 0.36424(16) 0.2997(2)
H10_6 H 0.8791 0.2707 0.3791
H11_6 H 0.8791 0.3791 0.2707
H12_6 H 0.7707 0.3791 0.3791
O10_7 O 0.68283(16) 0.55318(12) 0.24240(14)
O11_7 O 0.74240(14) 0.55318(12) 0.18283(16)
O12_7 O 0.55318(12) 0.74240(14) 0.18283(16)
O13_7 O 0.55318(12) 0.68283(16) 0.24240(14)
C6_7 C 0.70304(19) 0.70304(19) 0.0698(2)
C7_7 C 0.70304(19) 0.5698(2) 0.20304(19)
C8_7 C 0.5698(2) 0.70304(19) 0.20304(19)
C17_7 C 0.67898(16) 0.67898(16) 0.1143(2)
C18_7 C 0.67898(16) 0.6143(2) 0.17898(16)
C19_7 C 0.6143(2) 0.67898(16) 0.17898(16)
C28_7 C 0.7003(2) 0.63576(16) 0.13576(16)
C29_7 C 0.63576(16) 0.63576(16) 0.2003(2)
C30_7 C 0.63576(16) 0.7003(2) 0.13576(16)
H4_7 H 0.7293 0.6209 0.1209
H5_7 H 0.6209 0.7293 0.1209
H6_7 H 0.6209 0.6209 0.2293
O22_7 O 0.68283(16) 0.55318(12) 0.75760(14)
O23_7 O 0.74240(14) 0.55318(12) 0.81717(16)
O24_7 O 0.55318(12) 0.74240(14) 0.81717(16)
O25_7 O 0.55318(12) 0.68283(16) 0.75760(14)
Zn15_4 Zn 0.710420(17) 0.5000 0.710420(17)
Zn16_4 Zn 0.789580(17) 0.5000 0.789580(17)
C12_7 C 0.70304(19) 0.70304(19) 0.9302(2)
C13_7 C 0.70304(19) 0.5698(2) 0.79696(19)
C14_7 C 0.5698(2) 0.70304(19) 0.79696(19)
C23_7 C 0.67898(16) 0.67898(16) 0.8857(2)
C24_7 C 0.67898(16) 0.6143(2) 0.82102(16)
C25_7 C 0.6143(2) 0.67898(16) 0.82102(16)
C34_7 C 0.7003(2) 0.63576(16) 0.86424(16)
C35_7 C 0.63576(16) 0.63576(16) 0.7997(2)
C36_7 C 0.63576(16) 0.7003(2) 0.86424(16)
H10_7 H 0.7293 0.6209 0.8791
H11_7 H 0.6209 0.7293 0.8791
H12_7 H 0.6209 0.6209 0.7707
O22_8 O 0.24240(14) 0.31717(16) 0.55318(12)
O23_8 O 0.18283(16) 0.25760(14) 0.55318(12)
O24_8 O 0.18283(16) 0.44682(12) 0.74240(14)
O25_8 O 0.24240(14) 0.44682(12) 0.68283(16)
C12_8 C 0.0698(2) 0.29696(19) 0.70304(19)
C13_8 C 0.20304(19) 0.29696(19) 0.5698(2)
C14_8 C 0.20304(19) 0.4302(2) 0.70304(19)
C23_8 C 0.1143(2) 0.32102(16) 0.67898(16)
C24_8 C 0.17898(16) 0.32102(16) 0.6143(2)
C25_8 C 0.17898(16) 0.3857(2) 0.67898(16)
C34_8 C 0.13576(16) 0.2997(2) 0.63576(16)
C35_8 C 0.2003(2) 0.36424(16) 0.63576(16)
C36_8 C 0.13576(16) 0.36424(16) 0.7003(2)
H10_8 H 0.1209 0.2707 0.6209
H11_8 H 0.1209 0.3791 0.7293
H12_8 H 0.2293 0.3791 0.6209
O10_8 O 0.75760(14) 0.31717(16) 0.55318(12)
O11_8 O 0.81717(16) 0.25760(14) 0.55318(12)
O12_8 O 0.81717(16) 0.44682(12) 0.74240(14)
O13_8 O 0.75760(14) 0.44682(12) 0.68283(16)
C6_8 C 0.9302(2) 0.29696(19) 0.70304(19)
C7_8 C 0.79696(19) 0.29696(19) 0.5698(2)
C8_8 C 0.79696(19) 0.4302(2) 0.70304(19)
C17_8 C 0.8857(2) 0.32102(16) 0.67898(16)
C18_8 C 0.82102(16) 0.32102(16) 0.6143(2)
C19_8 C 0.82102(16) 0.3857(2) 0.67898(16)
C28_8 C 0.86424(16) 0.2997(2) 0.63576(16)
C29_8 C 0.7997(2) 0.36424(16) 0.63576(16)
C30_8 C 0.86424(16) 0.36424(16) 0.7003(2)
H4_8 H 0.8791 0.2707 0.6209
H5_8 H 0.8791 0.3791 0.7293
H6_8 H 0.7707 0.3791 0.6209
O22_9 O 0.31717(16) 0.55318(12) 0.24240(14)
O23_9 O 0.25760(14) 0.55318(12) 0.18283(16)
O24_9 O 0.44682(12) 0.74240(14) 0.18283(16)
O25_9 O 0.44682(12) 0.68283(16) 0.24240(14)
C12_9 C 0.29696(19) 0.70304(19) 0.0698(2)
C13_9 C 0.29696(19) 0.5698(2) 0.20304(19)
C14_9 C 0.4302(2) 0.70304(19) 0.20304(19)
C23_9 C 0.32102(16) 0.67898(16) 0.1143(2)
C24_9 C 0.32102(16) 0.6143(2) 0.17898(16)
C25_9 C 0.3857(2) 0.67898(16) 0.17898(16)
C34_9 C 0.2997(2) 0.63576(16) 0.13576(16)
C35_9 C 0.36424(16) 0.63576(16) 0.2003(2)
C36_9 C 0.36424(16) 0.7003(2) 0.13576(16)
H10_9 H 0.2707 0.6209 0.1209
H11_9 H 0.3791 0.7293 0.1209
H12_9 H 0.3791 0.6209 0.2293
O10_9 O 0.31717(16) 0.55318(12) 0.75760(14)
O11_9 O 0.25760(14) 0.55318(12) 0.81717(16)
O12_9 O 0.44682(12) 0.74240(14) 0.81717(16)
O13_9 O 0.44682(12) 0.68283(16) 0.75760(14)
C6_9 C 0.29696(19) 0.70304(19) 0.9302(2)
C7_9 C 0.29696(19) 0.5698(2) 0.79696(19)
C8_9 C 0.4302(2) 0.70304(19) 0.79696(19)
C17_9 C 0.32102(16) 0.67898(16) 0.8857(2)
C18_9 C 0.32102(16) 0.6143(2) 0.82102(16)
C19_9 C 0.3857(2) 0.67898(16) 0.82102(16)
C28_9 C 0.2997(2) 0.63576(16) 0.86424(16)
C29_9 C 0.36424(16) 0.63576(16) 0.7997(2)
C30_9 C 0.36424(16) 0.7003(2) 0.86424(16)
H4_9 H 0.2707 0.6209 0.8791
H5_9 H 0.3791 0.7293 0.8791
H6_9 H 0.3791 0.6209 0.7707
O22_10 O 0.24240(14) 0.68283(16) 0.44682(12)
O23_10 O 0.18283(16) 0.74240(14) 0.44682(12)
O24_10 O 0.18283(16) 0.55318(12) 0.25760(14)
O25_10 O 0.24240(14) 0.55318(12) 0.31717(16)
C12_10 C 0.0698(2) 0.70304(19) 0.29696(19)
C13_10 C 0.20304(19) 0.70304(19) 0.4302(2)
C14_10 C 0.20304(19) 0.5698(2) 0.29696(19)
C23_10 C 0.1143(2) 0.67898(16) 0.32102(16)
C24_10 C 0.17898(16) 0.67898(16) 0.3857(2)
C25_10 C 0.17898(16) 0.6143(2) 0.32102(16)
C34_10 C 0.13576(16) 0.7003(2) 0.36424(16)
C35_10 C 0.2003(2) 0.63576(16) 0.36424(16)
C36_10 C 0.13576(16) 0.63576(16) 0.2997(2)
H10_10 H 0.1209 0.7293 0.3791
H11_10 H 0.1209 0.6209 0.2707
H12_10 H 0.2293 0.6209 0.3791
O10_10 O 0.75760(14) 0.68283(16) 0.44682(12)
O11_10 O 0.81717(16) 0.74240(14) 0.44682(12)
O12_10 O 0.81717(16) 0.55318(12) 0.25760(14)
O13_10 O 0.75760(14) 0.55318(12) 0.31717(16)
C6_10 C 0.9302(2) 0.70304(19) 0.29696(19)
C7_10 C 0.79696(19) 0.70304(19) 0.4302(2)
C8_10 C 0.79696(19) 0.5698(2) 0.29696(19)
C17_10 C 0.8857(2) 0.67898(16) 0.32102(16)
C18_10 C 0.82102(16) 0.67898(16) 0.3857(2)
C19_10 C 0.82102(16) 0.6143(2) 0.32102(16)
C28_10 C 0.86424(16) 0.7003(2) 0.36424(16)
C29_10 C 0.7997(2) 0.63576(16) 0.36424(16)
C30_10 C 0.86424(16) 0.63576(16) 0.2997(2)
H4_10 H 0.8791 0.7293 0.3791
H5_10 H 0.8791 0.6209 0.2707
H6_10 H 0.7707 0.6209 0.3791
O22_11 O 0.68283(16) 0.44682(12) 0.24240(14)
O23_11 O 0.74240(14) 0.44682(12) 0.18283(16)
O24_11 O 0.55318(12) 0.25760(14) 0.18283(16)
O25_11 O 0.55318(12) 0.31717(16) 0.24240(14)
C12_11 C 0.70304(19) 0.29696(19) 0.0698(2)
C13_11 C 0.70304(19) 0.4302(2) 0.20304(19)
C14_11 C 0.5698(2) 0.29696(19) 0.20304(19)
C23_11 C 0.67898(16) 0.32102(16) 0.1143(2)
C24_11 C 0.67898(16) 0.3857(2) 0.17898(16)
C25_11 C 0.6143(2) 0.32102(16) 0.17898(16)
C34_11 C 0.7003(2) 0.36424(16) 0.13576(16)
C35_11 C 0.63576(16) 0.36424(16) 0.2003(2)
C36_11 C 0.63576(16) 0.2997(2) 0.13576(16)
H10_11 H 0.7293 0.3791 0.1209
H11_11 H 0.6209 0.2707 0.1209
H12_11 H 0.6209 0.3791 0.2293
O10_11 O 0.68283(16) 0.44682(12) 0.75760(14)
O11_11 O 0.74240(14) 0.44682(12) 0.81717(16)
O12_11 O 0.55318(12) 0.25760(14) 0.81717(16)
O13_11 O 0.55318(12) 0.31717(16) 0.75760(14)
C6_11 C 0.70304(19) 0.29696(19) 0.9302(2)
C7_11 C 0.70304(19) 0.4302(2) 0.79696(19)
C8_11 C 0.5698(2) 0.29696(19) 0.79696(19)
C17_11 C 0.67898(16) 0.32102(16) 0.8857(2)
C18_11 C 0.67898(16) 0.3857(2) 0.82102(16)
C19_11 C 0.6143(2) 0.32102(16) 0.82102(16)
C28_11 C 0.7003(2) 0.36424(16) 0.86424(16)
C29_11 C 0.63576(16) 0.36424(16) 0.7997(2)
C30_11 C 0.63576(16) 0.2997(2) 0.86424(16)
H4_11 H 0.7293 0.3791 0.8791
H5_11 H 0.6209 0.2707 0.8791
H6_11 H 0.6209 0.3791 0.7707
O10_12 O 0.24240(14) 0.68283(16) 0.55318(12)
O11_12 O 0.18283(16) 0.74240(14) 0.55318(12)
O12_12 O 0.18283(16) 0.55318(12) 0.74240(14)
O13_12 O 0.24240(14) 0.55318(12) 0.68283(16)
C6_12 C 0.0698(2) 0.70304(19) 0.70304(19)
C7_12 C 0.20304(19) 0.70304(19) 0.5698(2)
C8_12 C 0.20304(19) 0.5698(2) 0.70304(19)
C17_12 C 0.1143(2) 0.67898(16) 0.67898(16)
C18_12 C 0.17898(16) 0.67898(16) 0.6143(2)
C19_12 C 0.17898(16) 0.6143(2) 0.67898(16)
C28_12 C 0.13576(16) 0.7003(2) 0.63576(16)
C29_12 C 0.2003(2) 0.63576(16) 0.63576(16)
C30_12 C 0.13576(16) 0.63576(16) 0.7003(2)
H4_12 H 0.1209 0.7293 0.6209
H5_12 H 0.1209 0.6209 0.7293
H6_12 H 0.2293 0.6209 0.6209
O22_12 O 0.75760(14) 0.68283(16) 0.55318(12)
O23_12 O 0.81717(16) 0.74240(14) 0.55318(12)
O24_12 O 0.81717(16) 0.55318(12) 0.74240(14)
O25_12 O 0.75760(14) 0.55318(12) 0.68283(16)
C12_12 C 0.9302(2) 0.70304(19) 0.70304(19)
C13_12 C 0.79696(19) 0.70304(19) 0.5698(2)
C14_12 C 0.79696(19) 0.5698(2) 0.70304(19)
C23_12 C 0.8857(2) 0.67898(16) 0.67898(16)
C24_12 C 0.82102(16) 0.67898(16) 0.6143(2)
C25_12 C 0.82102(16) 0.6143(2) 0.67898(16)
C34_12 C 0.86424(16) 0.7003(2) 0.63576(16)
C35_12 C 0.7997(2) 0.63576(16) 0.63576(16)
C36_12 C 0.86424(16) 0.63576(16) 0.7003(2)
H10_12 H 0.8791 0.7293 0.6209
H11_12 H 0.8791 0.6209 0.7293
H12_12 H 0.7707 0.6209 0.6209
O2_9 O 0.3408(2) 0.5000 0.6592(2)
O38_9 O 0.1592(2) 0.5000 0.8408(2)
O39_9 O 0.1592(2) 0.1592(2) 0.5000
O40_9 O 0.3408(2) 0.3408(2) 0.5000
O2_10 O 0.6592(2) 0.5000 0.6592(2)
O38_10 O 0.8408(2) 0.5000 0.8408(2)
O39_10 O 0.8408(2) 0.8408(2) 0.5000
O40_10 O 0.6592(2) 0.6592(2) 0.5000
O2_11 O 0.3408(2) 0.5000 0.3408(2)
O38_11 O 0.1592(2) 0.5000 0.1592(2)
O39_11 O 0.1592(2) 0.8408(2) 0.5000
O40_11 O 0.3408(2) 0.6592(2) 0.5000
O2_12 O 0.6592(2) 0.5000 0.3408(2)
O38_12 O 0.8408(2) 0.5000 0.1592(2)
O39_12 O 0.8408(2) 0.1592(2) 0.5000
O40_12 O 0.6592(2) 0.3408(2) 0.5000
O41_9 O 0.5000 0.8408(2) 0.8408(2)
O42_9 O 0.5000 0.6592(2) 0.6592(2)
O41_10 O 0.5000 0.1592(2) 0.8408(2)
O42_10 O 0.5000 0.3408(2) 0.6592(2)
O41_11 O 0.5000 0.1592(2) 0.1592(2)
O42_11 O 0.5000 0.3408(2) 0.3408(2)
O41_12 O 0.5000 0.8408(2) 0.1592(2)
O42_12 O 0.5000 0.6592(2) 0.3408(2)
loop_
_geom_bond_atom_site_label_1
_geom_bond_atom_site_label_2
_geom_bond_site_symmetry_1
_geom_bond_site_symmetry_2
Zn1 O2 1_555 1_555
O8 Zn1 1_555 1_555
O9 Zn2 1_555 1_555
O10 Zn7 1_555 1_555
O11 Zn8 1_555 1_555
O12 Zn9 1_555 1_555
O13 Zn10 1_555 1_555
O14 Zn1 1_555 1_555
O15 Zn2 1_555 1_555
O16 Zn11 1_555 1_555
O17 Zn12 1_555 1_555
O18 Zn13 1_555 1_555
O19 Zn14 1_555 1_555
C6 O8 1_555 1_555
C7 O10 1_555 1_555
C8 O12 1_555 1_555
C9 O14 1_555 1_555
C10 O16 1_555 1_555
C11 O18 1_555 1_555
C17 C6 1_555 1_555
C18 C7 1_555 1_555
C19 C8 1_555 1_555
C20 C9 1_555 1_555
C21 C10 1_555 1_555
C22 C11 1_555 1_555
C28 C17 1_555 1_555
C29 C18 1_555 1_555
C30 C17 1_555 1_555
C31 C20 1_555 1_555
C32 C21 1_555 1_555
C33 C20 1_555 1_555
H4 C28 1_555 1_555
H5 C30 1_555 1_555
H6 C29 1_555 1_555
H7 C31 1_555 1_555
H8 C33 1_555 1_555
H9 C32 1_555 1_555
O38 Zn2 1_555 1_555
O9 C6 1_555 1_555
O11 C7 1_555 1_555
O13 C8 1_555 1_555
O15 C9 1_555 1_555
O17 C10 1_555 1_555
O19 C11 1_555 1_555
C18 C28 1_555 1_555
C19 C29 1_555 1_555
C19 C30 1_555 1_555
C21 C31 1_555 1_555
C22 C32 1_555 1_555
C22 C33 1_555 1_555
O1 Zn1_2 1_555 1_555
Zn1_2 O2_2 1_555 1_555
C1 O1 1_555 1_555
C2 C1 1_555 1_555
C3 C2 1_555 1_555
H1 C3 1_555 1_555
O3 C1 1_555 1_555
O4 Zn3 1_555 1_555
O5 Zn4 1_555 1_555
O6 Zn5 1_555 1_555
O7 Zn6 1_555 1_555
O20 Zn1_2 1_555 1_555
O21 Zn2_2 1_555 1_555
O22 Zn15 1_555 1_555
O23 Zn16 1_555 1_555
O24 Zn17 1_555 1_555
O25 Zn18 1_555 1_555
O28 Zn3 1_555 1_555
O31 Zn4 1_555 1_555
O34 Zn5 1_555 1_555
O37 Zn6 1_555 1_555
Zn2_2 O3 1_555 1_555
Zn3 O39 1_555 1_555
Zn4 O40 1_555 1_555
Zn5 O41 1_555 1_555
Zn6 O42 1_555 1_555
C4 O4 1_555 1_555
C5 O6 1_555 1_555
C12 O20 1_555 1_555
C13 O22 1_555 1_555
C14 O24 1_555 1_555
C15 C3 1_555 1_555
C16 C5 1_555 1_555
C23 C12 1_555 1_555
C24 C13 1_555 1_555
C25 C14 1_555 1_555
C26 C15 1_555 1_555
C27 C2 1_555 1_555
C34 C23 1_555 1_555
C35 C24 1_555 1_555
C36 C23 1_555 1_555
H2 C27 1_555 1_555
H3 C26 1_555 1_555
H10 C34 1_555 1_555
H11 C36 1_555 1_555
H12 C35 1_555 1_555
O38_2 Zn2_2 1_555 1_555
O5 C4 1_555 1_555
O7 C5 1_555 1_555
O21 C12 1_555 1_555
O23 C13 1_555 1_555
O25 C14 1_555 1_555
C4 C15 1_555 1_555
C16 C26 1_555 1_555
C16 C27 1_555 1_555
C24 C34 1_555 1_555
C25 C35 1_555 1_555
C25 C36 1_555 1_555
O26 Zn3_2 1_555 1_555
O27 Zn3_2 1_555 1_555
O29 Zn4_2 1_555 1_555
O30 Zn4_2 1_555 1_555
Zn3_2 O39_2 1_555 1_555
Zn4_2 O40_2 1_555 1_555
O32 Zn5_2 1_555 1_555
O33 Zn5_2 1_555 1_555
O35 Zn6_2 1_555 1_555
O36 Zn6_2 1_555 1_555
Zn5_2 O41_2 1_555 1_555
Zn6_2 O42_2 1_555 1_555
O32_2 Zn13 1_555 1_555
O35_2 Zn14 1_555 1_555
Zn13 O41_3 1_555 1_555
Zn14 O42_3 1_555 1_555
O1_2 Zn1_3 1_555 1_555
Zn1_3 O2_3 1_555 1_555
C1_2 O1_2 1_555 1_555
C2_2 C1_2 1_555 1_555
C3_2 C2_2 1_555 1_555
H1_2 C3_2 1_555 1_555
O3_2 C1_2 1_555 1_555
O4_2 Zn3_3 1_555 1_555
O5_2 Zn4_3 1_555 1_555
O6_2 Zn13_2 1_555 1_555
O7_2 Zn14_2 1_555 1_555
O20_2 Zn1_3 1_555 1_555
O21_2 Zn2_3 1_555 1_555
O22_2 Zn7 1_555 1_555
O23_2 Zn8 1_555 1_555
O24_2 Zn17_2 1_555 1_555
O25_2 Zn18_2 1_555 1_555
O28_2 Zn3_3 1_555 1_555
O31_2 Zn4_3 1_555 1_555
O34_2 Zn13_2 1_555 1_555
O37_2 Zn14_2 1_555 1_555
Zn2_3 O3_2 1_555 1_555
Zn3_3 O39_3 1_555 1_555
Zn4_3 O40_3 1_555 1_555
Zn13_2 O41_4 1_555 1_555
Zn14_2 O42_4 1_555 1_555
C4_2 O4_2 1_555 1_555
C5_2 O6_2 1_555 1_555
C12_2 O20_2 1_555 1_555
C13_2 O22_2 1_555 1_555
C14_2 O24_2 1_555 1_555
C15_2 C3_2 1_555 1_555
C16_2 C5_2 1_555 1_555
C23_2 C12_2 1_555 1_555
C24_2 C13_2 1_555 1_555
C25_2 C14_2 1_555 1_555
C26_2 C15_2 1_555 1_555
C27_2 C2_2 1_555 1_555
C34_2 C23_2 1_555 1_555
C35_2 C24_2 1_555 1_555
C36_2 C23_2 1_555 1_555
H2_2 C27_2 1_555 1_555
H3_2 C26_2 1_555 1_555
H10_2 C34_2 1_555 1_555
H11_2 C36_2 1_555 1_555
H12_2 C35_2 1_555 1_555
O38_3 Zn2_3 1_555 1_555
O5_2 C4_2 1_555 1_555
O7_2 C5_2 1_555 1_555
O21_2 C12_2 1_555 1_555
O23_2 C13_2 1_555 1_555
O25_2 C14_2 1_555 1_555
C4_2 C15_2 1_555 1_555
C16_2 C26_2 1_555 1_555
C16_2 C27_2 1_555 1_555
C24_2 C34_2 1_555 1_555
C25_2 C35_2 1_555 1_555
C25_2 C36_2 1_555 1_555
O26_2 Zn3_4 1_555 1_555
O27_2 Zn3_4 1_555 1_555
O29_2 Zn4_4 1_555 1_555
O30_2 Zn4_4 1_555 1_555
Zn3_4 O39_4 1_555 1_555
Zn4_4 O40_4 1_555 1_555
Zn1_4 O2_4 1_555 1_555
O8_2 Zn1_4 1_555 1_555
O9_2 Zn2_4 1_555 1_555
O10_2 Zn15 1_555 1_555
O11_2 Zn16 1_555 1_555
O12_2 Zn9_2 1_555 1_555
O13_2 Zn10_2 1_555 1_555
O14_2 Zn1_4 1_555 1_555
O15_2 Zn2_4 1_555 1_555
O16_2 Zn11_3 1_555 1_555
O17_2 Zn12_3 1_555 1_555
C6_2 O8_2 1_555 1_555
C7_2 O10_2 1_555 1_555
C8_2 O12_2 1_555 1_555
C9_2 O14_2 1_555 1_555
C10_2 O16_2 1_555 1_555
C11_2 O33 1_555 1_555
C17_2 C6_2 1_555 1_555
C18_2 C7_2 1_555 1_555
C19_2 C8_2 1_555 1_555
C20_2 C9_2 1_555 1_555
C21_2 C10_2 1_555 1_555
C22_2 C11_2 1_555 1_555
C28_2 C17_2 1_555 1_555
C29_2 C18_2 1_555 1_555
C30_2 C17_2 1_555 1_555
C31_2 C20_2 1_555 1_555
C32_2 C21_2 1_555 1_555
C33_2 C20_2 1_555 1_555
H4_2 C28_2 1_555 1_555
H5_2 C30_2 1_555 1_555
H6_2 C29_2 1_555 1_555
H7_2 C31_2 1_555 1_555
H8_2 C33_2 1_555 1_555
H9_2 C32_2 1_555 1_555
O38_4 Zn2_4 1_555 1_555
O9_2 C6_2 1_555 1_555
O11_2 C7_2 1_555 1_555
O13_2 C8_2 1_555 1_555
O15_2 C9_2 1_555 1_555
O17_2 C10_2 1_555 1_555
O36 C11_2 1_555 1_555
C18_2 C28_2 1_555 1_555
C19_2 C29_2 1_555 1_555
C19_2 C30_2 1_555 1_555
C21_2 C31_2 1_555 1_555
C22_2 C32_2 1_555 1_555
C22_2 C33_2 1_555 1_555
O26_3 Zn11 1_555 1_555
O29_3 Zn12 1_555 1_555
Zn11 O39_5 1_555 1_555
Zn12 O40_5 1_555 1_555
O1_3 Zn1_5 1_555 1_555
Zn1_5 O2_5 1_555 1_555
C1_3 O1_3 1_555 1_555
C2_3 C1_3 1_555 1_555
C3_3 C2_3 1_555 1_555
H1_3 C3_3 1_555 1_555
O3_3 C1_3 1_555 1_555
O4_3 Zn11_2 1_555 1_555
O5_3 Zn12_2 1_555 1_555
O6_3 Zn5_3 1_555 1_555
O7_3 Zn6_3 1_555 1_555
O20_3 Zn1_5 1_555 1_555
O21_3 Zn2_5 1_555 1_555
O22_3 Zn15_2 1_555 1_555
O23_3 Zn16_2 1_555 1_555
O24_3 Zn9 1_555 1_555
O25_3 Zn10 1_555 1_555
O28_3 Zn11_2 1_555 1_555
O31_3 Zn12_2 1_555 1_555
O34_3 Zn5_3 1_555 1_555
O37_3 Zn6_3 1_555 1_555
Zn2_5 O3_3 1_555 1_555
Zn11_2 O39_6 1_555 1_555
Zn12_2 O40_6 1_555 1_555
Zn5_3 O41_5 1_555 1_555
Zn6_3 O42_5 1_555 1_555
C4_3 O4_3 1_555 1_555
C5_3 O6_3 1_555 1_555
C12_3 O20_3 1_555 1_555
C13_3 O22_3 1_555 1_555
C14_3 O24_3 1_555 1_555
C15_3 C3_3 1_555 1_555
C16_3 C5_3 1_555 1_555
C23_3 C12_3 1_555 1_555
C24_3 C13_3 1_555 1_555
C25_3 C14_3 1_555 1_555
C26_3 C15_3 1_555 1_555
C27_3 C2_3 1_555 1_555
C34_3 C23_3 1_555 1_555
C35_3 C24_3 1_555 1_555
C36_3 C23_3 1_555 1_555
H2_3 C27_3 1_555 1_555
H3_3 C26_3 1_555 1_555
H10_3 C34_3 1_555 1_555
H11_3 C36_3 1_555 1_555
H12_3 C35_3 1_555 1_555
O38_5 Zn2_5 1_555 1_555
O5_3 C4_3 1_555 1_555
O7_3 C5_3 1_555 1_555
O21_3 C12_3 1_555 1_555
O23_3 C13_3 1_555 1_555
O25_3 C14_3 1_555 1_555
C4_3 C15_3 1_555 1_555
C16_3 C26_3 1_555 1_555
C16_3 C27_3 1_555 1_555
C24_3 C34_3 1_555 1_555
C25_3 C35_3 1_555 1_555
C25_3 C36_3 1_555 1_555
Zn1_6 O2_6 1_555 1_555
O8_3 Zn1_6 1_555 1_555
O9_3 Zn2_6 1_555 1_555
O10_3 Zn7_2 1_555 1_555
O11_3 Zn8_2 1_555 1_555
O12_3 Zn17 1_555 1_555
O13_3 Zn18 1_555 1_555
O14_3 Zn1_6 1_555 1_555
O15_3 Zn2_6 1_555 1_555
O18_2 Zn13_3 1_555 1_555
O19_2 Zn14_3 1_555 1_555
C6_3 O8_3 1_555 1_555
C7_3 O10_3 1_555 1_555
C8_3 O12_3 1_555 1_555
C9_3 O14_3 1_555 1_555
C10_3 O27 1_555 1_555
C11_3 O18_2 1_555 1_555
C17_3 C6_3 1_555 1_555
C18_3 C7_3 1_555 1_555
C19_3 C8_3 1_555 1_555
C20_3 C9_3 1_555 1_555
C21_3 C10_3 1_555 1_555
C22_3 C11_3 1_555 1_555
C28_3 C17_3 1_555 1_555
C29_3 C18_3 1_555 1_555
C30_3 C17_3 1_555 1_555
C31_3 C20_3 1_555 1_555
C32_3 C21_3 1_555 1_555
C33_3 C20_3 1_555 1_555
H4_3 C28_3 1_555 1_555
H5_3 C30_3 1_555 1_555
H6_3 C29_3 1_555 1_555
H7_3 C31_3 1_555 1_555
H8_3 C33_3 1_555 1_555
H9_3 C32_3 1_555 1_555
O38_6 Zn2_6 1_555 1_555
O9_3 C6_3 1_555 1_555
O11_3 C7_3 1_555 1_555
O13_3 C8_3 1_555 1_555
O15_3 C9_3 1_555 1_555
O30 C10_3 1_555 1_555
O19_2 C11_3 1_555 1_555
C18_3 C28_3 1_555 1_555
C19_3 C29_3 1_555 1_555
C19_3 C30_3 1_555 1_555
C21_3 C31_3 1_555 1_555
C22_3 C32_3 1_555 1_555
C22_3 C33_3 1_555 1_555
O32_3 Zn5_4 1_555 1_555
O33_2 Zn5_4 1_555 1_555
O35_3 Zn6_4 1_555 1_555
O36_2 Zn6_4 1_555 1_555
Zn5_4 O41_6 1_555 1_555
Zn6_4 O42_6 1_555 1_555
O32_4 Zn13_3 1_555 1_555
O35_4 Zn14_3 1_555 1_555
Zn13_3 O41_7 1_555 1_555
Zn14_3 O42_7 1_555 1_555
Zn1_7 O2_7 1_555 1_555
O8_4 Zn1_7 1_555 1_555
O9_4 Zn2_7 1_555 1_555
O10_4 Zn15_2 1_555 1_555
O11_4 Zn16_2 1_555 1_555
O12_4 Zn17_2 1_555 1_555
O13_4 Zn18_2 1_555 1_555
O14_4 Zn1_7 1_555 1_555
O15_4 Zn2_7 1_555 1_555
C6_4 O8_4 1_555 1_555
C7_4 O10_4 1_555 1_555
C8_4 O12_4 1_555 1_555
C9_4 O14_4 1_555 1_555
C10_4 O27_2 1_555 1_555
C11_4 O33_2 1_555 1_555
C17_4 C6_4 1_555 1_555
C18_4 C7_4 1_555 1_555
C19_4 C8_4 1_555 1_555
C20_4 C9_4 1_555 1_555
C21_4 C10_4 1_555 1_555
C22_4 C11_4 1_555 1_555
C28_4 C17_4 1_555 1_555
C29_4 C18_4 1_555 1_555
C30_4 C17_4 1_555 1_555
C31_4 C20_4 1_555 1_555
C32_4 C21_4 1_555 1_555
C33_4 C20_4 1_555 1_555
H4_4 C28_4 1_555 1_555
H5_4 C30_4 1_555 1_555
H6_4 C29_4 1_555 1_555
H7_4 C31_4 1_555 1_555
H8_4 C33_4 1_555 1_555
H9_4 C32_4 1_555 1_555
O38_7 Zn2_7 1_555 1_555
O9_4 C6_4 1_555 1_555
O11_4 C7_4 1_555 1_555
O13_4 C8_4 1_555 1_555
O15_4 C9_4 1_555 1_555
O30_2 C10_4 1_555 1_555
O36_2 C11_4 1_555 1_555
C18_4 C28_4 1_555 1_555
C19_4 C29_4 1_555 1_555
C19_4 C30_4 1_555 1_555
C21_4 C31_4 1_555 1_555
C22_4 C32_4 1_555 1_555
C22_4 C33_4 1_555 1_555
O26_4 Zn11_3 1_555 1_555
O29_4 Zn12_3 1_555 1_555
Zn11_3 O39_7 1_555 1_555
Zn12_3 O40_7 1_555 1_555
O1_4 Zn1_8 1_555 1_555
Zn1_8 O2_8 1_555 1_555
C1_4 O1_4 1_555 1_555
C2_4 C1_4 1_555 1_555
C3_4 C2_4 1_555 1_555
H1_4 C3_4 1_555 1_555
O3_4 C1_4 1_555 1_555
O4_4 Zn11_4 1_555 1_555
O5_4 Zn12_4 1_555 1_555
O6_4 Zn13_4 1_555 1_555
O7_4 Zn14_4 1_555 1_555
O20_4 Zn1_8 1_555 1_555
O21_4 Zn2_8 1_555 1_555
O22_4 Zn7_2 1_555 1_555
O23_4 Zn8_2 1_555 1_555
O24_4 Zn9_2 1_555 1_555
O25_4 Zn10_2 1_555 1_555
O28_4 Zn11_4 1_555 1_555
O31_4 Zn12_4 1_555 1_555
O34_4 Zn13_4 1_555 1_555
O37_4 Zn14_4 1_555 1_555
Zn2_8 O3_4 1_555 1_555
Zn11_4 O39_8 1_555 1_555
Zn12_4 O40_8 1_555 1_555
Zn13_4 O41_8 1_555 1_555
Zn14_4 O42_8 1_555 1_555
C4_4 O4_4 1_555 1_555
C5_4 O6_4 1_555 1_555
C12_4 O20_4 1_555 1_555
C13_4 O22_4 1_555 1_555
C14_4 O24_4 1_555 1_555
C15_4 C3_4 1_555 1_555
C16_4 C5_4 1_555 1_555
C23_4 C12_4 1_555 1_555
C24_4 C13_4 1_555 1_555
C25_4 C14_4 1_555 1_555
C26_4 C15_4 1_555 1_555
C27_4 C2_4 1_555 1_555
C34_4 C23_4 1_555 1_555
C35_4 C24_4 1_555 1_555
C36_4 C23_4 1_555 1_555
H2_4 C27_4 1_555 1_555
H3_4 C26_4 1_555 1_555
H10_4 C34_4 1_555 1_555
H11_4 C36_4 1_555 1_555
H12_4 C35_4 1_555 1_555
O38_8 Zn2_8 1_555 1_555
O5_4 C4_4 1_555 1_555
O7_4 C5_4 1_555 1_555
O21_4 C12_4 1_555 1_555
O23_4 C13_4 1_555 1_555
O25_4 C14_4 1_555 1_555
C4_4 C15_4 1_555 1_555
C16_4 C26_4 1_555 1_555
C16_4 C27_4 1_555 1_555
C24_4 C34_4 1_555 1_555
C25_4 C35_4 1_555 1_555
C25_4 C36_4 1_555 1_555
O10_5 Zn7_3 1_555 1_555
O11_5 Zn8_3 1_555 1_555
O12_5 Zn8 1_555 1_555
O13_5 Zn7 1_555 1_555
C6_5 O26_3 1_555 1_555
C7_5 O10_5 1_555 1_555
C8_5 O12_5 1_555 1_555
C17_5 C6_5 1_555 1_555
C18_5 C7_5 1_555 1_555
C19_5 C8_5 1_555 1_555
C28_5 C17_5 1_555 1_555
C29_5 C18_5 1_555 1_555
C30_5 C17_5 1_555 1_555
H4_5 C28_5 1_555 1_555
H5_5 C30_5 1_555 1_555
H6_5 C29_5 1_555 1_555
O29_3 C6_5 1_555 1_555
O11_5 C7_5 1_555 1_555
O13_5 C8_5 1_555 1_555
C18_5 C28_5 1_555 1_555
C19_5 C29_5 1_555 1_555
C19_5 C30_5 1_555 1_555
O22_5 Zn15_3 1_555 1_555
O23_5 Zn16_3 1_555 1_555
O24_5 Zn16_2 1_555 1_555
O25_5 Zn15_2 1_555 1_555
C12_5 O28_3 1_555 1_555
C13_5 O22_5 1_555 1_555
C14_5 O24_5 1_555 1_555
C23_5 C12_5 1_555 1_555
C24_5 C13_5 1_555 1_555
C25_5 C14_5 1_555 1_555
C34_5 C23_5 1_555 1_555
C35_5 C24_5 1_555 1_555
C36_5 C23_5 1_555 1_555
H10_5 C34_5 1_555 1_555
H11_5 C36_5 1_555 1_555
H12_5 C35_5 1_555 1_555
O31_3 C12_5 1_555 1_555
O23_5 C13_5 1_555 1_555
O25_5 C14_5 1_555 1_555
C24_5 C34_5 1_555 1_555
C25_5 C35_5 1_555 1_555
C25_5 C36_5 1_555 1_555
O10_6 Zn10 1_555 1_555
O11_6 Zn9 1_555 1_555
O12_6 Zn8_3 1_555 1_555
O13_6 Zn7_3 1_555 1_555
C6_6 O32_2 1_555 1_555
C7_6 O10_6 1_555 1_555
C8_6 O12_6 1_555 1_555
C17_6 C6_6 1_555 1_555
C18_6 C7_6 1_555 1_555
C19_6 C8_6 1_555 1_555
C28_6 C17_6 1_555 1_555
C29_6 C18_6 1_555 1_555
C30_6 C17_6 1_555 1_555
H4_6 C28_6 1_555 1_555
H5_6 C30_6 1_555 1_555
H6_6 C29_6 1_555 1_555
O35_2 C6_6 1_555 1_555
O11_6 C7_6 1_555 1_555
O13_6 C8_6 1_555 1_555
C18_6 C28_6 1_555 1_555
C19_6 C29_6 1_555 1_555
C19_6 C30_6 1_555 1_555
O22_6 Zn18_2 1_555 1_555
O23_6 Zn17_2 1_555 1_555
O24_6 Zn17_3 1_555 1_555
O25_6 Zn18_3 1_555 1_555
C12_6 O34_2 1_555 1_555
C13_6 O22_6 1_555 1_555
C14_6 O24_6 1_555 1_555
C23_6 C12_6 1_555 1_555
C24_6 C13_6 1_555 1_555
C25_6 C14_6 1_555 1_555
C34_6 C23_6 1_555 1_555
C35_6 C24_6 1_555 1_555
C36_6 C23_6 1_555 1_555
H10_6 C34_6 1_555 1_555
H11_6 C36_6 1_555 1_555
H12_6 C35_6 1_555 1_555
O37_2 C12_6 1_555 1_555
O23_6 C13_6 1_555 1_555
O25_6 C14_6 1_555 1_555
C24_6 C34_6 1_555 1_555
C25_6 C35_6 1_555 1_555
C25_6 C36_6 1_555 1_555
O10_7 Zn18_3 1_555 1_555
O11_7 Zn17_3 1_555 1_555
O12_7 Zn16 1_555 1_555
O13_7 Zn15 1_555 1_555
C6_7 O26_4 1_555 1_555
C7_7 O10_7 1_555 1_555
C8_7 O12_7 1_555 1_555
C17_7 C6_7 1_555 1_555
C18_7 C7_7 1_555 1_555
C19_7 C8_7 1_555 1_555
C28_7 C17_7 1_555 1_555
C29_7 C18_7 1_555 1_555
C30_7 C17_7 1_555 1_555
H4_7 C28_7 1_555 1_555
H5_7 C30_7 1_555 1_555
H6_7 C29_7 1_555 1_555
O29_4 C6_7 1_555 1_555
O11_7 C7_7 1_555 1_555
O13_7 C8_7 1_555 1_555
C18_7 C28_7 1_555 1_555
C19_7 C29_7 1_555 1_555
C19_7 C30_7 1_555 1_555
O22_7 Zn15_4 1_555 1_555
O23_7 Zn16_4 1_555 1_555
O24_7 Zn8_2 1_555 1_555
O25_7 Zn7_2 1_555 1_555
C12_7 O28_4 1_555 1_555
C13_7 O22_7 1_555 1_555
C14_7 O24_7 1_555 1_555
C23_7 C12_7 1_555 1_555
C24_7 C13_7 1_555 1_555
C25_7 C14_7 1_555 1_555
C34_7 C23_7 1_555 1_555
C35_7 C24_7 1_555 1_555
C36_7 C23_7 1_555 1_555
H10_7 C34_7 1_555 1_555
H11_7 C36_7 1_555 1_555
H12_7 C35_7 1_555 1_555
O31_4 C12_7 1_555 1_555
O23_7 C13_7 1_555 1_555
O25_7 C14_7 1_555 1_555
C24_7 C34_7 1_555 1_555
C25_7 C35_7 1_555 1_555
C25_7 C36_7 1_555 1_555
O22_8 Zn10 1_555 1_555
O23_8 Zn9 1_555 1_555
O24_8 Zn16_3 1_555 1_555
O25_8 Zn15_3 1_555 1_555
C12_8 O34_3 1_555 1_555
C13_8 O22_8 1_555 1_555
C14_8 O24_8 1_555 1_555
C23_8 C12_8 1_555 1_555
C24_8 C13_8 1_555 1_555
C25_8 C14_8 1_555 1_555
C34_8 C23_8 1_555 1_555
C35_8 C24_8 1_555 1_555
C36_8 C23_8 1_555 1_555
H10_8 C34_8 1_555 1_555
H11_8 C36_8 1_555 1_555
H12_8 C35_8 1_555 1_555
O37_3 C12_8 1_555 1_555
O23_8 C13_8 1_555 1_555
O25_8 C14_8 1_555 1_555
C24_8 C34_8 1_555 1_555
C25_8 C35_8 1_555 1_555
C25_8 C36_8 1_555 1_555
O10_8 Zn18_2 1_555 1_555
O11_8 Zn17_2 1_555 1_555
O12_8 Zn16_4 1_555 1_555
O13_8 Zn15_4 1_555 1_555
C6_8 O32_3 1_555 1_555
C7_8 O10_8 1_555 1_555
C8_8 O12_8 1_555 1_555
C17_8 C6_8 1_555 1_555
C18_8 C7_8 1_555 1_555
C19_8 C8_8 1_555 1_555
C28_8 C17_8 1_555 1_555
C29_8 C18_8 1_555 1_555
C30_8 C17_8 1_555 1_555
H4_8 C28_8 1_555 1_555
H5_8 C30_8 1_555 1_555
H6_8 C29_8 1_555 1_555
O35_3 C6_8 1_555 1_555
O11_8 C7_8 1_555 1_555
O13_8 C8_8 1_555 1_555
C18_8 C28_8 1_555 1_555
C19_8 C29_8 1_555 1_555
C19_8 C30_8 1_555 1_555
O22_9 Zn7_3 1_555 1_555
O23_9 Zn8_3 1_555 1_555
O24_9 Zn16 1_555 1_555
O25_9 Zn15 1_555 1_555
C12_9 O28 1_555 1_555
C13_9 O22_9 1_555 1_555
C14_9 O24_9 1_555 1_555
C23_9 C12_9 1_555 1_555
C24_9 C13_9 1_555 1_555
C25_9 C14_9 1_555 1_555
C34_9 C23_9 1_555 1_555
C35_9 C24_9 1_555 1_555
C36_9 C23_9 1_555 1_555
H10_9 C34_9 1_555 1_555
H11_9 C36_9 1_555 1_555
H12_9 C35_9 1_555 1_555
O31 C12_9 1_555 1_555
O23_9 C13_9 1_555 1_555
O25_9 C14_9 1_555 1_555
C24_9 C34_9 1_555 1_555
C25_9 C35_9 1_555 1_555
C25_9 C36_9 1_555 1_555
O10_9 Zn15_3 1_555 1_555
O11_9 Zn16_3 1_555 1_555
O12_9 Zn8_2 1_555 1_555
O13_9 Zn7_2 1_555 1_555
C6_9 O26 1_555 1_555
C7_9 O10_9 1_555 1_555
C8_9 O12_9 1_555 1_555
C17_9 C6_9 1_555 1_555
C18_9 C7_9 1_555 1_555
C19_9 C8_9 1_555 1_555
C28_9 C17_9 1_555 1_555
C29_9 C18_9 1_555 1_555
C30_9 C17_9 1_555 1_555
H4_9 C28_9 1_555 1_555
H5_9 C30_9 1_555 1_555
H6_9 C29_9 1_555 1_555
O29 C6_9 1_555 1_555
O11_9 C7_9 1_555 1_555
O13_9 C8_9 1_555 1_555
C18_9 C28_9 1_555 1_555
C19_9 C29_9 1_555 1_555
C19_9 C30_9 1_555 1_555
O22_10 Zn18 1_555 1_555
O23_10 Zn17 1_555 1_555
O24_10 Zn8_3 1_555 1_555
O25_10 Zn7_3 1_555 1_555
C12_10 O34 1_555 1_555
C13_10 O22_10 1_555 1_555
C14_10 O24_10 1_555 1_555
C23_10 C12_10 1_555 1_555
C24_10 C13_10 1_555 1_555
C25_10 C14_10 1_555 1_555
C34_10 C23_10 1_555 1_555
C35_10 C24_10 1_555 1_555
C36_10 C23_10 1_555 1_555
H10_10 C34_10 1_555 1_555
H11_10 C36_10 1_555 1_555
H12_10 C35_10 1_555 1_555
O37 C12_10 1_555 1_555
O23_10 C13_10 1_555 1_555
O25_10 C14_10 1_555 1_555
C24_10 C34_10 1_555 1_555
C25_10 C35_10 1_555 1_555
C25_10 C36_10 1_555 1_555
O10_10 Zn10_2 1_555 1_555
O11_10 Zn9_2 1_555 1_555
O12_10 Zn17_3 1_555 1_555
O13_10 Zn18_3 1_555 1_555
C6_10 O32 1_555 1_555
C7_10 O10_10 1_555 1_555
C8_10 O12_10 1_555 1_555
C17_10 C6_10 1_555 1_555
C18_10 C7_10 1_555 1_555
C19_10 C8_10 1_555 1_555
C28_10 C17_10 1_555 1_555
C29_10 C18_10 1_555 1_555
C30_10 C17_10 1_555 1_555
H4_10 C28_10 1_555 1_555
H5_10 C30_10 1_555 1_555
H6_10 C29_10 1_555 1_555
O35 C6_10 1_555 1_555
O11_10 C7_10 1_555 1_555
O13_10 C8_10 1_555 1_555
C18_10 C28_10 1_555 1_555
C19_10 C29_10 1_555 1_555
C19_10 C30_10 1_555 1_555
O22_11 Zn18_3 1_555 1_555
O23_11 Zn17_3 1_555 1_555
O24_11 Zn8 1_555 1_555
O25_11 Zn7 1_555 1_555
C12_11 O28_2 1_555 1_555
C13_11 O22_11 1_555 1_555
C14_11 O24_11 1_555 1_555
C23_11 C12_11 1_555 1_555
C24_11 C13_11 1_555 1_555
C25_11 C14_11 1_555 1_555
C34_11 C23_11 1_555 1_555
C35_11 C24_11 1_555 1_555
C36_11 C23_11 1_555 1_555
H10_11 C34_11 1_555 1_555
H11_11 C36_11 1_555 1_555
H12_11 C35_11 1_555 1_555
O31_2 C12_11 1_555 1_555
O23_11 C13_11 1_555 1_555
O25_11 C14_11 1_555 1_555
C24_11 C34_11 1_555 1_555
C25_11 C35_11 1_555 1_555
C25_11 C36_11 1_555 1_555
O10_11 Zn15_4 1_555 1_555
O11_11 Zn16_4 1_555 1_555
O12_11 Zn16_2 1_555 1_555
O13_11 Zn15_2 1_555 1_555
C6_11 O26_2 1_555 1_555
C7_11 O10_11 1_555 1_555
C8_11 O12_11 1_555 1_555
C17_11 C6_11 1_555 1_555
C18_11 C7_11 1_555 1_555
C19_11 C8_11 1_555 1_555
C28_11 C17_11 1_555 1_555
C29_11 C18_11 1_555 1_555
C30_11 C17_11 1_555 1_555
H4_11 C28_11 1_555 1_555
H5_11 C30_11 1_555 1_555
H6_11 C29_11 1_555 1_555
O29_2 C6_11 1_555 1_555
O11_11 C7_11 1_555 1_555
O13_11 C8_11 1_555 1_555
C18_11 C28_11 1_555 1_555
C19_11 C29_11 1_555 1_555
C19_11 C30_11 1_555 1_555
O10_12 Zn18 1_555 1_555
O11_12 Zn17 1_555 1_555
O12_12 Zn16_3 1_555 1_555
O13_12 Zn15_3 1_555 1_555
C6_12 O32_4 1_555 1_555
C7_12 O10_12 1_555 1_555
C8_12 O12_12 1_555 1_555
C17_12 C6_12 1_555 1_555
C18_12 C7_12 1_555 1_555
C19_12 C8_12 1_555 1_555
C28_12 C17_12 1_555 1_555
C29_12 C18_12 1_555 1_555
C30_12 C17_12 1_555 1_555
H4_12 C28_12 1_555 1_555
H5_12 C30_12 1_555 1_555
H6_12 C29_12 1_555 1_555
O35_4 C6_12 1_555 1_555
O11_12 C7_12 1_555 1_555
O13_12 C8_12 1_555 1_555
C18_12 C28_12 1_555 1_555
C19_12 C29_12 1_555 1_555
C19_12 C30_12 1_555 1_555
O22_12 Zn10_2 1_555 1_555
O23_12 Zn9_2 1_555 1_555
O24_12 Zn16_4 1_555 1_555
O25_12 Zn15_4 1_555 1_555
C12_12 O34_4 1_555 1_555
C13_12 O22_12 1_555 1_555
C14_12 O24_12 1_555 1_555
C23_12 C12_12 1_555 1_555
C24_12 C13_12 1_555 1_555
C25_12 C14_12 1_555 1_555
C34_12 C23_12 1_555 1_555
C35_12 C24_12 1_555 1_555
C36_12 C23_12 1_555 1_555
H10_12 C34_12 1_555 1_555
H11_12 C36_12 1_555 1_555
H12_12 C35_12 1_555 1_555
O37_4 C12_12 1_555 1_555
O23_12 C13_12 1_555 1_555
O25_12 C14_12 1_555 1_555
C24_12 C34_12 1_555 1_555
C25_12 C35_12 1_555 1_555
C25_12 C36_12 1_555 1_555
Zn15_3 O2_9 1_555 1_555
Zn9 O39_9 1_555 1_555
Zn10 O40_9 1_555 1_555
O38_9 Zn16_3 1_555 1_555
Zn15_4 O2_10 1_555 1_555
Zn9_2 O39_10 1_555 1_555
Zn10_2 O40_10 1_555 1_555
O38_10 Zn16_4 1_555 1_555
Zn7_3 O2_11 1_555 1_555
Zn17 O39_11 1_555 1_555
Zn18 O40_11 1_555 1_555
O38_11 Zn8_3 1_555 1_555
Zn18_3 O2_12 1_555 1_555
Zn17_2 O39_12 1_555 1_555
Zn18_2 O40_12 1_555 1_555
O38_12 Zn17_3 1_555 1_555
Zn8_2 O41_9 1_555 1_555
Zn7_2 O42_9 1_555 1_555
Zn16_2 O41_10 1_555 1_555
Zn15_2 O42_10 1_555 1_555
Zn8 O41_11 1_555 1_555
Zn7 O42_11 1_555 1_555
Zn16 O41_12 1_555 1_555
Zn15 O42_12 1_555 1_555

#END
