
###############################################################################
#
# This file contains modified crystal structure data generated from the
# MOF subset of the Cambridge Structural Database (CSD) v543 
# hosted by the Cambridge Crystallographic Data Centre (CCDC).
#
# This work is licensed under the Creative Commons
# Attribution-NonCommercial-ShareAlike 4.0 International License.
# To view a copy of this license, visit
# http://creativecommons.org/licenses/by-nc-sa/4.0/
# or send a letter to
# Creative Commons, PO Box 1866, Mountain View, CA 94042, USA.
#
# CIF created using the CSD Python API on 29 September 2022
# The structure has been converted into the P1 space group
# The structure has a 3D framework
# The original CSD entry RIFLUP is in the orthorhombic crystal system
# The framework has been calculated to contain at least 10.0% void space
# The void calculation uses a probe of radius 1.32A, grid spacing 0.4
# The framework is charged, counterions have been retained in the structure
#
###############################################################################

data_RIFLUP
_chemical_formula_moiety         '(C528 H416 N80 Ni8 O64 Tb8 8+)n'
_symmetry_cell_setting           triclinic
_symmetry_space_group_name_H-M   'P 1'
_symmetry_Int_Tables_number      1
_space_group_name_Hall           'P 1'
loop_
_symmetry_equiv_pos_site_id
_symmetry_equiv_pos_as_xyz
1 x,y,z
_cell_length_a                   33.523
_cell_length_b                   21.280
_cell_length_c                   30.021
_cell_angle_alpha                90
_cell_angle_beta                 90
_cell_angle_gamma                90
_cell_volume                     21416.1
loop_
_atom_site_label
_atom_site_type_symbol
_atom_site_fract_x
_atom_site_fract_y
_atom_site_fract_z
Tb1 Tb 0.613432(10) 0.177916(15) 0.200322(10)
C1 C 0.5742(3) 0.1527(4) 0.1214(3)
C2 C 0.5515(3) 0.1409(4) 0.0766(3)
C3 C 0.5158(3) 0.1040(4) 0.0780(4)
H1 H 0.5057 0.0875 0.1043
C4 C 0.4967(3) 0.0943(5) 0.0351(5)
H2 H 0.4735 0.0704 0.0346
C7 C 0.5651(3) 0.1641(4) 0.0374(4)
H4 H 0.5884 0.1876 0.0357
H11 H 0.2671 0.2868 0.0093
H12 H 0.2011 0.2568 0.0198
C35 C 0.3175(4) 0.4929(6) 0.0194(4)
H23 H 0.3140 0.5020 0.0495
C36 C 0.3369(3) 0.4392(5) 0.0076(3)
H24 H 0.3499 0.4143 0.0286
C37 C 0.4145(3) 0.3393(4) 0.0205(4)
C38 C 0.3642(5) 0.2959(7) 0.0627(4)
C39 C 0.3865(5) 0.3349(7) 0.0893(6)
C40 C 0.3803(5) 0.3490(6) 0.1327(6)
H25 H 0.3946 0.3778 0.1497
C41 C 0.3488(6) 0.3124(8) 0.1467(5)
H26 H 0.3447 0.3125 0.1774
C42 C 0.3220(4) 0.2755(9) 0.1229(6)
H27 H 0.2985 0.2607 0.1354
C43 C 0.3324(4) 0.2624(6) 0.0798(6)
H28 H 0.3188 0.2326 0.0630
C44 C 0.4470(3) 0.4102(4) 0.0773(3)
H29 H 0.4330 0.4460 0.0899
H30 H 0.4615 0.4246 0.0513
C45 C 0.4768(3) 0.3835(5) 0.1122(3)
C46 C 0.4838(3) 0.4179(4) 0.1488(4)
H31 H 0.4712 0.4566 0.1523
C47 C 0.5102(3) 0.3956(5) 0.1825(3)
H32 H 0.5148 0.4191 0.2081
C48 C 0.5290(3) 0.3381(5) 0.1763(3)
C49 C 0.5228(2) 0.3058(4) 0.1380(3)
H33 H 0.5366 0.2687 0.1328
C50 C 0.4959(3) 0.3280(5) 0.1066(3)
H34 H 0.4909 0.3042 0.0812
C51 C 0.5601(2) 0.3150(4) 0.2078(3)
N7 N 0.3821(3) 0.2998(3) 0.0203(3)
N8 N 0.4178(3) 0.3618(4) 0.0640(4)
O1 O 0.56164(16) 0.1287(3) 0.15622(17)
O2 O 0.60335(15) 0.1878(3) 0.11836(15)
O6 O 0.56515(14) 0.3475(2) 0.24248(15)
O8 O 0.57457(13) 0.2651(2) 0.19995(17)
Tb2 Tb 0.613432(10) 0.322084(15) 0.299678(10)
O9 O 0.66542(13) 0.1094(2) 0.16926(13)
O10 O 0.62353(17) 0.0648(2) 0.21389(16)
O11 O 0.65327(13) 0.1823(2) 0.26133(13)
O12 O 0.56515(14) 0.1525(2) 0.25752(15)
O13 O 0.66272(13) 0.2548(2) 0.18043(13)
Ni1 Ni 0.37013(3) 0.27868(5) 0.95234(3)
C5 C 0.5098(4) 0.1169(6) 0.9968(4)
C6 C 0.5419(4) 0.1505(5) 0.9995(4)
H3 H 0.5509 0.1679 0.9729
C8 C 0.4859(3) 0.1039(4) 0.9578(3)
H5 H 0.4876 0.0593 0.9515
H6 H 0.4975 0.1260 0.9327
C9 C 0.4304(3) 0.1790(7) 0.9583(3)
C10 C 0.3760(3) 0.1225(3) 0.9621(2)
C11 C 0.4099(2) 0.0848(5) 0.9621(3)
C12 C 0.4061(3) 0.0198(5) 0.9629(3)
C14 C 0.3346(3) 0.0301(5) 0.9638(3)
H9 H 0.3094 0.0118 0.9643
C15 C 0.3384(2) 0.0952(5) 0.9630(2)
H10 H 0.3157 0.1204 0.9630
C16 C 0.3136(3) 0.2268(4) 0.8944(5)
C17 C 0.2727(4) 0.2409(4) 0.9495(4)
C18 C 0.2515(4) 0.2122(4) 0.9140(5)
C19 C 0.2536(4) 0.2629(4) 0.9882(4)
C20 C 0.2142(4) 0.2474(6) 0.9933(4)
C21 C 0.1938(5) 0.2179(7) 0.9592(5)
H13 H 0.1668 0.2103 0.9634
C22 C 0.2103(5) 0.1989(5) 0.9199(5)
H14 H 0.1955 0.1784 0.8982
C23 C 0.3083(2) 0.4523(3) 0.8453(2)
H15 H 0.3281 0.4455 0.8222
H16 H 0.3011 0.4964 0.8450
C24 C 0.2716(2) 0.4131(3) 0.8351(3)
C25 C 0.2546(2) 0.3721(4) 0.8656(2)
H17 H 0.2642 0.3702 0.8946
C26 C 0.2237(2) 0.3344(3) 0.8526(2)
H18 H 0.2141 0.3037 0.8719
C27 C 0.2065(2) 0.3415(3) 0.8112(3)
C28 C 0.2232(2) 0.3840(3) 0.7813(2)
H19 H 0.2124 0.3879 0.7529
C29 C 0.2556(2) 0.4207(3) 0.7931(2)
H20 H 0.2663 0.4497 0.7732
C30 C 0.3469(2) 0.3827(5) 0.8969(3)
C31 C 0.3365(2) 0.4231(4) 0.9620(4)
C32 C 0.3192(3) 0.4639(5) 0.9314(4)
C33 C 0.3016(3) 0.5207(5) 0.9430(5)
H21 H 0.2900 0.5481 0.9226
C34 C 0.3035(3) 0.5321(5) 0.9895(5)
H22 H 0.2940 0.5706 0.9997
C52 C 0.4556(3) 0.2376(5) 0.9616(3)
H35 H 0.4789 0.2326 0.9428
H36 H 0.4648 0.2421 0.9921
C53 C 0.4398(2) 0.3503(4) 0.9805(3)
H37 H 0.4325 0.3899 0.9666
H38 H 0.4676 0.3525 0.9891
C54 C 0.4411(2) 0.3167(5) 0.8996(3)
H39 H 0.4311 0.3588 0.8944
H40 H 0.4694 0.3161 0.8931
C55 C 0.4191(3) 0.2694(5) 0.8701(3)
H41 H 0.4241 0.2781 0.8389
H42 H 0.4278 0.2269 0.8767
C56 C 0.3590(2) 0.3353(4) 0.8626(2)
H43 H 0.3358 0.3248 0.8447
H44 H 0.3785 0.3545 0.8430
C57 C 0.3509(3) 0.2230(4) 0.8662(3)
H45 H 0.3648 0.1836 0.8712
H46 H 0.3444 0.2264 0.8348
C60 C 0.3345(3) 0.0450(6) 0.7901(3)
H47 H 0.3517 0.0386 0.7663
C61 C 0.3158(4) 0.1037(6) 0.7948(3)
H48 H 0.3208 0.1360 0.7747
C62 C 0.2905(3) 0.1120(4) 0.8291(4)
C63 C 0.2846(3) 0.0648(6) 0.8587(4)
H49 H 0.2680 0.0707 0.8832
C64 C 0.3035(3) 0.0073(4) 0.8519(4)
C65 C 0.1713(2) 0.3021(3) 0.7958(3)
N1 N 0.3918(2) 0.1875(3) 0.9592(2)
N2 N 0.4438(3) 0.1210(5) 0.9608(3)
N3 N 0.3121(3) 0.2490(3) 0.9356(3)
N4 N 0.2781(4) 0.2027(3) 0.8800(3)
N5 N 0.3260(2) 0.4365(4) 0.8891(3)
N6 N 0.35346(18) 0.3724(3) 0.9410(3)
N9 N 0.43367(19) 0.2974(3) 0.9480(3)
N10 N 0.3759(2) 0.2770(4) 0.88061(19)
O5 O 0.15327(13) 0.3177(2) 0.76133(13)
O7 O 0.16272(13) 0.2548(2) 0.81957(13)
C66 C 0.2680(2) 0.1760(4) 0.8377(3)
H51 H 0.2394 0.1688 0.8366
H52 H 0.2748 0.2056 0.8144
Tb4 Tb 0.113432(10) 0.177916(15) 0.799678(10)
Tb5 Tb 0.113432(10) 0.322084(15) 0.700322(10)
H7 H 0.4287 0.9945 0.9629
C13 C 0.3684(4) 0.9924(3) 0.9638(3)
H8 H 0.3659 0.9489 0.9643
C58 C 0.3474(3) 0.9397(4) 0.8102(3)
C59 C 0.3282(3) 0.9989(5) 0.8185(3)
H50 H 0.2985 0.9743 0.8714
O3 O 0.33458(13) 0.8906(2) 0.83074(13)
O4 O 0.37647(17) 0.9352(2) 0.78611(16)
Tb3 Tb 0.386568(10) 0.822084(15) 0.799678(10)
H7_2 H 0.0713 0.0055 0.9629
C13_2 C 0.1316(4) 0.0076(3) 0.9638(3)
H8_2 H 0.1341 0.0511 0.9643
C58_2 C 0.1526(3) 0.0603(4) 0.8102(3)
C59_2 C 0.1718(3) 0.0011(5) 0.8185(3)
H50_2 H 0.2015 0.0257 0.8714
O3_2 O 0.16542(13) 0.1094(2) 0.83074(13)
O4_2 O 0.12353(17) 0.0648(2) 0.78611(16)
Ni1_2 Ni 0.12987(3) 0.72132(5) 0.95234(3)
C8_2 C 0.0141(3) 0.8961(4) 0.9578(3)
H5_2 H 0.0124 0.9407 0.9515
H6_2 H 0.0025 0.8740 0.9327
C9_2 C 0.0696(3) 0.8210(7) 0.9583(3)
C10_2 C 0.1240(3) 0.8775(3) 0.9621(2)
C11_2 C 0.0901(2) 0.9152(5) 0.9621(3)
C12_2 C 0.0939(3) 0.9802(5) 0.9629(3)
C14_2 C 0.1654(3) 0.9699(5) 0.9638(3)
H9_2 H 0.1906 0.9882 0.9643
C15_2 C 0.1616(2) 0.9048(5) 0.9630(2)
H10_2 H 0.1843 0.8796 0.9630
C16_2 C 0.1864(3) 0.7732(4) 0.8944(5)
C17_2 C 0.2273(4) 0.7591(4) 0.9495(4)
C18_2 C 0.2485(4) 0.7878(4) 0.9140(5)
C19_2 C 0.2464(4) 0.7371(4) 0.9882(4)
C20_2 C 0.2858(4) 0.7526(6) 0.9933(4)
C21_2 C 0.3062(5) 0.7821(7) 0.9592(5)
H13_2 H 0.3332 0.7897 0.9634
C22_2 C 0.2897(5) 0.8011(5) 0.9199(5)
H14_2 H 0.3045 0.8216 0.8982
C23_2 C 0.1917(2) 0.5477(3) 0.8453(2)
H15_2 H 0.1719 0.5545 0.8222
H16_2 H 0.1989 0.5036 0.8450
C24_2 C 0.2284(2) 0.5869(3) 0.8351(3)
C25_2 C 0.2454(2) 0.6279(4) 0.8656(2)
H17_2 H 0.2358 0.6298 0.8946
C26_2 C 0.2763(2) 0.6656(3) 0.8526(2)
H18_2 H 0.2859 0.6963 0.8719
C27_2 C 0.2935(2) 0.6585(3) 0.8112(3)
C28_2 C 0.2768(2) 0.6160(3) 0.7813(2)
H19_2 H 0.2876 0.6121 0.7529
C29_2 C 0.2444(2) 0.5793(3) 0.7931(2)
H20_2 H 0.2337 0.5503 0.7732
C30_2 C 0.1531(2) 0.6173(5) 0.8969(3)
C31_2 C 0.1635(2) 0.5769(4) 0.9620(4)
C32_2 C 0.1808(3) 0.5361(5) 0.9314(4)
C33_2 C 0.1984(3) 0.4793(5) 0.9430(5)
H21_2 H 0.2100 0.4519 0.9226
C34_2 C 0.1965(3) 0.4679(5) 0.9895(5)
H22_2 H 0.2060 0.4294 0.9997
C52_2 C 0.0444(3) 0.7624(5) 0.9616(3)
H35_2 H 0.0211 0.7674 0.9428
H36_2 H 0.0352 0.7579 0.9921
C53_2 C 0.0602(2) 0.6497(4) 0.9805(3)
H37_2 H 0.0675 0.6101 0.9666
H38_2 H 0.0324 0.6475 0.9891
C54_2 C 0.0589(2) 0.6833(5) 0.8996(3)
H39_2 H 0.0689 0.6412 0.8944
H40_2 H 0.0306 0.6839 0.8931
C55_2 C 0.0809(3) 0.7306(5) 0.8701(3)
H41_2 H 0.0759 0.7219 0.8389
H42_2 H 0.0722 0.7731 0.8767
C56_2 C 0.1410(2) 0.6647(4) 0.8626(2)
H43_2 H 0.1642 0.6752 0.8447
H44_2 H 0.1215 0.6455 0.8430
C57_2 C 0.1491(3) 0.7770(4) 0.8662(3)
H45_2 H 0.1352 0.8164 0.8712
H46_2 H 0.1556 0.7736 0.8348
C60_2 C 0.1655(3) 0.9550(6) 0.7901(3)
H47_2 H 0.1483 0.9614 0.7663
C61_2 C 0.1842(4) 0.8963(6) 0.7948(3)
H48_2 H 0.1792 0.8640 0.7747
C62_2 C 0.2095(3) 0.8880(4) 0.8291(4)
C63_2 C 0.2154(3) 0.9352(6) 0.8587(4)
H49_2 H 0.2320 0.9293 0.8832
C64_2 C 0.1965(3) 0.9927(4) 0.8519(4)
C65_2 C 0.3287(2) 0.6979(3) 0.7958(3)
N1_2 N 0.1082(2) 0.8125(3) 0.9592(2)
N2_2 N 0.0562(3) 0.8790(5) 0.9608(3)
N3_2 N 0.1879(3) 0.7510(3) 0.9356(3)
N4_2 N 0.2219(4) 0.7973(3) 0.8800(3)
N5_2 N 0.1740(2) 0.5635(4) 0.8891(3)
N6_2 N 0.14654(18) 0.6276(3) 0.9410(3)
N9_2 N 0.06633(19) 0.7026(3) 0.9480(3)
N10_2 N 0.1241(2) 0.7230(4) 0.88061(19)
O5_2 O 0.34673(13) 0.6823(2) 0.76133(13)
O7_2 O 0.33728(13) 0.7452(2) 0.81957(13)
C66_2 C 0.2320(2) 0.8240(4) 0.8377(3)
H51_2 H 0.2606 0.8312 0.8366
H52_2 H 0.2252 0.7944 0.8144
Tb5_2 Tb 0.386568(10) 0.677916(15) 0.700322(10)
Tb1_2 Tb 0.886568(10) 0.822084(15) 0.200322(10)
C1_2 C 0.9258(3) 0.8473(4) 0.1214(3)
C2_2 C 0.9485(3) 0.8591(4) 0.0766(3)
C3_2 C 0.9842(3) 0.8960(4) 0.0780(4)
H1_2 H 0.9943 0.9125 0.1043
C7_2 C 0.9349(3) 0.8359(4) 0.0374(4)
H4_2 H 0.9116 0.8124 0.0357
C47_2 C 0.9898(3) 0.6044(5) 0.1825(3)
H32_2 H 0.9852 0.5809 0.2081
C48_2 C 0.9710(3) 0.6619(5) 0.1763(3)
C49_2 C 0.9772(2) 0.6942(4) 0.1380(3)
H33_2 H 0.9634 0.7313 0.1328
C51_2 C 0.9399(2) 0.6850(4) 0.2078(3)
O1_2 O 0.93836(16) 0.8713(3) 0.15622(17)
O2_2 O 0.89665(15) 0.8122(3) 0.11836(15)
O6_2 O 0.93485(14) 0.6525(2) 0.24248(15)
O8_2 O 0.92543(13) 0.7349(2) 0.19995(17)
Tb2_2 Tb 0.886568(10) 0.677916(15) 0.299678(10)
O9_2 O 0.83458(13) 0.8906(2) 0.16926(13)
O10_2 O 0.87647(17) 0.9352(2) 0.21389(16)
O11_2 O 0.84673(13) 0.8177(2) 0.26133(13)
O12_2 O 0.93485(14) 0.8475(2) 0.25752(15)
O13_2 O 0.83728(13) 0.7452(2) 0.18043(13)
Ni1_3 Ni 0.37013(3) 0.22132(5) 0.54766(3)
C1_3 C 0.5742(3) 0.3473(4) 0.3786(3)
C2_3 C 0.5515(3) 0.3591(4) 0.4234(3)
C3_3 C 0.5158(3) 0.3960(4) 0.4220(4)
H1_3 H 0.5057 0.4125 0.3957
C4_2 C 0.4967(3) 0.4057(5) 0.4649(5)
H2_2 H 0.4735 0.4296 0.4654
C5_2 C 0.5098(4) 0.3831(6) 0.5032(4)
C6_2 C 0.5419(4) 0.3495(5) 0.5005(4)
H3_2 H 0.5509 0.3321 0.5271
C7_3 C 0.5651(3) 0.3359(4) 0.4626(4)
H4_3 H 0.5884 0.3124 0.4643
C8_3 C 0.4859(3) 0.3961(4) 0.5422(3)
H5_3 H 0.4876 0.4407 0.5485
H6_3 H 0.4975 0.3740 0.5673
C9_3 C 0.4304(3) 0.3210(7) 0.5417(3)
C10_3 C 0.3760(3) 0.3775(3) 0.5379(2)
C11_3 C 0.4099(2) 0.4152(5) 0.5379(3)
C12_3 C 0.4061(3) 0.4802(5) 0.5371(3)
H7_3 H 0.4287 0.5055 0.5371
C13_3 C 0.3684(4) 0.5076(3) 0.5362(3)
H8_3 H 0.3659 0.5511 0.5357
C14_3 C 0.3346(3) 0.4699(5) 0.5362(3)
H9_3 H 0.3094 0.4882 0.5357
C15_3 C 0.3384(2) 0.4048(5) 0.5370(2)
H10_3 H 0.3157 0.3796 0.5370
C16_3 C 0.3136(3) 0.2732(4) 0.6056(5)
C17_3 C 0.2727(4) 0.2591(4) 0.5505(4)
C18_3 C 0.2515(4) 0.2878(4) 0.5860(5)
C19_3 C 0.2536(4) 0.2371(4) 0.5118(4)
H11_2 H 0.2671 0.2132 0.4907
C20_3 C 0.2142(4) 0.2526(6) 0.5067(4)
H12_2 H 0.2011 0.2432 0.4802
C21_3 C 0.1938(5) 0.2821(7) 0.5408(5)
H13_3 H 0.1668 0.2897 0.5366
C22_3 C 0.2103(5) 0.3011(5) 0.5801(5)
H14_3 H 0.1955 0.3216 0.6018
C23_3 C 0.3083(2) 0.0477(3) 0.6547(2)
H15_3 H 0.3281 0.0545 0.6778
H16_3 H 0.3011 0.0036 0.6550
C24_3 C 0.2716(2) 0.0869(3) 0.6649(3)
C25_3 C 0.2546(2) 0.1279(4) 0.6344(2)
H17_3 H 0.2642 0.1298 0.6054
C26_3 C 0.2237(2) 0.1656(3) 0.6474(2)
H18_3 H 0.2141 0.1963 0.6281
C27_3 C 0.2065(2) 0.1585(3) 0.6888(3)
C28_3 C 0.2232(2) 0.1160(3) 0.7187(2)
H19_3 H 0.2124 0.1121 0.7471
C29_3 C 0.2556(2) 0.0793(3) 0.7069(2)
H20_3 H 0.2663 0.0503 0.7268
C30_3 C 0.3469(2) 0.1173(5) 0.6031(3)
C31_3 C 0.3365(2) 0.0769(4) 0.5380(4)
C32_3 C 0.3192(3) 0.0361(5) 0.5686(4)
C35_2 C 0.3175(4) 0.0071(6) 0.4806(4)
C36_2 C 0.3369(3) 0.0608(5) 0.4924(3)
H24_2 H 0.3499 0.0857 0.4714
C37_2 C 0.4145(3) 0.1607(4) 0.4795(4)
C38_2 C 0.3642(5) 0.2041(7) 0.4373(4)
C39_2 C 0.3865(5) 0.1651(7) 0.4107(6)
C40_2 C 0.3803(5) 0.1510(6) 0.3673(6)
H25_2 H 0.3946 0.1222 0.3503
C41_2 C 0.3488(6) 0.1876(8) 0.3533(5)
H26_2 H 0.3447 0.1875 0.3226
C42_2 C 0.3220(4) 0.2245(9) 0.3771(6)
H27_2 H 0.2985 0.2393 0.3646
C43_2 C 0.3324(4) 0.2376(6) 0.4202(6)
H28_2 H 0.3188 0.2674 0.4370
C44_2 C 0.4470(3) 0.0898(4) 0.4227(3)
H29_2 H 0.4330 0.0540 0.4101
H30_2 H 0.4615 0.0754 0.4487
C45_2 C 0.4768(3) 0.1165(5) 0.3878(3)
C46_2 C 0.4838(3) 0.0821(4) 0.3512(4)
H31_2 H 0.4712 0.0434 0.3477
C47_3 C 0.5102(3) 0.1044(5) 0.3175(3)
H32_3 H 0.5148 0.0809 0.2919
C48_3 C 0.5290(3) 0.1619(5) 0.3237(3)
C49_3 C 0.5228(2) 0.1942(4) 0.3620(3)
H33_3 H 0.5366 0.2313 0.3672
C50_2 C 0.4959(3) 0.1720(5) 0.3934(3)
H34_2 H 0.4909 0.1958 0.4188
C51_3 C 0.5601(2) 0.1850(4) 0.2922(3)
C52_3 C 0.4556(3) 0.2624(5) 0.5384(3)
H35_3 H 0.4789 0.2674 0.5572
H36_3 H 0.4648 0.2579 0.5079
C53_3 C 0.4398(2) 0.1497(4) 0.5195(3)
H37_3 H 0.4325 0.1101 0.5334
H38_3 H 0.4676 0.1475 0.5109
C54_3 C 0.4411(2) 0.1833(5) 0.6004(3)
H39_3 H 0.4311 0.1412 0.6056
H40_3 H 0.4694 0.1839 0.6069
C55_3 C 0.4191(3) 0.2306(5) 0.6299(3)
H41_3 H 0.4241 0.2219 0.6611
H42_3 H 0.4278 0.2731 0.6233
C56_3 C 0.3590(2) 0.1647(4) 0.6374(2)
H43_3 H 0.3358 0.1752 0.6553
H44_3 H 0.3785 0.1455 0.6570
C57_3 C 0.3509(3) 0.2770(4) 0.6338(3)
H45_3 H 0.3648 0.3164 0.6288
H46_3 H 0.3444 0.2736 0.6652
C58_3 C 0.3474(3) 0.5603(4) 0.6898(3)
C59_3 C 0.3282(3) 0.5011(5) 0.6815(3)
C60_3 C 0.3345(3) 0.4550(6) 0.7099(3)
H47_3 H 0.3517 0.4614 0.7337
C61_3 C 0.3158(4) 0.3963(6) 0.7052(3)
H48_3 H 0.3208 0.3640 0.7253
C62_3 C 0.2905(3) 0.3880(4) 0.6709(4)
C63_3 C 0.2846(3) 0.4352(6) 0.6413(4)
H49_3 H 0.2680 0.4293 0.6168
C64_3 C 0.3035(3) 0.4927(4) 0.6481(4)
H50_3 H 0.2985 0.5257 0.6286
C65_3 C 0.1713(2) 0.1979(3) 0.7042(3)
N1_3 N 0.3918(2) 0.3125(3) 0.5408(2)
N2_3 N 0.4438(3) 0.3790(5) 0.5392(3)
N3_3 N 0.3121(3) 0.2510(3) 0.5644(3)
N4_3 N 0.2781(4) 0.2973(3) 0.6200(3)
N5_3 N 0.3260(2) 0.0635(4) 0.6109(3)
N6_3 N 0.35346(18) 0.1276(3) 0.5590(3)
N7_2 N 0.3821(3) 0.2002(3) 0.4797(3)
N8_2 N 0.4178(3) 0.1382(4) 0.4360(4)
N9_3 N 0.43367(19) 0.2026(3) 0.5520(3)
N10_3 N 0.3759(2) 0.2230(4) 0.61939(19)
O1_3 O 0.56164(16) 0.3713(3) 0.34378(17)
O2_3 O 0.60335(15) 0.3122(3) 0.38164(15)
O3_3 O 0.33458(13) 0.6094(2) 0.66926(13)
O4_3 O 0.37647(17) 0.5648(2) 0.71389(16)
O5_3 O 0.15327(13) 0.1823(2) 0.73867(13)
O7_3 O 0.16272(13) 0.2452(2) 0.68043(13)
O8_3 O 0.57457(13) 0.2349(2) 0.30005(17)
C66_3 C 0.2680(2) 0.3240(4) 0.6623(3)
H51_3 H 0.2394 0.3312 0.6634
H52_3 H 0.2748 0.2944 0.6856
O9_3 O 0.66542(13) 0.3906(2) 0.33074(13)
O10_3 O 0.62353(17) 0.4352(2) 0.28611(16)
O11_3 O 0.65327(13) 0.3177(2) 0.23867(13)
O13_3 O 0.66272(13) 0.2452(2) 0.31957(13)
Ni1_4 Ni 0.12987(3) 0.77868(5) 0.54766(3)
C4_3 C 0.0033(3) 0.5943(5) 0.4649(5)
H2_3 H 0.0265 0.5704 0.4654
C8_4 C 0.0141(3) 0.6039(4) 0.5422(3)
H5_4 H 0.0124 0.5593 0.5485
H6_4 H 0.0025 0.6260 0.5673
C9_4 C 0.0696(3) 0.6790(7) 0.5417(3)
C10_4 C 0.1240(3) 0.6225(3) 0.5379(2)
C11_4 C 0.0901(2) 0.5848(5) 0.5379(3)
C12_4 C 0.0939(3) 0.5198(5) 0.5371(3)
H7_4 H 0.0713 0.4945 0.5371
C13_4 C 0.1316(4) 0.4924(3) 0.5362(3)
H8_4 H 0.1341 0.4489 0.5357
C14_4 C 0.1654(3) 0.5301(5) 0.5362(3)
H9_4 H 0.1906 0.5118 0.5357
C15_4 C 0.1616(2) 0.5952(5) 0.5370(2)
H10_4 H 0.1843 0.6204 0.5370
C16_4 C 0.1864(3) 0.7268(4) 0.6056(5)
C17_4 C 0.2273(4) 0.7409(4) 0.5505(4)
C18_4 C 0.2485(4) 0.7122(4) 0.5860(5)
C19_4 C 0.2464(4) 0.7629(4) 0.5118(4)
H11_3 H 0.2329 0.7868 0.4907
C20_4 C 0.2858(4) 0.7474(6) 0.5067(4)
H12_3 H 0.2989 0.7568 0.4802
C21_4 C 0.3062(5) 0.7179(7) 0.5408(5)
H13_4 H 0.3332 0.7103 0.5366
C22_4 C 0.2897(5) 0.6989(5) 0.5801(5)
H14_4 H 0.3045 0.6784 0.6018
C23_4 C 0.1917(2) 0.9523(3) 0.6547(2)
H15_4 H 0.1719 0.9455 0.6778
H16_4 H 0.1989 0.9964 0.6550
C24_4 C 0.2284(2) 0.9131(3) 0.6649(3)
C25_4 C 0.2454(2) 0.8721(4) 0.6344(2)
H17_4 H 0.2358 0.8702 0.6054
C26_4 C 0.2763(2) 0.8344(3) 0.6474(2)
H18_4 H 0.2859 0.8037 0.6281
C27_4 C 0.2935(2) 0.8415(3) 0.6888(3)
C28_4 C 0.2768(2) 0.8840(3) 0.7187(2)
H19_4 H 0.2876 0.8879 0.7471
C29_4 C 0.2444(2) 0.9207(3) 0.7069(2)
H20_4 H 0.2337 0.9497 0.7268
C30_4 C 0.1531(2) 0.8827(5) 0.6031(3)
C31_4 C 0.1635(2) 0.9231(4) 0.5380(4)
C32_4 C 0.1808(3) 0.9639(5) 0.5686(4)
C35_3 C 0.1825(4) 0.9929(6) 0.4806(4)
C36_3 C 0.1631(3) 0.9392(5) 0.4924(3)
H24_3 H 0.1501 0.9143 0.4714
C37_3 C 0.0855(3) 0.8393(4) 0.4795(4)
C38_3 C 0.1358(5) 0.7959(7) 0.4373(4)
C39_3 C 0.1135(5) 0.8349(7) 0.4107(6)
C40_3 C 0.1197(5) 0.8490(6) 0.3673(6)
H25_3 H 0.1054 0.8778 0.3503
C41_3 C 0.1512(6) 0.8124(8) 0.3533(5)
H26_3 H 0.1553 0.8125 0.3226
C42_3 C 0.1780(4) 0.7755(9) 0.3771(6)
H27_3 H 0.2015 0.7607 0.3646
C43_3 C 0.1676(4) 0.7624(6) 0.4202(6)
H28_3 H 0.1812 0.7326 0.4370
C44_3 C 0.0530(3) 0.9102(4) 0.4227(3)
H29_3 H 0.0670 0.9460 0.4101
H30_3 H 0.0385 0.9246 0.4487
C45_3 C 0.0232(3) 0.8835(5) 0.3878(3)
C46_3 C 0.0162(3) 0.9179(4) 0.3512(4)
H31_3 H 0.0288 0.9566 0.3477
C50_3 C 0.0041(3) 0.8280(5) 0.3934(3)
H34_3 H 0.0091 0.8042 0.4188
C52_4 C 0.0444(3) 0.7376(5) 0.5384(3)
H35_4 H 0.0211 0.7326 0.5572
H36_4 H 0.0352 0.7421 0.5079
C53_4 C 0.0602(2) 0.8503(4) 0.5195(3)
H37_4 H 0.0675 0.8899 0.5334
H38_4 H 0.0324 0.8525 0.5109
C54_4 C 0.0589(2) 0.8167(5) 0.6004(3)
H39_4 H 0.0689 0.8588 0.6056
H40_4 H 0.0306 0.8161 0.6069
C55_4 C 0.0809(3) 0.7694(5) 0.6299(3)
H41_4 H 0.0759 0.7781 0.6611
H42_4 H 0.0722 0.7269 0.6233
C56_4 C 0.1410(2) 0.8353(4) 0.6374(2)
H43_4 H 0.1642 0.8248 0.6553
H44_4 H 0.1215 0.8545 0.6570
C57_4 C 0.1491(3) 0.7230(4) 0.6338(3)
H45_4 H 0.1352 0.6836 0.6288
H46_4 H 0.1556 0.7264 0.6652
C58_4 C 0.1526(3) 0.4397(4) 0.6898(3)
C59_4 C 0.1718(3) 0.4989(5) 0.6815(3)
C60_4 C 0.1655(3) 0.5450(6) 0.7099(3)
H47_4 H 0.1483 0.5386 0.7337
C61_4 C 0.1842(4) 0.6037(6) 0.7052(3)
H48_4 H 0.1792 0.6360 0.7253
C62_4 C 0.2095(3) 0.6120(4) 0.6709(4)
C63_4 C 0.2154(3) 0.5648(6) 0.6413(4)
H49_4 H 0.2320 0.5707 0.6168
C64_4 C 0.1965(3) 0.5073(4) 0.6481(4)
H50_4 H 0.2015 0.4743 0.6286
C65_4 C 0.3287(2) 0.8021(3) 0.7042(3)
N1_4 N 0.1082(2) 0.6875(3) 0.5408(2)
N2_4 N 0.0562(3) 0.6210(5) 0.5392(3)
N3_4 N 0.1879(3) 0.7490(3) 0.5644(3)
N4_4 N 0.2219(4) 0.7027(3) 0.6200(3)
N5_4 N 0.1740(2) 0.9365(4) 0.6109(3)
N6_4 N 0.14654(18) 0.8724(3) 0.5590(3)
N7_3 N 0.1179(3) 0.7998(3) 0.4797(3)
N8_3 N 0.0822(3) 0.8618(4) 0.4360(4)
N9_4 N 0.06633(19) 0.7974(3) 0.5520(3)
N10_4 N 0.1241(2) 0.7770(4) 0.61939(19)
O3_4 O 0.16542(13) 0.3906(2) 0.66926(13)
O4_4 O 0.12353(17) 0.4352(2) 0.71389(16)
O5_4 O 0.34673(13) 0.8177(2) 0.73867(13)
O7_4 O 0.33728(13) 0.7548(2) 0.68043(13)
C66_4 C 0.2320(2) 0.6760(4) 0.6623(3)
H51_4 H 0.2606 0.6688 0.6634
H52_4 H 0.2252 0.7056 0.6856
C1_4 C 0.9258(3) 0.6527(4) 0.3786(3)
C2_4 C 0.9485(3) 0.6409(4) 0.4234(3)
C3_4 C 0.9842(3) 0.6040(4) 0.4220(4)
H1_4 H 0.9943 0.5875 0.3957
C5_3 C 0.9902(4) 0.6169(6) 0.5032(4)
C6_3 C 0.9581(4) 0.6505(5) 0.5005(4)
H3_3 H 0.9491 0.6679 0.5271
C7_4 C 0.9349(3) 0.6641(4) 0.4626(4)
H4_4 H 0.9116 0.6876 0.4643
C47_4 C 0.9898(3) 0.8956(5) 0.3175(3)
H32_4 H 0.9852 0.9191 0.2919
C48_4 C 0.9710(3) 0.8381(5) 0.3237(3)
C49_4 C 0.9772(2) 0.8058(4) 0.3620(3)
H33_4 H 0.9634 0.7687 0.3672
C51_4 C 0.9399(2) 0.8150(4) 0.2922(3)
O1_4 O 0.93836(16) 0.6287(3) 0.34378(17)
O2_4 O 0.89665(15) 0.6878(3) 0.38164(15)
O8_4 O 0.92543(13) 0.7651(2) 0.30005(17)
O9_4 O 0.83458(13) 0.6094(2) 0.33074(13)
O10_4 O 0.87647(17) 0.5648(2) 0.28611(16)
O11_4 O 0.84673(13) 0.6823(2) 0.23867(13)
O13_4 O 0.83728(13) 0.7548(2) 0.31957(13)
H7_5 H 0.5713 0.0055 0.0371
C13_5 C 0.6316(4) 0.0076(3) 0.0362(3)
H8_5 H 0.6341 0.0511 0.0357
C58_5 C 0.6526(3) 0.0603(4) 0.1898(3)
C59_5 C 0.6718(3) 0.0011(5) 0.1815(3)
H50_5 H 0.7015 0.0257 0.1286
Ni1_5 Ni 0.62987(3) 0.72132(5) 0.04766(3)
C5_4 C 0.4902(4) 0.8831(6) 0.0032(4)
C6_4 C 0.4581(4) 0.8495(5) 0.0005(4)
H3_4 H 0.4491 0.8321 0.0271
C8_5 C 0.5141(3) 0.8961(4) 0.0422(3)
H5_5 H 0.5124 0.9407 0.0485
H6_5 H 0.5025 0.8740 0.0673
C9_5 C 0.5696(3) 0.8210(7) 0.0417(3)
C10_5 C 0.6240(3) 0.8775(3) 0.0379(2)
C11_5 C 0.5901(2) 0.9152(5) 0.0379(3)
C12_5 C 0.5939(3) 0.9802(5) 0.0371(3)
C14_5 C 0.6654(3) 0.9699(5) 0.0362(3)
H9_5 H 0.6906 0.9882 0.0357
C15_5 C 0.6616(2) 0.9048(5) 0.0370(2)
H10_5 H 0.6843 0.8796 0.0370
C16_5 C 0.6864(3) 0.7732(4) 0.1056(5)
C17_5 C 0.7273(4) 0.7591(4) 0.0505(4)
C18_5 C 0.7485(4) 0.7878(4) 0.0860(5)
C19_5 C 0.7464(4) 0.7371(4) 0.0118(4)
C20_5 C 0.7858(4) 0.7526(6) 0.0067(4)
C21_5 C 0.8062(5) 0.7821(7) 0.0408(5)
H13_5 H 0.8332 0.7897 0.0366
C22_5 C 0.7897(5) 0.8011(5) 0.0801(5)
H14_5 H 0.8045 0.8216 0.1018
C23_5 C 0.6917(2) 0.5477(3) 0.1547(2)
H15_5 H 0.6719 0.5545 0.1778
H16_5 H 0.6989 0.5036 0.1550
C24_5 C 0.7284(2) 0.5869(3) 0.1649(3)
C25_5 C 0.7454(2) 0.6279(4) 0.1344(2)
H17_5 H 0.7358 0.6298 0.1054
C26_5 C 0.7763(2) 0.6656(3) 0.1474(2)
H18_5 H 0.7859 0.6963 0.1281
C27_5 C 0.7935(2) 0.6585(3) 0.1888(3)
C28_5 C 0.7768(2) 0.6160(3) 0.2187(2)
H19_5 H 0.7876 0.6121 0.2471
C29_5 C 0.7444(2) 0.5793(3) 0.2069(2)
H20_5 H 0.7337 0.5503 0.2268
C30_5 C 0.6531(2) 0.6173(5) 0.1031(3)
C31_5 C 0.6635(2) 0.5769(4) 0.0380(4)
C32_5 C 0.6808(3) 0.5361(5) 0.0686(4)
C33_3 C 0.6984(3) 0.4793(5) 0.0570(5)
H21_3 H 0.7100 0.4519 0.0774
C34_3 C 0.6965(3) 0.4679(5) 0.0105(5)
H22_3 H 0.7060 0.4294 0.0003
C52_5 C 0.5444(3) 0.7624(5) 0.0384(3)
H35_5 H 0.5211 0.7674 0.0572
H36_5 H 0.5352 0.7579 0.0079
C53_5 C 0.5602(2) 0.6497(4) 0.0195(3)
H37_5 H 0.5675 0.6101 0.0334
H38_5 H 0.5324 0.6475 0.0109
C54_5 C 0.5589(2) 0.6833(5) 0.1004(3)
H39_5 H 0.5689 0.6412 0.1056
H40_5 H 0.5306 0.6839 0.1069
C55_5 C 0.5809(3) 0.7306(5) 0.1299(3)
H41_5 H 0.5759 0.7219 0.1611
H42_5 H 0.5722 0.7731 0.1233
C56_5 C 0.6410(2) 0.6647(4) 0.1374(2)
H43_5 H 0.6642 0.6752 0.1553
H44_5 H 0.6215 0.6455 0.1570
C57_5 C 0.6491(3) 0.7770(4) 0.1338(3)
H45_5 H 0.6352 0.8164 0.1288
H46_5 H 0.6556 0.7736 0.1652
C60_5 C 0.6655(3) 0.9550(6) 0.2099(3)
H47_5 H 0.6483 0.9614 0.2337
C61_5 C 0.6842(4) 0.8963(6) 0.2052(3)
H48_5 H 0.6792 0.8640 0.2253
C62_5 C 0.7095(3) 0.8880(4) 0.1709(4)
C63_5 C 0.7154(3) 0.9352(6) 0.1413(4)
H49_5 H 0.7320 0.9293 0.1168
C64_5 C 0.6965(3) 0.9927(4) 0.1481(4)
C65_5 C 0.8287(2) 0.6979(3) 0.2042(3)
N1_5 N 0.6082(2) 0.8125(3) 0.0408(2)
N2_5 N 0.5562(3) 0.8790(5) 0.0392(3)
N3_5 N 0.6879(3) 0.7510(3) 0.0644(3)
N4_5 N 0.7219(4) 0.7973(3) 0.1200(3)
N5_5 N 0.6740(2) 0.5635(4) 0.1109(3)
N6_5 N 0.64654(18) 0.6276(3) 0.0590(3)
N9_5 N 0.56633(19) 0.7026(3) 0.0520(3)
N10_5 N 0.6241(2) 0.7230(4) 0.11939(19)
C66_5 C 0.7320(2) 0.8240(4) 0.1623(3)
H51_5 H 0.7606 0.8312 0.1634
H52_5 H 0.7252 0.7944 0.1856
C1_5 C 0.4258(3) 0.8473(4) 0.8786(3)
C2_5 C 0.4485(3) 0.8591(4) 0.9234(3)
C3_5 C 0.4842(3) 0.8960(4) 0.9220(4)
H1_5 H 0.4943 0.9125 0.8957
C4_4 C 0.5033(3) 0.9057(5) 0.9649(5)
H2_4 H 0.5265 0.9296 0.9654
C7_5 C 0.4349(3) 0.8359(4) 0.9626(4)
H4_5 H 0.4116 0.8124 0.9643
H11_4 H 0.7329 0.7132 0.9907
H12_4 H 0.7989 0.7432 0.9802
C35_4 C 0.6825(4) 0.5071(6) 0.9806(4)
H23_2 H 0.6860 0.4980 0.9505
C36_4 C 0.6631(3) 0.5608(5) 0.9924(3)
H24_4 H 0.6501 0.5857 0.9714
C37_4 C 0.5855(3) 0.6607(4) 0.9795(4)
C38_4 C 0.6358(5) 0.7041(7) 0.9373(4)
C39_4 C 0.6135(5) 0.6651(7) 0.9107(6)
C40_4 C 0.6197(5) 0.6510(6) 0.8673(6)
H25_4 H 0.6054 0.6222 0.8503
C41_4 C 0.6512(6) 0.6876(8) 0.8533(5)
H26_4 H 0.6553 0.6875 0.8226
C42_4 C 0.6780(4) 0.7245(9) 0.8771(6)
H27_4 H 0.7015 0.7393 0.8646
C43_4 C 0.6676(4) 0.7376(6) 0.9202(6)
H28_4 H 0.6812 0.7674 0.9370
C44_4 C 0.5530(3) 0.5898(4) 0.9227(3)
H29_4 H 0.5670 0.5540 0.9101
H30_4 H 0.5385 0.5754 0.9487
C45_4 C 0.5232(3) 0.6165(5) 0.8878(3)
C46_4 C 0.5162(3) 0.5821(4) 0.8512(4)
H31_4 H 0.5288 0.5434 0.8477
C47_5 C 0.4898(3) 0.6044(5) 0.8175(3)
H32_5 H 0.4852 0.5809 0.7919
C48_5 C 0.4710(3) 0.6619(5) 0.8237(3)
C49_5 C 0.4772(2) 0.6942(4) 0.8620(3)
H33_5 H 0.4634 0.7313 0.8672
C50_4 C 0.5041(3) 0.6720(5) 0.8934(3)
H34_4 H 0.5091 0.6958 0.9188
C51_5 C 0.4399(2) 0.6850(4) 0.7922(3)
N7_4 N 0.6179(3) 0.7002(3) 0.9797(3)
N8_4 N 0.5822(3) 0.6382(4) 0.9360(4)
O1_5 O 0.43836(16) 0.8713(3) 0.84378(17)
O2_5 O 0.39665(15) 0.8122(3) 0.88164(15)
O6_3 O 0.43485(14) 0.6525(2) 0.75752(15)
O8_5 O 0.42543(13) 0.7349(2) 0.80005(17)
O12_3 O 0.43485(14) 0.8475(2) 0.74248(15)
C1_6 C 0.0742(3) 0.1527(4) 0.8786(3)
C2_6 C 0.0515(3) 0.1409(4) 0.9234(3)
C3_6 C 0.0158(3) 0.1040(4) 0.9220(4)
H1_6 H 0.0057 0.0875 0.8957
C7_6 C 0.0651(3) 0.1641(4) 0.9626(4)
H4_6 H 0.0884 0.1876 0.9643
C47_6 C 0.0102(3) 0.3956(5) 0.8175(3)
H32_6 H 0.0148 0.4191 0.7919
C48_6 C 0.0290(3) 0.3381(5) 0.8237(3)
C49_6 C 0.0228(2) 0.3058(4) 0.8620(3)
H33_6 H 0.0366 0.2687 0.8672
C51_6 C 0.0601(2) 0.3150(4) 0.7922(3)
O1_6 O 0.06164(16) 0.1287(3) 0.84378(17)
O2_6 O 0.10335(15) 0.1878(3) 0.88164(15)
O6_4 O 0.06515(14) 0.3475(2) 0.75752(15)
O8_6 O 0.07457(13) 0.2651(2) 0.80005(17)
O12_4 O 0.06515(14) 0.1525(2) 0.74248(15)
Ni1_6 Ni 0.87013(3) 0.27868(5) 0.04766(3)
C8_6 C 0.9859(3) 0.1039(4) 0.0422(3)
H5_6 H 0.9876 0.0593 0.0485
H6_6 H 0.9975 0.1260 0.0673
C9_6 C 0.9304(3) 0.1790(7) 0.0417(3)
C10_6 C 0.8760(3) 0.1225(3) 0.0379(2)
C11_6 C 0.9099(2) 0.0848(5) 0.0379(3)
C12_6 C 0.9061(3) 0.0198(5) 0.0371(3)
C14_6 C 0.8346(3) 0.0301(5) 0.0362(3)
H9_6 H 0.8094 0.0118 0.0357
C15_6 C 0.8384(2) 0.0952(5) 0.0370(2)
H10_6 H 0.8157 0.1204 0.0370
C16_6 C 0.8136(3) 0.2268(4) 0.1056(5)
C17_6 C 0.7727(4) 0.2409(4) 0.0505(4)
C18_6 C 0.7515(4) 0.2122(4) 0.0860(5)
C19_6 C 0.7536(4) 0.2629(4) 0.0118(4)
C20_6 C 0.7142(4) 0.2474(6) 0.0067(4)
C21_6 C 0.6938(5) 0.2179(7) 0.0408(5)
H13_6 H 0.6668 0.2103 0.0366
C22_6 C 0.7103(5) 0.1989(5) 0.0801(5)
H14_6 H 0.6955 0.1784 0.1018
C23_6 C 0.8083(2) 0.4523(3) 0.1547(2)
H15_6 H 0.8281 0.4455 0.1778
H16_6 H 0.8011 0.4964 0.1550
C24_6 C 0.7716(2) 0.4131(3) 0.1649(3)
C25_6 C 0.7546(2) 0.3721(4) 0.1344(2)
H17_6 H 0.7642 0.3702 0.1054
C26_6 C 0.7237(2) 0.3344(3) 0.1474(2)
H18_6 H 0.7141 0.3037 0.1281
C27_6 C 0.7065(2) 0.3415(3) 0.1888(3)
C28_6 C 0.7232(2) 0.3840(3) 0.2187(2)
H19_6 H 0.7124 0.3879 0.2471
C29_6 C 0.7556(2) 0.4207(3) 0.2069(2)
H20_6 H 0.7663 0.4497 0.2268
C30_6 C 0.8469(2) 0.3827(5) 0.1031(3)
C31_6 C 0.8365(2) 0.4231(4) 0.0380(4)
C32_6 C 0.8192(3) 0.4639(5) 0.0686(4)
C33_4 C 0.8016(3) 0.5207(5) 0.0570(5)
H21_4 H 0.7900 0.5481 0.0774
C34_4 C 0.8035(3) 0.5321(5) 0.0105(5)
H22_4 H 0.7940 0.5706 0.0003
C52_6 C 0.9556(3) 0.2376(5) 0.0384(3)
H35_6 H 0.9789 0.2326 0.0572
H36_6 H 0.9648 0.2421 0.0079
C53_6 C 0.9398(2) 0.3503(4) 0.0195(3)
H37_6 H 0.9325 0.3899 0.0334
H38_6 H 0.9676 0.3525 0.0109
C54_6 C 0.9411(2) 0.3167(5) 0.1004(3)
H39_6 H 0.9311 0.3588 0.1056
H40_6 H 0.9694 0.3161 0.1069
C55_6 C 0.9191(3) 0.2694(5) 0.1299(3)
H41_6 H 0.9241 0.2781 0.1611
H42_6 H 0.9278 0.2269 0.1233
C56_6 C 0.8590(2) 0.3353(4) 0.1374(2)
H43_6 H 0.8358 0.3248 0.1553
H44_6 H 0.8785 0.3545 0.1570
C57_6 C 0.8509(3) 0.2230(4) 0.1338(3)
H45_6 H 0.8648 0.1836 0.1288
H46_6 H 0.8444 0.2264 0.1652
C60_6 C 0.8345(3) 0.0450(6) 0.2099(3)
H47_6 H 0.8517 0.0386 0.2337
C61_6 C 0.8158(4) 0.1037(6) 0.2052(3)
H48_6 H 0.8208 0.1360 0.2253
C62_6 C 0.7905(3) 0.1120(4) 0.1709(4)
C63_6 C 0.7846(3) 0.0648(6) 0.1413(4)
H49_6 H 0.7680 0.0707 0.1168
C64_6 C 0.8035(3) 0.0073(4) 0.1481(4)
C65_6 C 0.6713(2) 0.3021(3) 0.2042(3)
N1_6 N 0.8918(2) 0.1875(3) 0.0408(2)
N2_6 N 0.9438(3) 0.1210(5) 0.0392(3)
N3_6 N 0.8121(3) 0.2490(3) 0.0644(3)
N4_6 N 0.7781(4) 0.2027(3) 0.1200(3)
N5_6 N 0.8260(2) 0.4365(4) 0.1109(3)
N6_6 N 0.85346(18) 0.3724(3) 0.0590(3)
N9_6 N 0.93367(19) 0.2974(3) 0.0520(3)
N10_6 N 0.8759(2) 0.2770(4) 0.11939(19)
C66_6 C 0.7680(2) 0.1760(4) 0.1623(3)
H51_6 H 0.7394 0.1688 0.1634
H52_6 H 0.7748 0.2056 0.1856
H7_6 H 0.9287 0.9945 0.0371
C13_6 C 0.8684(4) 0.9924(3) 0.0362(3)
H8_6 H 0.8659 0.9489 0.0357
C58_6 C 0.8474(3) 0.9397(4) 0.1898(3)
C59_6 C 0.8282(3) 0.9989(5) 0.1815(3)
H50_6 H 0.7985 0.9743 0.1286
Ni1_7 Ni 0.62987(3) 0.77868(5) 0.45234(3)
C1_7 C 0.4258(3) 0.6527(4) 0.6214(3)
C2_7 C 0.4485(3) 0.6409(4) 0.5766(3)
C3_7 C 0.4842(3) 0.6040(4) 0.5780(4)
H1_7 H 0.4943 0.5875 0.6043
C4_5 C 0.5033(3) 0.5943(5) 0.5351(5)
H2_5 H 0.5265 0.5704 0.5346
C5_5 C 0.4902(4) 0.6169(6) 0.4968(4)
C6_5 C 0.4581(4) 0.6505(5) 0.4995(4)
H3_5 H 0.4491 0.6679 0.4729
C7_7 C 0.4349(3) 0.6641(4) 0.5374(4)
H4_7 H 0.4116 0.6876 0.5357
C8_7 C 0.5141(3) 0.6039(4) 0.4578(3)
H5_7 H 0.5124 0.5593 0.4515
H6_7 H 0.5025 0.6260 0.4327
C9_7 C 0.5696(3) 0.6790(7) 0.4583(3)
C10_7 C 0.6240(3) 0.6225(3) 0.4621(2)
C11_7 C 0.5901(2) 0.5848(5) 0.4621(3)
C12_7 C 0.5939(3) 0.5198(5) 0.4629(3)
H7_7 H 0.5713 0.4945 0.4629
C13_7 C 0.6316(4) 0.4924(3) 0.4638(3)
H8_7 H 0.6341 0.4489 0.4643
C14_7 C 0.6654(3) 0.5301(5) 0.4638(3)
H9_7 H 0.6906 0.5118 0.4643
C15_7 C 0.6616(2) 0.5952(5) 0.4630(2)
H10_7 H 0.6843 0.6204 0.4630
C16_7 C 0.6864(3) 0.7268(4) 0.3944(5)
C17_7 C 0.7273(4) 0.7409(4) 0.4495(4)
C18_7 C 0.7485(4) 0.7122(4) 0.4140(5)
C19_7 C 0.7464(4) 0.7629(4) 0.4882(4)
H11_5 H 0.7329 0.7868 0.5093
C20_7 C 0.7858(4) 0.7474(6) 0.4933(4)
H12_5 H 0.7989 0.7568 0.5198
C21_7 C 0.8062(5) 0.7179(7) 0.4592(5)
H13_7 H 0.8332 0.7103 0.4634
C22_7 C 0.7897(5) 0.6989(5) 0.4199(5)
H14_7 H 0.8045 0.6784 0.3982
C23_7 C 0.6917(2) 0.9523(3) 0.3453(2)
H15_7 H 0.6719 0.9455 0.3222
H16_7 H 0.6989 0.9964 0.3450
C24_7 C 0.7284(2) 0.9131(3) 0.3351(3)
C25_7 C 0.7454(2) 0.8721(4) 0.3656(2)
H17_7 H 0.7358 0.8702 0.3946
C26_7 C 0.7763(2) 0.8344(3) 0.3526(2)
H18_7 H 0.7859 0.8037 0.3719
C27_7 C 0.7935(2) 0.8415(3) 0.3112(3)
C28_7 C 0.7768(2) 0.8840(3) 0.2813(2)
H19_7 H 0.7876 0.8879 0.2529
C29_7 C 0.7444(2) 0.9207(3) 0.2931(2)
H20_7 H 0.7337 0.9497 0.2732
C30_7 C 0.6531(2) 0.8827(5) 0.3969(3)
C31_7 C 0.6635(2) 0.9231(4) 0.4620(4)
C32_7 C 0.6808(3) 0.9639(5) 0.4314(4)
C35_5 C 0.6825(4) 0.9929(6) 0.5194(4)
C36_5 C 0.6631(3) 0.9392(5) 0.5076(3)
H24_5 H 0.6501 0.9143 0.5286
C37_5 C 0.5855(3) 0.8393(4) 0.5205(4)
C38_5 C 0.6358(5) 0.7959(7) 0.5627(4)
C39_5 C 0.6135(5) 0.8349(7) 0.5893(6)
C40_5 C 0.6197(5) 0.8490(6) 0.6327(6)
H25_5 H 0.6054 0.8778 0.6497
C41_5 C 0.6512(6) 0.8124(8) 0.6467(5)
H26_5 H 0.6553 0.8125 0.6774
C42_5 C 0.6780(4) 0.7755(9) 0.6229(6)
H27_5 H 0.7015 0.7607 0.6354
C43_5 C 0.6676(4) 0.7624(6) 0.5798(6)
H28_5 H 0.6812 0.7326 0.5630
C44_5 C 0.5530(3) 0.9102(4) 0.5773(3)
H29_5 H 0.5670 0.9460 0.5899
H30_5 H 0.5385 0.9246 0.5513
C45_5 C 0.5232(3) 0.8835(5) 0.6122(3)
C46_5 C 0.5162(3) 0.9179(4) 0.6488(4)
H31_5 H 0.5288 0.9566 0.6523
C47_7 C 0.4898(3) 0.8956(5) 0.6825(3)
H32_7 H 0.4852 0.9191 0.7081
C48_7 C 0.4710(3) 0.8381(5) 0.6763(3)
C49_7 C 0.4772(2) 0.8058(4) 0.6380(3)
H33_7 H 0.4634 0.7687 0.6328
C50_5 C 0.5041(3) 0.8280(5) 0.6066(3)
H34_5 H 0.5091 0.8042 0.5812
C51_7 C 0.4399(2) 0.8150(4) 0.7078(3)
C52_7 C 0.5444(3) 0.7376(5) 0.4616(3)
H35_7 H 0.5211 0.7326 0.4428
H36_7 H 0.5352 0.7421 0.4921
C53_7 C 0.5602(2) 0.8503(4) 0.4805(3)
H37_7 H 0.5675 0.8899 0.4666
H38_7 H 0.5324 0.8525 0.4891
C54_7 C 0.5589(2) 0.8167(5) 0.3996(3)
H39_7 H 0.5689 0.8588 0.3944
H40_7 H 0.5306 0.8161 0.3931
C55_7 C 0.5809(3) 0.7694(5) 0.3701(3)
H41_7 H 0.5759 0.7781 0.3389
H42_7 H 0.5722 0.7269 0.3767
C56_7 C 0.6410(2) 0.8353(4) 0.3626(2)
H43_7 H 0.6642 0.8248 0.3447
H44_7 H 0.6215 0.8545 0.3430
C57_7 C 0.6491(3) 0.7230(4) 0.3662(3)
H45_7 H 0.6352 0.6836 0.3712
H46_7 H 0.6556 0.7264 0.3348
C58_7 C 0.6526(3) 0.4397(4) 0.3102(3)
C59_7 C 0.6718(3) 0.4989(5) 0.3185(3)
C60_7 C 0.6655(3) 0.5450(6) 0.2901(3)
H47_7 H 0.6483 0.5386 0.2663
C61_7 C 0.6842(4) 0.6037(6) 0.2948(3)
H48_7 H 0.6792 0.6360 0.2747
C62_7 C 0.7095(3) 0.6120(4) 0.3291(4)
C63_7 C 0.7154(3) 0.5648(6) 0.3587(4)
H49_7 H 0.7320 0.5707 0.3832
C64_7 C 0.6965(3) 0.5073(4) 0.3519(4)
H50_7 H 0.7015 0.4743 0.3714
C65_7 C 0.8287(2) 0.8021(3) 0.2958(3)
N1_7 N 0.6082(2) 0.6875(3) 0.4592(2)
N2_7 N 0.5562(3) 0.6210(5) 0.4608(3)
N3_7 N 0.6879(3) 0.7490(3) 0.4356(3)
N4_7 N 0.7219(4) 0.7027(3) 0.3800(3)
N5_7 N 0.6740(2) 0.9365(4) 0.3891(3)
N6_7 N 0.64654(18) 0.8724(3) 0.4410(3)
N7_5 N 0.6179(3) 0.7998(3) 0.5203(3)
N8_5 N 0.5822(3) 0.8618(4) 0.5640(4)
N9_7 N 0.56633(19) 0.7974(3) 0.4480(3)
N10_7 N 0.6241(2) 0.7770(4) 0.38061(19)
O1_7 O 0.43836(16) 0.6287(3) 0.65622(17)
O2_7 O 0.39665(15) 0.6878(3) 0.61836(15)
O8_7 O 0.42543(13) 0.7651(2) 0.69995(17)
C66_7 C 0.7320(2) 0.6760(4) 0.3377(3)
H51_7 H 0.7606 0.6688 0.3366
H52_7 H 0.7252 0.7056 0.3144
C1_8 C 0.0742(3) 0.3473(4) 0.6214(3)
C2_8 C 0.0515(3) 0.3591(4) 0.5766(3)
C3_8 C 0.0158(3) 0.3960(4) 0.5780(4)
H1_8 H 0.0057 0.4125 0.6043
C5_6 C 0.0098(4) 0.3831(6) 0.4968(4)
C6_6 C 0.0419(4) 0.3495(5) 0.4995(4)
H3_6 H 0.0509 0.3321 0.4729
C7_8 C 0.0651(3) 0.3359(4) 0.5374(4)
H4_8 H 0.0884 0.3124 0.5357
C47_8 C 0.0102(3) 0.1044(5) 0.6825(3)
H32_8 H 0.0148 0.0809 0.7081
C48_8 C 0.0290(3) 0.1619(5) 0.6763(3)
C49_8 C 0.0228(2) 0.1942(4) 0.6380(3)
H33_8 H 0.0366 0.2313 0.6328
C51_8 C 0.0601(2) 0.1850(4) 0.7078(3)
O1_8 O 0.06164(16) 0.3713(3) 0.65622(17)
O2_8 O 0.10335(15) 0.3122(3) 0.61836(15)
O8_8 O 0.07457(13) 0.2349(2) 0.69995(17)
Ni1_8 Ni 0.87013(3) 0.22132(5) 0.45234(3)
C4_6 C 0.9967(3) 0.4057(5) 0.5351(5)
H2_6 H 0.9735 0.4296 0.5346
C8_8 C 0.9859(3) 0.3961(4) 0.4578(3)
H5_8 H 0.9876 0.4407 0.4515
H6_8 H 0.9975 0.3740 0.4327
C9_8 C 0.9304(3) 0.3210(7) 0.4583(3)
C10_8 C 0.8760(3) 0.3775(3) 0.4621(2)
C11_8 C 0.9099(2) 0.4152(5) 0.4621(3)
C12_8 C 0.9061(3) 0.4802(5) 0.4629(3)
H7_8 H 0.9287 0.5055 0.4629
C13_8 C 0.8684(4) 0.5076(3) 0.4638(3)
H8_8 H 0.8659 0.5511 0.4643
C14_8 C 0.8346(3) 0.4699(5) 0.4638(3)
H9_8 H 0.8094 0.4882 0.4643
C15_8 C 0.8384(2) 0.4048(5) 0.4630(2)
H10_8 H 0.8157 0.3796 0.4630
C16_8 C 0.8136(3) 0.2732(4) 0.3944(5)
C17_8 C 0.7727(4) 0.2591(4) 0.4495(4)
C18_8 C 0.7515(4) 0.2878(4) 0.4140(5)
C19_8 C 0.7536(4) 0.2371(4) 0.4882(4)
H11_6 H 0.7671 0.2132 0.5093
C20_8 C 0.7142(4) 0.2526(6) 0.4933(4)
H12_6 H 0.7011 0.2432 0.5198
C21_8 C 0.6938(5) 0.2821(7) 0.4592(5)
H13_8 H 0.6668 0.2897 0.4634
C22_8 C 0.7103(5) 0.3011(5) 0.4199(5)
H14_8 H 0.6955 0.3216 0.3982
C23_8 C 0.8083(2) 0.0477(3) 0.3453(2)
H15_8 H 0.8281 0.0545 0.3222
H16_8 H 0.8011 0.0036 0.3450
C24_8 C 0.7716(2) 0.0869(3) 0.3351(3)
C25_8 C 0.7546(2) 0.1279(4) 0.3656(2)
H17_8 H 0.7642 0.1298 0.3946
C26_8 C 0.7237(2) 0.1656(3) 0.3526(2)
H18_8 H 0.7141 0.1963 0.3719
C27_8 C 0.7065(2) 0.1585(3) 0.3112(3)
C28_8 C 0.7232(2) 0.1160(3) 0.2813(2)
H19_8 H 0.7124 0.1121 0.2529
C29_8 C 0.7556(2) 0.0793(3) 0.2931(2)
H20_8 H 0.7663 0.0503 0.2732
C30_8 C 0.8469(2) 0.1173(5) 0.3969(3)
C31_8 C 0.8365(2) 0.0769(4) 0.4620(4)
C32_8 C 0.8192(3) 0.0361(5) 0.4314(4)
C35_6 C 0.8175(4) 0.0071(6) 0.5194(4)
C36_6 C 0.8369(3) 0.0608(5) 0.5076(3)
H24_6 H 0.8499 0.0857 0.5286
C37_6 C 0.9145(3) 0.1607(4) 0.5205(4)
C38_6 C 0.8642(5) 0.2041(7) 0.5627(4)
C39_6 C 0.8865(5) 0.1651(7) 0.5893(6)
C40_6 C 0.8803(5) 0.1510(6) 0.6327(6)
H25_6 H 0.8946 0.1222 0.6497
C41_6 C 0.8488(6) 0.1876(8) 0.6467(5)
H26_6 H 0.8447 0.1875 0.6774
C42_6 C 0.8220(4) 0.2245(9) 0.6229(6)
H27_6 H 0.7985 0.2393 0.6354
C43_6 C 0.8324(4) 0.2376(6) 0.5798(6)
H28_6 H 0.8188 0.2674 0.5630
C44_6 C 0.9470(3) 0.0898(4) 0.5773(3)
H29_6 H 0.9330 0.0540 0.5899
H30_6 H 0.9615 0.0754 0.5513
C45_6 C 0.9768(3) 0.1165(5) 0.6122(3)
C46_6 C 0.9838(3) 0.0821(4) 0.6488(4)
H31_6 H 0.9712 0.0434 0.6523
C50_6 C 0.9959(3) 0.1720(5) 0.6066(3)
H34_6 H 0.9909 0.1958 0.5812
C52_8 C 0.9556(3) 0.2624(5) 0.4616(3)
H35_8 H 0.9789 0.2674 0.4428
H36_8 H 0.9648 0.2579 0.4921
C53_8 C 0.9398(2) 0.1497(4) 0.4805(3)
H37_8 H 0.9325 0.1101 0.4666
H38_8 H 0.9676 0.1475 0.4891
C54_8 C 0.9411(2) 0.1833(5) 0.3996(3)
H39_8 H 0.9311 0.1412 0.3944
H40_8 H 0.9694 0.1839 0.3931
C55_8 C 0.9191(3) 0.2306(5) 0.3701(3)
H41_8 H 0.9241 0.2219 0.3389
H42_8 H 0.9278 0.2731 0.3767
C56_8 C 0.8590(2) 0.1647(4) 0.3626(2)
H43_8 H 0.8358 0.1752 0.3447
H44_8 H 0.8785 0.1455 0.3430
C57_8 C 0.8509(3) 0.2770(4) 0.3662(3)
H45_8 H 0.8648 0.3164 0.3712
H46_8 H 0.8444 0.2736 0.3348
C58_8 C 0.8474(3) 0.5603(4) 0.3102(3)
C59_8 C 0.8282(3) 0.5011(5) 0.3185(3)
C60_8 C 0.8345(3) 0.4550(6) 0.2901(3)
H47_8 H 0.8517 0.4614 0.2663
C61_8 C 0.8158(4) 0.3963(6) 0.2948(3)
H48_8 H 0.8208 0.3640 0.2747
C62_8 C 0.7905(3) 0.3880(4) 0.3291(4)
C63_8 C 0.7846(3) 0.4352(6) 0.3587(4)
H49_8 H 0.7680 0.4293 0.3832
C64_8 C 0.8035(3) 0.4927(4) 0.3519(4)
H50_8 H 0.7985 0.5257 0.3714
C65_8 C 0.6713(2) 0.1979(3) 0.2958(3)
N1_8 N 0.8918(2) 0.3125(3) 0.4592(2)
N2_8 N 0.9438(3) 0.3790(5) 0.4608(3)
N3_8 N 0.8121(3) 0.2510(3) 0.4356(3)
N4_8 N 0.7781(4) 0.2973(3) 0.3800(3)
N5_8 N 0.8260(2) 0.0635(4) 0.3891(3)
N6_8 N 0.85346(18) 0.1276(3) 0.4410(3)
N7_6 N 0.8821(3) 0.2002(3) 0.5203(3)
N8_6 N 0.9178(3) 0.1382(4) 0.5640(4)
N9_8 N 0.93367(19) 0.2026(3) 0.4480(3)
N10_8 N 0.8759(2) 0.2230(4) 0.38061(19)
C66_8 C 0.7680(2) 0.3240(4) 0.3377(3)
H51_8 H 0.7394 0.3312 0.3366
H52_8 H 0.7748 0.2944 0.3144
C4_7 C 0.0033(3) 0.9057(5) 0.0351(5)
H2_7 H 0.0265 0.9296 0.0346
H11_7 H 0.2329 0.7132 0.0093
H12_7 H 0.2989 0.7432 0.0198
C35_7 C 0.1825(4) 0.5071(6) 0.0194(4)
H23_3 H 0.1860 0.4980 0.0495
C36_7 C 0.1631(3) 0.5608(5) 0.0076(3)
H24_7 H 0.1501 0.5857 0.0286
C37_7 C 0.0855(3) 0.6607(4) 0.0205(4)
C38_7 C 0.1358(5) 0.7041(7) 0.0627(4)
C39_7 C 0.1135(5) 0.6651(7) 0.0893(6)
C40_7 C 0.1197(5) 0.6510(6) 0.1327(6)
H25_7 H 0.1054 0.6222 0.1497
C41_7 C 0.1512(6) 0.6876(8) 0.1467(5)
H26_7 H 0.1553 0.6875 0.1774
C42_7 C 0.1780(4) 0.7245(9) 0.1229(6)
H27_7 H 0.2015 0.7393 0.1354
C43_7 C 0.1676(4) 0.7376(6) 0.0798(6)
H28_7 H 0.1812 0.7674 0.0630
C44_7 C 0.0530(3) 0.5898(4) 0.0773(3)
H29_7 H 0.0670 0.5540 0.0899
H30_7 H 0.0385 0.5754 0.0513
C45_7 C 0.0232(3) 0.6165(5) 0.1122(3)
C46_7 C 0.0162(3) 0.5821(4) 0.1488(4)
H31_7 H 0.0288 0.5434 0.1523
C50_7 C 0.0041(3) 0.6720(5) 0.1066(3)
H34_7 H 0.0091 0.6958 0.0812
N7_7 N 0.1179(3) 0.7002(3) 0.0203(3)
N8_7 N 0.0822(3) 0.6382(4) 0.0640(4)
C5_7 C 0.9902(4) 0.8831(6) 0.9968(4)
C6_7 C 0.9581(4) 0.8495(5) 0.9995(4)
H3_7 H 0.9491 0.8321 0.9729
C33_5 C 0.3016(3) 0.9793(5) 0.5570(5)
H21_5 H 0.2900 0.9519 0.5774
C34_5 C 0.3035(3) 0.9679(5) 0.5105(5)
H22_5 H 0.2940 0.9294 0.5003
H23_4 H 0.3140 0.9980 0.4505
C33_6 C 0.1984(3) 0.0207(5) 0.5570(5)
H21_6 H 0.2100 0.0481 0.5774
C34_6 C 0.1965(3) 0.0321(5) 0.5105(5)
H22_6 H 0.2060 0.0706 0.5003
H23_5 H 0.1860 0.0020 0.4505
C5_8 C 0.0098(4) 0.1169(6) 0.0032(4)
C6_8 C 0.0419(4) 0.1505(5) 0.0005(4)
H3_8 H 0.0509 0.1679 0.0271
C4_8 C 0.9967(3) 0.0943(5) 0.9649(5)
H2_8 H 0.9735 0.0704 0.9654
H11_8 H 0.7671 0.2868 0.9907
H12_8 H 0.7011 0.2568 0.9802
C35_8 C 0.8175(4) 0.4929(6) 0.9806(4)
H23_6 H 0.8140 0.5020 0.9505
C36_8 C 0.8369(3) 0.4392(5) 0.9924(3)
H24_8 H 0.8499 0.4143 0.9714
C37_8 C 0.9145(3) 0.3393(4) 0.9795(4)
C38_8 C 0.8642(5) 0.2959(7) 0.9373(4)
C39_8 C 0.8865(5) 0.3349(7) 0.9107(6)
C40_8 C 0.8803(5) 0.3490(6) 0.8673(6)
H25_8 H 0.8946 0.3778 0.8503
C41_8 C 0.8488(6) 0.3124(8) 0.8533(5)
H26_8 H 0.8447 0.3125 0.8226
C42_8 C 0.8220(4) 0.2755(9) 0.8771(6)
H27_8 H 0.7985 0.2607 0.8646
C43_8 C 0.8324(4) 0.2624(6) 0.9202(6)
H28_8 H 0.8188 0.2326 0.9370
C44_8 C 0.9470(3) 0.4102(4) 0.9227(3)
H29_8 H 0.9330 0.4460 0.9101
H30_8 H 0.9615 0.4246 0.9487
C45_8 C 0.9768(3) 0.3835(5) 0.8878(3)
C46_8 C 0.9838(3) 0.4179(4) 0.8512(4)
H31_8 H 0.9712 0.4566 0.8477
C50_8 C 0.9959(3) 0.3280(5) 0.8934(3)
H34_8 H 0.9909 0.3042 0.9188
N7_8 N 0.8821(3) 0.2998(3) 0.9797(3)
N8_8 N 0.9178(3) 0.3618(4) 0.9360(4)
C33_7 C 0.6984(3) 0.0207(5) 0.4430(5)
H21_7 H 0.7100 0.0481 0.4226
C34_7 C 0.6965(3) 0.0321(5) 0.4895(5)
H22_7 H 0.7060 0.0706 0.4997
H23_7 H 0.6860 0.0020 0.5495
C33_8 C 0.8016(3) 0.9793(5) 0.4430(5)
H21_8 H 0.7900 0.9519 0.4226
C34_8 C 0.8035(3) 0.9679(5) 0.4895(5)
H22_8 H 0.7940 0.9294 0.4997
H23_8 H 0.8140 0.9980 0.5495
loop_
_geom_bond_atom_site_label_1
_geom_bond_atom_site_label_2
_geom_bond_site_symmetry_1
_geom_bond_site_symmetry_2
Tb1 O1 1_555 1_555
C1 C2 1_555 1_555
C2 C3 1_555 1_555
C3 H1 1_555 1_555
C4 C3 1_555 1_555
H2 C4 1_555 1_555
C7 C2 1_555 1_555
H4 C7 1_555 1_555
H23 C35 1_555 1_555
H24 C36 1_555 1_555
C38 C39 1_555 1_555
C39 C40 1_555 1_555
C40 H25 1_555 1_555
C41 C40 1_555 1_555
H26 C41 1_555 1_555
C42 C41 1_555 1_555
H27 C42 1_555 1_555
C43 C38 1_555 1_555
H28 C43 1_555 1_555
C44 H29 1_555 1_555
H30 C44 1_555 1_555
C45 C44 1_555 1_555
C46 C45 1_555 1_555
H31 C46 1_555 1_555
C47 C46 1_555 1_555
H32 C47 1_555 1_555
C48 C47 1_555 1_555
C49 C48 1_555 1_555
H33 C49 1_555 1_555
C50 C45 1_555 1_555
H34 C50 1_555 1_555
C51 C48 1_555 1_555
N8 C37 1_555 1_555
O1 C1 1_555 1_555
O2 Tb1 1_555 1_555
O6 C51 1_555 1_555
O8 Tb1 1_555 1_555
Tb2 O6 1_555 1_555
O9 Tb1 1_555 1_555
O10 Tb1 1_555 1_555
O11 Tb1 1_555 1_555
O12 Tb1 1_555 1_555
O13 Tb1 1_555 1_555
C1 O2 1_555 1_555
C35 C36 1_555 1_555
C37 N7 1_555 1_555
C38 N7 1_555 1_555
C39 N8 1_555 1_555
C42 C43 1_555 1_555
C44 N8 1_555 1_555
C49 C50 1_555 1_555
C51 O8 1_555 1_555
Ni1 N1 1_555 1_555
C6 C5 1_555 1_555
H3 C6 1_555 1_555
C8 C5 1_555 1_555
H5 C8 1_555 1_555
H6 C8 1_555 1_555
C9 C52 1_555 1_555
C10 C11 1_555 1_555
C11 C12 1_555 1_555
H9 C14 1_555 1_555
C15 C10 1_555 1_555
H10 C15 1_555 1_555
C16 C57 1_555 1_555
C17 C18 1_555 1_555
C18 C22 1_555 1_555
C19 C17 1_555 1_555
C20 C19 1_555 1_555
C21 C20 1_555 1_555
H13 C21 1_555 1_555
C22 C21 1_555 1_555
H14 C22 1_555 1_555
C23 H15 1_555 1_555
H16 C23 1_555 1_555
C24 C23 1_555 1_555
C25 C24 1_555 1_555
H17 C25 1_555 1_555
C26 C25 1_555 1_555
H18 C26 1_555 1_555
C27 C26 1_555 1_555
C28 C27 1_555 1_555
H19 C28 1_555 1_555
C29 C24 1_555 1_555
H20 C29 1_555 1_555
C30 C56 1_555 1_555
C31 C32 1_555 1_555
C32 C33 1_555 1_555
C33 H21 1_555 1_555
C34 C33 1_555 1_555
H22 C34 1_555 1_555
C52 H35 1_555 1_555
H36 C52 1_555 1_555
C53 H37 1_555 1_555
H38 C53 1_555 1_555
C54 H39 1_555 1_555
H40 C54 1_555 1_555
C55 C54 1_555 1_555
H41 C55 1_555 1_555
H42 C55 1_555 1_555
C56 H43 1_555 1_555
H44 C56 1_555 1_555
C57 H45 1_555 1_555
H46 C57 1_555 1_555
C60 H47 1_555 1_555
C61 C60 1_555 1_555
H48 C61 1_555 1_555
C62 C61 1_555 1_555
C63 C62 1_555 1_555
H49 C63 1_555 1_555
C65 C27 1_555 1_555
N1 C9 1_555 1_555
N2 C8 1_555 1_555
N3 Ni1 1_555 1_555
N4 C16 1_555 1_555
N5 C23 1_555 1_555
N6 Ni1 1_555 1_555
N9 Ni1 1_555 1_555
N10 Ni1 1_555 1_555
O5 C65 1_555 1_555
O7 C65 1_555 1_555
C66 C62 1_555 1_555
H51 C66 1_555 1_555
H52 C66 1_555 1_555
Tb4 O7 1_555 1_555
Tb5 O5 1_555 1_555
C9 N2 1_555 1_555
C10 N1 1_555 1_555
C11 N2 1_555 1_555
C14 C15 1_555 1_555
C16 N3 1_555 1_555
C17 N3 1_555 1_555
C18 N4 1_555 1_555
C28 C29 1_555 1_555
C30 N5 1_555 1_555
C30 N6 1_555 1_555
C31 N6 1_555 1_555
C32 N5 1_555 1_555
C52 N9 1_555 1_555
C53 N9 1_555 1_555
C54 N9 1_555 1_555
C55 N10 1_555 1_555
C56 N10 1_555 1_555
C57 N10 1_555 1_555
C63 C64 1_555 1_555
N4 C66 1_555 1_555
H8 C13 1_555 1_555
C58 C59 1_555 1_555
O3 C58 1_555 1_555
O4 C58 1_555 1_555
Tb3 O3 1_555 1_555
O4 Tb3 1_555 1_555
H8_2 C13_2 1_555 1_555
C58_2 C59_2 1_555 1_555
O3_2 C58_2 1_555 1_555
O4_2 C58_2 1_555 1_555
Tb4 O3_2 1_555 1_555
O4_2 Tb4 1_555 1_555
Ni1_2 N1_2 1_555 1_555
H5_2 C8_2 1_555 1_555
H6_2 C8_2 1_555 1_555
C9_2 C52_2 1_555 1_555
C10_2 C11_2 1_555 1_555
C11_2 C12_2 1_555 1_555
H9_2 C14_2 1_555 1_555
C15_2 C10_2 1_555 1_555
H10_2 C15_2 1_555 1_555
C16_2 C57_2 1_555 1_555
C17_2 C18_2 1_555 1_555
C18_2 C22_2 1_555 1_555
C19_2 C17_2 1_555 1_555
C20_2 C19_2 1_555 1_555
C21_2 C20_2 1_555 1_555
H13_2 C21_2 1_555 1_555
C22_2 C21_2 1_555 1_555
H14_2 C22_2 1_555 1_555
C23_2 H15_2 1_555 1_555
H16_2 C23_2 1_555 1_555
C24_2 C23_2 1_555 1_555
C25_2 C24_2 1_555 1_555
H17_2 C25_2 1_555 1_555
C26_2 C25_2 1_555 1_555
H18_2 C26_2 1_555 1_555
C27_2 C26_2 1_555 1_555
C28_2 C27_2 1_555 1_555
H19_2 C28_2 1_555 1_555
C29_2 C24_2 1_555 1_555
H20_2 C29_2 1_555 1_555
C30_2 C56_2 1_555 1_555
C31_2 C32_2 1_555 1_555
C32_2 C33_2 1_555 1_555
C33_2 H21_2 1_555 1_555
C34_2 C33_2 1_555 1_555
H22_2 C34_2 1_555 1_555
C52_2 H35_2 1_555 1_555
H36_2 C52_2 1_555 1_555
C53_2 H37_2 1_555 1_555
H38_2 C53_2 1_555 1_555
C54_2 H39_2 1_555 1_555
H40_2 C54_2 1_555 1_555
C55_2 C54_2 1_555 1_555
H41_2 C55_2 1_555 1_555
H42_2 C55_2 1_555 1_555
C56_2 H43_2 1_555 1_555
H44_2 C56_2 1_555 1_555
C57_2 H45_2 1_555 1_555
H46_2 C57_2 1_555 1_555
C60_2 H47_2 1_555 1_555
C61_2 C60_2 1_555 1_555
H48_2 C61_2 1_555 1_555
C62_2 C61_2 1_555 1_555
C63_2 C62_2 1_555 1_555
H49_2 C63_2 1_555 1_555
C65_2 C27_2 1_555 1_555
N1_2 C9_2 1_555 1_555
N2_2 C8_2 1_555 1_555
N3_2 Ni1_2 1_555 1_555
N4_2 C16_2 1_555 1_555
N5_2 C23_2 1_555 1_555
N6_2 Ni1_2 1_555 1_555
N9_2 Ni1_2 1_555 1_555
N10_2 Ni1_2 1_555 1_555
O5_2 C65_2 1_555 1_555
O7_2 C65_2 1_555 1_555
C66_2 C62_2 1_555 1_555
H51_2 C66_2 1_555 1_555
H52_2 C66_2 1_555 1_555
Tb3 O7_2 1_555 1_555
Tb5_2 O5_2 1_555 1_555
C9_2 N2_2 1_555 1_555
C10_2 N1_2 1_555 1_555
C11_2 N2_2 1_555 1_555
C14_2 C15_2 1_555 1_555
C16_2 N3_2 1_555 1_555
C17_2 N3_2 1_555 1_555
C18_2 N4_2 1_555 1_555
C28_2 C29_2 1_555 1_555
C30_2 N5_2 1_555 1_555
C30_2 N6_2 1_555 1_555
C31_2 N6_2 1_555 1_555
C32_2 N5_2 1_555 1_555
C52_2 N9_2 1_555 1_555
C53_2 N9_2 1_555 1_555
C54_2 N9_2 1_555 1_555
C55_2 N10_2 1_555 1_555
C56_2 N10_2 1_555 1_555
C57_2 N10_2 1_555 1_555
C63_2 C64_2 1_555 1_555
N4_2 C66_2 1_555 1_555
Tb1_2 O1_2 1_555 1_555
C1_2 C2_2 1_555 1_555
C2_2 C3_2 1_555 1_555
C3_2 H1_2 1_555 1_555
C7_2 C2_2 1_555 1_555
H4_2 C7_2 1_555 1_555
H32_2 C47_2 1_555 1_555
C48_2 C47_2 1_555 1_555
C49_2 C48_2 1_555 1_555
H33_2 C49_2 1_555 1_555
C51_2 C48_2 1_555 1_555
O1_2 C1_2 1_555 1_555
O2_2 Tb1_2 1_555 1_555
O6_2 C51_2 1_555 1_555
O8_2 Tb1_2 1_555 1_555
Tb2_2 O6_2 1_555 1_555
O9_2 Tb1_2 1_555 1_555
O10_2 Tb1_2 1_555 1_555
O11_2 Tb1_2 1_555 1_555
O12_2 Tb1_2 1_555 1_555
O13_2 Tb1_2 1_555 1_555
C1_2 O2_2 1_555 1_555
C51_2 O8_2 1_555 1_555
Ni1_3 N1_3 1_555 1_555
Tb2 O1_3 1_555 1_555
C1_3 C2_3 1_555 1_555
C2_3 C3_3 1_555 1_555
C3_3 H1_3 1_555 1_555
C4_2 C3_3 1_555 1_555
H2_2 C4_2 1_555 1_555
C5_2 C4_2 1_555 1_555
C6_2 C5_2 1_555 1_555
H3_2 C6_2 1_555 1_555
C7_3 C2_3 1_555 1_555
H4_3 C7_3 1_555 1_555
C8_3 C5_2 1_555 1_555
H5_3 C8_3 1_555 1_555
H6_3 C8_3 1_555 1_555
C9_3 C52_3 1_555 1_555
C10_3 C11_3 1_555 1_555
C11_3 C12_3 1_555 1_555
C12_3 H7_3 1_555 1_555
C13_3 C12_3 1_555 1_555
H8_3 C13_3 1_555 1_555
C14_3 C13_3 1_555 1_555
H9_3 C14_3 1_555 1_555
C15_3 C10_3 1_555 1_555
H10_3 C15_3 1_555 1_555
C16_3 C57_3 1_555 1_555
C17_3 C18_3 1_555 1_555
C18_3 C22_3 1_555 1_555
C19_3 C17_3 1_555 1_555
H11_2 C19_3 1_555 1_555
C20_3 C19_3 1_555 1_555
H12_2 C20_3 1_555 1_555
C21_3 C20_3 1_555 1_555
H13_3 C21_3 1_555 1_555
C22_3 C21_3 1_555 1_555
H14_3 C22_3 1_555 1_555
C23_3 H15_3 1_555 1_555
H16_3 C23_3 1_555 1_555
C24_3 C23_3 1_555 1_555
C25_3 C24_3 1_555 1_555
H17_3 C25_3 1_555 1_555
C26_3 C25_3 1_555 1_555
H18_3 C26_3 1_555 1_555
C27_3 C26_3 1_555 1_555
C28_3 C27_3 1_555 1_555
H19_3 C28_3 1_555 1_555
C29_3 C24_3 1_555 1_555
H20_3 C29_3 1_555 1_555
C30_3 C56_3 1_555 1_555
C31_3 C32_3 1_555 1_555
C36_2 C31_3 1_555 1_555
H24_2 C36_2 1_555 1_555
C37_2 C53_3 1_555 1_555
C38_2 C39_2 1_555 1_555
C39_2 C40_2 1_555 1_555
C40_2 H25_2 1_555 1_555
C41_2 C40_2 1_555 1_555
H26_2 C41_2 1_555 1_555
C42_2 C41_2 1_555 1_555
H27_2 C42_2 1_555 1_555
C43_2 C38_2 1_555 1_555
H28_2 C43_2 1_555 1_555
C44_2 H29_2 1_555 1_555
H30_2 C44_2 1_555 1_555
C45_2 C44_2 1_555 1_555
C46_2 C45_2 1_555 1_555
H31_2 C46_2 1_555 1_555
C47_3 C46_2 1_555 1_555
H32_3 C47_3 1_555 1_555
C48_3 C47_3 1_555 1_555
C49_3 C48_3 1_555 1_555
H33_3 C49_3 1_555 1_555
C50_2 C45_2 1_555 1_555
H34_2 C50_2 1_555 1_555
C51_3 C48_3 1_555 1_555
C52_3 H35_3 1_555 1_555
H36_3 C52_3 1_555 1_555
C53_3 H37_3 1_555 1_555
H38_3 C53_3 1_555 1_555
C54_3 H39_3 1_555 1_555
H40_3 C54_3 1_555 1_555
C55_3 C54_3 1_555 1_555
H41_3 C55_3 1_555 1_555
H42_3 C55_3 1_555 1_555
C56_3 H43_3 1_555 1_555
H44_3 C56_3 1_555 1_555
C57_3 H45_3 1_555 1_555
H46_3 C57_3 1_555 1_555
C58_3 C59_3 1_555 1_555
C59_3 C60_3 1_555 1_555
C60_3 H47_3 1_555 1_555
C61_3 C60_3 1_555 1_555
H48_3 C61_3 1_555 1_555
C62_3 C61_3 1_555 1_555
C63_3 C62_3 1_555 1_555
H49_3 C63_3 1_555 1_555
C64_3 C59_3 1_555 1_555
H50_3 C64_3 1_555 1_555
C65_3 C27_3 1_555 1_555
N1_3 C9_3 1_555 1_555
N2_3 C8_3 1_555 1_555
N3_3 Ni1_3 1_555 1_555
N4_3 C16_3 1_555 1_555
N5_3 C23_3 1_555 1_555
N6_3 Ni1_3 1_555 1_555
N7_2 Ni1_3 1_555 1_555
N8_2 C37_2 1_555 1_555
N9_3 Ni1_3 1_555 1_555
N10_3 Ni1_3 1_555 1_555
O1_3 C1_3 1_555 1_555
O2_3 Tb2 1_555 1_555
O3_3 C58_3 1_555 1_555
O4_3 C58_3 1_555 1_555
O5_3 C65_3 1_555 1_555
O12 C51_3 1_555 1_555
O7_3 C65_3 1_555 1_555
O8_3 Tb2 1_555 1_555
C66_3 C62_3 1_555 1_555
H51_3 C66_3 1_555 1_555
H52_3 C66_3 1_555 1_555
Tb5_2 O3_3 1_555 1_555
Tb5 O7_3 1_555 1_555
Tb4 O5_3 1_555 1_555
O9_3 Tb2 1_555 1_555
O10_3 Tb2 1_555 1_555
O11_3 Tb2 1_555 1_555
O13_3 Tb2 1_555 1_555
C1_3 O2_3 1_555 1_555
C6_2 C7_3 1_555 1_555
C9_3 N2_3 1_555 1_555
C10_3 N1_3 1_555 1_555
C11_3 N2_3 1_555 1_555
C14_3 C15_3 1_555 1_555
C16_3 N3_3 1_555 1_555
C17_3 N3_3 1_555 1_555
C18_3 N4_3 1_555 1_555
C28_3 C29_3 1_555 1_555
C30_3 N5_3 1_555 1_555
C30_3 N6_3 1_555 1_555
C31_3 N6_3 1_555 1_555
C32_3 N5_3 1_555 1_555
C35_2 C36_2 1_555 1_555
C37_2 N7_2 1_555 1_555
C38_2 N7_2 1_555 1_555
C39_2 N8_2 1_555 1_555
C42_2 C43_2 1_555 1_555
C44_2 N8_2 1_555 1_555
C49_3 C50_2 1_555 1_555
C51_3 O8_3 1_555 1_555
C52_3 N9_3 1_555 1_555
C53_3 N9_3 1_555 1_555
C54_3 N9_3 1_555 1_555
C55_3 N10_3 1_555 1_555
C56_3 N10_3 1_555 1_555
C57_3 N10_3 1_555 1_555
C63_3 C64_3 1_555 1_555
N4_3 C66_3 1_555 1_555
O4_3 Tb5_2 1_555 1_555
Ni1_4 N1_4 1_555 1_555
H2_3 C4_3 1_555 1_555
H5_4 C8_4 1_555 1_555
H6_4 C8_4 1_555 1_555
C9_4 C52_4 1_555 1_555
C10_4 C11_4 1_555 1_555
C11_4 C12_4 1_555 1_555
C12_4 H7_4 1_555 1_555
C13_4 C12_4 1_555 1_555
H8_4 C13_4 1_555 1_555
C14_4 C13_4 1_555 1_555
H9_4 C14_4 1_555 1_555
C15_4 C10_4 1_555 1_555
H10_4 C15_4 1_555 1_555
C16_4 C57_4 1_555 1_555
C17_4 C18_4 1_555 1_555
C18_4 C22_4 1_555 1_555
C19_4 C17_4 1_555 1_555
H11_3 C19_4 1_555 1_555
C20_4 C19_4 1_555 1_555
H12_3 C20_4 1_555 1_555
C21_4 C20_4 1_555 1_555
H13_4 C21_4 1_555 1_555
C22_4 C21_4 1_555 1_555
H14_4 C22_4 1_555 1_555
C23_4 H15_4 1_555 1_555
H16_4 C23_4 1_555 1_555
C24_4 C23_4 1_555 1_555
C25_4 C24_4 1_555 1_555
H17_4 C25_4 1_555 1_555
C26_4 C25_4 1_555 1_555
H18_4 C26_4 1_555 1_555
C27_4 C26_4 1_555 1_555
C28_4 C27_4 1_555 1_555
H19_4 C28_4 1_555 1_555
C29_4 C24_4 1_555 1_555
H20_4 C29_4 1_555 1_555
C30_4 C56_4 1_555 1_555
C31_4 C32_4 1_555 1_555
C36_3 C31_4 1_555 1_555
H24_3 C36_3 1_555 1_555
C37_3 C53_4 1_555 1_555
C38_3 C39_3 1_555 1_555
C39_3 C40_3 1_555 1_555
C40_3 H25_3 1_555 1_555
C41_3 C40_3 1_555 1_555
H26_3 C41_3 1_555 1_555
C42_3 C41_3 1_555 1_555
H27_3 C42_3 1_555 1_555
C43_3 C38_3 1_555 1_555
H28_3 C43_3 1_555 1_555
C44_3 H29_3 1_555 1_555
H30_3 C44_3 1_555 1_555
C45_3 C44_3 1_555 1_555
C46_3 C45_3 1_555 1_555
H31_3 C46_3 1_555 1_555
C50_3 C45_3 1_555 1_555
H34_3 C50_3 1_555 1_555
C52_4 H35_4 1_555 1_555
H36_4 C52_4 1_555 1_555
C53_4 H37_4 1_555 1_555
H38_4 C53_4 1_555 1_555
C54_4 H39_4 1_555 1_555
H40_4 C54_4 1_555 1_555
C55_4 C54_4 1_555 1_555
H41_4 C55_4 1_555 1_555
H42_4 C55_4 1_555 1_555
C56_4 H43_4 1_555 1_555
H44_4 C56_4 1_555 1_555
C57_4 H45_4 1_555 1_555
H46_4 C57_4 1_555 1_555
C58_4 C59_4 1_555 1_555
C59_4 C60_4 1_555 1_555
C60_4 H47_4 1_555 1_555
C61_4 C60_4 1_555 1_555
H48_4 C61_4 1_555 1_555
C62_4 C61_4 1_555 1_555
C63_4 C62_4 1_555 1_555
H49_4 C63_4 1_555 1_555
C64_4 C59_4 1_555 1_555
H50_4 C64_4 1_555 1_555
C65_4 C27_4 1_555 1_555
N1_4 C9_4 1_555 1_555
N2_4 C8_4 1_555 1_555
N3_4 Ni1_4 1_555 1_555
N4_4 C16_4 1_555 1_555
N5_4 C23_4 1_555 1_555
N6_4 Ni1_4 1_555 1_555
N7_3 Ni1_4 1_555 1_555
N8_3 C37_3 1_555 1_555
N9_4 Ni1_4 1_555 1_555
N10_4 Ni1_4 1_555 1_555
O3_4 C58_4 1_555 1_555
O4_4 C58_4 1_555 1_555
O5_4 C65_4 1_555 1_555
O7_4 C65_4 1_555 1_555
C66_4 C62_4 1_555 1_555
H51_4 C66_4 1_555 1_555
H52_4 C66_4 1_555 1_555
Tb5 O3_4 1_555 1_555
Tb5_2 O7_4 1_555 1_555
Tb3 O5_4 1_555 1_555
C9_4 N2_4 1_555 1_555
C10_4 N1_4 1_555 1_555
C11_4 N2_4 1_555 1_555
C14_4 C15_4 1_555 1_555
C16_4 N3_4 1_555 1_555
C17_4 N3_4 1_555 1_555
C18_4 N4_4 1_555 1_555
C28_4 C29_4 1_555 1_555
C30_4 N5_4 1_555 1_555
C30_4 N6_4 1_555 1_555
C31_4 N6_4 1_555 1_555
C32_4 N5_4 1_555 1_555
C35_3 C36_3 1_555 1_555
C37_3 N7_3 1_555 1_555
C38_3 N7_3 1_555 1_555
C39_3 N8_3 1_555 1_555
C42_3 C43_3 1_555 1_555
C44_3 N8_3 1_555 1_555
C52_4 N9_4 1_555 1_555
C53_4 N9_4 1_555 1_555
C54_4 N9_4 1_555 1_555
C55_4 N10_4 1_555 1_555
C56_4 N10_4 1_555 1_555
C57_4 N10_4 1_555 1_555
C63_4 C64_4 1_555 1_555
N4_4 C66_4 1_555 1_555
O4_4 Tb5 1_555 1_555
Tb2_2 O1_4 1_555 1_555
C1_4 C2_4 1_555 1_555
C2_4 C3_4 1_555 1_555
C3_4 H1_4 1_555 1_555
C6_3 C5_3 1_555 1_555
H3_3 C6_3 1_555 1_555
C7_4 C2_4 1_555 1_555
H4_4 C7_4 1_555 1_555
H32_4 C47_4 1_555 1_555
C48_4 C47_4 1_555 1_555
C49_4 C48_4 1_555 1_555
H33_4 C49_4 1_555 1_555
C51_4 C48_4 1_555 1_555
O1_4 C1_4 1_555 1_555
O2_4 Tb2_2 1_555 1_555
O12_2 C51_4 1_555 1_555
O8_4 Tb2_2 1_555 1_555
O9_4 Tb2_2 1_555 1_555
O10_4 Tb2_2 1_555 1_555
O11_4 Tb2_2 1_555 1_555
O13_4 Tb2_2 1_555 1_555
C1_4 O2_4 1_555 1_555
C6_3 C7_4 1_555 1_555
C51_4 O8_4 1_555 1_555
H8_5 C13_5 1_555 1_555
C58_5 C59_5 1_555 1_555
O9 C58_5 1_555 1_555
O10 C58_5 1_555 1_555
Ni1_5 N1_5 1_555 1_555
C6_4 C5_4 1_555 1_555
H3_4 C6_4 1_555 1_555
C8_5 C5_4 1_555 1_555
H5_5 C8_5 1_555 1_555
H6_5 C8_5 1_555 1_555
C9_5 C52_5 1_555 1_555
C10_5 C11_5 1_555 1_555
C11_5 C12_5 1_555 1_555
H9_5 C14_5 1_555 1_555
C15_5 C10_5 1_555 1_555
H10_5 C15_5 1_555 1_555
C16_5 C57_5 1_555 1_555
C17_5 C18_5 1_555 1_555
C18_5 C22_5 1_555 1_555
C19_5 C17_5 1_555 1_555
C20_5 C19_5 1_555 1_555
C21_5 C20_5 1_555 1_555
H13_5 C21_5 1_555 1_555
C22_5 C21_5 1_555 1_555
H14_5 C22_5 1_555 1_555
C23_5 H15_5 1_555 1_555
H16_5 C23_5 1_555 1_555
C24_5 C23_5 1_555 1_555
C25_5 C24_5 1_555 1_555
H17_5 C25_5 1_555 1_555
C26_5 C25_5 1_555 1_555
H18_5 C26_5 1_555 1_555
C27_5 C26_5 1_555 1_555
C28_5 C27_5 1_555 1_555
H19_5 C28_5 1_555 1_555
C29_5 C24_5 1_555 1_555
H20_5 C29_5 1_555 1_555
C30_5 C56_5 1_555 1_555
C31_5 C32_5 1_555 1_555
C32_5 C33_3 1_555 1_555
C33_3 H21_3 1_555 1_555
C34_3 C33_3 1_555 1_555
H22_3 C34_3 1_555 1_555
C52_5 H35_5 1_555 1_555
H36_5 C52_5 1_555 1_555
C53_5 H37_5 1_555 1_555
H38_5 C53_5 1_555 1_555
C54_5 H39_5 1_555 1_555
H40_5 C54_5 1_555 1_555
C55_5 C54_5 1_555 1_555
H41_5 C55_5 1_555 1_555
H42_5 C55_5 1_555 1_555
C56_5 H43_5 1_555 1_555
H44_5 C56_5 1_555 1_555
C57_5 H45_5 1_555 1_555
H46_5 C57_5 1_555 1_555
C60_5 H47_5 1_555 1_555
C61_5 C60_5 1_555 1_555
H48_5 C61_5 1_555 1_555
C62_5 C61_5 1_555 1_555
C63_5 C62_5 1_555 1_555
H49_5 C63_5 1_555 1_555
C65_5 C27_5 1_555 1_555
N1_5 C9_5 1_555 1_555
N2_5 C8_5 1_555 1_555
N3_5 Ni1_5 1_555 1_555
N4_5 C16_5 1_555 1_555
N5_5 C23_5 1_555 1_555
N6_5 Ni1_5 1_555 1_555
N9_5 Ni1_5 1_555 1_555
N10_5 Ni1_5 1_555 1_555
O11_4 C65_5 1_555 1_555
O13_2 C65_5 1_555 1_555
C66_5 C62_5 1_555 1_555
H51_5 C66_5 1_555 1_555
H52_5 C66_5 1_555 1_555
C9_5 N2_5 1_555 1_555
C10_5 N1_5 1_555 1_555
C11_5 N2_5 1_555 1_555
C14_5 C15_5 1_555 1_555
C16_5 N3_5 1_555 1_555
C17_5 N3_5 1_555 1_555
C18_5 N4_5 1_555 1_555
C28_5 C29_5 1_555 1_555
C30_5 N5_5 1_555 1_555
C30_5 N6_5 1_555 1_555
C31_5 N6_5 1_555 1_555
C32_5 N5_5 1_555 1_555
C52_5 N9_5 1_555 1_555
C53_5 N9_5 1_555 1_555
C54_5 N9_5 1_555 1_555
C55_5 N10_5 1_555 1_555
C56_5 N10_5 1_555 1_555
C57_5 N10_5 1_555 1_555
C63_5 C64_5 1_555 1_555
N4_5 C66_5 1_555 1_555
Tb3 O1_5 1_555 1_555
C1_5 C2_5 1_555 1_555
C2_5 C3_5 1_555 1_555
C3_5 H1_5 1_555 1_555
C4_4 C3_5 1_555 1_555
H2_4 C4_4 1_555 1_555
C7_5 C2_5 1_555 1_555
H4_5 C7_5 1_555 1_555
H23_2 C35_4 1_555 1_555
H24_4 C36_4 1_555 1_555
C38_4 C39_4 1_555 1_555
C39_4 C40_4 1_555 1_555
C40_4 H25_4 1_555 1_555
C41_4 C40_4 1_555 1_555
H26_4 C41_4 1_555 1_555
C42_4 C41_4 1_555 1_555
H27_4 C42_4 1_555 1_555
C43_4 C38_4 1_555 1_555
H28_4 C43_4 1_555 1_555
C44_4 H29_4 1_555 1_555
H30_4 C44_4 1_555 1_555
C45_4 C44_4 1_555 1_555
C46_4 C45_4 1_555 1_555
H31_4 C46_4 1_555 1_555
C47_5 C46_4 1_555 1_555
H32_5 C47_5 1_555 1_555
C48_5 C47_5 1_555 1_555
C49_5 C48_5 1_555 1_555
H33_5 C49_5 1_555 1_555
C50_4 C45_4 1_555 1_555
H34_4 C50_4 1_555 1_555
C51_5 C48_5 1_555 1_555
N8_4 C37_4 1_555 1_555
O1_5 C1_5 1_555 1_555
O2_5 Tb3 1_555 1_555
O6_3 C51_5 1_555 1_555
O8_5 Tb3 1_555 1_555
Tb5_2 O6_3 1_555 1_555
O12_3 Tb3 1_555 1_555
C1_5 O2_5 1_555 1_555
C35_4 C36_4 1_555 1_555
C37_4 N7_4 1_555 1_555
C38_4 N7_4 1_555 1_555
C39_4 N8_4 1_555 1_555
C42_4 C43_4 1_555 1_555
C44_4 N8_4 1_555 1_555
C49_5 C50_4 1_555 1_555
C51_5 O8_5 1_555 1_555
Tb4 O1_6 1_555 1_555
C1_6 C2_6 1_555 1_555
C2_6 C3_6 1_555 1_555
C3_6 H1_6 1_555 1_555
C7_6 C2_6 1_555 1_555
H4_6 C7_6 1_555 1_555
H32_6 C47_6 1_555 1_555
C48_6 C47_6 1_555 1_555
C49_6 C48_6 1_555 1_555
H33_6 C49_6 1_555 1_555
C51_6 C48_6 1_555 1_555
O1_6 C1_6 1_555 1_555
O2_6 Tb4 1_555 1_555
O6_4 C51_6 1_555 1_555
O8_6 Tb4 1_555 1_555
Tb5 O6_4 1_555 1_555
O12_4 Tb4 1_555 1_555
C1_6 O2_6 1_555 1_555
C51_6 O8_6 1_555 1_555
Ni1_6 N1_6 1_555 1_555
H5_6 C8_6 1_555 1_555
H6_6 C8_6 1_555 1_555
C9_6 C52_6 1_555 1_555
C10_6 C11_6 1_555 1_555
C11_6 C12_6 1_555 1_555
H9_6 C14_6 1_555 1_555
C15_6 C10_6 1_555 1_555
H10_6 C15_6 1_555 1_555
C16_6 C57_6 1_555 1_555
C17_6 C18_6 1_555 1_555
C18_6 C22_6 1_555 1_555
C19_6 C17_6 1_555 1_555
C20_6 C19_6 1_555 1_555
C21_6 C20_6 1_555 1_555
H13_6 C21_6 1_555 1_555
C22_6 C21_6 1_555 1_555
H14_6 C22_6 1_555 1_555
C23_6 H15_6 1_555 1_555
H16_6 C23_6 1_555 1_555
C24_6 C23_6 1_555 1_555
C25_6 C24_6 1_555 1_555
H17_6 C25_6 1_555 1_555
C26_6 C25_6 1_555 1_555
H18_6 C26_6 1_555 1_555
C27_6 C26_6 1_555 1_555
C28_6 C27_6 1_555 1_555
H19_6 C28_6 1_555 1_555
C29_6 C24_6 1_555 1_555
H20_6 C29_6 1_555 1_555
C30_6 C56_6 1_555 1_555
C31_6 C32_6 1_555 1_555
C32_6 C33_4 1_555 1_555
C33_4 H21_4 1_555 1_555
C34_4 C33_4 1_555 1_555
H22_4 C34_4 1_555 1_555
C52_6 H35_6 1_555 1_555
H36_6 C52_6 1_555 1_555
C53_6 H37_6 1_555 1_555
H38_6 C53_6 1_555 1_555
C54_6 H39_6 1_555 1_555
H40_6 C54_6 1_555 1_555
C55_6 C54_6 1_555 1_555
H41_6 C55_6 1_555 1_555
H42_6 C55_6 1_555 1_555
C56_6 H43_6 1_555 1_555
H44_6 C56_6 1_555 1_555
C57_6 H45_6 1_555 1_555
H46_6 C57_6 1_555 1_555
C60_6 H47_6 1_555 1_555
C61_6 C60_6 1_555 1_555
H48_6 C61_6 1_555 1_555
C62_6 C61_6 1_555 1_555
C63_6 C62_6 1_555 1_555
H49_6 C63_6 1_555 1_555
C65_6 C27_6 1_555 1_555
N1_6 C9_6 1_555 1_555
N2_6 C8_6 1_555 1_555
N3_6 Ni1_6 1_555 1_555
N4_6 C16_6 1_555 1_555
N5_6 C23_6 1_555 1_555
N6_6 Ni1_6 1_555 1_555
N9_6 Ni1_6 1_555 1_555
N10_6 Ni1_6 1_555 1_555
O11_3 C65_6 1_555 1_555
O13 C65_6 1_555 1_555
C66_6 C62_6 1_555 1_555
H51_6 C66_6 1_555 1_555
H52_6 C66_6 1_555 1_555
C9_6 N2_6 1_555 1_555
C10_6 N1_6 1_555 1_555
C11_6 N2_6 1_555 1_555
C14_6 C15_6 1_555 1_555
C16_6 N3_6 1_555 1_555
C17_6 N3_6 1_555 1_555
C18_6 N4_6 1_555 1_555
C28_6 C29_6 1_555 1_555
C30_6 N5_6 1_555 1_555
C30_6 N6_6 1_555 1_555
C31_6 N6_6 1_555 1_555
C32_6 N5_6 1_555 1_555
C52_6 N9_6 1_555 1_555
C53_6 N9_6 1_555 1_555
C54_6 N9_6 1_555 1_555
C55_6 N10_6 1_555 1_555
C56_6 N10_6 1_555 1_555
C57_6 N10_6 1_555 1_555
C63_6 C64_6 1_555 1_555
N4_6 C66_6 1_555 1_555
H8_6 C13_6 1_555 1_555
C58_6 C59_6 1_555 1_555
O9_2 C58_6 1_555 1_555
O10_2 C58_6 1_555 1_555
Ni1_7 N1_7 1_555 1_555
Tb5_2 O1_7 1_555 1_555
C1_7 C2_7 1_555 1_555
C2_7 C3_7 1_555 1_555
C3_7 H1_7 1_555 1_555
C4_5 C3_7 1_555 1_555
H2_5 C4_5 1_555 1_555
C5_5 C4_5 1_555 1_555
C6_5 C5_5 1_555 1_555
H3_5 C6_5 1_555 1_555
C7_7 C2_7 1_555 1_555
H4_7 C7_7 1_555 1_555
C8_7 C5_5 1_555 1_555
H5_7 C8_7 1_555 1_555
H6_7 C8_7 1_555 1_555
C9_7 C52_7 1_555 1_555
C10_7 C11_7 1_555 1_555
C11_7 C12_7 1_555 1_555
C12_7 H7_7 1_555 1_555
C13_7 C12_7 1_555 1_555
H8_7 C13_7 1_555 1_555
C14_7 C13_7 1_555 1_555
H9_7 C14_7 1_555 1_555
C15_7 C10_7 1_555 1_555
H10_7 C15_7 1_555 1_555
C16_7 C57_7 1_555 1_555
C17_7 C18_7 1_555 1_555
C18_7 C22_7 1_555 1_555
C19_7 C17_7 1_555 1_555
H11_5 C19_7 1_555 1_555
C20_7 C19_7 1_555 1_555
H12_5 C20_7 1_555 1_555
C21_7 C20_7 1_555 1_555
H13_7 C21_7 1_555 1_555
C22_7 C21_7 1_555 1_555
H14_7 C22_7 1_555 1_555
C23_7 H15_7 1_555 1_555
H16_7 C23_7 1_555 1_555
C24_7 C23_7 1_555 1_555
C25_7 C24_7 1_555 1_555
H17_7 C25_7 1_555 1_555
C26_7 C25_7 1_555 1_555
H18_7 C26_7 1_555 1_555
C27_7 C26_7 1_555 1_555
C28_7 C27_7 1_555 1_555
H19_7 C28_7 1_555 1_555
C29_7 C24_7 1_555 1_555
H20_7 C29_7 1_555 1_555
C30_7 C56_7 1_555 1_555
C31_7 C32_7 1_555 1_555
C36_5 C31_7 1_555 1_555
H24_5 C36_5 1_555 1_555
C37_5 C53_7 1_555 1_555
C38_5 C39_5 1_555 1_555
C39_5 C40_5 1_555 1_555
C40_5 H25_5 1_555 1_555
C41_5 C40_5 1_555 1_555
H26_5 C41_5 1_555 1_555
C42_5 C41_5 1_555 1_555
H27_5 C42_5 1_555 1_555
C43_5 C38_5 1_555 1_555
H28_5 C43_5 1_555 1_555
C44_5 H29_5 1_555 1_555
H30_5 C44_5 1_555 1_555
C45_5 C44_5 1_555 1_555
C46_5 C45_5 1_555 1_555
H31_5 C46_5 1_555 1_555
C47_7 C46_5 1_555 1_555
H32_7 C47_7 1_555 1_555
C48_7 C47_7 1_555 1_555
C49_7 C48_7 1_555 1_555
H33_7 C49_7 1_555 1_555
C50_5 C45_5 1_555 1_555
H34_5 C50_5 1_555 1_555
C51_7 C48_7 1_555 1_555
C52_7 H35_7 1_555 1_555
H36_7 C52_7 1_555 1_555
C53_7 H37_7 1_555 1_555
H38_7 C53_7 1_555 1_555
C54_7 H39_7 1_555 1_555
H40_7 C54_7 1_555 1_555
C55_7 C54_7 1_555 1_555
H41_7 C55_7 1_555 1_555
H42_7 C55_7 1_555 1_555
C56_7 H43_7 1_555 1_555
H44_7 C56_7 1_555 1_555
C57_7 H45_7 1_555 1_555
H46_7 C57_7 1_555 1_555
C58_7 C59_7 1_555 1_555
C59_7 C60_7 1_555 1_555
C60_7 H47_7 1_555 1_555
C61_7 C60_7 1_555 1_555
H48_7 C61_7 1_555 1_555
C62_7 C61_7 1_555 1_555
C63_7 C62_7 1_555 1_555
H49_7 C63_7 1_555 1_555
C64_7 C59_7 1_555 1_555
H50_7 C64_7 1_555 1_555
C65_7 C27_7 1_555 1_555
N1_7 C9_7 1_555 1_555
N2_7 C8_7 1_555 1_555
N3_7 Ni1_7 1_555 1_555
N4_7 C16_7 1_555 1_555
N5_7 C23_7 1_555 1_555
N6_7 Ni1_7 1_555 1_555
N7_5 Ni1_7 1_555 1_555
N8_5 C37_5 1_555 1_555
N9_7 Ni1_7 1_555 1_555
N10_7 Ni1_7 1_555 1_555
O1_7 C1_7 1_555 1_555
O2_7 Tb5_2 1_555 1_555
O9_3 C58_7 1_555 1_555
O10_3 C58_7 1_555 1_555
O11_2 C65_7 1_555 1_555
O12_3 C51_7 1_555 1_555
O13_4 C65_7 1_555 1_555
O8_7 Tb5_2 1_555 1_555
C66_7 C62_7 1_555 1_555
H51_7 C66_7 1_555 1_555
H52_7 C66_7 1_555 1_555
C1_7 O2_7 1_555 1_555
C6_5 C7_7 1_555 1_555
C9_7 N2_7 1_555 1_555
C10_7 N1_7 1_555 1_555
C11_7 N2_7 1_555 1_555
C14_7 C15_7 1_555 1_555
C16_7 N3_7 1_555 1_555
C17_7 N3_7 1_555 1_555
C18_7 N4_7 1_555 1_555
C28_7 C29_7 1_555 1_555
C30_7 N5_7 1_555 1_555
C30_7 N6_7 1_555 1_555
C31_7 N6_7 1_555 1_555
C32_7 N5_7 1_555 1_555
C35_5 C36_5 1_555 1_555
C37_5 N7_5 1_555 1_555
C38_5 N7_5 1_555 1_555
C39_5 N8_5 1_555 1_555
C42_5 C43_5 1_555 1_555
C44_5 N8_5 1_555 1_555
C49_7 C50_5 1_555 1_555
C51_7 O8_7 1_555 1_555
C52_7 N9_7 1_555 1_555
C53_7 N9_7 1_555 1_555
C54_7 N9_7 1_555 1_555
C55_7 N10_7 1_555 1_555
C56_7 N10_7 1_555 1_555
C57_7 N10_7 1_555 1_555
C63_7 C64_7 1_555 1_555
N4_7 C66_7 1_555 1_555
Tb5 O1_8 1_555 1_555
C1_8 C2_8 1_555 1_555
C2_8 C3_8 1_555 1_555
C3_8 H1_8 1_555 1_555
C6_6 C5_6 1_555 1_555
H3_6 C6_6 1_555 1_555
C7_8 C2_8 1_555 1_555
H4_8 C7_8 1_555 1_555
H32_8 C47_8 1_555 1_555
C48_8 C47_8 1_555 1_555
C49_8 C48_8 1_555 1_555
H33_8 C49_8 1_555 1_555
C51_8 C48_8 1_555 1_555
O1_8 C1_8 1_555 1_555
O2_8 Tb5 1_555 1_555
O12_4 C51_8 1_555 1_555
O8_8 Tb5 1_555 1_555
C1_8 O2_8 1_555 1_555
C6_6 C7_8 1_555 1_555
C51_8 O8_8 1_555 1_555
Ni1_8 N1_8 1_555 1_555
H2_6 C4_6 1_555 1_555
H5_8 C8_8 1_555 1_555
H6_8 C8_8 1_555 1_555
C9_8 C52_8 1_555 1_555
C10_8 C11_8 1_555 1_555
C11_8 C12_8 1_555 1_555
C12_8 H7_8 1_555 1_555
C13_8 C12_8 1_555 1_555
H8_8 C13_8 1_555 1_555
C14_8 C13_8 1_555 1_555
H9_8 C14_8 1_555 1_555
C15_8 C10_8 1_555 1_555
H10_8 C15_8 1_555 1_555
C16_8 C57_8 1_555 1_555
C17_8 C18_8 1_555 1_555
C18_8 C22_8 1_555 1_555
C19_8 C17_8 1_555 1_555
H11_6 C19_8 1_555 1_555
C20_8 C19_8 1_555 1_555
H12_6 C20_8 1_555 1_555
C21_8 C20_8 1_555 1_555
H13_8 C21_8 1_555 1_555
C22_8 C21_8 1_555 1_555
H14_8 C22_8 1_555 1_555
C23_8 H15_8 1_555 1_555
H16_8 C23_8 1_555 1_555
C24_8 C23_8 1_555 1_555
C25_8 C24_8 1_555 1_555
H17_8 C25_8 1_555 1_555
C26_8 C25_8 1_555 1_555
H18_8 C26_8 1_555 1_555
C27_8 C26_8 1_555 1_555
C28_8 C27_8 1_555 1_555
H19_8 C28_8 1_555 1_555
C29_8 C24_8 1_555 1_555
H20_8 C29_8 1_555 1_555
C30_8 C56_8 1_555 1_555
C31_8 C32_8 1_555 1_555
C36_6 C31_8 1_555 1_555
H24_6 C36_6 1_555 1_555
C37_6 C53_8 1_555 1_555
C38_6 C39_6 1_555 1_555
C39_6 C40_6 1_555 1_555
C40_6 H25_6 1_555 1_555
C41_6 C40_6 1_555 1_555
H26_6 C41_6 1_555 1_555
C42_6 C41_6 1_555 1_555
H27_6 C42_6 1_555 1_555
C43_6 C38_6 1_555 1_555
H28_6 C43_6 1_555 1_555
C44_6 H29_6 1_555 1_555
H30_6 C44_6 1_555 1_555
C45_6 C44_6 1_555 1_555
C46_6 C45_6 1_555 1_555
H31_6 C46_6 1_555 1_555
C50_6 C45_6 1_555 1_555
H34_6 C50_6 1_555 1_555
C52_8 H35_8 1_555 1_555
H36_8 C52_8 1_555 1_555
C53_8 H37_8 1_555 1_555
H38_8 C53_8 1_555 1_555
C54_8 H39_8 1_555 1_555
H40_8 C54_8 1_555 1_555
C55_8 C54_8 1_555 1_555
H41_8 C55_8 1_555 1_555
H42_8 C55_8 1_555 1_555
C56_8 H43_8 1_555 1_555
H44_8 C56_8 1_555 1_555
C57_8 H45_8 1_555 1_555
H46_8 C57_8 1_555 1_555
C58_8 C59_8 1_555 1_555
C59_8 C60_8 1_555 1_555
C60_8 H47_8 1_555 1_555
C61_8 C60_8 1_555 1_555
H48_8 C61_8 1_555 1_555
C62_8 C61_8 1_555 1_555
C63_8 C62_8 1_555 1_555
H49_8 C63_8 1_555 1_555
C64_8 C59_8 1_555 1_555
H50_8 C64_8 1_555 1_555
C65_8 C27_8 1_555 1_555
N1_8 C9_8 1_555 1_555
N2_8 C8_8 1_555 1_555
N3_8 Ni1_8 1_555 1_555
N4_8 C16_8 1_555 1_555
N5_8 C23_8 1_555 1_555
N6_8 Ni1_8 1_555 1_555
N7_6 Ni1_8 1_555 1_555
N8_6 C37_6 1_555 1_555
N9_8 Ni1_8 1_555 1_555
N10_8 Ni1_8 1_555 1_555
O9_4 C58_8 1_555 1_555
O10_4 C58_8 1_555 1_555
O11 C65_8 1_555 1_555
O13_3 C65_8 1_555 1_555
C66_8 C62_8 1_555 1_555
H51_8 C66_8 1_555 1_555
H52_8 C66_8 1_555 1_555
C9_8 N2_8 1_555 1_555
C10_8 N1_8 1_555 1_555
C11_8 N2_8 1_555 1_555
C14_8 C15_8 1_555 1_555
C16_8 N3_8 1_555 1_555
C17_8 N3_8 1_555 1_555
C18_8 N4_8 1_555 1_555
C28_8 C29_8 1_555 1_555
C30_8 N5_8 1_555 1_555
C30_8 N6_8 1_555 1_555
C31_8 N6_8 1_555 1_555
C32_8 N5_8 1_555 1_555
C35_6 C36_6 1_555 1_555
C37_6 N7_6 1_555 1_555
C38_6 N7_6 1_555 1_555
C39_6 N8_6 1_555 1_555
C42_6 C43_6 1_555 1_555
C44_6 N8_6 1_555 1_555
C52_8 N9_8 1_555 1_555
C53_8 N9_8 1_555 1_555
C54_8 N9_8 1_555 1_555
C55_8 N10_8 1_555 1_555
C56_8 N10_8 1_555 1_555
C57_8 N10_8 1_555 1_555
C63_8 C64_8 1_555 1_555
N4_8 C66_8 1_555 1_555
H2_7 C4_7 1_555 1_555
H23_3 C35_7 1_555 1_555
H24_7 C36_7 1_555 1_555
C38_7 C39_7 1_555 1_555
C39_7 C40_7 1_555 1_555
C40_7 H25_7 1_555 1_555
C41_7 C40_7 1_555 1_555
H26_7 C41_7 1_555 1_555
C42_7 C41_7 1_555 1_555
H27_7 C42_7 1_555 1_555
C43_7 C38_7 1_555 1_555
H28_7 C43_7 1_555 1_555
C44_7 H29_7 1_555 1_555
H30_7 C44_7 1_555 1_555
C45_7 C44_7 1_555 1_555
C46_7 C45_7 1_555 1_555
H31_7 C46_7 1_555 1_555
C50_7 C45_7 1_555 1_555
H34_7 C50_7 1_555 1_555
N8_7 C37_7 1_555 1_555
C35_7 C36_7 1_555 1_555
C37_7 N7_7 1_555 1_555
C38_7 N7_7 1_555 1_555
C39_7 N8_7 1_555 1_555
C42_7 C43_7 1_555 1_555
C44_7 N8_7 1_555 1_555
C6_7 C5_7 1_555 1_555
H3_7 C6_7 1_555 1_555
C33_5 H21_5 1_555 1_555
C34_5 C33_5 1_555 1_555
H22_5 C34_5 1_555 1_555
C33_6 H21_6 1_555 1_555
C34_6 C33_6 1_555 1_555
H22_6 C34_6 1_555 1_555
C6_8 C5_8 1_555 1_555
H3_8 C6_8 1_555 1_555
H2_8 C4_8 1_555 1_555
H23_6 C35_8 1_555 1_555
H24_8 C36_8 1_555 1_555
C38_8 C39_8 1_555 1_555
C39_8 C40_8 1_555 1_555
C40_8 H25_8 1_555 1_555
C41_8 C40_8 1_555 1_555
H26_8 C41_8 1_555 1_555
C42_8 C41_8 1_555 1_555
H27_8 C42_8 1_555 1_555
C43_8 C38_8 1_555 1_555
H28_8 C43_8 1_555 1_555
C44_8 H29_8 1_555 1_555
H30_8 C44_8 1_555 1_555
C45_8 C44_8 1_555 1_555
C46_8 C45_8 1_555 1_555
H31_8 C46_8 1_555 1_555
C50_8 C45_8 1_555 1_555
H34_8 C50_8 1_555 1_555
N8_8 C37_8 1_555 1_555
C35_8 C36_8 1_555 1_555
C37_8 N7_8 1_555 1_555
C38_8 N7_8 1_555 1_555
C39_8 N8_8 1_555 1_555
C42_8 C43_8 1_555 1_555
C44_8 N8_8 1_555 1_555
C33_7 H21_7 1_555 1_555
C34_7 C33_7 1_555 1_555
H22_7 C34_7 1_555 1_555
C33_8 H21_8 1_555 1_555
C34_8 C33_8 1_555 1_555
H22_8 C34_8 1_555 1_555

#END
