
###############################################################################
#
# This file contains modified crystal structure data generated from the
# MOF subset of the Cambridge Structural Database (CSD) v543 
# hosted by the Cambridge Crystallographic Data Centre (CCDC).
#
# This work is licensed under the Creative Commons
# Attribution-NonCommercial-ShareAlike 4.0 International License.
# To view a copy of this license, visit
# http://creativecommons.org/licenses/by-nc-sa/4.0/
# or send a letter to
# Creative Commons, PO Box 1866, Mountain View, CA 94042, USA.
#
# CIF created using the CSD Python API on 29 September 2022
# The structure has been converted into the P1 space group
# The structure has a 3D framework
# The original CSD entry RIFMOK is in the orthorhombic crystal system
# The framework has been calculated to contain at least 10.0% void space
# The void calculation uses a probe of radius 1.32A, grid spacing 0.4
# The framework is charged, counterions have been retained in the structure
#
###############################################################################

data_RIFMOK
_chemical_formula_moiety         '(C528 H416 Eu8 N80 Ni8 O64 8+)n'
_symmetry_cell_setting           triclinic
_symmetry_space_group_name_H-M   'P 1'
_symmetry_Int_Tables_number      1
_space_group_name_Hall           'P 1'
loop_
_symmetry_equiv_pos_site_id
_symmetry_equiv_pos_as_xyz
1 x,y,z
_cell_length_a                   33.621(3)
_cell_length_b                   21.4450(19)
_cell_length_c                   30.163(3)
_cell_angle_alpha                90
_cell_angle_beta                 90
_cell_angle_gamma                90
_cell_volume                     21747.6
loop_
_atom_site_label
_atom_site_type_symbol
_atom_site_fract_x
_atom_site_fract_y
_atom_site_fract_z
H6 H 0.3162 0.0059 0.5468
C15 C 0.30065(13) 0.03382(17) 0.4852(2)
H7 H 0.2885 0.0709 0.4937
C16 C 0.30223(12) 0.01735(19) 0.44064(18)
H8 H 0.2911 0.0434 0.4193
C1 C 0.31433(18) 0.7266(3) 0.3938(3)
C2 C 0.57393(19) 0.6546(3) 0.6205(2)
C3 C 0.25364(15) 0.71248(19) 0.41310(15)
C4 C 0.27562(11) 0.74243(19) 0.44581(18)
C5 C 0.25738(17) 0.76059(19) 0.48510(16)
H1 H 0.2721 0.7806 0.5070
C6 C 0.21716(18) 0.7488(2) 0.49168(17)
H2 H 0.2050 0.7609 0.5180
C7 C 0.19518(11) 0.7188(2) 0.4590(2)
H3 H 0.1683 0.7110 0.4634
C8 C 0.21341(15) 0.70069(19) 0.41969(19)
H4 H 0.1987 0.6807 0.3978
C9 C 0.34626(15) 0.4370(2) 0.31163(18)
C10 C 0.34760(16) 0.8808(3) 0.3956(2)
C11 C 0.32046(12) 0.9620(2) 0.42795(12)
C12 C 0.33710(11) 0.92307(15) 0.45980(14)
C13 C 0.33552(13) 0.93953(19) 0.50434(13)
H5 H 0.3467 0.9135 0.5256
C14 C 0.31729(15) 0.9949(2) 0.51703(14)
C17 C 0.41549(18) 0.8381(2) 0.5195(2)
C18 C 0.36887(15) 0.7957(2) 0.55901(14)
C19 C 0.39030(13) 0.8355(2) 0.5864(2)
C20 C 0.37923(19) 0.8428(3) 0.63054(18)
H9 H 0.3936 0.8694 0.6489
C21 C 0.3467(2) 0.8103(3) 0.64719(14)
H10 H 0.3393 0.8152 0.6767
C22 C 0.32529(15) 0.7705(3) 0.6198(2)
H11 H 0.3035 0.7488 0.6309
C23 C 0.33636(15) 0.7632(2) 0.5757(2)
H12 H 0.3220 0.7366 0.5573
C24 C 0.4313(2) 0.6859(4) 0.4588(2)
C25 C 0.55930(15) 0.8163(3) 0.70937(19)
C26 C 0.45685(18) 0.7418(3) 0.4616(2)
H13 H 0.4796 0.7368 0.4422
H14 H 0.4666 0.7464 0.4917
C27 C 0.44147(18) 0.8170(3) 0.4002(2)
H15 H 0.4331 0.8597 0.3949
H16 H 0.4697 0.8142 0.3940
C28 C 0.41907(17) 0.7738(4) 0.3701(2)
H17 H 0.4281 0.7313 0.3747
H18 H 0.4241 0.7849 0.3394
C29 C 0.3496(2) 0.7228(3) 0.3670(2)
H19 H 0.3428 0.7245 0.3358
H20 H 0.3636 0.6841 0.3728
C30 C 0.35849(19) 0.8372(3) 0.36154(19)
H21 H 0.3780 0.8564 0.3422
H22 H 0.3352 0.8275 0.3439
C31 C 0.44039(18) 0.8517(3) 0.4811(2)
H23 H 0.4682 0.8534 0.4897
H24 H 0.4330 0.8915 0.4682
C32 C 0.4875(2) 0.6093(3) 0.4566(3)
H25 H 0.4996 0.6344 0.4335
H26 H 0.4901 0.5659 0.4479
C33 C 0.51058(14) 0.6195(2) 0.49991(14)
C34 C 0.49709(12) 0.5946(2) 0.53971(18)
H27 H 0.4741 0.5706 0.5403
C35 C 0.51803(14) 0.6056(2) 0.57868(14)
H28 H 0.5090 0.5890 0.6053
C36 C 0.55245(12) 0.6415(2) 0.57783(13)
C37 C 0.56594(11) 0.6664(2) 0.53802(17)
H29 H 0.5890 0.6904 0.5374
C38 C 0.54501(16) 0.6554(2) 0.49906(13)
H30 H 0.5540 0.6720 0.4724
C39 C 0.30929(17) 0.9518(3) 0.3458(2)
H31 H 0.3286 0.9471 0.3222
H32 H 0.3019 0.9955 0.3473
C40 C 0.27243(14) 0.9129(2) 0.33487(17)
C41 C 0.25552(14) 0.8714(2) 0.36557(15)
H33 H 0.2659 0.8679 0.3941
C42 C 0.22327(14) 0.83603(18) 0.35269(15)
H34 H 0.2122 0.8081 0.3728
C43 C 0.20694(13) 0.84067(19) 0.31119(17)
C44 C 0.22313(14) 0.8828(2) 0.28120(15)
H35 H 0.2120 0.8870 0.2531
C45 C 0.25598(16) 0.9190(2) 0.29296(16)
H36 H 0.2668 0.9470 0.2728
C46 C 0.47758(17) 0.8844(2) 0.6097(2)
C47 C 0.4970(2) 0.8289(3) 0.6054(2)
H37 H 0.4923 0.8052 0.5801
C48 C 0.5229(2) 0.8065(3) 0.6363(2)
H38 H 0.5363 0.7692 0.6311
C49 C 0.52975(15) 0.8399(3) 0.6766(2)
C50 C 0.50863(18) 0.8963(3) 0.6806(2)
H39 H 0.5128 0.9210 0.7056
C51 C 0.48272(19) 0.9158(3) 0.6497(2)
H40 H 0.4677 0.9513 0.6552
C52 C 0.4479(2) 0.9067(3) 0.5766(2)
H41 H 0.4335 0.9416 0.5893
H42 H 0.4621 0.9221 0.5508
C53 C 0.26876(19) 0.6754(2) 0.3380(3)
H43 H 0.2743 0.7046 0.3142
H44 H 0.2404 0.6672 0.3380
C54 C 0.29112(13) 0.61417(15) 0.32895(18)
C55 C 0.28272(12) 0.5659(2) 0.35827(17)
H45 H 0.2648 0.5722 0.3813
C56 C 0.30108(14) 0.50831(17) 0.35311(16)
H46 H 0.2955 0.4760 0.3727
C57 C 0.32785(12) 0.49894(15) 0.31862(16)
C58 C 0.33625(14) 0.5472(2) 0.28930(13)
H47 H 0.3542 0.5409 0.2662
C59 C 0.31788(16) 0.60479(19) 0.29446(15)
H48 H 0.3235 0.6371 0.2748
C60 C 0.3803(2) 0.62845(19) 0.4600(2)
C61 C 0.41281(15) 0.5884(3) 0.4589(2)
C62 C 0.4070(2) 0.5243(3) 0.4607(2)
H49 H 0.4288 0.4975 0.4600
C63 C 0.3687(3) 0.5002(2) 0.4636(3)
H50 H 0.3649 0.4573 0.4648
C64 C 0.33623(18) 0.5402(3) 0.4647(3)
H51 H 0.3106 0.5241 0.4666
C65 C 0.34201(17) 0.6043(3) 0.4629(3)
H52 H 0.3203 0.6311 0.4636
N1 N 0.35382(12) 0.87151(19) 0.43964(15)
N2 N 0.38376(15) 0.7987(2) 0.51630(16)
N3 N 0.43364(13) 0.7998(2) 0.44843(19)
N4 N 0.39316(17) 0.6903(2) 0.4584(2)
N5 N 0.37525(13) 0.7783(3) 0.37968(15)
N6 N 0.31454(14) 0.74936(19) 0.43465(18)
N7 N 0.41925(14) 0.8603(2) 0.56203(17)
N8 N 0.27966(17) 0.7036(2) 0.3797(2)
N9 N 0.32721(14) 0.9336(2) 0.38724(15)
N10 N 0.44516(19) 0.6248(3) 0.4594(2)
O1 O 0.33313(10) 0.39040(15) 0.33051(12)
O2 O 0.57512(10) 0.76559(16) 0.70062(12)
O3 O 0.37564(12) 0.43409(15) 0.28603(13)
O4 O 0.56573(10) 0.84883(15) 0.74348(12)
O5 O 0.60508(12) 0.68662(17) 0.61874(11)
O6 O 0.56181(12) 0.6286(2) 0.65426(15)
Ni1 Ni 0.37114(2) 0.77937(3) 0.45139(3)
Eu1 Eu 0.385747(7) 0.321916(11) 0.299671(8)
O7 O 0.15419(9) 0.81748(15) 0.26184(11)
O8 O 0.16391(9) 0.75425(15) 0.31992(11)
C66 C 0.17249(14) 0.8013(2) 0.29612(19)
O9 O 0.42488(10) 0.23441(16) 0.29938(12)
O10 O 0.43427(10) 0.34883(15) 0.24348(12)
O11 O 0.39492(12) 0.31338(17) 0.38126(11)
O12 O 0.43819(12) 0.3714(2) 0.34574(15)
Eu2 Eu 0.114253(7) 0.678084(11) 0.299671(8)
Eu3 Eu 0.114253(7) 0.821916(11) 0.200329(8)
Eu4 Eu 0.614253(7) 0.678084(11) 0.700329(8)
Eu5 Eu 0.614253(7) 0.821916(11) 0.799671(8)
O13 O 0.34581(9) 0.31748(15) 0.23816(11)
O14 O 0.33609(9) 0.24575(15) 0.31992(11)
C1_2 C 0.18567(18) 0.2734(3) 0.3938(3)
C3_2 C 0.24636(15) 0.28752(19) 0.41310(15)
C4_2 C 0.22438(11) 0.25757(19) 0.44581(18)
C5_2 C 0.24262(17) 0.23941(19) 0.48510(16)
H1_2 H 0.2279 0.2194 0.5070
C6_2 C 0.28284(18) 0.2512(2) 0.49168(17)
H2_2 H 0.2950 0.2391 0.5180
C7_2 C 0.30482(11) 0.2812(2) 0.4590(2)
H3_2 H 0.3317 0.2890 0.4634
C8_2 C 0.28659(15) 0.29931(19) 0.41969(19)
H4_2 H 0.3013 0.3193 0.3978
C9_2 C 0.15374(15) 0.5630(2) 0.31163(18)
C10_2 C 0.15240(16) 0.1192(3) 0.3956(2)
C11_2 C 0.17954(12) 0.0380(2) 0.42795(12)
C12_2 C 0.16290(11) 0.07693(15) 0.45980(14)
C13_2 C 0.16448(13) 0.06047(19) 0.50434(13)
H5_2 H 0.1533 0.0865 0.5256
C14_2 C 0.18271(15) 0.0051(2) 0.51703(14)
C17_2 C 0.08451(18) 0.1619(2) 0.5195(2)
C18_2 C 0.13113(15) 0.2043(2) 0.55901(14)
C19_2 C 0.10970(13) 0.1645(2) 0.5864(2)
C20_2 C 0.12077(19) 0.1572(3) 0.63054(18)
H9_2 H 0.1064 0.1306 0.6489
C21_2 C 0.1533(2) 0.1897(3) 0.64719(14)
H10_2 H 0.1607 0.1848 0.6767
C22_2 C 0.17471(15) 0.2295(3) 0.6198(2)
H11_2 H 0.1965 0.2512 0.6309
C23_2 C 0.16364(15) 0.2368(2) 0.5757(2)
H12_2 H 0.1780 0.2634 0.5573
C24_2 C 0.0687(2) 0.3141(4) 0.4588(2)
C26_2 C 0.04315(18) 0.2582(3) 0.4616(2)
H13_2 H 0.0204 0.2632 0.4422
H14_2 H 0.0334 0.2536 0.4917
C27_2 C 0.05853(18) 0.1830(3) 0.4002(2)
H15_2 H 0.0669 0.1403 0.3949
H16_2 H 0.0303 0.1858 0.3940
C28_2 C 0.08093(17) 0.2262(4) 0.3701(2)
H17_2 H 0.0719 0.2687 0.3747
H18_2 H 0.0759 0.2151 0.3394
C29_2 C 0.1504(2) 0.2772(3) 0.3670(2)
H19_2 H 0.1572 0.2755 0.3358
H20_2 H 0.1364 0.3159 0.3728
C30_2 C 0.14151(19) 0.1628(3) 0.36154(19)
H21_2 H 0.1220 0.1436 0.3422
H22_2 H 0.1648 0.1725 0.3439
C31_2 C 0.05961(18) 0.1483(3) 0.4811(2)
H23_2 H 0.0318 0.1466 0.4897
H24_2 H 0.0670 0.1085 0.4682
C32_2 C 0.0125(2) 0.3907(3) 0.4566(3)
H25_2 H 0.0004 0.3656 0.4335
H26_2 H 0.0099 0.4341 0.4479
C34_2 C 0.00291(12) 0.4054(2) 0.53971(18)
H27_2 H 0.0259 0.4294 0.5403
C39_2 C 0.19071(17) 0.0482(3) 0.3458(2)
H31_2 H 0.1714 0.0529 0.3222
H32_2 H 0.1981 0.0045 0.3473
C40_2 C 0.22757(14) 0.0871(2) 0.33487(17)
C41_2 C 0.24448(14) 0.1286(2) 0.36557(15)
H33_2 H 0.2341 0.1321 0.3941
C42_2 C 0.27673(14) 0.16397(18) 0.35269(15)
H34_2 H 0.2878 0.1919 0.3728
C43_2 C 0.29306(13) 0.15933(19) 0.31119(17)
C44_2 C 0.27687(14) 0.1172(2) 0.28120(15)
H35_2 H 0.2880 0.1130 0.2531
C45_2 C 0.24402(16) 0.0810(2) 0.29296(16)
H36_2 H 0.2332 0.0530 0.2728
C46_2 C 0.02242(17) 0.1156(2) 0.6097(2)
C47_2 C 0.0030(2) 0.1711(3) 0.6054(2)
H37_2 H 0.0077 0.1948 0.5801
C51_2 C 0.01728(19) 0.0842(3) 0.6497(2)
H40_2 H 0.0323 0.0487 0.6552
C52_2 C 0.0521(2) 0.0933(3) 0.5766(2)
H41_2 H 0.0665 0.0584 0.5893
H42_2 H 0.0379 0.0779 0.5508
C53_2 C 0.23124(19) 0.3246(2) 0.3380(3)
H43_2 H 0.2257 0.2954 0.3142
H44_2 H 0.2596 0.3328 0.3380
C54_2 C 0.20888(13) 0.38583(15) 0.32895(18)
C55_2 C 0.21728(12) 0.4341(2) 0.35827(17)
H45_2 H 0.2352 0.4278 0.3813
C56_2 C 0.19892(14) 0.49169(17) 0.35311(16)
H46_2 H 0.2045 0.5240 0.3727
C57_2 C 0.17215(12) 0.50106(15) 0.31862(16)
C58_2 C 0.16375(14) 0.4528(2) 0.28930(13)
H47_2 H 0.1458 0.4591 0.2662
C59_2 C 0.18212(16) 0.39521(19) 0.29446(15)
H48_2 H 0.1765 0.3629 0.2748
C60_2 C 0.1197(2) 0.37155(19) 0.4600(2)
C61_2 C 0.08719(15) 0.4116(3) 0.4589(2)
C62_2 C 0.0930(2) 0.4757(3) 0.4607(2)
H49_2 H 0.0712 0.5025 0.4600
C63_2 C 0.1313(3) 0.4998(2) 0.4636(3)
H50_2 H 0.1351 0.5427 0.4648
C64_2 C 0.16377(18) 0.4598(3) 0.4647(3)
H51_2 H 0.1894 0.4759 0.4666
C65_2 C 0.15799(17) 0.3957(3) 0.4629(3)
H52_2 H 0.1797 0.3689 0.4636
N1_2 N 0.14618(12) 0.12849(19) 0.43964(15)
N2_2 N 0.11624(15) 0.2013(2) 0.51630(16)
N3_2 N 0.06636(13) 0.2002(2) 0.44843(19)
N4_2 N 0.10684(17) 0.3097(2) 0.4584(2)
N5_2 N 0.12475(13) 0.2217(3) 0.37968(15)
N6_2 N 0.18546(14) 0.25064(19) 0.43465(18)
N7_2 N 0.08075(14) 0.1397(2) 0.56203(17)
N8_2 N 0.22034(17) 0.2964(2) 0.3797(2)
N9_2 N 0.17279(14) 0.0664(2) 0.38724(15)
N10_2 N 0.05484(19) 0.3752(3) 0.4594(2)
O1_2 O 0.16687(10) 0.60960(15) 0.33051(12)
O3_2 O 0.12436(12) 0.56591(15) 0.28603(13)
Ni1_2 Ni 0.12886(2) 0.22063(3) 0.45139(3)
O7_2 O 0.34581(9) 0.18252(15) 0.26184(11)
C66_2 C 0.32751(14) 0.1987(2) 0.29612(19)
O9_2 O 0.07512(10) 0.76559(16) 0.29938(12)
O10_2 O 0.06573(10) 0.65117(15) 0.24348(12)
O11_2 O 0.10508(12) 0.68662(17) 0.38126(11)
O12_2 O 0.06181(12) 0.6286(2) 0.34574(15)
Eu3_2 Eu 0.385747(7) 0.178084(11) 0.200329(8)
O13_2 O 0.15419(9) 0.68252(15) 0.23816(11)
C2_2 C 0.92607(19) 0.3454(3) 0.6205(2)
C25_2 C 0.94070(15) 0.1837(3) 0.70937(19)
C33_2 C 0.98942(14) 0.3805(2) 0.49991(14)
C35_2 C 0.98197(14) 0.3944(2) 0.57868(14)
H28_2 H 0.9910 0.4110 0.6053
C36_2 C 0.94755(12) 0.3585(2) 0.57783(13)
C37_2 C 0.93406(11) 0.3336(2) 0.53802(17)
H29_2 H 0.9110 0.3096 0.5374
C38_2 C 0.95499(16) 0.3446(2) 0.49906(13)
H30_2 H 0.9460 0.3280 0.4724
C48_2 C 0.9771(2) 0.1935(3) 0.6363(2)
H38_2 H 0.9637 0.2308 0.6311
C49_2 C 0.97025(15) 0.1601(3) 0.6766(2)
C50_2 C 0.99137(18) 0.1037(3) 0.6806(2)
H39_2 H 0.9872 0.0790 0.7056
O2_2 O 0.92488(10) 0.23441(16) 0.70062(12)
O4_2 O 0.93427(10) 0.15117(15) 0.74348(12)
O5_2 O 0.89492(12) 0.31338(17) 0.61874(11)
O6_2 O 0.93819(12) 0.3714(2) 0.65426(15)
Eu4_2 Eu 0.885747(7) 0.321916(11) 0.700329(8)
Eu5_2 Eu 0.885747(7) 0.178084(11) 0.799671(8)
C9_3 C 0.34626(15) 0.0630(2) 0.18837(18)
H46_3 H 0.2955 0.0240 0.1273
C57_3 C 0.32785(12) 0.00106(15) 0.18138(16)
H49_3 H 0.4288 0.0025 0.0400
H50_3 H 0.3649 0.0427 0.0352
O1_3 O 0.33313(10) 0.10960(15) 0.16949(12)
O3_3 O 0.37564(12) 0.06591(15) 0.21397(13)
O9_3 O 0.42488(10) 0.26559(16) 0.20062(12)
O10_3 O 0.43427(10) 0.15117(15) 0.25652(12)
O11_3 O 0.39492(12) 0.18662(17) 0.11874(11)
O12_3 O 0.43819(12) 0.1286(2) 0.15426(15)
O14_2 O 0.33609(9) 0.25425(15) 0.18008(11)
C1_3 C 0.31433(18) 0.7734(3) 0.1062(3)
C3_3 C 0.25364(15) 0.78752(19) 0.08690(15)
C4_3 C 0.27562(11) 0.75757(19) 0.05419(18)
C5_3 C 0.25738(17) 0.73941(19) 0.01490(16)
C6_3 C 0.21716(18) 0.7512(2) 0.00832(17)
C7_3 C 0.19518(11) 0.7812(2) 0.0410(2)
H3_3 H 0.1683 0.7890 0.0366
C8_3 C 0.21341(15) 0.79931(19) 0.08031(19)
H4_3 H 0.1987 0.8193 0.1022
C10_3 C 0.34760(16) 0.6192(3) 0.1044(2)
C11_3 C 0.32046(12) 0.5380(2) 0.07205(12)
C12_3 C 0.33710(11) 0.57693(15) 0.04020(14)
C15_2 C 0.30065(13) 0.46618(17) 0.0148(2)
H7_2 H 0.2885 0.4291 0.0063
C16_2 C 0.30223(12) 0.48265(19) 0.05936(18)
H8_2 H 0.2911 0.4566 0.0807
C24_3 C 0.4313(2) 0.8141(4) 0.0412(2)
C26_3 C 0.45685(18) 0.7582(3) 0.0384(2)
H13_3 H 0.4796 0.7632 0.0578
H14_3 H 0.4666 0.7536 0.0083
C27_3 C 0.44147(18) 0.6830(3) 0.0998(2)
H15_3 H 0.4331 0.6403 0.1051
H16_3 H 0.4697 0.6858 0.1060
C28_3 C 0.41907(17) 0.7262(4) 0.1299(2)
H17_3 H 0.4281 0.7687 0.1253
H18_3 H 0.4241 0.7151 0.1606
C29_3 C 0.3496(2) 0.7772(3) 0.1330(2)
H19_3 H 0.3428 0.7755 0.1642
H20_3 H 0.3636 0.8159 0.1272
C30_3 C 0.35849(19) 0.6628(3) 0.13846(19)
H21_3 H 0.3780 0.6436 0.1578
H22_3 H 0.3352 0.6725 0.1561
C31_3 C 0.44039(18) 0.6483(3) 0.0189(2)
H23_3 H 0.4682 0.6466 0.0103
H24_3 H 0.4330 0.6085 0.0318
C32_3 C 0.4875(2) 0.8907(3) 0.0434(3)
H25_3 H 0.4996 0.8656 0.0665
H26_3 H 0.4901 0.9341 0.0521
C33_3 C 0.51058(14) 0.8805(2) 0.00009(14)
C38_3 C 0.54501(16) 0.8446(2) 0.00094(13)
H30_3 H 0.5540 0.8280 0.0276
C39_3 C 0.30929(17) 0.5482(3) 0.1542(2)
H31_3 H 0.3286 0.5529 0.1778
H32_3 H 0.3019 0.5045 0.1527
C40_3 C 0.27243(14) 0.5871(2) 0.16513(17)
C41_3 C 0.25552(14) 0.6286(2) 0.13443(15)
H33_3 H 0.2659 0.6321 0.1059
C42_3 C 0.22327(14) 0.66397(18) 0.14731(15)
H34_3 H 0.2122 0.6919 0.1272
C43_3 C 0.20694(13) 0.65933(19) 0.18881(17)
C44_3 C 0.22313(14) 0.6172(2) 0.21880(15)
H35_3 H 0.2120 0.6130 0.2469
C45_3 C 0.25598(16) 0.5810(2) 0.20704(16)
H36_3 H 0.2668 0.5530 0.2272
C53_3 C 0.26876(19) 0.8246(2) 0.1620(3)
H43_3 H 0.2743 0.7954 0.1858
H44_3 H 0.2404 0.8328 0.1620
C54_3 C 0.29112(13) 0.88583(15) 0.17105(18)
C55_3 C 0.28272(12) 0.9341(2) 0.14173(17)
H45_3 H 0.2648 0.9278 0.1187
C56_3 C 0.30108(14) 0.99169(17) 0.14689(16)
C58_3 C 0.33625(14) 0.9528(2) 0.21070(13)
H47_3 H 0.3542 0.9591 0.2338
C59_3 C 0.31788(16) 0.89521(19) 0.20554(15)
H48_3 H 0.3235 0.8629 0.2252
C60_3 C 0.3803(2) 0.87155(19) 0.0400(2)
C61_3 C 0.41281(15) 0.9116(3) 0.0411(2)
C62_3 C 0.4070(2) 0.9757(3) 0.0393(2)
C63_3 C 0.3687(3) 0.9998(2) 0.0364(3)
C64_3 C 0.33623(18) 0.9598(3) 0.0353(3)
H51_3 H 0.3106 0.9759 0.0334
C65_3 C 0.34201(17) 0.8957(3) 0.0371(3)
H52_3 H 0.3203 0.8689 0.0364
N1_3 N 0.35382(12) 0.62849(19) 0.06036(15)
N3_3 N 0.43364(13) 0.7002(2) 0.05157(19)
N4_3 N 0.39316(17) 0.8097(2) 0.0416(2)
N5_3 N 0.37525(13) 0.7217(3) 0.12032(15)
N6_3 N 0.31454(14) 0.75064(19) 0.06535(18)
N8_3 N 0.27966(17) 0.7964(2) 0.1203(2)
N9_3 N 0.32721(14) 0.5664(2) 0.11276(15)
N10_3 N 0.44516(19) 0.8752(3) 0.0406(2)
Ni1_3 Ni 0.37114(2) 0.72063(3) 0.04861(3)
O8_2 O 0.16391(9) 0.74575(15) 0.18008(11)
C66_3 C 0.17249(14) 0.6987(2) 0.20388(19)
C2_3 C 0.57393(19) 0.8454(3) 0.8795(2)
H1_3 H 0.2721 0.7194 0.9930
H2_3 H 0.2050 0.7391 0.9820
C13_3 C 0.33552(13) 0.56047(19) 0.99566(13)
H5_3 H 0.3467 0.5865 0.9744
C14_3 C 0.31729(15) 0.5051(2) 0.98297(14)
H6_2 H 0.3162 0.4941 0.9532
C17_3 C 0.41549(18) 0.6619(2) 0.9805(2)
C18_3 C 0.36887(15) 0.7043(2) 0.94099(14)
C19_3 C 0.39030(13) 0.6645(2) 0.9136(2)
C20_3 C 0.37923(19) 0.6572(3) 0.86946(18)
H9_3 H 0.3936 0.6306 0.8511
C21_3 C 0.3467(2) 0.6897(3) 0.85281(14)
H10_3 H 0.3393 0.6848 0.8233
C22_3 C 0.32529(15) 0.7295(3) 0.8802(2)
H11_3 H 0.3035 0.7512 0.8691
C23_3 C 0.33636(15) 0.7368(2) 0.9243(2)
H12_3 H 0.3220 0.7634 0.9427
C25_3 C 0.55930(15) 0.6837(3) 0.79063(19)
C34_3 C 0.49709(12) 0.9054(2) 0.96029(18)
H27_3 H 0.4741 0.9294 0.9597
C35_3 C 0.51803(14) 0.8944(2) 0.92132(14)
H28_3 H 0.5090 0.9110 0.8947
C36_3 C 0.55245(12) 0.8585(2) 0.92217(13)
C37_3 C 0.56594(11) 0.8336(2) 0.96198(17)
H29_3 H 0.5890 0.8096 0.9626
C46_3 C 0.47758(17) 0.6156(2) 0.8903(2)
C47_3 C 0.4970(2) 0.6711(3) 0.8946(2)
H37_3 H 0.4923 0.6948 0.9199
C48_3 C 0.5229(2) 0.6935(3) 0.8637(2)
H38_3 H 0.5363 0.7308 0.8689
C49_3 C 0.52975(15) 0.6601(3) 0.8234(2)
C50_3 C 0.50863(18) 0.6037(3) 0.8194(2)
H39_3 H 0.5128 0.5790 0.7944
C51_3 C 0.48272(19) 0.5842(3) 0.8503(2)
H40_3 H 0.4677 0.5487 0.8448
C52_3 C 0.4479(2) 0.5933(3) 0.9234(2)
H41_3 H 0.4335 0.5584 0.9107
H42_3 H 0.4621 0.5779 0.9492
N2_3 N 0.38376(15) 0.7013(2) 0.98370(16)
N7_3 N 0.41925(14) 0.6397(2) 0.93797(17)
O2_3 O 0.57512(10) 0.73441(16) 0.79938(12)
O4_3 O 0.56573(10) 0.65117(15) 0.75652(12)
O5_3 O 0.60508(12) 0.81338(17) 0.88126(11)
O6_3 O 0.56181(12) 0.8714(2) 0.84574(15)
C1_4 C 0.18567(18) 0.2266(3) 0.1062(3)
C3_4 C 0.24636(15) 0.21248(19) 0.08690(15)
C4_4 C 0.22438(11) 0.24243(19) 0.05419(18)
C5_4 C 0.24262(17) 0.26059(19) 0.01490(16)
C6_4 C 0.28284(18) 0.2488(2) 0.00832(17)
C7_4 C 0.30482(11) 0.2188(2) 0.0410(2)
H3_4 H 0.3317 0.2110 0.0366
C8_4 C 0.28659(15) 0.20069(19) 0.08031(19)
H4_4 H 0.3013 0.1807 0.1022
C10_4 C 0.15240(16) 0.3808(3) 0.1044(2)
C11_4 C 0.17954(12) 0.4620(2) 0.07205(12)
C12_4 C 0.16290(11) 0.42307(15) 0.04020(14)
C15_3 C 0.19935(13) 0.53382(17) 0.0148(2)
H7_3 H 0.2115 0.5709 0.0063
C16_3 C 0.19777(12) 0.51735(19) 0.05936(18)
H8_3 H 0.2089 0.5434 0.0807
C24_4 C 0.0687(2) 0.1859(4) 0.0412(2)
C26_4 C 0.04315(18) 0.2418(3) 0.0384(2)
H13_4 H 0.0204 0.2368 0.0578
H14_4 H 0.0334 0.2464 0.0083
C27_4 C 0.05853(18) 0.3170(3) 0.0998(2)
H15_4 H 0.0669 0.3597 0.1051
H16_4 H 0.0303 0.3142 0.1060
C28_4 C 0.08093(17) 0.2738(4) 0.1299(2)
H17_4 H 0.0719 0.2313 0.1253
H18_4 H 0.0759 0.2849 0.1606
C29_4 C 0.1504(2) 0.2228(3) 0.1330(2)
H19_4 H 0.1572 0.2245 0.1642
H20_4 H 0.1364 0.1841 0.1272
C30_4 C 0.14151(19) 0.3372(3) 0.13846(19)
H21_4 H 0.1220 0.3564 0.1578
H22_4 H 0.1648 0.3275 0.1561
C31_4 C 0.05961(18) 0.3517(3) 0.0189(2)
H23_4 H 0.0318 0.3534 0.0103
H24_4 H 0.0670 0.3915 0.0318
C32_4 C 0.0125(2) 0.1093(3) 0.0434(3)
H25_4 H 0.0004 0.1344 0.0665
H26_4 H 0.0099 0.0659 0.0521
C39_4 C 0.19071(17) 0.4518(3) 0.1542(2)
H31_4 H 0.1714 0.4471 0.1778
H32_4 H 0.1981 0.4955 0.1527
C40_4 C 0.22757(14) 0.4129(2) 0.16513(17)
C41_4 C 0.24448(14) 0.3714(2) 0.13443(15)
H33_4 H 0.2341 0.3679 0.1059
C42_4 C 0.27673(14) 0.33603(18) 0.14731(15)
H34_4 H 0.2878 0.3081 0.1272
C43_4 C 0.29306(13) 0.34067(19) 0.18881(17)
C44_4 C 0.27687(14) 0.3828(2) 0.21880(15)
H35_4 H 0.2880 0.3870 0.2469
C45_4 C 0.24402(16) 0.4190(2) 0.20704(16)
H36_4 H 0.2332 0.4470 0.2272
C53_4 C 0.23124(19) 0.1754(2) 0.1620(3)
H43_4 H 0.2257 0.2046 0.1858
H44_4 H 0.2596 0.1672 0.1620
C54_4 C 0.20888(13) 0.11417(15) 0.17105(18)
C55_4 C 0.21728(12) 0.0659(2) 0.14173(17)
H45_4 H 0.2352 0.0722 0.1187
C56_4 C 0.19892(14) 0.00831(17) 0.14689(16)
C58_4 C 0.16375(14) 0.0472(2) 0.21070(13)
H47_4 H 0.1458 0.0409 0.2338
C59_4 C 0.18212(16) 0.10479(19) 0.20554(15)
H48_4 H 0.1765 0.1371 0.2252
C60_4 C 0.1197(2) 0.12845(19) 0.0400(2)
C61_4 C 0.08719(15) 0.0884(3) 0.0411(2)
C62_4 C 0.0930(2) 0.0243(3) 0.0393(2)
C63_4 C 0.1313(3) 0.0002(2) 0.0364(3)
C64_4 C 0.16377(18) 0.0402(3) 0.0353(3)
H51_4 H 0.1894 0.0241 0.0334
C65_4 C 0.15799(17) 0.1043(3) 0.0371(3)
H52_4 H 0.1797 0.1311 0.0364
N1_4 N 0.14618(12) 0.37151(19) 0.06036(15)
N3_4 N 0.06636(13) 0.2998(2) 0.05157(19)
N4_4 N 0.10684(17) 0.1903(2) 0.0416(2)
N5_4 N 0.12475(13) 0.2783(3) 0.12032(15)
N6_4 N 0.18546(14) 0.24936(19) 0.06535(18)
N8_4 N 0.22034(17) 0.2036(2) 0.1203(2)
N9_4 N 0.17279(14) 0.4336(2) 0.11276(15)
N10_4 N 0.05484(19) 0.1248(3) 0.0406(2)
Ni1_4 Ni 0.12886(2) 0.27937(3) 0.04861(3)
C66_4 C 0.32751(14) 0.3013(2) 0.20388(19)
C9_4 C 0.15374(15) 0.9370(2) 0.18837(18)
H46_4 H 0.2045 0.9760 0.1273
C57_4 C 0.17215(12) 0.99894(15) 0.18138(16)
H49_4 H 0.0712 0.9975 0.0400
H50_4 H 0.1351 0.9573 0.0352
O1_4 O 0.16687(10) 0.89040(15) 0.16949(12)
O3_4 O 0.12436(12) 0.93409(15) 0.21397(13)
O9_4 O 0.07512(10) 0.73441(16) 0.20062(12)
O10_4 O 0.06573(10) 0.84883(15) 0.25652(12)
O11_4 O 0.10508(12) 0.81338(17) 0.11874(11)
O12_4 O 0.06181(12) 0.8714(2) 0.15426(15)
C2_4 C 0.92607(19) 0.1546(3) 0.8795(2)
C25_4 C 0.94070(15) 0.3163(3) 0.79063(19)
C35_4 C 0.98197(14) 0.1056(2) 0.92132(14)
H28_4 H 0.9910 0.0890 0.8947
C36_4 C 0.94755(12) 0.1415(2) 0.92217(13)
C37_4 C 0.93406(11) 0.1664(2) 0.96198(17)
H29_4 H 0.9110 0.1904 0.9626
C48_4 C 0.9771(2) 0.3065(3) 0.8637(2)
H38_4 H 0.9637 0.2692 0.8689
C49_4 C 0.97025(15) 0.3399(3) 0.8234(2)
C50_4 C 0.99137(18) 0.3963(3) 0.8194(2)
H39_4 H 0.9872 0.4210 0.7944
O2_4 O 0.92488(10) 0.26559(16) 0.79938(12)
O4_4 O 0.93427(10) 0.34883(15) 0.75652(12)
O5_4 O 0.89492(12) 0.18662(17) 0.88126(11)
O6_4 O 0.93819(12) 0.1286(2) 0.84574(15)
C1_5 C 0.68567(18) 0.2734(3) 0.6062(3)
C2_5 C 0.42607(19) 0.3454(3) 0.3795(2)
C3_5 C 0.74636(15) 0.28752(19) 0.58690(15)
C4_5 C 0.72438(11) 0.25757(19) 0.55419(18)
C5_5 C 0.74262(17) 0.23941(19) 0.51490(16)
H1_4 H 0.7279 0.2194 0.4930
C6_5 C 0.78284(18) 0.2512(2) 0.50832(17)
H2_4 H 0.7950 0.2391 0.4820
C7_5 C 0.80482(11) 0.2812(2) 0.5410(2)
H3_5 H 0.8317 0.2890 0.5366
C8_5 C 0.78659(15) 0.29931(19) 0.58031(19)
H4_5 H 0.8013 0.3193 0.6022
C9_5 C 0.65374(15) 0.5630(2) 0.68837(18)
C10_5 C 0.65240(16) 0.1192(3) 0.6044(2)
C11_5 C 0.67954(12) 0.0380(2) 0.57205(12)
C12_5 C 0.66290(11) 0.07693(15) 0.54020(14)
C13_4 C 0.66448(13) 0.06047(19) 0.49566(13)
H5_4 H 0.6533 0.0865 0.4744
C14_4 C 0.68271(15) 0.0051(2) 0.48297(14)
C17_4 C 0.58451(18) 0.1619(2) 0.4805(2)
C18_4 C 0.63113(15) 0.2043(2) 0.44099(14)
C19_4 C 0.60970(13) 0.1645(2) 0.4136(2)
C20_4 C 0.62077(19) 0.1572(3) 0.36946(18)
H9_4 H 0.6064 0.1306 0.3511
C21_4 C 0.6533(2) 0.1897(3) 0.35281(14)
H10_4 H 0.6607 0.1848 0.3233
C22_4 C 0.67471(15) 0.2295(3) 0.3802(2)
H11_4 H 0.6965 0.2512 0.3691
C23_4 C 0.66364(15) 0.2368(2) 0.4243(2)
H12_4 H 0.6780 0.2634 0.4427
C24_5 C 0.5687(2) 0.3141(4) 0.5412(2)
C25_5 C 0.44070(15) 0.1837(3) 0.29063(19)
C26_5 C 0.54315(18) 0.2582(3) 0.5384(2)
H13_5 H 0.5204 0.2632 0.5578
H14_5 H 0.5334 0.2536 0.5083
C27_5 C 0.55853(18) 0.1830(3) 0.5998(2)
H15_5 H 0.5669 0.1403 0.6051
H16_5 H 0.5303 0.1858 0.6060
C28_5 C 0.58093(17) 0.2262(4) 0.6299(2)
H17_5 H 0.5719 0.2687 0.6253
H18_5 H 0.5759 0.2151 0.6606
C29_5 C 0.6504(2) 0.2772(3) 0.6330(2)
H19_5 H 0.6572 0.2755 0.6642
H20_5 H 0.6364 0.3159 0.6272
C30_5 C 0.64151(19) 0.1628(3) 0.63846(19)
H21_5 H 0.6220 0.1436 0.6578
H22_5 H 0.6648 0.1725 0.6561
C31_5 C 0.55961(18) 0.1483(3) 0.5189(2)
H23_5 H 0.5318 0.1466 0.5103
H24_5 H 0.5670 0.1085 0.5318
C32_5 C 0.5125(2) 0.3907(3) 0.5434(3)
H25_5 H 0.5004 0.3656 0.5665
H26_5 H 0.5099 0.4341 0.5521
C33_4 C 0.48942(14) 0.3805(2) 0.50009(14)
C34_4 C 0.50291(12) 0.4054(2) 0.46029(18)
H27_4 H 0.5259 0.4294 0.4597
C35_5 C 0.48197(14) 0.3944(2) 0.42132(14)
H28_5 H 0.4910 0.4110 0.3947
C36_5 C 0.44755(12) 0.3585(2) 0.42217(13)
C37_5 C 0.43406(11) 0.3336(2) 0.46198(17)
H29_5 H 0.4110 0.3096 0.4626
C38_4 C 0.45499(16) 0.3446(2) 0.50094(13)
H30_4 H 0.4460 0.3280 0.5276
C39_5 C 0.69071(17) 0.0482(3) 0.6542(2)
H31_5 H 0.6714 0.0529 0.6778
H32_5 H 0.6981 0.0045 0.6527
C40_5 C 0.72757(14) 0.0871(2) 0.66513(17)
C41_5 C 0.74448(14) 0.1286(2) 0.63443(15)
H33_5 H 0.7341 0.1321 0.6059
C42_5 C 0.77673(14) 0.16397(18) 0.64731(15)
H34_5 H 0.7878 0.1919 0.6272
C43_5 C 0.79306(13) 0.15933(19) 0.68881(17)
C44_5 C 0.77687(14) 0.1172(2) 0.71880(15)
H35_5 H 0.7880 0.1130 0.7469
C45_5 C 0.74402(16) 0.0810(2) 0.70704(16)
H36_5 H 0.7332 0.0530 0.7272
C46_4 C 0.52242(17) 0.1156(2) 0.3903(2)
C47_4 C 0.5030(2) 0.1711(3) 0.3946(2)
H37_4 H 0.5077 0.1948 0.4199
C48_5 C 0.4771(2) 0.1935(3) 0.3637(2)
H38_5 H 0.4637 0.2308 0.3689
C49_5 C 0.47025(15) 0.1601(3) 0.3234(2)
C50_5 C 0.49137(18) 0.1037(3) 0.3194(2)
H39_5 H 0.4872 0.0790 0.2944
C51_4 C 0.51728(19) 0.0842(3) 0.3503(2)
H40_4 H 0.5323 0.0487 0.3448
C52_4 C 0.5521(2) 0.0933(3) 0.4234(2)
H41_4 H 0.5665 0.0584 0.4107
H42_4 H 0.5379 0.0779 0.4492
C53_5 C 0.73124(19) 0.3246(2) 0.6620(3)
H43_5 H 0.7257 0.2954 0.6858
H44_5 H 0.7596 0.3328 0.6620
C54_5 C 0.70888(13) 0.38583(15) 0.67105(18)
C55_5 C 0.71728(12) 0.4341(2) 0.64173(17)
H45_5 H 0.7352 0.4278 0.6187
C56_5 C 0.69892(14) 0.49169(17) 0.64689(16)
H46_5 H 0.7045 0.5240 0.6273
C57_5 C 0.67215(12) 0.50106(15) 0.68138(16)
C58_5 C 0.66375(14) 0.4528(2) 0.71070(13)
H47_5 H 0.6458 0.4591 0.7338
C59_5 C 0.68212(16) 0.39521(19) 0.70554(15)
H48_5 H 0.6765 0.3629 0.7252
C60_5 C 0.6197(2) 0.37155(19) 0.5400(2)
C61_5 C 0.58719(15) 0.4116(3) 0.5411(2)
C62_5 C 0.5930(2) 0.4757(3) 0.5393(2)
H49_5 H 0.5712 0.5025 0.5400
C63_5 C 0.6313(3) 0.4998(2) 0.5364(3)
H50_5 H 0.6351 0.5427 0.5352
C64_5 C 0.66377(18) 0.4598(3) 0.5353(3)
H51_5 H 0.6894 0.4759 0.5334
C65_5 C 0.65799(17) 0.3957(3) 0.5371(3)
H52_5 H 0.6797 0.3689 0.5364
N1_5 N 0.64618(12) 0.12849(19) 0.56036(15)
N2_4 N 0.61624(15) 0.2013(2) 0.48370(16)
N3_5 N 0.56636(13) 0.2002(2) 0.55157(19)
N4_5 N 0.60684(17) 0.3097(2) 0.5416(2)
N5_5 N 0.62475(13) 0.2217(3) 0.62032(15)
N6_5 N 0.68546(14) 0.25064(19) 0.56535(18)
N7_4 N 0.58075(14) 0.1397(2) 0.43797(17)
N8_5 N 0.72034(17) 0.2964(2) 0.6203(2)
N9_5 N 0.67279(14) 0.0664(2) 0.61276(15)
N10_5 N 0.55484(19) 0.3752(3) 0.5406(2)
O1_5 O 0.66687(10) 0.60960(15) 0.66949(12)
O3_5 O 0.62436(12) 0.56591(15) 0.71397(13)
Ni1_5 Ni 0.62886(2) 0.22063(3) 0.54861(3)
O7_3 O 0.84581(9) 0.18252(15) 0.73816(11)
O8_3 O 0.83609(9) 0.24575(15) 0.68008(11)
C66_5 C 0.82751(14) 0.1987(2) 0.70388(19)
O13_3 O 0.65419(9) 0.68252(15) 0.76184(11)
O14_3 O 0.66391(9) 0.75425(15) 0.68008(11)
C2_6 C 0.07393(19) 0.6546(3) 0.3795(2)
C25_6 C 0.05930(15) 0.8163(3) 0.29063(19)
C33_5 C 0.01058(14) 0.6195(2) 0.50009(14)
C35_6 C 0.01803(14) 0.6056(2) 0.42132(14)
H28_6 H 0.0090 0.5890 0.3947
C36_6 C 0.05245(12) 0.6415(2) 0.42217(13)
C37_6 C 0.06594(11) 0.6664(2) 0.46198(17)
H29_6 H 0.0890 0.6904 0.4626
C38_5 C 0.04501(16) 0.6554(2) 0.50094(13)
H30_5 H 0.0540 0.6720 0.5276
C48_6 C 0.0229(2) 0.8065(3) 0.3637(2)
H38_6 H 0.0363 0.7692 0.3689
C49_6 C 0.02975(15) 0.8399(3) 0.3234(2)
C50_6 C 0.00863(18) 0.8963(3) 0.3194(2)
H39_6 H 0.0128 0.9210 0.2944
C1_6 C 0.81433(18) 0.7266(3) 0.6062(3)
C3_6 C 0.75364(15) 0.71248(19) 0.58690(15)
C4_6 C 0.77562(11) 0.74243(19) 0.55419(18)
C5_6 C 0.75738(17) 0.76059(19) 0.51490(16)
H1_5 H 0.7721 0.7806 0.4930
C6_6 C 0.71716(18) 0.7488(2) 0.50832(17)
H2_5 H 0.7050 0.7609 0.4820
C7_6 C 0.69518(11) 0.7188(2) 0.5410(2)
H3_6 H 0.6683 0.7110 0.5366
C8_6 C 0.71341(15) 0.70069(19) 0.58031(19)
H4_6 H 0.6987 0.6807 0.6022
C9_6 C 0.84626(15) 0.4370(2) 0.68837(18)
C10_6 C 0.84760(16) 0.8808(3) 0.6044(2)
C11_6 C 0.82046(12) 0.9620(2) 0.57205(12)
C12_6 C 0.83710(11) 0.92307(15) 0.54020(14)
C13_5 C 0.83552(13) 0.93953(19) 0.49566(13)
H5_5 H 0.8467 0.9135 0.4744
C14_5 C 0.81729(15) 0.9949(2) 0.48297(14)
C17_5 C 0.91549(18) 0.8381(2) 0.4805(2)
C18_5 C 0.86887(15) 0.7957(2) 0.44099(14)
C19_5 C 0.89030(13) 0.8355(2) 0.4136(2)
C20_5 C 0.87923(19) 0.8428(3) 0.36946(18)
H9_5 H 0.8936 0.8694 0.3511
C21_5 C 0.8467(2) 0.8103(3) 0.35281(14)
H10_5 H 0.8393 0.8152 0.3233
C22_5 C 0.82529(15) 0.7705(3) 0.3802(2)
H11_5 H 0.8035 0.7488 0.3691
C23_5 C 0.83636(15) 0.7632(2) 0.4243(2)
H12_5 H 0.8220 0.7366 0.4427
C24_6 C 0.9313(2) 0.6859(4) 0.5412(2)
C26_6 C 0.95685(18) 0.7418(3) 0.5384(2)
H13_6 H 0.9796 0.7368 0.5578
H14_6 H 0.9666 0.7464 0.5083
C27_6 C 0.94147(18) 0.8170(3) 0.5998(2)
H15_6 H 0.9331 0.8597 0.6051
H16_6 H 0.9697 0.8142 0.6060
C28_6 C 0.91907(17) 0.7738(4) 0.6299(2)
H17_6 H 0.9281 0.7313 0.6253
H18_6 H 0.9241 0.7849 0.6606
C29_6 C 0.8496(2) 0.7228(3) 0.6330(2)
H19_6 H 0.8428 0.7245 0.6642
H20_6 H 0.8636 0.6841 0.6272
C30_6 C 0.85849(19) 0.8372(3) 0.63846(19)
H21_6 H 0.8780 0.8564 0.6578
H22_6 H 0.8352 0.8275 0.6561
C31_6 C 0.94039(18) 0.8517(3) 0.5189(2)
H23_6 H 0.9682 0.8534 0.5103
H24_6 H 0.9330 0.8915 0.5318
C32_6 C 0.9875(2) 0.6093(3) 0.5434(3)
H25_6 H 0.9996 0.6344 0.5665
H26_6 H 0.9901 0.5659 0.5521
C34_5 C 0.99709(12) 0.5946(2) 0.46029(18)
H27_5 H 0.9741 0.5706 0.4597
C39_6 C 0.80929(17) 0.9518(3) 0.6542(2)
H31_6 H 0.8286 0.9471 0.6778
H32_6 H 0.8019 0.9955 0.6527
C40_6 C 0.77243(14) 0.9129(2) 0.66513(17)
C41_6 C 0.75552(14) 0.8714(2) 0.63443(15)
H33_6 H 0.7659 0.8679 0.6059
C42_6 C 0.72327(14) 0.83603(18) 0.64731(15)
H34_6 H 0.7122 0.8081 0.6272
C43_6 C 0.70694(13) 0.84067(19) 0.68881(17)
C44_6 C 0.72313(14) 0.8828(2) 0.71880(15)
H35_6 H 0.7120 0.8870 0.7469
C45_6 C 0.75598(16) 0.9190(2) 0.70704(16)
H36_6 H 0.7668 0.9470 0.7272
C46_5 C 0.97758(17) 0.8844(2) 0.3903(2)
C47_5 C 0.9970(2) 0.8289(3) 0.3946(2)
H37_5 H 0.9923 0.8052 0.4199
C51_5 C 0.98272(19) 0.9158(3) 0.3503(2)
H40_5 H 0.9677 0.9513 0.3448
C52_5 C 0.9479(2) 0.9067(3) 0.4234(2)
H41_5 H 0.9335 0.9416 0.4107
H42_5 H 0.9621 0.9221 0.4492
C53_6 C 0.76876(19) 0.6754(2) 0.6620(3)
H43_6 H 0.7743 0.7046 0.6858
H44_6 H 0.7404 0.6672 0.6620
C54_6 C 0.79112(13) 0.61417(15) 0.67105(18)
C55_6 C 0.78272(12) 0.5659(2) 0.64173(17)
H45_6 H 0.7648 0.5722 0.6187
C56_6 C 0.80108(14) 0.50831(17) 0.64689(16)
H46_6 H 0.7955 0.4760 0.6273
C57_6 C 0.82785(12) 0.49894(15) 0.68138(16)
C58_6 C 0.83625(14) 0.5472(2) 0.71070(13)
H47_6 H 0.8542 0.5409 0.7338
C59_6 C 0.81788(16) 0.60479(19) 0.70554(15)
H48_6 H 0.8235 0.6371 0.7252
C60_6 C 0.8803(2) 0.62845(19) 0.5400(2)
C61_6 C 0.91281(15) 0.5884(3) 0.5411(2)
C62_6 C 0.9070(2) 0.5243(3) 0.5393(2)
H49_6 H 0.9288 0.4975 0.5400
C63_6 C 0.8687(3) 0.5002(2) 0.5364(3)
H50_6 H 0.8649 0.4573 0.5352
C64_6 C 0.83623(18) 0.5402(3) 0.5353(3)
H51_6 H 0.8106 0.5241 0.5334
C65_6 C 0.84201(17) 0.6043(3) 0.5371(3)
H52_6 H 0.8203 0.6311 0.5364
N1_6 N 0.85382(12) 0.87151(19) 0.56036(15)
N2_5 N 0.88376(15) 0.7987(2) 0.48370(16)
N3_6 N 0.93364(13) 0.7998(2) 0.55157(19)
N4_6 N 0.89316(17) 0.6903(2) 0.5416(2)
N5_6 N 0.87525(13) 0.7783(3) 0.62032(15)
N6_6 N 0.81454(14) 0.74936(19) 0.56535(18)
N7_5 N 0.91925(14) 0.8603(2) 0.43797(17)
N8_6 N 0.77966(17) 0.7036(2) 0.6203(2)
N9_6 N 0.82721(14) 0.9336(2) 0.61276(15)
N10_6 N 0.94516(19) 0.6248(3) 0.5406(2)
O1_6 O 0.83313(10) 0.39040(15) 0.66949(12)
O3_6 O 0.87564(12) 0.43409(15) 0.71397(13)
Ni1_6 Ni 0.87114(2) 0.77937(3) 0.54861(3)
O7_4 O 0.65419(9) 0.81748(15) 0.73816(11)
C66_6 C 0.67249(14) 0.8013(2) 0.70388(19)
O13_4 O 0.84581(9) 0.31748(15) 0.76184(11)
C2_7 C 0.42607(19) 0.1546(3) 0.1205(2)
H1_6 H 0.7279 0.2806 0.0070
H2_6 H 0.7950 0.2609 0.0180
C13_6 C 0.66448(13) 0.43953(19) 0.00434(13)
H5_6 H 0.6533 0.4135 0.0256
C14_6 C 0.68271(15) 0.4949(2) 0.01703(14)
H6_3 H 0.6838 0.5059 0.0468
C17_6 C 0.58451(18) 0.3381(2) 0.0195(2)
C18_6 C 0.63113(15) 0.2957(2) 0.05901(14)
C19_6 C 0.60970(13) 0.3355(2) 0.0864(2)
C20_6 C 0.62077(19) 0.3428(3) 0.13054(18)
H9_6 H 0.6064 0.3694 0.1489
C21_6 C 0.6533(2) 0.3103(3) 0.14719(14)
H10_6 H 0.6607 0.3152 0.1767
C22_6 C 0.67471(15) 0.2705(3) 0.1198(2)
H11_6 H 0.6965 0.2488 0.1309
C23_6 C 0.66364(15) 0.2632(2) 0.0757(2)
H12_6 H 0.6780 0.2366 0.0573
C25_7 C 0.44070(15) 0.3163(3) 0.20937(19)
C34_6 C 0.50291(12) 0.0946(2) 0.03971(18)
H27_6 H 0.5259 0.0706 0.0403
C35_7 C 0.48197(14) 0.1056(2) 0.07868(14)
H28_7 H 0.4910 0.0890 0.1053
C36_7 C 0.44755(12) 0.1415(2) 0.07783(13)
C37_7 C 0.43406(11) 0.1664(2) 0.03802(17)
H29_7 H 0.4110 0.1904 0.0374
C46_6 C 0.52242(17) 0.3844(2) 0.1097(2)
C47_6 C 0.5030(2) 0.3289(3) 0.1054(2)
H37_6 H 0.5077 0.3052 0.0801
C48_7 C 0.4771(2) 0.3065(3) 0.1363(2)
H38_7 H 0.4637 0.2692 0.1311
C49_7 C 0.47025(15) 0.3399(3) 0.1766(2)
C50_7 C 0.49137(18) 0.3963(3) 0.1806(2)
H39_7 H 0.4872 0.4210 0.2056
C51_6 C 0.51728(19) 0.4158(3) 0.1497(2)
H40_6 H 0.5323 0.4513 0.1552
C52_6 C 0.5521(2) 0.4067(3) 0.0766(2)
H41_6 H 0.5665 0.4416 0.0893
H42_6 H 0.5379 0.4221 0.0508
N2_6 N 0.61624(15) 0.2987(2) 0.01630(16)
N7_6 N 0.58075(14) 0.3603(2) 0.06203(17)
C1_7 C 0.68567(18) 0.2266(3) 0.8938(3)
C3_7 C 0.74636(15) 0.21248(19) 0.91310(15)
C4_7 C 0.72438(11) 0.24243(19) 0.94581(18)
C5_7 C 0.74262(17) 0.26059(19) 0.98510(16)
C6_7 C 0.78284(18) 0.2488(2) 0.99168(17)
C7_7 C 0.80482(11) 0.2188(2) 0.9590(2)
H3_7 H 0.8317 0.2110 0.9634
C8_7 C 0.78659(15) 0.20069(19) 0.91969(19)
H4_7 H 0.8013 0.1807 0.8978
C10_7 C 0.65240(16) 0.3808(3) 0.8956(2)
C11_7 C 0.67954(12) 0.4620(2) 0.92795(12)
C12_7 C 0.66290(11) 0.42307(15) 0.95980(14)
C15_4 C 0.69935(13) 0.53382(17) 0.9852(2)
H7_4 H 0.7115 0.5709 0.9937
C16_4 C 0.69777(12) 0.51735(19) 0.94064(18)
H8_4 H 0.7089 0.5434 0.9193
C24_7 C 0.5687(2) 0.1859(4) 0.9588(2)
C26_7 C 0.54315(18) 0.2418(3) 0.9616(2)
H13_7 H 0.5204 0.2368 0.9422
H14_7 H 0.5334 0.2464 0.9917
C27_7 C 0.55853(18) 0.3170(3) 0.9002(2)
H15_7 H 0.5669 0.3597 0.8949
H16_7 H 0.5303 0.3142 0.8940
C28_7 C 0.58093(17) 0.2738(4) 0.8701(2)
H17_7 H 0.5719 0.2313 0.8747
H18_7 H 0.5759 0.2849 0.8394
C29_7 C 0.6504(2) 0.2228(3) 0.8670(2)
H19_7 H 0.6572 0.2245 0.8358
H20_7 H 0.6364 0.1841 0.8728
C30_7 C 0.64151(19) 0.3372(3) 0.86154(19)
H21_7 H 0.6220 0.3564 0.8422
H22_7 H 0.6648 0.3275 0.8439
C31_7 C 0.55961(18) 0.3517(3) 0.9811(2)
H23_7 H 0.5318 0.3534 0.9897
H24_7 H 0.5670 0.3915 0.9682
C32_7 C 0.5125(2) 0.1093(3) 0.9566(3)
H25_7 H 0.5004 0.1344 0.9335
H26_7 H 0.5099 0.0659 0.9479
C33_6 C 0.48942(14) 0.1195(2) 0.99991(14)
C38_6 C 0.45499(16) 0.1554(2) 0.99906(13)
H30_6 H 0.4460 0.1720 0.9724
C39_7 C 0.69071(17) 0.4518(3) 0.8458(2)
H31_7 H 0.6714 0.4471 0.8222
H32_7 H 0.6981 0.4955 0.8473
C40_7 C 0.72757(14) 0.4129(2) 0.83487(17)
C41_7 C 0.74448(14) 0.3714(2) 0.86557(15)
H33_7 H 0.7341 0.3679 0.8941
C42_7 C 0.77673(14) 0.33603(18) 0.85269(15)
H34_7 H 0.7878 0.3081 0.8728
C43_7 C 0.79306(13) 0.34067(19) 0.81119(17)
C44_7 C 0.77687(14) 0.3828(2) 0.78120(15)
H35_7 H 0.7880 0.3870 0.7531
C45_7 C 0.74402(16) 0.4190(2) 0.79296(16)
H36_7 H 0.7332 0.4470 0.7728
C53_7 C 0.73124(19) 0.1754(2) 0.8380(3)
H43_7 H 0.7257 0.2046 0.8142
H44_7 H 0.7596 0.1672 0.8380
C54_7 C 0.70888(13) 0.11417(15) 0.82895(18)
C55_7 C 0.71728(12) 0.0659(2) 0.85827(17)
H45_7 H 0.7352 0.0722 0.8813
C56_7 C 0.69892(14) 0.00831(17) 0.85311(16)
C58_7 C 0.66375(14) 0.0472(2) 0.78930(13)
H47_7 H 0.6458 0.0409 0.7662
C59_7 C 0.68212(16) 0.10479(19) 0.79446(15)
H48_7 H 0.6765 0.1371 0.7748
C60_7 C 0.6197(2) 0.12845(19) 0.9600(2)
C61_7 C 0.58719(15) 0.0884(3) 0.9589(2)
C62_7 C 0.5930(2) 0.0243(3) 0.9607(2)
C63_7 C 0.6313(3) 0.0002(2) 0.9636(3)
C64_7 C 0.66377(18) 0.0402(3) 0.9647(3)
H51_7 H 0.6894 0.0241 0.9666
C65_7 C 0.65799(17) 0.1043(3) 0.9629(3)
H52_7 H 0.6797 0.1311 0.9636
N1_7 N 0.64618(12) 0.37151(19) 0.93964(15)
N3_7 N 0.56636(13) 0.2998(2) 0.94843(19)
N4_7 N 0.60684(17) 0.1903(2) 0.9584(2)
N5_7 N 0.62475(13) 0.2783(3) 0.87968(15)
N6_7 N 0.68546(14) 0.24936(19) 0.93465(18)
N8_7 N 0.72034(17) 0.2036(2) 0.8797(2)
N9_7 N 0.67279(14) 0.4336(2) 0.88724(15)
N10_7 N 0.55484(19) 0.1248(3) 0.9594(2)
Ni1_7 Ni 0.62886(2) 0.27937(3) 0.95139(3)
O8_4 O 0.83609(9) 0.25425(15) 0.81992(11)
C66_7 C 0.82751(14) 0.3013(2) 0.79612(19)
C9_7 C 0.65374(15) 0.9370(2) 0.81163(18)
H46_7 H 0.7045 0.9760 0.8727
C57_7 C 0.67215(12) 0.99894(15) 0.81862(16)
H49_7 H 0.5712 0.9975 0.9600
H50_7 H 0.6351 0.9573 0.9648
O1_7 O 0.66687(10) 0.89040(15) 0.83051(12)
O3_7 O 0.62436(12) 0.93409(15) 0.78603(13)
O14_4 O 0.66391(9) 0.74575(15) 0.81992(11)
C2_8 C 0.07393(19) 0.8454(3) 0.1205(2)
C25_8 C 0.05930(15) 0.6837(3) 0.20937(19)
C35_8 C 0.01803(14) 0.8944(2) 0.07868(14)
H28_8 H 0.0090 0.9110 0.1053
C36_8 C 0.05245(12) 0.8585(2) 0.07783(13)
C37_8 C 0.06594(11) 0.8336(2) 0.03802(17)
H29_8 H 0.0890 0.8096 0.0374
C48_8 C 0.0229(2) 0.6935(3) 0.1363(2)
H38_8 H 0.0363 0.7308 0.1311
C49_8 C 0.02975(15) 0.6601(3) 0.1766(2)
C50_8 C 0.00863(18) 0.6037(3) 0.1806(2)
H39_8 H 0.0128 0.5790 0.2056
C9_8 C 0.84626(15) 0.0630(2) 0.81163(18)
H46_8 H 0.7955 0.0240 0.8727
C57_8 C 0.82785(12) 0.00106(15) 0.81862(16)
H49_8 H 0.9288 0.0025 0.9600
H50_8 H 0.8649 0.0427 0.9648
O1_8 O 0.83313(10) 0.10960(15) 0.83051(12)
O3_8 O 0.87564(12) 0.06591(15) 0.78603(13)
C1_8 C 0.81433(18) 0.7734(3) 0.8938(3)
C3_8 C 0.75364(15) 0.78752(19) 0.91310(15)
C4_8 C 0.77562(11) 0.75757(19) 0.94581(18)
C5_8 C 0.75738(17) 0.73941(19) 0.98510(16)
C6_8 C 0.71716(18) 0.7512(2) 0.99168(17)
C7_8 C 0.69518(11) 0.7812(2) 0.9590(2)
H3_8 H 0.6683 0.7890 0.9634
C8_8 C 0.71341(15) 0.79931(19) 0.91969(19)
H4_8 H 0.6987 0.8193 0.8978
C10_8 C 0.84760(16) 0.6192(3) 0.8956(2)
C11_8 C 0.82046(12) 0.5380(2) 0.92795(12)
C12_8 C 0.83710(11) 0.57693(15) 0.95980(14)
C15_5 C 0.80065(13) 0.46618(17) 0.9852(2)
H7_5 H 0.7885 0.4291 0.9937
C16_5 C 0.80223(12) 0.48265(19) 0.94064(18)
H8_5 H 0.7911 0.4566 0.9193
C24_8 C 0.9313(2) 0.8141(4) 0.9588(2)
C26_8 C 0.95685(18) 0.7582(3) 0.9616(2)
H13_8 H 0.9796 0.7632 0.9422
H14_8 H 0.9666 0.7536 0.9917
C27_8 C 0.94147(18) 0.6830(3) 0.9002(2)
H15_8 H 0.9331 0.6403 0.8949
H16_8 H 0.9697 0.6858 0.8940
C28_8 C 0.91907(17) 0.7262(4) 0.8701(2)
H17_8 H 0.9281 0.7687 0.8747
H18_8 H 0.9241 0.7151 0.8394
C29_8 C 0.8496(2) 0.7772(3) 0.8670(2)
H19_8 H 0.8428 0.7755 0.8358
H20_8 H 0.8636 0.8159 0.8728
C30_8 C 0.85849(19) 0.6628(3) 0.86154(19)
H21_8 H 0.8780 0.6436 0.8422
H22_8 H 0.8352 0.6725 0.8439
C31_8 C 0.94039(18) 0.6483(3) 0.9811(2)
H23_8 H 0.9682 0.6466 0.9897
H24_8 H 0.9330 0.6085 0.9682
C32_8 C 0.9875(2) 0.8907(3) 0.9566(3)
H25_8 H 0.9996 0.8656 0.9335
H26_8 H 0.9901 0.9341 0.9479
C39_8 C 0.80929(17) 0.5482(3) 0.8458(2)
H31_8 H 0.8286 0.5529 0.8222
H32_8 H 0.8019 0.5045 0.8473
C40_8 C 0.77243(14) 0.5871(2) 0.83487(17)
C41_8 C 0.75552(14) 0.6286(2) 0.86557(15)
H33_8 H 0.7659 0.6321 0.8941
C42_8 C 0.72327(14) 0.66397(18) 0.85269(15)
H34_8 H 0.7122 0.6919 0.8728
C43_8 C 0.70694(13) 0.65933(19) 0.81119(17)
C44_8 C 0.72313(14) 0.6172(2) 0.78120(15)
H35_8 H 0.7120 0.6130 0.7531
C45_8 C 0.75598(16) 0.5810(2) 0.79296(16)
H36_8 H 0.7668 0.5530 0.7728
C53_8 C 0.76876(19) 0.8246(2) 0.8380(3)
H43_8 H 0.7743 0.7954 0.8142
H44_8 H 0.7404 0.8328 0.8380
C54_8 C 0.79112(13) 0.88583(15) 0.82895(18)
C55_8 C 0.78272(12) 0.9341(2) 0.85827(17)
H45_8 H 0.7648 0.9278 0.8813
C56_8 C 0.80108(14) 0.99169(17) 0.85311(16)
C58_8 C 0.83625(14) 0.9528(2) 0.78930(13)
H47_8 H 0.8542 0.9591 0.7662
C59_8 C 0.81788(16) 0.89521(19) 0.79446(15)
H48_8 H 0.8235 0.8629 0.7748
C60_8 C 0.8803(2) 0.87155(19) 0.9600(2)
C61_8 C 0.91281(15) 0.9116(3) 0.9589(2)
C62_8 C 0.9070(2) 0.9757(3) 0.9607(2)
C63_8 C 0.8687(3) 0.9998(2) 0.9636(3)
C64_8 C 0.83623(18) 0.9598(3) 0.9647(3)
H51_8 H 0.8106 0.9759 0.9666
C65_8 C 0.84201(17) 0.8957(3) 0.9629(3)
H52_8 H 0.8203 0.8689 0.9636
N1_8 N 0.85382(12) 0.62849(19) 0.93964(15)
N3_8 N 0.93364(13) 0.7002(2) 0.94843(19)
N4_8 N 0.89316(17) 0.8097(2) 0.9584(2)
N5_8 N 0.87525(13) 0.7217(3) 0.87968(15)
N6_8 N 0.81454(14) 0.75064(19) 0.93465(18)
N8_8 N 0.77966(17) 0.7964(2) 0.8797(2)
N9_8 N 0.82721(14) 0.5664(2) 0.88724(15)
N10_8 N 0.94516(19) 0.8752(3) 0.9594(2)
Ni1_8 Ni 0.87114(2) 0.72063(3) 0.95139(3)
C66_8 C 0.67249(14) 0.6987(2) 0.79612(19)
H6_4 H 0.1838 0.9941 0.5468
C15_6 C 0.19935(13) 0.96618(17) 0.4852(2)
H7_6 H 0.2115 0.9291 0.4937
C16_6 C 0.19777(12) 0.98265(19) 0.44064(18)
H8_6 H 0.2089 0.9566 0.4193
H1_7 H 0.2279 0.2806 0.9930
H2_7 H 0.2950 0.2609 0.9820
C13_7 C 0.16448(13) 0.43953(19) 0.99566(13)
H5_7 H 0.1533 0.4135 0.9744
C14_7 C 0.18271(15) 0.4949(2) 0.98297(14)
H6_5 H 0.1838 0.5059 0.9532
C17_7 C 0.08451(18) 0.3381(2) 0.9805(2)
C18_7 C 0.13113(15) 0.2957(2) 0.94099(14)
C19_7 C 0.10970(13) 0.3355(2) 0.9136(2)
C20_7 C 0.12077(19) 0.3428(3) 0.86946(18)
H9_7 H 0.1064 0.3694 0.8511
C21_7 C 0.1533(2) 0.3103(3) 0.85281(14)
H10_7 H 0.1607 0.3152 0.8233
C22_7 C 0.17471(15) 0.2705(3) 0.8802(2)
H11_7 H 0.1965 0.2488 0.8691
C23_7 C 0.16364(15) 0.2632(2) 0.9243(2)
H12_7 H 0.1780 0.2366 0.9427
C34_7 C 0.00291(12) 0.0946(2) 0.96029(18)
H27_7 H 0.0259 0.0706 0.9597
C46_7 C 0.02242(17) 0.3844(2) 0.8903(2)
C47_7 C 0.0030(2) 0.3289(3) 0.8946(2)
H37_7 H 0.0077 0.3052 0.9199
C51_7 C 0.01728(19) 0.4158(3) 0.8503(2)
H40_7 H 0.0323 0.4513 0.8448
C52_7 C 0.0521(2) 0.4067(3) 0.9234(2)
H41_7 H 0.0665 0.4416 0.9107
H42_7 H 0.0379 0.4221 0.9492
N2_7 N 0.11624(15) 0.2987(2) 0.98370(16)
N7_7 N 0.08075(14) 0.3603(2) 0.93797(17)
C33_7 C 0.98942(14) 0.1195(2) 0.00009(14)
C38_7 C 0.95499(16) 0.1554(2) 0.00094(13)
H30_7 H 0.9460 0.1720 0.0276
H6_6 H 0.6838 0.9941 0.4532
C15_7 C 0.69935(13) 0.96618(17) 0.5148(2)
H7_7 H 0.7115 0.9291 0.5063
C16_7 C 0.69777(12) 0.98265(19) 0.55936(18)
H8_7 H 0.7089 0.9566 0.5807
H6_7 H 0.8162 0.0059 0.4532
C15_8 C 0.80065(13) 0.03382(17) 0.5148(2)
H7_8 H 0.7885 0.0709 0.5063
C16_8 C 0.80223(12) 0.01735(19) 0.55936(18)
H8_8 H 0.7911 0.0434 0.5807
C33_8 C 0.01058(14) 0.8805(2) 0.99991(14)
C38_8 C 0.04501(16) 0.8446(2) 0.99906(13)
H30_8 H 0.0540 0.8280 0.9724
H1_8 H 0.7721 0.7194 0.0070
H2_8 H 0.7050 0.7391 0.0180
C13_8 C 0.83552(13) 0.56047(19) 0.00434(13)
H5_8 H 0.8467 0.5865 0.0256
C14_8 C 0.81729(15) 0.5051(2) 0.01703(14)
H6_8 H 0.8162 0.4941 0.0468
C17_8 C 0.91549(18) 0.6619(2) 0.0195(2)
C18_8 C 0.86887(15) 0.7043(2) 0.05901(14)
C19_8 C 0.89030(13) 0.6645(2) 0.0864(2)
C20_8 C 0.87923(19) 0.6572(3) 0.13054(18)
H9_8 H 0.8936 0.6306 0.1489
C21_8 C 0.8467(2) 0.6897(3) 0.14719(14)
H10_8 H 0.8393 0.6848 0.1767
C22_8 C 0.82529(15) 0.7295(3) 0.1198(2)
H11_8 H 0.8035 0.7512 0.1309
C23_8 C 0.83636(15) 0.7368(2) 0.0757(2)
H12_8 H 0.8220 0.7634 0.0573
C34_8 C 0.99709(12) 0.9054(2) 0.03971(18)
H27_8 H 0.9741 0.9294 0.0403
C46_8 C 0.97758(17) 0.6156(2) 0.1097(2)
C47_8 C 0.9970(2) 0.6711(3) 0.1054(2)
H37_8 H 0.9923 0.6948 0.0801
C51_8 C 0.98272(19) 0.5842(3) 0.1497(2)
H40_8 H 0.9677 0.5487 0.1552
C52_8 C 0.9479(2) 0.5933(3) 0.0766(2)
H41_8 H 0.9335 0.5584 0.0893
H42_8 H 0.9621 0.5779 0.0508
N2_8 N 0.88376(15) 0.7013(2) 0.01630(16)
N7_8 N 0.91925(14) 0.6397(2) 0.06203(17)
loop_
_geom_bond_atom_site_label_1
_geom_bond_atom_site_label_2
_geom_bond_site_symmetry_1
_geom_bond_site_symmetry_2
H7 C15 1_555 1_555
H8 C16 1_555 1_555
C15 C16 1_555 1_555
C1 C29 1_555 1_555
C2 C36 1_555 1_555
C3 C4 1_555 1_555
C4 C5 1_555 1_555
C5 H1 1_555 1_555
C6 C5 1_555 1_555
H2 C6 1_555 1_555
C7 C6 1_555 1_555
H3 C7 1_555 1_555
C8 C3 1_555 1_555
H4 C8 1_555 1_555
C9 C57 1_555 1_555
C10 C30 1_555 1_555
C11 C12 1_555 1_555
C12 C13 1_555 1_555
C13 H5 1_555 1_555
C14 C13 1_555 1_555
C17 C31 1_555 1_555
C18 C19 1_555 1_555
C19 C20 1_555 1_555
C20 H9 1_555 1_555
C21 C20 1_555 1_555
H10 C21 1_555 1_555
C22 C21 1_555 1_555
H11 C22 1_555 1_555
C23 C18 1_555 1_555
H12 C23 1_555 1_555
C24 C26 1_555 1_555
C25 C49 1_555 1_555
C26 H13 1_555 1_555
H14 C26 1_555 1_555
C27 H15 1_555 1_555
H16 C27 1_555 1_555
C28 C27 1_555 1_555
H17 C28 1_555 1_555
H18 C28 1_555 1_555
C29 H19 1_555 1_555
H20 C29 1_555 1_555
C30 H21 1_555 1_555
H22 C30 1_555 1_555
C31 H23 1_555 1_555
H24 C31 1_555 1_555
C32 H25 1_555 1_555
H26 C32 1_555 1_555
C33 C32 1_555 1_555
C34 C33 1_555 1_555
H27 C34 1_555 1_555
C35 C34 1_555 1_555
H28 C35 1_555 1_555
C36 C35 1_555 1_555
C37 C36 1_555 1_555
H29 C37 1_555 1_555
C38 C33 1_555 1_555
H30 C38 1_555 1_555
C39 H31 1_555 1_555
H32 C39 1_555 1_555
C40 C39 1_555 1_555
C41 C40 1_555 1_555
H33 C41 1_555 1_555
C42 C41 1_555 1_555
H34 C42 1_555 1_555
C43 C42 1_555 1_555
C44 C43 1_555 1_555
H35 C44 1_555 1_555
C45 C40 1_555 1_555
H36 C45 1_555 1_555
C46 C47 1_555 1_555
C47 H37 1_555 1_555
C48 C47 1_555 1_555
H38 C48 1_555 1_555
C49 C48 1_555 1_555
C50 C49 1_555 1_555
H39 C50 1_555 1_555
C51 C46 1_555 1_555
H40 C51 1_555 1_555
C52 C46 1_555 1_555
H41 C52 1_555 1_555
H42 C52 1_555 1_555
C53 H43 1_555 1_555
H44 C53 1_555 1_555
C54 C53 1_555 1_555
C55 C54 1_555 1_555
H45 C55 1_555 1_555
C56 C55 1_555 1_555
H46 C56 1_555 1_555
C57 C56 1_555 1_555
C58 C57 1_555 1_555
H47 C58 1_555 1_555
C59 C54 1_555 1_555
H48 C59 1_555 1_555
C60 C61 1_555 1_555
C61 C62 1_555 1_555
C62 H49 1_555 1_555
C63 C62 1_555 1_555
H50 C63 1_555 1_555
C64 C63 1_555 1_555
H51 C64 1_555 1_555
C65 C60 1_555 1_555
H52 C65 1_555 1_555
N1 C10 1_555 1_555
N2 C17 1_555 1_555
N3 C26 1_555 1_555
N4 C24 1_555 1_555
N5 C28 1_555 1_555
N6 C1 1_555 1_555
N7 C17 1_555 1_555
N8 C1 1_555 1_555
N9 C10 1_555 1_555
N10 C24 1_555 1_555
O1 C9 1_555 1_555
O2 C25 1_555 1_555
O3 C9 1_555 1_555
O4 C25 1_555 1_555
O5 C2 1_555 1_555
O6 C2 1_555 1_555
Ni1 N1 1_555 1_555
Eu1 O1 1_555 1_555
O7 C66 1_555 1_555
O8 C66 1_555 1_555
C66 C43 1_555 1_555
O9 Eu1 1_555 1_555
O10 Eu1 1_555 1_555
O11 Eu1 1_555 1_555
O12 Eu1 1_555 1_555
Eu2 O8 1_555 1_555
Eu3 O7 1_555 1_555
Eu4 O2 1_555 1_555
Eu5 O4 1_555 1_555
O13 Eu1 1_555 1_555
O14 Eu1 1_555 1_555
C3 N8 1_555 1_555
C4 N6 1_555 1_555
C7 C8 1_555 1_555
C11 N9 1_555 1_555
C12 N1 1_555 1_555
C18 N2 1_555 1_555
C19 N7 1_555 1_555
C22 C23 1_555 1_555
C27 N3 1_555 1_555
C29 N5 1_555 1_555
C30 N5 1_555 1_555
C31 N3 1_555 1_555
C32 N10 1_555 1_555
C37 C38 1_555 1_555
C39 N9 1_555 1_555
C44 C45 1_555 1_555
C50 C51 1_555 1_555
C52 N7 1_555 1_555
C53 N8 1_555 1_555
C58 C59 1_555 1_555
C60 N4 1_555 1_555
C61 N10 1_555 1_555
C64 C65 1_555 1_555
N2 Ni1 1_555 1_555
N3 Ni1 1_555 1_555
N4 Ni1 1_555 1_555
N5 Ni1 1_555 1_555
N6 Ni1 1_555 1_555
O3 Eu1 1_555 1_555
O5 Eu4 1_555 1_555
O6 Eu4 1_555 1_555
C1_2 C29_2 1_555 1_555
C3_2 C4_2 1_555 1_555
C4_2 C5_2 1_555 1_555
C5_2 H1_2 1_555 1_555
C6_2 C5_2 1_555 1_555
H2_2 C6_2 1_555 1_555
C7_2 C6_2 1_555 1_555
H3_2 C7_2 1_555 1_555
C8_2 C3_2 1_555 1_555
H4_2 C8_2 1_555 1_555
C9_2 C57_2 1_555 1_555
C10_2 C30_2 1_555 1_555
C11_2 C12_2 1_555 1_555
C12_2 C13_2 1_555 1_555
C13_2 H5_2 1_555 1_555
C14_2 C13_2 1_555 1_555
C17_2 C31_2 1_555 1_555
C18_2 C19_2 1_555 1_555
C19_2 C20_2 1_555 1_555
C20_2 H9_2 1_555 1_555
C21_2 C20_2 1_555 1_555
H10_2 C21_2 1_555 1_555
C22_2 C21_2 1_555 1_555
H11_2 C22_2 1_555 1_555
C23_2 C18_2 1_555 1_555
H12_2 C23_2 1_555 1_555
C24_2 C26_2 1_555 1_555
C26_2 H13_2 1_555 1_555
H14_2 C26_2 1_555 1_555
C27_2 H15_2 1_555 1_555
H16_2 C27_2 1_555 1_555
C28_2 C27_2 1_555 1_555
H17_2 C28_2 1_555 1_555
H18_2 C28_2 1_555 1_555
C29_2 H19_2 1_555 1_555
H20_2 C29_2 1_555 1_555
C30_2 H21_2 1_555 1_555
H22_2 C30_2 1_555 1_555
C31_2 H23_2 1_555 1_555
H24_2 C31_2 1_555 1_555
C32_2 H25_2 1_555 1_555
H26_2 C32_2 1_555 1_555
H27_2 C34_2 1_555 1_555
C39_2 H31_2 1_555 1_555
H32_2 C39_2 1_555 1_555
C40_2 C39_2 1_555 1_555
C41_2 C40_2 1_555 1_555
H33_2 C41_2 1_555 1_555
C42_2 C41_2 1_555 1_555
H34_2 C42_2 1_555 1_555
C43_2 C42_2 1_555 1_555
C44_2 C43_2 1_555 1_555
H35_2 C44_2 1_555 1_555
C45_2 C40_2 1_555 1_555
H36_2 C45_2 1_555 1_555
C46_2 C47_2 1_555 1_555
C47_2 H37_2 1_555 1_555
C51_2 C46_2 1_555 1_555
H40_2 C51_2 1_555 1_555
C52_2 C46_2 1_555 1_555
H41_2 C52_2 1_555 1_555
H42_2 C52_2 1_555 1_555
C53_2 H43_2 1_555 1_555
H44_2 C53_2 1_555 1_555
C54_2 C53_2 1_555 1_555
C55_2 C54_2 1_555 1_555
H45_2 C55_2 1_555 1_555
C56_2 C55_2 1_555 1_555
H46_2 C56_2 1_555 1_555
C57_2 C56_2 1_555 1_555
C58_2 C57_2 1_555 1_555
H47_2 C58_2 1_555 1_555
C59_2 C54_2 1_555 1_555
H48_2 C59_2 1_555 1_555
C60_2 C61_2 1_555 1_555
C61_2 C62_2 1_555 1_555
C62_2 H49_2 1_555 1_555
C63_2 C62_2 1_555 1_555
H50_2 C63_2 1_555 1_555
C64_2 C63_2 1_555 1_555
H51_2 C64_2 1_555 1_555
C65_2 C60_2 1_555 1_555
H52_2 C65_2 1_555 1_555
N1_2 C10_2 1_555 1_555
N2_2 C17_2 1_555 1_555
N3_2 C26_2 1_555 1_555
N4_2 C24_2 1_555 1_555
N5_2 C28_2 1_555 1_555
N6_2 C1_2 1_555 1_555
N7_2 C17_2 1_555 1_555
N8_2 C1_2 1_555 1_555
N9_2 C10_2 1_555 1_555
N10_2 C24_2 1_555 1_555
O1_2 C9_2 1_555 1_555
O3_2 C9_2 1_555 1_555
Ni1_2 N1_2 1_555 1_555
Eu2 O1_2 1_555 1_555
O7_2 C66_2 1_555 1_555
O14 C66_2 1_555 1_555
C66_2 C43_2 1_555 1_555
O9_2 Eu2 1_555 1_555
O10_2 Eu2 1_555 1_555
O11_2 Eu2 1_555 1_555
O12_2 Eu2 1_555 1_555
Eu3_2 O7_2 1_555 1_555
O13_2 Eu2 1_555 1_555
C3_2 N8_2 1_555 1_555
C4_2 N6_2 1_555 1_555
C7_2 C8_2 1_555 1_555
C11_2 N9_2 1_555 1_555
C12_2 N1_2 1_555 1_555
C18_2 N2_2 1_555 1_555
C19_2 N7_2 1_555 1_555
C22_2 C23_2 1_555 1_555
C27_2 N3_2 1_555 1_555
C29_2 N5_2 1_555 1_555
C30_2 N5_2 1_555 1_555
C31_2 N3_2 1_555 1_555
C32_2 N10_2 1_555 1_555
C39_2 N9_2 1_555 1_555
C44_2 C45_2 1_555 1_555
C52_2 N7_2 1_555 1_555
C53_2 N8_2 1_555 1_555
C58_2 C59_2 1_555 1_555
C60_2 N4_2 1_555 1_555
C61_2 N10_2 1_555 1_555
C64_2 C65_2 1_555 1_555
N2_2 Ni1_2 1_555 1_555
N3_2 Ni1_2 1_555 1_555
N4_2 Ni1_2 1_555 1_555
N5_2 Ni1_2 1_555 1_555
N6_2 Ni1_2 1_555 1_555
O3_2 Eu2 1_555 1_555
C2_2 C36_2 1_555 1_555
C25_2 C49_2 1_555 1_555
H28_2 C35_2 1_555 1_555
C36_2 C35_2 1_555 1_555
C37_2 C36_2 1_555 1_555
H29_2 C37_2 1_555 1_555
C38_2 C33_2 1_555 1_555
H30_2 C38_2 1_555 1_555
H38_2 C48_2 1_555 1_555
C49_2 C48_2 1_555 1_555
C50_2 C49_2 1_555 1_555
H39_2 C50_2 1_555 1_555
O2_2 C25_2 1_555 1_555
O4_2 C25_2 1_555 1_555
O5_2 C2_2 1_555 1_555
O6_2 C2_2 1_555 1_555
Eu4_2 O2_2 1_555 1_555
Eu5_2 O4_2 1_555 1_555
C37_2 C38_2 1_555 1_555
O5_2 Eu4_2 1_555 1_555
O6_2 Eu4_2 1_555 1_555
C9_3 C57_3 1_555 1_555
O1_3 C9_3 1_555 1_555
O3_3 C9_3 1_555 1_555
Eu3_2 O1_3 1_555 1_555
O9_3 Eu3_2 1_555 1_555
O10_3 Eu3_2 1_555 1_555
O11_3 Eu3_2 1_555 1_555
O12_3 Eu3_2 1_555 1_555
O14_2 Eu3_2 1_555 1_555
O3_3 Eu3_2 1_555 1_555
C1_3 C29_3 1_555 1_555
C3_3 C4_3 1_555 1_555
C4_3 C5_3 1_555 1_555
C6_3 C5_3 1_555 1_555
C7_3 C6_3 1_555 1_555
H3_3 C7_3 1_555 1_555
C8_3 C3_3 1_555 1_555
H4_3 C8_3 1_555 1_555
C10_3 C30_3 1_555 1_555
C11_3 C12_3 1_555 1_555
H7_2 C15_2 1_555 1_555
C16_2 C11_3 1_555 1_555
H8_2 C16_2 1_555 1_555
C24_3 C26_3 1_555 1_555
C26_3 H13_3 1_555 1_555
H14_3 C26_3 1_555 1_555
C27_3 H15_3 1_555 1_555
H16_3 C27_3 1_555 1_555
C28_3 C27_3 1_555 1_555
H17_3 C28_3 1_555 1_555
H18_3 C28_3 1_555 1_555
C29_3 H19_3 1_555 1_555
H20_3 C29_3 1_555 1_555
C30_3 H21_3 1_555 1_555
H22_3 C30_3 1_555 1_555
C31_3 H23_3 1_555 1_555
H24_3 C31_3 1_555 1_555
C32_3 H25_3 1_555 1_555
H26_3 C32_3 1_555 1_555
C33_3 C32_3 1_555 1_555
C38_3 C33_3 1_555 1_555
H30_3 C38_3 1_555 1_555
C39_3 H31_3 1_555 1_555
H32_3 C39_3 1_555 1_555
C40_3 C39_3 1_555 1_555
C41_3 C40_3 1_555 1_555
H33_3 C41_3 1_555 1_555
C42_3 C41_3 1_555 1_555
H34_3 C42_3 1_555 1_555
C43_3 C42_3 1_555 1_555
C44_3 C43_3 1_555 1_555
H35_3 C44_3 1_555 1_555
C45_3 C40_3 1_555 1_555
H36_3 C45_3 1_555 1_555
C53_3 H43_3 1_555 1_555
H44_3 C53_3 1_555 1_555
C54_3 C53_3 1_555 1_555
C55_3 C54_3 1_555 1_555
H45_3 C55_3 1_555 1_555
C56_3 C55_3 1_555 1_555
H47_3 C58_3 1_555 1_555
C59_3 C54_3 1_555 1_555
H48_3 C59_3 1_555 1_555
C60_3 C61_3 1_555 1_555
C61_3 C62_3 1_555 1_555
C63_3 C62_3 1_555 1_555
C64_3 C63_3 1_555 1_555
H51_3 C64_3 1_555 1_555
C65_3 C60_3 1_555 1_555
H52_3 C65_3 1_555 1_555
N1_3 C10_3 1_555 1_555
N3_3 C26_3 1_555 1_555
N4_3 C24_3 1_555 1_555
N5_3 C28_3 1_555 1_555
N6_3 C1_3 1_555 1_555
N8_3 C1_3 1_555 1_555
N9_3 C10_3 1_555 1_555
N10_3 C24_3 1_555 1_555
Ni1_3 N1_3 1_555 1_555
O13_2 C66_3 1_555 1_555
O8_2 C66_3 1_555 1_555
C66_3 C43_3 1_555 1_555
Eu3 O8_2 1_555 1_555
C3_3 N8_3 1_555 1_555
C4_3 N6_3 1_555 1_555
C7_3 C8_3 1_555 1_555
C11_3 N9_3 1_555 1_555
C12_3 N1_3 1_555 1_555
C15_2 C16_2 1_555 1_555
C27_3 N3_3 1_555 1_555
C29_3 N5_3 1_555 1_555
C30_3 N5_3 1_555 1_555
C31_3 N3_3 1_555 1_555
C32_3 N10_3 1_555 1_555
C39_3 N9_3 1_555 1_555
C44_3 C45_3 1_555 1_555
C53_3 N8_3 1_555 1_555
C58_3 C59_3 1_555 1_555
C60_3 N4_3 1_555 1_555
C61_3 N10_3 1_555 1_555
C64_3 C65_3 1_555 1_555
N3_3 Ni1_3 1_555 1_555
N4_3 Ni1_3 1_555 1_555
N5_3 Ni1_3 1_555 1_555
N6_3 Ni1_3 1_555 1_555
C2_3 C36_3 1_555 1_555
C13_3 H5_3 1_555 1_555
C14_3 C13_3 1_555 1_555
H6_2 C14_3 1_555 1_555
C18_3 C19_3 1_555 1_555
C19_3 C20_3 1_555 1_555
C20_3 H9_3 1_555 1_555
C21_3 C20_3 1_555 1_555
H10_3 C21_3 1_555 1_555
C22_3 C21_3 1_555 1_555
H11_3 C22_3 1_555 1_555
C23_3 C18_3 1_555 1_555
H12_3 C23_3 1_555 1_555
C25_3 C49_3 1_555 1_555
H27_3 C34_3 1_555 1_555
C35_3 C34_3 1_555 1_555
H28_3 C35_3 1_555 1_555
C36_3 C35_3 1_555 1_555
C37_3 C36_3 1_555 1_555
H29_3 C37_3 1_555 1_555
C46_3 C47_3 1_555 1_555
C47_3 H37_3 1_555 1_555
C48_3 C47_3 1_555 1_555
H38_3 C48_3 1_555 1_555
C49_3 C48_3 1_555 1_555
C50_3 C49_3 1_555 1_555
H39_3 C50_3 1_555 1_555
C51_3 C46_3 1_555 1_555
H40_3 C51_3 1_555 1_555
C52_3 C46_3 1_555 1_555
H41_3 C52_3 1_555 1_555
H42_3 C52_3 1_555 1_555
N2_3 C17_3 1_555 1_555
N7_3 C17_3 1_555 1_555
O2_3 C25_3 1_555 1_555
O4_3 C25_3 1_555 1_555
O5_3 C2_3 1_555 1_555
O6_3 C2_3 1_555 1_555
Eu5 O2_3 1_555 1_555
Eu4 O4_3 1_555 1_555
C18_3 N2_3 1_555 1_555
C19_3 N7_3 1_555 1_555
C22_3 C23_3 1_555 1_555
C50_3 C51_3 1_555 1_555
C52_3 N7_3 1_555 1_555
O5_3 Eu5 1_555 1_555
O6_3 Eu5 1_555 1_555
C1_4 C29_4 1_555 1_555
C3_4 C4_4 1_555 1_555
C4_4 C5_4 1_555 1_555
C6_4 C5_4 1_555 1_555
C7_4 C6_4 1_555 1_555
H3_4 C7_4 1_555 1_555
C8_4 C3_4 1_555 1_555
H4_4 C8_4 1_555 1_555
C10_4 C30_4 1_555 1_555
C11_4 C12_4 1_555 1_555
H7_3 C15_3 1_555 1_555
C16_3 C11_4 1_555 1_555
H8_3 C16_3 1_555 1_555
C24_4 C26_4 1_555 1_555
C26_4 H13_4 1_555 1_555
H14_4 C26_4 1_555 1_555
C27_4 H15_4 1_555 1_555
H16_4 C27_4 1_555 1_555
C28_4 C27_4 1_555 1_555
H17_4 C28_4 1_555 1_555
H18_4 C28_4 1_555 1_555
C29_4 H19_4 1_555 1_555
H20_4 C29_4 1_555 1_555
C30_4 H21_4 1_555 1_555
H22_4 C30_4 1_555 1_555
C31_4 H23_4 1_555 1_555
H24_4 C31_4 1_555 1_555
C32_4 H25_4 1_555 1_555
H26_4 C32_4 1_555 1_555
C39_4 H31_4 1_555 1_555
H32_4 C39_4 1_555 1_555
C40_4 C39_4 1_555 1_555
C41_4 C40_4 1_555 1_555
H33_4 C41_4 1_555 1_555
C42_4 C41_4 1_555 1_555
H34_4 C42_4 1_555 1_555
C43_4 C42_4 1_555 1_555
C44_4 C43_4 1_555 1_555
H35_4 C44_4 1_555 1_555
C45_4 C40_4 1_555 1_555
H36_4 C45_4 1_555 1_555
C53_4 H43_4 1_555 1_555
H44_4 C53_4 1_555 1_555
C54_4 C53_4 1_555 1_555
C55_4 C54_4 1_555 1_555
H45_4 C55_4 1_555 1_555
C56_4 C55_4 1_555 1_555
H47_4 C58_4 1_555 1_555
C59_4 C54_4 1_555 1_555
H48_4 C59_4 1_555 1_555
C60_4 C61_4 1_555 1_555
C61_4 C62_4 1_555 1_555
C63_4 C62_4 1_555 1_555
C64_4 C63_4 1_555 1_555
H51_4 C64_4 1_555 1_555
C65_4 C60_4 1_555 1_555
H52_4 C65_4 1_555 1_555
N1_4 C10_4 1_555 1_555
N3_4 C26_4 1_555 1_555
N4_4 C24_4 1_555 1_555
N5_4 C28_4 1_555 1_555
N6_4 C1_4 1_555 1_555
N8_4 C1_4 1_555 1_555
N9_4 C10_4 1_555 1_555
N10_4 C24_4 1_555 1_555
Ni1_4 N1_4 1_555 1_555
O13 C66_4 1_555 1_555
O14_2 C66_4 1_555 1_555
C66_4 C43_4 1_555 1_555
C3_4 N8_4 1_555 1_555
C4_4 N6_4 1_555 1_555
C7_4 C8_4 1_555 1_555
C11_4 N9_4 1_555 1_555
C12_4 N1_4 1_555 1_555
C15_3 C16_3 1_555 1_555
C27_4 N3_4 1_555 1_555
C29_4 N5_4 1_555 1_555
C30_4 N5_4 1_555 1_555
C31_4 N3_4 1_555 1_555
C32_4 N10_4 1_555 1_555
C39_4 N9_4 1_555 1_555
C44_4 C45_4 1_555 1_555
C53_4 N8_4 1_555 1_555
C58_4 C59_4 1_555 1_555
C60_4 N4_4 1_555 1_555
C61_4 N10_4 1_555 1_555
C64_4 C65_4 1_555 1_555
N3_4 Ni1_4 1_555 1_555
N4_4 Ni1_4 1_555 1_555
N5_4 Ni1_4 1_555 1_555
N6_4 Ni1_4 1_555 1_555
C9_4 C57_4 1_555 1_555
O1_4 C9_4 1_555 1_555
O3_4 C9_4 1_555 1_555
Eu3 O1_4 1_555 1_555
O9_4 Eu3 1_555 1_555
O10_4 Eu3 1_555 1_555
O11_4 Eu3 1_555 1_555
O12_4 Eu3 1_555 1_555
O3_4 Eu3 1_555 1_555
C2_4 C36_4 1_555 1_555
C25_4 C49_4 1_555 1_555
H28_4 C35_4 1_555 1_555
C36_4 C35_4 1_555 1_555
C37_4 C36_4 1_555 1_555
H29_4 C37_4 1_555 1_555
H38_4 C48_4 1_555 1_555
C49_4 C48_4 1_555 1_555
C50_4 C49_4 1_555 1_555
H39_4 C50_4 1_555 1_555
O2_4 C25_4 1_555 1_555
O4_4 C25_4 1_555 1_555
O5_4 C2_4 1_555 1_555
O6_4 C2_4 1_555 1_555
Eu5_2 O2_4 1_555 1_555
Eu4_2 O4_4 1_555 1_555
O5_4 Eu5_2 1_555 1_555
O6_4 Eu5_2 1_555 1_555
C1_5 C29_5 1_555 1_555
C2_5 C36_5 1_555 1_555
C3_5 C4_5 1_555 1_555
C4_5 C5_5 1_555 1_555
C5_5 H1_4 1_555 1_555
C6_5 C5_5 1_555 1_555
H2_4 C6_5 1_555 1_555
C7_5 C6_5 1_555 1_555
H3_5 C7_5 1_555 1_555
C8_5 C3_5 1_555 1_555
H4_5 C8_5 1_555 1_555
C9_5 C57_5 1_555 1_555
C10_5 C30_5 1_555 1_555
C11_5 C12_5 1_555 1_555
C12_5 C13_4 1_555 1_555
C13_4 H5_4 1_555 1_555
C14_4 C13_4 1_555 1_555
C17_4 C31_5 1_555 1_555
C18_4 C19_4 1_555 1_555
C19_4 C20_4 1_555 1_555
C20_4 H9_4 1_555 1_555
C21_4 C20_4 1_555 1_555
H10_4 C21_4 1_555 1_555
C22_4 C21_4 1_555 1_555
H11_4 C22_4 1_555 1_555
C23_4 C18_4 1_555 1_555
H12_4 C23_4 1_555 1_555
C24_5 C26_5 1_555 1_555
C25_5 C49_5 1_555 1_555
C26_5 H13_5 1_555 1_555
H14_5 C26_5 1_555 1_555
C27_5 H15_5 1_555 1_555
H16_5 C27_5 1_555 1_555
C28_5 C27_5 1_555 1_555
H17_5 C28_5 1_555 1_555
H18_5 C28_5 1_555 1_555
C29_5 H19_5 1_555 1_555
H20_5 C29_5 1_555 1_555
C30_5 H21_5 1_555 1_555
H22_5 C30_5 1_555 1_555
C31_5 H23_5 1_555 1_555
H24_5 C31_5 1_555 1_555
C32_5 H25_5 1_555 1_555
H26_5 C32_5 1_555 1_555
C33_4 C32_5 1_555 1_555
C34_4 C33_4 1_555 1_555
H27_4 C34_4 1_555 1_555
C35_5 C34_4 1_555 1_555
H28_5 C35_5 1_555 1_555
C36_5 C35_5 1_555 1_555
C37_5 C36_5 1_555 1_555
H29_5 C37_5 1_555 1_555
C38_4 C33_4 1_555 1_555
H30_4 C38_4 1_555 1_555
C39_5 H31_5 1_555 1_555
H32_5 C39_5 1_555 1_555
C40_5 C39_5 1_555 1_555
C41_5 C40_5 1_555 1_555
H33_5 C41_5 1_555 1_555
C42_5 C41_5 1_555 1_555
H34_5 C42_5 1_555 1_555
C43_5 C42_5 1_555 1_555
C44_5 C43_5 1_555 1_555
H35_5 C44_5 1_555 1_555
C45_5 C40_5 1_555 1_555
H36_5 C45_5 1_555 1_555
C46_4 C47_4 1_555 1_555
C47_4 H37_4 1_555 1_555
C48_5 C47_4 1_555 1_555
H38_5 C48_5 1_555 1_555
C49_5 C48_5 1_555 1_555
C50_5 C49_5 1_555 1_555
H39_5 C50_5 1_555 1_555
C51_4 C46_4 1_555 1_555
H40_4 C51_4 1_555 1_555
C52_4 C46_4 1_555 1_555
H41_4 C52_4 1_555 1_555
H42_4 C52_4 1_555 1_555
C53_5 H43_5 1_555 1_555
H44_5 C53_5 1_555 1_555
C54_5 C53_5 1_555 1_555
C55_5 C54_5 1_555 1_555
H45_5 C55_5 1_555 1_555
C56_5 C55_5 1_555 1_555
H46_5 C56_5 1_555 1_555
C57_5 C56_5 1_555 1_555
C58_5 C57_5 1_555 1_555
H47_5 C58_5 1_555 1_555
C59_5 C54_5 1_555 1_555
H48_5 C59_5 1_555 1_555
C60_5 C61_5 1_555 1_555
C61_5 C62_5 1_555 1_555
C62_5 H49_5 1_555 1_555
C63_5 C62_5 1_555 1_555
H50_5 C63_5 1_555 1_555
C64_5 C63_5 1_555 1_555
H51_5 C64_5 1_555 1_555
C65_5 C60_5 1_555 1_555
H52_5 C65_5 1_555 1_555
N1_5 C10_5 1_555 1_555
N2_4 C17_4 1_555 1_555
N3_5 C26_5 1_555 1_555
N4_5 C24_5 1_555 1_555
N5_5 C28_5 1_555 1_555
N6_5 C1_5 1_555 1_555
N7_4 C17_4 1_555 1_555
N8_5 C1_5 1_555 1_555
N9_5 C10_5 1_555 1_555
N10_5 C24_5 1_555 1_555
O1_5 C9_5 1_555 1_555
O9 C25_5 1_555 1_555
O3_5 C9_5 1_555 1_555
O10_3 C25_5 1_555 1_555
O11 C2_5 1_555 1_555
O12 C2_5 1_555 1_555
Ni1_5 N1_5 1_555 1_555
Eu4 O1_5 1_555 1_555
O7_3 C66_5 1_555 1_555
O8_3 C66_5 1_555 1_555
C66_5 C43_5 1_555 1_555
Eu4_2 O8_3 1_555 1_555
Eu5_2 O7_3 1_555 1_555
O13_3 Eu4 1_555 1_555
O14_3 Eu4 1_555 1_555
C3_5 N8_5 1_555 1_555
C4_5 N6_5 1_555 1_555
C7_5 C8_5 1_555 1_555
C11_5 N9_5 1_555 1_555
C12_5 N1_5 1_555 1_555
C18_4 N2_4 1_555 1_555
C19_4 N7_4 1_555 1_555
C22_4 C23_4 1_555 1_555
C27_5 N3_5 1_555 1_555
C29_5 N5_5 1_555 1_555
C30_5 N5_5 1_555 1_555
C31_5 N3_5 1_555 1_555
C32_5 N10_5 1_555 1_555
C37_5 C38_4 1_555 1_555
C39_5 N9_5 1_555 1_555
C44_5 C45_5 1_555 1_555
C50_5 C51_4 1_555 1_555
C52_4 N7_4 1_555 1_555
C53_5 N8_5 1_555 1_555
C58_5 C59_5 1_555 1_555
C60_5 N4_5 1_555 1_555
C61_5 N10_5 1_555 1_555
C64_5 C65_5 1_555 1_555
N2_4 Ni1_5 1_555 1_555
N3_5 Ni1_5 1_555 1_555
N4_5 Ni1_5 1_555 1_555
N5_5 Ni1_5 1_555 1_555
N6_5 Ni1_5 1_555 1_555
O3_5 Eu4 1_555 1_555
C2_6 C36_6 1_555 1_555
C25_6 C49_6 1_555 1_555
H28_6 C35_6 1_555 1_555
C36_6 C35_6 1_555 1_555
C37_6 C36_6 1_555 1_555
H29_6 C37_6 1_555 1_555
C38_5 C33_5 1_555 1_555
H30_5 C38_5 1_555 1_555
H38_6 C48_6 1_555 1_555
C49_6 C48_6 1_555 1_555
C50_6 C49_6 1_555 1_555
H39_6 C50_6 1_555 1_555
O9_2 C25_6 1_555 1_555
O10_4 C25_6 1_555 1_555
O11_2 C2_6 1_555 1_555
O12_2 C2_6 1_555 1_555
C37_6 C38_5 1_555 1_555
C1_6 C29_6 1_555 1_555
C3_6 C4_6 1_555 1_555
C4_6 C5_6 1_555 1_555
C5_6 H1_5 1_555 1_555
C6_6 C5_6 1_555 1_555
H2_5 C6_6 1_555 1_555
C7_6 C6_6 1_555 1_555
H3_6 C7_6 1_555 1_555
C8_6 C3_6 1_555 1_555
H4_6 C8_6 1_555 1_555
C9_6 C57_6 1_555 1_555
C10_6 C30_6 1_555 1_555
C11_6 C12_6 1_555 1_555
C12_6 C13_5 1_555 1_555
C13_5 H5_5 1_555 1_555
C14_5 C13_5 1_555 1_555
C17_5 C31_6 1_555 1_555
C18_5 C19_5 1_555 1_555
C19_5 C20_5 1_555 1_555
C20_5 H9_5 1_555 1_555
C21_5 C20_5 1_555 1_555
H10_5 C21_5 1_555 1_555
C22_5 C21_5 1_555 1_555
H11_5 C22_5 1_555 1_555
C23_5 C18_5 1_555 1_555
H12_5 C23_5 1_555 1_555
C24_6 C26_6 1_555 1_555
C26_6 H13_6 1_555 1_555
H14_6 C26_6 1_555 1_555
C27_6 H15_6 1_555 1_555
H16_6 C27_6 1_555 1_555
C28_6 C27_6 1_555 1_555
H17_6 C28_6 1_555 1_555
H18_6 C28_6 1_555 1_555
C29_6 H19_6 1_555 1_555
H20_6 C29_6 1_555 1_555
C30_6 H21_6 1_555 1_555
H22_6 C30_6 1_555 1_555
C31_6 H23_6 1_555 1_555
H24_6 C31_6 1_555 1_555
C32_6 H25_6 1_555 1_555
H26_6 C32_6 1_555 1_555
H27_5 C34_5 1_555 1_555
C39_6 H31_6 1_555 1_555
H32_6 C39_6 1_555 1_555
C40_6 C39_6 1_555 1_555
C41_6 C40_6 1_555 1_555
H33_6 C41_6 1_555 1_555
C42_6 C41_6 1_555 1_555
H34_6 C42_6 1_555 1_555
C43_6 C42_6 1_555 1_555
C44_6 C43_6 1_555 1_555
H35_6 C44_6 1_555 1_555
C45_6 C40_6 1_555 1_555
H36_6 C45_6 1_555 1_555
C46_5 C47_5 1_555 1_555
C47_5 H37_5 1_555 1_555
C51_5 C46_5 1_555 1_555
H40_5 C51_5 1_555 1_555
C52_5 C46_5 1_555 1_555
H41_5 C52_5 1_555 1_555
H42_5 C52_5 1_555 1_555
C53_6 H43_6 1_555 1_555
H44_6 C53_6 1_555 1_555
C54_6 C53_6 1_555 1_555
C55_6 C54_6 1_555 1_555
H45_6 C55_6 1_555 1_555
C56_6 C55_6 1_555 1_555
H46_6 C56_6 1_555 1_555
C57_6 C56_6 1_555 1_555
C58_6 C57_6 1_555 1_555
H47_6 C58_6 1_555 1_555
C59_6 C54_6 1_555 1_555
H48_6 C59_6 1_555 1_555
C60_6 C61_6 1_555 1_555
C61_6 C62_6 1_555 1_555
C62_6 H49_6 1_555 1_555
C63_6 C62_6 1_555 1_555
H50_6 C63_6 1_555 1_555
C64_6 C63_6 1_555 1_555
H51_6 C64_6 1_555 1_555
C65_6 C60_6 1_555 1_555
H52_6 C65_6 1_555 1_555
N1_6 C10_6 1_555 1_555
N2_5 C17_5 1_555 1_555
N3_6 C26_6 1_555 1_555
N4_6 C24_6 1_555 1_555
N5_6 C28_6 1_555 1_555
N6_6 C1_6 1_555 1_555
N7_5 C17_5 1_555 1_555
N8_6 C1_6 1_555 1_555
N9_6 C10_6 1_555 1_555
N10_6 C24_6 1_555 1_555
O1_6 C9_6 1_555 1_555
O3_6 C9_6 1_555 1_555
Ni1_6 N1_6 1_555 1_555
Eu4_2 O1_6 1_555 1_555
O7_4 C66_6 1_555 1_555
O14_3 C66_6 1_555 1_555
C66_6 C43_6 1_555 1_555
Eu5 O7_4 1_555 1_555
O13_4 Eu4_2 1_555 1_555
C3_6 N8_6 1_555 1_555
C4_6 N6_6 1_555 1_555
C7_6 C8_6 1_555 1_555
C11_6 N9_6 1_555 1_555
C12_6 N1_6 1_555 1_555
C18_5 N2_5 1_555 1_555
C19_5 N7_5 1_555 1_555
C22_5 C23_5 1_555 1_555
C27_6 N3_6 1_555 1_555
C29_6 N5_6 1_555 1_555
C30_6 N5_6 1_555 1_555
C31_6 N3_6 1_555 1_555
C32_6 N10_6 1_555 1_555
C39_6 N9_6 1_555 1_555
C44_6 C45_6 1_555 1_555
C52_5 N7_5 1_555 1_555
C53_6 N8_6 1_555 1_555
C58_6 C59_6 1_555 1_555
C60_6 N4_6 1_555 1_555
C61_6 N10_6 1_555 1_555
C64_6 C65_6 1_555 1_555
N2_5 Ni1_6 1_555 1_555
N3_6 Ni1_6 1_555 1_555
N4_6 Ni1_6 1_555 1_555
N5_6 Ni1_6 1_555 1_555
N6_6 Ni1_6 1_555 1_555
O3_6 Eu4_2 1_555 1_555
C2_7 C36_7 1_555 1_555
C13_6 H5_6 1_555 1_555
C14_6 C13_6 1_555 1_555
H6_3 C14_6 1_555 1_555
C18_6 C19_6 1_555 1_555
C19_6 C20_6 1_555 1_555
C20_6 H9_6 1_555 1_555
C21_6 C20_6 1_555 1_555
H10_6 C21_6 1_555 1_555
C22_6 C21_6 1_555 1_555
H11_6 C22_6 1_555 1_555
C23_6 C18_6 1_555 1_555
H12_6 C23_6 1_555 1_555
C25_7 C49_7 1_555 1_555
H27_6 C34_6 1_555 1_555
C35_7 C34_6 1_555 1_555
H28_7 C35_7 1_555 1_555
C36_7 C35_7 1_555 1_555
C37_7 C36_7 1_555 1_555
H29_7 C37_7 1_555 1_555
C46_6 C47_6 1_555 1_555
C47_6 H37_6 1_555 1_555
C48_7 C47_6 1_555 1_555
H38_7 C48_7 1_555 1_555
C49_7 C48_7 1_555 1_555
C50_7 C49_7 1_555 1_555
H39_7 C50_7 1_555 1_555
C51_6 C46_6 1_555 1_555
H40_6 C51_6 1_555 1_555
C52_6 C46_6 1_555 1_555
H41_6 C52_6 1_555 1_555
H42_6 C52_6 1_555 1_555
N2_6 C17_6 1_555 1_555
N7_6 C17_6 1_555 1_555
O9_3 C25_7 1_555 1_555
O10 C25_7 1_555 1_555
O11_3 C2_7 1_555 1_555
O12_3 C2_7 1_555 1_555
C18_6 N2_6 1_555 1_555
C19_6 N7_6 1_555 1_555
C22_6 C23_6 1_555 1_555
C50_7 C51_6 1_555 1_555
C52_6 N7_6 1_555 1_555
C1_7 C29_7 1_555 1_555
C3_7 C4_7 1_555 1_555
C4_7 C5_7 1_555 1_555
C6_7 C5_7 1_555 1_555
C7_7 C6_7 1_555 1_555
H3_7 C7_7 1_555 1_555
C8_7 C3_7 1_555 1_555
H4_7 C8_7 1_555 1_555
C10_7 C30_7 1_555 1_555
C11_7 C12_7 1_555 1_555
H7_4 C15_4 1_555 1_555
C16_4 C11_7 1_555 1_555
H8_4 C16_4 1_555 1_555
C24_7 C26_7 1_555 1_555
C26_7 H13_7 1_555 1_555
H14_7 C26_7 1_555 1_555
C27_7 H15_7 1_555 1_555
H16_7 C27_7 1_555 1_555
C28_7 C27_7 1_555 1_555
H17_7 C28_7 1_555 1_555
H18_7 C28_7 1_555 1_555
C29_7 H19_7 1_555 1_555
H20_7 C29_7 1_555 1_555
C30_7 H21_7 1_555 1_555
H22_7 C30_7 1_555 1_555
C31_7 H23_7 1_555 1_555
H24_7 C31_7 1_555 1_555
C32_7 H25_7 1_555 1_555
H26_7 C32_7 1_555 1_555
C33_6 C32_7 1_555 1_555
C38_6 C33_6 1_555 1_555
H30_6 C38_6 1_555 1_555
C39_7 H31_7 1_555 1_555
H32_7 C39_7 1_555 1_555
C40_7 C39_7 1_555 1_555
C41_7 C40_7 1_555 1_555
H33_7 C41_7 1_555 1_555
C42_7 C41_7 1_555 1_555
H34_7 C42_7 1_555 1_555
C43_7 C42_7 1_555 1_555
C44_7 C43_7 1_555 1_555
H35_7 C44_7 1_555 1_555
C45_7 C40_7 1_555 1_555
H36_7 C45_7 1_555 1_555
C53_7 H43_7 1_555 1_555
H44_7 C53_7 1_555 1_555
C54_7 C53_7 1_555 1_555
C55_7 C54_7 1_555 1_555
H45_7 C55_7 1_555 1_555
C56_7 C55_7 1_555 1_555
H47_7 C58_7 1_555 1_555
C59_7 C54_7 1_555 1_555
H48_7 C59_7 1_555 1_555
C60_7 C61_7 1_555 1_555
C61_7 C62_7 1_555 1_555
C63_7 C62_7 1_555 1_555
C64_7 C63_7 1_555 1_555
H51_7 C64_7 1_555 1_555
C65_7 C60_7 1_555 1_555
H52_7 C65_7 1_555 1_555
N1_7 C10_7 1_555 1_555
N3_7 C26_7 1_555 1_555
N4_7 C24_7 1_555 1_555
N5_7 C28_7 1_555 1_555
N6_7 C1_7 1_555 1_555
N8_7 C1_7 1_555 1_555
N9_7 C10_7 1_555 1_555
N10_7 C24_7 1_555 1_555
Ni1_7 N1_7 1_555 1_555
O13_4 C66_7 1_555 1_555
O8_4 C66_7 1_555 1_555
C66_7 C43_7 1_555 1_555
Eu5_2 O8_4 1_555 1_555
C3_7 N8_7 1_555 1_555
C4_7 N6_7 1_555 1_555
C7_7 C8_7 1_555 1_555
C11_7 N9_7 1_555 1_555
C12_7 N1_7 1_555 1_555
C15_4 C16_4 1_555 1_555
C27_7 N3_7 1_555 1_555
C29_7 N5_7 1_555 1_555
C30_7 N5_7 1_555 1_555
C31_7 N3_7 1_555 1_555
C32_7 N10_7 1_555 1_555
C39_7 N9_7 1_555 1_555
C44_7 C45_7 1_555 1_555
C53_7 N8_7 1_555 1_555
C58_7 C59_7 1_555 1_555
C60_7 N4_7 1_555 1_555
C61_7 N10_7 1_555 1_555
C64_7 C65_7 1_555 1_555
N3_7 Ni1_7 1_555 1_555
N4_7 Ni1_7 1_555 1_555
N5_7 Ni1_7 1_555 1_555
N6_7 Ni1_7 1_555 1_555
C9_7 C57_7 1_555 1_555
O1_7 C9_7 1_555 1_555
O3_7 C9_7 1_555 1_555
Eu5 O1_7 1_555 1_555
O14_4 Eu5 1_555 1_555
O3_7 Eu5 1_555 1_555
C2_8 C36_8 1_555 1_555
C25_8 C49_8 1_555 1_555
H28_8 C35_8 1_555 1_555
C36_8 C35_8 1_555 1_555
C37_8 C36_8 1_555 1_555
H29_8 C37_8 1_555 1_555
H38_8 C48_8 1_555 1_555
C49_8 C48_8 1_555 1_555
C50_8 C49_8 1_555 1_555
H39_8 C50_8 1_555 1_555
O9_4 C25_8 1_555 1_555
O10_2 C25_8 1_555 1_555
O11_4 C2_8 1_555 1_555
O12_4 C2_8 1_555 1_555
C9_8 C57_8 1_555 1_555
O1_8 C9_8 1_555 1_555
O3_8 C9_8 1_555 1_555
Eu5_2 O1_8 1_555 1_555
O3_8 Eu5_2 1_555 1_555
C1_8 C29_8 1_555 1_555
C3_8 C4_8 1_555 1_555
C4_8 C5_8 1_555 1_555
C6_8 C5_8 1_555 1_555
C7_8 C6_8 1_555 1_555
H3_8 C7_8 1_555 1_555
C8_8 C3_8 1_555 1_555
H4_8 C8_8 1_555 1_555
C10_8 C30_8 1_555 1_555
C11_8 C12_8 1_555 1_555
H7_5 C15_5 1_555 1_555
C16_5 C11_8 1_555 1_555
H8_5 C16_5 1_555 1_555
C24_8 C26_8 1_555 1_555
C26_8 H13_8 1_555 1_555
H14_8 C26_8 1_555 1_555
C27_8 H15_8 1_555 1_555
H16_8 C27_8 1_555 1_555
C28_8 C27_8 1_555 1_555
H17_8 C28_8 1_555 1_555
H18_8 C28_8 1_555 1_555
C29_8 H19_8 1_555 1_555
H20_8 C29_8 1_555 1_555
C30_8 H21_8 1_555 1_555
H22_8 C30_8 1_555 1_555
C31_8 H23_8 1_555 1_555
H24_8 C31_8 1_555 1_555
C32_8 H25_8 1_555 1_555
H26_8 C32_8 1_555 1_555
C39_8 H31_8 1_555 1_555
H32_8 C39_8 1_555 1_555
C40_8 C39_8 1_555 1_555
C41_8 C40_8 1_555 1_555
H33_8 C41_8 1_555 1_555
C42_8 C41_8 1_555 1_555
H34_8 C42_8 1_555 1_555
C43_8 C42_8 1_555 1_555
C44_8 C43_8 1_555 1_555
H35_8 C44_8 1_555 1_555
C45_8 C40_8 1_555 1_555
H36_8 C45_8 1_555 1_555
C53_8 H43_8 1_555 1_555
H44_8 C53_8 1_555 1_555
C54_8 C53_8 1_555 1_555
C55_8 C54_8 1_555 1_555
H45_8 C55_8 1_555 1_555
C56_8 C55_8 1_555 1_555
H47_8 C58_8 1_555 1_555
C59_8 C54_8 1_555 1_555
H48_8 C59_8 1_555 1_555
C60_8 C61_8 1_555 1_555
C61_8 C62_8 1_555 1_555
C63_8 C62_8 1_555 1_555
C64_8 C63_8 1_555 1_555
H51_8 C64_8 1_555 1_555
C65_8 C60_8 1_555 1_555
H52_8 C65_8 1_555 1_555
N1_8 C10_8 1_555 1_555
N3_8 C26_8 1_555 1_555
N4_8 C24_8 1_555 1_555
N5_8 C28_8 1_555 1_555
N6_8 C1_8 1_555 1_555
N8_8 C1_8 1_555 1_555
N9_8 C10_8 1_555 1_555
N10_8 C24_8 1_555 1_555
Ni1_8 N1_8 1_555 1_555
O13_3 C66_8 1_555 1_555
O14_4 C66_8 1_555 1_555
C66_8 C43_8 1_555 1_555
C3_8 N8_8 1_555 1_555
C4_8 N6_8 1_555 1_555
C7_8 C8_8 1_555 1_555
C11_8 N9_8 1_555 1_555
C12_8 N1_8 1_555 1_555
C15_5 C16_5 1_555 1_555
C27_8 N3_8 1_555 1_555
C29_8 N5_8 1_555 1_555
C30_8 N5_8 1_555 1_555
C31_8 N3_8 1_555 1_555
C32_8 N10_8 1_555 1_555
C39_8 N9_8 1_555 1_555
C44_8 C45_8 1_555 1_555
C53_8 N8_8 1_555 1_555
C58_8 C59_8 1_555 1_555
C60_8 N4_8 1_555 1_555
C61_8 N10_8 1_555 1_555
C64_8 C65_8 1_555 1_555
N3_8 Ni1_8 1_555 1_555
N4_8 Ni1_8 1_555 1_555
N5_8 Ni1_8 1_555 1_555
N6_8 Ni1_8 1_555 1_555
H7_6 C15_6 1_555 1_555
H8_6 C16_6 1_555 1_555
C15_6 C16_6 1_555 1_555
C13_7 H5_7 1_555 1_555
C14_7 C13_7 1_555 1_555
H6_5 C14_7 1_555 1_555
C18_7 C19_7 1_555 1_555
C19_7 C20_7 1_555 1_555
C20_7 H9_7 1_555 1_555
C21_7 C20_7 1_555 1_555
H10_7 C21_7 1_555 1_555
C22_7 C21_7 1_555 1_555
H11_7 C22_7 1_555 1_555
C23_7 C18_7 1_555 1_555
H12_7 C23_7 1_555 1_555
H27_7 C34_7 1_555 1_555
C46_7 C47_7 1_555 1_555
C47_7 H37_7 1_555 1_555
C51_7 C46_7 1_555 1_555
H40_7 C51_7 1_555 1_555
C52_7 C46_7 1_555 1_555
H41_7 C52_7 1_555 1_555
H42_7 C52_7 1_555 1_555
N2_7 C17_7 1_555 1_555
N7_7 C17_7 1_555 1_555
C18_7 N2_7 1_555 1_555
C19_7 N7_7 1_555 1_555
C22_7 C23_7 1_555 1_555
C52_7 N7_7 1_555 1_555
C38_7 C33_7 1_555 1_555
H30_7 C38_7 1_555 1_555
H7_7 C15_7 1_555 1_555
H8_7 C16_7 1_555 1_555
C15_7 C16_7 1_555 1_555
H7_8 C15_8 1_555 1_555
H8_8 C16_8 1_555 1_555
C15_8 C16_8 1_555 1_555
C38_8 C33_8 1_555 1_555
H30_8 C38_8 1_555 1_555
C13_8 H5_8 1_555 1_555
C14_8 C13_8 1_555 1_555
H6_8 C14_8 1_555 1_555
C18_8 C19_8 1_555 1_555
C19_8 C20_8 1_555 1_555
C20_8 H9_8 1_555 1_555
C21_8 C20_8 1_555 1_555
H10_8 C21_8 1_555 1_555
C22_8 C21_8 1_555 1_555
H11_8 C22_8 1_555 1_555
C23_8 C18_8 1_555 1_555
H12_8 C23_8 1_555 1_555
H27_8 C34_8 1_555 1_555
C46_8 C47_8 1_555 1_555
C47_8 H37_8 1_555 1_555
C51_8 C46_8 1_555 1_555
H40_8 C51_8 1_555 1_555
C52_8 C46_8 1_555 1_555
H41_8 C52_8 1_555 1_555
H42_8 C52_8 1_555 1_555
N2_8 C17_8 1_555 1_555
N7_8 C17_8 1_555 1_555
C18_8 N2_8 1_555 1_555
C19_8 N7_8 1_555 1_555
C22_8 C23_8 1_555 1_555
C52_8 N7_8 1_555 1_555

#END
