
###############################################################################
#
# This file contains modified crystal structure data generated from the
# MOF subset of the Cambridge Structural Database (CSD) v543 
# hosted by the Cambridge Crystallographic Data Centre (CCDC).
#
# This work is licensed under the Creative Commons
# Attribution-NonCommercial-ShareAlike 4.0 International License.
# To view a copy of this license, visit
# http://creativecommons.org/licenses/by-nc-sa/4.0/
# or send a letter to
# Creative Commons, PO Box 1866, Mountain View, CA 94042, USA.
#
# CIF created using the CSD Python API on 29 September 2022
# The structure has been converted into the P1 space group
# The structure has a 3D framework
# The original CSD entry RIFMIE is in the triclinic crystal system
# The framework has been calculated to contain at least 10.0% void space
# The void calculation uses a probe of radius 1.32A, grid spacing 0.4
#
###############################################################################

data_RIFMIE
_chemical_formula_moiety         '(C140 H122 La4 N30 Ni2 O42)n'
_symmetry_cell_setting           triclinic
_symmetry_space_group_name_H-M   'P 1'
_symmetry_Int_Tables_number      1
_space_group_name_Hall           'P 1'
loop_
_symmetry_equiv_pos_site_id
_symmetry_equiv_pos_as_xyz
1 x,y,z
_cell_length_a                   14.291(8)
_cell_length_b                   17.345(9)
_cell_length_c                   19.371(10)
_cell_angle_alpha                63.737(6)
_cell_angle_beta                 83.571(7)
_cell_angle_gamma                82.359(7)
_cell_volume                     4260.1
loop_
_atom_site_label
_atom_site_type_symbol
_atom_site_fract_x
_atom_site_fract_y
_atom_site_fract_z
N1 N 0.2169(12) 0.8396(12) 0.0229(9)
O1 O 0.2688(10) 0.8743(9) 0.0368(8)
O2 O 0.2458(11) 0.7728(12) 0.0188(9)
O3 O 0.134(2) 0.8924(19) 0.0048(15)
N1_2 N 0.7831(12) 0.1604(12) 0.9771(9)
O1_2 O 0.7312(10) 0.1257(9) 0.9632(8)
O2_2 O 0.7542(11) 0.2272(12) 0.9812(9)
O3_2 O 0.866(2) 0.1076(19) 0.9952(15)
La2 La 0.07152(2) 0.51684(2) 0.57933(2)
O4 O 0.0139(4) 0.3729(3) 0.6271(3)
O22 O 0.0989(3) 0.4679(3) 0.4747(3)
O23 O 0.0662(5) 0.6481(4) 0.4562(4)
O24 O 0.1373(4) 0.4318(3) 0.7098(3)
O27 O 0.0772(4) 0.6110(4) 0.6445(4)
O30 O 0.2445(3) 0.5289(3) 0.5621(3)
La1 La 0.17664(2) 0.54013(2) 0.77055(2)
Ni1 Ni 0.52027(5) 0.01140(5) 0.76096(5)
O5 O 0.9011(3) 0.5321(3) 0.5253(3)
O6 O 0.9338(5) 0.3519(4) 0.5438(4)
O8 O 0.2382(4) 0.3801(4) 0.7989(3)
O11 O 0.0349(4) 0.4727(4) 0.8483(4)
O14 O 0.9032(4) 0.5337(5) 0.6363(4)
O15 O 0.7544(6) 0.5160(7) 0.6013(6)
O18 O 0.0155(6) 0.6525(6) 0.7274(5)
O19 O 0.2207(9) 0.2929(7) 0.7338(8)
N2 N 0.0212(6) 0.6633(6) 0.6526(7)
N3 N 0.8605(5) 0.5263(5) 0.5887(5)
N4 N 0.1958(5) 0.3734(4) 0.7480(4)
N9 N 0.5501(4) 0.0920(4) 0.8133(3)
N10 N 0.3928(4) 0.0817(4) 0.7216(3)
N11 N 0.5992(4) 0.1018(3) 0.6718(3)
N12 N 0.2355(3) 0.0823(4) 0.7370(4)
N13 N 0.6477(4) 0.2339(3) 0.6257(3)
O21 O 0.2868(3) 0.5557(3) 0.6563(3)
C3 C 0.8820(4) 0.0901(4) 0.7895(4)
C4 C 0.9025(5) 0.1843(5) 0.6558(4)
H1 H 0.8974 0.1957 0.6047
C5 C 0.6856(4) 0.2001(4) 0.5733(4)
C6 C 0.3207(4) 0.0487(4) 0.7687(4)
C9 C 0.3530(5) 0.1403(4) 0.6501(4)
C10 C 0.3940(4) 0.4715(4) 0.6110(4)
C11 C 0.5970(4) 0.1736(4) 0.6807(4)
C14 C 0.4147(5) 0.4291(5) 0.5643(4)
H3 H 0.3711 0.4345 0.5298
C15 C 0.2555(5) 0.1413(4) 0.6599(5)
C16 C 0.5000(5) 0.3786(5) 0.5683(4)
H4 H 0.5123 0.3490 0.5378
C19 C 0.6603(4) 0.3186(4) 0.6214(5)
H5 H 0.7006 0.3493 0.5761
H6 H 0.6916 0.3105 0.6664
C20 C 0.5664(4) 0.3725(4) 0.6175(4)
C23 C 0.1460(5) 0.0455(5) 0.7702(5)
H9 H 0.0948 0.0827 0.7394
H10 H 0.1341 0.0414 0.8220
C24 C 0.9450(5) 0.2258(5) 0.7480(5)
H11 H 0.9709 0.2646 0.7598
C26 C 0.5459(5) 0.1806(4) 0.7495(4)
H12 H 0.5759 0.2186 0.7631
H13 H 0.4807 0.2036 0.7390
C27 C 0.7698(6) 0.1814(6) 0.4709(5)
H14 H 0.8069 0.2022 0.4250
C30 C 0.8769(5) 0.1084(5) 0.7134(4)
H17 H 0.8555 0.0680 0.7009
C31 C 0.4598(5) 0.4627(5) 0.6620(4)
H18 H 0.4468 0.4901 0.6943
C33 C 0.8555(5) 0.0058(5) 0.8556(4)
H21 H 0.8305 0.0165 0.8995
C34 C 0.9363(4) 0.2452(4) 0.6729(4)
C35 C 0.3014(4) 0.5223(4) 0.6107(4)
C36 C 0.6471(4) 0.0656(5) 0.8440(4)
H22 H 0.6854 0.1139 0.8192
H23 H 0.6422 0.0492 0.8990
C37 C 0.5461(5) 0.4126(5) 0.6648(5)
H24 H 0.5899 0.4067 0.6993
C40 C 0.9168(5) 0.1509(5) 0.8072(4)
H26 H 0.9207 0.1405 0.8582
C41 C 0.3973(6) 0.1893(5) 0.5809(4)
H27 H 0.4628 0.1884 0.5737
C42 C 0.1982(6) 0.1880(6) 0.6010(6)
H28 H 0.1331 0.1856 0.6068
C44 C 0.4758(5) 0.0779(5) 0.8773(4)
H30 H 0.4169 0.1108 0.8565
H31 H 0.4950 0.0976 0.9128
C45 C 0.7436(5) 0.2330(5) 0.5055(4)
H32 H 0.7629 0.2883 0.4855
C46 C 0.7433(7) 0.0961(6) 0.5016(5)
H33 H 0.7638 0.0622 0.4757
C47 C 0.6868(5) 0.0622(5) 0.5702(5)
H34 H 0.6704 0.0058 0.5917
H41 H 0.3006 0.0067 0.8834
C58 C 0.3377(7) 0.2410(6) 0.5220(6)
H47 H 0.3642 0.2776 0.4744
C61 C 0.2432(8) 0.2396(7) 0.5317(6)
H50 H 0.2066 0.2747 0.4902
C62 C 0.9638(6) 0.3302(5) 0.6081(5)
C70 C 0.6569(4) 0.1170(4) 0.6039(4)
La6 La 0.92848(2) 0.48316(2) 0.42067(2)
O25 O 0.3406(4) 0.5265(4) 0.8217(3)
O26 O 0.2307(3) 0.4579(4) 0.9110(3)
O28 O 0.2084(4) 0.6961(3) 0.7184(3)
O29 O 0.1470(5) 0.6426(4) 0.8380(3)
O9 O 0.6594(4) 0.4735(4) 0.1783(3)
O10 O 0.7693(3) 0.5421(4) 0.0890(3)
C8 C 0.6116(5) 0.5648(5) 0.0495(4)
C39 C 0.6849(5) 0.5251(5) 0.1088(4)
C53 C 0.4488(5) 0.6031(6) 0.0175(5)
H42 H 0.3849 0.6016 0.0332
C55 C 0.5163(6) 0.5598(7) 0.0719(5)
H44 H 0.4974 0.5276 0.1233
La4 La 0.82336(2) 0.45987(2) 0.22945(2)
N6 N 0.6470(3) 0.9473(3) 0.8061(3)
C1 C 0.6923(4) 0.9928(4) 0.8296(4)
N7 N 0.4791(4) 0.9036(3) 0.7518(3)
N8 N 0.7858(3) 0.9666(4) 0.8355(3)
N14 N 0.4309(4) 0.7731(4) 0.8180(4)
N15 N 0.4330(3) 0.9531(4) 0.8659(3)
C2 C 0.4718(5) 0.8697(5) 0.6991(4)
C7 C 0.1327(5) 0.8054(5) 0.8407(4)
H2 H 0.1137 0.7591 0.8857
C12 C 0.7164(4) 0.8879(4) 0.7954(4)
C13 C 0.4525(4) 0.8454(4) 0.8204(4)
C17 C 0.1496(4) 0.9550(5) 0.7729(5)
C18 C 0.1667(5) 0.7921(5) 0.7768(5)
C21 C 0.8032(5) 0.8994(5) 0.8152(5)
C22 C 0.4512(5) 0.8596(5) 0.8896(4)
H7 H 0.5115 0.8381 0.9131
H8 H 0.4019 0.8294 0.9269
C25 C 0.4761(5) 0.6483(4) 0.9405(4)
C28 C 0.4614(5) 0.9840(5) 0.9191(4)
H15 H 0.5196 0.9514 0.9418
H16 H 0.4128 0.9750 0.9604
C29 C 0.4439(5) 0.7868(5) 0.7402(4)
C32 C 0.1264(5) 0.8859(5) 0.8386(5)
H19 H 0.1059 0.8930 0.8829
H20 H 0.9119 0.9658 0.8706
C38 C 0.5702(5) 0.6511(5) 0.9186(4)
H25 H 0.5887 0.6808 0.8667
C43 C 0.7112(5) 0.8238(5) 0.7706(5)
H29 H 0.6540 0.8140 0.7587
C48 C 0.4899(6) 0.9034(6) 0.6214(5)
H35 H 0.5093 0.9586 0.5933
C49 C 0.4317(6) 0.7354(6) 0.7042(6)
H36 H 0.4137 0.6796 0.7316
C50 C 0.4007(5) 0.6939(5) 0.8833(5)
H37 H 0.3845 0.6549 0.8638
H38 H 0.3442 0.7086 0.9095
C51 C 0.1862(7) 0.9420(5) 0.7074(5)
H39 H 0.2040 0.9883 0.6619
C52 C 0.3298(4) 0.9830(5) 0.8484(4)
H40 H 0.2968 0.9340 0.8568
C54 C 0.7931(7) 0.7763(6) 0.7647(7)
H43 H 0.7917 0.7344 0.7474
C56 C 0.8864(5) 0.8508(6) 0.8079(6)
H45 H 0.9446 0.8599 0.8189
C57 C 0.8779(6) 0.7891(7) 0.7838(8)
H46 H 0.9317 0.7542 0.7802
C59 C 0.4483(8) 0.7729(7) 0.6244(6)
H48 H 0.4383 0.7423 0.5972
C60 C 0.4779(7) 0.8509(7) 0.5861(6)
H49 H 0.4913 0.8717 0.5332
C67 C 0.1738(5) 0.7040(5) 0.7792(5)
C68 C 0.1949(7) 0.8612(5) 0.7119(5)
H60 H 0.2209 0.8525 0.6694
C69 C 0.6383(5) 0.6111(5) 0.9717(4)
H61 H 0.7021 0.6150 0.9556
O16 O 0.7916(4) 0.3039(3) 0.2816(3)
O17 O 0.8530(5) 0.3574(4) 0.1620(3)
N6_2 N 0.3530(3) 0.0527(3) 0.1939(3)
C1_2 C 0.3077(4) 0.0072(4) 0.1704(4)
N7_2 N 0.5209(4) 0.0964(3) 0.2482(3)
N8_2 N 0.2142(3) 0.0334(4) 0.1645(3)
N14_2 N 0.5691(4) 0.2269(4) 0.1820(4)
N15_2 N 0.5670(3) 0.0469(4) 0.1341(3)
C2_2 C 0.5282(5) 0.1303(5) 0.3009(4)
C7_2 C 0.8673(5) 0.1946(5) 0.1593(4)
H2_2 H 0.8863 0.2409 0.1143
C12_2 C 0.2836(4) 0.1121(4) 0.2046(4)
C13_2 C 0.5475(4) 0.1546(4) 0.1796(4)
C17_2 C 0.8504(4) 0.0450(5) 0.2271(5)
C18_2 C 0.8333(5) 0.2079(5) 0.2232(5)
C21_2 C 0.1968(5) 0.1006(5) 0.1848(5)
C22_2 C 0.5488(5) 0.1404(5) 0.1104(4)
H7_2 H 0.4885 0.1619 0.0869
H8_2 H 0.5981 0.1706 0.0731
C25_2 C 0.5239(5) 0.3517(4) 0.0595(4)
C28_2 C 0.5386(5) 0.0160(5) 0.0809(4)
H15_2 H 0.4804 0.0486 0.0582
H16_2 H 0.5872 0.0250 0.0396
C29_2 C 0.5561(5) 0.2132(5) 0.2598(4)
C32_2 C 0.8736(5) 0.1141(5) 0.1614(5)
H19_2 H 0.8941 0.1070 0.1171
H20_2 H 0.0881 0.0342 0.1294
C38_2 C 0.4298(5) 0.3489(5) 0.0814(4)
H25_2 H 0.4113 0.3192 0.1333
C43_2 C 0.2888(5) 0.1762(5) 0.2294(5)
H29_2 H 0.3460 0.1860 0.2413
C48_2 C 0.5101(6) 0.0966(6) 0.3786(5)
H35_2 H 0.4907 0.0414 0.4067
C49_2 C 0.5683(6) 0.2646(6) 0.2958(6)
H36_2 H 0.5863 0.3204 0.2684
C50_2 C 0.5993(5) 0.3061(5) 0.1167(5)
H37_2 H 0.6155 0.3451 0.1362
H38_2 H 0.6558 0.2914 0.0905
C51_2 C 0.8138(7) 0.0580(5) 0.2926(5)
H39_2 H 0.7960 0.0117 0.3381
C52_2 C 0.6702(4) 0.0170(5) 0.1516(4)
H40_2 H 0.7032 0.0660 0.1432
C54_2 C 0.2069(7) 0.2237(6) 0.2353(7)
H43_2 H 0.2083 0.2656 0.2526
C56_2 C 0.1136(5) 0.1492(6) 0.1921(6)
H45_2 H 0.0554 0.1401 0.1811
C57_2 C 0.1221(6) 0.2109(7) 0.2162(8)
H46_2 H 0.0683 0.2458 0.2198
C59_2 C 0.5517(8) 0.2271(7) 0.3756(6)
H48_2 H 0.5617 0.2577 0.4028
C60_2 C 0.5221(7) 0.1491(7) 0.4139(6)
H49_2 H 0.5087 0.1283 0.4668
C67_2 C 0.8262(5) 0.2960(5) 0.2208(5)
C68_2 C 0.8051(7) 0.1388(5) 0.2881(5)
H60_2 H 0.7791 0.1475 0.3306
C69_2 C 0.3617(5) 0.3889(5) 0.0283(4)
H61_2 H 0.2979 0.3850 0.0444
C8_2 C 0.3884(5) 0.4352(5) 0.9505(4)
C39_2 C 0.3151(5) 0.4749(5) 0.8912(4)
C53_2 C 0.5512(5) 0.3969(6) 0.9825(5)
H42_2 H 0.6151 0.3984 0.9668
C55_2 C 0.4837(6) 0.4402(7) 0.9281(5)
H44_2 H 0.5026 0.4724 0.8767
Ni1_2 Ni 0.47973(5) 0.98860(5) 0.23904(5)
O7 O 0.8627(4) 0.5682(3) 0.2902(3)
O8_2 O 0.7618(4) 0.6199(4) 0.2011(3)
O11_2 O 0.9651(4) 0.5273(4) 0.1517(4)
O12 O 0.9228(4) 0.3890(4) 0.3555(4)
O14_2 O 0.0968(4) 0.4663(5) 0.3637(4)
O15_2 O 0.2456(6) 0.4840(7) 0.3987(6)
O18_2 O 0.9845(6) 0.3475(6) 0.2726(5)
O19_2 O 0.7793(9) 0.7071(7) 0.2662(8)
N2_2 N 0.9788(6) 0.3367(6) 0.3474(7)
N3_2 N 0.1395(5) 0.4737(5) 0.4113(5)
N4_2 N 0.8042(5) 0.6266(4) 0.2520(4)
O20 O 0.7555(3) 0.4711(3) 0.4379(3)
N9_2 N 0.4499(4) 0.9080(4) 0.1867(3)
N10_2 N 0.6072(4) 0.9183(4) 0.2784(3)
N11_2 N 0.4008(4) 0.8982(3) 0.3282(3)
N12_2 N 0.7645(3) 0.9177(4) 0.2630(4)
N13_2 N 0.3523(4) 0.7661(3) 0.3743(3)
O21_2 O 0.7132(3) 0.4443(3) 0.3437(3)
C3_2 C 0.1180(4) 0.9099(4) 0.2105(4)
C4_2 C 0.0975(5) 0.8157(5) 0.3442(4)
H1_2 H 0.1026 0.8043 0.3953
C5_2 C 0.3144(4) 0.7999(4) 0.4267(4)
C6_2 C 0.6793(4) 0.9513(4) 0.2313(4)
C9_2 C 0.6470(5) 0.8597(4) 0.3499(4)
C10_2 C 0.6060(4) 0.5285(4) 0.3890(4)
C11_2 C 0.4030(4) 0.8264(4) 0.3193(4)
C14_2 C 0.5853(5) 0.5709(5) 0.4357(4)
H3_2 H 0.6289 0.5655 0.4702
C15_2 C 0.7445(5) 0.8587(4) 0.3401(5)
C16_2 C 0.5000(5) 0.6214(5) 0.4317(4)
H4_2 H 0.4877 0.6510 0.4622
C19_2 C 0.3397(4) 0.6814(4) 0.3786(5)
H5_2 H 0.2994 0.6507 0.4239
H6_2 H 0.3084 0.6895 0.3336
C20_2 C 0.4336(4) 0.6275(4) 0.3825(4)
C23_2 C 0.8540(5) 0.9545(5) 0.2298(5)
H9_2 H 0.9052 0.9173 0.2606
H10_2 H 0.8659 0.9586 0.1780
C24_2 C 0.0550(5) 0.7742(5) 0.2520(5)
H11_2 H 0.0291 0.7354 0.2402
C26_2 C 0.4541(5) 0.8194(4) 0.2505(4)
H12_2 H 0.4241 0.7814 0.2369
H13_2 H 0.5193 0.7964 0.2610
C27_2 C 0.2302(6) 0.8186(6) 0.5291(5)
H14_2 H 0.1931 0.7978 0.5750
C30_2 C 0.1231(5) 0.8916(5) 0.2866(4)
H17_2 H 0.1445 0.9320 0.2991
C31_2 C 0.5402(5) 0.5373(5) 0.3380(4)
H18_2 H 0.5532 0.5099 0.3057
C33_2 C 0.1445(5) 0.9942(5) 0.1444(4)
H21_2 H 0.1695 0.9835 0.1005
C34_2 C 0.0637(4) 0.7548(4) 0.3271(4)
C35_2 C 0.6986(4) 0.4777(4) 0.3893(4)
C36_2 C 0.3529(4) 0.9344(5) 0.1560(4)
H22_2 H 0.3146 0.8861 0.1808
H23_2 H 0.3578 0.9508 0.1010
C37_2 C 0.4539(5) 0.5874(5) 0.3352(5)
H24_2 H 0.4101 0.5933 0.3007
C40_2 C 0.0832(5) 0.8491(5) 0.1928(4)
H26_2 H 0.0793 0.8595 0.1418
C41_2 C 0.6027(6) 0.8107(5) 0.4191(4)
H27_2 H 0.5372 0.8116 0.4263
C42_2 C 0.8018(6) 0.8120(6) 0.3990(6)
H28_2 H 0.8669 0.8144 0.3932
C44_2 C 0.5242(5) 0.9221(5) 0.1227(4)
H30_2 H 0.5831 0.8892 0.1435
H31_2 H 0.5050 0.9024 0.0872
C45_2 C 0.2564(5) 0.7670(5) 0.4945(4)
H32_2 H 0.2371 0.7117 0.5145
C46_2 C 0.2567(7) 0.9039(6) 0.4984(5)
H33_2 H 0.2362 0.9378 0.5243
C47_2 C 0.3132(5) 0.9378(5) 0.4298(5)
H34_2 H 0.3296 0.9942 0.4083
H41_2 H 0.6994 0.9933 0.1166
C58_2 C 0.6623(7) 0.7590(6) 0.4780(6)
H47_2 H 0.6358 0.7224 0.5256
C61_2 C 0.7568(8) 0.7604(7) 0.4683(6)
H50_2 H 0.7934 0.7253 0.5098
C62_2 C 0.0362(6) 0.6698(5) 0.3919(5)
C70_2 C 0.3431(4) 0.8830(4) 0.3961(4)
O4_2 O 0.9861(4) 0.6271(3) 0.3729(3)
O13 O 0.9675(10) 0.7307(9) 0.6087(11)
N5 N 0.9093(16) 0.4619(15) 0.9195(13)
C63 C 0.9539(8) 0.4460(9) 0.8700(8)
C64 C 0.9249(15) 0.5356(13) 0.9277(13)
H51 H 0.8756 0.5460 0.9614
H52 H 0.9248 0.5845 0.8781
H53 H 0.9849 0.5265 0.9493
C65 C 0.8168(16) 0.4400(16) 0.9511(14)
H54 H 0.7927 0.4722 0.9799
H55 H 0.8188 0.3793 0.9847
H56 H 0.7762 0.4536 0.9102
C66 C 0.9219(12) 0.3892(11) 0.8426(10)
H57 H 0.9719 0.3753 0.8113
H58 H 0.8680 0.4175 0.8125
H59 H 0.9047 0.3371 0.8859
O13_2 O 0.0325(10) 0.2693(9) 0.3913(11)
N5_2 N 0.0907(16) 0.5381(15) 0.0805(13)
C63_2 C 0.0461(8) 0.5540(9) 0.1300(8)
C64_2 C 0.0751(15) 0.4644(13) 0.0723(13)
H51_2 H 0.1244 0.4540 0.0386
H52_2 H 0.0752 0.4155 0.1219
H53_2 H 0.0151 0.4735 0.0507
C65_2 C 0.1832(16) 0.5600(16) 0.0489(14)
H54_2 H 0.2073 0.5278 0.0201
H55_2 H 0.1812 0.6207 0.0153
H56_2 H 0.2238 0.5464 0.0898
C66_2 C 0.0781(12) 0.6108(11) 0.1574(10)
H57_2 H 0.0281 0.6247 0.1887
H58_2 H 0.1320 0.5825 0.1875
H59_2 H 0.0953 0.6629 0.1141
loop_
_geom_bond_atom_site_label_1
_geom_bond_atom_site_label_2
_geom_bond_site_symmetry_1
_geom_bond_site_symmetry_2
N1 O1 1_555 1_555
O2 N1 1_555 1_555
O3 N1 1_555 1_555
N1_2 O1_2 1_555 1_555
O2_2 N1_2 1_555 1_555
O3_2 N1_2 1_555 1_555
La2 O4 1_555 1_555
O22 La2 1_555 1_555
O23 La2 1_555 1_555
O24 La2 1_555 1_555
O27 La2 1_555 1_555
O30 La2 1_555 1_555
La1 O24 1_555 1_555
O6 C62 1_555 1_555
O24 N4 1_555 1_555
O8 La1 1_555 1_555
O11 La1 1_555 1_555
O27 La1 1_555 1_555
O15 N3 1_555 1_555
O18 La1 1_555 1_555
O19 N4 1_555 1_555
N2 O27 1_555 1_555
N3 O5 1_555 1_555
N4 O8 1_555 1_555
O30 C35 1_555 1_555
N9 Ni1 1_555 1_555
N10 Ni1 1_555 1_555
N11 Ni1 1_555 1_555
N12 C6 1_555 1_555
N13 C5 1_555 1_555
O21 La1 1_555 1_555
C3 C30 1_555 1_555
C4 H1 1_555 1_555
C5 C45 1_555 1_555
C6 N10 1_555 1_555
C9 N10 1_555 1_555
C10 C14 1_555 1_555
C11 N11 1_555 1_555
C14 H3 1_555 1_555
C15 N12 1_555 1_555
C16 C14 1_555 1_555
H4 C16 1_555 1_555
C19 N13 1_555 1_555
H5 C19 1_555 1_555
H6 C19 1_555 1_555
C20 C16 1_555 1_555
C23 N12 1_555 1_555
H9 C23 1_555 1_555
H10 C23 1_555 1_555
C24 H11 1_555 1_555
C26 N9 1_555 1_555
H12 C26 1_555 1_555
H13 C26 1_555 1_555
C27 H14 1_555 1_555
C30 C4 1_555 1_555
H17 C30 1_555 1_555
C31 C10 1_555 1_555
H18 C31 1_555 1_555
H21 C33 1_555 1_555
C34 C4 1_555 1_555
C35 O21 1_555 1_555
H22 C36 1_555 1_555
H23 C36 1_555 1_555
C37 C20 1_555 1_555
H24 C37 1_555 1_555
C40 C3 1_555 1_555
H26 C40 1_555 1_555
C41 C9 1_555 1_555
H27 C41 1_555 1_555
C42 C15 1_555 1_555
H28 C42 1_555 1_555
C44 N9 1_555 1_555
H30 C44 1_555 1_555
H31 C44 1_555 1_555
C45 C27 1_555 1_555
H32 C45 1_555 1_555
C46 C27 1_555 1_555
H33 C46 1_555 1_555
C47 C46 1_555 1_555
H34 C47 1_555 1_555
C58 C41 1_555 1_555
H47 C58 1_555 1_555
C61 C42 1_555 1_555
H50 C61 1_555 1_555
C62 C34 1_555 1_555
C70 N11 1_555 1_555
La6 O5 1_555 1_555
O25 La1 1_555 1_555
O26 La1 1_555 1_555
O28 La1 1_555 1_555
O29 La1 1_555 1_555
O6 La6 1_555 1_555
O14 N3 1_555 1_555
O18 N2 1_555 1_555
N9 C36 1_555 1_555
N13 C11 1_555 1_555
C3 C33 1_555 1_555
C5 C70 1_555 1_555
C9 C15 1_555 1_555
C10 C35 1_555 1_555
C11 C26 1_555 1_555
C19 C20 1_555 1_555
C24 C34 1_555 1_555
C24 C40 1_555 1_555
C31 C37 1_555 1_555
C47 C70 1_555 1_555
C58 C61 1_555 1_555
O9 C39 1_555 1_555
O10 C39 1_555 1_555
C8 C39 1_555 1_555
H42 C53 1_555 1_555
C55 C8 1_555 1_555
H44 C55 1_555 1_555
La4 O9 1_555 1_555
O10 La4 1_555 1_555
C53 C55 1_555 1_555
O28 C67 1_555 1_555
O29 C67 1_555 1_555
N6 C1 1_555 1_555
C1 N8 1_555 1_555
N8 C21 1_555 1_555
N14 C13 1_555 1_555
C2 N7 1_555 1_555
C7 H2 1_555 1_555
C12 N6 1_555 1_555
C13 N7 1_555 1_555
C18 C7 1_555 1_555
C21 C12 1_555 1_555
C22 N15 1_555 1_555
H7 C22 1_555 1_555
H8 C22 1_555 1_555
C25 C38 1_555 1_555
C28 N15 1_555 1_555
H15 C28 1_555 1_555
H16 C28 1_555 1_555
C29 N14 1_555 1_555
C32 C7 1_555 1_555
H19 C32 1_555 1_555
C38 H25 1_555 1_555
C43 C12 1_555 1_555
H29 C43 1_555 1_555
C48 C2 1_555 1_555
H35 C48 1_555 1_555
C49 C29 1_555 1_555
H36 C49 1_555 1_555
C50 N14 1_555 1_555
H37 C50 1_555 1_555
H38 C50 1_555 1_555
C51 C17 1_555 1_555
H39 C51 1_555 1_555
C52 N15 1_555 1_555
H40 C52 1_555 1_555
C54 C43 1_555 1_555
H43 C54 1_555 1_555
C56 C21 1_555 1_555
H45 C56 1_555 1_555
C57 C54 1_555 1_555
H46 C57 1_555 1_555
C59 C49 1_555 1_555
H48 C59 1_555 1_555
C60 C48 1_555 1_555
H49 C60 1_555 1_555
C67 C18 1_555 1_555
C68 C18 1_555 1_555
H60 C68 1_555 1_555
H61 C69 1_555 1_555
C2 C29 1_555 1_555
C13 C22 1_555 1_555
C17 C32 1_555 1_555
C25 C50 1_555 1_555
C38 C69 1_555 1_555
C51 C68 1_555 1_555
C56 C57 1_555 1_555
C59 C60 1_555 1_555
O16 C67_2 1_555 1_555
O17 C67_2 1_555 1_555
N6_2 C1_2 1_555 1_555
C1_2 N8_2 1_555 1_555
N8_2 C21_2 1_555 1_555
N14_2 C13_2 1_555 1_555
C2_2 N7_2 1_555 1_555
C7_2 H2_2 1_555 1_555
C12_2 N6_2 1_555 1_555
C13_2 N7_2 1_555 1_555
C18_2 C7_2 1_555 1_555
C21_2 C12_2 1_555 1_555
C22_2 N15_2 1_555 1_555
H7_2 C22_2 1_555 1_555
H8_2 C22_2 1_555 1_555
C25_2 C38_2 1_555 1_555
C28_2 N15_2 1_555 1_555
H15_2 C28_2 1_555 1_555
H16_2 C28_2 1_555 1_555
C29_2 N14_2 1_555 1_555
C32_2 C7_2 1_555 1_555
H19_2 C32_2 1_555 1_555
C38_2 H25_2 1_555 1_555
C43_2 C12_2 1_555 1_555
H29_2 C43_2 1_555 1_555
C48_2 C2_2 1_555 1_555
H35_2 C48_2 1_555 1_555
C49_2 C29_2 1_555 1_555
H36_2 C49_2 1_555 1_555
C50_2 N14_2 1_555 1_555
H37_2 C50_2 1_555 1_555
H38_2 C50_2 1_555 1_555
C51_2 C17_2 1_555 1_555
H39_2 C51_2 1_555 1_555
C52_2 N15_2 1_555 1_555
H40_2 C52_2 1_555 1_555
C54_2 C43_2 1_555 1_555
H43_2 C54_2 1_555 1_555
C56_2 C21_2 1_555 1_555
H45_2 C56_2 1_555 1_555
C57_2 C54_2 1_555 1_555
H46_2 C57_2 1_555 1_555
C59_2 C49_2 1_555 1_555
H48_2 C59_2 1_555 1_555
C60_2 C48_2 1_555 1_555
H49_2 C60_2 1_555 1_555
C67_2 C18_2 1_555 1_555
C68_2 C18_2 1_555 1_555
H60_2 C68_2 1_555 1_555
H61_2 C69_2 1_555 1_555
La4 O16 1_555 1_555
O17 La4 1_555 1_555
C2_2 C29_2 1_555 1_555
C13_2 C22_2 1_555 1_555
C17_2 C32_2 1_555 1_555
C25_2 C50_2 1_555 1_555
C38_2 C69_2 1_555 1_555
C51_2 C68_2 1_555 1_555
C56_2 C57_2 1_555 1_555
C59_2 C60_2 1_555 1_555
O25 C39_2 1_555 1_555
O26 C39_2 1_555 1_555
C8_2 C39_2 1_555 1_555
H42_2 C53_2 1_555 1_555
C55_2 C8_2 1_555 1_555
H44_2 C55_2 1_555 1_555
C53_2 C55_2 1_555 1_555
La4 O7 1_555 1_555
O23 C62_2 1_555 1_555
O7 N4_2 1_555 1_555
O8_2 La4 1_555 1_555
O11_2 La4 1_555 1_555
O12 La4 1_555 1_555
O15_2 N3_2 1_555 1_555
O18_2 La4 1_555 1_555
O19_2 N4_2 1_555 1_555
N2_2 O12 1_555 1_555
N3_2 O22 1_555 1_555
N4_2 O8_2 1_555 1_555
O20 C35_2 1_555 1_555
N9_2 Ni1_2 1_555 1_555
N10_2 Ni1_2 1_555 1_555
N11_2 Ni1_2 1_555 1_555
N12_2 C6_2 1_555 1_555
N13_2 C5_2 1_555 1_555
O21_2 La4 1_555 1_555
C3_2 C30_2 1_555 1_555
C4_2 H1_2 1_555 1_555
C5_2 C45_2 1_555 1_555
C6_2 N10_2 1_555 1_555
C9_2 N10_2 1_555 1_555
C10_2 C14_2 1_555 1_555
C11_2 N11_2 1_555 1_555
C14_2 H3_2 1_555 1_555
C15_2 N12_2 1_555 1_555
C16_2 C14_2 1_555 1_555
H4_2 C16_2 1_555 1_555
C19_2 N13_2 1_555 1_555
H5_2 C19_2 1_555 1_555
H6_2 C19_2 1_555 1_555
C20_2 C16_2 1_555 1_555
C23_2 N12_2 1_555 1_555
H9_2 C23_2 1_555 1_555
H10_2 C23_2 1_555 1_555
C24_2 H11_2 1_555 1_555
C26_2 N9_2 1_555 1_555
H12_2 C26_2 1_555 1_555
H13_2 C26_2 1_555 1_555
C27_2 H14_2 1_555 1_555
C30_2 C4_2 1_555 1_555
H17_2 C30_2 1_555 1_555
C31_2 C10_2 1_555 1_555
H18_2 C31_2 1_555 1_555
H21_2 C33_2 1_555 1_555
C34_2 C4_2 1_555 1_555
C35_2 O21_2 1_555 1_555
H22_2 C36_2 1_555 1_555
H23_2 C36_2 1_555 1_555
C37_2 C20_2 1_555 1_555
H24_2 C37_2 1_555 1_555
C40_2 C3_2 1_555 1_555
H26_2 C40_2 1_555 1_555
C41_2 C9_2 1_555 1_555
H27_2 C41_2 1_555 1_555
C42_2 C15_2 1_555 1_555
H28_2 C42_2 1_555 1_555
C44_2 N9_2 1_555 1_555
H30_2 C44_2 1_555 1_555
H31_2 C44_2 1_555 1_555
C45_2 C27_2 1_555 1_555
H32_2 C45_2 1_555 1_555
C46_2 C27_2 1_555 1_555
H33_2 C46_2 1_555 1_555
C47_2 C46_2 1_555 1_555
H34_2 C47_2 1_555 1_555
C58_2 C41_2 1_555 1_555
H47_2 C58_2 1_555 1_555
C61_2 C42_2 1_555 1_555
H50_2 C61_2 1_555 1_555
C62_2 C34_2 1_555 1_555
C70_2 N11_2 1_555 1_555
La6 O7 1_555 1_555
O12 La6 1_555 1_555
O14_2 N3_2 1_555 1_555
O18_2 N2_2 1_555 1_555
O20 La6 1_555 1_555
N9_2 C36_2 1_555 1_555
N13_2 C11_2 1_555 1_555
C3_2 C33_2 1_555 1_555
C5_2 C70_2 1_555 1_555
C9_2 C15_2 1_555 1_555
C10_2 C35_2 1_555 1_555
C11_2 C26_2 1_555 1_555
C19_2 C20_2 1_555 1_555
C24_2 C34_2 1_555 1_555
C24_2 C40_2 1_555 1_555
C31_2 C37_2 1_555 1_555
C47_2 C70_2 1_555 1_555
C58_2 C61_2 1_555 1_555
La6 O4_2 1_555 1_555
N5 C63 1_555 1_555
C64 N5 1_555 1_555
H51 C64 1_555 1_555
H52 C64 1_555 1_555
H53 C64 1_555 1_555
C65 N5 1_555 1_555
H54 C65 1_555 1_555
H55 C65 1_555 1_555
H56 C65 1_555 1_555
C66 C63 1_555 1_555
H57 C66 1_555 1_555
H58 C66 1_555 1_555
H59 C66 1_555 1_555
N5_2 C63_2 1_555 1_555
C64_2 N5_2 1_555 1_555
H51_2 C64_2 1_555 1_555
H52_2 C64_2 1_555 1_555
H53_2 C64_2 1_555 1_555
C65_2 N5_2 1_555 1_555
H54_2 C65_2 1_555 1_555
H55_2 C65_2 1_555 1_555
H56_2 C65_2 1_555 1_555
C66_2 C63_2 1_555 1_555
H57_2 C66_2 1_555 1_555
H58_2 C66_2 1_555 1_555
H59_2 C66_2 1_555 1_555

#END
