
###############################################################################
#
# This file contains modified crystal structure data generated from the
# MOF subset of the Cambridge Structural Database (CSD) v543 
# hosted by the Cambridge Crystallographic Data Centre (CCDC).
#
# This work is licensed under the Creative Commons
# Attribution-NonCommercial-ShareAlike 4.0 International License.
# To view a copy of this license, visit
# http://creativecommons.org/licenses/by-nc-sa/4.0/
# or send a letter to
# Creative Commons, PO Box 1866, Mountain View, CA 94042, USA.
#
# CIF created using the CSD Python API on 29 September 2022
# The structure has been converted into the P1 space group
# The structure has a 3D framework
# The original CSD entry RIFSOQ is in the cubic crystal system
# The framework has been calculated to contain at least 10.0% void space
# The void calculation uses a probe of radius 1.32A, grid spacing 0.4
#
###############################################################################

data_RIFSOQ
_chemical_formula_moiety         '(C4992 H3072 Co216 N1920 S384)n'
_symmetry_cell_setting           triclinic
_symmetry_space_group_name_H-M   'P 1'
_symmetry_Int_Tables_number      1
_space_group_name_Hall           'P 1'
loop_
_symmetry_equiv_pos_site_id
_symmetry_equiv_pos_as_xyz
1 x,y,z
_cell_length_a                   64.0734(17)
_cell_length_b                   64.0734(17)
_cell_length_c                   64.0734(17)
_cell_angle_alpha                90
_cell_angle_beta                 90
_cell_angle_gamma                90
_cell_volume                     263047
loop_
_atom_site_label
_atom_site_type_symbol
_atom_site_fract_x
_atom_site_fract_y
_atom_site_fract_z
H1 H 0.0010 0.8637 0.1770
Co6 Co -0.0000 0.878218(11) 0.128218(11)
C155 C 0.03238(6) 0.85118(6) 0.15478(6)
N59 N 0.02456(5) 0.86273(5) 0.14286(5)
S11 S 0.041831(19) 0.835199(19) 0.171973(19)
Co7 Co -0.0000 0.621782(11) 0.371782(11)
Co15 Co 0.002117(12) 0.8750 0.3750
N62 N 0.01463(5) 0.90915(5) 0.13338(5)
N66 N 0.01547(5) 0.87505(5) 0.09752(5)
Co1 Co 0.871782(11) -0.0000 0.121782(11)
C6 C 0.89882(6) 0.03238(6) 0.09522(6)
N1 N 0.88727(5) 0.02456(5) 0.10714(5)
S1 S 0.914801(19) 0.041831(19) 0.078027(19)
H73 H 0.6770 0.0010 0.3637
Co5 Co 0.878218(11) 0.128218(11) 0.0000
C133 C 0.82299(7) 0.01013(7) 0.12656(7)
C134 C 0.80467(7) 0.02075(8) 0.12348(8)
H86 H 0.7924 0.0169 0.1309
C135 C 0.80411(8) 0.03737(7) 0.10922(8)
H87 H 0.7917 0.0452 0.1070
C136 C 0.82252(6) 0.04182(6) 0.09844(7)
C137 C 0.84030(6) 0.03003(6) 0.10254(6)
H88 H 0.8527 0.0331 0.0950
C139 C 0.85963(6) 0.09529(6) 0.02968(6)
H89 H 0.8498 0.1062 0.0312
C140 C 0.85760(6) 0.07765(6) 0.04210(6)
C141 C 0.87227(7) 0.06146(7) 0.03988(7)
H90 H 0.8715 0.0493 0.0484
C142 C 0.88772(8) 0.06364(7) 0.02507(8)
H91 H 0.8977 0.0529 0.0229
C143 C 0.88854(7) 0.08189(7) 0.01329(7)
H92 H 0.8993 0.0832 0.0032
C144 C 0.84110(6) 0.07681(6) 0.05820(6)
C145 C 0.81460(6) 0.09257(6) 0.07532(6)
C146 C 0.82435(6) 0.05988(6) 0.08423(7)
C147 C 0.80162(6) 0.11119(6) 0.07901(6)
C148 C 0.80300(7) 0.12903(7) 0.06645(7)
H93 H 0.8123 0.1295 0.0549
C149 C 0.79057(8) 0.14590(7) 0.07116(8)
H94 H 0.7911 0.1582 0.0629
C150 C 0.77702(7) 0.14468(7) 0.08839(7)
H95 H 0.7685 0.1564 0.0915
C151 C 0.78774(6) 0.11152(6) 0.09586(6)
H96 H 0.7869 0.0995 0.1044
N50 N 0.84085(5) 0.01463(5) 0.11662(5)
N51 N 0.87505(5) 0.09752(5) 0.01547(5)
N52 N 0.83953(5) 0.05962(5) 0.06987(5)
N53 N 0.81116(5) 0.07594(5) 0.08748(6)
N54 N 0.82907(5) 0.09389(5) 0.06020(5)
N55 N 0.77562(5) 0.12772(5) 0.10058(5)
C154 C 0.85118(6) 0.15478(6) 0.03238(6)
N58 N 0.86273(5) 0.14286(5) 0.02456(5)
S10 S 0.835199(19) 0.171973(19) 0.041831(19)
Co13 Co 0.628218(11) -0.0000 0.378218(11)
Co16 Co 0.8750 0.002117(12) 0.3750
Co17 Co 0.752117(12) 0.1250 0.1250
N63 N 0.90915(5) 0.13338(5) 0.01463(5)
N65 N 0.87495(5) 0.01547(5) 0.15248(5)
Co5_2 Co 0.878218(11) 0.128218(11) 1.0000
C138 C 0.90478(6) 0.10118(6) 0.96762(6)
N49 N 0.89286(5) 0.11273(5) 0.97544(5)
S7 S 0.921973(19) 0.085199(19) 0.958169(19)
N61 N 0.88338(5) 0.15915(5) 0.98537(5)
N68 N 0.84752(5) 0.12505(5) 0.98453(5)
Co1_2 Co 0.871782(11) 1.0000 0.121782(11)
Co2 Co 0.8750 0.8750 0.247883(12)
C1 C 0.98987(7) 0.87344(7) 0.17701(7)
C2 C 0.97925(8) 0.87652(8) 0.19533(7)
H2 H 0.9831 0.8691 0.2076
C3 C 0.96263(7) 0.89078(8) 0.19589(8)
H3 H 0.9548 0.8930 0.2083
C4 C 0.95818(6) 0.90156(7) 0.17748(6)
C5 C 0.96997(6) 0.89746(6) 0.15970(6)
H4 H 0.9669 0.9050 0.1473
C7 C 0.90471(6) 0.97032(6) 0.14037(6)
H5 H 0.8938 0.9688 0.1502
C8 C 0.92235(6) 0.95790(6) 0.14240(6)
C9 C 0.93854(7) 0.96012(7) 0.12773(7)
H6 H 0.9507 0.9516 0.1285
C10 C 0.93636(7) 0.97493(8) 0.11228(8)
H7 H 0.9471 0.9771 0.1023
C11 C 0.91811(7) 0.98671(7) 0.11146(7)
H8 H 0.9168 0.9968 0.1007
C12 C 0.92319(6) 0.94180(6) 0.15890(6)
C13 C 0.90743(6) 0.92468(6) 0.18540(6)
C14 C 0.94012(6) 0.91577(7) 0.17565(6)
C15 C 0.88881(6) 0.92099(6) 0.19838(6)
C16 C 0.87097(7) 0.93355(7) 0.19700(7)
H9 H 0.8705 0.9451 0.1877
C17 C 0.85410(7) 0.92884(8) 0.20943(8)
H10 H 0.8418 0.9371 0.2089
C18 C 0.85532(7) 0.91161(7) 0.22298(7)
H11 H 0.8436 0.9085 0.2315
C19 C 0.88848(6) 0.90414(6) 0.21226(6)
H12 H 0.9005 0.8956 0.2131
C20 C 0.92519(8) 0.87829(9) 0.25064(7)
C21 C 0.88841(8) 0.91733(7) 0.26726(7)
H13 H 0.8991 0.9160 0.2571
C22 C 0.88748(8) 0.93527(8) 0.27852(8)
H14 H 0.8973 0.9461 0.2762
C23 C 0.87182(8) 0.93761(7) 0.29369(8)
H15 H 0.8707 0.9500 0.3017
C24 C 0.85798(7) 0.92105(7) 0.29663(7)
C25 C 0.85987(6) 0.90334(6) 0.28441(6)
H16 H 0.8502 0.8923 0.2864
C26 C 0.84166(7) 0.92216(7) 0.31299(7)
N2 N 0.98537(5) 0.88338(5) 0.15915(5)
N3 N 0.90248(5) 0.98453(5) 0.12495(5)
N4 N 0.94038(5) 0.93013(5) 0.16047(5)
N5 N 0.92406(5) 0.91252(6) 0.18884(5)
N6 N 0.90611(5) 0.93980(5) 0.17093(5)
N7 N 0.87228(5) 0.89942(5) 0.22438(5)
N8 N 0.90744(6) 0.87682(5) 0.24876(5)
N9 N 0.87489(5) 0.90109(6) 0.26975(5)
N10 N 0.84295(6) 0.93743(5) 0.32681(6)
S2 S 0.95027(3) 0.88023(7) 0.25327(3)
C27 C 0.76726(7) 0.86159(8) 0.33267(7)
H17 H 0.7571 0.8509 0.3340
C28 C 0.77852(8) 0.86252(8) 0.31473(8)
H18 H 0.7762 0.8527 0.3039
C29 C 0.79369(8) 0.87818(8) 0.31239(7)
H19 H 0.8017 0.8793 0.3000
C30 C 0.79663(7) 0.89202(7) 0.32895(7)
C31 C 0.78441(6) 0.89013(6) 0.34666(6)
H20 H 0.7864 0.8998 0.3577
C32 C 0.81299(7) 0.90834(7) 0.32784(7)
N11 N 0.76975(5) 0.87511(5) 0.34891(6)
N12 N 0.82681(6) 0.90705(6) 0.31257(5)
C33 C 0.83267(7) 0.98274(7) 0.38841(8)
H21 H 0.8340 0.9929 0.3991
C34 C 0.81473(8) 0.97148(8) 0.38748(8)
H22 H 0.8039 0.9738 0.3973
C35 C 0.81239(7) 0.95631(8) 0.37182(8)
H23 H 0.8000 0.9483 0.3707
C36 C 0.82895(7) 0.95337(7) 0.35798(7)
C37 C 0.84666(6) 0.96559(6) 0.35987(6)
H24 H 0.8577 0.9636 0.3502
C38 C 0.82784(7) 0.93701(7) 0.34166(7)
N13 N 0.84891(6) 0.98025(5) 0.37489(5)
N14 N 0.81257(5) 0.92319(6) 0.34295(6)
Co3 Co 0.747883(12) 0.8750 0.3750
C39 C 0.67701(7) 0.76013(7) 0.37656(7)
H25 H 0.6770 0.7490 0.3863
C40 C 0.69533(7) 0.77075(8) 0.37348(8)
H26 H 0.7076 0.7669 0.3809
C41 C 0.69589(8) 0.78737(7) 0.35922(8)
H27 H 0.7083 0.7952 0.3570
C42 C 0.67748(6) 0.79182(6) 0.34844(7)
C43 C 0.65970(6) 0.78003(6) 0.35254(6)
H28 H 0.6473 0.7831 0.3450
C44 C 0.64037(6) 0.84529(6) 0.27968(6)
H29 H 0.6502 0.8562 0.2812
C45 C 0.64240(6) 0.82765(6) 0.29210(6)
C46 C 0.62773(7) 0.81146(7) 0.28988(7)
H30 H 0.6285 0.7993 0.2984
C47 C 0.61228(8) 0.81364(7) 0.27507(8)
H31 H 0.6023 0.8029 0.2729
C48 C 0.61146(7) 0.83189(7) 0.26329(7)
H32 H 0.6007 0.8332 0.2532
C49 C 0.65890(6) 0.82681(6) 0.30820(6)
C50 C 0.68540(6) 0.84257(6) 0.32532(6)
C51 C 0.67565(6) 0.80988(6) 0.33423(7)
C52 C 0.69838(6) 0.86119(6) 0.32901(6)
C53 C 0.69700(7) 0.87903(7) 0.31645(7)
H33 H 0.6877 0.8795 0.3049
C54 C 0.70943(8) 0.89590(7) 0.32116(8)
H34 H 0.7089 0.9082 0.3129
C55 C 0.72298(7) 0.89468(7) 0.33839(7)
H35 H 0.7315 0.9064 0.3415
C56 C 0.71226(6) 0.86152(6) 0.34586(6)
H36 H 0.7131 0.8495 0.3544
C57 C 0.75064(7) 0.82481(8) 0.37171(9)
N15 N 0.65915(5) 0.76463(5) 0.36662(5)
N16 N 0.62495(5) 0.84752(5) 0.26547(5)
N17 N 0.66047(5) 0.80962(5) 0.31987(5)
N18 N 0.68884(5) 0.82594(5) 0.33748(6)
N19 N 0.67093(5) 0.84389(5) 0.31020(5)
N20 N 0.72438(5) 0.87772(5) 0.35058(5)
N21 N 0.74876(5) 0.84256(6) 0.37318(5)
S3 S 0.75327(3) 0.79973(3) 0.36977(7)
Co4 Co 0.8750 0.747883(12) 0.3750
C58 C 0.87344(7) 0.67701(7) 0.48987(7)
H37 H 0.8637 0.6770 0.5010
C59 C 0.87652(8) 0.69533(7) 0.47925(8)
H38 H 0.8691 0.7076 0.4831
C60 C 0.89078(8) 0.69589(8) 0.46263(7)
H39 H 0.8930 0.7083 0.4548
C61 C 0.90156(7) 0.67748(6) 0.45818(6)
C62 C 0.89746(6) 0.65970(6) 0.46997(6)
H40 H 0.9050 0.6473 0.4669
C63 C 0.97032(6) 0.64037(6) 0.40471(6)
H41 H 0.9688 0.6502 0.3938
C64 C 0.95790(6) 0.64240(6) 0.42235(6)
C65 C 0.96012(7) 0.62773(7) 0.43854(7)
H42 H 0.9516 0.6285 0.4507
C66 C 0.97493(8) 0.61228(8) 0.43636(7)
H43 H 0.9771 0.6023 0.4471
C67 C 0.98671(7) 0.61146(7) 0.41811(7)
H44 H 0.9968 0.6007 0.4168
C68 C 0.94180(6) 0.65890(6) 0.42319(6)
C69 C 0.92468(6) 0.68540(6) 0.40743(6)
C70 C 0.91577(7) 0.67565(6) 0.44012(6)
C71 C 0.92099(6) 0.69838(6) 0.38881(6)
C72 C 0.93355(7) 0.69700(7) 0.37097(7)
H45 H 0.9451 0.6877 0.3705
C73 C 0.92884(8) 0.70943(8) 0.35410(7)
H46 H 0.9371 0.7089 0.3418
C74 C 0.91161(7) 0.72298(7) 0.35532(7)
H47 H 0.9085 0.7315 0.3436
C75 C 0.90414(6) 0.71226(6) 0.38848(6)
H48 H 0.8956 0.7131 0.4005
C76 C 0.87829(9) 0.75064(7) 0.42519(8)
C77 C 0.91733(7) 0.76726(7) 0.38841(8)
H49 H 0.9160 0.7571 0.3991
C78 C 0.93527(8) 0.77852(8) 0.38748(8)
H50 H 0.9461 0.7762 0.3973
C79 C 0.93761(7) 0.79369(8) 0.37182(8)
H51 H 0.9500 0.8017 0.3707
C80 C 0.92105(7) 0.79663(7) 0.35798(7)
C81 C 0.90334(6) 0.78441(6) 0.35987(6)
H52 H 0.8923 0.7864 0.3502
C82 C 0.92216(7) 0.81299(7) 0.34166(7)
N22 N 0.88338(5) 0.65915(5) 0.48537(5)
N23 N 0.98453(5) 0.62495(5) 0.40248(5)
N24 N 0.93013(5) 0.66047(5) 0.44038(5)
N25 N 0.91252(6) 0.68884(5) 0.42406(5)
N26 N 0.93980(5) 0.67093(5) 0.40611(5)
N27 N 0.89942(5) 0.72438(5) 0.37228(5)
N28 N 0.87682(5) 0.74876(5) 0.40744(6)
N29 N 0.90109(6) 0.76975(5) 0.37489(5)
N30 N 0.93743(5) 0.82681(6) 0.34295(6)
S4 S 0.88023(7) 0.75327(3) 0.45027(3)
C83 C 0.86159(8) 0.83267(7) 0.26726(7)
H53 H 0.8509 0.8340 0.2571
C84 C 0.86252(8) 0.81473(8) 0.27852(8)
H54 H 0.8527 0.8039 0.2762
C85 C 0.87818(8) 0.81239(7) 0.29369(8)
H55 H 0.8793 0.8000 0.3017
C86 C 0.89202(7) 0.82895(7) 0.29663(7)
C87 C 0.89013(6) 0.84666(6) 0.28441(6)
H56 H 0.8998 0.8577 0.2864
C88 C 0.90834(7) 0.82784(7) 0.31299(7)
N31 N 0.87511(5) 0.84891(6) 0.26975(5)
N32 N 0.90705(6) 0.81257(5) 0.32681(6)
C89 C 0.98274(7) 0.88841(8) 0.33267(7)
H57 H 0.9929 0.8991 0.3340
C90 C 0.97148(8) 0.88748(8) 0.31473(8)
H58 H 0.9738 0.8973 0.3039
C91 C 0.95631(8) 0.87182(8) 0.31239(7)
H59 H 0.9483 0.8707 0.3000
C92 C 0.95337(7) 0.85798(7) 0.32895(7)
C93 C 0.96559(6) 0.85987(6) 0.34666(6)
H60 H 0.9636 0.8502 0.3577
C94 C 0.93701(7) 0.84166(7) 0.32784(7)
N33 N 0.98025(5) 0.87489(5) 0.34891(6)
N34 N 0.92319(6) 0.84295(6) 0.31257(5)
C95 C 0.76013(7) 0.87656(7) 0.17701(7)
H61 H 0.7490 0.8863 0.1770
C96 C 0.77075(8) 0.87348(8) 0.19533(7)
H62 H 0.7669 0.8809 0.2076
C97 C 0.78737(7) 0.85922(8) 0.19589(8)
H63 H 0.7952 0.8570 0.2083
C98 C 0.79182(6) 0.84844(7) 0.17748(6)
C99 C 0.78003(6) 0.85254(6) 0.15970(6)
H64 H 0.7831 0.8450 0.1473
C100 C 0.84529(6) 0.77968(6) 0.14037(6)
H65 H 0.8562 0.7812 0.1502
C101 C 0.82765(6) 0.79210(6) 0.14240(6)
C102 C 0.81146(7) 0.78988(7) 0.12773(7)
H66 H 0.7993 0.7984 0.1285
C103 C 0.81364(7) 0.77507(8) 0.11228(8)
H67 H 0.8029 0.7729 0.1023
C104 C 0.83189(7) 0.76329(7) 0.11146(7)
H68 H 0.8332 0.7532 0.1007
C105 C 0.82681(6) 0.80820(6) 0.15890(6)
C106 C 0.84257(6) 0.82532(6) 0.18540(6)
C107 C 0.80988(6) 0.83423(7) 0.17565(6)
C108 C 0.86119(6) 0.82901(6) 0.19838(6)
C109 C 0.87903(7) 0.81645(7) 0.19700(7)
H69 H 0.8795 0.8049 0.1877
C110 C 0.89590(7) 0.82116(8) 0.20943(8)
H70 H 0.9082 0.8129 0.2089
C111 C 0.89468(7) 0.83839(7) 0.22298(7)
H71 H 0.9064 0.8415 0.2315
C112 C 0.86152(6) 0.84586(6) 0.21226(6)
H72 H 0.8495 0.8544 0.2131
C113 C 0.82481(8) 0.87171(9) 0.25064(7)
N35 N 0.76463(5) 0.86662(5) 0.15915(5)
N36 N 0.84752(5) 0.76547(5) 0.12495(5)
N37 N 0.80962(5) 0.81987(5) 0.16047(5)
N38 N 0.82594(5) 0.83748(6) 0.18884(5)
N39 N 0.84389(5) 0.81020(5) 0.17093(5)
N40 N 0.87772(5) 0.85058(5) 0.22438(5)
N41 N 0.84256(6) 0.87318(5) 0.24876(5)
S5 S 0.79973(3) 0.86977(7) 0.25327(3)
C114 C 0.67701(7) 0.98987(7) 0.37344(7)
C115 C 0.69533(7) 0.97925(8) 0.37652(8)
H74 H 0.7076 0.9831 0.3691
C116 C 0.69589(8) 0.96263(7) 0.39078(8)
H75 H 0.7083 0.9548 0.3930
C117 C 0.67748(6) 0.95818(6) 0.40156(7)
C118 C 0.65970(6) 0.96997(6) 0.39746(6)
H76 H 0.6473 0.9669 0.4050
C119 C 0.64037(6) 0.90471(6) 0.47032(6)
H77 H 0.6502 0.8938 0.4688
C120 C 0.64240(6) 0.92235(6) 0.45790(6)
C121 C 0.62773(7) 0.93854(7) 0.46012(7)
H78 H 0.6285 0.9507 0.4516
C122 C 0.61228(8) 0.93636(7) 0.47493(8)
H79 H 0.6023 0.9471 0.4771
C123 C 0.61146(7) 0.91811(7) 0.48671(7)
H80 H 0.6007 0.9168 0.4968
C124 C 0.65890(6) 0.92319(6) 0.44180(6)
C125 C 0.68540(6) 0.90743(6) 0.42468(6)
C126 C 0.67565(6) 0.94012(6) 0.41577(7)
C127 C 0.69838(6) 0.88881(6) 0.42099(6)
C128 C 0.69700(7) 0.87097(7) 0.43355(7)
H81 H 0.6877 0.8705 0.4451
C129 C 0.70943(8) 0.85410(7) 0.42884(8)
H82 H 0.7089 0.8418 0.4371
C130 C 0.72298(7) 0.85532(7) 0.41161(7)
H83 H 0.7315 0.8436 0.4085
C131 C 0.71226(6) 0.88848(6) 0.40414(6)
H84 H 0.7131 0.9005 0.3956
C132 C 0.75064(7) 0.92519(8) 0.37829(9)
N42 N 0.65915(5) 0.98537(5) 0.38338(5)
N43 N 0.62495(5) 0.90248(5) 0.48453(5)
N44 N 0.66047(5) 0.94038(5) 0.43013(5)
N45 N 0.68884(5) 0.92406(5) 0.41252(6)
N46 N 0.67093(5) 0.90611(5) 0.43980(5)
N47 N 0.72438(5) 0.87228(5) 0.39942(5)
N48 N 0.74876(5) 0.90744(6) 0.37682(5)
S6 S 0.75327(3) 0.95027(3) 0.38023(7)
H85 H 0.8230 0.9990 0.1363
C152 C 0.84522(6) 0.96762(6) 0.14882(6)
N56 N 0.85714(5) 0.97544(5) 0.13727(5)
S8 S 0.828027(19) 0.958169(19) 0.164801(19)
C153 C 0.87171(9) 0.75064(7) 0.32481(8)
N57 N 0.87318(5) 0.74876(5) 0.34256(6)
S9 S 0.86977(7) 0.75327(3) 0.29973(3)
Co6_2 Co 1.0000 0.878218(11) 0.128218(11)
C156 C 0.96762(6) 0.90478(6) 0.10118(6)
N60 N 0.97544(5) 0.89286(5) 0.11273(5)
S12 S 0.958169(19) 0.921973(19) 0.085199(19)
Co7_2 Co 1.0000 0.621782(11) 0.371782(11)
Co8 Co 0.878218(11) 0.7500 0.121782(11)
Co9 Co 0.621782(11) 0.878218(11) 0.2500
Co10 Co 0.621782(11) 0.871782(11) 0.5000
Co11 Co 0.628218(11) 0.7500 0.371782(11)
Co12 Co 0.7500 0.871782(11) 0.128218(11)
Co13_2 Co 0.628218(11) 1.0000 0.378218(11)
Co14 Co 0.878218(11) 0.628218(11) 0.5000
N64 N 0.86662(5) 0.98537(5) 0.09085(5)
N67 N 0.98453(5) 0.84752(5) 0.12505(5)
N69 N 0.85058(5) 0.72438(5) 0.37772(5)
N70 N 0.84891(6) 0.76975(5) 0.37511(5)
N71 N 0.76975(5) 0.87489(5) 0.40109(6)
H37_2 H 0.3863 0.0730 0.0010
Co14_2 Co 0.371782(11) 0.121782(11) -0.0000
H25_2 H 0.5730 0.0010 0.8863
Co4_2 Co 0.3750 0.002117(12) 0.8750
C58_2 C 0.37656(7) 0.07299(7) 0.98987(7)
C59_2 C 0.37348(8) 0.05467(7) 0.97925(8)
H38_2 H 0.3809 0.0424 0.9831
C60_2 C 0.35922(8) 0.05411(8) 0.96263(7)
H39_2 H 0.3570 0.0417 0.9548
C61_2 C 0.34844(7) 0.07252(6) 0.95818(6)
C62_2 C 0.35254(6) 0.09030(6) 0.96997(6)
H40_2 H 0.3450 0.1027 0.9669
C63_2 C 0.27968(6) 0.10963(6) 0.90471(6)
H41_2 H 0.2812 0.0998 0.8938
C64_2 C 0.29210(6) 0.10760(6) 0.92235(6)
C65_2 C 0.28988(7) 0.12227(7) 0.93854(7)
H42_2 H 0.2984 0.1215 0.9507
C66_2 C 0.27507(8) 0.13772(8) 0.93636(7)
H43_2 H 0.2729 0.1477 0.9471
C67_2 C 0.26329(7) 0.13854(7) 0.91811(7)
H44_2 H 0.2532 0.1493 0.9168
C68_2 C 0.30820(6) 0.09110(6) 0.92319(6)
C69_2 C 0.32532(6) 0.06460(6) 0.90743(6)
C70_2 C 0.33423(7) 0.07435(6) 0.94012(6)
C71_2 C 0.32901(6) 0.05162(6) 0.88881(6)
C72_2 C 0.31645(7) 0.05300(7) 0.87097(7)
H45_2 H 0.3049 0.0623 0.8705
C73_2 C 0.32116(8) 0.04057(8) 0.85410(7)
H46_2 H 0.3129 0.0411 0.8418
C74_2 C 0.33839(7) 0.02702(7) 0.85532(7)
H47_2 H 0.3415 0.0185 0.8436
C75_2 C 0.34586(6) 0.03774(6) 0.88848(6)
H48_2 H 0.3544 0.0369 0.9005
N22_2 N 0.36662(5) 0.09085(5) 0.98537(5)
N23_2 N 0.26547(5) 0.12505(5) 0.90248(5)
N24_2 N 0.31987(5) 0.08953(5) 0.94038(5)
N25_2 N 0.33748(6) 0.06116(5) 0.92406(5)
N26_2 N 0.31020(5) 0.07907(5) 0.90611(5)
N27_2 N 0.35058(5) 0.02562(5) 0.87228(5)
N28_2 N 0.37318(5) 0.00124(5) 0.90744(6)
N57_2 N 0.37682(5) 0.00124(5) 0.84256(6)
Co7_3 Co 0.2500 0.128218(11) 0.871782(11)
Co8_2 Co 0.371782(11) -0.0000 0.621782(11)
Co11_2 Co 0.621782(11) -0.0000 0.871782(11)
Co14_3 Co 0.371782(11) 0.121782(11) 1.0000
N69_2 N 0.39942(5) 0.02562(5) 0.87772(5)
Co10_2 Co 0.628218(11) 0.878218(11) -0.0000
Co1_3 Co 0.378218(11) 0.7500 0.621782(11)
Co2_2 Co 0.3750 0.8750 0.747883(12)
C1_2 C 0.26013(7) 0.87656(7) 0.67701(7)
H1_2 H 0.2490 0.8863 0.6770
C2_2 C 0.27075(8) 0.87348(8) 0.69533(7)
H2_2 H 0.2669 0.8809 0.7076
C3_2 C 0.28737(7) 0.85922(8) 0.69589(8)
H3_2 H 0.2952 0.8570 0.7083
C4_2 C 0.29182(6) 0.84844(7) 0.67748(6)
C5_2 C 0.28003(6) 0.85254(6) 0.65970(6)
H4_2 H 0.2831 0.8450 0.6473
C6_2 C 0.35118(6) 0.71762(6) 0.59522(6)
C7_2 C 0.34529(6) 0.77968(6) 0.64037(6)
H5_2 H 0.3562 0.7812 0.6502
C8_2 C 0.32765(6) 0.79210(6) 0.64240(6)
C9_2 C 0.31146(7) 0.78988(7) 0.62773(7)
H6_2 H 0.2993 0.7984 0.6285
C10_2 C 0.31364(7) 0.77507(8) 0.61228(8)
H7_2 H 0.3029 0.7729 0.6023
C11_2 C 0.33189(7) 0.76329(7) 0.61146(7)
H8_2 H 0.3332 0.7532 0.6007
C12_2 C 0.32681(6) 0.80820(6) 0.65890(6)
C13_2 C 0.34257(6) 0.82532(6) 0.68540(6)
C14_2 C 0.30988(6) 0.83423(7) 0.67565(6)
C15_2 C 0.36119(6) 0.82901(6) 0.69838(6)
C16_2 C 0.37903(7) 0.81645(7) 0.69700(7)
H9_2 H 0.3795 0.8049 0.6877
C17_2 C 0.39590(7) 0.82116(8) 0.70943(8)
H10_2 H 0.4082 0.8129 0.7089
C18_2 C 0.39468(7) 0.83839(7) 0.72298(7)
H11_2 H 0.4064 0.8415 0.7315
C19_2 C 0.36152(6) 0.84586(6) 0.71226(6)
H12_2 H 0.3495 0.8544 0.7131
C20_2 C 0.32481(8) 0.87171(9) 0.75064(7)
C21_2 C 0.36159(8) 0.83267(7) 0.76726(7)
H13_2 H 0.3509 0.8340 0.7571
C22_2 C 0.36252(8) 0.81473(8) 0.77852(8)
H14_2 H 0.3527 0.8039 0.7762
C23_2 C 0.37818(8) 0.81239(7) 0.79369(8)
H15_2 H 0.3793 0.8000 0.8017
C24_2 C 0.39202(7) 0.82895(7) 0.79663(7)
C25_2 C 0.39013(6) 0.84666(6) 0.78441(6)
H16_2 H 0.3998 0.8577 0.7864
C26_2 C 0.40834(7) 0.82784(7) 0.81299(7)
N1_2 N 0.36273(5) 0.72544(5) 0.60714(5)
N2_2 N 0.26463(5) 0.86662(5) 0.65915(5)
N3_2 N 0.34752(5) 0.76547(5) 0.62495(5)
N4_2 N 0.30962(5) 0.81987(5) 0.66047(5)
N5_2 N 0.32594(5) 0.83748(6) 0.68884(5)
N6_2 N 0.34389(5) 0.81020(5) 0.67093(5)
N7_2 N 0.37772(5) 0.85058(5) 0.72438(5)
N8_2 N 0.34256(6) 0.87318(5) 0.74876(5)
N9_2 N 0.37511(5) 0.84891(6) 0.76975(5)
N10_2 N 0.40705(6) 0.81257(5) 0.82681(6)
S1_2 S 0.335199(19) 0.708169(19) 0.578027(19)
S2_2 S 0.29973(3) 0.86977(7) 0.75327(3)
C27_2 C 0.48274(7) 0.88841(8) 0.83267(7)
H17_2 H 0.4929 0.8991 0.8340
C28_2 C 0.47148(8) 0.88748(8) 0.81473(8)
H18_2 H 0.4738 0.8973 0.8039
C29_2 C 0.45631(8) 0.87182(8) 0.81239(7)
H19_2 H 0.4483 0.8707 0.8000
C30_2 C 0.45337(7) 0.85798(7) 0.82895(7)
C31_2 C 0.46559(6) 0.85987(6) 0.84666(6)
H20_2 H 0.4636 0.8502 0.8577
C32_2 C 0.43701(7) 0.84166(7) 0.82784(7)
N11_2 N 0.48025(5) 0.87489(5) 0.84891(6)
N12_2 N 0.42319(6) 0.84295(6) 0.81257(5)
C33_2 C 0.41733(7) 0.76726(7) 0.88841(8)
H21_2 H 0.4160 0.7571 0.8991
C34_2 C 0.43527(8) 0.77852(8) 0.88748(8)
H22_2 H 0.4461 0.7762 0.8973
C35_2 C 0.43761(7) 0.79369(8) 0.87182(8)
H23_2 H 0.4500 0.8017 0.8707
C36_2 C 0.42105(7) 0.79663(7) 0.85798(7)
C37_2 C 0.40334(6) 0.78441(6) 0.85987(6)
H24_2 H 0.3923 0.7864 0.8502
C38_2 C 0.42216(7) 0.81299(7) 0.84166(7)
N13_2 N 0.40109(6) 0.76975(5) 0.87489(5)
N14_2 N 0.43743(5) 0.82681(6) 0.84295(6)
Co3_2 Co 0.502117(12) 0.8750 0.8750
C39_2 C 0.57299(7) 0.98987(7) 0.87656(7)
C40_2 C 0.55467(7) 0.97925(8) 0.87348(8)
H26_2 H 0.5424 0.9831 0.8809
C41_2 C 0.55411(8) 0.96263(7) 0.85922(8)
H27_2 H 0.5417 0.9548 0.8570
C42_2 C 0.57252(6) 0.95818(6) 0.84844(7)
C43_2 C 0.59030(6) 0.96997(6) 0.85254(6)
H28_2 H 0.6027 0.9669 0.8450
C44_2 C 0.60963(6) 0.90471(6) 0.77968(6)
H29_2 H 0.5998 0.8938 0.7812
C45_2 C 0.60760(6) 0.92235(6) 0.79210(6)
C46_2 C 0.62227(7) 0.93854(7) 0.78988(7)
H30_2 H 0.6215 0.9507 0.7984
C47_2 C 0.63772(8) 0.93636(7) 0.77507(8)
H31_2 H 0.6477 0.9471 0.7729
C48_2 C 0.63854(7) 0.91811(7) 0.76329(7)
H32_2 H 0.6493 0.9168 0.7532
C49_2 C 0.59110(6) 0.92319(6) 0.80820(6)
C50_2 C 0.56460(6) 0.90743(6) 0.82532(6)
C51_2 C 0.57435(6) 0.94012(6) 0.83423(7)
C52_2 C 0.55162(6) 0.88881(6) 0.82901(6)
C53_2 C 0.55300(7) 0.87097(7) 0.81645(7)
H33_2 H 0.5623 0.8705 0.8049
C54_2 C 0.54057(8) 0.85410(7) 0.82116(8)
H34_2 H 0.5411 0.8418 0.8129
C55_2 C 0.52702(7) 0.85532(7) 0.83839(7)
H35_2 H 0.5185 0.8436 0.8415
C56_2 C 0.53774(6) 0.88848(6) 0.84586(6)
H36_2 H 0.5369 0.9005 0.8544
C57_2 C 0.49936(7) 0.92519(8) 0.87171(9)
N15_2 N 0.59085(5) 0.98537(5) 0.86662(5)
N16_2 N 0.62505(5) 0.90248(5) 0.76547(5)
N17_2 N 0.58953(5) 0.94038(5) 0.81987(5)
N18_2 N 0.56116(5) 0.92406(5) 0.83748(6)
N19_2 N 0.57907(5) 0.90611(5) 0.81020(5)
N20_2 N 0.52562(5) 0.87228(5) 0.85058(5)
N21_2 N 0.50124(5) 0.90744(6) 0.87318(5)
S3_2 S 0.49673(3) 0.95027(3) 0.86977(7)
C76_2 C 0.37171(9) 0.99936(7) 0.92519(8)
C77_2 C 0.33267(7) 0.98274(7) 0.88841(8)
H49_2 H 0.3340 0.9929 0.8991
C78_2 C 0.31473(8) 0.97148(8) 0.88748(8)
H50_2 H 0.3039 0.9738 0.8973
C79_2 C 0.31239(7) 0.95631(8) 0.87182(8)
H51_2 H 0.3000 0.9483 0.8707
C80_2 C 0.32895(7) 0.95337(7) 0.85798(7)
C81_2 C 0.34666(6) 0.96559(6) 0.85987(6)
H52_2 H 0.3577 0.9636 0.8502
C82_2 C 0.32784(7) 0.93701(7) 0.84166(7)
N29_2 N 0.34891(6) 0.98025(5) 0.87489(5)
N30_2 N 0.31257(5) 0.92319(6) 0.84295(6)
S4_2 S 0.36977(7) 0.99673(3) 0.95027(3)
C83_2 C 0.38841(8) 0.91733(7) 0.76726(7)
H53_2 H 0.3991 0.9160 0.7571
C84_2 C 0.38748(8) 0.93527(8) 0.77852(8)
H54_2 H 0.3973 0.9461 0.7762
C85_2 C 0.37182(8) 0.93761(7) 0.79369(8)
H55_2 H 0.3707 0.9500 0.8017
C86_2 C 0.35798(7) 0.92105(7) 0.79663(7)
C87_2 C 0.35987(6) 0.90334(6) 0.78441(6)
H56_2 H 0.3502 0.8923 0.7864
C88_2 C 0.34166(7) 0.92216(7) 0.81299(7)
N31_2 N 0.37489(5) 0.90109(6) 0.76975(5)
N32_2 N 0.34295(6) 0.93743(5) 0.82681(6)
C89_2 C 0.26726(7) 0.86159(8) 0.83267(7)
H57_2 H 0.2571 0.8509 0.8340
C90_2 C 0.27852(8) 0.86252(8) 0.81473(8)
H58_2 H 0.2762 0.8527 0.8039
C91_2 C 0.29369(8) 0.87818(8) 0.81239(7)
H59_2 H 0.3017 0.8793 0.8000
C92_2 C 0.29663(7) 0.89202(7) 0.82895(7)
C93_2 C 0.28441(6) 0.89013(6) 0.84666(6)
H60_2 H 0.2864 0.8998 0.8577
C94_2 C 0.31299(7) 0.90834(7) 0.82784(7)
N33_2 N 0.26975(5) 0.87511(5) 0.84891(6)
N34_2 N 0.32681(6) 0.90705(6) 0.81257(5)
C95_2 C 0.48987(7) 0.87344(7) 0.67701(7)
H61_2 H 0.5010 0.8637 0.6770
C96_2 C 0.47925(8) 0.87652(8) 0.69533(7)
H62_2 H 0.4831 0.8691 0.7076
C97_2 C 0.46263(7) 0.89078(8) 0.69589(8)
H63_2 H 0.4548 0.8930 0.7083
C98_2 C 0.45818(6) 0.90156(7) 0.67748(6)
C99_2 C 0.46997(6) 0.89746(6) 0.65970(6)
H64_2 H 0.4669 0.9050 0.6473
C100_2 C 0.40471(6) 0.97032(6) 0.64037(6)
H65_2 H 0.3938 0.9688 0.6502
C101_2 C 0.42235(6) 0.95790(6) 0.64240(6)
C102_2 C 0.43854(7) 0.96012(7) 0.62773(7)
H66_2 H 0.4507 0.9516 0.6285
C103_2 C 0.43636(7) 0.97493(8) 0.61228(8)
H67_2 H 0.4471 0.9771 0.6023
C104_2 C 0.41811(7) 0.98671(7) 0.61146(7)
H68_2 H 0.4168 0.9968 0.6007
C105_2 C 0.42319(6) 0.94180(6) 0.65890(6)
C106_2 C 0.40743(6) 0.92468(6) 0.68540(6)
C107_2 C 0.44012(6) 0.91577(7) 0.67565(6)
C108_2 C 0.38881(6) 0.92099(6) 0.69838(6)
C109_2 C 0.37097(7) 0.93355(7) 0.69700(7)
H69_2 H 0.3705 0.9451 0.6877
C110_2 C 0.35410(7) 0.92884(8) 0.70943(8)
H70_2 H 0.3418 0.9371 0.7089
C111_2 C 0.35532(7) 0.91161(7) 0.72298(7)
H71_2 H 0.3436 0.9085 0.7315
C112_2 C 0.38848(6) 0.90414(6) 0.71226(6)
H72_2 H 0.4005 0.8956 0.7131
C113_2 C 0.42519(8) 0.87829(9) 0.75064(7)
N35_2 N 0.48537(5) 0.88338(5) 0.65915(5)
N36_2 N 0.40248(5) 0.98453(5) 0.62495(5)
N37_2 N 0.44038(5) 0.93013(5) 0.66047(5)
N38_2 N 0.42406(5) 0.91252(6) 0.68884(5)
N39_2 N 0.40611(5) 0.93980(5) 0.67093(5)
N40_2 N 0.37228(5) 0.89942(5) 0.72438(5)
N41_2 N 0.40744(6) 0.87682(5) 0.74876(5)
S5_2 S 0.45027(3) 0.88023(7) 0.75327(3)
C114_2 C 0.57299(7) 0.76013(7) 0.87344(7)
H73_2 H 0.5730 0.7490 0.8637
C115_2 C 0.55467(7) 0.77075(8) 0.87652(8)
H74_2 H 0.5424 0.7669 0.8691
C116_2 C 0.55411(8) 0.78737(7) 0.89078(8)
H75_2 H 0.5417 0.7952 0.8930
C117_2 C 0.57252(6) 0.79182(6) 0.90156(7)
C118_2 C 0.59030(6) 0.78003(6) 0.89746(6)
H76_2 H 0.6027 0.7831 0.9050
C119_2 C 0.60963(6) 0.84529(6) 0.97032(6)
H77_2 H 0.5998 0.8562 0.9688
C120_2 C 0.60760(6) 0.82765(6) 0.95790(6)
C121_2 C 0.62227(7) 0.81146(7) 0.96012(7)
H78_2 H 0.6215 0.7993 0.9516
C122_2 C 0.63772(8) 0.81364(7) 0.97493(8)
H79_2 H 0.6477 0.8029 0.9771
C123_2 C 0.63854(7) 0.83189(7) 0.98671(7)
H80_2 H 0.6493 0.8332 0.9968
C124_2 C 0.59110(6) 0.82681(6) 0.94180(6)
C125_2 C 0.56460(6) 0.84257(6) 0.92468(6)
C126_2 C 0.57435(6) 0.80988(6) 0.91577(7)
C127_2 C 0.55162(6) 0.86119(6) 0.92099(6)
C128_2 C 0.55300(7) 0.87903(7) 0.93355(7)
H81_2 H 0.5623 0.8795 0.9451
C129_2 C 0.54057(8) 0.89590(7) 0.92884(8)
H82_2 H 0.5411 0.9082 0.9371
C130_2 C 0.52702(7) 0.89468(7) 0.91161(7)
H83_2 H 0.5185 0.9064 0.9085
C131_2 C 0.53774(6) 0.86152(6) 0.90414(6)
H84_2 H 0.5369 0.8495 0.8956
C132_2 C 0.49936(7) 0.82481(8) 0.87829(9)
N42_2 N 0.59085(5) 0.76463(5) 0.88338(5)
N43_2 N 0.62505(5) 0.84752(5) 0.98453(5)
N44_2 N 0.58953(5) 0.80962(5) 0.93013(5)
N45_2 N 0.56116(5) 0.82594(5) 0.91252(6)
N46_2 N 0.57907(5) 0.84389(5) 0.93980(5)
N47_2 N 0.52562(5) 0.87772(5) 0.89942(5)
N48_2 N 0.50124(5) 0.84256(6) 0.87682(5)
S6_2 S 0.49673(3) 0.79973(3) 0.88023(7)
Co5_3 Co 0.371782(11) 0.621782(11) 0.5000
C133_2 C 0.42701(7) 0.73987(7) 0.62656(7)
H85_2 H 0.4270 0.7510 0.6363
C134_2 C 0.44533(7) 0.72925(8) 0.62348(8)
H86_2 H 0.4576 0.7331 0.6309
C135_2 C 0.44589(8) 0.71263(7) 0.60922(8)
H87_2 H 0.4583 0.7048 0.6070
C136_2 C 0.42748(6) 0.70818(6) 0.59844(7)
C137_2 C 0.40970(6) 0.71997(6) 0.60254(6)
H88_2 H 0.3973 0.7169 0.5950
C138_2 C 0.34522(6) 0.64882(6) 0.46762(6)
C139_2 C 0.39037(6) 0.65471(6) 0.52968(6)
H89_2 H 0.4002 0.6438 0.5312
C140_2 C 0.39240(6) 0.67235(6) 0.54210(6)
C141_2 C 0.37773(7) 0.68854(7) 0.53988(7)
H90_2 H 0.3785 0.7007 0.5484
C142_2 C 0.36228(8) 0.68636(7) 0.52507(8)
H91_2 H 0.3523 0.6971 0.5229
C143_2 C 0.36146(7) 0.66811(7) 0.51329(7)
H92_2 H 0.3507 0.6668 0.5032
C144_2 C 0.40890(6) 0.67319(6) 0.55820(6)
C145_2 C 0.43540(6) 0.65743(6) 0.57532(6)
C146_2 C 0.42565(6) 0.69012(6) 0.58423(7)
C147_2 C 0.44838(6) 0.63881(6) 0.57901(6)
C148_2 C 0.44700(7) 0.62097(7) 0.56645(7)
H93_2 H 0.4377 0.6205 0.5549
C149_2 C 0.45943(8) 0.60410(7) 0.57116(8)
H94_2 H 0.4589 0.5918 0.5629
C150_2 C 0.47298(7) 0.60532(7) 0.58839(7)
H95_2 H 0.4815 0.5936 0.5915
C151_2 C 0.46226(6) 0.63848(6) 0.59586(6)
H96_2 H 0.4631 0.6505 0.6044
N49_2 N 0.35714(5) 0.63727(5) 0.47544(5)
N50_2 N 0.40915(5) 0.73537(5) 0.61662(5)
N51_2 N 0.37495(5) 0.65248(5) 0.51547(5)
N52_2 N 0.41047(5) 0.69038(5) 0.56987(5)
N53_2 N 0.43884(5) 0.67406(5) 0.58748(6)
N54_2 N 0.42093(5) 0.65611(5) 0.56020(5)
N55_2 N 0.47438(5) 0.62228(5) 0.60058(5)
S7_2 S 0.328027(19) 0.664801(19) 0.458169(19)
C152_2 C 0.40478(6) 0.78238(6) 0.64882(6)
N56_2 N 0.39286(5) 0.77456(5) 0.63727(5)
S8_2 S 0.421973(19) 0.791831(19) 0.664801(19)
C153_2 C 0.37829(9) 0.99936(7) 0.82481(8)
S9_2 S 0.38023(7) 0.99673(3) 0.79973(3)
Co6_3 Co 0.2500 0.871782(11) 0.628218(11)
C154_2 C 0.39882(6) 0.59522(6) 0.53238(6)
N58_2 N 0.38727(5) 0.60714(5) 0.52456(5)
S10_2 S 0.414801(19) 0.578027(19) 0.541831(19)
C155_2 C 0.21762(6) 0.89882(6) 0.65478(6)
N59_2 N 0.22544(5) 0.88727(5) 0.64286(5)
S11_2 S 0.208169(19) 0.914801(19) 0.671973(19)
C156_2 C 0.28238(6) 0.84522(6) 0.60118(6)
N60_2 N 0.27456(5) 0.85714(5) 0.61273(5)
S12_2 S 0.291831(19) 0.828027(19) 0.585199(19)
Co8_3 Co 0.371782(11) 1.0000 0.621782(11)
Co9_2 Co 0.628218(11) 0.871782(11) 0.7500
Co10_3 Co 0.628218(11) 0.878218(11) 1.0000
Co11_3 Co 0.621782(11) 1.0000 0.871782(11)
Co12_2 Co 0.5000 0.878218(11) 0.628218(11)
Co13_3 Co 0.621782(11) 0.7500 0.878218(11)
Co15_2 Co 0.247883(12) 0.8750 0.8750
Co16_2 Co 0.3750 0.747883(12) 0.8750
Co17_2 Co 0.497883(12) 0.6250 0.6250
N61_2 N 0.36662(5) 0.59085(5) 0.48537(5)
N62_2 N 0.23537(5) 0.84085(5) 0.63338(5)
N63_2 N 0.34085(5) 0.61662(5) 0.51463(5)
N64_2 N 0.38338(5) 0.76463(5) 0.59085(5)
N65_2 N 0.37505(5) 0.73453(5) 0.65248(5)
N66_2 N 0.23453(5) 0.87495(5) 0.59752(5)
N67_2 N 0.26547(5) 0.90248(5) 0.62505(5)
N68_2 N 0.40248(5) 0.62495(5) 0.48453(5)
N70_2 N 0.40109(6) 0.98025(5) 0.87511(5)
N71_2 N 0.48025(5) 0.87511(5) 0.90109(6)
H61_3 H 0.0010 0.3863 0.0730
Co9_3 Co 0.128218(11) 0.378218(11) 0.0000
Co12_3 Co 0.0000 0.371782(11) 0.121782(11)
Co3_3 Co 0.002117(12) 0.3750 0.8750
C39_3 C 0.07299(7) 0.26013(7) 0.87344(7)
H25_3 H 0.0730 0.2490 0.8637
C40_3 C 0.05467(7) 0.27075(8) 0.87652(8)
H26_3 H 0.0424 0.2669 0.8691
C41_3 C 0.05411(8) 0.28737(7) 0.89078(8)
H27_3 H 0.0417 0.2952 0.8930
C42_3 C 0.07252(6) 0.29182(6) 0.90156(7)
C43_3 C 0.09030(6) 0.28003(6) 0.89746(6)
H28_3 H 0.1027 0.2831 0.9050
C44_3 C 0.10963(6) 0.34529(6) 0.97032(6)
H29_3 H 0.0998 0.3562 0.9688
C45_3 C 0.10760(6) 0.32765(6) 0.95790(6)
C46_3 C 0.12227(7) 0.31146(7) 0.96012(7)
H30_3 H 0.1215 0.2993 0.9516
C47_3 C 0.13772(8) 0.31364(7) 0.97493(8)
H31_3 H 0.1477 0.3029 0.9771
C48_3 C 0.13854(7) 0.33189(7) 0.98671(7)
H32_3 H 0.1493 0.3332 0.9968
C49_3 C 0.09110(6) 0.32681(6) 0.94180(6)
C50_3 C 0.06460(6) 0.34257(6) 0.92468(6)
C51_3 C 0.07435(6) 0.30988(6) 0.91577(7)
C52_3 C 0.05162(6) 0.36119(6) 0.92099(6)
C53_3 C 0.05300(7) 0.37903(7) 0.93355(7)
H33_3 H 0.0623 0.3795 0.9451
C54_3 C 0.04057(8) 0.39590(7) 0.92884(8)
H34_3 H 0.0411 0.4082 0.9371
C55_3 C 0.02702(7) 0.39468(7) 0.91161(7)
H35_3 H 0.0185 0.4064 0.9085
C56_3 C 0.03774(6) 0.36152(6) 0.90414(6)
H36_3 H 0.0369 0.3495 0.8956
N15_3 N 0.09085(5) 0.26463(5) 0.88338(5)
N16_3 N 0.12505(5) 0.34752(5) 0.98453(5)
N17_3 N 0.08953(5) 0.30962(5) 0.93013(5)
N18_3 N 0.06116(5) 0.32594(5) 0.91252(6)
N19_3 N 0.07907(5) 0.34389(5) 0.93980(5)
N20_3 N 0.02562(5) 0.37772(5) 0.89942(5)
N21_3 N 0.00124(5) 0.34256(6) 0.87682(5)
C114_3 C 0.07299(7) 0.48987(7) 0.87656(7)
H73_3 H 0.0730 0.5010 0.8863
C115_3 C 0.05467(7) 0.47925(8) 0.87348(8)
H74_3 H 0.0424 0.4831 0.8809
C116_3 C 0.05411(8) 0.46263(7) 0.85922(8)
H75_3 H 0.0417 0.4548 0.8570
C117_3 C 0.07252(6) 0.45818(6) 0.84844(7)
C118_3 C 0.09030(6) 0.46997(6) 0.85254(6)
H76_3 H 0.1027 0.4669 0.8450
C119_3 C 0.10963(6) 0.40471(6) 0.77968(6)
H77_3 H 0.0998 0.3938 0.7812
C120_3 C 0.10760(6) 0.42235(6) 0.79210(6)
C121_3 C 0.12227(7) 0.43854(7) 0.78988(7)
H78_3 H 0.1215 0.4507 0.7984
C122_3 C 0.13772(8) 0.43636(7) 0.77507(8)
H79_3 H 0.1477 0.4471 0.7729
C123_3 C 0.13854(7) 0.41811(7) 0.76329(7)
H80_3 H 0.1493 0.4168 0.7532
C124_3 C 0.09110(6) 0.42319(6) 0.80820(6)
C125_3 C 0.06460(6) 0.40743(6) 0.82532(6)
C126_3 C 0.07435(6) 0.44012(6) 0.83423(7)
C127_3 C 0.05162(6) 0.38881(6) 0.82901(6)
C128_3 C 0.05300(7) 0.37097(7) 0.81645(7)
H81_3 H 0.0623 0.3705 0.8049
C129_3 C 0.04057(8) 0.35410(7) 0.82116(8)
H82_3 H 0.0411 0.3418 0.8129
C130_3 C 0.02702(7) 0.35532(7) 0.83839(7)
H83_3 H 0.0185 0.3436 0.8415
C131_3 C 0.03774(6) 0.38848(6) 0.84586(6)
H84_3 H 0.0369 0.4005 0.8544
N42_3 N 0.09085(5) 0.48537(5) 0.86662(5)
N43_3 N 0.12505(5) 0.40248(5) 0.76547(5)
N44_3 N 0.08953(5) 0.44038(5) 0.81987(5)
N45_3 N 0.06116(5) 0.42406(5) 0.83748(6)
N46_3 N 0.07907(5) 0.40611(5) 0.81020(5)
N47_3 N 0.02562(5) 0.37228(5) 0.85058(5)
N48_3 N 0.00124(5) 0.40744(6) 0.87318(5)
Co9_4 Co 0.128218(11) 0.378218(11) 1.0000
Co10_4 Co 0.128218(11) 0.371782(11) 0.7500
Co11_4 Co 0.121782(11) 0.2500 0.878218(11)
Co13_4 Co 0.121782(11) 0.5000 0.871782(11)
Co1_4 Co 0.878218(11) 0.5000 0.128218(11)
Co2_3 Co 0.8750 0.3750 0.002117(12)
C1_3 C 0.76013(7) 0.37344(7) 0.07299(7)
H1_3 H 0.7490 0.3637 0.0730
C2_3 C 0.77075(8) 0.37652(8) 0.05467(7)
H2_3 H 0.7669 0.3691 0.0424
C3_3 C 0.78737(7) 0.39078(8) 0.05411(8)
H3_3 H 0.7952 0.3930 0.0417
C4_3 C 0.79182(6) 0.40156(7) 0.07252(6)
C5_3 C 0.78003(6) 0.39746(6) 0.09030(6)
H4_3 H 0.7831 0.4050 0.1027
C6_3 C 0.85118(6) 0.53238(6) 0.15478(6)
C7_3 C 0.84529(6) 0.47032(6) 0.10963(6)
H5_3 H 0.8562 0.4688 0.0998
C8_3 C 0.82765(6) 0.45790(6) 0.10760(6)
C9_3 C 0.81146(7) 0.46012(7) 0.12227(7)
H6_3 H 0.7993 0.4516 0.1215
C10_3 C 0.81364(7) 0.47493(8) 0.13772(8)
H7_3 H 0.8029 0.4771 0.1477
C11_3 C 0.83189(7) 0.48671(7) 0.13854(7)
H8_3 H 0.8332 0.4968 0.1493
C12_3 C 0.82681(6) 0.44180(6) 0.09110(6)
C13_3 C 0.84257(6) 0.42468(6) 0.06460(6)
C14_3 C 0.80988(6) 0.41577(7) 0.07435(6)
C15_3 C 0.86119(6) 0.42099(6) 0.05162(6)
C16_3 C 0.87903(7) 0.43355(7) 0.05300(7)
H9_3 H 0.8795 0.4451 0.0623
C17_3 C 0.89590(7) 0.42884(8) 0.04057(8)
H10_3 H 0.9082 0.4371 0.0411
C18_3 C 0.89468(7) 0.41161(7) 0.02702(7)
H11_3 H 0.9064 0.4085 0.0185
C19_3 C 0.86152(6) 0.40414(6) 0.03774(6)
H12_3 H 0.8495 0.3956 0.0369
N1_3 N 0.86273(5) 0.52456(5) 0.14286(5)
N2_3 N 0.76463(5) 0.38338(5) 0.09085(5)
N3_3 N 0.84752(5) 0.48453(5) 0.12505(5)
N4_3 N 0.80962(5) 0.43013(5) 0.08953(5)
N5_3 N 0.82594(5) 0.41252(6) 0.06116(5)
N6_3 N 0.84389(5) 0.43980(5) 0.07907(5)
N7_3 N 0.87772(5) 0.39942(5) 0.02562(5)
N8_3 N 0.84256(6) 0.37682(5) 0.00124(5)
S1_3 S 0.835199(19) 0.541831(19) 0.171973(19)
C95_3 C 0.98987(7) 0.37656(7) 0.07299(7)
C96_3 C 0.97925(8) 0.37348(8) 0.05467(7)
H62_3 H 0.9831 0.3809 0.0424
C97_3 C 0.96263(7) 0.35922(8) 0.05411(8)
H63_3 H 0.9548 0.3570 0.0417
C98_3 C 0.95818(6) 0.34844(7) 0.07252(6)
C99_3 C 0.96997(6) 0.35254(6) 0.09030(6)
H64_3 H 0.9669 0.3450 0.1027
C100_3 C 0.90471(6) 0.27968(6) 0.10963(6)
H65_3 H 0.8938 0.2812 0.0998
C101_3 C 0.92235(6) 0.29210(6) 0.10760(6)
C102_3 C 0.93854(7) 0.28988(7) 0.12227(7)
H66_3 H 0.9507 0.2984 0.1215
C103_3 C 0.93636(7) 0.27507(8) 0.13772(8)
H67_3 H 0.9471 0.2729 0.1477
C104_3 C 0.91811(7) 0.26329(7) 0.13854(7)
H68_3 H 0.9168 0.2532 0.1493
C105_3 C 0.92319(6) 0.30820(6) 0.09110(6)
C106_3 C 0.90743(6) 0.32532(6) 0.06460(6)
C107_3 C 0.94012(6) 0.33423(7) 0.07435(6)
C108_3 C 0.88881(6) 0.32901(6) 0.05162(6)
C109_3 C 0.87097(7) 0.31645(7) 0.05300(7)
H69_3 H 0.8705 0.3049 0.0623
C110_3 C 0.85410(7) 0.32116(8) 0.04057(8)
H70_3 H 0.8418 0.3129 0.0411
C111_3 C 0.85532(7) 0.33839(7) 0.02702(7)
H71_3 H 0.8436 0.3415 0.0185
C112_3 C 0.88848(6) 0.34586(6) 0.03774(6)
H72_3 H 0.9005 0.3544 0.0369
N35_3 N 0.98537(5) 0.36662(5) 0.09085(5)
N36_3 N 0.90248(5) 0.26547(5) 0.12505(5)
N37_3 N 0.94038(5) 0.31987(5) 0.08953(5)
N38_3 N 0.92406(5) 0.33748(6) 0.06116(5)
N39_3 N 0.90611(5) 0.31020(5) 0.07907(5)
N40_3 N 0.87228(5) 0.35058(5) 0.02562(5)
N41_3 N 0.90744(6) 0.37318(5) 0.00124(5)
Co5_4 Co 0.871782(11) 0.628218(11) 0.2500
C133_3 C 0.92701(7) 0.51013(7) 0.12344(7)
H85_3 H 0.9270 0.4990 0.1137
C134_3 C 0.94533(7) 0.52075(8) 0.12652(8)
H86_3 H 0.9576 0.5169 0.1191
C135_3 C 0.94589(8) 0.53737(7) 0.14078(8)
H87_3 H 0.9583 0.5452 0.1430
C136_3 C 0.92748(6) 0.54182(6) 0.15156(7)
C137_3 C 0.90970(6) 0.53003(6) 0.14746(6)
H88_3 H 0.8973 0.5331 0.1550
C138_3 C 0.84522(6) 0.60118(6) 0.28238(6)
C139_3 C 0.89037(6) 0.59529(6) 0.22032(6)
H89_3 H 0.9002 0.6062 0.2188
C140_3 C 0.89240(6) 0.57765(6) 0.20790(6)
C141_3 C 0.87773(7) 0.56146(7) 0.21012(7)
H90_3 H 0.8785 0.5493 0.2016
C142_3 C 0.86228(8) 0.56364(7) 0.22493(8)
H91_3 H 0.8523 0.5529 0.2271
C143_3 C 0.86146(7) 0.58189(7) 0.23671(7)
H92_3 H 0.8507 0.5832 0.2468
C144_3 C 0.90890(6) 0.57681(6) 0.19180(6)
C145_3 C 0.93540(6) 0.59257(6) 0.17468(6)
C146_3 C 0.92565(6) 0.55988(6) 0.16577(7)
C147_3 C 0.94838(6) 0.61119(6) 0.17099(6)
C148_3 C 0.94700(7) 0.62903(7) 0.18355(7)
H93_3 H 0.9377 0.6295 0.1951
C149_3 C 0.95943(8) 0.64590(7) 0.17884(8)
H94_3 H 0.9589 0.6582 0.1871
C150_3 C 0.97298(7) 0.64468(7) 0.16161(7)
H95_3 H 0.9815 0.6564 0.1585
C151_3 C 0.96226(6) 0.61152(6) 0.15414(6)
H96_3 H 0.9631 0.5995 0.1456
N49_3 N 0.85714(5) 0.61273(5) 0.27456(5)
N50_3 N 0.90915(5) 0.51463(5) 0.13338(5)
N51_3 N 0.87495(5) 0.59752(5) 0.23453(5)
N52_3 N 0.91047(5) 0.55962(5) 0.18013(5)
N53_3 N 0.93884(5) 0.57594(5) 0.16252(6)
N54_3 N 0.92093(5) 0.59389(5) 0.18980(5)
N55_3 N 0.97438(5) 0.62772(5) 0.14942(5)
S7_3 S 0.828027(19) 0.585199(19) 0.291831(19)
C152_3 C 0.90478(6) 0.46762(6) 0.10118(6)
N56_3 N 0.89286(5) 0.47544(5) 0.11273(5)
S8_3 S 0.921973(19) 0.458169(19) 0.085199(19)
Co6_4 Co 0.7500 0.378218(11) 0.121782(11)
C154_3 C 0.89882(6) 0.65478(6) 0.21762(6)
N58_3 N 0.88727(5) 0.64286(5) 0.22544(5)
S10_3 S 0.914801(19) 0.671973(19) 0.208169(19)
C155_3 C 0.71762(6) 0.35118(6) 0.09522(6)
N59_3 N 0.72544(5) 0.36273(5) 0.10714(5)
S11_3 S 0.708169(19) 0.335199(19) 0.078027(19)
C156_3 C 0.78238(6) 0.40478(6) 0.14882(6)
N60_3 N 0.77456(5) 0.39286(5) 0.13727(5)
S12_3 S 0.791831(19) 0.421973(19) 0.164801(19)
Co8_4 Co 0.871782(11) 0.2500 0.128218(11)
Co12_4 Co 1.0000 0.371782(11) 0.121782(11)
Co17_3 Co 0.997883(12) 0.6250 0.1250
N61_3 N 0.86662(5) 0.65915(5) 0.26463(5)
N62_3 N 0.73537(5) 0.40915(5) 0.11662(5)
N63_3 N 0.84085(5) 0.63338(5) 0.23537(5)
N64_3 N 0.88338(5) 0.48537(5) 0.15915(5)
N65_3 N 0.87505(5) 0.51547(5) 0.09752(5)
N66_3 N 0.73453(5) 0.37505(5) 0.15248(5)
N67_3 N 0.76547(5) 0.34752(5) 0.12495(5)
N68_3 N 0.90248(5) 0.62505(5) 0.26547(5)
C20_3 C 0.82481(8) 0.37829(9) 0.99936(7)
C21_3 C 0.86159(8) 0.41733(7) 0.98274(7)
H13_3 H 0.8509 0.4160 0.9929
C22_3 C 0.86252(8) 0.43527(8) 0.97148(8)
H14_3 H 0.8527 0.4461 0.9738
C23_3 C 0.87818(8) 0.43761(7) 0.95631(8)
H15_3 H 0.8793 0.4500 0.9483
C24_3 C 0.89202(7) 0.42105(7) 0.95337(7)
C25_3 C 0.89013(6) 0.40334(6) 0.96559(6)
H16_3 H 0.8998 0.3923 0.9636
C26_3 C 0.90834(7) 0.42216(7) 0.93701(7)
N9_3 N 0.87511(5) 0.40109(6) 0.98025(5)
N10_3 N 0.90705(6) 0.43743(5) 0.92319(6)
S2_3 S 0.79973(3) 0.38023(7) 0.99673(3)
C27_3 C 0.98274(7) 0.36159(8) 0.91733(7)
H17_3 H 0.9929 0.3509 0.9160
C28_3 C 0.97148(8) 0.36252(8) 0.93527(8)
H18_3 H 0.9738 0.3527 0.9461
C29_3 C 0.95631(8) 0.37818(8) 0.93761(7)
H19_3 H 0.9483 0.3793 0.9500
C30_3 C 0.95337(7) 0.39202(7) 0.92105(7)
C31_3 C 0.96559(6) 0.39013(6) 0.90334(6)
H20_3 H 0.9636 0.3998 0.8923
C32_3 C 0.93701(7) 0.40834(7) 0.92216(7)
N11_3 N 0.98025(5) 0.37511(5) 0.90109(6)
N12_3 N 0.92319(6) 0.40705(6) 0.93743(5)
C33_3 C 0.91733(7) 0.48274(7) 0.86159(8)
H21_3 H 0.9160 0.4929 0.8509
C34_3 C 0.93527(8) 0.47148(8) 0.86252(8)
H22_3 H 0.9461 0.4738 0.8527
C35_3 C 0.93761(7) 0.45631(8) 0.87818(8)
H23_3 H 0.9500 0.4483 0.8793
C36_3 C 0.92105(7) 0.45337(7) 0.89202(7)
C37_3 C 0.90334(6) 0.46559(6) 0.89013(6)
H24_3 H 0.8923 0.4636 0.8998
C38_3 C 0.92216(7) 0.43701(7) 0.90834(7)
N13_3 N 0.90109(6) 0.48025(5) 0.87511(5)
N14_3 N 0.93743(5) 0.42319(6) 0.90705(6)
C57_3 C 0.99936(7) 0.32481(8) 0.87829(9)
S3_3 S 0.99673(3) 0.29973(3) 0.88023(7)
Co4_3 Co 0.8750 0.247883(12) 0.8750
C58_3 C 0.87656(7) 0.17701(7) 0.76013(7)
H37_3 H 0.8863 0.1770 0.7490
C59_3 C 0.87348(8) 0.19533(7) 0.77075(8)
H38_3 H 0.8809 0.2076 0.7669
C60_3 C 0.85922(8) 0.19589(8) 0.78737(7)
H39_3 H 0.8570 0.2083 0.7952
C61_3 C 0.84844(7) 0.17748(6) 0.79182(6)
C62_3 C 0.85254(6) 0.15970(6) 0.78003(6)
H40_3 H 0.8450 0.1473 0.7831
C63_3 C 0.77968(6) 0.14037(6) 0.84529(6)
H41_3 H 0.7812 0.1502 0.8562
C64_3 C 0.79210(6) 0.14240(6) 0.82765(6)
C65_3 C 0.78988(7) 0.12773(7) 0.81146(7)
H42_3 H 0.7984 0.1285 0.7993
C66_3 C 0.77507(8) 0.11228(8) 0.81364(7)
H43_3 H 0.7729 0.1023 0.8029
C67_3 C 0.76329(7) 0.11146(7) 0.83189(7)
H44_3 H 0.7532 0.1007 0.8332
C68_3 C 0.80820(6) 0.15890(6) 0.82681(6)
C69_3 C 0.82532(6) 0.18540(6) 0.84257(6)
C70_3 C 0.83423(7) 0.17565(6) 0.80988(6)
C71_3 C 0.82901(6) 0.19838(6) 0.86119(6)
C72_3 C 0.81645(7) 0.19700(7) 0.87903(7)
H45_3 H 0.8049 0.1877 0.8795
C73_3 C 0.82116(8) 0.20943(8) 0.89590(7)
H46_3 H 0.8129 0.2089 0.9082
C74_3 C 0.83839(7) 0.22298(7) 0.89468(7)
H47_3 H 0.8415 0.2315 0.9064
C75_3 C 0.84586(6) 0.21226(6) 0.86152(6)
H48_3 H 0.8544 0.2131 0.8495
C76_3 C 0.87171(9) 0.25064(7) 0.82481(8)
C77_3 C 0.83267(7) 0.26726(7) 0.86159(8)
H49_3 H 0.8340 0.2571 0.8509
C78_3 C 0.81473(8) 0.27852(8) 0.86252(8)
H50_3 H 0.8039 0.2762 0.8527
C79_3 C 0.81239(7) 0.29369(8) 0.87818(8)
H51_3 H 0.8000 0.3017 0.8793
C80_3 C 0.82895(7) 0.29663(7) 0.89202(7)
C81_3 C 0.84666(6) 0.28441(6) 0.89013(6)
H52_3 H 0.8577 0.2864 0.8998
C82_3 C 0.82784(7) 0.31299(7) 0.90834(7)
N22_3 N 0.86662(5) 0.15915(5) 0.76463(5)
N23_3 N 0.76547(5) 0.12495(5) 0.84752(5)
N24_3 N 0.81987(5) 0.16047(5) 0.80962(5)
N25_3 N 0.83748(6) 0.18884(5) 0.82594(5)
N26_3 N 0.81020(5) 0.17093(5) 0.84389(5)
N27_3 N 0.85058(5) 0.22438(5) 0.87772(5)
N28_3 N 0.87318(5) 0.24876(5) 0.84256(6)
N29_3 N 0.84891(6) 0.26975(5) 0.87511(5)
N30_3 N 0.81257(5) 0.32681(6) 0.90705(6)
S4_3 S 0.86977(7) 0.25327(3) 0.79973(3)
C83_3 C 0.88841(8) 0.33267(7) 0.98274(7)
H53_3 H 0.8991 0.3340 0.9929
C84_3 C 0.88748(8) 0.31473(8) 0.97148(8)
H54_3 H 0.8973 0.3039 0.9738
C85_3 C 0.87182(8) 0.31239(7) 0.95631(8)
H55_3 H 0.8707 0.3000 0.9483
C86_3 C 0.85798(7) 0.32895(7) 0.95337(7)
C87_3 C 0.85987(6) 0.34666(6) 0.96559(6)
H56_3 H 0.8502 0.3577 0.9636
C88_3 C 0.84166(7) 0.32784(7) 0.93701(7)
N31_3 N 0.87489(5) 0.34891(6) 0.98025(5)
N32_3 N 0.84295(6) 0.31257(5) 0.92319(6)
C89_3 C 0.76726(7) 0.38841(8) 0.91733(7)
H57_3 H 0.7571 0.3991 0.9160
C90_3 C 0.77852(8) 0.38748(8) 0.93527(8)
H58_3 H 0.7762 0.3973 0.9461
C91_3 C 0.79369(8) 0.37182(8) 0.93761(7)
H59_3 H 0.8017 0.3707 0.9500
C92_3 C 0.79663(7) 0.35798(7) 0.92105(7)
C93_3 C 0.78441(6) 0.35987(6) 0.90334(6)
H60_3 H 0.7864 0.3502 0.8923
C94_3 C 0.81299(7) 0.34166(7) 0.92216(7)
N33_3 N 0.76975(5) 0.37489(5) 0.90109(6)
N34_3 N 0.82681(6) 0.34295(6) 0.93743(5)
C113_3 C 0.92519(8) 0.37171(9) 0.99936(7)
S5_3 S 0.95027(3) 0.36977(7) 0.99673(3)
C132_3 C 0.99936(7) 0.42519(8) 0.87171(9)
S6_3 S 0.99673(3) 0.45027(3) 0.86977(7)
C153_3 C 0.87829(9) 0.25064(7) 0.92519(8)
N57_3 N 0.87682(5) 0.24876(5) 0.90744(6)
S9_3 S 0.88023(7) 0.25327(3) 0.95027(3)
Co7_4 Co 0.7500 0.121782(11) 0.878218(11)
Co14_4 Co 0.871782(11) 0.128218(11) 0.7500
Co15_3 Co 0.747883(12) 0.3750 0.8750
Co16_3 Co 0.8750 0.502117(12) 0.8750
N69_3 N 0.89942(5) 0.22438(5) 0.87228(5)
N70_3 N 0.90109(6) 0.26975(5) 0.87489(5)
N71_3 N 0.98025(5) 0.37489(5) 0.84891(6)
Co1_5 Co 0.371782(11) 0.2500 0.628218(11)
Co2_4 Co 0.3750 0.3750 0.502117(12)
C1_4 C 0.48987(7) 0.37656(7) 0.57299(7)
H1_4 H 0.5010 0.3863 0.5730
C2_4 C 0.47925(8) 0.37348(8) 0.55467(7)
H2_4 H 0.4831 0.3809 0.5424
C3_4 C 0.46263(7) 0.35922(8) 0.55411(8)
H3_4 H 0.4548 0.3570 0.5417
C4_4 C 0.45818(6) 0.34844(7) 0.57252(6)
C5_4 C 0.46997(6) 0.35254(6) 0.59030(6)
H4_4 H 0.4669 0.3450 0.6027
C6_4 C 0.39882(6) 0.21762(6) 0.65478(6)
C7_4 C 0.40471(6) 0.27968(6) 0.60963(6)
H5_4 H 0.3938 0.2812 0.5998
C8_4 C 0.42235(6) 0.29210(6) 0.60760(6)
C9_4 C 0.43854(7) 0.28988(7) 0.62227(7)
H6_4 H 0.4507 0.2984 0.6215
C10_4 C 0.43636(7) 0.27507(8) 0.63772(8)
H7_4 H 0.4471 0.2729 0.6477
C11_4 C 0.41811(7) 0.26329(7) 0.63854(7)
H8_4 H 0.4168 0.2532 0.6493
C12_4 C 0.42319(6) 0.30820(6) 0.59110(6)
C13_4 C 0.40743(6) 0.32532(6) 0.56460(6)
C14_4 C 0.44012(6) 0.33423(7) 0.57435(6)
C15_4 C 0.38881(6) 0.32901(6) 0.55162(6)
C16_4 C 0.37097(7) 0.31645(7) 0.55300(7)
H9_4 H 0.3705 0.3049 0.5623
C17_4 C 0.35410(7) 0.32116(8) 0.54057(8)
H10_4 H 0.3418 0.3129 0.5411
C18_4 C 0.35532(7) 0.33839(7) 0.52702(7)
H11_4 H 0.3436 0.3415 0.5185
C19_4 C 0.38848(6) 0.34586(6) 0.53774(6)
H12_4 H 0.4005 0.3544 0.5369
C20_4 C 0.42519(8) 0.37171(9) 0.49936(7)
C21_4 C 0.38841(8) 0.33267(7) 0.48274(7)
H13_4 H 0.3991 0.3340 0.4929
C22_4 C 0.38748(8) 0.31473(8) 0.47148(8)
H14_4 H 0.3973 0.3039 0.4738
C23_4 C 0.37182(8) 0.31239(7) 0.45631(8)
H15_4 H 0.3707 0.3000 0.4483
C24_4 C 0.35798(7) 0.32895(7) 0.45337(7)
C25_4 C 0.35987(6) 0.34666(6) 0.46559(6)
H16_4 H 0.3502 0.3577 0.4636
C26_4 C 0.34166(7) 0.32784(7) 0.43701(7)
N1_4 N 0.38727(5) 0.22544(5) 0.64286(5)
N2_4 N 0.48537(5) 0.36662(5) 0.59085(5)
N3_4 N 0.40248(5) 0.26547(5) 0.62505(5)
N4_4 N 0.44038(5) 0.31987(5) 0.58953(5)
N5_4 N 0.42406(5) 0.33748(6) 0.56116(5)
N6_4 N 0.40611(5) 0.31020(5) 0.57907(5)
N7_4 N 0.37228(5) 0.35058(5) 0.52562(5)
N8_4 N 0.40744(6) 0.37318(5) 0.50124(5)
N9_4 N 0.37489(5) 0.34891(6) 0.48025(5)
N10_4 N 0.34295(6) 0.31257(5) 0.42319(6)
S1_4 S 0.414801(19) 0.208169(19) 0.671973(19)
S2_4 S 0.45027(3) 0.36977(7) 0.49673(3)
C27_4 C 0.26726(7) 0.38841(8) 0.41733(7)
H17_4 H 0.2571 0.3991 0.4160
C28_4 C 0.27852(8) 0.38748(8) 0.43527(8)
H18_4 H 0.2762 0.3973 0.4461
C29_4 C 0.29369(8) 0.37182(8) 0.43761(7)
H19_4 H 0.3017 0.3707 0.4500
C30_4 C 0.29663(7) 0.35798(7) 0.42105(7)
C31_4 C 0.28441(6) 0.35987(6) 0.40334(6)
H20_4 H 0.2864 0.3502 0.3923
C32_4 C 0.31299(7) 0.34166(7) 0.42216(7)
N11_4 N 0.26975(5) 0.37489(5) 0.40109(6)
N12_4 N 0.32681(6) 0.34295(6) 0.43743(5)
C33_4 C 0.33267(7) 0.26726(7) 0.36159(8)
H21_4 H 0.3340 0.2571 0.3509
C34_4 C 0.31473(8) 0.27852(8) 0.36252(8)
H22_4 H 0.3039 0.2762 0.3527
C35_4 C 0.31239(7) 0.29369(8) 0.37818(8)
H23_4 H 0.3000 0.3017 0.3793
C36_4 C 0.32895(7) 0.29663(7) 0.39202(7)
C37_4 C 0.34666(6) 0.28441(6) 0.39013(6)
H24_4 H 0.3577 0.2864 0.3998
C38_4 C 0.32784(7) 0.31299(7) 0.40834(7)
N13_4 N 0.34891(6) 0.26975(5) 0.37511(5)
N14_4 N 0.31257(5) 0.32681(6) 0.40705(6)
Co3_4 Co 0.247883(12) 0.3750 0.3750
C39_4 C 0.17701(7) 0.48987(7) 0.37344(7)
H25_4 H 0.1770 0.5010 0.3637
C40_4 C 0.19533(7) 0.47925(8) 0.37652(8)
H26_4 H 0.2076 0.4831 0.3691
C41_4 C 0.19589(8) 0.46263(7) 0.39078(8)
H27_4 H 0.2083 0.4548 0.3930
C42_4 C 0.17748(6) 0.45818(6) 0.40156(7)
C43_4 C 0.15970(6) 0.46997(6) 0.39746(6)
H28_4 H 0.1473 0.4669 0.4050
C44_4 C 0.14037(6) 0.40471(6) 0.47032(6)
H29_4 H 0.1502 0.3938 0.4688
C45_4 C 0.14240(6) 0.42235(6) 0.45790(6)
C46_4 C 0.12773(7) 0.43854(7) 0.46012(7)
H30_4 H 0.1285 0.4507 0.4516
C47_4 C 0.11228(8) 0.43636(7) 0.47493(8)
H31_4 H 0.1023 0.4471 0.4771
C48_4 C 0.11146(7) 0.41811(7) 0.48671(7)
H32_4 H 0.1007 0.4168 0.4968
C49_4 C 0.15890(6) 0.42319(6) 0.44180(6)
C50_4 C 0.18540(6) 0.40743(6) 0.42468(6)
C51_4 C 0.17565(6) 0.44012(6) 0.41577(7)
C52_4 C 0.19838(6) 0.38881(6) 0.42099(6)
C53_4 C 0.19700(7) 0.37097(7) 0.43355(7)
H33_4 H 0.1877 0.3705 0.4451
C54_4 C 0.20943(8) 0.35410(7) 0.42884(8)
H34_4 H 0.2089 0.3418 0.4371
C55_4 C 0.22298(7) 0.35532(7) 0.41161(7)
H35_4 H 0.2315 0.3436 0.4085
C56_4 C 0.21226(6) 0.38848(6) 0.40414(6)
H36_4 H 0.2131 0.4005 0.3956
C57_4 C 0.25064(7) 0.42519(8) 0.37829(9)
N15_4 N 0.15915(5) 0.48537(5) 0.38338(5)
N16_4 N 0.12495(5) 0.40248(5) 0.48453(5)
N17_4 N 0.16047(5) 0.44038(5) 0.43013(5)
N18_4 N 0.18884(5) 0.42406(5) 0.41252(6)
N19_4 N 0.17093(5) 0.40611(5) 0.43980(5)
N20_4 N 0.22438(5) 0.37228(5) 0.39942(5)
N21_4 N 0.24876(5) 0.40744(6) 0.37682(5)
S3_4 S 0.25327(3) 0.45027(3) 0.38023(7)
Co4_4 Co 0.3750 0.502117(12) 0.3750
C58_4 C 0.37344(7) 0.57299(7) 0.26013(7)
H37_4 H 0.3637 0.5730 0.2490
C59_4 C 0.37652(8) 0.55467(7) 0.27075(8)
H38_4 H 0.3691 0.5424 0.2669
C60_4 C 0.39078(8) 0.55411(8) 0.28737(7)
H39_4 H 0.3930 0.5417 0.2952
C61_4 C 0.40156(7) 0.57252(6) 0.29182(6)
C62_4 C 0.39746(6) 0.59030(6) 0.28003(6)
H40_4 H 0.4050 0.6027 0.2831
C63_4 C 0.47032(6) 0.60963(6) 0.34529(6)
H41_4 H 0.4688 0.5998 0.3562
C64_4 C 0.45790(6) 0.60760(6) 0.32765(6)
C65_4 C 0.46012(7) 0.62227(7) 0.31146(7)
H42_4 H 0.4516 0.6215 0.2993
C66_4 C 0.47493(8) 0.63772(8) 0.31364(7)
H43_4 H 0.4771 0.6477 0.3029
C67_4 C 0.48671(7) 0.63854(7) 0.33189(7)
H44_4 H 0.4968 0.6493 0.3332
C68_4 C 0.44180(6) 0.59110(6) 0.32681(6)
C69_4 C 0.42468(6) 0.56460(6) 0.34257(6)
C70_4 C 0.41577(7) 0.57435(6) 0.30988(6)
C71_4 C 0.42099(6) 0.55162(6) 0.36119(6)
C72_4 C 0.43355(7) 0.55300(7) 0.37903(7)
H45_4 H 0.4451 0.5623 0.3795
C73_4 C 0.42884(8) 0.54057(8) 0.39590(7)
H46_4 H 0.4371 0.5411 0.4082
C74_4 C 0.41161(7) 0.52702(7) 0.39468(7)
H47_4 H 0.4085 0.5185 0.4064
C75_4 C 0.40414(6) 0.53774(6) 0.36152(6)
H48_4 H 0.3956 0.5369 0.3495
C76_4 C 0.37829(9) 0.49936(7) 0.32481(8)
C77_4 C 0.41733(7) 0.48274(7) 0.36159(8)
H49_4 H 0.4160 0.4929 0.3509
C78_4 C 0.43527(8) 0.47148(8) 0.36252(8)
H50_4 H 0.4461 0.4738 0.3527
C79_4 C 0.43761(7) 0.45631(8) 0.37818(8)
H51_4 H 0.4500 0.4483 0.3793
C80_4 C 0.42105(7) 0.45337(7) 0.39202(7)
C81_4 C 0.40334(6) 0.46559(6) 0.39013(6)
H52_4 H 0.3923 0.4636 0.3998
C82_4 C 0.42216(7) 0.43701(7) 0.40834(7)
N22_4 N 0.38338(5) 0.59085(5) 0.26463(5)
N23_4 N 0.48453(5) 0.62505(5) 0.34752(5)
N24_4 N 0.43013(5) 0.58953(5) 0.30962(5)
N25_4 N 0.41252(6) 0.56116(5) 0.32594(5)
N26_4 N 0.43980(5) 0.57907(5) 0.34389(5)
N27_4 N 0.39942(5) 0.52562(5) 0.37772(5)
N28_4 N 0.37682(5) 0.50124(5) 0.34256(6)
N29_4 N 0.40109(6) 0.48025(5) 0.37511(5)
N30_4 N 0.43743(5) 0.42319(6) 0.40705(6)
S4_4 S 0.38023(7) 0.49673(3) 0.29973(3)
C83_4 C 0.36159(8) 0.41733(7) 0.48274(7)
H53_4 H 0.3509 0.4160 0.4929
C84_4 C 0.36252(8) 0.43527(8) 0.47148(8)
H54_4 H 0.3527 0.4461 0.4738
C85_4 C 0.37818(8) 0.43761(7) 0.45631(8)
H55_4 H 0.3793 0.4500 0.4483
C86_4 C 0.39202(7) 0.42105(7) 0.45337(7)
C87_4 C 0.39013(6) 0.40334(6) 0.46559(6)
H56_4 H 0.3998 0.3923 0.4636
C88_4 C 0.40834(7) 0.42216(7) 0.43701(7)
N31_4 N 0.37511(5) 0.40109(6) 0.48025(5)
N32_4 N 0.40705(6) 0.43743(5) 0.42319(6)
C89_4 C 0.48274(7) 0.36159(8) 0.41733(7)
H57_4 H 0.4929 0.3509 0.4160
C90_4 C 0.47148(8) 0.36252(8) 0.43527(8)
H58_4 H 0.4738 0.3527 0.4461
C91_4 C 0.45631(8) 0.37818(8) 0.43761(7)
H59_4 H 0.4483 0.3793 0.4500
C92_4 C 0.45337(7) 0.39202(7) 0.42105(7)
C93_4 C 0.46559(6) 0.39013(6) 0.40334(6)
H60_4 H 0.4636 0.3998 0.3923
C94_4 C 0.43701(7) 0.40834(7) 0.42216(7)
N33_4 N 0.48025(5) 0.37511(5) 0.40109(6)
N34_4 N 0.42319(6) 0.40705(6) 0.43743(5)
C95_4 C 0.26013(7) 0.37344(7) 0.57299(7)
H61_4 H 0.2490 0.3637 0.5730
C96_4 C 0.27075(8) 0.37652(8) 0.55467(7)
H62_4 H 0.2669 0.3691 0.5424
C97_4 C 0.28737(7) 0.39078(8) 0.55411(8)
H63_4 H 0.2952 0.3930 0.5417
C98_4 C 0.29182(6) 0.40156(7) 0.57252(6)
C99_4 C 0.28003(6) 0.39746(6) 0.59030(6)
H64_4 H 0.2831 0.4050 0.6027
C100_4 C 0.34529(6) 0.47032(6) 0.60963(6)
H65_4 H 0.3562 0.4688 0.5998
C101_4 C 0.32765(6) 0.45790(6) 0.60760(6)
C102_4 C 0.31146(7) 0.46012(7) 0.62227(7)
H66_4 H 0.2993 0.4516 0.6215
C103_4 C 0.31364(7) 0.47493(8) 0.63772(8)
H67_4 H 0.3029 0.4771 0.6477
C104_4 C 0.33189(7) 0.48671(7) 0.63854(7)
H68_4 H 0.3332 0.4968 0.6493
C105_4 C 0.32681(6) 0.44180(6) 0.59110(6)
C106_4 C 0.34257(6) 0.42468(6) 0.56460(6)
C107_4 C 0.30988(6) 0.41577(7) 0.57435(6)
C108_4 C 0.36119(6) 0.42099(6) 0.55162(6)
C109_4 C 0.37903(7) 0.43355(7) 0.55300(7)
H69_4 H 0.3795 0.4451 0.5623
C110_4 C 0.39590(7) 0.42884(8) 0.54057(8)
H70_4 H 0.4082 0.4371 0.5411
C111_4 C 0.39468(7) 0.41161(7) 0.52702(7)
H71_4 H 0.4064 0.4085 0.5185
C112_4 C 0.36152(6) 0.40414(6) 0.53774(6)
H72_4 H 0.3495 0.3956 0.5369
C113_4 C 0.32481(8) 0.37829(9) 0.49936(7)
N35_4 N 0.26463(5) 0.38338(5) 0.59085(5)
N36_4 N 0.34752(5) 0.48453(5) 0.62505(5)
N37_4 N 0.30962(5) 0.43013(5) 0.58953(5)
N38_4 N 0.32594(5) 0.41252(6) 0.56116(5)
N39_4 N 0.34389(5) 0.43980(5) 0.57907(5)
N40_4 N 0.37772(5) 0.39942(5) 0.52562(5)
N41_4 N 0.34256(6) 0.37682(5) 0.50124(5)
S5_4 S 0.29973(3) 0.38023(7) 0.49673(3)
C114_4 C 0.17701(7) 0.26013(7) 0.37656(7)
H73_4 H 0.1770 0.2490 0.3863
C115_4 C 0.19533(7) 0.27075(8) 0.37348(8)
H74_4 H 0.2076 0.2669 0.3809
C116_4 C 0.19589(8) 0.28737(7) 0.35922(8)
H75_4 H 0.2083 0.2952 0.3570
C117_4 C 0.17748(6) 0.29182(6) 0.34844(7)
C118_4 C 0.15970(6) 0.28003(6) 0.35254(6)
H76_4 H 0.1473 0.2831 0.3450
C119_4 C 0.14037(6) 0.34529(6) 0.27968(6)
H77_4 H 0.1502 0.3562 0.2812
C120_4 C 0.14240(6) 0.32765(6) 0.29210(6)
C121_4 C 0.12773(7) 0.31146(7) 0.28988(7)
H78_4 H 0.1285 0.2993 0.2984
C122_4 C 0.11228(8) 0.31364(7) 0.27507(8)
H79_4 H 0.1023 0.3029 0.2729
C123_4 C 0.11146(7) 0.33189(7) 0.26329(7)
H80_4 H 0.1007 0.3332 0.2532
C124_4 C 0.15890(6) 0.32681(6) 0.30820(6)
C125_4 C 0.18540(6) 0.34257(6) 0.32532(6)
C126_4 C 0.17565(6) 0.30988(6) 0.33423(7)
C127_4 C 0.19838(6) 0.36119(6) 0.32901(6)
C128_4 C 0.19700(7) 0.37903(7) 0.31645(7)
H81_4 H 0.1877 0.3795 0.3049
C129_4 C 0.20943(8) 0.39590(7) 0.32116(8)
H82_4 H 0.2089 0.4082 0.3129
C130_4 C 0.22298(7) 0.39468(7) 0.33839(7)
H83_4 H 0.2315 0.4064 0.3415
C131_4 C 0.21226(6) 0.36152(6) 0.34586(6)
H84_4 H 0.2131 0.3495 0.3544
C132_4 C 0.25064(7) 0.32481(8) 0.37171(9)
N42_4 N 0.15915(5) 0.26463(5) 0.36662(5)
N43_4 N 0.12495(5) 0.34752(5) 0.26547(5)
N44_4 N 0.16047(5) 0.30962(5) 0.31987(5)
N45_4 N 0.18884(5) 0.32594(5) 0.33748(6)
N46_4 N 0.17093(5) 0.34389(5) 0.31020(5)
N47_4 N 0.22438(5) 0.37772(5) 0.35058(5)
N48_4 N 0.24876(5) 0.34256(6) 0.37318(5)
S6_4 S 0.25327(3) 0.29973(3) 0.36977(7)
Co5_5 Co 0.378218(11) 0.121782(11) 0.7500
C133_4 C 0.32299(7) 0.23987(7) 0.62344(7)
H85_4 H 0.3230 0.2510 0.6137
C134_4 C 0.30467(7) 0.22925(8) 0.62652(8)
H86_4 H 0.2924 0.2331 0.6191
C135_4 C 0.30411(8) 0.21263(7) 0.64078(8)
H87_4 H 0.2917 0.2048 0.6430
C136_4 C 0.32252(6) 0.20818(6) 0.65156(7)
C137_4 C 0.34030(6) 0.21997(6) 0.64746(6)
H88_4 H 0.3527 0.2169 0.6550
C138_4 C 0.40478(6) 0.14882(6) 0.78238(6)
C139_4 C 0.35963(6) 0.15471(6) 0.72032(6)
H89_4 H 0.3498 0.1438 0.7188
C140_4 C 0.35760(6) 0.17235(6) 0.70790(6)
C141_4 C 0.37227(7) 0.18854(7) 0.71012(7)
H90_4 H 0.3715 0.2007 0.7016
C142_4 C 0.38772(8) 0.18636(7) 0.72493(8)
H91_4 H 0.3977 0.1971 0.7271
C143_4 C 0.38854(7) 0.16811(7) 0.73671(7)
H92_4 H 0.3993 0.1668 0.7468
C144_4 C 0.34110(6) 0.17319(6) 0.69180(6)
C145_4 C 0.31460(6) 0.15743(6) 0.67468(6)
C146_4 C 0.32435(6) 0.19012(6) 0.66577(7)
C147_4 C 0.30162(6) 0.13881(6) 0.67099(6)
C148_4 C 0.30300(7) 0.12097(7) 0.68355(7)
H93_4 H 0.3123 0.1205 0.6951
C149_4 C 0.29057(8) 0.10410(7) 0.67884(8)
H94_4 H 0.2911 0.0918 0.6871
C150_4 C 0.27702(7) 0.10532(7) 0.66161(7)
H95_4 H 0.2685 0.0936 0.6585
C151_4 C 0.28774(6) 0.13848(6) 0.65414(6)
H96_4 H 0.2869 0.1505 0.6456
N49_4 N 0.39286(5) 0.13727(5) 0.77456(5)
N50_4 N 0.34085(5) 0.23537(5) 0.63338(5)
N51_4 N 0.37505(5) 0.15248(5) 0.73453(5)
N52_4 N 0.33953(5) 0.19038(5) 0.68013(5)
N53_4 N 0.31116(5) 0.17406(5) 0.66252(6)
N54_4 N 0.32907(5) 0.15611(5) 0.68980(5)
N55_4 N 0.27562(5) 0.12228(5) 0.64942(5)
S7_4 S 0.421973(19) 0.164801(19) 0.791831(19)
C152_4 C 0.34522(6) 0.28238(6) 0.60118(6)
N56_4 N 0.35714(5) 0.27456(5) 0.61273(5)
S8_4 S 0.328027(19) 0.291831(19) 0.585199(19)
C153_4 C 0.37171(9) 0.49936(7) 0.42519(8)
N57_4 N 0.37318(5) 0.50124(5) 0.40744(6)
S9_4 S 0.36977(7) 0.49673(3) 0.45027(3)
Co6_5 Co 0.5000 0.371782(11) 0.621782(11)
C154_4 C 0.35118(6) 0.09522(6) 0.71762(6)
N58_4 N 0.36273(5) 0.10714(5) 0.72544(5)
S10_4 S 0.335199(19) 0.078027(19) 0.708169(19)
C155_4 C 0.53238(6) 0.39882(6) 0.59522(6)
N59_4 N 0.52456(5) 0.38727(5) 0.60714(5)
S11_4 S 0.541831(19) 0.414801(19) 0.578027(19)
C156_4 C 0.46762(6) 0.34522(6) 0.64882(6)
N60_4 N 0.47544(5) 0.35714(5) 0.63727(5)
S12_4 S 0.458169(19) 0.328027(19) 0.664801(19)
Co7_5 Co 0.5000 0.628218(11) 0.378218(11)
Co8_5 Co 0.378218(11) 0.5000 0.628218(11)
Co9_5 Co 0.121782(11) 0.371782(11) 0.5000
Co10_5 Co 0.121782(11) 0.378218(11) 0.2500
Co11_5 Co 0.128218(11) 0.5000 0.378218(11)
Co12_5 Co 0.2500 0.378218(11) 0.621782(11)
Co13_5 Co 0.128218(11) 0.2500 0.371782(11)
Co14_5 Co 0.378218(11) 0.621782(11) 0.2500
Co15_4 Co 0.502117(12) 0.3750 0.3750
Co16_4 Co 0.3750 0.247883(12) 0.3750
Co17_4 Co 0.252117(12) 0.1250 0.6250
N61_4 N 0.38338(5) 0.09085(5) 0.76463(5)
N62_4 N 0.51463(5) 0.34085(5) 0.61662(5)
N63_4 N 0.40915(5) 0.11662(5) 0.73537(5)
N64_4 N 0.36662(5) 0.26463(5) 0.65915(5)
N65_4 N 0.37495(5) 0.23453(5) 0.59752(5)
N66_4 N 0.51547(5) 0.37495(5) 0.65248(5)
N67_4 N 0.48453(5) 0.40248(5) 0.62495(5)
N68_4 N 0.34752(5) 0.12495(5) 0.76547(5)
N69_4 N 0.35058(5) 0.52562(5) 0.37228(5)
N70_4 N 0.34891(6) 0.48025(5) 0.37489(5)
N71_4 N 0.26975(5) 0.37511(5) 0.34891(6)
H1_5 H 0.1770 0.0010 0.8637
Co6_6 Co 0.128218(11) -0.0000 0.878218(11)
C155_5 C 0.15478(6) 0.03238(6) 0.85118(6)
N59_5 N 0.14286(5) 0.02456(5) 0.86273(5)
S11_5 S 0.171973(19) 0.041831(19) 0.835199(19)
N62_5 N 0.13338(5) 0.01463(5) 0.90915(5)
N66_5 N 0.09752(5) 0.01547(5) 0.87505(5)
Co1_6 Co 0.121782(11) 0.871782(11) -0.0000
C6_5 C 0.09522(6) 0.89882(6) 0.03238(6)
N1_5 N 0.10714(5) 0.88727(5) 0.02456(5)
S1_5 S 0.078027(19) 0.914801(19) 0.041831(19)
H73_5 H 0.3637 0.6770 0.0010
C133_5 C 0.12656(7) 0.82299(7) 0.01013(7)
C134_5 C 0.12348(8) 0.80467(7) 0.02075(8)
H86_5 H 0.1309 0.7924 0.0169
C135_5 C 0.10922(8) 0.80411(8) 0.03737(7)
H87_5 H 0.1070 0.7917 0.0452
C136_5 C 0.09844(7) 0.82252(6) 0.04182(6)
C137_5 C 0.10254(6) 0.84030(6) 0.03003(6)
H88_5 H 0.0950 0.8527 0.0331
C139_5 C 0.02968(6) 0.85963(6) 0.09529(6)
H89_5 H 0.0312 0.8498 0.1062
C140_5 C 0.04210(6) 0.85760(6) 0.07765(6)
C141_5 C 0.03988(7) 0.87227(7) 0.06146(7)
H90_5 H 0.0484 0.8715 0.0493
C142_5 C 0.02507(8) 0.88772(8) 0.06364(7)
H91_5 H 0.0229 0.8977 0.0529
C143_5 C 0.01329(7) 0.88854(7) 0.08189(7)
H92_5 H 0.0032 0.8993 0.0832
C144_5 C 0.05820(6) 0.84110(6) 0.07681(6)
C145_5 C 0.07532(6) 0.81460(6) 0.09257(6)
C146_5 C 0.08423(7) 0.82435(6) 0.05988(6)
C147_5 C 0.07901(6) 0.80162(6) 0.11119(6)
C148_5 C 0.06645(7) 0.80300(7) 0.12903(7)
H93_5 H 0.0549 0.8123 0.1295
C149_5 C 0.07116(8) 0.79057(8) 0.14590(7)
H94_5 H 0.0629 0.7911 0.1582
C150_5 C 0.08839(7) 0.77702(7) 0.14468(7)
H95_5 H 0.0915 0.7685 0.1564
C151_5 C 0.09586(6) 0.78774(6) 0.11152(6)
H96_5 H 0.1044 0.7869 0.0995
N50_5 N 0.11662(5) 0.84085(5) 0.01463(5)
N52_5 N 0.06987(5) 0.83953(5) 0.05962(5)
N53_5 N 0.08748(6) 0.81116(5) 0.07594(5)
N54_5 N 0.06020(5) 0.82907(5) 0.09389(5)
N55_5 N 0.10058(5) 0.77562(5) 0.12772(5)
Co13_6 Co 0.378218(11) 0.628218(11) -0.0000
Co16_5 Co 0.3750 0.8750 0.002117(12)
Co17_5 Co 0.1250 0.752117(12) 0.1250
N65_5 N 0.15248(5) 0.87495(5) 0.01547(5)
Co1_7 Co 0.121782(11) 0.871782(11) 1.0000
C1_5 C 0.17701(7) 0.98987(7) 0.87344(7)
C2_5 C 0.19533(7) 0.97925(8) 0.87652(8)
H2_5 H 0.2076 0.9831 0.8691
C3_5 C 0.19589(8) 0.96263(7) 0.89078(8)
H3_5 H 0.2083 0.9548 0.8930
C4_5 C 0.17748(6) 0.95818(6) 0.90156(7)
C5_5 C 0.15970(6) 0.96997(6) 0.89746(6)
H4_5 H 0.1473 0.9669 0.9050
C7_5 C 0.14037(6) 0.90471(6) 0.97032(6)
H5_5 H 0.1502 0.8938 0.9688
C8_5 C 0.14240(6) 0.92235(6) 0.95790(6)
C9_5 C 0.12773(7) 0.93854(7) 0.96012(7)
H6_5 H 0.1285 0.9507 0.9516
C10_5 C 0.11228(8) 0.93636(7) 0.97493(8)
H7_5 H 0.1023 0.9471 0.9771
C11_5 C 0.11146(7) 0.91811(7) 0.98671(7)
H8_5 H 0.1007 0.9168 0.9968
C12_5 C 0.15890(6) 0.92319(6) 0.94180(6)
C13_5 C 0.18540(6) 0.90743(6) 0.92468(6)
C14_5 C 0.17565(6) 0.94012(6) 0.91577(7)
C15_5 C 0.19838(6) 0.88881(6) 0.92099(6)
C16_5 C 0.19700(7) 0.87097(7) 0.93355(7)
H9_5 H 0.1877 0.8705 0.9451
C17_5 C 0.20943(8) 0.85410(7) 0.92884(8)
H10_5 H 0.2089 0.8418 0.9371
C18_5 C 0.22298(7) 0.85532(7) 0.91161(7)
H11_5 H 0.2315 0.8436 0.9085
C19_5 C 0.21226(6) 0.88848(6) 0.90414(6)
H12_5 H 0.2131 0.9005 0.8956
C20_5 C 0.25064(7) 0.92519(8) 0.87829(9)
C21_5 C 0.26726(7) 0.88841(8) 0.91733(7)
H13_5 H 0.2571 0.8991 0.9160
C22_5 C 0.27852(8) 0.88748(8) 0.93527(8)
H14_5 H 0.2762 0.8973 0.9461
C23_5 C 0.29369(8) 0.87182(8) 0.93761(7)
H15_5 H 0.3017 0.8707 0.9500
C24_5 C 0.29663(7) 0.85798(7) 0.92105(7)
C25_5 C 0.28441(6) 0.85987(6) 0.90334(6)
H16_5 H 0.2864 0.8502 0.8923
C26_5 C 0.31299(7) 0.84166(7) 0.92216(7)
N2_5 N 0.15915(5) 0.98537(5) 0.88338(5)
N3_5 N 0.12495(5) 0.90248(5) 0.98453(5)
N4_5 N 0.16047(5) 0.94038(5) 0.93013(5)
N5_5 N 0.18884(5) 0.92406(5) 0.91252(6)
N6_5 N 0.17093(5) 0.90611(5) 0.93980(5)
N7_5 N 0.22438(5) 0.87228(5) 0.89942(5)
N8_5 N 0.24876(5) 0.90744(6) 0.87682(5)
N9_5 N 0.26975(5) 0.87489(5) 0.90109(6)
N10_5 N 0.32681(6) 0.84295(6) 0.93743(5)
S2_5 S 0.25327(3) 0.95027(3) 0.88023(7)
C27_5 C 0.33267(7) 0.76726(7) 0.86159(8)
H17_5 H 0.3340 0.7571 0.8509
C28_5 C 0.31473(8) 0.77852(8) 0.86252(8)
H18_5 H 0.3039 0.7762 0.8527
C29_5 C 0.31239(7) 0.79369(8) 0.87818(8)
H19_5 H 0.3000 0.8017 0.8793
C30_5 C 0.32895(7) 0.79663(7) 0.89202(7)
C31_5 C 0.34666(6) 0.78441(6) 0.89013(6)
H20_5 H 0.3577 0.7864 0.8998
C32_5 C 0.32784(7) 0.81299(7) 0.90834(7)
N11_5 N 0.34891(6) 0.76975(5) 0.87511(5)
N12_5 N 0.31257(5) 0.82681(6) 0.90705(6)
C33_5 C 0.38841(8) 0.83267(7) 0.98274(7)
H21_5 H 0.3991 0.8340 0.9929
C34_5 C 0.38748(8) 0.81473(8) 0.97148(8)
H22_5 H 0.3973 0.8039 0.9738
C35_5 C 0.37182(8) 0.81239(7) 0.95631(8)
H23_5 H 0.3707 0.8000 0.9483
C36_5 C 0.35798(7) 0.82895(7) 0.95337(7)
C37_5 C 0.35987(6) 0.84666(6) 0.96559(6)
H24_5 H 0.3502 0.8577 0.9636
C38_5 C 0.34166(7) 0.82784(7) 0.93701(7)
N13_5 N 0.37489(5) 0.84891(6) 0.98025(5)
N14_5 N 0.34295(6) 0.81257(5) 0.92319(6)
C39_5 C 0.37656(7) 0.67701(7) 0.76013(7)
H25_5 H 0.3863 0.6770 0.7490
C40_5 C 0.37348(8) 0.69533(7) 0.77075(8)
H26_5 H 0.3809 0.7076 0.7669
C41_5 C 0.35922(8) 0.69589(8) 0.78737(7)
H27_5 H 0.3570 0.7083 0.7952
C42_5 C 0.34844(7) 0.67748(6) 0.79182(6)
C43_5 C 0.35254(6) 0.65970(6) 0.78003(6)
H28_5 H 0.3450 0.6473 0.7831
C44_5 C 0.27968(6) 0.64037(6) 0.84529(6)
H29_5 H 0.2812 0.6502 0.8562
C45_5 C 0.29210(6) 0.64240(6) 0.82765(6)
C46_5 C 0.28988(7) 0.62773(7) 0.81146(7)
H30_5 H 0.2984 0.6285 0.7993
C47_5 C 0.27507(8) 0.61228(8) 0.81364(7)
H31_5 H 0.2729 0.6023 0.8029
C48_5 C 0.26329(7) 0.61146(7) 0.83189(7)
H32_5 H 0.2532 0.6007 0.8332
C49_5 C 0.30820(6) 0.65890(6) 0.82681(6)
C50_5 C 0.32532(6) 0.68540(6) 0.84257(6)
C51_5 C 0.33423(7) 0.67565(6) 0.80988(6)
C52_5 C 0.32901(6) 0.69838(6) 0.86119(6)
C53_5 C 0.31645(7) 0.69700(7) 0.87903(7)
H33_5 H 0.3049 0.6877 0.8795
C54_5 C 0.32116(8) 0.70943(8) 0.89590(7)
H34_5 H 0.3129 0.7089 0.9082
C55_5 C 0.33839(7) 0.72298(7) 0.89468(7)
H35_5 H 0.3415 0.7315 0.9064
C56_5 C 0.34586(6) 0.71226(6) 0.86152(6)
H36_5 H 0.3544 0.7131 0.8495
C57_5 C 0.37171(9) 0.75064(7) 0.82481(8)
N15_5 N 0.36662(5) 0.65915(5) 0.76463(5)
N16_5 N 0.26547(5) 0.62495(5) 0.84752(5)
N17_5 N 0.31987(5) 0.66047(5) 0.80962(5)
N18_5 N 0.33748(6) 0.68884(5) 0.82594(5)
N19_5 N 0.31020(5) 0.67093(5) 0.84389(5)
N20_5 N 0.35058(5) 0.72438(5) 0.87772(5)
N21_5 N 0.37318(5) 0.74876(5) 0.84256(6)
S3_5 S 0.36977(7) 0.75327(3) 0.79973(3)
C95_5 C 0.17701(7) 0.76013(7) 0.87656(7)
H61_5 H 0.1770 0.7490 0.8863
C96_5 C 0.19533(7) 0.77075(8) 0.87348(8)
H62_5 H 0.2076 0.7669 0.8809
C97_5 C 0.19589(8) 0.78737(7) 0.85922(8)
H63_5 H 0.2083 0.7952 0.8570
C98_5 C 0.17748(6) 0.79182(6) 0.84844(7)
C99_5 C 0.15970(6) 0.78003(6) 0.85254(6)
H64_5 H 0.1473 0.7831 0.8450
C100_5 C 0.14037(6) 0.84529(6) 0.77968(6)
H65_5 H 0.1502 0.8562 0.7812
C101_5 C 0.14240(6) 0.82765(6) 0.79210(6)
C102_5 C 0.12773(7) 0.81146(7) 0.78988(7)
H66_5 H 0.1285 0.7993 0.7984
C103_5 C 0.11228(8) 0.81364(7) 0.77507(8)
H67_5 H 0.1023 0.8029 0.7729
C104_5 C 0.11146(7) 0.83189(7) 0.76329(7)
H68_5 H 0.1007 0.8332 0.7532
C105_5 C 0.15890(6) 0.82681(6) 0.80820(6)
C106_5 C 0.18540(6) 0.84257(6) 0.82532(6)
C107_5 C 0.17565(6) 0.80988(6) 0.83423(7)
C108_5 C 0.19838(6) 0.86119(6) 0.82901(6)
C109_5 C 0.19700(7) 0.87903(7) 0.81645(7)
H69_5 H 0.1877 0.8795 0.8049
C110_5 C 0.20943(8) 0.89590(7) 0.82116(8)
H70_5 H 0.2089 0.9082 0.8129
C111_5 C 0.22298(7) 0.89468(7) 0.83839(7)
H71_5 H 0.2315 0.9064 0.8415
C112_5 C 0.21226(6) 0.86152(6) 0.84586(6)
H72_5 H 0.2131 0.8495 0.8544
C113_5 C 0.25064(7) 0.82481(8) 0.87171(9)
N35_5 N 0.15915(5) 0.76463(5) 0.86662(5)
N36_5 N 0.12495(5) 0.84752(5) 0.76547(5)
N37_5 N 0.16047(5) 0.80962(5) 0.81987(5)
N38_5 N 0.18884(5) 0.82594(5) 0.83748(6)
N39_5 N 0.17093(5) 0.84389(5) 0.81020(5)
N40_5 N 0.22438(5) 0.87772(5) 0.85058(5)
N41_5 N 0.24876(5) 0.84256(6) 0.87318(5)
S5_5 S 0.25327(3) 0.79973(3) 0.86977(7)
C114_5 C 0.37344(7) 0.67701(7) 0.98987(7)
C115_5 C 0.37652(8) 0.69533(7) 0.97925(8)
H74_5 H 0.3691 0.7076 0.9831
C116_5 C 0.39078(8) 0.69589(8) 0.96263(7)
H75_5 H 0.3930 0.7083 0.9548
C117_5 C 0.40156(7) 0.67748(6) 0.95818(6)
C118_5 C 0.39746(6) 0.65970(6) 0.96997(6)
H76_5 H 0.4050 0.6473 0.9669
C119_5 C 0.47032(6) 0.64037(6) 0.90471(6)
H77_5 H 0.4688 0.6502 0.8938
C120_5 C 0.45790(6) 0.64240(6) 0.92235(6)
C121_5 C 0.46012(7) 0.62773(7) 0.93854(7)
H78_5 H 0.4516 0.6285 0.9507
C122_5 C 0.47493(8) 0.61228(8) 0.93636(7)
H79_5 H 0.4771 0.6023 0.9471
C123_5 C 0.48671(7) 0.61146(7) 0.91811(7)
H80_5 H 0.4968 0.6007 0.9168
C124_5 C 0.44180(6) 0.65890(6) 0.92319(6)
C125_5 C 0.42468(6) 0.68540(6) 0.90743(6)
C126_5 C 0.41577(7) 0.67565(6) 0.94012(6)
C127_5 C 0.42099(6) 0.69838(6) 0.88881(6)
C128_5 C 0.43355(7) 0.69700(7) 0.87097(7)
H81_5 H 0.4451 0.6877 0.8705
C129_5 C 0.42884(8) 0.70943(8) 0.85410(7)
H82_5 H 0.4371 0.7089 0.8418
C130_5 C 0.41161(7) 0.72298(7) 0.85532(7)
H83_5 H 0.4085 0.7315 0.8436
C131_5 C 0.40414(6) 0.71226(6) 0.88848(6)
H84_5 H 0.3956 0.7131 0.9005
C132_5 C 0.37829(9) 0.75064(7) 0.92519(8)
N42_5 N 0.38338(5) 0.65915(5) 0.98537(5)
N43_5 N 0.48453(5) 0.62495(5) 0.90248(5)
N44_5 N 0.43013(5) 0.66047(5) 0.94038(5)
N45_5 N 0.41252(6) 0.68884(5) 0.92406(5)
N46_5 N 0.43980(5) 0.67093(5) 0.90611(5)
N47_5 N 0.39942(5) 0.72438(5) 0.87228(5)
N48_5 N 0.37682(5) 0.74876(5) 0.90744(6)
S6_5 S 0.38023(7) 0.75327(3) 0.95027(3)
H85_5 H 0.1363 0.8230 0.9990
C152_5 C 0.14882(6) 0.84522(6) 0.96762(6)
N56_5 N 0.13727(5) 0.85714(5) 0.97544(5)
S8_5 S 0.164801(19) 0.828027(19) 0.958169(19)
Co6_7 Co 0.128218(11) 1.0000 0.878218(11)
C156_5 C 0.10118(6) 0.96762(6) 0.90478(6)
N60_5 N 0.11273(5) 0.97544(5) 0.89286(5)
S12_5 S 0.085199(19) 0.958169(19) 0.921973(19)
Co8_6 Co 0.121782(11) 0.878218(11) 0.7500
Co9_6 Co 0.2500 0.621782(11) 0.878218(11)
Co10_6 Co 0.5000 0.621782(11) 0.871782(11)
Co11_6 Co 0.371782(11) 0.628218(11) 0.7500
Co12_6 Co 0.128218(11) 0.7500 0.871782(11)
Co13_7 Co 0.378218(11) 0.628218(11) 1.0000
N64_5 N 0.09085(5) 0.86662(5) 0.98537(5)
N67_5 N 0.12505(5) 0.98453(5) 0.84752(5)
Co10_7 Co -0.0000 0.628218(11) 0.878218(11)
H25_6 H 0.8863 0.5730 0.0010
Co8_7 Co 0.621782(11) 0.371782(11) 0.0000
Co11_7 Co 0.871782(11) 0.621782(11) 0.0000
Co1_8 Co 0.621782(11) 0.378218(11) 0.7500
C1_6 C 0.67701(7) 0.26013(7) 0.87656(7)
H1_6 H 0.6770 0.2490 0.8863
C2_6 C 0.69533(7) 0.27075(8) 0.87348(8)
H2_6 H 0.7076 0.2669 0.8809
C3_6 C 0.69589(8) 0.28737(7) 0.85922(8)
H3_6 H 0.7083 0.2952 0.8570
C4_6 C 0.67748(6) 0.29182(6) 0.84844(7)
C5_6 C 0.65970(6) 0.28003(6) 0.85254(6)
H4_6 H 0.6473 0.2831 0.8450
C6_6 C 0.59522(6) 0.35118(6) 0.71762(6)
C7_6 C 0.64037(6) 0.34529(6) 0.77968(6)
H5_6 H 0.6502 0.3562 0.7812
C8_6 C 0.64240(6) 0.32765(6) 0.79210(6)
C9_6 C 0.62773(7) 0.31146(7) 0.78988(7)
H6_6 H 0.6285 0.2993 0.7984
C10_6 C 0.61228(8) 0.31364(7) 0.77507(8)
H7_6 H 0.6023 0.3029 0.7729
C11_6 C 0.61146(7) 0.33189(7) 0.76329(7)
H8_6 H 0.6007 0.3332 0.7532
C12_6 C 0.65890(6) 0.32681(6) 0.80820(6)
C13_6 C 0.68540(6) 0.34257(6) 0.82532(6)
C14_6 C 0.67565(6) 0.30988(6) 0.83423(7)
C15_6 C 0.69838(6) 0.36119(6) 0.82901(6)
C16_6 C 0.69700(7) 0.37903(7) 0.81645(7)
H9_6 H 0.6877 0.3795 0.8049
C17_6 C 0.70943(8) 0.39590(7) 0.82116(8)
H10_6 H 0.7089 0.4082 0.8129
C18_6 C 0.72298(7) 0.39468(7) 0.83839(7)
H11_6 H 0.7315 0.4064 0.8415
C19_6 C 0.71226(6) 0.36152(6) 0.84586(6)
H12_6 H 0.7131 0.3495 0.8544
C20_6 C 0.75064(7) 0.32481(8) 0.87171(9)
C21_6 C 0.76726(7) 0.36159(8) 0.83267(7)
H13_6 H 0.7571 0.3509 0.8340
C22_6 C 0.77852(8) 0.36252(8) 0.81473(8)
H14_6 H 0.7762 0.3527 0.8039
C23_6 C 0.79369(8) 0.37818(8) 0.81239(7)
H15_6 H 0.8017 0.3793 0.8000
C24_6 C 0.79663(7) 0.39202(7) 0.82895(7)
C25_6 C 0.78441(6) 0.39013(6) 0.84666(6)
H16_6 H 0.7864 0.3998 0.8577
C26_6 C 0.81299(7) 0.40834(7) 0.82784(7)
N1_6 N 0.60714(5) 0.36273(5) 0.72544(5)
N2_6 N 0.65915(5) 0.26463(5) 0.86662(5)
N3_6 N 0.62495(5) 0.34752(5) 0.76547(5)
N4_6 N 0.66047(5) 0.30962(5) 0.81987(5)
N5_6 N 0.68884(5) 0.32594(5) 0.83748(6)
N6_6 N 0.67093(5) 0.34389(5) 0.81020(5)
N7_6 N 0.72438(5) 0.37772(5) 0.85058(5)
N8_6 N 0.74876(5) 0.34256(6) 0.87318(5)
N9_6 N 0.76975(5) 0.37511(5) 0.84891(6)
N10_6 N 0.82681(6) 0.40705(6) 0.81257(5)
S1_6 S 0.578027(19) 0.335199(19) 0.708169(19)
S2_6 S 0.75327(3) 0.29973(3) 0.86977(7)
C27_6 C 0.83267(7) 0.48274(7) 0.88841(8)
H17_6 H 0.8340 0.4929 0.8991
C28_6 C 0.81473(8) 0.47148(8) 0.88748(8)
H18_6 H 0.8039 0.4738 0.8973
C29_6 C 0.81239(7) 0.45631(8) 0.87182(8)
H19_6 H 0.8000 0.4483 0.8707
C30_6 C 0.82895(7) 0.45337(7) 0.85798(7)
C31_6 C 0.84666(6) 0.46559(6) 0.85987(6)
H20_6 H 0.8577 0.4636 0.8502
C32_6 C 0.82784(7) 0.43701(7) 0.84166(7)
N11_6 N 0.84891(6) 0.48025(5) 0.87489(5)
N12_6 N 0.81257(5) 0.42319(6) 0.84295(6)
C33_6 C 0.88841(8) 0.41733(7) 0.76726(7)
H21_6 H 0.8991 0.4160 0.7571
C34_6 C 0.88748(8) 0.43527(8) 0.77852(8)
H22_6 H 0.8973 0.4461 0.7762
C35_6 C 0.87182(8) 0.43761(7) 0.79369(8)
H23_6 H 0.8707 0.4500 0.8017
C36_6 C 0.85798(7) 0.42105(7) 0.79663(7)
C37_6 C 0.85987(6) 0.40334(6) 0.78441(6)
H24_6 H 0.8502 0.3923 0.7864
C38_6 C 0.84166(7) 0.42216(7) 0.81299(7)
N13_6 N 0.87489(5) 0.40109(6) 0.76975(5)
N14_6 N 0.84295(6) 0.43743(5) 0.82681(6)
C39_6 C 0.87656(7) 0.57299(7) 0.98987(7)
C40_6 C 0.87348(8) 0.55467(7) 0.97925(8)
H26_6 H 0.8809 0.5424 0.9831
C41_6 C 0.85922(8) 0.55411(8) 0.96263(7)
H27_6 H 0.8570 0.5417 0.9548
C42_6 C 0.84844(7) 0.57252(6) 0.95818(6)
C43_6 C 0.85254(6) 0.59030(6) 0.96997(6)
H28_6 H 0.8450 0.6027 0.9669
C44_6 C 0.77968(6) 0.60963(6) 0.90471(6)
H29_6 H 0.7812 0.5998 0.8938
C45_6 C 0.79210(6) 0.60760(6) 0.92235(6)
C46_6 C 0.78988(7) 0.62227(7) 0.93854(7)
H30_6 H 0.7984 0.6215 0.9507
C47_6 C 0.77507(8) 0.63772(8) 0.93636(7)
H31_6 H 0.7729 0.6477 0.9471
C48_6 C 0.76329(7) 0.63854(7) 0.91811(7)
H32_6 H 0.7532 0.6493 0.9168
C49_6 C 0.80820(6) 0.59110(6) 0.92319(6)
C50_6 C 0.82532(6) 0.56460(6) 0.90743(6)
C51_6 C 0.83423(7) 0.57435(6) 0.94012(6)
C52_6 C 0.82901(6) 0.55162(6) 0.88881(6)
C53_6 C 0.81645(7) 0.55300(7) 0.87097(7)
H33_6 H 0.8049 0.5623 0.8705
C54_6 C 0.82116(8) 0.54057(8) 0.85410(7)
H34_6 H 0.8129 0.5411 0.8418
C55_6 C 0.83839(7) 0.52702(7) 0.85532(7)
H35_6 H 0.8415 0.5185 0.8436
C56_6 C 0.84586(6) 0.53774(6) 0.88848(6)
H36_6 H 0.8544 0.5369 0.9005
C57_6 C 0.87171(9) 0.49936(7) 0.92519(8)
N15_6 N 0.86662(5) 0.59085(5) 0.98537(5)
N16_6 N 0.76547(5) 0.62505(5) 0.90248(5)
N17_6 N 0.81987(5) 0.58953(5) 0.94038(5)
N18_6 N 0.83748(6) 0.56116(5) 0.92406(5)
N19_6 N 0.81020(5) 0.57907(5) 0.90611(5)
N20_6 N 0.85058(5) 0.52562(5) 0.87228(5)
N21_6 N 0.87318(5) 0.50124(5) 0.90744(6)
S3_6 S 0.86977(7) 0.49673(3) 0.95027(3)
C95_6 C 0.67701(7) 0.48987(7) 0.87344(7)
H61_6 H 0.6770 0.5010 0.8637
C96_6 C 0.69533(7) 0.47925(8) 0.87652(8)
H62_6 H 0.7076 0.4831 0.8691
C97_6 C 0.69589(8) 0.46263(7) 0.89078(8)
H63_6 H 0.7083 0.4548 0.8930
C98_6 C 0.67748(6) 0.45818(6) 0.90156(7)
C99_6 C 0.65970(6) 0.46997(6) 0.89746(6)
H64_6 H 0.6473 0.4669 0.9050
C100_6 C 0.64037(6) 0.40471(6) 0.97032(6)
H65_6 H 0.6502 0.3938 0.9688
C101_6 C 0.64240(6) 0.42235(6) 0.95790(6)
C102_6 C 0.62773(7) 0.43854(7) 0.96012(7)
H66_6 H 0.6285 0.4507 0.9516
C103_6 C 0.61228(8) 0.43636(7) 0.97493(8)
H67_6 H 0.6023 0.4471 0.9771
C104_6 C 0.61146(7) 0.41811(7) 0.98671(7)
H68_6 H 0.6007 0.4168 0.9968
C105_6 C 0.65890(6) 0.42319(6) 0.94180(6)
C106_6 C 0.68540(6) 0.40743(6) 0.92468(6)
C107_6 C 0.67565(6) 0.44012(6) 0.91577(7)
C108_6 C 0.69838(6) 0.38881(6) 0.92099(6)
C109_6 C 0.69700(7) 0.37097(7) 0.93355(7)
H69_6 H 0.6877 0.3705 0.9451
C110_6 C 0.70943(8) 0.35410(7) 0.92884(8)
H70_6 H 0.7089 0.3418 0.9371
C111_6 C 0.72298(7) 0.35532(7) 0.91161(7)
H71_6 H 0.7315 0.3436 0.9085
C112_6 C 0.71226(6) 0.38848(6) 0.90414(6)
H72_6 H 0.7131 0.4005 0.8956
C113_6 C 0.75064(7) 0.42519(8) 0.87829(9)
N35_6 N 0.65915(5) 0.48537(5) 0.88338(5)
N36_6 N 0.62495(5) 0.40248(5) 0.98453(5)
N37_6 N 0.66047(5) 0.44038(5) 0.93013(5)
N38_6 N 0.68884(5) 0.42406(5) 0.91252(6)
N39_6 N 0.67093(5) 0.40611(5) 0.93980(5)
N40_6 N 0.72438(5) 0.37228(5) 0.89942(5)
N41_6 N 0.74876(5) 0.40744(6) 0.87682(5)
S5_6 S 0.75327(3) 0.45027(3) 0.88023(7)
C114_6 C 0.87344(7) 0.57299(7) 0.76013(7)
H73_6 H 0.8637 0.5730 0.7490
C115_6 C 0.87652(8) 0.55467(7) 0.77075(8)
H74_6 H 0.8691 0.5424 0.7669
C116_6 C 0.89078(8) 0.55411(8) 0.78737(7)
H75_6 H 0.8930 0.5417 0.7952
C117_6 C 0.90156(7) 0.57252(6) 0.79182(6)
C118_6 C 0.89746(6) 0.59030(6) 0.78003(6)
H76_6 H 0.9050 0.6027 0.7831
C119_6 C 0.97032(6) 0.60963(6) 0.84529(6)
H77_6 H 0.9688 0.5998 0.8562
C120_6 C 0.95790(6) 0.60760(6) 0.82765(6)
C121_6 C 0.96012(7) 0.62227(7) 0.81146(7)
H78_6 H 0.9516 0.6215 0.7993
C122_6 C 0.97493(8) 0.63772(8) 0.81364(7)
H79_6 H 0.9771 0.6477 0.8029
C123_6 C 0.98671(7) 0.63854(7) 0.83189(7)
H80_6 H 0.9968 0.6493 0.8332
C124_6 C 0.94180(6) 0.59110(6) 0.82681(6)
C125_6 C 0.92468(6) 0.56460(6) 0.84257(6)
C126_6 C 0.91577(7) 0.57435(6) 0.80988(6)
C127_6 C 0.92099(6) 0.55162(6) 0.86119(6)
C128_6 C 0.93355(7) 0.55300(7) 0.87903(7)
H81_6 H 0.9451 0.5623 0.8795
C129_6 C 0.92884(8) 0.54057(8) 0.89590(7)
H82_6 H 0.9371 0.5411 0.9082
C130_6 C 0.91161(7) 0.52702(7) 0.89468(7)
H83_6 H 0.9085 0.5185 0.9064
C131_6 C 0.90414(6) 0.53774(6) 0.86152(6)
H84_6 H 0.8956 0.5369 0.8495
C132_6 C 0.87829(9) 0.49936(7) 0.82481(8)
N42_6 N 0.88338(5) 0.59085(5) 0.76463(5)
N43_6 N 0.98453(5) 0.62505(5) 0.84752(5)
N44_6 N 0.93013(5) 0.58953(5) 0.80962(5)
N45_6 N 0.91252(6) 0.56116(5) 0.82594(5)
N46_6 N 0.93980(5) 0.57907(5) 0.84389(5)
N47_6 N 0.89942(5) 0.52562(5) 0.87772(5)
N48_6 N 0.87682(5) 0.50124(5) 0.84256(6)
S6_6 S 0.88023(7) 0.49673(3) 0.79973(3)
C133_6 C 0.62656(7) 0.42701(7) 0.73987(7)
H85_6 H 0.6363 0.4270 0.7510
C134_6 C 0.62348(8) 0.44533(7) 0.72925(8)
H86_6 H 0.6309 0.4576 0.7331
C135_6 C 0.60922(8) 0.44589(8) 0.71263(7)
H87_6 H 0.6070 0.4583 0.7048
C136_6 C 0.59844(7) 0.42748(6) 0.70818(6)
C137_6 C 0.60254(6) 0.40970(6) 0.71997(6)
H88_6 H 0.5950 0.3973 0.7169
C139_6 C 0.52968(6) 0.39037(6) 0.65471(6)
H89_6 H 0.5312 0.4002 0.6438
C140_6 C 0.54210(6) 0.39240(6) 0.67235(6)
C141_6 C 0.53988(7) 0.37773(7) 0.68854(7)
H90_6 H 0.5484 0.3785 0.7007
C142_6 C 0.52507(8) 0.36228(8) 0.68636(7)
H91_6 H 0.5229 0.3523 0.6971
C143_6 C 0.51329(7) 0.36146(7) 0.66811(7)
H92_6 H 0.5032 0.3507 0.6668
C144_6 C 0.55820(6) 0.40890(6) 0.67319(6)
C145_6 C 0.57532(6) 0.43540(6) 0.65743(6)
C146_6 C 0.58423(7) 0.42565(6) 0.69012(6)
C147_6 C 0.57901(6) 0.44838(6) 0.63881(6)
C148_6 C 0.56645(7) 0.44700(7) 0.62097(7)
H93_6 H 0.5549 0.4377 0.6205
C149_6 C 0.57116(8) 0.45943(8) 0.60410(7)
H94_6 H 0.5629 0.4589 0.5918
C150_6 C 0.58839(7) 0.47298(7) 0.60532(7)
H95_6 H 0.5915 0.4815 0.5936
C151_6 C 0.59586(6) 0.46226(6) 0.63848(6)
H96_6 H 0.6044 0.4631 0.6505
N50_6 N 0.61662(5) 0.40915(5) 0.73537(5)
N52_6 N 0.56987(5) 0.41047(5) 0.69038(5)
N53_6 N 0.58748(6) 0.43884(5) 0.67406(5)
N54_6 N 0.56020(5) 0.42093(5) 0.65611(5)
N55_6 N 0.60058(5) 0.47438(5) 0.62228(5)
C152_6 C 0.64882(6) 0.40478(6) 0.78238(6)
N56_6 N 0.63727(5) 0.39286(5) 0.77456(5)
S8_6 S 0.664801(19) 0.421973(19) 0.791831(19)
Co6_8 Co 0.628218(11) 0.2500 0.871782(11)
C155_6 C 0.65478(6) 0.21762(6) 0.89882(6)
N59_6 N 0.64286(5) 0.22544(5) 0.88727(5)
S11_6 S 0.671973(19) 0.208169(19) 0.914801(19)
C156_6 C 0.60118(6) 0.28238(6) 0.84522(6)
N60_6 N 0.61273(5) 0.27456(5) 0.85714(5)
S12_6 S 0.585199(19) 0.291831(19) 0.828027(19)
Co8_8 Co 0.621782(11) 0.371782(11) 1.0000
Co9_7 Co 0.7500 0.628218(11) 0.871782(11)
Co10_8 Co 1.0000 0.628218(11) 0.878218(11)
Co11_8 Co 0.871782(11) 0.621782(11) 1.0000
Co12_7 Co 0.628218(11) 0.5000 0.878218(11)
Co13_8 Co 0.878218(11) 0.621782(11) 0.7500
Co16_6 Co 0.8750 0.3750 0.747883(12)
Co17_6 Co 0.6250 0.497883(12) 0.6250
N62_6 N 0.63338(5) 0.23537(5) 0.84085(5)
N64_6 N 0.59085(5) 0.38338(5) 0.76463(5)
N65_6 N 0.65248(5) 0.37505(5) 0.73453(5)
N66_6 N 0.59752(5) 0.23453(5) 0.87495(5)
N67_6 N 0.62505(5) 0.26547(5) 0.90248(5)
H61_7 H 0.0730 0.0010 0.3863
Co9_8 Co 0.0000 0.128218(11) 0.378218(11)
Co12_8 Co 0.121782(11) 0.0000 0.371782(11)
Co1_9 Co 0.128218(11) 0.878218(11) 0.5000
C1_7 C 0.07299(7) 0.76013(7) 0.37344(7)
H1_7 H 0.0730 0.7490 0.3637
C2_7 C 0.05467(7) 0.77075(8) 0.37652(8)
H2_7 H 0.0424 0.7669 0.3691
C3_7 C 0.05411(8) 0.78737(7) 0.39078(8)
H3_7 H 0.0417 0.7952 0.3930
C4_7 C 0.07252(6) 0.79182(6) 0.40156(7)
C5_7 C 0.09030(6) 0.78003(6) 0.39746(6)
H4_7 H 0.1027 0.7831 0.4050
C6_7 C 0.15478(6) 0.85118(6) 0.53238(6)
C7_7 C 0.10963(6) 0.84529(6) 0.47032(6)
H5_7 H 0.0998 0.8562 0.4688
C8_7 C 0.10760(6) 0.82765(6) 0.45790(6)
C9_7 C 0.12227(7) 0.81146(7) 0.46012(7)
H6_7 H 0.1215 0.7993 0.4516
C10_7 C 0.13772(8) 0.81364(7) 0.47493(8)
H7_7 H 0.1477 0.8029 0.4771
C11_7 C 0.13854(7) 0.83189(7) 0.48671(7)
H8_7 H 0.1493 0.8332 0.4968
C12_7 C 0.09110(6) 0.82681(6) 0.44180(6)
C13_7 C 0.06460(6) 0.84257(6) 0.42468(6)
C14_7 C 0.07435(6) 0.80988(6) 0.41577(7)
C15_7 C 0.05162(6) 0.86119(6) 0.42099(6)
C16_7 C 0.05300(7) 0.87903(7) 0.43355(7)
H9_7 H 0.0623 0.8795 0.4451
C17_7 C 0.04057(8) 0.89590(7) 0.42884(8)
H10_7 H 0.0411 0.9082 0.4371
C18_7 C 0.02702(7) 0.89468(7) 0.41161(7)
H11_7 H 0.0185 0.9064 0.4085
C19_7 C 0.03774(6) 0.86152(6) 0.40414(6)
H12_7 H 0.0369 0.8495 0.3956
N1_7 N 0.14286(5) 0.86273(5) 0.52456(5)
N2_7 N 0.09085(5) 0.76463(5) 0.38338(5)
N3_7 N 0.12505(5) 0.84752(5) 0.48453(5)
N4_7 N 0.08953(5) 0.80962(5) 0.43013(5)
N5_7 N 0.06116(5) 0.82594(5) 0.41252(6)
N6_7 N 0.07907(5) 0.84389(5) 0.43980(5)
N7_7 N 0.02562(5) 0.87772(5) 0.39942(5)
N8_7 N 0.00124(5) 0.84256(6) 0.37682(5)
S1_7 S 0.171973(19) 0.835199(19) 0.541831(19)
C95_7 C 0.07299(7) 0.98987(7) 0.37656(7)
C96_7 C 0.05467(7) 0.97925(8) 0.37348(8)
H62_7 H 0.0424 0.9831 0.3809
C97_7 C 0.05411(8) 0.96263(7) 0.35922(8)
H63_7 H 0.0417 0.9548 0.3570
C98_7 C 0.07252(6) 0.95818(6) 0.34844(7)
C99_7 C 0.09030(6) 0.96997(6) 0.35254(6)
H64_7 H 0.1027 0.9669 0.3450
C100_7 C 0.10963(6) 0.90471(6) 0.27968(6)
H65_7 H 0.0998 0.8938 0.2812
C101_7 C 0.10760(6) 0.92235(6) 0.29210(6)
C102_7 C 0.12227(7) 0.93854(7) 0.28988(7)
H66_7 H 0.1215 0.9507 0.2984
C103_7 C 0.13772(8) 0.93636(7) 0.27507(8)
H67_7 H 0.1477 0.9471 0.2729
C104_7 C 0.13854(7) 0.91811(7) 0.26329(7)
H68_7 H 0.1493 0.9168 0.2532
C105_7 C 0.09110(6) 0.92319(6) 0.30820(6)
C106_7 C 0.06460(6) 0.90743(6) 0.32532(6)
C107_7 C 0.07435(6) 0.94012(6) 0.33423(7)
C108_7 C 0.05162(6) 0.88881(6) 0.32901(6)
C109_7 C 0.05300(7) 0.87097(7) 0.31645(7)
H69_7 H 0.0623 0.8705 0.3049
C110_7 C 0.04057(8) 0.85410(7) 0.32116(8)
H70_7 H 0.0411 0.8418 0.3129
C111_7 C 0.02702(7) 0.85532(7) 0.33839(7)
H71_7 H 0.0185 0.8436 0.3415
C112_7 C 0.03774(6) 0.88848(6) 0.34586(6)
H72_7 H 0.0369 0.9005 0.3544
N35_7 N 0.09085(5) 0.98537(5) 0.36662(5)
N36_7 N 0.12505(5) 0.90248(5) 0.26547(5)
N37_7 N 0.08953(5) 0.94038(5) 0.31987(5)
N38_7 N 0.06116(5) 0.92406(5) 0.33748(6)
N39_7 N 0.07907(5) 0.90611(5) 0.31020(5)
N40_7 N 0.02562(5) 0.87228(5) 0.35058(5)
N41_7 N 0.00124(5) 0.90744(6) 0.37318(5)
C133_7 C 0.12344(7) 0.92701(7) 0.51013(7)
H85_7 H 0.1137 0.9270 0.4990
C134_7 C 0.12652(8) 0.94533(7) 0.52075(8)
H86_7 H 0.1191 0.9576 0.5169
C135_7 C 0.14078(8) 0.94589(8) 0.53737(7)
H87_7 H 0.1430 0.9583 0.5452
C136_7 C 0.15156(7) 0.92748(6) 0.54182(6)
C137_7 C 0.14746(6) 0.90970(6) 0.53003(6)
H88_7 H 0.1550 0.8973 0.5331
C139_7 C 0.22032(6) 0.89037(6) 0.59529(6)
H89_7 H 0.2188 0.9002 0.6062
C140_7 C 0.20790(6) 0.89240(6) 0.57765(6)
C141_7 C 0.21012(7) 0.87773(7) 0.56146(7)
H90_7 H 0.2016 0.8785 0.5493
C142_7 C 0.22493(8) 0.86228(8) 0.56364(7)
H91_7 H 0.2271 0.8523 0.5529
C143_7 C 0.23671(7) 0.86146(7) 0.58189(7)
H92_7 H 0.2468 0.8507 0.5832
C144_7 C 0.19180(6) 0.90890(6) 0.57681(6)
C145_7 C 0.17468(6) 0.93540(6) 0.59257(6)
C146_7 C 0.16577(7) 0.92565(6) 0.55988(6)
C147_7 C 0.17099(6) 0.94838(6) 0.61119(6)
C148_7 C 0.18355(7) 0.94700(7) 0.62903(7)
H93_7 H 0.1951 0.9377 0.6295
C149_7 C 0.17884(8) 0.95943(8) 0.64590(7)
H94_7 H 0.1871 0.9589 0.6582
C150_7 C 0.16161(7) 0.97298(7) 0.64468(7)
H95_7 H 0.1585 0.9815 0.6564
C151_7 C 0.15414(6) 0.96226(6) 0.61152(6)
H96_7 H 0.1456 0.9631 0.5995
N50_7 N 0.13338(5) 0.90915(5) 0.51463(5)
N52_7 N 0.18013(5) 0.91047(5) 0.55962(5)
N53_7 N 0.16252(6) 0.93884(5) 0.57594(5)
N54_7 N 0.18980(5) 0.92093(5) 0.59389(5)
N55_7 N 0.14942(5) 0.97438(5) 0.62772(5)
C152_7 C 0.10118(6) 0.90478(6) 0.46762(6)
N56_7 N 0.11273(5) 0.89286(5) 0.47544(5)
S8_7 S 0.085199(19) 0.921973(19) 0.458169(19)
Co6_9 Co 0.121782(11) 0.7500 0.378218(11)
C155_7 C 0.09522(6) 0.71762(6) 0.35118(6)
N59_7 N 0.10714(5) 0.72544(5) 0.36273(5)
S11_7 S 0.078027(19) 0.708169(19) 0.335199(19)
C156_7 C 0.14882(6) 0.78238(6) 0.40478(6)
N60_7 N 0.13727(5) 0.77456(5) 0.39286(5)
S12_7 S 0.164801(19) 0.791831(19) 0.421973(19)
Co8_9 Co 0.128218(11) 0.871782(11) 0.2500
Co12_9 Co 0.121782(11) 1.0000 0.371782(11)
Co17_7 Co 0.1250 0.997883(12) 0.6250
N62_7 N 0.11662(5) 0.73537(5) 0.40915(5)
N64_7 N 0.15915(5) 0.88338(5) 0.48537(5)
N65_7 N 0.09752(5) 0.87505(5) 0.51547(5)
N66_7 N 0.15248(5) 0.73453(5) 0.37505(5)
N67_7 N 0.12495(5) 0.76547(5) 0.34752(5)
C39_7 C 0.87344(7) 0.07299(7) 0.26013(7)
H25_7 H 0.8637 0.0730 0.2490
C40_7 C 0.87652(8) 0.05467(7) 0.27075(8)
H26_7 H 0.8691 0.0424 0.2669
C41_7 C 0.89078(8) 0.05411(8) 0.28737(7)
H27_7 H 0.8930 0.0417 0.2952
C42_7 C 0.90156(7) 0.07252(6) 0.29182(6)
C43_7 C 0.89746(6) 0.09030(6) 0.28003(6)
H28_7 H 0.9050 0.1027 0.2831
C44_7 C 0.97032(6) 0.10963(6) 0.34529(6)
H29_7 H 0.9688 0.0998 0.3562
C45_7 C 0.95790(6) 0.10760(6) 0.32765(6)
C46_7 C 0.96012(7) 0.12227(7) 0.31146(7)
H30_7 H 0.9516 0.1215 0.2993
C47_7 C 0.97493(8) 0.13772(8) 0.31364(7)
H31_7 H 0.9771 0.1477 0.3029
C48_7 C 0.98671(7) 0.13854(7) 0.33189(7)
H32_7 H 0.9968 0.1493 0.3332
C49_7 C 0.94180(6) 0.09110(6) 0.32681(6)
C50_7 C 0.92468(6) 0.06460(6) 0.34257(6)
C51_7 C 0.91577(7) 0.07435(6) 0.30988(6)
C52_7 C 0.92099(6) 0.05162(6) 0.36119(6)
C53_7 C 0.93355(7) 0.05300(7) 0.37903(7)
H33_7 H 0.9451 0.0623 0.3795
C54_7 C 0.92884(8) 0.04057(8) 0.39590(7)
H34_7 H 0.9371 0.0411 0.4082
C55_7 C 0.91161(7) 0.02702(7) 0.39468(7)
H35_7 H 0.9085 0.0185 0.4064
C56_7 C 0.90414(6) 0.03774(6) 0.36152(6)
H36_7 H 0.8956 0.0369 0.3495
N15_7 N 0.88338(5) 0.09085(5) 0.26463(5)
N16_7 N 0.98453(5) 0.12505(5) 0.34752(5)
N17_7 N 0.93013(5) 0.08953(5) 0.30962(5)
N18_7 N 0.91252(6) 0.06116(5) 0.32594(5)
N19_7 N 0.93980(5) 0.07907(5) 0.34389(5)
N20_7 N 0.89942(5) 0.02562(5) 0.37772(5)
N21_7 N 0.87682(5) 0.00124(5) 0.34256(6)
C114_7 C 0.87656(7) 0.07299(7) 0.48987(7)
H73_7 H 0.8863 0.0730 0.5010
C115_7 C 0.87348(8) 0.05467(7) 0.47925(8)
H74_7 H 0.8809 0.0424 0.4831
C116_7 C 0.85922(8) 0.05411(8) 0.46263(7)
H75_7 H 0.8570 0.0417 0.4548
C117_7 C 0.84844(7) 0.07252(6) 0.45818(6)
C118_7 C 0.85254(6) 0.09030(6) 0.46997(6)
H76_7 H 0.8450 0.1027 0.4669
C119_7 C 0.77968(6) 0.10963(6) 0.40471(6)
H77_7 H 0.7812 0.0998 0.3938
C120_7 C 0.79210(6) 0.10760(6) 0.42235(6)
C121_7 C 0.78988(7) 0.12227(7) 0.43854(7)
H78_7 H 0.7984 0.1215 0.4507
C122_7 C 0.77507(8) 0.13772(8) 0.43636(7)
H79_7 H 0.7729 0.1477 0.4471
C123_7 C 0.76329(7) 0.13854(7) 0.41811(7)
H80_7 H 0.7532 0.1493 0.4168
C124_7 C 0.80820(6) 0.09110(6) 0.42319(6)
C125_7 C 0.82532(6) 0.06460(6) 0.40743(6)
C126_7 C 0.83423(7) 0.07435(6) 0.44012(6)
C127_7 C 0.82901(6) 0.05162(6) 0.38881(6)
C128_7 C 0.81645(7) 0.05300(7) 0.37097(7)
H81_7 H 0.8049 0.0623 0.3705
C129_7 C 0.82116(8) 0.04057(8) 0.35410(7)
H82_7 H 0.8129 0.0411 0.3418
C130_7 C 0.83839(7) 0.02702(7) 0.35532(7)
H83_7 H 0.8415 0.0185 0.3436
C131_7 C 0.84586(6) 0.03774(6) 0.38848(6)
H84_7 H 0.8544 0.0369 0.4005
N42_7 N 0.86662(5) 0.09085(5) 0.48537(5)
N43_7 N 0.76547(5) 0.12505(5) 0.40248(5)
N44_7 N 0.81987(5) 0.08953(5) 0.44038(5)
N45_7 N 0.83748(6) 0.06116(5) 0.42406(5)
N46_7 N 0.81020(5) 0.07907(5) 0.40611(5)
N47_7 N 0.85058(5) 0.02562(5) 0.37228(5)
N48_7 N 0.87318(5) 0.00124(5) 0.40744(6)
Co9_9 Co 1.0000 0.128218(11) 0.378218(11)
Co10_9 Co 0.7500 0.128218(11) 0.371782(11)
Co11_9 Co 0.878218(11) 0.121782(11) 0.2500
Co13_9 Co 0.871782(11) 0.121782(11) 0.5000
C20_7 C 0.99936(7) 0.82481(8) 0.37829(9)
C21_7 C 0.98274(7) 0.86159(8) 0.41733(7)
H13_7 H 0.9929 0.8509 0.4160
C22_7 C 0.97148(8) 0.86252(8) 0.43527(8)
H14_7 H 0.9738 0.8527 0.4461
C23_7 C 0.95631(8) 0.87818(8) 0.43761(7)
H15_7 H 0.9483 0.8793 0.4500
C24_7 C 0.95337(7) 0.89202(7) 0.42105(7)
C25_7 C 0.96559(6) 0.89013(6) 0.40334(6)
H16_7 H 0.9636 0.8998 0.3923
C26_7 C 0.93701(7) 0.90834(7) 0.42216(7)
N9_7 N 0.98025(5) 0.87511(5) 0.40109(6)
N10_7 N 0.92319(6) 0.90705(6) 0.43743(5)
S2_7 S 0.99673(3) 0.79973(3) 0.38023(7)
C27_7 C 0.91733(7) 0.98274(7) 0.36159(8)
H17_7 H 0.9160 0.9929 0.3509
C28_7 C 0.93527(8) 0.97148(8) 0.36252(8)
H18_7 H 0.9461 0.9738 0.3527
C29_7 C 0.93761(7) 0.95631(8) 0.37818(8)
H19_7 H 0.9500 0.9483 0.3793
C30_7 C 0.92105(7) 0.95337(7) 0.39202(7)
C31_7 C 0.90334(6) 0.96559(6) 0.39013(6)
H20_7 H 0.8923 0.9636 0.3998
C32_7 C 0.92216(7) 0.93701(7) 0.40834(7)
N11_7 N 0.90109(6) 0.98025(5) 0.37511(5)
N12_7 N 0.93743(5) 0.92319(6) 0.40705(6)
C33_7 C 0.86159(8) 0.91733(7) 0.48274(7)
H21_7 H 0.8509 0.9160 0.4929
C34_7 C 0.86252(8) 0.93527(8) 0.47148(8)
H22_7 H 0.8527 0.9461 0.4738
C35_7 C 0.87818(8) 0.93761(7) 0.45631(8)
H23_7 H 0.8793 0.9500 0.4483
C36_7 C 0.89202(7) 0.92105(7) 0.45337(7)
C37_7 C 0.89013(6) 0.90334(6) 0.46559(6)
H24_7 H 0.8998 0.8923 0.4636
C38_7 C 0.90834(7) 0.92216(7) 0.43701(7)
N13_7 N 0.87511(5) 0.90109(6) 0.48025(5)
N14_7 N 0.90705(6) 0.93743(5) 0.42319(6)
C57_7 C 0.87829(9) 0.99936(7) 0.32481(8)
S3_7 S 0.88023(7) 0.99673(3) 0.29973(3)
C113_7 C 0.99936(7) 0.92519(8) 0.37171(9)
S5_7 S 0.99673(3) 0.95027(3) 0.36977(7)
C132_7 C 0.87171(9) 0.99936(7) 0.42519(8)
S6_7 S 0.86977(7) 0.99673(3) 0.45027(3)
Co16_7 Co 0.8750 0.8750 0.502117(12)
Co1_10 Co 0.628218(11) 0.371782(11) 0.2500
C1_8 C 0.57299(7) 0.48987(7) 0.37656(7)
H1_8 H 0.5730 0.5010 0.3863
C2_8 C 0.55467(7) 0.47925(8) 0.37348(8)
H2_8 H 0.5424 0.4831 0.3809
C3_8 C 0.55411(8) 0.46263(7) 0.35922(8)
H3_8 H 0.5417 0.4548 0.3570
C4_8 C 0.57252(6) 0.45818(6) 0.34844(7)
C5_8 C 0.59030(6) 0.46997(6) 0.35254(6)
H4_8 H 0.6027 0.4669 0.3450
C6_8 C 0.65478(6) 0.39882(6) 0.21762(6)
C7_8 C 0.60963(6) 0.40471(6) 0.27968(6)
H5_8 H 0.5998 0.3938 0.2812
C8_8 C 0.60760(6) 0.42235(6) 0.29210(6)
C9_8 C 0.62227(7) 0.43854(7) 0.28988(7)
H6_8 H 0.6215 0.4507 0.2984
C10_8 C 0.63772(8) 0.43636(7) 0.27507(8)
H7_8 H 0.6477 0.4471 0.2729
C11_8 C 0.63854(7) 0.41811(7) 0.26329(7)
H8_8 H 0.6493 0.4168 0.2532
C12_8 C 0.59110(6) 0.42319(6) 0.30820(6)
C13_8 C 0.56460(6) 0.40743(6) 0.32532(6)
C14_8 C 0.57435(6) 0.44012(6) 0.33423(7)
C15_8 C 0.55162(6) 0.38881(6) 0.32901(6)
C16_8 C 0.55300(7) 0.37097(7) 0.31645(7)
H9_8 H 0.5623 0.3705 0.3049
C17_8 C 0.54057(8) 0.35410(7) 0.32116(8)
H10_8 H 0.5411 0.3418 0.3129
C18_8 C 0.52702(7) 0.35532(7) 0.33839(7)
H11_8 H 0.5185 0.3436 0.3415
C19_8 C 0.53774(6) 0.38848(6) 0.34586(6)
H12_8 H 0.5369 0.4005 0.3544
C20_8 C 0.49936(7) 0.42519(8) 0.37171(9)
C21_8 C 0.48274(7) 0.38841(8) 0.33267(7)
H13_8 H 0.4929 0.3991 0.3340
C22_8 C 0.47148(8) 0.38748(8) 0.31473(8)
H14_8 H 0.4738 0.3973 0.3039
C23_8 C 0.45631(8) 0.37182(8) 0.31239(7)
H15_8 H 0.4483 0.3707 0.3000
C24_8 C 0.45337(7) 0.35798(7) 0.32895(7)
C25_8 C 0.46559(6) 0.35987(6) 0.34666(6)
H16_8 H 0.4636 0.3502 0.3577
C26_8 C 0.43701(7) 0.34166(7) 0.32784(7)
N1_8 N 0.64286(5) 0.38727(5) 0.22544(5)
N2_8 N 0.59085(5) 0.48537(5) 0.36662(5)
N3_8 N 0.62505(5) 0.40248(5) 0.26547(5)
N4_8 N 0.58953(5) 0.44038(5) 0.31987(5)
N5_8 N 0.56116(5) 0.42406(5) 0.33748(6)
N6_8 N 0.57907(5) 0.40611(5) 0.31020(5)
N7_8 N 0.52562(5) 0.37228(5) 0.35058(5)
N8_8 N 0.50124(5) 0.40744(6) 0.37318(5)
N9_8 N 0.48025(5) 0.37489(5) 0.34891(6)
N10_8 N 0.42319(6) 0.34295(6) 0.31257(5)
S1_8 S 0.671973(19) 0.414801(19) 0.208169(19)
S2_8 S 0.49673(3) 0.45027(3) 0.36977(7)
C27_8 C 0.41733(7) 0.26726(7) 0.38841(8)
H17_8 H 0.4160 0.2571 0.3991
C28_8 C 0.43527(8) 0.27852(8) 0.38748(8)
H18_8 H 0.4461 0.2762 0.3973
C29_8 C 0.43761(7) 0.29369(8) 0.37182(8)
H19_8 H 0.4500 0.3017 0.3707
C30_8 C 0.42105(7) 0.29663(7) 0.35798(7)
C31_8 C 0.40334(6) 0.28441(6) 0.35987(6)
H20_8 H 0.3923 0.2864 0.3502
C32_8 C 0.42216(7) 0.31299(7) 0.34166(7)
N11_8 N 0.40109(6) 0.26975(5) 0.37489(5)
N12_8 N 0.43743(5) 0.32681(6) 0.34295(6)
C33_8 C 0.36159(8) 0.33267(7) 0.26726(7)
H21_8 H 0.3509 0.3340 0.2571
C34_8 C 0.36252(8) 0.31473(8) 0.27852(8)
H22_8 H 0.3527 0.3039 0.2762
C35_8 C 0.37818(8) 0.31239(7) 0.29369(8)
H23_8 H 0.3793 0.3000 0.3017
C36_8 C 0.39202(7) 0.32895(7) 0.29663(7)
C37_8 C 0.39013(6) 0.34666(6) 0.28441(6)
H24_8 H 0.3998 0.3577 0.2864
C38_8 C 0.40834(7) 0.32784(7) 0.31299(7)
N13_8 N 0.37511(5) 0.34891(6) 0.26975(5)
N14_8 N 0.40705(6) 0.31257(5) 0.32681(6)
C39_8 C 0.37344(7) 0.17701(7) 0.48987(7)
H25_8 H 0.3637 0.1770 0.5010
C40_8 C 0.37652(8) 0.19533(7) 0.47925(8)
H26_8 H 0.3691 0.2076 0.4831
C41_8 C 0.39078(8) 0.19589(8) 0.46263(7)
H27_8 H 0.3930 0.2083 0.4548
C42_8 C 0.40156(7) 0.17748(6) 0.45818(6)
C43_8 C 0.39746(6) 0.15970(6) 0.46997(6)
H28_8 H 0.4050 0.1473 0.4669
C44_8 C 0.47032(6) 0.14037(6) 0.40471(6)
H29_8 H 0.4688 0.1502 0.3938
C45_8 C 0.45790(6) 0.14240(6) 0.42235(6)
C46_8 C 0.46012(7) 0.12773(7) 0.43854(7)
H30_8 H 0.4516 0.1285 0.4507
C47_8 C 0.47493(8) 0.11228(8) 0.43636(7)
H31_8 H 0.4771 0.1023 0.4471
C48_8 C 0.48671(7) 0.11146(7) 0.41811(7)
H32_8 H 0.4968 0.1007 0.4168
C49_8 C 0.44180(6) 0.15890(6) 0.42319(6)
C50_8 C 0.42468(6) 0.18540(6) 0.40743(6)
C51_8 C 0.41577(7) 0.17565(6) 0.44012(6)
C52_8 C 0.42099(6) 0.19838(6) 0.38881(6)
C53_8 C 0.43355(7) 0.19700(7) 0.37097(7)
H33_8 H 0.4451 0.1877 0.3705
C54_8 C 0.42884(8) 0.20943(8) 0.35410(7)
H34_8 H 0.4371 0.2089 0.3418
C55_8 C 0.41161(7) 0.22298(7) 0.35532(7)
H35_8 H 0.4085 0.2315 0.3436
C56_8 C 0.40414(6) 0.21226(6) 0.38848(6)
H36_8 H 0.3956 0.2131 0.4005
C57_8 C 0.37829(9) 0.25064(7) 0.42519(8)
N15_8 N 0.38338(5) 0.15915(5) 0.48537(5)
N16_8 N 0.48453(5) 0.12495(5) 0.40248(5)
N17_8 N 0.43013(5) 0.16047(5) 0.44038(5)
N18_8 N 0.41252(6) 0.18884(5) 0.42406(5)
N19_8 N 0.43980(5) 0.17093(5) 0.40611(5)
N20_8 N 0.39942(5) 0.22438(5) 0.37228(5)
N21_8 N 0.37682(5) 0.24876(5) 0.40744(6)
S3_8 S 0.38023(7) 0.25327(3) 0.45027(3)
C95_8 C 0.57299(7) 0.26013(7) 0.37344(7)
H61_8 H 0.5730 0.2490 0.3637
C96_8 C 0.55467(7) 0.27075(8) 0.37652(8)
H62_8 H 0.5424 0.2669 0.3691
C97_8 C 0.55411(8) 0.28737(7) 0.39078(8)
H63_8 H 0.5417 0.2952 0.3930
C98_8 C 0.57252(6) 0.29182(6) 0.40156(7)
C99_8 C 0.59030(6) 0.28003(6) 0.39746(6)
H64_8 H 0.6027 0.2831 0.4050
C100_8 C 0.60963(6) 0.34529(6) 0.47032(6)
H65_8 H 0.5998 0.3562 0.4688
C101_8 C 0.60760(6) 0.32765(6) 0.45790(6)
C102_8 C 0.62227(7) 0.31146(7) 0.46012(7)
H66_8 H 0.6215 0.2993 0.4516
C103_8 C 0.63772(8) 0.31364(7) 0.47493(8)
H67_8 H 0.6477 0.3029 0.4771
C104_8 C 0.63854(7) 0.33189(7) 0.48671(7)
H68_8 H 0.6493 0.3332 0.4968
C105_8 C 0.59110(6) 0.32681(6) 0.44180(6)
C106_8 C 0.56460(6) 0.34257(6) 0.42468(6)
C107_8 C 0.57435(6) 0.30988(6) 0.41577(7)
C108_8 C 0.55162(6) 0.36119(6) 0.42099(6)
C109_8 C 0.55300(7) 0.37903(7) 0.43355(7)
H69_8 H 0.5623 0.3795 0.4451
C110_8 C 0.54057(8) 0.39590(7) 0.42884(8)
H70_8 H 0.5411 0.4082 0.4371
C111_8 C 0.52702(7) 0.39468(7) 0.41161(7)
H71_8 H 0.5185 0.4064 0.4085
C112_8 C 0.53774(6) 0.36152(6) 0.40414(6)
H72_8 H 0.5369 0.3495 0.3956
C113_8 C 0.49936(7) 0.32481(8) 0.37829(9)
N35_8 N 0.59085(5) 0.26463(5) 0.38338(5)
N36_8 N 0.62505(5) 0.34752(5) 0.48453(5)
N37_8 N 0.58953(5) 0.30962(5) 0.43013(5)
N38_8 N 0.56116(5) 0.32594(5) 0.41252(6)
N39_8 N 0.57907(5) 0.34389(5) 0.43980(5)
N40_8 N 0.52562(5) 0.37772(5) 0.39942(5)
N41_8 N 0.50124(5) 0.34256(6) 0.37682(5)
S5_8 S 0.49673(3) 0.29973(3) 0.38023(7)
C114_8 C 0.37656(7) 0.17701(7) 0.26013(7)
H73_8 H 0.3863 0.1770 0.2490
C115_8 C 0.37348(8) 0.19533(7) 0.27075(8)
H74_8 H 0.3809 0.2076 0.2669
C116_8 C 0.35922(8) 0.19589(8) 0.28737(7)
H75_8 H 0.3570 0.2083 0.2952
C117_8 C 0.34844(7) 0.17748(6) 0.29182(6)
C118_8 C 0.35254(6) 0.15970(6) 0.28003(6)
H76_8 H 0.3450 0.1473 0.2831
C119_8 C 0.27968(6) 0.14037(6) 0.34529(6)
H77_8 H 0.2812 0.1502 0.3562
C120_8 C 0.29210(6) 0.14240(6) 0.32765(6)
C121_8 C 0.28988(7) 0.12773(7) 0.31146(7)
H78_8 H 0.2984 0.1285 0.2993
C122_8 C 0.27507(8) 0.11228(8) 0.31364(7)
H79_8 H 0.2729 0.1023 0.3029
C123_8 C 0.26329(7) 0.11146(7) 0.33189(7)
H80_8 H 0.2532 0.1007 0.3332
C124_8 C 0.30820(6) 0.15890(6) 0.32681(6)
C125_8 C 0.32532(6) 0.18540(6) 0.34257(6)
C126_8 C 0.33423(7) 0.17565(6) 0.30988(6)
C127_8 C 0.32901(6) 0.19838(6) 0.36119(6)
C128_8 C 0.31645(7) 0.19700(7) 0.37903(7)
H81_8 H 0.3049 0.1877 0.3795
C129_8 C 0.32116(8) 0.20943(8) 0.39590(7)
H82_8 H 0.3129 0.2089 0.4082
C130_8 C 0.33839(7) 0.22298(7) 0.39468(7)
H83_8 H 0.3415 0.2315 0.4064
C131_8 C 0.34586(6) 0.21226(6) 0.36152(6)
H84_8 H 0.3544 0.2131 0.3495
C132_8 C 0.37171(9) 0.25064(7) 0.32481(8)
N42_8 N 0.36662(5) 0.15915(5) 0.26463(5)
N43_8 N 0.26547(5) 0.12495(5) 0.34752(5)
N44_8 N 0.31987(5) 0.16047(5) 0.30962(5)
N45_8 N 0.33748(6) 0.18884(5) 0.32594(5)
N46_8 N 0.31020(5) 0.17093(5) 0.34389(5)
N47_8 N 0.35058(5) 0.22438(5) 0.37772(5)
N48_8 N 0.37318(5) 0.24876(5) 0.34256(6)
S6_8 S 0.36977(7) 0.25327(3) 0.29973(3)
C133_8 C 0.62344(7) 0.32299(7) 0.23987(7)
H85_8 H 0.6137 0.3230 0.2510
C134_8 C 0.62652(8) 0.30467(7) 0.22925(8)
H86_8 H 0.6191 0.2924 0.2331
C135_8 C 0.64078(8) 0.30411(8) 0.21263(7)
H87_8 H 0.6430 0.2917 0.2048
C136_8 C 0.65156(7) 0.32252(6) 0.20818(6)
C137_8 C 0.64746(6) 0.34030(6) 0.21997(6)
H88_8 H 0.6550 0.3527 0.2169
C139_8 C 0.72032(6) 0.35963(6) 0.15471(6)
H89_8 H 0.7188 0.3498 0.1438
C140_8 C 0.70790(6) 0.35760(6) 0.17235(6)
C141_8 C 0.71012(7) 0.37227(7) 0.18854(7)
H90_8 H 0.7016 0.3715 0.2007
C142_8 C 0.72493(8) 0.38772(8) 0.18636(7)
H91_8 H 0.7271 0.3977 0.1971
C143_8 C 0.73671(7) 0.38854(7) 0.16811(7)
H92_8 H 0.7468 0.3993 0.1668
C144_8 C 0.69180(6) 0.34110(6) 0.17319(6)
C145_8 C 0.67468(6) 0.31460(6) 0.15743(6)
C146_8 C 0.66577(7) 0.32435(6) 0.19012(6)
C147_8 C 0.67099(6) 0.30162(6) 0.13881(6)
C148_8 C 0.68355(7) 0.30300(7) 0.12097(7)
H93_8 H 0.6951 0.3123 0.1205
C149_8 C 0.67884(8) 0.29057(8) 0.10410(7)
H94_8 H 0.6871 0.2911 0.0918
C150_8 C 0.66161(7) 0.27702(7) 0.10532(7)
H95_8 H 0.6585 0.2685 0.0936
C151_8 C 0.65414(6) 0.28774(6) 0.13848(6)
H96_8 H 0.6456 0.2869 0.1505
N50_8 N 0.63338(5) 0.34085(5) 0.23537(5)
N52_8 N 0.68013(5) 0.33953(5) 0.19038(5)
N53_8 N 0.66252(6) 0.31116(5) 0.17406(5)
N54_8 N 0.68980(5) 0.32907(5) 0.15611(5)
N55_8 N 0.64942(5) 0.27562(5) 0.12228(5)
C152_8 C 0.60118(6) 0.34522(6) 0.28238(6)
N56_8 N 0.61273(5) 0.35714(5) 0.27456(5)
S8_8 S 0.585199(19) 0.328027(19) 0.291831(19)
Co6_10 Co 0.621782(11) 0.5000 0.371782(11)
C155_8 C 0.59522(6) 0.53238(6) 0.39882(6)
N59_8 N 0.60714(5) 0.52456(5) 0.38727(5)
S11_8 S 0.578027(19) 0.541831(19) 0.414801(19)
C156_8 C 0.64882(6) 0.46762(6) 0.34522(6)
N60_8 N 0.63727(5) 0.47544(5) 0.35714(5)
S12_8 S 0.664801(19) 0.458169(19) 0.328027(19)
Co8_10 Co 0.628218(11) 0.378218(11) 0.5000
Co9_10 Co 0.5000 0.121782(11) 0.371782(11)
Co10_10 Co 0.2500 0.121782(11) 0.378218(11)
Co11_10 Co 0.378218(11) 0.128218(11) 0.5000
Co12_10 Co 0.621782(11) 0.2500 0.378218(11)
Co13_10 Co 0.371782(11) 0.128218(11) 0.2500
Co16_8 Co 0.3750 0.3750 0.247883(12)
Co17_8 Co 0.6250 0.252117(12) 0.1250
N62_8 N 0.61662(5) 0.51463(5) 0.34085(5)
N64_8 N 0.65915(5) 0.36662(5) 0.26463(5)
N65_8 N 0.59752(5) 0.37495(5) 0.23453(5)
N66_8 N 0.65248(5) 0.51547(5) 0.37495(5)
N67_8 N 0.62495(5) 0.48453(5) 0.40248(5)
Co1_11 Co -0.0000 0.121782(11) 0.871782(11)
C6_9 C 0.03238(6) 0.09522(6) 0.89882(6)
N1_9 N 0.02456(5) 0.10714(5) 0.88727(5)
S1_9 S 0.041831(19) 0.078027(19) 0.914801(19)
H73_9 H 0.0010 0.3637 0.6770
C133_9 C 0.01013(7) 0.12656(7) 0.82299(7)
C134_9 C 0.02075(8) 0.12348(8) 0.80467(7)
H86_9 H 0.0169 0.1309 0.7924
C135_9 C 0.03737(7) 0.10922(8) 0.80411(8)
H87_9 H 0.0452 0.1070 0.7917
C136_9 C 0.04182(6) 0.09844(7) 0.82252(6)
C137_9 C 0.03003(6) 0.10254(6) 0.84030(6)
H88_9 H 0.0331 0.0950 0.8527
C139_9 C 0.09529(6) 0.02968(6) 0.85963(6)
H89_9 H 0.1062 0.0312 0.8498
C140_9 C 0.07765(6) 0.04210(6) 0.85760(6)
C141_9 C 0.06146(7) 0.03988(7) 0.87227(7)
H90_9 H 0.0493 0.0484 0.8715
C142_9 C 0.06364(7) 0.02507(8) 0.88772(8)
H91_9 H 0.0529 0.0229 0.8977
C143_9 C 0.08189(7) 0.01329(7) 0.88854(7)
H92_9 H 0.0832 0.0032 0.8993
C144_9 C 0.07681(6) 0.05820(6) 0.84110(6)
C145_9 C 0.09257(6) 0.07532(6) 0.81460(6)
C146_9 C 0.05988(6) 0.08423(7) 0.82435(6)
C147_9 C 0.11119(6) 0.07901(6) 0.80162(6)
C148_9 C 0.12903(7) 0.06645(7) 0.80300(7)
H93_9 H 0.1295 0.0549 0.8123
C149_9 C 0.14590(7) 0.07116(8) 0.79057(8)
H94_9 H 0.1582 0.0629 0.7911
C150_9 C 0.14468(7) 0.08839(7) 0.77702(7)
H95_9 H 0.1564 0.0915 0.7685
C151_9 C 0.11152(6) 0.09586(6) 0.78774(6)
H96_9 H 0.0995 0.1044 0.7869
N50_9 N 0.01463(5) 0.11662(5) 0.84085(5)
N52_9 N 0.05962(5) 0.06987(5) 0.83953(5)
N53_9 N 0.07594(5) 0.08748(6) 0.81116(5)
N54_9 N 0.09389(5) 0.06020(5) 0.82907(5)
N55_9 N 0.12772(5) 0.10058(5) 0.77562(5)
Co13_11 Co -0.0000 0.378218(11) 0.628218(11)
Co17_9 Co 0.1250 0.1250 0.752117(12)
N65_9 N 0.01547(5) 0.15248(5) 0.87495(5)
H1_9 H 0.8637 0.1770 0.0010
Co1_12 Co 1.0000 0.121782(11) 0.871782(11)
C1_9 C 0.87344(7) 0.17701(7) 0.98987(7)
C2_9 C 0.87652(8) 0.19533(7) 0.97925(8)
H2_9 H 0.8691 0.2076 0.9831
C3_9 C 0.89078(8) 0.19589(8) 0.96263(7)
H3_9 H 0.8930 0.2083 0.9548
C4_9 C 0.90156(7) 0.17748(6) 0.95818(6)
C5_9 C 0.89746(6) 0.15970(6) 0.96997(6)
H4_9 H 0.9050 0.1473 0.9669
C7_9 C 0.97032(6) 0.14037(6) 0.90471(6)
H5_9 H 0.9688 0.1502 0.8938
C8_9 C 0.95790(6) 0.14240(6) 0.92235(6)
C9_9 C 0.96012(7) 0.12773(7) 0.93854(7)
H6_9 H 0.9516 0.1285 0.9507
C10_9 C 0.97493(8) 0.11228(8) 0.93636(7)
H7_9 H 0.9771 0.1023 0.9471
C11_9 C 0.98671(7) 0.11146(7) 0.91811(7)
H8_9 H 0.9968 0.1007 0.9168
C12_9 C 0.94180(6) 0.15890(6) 0.92319(6)
C13_9 C 0.92468(6) 0.18540(6) 0.90743(6)
C14_9 C 0.91577(7) 0.17565(6) 0.94012(6)
C15_9 C 0.92099(6) 0.19838(6) 0.88881(6)
C16_9 C 0.93355(7) 0.19700(7) 0.87097(7)
H9_9 H 0.9451 0.1877 0.8705
C17_9 C 0.92884(8) 0.20943(8) 0.85410(7)
H10_9 H 0.9371 0.2089 0.8418
C18_9 C 0.91161(7) 0.22298(7) 0.85532(7)
H11_9 H 0.9085 0.2315 0.8436
C19_9 C 0.90414(6) 0.21226(6) 0.88848(6)
H12_9 H 0.8956 0.2131 0.9005
C21_9 C 0.91733(7) 0.26726(7) 0.88841(8)
H13_9 H 0.9160 0.2571 0.8991
C22_9 C 0.93527(8) 0.27852(8) 0.88748(8)
H14_9 H 0.9461 0.2762 0.8973
C23_9 C 0.93761(7) 0.29369(8) 0.87182(8)
H15_9 H 0.9500 0.3017 0.8707
C24_9 C 0.92105(7) 0.29663(7) 0.85798(7)
C25_9 C 0.90334(6) 0.28441(6) 0.85987(6)
H16_9 H 0.8923 0.2864 0.8502
C26_9 C 0.92216(7) 0.31299(7) 0.84166(7)
N3_9 N 0.98453(5) 0.12495(5) 0.90248(5)
N4_9 N 0.93013(5) 0.16047(5) 0.94038(5)
N5_9 N 0.91252(6) 0.18884(5) 0.92406(5)
N6_9 N 0.93980(5) 0.17093(5) 0.90611(5)
N10_9 N 0.93743(5) 0.32681(6) 0.84295(6)
C27_9 C 0.86159(8) 0.33267(7) 0.76726(7)
H17_9 H 0.8509 0.3340 0.7571
C28_9 C 0.86252(8) 0.31473(8) 0.77852(8)
H18_9 H 0.8527 0.3039 0.7762
C29_9 C 0.87818(8) 0.31239(7) 0.79369(8)
H19_9 H 0.8793 0.3000 0.8017
C30_9 C 0.89202(7) 0.32895(7) 0.79663(7)
C31_9 C 0.89013(6) 0.34666(6) 0.78441(6)
H20_9 H 0.8998 0.3577 0.7864
C32_9 C 0.90834(7) 0.32784(7) 0.81299(7)
N11_9 N 0.87511(5) 0.34891(6) 0.76975(5)
N12_9 N 0.90705(6) 0.31257(5) 0.82681(6)
C33_9 C 0.98274(7) 0.38841(8) 0.83267(7)
H21_9 H 0.9929 0.3991 0.8340
C34_9 C 0.97148(8) 0.38748(8) 0.81473(8)
H22_9 H 0.9738 0.3973 0.8039
C35_9 C 0.95631(8) 0.37182(8) 0.81239(7)
H23_9 H 0.9483 0.3707 0.8000
C36_9 C 0.95337(7) 0.35798(7) 0.82895(7)
C37_9 C 0.96559(6) 0.35987(6) 0.84666(6)
H24_9 H 0.9636 0.3502 0.8577
C38_9 C 0.93701(7) 0.34166(7) 0.82784(7)
N14_9 N 0.92319(6) 0.34295(6) 0.81257(5)
C39_9 C 0.76013(7) 0.37656(7) 0.67701(7)
H25_9 H 0.7490 0.3863 0.6770
C40_9 C 0.77075(8) 0.37348(8) 0.69533(7)
H26_9 H 0.7669 0.3809 0.7076
C41_9 C 0.78737(7) 0.35922(8) 0.69589(8)
H27_9 H 0.7952 0.3570 0.7083
C42_9 C 0.79182(6) 0.34844(7) 0.67748(6)
C43_9 C 0.78003(6) 0.35254(6) 0.65970(6)
H28_9 H 0.7831 0.3450 0.6473
C44_9 C 0.84529(6) 0.27968(6) 0.64037(6)
H29_9 H 0.8562 0.2812 0.6502
C45_9 C 0.82765(6) 0.29210(6) 0.64240(6)
C46_9 C 0.81146(7) 0.28988(7) 0.62773(7)
H30_9 H 0.7993 0.2984 0.6285
C47_9 C 0.81364(7) 0.27507(8) 0.61228(8)
H31_9 H 0.8029 0.2729 0.6023
C48_9 C 0.83189(7) 0.26329(7) 0.61146(7)
H32_9 H 0.8332 0.2532 0.6007
C49_9 C 0.82681(6) 0.30820(6) 0.65890(6)
C50_9 C 0.84257(6) 0.32532(6) 0.68540(6)
C51_9 C 0.80988(6) 0.33423(7) 0.67565(6)
C52_9 C 0.86119(6) 0.32901(6) 0.69838(6)
C53_9 C 0.87903(7) 0.31645(7) 0.69700(7)
H33_9 H 0.8795 0.3049 0.6877
C54_9 C 0.89590(7) 0.32116(8) 0.70943(8)
H34_9 H 0.9082 0.3129 0.7089
C55_9 C 0.89468(7) 0.33839(7) 0.72298(7)
H35_9 H 0.9064 0.3415 0.7315
C56_9 C 0.86152(6) 0.34586(6) 0.71226(6)
H36_9 H 0.8495 0.3544 0.7131
C57_9 C 0.82481(8) 0.37171(9) 0.75064(7)
N15_9 N 0.76463(5) 0.36662(5) 0.65915(5)
N16_9 N 0.84752(5) 0.26547(5) 0.62495(5)
N17_9 N 0.80962(5) 0.31987(5) 0.66047(5)
N18_9 N 0.82594(5) 0.33748(6) 0.68884(5)
N19_9 N 0.84389(5) 0.31020(5) 0.67093(5)
N20_9 N 0.87772(5) 0.35058(5) 0.72438(5)
N21_9 N 0.84256(6) 0.37318(5) 0.74876(5)
S3_9 S 0.79973(3) 0.36977(7) 0.75327(3)
C114_9 C 0.98987(7) 0.37344(7) 0.67701(7)
C115_9 C 0.97925(8) 0.37652(8) 0.69533(7)
H74_9 H 0.9831 0.3691 0.7076
C116_9 C 0.96263(7) 0.39078(8) 0.69589(8)
H75_9 H 0.9548 0.3930 0.7083
C117_9 C 0.95818(6) 0.40156(7) 0.67748(6)
C118_9 C 0.96997(6) 0.39746(6) 0.65970(6)
H76_9 H 0.9669 0.4050 0.6473
C119_9 C 0.90471(6) 0.47032(6) 0.64037(6)
H77_9 H 0.8938 0.4688 0.6502
C120_9 C 0.92235(6) 0.45790(6) 0.64240(6)
C121_9 C 0.93854(7) 0.46012(7) 0.62773(7)
H78_9 H 0.9507 0.4516 0.6285
C122_9 C 0.93636(7) 0.47493(8) 0.61228(8)
H79_9 H 0.9471 0.4771 0.6023
C123_9 C 0.91811(7) 0.48671(7) 0.61146(7)
H80_9 H 0.9168 0.4968 0.6007
C124_9 C 0.92319(6) 0.44180(6) 0.65890(6)
C125_9 C 0.90743(6) 0.42468(6) 0.68540(6)
C126_9 C 0.94012(6) 0.41577(7) 0.67565(6)
C127_9 C 0.88881(6) 0.42099(6) 0.69838(6)
C128_9 C 0.87097(7) 0.43355(7) 0.69700(7)
H81_9 H 0.8705 0.4451 0.6877
C129_9 C 0.85410(7) 0.42884(8) 0.70943(8)
H82_9 H 0.8418 0.4371 0.7089
C130_9 C 0.85532(7) 0.41161(7) 0.72298(7)
H83_9 H 0.8436 0.4085 0.7315
C131_9 C 0.88848(6) 0.40414(6) 0.71226(6)
H84_9 H 0.9005 0.3956 0.7131
C132_9 C 0.92519(8) 0.37829(9) 0.75064(7)
N42_9 N 0.98537(5) 0.38338(5) 0.65915(5)
N43_9 N 0.90248(5) 0.48453(5) 0.62495(5)
N44_9 N 0.94038(5) 0.43013(5) 0.66047(5)
N45_9 N 0.92406(5) 0.41252(6) 0.68884(5)
N46_9 N 0.90611(5) 0.43980(5) 0.67093(5)
N47_9 N 0.87228(5) 0.39942(5) 0.72438(5)
N48_9 N 0.90744(6) 0.37682(5) 0.74876(5)
S6_9 S 0.95027(3) 0.38023(7) 0.75327(3)
H85_9 H 0.9990 0.1363 0.8230
C152_9 C 0.96762(6) 0.14882(6) 0.84522(6)
N56_9 N 0.97544(5) 0.13727(5) 0.85714(5)
S8_9 S 0.958169(19) 0.164801(19) 0.828027(19)
Co9_11 Co 0.878218(11) 0.2500 0.621782(11)
Co10_11 Co 0.871782(11) 0.5000 0.621782(11)
Co11_11 Co 0.7500 0.371782(11) 0.628218(11)
Co13_12 Co 1.0000 0.378218(11) 0.628218(11)
N64_9 N 0.98537(5) 0.09085(5) 0.86662(5)
H25_10 H 0.0010 0.8863 0.5730
Co11_12 Co -0.0000 0.871782(11) 0.621782(11)
Co10_12 Co 0.878218(11) -0.0000 0.628218(11)
Co1_13 Co 0.7500 0.621782(11) 0.378218(11)
C1_10 C 0.87656(7) 0.67701(7) 0.26013(7)
H1_10 H 0.8863 0.6770 0.2490
C2_10 C 0.87348(8) 0.69533(7) 0.27075(8)
H2_10 H 0.8809 0.7076 0.2669
C3_10 C 0.85922(8) 0.69589(8) 0.28737(7)
H3_10 H 0.8570 0.7083 0.2952
C4_10 C 0.84844(7) 0.67748(6) 0.29182(6)
C5_10 C 0.85254(6) 0.65970(6) 0.28003(6)
H4_10 H 0.8450 0.6473 0.2831
C6_10 C 0.71762(6) 0.59522(6) 0.35118(6)
C7_10 C 0.77968(6) 0.64037(6) 0.34529(6)
H5_10 H 0.7812 0.6502 0.3562
C8_10 C 0.79210(6) 0.64240(6) 0.32765(6)
C9_10 C 0.78988(7) 0.62773(7) 0.31146(7)
H6_10 H 0.7984 0.6285 0.2993
C10_10 C 0.77507(8) 0.61228(8) 0.31364(7)
H7_10 H 0.7729 0.6023 0.3029
C11_10 C 0.76329(7) 0.61146(7) 0.33189(7)
H8_10 H 0.7532 0.6007 0.3332
C12_10 C 0.80820(6) 0.65890(6) 0.32681(6)
C13_10 C 0.82532(6) 0.68540(6) 0.34257(6)
C14_10 C 0.83423(7) 0.67565(6) 0.30988(6)
C15_10 C 0.82901(6) 0.69838(6) 0.36119(6)
C16_10 C 0.81645(7) 0.69700(7) 0.37903(7)
H9_10 H 0.8049 0.6877 0.3795
C17_10 C 0.82116(8) 0.70943(8) 0.39590(7)
H10_10 H 0.8129 0.7089 0.4082
C18_10 C 0.83839(7) 0.72298(7) 0.39468(7)
H11_10 H 0.8415 0.7315 0.4064
C19_10 C 0.84586(6) 0.71226(6) 0.36152(6)
H12_10 H 0.8544 0.7131 0.3495
C21_10 C 0.83267(7) 0.76726(7) 0.36159(8)
H13_10 H 0.8340 0.7571 0.3509
C22_10 C 0.81473(8) 0.77852(8) 0.36252(8)
H14_10 H 0.8039 0.7762 0.3527
C23_10 C 0.81239(7) 0.79369(8) 0.37818(8)
H15_10 H 0.8000 0.8017 0.3793
C24_10 C 0.82895(7) 0.79663(7) 0.39202(7)
C25_10 C 0.84666(6) 0.78441(6) 0.39013(6)
H16_10 H 0.8577 0.7864 0.3998
C26_10 C 0.82784(7) 0.81299(7) 0.40834(7)
N1_10 N 0.72544(5) 0.60714(5) 0.36273(5)
N3_10 N 0.76547(5) 0.62495(5) 0.34752(5)
N4_10 N 0.81987(5) 0.66047(5) 0.30962(5)
N5_10 N 0.83748(6) 0.68884(5) 0.32594(5)
N6_10 N 0.81020(5) 0.67093(5) 0.34389(5)
N10_10 N 0.81257(5) 0.82681(6) 0.40705(6)
S1_10 S 0.708169(19) 0.578027(19) 0.335199(19)
C27_10 C 0.88841(8) 0.83267(7) 0.48274(7)
H17_10 H 0.8991 0.8340 0.4929
C28_10 C 0.88748(8) 0.81473(8) 0.47148(8)
H18_10 H 0.8973 0.8039 0.4738
C29_10 C 0.87182(8) 0.81239(7) 0.45631(8)
H19_10 H 0.8707 0.8000 0.4483
C30_10 C 0.85798(7) 0.82895(7) 0.45337(7)
C31_10 C 0.85987(6) 0.84666(6) 0.46559(6)
H20_10 H 0.8502 0.8577 0.4636
C32_10 C 0.84166(7) 0.82784(7) 0.43701(7)
N11_10 N 0.87489(5) 0.84891(6) 0.48025(5)
N12_10 N 0.84295(6) 0.81257(5) 0.42319(6)
C33_10 C 0.76726(7) 0.88841(8) 0.41733(7)
H21_10 H 0.7571 0.8991 0.4160
C34_10 C 0.77852(8) 0.88748(8) 0.43527(8)
H22_10 H 0.7762 0.8973 0.4461
C35_10 C 0.79369(8) 0.87182(8) 0.43761(7)
H23_10 H 0.8017 0.8707 0.4500
C36_10 C 0.79663(7) 0.85798(7) 0.42105(7)
C37_10 C 0.78441(6) 0.85987(6) 0.40334(6)
H24_10 H 0.7864 0.8502 0.3923
C38_10 C 0.81299(7) 0.84166(7) 0.42216(7)
N14_10 N 0.82681(6) 0.84295(6) 0.43743(5)
C39_10 C 0.98987(7) 0.87656(7) 0.57299(7)
C40_10 C 0.97925(8) 0.87348(8) 0.55467(7)
H26_10 H 0.9831 0.8809 0.5424
C41_10 C 0.96263(7) 0.85922(8) 0.55411(8)
H27_10 H 0.9548 0.8570 0.5417
C42_10 C 0.95818(6) 0.84844(7) 0.57252(6)
C43_10 C 0.96997(6) 0.85254(6) 0.59030(6)
H28_10 H 0.9669 0.8450 0.6027
C44_10 C 0.90471(6) 0.77968(6) 0.60963(6)
H29_10 H 0.8938 0.7812 0.5998
C45_10 C 0.92235(6) 0.79210(6) 0.60760(6)
C46_10 C 0.93854(7) 0.78988(7) 0.62227(7)
H30_10 H 0.9507 0.7984 0.6215
C47_10 C 0.93636(7) 0.77507(8) 0.63772(8)
H31_10 H 0.9471 0.7729 0.6477
C48_10 C 0.91811(7) 0.76329(7) 0.63854(7)
H32_10 H 0.9168 0.7532 0.6493
C49_10 C 0.92319(6) 0.80820(6) 0.59110(6)
C50_10 C 0.90743(6) 0.82532(6) 0.56460(6)
C51_10 C 0.94012(6) 0.83423(7) 0.57435(6)
C52_10 C 0.88881(6) 0.82901(6) 0.55162(6)
C53_10 C 0.87097(7) 0.81645(7) 0.55300(7)
H33_10 H 0.8705 0.8049 0.5623
C54_10 C 0.85410(7) 0.82116(8) 0.54057(8)
H34_10 H 0.8418 0.8129 0.5411
C55_10 C 0.85532(7) 0.83839(7) 0.52702(7)
H35_10 H 0.8436 0.8415 0.5185
C56_10 C 0.88848(6) 0.84586(6) 0.53774(6)
H36_10 H 0.9005 0.8544 0.5369
C57_10 C 0.92519(8) 0.87171(9) 0.49936(7)
N15_10 N 0.98537(5) 0.86662(5) 0.59085(5)
N16_10 N 0.90248(5) 0.76547(5) 0.62505(5)
N17_10 N 0.94038(5) 0.81987(5) 0.58953(5)
N18_10 N 0.92406(5) 0.83748(6) 0.56116(5)
N19_10 N 0.90611(5) 0.81020(5) 0.57907(5)
N20_10 N 0.87228(5) 0.85058(5) 0.52562(5)
N21_10 N 0.90744(6) 0.87318(5) 0.50124(5)
S3_10 S 0.95027(3) 0.86977(7) 0.49673(3)
C114_10 C 0.76013(7) 0.87344(7) 0.57299(7)
H73_10 H 0.7490 0.8637 0.5730
C115_10 C 0.77075(8) 0.87652(8) 0.55467(7)
H74_10 H 0.7669 0.8691 0.5424
C116_10 C 0.78737(7) 0.89078(8) 0.55411(8)
H75_10 H 0.7952 0.8930 0.5417
C117_10 C 0.79182(6) 0.90156(7) 0.57252(6)
C118_10 C 0.78003(6) 0.89746(6) 0.59030(6)
H76_10 H 0.7831 0.9050 0.6027
C119_10 C 0.84529(6) 0.97032(6) 0.60963(6)
H77_10 H 0.8562 0.9688 0.5998
C120_10 C 0.82765(6) 0.95790(6) 0.60760(6)
C121_10 C 0.81146(7) 0.96012(7) 0.62227(7)
H78_10 H 0.7993 0.9516 0.6215
C122_10 C 0.81364(7) 0.97493(8) 0.63772(8)
H79_10 H 0.8029 0.9771 0.6477
C123_10 C 0.83189(7) 0.98671(7) 0.63854(7)
H80_10 H 0.8332 0.9968 0.6493
C124_10 C 0.82681(6) 0.94180(6) 0.59110(6)
C125_10 C 0.84257(6) 0.92468(6) 0.56460(6)
C126_10 C 0.80988(6) 0.91577(7) 0.57435(6)
C127_10 C 0.86119(6) 0.92099(6) 0.55162(6)
C128_10 C 0.87903(7) 0.93355(7) 0.55300(7)
H81_10 H 0.8795 0.9451 0.5623
C129_10 C 0.89590(7) 0.92884(8) 0.54057(8)
H82_10 H 0.9082 0.9371 0.5411
C130_10 C 0.89468(7) 0.91161(7) 0.52702(7)
H83_10 H 0.9064 0.9085 0.5185
C131_10 C 0.86152(6) 0.90414(6) 0.53774(6)
H84_10 H 0.8495 0.8956 0.5369
C132_10 C 0.82481(8) 0.87829(9) 0.49936(7)
N42_10 N 0.76463(5) 0.88338(5) 0.59085(5)
N43_10 N 0.84752(5) 0.98453(5) 0.62505(5)
N44_10 N 0.80962(5) 0.93013(5) 0.58953(5)
N45_10 N 0.82594(5) 0.91252(6) 0.56116(5)
N46_10 N 0.84389(5) 0.93980(5) 0.57907(5)
N47_10 N 0.87772(5) 0.89942(5) 0.52562(5)
N48_10 N 0.84256(6) 0.87682(5) 0.50124(5)
S6_10 S 0.79973(3) 0.88023(7) 0.49673(3)
C133_10 C 0.73987(7) 0.62656(7) 0.42701(7)
H85_10 H 0.7510 0.6363 0.4270
C134_10 C 0.72925(8) 0.62348(8) 0.44533(7)
H86_10 H 0.7331 0.6309 0.4576
C135_10 C 0.71263(7) 0.60922(8) 0.44589(8)
H87_10 H 0.7048 0.6070 0.4583
C136_10 C 0.70818(6) 0.59844(7) 0.42748(6)
C137_10 C 0.71997(6) 0.60254(6) 0.40970(6)
H88_10 H 0.7169 0.5950 0.3973
C139_10 C 0.65471(6) 0.52968(6) 0.39037(6)
H89_10 H 0.6438 0.5312 0.4002
C140_10 C 0.67235(6) 0.54210(6) 0.39240(6)
C141_10 C 0.68854(7) 0.53988(7) 0.37773(7)
H90_10 H 0.7007 0.5484 0.3785
C142_10 C 0.68636(7) 0.52507(8) 0.36228(8)
H91_10 H 0.6971 0.5229 0.3523
C143_10 C 0.66811(7) 0.51329(7) 0.36146(7)
H92_10 H 0.6668 0.5032 0.3507
C144_10 C 0.67319(6) 0.55820(6) 0.40890(6)
C145_10 C 0.65743(6) 0.57532(6) 0.43540(6)
C146_10 C 0.69012(6) 0.58423(7) 0.42565(6)
C147_10 C 0.63881(6) 0.57901(6) 0.44838(6)
C148_10 C 0.62097(7) 0.56645(7) 0.44700(7)
H93_10 H 0.6205 0.5549 0.4377
C149_10 C 0.60410(7) 0.57116(8) 0.45943(8)
H94_10 H 0.5918 0.5629 0.4589
C150_10 C 0.60532(7) 0.58839(7) 0.47298(7)
H95_10 H 0.5936 0.5915 0.4815
C151_10 C 0.63848(6) 0.59586(6) 0.46226(6)
H96_10 H 0.6505 0.6044 0.4631
N50_10 N 0.73537(5) 0.61662(5) 0.40915(5)
N52_10 N 0.69038(5) 0.56987(5) 0.41047(5)
N53_10 N 0.67406(5) 0.58748(6) 0.43884(5)
N54_10 N 0.65611(5) 0.56020(5) 0.42093(5)
N55_10 N 0.62228(5) 0.60058(5) 0.47438(5)
C152_10 C 0.78238(6) 0.64882(6) 0.40478(6)
N56_10 N 0.77456(5) 0.63727(5) 0.39286(5)
S8_10 S 0.791831(19) 0.664801(19) 0.421973(19)
Co9_12 Co 0.871782(11) 0.7500 0.628218(11)
Co10_13 Co 0.878218(11) 1.0000 0.628218(11)
Co11_13 Co 1.0000 0.871782(11) 0.621782(11)
Co13_13 Co 0.7500 0.878218(11) 0.621782(11)
Co17_10 Co 0.6250 0.6250 0.497883(12)
N64_10 N 0.76463(5) 0.59085(5) 0.38338(5)
N65_10 N 0.73453(5) 0.65248(5) 0.37505(5)
Co9_13 Co 0.378218(11) 0.0000 0.128218(11)
Co1_14 Co 0.5000 0.128218(11) 0.878218(11)
C1_11 C 0.37344(7) 0.07299(7) 0.76013(7)
H1_11 H 0.3637 0.0730 0.7490
C2_11 C 0.37652(8) 0.05467(7) 0.77075(8)
H2_11 H 0.3691 0.0424 0.7669
C3_11 C 0.39078(8) 0.05411(8) 0.78737(7)
H3_11 H 0.3930 0.0417 0.7952
C4_11 C 0.40156(7) 0.07252(6) 0.79182(6)
C5_11 C 0.39746(6) 0.09030(6) 0.78003(6)
H4_11 H 0.4050 0.1027 0.7831
C6_11 C 0.53238(6) 0.15478(6) 0.85118(6)
C7_11 C 0.47032(6) 0.10963(6) 0.84529(6)
H5_11 H 0.4688 0.0998 0.8562
C8_11 C 0.45790(6) 0.10760(6) 0.82765(6)
C9_11 C 0.46012(7) 0.12227(7) 0.81146(7)
H6_11 H 0.4516 0.1215 0.7993
C10_11 C 0.47493(8) 0.13772(8) 0.81364(7)
H7_11 H 0.4771 0.1477 0.8029
C11_11 C 0.48671(7) 0.13854(7) 0.83189(7)
H8_11 H 0.4968 0.1493 0.8332
C12_11 C 0.44180(6) 0.09110(6) 0.82681(6)
C13_11 C 0.42468(6) 0.06460(6) 0.84257(6)
C14_11 C 0.41577(7) 0.07435(6) 0.80988(6)
C15_11 C 0.42099(6) 0.05162(6) 0.86119(6)
C16_11 C 0.43355(7) 0.05300(7) 0.87903(7)
H9_11 H 0.4451 0.0623 0.8795
C17_11 C 0.42884(8) 0.04057(8) 0.89590(7)
H10_11 H 0.4371 0.0411 0.9082
C18_11 C 0.41161(7) 0.02702(7) 0.89468(7)
H11_11 H 0.4085 0.0185 0.9064
C19_11 C 0.40414(6) 0.03774(6) 0.86152(6)
H12_11 H 0.3956 0.0369 0.8495
N1_11 N 0.52456(5) 0.14286(5) 0.86273(5)
N3_11 N 0.48453(5) 0.12505(5) 0.84752(5)
N4_11 N 0.43013(5) 0.08953(5) 0.80962(5)
N5_11 N 0.41252(6) 0.06116(5) 0.82594(5)
N6_11 N 0.43980(5) 0.07907(5) 0.84389(5)
S1_11 S 0.541831(19) 0.171973(19) 0.835199(19)
C133_11 C 0.51013(7) 0.12344(7) 0.92701(7)
H85_11 H 0.4990 0.1137 0.9270
C134_11 C 0.52075(8) 0.12652(8) 0.94533(7)
H86_11 H 0.5169 0.1191 0.9576
C135_11 C 0.53737(7) 0.14078(8) 0.94589(8)
H87_11 H 0.5452 0.1430 0.9583
C136_11 C 0.54182(6) 0.15156(7) 0.92748(6)
C137_11 C 0.53003(6) 0.14746(6) 0.90970(6)
H88_11 H 0.5331 0.1550 0.8973
C139_11 C 0.59529(6) 0.22032(6) 0.89037(6)
H89_11 H 0.6062 0.2188 0.9002
C140_11 C 0.57765(6) 0.20790(6) 0.89240(6)
C141_11 C 0.56146(7) 0.21012(7) 0.87773(7)
H90_11 H 0.5493 0.2016 0.8785
C142_11 C 0.56364(7) 0.22493(8) 0.86228(8)
H91_11 H 0.5529 0.2271 0.8523
C143_11 C 0.58189(7) 0.23671(7) 0.86146(7)
H92_11 H 0.5832 0.2468 0.8507
C144_11 C 0.57681(6) 0.19180(6) 0.90890(6)
C145_11 C 0.59257(6) 0.17468(6) 0.93540(6)
C146_11 C 0.55988(6) 0.16577(7) 0.92565(6)
C147_11 C 0.61119(6) 0.17099(6) 0.94838(6)
C148_11 C 0.62903(7) 0.18355(7) 0.94700(7)
H93_11 H 0.6295 0.1951 0.9377
C149_11 C 0.64590(7) 0.17884(8) 0.95943(8)
H94_11 H 0.6582 0.1871 0.9589
C150_11 C 0.64468(7) 0.16161(7) 0.97298(7)
H95_11 H 0.6564 0.1585 0.9815
C151_11 C 0.61152(6) 0.15414(6) 0.96226(6)
H96_11 H 0.5995 0.1456 0.9631
N50_11 N 0.51463(5) 0.13338(5) 0.90915(5)
N52_11 N 0.55962(5) 0.18013(5) 0.91047(5)
N53_11 N 0.57594(5) 0.16252(6) 0.93884(5)
N54_11 N 0.59389(5) 0.18980(5) 0.92093(5)
N55_11 N 0.62772(5) 0.14942(5) 0.97438(5)
C152_11 C 0.46762(6) 0.10118(6) 0.90478(6)
N56_11 N 0.47544(5) 0.11273(5) 0.89286(5)
S8_11 S 0.458169(19) 0.085199(19) 0.921973(19)
Co17_11 Co 0.6250 0.1250 0.997883(12)
N64_11 N 0.48537(5) 0.15915(5) 0.88338(5)
N65_11 N 0.51547(5) 0.09752(5) 0.87505(5)
C39_11 C 0.26013(7) 0.87344(7) 0.07299(7)
H25_11 H 0.2490 0.8637 0.0730
C40_11 C 0.27075(8) 0.87652(8) 0.05467(7)
H26_11 H 0.2669 0.8691 0.0424
C41_11 C 0.28737(7) 0.89078(8) 0.05411(8)
H27_11 H 0.2952 0.8930 0.0417
C42_11 C 0.29182(6) 0.90156(7) 0.07252(6)
C43_11 C 0.28003(6) 0.89746(6) 0.09030(6)
H28_11 H 0.2831 0.9050 0.1027
C44_11 C 0.34529(6) 0.97032(6) 0.10963(6)
H29_11 H 0.3562 0.9688 0.0998
C45_11 C 0.32765(6) 0.95790(6) 0.10760(6)
C46_11 C 0.31146(7) 0.96012(7) 0.12227(7)
H30_11 H 0.2993 0.9516 0.1215
C47_11 C 0.31364(7) 0.97493(8) 0.13772(8)
H31_11 H 0.3029 0.9771 0.1477
C48_11 C 0.33189(7) 0.98671(7) 0.13854(7)
H32_11 H 0.3332 0.9968 0.1493
C49_11 C 0.32681(6) 0.94180(6) 0.09110(6)
C50_11 C 0.34257(6) 0.92468(6) 0.06460(6)
C51_11 C 0.30988(6) 0.91577(7) 0.07435(6)
C52_11 C 0.36119(6) 0.92099(6) 0.05162(6)
C53_11 C 0.37903(7) 0.93355(7) 0.05300(7)
H33_11 H 0.3795 0.9451 0.0623
C54_11 C 0.39590(7) 0.92884(8) 0.04057(8)
H34_11 H 0.4082 0.9371 0.0411
C55_11 C 0.39468(7) 0.91161(7) 0.02702(7)
H35_11 H 0.4064 0.9085 0.0185
C56_11 C 0.36152(6) 0.90414(6) 0.03774(6)
H36_11 H 0.3495 0.8956 0.0369
N15_11 N 0.26463(5) 0.88338(5) 0.09085(5)
N16_11 N 0.34752(5) 0.98453(5) 0.12505(5)
N17_11 N 0.30962(5) 0.93013(5) 0.08953(5)
N18_11 N 0.32594(5) 0.91252(6) 0.06116(5)
N19_11 N 0.34389(5) 0.93980(5) 0.07907(5)
N20_11 N 0.37772(5) 0.89942(5) 0.02562(5)
N21_11 N 0.34256(6) 0.87682(5) 0.00124(5)
C114_11 C 0.48987(7) 0.87656(7) 0.07299(7)
H73_11 H 0.5010 0.8863 0.0730
C115_11 C 0.47925(8) 0.87348(8) 0.05467(7)
H74_11 H 0.4831 0.8809 0.0424
C116_11 C 0.46263(7) 0.85922(8) 0.05411(8)
H75_11 H 0.4548 0.8570 0.0417
C117_11 C 0.45818(6) 0.84844(7) 0.07252(6)
C118_11 C 0.46997(6) 0.85254(6) 0.09030(6)
H76_11 H 0.4669 0.8450 0.1027
C119_11 C 0.40471(6) 0.77968(6) 0.10963(6)
H77_11 H 0.3938 0.7812 0.0998
C120_11 C 0.42235(6) 0.79210(6) 0.10760(6)
C121_11 C 0.43854(7) 0.78988(7) 0.12227(7)
H78_11 H 0.4507 0.7984 0.1215
C122_11 C 0.43636(7) 0.77507(8) 0.13772(8)
H79_11 H 0.4471 0.7729 0.1477
C123_11 C 0.41811(7) 0.76329(7) 0.13854(7)
H80_11 H 0.4168 0.7532 0.1493
C124_11 C 0.42319(6) 0.80820(6) 0.09110(6)
C125_11 C 0.40743(6) 0.82532(6) 0.06460(6)
C126_11 C 0.44012(6) 0.83423(7) 0.07435(6)
C127_11 C 0.38881(6) 0.82901(6) 0.05162(6)
C128_11 C 0.37097(7) 0.81645(7) 0.05300(7)
H81_11 H 0.3705 0.8049 0.0623
C129_11 C 0.35410(7) 0.82116(8) 0.04057(8)
H82_11 H 0.3418 0.8129 0.0411
C130_11 C 0.35532(7) 0.83839(7) 0.02702(7)
H83_11 H 0.3436 0.8415 0.0185
C131_11 C 0.38848(6) 0.84586(6) 0.03774(6)
H84_11 H 0.4005 0.8544 0.0369
N42_11 N 0.48537(5) 0.86662(5) 0.09085(5)
N43_11 N 0.40248(5) 0.76547(5) 0.12505(5)
N44_11 N 0.44038(5) 0.81987(5) 0.08953(5)
N45_11 N 0.42406(5) 0.83748(6) 0.06116(5)
N46_11 N 0.40611(5) 0.81020(5) 0.07907(5)
N47_11 N 0.37228(5) 0.85058(5) 0.02562(5)
N48_11 N 0.40744(6) 0.87318(5) 0.00124(5)
Co9_14 Co 0.378218(11) 1.0000 0.128218(11)
Co10_14 Co 0.371782(11) 0.7500 0.128218(11)
Co11_14 Co 0.2500 0.878218(11) 0.121782(11)
Co13_14 Co 0.5000 0.871782(11) 0.121782(11)
C21_11 C 0.41733(7) 0.98274(7) 0.86159(8)
H13_11 H 0.4160 0.9929 0.8509
C22_11 C 0.43527(8) 0.97148(8) 0.86252(8)
H14_11 H 0.4461 0.9738 0.8527
C23_11 C 0.43761(7) 0.95631(8) 0.87818(8)
H15_11 H 0.4500 0.9483 0.8793
C24_11 C 0.42105(7) 0.95337(7) 0.89202(7)
C25_11 C 0.40334(6) 0.96559(6) 0.89013(6)
H16_11 H 0.3923 0.9636 0.8998
C26_11 C 0.42216(7) 0.93701(7) 0.90834(7)
N10_11 N 0.43743(5) 0.92319(6) 0.90705(6)
C27_11 C 0.36159(8) 0.91733(7) 0.98274(7)
H17_11 H 0.3509 0.9160 0.9929
C28_11 C 0.36252(8) 0.93527(8) 0.97148(8)
H18_11 H 0.3527 0.9461 0.9738
C29_11 C 0.37818(8) 0.93761(7) 0.95631(8)
H19_11 H 0.3793 0.9500 0.9483
C30_11 C 0.39202(7) 0.92105(7) 0.95337(7)
C31_11 C 0.39013(6) 0.90334(6) 0.96559(6)
H20_11 H 0.3998 0.8923 0.9636
C32_11 C 0.40834(7) 0.92216(7) 0.93701(7)
N11_11 N 0.37511(5) 0.90109(6) 0.98025(5)
N12_11 N 0.40705(6) 0.93743(5) 0.92319(6)
C33_11 C 0.48274(7) 0.86159(8) 0.91733(7)
H21_11 H 0.4929 0.8509 0.9160
C34_11 C 0.47148(8) 0.86252(8) 0.93527(8)
H22_11 H 0.4738 0.8527 0.9461
C35_11 C 0.45631(8) 0.87818(8) 0.93761(7)
H23_11 H 0.4483 0.8793 0.9500
C36_11 C 0.45337(7) 0.89202(7) 0.92105(7)
C37_11 C 0.46559(6) 0.89013(6) 0.90334(6)
H24_11 H 0.4636 0.8998 0.8923
C38_11 C 0.43701(7) 0.90834(7) 0.92216(7)
N14_11 N 0.42319(6) 0.90705(6) 0.93743(5)
C57_11 C 0.32481(8) 0.87829(9) 0.99936(7)
S3_11 S 0.29973(3) 0.88023(7) 0.99673(3)
C132_11 C 0.42519(8) 0.87171(9) 0.99936(7)
S6_11 S 0.45027(3) 0.86977(7) 0.99673(3)
Co1_15 Co 0.2500 0.628218(11) 0.371782(11)
C1_12 C 0.37656(7) 0.57299(7) 0.48987(7)
H1_12 H 0.3863 0.5730 0.5010
C2_12 C 0.37348(8) 0.55467(7) 0.47925(8)
H2_12 H 0.3809 0.5424 0.4831
C3_12 C 0.35922(8) 0.55411(8) 0.46263(7)
H3_12 H 0.3570 0.5417 0.4548
C4_12 C 0.34844(7) 0.57252(6) 0.45818(6)
C5_12 C 0.35254(6) 0.59030(6) 0.46997(6)
H4_12 H 0.3450 0.6027 0.4669
C6_12 C 0.21762(6) 0.65478(6) 0.39882(6)
C7_12 C 0.27968(6) 0.60963(6) 0.40471(6)
H5_12 H 0.2812 0.5998 0.3938
C8_12 C 0.29210(6) 0.60760(6) 0.42235(6)
C9_12 C 0.28988(7) 0.62227(7) 0.43854(7)
H6_12 H 0.2984 0.6215 0.4507
C10_12 C 0.27507(8) 0.63772(8) 0.43636(7)
H7_12 H 0.2729 0.6477 0.4471
C11_12 C 0.26329(7) 0.63854(7) 0.41811(7)
H8_12 H 0.2532 0.6493 0.4168
C12_12 C 0.30820(6) 0.59110(6) 0.42319(6)
C13_12 C 0.32532(6) 0.56460(6) 0.40743(6)
C14_12 C 0.33423(7) 0.57435(6) 0.44012(6)
C15_12 C 0.32901(6) 0.55162(6) 0.38881(6)
C16_12 C 0.31645(7) 0.55300(7) 0.37097(7)
H9_12 H 0.3049 0.5623 0.3705
C17_12 C 0.32116(8) 0.54057(8) 0.35410(7)
H10_12 H 0.3129 0.5411 0.3418
C18_12 C 0.33839(7) 0.52702(7) 0.35532(7)
H11_12 H 0.3415 0.5185 0.3436
C19_12 C 0.34586(6) 0.53774(6) 0.38848(6)
H12_12 H 0.3544 0.5369 0.4005
C21_12 C 0.33267(7) 0.48274(7) 0.38841(8)
H13_12 H 0.3340 0.4929 0.3991
C22_12 C 0.31473(8) 0.47148(8) 0.38748(8)
H14_12 H 0.3039 0.4738 0.3973
C23_12 C 0.31239(7) 0.45631(8) 0.37182(8)
H15_12 H 0.3000 0.4483 0.3707
C24_12 C 0.32895(7) 0.45337(7) 0.35798(7)
C25_12 C 0.34666(6) 0.46559(6) 0.35987(6)
H16_12 H 0.3577 0.4636 0.3502
C26_12 C 0.32784(7) 0.43701(7) 0.34166(7)
N1_12 N 0.22544(5) 0.64286(5) 0.38727(5)
N3_12 N 0.26547(5) 0.62505(5) 0.40248(5)
N4_12 N 0.31987(5) 0.58953(5) 0.44038(5)
N5_12 N 0.33748(6) 0.56116(5) 0.42406(5)
N6_12 N 0.31020(5) 0.57907(5) 0.40611(5)
N10_12 N 0.31257(5) 0.42319(6) 0.34295(6)
S1_12 S 0.208169(19) 0.671973(19) 0.414801(19)
C27_12 C 0.38841(8) 0.41733(7) 0.26726(7)
H17_12 H 0.3991 0.4160 0.2571
C28_12 C 0.38748(8) 0.43527(8) 0.27852(8)
H18_12 H 0.3973 0.4461 0.2762
C29_12 C 0.37182(8) 0.43761(7) 0.29369(8)
H19_12 H 0.3707 0.4500 0.3017
C30_12 C 0.35798(7) 0.42105(7) 0.29663(7)
C31_12 C 0.35987(6) 0.40334(6) 0.28441(6)
H20_12 H 0.3502 0.3923 0.2864
C32_12 C 0.34166(7) 0.42216(7) 0.31299(7)
N11_12 N 0.37489(5) 0.40109(6) 0.26975(5)
N12_12 N 0.34295(6) 0.43743(5) 0.32681(6)
C33_12 C 0.26726(7) 0.36159(8) 0.33267(7)
H21_12 H 0.2571 0.3509 0.3340
C34_12 C 0.27852(8) 0.36252(8) 0.31473(8)
H22_12 H 0.2762 0.3527 0.3039
C35_12 C 0.29369(8) 0.37818(8) 0.31239(7)
H23_12 H 0.3017 0.3793 0.3000
C36_12 C 0.29663(7) 0.39202(7) 0.32895(7)
C37_12 C 0.28441(6) 0.39013(6) 0.34666(6)
H24_12 H 0.2864 0.3998 0.3577
C38_12 C 0.31299(7) 0.40834(7) 0.32784(7)
N14_12 N 0.32681(6) 0.40705(6) 0.31257(5)
C39_12 C 0.48987(7) 0.37344(7) 0.17701(7)
H25_12 H 0.5010 0.3637 0.1770
C40_12 C 0.47925(8) 0.37652(8) 0.19533(7)
H26_12 H 0.4831 0.3691 0.2076
C41_12 C 0.46263(7) 0.39078(8) 0.19589(8)
H27_12 H 0.4548 0.3930 0.2083
C42_12 C 0.45818(6) 0.40156(7) 0.17748(6)
C43_12 C 0.46997(6) 0.39746(6) 0.15970(6)
H28_12 H 0.4669 0.4050 0.1473
C44_12 C 0.40471(6) 0.47032(6) 0.14037(6)
H29_12 H 0.3938 0.4688 0.1502
C45_12 C 0.42235(6) 0.45790(6) 0.14240(6)
C46_12 C 0.43854(7) 0.46012(7) 0.12773(7)
H30_12 H 0.4507 0.4516 0.1285
C47_12 C 0.43636(7) 0.47493(8) 0.11228(8)
H31_12 H 0.4471 0.4771 0.1023
C48_12 C 0.41811(7) 0.48671(7) 0.11146(7)
H32_12 H 0.4168 0.4968 0.1007
C49_12 C 0.42319(6) 0.44180(6) 0.15890(6)
C50_12 C 0.40743(6) 0.42468(6) 0.18540(6)
C51_12 C 0.44012(6) 0.41577(7) 0.17565(6)
C52_12 C 0.38881(6) 0.42099(6) 0.19838(6)
C53_12 C 0.37097(7) 0.43355(7) 0.19700(7)
H33_12 H 0.3705 0.4451 0.1877
C54_12 C 0.35410(7) 0.42884(8) 0.20943(8)
H34_12 H 0.3418 0.4371 0.2089
C55_12 C 0.35532(7) 0.41161(7) 0.22298(7)
H35_12 H 0.3436 0.4085 0.2315
C56_12 C 0.38848(6) 0.40414(6) 0.21226(6)
H36_12 H 0.4005 0.3956 0.2131
C57_12 C 0.42519(8) 0.37829(9) 0.25064(7)
N15_12 N 0.48537(5) 0.38338(5) 0.15915(5)
N16_12 N 0.40248(5) 0.48453(5) 0.12495(5)
N17_12 N 0.44038(5) 0.43013(5) 0.16047(5)
N18_12 N 0.42406(5) 0.41252(6) 0.18884(5)
N19_12 N 0.40611(5) 0.43980(5) 0.17093(5)
N20_12 N 0.37228(5) 0.39942(5) 0.22438(5)
N21_12 N 0.40744(6) 0.37682(5) 0.24876(5)
S3_12 S 0.45027(3) 0.38023(7) 0.25327(3)
C114_12 C 0.26013(7) 0.37656(7) 0.17701(7)
H73_12 H 0.2490 0.3863 0.1770
C115_12 C 0.27075(8) 0.37348(8) 0.19533(7)
H74_12 H 0.2669 0.3809 0.2076
C116_12 C 0.28737(7) 0.35922(8) 0.19589(8)
H75_12 H 0.2952 0.3570 0.2083
C117_12 C 0.29182(6) 0.34844(7) 0.17748(6)
C118_12 C 0.28003(6) 0.35254(6) 0.15970(6)
H76_12 H 0.2831 0.3450 0.1473
C119_12 C 0.34529(6) 0.27968(6) 0.14037(6)
H77_12 H 0.3562 0.2812 0.1502
C120_12 C 0.32765(6) 0.29210(6) 0.14240(6)
C121_12 C 0.31146(7) 0.28988(7) 0.12773(7)
H78_12 H 0.2993 0.2984 0.1285
C122_12 C 0.31364(7) 0.27507(8) 0.11228(8)
H79_12 H 0.3029 0.2729 0.1023
C123_12 C 0.33189(7) 0.26329(7) 0.11146(7)
H80_12 H 0.3332 0.2532 0.1007
C124_12 C 0.32681(6) 0.30820(6) 0.15890(6)
C125_12 C 0.34257(6) 0.32532(6) 0.18540(6)
C126_12 C 0.30988(6) 0.33423(7) 0.17565(6)
C127_12 C 0.36119(6) 0.32901(6) 0.19838(6)
C128_12 C 0.37903(7) 0.31645(7) 0.19700(7)
H81_12 H 0.3795 0.3049 0.1877
C129_12 C 0.39590(7) 0.32116(8) 0.20943(8)
H82_12 H 0.4082 0.3129 0.2089
C130_12 C 0.39468(7) 0.33839(7) 0.22298(7)
H83_12 H 0.4064 0.3415 0.2315
C131_12 C 0.36152(6) 0.34586(6) 0.21226(6)
H84_12 H 0.3495 0.3544 0.2131
C132_12 C 0.32481(8) 0.37171(9) 0.25064(7)
N42_12 N 0.26463(5) 0.36662(5) 0.15915(5)
N43_12 N 0.34752(5) 0.26547(5) 0.12495(5)
N44_12 N 0.30962(5) 0.31987(5) 0.16047(5)
N45_12 N 0.32594(5) 0.33748(6) 0.18884(5)
N46_12 N 0.34389(5) 0.31020(5) 0.17093(5)
N47_12 N 0.37772(5) 0.35058(5) 0.22438(5)
N48_12 N 0.34256(6) 0.37318(5) 0.24876(5)
S6_12 S 0.29973(3) 0.36977(7) 0.25327(3)
C133_12 C 0.23987(7) 0.62344(7) 0.32299(7)
H85_12 H 0.2510 0.6137 0.3230
C134_12 C 0.22925(8) 0.62652(8) 0.30467(7)
H86_12 H 0.2331 0.6191 0.2924
C135_12 C 0.21263(7) 0.64078(8) 0.30411(8)
H87_12 H 0.2048 0.6430 0.2917
C136_12 C 0.20818(6) 0.65156(7) 0.32252(6)
C137_12 C 0.21997(6) 0.64746(6) 0.34030(6)
H88_12 H 0.2169 0.6550 0.3527
C139_12 C 0.15471(6) 0.72032(6) 0.35963(6)
H89_12 H 0.1438 0.7188 0.3498
C140_12 C 0.17235(6) 0.70790(6) 0.35760(6)
C141_12 C 0.18854(7) 0.71012(7) 0.37227(7)
H90_12 H 0.2007 0.7016 0.3715
C142_12 C 0.18636(7) 0.72493(8) 0.38772(8)
H91_12 H 0.1971 0.7271 0.3977
C143_12 C 0.16811(7) 0.73671(7) 0.38854(7)
H92_12 H 0.1668 0.7468 0.3993
C144_12 C 0.17319(6) 0.69180(6) 0.34110(6)
C145_12 C 0.15743(6) 0.67468(6) 0.31460(6)
C146_12 C 0.19012(6) 0.66577(7) 0.32435(6)
C147_12 C 0.13881(6) 0.67099(6) 0.30162(6)
C148_12 C 0.12097(7) 0.68355(7) 0.30300(7)
H93_12 H 0.1205 0.6951 0.3123
C149_12 C 0.10410(7) 0.67884(8) 0.29057(8)
H94_12 H 0.0918 0.6871 0.2911
C150_12 C 0.10532(7) 0.66161(7) 0.27702(7)
H95_12 H 0.0936 0.6585 0.2685
C151_12 C 0.13848(6) 0.65414(6) 0.28774(6)
H96_12 H 0.1505 0.6456 0.2869
N50_12 N 0.23537(5) 0.63338(5) 0.34085(5)
N52_12 N 0.19038(5) 0.68013(5) 0.33953(5)
N53_12 N 0.17406(5) 0.66252(6) 0.31116(5)
N54_12 N 0.15611(5) 0.68980(5) 0.32907(5)
N55_12 N 0.12228(5) 0.64942(5) 0.27562(5)
C152_12 C 0.28238(6) 0.60118(6) 0.34522(6)
N56_12 N 0.27456(5) 0.61273(5) 0.35714(5)
S8_12 S 0.291831(19) 0.585199(19) 0.328027(19)
Co9_15 Co 0.371782(11) 0.5000 0.121782(11)
Co10_15 Co 0.378218(11) 0.2500 0.121782(11)
Co11_15 Co 0.5000 0.378218(11) 0.128218(11)
Co13_15 Co 0.2500 0.371782(11) 0.128218(11)
Co17_12 Co 0.1250 0.6250 0.252117(12)
N64_12 N 0.26463(5) 0.65915(5) 0.36662(5)
N65_12 N 0.23453(5) 0.59752(5) 0.37495(5)
Co2_5 Co 0.6250 0.1250 0.752117(12)
C1_13 C 0.62344(7) 0.23987(7) 0.82299(7)
H1_13 H 0.6137 0.2510 0.8230
C2_13 C 0.62652(8) 0.22925(8) 0.80467(7)
H2_13 H 0.6191 0.2331 0.7924
C3_13 C 0.64078(8) 0.21263(7) 0.80411(8)
H3_13 H 0.6430 0.2048 0.7917
C4_13 C 0.65156(7) 0.20818(6) 0.82252(6)
C5_13 C 0.64746(6) 0.21997(6) 0.84030(6)
H4_13 H 0.6550 0.2169 0.8527
C6_13 C 0.78238(6) 0.14882(6) 0.90478(6)
C7_13 C 0.72032(6) 0.15471(6) 0.85963(6)
H5_13 H 0.7188 0.1438 0.8498
C8_13 C 0.70790(6) 0.17235(6) 0.85760(6)
C9_13 C 0.71012(7) 0.18854(7) 0.87227(7)
H6_13 H 0.7016 0.2007 0.8715
C10_13 C 0.72493(8) 0.18636(7) 0.88772(8)
H7_13 H 0.7271 0.1971 0.8977
C11_13 C 0.73671(7) 0.16811(7) 0.88854(7)
H8_13 H 0.7468 0.1668 0.8993
C12_13 C 0.69180(6) 0.17319(6) 0.84110(6)
C13_13 C 0.67468(6) 0.15743(6) 0.81460(6)
C14_13 C 0.66577(7) 0.19012(6) 0.82435(6)
C15_13 C 0.67099(6) 0.13881(6) 0.80162(6)
C16_13 C 0.68355(7) 0.12097(7) 0.80300(7)
H9_13 H 0.6951 0.1205 0.8123
C17_13 C 0.67884(8) 0.10410(7) 0.79057(8)
H10_13 H 0.6871 0.0918 0.7911
C18_13 C 0.66161(7) 0.10532(7) 0.77702(7)
H11_13 H 0.6585 0.0936 0.7685
C19_13 C 0.65414(6) 0.13848(6) 0.78774(6)
H12_13 H 0.6456 0.1505 0.7869
C20_9 C 0.62829(9) 0.17519(8) 0.74936(7)
C21_13 C 0.66733(7) 0.13841(8) 0.73274(7)
H13_13 H 0.6660 0.1491 0.7429
C22_13 C 0.68527(8) 0.13748(8) 0.72148(8)
H14_13 H 0.6961 0.1473 0.7238
C23_13 C 0.68761(7) 0.12182(8) 0.70631(8)
H15_13 H 0.7000 0.1207 0.6983
C24_13 C 0.67105(7) 0.10798(7) 0.70337(7)
C25_13 C 0.65334(6) 0.10987(6) 0.71559(6)
H16_13 H 0.6423 0.1002 0.7136
C26_13 C 0.67216(7) 0.09166(7) 0.68701(7)
N1_13 N 0.77456(5) 0.13727(5) 0.89286(5)
N3_13 N 0.73453(5) 0.15248(5) 0.87505(5)
N4_13 N 0.68013(5) 0.19038(5) 0.83953(5)
N5_13 N 0.66252(6) 0.17406(5) 0.81116(5)
N6_13 N 0.68980(5) 0.15611(5) 0.82907(5)
N7_9 N 0.64942(5) 0.12228(5) 0.77562(5)
N8_9 N 0.62682(5) 0.15744(6) 0.75124(5)
N9_9 N 0.65109(6) 0.12489(5) 0.73025(5)
N10_13 N 0.68743(5) 0.09295(6) 0.67319(6)
S1_13 S 0.791831(19) 0.164801(19) 0.921973(19)
S2_9 S 0.63023(7) 0.20027(3) 0.74673(3)
C27_13 C 0.61159(8) 0.01726(7) 0.66733(7)
H17_13 H 0.6009 0.0071 0.6660
C28_13 C 0.61252(8) 0.02852(8) 0.68527(8)
H18_13 H 0.6027 0.0262 0.6961
C29_13 C 0.62818(8) 0.04369(8) 0.68761(7)
H19_13 H 0.6293 0.0517 0.7000
C30_13 C 0.64202(7) 0.04663(7) 0.67105(7)
C31_13 C 0.64013(6) 0.03441(6) 0.65334(6)
H20_13 H 0.6498 0.0364 0.6423
C32_13 C 0.65834(7) 0.06299(7) 0.67216(7)
N11_13 N 0.62511(5) 0.01975(5) 0.65109(6)
N12_13 N 0.65705(6) 0.07681(6) 0.68743(5)
C33_13 C 0.73274(7) 0.08267(7) 0.61159(8)
H21_13 H 0.7429 0.0840 0.6009
C34_13 C 0.72148(8) 0.06473(8) 0.61252(8)
H22_13 H 0.7238 0.0539 0.6027
C35_13 C 0.70631(8) 0.06239(7) 0.62818(8)
H23_13 H 0.6983 0.0500 0.6293
C36_13 C 0.70337(7) 0.07895(7) 0.64202(7)
C37_13 C 0.71559(6) 0.09666(6) 0.64013(6)
H24_13 H 0.7136 0.1077 0.6498
C38_13 C 0.68701(7) 0.07784(7) 0.65834(7)
N13_9 N 0.73025(5) 0.09891(6) 0.62511(5)
N14_13 N 0.67319(6) 0.06257(5) 0.65705(6)
C57_13 C 0.57481(8) 0.00064(7) 0.62829(9)
S3_13 S 0.54973(3) 0.00327(3) 0.63023(7)
Co4_5 Co 0.497883(12) 0.1250 0.6250
C58_5 C 0.42701(7) 0.12344(7) 0.51013(7)
H37_5 H 0.4270 0.1137 0.4990
C59_5 C 0.44533(7) 0.12652(8) 0.52075(8)
H38_5 H 0.4576 0.1191 0.5169
C60_5 C 0.44589(8) 0.14078(8) 0.53737(7)
H39_5 H 0.4583 0.1430 0.5452
C61_5 C 0.42748(6) 0.15156(7) 0.54182(6)
C62_5 C 0.40970(6) 0.14746(6) 0.53003(6)
H40_5 H 0.3973 0.1550 0.5331
C63_5 C 0.39037(6) 0.22032(6) 0.59529(6)
H41_5 H 0.4002 0.2188 0.6062
C64_5 C 0.39240(6) 0.20790(6) 0.57765(6)
C65_5 C 0.37773(7) 0.21012(7) 0.56146(7)
H42_5 H 0.3785 0.2016 0.5493
C66_5 C 0.36228(8) 0.22493(8) 0.56364(7)
H43_5 H 0.3523 0.2271 0.5529
C67_5 C 0.36146(7) 0.23671(7) 0.58189(7)
H44_5 H 0.3507 0.2468 0.5832
C68_5 C 0.40890(6) 0.19180(6) 0.57681(6)
C69_5 C 0.43540(6) 0.17468(6) 0.59257(6)
C70_5 C 0.42565(6) 0.16577(7) 0.55988(6)
C71_5 C 0.44838(6) 0.17099(6) 0.61119(6)
C72_5 C 0.44700(7) 0.18355(7) 0.62903(7)
H45_5 H 0.4377 0.1951 0.6295
C73_5 C 0.45943(8) 0.17884(8) 0.64590(7)
H46_5 H 0.4589 0.1871 0.6582
C74_5 C 0.47298(7) 0.16161(7) 0.64468(7)
H47_5 H 0.4815 0.1585 0.6564
C75_5 C 0.46226(6) 0.15414(6) 0.61152(6)
H48_5 H 0.4631 0.1456 0.5995
C76_5 C 0.50064(7) 0.12829(9) 0.57481(8)
C77_5 C 0.51726(7) 0.16733(7) 0.61159(8)
H49_5 H 0.5071 0.1660 0.6009
C78_5 C 0.52852(8) 0.18527(8) 0.61252(8)
H50_5 H 0.5262 0.1961 0.6027
C79_5 C 0.54369(8) 0.18761(7) 0.62818(8)
H51_5 H 0.5517 0.2000 0.6293
C80_5 C 0.54663(7) 0.17105(7) 0.64202(7)
C81_5 C 0.53441(6) 0.15334(6) 0.64013(6)
H52_5 H 0.5364 0.1423 0.6498
C82_5 C 0.56299(7) 0.17216(7) 0.65834(7)
N22_5 N 0.40915(5) 0.13338(5) 0.51463(5)
N24_5 N 0.41047(5) 0.18013(5) 0.55962(5)
N25_5 N 0.43884(5) 0.16252(6) 0.57594(5)
N26_5 N 0.42093(5) 0.18980(5) 0.59389(5)
N27_5 N 0.47438(5) 0.14942(5) 0.62772(5)
N28_5 N 0.49876(5) 0.12682(5) 0.59256(6)
N29_5 N 0.51975(5) 0.15109(6) 0.62511(5)
N30_5 N 0.57681(6) 0.18743(5) 0.65705(6)
S4_5 S 0.50327(3) 0.13023(7) 0.54973(3)
C83_5 C 0.58267(7) 0.11159(8) 0.73274(7)
H53_5 H 0.5840 0.1009 0.7429
C84_5 C 0.56473(8) 0.11252(8) 0.72148(8)
H54_5 H 0.5539 0.1027 0.7238
C85_5 C 0.56239(7) 0.12818(8) 0.70631(8)
H55_5 H 0.5500 0.1293 0.6983
C86_5 C 0.57895(7) 0.14202(7) 0.70337(7)
C87_5 C 0.59666(6) 0.14013(6) 0.71559(6)
H56_5 H 0.6077 0.1498 0.7136
C88_5 C 0.57784(7) 0.15834(7) 0.68701(7)
N31_5 N 0.59891(6) 0.12511(5) 0.73025(5)
N32_5 N 0.56257(5) 0.15705(6) 0.67319(6)
C89_5 C 0.63841(8) 0.23274(7) 0.66733(7)
H57_5 H 0.6491 0.2429 0.6660
C90_5 C 0.63748(8) 0.22148(8) 0.68527(8)
H58_5 H 0.6473 0.2238 0.6961
C91_5 C 0.62182(8) 0.20631(8) 0.68761(7)
H59_5 H 0.6207 0.1983 0.7000
C92_5 C 0.60798(7) 0.20337(7) 0.67105(7)
C93_5 C 0.60987(6) 0.21559(6) 0.65334(6)
H60_5 H 0.6002 0.2136 0.6423
C94_5 C 0.59166(7) 0.18701(7) 0.67216(7)
N33_5 N 0.62489(5) 0.23025(5) 0.65109(6)
N34_5 N 0.59295(6) 0.17319(6) 0.68743(5)
C95_9 C 0.62656(7) 0.01013(7) 0.82299(7)
C96_9 C 0.62348(8) 0.02075(8) 0.80467(7)
H62_9 H 0.6309 0.0169 0.7924
C97_9 C 0.60922(8) 0.03737(7) 0.80411(8)
H63_9 H 0.6070 0.0452 0.7917
C98_9 C 0.59844(7) 0.04182(6) 0.82252(6)
C99_9 C 0.60254(6) 0.03003(6) 0.84030(6)
H64_9 H 0.5950 0.0331 0.8527
C100_9 C 0.52968(6) 0.09529(6) 0.85963(6)
H65_9 H 0.5312 0.1062 0.8498
C101_9 C 0.54210(6) 0.07765(6) 0.85760(6)
C102_9 C 0.53988(7) 0.06146(7) 0.87227(7)
H66_9 H 0.5484 0.0493 0.8715
C103_9 C 0.52507(8) 0.06364(7) 0.88772(8)
H67_9 H 0.5229 0.0529 0.8977
C104_9 C 0.51329(7) 0.08189(7) 0.88854(7)
H68_9 H 0.5032 0.0832 0.8993
C105_9 C 0.55820(6) 0.07681(6) 0.84110(6)
C106_9 C 0.57532(6) 0.09257(6) 0.81460(6)
C107_9 C 0.58423(7) 0.05988(6) 0.82435(6)
C108_9 C 0.57901(6) 0.11119(6) 0.80162(6)
C109_9 C 0.56645(7) 0.12903(7) 0.80300(7)
H69_9 H 0.5549 0.1295 0.8123
C110_9 C 0.57116(8) 0.14590(7) 0.79057(8)
H70_9 H 0.5629 0.1582 0.7911
C111_9 C 0.58839(7) 0.14468(7) 0.77702(7)
H71_9 H 0.5915 0.1564 0.7685
C112_9 C 0.59586(6) 0.11152(6) 0.78774(6)
H72_9 H 0.6044 0.0995 0.7869
C113_9 C 0.62171(9) 0.07481(8) 0.74936(7)
N35_9 N 0.61662(5) 0.01463(5) 0.84085(5)
N37_9 N 0.56987(5) 0.05962(5) 0.83953(5)
N38_9 N 0.58748(6) 0.07594(5) 0.81116(5)
N39_9 N 0.56020(5) 0.09389(5) 0.82907(5)
N40_9 N 0.60058(5) 0.12772(5) 0.77562(5)
N41_9 N 0.62318(5) 0.09256(6) 0.75124(5)
S5_9 S 0.61977(7) 0.04973(3) 0.74673(3)
C132_13 C 0.67519(8) 0.00064(7) 0.62171(9)
S6_13 S 0.70027(3) 0.00327(3) 0.61977(7)
C133_13 C 0.76013(7) 0.07299(7) 0.87344(7)
H85_13 H 0.7490 0.0730 0.8637
C134_13 C 0.77075(8) 0.05467(7) 0.87652(8)
H86_13 H 0.7669 0.0424 0.8691
C135_13 C 0.78737(7) 0.05411(8) 0.89078(8)
H87_13 H 0.7952 0.0417 0.8930
C136_13 C 0.79182(6) 0.07252(6) 0.90156(7)
C137_13 C 0.78003(6) 0.09030(6) 0.89746(6)
H88_13 H 0.7831 0.1027 0.9050
C139_13 C 0.84529(6) 0.10963(6) 0.97032(6)
H89_13 H 0.8562 0.0998 0.9688
C140_13 C 0.82765(6) 0.10760(6) 0.95790(6)
C141_13 C 0.81146(7) 0.12227(7) 0.96012(7)
H90_13 H 0.7993 0.1215 0.9516
C142_13 C 0.81364(7) 0.13772(8) 0.97493(8)
H91_13 H 0.8029 0.1477 0.9771
C143_13 C 0.83189(7) 0.13854(7) 0.98671(7)
H92_13 H 0.8332 0.1493 0.9968
C144_13 C 0.82681(6) 0.09110(6) 0.94180(6)
C145_13 C 0.84257(6) 0.06460(6) 0.92468(6)
C146_13 C 0.80988(6) 0.07435(6) 0.91577(7)
C147_13 C 0.86119(6) 0.05162(6) 0.92099(6)
C148_13 C 0.87903(7) 0.05300(7) 0.93355(7)
H93_13 H 0.8795 0.0623 0.9451
C149_13 C 0.89590(7) 0.04057(8) 0.92884(8)
H94_13 H 0.9082 0.0411 0.9371
C150_13 C 0.89468(7) 0.02702(7) 0.91161(7)
H95_13 H 0.9064 0.0185 0.9085
C151_13 C 0.86152(6) 0.03774(6) 0.90414(6)
H96_13 H 0.8495 0.0369 0.8956
N50_13 N 0.76463(5) 0.09085(5) 0.88338(5)
N52_13 N 0.80962(5) 0.08953(5) 0.93013(5)
N53_13 N 0.82594(5) 0.06116(5) 0.91252(6)
N54_13 N 0.84389(5) 0.07907(5) 0.93980(5)
N55_13 N 0.87772(5) 0.02562(5) 0.89942(5)
C152_13 C 0.71762(6) 0.09522(6) 0.85118(6)
N56_13 N 0.72544(5) 0.10714(5) 0.86273(5)
S8_13 S 0.708169(19) 0.078027(19) 0.835199(19)
C153_5 C 0.50064(7) 0.12171(9) 0.67519(8)
N57_5 N 0.49876(5) 0.12318(5) 0.65744(6)
S9_5 S 0.50327(3) 0.11977(7) 0.70027(3)
Co15_5 Co 0.6250 0.252117(12) 0.6250
Co16_9 Co 0.752117(12) 0.1250 0.6250
Co17_13 Co 0.8750 0.002117(12) 0.8750
N64_13 N 0.73537(5) 0.11662(5) 0.90915(5)
N69_5 N 0.47438(5) 0.10058(5) 0.62228(5)
N70_5 N 0.51975(5) 0.09891(6) 0.62489(5)
N71_5 N 0.62489(5) 0.01975(5) 0.59891(6)
Co3_5 Co 0.6250 0.997883(12) 0.6250
C39_13 C 0.51013(7) 0.92701(7) 0.62344(7)
H25_13 H 0.4990 0.9270 0.6137
C40_13 C 0.52075(8) 0.94533(7) 0.62652(8)
H26_13 H 0.5169 0.9576 0.6191
C41_13 C 0.53737(7) 0.94589(8) 0.64078(8)
H27_13 H 0.5452 0.9583 0.6430
C42_13 C 0.54182(6) 0.92748(6) 0.65156(7)
C43_13 C 0.53003(6) 0.90970(6) 0.64746(6)
H28_13 H 0.5331 0.8973 0.6550
C44_13 C 0.59529(6) 0.89037(6) 0.72032(6)
H29_13 H 0.6062 0.9002 0.7188
C45_13 C 0.57765(6) 0.89240(6) 0.70790(6)
C46_13 C 0.56146(7) 0.87773(7) 0.71012(7)
H30_13 H 0.5493 0.8785 0.7016
C47_13 C 0.56364(7) 0.86228(8) 0.72493(8)
H31_13 H 0.5529 0.8523 0.7271
C48_13 C 0.58189(7) 0.86146(7) 0.73671(7)
H32_13 H 0.5832 0.8507 0.7468
C49_13 C 0.57681(6) 0.90890(6) 0.69180(6)
C50_13 C 0.59257(6) 0.93540(6) 0.67468(6)
C51_13 C 0.55988(6) 0.92565(6) 0.66577(7)
C52_13 C 0.61119(6) 0.94838(6) 0.67099(6)
C53_13 C 0.62903(7) 0.94700(7) 0.68355(7)
H33_13 H 0.6295 0.9377 0.6951
C54_13 C 0.64590(7) 0.95943(8) 0.67884(8)
H34_13 H 0.6582 0.9589 0.6871
C55_13 C 0.64468(7) 0.97298(7) 0.66161(7)
H35_13 H 0.6564 0.9815 0.6585
C56_13 C 0.61152(6) 0.96226(6) 0.65414(6)
H36_13 H 0.5995 0.9631 0.6456
N15_13 N 0.51463(5) 0.90915(5) 0.63338(5)
N16_13 N 0.59752(5) 0.87495(5) 0.73453(5)
N17_13 N 0.55962(5) 0.91047(5) 0.68013(5)
N18_13 N 0.57594(5) 0.93884(5) 0.66252(6)
N19_13 N 0.59389(5) 0.92093(5) 0.68980(5)
N20_13 N 0.62772(5) 0.97438(5) 0.64942(5)
N21_13 N 0.59256(6) 0.99876(5) 0.62682(5)
H61_9 H 0.6363 0.9990 0.8230
C114_13 C 0.73987(7) 0.92701(7) 0.62656(7)
H73_13 H 0.7510 0.9270 0.6363
C115_13 C 0.72925(8) 0.94533(7) 0.62348(8)
H74_13 H 0.7331 0.9576 0.6309
C116_13 C 0.71263(7) 0.94589(8) 0.60922(8)
H75_13 H 0.7048 0.9583 0.6070
C117_13 C 0.70818(6) 0.92748(6) 0.59844(7)
C118_13 C 0.71997(6) 0.90970(6) 0.60254(6)
H76_13 H 0.7169 0.8973 0.5950
C119_13 C 0.65471(6) 0.89037(6) 0.52968(6)
H77_13 H 0.6438 0.9002 0.5312
C120_13 C 0.67235(6) 0.89240(6) 0.54210(6)
C121_13 C 0.68854(7) 0.87773(7) 0.53988(7)
H78_13 H 0.7007 0.8785 0.5484
C122_13 C 0.68636(7) 0.86228(8) 0.52507(8)
H79_13 H 0.6971 0.8523 0.5229
C123_13 C 0.66811(7) 0.86146(7) 0.51329(7)
H80_13 H 0.6668 0.8507 0.5032
C124_13 C 0.67319(6) 0.90890(6) 0.55820(6)
C125_13 C 0.65743(6) 0.93540(6) 0.57532(6)
C126_13 C 0.69012(6) 0.92565(6) 0.58423(7)
C127_13 C 0.63881(6) 0.94838(6) 0.57901(6)
C128_13 C 0.62097(7) 0.94700(7) 0.56645(7)
H81_13 H 0.6205 0.9377 0.5549
C129_13 C 0.60410(7) 0.95943(8) 0.57116(8)
H82_13 H 0.5918 0.9589 0.5629
C130_13 C 0.60532(7) 0.97298(7) 0.58839(7)
H83_13 H 0.5936 0.9815 0.5915
C131_13 C 0.63848(6) 0.96226(6) 0.59586(6)
H84_13 H 0.6505 0.9631 0.6044
N42_13 N 0.73537(5) 0.90915(5) 0.61662(5)
N43_13 N 0.65248(5) 0.87495(5) 0.51547(5)
N44_13 N 0.69038(5) 0.91047(5) 0.56987(5)
N45_13 N 0.67406(5) 0.93884(5) 0.58748(6)
N46_13 N 0.65611(5) 0.92093(5) 0.56020(5)
N47_13 N 0.62228(5) 0.97438(5) 0.60058(5)
N48_13 N 0.65744(6) 0.99876(5) 0.62318(5)
Co2_6 Co 0.6250 0.6250 0.252117(12)
C1_14 C 0.62656(7) 0.51013(7) 0.32299(7)
H1_14 H 0.6363 0.4990 0.3230
C2_14 C 0.62348(8) 0.52075(8) 0.30467(7)
H2_14 H 0.6309 0.5169 0.2924
C3_14 C 0.60922(8) 0.53737(7) 0.30411(8)
H3_14 H 0.6070 0.5452 0.2917
C4_14 C 0.59844(7) 0.54182(6) 0.32252(6)
C5_14 C 0.60254(6) 0.53003(6) 0.34030(6)
H4_14 H 0.5950 0.5331 0.3527
C6_14 C 0.46762(6) 0.60118(6) 0.40478(6)
C7_14 C 0.52968(6) 0.59529(6) 0.35963(6)
H5_14 H 0.5312 0.6062 0.3498
C8_14 C 0.54210(6) 0.57765(6) 0.35760(6)
C9_14 C 0.53988(7) 0.56146(7) 0.37227(7)
H6_14 H 0.5484 0.5493 0.3715
C10_14 C 0.52507(8) 0.56364(7) 0.38772(8)
H7_14 H 0.5229 0.5529 0.3977
C11_14 C 0.51329(7) 0.58189(7) 0.38854(7)
H8_14 H 0.5032 0.5832 0.3993
C12_14 C 0.55820(6) 0.57681(6) 0.34110(6)
C13_14 C 0.57532(6) 0.59257(6) 0.31460(6)
C14_14 C 0.58423(7) 0.55988(6) 0.32435(6)
C15_14 C 0.57901(6) 0.61119(6) 0.30162(6)
C16_14 C 0.56645(7) 0.62903(7) 0.30300(7)
H9_14 H 0.5549 0.6295 0.3123
C17_14 C 0.57116(8) 0.64590(7) 0.29057(8)
H10_14 H 0.5629 0.6582 0.2911
C18_14 C 0.58839(7) 0.64468(7) 0.27702(7)
H11_14 H 0.5915 0.6564 0.2685
C19_14 C 0.59586(6) 0.61152(6) 0.28774(6)
H12_14 H 0.6044 0.5995 0.2869
C20_10 C 0.62171(9) 0.57481(8) 0.24936(7)
C21_14 C 0.58267(7) 0.61159(8) 0.23274(7)
H13_14 H 0.5840 0.6009 0.2429
C22_14 C 0.56473(8) 0.61252(8) 0.22148(8)
H14_14 H 0.5539 0.6027 0.2238
C23_14 C 0.56239(7) 0.62818(8) 0.20631(8)
H15_14 H 0.5500 0.6293 0.1983
C24_14 C 0.57895(7) 0.64202(7) 0.20337(7)
C25_14 C 0.59666(6) 0.64013(6) 0.21559(6)
H16_14 H 0.6077 0.6498 0.2136
C26_14 C 0.57784(7) 0.65834(7) 0.18701(7)
N1_14 N 0.47544(5) 0.61273(5) 0.39286(5)
N3_14 N 0.51547(5) 0.59752(5) 0.37505(5)
N4_14 N 0.56987(5) 0.55962(5) 0.33953(5)
N5_14 N 0.58748(6) 0.57594(5) 0.31116(5)
N6_14 N 0.56020(5) 0.59389(5) 0.32907(5)
N7_10 N 0.60058(5) 0.62772(5) 0.27562(5)
N8_10 N 0.62318(5) 0.59256(6) 0.25124(5)
N9_10 N 0.59891(6) 0.62511(5) 0.23025(5)
N10_14 N 0.56257(5) 0.65705(6) 0.17319(6)
S1_14 S 0.458169(19) 0.585199(19) 0.421973(19)
S2_10 S 0.61977(7) 0.54973(3) 0.24673(3)
C27_14 C 0.63841(8) 0.73274(7) 0.16733(7)
H17_14 H 0.6491 0.7429 0.1660
C28_14 C 0.63748(8) 0.72148(8) 0.18527(8)
H18_14 H 0.6473 0.7238 0.1961
C29_14 C 0.62182(8) 0.70631(8) 0.18761(7)
H19_14 H 0.6207 0.6983 0.2000
C30_14 C 0.60798(7) 0.70337(7) 0.17105(7)
C31_14 C 0.60987(6) 0.71559(6) 0.15334(6)
H20_14 H 0.6002 0.7136 0.1423
C32_14 C 0.59166(7) 0.68701(7) 0.17216(7)
N11_14 N 0.62489(5) 0.73025(5) 0.15109(6)
N12_14 N 0.59295(6) 0.67319(6) 0.18743(5)
C33_14 C 0.51726(7) 0.66733(7) 0.11159(8)
H21_14 H 0.5071 0.6660 0.1009
C34_14 C 0.52852(8) 0.68527(8) 0.11252(8)
H22_14 H 0.5262 0.6961 0.1027
C35_14 C 0.54369(8) 0.68761(7) 0.12818(8)
H23_14 H 0.5517 0.7000 0.1293
C36_14 C 0.54663(7) 0.67105(7) 0.14202(7)
C37_14 C 0.53441(6) 0.65334(6) 0.14013(6)
H24_14 H 0.5364 0.6423 0.1498
C38_14 C 0.56299(7) 0.67216(7) 0.15834(7)
N13_10 N 0.51975(5) 0.65109(6) 0.12511(5)
N14_14 N 0.57681(6) 0.68743(5) 0.15705(6)
Co3_6 Co 0.6250 0.752117(12) 0.1250
C39_14 C 0.73987(7) 0.82299(7) 0.12344(7)
H25_14 H 0.7510 0.8230 0.1137
C40_14 C 0.72925(8) 0.80467(7) 0.12652(8)
H26_14 H 0.7331 0.7924 0.1191
C41_14 C 0.71263(7) 0.80411(8) 0.14078(8)
H27_14 H 0.7048 0.7917 0.1430
C42_14 C 0.70818(6) 0.82252(6) 0.15156(7)
C43_14 C 0.71997(6) 0.84030(6) 0.14746(6)
H28_14 H 0.7169 0.8527 0.1550
C44_14 C 0.65471(6) 0.85963(6) 0.22032(6)
H29_14 H 0.6438 0.8498 0.2188
C45_14 C 0.67235(6) 0.85760(6) 0.20790(6)
C46_14 C 0.68854(7) 0.87227(7) 0.21012(7)
H30_14 H 0.7007 0.8715 0.2016
C47_14 C 0.68636(7) 0.88772(8) 0.22493(8)
H31_14 H 0.6971 0.8977 0.2271
C48_14 C 0.66811(7) 0.88854(7) 0.23671(7)
H32_14 H 0.6668 0.8993 0.2468
C49_14 C 0.67319(6) 0.84110(6) 0.19180(6)
C50_14 C 0.65743(6) 0.81460(6) 0.17468(6)
C51_14 C 0.69012(6) 0.82435(6) 0.16577(7)
C52_14 C 0.63881(6) 0.80162(6) 0.17099(6)
C53_14 C 0.62097(7) 0.80300(7) 0.18355(7)
H33_14 H 0.6205 0.8123 0.1951
C54_14 C 0.60410(7) 0.79057(8) 0.17884(8)
H34_14 H 0.5918 0.7911 0.1871
C55_14 C 0.60532(7) 0.77702(7) 0.16161(7)
H35_14 H 0.5936 0.7685 0.1585
C56_14 C 0.63848(6) 0.78774(6) 0.15414(6)
H36_14 H 0.6505 0.7869 0.1456
C57_14 C 0.67519(8) 0.74936(7) 0.12829(9)
N15_14 N 0.73537(5) 0.84085(5) 0.13338(5)
N16_14 N 0.65248(5) 0.87505(5) 0.23453(5)
N17_14 N 0.69038(5) 0.83953(5) 0.18013(5)
N18_14 N 0.67406(5) 0.81116(5) 0.16252(6)
N19_14 N 0.65611(5) 0.82907(5) 0.18980(5)
N20_14 N 0.62228(5) 0.77562(5) 0.14942(5)
N21_14 N 0.65744(6) 0.75124(5) 0.12682(5)
S3_14 S 0.70027(3) 0.74673(3) 0.13023(7)
Co4_6 Co 0.752117(12) 0.6250 0.1250
C58_6 C 0.82299(7) 0.62656(7) 0.01013(7)
C59_6 C 0.80467(7) 0.62348(8) 0.02075(8)
H38_6 H 0.7924 0.6309 0.0169
C60_6 C 0.80411(8) 0.60922(8) 0.03737(7)
H39_6 H 0.7917 0.6070 0.0452
C61_6 C 0.82252(6) 0.59844(7) 0.04182(6)
C62_6 C 0.84030(6) 0.60254(6) 0.03003(6)
H40_6 H 0.8527 0.5950 0.0331
C63_6 C 0.85963(6) 0.52968(6) 0.09529(6)
H41_6 H 0.8498 0.5312 0.1062
C64_6 C 0.85760(6) 0.54210(6) 0.07765(6)
C65_6 C 0.87227(7) 0.53988(7) 0.06146(7)
H42_6 H 0.8715 0.5484 0.0493
C66_6 C 0.88772(8) 0.52507(8) 0.06364(7)
H43_6 H 0.8977 0.5229 0.0529
C67_6 C 0.88854(7) 0.51329(7) 0.08189(7)
H44_6 H 0.8993 0.5032 0.0832
C68_6 C 0.84110(6) 0.55820(6) 0.07681(6)
C69_6 C 0.81460(6) 0.57532(6) 0.09257(6)
C70_6 C 0.82435(6) 0.58423(7) 0.05988(6)
C71_6 C 0.80162(6) 0.57901(6) 0.11119(6)
C72_6 C 0.80300(7) 0.56645(7) 0.12903(7)
H45_6 H 0.8123 0.5549 0.1295
C73_6 C 0.79057(8) 0.57116(8) 0.14590(7)
H46_6 H 0.7911 0.5629 0.1582
C74_6 C 0.77702(7) 0.58839(7) 0.14468(7)
H47_6 H 0.7685 0.5915 0.1564
C75_6 C 0.78774(6) 0.59586(6) 0.11152(6)
H48_6 H 0.7869 0.6044 0.0995
C76_6 C 0.74936(7) 0.62171(9) 0.07481(8)
C77_6 C 0.73274(7) 0.58267(7) 0.11159(8)
H49_6 H 0.7429 0.5840 0.1009
C78_6 C 0.72148(8) 0.56473(8) 0.11252(8)
H50_6 H 0.7238 0.5539 0.1027
C79_6 C 0.70631(8) 0.56239(7) 0.12818(8)
H51_6 H 0.6983 0.5500 0.1293
C80_6 C 0.70337(7) 0.57895(7) 0.14202(7)
C81_6 C 0.71559(6) 0.59666(6) 0.14013(6)
H52_6 H 0.7136 0.6077 0.1498
C82_6 C 0.68701(7) 0.57784(7) 0.15834(7)
N22_6 N 0.84085(5) 0.61662(5) 0.01463(5)
N24_6 N 0.83953(5) 0.56987(5) 0.05962(5)
N25_6 N 0.81116(5) 0.58748(6) 0.07594(5)
N26_6 N 0.82907(5) 0.56020(5) 0.09389(5)
N27_6 N 0.77562(5) 0.60058(5) 0.12772(5)
N28_6 N 0.75124(5) 0.62318(5) 0.09256(6)
N29_6 N 0.73025(5) 0.59891(6) 0.12511(5)
N30_6 N 0.67319(6) 0.56257(5) 0.15705(6)
S4_6 S 0.74673(3) 0.61977(7) 0.04973(3)
C83_6 C 0.66733(7) 0.63841(8) 0.23274(7)
H53_6 H 0.6660 0.6491 0.2429
C84_6 C 0.68527(8) 0.63748(8) 0.22148(8)
H54_6 H 0.6961 0.6473 0.2238
C85_6 C 0.68761(7) 0.62182(8) 0.20631(8)
H55_6 H 0.7000 0.6207 0.1983
C86_6 C 0.67105(7) 0.60798(7) 0.20337(7)
C87_6 C 0.65334(6) 0.60987(6) 0.21559(6)
H56_6 H 0.6423 0.6002 0.2136
C88_6 C 0.67216(7) 0.59166(7) 0.18701(7)
N31_6 N 0.65109(6) 0.62489(5) 0.23025(5)
N32_6 N 0.68743(5) 0.59295(6) 0.17319(6)
C89_6 C 0.61159(8) 0.51726(7) 0.16733(7)
H57_6 H 0.6009 0.5071 0.1660
C90_6 C 0.61252(8) 0.52852(8) 0.18527(8)
H58_6 H 0.6027 0.5262 0.1961
C91_6 C 0.62818(8) 0.54369(8) 0.18761(7)
H59_6 H 0.6293 0.5517 0.2000
C92_6 C 0.64202(7) 0.54663(7) 0.17105(7)
C93_6 C 0.64013(6) 0.53441(6) 0.15334(6)
H60_6 H 0.6498 0.5364 0.1423
C94_6 C 0.65834(7) 0.56299(7) 0.17216(7)
N33_6 N 0.62511(5) 0.51975(5) 0.15109(6)
N34_6 N 0.65705(6) 0.57681(6) 0.18743(5)
C95_10 C 0.62344(7) 0.73987(7) 0.32299(7)
H61_10 H 0.6137 0.7510 0.3230
C96_10 C 0.62652(8) 0.72925(8) 0.30467(7)
H62_10 H 0.6191 0.7331 0.2924
C97_10 C 0.64078(8) 0.71263(7) 0.30411(8)
H63_10 H 0.6430 0.7048 0.2917
C98_10 C 0.65156(7) 0.70818(6) 0.32252(6)
C99_10 C 0.64746(6) 0.71997(6) 0.34030(6)
H64_10 H 0.6550 0.7169 0.3527
C100_10 C 0.72032(6) 0.65471(6) 0.35963(6)
H65_10 H 0.7188 0.6438 0.3498
C101_10 C 0.70790(6) 0.67235(6) 0.35760(6)
C102_10 C 0.71012(7) 0.68854(7) 0.37227(7)
H66_10 H 0.7016 0.7007 0.3715
C103_10 C 0.72493(8) 0.68636(7) 0.38772(8)
H67_10 H 0.7271 0.6971 0.3977
C104_10 C 0.73671(7) 0.66811(7) 0.38854(7)
H68_10 H 0.7468 0.6668 0.3993
C105_10 C 0.69180(6) 0.67319(6) 0.34110(6)
C106_10 C 0.67468(6) 0.65743(6) 0.31460(6)
C107_10 C 0.66577(7) 0.69012(6) 0.32435(6)
C108_10 C 0.67099(6) 0.63881(6) 0.30162(6)
C109_10 C 0.68355(7) 0.62097(7) 0.30300(7)
H69_10 H 0.6951 0.6205 0.3123
C110_10 C 0.67884(8) 0.60410(7) 0.29057(8)
H70_10 H 0.6871 0.5918 0.2911
C111_10 C 0.66161(7) 0.60532(7) 0.27702(7)
H71_10 H 0.6585 0.5936 0.2685
C112_10 C 0.65414(6) 0.63848(6) 0.28774(6)
H72_10 H 0.6456 0.6505 0.2869
C113_10 C 0.62829(9) 0.67519(8) 0.24936(7)
N35_10 N 0.63338(5) 0.73537(5) 0.34085(5)
N37_10 N 0.68013(5) 0.69038(5) 0.33953(5)
N38_10 N 0.66252(6) 0.67406(5) 0.31116(5)
N39_10 N 0.68980(5) 0.65611(5) 0.32907(5)
N40_10 N 0.64942(5) 0.62228(5) 0.27562(5)
N41_10 N 0.62682(5) 0.65744(6) 0.25124(5)
S5_10 S 0.63023(7) 0.70027(3) 0.24673(3)
C114_14 C 0.51013(7) 0.82299(7) 0.12656(7)
H73_14 H 0.4990 0.8230 0.1363
C115_14 C 0.52075(8) 0.80467(7) 0.12348(8)
H74_14 H 0.5169 0.7924 0.1309
C116_14 C 0.53737(7) 0.80411(8) 0.10922(8)
H75_14 H 0.5452 0.7917 0.1070
C117_14 C 0.54182(6) 0.82252(6) 0.09844(7)
C118_14 C 0.53003(6) 0.84030(6) 0.10254(6)
H76_14 H 0.5331 0.8527 0.0950
C119_14 C 0.59529(6) 0.85963(6) 0.02968(6)
H77_14 H 0.6062 0.8498 0.0312
C120_14 C 0.57765(6) 0.85760(6) 0.04210(6)
C121_14 C 0.56146(7) 0.87227(7) 0.03988(7)
H78_14 H 0.5493 0.8715 0.0484
C122_14 C 0.56364(7) 0.88772(8) 0.02507(8)
H79_14 H 0.5529 0.8977 0.0229
C123_14 C 0.58189(7) 0.88854(7) 0.01329(7)
H80_14 H 0.5832 0.8993 0.0032
C124_14 C 0.57681(6) 0.84110(6) 0.05820(6)
C125_14 C 0.59257(6) 0.81460(6) 0.07532(6)
C126_14 C 0.55988(6) 0.82435(6) 0.08423(7)
C127_14 C 0.61119(6) 0.80162(6) 0.07901(6)
C128_14 C 0.62903(7) 0.80300(7) 0.06645(7)
H81_14 H 0.6295 0.8123 0.0549
C129_14 C 0.64590(7) 0.79057(8) 0.07116(8)
H82_14 H 0.6582 0.7911 0.0629
C130_14 C 0.64468(7) 0.77702(7) 0.08839(7)
H83_14 H 0.6564 0.7685 0.0915
C131_14 C 0.61152(6) 0.78774(6) 0.09586(6)
H84_14 H 0.5995 0.7869 0.1044
C132_14 C 0.57481(8) 0.74936(7) 0.12171(9)
N42_14 N 0.51463(5) 0.84085(5) 0.11662(5)
N43_14 N 0.59752(5) 0.87505(5) 0.01547(5)
N44_14 N 0.55962(5) 0.83953(5) 0.06987(5)
N45_14 N 0.57594(5) 0.81116(5) 0.08748(6)
N46_14 N 0.59389(5) 0.82907(5) 0.06020(5)
N47_14 N 0.62772(5) 0.77562(5) 0.10058(5)
N48_14 N 0.59256(6) 0.75124(5) 0.12318(5)
S6_14 S 0.54973(3) 0.74673(3) 0.11977(7)
C133_14 C 0.48987(7) 0.67701(7) 0.37344(7)
H85_14 H 0.5010 0.6770 0.3637
C134_14 C 0.47925(8) 0.69533(7) 0.37652(8)
H86_14 H 0.4831 0.7076 0.3691
C135_14 C 0.46263(7) 0.69589(8) 0.39078(8)
H87_14 H 0.4548 0.7083 0.3930
C136_14 C 0.45818(6) 0.67748(6) 0.40156(7)
C137_14 C 0.46997(6) 0.65970(6) 0.39746(6)
H88_14 H 0.4669 0.6473 0.4050
C139_14 C 0.40471(6) 0.64037(6) 0.47032(6)
H89_14 H 0.3938 0.6502 0.4688
C140_14 C 0.42235(6) 0.64240(6) 0.45790(6)
C141_14 C 0.43854(7) 0.62773(7) 0.46012(7)
H90_14 H 0.4507 0.6285 0.4516
C142_14 C 0.43636(7) 0.61228(8) 0.47493(8)
H91_14 H 0.4471 0.6023 0.4771
C143_14 C 0.41811(7) 0.61146(7) 0.48671(7)
H92_14 H 0.4168 0.6007 0.4968
C144_14 C 0.42319(6) 0.65890(6) 0.44180(6)
C145_14 C 0.40743(6) 0.68540(6) 0.42468(6)
C146_14 C 0.44012(6) 0.67565(6) 0.41577(7)
C147_14 C 0.38881(6) 0.69838(6) 0.42099(6)
C148_14 C 0.37097(7) 0.69700(7) 0.43355(7)
H93_14 H 0.3705 0.6877 0.4451
C149_14 C 0.35410(7) 0.70943(8) 0.42884(8)
H94_14 H 0.3418 0.7089 0.4371
C150_14 C 0.35532(7) 0.72298(7) 0.41161(7)
H95_14 H 0.3436 0.7315 0.4085
C151_14 C 0.38848(6) 0.71226(6) 0.40414(6)
H96_14 H 0.4005 0.7131 0.3956
N50_14 N 0.48537(5) 0.65915(5) 0.38338(5)
N52_14 N 0.44038(5) 0.66047(5) 0.43013(5)
N53_14 N 0.42406(5) 0.68884(5) 0.41252(6)
N54_14 N 0.40611(5) 0.67093(5) 0.43980(5)
N55_14 N 0.37228(5) 0.72438(5) 0.39942(5)
C152_14 C 0.53238(6) 0.65478(6) 0.35118(6)
N56_14 N 0.52456(5) 0.64286(5) 0.36273(5)
S8_14 S 0.541831(19) 0.671973(19) 0.335199(19)
C153_6 C 0.74936(7) 0.62829(9) 0.17519(8)
N57_6 N 0.75124(5) 0.62682(5) 0.15744(6)
S9_6 S 0.74673(3) 0.63023(7) 0.20027(3)
Co15_6 Co 0.6250 0.497883(12) 0.1250
Co16_10 Co 0.497883(12) 0.6250 0.1250
Co17_14 Co 0.3750 0.747883(12) 0.3750
N64_14 N 0.51463(5) 0.63338(5) 0.40915(5)
N69_6 N 0.77562(5) 0.64942(5) 0.12228(5)
N70_6 N 0.73025(5) 0.65109(6) 0.12489(5)
N71_6 N 0.62511(5) 0.73025(5) 0.09891(6)
H37_6 H 0.8230 0.6363 0.9990
C20_11 C 0.12829(9) 0.07481(8) 0.00064(7)
C21_15 C 0.16733(7) 0.11159(8) 0.01726(7)
H13_15 H 0.1660 0.1009 0.0071
C22_15 C 0.18527(8) 0.11252(8) 0.02852(8)
H14_15 H 0.1961 0.1027 0.0262
C23_15 C 0.18761(7) 0.12818(8) 0.04369(8)
H15_15 H 0.2000 0.1293 0.0517
C24_15 C 0.17105(7) 0.14202(7) 0.04663(7)
C25_15 C 0.15334(6) 0.14013(6) 0.03441(6)
H16_15 H 0.1423 0.1498 0.0364
C26_15 C 0.17216(7) 0.15834(7) 0.06299(7)
N9_11 N 0.15109(6) 0.12511(5) 0.01975(5)
N10_15 N 0.18743(5) 0.15705(6) 0.07681(6)
S2_11 S 0.13023(7) 0.04973(3) 0.00327(3)
C27_15 C 0.11159(8) 0.23274(7) 0.08267(7)
H17_15 H 0.1009 0.2429 0.0840
C28_15 C 0.11252(8) 0.22148(8) 0.06473(8)
H18_15 H 0.1027 0.2238 0.0539
C29_15 C 0.12818(8) 0.20631(8) 0.06239(7)
H19_15 H 0.1293 0.1983 0.0500
C30_15 C 0.14202(7) 0.20337(7) 0.07895(7)
C31_15 C 0.14013(6) 0.21559(6) 0.09666(6)
H20_15 H 0.1498 0.2136 0.1077
C32_15 C 0.15834(7) 0.18701(7) 0.07784(7)
N11_15 N 0.12511(5) 0.23025(5) 0.09891(6)
N12_15 N 0.15705(6) 0.17319(6) 0.06257(5)
C33_15 C 0.23274(7) 0.16733(7) 0.13841(8)
H21_15 H 0.2429 0.1660 0.1491
C34_15 C 0.22148(8) 0.18527(8) 0.13748(8)
H22_15 H 0.2238 0.1961 0.1473
C35_15 C 0.20631(8) 0.18761(7) 0.12182(8)
H23_15 H 0.1983 0.2000 0.1207
C36_15 C 0.20337(7) 0.17105(7) 0.10798(7)
C37_15 C 0.21559(6) 0.15334(6) 0.10987(6)
H24_15 H 0.2136 0.1423 0.1002
C38_15 C 0.18701(7) 0.17216(7) 0.09166(7)
N13_11 N 0.23025(5) 0.15109(6) 0.12489(5)
N14_15 N 0.17319(6) 0.18743(5) 0.09295(6)
Co3_7 Co 0.1250 0.252117(12) 0.1250
C39_15 C 0.01013(7) 0.32299(7) 0.12656(7)
C40_15 C 0.02075(8) 0.30467(7) 0.12348(8)
H26_15 H 0.0169 0.2924 0.1309
C41_15 C 0.03737(7) 0.30411(8) 0.10922(8)
H27_15 H 0.0452 0.2917 0.1070
C42_15 C 0.04182(6) 0.32252(6) 0.09844(7)
C43_15 C 0.03003(6) 0.34030(6) 0.10254(6)
H28_15 H 0.0331 0.3527 0.0950
C44_15 C 0.09529(6) 0.35963(6) 0.02968(6)
H29_15 H 0.1062 0.3498 0.0312
C45_15 C 0.07765(6) 0.35760(6) 0.04210(6)
C46_15 C 0.06146(7) 0.37227(7) 0.03988(7)
H30_15 H 0.0493 0.3715 0.0484
C47_15 C 0.06364(7) 0.38772(8) 0.02507(8)
H31_15 H 0.0529 0.3977 0.0229
C48_15 C 0.08189(7) 0.38854(7) 0.01329(7)
H32_15 H 0.0832 0.3993 0.0032
C49_15 C 0.07681(6) 0.34110(6) 0.05820(6)
C50_15 C 0.09257(6) 0.31460(6) 0.07532(6)
C51_15 C 0.05988(6) 0.32435(6) 0.08423(7)
C52_15 C 0.11119(6) 0.30162(6) 0.07901(6)
C53_15 C 0.12903(7) 0.30300(7) 0.06645(7)
H33_15 H 0.1295 0.3123 0.0549
C54_15 C 0.14590(7) 0.29057(8) 0.07116(8)
H34_15 H 0.1582 0.2911 0.0629
C55_15 C 0.14468(7) 0.27702(7) 0.08839(7)
H35_15 H 0.1564 0.2685 0.0915
C56_15 C 0.11152(6) 0.28774(6) 0.09586(6)
H36_15 H 0.0995 0.2869 0.1044
C57_15 C 0.07481(8) 0.24936(7) 0.12171(9)
N15_15 N 0.01463(5) 0.34085(5) 0.11662(5)
N16_15 N 0.09752(5) 0.37505(5) 0.01547(5)
N17_15 N 0.05962(5) 0.33953(5) 0.06987(5)
N18_15 N 0.07594(5) 0.31116(5) 0.08748(6)
N19_15 N 0.09389(5) 0.32907(5) 0.06020(5)
N20_15 N 0.12772(5) 0.27562(5) 0.10058(5)
N21_15 N 0.09256(6) 0.25124(5) 0.12318(5)
S3_15 S 0.04973(3) 0.24673(3) 0.11977(7)
C76_7 C 0.00064(7) 0.12171(9) 0.17519(8)
C77_7 C 0.01726(7) 0.08267(7) 0.13841(8)
H49_7 H 0.0071 0.0840 0.1491
C78_7 C 0.02852(8) 0.06473(8) 0.13748(8)
H50_7 H 0.0262 0.0539 0.1473
C79_7 C 0.04369(8) 0.06239(7) 0.12182(8)
H51_7 H 0.0517 0.0500 0.1207
C80_7 C 0.04663(7) 0.07895(7) 0.10798(7)
C81_7 C 0.03441(6) 0.09666(6) 0.10987(6)
H52_7 H 0.0364 0.1077 0.1002
C82_7 C 0.06299(7) 0.07784(7) 0.09166(7)
N29_7 N 0.01975(5) 0.09891(6) 0.12489(5)
N30_7 N 0.07681(6) 0.06257(5) 0.09295(6)
S4_7 S 0.00327(3) 0.11977(7) 0.20027(3)
C83_7 C 0.08267(7) 0.13841(8) 0.01726(7)
H53_7 H 0.0840 0.1491 0.0071
C84_7 C 0.06473(8) 0.13748(8) 0.02852(8)
H54_7 H 0.0539 0.1473 0.0262
C85_7 C 0.06239(7) 0.12182(8) 0.04369(8)
H55_7 H 0.0500 0.1207 0.0517
C86_7 C 0.07895(7) 0.10798(7) 0.04663(7)
C87_7 C 0.09666(6) 0.10987(6) 0.03441(6)
H56_7 H 0.1077 0.1002 0.0364
C88_7 C 0.07784(7) 0.09166(7) 0.06299(7)
N31_7 N 0.09891(6) 0.12489(5) 0.01975(5)
N32_7 N 0.06257(5) 0.09295(6) 0.07681(6)
C89_7 C 0.13841(8) 0.01726(7) 0.08267(7)
H57_7 H 0.1491 0.0071 0.0840
C90_7 C 0.13748(8) 0.02852(8) 0.06473(8)
H58_7 H 0.1473 0.0262 0.0539
C91_7 C 0.12182(8) 0.04369(8) 0.06239(7)
H59_7 H 0.1207 0.0517 0.0500
C92_7 C 0.10798(7) 0.04663(7) 0.07895(7)
C93_7 C 0.10987(6) 0.03441(6) 0.09666(6)
H60_7 H 0.1002 0.0364 0.1077
C94_7 C 0.09166(7) 0.06299(7) 0.07784(7)
N33_7 N 0.12489(5) 0.01975(5) 0.09891(6)
N34_7 N 0.09295(6) 0.07681(6) 0.06257(5)
C113_11 C 0.12171(9) 0.17519(8) 0.00064(7)
S5_11 S 0.11977(7) 0.20027(3) 0.00327(3)
C114_15 C 0.23987(7) 0.32299(7) 0.12344(7)
H73_15 H 0.2510 0.3230 0.1137
C115_15 C 0.22925(8) 0.30467(7) 0.12652(8)
H74_15 H 0.2331 0.2924 0.1191
C116_15 C 0.21263(7) 0.30411(8) 0.14078(8)
H75_15 H 0.2048 0.2917 0.1430
C117_15 C 0.20818(6) 0.32252(6) 0.15156(7)
C118_15 C 0.21997(6) 0.34030(6) 0.14746(6)
H76_15 H 0.2169 0.3527 0.1550
C119_15 C 0.15471(6) 0.35963(6) 0.22032(6)
H77_15 H 0.1438 0.3498 0.2188
C120_15 C 0.17235(6) 0.35760(6) 0.20790(6)
C121_15 C 0.18854(7) 0.37227(7) 0.21012(7)
H78_15 H 0.2007 0.3715 0.2016
C122_15 C 0.18636(7) 0.38772(8) 0.22493(8)
H79_15 H 0.1971 0.3977 0.2271
C123_15 C 0.16811(7) 0.38854(7) 0.23671(7)
H80_15 H 0.1668 0.3993 0.2468
C124_15 C 0.17319(6) 0.34110(6) 0.19180(6)
C125_15 C 0.15743(6) 0.31460(6) 0.17468(6)
C126_15 C 0.19012(6) 0.32435(6) 0.16577(7)
C127_15 C 0.13881(6) 0.30162(6) 0.17099(6)
C128_15 C 0.12097(7) 0.30300(7) 0.18355(7)
H81_15 H 0.1205 0.3123 0.1951
C129_15 C 0.10410(7) 0.29057(8) 0.17884(8)
H82_15 H 0.0918 0.2911 0.1871
C130_15 C 0.10532(7) 0.27702(7) 0.16161(7)
H83_15 H 0.0936 0.2685 0.1585
C131_15 C 0.13848(6) 0.28774(6) 0.15414(6)
H84_15 H 0.1505 0.2869 0.1456
C132_15 C 0.17519(8) 0.24936(7) 0.12829(9)
N42_15 N 0.23537(5) 0.34085(5) 0.13338(5)
N43_15 N 0.15248(5) 0.37505(5) 0.23453(5)
N44_15 N 0.19038(5) 0.33953(5) 0.18013(5)
N45_15 N 0.17406(5) 0.31116(5) 0.16252(6)
N46_15 N 0.15611(5) 0.32907(5) 0.18980(5)
N47_15 N 0.12228(5) 0.27562(5) 0.14942(5)
N48_15 N 0.15744(6) 0.25124(5) 0.12682(5)
S6_15 S 0.20027(3) 0.24673(3) 0.13023(7)
C153_7 C 0.00064(7) 0.12829(9) 0.07481(8)
S9_7 S 0.00327(3) 0.13023(7) 0.04973(3)
Co16_11 Co 0.252117(12) 0.1250 0.1250
N70_7 N 0.01975(5) 0.15109(6) 0.12511(5)
N71_7 N 0.12489(5) 0.23025(5) 0.15109(6)
Co2_7 Co 0.1250 0.1250 0.997883(12)
C1_15 C 0.12344(7) 0.01013(7) 0.92701(7)
C2_15 C 0.12652(8) 0.02075(8) 0.94533(7)
H2_15 H 0.1191 0.0169 0.9576
C3_15 C 0.14078(8) 0.03737(7) 0.94589(8)
H3_15 H 0.1430 0.0452 0.9583
C4_15 C 0.15156(7) 0.04182(6) 0.92748(6)
C5_15 C 0.14746(6) 0.03003(6) 0.90970(6)
H4_15 H 0.1550 0.0331 0.8973
C6_15 C 0.28238(6) 0.10118(6) 0.84522(6)
C7_15 C 0.22032(6) 0.09529(6) 0.89037(6)
H5_15 H 0.2188 0.1062 0.9002
C8_15 C 0.20790(6) 0.07765(6) 0.89240(6)
C9_15 C 0.21012(7) 0.06146(7) 0.87773(7)
H6_15 H 0.2016 0.0493 0.8785
C10_15 C 0.22493(8) 0.06364(7) 0.86228(8)
H7_15 H 0.2271 0.0529 0.8523
C11_15 C 0.23671(7) 0.08189(7) 0.86146(7)
H8_15 H 0.2468 0.0832 0.8507
C12_15 C 0.19180(6) 0.07681(6) 0.90890(6)
C13_15 C 0.17468(6) 0.09257(6) 0.93540(6)
C14_15 C 0.16577(7) 0.05988(6) 0.92565(6)
C15_15 C 0.17099(6) 0.11119(6) 0.94838(6)
C16_15 C 0.18355(7) 0.12903(7) 0.94700(7)
H9_15 H 0.1951 0.1295 0.9377
C17_15 C 0.17884(8) 0.14590(7) 0.95943(8)
H10_15 H 0.1871 0.1582 0.9589
C18_15 C 0.16161(7) 0.14468(7) 0.97298(7)
H11_15 H 0.1585 0.1564 0.9815
C19_15 C 0.15414(6) 0.11152(6) 0.96226(6)
H12_15 H 0.1456 0.0995 0.9631
N1_15 N 0.27456(5) 0.11273(5) 0.85714(5)
N3_15 N 0.23453(5) 0.09752(5) 0.87495(5)
N4_15 N 0.18013(5) 0.05962(5) 0.91047(5)
N5_15 N 0.16252(6) 0.07594(5) 0.93884(5)
N6_15 N 0.18980(5) 0.09389(5) 0.92093(5)
N7_11 N 0.14942(5) 0.12772(5) 0.97438(5)
N8_11 N 0.12682(5) 0.09256(6) 0.99876(5)
S1_15 S 0.291831(19) 0.085199(19) 0.828027(19)
C95_11 C 0.12656(7) 0.23987(7) 0.92701(7)
H61_11 H 0.1363 0.2510 0.9270
C96_11 C 0.12348(8) 0.22925(8) 0.94533(7)
H62_11 H 0.1309 0.2331 0.9576
C97_11 C 0.10922(8) 0.21263(7) 0.94589(8)
H63_11 H 0.1070 0.2048 0.9583
C98_11 C 0.09844(7) 0.20818(6) 0.92748(6)
C99_11 C 0.10254(6) 0.21997(6) 0.90970(6)
H64_11 H 0.0950 0.2169 0.8973
C100_11 C 0.02968(6) 0.15471(6) 0.89037(6)
H65_11 H 0.0312 0.1438 0.9002
C101_11 C 0.04210(6) 0.17235(6) 0.89240(6)
C102_11 C 0.03988(7) 0.18854(7) 0.87773(7)
H66_11 H 0.0484 0.2007 0.8785
C103_11 C 0.02507(8) 0.18636(7) 0.86228(8)
H67_11 H 0.0229 0.1971 0.8523
C104_11 C 0.01329(7) 0.16811(7) 0.86146(7)
H68_11 H 0.0032 0.1668 0.8507
C105_11 C 0.05820(6) 0.17319(6) 0.90890(6)
C106_11 C 0.07532(6) 0.15743(6) 0.93540(6)
C107_11 C 0.08423(7) 0.19012(6) 0.92565(6)
C108_11 C 0.07901(6) 0.13881(6) 0.94838(6)
C109_11 C 0.06645(7) 0.12097(7) 0.94700(7)
H69_11 H 0.0549 0.1205 0.9377
C110_11 C 0.07116(8) 0.10410(7) 0.95943(8)
H70_11 H 0.0629 0.0918 0.9589
C111_11 C 0.08839(7) 0.10532(7) 0.97298(7)
H71_11 H 0.0915 0.0936 0.9815
C112_11 C 0.09586(6) 0.13848(6) 0.96226(6)
H72_11 H 0.1044 0.1505 0.9631
N35_11 N 0.11662(5) 0.23537(5) 0.90915(5)
N37_11 N 0.06987(5) 0.19038(5) 0.91047(5)
N38_11 N 0.08748(6) 0.17406(5) 0.93884(5)
N39_11 N 0.06020(5) 0.15611(5) 0.92093(5)
N40_11 N 0.10058(5) 0.12228(5) 0.97438(5)
N41_11 N 0.12318(5) 0.15744(6) 0.99876(5)
C133_15 C 0.26013(7) 0.17701(7) 0.87656(7)
H85_15 H 0.2490 0.1770 0.8863
C134_15 C 0.27075(8) 0.19533(7) 0.87348(8)
H86_15 H 0.2669 0.2076 0.8809
C135_15 C 0.28737(7) 0.19589(8) 0.85922(8)
H87_15 H 0.2952 0.2083 0.8570
C136_15 C 0.29182(6) 0.17748(6) 0.84844(7)
C137_15 C 0.28003(6) 0.15970(6) 0.85254(6)
H88_15 H 0.2831 0.1473 0.8450
C139_15 C 0.34529(6) 0.14037(6) 0.77968(6)
H89_15 H 0.3562 0.1502 0.7812
C140_15 C 0.32765(6) 0.14240(6) 0.79210(6)
C141_15 C 0.31146(7) 0.12773(7) 0.78988(7)
H90_15 H 0.2993 0.1285 0.7984
C142_15 C 0.31364(7) 0.11228(8) 0.77507(8)
H91_15 H 0.3029 0.1023 0.7729
C143_15 C 0.33189(7) 0.11146(7) 0.76329(7)
H92_15 H 0.3332 0.1007 0.7532
C144_15 C 0.32681(6) 0.15890(6) 0.80820(6)
C145_15 C 0.34257(6) 0.18540(6) 0.82532(6)
C146_15 C 0.30988(6) 0.17565(6) 0.83423(7)
C147_15 C 0.36119(6) 0.19838(6) 0.82901(6)
C148_15 C 0.37903(7) 0.19700(7) 0.81645(7)
H93_15 H 0.3795 0.1877 0.8049
C149_15 C 0.39590(7) 0.20943(8) 0.82116(8)
H94_15 H 0.4082 0.2089 0.8129
C150_15 C 0.39468(7) 0.22298(7) 0.83839(7)
H95_15 H 0.4064 0.2315 0.8415
C151_15 C 0.36152(6) 0.21226(6) 0.84586(6)
H96_15 H 0.3495 0.2131 0.8544
N50_15 N 0.26463(5) 0.15915(5) 0.86662(5)
N52_15 N 0.30962(5) 0.16047(5) 0.81987(5)
N53_15 N 0.32594(5) 0.18884(5) 0.83748(6)
N54_15 N 0.34389(5) 0.17093(5) 0.81020(5)
N55_15 N 0.37772(5) 0.22438(5) 0.85058(5)
C152_15 C 0.21762(6) 0.15478(6) 0.89882(6)
N56_15 N 0.22544(5) 0.14286(5) 0.88727(5)
S8_15 S 0.208169(19) 0.171973(19) 0.914801(19)
Co17_15 Co 0.3750 0.247883(12) 0.8750
N64_15 N 0.23537(5) 0.13338(5) 0.84085(5)
Co15_7 Co 0.1250 0.997883(12) 0.1250
H1_15 H 0.1137 0.9990 0.9270
H25_15 H 0.9990 0.3230 0.1363
Co4_7 Co 0.997883(12) 0.1250 0.1250
C58_7 C 0.92701(7) 0.12656(7) 0.23987(7)
H37_7 H 0.9270 0.1363 0.2510
C59_7 C 0.94533(7) 0.12348(8) 0.22925(8)
H38_7 H 0.9576 0.1309 0.2331
C60_7 C 0.94589(8) 0.10922(8) 0.21263(7)
H39_7 H 0.9583 0.1070 0.2048
C61_7 C 0.92748(6) 0.09844(7) 0.20818(6)
C62_7 C 0.90970(6) 0.10254(6) 0.21997(6)
H40_7 H 0.8973 0.0950 0.2169
C63_7 C 0.89037(6) 0.02968(6) 0.15471(6)
H41_7 H 0.9002 0.0312 0.1438
C64_7 C 0.89240(6) 0.04210(6) 0.17235(6)
C65_7 C 0.87773(7) 0.03988(7) 0.18854(7)
H42_7 H 0.8785 0.0484 0.2007
C66_7 C 0.86228(8) 0.02507(8) 0.18636(7)
H43_7 H 0.8523 0.0229 0.1971
C67_7 C 0.86146(7) 0.01329(7) 0.16811(7)
H44_7 H 0.8507 0.0032 0.1668
C68_7 C 0.90890(6) 0.05820(6) 0.17319(6)
C69_7 C 0.93540(6) 0.07532(6) 0.15743(6)
C70_7 C 0.92565(6) 0.08423(7) 0.19012(6)
C71_7 C 0.94838(6) 0.07901(6) 0.13881(6)
C72_7 C 0.94700(7) 0.06645(7) 0.12097(7)
H45_7 H 0.9377 0.0549 0.1205
C73_7 C 0.95943(8) 0.07116(8) 0.10410(7)
H46_7 H 0.9589 0.0629 0.0918
C74_7 C 0.97298(7) 0.08839(7) 0.10532(7)
H47_7 H 0.9815 0.0915 0.0936
C75_7 C 0.96226(6) 0.09586(6) 0.13848(6)
H48_7 H 0.9631 0.1044 0.1505
N22_7 N 0.90915(5) 0.11662(5) 0.23537(5)
N24_7 N 0.91047(5) 0.06987(5) 0.19038(5)
N25_7 N 0.93884(5) 0.08748(6) 0.17406(5)
N26_7 N 0.92093(5) 0.06020(5) 0.15611(5)
N27_7 N 0.97438(5) 0.10058(5) 0.12228(5)
N28_7 N 0.99876(5) 0.12318(5) 0.15744(6)
N57_7 N 0.99876(5) 0.12682(5) 0.09256(6)
N69_7 N 0.97438(5) 0.14942(5) 0.12772(5)
Co2_8 Co 0.1250 0.6250 0.497883(12)
C1_16 C 0.12656(7) 0.73987(7) 0.42701(7)
H1_16 H 0.1363 0.7510 0.4270
C2_16 C 0.12348(8) 0.72925(8) 0.44533(7)
H2_16 H 0.1309 0.7331 0.4576
C3_16 C 0.10922(8) 0.71263(7) 0.44589(8)
H3_16 H 0.1070 0.7048 0.4583
C4_16 C 0.09844(7) 0.70818(6) 0.42748(6)
C5_16 C 0.10254(6) 0.71997(6) 0.40970(6)
H4_16 H 0.0950 0.7169 0.3973
C7_16 C 0.02968(6) 0.65471(6) 0.39037(6)
H5_16 H 0.0312 0.6438 0.4002
C8_16 C 0.04210(6) 0.67235(6) 0.39240(6)
C9_16 C 0.03988(7) 0.68854(7) 0.37773(7)
H6_16 H 0.0484 0.7007 0.3785
C10_16 C 0.02507(8) 0.68636(7) 0.36228(8)
H7_16 H 0.0229 0.6971 0.3523
C11_16 C 0.01329(7) 0.66811(7) 0.36146(7)
H8_16 H 0.0032 0.6668 0.3507
C12_16 C 0.05820(6) 0.67319(6) 0.40890(6)
C13_16 C 0.07532(6) 0.65743(6) 0.43540(6)
C14_16 C 0.08423(7) 0.69012(6) 0.42565(6)
C15_16 C 0.07901(6) 0.63881(6) 0.44838(6)
C16_16 C 0.06645(7) 0.62097(7) 0.44700(7)
H9_16 H 0.0549 0.6205 0.4377
C17_16 C 0.07116(8) 0.60410(7) 0.45943(8)
H10_16 H 0.0629 0.5918 0.4589
C18_16 C 0.08839(7) 0.60532(7) 0.47298(7)
H11_16 H 0.0915 0.5936 0.4815
C19_16 C 0.09586(6) 0.63848(6) 0.46226(6)
H12_16 H 0.1044 0.6505 0.4631
C20_12 C 0.12171(9) 0.67519(8) 0.50064(7)
C21_16 C 0.08267(7) 0.63841(8) 0.51726(7)
H13_16 H 0.0840 0.6491 0.5071
C22_16 C 0.06473(8) 0.63748(8) 0.52852(8)
H14_16 H 0.0539 0.6473 0.5262
C23_16 C 0.06239(7) 0.62182(8) 0.54369(8)
H15_16 H 0.0500 0.6207 0.5517
C24_16 C 0.07895(7) 0.60798(7) 0.54663(7)
C25_16 C 0.09666(6) 0.60987(6) 0.53441(6)
H16_16 H 0.1077 0.6002 0.5364
C26_16 C 0.07784(7) 0.59166(7) 0.56299(7)
N3_16 N 0.01547(5) 0.65248(5) 0.37495(5)
N4_16 N 0.06987(5) 0.69038(5) 0.41047(5)
N5_16 N 0.08748(6) 0.67406(5) 0.43884(5)
N6_16 N 0.06020(5) 0.65611(5) 0.42093(5)
N7_12 N 0.10058(5) 0.62228(5) 0.47438(5)
N8_12 N 0.12318(5) 0.65744(6) 0.49876(5)
N9_12 N 0.09891(6) 0.62489(5) 0.51975(5)
N10_16 N 0.06257(5) 0.59295(6) 0.57681(6)
S2_12 S 0.11977(7) 0.70027(3) 0.50327(3)
C27_16 C 0.13841(8) 0.51726(7) 0.58267(7)
H17_16 H 0.1491 0.5071 0.5840
C28_16 C 0.13748(8) 0.52852(8) 0.56473(8)
H18_16 H 0.1473 0.5262 0.5539
C29_16 C 0.12182(8) 0.54369(8) 0.56239(7)
H19_16 H 0.1207 0.5517 0.5500
C30_16 C 0.10798(7) 0.54663(7) 0.57895(7)
C31_16 C 0.10987(6) 0.53441(6) 0.59666(6)
H20_16 H 0.1002 0.5364 0.6077
C32_16 C 0.09166(7) 0.56299(7) 0.57784(7)
N11_16 N 0.12489(5) 0.51975(5) 0.59891(6)
N12_16 N 0.09295(6) 0.57681(6) 0.56257(5)
C33_16 C 0.01726(7) 0.58267(7) 0.63841(8)
H21_16 H 0.0071 0.5840 0.6491
C34_16 C 0.02852(8) 0.56473(8) 0.63748(8)
H22_16 H 0.0262 0.5539 0.6473
C35_16 C 0.04369(8) 0.56239(7) 0.62182(8)
H23_16 H 0.0517 0.5500 0.6207
C36_16 C 0.04663(7) 0.57895(7) 0.60798(7)
C37_16 C 0.03441(6) 0.59666(6) 0.60987(6)
H24_16 H 0.0364 0.6077 0.6002
C38_16 C 0.06299(7) 0.57784(7) 0.59166(7)
N13_12 N 0.01975(5) 0.59891(6) 0.62489(5)
N14_16 N 0.07681(6) 0.56257(5) 0.59295(6)
Co3_8 Co 0.1250 0.497883(12) 0.6250
C39_16 C 0.23987(7) 0.42701(7) 0.62656(7)
H25_16 H 0.2510 0.4270 0.6363
C40_16 C 0.22925(8) 0.44533(7) 0.62348(8)
H26_16 H 0.2331 0.4576 0.6309
C41_16 C 0.21263(7) 0.44589(8) 0.60922(8)
H27_16 H 0.2048 0.4583 0.6070
C42_16 C 0.20818(6) 0.42748(6) 0.59844(7)
C43_16 C 0.21997(6) 0.40970(6) 0.60254(6)
H28_16 H 0.2169 0.3973 0.5950
C44_16 C 0.15471(6) 0.39037(6) 0.52968(6)
H29_16 H 0.1438 0.4002 0.5312
C45_16 C 0.17235(6) 0.39240(6) 0.54210(6)
C46_16 C 0.18854(7) 0.37773(7) 0.53988(7)
H30_16 H 0.2007 0.3785 0.5484
C47_16 C 0.18636(7) 0.36228(8) 0.52507(8)
H31_16 H 0.1971 0.3523 0.5229
C48_16 C 0.16811(7) 0.36146(7) 0.51329(7)
H32_16 H 0.1668 0.3507 0.5032
C49_16 C 0.17319(6) 0.40890(6) 0.55820(6)
C50_16 C 0.15743(6) 0.43540(6) 0.57532(6)
C51_16 C 0.19012(6) 0.42565(6) 0.58423(7)
C52_16 C 0.13881(6) 0.44838(6) 0.57901(6)
C53_16 C 0.12097(7) 0.44700(7) 0.56645(7)
H33_16 H 0.1205 0.4377 0.5549
C54_16 C 0.10410(7) 0.45943(8) 0.57116(8)
H34_16 H 0.0918 0.4589 0.5629
C55_16 C 0.10532(7) 0.47298(7) 0.58839(7)
H35_16 H 0.0936 0.4815 0.5915
C56_16 C 0.13848(6) 0.46226(6) 0.59586(6)
H36_16 H 0.1505 0.4631 0.6044
C57_16 C 0.17519(8) 0.50064(7) 0.62171(9)
N15_16 N 0.23537(5) 0.40915(5) 0.61662(5)
N16_16 N 0.15248(5) 0.37495(5) 0.51547(5)
N17_16 N 0.19038(5) 0.41047(5) 0.56987(5)
N18_16 N 0.17406(5) 0.43884(5) 0.58748(6)
N19_16 N 0.15611(5) 0.42093(5) 0.56020(5)
N20_16 N 0.12228(5) 0.47438(5) 0.60058(5)
N21_16 N 0.15744(6) 0.49876(5) 0.62318(5)
S3_16 S 0.20027(3) 0.50327(3) 0.61977(7)
Co4_8 Co 0.252117(12) 0.6250 0.6250
C58_8 C 0.32299(7) 0.62344(7) 0.73987(7)
H37_8 H 0.3230 0.6137 0.7510
C59_8 C 0.30467(7) 0.62652(8) 0.72925(8)
H38_8 H 0.2924 0.6191 0.7331
C60_8 C 0.30411(8) 0.64078(8) 0.71263(7)
H39_8 H 0.2917 0.6430 0.7048
C61_8 C 0.32252(6) 0.65156(7) 0.70818(6)
C62_8 C 0.34030(6) 0.64746(6) 0.71997(6)
H40_8 H 0.3527 0.6550 0.7169
C63_8 C 0.35963(6) 0.72032(6) 0.65471(6)
H41_8 H 0.3498 0.7188 0.6438
C64_8 C 0.35760(6) 0.70790(6) 0.67235(6)
C65_8 C 0.37227(7) 0.71012(7) 0.68854(7)
H42_8 H 0.3715 0.7016 0.7007
C66_8 C 0.38772(8) 0.72493(8) 0.68636(7)
H43_8 H 0.3977 0.7271 0.6971
C67_8 C 0.38854(7) 0.73671(7) 0.66811(7)
H44_8 H 0.3993 0.7468 0.6668
C68_8 C 0.34110(6) 0.69180(6) 0.67319(6)
C69_8 C 0.31460(6) 0.67468(6) 0.65743(6)
C70_8 C 0.32435(6) 0.66577(7) 0.69012(6)
C71_8 C 0.30162(6) 0.67099(6) 0.63881(6)
C72_8 C 0.30300(7) 0.68355(7) 0.62097(7)
H45_8 H 0.3123 0.6951 0.6205
C73_8 C 0.29057(8) 0.67884(8) 0.60410(7)
H46_8 H 0.2911 0.6871 0.5918
C74_8 C 0.27702(7) 0.66161(7) 0.60532(7)
H47_8 H 0.2685 0.6585 0.5936
C75_8 C 0.28774(6) 0.65414(6) 0.63848(6)
H48_8 H 0.2869 0.6456 0.6505
C76_8 C 0.24936(7) 0.62829(9) 0.67519(8)
C77_8 C 0.23274(7) 0.66733(7) 0.63841(8)
H49_8 H 0.2429 0.6660 0.6491
C78_8 C 0.22148(8) 0.68527(8) 0.63748(8)
H50_8 H 0.2238 0.6961 0.6473
C79_8 C 0.20631(8) 0.68761(7) 0.62182(8)
H51_8 H 0.1983 0.7000 0.6207
C80_8 C 0.20337(7) 0.67105(7) 0.60798(7)
C81_8 C 0.21559(6) 0.65334(6) 0.60987(6)
H52_8 H 0.2136 0.6423 0.6002
C82_8 C 0.18701(7) 0.67216(7) 0.59166(7)
N22_8 N 0.34085(5) 0.63338(5) 0.73537(5)
N24_8 N 0.33953(5) 0.68013(5) 0.69038(5)
N25_8 N 0.31116(5) 0.66252(6) 0.67406(5)
N26_8 N 0.32907(5) 0.68980(5) 0.65611(5)
N27_8 N 0.27562(5) 0.64942(5) 0.62228(5)
N28_8 N 0.25124(5) 0.62682(5) 0.65744(6)
N29_8 N 0.23025(5) 0.65109(6) 0.62489(5)
N30_8 N 0.17319(6) 0.68743(5) 0.59295(6)
S4_8 S 0.24673(3) 0.63023(7) 0.70027(3)
C83_8 C 0.16733(7) 0.61159(8) 0.51726(7)
H53_8 H 0.1660 0.6009 0.5071
C84_8 C 0.18527(8) 0.61252(8) 0.52852(8)
H54_8 H 0.1961 0.6027 0.5262
C85_8 C 0.18761(7) 0.62818(8) 0.54369(8)
H55_8 H 0.2000 0.6293 0.5517
C86_8 C 0.17105(7) 0.64202(7) 0.54663(7)
C87_8 C 0.15334(6) 0.64013(6) 0.53441(6)
H56_8 H 0.1423 0.6498 0.5364
C88_8 C 0.17216(7) 0.65834(7) 0.56299(7)
N31_8 N 0.15109(6) 0.62511(5) 0.51975(5)
N32_8 N 0.18743(5) 0.65705(6) 0.57681(6)
C89_8 C 0.11159(8) 0.73274(7) 0.58267(7)
H57_8 H 0.1009 0.7429 0.5840
C90_8 C 0.11252(8) 0.72148(8) 0.56473(8)
H58_8 H 0.1027 0.7238 0.5539
C91_8 C 0.12818(8) 0.70631(8) 0.56239(7)
H59_8 H 0.1293 0.6983 0.5500
C92_8 C 0.14202(7) 0.70337(7) 0.57895(7)
C93_8 C 0.14013(6) 0.71559(6) 0.59666(6)
H60_8 H 0.1498 0.7136 0.6077
C94_8 C 0.15834(7) 0.68701(7) 0.57784(7)
N33_8 N 0.12511(5) 0.73025(5) 0.59891(6)
N34_8 N 0.15705(6) 0.67319(6) 0.56257(5)
C95_12 C 0.12344(7) 0.51013(7) 0.42701(7)
H61_12 H 0.1137 0.4990 0.4270
C96_12 C 0.12652(8) 0.52075(8) 0.44533(7)
H62_12 H 0.1191 0.5169 0.4576
C97_12 C 0.14078(8) 0.53737(7) 0.44589(8)
H63_12 H 0.1430 0.5452 0.4583
C98_12 C 0.15156(7) 0.54182(6) 0.42748(6)
C99_12 C 0.14746(6) 0.53003(6) 0.40970(6)
H64_12 H 0.1550 0.5331 0.3973
C100_12 C 0.22032(6) 0.59529(6) 0.39037(6)
H65_12 H 0.2188 0.6062 0.4002
C101_12 C 0.20790(6) 0.57765(6) 0.39240(6)
C102_12 C 0.21012(7) 0.56146(7) 0.37773(7)
H66_12 H 0.2016 0.5493 0.3785
C103_12 C 0.22493(8) 0.56364(7) 0.36228(8)
H67_12 H 0.2271 0.5529 0.3523
C104_12 C 0.23671(7) 0.58189(7) 0.36146(7)
H68_12 H 0.2468 0.5832 0.3507
C105_12 C 0.19180(6) 0.57681(6) 0.40890(6)
C106_12 C 0.17468(6) 0.59257(6) 0.43540(6)
C107_12 C 0.16577(7) 0.55988(6) 0.42565(6)
C108_12 C 0.17099(6) 0.61119(6) 0.44838(6)
C109_12 C 0.18355(7) 0.62903(7) 0.44700(7)
H69_12 H 0.1951 0.6295 0.4377
C110_12 C 0.17884(8) 0.64590(7) 0.45943(8)
H70_12 H 0.1871 0.6582 0.4589
C111_12 C 0.16161(7) 0.64468(7) 0.47298(7)
H71_12 H 0.1585 0.6564 0.4815
C112_12 C 0.15414(6) 0.61152(6) 0.46226(6)
H72_12 H 0.1456 0.5995 0.4631
C113_12 C 0.12829(9) 0.57481(8) 0.50064(7)
N35_12 N 0.13338(5) 0.51463(5) 0.40915(5)
N37_12 N 0.18013(5) 0.55962(5) 0.41047(5)
N38_12 N 0.16252(6) 0.57594(5) 0.43884(5)
N39_12 N 0.18980(5) 0.59389(5) 0.42093(5)
N40_12 N 0.14942(5) 0.62772(5) 0.47438(5)
N41_12 N 0.12682(5) 0.59256(6) 0.49876(5)
S5_12 S 0.13023(7) 0.54973(3) 0.50327(3)
C114_16 C 0.01013(7) 0.42701(7) 0.62344(7)
C115_16 C 0.02075(8) 0.44533(7) 0.62652(8)
H74_16 H 0.0169 0.4576 0.6191
C116_16 C 0.03737(7) 0.44589(8) 0.64078(8)
H75_16 H 0.0452 0.4583 0.6430
C117_16 C 0.04182(6) 0.42748(6) 0.65156(7)
C118_16 C 0.03003(6) 0.40970(6) 0.64746(6)
H76_16 H 0.0331 0.3973 0.6550
C119_16 C 0.09529(6) 0.39037(6) 0.72032(6)
H77_16 H 0.1062 0.4002 0.7188
C120_16 C 0.07765(6) 0.39240(6) 0.70790(6)
C121_16 C 0.06146(7) 0.37773(7) 0.71012(7)
H78_16 H 0.0493 0.3785 0.7016
C122_16 C 0.06364(7) 0.36228(8) 0.72493(8)
H79_16 H 0.0529 0.3523 0.7271
C123_16 C 0.08189(7) 0.36146(7) 0.73671(7)
H80_16 H 0.0832 0.3507 0.7468
C124_16 C 0.07681(6) 0.40890(6) 0.69180(6)
C125_16 C 0.09257(6) 0.43540(6) 0.67468(6)
C126_16 C 0.05988(6) 0.42565(6) 0.66577(7)
C127_16 C 0.11119(6) 0.44838(6) 0.67099(6)
C128_16 C 0.12903(7) 0.44700(7) 0.68355(7)
H81_16 H 0.1295 0.4377 0.6951
C129_16 C 0.14590(7) 0.45943(8) 0.67884(8)
H82_16 H 0.1582 0.4589 0.6871
C130_16 C 0.14468(7) 0.47298(7) 0.66161(7)
H83_16 H 0.1564 0.4815 0.6585
C131_16 C 0.11152(6) 0.46226(6) 0.65414(6)
H84_16 H 0.0995 0.4631 0.6456
C132_16 C 0.07481(8) 0.50064(7) 0.62829(9)
N42_16 N 0.01463(5) 0.40915(5) 0.63338(5)
N43_16 N 0.09752(5) 0.37495(5) 0.73453(5)
N44_16 N 0.05962(5) 0.41047(5) 0.68013(5)
N45_16 N 0.07594(5) 0.43884(5) 0.66252(6)
N46_16 N 0.09389(5) 0.42093(5) 0.68980(5)
N47_16 N 0.12772(5) 0.47438(5) 0.64942(5)
N48_16 N 0.09256(6) 0.49876(5) 0.62682(5)
S6_16 S 0.04973(3) 0.50327(3) 0.63023(7)
H85_16 H 0.0010 0.5730 0.3863
C152_16 C 0.03238(6) 0.59522(6) 0.39882(6)
N56_16 N 0.02456(5) 0.60714(5) 0.38727(5)
S8_16 S 0.041831(19) 0.578027(19) 0.414801(19)
C153_8 C 0.24936(7) 0.62171(9) 0.57481(8)
N57_8 N 0.25124(5) 0.62318(5) 0.59256(6)
S9_8 S 0.24673(3) 0.61977(7) 0.54973(3)
Co15_8 Co 0.1250 0.752117(12) 0.6250
N64_16 N 0.01463(5) 0.61662(5) 0.34085(5)
N69_8 N 0.27562(5) 0.60058(5) 0.62772(5)
N70_8 N 0.23025(5) 0.59891(6) 0.62511(5)
N71_8 N 0.12511(5) 0.51975(5) 0.65109(6)
C6_16 C 0.96762(6) 0.64882(6) 0.34522(6)
N1_16 N 0.97544(5) 0.63727(5) 0.35714(5)
S1_16 S 0.958169(19) 0.664801(19) 0.328027(19)
H73_16 H 0.9990 0.4270 0.6137
C133_16 C 0.98987(7) 0.57299(7) 0.37656(7)
C134_16 C 0.97925(8) 0.55467(7) 0.37348(8)
H86_16 H 0.9831 0.5424 0.3809
C135_16 C 0.96263(7) 0.55411(8) 0.35922(8)
H87_16 H 0.9548 0.5417 0.3570
C136_16 C 0.95818(6) 0.57252(6) 0.34844(7)
C137_16 C 0.96997(6) 0.59030(6) 0.35254(6)
H88_16 H 0.9669 0.6027 0.3450
C139_16 C 0.90471(6) 0.60963(6) 0.27968(6)
H89_16 H 0.8938 0.5998 0.2812
C140_16 C 0.92235(6) 0.60760(6) 0.29210(6)
C141_16 C 0.93854(7) 0.62227(7) 0.28988(7)
H90_16 H 0.9507 0.6215 0.2984
C142_16 C 0.93636(7) 0.63772(8) 0.27507(8)
H91_16 H 0.9471 0.6477 0.2729
C143_16 C 0.91811(7) 0.63854(7) 0.26329(7)
H92_16 H 0.9168 0.6493 0.2532
C144_16 C 0.92319(6) 0.59110(6) 0.30820(6)
C145_16 C 0.90743(6) 0.56460(6) 0.32532(6)
C146_16 C 0.94012(6) 0.57435(6) 0.33423(7)
C147_16 C 0.88881(6) 0.55162(6) 0.32901(6)
C148_16 C 0.87097(7) 0.55300(7) 0.31645(7)
H93_16 H 0.8705 0.5623 0.3049
C149_16 C 0.85410(7) 0.54057(8) 0.32116(8)
H94_16 H 0.8418 0.5411 0.3129
C150_16 C 0.85532(7) 0.52702(7) 0.33839(7)
H95_16 H 0.8436 0.5185 0.3415
C151_16 C 0.88848(6) 0.53774(6) 0.34586(6)
H96_16 H 0.9005 0.5369 0.3544
N50_16 N 0.98537(5) 0.59085(5) 0.36662(5)
N52_16 N 0.94038(5) 0.58953(5) 0.31987(5)
N53_16 N 0.92406(5) 0.56116(5) 0.33748(6)
N54_16 N 0.90611(5) 0.57907(5) 0.31020(5)
N55_16 N 0.87228(5) 0.52562(5) 0.35058(5)
Co16_12 Co 0.997883(12) 0.6250 0.6250
Co17_16 Co 0.8750 0.502117(12) 0.3750
C1_17 C 0.73987(7) 0.42701(7) 0.12656(7)
H1_17 H 0.7510 0.4270 0.1363
C2_17 C 0.72925(8) 0.44533(7) 0.12348(8)
H2_17 H 0.7331 0.4576 0.1309
C3_17 C 0.71263(7) 0.44589(8) 0.10922(8)
H3_17 H 0.7048 0.4583 0.1070
C4_17 C 0.70818(6) 0.42748(6) 0.09844(7)
C5_17 C 0.71997(6) 0.40970(6) 0.10254(6)
H4_17 H 0.7169 0.3973 0.0950
C7_17 C 0.65471(6) 0.39037(6) 0.02968(6)
H5_17 H 0.6438 0.4002 0.0312
C8_17 C 0.67235(6) 0.39240(6) 0.04210(6)
C9_17 C 0.68854(7) 0.37773(7) 0.03988(7)
H6_17 H 0.7007 0.3785 0.0484
C10_17 C 0.68636(7) 0.36228(8) 0.02507(8)
H7_17 H 0.6971 0.3523 0.0229
C11_17 C 0.66811(7) 0.36146(7) 0.01329(7)
H8_17 H 0.6668 0.3507 0.0032
C12_17 C 0.67319(6) 0.40890(6) 0.05820(6)
C13_17 C 0.65743(6) 0.43540(6) 0.07532(6)
C14_17 C 0.69012(6) 0.42565(6) 0.08423(7)
C15_17 C 0.63881(6) 0.44838(6) 0.07901(6)
C16_17 C 0.62097(7) 0.44700(7) 0.06645(7)
H9_17 H 0.6205 0.4377 0.0549
C17_17 C 0.60410(7) 0.45943(8) 0.07116(8)
H10_17 H 0.5918 0.4589 0.0629
C18_17 C 0.60532(7) 0.47298(7) 0.08839(7)
H11_17 H 0.5936 0.4815 0.0915
C19_17 C 0.63848(6) 0.46226(6) 0.09586(6)
H12_17 H 0.6505 0.4631 0.1044
C20_13 C 0.67519(8) 0.50064(7) 0.12171(9)
C21_17 C 0.63841(8) 0.51726(7) 0.08267(7)
H13_17 H 0.6491 0.5071 0.0840
C22_17 C 0.63748(8) 0.52852(8) 0.06473(8)
H14_17 H 0.6473 0.5262 0.0539
C23_17 C 0.62182(8) 0.54369(8) 0.06239(7)
H15_17 H 0.6207 0.5517 0.0500
C24_17 C 0.60798(7) 0.54663(7) 0.07895(7)
C25_17 C 0.60987(6) 0.53441(6) 0.09666(6)
H16_17 H 0.6002 0.5364 0.1077
C26_17 C 0.59166(7) 0.56299(7) 0.07784(7)
N3_17 N 0.65248(5) 0.37495(5) 0.01547(5)
N4_17 N 0.69038(5) 0.41047(5) 0.06987(5)
N5_17 N 0.67406(5) 0.43884(5) 0.08748(6)
N6_17 N 0.65611(5) 0.42093(5) 0.06020(5)
N7_13 N 0.62228(5) 0.47438(5) 0.10058(5)
N8_13 N 0.65744(6) 0.49876(5) 0.12318(5)
N9_13 N 0.62489(5) 0.51975(5) 0.09891(6)
N10_17 N 0.59295(6) 0.57681(6) 0.06257(5)
S2_13 S 0.70027(3) 0.50327(3) 0.11977(7)
C27_17 C 0.51726(7) 0.58267(7) 0.13841(8)
H17_17 H 0.5071 0.5840 0.1491
C28_17 C 0.52852(8) 0.56473(8) 0.13748(8)
H18_17 H 0.5262 0.5539 0.1473
C29_17 C 0.54369(8) 0.56239(7) 0.12182(8)
H19_17 H 0.5517 0.5500 0.1207
C30_17 C 0.54663(7) 0.57895(7) 0.10798(7)
C31_17 C 0.53441(6) 0.59666(6) 0.10987(6)
H20_17 H 0.5364 0.6077 0.1002
C32_17 C 0.56299(7) 0.57784(7) 0.09166(7)
N11_17 N 0.51975(5) 0.59891(6) 0.12489(5)
N12_17 N 0.57681(6) 0.56257(5) 0.09295(6)
C33_17 C 0.58267(7) 0.63841(8) 0.01726(7)
H21_17 H 0.5840 0.6491 0.0071
C34_17 C 0.56473(8) 0.63748(8) 0.02852(8)
H22_17 H 0.5539 0.6473 0.0262
C35_17 C 0.56239(7) 0.62182(8) 0.04369(8)
H23_17 H 0.5500 0.6207 0.0517
C36_17 C 0.57895(7) 0.60798(7) 0.04663(7)
C37_17 C 0.59666(6) 0.60987(6) 0.03441(6)
H24_17 H 0.6077 0.6002 0.0364
C38_17 C 0.57784(7) 0.59166(7) 0.06299(7)
N13_13 N 0.59891(6) 0.62489(5) 0.01975(5)
N14_17 N 0.56257(5) 0.59295(6) 0.07681(6)
C39_17 C 0.42701(7) 0.62656(7) 0.23987(7)
H25_17 H 0.4270 0.6363 0.2510
C40_17 C 0.44533(7) 0.62348(8) 0.22925(8)
H26_17 H 0.4576 0.6309 0.2331
C41_17 C 0.44589(8) 0.60922(8) 0.21263(7)
H27_17 H 0.4583 0.6070 0.2048
C42_17 C 0.42748(6) 0.59844(7) 0.20818(6)
C43_17 C 0.40970(6) 0.60254(6) 0.21997(6)
H28_17 H 0.3973 0.5950 0.2169
C44_17 C 0.39037(6) 0.52968(6) 0.15471(6)
H29_17 H 0.4002 0.5312 0.1438
C45_17 C 0.39240(6) 0.54210(6) 0.17235(6)
C46_17 C 0.37773(7) 0.53988(7) 0.18854(7)
H30_17 H 0.3785 0.5484 0.2007
C47_17 C 0.36228(8) 0.52507(8) 0.18636(7)
H31_17 H 0.3523 0.5229 0.1971
C48_17 C 0.36146(7) 0.51329(7) 0.16811(7)
H32_17 H 0.3507 0.5032 0.1668
C49_17 C 0.40890(6) 0.55820(6) 0.17319(6)
C50_17 C 0.43540(6) 0.57532(6) 0.15743(6)
C51_17 C 0.42565(6) 0.58423(7) 0.19012(6)
C52_17 C 0.44838(6) 0.57901(6) 0.13881(6)
C53_17 C 0.44700(7) 0.56645(7) 0.12097(7)
H33_17 H 0.4377 0.5549 0.1205
C54_17 C 0.45943(8) 0.57116(8) 0.10410(7)
H34_17 H 0.4589 0.5629 0.0918
C55_17 C 0.47298(7) 0.58839(7) 0.10532(7)
H35_17 H 0.4815 0.5915 0.0936
C56_17 C 0.46226(6) 0.59586(6) 0.13848(6)
H36_17 H 0.4631 0.6044 0.1505
C57_17 C 0.50064(7) 0.62171(9) 0.17519(8)
N15_17 N 0.40915(5) 0.61662(5) 0.23537(5)
N16_17 N 0.37495(5) 0.51547(5) 0.15248(5)
N17_17 N 0.41047(5) 0.56987(5) 0.19038(5)
N18_17 N 0.43884(5) 0.58748(6) 0.17406(5)
N19_17 N 0.42093(5) 0.56020(5) 0.15611(5)
N20_17 N 0.47438(5) 0.60058(5) 0.12228(5)
N21_17 N 0.49876(5) 0.62318(5) 0.15744(6)
S3_17 S 0.50327(3) 0.61977(7) 0.20027(3)
C95_13 C 0.51013(7) 0.42701(7) 0.12344(7)
H61_13 H 0.4990 0.4270 0.1137
C96_13 C 0.52075(8) 0.44533(7) 0.12652(8)
H62_13 H 0.5169 0.4576 0.1191
C97_13 C 0.53737(7) 0.44589(8) 0.14078(8)
H63_13 H 0.5452 0.4583 0.1430
C98_13 C 0.54182(6) 0.42748(6) 0.15156(7)
C99_13 C 0.53003(6) 0.40970(6) 0.14746(6)
H64_13 H 0.5331 0.3973 0.1550
C100_13 C 0.59529(6) 0.39037(6) 0.22032(6)
H65_13 H 0.6062 0.4002 0.2188
C101_13 C 0.57765(6) 0.39240(6) 0.20790(6)
C102_13 C 0.56146(7) 0.37773(7) 0.21012(7)
H66_13 H 0.5493 0.3785 0.2016
C103_13 C 0.56364(7) 0.36228(8) 0.22493(8)
H67_13 H 0.5529 0.3523 0.2271
C104_13 C 0.58189(7) 0.36146(7) 0.23671(7)
H68_13 H 0.5832 0.3507 0.2468
C105_13 C 0.57681(6) 0.40890(6) 0.19180(6)
C106_13 C 0.59257(6) 0.43540(6) 0.17468(6)
C107_13 C 0.55988(6) 0.42565(6) 0.16577(7)
C108_13 C 0.61119(6) 0.44838(6) 0.17099(6)
C109_13 C 0.62903(7) 0.44700(7) 0.18355(7)
H69_13 H 0.6295 0.4377 0.1951
C110_13 C 0.64590(7) 0.45943(8) 0.17884(8)
H70_13 H 0.6582 0.4589 0.1871
C111_13 C 0.64468(7) 0.47298(7) 0.16161(7)
H71_13 H 0.6564 0.4815 0.1585
C112_13 C 0.61152(6) 0.46226(6) 0.15414(6)
H72_13 H 0.5995 0.4631 0.1456
C113_13 C 0.57481(8) 0.50064(7) 0.12829(9)
N35_13 N 0.51463(5) 0.40915(5) 0.13338(5)
N37_13 N 0.55962(5) 0.41047(5) 0.18013(5)
N38_13 N 0.57594(5) 0.43884(5) 0.16252(6)
N39_13 N 0.59389(5) 0.42093(5) 0.18980(5)
N40_13 N 0.62772(5) 0.47438(5) 0.14942(5)
N41_13 N 0.59256(6) 0.49876(5) 0.12682(5)
S5_13 S 0.54973(3) 0.50327(3) 0.13023(7)
C114_17 C 0.42701(7) 0.62344(7) 0.01013(7)
C115_17 C 0.44533(7) 0.62652(8) 0.02075(8)
H74_17 H 0.4576 0.6191 0.0169
C116_17 C 0.44589(8) 0.64078(8) 0.03737(7)
H75_17 H 0.4583 0.6430 0.0452
C117_17 C 0.42748(6) 0.65156(7) 0.04182(6)
C118_17 C 0.40970(6) 0.64746(6) 0.03003(6)
H76_17 H 0.3973 0.6550 0.0331
C119_17 C 0.39037(6) 0.72032(6) 0.09529(6)
H77_17 H 0.4002 0.7188 0.1062
C120_17 C 0.39240(6) 0.70790(6) 0.07765(6)
C121_17 C 0.37773(7) 0.71012(7) 0.06146(7)
H78_17 H 0.3785 0.7016 0.0493
C122_17 C 0.36228(8) 0.72493(8) 0.06364(7)
H79_17 H 0.3523 0.7271 0.0529
C123_17 C 0.36146(7) 0.73671(7) 0.08189(7)
H80_17 H 0.3507 0.7468 0.0832
C124_17 C 0.40890(6) 0.69180(6) 0.07681(6)
C125_17 C 0.43540(6) 0.67468(6) 0.09257(6)
C126_17 C 0.42565(6) 0.66577(7) 0.05988(6)
C127_17 C 0.44838(6) 0.67099(6) 0.11119(6)
C128_17 C 0.44700(7) 0.68355(7) 0.12903(7)
H81_17 H 0.4377 0.6951 0.1295
C129_17 C 0.45943(8) 0.67884(8) 0.14590(7)
H82_17 H 0.4589 0.6871 0.1582
C130_17 C 0.47298(7) 0.66161(7) 0.14468(7)
H83_17 H 0.4815 0.6585 0.1564
C131_17 C 0.46226(6) 0.65414(6) 0.11152(6)
H84_17 H 0.4631 0.6456 0.0995
C132_17 C 0.50064(7) 0.62829(9) 0.07481(8)
N42_17 N 0.40915(5) 0.63338(5) 0.01463(5)
N43_17 N 0.37495(5) 0.73453(5) 0.09752(5)
N44_17 N 0.41047(5) 0.68013(5) 0.05962(5)
N45_17 N 0.43884(5) 0.66252(6) 0.07594(5)
N46_17 N 0.42093(5) 0.68980(5) 0.09389(5)
N47_17 N 0.47438(5) 0.64942(5) 0.12772(5)
N48_17 N 0.49876(5) 0.62682(5) 0.09256(6)
S6_17 S 0.50327(3) 0.63023(7) 0.04973(3)
H85_17 H 0.5730 0.3863 0.0010
C152_17 C 0.59522(6) 0.39882(6) 0.03238(6)
N56_17 N 0.60714(5) 0.38727(5) 0.02456(5)
S8_17 S 0.578027(19) 0.414801(19) 0.041831(19)
N64_17 N 0.61662(5) 0.34085(5) 0.01463(5)
C6_17 C 0.64882(6) 0.34522(6) 0.96762(6)
N1_17 N 0.63727(5) 0.35714(5) 0.97544(5)
S1_17 S 0.664801(19) 0.328027(19) 0.958169(19)
H73_17 H 0.4270 0.6137 0.9990
C133_17 C 0.57299(7) 0.37656(7) 0.98987(7)
C134_17 C 0.55467(7) 0.37348(8) 0.97925(8)
H86_17 H 0.5424 0.3809 0.9831
C135_17 C 0.55411(8) 0.35922(8) 0.96263(7)
H87_17 H 0.5417 0.3570 0.9548
C136_17 C 0.57252(6) 0.34844(7) 0.95818(6)
C137_17 C 0.59030(6) 0.35254(6) 0.96997(6)
H88_17 H 0.6027 0.3450 0.9669
C139_17 C 0.60963(6) 0.27968(6) 0.90471(6)
H89_17 H 0.5998 0.2812 0.8938
C140_17 C 0.60760(6) 0.29210(6) 0.92235(6)
C141_17 C 0.62227(7) 0.28988(7) 0.93854(7)
H90_17 H 0.6215 0.2984 0.9507
C142_17 C 0.63772(8) 0.27507(8) 0.93636(7)
H91_17 H 0.6477 0.2729 0.9471
C143_17 C 0.63854(7) 0.26329(7) 0.91811(7)
H92_17 H 0.6493 0.2532 0.9168
C144_17 C 0.59110(6) 0.30820(6) 0.92319(6)
C145_17 C 0.56460(6) 0.32532(6) 0.90743(6)
C146_17 C 0.57435(6) 0.33423(7) 0.94012(6)
C147_17 C 0.55162(6) 0.32901(6) 0.88881(6)
C148_17 C 0.55300(7) 0.31645(7) 0.87097(7)
H93_17 H 0.5623 0.3049 0.8705
C149_17 C 0.54057(8) 0.32116(8) 0.85410(7)
H94_17 H 0.5411 0.3129 0.8418
C150_17 C 0.52702(7) 0.33839(7) 0.85532(7)
H95_17 H 0.5185 0.3415 0.8436
C151_17 C 0.53774(6) 0.34586(6) 0.88848(6)
H96_17 H 0.5369 0.3544 0.9005
N50_17 N 0.59085(5) 0.36662(5) 0.98537(5)
N52_17 N 0.58953(5) 0.31987(5) 0.94038(5)
N53_17 N 0.56116(5) 0.33748(6) 0.92406(5)
N54_17 N 0.57907(5) 0.31020(5) 0.90611(5)
N55_17 N 0.52562(5) 0.35058(5) 0.87228(5)
Co16_13 Co 0.6250 0.6250 0.997883(12)
Co17_17 Co 0.502117(12) 0.3750 0.8750
C20_14 C 0.07481(8) 0.00064(7) 0.12829(9)
C21_18 C 0.11159(8) 0.01726(7) 0.16733(7)
H13_18 H 0.1009 0.0071 0.1660
C22_18 C 0.11252(8) 0.02852(8) 0.18527(8)
H14_18 H 0.1027 0.0262 0.1961
C23_18 C 0.12818(8) 0.04369(8) 0.18761(7)
H15_18 H 0.1293 0.0517 0.2000
C24_18 C 0.14202(7) 0.04663(7) 0.17105(7)
C25_18 C 0.14013(6) 0.03441(6) 0.15334(6)
H16_18 H 0.1498 0.0364 0.1423
C26_18 C 0.15834(7) 0.06299(7) 0.17216(7)
N9_14 N 0.12511(5) 0.01975(5) 0.15109(6)
N10_18 N 0.15705(6) 0.07681(6) 0.18743(5)
S2_14 S 0.04973(3) 0.00327(3) 0.13023(7)
C27_18 C 0.23274(7) 0.08267(7) 0.11159(8)
H17_18 H 0.2429 0.0840 0.1009
C28_18 C 0.22148(8) 0.06473(8) 0.11252(8)
H18_18 H 0.2238 0.0539 0.1027
C29_18 C 0.20631(8) 0.06239(7) 0.12818(8)
H19_18 H 0.1983 0.0500 0.1293
C30_18 C 0.20337(7) 0.07895(7) 0.14202(7)
C31_18 C 0.21559(6) 0.09666(6) 0.14013(6)
H20_18 H 0.2136 0.1077 0.1498
C32_18 C 0.18701(7) 0.07784(7) 0.15834(7)
N11_18 N 0.23025(5) 0.09891(6) 0.12511(5)
N12_18 N 0.17319(6) 0.06257(5) 0.15705(6)
C33_18 C 0.16733(7) 0.13841(8) 0.23274(7)
H21_18 H 0.1660 0.1491 0.2429
C34_18 C 0.18527(8) 0.13748(8) 0.22148(8)
H22_18 H 0.1961 0.1473 0.2238
C35_18 C 0.18761(7) 0.12182(8) 0.20631(8)
H23_18 H 0.2000 0.1207 0.1983
C36_18 C 0.17105(7) 0.10798(7) 0.20337(7)
C37_18 C 0.15334(6) 0.10987(6) 0.21559(6)
H24_18 H 0.1423 0.1002 0.2136
C38_18 C 0.17216(7) 0.09166(7) 0.18701(7)
N13_14 N 0.15109(6) 0.12489(5) 0.23025(5)
N14_18 N 0.18743(5) 0.09295(6) 0.17319(6)
C39_18 C 0.32299(7) 0.12656(7) 0.01013(7)
C40_18 C 0.30467(7) 0.12348(8) 0.02075(8)
H26_18 H 0.2924 0.1309 0.0169
C41_18 C 0.30411(8) 0.10922(8) 0.03737(7)
H27_18 H 0.2917 0.1070 0.0452
C42_18 C 0.32252(6) 0.09844(7) 0.04182(6)
C43_18 C 0.34030(6) 0.10254(6) 0.03003(6)
H28_18 H 0.3527 0.0950 0.0331
C44_18 C 0.35963(6) 0.02968(6) 0.09529(6)
H29_18 H 0.3498 0.0312 0.1062
C45_18 C 0.35760(6) 0.04210(6) 0.07765(6)
C46_18 C 0.37227(7) 0.03988(7) 0.06146(7)
H30_18 H 0.3715 0.0484 0.0493
C47_18 C 0.38772(8) 0.02507(8) 0.06364(7)
H31_18 H 0.3977 0.0229 0.0529
C48_18 C 0.38854(7) 0.01329(7) 0.08189(7)
H32_18 H 0.3993 0.0032 0.0832
C49_18 C 0.34110(6) 0.05820(6) 0.07681(6)
C50_18 C 0.31460(6) 0.07532(6) 0.09257(6)
C51_18 C 0.32435(6) 0.08423(7) 0.05988(6)
C52_18 C 0.30162(6) 0.07901(6) 0.11119(6)
C53_18 C 0.30300(7) 0.06645(7) 0.12903(7)
H33_18 H 0.3123 0.0549 0.1295
C54_18 C 0.29057(8) 0.07116(8) 0.14590(7)
H34_18 H 0.2911 0.0629 0.1582
C55_18 C 0.27702(7) 0.08839(7) 0.14468(7)
H35_18 H 0.2685 0.0915 0.1564
C56_18 C 0.28774(6) 0.09586(6) 0.11152(6)
H36_18 H 0.2869 0.1044 0.0995
C57_18 C 0.24936(7) 0.12171(9) 0.07481(8)
N15_18 N 0.34085(5) 0.11662(5) 0.01463(5)
N16_18 N 0.37505(5) 0.01547(5) 0.09752(5)
N17_18 N 0.33953(5) 0.06987(5) 0.05962(5)
N18_18 N 0.31116(5) 0.08748(6) 0.07594(5)
N19_18 N 0.32907(5) 0.06020(5) 0.09389(5)
N20_18 N 0.27562(5) 0.10058(5) 0.12772(5)
N21_18 N 0.25124(5) 0.12318(5) 0.09256(6)
S3_18 S 0.24673(3) 0.11977(7) 0.04973(3)
C113_14 C 0.17519(8) 0.00064(7) 0.12171(9)
S5_14 S 0.20027(3) 0.00327(3) 0.11977(7)
C114_18 C 0.32299(7) 0.12344(7) 0.23987(7)
H73_18 H 0.3230 0.1137 0.2510
C115_18 C 0.30467(7) 0.12652(8) 0.22925(8)
H74_18 H 0.2924 0.1191 0.2331
C116_18 C 0.30411(8) 0.14078(8) 0.21263(7)
H75_18 H 0.2917 0.1430 0.2048
C117_18 C 0.32252(6) 0.15156(7) 0.20818(6)
C118_18 C 0.34030(6) 0.14746(6) 0.21997(6)
H76_18 H 0.3527 0.1550 0.2169
C119_18 C 0.35963(6) 0.22032(6) 0.15471(6)
H77_18 H 0.3498 0.2188 0.1438
C120_18 C 0.35760(6) 0.20790(6) 0.17235(6)
C121_18 C 0.37227(7) 0.21012(7) 0.18854(7)
H78_18 H 0.3715 0.2016 0.2007
C122_18 C 0.38772(8) 0.22493(8) 0.18636(7)
H79_18 H 0.3977 0.2271 0.1971
C123_18 C 0.38854(7) 0.23671(7) 0.16811(7)
H80_18 H 0.3993 0.2468 0.1668
C124_18 C 0.34110(6) 0.19180(6) 0.17319(6)
C125_18 C 0.31460(6) 0.17468(6) 0.15743(6)
C126_18 C 0.32435(6) 0.16577(7) 0.19012(6)
C127_18 C 0.30162(6) 0.17099(6) 0.13881(6)
C128_18 C 0.30300(7) 0.18355(7) 0.12097(7)
H81_18 H 0.3123 0.1951 0.1205
C129_18 C 0.29057(8) 0.17884(8) 0.10410(7)
H82_18 H 0.2911 0.1871 0.0918
C130_18 C 0.27702(7) 0.16161(7) 0.10532(7)
H83_18 H 0.2685 0.1585 0.0936
C131_18 C 0.28774(6) 0.15414(6) 0.13848(6)
H84_18 H 0.2869 0.1456 0.1505
C132_18 C 0.24936(7) 0.12829(9) 0.17519(8)
N42_18 N 0.34085(5) 0.13338(5) 0.23537(5)
N43_18 N 0.37505(5) 0.23453(5) 0.15248(5)
N44_18 N 0.33953(5) 0.18013(5) 0.19038(5)
N45_18 N 0.31116(5) 0.16252(6) 0.17406(5)
N46_18 N 0.32907(5) 0.18980(5) 0.15611(5)
N47_18 N 0.27562(5) 0.14942(5) 0.12228(5)
N48_18 N 0.25124(5) 0.12682(5) 0.15744(6)
S6_18 S 0.24673(3) 0.13023(7) 0.20027(3)
Co16_14 Co 0.1250 0.1250 0.252117(12)
H25_18 H 0.3230 0.1363 0.9990
C1_18 C 0.01013(7) 0.92701(7) 0.12344(7)
C2_18 C 0.02075(8) 0.94533(7) 0.12652(8)
H2_18 H 0.0169 0.9576 0.1191
C3_18 C 0.03737(7) 0.94589(8) 0.14078(8)
H3_18 H 0.0452 0.9583 0.1430
C4_18 C 0.04182(6) 0.92748(6) 0.15156(7)
C5_18 C 0.03003(6) 0.90970(6) 0.14746(6)
H4_18 H 0.0331 0.8973 0.1550
C6_18 C 0.10118(6) 0.84522(6) 0.28238(6)
C7_18 C 0.09529(6) 0.89037(6) 0.22032(6)
H5_18 H 0.1062 0.9002 0.2188
C8_18 C 0.07765(6) 0.89240(6) 0.20790(6)
C9_18 C 0.06146(7) 0.87773(7) 0.21012(7)
H6_18 H 0.0493 0.8785 0.2016
C10_18 C 0.06364(7) 0.86228(8) 0.22493(8)
H7_18 H 0.0529 0.8523 0.2271
C11_18 C 0.08189(7) 0.86146(7) 0.23671(7)
H8_18 H 0.0832 0.8507 0.2468
C12_18 C 0.07681(6) 0.90890(6) 0.19180(6)
C13_18 C 0.09257(6) 0.93540(6) 0.17468(6)
C14_18 C 0.05988(6) 0.92565(6) 0.16577(7)
C15_18 C 0.11119(6) 0.94838(6) 0.17099(6)
C16_18 C 0.12903(7) 0.94700(7) 0.18355(7)
H9_18 H 0.1295 0.9377 0.1951
C17_18 C 0.14590(7) 0.95943(8) 0.17884(8)
H10_18 H 0.1582 0.9589 0.1871
C18_18 C 0.14468(7) 0.97298(7) 0.16161(7)
H11_18 H 0.1564 0.9815 0.1585
C19_18 C 0.11152(6) 0.96226(6) 0.15414(6)
H12_18 H 0.0995 0.9631 0.1456
N1_18 N 0.11273(5) 0.85714(5) 0.27456(5)
N3_18 N 0.09752(5) 0.87495(5) 0.23453(5)
N4_18 N 0.05962(5) 0.91047(5) 0.18013(5)
N5_18 N 0.07594(5) 0.93884(5) 0.16252(6)
N6_18 N 0.09389(5) 0.92093(5) 0.18980(5)
N7_14 N 0.12772(5) 0.97438(5) 0.14942(5)
N8_14 N 0.09256(6) 0.99876(5) 0.12682(5)
S1_18 S 0.085199(19) 0.828027(19) 0.291831(19)
C95_14 C 0.23987(7) 0.92701(7) 0.12656(7)
H61_14 H 0.2510 0.9270 0.1363
C96_14 C 0.22925(8) 0.94533(7) 0.12348(8)
H62_14 H 0.2331 0.9576 0.1309
C97_14 C 0.21263(7) 0.94589(8) 0.10922(8)
H63_14 H 0.2048 0.9583 0.1070
C98_14 C 0.20818(6) 0.92748(6) 0.09844(7)
C99_14 C 0.21997(6) 0.90970(6) 0.10254(6)
H64_14 H 0.2169 0.8973 0.0950
C100_14 C 0.15471(6) 0.89037(6) 0.02968(6)
H65_14 H 0.1438 0.9002 0.0312
C101_14 C 0.17235(6) 0.89240(6) 0.04210(6)
C102_14 C 0.18854(7) 0.87773(7) 0.03988(7)
H66_14 H 0.2007 0.8785 0.0484
C103_14 C 0.18636(7) 0.86228(8) 0.02507(8)
H67_14 H 0.1971 0.8523 0.0229
C104_14 C 0.16811(7) 0.86146(7) 0.01329(7)
H68_14 H 0.1668 0.8507 0.0032
C105_14 C 0.17319(6) 0.90890(6) 0.05820(6)
C106_14 C 0.15743(6) 0.93540(6) 0.07532(6)
C107_14 C 0.19012(6) 0.92565(6) 0.08423(7)
C108_14 C 0.13881(6) 0.94838(6) 0.07901(6)
C109_14 C 0.12097(7) 0.94700(7) 0.06645(7)
H69_14 H 0.1205 0.9377 0.0549
C110_14 C 0.10410(7) 0.95943(8) 0.07116(8)
H70_14 H 0.0918 0.9589 0.0629
C111_14 C 0.10532(7) 0.97298(7) 0.08839(7)
H71_14 H 0.0936 0.9815 0.0915
C112_14 C 0.13848(6) 0.96226(6) 0.09586(6)
H72_14 H 0.1505 0.9631 0.1044
N35_14 N 0.23537(5) 0.90915(5) 0.11662(5)
N37_14 N 0.19038(5) 0.91047(5) 0.06987(5)
N38_14 N 0.17406(5) 0.93884(5) 0.08748(6)
N39_14 N 0.15611(5) 0.92093(5) 0.06020(5)
N40_14 N 0.12228(5) 0.97438(5) 0.10058(5)
N41_14 N 0.15744(6) 0.99876(5) 0.12318(5)
C133_18 C 0.17701(7) 0.87656(7) 0.26013(7)
H85_18 H 0.1770 0.8863 0.2490
C134_18 C 0.19533(7) 0.87348(8) 0.27075(8)
H86_18 H 0.2076 0.8809 0.2669
C135_18 C 0.19589(8) 0.85922(8) 0.28737(7)
H87_18 H 0.2083 0.8570 0.2952
C136_18 C 0.17748(6) 0.84844(7) 0.29182(6)
C137_18 C 0.15970(6) 0.85254(6) 0.28003(6)
H88_18 H 0.1473 0.8450 0.2831
C139_18 C 0.14037(6) 0.77968(6) 0.34529(6)
H89_18 H 0.1502 0.7812 0.3562
C140_18 C 0.14240(6) 0.79210(6) 0.32765(6)
C141_18 C 0.12773(7) 0.78988(7) 0.31146(7)
H90_18 H 0.1285 0.7984 0.2993
C142_18 C 0.11228(8) 0.77507(8) 0.31364(7)
H91_18 H 0.1023 0.7729 0.3029
C143_18 C 0.11146(7) 0.76329(7) 0.33189(7)
H92_18 H 0.1007 0.7532 0.3332
C144_18 C 0.15890(6) 0.80820(6) 0.32681(6)
C145_18 C 0.18540(6) 0.82532(6) 0.34257(6)
C146_18 C 0.17565(6) 0.83423(7) 0.30988(6)
C147_18 C 0.19838(6) 0.82901(6) 0.36119(6)
C148_18 C 0.19700(7) 0.81645(7) 0.37903(7)
H93_18 H 0.1877 0.8049 0.3795
C149_18 C 0.20943(8) 0.82116(8) 0.39590(7)
H94_18 H 0.2089 0.8129 0.4082
C150_18 C 0.22298(7) 0.83839(7) 0.39468(7)
H95_18 H 0.2315 0.8415 0.4064
C151_18 C 0.21226(6) 0.84586(6) 0.36152(6)
H96_18 H 0.2131 0.8544 0.3495
N50_18 N 0.15915(5) 0.86662(5) 0.26463(5)
N52_18 N 0.16047(5) 0.81987(5) 0.30962(5)
N53_18 N 0.18884(5) 0.83748(6) 0.32594(5)
N54_18 N 0.17093(5) 0.81020(5) 0.34389(5)
N55_18 N 0.22438(5) 0.85058(5) 0.37772(5)
C152_18 C 0.15478(6) 0.89882(6) 0.21762(6)
N56_18 N 0.14286(5) 0.88727(5) 0.22544(5)
S8_18 S 0.171973(19) 0.914801(19) 0.208169(19)
Co17_18 Co 0.247883(12) 0.8750 0.3750
N64_18 N 0.13338(5) 0.84085(5) 0.23537(5)
H1_18 H 0.9990 0.9270 0.1137
C1_19 C 0.51013(7) 0.32299(7) 0.62656(7)
H1_19 H 0.4990 0.3230 0.6363
C2_19 C 0.52075(8) 0.30467(7) 0.62348(8)
H2_19 H 0.5169 0.2924 0.6309
C3_19 C 0.53737(7) 0.30411(8) 0.60922(8)
H3_19 H 0.5452 0.2917 0.6070
C4_19 C 0.54182(6) 0.32252(6) 0.59844(7)
C5_19 C 0.53003(6) 0.34030(6) 0.60254(6)
H4_19 H 0.5331 0.3527 0.5950
C6_19 C 0.60118(6) 0.40478(6) 0.46762(6)
C7_19 C 0.59529(6) 0.35963(6) 0.52968(6)
H5_19 H 0.6062 0.3498 0.5312
C8_19 C 0.57765(6) 0.35760(6) 0.54210(6)
C9_19 C 0.56146(7) 0.37227(7) 0.53988(7)
H6_19 H 0.5493 0.3715 0.5484
C10_19 C 0.56364(7) 0.38772(8) 0.52507(8)
H7_19 H 0.5529 0.3977 0.5229
C11_19 C 0.58189(7) 0.38854(7) 0.51329(7)
H8_19 H 0.5832 0.3993 0.5032
C12_19 C 0.57681(6) 0.34110(6) 0.55820(6)
C13_19 C 0.59257(6) 0.31460(6) 0.57532(6)
C14_19 C 0.55988(6) 0.32435(6) 0.58423(7)
C15_19 C 0.61119(6) 0.30162(6) 0.57901(6)
C16_19 C 0.62903(7) 0.30300(7) 0.56645(7)
H9_19 H 0.6295 0.3123 0.5549
C17_19 C 0.64590(7) 0.29057(8) 0.57116(8)
H10_19 H 0.6582 0.2911 0.5629
C18_19 C 0.64468(7) 0.27702(7) 0.58839(7)
H11_19 H 0.6564 0.2685 0.5915
C19_19 C 0.61152(6) 0.28774(6) 0.59586(6)
H12_19 H 0.5995 0.2869 0.6044
C20_15 C 0.57481(8) 0.24936(7) 0.62171(9)
C21_19 C 0.61159(8) 0.23274(7) 0.58267(7)
H13_19 H 0.6009 0.2429 0.5840
C22_19 C 0.61252(8) 0.22148(8) 0.56473(8)
H14_19 H 0.6027 0.2238 0.5539
C23_19 C 0.62818(8) 0.20631(8) 0.56239(7)
H15_19 H 0.6293 0.1983 0.5500
C24_19 C 0.64202(7) 0.20337(7) 0.57895(7)
C25_19 C 0.64013(6) 0.21559(6) 0.59666(6)
H16_19 H 0.6498 0.2136 0.6077
C26_19 C 0.65834(7) 0.18701(7) 0.57784(7)
N1_19 N 0.61273(5) 0.39286(5) 0.47544(5)
N3_19 N 0.59752(5) 0.37505(5) 0.51547(5)
N4_19 N 0.55962(5) 0.33953(5) 0.56987(5)
N5_19 N 0.57594(5) 0.31116(5) 0.58748(6)
N6_19 N 0.59389(5) 0.32907(5) 0.56020(5)
N7_15 N 0.62772(5) 0.27562(5) 0.60058(5)
N8_15 N 0.59256(6) 0.25124(5) 0.62318(5)
N9_15 N 0.62511(5) 0.23025(5) 0.59891(6)
N10_19 N 0.65705(6) 0.17319(6) 0.56257(5)
S1_19 S 0.585199(19) 0.421973(19) 0.458169(19)
S2_15 S 0.54973(3) 0.24673(3) 0.61977(7)
C27_19 C 0.73274(7) 0.16733(7) 0.63841(8)
H17_19 H 0.7429 0.1660 0.6491
C28_19 C 0.72148(8) 0.18527(8) 0.63748(8)
H18_19 H 0.7238 0.1961 0.6473
C29_19 C 0.70631(8) 0.18761(7) 0.62182(8)
H19_19 H 0.6983 0.2000 0.6207
C30_19 C 0.70337(7) 0.17105(7) 0.60798(7)
C31_19 C 0.71559(6) 0.15334(6) 0.60987(6)
H20_19 H 0.7136 0.1423 0.6002
C32_19 C 0.68701(7) 0.17216(7) 0.59166(7)
N11_19 N 0.73025(5) 0.15109(6) 0.62489(5)
N12_19 N 0.67319(6) 0.18743(5) 0.59295(6)
C33_19 C 0.66733(7) 0.11159(8) 0.51726(7)
H21_19 H 0.6660 0.1009 0.5071
C34_19 C 0.68527(8) 0.11252(8) 0.52852(8)
H22_19 H 0.6961 0.1027 0.5262
C35_19 C 0.68761(7) 0.12818(8) 0.54369(8)
H23_19 H 0.7000 0.1293 0.5517
C36_19 C 0.67105(7) 0.14202(7) 0.54663(7)
C37_19 C 0.65334(6) 0.14013(6) 0.53441(6)
H24_19 H 0.6423 0.1498 0.5364
C38_19 C 0.67216(7) 0.15834(7) 0.56299(7)
N13_15 N 0.65109(6) 0.12511(5) 0.51975(5)
N14_19 N 0.68743(5) 0.15705(6) 0.57681(6)
C39_19 C 0.82299(7) 0.12344(7) 0.73987(7)
H25_19 H 0.8230 0.1137 0.7510
C40_19 C 0.80467(7) 0.12652(8) 0.72925(8)
H26_19 H 0.7924 0.1191 0.7331
C41_19 C 0.80411(8) 0.14078(8) 0.71263(7)
H27_19 H 0.7917 0.1430 0.7048
C42_19 C 0.82252(6) 0.15156(7) 0.70818(6)
C43_19 C 0.84030(6) 0.14746(6) 0.71997(6)
H28_19 H 0.8527 0.1550 0.7169
C44_19 C 0.85963(6) 0.22032(6) 0.65471(6)
H29_19 H 0.8498 0.2188 0.6438
C45_19 C 0.85760(6) 0.20790(6) 0.67235(6)
C46_19 C 0.87227(7) 0.21012(7) 0.68854(7)
H30_19 H 0.8715 0.2016 0.7007
C47_19 C 0.88772(8) 0.22493(8) 0.68636(7)
H31_19 H 0.8977 0.2271 0.6971
C48_19 C 0.88854(7) 0.23671(7) 0.66811(7)
H32_19 H 0.8993 0.2468 0.6668
C49_19 C 0.84110(6) 0.19180(6) 0.67319(6)
C50_19 C 0.81460(6) 0.17468(6) 0.65743(6)
C51_19 C 0.82435(6) 0.16577(7) 0.69012(6)
C52_19 C 0.80162(6) 0.17099(6) 0.63881(6)
C53_19 C 0.80300(7) 0.18355(7) 0.62097(7)
H33_19 H 0.8123 0.1951 0.6205
C54_19 C 0.79057(8) 0.17884(8) 0.60410(7)
H34_19 H 0.7911 0.1871 0.5918
C55_19 C 0.77702(7) 0.16161(7) 0.60532(7)
H35_19 H 0.7685 0.1585 0.5936
C56_19 C 0.78774(6) 0.15414(6) 0.63848(6)
H36_19 H 0.7869 0.1456 0.6505
C57_19 C 0.74936(7) 0.12829(9) 0.67519(8)
N15_19 N 0.84085(5) 0.13338(5) 0.73537(5)
N16_19 N 0.87505(5) 0.23453(5) 0.65248(5)
N17_19 N 0.83953(5) 0.18013(5) 0.69038(5)
N18_19 N 0.81116(5) 0.16252(6) 0.67406(5)
N19_19 N 0.82907(5) 0.18980(5) 0.65611(5)
N20_19 N 0.77562(5) 0.14942(5) 0.62228(5)
N21_19 N 0.75124(5) 0.12682(5) 0.65744(6)
S3_19 S 0.74673(3) 0.13023(7) 0.70027(3)
C95_15 C 0.73987(7) 0.32299(7) 0.62344(7)
H61_15 H 0.7510 0.3230 0.6137
C96_15 C 0.72925(8) 0.30467(7) 0.62652(8)
H62_15 H 0.7331 0.2924 0.6191
C97_15 C 0.71263(7) 0.30411(8) 0.64078(8)
H63_15 H 0.7048 0.2917 0.6430
C98_15 C 0.70818(6) 0.32252(6) 0.65156(7)
C99_15 C 0.71997(6) 0.34030(6) 0.64746(6)
H64_15 H 0.7169 0.3527 0.6550
C100_15 C 0.65471(6) 0.35963(6) 0.72032(6)
H65_15 H 0.6438 0.3498 0.7188
C101_15 C 0.67235(6) 0.35760(6) 0.70790(6)
C102_15 C 0.68854(7) 0.37227(7) 0.71012(7)
H66_15 H 0.7007 0.3715 0.7016
C103_15 C 0.68636(7) 0.38772(8) 0.72493(8)
H67_15 H 0.6971 0.3977 0.7271
C104_15 C 0.66811(7) 0.38854(7) 0.73671(7)
H68_15 H 0.6668 0.3993 0.7468
C105_15 C 0.67319(6) 0.34110(6) 0.69180(6)
C106_15 C 0.65743(6) 0.31460(6) 0.67468(6)
C107_15 C 0.69012(6) 0.32435(6) 0.66577(7)
C108_15 C 0.63881(6) 0.30162(6) 0.67099(6)
C109_15 C 0.62097(7) 0.30300(7) 0.68355(7)
H69_15 H 0.6205 0.3123 0.6951
C110_15 C 0.60410(7) 0.29057(8) 0.67884(8)
H70_15 H 0.5918 0.2911 0.6871
C111_15 C 0.60532(7) 0.27702(7) 0.66161(7)
H71_15 H 0.5936 0.2685 0.6585
C112_15 C 0.63848(6) 0.28774(6) 0.65414(6)
H72_15 H 0.6505 0.2869 0.6456
C113_15 C 0.67519(8) 0.24936(7) 0.62829(9)
N35_15 N 0.73537(5) 0.34085(5) 0.63338(5)
N37_15 N 0.69038(5) 0.33953(5) 0.68013(5)
N38_15 N 0.67406(5) 0.31116(5) 0.66252(6)
N39_15 N 0.65611(5) 0.32907(5) 0.68980(5)
N40_15 N 0.62228(5) 0.27562(5) 0.64942(5)
N41_15 N 0.65744(6) 0.25124(5) 0.62682(5)
S5_15 S 0.70027(3) 0.24673(3) 0.63023(7)
C114_19 C 0.82299(7) 0.12656(7) 0.51013(7)
H73_19 H 0.8230 0.1363 0.4990
C115_19 C 0.80467(7) 0.12348(8) 0.52075(8)
H74_19 H 0.7924 0.1309 0.5169
C116_19 C 0.80411(8) 0.10922(8) 0.53737(7)
H75_19 H 0.7917 0.1070 0.5452
C117_19 C 0.82252(6) 0.09844(7) 0.54182(6)
C118_19 C 0.84030(6) 0.10254(6) 0.53003(6)
H76_19 H 0.8527 0.0950 0.5331
C119_19 C 0.85963(6) 0.02968(6) 0.59529(6)
H77_19 H 0.8498 0.0312 0.6062
C120_19 C 0.85760(6) 0.04210(6) 0.57765(6)
C121_19 C 0.87227(7) 0.03988(7) 0.56146(7)
H78_19 H 0.8715 0.0484 0.5493
C122_19 C 0.88772(8) 0.02507(8) 0.56364(7)
H79_19 H 0.8977 0.0229 0.5529
C123_19 C 0.88854(7) 0.01329(7) 0.58189(7)
H80_19 H 0.8993 0.0032 0.5832
C124_19 C 0.84110(6) 0.05820(6) 0.57681(6)
C125_19 C 0.81460(6) 0.07532(6) 0.59257(6)
C126_19 C 0.82435(6) 0.08423(7) 0.55988(6)
C127_19 C 0.80162(6) 0.07901(6) 0.61119(6)
C128_19 C 0.80300(7) 0.06645(7) 0.62903(7)
H81_19 H 0.8123 0.0549 0.6295
C129_19 C 0.79057(8) 0.07116(8) 0.64590(7)
H82_19 H 0.7911 0.0629 0.6582
C130_19 C 0.77702(7) 0.08839(7) 0.64468(7)
H83_19 H 0.7685 0.0915 0.6564
C131_19 C 0.78774(6) 0.09586(6) 0.61152(6)
H84_19 H 0.7869 0.1044 0.5995
C132_19 C 0.74936(7) 0.12171(9) 0.57481(8)
N42_19 N 0.84085(5) 0.11662(5) 0.51463(5)
N43_19 N 0.87505(5) 0.01547(5) 0.59752(5)
N44_19 N 0.83953(5) 0.06987(5) 0.55962(5)
N45_19 N 0.81116(5) 0.08748(6) 0.57594(5)
N46_19 N 0.82907(5) 0.06020(5) 0.59389(5)
N47_19 N 0.77562(5) 0.10058(5) 0.62772(5)
N48_19 N 0.75124(5) 0.12318(5) 0.59256(6)
S6_19 S 0.74673(3) 0.11977(7) 0.54973(3)
C133_19 C 0.67701(7) 0.37344(7) 0.48987(7)
H85_19 H 0.6770 0.3637 0.5010
C134_19 C 0.69533(7) 0.37652(8) 0.47925(8)
H86_19 H 0.7076 0.3691 0.4831
C135_19 C 0.69589(8) 0.39078(8) 0.46263(7)
H87_19 H 0.7083 0.3930 0.4548
C136_19 C 0.67748(6) 0.40156(7) 0.45818(6)
C137_19 C 0.65970(6) 0.39746(6) 0.46997(6)
H88_19 H 0.6473 0.4050 0.4669
C139_19 C 0.64037(6) 0.47032(6) 0.40471(6)
H89_19 H 0.6502 0.4688 0.3938
C140_19 C 0.64240(6) 0.45790(6) 0.42235(6)
C141_19 C 0.62773(7) 0.46012(7) 0.43854(7)
H90_19 H 0.6285 0.4516 0.4507
C142_19 C 0.61228(8) 0.47493(8) 0.43636(7)
H91_19 H 0.6023 0.4771 0.4471
C143_19 C 0.61146(7) 0.48671(7) 0.41811(7)
H92_19 H 0.6007 0.4968 0.4168
C144_19 C 0.65890(6) 0.44180(6) 0.42319(6)
C145_19 C 0.68540(6) 0.42468(6) 0.40743(6)
C146_19 C 0.67565(6) 0.41577(7) 0.44012(6)
C147_19 C 0.69838(6) 0.42099(6) 0.38881(6)
C148_19 C 0.69700(7) 0.43355(7) 0.37097(7)
H93_19 H 0.6877 0.4451 0.3705
C149_19 C 0.70943(8) 0.42884(8) 0.35410(7)
H94_19 H 0.7089 0.4371 0.3418
C150_19 C 0.72298(7) 0.41161(7) 0.35532(7)
H95_19 H 0.7315 0.4085 0.3436
C151_19 C 0.71226(6) 0.40414(6) 0.38848(6)
H96_19 H 0.7131 0.3956 0.4005
N50_19 N 0.65915(5) 0.38338(5) 0.48537(5)
N52_19 N 0.66047(5) 0.43013(5) 0.44038(5)
N53_19 N 0.68884(5) 0.41252(6) 0.42406(5)
N54_19 N 0.67093(5) 0.43980(5) 0.40611(5)
N55_19 N 0.72438(5) 0.39942(5) 0.37228(5)
C152_19 C 0.65478(6) 0.35118(6) 0.53238(6)
N56_19 N 0.64286(5) 0.36273(5) 0.52456(5)
S8_19 S 0.671973(19) 0.335199(19) 0.541831(19)
Co16_15 Co 0.6250 0.1250 0.497883(12)
Co17_19 Co 0.747883(12) 0.3750 0.3750
N64_19 N 0.63338(5) 0.40915(5) 0.51463(5)
C1_20 C 0.23987(7) 0.82299(7) 0.62344(7)
H1_20 H 0.2510 0.8230 0.6137
C2_20 C 0.22925(8) 0.80467(7) 0.62652(8)
H2_20 H 0.2331 0.7924 0.6191
C3_20 C 0.21263(7) 0.80411(8) 0.64078(8)
H3_20 H 0.2048 0.7917 0.6430
C4_20 C 0.20818(6) 0.82252(6) 0.65156(7)
C5_20 C 0.21997(6) 0.84030(6) 0.64746(6)
H4_20 H 0.2169 0.8527 0.6550
C6_20 C 0.14882(6) 0.90478(6) 0.78238(6)
C7_20 C 0.15471(6) 0.85963(6) 0.72032(6)
H5_20 H 0.1438 0.8498 0.7188
C8_20 C 0.17235(6) 0.85760(6) 0.70790(6)
C9_20 C 0.18854(7) 0.87227(7) 0.71012(7)
H6_20 H 0.2007 0.8715 0.7016
C10_20 C 0.18636(7) 0.88772(8) 0.72493(8)
H7_20 H 0.1971 0.8977 0.7271
C11_20 C 0.16811(7) 0.88854(7) 0.73671(7)
H8_20 H 0.1668 0.8993 0.7468
C12_20 C 0.17319(6) 0.84110(6) 0.69180(6)
C13_20 C 0.15743(6) 0.81460(6) 0.67468(6)
C14_20 C 0.19012(6) 0.82435(6) 0.66577(7)
C15_20 C 0.13881(6) 0.80162(6) 0.67099(6)
C16_20 C 0.12097(7) 0.80300(7) 0.68355(7)
H9_20 H 0.1205 0.8123 0.6951
C17_20 C 0.10410(7) 0.79057(8) 0.67884(8)
H10_20 H 0.0918 0.7911 0.6871
C18_20 C 0.10532(7) 0.77702(7) 0.66161(7)
H11_20 H 0.0936 0.7685 0.6585
C19_20 C 0.13848(6) 0.78774(6) 0.65414(6)
H12_20 H 0.1505 0.7869 0.6456
C20_16 C 0.17519(8) 0.74936(7) 0.62829(9)
C21_20 C 0.13841(8) 0.73274(7) 0.66733(7)
H13_20 H 0.1491 0.7429 0.6660
C22_20 C 0.13748(8) 0.72148(8) 0.68527(8)
H14_20 H 0.1473 0.7238 0.6961
C23_20 C 0.12182(8) 0.70631(8) 0.68761(7)
H15_20 H 0.1207 0.6983 0.7000
C24_20 C 0.10798(7) 0.70337(7) 0.67105(7)
C25_20 C 0.10987(6) 0.71559(6) 0.65334(6)
H16_20 H 0.1002 0.7136 0.6423
C26_20 C 0.09166(7) 0.68701(7) 0.67216(7)
N1_20 N 0.13727(5) 0.89286(5) 0.77456(5)
N3_20 N 0.15248(5) 0.87505(5) 0.73453(5)
N4_20 N 0.19038(5) 0.83953(5) 0.68013(5)
N5_20 N 0.17406(5) 0.81116(5) 0.66252(6)
N6_20 N 0.15611(5) 0.82907(5) 0.68980(5)
N7_16 N 0.12228(5) 0.77562(5) 0.64942(5)
N8_16 N 0.15744(6) 0.75124(5) 0.62682(5)
N9_16 N 0.12489(5) 0.73025(5) 0.65109(6)
N10_20 N 0.09295(6) 0.67319(6) 0.68743(5)
S1_20 S 0.164801(19) 0.921973(19) 0.791831(19)
S2_16 S 0.20027(3) 0.74673(3) 0.63023(7)
C27_20 C 0.01726(7) 0.66733(7) 0.61159(8)
H17_20 H 0.0071 0.6660 0.6009
C28_20 C 0.02852(8) 0.68527(8) 0.61252(8)
H18_20 H 0.0262 0.6961 0.6027
C29_20 C 0.04369(8) 0.68761(7) 0.62818(8)
H19_20 H 0.0517 0.7000 0.6293
C30_20 C 0.04663(7) 0.67105(7) 0.64202(7)
C31_20 C 0.03441(6) 0.65334(6) 0.64013(6)
H20_20 H 0.0364 0.6423 0.6498
C32_20 C 0.06299(7) 0.67216(7) 0.65834(7)
N11_20 N 0.01975(5) 0.65109(6) 0.62511(5)
N12_20 N 0.07681(6) 0.68743(5) 0.65705(6)
C33_20 C 0.08267(7) 0.61159(8) 0.73274(7)
H21_20 H 0.0840 0.6009 0.7429
C34_20 C 0.06473(8) 0.61252(8) 0.72148(8)
H22_20 H 0.0539 0.6027 0.7238
C35_20 C 0.06239(7) 0.62818(8) 0.70631(8)
H23_20 H 0.0500 0.6293 0.6983
C36_20 C 0.07895(7) 0.64202(7) 0.70337(7)
C37_20 C 0.09666(6) 0.64013(6) 0.71559(6)
H24_20 H 0.1077 0.6498 0.7136
C38_20 C 0.07784(7) 0.65834(7) 0.68701(7)
N13_16 N 0.09891(6) 0.62511(5) 0.73025(5)
N14_20 N 0.06257(5) 0.65705(6) 0.67319(6)
C57_20 C 0.00064(7) 0.62829(9) 0.57481(8)
S3_20 S 0.00327(3) 0.63023(7) 0.54973(3)
C95_16 C 0.01013(7) 0.82299(7) 0.62656(7)
C96_16 C 0.02075(8) 0.80467(7) 0.62348(8)
H62_16 H 0.0169 0.7924 0.6309
C97_16 C 0.03737(7) 0.80411(8) 0.60922(8)
H63_16 H 0.0452 0.7917 0.6070
C98_16 C 0.04182(6) 0.82252(6) 0.59844(7)
C99_16 C 0.03003(6) 0.84030(6) 0.60254(6)
H64_16 H 0.0331 0.8527 0.5950
C100_16 C 0.09529(6) 0.85963(6) 0.52968(6)
H65_16 H 0.1062 0.8498 0.5312
C101_16 C 0.07765(6) 0.85760(6) 0.54210(6)
C102_16 C 0.06146(7) 0.87227(7) 0.53988(7)
H66_16 H 0.0493 0.8715 0.5484
C103_16 C 0.06364(7) 0.88772(8) 0.52507(8)
H67_16 H 0.0529 0.8977 0.5229
C104_16 C 0.08189(7) 0.88854(7) 0.51329(7)
H68_16 H 0.0832 0.8993 0.5032
C105_16 C 0.07681(6) 0.84110(6) 0.55820(6)
C106_16 C 0.09257(6) 0.81460(6) 0.57532(6)
C107_16 C 0.05988(6) 0.82435(6) 0.58423(7)
C108_16 C 0.11119(6) 0.80162(6) 0.57901(6)
C109_16 C 0.12903(7) 0.80300(7) 0.56645(7)
H69_16 H 0.1295 0.8123 0.5549
C110_16 C 0.14590(7) 0.79057(8) 0.57116(8)
H70_16 H 0.1582 0.7911 0.5629
C111_16 C 0.14468(7) 0.77702(7) 0.58839(7)
H71_16 H 0.1564 0.7685 0.5915
C112_16 C 0.11152(6) 0.78774(6) 0.59586(6)
H72_16 H 0.0995 0.7869 0.6044
C113_16 C 0.07481(8) 0.74936(7) 0.62171(9)
N35_16 N 0.01463(5) 0.84085(5) 0.61662(5)
N37_16 N 0.05962(5) 0.83953(5) 0.56987(5)
N38_16 N 0.07594(5) 0.81116(5) 0.58748(6)
N39_16 N 0.09389(5) 0.82907(5) 0.56020(5)
N40_16 N 0.12772(5) 0.77562(5) 0.60058(5)
N41_16 N 0.09256(6) 0.75124(5) 0.62318(5)
S5_16 S 0.04973(3) 0.74673(3) 0.61977(7)
C132_20 C 0.00064(7) 0.62171(9) 0.67519(8)
S6_20 S 0.00327(3) 0.61977(7) 0.70027(3)
C133_20 C 0.07299(7) 0.87344(7) 0.76013(7)
H85_20 H 0.0730 0.8637 0.7490
C134_20 C 0.05467(7) 0.87652(8) 0.77075(8)
H86_20 H 0.0424 0.8691 0.7669
C135_20 C 0.05411(8) 0.89078(8) 0.78737(7)
H87_20 H 0.0417 0.8930 0.7952
C136_20 C 0.07252(6) 0.90156(7) 0.79182(6)
C137_20 C 0.09030(6) 0.89746(6) 0.78003(6)
H88_20 H 0.1027 0.9050 0.7831
C139_20 C 0.10963(6) 0.97032(6) 0.84529(6)
H89_20 H 0.0998 0.9688 0.8562
C140_20 C 0.10760(6) 0.95790(6) 0.82765(6)
C141_20 C 0.12227(7) 0.96012(7) 0.81146(7)
H90_20 H 0.1215 0.9516 0.7993
C142_20 C 0.13772(8) 0.97493(8) 0.81364(7)
H91_20 H 0.1477 0.9771 0.8029
C143_20 C 0.13854(7) 0.98671(7) 0.83189(7)
H92_20 H 0.1493 0.9968 0.8332
C144_20 C 0.09110(6) 0.94180(6) 0.82681(6)
C145_20 C 0.06460(6) 0.92468(6) 0.84257(6)
C146_20 C 0.07435(6) 0.91577(7) 0.80988(6)
C147_20 C 0.05162(6) 0.92099(6) 0.86119(6)
C148_20 C 0.05300(7) 0.93355(7) 0.87903(7)
H93_20 H 0.0623 0.9451 0.8795
C149_20 C 0.04057(8) 0.92884(8) 0.89590(7)
H94_20 H 0.0411 0.9371 0.9082
C150_20 C 0.02702(7) 0.91161(7) 0.89468(7)
H95_20 H 0.0185 0.9085 0.9064
C151_20 C 0.03774(6) 0.90414(6) 0.86152(6)
H96_20 H 0.0369 0.8956 0.8495
N50_20 N 0.09085(5) 0.88338(5) 0.76463(5)
N52_20 N 0.08953(5) 0.93013(5) 0.80962(5)
N53_20 N 0.06116(5) 0.91252(6) 0.82594(5)
N54_20 N 0.07907(5) 0.93980(5) 0.84389(5)
N55_20 N 0.02562(5) 0.89942(5) 0.87772(5)
C152_20 C 0.09522(6) 0.85118(6) 0.71762(6)
N56_20 N 0.10714(5) 0.86273(5) 0.72544(5)
S8_20 S 0.078027(19) 0.835199(19) 0.708169(19)
Co16_16 Co 0.1250 0.6250 0.752117(12)
Co17_20 Co 0.002117(12) 0.8750 0.8750
N64_20 N 0.11662(5) 0.90915(5) 0.73537(5)
C39_20 C 0.92701(7) 0.62344(7) 0.51013(7)
H25_20 H 0.9270 0.6137 0.4990
C40_20 C 0.94533(7) 0.62652(8) 0.52075(8)
H26_20 H 0.9576 0.6191 0.5169
C41_20 C 0.94589(8) 0.64078(8) 0.53737(7)
H27_20 H 0.9583 0.6430 0.5452
C42_20 C 0.92748(6) 0.65156(7) 0.54182(6)
C43_20 C 0.90970(6) 0.64746(6) 0.53003(6)
H28_20 H 0.8973 0.6550 0.5331
C44_20 C 0.89037(6) 0.72032(6) 0.59529(6)
H29_20 H 0.9002 0.7188 0.6062
C45_20 C 0.89240(6) 0.70790(6) 0.57765(6)
C46_20 C 0.87773(7) 0.71012(7) 0.56146(7)
H30_20 H 0.8785 0.7016 0.5493
C47_20 C 0.86228(8) 0.72493(8) 0.56364(7)
H31_20 H 0.8523 0.7271 0.5529
C48_20 C 0.86146(7) 0.73671(7) 0.58189(7)
H32_20 H 0.8507 0.7468 0.5832
C49_20 C 0.90890(6) 0.69180(6) 0.57681(6)
C50_20 C 0.93540(6) 0.67468(6) 0.59257(6)
C51_20 C 0.92565(6) 0.66577(7) 0.55988(6)
C52_20 C 0.94838(6) 0.67099(6) 0.61119(6)
C53_20 C 0.94700(7) 0.68355(7) 0.62903(7)
H33_20 H 0.9377 0.6951 0.6295
C54_20 C 0.95943(8) 0.67884(8) 0.64590(7)
H34_20 H 0.9589 0.6871 0.6582
C55_20 C 0.97298(7) 0.66161(7) 0.64468(7)
H35_20 H 0.9815 0.6585 0.6564
C56_20 C 0.96226(6) 0.65414(6) 0.61152(6)
H36_20 H 0.9631 0.6456 0.5995
N15_20 N 0.90915(5) 0.63338(5) 0.51463(5)
N16_20 N 0.87495(5) 0.73453(5) 0.59752(5)
N17_20 N 0.91047(5) 0.68013(5) 0.55962(5)
N18_20 N 0.93884(5) 0.66252(6) 0.57594(5)
N19_20 N 0.92093(5) 0.68980(5) 0.59389(5)
N20_20 N 0.97438(5) 0.64942(5) 0.62772(5)
N21_20 N 0.99876(5) 0.62682(5) 0.59256(6)
H61_16 H 0.9990 0.8230 0.6363
C114_20 C 0.92701(7) 0.62656(7) 0.73987(7)
H73_20 H 0.9270 0.6363 0.7510
C115_20 C 0.94533(7) 0.62348(8) 0.72925(8)
H74_20 H 0.9576 0.6309 0.7331
C116_20 C 0.94589(8) 0.60922(8) 0.71263(7)
H75_20 H 0.9583 0.6070 0.7048
C117_20 C 0.92748(6) 0.59844(7) 0.70818(6)
C118_20 C 0.90970(6) 0.60254(6) 0.71997(6)
H76_20 H 0.8973 0.5950 0.7169
C119_20 C 0.89037(6) 0.52968(6) 0.65471(6)
H77_20 H 0.9002 0.5312 0.6438
C120_20 C 0.89240(6) 0.54210(6) 0.67235(6)
C121_20 C 0.87773(7) 0.53988(7) 0.68854(7)
H78_20 H 0.8785 0.5484 0.7007
C122_20 C 0.86228(8) 0.52507(8) 0.68636(7)
H79_20 H 0.8523 0.5229 0.6971
C123_20 C 0.86146(7) 0.51329(7) 0.66811(7)
H80_20 H 0.8507 0.5032 0.6668
C124_20 C 0.90890(6) 0.55820(6) 0.67319(6)
C125_20 C 0.93540(6) 0.57532(6) 0.65743(6)
C126_20 C 0.92565(6) 0.58423(7) 0.69012(6)
C127_20 C 0.94838(6) 0.57901(6) 0.63881(6)
C128_20 C 0.94700(7) 0.56645(7) 0.62097(7)
H81_20 H 0.9377 0.5549 0.6205
C129_20 C 0.95943(8) 0.57116(8) 0.60410(7)
H82_20 H 0.9589 0.5629 0.5918
C130_20 C 0.97298(7) 0.58839(7) 0.60532(7)
H83_20 H 0.9815 0.5915 0.5936
C131_20 C 0.96226(6) 0.59586(6) 0.63848(6)
H84_20 H 0.9631 0.6044 0.6505
N42_20 N 0.90915(5) 0.61662(5) 0.73537(5)
N43_20 N 0.87495(5) 0.51547(5) 0.65248(5)
N44_20 N 0.91047(5) 0.56987(5) 0.69038(5)
N45_20 N 0.93884(5) 0.58748(6) 0.67406(5)
N46_20 N 0.92093(5) 0.56020(5) 0.65611(5)
N47_20 N 0.97438(5) 0.60058(5) 0.62228(5)
N48_20 N 0.99876(5) 0.62318(5) 0.65744(6)
C21_21 C 0.01726(7) 0.16733(7) 0.11159(8)
H13_21 H 0.0071 0.1660 0.1009
C22_21 C 0.02852(8) 0.18527(8) 0.11252(8)
H14_21 H 0.0262 0.1961 0.1027
C23_21 C 0.04369(8) 0.18761(7) 0.12818(8)
H15_21 H 0.0517 0.2000 0.1293
C24_21 C 0.04663(7) 0.17105(7) 0.14202(7)
C25_21 C 0.03441(6) 0.15334(6) 0.14013(6)
H16_21 H 0.0364 0.1423 0.1498
C26_21 C 0.06299(7) 0.17216(7) 0.15834(7)
N10_21 N 0.07681(6) 0.18743(5) 0.15705(6)
C27_21 C 0.08267(7) 0.11159(8) 0.23274(7)
H17_21 H 0.0840 0.1009 0.2429
C28_21 C 0.06473(8) 0.11252(8) 0.22148(8)
H18_21 H 0.0539 0.1027 0.2238
C29_21 C 0.06239(7) 0.12818(8) 0.20631(8)
H19_21 H 0.0500 0.1293 0.1983
C30_21 C 0.07895(7) 0.14202(7) 0.20337(7)
C31_21 C 0.09666(6) 0.14013(6) 0.21559(6)
H20_21 H 0.1077 0.1498 0.2136
C32_21 C 0.07784(7) 0.15834(7) 0.18701(7)
N11_21 N 0.09891(6) 0.12511(5) 0.23025(5)
N12_21 N 0.06257(5) 0.15705(6) 0.17319(6)
C33_21 C 0.13841(8) 0.23274(7) 0.16733(7)
H21_21 H 0.1491 0.2429 0.1660
C34_21 C 0.13748(8) 0.22148(8) 0.18527(8)
H22_21 H 0.1473 0.2238 0.1961
C35_21 C 0.12182(8) 0.20631(8) 0.18761(7)
H23_21 H 0.1207 0.1983 0.2000
C36_21 C 0.10798(7) 0.20337(7) 0.17105(7)
C37_21 C 0.10987(6) 0.21559(6) 0.15334(6)
H24_21 H 0.1002 0.2136 0.1423
C38_21 C 0.09166(7) 0.18701(7) 0.17216(7)
N14_21 N 0.09295(6) 0.17319(6) 0.18743(5)
C39_21 C 0.12656(7) 0.01013(7) 0.32299(7)
C40_21 C 0.12348(8) 0.02075(8) 0.30467(7)
H26_21 H 0.1309 0.0169 0.2924
C41_21 C 0.10922(8) 0.03737(7) 0.30411(8)
H27_21 H 0.1070 0.0452 0.2917
C42_21 C 0.09844(7) 0.04182(6) 0.32252(6)
C43_21 C 0.10254(6) 0.03003(6) 0.34030(6)
H28_21 H 0.0950 0.0331 0.3527
C44_21 C 0.02968(6) 0.09529(6) 0.35963(6)
H29_21 H 0.0312 0.1062 0.3498
C45_21 C 0.04210(6) 0.07765(6) 0.35760(6)
C46_21 C 0.03988(7) 0.06146(7) 0.37227(7)
H30_21 H 0.0484 0.0493 0.3715
C47_21 C 0.02507(8) 0.06364(7) 0.38772(8)
H31_21 H 0.0229 0.0529 0.3977
C48_21 C 0.01329(7) 0.08189(7) 0.38854(7)
H32_21 H 0.0032 0.0832 0.3993
C49_21 C 0.05820(6) 0.07681(6) 0.34110(6)
C50_21 C 0.07532(6) 0.09257(6) 0.31460(6)
C51_21 C 0.08423(7) 0.05988(6) 0.32435(6)
C52_21 C 0.07901(6) 0.11119(6) 0.30162(6)
C53_21 C 0.06645(7) 0.12903(7) 0.30300(7)
H33_21 H 0.0549 0.1295 0.3123
C54_21 C 0.07116(8) 0.14590(7) 0.29057(8)
H34_21 H 0.0629 0.1582 0.2911
C55_21 C 0.08839(7) 0.14468(7) 0.27702(7)
H35_21 H 0.0915 0.1564 0.2685
C56_21 C 0.09586(6) 0.11152(6) 0.28774(6)
H36_21 H 0.1044 0.0995 0.2869
C57_21 C 0.12171(9) 0.07481(8) 0.24936(7)
N15_21 N 0.11662(5) 0.01463(5) 0.34085(5)
N16_21 N 0.01547(5) 0.09752(5) 0.37505(5)
N17_21 N 0.06987(5) 0.05962(5) 0.33953(5)
N18_21 N 0.08748(6) 0.07594(5) 0.31116(5)
N19_21 N 0.06020(5) 0.09389(5) 0.32907(5)
N20_21 N 0.10058(5) 0.12772(5) 0.27562(5)
N21_21 N 0.12318(5) 0.09256(6) 0.25124(5)
S3_21 S 0.11977(7) 0.04973(3) 0.24673(3)
C114_21 C 0.12344(7) 0.23987(7) 0.32299(7)
H73_21 H 0.1137 0.2510 0.3230
C115_21 C 0.12652(8) 0.22925(8) 0.30467(7)
H74_21 H 0.1191 0.2331 0.2924
C116_21 C 0.14078(8) 0.21263(7) 0.30411(8)
H75_21 H 0.1430 0.2048 0.2917
C117_21 C 0.15156(7) 0.20818(6) 0.32252(6)
C118_21 C 0.14746(6) 0.21997(6) 0.34030(6)
H76_21 H 0.1550 0.2169 0.3527
C119_21 C 0.22032(6) 0.15471(6) 0.35963(6)
H77_21 H 0.2188 0.1438 0.3498
C120_21 C 0.20790(6) 0.17235(6) 0.35760(6)
C121_21 C 0.21012(7) 0.18854(7) 0.37227(7)
H78_21 H 0.2016 0.2007 0.3715
C122_21 C 0.22493(8) 0.18636(7) 0.38772(8)
H79_21 H 0.2271 0.1971 0.3977
C123_21 C 0.23671(7) 0.16811(7) 0.38854(7)
H80_21 H 0.2468 0.1668 0.3993
C124_21 C 0.19180(6) 0.17319(6) 0.34110(6)
C125_21 C 0.17468(6) 0.15743(6) 0.31460(6)
C126_21 C 0.16577(7) 0.19012(6) 0.32435(6)
C127_21 C 0.17099(6) 0.13881(6) 0.30162(6)
C128_21 C 0.18355(7) 0.12097(7) 0.30300(7)
H81_21 H 0.1951 0.1205 0.3123
C129_21 C 0.17884(8) 0.10410(7) 0.29057(8)
H82_21 H 0.1871 0.0918 0.2911
C130_21 C 0.16161(7) 0.10532(7) 0.27702(7)
H83_21 H 0.1585 0.0936 0.2685
C131_21 C 0.15414(6) 0.13848(6) 0.28774(6)
H84_21 H 0.1456 0.1505 0.2869
C132_21 C 0.12829(9) 0.17519(8) 0.24936(7)
N42_21 N 0.13338(5) 0.23537(5) 0.34085(5)
N43_21 N 0.23453(5) 0.15248(5) 0.37505(5)
N44_21 N 0.18013(5) 0.19038(5) 0.33953(5)
N45_21 N 0.16252(6) 0.17406(5) 0.31116(5)
N46_21 N 0.18980(5) 0.15611(5) 0.32907(5)
N47_21 N 0.14942(5) 0.12228(5) 0.27562(5)
N48_21 N 0.12682(5) 0.15744(6) 0.25124(5)
S6_21 S 0.13023(7) 0.20027(3) 0.24673(3)
H25_21 H 0.1363 0.9990 0.3230
C1_21 C 0.92701(7) 0.12344(7) 0.01013(7)
C2_21 C 0.94533(7) 0.12652(8) 0.02075(8)
H2_21 H 0.9576 0.1191 0.0169
C3_21 C 0.94589(8) 0.14078(8) 0.03737(7)
H3_21 H 0.9583 0.1430 0.0452
C4_21 C 0.92748(6) 0.15156(7) 0.04182(6)
C5_21 C 0.90970(6) 0.14746(6) 0.03003(6)
H4_21 H 0.8973 0.1550 0.0331
C6_21 C 0.84522(6) 0.28238(6) 0.10118(6)
C7_21 C 0.89037(6) 0.22032(6) 0.09529(6)
H5_21 H 0.9002 0.2188 0.1062
C8_21 C 0.89240(6) 0.20790(6) 0.07765(6)
C9_21 C 0.87773(7) 0.21012(7) 0.06146(7)
H6_21 H 0.8785 0.2016 0.0493
C10_21 C 0.86228(8) 0.22493(8) 0.06364(7)
H7_21 H 0.8523 0.2271 0.0529
C11_21 C 0.86146(7) 0.23671(7) 0.08189(7)
H8_21 H 0.8507 0.2468 0.0832
C12_21 C 0.90890(6) 0.19180(6) 0.07681(6)
C13_21 C 0.93540(6) 0.17468(6) 0.09257(6)
C14_21 C 0.92565(6) 0.16577(7) 0.05988(6)
C15_21 C 0.94838(6) 0.17099(6) 0.11119(6)
C16_21 C 0.94700(7) 0.18355(7) 0.12903(7)
H9_21 H 0.9377 0.1951 0.1295
C17_21 C 0.95943(8) 0.17884(8) 0.14590(7)
H10_21 H 0.9589 0.1871 0.1582
C18_21 C 0.97298(7) 0.16161(7) 0.14468(7)
H11_21 H 0.9815 0.1585 0.1564
C19_21 C 0.96226(6) 0.15414(6) 0.11152(6)
H12_21 H 0.9631 0.1456 0.0995
N1_21 N 0.85714(5) 0.27456(5) 0.11273(5)
N3_21 N 0.87495(5) 0.23453(5) 0.09752(5)
N4_21 N 0.91047(5) 0.18013(5) 0.05962(5)
N5_21 N 0.93884(5) 0.16252(6) 0.07594(5)
N6_21 N 0.92093(5) 0.18980(5) 0.09389(5)
S1_21 S 0.828027(19) 0.291831(19) 0.085199(19)
C133_21 C 0.87656(7) 0.26013(7) 0.17701(7)
H85_21 H 0.8863 0.2490 0.1770
C134_21 C 0.87348(8) 0.27075(8) 0.19533(7)
H86_21 H 0.8809 0.2669 0.2076
C135_21 C 0.85922(8) 0.28737(7) 0.19589(8)
H87_21 H 0.8570 0.2952 0.2083
C136_21 C 0.84844(7) 0.29182(6) 0.17748(6)
C137_21 C 0.85254(6) 0.28003(6) 0.15970(6)
H88_21 H 0.8450 0.2831 0.1473
C139_21 C 0.77968(6) 0.34529(6) 0.14037(6)
H89_21 H 0.7812 0.3562 0.1502
C140_21 C 0.79210(6) 0.32765(6) 0.14240(6)
C141_21 C 0.78988(7) 0.31146(7) 0.12773(7)
H90_21 H 0.7984 0.2993 0.1285
C142_21 C 0.77507(8) 0.31364(7) 0.11228(8)
H91_21 H 0.7729 0.3029 0.1023
C143_21 C 0.76329(7) 0.33189(7) 0.11146(7)
H92_21 H 0.7532 0.3332 0.1007
C144_21 C 0.80820(6) 0.32681(6) 0.15890(6)
C145_21 C 0.82532(6) 0.34257(6) 0.18540(6)
C146_21 C 0.83423(7) 0.30988(6) 0.17565(6)
C147_21 C 0.82901(6) 0.36119(6) 0.19838(6)
C148_21 C 0.81645(7) 0.37903(7) 0.19700(7)
H93_21 H 0.8049 0.3795 0.1877
C149_21 C 0.82116(8) 0.39590(7) 0.20943(8)
H94_21 H 0.8129 0.4082 0.2089
C150_21 C 0.83839(7) 0.39468(7) 0.22298(7)
H95_21 H 0.8415 0.4064 0.2315
C151_21 C 0.84586(6) 0.36152(6) 0.21226(6)
H96_21 H 0.8544 0.3495 0.2131
N50_21 N 0.86662(5) 0.26463(5) 0.15915(5)
N52_21 N 0.81987(5) 0.30962(5) 0.16047(5)
N53_21 N 0.83748(6) 0.32594(5) 0.18884(5)
N54_21 N 0.81020(5) 0.34389(5) 0.17093(5)
N55_21 N 0.85058(5) 0.37772(5) 0.22438(5)
C152_21 C 0.89882(6) 0.21762(6) 0.15478(6)
N56_21 N 0.88727(5) 0.22544(5) 0.14286(5)
S8_21 S 0.914801(19) 0.208169(19) 0.171973(19)
Co17_21 Co 0.8750 0.3750 0.247883(12)
N64_21 N 0.84085(5) 0.23537(5) 0.13338(5)
H1_21 H 0.9270 0.1137 0.9990
C1_22 C 0.42701(7) 0.12656(7) 0.73987(7)
H1_22 H 0.4270 0.1363 0.7510
C2_22 C 0.44533(7) 0.12348(8) 0.72925(8)
H2_22 H 0.4576 0.1309 0.7331
C3_22 C 0.44589(8) 0.10922(8) 0.71263(7)
H3_22 H 0.4583 0.1070 0.7048
C4_22 C 0.42748(6) 0.09844(7) 0.70818(6)
C5_22 C 0.40970(6) 0.10254(6) 0.71997(6)
H4_22 H 0.3973 0.0950 0.7169
C7_22 C 0.39037(6) 0.02968(6) 0.65471(6)
H5_22 H 0.4002 0.0312 0.6438
C8_22 C 0.39240(6) 0.04210(6) 0.67235(6)
C9_22 C 0.37773(7) 0.03988(7) 0.68854(7)
H6_22 H 0.3785 0.0484 0.7007
C10_22 C 0.36228(8) 0.02507(8) 0.68636(7)
H7_22 H 0.3523 0.0229 0.6971
C11_22 C 0.36146(7) 0.01329(7) 0.66811(7)
H8_22 H 0.3507 0.0032 0.6668
C12_22 C 0.40890(6) 0.05820(6) 0.67319(6)
C13_22 C 0.43540(6) 0.07532(6) 0.65743(6)
C14_22 C 0.42565(6) 0.08423(7) 0.69012(6)
C15_22 C 0.44838(6) 0.07901(6) 0.63881(6)
C16_22 C 0.44700(7) 0.06645(7) 0.62097(7)
H9_22 H 0.4377 0.0549 0.6205
C17_22 C 0.45943(8) 0.07116(8) 0.60410(7)
H10_22 H 0.4589 0.0629 0.5918
C18_22 C 0.47298(7) 0.08839(7) 0.60532(7)
H11_22 H 0.4815 0.0915 0.5936
C19_22 C 0.46226(6) 0.09586(6) 0.63848(6)
H12_22 H 0.4631 0.1044 0.6505
C21_22 C 0.51726(7) 0.08267(7) 0.63841(8)
H13_22 H 0.5071 0.0840 0.6491
C22_22 C 0.52852(8) 0.06473(8) 0.63748(8)
H14_22 H 0.5262 0.0539 0.6473
C23_22 C 0.54369(8) 0.06239(7) 0.62182(8)
H15_22 H 0.5517 0.0500 0.6207
C24_22 C 0.54663(7) 0.07895(7) 0.60798(7)
C25_22 C 0.53441(6) 0.09666(6) 0.60987(6)
H16_22 H 0.5364 0.1077 0.6002
C26_22 C 0.56299(7) 0.07784(7) 0.59166(7)
N3_22 N 0.37495(5) 0.01547(5) 0.65248(5)
N4_22 N 0.41047(5) 0.06987(5) 0.69038(5)
N5_22 N 0.43884(5) 0.08748(6) 0.67406(5)
N6_22 N 0.42093(5) 0.06020(5) 0.65611(5)
N10_22 N 0.57681(6) 0.06257(5) 0.59295(6)
C27_22 C 0.58267(7) 0.13841(8) 0.51726(7)
H17_22 H 0.5840 0.1491 0.5071
C28_22 C 0.56473(8) 0.13748(8) 0.52852(8)
H18_22 H 0.5539 0.1473 0.5262
C29_22 C 0.56239(7) 0.12182(8) 0.54369(8)
H19_22 H 0.5500 0.1207 0.5517
C30_22 C 0.57895(7) 0.10798(7) 0.54663(7)
C31_22 C 0.59666(6) 0.10987(6) 0.53441(6)
H20_22 H 0.6077 0.1002 0.5364
C32_22 C 0.57784(7) 0.09166(7) 0.56299(7)
N11_22 N 0.59891(6) 0.12489(5) 0.51975(5)
N12_22 N 0.56257(5) 0.09295(6) 0.57681(6)
C33_22 C 0.63841(8) 0.01726(7) 0.58267(7)
H21_22 H 0.6491 0.0071 0.5840
C34_22 C 0.63748(8) 0.02852(8) 0.56473(8)
H22_22 H 0.6473 0.0262 0.5539
C35_22 C 0.62182(8) 0.04369(8) 0.56239(7)
H23_22 H 0.6207 0.0517 0.5500
C36_22 C 0.60798(7) 0.04663(7) 0.57895(7)
C37_22 C 0.60987(6) 0.03441(6) 0.59666(6)
H24_22 H 0.6002 0.0364 0.6077
C38_22 C 0.59166(7) 0.06299(7) 0.57784(7)
N14_22 N 0.59295(6) 0.07681(6) 0.56257(5)
C39_22 C 0.62656(7) 0.23987(7) 0.42701(7)
H25_22 H 0.6363 0.2510 0.4270
C40_22 C 0.62348(8) 0.22925(8) 0.44533(7)
H26_22 H 0.6309 0.2331 0.4576
C41_22 C 0.60922(8) 0.21263(7) 0.44589(8)
H27_22 H 0.6070 0.2048 0.4583
C42_22 C 0.59844(7) 0.20818(6) 0.42748(6)
C43_22 C 0.60254(6) 0.21997(6) 0.40970(6)
H28_22 H 0.5950 0.2169 0.3973
C44_22 C 0.52968(6) 0.15471(6) 0.39037(6)
H29_22 H 0.5312 0.1438 0.4002
C45_22 C 0.54210(6) 0.17235(6) 0.39240(6)
C46_22 C 0.53988(7) 0.18854(7) 0.37773(7)
H30_22 H 0.5484 0.2007 0.3785
C47_22 C 0.52507(8) 0.18636(7) 0.36228(8)
H31_22 H 0.5229 0.1971 0.3523
C48_22 C 0.51329(7) 0.16811(7) 0.36146(7)
H32_22 H 0.5032 0.1668 0.3507
C49_22 C 0.55820(6) 0.17319(6) 0.40890(6)
C50_22 C 0.57532(6) 0.15743(6) 0.43540(6)
C51_22 C 0.58423(7) 0.19012(6) 0.42565(6)
C52_22 C 0.57901(6) 0.13881(6) 0.44838(6)
C53_22 C 0.56645(7) 0.12097(7) 0.44700(7)
H33_22 H 0.5549 0.1205 0.4377
C54_22 C 0.57116(8) 0.10410(7) 0.45943(8)
H34_22 H 0.5629 0.0918 0.4589
C55_22 C 0.58839(7) 0.10532(7) 0.47298(7)
H35_22 H 0.5915 0.0936 0.4815
C56_22 C 0.59586(6) 0.13848(6) 0.46226(6)
H36_22 H 0.6044 0.1505 0.4631
C57_22 C 0.62171(9) 0.17519(8) 0.50064(7)
N15_22 N 0.61662(5) 0.23537(5) 0.40915(5)
N16_22 N 0.51547(5) 0.15248(5) 0.37495(5)
N17_22 N 0.56987(5) 0.19038(5) 0.41047(5)
N18_22 N 0.58748(6) 0.17406(5) 0.43884(5)
N19_22 N 0.56020(5) 0.15611(5) 0.42093(5)
N20_22 N 0.60058(5) 0.12228(5) 0.47438(5)
N21_22 N 0.62318(5) 0.15744(6) 0.49876(5)
S3_22 S 0.61977(7) 0.20027(3) 0.50327(3)
C114_22 C 0.62344(7) 0.01013(7) 0.42701(7)
C115_22 C 0.62652(8) 0.02075(8) 0.44533(7)
H74_22 H 0.6191 0.0169 0.4576
C116_22 C 0.64078(8) 0.03737(7) 0.44589(8)
H75_22 H 0.6430 0.0452 0.4583
C117_22 C 0.65156(7) 0.04182(6) 0.42748(6)
C118_22 C 0.64746(6) 0.03003(6) 0.40970(6)
H76_22 H 0.6550 0.0331 0.3973
C119_22 C 0.72032(6) 0.09529(6) 0.39037(6)
H77_22 H 0.7188 0.1062 0.4002
C120_22 C 0.70790(6) 0.07765(6) 0.39240(6)
C121_22 C 0.71012(7) 0.06146(7) 0.37773(7)
H78_22 H 0.7016 0.0493 0.3785
C122_22 C 0.72493(8) 0.06364(7) 0.36228(8)
H79_22 H 0.7271 0.0529 0.3523
C123_22 C 0.73671(7) 0.08189(7) 0.36146(7)
H80_22 H 0.7468 0.0832 0.3507
C124_22 C 0.69180(6) 0.07681(6) 0.40890(6)
C125_22 C 0.67468(6) 0.09257(6) 0.43540(6)
C126_22 C 0.66577(7) 0.05988(6) 0.42565(6)
C127_22 C 0.67099(6) 0.11119(6) 0.44838(6)
C128_22 C 0.68355(7) 0.12903(7) 0.44700(7)
H81_22 H 0.6951 0.1295 0.4377
C129_22 C 0.67884(8) 0.14590(7) 0.45943(8)
H82_22 H 0.6871 0.1582 0.4589
C130_22 C 0.66161(7) 0.14468(7) 0.47298(7)
H83_22 H 0.6585 0.1564 0.4815
C131_22 C 0.65414(6) 0.11152(6) 0.46226(6)
H84_22 H 0.6456 0.0995 0.4631
C132_22 C 0.62829(9) 0.07481(8) 0.50064(7)
N42_22 N 0.63338(5) 0.01463(5) 0.40915(5)
N43_22 N 0.73453(5) 0.09752(5) 0.37495(5)
N44_22 N 0.68013(5) 0.05962(5) 0.41047(5)
N45_22 N 0.66252(6) 0.07594(5) 0.43884(5)
N46_22 N 0.68980(5) 0.09389(5) 0.42093(5)
N47_22 N 0.64942(5) 0.12772(5) 0.47438(5)
N48_22 N 0.62682(5) 0.09256(6) 0.49876(5)
S6_22 S 0.63023(7) 0.04973(3) 0.50327(3)
H85_22 H 0.3863 0.0010 0.5730
C152_22 C 0.39882(6) 0.03238(6) 0.59522(6)
N56_22 N 0.38727(5) 0.02456(5) 0.60714(5)
S8_22 S 0.414801(19) 0.041831(19) 0.578027(19)
N64_22 N 0.34085(5) 0.01463(5) 0.61662(5)
C6_22 C 0.34522(6) 0.96762(6) 0.64882(6)
N1_22 N 0.35714(5) 0.97544(5) 0.63727(5)
S1_22 S 0.328027(19) 0.958169(19) 0.664801(19)
H73_22 H 0.6137 0.9990 0.4270
C133_22 C 0.37656(7) 0.98987(7) 0.57299(7)
C134_22 C 0.37348(8) 0.97925(8) 0.55467(7)
H86_22 H 0.3809 0.9831 0.5424
C135_22 C 0.35922(8) 0.96263(7) 0.55411(8)
H87_22 H 0.3570 0.9548 0.5417
C136_22 C 0.34844(7) 0.95818(6) 0.57252(6)
C137_22 C 0.35254(6) 0.96997(6) 0.59030(6)
H88_22 H 0.3450 0.9669 0.6027
C139_22 C 0.27968(6) 0.90471(6) 0.60963(6)
H89_22 H 0.2812 0.8938 0.5998
C140_22 C 0.29210(6) 0.92235(6) 0.60760(6)
C141_22 C 0.28988(7) 0.93854(7) 0.62227(7)
H90_22 H 0.2984 0.9507 0.6215
C142_22 C 0.27507(8) 0.93636(7) 0.63772(8)
H91_22 H 0.2729 0.9471 0.6477
C143_22 C 0.26329(7) 0.91811(7) 0.63854(7)
H92_22 H 0.2532 0.9168 0.6493
C144_22 C 0.30820(6) 0.92319(6) 0.59110(6)
C145_22 C 0.32532(6) 0.90743(6) 0.56460(6)
C146_22 C 0.33423(7) 0.94012(6) 0.57435(6)
C147_22 C 0.32901(6) 0.88881(6) 0.55162(6)
C148_22 C 0.31645(7) 0.87097(7) 0.55300(7)
H93_22 H 0.3049 0.8705 0.5623
C149_22 C 0.32116(8) 0.85410(7) 0.54057(8)
H94_22 H 0.3129 0.8418 0.5411
C150_22 C 0.33839(7) 0.85532(7) 0.52702(7)
H95_22 H 0.3415 0.8436 0.5185
C151_22 C 0.34586(6) 0.88848(6) 0.53774(6)
H96_22 H 0.3544 0.9005 0.5369
N50_22 N 0.36662(5) 0.98537(5) 0.59085(5)
N52_22 N 0.31987(5) 0.94038(5) 0.58953(5)
N53_22 N 0.33748(6) 0.92406(5) 0.56116(5)
N54_22 N 0.31020(5) 0.90611(5) 0.57907(5)
N55_22 N 0.35058(5) 0.87228(5) 0.52562(5)
Co17_22 Co 0.3750 0.8750 0.502117(12)
C1_23 C 0.82299(7) 0.62344(7) 0.23987(7)
H1_23 H 0.8230 0.6137 0.2510
C2_23 C 0.80467(7) 0.62652(8) 0.22925(8)
H2_23 H 0.7924 0.6191 0.2331
C3_23 C 0.80411(8) 0.64078(8) 0.21263(7)
H3_23 H 0.7917 0.6430 0.2048
C4_23 C 0.82252(6) 0.65156(7) 0.20818(6)
C5_23 C 0.84030(6) 0.64746(6) 0.21997(6)
H4_23 H 0.8527 0.6550 0.2169
C6_23 C 0.90478(6) 0.78238(6) 0.14882(6)
C7_23 C 0.85963(6) 0.72032(6) 0.15471(6)
H5_23 H 0.8498 0.7188 0.1438
C8_23 C 0.85760(6) 0.70790(6) 0.17235(6)
C9_23 C 0.87227(7) 0.71012(7) 0.18854(7)
H6_23 H 0.8715 0.7016 0.2007
C10_23 C 0.88772(8) 0.72493(8) 0.18636(7)
H7_23 H 0.8977 0.7271 0.1971
C11_23 C 0.88854(7) 0.73671(7) 0.16811(7)
H8_23 H 0.8993 0.7468 0.1668
C12_23 C 0.84110(6) 0.69180(6) 0.17319(6)
C13_23 C 0.81460(6) 0.67468(6) 0.15743(6)
C14_23 C 0.82435(6) 0.66577(7) 0.19012(6)
C15_23 C 0.80162(6) 0.67099(6) 0.13881(6)
C16_23 C 0.80300(7) 0.68355(7) 0.12097(7)
H9_23 H 0.8123 0.6951 0.1205
C17_23 C 0.79057(8) 0.67884(8) 0.10410(7)
H10_23 H 0.7911 0.6871 0.0918
C18_23 C 0.77702(7) 0.66161(7) 0.10532(7)
H11_23 H 0.7685 0.6585 0.0936
C19_23 C 0.78774(6) 0.65414(6) 0.13848(6)
H12_23 H 0.7869 0.6456 0.1505
C21_23 C 0.73274(7) 0.66733(7) 0.13841(8)
H13_23 H 0.7429 0.6660 0.1491
C22_23 C 0.72148(8) 0.68527(8) 0.13748(8)
H14_23 H 0.7238 0.6961 0.1473
C23_23 C 0.70631(8) 0.68761(7) 0.12182(8)
H15_23 H 0.6983 0.7000 0.1207
C24_23 C 0.70337(7) 0.67105(7) 0.10798(7)
C25_23 C 0.71559(6) 0.65334(6) 0.10987(6)
H16_23 H 0.7136 0.6423 0.1002
C26_23 C 0.68701(7) 0.67216(7) 0.09166(7)
N1_23 N 0.89286(5) 0.77456(5) 0.13727(5)
N3_23 N 0.87505(5) 0.73453(5) 0.15248(5)
N4_23 N 0.83953(5) 0.68013(5) 0.19038(5)
N5_23 N 0.81116(5) 0.66252(6) 0.17406(5)
N6_23 N 0.82907(5) 0.68980(5) 0.15611(5)
N10_23 N 0.67319(6) 0.68743(5) 0.09295(6)
S1_23 S 0.921973(19) 0.791831(19) 0.164801(19)
C27_23 C 0.66733(7) 0.61159(8) 0.01726(7)
H17_23 H 0.6660 0.6009 0.0071
C28_23 C 0.68527(8) 0.61252(8) 0.02852(8)
H18_23 H 0.6961 0.6027 0.0262
C29_23 C 0.68761(7) 0.62818(8) 0.04369(8)
H19_23 H 0.7000 0.6293 0.0517
C30_23 C 0.67105(7) 0.64202(7) 0.04663(7)
C31_23 C 0.65334(6) 0.64013(6) 0.03441(6)
H20_23 H 0.6423 0.6498 0.0364
C32_23 C 0.67216(7) 0.65834(7) 0.06299(7)
N11_23 N 0.65109(6) 0.62511(5) 0.01975(5)
N12_23 N 0.68743(5) 0.65705(6) 0.07681(6)
C33_23 C 0.61159(8) 0.73274(7) 0.08267(7)
H21_23 H 0.6009 0.7429 0.0840
C34_23 C 0.61252(8) 0.72148(8) 0.06473(8)
H22_23 H 0.6027 0.7238 0.0539
C35_23 C 0.62818(8) 0.70631(8) 0.06239(7)
H23_23 H 0.6293 0.6983 0.0500
C36_23 C 0.64202(7) 0.70337(7) 0.07895(7)
C37_23 C 0.64013(6) 0.71559(6) 0.09666(6)
H24_23 H 0.6498 0.7136 0.1077
C38_23 C 0.65834(7) 0.68701(7) 0.07784(7)
N14_23 N 0.65705(6) 0.67319(6) 0.06257(5)
C57_23 C 0.62829(9) 0.57481(8) 0.00064(7)
S3_23 S 0.63023(7) 0.54973(3) 0.00327(3)
C132_23 C 0.62171(9) 0.67519(8) 0.00064(7)
S6_23 S 0.61977(7) 0.70027(3) 0.00327(3)
C133_23 C 0.87344(7) 0.76013(7) 0.07299(7)
H85_23 H 0.8637 0.7490 0.0730
C134_23 C 0.87652(8) 0.77075(8) 0.05467(7)
H86_23 H 0.8691 0.7669 0.0424
C135_23 C 0.89078(8) 0.78737(7) 0.05411(8)
H87_23 H 0.8930 0.7952 0.0417
C136_23 C 0.90156(7) 0.79182(6) 0.07252(6)
C137_23 C 0.89746(6) 0.78003(6) 0.09030(6)
H88_23 H 0.9050 0.7831 0.1027
C139_23 C 0.97032(6) 0.84529(6) 0.10963(6)
H89_23 H 0.9688 0.8562 0.0998
C140_23 C 0.95790(6) 0.82765(6) 0.10760(6)
C141_23 C 0.96012(7) 0.81146(7) 0.12227(7)
H90_23 H 0.9516 0.7993 0.1215
C142_23 C 0.97493(8) 0.81364(7) 0.13772(8)
H91_23 H 0.9771 0.8029 0.1477
C143_23 C 0.98671(7) 0.83189(7) 0.13854(7)
H92_23 H 0.9968 0.8332 0.1493
C144_23 C 0.94180(6) 0.82681(6) 0.09110(6)
C145_23 C 0.92468(6) 0.84257(6) 0.06460(6)
C146_23 C 0.91577(7) 0.80988(6) 0.07435(6)
C147_23 C 0.92099(6) 0.86119(6) 0.05162(6)
C148_23 C 0.93355(7) 0.87903(7) 0.05300(7)
H93_23 H 0.9451 0.8795 0.0623
C149_23 C 0.92884(8) 0.89590(7) 0.04057(8)
H94_23 H 0.9371 0.9082 0.0411
C150_23 C 0.91161(7) 0.89468(7) 0.02702(7)
H95_23 H 0.9085 0.9064 0.0185
C151_23 C 0.90414(6) 0.86152(6) 0.03774(6)
H96_23 H 0.8956 0.8495 0.0369
N50_23 N 0.88338(5) 0.76463(5) 0.09085(5)
N52_23 N 0.93013(5) 0.80962(5) 0.08953(5)
N53_23 N 0.91252(6) 0.82594(5) 0.06116(5)
N54_23 N 0.93980(5) 0.84389(5) 0.07907(5)
N55_23 N 0.89942(5) 0.87772(5) 0.02562(5)
C152_23 C 0.85118(6) 0.71762(6) 0.09522(6)
N56_23 N 0.86273(5) 0.72544(5) 0.10714(5)
S8_23 S 0.835199(19) 0.708169(19) 0.078027(19)
Co17_23 Co 0.8750 0.8750 0.002117(12)
N64_23 N 0.90915(5) 0.73537(5) 0.11662(5)
C39_23 C 0.62344(7) 0.51013(7) 0.92701(7)
H25_23 H 0.6137 0.4990 0.9270
C40_23 C 0.62652(8) 0.52075(8) 0.94533(7)
H26_23 H 0.6191 0.5169 0.9576
C41_23 C 0.64078(8) 0.53737(7) 0.94589(8)
H27_23 H 0.6430 0.5452 0.9583
C42_23 C 0.65156(7) 0.54182(6) 0.92748(6)
C43_23 C 0.64746(6) 0.53003(6) 0.90970(6)
H28_23 H 0.6550 0.5331 0.8973
C44_23 C 0.72032(6) 0.59529(6) 0.89037(6)
H29_23 H 0.7188 0.6062 0.9002
C45_23 C 0.70790(6) 0.57765(6) 0.89240(6)
C46_23 C 0.71012(7) 0.56146(7) 0.87773(7)
H30_23 H 0.7016 0.5493 0.8785
C47_23 C 0.72493(8) 0.56364(7) 0.86228(8)
H31_23 H 0.7271 0.5529 0.8523
C48_23 C 0.73671(7) 0.58189(7) 0.86146(7)
H32_23 H 0.7468 0.5832 0.8507
C49_23 C 0.69180(6) 0.57681(6) 0.90890(6)
C50_23 C 0.67468(6) 0.59257(6) 0.93540(6)
C51_23 C 0.66577(7) 0.55988(6) 0.92565(6)
C52_23 C 0.67099(6) 0.61119(6) 0.94838(6)
C53_23 C 0.68355(7) 0.62903(7) 0.94700(7)
H33_23 H 0.6951 0.6295 0.9377
C54_23 C 0.67884(8) 0.64590(7) 0.95943(8)
H34_23 H 0.6871 0.6582 0.9589
C55_23 C 0.66161(7) 0.64468(7) 0.97298(7)
H35_23 H 0.6585 0.6564 0.9815
C56_23 C 0.65414(6) 0.61152(6) 0.96226(6)
H36_23 H 0.6456 0.5995 0.9631
N15_23 N 0.63338(5) 0.51463(5) 0.90915(5)
N16_23 N 0.73453(5) 0.59752(5) 0.87495(5)
N17_23 N 0.68013(5) 0.55962(5) 0.91047(5)
N18_23 N 0.66252(6) 0.57594(5) 0.93884(5)
N19_23 N 0.68980(5) 0.59389(5) 0.92093(5)
N20_23 N 0.64942(5) 0.62772(5) 0.97438(5)
N21_23 N 0.62682(5) 0.59256(6) 0.99876(5)
C114_23 C 0.62656(7) 0.73987(7) 0.92701(7)
H73_23 H 0.6363 0.7510 0.9270
C115_23 C 0.62348(8) 0.72925(8) 0.94533(7)
H74_23 H 0.6309 0.7331 0.9576
C116_23 C 0.60922(8) 0.71263(7) 0.94589(8)
H75_23 H 0.6070 0.7048 0.9583
C117_23 C 0.59844(7) 0.70818(6) 0.92748(6)
C118_23 C 0.60254(6) 0.71997(6) 0.90970(6)
H76_23 H 0.5950 0.7169 0.8973
C119_23 C 0.52968(6) 0.65471(6) 0.89037(6)
H77_23 H 0.5312 0.6438 0.9002
C120_23 C 0.54210(6) 0.67235(6) 0.89240(6)
C121_23 C 0.53988(7) 0.68854(7) 0.87773(7)
H78_23 H 0.5484 0.7007 0.8785
C122_23 C 0.52507(8) 0.68636(7) 0.86228(8)
H79_23 H 0.5229 0.6971 0.8523
C123_23 C 0.51329(7) 0.66811(7) 0.86146(7)
H80_23 H 0.5032 0.6668 0.8507
C124_23 C 0.55820(6) 0.67319(6) 0.90890(6)
C125_23 C 0.57532(6) 0.65743(6) 0.93540(6)
C126_23 C 0.58423(7) 0.69012(6) 0.92565(6)
C127_23 C 0.57901(6) 0.63881(6) 0.94838(6)
C128_23 C 0.56645(7) 0.62097(7) 0.94700(7)
H81_23 H 0.5549 0.6205 0.9377
C129_23 C 0.57116(8) 0.60410(7) 0.95943(8)
H82_23 H 0.5629 0.5918 0.9589
C130_23 C 0.58839(7) 0.60532(7) 0.97298(7)
H83_23 H 0.5915 0.5936 0.9815
C131_23 C 0.59586(6) 0.63848(6) 0.96226(6)
H84_23 H 0.6044 0.6505 0.9631
N42_23 N 0.61662(5) 0.73537(5) 0.90915(5)
N43_23 N 0.51547(5) 0.65248(5) 0.87495(5)
N44_23 N 0.56987(5) 0.69038(5) 0.91047(5)
N45_23 N 0.58748(6) 0.67406(5) 0.93884(5)
N46_23 N 0.56020(5) 0.65611(5) 0.92093(5)
N47_23 N 0.60058(5) 0.62228(5) 0.97438(5)
N48_23 N 0.62318(5) 0.65744(6) 0.99876(5)
C1_24 C 0.32299(7) 0.62656(7) 0.51013(7)
H1_24 H 0.3230 0.6363 0.4990
C2_24 C 0.30467(7) 0.62348(8) 0.52075(8)
H2_24 H 0.2924 0.6309 0.5169
C3_24 C 0.30411(8) 0.60922(8) 0.53737(7)
H3_24 H 0.2917 0.6070 0.5452
C4_24 C 0.32252(6) 0.59844(7) 0.54182(6)
C5_24 C 0.34030(6) 0.60254(6) 0.53003(6)
H4_24 H 0.3527 0.5950 0.5331
C6_24 C 0.40478(6) 0.46762(6) 0.60118(6)
C7_24 C 0.35963(6) 0.52968(6) 0.59529(6)
H5_24 H 0.3498 0.5312 0.6062
C8_24 C 0.35760(6) 0.54210(6) 0.57765(6)
C9_24 C 0.37227(7) 0.53988(7) 0.56146(7)
H6_24 H 0.3715 0.5484 0.5493
C10_24 C 0.38772(8) 0.52507(8) 0.56364(7)
H7_24 H 0.3977 0.5229 0.5529
C11_24 C 0.38854(7) 0.51329(7) 0.58189(7)
H8_24 H 0.3993 0.5032 0.5832
C12_24 C 0.34110(6) 0.55820(6) 0.57681(6)
C13_24 C 0.31460(6) 0.57532(6) 0.59257(6)
C14_24 C 0.32435(6) 0.58423(7) 0.55988(6)
C15_24 C 0.30162(6) 0.57901(6) 0.61119(6)
C16_24 C 0.30300(7) 0.56645(7) 0.62903(7)
H9_24 H 0.3123 0.5549 0.6295
C17_24 C 0.29057(8) 0.57116(8) 0.64590(7)
H10_24 H 0.2911 0.5629 0.6582
C18_24 C 0.27702(7) 0.58839(7) 0.64468(7)
H11_24 H 0.2685 0.5915 0.6564
C19_24 C 0.28774(6) 0.59586(6) 0.61152(6)
H12_24 H 0.2869 0.6044 0.5995
C21_24 C 0.23274(7) 0.58267(7) 0.61159(8)
H13_24 H 0.2429 0.5840 0.6009
C22_24 C 0.22148(8) 0.56473(8) 0.61252(8)
H14_24 H 0.2238 0.5539 0.6027
C23_24 C 0.20631(8) 0.56239(7) 0.62818(8)
H15_24 H 0.1983 0.5500 0.6293
C24_24 C 0.20337(7) 0.57895(7) 0.64202(7)
C25_24 C 0.21559(6) 0.59666(6) 0.64013(6)
H16_24 H 0.2136 0.6077 0.6498
C26_24 C 0.18701(7) 0.57784(7) 0.65834(7)
N1_24 N 0.39286(5) 0.47544(5) 0.61273(5)
N3_24 N 0.37505(5) 0.51547(5) 0.59752(5)
N4_24 N 0.33953(5) 0.56987(5) 0.55962(5)
N5_24 N 0.31116(5) 0.58748(6) 0.57594(5)
N6_24 N 0.32907(5) 0.56020(5) 0.59389(5)
N10_24 N 0.17319(6) 0.56257(5) 0.65705(6)
S1_24 S 0.421973(19) 0.458169(19) 0.585199(19)
C27_24 C 0.16733(7) 0.63841(8) 0.73274(7)
H17_24 H 0.1660 0.6491 0.7429
C28_24 C 0.18527(8) 0.63748(8) 0.72148(8)
H18_24 H 0.1961 0.6473 0.7238
C29_24 C 0.18761(7) 0.62182(8) 0.70631(8)
H19_24 H 0.2000 0.6207 0.6983
C30_24 C 0.17105(7) 0.60798(7) 0.70337(7)
C31_24 C 0.15334(6) 0.60987(6) 0.71559(6)
H20_24 H 0.1423 0.6002 0.7136
C32_24 C 0.17216(7) 0.59166(7) 0.68701(7)
N11_24 N 0.15109(6) 0.62489(5) 0.73025(5)
N12_24 N 0.18743(5) 0.59295(6) 0.67319(6)
C33_24 C 0.11159(8) 0.51726(7) 0.66733(7)
H21_24 H 0.1009 0.5071 0.6660
C34_24 C 0.11252(8) 0.52852(8) 0.68527(8)
H22_24 H 0.1027 0.5262 0.6961
C35_24 C 0.12818(8) 0.54369(8) 0.68761(7)
H23_24 H 0.1293 0.5517 0.7000
C36_24 C 0.14202(7) 0.54663(7) 0.67105(7)
C37_24 C 0.14013(6) 0.53441(6) 0.65334(6)
H24_24 H 0.1498 0.5364 0.6423
C38_24 C 0.15834(7) 0.56299(7) 0.67216(7)
N14_24 N 0.15705(6) 0.57681(6) 0.68743(5)
C39_24 C 0.12344(7) 0.73987(7) 0.82299(7)
H25_24 H 0.1137 0.7510 0.8230
C40_24 C 0.12652(8) 0.72925(8) 0.80467(7)
H26_24 H 0.1191 0.7331 0.7924
C41_24 C 0.14078(8) 0.71263(7) 0.80411(8)
H27_24 H 0.1430 0.7048 0.7917
C42_24 C 0.15156(7) 0.70818(6) 0.82252(6)
C43_24 C 0.14746(6) 0.71997(6) 0.84030(6)
H28_24 H 0.1550 0.7169 0.8527
C44_24 C 0.22032(6) 0.65471(6) 0.85963(6)
H29_24 H 0.2188 0.6438 0.8498
C45_24 C 0.20790(6) 0.67235(6) 0.85760(6)
C46_24 C 0.21012(7) 0.68854(7) 0.87227(7)
H30_24 H 0.2016 0.7007 0.8715
C47_24 C 0.22493(8) 0.68636(7) 0.88772(8)
H31_24 H 0.2271 0.6971 0.8977
C48_24 C 0.23671(7) 0.66811(7) 0.88854(7)
H32_24 H 0.2468 0.6668 0.8993
C49_24 C 0.19180(6) 0.67319(6) 0.84110(6)
C50_24 C 0.17468(6) 0.65743(6) 0.81460(6)
C51_24 C 0.16577(7) 0.69012(6) 0.82435(6)
C52_24 C 0.17099(6) 0.63881(6) 0.80162(6)
C53_24 C 0.18355(7) 0.62097(7) 0.80300(7)
H33_24 H 0.1951 0.6205 0.8123
C54_24 C 0.17884(8) 0.60410(7) 0.79057(8)
H34_24 H 0.1871 0.5918 0.7911
C55_24 C 0.16161(7) 0.60532(7) 0.77702(7)
H35_24 H 0.1585 0.5936 0.7685
C56_24 C 0.15414(6) 0.63848(6) 0.78774(6)
H36_24 H 0.1456 0.6505 0.7869
C57_24 C 0.12829(9) 0.67519(8) 0.74936(7)
N15_24 N 0.13338(5) 0.73537(5) 0.84085(5)
N16_24 N 0.23453(5) 0.65248(5) 0.87505(5)
N17_24 N 0.18013(5) 0.69038(5) 0.83953(5)
N18_24 N 0.16252(6) 0.67406(5) 0.81116(5)
N19_24 N 0.18980(5) 0.65611(5) 0.82907(5)
N20_24 N 0.14942(5) 0.62228(5) 0.77562(5)
N21_24 N 0.12682(5) 0.65744(6) 0.75124(5)
S3_24 S 0.13023(7) 0.70027(3) 0.74673(3)
C114_24 C 0.12656(7) 0.51013(7) 0.82299(7)
H73_24 H 0.1363 0.4990 0.8230
C115_24 C 0.12348(8) 0.52075(8) 0.80467(7)
H74_24 H 0.1309 0.5169 0.7924
C116_24 C 0.10922(8) 0.53737(7) 0.80411(8)
H75_24 H 0.1070 0.5452 0.7917
C117_24 C 0.09844(7) 0.54182(6) 0.82252(6)
C118_24 C 0.10254(6) 0.53003(6) 0.84030(6)
H76_24 H 0.0950 0.5331 0.8527
C119_24 C 0.02968(6) 0.59529(6) 0.85963(6)
H77_24 H 0.0312 0.6062 0.8498
C120_24 C 0.04210(6) 0.57765(6) 0.85760(6)
C121_24 C 0.03988(7) 0.56146(7) 0.87227(7)
H78_24 H 0.0484 0.5493 0.8715
C122_24 C 0.02507(8) 0.56364(7) 0.88772(8)
H79_24 H 0.0229 0.5529 0.8977
C123_24 C 0.01329(7) 0.58189(7) 0.88854(7)
H80_24 H 0.0032 0.5832 0.8993
C124_24 C 0.05820(6) 0.57681(6) 0.84110(6)
C125_24 C 0.07532(6) 0.59257(6) 0.81460(6)
C126_24 C 0.08423(7) 0.55988(6) 0.82435(6)
C127_24 C 0.07901(6) 0.61119(6) 0.80162(6)
C128_24 C 0.06645(7) 0.62903(7) 0.80300(7)
H81_24 H 0.0549 0.6295 0.8123
C129_24 C 0.07116(8) 0.64590(7) 0.79057(8)
H82_24 H 0.0629 0.6582 0.7911
C130_24 C 0.08839(7) 0.64468(7) 0.77702(7)
H83_24 H 0.0915 0.6564 0.7685
C131_24 C 0.09586(6) 0.61152(6) 0.78774(6)
H84_24 H 0.1044 0.5995 0.7869
C132_24 C 0.12171(9) 0.57481(8) 0.74936(7)
N42_24 N 0.11662(5) 0.51463(5) 0.84085(5)
N43_24 N 0.01547(5) 0.59752(5) 0.87505(5)
N44_24 N 0.06987(5) 0.55962(5) 0.83953(5)
N45_24 N 0.08748(6) 0.57594(5) 0.81116(5)
N46_24 N 0.06020(5) 0.59389(5) 0.82907(5)
N47_24 N 0.10058(5) 0.62772(5) 0.77562(5)
N48_24 N 0.12318(5) 0.59256(6) 0.75124(5)
S6_24 S 0.11977(7) 0.54973(3) 0.74673(3)
C133_24 C 0.37344(7) 0.48987(7) 0.67701(7)
H85_24 H 0.3637 0.5010 0.6770
C134_24 C 0.37652(8) 0.47925(8) 0.69533(7)
H86_24 H 0.3691 0.4831 0.7076
C135_24 C 0.39078(8) 0.46263(7) 0.69589(8)
H87_24 H 0.3930 0.4548 0.7083
C136_24 C 0.40156(7) 0.45818(6) 0.67748(6)
C137_24 C 0.39746(6) 0.46997(6) 0.65970(6)
H88_24 H 0.4050 0.4669 0.6473
C139_24 C 0.47032(6) 0.40471(6) 0.64037(6)
H89_24 H 0.4688 0.3938 0.6502
C140_24 C 0.45790(6) 0.42235(6) 0.64240(6)
C141_24 C 0.46012(7) 0.43854(7) 0.62773(7)
H90_24 H 0.4516 0.4507 0.6285
C142_24 C 0.47493(8) 0.43636(7) 0.61228(8)
H91_24 H 0.4771 0.4471 0.6023
C143_24 C 0.48671(7) 0.41811(7) 0.61146(7)
H92_24 H 0.4968 0.4168 0.6007
C144_24 C 0.44180(6) 0.42319(6) 0.65890(6)
C145_24 C 0.42468(6) 0.40743(6) 0.68540(6)
C146_24 C 0.41577(7) 0.44012(6) 0.67565(6)
C147_24 C 0.42099(6) 0.38881(6) 0.69838(6)
C148_24 C 0.43355(7) 0.37097(7) 0.69700(7)
H93_24 H 0.4451 0.3705 0.6877
C149_24 C 0.42884(8) 0.35410(7) 0.70943(8)
H94_24 H 0.4371 0.3418 0.7089
C150_24 C 0.41161(7) 0.35532(7) 0.72298(7)
H95_24 H 0.4085 0.3436 0.7315
C151_24 C 0.40414(6) 0.38848(6) 0.71226(6)
H96_24 H 0.3956 0.4005 0.7131
N50_24 N 0.38338(5) 0.48537(5) 0.65915(5)
N52_24 N 0.43013(5) 0.44038(5) 0.66047(5)
N53_24 N 0.41252(6) 0.42406(5) 0.68884(5)
N54_24 N 0.43980(5) 0.40611(5) 0.67093(5)
N55_24 N 0.39942(5) 0.37228(5) 0.72438(5)
C152_24 C 0.35118(6) 0.53238(6) 0.65478(6)
N56_24 N 0.36273(5) 0.52456(5) 0.64286(5)
S8_24 S 0.335199(19) 0.541831(19) 0.671973(19)
Co17_24 Co 0.3750 0.3750 0.747883(12)
N64_24 N 0.40915(5) 0.51463(5) 0.63338(5)
C155_9 C 0.03238(6) 0.35118(6) 0.65478(6)
N59_9 N 0.02456(5) 0.36273(5) 0.64286(5)
S11_9 S 0.041831(19) 0.335199(19) 0.671973(19)
N66_9 N 0.01547(5) 0.37505(5) 0.59752(5)
C6_25 C 0.89882(6) 0.53238(6) 0.59522(6)
N1_25 N 0.88727(5) 0.52456(5) 0.60714(5)
S1_25 S 0.914801(19) 0.541831(19) 0.578027(19)
C133_25 C 0.82299(7) 0.51013(7) 0.62656(7)
H85_25 H 0.8230 0.4990 0.6363
C134_25 C 0.80467(7) 0.52075(8) 0.62348(8)
H86_25 H 0.7924 0.5169 0.6309
C135_25 C 0.80411(8) 0.53737(7) 0.60922(8)
H87_25 H 0.7917 0.5452 0.6070
C136_25 C 0.82252(6) 0.54182(6) 0.59844(7)
C137_25 C 0.84030(6) 0.53003(6) 0.60254(6)
H88_25 H 0.8527 0.5331 0.5950
C138_5 C 0.90478(6) 0.60118(6) 0.46762(6)
C139_25 C 0.85963(6) 0.59529(6) 0.52968(6)
H89_25 H 0.8498 0.6062 0.5312
C140_25 C 0.85760(6) 0.57765(6) 0.54210(6)
C141_25 C 0.87227(7) 0.56146(7) 0.53988(7)
H90_25 H 0.8715 0.5493 0.5484
C142_25 C 0.88772(8) 0.56364(7) 0.52507(8)
H91_25 H 0.8977 0.5529 0.5229
C143_25 C 0.88854(7) 0.58189(7) 0.51329(7)
H92_25 H 0.8993 0.5832 0.5032
C144_25 C 0.84110(6) 0.57681(6) 0.55820(6)
C145_25 C 0.81460(6) 0.59257(6) 0.57532(6)
C146_25 C 0.82435(6) 0.55988(6) 0.58423(7)
C147_25 C 0.80162(6) 0.61119(6) 0.57901(6)
C148_25 C 0.80300(7) 0.62903(7) 0.56645(7)
H93_25 H 0.8123 0.6295 0.5549
C149_25 C 0.79057(8) 0.64590(7) 0.57116(8)
H94_25 H 0.7911 0.6582 0.5629
C150_25 C 0.77702(7) 0.64468(7) 0.58839(7)
H95_25 H 0.7685 0.6564 0.5915
C151_25 C 0.78774(6) 0.61152(6) 0.59586(6)
H96_25 H 0.7869 0.5995 0.6044
N49_5 N 0.89286(5) 0.61273(5) 0.47544(5)
N50_25 N 0.84085(5) 0.51463(5) 0.61662(5)
N51_5 N 0.87505(5) 0.59752(5) 0.51547(5)
N52_25 N 0.83953(5) 0.55962(5) 0.56987(5)
N53_25 N 0.81116(5) 0.57594(5) 0.58748(6)
N54_25 N 0.82907(5) 0.59389(5) 0.56020(5)
N55_25 N 0.77562(5) 0.62772(5) 0.60058(5)
S7_5 S 0.921973(19) 0.585199(19) 0.458169(19)
C152_25 C 0.84522(6) 0.46762(6) 0.64882(6)
N56_25 N 0.85714(5) 0.47544(5) 0.63727(5)
S8_25 S 0.828027(19) 0.458169(19) 0.664801(19)
C154_5 C 0.85118(6) 0.65478(6) 0.53238(6)
N58_5 N 0.86273(5) 0.64286(5) 0.52456(5)
S10_5 S 0.835199(19) 0.671973(19) 0.541831(19)
C156_9 C 0.96762(6) 0.40478(6) 0.60118(6)
N60_9 N 0.97544(5) 0.39286(5) 0.61273(5)
S12_9 S 0.958169(19) 0.421973(19) 0.585199(19)
Co17_25 Co 0.752117(12) 0.6250 0.6250
N64_25 N 0.86662(5) 0.48537(5) 0.59085(5)
N67_9 N 0.98453(5) 0.34752(5) 0.62505(5)
N68_5 N 0.84752(5) 0.62505(5) 0.48453(5)
C6_26 C 0.35118(6) 0.21762(6) 0.09522(6)
N1_26 N 0.36273(5) 0.22544(5) 0.10714(5)
S1_26 S 0.335199(19) 0.208169(19) 0.078027(19)
C133_26 C 0.42701(7) 0.23987(7) 0.12656(7)
H85_26 H 0.4270 0.2510 0.1363
C134_26 C 0.44533(7) 0.22925(8) 0.12348(8)
H86_26 H 0.4576 0.2331 0.1309
C135_26 C 0.44589(8) 0.21263(7) 0.10922(8)
H87_26 H 0.4583 0.2048 0.1070
C136_26 C 0.42748(6) 0.20818(6) 0.09844(7)
C137_26 C 0.40970(6) 0.21997(6) 0.10254(6)
H88_26 H 0.3973 0.2169 0.0950
C139_26 C 0.39037(6) 0.15471(6) 0.02968(6)
H89_26 H 0.4002 0.1438 0.0312
C140_26 C 0.39240(6) 0.17235(6) 0.04210(6)
C141_26 C 0.37773(7) 0.18854(7) 0.03988(7)
H90_26 H 0.3785 0.2007 0.0484
C142_26 C 0.36228(8) 0.18636(7) 0.02507(8)
H91_26 H 0.3523 0.1971 0.0229
C143_26 C 0.36146(7) 0.16811(7) 0.01329(7)
H92_26 H 0.3507 0.1668 0.0032
C144_26 C 0.40890(6) 0.17319(6) 0.05820(6)
C145_26 C 0.43540(6) 0.15743(6) 0.07532(6)
C146_26 C 0.42565(6) 0.19012(6) 0.08423(7)
C147_26 C 0.44838(6) 0.13881(6) 0.07901(6)
C148_26 C 0.44700(7) 0.12097(7) 0.06645(7)
H93_26 H 0.4377 0.1205 0.0549
C149_26 C 0.45943(8) 0.10410(7) 0.07116(8)
H94_26 H 0.4589 0.0918 0.0629
C150_26 C 0.47298(7) 0.10532(7) 0.08839(7)
H95_26 H 0.4815 0.0936 0.0915
C151_26 C 0.46226(6) 0.13848(6) 0.09586(6)
H96_26 H 0.4631 0.1505 0.1044
N50_26 N 0.40915(5) 0.23537(5) 0.11662(5)
N51_6 N 0.37495(5) 0.15248(5) 0.01547(5)
N52_26 N 0.41047(5) 0.19038(5) 0.06987(5)
N53_26 N 0.43884(5) 0.17406(5) 0.08748(6)
N54_26 N 0.42093(5) 0.15611(5) 0.06020(5)
N55_26 N 0.47438(5) 0.12228(5) 0.10058(5)
C152_26 C 0.40478(6) 0.28238(6) 0.14882(6)
N56_26 N 0.39286(5) 0.27456(5) 0.13727(5)
S8_26 S 0.421973(19) 0.291831(19) 0.164801(19)
C154_6 C 0.39882(6) 0.09522(6) 0.03238(6)
N58_6 N 0.38727(5) 0.10714(5) 0.02456(5)
S10_6 S 0.414801(19) 0.078027(19) 0.041831(19)
C155_10 C 0.21762(6) 0.39882(6) 0.15478(6)
N59_10 N 0.22544(5) 0.38727(5) 0.14286(5)
S11_10 S 0.208169(19) 0.414801(19) 0.171973(19)
C156_10 C 0.28238(6) 0.34522(6) 0.10118(6)
N60_10 N 0.27456(5) 0.35714(5) 0.11273(5)
S12_10 S 0.291831(19) 0.328027(19) 0.085199(19)
Co17_26 Co 0.497883(12) 0.1250 0.1250
N64_26 N 0.38338(5) 0.26463(5) 0.09085(5)
N66_10 N 0.23453(5) 0.37495(5) 0.09752(5)
N67_10 N 0.26547(5) 0.40248(5) 0.12505(5)
C138_6 C 0.34522(6) 0.14882(6) 0.96762(6)
N49_6 N 0.35714(5) 0.13727(5) 0.97544(5)
S7_6 S 0.328027(19) 0.164801(19) 0.958169(19)
N68_6 N 0.40248(5) 0.12495(5) 0.98453(5)
C6_27 C 0.85118(6) 0.03238(6) 0.65478(6)
N1_27 N 0.86273(5) 0.02456(5) 0.64286(5)
S1_27 S 0.835199(19) 0.041831(19) 0.671973(19)
C133_27 C 0.92701(7) 0.01013(7) 0.62344(7)
C134_27 C 0.94533(7) 0.02075(8) 0.62652(8)
H86_27 H 0.9576 0.0169 0.6191
C135_27 C 0.94589(8) 0.03737(7) 0.64078(8)
H87_27 H 0.9583 0.0452 0.6430
C136_27 C 0.92748(6) 0.04182(6) 0.65156(7)
C137_27 C 0.90970(6) 0.03003(6) 0.64746(6)
H88_27 H 0.8973 0.0331 0.6550
C138_7 C 0.84522(6) 0.10118(6) 0.78238(6)
C139_27 C 0.89037(6) 0.09529(6) 0.72032(6)
H89_27 H 0.9002 0.1062 0.7188
C140_27 C 0.89240(6) 0.07765(6) 0.70790(6)
C141_27 C 0.87773(7) 0.06146(7) 0.71012(7)
H90_27 H 0.8785 0.0493 0.7016
C142_27 C 0.86228(8) 0.06364(7) 0.72493(8)
H91_27 H 0.8523 0.0529 0.7271
C143_27 C 0.86146(7) 0.08189(7) 0.73671(7)
H92_27 H 0.8507 0.0832 0.7468
C144_27 C 0.90890(6) 0.07681(6) 0.69180(6)
C145_27 C 0.93540(6) 0.09257(6) 0.67468(6)
C146_27 C 0.92565(6) 0.05988(6) 0.66577(7)
C147_27 C 0.94838(6) 0.11119(6) 0.67099(6)
C148_27 C 0.94700(7) 0.12903(7) 0.68355(7)
H93_27 H 0.9377 0.1295 0.6951
C149_27 C 0.95943(8) 0.14590(7) 0.67884(8)
H94_27 H 0.9589 0.1582 0.6871
C150_27 C 0.97298(7) 0.14468(7) 0.66161(7)
H95_27 H 0.9815 0.1564 0.6585
C151_27 C 0.96226(6) 0.11152(6) 0.65414(6)
H96_27 H 0.9631 0.0995 0.6456
N49_7 N 0.85714(5) 0.11273(5) 0.77456(5)
N50_27 N 0.90915(5) 0.01463(5) 0.63338(5)
N51_7 N 0.87495(5) 0.09752(5) 0.73453(5)
N52_27 N 0.91047(5) 0.05962(5) 0.68013(5)
N53_27 N 0.93884(5) 0.07594(5) 0.66252(6)
N54_27 N 0.92093(5) 0.09389(5) 0.68980(5)
N55_27 N 0.97438(5) 0.12772(5) 0.64942(5)
S7_7 S 0.828027(19) 0.085199(19) 0.791831(19)
C154_7 C 0.89882(6) 0.15478(6) 0.71762(6)
N58_7 N 0.88727(5) 0.14286(5) 0.72544(5)
S10_7 S 0.914801(19) 0.171973(19) 0.708169(19)
Co17_27 Co 0.997883(12) 0.1250 0.6250
N68_7 N 0.90248(5) 0.12505(5) 0.76547(5)
H85_27 H 0.9270 0.9990 0.6137
C152_27 C 0.90478(6) 0.96762(6) 0.60118(6)
N56_27 N 0.89286(5) 0.97544(5) 0.61273(5)
S8_27 S 0.921973(19) 0.958169(19) 0.585199(19)
C155_11 C 0.71762(6) 0.85118(6) 0.59522(6)
N59_11 N 0.72544(5) 0.86273(5) 0.60714(5)
S11_11 S 0.708169(19) 0.835199(19) 0.578027(19)
C156_11 C 0.78238(6) 0.90478(6) 0.64882(6)
N60_11 N 0.77456(5) 0.89286(5) 0.63727(5)
S12_11 S 0.791831(19) 0.921973(19) 0.664801(19)
N64_27 N 0.88338(5) 0.98537(5) 0.65915(5)
N66_11 N 0.73453(5) 0.87505(5) 0.65248(5)
N67_11 N 0.76547(5) 0.84752(5) 0.62495(5)
C6_28 C 0.39882(6) 0.71762(6) 0.15478(6)
N1_28 N 0.38727(5) 0.72544(5) 0.14286(5)
S1_28 S 0.414801(19) 0.708169(19) 0.171973(19)
C133_28 C 0.32299(7) 0.73987(7) 0.12344(7)
H85_28 H 0.3230 0.7510 0.1137
C134_28 C 0.30467(7) 0.72925(8) 0.12652(8)
H86_28 H 0.2924 0.7331 0.1191
C135_28 C 0.30411(8) 0.71263(7) 0.14078(8)
H87_28 H 0.2917 0.7048 0.1430
C136_28 C 0.32252(6) 0.70818(6) 0.15156(7)
C137_28 C 0.34030(6) 0.71997(6) 0.14746(6)
H88_28 H 0.3527 0.7169 0.1550
C138_8 C 0.40478(6) 0.64882(6) 0.28238(6)
C139_28 C 0.35963(6) 0.65471(6) 0.22032(6)
H89_28 H 0.3498 0.6438 0.2188
C140_28 C 0.35760(6) 0.67235(6) 0.20790(6)
C141_28 C 0.37227(7) 0.68854(7) 0.21012(7)
H90_28 H 0.3715 0.7007 0.2016
C142_28 C 0.38772(8) 0.68636(7) 0.22493(8)
H91_28 H 0.3977 0.6971 0.2271
C143_28 C 0.38854(7) 0.66811(7) 0.23671(7)
H92_28 H 0.3993 0.6668 0.2468
C144_28 C 0.34110(6) 0.67319(6) 0.19180(6)
C145_28 C 0.31460(6) 0.65743(6) 0.17468(6)
C146_28 C 0.32435(6) 0.69012(6) 0.16577(7)
C147_28 C 0.30162(6) 0.63881(6) 0.17099(6)
C148_28 C 0.30300(7) 0.62097(7) 0.18355(7)
H93_28 H 0.3123 0.6205 0.1951
C149_28 C 0.29057(8) 0.60410(7) 0.17884(8)
H94_28 H 0.2911 0.5918 0.1871
C150_28 C 0.27702(7) 0.60532(7) 0.16161(7)
H95_28 H 0.2685 0.5936 0.1585
C151_28 C 0.28774(6) 0.63848(6) 0.15414(6)
H96_28 H 0.2869 0.6505 0.1456
N49_8 N 0.39286(5) 0.63727(5) 0.27456(5)
N50_28 N 0.34085(5) 0.73537(5) 0.13338(5)
N51_8 N 0.37505(5) 0.65248(5) 0.23453(5)
N52_28 N 0.33953(5) 0.69038(5) 0.18013(5)
N53_28 N 0.31116(5) 0.67406(5) 0.16252(6)
N54_28 N 0.32907(5) 0.65611(5) 0.18980(5)
N55_28 N 0.27562(5) 0.62228(5) 0.14942(5)
S7_8 S 0.421973(19) 0.664801(19) 0.291831(19)
C152_28 C 0.34522(6) 0.78238(6) 0.10118(6)
N56_28 N 0.35714(5) 0.77456(5) 0.11273(5)
S8_28 S 0.328027(19) 0.791831(19) 0.085199(19)
C154_8 C 0.35118(6) 0.59522(6) 0.21762(6)
N58_8 N 0.36273(5) 0.60714(5) 0.22544(5)
S10_8 S 0.335199(19) 0.578027(19) 0.208169(19)
C155_12 C 0.53238(6) 0.89882(6) 0.09522(6)
N59_12 N 0.52456(5) 0.88727(5) 0.10714(5)
S11_12 S 0.541831(19) 0.914801(19) 0.078027(19)
C156_12 C 0.46762(6) 0.84522(6) 0.14882(6)
N60_12 N 0.47544(5) 0.85714(5) 0.13727(5)
S12_12 S 0.458169(19) 0.828027(19) 0.164801(19)
Co17_28 Co 0.252117(12) 0.6250 0.1250
N64_28 N 0.36662(5) 0.76463(5) 0.15915(5)
N66_12 N 0.51547(5) 0.87495(5) 0.15248(5)
N67_12 N 0.48453(5) 0.90248(5) 0.12495(5)
N68_8 N 0.34752(5) 0.62495(5) 0.26547(5)
C6_29 C 0.09522(6) 0.39882(6) 0.53238(6)
N1_29 N 0.10714(5) 0.38727(5) 0.52456(5)
S1_29 S 0.078027(19) 0.414801(19) 0.541831(19)
C133_29 C 0.12656(7) 0.32299(7) 0.51013(7)
H85_29 H 0.1363 0.3230 0.4990
C134_29 C 0.12348(8) 0.30467(7) 0.52075(8)
H86_29 H 0.1309 0.2924 0.5169
C135_29 C 0.10922(8) 0.30411(8) 0.53737(7)
H87_29 H 0.1070 0.2917 0.5452
C136_29 C 0.09844(7) 0.32252(6) 0.54182(6)
C137_29 C 0.10254(6) 0.34030(6) 0.53003(6)
H88_29 H 0.0950 0.3527 0.5331
C139_29 C 0.02968(6) 0.35963(6) 0.59529(6)
H89_29 H 0.0312 0.3498 0.6062
C140_29 C 0.04210(6) 0.35760(6) 0.57765(6)
C141_29 C 0.03988(7) 0.37227(7) 0.56146(7)
H90_29 H 0.0484 0.3715 0.5493
C142_29 C 0.02507(8) 0.38772(8) 0.56364(7)
H91_29 H 0.0229 0.3977 0.5529
C143_29 C 0.01329(7) 0.38854(7) 0.58189(7)
H92_29 H 0.0032 0.3993 0.5832
C144_29 C 0.05820(6) 0.34110(6) 0.57681(6)
C145_29 C 0.07532(6) 0.31460(6) 0.59257(6)
C146_29 C 0.08423(7) 0.32435(6) 0.55988(6)
C147_29 C 0.07901(6) 0.30162(6) 0.61119(6)
C148_29 C 0.06645(7) 0.30300(7) 0.62903(7)
H93_29 H 0.0549 0.3123 0.6295
C149_29 C 0.07116(8) 0.29057(8) 0.64590(7)
H94_29 H 0.0629 0.2911 0.6582
C150_29 C 0.08839(7) 0.27702(7) 0.64468(7)
H95_29 H 0.0915 0.2685 0.6564
C151_29 C 0.09586(6) 0.28774(6) 0.61152(6)
H96_29 H 0.1044 0.2869 0.5995
N50_29 N 0.11662(5) 0.34085(5) 0.51463(5)
N52_29 N 0.06987(5) 0.33953(5) 0.55962(5)
N53_29 N 0.08748(6) 0.31116(5) 0.57594(5)
N54_29 N 0.06020(5) 0.32907(5) 0.59389(5)
N55_29 N 0.10058(5) 0.27562(5) 0.62772(5)
C152_29 C 0.14882(6) 0.34522(6) 0.46762(6)
N56_29 N 0.13727(5) 0.35714(5) 0.47544(5)
S8_29 S 0.164801(19) 0.328027(19) 0.458169(19)
C155_13 C 0.15478(6) 0.53238(6) 0.35118(6)
N59_13 N 0.14286(5) 0.52456(5) 0.36273(5)
S11_13 S 0.171973(19) 0.541831(19) 0.335199(19)
C156_13 C 0.10118(6) 0.46762(6) 0.40478(6)
N60_13 N 0.11273(5) 0.47544(5) 0.39286(5)
S12_13 S 0.085199(19) 0.458169(19) 0.421973(19)
Co17_29 Co 0.1250 0.252117(12) 0.6250
N64_29 N 0.09085(5) 0.36662(5) 0.48537(5)
N66_13 N 0.09752(5) 0.51547(5) 0.37505(5)
N67_13 N 0.12505(5) 0.48453(5) 0.34752(5)
C6_30 C 0.59522(6) 0.85118(6) 0.21762(6)
N1_30 N 0.60714(5) 0.86273(5) 0.22544(5)
S1_30 S 0.578027(19) 0.835199(19) 0.208169(19)
C133_30 C 0.62656(7) 0.92701(7) 0.23987(7)
H85_30 H 0.6363 0.9270 0.2510
C134_30 C 0.62348(8) 0.94533(7) 0.22925(8)
H86_30 H 0.6309 0.9576 0.2331
C135_30 C 0.60922(8) 0.94589(8) 0.21263(7)
H87_30 H 0.6070 0.9583 0.2048
C136_30 C 0.59844(7) 0.92748(6) 0.20818(6)
C137_30 C 0.60254(6) 0.90970(6) 0.21997(6)
H88_30 H 0.5950 0.8973 0.2169
C139_30 C 0.52968(6) 0.89037(6) 0.15471(6)
H89_30 H 0.5312 0.9002 0.1438
C140_30 C 0.54210(6) 0.89240(6) 0.17235(6)
C141_30 C 0.53988(7) 0.87773(7) 0.18854(7)
H90_30 H 0.5484 0.8785 0.2007
C142_30 C 0.52507(8) 0.86228(8) 0.18636(7)
H91_30 H 0.5229 0.8523 0.1971
C143_30 C 0.51329(7) 0.86146(7) 0.16811(7)
H92_30 H 0.5032 0.8507 0.1668
C144_30 C 0.55820(6) 0.90890(6) 0.17319(6)
C145_30 C 0.57532(6) 0.93540(6) 0.15743(6)
C146_30 C 0.58423(7) 0.92565(6) 0.19012(6)
C147_30 C 0.57901(6) 0.94838(6) 0.13881(6)
C148_30 C 0.56645(7) 0.94700(7) 0.12097(7)
H93_30 H 0.5549 0.9377 0.1205
C149_30 C 0.57116(8) 0.95943(8) 0.10410(7)
H94_30 H 0.5629 0.9589 0.0918
C150_30 C 0.58839(7) 0.97298(7) 0.10532(7)
H95_30 H 0.5915 0.9815 0.0936
C151_30 C 0.59586(6) 0.96226(6) 0.13848(6)
H96_30 H 0.6044 0.9631 0.1505
N50_30 N 0.61662(5) 0.90915(5) 0.23537(5)
N52_30 N 0.56987(5) 0.91047(5) 0.19038(5)
N53_30 N 0.58748(6) 0.93884(5) 0.17406(5)
N54_30 N 0.56020(5) 0.92093(5) 0.15611(5)
N55_30 N 0.60058(5) 0.97438(5) 0.12228(5)
C152_30 C 0.64882(6) 0.90478(6) 0.28238(6)
N56_30 N 0.63727(5) 0.89286(5) 0.27456(5)
S8_30 S 0.664801(19) 0.921973(19) 0.291831(19)
C155_14 C 0.65478(6) 0.71762(6) 0.39882(6)
N59_14 N 0.64286(5) 0.72544(5) 0.38727(5)
S11_14 S 0.671973(19) 0.708169(19) 0.414801(19)
C156_14 C 0.60118(6) 0.78238(6) 0.34522(6)
N60_14 N 0.61273(5) 0.77456(5) 0.35714(5)
S12_14 S 0.585199(19) 0.791831(19) 0.328027(19)
Co17_30 Co 0.6250 0.997883(12) 0.1250
N64_30 N 0.59085(5) 0.88338(5) 0.26463(5)
N66_14 N 0.59752(5) 0.73453(5) 0.37495(5)
N67_14 N 0.62505(5) 0.76547(5) 0.40248(5)
C6_31 C 0.15478(6) 0.35118(6) 0.03238(6)
N1_31 N 0.14286(5) 0.36273(5) 0.02456(5)
S1_31 S 0.171973(19) 0.335199(19) 0.041831(19)
C133_31 C 0.12344(7) 0.42701(7) 0.01013(7)
C134_31 C 0.12652(8) 0.44533(7) 0.02075(8)
H86_31 H 0.1191 0.4576 0.0169
C135_31 C 0.14078(8) 0.44589(8) 0.03737(7)
H87_31 H 0.1430 0.4583 0.0452
C136_31 C 0.15156(7) 0.42748(6) 0.04182(6)
C137_31 C 0.14746(6) 0.40970(6) 0.03003(6)
H88_31 H 0.1550 0.3973 0.0331
C139_31 C 0.22032(6) 0.39037(6) 0.09529(6)
H89_31 H 0.2188 0.4002 0.1062
C140_31 C 0.20790(6) 0.39240(6) 0.07765(6)
C141_31 C 0.21012(7) 0.37773(7) 0.06146(7)
H90_31 H 0.2016 0.3785 0.0493
C142_31 C 0.22493(8) 0.36228(8) 0.06364(7)
H91_31 H 0.2271 0.3523 0.0529
C143_31 C 0.23671(7) 0.36146(7) 0.08189(7)
H92_31 H 0.2468 0.3507 0.0832
C144_31 C 0.19180(6) 0.40890(6) 0.07681(6)
C145_31 C 0.17468(6) 0.43540(6) 0.09257(6)
C146_31 C 0.16577(7) 0.42565(6) 0.05988(6)
C147_31 C 0.17099(6) 0.44838(6) 0.11119(6)
C148_31 C 0.18355(7) 0.44700(7) 0.12903(7)
H93_31 H 0.1951 0.4377 0.1295
C149_31 C 0.17884(8) 0.45943(8) 0.14590(7)
H94_31 H 0.1871 0.4589 0.1582
C150_31 C 0.16161(7) 0.47298(7) 0.14468(7)
H95_31 H 0.1585 0.4815 0.1564
C151_31 C 0.15414(6) 0.46226(6) 0.11152(6)
H96_31 H 0.1456 0.4631 0.0995
N50_31 N 0.13338(5) 0.40915(5) 0.01463(5)
N52_31 N 0.18013(5) 0.41047(5) 0.05962(5)
N53_31 N 0.16252(6) 0.43884(5) 0.07594(5)
N54_31 N 0.18980(5) 0.42093(5) 0.09389(5)
N55_31 N 0.14942(5) 0.47438(5) 0.12772(5)
Co17_31 Co 0.1250 0.497883(12) 0.1250
H85_31 H 0.1137 0.4270 0.9990
C152_31 C 0.10118(6) 0.40478(6) 0.96762(6)
N56_31 N 0.11273(5) 0.39286(5) 0.97544(5)
S8_31 S 0.085199(19) 0.421973(19) 0.958169(19)
C155_15 C 0.09522(6) 0.21762(6) 0.85118(6)
N59_15 N 0.10714(5) 0.22544(5) 0.86273(5)
S11_15 S 0.078027(19) 0.208169(19) 0.835199(19)
C156_15 C 0.14882(6) 0.28238(6) 0.90478(6)
N60_15 N 0.13727(5) 0.27456(5) 0.89286(5)
S12_15 S 0.164801(19) 0.291831(19) 0.921973(19)
N64_31 N 0.15915(5) 0.38338(5) 0.98537(5)
N66_15 N 0.15248(5) 0.23453(5) 0.87505(5)
N67_15 N 0.12495(5) 0.26547(5) 0.84752(5)
C155_16 C 0.59522(6) 0.03238(6) 0.89882(6)
N59_16 N 0.60714(5) 0.02456(5) 0.88727(5)
S11_16 S 0.578027(19) 0.041831(19) 0.914801(19)
N66_16 N 0.65248(5) 0.01547(5) 0.87495(5)
C6_32 C 0.65478(6) 0.89882(6) 0.71762(6)
N1_32 N 0.64286(5) 0.88727(5) 0.72544(5)
S1_32 S 0.671973(19) 0.914801(19) 0.708169(19)
C133_32 C 0.62344(7) 0.82299(7) 0.73987(7)
H85_32 H 0.6137 0.8230 0.7510
C134_32 C 0.62652(8) 0.80467(7) 0.72925(8)
H86_32 H 0.6191 0.7924 0.7331
C135_32 C 0.64078(8) 0.80411(8) 0.71263(7)
H87_32 H 0.6430 0.7917 0.7048
C136_32 C 0.65156(7) 0.82252(6) 0.70818(6)
C137_32 C 0.64746(6) 0.84030(6) 0.71997(6)
H88_32 H 0.6550 0.8527 0.7169
C139_32 C 0.72032(6) 0.85963(6) 0.65471(6)
H89_32 H 0.7188 0.8498 0.6438
C140_32 C 0.70790(6) 0.85760(6) 0.67235(6)
C141_32 C 0.71012(7) 0.87227(7) 0.68854(7)
H90_32 H 0.7016 0.8715 0.7007
C142_32 C 0.72493(8) 0.88772(8) 0.68636(7)
H91_32 H 0.7271 0.8977 0.6971
C143_32 C 0.73671(7) 0.88854(7) 0.66811(7)
H92_32 H 0.7468 0.8993 0.6668
C144_32 C 0.69180(6) 0.84110(6) 0.67319(6)
C145_32 C 0.67468(6) 0.81460(6) 0.65743(6)
C146_32 C 0.66577(7) 0.82435(6) 0.69012(6)
C147_32 C 0.67099(6) 0.80162(6) 0.63881(6)
C148_32 C 0.68355(7) 0.80300(7) 0.62097(7)
H93_32 H 0.6951 0.8123 0.6205
C149_32 C 0.67884(8) 0.79057(8) 0.60410(7)
H94_32 H 0.6871 0.7911 0.5918
C150_32 C 0.66161(7) 0.77702(7) 0.60532(7)
H95_32 H 0.6585 0.7685 0.5936
C151_32 C 0.65414(6) 0.78774(6) 0.63848(6)
H96_32 H 0.6456 0.7869 0.6505
N50_32 N 0.63338(5) 0.84085(5) 0.73537(5)
N52_32 N 0.68013(5) 0.83953(5) 0.69038(5)
N53_32 N 0.66252(6) 0.81116(5) 0.67406(5)
N54_32 N 0.68980(5) 0.82907(5) 0.65611(5)
N55_32 N 0.64942(5) 0.77562(5) 0.62228(5)
C152_32 C 0.60118(6) 0.84522(6) 0.78238(6)
N56_32 N 0.61273(5) 0.85714(5) 0.77456(5)
S8_32 S 0.585199(19) 0.828027(19) 0.791831(19)
C156_16 C 0.64882(6) 0.96762(6) 0.84522(6)
N60_16 N 0.63727(5) 0.97544(5) 0.85714(5)
S12_16 S 0.664801(19) 0.958169(19) 0.828027(19)
Co17_32 Co 0.6250 0.752117(12) 0.6250
N64_32 N 0.65915(5) 0.86662(5) 0.76463(5)
N67_16 N 0.62495(5) 0.98453(5) 0.90248(5)
C133_33 C 0.01013(7) 0.62656(7) 0.32299(7)
C134_33 C 0.02075(8) 0.62348(8) 0.30467(7)
H86_33 H 0.0169 0.6309 0.2924
C135_33 C 0.03737(7) 0.60922(8) 0.30411(8)
H87_33 H 0.0452 0.6070 0.2917
C136_33 C 0.04182(6) 0.59844(7) 0.32252(6)
C137_33 C 0.03003(6) 0.60254(6) 0.34030(6)
H88_33 H 0.0331 0.5950 0.3527
C139_33 C 0.09529(6) 0.52968(6) 0.35963(6)
H89_33 H 0.1062 0.5312 0.3498
C140_33 C 0.07765(6) 0.54210(6) 0.35760(6)
C141_33 C 0.06146(7) 0.53988(7) 0.37227(7)
H90_33 H 0.0493 0.5484 0.3715
C142_33 C 0.06364(7) 0.52507(8) 0.38772(8)
H91_33 H 0.0529 0.5229 0.3977
C143_33 C 0.08189(7) 0.51329(7) 0.38854(7)
H92_33 H 0.0832 0.5032 0.3993
C144_33 C 0.07681(6) 0.55820(6) 0.34110(6)
C145_33 C 0.09257(6) 0.57532(6) 0.31460(6)
C146_33 C 0.05988(6) 0.58423(7) 0.32435(6)
C147_33 C 0.11119(6) 0.57901(6) 0.30162(6)
C148_33 C 0.12903(7) 0.56645(7) 0.30300(7)
H93_33 H 0.1295 0.5549 0.3123
C149_33 C 0.14590(7) 0.57116(8) 0.29057(8)
H94_33 H 0.1582 0.5629 0.2911
C150_33 C 0.14468(7) 0.58839(7) 0.27702(7)
H95_33 H 0.1564 0.5915 0.2685
C151_33 C 0.11152(6) 0.59586(6) 0.28774(6)
H96_33 H 0.0995 0.6044 0.2869
N52_33 N 0.05962(5) 0.56987(5) 0.33953(5)
N53_33 N 0.07594(5) 0.58748(6) 0.31116(5)
N54_33 N 0.09389(5) 0.56020(5) 0.32907(5)
N55_33 N 0.12772(5) 0.60058(5) 0.27562(5)
H85_33 H 0.9990 0.6363 0.3230
C133_34 C 0.73987(7) 0.12656(7) 0.92701(7)
H85_34 H 0.7510 0.1363 0.9270
C134_34 C 0.72925(8) 0.12348(8) 0.94533(7)
H86_34 H 0.7331 0.1309 0.9576
C135_34 C 0.71263(7) 0.10922(8) 0.94589(8)
H87_34 H 0.7048 0.1070 0.9583
C136_34 C 0.70818(6) 0.09844(7) 0.92748(6)
C137_34 C 0.71997(6) 0.10254(6) 0.90970(6)
H88_34 H 0.7169 0.0950 0.8973
C139_34 C 0.65471(6) 0.02968(6) 0.89037(6)
H89_34 H 0.6438 0.0312 0.9002
C140_34 C 0.67235(6) 0.04210(6) 0.89240(6)
C141_34 C 0.68854(7) 0.03988(7) 0.87773(7)
H90_34 H 0.7007 0.0484 0.8785
C142_34 C 0.68636(7) 0.02507(8) 0.86228(8)
H91_34 H 0.6971 0.0229 0.8523
C143_34 C 0.66811(7) 0.01329(7) 0.86146(7)
H92_34 H 0.6668 0.0032 0.8507
C144_34 C 0.67319(6) 0.05820(6) 0.90890(6)
C145_34 C 0.65743(6) 0.07532(6) 0.93540(6)
C146_34 C 0.69012(6) 0.08423(7) 0.92565(6)
C147_34 C 0.63881(6) 0.07901(6) 0.94838(6)
C148_34 C 0.62097(7) 0.06645(7) 0.94700(7)
H93_34 H 0.6205 0.0549 0.9377
C149_34 C 0.60410(7) 0.07116(8) 0.95943(8)
H94_34 H 0.5918 0.0629 0.9589
C150_34 C 0.60532(7) 0.08839(7) 0.97298(7)
H95_34 H 0.5936 0.0915 0.9815
C151_34 C 0.63848(6) 0.09586(6) 0.96226(6)
H96_34 H 0.6505 0.1044 0.9631
N52_34 N 0.69038(5) 0.06987(5) 0.91047(5)
N53_34 N 0.67406(5) 0.08748(6) 0.93884(5)
N54_34 N 0.65611(5) 0.06020(5) 0.92093(5)
N55_34 N 0.62228(5) 0.10058(5) 0.97438(5)
C133_35 C 0.51013(7) 0.62344(7) 0.42701(7)
H85_35 H 0.4990 0.6137 0.4270
C134_35 C 0.52075(8) 0.62652(8) 0.44533(7)
H86_35 H 0.5169 0.6191 0.4576
C135_35 C 0.53737(7) 0.64078(8) 0.44589(8)
H87_35 H 0.5452 0.6430 0.4583
C136_35 C 0.54182(6) 0.65156(7) 0.42748(6)
C137_35 C 0.53003(6) 0.64746(6) 0.40970(6)
H88_35 H 0.5331 0.6550 0.3973
C139_35 C 0.59529(6) 0.72032(6) 0.39037(6)
H89_35 H 0.6062 0.7188 0.4002
C140_35 C 0.57765(6) 0.70790(6) 0.39240(6)
C141_35 C 0.56146(7) 0.71012(7) 0.37773(7)
H90_35 H 0.5493 0.7016 0.3785
C142_35 C 0.56364(7) 0.72493(8) 0.36228(8)
H91_35 H 0.5529 0.7271 0.3523
C143_35 C 0.58189(7) 0.73671(7) 0.36146(7)
H92_35 H 0.5832 0.7468 0.3507
C144_35 C 0.57681(6) 0.69180(6) 0.40890(6)
C145_35 C 0.59257(6) 0.67468(6) 0.43540(6)
C146_35 C 0.55988(6) 0.66577(7) 0.42565(6)
C147_35 C 0.61119(6) 0.67099(6) 0.44838(6)
C148_35 C 0.62903(7) 0.68355(7) 0.44700(7)
H93_35 H 0.6295 0.6951 0.4377
C149_35 C 0.64590(7) 0.67884(8) 0.45943(8)
H94_35 H 0.6582 0.6871 0.4589
C150_35 C 0.64468(7) 0.66161(7) 0.47298(7)
H95_35 H 0.6564 0.6585 0.4815
C151_35 C 0.61152(6) 0.65414(6) 0.46226(6)
H96_35 H 0.5995 0.6456 0.4631
N52_35 N 0.55962(5) 0.68013(5) 0.41047(5)
N53_35 N 0.57594(5) 0.66252(6) 0.43884(5)
N54_35 N 0.59389(5) 0.68980(5) 0.42093(5)
N55_35 N 0.62772(5) 0.64942(5) 0.47438(5)
C133_36 C 0.23987(7) 0.12344(7) 0.82299(7)
H85_36 H 0.2510 0.1137 0.8230
C134_36 C 0.22925(8) 0.12652(8) 0.80467(7)
H86_36 H 0.2331 0.1191 0.7924
C135_36 C 0.21263(7) 0.14078(8) 0.80411(8)
H87_36 H 0.2048 0.1430 0.7917
C136_36 C 0.20818(6) 0.15156(7) 0.82252(6)
C137_36 C 0.21997(6) 0.14746(6) 0.84030(6)
H88_36 H 0.2169 0.1550 0.8527
C139_36 C 0.15471(6) 0.22032(6) 0.85963(6)
H89_36 H 0.1438 0.2188 0.8498
C140_36 C 0.17235(6) 0.20790(6) 0.85760(6)
C141_36 C 0.18854(7) 0.21012(7) 0.87227(7)
H90_36 H 0.2007 0.2016 0.8715
C142_36 C 0.18636(7) 0.22493(8) 0.88772(8)
H91_36 H 0.1971 0.2271 0.8977
C143_36 C 0.16811(7) 0.23671(7) 0.88854(7)
H92_36 H 0.1668 0.2468 0.8993
C144_36 C 0.17319(6) 0.19180(6) 0.84110(6)
C145_36 C 0.15743(6) 0.17468(6) 0.81460(6)
C146_36 C 0.19012(6) 0.16577(7) 0.82435(6)
C147_36 C 0.13881(6) 0.17099(6) 0.80162(6)
C148_36 C 0.12097(7) 0.18355(7) 0.80300(7)
H93_36 H 0.1205 0.1951 0.8123
C149_36 C 0.10410(7) 0.17884(8) 0.79057(8)
H94_36 H 0.0918 0.1871 0.7911
C150_36 C 0.10532(7) 0.16161(7) 0.77702(7)
H95_36 H 0.0936 0.1585 0.7685
C151_36 C 0.13848(6) 0.15414(6) 0.78774(6)
H96_36 H 0.1505 0.1456 0.7869
N52_36 N 0.19038(5) 0.18013(5) 0.83953(5)
N53_36 N 0.17406(5) 0.16252(6) 0.81116(5)
N54_36 N 0.15611(5) 0.18980(5) 0.82907(5)
N55_36 N 0.12228(5) 0.14942(5) 0.77562(5)
C133_37 C 0.76013(7) 0.57299(7) 0.37344(7)
H85_37 H 0.7490 0.5730 0.3637
C134_37 C 0.77075(8) 0.55467(7) 0.37652(8)
H86_37 H 0.7669 0.5424 0.3691
C135_37 C 0.78737(7) 0.55411(8) 0.39078(8)
H87_37 H 0.7952 0.5417 0.3930
C136_37 C 0.79182(6) 0.57252(6) 0.40156(7)
C137_37 C 0.78003(6) 0.59030(6) 0.39746(6)
H88_37 H 0.7831 0.6027 0.4050
C139_37 C 0.84529(6) 0.60963(6) 0.47032(6)
H89_37 H 0.8562 0.5998 0.4688
C140_37 C 0.82765(6) 0.60760(6) 0.45790(6)
C141_37 C 0.81146(7) 0.62227(7) 0.46012(7)
H90_37 H 0.7993 0.6215 0.4516
C142_37 C 0.81364(7) 0.63772(8) 0.47493(8)
H91_37 H 0.8029 0.6477 0.4771
C143_37 C 0.83189(7) 0.63854(7) 0.48671(7)
H92_37 H 0.8332 0.6493 0.4968
C144_37 C 0.82681(6) 0.59110(6) 0.44180(6)
C145_37 C 0.84257(6) 0.56460(6) 0.42468(6)
C146_37 C 0.80988(6) 0.57435(6) 0.41577(7)
C147_37 C 0.86119(6) 0.55162(6) 0.42099(6)
C148_37 C 0.87903(7) 0.55300(7) 0.43355(7)
H93_37 H 0.8795 0.5623 0.4451
C149_37 C 0.89590(7) 0.54057(8) 0.42884(8)
H94_37 H 0.9082 0.5411 0.4371
C150_37 C 0.89468(7) 0.52702(7) 0.41161(7)
H95_37 H 0.9064 0.5185 0.4085
C151_37 C 0.86152(6) 0.53774(6) 0.40414(6)
H96_37 H 0.8495 0.5369 0.3956
N52_37 N 0.80962(5) 0.58953(5) 0.43013(5)
N53_37 N 0.82594(5) 0.56116(5) 0.41252(6)
N54_37 N 0.84389(5) 0.57907(5) 0.43980(5)
N55_37 N 0.87772(5) 0.52562(5) 0.39942(5)
C133_38 C 0.48987(7) 0.17701(7) 0.87344(7)
H85_38 H 0.5010 0.1770 0.8637
C134_38 C 0.47925(8) 0.19533(7) 0.87652(8)
H86_38 H 0.4831 0.2076 0.8691
C135_38 C 0.46263(7) 0.19589(8) 0.89078(8)
H87_38 H 0.4548 0.2083 0.8930
C136_38 C 0.45818(6) 0.17748(6) 0.90156(7)
C137_38 C 0.46997(6) 0.15970(6) 0.89746(6)
H88_38 H 0.4669 0.1473 0.9050
C139_38 C 0.40471(6) 0.14037(6) 0.97032(6)
H89_38 H 0.3938 0.1502 0.9688
C140_38 C 0.42235(6) 0.14240(6) 0.95790(6)
C141_38 C 0.43854(7) 0.12773(7) 0.96012(7)
H90_38 H 0.4507 0.1285 0.9516
C142_38 C 0.43636(7) 0.11228(8) 0.97493(8)
H91_38 H 0.4471 0.1023 0.9771
C143_38 C 0.41811(7) 0.11146(7) 0.98671(7)
H92_38 H 0.4168 0.1007 0.9968
C144_38 C 0.42319(6) 0.15890(6) 0.94180(6)
C145_38 C 0.40743(6) 0.18540(6) 0.92468(6)
C146_38 C 0.44012(6) 0.17565(6) 0.91577(7)
C147_38 C 0.38881(6) 0.19838(6) 0.92099(6)
C148_38 C 0.37097(7) 0.19700(7) 0.93355(7)
H93_38 H 0.3705 0.1877 0.9451
C149_38 C 0.35410(7) 0.20943(8) 0.92884(8)
H94_38 H 0.3418 0.2089 0.9371
C150_38 C 0.35532(7) 0.22298(7) 0.91161(7)
H95_38 H 0.3436 0.2315 0.9085
C151_38 C 0.38848(6) 0.21226(6) 0.90414(6)
H96_38 H 0.4005 0.2131 0.8956
N52_38 N 0.44038(5) 0.16047(5) 0.93013(5)
N53_38 N 0.42406(5) 0.18884(5) 0.91252(6)
N54_38 N 0.40611(5) 0.17093(5) 0.93980(5)
N55_38 N 0.37228(5) 0.22438(5) 0.89942(5)
C133_39 C 0.26013(7) 0.67701(7) 0.37656(7)
H85_39 H 0.2490 0.6770 0.3863
C134_39 C 0.27075(8) 0.69533(7) 0.37348(8)
H86_39 H 0.2669 0.7076 0.3809
C135_39 C 0.28737(7) 0.69589(8) 0.35922(8)
H87_39 H 0.2952 0.7083 0.3570
C136_39 C 0.29182(6) 0.67748(6) 0.34844(7)
C137_39 C 0.28003(6) 0.65970(6) 0.35254(6)
H88_39 H 0.2831 0.6473 0.3450
C139_39 C 0.34529(6) 0.64037(6) 0.27968(6)
H89_39 H 0.3562 0.6502 0.2812
C140_39 C 0.32765(6) 0.64240(6) 0.29210(6)
C141_39 C 0.31146(7) 0.62773(7) 0.28988(7)
H90_39 H 0.2993 0.6285 0.2984
C142_39 C 0.31364(7) 0.61228(8) 0.27507(8)
H91_39 H 0.3029 0.6023 0.2729
C143_39 C 0.33189(7) 0.61146(7) 0.26329(7)
H92_39 H 0.3332 0.6007 0.2532
C144_39 C 0.32681(6) 0.65890(6) 0.30820(6)
C145_39 C 0.34257(6) 0.68540(6) 0.32532(6)
C146_39 C 0.30988(6) 0.67565(6) 0.33423(7)
C147_39 C 0.36119(6) 0.69838(6) 0.32901(6)
C148_39 C 0.37903(7) 0.69700(7) 0.31645(7)
H93_39 H 0.3795 0.6877 0.3049
C149_39 C 0.39590(7) 0.70943(8) 0.32116(8)
H94_39 H 0.4082 0.7089 0.3129
C150_39 C 0.39468(7) 0.72298(7) 0.33839(7)
H95_39 H 0.4064 0.7315 0.3415
C151_39 C 0.36152(6) 0.71226(6) 0.34586(6)
H96_39 H 0.3495 0.7131 0.3544
N52_39 N 0.30962(5) 0.66047(5) 0.31987(5)
N53_39 N 0.32594(5) 0.68884(5) 0.33748(6)
N54_39 N 0.34389(5) 0.67093(5) 0.31020(5)
N55_39 N 0.37772(5) 0.72438(5) 0.35058(5)
H85_40 H 0.0010 0.0730 0.8863
C133_40 C 0.98987(7) 0.07299(7) 0.87656(7)
C134_40 C 0.97925(8) 0.05467(7) 0.87348(8)
H86_40 H 0.9831 0.0424 0.8809
C135_40 C 0.96263(7) 0.05411(8) 0.85922(8)
H87_40 H 0.9548 0.0417 0.8570
C136_40 C 0.95818(6) 0.07252(6) 0.84844(7)
C137_40 C 0.96997(6) 0.09030(6) 0.85254(6)
H88_40 H 0.9669 0.1027 0.8450
C139_40 C 0.90471(6) 0.10963(6) 0.77968(6)
H89_40 H 0.8938 0.0998 0.7812
C140_40 C 0.92235(6) 0.10760(6) 0.79210(6)
C141_40 C 0.93854(7) 0.12227(7) 0.78988(7)
H90_40 H 0.9507 0.1215 0.7984
C142_40 C 0.93636(7) 0.13772(8) 0.77507(8)
H91_40 H 0.9471 0.1477 0.7729
C143_40 C 0.91811(7) 0.13854(7) 0.76329(7)
H92_40 H 0.9168 0.1493 0.7532
C144_40 C 0.92319(6) 0.09110(6) 0.80820(6)
C145_40 C 0.90743(6) 0.06460(6) 0.82532(6)
C146_40 C 0.94012(6) 0.07435(6) 0.83423(7)
C147_40 C 0.88881(6) 0.05162(6) 0.82901(6)
C148_40 C 0.87097(7) 0.05300(7) 0.81645(7)
H93_40 H 0.8705 0.0623 0.8049
C149_40 C 0.85410(7) 0.04057(8) 0.82116(8)
H94_40 H 0.8418 0.0411 0.8129
C150_40 C 0.85532(7) 0.02702(7) 0.83839(7)
H95_40 H 0.8436 0.0185 0.8415
C151_40 C 0.88848(6) 0.03774(6) 0.84586(6)
H96_40 H 0.9005 0.0369 0.8544
N52_40 N 0.94038(5) 0.08953(5) 0.81987(5)
N53_40 N 0.92406(5) 0.06116(5) 0.83748(6)
N54_40 N 0.90611(5) 0.07907(5) 0.81020(5)
N55_40 N 0.87228(5) 0.02562(5) 0.85058(5)
C6_33 C 0.64882(6) 0.84522(6) 0.46762(6)
N1_33 N 0.63727(5) 0.85714(5) 0.47544(5)
S1_33 S 0.664801(19) 0.828027(19) 0.458169(19)
C133_41 C 0.57299(7) 0.87656(7) 0.48987(7)
H85_41 H 0.5730 0.8863 0.5010
C134_41 C 0.55467(7) 0.87348(8) 0.47925(8)
H86_41 H 0.5424 0.8809 0.4831
C135_41 C 0.55411(8) 0.85922(8) 0.46263(7)
H87_41 H 0.5417 0.8570 0.4548
C136_41 C 0.57252(6) 0.84844(7) 0.45818(6)
C137_41 C 0.59030(6) 0.85254(6) 0.46997(6)
H88_41 H 0.6027 0.8450 0.4669
C139_41 C 0.60963(6) 0.77968(6) 0.40471(6)
H89_41 H 0.5998 0.7812 0.3938
C140_41 C 0.60760(6) 0.79210(6) 0.42235(6)
C141_41 C 0.62227(7) 0.78988(7) 0.43854(7)
H90_41 H 0.6215 0.7984 0.4507
C142_41 C 0.63772(8) 0.77507(8) 0.43636(7)
H91_41 H 0.6477 0.7729 0.4471
C143_41 C 0.63854(7) 0.76329(7) 0.41811(7)
H92_41 H 0.6493 0.7532 0.4168
C144_41 C 0.59110(6) 0.80820(6) 0.42319(6)
C145_41 C 0.56460(6) 0.82532(6) 0.40743(6)
C146_41 C 0.57435(6) 0.83423(7) 0.44012(6)
C147_41 C 0.55162(6) 0.82901(6) 0.38881(6)
C148_41 C 0.55300(7) 0.81645(7) 0.37097(7)
H93_41 H 0.5623 0.8049 0.3705
C149_41 C 0.54057(8) 0.82116(8) 0.35410(7)
H94_41 H 0.5411 0.8129 0.3418
C150_41 C 0.52702(7) 0.83839(7) 0.35532(7)
H95_41 H 0.5185 0.8415 0.3436
C151_41 C 0.53774(6) 0.84586(6) 0.38848(6)
H96_41 H 0.5369 0.8544 0.4005
N50_33 N 0.59085(5) 0.86662(5) 0.48537(5)
N52_41 N 0.58953(5) 0.81987(5) 0.44038(5)
N53_41 N 0.56116(5) 0.83748(6) 0.42406(5)
N54_41 N 0.57907(5) 0.81020(5) 0.40611(5)
N55_41 N 0.52562(5) 0.85058(5) 0.37228(5)
C152_33 C 0.59522(6) 0.89882(6) 0.53238(6)
N56_33 N 0.60714(5) 0.88727(5) 0.52456(5)
S8_33 S 0.578027(19) 0.914801(19) 0.541831(19)
Co17_33 Co 0.502117(12) 0.8750 0.3750
N64_33 N 0.61662(5) 0.84085(5) 0.51463(5)
C6_34 C 0.10118(6) 0.34522(6) 0.78238(6)
N1_34 N 0.11273(5) 0.35714(5) 0.77456(5)
S1_34 S 0.085199(19) 0.328027(19) 0.791831(19)
C133_42 C 0.17701(7) 0.37656(7) 0.76013(7)
H85_42 H 0.1770 0.3863 0.7490
C134_42 C 0.19533(7) 0.37348(8) 0.77075(8)
H86_42 H 0.2076 0.3809 0.7669
C135_42 C 0.19589(8) 0.35922(8) 0.78737(7)
H87_42 H 0.2083 0.3570 0.7952
C136_42 C 0.17748(6) 0.34844(7) 0.79182(6)
C137_42 C 0.15970(6) 0.35254(6) 0.78003(6)
H88_42 H 0.1473 0.3450 0.7831
C139_42 C 0.14037(6) 0.27968(6) 0.84529(6)
H89_42 H 0.1502 0.2812 0.8562
C140_42 C 0.14240(6) 0.29210(6) 0.82765(6)
C141_42 C 0.12773(7) 0.28988(7) 0.81146(7)
H90_42 H 0.1285 0.2984 0.7993
C142_42 C 0.11228(8) 0.27507(8) 0.81364(7)
H91_42 H 0.1023 0.2729 0.8029
C143_42 C 0.11146(7) 0.26329(7) 0.83189(7)
H92_42 H 0.1007 0.2532 0.8332
C144_42 C 0.15890(6) 0.30820(6) 0.82681(6)
C145_42 C 0.18540(6) 0.32532(6) 0.84257(6)
C146_42 C 0.17565(6) 0.33423(7) 0.80988(6)
C147_42 C 0.19838(6) 0.32901(6) 0.86119(6)
C148_42 C 0.19700(7) 0.31645(7) 0.87903(7)
H93_42 H 0.1877 0.3049 0.8795
C149_42 C 0.20943(8) 0.32116(8) 0.89590(7)
H94_42 H 0.2089 0.3129 0.9082
C150_42 C 0.22298(7) 0.33839(7) 0.89468(7)
H95_42 H 0.2315 0.3415 0.9064
C151_42 C 0.21226(6) 0.34586(6) 0.86152(6)
H96_42 H 0.2131 0.3544 0.8495
N50_34 N 0.15915(5) 0.36662(5) 0.76463(5)
N52_42 N 0.16047(5) 0.31987(5) 0.80962(5)
N53_42 N 0.18884(5) 0.33748(6) 0.82594(5)
N54_42 N 0.17093(5) 0.31020(5) 0.84389(5)
N55_42 N 0.22438(5) 0.35058(5) 0.87772(5)
C152_34 C 0.15478(6) 0.39882(6) 0.71762(6)
N56_34 N 0.14286(5) 0.38727(5) 0.72544(5)
S8_34 S 0.171973(19) 0.414801(19) 0.708169(19)
Co17_34 Co 0.247883(12) 0.3750 0.8750
N64_34 N 0.13338(5) 0.34085(5) 0.73537(5)
H85_43 H 0.6770 0.8637 0.0010
C152_35 C 0.65478(6) 0.85118(6) 0.03238(6)
N56_35 N 0.64286(5) 0.86273(5) 0.02456(5)
S8_35 S 0.671973(19) 0.835199(19) 0.041831(19)
N64_35 N 0.63338(5) 0.90915(5) 0.01463(5)
C6_35 C 0.60118(6) 0.90478(6) 0.96762(6)
N1_35 N 0.61273(5) 0.89286(5) 0.97544(5)
S1_35 S 0.585199(19) 0.921973(19) 0.958169(19)
C133_43 C 0.67701(7) 0.87344(7) 0.98987(7)
C134_43 C 0.69533(7) 0.87652(8) 0.97925(8)
H86_43 H 0.7076 0.8691 0.9831
C135_43 C 0.69589(8) 0.89078(8) 0.96263(7)
H87_43 H 0.7083 0.8930 0.9548
C136_43 C 0.67748(6) 0.90156(7) 0.95818(6)
C137_43 C 0.65970(6) 0.89746(6) 0.96997(6)
H88_43 H 0.6473 0.9050 0.9669
C139_43 C 0.64037(6) 0.97032(6) 0.90471(6)
H89_43 H 0.6502 0.9688 0.8938
C140_43 C 0.64240(6) 0.95790(6) 0.92235(6)
C141_43 C 0.62773(7) 0.96012(7) 0.93854(7)
H90_43 H 0.6285 0.9516 0.9507
C142_43 C 0.61228(8) 0.97493(8) 0.93636(7)
H91_43 H 0.6023 0.9771 0.9471
C143_43 C 0.61146(7) 0.98671(7) 0.91811(7)
H92_43 H 0.6007 0.9968 0.9168
C144_43 C 0.65890(6) 0.94180(6) 0.92319(6)
C145_43 C 0.68540(6) 0.92468(6) 0.90743(6)
C146_43 C 0.67565(6) 0.91577(7) 0.94012(6)
C147_43 C 0.69838(6) 0.92099(6) 0.88881(6)
C148_43 C 0.69700(7) 0.93355(7) 0.87097(7)
H93_43 H 0.6877 0.9451 0.8705
C149_43 C 0.70943(8) 0.92884(8) 0.85410(7)
H94_43 H 0.7089 0.9371 0.8418
C150_43 C 0.72298(7) 0.91161(7) 0.85532(7)
H95_43 H 0.7315 0.9085 0.8436
C151_43 C 0.71226(6) 0.90414(6) 0.88848(6)
H96_43 H 0.7131 0.8956 0.9005
N50_35 N 0.65915(5) 0.88338(5) 0.98537(5)
N52_43 N 0.66047(5) 0.93013(5) 0.94038(5)
N53_43 N 0.68884(5) 0.91252(6) 0.92406(5)
N54_43 N 0.67093(5) 0.93980(5) 0.90611(5)
N55_43 N 0.72438(5) 0.89942(5) 0.87228(5)
Co17_35 Co 0.747883(12) 0.8750 0.8750
C6_36 C 0.14882(6) 0.40478(6) 0.28238(6)
N1_36 N 0.13727(5) 0.39286(5) 0.27456(5)
S1_36 S 0.164801(19) 0.421973(19) 0.291831(19)
C133_44 C 0.07299(7) 0.37344(7) 0.26013(7)
H85_44 H 0.0730 0.3637 0.2490
C134_44 C 0.05467(7) 0.37652(8) 0.27075(8)
H86_44 H 0.0424 0.3691 0.2669
C135_44 C 0.05411(8) 0.39078(8) 0.28737(7)
H87_44 H 0.0417 0.3930 0.2952
C136_44 C 0.07252(6) 0.40156(7) 0.29182(6)
C137_44 C 0.09030(6) 0.39746(6) 0.28003(6)
H88_44 H 0.1027 0.4050 0.2831
C139_44 C 0.10963(6) 0.47032(6) 0.34529(6)
H89_44 H 0.0998 0.4688 0.3562
C140_44 C 0.10760(6) 0.45790(6) 0.32765(6)
C141_44 C 0.12227(7) 0.46012(7) 0.31146(7)
H90_44 H 0.1215 0.4516 0.2993
C142_44 C 0.13772(8) 0.47493(8) 0.31364(7)
H91_44 H 0.1477 0.4771 0.3029
C143_44 C 0.13854(7) 0.48671(7) 0.33189(7)
H92_44 H 0.1493 0.4968 0.3332
C144_44 C 0.09110(6) 0.44180(6) 0.32681(6)
C145_44 C 0.06460(6) 0.42468(6) 0.34257(6)
C146_44 C 0.07435(6) 0.41577(7) 0.30988(6)
C147_44 C 0.05162(6) 0.42099(6) 0.36119(6)
C148_44 C 0.05300(7) 0.43355(7) 0.37903(7)
H93_44 H 0.0623 0.4451 0.3795
C149_44 C 0.04057(8) 0.42884(8) 0.39590(7)
H94_44 H 0.0411 0.4371 0.4082
C150_44 C 0.02702(7) 0.41161(7) 0.39468(7)
H95_44 H 0.0185 0.4085 0.4064
C151_44 C 0.03774(6) 0.40414(6) 0.36152(6)
H96_44 H 0.0369 0.3956 0.3495
N50_36 N 0.09085(5) 0.38338(5) 0.26463(5)
N52_44 N 0.08953(5) 0.43013(5) 0.30962(5)
N53_44 N 0.06116(5) 0.41252(6) 0.32594(5)
N54_44 N 0.07907(5) 0.43980(5) 0.34389(5)
N55_44 N 0.02562(5) 0.39942(5) 0.37772(5)
C152_36 C 0.09522(6) 0.35118(6) 0.21762(6)
N56_36 N 0.10714(5) 0.36273(5) 0.22544(5)
S8_36 S 0.078027(19) 0.335199(19) 0.208169(19)
Co17_36 Co 0.002117(12) 0.3750 0.3750
N64_36 N 0.11662(5) 0.40915(5) 0.23537(5)
C6_37 C 0.84522(6) 0.78238(6) 0.60118(6)
N1_37 N 0.85714(5) 0.77456(5) 0.61273(5)
S1_37 S 0.828027(19) 0.791831(19) 0.585199(19)
C133_45 C 0.87656(7) 0.76013(7) 0.67701(7)
H85_45 H 0.8863 0.7490 0.6770
C134_45 C 0.87348(8) 0.77075(8) 0.69533(7)
H86_45 H 0.8809 0.7669 0.7076
C135_45 C 0.85922(8) 0.78737(7) 0.69589(8)
H87_45 H 0.8570 0.7952 0.7083
C136_45 C 0.84844(7) 0.79182(6) 0.67748(6)
C137_45 C 0.85254(6) 0.78003(6) 0.65970(6)
H88_45 H 0.8450 0.7831 0.6473
C139_45 C 0.77968(6) 0.84529(6) 0.64037(6)
H89_45 H 0.7812 0.8562 0.6502
C140_45 C 0.79210(6) 0.82765(6) 0.64240(6)
C141_45 C 0.78988(7) 0.81146(7) 0.62773(7)
H90_45 H 0.7984 0.7993 0.6285
C142_45 C 0.77507(8) 0.81364(7) 0.61228(8)
H91_45 H 0.7729 0.8029 0.6023
C143_45 C 0.76329(7) 0.83189(7) 0.61146(7)
H92_45 H 0.7532 0.8332 0.6007
C144_45 C 0.80820(6) 0.82681(6) 0.65890(6)
C145_45 C 0.82532(6) 0.84257(6) 0.68540(6)
C146_45 C 0.83423(7) 0.80988(6) 0.67565(6)
C147_45 C 0.82901(6) 0.86119(6) 0.69838(6)
C148_45 C 0.81645(7) 0.87903(7) 0.69700(7)
H93_45 H 0.8049 0.8795 0.6877
C149_45 C 0.82116(8) 0.89590(7) 0.70943(8)
H94_45 H 0.8129 0.9082 0.7089
C150_45 C 0.83839(7) 0.89468(7) 0.72298(7)
H95_45 H 0.8415 0.9064 0.7315
C151_45 C 0.84586(6) 0.86152(6) 0.71226(6)
H96_45 H 0.8544 0.8495 0.7131
N50_37 N 0.86662(5) 0.76463(5) 0.65915(5)
N52_45 N 0.81987(5) 0.80962(5) 0.66047(5)
N53_45 N 0.83748(6) 0.82594(5) 0.68884(5)
N54_45 N 0.81020(5) 0.84389(5) 0.67093(5)
N55_45 N 0.85058(5) 0.87772(5) 0.72438(5)
C152_37 C 0.89882(6) 0.71762(6) 0.65478(6)
N56_37 N 0.88727(5) 0.72544(5) 0.64286(5)
S8_37 S 0.914801(19) 0.708169(19) 0.671973(19)
Co17_37 Co 0.8750 0.8750 0.747883(12)
N64_37 N 0.84085(5) 0.73537(5) 0.63338(5)
C6_38 C 0.34522(6) 0.46762(6) 0.14882(6)
N1_38 N 0.35714(5) 0.47544(5) 0.13727(5)
S1_38 S 0.328027(19) 0.458169(19) 0.164801(19)
C133_46 C 0.37656(7) 0.48987(7) 0.07299(7)
H85_46 H 0.3863 0.5010 0.0730
C134_46 C 0.37348(8) 0.47925(8) 0.05467(7)
H86_46 H 0.3809 0.4831 0.0424
C135_46 C 0.35922(8) 0.46263(7) 0.05411(8)
H87_46 H 0.3570 0.4548 0.0417
C136_46 C 0.34844(7) 0.45818(6) 0.07252(6)
C137_46 C 0.35254(6) 0.46997(6) 0.09030(6)
H88_46 H 0.3450 0.4669 0.1027
C139_46 C 0.27968(6) 0.40471(6) 0.10963(6)
H89_46 H 0.2812 0.3938 0.0998
C140_46 C 0.29210(6) 0.42235(6) 0.10760(6)
C141_46 C 0.28988(7) 0.43854(7) 0.12227(7)
H90_46 H 0.2984 0.4507 0.1215
C142_46 C 0.27507(8) 0.43636(7) 0.13772(8)
H91_46 H 0.2729 0.4471 0.1477
C143_46 C 0.26329(7) 0.41811(7) 0.13854(7)
H92_46 H 0.2532 0.4168 0.1493
C144_46 C 0.30820(6) 0.42319(6) 0.09110(6)
C145_46 C 0.32532(6) 0.40743(6) 0.06460(6)
C146_46 C 0.33423(7) 0.44012(6) 0.07435(6)
C147_46 C 0.32901(6) 0.38881(6) 0.05162(6)
C148_46 C 0.31645(7) 0.37097(7) 0.05300(7)
H93_46 H 0.3049 0.3705 0.0623
C149_46 C 0.32116(8) 0.35410(7) 0.04057(8)
H94_46 H 0.3129 0.3418 0.0411
C150_46 C 0.33839(7) 0.35532(7) 0.02702(7)
H95_46 H 0.3415 0.3436 0.0185
C151_46 C 0.34586(6) 0.38848(6) 0.03774(6)
H96_46 H 0.3544 0.4005 0.0369
N50_38 N 0.36662(5) 0.48537(5) 0.09085(5)
N52_46 N 0.31987(5) 0.44038(5) 0.08953(5)
N53_46 N 0.33748(6) 0.42406(5) 0.06116(5)
N54_46 N 0.31020(5) 0.40611(5) 0.07907(5)
N55_46 N 0.35058(5) 0.37228(5) 0.02562(5)
C152_38 C 0.39882(6) 0.53238(6) 0.09522(6)
N56_38 N 0.38727(5) 0.52456(5) 0.10714(5)
S8_38 S 0.414801(19) 0.541831(19) 0.078027(19)
Co17_38 Co 0.3750 0.3750 0.002117(12)
N64_38 N 0.34085(5) 0.51463(5) 0.11662(5)
C6_39 C 0.90478(6) 0.28238(6) 0.64882(6)
N1_39 N 0.89286(5) 0.27456(5) 0.63727(5)
S1_39 S 0.921973(19) 0.291831(19) 0.664801(19)
C133_47 C 0.87344(7) 0.26013(7) 0.57299(7)
H85_47 H 0.8637 0.2490 0.5730
C134_47 C 0.87652(8) 0.27075(8) 0.55467(7)
H86_47 H 0.8691 0.2669 0.5424
C135_47 C 0.89078(8) 0.28737(7) 0.55411(8)
H87_47 H 0.8930 0.2952 0.5417
C136_47 C 0.90156(7) 0.29182(6) 0.57252(6)
C137_47 C 0.89746(6) 0.28003(6) 0.59030(6)
H88_47 H 0.9050 0.2831 0.6027
C139_47 C 0.97032(6) 0.34529(6) 0.60963(6)
H89_47 H 0.9688 0.3562 0.5998
C140_47 C 0.95790(6) 0.32765(6) 0.60760(6)
C141_47 C 0.96012(7) 0.31146(7) 0.62227(7)
H90_47 H 0.9516 0.2993 0.6215
C142_47 C 0.97493(8) 0.31364(7) 0.63772(8)
H91_47 H 0.9771 0.3029 0.6477
C143_47 C 0.98671(7) 0.33189(7) 0.63854(7)
H92_47 H 0.9968 0.3332 0.6493
C144_47 C 0.94180(6) 0.32681(6) 0.59110(6)
C145_47 C 0.92468(6) 0.34257(6) 0.56460(6)
C146_47 C 0.91577(7) 0.30988(6) 0.57435(6)
C147_47 C 0.92099(6) 0.36119(6) 0.55162(6)
C148_47 C 0.93355(7) 0.37903(7) 0.55300(7)
H93_47 H 0.9451 0.3795 0.5623
C149_47 C 0.92884(8) 0.39590(7) 0.54057(8)
H94_47 H 0.9371 0.4082 0.5411
C150_47 C 0.91161(7) 0.39468(7) 0.52702(7)
H95_47 H 0.9085 0.4064 0.5185
C151_47 C 0.90414(6) 0.36152(6) 0.53774(6)
H96_47 H 0.8956 0.3495 0.5369
N50_39 N 0.88338(5) 0.26463(5) 0.59085(5)
N52_47 N 0.93013(5) 0.30962(5) 0.58953(5)
N53_47 N 0.91252(6) 0.32594(5) 0.56116(5)
N54_47 N 0.93980(5) 0.34389(5) 0.57907(5)
N55_47 N 0.89942(5) 0.37772(5) 0.52562(5)
C152_39 C 0.85118(6) 0.21762(6) 0.59522(6)
N56_39 N 0.86273(5) 0.22544(5) 0.60714(5)
S8_39 S 0.835199(19) 0.208169(19) 0.578027(19)
Co17_39 Co 0.8750 0.3750 0.502117(12)
N64_39 N 0.90915(5) 0.23537(5) 0.61662(5)
H85_48 H 0.3637 0.0010 0.1770
C152_40 C 0.35118(6) 0.03238(6) 0.15478(6)
N56_40 N 0.36273(5) 0.02456(5) 0.14286(5)
S8_40 S 0.335199(19) 0.041831(19) 0.171973(19)
N64_40 N 0.40915(5) 0.01463(5) 0.13338(5)
C6_40 C 0.40478(6) 0.96762(6) 0.10118(6)
N1_40 N 0.39286(5) 0.97544(5) 0.11273(5)
S1_40 S 0.421973(19) 0.958169(19) 0.085199(19)
C133_48 C 0.37344(7) 0.98987(7) 0.17701(7)
C134_48 C 0.37652(8) 0.97925(8) 0.19533(7)
H86_48 H 0.3691 0.9831 0.2076
C135_48 C 0.39078(8) 0.96263(7) 0.19589(8)
H87_48 H 0.3930 0.9548 0.2083
C136_48 C 0.40156(7) 0.95818(6) 0.17748(6)
C137_48 C 0.39746(6) 0.96997(6) 0.15970(6)
H88_48 H 0.4050 0.9669 0.1473
C139_48 C 0.47032(6) 0.90471(6) 0.14037(6)
H89_48 H 0.4688 0.8938 0.1502
C140_48 C 0.45790(6) 0.92235(6) 0.14240(6)
C141_48 C 0.46012(7) 0.93854(7) 0.12773(7)
H90_48 H 0.4516 0.9507 0.1285
C142_48 C 0.47493(8) 0.93636(7) 0.11228(8)
H91_48 H 0.4771 0.9471 0.1023
C143_48 C 0.48671(7) 0.91811(7) 0.11146(7)
H92_48 H 0.4968 0.9168 0.1007
C144_48 C 0.44180(6) 0.92319(6) 0.15890(6)
C145_48 C 0.42468(6) 0.90743(6) 0.18540(6)
C146_48 C 0.41577(7) 0.94012(6) 0.17565(6)
C147_48 C 0.42099(6) 0.88881(6) 0.19838(6)
C148_48 C 0.43355(7) 0.87097(7) 0.19700(7)
H93_48 H 0.4451 0.8705 0.1877
C149_48 C 0.42884(8) 0.85410(7) 0.20943(8)
H94_48 H 0.4371 0.8418 0.2089
C150_48 C 0.41161(7) 0.85532(7) 0.22298(7)
H95_48 H 0.4085 0.8436 0.2315
C151_48 C 0.40414(6) 0.88848(6) 0.21226(6)
H96_48 H 0.3956 0.9005 0.2131
N50_40 N 0.38338(5) 0.98537(5) 0.15915(5)
N52_48 N 0.43013(5) 0.94038(5) 0.16047(5)
N53_48 N 0.41252(6) 0.92406(5) 0.18884(5)
N54_48 N 0.43980(5) 0.90611(5) 0.17093(5)
N55_48 N 0.39942(5) 0.87228(5) 0.22438(5)
Co17_40 Co 0.3750 0.8750 0.247883(12)
C133_49 C 0.32299(7) 0.01013(7) 0.62656(7)
C134_49 C 0.30467(7) 0.02075(8) 0.62348(8)
H86_49 H 0.2924 0.0169 0.6309
C135_49 C 0.30411(8) 0.03737(7) 0.60922(8)
H87_49 H 0.2917 0.0452 0.6070
C136_49 C 0.32252(6) 0.04182(6) 0.59844(7)
C137_49 C 0.34030(6) 0.03003(6) 0.60254(6)
H88_49 H 0.3527 0.0331 0.5950
C138_9 C 0.40478(6) 0.10118(6) 0.46762(6)
C139_49 C 0.35963(6) 0.09529(6) 0.52968(6)
H89_49 H 0.3498 0.1062 0.5312
C140_49 C 0.35760(6) 0.07765(6) 0.54210(6)
C141_49 C 0.37227(7) 0.06146(7) 0.53988(7)
H90_49 H 0.3715 0.0493 0.5484
C142_49 C 0.38772(8) 0.06364(7) 0.52507(8)
H91_49 H 0.3977 0.0529 0.5229
C143_49 C 0.38854(7) 0.08189(7) 0.51329(7)
H92_49 H 0.3993 0.0832 0.5032
C144_49 C 0.34110(6) 0.07681(6) 0.55820(6)
C145_49 C 0.31460(6) 0.09257(6) 0.57532(6)
C146_49 C 0.32435(6) 0.05988(6) 0.58423(7)
C147_49 C 0.30162(6) 0.11119(6) 0.57901(6)
C148_49 C 0.30300(7) 0.12903(7) 0.56645(7)
H93_49 H 0.3123 0.1295 0.5549
C149_49 C 0.29057(8) 0.14590(7) 0.57116(8)
H94_49 H 0.2911 0.1582 0.5629
C150_49 C 0.27702(7) 0.14468(7) 0.58839(7)
H95_49 H 0.2685 0.1564 0.5915
C151_49 C 0.28774(6) 0.11152(6) 0.59586(6)
H96_49 H 0.2869 0.0995 0.6044
N49_9 N 0.39286(5) 0.11273(5) 0.47544(5)
N51_9 N 0.37505(5) 0.09752(5) 0.51547(5)
N52_49 N 0.33953(5) 0.05962(5) 0.56987(5)
N53_49 N 0.31116(5) 0.07594(5) 0.58748(6)
N54_49 N 0.32907(5) 0.09389(5) 0.56020(5)
N55_49 N 0.27562(5) 0.12772(5) 0.60058(5)
S7_9 S 0.421973(19) 0.085199(19) 0.458169(19)
C154_9 C 0.35118(6) 0.15478(6) 0.53238(6)
N58_9 N 0.36273(5) 0.14286(5) 0.52456(5)
S10_9 S 0.335199(19) 0.171973(19) 0.541831(19)
N68_9 N 0.34752(5) 0.12505(5) 0.48453(5)
H85_49 H 0.3230 0.9990 0.6363
C155_17 C 0.53238(6) 0.85118(6) 0.65478(6)
N59_17 N 0.52456(5) 0.86273(5) 0.64286(5)
S11_17 S 0.541831(19) 0.835199(19) 0.671973(19)
C156_17 C 0.46762(6) 0.90478(6) 0.60118(6)
N60_17 N 0.47544(5) 0.89286(5) 0.61273(5)
S12_17 S 0.458169(19) 0.921973(19) 0.585199(19)
N66_17 N 0.51547(5) 0.87505(5) 0.59752(5)
N67_17 N 0.48453(5) 0.84752(5) 0.62505(5)
C133_50 C 0.92701(7) 0.73987(7) 0.12656(7)
H85_50 H 0.9270 0.7510 0.1363
C134_50 C 0.94533(7) 0.72925(8) 0.12348(8)
H86_50 H 0.9576 0.7331 0.1309
C135_50 C 0.94589(8) 0.71263(7) 0.10922(8)
H87_50 H 0.9583 0.7048 0.1070
C136_50 C 0.92748(6) 0.70818(6) 0.09844(7)
C137_50 C 0.90970(6) 0.71997(6) 0.10254(6)
H88_50 H 0.8973 0.7169 0.0950
C139_50 C 0.89037(6) 0.65471(6) 0.02968(6)
H89_50 H 0.9002 0.6438 0.0312
C140_50 C 0.89240(6) 0.67235(6) 0.04210(6)
C141_50 C 0.87773(7) 0.68854(7) 0.03988(7)
H90_50 H 0.8785 0.7007 0.0484
C142_50 C 0.86228(8) 0.68636(7) 0.02507(8)
H91_50 H 0.8523 0.6971 0.0229
C143_50 C 0.86146(7) 0.66811(7) 0.01329(7)
H92_50 H 0.8507 0.6668 0.0032
C144_50 C 0.90890(6) 0.67319(6) 0.05820(6)
C145_50 C 0.93540(6) 0.65743(6) 0.07532(6)
C146_50 C 0.92565(6) 0.69012(6) 0.08423(7)
C147_50 C 0.94838(6) 0.63881(6) 0.07901(6)
C148_50 C 0.94700(7) 0.62097(7) 0.06645(7)
H93_50 H 0.9377 0.6205 0.0549
C149_50 C 0.95943(8) 0.60410(7) 0.07116(8)
H94_50 H 0.9589 0.5918 0.0629
C150_50 C 0.97298(7) 0.60532(7) 0.08839(7)
H95_50 H 0.9815 0.5936 0.0915
C151_50 C 0.96226(6) 0.63848(6) 0.09586(6)
H96_50 H 0.9631 0.6505 0.1044
N51_10 N 0.87495(5) 0.65248(5) 0.01547(5)
N52_50 N 0.91047(5) 0.69038(5) 0.06987(5)
N53_50 N 0.93884(5) 0.67406(5) 0.08748(6)
N54_50 N 0.92093(5) 0.65611(5) 0.06020(5)
N55_50 N 0.97438(5) 0.62228(5) 0.10058(5)
C154_10 C 0.89882(6) 0.59522(6) 0.03238(6)
N58_10 N 0.88727(5) 0.60714(5) 0.02456(5)
S10_10 S 0.914801(19) 0.578027(19) 0.041831(19)
C155_18 C 0.71762(6) 0.89882(6) 0.15478(6)
N59_18 N 0.72544(5) 0.88727(5) 0.14286(5)
S11_18 S 0.708169(19) 0.914801(19) 0.171973(19)
C156_18 C 0.78238(6) 0.84522(6) 0.10118(6)
N60_18 N 0.77456(5) 0.85714(5) 0.11273(5)
S12_18 S 0.791831(19) 0.828027(19) 0.085199(19)
N66_18 N 0.73453(5) 0.87495(5) 0.09752(5)
N67_18 N 0.76547(5) 0.90248(5) 0.12505(5)
C138_10 C 0.84522(6) 0.64882(6) 0.96762(6)
N49_10 N 0.85714(5) 0.63727(5) 0.97544(5)
S7_10 S 0.828027(19) 0.664801(19) 0.958169(19)
N68_10 N 0.90248(5) 0.62495(5) 0.98453(5)
C133_51 C 0.42701(7) 0.51013(7) 0.62344(7)
H85_51 H 0.4270 0.4990 0.6137
C134_51 C 0.44533(7) 0.52075(8) 0.62652(8)
H86_51 H 0.4576 0.5169 0.6191
C135_51 C 0.44589(8) 0.53737(7) 0.64078(8)
H87_51 H 0.4583 0.5452 0.6430
C136_51 C 0.42748(6) 0.54182(6) 0.65156(7)
C137_51 C 0.40970(6) 0.53003(6) 0.64746(6)
H88_51 H 0.3973 0.5331 0.6550
C138_11 C 0.34522(6) 0.60118(6) 0.78238(6)
C139_51 C 0.39037(6) 0.59529(6) 0.72032(6)
H89_51 H 0.4002 0.6062 0.7188
C140_51 C 0.39240(6) 0.57765(6) 0.70790(6)
C141_51 C 0.37773(7) 0.56146(7) 0.71012(7)
H90_51 H 0.3785 0.5493 0.7016
C142_51 C 0.36228(8) 0.56364(7) 0.72493(8)
H91_51 H 0.3523 0.5529 0.7271
C143_51 C 0.36146(7) 0.58189(7) 0.73671(7)
H92_51 H 0.3507 0.5832 0.7468
C144_51 C 0.40890(6) 0.57681(6) 0.69180(6)
C145_51 C 0.43540(6) 0.59257(6) 0.67468(6)
C146_51 C 0.42565(6) 0.55988(6) 0.66577(7)
C147_51 C 0.44838(6) 0.61119(6) 0.67099(6)
C148_51 C 0.44700(7) 0.62903(7) 0.68355(7)
H93_51 H 0.4377 0.6295 0.6951
C149_51 C 0.45943(8) 0.64590(7) 0.67884(8)
H94_51 H 0.4589 0.6582 0.6871
C150_51 C 0.47298(7) 0.64468(7) 0.66161(7)
H95_51 H 0.4815 0.6564 0.6585
C151_51 C 0.46226(6) 0.61152(6) 0.65414(6)
H96_51 H 0.4631 0.5995 0.6456
N49_11 N 0.35714(5) 0.61273(5) 0.77456(5)
N51_11 N 0.37495(5) 0.59752(5) 0.73453(5)
N52_51 N 0.41047(5) 0.55962(5) 0.68013(5)
N53_51 N 0.43884(5) 0.57594(5) 0.66252(6)
N54_51 N 0.42093(5) 0.59389(5) 0.68980(5)
N55_51 N 0.47438(5) 0.62772(5) 0.64942(5)
S7_11 S 0.328027(19) 0.585199(19) 0.791831(19)
C154_11 C 0.39882(6) 0.65478(6) 0.71762(6)
N58_11 N 0.38727(5) 0.64286(5) 0.72544(5)
S10_11 S 0.414801(19) 0.671973(19) 0.708169(19)
C155_19 C 0.21762(6) 0.35118(6) 0.59522(6)
N59_19 N 0.22544(5) 0.36273(5) 0.60714(5)
S11_19 S 0.208169(19) 0.335199(19) 0.578027(19)
C156_19 C 0.28238(6) 0.40478(6) 0.64882(6)
N60_19 N 0.27456(5) 0.39286(5) 0.63727(5)
S12_19 S 0.291831(19) 0.421973(19) 0.664801(19)
N66_19 N 0.23453(5) 0.37505(5) 0.65248(5)
N67_19 N 0.26547(5) 0.34752(5) 0.62495(5)
N68_11 N 0.40248(5) 0.62505(5) 0.76547(5)
C155_20 C 0.03238(6) 0.39882(6) 0.09522(6)
N59_20 N 0.02456(5) 0.38727(5) 0.10714(5)
S11_20 S 0.041831(19) 0.414801(19) 0.078027(19)
N66_20 N 0.01547(5) 0.37495(5) 0.15248(5)
C133_52 C 0.82299(7) 0.23987(7) 0.12344(7)
H85_52 H 0.8230 0.2510 0.1137
C134_52 C 0.80467(7) 0.22925(8) 0.12652(8)
H86_52 H 0.7924 0.2331 0.1191
C135_52 C 0.80411(8) 0.21263(7) 0.14078(8)
H87_52 H 0.7917 0.2048 0.1430
C136_52 C 0.82252(6) 0.20818(6) 0.15156(7)
C137_52 C 0.84030(6) 0.21997(6) 0.14746(6)
H88_52 H 0.8527 0.2169 0.1550
C138_12 C 0.90478(6) 0.14882(6) 0.28238(6)
C139_52 C 0.85963(6) 0.15471(6) 0.22032(6)
H89_52 H 0.8498 0.1438 0.2188
C140_52 C 0.85760(6) 0.17235(6) 0.20790(6)
C141_52 C 0.87227(7) 0.18854(7) 0.21012(7)
H90_52 H 0.8715 0.2007 0.2016
C142_52 C 0.88772(8) 0.18636(7) 0.22493(8)
H91_52 H 0.8977 0.1971 0.2271
C143_52 C 0.88854(7) 0.16811(7) 0.23671(7)
H92_52 H 0.8993 0.1668 0.2468
C144_52 C 0.84110(6) 0.17319(6) 0.19180(6)
C145_52 C 0.81460(6) 0.15743(6) 0.17468(6)
C146_52 C 0.82435(6) 0.19012(6) 0.16577(7)
C147_52 C 0.80162(6) 0.13881(6) 0.17099(6)
C148_52 C 0.80300(7) 0.12097(7) 0.18355(7)
H93_52 H 0.8123 0.1205 0.1951
C149_52 C 0.79057(8) 0.10410(7) 0.17884(8)
H94_52 H 0.7911 0.0918 0.1871
C150_52 C 0.77702(7) 0.10532(7) 0.16161(7)
H95_52 H 0.7685 0.0936 0.1585
C151_52 C 0.78774(6) 0.13848(6) 0.15414(6)
H96_52 H 0.7869 0.1505 0.1456
N49_12 N 0.89286(5) 0.13727(5) 0.27456(5)
N51_12 N 0.87505(5) 0.15248(5) 0.23453(5)
N52_52 N 0.83953(5) 0.19038(5) 0.18013(5)
N53_52 N 0.81116(5) 0.17406(5) 0.16252(6)
N54_52 N 0.82907(5) 0.15611(5) 0.18980(5)
N55_52 N 0.77562(5) 0.12228(5) 0.14942(5)
S7_12 S 0.921973(19) 0.164801(19) 0.291831(19)
C154_12 C 0.85118(6) 0.09522(6) 0.21762(6)
N58_12 N 0.86273(5) 0.10714(5) 0.22544(5)
S10_12 S 0.835199(19) 0.078027(19) 0.208169(19)
C156_20 C 0.96762(6) 0.34522(6) 0.14882(6)
N60_20 N 0.97544(5) 0.35714(5) 0.13727(5)
S12_20 S 0.958169(19) 0.328027(19) 0.164801(19)
N67_20 N 0.98453(5) 0.40248(5) 0.12495(5)
N68_12 N 0.84752(5) 0.12495(5) 0.26547(5)
C155_21 C 0.65478(6) 0.03238(6) 0.35118(6)
N59_21 N 0.64286(5) 0.02456(5) 0.36273(5)
S11_21 S 0.671973(19) 0.041831(19) 0.335199(19)
N66_21 N 0.59752(5) 0.01547(5) 0.37505(5)
C133_53 C 0.62656(7) 0.82299(7) 0.51013(7)
H85_53 H 0.6363 0.8230 0.4990
C134_53 C 0.62348(8) 0.80467(7) 0.52075(8)
H86_53 H 0.6309 0.7924 0.5169
C135_53 C 0.60922(8) 0.80411(8) 0.53737(7)
H87_53 H 0.6070 0.7917 0.5452
C136_53 C 0.59844(7) 0.82252(6) 0.54182(6)
C137_53 C 0.60254(6) 0.84030(6) 0.53003(6)
H88_53 H 0.5950 0.8527 0.5331
C139_53 C 0.52968(6) 0.85963(6) 0.59529(6)
H89_53 H 0.5312 0.8498 0.6062
C140_53 C 0.54210(6) 0.85760(6) 0.57765(6)
C141_53 C 0.53988(7) 0.87227(7) 0.56146(7)
H90_53 H 0.5484 0.8715 0.5493
C142_53 C 0.52507(8) 0.88772(8) 0.56364(7)
H91_53 H 0.5229 0.8977 0.5529
C143_53 C 0.51329(7) 0.88854(7) 0.58189(7)
H92_53 H 0.5032 0.8993 0.5832
C144_53 C 0.55820(6) 0.84110(6) 0.57681(6)
C145_53 C 0.57532(6) 0.81460(6) 0.59257(6)
C146_53 C 0.58423(7) 0.82435(6) 0.55988(6)
C147_53 C 0.57901(6) 0.80162(6) 0.61119(6)
C148_53 C 0.56645(7) 0.80300(7) 0.62903(7)
H93_53 H 0.5549 0.8123 0.6295
C149_53 C 0.57116(8) 0.79057(8) 0.64590(7)
H94_53 H 0.5629 0.7911 0.6582
C150_53 C 0.58839(7) 0.77702(7) 0.64468(7)
H95_53 H 0.5915 0.7685 0.6564
C151_53 C 0.59586(6) 0.78774(6) 0.61152(6)
H96_53 H 0.6044 0.7869 0.5995
N52_53 N 0.56987(5) 0.83953(5) 0.55962(5)
N53_53 N 0.58748(6) 0.81116(5) 0.57594(5)
N54_53 N 0.56020(5) 0.82907(5) 0.59389(5)
N55_53 N 0.60058(5) 0.77562(5) 0.62772(5)
C156_21 C 0.60118(6) 0.96762(6) 0.40478(6)
N60_21 N 0.61273(5) 0.97544(5) 0.39286(5)
S12_21 S 0.585199(19) 0.958169(19) 0.421973(19)
N67_21 N 0.62505(5) 0.98453(5) 0.34752(5)
C133_54 C 0.12656(7) 0.42701(7) 0.23987(7)
H85_54 H 0.1363 0.4270 0.2510
C134_54 C 0.12348(8) 0.44533(7) 0.22925(8)
H86_54 H 0.1309 0.4576 0.2331
C135_54 C 0.10922(8) 0.44589(8) 0.21263(7)
H87_54 H 0.1070 0.4583 0.2048
C136_54 C 0.09844(7) 0.42748(6) 0.20818(6)
C137_54 C 0.10254(6) 0.40970(6) 0.21997(6)
H88_54 H 0.0950 0.3973 0.2169
C139_54 C 0.02968(6) 0.39037(6) 0.15471(6)
H89_54 H 0.0312 0.4002 0.1438
C140_54 C 0.04210(6) 0.39240(6) 0.17235(6)
C141_54 C 0.03988(7) 0.37773(7) 0.18854(7)
H90_54 H 0.0484 0.3785 0.2007
C142_54 C 0.02507(8) 0.36228(8) 0.18636(7)
H91_54 H 0.0229 0.3523 0.1971
C143_54 C 0.01329(7) 0.36146(7) 0.16811(7)
H92_54 H 0.0032 0.3507 0.1668
C144_54 C 0.05820(6) 0.40890(6) 0.17319(6)
C145_54 C 0.07532(6) 0.43540(6) 0.15743(6)
C146_54 C 0.08423(7) 0.42565(6) 0.19012(6)
C147_54 C 0.07901(6) 0.44838(6) 0.13881(6)
C148_54 C 0.06645(7) 0.44700(7) 0.12097(7)
H93_54 H 0.0549 0.4377 0.1205
C149_54 C 0.07116(8) 0.45943(8) 0.10410(7)
H94_54 H 0.0629 0.4589 0.0918
C150_54 C 0.08839(7) 0.47298(7) 0.10532(7)
H95_54 H 0.0915 0.4815 0.0936
C151_54 C 0.09586(6) 0.46226(6) 0.13848(6)
H96_54 H 0.1044 0.4631 0.1505
N52_54 N 0.06987(5) 0.41047(5) 0.19038(5)
N53_54 N 0.08748(6) 0.43884(5) 0.17406(5)
N54_54 N 0.06020(5) 0.42093(5) 0.15611(5)
N55_54 N 0.10058(5) 0.47438(5) 0.12228(5)
C155_22 C 0.15478(6) 0.21762(6) 0.39882(6)
N59_22 N 0.14286(5) 0.22544(5) 0.38727(5)
S11_22 S 0.171973(19) 0.208169(19) 0.414801(19)
C156_22 C 0.10118(6) 0.28238(6) 0.34522(6)
N60_22 N 0.11273(5) 0.27456(5) 0.35714(5)
S12_22 S 0.085199(19) 0.291831(19) 0.328027(19)
N66_22 N 0.09752(5) 0.23453(5) 0.37495(5)
N67_22 N 0.12505(5) 0.26547(5) 0.40248(5)
C133_55 C 0.62344(7) 0.92701(7) 0.01013(7)
C134_55 C 0.62652(8) 0.94533(7) 0.02075(8)
H86_55 H 0.6191 0.9576 0.0169
C135_55 C 0.64078(8) 0.94589(8) 0.03737(7)
H87_55 H 0.6430 0.9583 0.0452
C136_55 C 0.65156(7) 0.92748(6) 0.04182(6)
C137_55 C 0.64746(6) 0.90970(6) 0.03003(6)
H88_55 H 0.6550 0.8973 0.0331
C139_55 C 0.72032(6) 0.89037(6) 0.09529(6)
H89_55 H 0.7188 0.9002 0.1062
C140_55 C 0.70790(6) 0.89240(6) 0.07765(6)
C141_55 C 0.71012(7) 0.87773(7) 0.06146(7)
H90_55 H 0.7016 0.8785 0.0493
C142_55 C 0.72493(8) 0.86228(8) 0.06364(7)
H91_55 H 0.7271 0.8523 0.0529
C143_55 C 0.73671(7) 0.86146(7) 0.08189(7)
H92_55 H 0.7468 0.8507 0.0832
C144_55 C 0.69180(6) 0.90890(6) 0.07681(6)
C145_55 C 0.67468(6) 0.93540(6) 0.09257(6)
C146_55 C 0.66577(7) 0.92565(6) 0.05988(6)
C147_55 C 0.67099(6) 0.94838(6) 0.11119(6)
C148_55 C 0.68355(7) 0.94700(7) 0.12903(7)
H93_55 H 0.6951 0.9377 0.1295
C149_55 C 0.67884(8) 0.95943(8) 0.14590(7)
H94_55 H 0.6871 0.9589 0.1582
C150_55 C 0.66161(7) 0.97298(7) 0.14468(7)
H95_55 H 0.6585 0.9815 0.1564
C151_55 C 0.65414(6) 0.96226(6) 0.11152(6)
H96_55 H 0.6456 0.9631 0.0995
N52_55 N 0.68013(5) 0.91047(5) 0.05962(5)
N53_55 N 0.66252(6) 0.93884(5) 0.07594(5)
N54_55 N 0.68980(5) 0.92093(5) 0.09389(5)
N55_55 N 0.64942(5) 0.97438(5) 0.12772(5)
H85_55 H 0.6137 0.9270 0.9990
C155_23 C 0.59522(6) 0.71762(6) 0.85118(6)
N59_23 N 0.60714(5) 0.72544(5) 0.86273(5)
S11_23 S 0.578027(19) 0.708169(19) 0.835199(19)
C156_23 C 0.64882(6) 0.78238(6) 0.90478(6)
N60_23 N 0.63727(5) 0.77456(5) 0.89286(5)
S12_23 S 0.664801(19) 0.791831(19) 0.921973(19)
N66_23 N 0.65248(5) 0.73453(5) 0.87505(5)
N67_23 N 0.62495(5) 0.76547(5) 0.84752(5)
C133_56 C 0.12344(7) 0.32299(7) 0.73987(7)
H85_56 H 0.1137 0.3230 0.7510
C134_56 C 0.12652(8) 0.30467(7) 0.72925(8)
H86_56 H 0.1191 0.2924 0.7331
C135_56 C 0.14078(8) 0.30411(8) 0.71263(7)
H87_56 H 0.1430 0.2917 0.7048
C136_56 C 0.15156(7) 0.32252(6) 0.70818(6)
C137_56 C 0.14746(6) 0.34030(6) 0.71997(6)
H88_56 H 0.1550 0.3527 0.7169
C139_56 C 0.22032(6) 0.35963(6) 0.65471(6)
H89_56 H 0.2188 0.3498 0.6438
C140_56 C 0.20790(6) 0.35760(6) 0.67235(6)
C141_56 C 0.21012(7) 0.37227(7) 0.68854(7)
H90_56 H 0.2016 0.3715 0.7007
C142_56 C 0.22493(8) 0.38772(8) 0.68636(7)
H91_56 H 0.2271 0.3977 0.6971
C143_56 C 0.23671(7) 0.38854(7) 0.66811(7)
H92_56 H 0.2468 0.3993 0.6668
C144_56 C 0.19180(6) 0.34110(6) 0.67319(6)
C145_56 C 0.17468(6) 0.31460(6) 0.65743(6)
C146_56 C 0.16577(7) 0.32435(6) 0.69012(6)
C147_56 C 0.17099(6) 0.30162(6) 0.63881(6)
C148_56 C 0.18355(7) 0.30300(7) 0.62097(7)
H93_56 H 0.1951 0.3123 0.6205
C149_56 C 0.17884(8) 0.29057(8) 0.60410(7)
H94_56 H 0.1871 0.2911 0.5918
C150_56 C 0.16161(7) 0.27702(7) 0.60532(7)
H95_56 H 0.1585 0.2685 0.5936
C151_56 C 0.15414(6) 0.28774(6) 0.63848(6)
H96_56 H 0.1456 0.2869 0.6505
N52_56 N 0.18013(5) 0.33953(5) 0.69038(5)
N53_56 N 0.16252(6) 0.31116(5) 0.67406(5)
N54_56 N 0.18980(5) 0.32907(5) 0.65611(5)
N55_56 N 0.14942(5) 0.27562(5) 0.62228(5)
C155_24 C 0.09522(6) 0.53238(6) 0.89882(6)
N59_24 N 0.10714(5) 0.52456(5) 0.88727(5)
S11_24 S 0.078027(19) 0.541831(19) 0.914801(19)
C156_24 C 0.14882(6) 0.46762(6) 0.84522(6)
N60_24 N 0.13727(5) 0.47544(5) 0.85714(5)
S12_24 S 0.164801(19) 0.458169(19) 0.828027(19)
N66_24 N 0.15248(5) 0.51547(5) 0.87495(5)
N67_24 N 0.12495(5) 0.48453(5) 0.90248(5)
C6_41 C 0.53238(6) 0.09522(6) 0.39882(6)
N1_41 N 0.52456(5) 0.10714(5) 0.38727(5)
S1_41 S 0.541831(19) 0.078027(19) 0.414801(19)
C133_57 C 0.51013(7) 0.12656(7) 0.32299(7)
H85_57 H 0.4990 0.1363 0.3230
C134_57 C 0.52075(8) 0.12348(8) 0.30467(7)
H86_57 H 0.5169 0.1309 0.2924
C135_57 C 0.53737(7) 0.10922(8) 0.30411(8)
H87_57 H 0.5452 0.1070 0.2917
C136_57 C 0.54182(6) 0.09844(7) 0.32252(6)
C137_57 C 0.53003(6) 0.10254(6) 0.34030(6)
H88_57 H 0.5331 0.0950 0.3527
C139_57 C 0.59529(6) 0.02968(6) 0.35963(6)
H89_57 H 0.6062 0.0312 0.3498
C140_57 C 0.57765(6) 0.04210(6) 0.35760(6)
C141_57 C 0.56146(7) 0.03988(7) 0.37227(7)
H90_57 H 0.5493 0.0484 0.3715
C142_57 C 0.56364(7) 0.02507(8) 0.38772(8)
H91_57 H 0.5529 0.0229 0.3977
C143_57 C 0.58189(7) 0.01329(7) 0.38854(7)
H92_57 H 0.5832 0.0032 0.3993
C144_57 C 0.57681(6) 0.05820(6) 0.34110(6)
C145_57 C 0.59257(6) 0.07532(6) 0.31460(6)
C146_57 C 0.55988(6) 0.08423(7) 0.32435(6)
C147_57 C 0.61119(6) 0.07901(6) 0.30162(6)
C148_57 C 0.62903(7) 0.06645(7) 0.30300(7)
H93_57 H 0.6295 0.0549 0.3123
C149_57 C 0.64590(7) 0.07116(8) 0.29057(8)
H94_57 H 0.6582 0.0629 0.2911
C150_57 C 0.64468(7) 0.08839(7) 0.27702(7)
H95_57 H 0.6564 0.0915 0.2685
C151_57 C 0.61152(6) 0.09586(6) 0.28774(6)
H96_57 H 0.5995 0.1044 0.2869
N50_41 N 0.51463(5) 0.11662(5) 0.34085(5)
N52_57 N 0.55962(5) 0.06987(5) 0.33953(5)
N53_57 N 0.57594(5) 0.08748(6) 0.31116(5)
N54_57 N 0.59389(5) 0.06020(5) 0.32907(5)
N55_57 N 0.62772(5) 0.10058(5) 0.27562(5)
C152_41 C 0.46762(6) 0.14882(6) 0.34522(6)
N56_41 N 0.47544(5) 0.13727(5) 0.35714(5)
S8_41 S 0.458169(19) 0.164801(19) 0.328027(19)
Co17_41 Co 0.6250 0.1250 0.252117(12)
N64_41 N 0.48537(5) 0.09085(5) 0.36662(5)
C6_42 C 0.21762(6) 0.59522(6) 0.85118(6)
N1_42 N 0.22544(5) 0.60714(5) 0.86273(5)
S1_42 S 0.208169(19) 0.578027(19) 0.835199(19)
C133_58 C 0.23987(7) 0.62656(7) 0.92701(7)
H85_58 H 0.2510 0.6363 0.9270
C134_58 C 0.22925(8) 0.62348(8) 0.94533(7)
H86_58 H 0.2331 0.6309 0.9576
C135_58 C 0.21263(7) 0.60922(8) 0.94589(8)
H87_58 H 0.2048 0.6070 0.9583
C136_58 C 0.20818(6) 0.59844(7) 0.92748(6)
C137_58 C 0.21997(6) 0.60254(6) 0.90970(6)
H88_58 H 0.2169 0.5950 0.8973
C139_58 C 0.15471(6) 0.52968(6) 0.89037(6)
H89_58 H 0.1438 0.5312 0.9002
C140_58 C 0.17235(6) 0.54210(6) 0.89240(6)
C141_58 C 0.18854(7) 0.53988(7) 0.87773(7)
H90_58 H 0.2007 0.5484 0.8785
C142_58 C 0.18636(7) 0.52507(8) 0.86228(8)
H91_58 H 0.1971 0.5229 0.8523
C143_58 C 0.16811(7) 0.51329(7) 0.86146(7)
H92_58 H 0.1668 0.5032 0.8507
C144_58 C 0.17319(6) 0.55820(6) 0.90890(6)
C145_58 C 0.15743(6) 0.57532(6) 0.93540(6)
C146_58 C 0.19012(6) 0.58423(7) 0.92565(6)
C147_58 C 0.13881(6) 0.57901(6) 0.94838(6)
C148_58 C 0.12097(7) 0.56645(7) 0.94700(7)
H93_58 H 0.1205 0.5549 0.9377
C149_58 C 0.10410(7) 0.57116(8) 0.95943(8)
H94_58 H 0.0918 0.5629 0.9589
C150_58 C 0.10532(7) 0.58839(7) 0.97298(7)
H95_58 H 0.0936 0.5915 0.9815
C151_58 C 0.13848(6) 0.59586(6) 0.96226(6)
H96_58 H 0.1505 0.6044 0.9631
N50_42 N 0.23537(5) 0.61662(5) 0.90915(5)
N52_58 N 0.19038(5) 0.56987(5) 0.91047(5)
N53_58 N 0.17406(5) 0.58748(6) 0.93884(5)
N54_58 N 0.15611(5) 0.56020(5) 0.92093(5)
N55_58 N 0.12228(5) 0.60058(5) 0.97438(5)
C152_42 C 0.28238(6) 0.64882(6) 0.90478(6)
N56_42 N 0.27456(5) 0.63727(5) 0.89286(5)
S8_42 S 0.291831(19) 0.664801(19) 0.921973(19)
Co17_42 Co 0.1250 0.6250 0.997883(12)
N64_42 N 0.26463(5) 0.59085(5) 0.88338(5)
C6_43 C 0.03238(6) 0.15478(6) 0.35118(6)
N1_43 N 0.02456(5) 0.14286(5) 0.36273(5)
S1_43 S 0.041831(19) 0.171973(19) 0.335199(19)
C133_59 C 0.01013(7) 0.12344(7) 0.42701(7)
C134_59 C 0.02075(8) 0.12652(8) 0.44533(7)
H86_59 H 0.0169 0.1191 0.4576
C135_59 C 0.03737(7) 0.14078(8) 0.44589(8)
H87_59 H 0.0452 0.1430 0.4583
C136_59 C 0.04182(6) 0.15156(7) 0.42748(6)
C137_59 C 0.03003(6) 0.14746(6) 0.40970(6)
H88_59 H 0.0331 0.1550 0.3973
C139_59 C 0.09529(6) 0.22032(6) 0.39037(6)
H89_59 H 0.1062 0.2188 0.4002
C140_59 C 0.07765(6) 0.20790(6) 0.39240(6)
C141_59 C 0.06146(7) 0.21012(7) 0.37773(7)
H90_59 H 0.0493 0.2016 0.3785
C142_59 C 0.06364(7) 0.22493(8) 0.36228(8)
H91_59 H 0.0529 0.2271 0.3523
C143_59 C 0.08189(7) 0.23671(7) 0.36146(7)
H92_59 H 0.0832 0.2468 0.3507
C144_59 C 0.07681(6) 0.19180(6) 0.40890(6)
C145_59 C 0.09257(6) 0.17468(6) 0.43540(6)
C146_59 C 0.05988(6) 0.16577(7) 0.42565(6)
C147_59 C 0.11119(6) 0.17099(6) 0.44838(6)
C148_59 C 0.12903(7) 0.18355(7) 0.44700(7)
H93_59 H 0.1295 0.1951 0.4377
C149_59 C 0.14590(7) 0.17884(8) 0.45943(8)
H94_59 H 0.1582 0.1871 0.4589
C150_59 C 0.14468(7) 0.16161(7) 0.47298(7)
H95_59 H 0.1564 0.1585 0.4815
C151_59 C 0.11152(6) 0.15414(6) 0.46226(6)
H96_59 H 0.0995 0.1456 0.4631
N50_43 N 0.01463(5) 0.13338(5) 0.40915(5)
N52_59 N 0.05962(5) 0.18013(5) 0.41047(5)
N53_59 N 0.07594(5) 0.16252(6) 0.43884(5)
N54_59 N 0.09389(5) 0.18980(5) 0.42093(5)
N55_59 N 0.12772(5) 0.14942(5) 0.47438(5)
Co17_43 Co 0.1250 0.1250 0.497883(12)
H85_59 H 0.9990 0.1137 0.4270
C152_43 C 0.96762(6) 0.10118(6) 0.40478(6)
N56_43 N 0.97544(5) 0.11273(5) 0.39286(5)
S8_43 S 0.958169(19) 0.085199(19) 0.421973(19)
N64_43 N 0.98537(5) 0.15915(5) 0.38338(5)
C6_44 C 0.71762(6) 0.65478(6) 0.89882(6)
N1_44 N 0.72544(5) 0.64286(5) 0.88727(5)
S1_44 S 0.708169(19) 0.671973(19) 0.914801(19)
C133_60 C 0.73987(7) 0.62344(7) 0.82299(7)
H85_60 H 0.7510 0.6137 0.8230
C134_60 C 0.72925(8) 0.62652(8) 0.80467(7)
H86_60 H 0.7331 0.6191 0.7924
C135_60 C 0.71263(7) 0.64078(8) 0.80411(8)
H87_60 H 0.7048 0.6430 0.7917
C136_60 C 0.70818(6) 0.65156(7) 0.82252(6)
C137_60 C 0.71997(6) 0.64746(6) 0.84030(6)
H88_60 H 0.7169 0.6550 0.8527
C139_60 C 0.65471(6) 0.72032(6) 0.85963(6)
H89_60 H 0.6438 0.7188 0.8498
C140_60 C 0.67235(6) 0.70790(6) 0.85760(6)
C141_60 C 0.68854(7) 0.71012(7) 0.87227(7)
H90_60 H 0.7007 0.7016 0.8715
C142_60 C 0.68636(7) 0.72493(8) 0.88772(8)
H91_60 H 0.6971 0.7271 0.8977
C143_60 C 0.66811(7) 0.73671(7) 0.88854(7)
H92_60 H 0.6668 0.7468 0.8993
C144_60 C 0.67319(6) 0.69180(6) 0.84110(6)
C145_60 C 0.65743(6) 0.67468(6) 0.81460(6)
C146_60 C 0.69012(6) 0.66577(7) 0.82435(6)
C147_60 C 0.63881(6) 0.67099(6) 0.80162(6)
C148_60 C 0.62097(7) 0.68355(7) 0.80300(7)
H93_60 H 0.6205 0.6951 0.8123
C149_60 C 0.60410(7) 0.67884(8) 0.79057(8)
H94_60 H 0.5918 0.6871 0.7911
C150_60 C 0.60532(7) 0.66161(7) 0.77702(7)
H95_60 H 0.5936 0.6585 0.7685
C151_60 C 0.63848(6) 0.65414(6) 0.78774(6)
H96_60 H 0.6505 0.6456 0.7869
N50_44 N 0.73537(5) 0.63338(5) 0.84085(5)
N52_60 N 0.69038(5) 0.68013(5) 0.83953(5)
N53_60 N 0.67406(5) 0.66252(6) 0.81116(5)
N54_60 N 0.65611(5) 0.68980(5) 0.82907(5)
N55_60 N 0.62228(5) 0.64942(5) 0.77562(5)
C152_44 C 0.78238(6) 0.60118(6) 0.84522(6)
N56_44 N 0.77456(5) 0.61273(5) 0.85714(5)
S8_44 S 0.791831(19) 0.585199(19) 0.828027(19)
Co17_44 Co 0.6250 0.6250 0.752117(12)
N64_44 N 0.76463(5) 0.65915(5) 0.86662(5)
C6_45 C 0.28238(6) 0.14882(6) 0.40478(6)
N1_45 N 0.27456(5) 0.13727(5) 0.39286(5)
S1_45 S 0.291831(19) 0.164801(19) 0.421973(19)
C133_61 C 0.26013(7) 0.07299(7) 0.37344(7)
H85_61 H 0.2490 0.0730 0.3637
C134_61 C 0.27075(8) 0.05467(7) 0.37652(8)
H86_61 H 0.2669 0.0424 0.3691
C135_61 C 0.28737(7) 0.05411(8) 0.39078(8)
H87_61 H 0.2952 0.0417 0.3930
C136_61 C 0.29182(6) 0.07252(6) 0.40156(7)
C137_61 C 0.28003(6) 0.09030(6) 0.39746(6)
H88_61 H 0.2831 0.1027 0.4050
C139_61 C 0.34529(6) 0.10963(6) 0.47032(6)
H89_61 H 0.3562 0.0998 0.4688
C140_61 C 0.32765(6) 0.10760(6) 0.45790(6)
C141_61 C 0.31146(7) 0.12227(7) 0.46012(7)
H90_61 H 0.2993 0.1215 0.4516
C142_61 C 0.31364(7) 0.13772(8) 0.47493(8)
H91_61 H 0.3029 0.1477 0.4771
C143_61 C 0.33189(7) 0.13854(7) 0.48671(7)
H92_61 H 0.3332 0.1493 0.4968
C144_61 C 0.32681(6) 0.09110(6) 0.44180(6)
C145_61 C 0.34257(6) 0.06460(6) 0.42468(6)
C146_61 C 0.30988(6) 0.07435(6) 0.41577(7)
C147_61 C 0.36119(6) 0.05162(6) 0.42099(6)
C148_61 C 0.37903(7) 0.05300(7) 0.43355(7)
H93_61 H 0.3795 0.0623 0.4451
C149_61 C 0.39590(7) 0.04057(8) 0.42884(8)
H94_61 H 0.4082 0.0411 0.4371
C150_61 C 0.39468(7) 0.02702(7) 0.41161(7)
H95_61 H 0.4064 0.0185 0.4085
C151_61 C 0.36152(6) 0.03774(6) 0.40414(6)
H96_61 H 0.3495 0.0369 0.3956
N50_45 N 0.26463(5) 0.09085(5) 0.38338(5)
N52_61 N 0.30962(5) 0.08953(5) 0.43013(5)
N53_61 N 0.32594(5) 0.06116(5) 0.41252(6)
N54_61 N 0.34389(5) 0.07907(5) 0.43980(5)
N55_61 N 0.37772(5) 0.02562(5) 0.39942(5)
C152_45 C 0.21762(6) 0.09522(6) 0.35118(6)
N56_45 N 0.22544(5) 0.10714(5) 0.36273(5)
S8_45 S 0.208169(19) 0.078027(19) 0.335199(19)
Co17_45 Co 0.3750 0.002117(12) 0.3750
N64_45 N 0.23537(5) 0.11662(5) 0.40915(5)
H85_62 H 0.0010 0.6770 0.8637
C152_46 C 0.03238(6) 0.65478(6) 0.85118(6)
N56_46 N 0.02456(5) 0.64286(5) 0.86273(5)
S8_46 S 0.041831(19) 0.671973(19) 0.835199(19)
N64_46 N 0.01463(5) 0.63338(5) 0.90915(5)
C6_46 C 0.96762(6) 0.60118(6) 0.90478(6)
N1_46 N 0.97544(5) 0.61273(5) 0.89286(5)
S1_46 S 0.958169(19) 0.585199(19) 0.921973(19)
C133_62 C 0.98987(7) 0.67701(7) 0.87344(7)
C134_62 C 0.97925(8) 0.69533(7) 0.87652(8)
H86_62 H 0.9831 0.7076 0.8691
C135_62 C 0.96263(7) 0.69589(8) 0.89078(8)
H87_62 H 0.9548 0.7083 0.8930
C136_62 C 0.95818(6) 0.67748(6) 0.90156(7)
C137_62 C 0.96997(6) 0.65970(6) 0.89746(6)
H88_62 H 0.9669 0.6473 0.9050
C139_62 C 0.90471(6) 0.64037(6) 0.97032(6)
H89_62 H 0.8938 0.6502 0.9688
C140_62 C 0.92235(6) 0.64240(6) 0.95790(6)
C141_62 C 0.93854(7) 0.62773(7) 0.96012(7)
H90_62 H 0.9507 0.6285 0.9516
C142_62 C 0.93636(7) 0.61228(8) 0.97493(8)
H91_62 H 0.9471 0.6023 0.9771
C143_62 C 0.91811(7) 0.61146(7) 0.98671(7)
H92_62 H 0.9168 0.6007 0.9968
C144_62 C 0.92319(6) 0.65890(6) 0.94180(6)
C145_62 C 0.90743(6) 0.68540(6) 0.92468(6)
C146_62 C 0.94012(6) 0.67565(6) 0.91577(7)
C147_62 C 0.88881(6) 0.69838(6) 0.92099(6)
C148_62 C 0.87097(7) 0.69700(7) 0.93355(7)
H93_62 H 0.8705 0.6877 0.9451
C149_62 C 0.85410(7) 0.70943(8) 0.92884(8)
H94_62 H 0.8418 0.7089 0.9371
C150_62 C 0.85532(7) 0.72298(7) 0.91161(7)
H95_62 H 0.8436 0.7315 0.9085
C151_62 C 0.88848(6) 0.71226(6) 0.90414(6)
H96_62 H 0.9005 0.7131 0.8956
N50_46 N 0.98537(5) 0.65915(5) 0.88338(5)
N52_62 N 0.94038(5) 0.66047(5) 0.93013(5)
N53_62 N 0.92406(5) 0.68884(5) 0.91252(6)
N54_62 N 0.90611(5) 0.67093(5) 0.93980(5)
N55_62 N 0.87228(5) 0.72438(5) 0.89942(5)
Co17_46 Co 0.8750 0.747883(12) 0.8750
C6_47 C 0.78238(6) 0.10118(6) 0.34522(6)
N1_47 N 0.77456(5) 0.11273(5) 0.35714(5)
S1_47 S 0.791831(19) 0.085199(19) 0.328027(19)
C133_63 C 0.76013(7) 0.17701(7) 0.37656(7)
H85_63 H 0.7490 0.1770 0.3863
C134_63 C 0.77075(8) 0.19533(7) 0.37348(8)
H86_63 H 0.7669 0.2076 0.3809
C135_63 C 0.78737(7) 0.19589(8) 0.35922(8)
H87_63 H 0.7952 0.2083 0.3570
C136_63 C 0.79182(6) 0.17748(6) 0.34844(7)
C137_63 C 0.78003(6) 0.15970(6) 0.35254(6)
H88_63 H 0.7831 0.1473 0.3450
C139_63 C 0.84529(6) 0.14037(6) 0.27968(6)
H89_63 H 0.8562 0.1502 0.2812
C140_63 C 0.82765(6) 0.14240(6) 0.29210(6)
C141_63 C 0.81146(7) 0.12773(7) 0.28988(7)
H90_63 H 0.7993 0.1285 0.2984
C142_63 C 0.81364(7) 0.11228(8) 0.27507(8)
H91_63 H 0.8029 0.1023 0.2729
C143_63 C 0.83189(7) 0.11146(7) 0.26329(7)
H92_63 H 0.8332 0.1007 0.2532
C144_63 C 0.82681(6) 0.15890(6) 0.30820(6)
C145_63 C 0.84257(6) 0.18540(6) 0.32532(6)
C146_63 C 0.80988(6) 0.17565(6) 0.33423(7)
C147_63 C 0.86119(6) 0.19838(6) 0.32901(6)
C148_63 C 0.87903(7) 0.19700(7) 0.31645(7)
H93_63 H 0.8795 0.1877 0.3049
C149_63 C 0.89590(7) 0.20943(8) 0.32116(8)
H94_63 H 0.9082 0.2089 0.3129
C150_63 C 0.89468(7) 0.22298(7) 0.33839(7)
H95_63 H 0.9064 0.2315 0.3415
C151_63 C 0.86152(6) 0.21226(6) 0.34586(6)
H96_63 H 0.8495 0.2131 0.3544
N50_47 N 0.76463(5) 0.15915(5) 0.36662(5)
N52_63 N 0.80962(5) 0.16047(5) 0.31987(5)
N53_63 N 0.82594(5) 0.18884(5) 0.33748(6)
N54_63 N 0.84389(5) 0.17093(5) 0.31020(5)
N55_63 N 0.87772(5) 0.22438(5) 0.35058(5)
C152_47 C 0.71762(6) 0.15478(6) 0.39882(6)
N56_47 N 0.72544(5) 0.14286(5) 0.38727(5)
S8_47 S 0.708169(19) 0.171973(19) 0.414801(19)
Co17_47 Co 0.8750 0.247883(12) 0.3750
N64_47 N 0.73537(5) 0.13338(5) 0.34085(5)
C6_48 C 0.46762(6) 0.64882(6) 0.84522(6)
N1_48 N 0.47544(5) 0.63727(5) 0.85714(5)
S1_48 S 0.458169(19) 0.664801(19) 0.828027(19)
C133_64 C 0.48987(7) 0.57299(7) 0.87656(7)
H85_64 H 0.5010 0.5730 0.8863
C134_64 C 0.47925(8) 0.55467(7) 0.87348(8)
H86_64 H 0.4831 0.5424 0.8809
C135_64 C 0.46263(7) 0.55411(8) 0.85922(8)
H87_64 H 0.4548 0.5417 0.8570
C136_64 C 0.45818(6) 0.57252(6) 0.84844(7)
C137_64 C 0.46997(6) 0.59030(6) 0.85254(6)
H88_64 H 0.4669 0.6027 0.8450
C139_64 C 0.40471(6) 0.60963(6) 0.77968(6)
H89_64 H 0.3938 0.5998 0.7812
C140_64 C 0.42235(6) 0.60760(6) 0.79210(6)
C141_64 C 0.43854(7) 0.62227(7) 0.78988(7)
H90_64 H 0.4507 0.6215 0.7984
C142_64 C 0.43636(7) 0.63772(8) 0.77507(8)
H91_64 H 0.4471 0.6477 0.7729
C143_64 C 0.41811(7) 0.63854(7) 0.76329(7)
H92_64 H 0.4168 0.6493 0.7532
C144_64 C 0.42319(6) 0.59110(6) 0.80820(6)
C145_64 C 0.40743(6) 0.56460(6) 0.82532(6)
C146_64 C 0.44012(6) 0.57435(6) 0.83423(7)
C147_64 C 0.38881(6) 0.55162(6) 0.82901(6)
C148_64 C 0.37097(7) 0.55300(7) 0.81645(7)
H93_64 H 0.3705 0.5623 0.8049
C149_64 C 0.35410(7) 0.54057(8) 0.82116(8)
H94_64 H 0.3418 0.5411 0.8129
C150_64 C 0.35532(7) 0.52702(7) 0.83839(7)
H95_64 H 0.3436 0.5185 0.8415
C151_64 C 0.38848(6) 0.53774(6) 0.84586(6)
H96_64 H 0.4005 0.5369 0.8544
N50_48 N 0.48537(5) 0.59085(5) 0.86662(5)
N52_64 N 0.44038(5) 0.58953(5) 0.81987(5)
N53_64 N 0.42406(5) 0.56116(5) 0.83748(6)
N54_64 N 0.40611(5) 0.57907(5) 0.81020(5)
N55_64 N 0.37228(5) 0.52562(5) 0.85058(5)
C152_48 C 0.53238(6) 0.59522(6) 0.89882(6)
N56_48 N 0.52456(5) 0.60714(5) 0.88727(5)
S8_48 S 0.541831(19) 0.578027(19) 0.914801(19)
Co17_48 Co 0.3750 0.502117(12) 0.8750
N64_48 N 0.51463(5) 0.61662(5) 0.84085(5)
C133_65 C 0.07299(7) 0.37656(7) 0.48987(7)
H85_65 H 0.0730 0.3863 0.5010
C134_65 C 0.05467(7) 0.37348(8) 0.47925(8)
H86_65 H 0.0424 0.3809 0.4831
C135_65 C 0.05411(8) 0.35922(8) 0.46263(7)
H87_65 H 0.0417 0.3570 0.4548
C136_65 C 0.07252(6) 0.34844(7) 0.45818(6)
C137_65 C 0.09030(6) 0.35254(6) 0.46997(6)
H88_65 H 0.1027 0.3450 0.4669
C139_65 C 0.10963(6) 0.27968(6) 0.40471(6)
H89_65 H 0.0998 0.2812 0.3938
C140_65 C 0.10760(6) 0.29210(6) 0.42235(6)
C141_65 C 0.12227(7) 0.28988(7) 0.43854(7)
H90_65 H 0.1215 0.2984 0.4507
C142_65 C 0.13772(8) 0.27507(8) 0.43636(7)
H91_65 H 0.1477 0.2729 0.4471
C143_65 C 0.13854(7) 0.26329(7) 0.41811(7)
H92_65 H 0.1493 0.2532 0.4168
C144_65 C 0.09110(6) 0.30820(6) 0.42319(6)
C145_65 C 0.06460(6) 0.32532(6) 0.40743(6)
C146_65 C 0.07435(6) 0.33423(7) 0.44012(6)
C147_65 C 0.05162(6) 0.32901(6) 0.38881(6)
C148_65 C 0.05300(7) 0.31645(7) 0.37097(7)
H93_65 H 0.0623 0.3049 0.3705
C149_65 C 0.04057(8) 0.32116(8) 0.35410(7)
H94_65 H 0.0411 0.3129 0.3418
C150_65 C 0.02702(7) 0.33839(7) 0.35532(7)
H95_65 H 0.0185 0.3415 0.3436
C151_65 C 0.03774(6) 0.34586(6) 0.38848(6)
H96_65 H 0.0369 0.3544 0.4005
N52_65 N 0.08953(5) 0.31987(5) 0.44038(5)
N53_65 N 0.06116(5) 0.33748(6) 0.42406(5)
N54_65 N 0.07907(5) 0.31020(5) 0.40611(5)
N55_65 N 0.02562(5) 0.35058(5) 0.37228(5)
C133_66 C 0.67701(7) 0.87656(7) 0.76013(7)
H85_66 H 0.6770 0.8863 0.7490
C134_66 C 0.69533(7) 0.87348(8) 0.77075(8)
H86_66 H 0.7076 0.8809 0.7669
C135_66 C 0.69589(8) 0.85922(8) 0.78737(7)
H87_66 H 0.7083 0.8570 0.7952
C136_66 C 0.67748(6) 0.84844(7) 0.79182(6)
C137_66 C 0.65970(6) 0.85254(6) 0.78003(6)
H88_66 H 0.6473 0.8450 0.7831
C139_66 C 0.64037(6) 0.77968(6) 0.84529(6)
H89_66 H 0.6502 0.7812 0.8562
C140_66 C 0.64240(6) 0.79210(6) 0.82765(6)
C141_66 C 0.62773(7) 0.78988(7) 0.81146(7)
H90_66 H 0.6285 0.7984 0.7993
C142_66 C 0.61228(8) 0.77507(8) 0.81364(7)
H91_66 H 0.6023 0.7729 0.8029
C143_66 C 0.61146(7) 0.76329(7) 0.83189(7)
H92_66 H 0.6007 0.7532 0.8332
C144_66 C 0.65890(6) 0.80820(6) 0.82681(6)
C145_66 C 0.68540(6) 0.82532(6) 0.84257(6)
C146_66 C 0.67565(6) 0.83423(7) 0.80988(6)
C147_66 C 0.69838(6) 0.82901(6) 0.86119(6)
C148_66 C 0.69700(7) 0.81645(7) 0.87903(7)
H93_66 H 0.6877 0.8049 0.8795
C149_66 C 0.70943(8) 0.82116(8) 0.89590(7)
H94_66 H 0.7089 0.8129 0.9082
C150_66 C 0.72298(7) 0.83839(7) 0.89468(7)
H95_66 H 0.7315 0.8415 0.9064
C151_66 C 0.71226(6) 0.84586(6) 0.86152(6)
H96_66 H 0.7131 0.8544 0.8495
N52_66 N 0.66047(5) 0.81987(5) 0.80962(5)
N53_66 N 0.68884(5) 0.83748(6) 0.82594(5)
N54_66 N 0.67093(5) 0.81020(5) 0.84389(5)
N55_66 N 0.72438(5) 0.85058(5) 0.87772(5)
H85_67 H 0.1770 0.3637 0.0010
C133_67 C 0.17701(7) 0.37344(7) 0.98987(7)
C134_67 C 0.19533(7) 0.37652(8) 0.97925(8)
H86_67 H 0.2076 0.3691 0.9831
C135_67 C 0.19589(8) 0.39078(8) 0.96263(7)
H87_67 H 0.2083 0.3930 0.9548
C136_67 C 0.17748(6) 0.40156(7) 0.95818(6)
C137_67 C 0.15970(6) 0.39746(6) 0.96997(6)
H88_67 H 0.1473 0.4050 0.9669
C139_67 C 0.14037(6) 0.47032(6) 0.90471(6)
H89_67 H 0.1502 0.4688 0.8938
C140_67 C 0.14240(6) 0.45790(6) 0.92235(6)
C141_67 C 0.12773(7) 0.46012(7) 0.93854(7)
H90_67 H 0.1285 0.4516 0.9507
C142_67 C 0.11228(8) 0.47493(8) 0.93636(7)
H91_67 H 0.1023 0.4771 0.9471
C143_67 C 0.11146(7) 0.48671(7) 0.91811(7)
H92_67 H 0.1007 0.4968 0.9168
C144_67 C 0.15890(6) 0.44180(6) 0.92319(6)
C145_67 C 0.18540(6) 0.42468(6) 0.90743(6)
C146_67 C 0.17565(6) 0.41577(7) 0.94012(6)
C147_67 C 0.19838(6) 0.42099(6) 0.88881(6)
C148_67 C 0.19700(7) 0.43355(7) 0.87097(7)
H93_67 H 0.1877 0.4451 0.8705
C149_67 C 0.20943(8) 0.42884(8) 0.85410(7)
H94_67 H 0.2089 0.4371 0.8418
C150_67 C 0.22298(7) 0.41161(7) 0.85532(7)
H95_67 H 0.2315 0.4085 0.8436
C151_67 C 0.21226(6) 0.40414(6) 0.88848(6)
H96_67 H 0.2131 0.3956 0.9005
N52_67 N 0.16047(5) 0.43013(5) 0.94038(5)
N53_67 N 0.18884(5) 0.41252(6) 0.92406(5)
N54_67 N 0.17093(5) 0.43980(5) 0.90611(5)
N55_67 N 0.22438(5) 0.39942(5) 0.87228(5)
C133_68 C 0.57299(7) 0.87344(7) 0.26013(7)
H85_68 H 0.5730 0.8637 0.2490
C134_68 C 0.55467(7) 0.87652(8) 0.27075(8)
H86_68 H 0.5424 0.8691 0.2669
C135_68 C 0.55411(8) 0.89078(8) 0.28737(7)
H87_68 H 0.5417 0.8930 0.2952
C136_68 C 0.57252(6) 0.90156(7) 0.29182(6)
C137_68 C 0.59030(6) 0.89746(6) 0.28003(6)
H88_68 H 0.6027 0.9050 0.2831
C139_68 C 0.60963(6) 0.97032(6) 0.34529(6)
H89_68 H 0.5998 0.9688 0.3562
C140_68 C 0.60760(6) 0.95790(6) 0.32765(6)
C141_68 C 0.62227(7) 0.96012(7) 0.31146(7)
H90_68 H 0.6215 0.9516 0.2993
C142_68 C 0.63772(8) 0.97493(8) 0.31364(7)
H91_68 H 0.6477 0.9771 0.3029
C143_68 C 0.63854(7) 0.98671(7) 0.33189(7)
H92_68 H 0.6493 0.9968 0.3332
C144_68 C 0.59110(6) 0.94180(6) 0.32681(6)
C145_68 C 0.56460(6) 0.92468(6) 0.34257(6)
C146_68 C 0.57435(6) 0.91577(7) 0.30988(6)
C147_68 C 0.55162(6) 0.92099(6) 0.36119(6)
C148_68 C 0.55300(7) 0.93355(7) 0.37903(7)
H93_68 H 0.5623 0.9451 0.3795
C149_68 C 0.54057(8) 0.92884(8) 0.39590(7)
H94_68 H 0.5411 0.9371 0.4082
C150_68 C 0.52702(7) 0.91161(7) 0.39468(7)
H95_68 H 0.5185 0.9085 0.4064
C151_68 C 0.53774(6) 0.90414(6) 0.36152(6)
H96_68 H 0.5369 0.8956 0.3495
N52_68 N 0.58953(5) 0.93013(5) 0.30962(5)
N53_68 N 0.56116(5) 0.91252(6) 0.32594(5)
N54_68 N 0.57907(5) 0.93980(5) 0.34389(5)
N55_68 N 0.52562(5) 0.89942(5) 0.37772(5)
C133_69 C 0.37656(7) 0.26013(7) 0.67701(7)
H85_69 H 0.3863 0.2490 0.6770
C134_69 C 0.37348(8) 0.27075(8) 0.69533(7)
H86_69 H 0.3809 0.2669 0.7076
C135_69 C 0.35922(8) 0.28737(7) 0.69589(8)
H87_69 H 0.3570 0.2952 0.7083
C136_69 C 0.34844(7) 0.29182(6) 0.67748(6)
C137_69 C 0.35254(6) 0.28003(6) 0.65970(6)
H88_69 H 0.3450 0.2831 0.6473
C139_69 C 0.27968(6) 0.34529(6) 0.64037(6)
H89_69 H 0.2812 0.3562 0.6502
C140_69 C 0.29210(6) 0.32765(6) 0.64240(6)
C141_69 C 0.28988(7) 0.31146(7) 0.62773(7)
H90_69 H 0.2984 0.2993 0.6285
C142_69 C 0.27507(8) 0.31364(7) 0.61228(8)
H91_69 H 0.2729 0.3029 0.6023
C143_69 C 0.26329(7) 0.33189(7) 0.61146(7)
H92_69 H 0.2532 0.3332 0.6007
C144_69 C 0.30820(6) 0.32681(6) 0.65890(6)
C145_69 C 0.32532(6) 0.34257(6) 0.68540(6)
C146_69 C 0.33423(7) 0.30988(6) 0.67565(6)
C147_69 C 0.32901(6) 0.36119(6) 0.69838(6)
C148_69 C 0.31645(7) 0.37903(7) 0.69700(7)
H93_69 H 0.3049 0.3795 0.6877
C149_69 C 0.32116(8) 0.39590(7) 0.70943(8)
H94_69 H 0.3129 0.4082 0.7089
C150_69 C 0.33839(7) 0.39468(7) 0.72298(7)
H95_69 H 0.3415 0.4064 0.7315
C151_69 C 0.34586(6) 0.36152(6) 0.71226(6)
H96_69 H 0.3544 0.3495 0.7131
N52_69 N 0.31987(5) 0.30962(5) 0.66047(5)
N53_69 N 0.33748(6) 0.32594(5) 0.68884(5)
N54_69 N 0.31020(5) 0.34389(5) 0.67093(5)
N55_69 N 0.35058(5) 0.37772(5) 0.72438(5)
H85_70 H 0.8863 0.0010 0.0730
C133_70 C 0.87656(7) 0.98987(7) 0.07299(7)
C134_70 C 0.87348(8) 0.97925(8) 0.05467(7)
H86_70 H 0.8809 0.9831 0.0424
C135_70 C 0.85922(8) 0.96263(7) 0.05411(8)
H87_70 H 0.8570 0.9548 0.0417
C136_70 C 0.84844(7) 0.95818(6) 0.07252(6)
C137_70 C 0.85254(6) 0.96997(6) 0.09030(6)
H88_70 H 0.8450 0.9669 0.1027
C139_70 C 0.77968(6) 0.90471(6) 0.10963(6)
H89_70 H 0.7812 0.8938 0.0998
C140_70 C 0.79210(6) 0.92235(6) 0.10760(6)
C141_70 C 0.78988(7) 0.93854(7) 0.12227(7)
H90_70 H 0.7984 0.9507 0.1215
C142_70 C 0.77507(8) 0.93636(7) 0.13772(8)
H91_70 H 0.7729 0.9471 0.1477
C143_70 C 0.76329(7) 0.91811(7) 0.13854(7)
H92_70 H 0.7532 0.9168 0.1493
C144_70 C 0.80820(6) 0.92319(6) 0.09110(6)
C145_70 C 0.82532(6) 0.90743(6) 0.06460(6)
C146_70 C 0.83423(7) 0.94012(6) 0.07435(6)
C147_70 C 0.82901(6) 0.88881(6) 0.05162(6)
C148_70 C 0.81645(7) 0.87097(7) 0.05300(7)
H93_70 H 0.8049 0.8705 0.0623
C149_70 C 0.82116(8) 0.85410(7) 0.04057(8)
H94_70 H 0.8129 0.8418 0.0411
C150_70 C 0.83839(7) 0.85532(7) 0.02702(7)
H95_70 H 0.8415 0.8436 0.0185
C151_70 C 0.84586(6) 0.88848(6) 0.03774(6)
H96_70 H 0.8544 0.9005 0.0369
N52_70 N 0.81987(5) 0.94038(5) 0.08953(5)
N53_70 N 0.83748(6) 0.92406(5) 0.06116(5)
N54_70 N 0.81020(5) 0.90611(5) 0.07907(5)
N55_70 N 0.85058(5) 0.87228(5) 0.02562(5)
C133_71 C 0.37344(7) 0.76013(7) 0.57299(7)
H85_71 H 0.3637 0.7490 0.5730
C134_71 C 0.37652(8) 0.77075(8) 0.55467(7)
H86_71 H 0.3691 0.7669 0.5424
C135_71 C 0.39078(8) 0.78737(7) 0.55411(8)
H87_71 H 0.3930 0.7952 0.5417
C136_71 C 0.40156(7) 0.79182(6) 0.57252(6)
C137_71 C 0.39746(6) 0.78003(6) 0.59030(6)
H88_71 H 0.4050 0.7831 0.6027
C139_71 C 0.47032(6) 0.84529(6) 0.60963(6)
H89_71 H 0.4688 0.8562 0.5998
C140_71 C 0.45790(6) 0.82765(6) 0.60760(6)
C141_71 C 0.46012(7) 0.81146(7) 0.62227(7)
H90_71 H 0.4516 0.7993 0.6215
C142_71 C 0.47493(8) 0.81364(7) 0.63772(8)
H91_71 H 0.4771 0.8029 0.6477
C143_71 C 0.48671(7) 0.83189(7) 0.63854(7)
H92_71 H 0.4968 0.8332 0.6493
C144_71 C 0.44180(6) 0.82681(6) 0.59110(6)
C145_71 C 0.42468(6) 0.84257(6) 0.56460(6)
C146_71 C 0.41577(7) 0.80988(6) 0.57435(6)
C147_71 C 0.42099(6) 0.86119(6) 0.55162(6)
C148_71 C 0.43355(7) 0.87903(7) 0.55300(7)
H93_71 H 0.4451 0.8795 0.5623
C149_71 C 0.42884(8) 0.89590(7) 0.54057(8)
H94_71 H 0.4371 0.9082 0.5411
C150_71 C 0.41161(7) 0.89468(7) 0.52702(7)
H95_71 H 0.4085 0.9064 0.5185
C151_71 C 0.40414(6) 0.86152(6) 0.53774(6)
H96_71 H 0.3956 0.8495 0.5369
N52_71 N 0.43013(5) 0.80962(5) 0.58953(5)
N53_71 N 0.41252(6) 0.82594(5) 0.56116(5)
N54_71 N 0.43980(5) 0.84389(5) 0.57907(5)
N55_71 N 0.39942(5) 0.87772(5) 0.52562(5)
C133_72 C 0.87344(7) 0.48987(7) 0.17701(7)
H85_72 H 0.8637 0.5010 0.1770
C134_72 C 0.87652(8) 0.47925(8) 0.19533(7)
H86_72 H 0.8691 0.4831 0.2076
C135_72 C 0.89078(8) 0.46263(7) 0.19589(8)
H87_72 H 0.8930 0.4548 0.2083
C136_72 C 0.90156(7) 0.45818(6) 0.17748(6)
C137_72 C 0.89746(6) 0.46997(6) 0.15970(6)
H88_72 H 0.9050 0.4669 0.1473
C139_72 C 0.97032(6) 0.40471(6) 0.14037(6)
H89_72 H 0.9688 0.3938 0.1502
C140_72 C 0.95790(6) 0.42235(6) 0.14240(6)
C141_72 C 0.96012(7) 0.43854(7) 0.12773(7)
H90_72 H 0.9516 0.4507 0.1285
C142_72 C 0.97493(8) 0.43636(7) 0.11228(8)
H91_72 H 0.9771 0.4471 0.1023
C143_72 C 0.98671(7) 0.41811(7) 0.11146(7)
H92_72 H 0.9968 0.4168 0.1007
C144_72 C 0.94180(6) 0.42319(6) 0.15890(6)
C145_72 C 0.92468(6) 0.40743(6) 0.18540(6)
C146_72 C 0.91577(7) 0.44012(6) 0.17565(6)
C147_72 C 0.92099(6) 0.38881(6) 0.19838(6)
C148_72 C 0.93355(7) 0.37097(7) 0.19700(7)
H93_72 H 0.9451 0.3705 0.1877
C149_72 C 0.92884(8) 0.35410(7) 0.20943(8)
H94_72 H 0.9371 0.3418 0.2089
C150_72 C 0.91161(7) 0.35532(7) 0.22298(7)
H95_72 H 0.9085 0.3436 0.2315
C151_72 C 0.90414(6) 0.38848(6) 0.21226(6)
H96_72 H 0.8956 0.4005 0.2131
N52_72 N 0.93013(5) 0.44038(5) 0.16047(5)
N53_72 N 0.91252(6) 0.42406(5) 0.18884(5)
N54_72 N 0.93980(5) 0.40611(5) 0.17093(5)
N55_72 N 0.89942(5) 0.37228(5) 0.22438(5)
C133_73 C 0.32299(7) 0.51013(7) 0.12656(7)
H85_73 H 0.3230 0.4990 0.1363
C134_73 C 0.30467(7) 0.52075(8) 0.12348(8)
H86_73 H 0.2924 0.5169 0.1309
C135_73 C 0.30411(8) 0.53737(7) 0.10922(8)
H87_73 H 0.2917 0.5452 0.1070
C136_73 C 0.32252(6) 0.54182(6) 0.09844(7)
C137_73 C 0.34030(6) 0.53003(6) 0.10254(6)
H88_73 H 0.3527 0.5331 0.0950
C139_73 C 0.35963(6) 0.59529(6) 0.02968(6)
H89_73 H 0.3498 0.6062 0.0312
C140_73 C 0.35760(6) 0.57765(6) 0.04210(6)
C141_73 C 0.37227(7) 0.56146(7) 0.03988(7)
H90_73 H 0.3715 0.5493 0.0484
C142_73 C 0.38772(8) 0.56364(7) 0.02507(8)
H91_73 H 0.3977 0.5529 0.0229
C143_73 C 0.38854(7) 0.58189(7) 0.01329(7)
H92_73 H 0.3993 0.5832 0.0032
C144_73 C 0.34110(6) 0.57681(6) 0.05820(6)
C145_73 C 0.31460(6) 0.59257(6) 0.07532(6)
C146_73 C 0.32435(6) 0.55988(6) 0.08423(7)
C147_73 C 0.30162(6) 0.61119(6) 0.07901(6)
C148_73 C 0.30300(7) 0.62903(7) 0.06645(7)
H93_73 H 0.3123 0.6295 0.0549
C149_73 C 0.29057(8) 0.64590(7) 0.07116(8)
H94_73 H 0.2911 0.6582 0.0629
C150_73 C 0.27702(7) 0.64468(7) 0.08839(7)
H95_73 H 0.2685 0.6564 0.0915
C151_73 C 0.28774(6) 0.61152(6) 0.09586(6)
H96_73 H 0.2869 0.5995 0.1044
N51_13 N 0.37505(5) 0.59752(5) 0.01547(5)
N52_73 N 0.33953(5) 0.55962(5) 0.06987(5)
N53_73 N 0.31116(5) 0.57594(5) 0.08748(6)
N54_73 N 0.32907(5) 0.59389(5) 0.06020(5)
N55_73 N 0.27562(5) 0.62772(5) 0.10058(5)
C154_13 C 0.35118(6) 0.65478(6) 0.03238(6)
N58_13 N 0.36273(5) 0.64286(5) 0.02456(5)
S10_13 S 0.335199(19) 0.671973(19) 0.041831(19)
C155_25 C 0.53238(6) 0.35118(6) 0.15478(6)
N59_25 N 0.52456(5) 0.36273(5) 0.14286(5)
S11_25 S 0.541831(19) 0.335199(19) 0.171973(19)
C156_25 C 0.46762(6) 0.40478(6) 0.10118(6)
N60_25 N 0.47544(5) 0.39286(5) 0.11273(5)
S12_25 S 0.458169(19) 0.421973(19) 0.085199(19)
N66_25 N 0.51547(5) 0.37505(5) 0.09752(5)
N67_25 N 0.48453(5) 0.34752(5) 0.12505(5)
C138_13 C 0.40478(6) 0.60118(6) 0.96762(6)
N49_13 N 0.39286(5) 0.61273(5) 0.97544(5)
S7_13 S 0.421973(19) 0.585199(19) 0.958169(19)
N68_13 N 0.34752(5) 0.62505(5) 0.98453(5)
C133_74 C 0.92701(7) 0.23987(7) 0.62656(7)
H85_74 H 0.9270 0.2510 0.6363
C134_74 C 0.94533(7) 0.22925(8) 0.62348(8)
H86_74 H 0.9576 0.2331 0.6309
C135_74 C 0.94589(8) 0.21263(7) 0.60922(8)
H87_74 H 0.9583 0.2048 0.6070
C136_74 C 0.92748(6) 0.20818(6) 0.59844(7)
C137_74 C 0.90970(6) 0.21997(6) 0.60254(6)
H88_74 H 0.8973 0.2169 0.5950
C138_14 C 0.84522(6) 0.14882(6) 0.46762(6)
C139_74 C 0.89037(6) 0.15471(6) 0.52968(6)
H89_74 H 0.9002 0.1438 0.5312
C140_74 C 0.89240(6) 0.17235(6) 0.54210(6)
C141_74 C 0.87773(7) 0.18854(7) 0.53988(7)
H90_74 H 0.8785 0.2007 0.5484
C142_74 C 0.86228(8) 0.18636(7) 0.52507(8)
H91_74 H 0.8523 0.1971 0.5229
C143_74 C 0.86146(7) 0.16811(7) 0.51329(7)
H92_74 H 0.8507 0.1668 0.5032
C144_74 C 0.90890(6) 0.17319(6) 0.55820(6)
C145_74 C 0.93540(6) 0.15743(6) 0.57532(6)
C146_74 C 0.92565(6) 0.19012(6) 0.58423(7)
C147_74 C 0.94838(6) 0.13881(6) 0.57901(6)
C148_74 C 0.94700(7) 0.12097(7) 0.56645(7)
H93_74 H 0.9377 0.1205 0.5549
C149_74 C 0.95943(8) 0.10410(7) 0.57116(8)
H94_74 H 0.9589 0.0918 0.5629
C150_74 C 0.97298(7) 0.10532(7) 0.58839(7)
H95_74 H 0.9815 0.0936 0.5915
C151_74 C 0.96226(6) 0.13848(6) 0.59586(6)
H96_74 H 0.9631 0.1505 0.6044
N49_14 N 0.85714(5) 0.13727(5) 0.47544(5)
N51_14 N 0.87495(5) 0.15248(5) 0.51547(5)
N52_74 N 0.91047(5) 0.19038(5) 0.56987(5)
N53_74 N 0.93884(5) 0.17406(5) 0.58748(6)
N54_74 N 0.92093(5) 0.15611(5) 0.56020(5)
N55_74 N 0.97438(5) 0.12228(5) 0.60058(5)
S7_14 S 0.828027(19) 0.164801(19) 0.458169(19)
C154_14 C 0.89882(6) 0.09522(6) 0.53238(6)
N58_14 N 0.88727(5) 0.10714(5) 0.52456(5)
S10_14 S 0.914801(19) 0.078027(19) 0.541831(19)
C155_26 C 0.71762(6) 0.39882(6) 0.65478(6)
N59_26 N 0.72544(5) 0.38727(5) 0.64286(5)
S11_26 S 0.708169(19) 0.414801(19) 0.671973(19)
C156_26 C 0.78238(6) 0.34522(6) 0.60118(6)
N60_26 N 0.77456(5) 0.35714(5) 0.61273(5)
S12_26 S 0.791831(19) 0.328027(19) 0.585199(19)
N66_26 N 0.73453(5) 0.37495(5) 0.59752(5)
N67_26 N 0.76547(5) 0.40248(5) 0.62505(5)
N68_14 N 0.90248(5) 0.12495(5) 0.48453(5)
C133_75 C 0.42701(7) 0.01013(7) 0.12344(7)
C134_75 C 0.44533(7) 0.02075(8) 0.12652(8)
H86_75 H 0.4576 0.0169 0.1191
C135_75 C 0.44589(8) 0.03737(7) 0.14078(8)
H87_75 H 0.4583 0.0452 0.1430
C136_75 C 0.42748(6) 0.04182(6) 0.15156(7)
C137_75 C 0.40970(6) 0.03003(6) 0.14746(6)
H88_75 H 0.3973 0.0331 0.1550
C138_15 C 0.34522(6) 0.10118(6) 0.28238(6)
C139_75 C 0.39037(6) 0.09529(6) 0.22032(6)
H89_75 H 0.4002 0.1062 0.2188
C140_75 C 0.39240(6) 0.07765(6) 0.20790(6)
C141_75 C 0.37773(7) 0.06146(7) 0.21012(7)
H90_75 H 0.3785 0.0493 0.2016
C142_75 C 0.36228(8) 0.06364(7) 0.22493(8)
H91_75 H 0.3523 0.0529 0.2271
C143_75 C 0.36146(7) 0.08189(7) 0.23671(7)
H92_75 H 0.3507 0.0832 0.2468
C144_75 C 0.40890(6) 0.07681(6) 0.19180(6)
C145_75 C 0.43540(6) 0.09257(6) 0.17468(6)
C146_75 C 0.42565(6) 0.05988(6) 0.16577(7)
C147_75 C 0.44838(6) 0.11119(6) 0.17099(6)
C148_75 C 0.44700(7) 0.12903(7) 0.18355(7)
H93_75 H 0.4377 0.1295 0.1951
C149_75 C 0.45943(8) 0.14590(7) 0.17884(8)
H94_75 H 0.4589 0.1582 0.1871
C150_75 C 0.47298(7) 0.14468(7) 0.16161(7)
H95_75 H 0.4815 0.1564 0.1585
C151_75 C 0.46226(6) 0.11152(6) 0.15414(6)
H96_75 H 0.4631 0.0995 0.1456
N49_15 N 0.35714(5) 0.11273(5) 0.27456(5)
N51_15 N 0.37495(5) 0.09752(5) 0.23453(5)
N52_75 N 0.41047(5) 0.05962(5) 0.18013(5)
N53_75 N 0.43884(5) 0.07594(5) 0.16252(6)
N54_75 N 0.42093(5) 0.09389(5) 0.18980(5)
N55_75 N 0.47438(5) 0.12772(5) 0.14942(5)
S7_15 S 0.328027(19) 0.085199(19) 0.291831(19)
C154_15 C 0.39882(6) 0.15478(6) 0.21762(6)
N58_15 N 0.38727(5) 0.14286(5) 0.22544(5)
S10_15 S 0.414801(19) 0.171973(19) 0.208169(19)
N68_15 N 0.40248(5) 0.12505(5) 0.26547(5)
H85_75 H 0.4270 0.9990 0.1137
C155_27 C 0.21762(6) 0.85118(6) 0.09522(6)
N59_27 N 0.22544(5) 0.86273(5) 0.10714(5)
S11_27 S 0.208169(19) 0.835199(19) 0.078027(19)
C156_27 C 0.28238(6) 0.90478(6) 0.14882(6)
N60_27 N 0.27456(5) 0.89286(5) 0.13727(5)
S12_27 S 0.291831(19) 0.921973(19) 0.164801(19)
N66_27 N 0.23453(5) 0.87505(5) 0.15248(5)
N67_27 N 0.26547(5) 0.84752(5) 0.12495(5)
C155_28 C 0.03238(6) 0.89882(6) 0.59522(6)
N59_28 N 0.02456(5) 0.88727(5) 0.60714(5)
S11_28 S 0.041831(19) 0.914801(19) 0.578027(19)
N66_28 N 0.01547(5) 0.87495(5) 0.65248(5)
C133_76 C 0.82299(7) 0.73987(7) 0.62344(7)
H85_76 H 0.8230 0.7510 0.6137
C134_76 C 0.80467(7) 0.72925(8) 0.62652(8)
H86_76 H 0.7924 0.7331 0.6191
C135_76 C 0.80411(8) 0.71263(7) 0.64078(8)
H87_76 H 0.7917 0.7048 0.6430
C136_76 C 0.82252(6) 0.70818(6) 0.65156(7)
C137_76 C 0.84030(6) 0.71997(6) 0.64746(6)
H88_76 H 0.8527 0.7169 0.6550
C138_16 C 0.90478(6) 0.64882(6) 0.78238(6)
C139_76 C 0.85963(6) 0.65471(6) 0.72032(6)
H89_76 H 0.8498 0.6438 0.7188
C140_76 C 0.85760(6) 0.67235(6) 0.70790(6)
C141_76 C 0.87227(7) 0.68854(7) 0.71012(7)
H90_76 H 0.8715 0.7007 0.7016
C142_76 C 0.88772(8) 0.68636(7) 0.72493(8)
H91_76 H 0.8977 0.6971 0.7271
C143_76 C 0.88854(7) 0.66811(7) 0.73671(7)
H92_76 H 0.8993 0.6668 0.7468
C144_76 C 0.84110(6) 0.67319(6) 0.69180(6)
C145_76 C 0.81460(6) 0.65743(6) 0.67468(6)
C146_76 C 0.82435(6) 0.69012(6) 0.66577(7)
C147_76 C 0.80162(6) 0.63881(6) 0.67099(6)
C148_76 C 0.80300(7) 0.62097(7) 0.68355(7)
H93_76 H 0.8123 0.6205 0.6951
C149_76 C 0.79057(8) 0.60410(7) 0.67884(8)
H94_76 H 0.7911 0.5918 0.6871
C150_76 C 0.77702(7) 0.60532(7) 0.66161(7)
H95_76 H 0.7685 0.5936 0.6585
C151_76 C 0.78774(6) 0.63848(6) 0.65414(6)
H96_76 H 0.7869 0.6505 0.6456
N49_16 N 0.89286(5) 0.63727(5) 0.77456(5)
N51_16 N 0.87505(5) 0.65248(5) 0.73453(5)
N52_76 N 0.83953(5) 0.69038(5) 0.68013(5)
N53_76 N 0.81116(5) 0.67406(5) 0.66252(6)
N54_76 N 0.82907(5) 0.65611(5) 0.68980(5)
N55_76 N 0.77562(5) 0.62228(5) 0.64942(5)
S7_16 S 0.921973(19) 0.664801(19) 0.791831(19)
C154_16 C 0.85118(6) 0.59522(6) 0.71762(6)
N58_16 N 0.86273(5) 0.60714(5) 0.72544(5)
S10_16 S 0.835199(19) 0.578027(19) 0.708169(19)
C156_28 C 0.96762(6) 0.84522(6) 0.64882(6)
N60_28 N 0.97544(5) 0.85714(5) 0.63727(5)
S12_28 S 0.958169(19) 0.828027(19) 0.664801(19)
N67_28 N 0.98453(5) 0.90248(5) 0.62495(5)
N68_16 N 0.84752(5) 0.62495(5) 0.76547(5)
C133_77 C 0.62656(7) 0.32299(7) 0.01013(7)
C134_77 C 0.62348(8) 0.30467(7) 0.02075(8)
H86_77 H 0.6309 0.2924 0.0169
C135_77 C 0.60922(8) 0.30411(8) 0.03737(7)
H87_77 H 0.6070 0.2917 0.0452
C136_77 C 0.59844(7) 0.32252(6) 0.04182(6)
C137_77 C 0.60254(6) 0.34030(6) 0.03003(6)
H88_77 H 0.5950 0.3527 0.0331
C139_77 C 0.52968(6) 0.35963(6) 0.09529(6)
H89_77 H 0.5312 0.3498 0.1062
C140_77 C 0.54210(6) 0.35760(6) 0.07765(6)
C141_77 C 0.53988(7) 0.37227(7) 0.06146(7)
H90_77 H 0.5484 0.3715 0.0493
C142_77 C 0.52507(8) 0.38772(8) 0.06364(7)
H91_77 H 0.5229 0.3977 0.0529
C143_77 C 0.51329(7) 0.38854(7) 0.08189(7)
H92_77 H 0.5032 0.3993 0.0832
C144_77 C 0.55820(6) 0.34110(6) 0.07681(6)
C145_77 C 0.57532(6) 0.31460(6) 0.09257(6)
C146_77 C 0.58423(7) 0.32435(6) 0.05988(6)
C147_77 C 0.57901(6) 0.30162(6) 0.11119(6)
C148_77 C 0.56645(7) 0.30300(7) 0.12903(7)
H93_77 H 0.5549 0.3123 0.1295
C149_77 C 0.57116(8) 0.29057(8) 0.14590(7)
H94_77 H 0.5629 0.2911 0.1582
C150_77 C 0.58839(7) 0.27702(7) 0.14468(7)
H95_77 H 0.5915 0.2685 0.1564
C151_77 C 0.59586(6) 0.28774(6) 0.11152(6)
H96_77 H 0.6044 0.2869 0.0995
N52_77 N 0.56987(5) 0.33953(5) 0.05962(5)
N53_77 N 0.58748(6) 0.31116(5) 0.07594(5)
N54_77 N 0.56020(5) 0.32907(5) 0.09389(5)
N55_77 N 0.60058(5) 0.27562(5) 0.12772(5)
H85_77 H 0.6363 0.3230 0.9990
C155_29 C 0.65478(6) 0.53238(6) 0.85118(6)
N59_29 N 0.64286(5) 0.52456(5) 0.86273(5)
S11_29 S 0.671973(19) 0.541831(19) 0.835199(19)
C156_29 C 0.60118(6) 0.46762(6) 0.90478(6)
N60_29 N 0.61273(5) 0.47544(5) 0.89286(5)
S12_29 S 0.585199(19) 0.458169(19) 0.921973(19)
N66_29 N 0.59752(5) 0.51547(5) 0.87505(5)
N67_29 N 0.62505(5) 0.48453(5) 0.84752(5)
C133_78 C 0.12656(7) 0.92701(7) 0.73987(7)
H85_78 H 0.1363 0.9270 0.7510
C134_78 C 0.12348(8) 0.94533(7) 0.72925(8)
H86_78 H 0.1309 0.9576 0.7331
C135_78 C 0.10922(8) 0.94589(8) 0.71263(7)
H87_78 H 0.1070 0.9583 0.7048
C136_78 C 0.09844(7) 0.92748(6) 0.70818(6)
C137_78 C 0.10254(6) 0.90970(6) 0.71997(6)
H88_78 H 0.0950 0.8973 0.7169
C139_78 C 0.02968(6) 0.89037(6) 0.65471(6)
H89_78 H 0.0312 0.9002 0.6438
C140_78 C 0.04210(6) 0.89240(6) 0.67235(6)
C141_78 C 0.03988(7) 0.87773(7) 0.68854(7)
H90_78 H 0.0484 0.8785 0.7007
C142_78 C 0.02507(8) 0.86228(8) 0.68636(7)
H91_78 H 0.0229 0.8523 0.6971
C143_78 C 0.01329(7) 0.86146(7) 0.66811(7)
H92_78 H 0.0032 0.8507 0.6668
C144_78 C 0.05820(6) 0.90890(6) 0.67319(6)
C145_78 C 0.07532(6) 0.93540(6) 0.65743(6)
C146_78 C 0.08423(7) 0.92565(6) 0.69012(6)
C147_78 C 0.07901(6) 0.94838(6) 0.63881(6)
C148_78 C 0.06645(7) 0.94700(7) 0.62097(7)
H93_78 H 0.0549 0.9377 0.6205
C149_78 C 0.07116(8) 0.95943(8) 0.60410(7)
H94_78 H 0.0629 0.9589 0.5918
C150_78 C 0.08839(7) 0.97298(7) 0.60532(7)
H95_78 H 0.0915 0.9815 0.5936
C151_78 C 0.09586(6) 0.96226(6) 0.63848(6)
H96_78 H 0.1044 0.9631 0.6505
N52_78 N 0.06987(5) 0.91047(5) 0.69038(5)
N53_78 N 0.08748(6) 0.93884(5) 0.67406(5)
N54_78 N 0.06020(5) 0.92093(5) 0.65611(5)
N55_78 N 0.10058(5) 0.97438(5) 0.62228(5)
C155_30 C 0.15478(6) 0.71762(6) 0.89882(6)
N59_30 N 0.14286(5) 0.72544(5) 0.88727(5)
S11_30 S 0.171973(19) 0.708169(19) 0.914801(19)
C156_30 C 0.10118(6) 0.78238(6) 0.84522(6)
N60_30 N 0.11273(5) 0.77456(5) 0.85714(5)
S12_30 S 0.085199(19) 0.791831(19) 0.828027(19)
N66_30 N 0.09752(5) 0.73453(5) 0.87495(5)
N67_30 N 0.12505(5) 0.76547(5) 0.90248(5)
C133_79 C 0.62344(7) 0.42701(7) 0.51013(7)
H85_79 H 0.6137 0.4270 0.4990
C134_79 C 0.62652(8) 0.44533(7) 0.52075(8)
H86_79 H 0.6191 0.4576 0.5169
C135_79 C 0.64078(8) 0.44589(8) 0.53737(7)
H87_79 H 0.6430 0.4583 0.5452
C136_79 C 0.65156(7) 0.42748(6) 0.54182(6)
C137_79 C 0.64746(6) 0.40970(6) 0.53003(6)
H88_79 H 0.6550 0.3973 0.5331
C139_79 C 0.72032(6) 0.39037(6) 0.59529(6)
H89_79 H 0.7188 0.4002 0.6062
C140_79 C 0.70790(6) 0.39240(6) 0.57765(6)
C141_79 C 0.71012(7) 0.37773(7) 0.56146(7)
H90_79 H 0.7016 0.3785 0.5493
C142_79 C 0.72493(8) 0.36228(8) 0.56364(7)
H91_79 H 0.7271 0.3523 0.5529
C143_79 C 0.73671(7) 0.36146(7) 0.58189(7)
H92_79 H 0.7468 0.3507 0.5832
C144_79 C 0.69180(6) 0.40890(6) 0.57681(6)
C145_79 C 0.67468(6) 0.43540(6) 0.59257(6)
C146_79 C 0.66577(7) 0.42565(6) 0.55988(6)
C147_79 C 0.67099(6) 0.44838(6) 0.61119(6)
C148_79 C 0.68355(7) 0.44700(7) 0.62903(7)
H93_79 H 0.6951 0.4377 0.6295
C149_79 C 0.67884(8) 0.45943(8) 0.64590(7)
H94_79 H 0.6871 0.4589 0.6582
C150_79 C 0.66161(7) 0.47298(7) 0.64468(7)
H95_79 H 0.6585 0.4815 0.6564
C151_79 C 0.65414(6) 0.46226(6) 0.61152(6)
H96_79 H 0.6456 0.4631 0.5995
N52_79 N 0.68013(5) 0.41047(5) 0.55962(5)
N53_79 N 0.66252(6) 0.43884(5) 0.57594(5)
N54_79 N 0.68980(5) 0.42093(5) 0.59389(5)
N55_79 N 0.64942(5) 0.47438(5) 0.62772(5)
C155_31 C 0.59522(6) 0.21762(6) 0.35118(6)
N59_31 N 0.60714(5) 0.22544(5) 0.36273(5)
S11_31 S 0.578027(19) 0.208169(19) 0.335199(19)
C156_31 C 0.64882(6) 0.28238(6) 0.40478(6)
N60_31 N 0.63727(5) 0.27456(5) 0.39286(5)
S12_31 S 0.664801(19) 0.291831(19) 0.421973(19)
N66_31 N 0.65248(5) 0.23453(5) 0.37505(5)
N67_31 N 0.62495(5) 0.26547(5) 0.34752(5)
C155_32 C 0.09522(6) 0.03238(6) 0.39882(6)
N59_32 N 0.10714(5) 0.02456(5) 0.38727(5)
S11_32 S 0.078027(19) 0.041831(19) 0.414801(19)
N66_32 N 0.15248(5) 0.01547(5) 0.37495(5)
C133_80 C 0.12344(7) 0.82299(7) 0.23987(7)
H85_80 H 0.1137 0.8230 0.2510
C134_80 C 0.12652(8) 0.80467(7) 0.22925(8)
H86_80 H 0.1191 0.7924 0.2331
C135_80 C 0.14078(8) 0.80411(8) 0.21263(7)
H87_80 H 0.1430 0.7917 0.2048
C136_80 C 0.15156(7) 0.82252(6) 0.20818(6)
C137_80 C 0.14746(6) 0.84030(6) 0.21997(6)
H88_80 H 0.1550 0.8527 0.2169
C139_80 C 0.22032(6) 0.85963(6) 0.15471(6)
H89_80 H 0.2188 0.8498 0.1438
C140_80 C 0.20790(6) 0.85760(6) 0.17235(6)
C141_80 C 0.21012(7) 0.87227(7) 0.18854(7)
H90_80 H 0.2016 0.8715 0.2007
C142_80 C 0.22493(8) 0.88772(8) 0.18636(7)
H91_80 H 0.2271 0.8977 0.1971
C143_80 C 0.23671(7) 0.88854(7) 0.16811(7)
H92_80 H 0.2468 0.8993 0.1668
C144_80 C 0.19180(6) 0.84110(6) 0.17319(6)
C145_80 C 0.17468(6) 0.81460(6) 0.15743(6)
C146_80 C 0.16577(7) 0.82435(6) 0.19012(6)
C147_80 C 0.17099(6) 0.80162(6) 0.13881(6)
C148_80 C 0.18355(7) 0.80300(7) 0.12097(7)
H93_80 H 0.1951 0.8123 0.1205
C149_80 C 0.17884(8) 0.79057(8) 0.10410(7)
H94_80 H 0.1871 0.7911 0.0918
C150_80 C 0.16161(7) 0.77702(7) 0.10532(7)
H95_80 H 0.1585 0.7685 0.0936
C151_80 C 0.15414(6) 0.78774(6) 0.13848(6)
H96_80 H 0.1456 0.7869 0.1505
N52_80 N 0.18013(5) 0.83953(5) 0.19038(5)
N53_80 N 0.16252(6) 0.81116(5) 0.17406(5)
N54_80 N 0.18980(5) 0.82907(5) 0.15611(5)
N55_80 N 0.14942(5) 0.77562(5) 0.12228(5)
C156_32 C 0.14882(6) 0.96762(6) 0.34522(6)
N60_32 N 0.13727(5) 0.97544(5) 0.35714(5)
S12_32 S 0.164801(19) 0.958169(19) 0.328027(19)
N67_32 N 0.12495(5) 0.98453(5) 0.40248(5)
C133_81 C 0.51013(7) 0.62656(7) 0.82299(7)
H85_81 H 0.4990 0.6363 0.8230
C134_81 C 0.52075(8) 0.62348(8) 0.80467(7)
H86_81 H 0.5169 0.6309 0.7924
C135_81 C 0.53737(7) 0.60922(8) 0.80411(8)
H87_81 H 0.5452 0.6070 0.7917
C136_81 C 0.54182(6) 0.59844(7) 0.82252(6)
C137_81 C 0.53003(6) 0.60254(6) 0.84030(6)
H88_81 H 0.5331 0.5950 0.8527
C139_81 C 0.59529(6) 0.52968(6) 0.85963(6)
H89_81 H 0.6062 0.5312 0.8498
C140_81 C 0.57765(6) 0.54210(6) 0.85760(6)
C141_81 C 0.56146(7) 0.53988(7) 0.87227(7)
H90_81 H 0.5493 0.5484 0.8715
C142_81 C 0.56364(7) 0.52507(8) 0.88772(8)
H91_81 H 0.5529 0.5229 0.8977
C143_81 C 0.58189(7) 0.51329(7) 0.88854(7)
H92_81 H 0.5832 0.5032 0.8993
C144_81 C 0.57681(6) 0.55820(6) 0.84110(6)
C145_81 C 0.59257(6) 0.57532(6) 0.81460(6)
C146_81 C 0.55988(6) 0.58423(7) 0.82435(6)
C147_81 C 0.61119(6) 0.57901(6) 0.80162(6)
C148_81 C 0.62903(7) 0.56645(7) 0.80300(7)
H93_81 H 0.6295 0.5549 0.8123
C149_81 C 0.64590(7) 0.57116(8) 0.79057(8)
H94_81 H 0.6582 0.5629 0.7911
C150_81 C 0.64468(7) 0.58839(7) 0.77702(7)
H95_81 H 0.6564 0.5915 0.7685
C151_81 C 0.61152(6) 0.59586(6) 0.78774(6)
H96_81 H 0.5995 0.6044 0.7869
N52_81 N 0.55962(5) 0.56987(5) 0.83953(5)
N53_81 N 0.57594(5) 0.58748(6) 0.81116(5)
N54_81 N 0.59389(5) 0.56020(5) 0.82907(5)
N55_81 N 0.62772(5) 0.60058(5) 0.77562(5)
C133_82 C 0.23987(7) 0.12656(7) 0.42701(7)
H85_82 H 0.2510 0.1363 0.4270
C134_82 C 0.22925(8) 0.12348(8) 0.44533(7)
H86_82 H 0.2331 0.1309 0.4576
C135_82 C 0.21263(7) 0.10922(8) 0.44589(8)
H87_82 H 0.2048 0.1070 0.4583
C136_82 C 0.20818(6) 0.09844(7) 0.42748(6)
C137_82 C 0.21997(6) 0.10254(6) 0.40970(6)
H88_82 H 0.2169 0.0950 0.3973
C139_82 C 0.15471(6) 0.02968(6) 0.39037(6)
H89_82 H 0.1438 0.0312 0.4002
C140_82 C 0.17235(6) 0.04210(6) 0.39240(6)
C141_82 C 0.18854(7) 0.03988(7) 0.37773(7)
H90_82 H 0.2007 0.0484 0.3785
C142_82 C 0.18636(7) 0.02507(8) 0.36228(8)
H91_82 H 0.1971 0.0229 0.3523
C143_82 C 0.16811(7) 0.01329(7) 0.36146(7)
H92_82 H 0.1668 0.0032 0.3507
C144_82 C 0.17319(6) 0.05820(6) 0.40890(6)
C145_82 C 0.15743(6) 0.07532(6) 0.43540(6)
C146_82 C 0.19012(6) 0.08423(7) 0.42565(6)
C147_82 C 0.13881(6) 0.07901(6) 0.44838(6)
C148_82 C 0.12097(7) 0.06645(7) 0.44700(7)
H93_82 H 0.1205 0.0549 0.4377
C149_82 C 0.10410(7) 0.07116(8) 0.45943(8)
H94_82 H 0.0918 0.0629 0.4589
C150_82 C 0.10532(7) 0.08839(7) 0.47298(7)
H95_82 H 0.0936 0.0915 0.4815
C151_82 C 0.13848(6) 0.09586(6) 0.46226(6)
H96_82 H 0.1505 0.1044 0.4631
N52_82 N 0.19038(5) 0.06987(5) 0.41047(5)
N53_82 N 0.17406(5) 0.08748(6) 0.43884(5)
N54_82 N 0.15611(5) 0.06020(5) 0.42093(5)
N55_82 N 0.12228(5) 0.10058(5) 0.47438(5)
C133_83 C 0.01013(7) 0.62344(7) 0.92701(7)
C134_83 C 0.02075(8) 0.62652(8) 0.94533(7)
H86_83 H 0.0169 0.6191 0.9576
C135_83 C 0.03737(7) 0.64078(8) 0.94589(8)
H87_83 H 0.0452 0.6430 0.9583
C136_83 C 0.04182(6) 0.65156(7) 0.92748(6)
C137_83 C 0.03003(6) 0.64746(6) 0.90970(6)
H88_83 H 0.0331 0.6550 0.8973
C139_83 C 0.09529(6) 0.72032(6) 0.89037(6)
H89_83 H 0.1062 0.7188 0.9002
C140_83 C 0.07765(6) 0.70790(6) 0.89240(6)
C141_83 C 0.06146(7) 0.71012(7) 0.87773(7)
H90_83 H 0.0493 0.7016 0.8785
C142_83 C 0.06364(7) 0.72493(8) 0.86228(8)
H91_83 H 0.0529 0.7271 0.8523
C143_83 C 0.08189(7) 0.73671(7) 0.86146(7)
H92_83 H 0.0832 0.7468 0.8507
C144_83 C 0.07681(6) 0.69180(6) 0.90890(6)
C145_83 C 0.09257(6) 0.67468(6) 0.93540(6)
C146_83 C 0.05988(6) 0.66577(7) 0.92565(6)
C147_83 C 0.11119(6) 0.67099(6) 0.94838(6)
C148_83 C 0.12903(7) 0.68355(7) 0.94700(7)
H93_83 H 0.1295 0.6951 0.9377
C149_83 C 0.14590(7) 0.67884(8) 0.95943(8)
H94_83 H 0.1582 0.6871 0.9589
C150_83 C 0.14468(7) 0.66161(7) 0.97298(7)
H95_83 H 0.1564 0.6585 0.9815
C151_83 C 0.11152(6) 0.65414(6) 0.96226(6)
H96_83 H 0.0995 0.6456 0.9631
N52_83 N 0.05962(5) 0.68013(5) 0.91047(5)
N53_83 N 0.07594(5) 0.66252(6) 0.93884(5)
N54_83 N 0.09389(5) 0.68980(5) 0.92093(5)
N55_83 N 0.12772(5) 0.64942(5) 0.97438(5)
H85_83 H 0.9990 0.6137 0.9270
C133_84 C 0.73987(7) 0.12344(7) 0.32299(7)
H85_84 H 0.7510 0.1137 0.3230
C134_84 C 0.72925(8) 0.12652(8) 0.30467(7)
H86_84 H 0.7331 0.1191 0.2924
C135_84 C 0.71263(7) 0.14078(8) 0.30411(8)
H87_84 H 0.7048 0.1430 0.2917
C136_84 C 0.70818(6) 0.15156(7) 0.32252(6)
C137_84 C 0.71997(6) 0.14746(6) 0.34030(6)
H88_84 H 0.7169 0.1550 0.3527
C139_84 C 0.65471(6) 0.22032(6) 0.35963(6)
H89_84 H 0.6438 0.2188 0.3498
C140_84 C 0.67235(6) 0.20790(6) 0.35760(6)
C141_84 C 0.68854(7) 0.21012(7) 0.37227(7)
H90_84 H 0.7007 0.2016 0.3715
C142_84 C 0.68636(7) 0.22493(8) 0.38772(8)
H91_84 H 0.6971 0.2271 0.3977
C143_84 C 0.66811(7) 0.23671(7) 0.38854(7)
H92_84 H 0.6668 0.2468 0.3993
C144_84 C 0.67319(6) 0.19180(6) 0.34110(6)
C145_84 C 0.65743(6) 0.17468(6) 0.31460(6)
C146_84 C 0.69012(6) 0.16577(7) 0.32435(6)
C147_84 C 0.63881(6) 0.17099(6) 0.30162(6)
C148_84 C 0.62097(7) 0.18355(7) 0.30300(7)
H93_84 H 0.6205 0.1951 0.3123
C149_84 C 0.60410(7) 0.17884(8) 0.29057(8)
H94_84 H 0.5918 0.1871 0.2911
C150_84 C 0.60532(7) 0.16161(7) 0.27702(7)
H95_84 H 0.5936 0.1585 0.2685
C151_84 C 0.63848(6) 0.15414(6) 0.28774(6)
H96_84 H 0.6505 0.1456 0.2869
N52_84 N 0.69038(5) 0.18013(5) 0.33953(5)
N53_84 N 0.67406(5) 0.16252(6) 0.31116(5)
N54_84 N 0.65611(5) 0.18980(5) 0.32907(5)
N55_84 N 0.62228(5) 0.14942(5) 0.27562(5)
C133_85 C 0.26013(7) 0.57299(7) 0.87344(7)
H85_85 H 0.2490 0.5730 0.8637
C134_85 C 0.27075(8) 0.55467(7) 0.87652(8)
H86_85 H 0.2669 0.5424 0.8691
C135_85 C 0.28737(7) 0.55411(8) 0.89078(8)
H87_85 H 0.2952 0.5417 0.8930
C136_85 C 0.29182(6) 0.57252(6) 0.90156(7)
C137_85 C 0.28003(6) 0.59030(6) 0.89746(6)
H88_85 H 0.2831 0.6027 0.9050
C139_85 C 0.34529(6) 0.60963(6) 0.97032(6)
H89_85 H 0.3562 0.5998 0.9688
C140_85 C 0.32765(6) 0.60760(6) 0.95790(6)
C141_85 C 0.31146(7) 0.62227(7) 0.96012(7)
H90_85 H 0.2993 0.6215 0.9516
C142_85 C 0.31364(7) 0.63772(8) 0.97493(8)
H91_85 H 0.3029 0.6477 0.9771
C143_85 C 0.33189(7) 0.63854(7) 0.98671(7)
H92_85 H 0.3332 0.6493 0.9968
C144_85 C 0.32681(6) 0.59110(6) 0.94180(6)
C145_85 C 0.34257(6) 0.56460(6) 0.92468(6)
C146_85 C 0.30988(6) 0.57435(6) 0.91577(7)
C147_85 C 0.36119(6) 0.55162(6) 0.92099(6)
C148_85 C 0.37903(7) 0.55300(7) 0.93355(7)
H93_85 H 0.3795 0.5623 0.9451
C149_85 C 0.39590(7) 0.54057(8) 0.92884(8)
H94_85 H 0.4082 0.5411 0.9371
C150_85 C 0.39468(7) 0.52702(7) 0.91161(7)
H95_85 H 0.4064 0.5185 0.9085
C151_85 C 0.36152(6) 0.53774(6) 0.90414(6)
H96_85 H 0.3495 0.5369 0.8956
N52_85 N 0.30962(5) 0.58953(5) 0.93013(5)
N53_85 N 0.32594(5) 0.56116(5) 0.91252(6)
N54_85 N 0.34389(5) 0.57907(5) 0.93980(5)
N55_85 N 0.37772(5) 0.52562(5) 0.89942(5)
H85_86 H 0.0010 0.1770 0.3637
C133_86 C 0.98987(7) 0.17701(7) 0.37344(7)
C134_86 C 0.97925(8) 0.19533(7) 0.37652(8)
H86_86 H 0.9831 0.2076 0.3691
C135_86 C 0.96263(7) 0.19589(8) 0.39078(8)
H87_86 H 0.9548 0.2083 0.3930
C136_86 C 0.95818(6) 0.17748(6) 0.40156(7)
C137_86 C 0.96997(6) 0.15970(6) 0.39746(6)
H88_86 H 0.9669 0.1473 0.4050
C139_86 C 0.90471(6) 0.14037(6) 0.47032(6)
H89_86 H 0.8938 0.1502 0.4688
C140_86 C 0.92235(6) 0.14240(6) 0.45790(6)
C141_86 C 0.93854(7) 0.12773(7) 0.46012(7)
H90_86 H 0.9507 0.1285 0.4516
C142_86 C 0.93636(7) 0.11228(8) 0.47493(8)
H91_86 H 0.9471 0.1023 0.4771
C143_86 C 0.91811(7) 0.11146(7) 0.48671(7)
H92_86 H 0.9168 0.1007 0.4968
C144_86 C 0.92319(6) 0.15890(6) 0.44180(6)
C145_86 C 0.90743(6) 0.18540(6) 0.42468(6)
C146_86 C 0.94012(6) 0.17565(6) 0.41577(7)
C147_86 C 0.88881(6) 0.19838(6) 0.42099(6)
C148_86 C 0.87097(7) 0.19700(7) 0.43355(7)
H93_86 H 0.8705 0.1877 0.4451
C149_86 C 0.85410(7) 0.20943(8) 0.42884(8)
H94_86 H 0.8418 0.2089 0.4371
C150_86 C 0.85532(7) 0.22298(7) 0.41161(7)
H95_86 H 0.8436 0.2315 0.4085
C151_86 C 0.88848(6) 0.21226(6) 0.40414(6)
H96_86 H 0.9005 0.2131 0.3956
N52_86 N 0.94038(5) 0.16047(5) 0.43013(5)
N53_86 N 0.92406(5) 0.18884(5) 0.41252(6)
N54_86 N 0.90611(5) 0.17093(5) 0.43980(5)
N55_86 N 0.87228(5) 0.22438(5) 0.39942(5)
C133_87 C 0.76013(7) 0.67701(7) 0.87656(7)
H85_87 H 0.7490 0.6770 0.8863
C134_87 C 0.77075(8) 0.69533(7) 0.87348(8)
H86_87 H 0.7669 0.7076 0.8809
C135_87 C 0.78737(7) 0.69589(8) 0.85922(8)
H87_87 H 0.7952 0.7083 0.8570
C136_87 C 0.79182(6) 0.67748(6) 0.84844(7)
C137_87 C 0.78003(6) 0.65970(6) 0.85254(6)
H88_87 H 0.7831 0.6473 0.8450
C139_87 C 0.84529(6) 0.64037(6) 0.77968(6)
H89_87 H 0.8562 0.6502 0.7812
C140_87 C 0.82765(6) 0.64240(6) 0.79210(6)
C141_87 C 0.81146(7) 0.62773(7) 0.78988(7)
H90_87 H 0.7993 0.6285 0.7984
C142_87 C 0.81364(7) 0.61228(8) 0.77507(8)
H91_87 H 0.8029 0.6023 0.7729
C143_87 C 0.83189(7) 0.61146(7) 0.76329(7)
H92_87 H 0.8332 0.6007 0.7532
C144_87 C 0.82681(6) 0.65890(6) 0.80820(6)
C145_87 C 0.84257(6) 0.68540(6) 0.82532(6)
C146_87 C 0.80988(6) 0.67565(6) 0.83423(7)
C147_87 C 0.86119(6) 0.69838(6) 0.82901(6)
C148_87 C 0.87903(7) 0.69700(7) 0.81645(7)
H93_87 H 0.8795 0.6877 0.8049
C149_87 C 0.89590(7) 0.70943(8) 0.82116(8)
H94_87 H 0.9082 0.7089 0.8129
C150_87 C 0.89468(7) 0.72298(7) 0.83839(7)
H95_87 H 0.9064 0.7315 0.8415
C151_87 C 0.86152(6) 0.71226(6) 0.84586(6)
H96_87 H 0.8495 0.7131 0.8544
N52_87 N 0.80962(5) 0.66047(5) 0.81987(5)
N53_87 N 0.82594(5) 0.68884(5) 0.83748(6)
N54_87 N 0.84389(5) 0.67093(5) 0.81020(5)
N55_87 N 0.87772(5) 0.72438(5) 0.85058(5)
C133_88 C 0.48987(7) 0.07299(7) 0.37656(7)
H85_88 H 0.5010 0.0730 0.3863
C134_88 C 0.47925(8) 0.05467(7) 0.37348(8)
H86_88 H 0.4831 0.0424 0.3809
C135_88 C 0.46263(7) 0.05411(8) 0.35922(8)
H87_88 H 0.4548 0.0417 0.3570
C136_88 C 0.45818(6) 0.07252(6) 0.34844(7)
C137_88 C 0.46997(6) 0.09030(6) 0.35254(6)
H88_88 H 0.4669 0.1027 0.3450
C139_88 C 0.40471(6) 0.10963(6) 0.27968(6)
H89_88 H 0.3938 0.0998 0.2812
C140_88 C 0.42235(6) 0.10760(6) 0.29210(6)
C141_88 C 0.43854(7) 0.12227(7) 0.28988(7)
H90_88 H 0.4507 0.1215 0.2984
C142_88 C 0.43636(7) 0.13772(8) 0.27507(8)
H91_88 H 0.4471 0.1477 0.2729
C143_88 C 0.41811(7) 0.13854(7) 0.26329(7)
H92_88 H 0.4168 0.1493 0.2532
C144_88 C 0.42319(6) 0.09110(6) 0.30820(6)
C145_88 C 0.40743(6) 0.06460(6) 0.32532(6)
C146_88 C 0.44012(6) 0.07435(6) 0.33423(7)
C147_88 C 0.38881(6) 0.05162(6) 0.32901(6)
C148_88 C 0.37097(7) 0.05300(7) 0.31645(7)
H93_88 H 0.3705 0.0623 0.3049
C149_88 C 0.35410(7) 0.04057(8) 0.32116(8)
H94_88 H 0.3418 0.0411 0.3129
C150_88 C 0.35532(7) 0.02702(7) 0.33839(7)
H95_88 H 0.3436 0.0185 0.3415
C151_88 C 0.38848(6) 0.03774(6) 0.34586(6)
H96_88 H 0.4005 0.0369 0.3544
N52_88 N 0.44038(5) 0.08953(5) 0.31987(5)
N53_88 N 0.42406(5) 0.06116(5) 0.33748(6)
N54_88 N 0.40611(5) 0.07907(5) 0.31020(5)
N55_88 N 0.37228(5) 0.02562(5) 0.35058(5)
H85_89 H 0.0730 0.8863 0.0010
C133_89 C 0.07299(7) 0.87656(7) 0.98987(7)
C134_89 C 0.05467(7) 0.87348(8) 0.97925(8)
H86_89 H 0.0424 0.8809 0.9831
C135_89 C 0.05411(8) 0.85922(8) 0.96263(7)
H87_89 H 0.0417 0.8570 0.9548
C136_89 C 0.07252(6) 0.84844(7) 0.95818(6)
C137_89 C 0.09030(6) 0.85254(6) 0.96997(6)
H88_89 H 0.1027 0.8450 0.9669
C139_89 C 0.10963(6) 0.77968(6) 0.90471(6)
H89_89 H 0.0998 0.7812 0.8938
C140_89 C 0.10760(6) 0.79210(6) 0.92235(6)
C141_89 C 0.12227(7) 0.78988(7) 0.93854(7)
H90_89 H 0.1215 0.7984 0.9507
C142_89 C 0.13772(8) 0.77507(8) 0.93636(7)
H91_89 H 0.1477 0.7729 0.9471
C143_89 C 0.13854(7) 0.76329(7) 0.91811(7)
H92_89 H 0.1493 0.7532 0.9168
C144_89 C 0.09110(6) 0.80820(6) 0.92319(6)
C145_89 C 0.06460(6) 0.82532(6) 0.90743(6)
C146_89 C 0.07435(6) 0.83423(7) 0.94012(6)
C147_89 C 0.05162(6) 0.82901(6) 0.88881(6)
C148_89 C 0.05300(7) 0.81645(7) 0.87097(7)
H93_89 H 0.0623 0.8049 0.8705
C149_89 C 0.04057(8) 0.82116(8) 0.85410(7)
H94_89 H 0.0411 0.8129 0.8418
C150_89 C 0.02702(7) 0.83839(7) 0.85532(7)
H95_89 H 0.0185 0.8415 0.8436
C151_89 C 0.03774(6) 0.84586(6) 0.88848(6)
H96_89 H 0.0369 0.8544 0.9005
N52_89 N 0.08953(5) 0.81987(5) 0.94038(5)
N53_89 N 0.06116(5) 0.83748(6) 0.92406(5)
N54_89 N 0.07907(5) 0.81020(5) 0.90611(5)
N55_89 N 0.02562(5) 0.85058(5) 0.87228(5)
C133_90 C 0.67701(7) 0.37656(7) 0.26013(7)
H85_90 H 0.6770 0.3863 0.2490
C134_90 C 0.69533(7) 0.37348(8) 0.27075(8)
H86_90 H 0.7076 0.3809 0.2669
C135_90 C 0.69589(8) 0.35922(8) 0.28737(7)
H87_90 H 0.7083 0.3570 0.2952
C136_90 C 0.67748(6) 0.34844(7) 0.29182(6)
C137_90 C 0.65970(6) 0.35254(6) 0.28003(6)
H88_90 H 0.6473 0.3450 0.2831
C139_90 C 0.64037(6) 0.27968(6) 0.34529(6)
H89_90 H 0.6502 0.2812 0.3562
C140_90 C 0.64240(6) 0.29210(6) 0.32765(6)
C141_90 C 0.62773(7) 0.28988(7) 0.31146(7)
H90_90 H 0.6285 0.2984 0.2993
C142_90 C 0.61228(8) 0.27507(8) 0.31364(7)
H91_90 H 0.6023 0.2729 0.3029
C143_90 C 0.61146(7) 0.26329(7) 0.33189(7)
H92_90 H 0.6007 0.2532 0.3332
C144_90 C 0.65890(6) 0.30820(6) 0.32681(6)
C145_90 C 0.68540(6) 0.32532(6) 0.34257(6)
C146_90 C 0.67565(6) 0.33423(7) 0.30988(6)
C147_90 C 0.69838(6) 0.32901(6) 0.36119(6)
C148_90 C 0.69700(7) 0.31645(7) 0.37903(7)
H93_90 H 0.6877 0.3049 0.3795
C149_90 C 0.70943(8) 0.32116(8) 0.39590(7)
H94_90 H 0.7089 0.3129 0.4082
C150_90 C 0.72298(7) 0.33839(7) 0.39468(7)
H95_90 H 0.7315 0.3415 0.4064
C151_90 C 0.71226(6) 0.34586(6) 0.36152(6)
H96_90 H 0.7131 0.3544 0.3495
N52_90 N 0.66047(5) 0.31987(5) 0.30962(5)
N53_90 N 0.68884(5) 0.33748(6) 0.32594(5)
N54_90 N 0.67093(5) 0.31020(5) 0.34389(5)
N55_90 N 0.72438(5) 0.35058(5) 0.37772(5)
C133_91 C 0.17701(7) 0.87344(7) 0.48987(7)
H85_91 H 0.1770 0.8637 0.5010
C134_91 C 0.19533(7) 0.87652(8) 0.47925(8)
H86_91 H 0.2076 0.8691 0.4831
C135_91 C 0.19589(8) 0.89078(8) 0.46263(7)
H87_91 H 0.2083 0.8930 0.4548
C136_91 C 0.17748(6) 0.90156(7) 0.45818(6)
C137_91 C 0.15970(6) 0.89746(6) 0.46997(6)
H88_91 H 0.1473 0.9050 0.4669
C139_91 C 0.14037(6) 0.97032(6) 0.40471(6)
H89_91 H 0.1502 0.9688 0.3938
C140_91 C 0.14240(6) 0.95790(6) 0.42235(6)
C141_91 C 0.12773(7) 0.96012(7) 0.43854(7)
H90_91 H 0.1285 0.9516 0.4507
C142_91 C 0.11228(8) 0.97493(8) 0.43636(7)
H91_91 H 0.1023 0.9771 0.4471
C143_91 C 0.11146(7) 0.98671(7) 0.41811(7)
H92_91 H 0.1007 0.9968 0.4168
C144_91 C 0.15890(6) 0.94180(6) 0.42319(6)
C145_91 C 0.18540(6) 0.92468(6) 0.40743(6)
C146_91 C 0.17565(6) 0.91577(7) 0.44012(6)
C147_91 C 0.19838(6) 0.92099(6) 0.38881(6)
C148_91 C 0.19700(7) 0.93355(7) 0.37097(7)
H93_91 H 0.1877 0.9451 0.3705
C149_91 C 0.20943(8) 0.92884(8) 0.35410(7)
H94_91 H 0.2089 0.9371 0.3418
C150_91 C 0.22298(7) 0.91161(7) 0.35532(7)
H95_91 H 0.2315 0.9085 0.3436
C151_91 C 0.21226(6) 0.90414(6) 0.38848(6)
H96_91 H 0.2131 0.8956 0.4005
N52_91 N 0.16047(5) 0.93013(5) 0.44038(5)
N53_91 N 0.18884(5) 0.91252(6) 0.42406(5)
N54_91 N 0.17093(5) 0.93980(5) 0.40611(5)
N55_91 N 0.22438(5) 0.89942(5) 0.37228(5)
C133_92 C 0.57299(7) 0.37344(7) 0.76013(7)
H85_92 H 0.5730 0.3637 0.7490
C134_92 C 0.55467(7) 0.37652(8) 0.77075(8)
H86_92 H 0.5424 0.3691 0.7669
C135_92 C 0.55411(8) 0.39078(8) 0.78737(7)
H87_92 H 0.5417 0.3930 0.7952
C136_92 C 0.57252(6) 0.40156(7) 0.79182(6)
C137_92 C 0.59030(6) 0.39746(6) 0.78003(6)
H88_92 H 0.6027 0.4050 0.7831
C139_92 C 0.60963(6) 0.47032(6) 0.84529(6)
H89_92 H 0.5998 0.4688 0.8562
C140_92 C 0.60760(6) 0.45790(6) 0.82765(6)
C141_92 C 0.62227(7) 0.46012(7) 0.81146(7)
H90_92 H 0.6215 0.4516 0.7993
C142_92 C 0.63772(8) 0.47493(8) 0.81364(7)
H91_92 H 0.6477 0.4771 0.8029
C143_92 C 0.63854(7) 0.48671(7) 0.83189(7)
H92_92 H 0.6493 0.4968 0.8332
C144_92 C 0.59110(6) 0.44180(6) 0.82681(6)
C145_92 C 0.56460(6) 0.42468(6) 0.84257(6)
C146_92 C 0.57435(6) 0.41577(7) 0.80988(6)
C147_92 C 0.55162(6) 0.42099(6) 0.86119(6)
C148_92 C 0.55300(7) 0.43355(7) 0.87903(7)
H93_92 H 0.5623 0.4451 0.8795
C149_92 C 0.54057(8) 0.42884(8) 0.89590(7)
H94_92 H 0.5411 0.4371 0.9082
C150_92 C 0.52702(7) 0.41161(7) 0.89468(7)
H95_92 H 0.5185 0.4085 0.9064
C151_92 C 0.53774(6) 0.40414(6) 0.86152(6)
H96_92 H 0.5369 0.3956 0.8495
N52_92 N 0.58953(5) 0.43013(5) 0.80962(5)
N53_92 N 0.56116(5) 0.41252(6) 0.82594(5)
N54_92 N 0.57907(5) 0.43980(5) 0.84389(5)
N55_92 N 0.52562(5) 0.39942(5) 0.87772(5)
C133_93 C 0.37656(7) 0.76013(7) 0.17701(7)
H85_93 H 0.3863 0.7490 0.1770
C134_93 C 0.37348(8) 0.77075(8) 0.19533(7)
H86_93 H 0.3809 0.7669 0.2076
C135_93 C 0.35922(8) 0.78737(7) 0.19589(8)
H87_93 H 0.3570 0.7952 0.2083
C136_93 C 0.34844(7) 0.79182(6) 0.17748(6)
C137_93 C 0.35254(6) 0.78003(6) 0.15970(6)
H88_93 H 0.3450 0.7831 0.1473
C139_93 C 0.27968(6) 0.84529(6) 0.14037(6)
H89_93 H 0.2812 0.8562 0.1502
C140_93 C 0.29210(6) 0.82765(6) 0.14240(6)
C141_93 C 0.28988(7) 0.81146(7) 0.12773(7)
H90_93 H 0.2984 0.7993 0.1285
C142_93 C 0.27507(8) 0.81364(7) 0.11228(8)
H91_93 H 0.2729 0.8029 0.1023
C143_93 C 0.26329(7) 0.83189(7) 0.11146(7)
H92_93 H 0.2532 0.8332 0.1007
C144_93 C 0.30820(6) 0.82681(6) 0.15890(6)
C145_93 C 0.32532(6) 0.84257(6) 0.18540(6)
C146_93 C 0.33423(7) 0.80988(6) 0.17565(6)
C147_93 C 0.32901(6) 0.86119(6) 0.19838(6)
C148_93 C 0.31645(7) 0.87903(7) 0.19700(7)
H93_93 H 0.3049 0.8795 0.1877
C149_93 C 0.32116(8) 0.89590(7) 0.20943(8)
H94_93 H 0.3129 0.9082 0.2089
C150_93 C 0.33839(7) 0.89468(7) 0.22298(7)
H95_93 H 0.3415 0.9064 0.2315
C151_93 C 0.34586(6) 0.86152(6) 0.21226(6)
H96_93 H 0.3544 0.8495 0.2131
N52_93 N 0.31987(5) 0.80962(5) 0.16047(5)
N53_93 N 0.33748(6) 0.82594(5) 0.18884(5)
N54_93 N 0.31020(5) 0.84389(5) 0.17093(5)
N55_93 N 0.35058(5) 0.87772(5) 0.22438(5)
C133_94 C 0.87656(7) 0.48987(7) 0.57299(7)
H85_94 H 0.8863 0.5010 0.5730
C134_94 C 0.87348(8) 0.47925(8) 0.55467(7)
H86_94 H 0.8809 0.4831 0.5424
C135_94 C 0.85922(8) 0.46263(7) 0.55411(8)
H87_94 H 0.8570 0.4548 0.5417
C136_94 C 0.84844(7) 0.45818(6) 0.57252(6)
C137_94 C 0.85254(6) 0.46997(6) 0.59030(6)
H88_94 H 0.8450 0.4669 0.6027
C139_94 C 0.77968(6) 0.40471(6) 0.60963(6)
H89_94 H 0.7812 0.3938 0.5998
C140_94 C 0.79210(6) 0.42235(6) 0.60760(6)
C141_94 C 0.78988(7) 0.43854(7) 0.62227(7)
H90_94 H 0.7984 0.4507 0.6215
C142_94 C 0.77507(8) 0.43636(7) 0.63772(8)
H91_94 H 0.7729 0.4471 0.6477
C143_94 C 0.76329(7) 0.41811(7) 0.63854(7)
H92_94 H 0.7532 0.4168 0.6493
C144_94 C 0.80820(6) 0.42319(6) 0.59110(6)
C145_94 C 0.82532(6) 0.40743(6) 0.56460(6)
C146_94 C 0.83423(7) 0.44012(6) 0.57435(6)
C147_94 C 0.82901(6) 0.38881(6) 0.55162(6)
C148_94 C 0.81645(7) 0.37097(7) 0.55300(7)
H93_94 H 0.8049 0.3705 0.5623
C149_94 C 0.82116(8) 0.35410(7) 0.54057(8)
H94_94 H 0.8129 0.3418 0.5411
C150_94 C 0.83839(7) 0.35532(7) 0.52702(7)
H95_94 H 0.8415 0.3436 0.5185
C151_94 C 0.84586(6) 0.38848(6) 0.53774(6)
H96_94 H 0.8544 0.4005 0.5369
N52_94 N 0.81987(5) 0.44038(5) 0.58953(5)
N53_94 N 0.83748(6) 0.42406(5) 0.56116(5)
N54_94 N 0.81020(5) 0.40611(5) 0.57907(5)
N55_94 N 0.85058(5) 0.37228(5) 0.52562(5)
C133_95 C 0.37344(7) 0.26013(7) 0.07299(7)
H85_95 H 0.3637 0.2490 0.0730
C134_95 C 0.37652(8) 0.27075(8) 0.05467(7)
H86_95 H 0.3691 0.2669 0.0424
C135_95 C 0.39078(8) 0.28737(7) 0.05411(8)
H87_95 H 0.3930 0.2952 0.0417
C136_95 C 0.40156(7) 0.29182(6) 0.07252(6)
C137_95 C 0.39746(6) 0.28003(6) 0.09030(6)
H88_95 H 0.4050 0.2831 0.1027
C139_95 C 0.47032(6) 0.34529(6) 0.10963(6)
H89_95 H 0.4688 0.3562 0.0998
C140_95 C 0.45790(6) 0.32765(6) 0.10760(6)
C141_95 C 0.46012(7) 0.31146(7) 0.12227(7)
H90_95 H 0.4516 0.2993 0.1215
C142_95 C 0.47493(8) 0.31364(7) 0.13772(8)
H91_95 H 0.4771 0.3029 0.1477
C143_95 C 0.48671(7) 0.33189(7) 0.13854(7)
H92_95 H 0.4968 0.3332 0.1493
C144_95 C 0.44180(6) 0.32681(6) 0.09110(6)
C145_95 C 0.42468(6) 0.34257(6) 0.06460(6)
C146_95 C 0.41577(7) 0.30988(6) 0.07435(6)
C147_95 C 0.42099(6) 0.36119(6) 0.05162(6)
C148_95 C 0.43355(7) 0.37903(7) 0.05300(7)
H93_95 H 0.4451 0.3795 0.0623
C149_95 C 0.42884(8) 0.39590(7) 0.04057(8)
H94_95 H 0.4371 0.4082 0.0411
C150_95 C 0.41161(7) 0.39468(7) 0.02702(7)
H95_95 H 0.4085 0.4064 0.0185
C151_95 C 0.40414(6) 0.36152(6) 0.03774(6)
H96_95 H 0.3956 0.3495 0.0369
N52_95 N 0.43013(5) 0.30962(5) 0.08953(5)
N53_95 N 0.41252(6) 0.32594(5) 0.06116(5)
N54_95 N 0.43980(5) 0.34389(5) 0.07907(5)
N55_95 N 0.39942(5) 0.37772(5) 0.02562(5)
H85_96 H 0.8637 0.0010 0.6770
C133_96 C 0.87344(7) 0.98987(7) 0.67701(7)
C134_96 C 0.87652(8) 0.97925(8) 0.69533(7)
H86_96 H 0.8691 0.9831 0.7076
C135_96 C 0.89078(8) 0.96263(7) 0.69589(8)
H87_96 H 0.8930 0.9548 0.7083
C136_96 C 0.90156(7) 0.95818(6) 0.67748(6)
C137_96 C 0.89746(6) 0.96997(6) 0.65970(6)
H88_96 H 0.9050 0.9669 0.6473
C139_96 C 0.97032(6) 0.90471(6) 0.64037(6)
H89_96 H 0.9688 0.8938 0.6502
C140_96 C 0.95790(6) 0.92235(6) 0.64240(6)
C141_96 C 0.96012(7) 0.93854(7) 0.62773(7)
H90_96 H 0.9516 0.9507 0.6285
C142_96 C 0.97493(8) 0.93636(7) 0.61228(8)
H91_96 H 0.9771 0.9471 0.6023
C143_96 C 0.98671(7) 0.91811(7) 0.61146(7)
H92_96 H 0.9968 0.9168 0.6007
C144_96 C 0.94180(6) 0.92319(6) 0.65890(6)
C145_96 C 0.92468(6) 0.90743(6) 0.68540(6)
C146_96 C 0.91577(7) 0.94012(6) 0.67565(6)
C147_96 C 0.92099(6) 0.88881(6) 0.69838(6)
C148_96 C 0.93355(7) 0.87097(7) 0.69700(7)
H93_96 H 0.9451 0.8705 0.6877
C149_96 C 0.92884(8) 0.85410(7) 0.70943(8)
H94_96 H 0.9371 0.8418 0.7089
C150_96 C 0.91161(7) 0.85532(7) 0.72298(7)
H95_96 H 0.9085 0.8436 0.7315
C151_96 C 0.90414(6) 0.88848(6) 0.71226(6)
H96_96 H 0.8956 0.9005 0.7131
N52_96 N 0.93013(5) 0.94038(5) 0.66047(5)
N53_96 N 0.91252(6) 0.92406(5) 0.68884(5)
N54_96 N 0.93980(5) 0.90611(5) 0.67093(5)
N55_96 N 0.89942(5) 0.87228(5) 0.72438(5)
C20_17 C 0.07481(8) 0.12171(9) 0.74936(7)
C21_25 C 0.11159(8) 0.08267(7) 0.73274(7)
H13_25 H 0.1009 0.0840 0.7429
C22_25 C 0.11252(8) 0.06473(8) 0.72148(8)
H14_25 H 0.1027 0.0539 0.7238
C23_25 C 0.12818(8) 0.06239(7) 0.70631(8)
H15_25 H 0.1293 0.0500 0.6983
C24_25 C 0.14202(7) 0.07895(7) 0.70337(7)
C25_25 C 0.14013(6) 0.09666(6) 0.71559(6)
H16_25 H 0.1498 0.1077 0.7136
C26_25 C 0.15834(7) 0.07784(7) 0.68701(7)
N8_17 N 0.09256(6) 0.12318(5) 0.75124(5)
N9_17 N 0.12511(5) 0.09891(6) 0.73025(5)
N10_25 N 0.15705(6) 0.06257(5) 0.67319(6)
S2_17 S 0.04973(3) 0.11977(7) 0.74673(3)
C27_25 C 0.23274(7) 0.13841(8) 0.66733(7)
H17_25 H 0.2429 0.1491 0.6660
C28_25 C 0.22148(8) 0.13748(8) 0.68527(8)
H18_25 H 0.2238 0.1473 0.6961
C29_25 C 0.20631(8) 0.12182(8) 0.68761(7)
H19_25 H 0.1983 0.1207 0.7000
C30_25 C 0.20337(7) 0.10798(7) 0.67105(7)
C31_25 C 0.21559(6) 0.10987(6) 0.65334(6)
H20_25 H 0.2136 0.1002 0.6423
C32_25 C 0.18701(7) 0.09166(7) 0.67216(7)
N11_25 N 0.23025(5) 0.12489(5) 0.65109(6)
N12_25 N 0.17319(6) 0.09295(6) 0.68743(5)
C33_25 C 0.16733(7) 0.01726(7) 0.61159(8)
H21_25 H 0.1660 0.0071 0.6009
C34_25 C 0.18527(8) 0.02852(8) 0.61252(8)
H22_25 H 0.1961 0.0262 0.6027
C35_25 C 0.18761(7) 0.04369(8) 0.62818(8)
H23_25 H 0.2000 0.0517 0.6293
C36_25 C 0.17105(7) 0.04663(7) 0.64202(7)
C37_25 C 0.15334(6) 0.03441(6) 0.64013(6)
H24_25 H 0.1423 0.0364 0.6498
C38_25 C 0.17216(7) 0.06299(7) 0.65834(7)
N13_17 N 0.15109(6) 0.01975(5) 0.62511(5)
N14_25 N 0.18743(5) 0.07681(6) 0.65705(6)
C57_25 C 0.24936(7) 0.17519(8) 0.62829(9)
N21_25 N 0.25124(5) 0.15744(6) 0.62682(5)
S3_25 S 0.24673(3) 0.20027(3) 0.63023(7)
C76_9 C 0.12171(9) 0.24936(7) 0.57481(8)
C77_9 C 0.08267(7) 0.23274(7) 0.61159(8)
H49_9 H 0.0840 0.2429 0.6009
C78_9 C 0.06473(8) 0.22148(8) 0.61252(8)
H50_9 H 0.0539 0.2238 0.6027
C79_9 C 0.06239(7) 0.20631(8) 0.62818(8)
H51_9 H 0.0500 0.1983 0.6293
C80_9 C 0.07895(7) 0.20337(7) 0.64202(7)
C81_9 C 0.09666(6) 0.21559(6) 0.64013(6)
H52_9 H 0.1077 0.2136 0.6498
C82_9 C 0.07784(7) 0.18701(7) 0.65834(7)
N28_9 N 0.12318(5) 0.25124(5) 0.59256(6)
N29_9 N 0.09891(6) 0.23025(5) 0.62511(5)
N30_9 N 0.06257(5) 0.17319(6) 0.65705(6)
S4_9 S 0.11977(7) 0.24673(3) 0.54973(3)
C83_9 C 0.13841(8) 0.16733(7) 0.73274(7)
H53_9 H 0.1491 0.1660 0.7429
C84_9 C 0.13748(8) 0.18527(8) 0.72148(8)
H54_9 H 0.1473 0.1961 0.7238
C85_9 C 0.12182(8) 0.18761(7) 0.70631(8)
H55_9 H 0.1207 0.2000 0.6983
C86_9 C 0.10798(7) 0.17105(7) 0.70337(7)
C87_9 C 0.10987(6) 0.15334(6) 0.71559(6)
H56_9 H 0.1002 0.1423 0.7136
C88_9 C 0.09166(7) 0.17216(7) 0.68701(7)
N31_9 N 0.12489(5) 0.15109(6) 0.73025(5)
N32_9 N 0.09295(6) 0.18743(5) 0.67319(6)
C89_9 C 0.01726(7) 0.11159(8) 0.66733(7)
H57_9 H 0.0071 0.1009 0.6660
C90_9 C 0.02852(8) 0.11252(8) 0.68527(8)
H58_9 H 0.0262 0.1027 0.6961
C91_9 C 0.04369(8) 0.12818(8) 0.68761(7)
H59_9 H 0.0517 0.1293 0.7000
C92_9 C 0.04663(7) 0.14202(7) 0.67105(7)
C93_9 C 0.03441(6) 0.14013(6) 0.65334(6)
H60_9 H 0.0364 0.1498 0.6423
C94_9 C 0.06299(7) 0.15834(7) 0.67216(7)
N33_9 N 0.01975(5) 0.12511(5) 0.65109(6)
N34_9 N 0.07681(6) 0.15705(6) 0.68743(5)
C113_17 C 0.17519(8) 0.12829(9) 0.74936(7)
N41_17 N 0.15744(6) 0.12682(5) 0.75124(5)
S5_17 S 0.20027(3) 0.13023(7) 0.74673(3)
C132_25 C 0.24936(7) 0.07481(8) 0.62171(9)
N48_25 N 0.25124(5) 0.09256(6) 0.62318(5)
S6_25 S 0.24673(3) 0.04973(3) 0.61977(7)
C153_9 C 0.12829(9) 0.24936(7) 0.67519(8)
N57_9 N 0.12682(5) 0.25124(5) 0.65744(6)
S9_9 S 0.13023(7) 0.24673(3) 0.70027(3)
N70_9 N 0.15109(6) 0.23025(5) 0.62489(5)
N71_9 N 0.23025(5) 0.12511(5) 0.59891(6)
C20_18 C 0.67519(8) 0.12829(9) 0.24936(7)
C21_26 C 0.63841(8) 0.16733(7) 0.23274(7)
H13_26 H 0.6491 0.1660 0.2429
C22_26 C 0.63748(8) 0.18527(8) 0.22148(8)
H14_26 H 0.6473 0.1961 0.2238
C23_26 C 0.62182(8) 0.18761(7) 0.20631(8)
H15_26 H 0.6207 0.2000 0.1983
C24_26 C 0.60798(7) 0.17105(7) 0.20337(7)
C25_26 C 0.60987(6) 0.15334(6) 0.21559(6)
H16_26 H 0.6002 0.1423 0.2136
C26_26 C 0.59166(7) 0.17216(7) 0.18701(7)
N8_18 N 0.65744(6) 0.12682(5) 0.25124(5)
N9_18 N 0.62489(5) 0.15109(6) 0.23025(5)
N10_26 N 0.59295(6) 0.18743(5) 0.17319(6)
S2_18 S 0.70027(3) 0.13023(7) 0.24673(3)
C27_26 C 0.51726(7) 0.11159(8) 0.16733(7)
H17_26 H 0.5071 0.1009 0.1660
C28_26 C 0.52852(8) 0.11252(8) 0.18527(8)
H18_26 H 0.5262 0.1027 0.1961
C29_26 C 0.54369(8) 0.12818(8) 0.18761(7)
H19_26 H 0.5517 0.1293 0.2000
C30_26 C 0.54663(7) 0.14202(7) 0.17105(7)
C31_26 C 0.53441(6) 0.14013(6) 0.15334(6)
H20_26 H 0.5364 0.1498 0.1423
C32_26 C 0.56299(7) 0.15834(7) 0.17216(7)
N11_26 N 0.51975(5) 0.12511(5) 0.15109(6)
N12_26 N 0.57681(6) 0.15705(6) 0.18743(5)
C33_26 C 0.58267(7) 0.23274(7) 0.11159(8)
H21_26 H 0.5840 0.2429 0.1009
C34_26 C 0.56473(8) 0.22148(8) 0.11252(8)
H22_26 H 0.5539 0.2238 0.1027
C35_26 C 0.56239(7) 0.20631(8) 0.12818(8)
H23_26 H 0.5500 0.1983 0.1293
C36_26 C 0.57895(7) 0.20337(7) 0.14202(7)
C37_26 C 0.59666(6) 0.21559(6) 0.14013(6)
H24_26 H 0.6077 0.2136 0.1498
C38_26 C 0.57784(7) 0.18701(7) 0.15834(7)
N13_18 N 0.59891(6) 0.23025(5) 0.12511(5)
N14_26 N 0.56257(5) 0.17319(6) 0.15705(6)
C57_26 C 0.50064(7) 0.07481(8) 0.12829(9)
N21_26 N 0.49876(5) 0.09256(6) 0.12682(5)
S3_26 S 0.50327(3) 0.04973(3) 0.13023(7)
C76_10 C 0.62829(9) 0.00064(7) 0.07481(8)
C77_10 C 0.66733(7) 0.01726(7) 0.11159(8)
H49_10 H 0.6660 0.0071 0.1009
C78_10 C 0.68527(8) 0.02852(8) 0.11252(8)
H50_10 H 0.6961 0.0262 0.1027
C79_10 C 0.68761(7) 0.04369(8) 0.12818(8)
H51_10 H 0.7000 0.0517 0.1293
C80_10 C 0.67105(7) 0.04663(7) 0.14202(7)
C81_10 C 0.65334(6) 0.03441(6) 0.14013(6)
H52_10 H 0.6423 0.0364 0.1498
C82_10 C 0.67216(7) 0.06299(7) 0.15834(7)
N29_10 N 0.65109(6) 0.01975(5) 0.12511(5)
N30_10 N 0.68743(5) 0.07681(6) 0.15705(6)
S4_10 S 0.63023(7) 0.00327(3) 0.04973(3)
C83_10 C 0.61159(8) 0.08267(7) 0.23274(7)
H53_10 H 0.6009 0.0840 0.2429
C84_10 C 0.61252(8) 0.06473(8) 0.22148(8)
H54_10 H 0.6027 0.0539 0.2238
C85_10 C 0.62818(8) 0.06239(7) 0.20631(8)
H55_10 H 0.6293 0.0500 0.1983
C86_10 C 0.64202(7) 0.07895(7) 0.20337(7)
C87_10 C 0.64013(6) 0.09666(6) 0.21559(6)
H56_10 H 0.6498 0.1077 0.2136
C88_10 C 0.65834(7) 0.07784(7) 0.18701(7)
N31_10 N 0.62511(5) 0.09891(6) 0.23025(5)
N32_10 N 0.65705(6) 0.06257(5) 0.17319(6)
C89_10 C 0.73274(7) 0.13841(8) 0.16733(7)
H57_10 H 0.7429 0.1491 0.1660
C90_10 C 0.72148(8) 0.13748(8) 0.18527(8)
H58_10 H 0.7238 0.1473 0.1961
C91_10 C 0.70631(8) 0.12182(8) 0.18761(7)
H59_10 H 0.6983 0.1207 0.2000
C92_10 C 0.70337(7) 0.10798(7) 0.17105(7)
C93_10 C 0.71559(6) 0.10987(6) 0.15334(6)
H60_10 H 0.7136 0.1002 0.1423
C94_10 C 0.68701(7) 0.09166(7) 0.17216(7)
N33_10 N 0.73025(5) 0.12489(5) 0.15109(6)
N34_10 N 0.67319(6) 0.09295(6) 0.18743(5)
C113_18 C 0.57481(8) 0.12171(9) 0.24936(7)
N41_18 N 0.59256(6) 0.12318(5) 0.25124(5)
S5_18 S 0.54973(3) 0.11977(7) 0.24673(3)
C132_26 C 0.50064(7) 0.17519(8) 0.12171(9)
N48_26 N 0.49876(5) 0.15744(6) 0.12318(5)
S6_26 S 0.50327(3) 0.20027(3) 0.11977(7)
C153_10 C 0.62171(9) 0.00064(7) 0.17519(8)
S9_10 S 0.61977(7) 0.00327(3) 0.20027(3)
N70_10 N 0.59891(6) 0.01975(5) 0.12489(5)
N71_10 N 0.51975(5) 0.12489(5) 0.09891(6)
N28_10 N 0.62682(5) 0.99876(5) 0.09256(6)
N57_10 N 0.62318(5) 0.99876(5) 0.15744(6)
C20_19 C 0.17519(8) 0.62171(9) 0.00064(7)
C21_27 C 0.13841(8) 0.58267(7) 0.01726(7)
H13_27 H 0.1491 0.5840 0.0071
C22_27 C 0.13748(8) 0.56473(8) 0.02852(8)
H14_27 H 0.1473 0.5539 0.0262
C23_27 C 0.12182(8) 0.56239(7) 0.04369(8)
H15_27 H 0.1207 0.5500 0.0517
C24_27 C 0.10798(7) 0.57895(7) 0.04663(7)
C25_27 C 0.10987(6) 0.59666(6) 0.03441(6)
H16_27 H 0.1002 0.6077 0.0364
C26_27 C 0.09166(7) 0.57784(7) 0.06299(7)
N9_19 N 0.12489(5) 0.59891(6) 0.01975(5)
N10_27 N 0.09295(6) 0.56257(5) 0.07681(6)
S2_19 S 0.20027(3) 0.61977(7) 0.00327(3)
C27_27 C 0.01726(7) 0.63841(8) 0.08267(7)
H17_27 H 0.0071 0.6491 0.0840
C28_27 C 0.02852(8) 0.63748(8) 0.06473(8)
H18_27 H 0.0262 0.6473 0.0539
C29_27 C 0.04369(8) 0.62182(8) 0.06239(7)
H19_27 H 0.0517 0.6207 0.0500
C30_27 C 0.04663(7) 0.60798(7) 0.07895(7)
C31_27 C 0.03441(6) 0.60987(6) 0.09666(6)
H20_27 H 0.0364 0.6002 0.1077
C32_27 C 0.06299(7) 0.59166(7) 0.07784(7)
N11_27 N 0.01975(5) 0.62489(5) 0.09891(6)
N12_27 N 0.07681(6) 0.59295(6) 0.06257(5)
C33_27 C 0.08267(7) 0.51726(7) 0.13841(8)
H21_27 H 0.0840 0.5071 0.1491
C34_27 C 0.06473(8) 0.52852(8) 0.13748(8)
H22_27 H 0.0539 0.5262 0.1473
C35_27 C 0.06239(7) 0.54369(8) 0.12182(8)
H23_27 H 0.0500 0.5517 0.1207
C36_27 C 0.07895(7) 0.54663(7) 0.10798(7)
C37_27 C 0.09666(6) 0.53441(6) 0.10987(6)
H24_27 H 0.1077 0.5364 0.1002
C38_27 C 0.07784(7) 0.56299(7) 0.09166(7)
N13_19 N 0.09891(6) 0.51975(5) 0.12489(5)
N14_27 N 0.06257(5) 0.57681(6) 0.09295(6)
C57_27 C 0.00064(7) 0.67519(8) 0.12171(9)
S3_27 S 0.00327(3) 0.70027(3) 0.11977(7)
C76_11 C 0.12829(9) 0.74936(7) 0.17519(8)
C77_11 C 0.16733(7) 0.73274(7) 0.13841(8)
H49_11 H 0.1660 0.7429 0.1491
C78_11 C 0.18527(8) 0.72148(8) 0.13748(8)
H50_11 H 0.1961 0.7238 0.1473
C79_11 C 0.18761(7) 0.70631(8) 0.12182(8)
H51_11 H 0.2000 0.6983 0.1207
C80_11 C 0.17105(7) 0.70337(7) 0.10798(7)
C81_11 C 0.15334(6) 0.71559(6) 0.10987(6)
H52_11 H 0.1423 0.7136 0.1002
C82_11 C 0.17216(7) 0.68701(7) 0.09166(7)
N28_11 N 0.12682(5) 0.75124(5) 0.15744(6)
N29_11 N 0.15109(6) 0.73025(5) 0.12489(5)
N30_11 N 0.18743(5) 0.67319(6) 0.09295(6)
S4_11 S 0.13023(7) 0.74673(3) 0.20027(3)
C83_11 C 0.11159(8) 0.66733(7) 0.01726(7)
H53_11 H 0.1009 0.6660 0.0071
C84_11 C 0.11252(8) 0.68527(8) 0.02852(8)
H54_11 H 0.1027 0.6961 0.0262
C85_11 C 0.12818(8) 0.68761(7) 0.04369(8)
H55_11 H 0.1293 0.7000 0.0517
C86_11 C 0.14202(7) 0.67105(7) 0.04663(7)
C87_11 C 0.14013(6) 0.65334(6) 0.03441(6)
H56_11 H 0.1498 0.6423 0.0364
C88_11 C 0.15834(7) 0.67216(7) 0.06299(7)
N31_11 N 0.12511(5) 0.65109(6) 0.01975(5)
N32_11 N 0.15705(6) 0.68743(5) 0.07681(6)
C89_11 C 0.23274(7) 0.61159(8) 0.08267(7)
H57_11 H 0.2429 0.6009 0.0840
C90_11 C 0.22148(8) 0.61252(8) 0.06473(8)
H58_11 H 0.2238 0.6027 0.0539
C91_11 C 0.20631(8) 0.62818(8) 0.06239(7)
H59_11 H 0.1983 0.6293 0.0500
C92_11 C 0.20337(7) 0.64202(7) 0.07895(7)
C93_11 C 0.21559(6) 0.64013(6) 0.09666(6)
H60_11 H 0.2136 0.6498 0.1077
C94_11 C 0.18701(7) 0.65834(7) 0.07784(7)
N33_11 N 0.23025(5) 0.62511(5) 0.09891(6)
N34_11 N 0.17319(6) 0.65705(6) 0.06257(5)
C113_19 C 0.07481(8) 0.62829(9) 0.00064(7)
S5_19 S 0.04973(3) 0.63023(7) 0.00327(3)
C132_27 C 0.00064(7) 0.57481(8) 0.12829(9)
S6_27 S 0.00327(3) 0.54973(3) 0.13023(7)
C153_11 C 0.12171(9) 0.74936(7) 0.07481(8)
N57_11 N 0.12318(5) 0.75124(5) 0.09256(6)
S9_11 S 0.11977(7) 0.74673(3) 0.04973(3)
N70_11 N 0.09891(6) 0.73025(5) 0.12511(5)
N71_11 N 0.01975(5) 0.62511(5) 0.15109(6)
N8_19 N 0.15744(6) 0.62318(5) 0.99876(5)
N41_19 N 0.09256(6) 0.62682(5) 0.99876(5)
N21_27 N 0.99876(5) 0.65744(6) 0.12318(5)
N48_27 N 0.99876(5) 0.59256(6) 0.12682(5)
C20_20 C 0.57481(8) 0.62829(9) 0.50064(7)
C21_28 C 0.61159(8) 0.66733(7) 0.51726(7)
H13_28 H 0.6009 0.6660 0.5071
C22_28 C 0.61252(8) 0.68527(8) 0.52852(8)
H14_28 H 0.6027 0.6961 0.5262
C23_28 C 0.62818(8) 0.68761(7) 0.54369(8)
H15_28 H 0.6293 0.7000 0.5517
C24_28 C 0.64202(7) 0.67105(7) 0.54663(7)
C25_28 C 0.64013(6) 0.65334(6) 0.53441(6)
H16_28 H 0.6498 0.6423 0.5364
C26_28 C 0.65834(7) 0.67216(7) 0.56299(7)
N8_20 N 0.59256(6) 0.62682(5) 0.49876(5)
N9_20 N 0.62511(5) 0.65109(6) 0.51975(5)
N10_28 N 0.65705(6) 0.68743(5) 0.57681(6)
S2_20 S 0.54973(3) 0.63023(7) 0.50327(3)
C27_28 C 0.73274(7) 0.61159(8) 0.58267(7)
H17_28 H 0.7429 0.6009 0.5840
C28_28 C 0.72148(8) 0.61252(8) 0.56473(8)
H18_28 H 0.7238 0.6027 0.5539
C29_28 C 0.70631(8) 0.62818(8) 0.56239(7)
H19_28 H 0.6983 0.6293 0.5500
C30_28 C 0.70337(7) 0.64202(7) 0.57895(7)
C31_28 C 0.71559(6) 0.64013(6) 0.59666(6)
H20_28 H 0.7136 0.6498 0.6077
C32_28 C 0.68701(7) 0.65834(7) 0.57784(7)
N11_28 N 0.73025(5) 0.62511(5) 0.59891(6)
N12_28 N 0.67319(6) 0.65705(6) 0.56257(5)
C33_28 C 0.66733(7) 0.73274(7) 0.63841(8)
H21_28 H 0.6660 0.7429 0.6491
C34_28 C 0.68527(8) 0.72148(8) 0.63748(8)
H22_28 H 0.6961 0.7238 0.6473
C35_28 C 0.68761(7) 0.70631(8) 0.62182(8)
H23_28 H 0.7000 0.6983 0.6207
C36_28 C 0.67105(7) 0.70337(7) 0.60798(7)
C37_28 C 0.65334(6) 0.71559(6) 0.60987(6)
H24_28 H 0.6423 0.7136 0.6002
C38_28 C 0.67216(7) 0.68701(7) 0.59166(7)
N13_20 N 0.65109(6) 0.73025(5) 0.62489(5)
N14_28 N 0.68743(5) 0.67319(6) 0.59295(6)
C57_28 C 0.74936(7) 0.57481(8) 0.62171(9)
N21_28 N 0.75124(5) 0.59256(6) 0.62318(5)
S3_28 S 0.74673(3) 0.54973(3) 0.61977(7)
C76_12 C 0.62171(9) 0.50064(7) 0.67519(8)
C77_12 C 0.58267(7) 0.51726(7) 0.63841(8)
H49_12 H 0.5840 0.5071 0.6491
C78_12 C 0.56473(8) 0.52852(8) 0.63748(8)
H50_12 H 0.5539 0.5262 0.6473
C79_12 C 0.56239(7) 0.54369(8) 0.62182(8)
H51_12 H 0.5500 0.5517 0.6207
C80_12 C 0.57895(7) 0.54663(7) 0.60798(7)
C81_12 C 0.59666(6) 0.53441(6) 0.60987(6)
H52_12 H 0.6077 0.5364 0.6002
C82_12 C 0.57784(7) 0.56299(7) 0.59166(7)
N28_12 N 0.62318(5) 0.49876(5) 0.65744(6)
N29_12 N 0.59891(6) 0.51975(5) 0.62489(5)
N30_12 N 0.56257(5) 0.57681(6) 0.59295(6)
S4_12 S 0.61977(7) 0.50327(3) 0.70027(3)
C83_12 C 0.63841(8) 0.58267(7) 0.51726(7)
H53_12 H 0.6491 0.5840 0.5071
C84_12 C 0.63748(8) 0.56473(8) 0.52852(8)
H54_12 H 0.6473 0.5539 0.5262
C85_12 C 0.62182(8) 0.56239(7) 0.54369(8)
H55_12 H 0.6207 0.5500 0.5517
C86_12 C 0.60798(7) 0.57895(7) 0.54663(7)
C87_12 C 0.60987(6) 0.59666(6) 0.53441(6)
H56_12 H 0.6002 0.6077 0.5364
C88_12 C 0.59166(7) 0.57784(7) 0.56299(7)
N31_12 N 0.62489(5) 0.59891(6) 0.51975(5)
N32_12 N 0.59295(6) 0.56257(5) 0.57681(6)
C89_12 C 0.51726(7) 0.63841(8) 0.58267(7)
H57_12 H 0.5071 0.6491 0.5840
C90_12 C 0.52852(8) 0.63748(8) 0.56473(8)
H58_12 H 0.5262 0.6473 0.5539
C91_12 C 0.54369(8) 0.62182(8) 0.56239(7)
H59_12 H 0.5517 0.6207 0.5500
C92_12 C 0.54663(7) 0.60798(7) 0.57895(7)
C93_12 C 0.53441(6) 0.60987(6) 0.59666(6)
H60_12 H 0.5364 0.6002 0.6077
C94_12 C 0.56299(7) 0.59166(7) 0.57784(7)
N33_12 N 0.51975(5) 0.62489(5) 0.59891(6)
N34_12 N 0.57681(6) 0.59295(6) 0.56257(5)
C113_20 C 0.67519(8) 0.62171(9) 0.50064(7)
N41_20 N 0.65744(6) 0.62318(5) 0.49876(5)
S5_20 S 0.70027(3) 0.61977(7) 0.50327(3)
C132_28 C 0.74936(7) 0.67519(8) 0.62829(9)
N48_28 N 0.75124(5) 0.65744(6) 0.62682(5)
S6_28 S 0.74673(3) 0.70027(3) 0.63023(7)
C153_12 C 0.62829(9) 0.50064(7) 0.57481(8)
N57_12 N 0.62682(5) 0.49876(5) 0.59256(6)
S9_12 S 0.63023(7) 0.50327(3) 0.54973(3)
N70_12 N 0.65109(6) 0.51975(5) 0.62511(5)
N71_12 N 0.73025(5) 0.62489(5) 0.65109(6)
C20_21 C 0.74936(7) 0.07481(8) 0.12171(9)
C21_29 C 0.73274(7) 0.11159(8) 0.08267(7)
H13_29 H 0.7429 0.1009 0.0840
C22_29 C 0.72148(8) 0.11252(8) 0.06473(8)
H14_29 H 0.7238 0.1027 0.0539
C23_29 C 0.70631(8) 0.12818(8) 0.06239(7)
H15_29 H 0.6983 0.1293 0.0500
C24_29 C 0.70337(7) 0.14202(7) 0.07895(7)
C25_29 C 0.71559(6) 0.14013(6) 0.09666(6)
H16_29 H 0.7136 0.1498 0.1077
C26_29 C 0.68701(7) 0.15834(7) 0.07784(7)
N8_21 N 0.75124(5) 0.09256(6) 0.12318(5)
N9_21 N 0.73025(5) 0.12511(5) 0.09891(6)
N10_29 N 0.67319(6) 0.15705(6) 0.06257(5)
S2_21 S 0.74673(3) 0.04973(3) 0.11977(7)
C27_29 C 0.66733(7) 0.23274(7) 0.13841(8)
H17_29 H 0.6660 0.2429 0.1491
C28_29 C 0.68527(8) 0.22148(8) 0.13748(8)
H18_29 H 0.6961 0.2238 0.1473
C29_29 C 0.68761(7) 0.20631(8) 0.12182(8)
H19_29 H 0.7000 0.1983 0.1207
C30_29 C 0.67105(7) 0.20337(7) 0.10798(7)
C31_29 C 0.65334(6) 0.21559(6) 0.10987(6)
H20_29 H 0.6423 0.2136 0.1002
C32_29 C 0.67216(7) 0.18701(7) 0.09166(7)
N11_29 N 0.65109(6) 0.23025(5) 0.12489(5)
N12_29 N 0.68743(5) 0.17319(6) 0.09295(6)
C33_29 C 0.61159(8) 0.16733(7) 0.01726(7)
H21_29 H 0.6009 0.1660 0.0071
C34_29 C 0.61252(8) 0.18527(8) 0.02852(8)
H22_29 H 0.6027 0.1961 0.0262
C35_29 C 0.62818(8) 0.18761(7) 0.04369(8)
H23_29 H 0.6293 0.2000 0.0517
C36_29 C 0.64202(7) 0.17105(7) 0.04663(7)
C37_29 C 0.64013(6) 0.15334(6) 0.03441(6)
H24_29 H 0.6498 0.1423 0.0364
C38_29 C 0.65834(7) 0.17216(7) 0.06299(7)
N13_21 N 0.62511(5) 0.15109(6) 0.01975(5)
N14_29 N 0.65705(6) 0.18743(5) 0.07681(6)
C57_29 C 0.62829(9) 0.24936(7) 0.17519(8)
N21_29 N 0.62682(5) 0.25124(5) 0.15744(6)
S3_29 S 0.63023(7) 0.24673(3) 0.20027(3)
C113_21 C 0.74936(7) 0.17519(8) 0.12829(9)
N41_21 N 0.75124(5) 0.15744(6) 0.12682(5)
S5_21 S 0.74673(3) 0.20027(3) 0.13023(7)
C132_29 C 0.62171(9) 0.24936(7) 0.07481(8)
N48_29 N 0.62318(5) 0.25124(5) 0.09256(6)
S6_29 S 0.61977(7) 0.24673(3) 0.04973(3)
C20_22 C 0.24936(7) 0.67519(8) 0.12829(9)
C21_30 C 0.23274(7) 0.63841(8) 0.16733(7)
H13_30 H 0.2429 0.6491 0.1660
C22_30 C 0.22148(8) 0.63748(8) 0.18527(8)
H14_30 H 0.2238 0.6473 0.1961
C23_30 C 0.20631(8) 0.62182(8) 0.18761(7)
H15_30 H 0.1983 0.6207 0.2000
C24_30 C 0.20337(7) 0.60798(7) 0.17105(7)
C25_30 C 0.21559(6) 0.60987(6) 0.15334(6)
H16_30 H 0.2136 0.6002 0.1423
C26_30 C 0.18701(7) 0.59166(7) 0.17216(7)
N8_22 N 0.25124(5) 0.65744(6) 0.12682(5)
N9_22 N 0.23025(5) 0.62489(5) 0.15109(6)
N10_30 N 0.17319(6) 0.59295(6) 0.18743(5)
S2_22 S 0.24673(3) 0.70027(3) 0.13023(7)
C27_30 C 0.16733(7) 0.51726(7) 0.11159(8)
H17_30 H 0.1660 0.5071 0.1009
C28_30 C 0.18527(8) 0.52852(8) 0.11252(8)
H18_30 H 0.1961 0.5262 0.1027
C29_30 C 0.18761(7) 0.54369(8) 0.12818(8)
H19_30 H 0.2000 0.5517 0.1293
C30_30 C 0.17105(7) 0.54663(7) 0.14202(7)
C31_30 C 0.15334(6) 0.53441(6) 0.14013(6)
H20_30 H 0.1423 0.5364 0.1498
C32_30 C 0.17216(7) 0.56299(7) 0.15834(7)
N11_30 N 0.15109(6) 0.51975(5) 0.12511(5)
N12_30 N 0.18743(5) 0.57681(6) 0.15705(6)
C33_30 C 0.11159(8) 0.58267(7) 0.23274(7)
H21_30 H 0.1009 0.5840 0.2429
C34_30 C 0.11252(8) 0.56473(8) 0.22148(8)
H22_30 H 0.1027 0.5539 0.2238
C35_30 C 0.12818(8) 0.56239(7) 0.20631(8)
H23_30 H 0.1293 0.5500 0.1983
C36_30 C 0.14202(7) 0.57895(7) 0.20337(7)
C37_30 C 0.14013(6) 0.59666(6) 0.21559(6)
H24_30 H 0.1498 0.6077 0.2136
C38_30 C 0.15834(7) 0.57784(7) 0.18701(7)
N13_22 N 0.12511(5) 0.59891(6) 0.23025(5)
N14_30 N 0.15705(6) 0.56257(5) 0.17319(6)
C57_30 C 0.12829(9) 0.50064(7) 0.07481(8)
N21_30 N 0.12682(5) 0.49876(5) 0.09256(6)
S3_30 S 0.13023(7) 0.50327(3) 0.04973(3)
C113_22 C 0.24936(7) 0.57481(8) 0.12171(9)
N41_22 N 0.25124(5) 0.59256(6) 0.12318(5)
S5_22 S 0.24673(3) 0.54973(3) 0.11977(7)
C132_30 C 0.12171(9) 0.50064(7) 0.17519(8)
N48_30 N 0.12318(5) 0.49876(5) 0.15744(6)
S6_30 S 0.11977(7) 0.50327(3) 0.20027(3)
C20_23 C 0.00064(7) 0.17519(8) 0.62171(9)
C21_31 C 0.01726(7) 0.13841(8) 0.58267(7)
H13_31 H 0.0071 0.1491 0.5840
C22_31 C 0.02852(8) 0.13748(8) 0.56473(8)
H14_31 H 0.0262 0.1473 0.5539
C23_31 C 0.04369(8) 0.12182(8) 0.56239(7)
H15_31 H 0.0517 0.1207 0.5500
C24_31 C 0.04663(7) 0.10798(7) 0.57895(7)
C25_31 C 0.03441(6) 0.10987(6) 0.59666(6)
H16_31 H 0.0364 0.1002 0.6077
C26_31 C 0.06299(7) 0.09166(7) 0.57784(7)
N9_23 N 0.01975(5) 0.12489(5) 0.59891(6)
N10_31 N 0.07681(6) 0.09295(6) 0.56257(5)
S2_23 S 0.00327(3) 0.20027(3) 0.61977(7)
C27_31 C 0.08267(7) 0.01726(7) 0.63841(8)
H17_31 H 0.0840 0.0071 0.6491
C28_31 C 0.06473(8) 0.02852(8) 0.63748(8)
H18_31 H 0.0539 0.0262 0.6473
C29_31 C 0.06239(7) 0.04369(8) 0.62182(8)
H19_31 H 0.0500 0.0517 0.6207
C30_31 C 0.07895(7) 0.04663(7) 0.60798(7)
C31_31 C 0.09666(6) 0.03441(6) 0.60987(6)
H20_31 H 0.1077 0.0364 0.6002
C32_31 C 0.07784(7) 0.06299(7) 0.59166(7)
N11_31 N 0.09891(6) 0.01975(5) 0.62489(5)
N12_31 N 0.06257(5) 0.07681(6) 0.59295(6)
C33_31 C 0.13841(8) 0.08267(7) 0.51726(7)
H21_31 H 0.1491 0.0840 0.5071
C34_31 C 0.13748(8) 0.06473(8) 0.52852(8)
H22_31 H 0.1473 0.0539 0.5262
C35_31 C 0.12182(8) 0.06239(7) 0.54369(8)
H23_31 H 0.1207 0.0500 0.5517
C36_31 C 0.10798(7) 0.07895(7) 0.54663(7)
C37_31 C 0.10987(6) 0.09666(6) 0.53441(6)
H24_31 H 0.1002 0.1077 0.5364
C38_31 C 0.09166(7) 0.07784(7) 0.56299(7)
N13_23 N 0.12489(5) 0.09891(6) 0.51975(5)
N14_31 N 0.09295(6) 0.06257(5) 0.57681(6)
C57_31 C 0.12171(9) 0.00064(7) 0.67519(8)
S3_31 S 0.11977(7) 0.00327(3) 0.70027(3)
C113_23 C 0.00064(7) 0.07481(8) 0.62829(9)
S5_23 S 0.00327(3) 0.04973(3) 0.63023(7)
C132_31 C 0.12829(9) 0.00064(7) 0.57481(8)
S6_31 S 0.13023(7) 0.00327(3) 0.54973(3)
N21_31 N 0.12318(5) 0.99876(5) 0.65744(6)
N48_31 N 0.12682(5) 0.99876(5) 0.59256(6)
N8_23 N 0.99876(5) 0.15744(6) 0.62318(5)
N41_23 N 0.99876(5) 0.09256(6) 0.62682(5)
C20_24 C 0.50064(7) 0.57481(8) 0.62829(9)
C21_32 C 0.51726(7) 0.61159(8) 0.66733(7)
H13_32 H 0.5071 0.6009 0.6660
C22_32 C 0.52852(8) 0.61252(8) 0.68527(8)
H14_32 H 0.5262 0.6027 0.6961
C23_32 C 0.54369(8) 0.62818(8) 0.68761(7)
H15_32 H 0.5517 0.6293 0.7000
C24_32 C 0.54663(7) 0.64202(7) 0.67105(7)
C25_32 C 0.53441(6) 0.64013(6) 0.65334(6)
H16_32 H 0.5364 0.6498 0.6423
C26_32 C 0.56299(7) 0.65834(7) 0.67216(7)
N8_24 N 0.49876(5) 0.59256(6) 0.62682(5)
N9_24 N 0.51975(5) 0.62511(5) 0.65109(6)
N10_32 N 0.57681(6) 0.65705(6) 0.68743(5)
S2_24 S 0.50327(3) 0.54973(3) 0.63023(7)
C27_32 C 0.58267(7) 0.73274(7) 0.61159(8)
H17_32 H 0.5840 0.7429 0.6009
C28_32 C 0.56473(8) 0.72148(8) 0.61252(8)
H18_32 H 0.5539 0.7238 0.6027
C29_32 C 0.56239(7) 0.70631(8) 0.62818(8)
H19_32 H 0.5500 0.6983 0.6293
C30_32 C 0.57895(7) 0.70337(7) 0.64202(7)
C31_32 C 0.59666(6) 0.71559(6) 0.64013(6)
H20_32 H 0.6077 0.7136 0.6498
C32_32 C 0.57784(7) 0.68701(7) 0.65834(7)
N11_32 N 0.59891(6) 0.73025(5) 0.62511(5)
N12_32 N 0.56257(5) 0.67319(6) 0.65705(6)
C33_32 C 0.63841(8) 0.66733(7) 0.73274(7)
H21_32 H 0.6491 0.6660 0.7429
C34_32 C 0.63748(8) 0.68527(8) 0.72148(8)
H22_32 H 0.6473 0.6961 0.7238
C35_32 C 0.62182(8) 0.68761(7) 0.70631(8)
H23_32 H 0.6207 0.7000 0.6983
C36_32 C 0.60798(7) 0.67105(7) 0.70337(7)
C37_32 C 0.60987(6) 0.65334(6) 0.71559(6)
H24_32 H 0.6002 0.6423 0.7136
C38_32 C 0.59166(7) 0.67216(7) 0.68701(7)
N13_24 N 0.62489(5) 0.65109(6) 0.73025(5)
N14_32 N 0.59295(6) 0.68743(5) 0.67319(6)
C57_32 C 0.62171(9) 0.74936(7) 0.57481(8)
N21_32 N 0.62318(5) 0.75124(5) 0.59256(6)
S3_32 S 0.61977(7) 0.74673(3) 0.54973(3)
C113_24 C 0.50064(7) 0.67519(8) 0.62171(9)
N41_24 N 0.49876(5) 0.65744(6) 0.62318(5)
S5_24 S 0.50327(3) 0.70027(3) 0.61977(7)
C132_32 C 0.62829(9) 0.74936(7) 0.67519(8)
N48_32 N 0.62682(5) 0.75124(5) 0.65744(6)
S6_32 S 0.63023(7) 0.74673(3) 0.70027(3)
C21_33 C 0.08267(7) 0.73274(7) 0.11159(8)
H13_33 H 0.0840 0.7429 0.1009
C22_33 C 0.06473(8) 0.72148(8) 0.11252(8)
H14_33 H 0.0539 0.7238 0.1027
C23_33 C 0.06239(7) 0.70631(8) 0.12818(8)
H15_33 H 0.0500 0.6983 0.1293
C24_33 C 0.07895(7) 0.70337(7) 0.14202(7)
C25_33 C 0.09666(6) 0.71559(6) 0.14013(6)
H16_33 H 0.1077 0.7136 0.1498
C26_33 C 0.07784(7) 0.68701(7) 0.15834(7)
N10_33 N 0.06257(5) 0.67319(6) 0.15705(6)
C27_33 C 0.13841(8) 0.66733(7) 0.23274(7)
H17_33 H 0.1491 0.6660 0.2429
C28_33 C 0.13748(8) 0.68527(8) 0.22148(8)
H18_33 H 0.1473 0.6961 0.2238
C29_33 C 0.12182(8) 0.68761(7) 0.20631(8)
H19_33 H 0.1207 0.7000 0.1983
C30_33 C 0.10798(7) 0.67105(7) 0.20337(7)
C31_33 C 0.10987(6) 0.65334(6) 0.21559(6)
H20_33 H 0.1002 0.6423 0.2136
C32_33 C 0.09166(7) 0.67216(7) 0.18701(7)
N11_33 N 0.12489(5) 0.65109(6) 0.23025(5)
N12_33 N 0.09295(6) 0.68743(5) 0.17319(6)
C33_33 C 0.01726(7) 0.61159(8) 0.16733(7)
H21_33 H 0.0071 0.6009 0.1660
C34_33 C 0.02852(8) 0.61252(8) 0.18527(8)
H22_33 H 0.0262 0.6027 0.1961
C35_33 C 0.04369(8) 0.62818(8) 0.18761(7)
H23_33 H 0.0517 0.6293 0.2000
C36_33 C 0.04663(7) 0.64202(7) 0.17105(7)
C37_33 C 0.03441(6) 0.64013(6) 0.15334(6)
H24_33 H 0.0364 0.6498 0.1423
C38_33 C 0.06299(7) 0.65834(7) 0.17216(7)
N14_33 N 0.07681(6) 0.65705(6) 0.18743(5)
C57_33 C 0.17519(8) 0.62829(9) 0.24936(7)
N21_33 N 0.15744(6) 0.62682(5) 0.25124(5)
S3_33 S 0.20027(3) 0.63023(7) 0.24673(3)
C132_33 C 0.07481(8) 0.62171(9) 0.24936(7)
N48_33 N 0.09256(6) 0.62318(5) 0.25124(5)
S6_33 S 0.04973(3) 0.61977(7) 0.24673(3)
C21_34 C 0.16733(7) 0.23274(7) 0.63841(8)
H13_34 H 0.1660 0.2429 0.6491
C22_34 C 0.18527(8) 0.22148(8) 0.63748(8)
H14_34 H 0.1961 0.2238 0.6473
C23_34 C 0.18761(7) 0.20631(8) 0.62182(8)
H15_34 H 0.2000 0.1983 0.6207
C24_34 C 0.17105(7) 0.20337(7) 0.60798(7)
C25_34 C 0.15334(6) 0.21559(6) 0.60987(6)
H16_34 H 0.1423 0.2136 0.6002
C26_34 C 0.17216(7) 0.18701(7) 0.59166(7)
N10_34 N 0.18743(5) 0.17319(6) 0.59295(6)
C27_34 C 0.11159(8) 0.16733(7) 0.51726(7)
H17_34 H 0.1009 0.1660 0.5071
C28_34 C 0.11252(8) 0.18527(8) 0.52852(8)
H18_34 H 0.1027 0.1961 0.5262
C29_34 C 0.12818(8) 0.18761(7) 0.54369(8)
H19_34 H 0.1293 0.2000 0.5517
C30_34 C 0.14202(7) 0.17105(7) 0.54663(7)
C31_34 C 0.14013(6) 0.15334(6) 0.53441(6)
H20_34 H 0.1498 0.1423 0.5364
C32_34 C 0.15834(7) 0.17216(7) 0.56299(7)
N11_34 N 0.12511(5) 0.15109(6) 0.51975(5)
N12_34 N 0.15705(6) 0.18743(5) 0.57681(6)
C33_34 C 0.23274(7) 0.11159(8) 0.58267(7)
H21_34 H 0.2429 0.1009 0.5840
C34_34 C 0.22148(8) 0.11252(8) 0.56473(8)
H22_34 H 0.2238 0.1027 0.5539
C35_34 C 0.20631(8) 0.12818(8) 0.56239(7)
H23_34 H 0.1983 0.1293 0.5500
C36_34 C 0.20337(7) 0.14202(7) 0.57895(7)
C37_34 C 0.21559(6) 0.14013(6) 0.59666(6)
H24_34 H 0.2136 0.1498 0.6077
C38_34 C 0.18701(7) 0.15834(7) 0.57784(7)
N14_34 N 0.17319(6) 0.15705(6) 0.56257(5)
C57_34 C 0.07481(8) 0.12829(9) 0.50064(7)
N21_34 N 0.09256(6) 0.12682(5) 0.49876(5)
S3_34 S 0.04973(3) 0.13023(7) 0.50327(3)
C132_34 C 0.17519(8) 0.12171(9) 0.50064(7)
N48_34 N 0.15744(6) 0.12318(5) 0.49876(5)
S6_34 S 0.20027(3) 0.11977(7) 0.50327(3)
C21_35 C 0.58267(7) 0.01726(7) 0.13841(8)
H13_35 H 0.5840 0.0071 0.1491
C22_35 C 0.56473(8) 0.02852(8) 0.13748(8)
H14_35 H 0.5539 0.0262 0.1473
C23_35 C 0.56239(7) 0.04369(8) 0.12182(8)
H15_35 H 0.5500 0.0517 0.1207
C24_35 C 0.57895(7) 0.04663(7) 0.10798(7)
C25_35 C 0.59666(6) 0.03441(6) 0.10987(6)
H16_35 H 0.6077 0.0364 0.1002
C26_35 C 0.57784(7) 0.06299(7) 0.09166(7)
N10_35 N 0.56257(5) 0.07681(6) 0.09295(6)
C27_35 C 0.63841(8) 0.08267(7) 0.01726(7)
H17_35 H 0.6491 0.0840 0.0071
C28_35 C 0.63748(8) 0.06473(8) 0.02852(8)
H18_35 H 0.6473 0.0539 0.0262
C29_35 C 0.62182(8) 0.06239(7) 0.04369(8)
H19_35 H 0.6207 0.0500 0.0517
C30_35 C 0.60798(7) 0.07895(7) 0.04663(7)
C31_35 C 0.60987(6) 0.09666(6) 0.03441(6)
H20_35 H 0.6002 0.1077 0.0364
C32_35 C 0.59166(7) 0.07784(7) 0.06299(7)
N11_35 N 0.62489(5) 0.09891(6) 0.01975(5)
N12_35 N 0.59295(6) 0.06257(5) 0.07681(6)
C33_35 C 0.51726(7) 0.13841(8) 0.08267(7)
H21_35 H 0.5071 0.1491 0.0840
C34_35 C 0.52852(8) 0.13748(8) 0.06473(8)
H22_35 H 0.5262 0.1473 0.0539
C35_35 C 0.54369(8) 0.12182(8) 0.06239(7)
H23_35 H 0.5517 0.1207 0.0500
C36_35 C 0.54663(7) 0.10798(7) 0.07895(7)
C37_35 C 0.53441(6) 0.10987(6) 0.09666(6)
H24_35 H 0.5364 0.1002 0.1077
C38_35 C 0.56299(7) 0.09166(7) 0.07784(7)
N14_35 N 0.57681(6) 0.09295(6) 0.06257(5)
C57_35 C 0.67519(8) 0.12171(9) 0.00064(7)
S3_35 S 0.70027(3) 0.11977(7) 0.00327(3)
C132_35 C 0.57481(8) 0.12829(9) 0.00064(7)
S6_35 S 0.54973(3) 0.13023(7) 0.00327(3)
N21_35 N 0.65744(6) 0.12318(5) 0.99876(5)
N48_35 N 0.59256(6) 0.12682(5) 0.99876(5)
C21_36 C 0.66733(7) 0.51726(7) 0.61159(8)
H13_36 H 0.6660 0.5071 0.6009
C22_36 C 0.68527(8) 0.52852(8) 0.61252(8)
H14_36 H 0.6961 0.5262 0.6027
C23_36 C 0.68761(7) 0.54369(8) 0.62818(8)
H15_36 H 0.7000 0.5517 0.6293
C24_36 C 0.67105(7) 0.54663(7) 0.64202(7)
C25_36 C 0.65334(6) 0.53441(6) 0.64013(6)
H16_36 H 0.6423 0.5364 0.6498
C26_36 C 0.67216(7) 0.56299(7) 0.65834(7)
N10_36 N 0.68743(5) 0.57681(6) 0.65705(6)
C27_36 C 0.61159(8) 0.58267(7) 0.73274(7)
H17_36 H 0.6009 0.5840 0.7429
C28_36 C 0.61252(8) 0.56473(8) 0.72148(8)
H18_36 H 0.6027 0.5539 0.7238
C29_36 C 0.62818(8) 0.56239(7) 0.70631(8)
H19_36 H 0.6293 0.5500 0.6983
C30_36 C 0.64202(7) 0.57895(7) 0.70337(7)
C31_36 C 0.64013(6) 0.59666(6) 0.71559(6)
H20_36 H 0.6498 0.6077 0.7136
C32_36 C 0.65834(7) 0.57784(7) 0.68701(7)
N11_36 N 0.62511(5) 0.59891(6) 0.73025(5)
N12_36 N 0.65705(6) 0.56257(5) 0.67319(6)
C33_36 C 0.73274(7) 0.63841(8) 0.66733(7)
H21_36 H 0.7429 0.6491 0.6660
C34_36 C 0.72148(8) 0.63748(8) 0.68527(8)
H22_36 H 0.7238 0.6473 0.6961
C35_36 C 0.70631(8) 0.62182(8) 0.68761(7)
H23_36 H 0.6983 0.6207 0.7000
C36_36 C 0.70337(7) 0.60798(7) 0.67105(7)
C37_36 C 0.71559(6) 0.60987(6) 0.65334(6)
H24_36 H 0.7136 0.6002 0.6423
C38_36 C 0.68701(7) 0.59166(7) 0.67216(7)
N14_36 N 0.67319(6) 0.59295(6) 0.68743(5)
C57_36 C 0.57481(8) 0.62171(9) 0.74936(7)
N21_36 N 0.59256(6) 0.62318(5) 0.75124(5)
S3_36 S 0.54973(3) 0.61977(7) 0.74673(3)
C132_36 C 0.67519(8) 0.62829(9) 0.74936(7)
N48_36 N 0.65744(6) 0.62682(5) 0.75124(5)
S6_36 S 0.70027(3) 0.63023(7) 0.74673(3)
N21_37 N 0.40744(6) 0.00124(5) 0.37318(5)
N48_37 N 0.34256(6) 0.00124(5) 0.37682(5)
C20_25 C 0.37171(9) 0.82481(8) 0.25064(7)
C21_37 C 0.33267(7) 0.86159(8) 0.26726(7)
H13_37 H 0.3340 0.8509 0.2571
C22_37 C 0.31473(8) 0.86252(8) 0.27852(8)
H14_37 H 0.3039 0.8527 0.2762
C23_37 C 0.31239(7) 0.87818(8) 0.29369(8)
H15_37 H 0.3000 0.8793 0.3017
C24_37 C 0.32895(7) 0.89202(7) 0.29663(7)
C25_37 C 0.34666(6) 0.89013(6) 0.28441(6)
H16_37 H 0.3577 0.8998 0.2864
C26_37 C 0.32784(7) 0.90834(7) 0.31299(7)
N8_25 N 0.37318(5) 0.84256(6) 0.24876(5)
N9_25 N 0.34891(6) 0.87511(5) 0.26975(5)
N10_37 N 0.31257(5) 0.90705(6) 0.32681(6)
S2_25 S 0.36977(7) 0.79973(3) 0.25327(3)
C27_37 C 0.38841(8) 0.98274(7) 0.33267(7)
H17_37 H 0.3991 0.9929 0.3340
C28_37 C 0.38748(8) 0.97148(8) 0.31473(8)
H18_37 H 0.3973 0.9738 0.3039
C29_37 C 0.37182(8) 0.95631(8) 0.31239(7)
H19_37 H 0.3707 0.9483 0.3000
C30_37 C 0.35798(7) 0.95337(7) 0.32895(7)
C31_37 C 0.35987(6) 0.96559(6) 0.34666(6)
H20_37 H 0.3502 0.9636 0.3577
C32_37 C 0.34166(7) 0.93701(7) 0.32784(7)
N11_37 N 0.37489(5) 0.98025(5) 0.34891(6)
N12_37 N 0.34295(6) 0.92319(6) 0.31257(5)
C33_37 C 0.26726(7) 0.91733(7) 0.38841(8)
H21_37 H 0.2571 0.9160 0.3991
C34_37 C 0.27852(8) 0.93527(8) 0.38748(8)
H22_37 H 0.2762 0.9461 0.3973
C35_37 C 0.29369(8) 0.93761(7) 0.37182(8)
H23_37 H 0.3017 0.9500 0.3707
C36_37 C 0.29663(7) 0.92105(7) 0.35798(7)
C37_37 C 0.28441(6) 0.90334(6) 0.35987(6)
H24_37 H 0.2864 0.8923 0.3502
C38_37 C 0.31299(7) 0.92216(7) 0.34166(7)
N13_25 N 0.26975(5) 0.90109(6) 0.37489(5)
N14_37 N 0.32681(6) 0.93743(5) 0.34295(6)
C57_37 C 0.42519(8) 0.99936(7) 0.37171(9)
S3_37 S 0.45027(3) 0.99673(3) 0.36977(7)
C76_13 C 0.49936(7) 0.87171(9) 0.42519(8)
C77_13 C 0.48274(7) 0.83267(7) 0.38841(8)
H49_13 H 0.4929 0.8340 0.3991
C78_13 C 0.47148(8) 0.81473(8) 0.38748(8)
H50_13 H 0.4738 0.8039 0.3973
C79_13 C 0.45631(8) 0.81239(7) 0.37182(8)
H51_13 H 0.4483 0.8000 0.3707
C80_13 C 0.45337(7) 0.82895(7) 0.35798(7)
C81_13 C 0.46559(6) 0.84666(6) 0.35987(6)
H52_13 H 0.4636 0.8577 0.3502
C82_13 C 0.43701(7) 0.82784(7) 0.34166(7)
N28_13 N 0.50124(5) 0.87318(5) 0.40744(6)
N29_13 N 0.48025(5) 0.84891(6) 0.37489(5)
N30_13 N 0.42319(6) 0.81257(5) 0.34295(6)
S4_13 S 0.49673(3) 0.86977(7) 0.45027(3)
C83_13 C 0.41733(7) 0.88841(8) 0.26726(7)
H53_13 H 0.4160 0.8991 0.2571
C84_13 C 0.43527(8) 0.88748(8) 0.27852(8)
H54_13 H 0.4461 0.8973 0.2762
C85_13 C 0.43761(7) 0.87182(8) 0.29369(8)
H55_13 H 0.4500 0.8707 0.3017
C86_13 C 0.42105(7) 0.85798(7) 0.29663(7)
C87_13 C 0.40334(6) 0.85987(6) 0.28441(6)
H56_13 H 0.3923 0.8502 0.2864
C88_13 C 0.42216(7) 0.84166(7) 0.31299(7)
N31_13 N 0.40109(6) 0.87489(5) 0.26975(5)
N32_13 N 0.43743(5) 0.84295(6) 0.32681(6)
C89_13 C 0.36159(8) 0.76726(7) 0.33267(7)
H57_13 H 0.3509 0.7571 0.3340
C90_13 C 0.36252(8) 0.77852(8) 0.31473(8)
H58_13 H 0.3527 0.7762 0.3039
C91_13 C 0.37818(8) 0.79369(8) 0.31239(7)
H59_13 H 0.3793 0.8017 0.3000
C92_13 C 0.39202(7) 0.79663(7) 0.32895(7)
C93_13 C 0.39013(6) 0.78441(6) 0.34666(6)
H60_13 H 0.3998 0.7864 0.3577
C94_13 C 0.40834(7) 0.81299(7) 0.32784(7)
N33_13 N 0.37511(5) 0.76975(5) 0.34891(6)
N34_13 N 0.40705(6) 0.82681(6) 0.31257(5)
C113_25 C 0.37829(9) 0.92519(8) 0.25064(7)
N41_25 N 0.37682(5) 0.90744(6) 0.24876(5)
S5_25 S 0.38023(7) 0.95027(3) 0.25327(3)
C132_37 C 0.32481(8) 0.99936(7) 0.37829(9)
S6_37 S 0.29973(3) 0.99673(3) 0.38023(7)
C153_13 C 0.49936(7) 0.87829(9) 0.32481(8)
N57_13 N 0.50124(5) 0.87682(5) 0.34256(6)
S9_13 S 0.49673(3) 0.88023(7) 0.29973(3)
N70_13 N 0.48025(5) 0.90109(6) 0.37511(5)
N71_13 N 0.37511(5) 0.98025(5) 0.40109(6)
C20_26 C 0.37829(9) 0.42519(8) 0.75064(7)
C21_38 C 0.41733(7) 0.38841(8) 0.76726(7)
H13_38 H 0.4160 0.3991 0.7571
C22_38 C 0.43527(8) 0.38748(8) 0.77852(8)
H14_38 H 0.4461 0.3973 0.7762
C23_38 C 0.43761(7) 0.37182(8) 0.79369(8)
H15_38 H 0.4500 0.3707 0.8017
C24_38 C 0.42105(7) 0.35798(7) 0.79663(7)
C25_38 C 0.40334(6) 0.35987(6) 0.78441(6)
H16_38 H 0.3923 0.3502 0.7864
C26_38 C 0.42216(7) 0.34166(7) 0.81299(7)
N8_26 N 0.37682(5) 0.40744(6) 0.74876(5)
N9_26 N 0.40109(6) 0.37489(5) 0.76975(5)
N10_38 N 0.43743(5) 0.34295(6) 0.82681(6)
S2_26 S 0.38023(7) 0.45027(3) 0.75327(3)
C27_38 C 0.36159(8) 0.26726(7) 0.83267(7)
H17_38 H 0.3509 0.2571 0.8340
C28_38 C 0.36252(8) 0.27852(8) 0.81473(8)
H18_38 H 0.3527 0.2762 0.8039
C29_38 C 0.37818(8) 0.29369(8) 0.81239(7)
H19_38 H 0.3793 0.3017 0.8000
C30_38 C 0.39202(7) 0.29663(7) 0.82895(7)
C31_38 C 0.39013(6) 0.28441(6) 0.84666(6)
H20_38 H 0.3998 0.2864 0.8577
C32_38 C 0.40834(7) 0.31299(7) 0.82784(7)
N11_38 N 0.37511(5) 0.26975(5) 0.84891(6)
N12_38 N 0.40705(6) 0.32681(6) 0.81257(5)
C33_38 C 0.48274(7) 0.33267(7) 0.88841(8)
H21_38 H 0.4929 0.3340 0.8991
C34_38 C 0.47148(8) 0.31473(8) 0.88748(8)
H22_38 H 0.4738 0.3039 0.8973
C35_38 C 0.45631(8) 0.31239(7) 0.87182(8)
H23_38 H 0.4483 0.3000 0.8707
C36_38 C 0.45337(7) 0.32895(7) 0.85798(7)
C37_38 C 0.46559(6) 0.34666(6) 0.85987(6)
H24_38 H 0.4636 0.3577 0.8502
C38_38 C 0.43701(7) 0.32784(7) 0.84166(7)
N13_26 N 0.48025(5) 0.34891(6) 0.87489(5)
N14_38 N 0.42319(6) 0.31257(5) 0.84295(6)
C57_38 C 0.32481(8) 0.25064(7) 0.87171(9)
N21_38 N 0.34256(6) 0.24876(5) 0.87318(5)
S3_38 S 0.29973(3) 0.25327(3) 0.86977(7)
C76_14 C 0.25064(7) 0.37829(9) 0.92519(8)
C77_14 C 0.26726(7) 0.41733(7) 0.88841(8)
H49_14 H 0.2571 0.4160 0.8991
C78_14 C 0.27852(8) 0.43527(8) 0.88748(8)
H50_14 H 0.2762 0.4461 0.8973
C79_14 C 0.29369(8) 0.43761(7) 0.87182(8)
H51_14 H 0.3017 0.4500 0.8707
C80_14 C 0.29663(7) 0.42105(7) 0.85798(7)
C81_14 C 0.28441(6) 0.40334(6) 0.85987(6)
H52_14 H 0.2864 0.3923 0.8502
C82_14 C 0.31299(7) 0.42216(7) 0.84166(7)
N28_14 N 0.24876(5) 0.37682(5) 0.90744(6)
N29_14 N 0.26975(5) 0.40109(6) 0.87489(5)
N30_14 N 0.32681(6) 0.43743(5) 0.84295(6)
S4_14 S 0.25327(3) 0.38023(7) 0.95027(3)
C83_14 C 0.33267(7) 0.36159(8) 0.76726(7)
H53_14 H 0.3340 0.3509 0.7571
C84_14 C 0.31473(8) 0.36252(8) 0.77852(8)
H54_14 H 0.3039 0.3527 0.7762
C85_14 C 0.31239(7) 0.37818(8) 0.79369(8)
H55_14 H 0.3000 0.3793 0.8017
C86_14 C 0.32895(7) 0.39202(7) 0.79663(7)
C87_14 C 0.34666(6) 0.39013(6) 0.78441(6)
H56_14 H 0.3577 0.3998 0.7864
C88_14 C 0.32784(7) 0.40834(7) 0.81299(7)
N31_14 N 0.34891(6) 0.37511(5) 0.76975(5)
N32_14 N 0.31257(5) 0.40705(6) 0.82681(6)
C89_14 C 0.38841(8) 0.48274(7) 0.83267(7)
H57_14 H 0.3991 0.4929 0.8340
C90_14 C 0.38748(8) 0.47148(8) 0.81473(8)
H58_14 H 0.3973 0.4738 0.8039
C91_14 C 0.37182(8) 0.45631(8) 0.81239(7)
H59_14 H 0.3707 0.4483 0.8000
C92_14 C 0.35798(7) 0.45337(7) 0.82895(7)
C93_14 C 0.35987(6) 0.46559(6) 0.84666(6)
H60_14 H 0.3502 0.4636 0.8577
C94_14 C 0.34166(7) 0.43701(7) 0.82784(7)
N33_14 N 0.37489(5) 0.48025(5) 0.84891(6)
N34_14 N 0.34295(6) 0.42319(6) 0.81257(5)
C113_26 C 0.37171(9) 0.32481(8) 0.75064(7)
N41_26 N 0.37318(5) 0.34256(6) 0.74876(5)
S5_26 S 0.36977(7) 0.29973(3) 0.75327(3)
C132_38 C 0.42519(8) 0.25064(7) 0.87829(9)
N48_38 N 0.40744(6) 0.24876(5) 0.87682(5)
S6_38 S 0.45027(3) 0.25327(3) 0.88023(7)
C153_14 C 0.25064(7) 0.37171(9) 0.82481(8)
N57_14 N 0.24876(5) 0.37318(5) 0.84256(6)
S9_14 S 0.25327(3) 0.36977(7) 0.79973(3)
N70_14 N 0.26975(5) 0.34891(6) 0.87511(5)
N71_14 N 0.37489(5) 0.26975(5) 0.90109(6)
N28_15 N 0.00124(5) 0.87682(5) 0.84256(6)
N57_15 N 0.00124(5) 0.87318(5) 0.90744(6)
N8_27 N 0.87318(5) 0.90744(6) 0.00124(5)
N41_27 N 0.87682(5) 0.84256(6) 0.00124(5)
C20_27 C 0.87171(9) 0.92519(8) 0.99936(7)
C21_39 C 0.83267(7) 0.88841(8) 0.98274(7)
H13_39 H 0.8340 0.8991 0.9929
C22_39 C 0.81473(8) 0.88748(8) 0.97148(8)
H14_39 H 0.8039 0.8973 0.9738
C23_39 C 0.81239(7) 0.87182(8) 0.95631(8)
H15_39 H 0.8000 0.8707 0.9483
C24_39 C 0.82895(7) 0.85798(7) 0.95337(7)
C25_39 C 0.84666(6) 0.85987(6) 0.96559(6)
H16_39 H 0.8577 0.8502 0.9636
C26_39 C 0.82784(7) 0.84166(7) 0.93701(7)
N9_27 N 0.84891(6) 0.87489(5) 0.98025(5)
N10_39 N 0.81257(5) 0.84295(6) 0.92319(6)
S2_27 S 0.86977(7) 0.95027(3) 0.99673(3)
C27_39 C 0.88841(8) 0.76726(7) 0.91733(7)
H17_39 H 0.8991 0.7571 0.9160
C28_39 C 0.88748(8) 0.77852(8) 0.93527(8)
H18_39 H 0.8973 0.7762 0.9461
C29_39 C 0.87182(8) 0.79369(8) 0.93761(7)
H19_39 H 0.8707 0.8017 0.9500
C30_39 C 0.85798(7) 0.79663(7) 0.92105(7)
C31_39 C 0.85987(6) 0.78441(6) 0.90334(6)
H20_39 H 0.8502 0.7864 0.8923
C32_39 C 0.84166(7) 0.81299(7) 0.92216(7)
N11_39 N 0.87489(5) 0.76975(5) 0.90109(6)
N12_39 N 0.84295(6) 0.82681(6) 0.93743(5)
C33_39 C 0.76726(7) 0.83267(7) 0.86159(8)
H21_39 H 0.7571 0.8340 0.8509
C34_39 C 0.77852(8) 0.81473(8) 0.86252(8)
H22_39 H 0.7762 0.8039 0.8527
C35_39 C 0.79369(8) 0.81239(7) 0.87818(8)
H23_39 H 0.8017 0.8000 0.8793
C36_39 C 0.79663(7) 0.82895(7) 0.89202(7)
C37_39 C 0.78441(6) 0.84666(6) 0.89013(6)
H24_39 H 0.7864 0.8577 0.8998
C38_39 C 0.81299(7) 0.82784(7) 0.90834(7)
N13_27 N 0.76975(5) 0.84891(6) 0.87511(5)
N14_39 N 0.82681(6) 0.81257(5) 0.90705(6)
C57_39 C 0.92519(8) 0.75064(7) 0.87829(9)
N21_39 N 0.90744(6) 0.74876(5) 0.87682(5)
S3_39 S 0.95027(3) 0.75327(3) 0.88023(7)
C76_15 C 0.99936(7) 0.87829(9) 0.82481(8)
C77_15 C 0.98274(7) 0.91733(7) 0.86159(8)
H49_15 H 0.9929 0.9160 0.8509
C78_15 C 0.97148(8) 0.93527(8) 0.86252(8)
H50_15 H 0.9738 0.9461 0.8527
C79_15 C 0.95631(8) 0.93761(7) 0.87818(8)
H51_15 H 0.9483 0.9500 0.8793
C80_15 C 0.95337(7) 0.92105(7) 0.89202(7)
C81_15 C 0.96559(6) 0.90334(6) 0.89013(6)
H52_15 H 0.9636 0.8923 0.8998
C82_15 C 0.93701(7) 0.92216(7) 0.90834(7)
N29_15 N 0.98025(5) 0.90109(6) 0.87511(5)
N30_15 N 0.92319(6) 0.93743(5) 0.90705(6)
S4_15 S 0.99673(3) 0.88023(7) 0.79973(3)
C83_15 C 0.91733(7) 0.86159(8) 0.98274(7)
H53_15 H 0.9160 0.8509 0.9929
C84_15 C 0.93527(8) 0.86252(8) 0.97148(8)
H54_15 H 0.9461 0.8527 0.9738
C85_15 C 0.93761(7) 0.87818(8) 0.95631(8)
H55_15 H 0.9500 0.8793 0.9483
C86_15 C 0.92105(7) 0.89202(7) 0.95337(7)
C87_15 C 0.90334(6) 0.89013(6) 0.96559(6)
H56_15 H 0.8923 0.8998 0.9636
C88_15 C 0.92216(7) 0.90834(7) 0.93701(7)
N31_15 N 0.90109(6) 0.87511(5) 0.98025(5)
N32_15 N 0.93743(5) 0.90705(6) 0.92319(6)
C89_15 C 0.86159(8) 0.98274(7) 0.91733(7)
H57_15 H 0.8509 0.9929 0.9160
C90_15 C 0.86252(8) 0.97148(8) 0.93527(8)
H58_15 H 0.8527 0.9738 0.9461
C91_15 C 0.87818(8) 0.95631(8) 0.93761(7)
H59_15 H 0.8793 0.9483 0.9500
C92_15 C 0.89202(7) 0.95337(7) 0.92105(7)
C93_15 C 0.89013(6) 0.96559(6) 0.90334(6)
H60_15 H 0.8998 0.9636 0.8923
C94_15 C 0.90834(7) 0.93701(7) 0.92216(7)
N33_15 N 0.87511(5) 0.98025(5) 0.90109(6)
N34_15 N 0.90705(6) 0.92319(6) 0.93743(5)
C113_27 C 0.87829(9) 0.82481(8) 0.99936(7)
S5_27 S 0.88023(7) 0.79973(3) 0.99673(3)
C132_39 C 0.82481(8) 0.75064(7) 0.87171(9)
N48_39 N 0.84256(6) 0.74876(5) 0.87318(5)
S6_39 S 0.79973(3) 0.75327(3) 0.86977(7)
C153_15 C 0.99936(7) 0.87171(9) 0.92519(8)
S9_15 S 0.99673(3) 0.86977(7) 0.95027(3)
N70_15 N 0.98025(5) 0.84891(6) 0.87489(5)
N71_15 N 0.87511(5) 0.76975(5) 0.84891(6)
C20_28 C 0.87829(9) 0.32481(8) 0.49936(7)
C21_40 C 0.91733(7) 0.36159(8) 0.48274(7)
H13_40 H 0.9160 0.3509 0.4929
C22_40 C 0.93527(8) 0.36252(8) 0.47148(8)
H14_40 H 0.9461 0.3527 0.4738
C23_40 C 0.93761(7) 0.37818(8) 0.45631(8)
H15_40 H 0.9500 0.3793 0.4483
C24_40 C 0.92105(7) 0.39202(7) 0.45337(7)
C25_40 C 0.90334(6) 0.39013(6) 0.46559(6)
H16_40 H 0.8923 0.3998 0.4636
C26_40 C 0.92216(7) 0.40834(7) 0.43701(7)
N8_28 N 0.87682(5) 0.34256(6) 0.50124(5)
N9_28 N 0.90109(6) 0.37511(5) 0.48025(5)
N10_40 N 0.93743(5) 0.40705(6) 0.42319(6)
S2_28 S 0.88023(7) 0.29973(3) 0.49673(3)
C27_40 C 0.86159(8) 0.48274(7) 0.41733(7)
H17_40 H 0.8509 0.4929 0.4160
C28_40 C 0.86252(8) 0.47148(8) 0.43527(8)
H18_40 H 0.8527 0.4738 0.4461
C29_40 C 0.87818(8) 0.45631(8) 0.43761(7)
H19_40 H 0.8793 0.4483 0.4500
C30_40 C 0.89202(7) 0.45337(7) 0.42105(7)
C31_40 C 0.89013(6) 0.46559(6) 0.40334(6)
H20_40 H 0.8998 0.4636 0.3923
C32_40 C 0.90834(7) 0.43701(7) 0.42216(7)
N11_40 N 0.87511(5) 0.48025(5) 0.40109(6)
N12_40 N 0.90705(6) 0.42319(6) 0.43743(5)
C33_40 C 0.98274(7) 0.41733(7) 0.36159(8)
H21_40 H 0.9929 0.4160 0.3509
C34_40 C 0.97148(8) 0.43527(8) 0.36252(8)
H22_40 H 0.9738 0.4461 0.3527
C35_40 C 0.95631(8) 0.43761(7) 0.37818(8)
H23_40 H 0.9483 0.4500 0.3793
C36_40 C 0.95337(7) 0.42105(7) 0.39202(7)
C37_40 C 0.96559(6) 0.40334(6) 0.39013(6)
H24_40 H 0.9636 0.3923 0.3998
C38_40 C 0.93701(7) 0.42216(7) 0.40834(7)
N13_28 N 0.98025(5) 0.40109(6) 0.37511(5)
N14_40 N 0.92319(6) 0.43743(5) 0.40705(6)
C57_40 C 0.82481(8) 0.49936(7) 0.37829(9)
N21_40 N 0.84256(6) 0.50124(5) 0.37682(5)
S3_40 S 0.79973(3) 0.49673(3) 0.38023(7)
C76_16 C 0.75064(7) 0.37171(9) 0.32481(8)
C77_16 C 0.76726(7) 0.33267(7) 0.36159(8)
H49_16 H 0.7571 0.3340 0.3509
C78_16 C 0.77852(8) 0.31473(8) 0.36252(8)
H50_16 H 0.7762 0.3039 0.3527
C79_16 C 0.79369(8) 0.31239(7) 0.37818(8)
H51_16 H 0.8017 0.3000 0.3793
C80_16 C 0.79663(7) 0.32895(7) 0.39202(7)
C81_16 C 0.78441(6) 0.34666(6) 0.39013(6)
H52_16 H 0.7864 0.3577 0.3998
C82_16 C 0.81299(7) 0.32784(7) 0.40834(7)
N28_16 N 0.74876(5) 0.37318(5) 0.34256(6)
N29_16 N 0.76975(5) 0.34891(6) 0.37511(5)
N30_16 N 0.82681(6) 0.31257(5) 0.40705(6)
S4_16 S 0.75327(3) 0.36977(7) 0.29973(3)
C83_16 C 0.83267(7) 0.38841(8) 0.48274(7)
H53_16 H 0.8340 0.3991 0.4929
C84_16 C 0.81473(8) 0.38748(8) 0.47148(8)
H54_16 H 0.8039 0.3973 0.4738
C85_16 C 0.81239(7) 0.37182(8) 0.45631(8)
H55_16 H 0.8000 0.3707 0.4483
C86_16 C 0.82895(7) 0.35798(7) 0.45337(7)
C87_16 C 0.84666(6) 0.35987(6) 0.46559(6)
H56_16 H 0.8577 0.3502 0.4636
C88_16 C 0.82784(7) 0.34166(7) 0.43701(7)
N31_16 N 0.84891(6) 0.37489(5) 0.48025(5)
N32_16 N 0.81257(5) 0.34295(6) 0.42319(6)
C89_16 C 0.88841(8) 0.26726(7) 0.41733(7)
H57_16 H 0.8991 0.2571 0.4160
C90_16 C 0.88748(8) 0.27852(8) 0.43527(8)
H58_16 H 0.8973 0.2762 0.4461
C91_16 C 0.87182(8) 0.29369(8) 0.43761(7)
H59_16 H 0.8707 0.3017 0.4500
C92_16 C 0.85798(7) 0.29663(7) 0.42105(7)
C93_16 C 0.85987(6) 0.28441(6) 0.40334(6)
H60_16 H 0.8502 0.2864 0.3923
C94_16 C 0.84166(7) 0.31299(7) 0.42216(7)
N33_16 N 0.87489(5) 0.26975(5) 0.40109(6)
N34_16 N 0.84295(6) 0.32681(6) 0.43743(5)
C113_28 C 0.87171(9) 0.42519(8) 0.49936(7)
N41_28 N 0.87318(5) 0.40744(6) 0.50124(5)
S5_28 S 0.86977(7) 0.45027(3) 0.49673(3)
C132_40 C 0.92519(8) 0.49936(7) 0.37171(9)
N48_40 N 0.90744(6) 0.50124(5) 0.37318(5)
S6_40 S 0.95027(3) 0.49673(3) 0.36977(7)
C153_16 C 0.75064(7) 0.37829(9) 0.42519(8)
N57_16 N 0.74876(5) 0.37682(5) 0.40744(6)
S9_16 S 0.75327(3) 0.38023(7) 0.45027(3)
N70_16 N 0.76975(5) 0.40109(6) 0.37489(5)
N71_16 N 0.87489(5) 0.48025(5) 0.34891(6)
C20_29 C 0.32481(8) 0.49936(7) 0.87829(9)
C21_41 C 0.36159(8) 0.48274(7) 0.91733(7)
H13_41 H 0.3509 0.4929 0.9160
C22_41 C 0.36252(8) 0.47148(8) 0.93527(8)
H14_41 H 0.3527 0.4738 0.9461
C23_41 C 0.37818(8) 0.45631(8) 0.93761(7)
H15_41 H 0.3793 0.4483 0.9500
C24_41 C 0.39202(7) 0.45337(7) 0.92105(7)
C25_41 C 0.39013(6) 0.46559(6) 0.90334(6)
H16_41 H 0.3998 0.4636 0.8923
C26_41 C 0.40834(7) 0.43701(7) 0.92216(7)
N8_29 N 0.34256(6) 0.50124(5) 0.87682(5)
N9_29 N 0.37511(5) 0.48025(5) 0.90109(6)
N10_41 N 0.40705(6) 0.42319(6) 0.93743(5)
S2_29 S 0.29973(3) 0.49673(3) 0.88023(7)
C27_41 C 0.48274(7) 0.41733(7) 0.86159(8)
H17_41 H 0.4929 0.4160 0.8509
C28_41 C 0.47148(8) 0.43527(8) 0.86252(8)
H18_41 H 0.4738 0.4461 0.8527
C29_41 C 0.45631(8) 0.43761(7) 0.87818(8)
H19_41 H 0.4483 0.4500 0.8793
C30_41 C 0.45337(7) 0.42105(7) 0.89202(7)
C31_41 C 0.46559(6) 0.40334(6) 0.89013(6)
H20_41 H 0.4636 0.3923 0.8998
C32_41 C 0.43701(7) 0.42216(7) 0.90834(7)
N11_41 N 0.48025(5) 0.40109(6) 0.87511(5)
N12_41 N 0.42319(6) 0.43743(5) 0.90705(6)
C33_41 C 0.41733(7) 0.36159(8) 0.98274(7)
H21_41 H 0.4160 0.3509 0.9929
C34_41 C 0.43527(8) 0.36252(8) 0.97148(8)
H22_41 H 0.4461 0.3527 0.9738
C35_41 C 0.43761(7) 0.37818(8) 0.95631(8)
H23_41 H 0.4500 0.3793 0.9483
C36_41 C 0.42105(7) 0.39202(7) 0.95337(7)
C37_41 C 0.40334(6) 0.39013(6) 0.96559(6)
H24_41 H 0.3923 0.3998 0.9636
C38_41 C 0.42216(7) 0.40834(7) 0.93701(7)
N13_29 N 0.40109(6) 0.37511(5) 0.98025(5)
N14_41 N 0.43743(5) 0.40705(6) 0.92319(6)
C57_41 C 0.49936(7) 0.37829(9) 0.82481(8)
N21_41 N 0.50124(5) 0.37682(5) 0.84256(6)
S3_41 S 0.49673(3) 0.38023(7) 0.79973(3)
C113_29 C 0.42519(8) 0.49936(7) 0.87171(9)
N41_29 N 0.40744(6) 0.50124(5) 0.87318(5)
S5_29 S 0.45027(3) 0.49673(3) 0.86977(7)
C132_41 C 0.49936(7) 0.37171(9) 0.92519(8)
N48_41 N 0.50124(5) 0.37318(5) 0.90744(6)
S6_41 S 0.49673(3) 0.36977(7) 0.95027(3)
N8_30 N 0.90744(6) 0.00124(5) 0.87318(5)
N41_30 N 0.84256(6) 0.00124(5) 0.87682(5)
C20_30 C 0.92519(8) 0.99936(7) 0.87171(9)
C21_42 C 0.88841(8) 0.98274(7) 0.83267(7)
H13_42 H 0.8991 0.9929 0.8340
C22_42 C 0.88748(8) 0.97148(8) 0.81473(8)
H14_42 H 0.8973 0.9738 0.8039
C23_42 C 0.87182(8) 0.95631(8) 0.81239(7)
H15_42 H 0.8707 0.9483 0.8000
C24_42 C 0.85798(7) 0.95337(7) 0.82895(7)
C25_42 C 0.85987(6) 0.96559(6) 0.84666(6)
H16_42 H 0.8502 0.9636 0.8577
C26_42 C 0.84166(7) 0.93701(7) 0.82784(7)
N9_30 N 0.87489(5) 0.98025(5) 0.84891(6)
N10_42 N 0.84295(6) 0.92319(6) 0.81257(5)
S2_30 S 0.95027(3) 0.99673(3) 0.86977(7)
C27_42 C 0.76726(7) 0.91733(7) 0.88841(8)
H17_42 H 0.7571 0.9160 0.8991
C28_42 C 0.77852(8) 0.93527(8) 0.88748(8)
H18_42 H 0.7762 0.9461 0.8973
C29_42 C 0.79369(8) 0.93761(7) 0.87182(8)
H19_42 H 0.8017 0.9500 0.8707
C30_42 C 0.79663(7) 0.92105(7) 0.85798(7)
C31_42 C 0.78441(6) 0.90334(6) 0.85987(6)
H20_42 H 0.7864 0.8923 0.8502
C32_42 C 0.81299(7) 0.92216(7) 0.84166(7)
N11_42 N 0.76975(5) 0.90109(6) 0.87489(5)
N12_42 N 0.82681(6) 0.93743(5) 0.84295(6)
C33_42 C 0.83267(7) 0.86159(8) 0.76726(7)
H21_42 H 0.8340 0.8509 0.7571
C34_42 C 0.81473(8) 0.86252(8) 0.77852(8)
H22_42 H 0.8039 0.8527 0.7762
C35_42 C 0.81239(7) 0.87818(8) 0.79369(8)
H23_42 H 0.8000 0.8793 0.8017
C36_42 C 0.82895(7) 0.89202(7) 0.79663(7)
C37_42 C 0.84666(6) 0.89013(6) 0.78441(6)
H24_42 H 0.8577 0.8998 0.7864
C38_42 C 0.82784(7) 0.90834(7) 0.81299(7)
N13_30 N 0.84891(6) 0.87511(5) 0.76975(5)
N14_42 N 0.81257(5) 0.90705(6) 0.82681(6)
C57_42 C 0.75064(7) 0.87829(9) 0.92519(8)
N21_42 N 0.74876(5) 0.87682(5) 0.90744(6)
S3_42 S 0.75327(3) 0.88023(7) 0.95027(3)
C113_30 C 0.82481(8) 0.99936(7) 0.87829(9)
S5_30 S 0.79973(3) 0.99673(3) 0.88023(7)
C132_42 C 0.75064(7) 0.87171(9) 0.82481(8)
N48_42 N 0.74876(5) 0.87318(5) 0.84256(6)
S6_42 S 0.75327(3) 0.86977(7) 0.79973(3)
C20_31 C 0.42519(8) 0.75064(7) 0.37829(9)
C21_43 C 0.38841(8) 0.76726(7) 0.41733(7)
H13_43 H 0.3991 0.7571 0.4160
C22_43 C 0.38748(8) 0.77852(8) 0.43527(8)
H14_43 H 0.3973 0.7762 0.4461
C23_43 C 0.37182(8) 0.79369(8) 0.43761(7)
H15_43 H 0.3707 0.8017 0.4500
C24_43 C 0.35798(7) 0.79663(7) 0.42105(7)
C25_43 C 0.35987(6) 0.78441(6) 0.40334(6)
H16_43 H 0.3502 0.7864 0.3923
C26_43 C 0.34166(7) 0.81299(7) 0.42216(7)
N8_31 N 0.40744(6) 0.74876(5) 0.37682(5)
N9_31 N 0.37489(5) 0.76975(5) 0.40109(6)
N10_43 N 0.34295(6) 0.82681(6) 0.43743(5)
S2_31 S 0.45027(3) 0.75327(3) 0.38023(7)
C27_43 C 0.26726(7) 0.83267(7) 0.36159(8)
H17_43 H 0.2571 0.8340 0.3509
C28_43 C 0.27852(8) 0.81473(8) 0.36252(8)
H18_43 H 0.2762 0.8039 0.3527
C29_43 C 0.29369(8) 0.81239(7) 0.37818(8)
H19_43 H 0.3017 0.8000 0.3793
C30_43 C 0.29663(7) 0.82895(7) 0.39202(7)
C31_43 C 0.28441(6) 0.84666(6) 0.39013(6)
H20_43 H 0.2864 0.8577 0.3998
C32_43 C 0.31299(7) 0.82784(7) 0.40834(7)
N11_43 N 0.26975(5) 0.84891(6) 0.37511(5)
N12_43 N 0.32681(6) 0.81257(5) 0.40705(6)
C33_43 C 0.33267(7) 0.88841(8) 0.48274(7)
H21_43 H 0.3340 0.8991 0.4929
C34_43 C 0.31473(8) 0.88748(8) 0.47148(8)
H22_43 H 0.3039 0.8973 0.4738
C35_43 C 0.31239(7) 0.87182(8) 0.45631(8)
H23_43 H 0.3000 0.8707 0.4483
C36_43 C 0.32895(7) 0.85798(7) 0.45337(7)
C37_43 C 0.34666(6) 0.85987(6) 0.46559(6)
H24_43 H 0.3577 0.8502 0.4636
C38_43 C 0.32784(7) 0.84166(7) 0.43701(7)
N13_31 N 0.34891(6) 0.87489(5) 0.48025(5)
N14_43 N 0.31257(5) 0.84295(6) 0.42319(6)
C57_43 C 0.25064(7) 0.87171(9) 0.32481(8)
N21_43 N 0.24876(5) 0.87318(5) 0.34256(6)
S3_43 S 0.25327(3) 0.86977(7) 0.29973(3)
C113_31 C 0.32481(8) 0.75064(7) 0.37171(9)
N41_31 N 0.34256(6) 0.74876(5) 0.37318(5)
S5_31 S 0.29973(3) 0.75327(3) 0.36977(7)
C132_43 C 0.25064(7) 0.87829(9) 0.42519(8)
N48_43 N 0.24876(5) 0.87682(5) 0.40744(6)
S6_43 S 0.25327(3) 0.88023(7) 0.45027(3)
N21_44 N 0.00124(5) 0.37318(5) 0.40744(6)
N48_44 N 0.00124(5) 0.37682(5) 0.34256(6)
C20_32 C 0.82481(8) 0.25064(7) 0.37171(9)
C21_44 C 0.86159(8) 0.26726(7) 0.33267(7)
H13_44 H 0.8509 0.2571 0.3340
C22_44 C 0.86252(8) 0.27852(8) 0.31473(8)
H14_44 H 0.8527 0.2762 0.3039
C23_44 C 0.87818(8) 0.29369(8) 0.31239(7)
H15_44 H 0.8793 0.3017 0.3000
C24_44 C 0.89202(7) 0.29663(7) 0.32895(7)
C25_44 C 0.89013(6) 0.28441(6) 0.34666(6)
H16_44 H 0.8998 0.2864 0.3577
C26_44 C 0.90834(7) 0.31299(7) 0.32784(7)
N8_32 N 0.84256(6) 0.24876(5) 0.37318(5)
N9_32 N 0.87511(5) 0.26975(5) 0.34891(6)
N10_44 N 0.90705(6) 0.32681(6) 0.31257(5)
S2_32 S 0.79973(3) 0.25327(3) 0.36977(7)
C27_44 C 0.98274(7) 0.33267(7) 0.38841(8)
H17_44 H 0.9929 0.3340 0.3991
C28_44 C 0.97148(8) 0.31473(8) 0.38748(8)
H18_44 H 0.9738 0.3039 0.3973
C29_44 C 0.95631(8) 0.31239(7) 0.37182(8)
H19_44 H 0.9483 0.3000 0.3707
C30_44 C 0.95337(7) 0.32895(7) 0.35798(7)
C31_44 C 0.96559(6) 0.34666(6) 0.35987(6)
H20_44 H 0.9636 0.3577 0.3502
C32_44 C 0.93701(7) 0.32784(7) 0.34166(7)
N11_44 N 0.98025(5) 0.34891(6) 0.37489(5)
N12_44 N 0.92319(6) 0.31257(5) 0.34295(6)
C33_44 C 0.91733(7) 0.38841(8) 0.26726(7)
H21_44 H 0.9160 0.3991 0.2571
C34_44 C 0.93527(8) 0.38748(8) 0.27852(8)
H22_44 H 0.9461 0.3973 0.2762
C35_44 C 0.93761(7) 0.37182(8) 0.29369(8)
H23_44 H 0.9500 0.3707 0.3017
C36_44 C 0.92105(7) 0.35798(7) 0.29663(7)
C37_44 C 0.90334(6) 0.35987(6) 0.28441(6)
H24_44 H 0.8923 0.3502 0.2864
C38_44 C 0.92216(7) 0.34166(7) 0.31299(7)
N13_32 N 0.90109(6) 0.37489(5) 0.26975(5)
N14_44 N 0.93743(5) 0.34295(6) 0.32681(6)
C57_44 C 0.99936(7) 0.37171(9) 0.42519(8)
S3_44 S 0.99673(3) 0.36977(7) 0.45027(3)
C113_32 C 0.92519(8) 0.25064(7) 0.37829(9)
N41_32 N 0.90744(6) 0.24876(5) 0.37682(5)
S5_32 S 0.95027(3) 0.25327(3) 0.38023(7)
C132_44 C 0.99936(7) 0.37829(9) 0.32481(8)
S6_44 S 0.99673(3) 0.38023(7) 0.29973(3)
C21_45 C 0.98274(7) 0.83267(7) 0.88841(8)
H13_45 H 0.9929 0.8340 0.8991
C22_45 C 0.97148(8) 0.81473(8) 0.88748(8)
H14_45 H 0.9738 0.8039 0.8973
C23_45 C 0.95631(8) 0.81239(7) 0.87182(8)
H15_45 H 0.9483 0.8000 0.8707
C24_45 C 0.95337(7) 0.82895(7) 0.85798(7)
C25_45 C 0.96559(6) 0.84666(6) 0.85987(6)
H16_45 H 0.9636 0.8577 0.8502
C26_45 C 0.93701(7) 0.82784(7) 0.84166(7)
N10_45 N 0.92319(6) 0.81257(5) 0.84295(6)
C27_45 C 0.91733(7) 0.88841(8) 0.76726(7)
H17_45 H 0.9160 0.8991 0.7571
C28_45 C 0.93527(8) 0.88748(8) 0.77852(8)
H18_45 H 0.9461 0.8973 0.7762
C29_45 C 0.93761(7) 0.87182(8) 0.79369(8)
H19_45 H 0.9500 0.8707 0.8017
C30_45 C 0.92105(7) 0.85798(7) 0.79663(7)
C31_45 C 0.90334(6) 0.85987(6) 0.78441(6)
H20_45 H 0.8923 0.8502 0.7864
C32_45 C 0.92216(7) 0.84166(7) 0.81299(7)
N11_45 N 0.90109(6) 0.87489(5) 0.76975(5)
N12_45 N 0.93743(5) 0.84295(6) 0.82681(6)
C33_45 C 0.86159(8) 0.76726(7) 0.83267(7)
H21_45 H 0.8509 0.7571 0.8340
C34_45 C 0.86252(8) 0.77852(8) 0.81473(8)
H22_45 H 0.8527 0.7762 0.8039
C35_45 C 0.87818(8) 0.79369(8) 0.81239(7)
H23_45 H 0.8793 0.8017 0.8000
C36_45 C 0.89202(7) 0.79663(7) 0.82895(7)
C37_45 C 0.89013(6) 0.78441(6) 0.84666(6)
H24_45 H 0.8998 0.7864 0.8577
C38_45 C 0.90834(7) 0.81299(7) 0.82784(7)
N14_45 N 0.90705(6) 0.82681(6) 0.81257(5)
C57_45 C 0.87829(9) 0.92519(8) 0.75064(7)
N21_45 N 0.87682(5) 0.90744(6) 0.74876(5)
S3_45 S 0.88023(7) 0.95027(3) 0.75327(3)
C132_45 C 0.87171(9) 0.82481(8) 0.75064(7)
N48_45 N 0.87318(5) 0.84256(6) 0.74876(5)
S6_45 S 0.86977(7) 0.79973(3) 0.75327(3)
C21_46 C 0.48274(7) 0.91733(7) 0.36159(8)
H13_46 H 0.4929 0.9160 0.3509
C22_46 C 0.47148(8) 0.93527(8) 0.36252(8)
H14_46 H 0.4738 0.9461 0.3527
C23_46 C 0.45631(8) 0.93761(7) 0.37818(8)
H15_46 H 0.4483 0.9500 0.3793
C24_46 C 0.45337(7) 0.92105(7) 0.39202(7)
C25_46 C 0.46559(6) 0.90334(6) 0.39013(6)
H16_46 H 0.4636 0.8923 0.3998
C26_46 C 0.43701(7) 0.92216(7) 0.40834(7)
N10_46 N 0.42319(6) 0.93743(5) 0.40705(6)
C27_46 C 0.41733(7) 0.86159(8) 0.48274(7)
H17_46 H 0.4160 0.8509 0.4929
C28_46 C 0.43527(8) 0.86252(8) 0.47148(8)
H18_46 H 0.4461 0.8527 0.4738
C29_46 C 0.43761(7) 0.87818(8) 0.45631(8)
H19_46 H 0.4500 0.8793 0.4483
C30_46 C 0.42105(7) 0.89202(7) 0.45337(7)
C31_46 C 0.40334(6) 0.89013(6) 0.46559(6)
H20_46 H 0.3923 0.8998 0.4636
C32_46 C 0.42216(7) 0.90834(7) 0.43701(7)
N11_46 N 0.40109(6) 0.87511(5) 0.48025(5)
N12_46 N 0.43743(5) 0.90705(6) 0.42319(6)
C33_46 C 0.36159(8) 0.98274(7) 0.41733(7)
H21_46 H 0.3509 0.9929 0.4160
C34_46 C 0.36252(8) 0.97148(8) 0.43527(8)
H22_46 H 0.3527 0.9738 0.4461
C35_46 C 0.37818(8) 0.95631(8) 0.43761(7)
H23_46 H 0.3793 0.9483 0.4500
C36_46 C 0.39202(7) 0.95337(7) 0.42105(7)
C37_46 C 0.39013(6) 0.96559(6) 0.40334(6)
H24_46 H 0.3998 0.9636 0.3923
C38_46 C 0.40834(7) 0.93701(7) 0.42216(7)
N14_46 N 0.40705(6) 0.92319(6) 0.43743(5)
C57_46 C 0.37829(9) 0.82481(8) 0.49936(7)
N21_46 N 0.37682(5) 0.84256(6) 0.50124(5)
S3_46 S 0.38023(7) 0.79973(3) 0.49673(3)
C132_46 C 0.37171(9) 0.92519(8) 0.49936(7)
N48_46 N 0.37318(5) 0.90744(6) 0.50124(5)
S6_46 S 0.36977(7) 0.95027(3) 0.49673(3)
N21_47 N 0.37318(5) 0.40744(6) 0.00124(5)
N48_47 N 0.37682(5) 0.34256(6) 0.00124(5)
C21_47 C 0.26726(7) 0.33267(7) 0.86159(8)
H13_47 H 0.2571 0.3340 0.8509
C22_47 C 0.27852(8) 0.31473(8) 0.86252(8)
H14_47 H 0.2762 0.3039 0.8527
C23_47 C 0.29369(8) 0.31239(7) 0.87818(8)
H15_47 H 0.3017 0.3000 0.8793
C24_47 C 0.29663(7) 0.32895(7) 0.89202(7)
C25_47 C 0.28441(6) 0.34666(6) 0.89013(6)
H16_47 H 0.2864 0.3577 0.8998
C26_47 C 0.31299(7) 0.32784(7) 0.90834(7)
N10_47 N 0.32681(6) 0.31257(5) 0.90705(6)
C27_47 C 0.33267(7) 0.38841(8) 0.98274(7)
H17_47 H 0.3340 0.3991 0.9929
C28_47 C 0.31473(8) 0.38748(8) 0.97148(8)
H18_47 H 0.3039 0.3973 0.9738
C29_47 C 0.31239(7) 0.37182(8) 0.95631(8)
H19_47 H 0.3000 0.3707 0.9483
C30_47 C 0.32895(7) 0.35798(7) 0.95337(7)
C31_47 C 0.34666(6) 0.35987(6) 0.96559(6)
H20_47 H 0.3577 0.3502 0.9636
C32_47 C 0.32784(7) 0.34166(7) 0.93701(7)
N11_47 N 0.34891(6) 0.37489(5) 0.98025(5)
N12_47 N 0.31257(5) 0.34295(6) 0.92319(6)
C33_47 C 0.38841(8) 0.26726(7) 0.91733(7)
H21_47 H 0.3991 0.2571 0.9160
C34_47 C 0.38748(8) 0.27852(8) 0.93527(8)
H22_47 H 0.3973 0.2762 0.9461
C35_47 C 0.37182(8) 0.29369(8) 0.93761(7)
H23_47 H 0.3707 0.3017 0.9500
C36_47 C 0.35798(7) 0.29663(7) 0.92105(7)
C37_47 C 0.35987(6) 0.28441(6) 0.90334(6)
H24_47 H 0.3502 0.2864 0.8923
C38_47 C 0.34166(7) 0.31299(7) 0.92216(7)
N14_47 N 0.34295(6) 0.32681(6) 0.93743(5)
C57_47 C 0.37171(9) 0.42519(8) 0.99936(7)
S3_47 S 0.36977(7) 0.45027(3) 0.99673(3)
C132_47 C 0.37829(9) 0.32481(8) 0.99936(7)
S6_47 S 0.38023(7) 0.29973(3) 0.99673(3)
C21_48 C 0.76726(7) 0.41733(7) 0.38841(8)
H13_48 H 0.7571 0.4160 0.3991
C22_48 C 0.77852(8) 0.43527(8) 0.38748(8)
H14_48 H 0.7762 0.4461 0.3973
C23_48 C 0.79369(8) 0.43761(7) 0.37182(8)
H15_48 H 0.8017 0.4500 0.3707
C24_48 C 0.79663(7) 0.42105(7) 0.35798(7)
C25_48 C 0.78441(6) 0.40334(6) 0.35987(6)
H16_48 H 0.7864 0.3923 0.3502
C26_48 C 0.81299(7) 0.42216(7) 0.34166(7)
N10_48 N 0.82681(6) 0.43743(5) 0.34295(6)
C27_48 C 0.83267(7) 0.36159(8) 0.26726(7)
H17_48 H 0.8340 0.3509 0.2571
C28_48 C 0.81473(8) 0.36252(8) 0.27852(8)
H18_48 H 0.8039 0.3527 0.2762
C29_48 C 0.81239(7) 0.37818(8) 0.29369(8)
H19_48 H 0.8000 0.3793 0.3017
C30_48 C 0.82895(7) 0.39202(7) 0.29663(7)
C31_48 C 0.84666(6) 0.39013(6) 0.28441(6)
H20_48 H 0.8577 0.3998 0.2864
C32_48 C 0.82784(7) 0.40834(7) 0.31299(7)
N11_48 N 0.84891(6) 0.37511(5) 0.26975(5)
N12_48 N 0.81257(5) 0.40705(6) 0.32681(6)
C33_48 C 0.88841(8) 0.48274(7) 0.33267(7)
H21_48 H 0.8991 0.4929 0.3340
C34_48 C 0.88748(8) 0.47148(8) 0.31473(8)
H22_48 H 0.8973 0.4738 0.3039
C35_48 C 0.87182(8) 0.45631(8) 0.31239(7)
H23_48 H 0.8707 0.4483 0.3000
C36_48 C 0.85798(7) 0.45337(7) 0.32895(7)
C37_48 C 0.85987(6) 0.46559(6) 0.34666(6)
H24_48 H 0.8502 0.4636 0.3577
C38_48 C 0.84166(7) 0.43701(7) 0.32784(7)
N14_48 N 0.84295(6) 0.42319(6) 0.31257(5)
C57_48 C 0.87171(9) 0.32481(8) 0.25064(7)
N21_48 N 0.87318(5) 0.34256(6) 0.24876(5)
S3_48 S 0.86977(7) 0.29973(3) 0.25327(3)
C132_48 C 0.87829(9) 0.42519(8) 0.25064(7)
N48_48 N 0.87682(5) 0.40744(6) 0.24876(5)
S6_48 S 0.88023(7) 0.45027(3) 0.25327(3)
loop_
_geom_bond_atom_site_label_1
_geom_bond_atom_site_label_2
_geom_bond_site_symmetry_1
_geom_bond_site_symmetry_2
C155 N59 1_555 1_555
N59 Co6 1_555 1_555
S11 C155 1_555 1_555
N62 Co6 1_555 1_555
N66 Co6 1_555 1_555
Co1 N1 1_555 1_555
C6 N1 1_555 1_555
S1 C6 1_555 1_555
C134 C133 1_555 1_555
H86 C134 1_555 1_555
C135 C134 1_555 1_555
H87 C135 1_555 1_555
C136 C135 1_555 1_555
C137 C136 1_555 1_555
H88 C137 1_555 1_555
C139 H89 1_555 1_555
C140 C139 1_555 1_555
C141 C140 1_555 1_555
H90 C141 1_555 1_555
C142 C141 1_555 1_555
H91 C142 1_555 1_555
C143 C142 1_555 1_555
H92 C143 1_555 1_555
C144 C140 1_555 1_555
C145 C147 1_555 1_555
C146 C136 1_555 1_555
C147 C148 1_555 1_555
C148 H93 1_555 1_555
C149 C148 1_555 1_555
H94 C149 1_555 1_555
C150 C149 1_555 1_555
H95 C150 1_555 1_555
C151 C147 1_555 1_555
H96 C151 1_555 1_555
N50 Co1 1_555 1_555
N51 Co5 1_555 1_555
N52 C144 1_555 1_555
N53 C145 1_555 1_555
N54 C144 1_555 1_555
N55 C150 1_555 1_555
C154 N58 1_555 1_555
N58 Co5 1_555 1_555
S10 C154 1_555 1_555
Co17 N55 1_555 1_555
N63 Co5 1_555 1_555
N65 Co1 1_555 1_555
C133 N50 1_555 1_555
C137 N50 1_555 1_555
C139 N51 1_555 1_555
C143 N51 1_555 1_555
C145 N54 1_555 1_555
C146 N52 1_555 1_555
C146 N53 1_555 1_555
C151 N55 1_555 1_555
Co5_2 N49 1_555 1_555
C138 N49 1_555 1_555
S7 C138 1_555 1_555
N61 Co5_2 1_555 1_555
N68 Co5_2 1_555 1_555
Co2 N7 1_555 1_555
C2 C1 1_555 1_555
H2 C2 1_555 1_555
C3 C2 1_555 1_555
H3 C3 1_555 1_555
C4 C3 1_555 1_555
C5 C4 1_555 1_555
H4 C5 1_555 1_555
C7 H5 1_555 1_555
C8 C7 1_555 1_555
C9 C8 1_555 1_555
H6 C9 1_555 1_555
C10 C9 1_555 1_555
H7 C10 1_555 1_555
C11 C10 1_555 1_555
H8 C11 1_555 1_555
C12 C8 1_555 1_555
C13 C15 1_555 1_555
C14 C4 1_555 1_555
C15 C16 1_555 1_555
C16 H9 1_555 1_555
C17 C16 1_555 1_555
H10 C17 1_555 1_555
C18 C17 1_555 1_555
H11 C18 1_555 1_555
C19 C15 1_555 1_555
H12 C19 1_555 1_555
C20 N8 1_555 1_555
C21 H13 1_555 1_555
C22 C21 1_555 1_555
H14 C22 1_555 1_555
C23 C22 1_555 1_555
H15 C23 1_555 1_555
C24 C23 1_555 1_555
C25 C24 1_555 1_555
H16 C25 1_555 1_555
C26 C24 1_555 1_555
N2 C1 1_555 1_555
N3 Co1_2 1_555 1_555
N4 C12 1_555 1_555
N5 C13 1_555 1_555
N6 C12 1_555 1_555
N7 C18 1_555 1_555
N8 Co2 1_555 1_555
N9 Co2 1_555 1_555
N10 C26 1_555 1_555
S2 C20 1_555 1_555
C27 H17 1_555 1_555
C28 C27 1_555 1_555
H18 C28 1_555 1_555
C29 C28 1_555 1_555
H19 C29 1_555 1_555
C30 C29 1_555 1_555
C31 C30 1_555 1_555
H20 C31 1_555 1_555
C32 C30 1_555 1_555
N11 C27 1_555 1_555
N12 C26 1_555 1_555
C33 H21 1_555 1_555
C34 C33 1_555 1_555
H22 C34 1_555 1_555
C35 C34 1_555 1_555
H23 C35 1_555 1_555
C36 C35 1_555 1_555
C37 C36 1_555 1_555
H24 C37 1_555 1_555
C38 N10 1_555 1_555
N13 C33 1_555 1_555
N14 C32 1_555 1_555
Co3 N11 1_555 1_555
C39 H25 1_555 1_555
C40 C39 1_555 1_555
H26 C40 1_555 1_555
C41 C40 1_555 1_555
H27 C41 1_555 1_555
C42 C41 1_555 1_555
C43 C42 1_555 1_555
H28 C43 1_555 1_555
C44 H29 1_555 1_555
C45 C44 1_555 1_555
C46 C45 1_555 1_555
H30 C46 1_555 1_555
C47 C46 1_555 1_555
H31 C47 1_555 1_555
C48 C47 1_555 1_555
H32 C48 1_555 1_555
C49 C45 1_555 1_555
C50 C52 1_555 1_555
C51 C42 1_555 1_555
C52 C53 1_555 1_555
C53 H33 1_555 1_555
C54 C53 1_555 1_555
H34 C54 1_555 1_555
C55 C54 1_555 1_555
H35 C55 1_555 1_555
C56 C52 1_555 1_555
H36 C56 1_555 1_555
C57 N21 1_555 1_555
N15 C39 1_555 1_555
N16 C44 1_555 1_555
N17 C49 1_555 1_555
N18 C50 1_555 1_555
N19 C49 1_555 1_555
N20 Co3 1_555 1_555
N21 Co3 1_555 1_555
S3 C57 1_555 1_555
Co4 N27 1_555 1_555
C58 H37 1_555 1_555
C59 C58 1_555 1_555
H38 C59 1_555 1_555
C60 C59 1_555 1_555
H39 C60 1_555 1_555
C61 C60 1_555 1_555
C62 C61 1_555 1_555
H40 C62 1_555 1_555
C63 H41 1_555 1_555
C64 C63 1_555 1_555
C65 C64 1_555 1_555
H42 C65 1_555 1_555
C66 C65 1_555 1_555
H43 C66 1_555 1_555
C67 C66 1_555 1_555
H44 C67 1_555 1_555
C68 C64 1_555 1_555
C69 C71 1_555 1_555
C70 C61 1_555 1_555
C71 C72 1_555 1_555
C72 H45 1_555 1_555
C73 C72 1_555 1_555
H46 C73 1_555 1_555
C74 C73 1_555 1_555
H47 C74 1_555 1_555
C75 C71 1_555 1_555
H48 C75 1_555 1_555
C76 N28 1_555 1_555
C77 H49 1_555 1_555
C78 C77 1_555 1_555
H50 C78 1_555 1_555
C79 C78 1_555 1_555
H51 C79 1_555 1_555
C80 C79 1_555 1_555
C81 C80 1_555 1_555
H52 C81 1_555 1_555
C82 C80 1_555 1_555
N22 C58 1_555 1_555
N23 C63 1_555 1_555
N24 C68 1_555 1_555
N25 C69 1_555 1_555
N26 C68 1_555 1_555
N27 C74 1_555 1_555
N28 Co4 1_555 1_555
N29 Co4 1_555 1_555
N30 C82 1_555 1_555
S4 C76 1_555 1_555
C83 H53 1_555 1_555
C84 C83 1_555 1_555
H54 C84 1_555 1_555
C85 C84 1_555 1_555
H55 C85 1_555 1_555
C86 C85 1_555 1_555
C87 C86 1_555 1_555
H56 C87 1_555 1_555
C88 C86 1_555 1_555
N31 Co2 1_555 1_555
N32 C82 1_555 1_555
C89 H57 1_555 1_555
C90 C89 1_555 1_555
H58 C90 1_555 1_555
C91 C90 1_555 1_555
H59 C91 1_555 1_555
C92 C91 1_555 1_555
C93 C92 1_555 1_555
H60 C93 1_555 1_555
C94 N30 1_555 1_555
N33 C89 1_555 1_555
N34 C88 1_555 1_555
C95 H61 1_555 1_555
C96 C95 1_555 1_555
H62 C96 1_555 1_555
C97 C96 1_555 1_555
H63 C97 1_555 1_555
C98 C97 1_555 1_555
C99 C98 1_555 1_555
H64 C99 1_555 1_555
C100 H65 1_555 1_555
C101 C100 1_555 1_555
C102 C101 1_555 1_555
H66 C102 1_555 1_555
C103 C102 1_555 1_555
H67 C103 1_555 1_555
C104 C103 1_555 1_555
H68 C104 1_555 1_555
C105 C101 1_555 1_555
C106 C108 1_555 1_555
C107 C98 1_555 1_555
C108 C109 1_555 1_555
C109 H69 1_555 1_555
C110 C109 1_555 1_555
H70 C110 1_555 1_555
C111 C110 1_555 1_555
H71 C111 1_555 1_555
C112 C108 1_555 1_555
H72 C112 1_555 1_555
C113 N41 1_555 1_555
N35 C95 1_555 1_555
N36 C100 1_555 1_555
N37 C105 1_555 1_555
N38 C106 1_555 1_555
N39 C105 1_555 1_555
N40 Co2 1_555 1_555
N41 Co2 1_555 1_555
S5 C113 1_555 1_555
C115 C114 1_555 1_555
H74 C115 1_555 1_555
C116 C115 1_555 1_555
H75 C116 1_555 1_555
C117 C116 1_555 1_555
C118 C117 1_555 1_555
H76 C118 1_555 1_555
C119 H77 1_555 1_555
C120 C119 1_555 1_555
C121 C120 1_555 1_555
H78 C121 1_555 1_555
C122 C121 1_555 1_555
H79 C122 1_555 1_555
C123 C122 1_555 1_555
H80 C123 1_555 1_555
C124 C120 1_555 1_555
C125 C127 1_555 1_555
C126 C117 1_555 1_555
C127 C128 1_555 1_555
C128 H81 1_555 1_555
C129 C128 1_555 1_555
H82 C129 1_555 1_555
C130 C129 1_555 1_555
H83 C130 1_555 1_555
C131 C127 1_555 1_555
H84 C131 1_555 1_555
C132 N48 1_555 1_555
N42 C114 1_555 1_555
N43 C119 1_555 1_555
N44 C124 1_555 1_555
N45 C125 1_555 1_555
N46 C124 1_555 1_555
N47 Co3 1_555 1_555
N48 Co3 1_555 1_555
S6 C132 1_555 1_555
C152 N56 1_555 1_555
N56 Co1_2 1_555 1_555
S8 C152 1_555 1_555
C153 N57 1_555 1_555
N57 Co4 1_555 1_555
S9 C153 1_555 1_555
Co6_2 N2 1_555 1_555
C156 N60 1_555 1_555
N60 Co6_2 1_555 1_555
S12 C156 1_555 1_555
Co7_2 N23 1_555 1_555
Co8 N36 1_555 1_555
Co9 N16 1_555 1_555
Co10 N43 1_555 1_555
Co11 N15 1_555 1_555
Co12 N35 1_555 1_555
Co13_2 N42 1_555 1_555
Co14 N22 1_555 1_555
N64 Co1_2 1_555 1_555
N67 Co6_2 1_555 1_555
N69 Co4 1_555 1_555
N70 Co4 1_555 1_555
N71 Co3 1_555 1_555
C5 N2 1_555 1_555
C7 N3 1_555 1_555
C11 N3 1_555 1_555
C13 N6 1_555 1_555
C14 N4 1_555 1_555
C14 N5 1_555 1_555
C19 N7 1_555 1_555
C21 N9 1_555 1_555
C25 N9 1_555 1_555
C31 N11 1_555 1_555
C32 N12 1_555 1_555
C36 C38 1_555 1_555
C37 N13 1_555 1_555
C38 N14 1_555 1_555
C43 N15 1_555 1_555
C48 N16 1_555 1_555
C50 N19 1_555 1_555
C51 N17 1_555 1_555
C51 N18 1_555 1_555
C55 N20 1_555 1_555
C56 N20 1_555 1_555
C62 N22 1_555 1_555
C67 N23 1_555 1_555
C69 N26 1_555 1_555
C70 N24 1_555 1_555
C70 N25 1_555 1_555
C75 N27 1_555 1_555
C77 N29 1_555 1_555
C81 N29 1_555 1_555
C83 N31 1_555 1_555
C87 N31 1_555 1_555
C88 N32 1_555 1_555
C92 C94 1_555 1_555
C93 N33 1_555 1_555
C94 N34 1_555 1_555
C99 N35 1_555 1_555
C104 N36 1_555 1_555
C106 N39 1_555 1_555
C107 N37 1_555 1_555
C107 N38 1_555 1_555
C111 N40 1_555 1_555
C112 N40 1_555 1_555
C118 N42 1_555 1_555
C123 N43 1_555 1_555
C125 N46 1_555 1_555
C126 N44 1_555 1_555
C126 N45 1_555 1_555
C130 N47 1_555 1_555
C131 N47 1_555 1_555
Co4_2 N27_2 1_555 1_555
C59_2 C58_2 1_555 1_555
H38_2 C59_2 1_555 1_555
C60_2 C59_2 1_555 1_555
H39_2 C60_2 1_555 1_555
C61_2 C60_2 1_555 1_555
C62_2 C61_2 1_555 1_555
H40_2 C62_2 1_555 1_555
C63_2 H41_2 1_555 1_555
C64_2 C63_2 1_555 1_555
C65_2 C64_2 1_555 1_555
H42_2 C65_2 1_555 1_555
C66_2 C65_2 1_555 1_555
H43_2 C66_2 1_555 1_555
C67_2 C66_2 1_555 1_555
H44_2 C67_2 1_555 1_555
C68_2 C64_2 1_555 1_555
C69_2 C71_2 1_555 1_555
C70_2 C61_2 1_555 1_555
C71_2 C72_2 1_555 1_555
C72_2 H45_2 1_555 1_555
C73_2 C72_2 1_555 1_555
H46_2 C73_2 1_555 1_555
C74_2 C73_2 1_555 1_555
H47_2 C74_2 1_555 1_555
C75_2 C71_2 1_555 1_555
H48_2 C75_2 1_555 1_555
N22_2 C58_2 1_555 1_555
N23_2 C63_2 1_555 1_555
N24_2 C68_2 1_555 1_555
N25_2 C69_2 1_555 1_555
N26_2 C68_2 1_555 1_555
N27_2 C74_2 1_555 1_555
N28_2 Co4_2 1_555 1_555
N57_2 Co4_2 1_555 1_555
Co7_3 N23_2 1_555 1_555
Co14_3 N22_2 1_555 1_555
N69_2 Co4_2 1_555 1_555
C62_2 N22_2 1_555 1_555
C67_2 N23_2 1_555 1_555
C69_2 N26_2 1_555 1_555
C70_2 N24_2 1_555 1_555
C70_2 N25_2 1_555 1_555
C75_2 N27_2 1_555 1_555
Co1_3 N1_2 1_555 1_555
Co2_2 N7_2 1_555 1_555
C1_2 H1_2 1_555 1_555
C2_2 C1_2 1_555 1_555
H2_2 C2_2 1_555 1_555
C3_2 C2_2 1_555 1_555
H3_2 C3_2 1_555 1_555
C4_2 C3_2 1_555 1_555
C5_2 C4_2 1_555 1_555
H4_2 C5_2 1_555 1_555
C6_2 N1_2 1_555 1_555
C7_2 H5_2 1_555 1_555
C8_2 C7_2 1_555 1_555
C9_2 C8_2 1_555 1_555
H6_2 C9_2 1_555 1_555
C10_2 C9_2 1_555 1_555
H7_2 C10_2 1_555 1_555
C11_2 C10_2 1_555 1_555
H8_2 C11_2 1_555 1_555
C12_2 C8_2 1_555 1_555
C13_2 C15_2 1_555 1_555
C14_2 C4_2 1_555 1_555
C15_2 C16_2 1_555 1_555
C16_2 H9_2 1_555 1_555
C17_2 C16_2 1_555 1_555
H10_2 C17_2 1_555 1_555
C18_2 C17_2 1_555 1_555
H11_2 C18_2 1_555 1_555
C19_2 C15_2 1_555 1_555
H12_2 C19_2 1_555 1_555
C20_2 N8_2 1_555 1_555
C21_2 H13_2 1_555 1_555
C22_2 C21_2 1_555 1_555
H14_2 C22_2 1_555 1_555
C23_2 C22_2 1_555 1_555
H15_2 C23_2 1_555 1_555
C24_2 C23_2 1_555 1_555
C25_2 C24_2 1_555 1_555
H16_2 C25_2 1_555 1_555
C26_2 C24_2 1_555 1_555
N2_2 C1_2 1_555 1_555
N3_2 Co1_3 1_555 1_555
N4_2 C12_2 1_555 1_555
N5_2 C13_2 1_555 1_555
N6_2 C12_2 1_555 1_555
N7_2 C18_2 1_555 1_555
N8_2 Co2_2 1_555 1_555
N9_2 Co2_2 1_555 1_555
N10_2 C26_2 1_555 1_555
S1_2 C6_2 1_555 1_555
S2_2 C20_2 1_555 1_555
C27_2 H17_2 1_555 1_555
C28_2 C27_2 1_555 1_555
H18_2 C28_2 1_555 1_555
C29_2 C28_2 1_555 1_555
H19_2 C29_2 1_555 1_555
C30_2 C29_2 1_555 1_555
C31_2 C30_2 1_555 1_555
H20_2 C31_2 1_555 1_555
C32_2 C30_2 1_555 1_555
N11_2 C27_2 1_555 1_555
N12_2 C26_2 1_555 1_555
C33_2 H21_2 1_555 1_555
C34_2 C33_2 1_555 1_555
H22_2 C34_2 1_555 1_555
C35_2 C34_2 1_555 1_555
H23_2 C35_2 1_555 1_555
C36_2 C35_2 1_555 1_555
C37_2 C36_2 1_555 1_555
H24_2 C37_2 1_555 1_555
C38_2 N10_2 1_555 1_555
N13_2 C33_2 1_555 1_555
N14_2 C32_2 1_555 1_555
Co3_2 N11_2 1_555 1_555
C40_2 C39_2 1_555 1_555
H26_2 C40_2 1_555 1_555
C41_2 C40_2 1_555 1_555
H27_2 C41_2 1_555 1_555
C42_2 C41_2 1_555 1_555
C43_2 C42_2 1_555 1_555
H28_2 C43_2 1_555 1_555
C44_2 H29_2 1_555 1_555
C45_2 C44_2 1_555 1_555
C46_2 C45_2 1_555 1_555
H30_2 C46_2 1_555 1_555
C47_2 C46_2 1_555 1_555
H31_2 C47_2 1_555 1_555
C48_2 C47_2 1_555 1_555
H32_2 C48_2 1_555 1_555
C49_2 C45_2 1_555 1_555
C50_2 C52_2 1_555 1_555
C51_2 C42_2 1_555 1_555
C52_2 C53_2 1_555 1_555
C53_2 H33_2 1_555 1_555
C54_2 C53_2 1_555 1_555
H34_2 C54_2 1_555 1_555
C55_2 C54_2 1_555 1_555
H35_2 C55_2 1_555 1_555
C56_2 C52_2 1_555 1_555
H36_2 C56_2 1_555 1_555
C57_2 N21_2 1_555 1_555
N15_2 C39_2 1_555 1_555
N16_2 C44_2 1_555 1_555
N17_2 C49_2 1_555 1_555
N18_2 C50_2 1_555 1_555
N19_2 C49_2 1_555 1_555
N20_2 Co3_2 1_555 1_555
N21_2 Co3_2 1_555 1_555
S3_2 C57_2 1_555 1_555
C77_2 H49_2 1_555 1_555
C78_2 C77_2 1_555 1_555
H50_2 C78_2 1_555 1_555
C79_2 C78_2 1_555 1_555
H51_2 C79_2 1_555 1_555
C80_2 C79_2 1_555 1_555
C81_2 C80_2 1_555 1_555
H52_2 C81_2 1_555 1_555
C82_2 C80_2 1_555 1_555
N30_2 C82_2 1_555 1_555
S4_2 C76_2 1_555 1_555
C83_2 H53_2 1_555 1_555
C84_2 C83_2 1_555 1_555
H54_2 C84_2 1_555 1_555
C85_2 C84_2 1_555 1_555
H55_2 C85_2 1_555 1_555
C86_2 C85_2 1_555 1_555
C87_2 C86_2 1_555 1_555
H56_2 C87_2 1_555 1_555
C88_2 C86_2 1_555 1_555
N31_2 Co2_2 1_555 1_555
N32_2 C82_2 1_555 1_555
C89_2 H57_2 1_555 1_555
C90_2 C89_2 1_555 1_555
H58_2 C90_2 1_555 1_555
C91_2 C90_2 1_555 1_555
H59_2 C91_2 1_555 1_555
C92_2 C91_2 1_555 1_555
C93_2 C92_2 1_555 1_555
H60_2 C93_2 1_555 1_555
C94_2 N30_2 1_555 1_555
N33_2 C89_2 1_555 1_555
N34_2 C88_2 1_555 1_555
C95_2 H61_2 1_555 1_555
C96_2 C95_2 1_555 1_555
H62_2 C96_2 1_555 1_555
C97_2 C96_2 1_555 1_555
H63_2 C97_2 1_555 1_555
C98_2 C97_2 1_555 1_555
C99_2 C98_2 1_555 1_555
H64_2 C99_2 1_555 1_555
C100_2 H65_2 1_555 1_555
C101_2 C100_2 1_555 1_555
C102_2 C101_2 1_555 1_555
H66_2 C102_2 1_555 1_555
C103_2 C102_2 1_555 1_555
H67_2 C103_2 1_555 1_555
C104_2 C103_2 1_555 1_555
H68_2 C104_2 1_555 1_555
C105_2 C101_2 1_555 1_555
C106_2 C108_2 1_555 1_555
C107_2 C98_2 1_555 1_555
C108_2 C109_2 1_555 1_555
C109_2 H69_2 1_555 1_555
C110_2 C109_2 1_555 1_555
H70_2 C110_2 1_555 1_555
C111_2 C110_2 1_555 1_555
H71_2 C111_2 1_555 1_555
C112_2 C108_2 1_555 1_555
H72_2 C112_2 1_555 1_555
C113_2 N41_2 1_555 1_555
N35_2 C95_2 1_555 1_555
N36_2 C100_2 1_555 1_555
N37_2 C105_2 1_555 1_555
N38_2 C106_2 1_555 1_555
N39_2 C105_2 1_555 1_555
N40_2 Co2_2 1_555 1_555
N41_2 Co2_2 1_555 1_555
S5_2 C113_2 1_555 1_555
C114_2 H73_2 1_555 1_555
C115_2 C114_2 1_555 1_555
H74_2 C115_2 1_555 1_555
C116_2 C115_2 1_555 1_555
H75_2 C116_2 1_555 1_555
C117_2 C116_2 1_555 1_555
C118_2 C117_2 1_555 1_555
H76_2 C118_2 1_555 1_555
C119_2 H77_2 1_555 1_555
C120_2 C119_2 1_555 1_555
C121_2 C120_2 1_555 1_555
H78_2 C121_2 1_555 1_555
C122_2 C121_2 1_555 1_555
H79_2 C122_2 1_555 1_555
C123_2 C122_2 1_555 1_555
H80_2 C123_2 1_555 1_555
C124_2 C120_2 1_555 1_555
C125_2 C127_2 1_555 1_555
C126_2 C117_2 1_555 1_555
C127_2 C128_2 1_555 1_555
C128_2 H81_2 1_555 1_555
C129_2 C128_2 1_555 1_555
H82_2 C129_2 1_555 1_555
C130_2 C129_2 1_555 1_555
H83_2 C130_2 1_555 1_555
C131_2 C127_2 1_555 1_555
H84_2 C131_2 1_555 1_555
C132_2 N48_2 1_555 1_555
N42_2 C114_2 1_555 1_555
N43_2 C119_2 1_555 1_555
N44_2 C124_2 1_555 1_555
N45_2 C125_2 1_555 1_555
N46_2 C124_2 1_555 1_555
N47_2 Co3_2 1_555 1_555
N48_2 Co3_2 1_555 1_555
S6_2 C132_2 1_555 1_555
Co5_3 N49_2 1_555 1_555
C133_2 H85_2 1_555 1_555
C134_2 C133_2 1_555 1_555
H86_2 C134_2 1_555 1_555
C135_2 C134_2 1_555 1_555
H87_2 C135_2 1_555 1_555
C136_2 C135_2 1_555 1_555
C137_2 C136_2 1_555 1_555
H88_2 C137_2 1_555 1_555
C138_2 N49_2 1_555 1_555
C139_2 H89_2 1_555 1_555
C140_2 C139_2 1_555 1_555
C141_2 C140_2 1_555 1_555
H90_2 C141_2 1_555 1_555
C142_2 C141_2 1_555 1_555
H91_2 C142_2 1_555 1_555
C143_2 C142_2 1_555 1_555
H92_2 C143_2 1_555 1_555
C144_2 C140_2 1_555 1_555
C145_2 C147_2 1_555 1_555
C146_2 C136_2 1_555 1_555
C147_2 C148_2 1_555 1_555
C148_2 H93_2 1_555 1_555
C149_2 C148_2 1_555 1_555
H94_2 C149_2 1_555 1_555
C150_2 C149_2 1_555 1_555
H95_2 C150_2 1_555 1_555
C151_2 C147_2 1_555 1_555
H96_2 C151_2 1_555 1_555
N50_2 Co1_3 1_555 1_555
N51_2 Co5_3 1_555 1_555
N52_2 C144_2 1_555 1_555
N53_2 C145_2 1_555 1_555
N54_2 C144_2 1_555 1_555
N55_2 C150_2 1_555 1_555
S7_2 C138_2 1_555 1_555
C152_2 N56_2 1_555 1_555
N56_2 Co1_3 1_555 1_555
S8_2 C152_2 1_555 1_555
S9_2 C153_2 1_555 1_555
Co6_3 N2_2 1_555 1_555
C154_2 N58_2 1_555 1_555
N58_2 Co5_3 1_555 1_555
S10_2 C154_2 1_555 1_555
C155_2 N59_2 1_555 1_555
N59_2 Co6_3 1_555 1_555
S11_2 C155_2 1_555 1_555
C156_2 N60_2 1_555 1_555
N60_2 Co6_3 1_555 1_555
S12_2 C156_2 1_555 1_555
Co8_3 N36_2 1_555 1_555
Co9_2 N16_2 1_555 1_555
Co10_3 N43_2 1_555 1_555
Co11_3 N15_2 1_555 1_555
Co12_2 N35_2 1_555 1_555
Co13_3 N42_2 1_555 1_555
Co15_2 N33_2 1_555 1_555
Co16_2 N13_2 1_555 1_555
Co17_2 N55_2 1_555 1_555
N61_2 Co5_3 1_555 1_555
N62_2 Co6_3 1_555 1_555
N63_2 Co5_3 1_555 1_555
N64_2 Co1_3 1_555 1_555
N65_2 Co1_3 1_555 1_555
N66_2 Co6_3 1_555 1_555
N67_2 Co6_3 1_555 1_555
N68_2 Co5_3 1_555 1_555
N71_2 Co3_2 1_555 1_555
C5_2 N2_2 1_555 1_555
C7_2 N3_2 1_555 1_555
C11_2 N3_2 1_555 1_555
C13_2 N6_2 1_555 1_555
C14_2 N4_2 1_555 1_555
C14_2 N5_2 1_555 1_555
C19_2 N7_2 1_555 1_555
C21_2 N9_2 1_555 1_555
C25_2 N9_2 1_555 1_555
C31_2 N11_2 1_555 1_555
C32_2 N12_2 1_555 1_555
C36_2 C38_2 1_555 1_555
C37_2 N13_2 1_555 1_555
C38_2 N14_2 1_555 1_555
C43_2 N15_2 1_555 1_555
C48_2 N16_2 1_555 1_555
C50_2 N19_2 1_555 1_555
C51_2 N17_2 1_555 1_555
C51_2 N18_2 1_555 1_555
C55_2 N20_2 1_555 1_555
C56_2 N20_2 1_555 1_555
C77_2 N29_2 1_555 1_555
C81_2 N29_2 1_555 1_555
C83_2 N31_2 1_555 1_555
C87_2 N31_2 1_555 1_555
C88_2 N32_2 1_555 1_555
C92_2 C94_2 1_555 1_555
C93_2 N33_2 1_555 1_555
C94_2 N34_2 1_555 1_555
C99_2 N35_2 1_555 1_555
C104_2 N36_2 1_555 1_555
C106_2 N39_2 1_555 1_555
C107_2 N37_2 1_555 1_555
C107_2 N38_2 1_555 1_555
C111_2 N40_2 1_555 1_555
C112_2 N40_2 1_555 1_555
C118_2 N42_2 1_555 1_555
C123_2 N43_2 1_555 1_555
C125_2 N46_2 1_555 1_555
C126_2 N44_2 1_555 1_555
C126_2 N45_2 1_555 1_555
C130_2 N47_2 1_555 1_555
C131_2 N47_2 1_555 1_555
C133_2 N50_2 1_555 1_555
C137_2 N50_2 1_555 1_555
C139_2 N51_2 1_555 1_555
C143_2 N51_2 1_555 1_555
C145_2 N54_2 1_555 1_555
C146_2 N52_2 1_555 1_555
C146_2 N53_2 1_555 1_555
C151_2 N55_2 1_555 1_555
C39_3 H25_3 1_555 1_555
C40_3 C39_3 1_555 1_555
H26_3 C40_3 1_555 1_555
C41_3 C40_3 1_555 1_555
H27_3 C41_3 1_555 1_555
C42_3 C41_3 1_555 1_555
C43_3 C42_3 1_555 1_555
H28_3 C43_3 1_555 1_555
C44_3 H29_3 1_555 1_555
C45_3 C44_3 1_555 1_555
C46_3 C45_3 1_555 1_555
H30_3 C46_3 1_555 1_555
C47_3 C46_3 1_555 1_555
H31_3 C47_3 1_555 1_555
C48_3 C47_3 1_555 1_555
H32_3 C48_3 1_555 1_555
C49_3 C45_3 1_555 1_555
C50_3 C52_3 1_555 1_555
C51_3 C42_3 1_555 1_555
C52_3 C53_3 1_555 1_555
C53_3 H33_3 1_555 1_555
C54_3 C53_3 1_555 1_555
H34_3 C54_3 1_555 1_555
C55_3 C54_3 1_555 1_555
H35_3 C55_3 1_555 1_555
C56_3 C52_3 1_555 1_555
H36_3 C56_3 1_555 1_555
N15_3 C39_3 1_555 1_555
N16_3 C44_3 1_555 1_555
N17_3 C49_3 1_555 1_555
N18_3 C50_3 1_555 1_555
N19_3 C49_3 1_555 1_555
N20_3 Co3_3 1_555 1_555
N21_3 Co3_3 1_555 1_555
C114_3 H73_3 1_555 1_555
C115_3 C114_3 1_555 1_555
H74_3 C115_3 1_555 1_555
C116_3 C115_3 1_555 1_555
H75_3 C116_3 1_555 1_555
C117_3 C116_3 1_555 1_555
C118_3 C117_3 1_555 1_555
H76_3 C118_3 1_555 1_555
C119_3 H77_3 1_555 1_555
C120_3 C119_3 1_555 1_555
C121_3 C120_3 1_555 1_555
H78_3 C121_3 1_555 1_555
C122_3 C121_3 1_555 1_555
H79_3 C122_3 1_555 1_555
C123_3 C122_3 1_555 1_555
H80_3 C123_3 1_555 1_555
C124_3 C120_3 1_555 1_555
C125_3 C127_3 1_555 1_555
C126_3 C117_3 1_555 1_555
C127_3 C128_3 1_555 1_555
C128_3 H81_3 1_555 1_555
C129_3 C128_3 1_555 1_555
H82_3 C129_3 1_555 1_555
C130_3 C129_3 1_555 1_555
H83_3 C130_3 1_555 1_555
C131_3 C127_3 1_555 1_555
H84_3 C131_3 1_555 1_555
N42_3 C114_3 1_555 1_555
N43_3 C119_3 1_555 1_555
N44_3 C124_3 1_555 1_555
N45_3 C125_3 1_555 1_555
N46_3 C124_3 1_555 1_555
N47_3 Co3_3 1_555 1_555
N48_3 Co3_3 1_555 1_555
Co9_4 N16_3 1_555 1_555
Co10_4 N43_3 1_555 1_555
Co11_4 N15_3 1_555 1_555
Co13_4 N42_3 1_555 1_555
C43_3 N15_3 1_555 1_555
C48_3 N16_3 1_555 1_555
C50_3 N19_3 1_555 1_555
C51_3 N17_3 1_555 1_555
C51_3 N18_3 1_555 1_555
C55_3 N20_3 1_555 1_555
C56_3 N20_3 1_555 1_555
C118_3 N42_3 1_555 1_555
C123_3 N43_3 1_555 1_555
C125_3 N46_3 1_555 1_555
C126_3 N44_3 1_555 1_555
C126_3 N45_3 1_555 1_555
C130_3 N47_3 1_555 1_555
C131_3 N47_3 1_555 1_555
Co1_4 N1_3 1_555 1_555
Co2_3 N7_3 1_555 1_555
C1_3 H1_3 1_555 1_555
C2_3 C1_3 1_555 1_555
H2_3 C2_3 1_555 1_555
C3_3 C2_3 1_555 1_555
H3_3 C3_3 1_555 1_555
C4_3 C3_3 1_555 1_555
C5_3 C4_3 1_555 1_555
H4_3 C5_3 1_555 1_555
C6_3 N1_3 1_555 1_555
C7_3 H5_3 1_555 1_555
C8_3 C7_3 1_555 1_555
C9_3 C8_3 1_555 1_555
H6_3 C9_3 1_555 1_555
C10_3 C9_3 1_555 1_555
H7_3 C10_3 1_555 1_555
C11_3 C10_3 1_555 1_555
H8_3 C11_3 1_555 1_555
C12_3 C8_3 1_555 1_555
C13_3 C15_3 1_555 1_555
C14_3 C4_3 1_555 1_555
C15_3 C16_3 1_555 1_555
C16_3 H9_3 1_555 1_555
C17_3 C16_3 1_555 1_555
H10_3 C17_3 1_555 1_555
C18_3 C17_3 1_555 1_555
H11_3 C18_3 1_555 1_555
C19_3 C15_3 1_555 1_555
H12_3 C19_3 1_555 1_555
N2_3 C1_3 1_555 1_555
N3_3 Co1_4 1_555 1_555
N4_3 C12_3 1_555 1_555
N5_3 C13_3 1_555 1_555
N6_3 C12_3 1_555 1_555
N7_3 C18_3 1_555 1_555
N8_3 Co2_3 1_555 1_555
S1_3 C6_3 1_555 1_555
C96_3 C95_3 1_555 1_555
H62_3 C96_3 1_555 1_555
C97_3 C96_3 1_555 1_555
H63_3 C97_3 1_555 1_555
C98_3 C97_3 1_555 1_555
C99_3 C98_3 1_555 1_555
H64_3 C99_3 1_555 1_555
C100_3 H65_3 1_555 1_555
C101_3 C100_3 1_555 1_555
C102_3 C101_3 1_555 1_555
H66_3 C102_3 1_555 1_555
C103_3 C102_3 1_555 1_555
H67_3 C103_3 1_555 1_555
C104_3 C103_3 1_555 1_555
H68_3 C104_3 1_555 1_555
C105_3 C101_3 1_555 1_555
C106_3 C108_3 1_555 1_555
C107_3 C98_3 1_555 1_555
C108_3 C109_3 1_555 1_555
C109_3 H69_3 1_555 1_555
C110_3 C109_3 1_555 1_555
H70_3 C110_3 1_555 1_555
C111_3 C110_3 1_555 1_555
H71_3 C111_3 1_555 1_555
C112_3 C108_3 1_555 1_555
H72_3 C112_3 1_555 1_555
N35_3 C95_3 1_555 1_555
N36_3 C100_3 1_555 1_555
N37_3 C105_3 1_555 1_555
N38_3 C106_3 1_555 1_555
N39_3 C105_3 1_555 1_555
N40_3 Co2_3 1_555 1_555
N41_3 Co2_3 1_555 1_555
Co5_4 N49_3 1_555 1_555
C133_3 H85_3 1_555 1_555
C134_3 C133_3 1_555 1_555
H86_3 C134_3 1_555 1_555
C135_3 C134_3 1_555 1_555
H87_3 C135_3 1_555 1_555
C136_3 C135_3 1_555 1_555
C137_3 C136_3 1_555 1_555
H88_3 C137_3 1_555 1_555
C138_3 N49_3 1_555 1_555
C139_3 H89_3 1_555 1_555
C140_3 C139_3 1_555 1_555
C141_3 C140_3 1_555 1_555
H90_3 C141_3 1_555 1_555
C142_3 C141_3 1_555 1_555
H91_3 C142_3 1_555 1_555
C143_3 C142_3 1_555 1_555
H92_3 C143_3 1_555 1_555
C144_3 C140_3 1_555 1_555
C145_3 C147_3 1_555 1_555
C146_3 C136_3 1_555 1_555
C147_3 C148_3 1_555 1_555
C148_3 H93_3 1_555 1_555
C149_3 C148_3 1_555 1_555
H94_3 C149_3 1_555 1_555
C150_3 C149_3 1_555 1_555
H95_3 C150_3 1_555 1_555
C151_3 C147_3 1_555 1_555
H96_3 C151_3 1_555 1_555
N50_3 Co1_4 1_555 1_555
N51_3 Co5_4 1_555 1_555
N52_3 C144_3 1_555 1_555
N53_3 C145_3 1_555 1_555
N54_3 C144_3 1_555 1_555
N55_3 C150_3 1_555 1_555
S7_3 C138_3 1_555 1_555
C152_3 N56_3 1_555 1_555
N56_3 Co1_4 1_555 1_555
S8_3 C152_3 1_555 1_555
Co6_4 N2_3 1_555 1_555
C154_3 N58_3 1_555 1_555
N58_3 Co5_4 1_555 1_555
S10_3 C154_3 1_555 1_555
C155_3 N59_3 1_555 1_555
N59_3 Co6_4 1_555 1_555
S11_3 C155_3 1_555 1_555
C156_3 N60_3 1_555 1_555
N60_3 Co6_4 1_555 1_555
S12_3 C156_3 1_555 1_555
Co8_4 N36_3 1_555 1_555
Co12_4 N35_3 1_555 1_555
Co17_3 N55_3 1_555 1_555
N61_3 Co5_4 1_555 1_555
N62_3 Co6_4 1_555 1_555
N63_3 Co5_4 1_555 1_555
N64_3 Co1_4 1_555 1_555
N65_3 Co1_4 1_555 1_555
N66_3 Co6_4 1_555 1_555
N67_3 Co6_4 1_555 1_555
N68_3 Co5_4 1_555 1_555
C5_3 N2_3 1_555 1_555
C7_3 N3_3 1_555 1_555
C11_3 N3_3 1_555 1_555
C13_3 N6_3 1_555 1_555
C14_3 N4_3 1_555 1_555
C14_3 N5_3 1_555 1_555
C19_3 N7_3 1_555 1_555
C99_3 N35_3 1_555 1_555
C104_3 N36_3 1_555 1_555
C106_3 N39_3 1_555 1_555
C107_3 N37_3 1_555 1_555
C107_3 N38_3 1_555 1_555
C111_3 N40_3 1_555 1_555
C112_3 N40_3 1_555 1_555
C133_3 N50_3 1_555 1_555
C137_3 N50_3 1_555 1_555
C139_3 N51_3 1_555 1_555
C143_3 N51_3 1_555 1_555
C145_3 N54_3 1_555 1_555
C146_3 N52_3 1_555 1_555
C146_3 N53_3 1_555 1_555
C151_3 N55_3 1_555 1_555
C21_3 H13_3 1_555 1_555
C22_3 C21_3 1_555 1_555
H14_3 C22_3 1_555 1_555
C23_3 C22_3 1_555 1_555
H15_3 C23_3 1_555 1_555
C24_3 C23_3 1_555 1_555
C25_3 C24_3 1_555 1_555
H16_3 C25_3 1_555 1_555
C26_3 C24_3 1_555 1_555
N10_3 C26_3 1_555 1_555
S2_3 C20_3 1_555 1_555
C27_3 H17_3 1_555 1_555
C28_3 C27_3 1_555 1_555
H18_3 C28_3 1_555 1_555
C29_3 C28_3 1_555 1_555
H19_3 C29_3 1_555 1_555
C30_3 C29_3 1_555 1_555
C31_3 C30_3 1_555 1_555
H20_3 C31_3 1_555 1_555
C32_3 C30_3 1_555 1_555
N11_3 C27_3 1_555 1_555
N12_3 C26_3 1_555 1_555
C33_3 H21_3 1_555 1_555
C34_3 C33_3 1_555 1_555
H22_3 C34_3 1_555 1_555
C35_3 C34_3 1_555 1_555
H23_3 C35_3 1_555 1_555
C36_3 C35_3 1_555 1_555
C37_3 C36_3 1_555 1_555
H24_3 C37_3 1_555 1_555
C38_3 N10_3 1_555 1_555
N13_3 C33_3 1_555 1_555
N14_3 C32_3 1_555 1_555
S3_3 C57_3 1_555 1_555
Co4_3 N27_3 1_555 1_555
C58_3 H37_3 1_555 1_555
C59_3 C58_3 1_555 1_555
H38_3 C59_3 1_555 1_555
C60_3 C59_3 1_555 1_555
H39_3 C60_3 1_555 1_555
C61_3 C60_3 1_555 1_555
C62_3 C61_3 1_555 1_555
H40_3 C62_3 1_555 1_555
C63_3 H41_3 1_555 1_555
C64_3 C63_3 1_555 1_555
C65_3 C64_3 1_555 1_555
H42_3 C65_3 1_555 1_555
C66_3 C65_3 1_555 1_555
H43_3 C66_3 1_555 1_555
C67_3 C66_3 1_555 1_555
H44_3 C67_3 1_555 1_555
C68_3 C64_3 1_555 1_555
C69_3 C71_3 1_555 1_555
C70_3 C61_3 1_555 1_555
C71_3 C72_3 1_555 1_555
C72_3 H45_3 1_555 1_555
C73_3 C72_3 1_555 1_555
H46_3 C73_3 1_555 1_555
C74_3 C73_3 1_555 1_555
H47_3 C74_3 1_555 1_555
C75_3 C71_3 1_555 1_555
H48_3 C75_3 1_555 1_555
C76_3 N28_3 1_555 1_555
C77_3 H49_3 1_555 1_555
C78_3 C77_3 1_555 1_555
H50_3 C78_3 1_555 1_555
C79_3 C78_3 1_555 1_555
H51_3 C79_3 1_555 1_555
C80_3 C79_3 1_555 1_555
C81_3 C80_3 1_555 1_555
H52_3 C81_3 1_555 1_555
C82_3 C80_3 1_555 1_555
N22_3 C58_3 1_555 1_555
N23_3 C63_3 1_555 1_555
N24_3 C68_3 1_555 1_555
N25_3 C69_3 1_555 1_555
N26_3 C68_3 1_555 1_555
N27_3 C74_3 1_555 1_555
N28_3 Co4_3 1_555 1_555
N29_3 Co4_3 1_555 1_555
N30_3 C82_3 1_555 1_555
S4_3 C76_3 1_555 1_555
C83_3 H53_3 1_555 1_555
C84_3 C83_3 1_555 1_555
H54_3 C84_3 1_555 1_555
C85_3 C84_3 1_555 1_555
H55_3 C85_3 1_555 1_555
C86_3 C85_3 1_555 1_555
C87_3 C86_3 1_555 1_555
H56_3 C87_3 1_555 1_555
C88_3 C86_3 1_555 1_555
N32_3 C82_3 1_555 1_555
C89_3 H57_3 1_555 1_555
C90_3 C89_3 1_555 1_555
H58_3 C90_3 1_555 1_555
C91_3 C90_3 1_555 1_555
H59_3 C91_3 1_555 1_555
C92_3 C91_3 1_555 1_555
C93_3 C92_3 1_555 1_555
H60_3 C93_3 1_555 1_555
C94_3 N30_3 1_555 1_555
N33_3 C89_3 1_555 1_555
N34_3 C88_3 1_555 1_555
S5_3 C113_3 1_555 1_555
S6_3 C132_3 1_555 1_555
C153_3 N57_3 1_555 1_555
N57_3 Co4_3 1_555 1_555
S9_3 C153_3 1_555 1_555
Co7_4 N23_3 1_555 1_555
Co14_4 N22_3 1_555 1_555
Co15_3 N33_3 1_555 1_555
Co16_3 N13_3 1_555 1_555
N69_3 Co4_3 1_555 1_555
N70_3 Co4_3 1_555 1_555
C21_3 N9_3 1_555 1_555
C25_3 N9_3 1_555 1_555
C31_3 N11_3 1_555 1_555
C32_3 N12_3 1_555 1_555
C36_3 C38_3 1_555 1_555
C37_3 N13_3 1_555 1_555
C38_3 N14_3 1_555 1_555
C62_3 N22_3 1_555 1_555
C67_3 N23_3 1_555 1_555
C69_3 N26_3 1_555 1_555
C70_3 N24_3 1_555 1_555
C70_3 N25_3 1_555 1_555
C75_3 N27_3 1_555 1_555
C77_3 N29_3 1_555 1_555
C81_3 N29_3 1_555 1_555
C83_3 N31_3 1_555 1_555
C87_3 N31_3 1_555 1_555
C88_3 N32_3 1_555 1_555
C92_3 C94_3 1_555 1_555
C93_3 N33_3 1_555 1_555
C94_3 N34_3 1_555 1_555
Co1_5 N1_4 1_555 1_555
Co2_4 N7_4 1_555 1_555
C1_4 H1_4 1_555 1_555
C2_4 C1_4 1_555 1_555
H2_4 C2_4 1_555 1_555
C3_4 C2_4 1_555 1_555
H3_4 C3_4 1_555 1_555
C4_4 C3_4 1_555 1_555
C5_4 C4_4 1_555 1_555
H4_4 C5_4 1_555 1_555
C6_4 N1_4 1_555 1_555
C7_4 H5_4 1_555 1_555
C8_4 C7_4 1_555 1_555
C9_4 C8_4 1_555 1_555
H6_4 C9_4 1_555 1_555
C10_4 C9_4 1_555 1_555
H7_4 C10_4 1_555 1_555
C11_4 C10_4 1_555 1_555
H8_4 C11_4 1_555 1_555
C12_4 C8_4 1_555 1_555
C13_4 C15_4 1_555 1_555
C14_4 C4_4 1_555 1_555
C15_4 C16_4 1_555 1_555
C16_4 H9_4 1_555 1_555
C17_4 C16_4 1_555 1_555
H10_4 C17_4 1_555 1_555
C18_4 C17_4 1_555 1_555
H11_4 C18_4 1_555 1_555
C19_4 C15_4 1_555 1_555
H12_4 C19_4 1_555 1_555
C20_4 N8_4 1_555 1_555
C21_4 H13_4 1_555 1_555
C22_4 C21_4 1_555 1_555
H14_4 C22_4 1_555 1_555
C23_4 C22_4 1_555 1_555
H15_4 C23_4 1_555 1_555
C24_4 C23_4 1_555 1_555
C25_4 C24_4 1_555 1_555
H16_4 C25_4 1_555 1_555
C26_4 C24_4 1_555 1_555
N2_4 C1_4 1_555 1_555
N3_4 Co1_5 1_555 1_555
N4_4 C12_4 1_555 1_555
N5_4 C13_4 1_555 1_555
N6_4 C12_4 1_555 1_555
N7_4 C18_4 1_555 1_555
N8_4 Co2_4 1_555 1_555
N9_4 Co2_4 1_555 1_555
N10_4 C26_4 1_555 1_555
S1_4 C6_4 1_555 1_555
S2_4 C20_4 1_555 1_555
C27_4 H17_4 1_555 1_555
C28_4 C27_4 1_555 1_555
H18_4 C28_4 1_555 1_555
C29_4 C28_4 1_555 1_555
H19_4 C29_4 1_555 1_555
C30_4 C29_4 1_555 1_555
C31_4 C30_4 1_555 1_555
H20_4 C31_4 1_555 1_555
C32_4 C30_4 1_555 1_555
N11_4 C27_4 1_555 1_555
N12_4 C26_4 1_555 1_555
C33_4 H21_4 1_555 1_555
C34_4 C33_4 1_555 1_555
H22_4 C34_4 1_555 1_555
C35_4 C34_4 1_555 1_555
H23_4 C35_4 1_555 1_555
C36_4 C35_4 1_555 1_555
C37_4 C36_4 1_555 1_555
H24_4 C37_4 1_555 1_555
C38_4 N10_4 1_555 1_555
N13_4 C33_4 1_555 1_555
N14_4 C32_4 1_555 1_555
Co3_4 N11_4 1_555 1_555
C39_4 H25_4 1_555 1_555
C40_4 C39_4 1_555 1_555
H26_4 C40_4 1_555 1_555
C41_4 C40_4 1_555 1_555
H27_4 C41_4 1_555 1_555
C42_4 C41_4 1_555 1_555
C43_4 C42_4 1_555 1_555
H28_4 C43_4 1_555 1_555
C44_4 H29_4 1_555 1_555
C45_4 C44_4 1_555 1_555
C46_4 C45_4 1_555 1_555
H30_4 C46_4 1_555 1_555
C47_4 C46_4 1_555 1_555
H31_4 C47_4 1_555 1_555
C48_4 C47_4 1_555 1_555
H32_4 C48_4 1_555 1_555
C49_4 C45_4 1_555 1_555
C50_4 C52_4 1_555 1_555
C51_4 C42_4 1_555 1_555
C52_4 C53_4 1_555 1_555
C53_4 H33_4 1_555 1_555
C54_4 C53_4 1_555 1_555
H34_4 C54_4 1_555 1_555
C55_4 C54_4 1_555 1_555
H35_4 C55_4 1_555 1_555
C56_4 C52_4 1_555 1_555
H36_4 C56_4 1_555 1_555
C57_4 N21_4 1_555 1_555
N15_4 C39_4 1_555 1_555
N16_4 C44_4 1_555 1_555
N17_4 C49_4 1_555 1_555
N18_4 C50_4 1_555 1_555
N19_4 C49_4 1_555 1_555
N20_4 Co3_4 1_555 1_555
N21_4 Co3_4 1_555 1_555
S3_4 C57_4 1_555 1_555
Co4_4 N27_4 1_555 1_555
C58_4 H37_4 1_555 1_555
C59_4 C58_4 1_555 1_555
H38_4 C59_4 1_555 1_555
C60_4 C59_4 1_555 1_555
H39_4 C60_4 1_555 1_555
C61_4 C60_4 1_555 1_555
C62_4 C61_4 1_555 1_555
H40_4 C62_4 1_555 1_555
C63_4 H41_4 1_555 1_555
C64_4 C63_4 1_555 1_555
C65_4 C64_4 1_555 1_555
H42_4 C65_4 1_555 1_555
C66_4 C65_4 1_555 1_555
H43_4 C66_4 1_555 1_555
C67_4 C66_4 1_555 1_555
H44_4 C67_4 1_555 1_555
C68_4 C64_4 1_555 1_555
C69_4 C71_4 1_555 1_555
C70_4 C61_4 1_555 1_555
C71_4 C72_4 1_555 1_555
C72_4 H45_4 1_555 1_555
C73_4 C72_4 1_555 1_555
H46_4 C73_4 1_555 1_555
C74_4 C73_4 1_555 1_555
H47_4 C74_4 1_555 1_555
C75_4 C71_4 1_555 1_555
H48_4 C75_4 1_555 1_555
C76_4 N28_4 1_555 1_555
C77_4 H49_4 1_555 1_555
C78_4 C77_4 1_555 1_555
H50_4 C78_4 1_555 1_555
C79_4 C78_4 1_555 1_555
H51_4 C79_4 1_555 1_555
C80_4 C79_4 1_555 1_555
C81_4 C80_4 1_555 1_555
H52_4 C81_4 1_555 1_555
C82_4 C80_4 1_555 1_555
N22_4 C58_4 1_555 1_555
N23_4 C63_4 1_555 1_555
N24_4 C68_4 1_555 1_555
N25_4 C69_4 1_555 1_555
N26_4 C68_4 1_555 1_555
N27_4 C74_4 1_555 1_555
N28_4 Co4_4 1_555 1_555
N29_4 Co4_4 1_555 1_555
N30_4 C82_4 1_555 1_555
S4_4 C76_4 1_555 1_555
C83_4 H53_4 1_555 1_555
C84_4 C83_4 1_555 1_555
H54_4 C84_4 1_555 1_555
C85_4 C84_4 1_555 1_555
H55_4 C85_4 1_555 1_555
C86_4 C85_4 1_555 1_555
C87_4 C86_4 1_555 1_555
H56_4 C87_4 1_555 1_555
C88_4 C86_4 1_555 1_555
N31_4 Co2_4 1_555 1_555
N32_4 C82_4 1_555 1_555
C89_4 H57_4 1_555 1_555
C90_4 C89_4 1_555 1_555
H58_4 C90_4 1_555 1_555
C91_4 C90_4 1_555 1_555
H59_4 C91_4 1_555 1_555
C92_4 C91_4 1_555 1_555
C93_4 C92_4 1_555 1_555
H60_4 C93_4 1_555 1_555
C94_4 N30_4 1_555 1_555
N33_4 C89_4 1_555 1_555
N34_4 C88_4 1_555 1_555
C95_4 H61_4 1_555 1_555
C96_4 C95_4 1_555 1_555
H62_4 C96_4 1_555 1_555
C97_4 C96_4 1_555 1_555
H63_4 C97_4 1_555 1_555
C98_4 C97_4 1_555 1_555
C99_4 C98_4 1_555 1_555
H64_4 C99_4 1_555 1_555
C100_4 H65_4 1_555 1_555
C101_4 C100_4 1_555 1_555
C102_4 C101_4 1_555 1_555
H66_4 C102_4 1_555 1_555
C103_4 C102_4 1_555 1_555
H67_4 C103_4 1_555 1_555
C104_4 C103_4 1_555 1_555
H68_4 C104_4 1_555 1_555
C105_4 C101_4 1_555 1_555
C106_4 C108_4 1_555 1_555
C107_4 C98_4 1_555 1_555
C108_4 C109_4 1_555 1_555
C109_4 H69_4 1_555 1_555
C110_4 C109_4 1_555 1_555
H70_4 C110_4 1_555 1_555
C111_4 C110_4 1_555 1_555
H71_4 C111_4 1_555 1_555
C112_4 C108_4 1_555 1_555
H72_4 C112_4 1_555 1_555
C113_4 N41_4 1_555 1_555
N35_4 C95_4 1_555 1_555
N36_4 C100_4 1_555 1_555
N37_4 C105_4 1_555 1_555
N38_4 C106_4 1_555 1_555
N39_4 C105_4 1_555 1_555
N40_4 Co2_4 1_555 1_555
N41_4 Co2_4 1_555 1_555
S5_4 C113_4 1_555 1_555
C114_4 H73_4 1_555 1_555
C115_4 C114_4 1_555 1_555
H74_4 C115_4 1_555 1_555
C116_4 C115_4 1_555 1_555
H75_4 C116_4 1_555 1_555
C117_4 C116_4 1_555 1_555
C118_4 C117_4 1_555 1_555
H76_4 C118_4 1_555 1_555
C119_4 H77_4 1_555 1_555
C120_4 C119_4 1_555 1_555
C121_4 C120_4 1_555 1_555
H78_4 C121_4 1_555 1_555
C122_4 C121_4 1_555 1_555
H79_4 C122_4 1_555 1_555
C123_4 C122_4 1_555 1_555
H80_4 C123_4 1_555 1_555
C124_4 C120_4 1_555 1_555
C125_4 C127_4 1_555 1_555
C126_4 C117_4 1_555 1_555
C127_4 C128_4 1_555 1_555
C128_4 H81_4 1_555 1_555
C129_4 C128_4 1_555 1_555
H82_4 C129_4 1_555 1_555
C130_4 C129_4 1_555 1_555
H83_4 C130_4 1_555 1_555
C131_4 C127_4 1_555 1_555
H84_4 C131_4 1_555 1_555
C132_4 N48_4 1_555 1_555
N42_4 C114_4 1_555 1_555
N43_4 C119_4 1_555 1_555
N44_4 C124_4 1_555 1_555
N45_4 C125_4 1_555 1_555
N46_4 C124_4 1_555 1_555
N47_4 Co3_4 1_555 1_555
N48_4 Co3_4 1_555 1_555
S6_4 C132_4 1_555 1_555
Co5_5 N49_4 1_555 1_555
C133_4 H85_4 1_555 1_555
C134_4 C133_4 1_555 1_555
H86_4 C134_4 1_555 1_555
C135_4 C134_4 1_555 1_555
H87_4 C135_4 1_555 1_555
C136_4 C135_4 1_555 1_555
C137_4 C136_4 1_555 1_555
H88_4 C137_4 1_555 1_555
C138_4 N49_4 1_555 1_555
C139_4 H89_4 1_555 1_555
C140_4 C139_4 1_555 1_555
C141_4 C140_4 1_555 1_555
H90_4 C141_4 1_555 1_555
C142_4 C141_4 1_555 1_555
H91_4 C142_4 1_555 1_555
C143_4 C142_4 1_555 1_555
H92_4 C143_4 1_555 1_555
C144_4 C140_4 1_555 1_555
C145_4 C147_4 1_555 1_555
C146_4 C136_4 1_555 1_555
C147_4 C148_4 1_555 1_555
C148_4 H93_4 1_555 1_555
C149_4 C148_4 1_555 1_555
H94_4 C149_4 1_555 1_555
C150_4 C149_4 1_555 1_555
H95_4 C150_4 1_555 1_555
C151_4 C147_4 1_555 1_555
H96_4 C151_4 1_555 1_555
N50_4 Co1_5 1_555 1_555
N51_4 Co5_5 1_555 1_555
N52_4 C144_4 1_555 1_555
N53_4 C145_4 1_555 1_555
N54_4 C144_4 1_555 1_555
N55_4 C150_4 1_555 1_555
S7_4 C138_4 1_555 1_555
C152_4 N56_4 1_555 1_555
N56_4 Co1_5 1_555 1_555
S8_4 C152_4 1_555 1_555
C153_4 N57_4 1_555 1_555
N57_4 Co4_4 1_555 1_555
S9_4 C153_4 1_555 1_555
Co6_5 N2_4 1_555 1_555
C154_4 N58_4 1_555 1_555
N58_4 Co5_5 1_555 1_555
S10_4 C154_4 1_555 1_555
C155_4 N59_4 1_555 1_555
N59_4 Co6_5 1_555 1_555
S11_4 C155_4 1_555 1_555
C156_4 N60_4 1_555 1_555
N60_4 Co6_5 1_555 1_555
S12_4 C156_4 1_555 1_555
Co7_5 N23_4 1_555 1_555
Co8_5 N36_4 1_555 1_555
Co9_5 N16_4 1_555 1_555
Co10_5 N43_4 1_555 1_555
Co11_5 N15_4 1_555 1_555
Co12_5 N35_4 1_555 1_555
Co13_5 N42_4 1_555 1_555
Co14_5 N22_4 1_555 1_555
Co15_4 N33_4 1_555 1_555
Co16_4 N13_4 1_555 1_555
Co17_4 N55_4 1_555 1_555
N61_4 Co5_5 1_555 1_555
N62_4 Co6_5 1_555 1_555
N63_4 Co5_5 1_555 1_555
N64_4 Co1_5 1_555 1_555
N65_4 Co1_5 1_555 1_555
N66_4 Co6_5 1_555 1_555
N67_4 Co6_5 1_555 1_555
N68_4 Co5_5 1_555 1_555
N69_4 Co4_4 1_555 1_555
N70_4 Co4_4 1_555 1_555
N71_4 Co3_4 1_555 1_555
C5_4 N2_4 1_555 1_555
C7_4 N3_4 1_555 1_555
C11_4 N3_4 1_555 1_555
C13_4 N6_4 1_555 1_555
C14_4 N4_4 1_555 1_555
C14_4 N5_4 1_555 1_555
C19_4 N7_4 1_555 1_555
C21_4 N9_4 1_555 1_555
C25_4 N9_4 1_555 1_555
C31_4 N11_4 1_555 1_555
C32_4 N12_4 1_555 1_555
C36_4 C38_4 1_555 1_555
C37_4 N13_4 1_555 1_555
C38_4 N14_4 1_555 1_555
C43_4 N15_4 1_555 1_555
C48_4 N16_4 1_555 1_555
C50_4 N19_4 1_555 1_555
C51_4 N17_4 1_555 1_555
C51_4 N18_4 1_555 1_555
C55_4 N20_4 1_555 1_555
C56_4 N20_4 1_555 1_555
C62_4 N22_4 1_555 1_555
C67_4 N23_4 1_555 1_555
C69_4 N26_4 1_555 1_555
C70_4 N24_4 1_555 1_555
C70_4 N25_4 1_555 1_555
C75_4 N27_4 1_555 1_555
C77_4 N29_4 1_555 1_555
C81_4 N29_4 1_555 1_555
C83_4 N31_4 1_555 1_555
C87_4 N31_4 1_555 1_555
C88_4 N32_4 1_555 1_555
C92_4 C94_4 1_555 1_555
C93_4 N33_4 1_555 1_555
C94_4 N34_4 1_555 1_555
C99_4 N35_4 1_555 1_555
C104_4 N36_4 1_555 1_555
C106_4 N39_4 1_555 1_555
C107_4 N37_4 1_555 1_555
C107_4 N38_4 1_555 1_555
C111_4 N40_4 1_555 1_555
C112_4 N40_4 1_555 1_555
C118_4 N42_4 1_555 1_555
C123_4 N43_4 1_555 1_555
C125_4 N46_4 1_555 1_555
C126_4 N44_4 1_555 1_555
C126_4 N45_4 1_555 1_555
C130_4 N47_4 1_555 1_555
C131_4 N47_4 1_555 1_555
C133_4 N50_4 1_555 1_555
C137_4 N50_4 1_555 1_555
C139_4 N51_4 1_555 1_555
C143_4 N51_4 1_555 1_555
C145_4 N54_4 1_555 1_555
C146_4 N52_4 1_555 1_555
C146_4 N53_4 1_555 1_555
C151_4 N55_4 1_555 1_555
C155_5 N59_5 1_555 1_555
N59_5 Co6_6 1_555 1_555
S11_5 C155_5 1_555 1_555
N62_5 Co6_6 1_555 1_555
N66_5 Co6_6 1_555 1_555
Co1_6 N1_5 1_555 1_555
C6_5 N1_5 1_555 1_555
S1_5 C6_5 1_555 1_555
C134_5 C133_5 1_555 1_555
H86_5 C134_5 1_555 1_555
C135_5 C134_5 1_555 1_555
H87_5 C135_5 1_555 1_555
C136_5 C135_5 1_555 1_555
C137_5 C136_5 1_555 1_555
H88_5 C137_5 1_555 1_555
C139_5 H89_5 1_555 1_555
C140_5 C139_5 1_555 1_555
C141_5 C140_5 1_555 1_555
H90_5 C141_5 1_555 1_555
C142_5 C141_5 1_555 1_555
H91_5 C142_5 1_555 1_555
C143_5 C142_5 1_555 1_555
H92_5 C143_5 1_555 1_555
C144_5 C140_5 1_555 1_555
C145_5 C147_5 1_555 1_555
C146_5 C136_5 1_555 1_555
C147_5 C148_5 1_555 1_555
C148_5 H93_5 1_555 1_555
C149_5 C148_5 1_555 1_555
H94_5 C149_5 1_555 1_555
C150_5 C149_5 1_555 1_555
H95_5 C150_5 1_555 1_555
C151_5 C147_5 1_555 1_555
H96_5 C151_5 1_555 1_555
N50_5 Co1_6 1_555 1_555
N52_5 C144_5 1_555 1_555
N53_5 C145_5 1_555 1_555
N54_5 C144_5 1_555 1_555
N55_5 C150_5 1_555 1_555
Co17_5 N55_5 1_555 1_555
N65_5 Co1_6 1_555 1_555
C133_5 N50_5 1_555 1_555
C137_5 N50_5 1_555 1_555
C139_5 N66 1_555 1_555
C143_5 N66 1_555 1_555
C145_5 N54_5 1_555 1_555
C146_5 N52_5 1_555 1_555
C146_5 N53_5 1_555 1_555
C151_5 N55_5 1_555 1_555
Co15_2 N7_5 1_555 1_555
C2_5 C1_5 1_555 1_555
H2_5 C2_5 1_555 1_555
C3_5 C2_5 1_555 1_555
H3_5 C3_5 1_555 1_555
C4_5 C3_5 1_555 1_555
C5_5 C4_5 1_555 1_555
H4_5 C5_5 1_555 1_555
C7_5 H5_5 1_555 1_555
C8_5 C7_5 1_555 1_555
C9_5 C8_5 1_555 1_555
H6_5 C9_5 1_555 1_555
C10_5 C9_5 1_555 1_555
H7_5 C10_5 1_555 1_555
C11_5 C10_5 1_555 1_555
H8_5 C11_5 1_555 1_555
C12_5 C8_5 1_555 1_555
C13_5 C15_5 1_555 1_555
C14_5 C4_5 1_555 1_555
C15_5 C16_5 1_555 1_555
C16_5 H9_5 1_555 1_555
C17_5 C16_5 1_555 1_555
H10_5 C17_5 1_555 1_555
C18_5 C17_5 1_555 1_555
H11_5 C18_5 1_555 1_555
C19_5 C15_5 1_555 1_555
H12_5 C19_5 1_555 1_555
C20_5 N8_5 1_555 1_555
C21_5 H13_5 1_555 1_555
C22_5 C21_5 1_555 1_555
H14_5 C22_5 1_555 1_555
C23_5 C22_5 1_555 1_555
H15_5 C23_5 1_555 1_555
C24_5 C23_5 1_555 1_555
C25_5 C24_5 1_555 1_555
H16_5 C25_5 1_555 1_555
C26_5 C24_5 1_555 1_555
N2_5 C1_5 1_555 1_555
N3_5 Co1_7 1_555 1_555
N4_5 C12_5 1_555 1_555
N5_5 C13_5 1_555 1_555
N6_5 C12_5 1_555 1_555
N7_5 C18_5 1_555 1_555
N8_5 Co15_2 1_555 1_555
N9_5 Co15_2 1_555 1_555
N10_5 C26_5 1_555 1_555
S2_5 C20_5 1_555 1_555
C27_5 H17_5 1_555 1_555
C28_5 C27_5 1_555 1_555
H18_5 C28_5 1_555 1_555
C29_5 C28_5 1_555 1_555
H19_5 C29_5 1_555 1_555
C30_5 C29_5 1_555 1_555
C31_5 C30_5 1_555 1_555
H20_5 C31_5 1_555 1_555
C32_5 C30_5 1_555 1_555
N11_5 C27_5 1_555 1_555
N12_5 C26_5 1_555 1_555
C33_5 H21_5 1_555 1_555
C34_5 C33_5 1_555 1_555
H22_5 C34_5 1_555 1_555
C35_5 C34_5 1_555 1_555
H23_5 C35_5 1_555 1_555
C36_5 C35_5 1_555 1_555
C37_5 C36_5 1_555 1_555
H24_5 C37_5 1_555 1_555
C38_5 N10_5 1_555 1_555
N13_5 C33_5 1_555 1_555
N14_5 C32_5 1_555 1_555
Co16_2 N11_5 1_555 1_555
C39_5 H25_5 1_555 1_555
C40_5 C39_5 1_555 1_555
H26_5 C40_5 1_555 1_555
C41_5 C40_5 1_555 1_555
H27_5 C41_5 1_555 1_555
C42_5 C41_5 1_555 1_555
C43_5 C42_5 1_555 1_555
H28_5 C43_5 1_555 1_555
C44_5 H29_5 1_555 1_555
C45_5 C44_5 1_555 1_555
C46_5 C45_5 1_555 1_555
H30_5 C46_5 1_555 1_555
C47_5 C46_5 1_555 1_555
H31_5 C47_5 1_555 1_555
C48_5 C47_5 1_555 1_555
H32_5 C48_5 1_555 1_555
C49_5 C45_5 1_555 1_555
C50_5 C52_5 1_555 1_555
C51_5 C42_5 1_555 1_555
C52_5 C53_5 1_555 1_555
C53_5 H33_5 1_555 1_555
C54_5 C53_5 1_555 1_555
H34_5 C54_5 1_555 1_555
C55_5 C54_5 1_555 1_555
H35_5 C55_5 1_555 1_555
C56_5 C52_5 1_555 1_555
H36_5 C56_5 1_555 1_555
C57_5 N21_5 1_555 1_555
N15_5 C39_5 1_555 1_555
N16_5 C44_5 1_555 1_555
N17_5 C49_5 1_555 1_555
N18_5 C50_5 1_555 1_555
N19_5 C49_5 1_555 1_555
N20_5 Co16_2 1_555 1_555
N21_5 Co16_2 1_555 1_555
S3_5 C57_5 1_555 1_555
C95_5 H61_5 1_555 1_555
C96_5 C95_5 1_555 1_555
H62_5 C96_5 1_555 1_555
C97_5 C96_5 1_555 1_555
H63_5 C97_5 1_555 1_555
C98_5 C97_5 1_555 1_555
C99_5 C98_5 1_555 1_555
H64_5 C99_5 1_555 1_555
C100_5 H65_5 1_555 1_555
C101_5 C100_5 1_555 1_555
C102_5 C101_5 1_555 1_555
H66_5 C102_5 1_555 1_555
C103_5 C102_5 1_555 1_555
H67_5 C103_5 1_555 1_555
C104_5 C103_5 1_555 1_555
H68_5 C104_5 1_555 1_555
C105_5 C101_5 1_555 1_555
C106_5 C108_5 1_555 1_555
C107_5 C98_5 1_555 1_555
C108_5 C109_5 1_555 1_555
C109_5 H69_5 1_555 1_555
C110_5 C109_5 1_555 1_555
H70_5 C110_5 1_555 1_555
C111_5 C110_5 1_555 1_555
H71_5 C111_5 1_555 1_555
C112_5 C108_5 1_555 1_555
H72_5 C112_5 1_555 1_555
C113_5 N41_5 1_555 1_555
N35_5 C95_5 1_555 1_555
N36_5 C100_5 1_555 1_555
N37_5 C105_5 1_555 1_555
N38_5 C106_5 1_555 1_555
N39_5 C105_5 1_555 1_555
N40_5 Co15_2 1_555 1_555
N41_5 Co15_2 1_555 1_555
S5_5 C113_5 1_555 1_555
C115_5 C114_5 1_555 1_555
H74_5 C115_5 1_555 1_555
C116_5 C115_5 1_555 1_555
H75_5 C116_5 1_555 1_555
C117_5 C116_5 1_555 1_555
C118_5 C117_5 1_555 1_555
H76_5 C118_5 1_555 1_555
C119_5 H77_5 1_555 1_555
C120_5 C119_5 1_555 1_555
C121_5 C120_5 1_555 1_555
H78_5 C121_5 1_555 1_555
C122_5 C121_5 1_555 1_555
H79_5 C122_5 1_555 1_555
C123_5 C122_5 1_555 1_555
H80_5 C123_5 1_555 1_555
C124_5 C120_5 1_555 1_555
C125_5 C127_5 1_555 1_555
C126_5 C117_5 1_555 1_555
C127_5 C128_5 1_555 1_555
C128_5 H81_5 1_555 1_555
C129_5 C128_5 1_555 1_555
H82_5 C129_5 1_555 1_555
C130_5 C129_5 1_555 1_555
H83_5 C130_5 1_555 1_555
C131_5 C127_5 1_555 1_555
H84_5 C131_5 1_555 1_555
C132_5 N48_5 1_555 1_555
N42_5 C114_5 1_555 1_555
N43_5 C119_5 1_555 1_555
N44_5 C124_5 1_555 1_555
N45_5 C125_5 1_555 1_555
N46_5 C124_5 1_555 1_555
N47_5 Co16_2 1_555 1_555
N48_5 Co16_2 1_555 1_555
S6_5 C132_5 1_555 1_555
C152_5 N56_5 1_555 1_555
N56_5 Co1_7 1_555 1_555
S8_5 C152_5 1_555 1_555
Co6_7 N2_5 1_555 1_555
C156_5 N60_5 1_555 1_555
N60_5 Co6_7 1_555 1_555
S12_5 C156_5 1_555 1_555
Co8_6 N36_5 1_555 1_555
Co9_6 N16_5 1_555 1_555
Co10_6 N43_5 1_555 1_555
Co11_6 N15_5 1_555 1_555
Co12_6 N35_5 1_555 1_555
Co13_7 N42_5 1_555 1_555
N64_5 Co1_7 1_555 1_555
N67_5 Co6_7 1_555 1_555
C5_5 N2_5 1_555 1_555
C7_5 N3_5 1_555 1_555
C11_5 N3_5 1_555 1_555
C13_5 N6_5 1_555 1_555
C14_5 N4_5 1_555 1_555
C14_5 N5_5 1_555 1_555
C19_5 N7_5 1_555 1_555
C21_5 N9_5 1_555 1_555
C25_5 N9_5 1_555 1_555
C31_5 N11_5 1_555 1_555
C32_5 N12_5 1_555 1_555
C36_5 C38_5 1_555 1_555
C37_5 N13_5 1_555 1_555
C38_5 N14_5 1_555 1_555
C43_5 N15_5 1_555 1_555
C48_5 N16_5 1_555 1_555
C50_5 N19_5 1_555 1_555
C51_5 N17_5 1_555 1_555
C51_5 N18_5 1_555 1_555
C55_5 N20_5 1_555 1_555
C56_5 N20_5 1_555 1_555
C99_5 N35_5 1_555 1_555
C104_5 N36_5 1_555 1_555
C106_5 N39_5 1_555 1_555
C107_5 N37_5 1_555 1_555
C107_5 N38_5 1_555 1_555
C111_5 N40_5 1_555 1_555
C112_5 N40_5 1_555 1_555
C118_5 N42_5 1_555 1_555
C123_5 N43_5 1_555 1_555
C125_5 N46_5 1_555 1_555
C126_5 N44_5 1_555 1_555
C126_5 N45_5 1_555 1_555
C130_5 N47_5 1_555 1_555
C131_5 N47_5 1_555 1_555
Co1_8 N1_6 1_555 1_555
Co15_3 N7_6 1_555 1_555
C1_6 H1_6 1_555 1_555
C2_6 C1_6 1_555 1_555
H2_6 C2_6 1_555 1_555
C3_6 C2_6 1_555 1_555
H3_6 C3_6 1_555 1_555
C4_6 C3_6 1_555 1_555
C5_6 C4_6 1_555 1_555
H4_6 C5_6 1_555 1_555
C6_6 N1_6 1_555 1_555
C7_6 H5_6 1_555 1_555
C8_6 C7_6 1_555 1_555
C9_6 C8_6 1_555 1_555
H6_6 C9_6 1_555 1_555
C10_6 C9_6 1_555 1_555
H7_6 C10_6 1_555 1_555
C11_6 C10_6 1_555 1_555
H8_6 C11_6 1_555 1_555
C12_6 C8_6 1_555 1_555
C13_6 C15_6 1_555 1_555
C14_6 C4_6 1_555 1_555
C15_6 C16_6 1_555 1_555
C16_6 H9_6 1_555 1_555
C17_6 C16_6 1_555 1_555
H10_6 C17_6 1_555 1_555
C18_6 C17_6 1_555 1_555
H11_6 C18_6 1_555 1_555
C19_6 C15_6 1_555 1_555
H12_6 C19_6 1_555 1_555
C20_6 N8_6 1_555 1_555
C21_6 H13_6 1_555 1_555
C22_6 C21_6 1_555 1_555
H14_6 C22_6 1_555 1_555
C23_6 C22_6 1_555 1_555
H15_6 C23_6 1_555 1_555
C24_6 C23_6 1_555 1_555
C25_6 C24_6 1_555 1_555
H16_6 C25_6 1_555 1_555
C26_6 C24_6 1_555 1_555
N2_6 C1_6 1_555 1_555
N3_6 Co1_8 1_555 1_555
N4_6 C12_6 1_555 1_555
N5_6 C13_6 1_555 1_555
N6_6 C12_6 1_555 1_555
N7_6 C18_6 1_555 1_555
N8_6 Co15_3 1_555 1_555
N9_6 Co15_3 1_555 1_555
N10_6 C26_6 1_555 1_555
S1_6 C6_6 1_555 1_555
S2_6 C20_6 1_555 1_555
C27_6 H17_6 1_555 1_555
C28_6 C27_6 1_555 1_555
H18_6 C28_6 1_555 1_555
C29_6 C28_6 1_555 1_555
H19_6 C29_6 1_555 1_555
C30_6 C29_6 1_555 1_555
C31_6 C30_6 1_555 1_555
H20_6 C31_6 1_555 1_555
C32_6 C30_6 1_555 1_555
N11_6 C27_6 1_555 1_555
N12_6 C26_6 1_555 1_555
C33_6 H21_6 1_555 1_555
C34_6 C33_6 1_555 1_555
H22_6 C34_6 1_555 1_555
C35_6 C34_6 1_555 1_555
H23_6 C35_6 1_555 1_555
C36_6 C35_6 1_555 1_555
C37_6 C36_6 1_555 1_555
H24_6 C37_6 1_555 1_555
C38_6 N10_6 1_555 1_555
N13_6 C33_6 1_555 1_555
N14_6 C32_6 1_555 1_555
Co16_3 N11_6 1_555 1_555
C40_6 C39_6 1_555 1_555
H26_6 C40_6 1_555 1_555
C41_6 C40_6 1_555 1_555
H27_6 C41_6 1_555 1_555
C42_6 C41_6 1_555 1_555
C43_6 C42_6 1_555 1_555
H28_6 C43_6 1_555 1_555
C44_6 H29_6 1_555 1_555
C45_6 C44_6 1_555 1_555
C46_6 C45_6 1_555 1_555
H30_6 C46_6 1_555 1_555
C47_6 C46_6 1_555 1_555
H31_6 C47_6 1_555 1_555
C48_6 C47_6 1_555 1_555
H32_6 C48_6 1_555 1_555
C49_6 C45_6 1_555 1_555
C50_6 C52_6 1_555 1_555
C51_6 C42_6 1_555 1_555
C52_6 C53_6 1_555 1_555
C53_6 H33_6 1_555 1_555
C54_6 C53_6 1_555 1_555
H34_6 C54_6 1_555 1_555
C55_6 C54_6 1_555 1_555
H35_6 C55_6 1_555 1_555
C56_6 C52_6 1_555 1_555
H36_6 C56_6 1_555 1_555
C57_6 N21_6 1_555 1_555
N15_6 C39_6 1_555 1_555
N16_6 C44_6 1_555 1_555
N17_6 C49_6 1_555 1_555
N18_6 C50_6 1_555 1_555
N19_6 C49_6 1_555 1_555
N20_6 Co16_3 1_555 1_555
N21_6 Co16_3 1_555 1_555
S3_6 C57_6 1_555 1_555
C95_6 H61_6 1_555 1_555
C96_6 C95_6 1_555 1_555
H62_6 C96_6 1_555 1_555
C97_6 C96_6 1_555 1_555
H63_6 C97_6 1_555 1_555
C98_6 C97_6 1_555 1_555
C99_6 C98_6 1_555 1_555
H64_6 C99_6 1_555 1_555
C100_6 H65_6 1_555 1_555
C101_6 C100_6 1_555 1_555
C102_6 C101_6 1_555 1_555
H66_6 C102_6 1_555 1_555
C103_6 C102_6 1_555 1_555
H67_6 C103_6 1_555 1_555
C104_6 C103_6 1_555 1_555
H68_6 C104_6 1_555 1_555
C105_6 C101_6 1_555 1_555
C106_6 C108_6 1_555 1_555
C107_6 C98_6 1_555 1_555
C108_6 C109_6 1_555 1_555
C109_6 H69_6 1_555 1_555
C110_6 C109_6 1_555 1_555
H70_6 C110_6 1_555 1_555
C111_6 C110_6 1_555 1_555
H71_6 C111_6 1_555 1_555
C112_6 C108_6 1_555 1_555
H72_6 C112_6 1_555 1_555
C113_6 N41_6 1_555 1_555
N35_6 C95_6 1_555 1_555
N36_6 C100_6 1_555 1_555
N37_6 C105_6 1_555 1_555
N38_6 C106_6 1_555 1_555
N39_6 C105_6 1_555 1_555
N40_6 Co15_3 1_555 1_555
N41_6 Co15_3 1_555 1_555
S5_6 C113_6 1_555 1_555
C114_6 H73_6 1_555 1_555
C115_6 C114_6 1_555 1_555
H74_6 C115_6 1_555 1_555
C116_6 C115_6 1_555 1_555
H75_6 C116_6 1_555 1_555
C117_6 C116_6 1_555 1_555
C118_6 C117_6 1_555 1_555
H76_6 C118_6 1_555 1_555
C119_6 H77_6 1_555 1_555
C120_6 C119_6 1_555 1_555
C121_6 C120_6 1_555 1_555
H78_6 C121_6 1_555 1_555
C122_6 C121_6 1_555 1_555
H79_6 C122_6 1_555 1_555
C123_6 C122_6 1_555 1_555
H80_6 C123_6 1_555 1_555
C124_6 C120_6 1_555 1_555
C125_6 C127_6 1_555 1_555
C126_6 C117_6 1_555 1_555
C127_6 C128_6 1_555 1_555
C128_6 H81_6 1_555 1_555
C129_6 C128_6 1_555 1_555
H82_6 C129_6 1_555 1_555
C130_6 C129_6 1_555 1_555
H83_6 C130_6 1_555 1_555
C131_6 C127_6 1_555 1_555
H84_6 C131_6 1_555 1_555
C132_6 N48_6 1_555 1_555
N42_6 C114_6 1_555 1_555
N43_6 C119_6 1_555 1_555
N44_6 C124_6 1_555 1_555
N45_6 C125_6 1_555 1_555
N46_6 C124_6 1_555 1_555
N47_6 Co16_3 1_555 1_555
N48_6 Co16_3 1_555 1_555
S6_6 C132_6 1_555 1_555
C133_6 H85_6 1_555 1_555
C134_6 C133_6 1_555 1_555
H86_6 C134_6 1_555 1_555
C135_6 C134_6 1_555 1_555
H87_6 C135_6 1_555 1_555
C136_6 C135_6 1_555 1_555
C137_6 C136_6 1_555 1_555
H88_6 C137_6 1_555 1_555
C139_6 H89_6 1_555 1_555
C140_6 C139_6 1_555 1_555
C141_6 C140_6 1_555 1_555
H90_6 C141_6 1_555 1_555
C142_6 C141_6 1_555 1_555
H91_6 C142_6 1_555 1_555
C143_6 C142_6 1_555 1_555
H92_6 C143_6 1_555 1_555
C144_6 C140_6 1_555 1_555
C145_6 C147_6 1_555 1_555
C146_6 C136_6 1_555 1_555
C147_6 C148_6 1_555 1_555
C148_6 H93_6 1_555 1_555
C149_6 C148_6 1_555 1_555
H94_6 C149_6 1_555 1_555
C150_6 C149_6 1_555 1_555
H95_6 C150_6 1_555 1_555
C151_6 C147_6 1_555 1_555
H96_6 C151_6 1_555 1_555
N50_6 Co1_8 1_555 1_555
N52_6 C144_6 1_555 1_555
N53_6 C145_6 1_555 1_555
N54_6 C144_6 1_555 1_555
N55_6 C150_6 1_555 1_555
C152_6 N56_6 1_555 1_555
N56_6 Co1_8 1_555 1_555
S8_6 C152_6 1_555 1_555
Co6_8 N2_6 1_555 1_555
C155_6 N59_6 1_555 1_555
N59_6 Co6_8 1_555 1_555
S11_6 C155_6 1_555 1_555
C156_6 N60_6 1_555 1_555
N60_6 Co6_8 1_555 1_555
S12_6 C156_6 1_555 1_555
Co8_8 N36_6 1_555 1_555
Co9_7 N16_6 1_555 1_555
Co10_8 N43_6 1_555 1_555
Co11_8 N15_6 1_555 1_555
Co12_7 N35_6 1_555 1_555
Co13_8 N42_6 1_555 1_555
Co16_6 N13_6 1_555 1_555
Co17_6 N55_6 1_555 1_555
N62_6 Co6_8 1_555 1_555
N64_6 Co1_8 1_555 1_555
N65_6 Co1_8 1_555 1_555
N66_6 Co6_8 1_555 1_555
N67_6 Co6_8 1_555 1_555
C5_6 N2_6 1_555 1_555
C7_6 N3_6 1_555 1_555
C11_6 N3_6 1_555 1_555
C13_6 N6_6 1_555 1_555
C14_6 N4_6 1_555 1_555
C14_6 N5_6 1_555 1_555
C19_6 N7_6 1_555 1_555
C21_6 N9_6 1_555 1_555
C25_6 N9_6 1_555 1_555
C31_6 N11_6 1_555 1_555
C32_6 N12_6 1_555 1_555
C36_6 C38_6 1_555 1_555
C37_6 N13_6 1_555 1_555
C38_6 N14_6 1_555 1_555
C43_6 N15_6 1_555 1_555
C48_6 N16_6 1_555 1_555
C50_6 N19_6 1_555 1_555
C51_6 N17_6 1_555 1_555
C51_6 N18_6 1_555 1_555
C55_6 N20_6 1_555 1_555
C56_6 N20_6 1_555 1_555
C99_6 N35_6 1_555 1_555
C104_6 N36_6 1_555 1_555
C106_6 N39_6 1_555 1_555
C107_6 N37_6 1_555 1_555
C107_6 N38_6 1_555 1_555
C111_6 N40_6 1_555 1_555
C112_6 N40_6 1_555 1_555
C118_6 N42_6 1_555 1_555
C123_6 N43_6 1_555 1_555
C125_6 N46_6 1_555 1_555
C126_6 N44_6 1_555 1_555
C126_6 N45_6 1_555 1_555
C130_6 N47_6 1_555 1_555
C131_6 N47_6 1_555 1_555
C133_6 N50_6 1_555 1_555
C137_6 N50_6 1_555 1_555
C139_6 N66_4 1_555 1_555
C143_6 N66_4 1_555 1_555
C145_6 N54_6 1_555 1_555
C146_6 N52_6 1_555 1_555
C146_6 N53_6 1_555 1_555
C151_6 N55_6 1_555 1_555
Co1_9 N1_7 1_555 1_555
Co15 N7_7 1_555 1_555
C1_7 H1_7 1_555 1_555
C2_7 C1_7 1_555 1_555
H2_7 C2_7 1_555 1_555
C3_7 C2_7 1_555 1_555
H3_7 C3_7 1_555 1_555
C4_7 C3_7 1_555 1_555
C5_7 C4_7 1_555 1_555
H4_7 C5_7 1_555 1_555
C6_7 N1_7 1_555 1_555
C7_7 H5_7 1_555 1_555
C8_7 C7_7 1_555 1_555
C9_7 C8_7 1_555 1_555
H6_7 C9_7 1_555 1_555
C10_7 C9_7 1_555 1_555
H7_7 C10_7 1_555 1_555
C11_7 C10_7 1_555 1_555
H8_7 C11_7 1_555 1_555
C12_7 C8_7 1_555 1_555
C13_7 C15_7 1_555 1_555
C14_7 C4_7 1_555 1_555
C15_7 C16_7 1_555 1_555
C16_7 H9_7 1_555 1_555
C17_7 C16_7 1_555 1_555
H10_7 C17_7 1_555 1_555
C18_7 C17_7 1_555 1_555
H11_7 C18_7 1_555 1_555
C19_7 C15_7 1_555 1_555
H12_7 C19_7 1_555 1_555
N2_7 C1_7 1_555 1_555
N3_7 Co1_9 1_555 1_555
N4_7 C12_7 1_555 1_555
N5_7 C13_7 1_555 1_555
N6_7 C12_7 1_555 1_555
N7_7 C18_7 1_555 1_555
N8_7 Co15 1_555 1_555
S1_7 C6_7 1_555 1_555
C96_7 C95_7 1_555 1_555
H62_7 C96_7 1_555 1_555
C97_7 C96_7 1_555 1_555
H63_7 C97_7 1_555 1_555
C98_7 C97_7 1_555 1_555
C99_7 C98_7 1_555 1_555
H64_7 C99_7 1_555 1_555
C100_7 H65_7 1_555 1_555
C101_7 C100_7 1_555 1_555
C102_7 C101_7 1_555 1_555
H66_7 C102_7 1_555 1_555
C103_7 C102_7 1_555 1_555
H67_7 C103_7 1_555 1_555
C104_7 C103_7 1_555 1_555
H68_7 C104_7 1_555 1_555
C105_7 C101_7 1_555 1_555
C106_7 C108_7 1_555 1_555
C107_7 C98_7 1_555 1_555
C108_7 C109_7 1_555 1_555
C109_7 H69_7 1_555 1_555
C110_7 C109_7 1_555 1_555
H70_7 C110_7 1_555 1_555
C111_7 C110_7 1_555 1_555
H71_7 C111_7 1_555 1_555
C112_7 C108_7 1_555 1_555
H72_7 C112_7 1_555 1_555
N35_7 C95_7 1_555 1_555
N36_7 C100_7 1_555 1_555
N37_7 C105_7 1_555 1_555
N38_7 C106_7 1_555 1_555
N39_7 C105_7 1_555 1_555
N40_7 Co15 1_555 1_555
N41_7 Co15 1_555 1_555
C133_7 H85_7 1_555 1_555
C134_7 C133_7 1_555 1_555
H86_7 C134_7 1_555 1_555
C135_7 C134_7 1_555 1_555
H87_7 C135_7 1_555 1_555
C136_7 C135_7 1_555 1_555
C137_7 C136_7 1_555 1_555
H88_7 C137_7 1_555 1_555
C139_7 H89_7 1_555 1_555
C140_7 C139_7 1_555 1_555
C141_7 C140_7 1_555 1_555
H90_7 C141_7 1_555 1_555
C142_7 C141_7 1_555 1_555
H91_7 C142_7 1_555 1_555
C143_7 C142_7 1_555 1_555
H92_7 C143_7 1_555 1_555
C144_7 C140_7 1_555 1_555
C145_7 C147_7 1_555 1_555
C146_7 C136_7 1_555 1_555
C147_7 C148_7 1_555 1_555
C148_7 H93_7 1_555 1_555
C149_7 C148_7 1_555 1_555
H94_7 C149_7 1_555 1_555
C150_7 C149_7 1_555 1_555
H95_7 C150_7 1_555 1_555
C151_7 C147_7 1_555 1_555
H96_7 C151_7 1_555 1_555
N50_7 Co1_9 1_555 1_555
N52_7 C144_7 1_555 1_555
N53_7 C145_7 1_555 1_555
N54_7 C144_7 1_555 1_555
N55_7 C150_7 1_555 1_555
C152_7 N56_7 1_555 1_555
N56_7 Co1_9 1_555 1_555
S8_7 C152_7 1_555 1_555
Co6_9 N2_7 1_555 1_555
C155_7 N59_7 1_555 1_555
N59_7 Co6_9 1_555 1_555
S11_7 C155_7 1_555 1_555
C156_7 N60_7 1_555 1_555
N60_7 Co6_9 1_555 1_555
S12_7 C156_7 1_555 1_555
Co8_9 N36_7 1_555 1_555
Co12_9 N35_7 1_555 1_555
Co17_7 N55_7 1_555 1_555
N62_7 Co6_9 1_555 1_555
N64_7 Co1_9 1_555 1_555
N65_7 Co1_9 1_555 1_555
N66_7 Co6_9 1_555 1_555
N67_7 Co6_9 1_555 1_555
C5_7 N2_7 1_555 1_555
C7_7 N3_7 1_555 1_555
C11_7 N3_7 1_555 1_555
C13_7 N6_7 1_555 1_555
C14_7 N4_7 1_555 1_555
C14_7 N5_7 1_555 1_555
C19_7 N7_7 1_555 1_555
C99_7 N35_7 1_555 1_555
C104_7 N36_7 1_555 1_555
C106_7 N39_7 1_555 1_555
C107_7 N37_7 1_555 1_555
C107_7 N38_7 1_555 1_555
C111_7 N40_7 1_555 1_555
C112_7 N40_7 1_555 1_555
C133_7 N50_7 1_555 1_555
C137_7 N50_7 1_555 1_555
C139_7 N66_2 1_555 1_555
C143_7 N66_2 1_555 1_555
C145_7 N54_7 1_555 1_555
C146_7 N52_7 1_555 1_555
C146_7 N53_7 1_555 1_555
C151_7 N55_7 1_555 1_555
C39_7 H25_7 1_555 1_555
C40_7 C39_7 1_555 1_555
H26_7 C40_7 1_555 1_555
C41_7 C40_7 1_555 1_555
H27_7 C41_7 1_555 1_555
C42_7 C41_7 1_555 1_555
C43_7 C42_7 1_555 1_555
H28_7 C43_7 1_555 1_555
C44_7 H29_7 1_555 1_555
C45_7 C44_7 1_555 1_555
C46_7 C45_7 1_555 1_555
H30_7 C46_7 1_555 1_555
C47_7 C46_7 1_555 1_555
H31_7 C47_7 1_555 1_555
C48_7 C47_7 1_555 1_555
H32_7 C48_7 1_555 1_555
C49_7 C45_7 1_555 1_555
C50_7 C52_7 1_555 1_555
C51_7 C42_7 1_555 1_555
C52_7 C53_7 1_555 1_555
C53_7 H33_7 1_555 1_555
C54_7 C53_7 1_555 1_555
H34_7 C54_7 1_555 1_555
C55_7 C54_7 1_555 1_555
H35_7 C55_7 1_555 1_555
C56_7 C52_7 1_555 1_555
H36_7 C56_7 1_555 1_555
N15_7 C39_7 1_555 1_555
N16_7 C44_7 1_555 1_555
N17_7 C49_7 1_555 1_555
N18_7 C50_7 1_555 1_555
N19_7 C49_7 1_555 1_555
N20_7 Co16 1_555 1_555
N21_7 Co16 1_555 1_555
C114_7 H73_7 1_555 1_555
C115_7 C114_7 1_555 1_555
H74_7 C115_7 1_555 1_555
C116_7 C115_7 1_555 1_555
H75_7 C116_7 1_555 1_555
C117_7 C116_7 1_555 1_555
C118_7 C117_7 1_555 1_555
H76_7 C118_7 1_555 1_555
C119_7 H77_7 1_555 1_555
C120_7 C119_7 1_555 1_555
C121_7 C120_7 1_555 1_555
H78_7 C121_7 1_555 1_555
C122_7 C121_7 1_555 1_555
H79_7 C122_7 1_555 1_555
C123_7 C122_7 1_555 1_555
H80_7 C123_7 1_555 1_555
C124_7 C120_7 1_555 1_555
C125_7 C127_7 1_555 1_555
C126_7 C117_7 1_555 1_555
C127_7 C128_7 1_555 1_555
C128_7 H81_7 1_555 1_555
C129_7 C128_7 1_555 1_555
H82_7 C129_7 1_555 1_555
C130_7 C129_7 1_555 1_555
H83_7 C130_7 1_555 1_555
C131_7 C127_7 1_555 1_555
H84_7 C131_7 1_555 1_555
N42_7 C114_7 1_555 1_555
N43_7 C119_7 1_555 1_555
N44_7 C124_7 1_555 1_555
N45_7 C125_7 1_555 1_555
N46_7 C124_7 1_555 1_555
N47_7 Co16 1_555 1_555
N48_7 Co16 1_555 1_555
Co9_9 N16_7 1_555 1_555
Co10_9 N43_7 1_555 1_555
Co11_9 N15_7 1_555 1_555
Co13_9 N42_7 1_555 1_555
C43_7 N15_7 1_555 1_555
C48_7 N16_7 1_555 1_555
C50_7 N19_7 1_555 1_555
C51_7 N17_7 1_555 1_555
C51_7 N18_7 1_555 1_555
C55_7 N20_7 1_555 1_555
C56_7 N20_7 1_555 1_555
C118_7 N42_7 1_555 1_555
C123_7 N43_7 1_555 1_555
C125_7 N46_7 1_555 1_555
C126_7 N44_7 1_555 1_555
C126_7 N45_7 1_555 1_555
C130_7 N47_7 1_555 1_555
C131_7 N47_7 1_555 1_555
C21_7 H13_7 1_555 1_555
C22_7 C21_7 1_555 1_555
H14_7 C22_7 1_555 1_555
C23_7 C22_7 1_555 1_555
H15_7 C23_7 1_555 1_555
C24_7 C23_7 1_555 1_555
C25_7 C24_7 1_555 1_555
H16_7 C25_7 1_555 1_555
C26_7 C24_7 1_555 1_555
N10_7 C26_7 1_555 1_555
S2_7 C20_7 1_555 1_555
C27_7 H17_7 1_555 1_555
C28_7 C27_7 1_555 1_555
H18_7 C28_7 1_555 1_555
C29_7 C28_7 1_555 1_555
H19_7 C29_7 1_555 1_555
C30_7 C29_7 1_555 1_555
C31_7 C30_7 1_555 1_555
H20_7 C31_7 1_555 1_555
C32_7 C30_7 1_555 1_555
N11_7 C27_7 1_555 1_555
N12_7 C26_7 1_555 1_555
C33_7 H21_7 1_555 1_555
C34_7 C33_7 1_555 1_555
H22_7 C34_7 1_555 1_555
C35_7 C34_7 1_555 1_555
H23_7 C35_7 1_555 1_555
C36_7 C35_7 1_555 1_555
C37_7 C36_7 1_555 1_555
H24_7 C37_7 1_555 1_555
C38_7 N10_7 1_555 1_555
N13_7 C33_7 1_555 1_555
N14_7 C32_7 1_555 1_555
S3_7 C57_7 1_555 1_555
S5_7 C113_7 1_555 1_555
S6_7 C132_7 1_555 1_555
Co16_7 N13_7 1_555 1_555
C21_7 N9_7 1_555 1_555
C25_7 N9_7 1_555 1_555
C31_7 N11_7 1_555 1_555
C32_7 N12_7 1_555 1_555
C36_7 C38_7 1_555 1_555
C37_7 N13_7 1_555 1_555
C38_7 N14_7 1_555 1_555
Co1_10 N1_8 1_555 1_555
Co15_4 N7_8 1_555 1_555
C1_8 H1_8 1_555 1_555
C2_8 C1_8 1_555 1_555
H2_8 C2_8 1_555 1_555
C3_8 C2_8 1_555 1_555
H3_8 C3_8 1_555 1_555
C4_8 C3_8 1_555 1_555
C5_8 C4_8 1_555 1_555
H4_8 C5_8 1_555 1_555
C6_8 N1_8 1_555 1_555
C7_8 H5_8 1_555 1_555
C8_8 C7_8 1_555 1_555
C9_8 C8_8 1_555 1_555
H6_8 C9_8 1_555 1_555
C10_8 C9_8 1_555 1_555
H7_8 C10_8 1_555 1_555
C11_8 C10_8 1_555 1_555
H8_8 C11_8 1_555 1_555
C12_8 C8_8 1_555 1_555
C13_8 C15_8 1_555 1_555
C14_8 C4_8 1_555 1_555
C15_8 C16_8 1_555 1_555
C16_8 H9_8 1_555 1_555
C17_8 C16_8 1_555 1_555
H10_8 C17_8 1_555 1_555
C18_8 C17_8 1_555 1_555
H11_8 C18_8 1_555 1_555
C19_8 C15_8 1_555 1_555
H12_8 C19_8 1_555 1_555
C20_8 N8_8 1_555 1_555
C21_8 H13_8 1_555 1_555
C22_8 C21_8 1_555 1_555
H14_8 C22_8 1_555 1_555
C23_8 C22_8 1_555 1_555
H15_8 C23_8 1_555 1_555
C24_8 C23_8 1_555 1_555
C25_8 C24_8 1_555 1_555
H16_8 C25_8 1_555 1_555
C26_8 C24_8 1_555 1_555
N2_8 C1_8 1_555 1_555
N3_8 Co1_10 1_555 1_555
N4_8 C12_8 1_555 1_555
N5_8 C13_8 1_555 1_555
N6_8 C12_8 1_555 1_555
N7_8 C18_8 1_555 1_555
N8_8 Co15_4 1_555 1_555
N9_8 Co15_4 1_555 1_555
N10_8 C26_8 1_555 1_555
S1_8 C6_8 1_555 1_555
S2_8 C20_8 1_555 1_555
C27_8 H17_8 1_555 1_555
C28_8 C27_8 1_555 1_555
H18_8 C28_8 1_555 1_555
C29_8 C28_8 1_555 1_555
H19_8 C29_8 1_555 1_555
C30_8 C29_8 1_555 1_555
C31_8 C30_8 1_555 1_555
H20_8 C31_8 1_555 1_555
C32_8 C30_8 1_555 1_555
N11_8 C27_8 1_555 1_555
N12_8 C26_8 1_555 1_555
C33_8 H21_8 1_555 1_555
C34_8 C33_8 1_555 1_555
H22_8 C34_8 1_555 1_555
C35_8 C34_8 1_555 1_555
H23_8 C35_8 1_555 1_555
C36_8 C35_8 1_555 1_555
C37_8 C36_8 1_555 1_555
H24_8 C37_8 1_555 1_555
C38_8 N10_8 1_555 1_555
N13_8 C33_8 1_555 1_555
N14_8 C32_8 1_555 1_555
Co16_4 N11_8 1_555 1_555
C39_8 H25_8 1_555 1_555
C40_8 C39_8 1_555 1_555
H26_8 C40_8 1_555 1_555
C41_8 C40_8 1_555 1_555
H27_8 C41_8 1_555 1_555
C42_8 C41_8 1_555 1_555
C43_8 C42_8 1_555 1_555
H28_8 C43_8 1_555 1_555
C44_8 H29_8 1_555 1_555
C45_8 C44_8 1_555 1_555
C46_8 C45_8 1_555 1_555
H30_8 C46_8 1_555 1_555
C47_8 C46_8 1_555 1_555
H31_8 C47_8 1_555 1_555
C48_8 C47_8 1_555 1_555
H32_8 C48_8 1_555 1_555
C49_8 C45_8 1_555 1_555
C50_8 C52_8 1_555 1_555
C51_8 C42_8 1_555 1_555
C52_8 C53_8 1_555 1_555
C53_8 H33_8 1_555 1_555
C54_8 C53_8 1_555 1_555
H34_8 C54_8 1_555 1_555
C55_8 C54_8 1_555 1_555
H35_8 C55_8 1_555 1_555
C56_8 C52_8 1_555 1_555
H36_8 C56_8 1_555 1_555
C57_8 N21_8 1_555 1_555
N15_8 C39_8 1_555 1_555
N16_8 C44_8 1_555 1_555
N17_8 C49_8 1_555 1_555
N18_8 C50_8 1_555 1_555
N19_8 C49_8 1_555 1_555
N20_8 Co16_4 1_555 1_555
N21_8 Co16_4 1_555 1_555
S3_8 C57_8 1_555 1_555
C95_8 H61_8 1_555 1_555
C96_8 C95_8 1_555 1_555
H62_8 C96_8 1_555 1_555
C97_8 C96_8 1_555 1_555
H63_8 C97_8 1_555 1_555
C98_8 C97_8 1_555 1_555
C99_8 C98_8 1_555 1_555
H64_8 C99_8 1_555 1_555
C100_8 H65_8 1_555 1_555
C101_8 C100_8 1_555 1_555
C102_8 C101_8 1_555 1_555
H66_8 C102_8 1_555 1_555
C103_8 C102_8 1_555 1_555
H67_8 C103_8 1_555 1_555
C104_8 C103_8 1_555 1_555
H68_8 C104_8 1_555 1_555
C105_8 C101_8 1_555 1_555
C106_8 C108_8 1_555 1_555
C107_8 C98_8 1_555 1_555
C108_8 C109_8 1_555 1_555
C109_8 H69_8 1_555 1_555
C110_8 C109_8 1_555 1_555
H70_8 C110_8 1_555 1_555
C111_8 C110_8 1_555 1_555
H71_8 C111_8 1_555 1_555
C112_8 C108_8 1_555 1_555
H72_8 C112_8 1_555 1_555
C113_8 N41_8 1_555 1_555
N35_8 C95_8 1_555 1_555
N36_8 C100_8 1_555 1_555
N37_8 C105_8 1_555 1_555
N38_8 C106_8 1_555 1_555
N39_8 C105_8 1_555 1_555
N40_8 Co15_4 1_555 1_555
N41_8 Co15_4 1_555 1_555
S5_8 C113_8 1_555 1_555
C114_8 H73_8 1_555 1_555
C115_8 C114_8 1_555 1_555
H74_8 C115_8 1_555 1_555
C116_8 C115_8 1_555 1_555
H75_8 C116_8 1_555 1_555
C117_8 C116_8 1_555 1_555
C118_8 C117_8 1_555 1_555
H76_8 C118_8 1_555 1_555
C119_8 H77_8 1_555 1_555
C120_8 C119_8 1_555 1_555
C121_8 C120_8 1_555 1_555
H78_8 C121_8 1_555 1_555
C122_8 C121_8 1_555 1_555
H79_8 C122_8 1_555 1_555
C123_8 C122_8 1_555 1_555
H80_8 C123_8 1_555 1_555
C124_8 C120_8 1_555 1_555
C125_8 C127_8 1_555 1_555
C126_8 C117_8 1_555 1_555
C127_8 C128_8 1_555 1_555
C128_8 H81_8 1_555 1_555
C129_8 C128_8 1_555 1_555
H82_8 C129_8 1_555 1_555
C130_8 C129_8 1_555 1_555
H83_8 C130_8 1_555 1_555
C131_8 C127_8 1_555 1_555
H84_8 C131_8 1_555 1_555
C132_8 N48_8 1_555 1_555
N42_8 C114_8 1_555 1_555
N43_8 C119_8 1_555 1_555
N44_8 C124_8 1_555 1_555
N45_8 C125_8 1_555 1_555
N46_8 C124_8 1_555 1_555
N47_8 Co16_4 1_555 1_555
N48_8 Co16_4 1_555 1_555
S6_8 C132_8 1_555 1_555
C133_8 H85_8 1_555 1_555
C134_8 C133_8 1_555 1_555
H86_8 C134_8 1_555 1_555
C135_8 C134_8 1_555 1_555
H87_8 C135_8 1_555 1_555
C136_8 C135_8 1_555 1_555
C137_8 C136_8 1_555 1_555
H88_8 C137_8 1_555 1_555
C139_8 H89_8 1_555 1_555
C140_8 C139_8 1_555 1_555
C141_8 C140_8 1_555 1_555
H90_8 C141_8 1_555 1_555
C142_8 C141_8 1_555 1_555
H91_8 C142_8 1_555 1_555
C143_8 C142_8 1_555 1_555
H92_8 C143_8 1_555 1_555
C144_8 C140_8 1_555 1_555
C145_8 C147_8 1_555 1_555
C146_8 C136_8 1_555 1_555
C147_8 C148_8 1_555 1_555
C148_8 H93_8 1_555 1_555
C149_8 C148_8 1_555 1_555
H94_8 C149_8 1_555 1_555
C150_8 C149_8 1_555 1_555
H95_8 C150_8 1_555 1_555
C151_8 C147_8 1_555 1_555
H96_8 C151_8 1_555 1_555
N50_8 Co1_10 1_555 1_555
N52_8 C144_8 1_555 1_555
N53_8 C145_8 1_555 1_555
N54_8 C144_8 1_555 1_555
N55_8 C150_8 1_555 1_555
C152_8 N56_8 1_555 1_555
N56_8 Co1_10 1_555 1_555
S8_8 C152_8 1_555 1_555
Co6_10 N2_8 1_555 1_555
C155_8 N59_8 1_555 1_555
N59_8 Co6_10 1_555 1_555
S11_8 C155_8 1_555 1_555
C156_8 N60_8 1_555 1_555
N60_8 Co6_10 1_555 1_555
S12_8 C156_8 1_555 1_555
Co8_10 N36_8 1_555 1_555
Co9_10 N16_8 1_555 1_555
Co10_10 N43_8 1_555 1_555
Co11_10 N15_8 1_555 1_555
Co12_10 N35_8 1_555 1_555
Co13_10 N42_8 1_555 1_555
Co16_8 N13_8 1_555 1_555
Co17_8 N55_8 1_555 1_555
N62_8 Co6_10 1_555 1_555
N64_8 Co1_10 1_555 1_555
N65_8 Co1_10 1_555 1_555
N66_8 Co6_10 1_555 1_555
N67_8 Co6_10 1_555 1_555
C5_8 N2_8 1_555 1_555
C7_8 N3_8 1_555 1_555
C11_8 N3_8 1_555 1_555
C13_8 N6_8 1_555 1_555
C14_8 N4_8 1_555 1_555
C14_8 N5_8 1_555 1_555
C19_8 N7_8 1_555 1_555
C21_8 N9_8 1_555 1_555
C25_8 N9_8 1_555 1_555
C31_8 N11_8 1_555 1_555
C32_8 N12_8 1_555 1_555
C36_8 C38_8 1_555 1_555
C37_8 N13_8 1_555 1_555
C38_8 N14_8 1_555 1_555
C43_8 N15_8 1_555 1_555
C48_8 N16_8 1_555 1_555
C50_8 N19_8 1_555 1_555
C51_8 N17_8 1_555 1_555
C51_8 N18_8 1_555 1_555
C55_8 N20_8 1_555 1_555
C56_8 N20_8 1_555 1_555
C99_8 N35_8 1_555 1_555
C104_8 N36_8 1_555 1_555
C106_8 N39_8 1_555 1_555
C107_8 N37_8 1_555 1_555
C107_8 N38_8 1_555 1_555
C111_8 N40_8 1_555 1_555
C112_8 N40_8 1_555 1_555
C118_8 N42_8 1_555 1_555
C123_8 N43_8 1_555 1_555
C125_8 N46_8 1_555 1_555
C126_8 N44_8 1_555 1_555
C126_8 N45_8 1_555 1_555
C130_8 N47_8 1_555 1_555
C131_8 N47_8 1_555 1_555
C133_8 N50_8 1_555 1_555
C137_8 N50_8 1_555 1_555
C139_8 N66_3 1_555 1_555
C143_8 N66_3 1_555 1_555
C145_8 N54_8 1_555 1_555
C146_8 N52_8 1_555 1_555
C146_8 N53_8 1_555 1_555
C151_8 N55_8 1_555 1_555
Co1_11 N1_9 1_555 1_555
C6_9 N1_9 1_555 1_555
S1_9 C6_9 1_555 1_555
C134_9 C133_9 1_555 1_555
H86_9 C134_9 1_555 1_555
C135_9 C134_9 1_555 1_555
H87_9 C135_9 1_555 1_555
C136_9 C135_9 1_555 1_555
C137_9 C136_9 1_555 1_555
H88_9 C137_9 1_555 1_555
C139_9 H89_9 1_555 1_555
C140_9 C139_9 1_555 1_555
C141_9 C140_9 1_555 1_555
H90_9 C141_9 1_555 1_555
C142_9 C141_9 1_555 1_555
H91_9 C142_9 1_555 1_555
C143_9 C142_9 1_555 1_555
H92_9 C143_9 1_555 1_555
C144_9 C140_9 1_555 1_555
C145_9 C147_9 1_555 1_555
C146_9 C136_9 1_555 1_555
C147_9 C148_9 1_555 1_555
C148_9 H93_9 1_555 1_555
C149_9 C148_9 1_555 1_555
H94_9 C149_9 1_555 1_555
C150_9 C149_9 1_555 1_555
H95_9 C150_9 1_555 1_555
C151_9 C147_9 1_555 1_555
H96_9 C151_9 1_555 1_555
N50_9 Co1_11 1_555 1_555
N52_9 C144_9 1_555 1_555
N53_9 C145_9 1_555 1_555
N54_9 C144_9 1_555 1_555
N55_9 C150_9 1_555 1_555
Co17_9 N55_9 1_555 1_555
N65_9 Co1_11 1_555 1_555
C133_9 N50_9 1_555 1_555
C137_9 N50_9 1_555 1_555
C139_9 N66_5 1_555 1_555
C143_9 N66_5 1_555 1_555
C145_9 N54_9 1_555 1_555
C146_9 N52_9 1_555 1_555
C146_9 N53_9 1_555 1_555
C151_9 N55_9 1_555 1_555
C2_9 C1_9 1_555 1_555
H2_9 C2_9 1_555 1_555
C3_9 C2_9 1_555 1_555
H3_9 C3_9 1_555 1_555
C4_9 C3_9 1_555 1_555
C5_9 C4_9 1_555 1_555
H4_9 C5_9 1_555 1_555
C7_9 H5_9 1_555 1_555
C8_9 C7_9 1_555 1_555
C9_9 C8_9 1_555 1_555
H6_9 C9_9 1_555 1_555
C10_9 C9_9 1_555 1_555
H7_9 C10_9 1_555 1_555
C11_9 C10_9 1_555 1_555
H8_9 C11_9 1_555 1_555
C12_9 C8_9 1_555 1_555
C13_9 C15_9 1_555 1_555
C14_9 C4_9 1_555 1_555
C15_9 C16_9 1_555 1_555
C16_9 H9_9 1_555 1_555
C17_9 C16_9 1_555 1_555
H10_9 C17_9 1_555 1_555
C18_9 C17_9 1_555 1_555
H11_9 C18_9 1_555 1_555
C19_9 C15_9 1_555 1_555
H12_9 C19_9 1_555 1_555
C21_9 H13_9 1_555 1_555
C22_9 C21_9 1_555 1_555
H14_9 C22_9 1_555 1_555
C23_9 C22_9 1_555 1_555
H15_9 C23_9 1_555 1_555
C24_9 C23_9 1_555 1_555
C25_9 C24_9 1_555 1_555
H16_9 C25_9 1_555 1_555
C26_9 C24_9 1_555 1_555
N61 C1_9 1_555 1_555
N3_9 Co1_12 1_555 1_555
N4_9 C12_9 1_555 1_555
N5_9 C13_9 1_555 1_555
N6_9 C12_9 1_555 1_555
N69_3 C18_9 1_555 1_555
N10_9 C26_9 1_555 1_555
C27_9 H17_9 1_555 1_555
C28_9 C27_9 1_555 1_555
H18_9 C28_9 1_555 1_555
C29_9 C28_9 1_555 1_555
H19_9 C29_9 1_555 1_555
C30_9 C29_9 1_555 1_555
C31_9 C30_9 1_555 1_555
H20_9 C31_9 1_555 1_555
C32_9 C30_9 1_555 1_555
N11_9 C27_9 1_555 1_555
N12_9 C26_9 1_555 1_555
C33_9 H21_9 1_555 1_555
C34_9 C33_9 1_555 1_555
H22_9 C34_9 1_555 1_555
C35_9 C34_9 1_555 1_555
H23_9 C35_9 1_555 1_555
C36_9 C35_9 1_555 1_555
C37_9 C36_9 1_555 1_555
H24_9 C37_9 1_555 1_555
C38_9 N10_9 1_555 1_555
N71_3 C33_9 1_555 1_555
N14_9 C32_9 1_555 1_555
Co16_6 N11_9 1_555 1_555
C39_9 H25_9 1_555 1_555
C40_9 C39_9 1_555 1_555
H26_9 C40_9 1_555 1_555
C41_9 C40_9 1_555 1_555
H27_9 C41_9 1_555 1_555
C42_9 C41_9 1_555 1_555
C43_9 C42_9 1_555 1_555
H28_9 C43_9 1_555 1_555
C44_9 H29_9 1_555 1_555
C45_9 C44_9 1_555 1_555
C46_9 C45_9 1_555 1_555
H30_9 C46_9 1_555 1_555
C47_9 C46_9 1_555 1_555
H31_9 C47_9 1_555 1_555
C48_9 C47_9 1_555 1_555
H32_9 C48_9 1_555 1_555
C49_9 C45_9 1_555 1_555
C50_9 C52_9 1_555 1_555
C51_9 C42_9 1_555 1_555
C52_9 C53_9 1_555 1_555
C53_9 H33_9 1_555 1_555
C54_9 C53_9 1_555 1_555
H34_9 C54_9 1_555 1_555
C55_9 C54_9 1_555 1_555
H35_9 C55_9 1_555 1_555
C56_9 C52_9 1_555 1_555
H36_9 C56_9 1_555 1_555
C57_9 N21_9 1_555 1_555
N15_9 C39_9 1_555 1_555
N16_9 C44_9 1_555 1_555
N17_9 C49_9 1_555 1_555
N18_9 C50_9 1_555 1_555
N19_9 C49_9 1_555 1_555
N20_9 Co16_6 1_555 1_555
N21_9 Co16_6 1_555 1_555
S3_9 C57_9 1_555 1_555
C115_9 C114_9 1_555 1_555
H74_9 C115_9 1_555 1_555
C116_9 C115_9 1_555 1_555
H75_9 C116_9 1_555 1_555
C117_9 C116_9 1_555 1_555
C118_9 C117_9 1_555 1_555
H76_9 C118_9 1_555 1_555
C119_9 H77_9 1_555 1_555
C120_9 C119_9 1_555 1_555
C121_9 C120_9 1_555 1_555
H78_9 C121_9 1_555 1_555
C122_9 C121_9 1_555 1_555
H79_9 C122_9 1_555 1_555
C123_9 C122_9 1_555 1_555
H80_9 C123_9 1_555 1_555
C124_9 C120_9 1_555 1_555
C125_9 C127_9 1_555 1_555
C126_9 C117_9 1_555 1_555
C127_9 C128_9 1_555 1_555
C128_9 H81_9 1_555 1_555
C129_9 C128_9 1_555 1_555
H82_9 C129_9 1_555 1_555
C130_9 C129_9 1_555 1_555
H83_9 C130_9 1_555 1_555
C131_9 C127_9 1_555 1_555
H84_9 C131_9 1_555 1_555
C132_9 N48_9 1_555 1_555
N42_9 C114_9 1_555 1_555
N43_9 C119_9 1_555 1_555
N44_9 C124_9 1_555 1_555
N45_9 C125_9 1_555 1_555
N46_9 C124_9 1_555 1_555
N47_9 Co16_6 1_555 1_555
N48_9 Co16_6 1_555 1_555
S6_9 C132_9 1_555 1_555
C152_9 N56_9 1_555 1_555
N56_9 Co1_12 1_555 1_555
S8_9 C152_9 1_555 1_555
Co9_11 N16_9 1_555 1_555
Co10_11 N43_9 1_555 1_555
Co11_11 N15_9 1_555 1_555
Co13_12 N42_9 1_555 1_555
N64_9 Co1_12 1_555 1_555
C5_9 N61 1_555 1_555
C7_9 N3_9 1_555 1_555
C11_9 N3_9 1_555 1_555
C13_9 N6_9 1_555 1_555
C14_9 N4_9 1_555 1_555
C14_9 N5_9 1_555 1_555
C19_9 N69_3 1_555 1_555
C21_9 N70_3 1_555 1_555
C25_9 N70_3 1_555 1_555
C31_9 N11_9 1_555 1_555
C32_9 N12_9 1_555 1_555
C36_9 C38_9 1_555 1_555
C37_9 N71_3 1_555 1_555
C38_9 N14_9 1_555 1_555
C43_9 N15_9 1_555 1_555
C48_9 N16_9 1_555 1_555
C50_9 N19_9 1_555 1_555
C51_9 N17_9 1_555 1_555
C51_9 N18_9 1_555 1_555
C55_9 N20_9 1_555 1_555
C56_9 N20_9 1_555 1_555
C118_9 N42_9 1_555 1_555
C123_9 N43_9 1_555 1_555
C125_9 N46_9 1_555 1_555
C126_9 N44_9 1_555 1_555
C126_9 N45_9 1_555 1_555
C130_9 N47_9 1_555 1_555
C131_9 N47_9 1_555 1_555
Co1_13 N1_10 1_555 1_555
C1_10 H1_10 1_555 1_555
C2_10 C1_10 1_555 1_555
H2_10 C2_10 1_555 1_555
C3_10 C2_10 1_555 1_555
H3_10 C3_10 1_555 1_555
C4_10 C3_10 1_555 1_555
C5_10 C4_10 1_555 1_555
H4_10 C5_10 1_555 1_555
C6_10 N1_10 1_555 1_555
C7_10 H5_10 1_555 1_555
C8_10 C7_10 1_555 1_555
C9_10 C8_10 1_555 1_555
H6_10 C9_10 1_555 1_555
C10_10 C9_10 1_555 1_555
H7_10 C10_10 1_555 1_555
C11_10 C10_10 1_555 1_555
H8_10 C11_10 1_555 1_555
C12_10 C8_10 1_555 1_555
C13_10 C15_10 1_555 1_555
C14_10 C4_10 1_555 1_555
C15_10 C16_10 1_555 1_555
C16_10 H9_10 1_555 1_555
C17_10 C16_10 1_555 1_555
H10_10 C17_10 1_555 1_555
C18_10 C17_10 1_555 1_555
H11_10 C18_10 1_555 1_555
C19_10 C15_10 1_555 1_555
H12_10 C19_10 1_555 1_555
C21_10 H13_10 1_555 1_555
C22_10 C21_10 1_555 1_555
H14_10 C22_10 1_555 1_555
C23_10 C22_10 1_555 1_555
H15_10 C23_10 1_555 1_555
C24_10 C23_10 1_555 1_555
C25_10 C24_10 1_555 1_555
H16_10 C25_10 1_555 1_555
C26_10 C24_10 1_555 1_555
N61_3 C1_10 1_555 1_555
N3_10 Co1_13 1_555 1_555
N4_10 C12_10 1_555 1_555
N5_10 C13_10 1_555 1_555
N6_10 C12_10 1_555 1_555
N69 C18_10 1_555 1_555
N10_10 C26_10 1_555 1_555
S1_10 C6_10 1_555 1_555
C27_10 H17_10 1_555 1_555
C28_10 C27_10 1_555 1_555
H18_10 C28_10 1_555 1_555
C29_10 C28_10 1_555 1_555
H19_10 C29_10 1_555 1_555
C30_10 C29_10 1_555 1_555
C31_10 C30_10 1_555 1_555
H20_10 C31_10 1_555 1_555
C32_10 C30_10 1_555 1_555
N11_10 C27_10 1_555 1_555
N12_10 C26_10 1_555 1_555
C33_10 H21_10 1_555 1_555
C34_10 C33_10 1_555 1_555
H22_10 C34_10 1_555 1_555
C35_10 C34_10 1_555 1_555
H23_10 C35_10 1_555 1_555
C36_10 C35_10 1_555 1_555
C37_10 C36_10 1_555 1_555
H24_10 C37_10 1_555 1_555
C38_10 N10_10 1_555 1_555
N71 C33_10 1_555 1_555
N14_10 C32_10 1_555 1_555
Co16_7 N11_10 1_555 1_555
C40_10 C39_10 1_555 1_555
H26_10 C40_10 1_555 1_555
C41_10 C40_10 1_555 1_555
H27_10 C41_10 1_555 1_555
C42_10 C41_10 1_555 1_555
C43_10 C42_10 1_555 1_555
H28_10 C43_10 1_555 1_555
C44_10 H29_10 1_555 1_555
C45_10 C44_10 1_555 1_555
C46_10 C45_10 1_555 1_555
H30_10 C46_10 1_555 1_555
C47_10 C46_10 1_555 1_555
H31_10 C47_10 1_555 1_555
C48_10 C47_10 1_555 1_555
H32_10 C48_10 1_555 1_555
C49_10 C45_10 1_555 1_555
C50_10 C52_10 1_555 1_555
C51_10 C42_10 1_555 1_555
C52_10 C53_10 1_555 1_555
C53_10 H33_10 1_555 1_555
C54_10 C53_10 1_555 1_555
H34_10 C54_10 1_555 1_555
C55_10 C54_10 1_555 1_555
H35_10 C55_10 1_555 1_555
C56_10 C52_10 1_555 1_555
H36_10 C56_10 1_555 1_555
C57_10 N21_10 1_555 1_555
N15_10 C39_10 1_555 1_555
N16_10 C44_10 1_555 1_555
N17_10 C49_10 1_555 1_555
N18_10 C50_10 1_555 1_555
N19_10 C49_10 1_555 1_555
N20_10 Co16_7 1_555 1_555
N21_10 Co16_7 1_555 1_555
S3_10 C57_10 1_555 1_555
C114_10 H73_10 1_555 1_555
C115_10 C114_10 1_555 1_555
H74_10 C115_10 1_555 1_555
C116_10 C115_10 1_555 1_555
H75_10 C116_10 1_555 1_555
C117_10 C116_10 1_555 1_555
C118_10 C117_10 1_555 1_555
H76_10 C118_10 1_555 1_555
C119_10 H77_10 1_555 1_555
C120_10 C119_10 1_555 1_555
C121_10 C120_10 1_555 1_555
H78_10 C121_10 1_555 1_555
C122_10 C121_10 1_555 1_555
H79_10 C122_10 1_555 1_555
C123_10 C122_10 1_555 1_555
H80_10 C123_10 1_555 1_555
C124_10 C120_10 1_555 1_555
C125_10 C127_10 1_555 1_555
C126_10 C117_10 1_555 1_555
C127_10 C128_10 1_555 1_555
C128_10 H81_10 1_555 1_555
C129_10 C128_10 1_555 1_555
H82_10 C129_10 1_555 1_555
C130_10 C129_10 1_555 1_555
H83_10 C130_10 1_555 1_555
C131_10 C127_10 1_555 1_555
H84_10 C131_10 1_555 1_555
C132_10 N48_10 1_555 1_555
N42_10 C114_10 1_555 1_555
N43_10 C119_10 1_555 1_555
N44_10 C124_10 1_555 1_555
N45_10 C125_10 1_555 1_555
N46_10 C124_10 1_555 1_555
N47_10 Co16_7 1_555 1_555
N48_10 Co16_7 1_555 1_555
S6_10 C132_10 1_555 1_555
C133_10 H85_10 1_555 1_555
C134_10 C133_10 1_555 1_555
H86_10 C134_10 1_555 1_555
C135_10 C134_10 1_555 1_555
H87_10 C135_10 1_555 1_555
C136_10 C135_10 1_555 1_555
C137_10 C136_10 1_555 1_555
H88_10 C137_10 1_555 1_555
C139_10 H89_10 1_555 1_555
C140_10 C139_10 1_555 1_555
C141_10 C140_10 1_555 1_555
H90_10 C141_10 1_555 1_555
C142_10 C141_10 1_555 1_555
H91_10 C142_10 1_555 1_555
C143_10 C142_10 1_555 1_555
H92_10 C143_10 1_555 1_555
C144_10 C140_10 1_555 1_555
C145_10 C147_10 1_555 1_555
C146_10 C136_10 1_555 1_555
C147_10 C148_10 1_555 1_555
C148_10 H93_10 1_555 1_555
C149_10 C148_10 1_555 1_555
H94_10 C149_10 1_555 1_555
C150_10 C149_10 1_555 1_555
H95_10 C150_10 1_555 1_555
C151_10 C147_10 1_555 1_555
H96_10 C151_10 1_555 1_555
N50_10 Co1_13 1_555 1_555
N52_10 C144_10 1_555 1_555
N53_10 C145_10 1_555 1_555
N54_10 C144_10 1_555 1_555
N55_10 C150_10 1_555 1_555
C152_10 N56_10 1_555 1_555
N56_10 Co1_13 1_555 1_555
S8_10 C152_10 1_555 1_555
Co9_12 N16_10 1_555 1_555
Co10_13 N43_10 1_555 1_555
Co11_13 N15_10 1_555 1_555
Co13_13 N42_10 1_555 1_555
Co17_10 N55_10 1_555 1_555
N64_10 Co1_13 1_555 1_555
N65_10 Co1_13 1_555 1_555
C5_10 N61_3 1_555 1_555
C7_10 N3_10 1_555 1_555
C11_10 N3_10 1_555 1_555
C13_10 N6_10 1_555 1_555
C14_10 N4_10 1_555 1_555
C14_10 N5_10 1_555 1_555
C19_10 N69 1_555 1_555
C21_10 N70 1_555 1_555
C25_10 N70 1_555 1_555
C31_10 N11_10 1_555 1_555
C32_10 N12_10 1_555 1_555
C36_10 C38_10 1_555 1_555
C37_10 N71 1_555 1_555
C38_10 N14_10 1_555 1_555
C43_10 N15_10 1_555 1_555
C48_10 N16_10 1_555 1_555
C50_10 N19_10 1_555 1_555
C51_10 N17_10 1_555 1_555
C51_10 N18_10 1_555 1_555
C55_10 N20_10 1_555 1_555
C56_10 N20_10 1_555 1_555
C118_10 N42_10 1_555 1_555
C123_10 N43_10 1_555 1_555
C125_10 N46_10 1_555 1_555
C126_10 N44_10 1_555 1_555
C126_10 N45_10 1_555 1_555
C130_10 N47_10 1_555 1_555
C131_10 N47_10 1_555 1_555
C133_10 N50_10 1_555 1_555
C137_10 N50_10 1_555 1_555
C139_10 N66_8 1_555 1_555
C143_10 N66_8 1_555 1_555
C145_10 N54_10 1_555 1_555
C146_10 N52_10 1_555 1_555
C146_10 N53_10 1_555 1_555
C151_10 N55_10 1_555 1_555
Co1_14 N1_11 1_555 1_555
C1_11 H1_11 1_555 1_555
C2_11 C1_11 1_555 1_555
H2_11 C2_11 1_555 1_555
C3_11 C2_11 1_555 1_555
H3_11 C3_11 1_555 1_555
C4_11 C3_11 1_555 1_555
C5_11 C4_11 1_555 1_555
H4_11 C5_11 1_555 1_555
C6_11 N1_11 1_555 1_555
C7_11 H5_11 1_555 1_555
C8_11 C7_11 1_555 1_555
C9_11 C8_11 1_555 1_555
H6_11 C9_11 1_555 1_555
C10_11 C9_11 1_555 1_555
H7_11 C10_11 1_555 1_555
C11_11 C10_11 1_555 1_555
H8_11 C11_11 1_555 1_555
C12_11 C8_11 1_555 1_555
C13_11 C15_11 1_555 1_555
C14_11 C4_11 1_555 1_555
C15_11 C16_11 1_555 1_555
C16_11 H9_11 1_555 1_555
C17_11 C16_11 1_555 1_555
H10_11 C17_11 1_555 1_555
C18_11 C17_11 1_555 1_555
H11_11 C18_11 1_555 1_555
C19_11 C15_11 1_555 1_555
H12_11 C19_11 1_555 1_555
N61_4 C1_11 1_555 1_555
N3_11 Co1_14 1_555 1_555
N4_11 C12_11 1_555 1_555
N5_11 C13_11 1_555 1_555
N6_11 C12_11 1_555 1_555
N69_2 C18_11 1_555 1_555
S1_11 C6_11 1_555 1_555
C133_11 H85_11 1_555 1_555
C134_11 C133_11 1_555 1_555
H86_11 C134_11 1_555 1_555
C135_11 C134_11 1_555 1_555
H87_11 C135_11 1_555 1_555
C136_11 C135_11 1_555 1_555
C137_11 C136_11 1_555 1_555
H88_11 C137_11 1_555 1_555
C139_11 H89_11 1_555 1_555
C140_11 C139_11 1_555 1_555
C141_11 C140_11 1_555 1_555
H90_11 C141_11 1_555 1_555
C142_11 C141_11 1_555 1_555
H91_11 C142_11 1_555 1_555
C143_11 C142_11 1_555 1_555
H92_11 C143_11 1_555 1_555
C144_11 C140_11 1_555 1_555
C145_11 C147_11 1_555 1_555
C146_11 C136_11 1_555 1_555
C147_11 C148_11 1_555 1_555
C148_11 H93_11 1_555 1_555
C149_11 C148_11 1_555 1_555
H94_11 C149_11 1_555 1_555
C150_11 C149_11 1_555 1_555
H95_11 C150_11 1_555 1_555
C151_11 C147_11 1_555 1_555
H96_11 C151_11 1_555 1_555
N50_11 Co1_14 1_555 1_555
N52_11 C144_11 1_555 1_555
N53_11 C145_11 1_555 1_555
N54_11 C144_11 1_555 1_555
N55_11 C150_11 1_555 1_555
C152_11 N56_11 1_555 1_555
N56_11 Co1_14 1_555 1_555
S8_11 C152_11 1_555 1_555
Co17_11 N55_11 1_555 1_555
N64_11 Co1_14 1_555 1_555
N65_11 Co1_14 1_555 1_555
C5_11 N61_4 1_555 1_555
C7_11 N3_11 1_555 1_555
C11_11 N3_11 1_555 1_555
C13_11 N6_11 1_555 1_555
C14_11 N4_11 1_555 1_555
C14_11 N5_11 1_555 1_555
C19_11 N69_2 1_555 1_555
C133_11 N50_11 1_555 1_555
C137_11 N50_11 1_555 1_555
C139_11 N66_6 1_555 1_555
C143_11 N66_6 1_555 1_555
C145_11 N54_11 1_555 1_555
C146_11 N52_11 1_555 1_555
C146_11 N53_11 1_555 1_555
C151_11 N55_11 1_555 1_555
C39_11 H25_11 1_555 1_555
C40_11 C39_11 1_555 1_555
H26_11 C40_11 1_555 1_555
C41_11 C40_11 1_555 1_555
H27_11 C41_11 1_555 1_555
C42_11 C41_11 1_555 1_555
C43_11 C42_11 1_555 1_555
H28_11 C43_11 1_555 1_555
C44_11 H29_11 1_555 1_555
C45_11 C44_11 1_555 1_555
C46_11 C45_11 1_555 1_555
H30_11 C46_11 1_555 1_555
C47_11 C46_11 1_555 1_555
H31_11 C47_11 1_555 1_555
C48_11 C47_11 1_555 1_555
H32_11 C48_11 1_555 1_555
C49_11 C45_11 1_555 1_555
C50_11 C52_11 1_555 1_555
C51_11 C42_11 1_555 1_555
C52_11 C53_11 1_555 1_555
C53_11 H33_11 1_555 1_555
C54_11 C53_11 1_555 1_555
H34_11 C54_11 1_555 1_555
C55_11 C54_11 1_555 1_555
H35_11 C55_11 1_555 1_555
C56_11 C52_11 1_555 1_555
H36_11 C56_11 1_555 1_555
N15_11 C39_11 1_555 1_555
N16_11 C44_11 1_555 1_555
N17_11 C49_11 1_555 1_555
N18_11 C50_11 1_555 1_555
N19_11 C49_11 1_555 1_555
N20_11 Co16_5 1_555 1_555
N21_11 Co16_5 1_555 1_555
C114_11 H73_11 1_555 1_555
C115_11 C114_11 1_555 1_555
H74_11 C115_11 1_555 1_555
C116_11 C115_11 1_555 1_555
H75_11 C116_11 1_555 1_555
C117_11 C116_11 1_555 1_555
C118_11 C117_11 1_555 1_555
H76_11 C118_11 1_555 1_555
C119_11 H77_11 1_555 1_555
C120_11 C119_11 1_555 1_555
C121_11 C120_11 1_555 1_555
H78_11 C121_11 1_555 1_555
C122_11 C121_11 1_555 1_555
H79_11 C122_11 1_555 1_555
C123_11 C122_11 1_555 1_555
H80_11 C123_11 1_555 1_555
C124_11 C120_11 1_555 1_555
C125_11 C127_11 1_555 1_555
C126_11 C117_11 1_555 1_555
C127_11 C128_11 1_555 1_555
C128_11 H81_11 1_555 1_555
C129_11 C128_11 1_555 1_555
H82_11 C129_11 1_555 1_555
C130_11 C129_11 1_555 1_555
H83_11 C130_11 1_555 1_555
C131_11 C127_11 1_555 1_555
H84_11 C131_11 1_555 1_555
N42_11 C114_11 1_555 1_555
N43_11 C119_11 1_555 1_555
N44_11 C124_11 1_555 1_555
N45_11 C125_11 1_555 1_555
N46_11 C124_11 1_555 1_555
N47_11 Co16_5 1_555 1_555
N48_11 Co16_5 1_555 1_555
Co9_14 N16_11 1_555 1_555
Co10_14 N43_11 1_555 1_555
Co11_14 N15_11 1_555 1_555
Co13_14 N42_11 1_555 1_555
C43_11 N15_11 1_555 1_555
C48_11 N16_11 1_555 1_555
C50_11 N19_11 1_555 1_555
C51_11 N17_11 1_555 1_555
C51_11 N18_11 1_555 1_555
C55_11 N20_11 1_555 1_555
C56_11 N20_11 1_555 1_555
C118_11 N42_11 1_555 1_555
C123_11 N43_11 1_555 1_555
C125_11 N46_11 1_555 1_555
C126_11 N44_11 1_555 1_555
C126_11 N45_11 1_555 1_555
C130_11 N47_11 1_555 1_555
C131_11 N47_11 1_555 1_555
C21_11 H13_11 1_555 1_555
C22_11 C21_11 1_555 1_555
H14_11 C22_11 1_555 1_555
C23_11 C22_11 1_555 1_555
H15_11 C23_11 1_555 1_555
C24_11 C23_11 1_555 1_555
C25_11 C24_11 1_555 1_555
H16_11 C25_11 1_555 1_555
C26_11 C24_11 1_555 1_555
N10_11 C26_11 1_555 1_555
C27_11 H17_11 1_555 1_555
C28_11 C27_11 1_555 1_555
H18_11 C28_11 1_555 1_555
C29_11 C28_11 1_555 1_555
H19_11 C29_11 1_555 1_555
C30_11 C29_11 1_555 1_555
C31_11 C30_11 1_555 1_555
H20_11 C31_11 1_555 1_555
C32_11 C30_11 1_555 1_555
N11_11 C27_11 1_555 1_555
N12_11 C26_11 1_555 1_555
C33_11 H21_11 1_555 1_555
C34_11 C33_11 1_555 1_555
H22_11 C34_11 1_555 1_555
C35_11 C34_11 1_555 1_555
H23_11 C35_11 1_555 1_555
C36_11 C35_11 1_555 1_555
C37_11 C36_11 1_555 1_555
H24_11 C37_11 1_555 1_555
C38_11 N10_11 1_555 1_555
N71_2 C33_11 1_555 1_555
N14_11 C32_11 1_555 1_555
S3_11 C57_11 1_555 1_555
S6_11 C132_11 1_555 1_555
C21_11 N70_2 1_555 1_555
C25_11 N70_2 1_555 1_555
C31_11 N11_11 1_555 1_555
C32_11 N12_11 1_555 1_555
C36_11 C38_11 1_555 1_555
C37_11 N71_2 1_555 1_555
C38_11 N14_11 1_555 1_555
Co1_15 N1_12 1_555 1_555
C1_12 H1_12 1_555 1_555
C2_12 C1_12 1_555 1_555
H2_12 C2_12 1_555 1_555
C3_12 C2_12 1_555 1_555
H3_12 C3_12 1_555 1_555
C4_12 C3_12 1_555 1_555
C5_12 C4_12 1_555 1_555
H4_12 C5_12 1_555 1_555
C6_12 N1_12 1_555 1_555
C7_12 H5_12 1_555 1_555
C8_12 C7_12 1_555 1_555
C9_12 C8_12 1_555 1_555
H6_12 C9_12 1_555 1_555
C10_12 C9_12 1_555 1_555
H7_12 C10_12 1_555 1_555
C11_12 C10_12 1_555 1_555
H8_12 C11_12 1_555 1_555
C12_12 C8_12 1_555 1_555
C13_12 C15_12 1_555 1_555
C14_12 C4_12 1_555 1_555
C15_12 C16_12 1_555 1_555
C16_12 H9_12 1_555 1_555
C17_12 C16_12 1_555 1_555
H10_12 C17_12 1_555 1_555
C18_12 C17_12 1_555 1_555
H11_12 C18_12 1_555 1_555
C19_12 C15_12 1_555 1_555
H12_12 C19_12 1_555 1_555
C21_12 H13_12 1_555 1_555
C22_12 C21_12 1_555 1_555
H14_12 C22_12 1_555 1_555
C23_12 C22_12 1_555 1_555
H15_12 C23_12 1_555 1_555
C24_12 C23_12 1_555 1_555
C25_12 C24_12 1_555 1_555
H16_12 C25_12 1_555 1_555
C26_12 C24_12 1_555 1_555
N61_2 C1_12 1_555 1_555
N3_12 Co1_15 1_555 1_555
N4_12 C12_12 1_555 1_555
N5_12 C13_12 1_555 1_555
N6_12 C12_12 1_555 1_555
N69_4 C18_12 1_555 1_555
N10_12 C26_12 1_555 1_555
S1_12 C6_12 1_555 1_555
C27_12 H17_12 1_555 1_555
C28_12 C27_12 1_555 1_555
H18_12 C28_12 1_555 1_555
C29_12 C28_12 1_555 1_555
H19_12 C29_12 1_555 1_555
C30_12 C29_12 1_555 1_555
C31_12 C30_12 1_555 1_555
H20_12 C31_12 1_555 1_555
C32_12 C30_12 1_555 1_555
N11_12 C27_12 1_555 1_555
N12_12 C26_12 1_555 1_555
C33_12 H21_12 1_555 1_555
C34_12 C33_12 1_555 1_555
H22_12 C34_12 1_555 1_555
C35_12 C34_12 1_555 1_555
H23_12 C35_12 1_555 1_555
C36_12 C35_12 1_555 1_555
C37_12 C36_12 1_555 1_555
H24_12 C37_12 1_555 1_555
C38_12 N10_12 1_555 1_555
N71_4 C33_12 1_555 1_555
N14_12 C32_12 1_555 1_555
Co16_8 N11_12 1_555 1_555
C39_12 H25_12 1_555 1_555
C40_12 C39_12 1_555 1_555
H26_12 C40_12 1_555 1_555
C41_12 C40_12 1_555 1_555
H27_12 C41_12 1_555 1_555
C42_12 C41_12 1_555 1_555
C43_12 C42_12 1_555 1_555
H28_12 C43_12 1_555 1_555
C44_12 H29_12 1_555 1_555
C45_12 C44_12 1_555 1_555
C46_12 C45_12 1_555 1_555
H30_12 C46_12 1_555 1_555
C47_12 C46_12 1_555 1_555
H31_12 C47_12 1_555 1_555
C48_12 C47_12 1_555 1_555
H32_12 C48_12 1_555 1_555
C49_12 C45_12 1_555 1_555
C50_12 C52_12 1_555 1_555
C51_12 C42_12 1_555 1_555
C52_12 C53_12 1_555 1_555
C53_12 H33_12 1_555 1_555
C54_12 C53_12 1_555 1_555
H34_12 C54_12 1_555 1_555
C55_12 C54_12 1_555 1_555
H35_12 C55_12 1_555 1_555
C56_12 C52_12 1_555 1_555
H36_12 C56_12 1_555 1_555
C57_12 N21_12 1_555 1_555
N15_12 C39_12 1_555 1_555
N16_12 C44_12 1_555 1_555
N17_12 C49_12 1_555 1_555
N18_12 C50_12 1_555 1_555
N19_12 C49_12 1_555 1_555
N20_12 Co16_8 1_555 1_555
N21_12 Co16_8 1_555 1_555
S3_12 C57_12 1_555 1_555
C114_12 H73_12 1_555 1_555
C115_12 C114_12 1_555 1_555
H74_12 C115_12 1_555 1_555
C116_12 C115_12 1_555 1_555
H75_12 C116_12 1_555 1_555
C117_12 C116_12 1_555 1_555
C118_12 C117_12 1_555 1_555
H76_12 C118_12 1_555 1_555
C119_12 H77_12 1_555 1_555
C120_12 C119_12 1_555 1_555
C121_12 C120_12 1_555 1_555
H78_12 C121_12 1_555 1_555
C122_12 C121_12 1_555 1_555
H79_12 C122_12 1_555 1_555
C123_12 C122_12 1_555 1_555
H80_12 C123_12 1_555 1_555
C124_12 C120_12 1_555 1_555
C125_12 C127_12 1_555 1_555
C126_12 C117_12 1_555 1_555
C127_12 C128_12 1_555 1_555
C128_12 H81_12 1_555 1_555
C129_12 C128_12 1_555 1_555
H82_12 C129_12 1_555 1_555
C130_12 C129_12 1_555 1_555
H83_12 C130_12 1_555 1_555
C131_12 C127_12 1_555 1_555
H84_12 C131_12 1_555 1_555
C132_12 N48_12 1_555 1_555
N42_12 C114_12 1_555 1_555
N43_12 C119_12 1_555 1_555
N44_12 C124_12 1_555 1_555
N45_12 C125_12 1_555 1_555
N46_12 C124_12 1_555 1_555
N47_12 Co16_8 1_555 1_555
N48_12 Co16_8 1_555 1_555
S6_12 C132_12 1_555 1_555
C133_12 H85_12 1_555 1_555
C134_12 C133_12 1_555 1_555
H86_12 C134_12 1_555 1_555
C135_12 C134_12 1_555 1_555
H87_12 C135_12 1_555 1_555
C136_12 C135_12 1_555 1_555
C137_12 C136_12 1_555 1_555
H88_12 C137_12 1_555 1_555
C139_12 H89_12 1_555 1_555
C140_12 C139_12 1_555 1_555
C141_12 C140_12 1_555 1_555
H90_12 C141_12 1_555 1_555
C142_12 C141_12 1_555 1_555
H91_12 C142_12 1_555 1_555
C143_12 C142_12 1_555 1_555
H92_12 C143_12 1_555 1_555
C144_12 C140_12 1_555 1_555
C145_12 C147_12 1_555 1_555
C146_12 C136_12 1_555 1_555
C147_12 C148_12 1_555 1_555
C148_12 H93_12 1_555 1_555
C149_12 C148_12 1_555 1_555
H94_12 C149_12 1_555 1_555
C150_12 C149_12 1_555 1_555
H95_12 C150_12 1_555 1_555
C151_12 C147_12 1_555 1_555
H96_12 C151_12 1_555 1_555
N50_12 Co1_15 1_555 1_555
N52_12 C144_12 1_555 1_555
N53_12 C145_12 1_555 1_555
N54_12 C144_12 1_555 1_555
N55_12 C150_12 1_555 1_555
C152_12 N56_12 1_555 1_555
N56_12 Co1_15 1_555 1_555
S8_12 C152_12 1_555 1_555
Co9_15 N16_12 1_555 1_555
Co10_15 N43_12 1_555 1_555
Co11_15 N15_12 1_555 1_555
Co13_15 N42_12 1_555 1_555
Co17_12 N55_12 1_555 1_555
N64_12 Co1_15 1_555 1_555
N65_12 Co1_15 1_555 1_555
C5_12 N61_2 1_555 1_555
C7_12 N3_12 1_555 1_555
C11_12 N3_12 1_555 1_555
C13_12 N6_12 1_555 1_555
C14_12 N4_12 1_555 1_555
C14_12 N5_12 1_555 1_555
C19_12 N69_4 1_555 1_555
C21_12 N70_4 1_555 1_555
C25_12 N70_4 1_555 1_555
C31_12 N11_12 1_555 1_555
C32_12 N12_12 1_555 1_555
C36_12 C38_12 1_555 1_555
C37_12 N71_4 1_555 1_555
C38_12 N14_12 1_555 1_555
C43_12 N15_12 1_555 1_555
C48_12 N16_12 1_555 1_555
C50_12 N19_12 1_555 1_555
C51_12 N17_12 1_555 1_555
C51_12 N18_12 1_555 1_555
C55_12 N20_12 1_555 1_555
C56_12 N20_12 1_555 1_555
C118_12 N42_12 1_555 1_555
C123_12 N43_12 1_555 1_555
C125_12 N46_12 1_555 1_555
C126_12 N44_12 1_555 1_555
C126_12 N45_12 1_555 1_555
C130_12 N47_12 1_555 1_555
C131_12 N47_12 1_555 1_555
C133_12 N50_12 1_555 1_555
C137_12 N50_12 1_555 1_555
C139_12 N66_7 1_555 1_555
C143_12 N66_7 1_555 1_555
C145_12 N54_12 1_555 1_555
C146_12 N52_12 1_555 1_555
C146_12 N53_12 1_555 1_555
C151_12 N55_12 1_555 1_555
Co7_4 N1_13 1_555 1_555
Co2_5 N7_9 1_555 1_555
C1_13 H1_13 1_555 1_555
C2_13 C1_13 1_555 1_555
H2_13 C2_13 1_555 1_555
C3_13 C2_13 1_555 1_555
H3_13 C3_13 1_555 1_555
C4_13 C3_13 1_555 1_555
C5_13 C4_13 1_555 1_555
H4_13 C5_13 1_555 1_555
C6_13 N1_13 1_555 1_555
C7_13 H5_13 1_555 1_555
C8_13 C7_13 1_555 1_555
C9_13 C8_13 1_555 1_555
H6_13 C9_13 1_555 1_555
C10_13 C9_13 1_555 1_555
H7_13 C10_13 1_555 1_555
C11_13 C10_13 1_555 1_555
H8_13 C11_13 1_555 1_555
C12_13 C8_13 1_555 1_555
C13_13 C15_13 1_555 1_555
C14_13 C4_13 1_555 1_555
C15_13 C16_13 1_555 1_555
C16_13 H9_13 1_555 1_555
C17_13 C16_13 1_555 1_555
H10_13 C17_13 1_555 1_555
C18_13 C17_13 1_555 1_555
H11_13 C18_13 1_555 1_555
C19_13 C15_13 1_555 1_555
H12_13 C19_13 1_555 1_555
C20_9 N8_9 1_555 1_555
C21_13 H13_13 1_555 1_555
C22_13 C21_13 1_555 1_555
H14_13 C22_13 1_555 1_555
C23_13 C22_13 1_555 1_555
H15_13 C23_13 1_555 1_555
C24_13 C23_13 1_555 1_555
C25_13 C24_13 1_555 1_555
H16_13 C25_13 1_555 1_555
C26_13 C24_13 1_555 1_555
N62_6 C1_13 1_555 1_555
N3_13 Co7_4 1_555 1_555
N4_13 C12_13 1_555 1_555
N5_13 C13_13 1_555 1_555
N6_13 C12_13 1_555 1_555
N7_9 C18_13 1_555 1_555
N8_9 Co2_5 1_555 1_555
N9_9 Co2_5 1_555 1_555
N10_13 C26_13 1_555 1_555
S1_13 C6_13 1_555 1_555
S2_9 C20_9 1_555 1_555
C27_13 H17_13 1_555 1_555
C28_13 C27_13 1_555 1_555
H18_13 C28_13 1_555 1_555
C29_13 C28_13 1_555 1_555
H19_13 C29_13 1_555 1_555
C30_13 C29_13 1_555 1_555
C31_13 C30_13 1_555 1_555
H20_13 C31_13 1_555 1_555
C32_13 C30_13 1_555 1_555
N11_13 C27_13 1_555 1_555
N12_13 C26_13 1_555 1_555
C33_13 H21_13 1_555 1_555
C34_13 C33_13 1_555 1_555
H22_13 C34_13 1_555 1_555
C35_13 C34_13 1_555 1_555
H23_13 C35_13 1_555 1_555
C36_13 C35_13 1_555 1_555
C37_13 C36_13 1_555 1_555
H24_13 C37_13 1_555 1_555
C38_13 N10_13 1_555 1_555
N13_9 C33_13 1_555 1_555
N14_13 C32_13 1_555 1_555
S3_13 C57_13 1_555 1_555
Co4_5 N27_5 1_555 1_555
C58_5 H37_5 1_555 1_555
C59_5 C58_5 1_555 1_555
H38_5 C59_5 1_555 1_555
C60_5 C59_5 1_555 1_555
H39_5 C60_5 1_555 1_555
C61_5 C60_5 1_555 1_555
C62_5 C61_5 1_555 1_555
H40_5 C62_5 1_555 1_555
C63_5 H41_5 1_555 1_555
C64_5 C63_5 1_555 1_555
C65_5 C64_5 1_555 1_555
H42_5 C65_5 1_555 1_555
C66_5 C65_5 1_555 1_555
H43_5 C66_5 1_555 1_555
C67_5 C66_5 1_555 1_555
H44_5 C67_5 1_555 1_555
C68_5 C64_5 1_555 1_555
C69_5 C71_5 1_555 1_555
C70_5 C61_5 1_555 1_555
C71_5 C72_5 1_555 1_555
C72_5 H45_5 1_555 1_555
C73_5 C72_5 1_555 1_555
H46_5 C73_5 1_555 1_555
C74_5 C73_5 1_555 1_555
H47_5 C74_5 1_555 1_555
C75_5 C71_5 1_555 1_555
H48_5 C75_5 1_555 1_555
C76_5 N28_5 1_555 1_555
C77_5 H49_5 1_555 1_555
C78_5 C77_5 1_555 1_555
H50_5 C78_5 1_555 1_555
C79_5 C78_5 1_555 1_555
H51_5 C79_5 1_555 1_555
C80_5 C79_5 1_555 1_555
C81_5 C80_5 1_555 1_555
H52_5 C81_5 1_555 1_555
C82_5 C80_5 1_555 1_555
N22_5 C58_5 1_555 1_555
N65_4 C63_5 1_555 1_555
N24_5 C68_5 1_555 1_555
N25_5 C69_5 1_555 1_555
N26_5 C68_5 1_555 1_555
N27_5 C74_5 1_555 1_555
N28_5 Co4_5 1_555 1_555
N29_5 Co4_5 1_555 1_555
N30_5 C82_5 1_555 1_555
S4_5 C76_5 1_555 1_555
C83_5 H53_5 1_555 1_555
C84_5 C83_5 1_555 1_555
H54_5 C84_5 1_555 1_555
C85_5 C84_5 1_555 1_555
H55_5 C85_5 1_555 1_555
C86_5 C85_5 1_555 1_555
C87_5 C86_5 1_555 1_555
H56_5 C87_5 1_555 1_555
C88_5 C86_5 1_555 1_555
N31_5 Co2_5 1_555 1_555
N32_5 C82_5 1_555 1_555
C89_5 H57_5 1_555 1_555
C90_5 C89_5 1_555 1_555
H58_5 C90_5 1_555 1_555
C91_5 C90_5 1_555 1_555
H59_5 C91_5 1_555 1_555
C92_5 C91_5 1_555 1_555
C93_5 C92_5 1_555 1_555
H60_5 C93_5 1_555 1_555
C94_5 N30_5 1_555 1_555
N33_5 C89_5 1_555 1_555
N34_5 C88_5 1_555 1_555
C96_9 C95_9 1_555 1_555
H62_9 C96_9 1_555 1_555
C97_9 C96_9 1_555 1_555
H63_9 C97_9 1_555 1_555
C98_9 C97_9 1_555 1_555
C99_9 C98_9 1_555 1_555
H64_9 C99_9 1_555 1_555
C100_9 H65_9 1_555 1_555
C101_9 C100_9 1_555 1_555
C102_9 C101_9 1_555 1_555
H66_9 C102_9 1_555 1_555
C103_9 C102_9 1_555 1_555
H67_9 C103_9 1_555 1_555
C104_9 C103_9 1_555 1_555
H68_9 C104_9 1_555 1_555
C105_9 C101_9 1_555 1_555
C106_9 C108_9 1_555 1_555
C107_9 C98_9 1_555 1_555
C108_9 C109_9 1_555 1_555
C109_9 H69_9 1_555 1_555
C110_9 C109_9 1_555 1_555
H70_9 C110_9 1_555 1_555
C111_9 C110_9 1_555 1_555
H71_9 C111_9 1_555 1_555
C112_9 C108_9 1_555 1_555
H72_9 C112_9 1_555 1_555
C113_9 N41_9 1_555 1_555
N35_9 C95_9 1_555 1_555
N65_11 C100_9 1_555 1_555
N37_9 C105_9 1_555 1_555
N38_9 C106_9 1_555 1_555
N39_9 C105_9 1_555 1_555
N40_9 Co2_5 1_555 1_555
N41_9 Co2_5 1_555 1_555
S5_9 C113_9 1_555 1_555
S6_13 C132_13 1_555 1_555
C133_13 H85_13 1_555 1_555
C134_13 C133_13 1_555 1_555
H86_13 C134_13 1_555 1_555
C135_13 C134_13 1_555 1_555
H87_13 C135_13 1_555 1_555
C136_13 C135_13 1_555 1_555
C137_13 C136_13 1_555 1_555
H88_13 C137_13 1_555 1_555
C139_13 H89_13 1_555 1_555
C140_13 C139_13 1_555 1_555
C141_13 C140_13 1_555 1_555
H90_13 C141_13 1_555 1_555
C142_13 C141_13 1_555 1_555
H91_13 C142_13 1_555 1_555
C143_13 C142_13 1_555 1_555
H92_13 C143_13 1_555 1_555
C144_13 C140_13 1_555 1_555
C145_13 C147_13 1_555 1_555
C146_13 C136_13 1_555 1_555
C147_13 C148_13 1_555 1_555
C148_13 H93_13 1_555 1_555
C149_13 C148_13 1_555 1_555
H94_13 C149_13 1_555 1_555
C150_13 C149_13 1_555 1_555
H95_13 C150_13 1_555 1_555
C151_13 C147_13 1_555 1_555
H96_13 C151_13 1_555 1_555
N50_13 Co7_4 1_555 1_555
N52_13 C144_13 1_555 1_555
N53_13 C145_13 1_555 1_555
N54_13 C144_13 1_555 1_555
N55_13 C150_13 1_555 1_555
C152_13 N56_13 1_555 1_555
N56_13 Co7_4 1_555 1_555
S8_13 C152_13 1_555 1_555
C153_5 N57_5 1_555 1_555
N57_5 Co4_5 1_555 1_555
S9_5 C153_5 1_555 1_555
Co11_2 N35_9 1_555 1_555
Co11_10 N22_5 1_555 1_555
Co15_5 N33_5 1_555 1_555
Co16_9 N13_9 1_555 1_555
Co17_13 N55_13 1_555 1_555
N64_13 Co7_4 1_555 1_555
N69_5 Co4_5 1_555 1_555
N70_5 Co4_5 1_555 1_555
C5_13 N62_6 1_555 1_555
C7_13 N3_13 1_555 1_555
C11_13 N3_13 1_555 1_555
C13_13 N6_13 1_555 1_555
C14_13 N4_13 1_555 1_555
C14_13 N5_13 1_555 1_555
C19_13 N7_9 1_555 1_555
C21_13 N9_9 1_555 1_555
C25_13 N9_9 1_555 1_555
C31_13 N11_13 1_555 1_555
C32_13 N12_13 1_555 1_555
C36_13 C38_13 1_555 1_555
C37_13 N13_9 1_555 1_555
C38_13 N14_13 1_555 1_555
C62_5 N22_5 1_555 1_555
C67_5 N65_4 1_555 1_555
C69_5 N26_5 1_555 1_555
C70_5 N24_5 1_555 1_555
C70_5 N25_5 1_555 1_555
C75_5 N27_5 1_555 1_555
C77_5 N29_5 1_555 1_555
C81_5 N29_5 1_555 1_555
C83_5 N31_5 1_555 1_555
C87_5 N31_5 1_555 1_555
C88_5 N32_5 1_555 1_555
C92_5 C94_5 1_555 1_555
C93_5 N33_5 1_555 1_555
C94_5 N34_5 1_555 1_555
C99_9 N35_9 1_555 1_555
C104_9 N65_11 1_555 1_555
C106_9 N39_9 1_555 1_555
C107_9 N37_9 1_555 1_555
C107_9 N38_9 1_555 1_555
C111_9 N40_9 1_555 1_555
C112_9 N40_9 1_555 1_555
C133_13 N50_13 1_555 1_555
C137_13 N50_13 1_555 1_555
C139_13 N68 1_555 1_555
C143_13 N68 1_555 1_555
C145_13 N54_13 1_555 1_555
C146_13 N52_13 1_555 1_555
C146_13 N53_13 1_555 1_555
C151_13 N55_13 1_555 1_555
C39_13 H25_13 1_555 1_555
C40_13 C39_13 1_555 1_555
H26_13 C40_13 1_555 1_555
C41_13 C40_13 1_555 1_555
H27_13 C41_13 1_555 1_555
C42_13 C41_13 1_555 1_555
C43_13 C42_13 1_555 1_555
H28_13 C43_13 1_555 1_555
C44_13 H29_13 1_555 1_555
C45_13 C44_13 1_555 1_555
C46_13 C45_13 1_555 1_555
H30_13 C46_13 1_555 1_555
C47_13 C46_13 1_555 1_555
H31_13 C47_13 1_555 1_555
C48_13 C47_13 1_555 1_555
H32_13 C48_13 1_555 1_555
C49_13 C45_13 1_555 1_555
C50_13 C52_13 1_555 1_555
C51_13 C42_13 1_555 1_555
C52_13 C53_13 1_555 1_555
C53_13 H33_13 1_555 1_555
C54_13 C53_13 1_555 1_555
H34_13 C54_13 1_555 1_555
C55_13 C54_13 1_555 1_555
H35_13 C55_13 1_555 1_555
C56_13 C52_13 1_555 1_555
H36_13 C56_13 1_555 1_555
N15_13 C39_13 1_555 1_555
N16_13 C44_13 1_555 1_555
N17_13 C49_13 1_555 1_555
N18_13 C50_13 1_555 1_555
N19_13 C49_13 1_555 1_555
N20_13 Co3_5 1_555 1_555
N21_13 Co3_5 1_555 1_555
C114_13 H73_13 1_555 1_555
C115_13 C114_13 1_555 1_555
H74_13 C115_13 1_555 1_555
C116_13 C115_13 1_555 1_555
H75_13 C116_13 1_555 1_555
C117_13 C116_13 1_555 1_555
C118_13 C117_13 1_555 1_555
H76_13 C118_13 1_555 1_555
C119_13 H77_13 1_555 1_555
C120_13 C119_13 1_555 1_555
C121_13 C120_13 1_555 1_555
H78_13 C121_13 1_555 1_555
C122_13 C121_13 1_555 1_555
H79_13 C122_13 1_555 1_555
C123_13 C122_13 1_555 1_555
H80_13 C123_13 1_555 1_555
C124_13 C120_13 1_555 1_555
C125_13 C127_13 1_555 1_555
C126_13 C117_13 1_555 1_555
C127_13 C128_13 1_555 1_555
C128_13 H81_13 1_555 1_555
C129_13 C128_13 1_555 1_555
H82_13 C129_13 1_555 1_555
C130_13 C129_13 1_555 1_555
H83_13 C130_13 1_555 1_555
C131_13 C127_13 1_555 1_555
H84_13 C131_13 1_555 1_555
N42_13 C114_13 1_555 1_555
N43_13 C119_13 1_555 1_555
N44_13 C124_13 1_555 1_555
N45_13 C125_13 1_555 1_555
N46_13 C124_13 1_555 1_555
N47_13 Co3_5 1_555 1_555
N48_13 Co3_5 1_555 1_555
Co9_2 N16_13 1_555 1_555
Co10 N43_13 1_555 1_555
Co12_2 N15_13 1_555 1_555
Co13_13 N42_13 1_555 1_555
C43_13 N15_13 1_555 1_555
C48_13 N16_13 1_555 1_555
C50_13 N19_13 1_555 1_555
C51_13 N17_13 1_555 1_555
C51_13 N18_13 1_555 1_555
C55_13 N20_13 1_555 1_555
C56_13 N20_13 1_555 1_555
C118_13 N42_13 1_555 1_555
C123_13 N43_13 1_555 1_555
C125_13 N46_13 1_555 1_555
C126_13 N44_13 1_555 1_555
C126_13 N45_13 1_555 1_555
C130_13 N47_13 1_555 1_555
C131_13 N47_13 1_555 1_555
Co7_5 N1_14 1_555 1_555
Co2_6 N7_10 1_555 1_555
C1_14 H1_14 1_555 1_555
C2_14 C1_14 1_555 1_555
H2_14 C2_14 1_555 1_555
C3_14 C2_14 1_555 1_555
H3_14 C3_14 1_555 1_555
C4_14 C3_14 1_555 1_555
C5_14 C4_14 1_555 1_555
H4_14 C5_14 1_555 1_555
C6_14 N1_14 1_555 1_555
C7_14 H5_14 1_555 1_555
C8_14 C7_14 1_555 1_555
C9_14 C8_14 1_555 1_555
H6_14 C9_14 1_555 1_555
C10_14 C9_14 1_555 1_555
H7_14 C10_14 1_555 1_555
C11_14 C10_14 1_555 1_555
H8_14 C11_14 1_555 1_555
C12_14 C8_14 1_555 1_555
C13_14 C15_14 1_555 1_555
C14_14 C4_14 1_555 1_555
C15_14 C16_14 1_555 1_555
C16_14 H9_14 1_555 1_555
C17_14 C16_14 1_555 1_555
H10_14 C17_14 1_555 1_555
C18_14 C17_14 1_555 1_555
H11_14 C18_14 1_555 1_555
C19_14 C15_14 1_555 1_555
H12_14 C19_14 1_555 1_555
C20_10 N8_10 1_555 1_555
C21_14 H13_14 1_555 1_555
C22_14 C21_14 1_555 1_555
H14_14 C22_14 1_555 1_555
C23_14 C22_14 1_555 1_555
H15_14 C23_14 1_555 1_555
C24_14 C23_14 1_555 1_555
C25_14 C24_14 1_555 1_555
H16_14 C25_14 1_555 1_555
C26_14 C24_14 1_555 1_555
N62_8 C1_14 1_555 1_555
N3_14 Co7_5 1_555 1_555
N4_14 C12_14 1_555 1_555
N5_14 C13_14 1_555 1_555
N6_14 C12_14 1_555 1_555
N7_10 C18_14 1_555 1_555
N8_10 Co2_6 1_555 1_555
N9_10 Co2_6 1_555 1_555
N10_14 C26_14 1_555 1_555
S1_14 C6_14 1_555 1_555
S2_10 C20_10 1_555 1_555
C27_14 H17_14 1_555 1_555
C28_14 C27_14 1_555 1_555
H18_14 C28_14 1_555 1_555
C29_14 C28_14 1_555 1_555
H19_14 C29_14 1_555 1_555
C30_14 C29_14 1_555 1_555
C31_14 C30_14 1_555 1_555
H20_14 C31_14 1_555 1_555
C32_14 C30_14 1_555 1_555
N11_14 C27_14 1_555 1_555
N12_14 C26_14 1_555 1_555
C33_14 H21_14 1_555 1_555
C34_14 C33_14 1_555 1_555
H22_14 C34_14 1_555 1_555
C35_14 C34_14 1_555 1_555
H23_14 C35_14 1_555 1_555
C36_14 C35_14 1_555 1_555
C37_14 C36_14 1_555 1_555
H24_14 C37_14 1_555 1_555
C38_14 N10_14 1_555 1_555
N13_10 C33_14 1_555 1_555
N14_14 C32_14 1_555 1_555
Co3_6 N11_14 1_555 1_555
C39_14 H25_14 1_555 1_555
C40_14 C39_14 1_555 1_555
H26_14 C40_14 1_555 1_555
C41_14 C40_14 1_555 1_555
H27_14 C41_14 1_555 1_555
C42_14 C41_14 1_555 1_555
C43_14 C42_14 1_555 1_555
H28_14 C43_14 1_555 1_555
C44_14 H29_14 1_555 1_555
C45_14 C44_14 1_555 1_555
C46_14 C45_14 1_555 1_555
H30_14 C46_14 1_555 1_555
C47_14 C46_14 1_555 1_555
H31_14 C47_14 1_555 1_555
C48_14 C47_14 1_555 1_555
H32_14 C48_14 1_555 1_555
C49_14 C45_14 1_555 1_555
C50_14 C52_14 1_555 1_555
C51_14 C42_14 1_555 1_555
C52_14 C53_14 1_555 1_555
C53_14 H33_14 1_555 1_555
C54_14 C53_14 1_555 1_555
H34_14 C54_14 1_555 1_555
C55_14 C54_14 1_555 1_555
H35_14 C55_14 1_555 1_555
C56_14 C52_14 1_555 1_555
H36_14 C56_14 1_555 1_555
C57_14 N21_14 1_555 1_555
N15_14 C39_14 1_555 1_555
N16_14 C44_14 1_555 1_555
N17_14 C49_14 1_555 1_555
N18_14 C50_14 1_555 1_555
N19_14 C49_14 1_555 1_555
N20_14 Co3_6 1_555 1_555
N21_14 Co3_6 1_555 1_555
S3_14 C57_14 1_555 1_555
Co4_6 N27_6 1_555 1_555
C59_6 C58_6 1_555 1_555
H38_6 C59_6 1_555 1_555
C60_6 C59_6 1_555 1_555
H39_6 C60_6 1_555 1_555
C61_6 C60_6 1_555 1_555
C62_6 C61_6 1_555 1_555
H40_6 C62_6 1_555 1_555
C63_6 H41_6 1_555 1_555
C64_6 C63_6 1_555 1_555
C65_6 C64_6 1_555 1_555
H42_6 C65_6 1_555 1_555
C66_6 C65_6 1_555 1_555
H43_6 C66_6 1_555 1_555
C67_6 C66_6 1_555 1_555
H44_6 C67_6 1_555 1_555
C68_6 C64_6 1_555 1_555
C69_6 C71_6 1_555 1_555
C70_6 C61_6 1_555 1_555
C71_6 C72_6 1_555 1_555
C72_6 H45_6 1_555 1_555
C73_6 C72_6 1_555 1_555
H46_6 C73_6 1_555 1_555
C74_6 C73_6 1_555 1_555
H47_6 C74_6 1_555 1_555
C75_6 C71_6 1_555 1_555
H48_6 C75_6 1_555 1_555
C76_6 N28_6 1_555 1_555
C77_6 H49_6 1_555 1_555
C78_6 C77_6 1_555 1_555
H50_6 C78_6 1_555 1_555
C79_6 C78_6 1_555 1_555
H51_6 C79_6 1_555 1_555
C80_6 C79_6 1_555 1_555
C81_6 C80_6 1_555 1_555
H52_6 C81_6 1_555 1_555
C82_6 C80_6 1_555 1_555
N22_6 C58_6 1_555 1_555
N65_3 C63_6 1_555 1_555
N24_6 C68_6 1_555 1_555
N25_6 C69_6 1_555 1_555
N26_6 C68_6 1_555 1_555
N27_6 C74_6 1_555 1_555
N28_6 Co4_6 1_555 1_555
N29_6 Co4_6 1_555 1_555
N30_6 C82_6 1_555 1_555
S4_6 C76_6 1_555 1_555
C83_6 H53_6 1_555 1_555
C84_6 C83_6 1_555 1_555
H54_6 C84_6 1_555 1_555
C85_6 C84_6 1_555 1_555
H55_6 C85_6 1_555 1_555
C86_6 C85_6 1_555 1_555
C87_6 C86_6 1_555 1_555
H56_6 C87_6 1_555 1_555
C88_6 C86_6 1_555 1_555
N31_6 Co2_6 1_555 1_555
N32_6 C82_6 1_555 1_555
C89_6 H57_6 1_555 1_555
C90_6 C89_6 1_555 1_555
H58_6 C90_6 1_555 1_555
C91_6 C90_6 1_555 1_555
H59_6 C91_6 1_555 1_555
C92_6 C91_6 1_555 1_555
C93_6 C92_6 1_555 1_555
H60_6 C93_6 1_555 1_555
C94_6 N30_6 1_555 1_555
N33_6 C89_6 1_555 1_555
N34_6 C88_6 1_555 1_555
C95_10 H61_10 1_555 1_555
C96_10 C95_10 1_555 1_555
H62_10 C96_10 1_555 1_555
C97_10 C96_10 1_555 1_555
H63_10 C97_10 1_555 1_555
C98_10 C97_10 1_555 1_555
C99_10 C98_10 1_555 1_555
H64_10 C99_10 1_555 1_555
C100_10 H65_10 1_555 1_555
C101_10 C100_10 1_555 1_555
C102_10 C101_10 1_555 1_555
H66_10 C102_10 1_555 1_555
C103_10 C102_10 1_555 1_555
H67_10 C103_10 1_555 1_555
C104_10 C103_10 1_555 1_555
H68_10 C104_10 1_555 1_555
C105_10 C101_10 1_555 1_555
C106_10 C108_10 1_555 1_555
C107_10 C98_10 1_555 1_555
C108_10 C109_10 1_555 1_555
C109_10 H69_10 1_555 1_555
C110_10 C109_10 1_555 1_555
H70_10 C110_10 1_555 1_555
C111_10 C110_10 1_555 1_555
H71_10 C111_10 1_555 1_555
C112_10 C108_10 1_555 1_555
H72_10 C112_10 1_555 1_555
C113_10 N41_10 1_555 1_555
N35_10 C95_10 1_555 1_555
N65_10 C100_10 1_555 1_555
N37_10 C105_10 1_555 1_555
N38_10 C106_10 1_555 1_555
N39_10 C105_10 1_555 1_555
N40_10 Co2_6 1_555 1_555
N41_10 Co2_6 1_555 1_555
S5_10 C113_10 1_555 1_555
C114_14 H73_14 1_555 1_555
C115_14 C114_14 1_555 1_555
H74_14 C115_14 1_555 1_555
C116_14 C115_14 1_555 1_555
H75_14 C116_14 1_555 1_555
C117_14 C116_14 1_555 1_555
C118_14 C117_14 1_555 1_555
H76_14 C118_14 1_555 1_555
C119_14 H77_14 1_555 1_555
C120_14 C119_14 1_555 1_555
C121_14 C120_14 1_555 1_555
H78_14 C121_14 1_555 1_555
C122_14 C121_14 1_555 1_555
H79_14 C122_14 1_555 1_555
C123_14 C122_14 1_555 1_555
H80_14 C123_14 1_555 1_555
C124_14 C120_14 1_555 1_555
C125_14 C127_14 1_555 1_555
C126_14 C117_14 1_555 1_555
C127_14 C128_14 1_555 1_555
C128_14 H81_14 1_555 1_555
C129_14 C128_14 1_555 1_555
H82_14 C129_14 1_555 1_555
C130_14 C129_14 1_555 1_555
H83_14 C130_14 1_555 1_555
C131_14 C127_14 1_555 1_555
H84_14 C131_14 1_555 1_555
C132_14 N48_14 1_555 1_555
N42_14 C114_14 1_555 1_555
N43_14 C119_14 1_555 1_555
N44_14 C124_14 1_555 1_555
N45_14 C125_14 1_555 1_555
N46_14 C124_14 1_555 1_555
N47_14 Co3_6 1_555 1_555
N48_14 Co3_6 1_555 1_555
S6_14 C132_14 1_555 1_555
C133_14 H85_14 1_555 1_555
C134_14 C133_14 1_555 1_555
H86_14 C134_14 1_555 1_555
C135_14 C134_14 1_555 1_555
H87_14 C135_14 1_555 1_555
C136_14 C135_14 1_555 1_555
C137_14 C136_14 1_555 1_555
H88_14 C137_14 1_555 1_555
C139_14 H89_14 1_555 1_555
C140_14 C139_14 1_555 1_555
C141_14 C140_14 1_555 1_555
H90_14 C141_14 1_555 1_555
C142_14 C141_14 1_555 1_555
H91_14 C142_14 1_555 1_555
C143_14 C142_14 1_555 1_555
H92_14 C143_14 1_555 1_555
C144_14 C140_14 1_555 1_555
C145_14 C147_14 1_555 1_555
C146_14 C136_14 1_555 1_555
C147_14 C148_14 1_555 1_555
C148_14 H93_14 1_555 1_555
C149_14 C148_14 1_555 1_555
H94_14 C149_14 1_555 1_555
C150_14 C149_14 1_555 1_555
H95_14 C150_14 1_555 1_555
C151_14 C147_14 1_555 1_555
H96_14 C151_14 1_555 1_555
N50_14 Co7_5 1_555 1_555
N52_14 C144_14 1_555 1_555
N53_14 C145_14 1_555 1_555
N54_14 C144_14 1_555 1_555
N55_14 C150_14 1_555 1_555
C152_14 N56_14 1_555 1_555
N56_14 Co7_5 1_555 1_555
S8_14 C152_14 1_555 1_555
C153_6 N57_6 1_555 1_555
N57_6 Co4_6 1_555 1_555
S9_6 C153_6 1_555 1_555
Co9 N16_14 1_555 1_555
Co10_2 N43_14 1_555 1_555
Co12 N15_14 1_555 1_555
Co11 N35_10 1_555 1_555
Co13_14 N42_14 1_555 1_555
Co11_7 N22_6 1_555 1_555
Co15_6 N33_6 1_555 1_555
Co16_10 N13_10 1_555 1_555
Co17_14 N55_14 1_555 1_555
N64_14 Co7_5 1_555 1_555
N69_6 Co4_6 1_555 1_555
N70_6 Co4_6 1_555 1_555
N71_6 Co3_6 1_555 1_555
C5_14 N62_8 1_555 1_555
C7_14 N3_14 1_555 1_555
C11_14 N3_14 1_555 1_555
C13_14 N6_14 1_555 1_555
C14_14 N4_14 1_555 1_555
C14_14 N5_14 1_555 1_555
C19_14 N7_10 1_555 1_555
C21_14 N9_10 1_555 1_555
C25_14 N9_10 1_555 1_555
C31_14 N11_14 1_555 1_555
C32_14 N12_14 1_555 1_555
C36_14 C38_14 1_555 1_555
C37_14 N13_10 1_555 1_555
C38_14 N14_14 1_555 1_555
C43_14 N15_14 1_555 1_555
C48_14 N16_14 1_555 1_555
C50_14 N19_14 1_555 1_555
C51_14 N17_14 1_555 1_555
C51_14 N18_14 1_555 1_555
C55_14 N20_14 1_555 1_555
C56_14 N20_14 1_555 1_555
C62_6 N22_6 1_555 1_555
C67_6 N65_3 1_555 1_555
C69_6 N26_6 1_555 1_555
C70_6 N24_6 1_555 1_555
C70_6 N25_6 1_555 1_555
C75_6 N27_6 1_555 1_555
C77_6 N29_6 1_555 1_555
C81_6 N29_6 1_555 1_555
C83_6 N31_6 1_555 1_555
C87_6 N31_6 1_555 1_555
C88_6 N32_6 1_555 1_555
C92_6 C94_6 1_555 1_555
C93_6 N33_6 1_555 1_555
C94_6 N34_6 1_555 1_555
C99_10 N35_10 1_555 1_555
C104_10 N65_10 1_555 1_555
C106_10 N39_10 1_555 1_555
C107_10 N37_10 1_555 1_555
C107_10 N38_10 1_555 1_555
C111_10 N40_10 1_555 1_555
C112_10 N40_10 1_555 1_555
C118_14 N42_14 1_555 1_555
C123_14 N43_14 1_555 1_555
C125_14 N46_14 1_555 1_555
C126_14 N44_14 1_555 1_555
C126_14 N45_14 1_555 1_555
C130_14 N47_14 1_555 1_555
C131_14 N47_14 1_555 1_555
C133_14 N50_14 1_555 1_555
C137_14 N50_14 1_555 1_555
C139_14 N68_2 1_555 1_555
C143_14 N68_2 1_555 1_555
C145_14 N54_14 1_555 1_555
C146_14 N52_14 1_555 1_555
C146_14 N53_14 1_555 1_555
C151_14 N55_14 1_555 1_555
C21_15 H13_15 1_555 1_555
C22_15 C21_15 1_555 1_555
H14_15 C22_15 1_555 1_555
C23_15 C22_15 1_555 1_555
H15_15 C23_15 1_555 1_555
C24_15 C23_15 1_555 1_555
C25_15 C24_15 1_555 1_555
H16_15 C25_15 1_555 1_555
C26_15 C24_15 1_555 1_555
N10_15 C26_15 1_555 1_555
S2_11 C20_11 1_555 1_555
C27_15 H17_15 1_555 1_555
C28_15 C27_15 1_555 1_555
H18_15 C28_15 1_555 1_555
C29_15 C28_15 1_555 1_555
H19_15 C29_15 1_555 1_555
C30_15 C29_15 1_555 1_555
C31_15 C30_15 1_555 1_555
H20_15 C31_15 1_555 1_555
C32_15 C30_15 1_555 1_555
N11_15 C27_15 1_555 1_555
N12_15 C26_15 1_555 1_555
C33_15 H21_15 1_555 1_555
C34_15 C33_15 1_555 1_555
H22_15 C34_15 1_555 1_555
C35_15 C34_15 1_555 1_555
H23_15 C35_15 1_555 1_555
C36_15 C35_15 1_555 1_555
C37_15 C36_15 1_555 1_555
H24_15 C37_15 1_555 1_555
C38_15 N10_15 1_555 1_555
N13_11 C33_15 1_555 1_555
N14_15 C32_15 1_555 1_555
Co3_7 N11_15 1_555 1_555
C40_15 C39_15 1_555 1_555
H26_15 C40_15 1_555 1_555
C41_15 C40_15 1_555 1_555
H27_15 C41_15 1_555 1_555
C42_15 C41_15 1_555 1_555
C43_15 C42_15 1_555 1_555
H28_15 C43_15 1_555 1_555
C44_15 H29_15 1_555 1_555
C45_15 C44_15 1_555 1_555
C46_15 C45_15 1_555 1_555
H30_15 C46_15 1_555 1_555
C47_15 C46_15 1_555 1_555
H31_15 C47_15 1_555 1_555
C48_15 C47_15 1_555 1_555
H32_15 C48_15 1_555 1_555
C49_15 C45_15 1_555 1_555
C50_15 C52_15 1_555 1_555
C51_15 C42_15 1_555 1_555
C52_15 C53_15 1_555 1_555
C53_15 H33_15 1_555 1_555
C54_15 C53_15 1_555 1_555
H34_15 C54_15 1_555 1_555
C55_15 C54_15 1_555 1_555
H35_15 C55_15 1_555 1_555
C56_15 C52_15 1_555 1_555
H36_15 C56_15 1_555 1_555
C57_15 N21_15 1_555 1_555
N15_15 C39_15 1_555 1_555
N16_15 C44_15 1_555 1_555
N17_15 C49_15 1_555 1_555
N18_15 C50_15 1_555 1_555
N19_15 C49_15 1_555 1_555
N20_15 Co3_7 1_555 1_555
N21_15 Co3_7 1_555 1_555
S3_15 C57_15 1_555 1_555
C77_7 H49_7 1_555 1_555
C78_7 C77_7 1_555 1_555
H50_7 C78_7 1_555 1_555
C79_7 C78_7 1_555 1_555
H51_7 C79_7 1_555 1_555
C80_7 C79_7 1_555 1_555
C81_7 C80_7 1_555 1_555
H52_7 C81_7 1_555 1_555
C82_7 C80_7 1_555 1_555
N30_7 C82_7 1_555 1_555
S4_7 C76_7 1_555 1_555
C83_7 H53_7 1_555 1_555
C84_7 C83_7 1_555 1_555
H54_7 C84_7 1_555 1_555
C85_7 C84_7 1_555 1_555
H55_7 C85_7 1_555 1_555
C86_7 C85_7 1_555 1_555
C87_7 C86_7 1_555 1_555
H56_7 C87_7 1_555 1_555
C88_7 C86_7 1_555 1_555
N32_7 C82_7 1_555 1_555
C89_7 H57_7 1_555 1_555
C90_7 C89_7 1_555 1_555
H58_7 C90_7 1_555 1_555
C91_7 C90_7 1_555 1_555
H59_7 C91_7 1_555 1_555
C92_7 C91_7 1_555 1_555
C93_7 C92_7 1_555 1_555
H60_7 C93_7 1_555 1_555
C94_7 N30_7 1_555 1_555
N33_7 C89_7 1_555 1_555
N34_7 C88_7 1_555 1_555
S5_11 C113_11 1_555 1_555
C114_15 H73_15 1_555 1_555
C115_15 C114_15 1_555 1_555
H74_15 C115_15 1_555 1_555
C116_15 C115_15 1_555 1_555
H75_15 C116_15 1_555 1_555
C117_15 C116_15 1_555 1_555
C118_15 C117_15 1_555 1_555
H76_15 C118_15 1_555 1_555
C119_15 H77_15 1_555 1_555
C120_15 C119_15 1_555 1_555
C121_15 C120_15 1_555 1_555
H78_15 C121_15 1_555 1_555
C122_15 C121_15 1_555 1_555
H79_15 C122_15 1_555 1_555
C123_15 C122_15 1_555 1_555
H80_15 C123_15 1_555 1_555
C124_15 C120_15 1_555 1_555
C125_15 C127_15 1_555 1_555
C126_15 C117_15 1_555 1_555
C127_15 C128_15 1_555 1_555
C128_15 H81_15 1_555 1_555
C129_15 C128_15 1_555 1_555
H82_15 C129_15 1_555 1_555
C130_15 C129_15 1_555 1_555
H83_15 C130_15 1_555 1_555
C131_15 C127_15 1_555 1_555
H84_15 C131_15 1_555 1_555
C132_15 N48_15 1_555 1_555
N42_15 C114_15 1_555 1_555
N43_15 C119_15 1_555 1_555
N44_15 C124_15 1_555 1_555
N45_15 C125_15 1_555 1_555
N46_15 C124_15 1_555 1_555
N47_15 Co3_7 1_555 1_555
N48_15 Co3_7 1_555 1_555
S6_15 C132_15 1_555 1_555
S9_7 C153_7 1_555 1_555
Co9_3 N16_15 1_555 1_555
Co10_5 N43_15 1_555 1_555
Co12_3 N15_15 1_555 1_555
Co13_15 N42_15 1_555 1_555
Co16_11 N13_11 1_555 1_555
N71_7 Co3_7 1_555 1_555
C21_15 N9_11 1_555 1_555
C25_15 N9_11 1_555 1_555
C31_15 N11_15 1_555 1_555
C32_15 N12_15 1_555 1_555
C36_15 C38_15 1_555 1_555
C37_15 N13_11 1_555 1_555
C38_15 N14_15 1_555 1_555
C43_15 N15_15 1_555 1_555
C48_15 N16_15 1_555 1_555
C50_15 N19_15 1_555 1_555
C51_15 N17_15 1_555 1_555
C51_15 N18_15 1_555 1_555
C55_15 N20_15 1_555 1_555
C56_15 N20_15 1_555 1_555
C77_7 N29_7 1_555 1_555
C81_7 N29_7 1_555 1_555
C83_7 N31_7 1_555 1_555
C87_7 N31_7 1_555 1_555
C88_7 N32_7 1_555 1_555
C92_7 C94_7 1_555 1_555
C93_7 N33_7 1_555 1_555
C94_7 N34_7 1_555 1_555
C118_15 N42_15 1_555 1_555
C123_15 N43_15 1_555 1_555
C125_15 N46_15 1_555 1_555
C126_15 N44_15 1_555 1_555
C126_15 N45_15 1_555 1_555
C130_15 N47_15 1_555 1_555
C131_15 N47_15 1_555 1_555
Co7_3 N1_15 1_555 1_555
Co2_7 N7_11 1_555 1_555
C2_15 C1_15 1_555 1_555
H2_15 C2_15 1_555 1_555
C3_15 C2_15 1_555 1_555
H3_15 C3_15 1_555 1_555
C4_15 C3_15 1_555 1_555
C5_15 C4_15 1_555 1_555
H4_15 C5_15 1_555 1_555
C6_15 N1_15 1_555 1_555
C7_15 H5_15 1_555 1_555
C8_15 C7_15 1_555 1_555
C9_15 C8_15 1_555 1_555
H6_15 C9_15 1_555 1_555
C10_15 C9_15 1_555 1_555
H7_15 C10_15 1_555 1_555
C11_15 C10_15 1_555 1_555
H8_15 C11_15 1_555 1_555
C12_15 C8_15 1_555 1_555
C13_15 C15_15 1_555 1_555
C14_15 C4_15 1_555 1_555
C15_15 C16_15 1_555 1_555
C16_15 H9_15 1_555 1_555
C17_15 C16_15 1_555 1_555
H10_15 C17_15 1_555 1_555
C18_15 C17_15 1_555 1_555
H11_15 C18_15 1_555 1_555
C19_15 C15_15 1_555 1_555
H12_15 C19_15 1_555 1_555
N62_5 C1_15 1_555 1_555
N3_15 Co7_3 1_555 1_555
N4_15 C12_15 1_555 1_555
N5_15 C13_15 1_555 1_555
N6_15 C12_15 1_555 1_555
N7_11 C18_15 1_555 1_555
N8_11 Co2_7 1_555 1_555
S1_15 C6_15 1_555 1_555
C95_11 H61_11 1_555 1_555
C96_11 C95_11 1_555 1_555
H62_11 C96_11 1_555 1_555
C97_11 C96_11 1_555 1_555
H63_11 C97_11 1_555 1_555
C98_11 C97_11 1_555 1_555
C99_11 C98_11 1_555 1_555
H64_11 C99_11 1_555 1_555
C100_11 H65_11 1_555 1_555
C101_11 C100_11 1_555 1_555
C102_11 C101_11 1_555 1_555
H66_11 C102_11 1_555 1_555
C103_11 C102_11 1_555 1_555
H67_11 C103_11 1_555 1_555
C104_11 C103_11 1_555 1_555
H68_11 C104_11 1_555 1_555
C105_11 C101_11 1_555 1_555
C106_11 C108_11 1_555 1_555
C107_11 C98_11 1_555 1_555
C108_11 C109_11 1_555 1_555
C109_11 H69_11 1_555 1_555
C110_11 C109_11 1_555 1_555
H70_11 C110_11 1_555 1_555
C111_11 C110_11 1_555 1_555
H71_11 C111_11 1_555 1_555
C112_11 C108_11 1_555 1_555
H72_11 C112_11 1_555 1_555
N35_11 C95_11 1_555 1_555
N65_9 C100_11 1_555 1_555
N37_11 C105_11 1_555 1_555
N38_11 C106_11 1_555 1_555
N39_11 C105_11 1_555 1_555
N40_11 Co2_7 1_555 1_555
N41_11 Co2_7 1_555 1_555
C133_15 H85_15 1_555 1_555
C134_15 C133_15 1_555 1_555
H86_15 C134_15 1_555 1_555
C135_15 C134_15 1_555 1_555
H87_15 C135_15 1_555 1_555
C136_15 C135_15 1_555 1_555
C137_15 C136_15 1_555 1_555
H88_15 C137_15 1_555 1_555
C139_15 H89_15 1_555 1_555
C140_15 C139_15 1_555 1_555
C141_15 C140_15 1_555 1_555
H90_15 C141_15 1_555 1_555
C142_15 C141_15 1_555 1_555
H91_15 C142_15 1_555 1_555
C143_15 C142_15 1_555 1_555
H92_15 C143_15 1_555 1_555
C144_15 C140_15 1_555 1_555
C145_15 C147_15 1_555 1_555
C146_15 C136_15 1_555 1_555
C147_15 C148_15 1_555 1_555
C148_15 H93_15 1_555 1_555
C149_15 C148_15 1_555 1_555
H94_15 C149_15 1_555 1_555
C150_15 C149_15 1_555 1_555
H95_15 C150_15 1_555 1_555
C151_15 C147_15 1_555 1_555
H96_15 C151_15 1_555 1_555
N50_15 Co7_3 1_555 1_555
N52_15 C144_15 1_555 1_555
N53_15 C145_15 1_555 1_555
N54_15 C144_15 1_555 1_555
N55_15 C150_15 1_555 1_555
C152_15 N56_15 1_555 1_555
N56_15 Co7_3 1_555 1_555
S8_15 C152_15 1_555 1_555
Co11_4 N35_11 1_555 1_555
Co17_15 N55_15 1_555 1_555
N64_15 Co7_3 1_555 1_555
C5_15 N62_5 1_555 1_555
C7_15 N3_15 1_555 1_555
C11_15 N3_15 1_555 1_555
C13_15 N6_15 1_555 1_555
C14_15 N4_15 1_555 1_555
C14_15 N5_15 1_555 1_555
C19_15 N7_11 1_555 1_555
C99_11 N35_11 1_555 1_555
C104_11 N65_9 1_555 1_555
C106_11 N39_11 1_555 1_555
C107_11 N37_11 1_555 1_555
C107_11 N38_11 1_555 1_555
C111_11 N40_11 1_555 1_555
C112_11 N40_11 1_555 1_555
C133_15 N50_15 1_555 1_555
C137_15 N50_15 1_555 1_555
C139_15 N68_4 1_555 1_555
C143_15 N68_4 1_555 1_555
C145_15 N54_15 1_555 1_555
C146_15 N52_15 1_555 1_555
C146_15 N53_15 1_555 1_555
C151_15 N55_15 1_555 1_555
Co4_7 N27_7 1_555 1_555
C58_7 H37_7 1_555 1_555
C59_7 C58_7 1_555 1_555
H38_7 C59_7 1_555 1_555
C60_7 C59_7 1_555 1_555
H39_7 C60_7 1_555 1_555
C61_7 C60_7 1_555 1_555
C62_7 C61_7 1_555 1_555
H40_7 C62_7 1_555 1_555
C63_7 H41_7 1_555 1_555
C64_7 C63_7 1_555 1_555
C65_7 C64_7 1_555 1_555
H42_7 C65_7 1_555 1_555
C66_7 C65_7 1_555 1_555
H43_7 C66_7 1_555 1_555
C67_7 C66_7 1_555 1_555
H44_7 C67_7 1_555 1_555
C68_7 C64_7 1_555 1_555
C69_7 C71_7 1_555 1_555
C70_7 C61_7 1_555 1_555
C71_7 C72_7 1_555 1_555
C72_7 H45_7 1_555 1_555
C73_7 C72_7 1_555 1_555
H46_7 C73_7 1_555 1_555
C74_7 C73_7 1_555 1_555
H47_7 C74_7 1_555 1_555
C75_7 C71_7 1_555 1_555
H48_7 C75_7 1_555 1_555
N22_7 C58_7 1_555 1_555
N65 C63_7 1_555 1_555
N24_7 C68_7 1_555 1_555
N25_7 C69_7 1_555 1_555
N26_7 C68_7 1_555 1_555
N27_7 C74_7 1_555 1_555
N28_7 Co4_7 1_555 1_555
N57_7 Co4_7 1_555 1_555
Co11_9 N22_7 1_555 1_555
N69_7 Co4_7 1_555 1_555
C62_7 N22_7 1_555 1_555
C67_7 N65 1_555 1_555
C69_7 N26_7 1_555 1_555
C70_7 N24_7 1_555 1_555
C70_7 N25_7 1_555 1_555
C75_7 N27_7 1_555 1_555
Co2_8 N7_12 1_555 1_555
C1_16 H1_16 1_555 1_555
C2_16 C1_16 1_555 1_555
H2_16 C2_16 1_555 1_555
C3_16 C2_16 1_555 1_555
H3_16 C3_16 1_555 1_555
C4_16 C3_16 1_555 1_555
C5_16 C4_16 1_555 1_555
H4_16 C5_16 1_555 1_555
C7_16 H5_16 1_555 1_555
C8_16 C7_16 1_555 1_555
C9_16 C8_16 1_555 1_555
H6_16 C9_16 1_555 1_555
C10_16 C9_16 1_555 1_555
H7_16 C10_16 1_555 1_555
C11_16 C10_16 1_555 1_555
H8_16 C11_16 1_555 1_555
C12_16 C8_16 1_555 1_555
C13_16 C15_16 1_555 1_555
C14_16 C4_16 1_555 1_555
C15_16 C16_16 1_555 1_555
C16_16 H9_16 1_555 1_555
C17_16 C16_16 1_555 1_555
H10_16 C17_16 1_555 1_555
C18_16 C17_16 1_555 1_555
H11_16 C18_16 1_555 1_555
C19_16 C15_16 1_555 1_555
H12_16 C19_16 1_555 1_555
C20_12 N8_12 1_555 1_555
C21_16 H13_16 1_555 1_555
C22_16 C21_16 1_555 1_555
H14_16 C22_16 1_555 1_555
C23_16 C22_16 1_555 1_555
H15_16 C23_16 1_555 1_555
C24_16 C23_16 1_555 1_555
C25_16 C24_16 1_555 1_555
H16_16 C25_16 1_555 1_555
C26_16 C24_16 1_555 1_555
N62_7 C1_16 1_555 1_555
N3_16 Co7 1_555 1_555
N4_16 C12_16 1_555 1_555
N5_16 C13_16 1_555 1_555
N6_16 C12_16 1_555 1_555
N7_12 C18_16 1_555 1_555
N8_12 Co2_8 1_555 1_555
N9_12 Co2_8 1_555 1_555
N10_16 C26_16 1_555 1_555
S2_12 C20_12 1_555 1_555
C27_16 H17_16 1_555 1_555
C28_16 C27_16 1_555 1_555
H18_16 C28_16 1_555 1_555
C29_16 C28_16 1_555 1_555
H19_16 C29_16 1_555 1_555
C30_16 C29_16 1_555 1_555
C31_16 C30_16 1_555 1_555
H20_16 C31_16 1_555 1_555
C32_16 C30_16 1_555 1_555
N11_16 C27_16 1_555 1_555
N12_16 C26_16 1_555 1_555
C33_16 H21_16 1_555 1_555
C34_16 C33_16 1_555 1_555
H22_16 C34_16 1_555 1_555
C35_16 C34_16 1_555 1_555
H23_16 C35_16 1_555 1_555
C36_16 C35_16 1_555 1_555
C37_16 C36_16 1_555 1_555
H24_16 C37_16 1_555 1_555
C38_16 N10_16 1_555 1_555
N13_12 C33_16 1_555 1_555
N14_16 C32_16 1_555 1_555
Co3_8 N11_16 1_555 1_555
C39_16 H25_16 1_555 1_555
C40_16 C39_16 1_555 1_555
H26_16 C40_16 1_555 1_555
C41_16 C40_16 1_555 1_555
H27_16 C41_16 1_555 1_555
C42_16 C41_16 1_555 1_555
C43_16 C42_16 1_555 1_555
H28_16 C43_16 1_555 1_555
C44_16 H29_16 1_555 1_555
C45_16 C44_16 1_555 1_555
C46_16 C45_16 1_555 1_555
H30_16 C46_16 1_555 1_555
C47_16 C46_16 1_555 1_555
H31_16 C47_16 1_555 1_555
C48_16 C47_16 1_555 1_555
H32_16 C48_16 1_555 1_555
C49_16 C45_16 1_555 1_555
C50_16 C52_16 1_555 1_555
C51_16 C42_16 1_555 1_555
C52_16 C53_16 1_555 1_555
C53_16 H33_16 1_555 1_555
C54_16 C53_16 1_555 1_555
H34_16 C54_16 1_555 1_555
C55_16 C54_16 1_555 1_555
H35_16 C55_16 1_555 1_555
C56_16 C52_16 1_555 1_555
H36_16 C56_16 1_555 1_555
C57_16 N21_16 1_555 1_555
N15_16 C39_16 1_555 1_555
N16_16 C44_16 1_555 1_555
N17_16 C49_16 1_555 1_555
N18_16 C50_16 1_555 1_555
N19_16 C49_16 1_555 1_555
N20_16 Co3_8 1_555 1_555
N21_16 Co3_8 1_555 1_555
S3_16 C57_16 1_555 1_555
Co4_8 N27_8 1_555 1_555
C58_8 H37_8 1_555 1_555
C59_8 C58_8 1_555 1_555
H38_8 C59_8 1_555 1_555
C60_8 C59_8 1_555 1_555
H39_8 C60_8 1_555 1_555
C61_8 C60_8 1_555 1_555
C62_8 C61_8 1_555 1_555
H40_8 C62_8 1_555 1_555
C63_8 H41_8 1_555 1_555
C64_8 C63_8 1_555 1_555
C65_8 C64_8 1_555 1_555
H42_8 C65_8 1_555 1_555
C66_8 C65_8 1_555 1_555
H43_8 C66_8 1_555 1_555
C67_8 C66_8 1_555 1_555
H44_8 C67_8 1_555 1_555
C68_8 C64_8 1_555 1_555
C69_8 C71_8 1_555 1_555
C70_8 C61_8 1_555 1_555
C71_8 C72_8 1_555 1_555
C72_8 H45_8 1_555 1_555
C73_8 C72_8 1_555 1_555
H46_8 C73_8 1_555 1_555
C74_8 C73_8 1_555 1_555
H47_8 C74_8 1_555 1_555
C75_8 C71_8 1_555 1_555
H48_8 C75_8 1_555 1_555
C76_8 N28_8 1_555 1_555
C77_8 H49_8 1_555 1_555
C78_8 C77_8 1_555 1_555
H50_8 C78_8 1_555 1_555
C79_8 C78_8 1_555 1_555
H51_8 C79_8 1_555 1_555
C80_8 C79_8 1_555 1_555
C81_8 C80_8 1_555 1_555
H52_8 C81_8 1_555 1_555
C82_8 C80_8 1_555 1_555
N22_8 C58_8 1_555 1_555
N65_2 C63_8 1_555 1_555
N24_8 C68_8 1_555 1_555
N25_8 C69_8 1_555 1_555
N26_8 C68_8 1_555 1_555
N27_8 C74_8 1_555 1_555
N28_8 Co4_8 1_555 1_555
N29_8 Co4_8 1_555 1_555
N30_8 C82_8 1_555 1_555
S4_8 C76_8 1_555 1_555
C83_8 H53_8 1_555 1_555
C84_8 C83_8 1_555 1_555
H54_8 C84_8 1_555 1_555
C85_8 C84_8 1_555 1_555
H55_8 C85_8 1_555 1_555
C86_8 C85_8 1_555 1_555
C87_8 C86_8 1_555 1_555
H56_8 C87_8 1_555 1_555
C88_8 C86_8 1_555 1_555
N31_8 Co2_8 1_555 1_555
N32_8 C82_8 1_555 1_555
C89_8 H57_8 1_555 1_555
C90_8 C89_8 1_555 1_555
H58_8 C90_8 1_555 1_555
C91_8 C90_8 1_555 1_555
H59_8 C91_8 1_555 1_555
C92_8 C91_8 1_555 1_555
C93_8 C92_8 1_555 1_555
H60_8 C93_8 1_555 1_555
C94_8 N30_8 1_555 1_555
N33_8 C89_8 1_555 1_555
N34_8 C88_8 1_555 1_555
C95_12 H61_12 1_555 1_555
C96_12 C95_12 1_555 1_555
H62_12 C96_12 1_555 1_555
C97_12 C96_12 1_555 1_555
H63_12 C97_12 1_555 1_555
C98_12 C97_12 1_555 1_555
C99_12 C98_12 1_555 1_555
H64_12 C99_12 1_555 1_555
C100_12 H65_12 1_555 1_555
C101_12 C100_12 1_555 1_555
C102_12 C101_12 1_555 1_555
H66_12 C102_12 1_555 1_555
C103_12 C102_12 1_555 1_555
H67_12 C103_12 1_555 1_555
C104_12 C103_12 1_555 1_555
H68_12 C104_12 1_555 1_555
C105_12 C101_12 1_555 1_555
C106_12 C108_12 1_555 1_555
C107_12 C98_12 1_555 1_555
C108_12 C109_12 1_555 1_555
C109_12 H69_12 1_555 1_555
C110_12 C109_12 1_555 1_555
H70_12 C110_12 1_555 1_555
C111_12 C110_12 1_555 1_555
H71_12 C111_12 1_555 1_555
C112_12 C108_12 1_555 1_555
H72_12 C112_12 1_555 1_555
C113_12 N41_12 1_555 1_555
N35_12 C95_12 1_555 1_555
N65_12 C100_12 1_555 1_555
N37_12 C105_12 1_555 1_555
N38_12 C106_12 1_555 1_555
N39_12 C105_12 1_555 1_555
N40_12 Co2_8 1_555 1_555
N41_12 Co2_8 1_555 1_555
S5_12 C113_12 1_555 1_555
C115_16 C114_16 1_555 1_555
H74_16 C115_16 1_555 1_555
C116_16 C115_16 1_555 1_555
H75_16 C116_16 1_555 1_555
C117_16 C116_16 1_555 1_555
C118_16 C117_16 1_555 1_555
H76_16 C118_16 1_555 1_555
C119_16 H77_16 1_555 1_555
C120_16 C119_16 1_555 1_555
C121_16 C120_16 1_555 1_555
H78_16 C121_16 1_555 1_555
C122_16 C121_16 1_555 1_555
H79_16 C122_16 1_555 1_555
C123_16 C122_16 1_555 1_555
H80_16 C123_16 1_555 1_555
C124_16 C120_16 1_555 1_555
C125_16 C127_16 1_555 1_555
C126_16 C117_16 1_555 1_555
C127_16 C128_16 1_555 1_555
C128_16 H81_16 1_555 1_555
C129_16 C128_16 1_555 1_555
H82_16 C129_16 1_555 1_555
C130_16 C129_16 1_555 1_555
H83_16 C130_16 1_555 1_555
C131_16 C127_16 1_555 1_555
H84_16 C131_16 1_555 1_555
C132_16 N48_16 1_555 1_555
N42_16 C114_16 1_555 1_555
N43_16 C119_16 1_555 1_555
N44_16 C124_16 1_555 1_555
N45_16 C125_16 1_555 1_555
N46_16 C124_16 1_555 1_555
N47_16 Co3_8 1_555 1_555
N48_16 Co3_8 1_555 1_555
S6_16 C132_16 1_555 1_555
C152_16 N56_16 1_555 1_555
N56_16 Co7 1_555 1_555
S8_16 C152_16 1_555 1_555
C153_8 N57_8 1_555 1_555
N57_8 Co4_8 1_555 1_555
S9_8 C153_8 1_555 1_555
Co9_5 N16_16 1_555 1_555
Co10_4 N43_16 1_555 1_555
Co12_5 N15_16 1_555 1_555
Co11_5 N35_12 1_555 1_555
Co13_11 N42_16 1_555 1_555
Co11_6 N22_8 1_555 1_555
Co15_8 N33_8 1_555 1_555
N64_16 Co7 1_555 1_555
N69_8 Co4_8 1_555 1_555
N70_8 Co4_8 1_555 1_555
N71_8 Co3_8 1_555 1_555
C5_16 N62_7 1_555 1_555
C7_16 N3_16 1_555 1_555
C11_16 N3_16 1_555 1_555
C13_16 N6_16 1_555 1_555
C14_16 N4_16 1_555 1_555
C14_16 N5_16 1_555 1_555
C19_16 N7_12 1_555 1_555
C21_16 N9_12 1_555 1_555
C25_16 N9_12 1_555 1_555
C31_16 N11_16 1_555 1_555
C32_16 N12_16 1_555 1_555
C36_16 C38_16 1_555 1_555
C37_16 N13_12 1_555 1_555
C38_16 N14_16 1_555 1_555
C43_16 N15_16 1_555 1_555
C48_16 N16_16 1_555 1_555
C50_16 N19_16 1_555 1_555
C51_16 N17_16 1_555 1_555
C51_16 N18_16 1_555 1_555
C55_16 N20_16 1_555 1_555
C56_16 N20_16 1_555 1_555
C62_8 N22_8 1_555 1_555
C67_8 N65_2 1_555 1_555
C69_8 N26_8 1_555 1_555
C70_8 N24_8 1_555 1_555
C70_8 N25_8 1_555 1_555
C75_8 N27_8 1_555 1_555
C77_8 N29_8 1_555 1_555
C81_8 N29_8 1_555 1_555
C83_8 N31_8 1_555 1_555
C87_8 N31_8 1_555 1_555
C88_8 N32_8 1_555 1_555
C92_8 C94_8 1_555 1_555
C93_8 N33_8 1_555 1_555
C94_8 N34_8 1_555 1_555
C99_12 N35_12 1_555 1_555
C104_12 N65_12 1_555 1_555
C106_12 N39_12 1_555 1_555
C107_12 N37_12 1_555 1_555
C107_12 N38_12 1_555 1_555
C111_12 N40_12 1_555 1_555
C112_12 N40_12 1_555 1_555
C118_16 N42_16 1_555 1_555
C123_16 N43_16 1_555 1_555
C125_16 N46_16 1_555 1_555
C126_16 N44_16 1_555 1_555
C126_16 N45_16 1_555 1_555
C130_16 N47_16 1_555 1_555
C131_16 N47_16 1_555 1_555
Co7_2 N1_16 1_555 1_555
C6_16 N1_16 1_555 1_555
S1_16 C6_16 1_555 1_555
C134_16 C133_16 1_555 1_555
H86_16 C134_16 1_555 1_555
C135_16 C134_16 1_555 1_555
H87_16 C135_16 1_555 1_555
C136_16 C135_16 1_555 1_555
C137_16 C136_16 1_555 1_555
H88_16 C137_16 1_555 1_555
C139_16 H89_16 1_555 1_555
C140_16 C139_16 1_555 1_555
C141_16 C140_16 1_555 1_555
H90_16 C141_16 1_555 1_555
C142_16 C141_16 1_555 1_555
H91_16 C142_16 1_555 1_555
C143_16 C142_16 1_555 1_555
H92_16 C143_16 1_555 1_555
C144_16 C140_16 1_555 1_555
C145_16 C147_16 1_555 1_555
C146_16 C136_16 1_555 1_555
C147_16 C148_16 1_555 1_555
C148_16 H93_16 1_555 1_555
C149_16 C148_16 1_555 1_555
H94_16 C149_16 1_555 1_555
C150_16 C149_16 1_555 1_555
H95_16 C150_16 1_555 1_555
C151_16 C147_16 1_555 1_555
H96_16 C151_16 1_555 1_555
N50_16 Co7_2 1_555 1_555
N52_16 C144_16 1_555 1_555
N53_16 C145_16 1_555 1_555
N54_16 C144_16 1_555 1_555
N55_16 C150_16 1_555 1_555
Co17_16 N55_16 1_555 1_555
C133_16 N50_16 1_555 1_555
C137_16 N50_16 1_555 1_555
C139_16 N68_3 1_555 1_555
C143_16 N68_3 1_555 1_555
C145_16 N54_16 1_555 1_555
C146_16 N52_16 1_555 1_555
C146_16 N53_16 1_555 1_555
C151_16 N55_16 1_555 1_555
Co15_6 N7_13 1_555 1_555
C1_17 H1_17 1_555 1_555
C2_17 C1_17 1_555 1_555
H2_17 C2_17 1_555 1_555
C3_17 C2_17 1_555 1_555
H3_17 C3_17 1_555 1_555
C4_17 C3_17 1_555 1_555
C5_17 C4_17 1_555 1_555
H4_17 C5_17 1_555 1_555
C7_17 H5_17 1_555 1_555
C8_17 C7_17 1_555 1_555
C9_17 C8_17 1_555 1_555
H6_17 C9_17 1_555 1_555
C10_17 C9_17 1_555 1_555
H7_17 C10_17 1_555 1_555
C11_17 C10_17 1_555 1_555
H8_17 C11_17 1_555 1_555
C12_17 C8_17 1_555 1_555
C13_17 C15_17 1_555 1_555
C14_17 C4_17 1_555 1_555
C15_17 C16_17 1_555 1_555
C16_17 H9_17 1_555 1_555
C17_17 C16_17 1_555 1_555
H10_17 C17_17 1_555 1_555
C18_17 C17_17 1_555 1_555
H11_17 C18_17 1_555 1_555
C19_17 C15_17 1_555 1_555
H12_17 C19_17 1_555 1_555
C20_13 N8_13 1_555 1_555
C21_17 H13_17 1_555 1_555
C22_17 C21_17 1_555 1_555
H14_17 C22_17 1_555 1_555
C23_17 C22_17 1_555 1_555
H15_17 C23_17 1_555 1_555
C24_17 C23_17 1_555 1_555
C25_17 C24_17 1_555 1_555
H16_17 C25_17 1_555 1_555
C26_17 C24_17 1_555 1_555
N62_3 C1_17 1_555 1_555
N3_17 Co8_7 1_555 1_555
N4_17 C12_17 1_555 1_555
N5_17 C13_17 1_555 1_555
N6_17 C12_17 1_555 1_555
N7_13 C18_17 1_555 1_555
N8_13 Co15_6 1_555 1_555
N9_13 Co15_6 1_555 1_555
N10_17 C26_17 1_555 1_555
S2_13 C20_13 1_555 1_555
C27_17 H17_17 1_555 1_555
C28_17 C27_17 1_555 1_555
H18_17 C28_17 1_555 1_555
C29_17 C28_17 1_555 1_555
H19_17 C29_17 1_555 1_555
C30_17 C29_17 1_555 1_555
C31_17 C30_17 1_555 1_555
H20_17 C31_17 1_555 1_555
C32_17 C30_17 1_555 1_555
N11_17 C27_17 1_555 1_555
N12_17 C26_17 1_555 1_555
C33_17 H21_17 1_555 1_555
C34_17 C33_17 1_555 1_555
H22_17 C34_17 1_555 1_555
C35_17 C34_17 1_555 1_555
H23_17 C35_17 1_555 1_555
C36_17 C35_17 1_555 1_555
C37_17 C36_17 1_555 1_555
H24_17 C37_17 1_555 1_555
C38_17 N10_17 1_555 1_555
N13_13 C33_17 1_555 1_555
N14_17 C32_17 1_555 1_555
Co16_10 N11_17 1_555 1_555
C39_17 H25_17 1_555 1_555
C40_17 C39_17 1_555 1_555
H26_17 C40_17 1_555 1_555
C41_17 C40_17 1_555 1_555
H27_17 C41_17 1_555 1_555
C42_17 C41_17 1_555 1_555
C43_17 C42_17 1_555 1_555
H28_17 C43_17 1_555 1_555
C44_17 H29_17 1_555 1_555
C45_17 C44_17 1_555 1_555
C46_17 C45_17 1_555 1_555
H30_17 C46_17 1_555 1_555
C47_17 C46_17 1_555 1_555
H31_17 C47_17 1_555 1_555
C48_17 C47_17 1_555 1_555
H32_17 C48_17 1_555 1_555
C49_17 C45_17 1_555 1_555
C50_17 C52_17 1_555 1_555
C51_17 C42_17 1_555 1_555
C52_17 C53_17 1_555 1_555
C53_17 H33_17 1_555 1_555
C54_17 C53_17 1_555 1_555
H34_17 C54_17 1_555 1_555
C55_17 C54_17 1_555 1_555
H35_17 C55_17 1_555 1_555
C56_17 C52_17 1_555 1_555
H36_17 C56_17 1_555 1_555
C57_17 N21_17 1_555 1_555
N15_17 C39_17 1_555 1_555
N16_17 C44_17 1_555 1_555
N17_17 C49_17 1_555 1_555
N18_17 C50_17 1_555 1_555
N19_17 C49_17 1_555 1_555
N20_17 Co16_10 1_555 1_555
N21_17 Co16_10 1_555 1_555
S3_17 C57_17 1_555 1_555
C95_13 H61_13 1_555 1_555
C96_13 C95_13 1_555 1_555
H62_13 C96_13 1_555 1_555
C97_13 C96_13 1_555 1_555
H63_13 C97_13 1_555 1_555
C98_13 C97_13 1_555 1_555
C99_13 C98_13 1_555 1_555
H64_13 C99_13 1_555 1_555
C100_13 H65_13 1_555 1_555
C101_13 C100_13 1_555 1_555
C102_13 C101_13 1_555 1_555
H66_13 C102_13 1_555 1_555
C103_13 C102_13 1_555 1_555
H67_13 C103_13 1_555 1_555
C104_13 C103_13 1_555 1_555
H68_13 C104_13 1_555 1_555
C105_13 C101_13 1_555 1_555
C106_13 C108_13 1_555 1_555
C107_13 C98_13 1_555 1_555
C108_13 C109_13 1_555 1_555
C109_13 H69_13 1_555 1_555
C110_13 C109_13 1_555 1_555
H70_13 C110_13 1_555 1_555
C111_13 C110_13 1_555 1_555
H71_13 C111_13 1_555 1_555
C112_13 C108_13 1_555 1_555
H72_13 C112_13 1_555 1_555
C113_13 N41_13 1_555 1_555
N35_13 C95_13 1_555 1_555
N65_8 C100_13 1_555 1_555
N37_13 C105_13 1_555 1_555
N38_13 C106_13 1_555 1_555
N39_13 C105_13 1_555 1_555
N40_13 Co15_6 1_555 1_555
N41_13 Co15_6 1_555 1_555
S5_13 C113_13 1_555 1_555
C115_17 C114_17 1_555 1_555
H74_17 C115_17 1_555 1_555
C116_17 C115_17 1_555 1_555
H75_17 C116_17 1_555 1_555
C117_17 C116_17 1_555 1_555
C118_17 C117_17 1_555 1_555
H76_17 C118_17 1_555 1_555
C119_17 H77_17 1_555 1_555
C120_17 C119_17 1_555 1_555
C121_17 C120_17 1_555 1_555
H78_17 C121_17 1_555 1_555
C122_17 C121_17 1_555 1_555
H79_17 C122_17 1_555 1_555
C123_17 C122_17 1_555 1_555
H80_17 C123_17 1_555 1_555
C124_17 C120_17 1_555 1_555
C125_17 C127_17 1_555 1_555
C126_17 C117_17 1_555 1_555
C127_17 C128_17 1_555 1_555
C128_17 H81_17 1_555 1_555
C129_17 C128_17 1_555 1_555
H82_17 C129_17 1_555 1_555
C130_17 C129_17 1_555 1_555
H83_17 C130_17 1_555 1_555
C131_17 C127_17 1_555 1_555
H84_17 C131_17 1_555 1_555
C132_17 N48_17 1_555 1_555
N42_17 C114_17 1_555 1_555
N43_17 C119_17 1_555 1_555
N44_17 C124_17 1_555 1_555
N45_17 C125_17 1_555 1_555
N46_17 C124_17 1_555 1_555
N47_17 Co16_10 1_555 1_555
N48_17 Co16_10 1_555 1_555
S6_17 C132_17 1_555 1_555
C152_17 N56_17 1_555 1_555
N56_17 Co8_7 1_555 1_555
S8_17 C152_17 1_555 1_555
Co9_15 N16_17 1_555 1_555
Co10_14 N43_17 1_555 1_555
Co14_5 N15_17 1_555 1_555
Co11_15 N35_13 1_555 1_555
Co13_6 N42_17 1_555 1_555
N64_17 Co8_7 1_555 1_555
C5_17 N62_3 1_555 1_555
C7_17 N3_17 1_555 1_555
C11_17 N3_17 1_555 1_555
C13_17 N6_17 1_555 1_555
C14_17 N4_17 1_555 1_555
C14_17 N5_17 1_555 1_555
C19_17 N7_13 1_555 1_555
C21_17 N9_13 1_555 1_555
C25_17 N9_13 1_555 1_555
C31_17 N11_17 1_555 1_555
C32_17 N12_17 1_555 1_555
C36_17 C38_17 1_555 1_555
C37_17 N13_13 1_555 1_555
C38_17 N14_17 1_555 1_555
C43_17 N15_17 1_555 1_555
C48_17 N16_17 1_555 1_555
C50_17 N19_17 1_555 1_555
C51_17 N17_17 1_555 1_555
C51_17 N18_17 1_555 1_555
C55_17 N20_17 1_555 1_555
C56_17 N20_17 1_555 1_555
C99_13 N35_13 1_555 1_555
C104_13 N65_8 1_555 1_555
C106_13 N39_13 1_555 1_555
C107_13 N37_13 1_555 1_555
C107_13 N38_13 1_555 1_555
C111_13 N40_13 1_555 1_555
C112_13 N40_13 1_555 1_555
C118_17 N42_17 1_555 1_555
C123_17 N43_17 1_555 1_555
C125_17 N46_17 1_555 1_555
C126_17 N44_17 1_555 1_555
C126_17 N45_17 1_555 1_555
C130_17 N47_17 1_555 1_555
C131_17 N47_17 1_555 1_555
Co8_8 N1_17 1_555 1_555
C6_17 N1_17 1_555 1_555
S1_17 C6_17 1_555 1_555
C134_17 C133_17 1_555 1_555
H86_17 C134_17 1_555 1_555
C135_17 C134_17 1_555 1_555
H87_17 C135_17 1_555 1_555
C136_17 C135_17 1_555 1_555
C137_17 C136_17 1_555 1_555
H88_17 C137_17 1_555 1_555
C139_17 H89_17 1_555 1_555
C140_17 C139_17 1_555 1_555
C141_17 C140_17 1_555 1_555
H90_17 C141_17 1_555 1_555
C142_17 C141_17 1_555 1_555
H91_17 C142_17 1_555 1_555
C143_17 C142_17 1_555 1_555
H92_17 C143_17 1_555 1_555
C144_17 C140_17 1_555 1_555
C145_17 C147_17 1_555 1_555
C146_17 C136_17 1_555 1_555
C147_17 C148_17 1_555 1_555
C148_17 H93_17 1_555 1_555
C149_17 C148_17 1_555 1_555
H94_17 C149_17 1_555 1_555
C150_17 C149_17 1_555 1_555
H95_17 C150_17 1_555 1_555
C151_17 C147_17 1_555 1_555
H96_17 C151_17 1_555 1_555
N50_17 Co8_8 1_555 1_555
N52_17 C144_17 1_555 1_555
N53_17 C145_17 1_555 1_555
N54_17 C144_17 1_555 1_555
N55_17 C150_17 1_555 1_555
Co17_17 N55_17 1_555 1_555
C133_17 N50_17 1_555 1_555
C137_17 N50_17 1_555 1_555
C139_17 N67_6 1_555 1_555
C143_17 N67_6 1_555 1_555
C145_17 N54_17 1_555 1_555
C146_17 N52_17 1_555 1_555
C146_17 N53_17 1_555 1_555
C151_17 N55_17 1_555 1_555
C21_18 H13_18 1_555 1_555
C22_18 C21_18 1_555 1_555
H14_18 C22_18 1_555 1_555
C23_18 C22_18 1_555 1_555
H15_18 C23_18 1_555 1_555
C24_18 C23_18 1_555 1_555
C25_18 C24_18 1_555 1_555
H16_18 C25_18 1_555 1_555
C26_18 C24_18 1_555 1_555
N10_18 C26_18 1_555 1_555
S2_14 C20_14 1_555 1_555
C27_18 H17_18 1_555 1_555
C28_18 C27_18 1_555 1_555
H18_18 C28_18 1_555 1_555
C29_18 C28_18 1_555 1_555
H19_18 C29_18 1_555 1_555
C30_18 C29_18 1_555 1_555
C31_18 C30_18 1_555 1_555
H20_18 C31_18 1_555 1_555
C32_18 C30_18 1_555 1_555
N11_18 C27_18 1_555 1_555
N12_18 C26_18 1_555 1_555
C33_18 H21_18 1_555 1_555
C34_18 C33_18 1_555 1_555
H22_18 C34_18 1_555 1_555
C35_18 C34_18 1_555 1_555
H23_18 C35_18 1_555 1_555
C36_18 C35_18 1_555 1_555
C37_18 C36_18 1_555 1_555
H24_18 C37_18 1_555 1_555
C38_18 N10_18 1_555 1_555
N13_14 C33_18 1_555 1_555
N14_18 C32_18 1_555 1_555
Co16_11 N11_18 1_555 1_555
C40_18 C39_18 1_555 1_555
H26_18 C40_18 1_555 1_555
C41_18 C40_18 1_555 1_555
H27_18 C41_18 1_555 1_555
C42_18 C41_18 1_555 1_555
C43_18 C42_18 1_555 1_555
H28_18 C43_18 1_555 1_555
C44_18 H29_18 1_555 1_555
C45_18 C44_18 1_555 1_555
C46_18 C45_18 1_555 1_555
H30_18 C46_18 1_555 1_555
C47_18 C46_18 1_555 1_555
H31_18 C47_18 1_555 1_555
C48_18 C47_18 1_555 1_555
H32_18 C48_18 1_555 1_555
C49_18 C45_18 1_555 1_555
C50_18 C52_18 1_555 1_555
C51_18 C42_18 1_555 1_555
C52_18 C53_18 1_555 1_555
C53_18 H33_18 1_555 1_555
C54_18 C53_18 1_555 1_555
H34_18 C54_18 1_555 1_555
C55_18 C54_18 1_555 1_555
H35_18 C55_18 1_555 1_555
C56_18 C52_18 1_555 1_555
H36_18 C56_18 1_555 1_555
C57_18 N21_18 1_555 1_555
N15_18 C39_18 1_555 1_555
N16_18 C44_18 1_555 1_555
N17_18 C49_18 1_555 1_555
N18_18 C50_18 1_555 1_555
N19_18 C49_18 1_555 1_555
N20_18 Co16_11 1_555 1_555
N21_18 Co16_11 1_555 1_555
S3_18 C57_18 1_555 1_555
S5_14 C113_14 1_555 1_555
C114_18 H73_18 1_555 1_555
C115_18 C114_18 1_555 1_555
H74_18 C115_18 1_555 1_555
C116_18 C115_18 1_555 1_555
H75_18 C116_18 1_555 1_555
C117_18 C116_18 1_555 1_555
C118_18 C117_18 1_555 1_555
H76_18 C118_18 1_555 1_555
C119_18 H77_18 1_555 1_555
C120_18 C119_18 1_555 1_555
C121_18 C120_18 1_555 1_555
H78_18 C121_18 1_555 1_555
C122_18 C121_18 1_555 1_555
H79_18 C122_18 1_555 1_555
C123_18 C122_18 1_555 1_555
H80_18 C123_18 1_555 1_555
C124_18 C120_18 1_555 1_555
C125_18 C127_18 1_555 1_555
C126_18 C117_18 1_555 1_555
C127_18 C128_18 1_555 1_555
C128_18 H81_18 1_555 1_555
C129_18 C128_18 1_555 1_555
H82_18 C129_18 1_555 1_555
C130_18 C129_18 1_555 1_555
H83_18 C130_18 1_555 1_555
C131_18 C127_18 1_555 1_555
H84_18 C131_18 1_555 1_555
C132_18 N48_18 1_555 1_555
N42_18 C114_18 1_555 1_555
N43_18 C119_18 1_555 1_555
N44_18 C124_18 1_555 1_555
N45_18 C125_18 1_555 1_555
N46_18 C124_18 1_555 1_555
N47_18 Co16_11 1_555 1_555
N48_18 Co16_11 1_555 1_555
S6_18 C132_18 1_555 1_555
Co9_13 N16_18 1_555 1_555
Co10_15 N43_18 1_555 1_555
Co14_2 N15_18 1_555 1_555
Co13_10 N42_18 1_555 1_555
Co16_14 N13_14 1_555 1_555
C21_18 N9_14 1_555 1_555
C25_18 N9_14 1_555 1_555
C31_18 N11_18 1_555 1_555
C32_18 N12_18 1_555 1_555
C36_18 C38_18 1_555 1_555
C37_18 N13_14 1_555 1_555
C38_18 N14_18 1_555 1_555
C43_18 N15_18 1_555 1_555
C48_18 N16_18 1_555 1_555
C50_18 N19_18 1_555 1_555
C51_18 N17_18 1_555 1_555
C51_18 N18_18 1_555 1_555
C55_18 N20_18 1_555 1_555
C56_18 N20_18 1_555 1_555
C118_18 N42_18 1_555 1_555
C123_18 N43_18 1_555 1_555
C125_18 N46_18 1_555 1_555
C126_18 N44_18 1_555 1_555
C126_18 N45_18 1_555 1_555
C130_18 N47_18 1_555 1_555
C131_18 N47_18 1_555 1_555
Co8_9 N1_18 1_555 1_555
Co15_7 N7_14 1_555 1_555
C2_18 C1_18 1_555 1_555
H2_18 C2_18 1_555 1_555
C3_18 C2_18 1_555 1_555
H3_18 C3_18 1_555 1_555
C4_18 C3_18 1_555 1_555
C5_18 C4_18 1_555 1_555
H4_18 C5_18 1_555 1_555
C6_18 N1_18 1_555 1_555
C7_18 H5_18 1_555 1_555
C8_18 C7_18 1_555 1_555
C9_18 C8_18 1_555 1_555
H6_18 C9_18 1_555 1_555
C10_18 C9_18 1_555 1_555
H7_18 C10_18 1_555 1_555
C11_18 C10_18 1_555 1_555
H8_18 C11_18 1_555 1_555
C12_18 C8_18 1_555 1_555
C13_18 C15_18 1_555 1_555
C14_18 C4_18 1_555 1_555
C15_18 C16_18 1_555 1_555
C16_18 H9_18 1_555 1_555
C17_18 C16_18 1_555 1_555
H10_18 C17_18 1_555 1_555
C18_18 C17_18 1_555 1_555
H11_18 C18_18 1_555 1_555
C19_18 C15_18 1_555 1_555
H12_18 C19_18 1_555 1_555
N62 C1_18 1_555 1_555
N3_18 Co8_9 1_555 1_555
N4_18 C12_18 1_555 1_555
N5_18 C13_18 1_555 1_555
N6_18 C12_18 1_555 1_555
N7_14 C18_18 1_555 1_555
N8_14 Co15_7 1_555 1_555
S1_18 C6_18 1_555 1_555
C95_14 H61_14 1_555 1_555
C96_14 C95_14 1_555 1_555
H62_14 C96_14 1_555 1_555
C97_14 C96_14 1_555 1_555
H63_14 C97_14 1_555 1_555
C98_14 C97_14 1_555 1_555
C99_14 C98_14 1_555 1_555
H64_14 C99_14 1_555 1_555
C100_14 H65_14 1_555 1_555
C101_14 C100_14 1_555 1_555
C102_14 C101_14 1_555 1_555
H66_14 C102_14 1_555 1_555
C103_14 C102_14 1_555 1_555
H67_14 C103_14 1_555 1_555
C104_14 C103_14 1_555 1_555
H68_14 C104_14 1_555 1_555
C105_14 C101_14 1_555 1_555
C106_14 C108_14 1_555 1_555
C107_14 C98_14 1_555 1_555
C108_14 C109_14 1_555 1_555
C109_14 H69_14 1_555 1_555
C110_14 C109_14 1_555 1_555
H70_14 C110_14 1_555 1_555
C111_14 C110_14 1_555 1_555
H71_14 C111_14 1_555 1_555
C112_14 C108_14 1_555 1_555
H72_14 C112_14 1_555 1_555
N35_14 C95_14 1_555 1_555
N65_5 C100_14 1_555 1_555
N37_14 C105_14 1_555 1_555
N38_14 C106_14 1_555 1_555
N39_14 C105_14 1_555 1_555
N40_14 Co15_7 1_555 1_555
N41_14 Co15_7 1_555 1_555
C133_18 H85_18 1_555 1_555
C134_18 C133_18 1_555 1_555
H86_18 C134_18 1_555 1_555
C135_18 C134_18 1_555 1_555
H87_18 C135_18 1_555 1_555
C136_18 C135_18 1_555 1_555
C137_18 C136_18 1_555 1_555
H88_18 C137_18 1_555 1_555
C139_18 H89_18 1_555 1_555
C140_18 C139_18 1_555 1_555
C141_18 C140_18 1_555 1_555
H90_18 C141_18 1_555 1_555
C142_18 C141_18 1_555 1_555
H91_18 C142_18 1_555 1_555
C143_18 C142_18 1_555 1_555
H92_18 C143_18 1_555 1_555
C144_18 C140_18 1_555 1_555
C145_18 C147_18 1_555 1_555
C146_18 C136_18 1_555 1_555
C147_18 C148_18 1_555 1_555
C148_18 H93_18 1_555 1_555
C149_18 C148_18 1_555 1_555
H94_18 C149_18 1_555 1_555
C150_18 C149_18 1_555 1_555
H95_18 C150_18 1_555 1_555
C151_18 C147_18 1_555 1_555
H96_18 C151_18 1_555 1_555
N50_18 Co8_9 1_555 1_555
N52_18 C144_18 1_555 1_555
N53_18 C145_18 1_555 1_555
N54_18 C144_18 1_555 1_555
N55_18 C150_18 1_555 1_555
C152_18 N56_18 1_555 1_555
N56_18 Co8_9 1_555 1_555
S8_18 C152_18 1_555 1_555
Co11_14 N35_14 1_555 1_555
Co17_18 N55_18 1_555 1_555
N64_18 Co8_9 1_555 1_555
C5_18 N62 1_555 1_555
C7_18 N3_18 1_555 1_555
C11_18 N3_18 1_555 1_555
C13_18 N6_18 1_555 1_555
C14_18 N4_18 1_555 1_555
C14_18 N5_18 1_555 1_555
C19_18 N7_14 1_555 1_555
C99_14 N35_14 1_555 1_555
C104_14 N65_5 1_555 1_555
C106_14 N39_14 1_555 1_555
C107_14 N37_14 1_555 1_555
C107_14 N38_14 1_555 1_555
C111_14 N40_14 1_555 1_555
C112_14 N40_14 1_555 1_555
C133_18 N50_18 1_555 1_555
C137_18 N50_18 1_555 1_555
C139_18 N67_7 1_555 1_555
C143_18 N67_7 1_555 1_555
C145_18 N54_18 1_555 1_555
C146_18 N52_18 1_555 1_555
C146_18 N53_18 1_555 1_555
C151_18 N55_18 1_555 1_555
Co8_10 N1_19 1_555 1_555
Co15_5 N7_15 1_555 1_555
C1_19 H1_19 1_555 1_555
C2_19 C1_19 1_555 1_555
H2_19 C2_19 1_555 1_555
C3_19 C2_19 1_555 1_555
H3_19 C3_19 1_555 1_555
C4_19 C3_19 1_555 1_555
C5_19 C4_19 1_555 1_555
H4_19 C5_19 1_555 1_555
C6_19 N1_19 1_555 1_555
C7_19 H5_19 1_555 1_555
C8_19 C7_19 1_555 1_555
C9_19 C8_19 1_555 1_555
H6_19 C9_19 1_555 1_555
C10_19 C9_19 1_555 1_555
H7_19 C10_19 1_555 1_555
C11_19 C10_19 1_555 1_555
H8_19 C11_19 1_555 1_555
C12_19 C8_19 1_555 1_555
C13_19 C15_19 1_555 1_555
C14_19 C4_19 1_555 1_555
C15_19 C16_19 1_555 1_555
C16_19 H9_19 1_555 1_555
C17_19 C16_19 1_555 1_555
H10_19 C17_19 1_555 1_555
C18_19 C17_19 1_555 1_555
H11_19 C18_19 1_555 1_555
C19_19 C15_19 1_555 1_555
H12_19 C19_19 1_555 1_555
C20_15 N8_15 1_555 1_555
C21_19 H13_19 1_555 1_555
C22_19 C21_19 1_555 1_555
H14_19 C22_19 1_555 1_555
C23_19 C22_19 1_555 1_555
H15_19 C23_19 1_555 1_555
C24_19 C23_19 1_555 1_555
C25_19 C24_19 1_555 1_555
H16_19 C25_19 1_555 1_555
C26_19 C24_19 1_555 1_555
N62_4 C1_19 1_555 1_555
N3_19 Co8_10 1_555 1_555
N4_19 C12_19 1_555 1_555
N5_19 C13_19 1_555 1_555
N6_19 C12_19 1_555 1_555
N7_15 C18_19 1_555 1_555
N8_15 Co15_5 1_555 1_555
N9_15 Co15_5 1_555 1_555
N10_19 C26_19 1_555 1_555
S1_19 C6_19 1_555 1_555
S2_15 C20_15 1_555 1_555
C27_19 H17_19 1_555 1_555
C28_19 C27_19 1_555 1_555
H18_19 C28_19 1_555 1_555
C29_19 C28_19 1_555 1_555
H19_19 C29_19 1_555 1_555
C30_19 C29_19 1_555 1_555
C31_19 C30_19 1_555 1_555
H20_19 C31_19 1_555 1_555
C32_19 C30_19 1_555 1_555
N11_19 C27_19 1_555 1_555
N12_19 C26_19 1_555 1_555
C33_19 H21_19 1_555 1_555
C34_19 C33_19 1_555 1_555
H22_19 C34_19 1_555 1_555
C35_19 C34_19 1_555 1_555
H23_19 C35_19 1_555 1_555
C36_19 C35_19 1_555 1_555
C37_19 C36_19 1_555 1_555
H24_19 C37_19 1_555 1_555
C38_19 N10_19 1_555 1_555
N13_15 C33_19 1_555 1_555
N14_19 C32_19 1_555 1_555
Co16_9 N11_19 1_555 1_555
C39_19 H25_19 1_555 1_555
C40_19 C39_19 1_555 1_555
H26_19 C40_19 1_555 1_555
C41_19 C40_19 1_555 1_555
H27_19 C41_19 1_555 1_555
C42_19 C41_19 1_555 1_555
C43_19 C42_19 1_555 1_555
H28_19 C43_19 1_555 1_555
C44_19 H29_19 1_555 1_555
C45_19 C44_19 1_555 1_555
C46_19 C45_19 1_555 1_555
H30_19 C46_19 1_555 1_555
C47_19 C46_19 1_555 1_555
H31_19 C47_19 1_555 1_555
C48_19 C47_19 1_555 1_555
H32_19 C48_19 1_555 1_555
C49_19 C45_19 1_555 1_555
C50_19 C52_19 1_555 1_555
C51_19 C42_19 1_555 1_555
C52_19 C53_19 1_555 1_555
C53_19 H33_19 1_555 1_555
C54_19 C53_19 1_555 1_555
H34_19 C54_19 1_555 1_555
C55_19 C54_19 1_555 1_555
H35_19 C55_19 1_555 1_555
C56_19 C52_19 1_555 1_555
H36_19 C56_19 1_555 1_555
C57_19 N21_19 1_555 1_555
N15_19 C39_19 1_555 1_555
N16_19 C44_19 1_555 1_555
N17_19 C49_19 1_555 1_555
N18_19 C50_19 1_555 1_555
N19_19 C49_19 1_555 1_555
N20_19 Co16_9 1_555 1_555
N21_19 Co16_9 1_555 1_555
S3_19 C57_19 1_555 1_555
C95_15 H61_15 1_555 1_555
C96_15 C95_15 1_555 1_555
H62_15 C96_15 1_555 1_555
C97_15 C96_15 1_555 1_555
H63_15 C97_15 1_555 1_555
C98_15 C97_15 1_555 1_555
C99_15 C98_15 1_555 1_555
H64_15 C99_15 1_555 1_555
C100_15 H65_15 1_555 1_555
C101_15 C100_15 1_555 1_555
C102_15 C101_15 1_555 1_555
H66_15 C102_15 1_555 1_555
C103_15 C102_15 1_555 1_555
H67_15 C103_15 1_555 1_555
C104_15 C103_15 1_555 1_555
H68_15 C104_15 1_555 1_555
C105_15 C101_15 1_555 1_555
C106_15 C108_15 1_555 1_555
C107_15 C98_15 1_555 1_555
C108_15 C109_15 1_555 1_555
C109_15 H69_15 1_555 1_555
C110_15 C109_15 1_555 1_555
H70_15 C110_15 1_555 1_555
C111_15 C110_15 1_555 1_555
H71_15 C111_15 1_555 1_555
C112_15 C108_15 1_555 1_555
H72_15 C112_15 1_555 1_555
C113_15 N41_15 1_555 1_555
N35_15 C95_15 1_555 1_555
N65_6 C100_15 1_555 1_555
N37_15 C105_15 1_555 1_555
N38_15 C106_15 1_555 1_555
N39_15 C105_15 1_555 1_555
N40_15 Co15_5 1_555 1_555
N41_15 Co15_5 1_555 1_555
S5_15 C113_15 1_555 1_555
C114_19 H73_19 1_555 1_555
C115_19 C114_19 1_555 1_555
H74_19 C115_19 1_555 1_555
C116_19 C115_19 1_555 1_555
H75_19 C116_19 1_555 1_555
C117_19 C116_19 1_555 1_555
C118_19 C117_19 1_555 1_555
H76_19 C118_19 1_555 1_555
C119_19 H77_19 1_555 1_555
C120_19 C119_19 1_555 1_555
C121_19 C120_19 1_555 1_555
H78_19 C121_19 1_555 1_555
C122_19 C121_19 1_555 1_555
H79_19 C122_19 1_555 1_555
C123_19 C122_19 1_555 1_555
H80_19 C123_19 1_555 1_555
C124_19 C120_19 1_555 1_555
C125_19 C127_19 1_555 1_555
C126_19 C117_19 1_555 1_555
C127_19 C128_19 1_555 1_555
C128_19 H81_19 1_555 1_555
C129_19 C128_19 1_555 1_555
H82_19 C129_19 1_555 1_555
C130_19 C129_19 1_555 1_555
H83_19 C130_19 1_555 1_555
C131_19 C127_19 1_555 1_555
H84_19 C131_19 1_555 1_555
C132_19 N48_19 1_555 1_555
N42_19 C114_19 1_555 1_555
N43_19 C119_19 1_555 1_555
N44_19 C124_19 1_555 1_555
N45_19 C125_19 1_555 1_555
N46_19 C124_19 1_555 1_555
N47_19 Co16_9 1_555 1_555
N48_19 Co16_9 1_555 1_555
S6_19 C132_19 1_555 1_555
C133_19 H85_19 1_555 1_555
C134_19 C133_19 1_555 1_555
H86_19 C134_19 1_555 1_555
C135_19 C134_19 1_555 1_555
H87_19 C135_19 1_555 1_555
C136_19 C135_19 1_555 1_555
C137_19 C136_19 1_555 1_555
H88_19 C137_19 1_555 1_555
C139_19 H89_19 1_555 1_555
C140_19 C139_19 1_555 1_555
C141_19 C140_19 1_555 1_555
H90_19 C141_19 1_555 1_555
C142_19 C141_19 1_555 1_555
H91_19 C142_19 1_555 1_555
C143_19 C142_19 1_555 1_555
H92_19 C143_19 1_555 1_555
C144_19 C140_19 1_555 1_555
C145_19 C147_19 1_555 1_555
C146_19 C136_19 1_555 1_555
C147_19 C148_19 1_555 1_555
C148_19 H93_19 1_555 1_555
C149_19 C148_19 1_555 1_555
H94_19 C149_19 1_555 1_555
C150_19 C149_19 1_555 1_555
H95_19 C150_19 1_555 1_555
C151_19 C147_19 1_555 1_555
H96_19 C151_19 1_555 1_555
N50_19 Co8_10 1_555 1_555
N52_19 C144_19 1_555 1_555
N53_19 C145_19 1_555 1_555
N54_19 C144_19 1_555 1_555
N55_19 C150_19 1_555 1_555
C152_19 N56_19 1_555 1_555
N56_19 Co8_10 1_555 1_555
S8_19 C152_19 1_555 1_555
Co9_11 N16_19 1_555 1_555
Co10_12 N43_19 1_555 1_555
Co14_4 N15_19 1_555 1_555
Co11_11 N35_15 1_555 1_555
Co13_9 N42_19 1_555 1_555
Co16_15 N13_15 1_555 1_555
Co17_19 N55_19 1_555 1_555
N64_19 Co8_10 1_555 1_555
C5_19 N62_4 1_555 1_555
C7_19 N3_19 1_555 1_555
C11_19 N3_19 1_555 1_555
C13_19 N6_19 1_555 1_555
C14_19 N4_19 1_555 1_555
C14_19 N5_19 1_555 1_555
C19_19 N7_15 1_555 1_555
C21_19 N9_15 1_555 1_555
C25_19 N9_15 1_555 1_555
C31_19 N11_19 1_555 1_555
C32_19 N12_19 1_555 1_555
C36_19 C38_19 1_555 1_555
C37_19 N13_15 1_555 1_555
C38_19 N14_19 1_555 1_555
C43_19 N15_19 1_555 1_555
C48_19 N16_19 1_555 1_555
C50_19 N19_19 1_555 1_555
C51_19 N17_19 1_555 1_555
C51_19 N18_19 1_555 1_555
C55_19 N20_19 1_555 1_555
C56_19 N20_19 1_555 1_555
C99_15 N35_15 1_555 1_555
C104_15 N65_6 1_555 1_555
C106_15 N39_15 1_555 1_555
C107_15 N37_15 1_555 1_555
C107_15 N38_15 1_555 1_555
C111_15 N40_15 1_555 1_555
C112_15 N40_15 1_555 1_555
C118_19 N42_19 1_555 1_555
C123_19 N43_19 1_555 1_555
C125_19 N46_19 1_555 1_555
C126_19 N44_19 1_555 1_555
C126_19 N45_19 1_555 1_555
C130_19 N47_19 1_555 1_555
C131_19 N47_19 1_555 1_555
C133_19 N50_19 1_555 1_555
C137_19 N50_19 1_555 1_555
C139_19 N67_8 1_555 1_555
C143_19 N67_8 1_555 1_555
C145_19 N54_19 1_555 1_555
C146_19 N52_19 1_555 1_555
C146_19 N53_19 1_555 1_555
C151_19 N55_19 1_555 1_555
Co8_6 N1_20 1_555 1_555
Co15_8 N7_16 1_555 1_555
C1_20 H1_20 1_555 1_555
C2_20 C1_20 1_555 1_555
H2_20 C2_20 1_555 1_555
C3_20 C2_20 1_555 1_555
H3_20 C3_20 1_555 1_555
C4_20 C3_20 1_555 1_555
C5_20 C4_20 1_555 1_555
H4_20 C5_20 1_555 1_555
C6_20 N1_20 1_555 1_555
C7_20 H5_20 1_555 1_555
C8_20 C7_20 1_555 1_555
C9_20 C8_20 1_555 1_555
H6_20 C9_20 1_555 1_555
C10_20 C9_20 1_555 1_555
H7_20 C10_20 1_555 1_555
C11_20 C10_20 1_555 1_555
H8_20 C11_20 1_555 1_555
C12_20 C8_20 1_555 1_555
C13_20 C15_20 1_555 1_555
C14_20 C4_20 1_555 1_555
C15_20 C16_20 1_555 1_555
C16_20 H9_20 1_555 1_555
C17_20 C16_20 1_555 1_555
H10_20 C17_20 1_555 1_555
C18_20 C17_20 1_555 1_555
H11_20 C18_20 1_555 1_555
C19_20 C15_20 1_555 1_555
H12_20 C19_20 1_555 1_555
C20_16 N8_16 1_555 1_555
C21_20 H13_20 1_555 1_555
C22_20 C21_20 1_555 1_555
H14_20 C22_20 1_555 1_555
C23_20 C22_20 1_555 1_555
H15_20 C23_20 1_555 1_555
C24_20 C23_20 1_555 1_555
C25_20 C24_20 1_555 1_555
H16_20 C25_20 1_555 1_555
C26_20 C24_20 1_555 1_555
N62_2 C1_20 1_555 1_555
N3_20 Co8_6 1_555 1_555
N4_20 C12_20 1_555 1_555
N5_20 C13_20 1_555 1_555
N6_20 C12_20 1_555 1_555
N7_16 C18_20 1_555 1_555
N8_16 Co15_8 1_555 1_555
N9_16 Co15_8 1_555 1_555
N10_20 C26_20 1_555 1_555
S1_20 C6_20 1_555 1_555
S2_16 C20_16 1_555 1_555
C27_20 H17_20 1_555 1_555
C28_20 C27_20 1_555 1_555
H18_20 C28_20 1_555 1_555
C29_20 C28_20 1_555 1_555
H19_20 C29_20 1_555 1_555
C30_20 C29_20 1_555 1_555
C31_20 C30_20 1_555 1_555
H20_20 C31_20 1_555 1_555
C32_20 C30_20 1_555 1_555
N11_20 C27_20 1_555 1_555
N12_20 C26_20 1_555 1_555
C33_20 H21_20 1_555 1_555
C34_20 C33_20 1_555 1_555
H22_20 C34_20 1_555 1_555
C35_20 C34_20 1_555 1_555
H23_20 C35_20 1_555 1_555
C36_20 C35_20 1_555 1_555
C37_20 C36_20 1_555 1_555
H24_20 C37_20 1_555 1_555
C38_20 N10_20 1_555 1_555
N13_16 C33_20 1_555 1_555
N14_20 C32_20 1_555 1_555
S3_20 C57_20 1_555 1_555
C96_16 C95_16 1_555 1_555
H62_16 C96_16 1_555 1_555
C97_16 C96_16 1_555 1_555
H63_16 C97_16 1_555 1_555
C98_16 C97_16 1_555 1_555
C99_16 C98_16 1_555 1_555
H64_16 C99_16 1_555 1_555
C100_16 H65_16 1_555 1_555
C101_16 C100_16 1_555 1_555
C102_16 C101_16 1_555 1_555
H66_16 C102_16 1_555 1_555
C103_16 C102_16 1_555 1_555
H67_16 C103_16 1_555 1_555
C104_16 C103_16 1_555 1_555
H68_16 C104_16 1_555 1_555
C105_16 C101_16 1_555 1_555
C106_16 C108_16 1_555 1_555
C107_16 C98_16 1_555 1_555
C108_16 C109_16 1_555 1_555
C109_16 H69_16 1_555 1_555
C110_16 C109_16 1_555 1_555
H70_16 C110_16 1_555 1_555
C111_16 C110_16 1_555 1_555
H71_16 C111_16 1_555 1_555
C112_16 C108_16 1_555 1_555
H72_16 C112_16 1_555 1_555
C113_16 N41_16 1_555 1_555
N35_16 C95_16 1_555 1_555
N65_7 C100_16 1_555 1_555
N37_16 C105_16 1_555 1_555
N38_16 C106_16 1_555 1_555
N39_16 C105_16 1_555 1_555
N40_16 Co15_8 1_555 1_555
N41_16 Co15_8 1_555 1_555
S5_16 C113_16 1_555 1_555
S6_20 C132_20 1_555 1_555
C133_20 H85_20 1_555 1_555
C134_20 C133_20 1_555 1_555
H86_20 C134_20 1_555 1_555
C135_20 C134_20 1_555 1_555
H87_20 C135_20 1_555 1_555
C136_20 C135_20 1_555 1_555
C137_20 C136_20 1_555 1_555
H88_20 C137_20 1_555 1_555
C139_20 H89_20 1_555 1_555
C140_20 C139_20 1_555 1_555
C141_20 C140_20 1_555 1_555
H90_20 C141_20 1_555 1_555
C142_20 C141_20 1_555 1_555
H91_20 C142_20 1_555 1_555
C143_20 C142_20 1_555 1_555
H92_20 C143_20 1_555 1_555
C144_20 C140_20 1_555 1_555
C145_20 C147_20 1_555 1_555
C146_20 C136_20 1_555 1_555
C147_20 C148_20 1_555 1_555
C148_20 H93_20 1_555 1_555
C149_20 C148_20 1_555 1_555
H94_20 C149_20 1_555 1_555
C150_20 C149_20 1_555 1_555
H95_20 C150_20 1_555 1_555
C151_20 C147_20 1_555 1_555
H96_20 C151_20 1_555 1_555
N50_20 Co8_6 1_555 1_555
N52_20 C144_20 1_555 1_555
N53_20 C145_20 1_555 1_555
N54_20 C144_20 1_555 1_555
N55_20 C150_20 1_555 1_555
C152_20 N56_20 1_555 1_555
N56_20 Co8_6 1_555 1_555
S8_20 C152_20 1_555 1_555
Co11_12 N35_16 1_555 1_555
Co16_16 N13_16 1_555 1_555
Co17_20 N55_20 1_555 1_555
N64_20 Co8_6 1_555 1_555
C5_20 N62_2 1_555 1_555
C7_20 N3_20 1_555 1_555
C11_20 N3_20 1_555 1_555
C13_20 N6_20 1_555 1_555
C14_20 N4_20 1_555 1_555
C14_20 N5_20 1_555 1_555
C19_20 N7_16 1_555 1_555
C21_20 N9_16 1_555 1_555
C25_20 N9_16 1_555 1_555
C31_20 N11_20 1_555 1_555
C32_20 N12_20 1_555 1_555
C36_20 C38_20 1_555 1_555
C37_20 N13_16 1_555 1_555
C38_20 N14_20 1_555 1_555
C99_16 N35_16 1_555 1_555
C104_16 N65_7 1_555 1_555
C106_16 N39_16 1_555 1_555
C107_16 N37_16 1_555 1_555
C107_16 N38_16 1_555 1_555
C111_16 N40_16 1_555 1_555
C112_16 N40_16 1_555 1_555
C133_20 N50_20 1_555 1_555
C137_20 N50_20 1_555 1_555
C139_20 N67_5 1_555 1_555
C143_20 N67_5 1_555 1_555
C145_20 N54_20 1_555 1_555
C146_20 N52_20 1_555 1_555
C146_20 N53_20 1_555 1_555
C151_20 N55_20 1_555 1_555
C39_20 H25_20 1_555 1_555
C40_20 C39_20 1_555 1_555
H26_20 C40_20 1_555 1_555
C41_20 C40_20 1_555 1_555
H27_20 C41_20 1_555 1_555
C42_20 C41_20 1_555 1_555
C43_20 C42_20 1_555 1_555
H28_20 C43_20 1_555 1_555
C44_20 H29_20 1_555 1_555
C45_20 C44_20 1_555 1_555
C46_20 C45_20 1_555 1_555
H30_20 C46_20 1_555 1_555
C47_20 C46_20 1_555 1_555
H31_20 C47_20 1_555 1_555
C48_20 C47_20 1_555 1_555
H32_20 C48_20 1_555 1_555
C49_20 C45_20 1_555 1_555
C50_20 C52_20 1_555 1_555
C51_20 C42_20 1_555 1_555
C52_20 C53_20 1_555 1_555
C53_20 H33_20 1_555 1_555
C54_20 C53_20 1_555 1_555
H34_20 C54_20 1_555 1_555
C55_20 C54_20 1_555 1_555
H35_20 C55_20 1_555 1_555
C56_20 C52_20 1_555 1_555
H36_20 C56_20 1_555 1_555
N15_20 C39_20 1_555 1_555
N16_20 C44_20 1_555 1_555
N17_20 C49_20 1_555 1_555
N18_20 C50_20 1_555 1_555
N19_20 C49_20 1_555 1_555
N20_20 Co16_12 1_555 1_555
N21_20 Co16_12 1_555 1_555
C114_20 H73_20 1_555 1_555
C115_20 C114_20 1_555 1_555
H74_20 C115_20 1_555 1_555
C116_20 C115_20 1_555 1_555
H75_20 C116_20 1_555 1_555
C117_20 C116_20 1_555 1_555
C118_20 C117_20 1_555 1_555
H76_20 C118_20 1_555 1_555
C119_20 H77_20 1_555 1_555
C120_20 C119_20 1_555 1_555
C121_20 C120_20 1_555 1_555
H78_20 C121_20 1_555 1_555
C122_20 C121_20 1_555 1_555
H79_20 C122_20 1_555 1_555
C123_20 C122_20 1_555 1_555
H80_20 C123_20 1_555 1_555
C124_20 C120_20 1_555 1_555
C125_20 C127_20 1_555 1_555
C126_20 C117_20 1_555 1_555
C127_20 C128_20 1_555 1_555
C128_20 H81_20 1_555 1_555
C129_20 C128_20 1_555 1_555
H82_20 C129_20 1_555 1_555
C130_20 C129_20 1_555 1_555
H83_20 C130_20 1_555 1_555
C131_20 C127_20 1_555 1_555
H84_20 C131_20 1_555 1_555
N42_20 C114_20 1_555 1_555
N43_20 C119_20 1_555 1_555
N44_20 C124_20 1_555 1_555
N45_20 C125_20 1_555 1_555
N46_20 C124_20 1_555 1_555
N47_20 Co16_12 1_555 1_555
N48_20 Co16_12 1_555 1_555
Co9_12 N16_20 1_555 1_555
Co10_11 N43_20 1_555 1_555
Co14 N15_20 1_555 1_555
Co13_8 N42_20 1_555 1_555
C43_20 N15_20 1_555 1_555
C48_20 N16_20 1_555 1_555
C50_20 N19_20 1_555 1_555
C51_20 N17_20 1_555 1_555
C51_20 N18_20 1_555 1_555
C55_20 N20_20 1_555 1_555
C56_20 N20_20 1_555 1_555
C118_20 N42_20 1_555 1_555
C123_20 N43_20 1_555 1_555
C125_20 N46_20 1_555 1_555
C126_20 N44_20 1_555 1_555
C126_20 N45_20 1_555 1_555
C130_20 N47_20 1_555 1_555
C131_20 N47_20 1_555 1_555
C21_21 H13_21 1_555 1_555
C22_21 C21_21 1_555 1_555
H14_21 C22_21 1_555 1_555
C23_21 C22_21 1_555 1_555
H15_21 C23_21 1_555 1_555
C24_21 C23_21 1_555 1_555
C25_21 C24_21 1_555 1_555
H16_21 C25_21 1_555 1_555
C26_21 C24_21 1_555 1_555
N10_21 C26_21 1_555 1_555
C27_21 H17_21 1_555 1_555
C28_21 C27_21 1_555 1_555
H18_21 C28_21 1_555 1_555
C29_21 C28_21 1_555 1_555
H19_21 C29_21 1_555 1_555
C30_21 C29_21 1_555 1_555
C31_21 C30_21 1_555 1_555
H20_21 C31_21 1_555 1_555
C32_21 C30_21 1_555 1_555
N11_21 C27_21 1_555 1_555
N12_21 C26_21 1_555 1_555
C33_21 H21_21 1_555 1_555
C34_21 C33_21 1_555 1_555
H22_21 C34_21 1_555 1_555
C35_21 C34_21 1_555 1_555
H23_21 C35_21 1_555 1_555
C36_21 C35_21 1_555 1_555
C37_21 C36_21 1_555 1_555
H24_21 C37_21 1_555 1_555
C38_21 N10_21 1_555 1_555
N71_7 C33_21 1_555 1_555
N14_21 C32_21 1_555 1_555
Co16_14 N11_21 1_555 1_555
C40_21 C39_21 1_555 1_555
H26_21 C40_21 1_555 1_555
C41_21 C40_21 1_555 1_555
H27_21 C41_21 1_555 1_555
C42_21 C41_21 1_555 1_555
C43_21 C42_21 1_555 1_555
H28_21 C43_21 1_555 1_555
C44_21 H29_21 1_555 1_555
C45_21 C44_21 1_555 1_555
C46_21 C45_21 1_555 1_555
H30_21 C46_21 1_555 1_555
C47_21 C46_21 1_555 1_555
H31_21 C47_21 1_555 1_555
C48_21 C47_21 1_555 1_555
H32_21 C48_21 1_555 1_555
C49_21 C45_21 1_555 1_555
C50_21 C52_21 1_555 1_555
C51_21 C42_21 1_555 1_555
C52_21 C53_21 1_555 1_555
C53_21 H33_21 1_555 1_555
C54_21 C53_21 1_555 1_555
H34_21 C54_21 1_555 1_555
C55_21 C54_21 1_555 1_555
H35_21 C55_21 1_555 1_555
C56_21 C52_21 1_555 1_555
H36_21 C56_21 1_555 1_555
C57_21 N21_21 1_555 1_555
N15_21 C39_21 1_555 1_555
N16_21 C44_21 1_555 1_555
N17_21 C49_21 1_555 1_555
N18_21 C50_21 1_555 1_555
N19_21 C49_21 1_555 1_555
N20_21 Co16_14 1_555 1_555
N21_21 Co16_14 1_555 1_555
S3_21 C57_21 1_555 1_555
C114_21 H73_21 1_555 1_555
C115_21 C114_21 1_555 1_555
H74_21 C115_21 1_555 1_555
C116_21 C115_21 1_555 1_555
H75_21 C116_21 1_555 1_555
C117_21 C116_21 1_555 1_555
C118_21 C117_21 1_555 1_555
H76_21 C118_21 1_555 1_555
C119_21 H77_21 1_555 1_555
C120_21 C119_21 1_555 1_555
C121_21 C120_21 1_555 1_555
H78_21 C121_21 1_555 1_555
C122_21 C121_21 1_555 1_555
H79_21 C122_21 1_555 1_555
C123_21 C122_21 1_555 1_555
H80_21 C123_21 1_555 1_555
C124_21 C120_21 1_555 1_555
C125_21 C127_21 1_555 1_555
C126_21 C117_21 1_555 1_555
C127_21 C128_21 1_555 1_555
C128_21 H81_21 1_555 1_555
C129_21 C128_21 1_555 1_555
H82_21 C129_21 1_555 1_555
C130_21 C129_21 1_555 1_555
H83_21 C130_21 1_555 1_555
C131_21 C127_21 1_555 1_555
H84_21 C131_21 1_555 1_555
C132_21 N48_21 1_555 1_555
N42_21 C114_21 1_555 1_555
N43_21 C119_21 1_555 1_555
N44_21 C124_21 1_555 1_555
N45_21 C125_21 1_555 1_555
N46_21 C124_21 1_555 1_555
N47_21 Co16_14 1_555 1_555
N48_21 Co16_14 1_555 1_555
S6_21 C132_21 1_555 1_555
Co9_8 N16_21 1_555 1_555
Co10_10 N43_21 1_555 1_555
Co12_8 N15_21 1_555 1_555
Co13_5 N42_21 1_555 1_555
C21_21 N70_7 1_555 1_555
C25_21 N70_7 1_555 1_555
C31_21 N11_21 1_555 1_555
C32_21 N12_21 1_555 1_555
C36_21 C38_21 1_555 1_555
C37_21 N71_7 1_555 1_555
C38_21 N14_21 1_555 1_555
C43_21 N15_21 1_555 1_555
C48_21 N16_21 1_555 1_555
C50_21 N19_21 1_555 1_555
C51_21 N17_21 1_555 1_555
C51_21 N18_21 1_555 1_555
C55_21 N20_21 1_555 1_555
C56_21 N20_21 1_555 1_555
C118_21 N42_21 1_555 1_555
C123_21 N43_21 1_555 1_555
C125_21 N46_21 1_555 1_555
C126_21 N44_21 1_555 1_555
C126_21 N45_21 1_555 1_555
C130_21 N47_21 1_555 1_555
C131_21 N47_21 1_555 1_555
Co8_4 N1_21 1_555 1_555
C2_21 C1_21 1_555 1_555
H2_21 C2_21 1_555 1_555
C3_21 C2_21 1_555 1_555
H3_21 C3_21 1_555 1_555
C4_21 C3_21 1_555 1_555
C5_21 C4_21 1_555 1_555
H4_21 C5_21 1_555 1_555
C6_21 N1_21 1_555 1_555
C7_21 H5_21 1_555 1_555
C8_21 C7_21 1_555 1_555
C9_21 C8_21 1_555 1_555
H6_21 C9_21 1_555 1_555
C10_21 C9_21 1_555 1_555
H7_21 C10_21 1_555 1_555
C11_21 C10_21 1_555 1_555
H8_21 C11_21 1_555 1_555
C12_21 C8_21 1_555 1_555
C13_21 C15_21 1_555 1_555
C14_21 C4_21 1_555 1_555
C15_21 C16_21 1_555 1_555
C16_21 H9_21 1_555 1_555
C17_21 C16_21 1_555 1_555
H10_21 C17_21 1_555 1_555
C18_21 C17_21 1_555 1_555
H11_21 C18_21 1_555 1_555
C19_21 C15_21 1_555 1_555
H12_21 C19_21 1_555 1_555
N63 C1_21 1_555 1_555
N3_21 Co8_4 1_555 1_555
N4_21 C12_21 1_555 1_555
N5_21 C13_21 1_555 1_555
N6_21 C12_21 1_555 1_555
N69_7 C18_21 1_555 1_555
S1_21 C6_21 1_555 1_555
C133_21 H85_21 1_555 1_555
C134_21 C133_21 1_555 1_555
H86_21 C134_21 1_555 1_555
C135_21 C134_21 1_555 1_555
H87_21 C135_21 1_555 1_555
C136_21 C135_21 1_555 1_555
C137_21 C136_21 1_555 1_555
H88_21 C137_21 1_555 1_555
C139_21 H89_21 1_555 1_555
C140_21 C139_21 1_555 1_555
C141_21 C140_21 1_555 1_555
H90_21 C141_21 1_555 1_555
C142_21 C141_21 1_555 1_555
H91_21 C142_21 1_555 1_555
C143_21 C142_21 1_555 1_555
H92_21 C143_21 1_555 1_555
C144_21 C140_21 1_555 1_555
C145_21 C147_21 1_555 1_555
C146_21 C136_21 1_555 1_555
C147_21 C148_21 1_555 1_555
C148_21 H93_21 1_555 1_555
C149_21 C148_21 1_555 1_555
H94_21 C149_21 1_555 1_555
C150_21 C149_21 1_555 1_555
H95_21 C150_21 1_555 1_555
C151_21 C147_21 1_555 1_555
H96_21 C151_21 1_555 1_555
N50_21 Co8_4 1_555 1_555
N52_21 C144_21 1_555 1_555
N53_21 C145_21 1_555 1_555
N54_21 C144_21 1_555 1_555
N55_21 C150_21 1_555 1_555
C152_21 N56_21 1_555 1_555
N56_21 Co8_4 1_555 1_555
S8_21 C152_21 1_555 1_555
Co17_21 N55_21 1_555 1_555
N64_21 Co8_4 1_555 1_555
C5_21 N63 1_555 1_555
C7_21 N3_21 1_555 1_555
C11_21 N3_21 1_555 1_555
C13_21 N6_21 1_555 1_555
C14_21 N4_21 1_555 1_555
C14_21 N5_21 1_555 1_555
C19_21 N69_7 1_555 1_555
C133_21 N50_21 1_555 1_555
C137_21 N50_21 1_555 1_555
C139_21 N67_3 1_555 1_555
C143_21 N67_3 1_555 1_555
C145_21 N54_21 1_555 1_555
C146_21 N52_21 1_555 1_555
C146_21 N53_21 1_555 1_555
C151_21 N55_21 1_555 1_555
C1_22 H1_22 1_555 1_555
C2_22 C1_22 1_555 1_555
H2_22 C2_22 1_555 1_555
C3_22 C2_22 1_555 1_555
H3_22 C3_22 1_555 1_555
C4_22 C3_22 1_555 1_555
C5_22 C4_22 1_555 1_555
H4_22 C5_22 1_555 1_555
C7_22 H5_22 1_555 1_555
C8_22 C7_22 1_555 1_555
C9_22 C8_22 1_555 1_555
H6_22 C9_22 1_555 1_555
C10_22 C9_22 1_555 1_555
H7_22 C10_22 1_555 1_555
C11_22 C10_22 1_555 1_555
H8_22 C11_22 1_555 1_555
C12_22 C8_22 1_555 1_555
C13_22 C15_22 1_555 1_555
C14_22 C4_22 1_555 1_555
C15_22 C16_22 1_555 1_555
C16_22 H9_22 1_555 1_555
C17_22 C16_22 1_555 1_555
H10_22 C17_22 1_555 1_555
C18_22 C17_22 1_555 1_555
H11_22 C18_22 1_555 1_555
C19_22 C15_22 1_555 1_555
H12_22 C19_22 1_555 1_555
C21_22 H13_22 1_555 1_555
C22_22 C21_22 1_555 1_555
H14_22 C22_22 1_555 1_555
C23_22 C22_22 1_555 1_555
H15_22 C23_22 1_555 1_555
C24_22 C23_22 1_555 1_555
C25_22 C24_22 1_555 1_555
H16_22 C25_22 1_555 1_555
C26_22 C24_22 1_555 1_555
N63_4 C1_22 1_555 1_555
N3_22 Co8_2 1_555 1_555
N4_22 C12_22 1_555 1_555
N5_22 C13_22 1_555 1_555
N6_22 C12_22 1_555 1_555
N69_5 C18_22 1_555 1_555
N10_22 C26_22 1_555 1_555
C27_22 H17_22 1_555 1_555
C28_22 C27_22 1_555 1_555
H18_22 C28_22 1_555 1_555
C29_22 C28_22 1_555 1_555
H19_22 C29_22 1_555 1_555
C30_22 C29_22 1_555 1_555
C31_22 C30_22 1_555 1_555
H20_22 C31_22 1_555 1_555
C32_22 C30_22 1_555 1_555
N11_22 C27_22 1_555 1_555
N12_22 C26_22 1_555 1_555
C33_22 H21_22 1_555 1_555
C34_22 C33_22 1_555 1_555
H22_22 C34_22 1_555 1_555
C35_22 C34_22 1_555 1_555
H23_22 C35_22 1_555 1_555
C36_22 C35_22 1_555 1_555
C37_22 C36_22 1_555 1_555
H24_22 C37_22 1_555 1_555
C38_22 N10_22 1_555 1_555
N71_5 C33_22 1_555 1_555
N14_22 C32_22 1_555 1_555
Co16_15 N11_22 1_555 1_555
C39_22 H25_22 1_555 1_555
C40_22 C39_22 1_555 1_555
H26_22 C40_22 1_555 1_555
C41_22 C40_22 1_555 1_555
H27_22 C41_22 1_555 1_555
C42_22 C41_22 1_555 1_555
C43_22 C42_22 1_555 1_555
H28_22 C43_22 1_555 1_555
C44_22 H29_22 1_555 1_555
C45_22 C44_22 1_555 1_555
C46_22 C45_22 1_555 1_555
H30_22 C46_22 1_555 1_555
C47_22 C46_22 1_555 1_555
H31_22 C47_22 1_555 1_555
C48_22 C47_22 1_555 1_555
H32_22 C48_22 1_555 1_555
C49_22 C45_22 1_555 1_555
C50_22 C52_22 1_555 1_555
C51_22 C42_22 1_555 1_555
C52_22 C53_22 1_555 1_555
C53_22 H33_22 1_555 1_555
C54_22 C53_22 1_555 1_555
H34_22 C54_22 1_555 1_555
C55_22 C54_22 1_555 1_555
H35_22 C55_22 1_555 1_555
C56_22 C52_22 1_555 1_555
H36_22 C56_22 1_555 1_555
C57_22 N21_22 1_555 1_555
N15_22 C39_22 1_555 1_555
N16_22 C44_22 1_555 1_555
N17_22 C49_22 1_555 1_555
N18_22 C50_22 1_555 1_555
N19_22 C49_22 1_555 1_555
N20_22 Co16_15 1_555 1_555
N21_22 Co16_15 1_555 1_555
S3_22 C57_22 1_555 1_555
C115_22 C114_22 1_555 1_555
H74_22 C115_22 1_555 1_555
C116_22 C115_22 1_555 1_555
H75_22 C116_22 1_555 1_555
C117_22 C116_22 1_555 1_555
C118_22 C117_22 1_555 1_555
H76_22 C118_22 1_555 1_555
C119_22 H77_22 1_555 1_555
C120_22 C119_22 1_555 1_555
C121_22 C120_22 1_555 1_555
H78_22 C121_22 1_555 1_555
C122_22 C121_22 1_555 1_555
H79_22 C122_22 1_555 1_555
C123_22 C122_22 1_555 1_555
H80_22 C123_22 1_555 1_555
C124_22 C120_22 1_555 1_555
C125_22 C127_22 1_555 1_555
C126_22 C117_22 1_555 1_555
C127_22 C128_22 1_555 1_555
C128_22 H81_22 1_555 1_555
C129_22 C128_22 1_555 1_555
H82_22 C129_22 1_555 1_555
C130_22 C129_22 1_555 1_555
H83_22 C130_22 1_555 1_555
C131_22 C127_22 1_555 1_555
H84_22 C131_22 1_555 1_555
C132_22 N48_22 1_555 1_555
N42_22 C114_22 1_555 1_555
N43_22 C119_22 1_555 1_555
N44_22 C124_22 1_555 1_555
N45_22 C125_22 1_555 1_555
N46_22 C124_22 1_555 1_555
N47_22 Co16_15 1_555 1_555
N48_22 Co16_15 1_555 1_555
S6_22 C132_22 1_555 1_555
C152_22 N56_22 1_555 1_555
N56_22 Co8_2 1_555 1_555
S8_22 C152_22 1_555 1_555
Co9_10 N16_22 1_555 1_555
Co10_9 N43_22 1_555 1_555
Co12_10 N15_22 1_555 1_555
Co13 N42_22 1_555 1_555
N64_22 Co8_2 1_555 1_555
C5_22 N63_4 1_555 1_555
C7_22 N3_22 1_555 1_555
C11_22 N3_22 1_555 1_555
C13_22 N6_22 1_555 1_555
C14_22 N4_22 1_555 1_555
C14_22 N5_22 1_555 1_555
C19_22 N69_5 1_555 1_555
C21_22 N70_5 1_555 1_555
C25_22 N70_5 1_555 1_555
C31_22 N11_22 1_555 1_555
C32_22 N12_22 1_555 1_555
C36_22 C38_22 1_555 1_555
C37_22 N71_5 1_555 1_555
C38_22 N14_22 1_555 1_555
C43_22 N15_22 1_555 1_555
C48_22 N16_22 1_555 1_555
C50_22 N19_22 1_555 1_555
C51_22 N17_22 1_555 1_555
C51_22 N18_22 1_555 1_555
C55_22 N20_22 1_555 1_555
C56_22 N20_22 1_555 1_555
C118_22 N42_22 1_555 1_555
C123_22 N43_22 1_555 1_555
C125_22 N46_22 1_555 1_555
C126_22 N44_22 1_555 1_555
C126_22 N45_22 1_555 1_555
C130_22 N47_22 1_555 1_555
C131_22 N47_22 1_555 1_555
Co8_3 N1_22 1_555 1_555
C6_22 N1_22 1_555 1_555
S1_22 C6_22 1_555 1_555
C134_22 C133_22 1_555 1_555
H86_22 C134_22 1_555 1_555
C135_22 C134_22 1_555 1_555
H87_22 C135_22 1_555 1_555
C136_22 C135_22 1_555 1_555
C137_22 C136_22 1_555 1_555
H88_22 C137_22 1_555 1_555
C139_22 H89_22 1_555 1_555
C140_22 C139_22 1_555 1_555
C141_22 C140_22 1_555 1_555
H90_22 C141_22 1_555 1_555
C142_22 C141_22 1_555 1_555
H91_22 C142_22 1_555 1_555
C143_22 C142_22 1_555 1_555
H92_22 C143_22 1_555 1_555
C144_22 C140_22 1_555 1_555
C145_22 C147_22 1_555 1_555
C146_22 C136_22 1_555 1_555
C147_22 C148_22 1_555 1_555
C148_22 H93_22 1_555 1_555
C149_22 C148_22 1_555 1_555
H94_22 C149_22 1_555 1_555
C150_22 C149_22 1_555 1_555
H95_22 C150_22 1_555 1_555
C151_22 C147_22 1_555 1_555
H96_22 C151_22 1_555 1_555
N50_22 Co8_3 1_555 1_555
N52_22 C144_22 1_555 1_555
N53_22 C145_22 1_555 1_555
N54_22 C144_22 1_555 1_555
N55_22 C150_22 1_555 1_555
Co17_22 N55_22 1_555 1_555
C133_22 N50_22 1_555 1_555
C137_22 N50_22 1_555 1_555
C139_22 N67_2 1_555 1_555
C143_22 N67_2 1_555 1_555
C145_22 N54_22 1_555 1_555
C146_22 N52_22 1_555 1_555
C146_22 N53_22 1_555 1_555
C151_22 N55_22 1_555 1_555
Co8 N1_23 1_555 1_555
C1_23 H1_23 1_555 1_555
C2_23 C1_23 1_555 1_555
H2_23 C2_23 1_555 1_555
C3_23 C2_23 1_555 1_555
H3_23 C3_23 1_555 1_555
C4_23 C3_23 1_555 1_555
C5_23 C4_23 1_555 1_555
H4_23 C5_23 1_555 1_555
C6_23 N1_23 1_555 1_555
C7_23 H5_23 1_555 1_555
C8_23 C7_23 1_555 1_555
C9_23 C8_23 1_555 1_555
H6_23 C9_23 1_555 1_555
C10_23 C9_23 1_555 1_555
H7_23 C10_23 1_555 1_555
C11_23 C10_23 1_555 1_555
H8_23 C11_23 1_555 1_555
C12_23 C8_23 1_555 1_555
C13_23 C15_23 1_555 1_555
C14_23 C4_23 1_555 1_555
C15_23 C16_23 1_555 1_555
C16_23 H9_23 1_555 1_555
C17_23 C16_23 1_555 1_555
H10_23 C17_23 1_555 1_555
C18_23 C17_23 1_555 1_555
H11_23 C18_23 1_555 1_555
C19_23 C15_23 1_555 1_555
H12_23 C19_23 1_555 1_555
C21_23 H13_23 1_555 1_555
C22_23 C21_23 1_555 1_555
H14_23 C22_23 1_555 1_555
C23_23 C22_23 1_555 1_555
H15_23 C23_23 1_555 1_555
C24_23 C23_23 1_555 1_555
C25_23 C24_23 1_555 1_555
H16_23 C25_23 1_555 1_555
C26_23 C24_23 1_555 1_555
N63_3 C1_23 1_555 1_555
N3_23 Co8 1_555 1_555
N4_23 C12_23 1_555 1_555
N5_23 C13_23 1_555 1_555
N6_23 C12_23 1_555 1_555
N69_6 C18_23 1_555 1_555
N10_23 C26_23 1_555 1_555
S1_23 C6_23 1_555 1_555
C27_23 H17_23 1_555 1_555
C28_23 C27_23 1_555 1_555
H18_23 C28_23 1_555 1_555
C29_23 C28_23 1_555 1_555
H19_23 C29_23 1_555 1_555
C30_23 C29_23 1_555 1_555
C31_23 C30_23 1_555 1_555
H20_23 C31_23 1_555 1_555
C32_23 C30_23 1_555 1_555
N11_23 C27_23 1_555 1_555
N12_23 C26_23 1_555 1_555
C33_23 H21_23 1_555 1_555
C34_23 C33_23 1_555 1_555
H22_23 C34_23 1_555 1_555
C35_23 C34_23 1_555 1_555
H23_23 C35_23 1_555 1_555
C36_23 C35_23 1_555 1_555
C37_23 C36_23 1_555 1_555
H24_23 C37_23 1_555 1_555
C38_23 N10_23 1_555 1_555
N71_6 C33_23 1_555 1_555
N14_23 C32_23 1_555 1_555
S3_23 C57_23 1_555 1_555
S6_23 C132_23 1_555 1_555
C133_23 H85_23 1_555 1_555
C134_23 C133_23 1_555 1_555
H86_23 C134_23 1_555 1_555
C135_23 C134_23 1_555 1_555
H87_23 C135_23 1_555 1_555
C136_23 C135_23 1_555 1_555
C137_23 C136_23 1_555 1_555
H88_23 C137_23 1_555 1_555
C139_23 H89_23 1_555 1_555
C140_23 C139_23 1_555 1_555
C141_23 C140_23 1_555 1_555
H90_23 C141_23 1_555 1_555
C142_23 C141_23 1_555 1_555
H91_23 C142_23 1_555 1_555
C143_23 C142_23 1_555 1_555
H92_23 C143_23 1_555 1_555
C144_23 C140_23 1_555 1_555
C145_23 C147_23 1_555 1_555
C146_23 C136_23 1_555 1_555
C147_23 C148_23 1_555 1_555
C148_23 H93_23 1_555 1_555
C149_23 C148_23 1_555 1_555
H94_23 C149_23 1_555 1_555
C150_23 C149_23 1_555 1_555
H95_23 C150_23 1_555 1_555
C151_23 C147_23 1_555 1_555
H96_23 C151_23 1_555 1_555
N50_23 Co8 1_555 1_555
N52_23 C144_23 1_555 1_555
N53_23 C145_23 1_555 1_555
N54_23 C144_23 1_555 1_555
N55_23 C150_23 1_555 1_555
C152_23 N56_23 1_555 1_555
N56_23 Co8 1_555 1_555
S8_23 C152_23 1_555 1_555
Co17_23 N55_23 1_555 1_555
N64_23 Co8 1_555 1_555
C5_23 N63_3 1_555 1_555
C7_23 N3_23 1_555 1_555
C11_23 N3_23 1_555 1_555
C13_23 N6_23 1_555 1_555
C14_23 N4_23 1_555 1_555
C14_23 N5_23 1_555 1_555
C19_23 N69_6 1_555 1_555
C21_23 N70_6 1_555 1_555
C25_23 N70_6 1_555 1_555
C31_23 N11_23 1_555 1_555
C32_23 N12_23 1_555 1_555
C36_23 C38_23 1_555 1_555
C37_23 N71_6 1_555 1_555
C38_23 N14_23 1_555 1_555
C133_23 N50_23 1_555 1_555
C137_23 N50_23 1_555 1_555
C139_23 N67 1_555 1_555
C143_23 N67 1_555 1_555
C145_23 N54_23 1_555 1_555
C146_23 N52_23 1_555 1_555
C146_23 N53_23 1_555 1_555
C151_23 N55_23 1_555 1_555
C39_23 H25_23 1_555 1_555
C40_23 C39_23 1_555 1_555
H26_23 C40_23 1_555 1_555
C41_23 C40_23 1_555 1_555
H27_23 C41_23 1_555 1_555
C42_23 C41_23 1_555 1_555
C43_23 C42_23 1_555 1_555
H28_23 C43_23 1_555 1_555
C44_23 H29_23 1_555 1_555
C45_23 C44_23 1_555 1_555
C46_23 C45_23 1_555 1_555
H30_23 C46_23 1_555 1_555
C47_23 C46_23 1_555 1_555
H31_23 C47_23 1_555 1_555
C48_23 C47_23 1_555 1_555
H32_23 C48_23 1_555 1_555
C49_23 C45_23 1_555 1_555
C50_23 C52_23 1_555 1_555
C51_23 C42_23 1_555 1_555
C52_23 C53_23 1_555 1_555
C53_23 H33_23 1_555 1_555
C54_23 C53_23 1_555 1_555
H34_23 C54_23 1_555 1_555
C55_23 C54_23 1_555 1_555
H35_23 C55_23 1_555 1_555
C56_23 C52_23 1_555 1_555
H36_23 C56_23 1_555 1_555
N15_23 C39_23 1_555 1_555
N16_23 C44_23 1_555 1_555
N17_23 C49_23 1_555 1_555
N18_23 C50_23 1_555 1_555
N19_23 C49_23 1_555 1_555
N20_23 Co16_13 1_555 1_555
N21_23 Co16_13 1_555 1_555
C114_23 H73_23 1_555 1_555
C115_23 C114_23 1_555 1_555
H74_23 C115_23 1_555 1_555
C116_23 C115_23 1_555 1_555
H75_23 C116_23 1_555 1_555
C117_23 C116_23 1_555 1_555
C118_23 C117_23 1_555 1_555
H76_23 C118_23 1_555 1_555
C119_23 H77_23 1_555 1_555
C120_23 C119_23 1_555 1_555
C121_23 C120_23 1_555 1_555
H78_23 C121_23 1_555 1_555
C122_23 C121_23 1_555 1_555
H79_23 C122_23 1_555 1_555
C123_23 C122_23 1_555 1_555
H80_23 C123_23 1_555 1_555
C124_23 C120_23 1_555 1_555
C125_23 C127_23 1_555 1_555
C126_23 C117_23 1_555 1_555
C127_23 C128_23 1_555 1_555
C128_23 H81_23 1_555 1_555
C129_23 C128_23 1_555 1_555
H82_23 C129_23 1_555 1_555
C130_23 C129_23 1_555 1_555
H83_23 C130_23 1_555 1_555
C131_23 C127_23 1_555 1_555
H84_23 C131_23 1_555 1_555
N42_23 C114_23 1_555 1_555
N43_23 C119_23 1_555 1_555
N44_23 C124_23 1_555 1_555
N45_23 C125_23 1_555 1_555
N46_23 C124_23 1_555 1_555
N47_23 Co16_13 1_555 1_555
N48_23 Co16_13 1_555 1_555
Co9_7 N16_23 1_555 1_555
Co10_6 N43_23 1_555 1_555
Co12_7 N15_23 1_555 1_555
Co13_3 N42_23 1_555 1_555
C43_23 N15_23 1_555 1_555
C48_23 N16_23 1_555 1_555
C50_23 N19_23 1_555 1_555
C51_23 N17_23 1_555 1_555
C51_23 N18_23 1_555 1_555
C55_23 N20_23 1_555 1_555
C56_23 N20_23 1_555 1_555
C118_23 N42_23 1_555 1_555
C123_23 N43_23 1_555 1_555
C125_23 N46_23 1_555 1_555
C126_23 N44_23 1_555 1_555
C126_23 N45_23 1_555 1_555
C130_23 N47_23 1_555 1_555
C131_23 N47_23 1_555 1_555
Co8_5 N1_24 1_555 1_555
C1_24 H1_24 1_555 1_555
C2_24 C1_24 1_555 1_555
H2_24 C2_24 1_555 1_555
C3_24 C2_24 1_555 1_555
H3_24 C3_24 1_555 1_555
C4_24 C3_24 1_555 1_555
C5_24 C4_24 1_555 1_555
H4_24 C5_24 1_555 1_555
C6_24 N1_24 1_555 1_555
C7_24 H5_24 1_555 1_555
C8_24 C7_24 1_555 1_555
C9_24 C8_24 1_555 1_555
H6_24 C9_24 1_555 1_555
C10_24 C9_24 1_555 1_555
H7_24 C10_24 1_555 1_555
C11_24 C10_24 1_555 1_555
H8_24 C11_24 1_555 1_555
C12_24 C8_24 1_555 1_555
C13_24 C15_24 1_555 1_555
C14_24 C4_24 1_555 1_555
C15_24 C16_24 1_555 1_555
C16_24 H9_24 1_555 1_555
C17_24 C16_24 1_555 1_555
H10_24 C17_24 1_555 1_555
C18_24 C17_24 1_555 1_555
H11_24 C18_24 1_555 1_555
C19_24 C15_24 1_555 1_555
H12_24 C19_24 1_555 1_555
C21_24 H13_24 1_555 1_555
C22_24 C21_24 1_555 1_555
H14_24 C22_24 1_555 1_555
C23_24 C22_24 1_555 1_555
H15_24 C23_24 1_555 1_555
C24_24 C23_24 1_555 1_555
C25_24 C24_24 1_555 1_555
H16_24 C25_24 1_555 1_555
C26_24 C24_24 1_555 1_555
N63_2 C1_24 1_555 1_555
N3_24 Co8_5 1_555 1_555
N4_24 C12_24 1_555 1_555
N5_24 C13_24 1_555 1_555
N6_24 C12_24 1_555 1_555
N69_8 C18_24 1_555 1_555
N10_24 C26_24 1_555 1_555
S1_24 C6_24 1_555 1_555
C27_24 H17_24 1_555 1_555
C28_24 C27_24 1_555 1_555
H18_24 C28_24 1_555 1_555
C29_24 C28_24 1_555 1_555
H19_24 C29_24 1_555 1_555
C30_24 C29_24 1_555 1_555
C31_24 C30_24 1_555 1_555
H20_24 C31_24 1_555 1_555
C32_24 C30_24 1_555 1_555
N11_24 C27_24 1_555 1_555
N12_24 C26_24 1_555 1_555
C33_24 H21_24 1_555 1_555
C34_24 C33_24 1_555 1_555
H22_24 C34_24 1_555 1_555
C35_24 C34_24 1_555 1_555
H23_24 C35_24 1_555 1_555
C36_24 C35_24 1_555 1_555
C37_24 C36_24 1_555 1_555
H24_24 C37_24 1_555 1_555
C38_24 N10_24 1_555 1_555
N71_8 C33_24 1_555 1_555
N14_24 C32_24 1_555 1_555
Co16_16 N11_24 1_555 1_555
C39_24 H25_24 1_555 1_555
C40_24 C39_24 1_555 1_555
H26_24 C40_24 1_555 1_555
C41_24 C40_24 1_555 1_555
H27_24 C41_24 1_555 1_555
C42_24 C41_24 1_555 1_555
C43_24 C42_24 1_555 1_555
H28_24 C43_24 1_555 1_555
C44_24 H29_24 1_555 1_555
C45_24 C44_24 1_555 1_555
C46_24 C45_24 1_555 1_555
H30_24 C46_24 1_555 1_555
C47_24 C46_24 1_555 1_555
H31_24 C47_24 1_555 1_555
C48_24 C47_24 1_555 1_555
H32_24 C48_24 1_555 1_555
C49_24 C45_24 1_555 1_555
C50_24 C52_24 1_555 1_555
C51_24 C42_24 1_555 1_555
C52_24 C53_24 1_555 1_555
C53_24 H33_24 1_555 1_555
C54_24 C53_24 1_555 1_555
H34_24 C54_24 1_555 1_555
C55_24 C54_24 1_555 1_555
H35_24 C55_24 1_555 1_555
C56_24 C52_24 1_555 1_555
H36_24 C56_24 1_555 1_555
C57_24 N21_24 1_555 1_555
N15_24 C39_24 1_555 1_555
N16_24 C44_24 1_555 1_555
N17_24 C49_24 1_555 1_555
N18_24 C50_24 1_555 1_555
N19_24 C49_24 1_555 1_555
N20_24 Co16_16 1_555 1_555
N21_24 Co16_16 1_555 1_555
S3_24 C57_24 1_555 1_555
C114_24 H73_24 1_555 1_555
C115_24 C114_24 1_555 1_555
H74_24 C115_24 1_555 1_555
C116_24 C115_24 1_555 1_555
H75_24 C116_24 1_555 1_555
C117_24 C116_24 1_555 1_555
C118_24 C117_24 1_555 1_555
H76_24 C118_24 1_555 1_555
C119_24 H77_24 1_555 1_555
C120_24 C119_24 1_555 1_555
C121_24 C120_24 1_555 1_555
H78_24 C121_24 1_555 1_555
C122_24 C121_24 1_555 1_555
H79_24 C122_24 1_555 1_555
C123_24 C122_24 1_555 1_555
H80_24 C123_24 1_555 1_555
C124_24 C120_24 1_555 1_555
C125_24 C127_24 1_555 1_555
C126_24 C117_24 1_555 1_555
C127_24 C128_24 1_555 1_555
C128_24 H81_24 1_555 1_555
C129_24 C128_24 1_555 1_555
H82_24 C129_24 1_555 1_555
C130_24 C129_24 1_555 1_555
H83_24 C130_24 1_555 1_555
C131_24 C127_24 1_555 1_555
H84_24 C131_24 1_555 1_555
C132_24 N48_24 1_555 1_555
N42_24 C114_24 1_555 1_555
N43_24 C119_24 1_555 1_555
N44_24 C124_24 1_555 1_555
N45_24 C125_24 1_555 1_555
N46_24 C124_24 1_555 1_555
N47_24 Co16_16 1_555 1_555
N48_24 Co16_16 1_555 1_555
S6_24 C132_24 1_555 1_555
C133_24 H85_24 1_555 1_555
C134_24 C133_24 1_555 1_555
H86_24 C134_24 1_555 1_555
C135_24 C134_24 1_555 1_555
H87_24 C135_24 1_555 1_555
C136_24 C135_24 1_555 1_555
C137_24 C136_24 1_555 1_555
H88_24 C137_24 1_555 1_555
C139_24 H89_24 1_555 1_555
C140_24 C139_24 1_555 1_555
C141_24 C140_24 1_555 1_555
H90_24 C141_24 1_555 1_555
C142_24 C141_24 1_555 1_555
H91_24 C142_24 1_555 1_555
C143_24 C142_24 1_555 1_555
H92_24 C143_24 1_555 1_555
C144_24 C140_24 1_555 1_555
C145_24 C147_24 1_555 1_555
C146_24 C136_24 1_555 1_555
C147_24 C148_24 1_555 1_555
C148_24 H93_24 1_555 1_555
C149_24 C148_24 1_555 1_555
H94_24 C149_24 1_555 1_555
C150_24 C149_24 1_555 1_555
H95_24 C150_24 1_555 1_555
C151_24 C147_24 1_555 1_555
H96_24 C151_24 1_555 1_555
N50_24 Co8_5 1_555 1_555
N52_24 C144_24 1_555 1_555
N53_24 C145_24 1_555 1_555
N54_24 C144_24 1_555 1_555
N55_24 C150_24 1_555 1_555
C152_24 N56_24 1_555 1_555
N56_24 Co8_5 1_555 1_555
S8_24 C152_24 1_555 1_555
Co9_6 N16_24 1_555 1_555
Co10_7 N43_24 1_555 1_555
Co12_6 N15_24 1_555 1_555
Co13_4 N42_24 1_555 1_555
Co17_24 N55_24 1_555 1_555
N64_24 Co8_5 1_555 1_555
C5_24 N63_2 1_555 1_555
C7_24 N3_24 1_555 1_555
C11_24 N3_24 1_555 1_555
C13_24 N6_24 1_555 1_555
C14_24 N4_24 1_555 1_555
C14_24 N5_24 1_555 1_555
C19_24 N69_8 1_555 1_555
C21_24 N70_8 1_555 1_555
C25_24 N70_8 1_555 1_555
C31_24 N11_24 1_555 1_555
C32_24 N12_24 1_555 1_555
C36_24 C38_24 1_555 1_555
C37_24 N71_8 1_555 1_555
C38_24 N14_24 1_555 1_555
C43_24 N15_24 1_555 1_555
C48_24 N16_24 1_555 1_555
C50_24 N19_24 1_555 1_555
C51_24 N17_24 1_555 1_555
C51_24 N18_24 1_555 1_555
C55_24 N20_24 1_555 1_555
C56_24 N20_24 1_555 1_555
C118_24 N42_24 1_555 1_555
C123_24 N43_24 1_555 1_555
C125_24 N46_24 1_555 1_555
C126_24 N44_24 1_555 1_555
C126_24 N45_24 1_555 1_555
C130_24 N47_24 1_555 1_555
C131_24 N47_24 1_555 1_555
C133_24 N50_24 1_555 1_555
C137_24 N50_24 1_555 1_555
C139_24 N67_4 1_555 1_555
C143_24 N67_4 1_555 1_555
C145_24 N54_24 1_555 1_555
C146_24 N52_24 1_555 1_555
C146_24 N53_24 1_555 1_555
C151_24 N55_24 1_555 1_555
C155_9 N59_9 1_555 1_555
N59_9 Co13_11 1_555 1_555
S11_9 C155_9 1_555 1_555
N66_9 Co13_11 1_555 1_555
Co10_11 N1_25 1_555 1_555
C6_25 N1_25 1_555 1_555
S1_25 C6_25 1_555 1_555
Co14 N49_5 1_555 1_555
C133_25 H85_25 1_555 1_555
C134_25 C133_25 1_555 1_555
H86_25 C134_25 1_555 1_555
C135_25 C134_25 1_555 1_555
H87_25 C135_25 1_555 1_555
C136_25 C135_25 1_555 1_555
C137_25 C136_25 1_555 1_555
H88_25 C137_25 1_555 1_555
C138_5 N49_5 1_555 1_555
C139_25 H89_25 1_555 1_555
C140_25 C139_25 1_555 1_555
C141_25 C140_25 1_555 1_555
H90_25 C141_25 1_555 1_555
C142_25 C141_25 1_555 1_555
H91_25 C142_25 1_555 1_555
C143_25 C142_25 1_555 1_555
H92_25 C143_25 1_555 1_555
C144_25 C140_25 1_555 1_555
C145_25 C147_25 1_555 1_555
C146_25 C136_25 1_555 1_555
C147_25 C148_25 1_555 1_555
C148_25 H93_25 1_555 1_555
C149_25 C148_25 1_555 1_555
H94_25 C149_25 1_555 1_555
C150_25 C149_25 1_555 1_555
H95_25 C150_25 1_555 1_555
C151_25 C147_25 1_555 1_555
H96_25 C151_25 1_555 1_555
N50_25 Co10_11 1_555 1_555
N51_5 Co14 1_555 1_555
N52_25 C144_25 1_555 1_555
N53_25 C145_25 1_555 1_555
N54_25 C144_25 1_555 1_555
N55_25 C150_25 1_555 1_555
S7_5 C138_5 1_555 1_555
C152_25 N56_25 1_555 1_555
N56_25 Co10_11 1_555 1_555
S8_25 C152_25 1_555 1_555
C154_5 N58_5 1_555 1_555
N58_5 Co14 1_555 1_555
S10_5 C154_5 1_555 1_555
C156_9 N60_9 1_555 1_555
N60_9 Co13_12 1_555 1_555
S12_9 C156_9 1_555 1_555
Co17_25 N55_25 1_555 1_555
N64_25 Co10_11 1_555 1_555
N67_9 Co13_12 1_555 1_555
N68_5 Co14 1_555 1_555
C133_25 N50_25 1_555 1_555
C137_25 N50_25 1_555 1_555
C139_25 N51_5 1_555 1_555
C143_25 N51_5 1_555 1_555
C145_25 N54_25 1_555 1_555
C146_25 N52_25 1_555 1_555
C146_25 N53_25 1_555 1_555
C151_25 N55_25 1_555 1_555
Co10_15 N1_26 1_555 1_555
C6_26 N1_26 1_555 1_555
S1_26 C6_26 1_555 1_555
C133_26 H85_26 1_555 1_555
C134_26 C133_26 1_555 1_555
H86_26 C134_26 1_555 1_555
C135_26 C134_26 1_555 1_555
H87_26 C135_26 1_555 1_555
C136_26 C135_26 1_555 1_555
C137_26 C136_26 1_555 1_555
H88_26 C137_26 1_555 1_555
C139_26 H89_26 1_555 1_555
C140_26 C139_26 1_555 1_555
C141_26 C140_26 1_555 1_555
H90_26 C141_26 1_555 1_555
C142_26 C141_26 1_555 1_555
H91_26 C142_26 1_555 1_555
C143_26 C142_26 1_555 1_555
H92_26 C143_26 1_555 1_555
C144_26 C140_26 1_555 1_555
C145_26 C147_26 1_555 1_555
C146_26 C136_26 1_555 1_555
C147_26 C148_26 1_555 1_555
C148_26 H93_26 1_555 1_555
C149_26 C148_26 1_555 1_555
H94_26 C149_26 1_555 1_555
C150_26 C149_26 1_555 1_555
H95_26 C150_26 1_555 1_555
C151_26 C147_26 1_555 1_555
H96_26 C151_26 1_555 1_555
N50_26 Co10_15 1_555 1_555
N51_6 Co14_2 1_555 1_555
N52_26 C144_26 1_555 1_555
N53_26 C145_26 1_555 1_555
N54_26 C144_26 1_555 1_555
N55_26 C150_26 1_555 1_555
C152_26 N56_26 1_555 1_555
N56_26 Co10_15 1_555 1_555
S8_26 C152_26 1_555 1_555
C154_6 N58_6 1_555 1_555
N58_6 Co14_2 1_555 1_555
S10_6 C154_6 1_555 1_555
C155_10 N59_10 1_555 1_555
N59_10 Co13_15 1_555 1_555
S11_10 C155_10 1_555 1_555
C156_10 N60_10 1_555 1_555
N60_10 Co13_15 1_555 1_555
S12_10 C156_10 1_555 1_555
Co17_26 N55_26 1_555 1_555
N64_26 Co10_15 1_555 1_555
N66_10 Co13_15 1_555 1_555
N67_10 Co13_15 1_555 1_555
C133_26 N50_26 1_555 1_555
C137_26 N50_26 1_555 1_555
C139_26 N51_6 1_555 1_555
C143_26 N51_6 1_555 1_555
C145_26 N54_26 1_555 1_555
C146_26 N52_26 1_555 1_555
C146_26 N53_26 1_555 1_555
C151_26 N55_26 1_555 1_555
Co14_3 N49_6 1_555 1_555
C138_6 N49_6 1_555 1_555
S7_6 C138_6 1_555 1_555
N68_6 Co14_3 1_555 1_555
Co10_12 N1_27 1_555 1_555
C6_27 N1_27 1_555 1_555
S1_27 C6_27 1_555 1_555
Co14_4 N49_7 1_555 1_555
C134_27 C133_27 1_555 1_555
H86_27 C134_27 1_555 1_555
C135_27 C134_27 1_555 1_555
H87_27 C135_27 1_555 1_555
C136_27 C135_27 1_555 1_555
C137_27 C136_27 1_555 1_555
H88_27 C137_27 1_555 1_555
C138_7 N49_7 1_555 1_555
C139_27 H89_27 1_555 1_555
C140_27 C139_27 1_555 1_555
C141_27 C140_27 1_555 1_555
H90_27 C141_27 1_555 1_555
C142_27 C141_27 1_555 1_555
H91_27 C142_27 1_555 1_555
C143_27 C142_27 1_555 1_555
H92_27 C143_27 1_555 1_555
C144_27 C140_27 1_555 1_555
C145_27 C147_27 1_555 1_555
C146_27 C136_27 1_555 1_555
C147_27 C148_27 1_555 1_555
C148_27 H93_27 1_555 1_555
C149_27 C148_27 1_555 1_555
H94_27 C149_27 1_555 1_555
C150_27 C149_27 1_555 1_555
H95_27 C150_27 1_555 1_555
C151_27 C147_27 1_555 1_555
H96_27 C151_27 1_555 1_555
N50_27 Co10_12 1_555 1_555
N51_7 Co14_4 1_555 1_555
N52_27 C144_27 1_555 1_555
N53_27 C145_27 1_555 1_555
N54_27 C144_27 1_555 1_555
N55_27 C150_27 1_555 1_555
S7_7 C138_7 1_555 1_555
C154_7 N58_7 1_555 1_555
N58_7 Co14_4 1_555 1_555
S10_7 C154_7 1_555 1_555
Co17_27 N55_27 1_555 1_555
N68_7 Co14_4 1_555 1_555
C133_27 N50_27 1_555 1_555
C137_27 N50_27 1_555 1_555
C139_27 N51_7 1_555 1_555
C143_27 N51_7 1_555 1_555
C145_27 N54_27 1_555 1_555
C146_27 N52_27 1_555 1_555
C146_27 N53_27 1_555 1_555
C151_27 N55_27 1_555 1_555
C152_27 N56_27 1_555 1_555
N56_27 Co10_13 1_555 1_555
S8_27 C152_27 1_555 1_555
C155_11 N59_11 1_555 1_555
N59_11 Co13_13 1_555 1_555
S11_11 C155_11 1_555 1_555
C156_11 N60_11 1_555 1_555
N60_11 Co13_13 1_555 1_555
S12_11 C156_11 1_555 1_555
N64_27 Co10_13 1_555 1_555
N66_11 Co13_13 1_555 1_555
N67_11 Co13_13 1_555 1_555
Co10_14 N1_28 1_555 1_555
C6_28 N1_28 1_555 1_555
S1_28 C6_28 1_555 1_555
Co14_5 N49_8 1_555 1_555
C133_28 H85_28 1_555 1_555
C134_28 C133_28 1_555 1_555
H86_28 C134_28 1_555 1_555
C135_28 C134_28 1_555 1_555
H87_28 C135_28 1_555 1_555
C136_28 C135_28 1_555 1_555
C137_28 C136_28 1_555 1_555
H88_28 C137_28 1_555 1_555
C138_8 N49_8 1_555 1_555
C139_28 H89_28 1_555 1_555
C140_28 C139_28 1_555 1_555
C141_28 C140_28 1_555 1_555
H90_28 C141_28 1_555 1_555
C142_28 C141_28 1_555 1_555
H91_28 C142_28 1_555 1_555
C143_28 C142_28 1_555 1_555
H92_28 C143_28 1_555 1_555
C144_28 C140_28 1_555 1_555
C145_28 C147_28 1_555 1_555
C146_28 C136_28 1_555 1_555
C147_28 C148_28 1_555 1_555
C148_28 H93_28 1_555 1_555
C149_28 C148_28 1_555 1_555
H94_28 C149_28 1_555 1_555
C150_28 C149_28 1_555 1_555
H95_28 C150_28 1_555 1_555
C151_28 C147_28 1_555 1_555
H96_28 C151_28 1_555 1_555
N50_28 Co10_14 1_555 1_555
N51_8 Co14_5 1_555 1_555
N52_28 C144_28 1_555 1_555
N53_28 C145_28 1_555 1_555
N54_28 C144_28 1_555 1_555
N55_28 C150_28 1_555 1_555
S7_8 C138_8 1_555 1_555
C152_28 N56_28 1_555 1_555
N56_28 Co10_14 1_555 1_555
S8_28 C152_28 1_555 1_555
C154_8 N58_8 1_555 1_555
N58_8 Co14_5 1_555 1_555
S10_8 C154_8 1_555 1_555
C155_12 N59_12 1_555 1_555
N59_12 Co13_14 1_555 1_555
S11_12 C155_12 1_555 1_555
C156_12 N60_12 1_555 1_555
N60_12 Co13_14 1_555 1_555
S12_12 C156_12 1_555 1_555
Co17_28 N55_28 1_555 1_555
N64_28 Co10_14 1_555 1_555
N66_12 Co13_14 1_555 1_555
N67_12 Co13_14 1_555 1_555
N68_8 Co14_5 1_555 1_555
C133_28 N50_28 1_555 1_555
C137_28 N50_28 1_555 1_555
C139_28 N51_8 1_555 1_555
C143_28 N51_8 1_555 1_555
C145_28 N54_28 1_555 1_555
C146_28 N52_28 1_555 1_555
C146_28 N53_28 1_555 1_555
C151_28 N55_28 1_555 1_555
Co9_5 N1_29 1_555 1_555
C6_29 N1_29 1_555 1_555
S1_29 C6_29 1_555 1_555
C133_29 H85_29 1_555 1_555
C134_29 C133_29 1_555 1_555
H86_29 C134_29 1_555 1_555
C135_29 C134_29 1_555 1_555
H87_29 C135_29 1_555 1_555
C136_29 C135_29 1_555 1_555
C137_29 C136_29 1_555 1_555
H88_29 C137_29 1_555 1_555
C139_29 H89_29 1_555 1_555
C140_29 C139_29 1_555 1_555
C141_29 C140_29 1_555 1_555
H90_29 C141_29 1_555 1_555
C142_29 C141_29 1_555 1_555
H91_29 C142_29 1_555 1_555
C143_29 C142_29 1_555 1_555
H92_29 C143_29 1_555 1_555
C144_29 C140_29 1_555 1_555
C145_29 C147_29 1_555 1_555
C146_29 C136_29 1_555 1_555
C147_29 C148_29 1_555 1_555
C148_29 H93_29 1_555 1_555
C149_29 C148_29 1_555 1_555
H94_29 C149_29 1_555 1_555
C150_29 C149_29 1_555 1_555
H95_29 C150_29 1_555 1_555
C151_29 C147_29 1_555 1_555
H96_29 C151_29 1_555 1_555
N50_29 Co9_5 1_555 1_555
N52_29 C144_29 1_555 1_555
N53_29 C145_29 1_555 1_555
N54_29 C144_29 1_555 1_555
N55_29 C150_29 1_555 1_555
C152_29 N56_29 1_555 1_555
N56_29 Co9_5 1_555 1_555
S8_29 C152_29 1_555 1_555
C155_13 N59_13 1_555 1_555
N59_13 Co11_5 1_555 1_555
S11_13 C155_13 1_555 1_555
C156_13 N60_13 1_555 1_555
N60_13 Co11_5 1_555 1_555
S12_13 C156_13 1_555 1_555
Co17_29 N55_29 1_555 1_555
N64_29 Co9_5 1_555 1_555
N66_13 Co11_5 1_555 1_555
N67_13 Co11_5 1_555 1_555
C133_29 N50_29 1_555 1_555
C137_29 N50_29 1_555 1_555
C139_29 N66_9 1_555 1_555
C143_29 N66_9 1_555 1_555
C145_29 N54_29 1_555 1_555
C146_29 N52_29 1_555 1_555
C146_29 N53_29 1_555 1_555
C151_29 N55_29 1_555 1_555
Co9 N1_30 1_555 1_555
C6_30 N1_30 1_555 1_555
S1_30 C6_30 1_555 1_555
C133_30 H85_30 1_555 1_555
C134_30 C133_30 1_555 1_555
H86_30 C134_30 1_555 1_555
C135_30 C134_30 1_555 1_555
H87_30 C135_30 1_555 1_555
C136_30 C135_30 1_555 1_555
C137_30 C136_30 1_555 1_555
H88_30 C137_30 1_555 1_555
C139_30 H89_30 1_555 1_555
C140_30 C139_30 1_555 1_555
C141_30 C140_30 1_555 1_555
H90_30 C141_30 1_555 1_555
C142_30 C141_30 1_555 1_555
H91_30 C142_30 1_555 1_555
C143_30 C142_30 1_555 1_555
H92_30 C143_30 1_555 1_555
C144_30 C140_30 1_555 1_555
C145_30 C147_30 1_555 1_555
C146_30 C136_30 1_555 1_555
C147_30 C148_30 1_555 1_555
C148_30 H93_30 1_555 1_555
C149_30 C148_30 1_555 1_555
H94_30 C149_30 1_555 1_555
C150_30 C149_30 1_555 1_555
H95_30 C150_30 1_555 1_555
C151_30 C147_30 1_555 1_555
H96_30 C151_30 1_555 1_555
N50_30 Co9 1_555 1_555
N52_30 C144_30 1_555 1_555
N53_30 C145_30 1_555 1_555
N54_30 C144_30 1_555 1_555
N55_30 C150_30 1_555 1_555
C152_30 N56_30 1_555 1_555
N56_30 Co9 1_555 1_555
S8_30 C152_30 1_555 1_555
C155_14 N59_14 1_555 1_555
N59_14 Co11 1_555 1_555
S11_14 C155_14 1_555 1_555
C156_14 N60_14 1_555 1_555
N60_14 Co11 1_555 1_555
S12_14 C156_14 1_555 1_555
Co17_30 N55_30 1_555 1_555
N64_30 Co9 1_555 1_555
N66_14 Co11 1_555 1_555
N67_14 Co11 1_555 1_555
C133_30 N50_30 1_555 1_555
C137_30 N50_30 1_555 1_555
C139_30 N66_12 1_555 1_555
C143_30 N66_12 1_555 1_555
C145_30 N54_30 1_555 1_555
C146_30 N52_30 1_555 1_555
C146_30 N53_30 1_555 1_555
C151_30 N55_30 1_555 1_555
Co9_3 N1_31 1_555 1_555
C6_31 N1_31 1_555 1_555
S1_31 C6_31 1_555 1_555
C134_31 C133_31 1_555 1_555
H86_31 C134_31 1_555 1_555
C135_31 C134_31 1_555 1_555
H87_31 C135_31 1_555 1_555
C136_31 C135_31 1_555 1_555
C137_31 C136_31 1_555 1_555
H88_31 C137_31 1_555 1_555
C139_31 H89_31 1_555 1_555
C140_31 C139_31 1_555 1_555
C141_31 C140_31 1_555 1_555
H90_31 C141_31 1_555 1_555
C142_31 C141_31 1_555 1_555
H91_31 C142_31 1_555 1_555
C143_31 C142_31 1_555 1_555
H92_31 C143_31 1_555 1_555
C144_31 C140_31 1_555 1_555
C145_31 C147_31 1_555 1_555
C146_31 C136_31 1_555 1_555
C147_31 C148_31 1_555 1_555
C148_31 H93_31 1_555 1_555
C149_31 C148_31 1_555 1_555
H94_31 C149_31 1_555 1_555
C150_31 C149_31 1_555 1_555
H95_31 C150_31 1_555 1_555
C151_31 C147_31 1_555 1_555
H96_31 C151_31 1_555 1_555
N50_31 Co9_3 1_555 1_555
N52_31 C144_31 1_555 1_555
N53_31 C145_31 1_555 1_555
N54_31 C144_31 1_555 1_555
N55_31 C150_31 1_555 1_555
Co17_31 N55_31 1_555 1_555
C133_31 N50_31 1_555 1_555
C137_31 N50_31 1_555 1_555
C139_31 N66_10 1_555 1_555
C143_31 N66_10 1_555 1_555
C145_31 N54_31 1_555 1_555
C146_31 N52_31 1_555 1_555
C146_31 N53_31 1_555 1_555
C151_31 N55_31 1_555 1_555
C152_31 N56_31 1_555 1_555
N56_31 Co9_4 1_555 1_555
S8_31 C152_31 1_555 1_555
C155_15 N59_15 1_555 1_555
N59_15 Co11_4 1_555 1_555
S11_15 C155_15 1_555 1_555
C156_15 N60_15 1_555 1_555
N60_15 Co11_4 1_555 1_555
S12_15 C156_15 1_555 1_555
N64_31 Co9_4 1_555 1_555
N66_15 Co11_4 1_555 1_555
N67_15 Co11_4 1_555 1_555
C155_16 N59_16 1_555 1_555
N59_16 Co11_2 1_555 1_555
S11_16 C155_16 1_555 1_555
N66_16 Co11_2 1_555 1_555
Co9_2 N1_32 1_555 1_555
C6_32 N1_32 1_555 1_555
S1_32 C6_32 1_555 1_555
C133_32 H85_32 1_555 1_555
C134_32 C133_32 1_555 1_555
H86_32 C134_32 1_555 1_555
C135_32 C134_32 1_555 1_555
H87_32 C135_32 1_555 1_555
C136_32 C135_32 1_555 1_555
C137_32 C136_32 1_555 1_555
H88_32 C137_32 1_555 1_555
C139_32 H89_32 1_555 1_555
C140_32 C139_32 1_555 1_555
C141_32 C140_32 1_555 1_555
H90_32 C141_32 1_555 1_555
C142_32 C141_32 1_555 1_555
H91_32 C142_32 1_555 1_555
C143_32 C142_32 1_555 1_555
H92_32 C143_32 1_555 1_555
C144_32 C140_32 1_555 1_555
C145_32 C147_32 1_555 1_555
C146_32 C136_32 1_555 1_555
C147_32 C148_32 1_555 1_555
C148_32 H93_32 1_555 1_555
C149_32 C148_32 1_555 1_555
H94_32 C149_32 1_555 1_555
C150_32 C149_32 1_555 1_555
H95_32 C150_32 1_555 1_555
C151_32 C147_32 1_555 1_555
H96_32 C151_32 1_555 1_555
N50_32 Co9_2 1_555 1_555
N52_32 C144_32 1_555 1_555
N53_32 C145_32 1_555 1_555
N54_32 C144_32 1_555 1_555
N55_32 C150_32 1_555 1_555
C152_32 N56_32 1_555 1_555
N56_32 Co9_2 1_555 1_555
S8_32 C152_32 1_555 1_555
C156_16 N60_16 1_555 1_555
N60_16 Co11_3 1_555 1_555
S12_16 C156_16 1_555 1_555
Co17_32 N55_32 1_555 1_555
N64_32 Co9_2 1_555 1_555
N67_16 Co11_3 1_555 1_555
C133_32 N50_32 1_555 1_555
C137_32 N50_32 1_555 1_555
C139_32 N66_11 1_555 1_555
C143_32 N66_11 1_555 1_555
C145_32 N54_32 1_555 1_555
C146_32 N52_32 1_555 1_555
C146_32 N53_32 1_555 1_555
C151_32 N55_32 1_555 1_555
C134_33 C133_33 1_555 1_555
H86_33 C134_33 1_555 1_555
C135_33 C134_33 1_555 1_555
H87_33 C135_33 1_555 1_555
C136_33 C135_33 1_555 1_555
C137_33 C136_33 1_555 1_555
H88_33 C137_33 1_555 1_555
C139_33 H89_33 1_555 1_555
C140_33 C139_33 1_555 1_555
C141_33 C140_33 1_555 1_555
H90_33 C141_33 1_555 1_555
C142_33 C141_33 1_555 1_555
H91_33 C142_33 1_555 1_555
C143_33 C142_33 1_555 1_555
H92_33 C143_33 1_555 1_555
C144_33 C140_33 1_555 1_555
C145_33 C147_33 1_555 1_555
C146_33 C136_33 1_555 1_555
C147_33 C148_33 1_555 1_555
C148_33 H93_33 1_555 1_555
C149_33 C148_33 1_555 1_555
H94_33 C149_33 1_555 1_555
C150_33 C149_33 1_555 1_555
H95_33 C150_33 1_555 1_555
C151_33 C147_33 1_555 1_555
H96_33 C151_33 1_555 1_555
N52_33 C144_33 1_555 1_555
N53_33 C145_33 1_555 1_555
N54_33 C144_33 1_555 1_555
N55_33 C150_33 1_555 1_555
Co17_12 N55_33 1_555 1_555
C133_33 N64_16 1_555 1_555
C137_33 N64_16 1_555 1_555
C139_33 N66_13 1_555 1_555
C143_33 N66_13 1_555 1_555
C145_33 N54_33 1_555 1_555
C146_33 N52_33 1_555 1_555
C146_33 N53_33 1_555 1_555
C151_33 N55_33 1_555 1_555
C133_34 H85_34 1_555 1_555
C134_34 C133_34 1_555 1_555
H86_34 C134_34 1_555 1_555
C135_34 C134_34 1_555 1_555
H87_34 C135_34 1_555 1_555
C136_34 C135_34 1_555 1_555
C137_34 C136_34 1_555 1_555
H88_34 C137_34 1_555 1_555
C139_34 H89_34 1_555 1_555
C140_34 C139_34 1_555 1_555
C141_34 C140_34 1_555 1_555
H90_34 C141_34 1_555 1_555
C142_34 C141_34 1_555 1_555
H91_34 C142_34 1_555 1_555
C143_34 C142_34 1_555 1_555
H92_34 C143_34 1_555 1_555
C144_34 C140_34 1_555 1_555
C145_34 C147_34 1_555 1_555
C146_34 C136_34 1_555 1_555
C147_34 C148_34 1_555 1_555
C148_34 H93_34 1_555 1_555
C149_34 C148_34 1_555 1_555
H94_34 C149_34 1_555 1_555
C150_34 C149_34 1_555 1_555
H95_34 C150_34 1_555 1_555
C151_34 C147_34 1_555 1_555
H96_34 C151_34 1_555 1_555
N52_34 C144_34 1_555 1_555
N53_34 C145_34 1_555 1_555
N54_34 C144_34 1_555 1_555
N55_34 C150_34 1_555 1_555
Co17_11 N55_34 1_555 1_555
C133_34 N64_13 1_555 1_555
C137_34 N64_13 1_555 1_555
C139_34 N66_16 1_555 1_555
C143_34 N66_16 1_555 1_555
C145_34 N54_34 1_555 1_555
C146_34 N52_34 1_555 1_555
C146_34 N53_34 1_555 1_555
C151_34 N55_34 1_555 1_555
C133_35 H85_35 1_555 1_555
C134_35 C133_35 1_555 1_555
H86_35 C134_35 1_555 1_555
C135_35 C134_35 1_555 1_555
H87_35 C135_35 1_555 1_555
C136_35 C135_35 1_555 1_555
C137_35 C136_35 1_555 1_555
H88_35 C137_35 1_555 1_555
C139_35 H89_35 1_555 1_555
C140_35 C139_35 1_555 1_555
C141_35 C140_35 1_555 1_555
H90_35 C141_35 1_555 1_555
C142_35 C141_35 1_555 1_555
H91_35 C142_35 1_555 1_555
C143_35 C142_35 1_555 1_555
H92_35 C143_35 1_555 1_555
C144_35 C140_35 1_555 1_555
C145_35 C147_35 1_555 1_555
C146_35 C136_35 1_555 1_555
C147_35 C148_35 1_555 1_555
C148_35 H93_35 1_555 1_555
C149_35 C148_35 1_555 1_555
H94_35 C149_35 1_555 1_555
C150_35 C149_35 1_555 1_555
H95_35 C150_35 1_555 1_555
C151_35 C147_35 1_555 1_555
H96_35 C151_35 1_555 1_555
N52_35 C144_35 1_555 1_555
N53_35 C145_35 1_555 1_555
N54_35 C144_35 1_555 1_555
N55_35 C150_35 1_555 1_555
Co17_10 N55_35 1_555 1_555
C133_35 N64_14 1_555 1_555
C137_35 N64_14 1_555 1_555
C139_35 N66_14 1_555 1_555
C143_35 N66_14 1_555 1_555
C145_35 N54_35 1_555 1_555
C146_35 N52_35 1_555 1_555
C146_35 N53_35 1_555 1_555
C151_35 N55_35 1_555 1_555
C133_36 H85_36 1_555 1_555
C134_36 C133_36 1_555 1_555
H86_36 C134_36 1_555 1_555
C135_36 C134_36 1_555 1_555
H87_36 C135_36 1_555 1_555
C136_36 C135_36 1_555 1_555
C137_36 C136_36 1_555 1_555
H88_36 C137_36 1_555 1_555
C139_36 H89_36 1_555 1_555
C140_36 C139_36 1_555 1_555
C141_36 C140_36 1_555 1_555
H90_36 C141_36 1_555 1_555
C142_36 C141_36 1_555 1_555
H91_36 C142_36 1_555 1_555
C143_36 C142_36 1_555 1_555
H92_36 C143_36 1_555 1_555
C144_36 C140_36 1_555 1_555
C145_36 C147_36 1_555 1_555
C146_36 C136_36 1_555 1_555
C147_36 C148_36 1_555 1_555
C148_36 H93_36 1_555 1_555
C149_36 C148_36 1_555 1_555
H94_36 C149_36 1_555 1_555
C150_36 C149_36 1_555 1_555
H95_36 C150_36 1_555 1_555
C151_36 C147_36 1_555 1_555
H96_36 C151_36 1_555 1_555
N52_36 C144_36 1_555 1_555
N53_36 C145_36 1_555 1_555
N54_36 C144_36 1_555 1_555
N55_36 C150_36 1_555 1_555
Co17_9 N55_36 1_555 1_555
C133_36 N64_15 1_555 1_555
C137_36 N64_15 1_555 1_555
C139_36 N66_15 1_555 1_555
C143_36 N66_15 1_555 1_555
C145_36 N54_36 1_555 1_555
C146_36 N52_36 1_555 1_555
C146_36 N53_36 1_555 1_555
C151_36 N55_36 1_555 1_555
C133_37 H85_37 1_555 1_555
C134_37 C133_37 1_555 1_555
H86_37 C134_37 1_555 1_555
C135_37 C134_37 1_555 1_555
H87_37 C135_37 1_555 1_555
C136_37 C135_37 1_555 1_555
C137_37 C136_37 1_555 1_555
H88_37 C137_37 1_555 1_555
C139_37 H89_37 1_555 1_555
C140_37 C139_37 1_555 1_555
C141_37 C140_37 1_555 1_555
H90_37 C141_37 1_555 1_555
C142_37 C141_37 1_555 1_555
H91_37 C142_37 1_555 1_555
C143_37 C142_37 1_555 1_555
H92_37 C143_37 1_555 1_555
C144_37 C140_37 1_555 1_555
C145_37 C147_37 1_555 1_555
C146_37 C136_37 1_555 1_555
C147_37 C148_37 1_555 1_555
C148_37 H93_37 1_555 1_555
C149_37 C148_37 1_555 1_555
H94_37 C149_37 1_555 1_555
C150_37 C149_37 1_555 1_555
H95_37 C150_37 1_555 1_555
C151_37 C147_37 1_555 1_555
H96_37 C151_37 1_555 1_555
N52_37 C144_37 1_555 1_555
N53_37 C145_37 1_555 1_555
N54_37 C144_37 1_555 1_555
N55_37 C150_37 1_555 1_555
Co17_16 N55_37 1_555 1_555
C133_37 N64_10 1_555 1_555
C137_37 N64_10 1_555 1_555
C139_37 N68_5 1_555 1_555
C143_37 N68_5 1_555 1_555
C145_37 N54_37 1_555 1_555
C146_37 N52_37 1_555 1_555
C146_37 N53_37 1_555 1_555
C151_37 N55_37 1_555 1_555
C133_38 H85_38 1_555 1_555
C134_38 C133_38 1_555 1_555
H86_38 C134_38 1_555 1_555
C135_38 C134_38 1_555 1_555
H87_38 C135_38 1_555 1_555
C136_38 C135_38 1_555 1_555
C137_38 C136_38 1_555 1_555
H88_38 C137_38 1_555 1_555
C139_38 H89_38 1_555 1_555
C140_38 C139_38 1_555 1_555
C141_38 C140_38 1_555 1_555
H90_38 C141_38 1_555 1_555
C142_38 C141_38 1_555 1_555
H91_38 C142_38 1_555 1_555
C143_38 C142_38 1_555 1_555
H92_38 C143_38 1_555 1_555
C144_38 C140_38 1_555 1_555
C145_38 C147_38 1_555 1_555
C146_38 C136_38 1_555 1_555
C147_38 C148_38 1_555 1_555
C148_38 H93_38 1_555 1_555
C149_38 C148_38 1_555 1_555
H94_38 C149_38 1_555 1_555
C150_38 C149_38 1_555 1_555
H95_38 C150_38 1_555 1_555
C151_38 C147_38 1_555 1_555
H96_38 C151_38 1_555 1_555
N52_38 C144_38 1_555 1_555
N53_38 C145_38 1_555 1_555
N54_38 C144_38 1_555 1_555
N55_38 C150_38 1_555 1_555
Co17_15 N55_38 1_555 1_555
C133_38 N64_11 1_555 1_555
C137_38 N64_11 1_555 1_555
C139_38 N68_6 1_555 1_555
C143_38 N68_6 1_555 1_555
C145_38 N54_38 1_555 1_555
C146_38 N52_38 1_555 1_555
C146_38 N53_38 1_555 1_555
C151_38 N55_38 1_555 1_555
C133_39 H85_39 1_555 1_555
C134_39 C133_39 1_555 1_555
H86_39 C134_39 1_555 1_555
C135_39 C134_39 1_555 1_555
H87_39 C135_39 1_555 1_555
C136_39 C135_39 1_555 1_555
C137_39 C136_39 1_555 1_555
H88_39 C137_39 1_555 1_555
C139_39 H89_39 1_555 1_555
C140_39 C139_39 1_555 1_555
C141_39 C140_39 1_555 1_555
H90_39 C141_39 1_555 1_555
C142_39 C141_39 1_555 1_555
H91_39 C142_39 1_555 1_555
C143_39 C142_39 1_555 1_555
H92_39 C143_39 1_555 1_555
C144_39 C140_39 1_555 1_555
C145_39 C147_39 1_555 1_555
C146_39 C136_39 1_555 1_555
C147_39 C148_39 1_555 1_555
C148_39 H93_39 1_555 1_555
C149_39 C148_39 1_555 1_555
H94_39 C149_39 1_555 1_555
C150_39 C149_39 1_555 1_555
H95_39 C150_39 1_555 1_555
C151_39 C147_39 1_555 1_555
H96_39 C151_39 1_555 1_555
N52_39 C144_39 1_555 1_555
N53_39 C145_39 1_555 1_555
N54_39 C144_39 1_555 1_555
N55_39 C150_39 1_555 1_555
Co17_14 N55_39 1_555 1_555
C133_39 N64_12 1_555 1_555
C137_39 N64_12 1_555 1_555
C139_39 N68_8 1_555 1_555
C143_39 N68_8 1_555 1_555
C145_39 N54_39 1_555 1_555
C146_39 N52_39 1_555 1_555
C146_39 N53_39 1_555 1_555
C151_39 N55_39 1_555 1_555
C134_40 C133_40 1_555 1_555
H86_40 C134_40 1_555 1_555
C135_40 C134_40 1_555 1_555
H87_40 C135_40 1_555 1_555
C136_40 C135_40 1_555 1_555
C137_40 C136_40 1_555 1_555
H88_40 C137_40 1_555 1_555
C139_40 H89_40 1_555 1_555
C140_40 C139_40 1_555 1_555
C141_40 C140_40 1_555 1_555
H90_40 C141_40 1_555 1_555
C142_40 C141_40 1_555 1_555
H91_40 C142_40 1_555 1_555
C143_40 C142_40 1_555 1_555
H92_40 C143_40 1_555 1_555
C144_40 C140_40 1_555 1_555
C145_40 C147_40 1_555 1_555
C146_40 C136_40 1_555 1_555
C147_40 C148_40 1_555 1_555
C148_40 H93_40 1_555 1_555
C149_40 C148_40 1_555 1_555
H94_40 C149_40 1_555 1_555
C150_40 C149_40 1_555 1_555
H95_40 C150_40 1_555 1_555
C151_40 C147_40 1_555 1_555
H96_40 C151_40 1_555 1_555
N52_40 C144_40 1_555 1_555
N53_40 C145_40 1_555 1_555
N54_40 C144_40 1_555 1_555
N55_40 C150_40 1_555 1_555
Co17_13 N55_40 1_555 1_555
C133_40 N64_9 1_555 1_555
C137_40 N64_9 1_555 1_555
C139_40 N68_7 1_555 1_555
C143_40 N68_7 1_555 1_555
C145_40 N54_40 1_555 1_555
C146_40 N52_40 1_555 1_555
C146_40 N53_40 1_555 1_555
C151_40 N55_40 1_555 1_555
Co10 N1_33 1_555 1_555
C6_33 N1_33 1_555 1_555
S1_33 C6_33 1_555 1_555
C133_41 H85_41 1_555 1_555
C134_41 C133_41 1_555 1_555
H86_41 C134_41 1_555 1_555
C135_41 C134_41 1_555 1_555
H87_41 C135_41 1_555 1_555
C136_41 C135_41 1_555 1_555
C137_41 C136_41 1_555 1_555
H88_41 C137_41 1_555 1_555
C139_41 H89_41 1_555 1_555
C140_41 C139_41 1_555 1_555
C141_41 C140_41 1_555 1_555
H90_41 C141_41 1_555 1_555
C142_41 C141_41 1_555 1_555
H91_41 C142_41 1_555 1_555
C143_41 C142_41 1_555 1_555
H92_41 C143_41 1_555 1_555
C144_41 C140_41 1_555 1_555
C145_41 C147_41 1_555 1_555
C146_41 C136_41 1_555 1_555
C147_41 C148_41 1_555 1_555
C148_41 H93_41 1_555 1_555
C149_41 C148_41 1_555 1_555
H94_41 C149_41 1_555 1_555
C150_41 C149_41 1_555 1_555
H95_41 C150_41 1_555 1_555
C151_41 C147_41 1_555 1_555
H96_41 C151_41 1_555 1_555
N50_33 Co10 1_555 1_555
N52_41 C144_41 1_555 1_555
N53_41 C145_41 1_555 1_555
N54_41 C144_41 1_555 1_555
N55_41 C150_41 1_555 1_555
C152_33 N56_33 1_555 1_555
N56_33 Co10 1_555 1_555
S8_33 C152_33 1_555 1_555
Co17_33 N55_41 1_555 1_555
N64_33 Co10 1_555 1_555
C133_41 N50_33 1_555 1_555
C137_41 N50_33 1_555 1_555
C139_41 N67_14 1_555 1_555
C143_41 N67_14 1_555 1_555
C145_41 N54_41 1_555 1_555
C146_41 N52_41 1_555 1_555
C146_41 N53_41 1_555 1_555
C151_41 N55_41 1_555 1_555
Co10_4 N1_34 1_555 1_555
C6_34 N1_34 1_555 1_555
S1_34 C6_34 1_555 1_555
C133_42 H85_42 1_555 1_555
C134_42 C133_42 1_555 1_555
H86_42 C134_42 1_555 1_555
C135_42 C134_42 1_555 1_555
H87_42 C135_42 1_555 1_555
C136_42 C135_42 1_555 1_555
C137_42 C136_42 1_555 1_555
H88_42 C137_42 1_555 1_555
C139_42 H89_42 1_555 1_555
C140_42 C139_42 1_555 1_555
C141_42 C140_42 1_555 1_555
H90_42 C141_42 1_555 1_555
C142_42 C141_42 1_555 1_555
H91_42 C142_42 1_555 1_555
C143_42 C142_42 1_555 1_555
H92_42 C143_42 1_555 1_555
C144_42 C140_42 1_555 1_555
C145_42 C147_42 1_555 1_555
C146_42 C136_42 1_555 1_555
C147_42 C148_42 1_555 1_555
C148_42 H93_42 1_555 1_555
C149_42 C148_42 1_555 1_555
H94_42 C149_42 1_555 1_555
C150_42 C149_42 1_555 1_555
H95_42 C150_42 1_555 1_555
C151_42 C147_42 1_555 1_555
H96_42 C151_42 1_555 1_555
N50_34 Co10_4 1_555 1_555
N52_42 C144_42 1_555 1_555
N53_42 C145_42 1_555 1_555
N54_42 C144_42 1_555 1_555
N55_42 C150_42 1_555 1_555
C152_34 N56_34 1_555 1_555
N56_34 Co10_4 1_555 1_555
S8_34 C152_34 1_555 1_555
Co17_34 N55_42 1_555 1_555
N64_34 Co10_4 1_555 1_555
C133_42 N50_34 1_555 1_555
C137_42 N50_34 1_555 1_555
C139_42 N67_15 1_555 1_555
C143_42 N67_15 1_555 1_555
C145_42 N54_42 1_555 1_555
C146_42 N52_42 1_555 1_555
C146_42 N53_42 1_555 1_555
C151_42 N55_42 1_555 1_555
C152_35 N56_35 1_555 1_555
N56_35 Co10_2 1_555 1_555
S8_35 C152_35 1_555 1_555
N64_35 Co10_2 1_555 1_555
Co10_3 N1_35 1_555 1_555
C6_35 N1_35 1_555 1_555
S1_35 C6_35 1_555 1_555
C134_43 C133_43 1_555 1_555
H86_43 C134_43 1_555 1_555
C135_43 C134_43 1_555 1_555
H87_43 C135_43 1_555 1_555
C136_43 C135_43 1_555 1_555
C137_43 C136_43 1_555 1_555
H88_43 C137_43 1_555 1_555
C139_43 H89_43 1_555 1_555
C140_43 C139_43 1_555 1_555
C141_43 C140_43 1_555 1_555
H90_43 C141_43 1_555 1_555
C142_43 C141_43 1_555 1_555
H91_43 C142_43 1_555 1_555
C143_43 C142_43 1_555 1_555
H92_43 C143_43 1_555 1_555
C144_43 C140_43 1_555 1_555
C145_43 C147_43 1_555 1_555
C146_43 C136_43 1_555 1_555
C147_43 C148_43 1_555 1_555
C148_43 H93_43 1_555 1_555
C149_43 C148_43 1_555 1_555
H94_43 C149_43 1_555 1_555
C150_43 C149_43 1_555 1_555
H95_43 C150_43 1_555 1_555
C151_43 C147_43 1_555 1_555
H96_43 C151_43 1_555 1_555
N50_35 Co10_3 1_555 1_555
N52_43 C144_43 1_555 1_555
N53_43 C145_43 1_555 1_555
N54_43 C144_43 1_555 1_555
N55_43 C150_43 1_555 1_555
Co17_35 N55_43 1_555 1_555
C133_43 N50_35 1_555 1_555
C137_43 N50_35 1_555 1_555
C139_43 N67_16 1_555 1_555
C143_43 N67_16 1_555 1_555
C145_43 N54_43 1_555 1_555
C146_43 N52_43 1_555 1_555
C146_43 N53_43 1_555 1_555
C151_43 N55_43 1_555 1_555
Co10_5 N1_36 1_555 1_555
C6_36 N1_36 1_555 1_555
S1_36 C6_36 1_555 1_555
C133_44 H85_44 1_555 1_555
C134_44 C133_44 1_555 1_555
H86_44 C134_44 1_555 1_555
C135_44 C134_44 1_555 1_555
H87_44 C135_44 1_555 1_555
C136_44 C135_44 1_555 1_555
C137_44 C136_44 1_555 1_555
H88_44 C137_44 1_555 1_555
C139_44 H89_44 1_555 1_555
C140_44 C139_44 1_555 1_555
C141_44 C140_44 1_555 1_555
H90_44 C141_44 1_555 1_555
C142_44 C141_44 1_555 1_555
H91_44 C142_44 1_555 1_555
C143_44 C142_44 1_555 1_555
H92_44 C143_44 1_555 1_555
C144_44 C140_44 1_555 1_555
C145_44 C147_44 1_555 1_555
C146_44 C136_44 1_555 1_555
C147_44 C148_44 1_555 1_555
C148_44 H93_44 1_555 1_555
C149_44 C148_44 1_555 1_555
H94_44 C149_44 1_555 1_555
C150_44 C149_44 1_555 1_555
H95_44 C150_44 1_555 1_555
C151_44 C147_44 1_555 1_555
H96_44 C151_44 1_555 1_555
N50_36 Co10_5 1_555 1_555
N52_44 C144_44 1_555 1_555
N53_44 C145_44 1_555 1_555
N54_44 C144_44 1_555 1_555
N55_44 C150_44 1_555 1_555
C152_36 N56_36 1_555 1_555
N56_36 Co10_5 1_555 1_555
S8_36 C152_36 1_555 1_555
Co17_36 N55_44 1_555 1_555
N64_36 Co10_5 1_555 1_555
C133_44 N50_36 1_555 1_555
C137_44 N50_36 1_555 1_555
C139_44 N67_13 1_555 1_555
C143_44 N67_13 1_555 1_555
C145_44 N54_44 1_555 1_555
C146_44 N52_44 1_555 1_555
C146_44 N53_44 1_555 1_555
C151_44 N55_44 1_555 1_555
Co9_12 N1_37 1_555 1_555
C6_37 N1_37 1_555 1_555
S1_37 C6_37 1_555 1_555
C133_45 H85_45 1_555 1_555
C134_45 C133_45 1_555 1_555
H86_45 C134_45 1_555 1_555
C135_45 C134_45 1_555 1_555
H87_45 C135_45 1_555 1_555
C136_45 C135_45 1_555 1_555
C137_45 C136_45 1_555 1_555
H88_45 C137_45 1_555 1_555
C139_45 H89_45 1_555 1_555
C140_45 C139_45 1_555 1_555
C141_45 C140_45 1_555 1_555
H90_45 C141_45 1_555 1_555
C142_45 C141_45 1_555 1_555
H91_45 C142_45 1_555 1_555
C143_45 C142_45 1_555 1_555
H92_45 C143_45 1_555 1_555
C144_45 C140_45 1_555 1_555
C145_45 C147_45 1_555 1_555
C146_45 C136_45 1_555 1_555
C147_45 C148_45 1_555 1_555
C148_45 H93_45 1_555 1_555
C149_45 C148_45 1_555 1_555
H94_45 C149_45 1_555 1_555
C150_45 C149_45 1_555 1_555
H95_45 C150_45 1_555 1_555
C151_45 C147_45 1_555 1_555
H96_45 C151_45 1_555 1_555
N50_37 Co9_12 1_555 1_555
N52_45 C144_45 1_555 1_555
N53_45 C145_45 1_555 1_555
N54_45 C144_45 1_555 1_555
N55_45 C150_45 1_555 1_555
C152_37 N56_37 1_555 1_555
N56_37 Co9_12 1_555 1_555
S8_37 C152_37 1_555 1_555
Co17_37 N55_45 1_555 1_555
N64_37 Co9_12 1_555 1_555
C133_45 N50_37 1_555 1_555
C137_45 N50_37 1_555 1_555
C139_45 N67_11 1_555 1_555
C143_45 N67_11 1_555 1_555
C145_45 N54_45 1_555 1_555
C146_45 N52_45 1_555 1_555
C146_45 N53_45 1_555 1_555
C151_45 N55_45 1_555 1_555
Co9_15 N1_38 1_555 1_555
C6_38 N1_38 1_555 1_555
S1_38 C6_38 1_555 1_555
C133_46 H85_46 1_555 1_555
C134_46 C133_46 1_555 1_555
H86_46 C134_46 1_555 1_555
C135_46 C134_46 1_555 1_555
H87_46 C135_46 1_555 1_555
C136_46 C135_46 1_555 1_555
C137_46 C136_46 1_555 1_555
H88_46 C137_46 1_555 1_555
C139_46 H89_46 1_555 1_555
C140_46 C139_46 1_555 1_555
C141_46 C140_46 1_555 1_555
H90_46 C141_46 1_555 1_555
C142_46 C141_46 1_555 1_555
H91_46 C142_46 1_555 1_555
C143_46 C142_46 1_555 1_555
H92_46 C143_46 1_555 1_555
C144_46 C140_46 1_555 1_555
C145_46 C147_46 1_555 1_555
C146_46 C136_46 1_555 1_555
C147_46 C148_46 1_555 1_555
C148_46 H93_46 1_555 1_555
C149_46 C148_46 1_555 1_555
H94_46 C149_46 1_555 1_555
C150_46 C149_46 1_555 1_555
H95_46 C150_46 1_555 1_555
C151_46 C147_46 1_555 1_555
H96_46 C151_46 1_555 1_555
N50_38 Co9_15 1_555 1_555
N52_46 C144_46 1_555 1_555
N53_46 C145_46 1_555 1_555
N54_46 C144_46 1_555 1_555
N55_46 C150_46 1_555 1_555
C152_38 N56_38 1_555 1_555
N56_38 Co9_15 1_555 1_555
S8_38 C152_38 1_555 1_555
Co17_38 N55_46 1_555 1_555
N64_38 Co9_15 1_555 1_555
C133_46 N50_38 1_555 1_555
C137_46 N50_38 1_555 1_555
C139_46 N67_10 1_555 1_555
C143_46 N67_10 1_555 1_555
C145_46 N54_46 1_555 1_555
C146_46 N52_46 1_555 1_555
C146_46 N53_46 1_555 1_555
C151_46 N55_46 1_555 1_555
Co9_11 N1_39 1_555 1_555
C6_39 N1_39 1_555 1_555
S1_39 C6_39 1_555 1_555
C133_47 H85_47 1_555 1_555
C134_47 C133_47 1_555 1_555
H86_47 C134_47 1_555 1_555
C135_47 C134_47 1_555 1_555
H87_47 C135_47 1_555 1_555
C136_47 C135_47 1_555 1_555
C137_47 C136_47 1_555 1_555
H88_47 C137_47 1_555 1_555
C139_47 H89_47 1_555 1_555
C140_47 C139_47 1_555 1_555
C141_47 C140_47 1_555 1_555
H90_47 C141_47 1_555 1_555
C142_47 C141_47 1_555 1_555
H91_47 C142_47 1_555 1_555
C143_47 C142_47 1_555 1_555
H92_47 C143_47 1_555 1_555
C144_47 C140_47 1_555 1_555
C145_47 C147_47 1_555 1_555
C146_47 C136_47 1_555 1_555
C147_47 C148_47 1_555 1_555
C148_47 H93_47 1_555 1_555
C149_47 C148_47 1_555 1_555
H94_47 C149_47 1_555 1_555
C150_47 C149_47 1_555 1_555
H95_47 C150_47 1_555 1_555
C151_47 C147_47 1_555 1_555
H96_47 C151_47 1_555 1_555
N50_39 Co9_11 1_555 1_555
N52_47 C144_47 1_555 1_555
N53_47 C145_47 1_555 1_555
N54_47 C144_47 1_555 1_555
N55_47 C150_47 1_555 1_555
C152_39 N56_39 1_555 1_555
N56_39 Co9_11 1_555 1_555
S8_39 C152_39 1_555 1_555
Co17_39 N55_47 1_555 1_555
N64_39 Co9_11 1_555 1_555
C133_47 N50_39 1_555 1_555
C137_47 N50_39 1_555 1_555
C139_47 N67_9 1_555 1_555
C143_47 N67_9 1_555 1_555
C145_47 N54_47 1_555 1_555
C146_47 N52_47 1_555 1_555
C146_47 N53_47 1_555 1_555
C151_47 N55_47 1_555 1_555
C152_40 N56_40 1_555 1_555
N56_40 Co9_13 1_555 1_555
S8_40 C152_40 1_555 1_555
N64_40 Co9_13 1_555 1_555
Co9_14 N1_40 1_555 1_555
C6_40 N1_40 1_555 1_555
S1_40 C6_40 1_555 1_555
C134_48 C133_48 1_555 1_555
H86_48 C134_48 1_555 1_555
C135_48 C134_48 1_555 1_555
H87_48 C135_48 1_555 1_555
C136_48 C135_48 1_555 1_555
C137_48 C136_48 1_555 1_555
H88_48 C137_48 1_555 1_555
C139_48 H89_48 1_555 1_555
C140_48 C139_48 1_555 1_555
C141_48 C140_48 1_555 1_555
H90_48 C141_48 1_555 1_555
C142_48 C141_48 1_555 1_555
H91_48 C142_48 1_555 1_555
C143_48 C142_48 1_555 1_555
H92_48 C143_48 1_555 1_555
C144_48 C140_48 1_555 1_555
C145_48 C147_48 1_555 1_555
C146_48 C136_48 1_555 1_555
C147_48 C148_48 1_555 1_555
C148_48 H93_48 1_555 1_555
C149_48 C148_48 1_555 1_555
H94_48 C149_48 1_555 1_555
C150_48 C149_48 1_555 1_555
H95_48 C150_48 1_555 1_555
C151_48 C147_48 1_555 1_555
H96_48 C151_48 1_555 1_555
N50_40 Co9_14 1_555 1_555
N52_48 C144_48 1_555 1_555
N53_48 C145_48 1_555 1_555
N54_48 C144_48 1_555 1_555
N55_48 C150_48 1_555 1_555
Co17_40 N55_48 1_555 1_555
C133_48 N50_40 1_555 1_555
C137_48 N50_40 1_555 1_555
C139_48 N67_12 1_555 1_555
C143_48 N67_12 1_555 1_555
C145_48 N54_48 1_555 1_555
C146_48 N52_48 1_555 1_555
C146_48 N53_48 1_555 1_555
C151_48 N55_48 1_555 1_555
Co11_10 N49_9 1_555 1_555
C134_49 C133_49 1_555 1_555
H86_49 C134_49 1_555 1_555
C135_49 C134_49 1_555 1_555
H87_49 C135_49 1_555 1_555
C136_49 C135_49 1_555 1_555
C137_49 C136_49 1_555 1_555
H88_49 C137_49 1_555 1_555
C138_9 N49_9 1_555 1_555
C139_49 H89_49 1_555 1_555
C140_49 C139_49 1_555 1_555
C141_49 C140_49 1_555 1_555
H90_49 C141_49 1_555 1_555
C142_49 C141_49 1_555 1_555
H91_49 C142_49 1_555 1_555
C143_49 C142_49 1_555 1_555
H92_49 C143_49 1_555 1_555
C144_49 C140_49 1_555 1_555
C145_49 C147_49 1_555 1_555
C146_49 C136_49 1_555 1_555
C147_49 C148_49 1_555 1_555
C148_49 H93_49 1_555 1_555
C149_49 C148_49 1_555 1_555
H94_49 C149_49 1_555 1_555
C150_49 C149_49 1_555 1_555
H95_49 C150_49 1_555 1_555
C151_49 C147_49 1_555 1_555
H96_49 C151_49 1_555 1_555
N51_9 Co11_10 1_555 1_555
N52_49 C144_49 1_555 1_555
N53_49 C145_49 1_555 1_555
N54_49 C144_49 1_555 1_555
N55_49 C150_49 1_555 1_555
S7_9 C138_9 1_555 1_555
C154_9 N58_9 1_555 1_555
N58_9 Co11_10 1_555 1_555
S10_9 C154_9 1_555 1_555
Co17_4 N55_49 1_555 1_555
N68_9 Co11_10 1_555 1_555
C133_49 N64_22 1_555 1_555
C137_49 N64_22 1_555 1_555
C139_49 N51_9 1_555 1_555
C143_49 N51_9 1_555 1_555
C145_49 N54_49 1_555 1_555
C146_49 N52_49 1_555 1_555
C146_49 N53_49 1_555 1_555
C151_49 N55_49 1_555 1_555
C155_17 N59_17 1_555 1_555
N59_17 Co12_2 1_555 1_555
S11_17 C155_17 1_555 1_555
C156_17 N60_17 1_555 1_555
N60_17 Co12_2 1_555 1_555
S12_17 C156_17 1_555 1_555
N66_17 Co12_2 1_555 1_555
N67_17 Co12_2 1_555 1_555
C133_50 H85_50 1_555 1_555
C134_50 C133_50 1_555 1_555
H86_50 C134_50 1_555 1_555
C135_50 C134_50 1_555 1_555
H87_50 C135_50 1_555 1_555
C136_50 C135_50 1_555 1_555
C137_50 C136_50 1_555 1_555
H88_50 C137_50 1_555 1_555
C139_50 H89_50 1_555 1_555
C140_50 C139_50 1_555 1_555
C141_50 C140_50 1_555 1_555
H90_50 C141_50 1_555 1_555
C142_50 C141_50 1_555 1_555
H91_50 C142_50 1_555 1_555
C143_50 C142_50 1_555 1_555
H92_50 C143_50 1_555 1_555
C144_50 C140_50 1_555 1_555
C145_50 C147_50 1_555 1_555
C146_50 C136_50 1_555 1_555
C147_50 C148_50 1_555 1_555
C148_50 H93_50 1_555 1_555
C149_50 C148_50 1_555 1_555
H94_50 C149_50 1_555 1_555
C150_50 C149_50 1_555 1_555
H95_50 C150_50 1_555 1_555
C151_50 C147_50 1_555 1_555
H96_50 C151_50 1_555 1_555
N51_10 Co11_7 1_555 1_555
N52_50 C144_50 1_555 1_555
N53_50 C145_50 1_555 1_555
N54_50 C144_50 1_555 1_555
N55_50 C150_50 1_555 1_555
C154_10 N58_10 1_555 1_555
N58_10 Co11_7 1_555 1_555
S10_10 C154_10 1_555 1_555
C155_18 N59_18 1_555 1_555
N59_18 Co12 1_555 1_555
S11_18 C155_18 1_555 1_555
C156_18 N60_18 1_555 1_555
N60_18 Co12 1_555 1_555
S12_18 C156_18 1_555 1_555
Co17_3 N55_50 1_555 1_555
N66_18 Co12 1_555 1_555
N67_18 Co12 1_555 1_555
C133_50 N64_23 1_555 1_555
C137_50 N64_23 1_555 1_555
C139_50 N51_10 1_555 1_555
C143_50 N51_10 1_555 1_555
C145_50 N54_50 1_555 1_555
C146_50 N52_50 1_555 1_555
C146_50 N53_50 1_555 1_555
C151_50 N55_50 1_555 1_555
Co11_8 N49_10 1_555 1_555
C138_10 N49_10 1_555 1_555
S7_10 C138_10 1_555 1_555
N68_10 Co11_8 1_555 1_555
Co11_6 N49_11 1_555 1_555
C133_51 H85_51 1_555 1_555
C134_51 C133_51 1_555 1_555
H86_51 C134_51 1_555 1_555
C135_51 C134_51 1_555 1_555
H87_51 C135_51 1_555 1_555
C136_51 C135_51 1_555 1_555
C137_51 C136_51 1_555 1_555
H88_51 C137_51 1_555 1_555
C138_11 N49_11 1_555 1_555
C139_51 H89_51 1_555 1_555
C140_51 C139_51 1_555 1_555
C141_51 C140_51 1_555 1_555
H90_51 C141_51 1_555 1_555
C142_51 C141_51 1_555 1_555
H91_51 C142_51 1_555 1_555
C143_51 C142_51 1_555 1_555
H92_51 C143_51 1_555 1_555
C144_51 C140_51 1_555 1_555
C145_51 C147_51 1_555 1_555
C146_51 C136_51 1_555 1_555
C147_51 C148_51 1_555 1_555
C148_51 H93_51 1_555 1_555
C149_51 C148_51 1_555 1_555
H94_51 C149_51 1_555 1_555
C150_51 C149_51 1_555 1_555
H95_51 C150_51 1_555 1_555
C151_51 C147_51 1_555 1_555
H96_51 C151_51 1_555 1_555
N51_11 Co11_6 1_555 1_555
N52_51 C144_51 1_555 1_555
N53_51 C145_51 1_555 1_555
N54_51 C144_51 1_555 1_555
N55_51 C150_51 1_555 1_555
S7_11 C138_11 1_555 1_555
C154_11 N58_11 1_555 1_555
N58_11 Co11_6 1_555 1_555
S10_11 C154_11 1_555 1_555
C155_19 N59_19 1_555 1_555
N59_19 Co12_5 1_555 1_555
S11_19 C155_19 1_555 1_555
C156_19 N60_19 1_555 1_555
N60_19 Co12_5 1_555 1_555
S12_19 C156_19 1_555 1_555
Co17_2 N55_51 1_555 1_555
N66_19 Co12_5 1_555 1_555
N67_19 Co12_5 1_555 1_555
N68_11 Co11_6 1_555 1_555
C133_51 N64_24 1_555 1_555
C137_51 N64_24 1_555 1_555
C139_51 N51_11 1_555 1_555
C143_51 N51_11 1_555 1_555
C145_51 N54_51 1_555 1_555
C146_51 N52_51 1_555 1_555
C146_51 N53_51 1_555 1_555
C151_51 N55_51 1_555 1_555
C155_20 N59_20 1_555 1_555
N59_20 Co12_3 1_555 1_555
S11_20 C155_20 1_555 1_555
N66_20 Co12_3 1_555 1_555
Co11_9 N49_12 1_555 1_555
C133_52 H85_52 1_555 1_555
C134_52 C133_52 1_555 1_555
H86_52 C134_52 1_555 1_555
C135_52 C134_52 1_555 1_555
H87_52 C135_52 1_555 1_555
C136_52 C135_52 1_555 1_555
C137_52 C136_52 1_555 1_555
H88_52 C137_52 1_555 1_555
C138_12 N49_12 1_555 1_555
C139_52 H89_52 1_555 1_555
C140_52 C139_52 1_555 1_555
C141_52 C140_52 1_555 1_555
H90_52 C141_52 1_555 1_555
C142_52 C141_52 1_555 1_555
H91_52 C142_52 1_555 1_555
C143_52 C142_52 1_555 1_555
H92_52 C143_52 1_555 1_555
C144_52 C140_52 1_555 1_555
C145_52 C147_52 1_555 1_555
C146_52 C136_52 1_555 1_555
C147_52 C148_52 1_555 1_555
C148_52 H93_52 1_555 1_555
C149_52 C148_52 1_555 1_555
H94_52 C149_52 1_555 1_555
C150_52 C149_52 1_555 1_555
H95_52 C150_52 1_555 1_555
C151_52 C147_52 1_555 1_555
H96_52 C151_52 1_555 1_555
N51_12 Co11_9 1_555 1_555
N52_52 C144_52 1_555 1_555
N53_52 C145_52 1_555 1_555
N54_52 C144_52 1_555 1_555
N55_52 C150_52 1_555 1_555
S7_12 C138_12 1_555 1_555
C154_12 N58_12 1_555 1_555
N58_12 Co11_9 1_555 1_555
S10_12 C154_12 1_555 1_555
C156_20 N60_20 1_555 1_555
N60_20 Co12_4 1_555 1_555
S12_20 C156_20 1_555 1_555
Co17 N55_52 1_555 1_555
N67_20 Co12_4 1_555 1_555
N68_12 Co11_9 1_555 1_555
C133_52 N64_21 1_555 1_555
C137_52 N64_21 1_555 1_555
C139_52 N51_12 1_555 1_555
C143_52 N51_12 1_555 1_555
C145_52 N54_52 1_555 1_555
C146_52 N52_52 1_555 1_555
C146_52 N53_52 1_555 1_555
C151_52 N55_52 1_555 1_555
C155_21 N59_21 1_555 1_555
N59_21 Co13 1_555 1_555
S11_21 C155_21 1_555 1_555
N66_21 Co13 1_555 1_555
C133_53 H85_53 1_555 1_555
C134_53 C133_53 1_555 1_555
H86_53 C134_53 1_555 1_555
C135_53 C134_53 1_555 1_555
H87_53 C135_53 1_555 1_555
C136_53 C135_53 1_555 1_555
C137_53 C136_53 1_555 1_555
H88_53 C137_53 1_555 1_555
C139_53 H89_53 1_555 1_555
C140_53 C139_53 1_555 1_555
C141_53 C140_53 1_555 1_555
H90_53 C141_53 1_555 1_555
C142_53 C141_53 1_555 1_555
H91_53 C142_53 1_555 1_555
C143_53 C142_53 1_555 1_555
H92_53 C143_53 1_555 1_555
C144_53 C140_53 1_555 1_555
C145_53 C147_53 1_555 1_555
C146_53 C136_53 1_555 1_555
C147_53 C148_53 1_555 1_555
C148_53 H93_53 1_555 1_555
C149_53 C148_53 1_555 1_555
H94_53 C149_53 1_555 1_555
C150_53 C149_53 1_555 1_555
H95_53 C150_53 1_555 1_555
C151_53 C147_53 1_555 1_555
H96_53 C151_53 1_555 1_555
N52_53 C144_53 1_555 1_555
N53_53 C145_53 1_555 1_555
N54_53 C144_53 1_555 1_555
N55_53 C150_53 1_555 1_555
C156_21 N60_21 1_555 1_555
N60_21 Co13_2 1_555 1_555
S12_21 C156_21 1_555 1_555
Co17_32 N55_53 1_555 1_555
N67_21 Co13_2 1_555 1_555
C133_53 N64_33 1_555 1_555
C137_53 N64_33 1_555 1_555
C139_53 N66_17 1_555 1_555
C143_53 N66_17 1_555 1_555
C145_53 N54_53 1_555 1_555
C146_53 N52_53 1_555 1_555
C146_53 N53_53 1_555 1_555
C151_53 N55_53 1_555 1_555
C133_54 H85_54 1_555 1_555
C134_54 C133_54 1_555 1_555
H86_54 C134_54 1_555 1_555
C135_54 C134_54 1_555 1_555
H87_54 C135_54 1_555 1_555
C136_54 C135_54 1_555 1_555
C137_54 C136_54 1_555 1_555
H88_54 C137_54 1_555 1_555
C139_54 H89_54 1_555 1_555
C140_54 C139_54 1_555 1_555
C141_54 C140_54 1_555 1_555
H90_54 C141_54 1_555 1_555
C142_54 C141_54 1_555 1_555
H91_54 C142_54 1_555 1_555
C143_54 C142_54 1_555 1_555
H92_54 C143_54 1_555 1_555
C144_54 C140_54 1_555 1_555
C145_54 C147_54 1_555 1_555
C146_54 C136_54 1_555 1_555
C147_54 C148_54 1_555 1_555
C148_54 H93_54 1_555 1_555
C149_54 C148_54 1_555 1_555
H94_54 C149_54 1_555 1_555
C150_54 C149_54 1_555 1_555
H95_54 C150_54 1_555 1_555
C151_54 C147_54 1_555 1_555
H96_54 C151_54 1_555 1_555
N52_54 C144_54 1_555 1_555
N53_54 C145_54 1_555 1_555
N54_54 C144_54 1_555 1_555
N55_54 C150_54 1_555 1_555
C155_22 N59_22 1_555 1_555
N59_22 Co13_5 1_555 1_555
S11_22 C155_22 1_555 1_555
C156_22 N60_22 1_555 1_555
N60_22 Co13_5 1_555 1_555
S12_22 C156_22 1_555 1_555
Co17_31 N55_54 1_555 1_555
N66_22 Co13_5 1_555 1_555
N67_22 Co13_5 1_555 1_555
C133_54 N64_36 1_555 1_555
C137_54 N64_36 1_555 1_555
C139_54 N66_20 1_555 1_555
C143_54 N66_20 1_555 1_555
C145_54 N54_54 1_555 1_555
C146_54 N52_54 1_555 1_555
C146_54 N53_54 1_555 1_555
C151_54 N55_54 1_555 1_555
C134_55 C133_55 1_555 1_555
H86_55 C134_55 1_555 1_555
C135_55 C134_55 1_555 1_555
H87_55 C135_55 1_555 1_555
C136_55 C135_55 1_555 1_555
C137_55 C136_55 1_555 1_555
H88_55 C137_55 1_555 1_555
C139_55 H89_55 1_555 1_555
C140_55 C139_55 1_555 1_555
C141_55 C140_55 1_555 1_555
H90_55 C141_55 1_555 1_555
C142_55 C141_55 1_555 1_555
H91_55 C142_55 1_555 1_555
C143_55 C142_55 1_555 1_555
H92_55 C143_55 1_555 1_555
C144_55 C140_55 1_555 1_555
C145_55 C147_55 1_555 1_555
C146_55 C136_55 1_555 1_555
C147_55 C148_55 1_555 1_555
C148_55 H93_55 1_555 1_555
C149_55 C148_55 1_555 1_555
H94_55 C149_55 1_555 1_555
C150_55 C149_55 1_555 1_555
H95_55 C150_55 1_555 1_555
C151_55 C147_55 1_555 1_555
H96_55 C151_55 1_555 1_555
N52_55 C144_55 1_555 1_555
N53_55 C145_55 1_555 1_555
N54_55 C144_55 1_555 1_555
N55_55 C150_55 1_555 1_555
Co17_30 N55_55 1_555 1_555
C133_55 N64_35 1_555 1_555
C137_55 N64_35 1_555 1_555
C139_55 N66_18 1_555 1_555
C143_55 N66_18 1_555 1_555
C145_55 N54_55 1_555 1_555
C146_55 N52_55 1_555 1_555
C146_55 N53_55 1_555 1_555
C151_55 N55_55 1_555 1_555
C155_23 N59_23 1_555 1_555
N59_23 Co13_3 1_555 1_555
S11_23 C155_23 1_555 1_555
C156_23 N60_23 1_555 1_555
N60_23 Co13_3 1_555 1_555
S12_23 C156_23 1_555 1_555
N66_23 Co13_3 1_555 1_555
N67_23 Co13_3 1_555 1_555
C133_56 H85_56 1_555 1_555
C134_56 C133_56 1_555 1_555
H86_56 C134_56 1_555 1_555
C135_56 C134_56 1_555 1_555
H87_56 C135_56 1_555 1_555
C136_56 C135_56 1_555 1_555
C137_56 C136_56 1_555 1_555
H88_56 C137_56 1_555 1_555
C139_56 H89_56 1_555 1_555
C140_56 C139_56 1_555 1_555
C141_56 C140_56 1_555 1_555
H90_56 C141_56 1_555 1_555
C142_56 C141_56 1_555 1_555
H91_56 C142_56 1_555 1_555
C143_56 C142_56 1_555 1_555
H92_56 C143_56 1_555 1_555
C144_56 C140_56 1_555 1_555
C145_56 C147_56 1_555 1_555
C146_56 C136_56 1_555 1_555
C147_56 C148_56 1_555 1_555
C148_56 H93_56 1_555 1_555
C149_56 C148_56 1_555 1_555
H94_56 C149_56 1_555 1_555
C150_56 C149_56 1_555 1_555
H95_56 C150_56 1_555 1_555
C151_56 C147_56 1_555 1_555
H96_56 C151_56 1_555 1_555
N52_56 C144_56 1_555 1_555
N53_56 C145_56 1_555 1_555
N54_56 C144_56 1_555 1_555
N55_56 C150_56 1_555 1_555
C155_24 N59_24 1_555 1_555
N59_24 Co13_4 1_555 1_555
S11_24 C155_24 1_555 1_555
C156_24 N60_24 1_555 1_555
N60_24 Co13_4 1_555 1_555
S12_24 C156_24 1_555 1_555
Co17_29 N55_56 1_555 1_555
N66_24 Co13_4 1_555 1_555
N67_24 Co13_4 1_555 1_555
C133_56 N64_34 1_555 1_555
C137_56 N64_34 1_555 1_555
C139_56 N66_19 1_555 1_555
C143_56 N66_19 1_555 1_555
C145_56 N54_56 1_555 1_555
C146_56 N52_56 1_555 1_555
C146_56 N53_56 1_555 1_555
C151_56 N55_56 1_555 1_555
Co9_10 N1_41 1_555 1_555
C6_41 N1_41 1_555 1_555
S1_41 C6_41 1_555 1_555
C133_57 H85_57 1_555 1_555
C134_57 C133_57 1_555 1_555
H86_57 C134_57 1_555 1_555
C135_57 C134_57 1_555 1_555
H87_57 C135_57 1_555 1_555
C136_57 C135_57 1_555 1_555
C137_57 C136_57 1_555 1_555
H88_57 C137_57 1_555 1_555
C139_57 H89_57 1_555 1_555
C140_57 C139_57 1_555 1_555
C141_57 C140_57 1_555 1_555
H90_57 C141_57 1_555 1_555
C142_57 C141_57 1_555 1_555
H91_57 C142_57 1_555 1_555
C143_57 C142_57 1_555 1_555
H92_57 C143_57 1_555 1_555
C144_57 C140_57 1_555 1_555
C145_57 C147_57 1_555 1_555
C146_57 C136_57 1_555 1_555
C147_57 C148_57 1_555 1_555
C148_57 H93_57 1_555 1_555
C149_57 C148_57 1_555 1_555
H94_57 C149_57 1_555 1_555
C150_57 C149_57 1_555 1_555
H95_57 C150_57 1_555 1_555
C151_57 C147_57 1_555 1_555
H96_57 C151_57 1_555 1_555
N50_41 Co9_10 1_555 1_555
N52_57 C144_57 1_555 1_555
N53_57 C145_57 1_555 1_555
N54_57 C144_57 1_555 1_555
N55_57 C150_57 1_555 1_555
C152_41 N56_41 1_555 1_555
N56_41 Co9_10 1_555 1_555
S8_41 C152_41 1_555 1_555
Co17_41 N55_57 1_555 1_555
N64_41 Co9_10 1_555 1_555
C133_57 N50_41 1_555 1_555
C137_57 N50_41 1_555 1_555
C139_57 N66_21 1_555 1_555
C143_57 N66_21 1_555 1_555
C145_57 N54_57 1_555 1_555
C146_57 N52_57 1_555 1_555
C146_57 N53_57 1_555 1_555
C151_57 N55_57 1_555 1_555
Co9_6 N1_42 1_555 1_555
C6_42 N1_42 1_555 1_555
S1_42 C6_42 1_555 1_555
C133_58 H85_58 1_555 1_555
C134_58 C133_58 1_555 1_555
H86_58 C134_58 1_555 1_555
C135_58 C134_58 1_555 1_555
H87_58 C135_58 1_555 1_555
C136_58 C135_58 1_555 1_555
C137_58 C136_58 1_555 1_555
H88_58 C137_58 1_555 1_555
C139_58 H89_58 1_555 1_555
C140_58 C139_58 1_555 1_555
C141_58 C140_58 1_555 1_555
H90_58 C141_58 1_555 1_555
C142_58 C141_58 1_555 1_555
H91_58 C142_58 1_555 1_555
C143_58 C142_58 1_555 1_555
H92_58 C143_58 1_555 1_555
C144_58 C140_58 1_555 1_555
C145_58 C147_58 1_555 1_555
C146_58 C136_58 1_555 1_555
C147_58 C148_58 1_555 1_555
C148_58 H93_58 1_555 1_555
C149_58 C148_58 1_555 1_555
H94_58 C149_58 1_555 1_555
C150_58 C149_58 1_555 1_555
H95_58 C150_58 1_555 1_555
C151_58 C147_58 1_555 1_555
H96_58 C151_58 1_555 1_555
N50_42 Co9_6 1_555 1_555
N52_58 C144_58 1_555 1_555
N53_58 C145_58 1_555 1_555
N54_58 C144_58 1_555 1_555
N55_58 C150_58 1_555 1_555
C152_42 N56_42 1_555 1_555
N56_42 Co9_6 1_555 1_555
S8_42 C152_42 1_555 1_555
Co17_42 N55_58 1_555 1_555
N64_42 Co9_6 1_555 1_555
C133_58 N50_42 1_555 1_555
C137_58 N50_42 1_555 1_555
C139_58 N66_24 1_555 1_555
C143_58 N66_24 1_555 1_555
C145_58 N54_58 1_555 1_555
C146_58 N52_58 1_555 1_555
C146_58 N53_58 1_555 1_555
C151_58 N55_58 1_555 1_555
Co9_8 N1_43 1_555 1_555
C6_43 N1_43 1_555 1_555
S1_43 C6_43 1_555 1_555
C134_59 C133_59 1_555 1_555
H86_59 C134_59 1_555 1_555
C135_59 C134_59 1_555 1_555
H87_59 C135_59 1_555 1_555
C136_59 C135_59 1_555 1_555
C137_59 C136_59 1_555 1_555
H88_59 C137_59 1_555 1_555
C139_59 H89_59 1_555 1_555
C140_59 C139_59 1_555 1_555
C141_59 C140_59 1_555 1_555
H90_59 C141_59 1_555 1_555
C142_59 C141_59 1_555 1_555
H91_59 C142_59 1_555 1_555
C143_59 C142_59 1_555 1_555
H92_59 C143_59 1_555 1_555
C144_59 C140_59 1_555 1_555
C145_59 C147_59 1_555 1_555
C146_59 C136_59 1_555 1_555
C147_59 C148_59 1_555 1_555
C148_59 H93_59 1_555 1_555
C149_59 C148_59 1_555 1_555
H94_59 C149_59 1_555 1_555
C150_59 C149_59 1_555 1_555
H95_59 C150_59 1_555 1_555
C151_59 C147_59 1_555 1_555
H96_59 C151_59 1_555 1_555
N50_43 Co9_8 1_555 1_555
N52_59 C144_59 1_555 1_555
N53_59 C145_59 1_555 1_555
N54_59 C144_59 1_555 1_555
N55_59 C150_59 1_555 1_555
Co17_43 N55_59 1_555 1_555
C133_59 N50_43 1_555 1_555
C137_59 N50_43 1_555 1_555
C139_59 N66_22 1_555 1_555
C143_59 N66_22 1_555 1_555
C145_59 N54_59 1_555 1_555
C146_59 N52_59 1_555 1_555
C146_59 N53_59 1_555 1_555
C151_59 N55_59 1_555 1_555
C152_43 N56_43 1_555 1_555
N56_43 Co9_9 1_555 1_555
S8_43 C152_43 1_555 1_555
N64_43 Co9_9 1_555 1_555
Co9_7 N1_44 1_555 1_555
C6_44 N1_44 1_555 1_555
S1_44 C6_44 1_555 1_555
C133_60 H85_60 1_555 1_555
C134_60 C133_60 1_555 1_555
H86_60 C134_60 1_555 1_555
C135_60 C134_60 1_555 1_555
H87_60 C135_60 1_555 1_555
C136_60 C135_60 1_555 1_555
C137_60 C136_60 1_555 1_555
H88_60 C137_60 1_555 1_555
C139_60 H89_60 1_555 1_555
C140_60 C139_60 1_555 1_555
C141_60 C140_60 1_555 1_555
H90_60 C141_60 1_555 1_555
C142_60 C141_60 1_555 1_555
H91_60 C142_60 1_555 1_555
C143_60 C142_60 1_555 1_555
H92_60 C143_60 1_555 1_555
C144_60 C140_60 1_555 1_555
C145_60 C147_60 1_555 1_555
C146_60 C136_60 1_555 1_555
C147_60 C148_60 1_555 1_555
C148_60 H93_60 1_555 1_555
C149_60 C148_60 1_555 1_555
H94_60 C149_60 1_555 1_555
C150_60 C149_60 1_555 1_555
H95_60 C150_60 1_555 1_555
C151_60 C147_60 1_555 1_555
H96_60 C151_60 1_555 1_555
N50_44 Co9_7 1_555 1_555
N52_60 C144_60 1_555 1_555
N53_60 C145_60 1_555 1_555
N54_60 C144_60 1_555 1_555
N55_60 C150_60 1_555 1_555
C152_44 N56_44 1_555 1_555
N56_44 Co9_7 1_555 1_555
S8_44 C152_44 1_555 1_555
Co17_44 N55_60 1_555 1_555
N64_44 Co9_7 1_555 1_555
C133_60 N50_44 1_555 1_555
C137_60 N50_44 1_555 1_555
C139_60 N66_23 1_555 1_555
C143_60 N66_23 1_555 1_555
C145_60 N54_60 1_555 1_555
C146_60 N52_60 1_555 1_555
C146_60 N53_60 1_555 1_555
C151_60 N55_60 1_555 1_555
Co10_10 N1_45 1_555 1_555
C6_45 N1_45 1_555 1_555
S1_45 C6_45 1_555 1_555
C133_61 H85_61 1_555 1_555
C134_61 C133_61 1_555 1_555
H86_61 C134_61 1_555 1_555
C135_61 C134_61 1_555 1_555
H87_61 C135_61 1_555 1_555
C136_61 C135_61 1_555 1_555
C137_61 C136_61 1_555 1_555
H88_61 C137_61 1_555 1_555
C139_61 H89_61 1_555 1_555
C140_61 C139_61 1_555 1_555
C141_61 C140_61 1_555 1_555
H90_61 C141_61 1_555 1_555
C142_61 C141_61 1_555 1_555
H91_61 C142_61 1_555 1_555
C143_61 C142_61 1_555 1_555
H92_61 C143_61 1_555 1_555
C144_61 C140_61 1_555 1_555
C145_61 C147_61 1_555 1_555
C146_61 C136_61 1_555 1_555
C147_61 C148_61 1_555 1_555
C148_61 H93_61 1_555 1_555
C149_61 C148_61 1_555 1_555
H94_61 C149_61 1_555 1_555
C150_61 C149_61 1_555 1_555
H95_61 C150_61 1_555 1_555
C151_61 C147_61 1_555 1_555
H96_61 C151_61 1_555 1_555
N50_45 Co10_10 1_555 1_555
N52_61 C144_61 1_555 1_555
N53_61 C145_61 1_555 1_555
N54_61 C144_61 1_555 1_555
N55_61 C150_61 1_555 1_555
C152_45 N56_45 1_555 1_555
N56_45 Co10_10 1_555 1_555
S8_45 C152_45 1_555 1_555
Co17_45 N55_61 1_555 1_555
N64_45 Co10_10 1_555 1_555
C133_61 N50_45 1_555 1_555
C137_61 N50_45 1_555 1_555
C139_61 N68_9 1_555 1_555
C143_61 N68_9 1_555 1_555
C145_61 N54_61 1_555 1_555
C146_61 N52_61 1_555 1_555
C146_61 N53_61 1_555 1_555
C151_61 N55_61 1_555 1_555
C152_46 N56_46 1_555 1_555
N56_46 Co10_7 1_555 1_555
S8_46 C152_46 1_555 1_555
N64_46 Co10_7 1_555 1_555
Co10_8 N1_46 1_555 1_555
C6_46 N1_46 1_555 1_555
S1_46 C6_46 1_555 1_555
C134_62 C133_62 1_555 1_555
H86_62 C134_62 1_555 1_555
C135_62 C134_62 1_555 1_555
H87_62 C135_62 1_555 1_555
C136_62 C135_62 1_555 1_555
C137_62 C136_62 1_555 1_555
H88_62 C137_62 1_555 1_555
C139_62 H89_62 1_555 1_555
C140_62 C139_62 1_555 1_555
C141_62 C140_62 1_555 1_555
H90_62 C141_62 1_555 1_555
C142_62 C141_62 1_555 1_555
H91_62 C142_62 1_555 1_555
C143_62 C142_62 1_555 1_555
H92_62 C143_62 1_555 1_555
C144_62 C140_62 1_555 1_555
C145_62 C147_62 1_555 1_555
C146_62 C136_62 1_555 1_555
C147_62 C148_62 1_555 1_555
C148_62 H93_62 1_555 1_555
C149_62 C148_62 1_555 1_555
H94_62 C149_62 1_555 1_555
C150_62 C149_62 1_555 1_555
H95_62 C150_62 1_555 1_555
C151_62 C147_62 1_555 1_555
H96_62 C151_62 1_555 1_555
N50_46 Co10_8 1_555 1_555
N52_62 C144_62 1_555 1_555
N53_62 C145_62 1_555 1_555
N54_62 C144_62 1_555 1_555
N55_62 C150_62 1_555 1_555
Co17_46 N55_62 1_555 1_555
C133_62 N50_46 1_555 1_555
C137_62 N50_46 1_555 1_555
C139_62 N68_10 1_555 1_555
C143_62 N68_10 1_555 1_555
C145_62 N54_62 1_555 1_555
C146_62 N52_62 1_555 1_555
C146_62 N53_62 1_555 1_555
C151_62 N55_62 1_555 1_555
Co10_9 N1_47 1_555 1_555
C6_47 N1_47 1_555 1_555
S1_47 C6_47 1_555 1_555
C133_63 H85_63 1_555 1_555
C134_63 C133_63 1_555 1_555
H86_63 C134_63 1_555 1_555
C135_63 C134_63 1_555 1_555
H87_63 C135_63 1_555 1_555
C136_63 C135_63 1_555 1_555
C137_63 C136_63 1_555 1_555
H88_63 C137_63 1_555 1_555
C139_63 H89_63 1_555 1_555
C140_63 C139_63 1_555 1_555
C141_63 C140_63 1_555 1_555
H90_63 C141_63 1_555 1_555
C142_63 C141_63 1_555 1_555
H91_63 C142_63 1_555 1_555
C143_63 C142_63 1_555 1_555
H92_63 C143_63 1_555 1_555
C144_63 C140_63 1_555 1_555
C145_63 C147_63 1_555 1_555
C146_63 C136_63 1_555 1_555
C147_63 C148_63 1_555 1_555
C148_63 H93_63 1_555 1_555
C149_63 C148_63 1_555 1_555
H94_63 C149_63 1_555 1_555
C150_63 C149_63 1_555 1_555
H95_63 C150_63 1_555 1_555
C151_63 C147_63 1_555 1_555
H96_63 C151_63 1_555 1_555
N50_47 Co10_9 1_555 1_555
N52_63 C144_63 1_555 1_555
N53_63 C145_63 1_555 1_555
N54_63 C144_63 1_555 1_555
N55_63 C150_63 1_555 1_555
C152_47 N56_47 1_555 1_555
N56_47 Co10_9 1_555 1_555
S8_47 C152_47 1_555 1_555
Co17_47 N55_63 1_555 1_555
N64_47 Co10_9 1_555 1_555
C133_63 N50_47 1_555 1_555
C137_63 N50_47 1_555 1_555
C139_63 N68_12 1_555 1_555
C143_63 N68_12 1_555 1_555
C145_63 N54_63 1_555 1_555
C146_63 N52_63 1_555 1_555
C146_63 N53_63 1_555 1_555
C151_63 N55_63 1_555 1_555
Co10_6 N1_48 1_555 1_555
C6_48 N1_48 1_555 1_555
S1_48 C6_48 1_555 1_555
C133_64 H85_64 1_555 1_555
C134_64 C133_64 1_555 1_555
H86_64 C134_64 1_555 1_555
C135_64 C134_64 1_555 1_555
H87_64 C135_64 1_555 1_555
C136_64 C135_64 1_555 1_555
C137_64 C136_64 1_555 1_555
H88_64 C137_64 1_555 1_555
C139_64 H89_64 1_555 1_555
C140_64 C139_64 1_555 1_555
C141_64 C140_64 1_555 1_555
H90_64 C141_64 1_555 1_555
C142_64 C141_64 1_555 1_555
H91_64 C142_64 1_555 1_555
C143_64 C142_64 1_555 1_555
H92_64 C143_64 1_555 1_555
C144_64 C140_64 1_555 1_555
C145_64 C147_64 1_555 1_555
C146_64 C136_64 1_555 1_555
C147_64 C148_64 1_555 1_555
C148_64 H93_64 1_555 1_555
C149_64 C148_64 1_555 1_555
H94_64 C149_64 1_555 1_555
C150_64 C149_64 1_555 1_555
H95_64 C150_64 1_555 1_555
C151_64 C147_64 1_555 1_555
H96_64 C151_64 1_555 1_555
N50_48 Co10_6 1_555 1_555
N52_64 C144_64 1_555 1_555
N53_64 C145_64 1_555 1_555
N54_64 C144_64 1_555 1_555
N55_64 C150_64 1_555 1_555
C152_48 N56_48 1_555 1_555
N56_48 Co10_6 1_555 1_555
S8_48 C152_48 1_555 1_555
Co17_48 N55_64 1_555 1_555
N64_48 Co10_6 1_555 1_555
C133_64 N50_48 1_555 1_555
C137_64 N50_48 1_555 1_555
C139_64 N68_11 1_555 1_555
C143_64 N68_11 1_555 1_555
C145_64 N54_64 1_555 1_555
C146_64 N52_64 1_555 1_555
C146_64 N53_64 1_555 1_555
C151_64 N55_64 1_555 1_555
C133_65 H85_65 1_555 1_555
C134_65 C133_65 1_555 1_555
H86_65 C134_65 1_555 1_555
C135_65 C134_65 1_555 1_555
H87_65 C135_65 1_555 1_555
C136_65 C135_65 1_555 1_555
C137_65 C136_65 1_555 1_555
H88_65 C137_65 1_555 1_555
C139_65 H89_65 1_555 1_555
C140_65 C139_65 1_555 1_555
C141_65 C140_65 1_555 1_555
H90_65 C141_65 1_555 1_555
C142_65 C141_65 1_555 1_555
H91_65 C142_65 1_555 1_555
C143_65 C142_65 1_555 1_555
H92_65 C143_65 1_555 1_555
C144_65 C140_65 1_555 1_555
C145_65 C147_65 1_555 1_555
C146_65 C136_65 1_555 1_555
C147_65 C148_65 1_555 1_555
C148_65 H93_65 1_555 1_555
C149_65 C148_65 1_555 1_555
H94_65 C149_65 1_555 1_555
C150_65 C149_65 1_555 1_555
H95_65 C150_65 1_555 1_555
C151_65 C147_65 1_555 1_555
H96_65 C151_65 1_555 1_555
N52_65 C144_65 1_555 1_555
N53_65 C145_65 1_555 1_555
N54_65 C144_65 1_555 1_555
N55_65 C150_65 1_555 1_555
Co17_36 N55_65 1_555 1_555
C133_65 N64_29 1_555 1_555
C137_65 N64_29 1_555 1_555
C139_65 N67_22 1_555 1_555
C143_65 N67_22 1_555 1_555
C145_65 N54_65 1_555 1_555
C146_65 N52_65 1_555 1_555
C146_65 N53_65 1_555 1_555
C151_65 N55_65 1_555 1_555
C133_66 H85_66 1_555 1_555
C134_66 C133_66 1_555 1_555
H86_66 C134_66 1_555 1_555
C135_66 C134_66 1_555 1_555
H87_66 C135_66 1_555 1_555
C136_66 C135_66 1_555 1_555
C137_66 C136_66 1_555 1_555
H88_66 C137_66 1_555 1_555
C139_66 H89_66 1_555 1_555
C140_66 C139_66 1_555 1_555
C141_66 C140_66 1_555 1_555
H90_66 C141_66 1_555 1_555
C142_66 C141_66 1_555 1_555
H91_66 C142_66 1_555 1_555
C143_66 C142_66 1_555 1_555
H92_66 C143_66 1_555 1_555
C144_66 C140_66 1_555 1_555
C145_66 C147_66 1_555 1_555
C146_66 C136_66 1_555 1_555
C147_66 C148_66 1_555 1_555
C148_66 H93_66 1_555 1_555
C149_66 C148_66 1_555 1_555
H94_66 C149_66 1_555 1_555
C150_66 C149_66 1_555 1_555
H95_66 C150_66 1_555 1_555
C151_66 C147_66 1_555 1_555
H96_66 C151_66 1_555 1_555
N52_66 C144_66 1_555 1_555
N53_66 C145_66 1_555 1_555
N54_66 C144_66 1_555 1_555
N55_66 C150_66 1_555 1_555
Co17_35 N55_66 1_555 1_555
C133_66 N64_32 1_555 1_555
C137_66 N64_32 1_555 1_555
C139_66 N67_23 1_555 1_555
C143_66 N67_23 1_555 1_555
C145_66 N54_66 1_555 1_555
C146_66 N52_66 1_555 1_555
C146_66 N53_66 1_555 1_555
C151_66 N55_66 1_555 1_555
C134_67 C133_67 1_555 1_555
H86_67 C134_67 1_555 1_555
C135_67 C134_67 1_555 1_555
H87_67 C135_67 1_555 1_555
C136_67 C135_67 1_555 1_555
C137_67 C136_67 1_555 1_555
H88_67 C137_67 1_555 1_555
C139_67 H89_67 1_555 1_555
C140_67 C139_67 1_555 1_555
C141_67 C140_67 1_555 1_555
H90_67 C141_67 1_555 1_555
C142_67 C141_67 1_555 1_555
H91_67 C142_67 1_555 1_555
C143_67 C142_67 1_555 1_555
H92_67 C143_67 1_555 1_555
C144_67 C140_67 1_555 1_555
C145_67 C147_67 1_555 1_555
C146_67 C136_67 1_555 1_555
C147_67 C148_67 1_555 1_555
C148_67 H93_67 1_555 1_555
C149_67 C148_67 1_555 1_555
H94_67 C149_67 1_555 1_555
C150_67 C149_67 1_555 1_555
H95_67 C150_67 1_555 1_555
C151_67 C147_67 1_555 1_555
H96_67 C151_67 1_555 1_555
N52_67 C144_67 1_555 1_555
N53_67 C145_67 1_555 1_555
N54_67 C144_67 1_555 1_555
N55_67 C150_67 1_555 1_555
Co17_34 N55_67 1_555 1_555
C133_67 N64_31 1_555 1_555
C137_67 N64_31 1_555 1_555
C139_67 N67_24 1_555 1_555
C143_67 N67_24 1_555 1_555
C145_67 N54_67 1_555 1_555
C146_67 N52_67 1_555 1_555
C146_67 N53_67 1_555 1_555
C151_67 N55_67 1_555 1_555
C133_68 H85_68 1_555 1_555
C134_68 C133_68 1_555 1_555
H86_68 C134_68 1_555 1_555
C135_68 C134_68 1_555 1_555
H87_68 C135_68 1_555 1_555
C136_68 C135_68 1_555 1_555
C137_68 C136_68 1_555 1_555
H88_68 C137_68 1_555 1_555
C139_68 H89_68 1_555 1_555
C140_68 C139_68 1_555 1_555
C141_68 C140_68 1_555 1_555
H90_68 C141_68 1_555 1_555
C142_68 C141_68 1_555 1_555
H91_68 C142_68 1_555 1_555
C143_68 C142_68 1_555 1_555
H92_68 C143_68 1_555 1_555
C144_68 C140_68 1_555 1_555
C145_68 C147_68 1_555 1_555
C146_68 C136_68 1_555 1_555
C147_68 C148_68 1_555 1_555
C148_68 H93_68 1_555 1_555
C149_68 C148_68 1_555 1_555
H94_68 C149_68 1_555 1_555
C150_68 C149_68 1_555 1_555
H95_68 C150_68 1_555 1_555
C151_68 C147_68 1_555 1_555
H96_68 C151_68 1_555 1_555
N52_68 C144_68 1_555 1_555
N53_68 C145_68 1_555 1_555
N54_68 C144_68 1_555 1_555
N55_68 C150_68 1_555 1_555
Co17_33 N55_68 1_555 1_555
C133_68 N64_30 1_555 1_555
C137_68 N64_30 1_555 1_555
C139_68 N67_21 1_555 1_555
C143_68 N67_21 1_555 1_555
C145_68 N54_68 1_555 1_555
C146_68 N52_68 1_555 1_555
C146_68 N53_68 1_555 1_555
C151_68 N55_68 1_555 1_555
C133_69 H85_69 1_555 1_555
C134_69 C133_69 1_555 1_555
H86_69 C134_69 1_555 1_555
C135_69 C134_69 1_555 1_555
H87_69 C135_69 1_555 1_555
C136_69 C135_69 1_555 1_555
C137_69 C136_69 1_555 1_555
H88_69 C137_69 1_555 1_555
C139_69 H89_69 1_555 1_555
C140_69 C139_69 1_555 1_555
C141_69 C140_69 1_555 1_555
H90_69 C141_69 1_555 1_555
C142_69 C141_69 1_555 1_555
H91_69 C142_69 1_555 1_555
C143_69 C142_69 1_555 1_555
H92_69 C143_69 1_555 1_555
C144_69 C140_69 1_555 1_555
C145_69 C147_69 1_555 1_555
C146_69 C136_69 1_555 1_555
C147_69 C148_69 1_555 1_555
C148_69 H93_69 1_555 1_555
C149_69 C148_69 1_555 1_555
H94_69 C149_69 1_555 1_555
C150_69 C149_69 1_555 1_555
H95_69 C150_69 1_555 1_555
C151_69 C147_69 1_555 1_555
H96_69 C151_69 1_555 1_555
N52_69 C144_69 1_555 1_555
N53_69 C145_69 1_555 1_555
N54_69 C144_69 1_555 1_555
N55_69 C150_69 1_555 1_555
Co17_24 N55_69 1_555 1_555
C133_69 N64_4 1_555 1_555
C137_69 N64_4 1_555 1_555
C139_69 N67_19 1_555 1_555
C143_69 N67_19 1_555 1_555
C145_69 N54_69 1_555 1_555
C146_69 N52_69 1_555 1_555
C146_69 N53_69 1_555 1_555
C151_69 N55_69 1_555 1_555
C134_70 C133_70 1_555 1_555
H86_70 C134_70 1_555 1_555
C135_70 C134_70 1_555 1_555
H87_70 C135_70 1_555 1_555
C136_70 C135_70 1_555 1_555
C137_70 C136_70 1_555 1_555
H88_70 C137_70 1_555 1_555
C139_70 H89_70 1_555 1_555
C140_70 C139_70 1_555 1_555
C141_70 C140_70 1_555 1_555
H90_70 C141_70 1_555 1_555
C142_70 C141_70 1_555 1_555
H91_70 C142_70 1_555 1_555
C143_70 C142_70 1_555 1_555
H92_70 C143_70 1_555 1_555
C144_70 C140_70 1_555 1_555
C145_70 C147_70 1_555 1_555
C146_70 C136_70 1_555 1_555
C147_70 C148_70 1_555 1_555
C148_70 H93_70 1_555 1_555
C149_70 C148_70 1_555 1_555
H94_70 C149_70 1_555 1_555
C150_70 C149_70 1_555 1_555
H95_70 C150_70 1_555 1_555
C151_70 C147_70 1_555 1_555
H96_70 C151_70 1_555 1_555
N52_70 C144_70 1_555 1_555
N53_70 C145_70 1_555 1_555
N54_70 C144_70 1_555 1_555
N55_70 C150_70 1_555 1_555
Co17_23 N55_70 1_555 1_555
C133_70 N64 1_555 1_555
C137_70 N64 1_555 1_555
C139_70 N67_18 1_555 1_555
C143_70 N67_18 1_555 1_555
C145_70 N54_70 1_555 1_555
C146_70 N52_70 1_555 1_555
C146_70 N53_70 1_555 1_555
C151_70 N55_70 1_555 1_555
C133_71 H85_71 1_555 1_555
C134_71 C133_71 1_555 1_555
H86_71 C134_71 1_555 1_555
C135_71 C134_71 1_555 1_555
H87_71 C135_71 1_555 1_555
C136_71 C135_71 1_555 1_555
C137_71 C136_71 1_555 1_555
H88_71 C137_71 1_555 1_555
C139_71 H89_71 1_555 1_555
C140_71 C139_71 1_555 1_555
C141_71 C140_71 1_555 1_555
H90_71 C141_71 1_555 1_555
C142_71 C141_71 1_555 1_555
H91_71 C142_71 1_555 1_555
C143_71 C142_71 1_555 1_555
H92_71 C143_71 1_555 1_555
C144_71 C140_71 1_555 1_555
C145_71 C147_71 1_555 1_555
C146_71 C136_71 1_555 1_555
C147_71 C148_71 1_555 1_555
C148_71 H93_71 1_555 1_555
C149_71 C148_71 1_555 1_555
H94_71 C149_71 1_555 1_555
C150_71 C149_71 1_555 1_555
H95_71 C150_71 1_555 1_555
C151_71 C147_71 1_555 1_555
H96_71 C151_71 1_555 1_555
N52_71 C144_71 1_555 1_555
N53_71 C145_71 1_555 1_555
N54_71 C144_71 1_555 1_555
N55_71 C150_71 1_555 1_555
Co17_22 N55_71 1_555 1_555
C133_71 N64_2 1_555 1_555
C137_71 N64_2 1_555 1_555
C139_71 N67_17 1_555 1_555
C143_71 N67_17 1_555 1_555
C145_71 N54_71 1_555 1_555
C146_71 N52_71 1_555 1_555
C146_71 N53_71 1_555 1_555
C151_71 N55_71 1_555 1_555
C133_72 H85_72 1_555 1_555
C134_72 C133_72 1_555 1_555
H86_72 C134_72 1_555 1_555
C135_72 C134_72 1_555 1_555
H87_72 C135_72 1_555 1_555
C136_72 C135_72 1_555 1_555
C137_72 C136_72 1_555 1_555
H88_72 C137_72 1_555 1_555
C139_72 H89_72 1_555 1_555
C140_72 C139_72 1_555 1_555
C141_72 C140_72 1_555 1_555
H90_72 C141_72 1_555 1_555
C142_72 C141_72 1_555 1_555
H91_72 C142_72 1_555 1_555
C143_72 C142_72 1_555 1_555
H92_72 C143_72 1_555 1_555
C144_72 C140_72 1_555 1_555
C145_72 C147_72 1_555 1_555
C146_72 C136_72 1_555 1_555
C147_72 C148_72 1_555 1_555
C148_72 H93_72 1_555 1_555
C149_72 C148_72 1_555 1_555
H94_72 C149_72 1_555 1_555
C150_72 C149_72 1_555 1_555
H95_72 C150_72 1_555 1_555
C151_72 C147_72 1_555 1_555
H96_72 C151_72 1_555 1_555
N52_72 C144_72 1_555 1_555
N53_72 C145_72 1_555 1_555
N54_72 C144_72 1_555 1_555
N55_72 C150_72 1_555 1_555
Co17_21 N55_72 1_555 1_555
C133_72 N64_3 1_555 1_555
C137_72 N64_3 1_555 1_555
C139_72 N67_20 1_555 1_555
C143_72 N67_20 1_555 1_555
C145_72 N54_72 1_555 1_555
C146_72 N52_72 1_555 1_555
C146_72 N53_72 1_555 1_555
C151_72 N55_72 1_555 1_555
C133_73 H85_73 1_555 1_555
C134_73 C133_73 1_555 1_555
H86_73 C134_73 1_555 1_555
C135_73 C134_73 1_555 1_555
H87_73 C135_73 1_555 1_555
C136_73 C135_73 1_555 1_555
C137_73 C136_73 1_555 1_555
H88_73 C137_73 1_555 1_555
C139_73 H89_73 1_555 1_555
C140_73 C139_73 1_555 1_555
C141_73 C140_73 1_555 1_555
H90_73 C141_73 1_555 1_555
C142_73 C141_73 1_555 1_555
H91_73 C142_73 1_555 1_555
C143_73 C142_73 1_555 1_555
H92_73 C143_73 1_555 1_555
C144_73 C140_73 1_555 1_555
C145_73 C147_73 1_555 1_555
C146_73 C136_73 1_555 1_555
C147_73 C148_73 1_555 1_555
C148_73 H93_73 1_555 1_555
C149_73 C148_73 1_555 1_555
H94_73 C149_73 1_555 1_555
C150_73 C149_73 1_555 1_555
H95_73 C150_73 1_555 1_555
C151_73 C147_73 1_555 1_555
H96_73 C151_73 1_555 1_555
N51_13 Co13_6 1_555 1_555
N52_73 C144_73 1_555 1_555
N53_73 C145_73 1_555 1_555
N54_73 C144_73 1_555 1_555
N55_73 C150_73 1_555 1_555
C154_13 N58_13 1_555 1_555
N58_13 Co13_6 1_555 1_555
S10_13 C154_13 1_555 1_555
C155_25 N59_25 1_555 1_555
N59_25 Co11_15 1_555 1_555
S11_25 C155_25 1_555 1_555
C156_25 N60_25 1_555 1_555
N60_25 Co11_15 1_555 1_555
S12_25 C156_25 1_555 1_555
Co17_28 N55_73 1_555 1_555
N66_25 Co11_15 1_555 1_555
N67_25 Co11_15 1_555 1_555
C133_73 N64_38 1_555 1_555
C137_73 N64_38 1_555 1_555
C139_73 N51_13 1_555 1_555
C143_73 N51_13 1_555 1_555
C145_73 N54_73 1_555 1_555
C146_73 N52_73 1_555 1_555
C146_73 N53_73 1_555 1_555
C151_73 N55_73 1_555 1_555
Co13_7 N49_13 1_555 1_555
C138_13 N49_13 1_555 1_555
S7_13 C138_13 1_555 1_555
N68_13 Co13_7 1_555 1_555
Co13_9 N49_14 1_555 1_555
C133_74 H85_74 1_555 1_555
C134_74 C133_74 1_555 1_555
H86_74 C134_74 1_555 1_555
C135_74 C134_74 1_555 1_555
H87_74 C135_74 1_555 1_555
C136_74 C135_74 1_555 1_555
C137_74 C136_74 1_555 1_555
H88_74 C137_74 1_555 1_555
C138_14 N49_14 1_555 1_555
C139_74 H89_74 1_555 1_555
C140_74 C139_74 1_555 1_555
C141_74 C140_74 1_555 1_555
H90_74 C141_74 1_555 1_555
C142_74 C141_74 1_555 1_555
H91_74 C142_74 1_555 1_555
C143_74 C142_74 1_555 1_555
H92_74 C143_74 1_555 1_555
C144_74 C140_74 1_555 1_555
C145_74 C147_74 1_555 1_555
C146_74 C136_74 1_555 1_555
C147_74 C148_74 1_555 1_555
C148_74 H93_74 1_555 1_555
C149_74 C148_74 1_555 1_555
H94_74 C149_74 1_555 1_555
C150_74 C149_74 1_555 1_555
H95_74 C150_74 1_555 1_555
C151_74 C147_74 1_555 1_555
H96_74 C151_74 1_555 1_555
N51_14 Co13_9 1_555 1_555
N52_74 C144_74 1_555 1_555
N53_74 C145_74 1_555 1_555
N54_74 C144_74 1_555 1_555
N55_74 C150_74 1_555 1_555
S7_14 C138_14 1_555 1_555
C154_14 N58_14 1_555 1_555
N58_14 Co13_9 1_555 1_555
S10_14 C154_14 1_555 1_555
C155_26 N59_26 1_555 1_555
N59_26 Co11_11 1_555 1_555
S11_26 C155_26 1_555 1_555
C156_26 N60_26 1_555 1_555
N60_26 Co11_11 1_555 1_555
S12_26 C156_26 1_555 1_555
Co17_27 N55_74 1_555 1_555
N66_26 Co11_11 1_555 1_555
N67_26 Co11_11 1_555 1_555
N68_14 Co13_9 1_555 1_555
C133_74 N64_39 1_555 1_555
C137_74 N64_39 1_555 1_555
C139_74 N51_14 1_555 1_555
C143_74 N51_14 1_555 1_555
C145_74 N54_74 1_555 1_555
C146_74 N52_74 1_555 1_555
C146_74 N53_74 1_555 1_555
C151_74 N55_74 1_555 1_555
Co13_10 N49_15 1_555 1_555
C134_75 C133_75 1_555 1_555
H86_75 C134_75 1_555 1_555
C135_75 C134_75 1_555 1_555
H87_75 C135_75 1_555 1_555
C136_75 C135_75 1_555 1_555
C137_75 C136_75 1_555 1_555
H88_75 C137_75 1_555 1_555
C138_15 N49_15 1_555 1_555
C139_75 H89_75 1_555 1_555
C140_75 C139_75 1_555 1_555
C141_75 C140_75 1_555 1_555
H90_75 C141_75 1_555 1_555
C142_75 C141_75 1_555 1_555
H91_75 C142_75 1_555 1_555
C143_75 C142_75 1_555 1_555
H92_75 C143_75 1_555 1_555
C144_75 C140_75 1_555 1_555
C145_75 C147_75 1_555 1_555
C146_75 C136_75 1_555 1_555
C147_75 C148_75 1_555 1_555
C148_75 H93_75 1_555 1_555
C149_75 C148_75 1_555 1_555
H94_75 C149_75 1_555 1_555
C150_75 C149_75 1_555 1_555
H95_75 C150_75 1_555 1_555
C151_75 C147_75 1_555 1_555
H96_75 C151_75 1_555 1_555
N51_15 Co13_10 1_555 1_555
N52_75 C144_75 1_555 1_555
N53_75 C145_75 1_555 1_555
N54_75 C144_75 1_555 1_555
N55_75 C150_75 1_555 1_555
S7_15 C138_15 1_555 1_555
C154_15 N58_15 1_555 1_555
N58_15 Co13_10 1_555 1_555
S10_15 C154_15 1_555 1_555
Co17_26 N55_75 1_555 1_555
N68_15 Co13_10 1_555 1_555
C133_75 N64_40 1_555 1_555
C137_75 N64_40 1_555 1_555
C139_75 N51_15 1_555 1_555
C143_75 N51_15 1_555 1_555
C145_75 N54_75 1_555 1_555
C146_75 N52_75 1_555 1_555
C146_75 N53_75 1_555 1_555
C151_75 N55_75 1_555 1_555
C155_27 N59_27 1_555 1_555
N59_27 Co11_14 1_555 1_555
S11_27 C155_27 1_555 1_555
C156_27 N60_27 1_555 1_555
N60_27 Co11_14 1_555 1_555
S12_27 C156_27 1_555 1_555
N66_27 Co11_14 1_555 1_555
N67_27 Co11_14 1_555 1_555
C155_28 N59_28 1_555 1_555
N59_28 Co11_12 1_555 1_555
S11_28 C155_28 1_555 1_555
N66_28 Co11_12 1_555 1_555
Co13_8 N49_16 1_555 1_555
C133_76 H85_76 1_555 1_555
C134_76 C133_76 1_555 1_555
H86_76 C134_76 1_555 1_555
C135_76 C134_76 1_555 1_555
H87_76 C135_76 1_555 1_555
C136_76 C135_76 1_555 1_555
C137_76 C136_76 1_555 1_555
H88_76 C137_76 1_555 1_555
C138_16 N49_16 1_555 1_555
C139_76 H89_76 1_555 1_555
C140_76 C139_76 1_555 1_555
C141_76 C140_76 1_555 1_555
H90_76 C141_76 1_555 1_555
C142_76 C141_76 1_555 1_555
H91_76 C142_76 1_555 1_555
C143_76 C142_76 1_555 1_555
H92_76 C143_76 1_555 1_555
C144_76 C140_76 1_555 1_555
C145_76 C147_76 1_555 1_555
C146_76 C136_76 1_555 1_555
C147_76 C148_76 1_555 1_555
C148_76 H93_76 1_555 1_555
C149_76 C148_76 1_555 1_555
H94_76 C149_76 1_555 1_555
C150_76 C149_76 1_555 1_555
H95_76 C150_76 1_555 1_555
C151_76 C147_76 1_555 1_555
H96_76 C151_76 1_555 1_555
N51_16 Co13_8 1_555 1_555
N52_76 C144_76 1_555 1_555
N53_76 C145_76 1_555 1_555
N54_76 C144_76 1_555 1_555
N55_76 C150_76 1_555 1_555
S7_16 C138_16 1_555 1_555
C154_16 N58_16 1_555 1_555
N58_16 Co13_8 1_555 1_555
S10_16 C154_16 1_555 1_555
C156_28 N60_28 1_555 1_555
N60_28 Co11_13 1_555 1_555
S12_28 C156_28 1_555 1_555
Co17_25 N55_76 1_555 1_555
N67_28 Co11_13 1_555 1_555
N68_16 Co13_8 1_555 1_555
C133_76 N64_37 1_555 1_555
C137_76 N64_37 1_555 1_555
C139_76 N51_16 1_555 1_555
C143_76 N51_16 1_555 1_555
C145_76 N54_76 1_555 1_555
C146_76 N52_76 1_555 1_555
C146_76 N53_76 1_555 1_555
C151_76 N55_76 1_555 1_555
C134_77 C133_77 1_555 1_555
H86_77 C134_77 1_555 1_555
C135_77 C134_77 1_555 1_555
H87_77 C135_77 1_555 1_555
C136_77 C135_77 1_555 1_555
C137_77 C136_77 1_555 1_555
H88_77 C137_77 1_555 1_555
C139_77 H89_77 1_555 1_555
C140_77 C139_77 1_555 1_555
C141_77 C140_77 1_555 1_555
H90_77 C141_77 1_555 1_555
C142_77 C141_77 1_555 1_555
H91_77 C142_77 1_555 1_555
C143_77 C142_77 1_555 1_555
H92_77 C143_77 1_555 1_555
C144_77 C140_77 1_555 1_555
C145_77 C147_77 1_555 1_555
C146_77 C136_77 1_555 1_555
C147_77 C148_77 1_555 1_555
C148_77 H93_77 1_555 1_555
C149_77 C148_77 1_555 1_555
H94_77 C149_77 1_555 1_555
C150_77 C149_77 1_555 1_555
H95_77 C150_77 1_555 1_555
C151_77 C147_77 1_555 1_555
H96_77 C151_77 1_555 1_555
N52_77 C144_77 1_555 1_555
N53_77 C145_77 1_555 1_555
N54_77 C144_77 1_555 1_555
N55_77 C150_77 1_555 1_555
Co17_8 N55_77 1_555 1_555
C133_77 N64_17 1_555 1_555
C137_77 N64_17 1_555 1_555
C139_77 N66_25 1_555 1_555
C143_77 N66_25 1_555 1_555
C145_77 N54_77 1_555 1_555
C146_77 N52_77 1_555 1_555
C146_77 N53_77 1_555 1_555
C151_77 N55_77 1_555 1_555
C155_29 N59_29 1_555 1_555
N59_29 Co12_7 1_555 1_555
S11_29 C155_29 1_555 1_555
C156_29 N60_29 1_555 1_555
N60_29 Co12_7 1_555 1_555
S12_29 C156_29 1_555 1_555
N66_29 Co12_7 1_555 1_555
N67_29 Co12_7 1_555 1_555
C133_78 H85_78 1_555 1_555
C134_78 C133_78 1_555 1_555
H86_78 C134_78 1_555 1_555
C135_78 C134_78 1_555 1_555
H87_78 C135_78 1_555 1_555
C136_78 C135_78 1_555 1_555
C137_78 C136_78 1_555 1_555
H88_78 C137_78 1_555 1_555
C139_78 H89_78 1_555 1_555
C140_78 C139_78 1_555 1_555
C141_78 C140_78 1_555 1_555
H90_78 C141_78 1_555 1_555
C142_78 C141_78 1_555 1_555
H91_78 C142_78 1_555 1_555
C143_78 C142_78 1_555 1_555
H92_78 C143_78 1_555 1_555
C144_78 C140_78 1_555 1_555
C145_78 C147_78 1_555 1_555
C146_78 C136_78 1_555 1_555
C147_78 C148_78 1_555 1_555
C148_78 H93_78 1_555 1_555
C149_78 C148_78 1_555 1_555
H94_78 C149_78 1_555 1_555
C150_78 C149_78 1_555 1_555
H95_78 C150_78 1_555 1_555
C151_78 C147_78 1_555 1_555
H96_78 C151_78 1_555 1_555
N52_78 C144_78 1_555 1_555
N53_78 C145_78 1_555 1_555
N54_78 C144_78 1_555 1_555
N55_78 C150_78 1_555 1_555
C155_30 N59_30 1_555 1_555
N59_30 Co12_6 1_555 1_555
S11_30 C155_30 1_555 1_555
C156_30 N60_30 1_555 1_555
N60_30 Co12_6 1_555 1_555
S12_30 C156_30 1_555 1_555
Co17_7 N55_78 1_555 1_555
N66_30 Co12_6 1_555 1_555
N67_30 Co12_6 1_555 1_555
C133_78 N64_20 1_555 1_555
C137_78 N64_20 1_555 1_555
C139_78 N66_28 1_555 1_555
C143_78 N66_28 1_555 1_555
C145_78 N54_78 1_555 1_555
C146_78 N52_78 1_555 1_555
C146_78 N53_78 1_555 1_555
C151_78 N55_78 1_555 1_555
C133_79 H85_79 1_555 1_555
C134_79 C133_79 1_555 1_555
H86_79 C134_79 1_555 1_555
C135_79 C134_79 1_555 1_555
H87_79 C135_79 1_555 1_555
C136_79 C135_79 1_555 1_555
C137_79 C136_79 1_555 1_555
H88_79 C137_79 1_555 1_555
C139_79 H89_79 1_555 1_555
C140_79 C139_79 1_555 1_555
C141_79 C140_79 1_555 1_555
H90_79 C141_79 1_555 1_555
C142_79 C141_79 1_555 1_555
H91_79 C142_79 1_555 1_555
C143_79 C142_79 1_555 1_555
H92_79 C143_79 1_555 1_555
C144_79 C140_79 1_555 1_555
C145_79 C147_79 1_555 1_555
C146_79 C136_79 1_555 1_555
C147_79 C148_79 1_555 1_555
C148_79 H93_79 1_555 1_555
C149_79 C148_79 1_555 1_555
H94_79 C149_79 1_555 1_555
C150_79 C149_79 1_555 1_555
H95_79 C150_79 1_555 1_555
C151_79 C147_79 1_555 1_555
H96_79 C151_79 1_555 1_555
N52_79 C144_79 1_555 1_555
N53_79 C145_79 1_555 1_555
N54_79 C144_79 1_555 1_555
N55_79 C150_79 1_555 1_555
C155_31 N59_31 1_555 1_555
N59_31 Co12_10 1_555 1_555
S11_31 C155_31 1_555 1_555
C156_31 N60_31 1_555 1_555
N60_31 Co12_10 1_555 1_555
S12_31 C156_31 1_555 1_555
Co17_6 N55_79 1_555 1_555
N66_31 Co12_10 1_555 1_555
N67_31 Co12_10 1_555 1_555
C133_79 N64_19 1_555 1_555
C137_79 N64_19 1_555 1_555
C139_79 N66_26 1_555 1_555
C143_79 N66_26 1_555 1_555
C145_79 N54_79 1_555 1_555
C146_79 N52_79 1_555 1_555
C146_79 N53_79 1_555 1_555
C151_79 N55_79 1_555 1_555
C155_32 N59_32 1_555 1_555
N59_32 Co12_8 1_555 1_555
S11_32 C155_32 1_555 1_555
N66_32 Co12_8 1_555 1_555
C133_80 H85_80 1_555 1_555
C134_80 C133_80 1_555 1_555
H86_80 C134_80 1_555 1_555
C135_80 C134_80 1_555 1_555
H87_80 C135_80 1_555 1_555
C136_80 C135_80 1_555 1_555
C137_80 C136_80 1_555 1_555
H88_80 C137_80 1_555 1_555
C139_80 H89_80 1_555 1_555
C140_80 C139_80 1_555 1_555
C141_80 C140_80 1_555 1_555
H90_80 C141_80 1_555 1_555
C142_80 C141_80 1_555 1_555
H91_80 C142_80 1_555 1_555
C143_80 C142_80 1_555 1_555
H92_80 C143_80 1_555 1_555
C144_80 C140_80 1_555 1_555
C145_80 C147_80 1_555 1_555
C146_80 C136_80 1_555 1_555
C147_80 C148_80 1_555 1_555
C148_80 H93_80 1_555 1_555
C149_80 C148_80 1_555 1_555
H94_80 C149_80 1_555 1_555
C150_80 C149_80 1_555 1_555
H95_80 C150_80 1_555 1_555
C151_80 C147_80 1_555 1_555
H96_80 C151_80 1_555 1_555
N52_80 C144_80 1_555 1_555
N53_80 C145_80 1_555 1_555
N54_80 C144_80 1_555 1_555
N55_80 C150_80 1_555 1_555
C156_32 N60_32 1_555 1_555
N60_32 Co12_9 1_555 1_555
S12_32 C156_32 1_555 1_555
Co17_5 N55_80 1_555 1_555
N67_32 Co12_9 1_555 1_555
C133_80 N64_18 1_555 1_555
C137_80 N64_18 1_555 1_555
C139_80 N66_27 1_555 1_555
C143_80 N66_27 1_555 1_555
C145_80 N54_80 1_555 1_555
C146_80 N52_80 1_555 1_555
C146_80 N53_80 1_555 1_555
C151_80 N55_80 1_555 1_555
C133_81 H85_81 1_555 1_555
C134_81 C133_81 1_555 1_555
H86_81 C134_81 1_555 1_555
C135_81 C134_81 1_555 1_555
H87_81 C135_81 1_555 1_555
C136_81 C135_81 1_555 1_555
C137_81 C136_81 1_555 1_555
H88_81 C137_81 1_555 1_555
C139_81 H89_81 1_555 1_555
C140_81 C139_81 1_555 1_555
C141_81 C140_81 1_555 1_555
H90_81 C141_81 1_555 1_555
C142_81 C141_81 1_555 1_555
H91_81 C142_81 1_555 1_555
C143_81 C142_81 1_555 1_555
H92_81 C143_81 1_555 1_555
C144_81 C140_81 1_555 1_555
C145_81 C147_81 1_555 1_555
C146_81 C136_81 1_555 1_555
C147_81 C148_81 1_555 1_555
C148_81 H93_81 1_555 1_555
C149_81 C148_81 1_555 1_555
H94_81 C149_81 1_555 1_555
C150_81 C149_81 1_555 1_555
H95_81 C150_81 1_555 1_555
C151_81 C147_81 1_555 1_555
H96_81 C151_81 1_555 1_555
N52_81 C144_81 1_555 1_555
N53_81 C145_81 1_555 1_555
N54_81 C144_81 1_555 1_555
N55_81 C150_81 1_555 1_555
Co17_44 N55_81 1_555 1_555
C133_81 N64_48 1_555 1_555
C137_81 N64_48 1_555 1_555
C139_81 N66_29 1_555 1_555
C143_81 N66_29 1_555 1_555
C145_81 N54_81 1_555 1_555
C146_81 N52_81 1_555 1_555
C146_81 N53_81 1_555 1_555
C151_81 N55_81 1_555 1_555
C133_82 H85_82 1_555 1_555
C134_82 C133_82 1_555 1_555
H86_82 C134_82 1_555 1_555
C135_82 C134_82 1_555 1_555
H87_82 C135_82 1_555 1_555
C136_82 C135_82 1_555 1_555
C137_82 C136_82 1_555 1_555
H88_82 C137_82 1_555 1_555
C139_82 H89_82 1_555 1_555
C140_82 C139_82 1_555 1_555
C141_82 C140_82 1_555 1_555
H90_82 C141_82 1_555 1_555
C142_82 C141_82 1_555 1_555
H91_82 C142_82 1_555 1_555
C143_82 C142_82 1_555 1_555
H92_82 C143_82 1_555 1_555
C144_82 C140_82 1_555 1_555
C145_82 C147_82 1_555 1_555
C146_82 C136_82 1_555 1_555
C147_82 C148_82 1_555 1_555
C148_82 H93_82 1_555 1_555
C149_82 C148_82 1_555 1_555
H94_82 C149_82 1_555 1_555
C150_82 C149_82 1_555 1_555
H95_82 C150_82 1_555 1_555
C151_82 C147_82 1_555 1_555
H96_82 C151_82 1_555 1_555
N52_82 C144_82 1_555 1_555
N53_82 C145_82 1_555 1_555
N54_82 C144_82 1_555 1_555
N55_82 C150_82 1_555 1_555
Co17_43 N55_82 1_555 1_555
C133_82 N64_45 1_555 1_555
C137_82 N64_45 1_555 1_555
C139_82 N66_32 1_555 1_555
C143_82 N66_32 1_555 1_555
C145_82 N54_82 1_555 1_555
C146_82 N52_82 1_555 1_555
C146_82 N53_82 1_555 1_555
C151_82 N55_82 1_555 1_555
C134_83 C133_83 1_555 1_555
H86_83 C134_83 1_555 1_555
C135_83 C134_83 1_555 1_555
H87_83 C135_83 1_555 1_555
C136_83 C135_83 1_555 1_555
C137_83 C136_83 1_555 1_555
H88_83 C137_83 1_555 1_555
C139_83 H89_83 1_555 1_555
C140_83 C139_83 1_555 1_555
C141_83 C140_83 1_555 1_555
H90_83 C141_83 1_555 1_555
C142_83 C141_83 1_555 1_555
H91_83 C142_83 1_555 1_555
C143_83 C142_83 1_555 1_555
H92_83 C143_83 1_555 1_555
C144_83 C140_83 1_555 1_555
C145_83 C147_83 1_555 1_555
C146_83 C136_83 1_555 1_555
C147_83 C148_83 1_555 1_555
C148_83 H93_83 1_555 1_555
C149_83 C148_83 1_555 1_555
H94_83 C149_83 1_555 1_555
C150_83 C149_83 1_555 1_555
H95_83 C150_83 1_555 1_555
C151_83 C147_83 1_555 1_555
H96_83 C151_83 1_555 1_555
N52_83 C144_83 1_555 1_555
N53_83 C145_83 1_555 1_555
N54_83 C144_83 1_555 1_555
N55_83 C150_83 1_555 1_555
Co17_42 N55_83 1_555 1_555
C133_83 N64_46 1_555 1_555
C137_83 N64_46 1_555 1_555
C139_83 N66_30 1_555 1_555
C143_83 N66_30 1_555 1_555
C145_83 N54_83 1_555 1_555
C146_83 N52_83 1_555 1_555
C146_83 N53_83 1_555 1_555
C151_83 N55_83 1_555 1_555
C133_84 H85_84 1_555 1_555
C134_84 C133_84 1_555 1_555
H86_84 C134_84 1_555 1_555
C135_84 C134_84 1_555 1_555
H87_84 C135_84 1_555 1_555
C136_84 C135_84 1_555 1_555
C137_84 C136_84 1_555 1_555
H88_84 C137_84 1_555 1_555
C139_84 H89_84 1_555 1_555
C140_84 C139_84 1_555 1_555
C141_84 C140_84 1_555 1_555
H90_84 C141_84 1_555 1_555
C142_84 C141_84 1_555 1_555
H91_84 C142_84 1_555 1_555
C143_84 C142_84 1_555 1_555
H92_84 C143_84 1_555 1_555
C144_84 C140_84 1_555 1_555
C145_84 C147_84 1_555 1_555
C146_84 C136_84 1_555 1_555
C147_84 C148_84 1_555 1_555
C148_84 H93_84 1_555 1_555
C149_84 C148_84 1_555 1_555
H94_84 C149_84 1_555 1_555
C150_84 C149_84 1_555 1_555
H95_84 C150_84 1_555 1_555
C151_84 C147_84 1_555 1_555
H96_84 C151_84 1_555 1_555
N52_84 C144_84 1_555 1_555
N53_84 C145_84 1_555 1_555
N54_84 C144_84 1_555 1_555
N55_84 C150_84 1_555 1_555
Co17_41 N55_84 1_555 1_555
C133_84 N64_47 1_555 1_555
C137_84 N64_47 1_555 1_555
C139_84 N66_31 1_555 1_555
C143_84 N66_31 1_555 1_555
C145_84 N54_84 1_555 1_555
C146_84 N52_84 1_555 1_555
C146_84 N53_84 1_555 1_555
C151_84 N55_84 1_555 1_555
C133_85 H85_85 1_555 1_555
C134_85 C133_85 1_555 1_555
H86_85 C134_85 1_555 1_555
C135_85 C134_85 1_555 1_555
H87_85 C135_85 1_555 1_555
C136_85 C135_85 1_555 1_555
C137_85 C136_85 1_555 1_555
H88_85 C137_85 1_555 1_555
C139_85 H89_85 1_555 1_555
C140_85 C139_85 1_555 1_555
C141_85 C140_85 1_555 1_555
H90_85 C141_85 1_555 1_555
C142_85 C141_85 1_555 1_555
H91_85 C142_85 1_555 1_555
C143_85 C142_85 1_555 1_555
H92_85 C143_85 1_555 1_555
C144_85 C140_85 1_555 1_555
C145_85 C147_85 1_555 1_555
C146_85 C136_85 1_555 1_555
C147_85 C148_85 1_555 1_555
C148_85 H93_85 1_555 1_555
C149_85 C148_85 1_555 1_555
H94_85 C149_85 1_555 1_555
C150_85 C149_85 1_555 1_555
H95_85 C150_85 1_555 1_555
C151_85 C147_85 1_555 1_555
H96_85 C151_85 1_555 1_555
N52_85 C144_85 1_555 1_555
N53_85 C145_85 1_555 1_555
N54_85 C144_85 1_555 1_555
N55_85 C150_85 1_555 1_555
Co17_48 N55_85 1_555 1_555
C133_85 N64_42 1_555 1_555
C137_85 N64_42 1_555 1_555
C139_85 N68_13 1_555 1_555
C143_85 N68_13 1_555 1_555
C145_85 N54_85 1_555 1_555
C146_85 N52_85 1_555 1_555
C146_85 N53_85 1_555 1_555
C151_85 N55_85 1_555 1_555
C134_86 C133_86 1_555 1_555
H86_86 C134_86 1_555 1_555
C135_86 C134_86 1_555 1_555
H87_86 C135_86 1_555 1_555
C136_86 C135_86 1_555 1_555
C137_86 C136_86 1_555 1_555
H88_86 C137_86 1_555 1_555
C139_86 H89_86 1_555 1_555
C140_86 C139_86 1_555 1_555
C141_86 C140_86 1_555 1_555
H90_86 C141_86 1_555 1_555
C142_86 C141_86 1_555 1_555
H91_86 C142_86 1_555 1_555
C143_86 C142_86 1_555 1_555
H92_86 C143_86 1_555 1_555
C144_86 C140_86 1_555 1_555
C145_86 C147_86 1_555 1_555
C146_86 C136_86 1_555 1_555
C147_86 C148_86 1_555 1_555
C148_86 H93_86 1_555 1_555
C149_86 C148_86 1_555 1_555
H94_86 C149_86 1_555 1_555
C150_86 C149_86 1_555 1_555
H95_86 C150_86 1_555 1_555
C151_86 C147_86 1_555 1_555
H96_86 C151_86 1_555 1_555
N52_86 C144_86 1_555 1_555
N53_86 C145_86 1_555 1_555
N54_86 C144_86 1_555 1_555
N55_86 C150_86 1_555 1_555
Co17_47 N55_86 1_555 1_555
C133_86 N64_43 1_555 1_555
C137_86 N64_43 1_555 1_555
C139_86 N68_14 1_555 1_555
C143_86 N68_14 1_555 1_555
C145_86 N54_86 1_555 1_555
C146_86 N52_86 1_555 1_555
C146_86 N53_86 1_555 1_555
C151_86 N55_86 1_555 1_555
C133_87 H85_87 1_555 1_555
C134_87 C133_87 1_555 1_555
H86_87 C134_87 1_555 1_555
C135_87 C134_87 1_555 1_555
H87_87 C135_87 1_555 1_555
C136_87 C135_87 1_555 1_555
C137_87 C136_87 1_555 1_555
H88_87 C137_87 1_555 1_555
C139_87 H89_87 1_555 1_555
C140_87 C139_87 1_555 1_555
C141_87 C140_87 1_555 1_555
H90_87 C141_87 1_555 1_555
C142_87 C141_87 1_555 1_555
H91_87 C142_87 1_555 1_555
C143_87 C142_87 1_555 1_555
H92_87 C143_87 1_555 1_555
C144_87 C140_87 1_555 1_555
C145_87 C147_87 1_555 1_555
C146_87 C136_87 1_555 1_555
C147_87 C148_87 1_555 1_555
C148_87 H93_87 1_555 1_555
C149_87 C148_87 1_555 1_555
H94_87 C149_87 1_555 1_555
C150_87 C149_87 1_555 1_555
H95_87 C150_87 1_555 1_555
C151_87 C147_87 1_555 1_555
H96_87 C151_87 1_555 1_555
N52_87 C144_87 1_555 1_555
N53_87 C145_87 1_555 1_555
N54_87 C144_87 1_555 1_555
N55_87 C150_87 1_555 1_555
Co17_46 N55_87 1_555 1_555
C133_87 N64_44 1_555 1_555
C137_87 N64_44 1_555 1_555
C139_87 N68_16 1_555 1_555
C143_87 N68_16 1_555 1_555
C145_87 N54_87 1_555 1_555
C146_87 N52_87 1_555 1_555
C146_87 N53_87 1_555 1_555
C151_87 N55_87 1_555 1_555
C133_88 H85_88 1_555 1_555
C134_88 C133_88 1_555 1_555
H86_88 C134_88 1_555 1_555
C135_88 C134_88 1_555 1_555
H87_88 C135_88 1_555 1_555
C136_88 C135_88 1_555 1_555
C137_88 C136_88 1_555 1_555
H88_88 C137_88 1_555 1_555
C139_88 H89_88 1_555 1_555
C140_88 C139_88 1_555 1_555
C141_88 C140_88 1_555 1_555
H90_88 C141_88 1_555 1_555
C142_88 C141_88 1_555 1_555
H91_88 C142_88 1_555 1_555
C143_88 C142_88 1_555 1_555
H92_88 C143_88 1_555 1_555
C144_88 C140_88 1_555 1_555
C145_88 C147_88 1_555 1_555
C146_88 C136_88 1_555 1_555
C147_88 C148_88 1_555 1_555
C148_88 H93_88 1_555 1_555
C149_88 C148_88 1_555 1_555
H94_88 C149_88 1_555 1_555
C150_88 C149_88 1_555 1_555
H95_88 C150_88 1_555 1_555
C151_88 C147_88 1_555 1_555
H96_88 C151_88 1_555 1_555
N52_88 C144_88 1_555 1_555
N53_88 C145_88 1_555 1_555
N54_88 C144_88 1_555 1_555
N55_88 C150_88 1_555 1_555
Co17_45 N55_88 1_555 1_555
C133_88 N64_41 1_555 1_555
C137_88 N64_41 1_555 1_555
C139_88 N68_15 1_555 1_555
C143_88 N68_15 1_555 1_555
C145_88 N54_88 1_555 1_555
C146_88 N52_88 1_555 1_555
C146_88 N53_88 1_555 1_555
C151_88 N55_88 1_555 1_555
C134_89 C133_89 1_555 1_555
H86_89 C134_89 1_555 1_555
C135_89 C134_89 1_555 1_555
H87_89 C135_89 1_555 1_555
C136_89 C135_89 1_555 1_555
C137_89 C136_89 1_555 1_555
H88_89 C137_89 1_555 1_555
C139_89 H89_89 1_555 1_555
C140_89 C139_89 1_555 1_555
C141_89 C140_89 1_555 1_555
H90_89 C141_89 1_555 1_555
C142_89 C141_89 1_555 1_555
H91_89 C142_89 1_555 1_555
C143_89 C142_89 1_555 1_555
H92_89 C143_89 1_555 1_555
C144_89 C140_89 1_555 1_555
C145_89 C147_89 1_555 1_555
C146_89 C136_89 1_555 1_555
C147_89 C148_89 1_555 1_555
C148_89 H93_89 1_555 1_555
C149_89 C148_89 1_555 1_555
H94_89 C149_89 1_555 1_555
C150_89 C149_89 1_555 1_555
H95_89 C150_89 1_555 1_555
C151_89 C147_89 1_555 1_555
H96_89 C151_89 1_555 1_555
N52_89 C144_89 1_555 1_555
N53_89 C145_89 1_555 1_555
N54_89 C144_89 1_555 1_555
N55_89 C150_89 1_555 1_555
Co17_20 N55_89 1_555 1_555
C133_89 N64_5 1_555 1_555
C137_89 N64_5 1_555 1_555
C139_89 N67_30 1_555 1_555
C143_89 N67_30 1_555 1_555
C145_89 N54_89 1_555 1_555
C146_89 N52_89 1_555 1_555
C146_89 N53_89 1_555 1_555
C151_89 N55_89 1_555 1_555
C133_90 H85_90 1_555 1_555
C134_90 C133_90 1_555 1_555
H86_90 C134_90 1_555 1_555
C135_90 C134_90 1_555 1_555
H87_90 C135_90 1_555 1_555
C136_90 C135_90 1_555 1_555
C137_90 C136_90 1_555 1_555
H88_90 C137_90 1_555 1_555
C139_90 H89_90 1_555 1_555
C140_90 C139_90 1_555 1_555
C141_90 C140_90 1_555 1_555
H90_90 C141_90 1_555 1_555
C142_90 C141_90 1_555 1_555
H91_90 C142_90 1_555 1_555
C143_90 C142_90 1_555 1_555
H92_90 C143_90 1_555 1_555
C144_90 C140_90 1_555 1_555
C145_90 C147_90 1_555 1_555
C146_90 C136_90 1_555 1_555
C147_90 C148_90 1_555 1_555
C148_90 H93_90 1_555 1_555
C149_90 C148_90 1_555 1_555
H94_90 C149_90 1_555 1_555
C150_90 C149_90 1_555 1_555
H95_90 C150_90 1_555 1_555
C151_90 C147_90 1_555 1_555
H96_90 C151_90 1_555 1_555
N52_90 C144_90 1_555 1_555
N53_90 C145_90 1_555 1_555
N54_90 C144_90 1_555 1_555
N55_90 C150_90 1_555 1_555
Co17_19 N55_90 1_555 1_555
C133_90 N64_8 1_555 1_555
C137_90 N64_8 1_555 1_555
C139_90 N67_31 1_555 1_555
C143_90 N67_31 1_555 1_555
C145_90 N54_90 1_555 1_555
C146_90 N52_90 1_555 1_555
C146_90 N53_90 1_555 1_555
C151_90 N55_90 1_555 1_555
C133_91 H85_91 1_555 1_555
C134_91 C133_91 1_555 1_555
H86_91 C134_91 1_555 1_555
C135_91 C134_91 1_555 1_555
H87_91 C135_91 1_555 1_555
C136_91 C135_91 1_555 1_555
C137_91 C136_91 1_555 1_555
H88_91 C137_91 1_555 1_555
C139_91 H89_91 1_555 1_555
C140_91 C139_91 1_555 1_555
C141_91 C140_91 1_555 1_555
H90_91 C141_91 1_555 1_555
C142_91 C141_91 1_555 1_555
H91_91 C142_91 1_555 1_555
C143_91 C142_91 1_555 1_555
H92_91 C143_91 1_555 1_555
C144_91 C140_91 1_555 1_555
C145_91 C147_91 1_555 1_555
C146_91 C136_91 1_555 1_555
C147_91 C148_91 1_555 1_555
C148_91 H93_91 1_555 1_555
C149_91 C148_91 1_555 1_555
H94_91 C149_91 1_555 1_555
C150_91 C149_91 1_555 1_555
H95_91 C150_91 1_555 1_555
C151_91 C147_91 1_555 1_555
H96_91 C151_91 1_555 1_555
N52_91 C144_91 1_555 1_555
N53_91 C145_91 1_555 1_555
N54_91 C144_91 1_555 1_555
N55_91 C150_91 1_555 1_555
Co17_18 N55_91 1_555 1_555
C133_91 N64_7 1_555 1_555
C137_91 N64_7 1_555 1_555
C139_91 N67_32 1_555 1_555
C143_91 N67_32 1_555 1_555
C145_91 N54_91 1_555 1_555
C146_91 N52_91 1_555 1_555
C146_91 N53_91 1_555 1_555
C151_91 N55_91 1_555 1_555
C133_92 H85_92 1_555 1_555
C134_92 C133_92 1_555 1_555
H86_92 C134_92 1_555 1_555
C135_92 C134_92 1_555 1_555
H87_92 C135_92 1_555 1_555
C136_92 C135_92 1_555 1_555
C137_92 C136_92 1_555 1_555
H88_92 C137_92 1_555 1_555
C139_92 H89_92 1_555 1_555
C140_92 C139_92 1_555 1_555
C141_92 C140_92 1_555 1_555
H90_92 C141_92 1_555 1_555
C142_92 C141_92 1_555 1_555
H91_92 C142_92 1_555 1_555
C143_92 C142_92 1_555 1_555
H92_92 C143_92 1_555 1_555
C144_92 C140_92 1_555 1_555
C145_92 C147_92 1_555 1_555
C146_92 C136_92 1_555 1_555
C147_92 C148_92 1_555 1_555
C148_92 H93_92 1_555 1_555
C149_92 C148_92 1_555 1_555
H94_92 C149_92 1_555 1_555
C150_92 C149_92 1_555 1_555
H95_92 C150_92 1_555 1_555
C151_92 C147_92 1_555 1_555
H96_92 C151_92 1_555 1_555
N52_92 C144_92 1_555 1_555
N53_92 C145_92 1_555 1_555
N54_92 C144_92 1_555 1_555
N55_92 C150_92 1_555 1_555
Co17_17 N55_92 1_555 1_555
C133_92 N64_6 1_555 1_555
C137_92 N64_6 1_555 1_555
C139_92 N67_29 1_555 1_555
C143_92 N67_29 1_555 1_555
C145_92 N54_92 1_555 1_555
C146_92 N52_92 1_555 1_555
C146_92 N53_92 1_555 1_555
C151_92 N55_92 1_555 1_555
C133_93 H85_93 1_555 1_555
C134_93 C133_93 1_555 1_555
H86_93 C134_93 1_555 1_555
C135_93 C134_93 1_555 1_555
H87_93 C135_93 1_555 1_555
C136_93 C135_93 1_555 1_555
C137_93 C136_93 1_555 1_555
H88_93 C137_93 1_555 1_555
C139_93 H89_93 1_555 1_555
C140_93 C139_93 1_555 1_555
C141_93 C140_93 1_555 1_555
H90_93 C141_93 1_555 1_555
C142_93 C141_93 1_555 1_555
H91_93 C142_93 1_555 1_555
C143_93 C142_93 1_555 1_555
H92_93 C143_93 1_555 1_555
C144_93 C140_93 1_555 1_555
C145_93 C147_93 1_555 1_555
C146_93 C136_93 1_555 1_555
C147_93 C148_93 1_555 1_555
C148_93 H93_93 1_555 1_555
C149_93 C148_93 1_555 1_555
H94_93 C149_93 1_555 1_555
C150_93 C149_93 1_555 1_555
H95_93 C150_93 1_555 1_555
C151_93 C147_93 1_555 1_555
H96_93 C151_93 1_555 1_555
N52_93 C144_93 1_555 1_555
N53_93 C145_93 1_555 1_555
N54_93 C144_93 1_555 1_555
N55_93 C150_93 1_555 1_555
Co17_40 N55_93 1_555 1_555
C133_93 N64_28 1_555 1_555
C137_93 N64_28 1_555 1_555
C139_93 N67_27 1_555 1_555
C143_93 N67_27 1_555 1_555
C145_93 N54_93 1_555 1_555
C146_93 N52_93 1_555 1_555
C146_93 N53_93 1_555 1_555
C151_93 N55_93 1_555 1_555
C133_94 H85_94 1_555 1_555
C134_94 C133_94 1_555 1_555
H86_94 C134_94 1_555 1_555
C135_94 C134_94 1_555 1_555
H87_94 C135_94 1_555 1_555
C136_94 C135_94 1_555 1_555
C137_94 C136_94 1_555 1_555
H88_94 C137_94 1_555 1_555
C139_94 H89_94 1_555 1_555
C140_94 C139_94 1_555 1_555
C141_94 C140_94 1_555 1_555
H90_94 C141_94 1_555 1_555
C142_94 C141_94 1_555 1_555
H91_94 C142_94 1_555 1_555
C143_94 C142_94 1_555 1_555
H92_94 C143_94 1_555 1_555
C144_94 C140_94 1_555 1_555
C145_94 C147_94 1_555 1_555
C146_94 C136_94 1_555 1_555
C147_94 C148_94 1_555 1_555
C148_94 H93_94 1_555 1_555
C149_94 C148_94 1_555 1_555
H94_94 C149_94 1_555 1_555
C150_94 C149_94 1_555 1_555
H95_94 C150_94 1_555 1_555
C151_94 C147_94 1_555 1_555
H96_94 C151_94 1_555 1_555
N52_94 C144_94 1_555 1_555
N53_94 C145_94 1_555 1_555
N54_94 C144_94 1_555 1_555
N55_94 C150_94 1_555 1_555
Co17_39 N55_94 1_555 1_555
C133_94 N64_25 1_555 1_555
C137_94 N64_25 1_555 1_555
C139_94 N67_26 1_555 1_555
C143_94 N67_26 1_555 1_555
C145_94 N54_94 1_555 1_555
C146_94 N52_94 1_555 1_555
C146_94 N53_94 1_555 1_555
C151_94 N55_94 1_555 1_555
C133_95 H85_95 1_555 1_555
C134_95 C133_95 1_555 1_555
H86_95 C134_95 1_555 1_555
C135_95 C134_95 1_555 1_555
H87_95 C135_95 1_555 1_555
C136_95 C135_95 1_555 1_555
C137_95 C136_95 1_555 1_555
H88_95 C137_95 1_555 1_555
C139_95 H89_95 1_555 1_555
C140_95 C139_95 1_555 1_555
C141_95 C140_95 1_555 1_555
H90_95 C141_95 1_555 1_555
C142_95 C141_95 1_555 1_555
H91_95 C142_95 1_555 1_555
C143_95 C142_95 1_555 1_555
H92_95 C143_95 1_555 1_555
C144_95 C140_95 1_555 1_555
C145_95 C147_95 1_555 1_555
C146_95 C136_95 1_555 1_555
C147_95 C148_95 1_555 1_555
C148_95 H93_95 1_555 1_555
C149_95 C148_95 1_555 1_555
H94_95 C149_95 1_555 1_555
C150_95 C149_95 1_555 1_555
H95_95 C150_95 1_555 1_555
C151_95 C147_95 1_555 1_555
H96_95 C151_95 1_555 1_555
N52_95 C144_95 1_555 1_555
N53_95 C145_95 1_555 1_555
N54_95 C144_95 1_555 1_555
N55_95 C150_95 1_555 1_555
Co17_38 N55_95 1_555 1_555
C133_95 N64_26 1_555 1_555
C137_95 N64_26 1_555 1_555
C139_95 N67_25 1_555 1_555
C143_95 N67_25 1_555 1_555
C145_95 N54_95 1_555 1_555
C146_95 N52_95 1_555 1_555
C146_95 N53_95 1_555 1_555
C151_95 N55_95 1_555 1_555
C134_96 C133_96 1_555 1_555
H86_96 C134_96 1_555 1_555
C135_96 C134_96 1_555 1_555
H87_96 C135_96 1_555 1_555
C136_96 C135_96 1_555 1_555
C137_96 C136_96 1_555 1_555
H88_96 C137_96 1_555 1_555
C139_96 H89_96 1_555 1_555
C140_96 C139_96 1_555 1_555
C141_96 C140_96 1_555 1_555
H90_96 C141_96 1_555 1_555
C142_96 C141_96 1_555 1_555
H91_96 C142_96 1_555 1_555
C143_96 C142_96 1_555 1_555
H92_96 C143_96 1_555 1_555
C144_96 C140_96 1_555 1_555
C145_96 C147_96 1_555 1_555
C146_96 C136_96 1_555 1_555
C147_96 C148_96 1_555 1_555
C148_96 H93_96 1_555 1_555
C149_96 C148_96 1_555 1_555
H94_96 C149_96 1_555 1_555
C150_96 C149_96 1_555 1_555
H95_96 C150_96 1_555 1_555
C151_96 C147_96 1_555 1_555
H96_96 C151_96 1_555 1_555
N52_96 C144_96 1_555 1_555
N53_96 C145_96 1_555 1_555
N54_96 C144_96 1_555 1_555
N55_96 C150_96 1_555 1_555
Co17_37 N55_96 1_555 1_555
C133_96 N64_27 1_555 1_555
C137_96 N64_27 1_555 1_555
C139_96 N67_28 1_555 1_555
C143_96 N67_28 1_555 1_555
C145_96 N54_96 1_555 1_555
C146_96 N52_96 1_555 1_555
C146_96 N53_96 1_555 1_555
C151_96 N55_96 1_555 1_555
C20_17 N8_17 1_555 1_555
C21_25 H13_25 1_555 1_555
C22_25 C21_25 1_555 1_555
H14_25 C22_25 1_555 1_555
C23_25 C22_25 1_555 1_555
H15_25 C23_25 1_555 1_555
C24_25 C23_25 1_555 1_555
C25_25 C24_25 1_555 1_555
H16_25 C25_25 1_555 1_555
C26_25 C24_25 1_555 1_555
N8_17 Co17_9 1_555 1_555
N9_17 Co17_9 1_555 1_555
N10_25 C26_25 1_555 1_555
S2_17 C20_17 1_555 1_555
C27_25 H17_25 1_555 1_555
C28_25 C27_25 1_555 1_555
H18_25 C28_25 1_555 1_555
C29_25 C28_25 1_555 1_555
H19_25 C29_25 1_555 1_555
C30_25 C29_25 1_555 1_555
C31_25 C30_25 1_555 1_555
H20_25 C31_25 1_555 1_555
C32_25 C30_25 1_555 1_555
N11_25 C27_25 1_555 1_555
N12_25 C26_25 1_555 1_555
C33_25 H21_25 1_555 1_555
C34_25 C33_25 1_555 1_555
H22_25 C34_25 1_555 1_555
C35_25 C34_25 1_555 1_555
H23_25 C35_25 1_555 1_555
C36_25 C35_25 1_555 1_555
C37_25 C36_25 1_555 1_555
H24_25 C37_25 1_555 1_555
C38_25 N10_25 1_555 1_555
N13_17 C33_25 1_555 1_555
N14_25 C32_25 1_555 1_555
Co17_4 N11_25 1_555 1_555
C57_25 N21_25 1_555 1_555
N21_25 Co17_4 1_555 1_555
S3_25 C57_25 1_555 1_555
C76_9 N28_9 1_555 1_555
C77_9 H49_9 1_555 1_555
C78_9 C77_9 1_555 1_555
H50_9 C78_9 1_555 1_555
C79_9 C78_9 1_555 1_555
H51_9 C79_9 1_555 1_555
C80_9 C79_9 1_555 1_555
C81_9 C80_9 1_555 1_555
H52_9 C81_9 1_555 1_555
C82_9 C80_9 1_555 1_555
N28_9 Co17_29 1_555 1_555
N29_9 Co17_29 1_555 1_555
N30_9 C82_9 1_555 1_555
S4_9 C76_9 1_555 1_555
C83_9 H53_9 1_555 1_555
C84_9 C83_9 1_555 1_555
H54_9 C84_9 1_555 1_555
C85_9 C84_9 1_555 1_555
H55_9 C85_9 1_555 1_555
C86_9 C85_9 1_555 1_555
C87_9 C86_9 1_555 1_555
H56_9 C87_9 1_555 1_555
C88_9 C86_9 1_555 1_555
N31_9 Co17_9 1_555 1_555
N32_9 C82_9 1_555 1_555
C89_9 H57_9 1_555 1_555
C90_9 C89_9 1_555 1_555
H58_9 C90_9 1_555 1_555
C91_9 C90_9 1_555 1_555
H59_9 C91_9 1_555 1_555
C92_9 C91_9 1_555 1_555
C93_9 C92_9 1_555 1_555
H60_9 C93_9 1_555 1_555
C94_9 N30_9 1_555 1_555
N33_9 C89_9 1_555 1_555
N34_9 C88_9 1_555 1_555
C113_17 N41_17 1_555 1_555
N41_17 Co17_9 1_555 1_555
S5_17 C113_17 1_555 1_555
C132_25 N48_25 1_555 1_555
N48_25 Co17_4 1_555 1_555
S6_25 C132_25 1_555 1_555
C153_9 N57_9 1_555 1_555
N57_9 Co17_29 1_555 1_555
S9_9 C153_9 1_555 1_555
N70_9 Co17_29 1_555 1_555
N71_9 Co17_4 1_555 1_555
C21_25 N9_17 1_555 1_555
C25_25 N9_17 1_555 1_555
C31_25 N11_25 1_555 1_555
C32_25 N12_25 1_555 1_555
C36_25 C38_25 1_555 1_555
C37_25 N13_17 1_555 1_555
C38_25 N14_25 1_555 1_555
C77_9 N29_9 1_555 1_555
C81_9 N29_9 1_555 1_555
C83_9 N31_9 1_555 1_555
C87_9 N31_9 1_555 1_555
C88_9 N32_9 1_555 1_555
C92_9 C94_9 1_555 1_555
C93_9 N33_9 1_555 1_555
C94_9 N34_9 1_555 1_555
C20_18 N8_18 1_555 1_555
C21_26 H13_26 1_555 1_555
C22_26 C21_26 1_555 1_555
H14_26 C22_26 1_555 1_555
C23_26 C22_26 1_555 1_555
H15_26 C23_26 1_555 1_555
C24_26 C23_26 1_555 1_555
C25_26 C24_26 1_555 1_555
H16_26 C25_26 1_555 1_555
C26_26 C24_26 1_555 1_555
N8_18 Co17_41 1_555 1_555
N9_18 Co17_41 1_555 1_555
N10_26 C26_26 1_555 1_555
S2_18 C20_18 1_555 1_555
C27_26 H17_26 1_555 1_555
C28_26 C27_26 1_555 1_555
H18_26 C28_26 1_555 1_555
C29_26 C28_26 1_555 1_555
H19_26 C29_26 1_555 1_555
C30_26 C29_26 1_555 1_555
C31_26 C30_26 1_555 1_555
H20_26 C31_26 1_555 1_555
C32_26 C30_26 1_555 1_555
N11_26 C27_26 1_555 1_555
N12_26 C26_26 1_555 1_555
C33_26 H21_26 1_555 1_555
C34_26 C33_26 1_555 1_555
H22_26 C34_26 1_555 1_555
C35_26 C34_26 1_555 1_555
H23_26 C35_26 1_555 1_555
C36_26 C35_26 1_555 1_555
C37_26 C36_26 1_555 1_555
H24_26 C37_26 1_555 1_555
C38_26 N10_26 1_555 1_555
N13_18 C33_26 1_555 1_555
N14_26 C32_26 1_555 1_555
Co17_26 N11_26 1_555 1_555
C57_26 N21_26 1_555 1_555
N21_26 Co17_26 1_555 1_555
S3_26 C57_26 1_555 1_555
C77_10 H49_10 1_555 1_555
C78_10 C77_10 1_555 1_555
H50_10 C78_10 1_555 1_555
C79_10 C78_10 1_555 1_555
H51_10 C79_10 1_555 1_555
C80_10 C79_10 1_555 1_555
C81_10 C80_10 1_555 1_555
H52_10 C81_10 1_555 1_555
C82_10 C80_10 1_555 1_555
N30_10 C82_10 1_555 1_555
S4_10 C76_10 1_555 1_555
C83_10 H53_10 1_555 1_555
C84_10 C83_10 1_555 1_555
H54_10 C84_10 1_555 1_555
C85_10 C84_10 1_555 1_555
H55_10 C85_10 1_555 1_555
C86_10 C85_10 1_555 1_555
C87_10 C86_10 1_555 1_555
H56_10 C87_10 1_555 1_555
C88_10 C86_10 1_555 1_555
N31_10 Co17_41 1_555 1_555
N32_10 C82_10 1_555 1_555
C89_10 H57_10 1_555 1_555
C90_10 C89_10 1_555 1_555
H58_10 C90_10 1_555 1_555
C91_10 C90_10 1_555 1_555
H59_10 C91_10 1_555 1_555
C92_10 C91_10 1_555 1_555
C93_10 C92_10 1_555 1_555
H60_10 C93_10 1_555 1_555
C94_10 N30_10 1_555 1_555
N33_10 C89_10 1_555 1_555
N34_10 C88_10 1_555 1_555
C113_18 N41_18 1_555 1_555
N41_18 Co17_41 1_555 1_555
S5_18 C113_18 1_555 1_555
C132_26 N48_26 1_555 1_555
N48_26 Co17_26 1_555 1_555
S6_26 C132_26 1_555 1_555
S9_10 C153_10 1_555 1_555
Co17 N33_10 1_555 1_555
Co17_8 N13_18 1_555 1_555
N71_10 Co17_26 1_555 1_555
C21_26 N9_18 1_555 1_555
C25_26 N9_18 1_555 1_555
C31_26 N11_26 1_555 1_555
C32_26 N12_26 1_555 1_555
C36_26 C38_26 1_555 1_555
C37_26 N13_18 1_555 1_555
C38_26 N14_26 1_555 1_555
C77_10 N29_10 1_555 1_555
C81_10 N29_10 1_555 1_555
C83_10 N31_10 1_555 1_555
C87_10 N31_10 1_555 1_555
C88_10 N32_10 1_555 1_555
C92_10 C94_10 1_555 1_555
C93_10 N33_10 1_555 1_555
C94_10 N34_10 1_555 1_555
N28_10 Co17_30 1_555 1_555
N57_10 Co17_30 1_555 1_555
C21_27 H13_27 1_555 1_555
C22_27 C21_27 1_555 1_555
H14_27 C22_27 1_555 1_555
C23_27 C22_27 1_555 1_555
H15_27 C23_27 1_555 1_555
C24_27 C23_27 1_555 1_555
C25_27 C24_27 1_555 1_555
H16_27 C25_27 1_555 1_555
C26_27 C24_27 1_555 1_555
N10_27 C26_27 1_555 1_555
S2_19 C20_19 1_555 1_555
C27_27 H17_27 1_555 1_555
C28_27 C27_27 1_555 1_555
H18_27 C28_27 1_555 1_555
C29_27 C28_27 1_555 1_555
H19_27 C29_27 1_555 1_555
C30_27 C29_27 1_555 1_555
C31_27 C30_27 1_555 1_555
H20_27 C31_27 1_555 1_555
C32_27 C30_27 1_555 1_555
N11_27 C27_27 1_555 1_555
N12_27 C26_27 1_555 1_555
C33_27 H21_27 1_555 1_555
C34_27 C33_27 1_555 1_555
H22_27 C34_27 1_555 1_555
C35_27 C34_27 1_555 1_555
H23_27 C35_27 1_555 1_555
C36_27 C35_27 1_555 1_555
C37_27 C36_27 1_555 1_555
H24_27 C37_27 1_555 1_555
C38_27 N10_27 1_555 1_555
N13_19 C33_27 1_555 1_555
N14_27 C32_27 1_555 1_555
S3_27 C57_27 1_555 1_555
C76_11 N28_11 1_555 1_555
C77_11 H49_11 1_555 1_555
C78_11 C77_11 1_555 1_555
H50_11 C78_11 1_555 1_555
C79_11 C78_11 1_555 1_555
H51_11 C79_11 1_555 1_555
C80_11 C79_11 1_555 1_555
C81_11 C80_11 1_555 1_555
H52_11 C81_11 1_555 1_555
C82_11 C80_11 1_555 1_555
N28_11 Co17_5 1_555 1_555
N29_11 Co17_5 1_555 1_555
N30_11 C82_11 1_555 1_555
S4_11 C76_11 1_555 1_555
C83_11 H53_11 1_555 1_555
C84_11 C83_11 1_555 1_555
H54_11 C84_11 1_555 1_555
C85_11 C84_11 1_555 1_555
H55_11 C85_11 1_555 1_555
C86_11 C85_11 1_555 1_555
C87_11 C86_11 1_555 1_555
H56_11 C87_11 1_555 1_555
C88_11 C86_11 1_555 1_555
N32_11 C82_11 1_555 1_555
C89_11 H57_11 1_555 1_555
C90_11 C89_11 1_555 1_555
H58_11 C90_11 1_555 1_555
C91_11 C90_11 1_555 1_555
H59_11 C91_11 1_555 1_555
C92_11 C91_11 1_555 1_555
C93_11 C92_11 1_555 1_555
H60_11 C93_11 1_555 1_555
C94_11 N30_11 1_555 1_555
N33_11 C89_11 1_555 1_555
N34_11 C88_11 1_555 1_555
S5_19 C113_19 1_555 1_555
S6_27 C132_27 1_555 1_555
C153_11 N57_11 1_555 1_555
N57_11 Co17_5 1_555 1_555
S9_11 C153_11 1_555 1_555
Co17_28 N33_11 1_555 1_555
Co17_31 N13_19 1_555 1_555
N70_11 Co17_5 1_555 1_555
C21_27 N9_19 1_555 1_555
C25_27 N9_19 1_555 1_555
C31_27 N11_27 1_555 1_555
C32_27 N12_27 1_555 1_555
C36_27 C38_27 1_555 1_555
C37_27 N13_19 1_555 1_555
C38_27 N14_27 1_555 1_555
C77_11 N29_11 1_555 1_555
C81_11 N29_11 1_555 1_555
C83_11 N31_11 1_555 1_555
C87_11 N31_11 1_555 1_555
C88_11 N32_11 1_555 1_555
C92_11 C94_11 1_555 1_555
C93_11 N33_11 1_555 1_555
C94_11 N34_11 1_555 1_555
N8_19 Co17_42 1_555 1_555
N41_19 Co17_42 1_555 1_555
N21_27 Co17_3 1_555 1_555
N48_27 Co17_3 1_555 1_555
C20_20 N8_20 1_555 1_555
C21_28 H13_28 1_555 1_555
C22_28 C21_28 1_555 1_555
H14_28 C22_28 1_555 1_555
C23_28 C22_28 1_555 1_555
H15_28 C23_28 1_555 1_555
C24_28 C23_28 1_555 1_555
C25_28 C24_28 1_555 1_555
H16_28 C25_28 1_555 1_555
C26_28 C24_28 1_555 1_555
N8_20 Co17_10 1_555 1_555
N9_20 Co17_10 1_555 1_555
N10_28 C26_28 1_555 1_555
S2_20 C20_20 1_555 1_555
C27_28 H17_28 1_555 1_555
C28_28 C27_28 1_555 1_555
H18_28 C28_28 1_555 1_555
C29_28 C28_28 1_555 1_555
H19_28 C29_28 1_555 1_555
C30_28 C29_28 1_555 1_555
C31_28 C30_28 1_555 1_555
H20_28 C31_28 1_555 1_555
C32_28 C30_28 1_555 1_555
N11_28 C27_28 1_555 1_555
N12_28 C26_28 1_555 1_555
C33_28 H21_28 1_555 1_555
C34_28 C33_28 1_555 1_555
H22_28 C34_28 1_555 1_555
C35_28 C34_28 1_555 1_555
H23_28 C35_28 1_555 1_555
C36_28 C35_28 1_555 1_555
C37_28 C36_28 1_555 1_555
H24_28 C37_28 1_555 1_555
C38_28 N10_28 1_555 1_555
N13_20 C33_28 1_555 1_555
N14_28 C32_28 1_555 1_555
Co17_25 N11_28 1_555 1_555
C57_28 N21_28 1_555 1_555
N21_28 Co17_25 1_555 1_555
S3_28 C57_28 1_555 1_555
C76_12 N28_12 1_555 1_555
C77_12 H49_12 1_555 1_555
C78_12 C77_12 1_555 1_555
H50_12 C78_12 1_555 1_555
C79_12 C78_12 1_555 1_555
H51_12 C79_12 1_555 1_555
C80_12 C79_12 1_555 1_555
C81_12 C80_12 1_555 1_555
H52_12 C81_12 1_555 1_555
C82_12 C80_12 1_555 1_555
N28_12 Co17_6 1_555 1_555
N29_12 Co17_6 1_555 1_555
N30_12 C82_12 1_555 1_555
S4_12 C76_12 1_555 1_555
C83_12 H53_12 1_555 1_555
C84_12 C83_12 1_555 1_555
H54_12 C84_12 1_555 1_555
C85_12 C84_12 1_555 1_555
H55_12 C85_12 1_555 1_555
C86_12 C85_12 1_555 1_555
C87_12 C86_12 1_555 1_555
H56_12 C87_12 1_555 1_555
C88_12 C86_12 1_555 1_555
N31_12 Co17_10 1_555 1_555
N32_12 C82_12 1_555 1_555
C89_12 H57_12 1_555 1_555
C90_12 C89_12 1_555 1_555
H58_12 C90_12 1_555 1_555
C91_12 C90_12 1_555 1_555
H59_12 C91_12 1_555 1_555
C92_12 C91_12 1_555 1_555
C93_12 C92_12 1_555 1_555
H60_12 C93_12 1_555 1_555
C94_12 N30_12 1_555 1_555
N33_12 C89_12 1_555 1_555
N34_12 C88_12 1_555 1_555
C113_20 N41_20 1_555 1_555
N41_20 Co17_10 1_555 1_555
S5_20 C113_20 1_555 1_555
C132_28 N48_28 1_555 1_555
N48_28 Co17_25 1_555 1_555
S6_28 C132_28 1_555 1_555
C153_12 N57_12 1_555 1_555
N57_12 Co17_6 1_555 1_555
S9_12 C153_12 1_555 1_555
Co17_2 N33_12 1_555 1_555
Co17_32 N13_20 1_555 1_555
N70_12 Co17_6 1_555 1_555
N71_12 Co17_25 1_555 1_555
C21_28 N9_20 1_555 1_555
C25_28 N9_20 1_555 1_555
C31_28 N11_28 1_555 1_555
C32_28 N12_28 1_555 1_555
C36_28 C38_28 1_555 1_555
C37_28 N13_20 1_555 1_555
C38_28 N14_28 1_555 1_555
C77_12 N29_12 1_555 1_555
C81_12 N29_12 1_555 1_555
C83_12 N31_12 1_555 1_555
C87_12 N31_12 1_555 1_555
C88_12 N32_12 1_555 1_555
C92_12 C94_12 1_555 1_555
C93_12 N33_12 1_555 1_555
C94_12 N34_12 1_555 1_555
C20_21 N8_21 1_555 1_555
C21_29 H13_29 1_555 1_555
C22_29 C21_29 1_555 1_555
H14_29 C22_29 1_555 1_555
C23_29 C22_29 1_555 1_555
H15_29 C23_29 1_555 1_555
C24_29 C23_29 1_555 1_555
C25_29 C24_29 1_555 1_555
H16_29 C25_29 1_555 1_555
C26_29 C24_29 1_555 1_555
N8_21 Co17 1_555 1_555
N9_21 Co17 1_555 1_555
N10_29 C26_29 1_555 1_555
S2_21 C20_21 1_555 1_555
C27_29 H17_29 1_555 1_555
C28_29 C27_29 1_555 1_555
H18_29 C28_29 1_555 1_555
C29_29 C28_29 1_555 1_555
H19_29 C29_29 1_555 1_555
C30_29 C29_29 1_555 1_555
C31_29 C30_29 1_555 1_555
H20_29 C31_29 1_555 1_555
C32_29 C30_29 1_555 1_555
N11_29 C27_29 1_555 1_555
N12_29 C26_29 1_555 1_555
C33_29 H21_29 1_555 1_555
C34_29 C33_29 1_555 1_555
H22_29 C34_29 1_555 1_555
C35_29 C34_29 1_555 1_555
H23_29 C35_29 1_555 1_555
C36_29 C35_29 1_555 1_555
C37_29 C36_29 1_555 1_555
H24_29 C37_29 1_555 1_555
C38_29 N10_29 1_555 1_555
N13_21 C33_29 1_555 1_555
N14_29 C32_29 1_555 1_555
Co17_8 N11_29 1_555 1_555
C57_29 N21_29 1_555 1_555
N21_29 Co17_8 1_555 1_555
S3_29 C57_29 1_555 1_555
C113_21 N41_21 1_555 1_555
N41_21 Co17 1_555 1_555
S5_21 C113_21 1_555 1_555
C132_29 N48_29 1_555 1_555
N48_29 Co17_8 1_555 1_555
S6_29 C132_29 1_555 1_555
C21_29 N9_21 1_555 1_555
C25_29 N9_21 1_555 1_555
C31_29 N11_29 1_555 1_555
C32_29 N12_29 1_555 1_555
C36_29 C38_29 1_555 1_555
C37_29 N13_21 1_555 1_555
C38_29 N14_29 1_555 1_555
C20_22 N8_22 1_555 1_555
C21_30 H13_30 1_555 1_555
C22_30 C21_30 1_555 1_555
H14_30 C22_30 1_555 1_555
C23_30 C22_30 1_555 1_555
H15_30 C23_30 1_555 1_555
C24_30 C23_30 1_555 1_555
C25_30 C24_30 1_555 1_555
H16_30 C25_30 1_555 1_555
C26_30 C24_30 1_555 1_555
N8_22 Co17_28 1_555 1_555
N9_22 Co17_28 1_555 1_555
N10_30 C26_30 1_555 1_555
S2_22 C20_22 1_555 1_555
C27_30 H17_30 1_555 1_555
C28_30 C27_30 1_555 1_555
H18_30 C28_30 1_555 1_555
C29_30 C28_30 1_555 1_555
H19_30 C29_30 1_555 1_555
C30_30 C29_30 1_555 1_555
C31_30 C30_30 1_555 1_555
H20_30 C31_30 1_555 1_555
C32_30 C30_30 1_555 1_555
N11_30 C27_30 1_555 1_555
N12_30 C26_30 1_555 1_555
C33_30 H21_30 1_555 1_555
C34_30 C33_30 1_555 1_555
H22_30 C34_30 1_555 1_555
C35_30 C34_30 1_555 1_555
H23_30 C35_30 1_555 1_555
C36_30 C35_30 1_555 1_555
C37_30 C36_30 1_555 1_555
H24_30 C37_30 1_555 1_555
C38_30 N10_30 1_555 1_555
N13_22 C33_30 1_555 1_555
N14_30 C32_30 1_555 1_555
Co17_31 N11_30 1_555 1_555
C57_30 N21_30 1_555 1_555
N21_30 Co17_31 1_555 1_555
S3_30 C57_30 1_555 1_555
C113_22 N41_22 1_555 1_555
N41_22 Co17_28 1_555 1_555
S5_22 C113_22 1_555 1_555
C132_30 N48_30 1_555 1_555
N48_30 Co17_31 1_555 1_555
S6_30 C132_30 1_555 1_555
Co17_12 N13_22 1_555 1_555
C21_30 N9_22 1_555 1_555
C25_30 N9_22 1_555 1_555
C31_30 N11_30 1_555 1_555
C32_30 N12_30 1_555 1_555
C36_30 C38_30 1_555 1_555
C37_30 N13_22 1_555 1_555
C38_30 N14_30 1_555 1_555
C21_31 H13_31 1_555 1_555
C22_31 C21_31 1_555 1_555
H14_31 C22_31 1_555 1_555
C23_31 C22_31 1_555 1_555
H15_31 C23_31 1_555 1_555
C24_31 C23_31 1_555 1_555
C25_31 C24_31 1_555 1_555
H16_31 C25_31 1_555 1_555
C26_31 C24_31 1_555 1_555
N10_31 C26_31 1_555 1_555
S2_23 C20_23 1_555 1_555
C27_31 H17_31 1_555 1_555
C28_31 C27_31 1_555 1_555
H18_31 C28_31 1_555 1_555
C29_31 C28_31 1_555 1_555
H19_31 C29_31 1_555 1_555
C30_31 C29_31 1_555 1_555
C31_31 C30_31 1_555 1_555
H20_31 C31_31 1_555 1_555
C32_31 C30_31 1_555 1_555
N11_31 C27_31 1_555 1_555
N12_31 C26_31 1_555 1_555
C33_31 H21_31 1_555 1_555
C34_31 C33_31 1_555 1_555
H22_31 C34_31 1_555 1_555
C35_31 C34_31 1_555 1_555
H23_31 C35_31 1_555 1_555
C36_31 C35_31 1_555 1_555
C37_31 C36_31 1_555 1_555
H24_31 C37_31 1_555 1_555
C38_31 N10_31 1_555 1_555
N13_23 C33_31 1_555 1_555
N14_31 C32_31 1_555 1_555
S3_31 C57_31 1_555 1_555
S5_23 C113_23 1_555 1_555
S6_31 C132_31 1_555 1_555
Co17_43 N13_23 1_555 1_555
C21_31 N9_23 1_555 1_555
C25_31 N9_23 1_555 1_555
C31_31 N11_31 1_555 1_555
C32_31 N12_31 1_555 1_555
C36_31 C38_31 1_555 1_555
C37_31 N13_23 1_555 1_555
C38_31 N14_31 1_555 1_555
N21_31 Co17_7 1_555 1_555
N48_31 Co17_7 1_555 1_555
N8_23 Co17_27 1_555 1_555
N41_23 Co17_27 1_555 1_555
C20_24 N8_24 1_555 1_555
C21_32 H13_32 1_555 1_555
C22_32 C21_32 1_555 1_555
H14_32 C22_32 1_555 1_555
C23_32 C22_32 1_555 1_555
H15_32 C23_32 1_555 1_555
C24_32 C23_32 1_555 1_555
C25_32 C24_32 1_555 1_555
H16_32 C25_32 1_555 1_555
C26_32 C24_32 1_555 1_555
N8_24 Co17_2 1_555 1_555
N9_24 Co17_2 1_555 1_555
N10_32 C26_32 1_555 1_555
S2_24 C20_24 1_555 1_555
C27_32 H17_32 1_555 1_555
C28_32 C27_32 1_555 1_555
H18_32 C28_32 1_555 1_555
C29_32 C28_32 1_555 1_555
H19_32 C29_32 1_555 1_555
C30_32 C29_32 1_555 1_555
C31_32 C30_32 1_555 1_555
H20_32 C31_32 1_555 1_555
C32_32 C30_32 1_555 1_555
N11_32 C27_32 1_555 1_555
N12_32 C26_32 1_555 1_555
C33_32 H21_32 1_555 1_555
C34_32 C33_32 1_555 1_555
H22_32 C34_32 1_555 1_555
C35_32 C34_32 1_555 1_555
H23_32 C35_32 1_555 1_555
C36_32 C35_32 1_555 1_555
C37_32 C36_32 1_555 1_555
H24_32 C37_32 1_555 1_555
C38_32 N10_32 1_555 1_555
N13_24 C33_32 1_555 1_555
N14_32 C32_32 1_555 1_555
Co17_32 N11_32 1_555 1_555
C57_32 N21_32 1_555 1_555
N21_32 Co17_32 1_555 1_555
S3_32 C57_32 1_555 1_555
C113_24 N41_24 1_555 1_555
N41_24 Co17_2 1_555 1_555
S5_24 C113_24 1_555 1_555
C132_32 N48_32 1_555 1_555
N48_32 Co17_32 1_555 1_555
S6_32 C132_32 1_555 1_555
Co17_44 N13_24 1_555 1_555
C21_32 N9_24 1_555 1_555
C25_32 N9_24 1_555 1_555
C31_32 N11_32 1_555 1_555
C32_32 N12_32 1_555 1_555
C36_32 C38_32 1_555 1_555
C37_32 N13_24 1_555 1_555
C38_32 N14_32 1_555 1_555
C21_33 H13_33 1_555 1_555
C22_33 C21_33 1_555 1_555
H14_33 C22_33 1_555 1_555
C23_33 C22_33 1_555 1_555
H15_33 C23_33 1_555 1_555
C24_33 C23_33 1_555 1_555
C25_33 C24_33 1_555 1_555
H16_33 C25_33 1_555 1_555
C26_33 C24_33 1_555 1_555
N10_33 C26_33 1_555 1_555
C27_33 H17_33 1_555 1_555
C28_33 C27_33 1_555 1_555
H18_33 C28_33 1_555 1_555
C29_33 C28_33 1_555 1_555
H19_33 C29_33 1_555 1_555
C30_33 C29_33 1_555 1_555
C31_33 C30_33 1_555 1_555
H20_33 C31_33 1_555 1_555
C32_33 C30_33 1_555 1_555
N11_33 C27_33 1_555 1_555
N12_33 C26_33 1_555 1_555
C33_33 H21_33 1_555 1_555
C34_33 C33_33 1_555 1_555
H22_33 C34_33 1_555 1_555
C35_33 C34_33 1_555 1_555
H23_33 C35_33 1_555 1_555
C36_33 C35_33 1_555 1_555
C37_33 C36_33 1_555 1_555
H24_33 C37_33 1_555 1_555
C38_33 N10_33 1_555 1_555
N71_11 C33_33 1_555 1_555
N14_33 C32_33 1_555 1_555
Co17_12 N11_33 1_555 1_555
C57_33 N21_33 1_555 1_555
N21_33 Co17_12 1_555 1_555
S3_33 C57_33 1_555 1_555
C132_33 N48_33 1_555 1_555
N48_33 Co17_12 1_555 1_555
S6_33 C132_33 1_555 1_555
C21_33 N70_11 1_555 1_555
C25_33 N70_11 1_555 1_555
C31_33 N11_33 1_555 1_555
C32_33 N12_33 1_555 1_555
C36_33 C38_33 1_555 1_555
C37_33 N71_11 1_555 1_555
C38_33 N14_33 1_555 1_555
C21_34 H13_34 1_555 1_555
C22_34 C21_34 1_555 1_555
H14_34 C22_34 1_555 1_555
C23_34 C22_34 1_555 1_555
H15_34 C23_34 1_555 1_555
C24_34 C23_34 1_555 1_555
C25_34 C24_34 1_555 1_555
H16_34 C25_34 1_555 1_555
C26_34 C24_34 1_555 1_555
N10_34 C26_34 1_555 1_555
C27_34 H17_34 1_555 1_555
C28_34 C27_34 1_555 1_555
H18_34 C28_34 1_555 1_555
C29_34 C28_34 1_555 1_555
H19_34 C29_34 1_555 1_555
C30_34 C29_34 1_555 1_555
C31_34 C30_34 1_555 1_555
H20_34 C31_34 1_555 1_555
C32_34 C30_34 1_555 1_555
N11_34 C27_34 1_555 1_555
N12_34 C26_34 1_555 1_555
C33_34 H21_34 1_555 1_555
C34_34 C33_34 1_555 1_555
H22_34 C34_34 1_555 1_555
C35_34 C34_34 1_555 1_555
H23_34 C35_34 1_555 1_555
C36_34 C35_34 1_555 1_555
C37_34 C36_34 1_555 1_555
H24_34 C37_34 1_555 1_555
C38_34 N10_34 1_555 1_555
N71_9 C33_34 1_555 1_555
N14_34 C32_34 1_555 1_555
Co17_43 N11_34 1_555 1_555
C57_34 N21_34 1_555 1_555
N21_34 Co17_43 1_555 1_555
S3_34 C57_34 1_555 1_555
C132_34 N48_34 1_555 1_555
N48_34 Co17_43 1_555 1_555
S6_34 C132_34 1_555 1_555
C21_34 N70_9 1_555 1_555
C25_34 N70_9 1_555 1_555
C31_34 N11_34 1_555 1_555
C32_34 N12_34 1_555 1_555
C36_34 C38_34 1_555 1_555
C37_34 N71_9 1_555 1_555
C38_34 N14_34 1_555 1_555
C21_35 H13_35 1_555 1_555
C22_35 C21_35 1_555 1_555
H14_35 C22_35 1_555 1_555
C23_35 C22_35 1_555 1_555
H15_35 C23_35 1_555 1_555
C24_35 C23_35 1_555 1_555
C25_35 C24_35 1_555 1_555
H16_35 C25_35 1_555 1_555
C26_35 C24_35 1_555 1_555
N10_35 C26_35 1_555 1_555
C27_35 H17_35 1_555 1_555
C28_35 C27_35 1_555 1_555
H18_35 C28_35 1_555 1_555
C29_35 C28_35 1_555 1_555
H19_35 C29_35 1_555 1_555
C30_35 C29_35 1_555 1_555
C31_35 C30_35 1_555 1_555
H20_35 C31_35 1_555 1_555
C32_35 C30_35 1_555 1_555
N11_35 C27_35 1_555 1_555
N12_35 C26_35 1_555 1_555
C33_35 H21_35 1_555 1_555
C34_35 C33_35 1_555 1_555
H22_35 C34_35 1_555 1_555
C35_35 C34_35 1_555 1_555
H23_35 C35_35 1_555 1_555
C36_35 C35_35 1_555 1_555
C37_35 C36_35 1_555 1_555
H24_35 C37_35 1_555 1_555
C38_35 N10_35 1_555 1_555
N71_10 C33_35 1_555 1_555
N14_35 C32_35 1_555 1_555
S3_35 C57_35 1_555 1_555
S6_35 C132_35 1_555 1_555
C21_35 N70_10 1_555 1_555
C25_35 N70_10 1_555 1_555
C31_35 N11_35 1_555 1_555
C32_35 N12_35 1_555 1_555
C36_35 C38_35 1_555 1_555
C37_35 N71_10 1_555 1_555
C38_35 N14_35 1_555 1_555
N21_35 Co17_11 1_555 1_555
N48_35 Co17_11 1_555 1_555
C21_36 H13_36 1_555 1_555
C22_36 C21_36 1_555 1_555
H14_36 C22_36 1_555 1_555
C23_36 C22_36 1_555 1_555
H15_36 C23_36 1_555 1_555
C24_36 C23_36 1_555 1_555
C25_36 C24_36 1_555 1_555
H16_36 C25_36 1_555 1_555
C26_36 C24_36 1_555 1_555
N10_36 C26_36 1_555 1_555
C27_36 H17_36 1_555 1_555
C28_36 C27_36 1_555 1_555
H18_36 C28_36 1_555 1_555
C29_36 C28_36 1_555 1_555
H19_36 C29_36 1_555 1_555
C30_36 C29_36 1_555 1_555
C31_36 C30_36 1_555 1_555
H20_36 C31_36 1_555 1_555
C32_36 C30_36 1_555 1_555
N11_36 C27_36 1_555 1_555
N12_36 C26_36 1_555 1_555
C33_36 H21_36 1_555 1_555
C34_36 C33_36 1_555 1_555
H22_36 C34_36 1_555 1_555
C35_36 C34_36 1_555 1_555
H23_36 C35_36 1_555 1_555
C36_36 C35_36 1_555 1_555
C37_36 C36_36 1_555 1_555
H24_36 C37_36 1_555 1_555
C38_36 N10_36 1_555 1_555
N71_12 C33_36 1_555 1_555
N14_36 C32_36 1_555 1_555
Co17_44 N11_36 1_555 1_555
C57_36 N21_36 1_555 1_555
N21_36 Co17_44 1_555 1_555
S3_36 C57_36 1_555 1_555
C132_36 N48_36 1_555 1_555
N48_36 Co17_44 1_555 1_555
S6_36 C132_36 1_555 1_555
C21_36 N70_12 1_555 1_555
C25_36 N70_12 1_555 1_555
C31_36 N11_36 1_555 1_555
C32_36 N12_36 1_555 1_555
C36_36 C38_36 1_555 1_555
C37_36 N71_12 1_555 1_555
C38_36 N14_36 1_555 1_555
N21_37 Co17_45 1_555 1_555
N48_37 Co17_45 1_555 1_555
C20_25 N8_25 1_555 1_555
C21_37 H13_37 1_555 1_555
C22_37 C21_37 1_555 1_555
H14_37 C22_37 1_555 1_555
C23_37 C22_37 1_555 1_555
H15_37 C23_37 1_555 1_555
C24_37 C23_37 1_555 1_555
C25_37 C24_37 1_555 1_555
H16_37 C25_37 1_555 1_555
C26_37 C24_37 1_555 1_555
N8_25 Co17_40 1_555 1_555
N9_25 Co17_40 1_555 1_555
N10_37 C26_37 1_555 1_555
S2_25 C20_25 1_555 1_555
C27_37 H17_37 1_555 1_555
C28_37 C27_37 1_555 1_555
H18_37 C28_37 1_555 1_555
C29_37 C28_37 1_555 1_555
H19_37 C29_37 1_555 1_555
C30_37 C29_37 1_555 1_555
C31_37 C30_37 1_555 1_555
H20_37 C31_37 1_555 1_555
C32_37 C30_37 1_555 1_555
N11_37 C27_37 1_555 1_555
N12_37 C26_37 1_555 1_555
C33_37 H21_37 1_555 1_555
C34_37 C33_37 1_555 1_555
H22_37 C34_37 1_555 1_555
C35_37 C34_37 1_555 1_555
H23_37 C35_37 1_555 1_555
C36_37 C35_37 1_555 1_555
C37_37 C36_37 1_555 1_555
H24_37 C37_37 1_555 1_555
C38_37 N10_37 1_555 1_555
N13_25 C33_37 1_555 1_555
N14_37 C32_37 1_555 1_555
S3_37 C57_37 1_555 1_555
C76_13 N28_13 1_555 1_555
C77_13 H49_13 1_555 1_555
C78_13 C77_13 1_555 1_555
H50_13 C78_13 1_555 1_555
C79_13 C78_13 1_555 1_555
H51_13 C79_13 1_555 1_555
C80_13 C79_13 1_555 1_555
C81_13 C80_13 1_555 1_555
H52_13 C81_13 1_555 1_555
C82_13 C80_13 1_555 1_555
N28_13 Co17_33 1_555 1_555
N29_13 Co17_33 1_555 1_555
N30_13 C82_13 1_555 1_555
S4_13 C76_13 1_555 1_555
C83_13 H53_13 1_555 1_555
C84_13 C83_13 1_555 1_555
H54_13 C84_13 1_555 1_555
C85_13 C84_13 1_555 1_555
H55_13 C85_13 1_555 1_555
C86_13 C85_13 1_555 1_555
C87_13 C86_13 1_555 1_555
H56_13 C87_13 1_555 1_555
C88_13 C86_13 1_555 1_555
N31_13 Co17_40 1_555 1_555
N32_13 C82_13 1_555 1_555
C89_13 H57_13 1_555 1_555
C90_13 C89_13 1_555 1_555
H58_13 C90_13 1_555 1_555
C91_13 C90_13 1_555 1_555
H59_13 C91_13 1_555 1_555
C92_13 C91_13 1_555 1_555
C93_13 C92_13 1_555 1_555
H60_13 C93_13 1_555 1_555
C94_13 N30_13 1_555 1_555
N33_13 C89_13 1_555 1_555
N34_13 C88_13 1_555 1_555
C113_25 N41_25 1_555 1_555
N41_25 Co17_40 1_555 1_555
S5_25 C113_25 1_555 1_555
S6_37 C132_37 1_555 1_555
C153_13 N57_13 1_555 1_555
N57_13 Co17_33 1_555 1_555
S9_13 C153_13 1_555 1_555
Co17_14 N33_13 1_555 1_555
Co17_18 N13_25 1_555 1_555
N70_13 Co17_33 1_555 1_555
C21_37 N9_25 1_555 1_555
C25_37 N9_25 1_555 1_555
C31_37 N11_37 1_555 1_555
C32_37 N12_37 1_555 1_555
C36_37 C38_37 1_555 1_555
C37_37 N13_25 1_555 1_555
C38_37 N14_37 1_555 1_555
C77_13 N29_13 1_555 1_555
C81_13 N29_13 1_555 1_555
C83_13 N31_13 1_555 1_555
C87_13 N31_13 1_555 1_555
C88_13 N32_13 1_555 1_555
C92_13 C94_13 1_555 1_555
C93_13 N33_13 1_555 1_555
C94_13 N34_13 1_555 1_555
C20_26 N8_26 1_555 1_555
C21_38 H13_38 1_555 1_555
C22_38 C21_38 1_555 1_555
H14_38 C22_38 1_555 1_555
C23_38 C22_38 1_555 1_555
H15_38 C23_38 1_555 1_555
C24_38 C23_38 1_555 1_555
C25_38 C24_38 1_555 1_555
H16_38 C25_38 1_555 1_555
C26_38 C24_38 1_555 1_555
N8_26 Co17_24 1_555 1_555
N9_26 Co17_24 1_555 1_555
N10_38 C26_38 1_555 1_555
S2_26 C20_26 1_555 1_555
C27_38 H17_38 1_555 1_555
C28_38 C27_38 1_555 1_555
H18_38 C28_38 1_555 1_555
C29_38 C28_38 1_555 1_555
H19_38 C29_38 1_555 1_555
C30_38 C29_38 1_555 1_555
C31_38 C30_38 1_555 1_555
H20_38 C31_38 1_555 1_555
C32_38 C30_38 1_555 1_555
N11_38 C27_38 1_555 1_555
N12_38 C26_38 1_555 1_555
C33_38 H21_38 1_555 1_555
C34_38 C33_38 1_555 1_555
H22_38 C34_38 1_555 1_555
C35_38 C34_38 1_555 1_555
H23_38 C35_38 1_555 1_555
C36_38 C35_38 1_555 1_555
C37_38 C36_38 1_555 1_555
H24_38 C37_38 1_555 1_555
C38_38 N10_38 1_555 1_555
N13_26 C33_38 1_555 1_555
N14_38 C32_38 1_555 1_555
Co17_15 N11_38 1_555 1_555
C57_38 N21_38 1_555 1_555
N21_38 Co17_15 1_555 1_555
S3_38 C57_38 1_555 1_555
C76_14 N28_14 1_555 1_555
C77_14 H49_14 1_555 1_555
C78_14 C77_14 1_555 1_555
H50_14 C78_14 1_555 1_555
C79_14 C78_14 1_555 1_555
H51_14 C79_14 1_555 1_555
C80_14 C79_14 1_555 1_555
C81_14 C80_14 1_555 1_555
H52_14 C81_14 1_555 1_555
C82_14 C80_14 1_555 1_555
N28_14 Co17_34 1_555 1_555
N29_14 Co17_34 1_555 1_555
N30_14 C82_14 1_555 1_555
S4_14 C76_14 1_555 1_555
C83_14 H53_14 1_555 1_555
C84_14 C83_14 1_555 1_555
H54_14 C84_14 1_555 1_555
C85_14 C84_14 1_555 1_555
H55_14 C85_14 1_555 1_555
C86_14 C85_14 1_555 1_555
C87_14 C86_14 1_555 1_555
H56_14 C87_14 1_555 1_555
C88_14 C86_14 1_555 1_555
N31_14 Co17_24 1_555 1_555
N32_14 C82_14 1_555 1_555
C89_14 H57_14 1_555 1_555
C90_14 C89_14 1_555 1_555
H58_14 C90_14 1_555 1_555
C91_14 C90_14 1_555 1_555
H59_14 C91_14 1_555 1_555
C92_14 C91_14 1_555 1_555
C93_14 C92_14 1_555 1_555
H60_14 C93_14 1_555 1_555
C94_14 N30_14 1_555 1_555
N33_14 C89_14 1_555 1_555
N34_14 C88_14 1_555 1_555
C113_26 N41_26 1_555 1_555
N41_26 Co17_24 1_555 1_555
S5_26 C113_26 1_555 1_555
C132_38 N48_38 1_555 1_555
N48_38 Co17_15 1_555 1_555
S6_38 C132_38 1_555 1_555
C153_14 N57_14 1_555 1_555
N57_14 Co17_34 1_555 1_555
S9_14 C153_14 1_555 1_555
Co17_48 N33_14 1_555 1_555
Co17_17 N13_26 1_555 1_555
N70_14 Co17_34 1_555 1_555
N71_14 Co17_15 1_555 1_555
C21_38 N9_26 1_555 1_555
C25_38 N9_26 1_555 1_555
C31_38 N11_38 1_555 1_555
C32_38 N12_38 1_555 1_555
C36_38 C38_38 1_555 1_555
C37_38 N13_26 1_555 1_555
C38_38 N14_38 1_555 1_555
C77_14 N29_14 1_555 1_555
C81_14 N29_14 1_555 1_555
C83_14 N31_14 1_555 1_555
C87_14 N31_14 1_555 1_555
C88_14 N32_14 1_555 1_555
C92_14 C94_14 1_555 1_555
C93_14 N33_14 1_555 1_555
C94_14 N34_14 1_555 1_555
N28_15 Co17_20 1_555 1_555
N57_15 Co17_20 1_555 1_555
N8_27 Co17_23 1_555 1_555
N41_27 Co17_23 1_555 1_555
C21_39 H13_39 1_555 1_555
C22_39 C21_39 1_555 1_555
H14_39 C22_39 1_555 1_555
C23_39 C22_39 1_555 1_555
H15_39 C23_39 1_555 1_555
C24_39 C23_39 1_555 1_555
C25_39 C24_39 1_555 1_555
H16_39 C25_39 1_555 1_555
C26_39 C24_39 1_555 1_555
N10_39 C26_39 1_555 1_555
S2_27 C20_27 1_555 1_555
C27_39 H17_39 1_555 1_555
C28_39 C27_39 1_555 1_555
H18_39 C28_39 1_555 1_555
C29_39 C28_39 1_555 1_555
H19_39 C29_39 1_555 1_555
C30_39 C29_39 1_555 1_555
C31_39 C30_39 1_555 1_555
H20_39 C31_39 1_555 1_555
C32_39 C30_39 1_555 1_555
N11_39 C27_39 1_555 1_555
N12_39 C26_39 1_555 1_555
C33_39 H21_39 1_555 1_555
C34_39 C33_39 1_555 1_555
H22_39 C34_39 1_555 1_555
C35_39 C34_39 1_555 1_555
H23_39 C35_39 1_555 1_555
C36_39 C35_39 1_555 1_555
C37_39 C36_39 1_555 1_555
H24_39 C37_39 1_555 1_555
C38_39 N10_39 1_555 1_555
N13_27 C33_39 1_555 1_555
N14_39 C32_39 1_555 1_555
Co17_46 N11_39 1_555 1_555
C57_39 N21_39 1_555 1_555
N21_39 Co17_46 1_555 1_555
S3_39 C57_39 1_555 1_555
C77_15 H49_15 1_555 1_555
C78_15 C77_15 1_555 1_555
H50_15 C78_15 1_555 1_555
C79_15 C78_15 1_555 1_555
H51_15 C79_15 1_555 1_555
C80_15 C79_15 1_555 1_555
C81_15 C80_15 1_555 1_555
H52_15 C81_15 1_555 1_555
C82_15 C80_15 1_555 1_555
N30_15 C82_15 1_555 1_555
S4_15 C76_15 1_555 1_555
C83_15 H53_15 1_555 1_555
C84_15 C83_15 1_555 1_555
H54_15 C84_15 1_555 1_555
C85_15 C84_15 1_555 1_555
H55_15 C85_15 1_555 1_555
C86_15 C85_15 1_555 1_555
C87_15 C86_15 1_555 1_555
H56_15 C87_15 1_555 1_555
C88_15 C86_15 1_555 1_555
N32_15 C82_15 1_555 1_555
C89_15 H57_15 1_555 1_555
C90_15 C89_15 1_555 1_555
H58_15 C90_15 1_555 1_555
C91_15 C90_15 1_555 1_555
H59_15 C91_15 1_555 1_555
C92_15 C91_15 1_555 1_555
C93_15 C92_15 1_555 1_555
H60_15 C93_15 1_555 1_555
C94_15 N30_15 1_555 1_555
N33_15 C89_15 1_555 1_555
N34_15 C88_15 1_555 1_555
S5_27 C113_27 1_555 1_555
C132_39 N48_39 1_555 1_555
N48_39 Co17_46 1_555 1_555
S6_39 C132_39 1_555 1_555
S9_15 C153_15 1_555 1_555
Co17_35 N13_27 1_555 1_555
N71_15 Co17_46 1_555 1_555
C21_39 N9_27 1_555 1_555
C25_39 N9_27 1_555 1_555
C31_39 N11_39 1_555 1_555
C32_39 N12_39 1_555 1_555
C36_39 C38_39 1_555 1_555
C37_39 N13_27 1_555 1_555
C38_39 N14_39 1_555 1_555
C77_15 N29_15 1_555 1_555
C81_15 N29_15 1_555 1_555
C83_15 N31_15 1_555 1_555
C87_15 N31_15 1_555 1_555
C88_15 N32_15 1_555 1_555
C92_15 C94_15 1_555 1_555
C93_15 N33_15 1_555 1_555
C94_15 N34_15 1_555 1_555
C20_28 N8_28 1_555 1_555
C21_40 H13_40 1_555 1_555
C22_40 C21_40 1_555 1_555
H14_40 C22_40 1_555 1_555
C23_40 C22_40 1_555 1_555
H15_40 C23_40 1_555 1_555
C24_40 C23_40 1_555 1_555
C25_40 C24_40 1_555 1_555
H16_40 C25_40 1_555 1_555
C26_40 C24_40 1_555 1_555
N8_28 Co17_39 1_555 1_555
N9_28 Co17_39 1_555 1_555
N10_40 C26_40 1_555 1_555
S2_28 C20_28 1_555 1_555
C27_40 H17_40 1_555 1_555
C28_40 C27_40 1_555 1_555
H18_40 C28_40 1_555 1_555
C29_40 C28_40 1_555 1_555
H19_40 C29_40 1_555 1_555
C30_40 C29_40 1_555 1_555
C31_40 C30_40 1_555 1_555
H20_40 C31_40 1_555 1_555
C32_40 C30_40 1_555 1_555
N11_40 C27_40 1_555 1_555
N12_40 C26_40 1_555 1_555
C33_40 H21_40 1_555 1_555
C34_40 C33_40 1_555 1_555
H22_40 C34_40 1_555 1_555
C35_40 C34_40 1_555 1_555
H23_40 C35_40 1_555 1_555
C36_40 C35_40 1_555 1_555
C37_40 C36_40 1_555 1_555
H24_40 C37_40 1_555 1_555
C38_40 N10_40 1_555 1_555
N13_28 C33_40 1_555 1_555
N14_40 C32_40 1_555 1_555
Co17_16 N11_40 1_555 1_555
C57_40 N21_40 1_555 1_555
N21_40 Co17_16 1_555 1_555
S3_40 C57_40 1_555 1_555
C76_16 N28_16 1_555 1_555
C77_16 H49_16 1_555 1_555
C78_16 C77_16 1_555 1_555
H50_16 C78_16 1_555 1_555
C79_16 C78_16 1_555 1_555
H51_16 C79_16 1_555 1_555
C80_16 C79_16 1_555 1_555
C81_16 C80_16 1_555 1_555
H52_16 C81_16 1_555 1_555
C82_16 C80_16 1_555 1_555
N28_16 Co17_19 1_555 1_555
N29_16 Co17_19 1_555 1_555
N30_16 C82_16 1_555 1_555
S4_16 C76_16 1_555 1_555
C83_16 H53_16 1_555 1_555
C84_16 C83_16 1_555 1_555
H54_16 C84_16 1_555 1_555
C85_16 C84_16 1_555 1_555
H55_16 C85_16 1_555 1_555
C86_16 C85_16 1_555 1_555
C87_16 C86_16 1_555 1_555
H56_16 C87_16 1_555 1_555
C88_16 C86_16 1_555 1_555
N31_16 Co17_39 1_555 1_555
N32_16 C82_16 1_555 1_555
C89_16 H57_16 1_555 1_555
C90_16 C89_16 1_555 1_555
H58_16 C90_16 1_555 1_555
C91_16 C90_16 1_555 1_555
H59_16 C91_16 1_555 1_555
C92_16 C91_16 1_555 1_555
C93_16 C92_16 1_555 1_555
H60_16 C93_16 1_555 1_555
C94_16 N30_16 1_555 1_555
N33_16 C89_16 1_555 1_555
N34_16 C88_16 1_555 1_555
C113_28 N41_28 1_555 1_555
N41_28 Co17_39 1_555 1_555
S5_28 C113_28 1_555 1_555
C132_40 N48_40 1_555 1_555
N48_40 Co17_16 1_555 1_555
S6_40 C132_40 1_555 1_555
C153_16 N57_16 1_555 1_555
N57_16 Co17_19 1_555 1_555
S9_16 C153_16 1_555 1_555
Co17_47 N33_16 1_555 1_555
N70_16 Co17_19 1_555 1_555
N71_16 Co17_16 1_555 1_555
C21_40 N9_28 1_555 1_555
C25_40 N9_28 1_555 1_555
C31_40 N11_40 1_555 1_555
C32_40 N12_40 1_555 1_555
C36_40 C38_40 1_555 1_555
C37_40 N13_28 1_555 1_555
C38_40 N14_40 1_555 1_555
C77_16 N29_16 1_555 1_555
C81_16 N29_16 1_555 1_555
C83_16 N31_16 1_555 1_555
C87_16 N31_16 1_555 1_555
C88_16 N32_16 1_555 1_555
C92_16 C94_16 1_555 1_555
C93_16 N33_16 1_555 1_555
C94_16 N34_16 1_555 1_555
C20_29 N8_29 1_555 1_555
C21_41 H13_41 1_555 1_555
C22_41 C21_41 1_555 1_555
H14_41 C22_41 1_555 1_555
C23_41 C22_41 1_555 1_555
H15_41 C23_41 1_555 1_555
C24_41 C23_41 1_555 1_555
C25_41 C24_41 1_555 1_555
H16_41 C25_41 1_555 1_555
C26_41 C24_41 1_555 1_555
N8_29 Co17_48 1_555 1_555
N9_29 Co17_48 1_555 1_555
N10_41 C26_41 1_555 1_555
S2_29 C20_29 1_555 1_555
C27_41 H17_41 1_555 1_555
C28_41 C27_41 1_555 1_555
H18_41 C28_41 1_555 1_555
C29_41 C28_41 1_555 1_555
H19_41 C29_41 1_555 1_555
C30_41 C29_41 1_555 1_555
C31_41 C30_41 1_555 1_555
H20_41 C31_41 1_555 1_555
C32_41 C30_41 1_555 1_555
N11_41 C27_41 1_555 1_555
N12_41 C26_41 1_555 1_555
C33_41 H21_41 1_555 1_555
C34_41 C33_41 1_555 1_555
H22_41 C34_41 1_555 1_555
C35_41 C34_41 1_555 1_555
H23_41 C35_41 1_555 1_555
C36_41 C35_41 1_555 1_555
C37_41 C36_41 1_555 1_555
H24_41 C37_41 1_555 1_555
C38_41 N10_41 1_555 1_555
N13_29 C33_41 1_555 1_555
N14_41 C32_41 1_555 1_555
Co17_17 N11_41 1_555 1_555
C57_41 N21_41 1_555 1_555
N21_41 Co17_17 1_555 1_555
S3_41 C57_41 1_555 1_555
C113_29 N41_29 1_555 1_555
N41_29 Co17_48 1_555 1_555
S5_29 C113_29 1_555 1_555
C132_41 N48_41 1_555 1_555
N48_41 Co17_17 1_555 1_555
S6_41 C132_41 1_555 1_555
C21_41 N9_29 1_555 1_555
C25_41 N9_29 1_555 1_555
C31_41 N11_41 1_555 1_555
C32_41 N12_41 1_555 1_555
C36_41 C38_41 1_555 1_555
C37_41 N13_29 1_555 1_555
C38_41 N14_41 1_555 1_555
N8_30 Co17_13 1_555 1_555
N41_30 Co17_13 1_555 1_555
C21_42 H13_42 1_555 1_555
C22_42 C21_42 1_555 1_555
H14_42 C22_42 1_555 1_555
C23_42 C22_42 1_555 1_555
H15_42 C23_42 1_555 1_555
C24_42 C23_42 1_555 1_555
C25_42 C24_42 1_555 1_555
H16_42 C25_42 1_555 1_555
C26_42 C24_42 1_555 1_555
N10_42 C26_42 1_555 1_555
S2_30 C20_30 1_555 1_555
C27_42 H17_42 1_555 1_555
C28_42 C27_42 1_555 1_555
H18_42 C28_42 1_555 1_555
C29_42 C28_42 1_555 1_555
H19_42 C29_42 1_555 1_555
C30_42 C29_42 1_555 1_555
C31_42 C30_42 1_555 1_555
H20_42 C31_42 1_555 1_555
C32_42 C30_42 1_555 1_555
N11_42 C27_42 1_555 1_555
N12_42 C26_42 1_555 1_555
C33_42 H21_42 1_555 1_555
C34_42 C33_42 1_555 1_555
H22_42 C34_42 1_555 1_555
C35_42 C34_42 1_555 1_555
H23_42 C35_42 1_555 1_555
C36_42 C35_42 1_555 1_555
C37_42 C36_42 1_555 1_555
H24_42 C37_42 1_555 1_555
C38_42 N10_42 1_555 1_555
N13_30 C33_42 1_555 1_555
N14_42 C32_42 1_555 1_555
Co17_35 N11_42 1_555 1_555
C57_42 N21_42 1_555 1_555
N21_42 Co17_35 1_555 1_555
S3_42 C57_42 1_555 1_555
S5_30 C113_30 1_555 1_555
C132_42 N48_42 1_555 1_555
N48_42 Co17_35 1_555 1_555
S6_42 C132_42 1_555 1_555
Co17_37 N13_30 1_555 1_555
C21_42 N9_30 1_555 1_555
C25_42 N9_30 1_555 1_555
C31_42 N11_42 1_555 1_555
C32_42 N12_42 1_555 1_555
C36_42 C38_42 1_555 1_555
C37_42 N13_30 1_555 1_555
C38_42 N14_42 1_555 1_555
C20_31 N8_31 1_555 1_555
C21_43 H13_43 1_555 1_555
C22_43 C21_43 1_555 1_555
H14_43 C22_43 1_555 1_555
C23_43 C22_43 1_555 1_555
H15_43 C23_43 1_555 1_555
C24_43 C23_43 1_555 1_555
C25_43 C24_43 1_555 1_555
H16_43 C25_43 1_555 1_555
C26_43 C24_43 1_555 1_555
N8_31 Co17_14 1_555 1_555
N9_31 Co17_14 1_555 1_555
N10_43 C26_43 1_555 1_555
S2_31 C20_31 1_555 1_555
C27_43 H17_43 1_555 1_555
C28_43 C27_43 1_555 1_555
H18_43 C28_43 1_555 1_555
C29_43 C28_43 1_555 1_555
H19_43 C29_43 1_555 1_555
C30_43 C29_43 1_555 1_555
C31_43 C30_43 1_555 1_555
H20_43 C31_43 1_555 1_555
C32_43 C30_43 1_555 1_555
N11_43 C27_43 1_555 1_555
N12_43 C26_43 1_555 1_555
C33_43 H21_43 1_555 1_555
C34_43 C33_43 1_555 1_555
H22_43 C34_43 1_555 1_555
C35_43 C34_43 1_555 1_555
H23_43 C35_43 1_555 1_555
C36_43 C35_43 1_555 1_555
C37_43 C36_43 1_555 1_555
H24_43 C37_43 1_555 1_555
C38_43 N10_43 1_555 1_555
N13_31 C33_43 1_555 1_555
N14_43 C32_43 1_555 1_555
Co17_18 N11_43 1_555 1_555
C57_43 N21_43 1_555 1_555
N21_43 Co17_18 1_555 1_555
S3_43 C57_43 1_555 1_555
C113_31 N41_31 1_555 1_555
N41_31 Co17_14 1_555 1_555
S5_31 C113_31 1_555 1_555
C132_43 N48_43 1_555 1_555
N48_43 Co17_18 1_555 1_555
S6_43 C132_43 1_555 1_555
Co17_22 N13_31 1_555 1_555
C21_43 N9_31 1_555 1_555
C25_43 N9_31 1_555 1_555
C31_43 N11_43 1_555 1_555
C32_43 N12_43 1_555 1_555
C36_43 C38_43 1_555 1_555
C37_43 N13_31 1_555 1_555
C38_43 N14_43 1_555 1_555
N21_44 Co17_36 1_555 1_555
N48_44 Co17_36 1_555 1_555
C20_32 N8_32 1_555 1_555
C21_44 H13_44 1_555 1_555
C22_44 C21_44 1_555 1_555
H14_44 C22_44 1_555 1_555
C23_44 C22_44 1_555 1_555
H15_44 C23_44 1_555 1_555
C24_44 C23_44 1_555 1_555
C25_44 C24_44 1_555 1_555
H16_44 C25_44 1_555 1_555
C26_44 C24_44 1_555 1_555
N8_32 Co17_47 1_555 1_555
N9_32 Co17_47 1_555 1_555
N10_44 C26_44 1_555 1_555
S2_32 C20_32 1_555 1_555
C27_44 H17_44 1_555 1_555
C28_44 C27_44 1_555 1_555
H18_44 C28_44 1_555 1_555
C29_44 C28_44 1_555 1_555
H19_44 C29_44 1_555 1_555
C30_44 C29_44 1_555 1_555
C31_44 C30_44 1_555 1_555
H20_44 C31_44 1_555 1_555
C32_44 C30_44 1_555 1_555
N11_44 C27_44 1_555 1_555
N12_44 C26_44 1_555 1_555
C33_44 H21_44 1_555 1_555
C34_44 C33_44 1_555 1_555
H22_44 C34_44 1_555 1_555
C35_44 C34_44 1_555 1_555
H23_44 C35_44 1_555 1_555
C36_44 C35_44 1_555 1_555
C37_44 C36_44 1_555 1_555
H24_44 C37_44 1_555 1_555
C38_44 N10_44 1_555 1_555
N13_32 C33_44 1_555 1_555
N14_44 C32_44 1_555 1_555
S3_44 C57_44 1_555 1_555
C113_32 N41_32 1_555 1_555
N41_32 Co17_47 1_555 1_555
S5_32 C113_32 1_555 1_555
S6_44 C132_44 1_555 1_555
Co17_21 N13_32 1_555 1_555
C21_44 N9_32 1_555 1_555
C25_44 N9_32 1_555 1_555
C31_44 N11_44 1_555 1_555
C32_44 N12_44 1_555 1_555
C36_44 C38_44 1_555 1_555
C37_44 N13_32 1_555 1_555
C38_44 N14_44 1_555 1_555
C21_45 H13_45 1_555 1_555
C22_45 C21_45 1_555 1_555
H14_45 C22_45 1_555 1_555
C23_45 C22_45 1_555 1_555
H15_45 C23_45 1_555 1_555
C24_45 C23_45 1_555 1_555
C25_45 C24_45 1_555 1_555
H16_45 C25_45 1_555 1_555
C26_45 C24_45 1_555 1_555
N10_45 C26_45 1_555 1_555
C27_45 H17_45 1_555 1_555
C28_45 C27_45 1_555 1_555
H18_45 C28_45 1_555 1_555
C29_45 C28_45 1_555 1_555
H19_45 C29_45 1_555 1_555
C30_45 C29_45 1_555 1_555
C31_45 C30_45 1_555 1_555
H20_45 C31_45 1_555 1_555
C32_45 C30_45 1_555 1_555
N11_45 C27_45 1_555 1_555
N12_45 C26_45 1_555 1_555
C33_45 H21_45 1_555 1_555
C34_45 C33_45 1_555 1_555
H22_45 C34_45 1_555 1_555
C35_45 C34_45 1_555 1_555
H23_45 C35_45 1_555 1_555
C36_45 C35_45 1_555 1_555
C37_45 C36_45 1_555 1_555
H24_45 C37_45 1_555 1_555
C38_45 N10_45 1_555 1_555
N71_15 C33_45 1_555 1_555
N14_45 C32_45 1_555 1_555
Co17_37 N11_45 1_555 1_555
C57_45 N21_45 1_555 1_555
N21_45 Co17_37 1_555 1_555
S3_45 C57_45 1_555 1_555
C132_45 N48_45 1_555 1_555
N48_45 Co17_37 1_555 1_555
S6_45 C132_45 1_555 1_555
C21_45 N70_15 1_555 1_555
C25_45 N70_15 1_555 1_555
C31_45 N11_45 1_555 1_555
C32_45 N12_45 1_555 1_555
C36_45 C38_45 1_555 1_555
C37_45 N71_15 1_555 1_555
C38_45 N14_45 1_555 1_555
C21_46 H13_46 1_555 1_555
C22_46 C21_46 1_555 1_555
H14_46 C22_46 1_555 1_555
C23_46 C22_46 1_555 1_555
H15_46 C23_46 1_555 1_555
C24_46 C23_46 1_555 1_555
C25_46 C24_46 1_555 1_555
H16_46 C25_46 1_555 1_555
C26_46 C24_46 1_555 1_555
N10_46 C26_46 1_555 1_555
C27_46 H17_46 1_555 1_555
C28_46 C27_46 1_555 1_555
H18_46 C28_46 1_555 1_555
C29_46 C28_46 1_555 1_555
H19_46 C29_46 1_555 1_555
C30_46 C29_46 1_555 1_555
C31_46 C30_46 1_555 1_555
H20_46 C31_46 1_555 1_555
C32_46 C30_46 1_555 1_555
N11_46 C27_46 1_555 1_555
N12_46 C26_46 1_555 1_555
C33_46 H21_46 1_555 1_555
C34_46 C33_46 1_555 1_555
H22_46 C34_46 1_555 1_555
C35_46 C34_46 1_555 1_555
H23_46 C35_46 1_555 1_555
C36_46 C35_46 1_555 1_555
C37_46 C36_46 1_555 1_555
H24_46 C37_46 1_555 1_555
C38_46 N10_46 1_555 1_555
N71_13 C33_46 1_555 1_555
N14_46 C32_46 1_555 1_555
Co17_22 N11_46 1_555 1_555
C57_46 N21_46 1_555 1_555
N21_46 Co17_22 1_555 1_555
S3_46 C57_46 1_555 1_555
C132_46 N48_46 1_555 1_555
N48_46 Co17_22 1_555 1_555
S6_46 C132_46 1_555 1_555
C21_46 N70_13 1_555 1_555
C25_46 N70_13 1_555 1_555
C31_46 N11_46 1_555 1_555
C32_46 N12_46 1_555 1_555
C36_46 C38_46 1_555 1_555
C37_46 N71_13 1_555 1_555
C38_46 N14_46 1_555 1_555
N21_47 Co17_38 1_555 1_555
N48_47 Co17_38 1_555 1_555
C21_47 H13_47 1_555 1_555
C22_47 C21_47 1_555 1_555
H14_47 C22_47 1_555 1_555
C23_47 C22_47 1_555 1_555
H15_47 C23_47 1_555 1_555
C24_47 C23_47 1_555 1_555
C25_47 C24_47 1_555 1_555
H16_47 C25_47 1_555 1_555
C26_47 C24_47 1_555 1_555
N10_47 C26_47 1_555 1_555
C27_47 H17_47 1_555 1_555
C28_47 C27_47 1_555 1_555
H18_47 C28_47 1_555 1_555
C29_47 C28_47 1_555 1_555
H19_47 C29_47 1_555 1_555
C30_47 C29_47 1_555 1_555
C31_47 C30_47 1_555 1_555
H20_47 C31_47 1_555 1_555
C32_47 C30_47 1_555 1_555
N11_47 C27_47 1_555 1_555
N12_47 C26_47 1_555 1_555
C33_47 H21_47 1_555 1_555
C34_47 C33_47 1_555 1_555
H22_47 C34_47 1_555 1_555
C35_47 C34_47 1_555 1_555
H23_47 C35_47 1_555 1_555
C36_47 C35_47 1_555 1_555
C37_47 C36_47 1_555 1_555
H24_47 C37_47 1_555 1_555
C38_47 N10_47 1_555 1_555
N71_14 C33_47 1_555 1_555
N14_47 C32_47 1_555 1_555
S3_47 C57_47 1_555 1_555
S6_47 C132_47 1_555 1_555
C21_47 N70_14 1_555 1_555
C25_47 N70_14 1_555 1_555
C31_47 N11_47 1_555 1_555
C32_47 N12_47 1_555 1_555
C36_47 C38_47 1_555 1_555
C37_47 N71_14 1_555 1_555
C38_47 N14_47 1_555 1_555
C21_48 H13_48 1_555 1_555
C22_48 C21_48 1_555 1_555
H14_48 C22_48 1_555 1_555
C23_48 C22_48 1_555 1_555
H15_48 C23_48 1_555 1_555
C24_48 C23_48 1_555 1_555
C25_48 C24_48 1_555 1_555
H16_48 C25_48 1_555 1_555
C26_48 C24_48 1_555 1_555
N10_48 C26_48 1_555 1_555
C27_48 H17_48 1_555 1_555
C28_48 C27_48 1_555 1_555
H18_48 C28_48 1_555 1_555
C29_48 C28_48 1_555 1_555
H19_48 C29_48 1_555 1_555
C30_48 C29_48 1_555 1_555
C31_48 C30_48 1_555 1_555
H20_48 C31_48 1_555 1_555
C32_48 C30_48 1_555 1_555
N11_48 C27_48 1_555 1_555
N12_48 C26_48 1_555 1_555
C33_48 H21_48 1_555 1_555
C34_48 C33_48 1_555 1_555
H22_48 C34_48 1_555 1_555
C35_48 C34_48 1_555 1_555
H23_48 C35_48 1_555 1_555
C36_48 C35_48 1_555 1_555
C37_48 C36_48 1_555 1_555
H24_48 C37_48 1_555 1_555
C38_48 N10_48 1_555 1_555
N71_16 C33_48 1_555 1_555
N14_48 C32_48 1_555 1_555
Co17_21 N11_48 1_555 1_555
C57_48 N21_48 1_555 1_555
N21_48 Co17_21 1_555 1_555
S3_48 C57_48 1_555 1_555
C132_48 N48_48 1_555 1_555
N48_48 Co17_21 1_555 1_555
S6_48 C132_48 1_555 1_555
C21_48 N70_16 1_555 1_555
C25_48 N70_16 1_555 1_555
C31_48 N11_48 1_555 1_555
C32_48 N12_48 1_555 1_555
C36_48 C38_48 1_555 1_555
C37_48 N71_16 1_555 1_555
C38_48 N14_48 1_555 1_555

#END
