
###############################################################################
#
# This file contains modified crystal structure data generated from the
# MOF subset of the Cambridge Structural Database (CSD) v543 
# hosted by the Cambridge Crystallographic Data Centre (CCDC).
#
# This work is licensed under the Creative Commons
# Attribution-NonCommercial-ShareAlike 4.0 International License.
# To view a copy of this license, visit
# http://creativecommons.org/licenses/by-nc-sa/4.0/
# or send a letter to
# Creative Commons, PO Box 1866, Mountain View, CA 94042, USA.
#
# CIF created using the CSD Python API on 29 September 2022
# The structure has been converted into the P1 space group
# The structure has a 3D framework
# The original CSD entry RIFYAI is in the orthorhombic crystal system
# The framework has been calculated to contain at least 10.0% void space
# The void calculation uses a probe of radius 1.32A, grid spacing 0.4
# The framework is charged, counterions have been retained in the structure
# H atom positions have been added when not included in the experimental data
#
###############################################################################

data_RIFYAI
_chemical_formula_moiety         '(C48 H60 N12 O72 P24 Zn24 4+)n'
_symmetry_cell_setting           triclinic
_symmetry_space_group_name_H-M   'P 1'
_symmetry_Int_Tables_number      1
_space_group_name_Hall           'P 1'
loop_
_symmetry_equiv_pos_site_id
_symmetry_equiv_pos_as_xyz
1 x,y,z
_cell_length_a                   8.5337(2)
_cell_length_b                   16.1764(3)
_cell_length_c                   19.9903(5)
_cell_angle_alpha                90
_cell_angle_beta                 90
_cell_angle_gamma                90
_cell_volume                     2759.55
loop_
_atom_site_label
_atom_site_type_symbol
_atom_site_fract_x
_atom_site_fract_y
_atom_site_fract_z
_atom_site_U_iso_or_equiv
_atom_site_thermal_displace_type
Zn7 Zn 0.1102(7) 0.2520(4) 0.117(4) 0.0108 Uiso
Zn11 Zn 0.1027(7) 0.2570(4) 0.292(4) 0.0108 Uiso
Zn1 Zn 0.6102(7) 0.2480(4) 0.117(4) 0.0108 Uiso
Zn2 Zn 0.6027(7) 0.2430(4) 0.292(4) 0.0108 Uiso
Zn3 Zn 0.5000 0.5000 0.453(4) 0.0108 Uiso
P1 P 0.8437(5) 0.3428(3) 0.207(4) 0.0140 Uiso
P2 P 0.624(1) 0.6211(9) 0.068(4) 0.0140 Uiso
P3 P 0.641(1) 0.620(1) 0.344(4) 0.0140 Uiso
O1 O 0.737(2) 0.694(1) 0.063(4) 0.0020 Uiso
O2 O 0.460(2) 0.651(1) 0.077(4) 0.0020 Uiso
O3 O 0.930(3) 0.327(1) 0.141(4) 0.0020 Uiso
O4 O 0.6989(9) 0.2837(5) 0.207(4) 0.0020 Uiso
O5 O 0.941(3) 0.335(1) 0.268(4) 0.0020 Uiso
O6 O 0.472(2) 0.663(1) 0.341(4) 0.0020 Uiso
O7 O 0.763(2) 0.685(1) 0.348(4) 0.0020 Uiso
O8 O 0.647(2) 0.563(1) 0.401(4) 0.0020 Uiso
O9 O 0.633(2) 0.563(1) 0.009(4) 0.0020 Uiso
C1 C 0.772(1) 0.4467(6) 0.206(5) 0.0050 Uiso
C2 C 0.664(2) 0.566(1) 0.145(5) 0.0050 Uiso
C3 C 0.679(2) 0.568(1) 0.265(4) 0.0050 Uiso
C4 C 0.637(1) 0.6049(5) 0.205(5) 0.0050 Uiso
C5 C 0.730(2) 0.487(1) 0.144(4) 0.0050 Uiso
C6 C 0.748(2) 0.488(1) 0.265(5) 0.0050 Uiso
H1 H 0.576(4) 0.651(2) 0.205(5) 0.0050 Uiso
H2 H 0.725(17) 0.457(3) 0.107(5) 0.0050 Uiso
H3 H 0.800(8) 0.471(2) 0.302(5) 0.0050 Uiso
Zn4 Zn 0.3898(7) 0.7520(4) 0.117(4) 0.0108 Uiso
Zn5 Zn 0.3973(7) 0.7570(4) 0.292(4) 0.0108 Uiso
P4 P 0.1563(5) 0.6572(3) 0.207(4) 0.0140 Uiso
P5 P 0.376(1) 0.3789(9) 0.068(4) 0.0140 Uiso
P6 P 0.359(1) 0.380(1) 0.344(4) 0.0140 Uiso
O10 O 0.263(2) 0.306(1) 0.063(4) 0.0020 Uiso
O11 O 0.540(2) 0.349(1) 0.077(4) 0.0020 Uiso
O12 O 0.070(3) 0.673(1) 0.141(4) 0.0020 Uiso
O13 O 0.3011(9) 0.7163(5) 0.207(4) 0.0020 Uiso
O14 O 0.059(3) 0.665(1) 0.268(4) 0.0020 Uiso
O15 O 0.528(2) 0.337(1) 0.341(4) 0.0020 Uiso
O16 O 0.237(2) 0.315(1) 0.348(4) 0.0020 Uiso
O17 O 0.353(2) 0.437(1) 0.401(4) 0.0020 Uiso
O18 O 0.367(2) 0.437(1) 0.009(4) 0.0020 Uiso
C7 C 0.228(1) 0.5533(6) 0.206(5) 0.0050 Uiso
C8 C 0.336(2) 0.434(1) 0.145(5) 0.0050 Uiso
C9 C 0.321(2) 0.432(1) 0.265(4) 0.0050 Uiso
C10 C 0.363(1) 0.3951(5) 0.205(5) 0.0050 Uiso
C11 C 0.270(2) 0.513(1) 0.144(4) 0.0050 Uiso
C12 C 0.252(2) 0.512(1) 0.265(5) 0.0050 Uiso
H4 H 0.424(4) 0.349(2) 0.205(5) 0.0050 Uiso
H5 H 0.275(17) 0.543(3) 0.107(5) 0.0050 Uiso
H6 H 0.200(8) 0.529(2) 0.302(5) 0.0050 Uiso
Zn9 Zn 0.8898(7) 0.7480(4) 0.117(4) 0.0108 Uiso
Zn13 Zn 0.8973(7) 0.7430(4) 0.292(4) 0.0108 Uiso
O19 O 0.237(2) 0.806(1) 0.063(4) 0.0020 Uiso
O20 O 0.763(2) 0.194(1) 0.063(4) 0.0020 Uiso
O21 O 0.430(3) 0.173(1) 0.141(4) 0.0020 Uiso
O22 O 0.570(3) 0.827(1) 0.141(4) 0.0020 Uiso
O23 O 0.441(3) 0.165(1) 0.268(4) 0.0020 Uiso
O24 O 0.559(3) 0.835(1) 0.268(4) 0.0020 Uiso
O25 O 0.263(2) 0.815(1) 0.348(4) 0.0020 Uiso
O26 O 0.737(2) 0.185(1) 0.348(4) 0.0020 Uiso
O27 O 0.633(2) 0.437(1) 0.509(4) 0.0020 Uiso
O28 O 0.367(2) 0.563(1) 0.509(4) 0.0020 Uiso
Zn14 Zn 0.5000 0.5000 0.953(4) 0.0108 Uiso
Zn3_2 Zn 0.0000 0.0000 0.453(4) 0.0108 Uiso
P1_2 P 0.3437(5) 0.1572(3) 0.207(4) 0.0140 Uiso
O4_2 O 0.1989(9) 0.2163(5) 0.207(4) 0.0020 Uiso
C1_2 C 0.272(1) 0.0533(6) 0.206(5) 0.0050 Uiso
C5_2 C 0.230(2) 0.013(1) 0.144(4) 0.0050 Uiso
C6_2 C 0.248(2) 0.012(1) 0.265(5) 0.0050 Uiso
H2_2 H 0.225(17) 0.043(3) 0.107(5) 0.0050 Uiso
H3_2 H 0.300(8) 0.029(2) 0.302(5) 0.0050 Uiso
O11_2 O 0.040(2) 0.151(1) 0.077(4) 0.0020 Uiso
O15_2 O 0.028(2) 0.163(1) 0.341(4) 0.0020 Uiso
O27_2 O 0.133(2) 0.063(1) 0.509(4) 0.0020 Uiso
Zn14_2 Zn 0.0000 0.0000 0.953(4) 0.0108 Uiso
Zn3_3 Zn -0.0000 1.0000 0.453(4) 0.0108 Uiso
P2_2 P 0.124(1) 0.8789(9) 0.068(4) 0.0140 Uiso
P3_2 P 0.141(1) 0.880(1) 0.344(4) 0.0140 Uiso
O8_2 O 0.147(2) 0.937(1) 0.401(4) 0.0020 Uiso
O9_2 O 0.133(2) 0.937(1) 0.009(4) 0.0020 Uiso
C2_2 C 0.164(2) 0.934(1) 0.145(5) 0.0050 Uiso
C3_2 C 0.179(2) 0.932(1) 0.265(4) 0.0050 Uiso
C4_2 C 0.137(1) 0.8951(5) 0.205(5) 0.0050 Uiso
H1_2 H 0.076(4) 0.849(2) 0.205(5) 0.0050 Uiso
Zn14_3 Zn -0.0000 1.0000 0.953(4) 0.0108 Uiso
Zn3_4 Zn 1.0000 0.0000 0.453(4) 0.0108 Uiso
P5_2 P 0.876(1) 0.1211(9) 0.068(4) 0.0140 Uiso
P6_2 P 0.859(1) 0.120(1) 0.344(4) 0.0140 Uiso
O17_2 O 0.853(2) 0.063(1) 0.401(4) 0.0020 Uiso
O18_2 O 0.867(2) 0.063(1) 0.009(4) 0.0020 Uiso
C8_2 C 0.836(2) 0.066(1) 0.145(5) 0.0050 Uiso
C9_2 C 0.821(2) 0.068(1) 0.265(4) 0.0050 Uiso
C10_2 C 0.863(1) 0.1049(5) 0.205(5) 0.0050 Uiso
H4_2 H 0.924(4) 0.151(2) 0.205(5) 0.0050 Uiso
Zn14_4 Zn 1.0000 0.0000 0.953(4) 0.0108 Uiso
Zn3_5 Zn 1.0000 1.0000 0.453(4) 0.0108 Uiso
O2_2 O 0.960(2) 0.849(1) 0.077(4) 0.0020 Uiso
O6_2 O 0.972(2) 0.837(1) 0.341(4) 0.0020 Uiso
P4_2 P 0.6563(5) 0.8428(3) 0.207(4) 0.0140 Uiso
O13_2 O 0.8011(9) 0.7837(5) 0.207(4) 0.0020 Uiso
C7_2 C 0.728(1) 0.9467(6) 0.206(5) 0.0050 Uiso
C11_2 C 0.770(2) 0.987(1) 0.144(4) 0.0050 Uiso
C12_2 C 0.752(2) 0.988(1) 0.265(5) 0.0050 Uiso
H5_2 H 0.775(17) 0.957(3) 0.107(5) 0.0050 Uiso
H6_2 H 0.700(8) 0.971(2) 0.302(5) 0.0050 Uiso
O28_2 O 0.867(2) 0.937(1) 0.509(4) 0.0020 Uiso
Zn14_5 Zn 1.0000 1.0000 0.953(4) 0.0108 Uiso
P2_3 P 0.124(1) 0.1211(9) 0.568(4) 0.0140 Uiso
P3_3 P 0.141(1) 0.120(1) 0.844(4) 0.0140 Uiso
O1_2 O 0.237(2) 0.194(1) 0.563(4) 0.0020 Uiso
O7_2 O 0.263(2) 0.185(1) 0.848(4) 0.0020 Uiso
O8_3 O 0.147(2) 0.063(1) 0.901(4) 0.0020 Uiso
C2_3 C 0.164(2) 0.066(1) 0.645(5) 0.0050 Uiso
C3_3 C 0.179(2) 0.068(1) 0.765(4) 0.0050 Uiso
C4_3 C 0.137(1) 0.1049(5) 0.705(5) 0.0050 Uiso
H1_3 H 0.076(4) 0.151(2) 0.705(5) 0.0050 Uiso
Zn9_2 Zn 0.3898(7) 0.2480(4) 0.617(4) 0.0108 Uiso
Zn13_2 Zn 0.3973(7) 0.2430(4) 0.792(4) 0.0108 Uiso
O22_2 O 0.070(3) 0.327(1) 0.641(4) 0.0020 Uiso
O24_2 O 0.059(3) 0.335(1) 0.768(4) 0.0020 Uiso
Zn1_2 Zn 0.1102(7) 0.7480(4) 0.617(4) 0.0108 Uiso
Zn2_2 Zn 0.1027(7) 0.7430(4) 0.792(4) 0.0108 Uiso
P1_3 P 0.3437(5) 0.8428(3) 0.707(4) 0.0140 Uiso
O3_2 O 0.430(3) 0.827(1) 0.641(4) 0.0020 Uiso
O4_3 O 0.1989(9) 0.7837(5) 0.707(4) 0.0020 Uiso
O5_2 O 0.441(3) 0.835(1) 0.768(4) 0.0020 Uiso
C1_3 C 0.272(1) 0.9467(6) 0.706(5) 0.0050 Uiso
C5_3 C 0.230(2) 0.987(1) 0.644(4) 0.0050 Uiso
C6_3 C 0.248(2) 0.988(1) 0.765(5) 0.0050 Uiso
H2_3 H 0.225(17) 0.957(3) 0.607(5) 0.0050 Uiso
H3_3 H 0.300(8) 0.971(2) 0.802(5) 0.0050 Uiso
O11_3 O 0.040(2) 0.849(1) 0.577(4) 0.0020 Uiso
O15_3 O 0.028(2) 0.837(1) 0.841(4) 0.0020 Uiso
Zn7_2 Zn 0.6102(7) 0.7520(4) 0.617(4) 0.0108 Uiso
Zn11_2 Zn 0.6027(7) 0.7570(4) 0.792(4) 0.0108 Uiso
O20_2 O 0.263(2) 0.694(1) 0.563(4) 0.0020 Uiso
O26_2 O 0.237(2) 0.685(1) 0.848(4) 0.0020 Uiso
O2_3 O 0.960(2) 0.151(1) 0.577(4) 0.0020 Uiso
O6_3 O 0.972(2) 0.163(1) 0.841(4) 0.0020 Uiso
Zn4_2 Zn 0.8898(7) 0.2520(4) 0.617(4) 0.0108 Uiso
Zn5_2 Zn 0.8973(7) 0.2570(4) 0.792(4) 0.0108 Uiso
P4_3 P 0.6563(5) 0.1572(3) 0.707(4) 0.0140 Uiso
O12_2 O 0.570(3) 0.173(1) 0.641(4) 0.0020 Uiso
O13_3 O 0.8011(9) 0.2163(5) 0.707(4) 0.0020 Uiso
O14_2 O 0.559(3) 0.165(1) 0.768(4) 0.0020 Uiso
C7_3 C 0.728(1) 0.0533(6) 0.706(5) 0.0050 Uiso
C11_3 C 0.770(2) 0.013(1) 0.644(4) 0.0050 Uiso
C12_3 C 0.752(2) 0.012(1) 0.765(5) 0.0050 Uiso
H5_3 H 0.775(17) 0.043(3) 0.607(5) 0.0050 Uiso
H6_3 H 0.700(8) 0.029(2) 0.802(5) 0.0050 Uiso
O19_2 O 0.737(2) 0.306(1) 0.563(4) 0.0020 Uiso
O25_2 O 0.763(2) 0.315(1) 0.848(4) 0.0020 Uiso
P5_3 P 0.876(1) 0.8789(9) 0.568(4) 0.0140 Uiso
P6_3 P 0.859(1) 0.880(1) 0.844(4) 0.0140 Uiso
O10_2 O 0.763(2) 0.806(1) 0.563(4) 0.0020 Uiso
O16_2 O 0.737(2) 0.815(1) 0.848(4) 0.0020 Uiso
O17_3 O 0.853(2) 0.937(1) 0.901(4) 0.0020 Uiso
C8_3 C 0.836(2) 0.934(1) 0.645(5) 0.0050 Uiso
C9_3 C 0.821(2) 0.932(1) 0.765(4) 0.0050 Uiso
C10_3 C 0.863(1) 0.8951(5) 0.705(5) 0.0050 Uiso
H4_3 H 0.924(4) 0.849(2) 0.705(5) 0.0050 Uiso
O21_2 O 0.930(3) 0.673(1) 0.641(4) 0.0020 Uiso
O23_2 O 0.941(3) 0.665(1) 0.768(4) 0.0020 Uiso
P1_4 P 0.8437(5) 0.6572(3) 0.707(4) 0.0140 Uiso
P2_4 P 0.624(1) 0.3789(9) 0.568(4) 0.0140 Uiso
P3_4 P 0.641(1) 0.380(1) 0.844(4) 0.0140 Uiso
O2_4 O 0.460(2) 0.349(1) 0.577(4) 0.0020 Uiso
O4_4 O 0.6989(9) 0.7163(5) 0.707(4) 0.0020 Uiso
O6_4 O 0.472(2) 0.337(1) 0.841(4) 0.0020 Uiso
O8_4 O 0.647(2) 0.437(1) 0.901(4) 0.0020 Uiso
C1_4 C 0.772(1) 0.5533(6) 0.706(5) 0.0050 Uiso
C2_4 C 0.664(2) 0.434(1) 0.645(5) 0.0050 Uiso
C3_4 C 0.679(2) 0.432(1) 0.765(4) 0.0050 Uiso
C4_4 C 0.637(1) 0.3951(5) 0.705(5) 0.0050 Uiso
C5_4 C 0.730(2) 0.513(1) 0.644(4) 0.0050 Uiso
C6_4 C 0.748(2) 0.512(1) 0.765(5) 0.0050 Uiso
H1_4 H 0.576(4) 0.349(2) 0.705(5) 0.0050 Uiso
H2_4 H 0.725(17) 0.543(3) 0.607(5) 0.0050 Uiso
H3_4 H 0.800(8) 0.529(2) 0.802(5) 0.0050 Uiso
P4_4 P 0.1563(5) 0.3428(3) 0.707(4) 0.0140 Uiso
P5_4 P 0.376(1) 0.6211(9) 0.568(4) 0.0140 Uiso
P6_4 P 0.359(1) 0.620(1) 0.844(4) 0.0140 Uiso
O11_4 O 0.540(2) 0.651(1) 0.577(4) 0.0020 Uiso
O13_4 O 0.3011(9) 0.2837(5) 0.707(4) 0.0020 Uiso
O15_4 O 0.528(2) 0.663(1) 0.841(4) 0.0020 Uiso
O17_4 O 0.353(2) 0.563(1) 0.901(4) 0.0020 Uiso
C7_4 C 0.228(1) 0.4467(6) 0.706(5) 0.0050 Uiso
C8_4 C 0.336(2) 0.566(1) 0.645(5) 0.0050 Uiso
C9_4 C 0.321(2) 0.568(1) 0.765(4) 0.0050 Uiso
C10_4 C 0.363(1) 0.6049(5) 0.705(5) 0.0050 Uiso
C11_4 C 0.270(2) 0.487(1) 0.644(4) 0.0050 Uiso
C12_4 C 0.252(2) 0.488(1) 0.765(5) 0.0050 Uiso
H4_4 H 0.424(4) 0.651(2) 0.705(5) 0.0050 Uiso
H5_4 H 0.275(17) 0.457(3) 0.607(5) 0.0050 Uiso
H6_4 H 0.200(8) 0.471(2) 0.802(5) 0.0050 Uiso
N1 N 0.655(3) 0.166(2) 0.500(4) 0.1270 Uiso
H7 H 0.77394 0.166 0.5 . .
H8 H 0.615353 0.217232 0.476065 . .
H9 H 0.615353 0.114768 0.476065 . .
H10 H 0.615353 0.166 0.547871 . .
N1_2 N 0.345(3) 0.834(2) 0.500(4) 0.1270 Uiso
H7_2 H 0.22606 0.834 0.5 . .
H8_2 H 0.384647 0.782768 0.476065 . .
H9_2 H 0.384647 0.885232 0.476065 . .
H10_2 H 0.384647 0.834 0.547871 . .
N1_3 N 0.155(3) 0.334(2) 0.500(4) 0.1270 Uiso
H7_3 H 0.27394 0.334 0.5 . .
H8_3 H 0.115353 0.282768 0.476065 . .
H9_3 H 0.115353 0.385232 0.476065 . .
H10_3 H 0.115353 0.334 0.547871 . .
N1_4 N 0.845(3) 0.666(2) 0.500(4) 0.1270 Uiso
H7_4 H 0.72606 0.666 0.5 . .
H8_4 H 0.884647 0.717232 0.476065 . .
H9_4 H 0.884647 0.614768 0.476065 . .
H10_4 H 0.884647 0.666 0.547871 . .
N1_5 N 0.155(3) 0.666(2) 0.000(4) 0.1270 Uiso
H7_5 H 0.27394 0.666 0 . .
H10_5 H 0.115353 0.666 0.0478708 . .
N1_6 N 0.155(3) 0.666(2) 1.000(4) 0.1270 Uiso
H7_6 H 0.27394 0.666 1 . .
H8_5 H 0.115353 0.717232 0.976065 . .
H9_5 H 0.115353 0.614768 0.976065 . .
N1_7 N 0.845(3) 0.334(2) 0.000(4) 0.1270 Uiso
H7_7 H 0.72606 0.334 0 . .
H10_6 H 0.884647 0.334 0.0478708 . .
N1_8 N 0.845(3) 0.334(2) 1.000(4) 0.1270 Uiso
H7_8 H 0.72606 0.334 1 . .
H8_6 H 0.884647 0.282768 0.976065 . .
H9_6 H 0.884647 0.385232 0.976065 . .
N1_9 N 0.655(3) 0.834(2) 0.000(4) 0.1270 Uiso
H7_9 H 0.77394 0.834 0 . .
H10_7 H 0.615353 0.834 0.0478708 . .
N1_10 N 0.655(3) 0.834(2) 1.000(4) 0.1270 Uiso
H7_10 H 0.77394 0.834 1 . .
H8_7 H 0.615353 0.782768 0.976065 . .
H9_7 H 0.615353 0.885232 0.976065 . .
N1_11 N 0.345(3) 0.166(2) 0.000(4) 0.1270 Uiso
H7_11 H 0.22606 0.166 0 . .
H10_8 H 0.384647 0.166 0.0478708 . .
N1_12 N 0.345(3) 0.166(2) 1.000(4) 0.1270 Uiso
H7_12 H 0.22606 0.166 1 . .
H8_8 H 0.384647 0.217232 0.976065 . .
H9_8 H 0.384647 0.114768 0.976065 . .
loop_
_geom_bond_atom_site_label_1
_geom_bond_atom_site_label_2
_geom_bond_site_symmetry_1
_geom_bond_site_symmetry_2
Zn1 O4 1_555 1_555
Zn2 O4 1_555 1_555
Zn3 O8 1_555 1_555
P1 O3 1_555 1_555
P2 O1 1_555 1_555
P3 O6 1_555 1_555
O1 Zn9 1_555 1_555
O2 P2 1_555 1_555
O4 P1 1_555 1_555
O5 P1 1_555 1_555
O6 Zn5 1_555 1_555
O7 P3 1_555 1_555
O8 P3 1_555 1_555
O9 P2 1_555 1_555
C1 P1 1_555 1_555
C2 P2 1_555 1_555
C3 P3 1_555 1_555
C4 C2 1_555 1_555
C5 C1 1_555 1_555
C6 C1 1_555 1_555
H1 C4 1_555 1_555
H2 C5 1_555 1_555
H3 C6 1_555 1_555
Zn4 O2 1_555 1_555
Zn5 O13 1_555 1_555
P4 O12 1_555 1_555
P5 O10 1_555 1_555
P6 O15 1_555 1_555
O10 Zn7 1_555 1_555
O11 Zn1 1_555 1_555
O13 Zn4 1_555 1_555
O14 P4 1_555 1_555
O15 Zn2 1_555 1_555
O16 P6 1_555 1_555
O17 Zn3 1_555 1_555
O18 P5 1_555 1_555
C7 P4 1_555 1_555
C8 P5 1_555 1_555
C9 P6 1_555 1_555
C10 C8 1_555 1_555
C11 C7 1_555 1_555
C12 C7 1_555 1_555
H4 C10 1_555 1_555
H5 C11 1_555 1_555
H6 C12 1_555 1_555
Zn11 O16 1_555 1_555
Zn13 O7 1_555 1_555
O19 Zn4 1_555 1_555
O20 Zn1 1_555 1_555
O21 Zn1 1_555 1_555
O22 Zn4 1_555 1_555
O23 Zn2 1_555 1_555
O24 Zn5 1_555 1_555
O25 Zn5 1_555 1_555
O26 Zn2 1_555 1_555
O27 Zn3 1_555 1_555
O28 Zn3 1_555 1_555
C2 C5 1_555 1_555
C3 C4 1_555 1_555
C3 C6 1_555 1_555
P4 O13 1_555 1_555
P5 O11 1_555 1_555
P6 O17 1_555 1_555
C8 C11 1_555 1_555
C9 C10 1_555 1_555
C9 C12 1_555 1_555
Zn7 O4_2 1_555 1_555
Zn11 O4_2 1_555 1_555
P1_2 O21 1_555 1_555
O4_2 P1_2 1_555 1_555
O23 P1_2 1_555 1_555
C1_2 P1_2 1_555 1_555
C5_2 C1_2 1_555 1_555
C6_2 C1_2 1_555 1_555
H2_2 C5_2 1_555 1_555
H3_2 C6_2 1_555 1_555
O11_2 Zn7 1_555 1_555
O15_2 Zn11 1_555 1_555
O27_2 Zn3_2 1_555 1_555
Zn3_3 O8_2 1_555 1_555
P2_2 O19 1_555 1_555
O25 P3_2 1_555 1_555
O8_2 P3_2 1_555 1_555
O9_2 P2_2 1_555 1_555
C2_2 P2_2 1_555 1_555
C3_2 P3_2 1_555 1_555
C4_2 C2_2 1_555 1_555
H1_2 C4_2 1_555 1_555
C3_2 C4_2 1_555 1_555
P5_2 O20 1_555 1_555
O26 P6_2 1_555 1_555
O17_2 Zn3_4 1_555 1_555
O18_2 P5_2 1_555 1_555
C8_2 P5_2 1_555 1_555
C9_2 P6_2 1_555 1_555
C10_2 C8_2 1_555 1_555
H4_2 C10_2 1_555 1_555
P6_2 O17_2 1_555 1_555
C9_2 C10_2 1_555 1_555
O6_2 Zn13 1_555 1_555
Zn9 O2_2 1_555 1_555
Zn13 O13_2 1_555 1_555
P4_2 O22 1_555 1_555
O13_2 Zn9 1_555 1_555
O24 P4_2 1_555 1_555
C7_2 P4_2 1_555 1_555
C11_2 C7_2 1_555 1_555
C12_2 C7_2 1_555 1_555
H5_2 C11_2 1_555 1_555
H6_2 C12_2 1_555 1_555
O28_2 Zn3_5 1_555 1_555
P4_2 O13_2 1_555 1_555
Zn14_2 O8_3 1_555 1_555
P2_3 O1_2 1_555 1_555
O1_2 Zn9_2 1_555 1_555
O7_2 P3_3 1_555 1_555
O8_3 P3_3 1_555 1_555
O27_2 P2_3 1_555 1_555
C2_3 P2_3 1_555 1_555
C3_3 P3_3 1_555 1_555
C4_3 C2_3 1_555 1_555
H1_3 C4_3 1_555 1_555
Zn13_2 O7_2 1_555 1_555
C3_3 C4_3 1_555 1_555
Zn1_2 O4_3 1_555 1_555
Zn2_2 O4_3 1_555 1_555
P1_3 O3_2 1_555 1_555
O3_2 Zn7_2 1_555 1_555
O4_3 P1_3 1_555 1_555
O5_2 P1_3 1_555 1_555
C1_3 P1_3 1_555 1_555
C5_3 C1_3 1_555 1_555
C6_3 C1_3 1_555 1_555
H2_3 C5_3 1_555 1_555
H3_3 C6_3 1_555 1_555
O11_3 Zn1_2 1_555 1_555
O15_3 Zn2_2 1_555 1_555
Zn11_2 O5_2 1_555 1_555
O20_2 Zn1_2 1_555 1_555
O26_2 Zn2_2 1_555 1_555
O6_3 Zn5_2 1_555 1_555
Zn4_2 O2_3 1_555 1_555
Zn5_2 O13_3 1_555 1_555
P4_3 O12_2 1_555 1_555
O12_2 Zn9_2 1_555 1_555
O13_3 Zn4_2 1_555 1_555
O14_2 P4_3 1_555 1_555
C7_3 P4_3 1_555 1_555
C11_3 C7_3 1_555 1_555
C12_3 C7_3 1_555 1_555
H5_3 C11_3 1_555 1_555
H6_3 C12_3 1_555 1_555
Zn13_2 O14_2 1_555 1_555
O19_2 Zn4_2 1_555 1_555
O25_2 Zn5_2 1_555 1_555
P4_3 O13_3 1_555 1_555
P5_3 O10_2 1_555 1_555
O10_2 Zn7_2 1_555 1_555
O16_2 P6_3 1_555 1_555
O17_3 Zn14_5 1_555 1_555
O28_2 P5_3 1_555 1_555
C8_3 P5_3 1_555 1_555
C9_3 P6_3 1_555 1_555
C10_3 C8_3 1_555 1_555
H4_3 C10_3 1_555 1_555
Zn11_2 O16_2 1_555 1_555
P6_3 O17_3 1_555 1_555
C9_3 C10_3 1_555 1_555
Zn7_2 O4_4 1_555 1_555
Zn11_2 O4_4 1_555 1_555
Zn14 O8_4 1_555 1_555
P1_4 O21_2 1_555 1_555
P2_4 O19_2 1_555 1_555
P3_4 O6_4 1_555 1_555
O2_4 P2_4 1_555 1_555
O4_4 P1_4 1_555 1_555
O23_2 P1_4 1_555 1_555
O6_4 Zn13_2 1_555 1_555
O25_2 P3_4 1_555 1_555
O8_4 P3_4 1_555 1_555
O27 P2_4 1_555 1_555
C1_4 P1_4 1_555 1_555
C2_4 P2_4 1_555 1_555
C3_4 P3_4 1_555 1_555
C4_4 C2_4 1_555 1_555
C5_4 C1_4 1_555 1_555
C6_4 C1_4 1_555 1_555
H1_4 C4_4 1_555 1_555
H2_4 C5_4 1_555 1_555
H3_4 C6_4 1_555 1_555
Zn9_2 O2_4 1_555 1_555
Zn13_2 O13_4 1_555 1_555
P4_4 O22_2 1_555 1_555
P5_4 O20_2 1_555 1_555
P6_4 O15_4 1_555 1_555
O11_4 Zn7_2 1_555 1_555
O13_4 Zn9_2 1_555 1_555
O24_2 P4_4 1_555 1_555
O15_4 Zn11_2 1_555 1_555
O26_2 P6_4 1_555 1_555
O17_4 Zn14 1_555 1_555
O28 P5_4 1_555 1_555
C7_4 P4_4 1_555 1_555
C8_4 P5_4 1_555 1_555
C9_4 P6_4 1_555 1_555
C10_4 C8_4 1_555 1_555
C11_4 C7_4 1_555 1_555
C12_4 C7_4 1_555 1_555
H4_4 C10_4 1_555 1_555
H5_4 C11_4 1_555 1_555
H6_4 C12_4 1_555 1_555
C2_4 C5_4 1_555 1_555
C3_4 C4_4 1_555 1_555
C3_4 C6_4 1_555 1_555
P4_4 O13_4 1_555 1_555
P5_4 O11_4 1_555 1_555
P6_4 O17_4 1_555 1_555
C8_4 C11_4 1_555 1_555
C9_4 C10_4 1_555 1_555
C9_4 C12_4 1_555 1_555
N1 H7 1_555 1_555
N1 H8 1_555 1_555
N1 H9 1_555 1_555
N1 H10 1_555 1_555
N1_2 H7_2 1_555 1_555
N1_2 H8_2 1_555 1_555
N1_2 H9_2 1_555 1_555
N1_2 H10_2 1_555 1_555
N1_3 H7_3 1_555 1_555
N1_3 H8_3 1_555 1_555
N1_3 H9_3 1_555 1_555
N1_3 H10_3 1_555 1_555
N1_4 H7_4 1_555 1_555
N1_4 H8_4 1_555 1_555
N1_4 H9_4 1_555 1_555
N1_4 H10_4 1_555 1_555
N1_5 H7_5 1_555 1_555
N1_5 H10_5 1_555 1_555
N1_6 H7_6 1_555 1_555
N1_6 H8_5 1_555 1_555
N1_6 H9_5 1_555 1_555
N1_7 H7_7 1_555 1_555
N1_7 H10_6 1_555 1_555
N1_8 H7_8 1_555 1_555
N1_8 H8_6 1_555 1_555
N1_8 H9_6 1_555 1_555
N1_9 H7_9 1_555 1_555
N1_9 H10_7 1_555 1_555
N1_10 H7_10 1_555 1_555
N1_10 H8_7 1_555 1_555
N1_10 H9_7 1_555 1_555
N1_11 H7_11 1_555 1_555
N1_11 H10_8 1_555 1_555
N1_12 H7_12 1_555 1_555
N1_12 H8_8 1_555 1_555
N1_12 H9_8 1_555 1_555

#END
