
###############################################################################
#
# This file contains modified crystal structure data generated from the
# MOF subset of the Cambridge Structural Database (CSD) v543 
# hosted by the Cambridge Crystallographic Data Centre (CCDC).
#
# This work is licensed under the Creative Commons
# Attribution-NonCommercial-ShareAlike 4.0 International License.
# To view a copy of this license, visit
# http://creativecommons.org/licenses/by-nc-sa/4.0/
# or send a letter to
# Creative Commons, PO Box 1866, Mountain View, CA 94042, USA.
#
# CIF created using the CSD Python API on 29 September 2022
# The structure has been converted into the P1 space group
# The structure has a 3D framework
# The original CSD entry RIFZEO is in the orthorhombic crystal system
# The framework has been calculated to contain at least 10.0% void space
# The void calculation uses a probe of radius 1.32A, grid spacing 0.4
# The framework is charged, counterions have been retained in the structure
# H atom positions have been added when not included in the experimental data
#
###############################################################################

data_RIFZEO
_chemical_formula_moiety         '(C328 H256 Li16 N16 O208 Zn24)n'
_symmetry_cell_setting           triclinic
_symmetry_space_group_name_H-M   'P 1'
_symmetry_Int_Tables_number      1
_space_group_name_Hall           'P 1'
loop_
_symmetry_equiv_pos_site_id
_symmetry_equiv_pos_as_xyz
1 x,y,z
_cell_length_a                   15.8408(4)
_cell_length_b                   25.2295(6)
_cell_length_c                   47.9827(12)
_cell_angle_alpha                90
_cell_angle_beta                 90
_cell_angle_gamma                90
_cell_volume                     19176.5
loop_
_atom_site_label
_atom_site_type_symbol
_atom_site_fract_x
_atom_site_fract_y
_atom_site_fract_z
N1 N 0.1019(4) 0.4938(3) 0.35941(14)
H1 H 0.1451 0.4701 0.3585
H2 H 0.0964 0.5036 0.3776
C1 C 0.1260(5) 0.5413(3) 0.34308(17)
H3 H 0.1786 0.5560 0.3505
H4 H 0.1343 0.5313 0.3235
H5 H 0.0811 0.5679 0.3444
C2 C 0.0283(6) 0.4682(3) 0.3514(2)
H6 H 0.0185 0.4376 0.3635
H8 H 0.0337 0.4562 0.3320
H7 H 0.9805 0.4928 0.3529
N1_2 N 0.3981(4) 0.5062(3) 0.85941(14)
H1_2 H 0.3549 0.5299 0.8585
H2_2 H 0.4036 0.4964 0.8776
C1_2 C 0.3740(5) 0.4587(3) 0.84308(17)
H3_2 H 0.3214 0.4440 0.8505
H4_2 H 0.3657 0.4687 0.8235
H5_2 H 0.4189 0.4321 0.8444
C2_2 C 0.4717(6) 0.5318(3) 0.8514(2)
H6_2 H 0.4815 0.5624 0.8635
H7_2 H 0.5195 0.5072 0.8529
H8_2 H 0.4663 0.5438 0.8320
H7_3 H 0.0195 0.9928 0.1471
H2_3 H 0.9036 0.0036 0.1224
C1_3 C 0.8740(5) 0.0413(3) 0.15692(17)
H3_3 H 0.8214 0.0560 0.1495
H4_3 H 0.8657 0.0313 0.1765
H5_3 H 0.9189 0.0679 0.1556
N1_3 N 0.8981(4) 0.9938(3) 0.14059(14)
H1_3 H 0.8549 0.9701 0.1415
C2_3 C 0.9717(6) 0.9682(3) 0.1486(2)
H6_3 H 0.9815 0.9376 0.1365
H8_3 H 0.9663 0.9562 0.1680
N1_4 N 0.6019(4) 0.0062(3) 0.64059(14)
H1_4 H 0.6451 0.0299 0.6415
C2_4 C 0.5283(6) 0.0318(3) 0.6486(2)
H6_4 H 0.5185 0.0624 0.6365
H7_4 H 0.4805 0.0072 0.6471
H8_4 H 0.5337 0.0438 0.6680
H2_4 H 0.5964 0.9964 0.6224
C1_4 C 0.6260(5) 0.9587(3) 0.65692(17)
H3_4 H 0.6786 0.9440 0.6495
H4_4 H 0.6343 0.9687 0.6765
H5_4 H 0.5811 0.9321 0.6556
H7_5 H 0.0195 0.5072 0.6471
N1_5 N 0.8981(4) 0.5062(3) 0.64059(14)
H1_5 H 0.8549 0.5299 0.6415
H2_5 H 0.9036 0.4964 0.6224
C1_5 C 0.8740(5) 0.4587(3) 0.65692(17)
H3_5 H 0.8214 0.4440 0.6495
H4_5 H 0.8657 0.4687 0.6765
H5_5 H 0.9189 0.4321 0.6556
C2_5 C 0.9717(6) 0.5318(3) 0.6486(2)
H6_5 H 0.9815 0.5624 0.6365
H8_5 H 0.9663 0.5438 0.6680
N1_6 N 0.6019(4) 0.4938(3) 0.14059(14)
H1_6 H 0.6451 0.4701 0.1415
H2_6 H 0.5964 0.5036 0.1224
C1_6 C 0.6260(5) 0.5413(3) 0.15692(17)
H3_6 H 0.6786 0.5560 0.1495
H4_6 H 0.6343 0.5313 0.1765
H5_6 H 0.5811 0.5679 0.1556
C2_6 C 0.5283(6) 0.4682(3) 0.1486(2)
H6_6 H 0.5185 0.4376 0.1365
H7_6 H 0.4805 0.4928 0.1471
H8_6 H 0.5337 0.4562 0.1680
N1_7 N 0.1019(4) 0.0062(3) 0.85941(14)
H1_7 H 0.1451 0.0299 0.8585
C2_7 C 0.0283(6) 0.0318(3) 0.8514(2)
H6_7 H 0.0185 0.0624 0.8635
H8_7 H 0.0337 0.0438 0.8320
H2_7 H 0.0964 0.9964 0.8776
C1_7 C 0.1260(5) 0.9587(3) 0.84308(17)
H3_7 H 0.1786 0.9440 0.8505
H4_7 H 0.1343 0.9687 0.8235
H5_7 H 0.0811 0.9321 0.8444
H7_7 H 0.9805 0.0072 0.8529
H2_8 H 0.4036 0.0036 0.3776
C1_8 C 0.3740(5) 0.0413(3) 0.34308(17)
H3_8 H 0.3214 0.0560 0.3505
H4_8 H 0.3657 0.0313 0.3235
H5_8 H 0.4189 0.0679 0.3444
N1_8 N 0.3981(4) 0.9938(3) 0.35941(14)
H1_8 H 0.3549 0.9701 0.3585
C2_8 C 0.4717(6) 0.9682(3) 0.3514(2)
H6_8 H 0.4815 0.9376 0.3635
H7_8 H 0.5195 0.9928 0.3529
H8_8 H 0.4663 0.9562 0.3320
O11 O 0.0391(2) 0.50761(15) 0.44726(9)
O12 O 0.0448(3) 0.54639(16) 0.40556(11)
C14 C 0.0227(4) 0.5448(2) 0.43020(16)
Zn7 Zn 0.09733(4) 0.44150(2) 0.43886(2)
Li1 Li 0.5473(6) 0.5923(4) 0.3260(2)
Li2 Li 0.7929(5) 0.6704(3) 0.5588(2)
Zn1 Zn 0.37225(3) 0.64194(2) 0.31922(2)
Zn2 Zn 0.90267(4) 0.55850(2) 0.56114(2)
Zn3 Zn 0.91142(3) 0.78163(2) 0.36820(2)
O1 O 0.4766(2) 0.65775(16) 0.61932(9)
O2 O 0.4366(3) 0.6094(2) 0.65607(10)
H9 H 0.4404 0.6355 0.6669
O3 O 0.5764(3) 0.42885(16) 0.66773(9)
O4 O 0.6842(3) 0.40816(17) 0.64187(11)
O5 O 0.8006(2) 0.53829(14) 0.58081(9)
O6 O 0.7262(2) 0.60762(16) 0.56529(8)
C3 C 0.4796(3) 0.6176(3) 0.63503(13)
C4 C 0.6278(4) 0.4366(3) 0.64999(15)
C5 C 0.7356(3) 0.5682(2) 0.58014(12)
C6 C 0.6679(3) 0.55178(17) 0.60067(11)
C7 C 0.6040(3) 0.58970(18) 0.60682(10)
H10 H 0.6018 0.6227 0.5973
C8 C 0.5449(3) 0.5771(2) 0.62713(11)
C9 C 0.5517(3) 0.5274(2) 0.64071(11)
H11 H 0.5122 0.5182 0.6548
C10 C 0.6140(3) 0.4926(2) 0.63382(12)
C11 C 0.6705(3) 0.50489(18) 0.61364(11)
H12 H 0.7127 0.4798 0.6086
O7 O 0.9291(3) 0.72691(15) 0.39649(10)
O8 O 0.8760(4) 0.76820(17) 0.43291(10)
O9 O 0.8444(3) 0.66797(14) 0.52272(9)
O10 O 0.9000(2) 0.58585(14) 0.52384(9)
C12 C 0.9071(4) 0.7294(2) 0.42116(16)
C13 C 0.8822(4) 0.6288(2) 0.51242(14)
C15 C 0.9789(4) 0.5926(2) 0.44266(14)
C16 C 0.9637(4) 0.6372(2) 0.42694(15)
H13 H 0.9807 0.6382 0.4080
C17 C 0.9232(4) 0.6812(2) 0.43885(14)
C18 C 0.8969(4) 0.6790(2) 0.46604(14)
H14 H 0.8691 0.7087 0.4741
C19 C 0.9106(3) 0.6331(2) 0.48222(13)
C20 C 0.9534(3) 0.5905(2) 0.47051(14)
H15 H 0.9654 0.5600 0.4814
O13 O 0.4267(2) 0.65582(15) 0.28283(7)
O14 O 0.5369(3) 0.60158(18) 0.28628(8)
O15 O 0.7520(2) 0.59741(17) 0.21063(8)
O16 O 0.75716(19) 0.67113(15) 0.18514(7)
O17 O 0.4758(2) 0.74871(17) 0.16169(8)
O18 O 0.4109(7) 0.7794(5) 0.1970(3)
C21 C 0.4939(3) 0.6350(2) 0.27397(11)
C22 C 0.4529(4) 0.7425(3) 0.18628(13)
C23 C 0.7202(3) 0.6397(3) 0.20206(11)
C24 C 0.6322(3) 0.6555(2) 0.21109(9)
C25 C 0.6018(3) 0.6361(2) 0.23610(10)
H16 H 0.6338 0.6113 0.2466
C26 C 0.5234(3) 0.6536(2) 0.24565(10)
C27 C 0.4760(3) 0.6882(2) 0.22990(10)
H17 H 0.4230 0.7002 0.2366
C28 C 0.5059(3) 0.7059(2) 0.20382(10)
C29 C 0.5851(3) 0.6902(2) 0.19479(10)
H18 H 0.6070 0.7029 0.1776
O19 O 0.5520(2) 0.66200(16) 0.34062(11)
O20 O 0.42333(18) 0.69652(13) 0.34326(7)
O21 O 0.3807(2) 0.83730(17) 0.41332(11)
O22 O 0.4798(2) 0.90112(15) 0.41546(10)
O23 O 0.7744(2) 0.84113(16) 0.39500(8)
H19 H 0.7769 0.8718 0.3882
O24 O 0.7909(2) 0.78349(17) 0.36004(9)
C30 C 0.5031(3) 0.6975(2) 0.34762(12)
C31 C 0.4511(4) 0.8546(2) 0.40795(14)
C32 C 0.7455(3) 0.8104(2) 0.37744(12)
C33 C 0.6525(3) 0.8000(2) 0.37676(11)
C34 C 0.6212(3) 0.7561(2) 0.36244(11)
H20 H 0.6588 0.7338 0.3524
C35 C 0.5354(3) 0.7448(2) 0.36281(11)
C36 C 0.4816(3) 0.7777(2) 0.37700(12)
H21 H 0.4227 0.7705 0.3770
C37 C 0.5127(3) 0.8220(2) 0.39154(12)
C38 C 0.5964(3) 0.8327(2) 0.39063(12)
H22 H 0.6171 0.8635 0.3998
O25 O 0.6269(3) 0.5443(2) 0.34001(13)
O26 O 0.7211(4) 0.7279(2) 0.56581(12)
C39 C 0.6764(6) 0.7554(4) 0.5824(2)
H23 H 0.6180 0.7474 0.5839
N2 N 0.7061(4) 0.7935(3) 0.59726(14)
C40 C 0.6538(5) 0.8267(3) 0.61522(17)
H24 H 0.6771 0.8267 0.6341
H25 H 0.5961 0.8126 0.6156
H26 H 0.6530 0.8630 0.6080
C41 C 0.7972(6) 0.8071(5) 0.5949(2)
H27 H 0.8236 0.8051 0.6133
H28 H 0.8030 0.8431 0.5875
H29 H 0.8249 0.7820 0.5822
Li3 Li 0.4527(6) 0.4077(4) 0.6740(2)
Li4 Li 0.2929(5) 0.8296(3) 0.4412(2)
Zn4 Zn 0.62775(3) 0.35806(2) 0.68078(2)
Zn5 Zn 0.87225(3) 0.64194(2) 0.18078(2)
Zn6 Zn 0.40267(4) 0.94150(2) 0.43886(2)
Zn8 Zn 0.41142(3) 0.71837(2) 0.63180(2)
Zn9 Zn 0.41142(3) 0.78163(2) 0.13180(2)
O27 O 0.9766(2) 0.84225(16) 0.38068(9)
O28 O 0.4236(3) 0.57115(16) 0.33227(9)
O29 O 0.3158(3) 0.59184(17) 0.35813(11)
O30 O 0.9609(2) 0.49239(15) 0.55274(9)
O31 O 0.25716(19) 0.67113(15) 0.31486(7)
O32 O 0.9758(2) 0.74871(17) 0.33831(8)
O33 O 0.8807(2) 0.66270(17) 0.58668(11)
O34 O 0.9798(2) 0.59888(15) 0.58454(10)
H30 H 0.822493 0.77814 0.423479
H31 H 0.684282 0.55507 0.333899
H32 H 0.624341 0.544165 0.360688
O1_2 O 0.0234(2) 0.34225(16) 0.11932(9)
O2_2 O 0.0634(3) 0.3906(2) 0.15607(10)
H9_2 H 0.0596 0.3645 0.1669
C3_2 C 0.0204(3) 0.3824(3) 0.13503(13)
Li3_2 Li 0.0473(6) 0.5923(4) 0.1740(2)
Zn8_2 Zn 0.08858(3) 0.28163(2) 0.13180(2)
Zn1_2 Zn 0.12775(3) 0.35806(2) 0.81922(2)
O13_2 O 0.0733(2) 0.34418(15) 0.78283(7)
O17_2 O 0.0242(2) 0.25129(17) 0.66169(8)
O18_2 O 0.0891(7) 0.2206(5) 0.6970(3)
C21_2 C 0.0061(3) 0.3650(2) 0.77397(11)
C22_2 C 0.0471(4) 0.2575(3) 0.68628(13)
C27_2 C 0.0240(3) 0.3118(2) 0.72990(10)
H17_2 H 0.0770 0.2998 0.7366
O20_2 O 0.07667(18) 0.30348(13) 0.84326(7)
O21_2 O 0.1193(2) 0.16270(17) 0.91332(11)
O22_2 O 0.0202(2) 0.09888(15) 0.91546(10)
C31_2 C 0.0489(4) 0.1454(2) 0.90795(14)
C36_2 C 0.0184(3) 0.2223(2) 0.87700(12)
H21_2 H 0.0773 0.2295 0.8770
Li4_2 Li 0.2071(5) 0.1704(3) 0.9412(2)
Zn6_2 Zn 0.09733(4) 0.05850(2) 0.93886(2)
Zn9_2 Zn 0.08858(3) 0.21837(2) 0.63180(2)
O28_2 O 0.0764(3) 0.42885(16) 0.83227(9)
O29_2 O 0.1842(3) 0.40816(17) 0.85813(11)
O31_2 O 0.24284(19) 0.32887(15) 0.81486(7)
Li2_2 Li 0.7071(5) 0.3296(3) 0.0588(2)
Zn2_2 Zn 0.59733(4) 0.44150(2) 0.06114(2)
O3_2 O 0.9236(3) 0.57115(16) 0.16773(9)
O4_2 O 0.8158(3) 0.59184(17) 0.14187(11)
O5_2 O 0.6994(2) 0.46171(14) 0.08081(9)
O6_2 O 0.7738(2) 0.39238(16) 0.06529(8)
C4_2 C 0.8722(4) 0.5634(3) 0.14999(15)
C5_2 C 0.7644(3) 0.4318(2) 0.08014(12)
C6_2 C 0.8321(3) 0.44822(17) 0.10067(11)
C7_2 C 0.8960(3) 0.41030(18) 0.10682(10)
H10_2 H 0.8982 0.3773 0.0973
C8_2 C 0.9551(3) 0.4229(2) 0.12713(11)
C9_2 C 0.9483(3) 0.4726(2) 0.14071(11)
H11_2 H 0.9878 0.4818 0.1548
C10_2 C 0.8860(3) 0.5074(2) 0.13382(12)
C11_2 C 0.8295(3) 0.49511(18) 0.11364(11)
H12_2 H 0.7873 0.5202 0.1086
O9_2 O 0.6556(3) 0.33203(14) 0.02272(9)
O10_2 O 0.6000(2) 0.41415(14) 0.02384(9)
C13_2 C 0.6178(4) 0.3712(2) 0.01242(14)
O26_2 O 0.7789(4) 0.2721(2) 0.06581(12)
C39_2 C 0.8236(6) 0.2446(4) 0.0824(2)
H23_2 H 0.8820 0.2526 0.0839
N2_2 N 0.7939(4) 0.2065(3) 0.09726(14)
C40_2 C 0.8462(5) 0.1733(3) 0.11522(17)
H24_2 H 0.8229 0.1733 0.1341
H25_2 H 0.9039 0.1874 0.1156
H26_2 H 0.8470 0.1370 0.1080
C41_2 C 0.7028(6) 0.1929(5) 0.0949(2)
H27_2 H 0.6764 0.1949 0.1133
H28_2 H 0.6970 0.1569 0.0875
H29_2 H 0.6751 0.2180 0.0822
O30_2 O 0.5391(2) 0.50761(15) 0.05274(9)
O33_2 O 0.6193(2) 0.33730(17) 0.08668(11)
O34_2 O 0.5202(2) 0.40112(15) 0.08454(10)
Li1_2 Li 0.9527(6) 0.4077(4) 0.8260(2)
Zn3_2 Zn 0.58858(3) 0.21837(2) 0.86820(2)
O7_2 O 0.5709(3) 0.27309(15) 0.89649(10)
O8_2 O 0.6240(4) 0.23180(17) 0.93291(10)
O11_2 O 0.4609(2) 0.49239(15) 0.94726(9)
O12_2 O 0.4552(3) 0.45361(16) 0.90556(11)
C12_2 C 0.5929(4) 0.2706(2) 0.92116(16)
C14_2 C 0.4773(4) 0.4552(2) 0.93020(16)
C15_2 C 0.5211(4) 0.4074(2) 0.94266(14)
C16_2 C 0.5363(4) 0.3628(2) 0.92694(15)
H13_2 H 0.5193 0.3618 0.9080
C17_2 C 0.5768(4) 0.3188(2) 0.93885(14)
C18_2 C 0.6031(4) 0.3210(2) 0.96604(14)
H14_2 H 0.6309 0.2913 0.9741
C19_2 C 0.5894(3) 0.3669(2) 0.98222(13)
C20_2 C 0.5466(3) 0.4095(2) 0.97051(14)
H15_2 H 0.5346 0.4400 0.9814
O14_2 O 0.9631(3) 0.39842(18) 0.78628(8)
O15_2 O 0.7480(2) 0.40259(17) 0.71063(8)
O16_2 O 0.74284(19) 0.32887(15) 0.68514(7)
C23_2 C 0.7798(3) 0.3603(3) 0.70206(11)
C24_2 C 0.8678(3) 0.3445(2) 0.71109(9)
C25_2 C 0.8982(3) 0.3639(2) 0.73610(10)
H16_2 H 0.8662 0.3887 0.7466
C26_2 C 0.9766(3) 0.3464(2) 0.74565(10)
C28_2 C 0.9941(3) 0.2941(2) 0.70382(10)
C29_2 C 0.9149(3) 0.3098(2) 0.69479(10)
H18_2 H 0.8930 0.2971 0.6776
O19_2 O 0.9480(2) 0.33800(16) 0.84062(11)
O23_2 O 0.7256(2) 0.15887(16) 0.89500(8)
H19_2 H 0.7231 0.1282 0.8882
O24_2 O 0.7091(2) 0.21651(17) 0.86004(9)
C30_2 C 0.9969(3) 0.3025(2) 0.84762(12)
C32_2 C 0.7545(3) 0.1896(2) 0.87744(12)
C33_2 C 0.8475(3) 0.2000(2) 0.87676(11)
C34_2 C 0.8788(3) 0.2439(2) 0.86244(11)
H20_2 H 0.8412 0.2662 0.8524
C35_2 C 0.9646(3) 0.2552(2) 0.86281(11)
C37_2 C 0.9873(3) 0.1780(2) 0.89154(12)
C38_2 C 0.9036(3) 0.1673(2) 0.89063(12)
H22_2 H 0.8829 0.1365 0.8998
O25_2 O 0.8731(3) 0.4557(2) 0.84001(13)
Zn7_2 Zn 0.40267(4) 0.55850(2) 0.93886(2)
O27_2 O 0.5234(2) 0.15775(16) 0.88068(9)
O32_2 O 0.5242(2) 0.25129(17) 0.83831(8)
H30_2 H 0.677507 0.22186 0.923479
H31_2 H 0.815718 0.44493 0.833899
H32_2 H 0.875659 0.455835 0.860688
Li1_3 Li 0.4527(6) 0.0923(4) 0.1740(2)
Zn1_3 Zn 0.62775(3) 0.14194(2) 0.18078(2)
O7_3 O 0.0709(3) 0.22691(15) 0.10351(10)
O8_3 O 0.1240(4) 0.26820(17) 0.06709(10)
C12_3 C 0.0929(4) 0.2294(2) 0.07884(16)
C15_3 C 0.0211(4) 0.0926(2) 0.05734(14)
C16_3 C 0.0363(4) 0.1372(2) 0.07306(15)
H13_3 H 0.0193 0.1382 0.0920
C17_3 C 0.0768(4) 0.1812(2) 0.06115(14)
C18_3 C 0.1031(4) 0.1790(2) 0.03396(14)
H14_3 H 0.1309 0.2087 0.0259
C19_3 C 0.0894(3) 0.1331(2) 0.01778(13)
C20_3 C 0.0466(3) 0.0905(2) 0.02949(14)
H15_3 H 0.0346 0.0600 0.0186
O13_3 O 0.5733(2) 0.15582(15) 0.21717(7)
O14_3 O 0.4631(3) 0.10158(18) 0.21372(8)
O15_3 O 0.2480(2) 0.09741(17) 0.28937(8)
O16_3 O 0.24284(19) 0.17113(15) 0.31486(7)
O17_3 O 0.5242(2) 0.24871(17) 0.33831(8)
O18_3 O 0.5891(7) 0.2794(5) 0.3030(3)
C21_3 C 0.5061(3) 0.1350(2) 0.22603(11)
C22_3 C 0.5471(4) 0.2425(3) 0.31372(13)
C23_3 C 0.2798(3) 0.1397(3) 0.29794(11)
C24_3 C 0.3678(3) 0.1555(2) 0.28891(9)
C25_3 C 0.3982(3) 0.1361(2) 0.26390(10)
H16_3 H 0.3662 0.1113 0.2534
C26_3 C 0.4766(3) 0.1536(2) 0.25435(10)
C27_3 C 0.5240(3) 0.1882(2) 0.27010(10)
H17_3 H 0.5770 0.2002 0.2634
C28_3 C 0.4941(3) 0.2059(2) 0.29618(10)
C29_3 C 0.4149(3) 0.1902(2) 0.30521(10)
H18_3 H 0.3930 0.2029 0.3224
O19_3 O 0.4480(2) 0.16200(16) 0.15938(11)
O20_3 O 0.57667(18) 0.19652(13) 0.15674(7)
O23_3 O 0.2256(2) 0.34113(16) 0.10500(8)
H19_3 H 0.2231 0.3718 0.1118
O24_3 O 0.2091(2) 0.28349(17) 0.13996(9)
C30_3 C 0.4969(3) 0.1975(2) 0.15238(12)
C31_3 C 0.5489(4) 0.3546(2) 0.09205(14)
C32_3 C 0.2545(3) 0.3104(2) 0.12256(12)
C33_3 C 0.3475(3) 0.3000(2) 0.12324(11)
C34_3 C 0.3788(3) 0.2561(2) 0.13756(11)
H20_3 H 0.3412 0.2338 0.1476
C35_3 C 0.4646(3) 0.2448(2) 0.13719(11)
C36_3 C 0.5184(3) 0.2777(2) 0.12300(12)
H21_3 H 0.5773 0.2705 0.1230
C37_3 C 0.4873(3) 0.3220(2) 0.10846(12)
C38_3 C 0.4036(3) 0.3327(2) 0.10937(12)
H22_3 H 0.3829 0.3635 0.1002
O25_3 O 0.3731(3) 0.0443(2) 0.15999(13)
Zn5_2 Zn 0.12775(3) 0.14194(2) 0.31922(2)
Zn9_3 Zn 0.58858(3) 0.28163(2) 0.36820(2)
O28_3 O 0.5764(3) 0.07115(16) 0.16773(9)
O29_3 O 0.6842(3) 0.09184(17) 0.14187(11)
O31_3 O 0.74284(19) 0.17113(15) 0.18514(7)
O32_3 O 0.0242(2) 0.24871(17) 0.16169(8)
H30_3 H 0.177507 0.27814 0.0765205
H31_3 H 0.315718 0.05507 0.166101
H32_3 H 0.375659 0.0441652 0.139312
O2_3 O 0.5634(3) 0.1094(2) 0.84393(10)
H9_3 H 0.5596 0.1355 0.8331
O5_3 O 0.1994(2) 0.03829(14) 0.91919(9)
O6_3 O 0.2738(2) 0.10762(16) 0.93471(8)
C3_3 C 0.5204(3) 0.1176(3) 0.86497(13)
C5_3 C 0.2644(3) 0.0682(2) 0.91986(12)
C6_3 C 0.3321(3) 0.05178(17) 0.89933(11)
C7_3 C 0.3960(3) 0.08970(18) 0.89318(10)
H10_3 H 0.3982 0.1227 0.9027
C8_3 C 0.4551(3) 0.0771(2) 0.87287(11)
C9_3 C 0.4483(3) 0.0274(2) 0.85929(11)
H11_3 H 0.4878 0.0182 0.8452
C11_3 C 0.3295(3) 0.00489(18) 0.88636(11)
O9_3 O 0.1556(3) 0.16797(14) 0.97728(9)
O10_3 O 0.1000(2) 0.08585(14) 0.97616(9)
C13_3 C 0.1178(4) 0.1288(2) 0.98758(14)
O26_3 O 0.2789(4) 0.2279(2) 0.93419(12)
C39_3 C 0.3236(6) 0.2554(4) 0.9176(2)
H23_3 H 0.3820 0.2474 0.9161
N2_3 N 0.2939(4) 0.2935(3) 0.90274(14)
C40_3 C 0.3462(5) 0.3267(3) 0.88478(17)
H24_3 H 0.3229 0.3267 0.8659
H25_3 H 0.4039 0.3126 0.8844
H26_3 H 0.3470 0.3630 0.8920
C41_3 C 0.2028(6) 0.3071(5) 0.9051(2)
H27_3 H 0.1764 0.3051 0.8867
H28_3 H 0.1970 0.3431 0.9125
H29_3 H 0.1751 0.2820 0.9178
O3_3 O 0.4236(3) 0.92885(16) 0.83227(9)
O4_3 O 0.3158(3) 0.90816(17) 0.85813(11)
C4_3 C 0.3722(4) 0.9366(3) 0.85001(15)
C10_3 C 0.3860(3) 0.9926(2) 0.86618(12)
H12_3 H 0.2873 0.9798 0.8914
Li3_3 Li 0.5473(6) 0.9077(4) 0.8260(2)
Zn4_2 Zn 0.37225(3) 0.85806(2) 0.81922(2)
O30_3 O 0.0391(2) 0.99239(15) 0.94726(9)
O11_3 O 0.9609(2) 0.00761(15) 0.05274(9)
O12_3 O 0.9552(3) 0.04639(16) 0.09444(11)
C14_3 C 0.9773(4) 0.0448(2) 0.06980(16)
Zn7_3 Zn 0.90267(4) 0.94150(2) 0.06114(2)
O3_4 O 0.0764(3) 0.07115(16) 0.33227(9)
O4_4 O 0.1842(3) 0.09184(17) 0.35813(11)
C4_4 C 0.1278(4) 0.0634(3) 0.35001(15)
C10_4 C 0.1140(3) 0.0074(2) 0.36618(12)
H12_4 H 0.2127 0.0202 0.3914
Zn7_4 Zn 0.59733(4) 0.05850(2) 0.56114(2)
O30_4 O 0.4609(2) 0.00761(15) 0.44726(9)
Li1_4 Li 0.0473(6) 0.9077(4) 0.6740(2)
O5_4 O 0.3006(2) 0.96171(14) 0.41919(9)
O6_4 O 0.2262(2) 0.89238(16) 0.43471(8)
C5_4 C 0.2356(3) 0.9318(2) 0.41986(12)
C6_4 C 0.1679(3) 0.94822(17) 0.39933(11)
C7_4 C 0.1040(3) 0.91030(18) 0.39318(10)
H10_4 H 0.1018 0.8773 0.4027
C8_4 C 0.0449(3) 0.9229(2) 0.37287(11)
C9_4 C 0.0517(3) 0.9726(2) 0.35929(11)
H11_4 H 0.0122 0.9818 0.3452
C11_4 C 0.1705(3) 0.99511(18) 0.38636(11)
O7_4 O 0.4291(3) 0.77309(15) 0.60351(10)
O8_4 O 0.3760(4) 0.73180(17) 0.56709(10)
O9_4 O 0.3444(3) 0.83203(14) 0.47728(9)
O10_4 O 0.4000(2) 0.91415(14) 0.47616(9)
O11_4 O 0.5391(2) 0.99239(15) 0.55274(9)
O12_4 O 0.5448(3) 0.95361(16) 0.59444(11)
C12_4 C 0.4071(4) 0.7706(2) 0.57884(16)
C13_4 C 0.3822(4) 0.8712(2) 0.48758(14)
C14_4 C 0.5227(4) 0.9552(2) 0.56980(16)
C15_4 C 0.4789(4) 0.9074(2) 0.55734(14)
C16_4 C 0.4637(4) 0.8628(2) 0.57306(15)
H13_4 H 0.4807 0.8618 0.5920
C17_4 C 0.4232(4) 0.8188(2) 0.56115(14)
C18_4 C 0.3969(4) 0.8210(2) 0.53396(14)
H14_4 H 0.3691 0.7913 0.5259
C19_4 C 0.4106(3) 0.8669(2) 0.51778(13)
C20_4 C 0.4534(3) 0.9095(2) 0.52949(14)
H15_4 H 0.4654 0.9400 0.5186
O14_4 O 0.0369(3) 0.89842(18) 0.71372(8)
O15_4 O 0.2520(2) 0.90259(17) 0.78937(8)
O16_4 O 0.25716(19) 0.82887(15) 0.81486(7)
C23_4 C 0.2202(3) 0.8603(3) 0.79794(11)
C24_4 C 0.1322(3) 0.8445(2) 0.78891(9)
C25_4 C 0.1018(3) 0.8639(2) 0.76390(10)
H16_4 H 0.1338 0.8887 0.7534
C26_4 C 0.0234(3) 0.8464(2) 0.75435(10)
C28_4 C 0.0059(3) 0.7941(2) 0.79618(10)
C29_4 C 0.0851(3) 0.8098(2) 0.80521(10)
H18_4 H 0.1070 0.7971 0.8224
O19_4 O 0.0520(2) 0.83800(16) 0.65938(11)
O23_4 O 0.2744(2) 0.65887(16) 0.60500(8)
H19_4 H 0.2769 0.6282 0.6118
O24_4 O 0.2909(2) 0.71651(17) 0.63996(9)
C30_4 C 0.0031(3) 0.8025(2) 0.65238(12)
C32_4 C 0.2455(3) 0.6896(2) 0.62256(12)
C33_4 C 0.1525(3) 0.7000(2) 0.62324(11)
C34_4 C 0.1212(3) 0.7439(2) 0.63756(11)
H20_4 H 0.1588 0.7662 0.6476
C35_4 C 0.0354(3) 0.7552(2) 0.63719(11)
C37_4 C 0.0127(3) 0.6780(2) 0.60846(12)
C38_4 C 0.0964(3) 0.6673(2) 0.60937(12)
H22_4 H 0.1171 0.6365 0.6002
O25_4 O 0.1269(3) 0.9557(2) 0.65999(13)
O26_4 O 0.2211(4) 0.7721(2) 0.43419(12)
C39_4 C 0.1764(6) 0.7446(4) 0.4176(2)
H23_4 H 0.1180 0.7526 0.4161
N2_4 N 0.2061(4) 0.7065(3) 0.40274(14)
C40_4 C 0.1538(5) 0.6733(3) 0.38478(17)
H24_4 H 0.1771 0.6733 0.3659
H25_4 H 0.0961 0.6874 0.3844
H26_4 H 0.1530 0.6370 0.3920
C41_4 C 0.2972(6) 0.6929(5) 0.4051(2)
H27_4 H 0.3236 0.6949 0.3867
H28_4 H 0.3030 0.6569 0.4125
H29_4 H 0.3249 0.7180 0.4178
O32_4 O 0.4758(2) 0.75129(17) 0.66169(8)
H30_4 H 0.322493 0.72186 0.576521
H31_4 H 0.184282 0.94493 0.666101
H32_4 H 0.124341 0.955835 0.639312
Li3_4 Li 0.9527(6) 0.0923(4) 0.3260(2)
Zn1_4 Zn 0.87225(3) 0.85806(2) 0.68078(2)
O2_4 O 0.9366(3) 0.8906(2) 0.34393(10)
H9_4 H 0.9404 0.8645 0.3331
C3_4 C 0.9796(3) 0.8824(3) 0.36497(13)
O13_4 O 0.9267(2) 0.84418(15) 0.71717(7)
O17_4 O 0.9758(2) 0.75129(17) 0.83831(8)
O18_4 O 0.9109(7) 0.7206(5) 0.8030(3)
C21_4 C 0.9939(3) 0.8650(2) 0.72603(11)
C22_4 C 0.9529(4) 0.7575(3) 0.81372(13)
C27_4 C 0.9760(3) 0.8118(2) 0.77010(10)
H17_4 H 0.9230 0.7998 0.7634
O20_4 O 0.92333(18) 0.80348(13) 0.65674(7)
C31_4 C 0.9511(4) 0.6454(2) 0.59205(14)
C36_4 C 0.9816(3) 0.7223(2) 0.62300(12)
H21_4 H 0.9227 0.7295 0.6230
Zn9_4 Zn 0.91142(3) 0.71837(2) 0.86820(2)
O28_4 O 0.9236(3) 0.92885(16) 0.66773(9)
O29_4 O 0.8158(3) 0.90816(17) 0.64187(11)
O31_4 O 0.75716(19) 0.82887(15) 0.68514(7)
Li2_3 Li 0.2071(5) 0.3296(3) 0.4412(2)
O1_3 O 0.5234(2) 0.34225(16) 0.38068(9)
O2_5 O 0.5634(3) 0.3906(2) 0.34393(10)
H9_5 H 0.5596 0.3645 0.3331
O5_5 O 0.1994(2) 0.46171(14) 0.41919(9)
O6_5 O 0.2738(2) 0.39238(16) 0.43471(8)
C3_5 C 0.5204(3) 0.3824(3) 0.36497(13)
C4_5 C 0.3722(4) 0.5634(3) 0.35001(15)
C5_5 C 0.2644(3) 0.4318(2) 0.41986(12)
C6_5 C 0.3321(3) 0.44822(17) 0.39933(11)
C7_5 C 0.3960(3) 0.41030(18) 0.39318(10)
H10_5 H 0.3982 0.3773 0.4027
C8_5 C 0.4551(3) 0.4229(2) 0.37287(11)
C9_5 C 0.4483(3) 0.4726(2) 0.35929(11)
H11_5 H 0.4878 0.4818 0.3452
C10_5 C 0.3860(3) 0.5074(2) 0.36618(12)
C11_5 C 0.3295(3) 0.49511(18) 0.38636(11)
H12_5 H 0.2873 0.5202 0.3914
O7_5 O 0.0709(3) 0.27309(15) 0.60351(10)
O8_5 O 0.1240(4) 0.23180(17) 0.56709(10)
O9_5 O 0.1556(3) 0.33203(14) 0.47728(9)
O10_5 O 0.1000(2) 0.41415(14) 0.47616(9)
C12_5 C 0.0929(4) 0.2706(2) 0.57884(16)
C13_5 C 0.1178(4) 0.3712(2) 0.48758(14)
C15_5 C 0.0211(4) 0.4074(2) 0.55734(14)
C16_5 C 0.0363(4) 0.3628(2) 0.57306(15)
H13_5 H 0.0193 0.3618 0.5920
C17_5 C 0.0768(4) 0.3188(2) 0.56115(14)
C18_5 C 0.1031(4) 0.3210(2) 0.53396(14)
H14_5 H 0.1309 0.2913 0.5259
C19_5 C 0.0894(3) 0.3669(2) 0.51778(13)
C20_5 C 0.0466(3) 0.4095(2) 0.52949(14)
H15_5 H 0.0346 0.4400 0.5186
O13_5 O 0.5733(2) 0.34418(15) 0.71717(7)
O14_5 O 0.4631(3) 0.39842(18) 0.71372(8)
O15_5 O 0.2480(2) 0.40259(17) 0.78937(8)
O18_5 O 0.5891(7) 0.2206(5) 0.8030(3)
C21_5 C 0.5061(3) 0.3650(2) 0.72603(11)
C22_5 C 0.5471(4) 0.2575(3) 0.81372(13)
C23_5 C 0.2798(3) 0.3603(3) 0.79794(11)
C24_5 C 0.3678(3) 0.3445(2) 0.78891(9)
C25_5 C 0.3982(3) 0.3639(2) 0.76390(10)
H16_5 H 0.3662 0.3887 0.7534
C26_5 C 0.4766(3) 0.3464(2) 0.75435(10)
C27_5 C 0.5240(3) 0.3118(2) 0.77010(10)
H17_5 H 0.5770 0.2998 0.7634
C28_5 C 0.4941(3) 0.2941(2) 0.79618(10)
C29_5 C 0.4149(3) 0.3098(2) 0.80521(10)
H18_5 H 0.3930 0.2971 0.8224
O19_5 O 0.4480(2) 0.33800(16) 0.65938(11)
O20_5 O 0.57667(18) 0.30348(13) 0.65674(7)
O21_3 O 0.6193(2) 0.16270(17) 0.58668(11)
O22_3 O 0.5202(2) 0.09888(15) 0.58454(10)
O23_5 O 0.2256(2) 0.15887(16) 0.60500(8)
H19_5 H 0.2231 0.1282 0.6118
O24_5 O 0.2091(2) 0.21651(17) 0.63996(9)
C30_5 C 0.4969(3) 0.3025(2) 0.65238(12)
C31_5 C 0.5489(4) 0.1454(2) 0.59205(14)
C32_5 C 0.2545(3) 0.1896(2) 0.62256(12)
C33_5 C 0.3475(3) 0.2000(2) 0.62324(11)
C34_5 C 0.3788(3) 0.2439(2) 0.63756(11)
H20_5 H 0.3412 0.2662 0.6476
C35_5 C 0.4646(3) 0.2552(2) 0.63719(11)
C36_5 C 0.5184(3) 0.2223(2) 0.62300(12)
H21_5 H 0.5773 0.2295 0.6230
C37_5 C 0.4873(3) 0.1780(2) 0.60846(12)
C38_5 C 0.4036(3) 0.1673(2) 0.60937(12)
H22_5 H 0.3829 0.1365 0.6002
O25_5 O 0.3731(3) 0.4557(2) 0.65999(13)
O26_5 O 0.2789(4) 0.2721(2) 0.43419(12)
C39_5 C 0.3236(6) 0.2446(4) 0.4176(2)
H23_5 H 0.3820 0.2526 0.4161
N2_5 N 0.2939(4) 0.2065(3) 0.40274(14)
C40_5 C 0.3462(5) 0.1733(3) 0.38478(17)
H24_5 H 0.3229 0.1733 0.3659
H25_5 H 0.4039 0.1874 0.3844
H26_5 H 0.3470 0.1370 0.3920
C41_5 C 0.2028(6) 0.1929(5) 0.4051(2)
H27_5 H 0.1764 0.1949 0.3867
H28_5 H 0.1970 0.1569 0.4125
H29_5 H 0.1751 0.2180 0.4178
Li4_3 Li 0.7071(5) 0.1704(3) 0.5588(2)
O27_3 O 0.0234(2) 0.15775(16) 0.61932(9)
O33_3 O 0.1193(2) 0.33730(17) 0.41332(11)
O34_3 O 0.0202(2) 0.40112(15) 0.41546(10)
H30_5 H 0.177507 0.22186 0.576521
H31_5 H 0.315718 0.44493 0.666101
H32_5 H 0.375659 0.455835 0.639312
O12_5 O 0.9552(3) 0.45361(16) 0.59444(11)
C14_5 C 0.9773(4) 0.4552(2) 0.56980(16)
O7_6 O 0.4291(3) 0.72691(15) 0.10351(10)
O8_6 O 0.3760(4) 0.76820(17) 0.06709(10)
O12_6 O 0.5448(3) 0.54639(16) 0.09444(11)
C12_6 C 0.4071(4) 0.7294(2) 0.07884(16)
C14_6 C 0.5227(4) 0.5448(2) 0.06980(16)
C15_6 C 0.4789(4) 0.5926(2) 0.05734(14)
C16_6 C 0.4637(4) 0.6372(2) 0.07306(15)
H13_6 H 0.4807 0.6382 0.0920
C17_6 C 0.4232(4) 0.6812(2) 0.06115(14)
C18_6 C 0.3969(4) 0.6790(2) 0.03396(14)
H14_6 H 0.3691 0.7087 0.0259
C19_6 C 0.4106(3) 0.6331(2) 0.01778(13)
C20_6 C 0.4534(3) 0.5905(2) 0.02949(14)
H15_6 H 0.4654 0.5600 0.0186
O14_6 O 0.0369(3) 0.60158(18) 0.21372(8)
O15_6 O 0.2520(2) 0.59741(17) 0.28937(8)
C23_6 C 0.2202(3) 0.6397(3) 0.29794(11)
C24_6 C 0.1322(3) 0.6555(2) 0.28891(9)
C25_6 C 0.1018(3) 0.6361(2) 0.26390(10)
H16_6 H 0.1338 0.6113 0.2534
C26_6 C 0.0234(3) 0.6536(2) 0.25435(10)
C28_6 C 0.0059(3) 0.7059(2) 0.29618(10)
C29_6 C 0.0851(3) 0.6902(2) 0.30521(10)
H18_6 H 0.1070 0.7029 0.3224
O19_6 O 0.0520(2) 0.66200(16) 0.15938(11)
O23_6 O 0.2744(2) 0.84113(16) 0.10500(8)
H19_6 H 0.2769 0.8718 0.1118
O24_6 O 0.2909(2) 0.78349(17) 0.13996(9)
C30_6 C 0.0031(3) 0.6975(2) 0.15238(12)
C32_6 C 0.2455(3) 0.8104(2) 0.12256(12)
C33_6 C 0.1525(3) 0.8000(2) 0.12324(11)
C34_6 C 0.1212(3) 0.7561(2) 0.13756(11)
H20_6 H 0.1588 0.7338 0.1476
C35_6 C 0.0354(3) 0.7448(2) 0.13719(11)
C37_6 C 0.0127(3) 0.8220(2) 0.10846(12)
C38_6 C 0.0964(3) 0.8327(2) 0.10937(12)
H22_6 H 0.1171 0.8635 0.1002
O25_6 O 0.1269(3) 0.5443(2) 0.15999(13)
O27_4 O 0.4766(2) 0.84225(16) 0.11932(9)
H30_6 H 0.322493 0.77814 0.0765205
H31_6 H 0.184282 0.55507 0.166101
H32_6 H 0.124341 0.544165 0.139312
Li2_4 Li 0.2929(5) 0.6704(3) 0.9412(2)
O5_6 O 0.3006(2) 0.53829(14) 0.91919(9)
O6_6 O 0.2262(2) 0.60762(16) 0.93471(8)
C4_6 C 0.1278(4) 0.4366(3) 0.85001(15)
C5_6 C 0.2356(3) 0.5682(2) 0.91986(12)
C6_6 C 0.1679(3) 0.55178(17) 0.89933(11)
C7_6 C 0.1040(3) 0.58970(18) 0.89318(10)
H10_6 H 0.1018 0.6227 0.9027
C8_6 C 0.0449(3) 0.5771(2) 0.87287(11)
C9_6 C 0.0517(3) 0.5274(2) 0.85929(11)
H11_6 H 0.0122 0.5182 0.8452
C10_6 C 0.1140(3) 0.4926(2) 0.86618(12)
C11_6 C 0.1705(3) 0.50489(18) 0.88636(11)
H12_6 H 0.2127 0.4798 0.8914
O9_6 O 0.3444(3) 0.66797(14) 0.97728(9)
O10_6 O 0.4000(2) 0.58585(14) 0.97616(9)
C13_6 C 0.3822(4) 0.6288(2) 0.98758(14)
O26_6 O 0.2211(4) 0.7279(2) 0.93419(12)
C39_6 C 0.1764(6) 0.7554(4) 0.9176(2)
H23_6 H 0.1180 0.7474 0.9161
N2_6 N 0.2061(4) 0.7935(3) 0.90274(14)
C40_6 C 0.1538(5) 0.8267(3) 0.88478(17)
H24_6 H 0.1771 0.8267 0.8659
H25_6 H 0.0961 0.8126 0.8844
H26_6 H 0.1530 0.8630 0.8920
C41_6 C 0.2972(6) 0.8071(5) 0.9051(2)
H27_6 H 0.3236 0.8051 0.8867
H28_6 H 0.3030 0.8431 0.9125
H29_6 H 0.3249 0.7820 0.9178
O33_4 O 0.3807(2) 0.66270(17) 0.91332(11)
O34_4 O 0.4798(2) 0.59888(15) 0.91546(10)
O13_6 O 0.9267(2) 0.65582(15) 0.21717(7)
O18_6 O 0.9109(7) 0.7794(5) 0.3030(3)
C21_6 C 0.9939(3) 0.6350(2) 0.22603(11)
C22_6 C 0.9529(4) 0.7425(3) 0.31372(13)
C27_6 C 0.9760(3) 0.6882(2) 0.27010(10)
H17_6 H 0.9230 0.7002 0.2634
O20_6 O 0.92333(18) 0.69652(13) 0.15674(7)
O21_4 O 0.8807(2) 0.83730(17) 0.08668(11)
O22_4 O 0.9798(2) 0.90112(15) 0.08454(10)
C31_6 C 0.9511(4) 0.8546(2) 0.09205(14)
C36_6 C 0.9816(3) 0.7777(2) 0.12300(12)
H21_6 H 0.9227 0.7705 0.1230
Li4_4 Li 0.7929(5) 0.8296(3) 0.0588(2)
O1_4 O 0.9766(2) 0.65775(16) 0.88068(9)
O2_6 O 0.9366(3) 0.6094(2) 0.84393(10)
H9_6 H 0.9404 0.6355 0.8331
C3_6 C 0.9796(3) 0.6176(3) 0.86497(13)
O12_7 O 0.0448(3) 0.95361(16) 0.90556(11)
C14_7 C 0.0227(4) 0.9552(2) 0.93020(16)
C4_7 C 0.6278(4) 0.0634(3) 0.14999(15)
C10_7 C 0.6140(3) 0.0074(2) 0.13382(12)
H12_7 H 0.7127 0.0202 0.1086
O2_7 O 0.4366(3) 0.8906(2) 0.15607(10)
H9_7 H 0.4404 0.8645 0.1669
O5_7 O 0.8006(2) 0.96171(14) 0.08081(9)
O6_7 O 0.7262(2) 0.89238(16) 0.06529(8)
C3_7 C 0.4796(3) 0.8824(3) 0.13503(13)
C5_7 C 0.7356(3) 0.9318(2) 0.08014(12)
C6_7 C 0.6679(3) 0.94822(17) 0.10067(11)
C7_7 C 0.6040(3) 0.91030(18) 0.10682(10)
H10_7 H 0.6018 0.8773 0.0973
C8_7 C 0.5449(3) 0.9229(2) 0.12713(11)
C9_7 C 0.5517(3) 0.9726(2) 0.14071(11)
H11_7 H 0.5122 0.9818 0.1548
C11_7 C 0.6705(3) 0.99511(18) 0.11364(11)
O9_7 O 0.8444(3) 0.83203(14) 0.02272(9)
O10_7 O 0.9000(2) 0.91415(14) 0.02384(9)
C13_7 C 0.8822(4) 0.8712(2) 0.01242(14)
O26_7 O 0.7211(4) 0.7721(2) 0.06581(12)
C39_7 C 0.6764(6) 0.7446(4) 0.0824(2)
H23_7 H 0.6180 0.7526 0.0839
N2_7 N 0.7061(4) 0.7065(3) 0.09726(14)
C40_7 C 0.6538(5) 0.6733(3) 0.11522(17)
H24_7 H 0.6771 0.6733 0.1341
H25_7 H 0.5961 0.6874 0.1156
H26_7 H 0.6530 0.6370 0.1080
C41_7 C 0.7972(6) 0.6929(5) 0.0949(2)
H27_7 H 0.8236 0.6949 0.1133
H28_7 H 0.8030 0.6569 0.0875
H29_7 H 0.8249 0.7180 0.0822
O7_7 O 0.9291(3) 0.77309(15) 0.89649(10)
O8_7 O 0.8760(4) 0.73180(17) 0.93291(10)
C12_7 C 0.9071(4) 0.7706(2) 0.92116(16)
C15_7 C 0.9789(4) 0.9074(2) 0.94266(14)
C16_7 C 0.9637(4) 0.8628(2) 0.92694(15)
H13_7 H 0.9807 0.8618 0.9080
C17_7 C 0.9232(4) 0.8188(2) 0.93885(14)
C18_7 C 0.8969(4) 0.8210(2) 0.96604(14)
H14_7 H 0.8691 0.7913 0.9741
C19_7 C 0.9106(3) 0.8669(2) 0.98222(13)
C20_7 C 0.9534(3) 0.9095(2) 0.97051(14)
H15_7 H 0.9654 0.9400 0.9814
O13_7 O 0.4267(2) 0.84418(15) 0.78283(7)
O14_7 O 0.5369(3) 0.89842(18) 0.78628(8)
O15_7 O 0.7520(2) 0.90259(17) 0.71063(8)
O18_7 O 0.4109(7) 0.7206(5) 0.6970(3)
C21_7 C 0.4939(3) 0.8650(2) 0.77397(11)
C22_7 C 0.4529(4) 0.7575(3) 0.68628(13)
C23_7 C 0.7202(3) 0.8603(3) 0.70206(11)
C24_7 C 0.6322(3) 0.8445(2) 0.71109(9)
C25_7 C 0.6018(3) 0.8639(2) 0.73610(10)
H16_7 H 0.6338 0.8887 0.7466
C26_7 C 0.5234(3) 0.8464(2) 0.74565(10)
C27_7 C 0.4760(3) 0.8118(2) 0.72990(10)
H17_7 H 0.4230 0.7998 0.7366
C28_7 C 0.5059(3) 0.7941(2) 0.70382(10)
C29_7 C 0.5851(3) 0.8098(2) 0.69479(10)
H18_7 H 0.6070 0.7971 0.6776
O19_7 O 0.5520(2) 0.83800(16) 0.84062(11)
O20_7 O 0.42333(18) 0.80348(13) 0.84326(7)
O23_7 O 0.7744(2) 0.65887(16) 0.89500(8)
H19_7 H 0.7769 0.6282 0.8882
O24_7 O 0.7909(2) 0.71651(17) 0.86004(9)
C30_7 C 0.5031(3) 0.8025(2) 0.84762(12)
C31_7 C 0.4511(4) 0.6454(2) 0.90795(14)
C32_7 C 0.7455(3) 0.6896(2) 0.87744(12)
C33_7 C 0.6525(3) 0.7000(2) 0.87676(11)
C34_7 C 0.6212(3) 0.7439(2) 0.86244(11)
H20_7 H 0.6588 0.7662 0.8524
C35_7 C 0.5354(3) 0.7552(2) 0.86281(11)
C36_7 C 0.4816(3) 0.7223(2) 0.87700(12)
H21_7 H 0.4227 0.7295 0.8770
C37_7 C 0.5127(3) 0.6780(2) 0.89154(12)
C38_7 C 0.5964(3) 0.6673(2) 0.89063(12)
H22_7 H 0.6171 0.6365 0.8998
O25_7 O 0.6269(3) 0.9557(2) 0.84001(13)
H30_7 H 0.822493 0.72186 0.923479
H31_7 H 0.684282 0.94493 0.833899
H32_7 H 0.624341 0.955835 0.860688
O2_8 O 0.0634(3) 0.1094(2) 0.65607(10)
H9_8 H 0.0596 0.1355 0.6669
C3_8 C 0.0204(3) 0.1176(3) 0.63503(13)
O13_8 O 0.0733(2) 0.15582(15) 0.28283(7)
O18_8 O 0.0891(7) 0.2794(5) 0.1970(3)
C21_8 C 0.0061(3) 0.1350(2) 0.27397(11)
C22_8 C 0.0471(4) 0.2425(3) 0.18628(13)
C27_8 C 0.0240(3) 0.1882(2) 0.22990(10)
H17_8 H 0.0770 0.2002 0.2366
O20_8 O 0.07667(18) 0.19652(13) 0.34326(7)
C31_8 C 0.0489(4) 0.3546(2) 0.40795(14)
C36_8 C 0.0184(3) 0.2777(2) 0.37700(12)
H21_8 H 0.0773 0.2705 0.3770
O5_8 O 0.6994(2) 0.03829(14) 0.58081(9)
O6_8 O 0.7738(2) 0.10762(16) 0.56529(8)
C5_8 C 0.7644(3) 0.0682(2) 0.58014(12)
C6_8 C 0.8321(3) 0.05178(17) 0.60067(11)
C7_8 C 0.8960(3) 0.08970(18) 0.60682(10)
H10_8 H 0.8982 0.1227 0.5973
C8_8 C 0.9551(3) 0.0771(2) 0.62713(11)
C9_8 C 0.9483(3) 0.0274(2) 0.64071(11)
H11_8 H 0.9878 0.0182 0.6548
C11_8 C 0.8295(3) 0.00489(18) 0.61364(11)
O7_8 O 0.5709(3) 0.22691(15) 0.39649(10)
O8_8 O 0.6240(4) 0.26820(17) 0.43291(10)
O9_8 O 0.6556(3) 0.16797(14) 0.52272(9)
O10_8 O 0.6000(2) 0.08585(14) 0.52384(9)
O12_8 O 0.4552(3) 0.04639(16) 0.40556(11)
C12_8 C 0.5929(4) 0.2294(2) 0.42116(16)
C13_8 C 0.6178(4) 0.1288(2) 0.51242(14)
C14_8 C 0.4773(4) 0.0448(2) 0.43020(16)
C15_8 C 0.5211(4) 0.0926(2) 0.44266(14)
C16_8 C 0.5363(4) 0.1372(2) 0.42694(15)
H13_8 H 0.5193 0.1382 0.4080
C17_8 C 0.5768(4) 0.1812(2) 0.43885(14)
C18_8 C 0.6031(4) 0.1790(2) 0.46604(14)
H14_8 H 0.6309 0.2087 0.4741
C19_8 C 0.5894(3) 0.1331(2) 0.48222(13)
C20_8 C 0.5466(3) 0.0905(2) 0.47051(14)
H15_8 H 0.5346 0.0600 0.4814
O14_8 O 0.9631(3) 0.10158(18) 0.28628(8)
O15_8 O 0.7480(2) 0.09741(17) 0.21063(8)
C23_8 C 0.7798(3) 0.1397(3) 0.20206(11)
C24_8 C 0.8678(3) 0.1555(2) 0.21109(9)
C25_8 C 0.8982(3) 0.1361(2) 0.23610(10)
H16_8 H 0.8662 0.1113 0.2466
C26_8 C 0.9766(3) 0.1536(2) 0.24565(10)
C28_8 C 0.9941(3) 0.2059(2) 0.20382(10)
C29_8 C 0.9149(3) 0.1902(2) 0.19479(10)
H18_8 H 0.8930 0.2029 0.1776
O19_8 O 0.9480(2) 0.16200(16) 0.34062(11)
O23_8 O 0.7256(2) 0.34113(16) 0.39500(8)
H19_8 H 0.7231 0.3718 0.3882
O24_8 O 0.7091(2) 0.28349(17) 0.36004(9)
C30_8 C 0.9969(3) 0.1975(2) 0.34762(12)
C32_8 C 0.7545(3) 0.3104(2) 0.37744(12)
C33_8 C 0.8475(3) 0.3000(2) 0.37676(11)
C34_8 C 0.8788(3) 0.2561(2) 0.36244(11)
H20_8 H 0.8412 0.2338 0.3524
C35_8 C 0.9646(3) 0.2448(2) 0.36281(11)
C37_8 C 0.9873(3) 0.3220(2) 0.39154(12)
C38_8 C 0.9036(3) 0.3327(2) 0.39063(12)
H22_8 H 0.8829 0.3635 0.3998
O25_8 O 0.8731(3) 0.0443(2) 0.34001(13)
O26_8 O 0.7789(4) 0.2279(2) 0.56581(12)
C39_8 C 0.8236(6) 0.2554(4) 0.5824(2)
H23_8 H 0.8820 0.2474 0.5839
N2_8 N 0.7939(4) 0.2935(3) 0.59726(14)
C40_8 C 0.8462(5) 0.3267(3) 0.61522(17)
H24_8 H 0.8229 0.3267 0.6341
H25_8 H 0.9039 0.3126 0.6156
H26_8 H 0.8470 0.3630 0.6080
C41_8 C 0.7028(6) 0.3071(5) 0.5949(2)
H27_8 H 0.6764 0.3051 0.6133
H28_8 H 0.6970 0.3431 0.5875
H29_8 H 0.6751 0.2820 0.5822
H30_8 H 0.677507 0.27814 0.423479
H31_8 H 0.815718 0.05507 0.333899
H32_8 H 0.875659 0.0441652 0.360688
C4_8 C 0.8722(4) 0.9366(3) 0.64999(15)
C10_8 C 0.8860(3) 0.9926(2) 0.63382(12)
H12_8 H 0.7873 0.9798 0.6086
loop_
_geom_bond_atom_site_label_1
_geom_bond_atom_site_label_2
_geom_bond_site_symmetry_1
_geom_bond_site_symmetry_2
N1 H1 1_555 1_555
H2 N1 1_555 1_555
C1 N1 1_555 1_555
H3 C1 1_555 1_555
H4 C1 1_555 1_555
H5 C1 1_555 1_555
C2 N1 1_555 1_555
H6 C2 1_555 1_555
H8 C2 1_555 1_555
N1_2 H1_2 1_555 1_555
H2_2 N1_2 1_555 1_555
C1_2 N1_2 1_555 1_555
H3_2 C1_2 1_555 1_555
H4_2 C1_2 1_555 1_555
H5_2 C1_2 1_555 1_555
C2_2 N1_2 1_555 1_555
H6_2 C2_2 1_555 1_555
H7_2 C2_2 1_555 1_555
H8_2 C2_2 1_555 1_555
H3_3 C1_3 1_555 1_555
H4_3 C1_3 1_555 1_555
H5_3 C1_3 1_555 1_555
N1_3 H1_3 1_555 1_555
C2_3 N1_3 1_555 1_555
H6_3 C2_3 1_555 1_555
H8_3 C2_3 1_555 1_555
N1_4 H1_4 1_555 1_555
C2_4 N1_4 1_555 1_555
H6_4 C2_4 1_555 1_555
H7_4 C2_4 1_555 1_555
H8_4 C2_4 1_555 1_555
H3_4 C1_4 1_555 1_555
H4_4 C1_4 1_555 1_555
H5_4 C1_4 1_555 1_555
N1_5 H1_5 1_555 1_555
H2_5 N1_5 1_555 1_555
C1_5 N1_5 1_555 1_555
H3_5 C1_5 1_555 1_555
H4_5 C1_5 1_555 1_555
H5_5 C1_5 1_555 1_555
C2_5 N1_5 1_555 1_555
H6_5 C2_5 1_555 1_555
H8_5 C2_5 1_555 1_555
N1_6 H1_6 1_555 1_555
H2_6 N1_6 1_555 1_555
C1_6 N1_6 1_555 1_555
H3_6 C1_6 1_555 1_555
H4_6 C1_6 1_555 1_555
H5_6 C1_6 1_555 1_555
C2_6 N1_6 1_555 1_555
H6_6 C2_6 1_555 1_555
H7_6 C2_6 1_555 1_555
H8_6 C2_6 1_555 1_555
N1_7 H1_7 1_555 1_555
C2_7 N1_7 1_555 1_555
H6_7 C2_7 1_555 1_555
H8_7 C2_7 1_555 1_555
H3_7 C1_7 1_555 1_555
H4_7 C1_7 1_555 1_555
H5_7 C1_7 1_555 1_555
H3_8 C1_8 1_555 1_555
H4_8 C1_8 1_555 1_555
H5_8 C1_8 1_555 1_555
N1_8 H1_8 1_555 1_555
C2_8 N1_8 1_555 1_555
H6_8 C2_8 1_555 1_555
H7_8 C2_8 1_555 1_555
H8_8 C2_8 1_555 1_555
O11 C14 1_555 1_555
O12 C14 1_555 1_555
Zn7 O11 1_555 1_555
Li1 O14 1_555 1_555
Li2 O6 1_555 1_555
Zn1 O13 1_555 1_555
Zn2 O5 1_555 1_555
Zn3 O7 1_555 1_555
O1 C3 1_555 1_555
O2 H9 1_555 1_555
O3 C4 1_555 1_555
O4 C4 1_555 1_555
O5 C5 1_555 1_555
O6 C5 1_555 1_555
C3 O2 1_555 1_555
C4 C10 1_555 1_555
C5 C6 1_555 1_555
C6 C7 1_555 1_555
C7 H10 1_555 1_555
C8 C3 1_555 1_555
C9 C8 1_555 1_555
H11 C9 1_555 1_555
C10 C9 1_555 1_555
C11 C6 1_555 1_555
H12 C11 1_555 1_555
O7 C12 1_555 1_555
O8 C12 1_555 1_555
O9 Li2 1_555 1_555
O10 Zn2 1_555 1_555
C12 C17 1_555 1_555
C13 O9 1_555 1_555
C15 C16 1_555 1_555
C16 H13 1_555 1_555
C17 C16 1_555 1_555
C18 C17 1_555 1_555
H14 C18 1_555 1_555
C19 C13 1_555 1_555
C20 C15 1_555 1_555
H15 C20 1_555 1_555
O13 C21 1_555 1_555
O14 C21 1_555 1_555
O15 C23 1_555 1_555
O16 C23 1_555 1_555
O17 C22 1_555 1_555
O18 C22 1_555 1_555
C21 C26 1_555 1_555
C22 C28 1_555 1_555
C23 C24 1_555 1_555
C24 C25 1_555 1_555
C25 H16 1_555 1_555
C26 C25 1_555 1_555
C27 C26 1_555 1_555
H17 C27 1_555 1_555
C28 C27 1_555 1_555
C29 C24 1_555 1_555
H18 C29 1_555 1_555
O19 Li1 1_555 1_555
O20 Zn1 1_555 1_555
O21 C31 1_555 1_555
O22 C31 1_555 1_555
O23 H19 1_555 1_555
O24 Zn3 1_555 1_555
C30 O19 1_555 1_555
C31 C37 1_555 1_555
C32 O23 1_555 1_555
C33 C32 1_555 1_555
C34 C33 1_555 1_555
H20 C34 1_555 1_555
C35 C30 1_555 1_555
C36 C35 1_555 1_555
H21 C36 1_555 1_555
C37 C36 1_555 1_555
C38 C33 1_555 1_555
H22 C38 1_555 1_555
O25 Li1 1_555 1_555
O26 Li2 1_555 1_555
C39 O26 1_555 1_555
H23 C39 1_555 1_555
N2 C39 1_555 1_555
C40 N2 1_555 1_555
H24 C40 1_555 1_555
H25 C40 1_555 1_555
H26 C40 1_555 1_555
C41 N2 1_555 1_555
H27 C41 1_555 1_555
H28 C41 1_555 1_555
H29 C41 1_555 1_555
Li3 O3 1_555 1_555
Li4 O21 1_555 1_555
Zn4 O3 1_555 1_555
Zn5 O16 1_555 1_555
Zn6 O22 1_555 1_555
Zn8 O1 1_555 1_555
Zn9 O17 1_555 1_555
O27 Zn3 1_555 1_555
O28 Li1 1_555 1_555
O29 Zn1 1_555 1_555
O30 Zn2 1_555 1_555
O31 Zn1 1_555 1_555
O32 Zn3 1_555 1_555
O33 Li2 1_555 1_555
O34 Zn2 1_555 1_555
Zn1 O28 1_555 1_555
O4 Zn4 1_555 1_555
C7 C8 1_555 1_555
C10 C11 1_555 1_555
O10 C13 1_555 1_555
C18 C19 1_555 1_555
C19 C20 1_555 1_555
C28 C29 1_555 1_555
O20 C30 1_555 1_555
O24 C32 1_555 1_555
C34 C35 1_555 1_555
C37 C38 1_555 1_555
O8 H30 1_555 1_555
O25 H31 1_555 1_555
O25 H32 1_555 1_555
O1_2 C3_2 1_555 1_555
O2_2 H9_2 1_555 1_555
C3_2 O2_2 1_555 1_555
Zn8_2 O1_2 1_555 1_555
Zn1_2 O13_2 1_555 1_555
O13_2 C21_2 1_555 1_555
O17_2 C22_2 1_555 1_555
O18_2 C22_2 1_555 1_555
H17_2 C27_2 1_555 1_555
O20_2 Zn1_2 1_555 1_555
O21_2 C31_2 1_555 1_555
O22_2 C31_2 1_555 1_555
H21_2 C36_2 1_555 1_555
Li4_2 O21_2 1_555 1_555
Zn6_2 O22_2 1_555 1_555
Zn9_2 O17_2 1_555 1_555
O29_2 Zn1_2 1_555 1_555
O31_2 Zn1_2 1_555 1_555
Zn1_2 O28_2 1_555 1_555
Li2_2 O6_2 1_555 1_555
Zn2_2 O5_2 1_555 1_555
O3_2 C4_2 1_555 1_555
O4_2 C4_2 1_555 1_555
O5_2 C5_2 1_555 1_555
O6_2 C5_2 1_555 1_555
C4_2 C10_2 1_555 1_555
C5_2 C6_2 1_555 1_555
C6_2 C7_2 1_555 1_555
C7_2 H10_2 1_555 1_555
C9_2 C8_2 1_555 1_555
H11_2 C9_2 1_555 1_555
C10_2 C9_2 1_555 1_555
C11_2 C6_2 1_555 1_555
H12_2 C11_2 1_555 1_555
O9_2 Li2_2 1_555 1_555
O10_2 Zn2_2 1_555 1_555
C13_2 O9_2 1_555 1_555
O26_2 Li2_2 1_555 1_555
C39_2 O26_2 1_555 1_555
H23_2 C39_2 1_555 1_555
N2_2 C39_2 1_555 1_555
C40_2 N2_2 1_555 1_555
H24_2 C40_2 1_555 1_555
H25_2 C40_2 1_555 1_555
H26_2 C40_2 1_555 1_555
C41_2 N2_2 1_555 1_555
H27_2 C41_2 1_555 1_555
H28_2 C41_2 1_555 1_555
H29_2 C41_2 1_555 1_555
Zn5 O3_2 1_555 1_555
O30_2 Zn2_2 1_555 1_555
O33_2 Li2_2 1_555 1_555
O34_2 Zn2_2 1_555 1_555
O4_2 Zn5 1_555 1_555
C7_2 C8_2 1_555 1_555
C10_2 C11_2 1_555 1_555
O10_2 C13_2 1_555 1_555
Li1_2 O14_2 1_555 1_555
Zn3_2 O7_2 1_555 1_555
O7_2 C12_2 1_555 1_555
O8_2 C12_2 1_555 1_555
O11_2 C14_2 1_555 1_555
O12_2 C14_2 1_555 1_555
C12_2 C17_2 1_555 1_555
C14_2 C15_2 1_555 1_555
C15_2 C16_2 1_555 1_555
C16_2 H13_2 1_555 1_555
C17_2 C16_2 1_555 1_555
C18_2 C17_2 1_555 1_555
H14_2 C18_2 1_555 1_555
C20_2 C15_2 1_555 1_555
H15_2 C20_2 1_555 1_555
O15_2 C23_2 1_555 1_555
O16_2 C23_2 1_555 1_555
C23_2 C24_2 1_555 1_555
C24_2 C25_2 1_555 1_555
C25_2 H16_2 1_555 1_555
C26_2 C25_2 1_555 1_555
C29_2 C24_2 1_555 1_555
H18_2 C29_2 1_555 1_555
O19_2 Li1_2 1_555 1_555
O23_2 H19_2 1_555 1_555
O24_2 Zn3_2 1_555 1_555
C30_2 O19_2 1_555 1_555
C32_2 O23_2 1_555 1_555
C33_2 C32_2 1_555 1_555
C34_2 C33_2 1_555 1_555
H20_2 C34_2 1_555 1_555
C35_2 C30_2 1_555 1_555
C38_2 C33_2 1_555 1_555
H22_2 C38_2 1_555 1_555
O25_2 Li1_2 1_555 1_555
Zn4 O16_2 1_555 1_555
Zn7_2 O11_2 1_555 1_555
O27_2 Zn3_2 1_555 1_555
O32_2 Zn3_2 1_555 1_555
C18_2 C19_2 1_555 1_555
C19_2 C20_2 1_555 1_555
C28_2 C29_2 1_555 1_555
O24_2 C32_2 1_555 1_555
C34_2 C35_2 1_555 1_555
C37_2 C38_2 1_555 1_555
O8_2 H30_2 1_555 1_555
O25_2 H31_2 1_555 1_555
O25_2 H32_2 1_555 1_555
Li1_3 O14_3 1_555 1_555
Zn1_3 O13_3 1_555 1_555
Zn8_2 O7_3 1_555 1_555
O7_3 C12_3 1_555 1_555
O8_3 C12_3 1_555 1_555
C12_3 C17_3 1_555 1_555
C15_3 C16_3 1_555 1_555
C16_3 H13_3 1_555 1_555
C17_3 C16_3 1_555 1_555
C18_3 C17_3 1_555 1_555
H14_3 C18_3 1_555 1_555
C20_3 C15_3 1_555 1_555
H15_3 C20_3 1_555 1_555
O13_3 C21_3 1_555 1_555
O14_3 C21_3 1_555 1_555
O15_3 C23_3 1_555 1_555
O16_3 C23_3 1_555 1_555
O17_3 C22_3 1_555 1_555
O18_3 C22_3 1_555 1_555
C21_3 C26_3 1_555 1_555
C22_3 C28_3 1_555 1_555
C23_3 C24_3 1_555 1_555
C24_3 C25_3 1_555 1_555
C25_3 H16_3 1_555 1_555
C26_3 C25_3 1_555 1_555
C27_3 C26_3 1_555 1_555
H17_3 C27_3 1_555 1_555
C28_3 C27_3 1_555 1_555
C29_3 C24_3 1_555 1_555
H18_3 C29_3 1_555 1_555
O19_3 Li1_3 1_555 1_555
O20_3 Zn1_3 1_555 1_555
O33_2 C31_3 1_555 1_555
O34_2 C31_3 1_555 1_555
O23_3 H19_3 1_555 1_555
O24_3 Zn8_2 1_555 1_555
C30_3 O19_3 1_555 1_555
C31_3 C37_3 1_555 1_555
C32_3 O23_3 1_555 1_555
C33_3 C32_3 1_555 1_555
C34_3 C33_3 1_555 1_555
H20_3 C34_3 1_555 1_555
C35_3 C30_3 1_555 1_555
C36_3 C35_3 1_555 1_555
H21_3 C36_3 1_555 1_555
C37_3 C36_3 1_555 1_555
C38_3 C33_3 1_555 1_555
H22_3 C38_3 1_555 1_555
O25_3 Li1_3 1_555 1_555
Zn5_2 O16_3 1_555 1_555
Zn9_3 O17_3 1_555 1_555
O28_3 Li1_3 1_555 1_555
O29_3 Zn1_3 1_555 1_555
O31_3 Zn1_3 1_555 1_555
O32_3 Zn8_2 1_555 1_555
Zn1_3 O28_3 1_555 1_555
C18_3 C19_3 1_555 1_555
C19_3 C20_3 1_555 1_555
C28_3 C29_3 1_555 1_555
O20_3 C30_3 1_555 1_555
O24_3 C32_3 1_555 1_555
C34_3 C35_3 1_555 1_555
C37_3 C38_3 1_555 1_555
O8_3 H30_3 1_555 1_555
O25_3 H31_3 1_555 1_555
O25_3 H32_3 1_555 1_555
Li4_2 O6_3 1_555 1_555
Zn6_2 O5_3 1_555 1_555
O27_2 C3_3 1_555 1_555
O2_3 H9_3 1_555 1_555
O5_3 C5_3 1_555 1_555
O6_3 C5_3 1_555 1_555
C3_3 O2_3 1_555 1_555
C5_3 C6_3 1_555 1_555
C6_3 C7_3 1_555 1_555
C7_3 H10_3 1_555 1_555
C8_3 C3_3 1_555 1_555
C9_3 C8_3 1_555 1_555
H11_3 C9_3 1_555 1_555
C11_3 C6_3 1_555 1_555
O9_3 Li4_2 1_555 1_555
O10_3 Zn6_2 1_555 1_555
C13_3 O9_3 1_555 1_555
O26_3 Li4_2 1_555 1_555
C39_3 O26_3 1_555 1_555
H23_3 C39_3 1_555 1_555
N2_3 C39_3 1_555 1_555
C40_3 N2_3 1_555 1_555
H24_3 C40_3 1_555 1_555
H25_3 C40_3 1_555 1_555
H26_3 C40_3 1_555 1_555
C41_3 N2_3 1_555 1_555
H27_3 C41_3 1_555 1_555
H28_3 C41_3 1_555 1_555
H29_3 C41_3 1_555 1_555
C7_3 C8_3 1_555 1_555
O10_3 C13_3 1_555 1_555
O3_3 C4_3 1_555 1_555
O4_3 C4_3 1_555 1_555
C4_3 C10_3 1_555 1_555
Li3_3 O3_3 1_555 1_555
Zn4_2 O3_3 1_555 1_555
O4_3 Zn4_2 1_555 1_555
O11_3 C14_3 1_555 1_555
O12_3 C14_3 1_555 1_555
O3_4 C4_4 1_555 1_555
O4_4 C4_4 1_555 1_555
C4_4 C10_4 1_555 1_555
Zn5_2 O3_4 1_555 1_555
O4_4 Zn5_2 1_555 1_555
Li1_4 O14_4 1_555 1_555
Li4 O6_4 1_555 1_555
Zn6 O5_4 1_555 1_555
Zn8 O7_4 1_555 1_555
O5_4 C5_4 1_555 1_555
O6_4 C5_4 1_555 1_555
C5_4 C6_4 1_555 1_555
C6_4 C7_4 1_555 1_555
C7_4 H10_4 1_555 1_555
C9_4 C8_4 1_555 1_555
H11_4 C9_4 1_555 1_555
C11_4 C6_4 1_555 1_555
O7_4 C12_4 1_555 1_555
O8_4 C12_4 1_555 1_555
O9_4 Li4 1_555 1_555
O10_4 Zn6 1_555 1_555
O11_4 C14_4 1_555 1_555
O12_4 C14_4 1_555 1_555
C12_4 C17_4 1_555 1_555
C13_4 O9_4 1_555 1_555
C14_4 C15_4 1_555 1_555
C15_4 C16_4 1_555 1_555
C16_4 H13_4 1_555 1_555
C17_4 C16_4 1_555 1_555
C18_4 C17_4 1_555 1_555
H14_4 C18_4 1_555 1_555
C19_4 C13_4 1_555 1_555
C20_4 C15_4 1_555 1_555
H15_4 C20_4 1_555 1_555
O15_4 C23_4 1_555 1_555
O16_4 C23_4 1_555 1_555
C23_4 C24_4 1_555 1_555
C24_4 C25_4 1_555 1_555
C25_4 H16_4 1_555 1_555
C26_4 C25_4 1_555 1_555
C29_4 C24_4 1_555 1_555
H18_4 C29_4 1_555 1_555
O19_4 Li1_4 1_555 1_555
O23_4 H19_4 1_555 1_555
O24_4 Zn8 1_555 1_555
C30_4 O19_4 1_555 1_555
C32_4 O23_4 1_555 1_555
C33_4 C32_4 1_555 1_555
C34_4 C33_4 1_555 1_555
H20_4 C34_4 1_555 1_555
C35_4 C30_4 1_555 1_555
C38_4 C33_4 1_555 1_555
H22_4 C38_4 1_555 1_555
O25_4 Li1_4 1_555 1_555
O26_4 Li4 1_555 1_555
C39_4 O26_4 1_555 1_555
H23_4 C39_4 1_555 1_555
N2_4 C39_4 1_555 1_555
C40_4 N2_4 1_555 1_555
H24_4 C40_4 1_555 1_555
H25_4 C40_4 1_555 1_555
H26_4 C40_4 1_555 1_555
C41_4 N2_4 1_555 1_555
H27_4 C41_4 1_555 1_555
H28_4 C41_4 1_555 1_555
H29_4 C41_4 1_555 1_555
Zn4_2 O16_4 1_555 1_555
O32_4 Zn8 1_555 1_555
C7_4 C8_4 1_555 1_555
O10_4 C13_4 1_555 1_555
C18_4 C19_4 1_555 1_555
C19_4 C20_4 1_555 1_555
C28_4 C29_4 1_555 1_555
O24_4 C32_4 1_555 1_555
C34_4 C35_4 1_555 1_555
C37_4 C38_4 1_555 1_555
O8_4 H30_4 1_555 1_555
O25_4 H31_4 1_555 1_555
O25_4 H32_4 1_555 1_555
Zn1_4 O13_4 1_555 1_555
O27 C3_4 1_555 1_555
O2_4 H9_4 1_555 1_555
C3_4 O2_4 1_555 1_555
O13_4 C21_4 1_555 1_555
O17_4 C22_4 1_555 1_555
O18_4 C22_4 1_555 1_555
H17_4 C27_4 1_555 1_555
O20_4 Zn1_4 1_555 1_555
O33 C31_4 1_555 1_555
O34 C31_4 1_555 1_555
H21_4 C36_4 1_555 1_555
Zn9_4 O17_4 1_555 1_555
O29_4 Zn1_4 1_555 1_555
O31_4 Zn1_4 1_555 1_555
Zn1_4 O28_4 1_555 1_555
Li3 O14_5 1_555 1_555
Li2_3 O6_5 1_555 1_555
Zn4 O13_5 1_555 1_555
Zn7 O5_5 1_555 1_555
Zn9_2 O7_5 1_555 1_555
O1_3 C3_5 1_555 1_555
O2_5 H9_5 1_555 1_555
O28 C4_5 1_555 1_555
O29 C4_5 1_555 1_555
O5_5 C5_5 1_555 1_555
O6_5 C5_5 1_555 1_555
C3_5 O2_5 1_555 1_555
C4_5 C10_5 1_555 1_555
C5_5 C6_5 1_555 1_555
C6_5 C7_5 1_555 1_555
C7_5 H10_5 1_555 1_555
C8_5 C3_5 1_555 1_555
C9_5 C8_5 1_555 1_555
H11_5 C9_5 1_555 1_555
C10_5 C9_5 1_555 1_555
C11_5 C6_5 1_555 1_555
H12_5 C11_5 1_555 1_555
O7_5 C12_5 1_555 1_555
O8_5 C12_5 1_555 1_555
O9_5 Li2_3 1_555 1_555
O10_5 Zn7 1_555 1_555
C12_5 C17_5 1_555 1_555
C13_5 O9_5 1_555 1_555
C15_5 C16_5 1_555 1_555
C16_5 H13_5 1_555 1_555
C17_5 C16_5 1_555 1_555
C18_5 C17_5 1_555 1_555
H14_5 C18_5 1_555 1_555
C19_5 C13_5 1_555 1_555
C20_5 C15_5 1_555 1_555
H15_5 C20_5 1_555 1_555
O13_5 C21_5 1_555 1_555
O14_5 C21_5 1_555 1_555
O15_5 C23_5 1_555 1_555
O31_2 C23_5 1_555 1_555
O32_2 C22_5 1_555 1_555
O18_5 C22_5 1_555 1_555
C21_5 C26_5 1_555 1_555
C22_5 C28_5 1_555 1_555
C23_5 C24_5 1_555 1_555
C24_5 C25_5 1_555 1_555
C25_5 H16_5 1_555 1_555
C26_5 C25_5 1_555 1_555
C27_5 C26_5 1_555 1_555
H17_5 C27_5 1_555 1_555
C28_5 C27_5 1_555 1_555
C29_5 C24_5 1_555 1_555
H18_5 C29_5 1_555 1_555
O19_5 Li3 1_555 1_555
O20_5 Zn4 1_555 1_555
O21_3 C31_5 1_555 1_555
O22_3 C31_5 1_555 1_555
O23_5 H19_5 1_555 1_555
O24_5 Zn9_2 1_555 1_555
C30_5 O19_5 1_555 1_555
C31_5 C37_5 1_555 1_555
C32_5 O23_5 1_555 1_555
C33_5 C32_5 1_555 1_555
C34_5 C33_5 1_555 1_555
H20_5 C34_5 1_555 1_555
C35_5 C30_5 1_555 1_555
C36_5 C35_5 1_555 1_555
H21_5 C36_5 1_555 1_555
C37_5 C36_5 1_555 1_555
C38_5 C33_5 1_555 1_555
H22_5 C38_5 1_555 1_555
O25_5 Li3 1_555 1_555
O26_5 Li2_3 1_555 1_555
C39_5 O26_5 1_555 1_555
H23_5 C39_5 1_555 1_555
N2_5 C39_5 1_555 1_555
C40_5 N2_5 1_555 1_555
H24_5 C40_5 1_555 1_555
H25_5 C40_5 1_555 1_555
H26_5 C40_5 1_555 1_555
C41_5 N2_5 1_555 1_555
H27_5 C41_5 1_555 1_555
H28_5 C41_5 1_555 1_555
H29_5 C41_5 1_555 1_555
Li4_3 O21_3 1_555 1_555
Zn7_4 O22_3 1_555 1_555
Zn9_3 O1_3 1_555 1_555
O27_3 Zn9_2 1_555 1_555
O33_3 Li2_3 1_555 1_555
O34_3 Zn7 1_555 1_555
C7_5 C8_5 1_555 1_555
C10_5 C11_5 1_555 1_555
O10_5 C13_5 1_555 1_555
C18_5 C19_5 1_555 1_555
C19_5 C20_5 1_555 1_555
C28_5 C29_5 1_555 1_555
O20_5 C30_5 1_555 1_555
O24_5 C32_5 1_555 1_555
C34_5 C35_5 1_555 1_555
C37_5 C38_5 1_555 1_555
O8_5 H30_5 1_555 1_555
O25_5 H31_5 1_555 1_555
O25_5 H32_5 1_555 1_555
O30 C14_5 1_555 1_555
O12_5 C14_5 1_555 1_555
Li3_2 O14_6 1_555 1_555
Zn9 O7_6 1_555 1_555
O7_6 C12_6 1_555 1_555
O8_6 C12_6 1_555 1_555
O30_2 C14_6 1_555 1_555
O12_6 C14_6 1_555 1_555
C12_6 C17_6 1_555 1_555
C14_6 C15_6 1_555 1_555
C15_6 C16_6 1_555 1_555
C16_6 H13_6 1_555 1_555
C17_6 C16_6 1_555 1_555
C18_6 C17_6 1_555 1_555
H14_6 C18_6 1_555 1_555
C20_6 C15_6 1_555 1_555
H15_6 C20_6 1_555 1_555
O15_6 C23_6 1_555 1_555
O31 C23_6 1_555 1_555
C23_6 C24_6 1_555 1_555
C24_6 C25_6 1_555 1_555
C25_6 H16_6 1_555 1_555
C26_6 C25_6 1_555 1_555
C29_6 C24_6 1_555 1_555
H18_6 C29_6 1_555 1_555
O19_6 Li3_2 1_555 1_555
O23_6 H19_6 1_555 1_555
O24_6 Zn9 1_555 1_555
C30_6 O19_6 1_555 1_555
C32_6 O23_6 1_555 1_555
C33_6 C32_6 1_555 1_555
C34_6 C33_6 1_555 1_555
H20_6 C34_6 1_555 1_555
C35_6 C30_6 1_555 1_555
C38_6 C33_6 1_555 1_555
H22_6 C38_6 1_555 1_555
O25_6 Li3_2 1_555 1_555
O27_4 Zn9 1_555 1_555
C18_6 C19_6 1_555 1_555
C19_6 C20_6 1_555 1_555
C28_6 C29_6 1_555 1_555
O24_6 C32_6 1_555 1_555
C34_6 C35_6 1_555 1_555
C37_6 C38_6 1_555 1_555
O8_6 H30_6 1_555 1_555
O25_6 H31_6 1_555 1_555
O25_6 H32_6 1_555 1_555
Li2_4 O6_6 1_555 1_555
Zn7_2 O5_6 1_555 1_555
O28_2 C4_6 1_555 1_555
O29_2 C4_6 1_555 1_555
O5_6 C5_6 1_555 1_555
O6_6 C5_6 1_555 1_555
C4_6 C10_6 1_555 1_555
C5_6 C6_6 1_555 1_555
C6_6 C7_6 1_555 1_555
C7_6 H10_6 1_555 1_555
C9_6 C8_6 1_555 1_555
H11_6 C9_6 1_555 1_555
C10_6 C9_6 1_555 1_555
C11_6 C6_6 1_555 1_555
H12_6 C11_6 1_555 1_555
O9_6 Li2_4 1_555 1_555
O10_6 Zn7_2 1_555 1_555
C13_6 O9_6 1_555 1_555
O26_6 Li2_4 1_555 1_555
C39_6 O26_6 1_555 1_555
H23_6 C39_6 1_555 1_555
N2_6 C39_6 1_555 1_555
C40_6 N2_6 1_555 1_555
H24_6 C40_6 1_555 1_555
H25_6 C40_6 1_555 1_555
H26_6 C40_6 1_555 1_555
C41_6 N2_6 1_555 1_555
H27_6 C41_6 1_555 1_555
H28_6 C41_6 1_555 1_555
H29_6 C41_6 1_555 1_555
O33_4 Li2_4 1_555 1_555
O34_4 Zn7_2 1_555 1_555
C7_6 C8_6 1_555 1_555
C10_6 C11_6 1_555 1_555
O10_6 C13_6 1_555 1_555
Zn5 O13_6 1_555 1_555
O13_6 C21_6 1_555 1_555
O32 C22_6 1_555 1_555
O18_6 C22_6 1_555 1_555
H17_6 C27_6 1_555 1_555
O20_6 Zn5 1_555 1_555
O21_4 C31_6 1_555 1_555
O22_4 C31_6 1_555 1_555
H21_6 C36_6 1_555 1_555
Li4_4 O21_4 1_555 1_555
Zn7_3 O22_4 1_555 1_555
O1_4 C3_6 1_555 1_555
O2_6 H9_6 1_555 1_555
C3_6 O2_6 1_555 1_555
Zn9_4 O1_4 1_555 1_555
O30_3 C14_7 1_555 1_555
O12_7 C14_7 1_555 1_555
O28_3 C4_7 1_555 1_555
O29_3 C4_7 1_555 1_555
C4_7 C10_7 1_555 1_555
Li4_4 O6_7 1_555 1_555
Zn7_3 O5_7 1_555 1_555
O27_4 C3_7 1_555 1_555
O2_7 H9_7 1_555 1_555
O5_7 C5_7 1_555 1_555
O6_7 C5_7 1_555 1_555
C3_7 O2_7 1_555 1_555
C5_7 C6_7 1_555 1_555
C6_7 C7_7 1_555 1_555
C7_7 H10_7 1_555 1_555
C8_7 C3_7 1_555 1_555
C9_7 C8_7 1_555 1_555
H11_7 C9_7 1_555 1_555
C11_7 C6_7 1_555 1_555
O9_7 Li4_4 1_555 1_555
O10_7 Zn7_3 1_555 1_555
C13_7 O9_7 1_555 1_555
O26_7 Li4_4 1_555 1_555
C39_7 O26_7 1_555 1_555
H23_7 C39_7 1_555 1_555
N2_7 C39_7 1_555 1_555
C40_7 N2_7 1_555 1_555
H24_7 C40_7 1_555 1_555
H25_7 C40_7 1_555 1_555
H26_7 C40_7 1_555 1_555
C41_7 N2_7 1_555 1_555
H27_7 C41_7 1_555 1_555
H28_7 C41_7 1_555 1_555
H29_7 C41_7 1_555 1_555
C7_7 C8_7 1_555 1_555
O10_7 C13_7 1_555 1_555
Li3_3 O14_7 1_555 1_555
Zn4_2 O13_7 1_555 1_555
Zn9_4 O7_7 1_555 1_555
O7_7 C12_7 1_555 1_555
O8_7 C12_7 1_555 1_555
C12_7 C17_7 1_555 1_555
C15_7 C16_7 1_555 1_555
C16_7 H13_7 1_555 1_555
C17_7 C16_7 1_555 1_555
C18_7 C17_7 1_555 1_555
H14_7 C18_7 1_555 1_555
C20_7 C15_7 1_555 1_555
H15_7 C20_7 1_555 1_555
O13_7 C21_7 1_555 1_555
O14_7 C21_7 1_555 1_555
O15_7 C23_7 1_555 1_555
O31_4 C23_7 1_555 1_555
O32_4 C22_7 1_555 1_555
O18_7 C22_7 1_555 1_555
C21_7 C26_7 1_555 1_555
C22_7 C28_7 1_555 1_555
C23_7 C24_7 1_555 1_555
C24_7 C25_7 1_555 1_555
C25_7 H16_7 1_555 1_555
C26_7 C25_7 1_555 1_555
C27_7 C26_7 1_555 1_555
H17_7 C27_7 1_555 1_555
C28_7 C27_7 1_555 1_555
C29_7 C24_7 1_555 1_555
H18_7 C29_7 1_555 1_555
O19_7 Li3_3 1_555 1_555
O20_7 Zn4_2 1_555 1_555
O33_4 C31_7 1_555 1_555
O34_4 C31_7 1_555 1_555
O23_7 H19_7 1_555 1_555
O24_7 Zn9_4 1_555 1_555
C30_7 O19_7 1_555 1_555
C31_7 C37_7 1_555 1_555
C32_7 O23_7 1_555 1_555
C33_7 C32_7 1_555 1_555
C34_7 C33_7 1_555 1_555
H20_7 C34_7 1_555 1_555
C35_7 C30_7 1_555 1_555
C36_7 C35_7 1_555 1_555
H21_7 C36_7 1_555 1_555
C37_7 C36_7 1_555 1_555
C38_7 C33_7 1_555 1_555
H22_7 C38_7 1_555 1_555
O25_7 Li3_3 1_555 1_555
C18_7 C19_7 1_555 1_555
C19_7 C20_7 1_555 1_555
C28_7 C29_7 1_555 1_555
O20_7 C30_7 1_555 1_555
O24_7 C32_7 1_555 1_555
C34_7 C35_7 1_555 1_555
C37_7 C38_7 1_555 1_555
O8_7 H30_7 1_555 1_555
O25_7 H31_7 1_555 1_555
O25_7 H32_7 1_555 1_555
Zn5_2 O13_8 1_555 1_555
O27_3 C3_8 1_555 1_555
O2_8 H9_8 1_555 1_555
C3_8 O2_8 1_555 1_555
O13_8 C21_8 1_555 1_555
O32_3 C22_8 1_555 1_555
O18_8 C22_8 1_555 1_555
H17_8 C27_8 1_555 1_555
O20_8 Zn5_2 1_555 1_555
O33_3 C31_8 1_555 1_555
O34_3 C31_8 1_555 1_555
H21_8 C36_8 1_555 1_555
Li3_4 O14_8 1_555 1_555
Li4_3 O6_8 1_555 1_555
Zn7_4 O5_8 1_555 1_555
Zn9_3 O7_8 1_555 1_555
O5_8 C5_8 1_555 1_555
O6_8 C5_8 1_555 1_555
C5_8 C6_8 1_555 1_555
C6_8 C7_8 1_555 1_555
C7_8 H10_8 1_555 1_555
C9_8 C8_8 1_555 1_555
H11_8 C9_8 1_555 1_555
C11_8 C6_8 1_555 1_555
O7_8 C12_8 1_555 1_555
O8_8 C12_8 1_555 1_555
O9_8 Li4_3 1_555 1_555
O10_8 Zn7_4 1_555 1_555
O30_4 C14_8 1_555 1_555
O12_8 C14_8 1_555 1_555
C12_8 C17_8 1_555 1_555
C13_8 O9_8 1_555 1_555
C14_8 C15_8 1_555 1_555
C15_8 C16_8 1_555 1_555
C16_8 H13_8 1_555 1_555
C17_8 C16_8 1_555 1_555
C18_8 C17_8 1_555 1_555
H14_8 C18_8 1_555 1_555
C19_8 C13_8 1_555 1_555
C20_8 C15_8 1_555 1_555
H15_8 C20_8 1_555 1_555
O15_8 C23_8 1_555 1_555
O31_3 C23_8 1_555 1_555
C23_8 C24_8 1_555 1_555
C24_8 C25_8 1_555 1_555
C25_8 H16_8 1_555 1_555
C26_8 C25_8 1_555 1_555
C29_8 C24_8 1_555 1_555
H18_8 C29_8 1_555 1_555
O19_8 Li3_4 1_555 1_555
O23_8 H19_8 1_555 1_555
O24_8 Zn9_3 1_555 1_555
C30_8 O19_8 1_555 1_555
C32_8 O23_8 1_555 1_555
C33_8 C32_8 1_555 1_555
C34_8 C33_8 1_555 1_555
H20_8 C34_8 1_555 1_555
C35_8 C30_8 1_555 1_555
C38_8 C33_8 1_555 1_555
H22_8 C38_8 1_555 1_555
O25_8 Li3_4 1_555 1_555
O26_8 Li4_3 1_555 1_555
C39_8 O26_8 1_555 1_555
H23_8 C39_8 1_555 1_555
N2_8 C39_8 1_555 1_555
C40_8 N2_8 1_555 1_555
H24_8 C40_8 1_555 1_555
H25_8 C40_8 1_555 1_555
H26_8 C40_8 1_555 1_555
C41_8 N2_8 1_555 1_555
H27_8 C41_8 1_555 1_555
H28_8 C41_8 1_555 1_555
H29_8 C41_8 1_555 1_555
C7_8 C8_8 1_555 1_555
O10_8 C13_8 1_555 1_555
C18_8 C19_8 1_555 1_555
C19_8 C20_8 1_555 1_555
C28_8 C29_8 1_555 1_555
O24_8 C32_8 1_555 1_555
C34_8 C35_8 1_555 1_555
C37_8 C38_8 1_555 1_555
O8_8 H30_8 1_555 1_555
O25_8 H31_8 1_555 1_555
O25_8 H32_8 1_555 1_555
O28_4 C4_8 1_555 1_555
O29_4 C4_8 1_555 1_555
C4_8 C10_8 1_555 1_555

#END
