
###############################################################################
#
# This file contains modified crystal structure data generated from the
# MOF subset of the Cambridge Structural Database (CSD) v543 
# hosted by the Cambridge Crystallographic Data Centre (CCDC).
#
# This work is licensed under the Creative Commons
# Attribution-NonCommercial-ShareAlike 4.0 International License.
# To view a copy of this license, visit
# http://creativecommons.org/licenses/by-nc-sa/4.0/
# or send a letter to
# Creative Commons, PO Box 1866, Mountain View, CA 94042, USA.
#
# CIF created using the CSD Python API on 29 September 2022
# The structure has been converted into the P1 space group
# The structure has a 3D framework
# The original CSD entry RIGPEE is in the monoclinic crystal system
# The framework has been calculated to contain at least 10.0% void space
# The void calculation uses a probe of radius 1.32A, grid spacing 0.4
# The framework is charged, counterions have been retained in the structure
#
###############################################################################

data_RIGPEE
_chemical_formula_moiety         '(C80 H56 Cu4 N16 O12)n'
_symmetry_cell_setting           triclinic
_symmetry_space_group_name_H-M   'P 1'
_symmetry_Int_Tables_number      1
_space_group_name_Hall           'P 1'
loop_
_symmetry_equiv_pos_site_id
_symmetry_equiv_pos_as_xyz
1 x,y,z
_cell_length_a                   9.930(2)
_cell_length_b                   9.3445(19)
_cell_length_c                   22.717(6)
_cell_angle_alpha                90
_cell_angle_beta                 106.94(3)
_cell_angle_gamma                90
_cell_volume                     2016.47
loop_
_atom_site_label
_atom_site_type_symbol
_atom_site_fract_x
_atom_site_fract_y
_atom_site_fract_z
O1 O 0.3458(9) 0.8644(10) 0.8688(4)
O2 O 0.5202(8) 0.7983(9) 0.8369(4)
O3 O 0.5547(8) 0.9135(9) 0.9227(4)
N1 N 0.4746(11) 0.8630(11) 0.8767(5)
O1_2 O 0.6542(9) 0.3644(10) 0.6312(4)
O2_2 O 0.4798(8) 0.2983(9) 0.6631(4)
O3_2 O 0.4453(8) 0.4135(9) 0.5773(4)
N1_2 N 0.5254(11) 0.3630(11) 0.6233(5)
O1_3 O 0.6542(9) 0.1356(10) 0.1312(4)
O2_3 O 0.4798(8) 0.2017(9) 0.1631(4)
O3_3 O 0.4453(8) 0.0865(9) 0.0773(4)
N1_3 N 0.5254(11) 0.1370(11) 0.1233(5)
O1_4 O 0.3458(9) 0.6356(10) 0.3688(4)
O2_4 O 0.5202(8) 0.7017(9) 0.3369(4)
O3_4 O 0.5547(8) 0.5865(9) 0.4227(4)
N1_4 N 0.4746(11) 0.6370(11) 0.3767(5)
N4 N 0.0857(8) 0.0115(8) 0.8950(4)
Cu2 Cu 0.19384(13) 0.12252(15) 0.84733(5)
N2 N 0.3519(7) 0.2531(8) 0.8862(4)
C1 C 0.3879(9) 0.3703(10) 0.8604(4)
H1 H 0.3306 0.3966 0.8218
C2 C 0.5031(9) 0.4550(10) 0.8867(4)
H2 H 0.5245 0.5319 0.8651
C3 C 0.5892(8) 0.4238(9) 0.9473(4)
C4 C 0.5473(9) 0.3041(10) 0.9737(4)
C5 C 0.4323(11) 0.2224(10) 0.9430(5)
H4 H 0.4100 0.1425 0.9627
C6 C 0.7169(8) 0.5100(9) 0.9778(4)
C7 C 0.7688(9) 0.6186(9) 0.9507(4)
H5 H 0.7227 0.6448 0.9104
C8 C 0.8915(9) 0.6909(9) 0.9835(4)
C11 C 0.9523(9) 0.8046(10) 0.9536(4)
C12 C 0.8812(9) 0.8683(10) 0.8977(4)
H7 H 0.7883 0.8434 0.8780
C13 C 0.9487(10) 0.9686(10) 0.8713(4)
N6 N 0.1124(9) 0.0872(9) 0.7579(4)
N3 N 0.1124(9) 0.4128(9) 0.2579(4)
H6 H 0.0355 0.7003 0.0652
H9 H 0.1433 0.8137 0.0165
C18 C 0.1634(10) 0.5126(12) 0.2280(5)
H12 H 0.2483 0.5548 0.2495
C19 C 0.1029(10) 0.5593(10) 0.1686(4)
H13 H 0.1464 0.6293 0.1514
Cu3 Cu 0.19384(13) 0.37748(15) 0.34733(5)
N4_2 N 0.0857(8) 0.4885(8) 0.3950(4)
H6_2 H 0.0355 0.7997 0.5652
C14 C 0.0904(9) 0.6488(9) 0.4790(4)
H9_2 H 0.1433 0.6863 0.5165
C18_2 C 0.1634(10) 0.9874(12) 0.7280(5)
H12_2 H 0.2483 0.9452 0.7495
C19_2 C 0.1029(10) 0.9407(10) 0.6686(4)
H13_2 H 0.1464 0.8707 0.6514
C20 C 0.1512(9) 0.5480(11) 0.4498(5)
H14 H 0.2431 0.5196 0.4694
N2_2 N 0.3519(7) 0.2469(8) 0.3862(4)
N5 N 0.7823(8) 0.0263(8) 0.5388(3)
C1_2 C 0.3879(9) 0.1297(10) 0.3604(4)
H1_2 H 0.3306 0.1034 0.3218
C2_2 C 0.5031(9) 0.0450(10) 0.3867(4)
C3_2 C 0.5892(8) 0.0762(9) 0.4473(4)
C4_2 C 0.5473(9) 0.1959(10) 0.4737(4)
H3 H 0.5984 0.2219 0.5135
C5_2 C 0.4323(11) 0.2776(10) 0.4430(5)
H4_2 H 0.4100 0.3575 0.4627
C15 C 0.9759(9) 0.0004(10) 0.6351(4)
C16 C 0.9178(9) 0.1015(10) 0.6642(4)
H10 H 0.8311 0.1421 0.6441
C17 C 0.9890(12) 0.1429(12) 0.7238(5)
H11 H 0.9486 0.2145 0.7415
C14_2 C 0.0904(9) 0.8512(9) 0.9790(4)
C20_2 C 0.1512(9) 0.9520(11) 0.9498(5)
H14_2 H 0.2431 0.9804 0.9694
H8 H 0.8966 0.0102 0.8346
N5_2 N 0.7823(8) 0.4737(8) 0.0388(3)
H3_2 H 0.5984 0.2781 0.0135
C9 C 0.9549(7) 0.6521(8) 0.0428(4)
C10 C 0.9037(9) 0.5455(9) 0.0699(4)
C15_2 C 0.9759(9) 0.4996(10) 0.1351(4)
C16_2 C 0.9178(9) 0.3985(10) 0.1642(4)
H10_2 H 0.8311 0.3579 0.1441
C17_2 C 0.9890(12) 0.3571(12) 0.2238(5)
H11_2 H 0.9486 0.2855 0.2415
H2_2 H 0.4755 0.0319 0.6349
C6_2 C 0.2831(8) 0.0100(9) 0.5222(4)
C7_2 C 0.2312(9) 0.1186(9) 0.5493(4)
H5_2 H 0.2773 0.1448 0.5896
C8_2 C 0.1085(9) 0.1909(9) 0.5165(4)
C9_2 C 0.0451(7) 0.1521(8) 0.4572(4)
C10_2 C 0.0963(9) 0.0455(9) 0.4301(4)
C11_2 C 0.0477(9) 0.3046(10) 0.5464(4)
C12_2 C 0.1188(9) 0.3683(10) 0.6023(4)
H7_2 H 0.2117 0.3434 0.6220
C13_2 C 0.0513(10) 0.4686(10) 0.6287(4)
H8_2 H 0.1034 0.5102 0.6654
Cu1 Cu 0.80616(13) 0.62252(15) 0.65267(5)
N2_3 N 0.6481(7) 0.7531(8) 0.6138(4)
N5_3 N 0.2177(8) 0.9737(8) 0.4612(3)
C1_3 C 0.6121(9) 0.8703(10) 0.6396(4)
H1_3 H 0.6694 0.8966 0.6782
C2_3 C 0.4969(9) 0.9550(10) 0.6133(4)
C3_3 C 0.4108(8) 0.9238(9) 0.5527(4)
C4_3 C 0.4527(9) 0.8041(10) 0.5263(4)
H3_3 H 0.4016 0.7781 0.4865
C5_3 C 0.5677(11) 0.7224(10) 0.5570(5)
H4_3 H 0.5900 0.6425 0.5373
C15_3 C 0.0241(9) 0.9996(10) 0.3649(4)
C16_3 C 0.0822(9) 0.8985(10) 0.3358(4)
H10_3 H 0.1689 0.8579 0.3559
C17_3 C 0.0110(12) 0.8571(12) 0.2762(5)
H11_3 H 0.0514 0.7855 0.2585
N6_2 N 0.8876(9) 0.5872(9) 0.7421(4)
N7 N 0.9143(8) 0.5115(8) 0.6050(4)
H6_3 H 0.9645 0.2003 0.4348
C14_3 C 0.9096(9) 0.3512(9) 0.5210(4)
H9_3 H 0.8567 0.3137 0.4835
C18_3 C 0.8366(10) 0.0126(12) 0.2720(5)
H12_3 H 0.7517 0.0548 0.2505
C19_3 C 0.8971(10) 0.0593(10) 0.3314(4)
H13_3 H 0.8536 0.1293 0.3486
C20_3 C 0.8488(9) 0.4520(11) 0.5502(5)
H14_3 H 0.7569 0.4804 0.5306
H6_4 H 0.9645 0.2997 0.9348
H9_4 H 0.8567 0.1863 0.9835
C18_4 C 0.8366(10) 0.4874(12) 0.7720(5)
H12_4 H 0.7517 0.4452 0.7505
C19_4 C 0.8971(10) 0.4407(10) 0.8314(4)
H13_4 H 0.8536 0.3707 0.8486
N3_2 N 0.8876(9) 0.9128(9) 0.2421(4)
Cu3_2 Cu 0.80616(13) 0.87748(15) 0.15267(5)
N2_4 N 0.6481(7) 0.7469(8) 0.1138(4)
C1_4 C 0.6121(9) 0.6297(10) 0.1396(4)
H1_4 H 0.6694 0.6034 0.1782
C2_4 C 0.4969(9) 0.5450(10) 0.1133(4)
H2_3 H 0.4755 0.4681 0.1349
C3_4 C 0.4108(8) 0.5762(9) 0.0527(4)
C4_4 C 0.4527(9) 0.6959(10) 0.0263(4)
C5_4 C 0.5677(11) 0.7776(10) 0.0570(5)
H4_4 H 0.5900 0.8575 0.0373
C6_3 C 0.2831(8) 0.4900(9) 0.0222(4)
C7_3 C 0.2312(9) 0.3814(9) 0.0493(4)
H5_3 H 0.2773 0.3552 0.0896
C8_3 C 0.1085(9) 0.3091(9) 0.0165(4)
C11_3 C 0.0477(9) 0.1954(10) 0.0464(4)
C12_3 C 0.1188(9) 0.1317(10) 0.1023(4)
H7_3 H 0.2117 0.1566 0.1220
C13_3 C 0.0513(10) 0.0314(10) 0.1287(4)
N7_2 N 0.9143(8) 0.9885(8) 0.1050(4)
N5_4 N 0.2177(8) 0.5263(8) 0.9612(3)
H3_4 H 0.4016 0.7219 0.9865
C9_3 C 0.0451(7) 0.3479(8) 0.9572(4)
C10_3 C 0.0963(9) 0.4545(9) 0.9301(4)
C15_4 C 0.0241(9) 0.5004(10) 0.8649(4)
C16_4 C 0.0822(9) 0.6015(10) 0.8358(4)
H10_4 H 0.1689 0.6421 0.8559
C17_4 C 0.0110(12) 0.6429(12) 0.7762(5)
H11_4 H 0.0514 0.7145 0.7585
H8_3 H 0.1034 0.9898 0.1654
C14_4 C 0.9096(9) 0.1488(9) 0.0210(4)
C20_4 C 0.8488(9) 0.0480(11) 0.0502(5)
H14_4 H 0.7569 0.0196 0.0306
H2_4 H 0.5245 0.9681 0.3651
C6_4 C 0.7169(8) 0.9900(9) 0.4778(4)
C7_4 C 0.7688(9) 0.8814(9) 0.4507(4)
H5_4 H 0.7227 0.8552 0.4104
C8_4 C 0.8915(9) 0.8091(9) 0.4835(4)
C9_4 C 0.9549(7) 0.8479(8) 0.5428(4)
C10_4 C 0.9037(9) 0.9545(9) 0.5699(4)
C11_4 C 0.9523(9) 0.6954(10) 0.4536(4)
C12_4 C 0.8812(9) 0.6317(10) 0.3977(4)
H7_4 H 0.7883 0.6566 0.3780
C13_4 C 0.9487(10) 0.5314(10) 0.3713(4)
H8_4 H 0.8966 0.4898 0.3346
loop_
_geom_bond_atom_site_label_1
_geom_bond_atom_site_label_2
_geom_bond_site_symmetry_1
_geom_bond_site_symmetry_2
O1 N1 1_555 1_555
O2 N1 1_555 1_555
O3 N1 1_555 1_555
O1_2 N1_2 1_555 1_555
O2_2 N1_2 1_555 1_555
O3_2 N1_2 1_555 1_555
O1_3 N1_3 1_555 1_555
O2_3 N1_3 1_555 1_555
O3_3 N1_3 1_555 1_555
O1_4 N1_4 1_555 1_555
O2_4 N1_4 1_555 1_555
O3_4 N1_4 1_555 1_555
Cu2 N4 1_555 1_555
Cu2 N2 1_555 1_555
N2 C1 1_555 1_555
C1 H1 1_555 1_555
C2 C1 1_555 1_555
H2 C2 1_555 1_555
C3 C2 1_555 1_555
C4 C3 1_555 1_555
C5 N2 1_555 1_555
H4 C5 1_555 1_555
C6 C3 1_555 1_555
C7 C6 1_555 1_555
H5 C7 1_555 1_555
C8 C7 1_555 1_555
C11 C8 1_555 1_555
C12 C11 1_555 1_555
H7 C12 1_555 1_555
C13 C12 1_555 1_555
N6 Cu2 1_555 1_555
C4 C5 1_555 1_555
C18 N3 1_555 1_555
H12 C18 1_555 1_555
H13 C19 1_555 1_555
Cu3 N3 1_555 1_555
C18 C19 1_555 1_555
H9_2 C14 1_555 1_555
H12_2 C18_2 1_555 1_555
H13_2 C19_2 1_555 1_555
C20 N4_2 1_555 1_555
H14 C20 1_555 1_555
Cu3 N4_2 1_555 1_555
C14 C20 1_555 1_555
C18_2 C19_2 1_555 1_555
Cu3 N2_2 1_555 1_555
N2_2 C1_2 1_555 1_555
C1_2 H1_2 1_555 1_555
C2_2 C1_2 1_555 1_555
C3_2 C2_2 1_555 1_555
C4_2 C3_2 1_555 1_555
H3 C4_2 1_555 1_555
C5_2 N2_2 1_555 1_555
H4_2 C5_2 1_555 1_555
C16 C15 1_555 1_555
H10 C16 1_555 1_555
C17 C16 1_555 1_555
H11 C17 1_555 1_555
C4_2 C5_2 1_555 1_555
H14_2 C20_2 1_555 1_555
C14_2 C20_2 1_555 1_555
C10 N5_2 1_555 1_555
C15_2 C10 1_555 1_555
C16_2 C15_2 1_555 1_555
H10_2 C16_2 1_555 1_555
C17_2 C16_2 1_555 1_555
H11_2 C17_2 1_555 1_555
C9 C10 1_555 1_555
C7_2 C6_2 1_555 1_555
H5_2 C7_2 1_555 1_555
C8_2 C7_2 1_555 1_555
C9_2 C8_2 1_555 1_555
C11_2 C8_2 1_555 1_555
C12_2 C11_2 1_555 1_555
H7_2 C12_2 1_555 1_555
C13_2 C12_2 1_555 1_555
H8_2 C13_2 1_555 1_555
C9_2 C10_2 1_555 1_555
Cu1 N2_3 1_555 1_555
N2_3 C1_3 1_555 1_555
C1_3 H1_3 1_555 1_555
C2_3 C1_3 1_555 1_555
C3_3 C2_3 1_555 1_555
C4_3 C3_3 1_555 1_555
H3_3 C4_3 1_555 1_555
C5_3 N2_3 1_555 1_555
H4_3 C5_3 1_555 1_555
C16_3 C15_3 1_555 1_555
H10_3 C16_3 1_555 1_555
C17_3 C16_3 1_555 1_555
H11_3 C17_3 1_555 1_555
N6_2 Cu1 1_555 1_555
N7 Cu1 1_555 1_555
C4_3 C5_3 1_555 1_555
H9_3 C14_3 1_555 1_555
H12_3 C18_3 1_555 1_555
H13_3 C19_3 1_555 1_555
C20_3 N7 1_555 1_555
H14_3 C20_3 1_555 1_555
C14_3 C20_3 1_555 1_555
C18_3 C19_3 1_555 1_555
C18_4 N6_2 1_555 1_555
H12_4 C18_4 1_555 1_555
H13_4 C19_4 1_555 1_555
C18_4 C19_4 1_555 1_555
Cu3_2 N3_2 1_555 1_555
Cu3_2 N2_4 1_555 1_555
N2_4 C1_4 1_555 1_555
C1_4 H1_4 1_555 1_555
C2_4 C1_4 1_555 1_555
H2_3 C2_4 1_555 1_555
C3_4 C2_4 1_555 1_555
C4_4 C3_4 1_555 1_555
C5_4 N2_4 1_555 1_555
H4_4 C5_4 1_555 1_555
C6_3 C3_4 1_555 1_555
C7_3 C6_3 1_555 1_555
H5_3 C7_3 1_555 1_555
C8_3 C7_3 1_555 1_555
C11_3 C8_3 1_555 1_555
C12_3 C11_3 1_555 1_555
H7_3 C12_3 1_555 1_555
C13_3 C12_3 1_555 1_555
N7_2 Cu3_2 1_555 1_555
C4_4 C5_4 1_555 1_555
C10_3 N5_4 1_555 1_555
C15_4 C10_3 1_555 1_555
C16_4 C15_4 1_555 1_555
H10_4 C16_4 1_555 1_555
C17_4 C16_4 1_555 1_555
H11_4 C17_4 1_555 1_555
C9_3 C10_3 1_555 1_555
H14_4 C20_4 1_555 1_555
C14_4 C20_4 1_555 1_555
C7_4 C6_4 1_555 1_555
H5_4 C7_4 1_555 1_555
C8_4 C7_4 1_555 1_555
C9_4 C8_4 1_555 1_555
C11_4 C8_4 1_555 1_555
C12_4 C11_4 1_555 1_555
H7_4 C12_4 1_555 1_555
C13_4 C12_4 1_555 1_555
H8_4 C13_4 1_555 1_555
C9_4 C10_4 1_555 1_555

#END
