
###############################################################################
#
# This file contains modified crystal structure data generated from the
# MOF subset of the Cambridge Structural Database (CSD) v543 
# hosted by the Cambridge Crystallographic Data Centre (CCDC).
#
# This work is licensed under the Creative Commons
# Attribution-NonCommercial-ShareAlike 4.0 International License.
# To view a copy of this license, visit
# http://creativecommons.org/licenses/by-nc-sa/4.0/
# or send a letter to
# Creative Commons, PO Box 1866, Mountain View, CA 94042, USA.
#
# CIF created using the CSD Python API on 29 September 2022
# The structure has been converted into the P1 space group
# The structure has a 3D framework
# The original CSD entry RIGPAB is in the orthorhombic crystal system
# The original CSD entry RIGPAB is in a Sohncke space group
# The framework has been calculated to contain at least 10.0% void space
# The void calculation uses a probe of radius 1.32A, grid spacing 0.4
# H atom positions have been added when not included in the experimental data
#
###############################################################################

data_RIGPAB
_chemical_formula_moiety         '(C440 H336 Li16 N16 O112 Zn16)n'
_symmetry_cell_setting           triclinic
_symmetry_space_group_name_H-M   'P 1'
_symmetry_Int_Tables_number      1
_space_group_name_Hall           'P 1'
loop_
_symmetry_equiv_pos_site_id
_symmetry_equiv_pos_as_xyz
1 x,y,z
_cell_length_a                   17.7770(5)
_cell_length_b                   17.7867(6)
_cell_length_c                   50.5141(11)
_cell_angle_alpha                90
_cell_angle_beta                 90
_cell_angle_gamma                90
_cell_volume                     15972.3
loop_
_atom_site_label
_atom_site_type_symbol
_atom_site_fract_x
_atom_site_fract_y
_atom_site_fract_z
Zn3 Zn 0.75794(12) 0.11094(12) 0.38193(3)
O17 O 0.8121(8) 0.0530(8) 0.3297(2)
O18 O 0.7536(7) 0.1548(7) 0.3480(2)
C43 C 0.7775(11) 0.1171(11) 0.3287(3)
C44 C 0.7654(10) 0.1543(10) 0.3011(3)
C45 C 0.7708(12) 0.1036(11) 0.2791(3)
H25 H 0.7821 0.0520 0.2817
C46 C 0.7584(12) 0.1336(10) 0.2529(3)
H26 H 0.7604 0.1025 0.2376
C47 C 0.7431(12) 0.2118(10) 0.2509(3)
C48 C 0.7423(13) 0.2582(12) 0.2742(3)
H27 H 0.7310 0.3102 0.2726
C49 C 0.7574(14) 0.2287(11) 0.2988(3)
H28 H 0.7620 0.2605 0.3138
C50 C 0.7235(11) 0.2479(10) 0.2247(3)
C51 C 0.7640(12) 0.2222(10) 0.2028(3)
H29 H 0.7981 0.1812 0.2041
C52 C 0.7519(11) 0.2595(9) 0.1789(3)
H30 H 0.7750 0.2407 0.1633
C53 C 0.7066(9) 0.3239(9) 0.1772(3)
C54 C 0.6708(11) 0.3474(10) 0.2002(3)
H31 H 0.6398 0.3910 0.2004
C55 C 0.6832(14) 0.3010(12) 0.2246(3)
H32 H 0.6580 0.3145 0.2405
C56 C 0.6978(9) 0.3680(8) 0.1529(3)
O19 O 0.7393(6) 0.3513(5) 0.13355(17)
O20 O 0.6527(6) 0.4212(6) 0.15323(16)
O27 O 0.6865(6) 0.0347(6) 0.3874(2)
Zn9 Zn 0.64124(12) 0.51126(12) 0.13241(3)
Li7 Li 0.7756(13) 0.4151(12) 0.1056(4)
O29 O 0.9169(6) 0.0121(6) 0.3821(2)
O30 O 0.8455(6) 0.0981(7) 0.4024(2)
N5 N 0.7029(8) 0.1888(9) 0.4048(2)
Zn1 Zn 0.26110(12) 0.41188(12) 0.38057(3)
Zn2 Zn 0.34074(13) 0.00781(13) 0.13143(3)
Li1 Li 0.1618(14) 0.5453(14) 0.3538(5)
Li2 Li 0.2082(13) 0.1059(13) 0.1036(4)
Li3 Li 0.8515(12) 0.9788(13) 0.3540(4)
O1 O 0.1023(10) 0.6102(9) 0.3311(3)
O2 O 0.1373(8) 0.1569(8) 0.0844(3)
O3 O 0.9075(10) 0.9074(10) 0.3316(3)
O5 O 0.1022(6) 0.5113(6) 0.38191(19)
O6 O 0.1720(7) 0.4183(7) 0.4004(2)
C1 C 0.1169(9) 0.4659(10) 0.4013(3)
C2 C 0.0683(10) 0.4694(10) 0.4252(3)
C3 C 0.0089(10) 0.5127(10) 0.4277(3)
C6 C 0.0551(11) 0.4215(11) 0.4690(3)
H3 H 0.0689 0.3860 0.4822
C7 C 0.0883(11) 0.4214(10) 0.4467(3)
H4 H 0.1289 0.3874 0.4442
H7 H 0.0006 0.4762 0.5630
C13 C 0.0036(11) 0.4802(13) 0.5244(3)
H8 H 0.0564 0.4727 0.5232
O9 O 0.1975(8) 0.4643(8) 0.3301(2)
O10 O 0.2639(7) 0.3652(7) 0.3464(2)
C15 C 0.2345(10) 0.4030(9) 0.3276(3)
C16 C 0.2431(11) 0.3726(11) 0.2997(3)
C17 C 0.2334(14) 0.4166(11) 0.2774(3)
H9 H 0.2211 0.4683 0.2791
C18 C 0.2415(16) 0.3857(11) 0.2530(4)
H10 H 0.2346 0.4174 0.2381
C19 C 0.2585(9) 0.3137(9) 0.2486(3)
C20 C 0.2685(11) 0.2667(10) 0.2716(3)
H11 H 0.2835 0.2157 0.2696
C21 C 0.2561(12) 0.2968(11) 0.2966(3)
H12 H 0.2565 0.2648 0.3116
C22 C 0.2716(10) 0.2730(10) 0.2218(3)
C23 C 0.2274(10) 0.2964(9) 0.2024(3)
H13 H 0.1934 0.3371 0.2046
C24 C 0.2337(10) 0.2579(9) 0.1788(3)
H14 H 0.2028 0.2728 0.1644
C25 C 0.2832(9) 0.1986(9) 0.1751(3)
C26 C 0.3257(11) 0.1774(11) 0.1964(3)
H15 H 0.3584 0.1354 0.1948
C27 C 0.3221(11) 0.2174(10) 0.2214(3)
H16 H 0.3529 0.2052 0.2362
C28 C 0.2844(9) 0.1523(9) 0.1504(3)
O11 O 0.2450(6) 0.1670(6) 0.13199(19)
O12 O 0.3334(7) 0.1003(7) 0.1523(2)
O13 O 0.2868(8) 0.0607(8) 0.0808(2)
O14 O 0.3880(7) 0.0075(8) 0.0960(2)
C29 C 0.3483(9) 0.0350(9) 0.0773(3)
C30 C 0.3835(10) 0.0216(10) 0.0499(3)
C31 C 0.3402(10) 0.0207(11) 0.0288(3)
H17 H 0.2876 0.0280 0.0309
C32 C 0.3690(10) 0.0093(12) 0.0031(3)
C35 C 0.4595(11) 0.0093(12) 0.0482(3)
H20 H 0.4901 0.0084 0.0636
O24 O 0.1713(8) 0.0189(7) 0.1219(2)
O25 O 0.2480(8) 0.5767(8) 0.3723(2)
O26 O 0.3334(6) 0.4938(6) 0.3849(2)
C71 C 0.3123(10) 0.5626(9) 0.3802(3)
C72 C 0.3711(8) 0.6202(8) 0.3851(3)
C73 C 0.3504(9) 0.6955(10) 0.3809(4)
H41 H 0.3007 0.7090 0.3759
C74 C 0.4053(8) 0.7484(9) 0.3843(4)
H42 H 0.3915 0.7998 0.3827
C75 C 0.4791(7) 0.7321(8) 0.3900(3)
C76 C 0.4952(8) 0.6547(8) 0.3937(3)
H43 H 0.5441 0.6393 0.3990
C77 C 0.4441(8) 0.6061(8) 0.3899(3)
H44 H 0.4589 0.5548 0.3905
C78 C 0.5380(8) 0.7906(8) 0.3903(3)
C79 C 0.5206(8) 0.8672(8) 0.3953(3)
H45 H 0.4707 0.8809 0.4000
C80 C 0.5741(8) 0.9207(8) 0.3933(3)
H46 H 0.5600 0.9718 0.3955
C81 C 0.6489(9) 0.9042(10) 0.3881(4)
C82 C 0.6652(8) 0.8298(10) 0.3837(4)
H47 H 0.7154 0.8155 0.3798
C83 C 0.6088(8) 0.7742(9) 0.3849(3)
H48 H 0.6222 0.7233 0.3816
C84 C 0.7036(8) 0.9659(9) 0.3825(3)
O28 O 0.7668(6) 0.9430(7) 0.3727(2)
N1 N 0.3154(8) 0.3352(8) 0.4042(3)
C85 C 0.3526(11) 0.2769(11) 0.3969(3)
H49 H 0.3477 0.2606 0.3791
C86 C 0.3993(12) 0.2366(11) 0.4136(3)
H50 H 0.4276 0.1959 0.4066
C87 C 0.4060(13) 0.2540(12) 0.4402(3)
C88 C 0.3589(13) 0.3072(13) 0.4469(4)
H51 H 0.3531 0.3161 0.4653
C89 C 0.3182(11) 0.3503(12) 0.4309(3)
H52 H 0.2909 0.3916 0.4379
C90 C 0.4619(13) 0.2139(12) 0.4582(3)
H53 H 0.4334 0.1801 0.4701
H54 H 0.4947 0.1819 0.4470
C91 C 0.5081(13) 0.2602(12) 0.4738(4)
H55 H 0.5382 0.2280 0.4858
H56 H 0.4756 0.2924 0.4850
C92 C 0.5591(13) 0.3082(14) 0.4590(4)
H57 H 0.5909 0.3365 0.4716
H58 H 0.5292 0.3451 0.4488
C93 C 0.6087(13) 0.2663(15) 0.4404(4)
C94 C 0.6157(11) 0.2818(12) 0.4140(3)
H59 H 0.5881 0.3231 0.4071
C95 C 0.6580(12) 0.2433(12) 0.3978(3)
H60 H 0.6560 0.2559 0.3795
C96 C 0.7041(11) 0.1739(12) 0.4320(3)
H61 H 0.7357 0.1351 0.4386
C97 C 0.6589(12) 0.2157(14) 0.4500(3)
H62 H 0.6638 0.2083 0.4685
H77 H 0.9484 0.93441 0.322176
H78 H 0.929538 0.867291 0.342862
H81 H 0.160019 0.203246 0.0769032
H82 H 0.118846 0.124448 0.0697821
H83 H 0.0838898 0.6539 0.341477
H84 H 0.133846 0.62828 0.316178
H18 H 0.3371 0.0099 0.9880
C37 C 0.4544(9) 0.0138(9) 0.9496(3)
H21 H 0.4105 0.0443 0.9490
C38 C 0.4916(8) 0.0022(9) 0.9269(3)
H22 H 0.4753 0.0252 0.9109
Li5 Li 0.6485(12) 0.0212(13) 0.8540(4)
C33 C 0.4462(9) 0.9969(11) 0.0008(3)
C34 C 0.4906(10) 0.9981(10) 0.0231(3)
H19 H 0.5434 0.9913 0.0213
H34 H 0.0300 0.6435 0.1357
C64 C 0.0206(8) 0.7893(8) 0.1419(3)
C65 C 0.0938(8) 0.7726(9) 0.1462(3)
H37 H 0.1062 0.7231 0.1518
C66 C 0.1525(7) 0.8248(8) 0.1428(3)
H38 H 0.2037 0.8119 0.1457
C67 C 0.1306(9) 0.8973(9) 0.1349(3)
C68 C 0.0607(9) 0.9154(10) 0.1334(3)
H39 H 0.0486 0.9665 0.1299
C69 C 0.0024(10) 0.8653(9) 0.1364(4)
C70 C 0.1943(10) 0.9527(10) 0.1298(3)
O23 O 0.2605(7) 0.9338(6) 0.1342(3)
N3 N 0.5620(8) 0.5639(9) 0.1565(2)
C98 C 0.5092(10) 0.6098(11) 0.1475(3)
H63 H 0.5020 0.6130 0.1289
C99 C 0.4648(12) 0.6527(13) 0.1633(3)
H64 H 0.4222 0.6778 0.1562
C100 C 0.4825(12) 0.6598(11) 0.1909(3)
C101 C 0.5395(14) 0.6120(12) 0.1997(3)
H65 H 0.5514 0.6119 0.2181
C102 C 0.5790(14) 0.5651(13) 0.1833(3)
H66 H 0.6177 0.5339 0.1902
C103 C 0.4440(14) 0.7049(14) 0.2110(4)
H67 H 0.4206 0.6711 0.2242
H68 H 0.4034 0.7344 0.2024
C104 C 0.4985(13) 0.7593(12) 0.2253(5)
H69 H 0.5347 0.7289 0.2356
H70 H 0.4690 0.7895 0.2381
C105 C 0.5438(13) 0.8142(12) 0.2075(4)
H71 H 0.5754 0.8462 0.2191
H72 H 0.5780 0.7843 0.1962
C106 C 0.4978(12) 0.8639(11) 0.1902(4)
C107 C 0.5161(11) 0.8654(12) 0.1626(4)
H73 H 0.5530 0.8331 0.1551
C108 C 0.4775(11) 0.9160(12) 0.1479(4)
H74 H 0.4977 0.9248 0.1308
C109 C 0.3988(14) 0.9466(14) 0.1807(4)
H75 H 0.3588 0.9762 0.1876
C110 C 0.4323(14) 0.9019(14) 0.1980(4)
H76 H 0.4124 0.8957 0.2153
N4 N 0.4135(8) 0.9569(8) 0.1537(3)
C36 C 0.4763(9) 0.9830(10) 0.9756(3)
C39 C 0.5540(8) 0.9560(9) 0.9272(3)
C40 C 0.5745(9) 0.9198(10) 0.9501(3)
H23 H 0.6145 0.8844 0.9492
C41 C 0.5440(10) 0.9303(11) 0.9721(3)
H24 H 0.5633 0.9048 0.9872
C42 C 0.6005(8) 0.9486(8) 0.9013(3)
O15 O 0.5831(6) 0.9879(6) 0.8821(2)
O16 O 0.6545(6) 0.9019(7) 0.9024(2)
Zn6 Zn 0.74206(12) 0.88906(12) 0.88193(3)
Zn4 Zn 0.85876(12) 0.48874(12) 0.63241(3)
Li4 Li 0.7244(13) 0.5849(12) 0.6056(4)
O4 O 0.6518(8) 0.6423(7) 0.5859(2)
H1 H 0.9921 0.5407 0.4128
C4 C 0.9697(9) 0.5190(9) 0.4516(3)
H2 H 0.9268 0.5508 0.4528
C5 C 0.9940(10) 0.4776(11) 0.4745(3)
C8 C 0.9598(10) 0.4858(11) 0.5011(3)
C9 C 0.8873(11) 0.5074(14) 0.5055(3)
H5 H 0.8564 0.5177 0.4906
C10 C 0.8564(11) 0.5149(14) 0.5305(3)
H6 H 0.8051 0.5289 0.5322
C11 C 0.8959(10) 0.5032(9) 0.5513(3)
C12 C 0.9708(11) 0.4854(11) 0.5477(3)
C14 C 0.8631(10) 0.5178(9) 0.5793(3)
O7 O 0.8053(8) 0.5464(7) 0.5813(2)
O8 O 0.9029(7) 0.4853(7) 0.5975(2)
O31 O 0.7607(6) 0.6487(5) 0.63355(17)
O32 O 0.8473(6) 0.5788(6) 0.65323(16)
O33 O 0.6929(7) 0.4976(6) 0.6228(3)
O34 O 0.7745(6) 0.4190(7) 0.6360(3)
N6 N 0.9380(8) 0.4361(9) 0.6565(2)
H79 H 0.628566 0.6099 0.572137
H80 H 0.612165 0.661008 0.598085
O21 O 0.8071(7) 0.5024(6) 0.1228(3)
O22 O 0.7255(6) 0.5810(7) 0.1360(3)
C57 C 0.7908(9) 0.5621(9) 0.1323(3)
C58 C 0.8478(8) 0.6216(8) 0.1355(2)
C59 C 0.9217(9) 0.6044(9) 0.1319(4)
H33 H 0.9351 0.5552 0.1263
C60 C 0.9785(8) 0.6577(8) 0.1364(3)
C61 C 0.9585(8) 0.7309(7) 0.1417(2)
C62 C 0.8869(9) 0.7487(9) 0.1472(4)
H35 H 0.8744 0.7975 0.1534
C63 C 0.8311(9) 0.6945(8) 0.1437(3)
H36 H 0.7802 0.7078 0.1470
H40 H 0.9515 0.8811 0.1348
C33_2 C 0.0538(9) 0.0031(11) 0.5008(3)
C34_2 C 0.0094(10) 0.0019(10) 0.5231(3)
C36_2 C 0.0237(9) 0.0170(10) 0.4756(3)
C57_2 C 0.7092(9) 0.4379(9) 0.6323(3)
C58_2 C 0.6522(8) 0.3784(8) 0.6355(2)
C59_2 C 0.5783(9) 0.3956(9) 0.6319(4)
H33_2 H 0.5649 0.4448 0.6263
C60_2 C 0.5215(8) 0.3423(8) 0.6364(3)
H34_2 H 0.4700 0.3565 0.6357
C61_2 C 0.5415(8) 0.2691(7) 0.6417(2)
C62_2 C 0.6131(9) 0.2513(9) 0.6472(4)
H35_2 H 0.6256 0.2025 0.6534
C63_2 C 0.6689(9) 0.3055(8) 0.6437(3)
H36_2 H 0.7198 0.2922 0.6470
C64_2 C 0.4794(8) 0.2107(8) 0.6419(3)
C65_2 C 0.4062(8) 0.2274(9) 0.6462(3)
H37_2 H 0.3938 0.2769 0.6518
C66_2 C 0.3475(7) 0.1752(8) 0.6428(3)
H38_2 H 0.2963 0.1881 0.6457
C67_2 C 0.3694(9) 0.1027(9) 0.6349(3)
C68_2 C 0.4393(9) 0.0846(10) 0.6334(3)
H39_2 H 0.4514 0.0335 0.6299
C69_2 C 0.4976(10) 0.1347(9) 0.6364(4)
H40_2 H 0.5485 0.1189 0.6348
C70_2 C 0.3057(10) 0.0473(10) 0.6298(3)
O23_2 O 0.2395(7) 0.0662(6) 0.6342(3)
C99_2 C 0.0352(12) 0.3473(13) 0.6633(3)
H64_2 H 0.0778 0.3222 0.6562
C100_2 C 0.0175(12) 0.3402(11) 0.6909(3)
C103_2 C 0.0560(14) 0.2951(14) 0.7110(4)
H67_2 H 0.0794 0.3289 0.7242
H68_2 H 0.0966 0.2656 0.7024
C104_2 C 0.0015(13) 0.2407(12) 0.7253(5)
H70_2 H 0.0310 0.2105 0.7381
C106_2 C 0.0022(12) 0.1361(11) 0.6902(4)
C108_2 C 0.0225(11) 0.0840(12) 0.6479(4)
H74_2 H 0.0023 0.0752 0.6308
C109_2 C 0.1012(14) 0.0534(14) 0.6807(4)
H75_2 H 0.1412 0.0238 0.6876
C110_2 C 0.0677(14) 0.0981(14) 0.6980(4)
H76_2 H 0.0876 0.1043 0.7153
N4_2 N 0.0865(8) 0.0431(8) 0.6537(3)
O4_2 O 0.8482(8) 0.3577(7) 0.0859(2)
C8_2 C 0.5402(10) 0.5142(11) 0.0011(3)
C9_2 C 0.6127(11) 0.4926(14) 0.0055(3)
C10_2 C 0.6436(11) 0.4851(14) 0.0305(3)
H6_2 H 0.6949 0.4711 0.0322
C11_2 C 0.6041(10) 0.4968(9) 0.0513(3)
C12_2 C 0.5292(11) 0.5146(11) 0.0477(3)
H7_2 H 0.4994 0.5238 0.0630
C13_2 C 0.4964(11) 0.5198(13) 0.0244(3)
H8_2 H 0.4436 0.5273 0.0232
C14_2 C 0.6369(10) 0.4822(9) 0.0793(3)
O7_2 O 0.6947(8) 0.4536(7) 0.0813(2)
O8_2 O 0.5971(7) 0.5147(7) 0.0975(2)
H79_2 H 0.871434 0.3901 0.0721368
H80_2 H 0.887835 0.338992 0.0980853
H19_2 H 0.9566 0.0087 0.5213
C39_2 C 0.9460(8) 0.0440(9) 0.4272(3)
C40_2 C 0.9255(9) 0.0802(10) 0.4501(3)
H23_2 H 0.8855 0.1156 0.4492
C41_2 C 0.9560(10) 0.0697(11) 0.4721(3)
H24_2 H 0.9367 0.0952 0.4872
C42_2 C 0.8995(8) 0.0514(8) 0.4013(3)
C98_2 C 0.9908(10) 0.3902(11) 0.6475(3)
H63_2 H 0.9980 0.3870 0.6289
C101_2 C 0.9605(14) 0.3880(12) 0.6997(3)
H65_2 H 0.9486 0.3881 0.7181
C102_2 C 0.9210(14) 0.4349(13) 0.6833(3)
H66_2 H 0.8823 0.4661 0.6902
H69_2 H 0.9653 0.2711 0.7356
C105_2 C 0.9562(13) 0.1858(12) 0.7075(4)
H71_2 H 0.9246 0.1538 0.7191
H72_2 H 0.9220 0.2157 0.6962
C107_2 C 0.9839(11) 0.1346(12) 0.6626(4)
H73_2 H 0.9470 0.1669 0.6551
O3_2 O 0.5925(10) 0.0926(10) 0.8316(3)
H43_2 H 0.9559 0.3607 0.8990
C78_2 C 0.9620(8) 0.2094(8) 0.8903(3)
C79_2 C 0.9794(8) 0.1328(8) 0.8953(3)
C80_2 C 0.9259(8) 0.0793(8) 0.8933(3)
H46_2 H 0.9400 0.0282 0.8955
C81_2 C 0.8511(9) 0.0958(10) 0.8881(4)
C82_2 C 0.8348(8) 0.1702(10) 0.8837(4)
H47_2 H 0.7846 0.1845 0.8798
C83_2 C 0.8912(8) 0.2258(9) 0.8849(3)
H48_2 H 0.8778 0.2767 0.8816
C84_2 C 0.7964(8) 0.0341(9) 0.8825(3)
O28_2 O 0.7332(6) 0.0570(7) 0.8727(2)
C91_2 C 0.9919(13) 0.7398(12) 0.9738(4)
H55_2 H 0.9618 0.7720 0.9858
C92_2 C 0.9409(13) 0.6918(14) 0.9590(4)
H57_2 H 0.9091 0.6635 0.9716
H58_2 H 0.9708 0.6549 0.9488
C93_2 C 0.8913(13) 0.7337(15) 0.9404(4)
C94_2 C 0.8843(11) 0.7182(12) 0.9140(3)
H59_2 H 0.9119 0.6769 0.9071
C95_2 C 0.8420(12) 0.7567(12) 0.8978(3)
H60_2 H 0.8440 0.7441 0.8795
C96_2 C 0.7959(11) 0.8261(12) 0.9320(3)
H61_2 H 0.7643 0.8649 0.9386
C97_2 C 0.8411(12) 0.7843(14) 0.9500(3)
H62_2 H 0.8362 0.7917 0.9685
N2 N 0.7971(8) 0.8112(9) 0.9048(2)
H77_2 H 0.5516 0.0655903 0.822176
H78_2 H 0.570462 0.132709 0.842862
O17_2 O 0.6879(8) 0.9470(8) 0.8297(2)
O18_2 O 0.7464(7) 0.8452(7) 0.8480(2)
C43_2 C 0.7225(11) 0.8829(11) 0.8287(3)
C44_2 C 0.7346(10) 0.8457(10) 0.8011(3)
C45_2 C 0.7292(12) 0.8964(11) 0.7791(3)
H25_2 H 0.7179 0.9480 0.7817
C46_2 C 0.7416(12) 0.8664(10) 0.7529(3)
H26_2 H 0.7396 0.8975 0.7376
C47_2 C 0.7569(12) 0.7882(10) 0.7509(3)
C48_2 C 0.7577(13) 0.7418(12) 0.7742(3)
H27_2 H 0.7690 0.6898 0.7726
C49_2 C 0.7426(14) 0.7713(11) 0.7988(3)
H28_2 H 0.7380 0.7395 0.8138
C50_2 C 0.7765(11) 0.7521(10) 0.7247(3)
C51_2 C 0.7360(12) 0.7778(10) 0.7028(3)
H29_2 H 0.7019 0.8188 0.7041
C52_2 C 0.7481(11) 0.7405(9) 0.6789(3)
H30_2 H 0.7250 0.7593 0.6633
C53_2 C 0.7934(9) 0.6761(9) 0.6772(3)
C54_2 C 0.8292(11) 0.6526(10) 0.7002(3)
H31_2 H 0.8602 0.6090 0.7004
C55_2 C 0.8168(14) 0.6990(12) 0.7246(3)
H32_2 H 0.8420 0.6855 0.7405
C56_2 C 0.8022(9) 0.6320(8) 0.6529(3)
O27_2 O 0.8135(6) 0.9653(6) 0.8874(2)
Zn1_2 Zn 0.23890(12) 0.58812(12) 0.88057(3)
Zn2_2 Zn 0.15926(13) 0.99219(13) 0.63143(3)
Li1_2 Li 0.3382(14) 0.4547(14) 0.8538(5)
Li2_2 Li 0.2918(13) 0.8941(13) 0.6036(4)
O1_2 O 0.3977(10) 0.3898(9) 0.8311(3)
O2_2 O 0.3627(8) 0.8431(8) 0.5844(3)
O5_2 O 0.3978(6) 0.4887(6) 0.88191(19)
O6_2 O 0.3280(7) 0.5817(7) 0.9004(2)
C1_2 C 0.3831(9) 0.5341(10) 0.9013(3)
C2_2 C 0.4317(10) 0.5306(10) 0.9252(3)
C3_2 C 0.4911(10) 0.4873(10) 0.9277(3)
H1_2 H 0.5079 0.4593 0.9128
C4_2 C 0.5303(9) 0.4810(9) 0.9516(3)
H2_2 H 0.5732 0.4492 0.9528
C5_2 C 0.5060(10) 0.5224(11) 0.9745(3)
C6_2 C 0.4449(11) 0.5785(11) 0.9690(3)
H3_2 H 0.4311 0.6140 0.9822
C7_2 C 0.4117(11) 0.5786(10) 0.9467(3)
H4_2 H 0.3711 0.6126 0.9442
H5_2 H 0.6436 0.4823 0.9906
O9_2 O 0.3025(8) 0.5357(8) 0.8301(2)
O10_2 O 0.2361(7) 0.6348(7) 0.8464(2)
C15_2 C 0.2655(10) 0.5970(9) 0.8276(3)
C16_2 C 0.2569(11) 0.6274(11) 0.7997(3)
C17_2 C 0.2666(14) 0.5834(11) 0.7774(3)
H9_2 H 0.2789 0.5317 0.7791
C18_2 C 0.2585(16) 0.6143(11) 0.7530(4)
H10_2 H 0.2654 0.5826 0.7381
C19_2 C 0.2415(9) 0.6863(9) 0.7486(3)
C20_2 C 0.2315(11) 0.7333(10) 0.7716(3)
H11_2 H 0.2165 0.7843 0.7696
C21_2 C 0.2439(12) 0.7032(11) 0.7966(3)
H12_2 H 0.2435 0.7352 0.8116
C22_2 C 0.2284(10) 0.7270(10) 0.7218(3)
C23_2 C 0.2726(10) 0.7036(9) 0.7024(3)
H13_2 H 0.3066 0.6629 0.7046
C24_2 C 0.2663(10) 0.7421(9) 0.6788(3)
H14_2 H 0.2972 0.7272 0.6644
C25_2 C 0.2168(9) 0.8014(9) 0.6751(3)
C26_2 C 0.1743(11) 0.8226(11) 0.6964(3)
H15_2 H 0.1416 0.8646 0.6948
C27_2 C 0.1779(11) 0.7826(10) 0.7214(3)
H16_2 H 0.1471 0.7948 0.7362
C28_2 C 0.2156(9) 0.8477(9) 0.6504(3)
O11_2 O 0.2550(6) 0.8330(6) 0.63199(19)
O12_2 O 0.1666(7) 0.8997(7) 0.6523(2)
O13_2 O 0.2132(8) 0.9393(8) 0.5808(2)
O14_2 O 0.1120(7) 0.9925(8) 0.5960(2)
C29_2 C 0.1517(9) 0.9650(9) 0.5773(3)
C30_2 C 0.1165(10) 0.9784(10) 0.5499(3)
C31_2 C 0.1598(10) 0.9793(11) 0.5288(3)
H17_2 H 0.2124 0.9720 0.5309
C32_2 C 0.1310(10) 0.9907(12) 0.5031(3)
H18_2 H 0.1629 0.9901 0.4880
C35_2 C 0.0405(11) 0.9907(12) 0.5482(3)
H20_2 H 0.0099 0.9916 0.5636
C37_2 C 0.0456(9) 0.9862(9) 0.4496(3)
H21_2 H 0.0895 0.9557 0.4490
C38_2 C 0.0084(8) 0.9978(9) 0.4269(3)
H22_2 H 0.0247 0.9748 0.4109
O24_2 O 0.3287(8) 0.9811(7) 0.6219(2)
O25_2 O 0.2520(8) 0.4233(8) 0.8723(2)
O26_2 O 0.1666(6) 0.5062(6) 0.8849(2)
C71_2 C 0.1877(10) 0.4374(9) 0.8802(3)
C72_2 C 0.1289(8) 0.3798(8) 0.8851(3)
C73_2 C 0.1496(9) 0.3045(10) 0.8809(4)
H41_2 H 0.1993 0.2910 0.8759
C74_2 C 0.0947(8) 0.2516(9) 0.8843(4)
H42_2 H 0.1085 0.2002 0.8827
C75_2 C 0.0209(7) 0.2679(8) 0.8900(3)
C76_2 C 0.0048(8) 0.3453(8) 0.8937(3)
C77_2 C 0.0559(8) 0.3939(8) 0.8899(3)
H44_2 H 0.0411 0.4452 0.8905
H45_2 H 0.0293 0.1191 0.9000
N1_2 N 0.1846(8) 0.6648(8) 0.9042(3)
C85_2 C 0.1474(11) 0.7231(11) 0.8969(3)
H49_2 H 0.1523 0.7394 0.8791
C86_2 C 0.1007(12) 0.7634(11) 0.9136(3)
H50_2 H 0.0724 0.8041 0.9066
C87_2 C 0.0940(13) 0.7460(12) 0.9402(3)
C88_2 C 0.1411(13) 0.6928(13) 0.9469(4)
H51_2 H 0.1469 0.6839 0.9653
C89_2 C 0.1818(11) 0.6497(12) 0.9309(3)
H52_2 H 0.2091 0.6084 0.9379
C90_2 C 0.0381(13) 0.7861(12) 0.9582(3)
H53_2 H 0.0666 0.8199 0.9701
H54_2 H 0.0053 0.8181 0.9470
H56_2 H 0.0244 0.7076 0.9850
H81_2 H 0.339981 0.796754 0.576903
H82_2 H 0.381154 0.875552 0.569782
H83_2 H 0.41611 0.3461 0.841477
H84_2 H 0.366154 0.37172 0.816178
C39_3 C 0.0540(8) 0.5440(9) 0.0728(3)
C40_3 C 0.0745(9) 0.5802(10) 0.0499(3)
H23_3 H 0.1145 0.6156 0.0508
C41_3 C 0.0440(10) 0.5697(11) 0.0279(3)
H24_3 H 0.0633 0.5952 0.0128
C42_3 C 0.1005(8) 0.5514(8) 0.0987(3)
O15_2 O 0.0831(6) 0.5121(6) 0.1179(2)
O16_2 O 0.1545(6) 0.5981(7) 0.0976(2)
Zn6_2 Zn 0.24206(12) 0.61094(12) 0.11807(3)
Li5_2 Li 0.1485(12) 0.4788(13) 0.1460(4)
H19_3 H 0.0434 0.5087 0.9787
C91_3 C 0.0081(13) 0.2398(12) 0.5262(4)
H55_3 H 0.0382 0.2720 0.5142
C92_3 C 0.0591(13) 0.1918(14) 0.5410(4)
H57_3 H 0.0909 0.1635 0.5284
H58_3 H 0.0292 0.1549 0.5512
C93_3 C 0.1087(13) 0.2337(15) 0.5596(4)
C94_3 C 0.1157(11) 0.2182(12) 0.5860(3)
H59_3 H 0.0881 0.1769 0.5929
C95_3 C 0.1580(12) 0.2567(12) 0.6022(3)
H60_3 H 0.1560 0.2441 0.6205
C96_3 C 0.2041(11) 0.3261(12) 0.5680(3)
H61_3 H 0.2357 0.3649 0.5614
C97_3 C 0.1589(12) 0.2843(14) 0.5500(3)
H62_3 H 0.1638 0.2917 0.5315
N2_2 N 0.2029(8) 0.3112(9) 0.5952(2)
N3_2 N 0.0620(8) 0.9361(9) 0.8435(2)
C98_3 C 0.0092(10) 0.8902(11) 0.8525(3)
H63_3 H 0.0020 0.8870 0.8711
C101_3 C 0.0395(14) 0.8880(12) 0.8003(3)
H65_3 H 0.0514 0.8881 0.7819
C102_3 C 0.0790(14) 0.9349(13) 0.8167(3)
H66_3 H 0.1177 0.9661 0.8098
H69_3 H 0.0347 0.7711 0.7644
C105_3 C 0.0438(13) 0.6858(12) 0.7925(4)
H71_3 H 0.0754 0.6538 0.7809
H72_3 H 0.0780 0.7157 0.8038
C107_3 C 0.0161(11) 0.6346(12) 0.8374(4)
H73_3 H 0.0530 0.6669 0.8449
Zn5 Zn 0.25794(12) 0.38906(12) 0.61807(3)
Zn8 Zn 0.14124(12) 0.98874(12) 0.86759(3)
Li3_2 Li 0.3515(12) 0.5212(13) 0.6460(4)
O3_3 O 0.4075(10) 0.5926(10) 0.6684(3)
O17_3 O 0.3121(8) 0.4470(8) 0.6703(2)
O18_3 O 0.2536(7) 0.3452(7) 0.6520(2)
C43_3 C 0.2775(11) 0.3829(11) 0.6713(3)
C44_3 C 0.2654(10) 0.3457(10) 0.6989(3)
C45_3 C 0.2708(12) 0.3964(11) 0.7209(3)
H25_3 H 0.2821 0.4480 0.7183
C46_3 C 0.2584(12) 0.3664(10) 0.7471(3)
H26_3 H 0.2604 0.3975 0.7624
C47_3 C 0.2431(12) 0.2882(10) 0.7491(3)
C48_3 C 0.2423(13) 0.2418(12) 0.7258(3)
H27_3 H 0.2310 0.1898 0.7274
C49_3 C 0.2574(14) 0.2713(11) 0.7012(3)
H28_3 H 0.2620 0.2395 0.6862
C50_3 C 0.2235(11) 0.2521(10) 0.7753(3)
C51_3 C 0.2640(12) 0.2778(10) 0.7972(3)
H29_3 H 0.2981 0.3188 0.7959
C52_3 C 0.2519(11) 0.2405(9) 0.8211(3)
H30_3 H 0.2750 0.2593 0.8367
C53_3 C 0.2066(9) 0.1761(9) 0.8228(3)
C54_3 C 0.1708(11) 0.1526(10) 0.7998(3)
H31_3 H 0.1398 0.1090 0.7996
C55_3 C 0.1832(14) 0.1990(12) 0.7754(3)
H32_3 H 0.1580 0.1855 0.7595
C56_3 C 0.1978(9) 0.1320(8) 0.8471(3)
O19_2 O 0.2393(6) 0.1487(5) 0.86645(17)
O20_2 O 0.1527(6) 0.0788(6) 0.84677(16)
H43_3 H 0.0441 0.8607 0.6010
C78_3 C 0.0380(8) 0.7094(8) 0.6097(3)
C79_3 C 0.0206(8) 0.6328(8) 0.6047(3)
C80_3 C 0.0741(8) 0.5793(8) 0.6067(3)
H46_3 H 0.0600 0.5282 0.6045
C81_3 C 0.1489(9) 0.5958(10) 0.6119(4)
C82_3 C 0.1652(8) 0.6702(10) 0.6163(4)
H47_3 H 0.2154 0.6845 0.6202
C83_3 C 0.1088(8) 0.7258(9) 0.6151(3)
H48_3 H 0.1222 0.7767 0.6184
C84_3 C 0.2036(8) 0.5341(9) 0.6175(3)
O27_3 O 0.1865(6) 0.4653(6) 0.6126(2)
O28_3 O 0.2668(6) 0.5570(7) 0.6273(2)
Li7_2 Li 0.2756(13) 0.0849(12) 0.8944(4)
O29_2 O 0.4169(6) 0.4879(6) 0.6179(2)
O30_2 O 0.3455(6) 0.4019(7) 0.5976(2)
H77_3 H 0.4484 0.56559 0.677824
H78_3 H 0.429538 0.632709 0.657138
Zn1_3 Zn 0.76110(12) 0.08812(12) 0.61943(3)
Zn2_3 Zn 0.84074(13) 0.49219(13) 0.86857(3)
Zn4_2 Zn 0.35876(12) 0.01126(12) 0.36759(3)
Li2_3 Li 0.7082(13) 0.3941(13) 0.8964(4)
O2_3 O 0.6373(8) 0.3431(8) 0.9156(3)
O6_3 O 0.6720(7) 0.0817(7) 0.5996(2)
C1_3 C 0.6169(9) 0.0341(10) 0.5987(3)
C2_3 C 0.5683(10) 0.0306(10) 0.5748(3)
C5_3 C 0.4940(10) 0.0224(11) 0.5255(3)
C6_3 C 0.5551(11) 0.0785(11) 0.5310(3)
H3_3 H 0.5689 0.1140 0.5178
C7_3 C 0.5883(11) 0.0786(10) 0.5533(3)
H4_3 H 0.6289 0.1126 0.5558
C8_3 C 0.4598(10) 0.0142(11) 0.4989(3)
C12_3 C 0.4708(11) 0.0146(11) 0.4523(3)
H7_3 H 0.5006 0.0238 0.4370
C13_3 C 0.5036(11) 0.0198(13) 0.4756(3)
H8_3 H 0.5564 0.0273 0.4768
O8_3 O 0.4029(7) 0.0147(7) 0.4025(2)
O9_3 O 0.6975(8) 0.0357(8) 0.6699(2)
O10_3 O 0.7639(7) 0.1348(7) 0.6536(2)
C15_3 C 0.7345(10) 0.0970(9) 0.6724(3)
C16_3 C 0.7431(11) 0.1274(11) 0.7003(3)
C17_3 C 0.7334(14) 0.0834(11) 0.7226(3)
H9_3 H 0.7211 0.0317 0.7209
C18_3 C 0.7415(16) 0.1143(11) 0.7470(4)
H10_3 H 0.7346 0.0826 0.7619
C19_3 C 0.7585(9) 0.1863(9) 0.7514(3)
C20_3 C 0.7685(11) 0.2333(10) 0.7284(3)
H11_3 H 0.7835 0.2843 0.7304
C21_3 C 0.7561(12) 0.2032(11) 0.7034(3)
H12_3 H 0.7565 0.2352 0.6884
C22_3 C 0.7716(10) 0.2270(10) 0.7782(3)
C23_3 C 0.7274(10) 0.2036(9) 0.7976(3)
H13_3 H 0.6934 0.1629 0.7954
C24_3 C 0.7337(10) 0.2421(9) 0.8212(3)
H14_3 H 0.7028 0.2272 0.8356
C25_3 C 0.7832(9) 0.3014(9) 0.8249(3)
C26_3 C 0.8257(11) 0.3226(11) 0.8036(3)
H15_3 H 0.8584 0.3646 0.8052
C27_3 C 0.8221(11) 0.2826(10) 0.7786(3)
H16_3 H 0.8529 0.2948 0.7638
C28_3 C 0.7844(9) 0.3477(9) 0.8496(3)
O11_3 O 0.7450(6) 0.3330(6) 0.86801(19)
O12_3 O 0.8334(7) 0.3997(7) 0.8477(2)
O13_3 O 0.7868(8) 0.4393(8) 0.9192(2)
O14_3 O 0.8880(7) 0.4925(8) 0.9040(2)
C29_3 C 0.8483(9) 0.4650(9) 0.9227(3)
C30_3 C 0.8835(10) 0.4784(10) 0.9501(3)
C31_3 C 0.8402(10) 0.4793(11) 0.9712(3)
H17_3 H 0.7876 0.4720 0.9691
C32_3 C 0.8690(10) 0.4907(12) 0.9969(3)
C33_3 C 0.9462(9) 0.5031(11) 0.9992(3)
C34_3 C 0.9906(10) 0.5019(10) 0.9769(3)
C35_3 C 0.9595(11) 0.4907(12) 0.9518(3)
H20_3 H 0.9901 0.4916 0.9364
O21_2 O 0.3071(7) 0.9976(6) 0.8772(3)
O22_2 O 0.2255(6) 0.9190(7) 0.8640(3)
C57_3 C 0.2908(9) 0.9379(9) 0.8677(3)
C58_3 C 0.3478(8) 0.8784(8) 0.8645(2)
C59_3 C 0.4217(9) 0.8956(9) 0.8681(4)
H33_3 H 0.4351 0.9448 0.8737
C60_3 C 0.4785(8) 0.8423(8) 0.8636(3)
H34_3 H 0.5300 0.8565 0.8643
C61_3 C 0.4585(8) 0.7691(7) 0.8583(2)
C62_3 C 0.3869(9) 0.7513(9) 0.8528(4)
H35_3 H 0.3744 0.7025 0.8466
C63_3 C 0.3311(9) 0.8055(8) 0.8563(3)
H36_3 H 0.2802 0.7922 0.8530
C64_3 C 0.5206(8) 0.7107(8) 0.8581(3)
C65_3 C 0.5938(8) 0.7274(9) 0.8538(3)
H37_3 H 0.6062 0.7769 0.8482
C66_3 C 0.6525(7) 0.6752(8) 0.8572(3)
H38_3 H 0.7037 0.6881 0.8543
C67_3 C 0.6306(9) 0.6027(9) 0.8651(3)
C68_3 C 0.5607(9) 0.5846(10) 0.8666(3)
H39_3 H 0.5486 0.5335 0.8701
C69_3 C 0.5024(10) 0.6347(9) 0.8636(4)
H40_3 H 0.4515 0.6189 0.8652
C70_3 C 0.6943(10) 0.5473(10) 0.8702(3)
O23_3 O 0.7605(7) 0.5662(6) 0.8658(3)
O24_3 O 0.6713(8) 0.4811(7) 0.8781(2)
O26_3 O 0.8334(6) 0.0062(6) 0.6151(2)
N1_3 N 0.8154(8) 0.1648(8) 0.5958(3)
C85_3 C 0.8526(11) 0.2231(11) 0.6031(3)
H49_3 H 0.8477 0.2394 0.6209
C86_3 C 0.8993(12) 0.2634(11) 0.5864(3)
H50_3 H 0.9276 0.3041 0.5934
C87_3 C 0.9060(13) 0.2460(12) 0.5598(3)
C88_3 C 0.8589(13) 0.1928(13) 0.5531(4)
H51_3 H 0.8531 0.1839 0.5347
C89_3 C 0.8182(11) 0.1497(12) 0.5691(3)
H52_3 H 0.7909 0.1084 0.5621
C90_3 C 0.9619(13) 0.2861(12) 0.5418(3)
H53_3 H 0.9334 0.3199 0.5299
H54_3 H 0.9947 0.3181 0.5530
H56_3 H 0.9756 0.2076 0.5150
C99_3 C 0.9648(12) 0.8473(13) 0.8367(3)
H64_3 H 0.9222 0.8222 0.8438
C100_3 C 0.9825(12) 0.8402(11) 0.8091(3)
C103_3 C 0.9440(14) 0.7951(14) 0.7890(4)
H67_3 H 0.9206 0.8289 0.7758
H68_3 H 0.9034 0.7656 0.7976
C104_3 C 0.9985(13) 0.7407(12) 0.7747(5)
H70_3 H 0.9690 0.7105 0.7619
C106_3 C 0.9978(12) 0.6361(11) 0.8098(4)
C108_3 C 0.9775(11) 0.5840(12) 0.8521(4)
H74_3 H 0.9977 0.5752 0.8692
C109_3 C 0.8988(14) 0.5534(14) 0.8193(4)
H75_3 H 0.8588 0.5238 0.8124
C110_3 C 0.9323(14) 0.5981(14) 0.8020(4)
H76_3 H 0.9124 0.6043 0.7847
N4_3 N 0.9135(8) 0.5431(8) 0.8463(3)
O33_2 O 0.1929(7) 0.0024(6) 0.3772(3)
O34_2 O 0.2745(6) 0.0810(7) 0.3640(3)
N6_2 N 0.4380(8) 0.0639(9) 0.3435(2)
H81_3 H 0.660019 0.296754 0.923097
H82_3 H 0.618846 0.375552 0.930218
Li1_3 Li 0.6618(14) 0.9547(14) 0.6462(5)
Li4_2 Li 0.2244(13) 0.9151(12) 0.3944(4)
O1_3 O 0.6023(10) 0.8898(9) 0.6689(3)
O4_3 O 0.1518(8) 0.8577(7) 0.4141(2)
O5_3 O 0.6022(6) 0.9887(6) 0.61809(19)
C3_3 C 0.5089(10) 0.9873(10) 0.5723(3)
H1_3 H 0.4921 0.9593 0.5872
C4_3 C 0.4697(9) 0.9810(9) 0.5484(3)
H2_3 H 0.4268 0.9492 0.5472
C9_3 C 0.3873(11) 0.9926(14) 0.4945(3)
H5_3 H 0.3564 0.9823 0.5094
C10_3 C 0.3564(11) 0.9851(14) 0.4695(3)
H6_3 H 0.3051 0.9711 0.4678
C11_3 C 0.3959(10) 0.9968(9) 0.4487(3)
C14_3 C 0.3631(10) 0.9822(9) 0.4207(3)
O7_3 O 0.3053(8) 0.9536(7) 0.4187(2)
O25_3 O 0.7480(8) 0.9233(8) 0.6277(2)
C71_3 C 0.8123(10) 0.9374(9) 0.6198(3)
C72_3 C 0.8711(8) 0.8798(8) 0.6149(3)
C73_3 C 0.8504(9) 0.8045(10) 0.6191(4)
H41_3 H 0.8007 0.7910 0.6241
C74_3 C 0.9053(8) 0.7516(9) 0.6157(4)
H42_3 H 0.8915 0.7002 0.6173
C75_3 C 0.9791(7) 0.7679(8) 0.6100(3)
C76_3 C 0.9952(8) 0.8453(8) 0.6063(3)
C77_3 C 0.9441(8) 0.8939(8) 0.6101(3)
H44_3 H 0.9589 0.9452 0.6095
H45_3 H 0.9707 0.6191 0.6000
O31_2 O 0.2607(6) 0.8513(5) 0.36645(17)
O32_2 O 0.3473(6) 0.9212(6) 0.34677(16)
H79_3 H 0.128566 0.8901 0.427863
H80_3 H 0.112165 0.838992 0.401915
H83_3 H 0.58389 0.8461 0.658523
H84_3 H 0.633846 0.87172 0.683822
O4_4 O 0.3482(8) 0.1423(7) 0.9141(2)
C9_4 C 0.1127(11) 0.0074(14) 0.9945(3)
C10_4 C 0.1436(11) 0.0149(14) 0.9695(3)
H6_4 H 0.1949 0.0289 0.9678
C11_4 C 0.1041(10) 0.0032(9) 0.9487(3)
C14_4 C 0.1369(10) 0.0178(9) 0.9207(3)
O7_4 O 0.1947(8) 0.0464(7) 0.9187(2)
H79_4 H 0.371434 0.1099 0.927863
H80_4 H 0.387835 0.161008 0.901915
C5_4 C 0.0060(10) 0.9776(11) 0.0255(3)
C57_4 C 0.2092(9) 0.0621(9) 0.3677(3)
C58_4 C 0.1522(8) 0.1216(8) 0.3645(2)
C59_4 C 0.0783(9) 0.1044(9) 0.3681(4)
H33_4 H 0.0649 0.0552 0.3737
C60_4 C 0.0215(8) 0.1577(8) 0.3636(3)
C61_4 C 0.0415(8) 0.2309(7) 0.3583(2)
C62_4 C 0.1131(9) 0.2487(9) 0.3528(4)
H35_4 H 0.1256 0.2975 0.3466
C63_4 C 0.1689(9) 0.1945(8) 0.3563(3)
H36_4 H 0.2198 0.2078 0.3530
H40_4 H 0.0485 0.3811 0.3652
C8_4 C 0.0402(10) 0.9858(11) 0.9989(3)
C12_4 C 0.0292(11) 0.9854(11) 0.9523(3)
O8_4 O 0.0971(7) 0.9853(7) 0.9025(2)
Li1_4 Li 0.8382(14) 0.0453(14) 0.1462(5)
O1_4 O 0.8977(10) 0.1102(9) 0.1689(3)
O3_4 O 0.0925(10) 0.4074(10) 0.1684(3)
O5_4 O 0.8978(6) 0.0113(6) 0.11809(19)
C3_4 C 0.9911(10) 0.0127(10) 0.0723(3)
O17_4 O 0.1879(8) 0.5530(8) 0.1703(2)
O18_4 O 0.2464(7) 0.6548(7) 0.1520(2)
C43_4 C 0.2225(11) 0.6171(11) 0.1713(3)
C44_4 C 0.2346(10) 0.6543(10) 0.1989(3)
C45_4 C 0.2292(12) 0.6036(11) 0.2209(3)
H25_4 H 0.2179 0.5520 0.2183
C46_4 C 0.2416(12) 0.6336(10) 0.2471(3)
H26_4 H 0.2396 0.6025 0.2624
C47_4 C 0.2569(12) 0.7118(10) 0.2491(3)
C48_4 C 0.2577(13) 0.7582(12) 0.2258(3)
H27_4 H 0.2690 0.8102 0.2274
C49_4 C 0.2426(14) 0.7287(11) 0.2012(3)
H28_4 H 0.2380 0.7605 0.1862
C50_4 C 0.2765(11) 0.7479(10) 0.2753(3)
C51_4 C 0.2360(12) 0.7222(10) 0.2972(3)
H29_4 H 0.2019 0.6812 0.2959
C52_4 C 0.2481(11) 0.7595(9) 0.3211(3)
H30_4 H 0.2250 0.7407 0.3367
C53_4 C 0.2934(9) 0.8239(9) 0.3228(3)
C54_4 C 0.3292(11) 0.8474(10) 0.2998(3)
H31_4 H 0.3602 0.8910 0.2996
C55_4 C 0.3168(14) 0.8010(12) 0.2754(3)
H32_4 H 0.3420 0.8145 0.2595
C56_4 C 0.3022(9) 0.8680(8) 0.3471(3)
O25_4 O 0.7520(8) 0.0767(8) 0.1277(2)
C71_4 C 0.6877(10) 0.0626(9) 0.1198(3)
C72_4 C 0.6289(8) 0.1202(8) 0.1149(3)
C73_4 C 0.6496(9) 0.1955(10) 0.1191(4)
H41_4 H 0.6993 0.2090 0.1241
C74_4 C 0.5947(8) 0.2484(9) 0.1157(4)
H42_4 H 0.6085 0.2998 0.1173
C75_4 C 0.5209(7) 0.2321(8) 0.1100(3)
C76_4 C 0.5048(8) 0.1547(8) 0.1063(3)
H43_4 H 0.4559 0.1393 0.1010
C77_4 C 0.5559(8) 0.1061(8) 0.1101(3)
H44_4 H 0.5411 0.0548 0.1095
C78_4 C 0.4620(8) 0.2906(8) 0.1097(3)
C79_4 C 0.4794(8) 0.3672(8) 0.1047(3)
H45_4 H 0.5293 0.3809 0.1000
C80_4 C 0.4259(8) 0.4207(8) 0.1067(3)
H46_4 H 0.4400 0.4718 0.1045
C81_4 C 0.3511(9) 0.4042(10) 0.1119(4)
C82_4 C 0.3348(8) 0.3298(10) 0.1163(4)
H47_4 H 0.2846 0.3155 0.1202
C83_4 C 0.3912(8) 0.2742(9) 0.1151(3)
H48_4 H 0.3778 0.2233 0.1184
C84_4 C 0.2964(8) 0.4659(9) 0.1175(3)
O27_4 O 0.3135(6) 0.5347(6) 0.1126(2)
O28_4 O 0.2332(6) 0.4430(7) 0.1273(2)
N5_2 N 0.2971(8) 0.6888(9) 0.0952(2)
H77_4 H 0.0516001 0.43441 0.177824
H78_4 H 0.0704618 0.367291 0.157138
H83_4 H 0.91611 0.1539 0.158523
H84_4 H 0.866154 0.12828 0.183822
Zn1_4 Zn 0.73890(12) 0.91188(12) 0.11943(3)
Zn2_4 Zn 0.65926(13) 0.50781(13) 0.36857(3)
Li2_4 Li 0.7918(13) 0.6059(13) 0.3964(4)
O2_4 O 0.8627(8) 0.6569(8) 0.4156(3)
O6_4 O 0.8280(7) 0.9183(7) 0.0996(2)
C1_4 C 0.8831(9) 0.9659(10) 0.0987(3)
C2_4 C 0.9317(10) 0.9694(10) 0.0748(3)
C6_4 C 0.9449(11) 0.9215(11) 0.0310(3)
H3_4 H 0.9311 0.8860 0.0178
C7_4 C 0.9117(11) 0.9214(10) 0.0533(3)
H4_4 H 0.8711 0.8874 0.0558
O9_4 O 0.8025(8) 0.9643(8) 0.1699(2)
O10_4 O 0.7361(7) 0.8652(7) 0.1536(2)
C15_4 C 0.7655(10) 0.9030(9) 0.1724(3)
C16_4 C 0.7569(11) 0.8726(11) 0.2003(3)
C17_4 C 0.7666(14) 0.9166(11) 0.2226(3)
H9_4 H 0.7789 0.9683 0.2209
C18_4 C 0.7585(16) 0.8857(11) 0.2470(4)
H10_4 H 0.7654 0.9174 0.2619
C19_4 C 0.7415(9) 0.8137(9) 0.2514(3)
C20_4 C 0.7315(11) 0.7667(10) 0.2284(3)
H11_4 H 0.7165 0.7157 0.2304
C21_4 C 0.7439(12) 0.7968(11) 0.2034(3)
H12_4 H 0.7435 0.7648 0.1884
C22_4 C 0.7284(10) 0.7730(10) 0.2782(3)
C23_4 C 0.7726(10) 0.7964(9) 0.2976(3)
H13_4 H 0.8066 0.8371 0.2954
C24_4 C 0.7663(10) 0.7579(9) 0.3212(3)
H14_4 H 0.7972 0.7728 0.3356
C25_4 C 0.7168(9) 0.6986(9) 0.3249(3)
C26_4 C 0.6743(11) 0.6774(11) 0.3036(3)
H15_4 H 0.6416 0.6354 0.3052
C27_4 C 0.6779(11) 0.7174(10) 0.2786(3)
H16_4 H 0.6471 0.7052 0.2638
C28_4 C 0.7156(9) 0.6523(9) 0.3496(3)
O11_4 O 0.7550(6) 0.6670(6) 0.36801(19)
O12_4 O 0.6666(7) 0.6003(7) 0.3477(2)
O13_4 O 0.7132(8) 0.5607(8) 0.4192(2)
O14_4 O 0.6120(7) 0.5075(8) 0.4040(2)
C29_4 C 0.6517(9) 0.5350(9) 0.4227(3)
C30_4 C 0.6165(10) 0.5216(10) 0.4501(3)
C31_4 C 0.6598(10) 0.5207(11) 0.4712(3)
H17_4 H 0.7124 0.5280 0.4691
C32_4 C 0.6310(10) 0.5093(12) 0.4969(3)
H18_3 H 0.6629 0.5099 0.5120
C33_4 C 0.5538(9) 0.4969(11) 0.4992(3)
C34_4 C 0.5094(10) 0.4981(10) 0.4769(3)
H19_4 H 0.4566 0.4913 0.4787
C35_4 C 0.5405(11) 0.5093(12) 0.4518(3)
H20_4 H 0.5099 0.5084 0.4364
C36_3 C 0.5237(9) 0.4830(10) 0.5244(3)
C37_3 C 0.5456(9) 0.5138(9) 0.5504(3)
H21_3 H 0.5895 0.5443 0.5510
C38_3 C 0.5084(8) 0.5022(9) 0.5731(3)
H22_3 H 0.5247 0.5252 0.5891
C39_4 C 0.4460(8) 0.4560(9) 0.5728(3)
C40_4 C 0.4255(9) 0.4198(10) 0.5499(3)
H23_4 H 0.3855 0.3844 0.5508
C41_4 C 0.4560(10) 0.4303(11) 0.5279(3)
H24_4 H 0.4367 0.4048 0.5128
C42_4 C 0.3995(8) 0.4486(8) 0.5987(3)
H34_4 H 0.9700 0.1435 0.3643
C64_4 C 0.9794(8) 0.2893(8) 0.3581(3)
C65_4 C 0.9062(8) 0.2726(9) 0.3538(3)
H37_4 H 0.8938 0.2231 0.3482
C66_4 C 0.8475(7) 0.3248(8) 0.3572(3)
H38_4 H 0.7963 0.3119 0.3543
C67_4 C 0.8694(9) 0.3973(9) 0.3651(3)
C68_4 C 0.9393(9) 0.4154(10) 0.3666(3)
H39_4 H 0.9514 0.4665 0.3701
C69_4 C 0.9976(10) 0.3653(9) 0.3636(4)
C70_4 C 0.8057(10) 0.4527(10) 0.3702(3)
O23_4 O 0.7395(7) 0.4338(6) 0.3658(3)
O24_4 O 0.8287(8) 0.5189(7) 0.3781(2)
O26_4 O 0.6666(6) 0.9938(6) 0.1151(2)
N1_4 N 0.6846(8) 0.8352(8) 0.0958(3)
C85_4 C 0.6474(11) 0.7769(11) 0.1031(3)
H49_4 H 0.6523 0.7606 0.1209
C86_4 C 0.6007(12) 0.7366(11) 0.0864(3)
H50_4 H 0.5724 0.6959 0.0934
C87_4 C 0.5940(13) 0.7540(12) 0.0598(3)
C88_4 C 0.6411(13) 0.8072(13) 0.0531(4)
H51_4 H 0.6469 0.8161 0.0347
C89_4 C 0.6818(11) 0.8503(12) 0.0691(3)
H52_4 H 0.7091 0.8916 0.0621
C90_4 C 0.5381(13) 0.7139(12) 0.0418(3)
H53_4 H 0.5666 0.6801 0.0299
H54_4 H 0.5053 0.6819 0.0530
C91_4 C 0.4919(13) 0.7602(12) 0.0262(4)
H55_4 H 0.4618 0.7280 0.0142
H56_4 H 0.5244 0.7924 0.0150
C92_4 C 0.4409(13) 0.8082(14) 0.0410(4)
H57_4 H 0.4091 0.8365 0.0284
H58_4 H 0.4708 0.8451 0.0512
C93_4 C 0.3913(13) 0.7663(15) 0.0596(4)
C94_4 C 0.3843(11) 0.7818(12) 0.0860(3)
H59_4 H 0.4119 0.8231 0.0929
C95_4 C 0.3420(12) 0.7433(12) 0.1022(3)
H60_4 H 0.3440 0.7559 0.1205
C96_4 C 0.2959(11) 0.6739(12) 0.0680(3)
H61_4 H 0.2643 0.6351 0.0614
C97_4 C 0.3411(12) 0.7157(14) 0.0500(3)
H62_4 H 0.3362 0.7083 0.0315
C98_4 C 0.4908(10) 0.1098(11) 0.3525(3)
H63_4 H 0.4980 0.1130 0.3711
C99_4 C 0.5352(12) 0.1527(13) 0.3367(3)
H64_4 H 0.5778 0.1778 0.3438
C100_4 C 0.5175(12) 0.1598(11) 0.3091(3)
C101_4 C 0.4605(14) 0.1120(12) 0.3003(3)
H65_4 H 0.4486 0.1119 0.2819
C102_4 C 0.4210(14) 0.0651(13) 0.3167(3)
H66_4 H 0.3823 0.0339 0.3098
C103_4 C 0.5560(14) 0.2049(14) 0.2890(4)
H67_4 H 0.5794 0.1711 0.2758
H68_4 H 0.5966 0.2344 0.2976
C104_4 C 0.5015(13) 0.2593(12) 0.2747(5)
H69_4 H 0.4653 0.2289 0.2644
H70_4 H 0.5310 0.2895 0.2619
C105_4 C 0.4562(13) 0.3142(12) 0.2925(4)
H71_4 H 0.4246 0.3462 0.2809
H72_4 H 0.4220 0.2843 0.3038
C106_4 C 0.5022(12) 0.3639(11) 0.3098(4)
C107_4 C 0.4839(11) 0.3654(12) 0.3374(4)
H73_4 H 0.4470 0.3331 0.3449
C108_4 C 0.5225(11) 0.4160(12) 0.3521(4)
H74_4 H 0.5023 0.4248 0.3692
C109_4 C 0.6012(14) 0.4466(14) 0.3193(4)
H75_4 H 0.6412 0.4762 0.3124
C110_4 C 0.5677(14) 0.4019(14) 0.3020(4)
H76_4 H 0.5876 0.3957 0.2847
N4_4 N 0.5865(8) 0.4569(8) 0.3463(3)
H81_4 H 0.839981 0.703246 0.423097
H82_4 H 0.881154 0.624448 0.430218
H18_4 H 0.8371 0.4901 0.0120
C36_4 C 0.9763(9) 0.5170(10) 0.0244(3)
C37_4 C 0.9544(9) 0.4862(9) 0.0504(3)
H21_4 H 0.9105 0.4557 0.0510
C38_4 C 0.9916(8) 0.4978(9) 0.0731(3)
H22_4 H 0.9753 0.4748 0.0891
H1_4 H 0.0079 0.0407 0.0872
C4_4 C 0.0303(9) 0.0190(9) 0.0484(3)
H2_4 H 0.0732 0.0508 0.0472
H5_4 H 0.1436 0.0177 0.0094
H7_4 H 0.9994 0.9762 0.9370
C13_4 C 0.9964(11) 0.9802(13) 0.9756(3)
H8_4 H 0.9436 0.9727 0.9768
loop_
_geom_bond_atom_site_label_1
_geom_bond_atom_site_label_2
_geom_bond_site_symmetry_1
_geom_bond_site_symmetry_2
Zn3 O18 1_555 1_555
O18 C43 1_555 1_555
C43 O17 1_555 1_555
C44 C43 1_555 1_555
C45 C44 1_555 1_555
H25 C45 1_555 1_555
C46 C45 1_555 1_555
H26 C46 1_555 1_555
C47 C46 1_555 1_555
C48 C47 1_555 1_555
H27 C48 1_555 1_555
C49 C44 1_555 1_555
H28 C49 1_555 1_555
C50 C47 1_555 1_555
C51 C50 1_555 1_555
H29 C51 1_555 1_555
C52 C51 1_555 1_555
H30 C52 1_555 1_555
C53 C52 1_555 1_555
C54 C53 1_555 1_555
H31 C54 1_555 1_555
C55 C50 1_555 1_555
H32 C55 1_555 1_555
C56 C53 1_555 1_555
O19 C56 1_555 1_555
O20 C56 1_555 1_555
O27 Zn3 1_555 1_555
Zn9 O20 1_555 1_555
Li7 O19 1_555 1_555
O30 Zn3 1_555 1_555
N5 Zn3 1_555 1_555
C48 C49 1_555 1_555
C54 C55 1_555 1_555
Zn1 O6 1_555 1_555
Zn2 O12 1_555 1_555
Li1 O1 1_555 1_555
Li2 O2 1_555 1_555
Li3 O3 1_555 1_555
O5 Li1 1_555 1_555
O6 C1 1_555 1_555
C1 O5 1_555 1_555
C2 C1 1_555 1_555
C3 C2 1_555 1_555
H3 C6 1_555 1_555
C7 C2 1_555 1_555
H4 C7 1_555 1_555
H8 C13 1_555 1_555
O9 Li1 1_555 1_555
O10 Zn1 1_555 1_555
C15 O9 1_555 1_555
C16 C15 1_555 1_555
C17 C16 1_555 1_555
H9 C17 1_555 1_555
C18 C17 1_555 1_555
H10 C18 1_555 1_555
C19 C18 1_555 1_555
C20 C19 1_555 1_555
H11 C20 1_555 1_555
C21 C16 1_555 1_555
H12 C21 1_555 1_555
C22 C19 1_555 1_555
C23 C22 1_555 1_555
H13 C23 1_555 1_555
C24 C23 1_555 1_555
H14 C24 1_555 1_555
C25 C24 1_555 1_555
C26 C25 1_555 1_555
H15 C26 1_555 1_555
C27 C22 1_555 1_555
H16 C27 1_555 1_555
C28 C25 1_555 1_555
O11 Li2 1_555 1_555
O12 C28 1_555 1_555
O13 Li2 1_555 1_555
O14 Zn2 1_555 1_555
C29 O13 1_555 1_555
C30 C29 1_555 1_555
C31 C30 1_555 1_555
H17 C31 1_555 1_555
C32 C31 1_555 1_555
C35 C30 1_555 1_555
H20 C35 1_555 1_555
O24 Li2 1_555 1_555
O25 Li1 1_555 1_555
O26 Zn1 1_555 1_555
C71 O25 1_555 1_555
C72 C71 1_555 1_555
C73 C72 1_555 1_555
H41 C73 1_555 1_555
C74 C73 1_555 1_555
H42 C74 1_555 1_555
C75 C74 1_555 1_555
C76 C75 1_555 1_555
H43 C76 1_555 1_555
C77 C72 1_555 1_555
H44 C77 1_555 1_555
C78 C75 1_555 1_555
C79 C78 1_555 1_555
H45 C79 1_555 1_555
C80 C79 1_555 1_555
H46 C80 1_555 1_555
C81 C80 1_555 1_555
C82 C81 1_555 1_555
H47 C82 1_555 1_555
C83 C78 1_555 1_555
H48 C83 1_555 1_555
C84 C81 1_555 1_555
O28 Li3 1_555 1_555
N1 Zn1 1_555 1_555
C85 N1 1_555 1_555
H49 C85 1_555 1_555
C86 C85 1_555 1_555
H50 C86 1_555 1_555
C87 C86 1_555 1_555
C88 C87 1_555 1_555
H51 C88 1_555 1_555
C89 N1 1_555 1_555
H52 C89 1_555 1_555
C90 C87 1_555 1_555
H53 C90 1_555 1_555
H54 C90 1_555 1_555
C91 C90 1_555 1_555
H55 C91 1_555 1_555
H56 C91 1_555 1_555
C92 C91 1_555 1_555
H57 C92 1_555 1_555
H58 C92 1_555 1_555
C93 C92 1_555 1_555
C94 C93 1_555 1_555
H59 C94 1_555 1_555
C95 C94 1_555 1_555
H60 C95 1_555 1_555
C96 H61 1_555 1_555
C97 C93 1_555 1_555
H62 C97 1_555 1_555
N5 C95 1_555 1_555
C6 C7 1_555 1_555
O10 C15 1_555 1_555
C20 C21 1_555 1_555
C26 C27 1_555 1_555
C28 O11 1_555 1_555
O14 C29 1_555 1_555
O26 C71 1_555 1_555
C76 C77 1_555 1_555
C82 C83 1_555 1_555
C84 O28 1_555 1_555
C88 C89 1_555 1_555
C96 C97 1_555 1_555
C96 N5 1_555 1_555
O3 H77 1_555 1_555
O3 H78 1_555 1_555
O2 H81 1_555 1_555
O2 H82 1_555 1_555
O1 H83 1_555 1_555
O1 H84 1_555 1_555
H21 C37 1_555 1_555
C38 C37 1_555 1_555
H22 C38 1_555 1_555
C34 C33 1_555 1_555
H19 C34 1_555 1_555
C65 C64 1_555 1_555
H37 C65 1_555 1_555
C66 C65 1_555 1_555
H38 C66 1_555 1_555
C67 C66 1_555 1_555
C68 C67 1_555 1_555
H39 C68 1_555 1_555
C69 C64 1_555 1_555
C70 C67 1_555 1_555
N3 C98 1_555 1_555
C98 H63 1_555 1_555
C99 C98 1_555 1_555
H64 C99 1_555 1_555
C100 C99 1_555 1_555
C101 C100 1_555 1_555
H65 C101 1_555 1_555
C102 N3 1_555 1_555
H66 C102 1_555 1_555
C103 C100 1_555 1_555
H67 C103 1_555 1_555
H68 C103 1_555 1_555
C104 C103 1_555 1_555
H69 C104 1_555 1_555
H70 C104 1_555 1_555
C105 C104 1_555 1_555
H71 C105 1_555 1_555
H72 C105 1_555 1_555
C106 C105 1_555 1_555
C107 C106 1_555 1_555
H73 C107 1_555 1_555
C108 C107 1_555 1_555
H74 C108 1_555 1_555
C109 H75 1_555 1_555
C110 C106 1_555 1_555
H76 C110 1_555 1_555
Zn9 N3 1_555 1_555
C68 C69 1_555 1_555
C70 O23 1_555 1_555
C101 C102 1_555 1_555
C108 N4 1_555 1_555
C109 C110 1_555 1_555
C109 N4 1_555 1_555
C40 C39 1_555 1_555
H23 C40 1_555 1_555
C41 C36 1_555 1_555
H24 C41 1_555 1_555
C42 C39 1_555 1_555
O15 C42 1_555 1_555
O16 C42 1_555 1_555
Zn6 O16 1_555 1_555
C40 C41 1_555 1_555
Zn4 O8 1_555 1_555
Li4 O4 1_555 1_555
H2 C4 1_555 1_555
C5 C4 1_555 1_555
C8 C5 1_555 1_555
C9 C8 1_555 1_555
H5 C9 1_555 1_555
C10 C9 1_555 1_555
H6 C10 1_555 1_555
C11 C10 1_555 1_555
C12 C11 1_555 1_555
C14 C11 1_555 1_555
O7 Li4 1_555 1_555
O8 C14 1_555 1_555
O31 Li4 1_555 1_555
O32 Zn4 1_555 1_555
O33 Li4 1_555 1_555
O34 Zn4 1_555 1_555
N6 Zn4 1_555 1_555
C14 O7 1_555 1_555
O4 H79 1_555 1_555
O4 H80 1_555 1_555
O21 C57 1_555 1_555
O22 C57 1_555 1_555
C57 C58 1_555 1_555
C58 C59 1_555 1_555
C59 H33 1_555 1_555
C60 C59 1_555 1_555
C61 C60 1_555 1_555
C62 C61 1_555 1_555
H35 C62 1_555 1_555
C63 C58 1_555 1_555
H36 C63 1_555 1_555
Zn9 O22 1_555 1_555
Li7 O21 1_555 1_555
C62 C63 1_555 1_555
C34_2 C33_2 1_555 1_555
C36_2 C33_2 1_555 1_555
O33 C57_2 1_555 1_555
O34 C57_2 1_555 1_555
C57_2 C58_2 1_555 1_555
C58_2 C59_2 1_555 1_555
C59_2 H33_2 1_555 1_555
C60_2 C59_2 1_555 1_555
H34_2 C60_2 1_555 1_555
C61_2 C60_2 1_555 1_555
C62_2 C61_2 1_555 1_555
H35_2 C62_2 1_555 1_555
C63_2 C58_2 1_555 1_555
H36_2 C63_2 1_555 1_555
C64_2 C61_2 1_555 1_555
C65_2 C64_2 1_555 1_555
H37_2 C65_2 1_555 1_555
C66_2 C65_2 1_555 1_555
H38_2 C66_2 1_555 1_555
C67_2 C66_2 1_555 1_555
C68_2 C67_2 1_555 1_555
H39_2 C68_2 1_555 1_555
C69_2 C64_2 1_555 1_555
H40_2 C69_2 1_555 1_555
C70_2 C67_2 1_555 1_555
H64_2 C99_2 1_555 1_555
C100_2 C99_2 1_555 1_555
C103_2 C100_2 1_555 1_555
H67_2 C103_2 1_555 1_555
H68_2 C103_2 1_555 1_555
C104_2 C103_2 1_555 1_555
H70_2 C104_2 1_555 1_555
H74_2 C108_2 1_555 1_555
C109_2 H75_2 1_555 1_555
C110_2 C106_2 1_555 1_555
H76_2 C110_2 1_555 1_555
C62_2 C63_2 1_555 1_555
C68_2 C69_2 1_555 1_555
C70_2 O23_2 1_555 1_555
C108_2 N4_2 1_555 1_555
C109_2 C110_2 1_555 1_555
C109_2 N4_2 1_555 1_555
Zn9 O8_2 1_555 1_555
Li7 O4_2 1_555 1_555
C9_2 C8_2 1_555 1_555
C10_2 C9_2 1_555 1_555
H6_2 C10_2 1_555 1_555
C11_2 C10_2 1_555 1_555
C12_2 C11_2 1_555 1_555
H7_2 C12_2 1_555 1_555
C13_2 C8_2 1_555 1_555
H8_2 C13_2 1_555 1_555
C14_2 C11_2 1_555 1_555
O7_2 Li7 1_555 1_555
O8_2 C14_2 1_555 1_555
C12_2 C13_2 1_555 1_555
C14_2 O7_2 1_555 1_555
O4_2 H79_2 1_555 1_555
O4_2 H80_2 1_555 1_555
C40_2 C39_2 1_555 1_555
H23_2 C40_2 1_555 1_555
H24_2 C41_2 1_555 1_555
C42_2 C39_2 1_555 1_555
O29 C42_2 1_555 1_555
O30 C42_2 1_555 1_555
N6 C98_2 1_555 1_555
C98_2 H63_2 1_555 1_555
H65_2 C101_2 1_555 1_555
C102_2 N6 1_555 1_555
H66_2 C102_2 1_555 1_555
H71_2 C105_2 1_555 1_555
H72_2 C105_2 1_555 1_555
H73_2 C107_2 1_555 1_555
C40_2 C41_2 1_555 1_555
C101_2 C102_2 1_555 1_555
Li5 O3_2 1_555 1_555
C79_2 C78_2 1_555 1_555
C80_2 C79_2 1_555 1_555
H46_2 C80_2 1_555 1_555
C81_2 C80_2 1_555 1_555
C82_2 C81_2 1_555 1_555
H47_2 C82_2 1_555 1_555
C83_2 C78_2 1_555 1_555
H48_2 C83_2 1_555 1_555
C84_2 C81_2 1_555 1_555
O28_2 Li5 1_555 1_555
H55_2 C91_2 1_555 1_555
C92_2 C91_2 1_555 1_555
H57_2 C92_2 1_555 1_555
H58_2 C92_2 1_555 1_555
C93_2 C92_2 1_555 1_555
C94_2 C93_2 1_555 1_555
H59_2 C94_2 1_555 1_555
C95_2 C94_2 1_555 1_555
H60_2 C95_2 1_555 1_555
C96_2 H61_2 1_555 1_555
C97_2 C93_2 1_555 1_555
H62_2 C97_2 1_555 1_555
N2 C95_2 1_555 1_555
Zn6 N2 1_555 1_555
C82_2 C83_2 1_555 1_555
C84_2 O28_2 1_555 1_555
C96_2 C97_2 1_555 1_555
C96_2 N2 1_555 1_555
O3_2 H77_2 1_555 1_555
O3_2 H78_2 1_555 1_555
Zn6 O18_2 1_555 1_555
O18_2 C43_2 1_555 1_555
C43_2 O17_2 1_555 1_555
C44_2 C43_2 1_555 1_555
C45_2 C44_2 1_555 1_555
H25_2 C45_2 1_555 1_555
C46_2 C45_2 1_555 1_555
H26_2 C46_2 1_555 1_555
C47_2 C46_2 1_555 1_555
C48_2 C47_2 1_555 1_555
H27_2 C48_2 1_555 1_555
C49_2 C44_2 1_555 1_555
H28_2 C49_2 1_555 1_555
C50_2 C47_2 1_555 1_555
C51_2 C50_2 1_555 1_555
H29_2 C51_2 1_555 1_555
C52_2 C51_2 1_555 1_555
H30_2 C52_2 1_555 1_555
C53_2 C52_2 1_555 1_555
C54_2 C53_2 1_555 1_555
H31_2 C54_2 1_555 1_555
C55_2 C50_2 1_555 1_555
H32_2 C55_2 1_555 1_555
C56_2 C53_2 1_555 1_555
O31 C56_2 1_555 1_555
O32 C56_2 1_555 1_555
O27_2 Zn6 1_555 1_555
C48_2 C49_2 1_555 1_555
C54_2 C55_2 1_555 1_555
Zn1_2 O6_2 1_555 1_555
Zn2_2 O12_2 1_555 1_555
Li1_2 O1_2 1_555 1_555
Li2_2 O2_2 1_555 1_555
O5_2 Li1_2 1_555 1_555
O6_2 C1_2 1_555 1_555
C1_2 O5_2 1_555 1_555
C2_2 C1_2 1_555 1_555
C3_2 C2_2 1_555 1_555
H1_2 C3_2 1_555 1_555
C4_2 C3_2 1_555 1_555
H2_2 C4_2 1_555 1_555
C5_2 C4_2 1_555 1_555
C6_2 C5_2 1_555 1_555
H3_2 C6_2 1_555 1_555
C7_2 C2_2 1_555 1_555
H4_2 C7_2 1_555 1_555
O9_2 Li1_2 1_555 1_555
O10_2 Zn1_2 1_555 1_555
C15_2 O9_2 1_555 1_555
C16_2 C15_2 1_555 1_555
C17_2 C16_2 1_555 1_555
H9_2 C17_2 1_555 1_555
C18_2 C17_2 1_555 1_555
H10_2 C18_2 1_555 1_555
C19_2 C18_2 1_555 1_555
C20_2 C19_2 1_555 1_555
H11_2 C20_2 1_555 1_555
C21_2 C16_2 1_555 1_555
H12_2 C21_2 1_555 1_555
C22_2 C19_2 1_555 1_555
C23_2 C22_2 1_555 1_555
H13_2 C23_2 1_555 1_555
C24_2 C23_2 1_555 1_555
H14_2 C24_2 1_555 1_555
C25_2 C24_2 1_555 1_555
C26_2 C25_2 1_555 1_555
H15_2 C26_2 1_555 1_555
C27_2 C22_2 1_555 1_555
H16_2 C27_2 1_555 1_555
C28_2 C25_2 1_555 1_555
O11_2 Li2_2 1_555 1_555
O12_2 C28_2 1_555 1_555
O13_2 Li2_2 1_555 1_555
O14_2 Zn2_2 1_555 1_555
C29_2 O13_2 1_555 1_555
C30_2 C29_2 1_555 1_555
C31_2 C30_2 1_555 1_555
H17_2 C31_2 1_555 1_555
C32_2 C31_2 1_555 1_555
H18_2 C32_2 1_555 1_555
C35_2 C30_2 1_555 1_555
H20_2 C35_2 1_555 1_555
H21_2 C37_2 1_555 1_555
C38_2 C37_2 1_555 1_555
H22_2 C38_2 1_555 1_555
O24_2 Li2_2 1_555 1_555
O25_2 Li1_2 1_555 1_555
O26_2 Zn1_2 1_555 1_555
C71_2 O25_2 1_555 1_555
C72_2 C71_2 1_555 1_555
C73_2 C72_2 1_555 1_555
H41_2 C73_2 1_555 1_555
C74_2 C73_2 1_555 1_555
H42_2 C74_2 1_555 1_555
C75_2 C74_2 1_555 1_555
C76_2 C75_2 1_555 1_555
C77_2 C72_2 1_555 1_555
H44_2 C77_2 1_555 1_555
N1_2 Zn1_2 1_555 1_555
C85_2 N1_2 1_555 1_555
H49_2 C85_2 1_555 1_555
C86_2 C85_2 1_555 1_555
H50_2 C86_2 1_555 1_555
C87_2 C86_2 1_555 1_555
C88_2 C87_2 1_555 1_555
H51_2 C88_2 1_555 1_555
C89_2 N1_2 1_555 1_555
H52_2 C89_2 1_555 1_555
C90_2 C87_2 1_555 1_555
H53_2 C90_2 1_555 1_555
H54_2 C90_2 1_555 1_555
C6_2 C7_2 1_555 1_555
O10_2 C15_2 1_555 1_555
C20_2 C21_2 1_555 1_555
C26_2 C27_2 1_555 1_555
C28_2 O11_2 1_555 1_555
O14_2 C29_2 1_555 1_555
O26_2 C71_2 1_555 1_555
C76_2 C77_2 1_555 1_555
C88_2 C89_2 1_555 1_555
O2_2 H81_2 1_555 1_555
O2_2 H82_2 1_555 1_555
O1_2 H83_2 1_555 1_555
O1_2 H84_2 1_555 1_555
C40_3 C39_3 1_555 1_555
H23_3 C40_3 1_555 1_555
H24_3 C41_3 1_555 1_555
C42_3 C39_3 1_555 1_555
O15_2 C42_3 1_555 1_555
O16_2 C42_3 1_555 1_555
Zn6_2 O16_2 1_555 1_555
Li5_2 O15_2 1_555 1_555
C40_3 C41_3 1_555 1_555
H55_3 C91_3 1_555 1_555
C92_3 C91_3 1_555 1_555
H57_3 C92_3 1_555 1_555
H58_3 C92_3 1_555 1_555
C93_3 C92_3 1_555 1_555
C94_3 C93_3 1_555 1_555
H59_3 C94_3 1_555 1_555
C95_3 C94_3 1_555 1_555
H60_3 C95_3 1_555 1_555
C96_3 H61_3 1_555 1_555
C97_3 C93_3 1_555 1_555
H62_3 C97_3 1_555 1_555
N2_2 C95_3 1_555 1_555
N3_2 C98_3 1_555 1_555
C98_3 H63_3 1_555 1_555
H65_3 C101_3 1_555 1_555
C102_3 N3_2 1_555 1_555
H66_3 C102_3 1_555 1_555
H71_3 C105_3 1_555 1_555
H72_3 C105_3 1_555 1_555
H73_3 C107_3 1_555 1_555
Zn5 N2_2 1_555 1_555
Zn8 N3_2 1_555 1_555
C96_3 C97_3 1_555 1_555
C96_3 N2_2 1_555 1_555
C101_3 C102_3 1_555 1_555
Zn5 O18_3 1_555 1_555
Li3_2 O3_3 1_555 1_555
O17_3 Li3_2 1_555 1_555
O18_3 C43_3 1_555 1_555
C43_3 O17_3 1_555 1_555
C44_3 C43_3 1_555 1_555
C45_3 C44_3 1_555 1_555
H25_3 C45_3 1_555 1_555
C46_3 C45_3 1_555 1_555
H26_3 C46_3 1_555 1_555
C47_3 C46_3 1_555 1_555
C48_3 C47_3 1_555 1_555
H27_3 C48_3 1_555 1_555
C49_3 C44_3 1_555 1_555
H28_3 C49_3 1_555 1_555
C50_3 C47_3 1_555 1_555
C51_3 C50_3 1_555 1_555
H29_3 C51_3 1_555 1_555
C52_3 C51_3 1_555 1_555
H30_3 C52_3 1_555 1_555
C53_3 C52_3 1_555 1_555
C54_3 C53_3 1_555 1_555
H31_3 C54_3 1_555 1_555
C55_3 C50_3 1_555 1_555
H32_3 C55_3 1_555 1_555
C56_3 C53_3 1_555 1_555
O19_2 C56_3 1_555 1_555
O20_2 C56_3 1_555 1_555
C79_3 C78_3 1_555 1_555
C80_3 C79_3 1_555 1_555
H46_3 C80_3 1_555 1_555
C81_3 C80_3 1_555 1_555
C82_3 C81_3 1_555 1_555
H47_3 C82_3 1_555 1_555
C83_3 C78_3 1_555 1_555
H48_3 C83_3 1_555 1_555
C84_3 C81_3 1_555 1_555
O27_3 Zn5 1_555 1_555
O28_3 Li3_2 1_555 1_555
Li7_2 O19_2 1_555 1_555
O29_2 Li3_2 1_555 1_555
O30_2 Zn5 1_555 1_555
C48_3 C49_3 1_555 1_555
C54_3 C55_3 1_555 1_555
C82_3 C83_3 1_555 1_555
C84_3 O27_3 1_555 1_555
C84_3 O28_3 1_555 1_555
O3_3 H77_3 1_555 1_555
O3_3 H78_3 1_555 1_555
Zn1_3 O6_3 1_555 1_555
Zn2_3 O12_3 1_555 1_555
Zn4_2 O8_3 1_555 1_555
Li2_3 O2_3 1_555 1_555
O6_3 C1_3 1_555 1_555
C2_3 C1_3 1_555 1_555
C6_3 C5_3 1_555 1_555
H3_3 C6_3 1_555 1_555
C7_3 C2_3 1_555 1_555
H4_3 C7_3 1_555 1_555
C8_3 C5_3 1_555 1_555
H7_3 C12_3 1_555 1_555
C13_3 C8_3 1_555 1_555
H8_3 C13_3 1_555 1_555
O10_3 Zn1_3 1_555 1_555
C15_3 O9_3 1_555 1_555
C16_3 C15_3 1_555 1_555
C17_3 C16_3 1_555 1_555
H9_3 C17_3 1_555 1_555
C18_3 C17_3 1_555 1_555
H10_3 C18_3 1_555 1_555
C19_3 C18_3 1_555 1_555
C20_3 C19_3 1_555 1_555
H11_3 C20_3 1_555 1_555
C21_3 C16_3 1_555 1_555
H12_3 C21_3 1_555 1_555
C22_3 C19_3 1_555 1_555
C23_3 C22_3 1_555 1_555
H13_3 C23_3 1_555 1_555
C24_3 C23_3 1_555 1_555
H14_3 C24_3 1_555 1_555
C25_3 C24_3 1_555 1_555
C26_3 C25_3 1_555 1_555
H15_3 C26_3 1_555 1_555
C27_3 C22_3 1_555 1_555
H16_3 C27_3 1_555 1_555
C28_3 C25_3 1_555 1_555
O11_3 Li2_3 1_555 1_555
O12_3 C28_3 1_555 1_555
O13_3 Li2_3 1_555 1_555
O14_3 Zn2_3 1_555 1_555
C29_3 O13_3 1_555 1_555
C30_3 C29_3 1_555 1_555
C31_3 C30_3 1_555 1_555
H17_3 C31_3 1_555 1_555
C32_3 C31_3 1_555 1_555
C33_3 C32_3 1_555 1_555
C34_3 C33_3 1_555 1_555
C35_3 C30_3 1_555 1_555
H20_3 C35_3 1_555 1_555
O21_2 C57_3 1_555 1_555
O22_2 C57_3 1_555 1_555
C57_3 C58_3 1_555 1_555
C58_3 C59_3 1_555 1_555
C59_3 H33_3 1_555 1_555
C60_3 C59_3 1_555 1_555
H34_3 C60_3 1_555 1_555
C61_3 C60_3 1_555 1_555
C62_3 C61_3 1_555 1_555
H35_3 C62_3 1_555 1_555
C63_3 C58_3 1_555 1_555
H36_3 C63_3 1_555 1_555
C64_3 C61_3 1_555 1_555
C65_3 C64_3 1_555 1_555
H37_3 C65_3 1_555 1_555
C66_3 C65_3 1_555 1_555
H38_3 C66_3 1_555 1_555
C67_3 C66_3 1_555 1_555
C68_3 C67_3 1_555 1_555
H39_3 C68_3 1_555 1_555
C69_3 C64_3 1_555 1_555
H40_3 C69_3 1_555 1_555
C70_3 C67_3 1_555 1_555
O23_3 Zn2_3 1_555 1_555
O24_3 Li2_3 1_555 1_555
O26_3 Zn1_3 1_555 1_555
N1_3 Zn1_3 1_555 1_555
C85_3 N1_3 1_555 1_555
H49_3 C85_3 1_555 1_555
C86_3 C85_3 1_555 1_555
H50_3 C86_3 1_555 1_555
C87_3 C86_3 1_555 1_555
C88_3 C87_3 1_555 1_555
H51_3 C88_3 1_555 1_555
C89_3 N1_3 1_555 1_555
H52_3 C89_3 1_555 1_555
C90_3 C87_3 1_555 1_555
H53_3 C90_3 1_555 1_555
H54_3 C90_3 1_555 1_555
H64_3 C99_3 1_555 1_555
C100_3 C99_3 1_555 1_555
C103_3 C100_3 1_555 1_555
H67_3 C103_3 1_555 1_555
H68_3 C103_3 1_555 1_555
C104_3 C103_3 1_555 1_555
H70_3 C104_3 1_555 1_555
H74_3 C108_3 1_555 1_555
C109_3 H75_3 1_555 1_555
C110_3 C106_3 1_555 1_555
H76_3 C110_3 1_555 1_555
N4_3 Zn2_3 1_555 1_555
Zn8 O22_2 1_555 1_555
O34_2 Zn4_2 1_555 1_555
N6_2 Zn4_2 1_555 1_555
C6_3 C7_3 1_555 1_555
C12_3 C13_3 1_555 1_555
O10_3 C15_3 1_555 1_555
C20_3 C21_3 1_555 1_555
C26_3 C27_3 1_555 1_555
C28_3 O11_3 1_555 1_555
O14_3 C29_3 1_555 1_555
C34_3 C35_3 1_555 1_555
C62_3 C63_3 1_555 1_555
C68_3 C69_3 1_555 1_555
C70_3 O23_3 1_555 1_555
C70_3 O24_3 1_555 1_555
C88_3 C89_3 1_555 1_555
C108_3 N4_3 1_555 1_555
C109_3 C110_3 1_555 1_555
C109_3 N4_3 1_555 1_555
O2_3 H81_3 1_555 1_555
O2_3 H82_3 1_555 1_555
Li1_3 O1_3 1_555 1_555
Li4_2 O4_3 1_555 1_555
O5_3 Li1_3 1_555 1_555
H1_3 C3_3 1_555 1_555
C4_3 C3_3 1_555 1_555
H2_3 C4_3 1_555 1_555
H5_3 C9_3 1_555 1_555
C10_3 C9_3 1_555 1_555
H6_3 C10_3 1_555 1_555
C11_3 C10_3 1_555 1_555
C14_3 C11_3 1_555 1_555
O7_3 Li4_2 1_555 1_555
O25_3 Li1_3 1_555 1_555
C71_3 O25_3 1_555 1_555
C72_3 C71_3 1_555 1_555
C73_3 C72_3 1_555 1_555
H41_3 C73_3 1_555 1_555
C74_3 C73_3 1_555 1_555
H42_3 C74_3 1_555 1_555
C75_3 C74_3 1_555 1_555
C76_3 C75_3 1_555 1_555
C77_3 C72_3 1_555 1_555
H44_3 C77_3 1_555 1_555
O31_2 Li4_2 1_555 1_555
C14_3 O7_3 1_555 1_555
C76_3 C77_3 1_555 1_555
O4_3 H79_3 1_555 1_555
O4_3 H80_3 1_555 1_555
O1_3 H83_3 1_555 1_555
O1_3 H84_3 1_555 1_555
Li7_2 O4_4 1_555 1_555
C10_4 C9_4 1_555 1_555
H6_4 C10_4 1_555 1_555
C11_4 C10_4 1_555 1_555
C14_4 C11_4 1_555 1_555
O7_4 Li7_2 1_555 1_555
C14_4 O7_4 1_555 1_555
O4_4 H79_4 1_555 1_555
O4_4 H80_4 1_555 1_555
O33_2 C57_4 1_555 1_555
O34_2 C57_4 1_555 1_555
C57_4 C58_4 1_555 1_555
C58_4 C59_4 1_555 1_555
C59_4 H33_4 1_555 1_555
C60_4 C59_4 1_555 1_555
C61_4 C60_4 1_555 1_555
C62_4 C61_4 1_555 1_555
H35_4 C62_4 1_555 1_555
C63_4 C58_4 1_555 1_555
H36_4 C63_4 1_555 1_555
C62_4 C63_4 1_555 1_555
Zn8 O8_4 1_555 1_555
Zn6_2 O18_4 1_555 1_555
Li1_4 O1_4 1_555 1_555
Li5_2 O3_4 1_555 1_555
O5_4 Li1_4 1_555 1_555
O17_4 Li5_2 1_555 1_555
O18_4 C43_4 1_555 1_555
C43_4 O17_4 1_555 1_555
C44_4 C43_4 1_555 1_555
C45_4 C44_4 1_555 1_555
H25_4 C45_4 1_555 1_555
C46_4 C45_4 1_555 1_555
H26_4 C46_4 1_555 1_555
C47_4 C46_4 1_555 1_555
C48_4 C47_4 1_555 1_555
H27_4 C48_4 1_555 1_555
C49_4 C44_4 1_555 1_555
H28_4 C49_4 1_555 1_555
C50_4 C47_4 1_555 1_555
C51_4 C50_4 1_555 1_555
H29_4 C51_4 1_555 1_555
C52_4 C51_4 1_555 1_555
H30_4 C52_4 1_555 1_555
C53_4 C52_4 1_555 1_555
C54_4 C53_4 1_555 1_555
H31_4 C54_4 1_555 1_555
C55_4 C50_4 1_555 1_555
H32_4 C55_4 1_555 1_555
C56_4 C53_4 1_555 1_555
O31_2 C56_4 1_555 1_555
O32_2 C56_4 1_555 1_555
O25_4 Li1_4 1_555 1_555
C71_4 O25_4 1_555 1_555
C72_4 C71_4 1_555 1_555
C73_4 C72_4 1_555 1_555
H41_4 C73_4 1_555 1_555
C74_4 C73_4 1_555 1_555
H42_4 C74_4 1_555 1_555
C75_4 C74_4 1_555 1_555
C76_4 C75_4 1_555 1_555
H43_4 C76_4 1_555 1_555
C77_4 C72_4 1_555 1_555
H44_4 C77_4 1_555 1_555
C78_4 C75_4 1_555 1_555
C79_4 C78_4 1_555 1_555
H45_4 C79_4 1_555 1_555
C80_4 C79_4 1_555 1_555
H46_4 C80_4 1_555 1_555
C81_4 C80_4 1_555 1_555
C82_4 C81_4 1_555 1_555
H47_4 C82_4 1_555 1_555
C83_4 C78_4 1_555 1_555
H48_4 C83_4 1_555 1_555
C84_4 C81_4 1_555 1_555
O27_4 Zn6_2 1_555 1_555
O28_4 Li5_2 1_555 1_555
N5_2 Zn6_2 1_555 1_555
C48_4 C49_4 1_555 1_555
C54_4 C55_4 1_555 1_555
C76_4 C77_4 1_555 1_555
C82_4 C83_4 1_555 1_555
C84_4 O27_4 1_555 1_555
C84_4 O28_4 1_555 1_555
O3_4 H77_4 1_555 1_555
O3_4 H78_4 1_555 1_555
O1_4 H83_4 1_555 1_555
O1_4 H84_4 1_555 1_555
Zn1_4 O6_4 1_555 1_555
Zn2_4 O12_4 1_555 1_555
Li2_4 O2_4 1_555 1_555
O6_4 C1_4 1_555 1_555
C2_4 C1_4 1_555 1_555
H3_4 C6_4 1_555 1_555
C7_4 C2_4 1_555 1_555
H4_4 C7_4 1_555 1_555
O10_4 Zn1_4 1_555 1_555
C15_4 O9_4 1_555 1_555
C16_4 C15_4 1_555 1_555
C17_4 C16_4 1_555 1_555
H9_4 C17_4 1_555 1_555
C18_4 C17_4 1_555 1_555
H10_4 C18_4 1_555 1_555
C19_4 C18_4 1_555 1_555
C20_4 C19_4 1_555 1_555
H11_4 C20_4 1_555 1_555
C21_4 C16_4 1_555 1_555
H12_4 C21_4 1_555 1_555
C22_4 C19_4 1_555 1_555
C23_4 C22_4 1_555 1_555
H13_4 C23_4 1_555 1_555
C24_4 C23_4 1_555 1_555
H14_4 C24_4 1_555 1_555
C25_4 C24_4 1_555 1_555
C26_4 C25_4 1_555 1_555
H15_4 C26_4 1_555 1_555
C27_4 C22_4 1_555 1_555
H16_4 C27_4 1_555 1_555
C28_4 C25_4 1_555 1_555
O11_4 Li2_4 1_555 1_555
O12_4 C28_4 1_555 1_555
O13_4 Li2_4 1_555 1_555
O14_4 Zn2_4 1_555 1_555
C29_4 O13_4 1_555 1_555
C30_4 C29_4 1_555 1_555
C31_4 C30_4 1_555 1_555
H17_4 C31_4 1_555 1_555
C32_4 C31_4 1_555 1_555
H18_3 C32_4 1_555 1_555
C33_4 C32_4 1_555 1_555
C34_4 C33_4 1_555 1_555
H19_4 C34_4 1_555 1_555
C35_4 C30_4 1_555 1_555
H20_4 C35_4 1_555 1_555
C36_3 C33_4 1_555 1_555
C37_3 C36_3 1_555 1_555
H21_3 C37_3 1_555 1_555
C38_3 C37_3 1_555 1_555
H22_3 C38_3 1_555 1_555
C39_4 C38_3 1_555 1_555
C40_4 C39_4 1_555 1_555
H23_4 C40_4 1_555 1_555
C41_4 C36_3 1_555 1_555
H24_4 C41_4 1_555 1_555
C42_4 C39_4 1_555 1_555
O29_2 C42_4 1_555 1_555
O30_2 C42_4 1_555 1_555
C65_4 C64_4 1_555 1_555
H37_4 C65_4 1_555 1_555
C66_4 C65_4 1_555 1_555
H38_4 C66_4 1_555 1_555
C67_4 C66_4 1_555 1_555
C68_4 C67_4 1_555 1_555
H39_4 C68_4 1_555 1_555
C69_4 C64_4 1_555 1_555
C70_4 C67_4 1_555 1_555
O23_4 Zn2_4 1_555 1_555
O24_4 Li2_4 1_555 1_555
O26_4 Zn1_4 1_555 1_555
N1_4 Zn1_4 1_555 1_555
C85_4 N1_4 1_555 1_555
H49_4 C85_4 1_555 1_555
C86_4 C85_4 1_555 1_555
H50_4 C86_4 1_555 1_555
C87_4 C86_4 1_555 1_555
C88_4 C87_4 1_555 1_555
H51_4 C88_4 1_555 1_555
C89_4 N1_4 1_555 1_555
H52_4 C89_4 1_555 1_555
C90_4 C87_4 1_555 1_555
H53_4 C90_4 1_555 1_555
H54_4 C90_4 1_555 1_555
C91_4 C90_4 1_555 1_555
H55_4 C91_4 1_555 1_555
H56_4 C91_4 1_555 1_555
C92_4 C91_4 1_555 1_555
H57_4 C92_4 1_555 1_555
H58_4 C92_4 1_555 1_555
C93_4 C92_4 1_555 1_555
C94_4 C93_4 1_555 1_555
H59_4 C94_4 1_555 1_555
C95_4 C94_4 1_555 1_555
H60_4 C95_4 1_555 1_555
C96_4 H61_4 1_555 1_555
C97_4 C93_4 1_555 1_555
H62_4 C97_4 1_555 1_555
N5_2 C95_4 1_555 1_555
N6_2 C98_4 1_555 1_555
C98_4 H63_4 1_555 1_555
C99_4 C98_4 1_555 1_555
H64_4 C99_4 1_555 1_555
C100_4 C99_4 1_555 1_555
C101_4 C100_4 1_555 1_555
H65_4 C101_4 1_555 1_555
C102_4 N6_2 1_555 1_555
H66_4 C102_4 1_555 1_555
C103_4 C100_4 1_555 1_555
H67_4 C103_4 1_555 1_555
H68_4 C103_4 1_555 1_555
C104_4 C103_4 1_555 1_555
H69_4 C104_4 1_555 1_555
H70_4 C104_4 1_555 1_555
C105_4 C104_4 1_555 1_555
H71_4 C105_4 1_555 1_555
H72_4 C105_4 1_555 1_555
C106_4 C105_4 1_555 1_555
C107_4 C106_4 1_555 1_555
H73_4 C107_4 1_555 1_555
C108_4 C107_4 1_555 1_555
H74_4 C108_4 1_555 1_555
C109_4 H75_4 1_555 1_555
C110_4 C106_4 1_555 1_555
H76_4 C110_4 1_555 1_555
N4_4 Zn2_4 1_555 1_555
C6_4 C7_4 1_555 1_555
O10_4 C15_4 1_555 1_555
C20_4 C21_4 1_555 1_555
C26_4 C27_4 1_555 1_555
C28_4 O11_4 1_555 1_555
O14_4 C29_4 1_555 1_555
C34_4 C35_4 1_555 1_555
C40_4 C41_4 1_555 1_555
C68_4 C69_4 1_555 1_555
C70_4 O23_4 1_555 1_555
C70_4 O24_4 1_555 1_555
C88_4 C89_4 1_555 1_555
C96_4 C97_4 1_555 1_555
C96_4 N5_2 1_555 1_555
C101_4 C102_4 1_555 1_555
C108_4 N4_4 1_555 1_555
C109_4 C110_4 1_555 1_555
C109_4 N4_4 1_555 1_555
O2_4 H81_4 1_555 1_555
O2_4 H82_4 1_555 1_555
C37_4 C36_4 1_555 1_555
H21_4 C37_4 1_555 1_555
C38_4 C37_4 1_555 1_555
H22_4 C38_4 1_555 1_555
H2_4 C4_4 1_555 1_555
H8_4 C13_4 1_555 1_555

#END
