
###############################################################################
#
# This file contains modified crystal structure data generated from the
# MOF subset of the Cambridge Structural Database (CSD) v543 
# hosted by the Cambridge Crystallographic Data Centre (CCDC).
#
# This work is licensed under the Creative Commons
# Attribution-NonCommercial-ShareAlike 4.0 International License.
# To view a copy of this license, visit
# http://creativecommons.org/licenses/by-nc-sa/4.0/
# or send a letter to
# Creative Commons, PO Box 1866, Mountain View, CA 94042, USA.
#
# CIF created using the CSD Python API on 29 September 2022
# The structure has been converted into the P1 space group
# The structure has a 3D framework
# The original CSD entry RIGTIL is in the monoclinic crystal system
# The framework has been calculated to contain at least 10.0% void space
# The void calculation uses a probe of radius 1.32A, grid spacing 0.4
# The framework is charged, counterions have been retained in the structure
#
###############################################################################

data_RIGTIL
_chemical_formula_moiety         '(C52 H56 N8 O32)n'
_symmetry_cell_setting           triclinic
_symmetry_space_group_name_H-M   'P 1'
_symmetry_Int_Tables_number      1
_space_group_name_Hall           'P 1'
loop_
_symmetry_equiv_pos_site_id
_symmetry_equiv_pos_as_xyz
1 x,y,z
_cell_length_a                   9.4116(5)
_cell_length_b                   13.2967(7)
_cell_length_c                   14.9365(7)
_cell_angle_alpha                90
_cell_angle_beta                 98.019(1)
_cell_angle_gamma                90
_cell_volume                     1850.92
loop_
_atom_site_label
_atom_site_type_symbol
_atom_site_fract_x
_atom_site_fract_y
_atom_site_fract_z
Zn1 Zn 0.03224(3) 0.868391(18) 0.655799(16)
O5 O 0.20752(18) 0.67090(13) 0.66424(12)
C6 C 0.0402(2) 0.57553(16) 0.56367(15)
C7 C 0.0576(2) 0.58931(16) 0.47342(15)
H2 H 0.0973 0.6504 0.4552
C9 C 0.0823(2) 0.66294(17) 0.62596(15)
Zn7 Zn 0.03224(3) 0.631609(18) 0.155799(16)
O12 O 0.19966(17) 0.92584(13) 0.61094(11)
O16 O 0.01647(18) 0.27186(12) 0.37250(12)
O18 O 0.04691(18) 0.62364(12) 0.28851(11)
O19 O 0.04691(18) 0.87636(12) 0.78851(11)
O21 O 0.0393(2) 0.45944(14) 0.26156(12)
C18 C 0.0176(2) 0.51486(16) 0.40971(15)
C20 C 0.0358(2) 0.53321(17) 0.31313(15)
O3 O 0.80034(17) 0.07416(13) 0.38906(11)
O4 O 0.82316(18) 0.16056(13) 0.51950(12)
C2 C 0.6302(2) 0.04428(17) 0.48554(15)
C5 C 0.7643(2) 0.09738(17) 0.46576(15)
Zn3 Zn 0.96776(3) 0.131609(18) 0.344201(16)
O9 O 0.12169(17) 0.06008(13) 0.42654(12)
O10 O 0.2471(2) 0.11654(15) 0.32229(13)
C11 C 0.3718(2) 0.02922(17) 0.44759(15)
C13 C 0.5024(2) 0.07187(17) 0.43349(15)
H3 H 0.5037 0.1208 0.3873
C14 C 0.2385(2) 0.07046(17) 0.39364(15)
O1 O 0.87831(17) 0.93992(13) 0.57346(12)
O2 O 0.7529(2) 0.88346(15) 0.67771(13)
C1 C 0.6282(2) 0.97078(17) 0.55241(15)
C3 C 0.4976(2) 0.92813(17) 0.56651(15)
H1 H 0.4963 0.8792 0.6127
C4 C 0.7615(2) 0.92954(17) 0.60636(15)
O6 O 0.98353(18) 0.72814(12) 0.62750(12)
O7 O 0.95309(18) 0.37636(12) 0.71149(11)
O8 O 0.9607(2) 0.54056(14) 0.73844(12)
C8 C 0.9824(2) 0.48514(16) 0.59029(15)
C10 C 0.9642(2) 0.46679(17) 0.68687(15)
Zn4 Zn 0.96776(3) 0.368391(18) 0.844201(16)
O14 O 0.17684(18) 0.83944(13) 0.48050(12)
C12 C 0.3698(2) 0.95572(17) 0.51446(15)
C15 C 0.2357(2) 0.90262(17) 0.53424(15)
O15 O 0.79248(18) 0.32910(13) 0.33576(12)
C16 C 0.9598(2) 0.42447(16) 0.43633(15)
C17 C 0.9424(2) 0.41069(16) 0.52658(15)
H4 H 0.9027 0.3496 0.5448
C19 C 0.9177(2) 0.33706(17) 0.37404(15)
O20 O 0.95309(18) 0.12364(12) 0.21149(11)
O13 O 0.19966(17) 0.57416(13) 0.11094(11)
C2_2 C 0.3698(2) 0.54428(17) 0.01446(15)
C5_2 C 0.2357(2) 0.59738(17) 0.03424(15)
O9_2 O 0.87831(17) 0.56008(13) 0.07346(12)
O10_2 O 0.7529(2) 0.61654(15) 0.17771(13)
O14_2 O 0.82316(18) 0.33944(13) 0.01950(12)
C11_2 C 0.6282(2) 0.52922(17) 0.05241(15)
C13_2 C 0.4976(2) 0.57187(17) 0.06651(15)
H3_2 H 0.4963 0.6208 0.1127
C14_2 C 0.7615(2) 0.57046(17) 0.10636(15)
O17 O 0.98353(18) 0.77186(12) 0.12750(12)
O1_2 O 0.12169(17) 0.43992(13) 0.92654(12)
O2_2 O 0.2471(2) 0.38346(15) 0.82229(13)
O4_2 O 0.17684(18) 0.66056(13) 0.98050(12)
C1_2 C 0.3718(2) 0.47078(17) 0.94759(15)
C3_2 C 0.5024(2) 0.42813(17) 0.93349(15)
H1_2 H 0.5037 0.3792 0.8873
C4_2 C 0.2385(2) 0.42954(17) 0.89364(15)
O6_2 O 0.01647(18) 0.22814(12) 0.87250(12)
O8_2 O 0.0393(2) 0.04056(14) 0.76156(12)
O11 O 0.80034(17) 0.42584(13) 0.88906(11)
C12_2 C 0.6302(2) 0.45572(17) 0.98554(15)
C15_2 C 0.7643(2) 0.40262(17) 0.96576(15)
O15_2 O 0.20752(18) 0.82910(13) 0.16424(12)
C16_2 C 0.0402(2) 0.92447(16) 0.06367(15)
C19_2 C 0.0823(2) 0.83706(17) 0.12596(15)
C8_2 C 0.0176(2) 0.98514(16) 0.90971(15)
C10_2 C 0.0358(2) 0.96679(17) 0.81313(15)
C17_2 C 0.0576(2) 0.91069(16) 0.97342(15)
H4_2 H 0.0973 0.8496 0.9552
C7_2 C 0.9424(2) 0.08931(16) 0.02658(15)
H2_2 H 0.9027 0.1504 0.0448
C18_2 C 0.9824(2) 0.01486(16) 0.09029(15)
C20_2 C 0.9642(2) 0.03321(17) 0.18687(15)
O5_2 O 0.79248(18) 0.17090(13) 0.83576(12)
C6_2 C 0.9598(2) 0.07553(16) 0.93633(15)
C9_2 C 0.9177(2) 0.16294(17) 0.87404(15)
O21_2 O 0.9607(2) 0.95944(14) 0.23844(12)
N1 N 0.2934(3) 0.1642(3) 0.8054(2)
H5 H 0.2231 0.1212 0.8016
H6 H 0.3625 0.1541 0.8497
H7 H 0.2726 0.2256 0.8189
C21 C 0.3328(3) 0.1789(3) 0.7146(2)
H8 H 0.4383 0.2117 0.7123
H9 H 0.3743 0.1080 0.6924
C22 C 0.2738(3) 0.2619(2) 0.56495(19)
H10 H 0.1951 0.2867 0.5206
H11 H 0.3275 0.2103 0.5370
H12 H 0.3380 0.3178 0.5857
N2 N 0.1015(3) 0.1399(2) 0.6099(2)
H13 H 0.0212 0.1639 0.5766
H14 H 0.0766 0.1045 0.6556
H15 H 0.1427 0.0946 0.5692
C23 C 0.2138(3) 0.2175(4) 0.6440(2)
H16 H 0.1646 0.2717 0.6718
N1_2 N 0.7066(3) 0.6642(3) 0.6946(2)
H5_2 H 0.7769 0.6212 0.6984
H6_2 H 0.6375 0.6541 0.6503
H7_2 H 0.7274 0.7256 0.6811
C21_2 C 0.6672(3) 0.6789(3) 0.7854(2)
H8_2 H 0.5617 0.7117 0.7877
H9_2 H 0.6257 0.6080 0.8076
C22_2 C 0.7262(3) 0.7619(2) 0.93505(19)
H10_2 H 0.8049 0.7867 0.9794
H11_2 H 0.6725 0.7103 0.9630
H12_2 H 0.6620 0.8178 0.9143
N2_2 N 0.8985(3) 0.6399(2) 0.8901(2)
H13_2 H 0.9788 0.6639 0.9234
H14_2 H 0.9234 0.6045 0.8444
H15_2 H 0.8573 0.5946 0.9308
C23_2 C 0.7862(3) 0.7175(4) 0.8560(2)
H16_2 H 0.8354 0.7717 0.8282
N1_3 N 0.7066(3) 0.8358(3) 0.1946(2)
H5_3 H 0.7769 0.8788 0.1984
H6_3 H 0.6375 0.8459 0.1503
H7_3 H 0.7274 0.7744 0.1811
C21_3 C 0.6672(3) 0.8211(3) 0.2854(2)
H8_3 H 0.5617 0.7883 0.2877
H9_3 H 0.6257 0.8920 0.3076
C22_3 C 0.7262(3) 0.7381(2) 0.43505(19)
H10_3 H 0.8049 0.7133 0.4794
H11_3 H 0.6725 0.7897 0.4630
H12_3 H 0.6620 0.6822 0.4143
N2_3 N 0.8985(3) 0.8601(2) 0.3901(2)
H13_3 H 0.9788 0.8361 0.4234
H14_3 H 0.9234 0.8955 0.3444
H15_3 H 0.8573 0.9054 0.4308
C23_3 C 0.7862(3) 0.7825(4) 0.3560(2)
H16_3 H 0.8354 0.7283 0.3282
N1_4 N 0.2934(3) 0.3358(3) 0.3054(2)
H5_4 H 0.2231 0.3788 0.3016
H6_4 H 0.3625 0.3459 0.3497
H7_4 H 0.2726 0.2744 0.3189
C21_4 C 0.3328(3) 0.3211(3) 0.2146(2)
H8_4 H 0.4383 0.2883 0.2123
H9_4 H 0.3743 0.3920 0.1924
C22_4 C 0.2738(3) 0.2381(2) 0.06495(19)
H10_4 H 0.1951 0.2133 0.0206
H11_4 H 0.3275 0.2897 0.0370
H12_4 H 0.3380 0.1822 0.0857
N2_4 N 0.1015(3) 0.3601(2) 0.1099(2)
H13_4 H 0.0212 0.3361 0.0766
H14_4 H 0.0766 0.3955 0.1556
H15_4 H 0.1427 0.4054 0.0692
C23_4 C 0.2138(3) 0.2825(4) 0.1440(2)
H16_4 H 0.1646 0.2283 0.1718
loop_
_geom_bond_atom_site_label_1
_geom_bond_atom_site_label_2
_geom_bond_site_symmetry_1
_geom_bond_site_symmetry_2
O5 C9 1_555 1_555
C6 C7 1_555 1_555
C7 H2 1_555 1_555
Zn7 O18 1_555 1_555
O12 Zn1 1_555 1_555
O18 C20 1_555 1_555
O19 Zn1 1_555 1_555
O21 C20 1_555 1_555
C18 C7 1_555 1_555
C20 C18 1_555 1_555
C6 C9 1_555 1_555
O3 C5 1_555 1_555
O4 C5 1_555 1_555
C2 C5 1_555 1_555
Zn3 O3 1_555 1_555
O9 C14 1_555 1_555
O10 C14 1_555 1_555
C13 C2 1_555 1_555
H3 C13 1_555 1_555
C14 C11 1_555 1_555
C11 C13 1_555 1_555
O1 C4 1_555 1_555
O2 C4 1_555 1_555
C3 C1 1_555 1_555
H1 C3 1_555 1_555
C4 C1 1_555 1_555
O7 C10 1_555 1_555
O8 C10 1_555 1_555
C10 C8 1_555 1_555
Zn4 O7 1_555 1_555
O12 C15 1_555 1_555
O14 C15 1_555 1_555
C12 C3 1_555 1_555
C15 C12 1_555 1_555
O15 C19 1_555 1_555
C16 C17 1_555 1_555
C17 C8 1_555 1_555
H4 C17 1_555 1_555
C19 C16 1_555 1_555
O20 Zn3 1_555 1_555
O13 Zn7 1_555 1_555
O13 C5_2 1_555 1_555
C2_2 C5_2 1_555 1_555
O9_2 C14_2 1_555 1_555
O10_2 C14_2 1_555 1_555
C13_2 C2_2 1_555 1_555
H3_2 C13_2 1_555 1_555
C14_2 C11_2 1_555 1_555
C11_2 C13_2 1_555 1_555
O1_2 C4_2 1_555 1_555
O2_2 C4_2 1_555 1_555
C3_2 C1_2 1_555 1_555
H1_2 C3_2 1_555 1_555
C4_2 C1_2 1_555 1_555
Zn4 O11 1_555 1_555
O11 C15_2 1_555 1_555
C12_2 C3_2 1_555 1_555
C15_2 C12_2 1_555 1_555
O15_2 C19_2 1_555 1_555
C19_2 C16_2 1_555 1_555
O19 C10_2 1_555 1_555
C10_2 C8_2 1_555 1_555
C17_2 C8_2 1_555 1_555
H4_2 C17_2 1_555 1_555
C7_2 H2_2 1_555 1_555
O20 C20_2 1_555 1_555
C18_2 C7_2 1_555 1_555
C20_2 C18_2 1_555 1_555
O5_2 C9_2 1_555 1_555
C6_2 C9_2 1_555 1_555
N1 H5 1_555 1_555
H6 N1 1_555 1_555
H7 N1 1_555 1_555
C21 N1 1_555 1_555
H8 C21 1_555 1_555
H9 C21 1_555 1_555
C22 H10 1_555 1_555
H11 C22 1_555 1_555
H12 C22 1_555 1_555
N2 H13 1_555 1_555
H14 N2 1_555 1_555
H15 N2 1_555 1_555
C23 C21 1_555 1_555
H16 C23 1_555 1_555
C22 C23 1_555 1_555
N2 C23 1_555 1_555
N1_2 H5_2 1_555 1_555
H6_2 N1_2 1_555 1_555
H7_2 N1_2 1_555 1_555
C21_2 N1_2 1_555 1_555
H8_2 C21_2 1_555 1_555
H9_2 C21_2 1_555 1_555
C22_2 H10_2 1_555 1_555
H11_2 C22_2 1_555 1_555
H12_2 C22_2 1_555 1_555
N2_2 H13_2 1_555 1_555
H14_2 N2_2 1_555 1_555
H15_2 N2_2 1_555 1_555
C23_2 C21_2 1_555 1_555
H16_2 C23_2 1_555 1_555
C22_2 C23_2 1_555 1_555
N2_2 C23_2 1_555 1_555
N1_3 H5_3 1_555 1_555
H6_3 N1_3 1_555 1_555
H7_3 N1_3 1_555 1_555
C21_3 N1_3 1_555 1_555
H8_3 C21_3 1_555 1_555
H9_3 C21_3 1_555 1_555
C22_3 H10_3 1_555 1_555
H11_3 C22_3 1_555 1_555
H12_3 C22_3 1_555 1_555
N2_3 H13_3 1_555 1_555
H14_3 N2_3 1_555 1_555
H15_3 N2_3 1_555 1_555
C23_3 C21_3 1_555 1_555
H16_3 C23_3 1_555 1_555
C22_3 C23_3 1_555 1_555
N2_3 C23_3 1_555 1_555
N1_4 H5_4 1_555 1_555
H6_4 N1_4 1_555 1_555
H7_4 N1_4 1_555 1_555
C21_4 N1_4 1_555 1_555
H8_4 C21_4 1_555 1_555
H9_4 C21_4 1_555 1_555
C22_4 H10_4 1_555 1_555
H11_4 C22_4 1_555 1_555
H12_4 C22_4 1_555 1_555
N2_4 H13_4 1_555 1_555
H14_4 N2_4 1_555 1_555
H15_4 N2_4 1_555 1_555
C23_4 C21_4 1_555 1_555
H16_4 C23_4 1_555 1_555
C22_4 C23_4 1_555 1_555
N2_4 C23_4 1_555 1_555

#END
