
###############################################################################
#
# This file contains modified crystal structure data generated from the
# MOF subset of the Cambridge Structural Database (CSD) v543 
# hosted by the Cambridge Crystallographic Data Centre (CCDC).
#
# This work is licensed under the Creative Commons
# Attribution-NonCommercial-ShareAlike 4.0 International License.
# To view a copy of this license, visit
# http://creativecommons.org/licenses/by-nc-sa/4.0/
# or send a letter to
# Creative Commons, PO Box 1866, Mountain View, CA 94042, USA.
#
# CIF created using the CSD Python API on 29 September 2022
# The structure has been converted into the P1 space group
# The structure has a 3D framework
# The original CSD entry RIGWIP is in the monoclinic crystal system
# The framework has been calculated to contain at least 10.0% void space
# The void calculation uses a probe of radius 1.32A, grid spacing 0.4
#
###############################################################################

data_RIGWIP
_chemical_formula_moiety         '(C48 H16 Eu5 N16 O29)n'
_symmetry_cell_setting           triclinic
_symmetry_space_group_name_H-M   'P 1'
_symmetry_Int_Tables_number      1
_space_group_name_Hall           'P 1'
loop_
_symmetry_equiv_pos_site_id
_symmetry_equiv_pos_as_xyz
1 x,y,z
_cell_length_a                   7.5755(5)
_cell_length_b                   15.6186(12)
_cell_length_c                   16.6991(12)
_cell_angle_alpha                90
_cell_angle_beta                 94.3750(10)
_cell_angle_gamma                90
_cell_volume                     1970.06
loop_
_atom_site_label
_atom_site_type_symbol
_atom_site_fract_x
_atom_site_fract_y
_atom_site_fract_z
C1 C 0.7418(7) 0.1918(4) 0.5501(3)
C2 C 0.6004(7) 0.2346(4) 0.5948(3)
C3 C 0.6443(7) 0.2893(4) 0.6589(3)
H1 H 0.7610 0.3048 0.6732
C4 C 0.5070(7) 0.3193(4) 0.7001(3)
C5 C 0.5423(7) 0.3674(4) 0.7784(3)
C6 C 0.3093(8) 0.2543(4) 0.6118(3)
H2 H 0.1920 0.2461 0.5926
C10 C 0.0887(7) 0.1855(4) 0.8203(3)
C11 C 0.0855(8) 0.2616(4) 0.8770(3)
C12 C 0.2544(8) 0.0920(4) 0.7532(4)
H4 H 0.3649 0.0697 0.7441
N1 N 0.4324(6) 0.2150(3) 0.5715(3)
N2 N 0.3367(6) 0.3037(3) 0.6764(3)
N3 N 0.1150(6) 0.0595(3) 0.7097(3)
N4 N 0.2499(7) 0.1535(3) 0.8086(3)
O1 O 0.6866(5) 0.1395(2) 0.4942(2)
O2 O 0.8975(5) 0.2071(3) 0.5714(2)
O3 O 0.6884(5) 0.4042(3) 0.7890(2)
O4 O 0.4286(6) 0.3633(3) 0.8278(3)
O8 O 0.2153(5) 0.2715(3) 0.9272(2)
O9 O 0.0925(4) 0.0764(2) 0.5135(2)
O10 O 0.4195(4) 0.0094(2) 0.5736(2)
Eu1 Eu 0.37442(3) 0.102076(17) 0.459830(15)
O13 O 0.4286(6) 0.1367(3) 0.3278(3)
O14 O 0.1654(5) 0.0085(3) 0.3732(2)
O16 O 0.2153(5) 0.2285(3) 0.4272(2)
Eu5 Eu 0.37442(3) 0.397924(17) 0.959830(15)
Eu7 Eu 0.86696(3) 0.449574(17) 0.905514(15)
Eu9 Eu 0.86696(3) 0.050426(17) 0.405514(15)
Eu2 Eu 0.13304(3) 0.949574(17) 0.594486(15)
O11 O 0.3134(5) 0.8605(2) 0.5058(2)
O12 O 0.3116(5) 0.9042(3) 0.7110(2)
O15 O 0.0439(6) 0.8105(3) 0.6331(3)
O18 O 0.5805(4) 0.9906(2) 0.4264(2)
Eu4 Eu 0.62558(3) 0.897924(17) 0.540170(15)
C7 C 0.7987(7) 0.0480(4) 0.6798(3)
C8 C 0.9559(7) 0.0875(4) 0.7264(3)
C9 C 0.9359(7) 0.1526(4) 0.7812(3)
H3 H 0.8247 0.1733 0.7913
O6 O 0.6492(5) 0.0712(3) 0.6941(2)
O7 O 0.9561(6) 0.3105(3) 0.8669(3)
O5 O 0.8346(5) 0.9915(3) 0.6268(2)
O17 O 0.9075(4) 0.9236(2) 0.4865(2)
O17_2 O 0.0925(4) 0.4236(2) 0.0135(2)
Eu8 Eu 0.13304(3) 0.550426(17) 0.094486(15)
C7_2 C 0.2013(7) 0.5480(4) 0.8202(3)
C8_2 C 0.0441(7) 0.5875(4) 0.7736(3)
C9_2 C 0.0641(7) 0.6526(4) 0.7188(3)
H3_2 H 0.1753 0.6733 0.7087
O5_2 O 0.1654(5) 0.4915(3) 0.8732(2)
O6_2 O 0.3508(5) 0.5712(3) 0.8059(2)
O1_2 O 0.3134(5) 0.6395(2) 0.0058(2)
Eu1_2 Eu 0.62558(3) 0.602076(17) 0.040170(15)
O13_2 O 0.5714(6) 0.6367(3) 0.1722(3)
O14_2 O 0.8346(5) 0.5085(3) 0.1268(2)
O16_2 O 0.7847(5) 0.7285(3) 0.0728(2)
O18_2 O 0.4195(4) 0.4906(2) 0.0736(2)
C1_2 C 0.2582(7) 0.6918(4) 0.9499(3)
C2_2 C 0.3996(7) 0.7346(4) 0.9052(3)
C3_2 C 0.3557(7) 0.7893(4) 0.8411(3)
H1_2 H 0.2390 0.8048 0.8268
C4_2 C 0.4930(7) 0.8193(4) 0.7999(3)
C5_2 C 0.4577(7) 0.8674(4) 0.7216(3)
C6_2 C 0.6907(8) 0.7543(4) 0.8882(3)
H2_2 H 0.8080 0.7461 0.9074
C10_2 C 0.9113(7) 0.6855(4) 0.6797(3)
C11_2 C 0.9145(8) 0.7616(4) 0.6230(3)
C12_2 C 0.7456(8) 0.5920(4) 0.7468(4)
H4_2 H 0.6351 0.5697 0.7559
N1_2 N 0.5676(6) 0.7150(3) 0.9285(3)
N2_2 N 0.6633(6) 0.8037(3) 0.8236(3)
N3_2 N 0.8850(6) 0.5595(3) 0.7903(3)
N4_2 N 0.7501(7) 0.6535(3) 0.6914(3)
O2_2 O 0.1025(5) 0.7071(3) 0.9286(2)
O4_2 O 0.5714(6) 0.8633(3) 0.6722(3)
O8_2 O 0.7847(5) 0.7715(3) 0.5728(2)
O9_2 O 0.9075(4) 0.5764(2) 0.9865(2)
O10_2 O 0.5805(4) 0.5094(2) 0.9264(2)
O11_2 O 0.6866(5) 0.3605(2) 0.9942(2)
C7_3 C 0.2013(7) 0.9520(4) 0.3202(3)
C8_3 C 0.0441(7) 0.9125(4) 0.2736(3)
C9_3 C 0.0641(7) 0.8474(4) 0.2188(3)
H3_3 H 0.1753 0.8267 0.2087
O6_3 O 0.3508(5) 0.9288(3) 0.3059(2)
O7_2 O 0.0439(6) 0.6895(3) 0.1331(3)
O12_2 O 0.6884(5) 0.0958(3) 0.2890(2)
O15_2 O 0.9561(6) 0.1895(3) 0.3669(3)
C1_3 C 0.2582(7) 0.8082(4) 0.4499(3)
C2_3 C 0.3996(7) 0.7654(4) 0.4052(3)
C3_3 C 0.3557(7) 0.7107(4) 0.3411(3)
H1_3 H 0.2390 0.6952 0.3268
C4_3 C 0.4930(7) 0.6807(4) 0.2999(3)
C5_3 C 0.4577(7) 0.6326(4) 0.2216(3)
C6_3 C 0.6907(8) 0.7457(4) 0.3882(3)
H2_3 H 0.8080 0.7539 0.4074
C10_3 C 0.9113(7) 0.8145(4) 0.1797(3)
C11_3 C 0.9145(8) 0.7384(4) 0.1230(3)
C12_3 C 0.7456(8) 0.9080(4) 0.2468(4)
H4_3 H 0.6351 0.9303 0.2559
N1_3 N 0.5676(6) 0.7850(3) 0.4285(3)
N2_3 N 0.6633(6) 0.6963(3) 0.3236(3)
N3_3 N 0.8850(6) 0.9405(3) 0.2903(3)
N4_3 N 0.7501(7) 0.8465(3) 0.1914(3)
O2_3 O 0.1025(5) 0.7929(3) 0.4286(2)
O3_2 O 0.3116(5) 0.5958(3) 0.2110(2)
C1_4 C 0.7418(7) 0.3082(4) 0.0501(3)
C2_4 C 0.6004(7) 0.2654(4) 0.0948(3)
C3_4 C 0.6443(7) 0.2107(4) 0.1589(3)
H1_4 H 0.7610 0.1952 0.1732
C4_4 C 0.5070(7) 0.1807(4) 0.2001(3)
C5_4 C 0.5423(7) 0.1326(4) 0.2784(3)
C6_4 C 0.3093(8) 0.2457(4) 0.1118(3)
H2_4 H 0.1920 0.2539 0.0926
C10_4 C 0.0887(7) 0.3145(4) 0.3203(3)
C11_4 C 0.0855(8) 0.2384(4) 0.3770(3)
C12_4 C 0.2544(8) 0.4080(4) 0.2532(4)
H4_4 H 0.3649 0.4303 0.2441
N1_4 N 0.4324(6) 0.2850(3) 0.0715(3)
N2_4 N 0.3367(6) 0.1963(3) 0.1764(3)
N3_4 N 0.1150(6) 0.4405(3) 0.2097(3)
N4_4 N 0.2499(7) 0.3465(3) 0.3086(3)
O2_4 O 0.8975(5) 0.2929(3) 0.0714(2)
C7_4 C 0.7987(7) 0.4520(4) 0.1798(3)
C8_4 C 0.9559(7) 0.4125(4) 0.2264(3)
C9_4 C 0.9359(7) 0.3474(4) 0.2812(3)
H3_4 H 0.8247 0.3267 0.2913
O6_4 O 0.6492(5) 0.4288(3) 0.1941(2)
loop_
_geom_bond_atom_site_label_1
_geom_bond_atom_site_label_2
_geom_bond_site_symmetry_1
_geom_bond_site_symmetry_2
C1 C2 1_555 1_555
C2 C3 1_555 1_555
C3 H1 1_555 1_555
C4 C3 1_555 1_555
C5 C4 1_555 1_555
C6 H2 1_555 1_555
C11 C10 1_555 1_555
C12 H4 1_555 1_555
N1 C2 1_555 1_555
N2 C4 1_555 1_555
N4 C10 1_555 1_555
O1 C1 1_555 1_555
O2 C1 1_555 1_555
O3 C5 1_555 1_555
O4 C5 1_555 1_555
O8 C11 1_555 1_555
O9 Eu1 1_555 1_555
O10 Eu1 1_555 1_555
Eu1 N1 1_555 1_555
O13 Eu1 1_555 1_555
O14 Eu1 1_555 1_555
O16 Eu1 1_555 1_555
Eu5 O4 1_555 1_555
Eu7 O3 1_555 1_555
Eu9 O1 1_555 1_555
C6 N1 1_555 1_555
C6 N2 1_555 1_555
C12 N3 1_555 1_555
C12 N4 1_555 1_555
O1 Eu1 1_555 1_555
O8 Eu5 1_555 1_555
O11 Eu2 1_555 1_555
O12 Eu2 1_555 1_555
O15 Eu2 1_555 1_555
O11 Eu4 1_555 1_555
O18 Eu4 1_555 1_555
C7 C8 1_555 1_555
C8 C9 1_555 1_555
C9 H3 1_555 1_555
O6 C7 1_555 1_555
Eu7 O7 1_555 1_555
Eu4 O5 1_555 1_555
O17 Eu4 1_555 1_555
O17_2 Eu8 1_555 1_555
C7_2 C8_2 1_555 1_555
C8_2 C9_2 1_555 1_555
C9_2 H3_2 1_555 1_555
O5_2 C7_2 1_555 1_555
O6_2 C7_2 1_555 1_555
Eu5 O5_2 1_555 1_555
O13_2 Eu1_2 1_555 1_555
O14_2 Eu1_2 1_555 1_555
O16_2 Eu1_2 1_555 1_555
O18_2 Eu1_2 1_555 1_555
Eu8 O1_2 1_555 1_555
O1_2 Eu1_2 1_555 1_555
O18_2 Eu8 1_555 1_555
C1_2 C2_2 1_555 1_555
C2_2 C3_2 1_555 1_555
C3_2 H1_2 1_555 1_555
C4_2 C3_2 1_555 1_555
C5_2 C4_2 1_555 1_555
C6_2 H2_2 1_555 1_555
C11_2 C10_2 1_555 1_555
C12_2 H4_2 1_555 1_555
N1_2 C2_2 1_555 1_555
N2_2 C4_2 1_555 1_555
N4_2 C10_2 1_555 1_555
O2_2 C1_2 1_555 1_555
O12 C5_2 1_555 1_555
O4_2 C5_2 1_555 1_555
O8_2 C11_2 1_555 1_555
Eu7 N3_2 1_555 1_555
O11_2 Eu7 1_555 1_555
Eu5 O10_2 1_555 1_555
Eu4 O4_2 1_555 1_555
C6_2 N1_2 1_555 1_555
C6_2 N2_2 1_555 1_555
C12_2 N3_2 1_555 1_555
C12_2 N4_2 1_555 1_555
O8_2 Eu4 1_555 1_555
O9_2 Eu7 1_555 1_555
O10_2 Eu7 1_555 1_555
O11_2 Eu5 1_555 1_555
C7_3 C8_3 1_555 1_555
C8_3 C9_3 1_555 1_555
C9_3 H3_3 1_555 1_555
O6_3 C7_3 1_555 1_555
Eu8 O7_2 1_555 1_555
O12_2 Eu9 1_555 1_555
O15_2 Eu9 1_555 1_555
C1_3 C2_3 1_555 1_555
C2_3 C3_3 1_555 1_555
C3_3 H1_3 1_555 1_555
C4_3 C3_3 1_555 1_555
C5_3 C4_3 1_555 1_555
C6_3 H2_3 1_555 1_555
C11_3 C10_3 1_555 1_555
C12_3 H4_3 1_555 1_555
N1_3 C2_3 1_555 1_555
N2_3 C4_3 1_555 1_555
N4_3 C10_3 1_555 1_555
O11 C1_3 1_555 1_555
O2_3 C1_3 1_555 1_555
O3_2 C5_3 1_555 1_555
O13_2 C5_3 1_555 1_555
O16_2 C11_3 1_555 1_555
Eu4 N1_3 1_555 1_555
Eu8 O3_2 1_555 1_555
C6_3 N1_3 1_555 1_555
C6_3 N2_3 1_555 1_555
C12_3 N3_3 1_555 1_555
C12_3 N4_3 1_555 1_555
C1_4 C2_4 1_555 1_555
C2_4 C3_4 1_555 1_555
C3_4 H1_4 1_555 1_555
C4_4 C3_4 1_555 1_555
C5_4 C4_4 1_555 1_555
C6_4 H2_4 1_555 1_555
C11_4 C10_4 1_555 1_555
C12_4 H4_4 1_555 1_555
N1_4 C2_4 1_555 1_555
N2_4 C4_4 1_555 1_555
N4_4 C10_4 1_555 1_555
O2_4 C1_4 1_555 1_555
O12_2 C5_4 1_555 1_555
O13 C5_4 1_555 1_555
O16 C11_4 1_555 1_555
Eu8 N3_4 1_555 1_555
C6_4 N1_4 1_555 1_555
C6_4 N2_4 1_555 1_555
C12_4 N3_4 1_555 1_555
C12_4 N4_4 1_555 1_555
C7_4 C8_4 1_555 1_555
C8_4 C9_4 1_555 1_555
C9_4 H3_4 1_555 1_555
O14_2 C7_4 1_555 1_555
O6_4 C7_4 1_555 1_555

#END
