
###############################################################################
#
# This file contains modified crystal structure data generated from the
# MOF subset of the Cambridge Structural Database (CSD) v543 
# hosted by the Cambridge Crystallographic Data Centre (CCDC).
#
# This work is licensed under the Creative Commons
# Attribution-NonCommercial-ShareAlike 4.0 International License.
# To view a copy of this license, visit
# http://creativecommons.org/licenses/by-nc-sa/4.0/
# or send a letter to
# Creative Commons, PO Box 1866, Mountain View, CA 94042, USA.
#
# CIF created using the CSD Python API on 29 September 2022
# The structure has been converted into the P1 space group
# The structure has a 3D framework
# The original CSD entry RIGYOY is in the monoclinic crystal system
# The framework has been calculated to contain at least 10.0% void space
# The void calculation uses a probe of radius 1.32A, grid spacing 0.4
#
###############################################################################

data_RIGYOY
_chemical_formula_moiety         '(C50 H44 Cu4 Ge6 N12 O32)n'
_symmetry_cell_setting           triclinic
_symmetry_space_group_name_H-M   'P 1'
_symmetry_Int_Tables_number      1
_space_group_name_Hall           'P 1'
loop_
_symmetry_equiv_pos_site_id
_symmetry_equiv_pos_as_xyz
1 x,y,z
_cell_length_a                   7.71211(16)
_cell_length_b                   14.4588(3)
_cell_length_c                   18.6934(4)
_cell_angle_alpha                90
_cell_angle_beta                 91.543(2)
_cell_angle_gamma                90
_cell_volume                     2083.71
loop_
_atom_site_label
_atom_site_type_symbol
_atom_site_fract_x
_atom_site_fract_y
_atom_site_fract_z
H12 H 0.0028 0.5505 0.1323
N6 N 0.0707(3) 0.41977(18) 0.11201(14)
H13 H 0.0423 0.4181 0.0656
H14 H 0.1852 0.4263 0.1167
Ge1 Ge -0.0000 1.0000 0.5000
Cu2 Cu 0.50503(5) 0.80256(3) 0.33999(2)
O9 O 0.1207(2) 0.89176(14) 0.49967(11)
O13 O 0.8595(3) 0.39161(15) 0.21713(12)
O14 O 0.3409(3) 0.73043(16) 0.39391(13)
O15 O 0.1085(3) 0.80489(19) 0.34913(12)
N4 N 0.9861(3) 0.49415(18) 0.14519(14)
N5 N 0.6139(3) 0.69531(19) 0.29293(14)
C14 C 0.1831(4) 0.7583(2) 0.39565(16)
C15 C 0.8809(4) 0.4734(2) 0.19661(16)
C16 C 0.0001(4) 0.8178(2) 0.49428(15)
C18 C 0.7877(4) 0.5508(2) 0.23042(16)
C19 C 0.0874(4) 0.7329(2) 0.46255(17)
H15 H 0.0004 0.6864 0.4510
H16 H 0.1684 0.7067 0.4976
H17 H 0.0321 0.7726 0.5981
C21 C 0.6213(4) 0.5394(2) 0.25293(19)
H19 H 0.5652 0.4828 0.2473
C22 C 0.5383(4) 0.6131(2) 0.28405(19)
H20 H 0.4256 0.6051 0.2994
C23 C 0.7765(5) 0.7057(3) 0.2720(2)
H21 H 0.8309 0.7625 0.2792
C24 C 0.8669(4) 0.6356(3) 0.2401(2)
H22 H 0.9797 0.6452 0.2254
Cu6 Cu 0.99497(5) 0.30256(3) 0.16001(2)
O18 O 0.7364(3) 0.79461(17) 0.42450(12)
O20 O 0.6405(3) 0.89161(15) 0.28287(12)
N8 N 0.4293(3) 0.91977(18) 0.38799(14)
Ge1_2 Ge 1.0000 1.0000 0.5000
O10 O 0.8779(3) 0.96086(15) 0.58414(11)
O11 O 0.8297(3) 0.93886(15) 0.44228(11)
O16 O 0.7765(3) 0.86259(18) 0.66254(12)
C13 C 0.8434(4) 0.8496(2) 0.44845(15)
C16_2 C 1.0001(4) 0.8178(2) 0.49428(15)
C17 C 0.8576(4) 0.8772(2) 0.60811(15)
C20 C 0.9355(4) 0.7963(2) 0.56926(16)
H18 H 0.8492 0.7477 0.5653
Ge1_3 Ge 0.5000 0.5000 0.0000
O2 O 0.3779(3) 0.53914(15) 0.08414(11)
O8 O 0.2765(3) 0.63741(18) 0.16254(12)
C5 C 0.3576(4) 0.6228(2) 0.10811(15)
C8 C 0.4355(4) 0.7037(2) 0.06926(16)
H6 H 0.5321 0.7274 0.0981
H7 H 0.3492 0.7523 0.0653
O9_2 O 0.3793(2) 0.39176(14) 0.00033(11)
O11_2 O 0.6703(3) 0.43886(15) 0.05772(11)
O12 O 0.7636(3) 0.29461(17) 0.07550(12)
O14_2 O 0.1591(3) 0.23043(16) 0.10609(13)
O15_2 O 0.3915(3) 0.30489(19) 0.15087(12)
C13_2 C 0.6566(4) 0.3496(2) 0.05155(15)
C14_2 C 0.3169(4) 0.2583(2) 0.10435(16)
C16_3 C 0.4999(4) 0.3178(2) 0.00572(15)
C19_2 C 0.4126(4) 0.2329(2) 0.03745(17)
H15_2 H 0.4996 0.1864 0.0490
H16_2 H 0.3316 0.2067 0.0024
H20_2 H 0.0744 0.1051 0.2006
H12_2 H 0.4972 0.0505 0.3677
N5_2 N 0.8861(3) 0.19531(19) 0.20707(14)
C18_2 C 0.7123(4) 0.0508(2) 0.26958(16)
C21_2 C 0.8787(4) 0.0394(2) 0.24707(19)
C22_2 C 0.9617(4) 0.1131(2) 0.21595(19)
C23_2 C 0.7235(5) 0.2057(3) 0.2280(2)
H21_2 H 0.6691 0.2625 0.2208
C24_2 C 0.6331(4) 0.1356(3) 0.2599(2)
H22_2 H 0.5203 0.1452 0.2746
N4_2 N 0.5139(3) 0.99415(18) 0.35481(14)
H13_2 H 0.4577 0.9181 0.4344
H14_2 H 0.3148 0.9263 0.3833
C15_2 C 0.6191(4) 0.9734(2) 0.30339(16)
H19_2 H 0.9348 0.9828 0.2527
Ge1_4 Ge 0.0000 0.0000 0.5000
O2_2 O 0.1221(3) 0.03914(15) 0.41586(11)
O3 O 0.1703(3) 0.06114(15) 0.55772(11)
O4 O 0.2636(3) 0.20539(17) 0.57550(12)
O8_2 O 0.2235(3) 0.13741(18) 0.33746(12)
C1 C 0.1566(4) 0.1504(2) 0.55155(15)
C4 C -0.0001(4) 0.1822(2) 0.50572(15)
C5_2 C 0.1424(4) 0.1228(2) 0.39189(15)
C8_2 C 0.0645(4) 0.2037(2) 0.43074(16)
H7_2 H 0.1508 0.2523 0.4347
Cu3 Cu 0.49497(5) 0.19744(3) 0.66001(2)
Ge1_5 Ge 1.0000 0.0000 0.5000
O1 O 0.8793(2) 0.10824(14) 0.50033(11)
O5 O 0.1405(3) 0.60839(15) 0.78287(12)
O6 O 0.6591(3) 0.26957(16) 0.60609(13)
O7 O 0.8915(3) 0.19511(19) 0.65087(12)
N1 N 0.0139(3) 0.50585(18) 0.85481(14)
N2 N 0.3861(3) 0.30469(19) 0.70707(14)
C2 C 0.8169(4) 0.2417(2) 0.60435(16)
C3 C 0.1191(4) 0.5266(2) 0.80339(16)
C4_2 C 0.9999(4) 0.1822(2) 0.50572(15)
C6 C 0.2123(4) 0.4492(2) 0.76958(16)
C7 C 0.9126(4) 0.2671(2) 0.53745(17)
H4 H 0.9996 0.3136 0.5490
H5 H 0.8316 0.2933 0.5024
H6_2 H 0.9679 0.2274 0.4019
C9 C 0.3787(4) 0.4606(2) 0.74707(19)
H8 H 0.4348 0.5172 0.7527
C10 C 0.4617(4) 0.3869(2) 0.71595(19)
H9 H 0.5744 0.3949 0.7006
C11 C 0.2235(5) 0.2943(3) 0.7280(2)
H10 H 0.1691 0.2375 0.7208
C12 C 0.1331(4) 0.3644(3) 0.7599(2)
H11 H 0.0203 0.3548 0.7746
Cu4 Cu 0.00503(5) 0.69744(3) 0.83999(2)
O19 O 0.3595(3) 0.10839(15) 0.71713(12)
N7 N 0.5707(3) 0.08023(18) 0.61201(14)
H1 H 0.9972 0.4495 0.8677
N3 N 0.9293(3) 0.58023(18) 0.88799(14)
H2 H 0.9577 0.5819 0.9344
H3 H 0.8148 0.5737 0.8833
N1_2 N 0.4861(3) 0.00585(18) 0.64519(14)
H2_2 H 0.5423 0.0819 0.5656
H3_2 H 0.6852 0.0737 0.6167
C3_2 C 0.3809(4) 0.0266(2) 0.69661(16)
H8_2 H 0.0652 0.0172 0.7473
H1_2 H 0.5028 0.9495 0.6323
N2_2 N 0.1139(3) 0.80469(19) 0.79293(14)
C6_2 C 0.2877(4) 0.9492(2) 0.73042(16)
C9_2 C 0.1213(4) 0.9606(2) 0.75293(19)
C10_2 C 0.0383(4) 0.8869(2) 0.78405(19)
C11_2 C 0.2765(5) 0.7943(3) 0.7720(2)
H10_2 H 0.3309 0.7375 0.7792
C12_2 C 0.3669(4) 0.8644(3) 0.7401(2)
H11_2 H 0.4797 0.8548 0.7254
O17 O 0.2364(3) 0.70539(17) 0.92450(12)
Ge1_6 Ge 0.5000 0.5000 1.0000
O1_2 O 0.6207(2) 0.60824(14) 0.99967(11)
O3_2 O 0.3297(3) 0.56114(15) 0.94228(11)
O6_2 O 0.8409(3) 0.76957(16) 0.89391(13)
O7_2 O 0.6085(3) 0.69511(19) 0.84913(12)
C1_2 C 0.3434(4) 0.6504(2) 0.94845(15)
C2_2 C 0.6831(4) 0.7417(2) 0.89565(16)
C4_3 C 0.5001(4) 0.6822(2) 0.99428(15)
C7_2 C 0.5874(4) 0.7671(2) 0.96255(17)
H4_2 H 0.5004 0.8136 0.9510
H5_2 H 0.6684 0.7933 0.9976
H9_2 H 0.9256 0.8949 0.7994
O10_2 O 0.6221(3) 0.46086(15) 0.91586(11)
O16_2 O 0.7235(3) 0.36259(18) 0.83746(12)
C17_2 C 0.6424(4) 0.3772(2) 0.89189(15)
C20_2 C 0.5645(4) 0.2963(2) 0.93074(16)
H17_2 H 0.4679 0.2726 0.9019
H18_2 H 0.6508 0.2477 0.9347
loop_
_geom_bond_atom_site_label_1
_geom_bond_atom_site_label_2
_geom_bond_site_symmetry_1
_geom_bond_site_symmetry_2
H13 N6 1_555 1_555
H14 N6 1_555 1_555
Cu2 O14 1_555 1_555
O9 Ge1 1_555 1_555
O13 C15 1_555 1_555
O14 C14 1_555 1_555
O15 C14 1_555 1_555
N5 Cu2 1_555 1_555
C14 C19 1_555 1_555
C15 N4 1_555 1_555
C16 O9 1_555 1_555
C18 C15 1_555 1_555
C19 C16 1_555 1_555
H15 C19 1_555 1_555
H16 C19 1_555 1_555
C21 C18 1_555 1_555
H19 C21 1_555 1_555
C22 N5 1_555 1_555
H20 C22 1_555 1_555
C23 N5 1_555 1_555
H21 C23 1_555 1_555
C24 C18 1_555 1_555
H22 C24 1_555 1_555
Cu6 O13 1_555 1_555
O18 Cu2 1_555 1_555
O20 Cu2 1_555 1_555
N8 Cu2 1_555 1_555
C21 C22 1_555 1_555
C23 C24 1_555 1_555
O10 Ge1_2 1_555 1_555
O11 Ge1_2 1_555 1_555
O18 C13 1_555 1_555
O16 C17 1_555 1_555
C13 O11 1_555 1_555
C17 O10 1_555 1_555
C20 C16_2 1_555 1_555
H18 C20 1_555 1_555
C13 C16_2 1_555 1_555
C17 C20 1_555 1_555
O2 Ge1_3 1_555 1_555
O8 C5 1_555 1_555
C5 O2 1_555 1_555
H6 C8 1_555 1_555
H7 C8 1_555 1_555
O9_2 Ge1_3 1_555 1_555
O11_2 Ge1_3 1_555 1_555
O12 C13_2 1_555 1_555
O14_2 C14_2 1_555 1_555
O15_2 C14_2 1_555 1_555
C13_2 O11_2 1_555 1_555
C14_2 C19_2 1_555 1_555
C16_3 O9_2 1_555 1_555
C19_2 C16_3 1_555 1_555
H15_2 C19_2 1_555 1_555
H16_2 C19_2 1_555 1_555
Cu6 O12 1_555 1_555
C5 C8 1_555 1_555
C13_2 C16_3 1_555 1_555
N5_2 Cu6 1_555 1_555
C21_2 C18_2 1_555 1_555
C22_2 N5_2 1_555 1_555
C23_2 N5_2 1_555 1_555
H21_2 C23_2 1_555 1_555
C24_2 C18_2 1_555 1_555
H22_2 C24_2 1_555 1_555
C21_2 C22_2 1_555 1_555
C23_2 C24_2 1_555 1_555
O20 C15_2 1_555 1_555
N8 N4_2 1_555 1_555
H13_2 N8 1_555 1_555
H14_2 N8 1_555 1_555
C15_2 N4_2 1_555 1_555
O2_2 Ge1_4 1_555 1_555
O3 Ge1_4 1_555 1_555
O4 C1 1_555 1_555
O8_2 C5_2 1_555 1_555
C1 O3 1_555 1_555
C4 C1 1_555 1_555
C5_2 O2_2 1_555 1_555
C8_2 C4 1_555 1_555
H7_2 C8_2 1_555 1_555
Cu3 O4 1_555 1_555
C5_2 C8_2 1_555 1_555
Ge1_5 O1 1_555 1_555
Cu3 O6 1_555 1_555
O1 C4_2 1_555 1_555
O5 C3 1_555 1_555
O6 C2 1_555 1_555
O7 C2 1_555 1_555
N2 Cu3 1_555 1_555
C2 C7 1_555 1_555
C3 N1 1_555 1_555
C6 C3 1_555 1_555
C7 C4_2 1_555 1_555
H4 C7 1_555 1_555
H5 C7 1_555 1_555
C9 C6 1_555 1_555
H8 C9 1_555 1_555
C10 N2 1_555 1_555
H9 C10 1_555 1_555
C11 N2 1_555 1_555
H10 C11 1_555 1_555
C12 C6 1_555 1_555
H11 C12 1_555 1_555
Cu4 O5 1_555 1_555
O19 Cu3 1_555 1_555
N7 Cu3 1_555 1_555
C9 C10 1_555 1_555
C11 C12 1_555 1_555
H2 N3 1_555 1_555
H3 N3 1_555 1_555
O19 C3_2 1_555 1_555
N7 N1_2 1_555 1_555
H2_2 N7 1_555 1_555
H3_2 N7 1_555 1_555
C3_2 N1_2 1_555 1_555
N2_2 Cu4 1_555 1_555
C9_2 C6_2 1_555 1_555
C10_2 N2_2 1_555 1_555
C11_2 N2_2 1_555 1_555
H10_2 C11_2 1_555 1_555
C12_2 C6_2 1_555 1_555
H11_2 C12_2 1_555 1_555
O17 Cu4 1_555 1_555
C9_2 C10_2 1_555 1_555
C11_2 C12_2 1_555 1_555
Ge1_6 O1_2 1_555 1_555
O1_2 C4_3 1_555 1_555
O3_2 Ge1_6 1_555 1_555
O17 C1_2 1_555 1_555
O6_2 C2_2 1_555 1_555
O7_2 C2_2 1_555 1_555
C1_2 O3_2 1_555 1_555
C2_2 C7_2 1_555 1_555
C4_3 C1_2 1_555 1_555
C7_2 C4_3 1_555 1_555
H4_2 C7_2 1_555 1_555
H5_2 C7_2 1_555 1_555
O10_2 Ge1_6 1_555 1_555
O16_2 C17_2 1_555 1_555
C17_2 O10_2 1_555 1_555
H17_2 C20_2 1_555 1_555
H18_2 C20_2 1_555 1_555
C17_2 C20_2 1_555 1_555

#END
