
###############################################################################
#
# This file contains modified crystal structure data generated from the
# MOF subset of the Cambridge Structural Database (CSD) v543 
# hosted by the Cambridge Crystallographic Data Centre (CCDC).
#
# This work is licensed under the Creative Commons
# Attribution-NonCommercial-ShareAlike 4.0 International License.
# To view a copy of this license, visit
# http://creativecommons.org/licenses/by-nc-sa/4.0/
# or send a letter to
# Creative Commons, PO Box 1866, Mountain View, CA 94042, USA.
#
# CIF created using the CSD Python API on 29 September 2022
# The structure has been converted into the P1 space group
# The structure has a 3D framework
# The original CSD entry RIHJUO is in the monoclinic crystal system
# The framework has been calculated to contain at least 10.0% void space
# The void calculation uses a probe of radius 1.32A, grid spacing 0.4
#
###############################################################################

data_RIHJUO
_chemical_formula_moiety         '(C56 H32 Co10 N24 O24)n'
_symmetry_cell_setting           triclinic
_symmetry_space_group_name_H-M   'P 1'
_symmetry_Int_Tables_number      1
_space_group_name_Hall           'P 1'
loop_
_symmetry_equiv_pos_site_id
_symmetry_equiv_pos_as_xyz
1 x,y,z
_cell_length_a                   18.138(5)
_cell_length_b                   12.127(3)
_cell_length_c                   11.040(3)
_cell_angle_alpha                90
_cell_angle_beta                 95.189(4)
_cell_angle_gamma                90
_cell_volume                     2418.4
loop_
_atom_site_label
_atom_site_type_symbol
_atom_site_fract_x
_atom_site_fract_y
_atom_site_fract_z
Co3 Co 0.0000 0.60153(13) 0.2500
Co1 Co 0.5000 0.10153(13) 0.2500
O1 O 0.4786(3) 0.0824(5) 0.0680(6)
H1 H 0.4544 0.1394 0.0375
N1 N 0.8712(5) 0.4413(8) 0.1653(7)
O2 O 0.6315(4) 0.2059(7) 0.0599(7)
O3 O 0.5784(4) 0.2245(6) 0.2360(7)
N2 N 0.9096(4) 0.4901(7) 0.2579(6)
C1 C 0.8123(6) 0.3946(9) 0.2103(8)
N3 N 0.8767(5) 0.4802(8) 0.3624(7)
C2 C 0.7499(6) 0.3399(9) 0.1482(8)
H2 H 0.7461 0.3276 0.0647
C3 C 0.6301(6) 0.2407(9) 0.1659(8)
C4 C 0.8138(6) 0.4205(9) 0.3307(9)
C5 C 0.6959(6) 0.3066(10) 0.2203(9)
C6 C 0.7580(6) 0.3863(10) 0.4058(9)
H3 H 0.7610 0.4025 0.4884
C7 C 0.6997(6) 0.3284(11) 0.3496(9)
H4 H 0.6624 0.3030 0.3948
Co3_2 Co 1.0000 0.60153(13) 0.2500
Co5 Co 0.42468(7) 0.06965(10) 0.50751(10)
Co7 Co 0.92468(7) 0.43035(10) 0.00751(10)
Co8 Co 0.92468(7) 0.56965(10) 0.50751(10)
Co10 Co 0.07532(7) 0.43035(10) 0.49249(10)
O4 O 0.5214(3) 0.0824(5) 0.4320(6)
H5 H 0.5456 0.1394 0.4625
N4 N 0.1288(5) 0.4413(8) 0.3347(7)
N6 N 0.3712(5) 0.0587(8) 0.6653(7)
O7 O 0.3685(4) 0.2059(7) 0.4401(7)
O8 O 0.4216(4) 0.2245(6) 0.2640(7)
N7 N 0.0904(4) 0.4901(7) 0.2421(6)
C8 C 0.1877(6) 0.3946(9) 0.2897(8)
N10 N 0.1233(5) 0.4802(8) 0.1376(7)
C9 C 0.2501(6) 0.3399(9) 0.3518(8)
H8 H 0.2539 0.3276 0.4353
C10 C 0.3699(6) 0.2407(9) 0.3341(8)
C11 C 0.1862(6) 0.4205(9) 0.1693(9)
C12 C 0.3041(6) 0.3066(10) 0.2797(9)
C13 C 0.2420(6) 0.3863(10) 0.0942(9)
H9 H 0.2390 0.4025 0.0116
C14 C 0.3003(6) 0.3284(11) 0.1504(9)
H10 H 0.3376 0.3030 0.1052
Co2 Co 0.57532(7) 0.06965(10) 0.99249(10)
Co11 Co 0.07532(7) 0.56965(10) 0.99249(10)
N5 N 0.6288(5) 0.0587(8) 0.8347(7)
Co6 Co 0.42468(7) 0.93035(10) 0.00751(10)
Co9 Co 0.57532(7) 0.93035(10) 0.49249(10)
O6 O 0.4786(3) 0.9176(5) 0.5680(6)
H7 H 0.4544 0.8606 0.5375
N8 N 0.4096(4) 0.9901(7) 0.2579(6)
N9 N 0.5904(4) 0.9901(7) 0.2421(6)
N11 N 0.6233(5) 0.9802(8) 0.1376(7)
N12 N 0.3767(5) 0.9802(8) 0.3624(7)
O5 O 0.5214(3) 0.9176(5) 0.9320(6)
H6 H 0.5456 0.8606 0.9625
N1_2 N 0.3712(5) 0.9413(8) 0.1653(7)
O2_2 O 0.1315(4) 0.7059(7) 0.0599(7)
O3_2 O 0.0784(4) 0.7245(6) 0.2360(7)
C1_2 C 0.3123(6) 0.8946(9) 0.2103(8)
C2_2 C 0.2499(6) 0.8399(9) 0.1482(8)
H2_2 H 0.2461 0.8276 0.0647
C3_2 C 0.1301(6) 0.7407(9) 0.1659(8)
C4_2 C 0.3138(6) 0.9205(9) 0.3307(9)
C5_2 C 0.1959(6) 0.8066(10) 0.2203(9)
C6_2 C 0.2580(6) 0.8863(10) 0.4058(9)
H3_2 H 0.2610 0.9025 0.4884
C7_2 C 0.1997(6) 0.8284(11) 0.3496(9)
H4_2 H 0.1624 0.8030 0.3948
O4_2 O 0.0214(3) 0.5824(5) 0.4320(6)
H5_2 H 0.0456 0.6394 0.4625
O5_2 O 0.0214(3) 0.4176(5) 0.9320(6)
H6_2 H 0.0456 0.3606 0.9625
N5_2 N 0.1288(5) 0.5587(8) 0.8347(7)
O1_2 O 0.9786(3) 0.5824(5) 0.0680(6)
H1_2 H 0.9544 0.6394 0.0375
O6_2 O 0.9786(3) 0.4176(5) 0.5680(6)
H7_2 H 0.9544 0.3606 0.5375
N4_2 N 0.6288(5) 0.9413(8) 0.3347(7)
N6_2 N 0.8712(5) 0.5587(8) 0.6653(7)
O7_2 O 0.8685(4) 0.7059(7) 0.4401(7)
O8_2 O 0.9216(4) 0.7245(6) 0.2640(7)
C8_2 C 0.6877(6) 0.8946(9) 0.2897(8)
C9_2 C 0.7501(6) 0.8399(9) 0.3518(8)
H8_2 H 0.7539 0.8276 0.4353
C10_2 C 0.8699(6) 0.7407(9) 0.3341(8)
C11_2 C 0.6862(6) 0.9205(9) 0.1693(9)
C12_2 C 0.8041(6) 0.8066(10) 0.2797(9)
C13_2 C 0.7420(6) 0.8863(10) 0.0942(9)
H9_2 H 0.7390 0.9025 0.0116
C14_2 C 0.8003(6) 0.8284(11) 0.1504(9)
H10_2 H 0.8376 0.8030 0.1052
Co4 Co 0.0000 0.39847(13) 0.7500
N8_2 N 0.5904(4) 0.0099(7) 0.7421(6)
N9_2 N 0.4096(4) 0.0099(7) 0.7579(6)
N11_2 N 0.3767(5) 0.0198(8) 0.8624(7)
N12_2 N 0.6233(5) 0.0198(8) 0.6376(7)
Co1_2 Co 0.5000 0.89847(13) 0.7500
O2_3 O 0.3685(4) 0.7941(7) 0.9401(7)
O3_3 O 0.4216(4) 0.7755(6) 0.7640(7)
N2_2 N 0.0904(4) 0.5099(7) 0.7421(6)
C1_3 C 0.1877(6) 0.6054(9) 0.7897(8)
N3_2 N 0.1233(5) 0.5198(8) 0.6376(7)
C2_3 C 0.2501(6) 0.6601(9) 0.8518(8)
H2_3 H 0.2539 0.6724 0.9353
C3_3 C 0.3699(6) 0.7593(9) 0.8341(8)
C4_3 C 0.1862(6) 0.5795(9) 0.6693(9)
C5_3 C 0.3041(6) 0.6934(10) 0.7797(9)
C6_3 C 0.2420(6) 0.6137(10) 0.5942(9)
H3_3 H 0.2390 0.5975 0.5116
C7_3 C 0.3003(6) 0.6716(11) 0.6504(9)
H4_3 H 0.3376 0.6970 0.6052
Co4_2 Co 1.0000 0.39847(13) 0.7500
O7_3 O 0.6315(4) 0.7941(7) 0.5599(7)
O8_3 O 0.5784(4) 0.7755(6) 0.7360(7)
N7_2 N 0.9096(4) 0.5099(7) 0.7579(6)
C8_3 C 0.8123(6) 0.6054(9) 0.7103(8)
N10_2 N 0.8767(5) 0.5198(8) 0.8624(7)
C9_3 C 0.7499(6) 0.6601(9) 0.6482(8)
H8_3 H 0.7461 0.6724 0.5647
C10_3 C 0.6301(6) 0.7593(9) 0.6659(8)
C11_3 C 0.8138(6) 0.5795(9) 0.8307(9)
C12_3 C 0.6959(6) 0.6934(10) 0.7203(9)
C13_3 C 0.7580(6) 0.6137(10) 0.9058(9)
H9_3 H 0.7610 0.5975 0.9884
C14_3 C 0.6997(6) 0.6716(11) 0.8496(9)
H10_3 H 0.6624 0.6970 0.8948
O7_4 O 0.1315(4) 0.2941(7) 0.5599(7)
O8_4 O 0.0784(4) 0.2755(6) 0.7360(7)
C8_4 C 0.3123(6) 0.1054(9) 0.7103(8)
C9_4 C 0.2499(6) 0.1601(9) 0.6482(8)
H8_4 H 0.2461 0.1724 0.5647
C10_4 C 0.1301(6) 0.2593(9) 0.6659(8)
C11_4 C 0.3138(6) 0.0795(9) 0.8307(9)
C12_4 C 0.1959(6) 0.1934(10) 0.7203(9)
C13_4 C 0.2580(6) 0.1137(10) 0.9058(9)
H9_4 H 0.2610 0.0975 0.9884
C14_4 C 0.1997(6) 0.1716(11) 0.8496(9)
H10_4 H 0.1624 0.1970 0.8948
O2_4 O 0.8685(4) 0.2941(7) 0.9401(7)
O3_4 O 0.9216(4) 0.2755(6) 0.7640(7)
C1_4 C 0.6877(6) 0.1054(9) 0.7897(8)
C2_4 C 0.7501(6) 0.1601(9) 0.8518(8)
H2_4 H 0.7539 0.1724 0.9353
C3_4 C 0.8699(6) 0.2593(9) 0.8341(8)
C4_4 C 0.6862(6) 0.0795(9) 0.6693(9)
C5_4 C 0.8041(6) 0.1934(10) 0.7797(9)
C6_4 C 0.7420(6) 0.1137(10) 0.5942(9)
H3_4 H 0.7390 0.0975 0.5116
C7_4 C 0.8003(6) 0.1716(11) 0.6504(9)
H4_4 H 0.8376 0.1970 0.6052
loop_
_geom_bond_atom_site_label_1
_geom_bond_atom_site_label_2
_geom_bond_site_symmetry_1
_geom_bond_site_symmetry_2
Co1 O1 1_555 1_555
O1 H1 1_555 1_555
N1 N2 1_555 1_555
O3 Co1 1_555 1_555
N2 N3 1_555 1_555
C1 N1 1_555 1_555
N3 C4 1_555 1_555
C2 C1 1_555 1_555
H2 C2 1_555 1_555
C3 O2 1_555 1_555
C4 C1 1_555 1_555
C5 C2 1_555 1_555
C6 C4 1_555 1_555
H3 C6 1_555 1_555
C7 C5 1_555 1_555
H4 C7 1_555 1_555
Co3_2 N2 1_555 1_555
Co3 N7 1_555 1_555
Co5 O4 1_555 1_555
Co7 N1 1_555 1_555
Co8 N3 1_555 1_555
Co10 N4 1_555 1_555
O4 Co1 1_555 1_555
H5 O4 1_555 1_555
N4 N7 1_555 1_555
N6 Co5 1_555 1_555
O7 Co5 1_555 1_555
O8 Co1 1_555 1_555
N7 N10 1_555 1_555
C8 N4 1_555 1_555
N10 C11 1_555 1_555
C9 C8 1_555 1_555
H8 C9 1_555 1_555
C10 O7 1_555 1_555
C11 C8 1_555 1_555
C12 C9 1_555 1_555
C13 C11 1_555 1_555
H9 C13 1_555 1_555
C14 C12 1_555 1_555
H10 C14 1_555 1_555
O3 C3 1_555 1_555
C3 C5 1_555 1_555
C6 C7 1_555 1_555
O8 C10 1_555 1_555
C10 C12 1_555 1_555
C13 C14 1_555 1_555
N5 Co2 1_555 1_555
H7 O6 1_555 1_555
Co9 O6 1_555 1_555
N8 N12 1_555 1_555
N9 N11 1_555 1_555
H6 O5 1_555 1_555
N1_2 N8 1_555 1_555
O3_2 Co3 1_555 1_555
C1_2 N1_2 1_555 1_555
N12 C4_2 1_555 1_555
C2_2 C1_2 1_555 1_555
H2_2 C2_2 1_555 1_555
C3_2 O2_2 1_555 1_555
C4_2 C1_2 1_555 1_555
C5_2 C2_2 1_555 1_555
C6_2 C4_2 1_555 1_555
H3_2 C6_2 1_555 1_555
C7_2 C5_2 1_555 1_555
H4_2 C7_2 1_555 1_555
Co6 N1_2 1_555 1_555
Co10 O4_2 1_555 1_555
O4_2 Co3 1_555 1_555
H5_2 O4_2 1_555 1_555
O3_2 C3_2 1_555 1_555
C3_2 C5_2 1_555 1_555
C6_2 C7_2 1_555 1_555
O5_2 Co11 1_555 1_555
H6_2 O5_2 1_555 1_555
N5_2 Co11 1_555 1_555
Co3_2 O1_2 1_555 1_555
O1_2 H1_2 1_555 1_555
Co7 O1_2 1_555 1_555
Co9 N4_2 1_555 1_555
O6_2 Co8 1_555 1_555
H7_2 O6_2 1_555 1_555
N4_2 N9 1_555 1_555
N6_2 Co8 1_555 1_555
O7_2 Co8 1_555 1_555
O8_2 Co3_2 1_555 1_555
C8_2 N4_2 1_555 1_555
N11 C11_2 1_555 1_555
C9_2 C8_2 1_555 1_555
H8_2 C9_2 1_555 1_555
C10_2 O7_2 1_555 1_555
C11_2 C8_2 1_555 1_555
C12_2 C9_2 1_555 1_555
C13_2 C11_2 1_555 1_555
H9_2 C13_2 1_555 1_555
C14_2 C12_2 1_555 1_555
H10_2 C14_2 1_555 1_555
O8_2 C10_2 1_555 1_555
C10_2 C12_2 1_555 1_555
C13_2 C14_2 1_555 1_555
N8_2 N12_2 1_555 1_555
N9_2 N11_2 1_555 1_555
Co1_2 O5 1_555 1_555
N5_2 N2_2 1_555 1_555
O3_3 Co1_2 1_555 1_555
N2_2 N3_2 1_555 1_555
C1_3 N5_2 1_555 1_555
N3_2 C4_3 1_555 1_555
C2_3 C1_3 1_555 1_555
H2_3 C2_3 1_555 1_555
C3_3 O2_3 1_555 1_555
C4_3 C1_3 1_555 1_555
C5_3 C2_3 1_555 1_555
C6_3 C4_3 1_555 1_555
H3_3 C6_3 1_555 1_555
C7_3 C5_3 1_555 1_555
H4_3 C7_3 1_555 1_555
Co4 N2_2 1_555 1_555
Co4_2 N7_2 1_555 1_555
Co10 N3_2 1_555 1_555
O6 Co1_2 1_555 1_555
N6_2 N7_2 1_555 1_555
O7_3 Co9 1_555 1_555
O8_3 Co1_2 1_555 1_555
N7_2 N10_2 1_555 1_555
C8_3 N6_2 1_555 1_555
N10_2 C11_3 1_555 1_555
C9_3 C8_3 1_555 1_555
H8_3 C9_3 1_555 1_555
C10_3 O7_3 1_555 1_555
C11_3 C8_3 1_555 1_555
C12_3 C9_3 1_555 1_555
C13_3 C11_3 1_555 1_555
H9_3 C13_3 1_555 1_555
C14_3 C12_3 1_555 1_555
H10_3 C14_3 1_555 1_555
O3_3 C3_3 1_555 1_555
C3_3 C5_3 1_555 1_555
C6_3 C7_3 1_555 1_555
O8_3 C10_3 1_555 1_555
C10_3 C12_3 1_555 1_555
C13_3 C14_3 1_555 1_555
Co4 O5_2 1_555 1_555
N6 N9_2 1_555 1_555
O7_4 Co10 1_555 1_555
O8_4 Co4 1_555 1_555
C8_4 N6 1_555 1_555
N11_2 C11_4 1_555 1_555
C9_4 C8_4 1_555 1_555
H8_4 C9_4 1_555 1_555
C10_4 O7_4 1_555 1_555
C11_4 C8_4 1_555 1_555
C12_4 C9_4 1_555 1_555
C13_4 C11_4 1_555 1_555
H9_4 C13_4 1_555 1_555
C14_4 C12_4 1_555 1_555
H10_4 C14_4 1_555 1_555
O8_4 C10_4 1_555 1_555
C10_4 C12_4 1_555 1_555
C13_4 C14_4 1_555 1_555
N5 N8_2 1_555 1_555
O3_4 Co4_2 1_555 1_555
C1_4 N5 1_555 1_555
N12_2 C4_4 1_555 1_555
C2_4 C1_4 1_555 1_555
H2_4 C2_4 1_555 1_555
C3_4 O2_4 1_555 1_555
C4_4 C1_4 1_555 1_555
C5_4 C2_4 1_555 1_555
C6_4 C4_4 1_555 1_555
H3_4 C6_4 1_555 1_555
C7_4 C5_4 1_555 1_555
H4_4 C7_4 1_555 1_555
O6_2 Co4_2 1_555 1_555
O3_4 C3_4 1_555 1_555
C3_4 C5_4 1_555 1_555
C6_4 C7_4 1_555 1_555

#END
