
###############################################################################
#
# This file contains modified crystal structure data generated from the
# MOF subset of the Cambridge Structural Database (CSD) v543 
# hosted by the Cambridge Crystallographic Data Centre (CCDC).
#
# This work is licensed under the Creative Commons
# Attribution-NonCommercial-ShareAlike 4.0 International License.
# To view a copy of this license, visit
# http://creativecommons.org/licenses/by-nc-sa/4.0/
# or send a letter to
# Creative Commons, PO Box 1866, Mountain View, CA 94042, USA.
#
# CIF created using the CSD Python API on 29 September 2022
# The structure has been converted into the P1 space group
# The structure has a 3D framework
# The original CSD entry RILJOO is in the hexagonal crystal system
# The original CSD entry RILJOO is in a Sohncke space group
# The framework has been calculated to contain at least 10.0% void space
# The void calculation uses a probe of radius 1.32A, grid spacing 0.4
# The framework is charged, counterions have been retained in the structure
# H atom positions have been added when not included in the experimental data
# Generated hydrogen atom positions removed from atoms on special positions
#
###############################################################################

data_RILJOO
_chemical_formula_moiety         '(C168 H120 Ca17 N24 O84)n'
_symmetry_cell_setting           triclinic
_symmetry_space_group_name_H-M   'P 1'
_symmetry_Int_Tables_number      1
_space_group_name_Hall           'P 1'
loop_
_symmetry_equiv_pos_site_id
_symmetry_equiv_pos_as_xyz
1 x,y,z
_cell_length_a                   31.4095(7)
_cell_length_b                   31.4095(7)
_cell_length_c                   12.9630(3)
_cell_angle_alpha                90
_cell_angle_beta                 90
_cell_angle_gamma                120
_cell_volume                     11075.4
loop_
_atom_site_label
_atom_site_type_symbol
_atom_site_fract_x
_atom_site_fract_y
_atom_site_fract_z
Ca1 Ca -0.00000(16) 0.54654(11) 0.1666
O7 O 0.0000(6) 0.6227(4) 0.1666
H7 H 0.2850 0.8110 0.0113
O10 O 0.0750(3) 0.5986(5) 0.0673(4)
O16 O 0.0123(2) 0.4657(2) 0.8615(3)
O17 O 0.0123(2) 0.5466(3) 0.9718(3)
O19 O 0.0458(2) 0.5098(2) 0.2309(3)
Ca4 Ca 0.00000(16) 0.45346(11) 0.6666
Ca8 Ca 0.05442(6) 0.52721(4) 0.4166
H15 H 0.00136703 0.633922 0.238765
H16 H 0.0290995 0.647788 0.128033
H18 H 0.347946 0.888458 0.00629588
C15 C 0.3340(6) 0.8655(12) 0.9377(12)
C16 C 0.2949(6) 0.8228(11) 0.9447(9)
C17 C 0.2673(6) 0.7939(11) 0.8705(8)
C18 C 0.2849(6) 0.8125(11) 0.7844(11)
H8 H 0.2676 0.7979 0.7242
C19 C 0.3299(7) 0.8546(12) 0.7795(13)
H9 H 0.3432 0.8655 0.7143
C20 C 0.2209(6) 0.7448(11) 0.8858(9)
C21 C 0.1588(4) 0.6741(7) 0.8087(6)
C22 C 0.1286(4) 0.6507(6) 0.8957(6)
H10 H 0.1376 0.6659 0.9599
C23 C 0.0857(3) 0.6054(5) 0.8866(5)
C24 C 0.0708(3) 0.5832(5) 0.7937(5)
H11 H 0.0400 0.5551 0.7879
C25 C 0.0997(3) 0.6010(5) 0.7088(5)
C26 C 0.1424(4) 0.6461(6) 0.7141(6)
H12 H 0.1613 0.6588 0.6548
C27 C 0.0562(4) 0.5830(6) 0.9816(6)
C28 C 0.0852(4) 0.5720(6) 0.6071(5)
N3 N 0.3554(5) 0.8805(8) 0.8569(11)
N4 N 0.2004(3) 0.7178(6) 0.8081(5)
O8 O 0.3952(3) 0.9233(5) 0.8445(8)
O9 O 0.2074(6) 0.7332(12) 0.9711(8)
O12 O 0.1142(2) 0.5867(4) 0.5307(4)
O13 O 0.0458(2) 0.5360(3) 0.6024(3)
Ca9 Ca 0.47279(7) 0.94558(6) 0.7499
H13 H 0.217025 0.730424 0.738817
O15 O 0.9233(5) 0.5281(4) 0.0112(8)
O18 O 0.8858(2) 0.4133(4) 0.0307(4)
O21 O 0.9542(2) 0.4640(3) 0.1024(3)
C1 C 0.6660(6) 0.5315(10) 0.3956(12)
C2 C 0.7051(6) 0.5279(9) 0.3886(9)
H1 H 0.7150 0.5260 0.3220
C3 C 0.7327(6) 0.5266(9) 0.4628(8)
C4 C 0.7151(6) 0.5276(9) 0.5489(11)
H2 H 0.7324 0.5303 0.6091
C5 C 0.6701(7) 0.5247(10) 0.5538(13)
H3 H 0.6568 0.5223 0.6190
C6 C 0.7791(6) 0.5239(9) 0.4475(9)
C7 C 0.8412(4) 0.5153(6) 0.5246(6)
C8 C 0.8714(4) 0.5221(5) 0.4376(6)
H4 H 0.8624 0.5283 0.3734
C9 C 0.9143(3) 0.5197(4) 0.4467(5)
C10 C 0.9292(3) 0.5124(4) 0.5396(5)
H5 H 0.9600 0.5151 0.5454
C11 C 0.9003(3) 0.5013(4) 0.6245(5)
C12 C 0.8576(4) 0.5037(5) 0.6192(6)
H6 H 0.8387 0.4975 0.6785
C13 C 0.9438(4) 0.5268(4) 0.3517(6)
C14 C 0.9148(4) 0.4868(4) 0.7262(5)
N1 N 0.6446(5) 0.5251(6) 0.4764(11)
N2 N 0.7996(3) 0.5174(5) 0.5252(5)
O1 O 0.6048(3) 0.5281(4) 0.4888(8)
O2 O 0.7926(6) 0.5258(10) 0.3622(8)
O3 O 0.9250(3) 0.5236(4) 0.2660(4)
O4 O 0.9877(2) 0.5343(2) 0.3615(3)
O5 O 0.8858(2) 0.4725(4) 0.8026(4)
O6 O 0.9542(2) 0.4902(2) 0.7309(3)
Ca1_2 Ca 1.00000(16) 0.54654(11) 0.1666
O7_2 O 1.0000(6) 0.6227(4) 0.1666
Ca2 Ca 0.94558(6) 0.47279(4) 0.9166
O14 O 0.9233(5) 0.3952(3) 0.8221(8)
Ca4_2 Ca 1.00000(16) 0.45346(11) 0.6666
Ca6 Ca 0.52721(4) 0.47279(7) 0.5833
H14 H 0.652054 0.540512 0.327037
H17 H 0.782975 0.513399 0.594516
C1_2 C 0.4685(10) 0.1345(12) 0.0623(12)
C2_2 C 0.4721(9) 0.1772(11) 0.0553(9)
C3_2 C 0.4734(9) 0.2061(11) 0.1295(8)
C4_2 C 0.4724(9) 0.1875(11) 0.2156(11)
H2_2 H 0.4697 0.2021 0.2758
C5_2 C 0.4753(10) 0.1454(12) 0.2205(13)
H3_2 H 0.4777 0.1345 0.2857
C6_2 C 0.4761(9) 0.2552(11) 0.1142(9)
C7_2 C 0.4847(6) 0.3259(7) 0.1913(6)
C8_2 C 0.4779(5) 0.3493(6) 0.1043(6)
H4_2 H 0.4717 0.3341 0.0401
C9_2 C 0.4803(4) 0.3946(5) 0.1134(5)
C10_2 C 0.4876(4) 0.4168(5) 0.2063(5)
H5_2 H 0.4849 0.4449 0.2121
C11_2 C 0.4987(4) 0.3990(5) 0.2912(5)
C12_2 C 0.4963(5) 0.3539(6) 0.2859(6)
H6_2 H 0.5025 0.3412 0.3452
C13_2 C 0.4732(4) 0.4170(6) 0.0184(6)
C14_2 C 0.5132(4) 0.4280(6) 0.3929(5)
N1_2 N 0.4749(6) 0.1195(8) 0.1431(11)
N2_2 N 0.4826(5) 0.2822(6) 0.1919(5)
O1_2 O 0.4719(4) 0.0767(5) 0.1555(8)
O2_2 O 0.4742(10) 0.2668(12) 0.0289(8)
O4_2 O 0.4657(2) 0.4534(3) 0.0282(3)
O5_2 O 0.5275(4) 0.4133(4) 0.4693(4)
O6_2 O 0.5098(2) 0.4640(3) 0.3976(3)
O15_2 O 0.4719(4) 0.3952(6) 0.6779(8)
O16_2 O 0.5343(2) 0.5466(3) 0.5282(3)
O17_2 O 0.4534(3) 0.4657(4) 0.6385(3)
O18_2 O 0.5867(4) 0.4725(4) 0.6974(4)
O21_2 O 0.5360(3) 0.4902(4) 0.7691(3)
Ca4_3 Ca 0.54654(11) 0.54654(19) 0.3333
Ca6_2 Ca 0.52721(7) 0.05442(8) 0.2499
Ca8_2 Ca 0.47279(4) 0.52721(7) 0.0833
H17_2 H 0.486601 0.269576 0.261183
H1_2 H 0.4740 0.1890 0.9887
O3_2 O 0.4764(4) 0.4014(5) 0.9327(4)
Ca1_3 Ca 0.45346(11) 0.45346(19) 0.8333
O7_3 O 0.3773(4) 0.3773(7) 0.8333
C15_2 C 0.1345(12) 0.4685(13) 0.6044(12)
C16_2 C 0.1772(11) 0.4721(13) 0.6114(9)
H7_2 H 0.1890 0.4740 0.6780
C17_2 C 0.2061(11) 0.4734(13) 0.5372(8)
C18_2 C 0.1875(11) 0.4724(13) 0.4511(11)
H8_2 H 0.2021 0.4697 0.3909
C19_2 C 0.1454(12) 0.4753(14) 0.4462(13)
H9_2 H 0.1345 0.4777 0.3810
C20_2 C 0.2552(11) 0.4761(13) 0.5525(9)
C21_2 C 0.3259(7) 0.4847(8) 0.4754(6)
C22_2 C 0.3493(6) 0.4779(7) 0.5624(6)
H10_2 H 0.3341 0.4717 0.6266
C23_2 C 0.3946(5) 0.4803(6) 0.5533(5)
C24_2 C 0.4168(5) 0.4876(6) 0.4604(5)
H11_2 H 0.4449 0.4849 0.4546
C25_2 C 0.3990(5) 0.4987(6) 0.3755(5)
C26_2 C 0.3539(6) 0.4963(7) 0.3808(6)
H12_2 H 0.3412 0.5025 0.3215
C27_2 C 0.4170(6) 0.4732(7) 0.6483(6)
C28_2 C 0.4280(6) 0.5132(7) 0.2738(5)
N3_2 N 0.1195(8) 0.4749(9) 0.5236(11)
N4_2 N 0.2822(6) 0.4826(7) 0.4748(5)
O8_2 O 0.0767(5) 0.4719(6) 0.5112(8)
O9_2 O 0.2668(12) 0.4742(13) 0.6378(8)
O10_2 O 0.4014(5) 0.4764(6) 0.7340(4)
O12_2 O 0.4133(4) 0.5275(4) 0.1974(4)
O13_2 O 0.4640(3) 0.5098(4) 0.2691(3)
O19_2 O 0.4902(2) 0.5360(3) 0.8976(3)
H13_2 H 0.269576 0.486601 0.405484
H14_2 H 0.459488 0.111542 0.993704
H18_2 H 0.111542 0.459488 0.672963
H6_3 H 0.6588 0.1613 0.0118
C14_3 C 0.5720(6) 0.0852(4) 0.0595(5)
O5_3 O 0.5867(4) 0.1142(2) 0.1359(4)
O6_3 O 0.5360(3) 0.0458(2) 0.0642(3)
O15_3 O 0.6048(6) 0.0767(5) 0.3445(8)
O18_3 O 0.5275(4) 0.1142(2) 0.3641(4)
O21_3 O 0.5098(4) 0.0458(2) 0.4358(3)
Ca4_4 Ca 0.45346(19) 0.00000(16) -0.0001
C1_3 C 0.8655(12) 0.3340(6) 0.7289(12)
C2_3 C 0.8228(11) 0.2949(6) 0.7219(9)
H1_3 H 0.8110 0.2850 0.6553
C3_3 C 0.7939(11) 0.2673(6) 0.7961(8)
C4_3 C 0.8125(11) 0.2849(6) 0.8822(11)
H2_3 H 0.7979 0.2676 0.9424
C5_3 C 0.8546(12) 0.3299(7) 0.8871(13)
H3_3 H 0.8655 0.3432 0.9523
C6_3 C 0.7448(11) 0.2209(6) 0.7808(9)
C7_3 C 0.6741(7) 0.1588(4) 0.8579(6)
C8_3 C 0.6507(6) 0.1286(4) 0.7709(6)
H4_3 H 0.6659 0.1376 0.7067
C9_3 C 0.6054(5) 0.0857(3) 0.7800(5)
C10_3 C 0.5832(5) 0.0708(3) 0.8729(5)
H5_3 H 0.5551 0.0400 0.8787
C11_3 C 0.6010(5) 0.0997(3) 0.9578(5)
C12_3 C 0.6461(6) 0.1424(4) 0.9525(6)
C13_3 C 0.5830(6) 0.0562(4) 0.6850(6)
N1_3 N 0.8805(8) 0.3554(5) 0.8097(11)
N2_3 N 0.7178(6) 0.2004(3) 0.8585(5)
O2_3 O 0.7332(12) 0.2074(6) 0.6955(8)
O3_3 O 0.5986(5) 0.0750(3) 0.5993(4)
O4_3 O 0.5466(3) 0.0123(2) 0.6948(3)
Ca1_4 Ca 0.54654(19) 0.00000(16) 0.4999
O7_4 O 0.6227(7) -0.0000(6) 0.4999
Ca4_5 Ca 0.45346(19) -0.00000(16) 0.9999
H14_3 H 0.888458 0.347946 0.660371
H17_3 H 0.730424 0.217025 0.92785
O16_3 O 0.4534(3) 0.9877(2) 0.1948(3)
O17_3 O 0.5343(4) 0.9877(2) 0.3052(3)
Ca4_6 Ca 0.45346(19) 1.00000(16) -0.0001
Ca1_5 Ca 0.54654(19) 1.00000(16) 0.4999
O7_5 O 0.6227(7) 1.0000(6) 0.4999
C15_3 C 0.5315(13) 0.6660(6) 0.2711(12)
C16_3 C 0.5279(13) 0.7051(6) 0.2781(9)
H7_3 H 0.5260 0.7150 0.3447
C17_3 C 0.5266(13) 0.7327(6) 0.2039(8)
C18_3 C 0.5276(13) 0.7151(6) 0.1178(11)
H8_3 H 0.5303 0.7324 0.0576
C19_3 C 0.5247(14) 0.6701(7) 0.1129(13)
H9_3 H 0.5223 0.6568 0.0477
C20_3 C 0.5239(13) 0.7791(6) 0.2192(9)
C21_3 C 0.5153(8) 0.8412(4) 0.1421(6)
C22_3 C 0.5221(7) 0.8714(4) 0.2291(6)
H10_3 H 0.5283 0.8624 0.2933
C23_3 C 0.5197(6) 0.9143(3) 0.2200(5)
C24_3 C 0.5124(6) 0.9292(3) 0.1271(5)
H11_3 H 0.5151 0.9600 0.1213
C25_3 C 0.5013(6) 0.9003(3) 0.0422(5)
C26_3 C 0.5037(7) 0.8576(4) 0.0475(6)
C27_3 C 0.5268(7) 0.9438(4) 0.3150(6)
N3_3 N 0.5251(9) 0.6446(5) 0.1903(11)
N4_3 N 0.5174(7) 0.7996(3) 0.1415(5)
O8_3 O 0.5281(6) 0.6048(3) 0.1779(8)
O9_3 O 0.5258(13) 0.7926(6) 0.3045(8)
O10_3 O 0.5236(6) 0.9250(3) 0.4007(4)
O19_3 O 0.4640(3) 0.9542(2) 0.5642(3)
Ca4_7 Ca 0.45346(19) 1.00000(16) 0.9999
H13_3 H 0.513399 0.782975 0.0721504
H15_2 H 0.632555 0.998633 0.572098
H16_2 H 0.618688 0.9709 0.461367
H18_3 H 0.540512 0.652054 0.339629
H12_3 H 0.4975 0.8387 0.9882
C28_3 C 0.4868(7) 0.9148(4) 0.9405(5)
O12_3 O 0.4725(4) 0.8858(2) 0.8641(4)
O13_3 O 0.4902(4) 0.9542(2) 0.9358(3)
C4_4 C 0.2849(6) 0.4724(9) 0.0489(11)
H2_4 H 0.2676 0.4697 0.1091
C5_4 C 0.3299(7) 0.4753(10) 0.0538(13)
H3_4 H 0.3432 0.4777 0.1190
C7_4 C 0.1588(4) 0.4847(6) 0.0246(6)
C10_4 C 0.0708(3) 0.4876(4) 0.0396(5)
H5_4 H 0.0400 0.4849 0.0454
C11_4 C 0.0997(3) 0.4987(4) 0.1245(5)
C12_4 C 0.1424(4) 0.4963(5) 0.1192(6)
H6_4 H 0.1613 0.5025 0.1785
C14_4 C 0.0852(4) 0.5132(4) 0.2262(5)
N2_4 N 0.2004(3) 0.4826(5) 0.0252(5)
O5_4 O 0.1142(2) 0.5275(4) 0.3026(4)
O14_2 O 0.0767(5) 0.6048(3) 0.3221(8)
H17_4 H 0.217025 0.486601 0.0945163
C1_4 C 0.3340(6) 0.4685(10) 0.8956(12)
C2_4 C 0.2949(6) 0.4721(9) 0.8886(9)
H1_4 H 0.2850 0.4740 0.8220
C3_4 C 0.2673(6) 0.4734(9) 0.9628(8)
C6_4 C 0.2209(6) 0.4761(9) 0.9475(9)
C8_4 C 0.1286(4) 0.4779(5) 0.9376(6)
H4_4 H 0.1376 0.4717 0.8734
C9_4 C 0.0857(3) 0.4803(4) 0.9467(5)
C13_4 C 0.0562(4) 0.4732(4) 0.8517(6)
N1_4 N 0.3554(5) 0.4749(6) 0.9764(11)
O1_3 O 0.3952(3) 0.4719(4) 0.9888(8)
O2_4 O 0.2074(6) 0.4742(10) 0.8622(8)
O3_4 O 0.0750(3) 0.4764(4) 0.7660(4)
O7_6 O 0.0000(6) 0.3773(4) 0.6666
H14_4 H 0.347946 0.459488 0.827037
O17_4 O 0.9877(2) 0.4534(3) 0.4718(3)
O7_7 O 1.0000(6) 0.3773(4) 0.6666
C15_4 C 0.6660(6) 0.1345(12) 0.4377(12)
C16_4 C 0.7051(6) 0.1772(11) 0.4447(9)
H7_4 H 0.7150 0.1890 0.5113
C17_4 C 0.7327(6) 0.2061(11) 0.3705(8)
C18_4 C 0.7151(6) 0.1875(11) 0.2844(11)
H8_4 H 0.7324 0.2021 0.2242
C19_4 C 0.6701(7) 0.1454(12) 0.2795(13)
H9_4 H 0.6568 0.1345 0.2143
C20_4 C 0.7791(6) 0.2552(11) 0.3858(9)
C21_4 C 0.8412(4) 0.3259(7) 0.3087(6)
C22_4 C 0.8714(4) 0.3493(6) 0.3957(6)
H10_4 H 0.8624 0.3341 0.4599
C23_4 C 0.9143(3) 0.3946(5) 0.3866(5)
C24_4 C 0.9292(3) 0.4168(5) 0.2937(5)
H11_4 H 0.9600 0.4449 0.2879
C25_4 C 0.9003(3) 0.3990(5) 0.2088(5)
C26_4 C 0.8576(4) 0.3539(6) 0.2141(6)
H12_4 H 0.8387 0.3412 0.1548
C27_4 C 0.9438(4) 0.4170(6) 0.4816(6)
C28_4 C 0.9148(4) 0.4280(6) 0.1071(5)
N3_4 N 0.6446(5) 0.1195(8) 0.3569(11)
N4_4 N 0.7996(3) 0.2822(6) 0.3081(5)
O9_4 O 0.7926(6) 0.2668(12) 0.4711(8)
O10_4 O 0.9250(3) 0.4014(5) 0.5673(4)
H13_4 H 0.782975 0.269576 0.238817
H15_3 H 0.998633 0.366078 0.738765
H16_3 H 0.9709 0.352212 0.628033
H18_4 H 0.652054 0.111542 0.506296
O17_5 O 0.5466(3) 0.5343(4) 0.1385(3)
C1_5 C 0.5315(10) 0.8655(12) 0.5623(12)
C2_5 C 0.5279(9) 0.8228(11) 0.5553(9)
H1_5 H 0.5260 0.8110 0.4887
C3_5 C 0.5266(9) 0.7939(11) 0.6295(8)
C4_5 C 0.5276(9) 0.8125(11) 0.7156(11)
H2_5 H 0.5303 0.7979 0.7758
C5_5 C 0.5247(10) 0.8546(12) 0.7205(13)
H3_5 H 0.5223 0.8655 0.7857
C6_5 C 0.5239(9) 0.7448(11) 0.6142(9)
C7_5 C 0.5153(6) 0.6741(7) 0.6913(6)
C8_5 C 0.5221(5) 0.6507(6) 0.6043(6)
H4_5 H 0.5283 0.6659 0.5401
C9_5 C 0.5197(4) 0.6054(5) 0.6134(5)
C10_5 C 0.5124(4) 0.5832(5) 0.7063(5)
H5_5 H 0.5151 0.5551 0.7121
C11_5 C 0.5013(4) 0.6010(5) 0.7912(5)
C12_5 C 0.5037(5) 0.6461(6) 0.7859(6)
H6_5 H 0.4975 0.6588 0.8452
C13_5 C 0.5268(4) 0.5830(6) 0.5184(6)
C14_5 C 0.4868(4) 0.5720(6) 0.8929(5)
N1_5 N 0.5251(6) 0.8805(8) 0.6431(11)
N2_5 N 0.5174(5) 0.7178(6) 0.6919(5)
O1_4 O 0.5281(4) 0.9233(5) 0.6555(8)
O2_5 O 0.5258(10) 0.7332(12) 0.5289(8)
O3_5 O 0.5236(4) 0.5986(5) 0.4327(4)
O5_5 O 0.4725(4) 0.5867(4) 0.9693(4)
O7_8 O 0.6227(4) 0.6227(7) 0.3333
C15_5 C 0.8655(12) 0.5315(13) 0.1044(12)
C16_5 C 0.8228(11) 0.5279(13) 0.1114(9)
H7_5 H 0.8110 0.5260 0.1780
C17_5 C 0.7939(11) 0.5266(13) 0.0372(8)
C20_5 C 0.7448(11) 0.5239(13) 0.0525(9)
C22_5 C 0.6507(6) 0.5221(7) 0.0624(6)
H10_5 H 0.6659 0.5283 0.1266
C23_5 C 0.6054(5) 0.5197(6) 0.0533(5)
C27_5 C 0.5830(6) 0.5268(7) 0.1483(6)
N3_5 N 0.8805(8) 0.5251(9) 0.0236(11)
O9_5 O 0.7332(12) 0.5258(13) 0.1378(8)
O10_5 O 0.5986(5) 0.5236(6) 0.2340(4)
H14_5 H 0.540512 0.888458 0.493704
H17_5 H 0.513399 0.730424 0.761183
H18_5 H 0.888458 0.540512 0.172963
C18_5 C 0.8125(11) 0.5276(13) 0.9511(11)
H8_5 H 0.7979 0.5303 0.8909
C19_5 C 0.8546(12) 0.5247(14) 0.9462(13)
H9_5 H 0.8655 0.5223 0.8810
C21_5 C 0.6741(7) 0.5153(8) 0.9754(6)
C24_5 C 0.5832(5) 0.5124(6) 0.9604(5)
H11_5 H 0.5551 0.5151 0.9546
C25_5 C 0.6010(5) 0.5013(6) 0.8755(5)
C26_5 C 0.6461(6) 0.5037(7) 0.8808(6)
H12_5 H 0.6588 0.4975 0.8215
C28_5 C 0.5720(6) 0.4868(7) 0.7738(5)
N4_5 N 0.7178(6) 0.5174(7) 0.9748(5)
H13_5 H 0.730424 0.513399 0.905484
O7_9 O 0.3773(7) 0.0000(6) -0.0001
O17_6 O 0.4657(4) 0.0123(2) 0.8052(3)
H15_4 H 0.367445 0.00136703 0.072098
O7_10 O 0.3773(7) 0.0000(6) 0.9999
C15_6 C 0.4685(13) 0.3340(6) 0.7711(12)
C16_6 C 0.4721(13) 0.2949(6) 0.7781(9)
H7_6 H 0.4740 0.2850 0.8447
C17_6 C 0.4734(13) 0.2673(6) 0.7039(8)
C18_6 C 0.4724(13) 0.2849(6) 0.6178(11)
H8_6 H 0.4697 0.2676 0.5576
C19_6 C 0.4753(14) 0.3299(7) 0.6129(13)
H9_6 H 0.4777 0.3432 0.5477
C20_6 C 0.4761(13) 0.2209(6) 0.7192(9)
C21_6 C 0.4847(8) 0.1588(4) 0.6421(6)
C22_6 C 0.4779(7) 0.1286(4) 0.7291(6)
H10_6 H 0.4717 0.1376 0.7933
C23_6 C 0.4803(6) 0.0857(3) 0.7200(5)
C24_6 C 0.4876(6) 0.0708(3) 0.6271(5)
H11_6 H 0.4849 0.0400 0.6213
C25_6 C 0.4987(6) 0.0997(3) 0.5422(5)
C26_6 C 0.4963(7) 0.1424(4) 0.5475(6)
H12_6 H 0.5025 0.1613 0.4882
C27_6 C 0.4732(7) 0.0562(4) 0.8150(6)
C28_6 C 0.5132(7) 0.0852(4) 0.4405(5)
N3_6 N 0.4749(9) 0.3554(5) 0.6903(11)
N4_6 N 0.4826(7) 0.2004(3) 0.6415(5)
O9_6 O 0.4742(13) 0.2074(6) 0.8045(8)
O10_6 O 0.4764(6) 0.0750(3) 0.9007(4)
H13_6 H 0.486601 0.217025 0.57215
H16_4 H 0.381312 0.0290995 0.961367
H18_6 H 0.459488 0.347946 0.839629
C1_6 C 0.1345(12) 0.6660(6) 0.2289(12)
C2_6 C 0.1772(11) 0.7051(6) 0.2219(9)
H1_6 H 0.1890 0.7150 0.1553
C3_6 C 0.2061(11) 0.7327(6) 0.2961(8)
C4_6 C 0.1875(11) 0.7151(6) 0.3822(11)
H2_6 H 0.2021 0.7324 0.4424
C5_6 C 0.1454(12) 0.6701(7) 0.3871(13)
H3_6 H 0.1345 0.6568 0.4523
C6_6 C 0.2552(11) 0.7791(6) 0.2808(9)
C7_6 C 0.3259(7) 0.8412(4) 0.3579(6)
C8_6 C 0.3493(6) 0.8714(4) 0.2709(6)
H4_6 H 0.3341 0.8624 0.2067
C9_6 C 0.3946(5) 0.9143(3) 0.2800(5)
C10_6 C 0.4168(5) 0.9292(3) 0.3729(5)
H5_6 H 0.4449 0.9600 0.3787
C11_6 C 0.3990(5) 0.9003(3) 0.4578(5)
C12_6 C 0.3539(6) 0.8576(4) 0.4525(6)
H6_6 H 0.3412 0.8387 0.5118
C13_6 C 0.4170(6) 0.9438(4) 0.1850(6)
C14_6 C 0.4280(6) 0.9148(4) 0.5595(5)
N1_6 N 0.1195(8) 0.6446(5) 0.3097(11)
N2_6 N 0.2822(6) 0.7996(3) 0.3585(5)
O2_6 O 0.2668(12) 0.7926(6) 0.1955(8)
O3_6 O 0.4014(5) 0.9250(3) 0.0993(4)
O5_6 O 0.4133(4) 0.8858(2) 0.6359(4)
O7_11 O 0.3773(7) 1.0000(6) -0.0001
H14_6 H 0.111542 0.652054 0.160371
H17_6 H 0.269576 0.782975 0.42785
O7_12 O 0.3773(7) 1.0000(6) 0.9999
H15_5 H 0.633922 0.00136703 0.427902
H16_5 H 0.647788 0.0290995 0.538633
H15_6 H 0.998633 0.632555 0.0945687
H16_6 H 0.9709 0.618688 0.2053
H16_7 H 0.352212 0.9709 0.0386332
H15_7 H 0.366078 0.998633 0.927902
H15_8 H 0.00136703 0.367445 0.594569
H16_8 H 0.0290995 0.381312 0.7053
loop_
_geom_bond_atom_site_label_1
_geom_bond_atom_site_label_2
_geom_bond_site_symmetry_1
_geom_bond_site_symmetry_2
O7 Ca1 1_555 1_555
O10 Ca1 1_555 1_555
O19 Ca1 1_555 1_555
O16 Ca4 1_555 1_555
O19 Ca8 1_555 1_555
O7 H15 1_555 1_555
O7 H16 1_555 1_555
C15 C16 1_555 1_555
C17 C16 1_555 1_555
C18 C17 1_555 1_555
H8 C18 1_555 1_555
C19 C18 1_555 1_555
H9 C19 1_555 1_555
C20 C17 1_555 1_555
C21 C22 1_555 1_555
C22 H10 1_555 1_555
C23 C22 1_555 1_555
C24 C23 1_555 1_555
H11 C24 1_555 1_555
C25 C24 1_555 1_555
C26 C21 1_555 1_555
H12 C26 1_555 1_555
C27 C23 1_555 1_555
C28 C25 1_555 1_555
N3 C15 1_555 1_555
N4 C20 1_555 1_555
O8 N3 1_555 1_555
O9 C20 1_555 1_555
O12 C28 1_555 1_555
O13 C28 1_555 1_555
Ca4 O13 1_555 1_555
Ca8 O12 1_555 1_555
Ca9 O8 1_555 1_555
C19 N3 1_555 1_555
C21 N4 1_555 1_555
C25 C26 1_555 1_555
C27 O17 1_555 1_555
O13 Ca8 1_555 1_555
N4 H13 1_555 1_555
C1 C2 1_555 1_555
C2 H1 1_555 1_555
C3 C2 1_555 1_555
C4 C3 1_555 1_555
H2 C4 1_555 1_555
C5 C4 1_555 1_555
H3 C5 1_555 1_555
C6 C3 1_555 1_555
C7 C8 1_555 1_555
C8 H4 1_555 1_555
C9 C8 1_555 1_555
C10 C9 1_555 1_555
H5 C10 1_555 1_555
C11 C10 1_555 1_555
C12 C7 1_555 1_555
H6 C12 1_555 1_555
C13 C9 1_555 1_555
C14 C11 1_555 1_555
N1 C1 1_555 1_555
N2 C6 1_555 1_555
O1 N1 1_555 1_555
O2 C6 1_555 1_555
O3 C13 1_555 1_555
O4 C13 1_555 1_555
O5 C14 1_555 1_555
O6 C14 1_555 1_555
Ca1_2 O3 1_555 1_555
O7_2 Ca1_2 1_555 1_555
Ca2 O5 1_555 1_555
O14 Ca2 1_555 1_555
O21 Ca1_2 1_555 1_555
Ca4_2 O6 1_555 1_555
Ca6 O1 1_555 1_555
C5 N1 1_555 1_555
C7 N2 1_555 1_555
C11 C12 1_555 1_555
O4 Ca1_2 1_555 1_555
O6 Ca2 1_555 1_555
C1 H14 1_555 1_555
N2 H17 1_555 1_555
C1_2 C2_2 1_555 1_555
C3_2 C2_2 1_555 1_555
C4_2 C3_2 1_555 1_555
H2_2 C4_2 1_555 1_555
C5_2 C4_2 1_555 1_555
H3_2 C5_2 1_555 1_555
C6_2 C3_2 1_555 1_555
C7_2 C8_2 1_555 1_555
C8_2 H4_2 1_555 1_555
C9_2 C8_2 1_555 1_555
C10_2 C9_2 1_555 1_555
H5_2 C10_2 1_555 1_555
C11_2 C10_2 1_555 1_555
C12_2 C7_2 1_555 1_555
H6_2 C12_2 1_555 1_555
C13_2 C9_2 1_555 1_555
C14_2 C11_2 1_555 1_555
N1_2 C1_2 1_555 1_555
N2_2 C6_2 1_555 1_555
O1_2 N1_2 1_555 1_555
O2_2 C6_2 1_555 1_555
O4_2 C13_2 1_555 1_555
O5_2 C14_2 1_555 1_555
O6_2 C14_2 1_555 1_555
Ca6 O5_2 1_555 1_555
O15_2 Ca6 1_555 1_555
O16_2 Ca6 1_555 1_555
O17_2 Ca6 1_555 1_555
O18_2 Ca6 1_555 1_555
O21_2 Ca6 1_555 1_555
Ca4_3 O6_2 1_555 1_555
Ca6_2 O1_2 1_555 1_555
Ca8_2 O4_2 1_555 1_555
C5_2 N1_2 1_555 1_555
C7_2 N2_2 1_555 1_555
C11_2 C12_2 1_555 1_555
O6_2 Ca6 1_555 1_555
O16_2 Ca4_3 1_555 1_555
N2_2 H17_2 1_555 1_555
Ca1_3 O3_2 1_555 1_555
O7_3 Ca1_3 1_555 1_555
C15_2 C16_2 1_555 1_555
C16_2 H7_2 1_555 1_555
C17_2 C16_2 1_555 1_555
C18_2 C17_2 1_555 1_555
H8_2 C18_2 1_555 1_555
C19_2 C18_2 1_555 1_555
H9_2 C19_2 1_555 1_555
C20_2 C17_2 1_555 1_555
C21_2 C22_2 1_555 1_555
C22_2 H10_2 1_555 1_555
C23_2 C22_2 1_555 1_555
C24_2 C23_2 1_555 1_555
H11_2 C24_2 1_555 1_555
C25_2 C24_2 1_555 1_555
C26_2 C21_2 1_555 1_555
H12_2 C26_2 1_555 1_555
C27_2 C23_2 1_555 1_555
C28_2 C25_2 1_555 1_555
N3_2 C15_2 1_555 1_555
N4_2 C20_2 1_555 1_555
O8_2 N3_2 1_555 1_555
O9_2 C20_2 1_555 1_555
O10_2 Ca1_3 1_555 1_555
O17_2 Ca1_3 1_555 1_555
O12_2 C28_2 1_555 1_555
O13_2 C28_2 1_555 1_555
O19_2 Ca1_3 1_555 1_555
O21_2 Ca1_3 1_555 1_555
Ca4_3 O13_2 1_555 1_555
Ca8_2 O12_2 1_555 1_555
Ca8 O8_2 1_555 1_555
C19_2 N3_2 1_555 1_555
C21_2 N4_2 1_555 1_555
C25_2 C26_2 1_555 1_555
C27_2 O10_2 1_555 1_555
C27_2 O17_2 1_555 1_555
O13_2 Ca8_2 1_555 1_555
N4_2 H13_2 1_555 1_555
C15_2 H18_2 1_555 1_555
O5_3 C14_3 1_555 1_555
O6_3 C14_3 1_555 1_555
Ca6_2 O5_3 1_555 1_555
O15_3 Ca6_2 1_555 1_555
O18_3 Ca6_2 1_555 1_555
O21_3 Ca6_2 1_555 1_555
Ca4_4 O6_3 1_555 1_555
O6_3 Ca6_2 1_555 1_555
C1_3 C2_3 1_555 1_555
C2_3 H1_3 1_555 1_555
C3_3 C2_3 1_555 1_555
C4_3 C3_3 1_555 1_555
H2_3 C4_3 1_555 1_555
C5_3 C4_3 1_555 1_555
H3_3 C5_3 1_555 1_555
C6_3 C3_3 1_555 1_555
C7_3 C8_3 1_555 1_555
C8_3 H4_3 1_555 1_555
C9_3 C8_3 1_555 1_555
C10_3 C9_3 1_555 1_555
H5_3 C10_3 1_555 1_555
C11_3 C10_3 1_555 1_555
C12_3 C7_3 1_555 1_555
C13_3 C9_3 1_555 1_555
N1_3 C1_3 1_555 1_555
N2_3 C6_3 1_555 1_555
O14 N1_3 1_555 1_555
O2_3 C6_3 1_555 1_555
O3_3 C13_3 1_555 1_555
O4_3 C13_3 1_555 1_555
Ca1_4 O3_3 1_555 1_555
O7_4 Ca1_4 1_555 1_555
O21_3 Ca1_4 1_555 1_555
C5_3 N1_3 1_555 1_555
C7_3 N2_3 1_555 1_555
C11_3 C12_3 1_555 1_555
O4_3 Ca1_4 1_555 1_555
C1_3 H14_3 1_555 1_555
N2_3 H17_3 1_555 1_555
O16_3 Ca4_6 1_555 1_555
O7_5 Ca1_5 1_555 1_555
C15_3 C16_3 1_555 1_555
C16_3 H7_3 1_555 1_555
C17_3 C16_3 1_555 1_555
C18_3 C17_3 1_555 1_555
H8_3 C18_3 1_555 1_555
C19_3 C18_3 1_555 1_555
H9_3 C19_3 1_555 1_555
C20_3 C17_3 1_555 1_555
C21_3 C22_3 1_555 1_555
C22_3 H10_3 1_555 1_555
C23_3 C22_3 1_555 1_555
C24_3 C23_3 1_555 1_555
H11_3 C24_3 1_555 1_555
C25_3 C24_3 1_555 1_555
C26_3 C21_3 1_555 1_555
C27_3 C23_3 1_555 1_555
N3_3 C15_3 1_555 1_555
N4_3 C20_3 1_555 1_555
O8_3 N3_3 1_555 1_555
O9_3 C20_3 1_555 1_555
O10_3 Ca1_5 1_555 1_555
O17_3 Ca1_5 1_555 1_555
O19_3 Ca1_5 1_555 1_555
Ca8_2 O8_3 1_555 1_555
C19_3 N3_3 1_555 1_555
C21_3 N4_3 1_555 1_555
C25_3 C26_3 1_555 1_555
C27_3 O10_3 1_555 1_555
C27_3 O17_3 1_555 1_555
O19_3 Ca9 1_555 1_555
N4_3 H13_3 1_555 1_555
O7_5 H15_2 1_555 1_555
O7_5 H16_2 1_555 1_555
C15_3 H18_3 1_555 1_555
O12_3 C28_3 1_555 1_555
O13_3 C28_3 1_555 1_555
Ca4_7 O13_3 1_555 1_555
Ca9 O12_3 1_555 1_555
O13_3 Ca9 1_555 1_555
H2_4 C4_4 1_555 1_555
C5_4 C4_4 1_555 1_555
H3_4 C5_4 1_555 1_555
H5_4 C10_4 1_555 1_555
C11_4 C10_4 1_555 1_555
C12_4 C7_4 1_555 1_555
H6_4 C12_4 1_555 1_555
C14_4 C11_4 1_555 1_555
O5_4 C14_4 1_555 1_555
O19 C14_4 1_555 1_555
Ca8 O5_4 1_555 1_555
O14_2 Ca8 1_555 1_555
C7_4 N2_4 1_555 1_555
C11_4 C12_4 1_555 1_555
N2_4 H17_4 1_555 1_555
C1_4 C2_4 1_555 1_555
C2_4 H1_4 1_555 1_555
C3_4 C2_4 1_555 1_555
C6_4 C3_4 1_555 1_555
C8_4 H4_4 1_555 1_555
C9_4 C8_4 1_555 1_555
C13_4 C9_4 1_555 1_555
N1_4 C1_4 1_555 1_555
O1_3 N1_4 1_555 1_555
O2_4 C6_4 1_555 1_555
O3_4 C13_4 1_555 1_555
O16 C13_4 1_555 1_555
Ca4 O3_4 1_555 1_555
O7_6 Ca4 1_555 1_555
C1_4 H14_4 1_555 1_555
O7_7 Ca4_2 1_555 1_555
C15_4 C16_4 1_555 1_555
C16_4 H7_4 1_555 1_555
C17_4 C16_4 1_555 1_555
C18_4 C17_4 1_555 1_555
H8_4 C18_4 1_555 1_555
C19_4 C18_4 1_555 1_555
H9_4 C19_4 1_555 1_555
C20_4 C17_4 1_555 1_555
C21_4 C22_4 1_555 1_555
C22_4 H10_4 1_555 1_555
C23_4 C22_4 1_555 1_555
C24_4 C23_4 1_555 1_555
H11_4 C24_4 1_555 1_555
C25_4 C24_4 1_555 1_555
C26_4 C21_4 1_555 1_555
H12_4 C26_4 1_555 1_555
C27_4 C23_4 1_555 1_555
C28_4 C25_4 1_555 1_555
N3_4 C15_4 1_555 1_555
N4_4 C20_4 1_555 1_555
O15_3 N3_4 1_555 1_555
O9_4 C20_4 1_555 1_555
O10_4 Ca4_2 1_555 1_555
O17_4 Ca4_2 1_555 1_555
O18 C28_4 1_555 1_555
O21 C28_4 1_555 1_555
C19_4 N3_4 1_555 1_555
C21_4 N4_4 1_555 1_555
C25_4 C26_4 1_555 1_555
C27_4 O10_4 1_555 1_555
C27_4 O17_4 1_555 1_555
N4_4 H13_4 1_555 1_555
O7_7 H15_3 1_555 1_555
O7_7 H16_3 1_555 1_555
C15_4 H18_4 1_555 1_555
O17_5 Ca8_2 1_555 1_555
C1_5 C2_5 1_555 1_555
C2_5 H1_5 1_555 1_555
C3_5 C2_5 1_555 1_555
C4_5 C3_5 1_555 1_555
H2_5 C4_5 1_555 1_555
C5_5 C4_5 1_555 1_555
H3_5 C5_5 1_555 1_555
C6_5 C3_5 1_555 1_555
C7_5 C8_5 1_555 1_555
C8_5 H4_5 1_555 1_555
C9_5 C8_5 1_555 1_555
C10_5 C9_5 1_555 1_555
H5_5 C10_5 1_555 1_555
C11_5 C10_5 1_555 1_555
C12_5 C7_5 1_555 1_555
H6_5 C12_5 1_555 1_555
C13_5 C9_5 1_555 1_555
C14_5 C11_5 1_555 1_555
N1_5 C1_5 1_555 1_555
N2_5 C6_5 1_555 1_555
O1_4 N1_5 1_555 1_555
O2_5 C6_5 1_555 1_555
O3_5 C13_5 1_555 1_555
O16_2 C13_5 1_555 1_555
O5_5 C14_5 1_555 1_555
O19_2 C14_5 1_555 1_555
Ca4_3 O3_5 1_555 1_555
O7_8 Ca4_3 1_555 1_555
C15_5 C16_5 1_555 1_555
C16_5 H7_5 1_555 1_555
C17_5 C16_5 1_555 1_555
C20_5 C17_5 1_555 1_555
C22_5 H10_5 1_555 1_555
C23_5 C22_5 1_555 1_555
C27_5 C23_5 1_555 1_555
N3_5 C15_5 1_555 1_555
O15 N3_5 1_555 1_555
O9_5 C20_5 1_555 1_555
O10_5 Ca4_3 1_555 1_555
O17_5 Ca4_3 1_555 1_555
Ca9 O1_4 1_555 1_555
C5_5 N1_5 1_555 1_555
C7_5 N2_5 1_555 1_555
C11_5 C12_5 1_555 1_555
C27_5 O10_5 1_555 1_555
C27_5 O17_5 1_555 1_555
C1_5 H14_5 1_555 1_555
N2_5 H17_5 1_555 1_555
C15_5 H18_5 1_555 1_555
H8_5 C18_5 1_555 1_555
C19_5 C18_5 1_555 1_555
H9_5 C19_5 1_555 1_555
H11_5 C24_5 1_555 1_555
C25_5 C24_5 1_555 1_555
C26_5 C21_5 1_555 1_555
H12_5 C26_5 1_555 1_555
C28_5 C25_5 1_555 1_555
O18_2 C28_5 1_555 1_555
O21_2 C28_5 1_555 1_555
C21_5 N4_5 1_555 1_555
C25_5 C26_5 1_555 1_555
N4_5 H13_5 1_555 1_555
O7_9 Ca4_4 1_555 1_555
O7_9 H15_4 1_555 1_555
O7_10 Ca4_5 1_555 1_555
C15_6 C16_6 1_555 1_555
C16_6 H7_6 1_555 1_555
C17_6 C16_6 1_555 1_555
C18_6 C17_6 1_555 1_555
H8_6 C18_6 1_555 1_555
C19_6 C18_6 1_555 1_555
H9_6 C19_6 1_555 1_555
C20_6 C17_6 1_555 1_555
C21_6 C22_6 1_555 1_555
C22_6 H10_6 1_555 1_555
C23_6 C22_6 1_555 1_555
C24_6 C23_6 1_555 1_555
H11_6 C24_6 1_555 1_555
C25_6 C24_6 1_555 1_555
C26_6 C21_6 1_555 1_555
H12_6 C26_6 1_555 1_555
C27_6 C23_6 1_555 1_555
C28_6 C25_6 1_555 1_555
N3_6 C15_6 1_555 1_555
N4_6 C20_6 1_555 1_555
O15_2 N3_6 1_555 1_555
O9_6 C20_6 1_555 1_555
O10_6 Ca4_5 1_555 1_555
O17_6 Ca4_5 1_555 1_555
O18_3 C28_6 1_555 1_555
O21_3 C28_6 1_555 1_555
C19_6 N3_6 1_555 1_555
C21_6 N4_6 1_555 1_555
C25_6 C26_6 1_555 1_555
C27_6 O10_6 1_555 1_555
C27_6 O17_6 1_555 1_555
N4_6 H13_6 1_555 1_555
O7_10 H16_4 1_555 1_555
C15_6 H18_6 1_555 1_555
C1_6 C2_6 1_555 1_555
C2_6 H1_6 1_555 1_555
C3_6 C2_6 1_555 1_555
C4_6 C3_6 1_555 1_555
H2_6 C4_6 1_555 1_555
C5_6 C4_6 1_555 1_555
H3_6 C5_6 1_555 1_555
C6_6 C3_6 1_555 1_555
C7_6 C8_6 1_555 1_555
C8_6 H4_6 1_555 1_555
C9_6 C8_6 1_555 1_555
C10_6 C9_6 1_555 1_555
H5_6 C10_6 1_555 1_555
C11_6 C10_6 1_555 1_555
C12_6 C7_6 1_555 1_555
H6_6 C12_6 1_555 1_555
C13_6 C9_6 1_555 1_555
C14_6 C11_6 1_555 1_555
N1_6 C1_6 1_555 1_555
N2_6 C6_6 1_555 1_555
O14_2 N1_6 1_555 1_555
O2_6 C6_6 1_555 1_555
O3_6 C13_6 1_555 1_555
O16_3 C13_6 1_555 1_555
O5_6 C14_6 1_555 1_555
O19_3 C14_6 1_555 1_555
Ca4_6 O3_6 1_555 1_555
O7_11 Ca4_6 1_555 1_555
Ca9 O5_6 1_555 1_555
C5_6 N1_6 1_555 1_555
C7_6 N2_6 1_555 1_555
C11_6 C12_6 1_555 1_555
C1_6 H14_6 1_555 1_555
N2_6 H17_6 1_555 1_555
O7_12 Ca4_7 1_555 1_555
O7_4 H15_5 1_555 1_555
O7_4 H16_5 1_555 1_555
O7_2 H15_6 1_555 1_555
O7_2 H16_6 1_555 1_555
O7_11 H16_7 1_555 1_555
O7_12 H15_7 1_555 1_555
O7_6 H15_8 1_555 1_555
O7_6 H16_8 1_555 1_555

#END
