
###############################################################################
#
# This file contains modified crystal structure data generated from the
# MOF subset of the Cambridge Structural Database (CSD) v543 
# hosted by the Cambridge Crystallographic Data Centre (CCDC).
#
# This work is licensed under the Creative Commons
# Attribution-NonCommercial-ShareAlike 4.0 International License.
# To view a copy of this license, visit
# http://creativecommons.org/licenses/by-nc-sa/4.0/
# or send a letter to
# Creative Commons, PO Box 1866, Mountain View, CA 94042, USA.
#
# CIF created using the CSD Python API on 29 September 2022
# The structure has been converted into the P1 space group
# The structure has a 3D framework
# The original CSD entry RINNOU is in the monoclinic crystal system
# The framework has been calculated to contain at least 10.0% void space
# The void calculation uses a probe of radius 1.32A, grid spacing 0.4
# H atom positions have been added when not included in the experimental data
#
###############################################################################

data_RINNOU
_chemical_formula_moiety         '(C172 H124 Cd4 N20 O30)n'
_symmetry_cell_setting           triclinic
_symmetry_space_group_name_H-M   'P 1'
_symmetry_Int_Tables_number      1
_space_group_name_Hall           'P 1'
loop_
_symmetry_equiv_pos_site_id
_symmetry_equiv_pos_as_xyz
1 x,y,z
_cell_length_a                   24.42(2)
_cell_length_b                   9.548(8)
_cell_length_c                   28.679(18)
_cell_angle_alpha                90
_cell_angle_beta                 111.44(3)
_cell_angle_gamma                90
_cell_volume                     6224.13
loop_
_atom_site_label
_atom_site_type_symbol
_atom_site_fract_x
_atom_site_fract_y
_atom_site_fract_z
Cd1 Cd 0.07270(2) 0.39425(4) 0.52701(2)
O3 O 0.05592(17) 0.3212(5) 0.44803(14)
C2 C 0.0070(3) 0.2559(8) 0.3469(2)
H1 H 0.0412 0.2099 0.3666
H2 H 0.0025 0.1744 0.2802
C7 C 0.0058(2) 0.3704(6) 0.42385(19)
N1 N 0.01337(19) 0.2404(5) 0.54714(17)
C15 C 0.0093(3) 0.2424(7) 0.5926(2)
H8 H 0.0357 0.2978 0.6174
O9 O 0.02167(18) 0.5616(4) 0.55438(14)
O10 O 0.16307(16) 0.2676(4) 0.54848(14)
O11 O 0.14391(16) 0.3653(4) 0.61016(14)
N6 N 0.1299(2) 0.5799(5) 0.52168(18)
H20 H 0.3415 0.9585 0.4438
H22 H 0.4222 0.9707 0.4184
C36 C 0.1557(2) 0.6592(7) 0.5623(2)
H25 H 0.1430 0.6505 0.5890
C37 C 0.2000(3) 0.7527(6) 0.5665(2)
H26 H 0.2177 0.8036 0.5958
C38 C 0.2178(3) 0.7700(7) 0.5259(2)
C39 C 0.1898(3) 0.6923(7) 0.4828(2)
H27 H 0.1999 0.7027 0.4547
C40 C 0.1468(3) 0.5998(7) 0.4828(2)
H28 H 0.1282 0.5477 0.4539
C41 C 0.2666(3) 0.8669(7) 0.5307(3)
H29 H 0.2829 0.9142 0.5610
C42 C 0.2897(3) 0.8940(7) 0.4965(3)
H30 H 0.2743 0.8517 0.4652
C43 C 0.3400(3) 0.9911(8) 0.5080(3)
H23 H 0.0902 0.7239 0.9796
H24 H 0.0083 0.8447 0.9798
O8 O 0.1397(3) 0.5535(7) 0.9520(3)
N5 N 0.3701(2) 0.0799(5) 0.97832(18)
C36_2 C 0.3443(2) 0.1592(7) 0.9377(2)
H25_2 H 0.3570 0.1505 0.9110
C37_2 C 0.3000(3) 0.2527(6) 0.9335(2)
H26_2 H 0.2823 0.3036 0.9042
C38_2 C 0.2822(3) 0.2700(7) 0.9741(2)
C41_2 C 0.2334(3) 0.3669(7) 0.9693(3)
H29_2 H 0.2171 0.4142 0.9390
C43_2 C 0.1600(3) 0.4911(8) 0.9920(3)
Cd2 Cd 0.42730(2) 0.89425(4) 0.97299(2)
O9_2 O 0.47833(18) 0.0616(4) 0.94562(14)
O6 O 0.7060(3) 0.3438(7) 0.9015(2)
N1_2 N 0.48663(19) 0.7404(5) 0.95286(17)
C15_2 C 0.4907(3) 0.7424(7) 0.9074(2)
H8_2 H 0.4643 0.7978 0.8826
C16 C 0.5317(3) 0.6666(7) 0.8955(2)
H9 H 0.5327 0.6717 0.8635
C17 C 0.5713(2) 0.5832(6) 0.9314(2)
C18 C 0.5664(2) 0.5789(6) 0.9780(2)
C19 C 0.5247(2) 0.6582(6) 0.9875(2)
C20 C 0.6161(3) 0.5046(7) 0.9202(2)
H12 H 0.6221 0.5246 0.8907
C21 C 0.6485(3) 0.4061(6) 0.9499(2)
H13 H 0.6425 0.3873 0.9795
C22 C 0.6937(3) 0.3239(8) 0.9389(3)
N2 N 0.7196(2) 0.2292(6) 0.9745(2)
H14 H 0.7056 0.2218 0.9978
C23 C 0.7672(3) 0.1397(8) 0.9786(3)
C24 C 0.7887(5) 0.1195(12) 0.9418(4)
H16 H 0.7725 0.1671 0.9116
C25 C 0.8353(5) 0.0269(14) 0.9496(5)
H17 H 0.8494 0.0123 0.9239
O10_2 O 0.33693(16) 0.7676(4) 0.95152(14)
O11_2 O 0.35609(16) 0.8653(4) 0.88984(14)
O1 O 0.08570(17) 0.7160(6) 0.78395(15)
C1 C 0.0210(2) 0.6530(6) 0.63090(19)
C3 C 0.0163(3) 0.7663(9) 0.7046(2)
C4 C 0.0674(2) 0.6990(8) 0.7326(2)
C5 C 0.0959(2) 0.6102(7) 0.7111(2)
H3 H 0.1304 0.5655 0.7310
C6 C 0.0733(2) 0.5874(6) 0.6597(2)
C8 C 0.2604(2) 0.7761(6) 0.87247(19)
C9 C 0.2231(2) 0.6991(6) 0.8889(2)
H4 H 0.2373 0.6608 0.9209
C10 C 0.1646(2) 0.6778(7) 0.8583(2)
H5 H 0.1395 0.6271 0.8698
C11 C 0.1449(2) 0.7330(7) 0.8111(2)
C12 C 0.1812(2) 0.8106(7) 0.7935(2)
H6 H 0.1669 0.8479 0.7613
C13 C 0.2389(2) 0.8315(6) 0.8245(2)
H7 H 0.2637 0.8833 0.8130
C14 C 0.3218(2) 0.8041(6) 0.90638(19)
C16_2 C 0.0317(3) 0.8334(7) 0.3955(2)
H9_2 H 0.0327 0.8283 0.3635
C17_2 C 0.0713(2) 0.9168(6) 0.4314(2)
C18_2 C 0.0664(2) 0.9211(6) 0.4780(2)
H10 H 0.0916 0.9779 0.5030
C19_2 C 0.0247(2) 0.8418(6) 0.4875(2)
H11 H 0.0228 0.8455 0.5193
C20_2 C 0.1161(3) 0.9954(7) 0.4202(2)
H12_2 H 0.1221 0.9754 0.3907
H31 H 0.0961257 0.519384 0.642272
O1_2 O 0.41430(17) 0.2160(6) 0.71605(15)
O3_2 O 0.55592(17) 0.1788(5) 0.94803(14)
C1_2 C 0.4790(2) 0.1530(6) 0.86910(19)
C2_2 C 0.5070(3) 0.2441(8) 0.8469(2)
H1_2 H 0.5412 0.2901 0.8666
C3_2 C 0.4837(3) 0.2663(9) 0.7954(2)
H2_2 H 0.5025 0.3256 0.7802
C4_2 C 0.4326(2) 0.1990(8) 0.7674(2)
C5_2 C 0.4041(2) 0.1102(7) 0.7889(2)
H3_2 H 0.3696 0.0655 0.7690
C6_2 C 0.4267(2) 0.0874(6) 0.8403(2)
C7_2 C 0.5058(2) 0.1296(6) 0.92385(19)
C8_2 C 0.2396(2) 0.2761(6) 0.62753(19)
C9_2 C 0.2769(2) 0.1991(6) 0.6111(2)
H4_2 H 0.2627 0.1608 0.5791
C10_2 C 0.3354(2) 0.1778(7) 0.6417(2)
H5_2 H 0.3605 0.1271 0.6302
C11_2 C 0.3551(2) 0.2330(7) 0.6889(2)
C12_2 C 0.3188(2) 0.3106(7) 0.7065(2)
H6_2 H 0.3331 0.3479 0.7387
C13_2 C 0.2611(2) 0.3315(6) 0.6755(2)
H7_2 H 0.2363 0.3833 0.6870
C14_2 C 0.1782(2) 0.3041(6) 0.59362(19)
H10_2 H 0.4084 0.4779 0.9970
H11_2 H 0.4772 0.3455 0.9807
C28 C 0.2092(3) 0.9347(7) 0.9780(3)
H19 H 0.2251 0.9245 0.9532
H31_2 H 0.403874 0.0193838 0.857728
O1_3 O 0.91430(17) 0.2840(6) 0.21605(15)
O2 O 0.97833(18) 0.4384(4) 0.44562(14)
C1_3 C 0.9790(2) 0.3470(6) 0.36910(19)
C3_3 C 0.9837(3) 0.2337(9) 0.2954(2)
C4_3 C 0.9326(2) 0.3010(8) 0.2674(2)
C5_3 C 0.9041(2) 0.3898(7) 0.2889(2)
H3_3 H 0.8696 0.4345 0.2690
C6_3 C 0.9267(2) 0.4126(6) 0.3403(2)
O4 O 0.66307(16) 0.2324(4) 0.04848(14)
O5 O 0.64391(16) 0.1347(4) 0.11016(14)
C8_3 C 0.7396(2) 0.2239(6) 0.12753(19)
C9_3 C 0.7769(2) 0.3009(6) 0.1111(2)
H4_3 H 0.7627 0.3392 0.0791
C10_3 C 0.8354(2) 0.3222(7) 0.1417(2)
H5_3 H 0.8605 0.3729 0.1302
C11_3 C 0.8551(2) 0.2670(7) 0.1889(2)
C12_3 C 0.8188(2) 0.1894(7) 0.2065(2)
H6_3 H 0.8331 0.1521 0.2387
C13_3 C 0.7611(2) 0.1685(6) 0.1755(2)
H7_3 H 0.7363 0.1167 0.1870
C14_3 C 0.6782(2) 0.1959(6) 0.09362(19)
C16_3 C 0.9683(3) 0.1666(7) 0.6045(2)
H9_3 H 0.9673 0.1717 0.6365
C17_3 C 0.9287(2) 0.0832(6) 0.5686(2)
C18_3 C 0.9336(2) 0.0789(6) 0.5220(2)
H10_3 H 0.9084 0.0221 0.4970
C19_3 C 0.9753(2) 0.1582(6) 0.5125(2)
H11_3 H 0.9772 0.1545 0.4807
C20_3 C 0.8839(3) 0.0046(7) 0.5798(2)
H12_3 H 0.8779 0.0246 0.6093
Cd3 Cd 0.92730(2) 0.60575(4) 0.47299(2)
Cd4 Cd 0.57270(2) 0.10575(4) 0.02701(2)
H31_3 H 0.903874 0.480616 0.357728
O1_4 O 0.58570(17) 0.7840(6) 0.28395(15)
O2_2 O 0.52167(18) 0.9384(4) 0.05438(14)
O3_3 O 0.44408(17) 0.8212(5) 0.05197(14)
C1_4 C 0.5210(2) 0.8470(6) 0.13090(19)
C2_3 C 0.4930(3) 0.7559(8) 0.1531(2)
H1_3 H 0.4588 0.7099 0.1334
C3_4 C 0.5163(3) 0.7337(9) 0.2046(2)
H2_3 H 0.4975 0.6744 0.2198
C4_4 C 0.5674(2) 0.8010(8) 0.2326(2)
C5_4 C 0.5959(2) 0.8898(7) 0.2111(2)
H3_4 H 0.6304 0.9345 0.2310
C6_4 C 0.5733(2) 0.9126(6) 0.1597(2)
C7_3 C 0.4942(2) 0.8704(6) 0.07615(19)
O4_2 O 0.83693(16) 0.7324(4) 0.45152(14)
O5_2 O 0.85609(16) 0.6347(4) 0.38984(14)
C8_4 C 0.7604(2) 0.7239(6) 0.37247(19)
C9_4 C 0.7231(2) 0.8009(6) 0.3889(2)
H4_4 H 0.7373 0.8392 0.4209
C10_4 C 0.6646(2) 0.8222(7) 0.3583(2)
H5_4 H 0.6395 0.8729 0.3698
C11_4 C 0.6449(2) 0.7670(7) 0.3111(2)
C12_4 C 0.6812(2) 0.6894(7) 0.2935(2)
H6_4 H 0.6669 0.6521 0.2613
C13_4 C 0.7389(2) 0.6685(6) 0.3245(2)
H7_4 H 0.7637 0.6167 0.3130
C14_4 C 0.8218(2) 0.6959(6) 0.40638(19)
H10_4 H 0.5916 0.5221 0.0030
H11_4 H 0.5228 0.6545 0.0193
C28_2 C 0.7908(3) 0.0653(7) 0.0220(3)
H19_2 H 0.7749 0.0755 0.0468
H31_4 H 0.596126 0.980616 0.142272
H20_2 H 0.6585 0.0415 0.5562
H22_2 H 0.5778 0.0293 0.5816
N5_2 N 0.8701(2) 0.4201(5) 0.47832(18)
C36_3 C 0.8443(2) 0.3408(7) 0.4377(2)
H25_3 H 0.8570 0.3495 0.4110
C37_3 C 0.8000(3) 0.2473(6) 0.4335(2)
H26_3 H 0.7823 0.1964 0.4042
C38_3 C 0.7822(3) 0.2300(7) 0.4741(2)
C39_2 C 0.8102(3) 0.3077(7) 0.5172(2)
H27_2 H 0.8001 0.2973 0.5453
C40_2 C 0.8532(3) 0.4002(7) 0.5172(2)
H28_2 H 0.8718 0.4523 0.5461
C41_3 C 0.7334(3) 0.1331(7) 0.4693(3)
H29_3 H 0.7171 0.0858 0.4390
C42_2 C 0.7103(3) 0.1060(7) 0.5035(3)
H30_2 H 0.7257 0.1483 0.5348
C43_3 C 0.6600(3) 0.0089(8) 0.4920(3)
O3_4 O 0.94408(17) 0.6788(5) 0.55197(14)
C2_4 C 0.9930(3) 0.7441(8) 0.6531(2)
H1_4 H 0.9588 0.7901 0.6334
H2_4 H 0.9975 0.8256 0.7198
C7_4 C 0.9942(2) 0.6296(6) 0.57615(19)
N1_3 N 0.98663(19) 0.7596(5) 0.45286(17)
C15_3 C 0.9907(3) 0.7576(7) 0.4074(2)
H8_3 H 0.9643 0.7022 0.3826
O6_2 O 0.2940(3) 0.6562(7) 0.0985(2)
N1_4 N 0.51337(19) 0.2596(5) 0.04714(17)
C15_4 C 0.5093(3) 0.2576(7) 0.0926(2)
H8_4 H 0.5357 0.2022 0.1174
C16_4 C 0.4683(3) 0.3334(7) 0.1045(2)
H9_4 H 0.4673 0.3283 0.1365
C17_4 C 0.4287(2) 0.4168(6) 0.0686(2)
C18_4 C 0.4336(2) 0.4211(6) 0.0220(2)
C19_4 C 0.4753(2) 0.3418(6) 0.0125(2)
C20_4 C 0.3839(3) 0.4954(7) 0.0798(2)
H12_4 H 0.3779 0.4754 0.1093
C21_2 C 0.3515(3) 0.5939(6) 0.0501(2)
H13_2 H 0.3575 0.6127 0.0205
C22_2 C 0.3063(3) 0.6761(8) 0.0611(3)
N2_2 N 0.2804(2) 0.7708(6) 0.0255(2)
H14_2 H 0.2944 0.7782 0.0022
C23_2 C 0.2328(3) 0.8603(8) 0.0214(3)
C24_2 C 0.2113(5) 0.8805(12) 0.0582(4)
H16_2 H 0.2275 0.8329 0.0884
C25_2 C 0.1647(5) 0.9731(14) 0.0504(5)
H17_2 H 0.1506 0.9877 0.0761
N6_2 N 0.6299(2) 0.9201(5) 0.02168(18)
H23_2 H 0.9098 0.2761 0.0204
H24_2 H 0.9917 0.1553 0.0202
O8_2 O 0.8603(3) 0.4465(7) 0.0480(3)
C36_4 C 0.6557(2) 0.8408(7) 0.0623(2)
H25_4 H 0.6430 0.8495 0.0890
C37_4 C 0.7000(3) 0.7473(6) 0.0665(2)
H26_4 H 0.7177 0.6964 0.0958
C38_4 C 0.7178(3) 0.7300(7) 0.0259(2)
C41_4 C 0.7666(3) 0.6331(7) 0.0307(3)
H29_4 H 0.7829 0.5858 0.0610
C43_4 C 0.8400(3) 0.5089(8) 0.0080(3)
O6_3 O 0.7940(3) 0.8438(7) 0.5985(2)
C21_3 C 0.8515(3) 0.9061(6) 0.5501(2)
H13_3 H 0.8575 0.8873 0.5205
C22_3 C 0.8063(3) 0.8239(8) 0.5611(3)
N2_3 N 0.7804(2) 0.7292(6) 0.5255(2)
H14_3 H 0.7944 0.7218 0.5022
N3 N 0.5901(4) 0.3678(9) 0.5007(3)
H15 H 0.5815 0.3567 0.5270
C23_3 C 0.7328(3) 0.6397(8) 0.5214(3)
C24_3 C 0.7113(5) 0.6195(12) 0.5582(4)
H16_3 H 0.7275 0.6671 0.5884
C25_3 C 0.6647(5) 0.5269(14) 0.5504(5)
H17_3 H 0.6506 0.5123 0.5761
C26 C 0.6393(4) 0.4577(10) 0.5066(4)
C27 C 0.6620(3) 0.4747(8) 0.4699(3)
H18 H 0.6461 0.4262 0.4398
C28_3 C 0.7092(3) 0.5653(7) 0.4780(3)
H19_3 H 0.7251 0.5755 0.4532
O7 O 0.5668(3) 0.2983(10) 0.4210(3)
N4 N 0.3603(3) 0.0037(7) 0.4709(2)
C29 C 0.5050(4) 0.2293(11) 0.4666(4)
C30 C 0.4834(6) 0.1158(15) 0.4372(5)
H21 H 0.5011 0.0854 0.4153
C31 C 0.4365(6) 0.0469(15) 0.4396(5)
C32 C 0.4091(4) 0.0822(9) 0.4710(3)
C33 C 0.4290(5) 0.1942(13) 0.4994(5)
H23_3 H 0.4098 0.2239 0.5204
C34 C 0.4777(5) 0.2687(13) 0.4989(5)
H24_3 H 0.4917 0.3447 0.5202
C35 C 0.5569(4) 0.3010(11) 0.4610(4)
O8_3 O 0.3603(3) 0.0535(7) 0.5480(3)
N4_2 N 0.1397(3) 0.5037(7) 0.0291(2)
H20_3 H 0.1585 0.4585 0.0562
C30_2 C 0.0166(6) 0.6158(15) 0.0628(5)
C31_2 C 0.0635(6) 0.5469(15) 0.0604(5)
H22_3 H 0.0778 0.4707 0.0816
C32_2 C 0.0909(4) 0.5822(9) 0.0290(3)
C33_2 C 0.0710(5) 0.6942(13) 0.0006(5)
C34_2 C 0.0223(5) 0.7687(13) 0.0011(5)
C39_3 C 0.3102(3) 0.1923(7) 0.0172(2)
H27_3 H 0.3001 0.2027 0.0453
C40_3 C 0.3532(3) 0.0998(7) 0.0172(2)
H28_3 H 0.3718 0.0477 0.0461
C42_3 C 0.2103(3) 0.3940(7) 0.0035(3)
H30_3 H 0.2257 0.3517 0.0348
C27_2 C 0.8380(3) 0.9747(8) 0.0301(3)
H18_2 H 0.8539 0.9262 0.0602
O7_2 O 0.9332(3) 0.7983(10) 0.0790(3)
C29_2 C 0.9950(4) 0.7293(11) 0.0334(4)
H21_2 H 0.9989 0.5854 0.0847
C35_2 C 0.9431(4) 0.8010(11) 0.0390(4)
N3_2 N 0.9099(4) 0.8678(9) 0.9993(3)
H15_2 H 0.9185 0.8567 0.9730
C26_2 C 0.8607(4) 0.9577(10) 0.9934(4)
O6_4 O 0.2060(3) 0.1562(7) 0.4015(2)
C21_4 C 0.1485(3) 0.0939(6) 0.4499(2)
H13_4 H 0.1425 0.1127 0.4795
C22_4 C 0.1937(3) 0.1761(8) 0.4389(3)
N2_4 N 0.2196(2) 0.2708(6) 0.4745(2)
H14_4 H 0.2056 0.2782 0.4978
N3_3 N 0.4099(4) 0.6322(9) 0.4993(3)
H15_3 H 0.4185 0.6433 0.4730
C23_4 C 0.2672(3) 0.3603(8) 0.4786(3)
C24_4 C 0.2887(5) 0.3805(12) 0.4418(4)
H16_4 H 0.2725 0.3329 0.4116
C25_4 C 0.3353(5) 0.4731(14) 0.4496(5)
H17_4 H 0.3494 0.4877 0.4239
C26_3 C 0.3607(4) 0.5423(10) 0.4934(4)
C27_3 C 0.3380(3) 0.5253(8) 0.5301(3)
H18_3 H 0.3539 0.5738 0.5602
C28_4 C 0.2908(3) 0.4347(7) 0.5220(3)
H19_4 H 0.2749 0.4245 0.5468
O7_3 O 0.4332(3) 0.7017(10) 0.5790(3)
N4_3 N 0.6397(3) 0.9963(7) 0.5291(2)
C29_3 C 0.4950(4) 0.7707(11) 0.5334(4)
C30_3 C 0.5166(6) 0.8842(15) 0.5628(5)
H21_3 H 0.4989 0.9146 0.5847
C31_3 C 0.5635(6) 0.9531(15) 0.5604(5)
C32_3 C 0.5909(4) 0.9178(9) 0.5290(3)
C33_3 C 0.5710(5) 0.8058(13) 0.5006(5)
H23_4 H 0.5902 0.7761 0.4796
C34_3 C 0.5223(5) 0.7313(13) 0.5011(5)
H24_4 H 0.5083 0.6553 0.4798
C35_3 C 0.4431(4) 0.6990(11) 0.5390(4)
O8_4 O 0.6397(3) 0.9465(7) 0.4520(3)
N3_4 N 0.0901(4) 0.1322(9) 0.0007(3)
H15_4 H 0.0815 0.1433 0.0270
C26_4 C 0.1393(4) 0.0423(10) 0.0066(4)
C27_4 C 0.1620(3) 0.0253(8) 0.9699(3)
H18_4 H 0.1461 0.0738 0.9398
O7_4 O 0.0668(3) 0.2017(10) 0.9210(3)
C29_4 C 0.0050(4) 0.2707(11) 0.9666(4)
H21_4 H 0.0011 0.4146 0.9153
C35_4 C 0.0569(4) 0.1990(11) 0.9610(4)
N4_4 N 0.8603(3) 0.4963(7) 0.9709(2)
H20_4 H 0.8415 0.5415 0.9438
C30_4 C 0.9834(6) 0.3842(15) 0.9372(5)
C31_4 C 0.9365(6) 0.4531(15) 0.9396(5)
H22_4 H 0.9222 0.5293 0.9184
C32_4 C 0.9091(4) 0.4178(9) 0.9710(3)
C33_4 C 0.9290(5) 0.3058(13) 0.9994(5)
C34_4 C 0.9777(5) 0.2313(13) 0.9989(5)
C39_4 C 0.6898(3) 0.8077(7) 0.9828(2)
H27_4 H 0.6999 0.7973 0.9547
C40_4 C 0.6468(3) 0.9002(7) 0.9828(2)
H28_4 H 0.6282 0.9523 0.9539
C42_4 C 0.7897(3) 0.6060(7) 0.9965(3)
H30_4 H 0.7743 0.6483 0.9652
loop_
_geom_bond_atom_site_label_1
_geom_bond_atom_site_label_2
_geom_bond_site_symmetry_1
_geom_bond_site_symmetry_2
O3 Cd1 1_555 1_555
C2 H1 1_555 1_555
C7 O3 1_555 1_555
N1 Cd1 1_555 1_555
C15 N1 1_555 1_555
H8 C15 1_555 1_555
O9 Cd1 1_555 1_555
O10 Cd1 1_555 1_555
O11 Cd1 1_555 1_555
N6 Cd1 1_555 1_555
N6 C36 1_555 1_555
C36 H25 1_555 1_555
C37 C36 1_555 1_555
H26 C37 1_555 1_555
C38 C37 1_555 1_555
C39 C38 1_555 1_555
H27 C39 1_555 1_555
C40 N6 1_555 1_555
H28 C40 1_555 1_555
C41 C38 1_555 1_555
H29 C41 1_555 1_555
C42 C41 1_555 1_555
H30 C42 1_555 1_555
C39 C40 1_555 1_555
C42 C43 1_555 1_555
O8 C43_2 1_555 1_555
N5 C36_2 1_555 1_555
C36_2 H25_2 1_555 1_555
C37_2 C36_2 1_555 1_555
H26_2 C37_2 1_555 1_555
C38_2 C37_2 1_555 1_555
C41_2 C38_2 1_555 1_555
H29_2 C41_2 1_555 1_555
O6 C22 1_555 1_555
N1_2 Cd2 1_555 1_555
C15_2 N1_2 1_555 1_555
H8_2 C15_2 1_555 1_555
C16 C15_2 1_555 1_555
H9 C16 1_555 1_555
C17 C16 1_555 1_555
C18 C17 1_555 1_555
C19 N1_2 1_555 1_555
C20 C17 1_555 1_555
H12 C20 1_555 1_555
C21 C20 1_555 1_555
H13 C21 1_555 1_555
C22 C21 1_555 1_555
N2 C22 1_555 1_555
H14 N2 1_555 1_555
C23 N2 1_555 1_555
C24 C23 1_555 1_555
H16 C24 1_555 1_555
C25 C24 1_555 1_555
H17 C25 1_555 1_555
O10_2 Cd2 1_555 1_555
O11_2 Cd2 1_555 1_555
C18 C19 1_555 1_555
O1 C4 1_555 1_555
C4 C3 1_555 1_555
C5 C4 1_555 1_555
H3 C5 1_555 1_555
C6 C1 1_555 1_555
O10_2 C14 1_555 1_555
O11_2 C14 1_555 1_555
C8 C9 1_555 1_555
C9 H4 1_555 1_555
C10 C9 1_555 1_555
H5 C10 1_555 1_555
C11 O1 1_555 1_555
C12 C11 1_555 1_555
H6 C12 1_555 1_555
C13 C8 1_555 1_555
H7 C13 1_555 1_555
C14 C8 1_555 1_555
H9_2 C16_2 1_555 1_555
C17_2 C16_2 1_555 1_555
C18_2 C17_2 1_555 1_555
H10 C18_2 1_555 1_555
H11 C19_2 1_555 1_555
C20_2 C17_2 1_555 1_555
H12_2 C20_2 1_555 1_555
C5 C6 1_555 1_555
C10 C11 1_555 1_555
C12 C13 1_555 1_555
C18_2 C19_2 1_555 1_555
C6 H31 1_555 1_555
O1_2 C4_2 1_555 1_555
O9_2 C7_2 1_555 1_555
C1_2 C2_2 1_555 1_555
C2_2 H1_2 1_555 1_555
C3_2 C2_2 1_555 1_555
H2_2 C3_2 1_555 1_555
C4_2 C3_2 1_555 1_555
C5_2 C4_2 1_555 1_555
H3_2 C5_2 1_555 1_555
C6_2 C1_2 1_555 1_555
C7_2 O3_2 1_555 1_555
O10 C14_2 1_555 1_555
O11 C14_2 1_555 1_555
C8_2 C9_2 1_555 1_555
C9_2 H4_2 1_555 1_555
C10_2 C9_2 1_555 1_555
H5_2 C10_2 1_555 1_555
C11_2 O1_2 1_555 1_555
C12_2 C11_2 1_555 1_555
H6_2 C12_2 1_555 1_555
C13_2 C8_2 1_555 1_555
H7_2 C13_2 1_555 1_555
C14_2 C8_2 1_555 1_555
H19 C28 1_555 1_555
C1_2 C7_2 1_555 1_555
C5_2 C6_2 1_555 1_555
C10_2 C11_2 1_555 1_555
C12_2 C13_2 1_555 1_555
C6_2 H31_2 1_555 1_555
O1_3 C4_3 1_555 1_555
C4_3 C3_3 1_555 1_555
C5_3 C4_3 1_555 1_555
H3_3 C5_3 1_555 1_555
C6_3 C1_3 1_555 1_555
O4 C14_3 1_555 1_555
O5 C14_3 1_555 1_555
C8_3 C9_3 1_555 1_555
C9_3 H4_3 1_555 1_555
C10_3 C9_3 1_555 1_555
H5_3 C10_3 1_555 1_555
C11_3 O1_3 1_555 1_555
C12_3 C11_3 1_555 1_555
H6_3 C12_3 1_555 1_555
C13_3 C8_3 1_555 1_555
H7_3 C13_3 1_555 1_555
C14_3 C8_3 1_555 1_555
H9_3 C16_3 1_555 1_555
C17_3 C16_3 1_555 1_555
C18_3 C17_3 1_555 1_555
H10_3 C18_3 1_555 1_555
H11_3 C19_3 1_555 1_555
C20_3 C17_3 1_555 1_555
H12_3 C20_3 1_555 1_555
Cd3 O2 1_555 1_555
Cd4 O4 1_555 1_555
C5_3 C6_3 1_555 1_555
O5 Cd4 1_555 1_555
C10_3 C11_3 1_555 1_555
C12_3 C13_3 1_555 1_555
C18_3 C19_3 1_555 1_555
C6_3 H31_3 1_555 1_555
O1_4 C4_4 1_555 1_555
O2_2 C7_3 1_555 1_555
C1_4 C2_3 1_555 1_555
C2_3 H1_3 1_555 1_555
C3_4 C2_3 1_555 1_555
H2_3 C3_4 1_555 1_555
C4_4 C3_4 1_555 1_555
C5_4 C4_4 1_555 1_555
H3_4 C5_4 1_555 1_555
C6_4 C1_4 1_555 1_555
C7_3 O3_3 1_555 1_555
O4_2 C14_4 1_555 1_555
O5_2 C14_4 1_555 1_555
C8_4 C9_4 1_555 1_555
C9_4 H4_4 1_555 1_555
C10_4 C9_4 1_555 1_555
H5_4 C10_4 1_555 1_555
C11_4 O1_4 1_555 1_555
C12_4 C11_4 1_555 1_555
H6_4 C12_4 1_555 1_555
C13_4 C8_4 1_555 1_555
H7_4 C13_4 1_555 1_555
C14_4 C8_4 1_555 1_555
H19_2 C28_2 1_555 1_555
Cd3 O4_2 1_555 1_555
C1_4 C7_3 1_555 1_555
C5_4 C6_4 1_555 1_555
O5_2 Cd3 1_555 1_555
C10_4 C11_4 1_555 1_555
C12_4 C13_4 1_555 1_555
C6_4 H31_4 1_555 1_555
N5_2 C36_3 1_555 1_555
C36_3 H25_3 1_555 1_555
C37_3 C36_3 1_555 1_555
H26_3 C37_3 1_555 1_555
C38_3 C37_3 1_555 1_555
C39_2 C38_3 1_555 1_555
H27_2 C39_2 1_555 1_555
C40_2 N5_2 1_555 1_555
H28_2 C40_2 1_555 1_555
C41_3 C38_3 1_555 1_555
H29_3 C41_3 1_555 1_555
C42_2 C41_3 1_555 1_555
H30_2 C42_2 1_555 1_555
Cd3 N5_2 1_555 1_555
C39_2 C40_2 1_555 1_555
C42_2 C43_3 1_555 1_555
O3_4 Cd3 1_555 1_555
C2_4 H1_4 1_555 1_555
C7_4 O3_4 1_555 1_555
N1_3 Cd3 1_555 1_555
C15_3 N1_3 1_555 1_555
H8_3 C15_3 1_555 1_555
O6_2 C22_2 1_555 1_555
N1_4 Cd4 1_555 1_555
C15_4 N1_4 1_555 1_555
H8_4 C15_4 1_555 1_555
C16_4 C15_4 1_555 1_555
H9_4 C16_4 1_555 1_555
C17_4 C16_4 1_555 1_555
C18_4 C17_4 1_555 1_555
C19_4 N1_4 1_555 1_555
C20_4 C17_4 1_555 1_555
H12_4 C20_4 1_555 1_555
C21_2 C20_4 1_555 1_555
H13_2 C21_2 1_555 1_555
C22_2 C21_2 1_555 1_555
N2_2 C22_2 1_555 1_555
H14_2 N2_2 1_555 1_555
C23_2 N2_2 1_555 1_555
C24_2 C23_2 1_555 1_555
H16_2 C24_2 1_555 1_555
C25_2 C24_2 1_555 1_555
H17_2 C25_2 1_555 1_555
C18_4 C19_4 1_555 1_555
O8_2 C43_4 1_555 1_555
N6_2 C36_4 1_555 1_555
C36_4 H25_4 1_555 1_555
C37_4 C36_4 1_555 1_555
H26_4 C37_4 1_555 1_555
C38_4 C37_4 1_555 1_555
C41_4 C38_4 1_555 1_555
H29_4 C41_4 1_555 1_555
O6_3 C22_3 1_555 1_555
H13_3 C21_3 1_555 1_555
C22_3 C21_3 1_555 1_555
N2_3 C22_3 1_555 1_555
H14_3 N2_3 1_555 1_555
N3 H15 1_555 1_555
C23_3 N2_3 1_555 1_555
C24_3 C23_3 1_555 1_555
H16_3 C24_3 1_555 1_555
C25_3 C24_3 1_555 1_555
H17_3 C25_3 1_555 1_555
C26 N3 1_555 1_555
C27 C26 1_555 1_555
H18 C27 1_555 1_555
C28_3 C23_3 1_555 1_555
H19_3 C28_3 1_555 1_555
O7 C35 1_555 1_555
C29 C30 1_555 1_555
C30 H21 1_555 1_555
C31 C30 1_555 1_555
C32 N4 1_555 1_555
C33 C32 1_555 1_555
H23_3 C33 1_555 1_555
C34 C29 1_555 1_555
H24_3 C34 1_555 1_555
C35 N3 1_555 1_555
C25_3 C26 1_555 1_555
C27 C28_3 1_555 1_555
C29 C35 1_555 1_555
C31 C32 1_555 1_555
C33 C34 1_555 1_555
N4_2 H20_3 1_555 1_555
C31_2 C30_2 1_555 1_555
H22_3 C31_2 1_555 1_555
C32_2 N4_2 1_555 1_555
C33_2 C32_2 1_555 1_555
H27_3 C39_3 1_555 1_555
H28_3 C40_3 1_555 1_555
H30_3 C42_3 1_555 1_555
C31_2 C32_2 1_555 1_555
C33_2 C34_2 1_555 1_555
C39_3 C40_3 1_555 1_555
H18_2 C27_2 1_555 1_555
O7_2 C35_2 1_555 1_555
C29_2 C35_2 1_555 1_555
N3_2 H15_2 1_555 1_555
C26_2 N3_2 1_555 1_555
O6_4 C22_4 1_555 1_555
H13_4 C21_4 1_555 1_555
C22_4 C21_4 1_555 1_555
N2_4 C22_4 1_555 1_555
H14_4 N2_4 1_555 1_555
N3_3 H15_3 1_555 1_555
C23_4 N2_4 1_555 1_555
C24_4 C23_4 1_555 1_555
H16_4 C24_4 1_555 1_555
C25_4 C24_4 1_555 1_555
H17_4 C25_4 1_555 1_555
C26_3 N3_3 1_555 1_555
C27_3 C26_3 1_555 1_555
H18_3 C27_3 1_555 1_555
C28_4 C23_4 1_555 1_555
H19_4 C28_4 1_555 1_555
O7_3 C35_3 1_555 1_555
C29_3 C30_3 1_555 1_555
C30_3 H21_3 1_555 1_555
C31_3 C30_3 1_555 1_555
C32_3 N4_3 1_555 1_555
C33_3 C32_3 1_555 1_555
H23_4 C33_3 1_555 1_555
C34_3 C29_3 1_555 1_555
H24_4 C34_3 1_555 1_555
C35_3 N3_3 1_555 1_555
C25_4 C26_3 1_555 1_555
C27_3 C28_4 1_555 1_555
C29_3 C35_3 1_555 1_555
C31_3 C32_3 1_555 1_555
C33_3 C34_3 1_555 1_555
N3_4 H15_4 1_555 1_555
C26_4 N3_4 1_555 1_555
H18_4 C27_4 1_555 1_555
O7_4 C35_4 1_555 1_555
C29_4 C35_4 1_555 1_555
N4_4 H20_4 1_555 1_555
C31_4 C30_4 1_555 1_555
H22_4 C31_4 1_555 1_555
C32_4 N4_4 1_555 1_555
C33_4 C32_4 1_555 1_555
H27_4 C39_4 1_555 1_555
H28_4 C40_4 1_555 1_555
H30_4 C42_4 1_555 1_555
C31_4 C32_4 1_555 1_555
C33_4 C34_4 1_555 1_555
C39_4 C40_4 1_555 1_555

#END
