
###############################################################################
#
# This file contains modified crystal structure data generated from the
# MOF subset of the Cambridge Structural Database (CSD) v543 
# hosted by the Cambridge Crystallographic Data Centre (CCDC).
#
# This work is licensed under the Creative Commons
# Attribution-NonCommercial-ShareAlike 4.0 International License.
# To view a copy of this license, visit
# http://creativecommons.org/licenses/by-nc-sa/4.0/
# or send a letter to
# Creative Commons, PO Box 1866, Mountain View, CA 94042, USA.
#
# CIF created using the CSD Python API on 29 September 2022
# The structure has been converted into the P1 space group
# The structure has a 3D framework
# The original CSD entry RINNUA is in the monoclinic crystal system
# The framework has been calculated to contain at least 10.0% void space
# The void calculation uses a probe of radius 1.32A, grid spacing 0.4
#
###############################################################################

data_RINNUA
_chemical_formula_moiety         '(C172 H124 Co4 N20 O30)n'
_symmetry_cell_setting           triclinic
_symmetry_space_group_name_H-M   'P 1'
_symmetry_Int_Tables_number      1
_space_group_name_Hall           'P 1'
loop_
_symmetry_equiv_pos_site_id
_symmetry_equiv_pos_as_xyz
1 x,y,z
_cell_length_a                   23.803(2)
_cell_length_b                   9.7214(10)
_cell_length_c                   23.932(2)
_cell_angle_alpha                90
_cell_angle_beta                 103.862(4)
_cell_angle_gamma                90
_cell_volume                     5376.54
loop_
_atom_site_label
_atom_site_type_symbol
_atom_site_fract_x
_atom_site_fract_y
_atom_site_fract_z
Co1 Co 0.07598(2) 0.39842(5) 0.52284(2)
O1 O 0.09198(14) 0.6998(7) 0.82182(13)
O2 O 0.34912(12) 0.7381(3) 0.97308(12)
O3 O 0.35587(12) 0.8722(3) 0.90211(13)
C1 C 0.26602(16) 0.7618(4) 0.89529(14)
C2 C 0.2361(2) 0.8517(6) 0.8568(2)
H1 H 0.2548 0.9282 0.8465
C3 C 0.1778(2) 0.8320(9) 0.8322(2)
H2 H 0.1569 0.8966 0.8068
C4 C 0.1517(2) 0.7182(9) 0.8454(2)
C5 C 0.1808(3) 0.6213(7) 0.8826(3)
H3 H 0.1624 0.5418 0.8906
C6 C 0.2378(2) 0.6447(6) 0.9077(2)
H4 H 0.2582 0.5808 0.9338
C7 C 0.32772(17) 0.7894(4) 0.92485(16)
O4 O 0.04301(12) 0.5593(3) 0.55676(11)
C8 C 0.03179(15) 0.6392(4) 0.64687(15)
C10 C 0.0185(2) 0.7174(8) 0.7377(2)
C11 C 0.07394(19) 0.6807(8) 0.76260(18)
C12 C 0.10897(19) 0.6221(6) 0.73168(19)
H7 H 0.1465 0.5960 0.7497
C13 C 0.08815(16) 0.6022(5) 0.67381(17)
H8 H 0.1119 0.5636 0.6523
C14 C 0.00990(15) 0.6139(4) 0.58342(15)
N1 N 0.02184(12) 0.2600(3) 0.55647(13)
C19 C 0.01793(18) 0.2685(5) 0.61107(17)
H12 H 0.0419 0.3304 0.6352
Co3 Co 0.42402(2) 0.89842(5) 0.97716(2)
O9 O 0.15088(12) 0.2381(3) 0.52692(12)
O10 O 0.14413(12) 0.3722(3) 0.59789(13)
O11 O 0.04102(10) 0.3483(3) 0.43953(10)
N6 N 0.13033(13) 0.5462(3) 0.49163(14)
H21 H 0.3836 0.9600 0.5377
C36 C 0.16426(18) 0.6291(4) 0.53017(19)
H26 H 0.1613 0.6243 0.5682
C37 C 0.20318(18) 0.7209(5) 0.5172(2)
H27 H 0.2256 0.7761 0.5457
C38 C 0.20850(18) 0.7300(5) 0.4608(2)
C39 C 0.17272(18) 0.6481(5) 0.4207(2)
H28 H 0.1740 0.6529 0.3822
C40 C 0.13454(17) 0.5579(5) 0.43795(18)
H29 H 0.1108 0.5031 0.4101
C41 C 0.2506(2) 0.8238(5) 0.4446(2)
H30 H 0.2433 0.8530 0.4066
C42 C 0.2974(2) 0.8684(5) 0.4801(3)
H31 H 0.3056 0.8388 0.5181
C43 C 0.3387(2) 0.9660(6) 0.4619(3)
O1_2 O 0.40802(14) 0.1998(7) 0.67818(13)
C1_2 C 0.23398(16) 0.2618(4) 0.60471(14)
C2_2 C 0.2639(2) 0.3517(6) 0.6432(2)
H1_2 H 0.2452 0.4282 0.6535
C3_2 C 0.3222(2) 0.3320(9) 0.6678(2)
H2_2 H 0.3431 0.3966 0.6932
C4_2 C 0.3483(2) 0.2182(9) 0.6546(2)
C5_2 C 0.3192(3) 0.1213(7) 0.6174(3)
H3_2 H 0.3376 0.0418 0.6094
C6_2 C 0.2622(2) 0.1447(6) 0.5923(2)
H4_2 H 0.2418 0.0808 0.5662
C7_2 C 0.17228(17) 0.2894(4) 0.57515(16)
O4_2 O 0.45699(12) 0.0593(3) 0.94324(11)
O5 O 0.54102(10) 0.1517(3) 0.93953(10)
C8_2 C 0.46821(15) 0.1392(4) 0.85313(15)
C9 C 0.50261(17) 0.1960(6) 0.82083(18)
H5 H 0.5405 0.2204 0.8384
C10_2 C 0.4815(2) 0.2174(8) 0.7623(2)
H6 H 0.5049 0.2563 0.7405
C11_2 C 0.42606(19) 0.1807(8) 0.73740(18)
C12_2 C 0.39103(19) 0.1221(6) 0.76832(19)
H7_2 H 0.3535 0.0960 0.7503
C13_2 C 0.41185(16) 0.1022(5) 0.82619(17)
H8_2 H 0.3881 0.0636 0.8477
C14_2 C 0.49010(15) 0.1139(4) 0.91658(15)
O6 O 0.68217(19) 0.3468(5) 0.83838(16)
N1_2 N 0.47816(12) 0.7600(3) 0.94353(13)
C15 C 0.51418(17) 0.6721(4) 0.97649(17)
C16 C 0.55241(18) 0.5915(4) 0.95700(18)
H10 H 0.5760 0.5304 0.9820
C17 C 0.55633(18) 0.6001(4) 0.90013(18)
C18 C 0.5196(2) 0.6905(5) 0.86637(18)
H11 H 0.5199 0.6998 0.8278
C19_2 C 0.48207(18) 0.7685(5) 0.88893(17)
H12_2 H 0.4581 0.8304 0.8648
C20 C 0.59752(19) 0.5169(5) 0.87773(19)
H13 H 0.6001 0.5326 0.8401
C21 C 0.63062(19) 0.4227(4) 0.90710(19)
H14 H 0.6262 0.4048 0.9440
C22 C 0.6750(2) 0.3406(5) 0.8872(2)
N2 N 0.70528(15) 0.2595(4) 0.92812(16)
H15 H 0.6940 0.2602 0.9597
C23 C 0.75307(18) 0.1719(4) 0.9287(2)
C24 C 0.7784(2) 0.1119(6) 0.9790(3)
C25 C 0.8247(2) 0.0242(7) 0.9860(3)
C27 C 0.8213(3) 0.0551(8) 0.8881(3)
H19 H 0.8361 0.0355 0.8563
C28 C 0.7739(3) 0.1422(7) 0.8815(3)
H20 H 0.7566 0.1795 0.8457
C9_2 C 0.00261(17) 0.3040(6) 0.32083(18)
H5_2 H 0.0405 0.2796 0.3384
H6_2 H 0.0049 0.2437 0.2405
C15_2 C 0.01418(17) 0.8279(4) 0.47649(17)
H9 H 0.0133 0.8350 0.5150
C16_2 C 0.05241(18) 0.9085(4) 0.45700(18)
H10_2 H 0.0760 0.9696 0.4820
C17_2 C 0.05633(18) 0.8999(4) 0.40013(18)
C18_2 C 0.0196(2) 0.8095(5) 0.36637(18)
H11_2 H 0.0199 0.8002 0.3278
C20_2 C 0.09752(19) 0.9831(5) 0.37773(19)
H13_2 H 0.1001 0.9674 0.3401
H9_2 H 0.4867 0.3350 0.9850
H17 H 0.2362 0.8691 0.9891
N6_2 N 0.63033(13) 0.9538(3) 0.99163(14)
C31 C 0.9758(3) 0.2316(7) 0.9624(4)
H22 H 0.9770 0.1768 0.9308
C32 C 0.9288(3) 0.3195(6) 0.9587(3)
H23 H 0.8989 0.3226 0.9256
O8 O 0.83210(19) 0.4934(5) 0.9140(2)
C38_2 C 0.70850(18) 0.7700(5) 0.9608(2)
C39_2 C 0.67272(18) 0.8519(5) 0.9207(2)
H28_2 H 0.6740 0.8471 0.8822
C40_2 C 0.63454(17) 0.9421(5) 0.93795(18)
H29_2 H 0.6108 0.9969 0.9101
C41_2 C 0.7506(2) 0.6762(5) 0.9446(2)
H30_2 H 0.7433 0.6470 0.9066
C42_2 C 0.7974(2) 0.6316(5) 0.9801(3)
C43_2 C 0.8387(2) 0.5340(6) 0.9619(3)
O5_2 O 0.95898(10) 0.6517(3) 0.56047(10)
C9_3 C 0.99739(17) 0.6960(6) 0.67917(18)
H5_3 H 0.9595 0.7204 0.6616
H6_3 H 0.9951 0.7563 0.7595
C15_3 C 0.98582(17) 0.1721(4) 0.52351(17)
H9_3 H 0.9867 0.1650 0.4850
C16_3 C 0.94759(18) 0.0915(4) 0.54300(18)
H10_3 H 0.9240 0.0304 0.5180
C17_3 C 0.94367(18) 0.1001(4) 0.59987(18)
C18_3 C 0.9804(2) 0.1905(5) 0.63363(18)
H11_3 H 0.9801 0.1998 0.6722
C20_3 C 0.90248(19) 0.0169(5) 0.62227(19)
H13_3 H 0.8999 0.0326 0.6599
Co4 Co 0.92402(2) 0.60158(5) 0.47716(2)
C31_2 C 0.0242(3) 0.7684(7) 0.0376(4)
H22_2 H 0.0230 0.8232 0.0692
C32_2 C 0.0712(3) 0.6805(6) 0.0413(3)
H23_2 H 0.1011 0.6774 0.0744
O8_2 O 0.16790(19) 0.5066(5) 0.0860(2)
N5 N 0.36967(13) 0.0462(3) 0.00837(14)
C38_3 C 0.29150(18) 0.2300(5) 0.0392(2)
C39_3 C 0.32728(18) 0.1481(5) 0.0793(2)
H28_3 H 0.3260 0.1529 0.1178
C40_3 C 0.36546(17) 0.0579(5) 0.06205(18)
H29_3 H 0.3892 0.0031 0.0899
C41_3 C 0.2494(2) 0.3238(5) 0.0554(2)
H30_3 H 0.2567 0.3530 0.0934
C42_3 C 0.2026(2) 0.3684(5) 0.0199(3)
C43_3 C 0.1613(2) 0.4660(6) 0.0381(3)
Co4_2 Co 0.57598(2) 0.10158(5) 0.02284(2)
H9_4 H 0.5133 0.6650 0.0150
H17_2 H 0.7638 0.1309 0.0109
O11_2 O 0.45898(10) 0.8483(3) 0.06047(10)
H21_2 H 0.6164 0.0400 0.4623
N5_2 N 0.86967(13) 0.4538(3) 0.50837(14)
C36_2 C 0.83574(18) 0.3709(4) 0.46983(19)
H26_2 H 0.8387 0.3757 0.4318
C37_2 C 0.79682(18) 0.2791(5) 0.4828(2)
H27_2 H 0.7744 0.2239 0.4543
C38_4 C 0.79150(18) 0.2700(5) 0.5392(2)
C39_4 C 0.82728(18) 0.3519(5) 0.5793(2)
H28_4 H 0.8260 0.3471 0.6178
C40_4 C 0.86546(17) 0.4421(5) 0.56205(18)
H29_4 H 0.8892 0.4969 0.5899
C41_4 C 0.7494(2) 0.1762(5) 0.5554(2)
H30_4 H 0.7567 0.1470 0.5934
C42_4 C 0.7026(2) 0.1316(5) 0.5199(3)
H31_2 H 0.6944 0.1612 0.4819
C43_4 C 0.6613(2) 0.0340(6) 0.5381(3)
O1_3 O 0.90802(14) 0.3002(7) 0.17818(13)
O2_2 O 0.65088(12) 0.2619(3) 0.02692(12)
O3_2 O 0.64413(12) 0.1278(3) 0.09789(13)
C1_3 C 0.73398(16) 0.2382(4) 0.10471(14)
C2_3 C 0.7639(2) 0.1483(6) 0.1432(2)
H1_3 H 0.7452 0.0718 0.1535
C3_3 C 0.8222(2) 0.1680(9) 0.1678(2)
H2_3 H 0.8431 0.1034 0.1932
C4_3 C 0.8483(2) 0.2818(9) 0.1546(2)
C5_3 C 0.8192(3) 0.3787(7) 0.1174(3)
H3_3 H 0.8376 0.4582 0.1094
C6_3 C 0.7622(2) 0.3553(6) 0.0923(2)
H4_3 H 0.7418 0.4192 0.0662
C7_3 C 0.67228(17) 0.2106(4) 0.07515(16)
O4_3 O 0.95699(12) 0.4407(3) 0.44324(11)
C8_3 C 0.96821(15) 0.3608(4) 0.35313(15)
C10_3 C 0.9815(2) 0.2826(8) 0.2623(2)
C11_3 C 0.92606(19) 0.3193(8) 0.23740(18)
C12_3 C 0.89103(19) 0.3779(6) 0.26832(19)
H7_3 H 0.8535 0.4040 0.2503
C13_3 C 0.91185(16) 0.3978(5) 0.32619(17)
H8_3 H 0.8881 0.4364 0.3477
C14_3 C 0.99010(15) 0.3861(4) 0.41658(15)
N1_3 N 0.97816(12) 0.7400(3) 0.44353(13)
C19_3 C 0.98207(18) 0.7315(5) 0.38893(17)
H12_3 H 0.9581 0.6696 0.3648
O9_2 O 0.84912(12) 0.7619(3) 0.47308(12)
O10_2 O 0.85587(12) 0.6278(3) 0.40211(13)
O6_2 O 0.31783(19) 0.6532(5) 0.16162(16)
N1_4 N 0.52184(12) 0.2400(3) 0.05647(13)
C15_4 C 0.48582(17) 0.3279(4) 0.02351(17)
C16_4 C 0.44759(18) 0.4085(4) 0.04300(18)
H10_4 H 0.4240 0.4696 0.0180
C17_4 C 0.44367(18) 0.3999(4) 0.09987(18)
C18_4 C 0.4804(2) 0.3095(5) 0.13363(18)
H11_4 H 0.4801 0.3002 0.1722
C19_4 C 0.51793(18) 0.2315(5) 0.11107(17)
H12_4 H 0.5419 0.1696 0.1352
C20_4 C 0.40248(19) 0.4831(5) 0.12227(19)
H13_4 H 0.3999 0.4674 0.1599
C21_2 C 0.36938(19) 0.5773(4) 0.09290(19)
H14_2 H 0.3738 0.5952 0.0560
C22_2 C 0.3250(2) 0.6594(5) 0.1128(2)
N2_2 N 0.29472(15) 0.7405(4) 0.07188(16)
H15_2 H 0.3060 0.7398 0.0403
C23_2 C 0.24693(18) 0.8281(4) 0.0713(2)
C24_2 C 0.2216(2) 0.8881(6) 0.0210(3)
C25_2 C 0.1753(2) 0.9758(7) 0.0140(3)
C27_2 C 0.1787(3) 0.9449(8) 0.1119(3)
H19_2 H 0.1639 0.9645 0.1437
C28_2 C 0.2261(3) 0.8578(7) 0.1185(3)
H20_2 H 0.2434 0.8205 0.1543
O1_4 O 0.59198(14) 0.8002(7) 0.32182(13)
C1_4 C 0.76602(16) 0.7382(4) 0.39529(14)
C2_4 C 0.7361(2) 0.6483(6) 0.3568(2)
H1_4 H 0.7548 0.5718 0.3465
C3_4 C 0.6778(2) 0.6680(9) 0.3322(2)
H2_4 H 0.6569 0.6034 0.3068
C4_4 C 0.6517(2) 0.7818(9) 0.3454(2)
C5_4 C 0.6808(3) 0.8787(7) 0.3826(3)
H3_4 H 0.6624 0.9582 0.3906
C6_4 C 0.7378(2) 0.8553(6) 0.4077(2)
H4_4 H 0.7582 0.9192 0.4338
C7_4 C 0.82772(17) 0.7106(4) 0.42485(16)
O4_4 O 0.54301(12) 0.9407(3) 0.05676(11)
C8_4 C 0.53179(15) 0.8608(4) 0.14687(15)
C9_4 C 0.49739(17) 0.8040(6) 0.17917(18)
H5_4 H 0.4595 0.7796 0.1616
C10_4 C 0.5185(2) 0.7826(8) 0.2377(2)
H6_4 H 0.4951 0.7437 0.2595
C11_4 C 0.57394(19) 0.8193(8) 0.26260(18)
C12_4 C 0.60897(19) 0.8779(6) 0.23168(19)
H7_4 H 0.6465 0.9040 0.2497
C13_4 C 0.58815(16) 0.8978(5) 0.17381(17)
H8_4 H 0.6119 0.9364 0.1523
C14_4 C 0.50990(15) 0.8861(4) 0.08342(15)
O6_3 O 0.81783(19) 0.8468(5) 0.66162(16)
C21_3 C 0.86938(19) 0.9227(4) 0.59290(19)
H14_3 H 0.8738 0.9048 0.5560
C22_3 C 0.8250(2) 0.8406(5) 0.6128(2)
N2_3 N 0.79472(15) 0.7595(4) 0.57188(16)
H15_3 H 0.8060 0.7602 0.5403
N3 N 0.6029(2) 0.4093(5) 0.5546(3)
H16 H 0.5964 0.3829 0.5868
C23_3 C 0.74693(18) 0.6719(4) 0.5713(2)
C24_3 C 0.7216(2) 0.6119(6) 0.5210(3)
H17_3 H 0.7362 0.6309 0.4891
C25_3 C 0.6753(2) 0.5242(7) 0.5140(3)
H18 H 0.6595 0.4841 0.4785
C26 C 0.6531(2) 0.4974(5) 0.5597(3)
C27_3 C 0.6787(3) 0.5551(8) 0.6119(3)
H19_3 H 0.6639 0.5355 0.6437
C28_3 C 0.7261(3) 0.6422(7) 0.6185(3)
H20_3 H 0.7434 0.6795 0.6543
O7 O 0.5741(3) 0.4021(8) 0.4503(4)
N4 N 0.38231(17) 0.0007(4) 0.5055(2)
C29 C 0.5682(3) 0.3665(7) 0.5112(5)
C30 C 0.5192(3) 0.2771(6) 0.5093(4)
C31_3 C 0.4758(3) 0.2684(7) 0.4624(4)
H22_3 H 0.4770 0.3232 0.4308
C32_3 C 0.4288(3) 0.1805(6) 0.4587(3)
H23_3 H 0.3989 0.1774 0.4256
C33 C 0.4275(2) 0.0979(5) 0.5055(3)
C34 C 0.4714(3) 0.1020(7) 0.5556(4)
H24 H 0.4710 0.0460 0.5870
C35 C 0.5172(3) 0.1981(8) 0.5559(3)
H25 H 0.5467 0.2068 0.5892
O8_3 O 0.33210(19) 0.0066(5) 0.4140(2)
N4_2 N 0.11769(17) 0.5007(4) 0.9945(2)
H21_3 H 0.1164 0.4600 0.9623
C33_2 C 0.0725(2) 0.5979(5) 0.9945(3)
C34_2 C 0.0286(3) 0.6020(7) 0.9444(4)
H24_2 H 0.0290 0.5460 0.9130
C36_3 C 0.33574(18) 0.1291(4) 0.96983(19)
H26_3 H 0.3387 0.1243 0.9318
C37_3 C 0.29682(18) 0.2209(5) 0.9828(2)
H27_3 H 0.2744 0.2761 0.9543
H31_3 H 0.1944 0.3388 0.9819
H18_2 H 0.8405 0.9841 0.0215
O7_2 O 0.9259(3) 0.9021(8) 0.0497(4)
N3_2 N 0.8971(2) 0.9093(5) 0.9454(3)
H16_2 H 0.9036 0.8829 0.9132
C26_2 C 0.8469(2) 0.9974(5) 0.9403(3)
C29_2 C 0.9318(3) 0.8665(7) 0.9888(5)
C30_2 C 0.9808(3) 0.7771(6) 0.9907(4)
C35_2 C 0.9828(3) 0.6981(8) 0.9441(3)
H25_2 H 0.9533 0.7068 0.9108
O6_4 O 0.18217(19) 0.1532(5) 0.33838(16)
C21_4 C 0.13062(19) 0.0773(4) 0.40710(19)
H14_4 H 0.1262 0.0952 0.4440
C22_4 C 0.1750(2) 0.1594(5) 0.3872(2)
N2_4 N 0.20528(15) 0.2405(4) 0.42812(16)
H15_4 H 0.1940 0.2398 0.4597
N3_3 N 0.3971(2) 0.5907(5) 0.4454(3)
H16_3 H 0.4036 0.6171 0.4132
C23_4 C 0.25307(18) 0.3281(4) 0.4287(2)
C24_4 C 0.2784(2) 0.3881(6) 0.4790(3)
H17_4 H 0.2638 0.3691 0.5109
C25_4 C 0.3247(2) 0.4758(7) 0.4860(3)
H18_3 H 0.3405 0.5159 0.5215
C26_3 C 0.3469(2) 0.5026(5) 0.4403(3)
C27_4 C 0.3213(3) 0.4449(8) 0.3881(3)
H19_4 H 0.3361 0.4645 0.3563
C28_4 C 0.2739(3) 0.3578(7) 0.3815(3)
H20_4 H 0.2566 0.3205 0.3457
O7_3 O 0.4259(3) 0.5979(8) 0.5497(4)
N4_3 N 0.61769(17) 0.9993(4) 0.4945(2)
C29_3 C 0.4318(3) 0.6335(7) 0.4888(5)
C30_3 C 0.4808(3) 0.7229(6) 0.4907(4)
C31_4 C 0.5242(3) 0.7316(7) 0.5376(4)
H22_4 H 0.5230 0.6768 0.5692
C32_4 C 0.5712(3) 0.8195(6) 0.5413(3)
H23_4 H 0.6011 0.8226 0.5744
C33_3 C 0.5725(2) 0.9021(5) 0.4945(3)
C34_3 C 0.5286(3) 0.8980(7) 0.4444(4)
H24_3 H 0.5290 0.9540 0.4130
C35_3 C 0.4828(3) 0.8019(8) 0.4441(3)
H25_3 H 0.4533 0.7932 0.4108
O8_4 O 0.66790(19) 0.9934(5) 0.5860(2)
N3_4 N 0.1029(2) 0.0907(5) 0.0546(3)
H16_4 H 0.0964 0.1171 0.0868
C26_4 C 0.1531(2) 0.0026(5) 0.0597(3)
C29_4 C 0.0682(3) 0.1335(7) 0.0112(5)
C30_4 C 0.0192(3) 0.2229(6) 0.0093(4)
C35_4 C 0.0172(3) 0.3019(8) 0.0559(3)
H25_4 H 0.0467 0.2932 0.0892
H18_4 H 0.1595 0.0159 0.9785
O7_4 O 0.0741(3) 0.0979(8) 0.9503(4)
N4_4 N 0.88231(17) 0.4993(4) 0.0055(2)
H21_4 H 0.8836 0.5400 0.0377
C33_4 C 0.9275(2) 0.4021(5) 0.0055(3)
C34_4 C 0.9714(3) 0.3980(7) 0.0556(4)
H24_4 H 0.9710 0.4540 0.0870
C36_4 C 0.66426(18) 0.8709(4) 0.03017(19)
H26_4 H 0.6613 0.8757 0.0682
C37_4 C 0.70318(18) 0.7791(5) 0.0172(2)
H27_4 H 0.7256 0.7239 0.0457
H31_4 H 0.8056 0.6612 0.0181
loop_
_geom_bond_atom_site_label_1
_geom_bond_atom_site_label_2
_geom_bond_site_symmetry_1
_geom_bond_site_symmetry_2
Co1 O4 1_555 1_555
O1 C4 1_555 1_555
O2 C7 1_555 1_555
O3 C7 1_555 1_555
C1 C2 1_555 1_555
C2 H1 1_555 1_555
C3 C2 1_555 1_555
H2 C3 1_555 1_555
C4 C3 1_555 1_555
C5 C4 1_555 1_555
H3 C5 1_555 1_555
C6 C1 1_555 1_555
H4 C6 1_555 1_555
C7 C1 1_555 1_555
O4 C14 1_555 1_555
C11 O1 1_555 1_555
C12 C11 1_555 1_555
H7 C12 1_555 1_555
C13 C8 1_555 1_555
H8 C13 1_555 1_555
C14 C8 1_555 1_555
N1 Co1 1_555 1_555
C19 N1 1_555 1_555
H12 C19 1_555 1_555
Co3 O2 1_555 1_555
O9 Co1 1_555 1_555
O10 Co1 1_555 1_555
O11 Co1 1_555 1_555
N6 Co1 1_555 1_555
O3 Co3 1_555 1_555
C5 C6 1_555 1_555
C10 C11 1_555 1_555
C12 C13 1_555 1_555
N6 C36 1_555 1_555
C36 H26 1_555 1_555
C37 C36 1_555 1_555
H27 C37 1_555 1_555
C38 C37 1_555 1_555
C39 C38 1_555 1_555
H28 C39 1_555 1_555
C40 N6 1_555 1_555
H29 C40 1_555 1_555
C41 C38 1_555 1_555
H30 C41 1_555 1_555
C42 C41 1_555 1_555
H31 C42 1_555 1_555
C39 C40 1_555 1_555
C42 C43 1_555 1_555
O1_2 C4_2 1_555 1_555
O9 C7_2 1_555 1_555
O10 C7_2 1_555 1_555
C1_2 C2_2 1_555 1_555
C2_2 H1_2 1_555 1_555
C3_2 C2_2 1_555 1_555
H2_2 C3_2 1_555 1_555
C4_2 C3_2 1_555 1_555
C5_2 C4_2 1_555 1_555
H3_2 C5_2 1_555 1_555
C6_2 C1_2 1_555 1_555
H4_2 C6_2 1_555 1_555
C7_2 C1_2 1_555 1_555
O4_2 C14_2 1_555 1_555
O5 C14_2 1_555 1_555
C8_2 C9 1_555 1_555
C9 H5 1_555 1_555
C10_2 C9 1_555 1_555
H6 C10_2 1_555 1_555
C11_2 O1_2 1_555 1_555
C12_2 C11_2 1_555 1_555
H7_2 C12_2 1_555 1_555
C13_2 C8_2 1_555 1_555
H8_2 C13_2 1_555 1_555
C14_2 C8_2 1_555 1_555
C5_2 C6_2 1_555 1_555
C10_2 C11_2 1_555 1_555
C12_2 C13_2 1_555 1_555
O6 C22 1_555 1_555
N1_2 Co3 1_555 1_555
C15 N1_2 1_555 1_555
C16 C15 1_555 1_555
H10 C16 1_555 1_555
C17 C16 1_555 1_555
C18 C17 1_555 1_555
H11 C18 1_555 1_555
C19_2 N1_2 1_555 1_555
H12_2 C19_2 1_555 1_555
C20 C17 1_555 1_555
H13 C20 1_555 1_555
C21 C20 1_555 1_555
H14 C21 1_555 1_555
C22 C21 1_555 1_555
N2 C22 1_555 1_555
H15 N2 1_555 1_555
C23 N2 1_555 1_555
C24 C23 1_555 1_555
C25 C24 1_555 1_555
H19 C27 1_555 1_555
C28 C23 1_555 1_555
H20 C28 1_555 1_555
C18 C19_2 1_555 1_555
C27 C28 1_555 1_555
C9_2 H5_2 1_555 1_555
H9 C15_2 1_555 1_555
C16_2 C15_2 1_555 1_555
H10_2 C16_2 1_555 1_555
C17_2 C16_2 1_555 1_555
C18_2 C17_2 1_555 1_555
H11_2 C18_2 1_555 1_555
C20_2 C17_2 1_555 1_555
H13_2 C20_2 1_555 1_555
H22 C31 1_555 1_555
C32 C31 1_555 1_555
H23 C32 1_555 1_555
O8 C43_2 1_555 1_555
C39_2 C38_2 1_555 1_555
H28_2 C39_2 1_555 1_555
C40_2 N6_2 1_555 1_555
H29_2 C40_2 1_555 1_555
C41_2 C38_2 1_555 1_555
H30_2 C41_2 1_555 1_555
C42_2 C41_2 1_555 1_555
C39_2 C40_2 1_555 1_555
C42_2 C43_2 1_555 1_555
C9_3 H5_3 1_555 1_555
H9_3 C15_3 1_555 1_555
C16_3 C15_3 1_555 1_555
H10_3 C16_3 1_555 1_555
C17_3 C16_3 1_555 1_555
C18_3 C17_3 1_555 1_555
H11_3 C18_3 1_555 1_555
C20_3 C17_3 1_555 1_555
H13_3 C20_3 1_555 1_555
Co4 O5_2 1_555 1_555
H22_2 C31_2 1_555 1_555
C32_2 C31_2 1_555 1_555
H23_2 C32_2 1_555 1_555
O8_2 C43_3 1_555 1_555
C39_3 C38_3 1_555 1_555
H28_3 C39_3 1_555 1_555
C40_3 N5 1_555 1_555
H29_3 C40_3 1_555 1_555
C41_3 C38_3 1_555 1_555
H30_3 C41_3 1_555 1_555
C42_3 C41_3 1_555 1_555
C39_3 C40_3 1_555 1_555
C42_3 C43_3 1_555 1_555
N5_2 C36_2 1_555 1_555
C36_2 H26_2 1_555 1_555
C37_2 C36_2 1_555 1_555
H27_2 C37_2 1_555 1_555
C38_4 C37_2 1_555 1_555
C39_4 C38_4 1_555 1_555
H28_4 C39_4 1_555 1_555
C40_4 N5_2 1_555 1_555
H29_4 C40_4 1_555 1_555
C41_4 C38_4 1_555 1_555
H30_4 C41_4 1_555 1_555
C42_4 C41_4 1_555 1_555
H31_2 C42_4 1_555 1_555
Co4 N5_2 1_555 1_555
C39_4 C40_4 1_555 1_555
C42_4 C43_4 1_555 1_555
Co4 O4_3 1_555 1_555
O1_3 C4_3 1_555 1_555
O2_2 C7_3 1_555 1_555
O3_2 C7_3 1_555 1_555
C1_3 C2_3 1_555 1_555
C2_3 H1_3 1_555 1_555
C3_3 C2_3 1_555 1_555
H2_3 C3_3 1_555 1_555
C4_3 C3_3 1_555 1_555
C5_3 C4_3 1_555 1_555
H3_3 C5_3 1_555 1_555
C6_3 C1_3 1_555 1_555
H4_3 C6_3 1_555 1_555
C7_3 C1_3 1_555 1_555
O4_3 C14_3 1_555 1_555
C11_3 O1_3 1_555 1_555
C12_3 C11_3 1_555 1_555
H7_3 C12_3 1_555 1_555
C13_3 C8_3 1_555 1_555
H8_3 C13_3 1_555 1_555
C14_3 C8_3 1_555 1_555
N1_3 Co4 1_555 1_555
C19_3 N1_3 1_555 1_555
H12_3 C19_3 1_555 1_555
Co4_2 O2_2 1_555 1_555
O9_2 Co4 1_555 1_555
O10_2 Co4 1_555 1_555
O3_2 Co4_2 1_555 1_555
C5_3 C6_3 1_555 1_555
C10_3 C11_3 1_555 1_555
C12_3 C13_3 1_555 1_555
O6_2 C22_2 1_555 1_555
N1_4 Co4_2 1_555 1_555
C15_4 N1_4 1_555 1_555
C16_4 C15_4 1_555 1_555
H10_4 C16_4 1_555 1_555
C17_4 C16_4 1_555 1_555
C18_4 C17_4 1_555 1_555
H11_4 C18_4 1_555 1_555
C19_4 N1_4 1_555 1_555
H12_4 C19_4 1_555 1_555
C20_4 C17_4 1_555 1_555
H13_4 C20_4 1_555 1_555
C21_2 C20_4 1_555 1_555
H14_2 C21_2 1_555 1_555
C22_2 C21_2 1_555 1_555
N2_2 C22_2 1_555 1_555
H15_2 N2_2 1_555 1_555
C23_2 N2_2 1_555 1_555
C24_2 C23_2 1_555 1_555
C25_2 C24_2 1_555 1_555
H19_2 C27_2 1_555 1_555
C28_2 C23_2 1_555 1_555
H20_2 C28_2 1_555 1_555
C18_4 C19_4 1_555 1_555
C27_2 C28_2 1_555 1_555
O1_4 C4_4 1_555 1_555
O9_2 C7_4 1_555 1_555
O10_2 C7_4 1_555 1_555
C1_4 C2_4 1_555 1_555
C2_4 H1_4 1_555 1_555
C3_4 C2_4 1_555 1_555
H2_4 C3_4 1_555 1_555
C4_4 C3_4 1_555 1_555
C5_4 C4_4 1_555 1_555
H3_4 C5_4 1_555 1_555
C6_4 C1_4 1_555 1_555
H4_4 C6_4 1_555 1_555
C7_4 C1_4 1_555 1_555
O4_4 C14_4 1_555 1_555
O11_2 C14_4 1_555 1_555
C8_4 C9_4 1_555 1_555
C9_4 H5_4 1_555 1_555
C10_4 C9_4 1_555 1_555
H6_4 C10_4 1_555 1_555
C11_4 O1_4 1_555 1_555
C12_4 C11_4 1_555 1_555
H7_4 C12_4 1_555 1_555
C13_4 C8_4 1_555 1_555
H8_4 C13_4 1_555 1_555
C14_4 C8_4 1_555 1_555
C5_4 C6_4 1_555 1_555
C10_4 C11_4 1_555 1_555
C12_4 C13_4 1_555 1_555
O6_3 C22_3 1_555 1_555
H14_3 C21_3 1_555 1_555
C22_3 C21_3 1_555 1_555
N2_3 C22_3 1_555 1_555
H15_3 N2_3 1_555 1_555
N3 H16 1_555 1_555
C23_3 N2_3 1_555 1_555
C24_3 C23_3 1_555 1_555
H17_3 C24_3 1_555 1_555
C25_3 C24_3 1_555 1_555
H18 C25_3 1_555 1_555
C26 N3 1_555 1_555
C27_3 C26 1_555 1_555
H19_3 C27_3 1_555 1_555
C28_3 C23_3 1_555 1_555
H20_3 C28_3 1_555 1_555
O7 C29 1_555 1_555
C29 N3 1_555 1_555
C30 C29 1_555 1_555
C31_3 C30 1_555 1_555
H22_3 C31_3 1_555 1_555
C32_3 C31_3 1_555 1_555
H23_3 C32_3 1_555 1_555
C33 N4 1_555 1_555
C34 C33 1_555 1_555
H24 C34 1_555 1_555
C35 C30 1_555 1_555
H25 C35 1_555 1_555
C25_3 C26 1_555 1_555
C27_3 C28_3 1_555 1_555
C32_3 C33 1_555 1_555
C34 C35 1_555 1_555
N4_2 H21_3 1_555 1_555
C33_2 N4_2 1_555 1_555
C34_2 C33_2 1_555 1_555
H24_2 C34_2 1_555 1_555
C36_3 H26_3 1_555 1_555
C37_3 C36_3 1_555 1_555
H27_3 C37_3 1_555 1_555
N3_2 H16_2 1_555 1_555
C26_2 N3_2 1_555 1_555
C29_2 N3_2 1_555 1_555
C30_2 C29_2 1_555 1_555
C35_2 C30_2 1_555 1_555
H25_2 C35_2 1_555 1_555
O6_4 C22_4 1_555 1_555
H14_4 C21_4 1_555 1_555
C22_4 C21_4 1_555 1_555
N2_4 C22_4 1_555 1_555
H15_4 N2_4 1_555 1_555
N3_3 H16_3 1_555 1_555
C23_4 N2_4 1_555 1_555
C24_4 C23_4 1_555 1_555
H17_4 C24_4 1_555 1_555
C25_4 C24_4 1_555 1_555
H18_3 C25_4 1_555 1_555
C26_3 N3_3 1_555 1_555
C27_4 C26_3 1_555 1_555
H19_4 C27_4 1_555 1_555
C28_4 C23_4 1_555 1_555
H20_4 C28_4 1_555 1_555
O7_3 C29_3 1_555 1_555
C29_3 N3_3 1_555 1_555
C30_3 C29_3 1_555 1_555
C31_4 C30_3 1_555 1_555
H22_4 C31_4 1_555 1_555
C32_4 C31_4 1_555 1_555
H23_4 C32_4 1_555 1_555
C33_3 N4_3 1_555 1_555
C34_3 C33_3 1_555 1_555
H24_3 C34_3 1_555 1_555
C35_3 C30_3 1_555 1_555
H25_3 C35_3 1_555 1_555
C25_4 C26_3 1_555 1_555
C27_4 C28_4 1_555 1_555
C32_4 C33_3 1_555 1_555
C34_3 C35_3 1_555 1_555
N3_4 H16_4 1_555 1_555
C26_4 N3_4 1_555 1_555
C29_4 N3_4 1_555 1_555
C30_4 C29_4 1_555 1_555
C35_4 C30_4 1_555 1_555
H25_4 C35_4 1_555 1_555
N4_4 H21_4 1_555 1_555
C33_4 N4_4 1_555 1_555
C34_4 C33_4 1_555 1_555
H24_4 C34_4 1_555 1_555
C36_4 H26_4 1_555 1_555
C37_4 C36_4 1_555 1_555
H27_4 C37_4 1_555 1_555

#END
