
###############################################################################
#
# This file contains modified crystal structure data generated from the
# MOF subset of the Cambridge Structural Database (CSD) v543 
# hosted by the Cambridge Crystallographic Data Centre (CCDC).
#
# This work is licensed under the Creative Commons
# Attribution-NonCommercial-ShareAlike 4.0 International License.
# To view a copy of this license, visit
# http://creativecommons.org/licenses/by-nc-sa/4.0/
# or send a letter to
# Creative Commons, PO Box 1866, Mountain View, CA 94042, USA.
#
# CIF created using the CSD Python API on 29 September 2022
# The structure has been converted into the P1 space group
# The structure has a 3D framework
# The original CSD entry RINPEJ is in the orthorhombic crystal system
# The original CSD entry RINPEJ is in a Sohncke space group
# The framework has been calculated to contain at least 10.0% void space
# The void calculation uses a probe of radius 1.32A, grid spacing 0.4
# The framework is charged, counterions have been retained in the structure
# H atom positions have been added when not included in the experimental data
#
###############################################################################

data_RINPEJ
_chemical_formula_moiety         '(C240 H256 Cd8 N52 O64 2+)n'
_symmetry_cell_setting           triclinic
_symmetry_space_group_name_H-M   'P 1'
_symmetry_Int_Tables_number      1
_space_group_name_Hall           'P 1'
loop_
_symmetry_equiv_pos_site_id
_symmetry_equiv_pos_as_xyz
1 x,y,z
_cell_length_a                   13.1187(10)
_cell_length_b                   23.3448(16)
_cell_length_c                   22.9554(17)
_cell_angle_alpha                90
_cell_angle_beta                 90
_cell_angle_gamma                90
_cell_volume                     7030.17
loop_
_atom_site_label
_atom_site_type_symbol
_atom_site_fract_x
_atom_site_fract_y
_atom_site_fract_z
H2 H 0.0626 0.0910 0.1513
H13 H 0.0159 0.0963 0.0536
N6 N 0.0475(6) 0.1155(4) 0.2569(7)
C36 C 0.0719(10) 0.1135(5) 0.3174(7)
C37 C 0.0037(11) 0.1009(5) 0.3589(6)
C38 C 0.0320(13) 0.1025(6) 0.4172(7)
C39 C 0.1342(10) 0.1136(6) 0.4311(8)
C40 C 0.2040(11) 0.1258(6) 0.3874(7)
C41 C 0.3100(11) 0.1387(6) 0.4030(8)
O11 O 0.3747(8) 0.1420(4) 0.3669(5)
O12 O 0.3334(7) 0.1456(4) 0.4543(5)
C42 C 0.1738(9) 0.1242(5) 0.3316(6)
H22 H 0.2212 0.1302 0.3021
H23 H 0.1554 0.1128 0.4697
Cd4 Cd 0.51034(5) 0.17018(3) 0.43522(3)
O1 O 0.4925(6) 0.1812(3) 0.9625(2)
N1 N 0.4526(6) 0.2238(4) 0.7465(6)
C1 C 0.4025(9) 0.1989(5) 0.9570(5)
C2 C 0.3637(8) 0.2095(5) 0.8979(5)
C3 C 0.2620(9) 0.2218(5) 0.8872(5)
H1 H 0.2175 0.2241 0.9186
C5 C 0.4263(8) 0.2106(5) 0.8509(5)
H3 H 0.4954 0.2030 0.8557
C6 C 0.2911(9) 0.2316(5) 0.7869(5)
H4 H 0.2677 0.2384 0.7492
C8 C 0.3893(8) 0.2228(5) 0.7961(4)
C11 C 0.2241(9) 0.2308(5) 0.8322(6)
H5 H 0.1546 0.2361 0.8260
N5 N 0.5474(6) 0.2238(4) 0.7535(6)
C29 C 0.6107(8) 0.2228(5) 0.7039(4)
C30 C 0.5737(8) 0.2106(5) 0.6491(5)
C31 C 0.6363(8) 0.2095(5) 0.6021(5)
C32 C 0.5975(9) 0.1989(5) 0.5430(5)
O9 O 0.5075(6) 0.1812(3) 0.5375(2)
O10 O 0.6569(6) 0.2027(3) 0.4991(3)
C33 C 0.7380(9) 0.2218(5) 0.6128(5)
H17 H 0.7825 0.2241 0.5814
C34 C 0.7759(9) 0.2308(5) 0.6678(6)
C35 C 0.7089(9) 0.2316(5) 0.7131(5)
H18 H 0.7323 0.2384 0.7508
H19 H 0.8454 0.2361 0.6740
H20 H 0.5046 0.2030 0.6443
O17 O 0.5626(7) 0.0722(3) 0.4452(4)
O18 O 0.6322(7) 0.1178(4) 0.3755(4)
O21 O 0.4680(7) 0.2793(4) 0.4471(5)
O22 O 0.5472(8) 0.2455(4) 0.3734(5)
C10 C 0.6209(11) 0.0742(6) 0.4005(6)
C12 C 0.7287(10) 0.0172(5) 0.3311(6)
H6 H 0.7290 0.0471 0.3045
C16 C 0.6785(12) 0.0253(6) 0.3843(7)
N7 N 0.6470(8) 0.4165(4) 0.2562(6)
O13 O 0.9374(7) 0.5722(3) 0.0548(4)
O14 O 0.8678(7) 0.6178(4) 0.1245(4)
N8 N 0.6778(9) 0.4651(5) 0.2441(7)
C43 C 0.8791(11) 0.5742(6) 0.0995(6)
C44 C 0.7713(10) 0.5172(5) 0.1689(6)
H25 H 0.7710 0.5471 0.1955
C45 C 0.7221(11) 0.4670(5) 0.1838(6)
C46 C 0.7154(12) 0.4204(6) 0.1474(7)
H26 H 0.6836 0.3867 0.1592
C47 C 0.8215(12) 0.5253(6) 0.1157(7)
C48 C 0.8168(12) 0.4777(7) 0.0773(8)
H27 H 0.8513 0.4791 0.0419
C49 C 0.6047(10) 0.4115(6) 0.3123(7)
C50 C 0.5883(15) 0.4551(6) 0.3501(8)
H28 H 0.6074 0.4923 0.3404
C51 C 0.7578(13) 0.4257(7) 0.0925(7)
H29 H 0.7493 0.3967 0.0652
C52 C 0.5768(9) 0.3566(5) 0.3311(5)
H30 H 0.5874 0.3260 0.3059
C53 C 0.5361(10) 0.3461(6) 0.3827(6)
C54 C 0.5164(10) 0.2841(7) 0.3989(7)
C55 C 0.5175(13) 0.3901(7) 0.4191(6)
H31 H 0.4872 0.3831 0.4550
C56 C 0.5423(16) 0.4436(7) 0.4041(8)
H32 H 0.5289 0.4735 0.4296
Cd5 Cd 0.98966(5) 0.67018(3) 0.06478(3)
N2 N 0.8530(8) 0.9165(4) 0.2438(6)
N3 N 0.8222(9) 0.9651(5) 0.2559(7)
C14 C 0.7779(11) 0.9670(5) 0.3162(6)
C15 C 0.7846(12) 0.9204(6) 0.3526(7)
H7 H 0.8164 0.8867 0.3408
C18 C 0.6832(12) 0.9777(7) 0.4227(8)
H9 H 0.6487 0.9791 0.4581
C20 C 0.8953(10) 0.9115(6) 0.1877(7)
C21 C 0.9117(15) 0.9551(6) 0.1499(8)
H11 H 0.8926 0.9923 0.1596
C22 C 0.7422(13) 0.9257(7) 0.4075(7)
H12 H 0.7507 0.8967 0.4348
C24 C 0.9232(9) 0.8566(5) 0.1689(5)
H14 H 0.9126 0.8260 0.1941
C25 C 0.9639(10) 0.8461(6) 0.1173(6)
C26 C 0.9836(10) 0.7841(7) 0.1011(7)
C27 C 0.9825(13) 0.8901(7) 0.0809(6)
C28 C 0.9577(16) 0.9436(7) 0.0959(8)
H16 H 0.9711 0.9735 0.0704
O8 O 0.9528(8) 0.7455(4) 0.1266(5)
O2 O 0.8431(6) 0.7027(3) 0.0009(3)
Cd1 Cd 0.48966(5) 0.17018(3) 0.06478(3)
O2_2 O 0.3431(6) 0.2027(3) 0.0009(3)
C4 C 0.9963(11) 0.1009(5) 0.1411(6)
C7 C 0.9281(10) 0.1135(5) 0.1826(7)
O3 O 0.4374(7) 0.0722(3) 0.0548(4)
O4 O 0.3678(7) 0.1178(4) 0.1245(4)
C9 C 0.6900(11) 0.1387(6) 0.0970(8)
O5 O 0.6253(8) 0.1420(4) 0.1331(5)
C10_2 C 0.3791(11) 0.0742(6) 0.0995(6)
O6 O 0.6666(7) 0.1456(4) 0.0457(5)
C12_2 C 0.2713(10) 0.0172(5) 0.1689(6)
H6_2 H 0.2710 0.0471 0.1955
C13 C 0.7960(11) 0.1258(6) 0.1126(7)
C16_2 C 0.3215(12) 0.0253(6) 0.1157(7)
C17 C 0.8262(9) 0.1242(5) 0.1684(6)
H8 H 0.7788 0.1302 0.1979
C19 C 0.8658(10) 0.1136(6) 0.0689(8)
H10 H 0.8446 0.1128 0.0303
C23 C 0.9680(13) 0.1025(6) 0.0828(7)
N4 N 0.9525(6) 0.1155(4) 0.2431(7)
H21 H 0.9374 0.0910 0.3487
H24 H 0.9841 0.0963 0.4464
N7_2 N 0.3530(8) 0.4165(4) 0.2438(6)
O13_2 O 0.0626(7) 0.5722(3) 0.4452(4)
O14_2 O 0.1322(7) 0.6178(4) 0.3755(4)
N8_2 N 0.3222(9) 0.4651(5) 0.2559(7)
C43_2 C 0.1209(11) 0.5742(6) 0.4005(6)
C44_2 C 0.2287(10) 0.5172(5) 0.3311(6)
H25_2 H 0.2290 0.5471 0.3045
C45_2 C 0.2779(11) 0.4670(5) 0.3162(6)
C46_2 C 0.2846(12) 0.4204(6) 0.3526(7)
H26_2 H 0.3164 0.3867 0.3408
C47_2 C 0.1785(12) 0.5253(6) 0.3843(7)
C48_2 C 0.1832(12) 0.4777(7) 0.4227(8)
H27_2 H 0.1487 0.4791 0.4581
C49_2 C 0.3953(10) 0.4115(6) 0.1877(7)
C50_2 C 0.4117(15) 0.4551(6) 0.1499(8)
H28_2 H 0.3926 0.4923 0.1596
C51_2 C 0.2422(13) 0.4257(7) 0.4075(7)
H29_2 H 0.2507 0.3967 0.4348
C52_2 C 0.4232(9) 0.3566(5) 0.1689(5)
H30_2 H 0.4126 0.3260 0.1941
C53_2 C 0.4639(10) 0.3461(6) 0.1173(6)
C54_2 C 0.4836(10) 0.2841(7) 0.1011(7)
C55_2 C 0.4825(13) 0.3901(7) 0.0809(6)
H31_2 H 0.5128 0.3831 0.0450
C56_2 C 0.4577(16) 0.4436(7) 0.0959(8)
H32_2 H 0.4711 0.4735 0.0704
O15 O 0.5320(7) 0.2793(4) 0.0529(5)
O16 O 0.4528(8) 0.2455(4) 0.1266(5)
Cd5_2 Cd 0.01034(5) 0.67018(3) 0.43522(3)
N2_2 N 0.1470(8) 0.9165(4) 0.2562(6)
N3_2 N 0.1778(9) 0.9651(5) 0.2441(7)
C14_2 C 0.2221(11) 0.9670(5) 0.1838(6)
C15_2 C 0.2154(12) 0.9204(6) 0.1474(7)
H7_2 H 0.1836 0.8867 0.1592
C18_2 C 0.3168(12) 0.9777(7) 0.0773(8)
H9_2 H 0.3513 0.9791 0.0419
C20_2 C 0.1047(10) 0.9115(6) 0.3123(7)
C21_2 C 0.0883(15) 0.9551(6) 0.3501(8)
H11_2 H 0.1074 0.9923 0.3404
C22_2 C 0.2578(13) 0.9257(7) 0.0925(7)
H12_2 H 0.2493 0.8967 0.0652
C24_2 C 0.0768(9) 0.8566(5) 0.3311(5)
H14_2 H 0.0874 0.8260 0.3059
C25_2 C 0.0361(10) 0.8461(6) 0.3827(6)
C26_2 C 0.0164(10) 0.7841(7) 0.3989(7)
C27_2 C 0.0175(13) 0.8901(7) 0.4191(6)
C28_2 C 0.0423(16) 0.9436(7) 0.4041(8)
H16_2 H 0.0289 0.9735 0.4296
O8_2 O 0.0472(8) 0.7455(4) 0.3734(5)
N5_2 N 0.0474(6) 0.7238(4) 0.7535(6)
C29_2 C 0.1107(8) 0.7228(5) 0.7039(4)
C30_2 C 0.0737(8) 0.7106(5) 0.6491(5)
C31_2 C 0.1363(8) 0.7095(5) 0.6021(5)
C32_2 C 0.0975(9) 0.6989(5) 0.5430(5)
O9_2 O 0.0075(6) 0.6812(3) 0.5375(2)
O10_2 O 0.1569(6) 0.7027(3) 0.4991(3)
C33_2 C 0.2380(9) 0.7218(5) 0.6128(5)
H17_2 H 0.2825 0.7241 0.5814
C34_2 C 0.2759(9) 0.7308(5) 0.6678(6)
C35_2 C 0.2089(9) 0.7316(5) 0.7131(5)
H18_2 H 0.2323 0.7384 0.7508
H19_2 H 0.3454 0.7361 0.6740
H20_2 H 0.0046 0.7030 0.6443
H15 H 0.9872 0.8831 0.4550
O7 O 0.9680(7) 0.7793(4) 0.4471(5)
H15_2 H 0.0128 0.8831 0.0450
O7_2 O 0.0320(7) 0.7793(4) 0.0529(5)
C4_2 C 0.4963(11) 0.6009(5) 0.1411(6)
H2_2 H 0.5626 0.5910 0.1513
C7_2 C 0.4281(10) 0.6135(5) 0.1826(7)
C9_2 C 0.1900(11) 0.6387(6) 0.0970(8)
O5_2 O 0.1253(8) 0.6420(4) 0.1331(5)
O6_2 O 0.1666(7) 0.6456(4) 0.0457(5)
C13_2 C 0.2960(11) 0.6258(6) 0.1126(7)
C17_2 C 0.3262(9) 0.6242(5) 0.1684(6)
H8_2 H 0.2788 0.6302 0.1979
C19_2 C 0.3658(10) 0.6136(6) 0.0689(8)
H10_2 H 0.3446 0.6128 0.0303
C23_2 C 0.4680(13) 0.6025(6) 0.0828(7)
H13_2 H 0.5159 0.5963 0.0536
N4_2 N 0.4525(6) 0.6155(4) 0.2431(7)
N6_2 N 0.5475(6) 0.6155(4) 0.2569(7)
C36_2 C 0.5719(10) 0.6135(5) 0.3174(7)
C37_2 C 0.5037(11) 0.6009(5) 0.3589(6)
H21_2 H 0.4374 0.5910 0.3487
C38_2 C 0.5320(13) 0.6025(6) 0.4172(7)
C39_2 C 0.6342(10) 0.6136(6) 0.4311(8)
C40_2 C 0.7040(11) 0.6258(6) 0.3874(7)
C41_2 C 0.8100(11) 0.6387(6) 0.4030(8)
O11_2 O 0.8747(8) 0.6420(4) 0.3669(5)
O12_2 O 0.8334(7) 0.6456(4) 0.4543(5)
C42_2 C 0.6738(9) 0.6242(5) 0.3316(6)
H22_2 H 0.7212 0.6302 0.3021
H23_2 H 0.6554 0.6128 0.4697
H24_2 H 0.4841 0.5963 0.4464
O1_2 O 0.9925(6) 0.6812(3) 0.9625(2)
N1_2 N 0.9526(6) 0.7238(4) 0.7465(6)
C1_2 C 0.9025(9) 0.6989(5) 0.9570(5)
C2_2 C 0.8637(8) 0.7095(5) 0.8979(5)
C3_2 C 0.7620(9) 0.7218(5) 0.8872(5)
H1_2 H 0.7175 0.7241 0.9186
C5_2 C 0.9263(8) 0.7106(5) 0.8509(5)
H3_2 H 0.9954 0.7030 0.8557
C6_2 C 0.7911(9) 0.7316(5) 0.7869(5)
H4_2 H 0.7677 0.7384 0.7492
C8_2 C 0.8893(8) 0.7228(5) 0.7961(4)
C11_2 C 0.7241(9) 0.7308(5) 0.8322(6)
H5_2 H 0.6546 0.7361 0.8260
H15_3 H 0.0128 0.1169 0.9550
O7_3 O 0.0320(7) 0.2207(4) 0.9471(5)
H15_4 H 0.9872 0.1169 0.5450
O7_4 O 0.9680(7) 0.2207(4) 0.5529(5)
O19 O 0.1253(8) 0.3580(4) 0.8669(5)
O20 O 0.1666(7) 0.3544(4) 0.9543(5)
C4_3 C 0.5037(11) 0.3991(5) 0.6411(6)
H2_3 H 0.4374 0.4090 0.6513
C7_3 C 0.5719(10) 0.3865(5) 0.6826(7)
C9_3 C 0.8100(11) 0.3613(6) 0.5970(8)
O5_3 O 0.8747(8) 0.3580(4) 0.6331(5)
O6_3 O 0.8334(7) 0.3544(4) 0.5457(5)
C13_3 C 0.7040(11) 0.3742(6) 0.6126(7)
C17_3 C 0.6738(9) 0.3758(5) 0.6684(6)
H8_3 H 0.7212 0.3698 0.6979
C19_3 C 0.6342(10) 0.3864(6) 0.5689(8)
H10_3 H 0.6554 0.3872 0.5303
C23_3 C 0.5320(13) 0.3975(6) 0.5828(7)
H13_3 H 0.4841 0.4037 0.5536
N4_3 N 0.5475(6) 0.3845(4) 0.7431(7)
N5_3 N 0.9526(6) 0.2762(4) 0.2535(6)
C29_3 C 0.8893(8) 0.2772(5) 0.2039(4)
C30_3 C 0.9263(8) 0.2894(5) 0.1491(5)
C31_3 C 0.8637(8) 0.2905(5) 0.1021(5)
C32_3 C 0.9025(9) 0.3011(5) 0.0430(5)
O9_3 O 0.9925(6) 0.3188(3) 0.0375(2)
C33_3 C 0.7620(9) 0.2782(5) 0.1128(5)
H17_3 H 0.7175 0.2759 0.0814
C34_3 C 0.7241(9) 0.2692(5) 0.1678(6)
C35_3 C 0.7911(9) 0.2684(5) 0.2131(5)
H18_3 H 0.7677 0.2616 0.2508
H19_3 H 0.6546 0.2639 0.1740
H20_3 H 0.9954 0.2970 0.1443
N6_3 N 0.4525(6) 0.3845(4) 0.7569(7)
C36_3 C 0.4281(10) 0.3865(5) 0.8174(7)
C37_3 C 0.4963(11) 0.3991(5) 0.8589(6)
H21_3 H 0.5626 0.4090 0.8487
C38_3 C 0.4680(13) 0.3975(6) 0.9172(7)
C39_3 C 0.3658(10) 0.3864(6) 0.9311(8)
C40_3 C 0.2960(11) 0.3742(6) 0.8874(7)
C41_3 C 0.1900(11) 0.3613(6) 0.9030(8)
C42_3 C 0.3262(9) 0.3758(5) 0.8316(6)
H22_3 H 0.2788 0.3698 0.8021
H23_3 H 0.3446 0.3872 0.9697
H24_3 H 0.5159 0.4037 0.9464
N2_3 N 0.8530(8) 0.0835(4) 0.7562(6)
N3_3 N 0.8222(9) 0.0349(5) 0.7441(7)
C14_3 C 0.7779(11) 0.0330(5) 0.6838(6)
C15_3 C 0.7846(12) 0.0796(6) 0.6474(7)
H7_3 H 0.8164 0.1133 0.6592
C18_3 C 0.6832(12) 0.0223(7) 0.5773(8)
H9_3 H 0.6487 0.0209 0.5419
C20_3 C 0.8953(10) 0.0885(6) 0.8123(7)
C21_3 C 0.9117(15) 0.0449(6) 0.8501(8)
H11_3 H 0.8926 0.0077 0.8404
C22_3 C 0.7422(13) 0.0743(7) 0.5925(7)
H12_3 H 0.7507 0.1033 0.5652
C24_3 C 0.9232(9) 0.1434(5) 0.8311(5)
H14_3 H 0.9126 0.1740 0.8059
C25_3 C 0.9639(10) 0.1539(6) 0.8827(6)
C26_3 C 0.9836(10) 0.2159(7) 0.8989(7)
C27_3 C 0.9825(13) 0.1099(7) 0.9191(6)
C28_3 C 0.9577(16) 0.0564(7) 0.9041(8)
H16_3 H 0.9711 0.0265 0.9296
O8_3 O 0.9528(8) 0.2545(4) 0.8734(5)
Cd3 Cd 0.98966(5) 0.32982(3) 0.93522(3)
Cd1_2 Cd 0.51034(5) 0.82982(3) 0.56478(3)
O1_3 O 0.5075(6) 0.8188(3) 0.4625(2)
N1_3 N 0.5474(6) 0.7762(4) 0.2465(6)
O2_3 O 0.6569(6) 0.7973(3) 0.5009(3)
C1_3 C 0.5975(9) 0.8011(5) 0.4570(5)
C2_3 C 0.6363(8) 0.7905(5) 0.3979(5)
C3_3 C 0.7380(9) 0.7782(5) 0.3872(5)
H1_3 H 0.7825 0.7759 0.4186
C4_4 C 0.0037(11) 0.8991(5) 0.6411(6)
C5_3 C 0.5737(8) 0.7894(5) 0.3509(5)
H3_3 H 0.5046 0.7970 0.3557
C6_3 C 0.7089(9) 0.7684(5) 0.2869(5)
H4_3 H 0.7323 0.7616 0.2492
C7_4 C 0.0719(10) 0.8865(5) 0.6826(7)
O3_2 O 0.5626(7) 0.9278(3) 0.5548(4)
O4_2 O 0.6322(7) 0.8822(4) 0.6245(4)
C8_3 C 0.6107(8) 0.7772(5) 0.2961(4)
C9_4 C 0.3100(11) 0.8613(6) 0.5970(8)
O5_4 O 0.3747(8) 0.8580(4) 0.6331(5)
C10_3 C 0.6209(11) 0.9258(6) 0.5995(6)
C11_3 C 0.7759(9) 0.7692(5) 0.3322(6)
H5_3 H 0.8454 0.7639 0.3260
O6_4 O 0.3334(7) 0.8544(4) 0.5457(5)
C12_3 C 0.7287(10) 0.9828(5) 0.6689(6)
H6_3 H 0.7290 0.9529 0.6955
C13_4 C 0.2040(11) 0.8742(6) 0.6126(7)
C16_3 C 0.6785(12) 0.9747(6) 0.6157(7)
C17_4 C 0.1738(9) 0.8758(5) 0.6684(6)
H8_4 H 0.2212 0.8698 0.6979
C19_4 C 0.1342(10) 0.8864(6) 0.5689(8)
H10_4 H 0.1554 0.8872 0.5303
C23_4 C 0.0320(13) 0.8975(6) 0.5828(7)
N4_4 N 0.0475(6) 0.8845(4) 0.7431(7)
N5_4 N 0.4526(6) 0.7762(4) 0.2535(6)
C29_4 C 0.3893(8) 0.7772(5) 0.2039(4)
C30_4 C 0.4263(8) 0.7894(5) 0.1491(5)
C31_4 C 0.3637(8) 0.7905(5) 0.1021(5)
C32_4 C 0.4025(9) 0.8011(5) 0.0430(5)
O9_4 O 0.4925(6) 0.8188(3) 0.0375(2)
C33_4 C 0.2620(9) 0.7782(5) 0.1128(5)
H17_4 H 0.2175 0.7759 0.0814
C34_4 C 0.2241(9) 0.7692(5) 0.1678(6)
C35_4 C 0.2911(9) 0.7684(5) 0.2131(5)
H18_4 H 0.2677 0.7616 0.2508
H19_4 H 0.1546 0.7639 0.1740
H20_4 H 0.4954 0.7970 0.1443
H21_4 H 0.0626 0.9090 0.8487
H24_4 H 0.0159 0.9037 0.9464
N7_3 N 0.6470(8) 0.5835(4) 0.7438(6)
O13_3 O 0.9374(7) 0.4278(3) 0.9452(4)
O14_3 O 0.8678(7) 0.3822(4) 0.8755(4)
N8_3 N 0.6778(9) 0.5349(5) 0.7559(7)
C43_3 C 0.8791(11) 0.4258(6) 0.9005(6)
C44_3 C 0.7713(10) 0.4828(5) 0.8311(6)
H25_3 H 0.7710 0.4529 0.8045
C45_3 C 0.7221(11) 0.5330(5) 0.8162(6)
C46_3 C 0.7154(12) 0.5796(6) 0.8526(7)
H26_3 H 0.6836 0.6133 0.8408
C47_3 C 0.8215(12) 0.4747(6) 0.8843(7)
C48_3 C 0.8168(12) 0.5223(7) 0.9227(8)
H27_3 H 0.8513 0.5209 0.9581
C49_3 C 0.6047(10) 0.5885(6) 0.6877(7)
C50_3 C 0.5883(15) 0.5449(6) 0.6499(8)
H28_3 H 0.6074 0.5077 0.6596
C51_3 C 0.7578(13) 0.5743(7) 0.9075(7)
H29_3 H 0.7493 0.6033 0.9348
C52_3 C 0.5768(9) 0.6434(5) 0.6689(5)
H30_3 H 0.5874 0.6740 0.6941
C53_3 C 0.5361(10) 0.6539(6) 0.6173(6)
C54_3 C 0.5164(10) 0.7159(7) 0.6011(7)
C55_3 C 0.5175(13) 0.6099(7) 0.5809(6)
H31_3 H 0.4872 0.6169 0.5450
C56_3 C 0.5423(16) 0.5564(7) 0.5959(8)
H32_3 H 0.5289 0.5265 0.5704
O15_2 O 0.4680(7) 0.7207(4) 0.5529(5)
O16_2 O 0.5472(8) 0.7545(4) 0.6266(5)
O10_3 O 0.8431(6) 0.2973(3) 0.9991(3)
O10_4 O 0.3431(6) 0.7973(3) 0.9991(3)
Cd2 Cd 0.48966(5) 0.82982(3) 0.93522(3)
O17_2 O 0.4374(7) 0.9278(3) 0.9452(4)
O18_2 O 0.3678(7) 0.8822(4) 0.8755(4)
O19_2 O 0.6253(8) 0.8580(4) 0.8669(5)
O20_2 O 0.6666(7) 0.8544(4) 0.9543(5)
O21_2 O 0.5320(7) 0.7207(4) 0.9471(5)
O22_2 O 0.4528(8) 0.7545(4) 0.8734(5)
H2_4 H 0.9374 0.9090 0.6513
H13_4 H 0.9841 0.9037 0.5536
N6_4 N 0.9525(6) 0.8845(4) 0.7569(7)
C36_4 C 0.9281(10) 0.8865(5) 0.8174(7)
C37_4 C 0.9963(11) 0.8991(5) 0.8589(6)
C38_4 C 0.9680(13) 0.8975(6) 0.9172(7)
C39_4 C 0.8658(10) 0.8864(6) 0.9311(8)
C40_4 C 0.7960(11) 0.8742(6) 0.8874(7)
C41_4 C 0.6900(11) 0.8613(6) 0.9030(8)
C42_4 C 0.8262(9) 0.8758(5) 0.8316(6)
H22_4 H 0.7788 0.8698 0.8021
H23_4 H 0.8446 0.8872 0.9697
N2_4 N 0.1470(8) 0.0835(4) 0.7438(6)
N3_4 N 0.1778(9) 0.0349(5) 0.7559(7)
C14_4 C 0.2221(11) 0.0330(5) 0.8162(6)
C15_4 C 0.2154(12) 0.0796(6) 0.8526(7)
H7_4 H 0.1836 0.1133 0.8408
C18_4 C 0.3168(12) 0.0223(7) 0.9227(8)
H9_4 H 0.3513 0.0209 0.9581
C20_4 C 0.1047(10) 0.0885(6) 0.6877(7)
C21_4 C 0.0883(15) 0.0449(6) 0.6499(8)
H11_4 H 0.1074 0.0077 0.6596
C22_4 C 0.2578(13) 0.0743(7) 0.9075(7)
H12_4 H 0.2493 0.1033 0.9348
C24_4 C 0.0768(9) 0.1434(5) 0.6689(5)
H14_4 H 0.0874 0.1740 0.6941
C25_4 C 0.0361(10) 0.1539(6) 0.6173(6)
C26_4 C 0.0164(10) 0.2159(7) 0.6011(7)
C27_4 C 0.0175(13) 0.1099(7) 0.5809(6)
C28_4 C 0.0423(16) 0.0564(7) 0.5959(8)
H16_4 H 0.0289 0.0265 0.5704
O8_4 O 0.0472(8) 0.2545(4) 0.6266(5)
Cd3_2 Cd 0.01034(5) 0.32982(3) 0.56478(3)
C10_4 C 0.3791(11) 0.9258(6) 0.9005(6)
C12_4 C 0.2713(10) 0.9828(5) 0.8311(6)
H6_4 H 0.2710 0.9529 0.8045
C16_4 C 0.3215(12) 0.9747(6) 0.8843(7)
N7_4 N 0.3530(8) 0.5835(4) 0.7562(6)
O13_4 O 0.0626(7) 0.4278(3) 0.5548(4)
O14_4 O 0.1322(7) 0.3822(4) 0.6245(4)
N8_4 N 0.3222(9) 0.5349(5) 0.7441(7)
C43_4 C 0.1209(11) 0.4258(6) 0.5995(6)
C44_4 C 0.2287(10) 0.4828(5) 0.6689(6)
H25_4 H 0.2290 0.4529 0.6955
C45_4 C 0.2779(11) 0.5330(5) 0.6838(6)
C46_4 C 0.2846(12) 0.5796(6) 0.6474(7)
H26_4 H 0.3164 0.6133 0.6592
C47_4 C 0.1785(12) 0.4747(6) 0.6157(7)
C48_4 C 0.1832(12) 0.5223(7) 0.5773(8)
H27_4 H 0.1487 0.5209 0.5419
C49_4 C 0.3953(10) 0.5885(6) 0.8123(7)
C50_4 C 0.4117(15) 0.5449(6) 0.8501(8)
H28_4 H 0.3926 0.5077 0.8404
C51_4 C 0.2422(13) 0.5743(7) 0.5925(7)
H29_4 H 0.2507 0.6033 0.5652
C52_4 C 0.4232(9) 0.6434(5) 0.8311(5)
H30_4 H 0.4126 0.6740 0.8059
C53_4 C 0.4639(10) 0.6539(6) 0.8827(6)
C54_4 C 0.4836(10) 0.7159(7) 0.8989(7)
C55_4 C 0.4825(13) 0.6099(7) 0.9191(6)
H31_4 H 0.5128 0.6169 0.9550
C56_4 C 0.4577(16) 0.5564(7) 0.9041(8)
H32_4 H 0.4711 0.5265 0.9296
O1_4 O 0.0075(6) 0.3188(3) 0.4625(2)
N1_4 N 0.0474(6) 0.2762(4) 0.2465(6)
O2_4 O 0.1569(6) 0.2973(3) 0.5009(3)
C1_4 C 0.0975(9) 0.3011(5) 0.4570(5)
C2_4 C 0.1363(8) 0.2905(5) 0.3979(5)
C3_4 C 0.2380(9) 0.2782(5) 0.3872(5)
H1_4 H 0.2825 0.2759 0.4186
C5_4 C 0.0737(8) 0.2894(5) 0.3509(5)
H3_4 H 0.0046 0.2970 0.3557
C6_4 C 0.2089(9) 0.2684(5) 0.2869(5)
H4_4 H 0.2323 0.2616 0.2492
C8_4 C 0.1107(8) 0.2772(5) 0.2961(4)
C11_4 C 0.2759(9) 0.2692(5) 0.3322(6)
H5_4 H 0.3454 0.2639 0.3260
N9 N 0.1828(7) 0.2530(5) 0.0513(4)
H33 H 0.2319 0.2429 0.0259
H34 H 0.1293 0.2659 0.0306
C57 C 0.1526(12) 0.2043(6) 0.0825(8)
H35 H 0.1265 0.1761 0.0559
H36 H 0.1004 0.2145 0.1099
H37 H 0.2101 0.1888 0.1030
C58 C 0.2192(11) 0.2974(7) 0.0864(6)
H38 H 0.2354 0.3299 0.0625
H39 H 0.2792 0.2848 0.1066
H40 H 0.1678 0.3079 0.1142
N9_2 N 0.8172(7) 0.7470(5) 0.5513(4)
H33_2 H 0.7681 0.7571 0.5259
H34_2 H 0.8707 0.7341 0.5306
C57_2 C 0.8474(12) 0.7957(6) 0.5825(8)
H35_2 H 0.8735 0.8239 0.5559
H36_2 H 0.8996 0.7855 0.6099
H37_2 H 0.7899 0.8112 0.6030
C58_2 C 0.7808(11) 0.7026(7) 0.5864(6)
H38_2 H 0.7646 0.6701 0.5625
H39_2 H 0.7208 0.7152 0.6066
H40_2 H 0.8322 0.6921 0.6142
N9_3 N 0.8172(7) 0.2530(5) 0.4487(4)
H33_3 H 0.7681 0.2429 0.4741
H34_3 H 0.8707 0.2659 0.4694
C57_3 C 0.8474(12) 0.2043(6) 0.4175(8)
H35_3 H 0.8735 0.1761 0.4441
H36_3 H 0.8996 0.2145 0.3901
H37_3 H 0.7899 0.1888 0.3970
C58_3 C 0.7808(11) 0.2974(7) 0.4136(6)
H38_3 H 0.7646 0.3299 0.4375
H39_3 H 0.7208 0.2848 0.3934
H40_3 H 0.8322 0.3079 0.3858
N9_4 N 0.1828(7) 0.7470(5) 0.9487(4)
H33_4 H 0.2319 0.7571 0.9741
H34_4 H 0.1293 0.7341 0.9694
C57_4 C 0.1526(12) 0.7957(6) 0.9175(8)
H35_4 H 0.1265 0.8239 0.9441
H36_4 H 0.1004 0.7855 0.8901
H37_4 H 0.2101 0.8112 0.8970
C58_4 C 0.2192(11) 0.7026(7) 0.9136(6)
H38_4 H 0.2354 0.6701 0.9375
H39_4 H 0.2792 0.7152 0.8934
H40_4 H 0.1678 0.6921 0.8858
N9_5 N 0.6828(7) 0.7530(5) 0.0513(4)
H33_5 H 0.7319 0.7429 0.0259
H34_5 H 0.6293 0.7659 0.0306
C57_5 C 0.6526(12) 0.7043(6) 0.0825(8)
H35_5 H 0.6265 0.6761 0.0559
H36_5 H 0.6004 0.7145 0.1099
H37_5 H 0.7101 0.6888 0.1030
C58_5 C 0.7192(11) 0.7974(7) 0.0864(6)
H38_5 H 0.7354 0.8299 0.0625
H39_5 H 0.7792 0.7848 0.1066
H40_5 H 0.6678 0.8079 0.1142
N9_6 N 0.3172(7) 0.2470(5) 0.5513(4)
H33_6 H 0.2681 0.2571 0.5259
H34_6 H 0.3707 0.2341 0.5306
C57_6 C 0.3474(12) 0.2957(6) 0.5825(8)
H35_6 H 0.3735 0.3239 0.5559
H36_6 H 0.3996 0.2855 0.6099
H37_6 H 0.2899 0.3112 0.6030
C58_6 C 0.2808(11) 0.2026(7) 0.5864(6)
H38_6 H 0.2646 0.1701 0.5625
H39_6 H 0.2208 0.2152 0.6066
H40_6 H 0.3322 0.1921 0.6142
N9_7 N 0.3172(7) 0.7530(5) 0.4487(4)
H33_7 H 0.2681 0.7429 0.4741
H34_7 H 0.3707 0.7659 0.4694
C57_7 C 0.3474(12) 0.7043(6) 0.4175(8)
H35_7 H 0.3735 0.6761 0.4441
H36_7 H 0.3996 0.7145 0.3901
H37_7 H 0.2899 0.6888 0.3970
C58_7 C 0.2808(11) 0.7974(7) 0.4136(6)
H38_7 H 0.2646 0.8299 0.4375
H39_7 H 0.2208 0.7848 0.3934
H40_7 H 0.3322 0.8079 0.3858
N9_8 N 0.6828(7) 0.2470(5) 0.9487(4)
H33_8 H 0.7319 0.2571 0.9741
H34_8 H 0.6293 0.2341 0.9694
C57_8 C 0.6526(12) 0.2957(6) 0.9175(8)
H35_8 H 0.6265 0.3239 0.9441
H36_8 H 0.6004 0.2855 0.8901
H37_8 H 0.7101 0.3112 0.8970
C58_8 C 0.7192(11) 0.2026(7) 0.9136(6)
H38_8 H 0.7354 0.1701 0.9375
H39_8 H 0.7792 0.2152 0.8934
H40_8 H 0.6678 0.1921 0.8858
N10 N 0.5000 0.1531(13) 0.2500
H41 H 0.57737 0.1531 0.25
H42 H 0.47421 0.1886 0.229156
H43 H 0.47421 0.1176 0.229156
H44 H 0.47421 0.1531 0.291687
H41_2 H 0.42263 0.1531 0.25
H42_2 H 0.52579 0.1886 0.270844
H43_2 H 0.52579 0.1176 0.270844
H44_2 H 0.52579 0.1531 0.208313
N10_2 N 0.5000 0.8469(13) 0.7500
H41_3 H 0.42263 0.8469 0.75
H42_3 H 0.52579 0.8114 0.729156
H43_3 H 0.52579 0.8824 0.729156
H44_3 H 0.52579 0.8469 0.791687
H41_4 H 0.57737 0.8469 0.75
H42_4 H 0.47421 0.8114 0.770844
H43_4 H 0.47421 0.8824 0.770844
H44_4 H 0.47421 0.8469 0.708313
N10_3 N -0.0000 0.6531(13) 0.2500
H41_5 H 0.0773705 0.6531 0.25
H42_5 H 0.0257902 0.6886 0.270844
H43_5 H 0.0257902 0.6176 0.270844
H44_5 H 0.0257902 0.6531 0.208313
N10_4 N 1.0000 0.6531(13) 0.2500
H42_6 H 0.97421 0.6886 0.229156
H43_6 H 0.97421 0.6176 0.229156
H44_6 H 0.97421 0.6531 0.291687
H41_6 H 0.92263 0.6531 0.25
N10_5 N -0.0000 0.3469(13) 0.7500
H42_7 H 0.0257902 0.3114 0.729156
H43_7 H 0.0257902 0.3824 0.729156
H44_7 H 0.0257902 0.3469 0.791687
H41_7 H 0.0773705 0.3469 0.75
N10_6 N 1.0000 0.3469(13) 0.7500
H41_8 H 0.92263 0.3469 0.75
H42_8 H 0.97421 0.3114 0.770844
H43_8 H 0.97421 0.3824 0.770844
H44_8 H 0.97421 0.3469 0.708313
N11 N 0.5000 0.041(2) 0.2500
H45 H 0.57737 0.041 0.25
H46 H 0.47421 0.0765002 0.229156
H47 H 0.47421 0.00549984 0.229156
H48 H 0.47421 0.041 0.291687
H45_2 H 0.42263 0.041 0.25
H46_2 H 0.52579 0.0765002 0.270844
H47_2 H 0.52579 0.00549984 0.270844
H48_2 H 0.52579 0.041 0.208313
N11_2 N 0.5000 0.959(2) 0.7500
H45_3 H 0.42263 0.959 0.75
H46_3 H 0.52579 0.9235 0.729156
H47_3 H 0.52579 0.9945 0.729156
H48_3 H 0.52579 0.959 0.791687
H45_4 H 0.57737 0.959 0.75
H46_4 H 0.47421 0.9235 0.770844
H47_4 H 0.47421 0.9945 0.770844
H48_4 H 0.47421 0.959 0.708313
N11_3 N -0.0000 0.541(2) 0.2500
H45_5 H 0.0773705 0.541 0.25
H46_5 H 0.0257902 0.5765 0.270844
H47_5 H 0.0257902 0.5055 0.270844
H48_5 H 0.0257902 0.541 0.208313
N11_4 N 1.0000 0.541(2) 0.2500
H46_6 H 0.97421 0.5765 0.229156
H47_6 H 0.97421 0.5055 0.229156
H48_6 H 0.97421 0.541 0.291687
H45_6 H 0.92263 0.541 0.25
N11_5 N -0.0000 0.459(2) 0.7500
H46_7 H 0.0257902 0.4235 0.729156
H47_7 H 0.0257902 0.4945 0.729156
H48_7 H 0.0257902 0.459 0.791687
H45_7 H 0.0773705 0.459 0.75
N11_6 N 1.0000 0.459(2) 0.7500
H45_8 H 0.92263 0.459 0.75
H46_8 H 0.97421 0.4235 0.770844
H47_8 H 0.97421 0.4945 0.770844
H48_8 H 0.97421 0.459 0.708313
loop_
_geom_bond_atom_site_label_1
_geom_bond_atom_site_label_2
_geom_bond_site_symmetry_1
_geom_bond_site_symmetry_2
C36 N6 1_555 1_555
C37 C36 1_555 1_555
C38 C37 1_555 1_555
C39 C38 1_555 1_555
C40 C39 1_555 1_555
C41 C40 1_555 1_555
O11 C41 1_555 1_555
O12 C41 1_555 1_555
C42 C36 1_555 1_555
H22 C42 1_555 1_555
H23 C39 1_555 1_555
Cd4 O11 1_555 1_555
C40 C42 1_555 1_555
O12 Cd4 1_555 1_555
O1 C1 1_555 1_555
N1 C8 1_555 1_555
C2 C1 1_555 1_555
C3 C2 1_555 1_555
H1 C3 1_555 1_555
C5 C2 1_555 1_555
H3 C5 1_555 1_555
C6 H4 1_555 1_555
C8 C5 1_555 1_555
C11 C3 1_555 1_555
H5 C11 1_555 1_555
N5 N1 1_555 1_555
C29 N5 1_555 1_555
C30 C29 1_555 1_555
C31 C30 1_555 1_555
C32 C31 1_555 1_555
O9 C32 1_555 1_555
O10 C32 1_555 1_555
C33 C31 1_555 1_555
H17 C33 1_555 1_555
C34 C33 1_555 1_555
C35 C29 1_555 1_555
H18 C35 1_555 1_555
H19 C34 1_555 1_555
H20 C30 1_555 1_555
Cd4 O9 1_555 1_555
O17 Cd4 1_555 1_555
O18 Cd4 1_555 1_555
O21 Cd4 1_555 1_555
O22 Cd4 1_555 1_555
C6 C11 1_555 1_555
C6 C8 1_555 1_555
O10 Cd4 1_555 1_555
C34 C35 1_555 1_555
C10 O17 1_555 1_555
C12 H6 1_555 1_555
C16 C10 1_555 1_555
N7 N8 1_555 1_555
O13 C43 1_555 1_555
O14 C43 1_555 1_555
N8 C45 1_555 1_555
C43 C47 1_555 1_555
C44 H25 1_555 1_555
C45 C44 1_555 1_555
C46 C45 1_555 1_555
H26 C46 1_555 1_555
C47 C44 1_555 1_555
C48 C47 1_555 1_555
H27 C48 1_555 1_555
C49 N7 1_555 1_555
C50 C49 1_555 1_555
H28 C50 1_555 1_555
C51 C46 1_555 1_555
H29 C51 1_555 1_555
C52 C49 1_555 1_555
H30 C52 1_555 1_555
C53 C52 1_555 1_555
C54 C53 1_555 1_555
C55 C53 1_555 1_555
H31 C55 1_555 1_555
C56 C50 1_555 1_555
H32 C56 1_555 1_555
Cd5 O13 1_555 1_555
O18 C10 1_555 1_555
C12 C16 1_555 1_555
O14 Cd5 1_555 1_555
C48 C51 1_555 1_555
C54 O21 1_555 1_555
C54 O22 1_555 1_555
C55 C56 1_555 1_555
N2 N3 1_555 1_555
N3 C14 1_555 1_555
C15 C14 1_555 1_555
H7 C15 1_555 1_555
H9 C18 1_555 1_555
C20 N2 1_555 1_555
C21 C20 1_555 1_555
H11 C21 1_555 1_555
C22 C15 1_555 1_555
H12 C22 1_555 1_555
C24 C20 1_555 1_555
H14 C24 1_555 1_555
C25 C24 1_555 1_555
C26 C25 1_555 1_555
C27 C25 1_555 1_555
C28 C21 1_555 1_555
H16 C28 1_555 1_555
O8 C26 1_555 1_555
C18 C22 1_555 1_555
C27 C28 1_555 1_555
O8 Cd5 1_555 1_555
O2 Cd5 1_555 1_555
O2_2 Cd1 1_555 1_555
C7 C4 1_555 1_555
O3 Cd1 1_555 1_555
O4 Cd1 1_555 1_555
C9 O5 1_555 1_555
O5 Cd1 1_555 1_555
C10_2 O3 1_555 1_555
O6 Cd1 1_555 1_555
C12_2 H6_2 1_555 1_555
C13 C9 1_555 1_555
C16_2 C10_2 1_555 1_555
C17 C7 1_555 1_555
H8 C17 1_555 1_555
C19 C13 1_555 1_555
H10 C19 1_555 1_555
C23 C4 1_555 1_555
N4 C7 1_555 1_555
N7_2 N8_2 1_555 1_555
O13_2 C43_2 1_555 1_555
O14_2 C43_2 1_555 1_555
N8_2 C45_2 1_555 1_555
C43_2 C47_2 1_555 1_555
C44_2 H25_2 1_555 1_555
C45_2 C44_2 1_555 1_555
C46_2 C45_2 1_555 1_555
H26_2 C46_2 1_555 1_555
C47_2 C44_2 1_555 1_555
C48_2 C47_2 1_555 1_555
H27_2 C48_2 1_555 1_555
C49_2 N7_2 1_555 1_555
C50_2 C49_2 1_555 1_555
H28_2 C50_2 1_555 1_555
C51_2 C46_2 1_555 1_555
H29_2 C51_2 1_555 1_555
C52_2 C49_2 1_555 1_555
H30_2 C52_2 1_555 1_555
C53_2 C52_2 1_555 1_555
C54_2 C53_2 1_555 1_555
C55_2 C53_2 1_555 1_555
H31_2 C55_2 1_555 1_555
C56_2 C50_2 1_555 1_555
H32_2 C56_2 1_555 1_555
O15 Cd1 1_555 1_555
O16 Cd1 1_555 1_555
Cd5_2 O13_2 1_555 1_555
O4 C10_2 1_555 1_555
C9 O6 1_555 1_555
C12_2 C16_2 1_555 1_555
C13 C17 1_555 1_555
C19 C23 1_555 1_555
O14_2 Cd5_2 1_555 1_555
C48_2 C51_2 1_555 1_555
C54_2 O15 1_555 1_555
C54_2 O16 1_555 1_555
C55_2 C56_2 1_555 1_555
N2_2 N3_2 1_555 1_555
N3_2 C14_2 1_555 1_555
C15_2 C14_2 1_555 1_555
H7_2 C15_2 1_555 1_555
H9_2 C18_2 1_555 1_555
C20_2 N2_2 1_555 1_555
C21_2 C20_2 1_555 1_555
H11_2 C21_2 1_555 1_555
C22_2 C15_2 1_555 1_555
H12_2 C22_2 1_555 1_555
C24_2 C20_2 1_555 1_555
H14_2 C24_2 1_555 1_555
C25_2 C24_2 1_555 1_555
C26_2 C25_2 1_555 1_555
C27_2 C25_2 1_555 1_555
C28_2 C21_2 1_555 1_555
H16_2 C28_2 1_555 1_555
O8_2 C26_2 1_555 1_555
C18_2 C22_2 1_555 1_555
C27_2 C28_2 1_555 1_555
O8_2 Cd5_2 1_555 1_555
C29_2 N5_2 1_555 1_555
C30_2 C29_2 1_555 1_555
C31_2 C30_2 1_555 1_555
C32_2 C31_2 1_555 1_555
O9_2 C32_2 1_555 1_555
O10_2 C32_2 1_555 1_555
C33_2 C31_2 1_555 1_555
H17_2 C33_2 1_555 1_555
C34_2 C33_2 1_555 1_555
C35_2 C29_2 1_555 1_555
H18_2 C35_2 1_555 1_555
H19_2 C34_2 1_555 1_555
H20_2 C30_2 1_555 1_555
Cd5_2 O9_2 1_555 1_555
O10_2 Cd5_2 1_555 1_555
C34_2 C35_2 1_555 1_555
C4_2 H2_2 1_555 1_555
C7_2 C4_2 1_555 1_555
C9_2 O5_2 1_555 1_555
C13_2 C9_2 1_555 1_555
C17_2 C7_2 1_555 1_555
H8_2 C17_2 1_555 1_555
C19_2 C13_2 1_555 1_555
H10_2 C19_2 1_555 1_555
C23_2 C4_2 1_555 1_555
H13_2 C23_2 1_555 1_555
N4_2 C7_2 1_555 1_555
N6_2 N4_2 1_555 1_555
C36_2 N6_2 1_555 1_555
C37_2 C36_2 1_555 1_555
H21_2 C37_2 1_555 1_555
C38_2 C37_2 1_555 1_555
C39_2 C38_2 1_555 1_555
C40_2 C39_2 1_555 1_555
C41_2 C40_2 1_555 1_555
O11_2 C41_2 1_555 1_555
O12_2 C41_2 1_555 1_555
C42_2 C36_2 1_555 1_555
H22_2 C42_2 1_555 1_555
H23_2 C39_2 1_555 1_555
H24_2 C38_2 1_555 1_555
C9_2 O6_2 1_555 1_555
C13_2 C17_2 1_555 1_555
C19_2 C23_2 1_555 1_555
C40_2 C42_2 1_555 1_555
O1_2 C1_2 1_555 1_555
N1_2 C8_2 1_555 1_555
C2_2 C1_2 1_555 1_555
C3_2 C2_2 1_555 1_555
H1_2 C3_2 1_555 1_555
C5_2 C2_2 1_555 1_555
H3_2 C5_2 1_555 1_555
C6_2 H4_2 1_555 1_555
C8_2 C5_2 1_555 1_555
C11_2 C3_2 1_555 1_555
H5_2 C11_2 1_555 1_555
C6_2 C11_2 1_555 1_555
C6_2 C8_2 1_555 1_555
C4_3 H2_3 1_555 1_555
C7_3 C4_3 1_555 1_555
C9_3 O5_3 1_555 1_555
C13_3 C9_3 1_555 1_555
C17_3 C7_3 1_555 1_555
H8_3 C17_3 1_555 1_555
C19_3 C13_3 1_555 1_555
H10_3 C19_3 1_555 1_555
C23_3 C4_3 1_555 1_555
H13_3 C23_3 1_555 1_555
N4_3 C7_3 1_555 1_555
C29_3 N5_3 1_555 1_555
C30_3 C29_3 1_555 1_555
C31_3 C30_3 1_555 1_555
C32_3 C31_3 1_555 1_555
O9_3 C32_3 1_555 1_555
C33_3 C31_3 1_555 1_555
H17_3 C33_3 1_555 1_555
C34_3 C33_3 1_555 1_555
C35_3 C29_3 1_555 1_555
H18_3 C35_3 1_555 1_555
H19_3 C34_3 1_555 1_555
H20_3 C30_3 1_555 1_555
N6_3 N4_3 1_555 1_555
C36_3 N6_3 1_555 1_555
C37_3 C36_3 1_555 1_555
H21_3 C37_3 1_555 1_555
C38_3 C37_3 1_555 1_555
C39_3 C38_3 1_555 1_555
C40_3 C39_3 1_555 1_555
C41_3 C40_3 1_555 1_555
O19 C41_3 1_555 1_555
O20 C41_3 1_555 1_555
C42_3 C36_3 1_555 1_555
H22_3 C42_3 1_555 1_555
H23_3 C39_3 1_555 1_555
H24_3 C38_3 1_555 1_555
C9_3 O6_3 1_555 1_555
C13_3 C17_3 1_555 1_555
C19_3 C23_3 1_555 1_555
C34_3 C35_3 1_555 1_555
C40_3 C42_3 1_555 1_555
N2_3 N3_3 1_555 1_555
N3_3 C14_3 1_555 1_555
C15_3 C14_3 1_555 1_555
H7_3 C15_3 1_555 1_555
H9_3 C18_3 1_555 1_555
C20_3 N2_3 1_555 1_555
C21_3 C20_3 1_555 1_555
H11_3 C21_3 1_555 1_555
C22_3 C15_3 1_555 1_555
H12_3 C22_3 1_555 1_555
C24_3 C20_3 1_555 1_555
H14_3 C24_3 1_555 1_555
C25_3 C24_3 1_555 1_555
C26_3 C25_3 1_555 1_555
C27_3 C25_3 1_555 1_555
C28_3 C21_3 1_555 1_555
H16_3 C28_3 1_555 1_555
O8_3 C26_3 1_555 1_555
C18_3 C22_3 1_555 1_555
C27_3 C28_3 1_555 1_555
O8_3 Cd3 1_555 1_555
Cd1_2 O1_3 1_555 1_555
O1_3 C1_3 1_555 1_555
N1_3 C8_3 1_555 1_555
O2_3 Cd1_2 1_555 1_555
C1_3 O2_3 1_555 1_555
C2_3 C1_3 1_555 1_555
C3_3 C2_3 1_555 1_555
H1_3 C3_3 1_555 1_555
C5_3 C2_3 1_555 1_555
H3_3 C5_3 1_555 1_555
C6_3 H4_3 1_555 1_555
C7_4 C4_4 1_555 1_555
O3_2 Cd1_2 1_555 1_555
O4_2 Cd1_2 1_555 1_555
C8_3 C5_3 1_555 1_555
C9_4 O5_4 1_555 1_555
O5_4 Cd1_2 1_555 1_555
C10_3 O3_2 1_555 1_555
C11_3 C3_3 1_555 1_555
H5_3 C11_3 1_555 1_555
O6_4 Cd1_2 1_555 1_555
C12_3 H6_3 1_555 1_555
C13_4 C9_4 1_555 1_555
C16_3 C10_3 1_555 1_555
C17_4 C7_4 1_555 1_555
H8_4 C17_4 1_555 1_555
C19_4 C13_4 1_555 1_555
H10_4 C19_4 1_555 1_555
C23_4 C4_4 1_555 1_555
N4_4 C7_4 1_555 1_555
N5_4 N1_3 1_555 1_555
C29_4 N5_4 1_555 1_555
C30_4 C29_4 1_555 1_555
C31_4 C30_4 1_555 1_555
C32_4 C31_4 1_555 1_555
O9_4 C32_4 1_555 1_555
C33_4 C31_4 1_555 1_555
H17_4 C33_4 1_555 1_555
C34_4 C33_4 1_555 1_555
C35_4 C29_4 1_555 1_555
H18_4 C35_4 1_555 1_555
H19_4 C34_4 1_555 1_555
H20_4 C30_4 1_555 1_555
N7_3 N8_3 1_555 1_555
O13_3 C43_3 1_555 1_555
O14_3 C43_3 1_555 1_555
N8_3 C45_3 1_555 1_555
C43_3 C47_3 1_555 1_555
C44_3 H25_3 1_555 1_555
C45_3 C44_3 1_555 1_555
C46_3 C45_3 1_555 1_555
H26_3 C46_3 1_555 1_555
C47_3 C44_3 1_555 1_555
C48_3 C47_3 1_555 1_555
H27_3 C48_3 1_555 1_555
C49_3 N7_3 1_555 1_555
C50_3 C49_3 1_555 1_555
H28_3 C50_3 1_555 1_555
C51_3 C46_3 1_555 1_555
H29_3 C51_3 1_555 1_555
C52_3 C49_3 1_555 1_555
H30_3 C52_3 1_555 1_555
C53_3 C52_3 1_555 1_555
C54_3 C53_3 1_555 1_555
C55_3 C53_3 1_555 1_555
H31_3 C55_3 1_555 1_555
C56_3 C50_3 1_555 1_555
H32_3 C56_3 1_555 1_555
O15_2 Cd1_2 1_555 1_555
O16_2 Cd1_2 1_555 1_555
Cd3 O13_3 1_555 1_555
C6_3 C11_3 1_555 1_555
C6_3 C8_3 1_555 1_555
O4_2 C10_3 1_555 1_555
C9_4 O6_4 1_555 1_555
C12_3 C16_3 1_555 1_555
C13_4 C17_4 1_555 1_555
C19_4 C23_4 1_555 1_555
C34_4 C35_4 1_555 1_555
O14_3 Cd3 1_555 1_555
C48_3 C51_3 1_555 1_555
C54_3 O15_2 1_555 1_555
C54_3 O16_2 1_555 1_555
C55_3 C56_3 1_555 1_555
O10_3 Cd3 1_555 1_555
O17_2 Cd2 1_555 1_555
O18_2 Cd2 1_555 1_555
O19_2 Cd2 1_555 1_555
O20_2 Cd2 1_555 1_555
O21_2 Cd2 1_555 1_555
O22_2 Cd2 1_555 1_555
O10_4 Cd2 1_555 1_555
C36_4 N6_4 1_555 1_555
C37_4 C36_4 1_555 1_555
C38_4 C37_4 1_555 1_555
C39_4 C38_4 1_555 1_555
C40_4 C39_4 1_555 1_555
C41_4 C40_4 1_555 1_555
O19_2 C41_4 1_555 1_555
O20_2 C41_4 1_555 1_555
C42_4 C36_4 1_555 1_555
H22_4 C42_4 1_555 1_555
H23_4 C39_4 1_555 1_555
C40_4 C42_4 1_555 1_555
N2_4 N3_4 1_555 1_555
N3_4 C14_4 1_555 1_555
C15_4 C14_4 1_555 1_555
H7_4 C15_4 1_555 1_555
H9_4 C18_4 1_555 1_555
C20_4 N2_4 1_555 1_555
C21_4 C20_4 1_555 1_555
H11_4 C21_4 1_555 1_555
C22_4 C15_4 1_555 1_555
H12_4 C22_4 1_555 1_555
C24_4 C20_4 1_555 1_555
H14_4 C24_4 1_555 1_555
C25_4 C24_4 1_555 1_555
C26_4 C25_4 1_555 1_555
C27_4 C25_4 1_555 1_555
C28_4 C21_4 1_555 1_555
H16_4 C28_4 1_555 1_555
O8_4 C26_4 1_555 1_555
C18_4 C22_4 1_555 1_555
C27_4 C28_4 1_555 1_555
O8_4 Cd3_2 1_555 1_555
C10_4 O17_2 1_555 1_555
C12_4 H6_4 1_555 1_555
C16_4 C10_4 1_555 1_555
N7_4 N8_4 1_555 1_555
O13_4 C43_4 1_555 1_555
O14_4 C43_4 1_555 1_555
N8_4 C45_4 1_555 1_555
C43_4 C47_4 1_555 1_555
C44_4 H25_4 1_555 1_555
C45_4 C44_4 1_555 1_555
C46_4 C45_4 1_555 1_555
H26_4 C46_4 1_555 1_555
C47_4 C44_4 1_555 1_555
C48_4 C47_4 1_555 1_555
H27_4 C48_4 1_555 1_555
C49_4 N7_4 1_555 1_555
C50_4 C49_4 1_555 1_555
H28_4 C50_4 1_555 1_555
C51_4 C46_4 1_555 1_555
H29_4 C51_4 1_555 1_555
C52_4 C49_4 1_555 1_555
H30_4 C52_4 1_555 1_555
C53_4 C52_4 1_555 1_555
C54_4 C53_4 1_555 1_555
C55_4 C53_4 1_555 1_555
H31_4 C55_4 1_555 1_555
C56_4 C50_4 1_555 1_555
H32_4 C56_4 1_555 1_555
Cd3_2 O13_4 1_555 1_555
O18_2 C10_4 1_555 1_555
C12_4 C16_4 1_555 1_555
O14_4 Cd3_2 1_555 1_555
C48_4 C51_4 1_555 1_555
C54_4 O21_2 1_555 1_555
C54_4 O22_2 1_555 1_555
C55_4 C56_4 1_555 1_555
Cd3_2 O1_4 1_555 1_555
O1_4 C1_4 1_555 1_555
N1_4 C8_4 1_555 1_555
O2_4 Cd3_2 1_555 1_555
C1_4 O2_4 1_555 1_555
C2_4 C1_4 1_555 1_555
C3_4 C2_4 1_555 1_555
H1_4 C3_4 1_555 1_555
C5_4 C2_4 1_555 1_555
H3_4 C5_4 1_555 1_555
C6_4 H4_4 1_555 1_555
C8_4 C5_4 1_555 1_555
C11_4 C3_4 1_555 1_555
H5_4 C11_4 1_555 1_555
C6_4 C11_4 1_555 1_555
C6_4 C8_4 1_555 1_555
N9 H33 1_555 1_555
H34 N9 1_555 1_555
C57 N9 1_555 1_555
H35 C57 1_555 1_555
H36 C57 1_555 1_555
H37 C57 1_555 1_555
C58 N9 1_555 1_555
H38 C58 1_555 1_555
H39 C58 1_555 1_555
H40 C58 1_555 1_555
N9_2 H33_2 1_555 1_555
H34_2 N9_2 1_555 1_555
C57_2 N9_2 1_555 1_555
H35_2 C57_2 1_555 1_555
H36_2 C57_2 1_555 1_555
H37_2 C57_2 1_555 1_555
C58_2 N9_2 1_555 1_555
H38_2 C58_2 1_555 1_555
H39_2 C58_2 1_555 1_555
H40_2 C58_2 1_555 1_555
N9_3 H33_3 1_555 1_555
H34_3 N9_3 1_555 1_555
C57_3 N9_3 1_555 1_555
H35_3 C57_3 1_555 1_555
H36_3 C57_3 1_555 1_555
H37_3 C57_3 1_555 1_555
C58_3 N9_3 1_555 1_555
H38_3 C58_3 1_555 1_555
H39_3 C58_3 1_555 1_555
H40_3 C58_3 1_555 1_555
N9_4 H33_4 1_555 1_555
H34_4 N9_4 1_555 1_555
C57_4 N9_4 1_555 1_555
H35_4 C57_4 1_555 1_555
H36_4 C57_4 1_555 1_555
H37_4 C57_4 1_555 1_555
C58_4 N9_4 1_555 1_555
H38_4 C58_4 1_555 1_555
H39_4 C58_4 1_555 1_555
H40_4 C58_4 1_555 1_555
N9_5 H33_5 1_555 1_555
H34_5 N9_5 1_555 1_555
C57_5 N9_5 1_555 1_555
H35_5 C57_5 1_555 1_555
H36_5 C57_5 1_555 1_555
H37_5 C57_5 1_555 1_555
C58_5 N9_5 1_555 1_555
H38_5 C58_5 1_555 1_555
H39_5 C58_5 1_555 1_555
H40_5 C58_5 1_555 1_555
N9_6 H33_6 1_555 1_555
H34_6 N9_6 1_555 1_555
C57_6 N9_6 1_555 1_555
H35_6 C57_6 1_555 1_555
H36_6 C57_6 1_555 1_555
H37_6 C57_6 1_555 1_555
C58_6 N9_6 1_555 1_555
H38_6 C58_6 1_555 1_555
H39_6 C58_6 1_555 1_555
H40_6 C58_6 1_555 1_555
N9_7 H33_7 1_555 1_555
H34_7 N9_7 1_555 1_555
C57_7 N9_7 1_555 1_555
H35_7 C57_7 1_555 1_555
H36_7 C57_7 1_555 1_555
H37_7 C57_7 1_555 1_555
C58_7 N9_7 1_555 1_555
H38_7 C58_7 1_555 1_555
H39_7 C58_7 1_555 1_555
H40_7 C58_7 1_555 1_555
N9_8 H33_8 1_555 1_555
H34_8 N9_8 1_555 1_555
C57_8 N9_8 1_555 1_555
H35_8 C57_8 1_555 1_555
H36_8 C57_8 1_555 1_555
H37_8 C57_8 1_555 1_555
C58_8 N9_8 1_555 1_555
H38_8 C58_8 1_555 1_555
H39_8 C58_8 1_555 1_555
H40_8 C58_8 1_555 1_555
N10 H41 1_555 1_555
N10 H42 1_555 1_555
N10 H43 1_555 1_555
N10 H44 1_555 1_555
N10 H41_2 1_555 1_555
N10 H42_2 1_555 1_555
N10 H43_2 1_555 1_555
N10 H44_2 1_555 1_555
N10_2 H41_3 1_555 1_555
N10_2 H42_3 1_555 1_555
N10_2 H43_3 1_555 1_555
N10_2 H44_3 1_555 1_555
N10_2 H41_4 1_555 1_555
N10_2 H42_4 1_555 1_555
N10_2 H43_4 1_555 1_555
N10_2 H44_4 1_555 1_555
N10_3 H41_5 1_555 1_555
N10_3 H42_5 1_555 1_555
N10_3 H43_5 1_555 1_555
N10_3 H44_5 1_555 1_555
N10_4 H42_6 1_555 1_555
N10_4 H43_6 1_555 1_555
N10_4 H44_6 1_555 1_555
N10_4 H41_6 1_555 1_555
N10_5 H42_7 1_555 1_555
N10_5 H43_7 1_555 1_555
N10_5 H44_7 1_555 1_555
N10_5 H41_7 1_555 1_555
N10_6 H41_8 1_555 1_555
N10_6 H42_8 1_555 1_555
N10_6 H43_8 1_555 1_555
N10_6 H44_8 1_555 1_555
N11 H45 1_555 1_555
N11 H46 1_555 1_555
N11 H47 1_555 1_555
N11 H48 1_555 1_555
N11 H45_2 1_555 1_555
N11 H46_2 1_555 1_555
N11 H47_2 1_555 1_555
N11 H48_2 1_555 1_555
N11_2 H45_3 1_555 1_555
N11_2 H46_3 1_555 1_555
N11_2 H47_3 1_555 1_555
N11_2 H48_3 1_555 1_555
N11_2 H45_4 1_555 1_555
N11_2 H46_4 1_555 1_555
N11_2 H47_4 1_555 1_555
N11_2 H48_4 1_555 1_555
N11_3 H45_5 1_555 1_555
N11_3 H46_5 1_555 1_555
N11_3 H47_5 1_555 1_555
N11_3 H48_5 1_555 1_555
N11_4 H46_6 1_555 1_555
N11_4 H47_6 1_555 1_555
N11_4 H48_6 1_555 1_555
N11_4 H45_6 1_555 1_555
N11_5 H46_7 1_555 1_555
N11_5 H47_7 1_555 1_555
N11_5 H48_7 1_555 1_555
N11_5 H45_7 1_555 1_555
N11_6 H45_8 1_555 1_555
N11_6 H46_8 1_555 1_555
N11_6 H47_8 1_555 1_555
N11_6 H48_8 1_555 1_555

#END
