
###############################################################################
#
# This file contains modified crystal structure data generated from the
# MOF subset of the Cambridge Structural Database (CSD) v543 
# hosted by the Cambridge Crystallographic Data Centre (CCDC).
#
# This work is licensed under the Creative Commons
# Attribution-NonCommercial-ShareAlike 4.0 International License.
# To view a copy of this license, visit
# http://creativecommons.org/licenses/by-nc-sa/4.0/
# or send a letter to
# Creative Commons, PO Box 1866, Mountain View, CA 94042, USA.
#
# CIF created using the CSD Python API on 29 September 2022
# The structure has been converted into the P1 space group
# The structure has a 3D framework
# The original CSD entry RINTOA is in the monoclinic crystal system
# The framework has been calculated to contain at least 10.0% void space
# The void calculation uses a probe of radius 1.32A, grid spacing 0.4
# The framework is charged, counterions have been retained in the structure
#
###############################################################################

data_RINTOA
_chemical_formula_moiety         '(C70 H80 N26 O46 Pb13 2-)n'
_symmetry_cell_setting           triclinic
_symmetry_space_group_name_H-M   'P 1'
_symmetry_Int_Tables_number      1
_space_group_name_Hall           'P 1'
loop_
_symmetry_equiv_pos_site_id
_symmetry_equiv_pos_as_xyz
1 x,y,z
_cell_length_a                   8.1312(6)
_cell_length_b                   29.931(3)
_cell_length_c                   11.5601(9)
_cell_angle_alpha                90
_cell_angle_beta                 102.974(5)
_cell_angle_gamma                90
_cell_volume                     2741.62
loop_
_atom_site_label
_atom_site_type_symbol
_atom_site_fract_x
_atom_site_fract_y
_atom_site_fract_z
N4 N 0.0000 0.5000 0.0000
N5 N 0.266(3) 0.5000 0.297(2)
N6 N 0.167(4) 0.5000 0.203(2)
N7 N 0.097(4) 0.5000 0.094(3)
Pb10 Pb 0.59320(8) 0.5000 0.36941(7)
Pb13 Pb 0.29707(6) 0.59107(2) 0.38730(5)
Pb15 Pb 0.29707(6) 0.40893(2) 0.38730(5)
Pb1 Pb 0.40680(8) 0.5000 0.63059(7)
N1 N 0.734(3) 0.5000 0.703(2)
N2 N 0.833(4) 0.5000 0.797(2)
N3 N 0.903(4) 0.5000 0.906(3)
N4_2 N 1.0000 0.5000 1.0000
Pb2 Pb 0.70293(6) 0.59107(2) 0.61270(5)
Pb3 Pb 0.5000 0.71430(3) 0.5000
O1 O 0.5000 0.5471(4) 0.5000
O2 O 0.1392(11) 0.5456(4) 0.5363(10)
C1 C -0.0000 0.5265(7) 0.5000
O3 O 0.3870(13) 0.6404(4) 0.5803(11)
O4 O 0.4854(12) 0.5935(4) 0.7274(11)
C2 C 0.3895(17) 0.6254(6) 0.6808(18)
C3 C 0.275(2) 0.6445(6) 0.7493(14)
H1 H 0.2367 0.6190 0.7896
C4 C 0.1168(16) 0.6657(5) 0.6799(11)
H2 H 0.0519 0.6433 0.6286
H3 H 0.1475 0.6887 0.6294
C5 C 0.366(2) 0.6729(8) 0.8439(18)
H4 H 0.4137 0.6981 0.8097
H5 H 0.4588 0.6562 0.8923
C6 C 0.250(3) 0.6904(9) 0.923(2)
H6 H 0.2134 0.6657 0.9659
H7 H 0.3111 0.7114 0.9813
C7 C 0.102(2) 0.7126(8) 0.849(2)
H8 H 0.1396 0.7393 0.8152
H9 H 0.0276 0.7220 0.8994
C8 C 0.0055(18) 0.6865(7) 0.7543(12)
C10 C -0.0000 0.4735(7) 0.5000
O9 O 0.1392(11) 0.4544(4) 0.5363(10)
O12 O 0.2846(13) 0.6824(4) 0.3228(11)
O13 O 0.1555(14) 0.7370(4) 0.3734(12)
H20 H 0.0297 0.6607 0.2048
C18 C 0.1543(15) 0.7030(5) 0.3200(12)
O16 O 0.2846(13) 0.3176(4) 0.3228(11)
O17 O 0.1555(14) 0.2630(4) 0.3734(12)
H30 H 0.0297 0.3393 0.2048
C26 C 0.1543(15) 0.2970(5) 0.3200(12)
Pb7 Pb 0.70293(6) 0.40893(2) 0.61270(5)
Pb8 Pb 0.5000 0.28570(3) 0.5000
O18 O 0.5000 0.4529(4) 0.5000
O19 O 0.3870(13) 0.3596(4) 0.5803(11)
O20 O 0.4854(12) 0.4065(4) 0.7274(11)
C27 C 0.3895(17) 0.3746(6) 0.6808(18)
C28 C 0.275(2) 0.3555(6) 0.7493(14)
H31 H 0.2367 0.3810 0.7896
C29 C 0.1168(16) 0.3343(5) 0.6799(11)
H32 H 0.0519 0.3567 0.6286
H33 H 0.1475 0.3113 0.6294
C30 C 0.366(2) 0.3271(8) 0.8439(18)
H34 H 0.4137 0.3019 0.8097
H35 H 0.4588 0.3438 0.8923
C31 C 0.250(3) 0.3096(9) 0.923(2)
H36 H 0.2134 0.3343 0.9659
H37 H 0.3111 0.2886 0.9813
C32 C 0.102(2) 0.2874(8) 0.849(2)
H38 H 0.1396 0.2607 0.8152
H39 H 0.0276 0.2780 0.8994
C33 C 0.0055(18) 0.3135(7) 0.7543(12)
Pb18 Pb -0.0000 0.21430(3) 0.5000
Pb20 Pb -0.0000 0.78570(3) 0.5000
O26 O 0.8608(11) 0.5456(4) 0.4637(10)
O27 O 0.8608(11) 0.4544(4) 0.4637(10)
O30 O 0.6130(13) 0.6404(4) 0.4197(11)
O31 O 0.6130(13) 0.3596(4) 0.4197(11)
O33 O 0.7154(13) 0.6824(4) 0.6772(11)
O36 O 0.7154(13) 0.3176(4) 0.6772(11)
O37 O 0.8445(14) 0.7370(4) 0.6266(12)
O38 O 0.3445(14) 0.2370(4) 0.6266(12)
O39 O 0.6555(14) 0.2370(4) 0.3734(12)
O40 O 0.8445(14) 0.2630(4) 0.6266(12)
O41 O 0.6555(14) 0.7630(4) 0.3734(12)
O42 O 0.3445(14) 0.7630(4) 0.6266(12)
C1_2 C 1.0000 0.5265(7) 0.5000
H10 H 0.9703 0.6607 0.7952
C9 C 0.8457(15) 0.7030(5) 0.6800(12)
C10_2 C 1.0000 0.4735(7) 0.5000
O11 O 0.5146(12) 0.5935(4) 0.2726(11)
C11 C 0.6105(17) 0.6254(6) 0.3192(18)
C12 C 0.725(2) 0.6445(6) 0.2507(14)
H11 H 0.7633 0.6190 0.2104
C13 C 0.8832(16) 0.6657(5) 0.3201(11)
H12 H 0.9481 0.6433 0.3714
H13 H 0.8525 0.6887 0.3706
C14 C 0.634(2) 0.6729(8) 0.1561(18)
H14 H 0.5863 0.6981 0.1903
H15 H 0.5412 0.6562 0.1077
C15 C 0.750(3) 0.6904(9) 0.077(2)
H16 H 0.7866 0.6657 0.0341
H17 H 0.6889 0.7114 0.0187
C16 C 0.898(2) 0.7126(8) 0.151(2)
H18 H 0.8604 0.7393 0.1848
H19 H 0.9724 0.7220 0.1006
C17 C 0.9945(18) 0.6865(7) 0.2457(12)
O15 O 0.5146(12) 0.4065(4) 0.2726(11)
C19 C 0.6105(17) 0.3746(6) 0.3192(18)
C20 C 0.725(2) 0.3555(6) 0.2507(14)
H21 H 0.7633 0.3810 0.2104
C21 C 0.8832(16) 0.3343(5) 0.3201(11)
H22 H 0.9481 0.3567 0.3714
H23 H 0.8525 0.3113 0.3706
C22 C 0.634(2) 0.3271(8) 0.1561(18)
H24 H 0.5863 0.3019 0.1903
H25 H 0.5412 0.3438 0.1077
C23 C 0.750(3) 0.3096(9) 0.077(2)
H26 H 0.7866 0.3343 0.0341
H27 H 0.6889 0.2886 0.0187
C24 C 0.898(2) 0.2874(8) 0.151(2)
H28 H 0.8604 0.2607 0.1848
H29 H 0.9724 0.2780 0.1006
C25 C 0.9945(18) 0.3135(7) 0.2457(12)
H40 H 0.9703 0.3393 0.7952
C34 C 0.8457(15) 0.2970(5) 0.6800(12)
Pb18_2 Pb 1.0000 0.21430(3) 0.5000
Pb20_2 Pb 1.0000 0.78570(3) 0.5000
Pb10_2 Pb 0.09320(8) -0.0000 0.36941(7)
Pb10_3 Pb 0.09320(8) 1.0000 0.36941(7)
N4_3 N 0.5000 -0.0000 0.0000
N5_2 N 0.766(3) -0.0000 0.297(2)
N6_2 N 0.667(4) -0.0000 0.203(2)
N7_2 N 0.597(4) -0.0000 0.094(3)
Pb13_2 Pb 0.79707(6) 0.09107(2) 0.38730(5)
N1_2 N 0.234(3) -0.0000 0.703(2)
N2_2 N 0.333(4) -0.0000 0.797(2)
N3_2 N 0.403(4) -0.0000 0.906(3)
N4_4 N 0.5000 -0.0000 1.0000
Pb2_2 Pb 0.20293(6) 0.09107(2) 0.61270(5)
O1_2 O -0.0000 0.0471(4) 0.5000
O26_2 O 0.3608(11) 0.0456(4) 0.4637(10)
O30_2 O 0.1130(13) 0.1404(4) 0.4197(11)
O33_2 O 0.2154(13) 0.1824(4) 0.6772(11)
N4_5 N 0.5000 1.0000 0.0000
N5_3 N 0.766(3) 1.0000 0.297(2)
N6_3 N 0.667(4) 1.0000 0.203(2)
N7_3 N 0.597(4) 1.0000 0.094(3)
Pb15_2 Pb 0.79707(6) 0.90893(2) 0.38730(5)
N1_3 N 0.234(3) 1.0000 0.703(2)
N2_3 N 0.333(4) 1.0000 0.797(2)
N3_3 N 0.403(4) 1.0000 0.906(3)
N4_6 N 0.5000 1.0000 1.0000
Pb7_2 Pb 0.20293(6) 0.90893(2) 0.61270(5)
O18_2 O -0.0000 0.9529(4) 0.5000
O27_2 O 0.3608(11) 0.9544(4) 0.4637(10)
O31_2 O 0.1130(13) 0.8596(4) 0.4197(11)
O36_2 O 0.2154(13) 0.8176(4) 0.6772(11)
Pb1_2 Pb 0.90680(8) -0.0000 0.63059(7)
O1_3 O 1.0000 0.0471(4) 0.5000
O2_2 O 0.6392(11) 0.0456(4) 0.5363(10)
C1_3 C 0.5000 0.0265(7) 0.5000
O3_2 O 0.8870(13) 0.1404(4) 0.5803(11)
O4_2 O 0.9854(12) 0.0935(4) 0.7274(11)
C2_2 C 0.8895(17) 0.1254(6) 0.6808(18)
C3_2 C 0.775(2) 0.1445(6) 0.7493(14)
H1_2 H 0.7367 0.1190 0.7896
C4_2 C 0.6168(16) 0.1657(5) 0.6799(11)
H2_2 H 0.5519 0.1433 0.6286
H3_2 H 0.6475 0.1887 0.6294
C5_2 C 0.866(2) 0.1729(8) 0.8439(18)
H4_2 H 0.9137 0.1981 0.8097
H5_2 H 0.9588 0.1562 0.8923
C6_2 C 0.750(3) 0.1904(9) 0.923(2)
H6_2 H 0.7134 0.1657 0.9659
H7_2 H 0.8111 0.2114 0.9813
C7_2 C 0.602(2) 0.2126(8) 0.849(2)
H8_2 H 0.6396 0.2393 0.8152
H9_2 H 0.5276 0.2220 0.8994
C8_2 C 0.5055(18) 0.1865(7) 0.7543(12)
H10_2 H 0.4703 0.1607 0.7952
C9_2 C 0.3457(15) 0.2030(5) 0.6800(12)
O11_2 O 0.0146(12) 0.0935(4) 0.2726(11)
O12_2 O 0.7846(13) 0.1824(4) 0.3228(11)
C11_2 C 0.1105(17) 0.1254(6) 0.3192(18)
C12_2 C 0.225(2) 0.1445(6) 0.2507(14)
H11_2 H 0.2633 0.1190 0.2104
C13_2 C 0.3832(16) 0.1657(5) 0.3201(11)
H12_2 H 0.4481 0.1433 0.3714
H13_2 H 0.3525 0.1887 0.3706
C14_2 C 0.134(2) 0.1729(8) 0.1561(18)
H14_2 H 0.0863 0.1981 0.1903
H15_2 H 0.0412 0.1562 0.1077
C15_2 C 0.250(3) 0.1904(9) 0.077(2)
H16_2 H 0.2866 0.1657 0.0341
H17_2 H 0.1889 0.2114 0.0187
C16_2 C 0.398(2) 0.2126(8) 0.151(2)
H18_2 H 0.3604 0.2393 0.1848
H19_2 H 0.4724 0.2220 0.1006
C17_2 C 0.4945(18) 0.1865(7) 0.2457(12)
H20_2 H 0.5297 0.1607 0.2048
C18_2 C 0.6543(15) 0.2030(5) 0.3200(12)
Pb1_3 Pb 0.90680(8) 1.0000 0.63059(7)
C10_3 C 0.5000 0.9735(7) 0.5000
O9_2 O 0.6392(11) 0.9544(4) 0.5363(10)
O15_2 O 0.0146(12) 0.9065(4) 0.2726(11)
O16_2 O 0.7846(13) 0.8176(4) 0.3228(11)
C19_2 C 0.1105(17) 0.8746(6) 0.3192(18)
C20_2 C 0.225(2) 0.8555(6) 0.2507(14)
H21_2 H 0.2633 0.8810 0.2104
C21_2 C 0.3832(16) 0.8343(5) 0.3201(11)
H22_2 H 0.4481 0.8567 0.3714
H23_2 H 0.3525 0.8113 0.3706
C22_2 C 0.134(2) 0.8271(8) 0.1561(18)
H24_2 H 0.0863 0.8019 0.1903
H25_2 H 0.0412 0.8438 0.1077
C23_2 C 0.250(3) 0.8096(9) 0.077(2)
H26_2 H 0.2866 0.8343 0.0341
H27_2 H 0.1889 0.7886 0.0187
C24_2 C 0.398(2) 0.7874(8) 0.151(2)
H28_2 H 0.3604 0.7607 0.1848
H29_2 H 0.4724 0.7780 0.1006
C25_2 C 0.4945(18) 0.8135(7) 0.2457(12)
H30_2 H 0.5297 0.8393 0.2048
C26_2 C 0.6543(15) 0.7970(5) 0.3200(12)
O18_3 O 1.0000 0.9529(4) 0.5000
O19_2 O 0.8870(13) 0.8596(4) 0.5803(11)
O20_2 O 0.9854(12) 0.9065(4) 0.7274(11)
C27_2 C 0.8895(17) 0.8746(6) 0.6808(18)
C28_2 C 0.775(2) 0.8555(6) 0.7493(14)
H31_2 H 0.7367 0.8810 0.7896
C29_2 C 0.6168(16) 0.8343(5) 0.6799(11)
H32_2 H 0.5519 0.8567 0.6286
H33_2 H 0.6475 0.8113 0.6294
C30_2 C 0.866(2) 0.8271(8) 0.8439(18)
H34_2 H 0.9137 0.8019 0.8097
H35_2 H 0.9588 0.8438 0.8923
C31_2 C 0.750(3) 0.8096(9) 0.923(2)
H36_2 H 0.7134 0.8343 0.9659
H37_2 H 0.8111 0.7886 0.9813
C32_2 C 0.602(2) 0.7874(8) 0.849(2)
H38_2 H 0.6396 0.7607 0.8152
H39_2 H 0.5276 0.7780 0.8994
C33_2 C 0.5055(18) 0.8135(7) 0.7543(12)
H40_2 H 0.4703 0.8393 0.7952
C34_2 C 0.3457(15) 0.7970(5) 0.6800(12)
N4_7 N -0.0000 0.5000 1.0000
N4_8 N 1.0000 0.5000 0.0000
loop_
_geom_bond_atom_site_label_1
_geom_bond_atom_site_label_2
_geom_bond_site_symmetry_1
_geom_bond_site_symmetry_2
N4 N7 1_555 1_555
N5 N6 1_555 1_555
N6 N7 1_555 1_555
Pb10 N5 1_555 1_555
Pb13 N5 1_555 1_555
Pb15 N5 1_555 1_555
Pb1 N1 1_555 1_555
N1 N2 1_555 1_555
N2 N3 1_555 1_555
N3 N4_2 1_555 1_555
Pb2 N1 1_555 1_555
Pb3 O3 1_555 1_555
O1 Pb1 1_555 1_555
O2 Pb1 1_555 1_555
C1 O2 1_555 1_555
O3 Pb2 1_555 1_555
O4 Pb2 1_555 1_555
C2 O3 1_555 1_555
C3 C2 1_555 1_555
H1 C3 1_555 1_555
C4 C3 1_555 1_555
H2 C4 1_555 1_555
H3 C4 1_555 1_555
C5 C3 1_555 1_555
H4 C5 1_555 1_555
H5 C5 1_555 1_555
C6 C5 1_555 1_555
H6 C6 1_555 1_555
H7 C6 1_555 1_555
C7 C6 1_555 1_555
H8 C7 1_555 1_555
H9 C7 1_555 1_555
C8 C4 1_555 1_555
C10 C1 1_555 1_555
O9 Pb1 1_555 1_555
O12 Pb3 1_555 1_555
O13 Pb3 1_555 1_555
C18 O12 1_555 1_555
O16 C26 1_555 1_555
O17 C26 1_555 1_555
Pb7 N1 1_555 1_555
Pb8 O16 1_555 1_555
O18 Pb1 1_555 1_555
O19 Pb7 1_555 1_555
O20 Pb7 1_555 1_555
C27 O19 1_555 1_555
C28 C27 1_555 1_555
H31 C28 1_555 1_555
C29 C28 1_555 1_555
H32 C29 1_555 1_555
H33 C29 1_555 1_555
C30 C28 1_555 1_555
H34 C30 1_555 1_555
H35 C30 1_555 1_555
C31 C30 1_555 1_555
H36 C31 1_555 1_555
H37 C31 1_555 1_555
C32 C31 1_555 1_555
H38 C32 1_555 1_555
H39 C32 1_555 1_555
C33 C29 1_555 1_555
Pb10 O1 1_555 1_555
Pb13 O1 1_555 1_555
Pb15 O9 1_555 1_555
Pb18 O17 1_555 1_555
O26 Pb2 1_555 1_555
O27 Pb7 1_555 1_555
O30 Pb2 1_555 1_555
O31 Pb7 1_555 1_555
O33 Pb2 1_555 1_555
O36 Pb7 1_555 1_555
O37 Pb3 1_555 1_555
O38 Pb8 1_555 1_555
O39 Pb8 1_555 1_555
O40 Pb8 1_555 1_555
O41 Pb3 1_555 1_555
O42 Pb3 1_555 1_555
Pb2 O1 1_555 1_555
Pb3 O30 1_555 1_555
Pb3 O33 1_555 1_555
O2 Pb13 1_555 1_555
O3 Pb13 1_555 1_555
O4 C2 1_555 1_555
C7 C8 1_555 1_555
C10 O9 1_555 1_555
O12 Pb13 1_555 1_555
O13 C18 1_555 1_555
O13 Pb20 1_555 1_555
O16 Pb15 1_555 1_555
O17 Pb8 1_555 1_555
Pb7 O18 1_555 1_555
Pb8 O19 1_555 1_555
Pb8 O31 1_555 1_555
Pb8 O36 1_555 1_555
O18 Pb10 1_555 1_555
O18 Pb15 1_555 1_555
O19 Pb15 1_555 1_555
O20 C27 1_555 1_555
C32 C33 1_555 1_555
Pb10 O26 1_555 1_555
Pb10 O27 1_555 1_555
Pb13 O30 1_555 1_555
Pb15 O31 1_555 1_555
Pb18 O38 1_555 1_555
Pb20 O42 1_555 1_555
O33 C9 1_555 1_555
O37 C9 1_555 1_555
O26 C1_2 1_555 1_555
O27 C10_2 1_555 1_555
C10_2 C1_2 1_555 1_555
O30 C11 1_555 1_555
O11 Pb13 1_555 1_555
C11 O11 1_555 1_555
C12 C11 1_555 1_555
H11 C12 1_555 1_555
C13 C12 1_555 1_555
H12 C13 1_555 1_555
H13 C13 1_555 1_555
C14 C12 1_555 1_555
H14 C14 1_555 1_555
H15 C14 1_555 1_555
C15 C14 1_555 1_555
H16 C15 1_555 1_555
H17 C15 1_555 1_555
C16 C15 1_555 1_555
H18 C16 1_555 1_555
H19 C16 1_555 1_555
C17 C13 1_555 1_555
O31 C19 1_555 1_555
O15 Pb15 1_555 1_555
C19 O15 1_555 1_555
C20 C19 1_555 1_555
H21 C20 1_555 1_555
C21 C20 1_555 1_555
H22 C21 1_555 1_555
H23 C21 1_555 1_555
C22 C20 1_555 1_555
H24 C22 1_555 1_555
H25 C22 1_555 1_555
C23 C22 1_555 1_555
H26 C23 1_555 1_555
H27 C23 1_555 1_555
C24 C23 1_555 1_555
H28 C24 1_555 1_555
H29 C24 1_555 1_555
C25 C21 1_555 1_555
O36 C34 1_555 1_555
O40 C34 1_555 1_555
Pb20_2 O37 1_555 1_555
C16 C17 1_555 1_555
C24 C25 1_555 1_555
O40 Pb18_2 1_555 1_555
Pb18_2 O39 1_555 1_555
Pb20_2 O41 1_555 1_555
N4_3 N7_2 1_555 1_555
N5_2 N6_2 1_555 1_555
N6_2 N7_2 1_555 1_555
Pb13_2 N5_2 1_555 1_555
N1_2 N2_2 1_555 1_555
N2_2 N3_2 1_555 1_555
N3_2 N4_4 1_555 1_555
Pb2_2 N1_2 1_555 1_555
Pb10_2 O1_2 1_555 1_555
O26_2 Pb2_2 1_555 1_555
O30_2 Pb2_2 1_555 1_555
O33_2 Pb2_2 1_555 1_555
Pb2_2 O1_2 1_555 1_555
Pb18 O30_2 1_555 1_555
Pb18 O33_2 1_555 1_555
Pb10_2 O26_2 1_555 1_555
N4_5 N7_3 1_555 1_555
N5_3 N6_3 1_555 1_555
N6_3 N7_3 1_555 1_555
Pb15_2 N5_3 1_555 1_555
N1_3 N2_3 1_555 1_555
N2_3 N3_3 1_555 1_555
N3_3 N4_6 1_555 1_555
Pb7_2 N1_3 1_555 1_555
O27_2 Pb7_2 1_555 1_555
O31_2 Pb7_2 1_555 1_555
O36_2 Pb7_2 1_555 1_555
Pb7_2 O18_2 1_555 1_555
Pb20 O31_2 1_555 1_555
Pb20 O36_2 1_555 1_555
O18_2 Pb10_3 1_555 1_555
Pb10_3 O27_2 1_555 1_555
Pb18_2 O3_2 1_555 1_555
O1_3 Pb1_2 1_555 1_555
O2_2 Pb1_2 1_555 1_555
C1_3 O2_2 1_555 1_555
O33_2 C9_2 1_555 1_555
O38 C9_2 1_555 1_555
C2_2 O3_2 1_555 1_555
C3_2 C2_2 1_555 1_555
H1_2 C3_2 1_555 1_555
C4_2 C3_2 1_555 1_555
H2_2 C4_2 1_555 1_555
H3_2 C4_2 1_555 1_555
C5_2 C3_2 1_555 1_555
H4_2 C5_2 1_555 1_555
H5_2 C5_2 1_555 1_555
C6_2 C5_2 1_555 1_555
H6_2 C6_2 1_555 1_555
H7_2 C6_2 1_555 1_555
C7_2 C6_2 1_555 1_555
H8_2 C7_2 1_555 1_555
H9_2 C7_2 1_555 1_555
C8_2 C4_2 1_555 1_555
H10_2 C8_2 1_555 1_555
C9_2 C8_2 1_555 1_555
O26_2 C1_3 1_555 1_555
O30_2 C11_2 1_555 1_555
O12_2 Pb18_2 1_555 1_555
C11_2 O11_2 1_555 1_555
C12_2 C11_2 1_555 1_555
H11_2 C12_2 1_555 1_555
C13_2 C12_2 1_555 1_555
H12_2 C13_2 1_555 1_555
H13_2 C13_2 1_555 1_555
C14_2 C12_2 1_555 1_555
H14_2 C14_2 1_555 1_555
H15_2 C14_2 1_555 1_555
C15_2 C14_2 1_555 1_555
H16_2 C15_2 1_555 1_555
H17_2 C15_2 1_555 1_555
C16_2 C15_2 1_555 1_555
H18_2 C16_2 1_555 1_555
H19_2 C16_2 1_555 1_555
C17_2 C13_2 1_555 1_555
H20_2 C17_2 1_555 1_555
C18_2 O12_2 1_555 1_555
Pb13_2 O1_3 1_555 1_555
O2_2 Pb13_2 1_555 1_555
O3_2 Pb13_2 1_555 1_555
O4_2 C2_2 1_555 1_555
C7_2 C8_2 1_555 1_555
O12_2 Pb13_2 1_555 1_555
O39 C18_2 1_555 1_555
C16_2 C17_2 1_555 1_555
C17_2 C18_2 1_555 1_555
O27_2 C10_3 1_555 1_555
O9_2 Pb1_3 1_555 1_555
O31_2 C19_2 1_555 1_555
O16_2 C26_2 1_555 1_555
O41 C26_2 1_555 1_555
C19_2 O15_2 1_555 1_555
C20_2 C19_2 1_555 1_555
H21_2 C20_2 1_555 1_555
C21_2 C20_2 1_555 1_555
H22_2 C21_2 1_555 1_555
H23_2 C21_2 1_555 1_555
C22_2 C20_2 1_555 1_555
H24_2 C22_2 1_555 1_555
H25_2 C22_2 1_555 1_555
C23_2 C22_2 1_555 1_555
H26_2 C23_2 1_555 1_555
H27_2 C23_2 1_555 1_555
C24_2 C23_2 1_555 1_555
H28_2 C24_2 1_555 1_555
H29_2 C24_2 1_555 1_555
C25_2 C21_2 1_555 1_555
H30_2 C25_2 1_555 1_555
C26_2 C25_2 1_555 1_555
Pb20_2 O16_2 1_555 1_555
O18_3 Pb1_3 1_555 1_555
O36_2 C34_2 1_555 1_555
O42 C34_2 1_555 1_555
C27_2 O19_2 1_555 1_555
C28_2 C27_2 1_555 1_555
H31_2 C28_2 1_555 1_555
C29_2 C28_2 1_555 1_555
H32_2 C29_2 1_555 1_555
H33_2 C29_2 1_555 1_555
C30_2 C28_2 1_555 1_555
H34_2 C30_2 1_555 1_555
H35_2 C30_2 1_555 1_555
C31_2 C30_2 1_555 1_555
H36_2 C31_2 1_555 1_555
H37_2 C31_2 1_555 1_555
C32_2 C31_2 1_555 1_555
H38_2 C32_2 1_555 1_555
H39_2 C32_2 1_555 1_555
C33_2 C29_2 1_555 1_555
H40_2 C33_2 1_555 1_555
C34_2 C33_2 1_555 1_555
Pb15_2 O9_2 1_555 1_555
C10_3 O9_2 1_555 1_555
O16_2 Pb15_2 1_555 1_555
C24_2 C25_2 1_555 1_555
Pb20_2 O19_2 1_555 1_555
O18_3 Pb15_2 1_555 1_555
O19_2 Pb15_2 1_555 1_555
O20_2 C27_2 1_555 1_555
C32_2 C33_2 1_555 1_555

#END
