
###############################################################################
#
# This file contains modified crystal structure data generated from the
# MOF subset of the Cambridge Structural Database (CSD) v543 
# hosted by the Cambridge Crystallographic Data Centre (CCDC).
#
# This work is licensed under the Creative Commons
# Attribution-NonCommercial-ShareAlike 4.0 International License.
# To view a copy of this license, visit
# http://creativecommons.org/licenses/by-nc-sa/4.0/
# or send a letter to
# Creative Commons, PO Box 1866, Mountain View, CA 94042, USA.
#
# CIF created using the CSD Python API on 29 September 2022
# The structure has been converted into the P1 space group
# The structure has a 3D framework
# The original CSD entry RIPDEB is in the orthorhombic crystal system
# The framework has been calculated to contain at least 10.0% void space
# The void calculation uses a probe of radius 1.32A, grid spacing 0.4
#
###############################################################################

data_RIPDEB
_chemical_formula_moiety         '(C320 H240 N24 O82 Zn35)n'
_symmetry_cell_setting           triclinic
_symmetry_space_group_name_H-M   'P 1'
_symmetry_Int_Tables_number      1
_space_group_name_Hall           'P 1'
loop_
_symmetry_equiv_pos_site_id
_symmetry_equiv_pos_as_xyz
1 x,y,z
_cell_length_a                   21.66396(16)
_cell_length_b                   23.95890(14)
_cell_length_c                   18.11334(12)
_cell_angle_alpha                90
_cell_angle_beta                 90
_cell_angle_gamma                90
_cell_volume                     9401.63
loop_
_atom_site_label
_atom_site_type_symbol
_atom_site_fract_x
_atom_site_fract_y
_atom_site_fract_z
Zn19 Zn -0.0000 0.5000 0.5000
Zn4 Zn 0.5000 0.5000 0.0000
O8 O 0.37915(8) 0.39684(8) 0.03170(9)
C67 C 0.60800(11) 0.59174(10) 0.03514(13)
C68 C 0.64746(12) 0.62079(10) 0.09182(14)
C69 C 0.63995(13) 0.60950(11) 0.16596(13)
H53 H 0.6101 0.5827 0.1808
C70 C 0.67474(12) 0.63617(11) 0.21898(14)
H54 H 0.6690 0.6278 0.2698
C71 C 0.71789(13) 0.67503(11) 0.19754(14)
C72 C 0.72599(18) 0.68776(16) 0.12475(18)
H55 H 0.7553 0.7152 0.1105
C73 C 0.69090(16) 0.66029(15) 0.07130(16)
H56 H 0.6968 0.6687 0.0205
C74 C 0.78278(12) 0.67261(11) 0.30319(14)
C75 C 0.80607(12) 0.62029(12) 0.28842(14)
H57 H 0.7996 0.6035 0.2416
C76 C 0.83903(12) 0.59250(11) 0.34252(14)
H58 H 0.8558 0.5567 0.3321
C77 C 0.84795(11) 0.61580(10) 0.41142(13)
C78 C 0.82277(13) 0.66802(11) 0.42599(15)
H59 H 0.8273 0.6841 0.4736
C79 C 0.79097(14) 0.69691(11) 0.37142(16)
H60 H 0.7750 0.7331 0.3811
C80 C 0.88581(11) 0.58582(9) 0.46829(12)
O18 O 0.75222(9) 0.70408(9) 0.24985(9)
O20 O 0.56509(7) 0.56044(7) 0.05575(9)
O21 O 0.92518(7) 0.55077(6) 0.44739(9)
O22 O 0.87670(8) 0.60060(7) 0.53454(8)
Zn9 Zn 0.431257(14) 0.412647(12) 0.115561(15)
Zn13 Zn 0.925805(14) 0.578985(12) 0.619359(15)
Zn15 Zn 0.992595(14) 0.524795(12) 0.335444(18)
Zn19_2 Zn 1.0000 0.5000 0.5000
O23 O 0.49990(6) 0.46328(6) 0.09657(9)
O26 O 0.42518(7) 0.55077(6) 0.05261(9)
Zn1 Zn 0.568743(14) 0.587353(12) 0.884439(15)
Zn2 Zn 0.425805(14) 0.578985(12) 0.880641(15)
Zn3 Zn 0.507405(14) 0.475205(12) 0.835444(18)
Zn4_2 Zn 0.5000 0.5000 1.0000
C1 C 0.38371(11) 0.46519(10) 0.24287(13)
C2 C 0.34427(12) 0.46894(11) 0.31036(12)
C3 C 0.30246(12) 0.42712(13) 0.32874(14)
H1 H 0.2976 0.3958 0.2970
C4 C 0.26772(13) 0.43060(15) 0.39298(14)
H2 H 0.2390 0.4021 0.4053
C5 C 0.27568(12) 0.47619(14) 0.43866(14)
C6 C 0.31582(14) 0.51880(14) 0.42068(15)
H3 H 0.3197 0.5505 0.4518
C7 C 0.35021(14) 0.51474(13) 0.35692(15)
H4 H 0.3784 0.5437 0.3446
C8 C 0.27826(12) 0.48714(14) 0.56662(14)
C9 C 0.25832(13) 0.52538(15) 0.61800(14)
H5 H 0.2211 0.5456 0.6106
C10 C 0.29370(13) 0.53391(13) 0.68101(14)
H6 H 0.2800 0.5596 0.7174
C11 C 0.34843(12) 0.50565(11) 0.69153(13)
C12 C 0.36672(14) 0.46667(12) 0.63919(15)
H7 H 0.4038 0.4462 0.6463
C13 C 0.33145(14) 0.45737(14) 0.57706(15)
H8 H 0.3440 0.4304 0.5416
C14 C 0.38819(12) 0.51683(10) 0.75735(13)
C15 C 0.51403(14) 0.38678(11) 0.72879(15)
H9 H 0.5149 0.4186 0.6974
C16 C 0.51460(15) 0.33472(12) 0.69726(15)
H10 H 0.5158 0.3311 0.6451
C17 C 0.51337(12) 0.28723(11) 0.74158(15)
C18 C 0.51275(13) 0.29613(11) 0.81757(16)
H11 H 0.5129 0.2652 0.8505
C19 C 0.51191(12) 0.35001(10) 0.84514(14)
H12 H 0.5110 0.3551 0.8971
C20 C 0.51145(13) 0.23073(11) 0.70895(15)
C21 C 0.45919(13) 0.20291(11) 0.68391(18)
C22 C 0.39373(17) 0.22156(17) 0.6848(4)
H13 H 0.3862 0.2469 0.7270
H14 H 0.3657 0.1891 0.6892
C23 C 0.3819(3) 0.2541(3) 0.6067(6)
H15 H 0.3390 0.2673 0.6048
H16 H 0.3895 0.2285 0.5655
H17 H 0.4099 0.2861 0.6031
C24 C 0.56032(13) 0.19511(11) 0.69328(16)
C25 C 0.62876(17) 0.20337(15) 0.7046(3)
H18 H 0.6512 0.1842 0.6642
H19 H 0.6382 0.2437 0.7011
C26 C 0.6517(3) 0.1822(2) 0.7759(4)
H20 H 0.6962 0.1889 0.7794
H21 H 0.6435 0.1421 0.7793
H22 H 0.6305 0.2016 0.8162
C27 C 0.39200(11) 0.40826(10) 0.96486(13)
C28 C 0.35254(12) 0.37921(10) 0.90818(14)
C29 C 0.36005(13) 0.39050(11) 0.83404(13)
H23 H 0.3899 0.4173 0.8192
C30 C 0.32526(12) 0.36383(11) 0.78102(14)
H24 H 0.3310 0.3722 0.7302
C31 C 0.28211(13) 0.32497(11) 0.80246(14)
C32 C 0.27401(18) 0.31224(16) 0.87525(18)
H25 H 0.2447 0.2848 0.8895
C33 C 0.30910(16) 0.33971(15) 0.92870(16)
H26 H 0.3032 0.3313 0.9795
C34 C 0.21722(12) 0.32739(11) 0.69681(14)
C35 C 0.19393(12) 0.37971(12) 0.71158(14)
H27 H 0.2004 0.3965 0.7584
C36 C 0.16097(12) 0.40750(11) 0.65748(14)
H28 H 0.1442 0.4433 0.6679
C37 C 0.15205(11) 0.38420(10) 0.58858(13)
C38 C 0.17723(13) 0.33198(11) 0.57401(15)
H29 H 0.1727 0.3159 0.5264
C39 C 0.20903(14) 0.30309(11) 0.62858(16)
H30 H 0.2250 0.2669 0.6189
C40 C 0.11419(11) 0.41418(9) 0.53171(12)
N1 N 0.51226(9) 0.39468(8) 0.80215(11)
N2 N 0.53807(10) 0.14897(8) 0.66110(11)
N3 N 0.47591(10) 0.15373(9) 0.65498(13)
O1 O 0.50010(6) 0.53672(6) 0.90343(9)
O2 O 0.24205(9) 0.47917(12) 0.50391(9)
O3 O 0.36840(8) 0.54971(7) 0.80607(9)
O4 O 0.43981(8) 0.49283(7) 0.75952(9)
O5 O 0.42713(8) 0.49963(7) 0.23799(9)
O6 O 0.37170(8) 0.42837(7) 0.19560(9)
O7 O 0.24778(9) 0.29592(9) 0.75015(9)
O9 O 0.43491(7) 0.43956(7) 0.94425(9)
O10 O 0.07482(7) 0.44923(6) 0.55261(9)
O11 O 0.12330(8) 0.39940(7) 0.46546(8)
Zn6 Zn 0.574195(14) 0.421015(12) 0.119359(15)
Zn7 Zn 0.492595(14) 0.524795(12) 0.164556(18)
C41 C 0.61629(11) 0.53481(10) 0.75713(13)
C42 C 0.65573(12) 0.53106(11) 0.68964(12)
C43 C 0.69754(12) 0.57288(13) 0.67126(14)
H31 H 0.7024 0.6042 0.7030
C44 C 0.73228(13) 0.56940(15) 0.60702(14)
H32 H 0.7610 0.5979 0.5947
C45 C 0.72432(12) 0.52381(14) 0.56134(14)
C46 C 0.68418(14) 0.48120(14) 0.57932(15)
H33 H 0.6803 0.4495 0.5482
C47 C 0.64979(14) 0.48526(13) 0.64308(15)
H34 H 0.6216 0.4563 0.6554
C48 C 0.72174(12) 0.51286(14) 0.43338(14)
C49 C 0.74168(13) 0.47462(15) 0.38200(14)
H35 H 0.7789 0.4544 0.3894
C50 C 0.70630(13) 0.46609(13) 0.31899(14)
H36 H 0.7200 0.4404 0.2826
C51 C 0.65157(12) 0.49435(11) 0.30847(13)
C52 C 0.63328(14) 0.53333(12) 0.36081(15)
H37 H 0.5962 0.5538 0.3537
C53 C 0.66855(14) 0.54263(14) 0.42294(15)
H38 H 0.6560 0.5696 0.4584
C54 C 0.61181(12) 0.48317(10) 0.24265(13)
C55 C 0.48597(14) 0.61322(11) 0.27121(15)
H39 H 0.4851 0.5814 0.3026
C56 C 0.48540(15) 0.66528(12) 0.30274(15)
H40 H 0.4842 0.6689 0.3549
C57 C 0.48663(12) 0.71277(11) 0.25842(15)
C58 C 0.48725(13) 0.70387(11) 0.18243(16)
H41 H 0.4871 0.7348 0.1495
C59 C 0.48809(12) 0.64999(10) 0.15486(14)
H42 H 0.4890 0.6449 0.1029
C60 C 0.48855(13) 0.76927(11) 0.29105(15)
C61 C 0.54081(13) 0.79709(11) 0.31609(18)
C62 C 0.60627(17) 0.77844(17) 0.3152(4)
H43 H 0.6138 0.7531 0.2730
H44 H 0.6343 0.8109 0.3108
C63 C 0.6181(3) 0.7459(3) 0.3933(6)
H45 H 0.6610 0.7327 0.3952
H46 H 0.6105 0.7715 0.4345
H47 H 0.5901 0.7139 0.3969
C64 C 0.43968(13) 0.80489(11) 0.30672(16)
C65 C 0.37124(17) 0.79663(15) 0.2954(3)
H48 H 0.3488 0.8158 0.3358
H49 H 0.3618 0.7563 0.2989
C66 C 0.3483(3) 0.8178(2) 0.2241(4)
H50 H 0.3038 0.8111 0.2206
H51 H 0.3565 0.8579 0.2207
H52 H 0.3695 0.7984 0.1838
N4 N 0.48774(9) 0.60532(8) 0.19785(11)
N5 N 0.46193(10) 0.85103(8) 0.33890(11)
N6 N 0.52409(10) 0.84627(9) 0.34502(13)
O13 O 0.75795(9) 0.52083(12) 0.49609(9)
O14 O 0.63160(8) 0.45029(7) 0.19393(9)
O15 O 0.56019(8) 0.50717(7) 0.24048(9)
O16 O 0.57287(8) 0.50037(7) 0.76201(9)
O17 O 0.62830(8) 0.57163(7) 0.80440(9)
O19 O 0.62085(8) 0.60316(8) 0.96830(9)
Zn8 Zn 0.431257(14) 0.087353(12) 0.615561(15)
Zn10 Zn 0.568743(14) 0.912647(12) 0.384439(15)
Zn11 Zn 0.074195(14) 0.421015(12) 0.380641(15)
Zn12 Zn 0.574195(14) 0.078985(12) 0.619359(15)
Zn14 Zn 0.425805(14) 0.921015(12) 0.380641(15)
Zn16 Zn 0.007405(14) 0.475205(12) 0.664556(18)
N7 N 0.46193(10) 0.64897(8) 0.83890(11)
N8 N 0.53807(10) 0.35103(8) 0.16110(11)
N9 N 0.52409(10) 0.65373(9) 0.84502(13)
N10 N 0.47591(10) 0.34627(9) 0.15498(13)
O27 O 0.57482(7) 0.44923(6) 0.94739(9)
O28 O 0.37670(8) 0.60060(7) 0.96546(8)
O29 O 0.62330(8) 0.39940(7) 0.03454(8)
C8_2 C 0.22174(12) 0.51286(14) 0.06662(14)
C9_2 C 0.24168(13) 0.47462(15) 0.11800(14)
H5_2 H 0.2789 0.4544 0.1106
C10_2 C 0.20630(13) 0.46609(13) 0.18101(14)
H6_2 H 0.2200 0.4404 0.2174
C11_2 C 0.15157(12) 0.49435(11) 0.19153(13)
C12_2 C 0.13328(14) 0.53333(12) 0.13919(15)
H7_2 H 0.0962 0.5538 0.1463
C13_2 C 0.16855(14) 0.54263(14) 0.07706(15)
H8_2 H 0.1560 0.5696 0.0416
C14_2 C 0.11181(12) 0.48317(10) 0.25735(13)
C21_2 C 0.04081(13) 0.79709(11) 0.18391(18)
C22_2 C 0.10627(17) 0.77844(17) 0.1848(4)
H13_2 H 0.1138 0.7531 0.2270
H14_2 H 0.1343 0.8109 0.1892
C23_2 C 0.1181(3) 0.7459(3) 0.1067(6)
H15_2 H 0.1610 0.7327 0.1048
H16_2 H 0.1105 0.7715 0.0655
H17_2 H 0.0901 0.7139 0.1031
C27_2 C 0.10800(11) 0.59174(10) 0.46486(13)
C28_2 C 0.14746(12) 0.62079(10) 0.40818(14)
C29_2 C 0.13995(13) 0.60950(11) 0.33404(13)
H23_2 H 0.1101 0.5827 0.3192
C30_2 C 0.17474(12) 0.63617(11) 0.28102(14)
H24_2 H 0.1690 0.6278 0.2302
C31_2 C 0.21789(13) 0.67503(11) 0.30246(14)
C32_2 C 0.22599(18) 0.68776(16) 0.37525(18)
H25_2 H 0.2553 0.7152 0.3895
C33_2 C 0.19090(16) 0.66029(15) 0.42870(16)
H26_2 H 0.1968 0.6687 0.4795
C34_2 C 0.28278(12) 0.67261(11) 0.19681(14)
C35_2 C 0.30607(12) 0.62029(12) 0.21158(14)
H27_2 H 0.2996 0.6035 0.2584
C36_2 C 0.33903(12) 0.59250(11) 0.15748(14)
H28_2 H 0.3558 0.5567 0.1679
C37_2 C 0.34795(11) 0.61580(10) 0.08858(13)
C38_2 C 0.32277(13) 0.66802(11) 0.07401(15)
H29_2 H 0.3273 0.6841 0.0264
C39_2 C 0.29097(14) 0.69691(11) 0.12858(16)
H30_2 H 0.2750 0.7331 0.1189
C40_2 C 0.38581(11) 0.58582(9) 0.03171(12)
N3_2 N 0.02409(10) 0.84627(9) 0.15498(13)
O2_2 O 0.25795(9) 0.52083(12) 0.00391(9)
O3_2 O 0.13160(8) 0.45029(7) 0.30607(9)
O4_2 O 0.06019(8) 0.50717(7) 0.25952(9)
O7_2 O 0.25222(9) 0.70408(9) 0.25015(9)
O8_2 O 0.12085(8) 0.60316(8) 0.53170(9)
O9_2 O 0.06509(7) 0.56044(7) 0.44425(9)
Zn8_2 Zn 0.068743(14) 0.912647(12) 0.115561(15)
Zn9_2 Zn 0.068743(14) 0.587353(12) 0.615561(15)
N7_2 N 0.03807(10) 0.35103(8) 0.33890(11)
O23_2 O 0.00010(6) 0.53672(6) 0.59657(9)
C1_2 C 0.11629(11) 0.53481(10) 0.74287(13)
C2_2 C 0.15573(12) 0.53106(11) 0.81036(12)
C3_2 C 0.19754(12) 0.57288(13) 0.82874(14)
H1_2 H 0.2024 0.6042 0.7970
C4_2 C 0.23228(13) 0.56940(15) 0.89298(14)
H2_2 H 0.2610 0.5979 0.9053
C5_2 C 0.22432(12) 0.52381(14) 0.93866(14)
C6_2 C 0.18418(14) 0.48120(14) 0.92068(15)
H3_2 H 0.1803 0.4495 0.9518
C7_2 C 0.14979(14) 0.48526(13) 0.85692(15)
H4_2 H 0.1216 0.4563 0.8446
O5_2 O 0.07287(8) 0.50037(7) 0.73799(9)
O6_2 O 0.12830(8) 0.57163(7) 0.69560(9)
C55_2 C 0.01403(14) 0.38678(11) 0.77121(15)
H39_2 H 0.0149 0.4186 0.8026
C56_2 C 0.01460(15) 0.33472(12) 0.80274(15)
H40_2 H 0.0158 0.3311 0.8549
C57_2 C 0.01337(12) 0.28723(11) 0.75842(15)
C58_2 C 0.01275(13) 0.29613(11) 0.68243(16)
H41_2 H 0.0129 0.2652 0.6495
C59_2 C 0.01191(12) 0.35001(10) 0.65486(14)
H42_2 H 0.0110 0.3551 0.6029
C60_2 C 0.01145(13) 0.23073(11) 0.79105(15)
C64_2 C 0.06032(13) 0.19511(11) 0.80672(16)
C65_2 C 0.12876(17) 0.20337(15) 0.7954(3)
H48_2 H 0.1512 0.1842 0.8358
H49_2 H 0.1382 0.2437 0.7989
C66_2 C 0.1517(3) 0.1822(2) 0.7241(4)
H50_2 H 0.1962 0.1889 0.7206
H51_2 H 0.1435 0.1421 0.7207
H52_2 H 0.1305 0.2016 0.6838
N4_2 N 0.01226(9) 0.39468(8) 0.69785(11)
N5_2 N 0.03807(10) 0.14897(8) 0.83890(11)
Zn14_2 Zn 0.074195(14) 0.078985(12) 0.880641(15)
N10_2 N 0.02409(10) 0.65373(9) 0.65498(13)
Zn1_2 Zn 0.931257(14) 0.412647(12) 0.384439(15)
C15_2 C 0.98597(14) 0.61322(11) 0.22879(15)
H9_2 H 0.9851 0.5814 0.1974
C16_2 C 0.98540(15) 0.66528(12) 0.19726(15)
H10_2 H 0.9842 0.6689 0.1451
C17_2 C 0.98663(12) 0.71277(11) 0.24158(15)
C18_2 C 0.98725(13) 0.70387(11) 0.31757(16)
H11_2 H 0.9871 0.7348 0.3505
C19_2 C 0.98809(12) 0.64999(10) 0.34514(14)
H12_2 H 0.9890 0.6449 0.3971
C20_2 C 0.98855(13) 0.76927(11) 0.20895(15)
C24_2 C 0.93968(13) 0.80489(11) 0.19328(16)
C25_2 C 0.87124(17) 0.79663(15) 0.2046(3)
H18_2 H 0.8488 0.8158 0.1642
H19_2 H 0.8618 0.7563 0.2011
C26_2 C 0.8483(3) 0.8178(2) 0.2759(4)
H20_2 H 0.8038 0.8111 0.2794
H21_2 H 0.8565 0.8579 0.2793
H22_2 H 0.8695 0.7984 0.3162
N1_2 N 0.98774(9) 0.60532(8) 0.30215(11)
N2_2 N 0.96193(10) 0.85103(8) 0.16110(11)
O1_2 O 0.99990(6) 0.46328(6) 0.40343(9)
C41_2 C 0.88371(11) 0.46519(10) 0.25713(13)
C42_2 C 0.84427(12) 0.46894(11) 0.18964(12)
C43_2 C 0.80246(12) 0.42712(13) 0.17126(14)
H31_2 H 0.7976 0.3958 0.2030
C44_2 C 0.76772(13) 0.43060(15) 0.10702(14)
H32_2 H 0.7390 0.4021 0.0947
C45_2 C 0.77568(12) 0.47619(14) 0.06134(14)
C46_2 C 0.81582(14) 0.51880(14) 0.07932(15)
H33_2 H 0.8197 0.5505 0.0482
C47_2 C 0.85021(14) 0.51474(13) 0.14308(15)
H34_2 H 0.8784 0.5437 0.1554
O16_2 O 0.92713(8) 0.49963(7) 0.26201(9)
O17_2 O 0.87170(8) 0.42837(7) 0.30440(9)
C67_2 C 0.89200(11) 0.40826(10) 0.53514(13)
C68_2 C 0.85254(12) 0.37921(10) 0.59182(14)
C69_2 C 0.86005(13) 0.39050(11) 0.66596(13)
H53_2 H 0.8899 0.4173 0.6808
C70_2 C 0.82526(12) 0.36383(11) 0.71898(14)
H54_2 H 0.8310 0.3722 0.7698
C71_2 C 0.78211(13) 0.32497(11) 0.69754(14)
C72_2 C 0.77401(18) 0.31224(16) 0.62475(18)
H55_2 H 0.7447 0.2848 0.6105
C73_2 C 0.80910(16) 0.33971(15) 0.57130(16)
H56_2 H 0.8032 0.3313 0.5205
C74_2 C 0.71722(12) 0.32739(11) 0.80319(14)
C75_2 C 0.69393(12) 0.37971(12) 0.78842(14)
H57_2 H 0.7004 0.3965 0.7416
C76_2 C 0.66097(12) 0.40750(11) 0.84252(14)
H58_2 H 0.6442 0.4433 0.8321
C77_2 C 0.65205(11) 0.38420(10) 0.91142(13)
C78_2 C 0.67723(13) 0.33198(11) 0.92599(15)
H59_2 H 0.6727 0.3159 0.9736
C79_2 C 0.70903(14) 0.30309(11) 0.87142(16)
H60_2 H 0.7250 0.2669 0.8811
C80_2 C 0.61419(11) 0.41418(9) 0.96829(12)
O18_2 O 0.74778(9) 0.29592(9) 0.74985(9)
O19_2 O 0.87915(8) 0.39684(8) 0.46830(9)
O20_2 O 0.93491(7) 0.43956(7) 0.55575(9)
Zn12_2 Zn 0.925805(14) 0.921015(12) 0.119359(15)
N9_2 N 0.97591(10) 0.34627(9) 0.34502(13)
C48_2 C 0.77826(12) 0.48714(14) 0.93338(14)
C49_2 C 0.75832(13) 0.52538(15) 0.88200(14)
H35_2 H 0.7211 0.5456 0.8894
C50_2 C 0.79370(13) 0.53391(13) 0.81899(14)
H36_2 H 0.7800 0.5596 0.7826
C51_2 C 0.84843(12) 0.50565(11) 0.80847(13)
C52_2 C 0.86672(14) 0.46667(12) 0.86081(15)
H37_2 H 0.9038 0.4462 0.8537
C53_2 C 0.83145(14) 0.45737(14) 0.92294(15)
H38_2 H 0.8440 0.4304 0.9584
C54_2 C 0.88819(12) 0.51683(10) 0.74265(13)
C61_2 C 0.95919(13) 0.20291(11) 0.81609(18)
C62_2 C 0.89373(17) 0.22156(17) 0.8152(4)
H43_2 H 0.8862 0.2469 0.7730
H44_2 H 0.8657 0.1891 0.8108
C63_2 C 0.8819(3) 0.2541(3) 0.8933(6)
H45_2 H 0.8390 0.2673 0.8952
H46_2 H 0.8895 0.2285 0.9345
H47_2 H 0.9099 0.2861 0.8969
N6_2 N 0.97591(10) 0.15373(9) 0.84502(13)
O13_2 O 0.74205(9) 0.47917(12) 0.99609(9)
O14_2 O 0.86840(8) 0.54971(7) 0.69393(9)
O15_2 O 0.93981(8) 0.49283(7) 0.74048(9)
Zn10_2 Zn 0.931257(14) 0.087353(12) 0.884439(15)
N8_2 N 0.96193(10) 0.64897(8) 0.66110(11)
Zn18 Zn 0.0000 0.0000 0.0000
Zn18_2 Zn 0.0000 0.0000 1.0000
Zn18_3 Zn 0.0000 1.0000 0.0000
Zn18_4 Zn 0.0000 1.0000 1.0000
C6_3 C 0.68418(14) 0.01880(14) 0.07932(15)
H3_3 H 0.6803 0.0505 0.0482
C7_3 C 0.64979(14) 0.01474(13) 0.14308(15)
H4_3 H 0.6216 0.0437 0.1554
Zn7_2 Zn 0.507405(14) 0.024795(12) 0.335444(18)
C48_3 C 0.27826(12) 0.01286(14) 0.06662(14)
C52_3 C 0.36672(14) 0.03333(12) 0.13919(15)
H37_3 H 0.4038 0.0538 0.1463
C53_3 C 0.33145(14) 0.04263(14) 0.07706(15)
H38_3 H 0.3440 0.0696 0.0416
C55_3 C 0.51403(14) 0.11322(11) 0.22879(15)
H39_3 H 0.5149 0.0814 0.1974
C56_3 C 0.51460(15) 0.16528(12) 0.19726(15)
H40_3 H 0.5158 0.1689 0.1451
C57_3 C 0.51337(12) 0.21277(11) 0.24158(15)
C58_3 C 0.51275(13) 0.20387(11) 0.31757(16)
H41_3 H 0.5129 0.2348 0.3505
C59_3 C 0.51191(12) 0.14999(10) 0.34514(14)
H42_3 H 0.5110 0.1449 0.3971
C60_3 C 0.51145(13) 0.26927(11) 0.20895(15)
C61_3 C 0.45919(13) 0.29709(11) 0.18391(18)
C62_3 C 0.39373(17) 0.27844(17) 0.1848(4)
H43_3 H 0.3862 0.2531 0.2270
H44_3 H 0.3657 0.3109 0.1892
C63_3 C 0.3819(3) 0.2459(3) 0.1067(6)
H45_3 H 0.3390 0.2327 0.1048
H46_3 H 0.3895 0.2715 0.0655
H47_3 H 0.4099 0.2139 0.1031
C64_3 C 0.56032(13) 0.30489(11) 0.19328(16)
C65_3 C 0.62876(17) 0.29663(15) 0.2046(3)
H48_3 H 0.6512 0.3158 0.1642
H49_3 H 0.6382 0.2563 0.2011
C66_3 C 0.6517(3) 0.3178(2) 0.2759(4)
H50_3 H 0.6962 0.3111 0.2794
H51_3 H 0.6435 0.3579 0.2793
H52_3 H 0.6305 0.2984 0.3162
N4_3 N 0.51226(9) 0.10532(8) 0.30215(11)
O13_3 O 0.24205(9) 0.02083(12) 0.00391(9)
O15_3 O 0.43981(8) 0.00717(7) 0.25952(9)
Zn17 Zn 0.5000 0.0000 0.5000
Zn18_5 Zn 1.0000 0.0000 0.0000
O25 O 0.57482(7) 0.05077(6) 0.44739(9)
C9_3 C 0.74168(13) 0.02538(15) 0.88200(14)
H5_3 H 0.7789 0.0456 0.8894
C10_3 C 0.70630(13) 0.03391(13) 0.81899(14)
H6_3 H 0.7200 0.0596 0.7826
C11_3 C 0.65157(12) 0.00565(11) 0.80847(13)
C14_3 C 0.61181(12) 0.01683(10) 0.74265(13)
O1_3 O 0.49990(6) 0.03672(6) 0.59657(9)
O3_3 O 0.63160(8) 0.04971(7) 0.69393(9)
C41_3 C 0.38371(11) 0.03481(10) 0.74287(13)
C42_3 C 0.34427(12) 0.03106(11) 0.81036(12)
C43_3 C 0.30246(12) 0.07288(13) 0.82874(14)
H31_3 H 0.2976 0.1042 0.7970
C44_3 C 0.26772(13) 0.06940(15) 0.89298(14)
H32_3 H 0.2390 0.0979 0.9053
C45_3 C 0.27568(12) 0.02381(14) 0.93866(14)
O16_3 O 0.42713(8) 0.00037(7) 0.73799(9)
O17_3 O 0.37170(8) 0.07163(7) 0.69560(9)
C67_3 C 0.39200(11) 0.09174(10) 0.46486(13)
C68_3 C 0.35254(12) 0.12079(10) 0.40818(14)
C69_3 C 0.36005(13) 0.10950(11) 0.33404(13)
H53_3 H 0.3899 0.0827 0.3192
C70_3 C 0.32526(12) 0.13617(11) 0.28102(14)
H54_3 H 0.3310 0.1278 0.2302
C71_3 C 0.28211(13) 0.17503(11) 0.30246(14)
C72_3 C 0.27401(18) 0.18776(16) 0.37525(18)
H55_3 H 0.2447 0.2152 0.3895
C73_3 C 0.30910(16) 0.16029(15) 0.42870(16)
H56_3 H 0.3032 0.1687 0.4795
C74_3 C 0.21722(12) 0.17261(11) 0.19681(14)
C75_3 C 0.19393(12) 0.12029(12) 0.21158(14)
H57_3 H 0.2004 0.1035 0.2584
C76_3 C 0.16097(12) 0.09250(11) 0.15748(14)
H58_3 H 0.1442 0.0567 0.1679
C77_3 C 0.15205(11) 0.11580(10) 0.08858(13)
C78_3 C 0.17723(13) 0.16802(11) 0.07401(15)
H59_3 H 0.1727 0.1841 0.0264
C79_3 C 0.20903(14) 0.19691(11) 0.12858(16)
H60_3 H 0.2250 0.2331 0.1189
C80_3 C 0.11419(11) 0.08582(9) 0.03171(12)
O18_3 O 0.24778(9) 0.20408(9) 0.25015(9)
O19_3 O 0.37915(8) 0.10316(8) 0.53170(9)
O20_3 O 0.43491(7) 0.06044(7) 0.44425(9)
O21_2 O 0.07482(7) 0.05077(6) 0.05261(9)
Zn15_2 Zn 0.007405(14) 0.024795(12) 0.164556(18)
Zn18_6 Zn 1.0000 0.0000 1.0000
O28_2 O 0.62330(8) 0.10060(7) 0.53454(8)
O22_2 O 0.12330(8) 0.10060(7) 0.96546(8)
C1_3 C 0.61629(11) 0.96519(10) 0.25713(13)
C2_3 C 0.65573(12) 0.96894(11) 0.18964(12)
C3_3 C 0.69754(12) 0.92712(13) 0.17126(14)
H1_3 H 0.7024 0.8958 0.2030
C4_3 C 0.73228(13) 0.93060(15) 0.10702(14)
H2_3 H 0.7610 0.9021 0.0947
C5_3 C 0.72432(12) 0.97619(14) 0.06134(14)
O5_3 O 0.57287(8) 0.99963(7) 0.26201(9)
O6_3 O 0.62830(8) 0.92837(7) 0.30440(9)
O11_2 O 0.87670(8) 0.89940(7) 0.03454(8)
C49_3 C 0.25832(13) 0.97462(15) 0.11800(14)
H35_3 H 0.2211 0.9544 0.1106
C50_3 C 0.29370(13) 0.96609(13) 0.18101(14)
H36_3 H 0.2800 0.9404 0.2174
C51_3 C 0.34843(12) 0.99435(11) 0.19153(13)
C54_3 C 0.38819(12) 0.98317(10) 0.25735(13)
O12 O 0.50010(6) 0.96328(6) 0.40343(9)
O14_3 O 0.36840(8) 0.95029(7) 0.30607(9)
Zn17_2 Zn 0.5000 1.0000 0.5000
Zn18_7 Zn 1.0000 1.0000 0.0000
O24 O 0.62085(8) 0.89684(8) 0.46830(9)
O29_2 O 0.37670(8) 0.89940(7) 0.46546(8)
Zn3_2 Zn 0.492595(14) 0.975205(12) 0.664556(18)
C8_3 C 0.72174(12) 0.98714(14) 0.93338(14)
C12_3 C 0.63328(14) 0.96667(12) 0.86081(15)
H7_3 H 0.5962 0.9462 0.8537
C13_3 C 0.66855(14) 0.95737(14) 0.92294(15)
H8_3 H 0.6560 0.9304 0.9584
C15_3 C 0.48597(14) 0.88678(11) 0.77121(15)
H9_3 H 0.4851 0.9186 0.8026
C16_3 C 0.48540(15) 0.83472(12) 0.80274(15)
H10_3 H 0.4842 0.8311 0.8549
C17_3 C 0.48663(12) 0.78723(11) 0.75842(15)
C18_3 C 0.48725(13) 0.79613(11) 0.68243(16)
H11_3 H 0.4871 0.7652 0.6495
C19_3 C 0.48809(12) 0.85001(10) 0.65486(14)
H12_3 H 0.4890 0.8551 0.6029
C20_3 C 0.48855(13) 0.73073(11) 0.79105(15)
C21_3 C 0.54081(13) 0.70291(11) 0.81609(18)
C22_3 C 0.60627(17) 0.72156(17) 0.8152(4)
H13_3 H 0.6138 0.7469 0.7730
H14_3 H 0.6343 0.6891 0.8108
C23_3 C 0.6181(3) 0.7541(3) 0.8933(6)
H15_3 H 0.6610 0.7673 0.8952
H16_3 H 0.6105 0.7285 0.9345
H17_3 H 0.5901 0.7861 0.8969
C24_3 C 0.43968(13) 0.69511(11) 0.80672(16)
C25_3 C 0.37124(17) 0.70337(15) 0.7954(3)
H18_3 H 0.3488 0.6842 0.8358
H19_3 H 0.3618 0.7437 0.7989
C26_3 C 0.3483(3) 0.6822(2) 0.7241(4)
H20_3 H 0.3038 0.6889 0.7206
H21_3 H 0.3565 0.6421 0.7207
H22_3 H 0.3695 0.7016 0.6838
C27_3 C 0.60800(11) 0.90826(10) 0.53514(13)
C28_3 C 0.64746(12) 0.87921(10) 0.59182(14)
C29_3 C 0.63995(13) 0.89050(11) 0.66596(13)
H23_3 H 0.6101 0.9173 0.6808
C30_3 C 0.67474(12) 0.86383(11) 0.71898(14)
H24_3 H 0.6690 0.8722 0.7698
C31_3 C 0.71789(13) 0.82497(11) 0.69754(14)
C32_3 C 0.72599(18) 0.81224(16) 0.62475(18)
H25_3 H 0.7553 0.7848 0.6105
C33_3 C 0.69090(16) 0.83971(15) 0.57130(16)
H26_3 H 0.6968 0.8313 0.5205
C34_3 C 0.78278(12) 0.82739(11) 0.80319(14)
C35_3 C 0.80607(12) 0.87971(12) 0.78842(14)
H27_3 H 0.7996 0.8965 0.7416
C36_3 C 0.83903(12) 0.90750(11) 0.84252(14)
H28_3 H 0.8558 0.9433 0.8321
C37_3 C 0.84795(11) 0.88420(10) 0.91142(13)
C38_3 C 0.82277(13) 0.83198(11) 0.92599(15)
H29_3 H 0.8273 0.8159 0.9736
C39_3 C 0.79097(14) 0.80309(11) 0.87142(16)
H30_3 H 0.7750 0.7669 0.8811
C40_3 C 0.88581(11) 0.91418(9) 0.96829(12)
N1_3 N 0.48774(9) 0.89468(8) 0.69785(11)
O2_3 O 0.75795(9) 0.97917(12) 0.99609(9)
O4_3 O 0.56019(8) 0.99283(7) 0.74048(9)
O7_3 O 0.75222(9) 0.79592(9) 0.74985(9)
O9_3 O 0.56509(7) 0.93956(7) 0.55575(9)
O10_2 O 0.92518(7) 0.94923(6) 0.94739(9)
C46_3 C 0.31582(14) 0.98120(14) 0.92068(15)
H33_3 H 0.3197 0.9495 0.9518
C47_3 C 0.35021(14) 0.98526(13) 0.85692(15)
H34_3 H 0.3784 0.9563 0.8446
Zn16_2 Zn 0.992595(14) 0.975205(12) 0.835444(18)
Zn18_8 Zn 1.0000 1.0000 1.0000
O27_2 O 0.42518(7) 0.94923(6) 0.55261(9)
C15_4 C 0.01403(14) 0.11322(11) 0.27121(15)
H9_4 H 0.0149 0.0814 0.3026
C16_4 C 0.01460(15) 0.16528(12) 0.30274(15)
H10_4 H 0.0158 0.1689 0.3549
C17_4 C 0.01337(12) 0.21277(11) 0.25842(15)
C18_4 C 0.01275(13) 0.20387(11) 0.18243(16)
H11_4 H 0.0129 0.2348 0.1495
C19_4 C 0.01191(12) 0.14999(10) 0.15486(14)
H12_4 H 0.0110 0.1449 0.1029
C20_4 C 0.01145(13) 0.26927(11) 0.29105(15)
C24_4 C 0.06032(13) 0.30489(11) 0.30672(16)
C25_4 C 0.12876(17) 0.29663(15) 0.2954(3)
H18_4 H 0.1512 0.3158 0.3358
H19_4 H 0.1382 0.2563 0.2989
C26_4 C 0.1517(3) 0.3178(2) 0.2241(4)
H20_4 H 0.1962 0.3111 0.2206
H21_4 H 0.1435 0.3579 0.2207
H22_4 H 0.1305 0.2984 0.1838
N1_4 N 0.01226(9) 0.10532(8) 0.19785(11)
C46_4 C 0.18418(14) 0.01880(14) 0.42068(15)
H33_4 H 0.1803 0.0505 0.4518
C47_4 C 0.14979(14) 0.01474(13) 0.35692(15)
H34_4 H 0.1216 0.0437 0.3446
C49_4 C 0.24168(13) 0.02538(15) 0.61800(14)
H35_4 H 0.2789 0.0456 0.6106
C50_4 C 0.20630(13) 0.03391(13) 0.68101(14)
H36_4 H 0.2200 0.0596 0.7174
C51_4 C 0.15157(12) 0.00565(11) 0.69153(13)
C54_4 C 0.11181(12) 0.01683(10) 0.75735(13)
O14_4 O 0.13160(8) 0.04971(7) 0.80607(9)
O1_4 O 0.00010(6) 0.96328(6) 0.09657(9)
C41_4 C 0.11629(11) 0.96519(10) 0.24287(13)
C42_4 C 0.15573(12) 0.96894(11) 0.31036(12)
C43_4 C 0.19754(12) 0.92712(13) 0.32874(14)
H31_4 H 0.2024 0.8958 0.2970
C44_4 C 0.23228(13) 0.93060(15) 0.39298(14)
H32_4 H 0.2610 0.9021 0.4053
C45_4 C 0.22432(12) 0.97619(14) 0.43866(14)
C48_4 C 0.22174(12) 0.98714(14) 0.56662(14)
C52_4 C 0.13328(14) 0.96667(12) 0.63919(15)
H37_4 H 0.0962 0.9462 0.6463
C53_4 C 0.16855(14) 0.95737(14) 0.57706(15)
H38_4 H 0.1560 0.9304 0.5416
C61_4 C 0.04081(13) 0.70291(11) 0.68391(18)
C62_4 C 0.10627(17) 0.72156(17) 0.6848(4)
H43_4 H 0.1138 0.7469 0.7270
H44_4 H 0.1343 0.6891 0.6892
C63_4 C 0.1181(3) 0.7541(3) 0.6067(6)
H45_4 H 0.1610 0.7673 0.6048
H46_4 H 0.1105 0.7285 0.5655
H47_4 H 0.0901 0.7861 0.6031
O13_4 O 0.25795(9) 0.97917(12) 0.50391(9)
O15_4 O 0.06019(8) 0.99283(7) 0.75952(9)
O16_4 O 0.07287(8) 0.99963(7) 0.23799(9)
O17_4 O 0.12830(8) 0.92837(7) 0.19560(9)
O19_4 O 0.12085(8) 0.89684(8) 0.03170(9)
C67_4 C 0.10800(11) 0.90826(10) 0.96486(13)
C68_4 C 0.14746(12) 0.87921(10) 0.90818(14)
C69_4 C 0.13995(13) 0.89050(11) 0.83404(13)
H53_4 H 0.1101 0.9173 0.8192
C70_4 C 0.17474(12) 0.86383(11) 0.78102(14)
H54_4 H 0.1690 0.8722 0.7302
C71_4 C 0.21789(13) 0.82497(11) 0.80246(14)
C72_4 C 0.22599(18) 0.81224(16) 0.87525(18)
H55_4 H 0.2553 0.7848 0.8895
C73_4 C 0.19090(16) 0.83971(15) 0.92870(16)
H56_4 H 0.1968 0.8313 0.9795
C74_4 C 0.28278(12) 0.82739(11) 0.69681(14)
C75_4 C 0.30607(12) 0.87971(12) 0.71158(14)
H57_4 H 0.2996 0.8965 0.7584
C76_4 C 0.33903(12) 0.90750(11) 0.65748(14)
H58_4 H 0.3558 0.9433 0.6679
C77_4 C 0.34795(11) 0.88420(10) 0.58858(13)
C78_4 C 0.32277(13) 0.83198(11) 0.57401(15)
H59_4 H 0.3273 0.8159 0.5264
C79_4 C 0.29097(14) 0.80309(11) 0.62858(16)
H60_4 H 0.2750 0.7669 0.6189
C80_4 C 0.38581(11) 0.91418(9) 0.53171(12)
O18_4 O 0.25222(9) 0.79592(9) 0.75015(9)
O20_4 O 0.06509(7) 0.93956(7) 0.94425(9)
C1_4 C 0.88371(11) 0.03481(10) 0.75713(13)
C2_4 C 0.84427(12) 0.03106(11) 0.68964(12)
C3_4 C 0.80246(12) 0.07288(13) 0.67126(14)
H1_4 H 0.7976 0.1042 0.7030
C4_4 C 0.76772(13) 0.06940(15) 0.60702(14)
H2_4 H 0.7390 0.0979 0.5947
C5_4 C 0.77568(12) 0.02381(14) 0.56134(14)
C8_4 C 0.77826(12) 0.01286(14) 0.43338(14)
C12_4 C 0.86672(14) 0.03333(12) 0.36081(15)
H7_4 H 0.9038 0.0538 0.3537
C13_4 C 0.83145(14) 0.04263(14) 0.42294(15)
H8_4 H 0.8440 0.0696 0.4584
C21_4 C 0.95919(13) 0.29709(11) 0.31609(18)
C22_4 C 0.89373(17) 0.27844(17) 0.3152(4)
H13_4 H 0.8862 0.2531 0.2730
H14_4 H 0.8657 0.3109 0.3108
C23_4 C 0.8819(3) 0.2459(3) 0.3933(6)
H15_4 H 0.8390 0.2327 0.3952
H16_4 H 0.8895 0.2715 0.4345
H17_4 H 0.9099 0.2139 0.3969
C27_4 C 0.89200(11) 0.09174(10) 0.03514(13)
C28_4 C 0.85254(12) 0.12079(10) 0.09182(14)
C29_4 C 0.86005(13) 0.10950(11) 0.16596(13)
H23_4 H 0.8899 0.0827 0.1808
C30_4 C 0.82526(12) 0.13617(11) 0.21898(14)
H24_4 H 0.8310 0.1278 0.2698
C31_4 C 0.78211(13) 0.17503(11) 0.19754(14)
C32_4 C 0.77401(18) 0.18776(16) 0.12475(18)
H25_4 H 0.7447 0.2152 0.1105
C33_4 C 0.80910(16) 0.16029(15) 0.07130(16)
H26_4 H 0.8032 0.1687 0.0205
C34_4 C 0.71722(12) 0.17261(11) 0.30319(14)
C35_4 C 0.69393(12) 0.12029(12) 0.28842(14)
H27_4 H 0.7004 0.1035 0.2416
C36_4 C 0.66097(12) 0.09250(11) 0.34252(14)
H28_4 H 0.6442 0.0567 0.3321
C37_4 C 0.65205(11) 0.11580(10) 0.41142(13)
C38_4 C 0.67723(13) 0.16802(11) 0.42599(15)
H29_4 H 0.6727 0.1841 0.4736
C39_4 C 0.70903(14) 0.19691(11) 0.37142(16)
H30_4 H 0.7250 0.2331 0.3811
C40_4 C 0.61419(11) 0.08582(9) 0.46829(12)
O2_4 O 0.74205(9) 0.02083(12) 0.49609(9)
O4_4 O 0.93981(8) 0.00717(7) 0.24048(9)
O5_4 O 0.92713(8) 0.00037(7) 0.76201(9)
O6_4 O 0.87170(8) 0.07163(7) 0.80440(9)
O7_4 O 0.74778(9) 0.20408(9) 0.24985(9)
O9_4 O 0.93491(7) 0.06044(7) 0.05575(9)
O12_2 O 0.99990(6) 0.03672(6) 0.90343(9)
O24_2 O 0.87915(8) 0.10316(8) 0.96830(9)
C6_4 C 0.81582(14) 0.98120(14) 0.57932(15)
H3_4 H 0.8197 0.9495 0.5482
C7_4 C 0.85021(14) 0.98526(13) 0.64308(15)
H4_4 H 0.8784 0.9563 0.6554
C9_4 C 0.75832(13) 0.97462(15) 0.38200(14)
H5_4 H 0.7211 0.9544 0.3894
C10_4 C 0.79370(13) 0.96609(13) 0.31899(14)
H6_4 H 0.7800 0.9404 0.2826
C11_4 C 0.84843(12) 0.99435(11) 0.30847(13)
C14_4 C 0.88819(12) 0.98317(10) 0.24265(13)
O3_4 O 0.86840(8) 0.95029(7) 0.19393(9)
C55_4 C 0.98597(14) 0.88678(11) 0.72879(15)
H39_4 H 0.9851 0.9186 0.6974
C56_4 C 0.98540(15) 0.83472(12) 0.69726(15)
H40_4 H 0.9842 0.8311 0.6451
C57_4 C 0.98663(12) 0.78723(11) 0.74158(15)
C58_4 C 0.98725(13) 0.79613(11) 0.81757(16)
H41_4 H 0.9871 0.7652 0.8505
C59_4 C 0.98809(12) 0.85001(10) 0.84514(14)
H42_4 H 0.9890 0.8551 0.8971
C60_4 C 0.98855(13) 0.73073(11) 0.70895(15)
C64_4 C 0.93968(13) 0.69511(11) 0.69328(16)
C65_4 C 0.87124(17) 0.70337(15) 0.7046(3)
H48_4 H 0.8488 0.6842 0.6642
H49_4 H 0.8618 0.7437 0.7011
C66_4 C 0.8483(3) 0.6822(2) 0.7759(4)
H50_4 H 0.8038 0.6889 0.7794
H51_4 H 0.8565 0.6421 0.7793
H52_4 H 0.8695 0.7016 0.8162
N4_4 N 0.98774(9) 0.89468(8) 0.80215(11)
loop_
_geom_bond_atom_site_label_1
_geom_bond_atom_site_label_2
_geom_bond_site_symmetry_1
_geom_bond_site_symmetry_2
C67 C68 1_555 1_555
C68 C69 1_555 1_555
C69 H53 1_555 1_555
C70 C69 1_555 1_555
H54 C70 1_555 1_555
C71 C70 1_555 1_555
C72 C71 1_555 1_555
H55 C72 1_555 1_555
C73 C68 1_555 1_555
H56 C73 1_555 1_555
C74 C75 1_555 1_555
C75 H57 1_555 1_555
C76 C75 1_555 1_555
H58 C76 1_555 1_555
C77 C76 1_555 1_555
C78 C77 1_555 1_555
H59 C78 1_555 1_555
C79 C74 1_555 1_555
H60 C79 1_555 1_555
C80 C77 1_555 1_555
O18 C71 1_555 1_555
O20 Zn4 1_555 1_555
O21 C80 1_555 1_555
O22 C80 1_555 1_555
Zn9 O8 1_555 1_555
Zn13 O22 1_555 1_555
Zn15 O21 1_555 1_555
Zn19_2 O21 1_555 1_555
O23 Zn4 1_555 1_555
O26 Zn4 1_555 1_555
C67 O20 1_555 1_555
C72 C73 1_555 1_555
C74 O18 1_555 1_555
C78 C79 1_555 1_555
Zn9 O23 1_555 1_555
Zn1 O1 1_555 1_555
Zn2 O1 1_555 1_555
Zn3 N1 1_555 1_555
Zn4_2 O1 1_555 1_555
C1 C2 1_555 1_555
C2 C3 1_555 1_555
C3 H1 1_555 1_555
C4 C3 1_555 1_555
H2 C4 1_555 1_555
C5 C4 1_555 1_555
C6 C5 1_555 1_555
H3 C6 1_555 1_555
C7 C2 1_555 1_555
H4 C7 1_555 1_555
C8 C9 1_555 1_555
C9 H5 1_555 1_555
C10 C9 1_555 1_555
H6 C10 1_555 1_555
C11 C10 1_555 1_555
C12 C11 1_555 1_555
H7 C12 1_555 1_555
C13 C8 1_555 1_555
H8 C13 1_555 1_555
C14 C11 1_555 1_555
C15 H9 1_555 1_555
C16 C15 1_555 1_555
H10 C16 1_555 1_555
C17 C16 1_555 1_555
C18 C17 1_555 1_555
H11 C18 1_555 1_555
C19 C18 1_555 1_555
H12 C19 1_555 1_555
C20 C17 1_555 1_555
C21 C20 1_555 1_555
C22 C21 1_555 1_555
H13 C22 1_555 1_555
H14 C22 1_555 1_555
C23 C22 1_555 1_555
H15 C23 1_555 1_555
H16 C23 1_555 1_555
H17 C23 1_555 1_555
C24 C20 1_555 1_555
C25 C24 1_555 1_555
H18 C25 1_555 1_555
H19 C25 1_555 1_555
C26 C25 1_555 1_555
H20 C26 1_555 1_555
H21 C26 1_555 1_555
H22 C26 1_555 1_555
C27 C28 1_555 1_555
C28 C29 1_555 1_555
C29 H23 1_555 1_555
C30 C29 1_555 1_555
H24 C30 1_555 1_555
C31 C30 1_555 1_555
C32 C31 1_555 1_555
H25 C32 1_555 1_555
C33 C28 1_555 1_555
H26 C33 1_555 1_555
C34 C35 1_555 1_555
C35 H27 1_555 1_555
C36 C35 1_555 1_555
H28 C36 1_555 1_555
C37 C36 1_555 1_555
C38 C37 1_555 1_555
H29 C38 1_555 1_555
C39 C34 1_555 1_555
H30 C39 1_555 1_555
C40 C37 1_555 1_555
N1 C15 1_555 1_555
N2 C24 1_555 1_555
N3 C21 1_555 1_555
O1 Zn3 1_555 1_555
O2 C5 1_555 1_555
O3 Zn2 1_555 1_555
O4 Zn3 1_555 1_555
O5 C1 1_555 1_555
O6 C1 1_555 1_555
O7 C31 1_555 1_555
O9 Zn4_2 1_555 1_555
O10 C40 1_555 1_555
O11 C40 1_555 1_555
Zn9 O6 1_555 1_555
Zn6 O23 1_555 1_555
Zn7 O5 1_555 1_555
C41 C42 1_555 1_555
C42 C43 1_555 1_555
C43 H31 1_555 1_555
C44 C43 1_555 1_555
H32 C44 1_555 1_555
C45 C44 1_555 1_555
C46 C45 1_555 1_555
H33 C46 1_555 1_555
C47 C42 1_555 1_555
H34 C47 1_555 1_555
C48 C49 1_555 1_555
C49 H35 1_555 1_555
C50 C49 1_555 1_555
H36 C50 1_555 1_555
C51 C50 1_555 1_555
C52 C51 1_555 1_555
H37 C52 1_555 1_555
C53 C48 1_555 1_555
H38 C53 1_555 1_555
C54 C51 1_555 1_555
C55 H39 1_555 1_555
C56 C55 1_555 1_555
H40 C56 1_555 1_555
C57 C56 1_555 1_555
C58 C57 1_555 1_555
H41 C58 1_555 1_555
C59 C58 1_555 1_555
H42 C59 1_555 1_555
C60 C57 1_555 1_555
C61 C60 1_555 1_555
C62 C61 1_555 1_555
H43 C62 1_555 1_555
H44 C62 1_555 1_555
C63 C62 1_555 1_555
H45 C63 1_555 1_555
H46 C63 1_555 1_555
H47 C63 1_555 1_555
C64 C60 1_555 1_555
C65 C64 1_555 1_555
H48 C65 1_555 1_555
H49 C65 1_555 1_555
C66 C65 1_555 1_555
H50 C66 1_555 1_555
H51 C66 1_555 1_555
H52 C66 1_555 1_555
N4 Zn7 1_555 1_555
N5 C64 1_555 1_555
N6 C61 1_555 1_555
O13 C45 1_555 1_555
O14 Zn6 1_555 1_555
O15 Zn7 1_555 1_555
O16 Zn3 1_555 1_555
O17 Zn1 1_555 1_555
O19 Zn1 1_555 1_555
Zn8 N3 1_555 1_555
Zn10 N6 1_555 1_555
Zn11 O11 1_555 1_555
Zn12 N2 1_555 1_555
Zn14 N5 1_555 1_555
Zn16 O10 1_555 1_555
Zn19 O10 1_555 1_555
N7 Zn2 1_555 1_555
N8 Zn6 1_555 1_555
N9 Zn1 1_555 1_555
N10 Zn9 1_555 1_555
O26 Zn7 1_555 1_555
O27 Zn3 1_555 1_555
O28 Zn2 1_555 1_555
O29 Zn6 1_555 1_555
Zn4_2 O27 1_555 1_555
C6 C7 1_555 1_555
C8 O2 1_555 1_555
C12 C13 1_555 1_555
C14 O3 1_555 1_555
C14 O4 1_555 1_555
C19 N1 1_555 1_555
C27 O9 1_555 1_555
C32 C33 1_555 1_555
C34 O7 1_555 1_555
C38 C39 1_555 1_555
N2 N3 1_555 1_555
Zn7 O23 1_555 1_555
C41 O16 1_555 1_555
C41 O17 1_555 1_555
C46 C47 1_555 1_555
C48 O13 1_555 1_555
C52 C53 1_555 1_555
C54 O14 1_555 1_555
C54 O15 1_555 1_555
C55 N4 1_555 1_555
C59 N4 1_555 1_555
N5 N6 1_555 1_555
N7 N9 1_555 1_555
N8 N10 1_555 1_555
C8_2 C9_2 1_555 1_555
C9_2 H5_2 1_555 1_555
C10_2 C9_2 1_555 1_555
H6_2 C10_2 1_555 1_555
C11_2 C10_2 1_555 1_555
C12_2 C11_2 1_555 1_555
H7_2 C12_2 1_555 1_555
C13_2 C8_2 1_555 1_555
H8_2 C13_2 1_555 1_555
C14_2 C11_2 1_555 1_555
C22_2 C21_2 1_555 1_555
H13_2 C22_2 1_555 1_555
H14_2 C22_2 1_555 1_555
C23_2 C22_2 1_555 1_555
H15_2 C23_2 1_555 1_555
H16_2 C23_2 1_555 1_555
H17_2 C23_2 1_555 1_555
C27_2 C28_2 1_555 1_555
C28_2 C29_2 1_555 1_555
C29_2 H23_2 1_555 1_555
C30_2 C29_2 1_555 1_555
H24_2 C30_2 1_555 1_555
C31_2 C30_2 1_555 1_555
C32_2 C31_2 1_555 1_555
H25_2 C32_2 1_555 1_555
C33_2 C28_2 1_555 1_555
H26_2 C33_2 1_555 1_555
C34_2 C35_2 1_555 1_555
C35_2 H27_2 1_555 1_555
C36_2 C35_2 1_555 1_555
H28_2 C36_2 1_555 1_555
C37_2 C36_2 1_555 1_555
C38_2 C37_2 1_555 1_555
H29_2 C38_2 1_555 1_555
C39_2 C34_2 1_555 1_555
H30_2 C39_2 1_555 1_555
C40_2 C37_2 1_555 1_555
N3_2 C21_2 1_555 1_555
O3_2 Zn11 1_555 1_555
O7_2 C31_2 1_555 1_555
O8_2 C27_2 1_555 1_555
O9_2 Zn19 1_555 1_555
O26 C40_2 1_555 1_555
Zn8_2 N3_2 1_555 1_555
Zn9_2 O8_2 1_555 1_555
N7_2 Zn11 1_555 1_555
O23_2 Zn19 1_555 1_555
C8_2 O2_2 1_555 1_555
C12_2 C13_2 1_555 1_555
C14_2 O3_2 1_555 1_555
C14_2 O4_2 1_555 1_555
C27_2 O9_2 1_555 1_555
C32_2 C33_2 1_555 1_555
C34_2 O7_2 1_555 1_555
C38_2 C39_2 1_555 1_555
Zn9_2 O23_2 1_555 1_555
C1_2 C2_2 1_555 1_555
C2_2 C3_2 1_555 1_555
C3_2 H1_2 1_555 1_555
C4_2 C3_2 1_555 1_555
H2_2 C4_2 1_555 1_555
C5_2 C4_2 1_555 1_555
C6_2 C5_2 1_555 1_555
H3_2 C6_2 1_555 1_555
C7_2 C2_2 1_555 1_555
H4_2 C7_2 1_555 1_555
O5_2 C1_2 1_555 1_555
O6_2 C1_2 1_555 1_555
Zn9_2 O6_2 1_555 1_555
Zn16 O5_2 1_555 1_555
C55_2 H39_2 1_555 1_555
C56_2 C55_2 1_555 1_555
H40_2 C56_2 1_555 1_555
C57_2 C56_2 1_555 1_555
C58_2 C57_2 1_555 1_555
H41_2 C58_2 1_555 1_555
C59_2 C58_2 1_555 1_555
H42_2 C59_2 1_555 1_555
C60_2 C57_2 1_555 1_555
C64_2 C60_2 1_555 1_555
C65_2 C64_2 1_555 1_555
H48_2 C65_2 1_555 1_555
H49_2 C65_2 1_555 1_555
C66_2 C65_2 1_555 1_555
H50_2 C66_2 1_555 1_555
H51_2 C66_2 1_555 1_555
H52_2 C66_2 1_555 1_555
N4_2 Zn16 1_555 1_555
N5_2 C64_2 1_555 1_555
Zn14_2 N5_2 1_555 1_555
N10_2 Zn9_2 1_555 1_555
C6_2 C7_2 1_555 1_555
Zn16 O23_2 1_555 1_555
C55_2 N4_2 1_555 1_555
C59_2 N4_2 1_555 1_555
Zn1_2 O1_2 1_555 1_555
Zn15 N1_2 1_555 1_555
Zn19_2 O1_2 1_555 1_555
C15_2 H9_2 1_555 1_555
C16_2 C15_2 1_555 1_555
H10_2 C16_2 1_555 1_555
C17_2 C16_2 1_555 1_555
C18_2 C17_2 1_555 1_555
H11_2 C18_2 1_555 1_555
C19_2 C18_2 1_555 1_555
H12_2 C19_2 1_555 1_555
C20_2 C17_2 1_555 1_555
C24_2 C20_2 1_555 1_555
C25_2 C24_2 1_555 1_555
H18_2 C25_2 1_555 1_555
H19_2 C25_2 1_555 1_555
C26_2 C25_2 1_555 1_555
H20_2 C26_2 1_555 1_555
H21_2 C26_2 1_555 1_555
H22_2 C26_2 1_555 1_555
N1_2 C15_2 1_555 1_555
N2_2 C24_2 1_555 1_555
O1_2 Zn15 1_555 1_555
C41_2 C42_2 1_555 1_555
C42_2 C43_2 1_555 1_555
C43_2 H31_2 1_555 1_555
C44_2 C43_2 1_555 1_555
H32_2 C44_2 1_555 1_555
C45_2 C44_2 1_555 1_555
C46_2 C45_2 1_555 1_555
H33_2 C46_2 1_555 1_555
C47_2 C42_2 1_555 1_555
H34_2 C47_2 1_555 1_555
O16_2 Zn15 1_555 1_555
O17_2 Zn1_2 1_555 1_555
C67_2 C68_2 1_555 1_555
C68_2 C69_2 1_555 1_555
C69_2 H53_2 1_555 1_555
C70_2 C69_2 1_555 1_555
H54_2 C70_2 1_555 1_555
C71_2 C70_2 1_555 1_555
C72_2 C71_2 1_555 1_555
H55_2 C72_2 1_555 1_555
C73_2 C68_2 1_555 1_555
H56_2 C73_2 1_555 1_555
C74_2 C75_2 1_555 1_555
C75_2 H57_2 1_555 1_555
C76_2 C75_2 1_555 1_555
H58_2 C76_2 1_555 1_555
C77_2 C76_2 1_555 1_555
C78_2 C77_2 1_555 1_555
H59_2 C78_2 1_555 1_555
C79_2 C74_2 1_555 1_555
H60_2 C79_2 1_555 1_555
C80_2 C77_2 1_555 1_555
O18_2 C71_2 1_555 1_555
O19_2 Zn1_2 1_555 1_555
O20_2 Zn19_2 1_555 1_555
O27 C80_2 1_555 1_555
Zn12_2 N2_2 1_555 1_555
N9_2 Zn1_2 1_555 1_555
C19_2 N1_2 1_555 1_555
C41_2 O16_2 1_555 1_555
C41_2 O17_2 1_555 1_555
C46_2 C47_2 1_555 1_555
C67_2 O19_2 1_555 1_555
C67_2 O20_2 1_555 1_555
C72_2 C73_2 1_555 1_555
C74_2 O18_2 1_555 1_555
C78_2 C79_2 1_555 1_555
C48_2 C49_2 1_555 1_555
C49_2 H35_2 1_555 1_555
C50_2 C49_2 1_555 1_555
H36_2 C50_2 1_555 1_555
C51_2 C50_2 1_555 1_555
C52_2 C51_2 1_555 1_555
H37_2 C52_2 1_555 1_555
C53_2 C48_2 1_555 1_555
H38_2 C53_2 1_555 1_555
C54_2 C51_2 1_555 1_555
C62_2 C61_2 1_555 1_555
H43_2 C62_2 1_555 1_555
H44_2 C62_2 1_555 1_555
C63_2 C62_2 1_555 1_555
H45_2 C63_2 1_555 1_555
H46_2 C63_2 1_555 1_555
H47_2 C63_2 1_555 1_555
N6_2 C61_2 1_555 1_555
O14_2 Zn13 1_555 1_555
Zn10_2 N6_2 1_555 1_555
N8_2 Zn13 1_555 1_555
C48_2 O13_2 1_555 1_555
C52_2 C53_2 1_555 1_555
C54_2 O14_2 1_555 1_555
C54_2 O15_2 1_555 1_555
H3_3 C6_3 1_555 1_555
H4_3 C7_3 1_555 1_555
H37_3 C52_3 1_555 1_555
C53_3 C48_3 1_555 1_555
H38_3 C53_3 1_555 1_555
C55_3 H39_3 1_555 1_555
C56_3 C55_3 1_555 1_555
H40_3 C56_3 1_555 1_555
C57_3 C56_3 1_555 1_555
C58_3 C57_3 1_555 1_555
H41_3 C58_3 1_555 1_555
C59_3 C58_3 1_555 1_555
H42_3 C59_3 1_555 1_555
C60_3 C57_3 1_555 1_555
C61_3 C60_3 1_555 1_555
C62_3 C61_3 1_555 1_555
H43_3 C62_3 1_555 1_555
H44_3 C62_3 1_555 1_555
C63_3 C62_3 1_555 1_555
H45_3 C63_3 1_555 1_555
H46_3 C63_3 1_555 1_555
H47_3 C63_3 1_555 1_555
C64_3 C60_3 1_555 1_555
C65_3 C64_3 1_555 1_555
H48_3 C65_3 1_555 1_555
H49_3 C65_3 1_555 1_555
C66_3 C65_3 1_555 1_555
H50_3 C66_3 1_555 1_555
H51_3 C66_3 1_555 1_555
H52_3 C66_3 1_555 1_555
N4_3 Zn7_2 1_555 1_555
N8 C64_3 1_555 1_555
N10 C61_3 1_555 1_555
O15_3 Zn7_2 1_555 1_555
O25 Zn7_2 1_555 1_555
C6_3 C7_3 1_555 1_555
C48_3 O13_3 1_555 1_555
C52_3 C53_3 1_555 1_555
C55_3 N4_3 1_555 1_555
C59_3 N4_3 1_555 1_555
Zn17 O25 1_555 1_555
Zn8 O1_3 1_555 1_555
Zn12 O1_3 1_555 1_555
Zn17 O1_3 1_555 1_555
C9_3 H5_3 1_555 1_555
C10_3 C9_3 1_555 1_555
H6_3 C10_3 1_555 1_555
C11_3 C10_3 1_555 1_555
C14_3 C11_3 1_555 1_555
O3_3 Zn12 1_555 1_555
C41_3 C42_3 1_555 1_555
C42_3 C43_3 1_555 1_555
C43_3 H31_3 1_555 1_555
C44_3 C43_3 1_555 1_555
H32_3 C44_3 1_555 1_555
C45_3 C44_3 1_555 1_555
O17_3 Zn8 1_555 1_555
C67_3 C68_3 1_555 1_555
C68_3 C69_3 1_555 1_555
C69_3 H53_3 1_555 1_555
C70_3 C69_3 1_555 1_555
H54_3 C70_3 1_555 1_555
C71_3 C70_3 1_555 1_555
C72_3 C71_3 1_555 1_555
H55_3 C72_3 1_555 1_555
C73_3 C68_3 1_555 1_555
H56_3 C73_3 1_555 1_555
C74_3 C75_3 1_555 1_555
C75_3 H57_3 1_555 1_555
C76_3 C75_3 1_555 1_555
H58_3 C76_3 1_555 1_555
C77_3 C76_3 1_555 1_555
C78_3 C77_3 1_555 1_555
H59_3 C78_3 1_555 1_555
C79_3 C74_3 1_555 1_555
H60_3 C79_3 1_555 1_555
C80_3 C77_3 1_555 1_555
O18_3 C71_3 1_555 1_555
O19_3 Zn8 1_555 1_555
O20_3 Zn17 1_555 1_555
O21_2 C80_3 1_555 1_555
Zn15_2 O21_2 1_555 1_555
Zn18 O21_2 1_555 1_555
O28_2 Zn12 1_555 1_555
C14_3 O3_3 1_555 1_555
C41_3 O16_3 1_555 1_555
C41_3 O17_3 1_555 1_555
C67_3 O19_3 1_555 1_555
C67_3 O20_3 1_555 1_555
C72_3 C73_3 1_555 1_555
C74_3 O18_3 1_555 1_555
C78_3 C79_3 1_555 1_555
Zn14_2 O22_2 1_555 1_555
C1_3 C2_3 1_555 1_555
C2_3 C3_3 1_555 1_555
C3_3 H1_3 1_555 1_555
C4_3 C3_3 1_555 1_555
H2_3 C4_3 1_555 1_555
C5_3 C4_3 1_555 1_555
O5_3 C1_3 1_555 1_555
O6_3 C1_3 1_555 1_555
Zn10 O6_3 1_555 1_555
Zn14 O12 1_555 1_555
C49_3 H35_3 1_555 1_555
C50_3 C49_3 1_555 1_555
H36_3 C50_3 1_555 1_555
C51_3 C50_3 1_555 1_555
C54_3 C51_3 1_555 1_555
O12 Zn10 1_555 1_555
O14_3 Zn14 1_555 1_555
Zn12_2 O11_2 1_555 1_555
Zn17_2 O12 1_555 1_555
O24 Zn10 1_555 1_555
O29_2 Zn14 1_555 1_555
C54_3 O14_3 1_555 1_555
Zn3_2 N1_3 1_555 1_555
H7_3 C12_3 1_555 1_555
C13_3 C8_3 1_555 1_555
H8_3 C13_3 1_555 1_555
C15_3 H9_3 1_555 1_555
C16_3 C15_3 1_555 1_555
H10_3 C16_3 1_555 1_555
C17_3 C16_3 1_555 1_555
C18_3 C17_3 1_555 1_555
H11_3 C18_3 1_555 1_555
C19_3 C18_3 1_555 1_555
H12_3 C19_3 1_555 1_555
C20_3 C17_3 1_555 1_555
C21_3 C20_3 1_555 1_555
C22_3 C21_3 1_555 1_555
H13_3 C22_3 1_555 1_555
H14_3 C22_3 1_555 1_555
C23_3 C22_3 1_555 1_555
H15_3 C23_3 1_555 1_555
H16_3 C23_3 1_555 1_555
H17_3 C23_3 1_555 1_555
C24_3 C20_3 1_555 1_555
C25_3 C24_3 1_555 1_555
H18_3 C25_3 1_555 1_555
H19_3 C25_3 1_555 1_555
C26_3 C25_3 1_555 1_555
H20_3 C26_3 1_555 1_555
H21_3 C26_3 1_555 1_555
H22_3 C26_3 1_555 1_555
C27_3 C28_3 1_555 1_555
C28_3 C29_3 1_555 1_555
C29_3 H23_3 1_555 1_555
C30_3 C29_3 1_555 1_555
H24_3 C30_3 1_555 1_555
C31_3 C30_3 1_555 1_555
C32_3 C31_3 1_555 1_555
H25_3 C32_3 1_555 1_555
C33_3 C28_3 1_555 1_555
H26_3 C33_3 1_555 1_555
C34_3 C35_3 1_555 1_555
C35_3 H27_3 1_555 1_555
C36_3 C35_3 1_555 1_555
H28_3 C36_3 1_555 1_555
C37_3 C36_3 1_555 1_555
C38_3 C37_3 1_555 1_555
H29_3 C38_3 1_555 1_555
C39_3 C34_3 1_555 1_555
H30_3 C39_3 1_555 1_555
C40_3 C37_3 1_555 1_555
N1_3 C15_3 1_555 1_555
N7 C24_3 1_555 1_555
N9 C21_3 1_555 1_555
O4_3 Zn3_2 1_555 1_555
O7_3 C31_3 1_555 1_555
O24 C27_3 1_555 1_555
O9_3 Zn17_2 1_555 1_555
O10_2 C40_3 1_555 1_555
H33_3 C46_3 1_555 1_555
H34_3 C47_3 1_555 1_555
Zn16_2 O10_2 1_555 1_555
Zn18_8 O10_2 1_555 1_555
O27_2 Zn3_2 1_555 1_555
Zn17_2 O27_2 1_555 1_555
C8_3 O2_3 1_555 1_555
C12_3 C13_3 1_555 1_555
C19_3 N1_3 1_555 1_555
C27_3 O9_3 1_555 1_555
C32_3 C33_3 1_555 1_555
C34_3 O7_3 1_555 1_555
C38_3 C39_3 1_555 1_555
C46_3 C47_3 1_555 1_555
Zn15_2 N1_4 1_555 1_555
C15_4 H9_4 1_555 1_555
C16_4 C15_4 1_555 1_555
H10_4 C16_4 1_555 1_555
C17_4 C16_4 1_555 1_555
C18_4 C17_4 1_555 1_555
H11_4 C18_4 1_555 1_555
C19_4 C18_4 1_555 1_555
H12_4 C19_4 1_555 1_555
C20_4 C17_4 1_555 1_555
C24_4 C20_4 1_555 1_555
C25_4 C24_4 1_555 1_555
H18_4 C25_4 1_555 1_555
H19_4 C25_4 1_555 1_555
C26_4 C25_4 1_555 1_555
H20_4 C26_4 1_555 1_555
H21_4 C26_4 1_555 1_555
H22_4 C26_4 1_555 1_555
N1_4 C15_4 1_555 1_555
N7_2 C24_4 1_555 1_555
H33_4 C46_4 1_555 1_555
H34_4 C47_4 1_555 1_555
C49_4 H35_4 1_555 1_555
C50_4 C49_4 1_555 1_555
H36_4 C50_4 1_555 1_555
C51_4 C50_4 1_555 1_555
C54_4 C51_4 1_555 1_555
O14_4 Zn14_2 1_555 1_555
C19_4 N1_4 1_555 1_555
C46_4 C47_4 1_555 1_555
C54_4 O14_4 1_555 1_555
Zn8_2 O1_4 1_555 1_555
Zn18_3 O1_4 1_555 1_555
C41_4 C42_4 1_555 1_555
C42_4 C43_4 1_555 1_555
C43_4 H31_4 1_555 1_555
C44_4 C43_4 1_555 1_555
H32_4 C44_4 1_555 1_555
C45_4 C44_4 1_555 1_555
H37_4 C52_4 1_555 1_555
C53_4 C48_4 1_555 1_555
H38_4 C53_4 1_555 1_555
C62_4 C61_4 1_555 1_555
H43_4 C62_4 1_555 1_555
H44_4 C62_4 1_555 1_555
C63_4 C62_4 1_555 1_555
H45_4 C63_4 1_555 1_555
H46_4 C63_4 1_555 1_555
H47_4 C63_4 1_555 1_555
N10_2 C61_4 1_555 1_555
O13_4 C45_4 1_555 1_555
O17_4 Zn8_2 1_555 1_555
O19_4 Zn8_2 1_555 1_555
C41_4 O16_4 1_555 1_555
C41_4 O17_4 1_555 1_555
C48_4 O13_4 1_555 1_555
C52_4 C53_4 1_555 1_555
C67_4 C68_4 1_555 1_555
C68_4 C69_4 1_555 1_555
C69_4 H53_4 1_555 1_555
C70_4 C69_4 1_555 1_555
H54_4 C70_4 1_555 1_555
C71_4 C70_4 1_555 1_555
C72_4 C71_4 1_555 1_555
H55_4 C72_4 1_555 1_555
C73_4 C68_4 1_555 1_555
H56_4 C73_4 1_555 1_555
C74_4 C75_4 1_555 1_555
C75_4 H57_4 1_555 1_555
C76_4 C75_4 1_555 1_555
H58_4 C76_4 1_555 1_555
C77_4 C76_4 1_555 1_555
C78_4 C77_4 1_555 1_555
H59_4 C78_4 1_555 1_555
C79_4 C74_4 1_555 1_555
H60_4 C79_4 1_555 1_555
C80_4 C77_4 1_555 1_555
O18_4 C71_4 1_555 1_555
O20_4 Zn18_4 1_555 1_555
O27_2 C80_4 1_555 1_555
O29_2 C80_4 1_555 1_555
C67_4 O20_4 1_555 1_555
C72_4 C73_4 1_555 1_555
C74_4 O18_4 1_555 1_555
C78_4 C79_4 1_555 1_555
C1_4 C2_4 1_555 1_555
C2_4 C3_4 1_555 1_555
C3_4 H1_4 1_555 1_555
C4_4 C3_4 1_555 1_555
H2_4 C4_4 1_555 1_555
C5_4 C4_4 1_555 1_555
H7_4 C12_4 1_555 1_555
C13_4 C8_4 1_555 1_555
H8_4 C13_4 1_555 1_555
C22_4 C21_4 1_555 1_555
H13_4 C22_4 1_555 1_555
H14_4 C22_4 1_555 1_555
C23_4 C22_4 1_555 1_555
H15_4 C23_4 1_555 1_555
H16_4 C23_4 1_555 1_555
H17_4 C23_4 1_555 1_555
C27_4 C28_4 1_555 1_555
C28_4 C29_4 1_555 1_555
C29_4 H23_4 1_555 1_555
C30_4 C29_4 1_555 1_555
H24_4 C30_4 1_555 1_555
C31_4 C30_4 1_555 1_555
C32_4 C31_4 1_555 1_555
H25_4 C32_4 1_555 1_555
C33_4 C28_4 1_555 1_555
H26_4 C33_4 1_555 1_555
C34_4 C35_4 1_555 1_555
C35_4 H27_4 1_555 1_555
C36_4 C35_4 1_555 1_555
H28_4 C36_4 1_555 1_555
C37_4 C36_4 1_555 1_555
C38_4 C37_4 1_555 1_555
H29_4 C38_4 1_555 1_555
C39_4 C34_4 1_555 1_555
H30_4 C39_4 1_555 1_555
C40_4 C37_4 1_555 1_555
N9_2 C21_4 1_555 1_555
O2_4 C5_4 1_555 1_555
O5_4 C1_4 1_555 1_555
O6_4 C1_4 1_555 1_555
O7_4 C31_4 1_555 1_555
O9_4 Zn18_5 1_555 1_555
O25 C40_4 1_555 1_555
O28_2 C40_4 1_555 1_555
Zn10_2 O6_4 1_555 1_555
O12_2 Zn10_2 1_555 1_555
Zn18_6 O12_2 1_555 1_555
O24_2 Zn10_2 1_555 1_555
C8_4 O2_4 1_555 1_555
C12_4 C13_4 1_555 1_555
C27_4 O9_4 1_555 1_555
C32_4 C33_4 1_555 1_555
C34_4 O7_4 1_555 1_555
C38_4 C39_4 1_555 1_555
H3_4 C6_4 1_555 1_555
H4_4 C7_4 1_555 1_555
C9_4 H5_4 1_555 1_555
C10_4 C9_4 1_555 1_555
H6_4 C10_4 1_555 1_555
C11_4 C10_4 1_555 1_555
C14_4 C11_4 1_555 1_555
O3_4 Zn12_2 1_555 1_555
C55_4 H39_4 1_555 1_555
C56_4 C55_4 1_555 1_555
H40_4 C56_4 1_555 1_555
C57_4 C56_4 1_555 1_555
C58_4 C57_4 1_555 1_555
H41_4 C58_4 1_555 1_555
C59_4 C58_4 1_555 1_555
H42_4 C59_4 1_555 1_555
C60_4 C57_4 1_555 1_555
C64_4 C60_4 1_555 1_555
C65_4 C64_4 1_555 1_555
H48_4 C65_4 1_555 1_555
H49_4 C65_4 1_555 1_555
C66_4 C65_4 1_555 1_555
H50_4 C66_4 1_555 1_555
H51_4 C66_4 1_555 1_555
H52_4 C66_4 1_555 1_555
N4_4 Zn16_2 1_555 1_555
N8_2 C64_4 1_555 1_555
C6_4 C7_4 1_555 1_555
C14_4 O3_4 1_555 1_555
C55_4 N4_4 1_555 1_555
C59_4 N4_4 1_555 1_555

#END
