
###############################################################################
#
# This file contains modified crystal structure data generated from the
# MOF subset of the Cambridge Structural Database (CSD) v543 
# hosted by the Cambridge Crystallographic Data Centre (CCDC).
#
# This work is licensed under the Creative Commons
# Attribution-NonCommercial-ShareAlike 4.0 International License.
# To view a copy of this license, visit
# http://creativecommons.org/licenses/by-nc-sa/4.0/
# or send a letter to
# Creative Commons, PO Box 1866, Mountain View, CA 94042, USA.
#
# CIF created using the CSD Python API on 29 September 2022
# The structure has been converted into the P1 space group
# The structure has a 3D framework
# The original CSD entry RIPKIM is in the monoclinic crystal system
# The framework has been calculated to contain at least 10.0% void space
# The void calculation uses a probe of radius 1.32A, grid spacing 0.4
#
###############################################################################

data_RIPKIM
_chemical_formula_moiety         '(C96 H104 Cu8 N16 O32)n'
_symmetry_cell_setting           triclinic
_symmetry_space_group_name_H-M   'P 1'
_symmetry_Int_Tables_number      1
_space_group_name_Hall           'P 1'
loop_
_symmetry_equiv_pos_site_id
_symmetry_equiv_pos_as_xyz
1 x,y,z
_cell_length_a                   28.642(2)
_cell_length_b                   13.1862(11)
_cell_length_c                   8.5395(6)
_cell_angle_alpha                90
_cell_angle_beta                 91.660(5)
_cell_angle_gamma                90
_cell_volume                     3223.84
loop_
_atom_site_label
_atom_site_type_symbol
_atom_site_fract_x
_atom_site_fract_y
_atom_site_fract_z
H1 H 0.3233 0.0099 0.3914
C2 C 0.38013(16) 0.0272(4) 0.2630(6)
H2 H 0.3800 0.0977 0.2639
C6 C 0.45244(15) 0.0304(4) 0.1032(5)
C7 C 0.45207(18) 0.1425(4) 0.1080(7)
H5 H 0.4781 0.1682 0.0518
H6 H 0.4544 0.1649 0.2149
H7 H 0.4235 0.1671 0.0605
C12 C 0.21414(14) 0.0803(3) 0.0696(5)
O2 O 0.18905(10) 0.1562(2) 0.0902(4)
O4 O 0.25419(11) 0.0812(2) 0.0139(4)
H23 H 0.7631 0.1140 0.0118
H24 H 0.8125 0.0973 0.0917
Cu5 Cu 0.21191(2) 0.29465(4) 0.04748(5)
C13 C 0.65394(16) 0.0262(4) 0.6607(6)
C15 C 0.58558(15) 0.0247(4) 0.8148(5)
C16 C 0.58817(18) 0.1292(4) 0.8159(6)
H16 H 0.5661 0.1672 0.8682
C17 C 0.62355(18) 0.1769(4) 0.7390(6)
H17 H 0.6252 0.2473 0.7431
N3 N 0.65567(12) 0.1269(3) 0.6584(4)
N4 N 0.51797(14) 0.0265(3) 0.9631(5)
C20 C 0.78984(15) 0.2346(3) 0.7682(5)
C21 C 0.81279(16) 0.2111(3) 0.9256(5)
H21 H 0.8464 0.2089 0.9147
H22 H 0.8058 0.2651 0.9985
C22 C 0.79626(16) 0.1099(3) 0.9924(5)
C23 C 0.80516(16) 0.0217(3) 0.8804(5)
H25 H 0.8386 0.0150 0.8688
H26 H 0.7916 0.0386 0.7784
O5 O 0.81441(11) 0.2781(3) 0.6671(4)
O7 O 0.74800(11) 0.2084(2) 0.7473(4)
Cu2 Cu 0.71191(2) 0.20535(4) 0.54748(5)
O9 O 0.68559(11) 0.2219(3) 0.3329(4)
O12 O 0.68905(10) 0.3438(2) 0.5902(4)
O13 O 0.74581(11) 0.0812(2) 0.4861(4)
Cu4 Cu 0.78809(2) 0.29465(4) 0.45252(5)
Cu6 Cu 0.28809(2) 0.20535(4) 0.95252(5)
C1 C 0.34606(16) 0.9738(4) 0.3393(6)
C3 C 0.41442(15) 0.9753(4) 0.1852(5)
C4 C 0.41183(18) 0.8708(4) 0.1841(6)
H3 H 0.4339 0.8328 0.1318
C5 C 0.37645(18) 0.8231(4) 0.2610(6)
H4 H 0.3748 0.7527 0.2569
C8 C 0.21016(15) 0.7654(3) 0.2318(5)
C9 C 0.18721(16) 0.7889(3) 0.0744(5)
H8 H 0.1536 0.7911 0.0853
H9 H 0.1942 0.7349 0.0015
C10 C 0.20374(16) 0.8901(3) 0.0076(5)
C11 C 0.19484(16) 0.9783(3) 0.1196(5)
H12 H 0.1614 0.9850 0.1312
H13 H 0.2084 0.9614 0.2216
N1 N 0.34433(12) 0.8731(3) 0.3416(4)
N2 N 0.48203(14) 0.9735(3) 0.0369(5)
O1 O 0.18559(11) 0.7219(3) 0.3329(4)
O3 O 0.25200(11) 0.7916(2) 0.2527(4)
Cu1 Cu 0.28809(2) 0.79465(4) 0.45252(5)
O10 O 0.31441(11) 0.7781(3) 0.6671(4)
O11 O 0.31095(10) 0.6562(2) 0.4098(4)
O14 O 0.25419(11) 0.9188(2) 0.5139(4)
Cu3 Cu 0.71191(2) 0.79465(4) 0.04748(5)
Cu7 Cu 0.21191(2) 0.70535(4) 0.54748(5)
H10 H 0.2369 0.8860 0.9882
H11 H 0.1875 0.9027 0.9083
H14 H 0.6767 0.9901 0.6086
C14 C 0.61987(16) 0.9728(4) 0.7370(6)
H15 H 0.6200 0.9023 0.7361
C18 C 0.54756(15) 0.9696(4) 0.8968(5)
C19 C 0.54793(18) 0.8575(4) 0.8920(7)
H18 H 0.5219 0.8318 0.9482
H19 H 0.5456 0.8351 0.7851
H20 H 0.5765 0.8329 0.9395
C24 C 0.78586(14) 0.9197(3) 0.9304(5)
O6 O 0.81095(10) 0.8438(2) 0.9098(4)
O8 O 0.74581(11) 0.9188(2) 0.9861(4)
Cu8 Cu 0.78809(2) 0.70535(4) 0.95252(5)
O9_2 O 0.31441(11) 0.2219(3) 0.1671(4)
H1_2 H 0.6767 0.0099 0.1086
C2_2 C 0.61987(16) 0.0272(4) 0.2370(6)
H2_2 H 0.6200 0.0977 0.2361
C6_2 C 0.54756(15) 0.0304(4) 0.3968(5)
C7_2 C 0.54793(18) 0.1425(4) 0.3920(7)
H5_2 H 0.5219 0.1682 0.4482
H6_2 H 0.5456 0.1649 0.2851
H7_2 H 0.5765 0.1671 0.4395
C12_2 C 0.78586(14) 0.0803(3) 0.4304(5)
O2_2 O 0.81095(10) 0.1562(2) 0.4098(4)
C13_2 C 0.34606(16) 0.0262(4) 0.8393(6)
C15_2 C 0.41442(15) 0.0247(4) 0.6852(5)
C16_2 C 0.41183(18) 0.1292(4) 0.6841(6)
H16_2 H 0.4339 0.1672 0.6318
C17_2 C 0.37645(18) 0.1769(4) 0.7610(6)
H17_2 H 0.3748 0.2473 0.7569
N3_2 N 0.34433(12) 0.1269(3) 0.8416(4)
N4_2 N 0.48203(14) 0.0265(3) 0.5369(5)
C20_2 C 0.21016(15) 0.2346(3) 0.7318(5)
C21_2 C 0.18721(16) 0.2111(3) 0.5744(5)
H21_2 H 0.1536 0.2089 0.5853
H22_2 H 0.1942 0.2651 0.5015
C22_2 C 0.20374(16) 0.1099(3) 0.5076(5)
H23_2 H 0.2369 0.1140 0.4882
H24_2 H 0.1875 0.0973 0.4083
C23_2 C 0.19484(16) 0.0217(3) 0.6196(5)
H25_2 H 0.1614 0.0150 0.6312
H26_2 H 0.2084 0.0386 0.7216
O5_2 O 0.18559(11) 0.2781(3) 0.8329(4)
O7_2 O 0.25200(11) 0.2084(2) 0.7527(4)
O12_2 O 0.31095(10) 0.3438(2) 0.9098(4)
C1_2 C 0.65394(16) 0.9738(4) 0.1607(6)
C3_2 C 0.58558(15) 0.9753(4) 0.3148(5)
C4_2 C 0.58817(18) 0.8708(4) 0.3159(6)
H3_2 H 0.5661 0.8328 0.3682
C5_2 C 0.62355(18) 0.8231(4) 0.2390(6)
H4_2 H 0.6252 0.7527 0.2431
C8_2 C 0.78984(15) 0.7654(3) 0.2682(5)
C9_2 C 0.81279(16) 0.7889(3) 0.4256(5)
H8_2 H 0.8464 0.7911 0.4147
H9_2 H 0.8058 0.7349 0.4985
C10_2 C 0.79626(16) 0.8901(3) 0.4924(5)
H10_2 H 0.7631 0.8860 0.5118
H11_2 H 0.8125 0.9027 0.5917
C11_2 C 0.80516(16) 0.9783(3) 0.3804(5)
H12_2 H 0.8386 0.9850 0.3688
H13_2 H 0.7916 0.9614 0.2784
N1_2 N 0.65567(12) 0.8731(3) 0.1584(4)
N2_2 N 0.51797(14) 0.9735(3) 0.4631(5)
O1_2 O 0.81441(11) 0.7219(3) 0.1671(4)
O3_2 O 0.74800(11) 0.7916(2) 0.2473(4)
H14_2 H 0.3233 0.9901 0.8914
C14_2 C 0.38013(16) 0.9728(4) 0.7630(6)
H15_2 H 0.3800 0.9023 0.7639
C18_2 C 0.45244(15) 0.9696(4) 0.6032(5)
C19_2 C 0.45207(18) 0.8575(4) 0.6080(7)
H18_2 H 0.4781 0.8318 0.5518
H19_2 H 0.4544 0.8351 0.7149
H20_2 H 0.4235 0.8329 0.5605
C24_2 C 0.21414(14) 0.9197(3) 0.5696(5)
O6_2 O 0.18905(10) 0.8438(2) 0.5902(4)
O11_2 O 0.68905(10) 0.6562(2) 0.0902(4)
O10_2 O 0.68559(11) 0.7781(3) 0.8329(4)
H23_3 H 0.2631 0.6140 0.0118
H24_3 H 0.3125 0.5973 0.0917
C13_3 C 0.15394(16) 0.5262(4) 0.6607(6)
H14_3 H 0.1767 0.4901 0.6086
C14_3 C 0.11987(16) 0.4728(4) 0.7370(6)
H15_3 H 0.1200 0.4023 0.7361
C15_3 C 0.08558(15) 0.5247(4) 0.8148(5)
C16_3 C 0.08817(18) 0.6292(4) 0.8159(6)
H16_3 H 0.0661 0.6672 0.8682
C17_3 C 0.12355(18) 0.6769(4) 0.7390(6)
H17_3 H 0.1252 0.7473 0.7431
C18_3 C 0.04756(15) 0.4696(4) 0.8968(5)
C19_3 C 0.04793(18) 0.3575(4) 0.8920(7)
H18_3 H 0.0219 0.3318 0.9482
H19_3 H 0.0456 0.3351 0.7851
H20_3 H 0.0765 0.3329 0.9395
N3_3 N 0.15567(12) 0.6269(3) 0.6584(4)
N4_3 N 0.01797(14) 0.5265(3) 0.9631(5)
C20_3 C 0.28984(15) 0.7346(3) 0.7682(5)
C21_3 C 0.31279(16) 0.7111(3) 0.9256(5)
H21_3 H 0.3464 0.7089 0.9147
H22_3 H 0.3058 0.7651 0.9985
C22_3 C 0.29626(16) 0.6099(3) 0.9924(5)
C23_3 C 0.30516(16) 0.5217(3) 0.8804(5)
H25_3 H 0.3386 0.5150 0.8688
H26_3 H 0.2916 0.5386 0.7784
C24_3 C 0.28586(14) 0.4197(3) 0.9304(5)
O7_3 O 0.24800(11) 0.7084(2) 0.7473(4)
O8_2 O 0.24581(11) 0.4188(2) 0.9861(4)
O13_2 O 0.24581(11) 0.5812(2) 0.4861(4)
C1_3 C 0.84606(16) 0.4738(4) 0.3393(6)
H1_3 H 0.8233 0.5099 0.3914
C2_3 C 0.88013(16) 0.5272(4) 0.2630(6)
H2_3 H 0.8800 0.5977 0.2639
C3_3 C 0.91442(15) 0.4753(4) 0.1852(5)
C4_3 C 0.91183(18) 0.3708(4) 0.1841(6)
H3_3 H 0.9339 0.3328 0.1318
C5_3 C 0.87645(18) 0.3231(4) 0.2610(6)
H4_3 H 0.8748 0.2527 0.2569
C6_3 C 0.95244(15) 0.5304(4) 0.1032(5)
C7_3 C 0.95207(18) 0.6425(4) 0.1080(7)
H5_3 H 0.9781 0.6682 0.0518
H6_3 H 0.9544 0.6649 0.2149
H7_3 H 0.9235 0.6671 0.0605
C8_3 C 0.71016(15) 0.2654(3) 0.2318(5)
C9_3 C 0.68721(16) 0.2889(3) 0.0744(5)
H8_3 H 0.6536 0.2911 0.0853
H9_3 H 0.6942 0.2349 0.0015
C10_3 C 0.70374(16) 0.3901(3) 0.0076(5)
C11_3 C 0.69484(16) 0.4783(3) 0.1196(5)
H12_3 H 0.6614 0.4850 0.1312
H13_3 H 0.7084 0.4614 0.2216
C12_3 C 0.71414(14) 0.5803(3) 0.0696(5)
N1_3 N 0.84433(12) 0.3731(3) 0.3416(4)
N2_3 N 0.98203(14) 0.4735(3) 0.0369(5)
O3_3 O 0.75200(11) 0.2916(2) 0.2527(4)
O4_2 O 0.75419(11) 0.5812(2) 0.0139(4)
O14_2 O 0.75419(11) 0.4188(2) 0.5139(4)
H10_3 H 0.7369 0.3860 0.9882
H11_3 H 0.6875 0.4027 0.9083
C1_4 C 0.15394(16) 0.4738(4) 0.1607(6)
H1_4 H 0.1767 0.5099 0.1086
C2_4 C 0.11987(16) 0.5272(4) 0.2370(6)
H2_4 H 0.1200 0.5977 0.2361
C3_4 C 0.08558(15) 0.4753(4) 0.3148(5)
C4_4 C 0.08817(18) 0.3708(4) 0.3159(6)
H3_4 H 0.0661 0.3328 0.3682
C5_4 C 0.12355(18) 0.3231(4) 0.2390(6)
H4_4 H 0.1252 0.2527 0.2431
C6_4 C 0.04756(15) 0.5304(4) 0.3968(5)
C7_4 C 0.04793(18) 0.6425(4) 0.3920(7)
H5_4 H 0.0219 0.6682 0.4482
H6_4 H 0.0456 0.6649 0.2851
H7_4 H 0.0765 0.6671 0.4395
C8_4 C 0.28984(15) 0.2654(3) 0.2682(5)
C9_4 C 0.31279(16) 0.2889(3) 0.4256(5)
H8_4 H 0.3464 0.2911 0.4147
H9_4 H 0.3058 0.2349 0.4985
C10_4 C 0.29626(16) 0.3901(3) 0.4924(5)
H10_4 H 0.2631 0.3860 0.5118
H11_4 H 0.3125 0.4027 0.5917
C11_4 C 0.30516(16) 0.4783(3) 0.3804(5)
H12_4 H 0.3386 0.4850 0.3688
H13_4 H 0.2916 0.4614 0.2784
C12_4 C 0.28586(14) 0.5803(3) 0.4304(5)
N1_4 N 0.15567(12) 0.3731(3) 0.1584(4)
N2_4 N 0.01797(14) 0.4735(3) 0.4631(5)
O3_4 O 0.24800(11) 0.2916(2) 0.2473(4)
C13_4 C 0.84606(16) 0.5262(4) 0.8393(6)
H14_4 H 0.8233 0.4901 0.8914
C14_4 C 0.88013(16) 0.4728(4) 0.7630(6)
H15_4 H 0.8800 0.4023 0.7639
C15_4 C 0.91442(15) 0.5247(4) 0.6852(5)
C16_4 C 0.91183(18) 0.6292(4) 0.6841(6)
H16_4 H 0.9339 0.6672 0.6318
C17_4 C 0.87645(18) 0.6769(4) 0.7610(6)
H17_4 H 0.8748 0.7473 0.7569
C18_4 C 0.95244(15) 0.4696(4) 0.6032(5)
C19_4 C 0.95207(18) 0.3575(4) 0.6080(7)
H18_4 H 0.9781 0.3318 0.5518
H19_4 H 0.9544 0.3351 0.7149
H20_4 H 0.9235 0.3329 0.5605
N3_4 N 0.84433(12) 0.6269(3) 0.8416(4)
N4_4 N 0.98203(14) 0.5265(3) 0.5369(5)
C20_4 C 0.71016(15) 0.7346(3) 0.7318(5)
C21_4 C 0.68721(16) 0.7111(3) 0.5744(5)
H21_4 H 0.6536 0.7089 0.5853
H22_4 H 0.6942 0.7651 0.5015
C22_4 C 0.70374(16) 0.6099(3) 0.5076(5)
H23_4 H 0.7369 0.6140 0.4882
H24_4 H 0.6875 0.5973 0.4083
C23_4 C 0.69484(16) 0.5217(3) 0.6196(5)
H25_4 H 0.6614 0.5150 0.6312
H26_4 H 0.7084 0.5386 0.7216
C24_4 C 0.71414(14) 0.4197(3) 0.5696(5)
O7_4 O 0.75200(11) 0.7084(2) 0.7527(4)
loop_
_geom_bond_atom_site_label_1
_geom_bond_atom_site_label_2
_geom_bond_site_symmetry_1
_geom_bond_site_symmetry_2
H2 C2 1_555 1_555
C7 C6 1_555 1_555
H5 C7 1_555 1_555
H6 C7 1_555 1_555
H7 C7 1_555 1_555
O2 C12 1_555 1_555
O4 C12 1_555 1_555
Cu5 O2 1_555 1_555
C16 C15 1_555 1_555
H16 C16 1_555 1_555
C17 C16 1_555 1_555
H17 C17 1_555 1_555
N3 C13 1_555 1_555
C20 C21 1_555 1_555
C21 H21 1_555 1_555
H22 C21 1_555 1_555
C22 C21 1_555 1_555
C23 C22 1_555 1_555
H25 C23 1_555 1_555
H26 C23 1_555 1_555
O5 C20 1_555 1_555
O7 C20 1_555 1_555
Cu2 N3 1_555 1_555
O9 Cu2 1_555 1_555
O12 Cu2 1_555 1_555
O13 Cu2 1_555 1_555
Cu4 O5 1_555 1_555
C17 N3 1_555 1_555
O7 Cu2 1_555 1_555
Cu2 Cu4 1_555 1_555
C4 C3 1_555 1_555
H3 C4 1_555 1_555
C5 C4 1_555 1_555
H4 C5 1_555 1_555
C8 C9 1_555 1_555
C9 H8 1_555 1_555
H9 C9 1_555 1_555
C10 C9 1_555 1_555
C11 C10 1_555 1_555
H12 C11 1_555 1_555
H13 C11 1_555 1_555
N1 C1 1_555 1_555
O1 C8 1_555 1_555
O3 C8 1_555 1_555
Cu1 N1 1_555 1_555
O10 Cu1 1_555 1_555
O11 Cu1 1_555 1_555
O14 Cu1 1_555 1_555
Cu7 O1 1_555 1_555
C5 N1 1_555 1_555
O3 Cu1 1_555 1_555
Cu1 Cu7 1_555 1_555
H15 C14 1_555 1_555
C19 C18 1_555 1_555
H18 C19 1_555 1_555
H19 C19 1_555 1_555
H20 C19 1_555 1_555
O6 C24 1_555 1_555
O8 C24 1_555 1_555
Cu8 O6 1_555 1_555
H2_2 C2_2 1_555 1_555
C7_2 C6_2 1_555 1_555
H5_2 C7_2 1_555 1_555
H6_2 C7_2 1_555 1_555
H7_2 C7_2 1_555 1_555
O2_2 C12_2 1_555 1_555
O13 C12_2 1_555 1_555
C16_2 C15_2 1_555 1_555
H16_2 C16_2 1_555 1_555
C17_2 C16_2 1_555 1_555
H17_2 C17_2 1_555 1_555
N3_2 C13_2 1_555 1_555
C20_2 C21_2 1_555 1_555
C21_2 H21_2 1_555 1_555
H22_2 C21_2 1_555 1_555
C22_2 C21_2 1_555 1_555
H23_2 C22_2 1_555 1_555
H24_2 C22_2 1_555 1_555
C23_2 C22_2 1_555 1_555
H25_2 C23_2 1_555 1_555
H26_2 C23_2 1_555 1_555
O5_2 C20_2 1_555 1_555
O7_2 C20_2 1_555 1_555
Cu6 N3_2 1_555 1_555
O12_2 Cu6 1_555 1_555
Cu4 O2_2 1_555 1_555
C17_2 N3_2 1_555 1_555
O7_2 Cu6 1_555 1_555
C4_2 C3_2 1_555 1_555
H3_2 C4_2 1_555 1_555
C5_2 C4_2 1_555 1_555
H4_2 C5_2 1_555 1_555
C8_2 C9_2 1_555 1_555
C9_2 H8_2 1_555 1_555
H9_2 C9_2 1_555 1_555
C10_2 C9_2 1_555 1_555
H10_2 C10_2 1_555 1_555
H11_2 C10_2 1_555 1_555
C11_2 C10_2 1_555 1_555
H12_2 C11_2 1_555 1_555
H13_2 C11_2 1_555 1_555
N1_2 C1_2 1_555 1_555
O1_2 C8_2 1_555 1_555
O3_2 C8_2 1_555 1_555
Cu3 N1_2 1_555 1_555
H15_2 C14_2 1_555 1_555
C19_2 C18_2 1_555 1_555
H18_2 C19_2 1_555 1_555
H19_2 C19_2 1_555 1_555
H20_2 C19_2 1_555 1_555
O6_2 C24_2 1_555 1_555
O14 C24_2 1_555 1_555
O11_2 Cu3 1_555 1_555
Cu7 O6_2 1_555 1_555
C5_2 N1_2 1_555 1_555
O3_2 Cu3 1_555 1_555
C13_3 H14_3 1_555 1_555
C14_3 C13_3 1_555 1_555
H15_3 C14_3 1_555 1_555
C15_3 C14_3 1_555 1_555
C16_3 C15_3 1_555 1_555
H16_3 C16_3 1_555 1_555
C17_3 C16_3 1_555 1_555
H17_3 C17_3 1_555 1_555
C18_3 C15_3 1_555 1_555
C19_3 C18_3 1_555 1_555
H18_3 C19_3 1_555 1_555
H19_3 C19_3 1_555 1_555
H20_3 C19_3 1_555 1_555
N3_3 C13_3 1_555 1_555
C20_3 C21_3 1_555 1_555
C21_3 H21_3 1_555 1_555
H22_3 C21_3 1_555 1_555
C22_3 C21_3 1_555 1_555
C23_3 C22_3 1_555 1_555
H25_3 C23_3 1_555 1_555
H26_3 C23_3 1_555 1_555
C24_3 C23_3 1_555 1_555
O10 C20_3 1_555 1_555
O12_2 C24_3 1_555 1_555
O7_3 C20_3 1_555 1_555
O8_2 C24_3 1_555 1_555
Cu7 N3_3 1_555 1_555
O13_2 Cu7 1_555 1_555
C17_3 N3_3 1_555 1_555
C18_3 N4_3 1_555 1_555
O7_3 Cu7 1_555 1_555
C1_3 H1_3 1_555 1_555
C2_3 C1_3 1_555 1_555
H2_3 C2_3 1_555 1_555
C3_3 C2_3 1_555 1_555
C4_3 C3_3 1_555 1_555
H3_3 C4_3 1_555 1_555
C5_3 C4_3 1_555 1_555
H4_3 C5_3 1_555 1_555
C6_3 C3_3 1_555 1_555
C7_3 C6_3 1_555 1_555
H5_3 C7_3 1_555 1_555
H6_3 C7_3 1_555 1_555
H7_3 C7_3 1_555 1_555
C8_3 C9_3 1_555 1_555
C9_3 H8_3 1_555 1_555
H9_3 C9_3 1_555 1_555
C10_3 C9_3 1_555 1_555
C11_3 C10_3 1_555 1_555
H12_3 C11_3 1_555 1_555
H13_3 C11_3 1_555 1_555
C12_3 C11_3 1_555 1_555
N1_3 C1_3 1_555 1_555
N2_3 C6_3 1_555 1_555
O9 C8_3 1_555 1_555
O11_2 C12_3 1_555 1_555
O3_3 C8_3 1_555 1_555
O4_2 C12_3 1_555 1_555
Cu4 N1_3 1_555 1_555
O14_2 Cu4 1_555 1_555
C5_3 N1_3 1_555 1_555
O3_3 Cu4 1_555 1_555
C1_4 H1_4 1_555 1_555
C2_4 C1_4 1_555 1_555
H2_4 C2_4 1_555 1_555
C3_4 C2_4 1_555 1_555
C4_4 C3_4 1_555 1_555
H3_4 C4_4 1_555 1_555
C5_4 C4_4 1_555 1_555
H4_4 C5_4 1_555 1_555
C6_4 C3_4 1_555 1_555
C7_4 C6_4 1_555 1_555
H5_4 C7_4 1_555 1_555
H6_4 C7_4 1_555 1_555
H7_4 C7_4 1_555 1_555
C8_4 C9_4 1_555 1_555
C9_4 H8_4 1_555 1_555
H9_4 C9_4 1_555 1_555
C10_4 C9_4 1_555 1_555
H10_4 C10_4 1_555 1_555
H11_4 C10_4 1_555 1_555
C11_4 C10_4 1_555 1_555
H12_4 C11_4 1_555 1_555
H13_4 C11_4 1_555 1_555
C12_4 C11_4 1_555 1_555
N1_4 C1_4 1_555 1_555
N2_4 C6_4 1_555 1_555
O9_2 C8_4 1_555 1_555
O11 C12_4 1_555 1_555
O3_4 C8_4 1_555 1_555
O13_2 C12_4 1_555 1_555
Cu5 N1_4 1_555 1_555
C5_4 N1_4 1_555 1_555
O3_4 Cu5 1_555 1_555
C13_4 H14_4 1_555 1_555
C14_4 C13_4 1_555 1_555
H15_4 C14_4 1_555 1_555
C15_4 C14_4 1_555 1_555
C16_4 C15_4 1_555 1_555
H16_4 C16_4 1_555 1_555
C17_4 C16_4 1_555 1_555
H17_4 C17_4 1_555 1_555
C18_4 C15_4 1_555 1_555
C19_4 C18_4 1_555 1_555
H18_4 C19_4 1_555 1_555
H19_4 C19_4 1_555 1_555
H20_4 C19_4 1_555 1_555
N3_4 C13_4 1_555 1_555
C20_4 C21_4 1_555 1_555
C21_4 H21_4 1_555 1_555
H22_4 C21_4 1_555 1_555
C22_4 C21_4 1_555 1_555
H23_4 C22_4 1_555 1_555
H24_4 C22_4 1_555 1_555
C23_4 C22_4 1_555 1_555
H25_4 C23_4 1_555 1_555
H26_4 C23_4 1_555 1_555
C24_4 C23_4 1_555 1_555
O10_2 C20_4 1_555 1_555
O12 C24_4 1_555 1_555
O7_4 C20_4 1_555 1_555
O14_2 C24_4 1_555 1_555
Cu8 N3_4 1_555 1_555
C17_4 N3_4 1_555 1_555
C18_4 N4_4 1_555 1_555
O7_4 Cu8 1_555 1_555

#END
