
###############################################################################
#
# This file contains modified crystal structure data generated from the
# MOF subset of the Cambridge Structural Database (CSD) v543 
# hosted by the Cambridge Crystallographic Data Centre (CCDC).
#
# This work is licensed under the Creative Commons
# Attribution-NonCommercial-ShareAlike 4.0 International License.
# To view a copy of this license, visit
# http://creativecommons.org/licenses/by-nc-sa/4.0/
# or send a letter to
# Creative Commons, PO Box 1866, Mountain View, CA 94042, USA.
#
# CIF created using the CSD Python API on 29 September 2022
# The structure has been converted into the P1 space group
# The structure has a 3D framework
# The original CSD entry RIPKIM01 is in the monoclinic crystal system
# The framework has been calculated to contain at least 10.0% void space
# The void calculation uses a probe of radius 1.32A, grid spacing 0.4
#
###############################################################################

data_RIPKIM01
_chemical_formula_moiety         '(C96 H104 Cu8 N16 O32)n'
_symmetry_cell_setting           triclinic
_symmetry_space_group_name_H-M   'P 1'
_symmetry_Int_Tables_number      1
_space_group_name_Hall           'P 1'
loop_
_symmetry_equiv_pos_site_id
_symmetry_equiv_pos_as_xyz
1 x,y,z
_cell_length_a                   29.135(5)
_cell_length_b                   13.191(5)
_cell_length_c                   8.599(5)
_cell_angle_alpha                90
_cell_angle_beta                 90.247(5)
_cell_angle_gamma                90
_cell_volume                     3304.74
loop_
_atom_site_label
_atom_site_type_symbol
_atom_site_fract_x
_atom_site_fract_y
_atom_site_fract_z
C13 C 0.62354(18) 0.1746(3) 0.2612(6)
H14 H 0.6239 0.2451 0.2627
C14 C 0.58851(17) 0.1275(4) 0.1833(6)
H15 H 0.5662 0.1660 0.1330
C15 C 0.58610(14) 0.0242(3) 0.1789(5)
C17 C 0.65553(16) 0.0262(3) 0.3284(6)
N3 N 0.65690(11) 0.1264(2) 0.3345(4)
N4 N 0.51816(14) 0.0265(3) 0.0360(5)
C20 C 0.78888(14) 0.2334(3) 0.2380(4)
C21 C 0.81149(16) 0.2100(3) 0.0848(4)
H21 H 0.8049 0.2642 0.0118
H22 H 0.8445 0.2071 0.0997
C22 C 0.79481(15) 0.1095(3) 0.0166(4)
C23 C 0.80473(15) 0.0210(3) 0.1236(5)
H25 H 0.8378 0.0144 0.1345
H26 H 0.7925 0.0367 0.2256
O5 O 0.74807(10) 0.2070(2) 0.2542(3)
O6 O 0.81270(11) 0.2778(2) 0.3400(3)
Cu2 Cu 0.71255(2) 0.20482(3) 0.44934(5)
O9 O 0.68730(11) 0.2222(2) 0.6600(3)
O12 O 0.69042(10) 0.3433(2) 0.4037(3)
O13 O 0.74615(10) 0.08120(18) 0.5145(3)
Cu4 Cu 0.78745(2) 0.29518(3) 0.55066(5)
Cu6 Cu 0.28745(2) 0.20482(3) 0.05066(5)
C4 C 0.37858(15) 0.0271(3) 0.7475(6)
H3 H 0.3778 0.0975 0.7493
H4 H 0.3213 0.0102 0.6221
C6 C 0.45202(14) 0.0304(4) 0.9001(5)
C7 C 0.45216(19) 0.1425(4) 0.8969(7)
H5 H 0.4787 0.1673 0.9515
H6 H 0.4249 0.1676 0.9463
H7 H 0.4529 0.1655 0.7911
C12 C 0.21454(13) 0.0808(3) 0.9275(4)
O3 O 0.19042(10) 0.1567(2) 0.9037(3)
O4 O 0.25385(10) 0.08120(18) 0.9855(3)
H23 H 0.8097 0.0981 0.9175
H24 H 0.7620 0.1135 0.9978
Cu5 Cu 0.21255(2) 0.29518(3) 0.94934(5)
H10 H 0.1903 0.9019 0.0825
H11 H 0.2380 0.8865 0.0022
C16 C 0.62142(15) 0.9729(3) 0.2525(6)
H16 H 0.6222 0.9025 0.2507
H17 H 0.6787 0.9898 0.3779
C18 C 0.54798(14) 0.9696(4) 0.0999(5)
C19 C 0.54784(19) 0.8575(4) 0.1031(7)
H18 H 0.5213 0.8327 0.0485
H19 H 0.5751 0.8324 0.0537
H20 H 0.5471 0.8345 0.2089
C24 C 0.78546(13) 0.9192(3) 0.0725(4)
O7 O 0.80958(10) 0.8433(2) 0.0963(3)
O8 O 0.74615(10) 0.91880(18) 0.0145(3)
Cu8 Cu 0.78745(2) 0.70482(3) 0.05066(5)
C1 C 0.37646(18) 0.8254(3) 0.7388(6)
H1 H 0.3761 0.7549 0.7373
C2 C 0.41149(17) 0.8725(4) 0.8167(6)
H2 H 0.4338 0.8340 0.8670
C3 C 0.41390(14) 0.9758(3) 0.8211(5)
C5 C 0.34447(16) 0.9738(3) 0.6716(6)
C8 C 0.21112(14) 0.7666(3) 0.7620(4)
C9 C 0.18851(16) 0.7900(3) 0.9152(4)
H8 H 0.1951 0.7358 0.9882
H9 H 0.1555 0.7929 0.9003
C10 C 0.20519(15) 0.8905(3) 0.9834(4)
C11 C 0.19527(15) 0.9790(3) 0.8764(5)
H12 H 0.1622 0.9856 0.8655
H13 H 0.2075 0.9633 0.7744
N1 N 0.34310(11) 0.8736(2) 0.6655(4)
N2 N 0.48184(14) 0.9735(3) 0.9640(5)
O1 O 0.25193(10) 0.7930(2) 0.7458(3)
O2 O 0.18730(11) 0.7222(2) 0.6600(3)
Cu1 Cu 0.28745(2) 0.79518(3) 0.55066(5)
O10 O 0.31270(11) 0.7778(2) 0.3400(3)
O11 O 0.30958(10) 0.6567(2) 0.5963(3)
O14 O 0.25385(10) 0.91880(18) 0.4855(3)
Cu3 Cu 0.71255(2) 0.79518(3) 0.94934(5)
Cu7 Cu 0.21255(2) 0.70482(3) 0.44934(5)
C4_2 C 0.62142(15) 0.0271(3) 0.7525(6)
H3_2 H 0.6222 0.0975 0.7507
H4_2 H 0.6787 0.0102 0.8779
C6_2 C 0.54798(14) 0.0304(4) 0.5999(5)
C7_2 C 0.54784(19) 0.1425(4) 0.6031(7)
H5_2 H 0.5213 0.1673 0.5485
H6_2 H 0.5751 0.1676 0.5537
H7_2 H 0.5471 0.1655 0.7089
C12_2 C 0.78546(13) 0.0808(3) 0.5725(4)
O3_2 O 0.80958(10) 0.1567(2) 0.5963(3)
C13_2 C 0.37646(18) 0.1746(3) 0.2388(6)
H14_2 H 0.3761 0.2451 0.2373
C14_2 C 0.41149(17) 0.1275(4) 0.3167(6)
H15_2 H 0.4338 0.1660 0.3670
C15_2 C 0.41390(14) 0.0242(3) 0.3211(5)
C17_2 C 0.34447(16) 0.0262(3) 0.1716(6)
N3_2 N 0.34310(11) 0.1264(2) 0.1655(4)
N4_2 N 0.48184(14) 0.0265(3) 0.4640(5)
C20_2 C 0.21112(14) 0.2334(3) 0.2620(4)
C21_2 C 0.18851(16) 0.2100(3) 0.4152(4)
H21_2 H 0.1951 0.2642 0.4882
H22_2 H 0.1555 0.2071 0.4003
C22_2 C 0.20519(15) 0.1095(3) 0.4834(4)
H23_2 H 0.1903 0.0981 0.5825
H24_2 H 0.2380 0.1135 0.5022
C23_2 C 0.19527(15) 0.0210(3) 0.3764(5)
H25_2 H 0.1622 0.0144 0.3655
H26_2 H 0.2075 0.0367 0.2744
O5_2 O 0.25193(10) 0.2070(2) 0.2458(3)
O6_2 O 0.18730(11) 0.2778(2) 0.1600(3)
O12_2 O 0.30958(10) 0.3433(2) 0.0963(3)
O9_2 O 0.31270(11) 0.2222(2) 0.8400(3)
O10_2 O 0.68730(11) 0.7778(2) 0.1600(3)
C1_2 C 0.62354(18) 0.8254(3) 0.7612(6)
H1_2 H 0.6239 0.7549 0.7627
C2_2 C 0.58851(17) 0.8725(4) 0.6833(6)
H2_2 H 0.5662 0.8340 0.6330
C3_2 C 0.58610(14) 0.9758(3) 0.6789(5)
C5_2 C 0.65553(16) 0.9738(3) 0.8284(6)
C8_2 C 0.78888(14) 0.7666(3) 0.7380(4)
C9_2 C 0.81149(16) 0.7900(3) 0.5848(4)
H8_2 H 0.8049 0.7358 0.5118
H9_2 H 0.8445 0.7929 0.5997
C10_2 C 0.79481(15) 0.8905(3) 0.5166(4)
H10_2 H 0.8097 0.9019 0.4175
H11_2 H 0.7620 0.8865 0.4978
C11_2 C 0.80473(15) 0.9790(3) 0.6236(5)
H12_2 H 0.8378 0.9856 0.6345
H13_2 H 0.7925 0.9633 0.7256
N1_2 N 0.65690(11) 0.8736(2) 0.8345(4)
N2_2 N 0.51816(14) 0.9735(3) 0.5360(5)
O1_2 O 0.74807(10) 0.7930(2) 0.7542(3)
O2_2 O 0.81270(11) 0.7222(2) 0.8400(3)
C16_2 C 0.37858(15) 0.9729(3) 0.2475(6)
H16_2 H 0.3778 0.9025 0.2493
H17_2 H 0.3213 0.9898 0.1221
C18_2 C 0.45202(14) 0.9696(4) 0.4001(5)
C19_2 C 0.45216(19) 0.8575(4) 0.3969(7)
H18_2 H 0.4787 0.8327 0.4515
H19_2 H 0.4249 0.8324 0.4463
H20_2 H 0.4529 0.8345 0.2911
C24_2 C 0.21454(13) 0.9192(3) 0.4275(4)
O7_2 O 0.19042(10) 0.8433(2) 0.4037(3)
O11_2 O 0.69042(10) 0.6567(2) 0.9037(3)
C13_3 C 0.12354(18) 0.6746(3) 0.2612(6)
H14_3 H 0.1239 0.7451 0.2627
C14_3 C 0.08851(17) 0.6275(4) 0.1833(6)
H15_3 H 0.0662 0.6660 0.1330
C15_3 C 0.08610(14) 0.5242(3) 0.1789(5)
C16_3 C 0.12142(15) 0.4729(3) 0.2525(6)
H16_3 H 0.1222 0.4025 0.2507
C17_3 C 0.15553(16) 0.5262(3) 0.3284(6)
H17_3 H 0.1787 0.4898 0.3779
C18_3 C 0.04798(14) 0.4696(4) 0.0999(5)
C19_3 C 0.04784(19) 0.3575(4) 0.1031(7)
H18_3 H 0.0213 0.3327 0.0485
H19_3 H 0.0751 0.3324 0.0537
H20_3 H 0.0471 0.3345 0.2089
N3_3 N 0.15690(11) 0.6264(2) 0.3345(4)
N4_3 N 0.01816(14) 0.5265(3) 0.0360(5)
C20_3 C 0.28888(14) 0.7334(3) 0.2380(4)
C21_3 C 0.31149(16) 0.7100(3) 0.0848(4)
H21_3 H 0.3049 0.7642 0.0118
H22_3 H 0.3445 0.7071 0.0997
C22_3 C 0.29481(15) 0.6095(3) 0.0166(4)
C23_3 C 0.30473(15) 0.5210(3) 0.1236(5)
H25_3 H 0.3378 0.5144 0.1345
H26_3 H 0.2925 0.5367 0.2256
C24_3 C 0.28546(13) 0.4192(3) 0.0725(4)
O5_3 O 0.24807(10) 0.7070(2) 0.2542(3)
O8_2 O 0.24615(10) 0.41880(18) 0.0145(3)
O13_2 O 0.24615(10) 0.58120(18) 0.5145(3)
H23_3 H 0.3097 0.5981 0.9175
H24_3 H 0.2620 0.6135 0.9978
H10_3 H 0.6903 0.4019 0.0825
H11_3 H 0.7380 0.3865 0.0022
C1_3 C 0.87646(18) 0.3254(3) 0.7388(6)
H1_3 H 0.8761 0.2549 0.7373
C2_3 C 0.91149(17) 0.3725(4) 0.8167(6)
H2_3 H 0.9338 0.3340 0.8670
C3_3 C 0.91390(14) 0.4758(3) 0.8211(5)
C4_3 C 0.87858(15) 0.5271(3) 0.7475(6)
H3_3 H 0.8778 0.5975 0.7493
C5_3 C 0.84447(16) 0.4738(3) 0.6716(6)
H4_3 H 0.8213 0.5102 0.6221
C6_3 C 0.95202(14) 0.5304(4) 0.9001(5)
C7_3 C 0.95216(19) 0.6425(4) 0.8969(7)
H5_3 H 0.9787 0.6673 0.9515
H6_3 H 0.9249 0.6676 0.9463
H7_3 H 0.9529 0.6655 0.7911
C8_3 C 0.71112(14) 0.2666(3) 0.7620(4)
C9_3 C 0.68851(16) 0.2900(3) 0.9152(4)
H8_3 H 0.6951 0.2358 0.9882
H9_3 H 0.6555 0.2929 0.9003
C10_3 C 0.70519(15) 0.3905(3) 0.9834(4)
C11_3 C 0.69527(15) 0.4790(3) 0.8764(5)
H12_3 H 0.6622 0.4856 0.8655
H13_3 H 0.7075 0.4633 0.7744
C12_3 C 0.71454(13) 0.5808(3) 0.9275(4)
N1_3 N 0.84310(11) 0.3736(2) 0.6655(4)
N2_3 N 0.98184(14) 0.4735(3) 0.9640(5)
O1_3 O 0.75193(10) 0.2930(2) 0.7458(3)
O4_2 O 0.75385(10) 0.58120(18) 0.9855(3)
O14_2 O 0.75385(10) 0.41880(18) 0.4855(3)
C1_4 C 0.12354(18) 0.3254(3) 0.7612(6)
H1_4 H 0.1239 0.2549 0.7627
C2_4 C 0.08851(17) 0.3725(4) 0.6833(6)
H2_4 H 0.0662 0.3340 0.6330
C3_4 C 0.08610(14) 0.4758(3) 0.6789(5)
C4_4 C 0.12142(15) 0.5271(3) 0.7525(6)
H3_4 H 0.1222 0.5975 0.7507
C5_4 C 0.15553(16) 0.4738(3) 0.8284(6)
H4_4 H 0.1787 0.5102 0.8779
C6_4 C 0.04798(14) 0.5304(4) 0.5999(5)
C7_4 C 0.04784(19) 0.6425(4) 0.6031(7)
H5_4 H 0.0213 0.6673 0.5485
H6_4 H 0.0751 0.6676 0.5537
H7_4 H 0.0471 0.6655 0.7089
C8_4 C 0.28888(14) 0.2666(3) 0.7380(4)
C9_4 C 0.31149(16) 0.2900(3) 0.5848(4)
H8_4 H 0.3049 0.2358 0.5118
H9_4 H 0.3445 0.2929 0.5997
C10_4 C 0.29481(15) 0.3905(3) 0.5166(4)
H10_4 H 0.3097 0.4019 0.4175
H11_4 H 0.2620 0.3865 0.4978
C11_4 C 0.30473(15) 0.4790(3) 0.6236(5)
H12_4 H 0.3378 0.4856 0.6345
H13_4 H 0.2925 0.4633 0.7256
C12_4 C 0.28546(13) 0.5808(3) 0.5725(4)
N1_4 N 0.15690(11) 0.3736(2) 0.8345(4)
N2_4 N 0.01816(14) 0.4735(3) 0.5360(5)
O1_4 O 0.24807(10) 0.2930(2) 0.7542(3)
C13_4 C 0.87646(18) 0.6746(3) 0.2388(6)
H14_4 H 0.8761 0.7451 0.2373
C14_4 C 0.91149(17) 0.6275(4) 0.3167(6)
H15_4 H 0.9338 0.6660 0.3670
C15_4 C 0.91390(14) 0.5242(3) 0.3211(5)
C16_4 C 0.87858(15) 0.4729(3) 0.2475(6)
H16_4 H 0.8778 0.4025 0.2493
C17_4 C 0.84447(16) 0.5262(3) 0.1716(6)
H17_4 H 0.8213 0.4898 0.1221
C18_4 C 0.95202(14) 0.4696(4) 0.4001(5)
C19_4 C 0.95216(19) 0.3575(4) 0.3969(7)
H18_4 H 0.9787 0.3327 0.4515
H19_4 H 0.9249 0.3324 0.4463
H20_4 H 0.9529 0.3345 0.2911
N3_4 N 0.84310(11) 0.6264(2) 0.1655(4)
N4_4 N 0.98184(14) 0.5265(3) 0.4640(5)
C20_4 C 0.71112(14) 0.7334(3) 0.2620(4)
C21_4 C 0.68851(16) 0.7100(3) 0.4152(4)
H21_4 H 0.6951 0.7642 0.4882
H22_4 H 0.6555 0.7071 0.4003
C22_4 C 0.70519(15) 0.6095(3) 0.4834(4)
H23_4 H 0.6903 0.5981 0.5825
H24_4 H 0.7380 0.6135 0.5022
C23_4 C 0.69527(15) 0.5210(3) 0.3764(5)
H25_4 H 0.6622 0.5144 0.3655
H26_4 H 0.7075 0.5367 0.2744
C24_4 C 0.71454(13) 0.4192(3) 0.4275(4)
O5_4 O 0.75193(10) 0.7070(2) 0.2458(3)
loop_
_geom_bond_atom_site_label_1
_geom_bond_atom_site_label_2
_geom_bond_site_symmetry_1
_geom_bond_site_symmetry_2
C13 H14 1_555 1_555
C14 C13 1_555 1_555
H15 C14 1_555 1_555
C15 C14 1_555 1_555
N3 C13 1_555 1_555
C20 C21 1_555 1_555
C21 H21 1_555 1_555
H22 C21 1_555 1_555
C22 C21 1_555 1_555
C23 C22 1_555 1_555
H25 C23 1_555 1_555
H26 C23 1_555 1_555
O5 C20 1_555 1_555
O6 C20 1_555 1_555
Cu2 N3 1_555 1_555
O9 Cu2 1_555 1_555
O12 Cu2 1_555 1_555
O13 Cu2 1_555 1_555
Cu4 O6 1_555 1_555
C17 N3 1_555 1_555
O5 Cu2 1_555 1_555
Cu2 Cu4 1_555 1_555
H3 C4 1_555 1_555
C7 C6 1_555 1_555
H5 C7 1_555 1_555
H6 C7 1_555 1_555
H7 C7 1_555 1_555
O3 C12 1_555 1_555
O4 C12 1_555 1_555
Cu5 O3 1_555 1_555
H16 C16 1_555 1_555
C19 C18 1_555 1_555
H18 C19 1_555 1_555
H19 C19 1_555 1_555
H20 C19 1_555 1_555
O7 C24 1_555 1_555
O8 C24 1_555 1_555
Cu8 O7 1_555 1_555
C1 H1 1_555 1_555
C2 C1 1_555 1_555
H2 C2 1_555 1_555
C3 C2 1_555 1_555
C8 C9 1_555 1_555
C9 H8 1_555 1_555
H9 C9 1_555 1_555
C10 C9 1_555 1_555
C11 C10 1_555 1_555
H12 C11 1_555 1_555
H13 C11 1_555 1_555
N1 C1 1_555 1_555
O1 C8 1_555 1_555
O2 C8 1_555 1_555
Cu1 N1 1_555 1_555
O10 Cu1 1_555 1_555
O11 Cu1 1_555 1_555
O14 Cu1 1_555 1_555
Cu7 O2 1_555 1_555
C5 N1 1_555 1_555
O1 Cu1 1_555 1_555
Cu1 Cu7 1_555 1_555
H3_2 C4_2 1_555 1_555
C7_2 C6_2 1_555 1_555
H5_2 C7_2 1_555 1_555
H6_2 C7_2 1_555 1_555
H7_2 C7_2 1_555 1_555
O3_2 C12_2 1_555 1_555
O13 C12_2 1_555 1_555
C13_2 H14_2 1_555 1_555
C14_2 C13_2 1_555 1_555
H15_2 C14_2 1_555 1_555
C15_2 C14_2 1_555 1_555
N3_2 C13_2 1_555 1_555
C20_2 C21_2 1_555 1_555
C21_2 H21_2 1_555 1_555
H22_2 C21_2 1_555 1_555
C22_2 C21_2 1_555 1_555
H23_2 C22_2 1_555 1_555
H24_2 C22_2 1_555 1_555
C23_2 C22_2 1_555 1_555
H25_2 C23_2 1_555 1_555
H26_2 C23_2 1_555 1_555
O5_2 C20_2 1_555 1_555
O6_2 C20_2 1_555 1_555
Cu6 N3_2 1_555 1_555
O12_2 Cu6 1_555 1_555
Cu4 O3_2 1_555 1_555
C17_2 N3_2 1_555 1_555
O5_2 Cu6 1_555 1_555
C1_2 H1_2 1_555 1_555
C2_2 C1_2 1_555 1_555
H2_2 C2_2 1_555 1_555
C3_2 C2_2 1_555 1_555
C8_2 C9_2 1_555 1_555
C9_2 H8_2 1_555 1_555
H9_2 C9_2 1_555 1_555
C10_2 C9_2 1_555 1_555
H10_2 C10_2 1_555 1_555
H11_2 C10_2 1_555 1_555
C11_2 C10_2 1_555 1_555
H12_2 C11_2 1_555 1_555
H13_2 C11_2 1_555 1_555
N1_2 C1_2 1_555 1_555
O1_2 C8_2 1_555 1_555
O2_2 C8_2 1_555 1_555
Cu3 N1_2 1_555 1_555
H16_2 C16_2 1_555 1_555
C19_2 C18_2 1_555 1_555
H18_2 C19_2 1_555 1_555
H19_2 C19_2 1_555 1_555
H20_2 C19_2 1_555 1_555
O7_2 C24_2 1_555 1_555
O14 C24_2 1_555 1_555
O11_2 Cu3 1_555 1_555
Cu7 O7_2 1_555 1_555
C5_2 N1_2 1_555 1_555
O1_2 Cu3 1_555 1_555
C13_3 H14_3 1_555 1_555
C14_3 C13_3 1_555 1_555
H15_3 C14_3 1_555 1_555
C15_3 C14_3 1_555 1_555
C16_3 C15_3 1_555 1_555
H16_3 C16_3 1_555 1_555
C17_3 C16_3 1_555 1_555
H17_3 C17_3 1_555 1_555
C18_3 C15_3 1_555 1_555
C19_3 C18_3 1_555 1_555
H18_3 C19_3 1_555 1_555
H19_3 C19_3 1_555 1_555
H20_3 C19_3 1_555 1_555
N3_3 C13_3 1_555 1_555
C20_3 C21_3 1_555 1_555
C21_3 H21_3 1_555 1_555
H22_3 C21_3 1_555 1_555
C22_3 C21_3 1_555 1_555
C23_3 C22_3 1_555 1_555
H25_3 C23_3 1_555 1_555
H26_3 C23_3 1_555 1_555
C24_3 C23_3 1_555 1_555
O5_3 C20_3 1_555 1_555
O10 C20_3 1_555 1_555
O12_2 C24_3 1_555 1_555
O8_2 C24_3 1_555 1_555
Cu7 N3_3 1_555 1_555
O13_2 Cu7 1_555 1_555
C17_3 N3_3 1_555 1_555
C18_3 N4_3 1_555 1_555
O5_3 Cu7 1_555 1_555
C1_3 H1_3 1_555 1_555
C2_3 C1_3 1_555 1_555
H2_3 C2_3 1_555 1_555
C3_3 C2_3 1_555 1_555
C4_3 C3_3 1_555 1_555
H3_3 C4_3 1_555 1_555
C5_3 C4_3 1_555 1_555
H4_3 C5_3 1_555 1_555
C6_3 C3_3 1_555 1_555
C7_3 C6_3 1_555 1_555
H5_3 C7_3 1_555 1_555
H6_3 C7_3 1_555 1_555
H7_3 C7_3 1_555 1_555
C8_3 C9_3 1_555 1_555
C9_3 H8_3 1_555 1_555
H9_3 C9_3 1_555 1_555
C10_3 C9_3 1_555 1_555
C11_3 C10_3 1_555 1_555
H12_3 C11_3 1_555 1_555
H13_3 C11_3 1_555 1_555
C12_3 C11_3 1_555 1_555
N1_3 C1_3 1_555 1_555
N2_3 C6_3 1_555 1_555
O1_3 C8_3 1_555 1_555
O9 C8_3 1_555 1_555
O11_2 C12_3 1_555 1_555
O4_2 C12_3 1_555 1_555
Cu4 N1_3 1_555 1_555
O14_2 Cu4 1_555 1_555
C5_3 N1_3 1_555 1_555
O1_3 Cu4 1_555 1_555
C1_4 H1_4 1_555 1_555
C2_4 C1_4 1_555 1_555
H2_4 C2_4 1_555 1_555
C3_4 C2_4 1_555 1_555
C4_4 C3_4 1_555 1_555
H3_4 C4_4 1_555 1_555
C5_4 C4_4 1_555 1_555
H4_4 C5_4 1_555 1_555
C6_4 C3_4 1_555 1_555
C7_4 C6_4 1_555 1_555
H5_4 C7_4 1_555 1_555
H6_4 C7_4 1_555 1_555
H7_4 C7_4 1_555 1_555
C8_4 C9_4 1_555 1_555
C9_4 H8_4 1_555 1_555
H9_4 C9_4 1_555 1_555
C10_4 C9_4 1_555 1_555
H10_4 C10_4 1_555 1_555
H11_4 C10_4 1_555 1_555
C11_4 C10_4 1_555 1_555
H12_4 C11_4 1_555 1_555
H13_4 C11_4 1_555 1_555
C12_4 C11_4 1_555 1_555
N1_4 C1_4 1_555 1_555
N2_4 C6_4 1_555 1_555
O1_4 C8_4 1_555 1_555
O9_2 C8_4 1_555 1_555
O11 C12_4 1_555 1_555
O13_2 C12_4 1_555 1_555
Cu5 N1_4 1_555 1_555
C5_4 N1_4 1_555 1_555
O1_4 Cu5 1_555 1_555
C13_4 H14_4 1_555 1_555
C14_4 C13_4 1_555 1_555
H15_4 C14_4 1_555 1_555
C15_4 C14_4 1_555 1_555
C16_4 C15_4 1_555 1_555
H16_4 C16_4 1_555 1_555
C17_4 C16_4 1_555 1_555
H17_4 C17_4 1_555 1_555
C18_4 C15_4 1_555 1_555
C19_4 C18_4 1_555 1_555
H18_4 C19_4 1_555 1_555
H19_4 C19_4 1_555 1_555
H20_4 C19_4 1_555 1_555
N3_4 C13_4 1_555 1_555
C20_4 C21_4 1_555 1_555
C21_4 H21_4 1_555 1_555
H22_4 C21_4 1_555 1_555
C22_4 C21_4 1_555 1_555
H23_4 C22_4 1_555 1_555
H24_4 C22_4 1_555 1_555
C23_4 C22_4 1_555 1_555
H25_4 C23_4 1_555 1_555
H26_4 C23_4 1_555 1_555
C24_4 C23_4 1_555 1_555
O5_4 C20_4 1_555 1_555
O10_2 C20_4 1_555 1_555
O12 C24_4 1_555 1_555
O14_2 C24_4 1_555 1_555
Cu8 N3_4 1_555 1_555
C17_4 N3_4 1_555 1_555
C18_4 N4_4 1_555 1_555
O5_4 Cu8 1_555 1_555

#END
