
###############################################################################
#
# This file contains modified crystal structure data generated from the
# MOF subset of the Cambridge Structural Database (CSD) v543 
# hosted by the Cambridge Crystallographic Data Centre (CCDC).
#
# This work is licensed under the Creative Commons
# Attribution-NonCommercial-ShareAlike 4.0 International License.
# To view a copy of this license, visit
# http://creativecommons.org/licenses/by-nc-sa/4.0/
# or send a letter to
# Creative Commons, PO Box 1866, Mountain View, CA 94042, USA.
#
# CIF created using the CSD Python API on 29 September 2022
# The structure has been converted into the P1 space group
# The structure has a 3D framework
# The original CSD entry RIPNOV is in the rhombohedral crystal system
# The framework has been calculated to contain at least 10.0% void space
# The void calculation uses a probe of radius 1.32A, grid spacing 0.4
#
###############################################################################

data_RIPNOV
_chemical_formula_moiety         '(C252 H180 N72 Zn12)n'
_symmetry_cell_setting           triclinic
_symmetry_space_group_name_H-M   'P 1'
_symmetry_Int_Tables_number      1
_space_group_name_Hall           'P 1'
loop_
_symmetry_equiv_pos_site_id
_symmetry_equiv_pos_as_xyz
1 x,y,z
_cell_length_a                   22.9416(38)
_cell_length_b                   22.9416(38)
_cell_length_c                   15.7488(48)
_cell_angle_alpha                90
_cell_angle_beta                 90
_cell_angle_gamma                120
_cell_volume                     7178.36
loop_
_atom_site_label
_atom_site_type_symbol
_atom_site_fract_x
_atom_site_fract_y
_atom_site_fract_z
_atom_site_U_iso_or_equiv
_atom_site_thermal_displace_type
C1 C 0.00074 0.365537 0.488410 0.0925 Uiso
N2 N 0.033151 0.348489 0.545520 0.0411 Uiso
C5 C 0.035395 0.191691 0.499490 0.0925 Uiso
D3 D 0.050326 0.163056 0.518829 0.0654 Uiso
C6 C 0.02691 0.288913 0.513306 0.0925 Uiso
C7 C 0.049225 0.247478 0.545881 0.0925 Uiso
D4 D 0.072518 0.257142 0.597078 0.0654 Uiso
Zn2 Zn 0.07116 0.39882 0.66440 0.0964 Uiso
N1 N 0.973210 0.323613 0.423121 0.0411 Uiso
H1 H 0.997745 0.404293 0.494189 0.0654 Uiso
C2 C 0.990519 0.273904 0.436657 0.0925 Uiso
C3 C 0.975720 0.217123 0.390750 0.0925 Uiso
D1 D 0.951377 0.206768 0.340458 0.0654 Uiso
C4 C 0.998765 0.176670 0.422267 0.0925 Uiso
D2 D 0.990024 0.138206 0.392353 0.0654 Uiso
N3 N 0.924437 0.411501 0.354731 0.0411 Uiso
C8 C 0.945637 0.473830 0.330742 0.0925 Uiso
H2 H 0.976089 0.493387 0.286434 0.0654 Uiso
N4 N 0.921772 0.507306 0.372137 0.0411 Uiso
C9 C 0.878941 0.461641 0.430737 0.0925 Uiso
C10 C 0.838741 0.467525 0.49575 0.0925 Uiso
D5 D 0.838722 0.507577 0.503786 0.0654 Uiso
C11 C 0.879870 0.402870 0.421412 0.0925 Uiso
C12 C 0.840141 0.344854 0.474286 0.0925 Uiso
D6 D 0.841187 0.305106 0.467633 0.0654 Uiso
C13 C 0.800515 0.413259 0.545519 0.0925 Uiso
D7 D 0.773710 0.416728 0.587213 0.0654 Uiso
C14 C 0.800236 0.351577 0.536070 0.0925 Uiso
D8 D 0.773270 0.315394 0.571158 0.0654 Uiso
Zn1 Zn 0.93451 0.339 0.33107 0.0964 Uiso
N5 N 0.984844 0.351329 0.212187 0.0411 Uiso
N6 N 0.840639 0.252201 0.294530 0.0411 Uiso
Zn3 Zn 0.92884 0.60118 0.33560 0.0964 Uiso
N1_2 N 0.350403 0.026790 0.423121 0.0411 Uiso
H1_2 H 0.406548 0.002255 0.494189 0.0654 Uiso
C2_2 C 0.283385 0.009481 0.436657 0.0925 Uiso
C3_2 C 0.241403 0.024280 0.390750 0.0925 Uiso
D1_2 D 0.255391 0.048623 0.340458 0.0654 Uiso
C4_2 C 0.177905 0.001235 0.422267 0.0925 Uiso
D2_2 D 0.148182 0.009976 0.392353 0.0654 Uiso
N3_2 N 0.487064 0.075563 0.354731 0.0411 Uiso
C8_2 C 0.528193 0.054363 0.330742 0.0925 Uiso
H2_2 H 0.517298 0.023911 0.286434 0.0654 Uiso
N4_2 N 0.585534 0.078228 0.372137 0.0411 Uiso
C9_2 C 0.582700 0.121059 0.430737 0.0925 Uiso
C10_2 C 0.628784 0.161259 0.49575 0.0925 Uiso
D5_2 D 0.668855 0.161278 0.503786 0.0654 Uiso
C11_2 C 0.523000 0.120130 0.421412 0.0925 Uiso
C12_2 C 0.504713 0.159859 0.474286 0.0925 Uiso
D6_2 D 0.463919 0.158813 0.467633 0.0654 Uiso
C13_2 C 0.612744 0.199485 0.545519 0.0925 Uiso
D7_2 D 0.643018 0.226290 0.587213 0.0654 Uiso
C14_2 C 0.551341 0.199764 0.536070 0.0925 Uiso
D8_2 D 0.542124 0.226730 0.571158 0.0654 Uiso
Zn1_2 Zn 0.40449 0.06549 0.33107 0.0964 Uiso
N5_2 N 0.366484 0.015156 0.212187 0.0411 Uiso
N6_2 N 0.411561 0.159361 0.294530 0.0411 Uiso
Zn3_2 Zn 0.67233 0.07116 0.33560 0.0964 Uiso
C1_2 C 0.364797 0.99926 0.488410 0.0925 Uiso
N2_2 N 0.315338 0.966849 0.545520 0.0411 Uiso
C5_2 C 0.156296 0.964605 0.499490 0.0925 Uiso
D3_2 D 0.112730 0.949674 0.518829 0.0654 Uiso
C6_2 C 0.262003 0.97309 0.513306 0.0925 Uiso
C7_2 C 0.198253 0.950775 0.545881 0.0925 Uiso
D4_2 D 0.184624 0.927482 0.597078 0.0654 Uiso
Zn2_2 Zn 0.32767 0.92884 0.66440 0.0964 Uiso
N1_3 N 0.676387 0.649597 0.423121 0.0411 Uiso
C1_3 C 0.634463 0.635203 0.488410 0.0925 Uiso
H1_3 H 0.595707 0.593452 0.494189 0.0654 Uiso
N2_3 N 0.651511 0.684662 0.545520 0.0411 Uiso
C2_3 C 0.726096 0.716615 0.436657 0.0925 Uiso
C3_3 C 0.782877 0.758597 0.390750 0.0925 Uiso
D1_3 D 0.793232 0.744609 0.340458 0.0654 Uiso
C4_3 C 0.823330 0.822095 0.422267 0.0925 Uiso
D2_3 D 0.861794 0.851818 0.392353 0.0654 Uiso
C5_3 C 0.808309 0.843704 0.499490 0.0925 Uiso
D3_3 D 0.836944 0.887270 0.518829 0.0654 Uiso
C6_3 C 0.711087 0.737997 0.513306 0.0925 Uiso
C7_3 C 0.752522 0.801747 0.545881 0.0925 Uiso
D4_3 D 0.742858 0.815376 0.597078 0.0654 Uiso
N3_3 N 0.588499 0.512936 0.354731 0.0411 Uiso
C8_3 C 0.526170 0.471807 0.330742 0.0925 Uiso
H2_3 H 0.506613 0.482702 0.286434 0.0654 Uiso
N4_3 N 0.492694 0.414466 0.372137 0.0411 Uiso
C9_3 C 0.538359 0.417300 0.430737 0.0925 Uiso
C10_3 C 0.532475 0.371216 0.49575 0.0925 Uiso
D5_3 D 0.492423 0.331145 0.503786 0.0654 Uiso
C11_3 C 0.597130 0.477000 0.421412 0.0925 Uiso
C12_3 C 0.655146 0.495287 0.474286 0.0925 Uiso
D6_3 D 0.694894 0.536081 0.467633 0.0654 Uiso
C13_3 C 0.586741 0.387256 0.545519 0.0925 Uiso
D7_3 D 0.583272 0.356982 0.587213 0.0654 Uiso
C14_3 C 0.648423 0.448659 0.536070 0.0925 Uiso
D8_3 D 0.684606 0.457876 0.571158 0.0654 Uiso
Zn1_3 Zn 0.661 0.59551 0.33107 0.0964 Uiso
N5_3 N 0.648671 0.633516 0.212187 0.0411 Uiso
N6_3 N 0.747799 0.588439 0.294530 0.0411 Uiso
Zn2_3 Zn 0.60118 0.67233 0.66440 0.0964 Uiso
Zn3_3 Zn 0.39882 0.32767 0.33560 0.0964 Uiso
N1_4 N 0.017070 0.360123 0.756454 0.0411 Uiso
C1_4 C 0.031464 0.33259 0.821743 0.0925 Uiso
H1_4 H 0.073215 0.335588 0.827522 0.0654 Uiso
N3_4 N 0.153731 0.408896 0.688064 0.0411 Uiso
C8_4 C 0.194860 0.387696 0.664075 0.0925 Uiso
H2_4 H 0.183965 0.357244 0.619767 0.0654 Uiso
N4_4 N 0.252201 0.411561 0.705470 0.0411 Uiso
C9_4 C 0.249367 0.454392 0.764070 0.0925 Uiso
C10_4 C 0.295451 0.494592 0.82908 0.0925 Uiso
D5_4 D 0.335522 0.494611 0.837119 0.0654 Uiso
C11_4 C 0.189667 0.453463 0.754745 0.0925 Uiso
C12_4 C 0.171380 0.493192 0.807619 0.0925 Uiso
D6_4 D 0.130586 0.492146 0.800966 0.0654 Uiso
C13_4 C 0.279411 0.532818 0.878852 0.0925 Uiso
D7_4 D 0.309685 0.559623 0.920546 0.0654 Uiso
C14_4 C 0.218008 0.533097 0.869403 0.0925 Uiso
D8_4 D 0.208791 0.560063 0.904491 0.0654 Uiso
N6_4 N 0.078228 0.492694 0.627863 0.0411 Uiso
Zn3_4 Zn 0.33900 0.40449 0.66893 0.0964 Uiso
N1_5 N 0.343054 0.982930 0.756454 0.0411 Uiso
C1_5 C 0.301130 0.968536 0.821743 0.0925 Uiso
H1_5 H 0.262374 0.926785 0.827522 0.0654 Uiso
N3_5 N 0.255166 0.846269 0.688064 0.0411 Uiso
C8_5 C 0.192837 0.805140 0.664075 0.0925 Uiso
H2_5 H 0.173280 0.816035 0.619767 0.0654 Uiso
N4_5 N 0.159361 0.747799 0.705470 0.0411 Uiso
C9_5 C 0.205026 0.750633 0.764070 0.0925 Uiso
C10_5 C 0.199142 0.704549 0.82908 0.0925 Uiso
D5_5 D 0.159090 0.664478 0.837119 0.0654 Uiso
C11_5 C 0.263797 0.810333 0.754745 0.0925 Uiso
C12_5 C 0.321813 0.828620 0.807619 0.0925 Uiso
D6_5 D 0.361561 0.869414 0.800966 0.0654 Uiso
C13_5 C 0.253408 0.720589 0.878852 0.0925 Uiso
D7_5 D 0.249939 0.690315 0.920546 0.0654 Uiso
C14_5 C 0.315090 0.781992 0.869403 0.0925 Uiso
D8_5 D 0.351273 0.791209 0.904491 0.0654 Uiso
N6_5 N 0.414466 0.921772 0.627863 0.0411 Uiso
Zn3_5 Zn 0.06549 0.66100 0.66893 0.0964 Uiso
N1_6 N 0.639877 0.656946 0.756454 0.0411 Uiso
C1_6 C 0.66741 0.698870 0.821743 0.0925 Uiso
H1_6 H 0.664412 0.737626 0.827522 0.0654 Uiso
N2_4 N 0.699818 0.681822 0.878853 0.0411 Uiso
C2_4 C 0.657186 0.607237 0.769990 0.0925 Uiso
C3_4 C 0.642387 0.550456 0.724083 0.0925 Uiso
D1_4 D 0.618044 0.540101 0.673791 0.0654 Uiso
C4_4 C 0.665432 0.510003 0.755600 0.0925 Uiso
D2_4 D 0.656691 0.471539 0.725686 0.0654 Uiso
C5_4 C 0.702062 0.525024 0.832823 0.0925 Uiso
D3_4 D 0.716993 0.496389 0.852162 0.0654 Uiso
C6_4 C 0.69358 0.622246 0.846639 0.0925 Uiso
C7_4 C 0.715892 0.580811 0.879214 0.0925 Uiso
D4_4 D 0.739185 0.590475 0.930411 0.0654 Uiso
N3_6 N 0.591104 0.744834 0.688064 0.0411 Uiso
C8_6 C 0.612304 0.807163 0.664075 0.0925 Uiso
H2_6 H 0.642756 0.826720 0.619767 0.0654 Uiso
N4_6 N 0.588439 0.840639 0.705470 0.0411 Uiso
C9_6 C 0.545608 0.794974 0.764070 0.0925 Uiso
C10_6 C 0.505408 0.800858 0.82908 0.0925 Uiso
D5_6 D 0.505389 0.840910 0.837119 0.0654 Uiso
C11_6 C 0.546537 0.736203 0.754745 0.0925 Uiso
C12_6 C 0.506808 0.678187 0.807619 0.0925 Uiso
D6_6 D 0.507854 0.638439 0.800966 0.0654 Uiso
C13_6 C 0.467182 0.746592 0.878852 0.0925 Uiso
D7_6 D 0.440377 0.750061 0.920546 0.0654 Uiso
C14_6 C 0.466903 0.684910 0.869403 0.0925 Uiso
D8_6 D 0.439937 0.648727 0.904491 0.0654 Uiso
N6_6 N 0.507306 0.585534 0.627863 0.0411 Uiso
Zn2_4 Zn 0.73782 0.73216 0.99774 0.0964 Uiso
Zn3_6 Zn 0.59551 0.93451 0.66893 0.0964 Uiso
N1_7 N 0.683736 0.693457 0.089788 0.0411 Uiso
C1_7 C 0.698130 0.66593 0.155077 0.0925 Uiso
H1_7 H 0.739881 0.668922 0.160856 0.0654 Uiso
C2_5 C 0.616718 0.676148 0.103324 0.0925 Uiso
C3_5 C 0.574736 0.690947 0.057417 0.0925 Uiso
D1_5 D 0.588724 0.715290 0.007125 0.0654 Uiso
C4_5 C 0.511238 0.667902 0.088934 0.0925 Uiso
D2_5 D 0.481515 0.676643 0.059020 0.0654 Uiso
C5_5 C 0.489629 0.631272 0.166157 0.0925 Uiso
D3_5 D 0.446063 0.616341 0.185496 0.0654 Uiso
C6_5 C 0.595336 0.63976 0.179973 0.0925 Uiso
C7_5 C 0.531586 0.617442 0.212548 0.0925 Uiso
D4_5 D 0.517957 0.594149 0.263745 0.0654 Uiso
N3_7 N 0.820397 0.742230 0.021398 0.0411 Uiso
N4_7 N 0.918867 0.744895 0.038804 0.0411 Uiso
C9_7 C 0.916033 0.787726 0.097404 0.0925 Uiso
C10_7 C 0.962117 0.827926 0.16242 0.0925 Uiso
C11_7 C 0.856333 0.786797 0.088079 0.0925 Uiso
C12_7 C 0.838046 0.826526 0.140953 0.0925 Uiso
D6_7 D 0.797252 0.825480 0.134300 0.0654 Uiso
C13_7 C 0.946077 0.866152 0.212186 0.0925 Uiso
D7_7 D 0.976351 0.892957 0.253880 0.0654 Uiso
C14_7 C 0.884674 0.866431 0.202737 0.0925 Uiso
D8_7 D 0.875457 0.893397 0.237825 0.0654 Uiso
C8_7 C 0.861526 0.721030 0.997409 0.0925 Uiso
H2_7 H 0.850631 0.690578 0.953101 0.0654 Uiso
N6_7 N 0.744895 0.826027 0.961196 0.0411 Uiso
N6_8 N 0.081133 0.255105 0.961196 0.0411 Uiso
C1_8 C 0.967796 0.301870 0.155077 0.0925 Uiso
H1_8 H 0.929040 0.260119 0.160856 0.0654 Uiso
N3_8 N 0.921832 0.179603 0.021398 0.0411 Uiso
N4_8 N 0.826027 0.081133 0.038804 0.0411 Uiso
C9_8 C 0.871692 0.083967 0.097404 0.0925 Uiso
C10_8 C 0.865808 0.037883 0.16242 0.0925 Uiso
C11_8 C 0.930463 0.143667 0.088079 0.0925 Uiso
C12_8 C 0.988479 0.161954 0.140953 0.0925 Uiso
C13_8 C 0.920074 0.053923 0.212186 0.0925 Uiso
D7_8 D 0.916605 0.023649 0.253880 0.0654 Uiso
C14_8 C 0.981756 0.115326 0.202737 0.0925 Uiso
C1_9 C 0.33407 0.032204 0.155077 0.0925 Uiso
H1_9 H 0.331078 0.070960 0.160856 0.0654 Uiso
N3_9 N 0.257770 0.078168 0.021398 0.0411 Uiso
N4_9 N 0.255105 0.173973 0.038804 0.0411 Uiso
C9_9 C 0.212274 0.128308 0.097404 0.0925 Uiso
C10_9 C 0.172074 0.134192 0.16242 0.0925 Uiso
D5_7 D 0.172055 0.174244 0.170453 0.0654 Uiso
C11_9 C 0.213203 0.069537 0.088079 0.0925 Uiso
C12_9 C 0.173474 0.011521 0.140953 0.0925 Uiso
C13_9 C 0.133848 0.079926 0.212186 0.0925 Uiso
D7_9 D 0.107043 0.083395 0.253880 0.0654 Uiso
C14_9 C 0.133569 0.018244 0.202737 0.0925 Uiso
Zn3_7 Zn 0.26218 0.26784 0.00226 0.0964 Uiso
N6_9 N 0.173973 0.918867 0.961196 0.0411 Uiso
N1_8 N 0.026790 0.676387 0.576879 0.0411 Uiso
H1_10 H 0.002255 0.595707 0.505811 0.0654 Uiso
C2_6 C 0.009481 0.726096 0.563343 0.0925 Uiso
C3_6 C 0.024280 0.782877 0.609250 0.0925 Uiso
D1_6 D 0.048623 0.793232 0.659542 0.0654 Uiso
C4_6 C 0.001235 0.823330 0.577733 0.0925 Uiso
D2_6 D 0.009976 0.861794 0.607647 0.0654 Uiso
N3_10 N 0.075563 0.588499 0.645269 0.0411 Uiso
C8_8 C 0.054363 0.526170 0.669258 0.0925 Uiso
H2_8 H 0.023911 0.506613 0.713566 0.0654 Uiso
C9_10 C 0.121059 0.538359 0.569263 0.0925 Uiso
C10_10 C 0.161259 0.532475 0.50425 0.0925 Uiso
D5_8 D 0.161278 0.492423 0.496214 0.0654 Uiso
C11_10 C 0.120130 0.597130 0.578588 0.0925 Uiso
C12_10 C 0.159859 0.655146 0.525714 0.0925 Uiso
D6_8 D 0.158813 0.694894 0.532367 0.0654 Uiso
C13_10 C 0.199485 0.586741 0.454481 0.0925 Uiso
D7_10 D 0.226290 0.583272 0.412787 0.0654 Uiso
C14_10 C 0.199764 0.648423 0.463930 0.0925 Uiso
D8_8 D 0.226730 0.684606 0.428842 0.0654 Uiso
N5_4 N 0.015156 0.648671 0.787813 0.0411 Uiso
C1_10 C 0.99926 0.634463 0.511590 0.0925 Uiso
N2_5 N 0.966849 0.651511 0.454480 0.0411 Uiso
C5_6 C 0.964605 0.808309 0.500510 0.0925 Uiso
D3_6 D 0.949674 0.836944 0.481171 0.0654 Uiso
C6_6 C 0.97309 0.711087 0.486694 0.0925 Uiso
C7_6 C 0.950775 0.752522 0.454119 0.0925 Uiso
D4_6 D 0.927482 0.742858 0.402922 0.0654 Uiso
C1_11 C 0.635203 0.00074 0.511590 0.0925 Uiso
N2_6 N 0.684662 0.033151 0.454480 0.0411 Uiso
C5_7 C 0.843704 0.035395 0.500510 0.0925 Uiso
D3_7 D 0.887270 0.050326 0.481171 0.0654 Uiso
C6_7 C 0.737997 0.02691 0.486694 0.0925 Uiso
C7_7 C 0.801747 0.049225 0.454119 0.0925 Uiso
D4_7 D 0.815376 0.072518 0.402922 0.0654 Uiso
N1_9 N 0.649597 0.973210 0.576879 0.0411 Uiso
H1_11 H 0.593452 0.997745 0.505811 0.0654 Uiso
C2_7 C 0.716615 0.990519 0.563343 0.0925 Uiso
C3_7 C 0.758597 0.975720 0.609250 0.0925 Uiso
D1_7 D 0.744609 0.951377 0.659542 0.0654 Uiso
C4_7 C 0.822095 0.998765 0.577733 0.0925 Uiso
D2_7 D 0.851818 0.990024 0.607647 0.0654 Uiso
N3_11 N 0.512936 0.924437 0.645269 0.0411 Uiso
C8_9 C 0.471807 0.945637 0.669258 0.0925 Uiso
H2_9 H 0.482702 0.976089 0.713566 0.0654 Uiso
C9_11 C 0.417300 0.878941 0.569263 0.0925 Uiso
C10_11 C 0.371216 0.838741 0.50425 0.0925 Uiso
D5_9 D 0.331145 0.838722 0.496214 0.0654 Uiso
C11_11 C 0.477000 0.879870 0.578588 0.0925 Uiso
C12_11 C 0.495287 0.840141 0.525714 0.0925 Uiso
D6_9 D 0.536081 0.841187 0.532367 0.0654 Uiso
C13_11 C 0.387256 0.800515 0.454481 0.0925 Uiso
D7_11 D 0.356982 0.773710 0.412787 0.0654 Uiso
C14_11 C 0.448659 0.800236 0.463930 0.0925 Uiso
D8_9 D 0.457876 0.773270 0.428842 0.0654 Uiso
N5_5 N 0.633516 0.984844 0.787813 0.0411 Uiso
N1_10 N 0.323613 0.350403 0.576879 0.0411 Uiso
C1_12 C 0.365537 0.364797 0.511590 0.0925 Uiso
H1_12 H 0.404293 0.406548 0.505811 0.0654 Uiso
N2_7 N 0.348489 0.315338 0.454480 0.0411 Uiso
C2_8 C 0.273904 0.283385 0.563343 0.0925 Uiso
C3_8 C 0.217123 0.241403 0.609250 0.0925 Uiso
D1_8 D 0.206768 0.255391 0.659542 0.0654 Uiso
C4_8 C 0.176670 0.177905 0.577733 0.0925 Uiso
D2_8 D 0.138206 0.148182 0.607647 0.0654 Uiso
C5_8 C 0.191691 0.156296 0.500510 0.0925 Uiso
D3_8 D 0.163056 0.112730 0.481171 0.0654 Uiso
C6_8 C 0.288913 0.262003 0.486694 0.0925 Uiso
C7_8 C 0.247478 0.198253 0.454119 0.0925 Uiso
D4_8 D 0.257142 0.184624 0.402922 0.0654 Uiso
N3_12 N 0.411501 0.487064 0.645269 0.0411 Uiso
C8_10 C 0.473830 0.528193 0.669258 0.0925 Uiso
H2_10 H 0.493387 0.517298 0.713566 0.0654 Uiso
C9_12 C 0.461641 0.582700 0.569263 0.0925 Uiso
C10_12 C 0.467525 0.628784 0.50425 0.0925 Uiso
D5_10 D 0.507577 0.668855 0.496214 0.0654 Uiso
C11_12 C 0.402870 0.523000 0.578588 0.0925 Uiso
C12_12 C 0.344854 0.504713 0.525714 0.0925 Uiso
D6_10 D 0.305106 0.463919 0.532367 0.0654 Uiso
C13_12 C 0.413259 0.612744 0.454481 0.0925 Uiso
D7_12 D 0.416728 0.643018 0.412787 0.0654 Uiso
C14_12 C 0.351577 0.551341 0.463930 0.0925 Uiso
D8_10 D 0.315394 0.542124 0.428842 0.0654 Uiso
N5_6 N 0.351329 0.366484 0.787813 0.0411 Uiso
N1_11 N 0.982930 0.639877 0.243546 0.0411 Uiso
C1_13 C 0.968536 0.66741 0.178257 0.0925 Uiso
H1_13 H 0.926785 0.664412 0.172478 0.0654 Uiso
N3_13 N 0.846269 0.591104 0.311936 0.0411 Uiso
C8_11 C 0.805140 0.612304 0.335925 0.0925 Uiso
H2_11 H 0.816035 0.642756 0.380233 0.0654 Uiso
C9_13 C 0.750633 0.545608 0.235930 0.0925 Uiso
C10_13 C 0.704549 0.505408 0.17092 0.0925 Uiso
D5_11 D 0.664478 0.505389 0.162881 0.0654 Uiso
C11_13 C 0.810333 0.546537 0.245255 0.0925 Uiso
C12_13 C 0.828620 0.506808 0.192381 0.0925 Uiso
D6_11 D 0.869414 0.507854 0.199034 0.0654 Uiso
C13_13 C 0.720589 0.467182 0.121148 0.0925 Uiso
D7_13 D 0.690315 0.440377 0.079454 0.0654 Uiso
C14_13 C 0.781992 0.466903 0.130597 0.0925 Uiso
D8_11 D 0.791209 0.439937 0.095509 0.0654 Uiso
N1_12 N 0.656946 0.017070 0.243546 0.0411 Uiso
C1_14 C 0.698870 0.031464 0.178257 0.0925 Uiso
H1_14 H 0.737626 0.073215 0.172478 0.0654 Uiso
N3_14 N 0.744834 0.153731 0.311936 0.0411 Uiso
C8_12 C 0.807163 0.194860 0.335925 0.0925 Uiso
H2_12 H 0.826720 0.183965 0.380233 0.0654 Uiso
C9_14 C 0.794974 0.249367 0.235930 0.0925 Uiso
C10_14 C 0.800858 0.295451 0.17092 0.0925 Uiso
D5_12 D 0.840910 0.335522 0.162881 0.0654 Uiso
C11_14 C 0.736203 0.189667 0.245255 0.0925 Uiso
C12_14 C 0.678187 0.171380 0.192381 0.0925 Uiso
D6_12 D 0.638439 0.130586 0.199034 0.0654 Uiso
C13_14 C 0.746592 0.279411 0.121148 0.0925 Uiso
D7_14 D 0.750061 0.309685 0.079454 0.0654 Uiso
C14_14 C 0.684910 0.218008 0.130597 0.0925 Uiso
D8_12 D 0.648727 0.208791 0.095509 0.0654 Uiso
N1_13 N 0.360123 0.343054 0.243546 0.0411 Uiso
C1_15 C 0.33259 0.301130 0.178257 0.0925 Uiso
H1_15 H 0.335588 0.262374 0.172478 0.0654 Uiso
N2_8 N 0.300182 0.318178 0.121147 0.0411 Uiso
C2_9 C 0.342814 0.392763 0.230010 0.0925 Uiso
C3_9 C 0.357613 0.449544 0.275917 0.0925 Uiso
D1_9 D 0.381956 0.459899 0.326209 0.0654 Uiso
C4_9 C 0.334568 0.489997 0.244400 0.0925 Uiso
D2_9 D 0.343309 0.528461 0.274314 0.0654 Uiso
C5_9 C 0.297938 0.474976 0.167177 0.0925 Uiso
D3_9 D 0.283007 0.503611 0.147838 0.0654 Uiso
C6_9 C 0.30642 0.377754 0.153361 0.0925 Uiso
C7_9 C 0.284108 0.419189 0.120786 0.0925 Uiso
D4_9 D 0.260815 0.409525 0.069589 0.0654 Uiso
N3_15 N 0.408896 0.255166 0.311936 0.0411 Uiso
C8_13 C 0.387696 0.192837 0.335925 0.0925 Uiso
H2_13 H 0.357244 0.173280 0.380233 0.0654 Uiso
C9_15 C 0.454392 0.205026 0.235930 0.0925 Uiso
C10_15 C 0.494592 0.199142 0.17092 0.0925 Uiso
D5_13 D 0.494611 0.159090 0.162881 0.0654 Uiso
C11_15 C 0.453463 0.263797 0.245255 0.0925 Uiso
C12_15 C 0.493192 0.321813 0.192381 0.0925 Uiso
D6_13 D 0.492146 0.361561 0.199034 0.0654 Uiso
C13_15 C 0.532818 0.253408 0.121148 0.0925 Uiso
D7_15 D 0.559623 0.249939 0.079454 0.0654 Uiso
C14_15 C 0.533097 0.315090 0.130597 0.0925 Uiso
D8_13 D 0.560063 0.351273 0.095509 0.0654 Uiso
C8_14 C 0.138474 0.278970 0.002591 0.0925 Uiso
H2_14 H 0.149369 0.309422 0.046899 0.0654 Uiso
N1_14 N 0.316264 0.306543 0.910212 0.0411 Uiso
C1_16 C 0.301870 0.33407 0.844923 0.0925 Uiso
H1_16 H 0.260119 0.331078 0.839144 0.0654 Uiso
C2_10 C 0.383282 0.323852 0.896676 0.0925 Uiso
C3_10 C 0.425264 0.309053 0.942583 0.0925 Uiso
D1_10 D 0.411276 0.284710 0.992875 0.0654 Uiso
C4_10 C 0.488762 0.332098 0.911066 0.0925 Uiso
D2_10 D 0.518485 0.323357 0.940980 0.0654 Uiso
C5_10 C 0.510371 0.368728 0.833843 0.0925 Uiso
D3_10 D 0.553937 0.383659 0.814504 0.0654 Uiso
C6_10 C 0.404664 0.36024 0.820027 0.0925 Uiso
C7_10 C 0.468414 0.382558 0.787452 0.0925 Uiso
D4_10 D 0.482043 0.405851 0.736255 0.0654 Uiso
N3_16 N 0.179603 0.257770 0.978602 0.0411 Uiso
C9_16 C 0.083967 0.212274 0.902596 0.0925 Uiso
C10_16 C 0.037883 0.172074 0.83758 0.0925 Uiso
C11_16 C 0.143667 0.213203 0.911921 0.0925 Uiso
C12_16 C 0.161954 0.173474 0.859047 0.0925 Uiso
D6_14 D 0.202748 0.174520 0.865700 0.0654 Uiso
C13_16 C 0.053923 0.133848 0.787814 0.0925 Uiso
D7_16 D 0.023649 0.107043 0.746120 0.0654 Uiso
C14_16 C 0.115326 0.133569 0.797263 0.0925 Uiso
D8_14 D 0.124543 0.106603 0.762175 0.0654 Uiso
C1_17 C 0.032204 0.698130 0.844923 0.0925 Uiso
H1_17 H 0.070960 0.739881 0.839144 0.0654 Uiso
N3_17 N 0.078168 0.820397 0.978602 0.0411 Uiso
C9_17 C 0.128308 0.916033 0.902596 0.0925 Uiso
C10_17 C 0.134192 0.962117 0.83758 0.0925 Uiso
C11_17 C 0.069537 0.856333 0.911921 0.0925 Uiso
C12_17 C 0.011521 0.838046 0.859047 0.0925 Uiso
C13_17 C 0.079926 0.946077 0.787814 0.0925 Uiso
D7_17 D 0.083395 0.976351 0.746120 0.0654 Uiso
C14_17 C 0.018244 0.884674 0.797263 0.0925 Uiso
C1_18 C 0.66593 0.967796 0.844923 0.0925 Uiso
H1_18 H 0.668922 0.929040 0.839144 0.0654 Uiso
N3_18 N 0.742230 0.921832 0.978602 0.0411 Uiso
C9_18 C 0.787726 0.871692 0.902596 0.0925 Uiso
C10_18 C 0.827926 0.865808 0.83758 0.0925 Uiso
D5_14 D 0.827945 0.825756 0.829547 0.0654 Uiso
C11_18 C 0.786797 0.930463 0.911921 0.0925 Uiso
C12_18 C 0.826526 0.988479 0.859047 0.0925 Uiso
C13_18 C 0.866152 0.920074 0.787814 0.0925 Uiso
D7_18 D 0.892957 0.916605 0.746120 0.0654 Uiso
C14_18 C 0.866431 0.981756 0.797263 0.0925 Uiso
N2_9 N 0.982005 0.300182 0.878853 0.0411 Uiso
C2_11 C 0.950052 0.342814 0.769990 0.0925 Uiso
C3_11 C 0.908070 0.357613 0.724083 0.0925 Uiso
D1_11 D 0.922058 0.381956 0.673791 0.0654 Uiso
C4_11 C 0.844572 0.334568 0.755600 0.0925 Uiso
D2_11 D 0.814849 0.343309 0.725686 0.0654 Uiso
C5_11 C 0.822963 0.297938 0.832823 0.0925 Uiso
D3_11 D 0.779397 0.283007 0.852162 0.0654 Uiso
C6_11 C 0.928670 0.30642 0.846639 0.0925 Uiso
C7_11 C 0.864920 0.284108 0.879214 0.0925 Uiso
D4_11 D 0.851291 0.260815 0.930411 0.0654 Uiso
Zn2_5 Zn 0.99433 0.26218 0.99774 0.0964 Uiso
C8_15 C 0.859503 0.138474 0.997409 0.0925 Uiso
H2_15 H 0.839946 0.149369 0.953101 0.0654 Uiso
D5_15 D 0.997812 0.172055 0.829547 0.0654 Uiso
N2_10 N 0.318178 0.017995 0.878853 0.0411 Uiso
C2_12 C 0.392763 0.049948 0.769990 0.0925 Uiso
C3_12 C 0.449544 0.091930 0.724083 0.0925 Uiso
D1_12 D 0.459899 0.077942 0.673791 0.0654 Uiso
C4_12 C 0.489997 0.155428 0.755600 0.0925 Uiso
D2_12 D 0.528461 0.185151 0.725686 0.0654 Uiso
C5_12 C 0.474976 0.177037 0.832823 0.0925 Uiso
D3_12 D 0.503611 0.220603 0.852162 0.0654 Uiso
C6_12 C 0.377754 0.071330 0.846639 0.0925 Uiso
C7_12 C 0.419189 0.135080 0.879214 0.0925 Uiso
D4_12 D 0.409525 0.148709 0.930411 0.0654 Uiso
Zn2_6 Zn 0.26784 0.00567 0.99774 0.0964 Uiso
C8_16 C 0.278970 0.140497 0.997409 0.0925 Uiso
H2_16 H 0.309422 0.160054 0.953101 0.0654 Uiso
D5_16 D 0.174244 0.002188 0.829547 0.0654 Uiso
D5_17 D 0.002188 0.827945 0.170453 0.0654 Uiso
Zn3_8 Zn 0.00567 0.73782 0.00226 0.0964 Uiso
N2_11 N 0.017995 0.699818 0.121147 0.0411 Uiso
C2_13 C 0.049948 0.657186 0.230010 0.0925 Uiso
C3_13 C 0.091930 0.642387 0.275917 0.0925 Uiso
D1_13 D 0.077942 0.618044 0.326209 0.0654 Uiso
C4_13 C 0.155428 0.665432 0.244400 0.0925 Uiso
D2_13 D 0.185151 0.656691 0.274314 0.0654 Uiso
C5_13 C 0.177037 0.702062 0.167177 0.0925 Uiso
D3_13 D 0.220603 0.716993 0.147838 0.0654 Uiso
C6_13 C 0.071330 0.69358 0.153361 0.0925 Uiso
C7_13 C 0.135080 0.715892 0.120786 0.0925 Uiso
D4_13 D 0.148709 0.739185 0.069589 0.0654 Uiso
C8_17 C 0.140497 0.861526 0.002591 0.0925 Uiso
H2_17 H 0.160054 0.850631 0.046899 0.0654 Uiso
N1_15 N 0.009720 0.316264 0.089788 0.0411 Uiso
C2_14 C 0.059429 0.383282 0.103324 0.0925 Uiso
C3_14 C 0.116210 0.425264 0.057417 0.0925 Uiso
D1_14 D 0.126565 0.411276 0.007125 0.0654 Uiso
C4_14 C 0.156663 0.488762 0.088934 0.0925 Uiso
D2_14 D 0.195127 0.518485 0.059020 0.0654 Uiso
C5_14 C 0.141642 0.510371 0.166157 0.0925 Uiso
D3_14 D 0.170277 0.553937 0.185496 0.0654 Uiso
C6_14 C 0.044420 0.404664 0.179973 0.0925 Uiso
C7_14 C 0.085855 0.468414 0.212548 0.0925 Uiso
D4_14 D 0.076191 0.482043 0.263745 0.0654 Uiso
D6_15 D 0.028227 0.202748 0.134300 0.0654 Uiso
D8_15 D 0.017939 0.124543 0.237825 0.0654 Uiso
D5_18 D 0.825756 0.997812 0.170453 0.0654 Uiso
Zn3_9 Zn 0.73216 0.99433 0.00226 0.0964 Uiso
N2_12 N 0.681822 0.982005 0.121147 0.0411 Uiso
C2_15 C 0.607237 0.950052 0.230010 0.0925 Uiso
C3_15 C 0.550456 0.908070 0.275917 0.0925 Uiso
D1_15 D 0.540101 0.922058 0.326209 0.0654 Uiso
C4_15 C 0.510003 0.844572 0.244400 0.0925 Uiso
D2_15 D 0.471539 0.814849 0.274314 0.0654 Uiso
C5_15 C 0.525024 0.822963 0.167177 0.0925 Uiso
D3_15 D 0.496389 0.779397 0.147838 0.0654 Uiso
C6_15 C 0.622246 0.928670 0.153361 0.0925 Uiso
C7_15 C 0.580811 0.864920 0.120786 0.0925 Uiso
D4_15 D 0.590475 0.851291 0.069589 0.0654 Uiso
C8_18 C 0.721030 0.859503 0.002591 0.0925 Uiso
H2_18 H 0.690578 0.839946 0.046899 0.0654 Uiso
N1_16 N 0.306543 0.990280 0.089788 0.0411 Uiso
C2_16 C 0.323852 0.940571 0.103324 0.0925 Uiso
C3_16 C 0.309053 0.883790 0.057417 0.0925 Uiso
D1_16 D 0.284710 0.873435 0.007125 0.0654 Uiso
C4_16 C 0.332098 0.843337 0.088934 0.0925 Uiso
D2_16 D 0.323357 0.804873 0.059020 0.0654 Uiso
C5_16 C 0.368728 0.858358 0.166157 0.0925 Uiso
D3_16 D 0.383659 0.829723 0.185496 0.0654 Uiso
C6_16 C 0.36024 0.955580 0.179973 0.0925 Uiso
C7_16 C 0.382558 0.914145 0.212548 0.0925 Uiso
D4_16 D 0.405851 0.923809 0.263745 0.0654 Uiso
D6_16 D 0.174520 0.971773 0.134300 0.0654 Uiso
D8_16 D 0.106603 0.982061 0.237825 0.0654 Uiso
N1_17 N 0.990280 0.683736 0.910212 0.0411 Uiso
C2_17 C 0.940571 0.616718 0.896676 0.0925 Uiso
C3_17 C 0.883790 0.574736 0.942583 0.0925 Uiso
D1_17 D 0.873435 0.588724 0.992875 0.0654 Uiso
C4_17 C 0.843337 0.511238 0.911066 0.0925 Uiso
D2_17 D 0.804873 0.481515 0.940980 0.0654 Uiso
C5_17 C 0.858358 0.489629 0.833843 0.0925 Uiso
D3_17 D 0.829723 0.446063 0.814504 0.0654 Uiso
C6_17 C 0.955580 0.595336 0.820027 0.0925 Uiso
C7_17 C 0.914145 0.531586 0.787452 0.0925 Uiso
D4_17 D 0.923809 0.517957 0.736255 0.0654 Uiso
D6_17 D 0.971773 0.797252 0.865700 0.0654 Uiso
D8_17 D 0.982061 0.875457 0.762175 0.0654 Uiso
N1_18 N 0.693457 0.009720 0.910212 0.0411 Uiso
C2_18 C 0.676148 0.059429 0.896676 0.0925 Uiso
C3_18 C 0.690947 0.116210 0.942583 0.0925 Uiso
D1_18 D 0.715290 0.126565 0.992875 0.0654 Uiso
C4_18 C 0.667902 0.156663 0.911066 0.0925 Uiso
D2_18 D 0.676643 0.195127 0.940980 0.0654 Uiso
C5_18 C 0.631272 0.141642 0.833843 0.0925 Uiso
D3_18 D 0.616341 0.170277 0.814504 0.0654 Uiso
C6_18 C 0.63976 0.044420 0.820027 0.0925 Uiso
C7_18 C 0.617442 0.085855 0.787452 0.0925 Uiso
D4_18 D 0.594149 0.076191 0.736255 0.0654 Uiso
D6_18 D 0.825480 0.028227 0.865700 0.0654 Uiso
D8_18 D 0.893397 0.017939 0.762175 0.0654 Uiso
loop_
_geom_bond_atom_site_label_1
_geom_bond_atom_site_label_2
_geom_bond_site_symmetry_1
_geom_bond_site_symmetry_2
N2 C1 1_555 1_555
D3 C5 1_555 1_555
C6 N2 1_555 1_555
C7 C5 1_555 1_555
D4 C7 1_555 1_555
Zn2 N2 1_555 1_555
C6 C7 1_555 1_555
C2 N1 1_555 1_555
C3 C2 1_555 1_555
D1 C3 1_555 1_555
C4 C3 1_555 1_555
D2 C4 1_555 1_555
N3 C8 1_555 1_555
C8 H2 1_555 1_555
N4 C8 1_555 1_555
C9 N4 1_555 1_555
C10 C9 1_555 1_555
D5 C10 1_555 1_555
C11 N3 1_555 1_555
C12 C11 1_555 1_555
D6 C12 1_555 1_555
C13 C10 1_555 1_555
D7 C13 1_555 1_555
C14 C12 1_555 1_555
D8 C14 1_555 1_555
Zn1 N1 1_555 1_555
N5 Zn1 1_555 1_555
N6 Zn1 1_555 1_555
Zn3 N4 1_555 1_555
N3 Zn1 1_555 1_555
C9 C11 1_555 1_555
C13 C14 1_555 1_555
C2_2 N1_2 1_555 1_555
C3_2 C2_2 1_555 1_555
D1_2 C3_2 1_555 1_555
C4_2 C3_2 1_555 1_555
D2_2 C4_2 1_555 1_555
N3_2 C8_2 1_555 1_555
C8_2 H2_2 1_555 1_555
N4_2 C8_2 1_555 1_555
C9_2 N4_2 1_555 1_555
C10_2 C9_2 1_555 1_555
D5_2 C10_2 1_555 1_555
C11_2 N3_2 1_555 1_555
C12_2 C11_2 1_555 1_555
D6_2 C12_2 1_555 1_555
C13_2 C10_2 1_555 1_555
D7_2 C13_2 1_555 1_555
C14_2 C12_2 1_555 1_555
D8_2 C14_2 1_555 1_555
Zn1_2 N1_2 1_555 1_555
N5_2 Zn1_2 1_555 1_555
N6_2 Zn1_2 1_555 1_555
Zn3_2 N4_2 1_555 1_555
N3_2 Zn1_2 1_555 1_555
C9_2 C11_2 1_555 1_555
C13_2 C14_2 1_555 1_555
N2_2 C1_2 1_555 1_555
D3_2 C5_2 1_555 1_555
C6_2 N2_2 1_555 1_555
C7_2 C5_2 1_555 1_555
D4_2 C7_2 1_555 1_555
Zn2_2 N2_2 1_555 1_555
C6_2 C7_2 1_555 1_555
N1_3 C1_3 1_555 1_555
C1_3 H1_3 1_555 1_555
N2_3 C1_3 1_555 1_555
C2_3 N1_3 1_555 1_555
C3_3 C2_3 1_555 1_555
D1_3 C3_3 1_555 1_555
C4_3 C3_3 1_555 1_555
D2_3 C4_3 1_555 1_555
C5_3 C4_3 1_555 1_555
D3_3 C5_3 1_555 1_555
C6_3 N2_3 1_555 1_555
C7_3 C5_3 1_555 1_555
D4_3 C7_3 1_555 1_555
N3_3 C8_3 1_555 1_555
C8_3 H2_3 1_555 1_555
N4_3 C8_3 1_555 1_555
C9_3 N4_3 1_555 1_555
C10_3 C9_3 1_555 1_555
D5_3 C10_3 1_555 1_555
C11_3 N3_3 1_555 1_555
C12_3 C11_3 1_555 1_555
D6_3 C12_3 1_555 1_555
C13_3 C10_3 1_555 1_555
D7_3 C13_3 1_555 1_555
C14_3 C12_3 1_555 1_555
D8_3 C14_3 1_555 1_555
Zn1_3 N1_3 1_555 1_555
N5_3 Zn1_3 1_555 1_555
N6_3 Zn1_3 1_555 1_555
Zn2_3 N2_3 1_555 1_555
Zn3_3 N4_3 1_555 1_555
C2_3 C6_3 1_555 1_555
C6_3 C7_3 1_555 1_555
N3_3 Zn1_3 1_555 1_555
C9_3 C11_3 1_555 1_555
C13_3 C14_3 1_555 1_555
N1_4 C1_4 1_555 1_555
C1_4 H1_4 1_555 1_555
N3_4 C8_4 1_555 1_555
C8_4 H2_4 1_555 1_555
N4_4 C8_4 1_555 1_555
C9_4 N4_4 1_555 1_555
C10_4 C9_4 1_555 1_555
D5_4 C10_4 1_555 1_555
C11_4 N3_4 1_555 1_555
C12_4 C11_4 1_555 1_555
D6_4 C12_4 1_555 1_555
C13_4 C10_4 1_555 1_555
D7_4 C13_4 1_555 1_555
C14_4 C12_4 1_555 1_555
D8_4 C14_4 1_555 1_555
Zn2 N1_4 1_555 1_555
N6_4 Zn2 1_555 1_555
Zn3_4 N4_4 1_555 1_555
N3_4 Zn2 1_555 1_555
C9_4 C11_4 1_555 1_555
C13_4 C14_4 1_555 1_555
N1_5 C1_5 1_555 1_555
C1_5 H1_5 1_555 1_555
N3_5 C8_5 1_555 1_555
C8_5 H2_5 1_555 1_555
N4_5 C8_5 1_555 1_555
C9_5 N4_5 1_555 1_555
C10_5 C9_5 1_555 1_555
D5_5 C10_5 1_555 1_555
C11_5 N3_5 1_555 1_555
C12_5 C11_5 1_555 1_555
D6_5 C12_5 1_555 1_555
C13_5 C10_5 1_555 1_555
D7_5 C13_5 1_555 1_555
C14_5 C12_5 1_555 1_555
D8_5 C14_5 1_555 1_555
Zn2_2 N1_5 1_555 1_555
N6_5 Zn2_2 1_555 1_555
Zn3_5 N4_5 1_555 1_555
N3_5 Zn2_2 1_555 1_555
C9_5 C11_5 1_555 1_555
C13_5 C14_5 1_555 1_555
N1_6 C1_6 1_555 1_555
C1_6 H1_6 1_555 1_555
N2_4 C1_6 1_555 1_555
C2_4 N1_6 1_555 1_555
C3_4 C2_4 1_555 1_555
D1_4 C3_4 1_555 1_555
C4_4 C3_4 1_555 1_555
D2_4 C4_4 1_555 1_555
C5_4 C4_4 1_555 1_555
D3_4 C5_4 1_555 1_555
C6_4 N2_4 1_555 1_555
C7_4 C5_4 1_555 1_555
D4_4 C7_4 1_555 1_555
N3_6 C8_6 1_555 1_555
C8_6 H2_6 1_555 1_555
N4_6 C8_6 1_555 1_555
C9_6 N4_6 1_555 1_555
C10_6 C9_6 1_555 1_555
D5_6 C10_6 1_555 1_555
C11_6 N3_6 1_555 1_555
C12_6 C11_6 1_555 1_555
D6_6 C12_6 1_555 1_555
C13_6 C10_6 1_555 1_555
D7_6 C13_6 1_555 1_555
C14_6 C12_6 1_555 1_555
D8_6 C14_6 1_555 1_555
Zn2_3 N1_6 1_555 1_555
N6_6 Zn2_3 1_555 1_555
Zn2_4 N2_4 1_555 1_555
Zn3_6 N4_6 1_555 1_555
C2_4 C6_4 1_555 1_555
C6_4 C7_4 1_555 1_555
N3_6 Zn2_3 1_555 1_555
C9_6 C11_6 1_555 1_555
C13_6 C14_6 1_555 1_555
N1_7 C1_7 1_555 1_555
C1_7 H1_7 1_555 1_555
N5_3 C1_7 1_555 1_555
C2_5 N1_7 1_555 1_555
C3_5 C2_5 1_555 1_555
D1_5 C3_5 1_555 1_555
C4_5 C3_5 1_555 1_555
D2_5 C4_5 1_555 1_555
C5_5 C4_5 1_555 1_555
D3_5 C5_5 1_555 1_555
C6_5 N5_3 1_555 1_555
C7_5 C5_5 1_555 1_555
D4_5 C7_5 1_555 1_555
C9_7 N4_7 1_555 1_555
C10_7 C9_7 1_555 1_555
C11_7 N3_7 1_555 1_555
C12_7 C11_7 1_555 1_555
D6_7 C12_7 1_555 1_555
C13_7 C10_7 1_555 1_555
D7_7 C13_7 1_555 1_555
C14_7 C12_7 1_555 1_555
D8_7 C14_7 1_555 1_555
C2_5 C6_5 1_555 1_555
C6_5 C7_5 1_555 1_555
C9_7 C11_7 1_555 1_555
C13_7 C14_7 1_555 1_555
C8_7 H2_7 1_555 1_555
N6_7 Zn2_4 1_555 1_555
C1_8 H1_8 1_555 1_555
N5 C1_8 1_555 1_555
C9_8 N4_8 1_555 1_555
C10_8 C9_8 1_555 1_555
C11_8 N3_8 1_555 1_555
C12_8 C11_8 1_555 1_555
C13_8 C10_8 1_555 1_555
D7_8 C13_8 1_555 1_555
C14_8 C12_8 1_555 1_555
C9_8 C11_8 1_555 1_555
C13_8 C14_8 1_555 1_555
C1_9 H1_9 1_555 1_555
N5_2 C1_9 1_555 1_555
C9_9 N4_9 1_555 1_555
C10_9 C9_9 1_555 1_555
D5_7 C10_9 1_555 1_555
C11_9 N3_9 1_555 1_555
C12_9 C11_9 1_555 1_555
C13_9 C10_9 1_555 1_555
D7_9 C13_9 1_555 1_555
C14_9 C12_9 1_555 1_555
Zn3_7 N4_9 1_555 1_555
C9_9 C11_9 1_555 1_555
C13_9 C14_9 1_555 1_555
C2_6 N1_8 1_555 1_555
C3_6 C2_6 1_555 1_555
D1_6 C3_6 1_555 1_555
C4_6 C3_6 1_555 1_555
D2_6 C4_6 1_555 1_555
N3_10 C8_8 1_555 1_555
C8_8 H2_8 1_555 1_555
N6_4 C8_8 1_555 1_555
C9_10 N6_4 1_555 1_555
C10_10 C9_10 1_555 1_555
D5_8 C10_10 1_555 1_555
C11_10 N3_10 1_555 1_555
C12_10 C11_10 1_555 1_555
D6_8 C12_10 1_555 1_555
C13_10 C10_10 1_555 1_555
D7_10 C13_10 1_555 1_555
C14_10 C12_10 1_555 1_555
D8_8 C14_10 1_555 1_555
Zn3_5 N1_8 1_555 1_555
N5_4 Zn3_5 1_555 1_555
N3_10 Zn3_5 1_555 1_555
C9_10 C11_10 1_555 1_555
C13_10 C14_10 1_555 1_555
N2_5 C1_10 1_555 1_555
D3_6 C5_6 1_555 1_555
C6_6 N2_5 1_555 1_555
C7_6 C5_6 1_555 1_555
D4_6 C7_6 1_555 1_555
Zn3 N2_5 1_555 1_555
C6_6 C7_6 1_555 1_555
N2_6 C1_11 1_555 1_555
D3_7 C5_7 1_555 1_555
C6_7 N2_6 1_555 1_555
C7_7 C5_7 1_555 1_555
D4_7 C7_7 1_555 1_555
Zn3_2 N2_6 1_555 1_555
C6_7 C7_7 1_555 1_555
C2_7 N1_9 1_555 1_555
C3_7 C2_7 1_555 1_555
D1_7 C3_7 1_555 1_555
C4_7 C3_7 1_555 1_555
D2_7 C4_7 1_555 1_555
N3_11 C8_9 1_555 1_555
C8_9 H2_9 1_555 1_555
N6_5 C8_9 1_555 1_555
C9_11 N6_5 1_555 1_555
C10_11 C9_11 1_555 1_555
D5_9 C10_11 1_555 1_555
C11_11 N3_11 1_555 1_555
C12_11 C11_11 1_555 1_555
D6_9 C12_11 1_555 1_555
C13_11 C10_11 1_555 1_555
D7_11 C13_11 1_555 1_555
C14_11 C12_11 1_555 1_555
D8_9 C14_11 1_555 1_555
Zn3_6 N1_9 1_555 1_555
N5_5 Zn3_6 1_555 1_555
N3_11 Zn3_6 1_555 1_555
C9_11 C11_11 1_555 1_555
C13_11 C14_11 1_555 1_555
N1_10 C1_12 1_555 1_555
C1_12 H1_12 1_555 1_555
N2_7 C1_12 1_555 1_555
C2_8 N1_10 1_555 1_555
C3_8 C2_8 1_555 1_555
D1_8 C3_8 1_555 1_555
C4_8 C3_8 1_555 1_555
D2_8 C4_8 1_555 1_555
C5_8 C4_8 1_555 1_555
D3_8 C5_8 1_555 1_555
C6_8 N2_7 1_555 1_555
C7_8 C5_8 1_555 1_555
D4_8 C7_8 1_555 1_555
N3_12 C8_10 1_555 1_555
C8_10 H2_10 1_555 1_555
N6_6 C8_10 1_555 1_555
C9_12 N6_6 1_555 1_555
C10_12 C9_12 1_555 1_555
D5_10 C10_12 1_555 1_555
C11_12 N3_12 1_555 1_555
C12_12 C11_12 1_555 1_555
D6_10 C12_12 1_555 1_555
C13_12 C10_12 1_555 1_555
D7_12 C13_12 1_555 1_555
C14_12 C12_12 1_555 1_555
D8_10 C14_12 1_555 1_555
Zn3_4 N1_10 1_555 1_555
N5_6 Zn3_4 1_555 1_555
Zn3_3 N2_7 1_555 1_555
C2_8 C6_8 1_555 1_555
C6_8 C7_8 1_555 1_555
N3_12 Zn3_4 1_555 1_555
C9_12 C11_12 1_555 1_555
C13_12 C14_12 1_555 1_555
N1_11 C1_13 1_555 1_555
C1_13 H1_13 1_555 1_555
N3_13 C8_11 1_555 1_555
C8_11 H2_11 1_555 1_555
N6_3 C8_11 1_555 1_555
C9_13 N6_3 1_555 1_555
C10_13 C9_13 1_555 1_555
D5_11 C10_13 1_555 1_555
C11_13 N3_13 1_555 1_555
C12_13 C11_13 1_555 1_555
D6_11 C12_13 1_555 1_555
C13_13 C10_13 1_555 1_555
D7_13 C13_13 1_555 1_555
C14_13 C12_13 1_555 1_555
D8_11 C14_13 1_555 1_555
Zn3 N1_11 1_555 1_555
N3_13 Zn3 1_555 1_555
C9_13 C11_13 1_555 1_555
C13_13 C14_13 1_555 1_555
N1_12 C1_14 1_555 1_555
C1_14 H1_14 1_555 1_555
N3_14 C8_12 1_555 1_555
C8_12 H2_12 1_555 1_555
N6 C8_12 1_555 1_555
C9_14 N6 1_555 1_555
C10_14 C9_14 1_555 1_555
D5_12 C10_14 1_555 1_555
C11_14 N3_14 1_555 1_555
C12_14 C11_14 1_555 1_555
D6_12 C12_14 1_555 1_555
C13_14 C10_14 1_555 1_555
D7_14 C13_14 1_555 1_555
C14_14 C12_14 1_555 1_555
D8_12 C14_14 1_555 1_555
Zn3_2 N1_12 1_555 1_555
N3_14 Zn3_2 1_555 1_555
C9_14 C11_14 1_555 1_555
C13_14 C14_14 1_555 1_555
N1_13 C1_15 1_555 1_555
C1_15 H1_15 1_555 1_555
N2_8 C1_15 1_555 1_555
C2_9 N1_13 1_555 1_555
C3_9 C2_9 1_555 1_555
D1_9 C3_9 1_555 1_555
C4_9 C3_9 1_555 1_555
D2_9 C4_9 1_555 1_555
C5_9 C4_9 1_555 1_555
D3_9 C5_9 1_555 1_555
C6_9 N2_8 1_555 1_555
C7_9 C5_9 1_555 1_555
D4_9 C7_9 1_555 1_555
N3_15 C8_13 1_555 1_555
C8_13 H2_13 1_555 1_555
N6_2 C8_13 1_555 1_555
C9_15 N6_2 1_555 1_555
C10_15 C9_15 1_555 1_555
D5_13 C10_15 1_555 1_555
C11_15 N3_15 1_555 1_555
C12_15 C11_15 1_555 1_555
D6_13 C12_15 1_555 1_555
C13_15 C10_15 1_555 1_555
D7_15 C13_15 1_555 1_555
C14_15 C12_15 1_555 1_555
D8_13 C14_15 1_555 1_555
Zn3_3 N1_13 1_555 1_555
Zn3_7 N2_8 1_555 1_555
C2_9 C6_9 1_555 1_555
C6_9 C7_9 1_555 1_555
N3_15 Zn3_3 1_555 1_555
C9_15 C11_15 1_555 1_555
C13_15 C14_15 1_555 1_555
C8_14 H2_14 1_555 1_555
N1_14 C1_16 1_555 1_555
C1_16 H1_16 1_555 1_555
N5_6 C1_16 1_555 1_555
C2_10 N1_14 1_555 1_555
C3_10 C2_10 1_555 1_555
D1_10 C3_10 1_555 1_555
C4_10 C3_10 1_555 1_555
D2_10 C4_10 1_555 1_555
C5_10 C4_10 1_555 1_555
D3_10 C5_10 1_555 1_555
C6_10 N5_6 1_555 1_555
C7_10 C5_10 1_555 1_555
D4_10 C7_10 1_555 1_555
C9_16 N6_8 1_555 1_555
C10_16 C9_16 1_555 1_555
C11_16 N3_16 1_555 1_555
C12_16 C11_16 1_555 1_555
D6_14 C12_16 1_555 1_555
C13_16 C10_16 1_555 1_555
D7_16 C13_16 1_555 1_555
C14_16 C12_16 1_555 1_555
D8_14 C14_16 1_555 1_555
C2_10 C6_10 1_555 1_555
C6_10 C7_10 1_555 1_555
C9_16 C11_16 1_555 1_555
C13_16 C14_16 1_555 1_555
C1_17 H1_17 1_555 1_555
N5_4 C1_17 1_555 1_555
C9_17 N6_9 1_555 1_555
C10_17 C9_17 1_555 1_555
C11_17 N3_17 1_555 1_555
C12_17 C11_17 1_555 1_555
C13_17 C10_17 1_555 1_555
D7_17 C13_17 1_555 1_555
C14_17 C12_17 1_555 1_555
C9_17 C11_17 1_555 1_555
C13_17 C14_17 1_555 1_555
C1_18 H1_18 1_555 1_555
N5_5 C1_18 1_555 1_555
C9_18 N6_7 1_555 1_555
C10_18 C9_18 1_555 1_555
D5_14 C10_18 1_555 1_555
C11_18 N3_18 1_555 1_555
C12_18 C11_18 1_555 1_555
C13_18 C10_18 1_555 1_555
D7_18 C13_18 1_555 1_555
C14_18 C12_18 1_555 1_555
C9_18 C11_18 1_555 1_555
C13_18 C14_18 1_555 1_555
C3_11 C2_11 1_555 1_555
D1_11 C3_11 1_555 1_555
C4_11 C3_11 1_555 1_555
D2_11 C4_11 1_555 1_555
C5_11 C4_11 1_555 1_555
D3_11 C5_11 1_555 1_555
C6_11 N2_9 1_555 1_555
C7_11 C5_11 1_555 1_555
D4_11 C7_11 1_555 1_555
Zn2_5 N2_9 1_555 1_555
C2_11 C6_11 1_555 1_555
C6_11 C7_11 1_555 1_555
C8_15 H2_15 1_555 1_555
C3_12 C2_12 1_555 1_555
D1_12 C3_12 1_555 1_555
C4_12 C3_12 1_555 1_555
D2_12 C4_12 1_555 1_555
C5_12 C4_12 1_555 1_555
D3_12 C5_12 1_555 1_555
C6_12 N2_10 1_555 1_555
C7_12 C5_12 1_555 1_555
D4_12 C7_12 1_555 1_555
Zn2_6 N2_10 1_555 1_555
C2_12 C6_12 1_555 1_555
C6_12 C7_12 1_555 1_555
C8_16 H2_16 1_555 1_555
C3_13 C2_13 1_555 1_555
D1_13 C3_13 1_555 1_555
C4_13 C3_13 1_555 1_555
D2_13 C4_13 1_555 1_555
C5_13 C4_13 1_555 1_555
D3_13 C5_13 1_555 1_555
C6_13 N2_11 1_555 1_555
C7_13 C5_13 1_555 1_555
D4_13 C7_13 1_555 1_555
Zn3_8 N2_11 1_555 1_555
C2_13 C6_13 1_555 1_555
C6_13 C7_13 1_555 1_555
C8_17 H2_17 1_555 1_555
C2_14 N1_15 1_555 1_555
C3_14 C2_14 1_555 1_555
D1_14 C3_14 1_555 1_555
C4_14 C3_14 1_555 1_555
D2_14 C4_14 1_555 1_555
C5_14 C4_14 1_555 1_555
D3_14 C5_14 1_555 1_555
C7_14 C5_14 1_555 1_555
D4_14 C7_14 1_555 1_555
C2_14 C6_14 1_555 1_555
C6_14 C7_14 1_555 1_555
C3_15 C2_15 1_555 1_555
D1_15 C3_15 1_555 1_555
C4_15 C3_15 1_555 1_555
D2_15 C4_15 1_555 1_555
C5_15 C4_15 1_555 1_555
D3_15 C5_15 1_555 1_555
C6_15 N2_12 1_555 1_555
C7_15 C5_15 1_555 1_555
D4_15 C7_15 1_555 1_555
Zn3_9 N2_12 1_555 1_555
C2_15 C6_15 1_555 1_555
C6_15 C7_15 1_555 1_555
C8_18 H2_18 1_555 1_555
C2_16 N1_16 1_555 1_555
C3_16 C2_16 1_555 1_555
D1_16 C3_16 1_555 1_555
C4_16 C3_16 1_555 1_555
D2_16 C4_16 1_555 1_555
C5_16 C4_16 1_555 1_555
D3_16 C5_16 1_555 1_555
C7_16 C5_16 1_555 1_555
D4_16 C7_16 1_555 1_555
C2_16 C6_16 1_555 1_555
C6_16 C7_16 1_555 1_555
C2_17 N1_17 1_555 1_555
C3_17 C2_17 1_555 1_555
D1_17 C3_17 1_555 1_555
C4_17 C3_17 1_555 1_555
D2_17 C4_17 1_555 1_555
C5_17 C4_17 1_555 1_555
D3_17 C5_17 1_555 1_555
C7_17 C5_17 1_555 1_555
D4_17 C7_17 1_555 1_555
C2_17 C6_17 1_555 1_555
C6_17 C7_17 1_555 1_555
C2_18 N1_18 1_555 1_555
C3_18 C2_18 1_555 1_555
D1_18 C3_18 1_555 1_555
C4_18 C3_18 1_555 1_555
D2_18 C4_18 1_555 1_555
C5_18 C4_18 1_555 1_555
D3_18 C5_18 1_555 1_555
C7_18 C5_18 1_555 1_555
D4_18 C7_18 1_555 1_555
C2_18 C6_18 1_555 1_555
C6_18 C7_18 1_555 1_555

#END
