
###############################################################################
#
# This file contains modified crystal structure data generated from the
# MOF subset of the Cambridge Structural Database (CSD) v543 
# hosted by the Cambridge Crystallographic Data Centre (CCDC).
#
# This work is licensed under the Creative Commons
# Attribution-NonCommercial-ShareAlike 4.0 International License.
# To view a copy of this license, visit
# http://creativecommons.org/licenses/by-nc-sa/4.0/
# or send a letter to
# Creative Commons, PO Box 1866, Mountain View, CA 94042, USA.
#
# CIF created using the CSD Python API on 29 September 2022
# The structure has been converted into the P1 space group
# The structure has a 3D framework
# The original CSD entry RIPNUB is in the rhombohedral crystal system
# The framework has been calculated to contain at least 10.0% void space
# The void calculation uses a probe of radius 1.32A, grid spacing 0.4
#
###############################################################################

data_RIPNUB
_chemical_formula_moiety         '(C252 H180 N72 Zn12)n'
_symmetry_cell_setting           triclinic
_symmetry_space_group_name_H-M   'P 1'
_symmetry_Int_Tables_number      1
_space_group_name_Hall           'P 1'
loop_
_symmetry_equiv_pos_site_id
_symmetry_equiv_pos_as_xyz
1 x,y,z
_cell_length_a                   23.0051(51)
_cell_length_b                   23.0051(51)
_cell_length_c                   15.7608(56)
_cell_angle_alpha                90
_cell_angle_beta                 90
_cell_angle_gamma                120
_cell_volume                     7223.66
loop_
_atom_site_label
_atom_site_type_symbol
_atom_site_fract_x
_atom_site_fract_y
_atom_site_fract_z
_atom_site_U_iso_or_equiv
_atom_site_thermal_displace_type
N2 N 0.0234 0.342524 0.551222 0.0136 Uiso
C4 C 0.006278 0.179389 0.423425 0.0335 Uiso
D2 D 0.001462 0.142859 0.392439 0.0309 Uiso
C5 C 0.039778 0.194192 0.502849 0.0335 Uiso
D3 D 0.056629 0.167367 0.522542 0.0309 Uiso
C6 C 0.0229 0.286072 0.517738 0.0335 Uiso
C7 C 0.047829 0.247169 0.550856 0.0335 Uiso
D4 D 0.069038 0.256626 0.603450 0.0309 Uiso
Zn2 Zn 0.06086 0.39908 0.65396 0.0114 Uiso
N1 N 0.968443 0.317896 0.425207 0.0136 Uiso
C1 C 0.990944 0.358089 0.492637 0.0335 Uiso
H1 H 0.984606 0.394736 0.498866 0.0309 Uiso
C2 C 0.989623 0.271280 0.438902 0.0335 Uiso
C3 C 0.980629 0.217264 0.391305 0.0335 Uiso
D1 D 0.958354 0.207039 0.339542 0.0309 Uiso
N3 N 0.926009 0.415627 0.353762 0.0136 Uiso
C8 C 0.947096 0.476513 0.324634 0.0335 Uiso
H2 H 0.975760 0.493133 0.278270 0.0309 Uiso
N4 N 0.925759 0.512880 0.363925 0.0136 Uiso
C9 C 0.884977 0.471057 0.426802 0.0335 Uiso
C10 C 0.847957 0.481320 0.492109 0.0335 Uiso
D5 D 0.848963 0.521997 0.497088 0.0309 Uiso
C11 C 0.884487 0.411486 0.421933 0.0335 Uiso
C12 C 0.846323 0.356880 0.479964 0.0335 Uiso
D6 D 0.846390 0.316563 0.476317 0.0309 Uiso
C13 C 0.811220 0.430282 0.546726 0.0335 Uiso
D7 D 0.786462 0.436579 0.588655 0.0309 Uiso
C14 C 0.809481 0.367804 0.541982 0.0335 Uiso
D8 D 0.783603 0.333907 0.580332 0.0309 Uiso
Zn1 Zn 0.93425 0.32844 0.32063 0.0114 Uiso
N5 N 0.990809 0.347543 0.217889 0.0136 Uiso
N6 N 0.846213 0.253788 0.302742 0.0136 Uiso
Zn3 Zn 0.93914 0.60092 0.34604 0.0114 Uiso
N1_2 N 0.349453 0.031557 0.425207 0.0136 Uiso
C1_2 C 0.367145 0.009056 0.492637 0.0335 Uiso
H1_2 H 0.410130 0.015394 0.498866 0.0309 Uiso
C2_2 C 0.281657 0.010377 0.438902 0.0335 Uiso
C3_2 C 0.236635 0.019371 0.391305 0.0335 Uiso
D1_2 D 0.248685 0.041646 0.339542 0.0309 Uiso
N3_2 N 0.489618 0.073991 0.353762 0.0136 Uiso
C8_2 C 0.529417 0.052904 0.324634 0.0335 Uiso
H2_2 H 0.517373 0.024240 0.278270 0.0309 Uiso
N4_2 N 0.587121 0.074241 0.363925 0.0136 Uiso
C9_2 C 0.586080 0.115023 0.426802 0.0335 Uiso
C10_2 C 0.633363 0.152043 0.492109 0.0335 Uiso
D5_2 D 0.673034 0.151037 0.497088 0.0309 Uiso
C11_2 C 0.526999 0.115513 0.421933 0.0335 Uiso
C12_2 C 0.510557 0.153677 0.479964 0.0335 Uiso
D6_2 D 0.470173 0.153610 0.476317 0.0309 Uiso
C13_2 C 0.619062 0.188780 0.546726 0.0335 Uiso
D7_2 D 0.650117 0.213538 0.588655 0.0309 Uiso
C14_2 C 0.558323 0.190519 0.541982 0.0335 Uiso
D8_2 D 0.550304 0.216397 0.580332 0.0309 Uiso
Zn1_2 Zn 0.39419 0.06575 0.32063 0.0114 Uiso
N5_2 N 0.356733 0.009191 0.217889 0.0136 Uiso
N6_2 N 0.407574 0.153787 0.302742 0.0136 Uiso
Zn3_2 Zn 0.66177 0.06086 0.34604 0.0114 Uiso
N2_2 N 0.319124 0.9766 0.551222 0.0136 Uiso
C4_2 C 0.173111 0.993722 0.423425 0.0335 Uiso
D2_2 D 0.141397 0.998538 0.392439 0.0309 Uiso
C5_2 C 0.154414 0.960222 0.502849 0.0335 Uiso
D3_2 D 0.110738 0.943371 0.522542 0.0309 Uiso
C6_2 C 0.263172 0.9771 0.517738 0.0335 Uiso
C7_2 C 0.199340 0.952171 0.550856 0.0335 Uiso
D4_2 D 0.187588 0.930962 0.603450 0.0309 Uiso
Zn2_2 Zn 0.33823 0.93914 0.65396 0.0114 Uiso
N1_3 N 0.682104 0.650547 0.425207 0.0136 Uiso
C1_3 C 0.641911 0.632855 0.492637 0.0335 Uiso
H1_3 H 0.605264 0.589870 0.498866 0.0309 Uiso
N2_3 N 0.657476 0.680876 0.551222 0.0136 Uiso
C2_3 C 0.728720 0.718343 0.438902 0.0335 Uiso
C3_3 C 0.782736 0.763365 0.391305 0.0335 Uiso
D1_3 D 0.792961 0.751315 0.339542 0.0309 Uiso
C4_3 C 0.820611 0.826889 0.423425 0.0335 Uiso
D2_3 D 0.857141 0.858603 0.392439 0.0309 Uiso
C5_3 C 0.805808 0.845586 0.502849 0.0335 Uiso
D3_3 D 0.832633 0.889262 0.522542 0.0309 Uiso
C6_3 C 0.713928 0.736828 0.517738 0.0335 Uiso
C7_3 C 0.752831 0.800660 0.550856 0.0335 Uiso
D4_3 D 0.743374 0.812412 0.603450 0.0309 Uiso
N3_3 N 0.584373 0.510382 0.353762 0.0136 Uiso
C8_3 C 0.523487 0.470583 0.324634 0.0335 Uiso
H2_3 H 0.506867 0.482627 0.278270 0.0309 Uiso
N4_3 N 0.487120 0.412879 0.363925 0.0136 Uiso
C9_3 C 0.528943 0.413920 0.426802 0.0335 Uiso
C10_3 C 0.518680 0.366637 0.492109 0.0335 Uiso
D5_3 D 0.478003 0.326966 0.497088 0.0309 Uiso
C11_3 C 0.588514 0.473001 0.421933 0.0335 Uiso
C12_3 C 0.643120 0.489443 0.479964 0.0335 Uiso
D6_3 D 0.683437 0.529827 0.476317 0.0309 Uiso
C13_3 C 0.569718 0.380938 0.546726 0.0335 Uiso
D7_3 D 0.563421 0.349883 0.588655 0.0309 Uiso
C14_3 C 0.632196 0.441677 0.541982 0.0335 Uiso
D8_3 D 0.666093 0.449696 0.580332 0.0309 Uiso
Zn1_3 Zn 0.67156 0.60581 0.32063 0.0114 Uiso
N5_3 N 0.652457 0.643267 0.217889 0.0136 Uiso
N6_3 N 0.746212 0.592426 0.302742 0.0136 Uiso
Zn2_3 Zn 0.60092 0.66177 0.65396 0.0114 Uiso
Zn3_3 Zn 0.39908 0.33823 0.34604 0.0114 Uiso
N1_4 N 0.016120 0.364890 0.758540 0.0136 Uiso
C1_4 C 0.033812 0.342389 0.825970 0.0335 Uiso
H1_4 H 0.076797 0.348727 0.832199 0.0309 Uiso
N3_4 N 0.156285 0.407324 0.687095 0.0136 Uiso
C8_4 C 0.196084 0.386237 0.657967 0.0335 Uiso
H2_4 H 0.184040 0.357573 0.611603 0.0309 Uiso
N4_4 N 0.253788 0.407574 0.697258 0.0136 Uiso
C9_4 C 0.252747 0.448356 0.760135 0.0335 Uiso
C10_4 C 0.300030 0.485376 0.825442 0.0335 Uiso
D5_4 D 0.339701 0.484370 0.830421 0.0309 Uiso
C11_4 C 0.193666 0.448846 0.755266 0.0335 Uiso
C12_4 C 0.177224 0.487010 0.813297 0.0335 Uiso
D6_4 D 0.136840 0.486943 0.809650 0.0309 Uiso
C13_4 C 0.285729 0.522113 0.880059 0.0335 Uiso
D7_4 D 0.316784 0.546871 0.921988 0.0309 Uiso
C14_4 C 0.224990 0.523852 0.875315 0.0335 Uiso
D8_4 D 0.216971 0.549730 0.913665 0.0309 Uiso
N6_4 N 0.074241 0.487120 0.636075 0.0136 Uiso
Zn2_4 Zn 0.00489 0.27248 0.98730 0.0114 Uiso
Zn3_4 Zn 0.32844 0.39419 0.67937 0.0114 Uiso
N1_5 N 0.348771 0.983880 0.758540 0.0136 Uiso
C1_5 C 0.308578 0.966188 0.825970 0.0335 Uiso
H1_5 H 0.271931 0.923203 0.832199 0.0309 Uiso
N3_5 N 0.251040 0.843715 0.687095 0.0136 Uiso
C8_5 C 0.190154 0.803916 0.657967 0.0335 Uiso
H2_5 H 0.173534 0.815960 0.611603 0.0309 Uiso
N4_5 N 0.153787 0.746212 0.697258 0.0136 Uiso
C9_5 C 0.195610 0.747253 0.760135 0.0335 Uiso
C10_5 C 0.185347 0.699970 0.825442 0.0335 Uiso
D5_5 D 0.144670 0.660299 0.830421 0.0309 Uiso
C11_5 C 0.255181 0.806334 0.755266 0.0335 Uiso
C12_5 C 0.309787 0.822776 0.813297 0.0335 Uiso
D6_5 D 0.350104 0.863160 0.809650 0.0309 Uiso
C13_5 C 0.236385 0.714271 0.880059 0.0335 Uiso
D7_5 D 0.230088 0.683216 0.921988 0.0309 Uiso
C14_5 C 0.298863 0.775010 0.875315 0.0335 Uiso
D8_5 D 0.332760 0.783029 0.913665 0.0309 Uiso
N6_5 N 0.412879 0.925759 0.636075 0.0136 Uiso
Zn2_5 Zn 0.26758 0.99511 0.98730 0.0114 Uiso
Zn3_5 Zn 0.06575 0.67156 0.67937 0.0114 Uiso
N1_6 N 0.635110 0.651229 0.758540 0.0136 Uiso
C1_6 C 0.657611 0.691422 0.825970 0.0335 Uiso
H1_6 H 0.651273 0.728069 0.832199 0.0309 Uiso
N2_4 N 0.6901 0.675857 0.884555 0.0136 Uiso
C2_4 C 0.656290 0.604613 0.772235 0.0335 Uiso
C3_4 C 0.647296 0.550597 0.724638 0.0335 Uiso
D1_4 D 0.625021 0.540372 0.672875 0.0309 Uiso
C4_4 C 0.672945 0.512722 0.756758 0.0335 Uiso
D2_4 D 0.668129 0.476192 0.725772 0.0309 Uiso
C5_4 C 0.706445 0.527525 0.836182 0.0335 Uiso
D3_4 D 0.723296 0.500700 0.855875 0.0309 Uiso
C6_4 C 0.6896 0.619405 0.851071 0.0335 Uiso
C7_4 C 0.714496 0.580502 0.884189 0.0335 Uiso
D4_4 D 0.735705 0.589959 0.936783 0.0309 Uiso
N3_6 N 0.592676 0.748960 0.687095 0.0136 Uiso
C8_6 C 0.613763 0.809846 0.657967 0.0335 Uiso
H2_6 H 0.642427 0.826466 0.611603 0.0309 Uiso
N4_6 N 0.592426 0.846213 0.697258 0.0136 Uiso
C9_6 C 0.551644 0.804390 0.760135 0.0335 Uiso
C10_6 C 0.514624 0.814653 0.825442 0.0335 Uiso
D5_6 D 0.515630 0.855330 0.830421 0.0309 Uiso
C11_6 C 0.551154 0.744819 0.755266 0.0335 Uiso
C12_6 C 0.512990 0.690213 0.813297 0.0335 Uiso
D6_6 D 0.513057 0.649896 0.809650 0.0309 Uiso
C13_6 C 0.477887 0.763615 0.880059 0.0335 Uiso
D7_6 D 0.453129 0.769912 0.921988 0.0309 Uiso
C14_6 C 0.476148 0.701137 0.875315 0.0335 Uiso
D8_6 D 0.450270 0.667240 0.913665 0.0309 Uiso
N6_6 N 0.512880 0.587121 0.636075 0.0136 Uiso
Zn2_6 Zn 0.72752 0.73242 0.98730 0.0114 Uiso
Zn3_6 Zn 0.60581 0.93425 0.67937 0.0114 Uiso
N1_7 N 0.682786 0.698224 0.091874 0.0136 Uiso
C1_7 C 0.700478 0.675723 0.159304 0.0335 Uiso
H1_7 H 0.743463 0.682061 0.165533 0.0309 Uiso
C2_5 C 0.614990 0.677044 0.105569 0.0335 Uiso
C3_5 C 0.569968 0.686038 0.057972 0.0335 Uiso
D1_5 D 0.582018 0.708313 0.006209 0.0309 Uiso
C4_5 C 0.506444 0.660389 0.090092 0.0335 Uiso
D2_5 D 0.474730 0.665205 0.059106 0.0309 Uiso
C5_5 C 0.487747 0.626889 0.169516 0.0335 Uiso
D3_5 D 0.444071 0.610038 0.189209 0.0309 Uiso
C6_5 C 0.596505 0.6438 0.184405 0.0335 Uiso
C7_5 C 0.532673 0.618838 0.217523 0.0335 Uiso
D4_5 D 0.520921 0.597629 0.270117 0.0309 Uiso
N3_7 N 0.822951 0.740658 0.020429 0.0136 Uiso
N4_7 N 0.920454 0.740908 0.030592 0.0136 Uiso
C9_7 C 0.919413 0.781690 0.093469 0.0335 Uiso
C10_7 C 0.966696 0.818710 0.158776 0.0335 Uiso
C11_7 C 0.860332 0.782180 0.088600 0.0335 Uiso
C12_7 C 0.843890 0.820344 0.146631 0.0335 Uiso
D6_7 D 0.803506 0.820277 0.142984 0.0309 Uiso
C13_7 C 0.952395 0.855447 0.213393 0.0335 Uiso
D7_7 D 0.983450 0.880205 0.255322 0.0309 Uiso
C14_7 C 0.891656 0.857186 0.208649 0.0335 Uiso
D8_7 D 0.883637 0.883064 0.246999 0.0309 Uiso
Zn3_7 Zn 0.99511 0.72752 0.01270 0.0114 Uiso
C8_7 C 0.862750 0.719571 0.991301 0.0335 Uiso
H2_7 H 0.850706 0.690907 0.944937 0.0309 Uiso
N6_7 N 0.740908 0.820453 0.969408 0.0136 Uiso
N6_8 N 0.079546 0.259092 0.969408 0.0136 Uiso
C1_8 C 0.975244 0.299522 0.159304 0.0335 Uiso
H1_8 H 0.938597 0.256537 0.165533 0.0309 Uiso
N3_8 N 0.917706 0.177049 0.020429 0.0136 Uiso
N4_8 N 0.820453 0.079546 0.030592 0.0136 Uiso
C9_8 C 0.862276 0.080587 0.093469 0.0335 Uiso
C10_8 C 0.852013 0.033304 0.158776 0.0335 Uiso
C11_8 C 0.921847 0.139668 0.088600 0.0335 Uiso
C12_8 C 0.976453 0.156110 0.146631 0.0335 Uiso
C13_8 C 0.903051 0.047605 0.213393 0.0335 Uiso
D7_8 D 0.896754 0.016550 0.255322 0.0309 Uiso
C14_8 C 0.965529 0.108344 0.208649 0.0335 Uiso
D8_8 D 0.999426 0.116363 0.246999 0.0309 Uiso
Zn3_8 Zn 0.73242 0.00489 0.01270 0.0114 Uiso
C1_9 C 0.324277 0.024756 0.159304 0.0335 Uiso
H1_9 H 0.317939 0.061403 0.165533 0.0309 Uiso
N3_9 N 0.259342 0.082294 0.020429 0.0136 Uiso
N4_9 N 0.259092 0.179547 0.030592 0.0136 Uiso
C9_9 C 0.218310 0.137724 0.093469 0.0335 Uiso
C10_9 C 0.181290 0.147987 0.158776 0.0335 Uiso
D5_7 D 0.182296 0.188664 0.163755 0.0309 Uiso
C11_9 C 0.217820 0.078153 0.088600 0.0335 Uiso
C12_9 C 0.179656 0.023547 0.146631 0.0335 Uiso
C13_9 C 0.144553 0.096949 0.213393 0.0335 Uiso
D7_9 D 0.119795 0.103246 0.255322 0.0309 Uiso
C14_9 C 0.142814 0.034471 0.208649 0.0335 Uiso
D8_9 D 0.116936 0.000574 0.246999 0.0309 Uiso
Zn3_9 Zn 0.27248 0.26758 0.01270 0.0114 Uiso
N6_9 N 0.179547 0.920454 0.969408 0.0136 Uiso
N1_8 N 0.031557 0.682104 0.574793 0.0136 Uiso
C1_10 C 0.009056 0.641911 0.507363 0.0335 Uiso
H1_10 H 0.015394 0.605264 0.501134 0.0309 Uiso
C2_6 C 0.010377 0.728720 0.561098 0.0335 Uiso
C3_6 C 0.019371 0.782736 0.608695 0.0335 Uiso
D1_6 D 0.041646 0.792961 0.660458 0.0309 Uiso
N3_10 N 0.073991 0.584373 0.646238 0.0136 Uiso
C8_8 C 0.052904 0.523487 0.675366 0.0335 Uiso
H2_8 H 0.024240 0.506867 0.721730 0.0309 Uiso
C9_10 C 0.115023 0.528943 0.573198 0.0335 Uiso
C10_10 C 0.152043 0.518680 0.507891 0.0335 Uiso
D5_8 D 0.151037 0.478003 0.502912 0.0309 Uiso
C11_10 C 0.115513 0.588514 0.578067 0.0335 Uiso
C12_10 C 0.153677 0.643120 0.520036 0.0335 Uiso
D6_8 D 0.153610 0.683437 0.523683 0.0309 Uiso
C13_10 C 0.188780 0.569718 0.453274 0.0335 Uiso
D7_10 D 0.213538 0.563421 0.411345 0.0309 Uiso
C14_10 C 0.190519 0.632196 0.458018 0.0335 Uiso
D8_10 D 0.216397 0.666093 0.419668 0.0309 Uiso
N5_4 N 0.009191 0.652457 0.782111 0.0136 Uiso
N2_5 N 0.9766 0.657476 0.448778 0.0136 Uiso
C4_6 C 0.993722 0.820611 0.576575 0.0335 Uiso
D2_6 D 0.998538 0.857141 0.607561 0.0309 Uiso
C5_6 C 0.960222 0.805808 0.497151 0.0335 Uiso
D3_6 D 0.943371 0.832633 0.477458 0.0309 Uiso
C6_6 C 0.9771 0.713928 0.482262 0.0335 Uiso
C7_6 C 0.952171 0.752831 0.449144 0.0335 Uiso
D4_6 D 0.930962 0.743374 0.396550 0.0309 Uiso
N2_6 N 0.680876 0.0234 0.448778 0.0136 Uiso
C4_7 C 0.826889 0.006278 0.576575 0.0335 Uiso
D2_7 D 0.858603 0.001462 0.607561 0.0309 Uiso
C5_7 C 0.845586 0.039778 0.497151 0.0335 Uiso
D3_7 D 0.889262 0.056629 0.477458 0.0309 Uiso
C6_7 C 0.736828 0.0229 0.482262 0.0335 Uiso
C7_7 C 0.800660 0.047829 0.449144 0.0335 Uiso
D4_7 D 0.812412 0.069038 0.396550 0.0309 Uiso
N1_9 N 0.650547 0.968443 0.574793 0.0136 Uiso
C1_11 C 0.632855 0.990944 0.507363 0.0335 Uiso
H1_11 H 0.589870 0.984606 0.501134 0.0309 Uiso
C2_7 C 0.718343 0.989623 0.561098 0.0335 Uiso
C3_7 C 0.763365 0.980629 0.608695 0.0335 Uiso
D1_7 D 0.751315 0.958354 0.660458 0.0309 Uiso
N3_11 N 0.510382 0.926009 0.646238 0.0136 Uiso
C8_9 C 0.470583 0.947096 0.675366 0.0335 Uiso
H2_9 H 0.482627 0.975760 0.721730 0.0309 Uiso
C9_11 C 0.413920 0.884977 0.573198 0.0335 Uiso
C10_11 C 0.366637 0.847957 0.507891 0.0335 Uiso
D5_9 D 0.326966 0.848963 0.502912 0.0309 Uiso
C11_11 C 0.473001 0.884487 0.578067 0.0335 Uiso
C12_11 C 0.489443 0.846323 0.520036 0.0335 Uiso
D6_9 D 0.529827 0.846390 0.523683 0.0309 Uiso
C13_11 C 0.380938 0.811220 0.453274 0.0335 Uiso
D7_11 D 0.349883 0.786462 0.411345 0.0309 Uiso
C14_11 C 0.441677 0.809481 0.458018 0.0335 Uiso
D8_11 D 0.449696 0.783603 0.419668 0.0309 Uiso
N5_5 N 0.643267 0.990809 0.782111 0.0136 Uiso
N1_10 N 0.317896 0.349453 0.574793 0.0136 Uiso
C1_12 C 0.358089 0.367145 0.507363 0.0335 Uiso
H1_12 H 0.394736 0.410130 0.501134 0.0309 Uiso
N2_7 N 0.342524 0.319124 0.448778 0.0136 Uiso
C2_8 C 0.271280 0.281657 0.561098 0.0335 Uiso
C3_8 C 0.217264 0.236635 0.608695 0.0335 Uiso
D1_8 D 0.207039 0.248685 0.660458 0.0309 Uiso
C4_8 C 0.179389 0.173111 0.576575 0.0335 Uiso
D2_8 D 0.142859 0.141397 0.607561 0.0309 Uiso
C5_8 C 0.194192 0.154414 0.497151 0.0335 Uiso
D3_8 D 0.167367 0.110738 0.477458 0.0309 Uiso
C6_8 C 0.286072 0.263172 0.482262 0.0335 Uiso
C7_8 C 0.247169 0.199340 0.449144 0.0335 Uiso
D4_8 D 0.256626 0.187588 0.396550 0.0309 Uiso
N3_12 N 0.415627 0.489618 0.646238 0.0136 Uiso
C8_10 C 0.476513 0.529417 0.675366 0.0335 Uiso
H2_10 H 0.493133 0.517373 0.721730 0.0309 Uiso
C9_12 C 0.471057 0.586080 0.573198 0.0335 Uiso
C10_12 C 0.481320 0.633363 0.507891 0.0335 Uiso
D5_10 D 0.521997 0.673034 0.502912 0.0309 Uiso
C11_12 C 0.411486 0.526999 0.578067 0.0335 Uiso
C12_12 C 0.356880 0.510557 0.520036 0.0335 Uiso
D6_10 D 0.316563 0.470173 0.523683 0.0309 Uiso
C13_12 C 0.430282 0.619062 0.453274 0.0335 Uiso
D7_12 D 0.436579 0.650117 0.411345 0.0309 Uiso
C14_12 C 0.367804 0.558323 0.458018 0.0335 Uiso
D8_12 D 0.333907 0.550304 0.419668 0.0309 Uiso
N5_6 N 0.347543 0.356733 0.782111 0.0136 Uiso
N1_11 N 0.983880 0.635110 0.241460 0.0136 Uiso
C1_13 C 0.966188 0.657611 0.174030 0.0335 Uiso
H1_13 H 0.923203 0.651273 0.167801 0.0309 Uiso
N3_13 N 0.843715 0.592676 0.312905 0.0136 Uiso
C8_11 C 0.803916 0.613763 0.342033 0.0335 Uiso
H2_11 H 0.815960 0.642427 0.388397 0.0309 Uiso
C9_13 C 0.747253 0.551644 0.239865 0.0335 Uiso
C10_13 C 0.699970 0.514624 0.174558 0.0335 Uiso
D5_11 D 0.660299 0.515630 0.169579 0.0309 Uiso
C11_13 C 0.806334 0.551154 0.244734 0.0335 Uiso
C12_13 C 0.822776 0.512990 0.186703 0.0335 Uiso
D6_11 D 0.863160 0.513057 0.190350 0.0309 Uiso
C13_13 C 0.714271 0.477887 0.119941 0.0335 Uiso
D7_13 D 0.683216 0.453129 0.078012 0.0309 Uiso
C14_13 C 0.775010 0.476148 0.124685 0.0335 Uiso
D8_13 D 0.783029 0.450270 0.086335 0.0309 Uiso
N1_12 N 0.651229 0.016120 0.241460 0.0136 Uiso
C1_14 C 0.691422 0.033812 0.174030 0.0335 Uiso
H1_14 H 0.728069 0.076797 0.167801 0.0309 Uiso
N3_14 N 0.748960 0.156285 0.312905 0.0136 Uiso
C8_12 C 0.809846 0.196084 0.342033 0.0335 Uiso
H2_12 H 0.826466 0.184040 0.388397 0.0309 Uiso
C9_14 C 0.804390 0.252747 0.239865 0.0335 Uiso
C10_14 C 0.814653 0.300030 0.174558 0.0335 Uiso
D5_12 D 0.855330 0.339701 0.169579 0.0309 Uiso
C11_14 C 0.744819 0.193666 0.244734 0.0335 Uiso
C12_14 C 0.690213 0.177224 0.186703 0.0335 Uiso
D6_12 D 0.649896 0.136840 0.190350 0.0309 Uiso
C13_14 C 0.763615 0.285729 0.119941 0.0335 Uiso
D7_14 D 0.769912 0.316784 0.078012 0.0309 Uiso
C14_14 C 0.701137 0.224990 0.124685 0.0335 Uiso
D8_14 D 0.667240 0.216971 0.086335 0.0309 Uiso
N1_13 N 0.364890 0.348771 0.241460 0.0136 Uiso
C1_15 C 0.342389 0.308578 0.174030 0.0335 Uiso
H1_15 H 0.348727 0.271931 0.167801 0.0309 Uiso
N2_8 N 0.3099 0.324143 0.115445 0.0136 Uiso
C2_9 C 0.343710 0.395387 0.227765 0.0335 Uiso
C3_9 C 0.352704 0.449403 0.275362 0.0335 Uiso
D1_9 D 0.374979 0.459628 0.327125 0.0309 Uiso
C4_9 C 0.327055 0.487278 0.243242 0.0335 Uiso
D2_9 D 0.331871 0.523808 0.274228 0.0309 Uiso
C5_9 C 0.293555 0.472475 0.163818 0.0335 Uiso
D3_9 D 0.276704 0.499300 0.144125 0.0309 Uiso
C6_9 C 0.3104 0.380595 0.148929 0.0335 Uiso
C7_9 C 0.285504 0.419498 0.115811 0.0335 Uiso
D4_9 D 0.264295 0.410041 0.063217 0.0309 Uiso
N3_15 N 0.407324 0.251040 0.312905 0.0136 Uiso
C8_13 C 0.386237 0.190154 0.342033 0.0335 Uiso
H2_13 H 0.357573 0.173534 0.388397 0.0309 Uiso
C9_15 C 0.448356 0.195610 0.239865 0.0335 Uiso
C10_15 C 0.485376 0.185347 0.174558 0.0335 Uiso
D5_13 D 0.484370 0.144670 0.169579 0.0309 Uiso
C11_15 C 0.448846 0.255181 0.244734 0.0335 Uiso
C12_15 C 0.487010 0.309787 0.186703 0.0335 Uiso
D6_13 D 0.486943 0.350104 0.190350 0.0309 Uiso
C13_15 C 0.522113 0.236385 0.119941 0.0335 Uiso
D7_15 D 0.546871 0.230088 0.078012 0.0309 Uiso
C14_15 C 0.523852 0.298863 0.124685 0.0335 Uiso
D8_15 D 0.549730 0.332760 0.086335 0.0309 Uiso
C8_14 C 0.137250 0.280429 0.008699 0.0335 Uiso
H2_14 H 0.149294 0.309093 0.055063 0.0309 Uiso
N1_14 N 0.317214 0.301776 0.908126 0.0136 Uiso
C1_16 C 0.299522 0.324277 0.840696 0.0335 Uiso
H1_16 H 0.256537 0.317939 0.834467 0.0309 Uiso
C2_10 C 0.385010 0.322956 0.894431 0.0335 Uiso
C3_10 C 0.430032 0.313962 0.942028 0.0335 Uiso
D1_10 D 0.417982 0.291687 0.993791 0.0309 Uiso
C4_10 C 0.493556 0.339611 0.909908 0.0335 Uiso
D2_10 D 0.525270 0.334795 0.940894 0.0309 Uiso
C5_10 C 0.512253 0.373111 0.830484 0.0335 Uiso
D3_10 D 0.555929 0.389962 0.810791 0.0309 Uiso
C6_10 C 0.403495 0.3562 0.815595 0.0335 Uiso
C7_10 C 0.467327 0.381162 0.782477 0.0335 Uiso
D4_10 D 0.479079 0.402371 0.729883 0.0309 Uiso
N3_16 N 0.177049 0.259342 0.979571 0.0136 Uiso
C9_16 C 0.080587 0.218310 0.906531 0.0335 Uiso
C10_16 C 0.033304 0.181290 0.841224 0.0335 Uiso
C11_16 C 0.139668 0.217820 0.911400 0.0335 Uiso
C12_16 C 0.156110 0.179656 0.853369 0.0335 Uiso
D6_14 D 0.196494 0.179723 0.857016 0.0309 Uiso
C13_16 C 0.047605 0.144553 0.786607 0.0335 Uiso
D7_16 D 0.016550 0.119795 0.744678 0.0309 Uiso
C14_16 C 0.108344 0.142814 0.791351 0.0335 Uiso
D8_16 D 0.116363 0.116936 0.753001 0.0309 Uiso
C1_17 C 0.024756 0.700478 0.840696 0.0335 Uiso
H1_17 H 0.061403 0.743463 0.834467 0.0309 Uiso
N3_17 N 0.082294 0.822951 0.979571 0.0136 Uiso
C9_17 C 0.137724 0.919413 0.906531 0.0335 Uiso
C10_17 C 0.147987 0.966696 0.841224 0.0335 Uiso
C11_17 C 0.078153 0.860332 0.911400 0.0335 Uiso
C12_17 C 0.023547 0.843890 0.853369 0.0335 Uiso
C13_17 C 0.096949 0.952395 0.786607 0.0335 Uiso
D7_17 D 0.103246 0.983450 0.744678 0.0309 Uiso
C14_17 C 0.034471 0.891656 0.791351 0.0335 Uiso
D8_17 D 0.000574 0.883637 0.753001 0.0309 Uiso
C1_18 C 0.675723 0.975244 0.840696 0.0335 Uiso
H1_18 H 0.682061 0.938597 0.834467 0.0309 Uiso
N3_18 N 0.740658 0.917706 0.979571 0.0136 Uiso
C9_18 C 0.781690 0.862276 0.906531 0.0335 Uiso
C10_18 C 0.818710 0.852013 0.841224 0.0335 Uiso
D5_14 D 0.817704 0.811336 0.836245 0.0309 Uiso
C11_18 C 0.782180 0.921847 0.911400 0.0335 Uiso
C12_18 C 0.820344 0.976453 0.853369 0.0335 Uiso
C13_18 C 0.855447 0.903051 0.786607 0.0335 Uiso
D7_18 D 0.880205 0.896754 0.744678 0.0309 Uiso
C14_18 C 0.857186 0.965529 0.791351 0.0335 Uiso
D8_18 D 0.883064 0.999426 0.753001 0.0309 Uiso
N2_9 N 0.985791 0.3099 0.884555 0.0136 Uiso
C2_11 C 0.948324 0.343710 0.772235 0.0335 Uiso
C3_11 C 0.903302 0.352704 0.724638 0.0335 Uiso
D1_11 D 0.915352 0.374979 0.672875 0.0309 Uiso
C4_11 C 0.839778 0.327055 0.756758 0.0335 Uiso
D2_11 D 0.808064 0.331871 0.725772 0.0309 Uiso
C5_11 C 0.821081 0.293555 0.836182 0.0335 Uiso
D3_11 D 0.777405 0.276704 0.855875 0.0309 Uiso
C6_11 C 0.929839 0.3104 0.851071 0.0335 Uiso
C7_11 C 0.866007 0.285504 0.884189 0.0335 Uiso
D4_11 D 0.854255 0.264295 0.936783 0.0309 Uiso
C8_15 C 0.856820 0.137250 0.991301 0.0335 Uiso
H2_15 H 0.840200 0.149294 0.944937 0.0309 Uiso
N2_10 N 0.324143 0.014209 0.884555 0.0136 Uiso
C2_12 C 0.395387 0.051676 0.772235 0.0335 Uiso
C3_12 C 0.449403 0.096698 0.724638 0.0335 Uiso
D1_12 D 0.459628 0.084648 0.672875 0.0309 Uiso
C4_12 C 0.487278 0.160222 0.756758 0.0335 Uiso
D2_12 D 0.523808 0.191936 0.725772 0.0309 Uiso
C5_12 C 0.472475 0.178919 0.836182 0.0335 Uiso
D3_12 D 0.499300 0.222595 0.855875 0.0309 Uiso
C6_12 C 0.380595 0.070161 0.851071 0.0335 Uiso
C7_12 C 0.419498 0.133993 0.884189 0.0335 Uiso
D4_12 D 0.410041 0.145745 0.936783 0.0309 Uiso
C8_16 C 0.280429 0.143180 0.991301 0.0335 Uiso
H2_16 H 0.309093 0.159800 0.944937 0.0309 Uiso
D5_15 D 0.006367 0.817704 0.163755 0.0309 Uiso
N1_15 N 0.015437 0.317214 0.091874 0.0136 Uiso
C2_13 C 0.062053 0.385010 0.105569 0.0335 Uiso
C3_13 C 0.116069 0.430032 0.057972 0.0335 Uiso
D1_13 D 0.126294 0.417982 0.006209 0.0309 Uiso
C4_13 C 0.153944 0.493556 0.090092 0.0335 Uiso
D2_13 D 0.190474 0.525270 0.059106 0.0309 Uiso
C5_13 C 0.139141 0.512253 0.169516 0.0335 Uiso
D3_13 D 0.165966 0.555929 0.189209 0.0309 Uiso
C6_13 C 0.047261 0.403495 0.184405 0.0335 Uiso
C7_13 C 0.086164 0.467327 0.217523 0.0335 Uiso
D4_13 D 0.076707 0.479079 0.270117 0.0309 Uiso
D6_15 D 0.016770 0.196494 0.142984 0.0309 Uiso
D5_16 D 0.811336 0.993633 0.163755 0.0309 Uiso
N1_16 N 0.301776 0.984563 0.091874 0.0136 Uiso
C2_14 C 0.322956 0.937947 0.105569 0.0335 Uiso
C3_14 C 0.313962 0.883931 0.057972 0.0335 Uiso
D1_14 D 0.291687 0.873706 0.006209 0.0309 Uiso
C4_14 C 0.339611 0.846056 0.090092 0.0335 Uiso
D2_14 D 0.334795 0.809526 0.059106 0.0309 Uiso
C5_14 C 0.373111 0.860859 0.169516 0.0335 Uiso
D3_14 D 0.389962 0.834034 0.189209 0.0309 Uiso
C6_14 C 0.3562 0.952739 0.184405 0.0335 Uiso
C7_14 C 0.381162 0.913836 0.217523 0.0335 Uiso
D4_14 D 0.402371 0.923293 0.270117 0.0309 Uiso
D6_16 D 0.179723 0.983230 0.142984 0.0309 Uiso
N2_11 N 0.014209 0.6901 0.115445 0.0136 Uiso
C2_15 C 0.051676 0.656290 0.227765 0.0335 Uiso
C3_15 C 0.096698 0.647296 0.275362 0.0335 Uiso
D1_15 D 0.084648 0.625021 0.327125 0.0309 Uiso
C4_15 C 0.160222 0.672945 0.243242 0.0335 Uiso
D2_15 D 0.191936 0.668129 0.274228 0.0309 Uiso
C5_15 C 0.178919 0.706445 0.163818 0.0335 Uiso
D3_15 D 0.222595 0.723296 0.144125 0.0309 Uiso
C6_15 C 0.070161 0.6896 0.148929 0.0335 Uiso
C7_15 C 0.133993 0.714496 0.115811 0.0335 Uiso
D4_15 D 0.145745 0.735705 0.063217 0.0309 Uiso
C8_17 C 0.143180 0.862750 0.008699 0.0335 Uiso
H2_17 H 0.159800 0.850706 0.055063 0.0309 Uiso
N2_12 N 0.675857 0.985791 0.115445 0.0136 Uiso
C2_16 C 0.604613 0.948324 0.227765 0.0335 Uiso
C3_16 C 0.550597 0.903302 0.275362 0.0335 Uiso
D1_16 D 0.540372 0.915352 0.327125 0.0309 Uiso
C4_16 C 0.512722 0.839778 0.243242 0.0335 Uiso
D2_16 D 0.476192 0.808064 0.274228 0.0309 Uiso
C5_16 C 0.527525 0.821081 0.163818 0.0335 Uiso
D3_16 D 0.500700 0.777405 0.144125 0.0309 Uiso
C6_16 C 0.619405 0.929839 0.148929 0.0335 Uiso
C7_16 C 0.580502 0.866007 0.115811 0.0335 Uiso
D4_16 D 0.589959 0.854255 0.063217 0.0309 Uiso
C8_18 C 0.719571 0.856820 0.008699 0.0335 Uiso
H2_18 H 0.690907 0.840200 0.055063 0.0309 Uiso
D5_17 D 0.993633 0.182296 0.836245 0.0309 Uiso
D5_18 D 0.188664 0.006367 0.836245 0.0309 Uiso
N1_17 N 0.984563 0.682786 0.908126 0.0136 Uiso
C2_17 C 0.937947 0.614990 0.894431 0.0335 Uiso
C3_17 C 0.883931 0.569968 0.942028 0.0335 Uiso
D1_17 D 0.873706 0.582018 0.993791 0.0309 Uiso
C4_17 C 0.846056 0.506444 0.909908 0.0335 Uiso
D2_17 D 0.809526 0.474730 0.940894 0.0309 Uiso
C5_17 C 0.860859 0.487747 0.830484 0.0335 Uiso
D3_17 D 0.834034 0.444071 0.810791 0.0309 Uiso
C6_17 C 0.952739 0.596505 0.815595 0.0335 Uiso
C7_17 C 0.913836 0.532673 0.782477 0.0335 Uiso
D4_17 D 0.923293 0.520921 0.729883 0.0309 Uiso
D6_17 D 0.983230 0.803506 0.857016 0.0309 Uiso
N1_18 N 0.698224 0.015437 0.908126 0.0136 Uiso
C2_18 C 0.677044 0.062053 0.894431 0.0335 Uiso
C3_18 C 0.686038 0.116069 0.942028 0.0335 Uiso
D1_18 D 0.708313 0.126294 0.993791 0.0309 Uiso
C4_18 C 0.660389 0.153944 0.909908 0.0335 Uiso
D2_18 D 0.665205 0.190474 0.940894 0.0309 Uiso
C5_18 C 0.626889 0.139141 0.830484 0.0335 Uiso
D3_18 D 0.610038 0.165966 0.810791 0.0309 Uiso
C6_18 C 0.6438 0.047261 0.815595 0.0335 Uiso
C7_18 C 0.618838 0.086164 0.782477 0.0335 Uiso
D4_18 D 0.597629 0.076707 0.729883 0.0309 Uiso
D6_18 D 0.820277 0.016770 0.857016 0.0309 Uiso
loop_
_geom_bond_atom_site_label_1
_geom_bond_atom_site_label_2
_geom_bond_site_symmetry_1
_geom_bond_site_symmetry_2
D2 C4 1_555 1_555
C5 C4 1_555 1_555
D3 C5 1_555 1_555
C6 N2 1_555 1_555
C7 C5 1_555 1_555
D4 C7 1_555 1_555
Zn2 N2 1_555 1_555
C6 C7 1_555 1_555
N1 C1 1_555 1_555
C1 H1 1_555 1_555
C2 N1 1_555 1_555
C3 C2 1_555 1_555
D1 C3 1_555 1_555
N3 C8 1_555 1_555
C8 H2 1_555 1_555
N4 C8 1_555 1_555
C9 N4 1_555 1_555
C10 C9 1_555 1_555
D5 C10 1_555 1_555
C11 N3 1_555 1_555
C12 C11 1_555 1_555
D6 C12 1_555 1_555
C13 C10 1_555 1_555
D7 C13 1_555 1_555
C14 C12 1_555 1_555
D8 C14 1_555 1_555
Zn1 N1 1_555 1_555
N5 Zn1 1_555 1_555
N6 Zn1 1_555 1_555
Zn3 N4 1_555 1_555
N3 Zn1 1_555 1_555
C9 C11 1_555 1_555
C13 C14 1_555 1_555
N1_2 C1_2 1_555 1_555
C1_2 H1_2 1_555 1_555
C2_2 N1_2 1_555 1_555
C3_2 C2_2 1_555 1_555
D1_2 C3_2 1_555 1_555
N3_2 C8_2 1_555 1_555
C8_2 H2_2 1_555 1_555
N4_2 C8_2 1_555 1_555
C9_2 N4_2 1_555 1_555
C10_2 C9_2 1_555 1_555
D5_2 C10_2 1_555 1_555
C11_2 N3_2 1_555 1_555
C12_2 C11_2 1_555 1_555
D6_2 C12_2 1_555 1_555
C13_2 C10_2 1_555 1_555
D7_2 C13_2 1_555 1_555
C14_2 C12_2 1_555 1_555
D8_2 C14_2 1_555 1_555
Zn1_2 N1_2 1_555 1_555
N5_2 Zn1_2 1_555 1_555
N6_2 Zn1_2 1_555 1_555
Zn3_2 N4_2 1_555 1_555
N3_2 Zn1_2 1_555 1_555
C9_2 C11_2 1_555 1_555
C13_2 C14_2 1_555 1_555
D2_2 C4_2 1_555 1_555
C5_2 C4_2 1_555 1_555
D3_2 C5_2 1_555 1_555
C6_2 N2_2 1_555 1_555
C7_2 C5_2 1_555 1_555
D4_2 C7_2 1_555 1_555
Zn2_2 N2_2 1_555 1_555
C6_2 C7_2 1_555 1_555
N1_3 C1_3 1_555 1_555
C1_3 H1_3 1_555 1_555
N2_3 C1_3 1_555 1_555
C2_3 N1_3 1_555 1_555
C3_3 C2_3 1_555 1_555
D1_3 C3_3 1_555 1_555
C4_3 C3_3 1_555 1_555
D2_3 C4_3 1_555 1_555
C5_3 C4_3 1_555 1_555
D3_3 C5_3 1_555 1_555
C6_3 N2_3 1_555 1_555
C7_3 C5_3 1_555 1_555
D4_3 C7_3 1_555 1_555
N3_3 C8_3 1_555 1_555
C8_3 H2_3 1_555 1_555
N4_3 C8_3 1_555 1_555
C9_3 N4_3 1_555 1_555
C10_3 C9_3 1_555 1_555
D5_3 C10_3 1_555 1_555
C11_3 N3_3 1_555 1_555
C12_3 C11_3 1_555 1_555
D6_3 C12_3 1_555 1_555
C13_3 C10_3 1_555 1_555
D7_3 C13_3 1_555 1_555
C14_3 C12_3 1_555 1_555
D8_3 C14_3 1_555 1_555
Zn1_3 N1_3 1_555 1_555
N5_3 Zn1_3 1_555 1_555
N6_3 Zn1_3 1_555 1_555
Zn2_3 N2_3 1_555 1_555
Zn3_3 N4_3 1_555 1_555
C2_3 C6_3 1_555 1_555
C6_3 C7_3 1_555 1_555
N3_3 Zn1_3 1_555 1_555
C9_3 C11_3 1_555 1_555
C13_3 C14_3 1_555 1_555
N1_4 C1_4 1_555 1_555
C1_4 H1_4 1_555 1_555
N3_4 C8_4 1_555 1_555
C8_4 H2_4 1_555 1_555
N4_4 C8_4 1_555 1_555
C9_4 N4_4 1_555 1_555
C10_4 C9_4 1_555 1_555
D5_4 C10_4 1_555 1_555
C11_4 N3_4 1_555 1_555
C12_4 C11_4 1_555 1_555
D6_4 C12_4 1_555 1_555
C13_4 C10_4 1_555 1_555
D7_4 C13_4 1_555 1_555
C14_4 C12_4 1_555 1_555
D8_4 C14_4 1_555 1_555
Zn2 N1_4 1_555 1_555
N6_4 Zn2 1_555 1_555
Zn3_4 N4_4 1_555 1_555
N3_4 Zn2 1_555 1_555
C9_4 C11_4 1_555 1_555
C13_4 C14_4 1_555 1_555
N1_5 C1_5 1_555 1_555
C1_5 H1_5 1_555 1_555
N3_5 C8_5 1_555 1_555
C8_5 H2_5 1_555 1_555
N4_5 C8_5 1_555 1_555
C9_5 N4_5 1_555 1_555
C10_5 C9_5 1_555 1_555
D5_5 C10_5 1_555 1_555
C11_5 N3_5 1_555 1_555
C12_5 C11_5 1_555 1_555
D6_5 C12_5 1_555 1_555
C13_5 C10_5 1_555 1_555
D7_5 C13_5 1_555 1_555
C14_5 C12_5 1_555 1_555
D8_5 C14_5 1_555 1_555
Zn2_2 N1_5 1_555 1_555
N6_5 Zn2_2 1_555 1_555
Zn3_5 N4_5 1_555 1_555
N3_5 Zn2_2 1_555 1_555
C9_5 C11_5 1_555 1_555
C13_5 C14_5 1_555 1_555
N1_6 C1_6 1_555 1_555
C1_6 H1_6 1_555 1_555
N2_4 C1_6 1_555 1_555
C2_4 N1_6 1_555 1_555
C3_4 C2_4 1_555 1_555
D1_4 C3_4 1_555 1_555
C4_4 C3_4 1_555 1_555
D2_4 C4_4 1_555 1_555
C5_4 C4_4 1_555 1_555
D3_4 C5_4 1_555 1_555
C6_4 N2_4 1_555 1_555
C7_4 C5_4 1_555 1_555
D4_4 C7_4 1_555 1_555
N3_6 C8_6 1_555 1_555
C8_6 H2_6 1_555 1_555
N4_6 C8_6 1_555 1_555
C9_6 N4_6 1_555 1_555
C10_6 C9_6 1_555 1_555
D5_6 C10_6 1_555 1_555
C11_6 N3_6 1_555 1_555
C12_6 C11_6 1_555 1_555
D6_6 C12_6 1_555 1_555
C13_6 C10_6 1_555 1_555
D7_6 C13_6 1_555 1_555
C14_6 C12_6 1_555 1_555
D8_6 C14_6 1_555 1_555
Zn2_3 N1_6 1_555 1_555
N6_6 Zn2_3 1_555 1_555
Zn2_6 N2_4 1_555 1_555
Zn3_6 N4_6 1_555 1_555
C2_4 C6_4 1_555 1_555
C6_4 C7_4 1_555 1_555
N3_6 Zn2_3 1_555 1_555
C9_6 C11_6 1_555 1_555
C13_6 C14_6 1_555 1_555
N1_7 C1_7 1_555 1_555
C1_7 H1_7 1_555 1_555
N5_3 C1_7 1_555 1_555
C2_5 N1_7 1_555 1_555
C3_5 C2_5 1_555 1_555
D1_5 C3_5 1_555 1_555
C4_5 C3_5 1_555 1_555
D2_5 C4_5 1_555 1_555
C5_5 C4_5 1_555 1_555
D3_5 C5_5 1_555 1_555
C6_5 N5_3 1_555 1_555
C7_5 C5_5 1_555 1_555
D4_5 C7_5 1_555 1_555
C9_7 N4_7 1_555 1_555
C10_7 C9_7 1_555 1_555
C11_7 N3_7 1_555 1_555
C12_7 C11_7 1_555 1_555
D6_7 C12_7 1_555 1_555
C13_7 C10_7 1_555 1_555
D7_7 C13_7 1_555 1_555
C14_7 C12_7 1_555 1_555
D8_7 C14_7 1_555 1_555
Zn3_7 N4_7 1_555 1_555
C2_5 C6_5 1_555 1_555
C6_5 C7_5 1_555 1_555
C9_7 C11_7 1_555 1_555
C13_7 C14_7 1_555 1_555
C8_7 H2_7 1_555 1_555
N6_7 Zn2_6 1_555 1_555
N6_8 Zn2_4 1_555 1_555
C1_8 H1_8 1_555 1_555
N5 C1_8 1_555 1_555
C9_8 N4_8 1_555 1_555
C10_8 C9_8 1_555 1_555
C11_8 N3_8 1_555 1_555
C12_8 C11_8 1_555 1_555
C13_8 C10_8 1_555 1_555
D7_8 C13_8 1_555 1_555
C14_8 C12_8 1_555 1_555
D8_8 C14_8 1_555 1_555
Zn3_8 N4_8 1_555 1_555
C9_8 C11_8 1_555 1_555
C13_8 C14_8 1_555 1_555
C1_9 H1_9 1_555 1_555
N5_2 C1_9 1_555 1_555
C9_9 N4_9 1_555 1_555
C10_9 C9_9 1_555 1_555
D5_7 C10_9 1_555 1_555
C11_9 N3_9 1_555 1_555
C12_9 C11_9 1_555 1_555
C13_9 C10_9 1_555 1_555
D7_9 C13_9 1_555 1_555
C14_9 C12_9 1_555 1_555
D8_9 C14_9 1_555 1_555
Zn3_9 N4_9 1_555 1_555
C9_9 C11_9 1_555 1_555
C13_9 C14_9 1_555 1_555
N6_9 Zn2_5 1_555 1_555
N1_8 C1_10 1_555 1_555
C1_10 H1_10 1_555 1_555
C2_6 N1_8 1_555 1_555
C3_6 C2_6 1_555 1_555
D1_6 C3_6 1_555 1_555
N3_10 C8_8 1_555 1_555
C8_8 H2_8 1_555 1_555
N6_4 C8_8 1_555 1_555
C9_10 N6_4 1_555 1_555
C10_10 C9_10 1_555 1_555
D5_8 C10_10 1_555 1_555
C11_10 N3_10 1_555 1_555
C12_10 C11_10 1_555 1_555
D6_8 C12_10 1_555 1_555
C13_10 C10_10 1_555 1_555
D7_10 C13_10 1_555 1_555
C14_10 C12_10 1_555 1_555
D8_10 C14_10 1_555 1_555
Zn3_5 N1_8 1_555 1_555
N5_4 Zn3_5 1_555 1_555
N3_10 Zn3_5 1_555 1_555
C9_10 C11_10 1_555 1_555
C13_10 C14_10 1_555 1_555
D2_6 C4_6 1_555 1_555
C5_6 C4_6 1_555 1_555
D3_6 C5_6 1_555 1_555
C6_6 N2_5 1_555 1_555
C7_6 C5_6 1_555 1_555
D4_6 C7_6 1_555 1_555
Zn3 N2_5 1_555 1_555
C6_6 C7_6 1_555 1_555
D2_7 C4_7 1_555 1_555
C5_7 C4_7 1_555 1_555
D3_7 C5_7 1_555 1_555
C6_7 N2_6 1_555 1_555
C7_7 C5_7 1_555 1_555
D4_7 C7_7 1_555 1_555
Zn3_2 N2_6 1_555 1_555
C6_7 C7_7 1_555 1_555
N1_9 C1_11 1_555 1_555
C1_11 H1_11 1_555 1_555
C2_7 N1_9 1_555 1_555
C3_7 C2_7 1_555 1_555
D1_7 C3_7 1_555 1_555
N3_11 C8_9 1_555 1_555
C8_9 H2_9 1_555 1_555
N6_5 C8_9 1_555 1_555
C9_11 N6_5 1_555 1_555
C10_11 C9_11 1_555 1_555
D5_9 C10_11 1_555 1_555
C11_11 N3_11 1_555 1_555
C12_11 C11_11 1_555 1_555
D6_9 C12_11 1_555 1_555
C13_11 C10_11 1_555 1_555
D7_11 C13_11 1_555 1_555
C14_11 C12_11 1_555 1_555
D8_11 C14_11 1_555 1_555
Zn3_6 N1_9 1_555 1_555
N5_5 Zn3_6 1_555 1_555
N3_11 Zn3_6 1_555 1_555
C9_11 C11_11 1_555 1_555
C13_11 C14_11 1_555 1_555
N1_10 C1_12 1_555 1_555
C1_12 H1_12 1_555 1_555
N2_7 C1_12 1_555 1_555
C2_8 N1_10 1_555 1_555
C3_8 C2_8 1_555 1_555
D1_8 C3_8 1_555 1_555
C4_8 C3_8 1_555 1_555
D2_8 C4_8 1_555 1_555
C5_8 C4_8 1_555 1_555
D3_8 C5_8 1_555 1_555
C6_8 N2_7 1_555 1_555
C7_8 C5_8 1_555 1_555
D4_8 C7_8 1_555 1_555
N3_12 C8_10 1_555 1_555
C8_10 H2_10 1_555 1_555
N6_6 C8_10 1_555 1_555
C9_12 N6_6 1_555 1_555
C10_12 C9_12 1_555 1_555
D5_10 C10_12 1_555 1_555
C11_12 N3_12 1_555 1_555
C12_12 C11_12 1_555 1_555
D6_10 C12_12 1_555 1_555
C13_12 C10_12 1_555 1_555
D7_12 C13_12 1_555 1_555
C14_12 C12_12 1_555 1_555
D8_12 C14_12 1_555 1_555
Zn3_4 N1_10 1_555 1_555
N5_6 Zn3_4 1_555 1_555
Zn3_3 N2_7 1_555 1_555
C2_8 C6_8 1_555 1_555
C6_8 C7_8 1_555 1_555
N3_12 Zn3_4 1_555 1_555
C9_12 C11_12 1_555 1_555
C13_12 C14_12 1_555 1_555
N1_11 C1_13 1_555 1_555
C1_13 H1_13 1_555 1_555
N3_13 C8_11 1_555 1_555
C8_11 H2_11 1_555 1_555
N6_3 C8_11 1_555 1_555
C9_13 N6_3 1_555 1_555
C10_13 C9_13 1_555 1_555
D5_11 C10_13 1_555 1_555
C11_13 N3_13 1_555 1_555
C12_13 C11_13 1_555 1_555
D6_11 C12_13 1_555 1_555
C13_13 C10_13 1_555 1_555
D7_13 C13_13 1_555 1_555
C14_13 C12_13 1_555 1_555
D8_13 C14_13 1_555 1_555
Zn3 N1_11 1_555 1_555
N3_13 Zn3 1_555 1_555
C9_13 C11_13 1_555 1_555
C13_13 C14_13 1_555 1_555
N1_12 C1_14 1_555 1_555
C1_14 H1_14 1_555 1_555
N3_14 C8_12 1_555 1_555
C8_12 H2_12 1_555 1_555
N6 C8_12 1_555 1_555
C9_14 N6 1_555 1_555
C10_14 C9_14 1_555 1_555
D5_12 C10_14 1_555 1_555
C11_14 N3_14 1_555 1_555
C12_14 C11_14 1_555 1_555
D6_12 C12_14 1_555 1_555
C13_14 C10_14 1_555 1_555
D7_14 C13_14 1_555 1_555
C14_14 C12_14 1_555 1_555
D8_14 C14_14 1_555 1_555
Zn3_2 N1_12 1_555 1_555
N3_14 Zn3_2 1_555 1_555
C9_14 C11_14 1_555 1_555
C13_14 C14_14 1_555 1_555
N1_13 C1_15 1_555 1_555
C1_15 H1_15 1_555 1_555
N2_8 C1_15 1_555 1_555
C2_9 N1_13 1_555 1_555
C3_9 C2_9 1_555 1_555
D1_9 C3_9 1_555 1_555
C4_9 C3_9 1_555 1_555
D2_9 C4_9 1_555 1_555
C5_9 C4_9 1_555 1_555
D3_9 C5_9 1_555 1_555
C6_9 N2_8 1_555 1_555
C7_9 C5_9 1_555 1_555
D4_9 C7_9 1_555 1_555
N3_15 C8_13 1_555 1_555
C8_13 H2_13 1_555 1_555
N6_2 C8_13 1_555 1_555
C9_15 N6_2 1_555 1_555
C10_15 C9_15 1_555 1_555
D5_13 C10_15 1_555 1_555
C11_15 N3_15 1_555 1_555
C12_15 C11_15 1_555 1_555
D6_13 C12_15 1_555 1_555
C13_15 C10_15 1_555 1_555
D7_15 C13_15 1_555 1_555
C14_15 C12_15 1_555 1_555
D8_15 C14_15 1_555 1_555
Zn3_3 N1_13 1_555 1_555
Zn3_9 N2_8 1_555 1_555
C2_9 C6_9 1_555 1_555
C6_9 C7_9 1_555 1_555
N3_15 Zn3_3 1_555 1_555
C9_15 C11_15 1_555 1_555
C13_15 C14_15 1_555 1_555
C8_14 H2_14 1_555 1_555
N1_14 C1_16 1_555 1_555
C1_16 H1_16 1_555 1_555
N5_6 C1_16 1_555 1_555
C2_10 N1_14 1_555 1_555
C3_10 C2_10 1_555 1_555
D1_10 C3_10 1_555 1_555
C4_10 C3_10 1_555 1_555
D2_10 C4_10 1_555 1_555
C5_10 C4_10 1_555 1_555
D3_10 C5_10 1_555 1_555
C6_10 N5_6 1_555 1_555
C7_10 C5_10 1_555 1_555
D4_10 C7_10 1_555 1_555
C9_16 N6_8 1_555 1_555
C10_16 C9_16 1_555 1_555
C11_16 N3_16 1_555 1_555
C12_16 C11_16 1_555 1_555
D6_14 C12_16 1_555 1_555
C13_16 C10_16 1_555 1_555
D7_16 C13_16 1_555 1_555
C14_16 C12_16 1_555 1_555
D8_16 C14_16 1_555 1_555
C2_10 C6_10 1_555 1_555
C6_10 C7_10 1_555 1_555
C9_16 C11_16 1_555 1_555
C13_16 C14_16 1_555 1_555
C1_17 H1_17 1_555 1_555
N5_4 C1_17 1_555 1_555
C9_17 N6_9 1_555 1_555
C10_17 C9_17 1_555 1_555
C11_17 N3_17 1_555 1_555
C12_17 C11_17 1_555 1_555
C13_17 C10_17 1_555 1_555
D7_17 C13_17 1_555 1_555
C14_17 C12_17 1_555 1_555
D8_17 C14_17 1_555 1_555
C9_17 C11_17 1_555 1_555
C13_17 C14_17 1_555 1_555
C1_18 H1_18 1_555 1_555
N5_5 C1_18 1_555 1_555
C9_18 N6_7 1_555 1_555
C10_18 C9_18 1_555 1_555
D5_14 C10_18 1_555 1_555
C11_18 N3_18 1_555 1_555
C12_18 C11_18 1_555 1_555
C13_18 C10_18 1_555 1_555
D7_18 C13_18 1_555 1_555
C14_18 C12_18 1_555 1_555
D8_18 C14_18 1_555 1_555
C9_18 C11_18 1_555 1_555
C13_18 C14_18 1_555 1_555
C3_11 C2_11 1_555 1_555
D1_11 C3_11 1_555 1_555
C4_11 C3_11 1_555 1_555
D2_11 C4_11 1_555 1_555
C5_11 C4_11 1_555 1_555
D3_11 C5_11 1_555 1_555
C6_11 N2_9 1_555 1_555
C7_11 C5_11 1_555 1_555
D4_11 C7_11 1_555 1_555
C2_11 C6_11 1_555 1_555
C6_11 C7_11 1_555 1_555
C8_15 H2_15 1_555 1_555
C3_12 C2_12 1_555 1_555
D1_12 C3_12 1_555 1_555
C4_12 C3_12 1_555 1_555
D2_12 C4_12 1_555 1_555
C5_12 C4_12 1_555 1_555
D3_12 C5_12 1_555 1_555
C6_12 N2_10 1_555 1_555
C7_12 C5_12 1_555 1_555
D4_12 C7_12 1_555 1_555
C2_12 C6_12 1_555 1_555
C6_12 C7_12 1_555 1_555
C8_16 H2_16 1_555 1_555
C2_13 N1_15 1_555 1_555
C3_13 C2_13 1_555 1_555
D1_13 C3_13 1_555 1_555
C4_13 C3_13 1_555 1_555
D2_13 C4_13 1_555 1_555
C5_13 C4_13 1_555 1_555
D3_13 C5_13 1_555 1_555
C7_13 C5_13 1_555 1_555
D4_13 C7_13 1_555 1_555
C2_13 C6_13 1_555 1_555
C6_13 C7_13 1_555 1_555
C2_14 N1_16 1_555 1_555
C3_14 C2_14 1_555 1_555
D1_14 C3_14 1_555 1_555
C4_14 C3_14 1_555 1_555
D2_14 C4_14 1_555 1_555
C5_14 C4_14 1_555 1_555
D3_14 C5_14 1_555 1_555
C7_14 C5_14 1_555 1_555
D4_14 C7_14 1_555 1_555
C2_14 C6_14 1_555 1_555
C6_14 C7_14 1_555 1_555
C3_15 C2_15 1_555 1_555
D1_15 C3_15 1_555 1_555
C4_15 C3_15 1_555 1_555
D2_15 C4_15 1_555 1_555
C5_15 C4_15 1_555 1_555
D3_15 C5_15 1_555 1_555
C6_15 N2_11 1_555 1_555
C7_15 C5_15 1_555 1_555
D4_15 C7_15 1_555 1_555
C2_15 C6_15 1_555 1_555
C6_15 C7_15 1_555 1_555
C8_17 H2_17 1_555 1_555
C3_16 C2_16 1_555 1_555
D1_16 C3_16 1_555 1_555
C4_16 C3_16 1_555 1_555
D2_16 C4_16 1_555 1_555
C5_16 C4_16 1_555 1_555
D3_16 C5_16 1_555 1_555
C6_16 N2_12 1_555 1_555
C7_16 C5_16 1_555 1_555
D4_16 C7_16 1_555 1_555
C2_16 C6_16 1_555 1_555
C6_16 C7_16 1_555 1_555
C8_18 H2_18 1_555 1_555
C2_17 N1_17 1_555 1_555
C3_17 C2_17 1_555 1_555
D1_17 C3_17 1_555 1_555
C4_17 C3_17 1_555 1_555
D2_17 C4_17 1_555 1_555
C5_17 C4_17 1_555 1_555
D3_17 C5_17 1_555 1_555
C7_17 C5_17 1_555 1_555
D4_17 C7_17 1_555 1_555
C2_17 C6_17 1_555 1_555
C6_17 C7_17 1_555 1_555
C2_18 N1_18 1_555 1_555
C3_18 C2_18 1_555 1_555
D1_18 C3_18 1_555 1_555
C4_18 C3_18 1_555 1_555
D2_18 C4_18 1_555 1_555
C5_18 C4_18 1_555 1_555
D3_18 C5_18 1_555 1_555
C7_18 C5_18 1_555 1_555
D4_18 C7_18 1_555 1_555
C2_18 C6_18 1_555 1_555
C6_18 C7_18 1_555 1_555

#END
