
###############################################################################
#
# This file contains modified crystal structure data generated from the
# MOF subset of the Cambridge Structural Database (CSD) v543 
# hosted by the Cambridge Crystallographic Data Centre (CCDC).
#
# This work is licensed under the Creative Commons
# Attribution-NonCommercial-ShareAlike 4.0 International License.
# To view a copy of this license, visit
# http://creativecommons.org/licenses/by-nc-sa/4.0/
# or send a letter to
# Creative Commons, PO Box 1866, Mountain View, CA 94042, USA.
#
# CIF created using the CSD Python API on 29 September 2022
# The structure has been converted into the P1 space group
# The structure has a 3D framework
# The original CSD entry RIPPAJ is in the rhombohedral crystal system
# The framework has been calculated to contain at least 10.0% void space
# The void calculation uses a probe of radius 1.32A, grid spacing 0.4
#
###############################################################################

data_RIPPAJ
_chemical_formula_moiety         '(C252 H180 N72 Zn12)n'
_symmetry_cell_setting           triclinic
_symmetry_space_group_name_H-M   'P 1'
_symmetry_Int_Tables_number      1
_space_group_name_Hall           'P 1'
loop_
_symmetry_equiv_pos_site_id
_symmetry_equiv_pos_as_xyz
1 x,y,z
_cell_length_a                   22.876(15)
_cell_length_b                   22.876(15)
_cell_length_c                   15.662(11)
_cell_angle_alpha                90
_cell_angle_beta                 90
_cell_angle_gamma                120
_cell_volume                     7098.03
loop_
_atom_site_label
_atom_site_type_symbol
_atom_site_fract_x
_atom_site_fract_y
_atom_site_fract_z
_atom_site_U_iso_or_equiv
_atom_site_thermal_displace_type
N2 N 0.03212 0.326721 0.551913 0.0136 Uiso
C4 C 0.000644 0.154812 0.429667 0.0335 Uiso
C5 C 0.036753 0.170409 0.507853 0.0335 Uiso
D3 D 0.052013 0.142107 0.528001 0.0309 Uiso
C6 C 0.026849 0.267208 0.520221 0.0335 Uiso
C7 C 0.049607 0.226273 0.554006 0.0335 Uiso
D4 D 0.07255 0.236308 0.605824 0.0309 Uiso
N5 N 0.006612 0.372066 0.218580 0.0136 Uiso
Zn2 Zn 0.0598(11) 0.39871(62) 0.65234(81) 0.0114 Uiso
N1 N 0.973002 0.300912 0.427964 0.0136 Uiso
C1 C 0.999692 0.343176 0.493591 0.0335 Uiso
H1 H 0.996133 0.381768 0.498803 0.0309 Uiso
C2 C 0.990976 0.251627 0.442618 0.0335 Uiso
C3 C 0.977152 0.194761 0.396946 0.0335 Uiso
D1 D 0.953152 0.184027 0.346025 0.0309 Uiso
D2 D 0.992564 0.116309 0.399945 0.0309 Uiso
N3 N 0.930754 0.410754 0.379973 0.0136 Uiso
C8 C 0.94771 0.470772 0.349650 0.0335 Uiso
H2 H 0.977000 0.489097 0.303650 0.0309 Uiso
N4 N 0.921311 0.503742 0.387204 0.0136 Uiso
C9 C 0.881374 0.460279 0.450102 0.0335 Uiso
C10 C 0.840514 0.466966 0.513997 0.0335 Uiso
D5 D 0.837717 0.505967 0.517799 0.0309 Uiso
C11 C 0.886461 0.403268 0.447011 0.0335 Uiso
C12 C 0.850534 0.347807 0.505531 0.0335 Uiso
D6 D 0.854400 0.309258 0.503100 0.0309 Uiso
C13 C 0.805810 0.415032 0.569030 0.0335 Uiso
D7 D 0.778566 0.418954 0.610023 0.0309 Uiso
C14 C 0.809855 0.355126 0.566105 0.0335 Uiso
D8 D 0.785220 0.320506 0.604684 0.0309 Uiso
Zn1 Zn 0.93462(62) 0.32777(87) 0.31901(81) 0.0114 Uiso
N6 N 0.837075 0.249098 0.279463 0.0136 Uiso
Zn3 Zn 0.9402(11) 0.60129(62) 0.34766(81) 0.0114 Uiso
N1_2 N 0.327910 0.026998 0.427964 0.0136 Uiso
C1_2 C 0.343484 0.000308 0.493591 0.0335 Uiso
H1_2 H 0.385635 0.003867 0.498803 0.0309 Uiso
C2_2 C 0.260651 0.009024 0.442618 0.0335 Uiso
C3_2 C 0.217609 0.022848 0.396946 0.0335 Uiso
D1_2 D 0.230875 0.046848 0.346025 0.0309 Uiso
D2_2 D 0.123745 0.007436 0.399945 0.0309 Uiso
N3_2 N 0.480000 0.069246 0.379973 0.0136 Uiso
C8_2 C 0.523062 0.05229 0.349650 0.0335 Uiso
H2_2 H 0.512097 0.023000 0.303650 0.0309 Uiso
N4_2 N 0.582431 0.078689 0.387204 0.0136 Uiso
C9_2 C 0.578905 0.118626 0.450102 0.0335 Uiso
C10_2 C 0.626452 0.159486 0.513997 0.0335 Uiso
D5_2 D 0.668250 0.162283 0.517799 0.0309 Uiso
C11_2 C 0.516807 0.113539 0.447011 0.0335 Uiso
C12_2 C 0.497273 0.149466 0.505531 0.0335 Uiso
D6_2 D 0.454858 0.145600 0.503100 0.0309 Uiso
C13_2 C 0.609222 0.194190 0.569030 0.0335 Uiso
D7_2 D 0.640388 0.221434 0.610023 0.0309 Uiso
C14_2 C 0.545271 0.190145 0.566105 0.0335 Uiso
D8_2 D 0.535286 0.214780 0.604684 0.0309 Uiso
Zn1_2 Zn 0.3931(11) 0.06538(62) 0.31901(81) 0.0114 Uiso
N6_2 N 0.412022 0.162925 0.279463 0.0136 Uiso
Zn3_2 Zn 0.6611(13) 0.0598(11) 0.34766(81) 0.0114 Uiso
N2_2 N 0.294601 0.96788 0.551913 0.0136 Uiso
C4_2 C 0.154168 0.999356 0.429667 0.0335 Uiso
C5_2 C 0.133656 0.963247 0.507853 0.0335 Uiso
D3_2 D 0.090094 0.947987 0.528001 0.0309 Uiso
C6_2 C 0.240359 0.973151 0.520221 0.0335 Uiso
C7_2 C 0.176666 0.950393 0.554006 0.0335 Uiso
D4_2 D 0.163758 0.92745 0.605824 0.0309 Uiso
N5_2 N 0.365453 0.993388 0.218580 0.0136 Uiso
Zn2_2 Zn 0.3389(13) 0.9402(11) 0.65234(81) 0.0114 Uiso
N1_3 N 0.699088 0.672090 0.427964 0.0136 Uiso
C1_3 C 0.656824 0.656516 0.493591 0.0335 Uiso
H1_3 H 0.618232 0.614365 0.498803 0.0309 Uiso
N2_3 N 0.673279 0.705399 0.551913 0.0136 Uiso
C2_3 C 0.748373 0.739349 0.442618 0.0335 Uiso
C3_3 C 0.805239 0.782391 0.396946 0.0335 Uiso
D1_3 D 0.815973 0.769125 0.346025 0.0309 Uiso
C4_3 C 0.845188 0.845832 0.429667 0.0335 Uiso
D2_3 D 0.883691 0.876255 0.399945 0.0309 Uiso
C5_3 C 0.829591 0.866344 0.507853 0.0335 Uiso
D3_3 D 0.857893 0.909906 0.528001 0.0309 Uiso
C6_3 C 0.732792 0.759641 0.520221 0.0335 Uiso
C7_3 C 0.773727 0.823334 0.554006 0.0335 Uiso
D4_3 D 0.763692 0.836242 0.605824 0.0309 Uiso
N3_3 N 0.589246 0.520000 0.379973 0.0136 Uiso
C8_3 C 0.529228 0.476938 0.349650 0.0335 Uiso
H2_3 H 0.510903 0.487903 0.303650 0.0309 Uiso
N4_3 N 0.496258 0.417569 0.387204 0.0136 Uiso
C9_3 C 0.539721 0.421095 0.450102 0.0335 Uiso
C10_3 C 0.533034 0.373548 0.513997 0.0335 Uiso
D5_3 D 0.494033 0.331750 0.517799 0.0309 Uiso
C11_3 C 0.596732 0.483193 0.447011 0.0335 Uiso
C12_3 C 0.652193 0.502727 0.505531 0.0335 Uiso
D6_3 D 0.690742 0.545142 0.503100 0.0309 Uiso
C13_3 C 0.584968 0.390778 0.569030 0.0335 Uiso
D7_3 D 0.581046 0.359612 0.610023 0.0309 Uiso
C14_3 C 0.644874 0.454729 0.566105 0.0335 Uiso
D8_3 D 0.679494 0.464714 0.604684 0.0309 Uiso
Zn1_3 Zn 0.67223(87) 0.6069(11) 0.31901(81) 0.0114 Uiso
N5_3 N 0.627934 0.634547 0.218580 0.0136 Uiso
N6_3 N 0.750902 0.587978 0.279463 0.0136 Uiso
Zn2_3 Zn 0.60129(62) 0.6611(13) 0.65234(81) 0.0114 Uiso
Zn3_3 Zn 0.39871(62) 0.3389(13) 0.34766(81) 0.0114 Uiso
C1_4 C 0.010151 0.333641 0.826924 0.0335 Uiso
H1_4 H 0.052302 0.337200 0.832136 0.0309 Uiso
N3_4 N 0.146667 0.402579 0.713306 0.0136 Uiso
C8_4 C 0.189729 0.38562 0.682983 0.0335 Uiso
H2_4 H 0.178764 0.356333 0.636983 0.0309 Uiso
N4_4 N 0.249098 0.412022 0.720537 0.0136 Uiso
C9_4 C 0.245572 0.451959 0.783435 0.0335 Uiso
C10_4 C 0.293119 0.492819 0.847330 0.0335 Uiso
D5_4 D 0.334917 0.495616 0.851132 0.0309 Uiso
C11_4 C 0.183474 0.446872 0.780344 0.0335 Uiso
C12_4 C 0.163940 0.482799 0.838864 0.0335 Uiso
D6_4 D 0.121525 0.478933 0.836433 0.0309 Uiso
C13_4 C 0.275889 0.527523 0.902363 0.0335 Uiso
D7_4 D 0.307055 0.554767 0.943356 0.0309 Uiso
C14_4 C 0.211938 0.523478 0.899438 0.0335 Uiso
D8_4 D 0.201953 0.548113 0.938017 0.0309 Uiso
N6_4 N 0.078689 0.496258 0.612796 0.0136 Uiso
Zn2_4 Zn 0.0056(13) 0.2735(11) 0.98568(81) 0.0114 Uiso
Zn3_4 Zn 0.3278(13) 0.3931(11) 0.68099(81) 0.0114 Uiso
C1_5 C 0.323491 0.989849 0.826924 0.0335 Uiso
H1_5 H 0.284899 0.947698 0.832136 0.0309 Uiso
N3_5 N 0.255913 0.853333 0.713306 0.0136 Uiso
C8_5 C 0.195895 0.810271 0.682983 0.0335 Uiso
H2_5 H 0.177570 0.821236 0.636983 0.0309 Uiso
N4_5 N 0.162925 0.750902 0.720537 0.0136 Uiso
C9_5 C 0.206388 0.754428 0.783435 0.0335 Uiso
C10_5 C 0.199701 0.706881 0.847330 0.0335 Uiso
D5_5 D 0.160700 0.665083 0.851132 0.0309 Uiso
C11_5 C 0.263399 0.816526 0.780344 0.0335 Uiso
C12_5 C 0.318860 0.836060 0.838864 0.0335 Uiso
D6_5 D 0.357409 0.878475 0.836433 0.0309 Uiso
C13_5 C 0.251635 0.724111 0.902363 0.0335 Uiso
D7_5 D 0.247713 0.692945 0.943356 0.0309 Uiso
C14_5 C 0.311541 0.788062 0.899438 0.0335 Uiso
D8_5 D 0.346161 0.798047 0.938017 0.0309 Uiso
N6_5 N 0.417569 0.921311 0.612796 0.0136 Uiso
Zn2_5 Zn 0.26795(62) 0.9944(13) 0.98568(81) 0.0114 Uiso
Zn3_5 Zn 0.06538(62) 0.6722(13) 0.68099(81) 0.0114 Uiso
N1_4 N 0.639669 0.634245 0.761297 0.0136 Uiso
C1_6 C 0.666359 0.676509 0.826924 0.0335 Uiso
H1_6 H 0.662800 0.715101 0.832136 0.0309 Uiso
N2_4 N 0.69879 0.660054 0.885246 0.0136 Uiso
C2_4 C 0.657643 0.584960 0.775951 0.0335 Uiso
C3_4 C 0.643819 0.528094 0.730279 0.0335 Uiso
D1_4 D 0.619819 0.517360 0.679358 0.0309 Uiso
C4_4 C 0.667311 0.488145 0.763000 0.0335 Uiso
D2_4 D 0.659231 0.449642 0.733278 0.0309 Uiso
C5_4 C 0.703420 0.503742 0.841186 0.0335 Uiso
D3_4 D 0.718680 0.475440 0.861334 0.0309 Uiso
C6_4 C 0.693516 0.600541 0.853554 0.0335 Uiso
C7_4 C 0.716274 0.559606 0.887339 0.0335 Uiso
D4_4 D 0.73922 0.569641 0.939157 0.0309 Uiso
N3_6 N 0.597421 0.744087 0.713306 0.0136 Uiso
C8_6 C 0.61438 0.804105 0.682983 0.0335 Uiso
H2_6 H 0.643667 0.822430 0.636983 0.0309 Uiso
N4_6 N 0.587978 0.837075 0.720537 0.0136 Uiso
C9_6 C 0.548041 0.793612 0.783435 0.0335 Uiso
C10_6 C 0.507181 0.800299 0.847330 0.0335 Uiso
D5_6 D 0.504384 0.839300 0.851132 0.0309 Uiso
C11_6 C 0.553128 0.736601 0.780344 0.0335 Uiso
C12_6 C 0.517201 0.681140 0.838864 0.0335 Uiso
D6_6 D 0.521067 0.642591 0.836433 0.0309 Uiso
C13_6 C 0.472477 0.748365 0.902363 0.0335 Uiso
D7_6 D 0.445233 0.752287 0.943356 0.0309 Uiso
C14_6 C 0.476522 0.688459 0.899438 0.0335 Uiso
D8_6 D 0.451887 0.653839 0.938017 0.0309 Uiso
N6_6 N 0.503742 0.582431 0.612796 0.0136 Uiso
Zn2_6 Zn 0.7265(11) 0.73205(62) 0.98568(81) 0.0114 Uiso
Zn3_6 Zn 0.6069(11) 0.93462(62) 0.68099(81) 0.0114 Uiso
N1_5 N 0.661243 0.693665 0.094631 0.0136 Uiso
C1_7 C 0.676817 0.666975 0.160258 0.0335 Uiso
H1_7 H 0.718968 0.670534 0.165470 0.0309 Uiso
C2_5 C 0.593984 0.675691 0.109285 0.0335 Uiso
C3_5 C 0.550942 0.689515 0.063613 0.0335 Uiso
D1_5 D 0.564208 0.713515 0.012692 0.0309 Uiso
C4_5 C 0.487501 0.666023 0.096334 0.0335 Uiso
D2_5 D 0.457078 0.674103 0.066612 0.0309 Uiso
C5_5 C 0.466989 0.629914 0.174520 0.0335 Uiso
D3_5 D 0.423427 0.614654 0.194668 0.0309 Uiso
C6_5 C 0.573692 0.639818 0.186888 0.0335 Uiso
C7_5 C 0.509999 0.617060 0.220673 0.0335 Uiso
D4_5 D 0.497091 0.59412 0.272491 0.0309 Uiso
N3_7 N 0.813333 0.735913 0.046640 0.0136 Uiso
C8_7 C 0.856395 0.71896 0.016317 0.0335 Uiso
N4_7 N 0.915764 0.745356 0.053871 0.0136 Uiso
C9_7 C 0.912238 0.785293 0.116769 0.0335 Uiso
C10_7 C 0.959785 0.826153 0.180664 0.0335 Uiso
C11_7 C 0.850140 0.780206 0.113678 0.0335 Uiso
C12_7 C 0.830606 0.816133 0.172198 0.0335 Uiso
D6_7 D 0.788191 0.812267 0.169767 0.0309 Uiso
C13_7 C 0.942555 0.860857 0.235697 0.0335 Uiso
D7_7 D 0.973721 0.888101 0.276690 0.0309 Uiso
C14_7 C 0.878604 0.856812 0.232772 0.0335 Uiso
D8_7 D 0.868619 0.881447 0.271351 0.0309 Uiso
Zn3_7 Zn 0.9944(13) 0.7265(11) 0.01432(81) 0.0114 Uiso
H2_7 H 0.845430 0.689667 0.970317 0.0309 Uiso
N6_7 N 0.745356 0.829591 0.946129 0.0136 Uiso
N1_6 N 0.032421 0.338757 0.094631 0.0136 Uiso
C2_6 C 0.081706 0.406016 0.109285 0.0335 Uiso
C3_6 C 0.138572 0.449058 0.063613 0.0335 Uiso
D1_6 D 0.149306 0.435792 0.012692 0.0309 Uiso
C4_6 C 0.178521 0.512499 0.096334 0.0335 Uiso
D2_6 D 0.217024 0.542922 0.066612 0.0309 Uiso
C5_6 C 0.162924 0.533011 0.174520 0.0335 Uiso
D3_6 D 0.191226 0.576573 0.194668 0.0309 Uiso
C6_6 C 0.066125 0.426308 0.186888 0.0335 Uiso
C7_6 C 0.107060 0.490001 0.220673 0.0335 Uiso
D4_6 D 0.097025 0.502909 0.272491 0.0309 Uiso
D6_8 D 0.024075 0.211809 0.169767 0.0309 Uiso
D8_8 D 0.012827 0.131381 0.271351 0.0309 Uiso
N6_8 N 0.084236 0.254644 0.946129 0.0136 Uiso
C1_8 C 0.990157 0.323183 0.160258 0.0335 Uiso
H1_8 H 0.951565 0.281032 0.165470 0.0309 Uiso
N3_8 N 0.922579 0.186667 0.046640 0.0136 Uiso
C8_8 C 0.862561 0.143605 0.016317 0.0335 Uiso
N4_8 N 0.829591 0.084236 0.053871 0.0136 Uiso
C9_8 C 0.873054 0.087762 0.116769 0.0335 Uiso
C10_8 C 0.866367 0.040215 0.180664 0.0335 Uiso
C11_8 C 0.930065 0.149860 0.113678 0.0335 Uiso
C12_8 C 0.985526 0.169394 0.172198 0.0335 Uiso
C13_8 C 0.918301 0.057445 0.235697 0.0335 Uiso
D7_8 D 0.914379 0.026279 0.276690 0.0309 Uiso
C14_8 C 0.978207 0.121396 0.232772 0.0335 Uiso
Zn3_8 Zn 0.73205(62) 0.0056(13) 0.01432(81) 0.0114 Uiso
C1_9 C 0.333025 0.009843 0.160258 0.0335 Uiso
H1_9 H 0.329466 0.048435 0.165470 0.0309 Uiso
N3_9 N 0.264087 0.077421 0.046640 0.0136 Uiso
C8_9 C 0.28104 0.137439 0.016317 0.0335 Uiso
N4_9 N 0.254644 0.170409 0.053871 0.0136 Uiso
C9_9 C 0.214707 0.126946 0.116769 0.0335 Uiso
C10_9 C 0.173847 0.133633 0.180664 0.0335 Uiso
D5_7 D 0.171050 0.172634 0.184466 0.0309 Uiso
C11_9 C 0.219794 0.069935 0.113678 0.0335 Uiso
C12_9 C 0.183867 0.014474 0.172198 0.0335 Uiso
C13_9 C 0.139143 0.081699 0.235697 0.0335 Uiso
D7_9 D 0.111899 0.085621 0.276690 0.0309 Uiso
C14_9 C 0.143188 0.021793 0.232772 0.0335 Uiso
Zn3_9 Zn 0.2735(11) 0.26795(62) 0.01432(81) 0.0114 Uiso
N1_7 N 0.306335 0.967579 0.094631 0.0136 Uiso
C2_7 C 0.324309 0.918294 0.109285 0.0335 Uiso
C3_7 C 0.310485 0.861428 0.063613 0.0335 Uiso
D1_7 D 0.286485 0.850694 0.012692 0.0309 Uiso
C4_7 C 0.333977 0.821479 0.096334 0.0335 Uiso
D2_7 D 0.325897 0.782976 0.066612 0.0309 Uiso
C5_7 C 0.370086 0.837076 0.174520 0.0335 Uiso
D3_7 D 0.385346 0.808774 0.194668 0.0309 Uiso
C6_7 C 0.360182 0.933875 0.186888 0.0335 Uiso
C7_7 C 0.382940 0.892940 0.220673 0.0335 Uiso
D4_7 D 0.40588 0.902975 0.272491 0.0309 Uiso
D6_9 D 0.187733 0.975925 0.169767 0.0309 Uiso
D8_9 D 0.118553 0.987173 0.271351 0.0309 Uiso
N6_9 N 0.170409 0.915764 0.946129 0.0136 Uiso
N1_8 N 0.026998 0.699088 0.572036 0.0136 Uiso
C1_10 C 0.000308 0.656824 0.506409 0.0335 Uiso
H1_10 H 0.003867 0.618232 0.501197 0.0309 Uiso
C2_8 C 0.009024 0.748373 0.557382 0.0335 Uiso
C3_8 C 0.022848 0.805239 0.603054 0.0335 Uiso
D1_8 D 0.046848 0.815973 0.653975 0.0309 Uiso
D2_8 D 0.007436 0.883691 0.600055 0.0309 Uiso
N3_10 N 0.069246 0.589246 0.620027 0.0136 Uiso
C8_10 C 0.05229 0.529228 0.650350 0.0335 Uiso
H2_8 H 0.023000 0.510903 0.696350 0.0309 Uiso
C9_10 C 0.118626 0.539721 0.549898 0.0335 Uiso
C10_10 C 0.159486 0.533034 0.486003 0.0335 Uiso
D5_8 D 0.162283 0.494033 0.482201 0.0309 Uiso
C11_10 C 0.113539 0.596732 0.552989 0.0335 Uiso
C12_10 C 0.149466 0.652193 0.494469 0.0335 Uiso
D6_10 D 0.145600 0.690742 0.496900 0.0309 Uiso
C13_10 C 0.194190 0.584968 0.430970 0.0335 Uiso
D7_10 D 0.221434 0.581046 0.389977 0.0309 Uiso
C14_10 C 0.190145 0.644874 0.433895 0.0335 Uiso
D8_10 D 0.214780 0.679494 0.395316 0.0309 Uiso
N2_5 N 0.96788 0.673279 0.448087 0.0136 Uiso
C4_8 C 0.999356 0.845188 0.570333 0.0335 Uiso
C5_8 C 0.963247 0.829591 0.492147 0.0335 Uiso
D3_8 D 0.947987 0.857893 0.471999 0.0309 Uiso
C6_8 C 0.973151 0.732792 0.479779 0.0335 Uiso
C7_8 C 0.950393 0.773727 0.445994 0.0335 Uiso
D4_8 D 0.92745 0.763692 0.394176 0.0309 Uiso
N5_4 N 0.993388 0.627934 0.781420 0.0136 Uiso
N2_6 N 0.705399 0.03212 0.448087 0.0136 Uiso
C4_9 C 0.845832 0.000644 0.570333 0.0335 Uiso
C5_9 C 0.866344 0.036753 0.492147 0.0335 Uiso
D3_9 D 0.909906 0.052013 0.471999 0.0309 Uiso
C6_9 C 0.759641 0.026849 0.479779 0.0335 Uiso
C7_9 C 0.823334 0.049607 0.445994 0.0335 Uiso
D4_9 D 0.836242 0.07255 0.394176 0.0309 Uiso
N5_5 N 0.634547 0.006612 0.781420 0.0136 Uiso
N1_9 N 0.672090 0.973002 0.572036 0.0136 Uiso
C1_11 C 0.656516 0.999692 0.506409 0.0335 Uiso
H1_11 H 0.614365 0.996133 0.501197 0.0309 Uiso
C2_9 C 0.739349 0.990976 0.557382 0.0335 Uiso
C3_9 C 0.782391 0.977152 0.603054 0.0335 Uiso
D1_9 D 0.769125 0.953152 0.653975 0.0309 Uiso
D2_9 D 0.876255 0.992564 0.600055 0.0309 Uiso
N3_11 N 0.520000 0.930754 0.620027 0.0136 Uiso
C8_11 C 0.476938 0.94771 0.650350 0.0335 Uiso
H2_9 H 0.487903 0.977000 0.696350 0.0309 Uiso
C9_11 C 0.421095 0.881374 0.549898 0.0335 Uiso
C10_11 C 0.373548 0.840514 0.486003 0.0335 Uiso
D5_9 D 0.331750 0.837717 0.482201 0.0309 Uiso
C11_11 C 0.483193 0.886461 0.552989 0.0335 Uiso
C12_11 C 0.502727 0.850534 0.494469 0.0335 Uiso
D6_11 D 0.545142 0.854400 0.496900 0.0309 Uiso
C13_11 C 0.390778 0.805810 0.430970 0.0335 Uiso
D7_11 D 0.359612 0.778566 0.389977 0.0309 Uiso
C14_11 C 0.454729 0.809855 0.433895 0.0335 Uiso
D8_11 D 0.464714 0.785220 0.395316 0.0309 Uiso
N1_10 N 0.300912 0.327910 0.572036 0.0136 Uiso
C1_12 C 0.343176 0.343484 0.506409 0.0335 Uiso
H1_12 H 0.381768 0.385635 0.501197 0.0309 Uiso
N2_7 N 0.326721 0.294601 0.448087 0.0136 Uiso
C2_10 C 0.251627 0.260651 0.557382 0.0335 Uiso
C3_10 C 0.194761 0.217609 0.603054 0.0335 Uiso
D1_10 D 0.184027 0.230875 0.653975 0.0309 Uiso
C4_10 C 0.154812 0.154168 0.570333 0.0335 Uiso
D2_10 D 0.116309 0.123745 0.600055 0.0309 Uiso
C5_10 C 0.170409 0.133656 0.492147 0.0335 Uiso
D3_10 D 0.142107 0.090094 0.471999 0.0309 Uiso
C6_10 C 0.267208 0.240359 0.479779 0.0335 Uiso
C7_10 C 0.226273 0.176666 0.445994 0.0335 Uiso
D4_10 D 0.236308 0.163758 0.394176 0.0309 Uiso
N3_12 N 0.410754 0.480000 0.620027 0.0136 Uiso
C8_12 C 0.470772 0.523062 0.650350 0.0335 Uiso
H2_10 H 0.489097 0.512097 0.696350 0.0309 Uiso
C9_12 C 0.460279 0.578905 0.549898 0.0335 Uiso
C10_12 C 0.466966 0.626452 0.486003 0.0335 Uiso
D5_10 D 0.505967 0.668250 0.482201 0.0309 Uiso
C11_12 C 0.403268 0.516807 0.552989 0.0335 Uiso
C12_12 C 0.347807 0.497273 0.494469 0.0335 Uiso
D6_12 D 0.309258 0.454858 0.496900 0.0309 Uiso
C13_12 C 0.415032 0.609222 0.430970 0.0335 Uiso
D7_12 D 0.418954 0.640388 0.389977 0.0309 Uiso
C14_12 C 0.355126 0.545271 0.433895 0.0335 Uiso
D8_12 D 0.320506 0.535286 0.395316 0.0309 Uiso
N5_6 N 0.372066 0.365453 0.781420 0.0136 Uiso
C1_13 C 0.989849 0.666359 0.173076 0.0335 Uiso
H1_13 H 0.947698 0.662800 0.167864 0.0309 Uiso
N3_13 N 0.853333 0.597421 0.286694 0.0136 Uiso
C8_13 C 0.810271 0.61438 0.317017 0.0335 Uiso
H2_11 H 0.821236 0.643667 0.363017 0.0309 Uiso
C9_13 C 0.754428 0.548041 0.216565 0.0335 Uiso
C10_13 C 0.706881 0.507181 0.152670 0.0335 Uiso
D5_11 D 0.665083 0.504384 0.148868 0.0309 Uiso
C11_13 C 0.816526 0.553128 0.219656 0.0335 Uiso
C12_13 C 0.836060 0.517201 0.161136 0.0335 Uiso
D6_13 D 0.878475 0.521067 0.163567 0.0309 Uiso
C13_13 C 0.724111 0.472477 0.097637 0.0335 Uiso
D7_13 D 0.692945 0.445233 0.056644 0.0309 Uiso
C14_13 C 0.788062 0.476522 0.100562 0.0335 Uiso
D8_13 D 0.798047 0.451887 0.061983 0.0309 Uiso
C1_14 C 0.676509 0.010151 0.173076 0.0335 Uiso
H1_14 H 0.715101 0.052302 0.167864 0.0309 Uiso
N3_14 N 0.744087 0.146667 0.286694 0.0136 Uiso
C8_14 C 0.804105 0.189729 0.317017 0.0335 Uiso
H2_12 H 0.822430 0.178764 0.363017 0.0309 Uiso
C9_14 C 0.793612 0.245572 0.216565 0.0335 Uiso
C10_14 C 0.800299 0.293119 0.152670 0.0335 Uiso
D5_12 D 0.839300 0.334917 0.148868 0.0309 Uiso
C11_14 C 0.736601 0.183474 0.219656 0.0335 Uiso
C12_14 C 0.681140 0.163940 0.161136 0.0335 Uiso
D6_14 D 0.642591 0.121525 0.163567 0.0309 Uiso
C13_14 C 0.748365 0.275889 0.097637 0.0335 Uiso
D7_14 D 0.752287 0.307055 0.056644 0.0309 Uiso
C14_14 C 0.688459 0.211938 0.100562 0.0335 Uiso
D8_14 D 0.653839 0.201953 0.061983 0.0309 Uiso
N1_11 N 0.360331 0.365755 0.238703 0.0136 Uiso
C1_15 C 0.333641 0.323491 0.173076 0.0335 Uiso
H1_15 H 0.337200 0.284899 0.167864 0.0309 Uiso
N2_8 N 0.30121 0.339946 0.114754 0.0136 Uiso
C2_11 C 0.342357 0.415040 0.224049 0.0335 Uiso
C3_11 C 0.356181 0.471906 0.269721 0.0335 Uiso
D1_11 D 0.380181 0.482640 0.320642 0.0309 Uiso
C4_11 C 0.332689 0.511855 0.237000 0.0335 Uiso
D2_11 D 0.340769 0.550358 0.266722 0.0309 Uiso
C5_11 C 0.296580 0.496258 0.158814 0.0335 Uiso
D3_11 D 0.281320 0.524560 0.138666 0.0309 Uiso
C6_11 C 0.306484 0.399459 0.146446 0.0335 Uiso
C7_11 C 0.283726 0.440394 0.112661 0.0335 Uiso
D4_11 D 0.26078 0.430359 0.060843 0.0309 Uiso
N3_15 N 0.402579 0.255913 0.286694 0.0136 Uiso
C8_15 C 0.38562 0.195895 0.317017 0.0335 Uiso
H2_13 H 0.356333 0.177570 0.363017 0.0309 Uiso
C9_15 C 0.451959 0.206388 0.216565 0.0335 Uiso
C10_15 C 0.492819 0.199701 0.152670 0.0335 Uiso
D5_13 D 0.495616 0.160700 0.148868 0.0309 Uiso
C11_15 C 0.446872 0.263399 0.219656 0.0335 Uiso
C12_15 C 0.482799 0.318860 0.161136 0.0335 Uiso
D6_15 D 0.478933 0.357409 0.163567 0.0309 Uiso
C13_15 C 0.527523 0.251635 0.097637 0.0335 Uiso
D7_15 D 0.554767 0.247713 0.056644 0.0309 Uiso
C14_15 C 0.523478 0.311541 0.100562 0.0335 Uiso
D8_15 D 0.548113 0.346161 0.061983 0.0309 Uiso
H2_14 H 0.154570 0.310333 0.029683 0.0309 Uiso
N1_12 N 0.338757 0.306335 0.905369 0.0136 Uiso
C1_16 C 0.323183 0.333025 0.839742 0.0335 Uiso
H1_16 H 0.281032 0.329466 0.834530 0.0309 Uiso
C2_12 C 0.406016 0.324309 0.890715 0.0335 Uiso
C3_12 C 0.449058 0.310485 0.936387 0.0335 Uiso
D1_12 D 0.435792 0.286485 0.987308 0.0309 Uiso
C4_12 C 0.512499 0.333977 0.903666 0.0335 Uiso
D2_12 D 0.542922 0.325897 0.933388 0.0309 Uiso
C5_12 C 0.533011 0.370086 0.825480 0.0335 Uiso
D3_12 D 0.576573 0.385346 0.805332 0.0309 Uiso
C6_12 C 0.426308 0.360182 0.813112 0.0335 Uiso
C7_12 C 0.490001 0.382940 0.779327 0.0335 Uiso
D4_12 D 0.502909 0.40588 0.727509 0.0309 Uiso
N3_16 N 0.186667 0.264087 0.953360 0.0136 Uiso
C8_16 C 0.143605 0.28104 0.983683 0.0335 Uiso
C9_16 C 0.087762 0.214707 0.883231 0.0335 Uiso
C10_16 C 0.040215 0.173847 0.819336 0.0335 Uiso
C11_16 C 0.149860 0.219794 0.886322 0.0335 Uiso
C12_16 C 0.169394 0.183867 0.827802 0.0335 Uiso
D6_16 D 0.211809 0.187733 0.830233 0.0309 Uiso
C13_16 C 0.057445 0.139143 0.764303 0.0335 Uiso
D7_16 D 0.026279 0.111899 0.723310 0.0309 Uiso
C14_16 C 0.121396 0.143188 0.767228 0.0335 Uiso
D8_16 D 0.131381 0.118553 0.728649 0.0309 Uiso
C1_17 C 0.009843 0.676817 0.839742 0.0335 Uiso
H1_17 H 0.048435 0.718968 0.834530 0.0309 Uiso
N3_17 N 0.077421 0.813333 0.953360 0.0136 Uiso
C8_17 C 0.137439 0.856395 0.983683 0.0335 Uiso
C9_17 C 0.126946 0.912238 0.883231 0.0335 Uiso
C10_17 C 0.133633 0.959785 0.819336 0.0335 Uiso
C11_17 C 0.069935 0.850140 0.886322 0.0335 Uiso
C12_17 C 0.014474 0.830606 0.827802 0.0335 Uiso
C13_17 C 0.081699 0.942555 0.764303 0.0335 Uiso
D7_17 D 0.085621 0.973721 0.723310 0.0309 Uiso
C14_17 C 0.021793 0.878604 0.767228 0.0335 Uiso
N1_13 N 0.967579 0.661243 0.905369 0.0136 Uiso
C2_13 C 0.918294 0.593984 0.890715 0.0335 Uiso
C3_13 C 0.861428 0.550942 0.936387 0.0335 Uiso
D1_13 D 0.850694 0.564208 0.987308 0.0309 Uiso
C4_13 C 0.821479 0.487501 0.903666 0.0335 Uiso
D2_13 D 0.782976 0.457078 0.933388 0.0309 Uiso
C5_13 C 0.837076 0.466989 0.825480 0.0335 Uiso
D3_13 D 0.808774 0.423427 0.805332 0.0309 Uiso
C6_13 C 0.933875 0.573692 0.813112 0.0335 Uiso
C7_13 C 0.892940 0.509999 0.779327 0.0335 Uiso
D4_13 D 0.902975 0.497091 0.727509 0.0309 Uiso
D6_17 D 0.975925 0.788191 0.830233 0.0309 Uiso
D8_17 D 0.987173 0.868619 0.728649 0.0309 Uiso
N1_14 N 0.693665 0.032421 0.905369 0.0136 Uiso
C2_14 C 0.675691 0.081706 0.890715 0.0335 Uiso
C3_14 C 0.689515 0.138572 0.936387 0.0335 Uiso
D1_14 D 0.713515 0.149306 0.987308 0.0309 Uiso
C4_14 C 0.666023 0.178521 0.903666 0.0335 Uiso
D2_14 D 0.674103 0.217024 0.933388 0.0309 Uiso
C5_14 C 0.629914 0.162924 0.825480 0.0335 Uiso
D3_14 D 0.614654 0.191226 0.805332 0.0309 Uiso
C6_14 C 0.639818 0.066125 0.813112 0.0335 Uiso
C7_14 C 0.617060 0.107060 0.779327 0.0335 Uiso
D4_14 D 0.59412 0.097025 0.727509 0.0309 Uiso
D6_18 D 0.812267 0.024075 0.830233 0.0309 Uiso
D8_18 D 0.881447 0.012827 0.728649 0.0309 Uiso
C1_18 C 0.666975 0.990157 0.839742 0.0335 Uiso
H1_18 H 0.670534 0.951565 0.834530 0.0309 Uiso
N3_18 N 0.735913 0.922579 0.953360 0.0136 Uiso
C8_18 C 0.71896 0.862561 0.983683 0.0335 Uiso
C9_18 C 0.785293 0.873054 0.883231 0.0335 Uiso
C10_18 C 0.826153 0.866367 0.819336 0.0335 Uiso
D5_14 D 0.828950 0.827366 0.815534 0.0309 Uiso
C11_18 C 0.780206 0.930065 0.886322 0.0335 Uiso
C12_18 C 0.816133 0.985526 0.827802 0.0335 Uiso
C13_18 C 0.860857 0.918301 0.764303 0.0335 Uiso
D7_18 D 0.888101 0.914379 0.723310 0.0309 Uiso
C14_18 C 0.856812 0.978207 0.767228 0.0335 Uiso
N1_15 N 0.994577 0.360331 0.761297 0.0136 Uiso
N2_9 N 0.961268 0.30121 0.885246 0.0136 Uiso
C2_15 C 0.927318 0.342357 0.775951 0.0335 Uiso
C3_15 C 0.884276 0.356181 0.730279 0.0335 Uiso
D1_15 D 0.897542 0.380181 0.679358 0.0309 Uiso
C4_15 C 0.820835 0.332689 0.763000 0.0335 Uiso
D2_15 D 0.790412 0.340769 0.733278 0.0309 Uiso
C5_15 C 0.800323 0.296580 0.841186 0.0335 Uiso
D3_15 D 0.756761 0.281320 0.861334 0.0309 Uiso
C6_15 C 0.907026 0.306484 0.853554 0.0335 Uiso
C7_15 C 0.843333 0.283726 0.887339 0.0335 Uiso
D4_15 D 0.830425 0.26078 0.939157 0.0309 Uiso
H2_15 H 0.844236 0.154570 0.970317 0.0309 Uiso
N1_16 N 0.365755 0.005423 0.761297 0.0136 Uiso
N2_10 N 0.339946 0.038732 0.885246 0.0136 Uiso
C2_16 C 0.415040 0.072682 0.775951 0.0335 Uiso
C3_16 C 0.471906 0.115724 0.730279 0.0335 Uiso
D1_16 D 0.482640 0.102458 0.679358 0.0309 Uiso
C4_16 C 0.511855 0.179165 0.763000 0.0335 Uiso
D2_16 D 0.550358 0.209588 0.733278 0.0309 Uiso
C5_16 C 0.496258 0.199677 0.841186 0.0335 Uiso
D3_16 D 0.524560 0.243239 0.861334 0.0309 Uiso
C6_16 C 0.399459 0.092974 0.853554 0.0335 Uiso
C7_16 C 0.440394 0.156667 0.887339 0.0335 Uiso
D4_16 D 0.430359 0.169575 0.939157 0.0309 Uiso
H2_16 H 0.310333 0.155764 0.970317 0.0309 Uiso
D5_15 D 0.001583 0.828950 0.184466 0.0309 Uiso
D5_16 D 0.827366 0.998417 0.184466 0.0309 Uiso
N1_17 N 0.005423 0.639669 0.238703 0.0136 Uiso
N2_11 N 0.038732 0.69879 0.114754 0.0136 Uiso
C2_17 C 0.072682 0.657643 0.224049 0.0335 Uiso
C3_17 C 0.115724 0.643819 0.269721 0.0335 Uiso
D1_17 D 0.102458 0.619819 0.320642 0.0309 Uiso
C4_17 C 0.179165 0.667311 0.237000 0.0335 Uiso
D2_17 D 0.209588 0.659231 0.266722 0.0309 Uiso
C5_17 C 0.199677 0.703420 0.158814 0.0335 Uiso
D3_17 D 0.243239 0.718680 0.138666 0.0309 Uiso
C6_17 C 0.092974 0.693516 0.146446 0.0335 Uiso
C7_17 C 0.156667 0.716274 0.112661 0.0335 Uiso
D4_17 D 0.169575 0.73922 0.060843 0.0309 Uiso
H2_17 H 0.155764 0.845430 0.029683 0.0309 Uiso
N1_18 N 0.634245 0.994577 0.238703 0.0136 Uiso
N2_12 N 0.660054 0.961268 0.114754 0.0136 Uiso
C2_18 C 0.584960 0.927318 0.224049 0.0335 Uiso
C3_18 C 0.528094 0.884276 0.269721 0.0335 Uiso
D1_18 D 0.517360 0.897542 0.320642 0.0309 Uiso
C4_18 C 0.488145 0.820835 0.237000 0.0335 Uiso
D2_18 D 0.449642 0.790412 0.266722 0.0309 Uiso
C5_18 C 0.503742 0.800323 0.158814 0.0335 Uiso
D3_18 D 0.475440 0.756761 0.138666 0.0309 Uiso
C6_18 C 0.600541 0.907026 0.146446 0.0335 Uiso
C7_18 C 0.559606 0.843333 0.112661 0.0335 Uiso
D4_18 D 0.569641 0.830425 0.060843 0.0309 Uiso
H2_18 H 0.689667 0.844236 0.029683 0.0309 Uiso
D5_17 D 0.998417 0.171050 0.815534 0.0309 Uiso
D5_18 D 0.172634 0.001583 0.815534 0.0309 Uiso
loop_
_geom_bond_atom_site_label_1
_geom_bond_atom_site_label_2
_geom_bond_site_symmetry_1
_geom_bond_site_symmetry_2
C5 C4 1_555 1_555
D3 C5 1_555 1_555
C6 N2 1_555 1_555
C7 C5 1_555 1_555
D4 C7 1_555 1_555
Zn2 N2 1_555 1_555
C6 C7 1_555 1_555
N1 C1 1_555 1_555
C1 H1 1_555 1_555
C2 N1 1_555 1_555
C3 C2 1_555 1_555
D1 C3 1_555 1_555
N3 C8 1_555 1_555
C8 H2 1_555 1_555
N4 C8 1_555 1_555
C9 N4 1_555 1_555
C10 C9 1_555 1_555
D5 C10 1_555 1_555
C11 N3 1_555 1_555
C12 C11 1_555 1_555
D6 C12 1_555 1_555
C13 C10 1_555 1_555
D7 C13 1_555 1_555
C14 C12 1_555 1_555
D8 C14 1_555 1_555
Zn1 N1 1_555 1_555
N6 Zn1 1_555 1_555
Zn3 N4 1_555 1_555
N3 Zn1 1_555 1_555
C9 C11 1_555 1_555
C13 C14 1_555 1_555
N1_2 C1_2 1_555 1_555
C1_2 H1_2 1_555 1_555
C2_2 N1_2 1_555 1_555
C3_2 C2_2 1_555 1_555
D1_2 C3_2 1_555 1_555
N3_2 C8_2 1_555 1_555
C8_2 H2_2 1_555 1_555
N4_2 C8_2 1_555 1_555
C9_2 N4_2 1_555 1_555
C10_2 C9_2 1_555 1_555
D5_2 C10_2 1_555 1_555
C11_2 N3_2 1_555 1_555
C12_2 C11_2 1_555 1_555
D6_2 C12_2 1_555 1_555
C13_2 C10_2 1_555 1_555
D7_2 C13_2 1_555 1_555
C14_2 C12_2 1_555 1_555
D8_2 C14_2 1_555 1_555
Zn1_2 N1_2 1_555 1_555
N6_2 Zn1_2 1_555 1_555
Zn3_2 N4_2 1_555 1_555
N3_2 Zn1_2 1_555 1_555
C9_2 C11_2 1_555 1_555
C13_2 C14_2 1_555 1_555
C5_2 C4_2 1_555 1_555
D3_2 C5_2 1_555 1_555
C6_2 N2_2 1_555 1_555
C7_2 C5_2 1_555 1_555
D4_2 C7_2 1_555 1_555
Zn2_2 N2_2 1_555 1_555
C6_2 C7_2 1_555 1_555
N1_3 C1_3 1_555 1_555
C1_3 H1_3 1_555 1_555
N2_3 C1_3 1_555 1_555
C2_3 N1_3 1_555 1_555
C3_3 C2_3 1_555 1_555
D1_3 C3_3 1_555 1_555
C4_3 C3_3 1_555 1_555
D2_3 C4_3 1_555 1_555
C5_3 C4_3 1_555 1_555
D3_3 C5_3 1_555 1_555
C6_3 N2_3 1_555 1_555
C7_3 C5_3 1_555 1_555
D4_3 C7_3 1_555 1_555
N3_3 C8_3 1_555 1_555
C8_3 H2_3 1_555 1_555
N4_3 C8_3 1_555 1_555
C9_3 N4_3 1_555 1_555
C10_3 C9_3 1_555 1_555
D5_3 C10_3 1_555 1_555
C11_3 N3_3 1_555 1_555
C12_3 C11_3 1_555 1_555
D6_3 C12_3 1_555 1_555
C13_3 C10_3 1_555 1_555
D7_3 C13_3 1_555 1_555
C14_3 C12_3 1_555 1_555
D8_3 C14_3 1_555 1_555
Zn1_3 N1_3 1_555 1_555
N5_3 Zn1_3 1_555 1_555
N6_3 Zn1_3 1_555 1_555
Zn2_3 N2_3 1_555 1_555
Zn3_3 N4_3 1_555 1_555
C2_3 C6_3 1_555 1_555
C6_3 C7_3 1_555 1_555
N3_3 Zn1_3 1_555 1_555
C9_3 C11_3 1_555 1_555
C13_3 C14_3 1_555 1_555
C1_4 H1_4 1_555 1_555
N3_4 C8_4 1_555 1_555
C8_4 H2_4 1_555 1_555
N4_4 C8_4 1_555 1_555
C9_4 N4_4 1_555 1_555
C10_4 C9_4 1_555 1_555
D5_4 C10_4 1_555 1_555
C11_4 N3_4 1_555 1_555
C12_4 C11_4 1_555 1_555
D6_4 C12_4 1_555 1_555
C13_4 C10_4 1_555 1_555
D7_4 C13_4 1_555 1_555
C14_4 C12_4 1_555 1_555
D8_4 C14_4 1_555 1_555
N6_4 Zn2 1_555 1_555
Zn3_4 N4_4 1_555 1_555
N3_4 Zn2 1_555 1_555
C9_4 C11_4 1_555 1_555
C13_4 C14_4 1_555 1_555
C1_5 H1_5 1_555 1_555
N3_5 C8_5 1_555 1_555
C8_5 H2_5 1_555 1_555
N4_5 C8_5 1_555 1_555
C9_5 N4_5 1_555 1_555
C10_5 C9_5 1_555 1_555
D5_5 C10_5 1_555 1_555
C11_5 N3_5 1_555 1_555
C12_5 C11_5 1_555 1_555
D6_5 C12_5 1_555 1_555
C13_5 C10_5 1_555 1_555
D7_5 C13_5 1_555 1_555
C14_5 C12_5 1_555 1_555
D8_5 C14_5 1_555 1_555
N6_5 Zn2_2 1_555 1_555
Zn3_5 N4_5 1_555 1_555
N3_5 Zn2_2 1_555 1_555
C9_5 C11_5 1_555 1_555
C13_5 C14_5 1_555 1_555
N1_4 C1_6 1_555 1_555
C1_6 H1_6 1_555 1_555
N2_4 C1_6 1_555 1_555
C2_4 N1_4 1_555 1_555
C3_4 C2_4 1_555 1_555
D1_4 C3_4 1_555 1_555
C4_4 C3_4 1_555 1_555
D2_4 C4_4 1_555 1_555
C5_4 C4_4 1_555 1_555
D3_4 C5_4 1_555 1_555
C6_4 N2_4 1_555 1_555
C7_4 C5_4 1_555 1_555
D4_4 C7_4 1_555 1_555
N3_6 C8_6 1_555 1_555
C8_6 H2_6 1_555 1_555
N4_6 C8_6 1_555 1_555
C9_6 N4_6 1_555 1_555
C10_6 C9_6 1_555 1_555
D5_6 C10_6 1_555 1_555
C11_6 N3_6 1_555 1_555
C12_6 C11_6 1_555 1_555
D6_6 C12_6 1_555 1_555
C13_6 C10_6 1_555 1_555
D7_6 C13_6 1_555 1_555
C14_6 C12_6 1_555 1_555
D8_6 C14_6 1_555 1_555
Zn2_3 N1_4 1_555 1_555
N6_6 Zn2_3 1_555 1_555
Zn2_6 N2_4 1_555 1_555
Zn3_6 N4_6 1_555 1_555
C2_4 C6_4 1_555 1_555
C6_4 C7_4 1_555 1_555
N3_6 Zn2_3 1_555 1_555
C9_6 C11_6 1_555 1_555
C13_6 C14_6 1_555 1_555
N1_5 C1_7 1_555 1_555
C1_7 H1_7 1_555 1_555
N5_3 C1_7 1_555 1_555
C2_5 N1_5 1_555 1_555
C3_5 C2_5 1_555 1_555
D1_5 C3_5 1_555 1_555
C4_5 C3_5 1_555 1_555
D2_5 C4_5 1_555 1_555
C5_5 C4_5 1_555 1_555
D3_5 C5_5 1_555 1_555
C6_5 N5_3 1_555 1_555
C7_5 C5_5 1_555 1_555
D4_5 C7_5 1_555 1_555
N3_7 C8_7 1_555 1_555
N4_7 C8_7 1_555 1_555
C9_7 N4_7 1_555 1_555
C10_7 C9_7 1_555 1_555
C11_7 N3_7 1_555 1_555
C12_7 C11_7 1_555 1_555
D6_7 C12_7 1_555 1_555
C13_7 C10_7 1_555 1_555
D7_7 C13_7 1_555 1_555
C14_7 C12_7 1_555 1_555
D8_7 C14_7 1_555 1_555
Zn3_7 N4_7 1_555 1_555
C2_5 C6_5 1_555 1_555
C6_5 C7_5 1_555 1_555
C9_7 C11_7 1_555 1_555
C13_7 C14_7 1_555 1_555
N6_7 Zn2_6 1_555 1_555
C2_6 N1_6 1_555 1_555
C3_6 C2_6 1_555 1_555
D1_6 C3_6 1_555 1_555
C4_6 C3_6 1_555 1_555
D2_6 C4_6 1_555 1_555
C5_6 C4_6 1_555 1_555
D3_6 C5_6 1_555 1_555
C6_6 N5 1_555 1_555
C7_6 C5_6 1_555 1_555
D4_6 C7_6 1_555 1_555
C2_6 C6_6 1_555 1_555
C6_6 C7_6 1_555 1_555
N6_8 Zn2_4 1_555 1_555
C1_8 H1_8 1_555 1_555
N3_8 C8_8 1_555 1_555
N4_8 C8_8 1_555 1_555
C9_8 N4_8 1_555 1_555
C10_8 C9_8 1_555 1_555
C11_8 N3_8 1_555 1_555
C12_8 C11_8 1_555 1_555
C13_8 C10_8 1_555 1_555
D7_8 C13_8 1_555 1_555
C14_8 C12_8 1_555 1_555
Zn3_8 N4_8 1_555 1_555
C9_8 C11_8 1_555 1_555
C13_8 C14_8 1_555 1_555
C1_9 H1_9 1_555 1_555
N3_9 C8_9 1_555 1_555
N4_9 C8_9 1_555 1_555
C9_9 N4_9 1_555 1_555
C10_9 C9_9 1_555 1_555
D5_7 C10_9 1_555 1_555
C11_9 N3_9 1_555 1_555
C12_9 C11_9 1_555 1_555
C13_9 C10_9 1_555 1_555
D7_9 C13_9 1_555 1_555
C14_9 C12_9 1_555 1_555
Zn3_9 N4_9 1_555 1_555
C9_9 C11_9 1_555 1_555
C13_9 C14_9 1_555 1_555
C2_7 N1_7 1_555 1_555
C3_7 C2_7 1_555 1_555
D1_7 C3_7 1_555 1_555
C4_7 C3_7 1_555 1_555
D2_7 C4_7 1_555 1_555
C5_7 C4_7 1_555 1_555
D3_7 C5_7 1_555 1_555
C6_7 N5_2 1_555 1_555
C7_7 C5_7 1_555 1_555
D4_7 C7_7 1_555 1_555
C2_7 C6_7 1_555 1_555
C6_7 C7_7 1_555 1_555
N6_9 Zn2_5 1_555 1_555
N1_8 C1_10 1_555 1_555
C1_10 H1_10 1_555 1_555
C2_8 N1_8 1_555 1_555
C3_8 C2_8 1_555 1_555
D1_8 C3_8 1_555 1_555
N3_10 C8_10 1_555 1_555
C8_10 H2_8 1_555 1_555
N6_4 C8_10 1_555 1_555
C9_10 N6_4 1_555 1_555
C10_10 C9_10 1_555 1_555
D5_8 C10_10 1_555 1_555
C11_10 N3_10 1_555 1_555
C12_10 C11_10 1_555 1_555
D6_10 C12_10 1_555 1_555
C13_10 C10_10 1_555 1_555
D7_10 C13_10 1_555 1_555
C14_10 C12_10 1_555 1_555
D8_10 C14_10 1_555 1_555
Zn3_5 N1_8 1_555 1_555
N3_10 Zn3_5 1_555 1_555
C9_10 C11_10 1_555 1_555
C13_10 C14_10 1_555 1_555
C5_8 C4_8 1_555 1_555
D3_8 C5_8 1_555 1_555
C6_8 N2_5 1_555 1_555
C7_8 C5_8 1_555 1_555
D4_8 C7_8 1_555 1_555
Zn3 N2_5 1_555 1_555
C6_8 C7_8 1_555 1_555
C5_9 C4_9 1_555 1_555
D3_9 C5_9 1_555 1_555
C6_9 N2_6 1_555 1_555
C7_9 C5_9 1_555 1_555
D4_9 C7_9 1_555 1_555
Zn3_2 N2_6 1_555 1_555
C6_9 C7_9 1_555 1_555
N1_9 C1_11 1_555 1_555
C1_11 H1_11 1_555 1_555
C2_9 N1_9 1_555 1_555
C3_9 C2_9 1_555 1_555
D1_9 C3_9 1_555 1_555
N3_11 C8_11 1_555 1_555
C8_11 H2_9 1_555 1_555
N6_5 C8_11 1_555 1_555
C9_11 N6_5 1_555 1_555
C10_11 C9_11 1_555 1_555
D5_9 C10_11 1_555 1_555
C11_11 N3_11 1_555 1_555
C12_11 C11_11 1_555 1_555
D6_11 C12_11 1_555 1_555
C13_11 C10_11 1_555 1_555
D7_11 C13_11 1_555 1_555
C14_11 C12_11 1_555 1_555
D8_11 C14_11 1_555 1_555
Zn3_6 N1_9 1_555 1_555
N3_11 Zn3_6 1_555 1_555
C9_11 C11_11 1_555 1_555
C13_11 C14_11 1_555 1_555
N1_10 C1_12 1_555 1_555
C1_12 H1_12 1_555 1_555
N2_7 C1_12 1_555 1_555
C2_10 N1_10 1_555 1_555
C3_10 C2_10 1_555 1_555
D1_10 C3_10 1_555 1_555
C4_10 C3_10 1_555 1_555
D2_10 C4_10 1_555 1_555
C5_10 C4_10 1_555 1_555
D3_10 C5_10 1_555 1_555
C6_10 N2_7 1_555 1_555
C7_10 C5_10 1_555 1_555
D4_10 C7_10 1_555 1_555
N3_12 C8_12 1_555 1_555
C8_12 H2_10 1_555 1_555
N6_6 C8_12 1_555 1_555
C9_12 N6_6 1_555 1_555
C10_12 C9_12 1_555 1_555
D5_10 C10_12 1_555 1_555
C11_12 N3_12 1_555 1_555
C12_12 C11_12 1_555 1_555
D6_12 C12_12 1_555 1_555
C13_12 C10_12 1_555 1_555
D7_12 C13_12 1_555 1_555
C14_12 C12_12 1_555 1_555
D8_12 C14_12 1_555 1_555
Zn3_4 N1_10 1_555 1_555
N5_6 Zn3_4 1_555 1_555
Zn3_3 N2_7 1_555 1_555
C2_10 C6_10 1_555 1_555
C6_10 C7_10 1_555 1_555
N3_12 Zn3_4 1_555 1_555
C9_12 C11_12 1_555 1_555
C13_12 C14_12 1_555 1_555
C1_13 H1_13 1_555 1_555
N3_13 C8_13 1_555 1_555
C8_13 H2_11 1_555 1_555
N6_3 C8_13 1_555 1_555
C9_13 N6_3 1_555 1_555
C10_13 C9_13 1_555 1_555
D5_11 C10_13 1_555 1_555
C11_13 N3_13 1_555 1_555
C12_13 C11_13 1_555 1_555
D6_13 C12_13 1_555 1_555
C13_13 C10_13 1_555 1_555
D7_13 C13_13 1_555 1_555
C14_13 C12_13 1_555 1_555
D8_13 C14_13 1_555 1_555
N3_13 Zn3 1_555 1_555
C9_13 C11_13 1_555 1_555
C13_13 C14_13 1_555 1_555
C1_14 H1_14 1_555 1_555
N3_14 C8_14 1_555 1_555
C8_14 H2_12 1_555 1_555
N6 C8_14 1_555 1_555
C9_14 N6 1_555 1_555
C10_14 C9_14 1_555 1_555
D5_12 C10_14 1_555 1_555
C11_14 N3_14 1_555 1_555
C12_14 C11_14 1_555 1_555
D6_14 C12_14 1_555 1_555
C13_14 C10_14 1_555 1_555
D7_14 C13_14 1_555 1_555
C14_14 C12_14 1_555 1_555
D8_14 C14_14 1_555 1_555
N3_14 Zn3_2 1_555 1_555
C9_14 C11_14 1_555 1_555
C13_14 C14_14 1_555 1_555
N1_11 C1_15 1_555 1_555
C1_15 H1_15 1_555 1_555
N2_8 C1_15 1_555 1_555
C2_11 N1_11 1_555 1_555
C3_11 C2_11 1_555 1_555
D1_11 C3_11 1_555 1_555
C4_11 C3_11 1_555 1_555
D2_11 C4_11 1_555 1_555
C5_11 C4_11 1_555 1_555
D3_11 C5_11 1_555 1_555
C6_11 N2_8 1_555 1_555
C7_11 C5_11 1_555 1_555
D4_11 C7_11 1_555 1_555
N3_15 C8_15 1_555 1_555
C8_15 H2_13 1_555 1_555
N6_2 C8_15 1_555 1_555
C9_15 N6_2 1_555 1_555
C10_15 C9_15 1_555 1_555
D5_13 C10_15 1_555 1_555
C11_15 N3_15 1_555 1_555
C12_15 C11_15 1_555 1_555
D6_15 C12_15 1_555 1_555
C13_15 C10_15 1_555 1_555
D7_15 C13_15 1_555 1_555
C14_15 C12_15 1_555 1_555
D8_15 C14_15 1_555 1_555
Zn3_3 N1_11 1_555 1_555
Zn3_9 N2_8 1_555 1_555
C2_11 C6_11 1_555 1_555
C6_11 C7_11 1_555 1_555
N3_15 Zn3_3 1_555 1_555
C9_15 C11_15 1_555 1_555
C13_15 C14_15 1_555 1_555
N1_12 C1_16 1_555 1_555
C1_16 H1_16 1_555 1_555
N5_6 C1_16 1_555 1_555
C2_12 N1_12 1_555 1_555
C3_12 C2_12 1_555 1_555
D1_12 C3_12 1_555 1_555
C4_12 C3_12 1_555 1_555
D2_12 C4_12 1_555 1_555
C5_12 C4_12 1_555 1_555
D3_12 C5_12 1_555 1_555
C6_12 N5_6 1_555 1_555
C7_12 C5_12 1_555 1_555
D4_12 C7_12 1_555 1_555
N3_16 C8_16 1_555 1_555
N6_8 C8_16 1_555 1_555
C9_16 N6_8 1_555 1_555
C10_16 C9_16 1_555 1_555
C11_16 N3_16 1_555 1_555
C12_16 C11_16 1_555 1_555
D6_16 C12_16 1_555 1_555
C13_16 C10_16 1_555 1_555
D7_16 C13_16 1_555 1_555
C14_16 C12_16 1_555 1_555
D8_16 C14_16 1_555 1_555
C2_12 C6_12 1_555 1_555
C6_12 C7_12 1_555 1_555
C9_16 C11_16 1_555 1_555
C13_16 C14_16 1_555 1_555
C1_17 H1_17 1_555 1_555
N3_17 C8_17 1_555 1_555
N6_9 C8_17 1_555 1_555
C9_17 N6_9 1_555 1_555
C10_17 C9_17 1_555 1_555
C11_17 N3_17 1_555 1_555
C12_17 C11_17 1_555 1_555
C13_17 C10_17 1_555 1_555
D7_17 C13_17 1_555 1_555
C14_17 C12_17 1_555 1_555
C9_17 C11_17 1_555 1_555
C13_17 C14_17 1_555 1_555
C2_13 N1_13 1_555 1_555
C3_13 C2_13 1_555 1_555
D1_13 C3_13 1_555 1_555
C4_13 C3_13 1_555 1_555
D2_13 C4_13 1_555 1_555
C5_13 C4_13 1_555 1_555
D3_13 C5_13 1_555 1_555
C6_13 N5_4 1_555 1_555
C7_13 C5_13 1_555 1_555
D4_13 C7_13 1_555 1_555
C2_13 C6_13 1_555 1_555
C6_13 C7_13 1_555 1_555
C2_14 N1_14 1_555 1_555
C3_14 C2_14 1_555 1_555
D1_14 C3_14 1_555 1_555
C4_14 C3_14 1_555 1_555
D2_14 C4_14 1_555 1_555
C5_14 C4_14 1_555 1_555
D3_14 C5_14 1_555 1_555
C6_14 N5_5 1_555 1_555
C7_14 C5_14 1_555 1_555
D4_14 C7_14 1_555 1_555
C2_14 C6_14 1_555 1_555
C6_14 C7_14 1_555 1_555
C1_18 H1_18 1_555 1_555
N3_18 C8_18 1_555 1_555
N6_7 C8_18 1_555 1_555
C9_18 N6_7 1_555 1_555
C10_18 C9_18 1_555 1_555
D5_14 C10_18 1_555 1_555
C11_18 N3_18 1_555 1_555
C12_18 C11_18 1_555 1_555
C13_18 C10_18 1_555 1_555
D7_18 C13_18 1_555 1_555
C14_18 C12_18 1_555 1_555
C9_18 C11_18 1_555 1_555
C13_18 C14_18 1_555 1_555
C2_15 N1_15 1_555 1_555
C3_15 C2_15 1_555 1_555
D1_15 C3_15 1_555 1_555
C4_15 C3_15 1_555 1_555
D2_15 C4_15 1_555 1_555
C5_15 C4_15 1_555 1_555
D3_15 C5_15 1_555 1_555
C6_15 N2_9 1_555 1_555
C7_15 C5_15 1_555 1_555
D4_15 C7_15 1_555 1_555
C2_15 C6_15 1_555 1_555
C6_15 C7_15 1_555 1_555
C2_16 N1_16 1_555 1_555
C3_16 C2_16 1_555 1_555
D1_16 C3_16 1_555 1_555
C4_16 C3_16 1_555 1_555
D2_16 C4_16 1_555 1_555
C5_16 C4_16 1_555 1_555
D3_16 C5_16 1_555 1_555
C6_16 N2_10 1_555 1_555
C7_16 C5_16 1_555 1_555
D4_16 C7_16 1_555 1_555
C2_16 C6_16 1_555 1_555
C6_16 C7_16 1_555 1_555
C2_17 N1_17 1_555 1_555
C3_17 C2_17 1_555 1_555
D1_17 C3_17 1_555 1_555
C4_17 C3_17 1_555 1_555
D2_17 C4_17 1_555 1_555
C5_17 C4_17 1_555 1_555
D3_17 C5_17 1_555 1_555
C6_17 N2_11 1_555 1_555
C7_17 C5_17 1_555 1_555
D4_17 C7_17 1_555 1_555
C2_17 C6_17 1_555 1_555
C6_17 C7_17 1_555 1_555
C2_18 N1_18 1_555 1_555
C3_18 C2_18 1_555 1_555
D1_18 C3_18 1_555 1_555
C4_18 C3_18 1_555 1_555
D2_18 C4_18 1_555 1_555
C5_18 C4_18 1_555 1_555
D3_18 C5_18 1_555 1_555
C6_18 N2_12 1_555 1_555
C7_18 C5_18 1_555 1_555
D4_18 C7_18 1_555 1_555
C2_18 C6_18 1_555 1_555
C6_18 C7_18 1_555 1_555

#END
