
###############################################################################
#
# This file contains modified crystal structure data generated from the
# MOF subset of the Cambridge Structural Database (CSD) v543 
# hosted by the Cambridge Crystallographic Data Centre (CCDC).
#
# This work is licensed under the Creative Commons
# Attribution-NonCommercial-ShareAlike 4.0 International License.
# To view a copy of this license, visit
# http://creativecommons.org/licenses/by-nc-sa/4.0/
# or send a letter to
# Creative Commons, PO Box 1866, Mountain View, CA 94042, USA.
#
# CIF created using the CSD Python API on 29 September 2022
# The structure has been converted into the P1 space group
# The structure has a 3D framework
# The original CSD entry RIPPEN is in the rhombohedral crystal system
# The framework has been calculated to contain at least 10.0% void space
# The void calculation uses a probe of radius 1.32A, grid spacing 0.4
#
###############################################################################

data_RIPPEN
_chemical_formula_moiety         '(C252 H180 N72 Zn12)n'
_symmetry_cell_setting           triclinic
_symmetry_space_group_name_H-M   'P 1'
_symmetry_Int_Tables_number      1
_space_group_name_Hall           'P 1'
loop_
_symmetry_equiv_pos_site_id
_symmetry_equiv_pos_as_xyz
1 x,y,z
_cell_length_a                   22.9463(49)
_cell_length_b                   22.9463(49)
_cell_length_c                   15.7127(52)
_cell_angle_alpha                90
_cell_angle_beta                 90
_cell_angle_gamma                120
_cell_volume                     7164.84
loop_
_atom_site_label
_atom_site_type_symbol
_atom_site_fract_x
_atom_site_fract_y
_atom_site_fract_z
_atom_site_U_iso_or_equiv
_atom_site_thermal_displace_type
N2 N 0.028579 0.345814 0.549062 0.0136 Uiso
C4 C 0.00652 0.177408 0.428549 0.0335 Uiso
D2 D 0.000499 0.139604 0.399235 0.0309 Uiso
C5 C 0.043313 0.195392 0.505967 0.0335 Uiso
D3 D 0.061061 0.169323 0.526028 0.0309 Uiso
C6 C 0.026822 0.287966 0.517869 0.0335 Uiso
C7 C 0.053239 0.250340 0.551505 0.0335 Uiso
D4 D 0.076627 0.261903 0.602829 0.0309 Uiso
Zn2 Zn 0.06583 0.39998 0.6604 0.0114 Uiso
N1 N 0.968395 0.316137 0.426357 0.0136 Uiso
C1 C 0.993624 0.359061 0.491220 0.0335 Uiso
H1 H 0.987452 0.395997 0.496240 0.0309 Uiso
C2 C 0.990276 0.270017 0.441029 0.0335 Uiso
C3 C 0.979423 0.214045 0.395987 0.0335 Uiso
D1 D 0.955002 0.201746 0.345574 0.0309 Uiso
N3 N 0.920837 0.415970 0.350527 0.0136 Uiso
C8 C 0.938233 0.476545 0.322640 0.0335 Uiso
H2 H 0.964406 0.494111 0.274096 0.0309 Uiso
N4 N 0.916878 0.511202 0.366402 0.0136 Uiso
C9 C 0.880271 0.46841 0.431317 0.0335 Uiso
C10 C 0.845367 0.476797 0.501294 0.0335 Uiso
D5 D 0.844883 0.516679 0.508541 0.0309 Uiso
C11 C 0.882108 0.410049 0.423020 0.0335 Uiso
C12 C 0.848481 0.354856 0.482054 0.0335 Uiso
D6 D 0.850114 0.315376 0.476042 0.0309 Uiso
C13 C 0.812867 0.425163 0.556965 0.0335 Uiso
D7 D 0.789459 0.430217 0.601984 0.0309 Uiso
C14 C 0.813562 0.363898 0.548760 0.0335 Uiso
D8 D 0.790572 0.329539 0.587972 0.0309 Uiso
Zn1 Zn 0.93335 0.33251 0.3271 0.0114 Uiso
N5 N 0.987519 0.349432 0.215729 0.0136 Uiso
N6 N 0.844535 0.260991 0.300265 0.0136 Uiso
Zn3 Zn 0.93417 0.60002 0.3396 0.0114 Uiso
N1_2 N 0.347742 0.031605 0.426357 0.0136 Uiso
C1_2 C 0.365437 0.006376 0.491220 0.0335 Uiso
H1_2 H 0.408545 0.012548 0.496240 0.0309 Uiso
C2_2 C 0.279741 0.009724 0.441029 0.0335 Uiso
C3_2 C 0.234622 0.020577 0.395987 0.0335 Uiso
D1_2 D 0.246744 0.044998 0.345574 0.0309 Uiso
N3_2 N 0.495133 0.079163 0.350527 0.0136 Uiso
C8_2 C 0.538312 0.061767 0.322640 0.0335 Uiso
H2_2 H 0.529705 0.035594 0.274096 0.0309 Uiso
N4_2 N 0.594324 0.083122 0.366402 0.0136 Uiso
C9_2 C 0.588139 0.119729 0.431317 0.0335 Uiso
C10_2 C 0.631430 0.154633 0.501294 0.0335 Uiso
D5_2 D 0.671796 0.155117 0.508541 0.0309 Uiso
C11_2 C 0.527941 0.117892 0.423020 0.0335 Uiso
C12_2 C 0.506375 0.151519 0.482054 0.0335 Uiso
D6_2 D 0.465262 0.149886 0.476042 0.0309 Uiso
C13_2 C 0.612296 0.187133 0.556965 0.0335 Uiso
D7_2 D 0.640758 0.210541 0.601984 0.0309 Uiso
C14_2 C 0.550336 0.186438 0.548760 0.0335 Uiso
D8_2 D 0.538967 0.209428 0.587972 0.0309 Uiso
Zn1_2 Zn 0.39916 0.06665 0.3271 0.0114 Uiso
N5_2 N 0.361912 0.012481 0.215729 0.0136 Uiso
N6_2 N 0.416455 0.155465 0.300265 0.0136 Uiso
Zn3_2 Zn 0.66584 0.06583 0.3396 0.0114 Uiso
N2_2 N 0.317235 0.971421 0.549062 0.0136 Uiso
C4_2 C 0.170888 0.99348 0.428549 0.0335 Uiso
D2_2 D 0.139105 0.999501 0.399235 0.0309 Uiso
C5_2 C 0.152079 0.956687 0.505967 0.0335 Uiso
D3_2 D 0.108262 0.938939 0.526028 0.0309 Uiso
C6_2 C 0.261144 0.973178 0.517869 0.0335 Uiso
C7_2 C 0.197101 0.946761 0.551505 0.0335 Uiso
D4_2 D 0.185276 0.923373 0.602829 0.0309 Uiso
Zn2_2 Zn 0.33416 0.93417 0.6604 0.0114 Uiso
N1_3 N 0.683863 0.652258 0.426357 0.0136 Uiso
C1_3 C 0.640939 0.634563 0.491220 0.0335 Uiso
H1_3 H 0.604003 0.591455 0.496240 0.0309 Uiso
N2_3 N 0.654186 0.682765 0.549062 0.0136 Uiso
C2_3 C 0.729983 0.720259 0.441029 0.0335 Uiso
C3_3 C 0.785955 0.765378 0.395987 0.0335 Uiso
D1_3 D 0.798254 0.753256 0.345574 0.0309 Uiso
C4_3 C 0.822592 0.829112 0.428549 0.0335 Uiso
D2_3 D 0.860396 0.860895 0.399235 0.0309 Uiso
C5_3 C 0.804608 0.847921 0.505967 0.0335 Uiso
D3_3 D 0.830677 0.891738 0.526028 0.0309 Uiso
C6_3 C 0.712034 0.738856 0.517869 0.0335 Uiso
C7_3 C 0.749660 0.802899 0.551505 0.0335 Uiso
D4_3 D 0.738097 0.814724 0.602829 0.0309 Uiso
N3_3 N 0.584030 0.504867 0.350527 0.0136 Uiso
C8_3 C 0.523455 0.461688 0.322640 0.0335 Uiso
H2_3 H 0.505889 0.470295 0.274096 0.0309 Uiso
N4_3 N 0.488798 0.405676 0.366402 0.0136 Uiso
C9_3 C 0.53159 0.411861 0.431317 0.0335 Uiso
C10_3 C 0.523203 0.368570 0.501294 0.0335 Uiso
D5_3 D 0.483321 0.328204 0.508541 0.0309 Uiso
C11_3 C 0.589951 0.472059 0.423020 0.0335 Uiso
C12_3 C 0.645144 0.493625 0.482054 0.0335 Uiso
D6_3 D 0.684624 0.534738 0.476042 0.0309 Uiso
C13_3 C 0.574837 0.387704 0.556965 0.0335 Uiso
D7_3 D 0.569783 0.359242 0.601984 0.0309 Uiso
C14_3 C 0.636102 0.449664 0.548760 0.0335 Uiso
D8_3 D 0.670461 0.461033 0.587972 0.0309 Uiso
Zn1_3 Zn 0.66749 0.60084 0.3271 0.0114 Uiso
N5_3 N 0.650568 0.638088 0.215729 0.0136 Uiso
N6_3 N 0.739009 0.583545 0.300265 0.0136 Uiso
Zn2_3 Zn 0.60002 0.66584 0.6604 0.0114 Uiso
Zn3_3 Zn 0.39998 0.33416 0.3396 0.0114 Uiso
N1_4 N 0.014409 0.364938 0.759690 0.0136 Uiso
C1_4 C 0.032104 0.339709 0.824553 0.0335 Uiso
H1_4 H 0.075212 0.345881 0.829573 0.0309 Uiso
N3_4 N 0.161800 0.412496 0.683860 0.0136 Uiso
C8_4 C 0.204979 0.395100 0.655973 0.0335 Uiso
H2_4 H 0.196372 0.368927 0.607429 0.0309 Uiso
N4_4 N 0.260991 0.416455 0.699735 0.0136 Uiso
C9_4 C 0.254806 0.453062 0.764650 0.0335 Uiso
C10_4 C 0.298097 0.487966 0.834627 0.0335 Uiso
D5_4 D 0.338463 0.488450 0.841874 0.0309 Uiso
C11_4 C 0.194608 0.451225 0.756353 0.0335 Uiso
C12_4 C 0.173042 0.484852 0.815387 0.0335 Uiso
D6_4 D 0.131929 0.483219 0.809375 0.0309 Uiso
C13_4 C 0.278963 0.520466 0.890298 0.0335 Uiso
D7_4 D 0.307425 0.543874 0.935317 0.0309 Uiso
C14_4 C 0.217003 0.519771 0.882093 0.0335 Uiso
D8_4 D 0.205634 0.542761 0.921305 0.0309 Uiso
N6_4 N 0.083122 0.488798 0.633598 0.0136 Uiso
Zn2_4 Zn 0.00082 0.26751 0.9938 0.0114 Uiso
Zn3_4 Zn 0.33251 0.39916 0.6729 0.0114 Uiso
N1_5 N 0.350530 0.985591 0.759690 0.0136 Uiso
C1_5 C 0.307606 0.967896 0.824553 0.0335 Uiso
H1_5 H 0.270670 0.924788 0.829573 0.0309 Uiso
N3_5 N 0.250697 0.838200 0.683860 0.0136 Uiso
C8_5 C 0.190122 0.795021 0.655973 0.0335 Uiso
H2_5 H 0.172556 0.803628 0.607429 0.0309 Uiso
N4_5 N 0.155465 0.739009 0.699735 0.0136 Uiso
C9_5 C 0.19826 0.745194 0.764650 0.0335 Uiso
C10_5 C 0.189870 0.701903 0.834627 0.0335 Uiso
D5_5 D 0.149988 0.661537 0.841874 0.0309 Uiso
C11_5 C 0.256618 0.805392 0.756353 0.0335 Uiso
C12_5 C 0.311811 0.826958 0.815387 0.0335 Uiso
D6_5 D 0.351291 0.868071 0.809375 0.0309 Uiso
C13_5 C 0.241504 0.721037 0.890298 0.0335 Uiso
D7_5 D 0.236450 0.692575 0.935317 0.0309 Uiso
C14_5 C 0.302769 0.782997 0.882093 0.0335 Uiso
D8_5 D 0.337128 0.794366 0.921305 0.0309 Uiso
N6_5 N 0.405676 0.916878 0.633598 0.0136 Uiso
Zn2_5 Zn 0.26668 0.99918 0.9938 0.0114 Uiso
Zn3_5 Zn 0.06665 0.66749 0.6729 0.0114 Uiso
N1_6 N 0.635062 0.649470 0.759690 0.0136 Uiso
C1_6 C 0.660291 0.692394 0.824553 0.0335 Uiso
H1_6 H 0.654119 0.729330 0.829573 0.0309 Uiso
N2_4 N 0.695246 0.679147 0.882395 0.0136 Uiso
C2_4 C 0.656943 0.603350 0.774362 0.0335 Uiso
C3_4 C 0.646090 0.547378 0.729320 0.0335 Uiso
D1_4 D 0.621669 0.535079 0.678907 0.0309 Uiso
C4_4 C 0.67319 0.510741 0.761882 0.0335 Uiso
D2_4 D 0.667166 0.472937 0.732568 0.0309 Uiso
C5_4 C 0.709980 0.528725 0.839300 0.0335 Uiso
D3_4 D 0.727728 0.502656 0.859361 0.0309 Uiso
C6_4 C 0.693489 0.621299 0.851202 0.0335 Uiso
C7_4 C 0.719906 0.583673 0.884838 0.0335 Uiso
D4_4 D 0.743294 0.595236 0.936162 0.0309 Uiso
N3_6 N 0.587504 0.749303 0.683860 0.0136 Uiso
C8_6 C 0.604900 0.809878 0.655973 0.0335 Uiso
H2_6 H 0.631073 0.827444 0.607429 0.0309 Uiso
N4_6 N 0.583545 0.844535 0.699735 0.0136 Uiso
C9_6 C 0.546938 0.80174 0.764650 0.0335 Uiso
C10_6 C 0.512034 0.810130 0.834627 0.0335 Uiso
D5_6 D 0.511550 0.850012 0.841874 0.0309 Uiso
C11_6 C 0.548775 0.743382 0.756353 0.0335 Uiso
C12_6 C 0.515148 0.688189 0.815387 0.0335 Uiso
D6_6 D 0.516781 0.648709 0.809375 0.0309 Uiso
C13_6 C 0.479534 0.758496 0.890298 0.0335 Uiso
D7_6 D 0.456126 0.763550 0.935317 0.0309 Uiso
C14_6 C 0.480229 0.697231 0.882093 0.0335 Uiso
D8_6 D 0.457239 0.662872 0.921305 0.0309 Uiso
N6_6 N 0.511202 0.594324 0.633598 0.0136 Uiso
Zn2_6 Zn 0.73249 0.73332 0.9938 0.0114 Uiso
Zn3_6 Zn 0.60084 0.93335 0.6729 0.0114 Uiso
N1_7 N 0.681075 0.698272 0.093024 0.0136 Uiso
C1_7 C 0.698770 0.673043 0.157887 0.0335 Uiso
H1_7 H 0.741878 0.679215 0.162907 0.0309 Uiso
C2_5 C 0.613074 0.676391 0.107696 0.0335 Uiso
C3_5 C 0.567955 0.687244 0.062654 0.0335 Uiso
D1_5 D 0.580077 0.711665 0.012241 0.0309 Uiso
C4_5 C 0.504221 0.66015 0.095216 0.0335 Uiso
D2_5 D 0.472438 0.666168 0.065902 0.0309 Uiso
C5_5 C 0.485412 0.623354 0.172634 0.0335 Uiso
D3_5 D 0.441595 0.605606 0.192695 0.0309 Uiso
C6_5 C 0.594477 0.639845 0.184536 0.0335 Uiso
C7_5 C 0.530434 0.613428 0.218172 0.0335 Uiso
D4_5 D 0.518609 0.590040 0.269496 0.0309 Uiso
N3_7 N 0.828466 0.745830 0.017194 0.0136 Uiso
N4_7 N 0.927657 0.749789 0.033069 0.0136 Uiso
C9_7 C 0.921472 0.786396 0.097984 0.0335 Uiso
C10_7 C 0.964763 0.821300 0.167961 0.0335 Uiso
C11_7 C 0.861274 0.784559 0.089687 0.0335 Uiso
C12_7 C 0.839708 0.818186 0.148721 0.0335 Uiso
D6_7 D 0.798595 0.816553 0.142709 0.0309 Uiso
C13_7 C 0.945629 0.853800 0.223632 0.0335 Uiso
D7_7 D 0.974091 0.877208 0.268651 0.0309 Uiso
C14_7 C 0.883669 0.853105 0.215427 0.0335 Uiso
D8_7 D 0.872300 0.876095 0.254639 0.0309 Uiso
Zn3_7 Zn 0.99918 0.73249 0.0062 0.0114 Uiso
C8_7 C 0.871645 0.728434 0.989307 0.0335 Uiso
H2_7 H 0.863038 0.702261 0.940763 0.0309 Uiso
N6_7 N 0.749789 0.822131 0.966931 0.0136 Uiso
N6_8 N 0.072343 0.250211 0.966931 0.0136 Uiso
C1_8 C 0.974272 0.301230 0.157887 0.0335 Uiso
H1_8 H 0.937336 0.258122 0.162907 0.0309 Uiso
N3_8 N 0.917363 0.171534 0.017194 0.0136 Uiso
N4_8 N 0.822131 0.072343 0.033069 0.0136 Uiso
C9_8 C 0.86492 0.078528 0.097984 0.0335 Uiso
C10_8 C 0.856536 0.035237 0.167961 0.0335 Uiso
C11_8 C 0.923284 0.138726 0.089687 0.0335 Uiso
C12_8 C 0.978477 0.160292 0.148721 0.0335 Uiso
C13_8 C 0.908170 0.054371 0.223632 0.0335 Uiso
D7_8 D 0.903116 0.025909 0.268651 0.0309 Uiso
C14_8 C 0.969435 0.116331 0.215427 0.0335 Uiso
Zn3_8 Zn 0.73332 0.00082 0.0062 0.0114 Uiso
C1_9 C 0.326957 0.025728 0.157887 0.0335 Uiso
H1_9 H 0.320785 0.062664 0.162907 0.0309 Uiso
N3_9 N 0.254170 0.082637 0.017194 0.0136 Uiso
N4_9 N 0.250211 0.177869 0.033069 0.0136 Uiso
C9_9 C 0.213604 0.13508 0.097984 0.0335 Uiso
C10_9 C 0.178700 0.143464 0.167961 0.0335 Uiso
D5_7 D 0.178216 0.183346 0.175208 0.0309 Uiso
C11_9 C 0.215441 0.076716 0.089687 0.0335 Uiso
C12_9 C 0.181814 0.021523 0.148721 0.0335 Uiso
C13_9 C 0.146200 0.091830 0.223632 0.0335 Uiso
D7_9 D 0.122792 0.096884 0.268651 0.0309 Uiso
C14_9 C 0.146895 0.030565 0.215427 0.0335 Uiso
Zn3_9 Zn 0.26751 0.26668 0.0062 0.0114 Uiso
N6_9 N 0.177869 0.927657 0.966931 0.0136 Uiso
N1_8 N 0.031605 0.683863 0.573643 0.0136 Uiso
C1_10 C 0.006376 0.640939 0.508780 0.0335 Uiso
H1_10 H 0.012548 0.604003 0.503760 0.0309 Uiso
C2_6 C 0.009724 0.729983 0.558971 0.0335 Uiso
C3_6 C 0.020577 0.785955 0.604013 0.0335 Uiso
D1_6 D 0.044998 0.798254 0.654426 0.0309 Uiso
N3_10 N 0.079163 0.584030 0.649473 0.0136 Uiso
C8_8 C 0.061767 0.523455 0.677360 0.0335 Uiso
H2_8 H 0.035594 0.505889 0.725904 0.0309 Uiso
C9_10 C 0.119729 0.53159 0.568683 0.0335 Uiso
C10_10 C 0.154633 0.523203 0.498706 0.0335 Uiso
D5_8 D 0.155117 0.483321 0.491459 0.0309 Uiso
C11_10 C 0.117892 0.589951 0.576980 0.0335 Uiso
C12_10 C 0.151519 0.645144 0.517946 0.0335 Uiso
D6_8 D 0.149886 0.684624 0.523958 0.0309 Uiso
C13_10 C 0.187133 0.574837 0.443035 0.0335 Uiso
D7_10 D 0.210541 0.569783 0.398016 0.0309 Uiso
C14_10 C 0.186438 0.636102 0.451240 0.0335 Uiso
D8_8 D 0.209428 0.670461 0.412028 0.0309 Uiso
N5_4 N 0.012481 0.650568 0.784271 0.0136 Uiso
N2_5 N 0.971421 0.654186 0.450938 0.0136 Uiso
C4_6 C 0.99348 0.822592 0.571451 0.0335 Uiso
D2_6 D 0.999501 0.860396 0.600765 0.0309 Uiso
C5_6 C 0.956687 0.804608 0.494033 0.0335 Uiso
D3_6 D 0.938939 0.830677 0.473972 0.0309 Uiso
C6_6 C 0.973178 0.712034 0.482131 0.0335 Uiso
C7_6 C 0.946761 0.749660 0.448495 0.0335 Uiso
D4_6 D 0.923373 0.738097 0.397171 0.0309 Uiso
N2_6 N 0.682765 0.028579 0.450938 0.0136 Uiso
C4_7 C 0.829112 0.00652 0.571451 0.0335 Uiso
D2_7 D 0.860895 0.000499 0.600765 0.0309 Uiso
C5_7 C 0.847921 0.043313 0.494033 0.0335 Uiso
D3_7 D 0.891738 0.061061 0.473972 0.0309 Uiso
C6_7 C 0.738856 0.026822 0.482131 0.0335 Uiso
C7_7 C 0.802899 0.053239 0.448495 0.0335 Uiso
D4_7 D 0.814724 0.076627 0.397171 0.0309 Uiso
N1_9 N 0.652258 0.968395 0.573643 0.0136 Uiso
C1_11 C 0.634563 0.993624 0.508780 0.0335 Uiso
H1_11 H 0.591455 0.987452 0.503760 0.0309 Uiso
C2_7 C 0.720259 0.990276 0.558971 0.0335 Uiso
C3_7 C 0.765378 0.979423 0.604013 0.0335 Uiso
D1_7 D 0.753256 0.955002 0.654426 0.0309 Uiso
N3_11 N 0.504867 0.920837 0.649473 0.0136 Uiso
C8_9 C 0.461688 0.938233 0.677360 0.0335 Uiso
H2_9 H 0.470295 0.964406 0.725904 0.0309 Uiso
C9_11 C 0.411861 0.880271 0.568683 0.0335 Uiso
C10_11 C 0.368570 0.845367 0.498706 0.0335 Uiso
D5_9 D 0.328204 0.844883 0.491459 0.0309 Uiso
C11_11 C 0.472059 0.882108 0.576980 0.0335 Uiso
C12_11 C 0.493625 0.848481 0.517946 0.0335 Uiso
D6_9 D 0.534738 0.850114 0.523958 0.0309 Uiso
C13_11 C 0.387704 0.812867 0.443035 0.0335 Uiso
D7_11 D 0.359242 0.789459 0.398016 0.0309 Uiso
C14_11 C 0.449664 0.813562 0.451240 0.0335 Uiso
D8_9 D 0.461033 0.790572 0.412028 0.0309 Uiso
N5_5 N 0.638088 0.987519 0.784271 0.0136 Uiso
N1_10 N 0.316137 0.347742 0.573643 0.0136 Uiso
C1_12 C 0.359061 0.365437 0.508780 0.0335 Uiso
H1_12 H 0.395997 0.408545 0.503760 0.0309 Uiso
N2_7 N 0.345814 0.317235 0.450938 0.0136 Uiso
C2_8 C 0.270017 0.279741 0.558971 0.0335 Uiso
C3_8 C 0.214045 0.234622 0.604013 0.0335 Uiso
D1_8 D 0.201746 0.246744 0.654426 0.0309 Uiso
C4_8 C 0.177408 0.170888 0.571451 0.0335 Uiso
D2_8 D 0.139604 0.139105 0.600765 0.0309 Uiso
C5_8 C 0.195392 0.152079 0.494033 0.0335 Uiso
D3_8 D 0.169323 0.108262 0.473972 0.0309 Uiso
C6_8 C 0.287966 0.261144 0.482131 0.0335 Uiso
C7_8 C 0.250340 0.197101 0.448495 0.0335 Uiso
D4_8 D 0.261903 0.185276 0.397171 0.0309 Uiso
N3_12 N 0.415970 0.495133 0.649473 0.0136 Uiso
C8_10 C 0.476545 0.538312 0.677360 0.0335 Uiso
H2_10 H 0.494111 0.529705 0.725904 0.0309 Uiso
C9_12 C 0.46841 0.588139 0.568683 0.0335 Uiso
C10_12 C 0.476797 0.631430 0.498706 0.0335 Uiso
D5_10 D 0.516679 0.671796 0.491459 0.0309 Uiso
C11_12 C 0.410049 0.527941 0.576980 0.0335 Uiso
C12_12 C 0.354856 0.506375 0.517946 0.0335 Uiso
D6_10 D 0.315376 0.465262 0.523958 0.0309 Uiso
C13_12 C 0.425163 0.612296 0.443035 0.0335 Uiso
D7_12 D 0.430217 0.640758 0.398016 0.0309 Uiso
C14_12 C 0.363898 0.550336 0.451240 0.0335 Uiso
D8_10 D 0.329539 0.538967 0.412028 0.0309 Uiso
N5_6 N 0.349432 0.361912 0.784271 0.0136 Uiso
N1_11 N 0.985591 0.635062 0.240310 0.0136 Uiso
C1_13 C 0.967896 0.660291 0.175447 0.0335 Uiso
H1_13 H 0.924788 0.654119 0.170427 0.0309 Uiso
N3_13 N 0.838200 0.587504 0.316140 0.0136 Uiso
C8_11 C 0.795021 0.604900 0.344027 0.0335 Uiso
H2_11 H 0.803628 0.631073 0.392571 0.0309 Uiso
C9_13 C 0.745194 0.546938 0.235350 0.0335 Uiso
C10_13 C 0.701903 0.512034 0.165373 0.0335 Uiso
D5_11 D 0.661537 0.511550 0.158126 0.0309 Uiso
C11_13 C 0.805392 0.548775 0.243647 0.0335 Uiso
C12_13 C 0.826958 0.515148 0.184613 0.0335 Uiso
D6_11 D 0.868071 0.516781 0.190625 0.0309 Uiso
C13_13 C 0.721037 0.479534 0.109702 0.0335 Uiso
D7_13 D 0.692575 0.456126 0.064683 0.0309 Uiso
C14_13 C 0.782997 0.480229 0.117907 0.0335 Uiso
D8_11 D 0.794366 0.457239 0.078695 0.0309 Uiso
N1_12 N 0.649470 0.014409 0.240310 0.0136 Uiso
C1_14 C 0.692394 0.032104 0.175447 0.0335 Uiso
H1_14 H 0.729330 0.075212 0.170427 0.0309 Uiso
N3_14 N 0.749303 0.161800 0.316140 0.0136 Uiso
C8_12 C 0.809878 0.204979 0.344027 0.0335 Uiso
H2_12 H 0.827444 0.196372 0.392571 0.0309 Uiso
C9_14 C 0.80174 0.254806 0.235350 0.0335 Uiso
C10_14 C 0.810130 0.298097 0.165373 0.0335 Uiso
D5_12 D 0.850012 0.338463 0.158126 0.0309 Uiso
C11_14 C 0.743382 0.194608 0.243647 0.0335 Uiso
C12_14 C 0.688189 0.173042 0.184613 0.0335 Uiso
D6_12 D 0.648709 0.131929 0.190625 0.0309 Uiso
C13_14 C 0.758496 0.278963 0.109702 0.0335 Uiso
D7_14 D 0.763550 0.307425 0.064683 0.0309 Uiso
C14_14 C 0.697231 0.217003 0.117907 0.0335 Uiso
D8_12 D 0.662872 0.205634 0.078695 0.0309 Uiso
N1_13 N 0.364938 0.350530 0.240310 0.0136 Uiso
C1_15 C 0.339709 0.307606 0.175447 0.0335 Uiso
H1_15 H 0.345881 0.270670 0.170427 0.0309 Uiso
N2_8 N 0.304754 0.320853 0.117605 0.0136 Uiso
C2_9 C 0.343057 0.396650 0.225638 0.0335 Uiso
C3_9 C 0.353910 0.452622 0.270680 0.0335 Uiso
D1_9 D 0.378331 0.464921 0.321093 0.0309 Uiso
C4_9 C 0.32681 0.489259 0.238118 0.0335 Uiso
D2_9 D 0.332834 0.527063 0.267432 0.0309 Uiso
C5_9 C 0.290020 0.471275 0.160700 0.0335 Uiso
D3_9 D 0.272272 0.497344 0.140639 0.0309 Uiso
C6_9 C 0.306511 0.378701 0.148798 0.0335 Uiso
C7_9 C 0.280094 0.416327 0.115162 0.0335 Uiso
D4_9 D 0.256706 0.404764 0.063838 0.0309 Uiso
N3_15 N 0.412496 0.250697 0.316140 0.0136 Uiso
C8_13 C 0.395100 0.190122 0.344027 0.0335 Uiso
H2_13 H 0.368927 0.172556 0.392571 0.0309 Uiso
C9_15 C 0.453062 0.19826 0.235350 0.0335 Uiso
C10_15 C 0.487966 0.189870 0.165373 0.0335 Uiso
D5_13 D 0.488450 0.149988 0.158126 0.0309 Uiso
C11_15 C 0.451225 0.256618 0.243647 0.0335 Uiso
C12_15 C 0.484852 0.311811 0.184613 0.0335 Uiso
D6_13 D 0.483219 0.351291 0.190625 0.0309 Uiso
C13_15 C 0.520466 0.241504 0.109702 0.0335 Uiso
D7_15 D 0.543874 0.236450 0.064683 0.0309 Uiso
C14_15 C 0.519771 0.302769 0.117907 0.0335 Uiso
D8_13 D 0.542761 0.337128 0.078695 0.0309 Uiso
C8_14 C 0.128355 0.271566 0.010693 0.0335 Uiso
H2_14 H 0.136962 0.297739 0.059237 0.0309 Uiso
N1_14 N 0.318925 0.301728 0.906976 0.0136 Uiso
C1_16 C 0.301230 0.326957 0.842113 0.0335 Uiso
H1_16 H 0.258122 0.320785 0.837093 0.0309 Uiso
C2_10 C 0.386926 0.323609 0.892304 0.0335 Uiso
C3_10 C 0.432045 0.312756 0.937346 0.0335 Uiso
D1_10 D 0.419923 0.288335 0.987759 0.0309 Uiso
C4_10 C 0.495779 0.33985 0.904784 0.0335 Uiso
D2_10 D 0.527562 0.333832 0.934098 0.0309 Uiso
C5_10 C 0.514588 0.376646 0.827366 0.0335 Uiso
D3_10 D 0.558405 0.394394 0.807305 0.0309 Uiso
C6_10 C 0.405523 0.360155 0.815464 0.0335 Uiso
C7_10 C 0.469566 0.386572 0.781828 0.0335 Uiso
D4_10 D 0.481391 0.409960 0.730504 0.0309 Uiso
N3_16 N 0.171534 0.254170 0.982806 0.0136 Uiso
C9_16 C 0.078528 0.213604 0.902016 0.0335 Uiso
C10_16 C 0.035237 0.178700 0.832039 0.0335 Uiso
C11_16 C 0.138726 0.215441 0.910313 0.0335 Uiso
C12_16 C 0.160292 0.181814 0.851279 0.0335 Uiso
D6_14 D 0.201405 0.183447 0.857291 0.0309 Uiso
C13_16 C 0.054371 0.146200 0.776368 0.0335 Uiso
D7_16 D 0.025909 0.122792 0.731349 0.0309 Uiso
C14_16 C 0.116331 0.146895 0.784573 0.0335 Uiso
D8_14 D 0.127700 0.123905 0.745361 0.0309 Uiso
C1_17 C 0.025728 0.698770 0.842113 0.0335 Uiso
H1_17 H 0.062664 0.741878 0.837093 0.0309 Uiso
N3_17 N 0.082637 0.828466 0.982806 0.0136 Uiso
C9_17 C 0.13508 0.921472 0.902016 0.0335 Uiso
C10_17 C 0.143464 0.964763 0.832039 0.0335 Uiso
C11_17 C 0.076716 0.861274 0.910313 0.0335 Uiso
C12_17 C 0.021523 0.839708 0.851279 0.0335 Uiso
C13_17 C 0.091830 0.945629 0.776368 0.0335 Uiso
D7_17 D 0.096884 0.974091 0.731349 0.0309 Uiso
C14_17 C 0.030565 0.883669 0.784573 0.0335 Uiso
C1_18 C 0.673043 0.974272 0.842113 0.0335 Uiso
H1_18 H 0.679215 0.937336 0.837093 0.0309 Uiso
N3_18 N 0.745830 0.917363 0.982806 0.0136 Uiso
C9_18 C 0.786396 0.86492 0.902016 0.0335 Uiso
C10_18 C 0.821300 0.856536 0.832039 0.0335 Uiso
D5_14 D 0.821784 0.816654 0.824792 0.0309 Uiso
C11_18 C 0.784559 0.923284 0.910313 0.0335 Uiso
C12_18 C 0.818186 0.978477 0.851279 0.0335 Uiso
C13_18 C 0.853800 0.908170 0.776368 0.0335 Uiso
D7_18 D 0.877208 0.903116 0.731349 0.0309 Uiso
C14_18 C 0.853105 0.969435 0.784573 0.0335 Uiso
N2_9 N 0.983902 0.304754 0.882395 0.0136 Uiso
C2_11 C 0.946408 0.343057 0.774362 0.0335 Uiso
C3_11 C 0.901289 0.353910 0.729320 0.0335 Uiso
D1_11 D 0.913411 0.378331 0.678907 0.0309 Uiso
C4_11 C 0.837555 0.32681 0.761882 0.0335 Uiso
D2_11 D 0.805772 0.332834 0.732568 0.0309 Uiso
C5_11 C 0.818746 0.290020 0.839300 0.0335 Uiso
D3_11 D 0.774929 0.272272 0.859361 0.0309 Uiso
C6_11 C 0.927811 0.306511 0.851202 0.0335 Uiso
C7_11 C 0.863768 0.280094 0.884838 0.0335 Uiso
D4_11 D 0.851943 0.256706 0.936162 0.0309 Uiso
C8_15 C 0.856788 0.128355 0.989307 0.0335 Uiso
H2_15 H 0.839222 0.136962 0.940763 0.0309 Uiso
N2_10 N 0.320853 0.016098 0.882395 0.0136 Uiso
C2_12 C 0.396650 0.053592 0.774362 0.0335 Uiso
C3_12 C 0.452622 0.098711 0.729320 0.0335 Uiso
D1_12 D 0.464921 0.086589 0.678907 0.0309 Uiso
C4_12 C 0.489259 0.162445 0.761882 0.0335 Uiso
D2_12 D 0.527063 0.194228 0.732568 0.0309 Uiso
C5_12 C 0.471275 0.181254 0.839300 0.0335 Uiso
D3_12 D 0.497344 0.225071 0.859361 0.0309 Uiso
C6_12 C 0.378701 0.072189 0.851202 0.0335 Uiso
C7_12 C 0.416327 0.136232 0.884838 0.0335 Uiso
D4_12 D 0.404764 0.148057 0.936162 0.0309 Uiso
C8_16 C 0.271566 0.143212 0.989307 0.0335 Uiso
H2_16 H 0.297739 0.160778 0.940763 0.0309 Uiso
D5_15 D 0.005129 0.821784 0.175208 0.0309 Uiso
N1_15 N 0.017196 0.318925 0.093024 0.0136 Uiso
C2_13 C 0.063316 0.386926 0.107696 0.0335 Uiso
C3_13 C 0.119288 0.432045 0.062654 0.0335 Uiso
D1_13 D 0.131587 0.419923 0.012241 0.0309 Uiso
C4_13 C 0.155925 0.495779 0.095216 0.0335 Uiso
D2_13 D 0.193729 0.527562 0.065902 0.0309 Uiso
C5_13 C 0.137941 0.514588 0.172634 0.0335 Uiso
D3_13 D 0.164010 0.558405 0.192695 0.0309 Uiso
C6_13 C 0.045367 0.405523 0.184536 0.0335 Uiso
C7_13 C 0.082993 0.469566 0.218172 0.0335 Uiso
D4_13 D 0.071430 0.481391 0.269496 0.0309 Uiso
D6_15 D 0.017957 0.201405 0.142709 0.0309 Uiso
D8_15 D 0.003794 0.127700 0.254639 0.0309 Uiso
D5_16 D 0.816654 0.994871 0.175208 0.0309 Uiso
N1_16 N 0.301728 0.982804 0.093024 0.0136 Uiso
C2_14 C 0.323609 0.936684 0.107696 0.0335 Uiso
C3_14 C 0.312756 0.880712 0.062654 0.0335 Uiso
D1_14 D 0.288335 0.868413 0.012241 0.0309 Uiso
C4_14 C 0.33985 0.844075 0.095216 0.0335 Uiso
D2_14 D 0.333832 0.806271 0.065902 0.0309 Uiso
C5_14 C 0.376646 0.862059 0.172634 0.0335 Uiso
D3_14 D 0.394394 0.835990 0.192695 0.0309 Uiso
C6_14 C 0.360155 0.954633 0.184536 0.0335 Uiso
C7_14 C 0.386572 0.917007 0.218172 0.0335 Uiso
D4_14 D 0.409960 0.928570 0.269496 0.0309 Uiso
D6_16 D 0.183447 0.982043 0.142709 0.0309 Uiso
D8_16 D 0.123905 0.996206 0.254639 0.0309 Uiso
N2_11 N 0.016098 0.695246 0.117605 0.0136 Uiso
C2_15 C 0.053592 0.656943 0.225638 0.0335 Uiso
C3_15 C 0.098711 0.646090 0.270680 0.0335 Uiso
D1_15 D 0.086589 0.621669 0.321093 0.0309 Uiso
C4_15 C 0.162445 0.67319 0.238118 0.0335 Uiso
D2_15 D 0.194228 0.667166 0.267432 0.0309 Uiso
C5_15 C 0.181254 0.709980 0.160700 0.0335 Uiso
D3_15 D 0.225071 0.727728 0.140639 0.0309 Uiso
C6_15 C 0.072189 0.693489 0.148798 0.0335 Uiso
C7_15 C 0.136232 0.719906 0.115162 0.0335 Uiso
D4_15 D 0.148057 0.743294 0.063838 0.0309 Uiso
C8_17 C 0.143212 0.871645 0.010693 0.0335 Uiso
H2_17 H 0.160778 0.863038 0.059237 0.0309 Uiso
N2_12 N 0.679147 0.983902 0.117605 0.0136 Uiso
C2_16 C 0.603350 0.946408 0.225638 0.0335 Uiso
C3_16 C 0.547378 0.901289 0.270680 0.0335 Uiso
D1_16 D 0.535079 0.913411 0.321093 0.0309 Uiso
C4_16 C 0.510741 0.837555 0.238118 0.0335 Uiso
D2_16 D 0.472937 0.805772 0.267432 0.0309 Uiso
C5_16 C 0.528725 0.818746 0.160700 0.0335 Uiso
D3_16 D 0.502656 0.774929 0.140639 0.0309 Uiso
C6_16 C 0.621299 0.927811 0.148798 0.0335 Uiso
C7_16 C 0.583673 0.863768 0.115162 0.0335 Uiso
D4_16 D 0.595236 0.851943 0.063838 0.0309 Uiso
C8_18 C 0.728434 0.856788 0.010693 0.0335 Uiso
H2_18 H 0.702261 0.839222 0.059237 0.0309 Uiso
D5_17 D 0.994871 0.178216 0.824792 0.0309 Uiso
D5_18 D 0.183346 0.005129 0.824792 0.0309 Uiso
N1_17 N 0.982804 0.681075 0.906976 0.0136 Uiso
C2_17 C 0.936684 0.613074 0.892304 0.0335 Uiso
C3_17 C 0.880712 0.567955 0.937346 0.0335 Uiso
D1_17 D 0.868413 0.580077 0.987759 0.0309 Uiso
C4_17 C 0.844075 0.504221 0.904784 0.0335 Uiso
D2_17 D 0.806271 0.472438 0.934098 0.0309 Uiso
C5_17 C 0.862059 0.485412 0.827366 0.0335 Uiso
D3_17 D 0.835990 0.441595 0.807305 0.0309 Uiso
C6_17 C 0.954633 0.594477 0.815464 0.0335 Uiso
C7_17 C 0.917007 0.530434 0.781828 0.0335 Uiso
D4_17 D 0.928570 0.518609 0.730504 0.0309 Uiso
D6_17 D 0.982043 0.798595 0.857291 0.0309 Uiso
D8_17 D 0.996206 0.872300 0.745361 0.0309 Uiso
N1_18 N 0.698272 0.017196 0.906976 0.0136 Uiso
C2_18 C 0.676391 0.063316 0.892304 0.0335 Uiso
C3_18 C 0.687244 0.119288 0.937346 0.0335 Uiso
D1_18 D 0.711665 0.131587 0.987759 0.0309 Uiso
C4_18 C 0.66015 0.155925 0.904784 0.0335 Uiso
D2_18 D 0.666168 0.193729 0.934098 0.0309 Uiso
C5_18 C 0.623354 0.137941 0.827366 0.0335 Uiso
D3_18 D 0.605606 0.164010 0.807305 0.0309 Uiso
C6_18 C 0.639845 0.045367 0.815464 0.0335 Uiso
C7_18 C 0.613428 0.082993 0.781828 0.0335 Uiso
D4_18 D 0.590040 0.071430 0.730504 0.0309 Uiso
D6_18 D 0.816553 0.017957 0.857291 0.0309 Uiso
D8_18 D 0.876095 0.003794 0.745361 0.0309 Uiso
loop_
_geom_bond_atom_site_label_1
_geom_bond_atom_site_label_2
_geom_bond_site_symmetry_1
_geom_bond_site_symmetry_2
D2 C4 1_555 1_555
C5 C4 1_555 1_555
D3 C5 1_555 1_555
C6 N2 1_555 1_555
C7 C5 1_555 1_555
D4 C7 1_555 1_555
Zn2 N2 1_555 1_555
C6 C7 1_555 1_555
N1 C1 1_555 1_555
C1 H1 1_555 1_555
C2 N1 1_555 1_555
C3 C2 1_555 1_555
D1 C3 1_555 1_555
N3 C8 1_555 1_555
C8 H2 1_555 1_555
N4 C8 1_555 1_555
C9 N4 1_555 1_555
C10 C9 1_555 1_555
D5 C10 1_555 1_555
C11 N3 1_555 1_555
C12 C11 1_555 1_555
D6 C12 1_555 1_555
C13 C10 1_555 1_555
D7 C13 1_555 1_555
C14 C12 1_555 1_555
D8 C14 1_555 1_555
Zn1 N1 1_555 1_555
N5 Zn1 1_555 1_555
N6 Zn1 1_555 1_555
Zn3 N4 1_555 1_555
N3 Zn1 1_555 1_555
C9 C11 1_555 1_555
C13 C14 1_555 1_555
N1_2 C1_2 1_555 1_555
C1_2 H1_2 1_555 1_555
C2_2 N1_2 1_555 1_555
C3_2 C2_2 1_555 1_555
D1_2 C3_2 1_555 1_555
N3_2 C8_2 1_555 1_555
C8_2 H2_2 1_555 1_555
N4_2 C8_2 1_555 1_555
C9_2 N4_2 1_555 1_555
C10_2 C9_2 1_555 1_555
D5_2 C10_2 1_555 1_555
C11_2 N3_2 1_555 1_555
C12_2 C11_2 1_555 1_555
D6_2 C12_2 1_555 1_555
C13_2 C10_2 1_555 1_555
D7_2 C13_2 1_555 1_555
C14_2 C12_2 1_555 1_555
D8_2 C14_2 1_555 1_555
Zn1_2 N1_2 1_555 1_555
N5_2 Zn1_2 1_555 1_555
N6_2 Zn1_2 1_555 1_555
Zn3_2 N4_2 1_555 1_555
N3_2 Zn1_2 1_555 1_555
C9_2 C11_2 1_555 1_555
C13_2 C14_2 1_555 1_555
D2_2 C4_2 1_555 1_555
C5_2 C4_2 1_555 1_555
D3_2 C5_2 1_555 1_555
C6_2 N2_2 1_555 1_555
C7_2 C5_2 1_555 1_555
D4_2 C7_2 1_555 1_555
Zn2_2 N2_2 1_555 1_555
C6_2 C7_2 1_555 1_555
N1_3 C1_3 1_555 1_555
C1_3 H1_3 1_555 1_555
N2_3 C1_3 1_555 1_555
C2_3 N1_3 1_555 1_555
C3_3 C2_3 1_555 1_555
D1_3 C3_3 1_555 1_555
C4_3 C3_3 1_555 1_555
D2_3 C4_3 1_555 1_555
C5_3 C4_3 1_555 1_555
D3_3 C5_3 1_555 1_555
C6_3 N2_3 1_555 1_555
C7_3 C5_3 1_555 1_555
D4_3 C7_3 1_555 1_555
N3_3 C8_3 1_555 1_555
C8_3 H2_3 1_555 1_555
N4_3 C8_3 1_555 1_555
C9_3 N4_3 1_555 1_555
C10_3 C9_3 1_555 1_555
D5_3 C10_3 1_555 1_555
C11_3 N3_3 1_555 1_555
C12_3 C11_3 1_555 1_555
D6_3 C12_3 1_555 1_555
C13_3 C10_3 1_555 1_555
D7_3 C13_3 1_555 1_555
C14_3 C12_3 1_555 1_555
D8_3 C14_3 1_555 1_555
Zn1_3 N1_3 1_555 1_555
N5_3 Zn1_3 1_555 1_555
N6_3 Zn1_3 1_555 1_555
Zn2_3 N2_3 1_555 1_555
Zn3_3 N4_3 1_555 1_555
C2_3 C6_3 1_555 1_555
C6_3 C7_3 1_555 1_555
N3_3 Zn1_3 1_555 1_555
C9_3 C11_3 1_555 1_555
C13_3 C14_3 1_555 1_555
N1_4 C1_4 1_555 1_555
C1_4 H1_4 1_555 1_555
N3_4 C8_4 1_555 1_555
C8_4 H2_4 1_555 1_555
N4_4 C8_4 1_555 1_555
C9_4 N4_4 1_555 1_555
C10_4 C9_4 1_555 1_555
D5_4 C10_4 1_555 1_555
C11_4 N3_4 1_555 1_555
C12_4 C11_4 1_555 1_555
D6_4 C12_4 1_555 1_555
C13_4 C10_4 1_555 1_555
D7_4 C13_4 1_555 1_555
C14_4 C12_4 1_555 1_555
D8_4 C14_4 1_555 1_555
Zn2 N1_4 1_555 1_555
N6_4 Zn2 1_555 1_555
Zn3_4 N4_4 1_555 1_555
N3_4 Zn2 1_555 1_555
C9_4 C11_4 1_555 1_555
C13_4 C14_4 1_555 1_555
N1_5 C1_5 1_555 1_555
C1_5 H1_5 1_555 1_555
N3_5 C8_5 1_555 1_555
C8_5 H2_5 1_555 1_555
N4_5 C8_5 1_555 1_555
C9_5 N4_5 1_555 1_555
C10_5 C9_5 1_555 1_555
D5_5 C10_5 1_555 1_555
C11_5 N3_5 1_555 1_555
C12_5 C11_5 1_555 1_555
D6_5 C12_5 1_555 1_555
C13_5 C10_5 1_555 1_555
D7_5 C13_5 1_555 1_555
C14_5 C12_5 1_555 1_555
D8_5 C14_5 1_555 1_555
Zn2_2 N1_5 1_555 1_555
N6_5 Zn2_2 1_555 1_555
Zn3_5 N4_5 1_555 1_555
N3_5 Zn2_2 1_555 1_555
C9_5 C11_5 1_555 1_555
C13_5 C14_5 1_555 1_555
N1_6 C1_6 1_555 1_555
C1_6 H1_6 1_555 1_555
N2_4 C1_6 1_555 1_555
C2_4 N1_6 1_555 1_555
C3_4 C2_4 1_555 1_555
D1_4 C3_4 1_555 1_555
C4_4 C3_4 1_555 1_555
D2_4 C4_4 1_555 1_555
C5_4 C4_4 1_555 1_555
D3_4 C5_4 1_555 1_555
C6_4 N2_4 1_555 1_555
C7_4 C5_4 1_555 1_555
D4_4 C7_4 1_555 1_555
N3_6 C8_6 1_555 1_555
C8_6 H2_6 1_555 1_555
N4_6 C8_6 1_555 1_555
C9_6 N4_6 1_555 1_555
C10_6 C9_6 1_555 1_555
D5_6 C10_6 1_555 1_555
C11_6 N3_6 1_555 1_555
C12_6 C11_6 1_555 1_555
D6_6 C12_6 1_555 1_555
C13_6 C10_6 1_555 1_555
D7_6 C13_6 1_555 1_555
C14_6 C12_6 1_555 1_555
D8_6 C14_6 1_555 1_555
Zn2_3 N1_6 1_555 1_555
N6_6 Zn2_3 1_555 1_555
Zn2_6 N2_4 1_555 1_555
Zn3_6 N4_6 1_555 1_555
C2_4 C6_4 1_555 1_555
C6_4 C7_4 1_555 1_555
N3_6 Zn2_3 1_555 1_555
C9_6 C11_6 1_555 1_555
C13_6 C14_6 1_555 1_555
N1_7 C1_7 1_555 1_555
C1_7 H1_7 1_555 1_555
N5_3 C1_7 1_555 1_555
C2_5 N1_7 1_555 1_555
C3_5 C2_5 1_555 1_555
D1_5 C3_5 1_555 1_555
C4_5 C3_5 1_555 1_555
D2_5 C4_5 1_555 1_555
C5_5 C4_5 1_555 1_555
D3_5 C5_5 1_555 1_555
C6_5 N5_3 1_555 1_555
C7_5 C5_5 1_555 1_555
D4_5 C7_5 1_555 1_555
C9_7 N4_7 1_555 1_555
C10_7 C9_7 1_555 1_555
C11_7 N3_7 1_555 1_555
C12_7 C11_7 1_555 1_555
D6_7 C12_7 1_555 1_555
C13_7 C10_7 1_555 1_555
D7_7 C13_7 1_555 1_555
C14_7 C12_7 1_555 1_555
D8_7 C14_7 1_555 1_555
Zn3_7 N4_7 1_555 1_555
C2_5 C6_5 1_555 1_555
C6_5 C7_5 1_555 1_555
C9_7 C11_7 1_555 1_555
C13_7 C14_7 1_555 1_555
C8_7 H2_7 1_555 1_555
N6_7 Zn2_6 1_555 1_555
N6_8 Zn2_4 1_555 1_555
C1_8 H1_8 1_555 1_555
N5 C1_8 1_555 1_555
C9_8 N4_8 1_555 1_555
C10_8 C9_8 1_555 1_555
C11_8 N3_8 1_555 1_555
C12_8 C11_8 1_555 1_555
C13_8 C10_8 1_555 1_555
D7_8 C13_8 1_555 1_555
C14_8 C12_8 1_555 1_555
Zn3_8 N4_8 1_555 1_555
C9_8 C11_8 1_555 1_555
C13_8 C14_8 1_555 1_555
C1_9 H1_9 1_555 1_555
N5_2 C1_9 1_555 1_555
C9_9 N4_9 1_555 1_555
C10_9 C9_9 1_555 1_555
D5_7 C10_9 1_555 1_555
C11_9 N3_9 1_555 1_555
C12_9 C11_9 1_555 1_555
C13_9 C10_9 1_555 1_555
D7_9 C13_9 1_555 1_555
C14_9 C12_9 1_555 1_555
Zn3_9 N4_9 1_555 1_555
C9_9 C11_9 1_555 1_555
C13_9 C14_9 1_555 1_555
N6_9 Zn2_5 1_555 1_555
N1_8 C1_10 1_555 1_555
C1_10 H1_10 1_555 1_555
C2_6 N1_8 1_555 1_555
C3_6 C2_6 1_555 1_555
D1_6 C3_6 1_555 1_555
N3_10 C8_8 1_555 1_555
C8_8 H2_8 1_555 1_555
N6_4 C8_8 1_555 1_555
C9_10 N6_4 1_555 1_555
C10_10 C9_10 1_555 1_555
D5_8 C10_10 1_555 1_555
C11_10 N3_10 1_555 1_555
C12_10 C11_10 1_555 1_555
D6_8 C12_10 1_555 1_555
C13_10 C10_10 1_555 1_555
D7_10 C13_10 1_555 1_555
C14_10 C12_10 1_555 1_555
D8_8 C14_10 1_555 1_555
Zn3_5 N1_8 1_555 1_555
N5_4 Zn3_5 1_555 1_555
N3_10 Zn3_5 1_555 1_555
C9_10 C11_10 1_555 1_555
C13_10 C14_10 1_555 1_555
D2_6 C4_6 1_555 1_555
C5_6 C4_6 1_555 1_555
D3_6 C5_6 1_555 1_555
C6_6 N2_5 1_555 1_555
C7_6 C5_6 1_555 1_555
D4_6 C7_6 1_555 1_555
Zn3 N2_5 1_555 1_555
C6_6 C7_6 1_555 1_555
D2_7 C4_7 1_555 1_555
C5_7 C4_7 1_555 1_555
D3_7 C5_7 1_555 1_555
C6_7 N2_6 1_555 1_555
C7_7 C5_7 1_555 1_555
D4_7 C7_7 1_555 1_555
Zn3_2 N2_6 1_555 1_555
C6_7 C7_7 1_555 1_555
N1_9 C1_11 1_555 1_555
C1_11 H1_11 1_555 1_555
C2_7 N1_9 1_555 1_555
C3_7 C2_7 1_555 1_555
D1_7 C3_7 1_555 1_555
N3_11 C8_9 1_555 1_555
C8_9 H2_9 1_555 1_555
N6_5 C8_9 1_555 1_555
C9_11 N6_5 1_555 1_555
C10_11 C9_11 1_555 1_555
D5_9 C10_11 1_555 1_555
C11_11 N3_11 1_555 1_555
C12_11 C11_11 1_555 1_555
D6_9 C12_11 1_555 1_555
C13_11 C10_11 1_555 1_555
D7_11 C13_11 1_555 1_555
C14_11 C12_11 1_555 1_555
D8_9 C14_11 1_555 1_555
Zn3_6 N1_9 1_555 1_555
N5_5 Zn3_6 1_555 1_555
N3_11 Zn3_6 1_555 1_555
C9_11 C11_11 1_555 1_555
C13_11 C14_11 1_555 1_555
N1_10 C1_12 1_555 1_555
C1_12 H1_12 1_555 1_555
N2_7 C1_12 1_555 1_555
C2_8 N1_10 1_555 1_555
C3_8 C2_8 1_555 1_555
D1_8 C3_8 1_555 1_555
C4_8 C3_8 1_555 1_555
D2_8 C4_8 1_555 1_555
C5_8 C4_8 1_555 1_555
D3_8 C5_8 1_555 1_555
C6_8 N2_7 1_555 1_555
C7_8 C5_8 1_555 1_555
D4_8 C7_8 1_555 1_555
N3_12 C8_10 1_555 1_555
C8_10 H2_10 1_555 1_555
N6_6 C8_10 1_555 1_555
C9_12 N6_6 1_555 1_555
C10_12 C9_12 1_555 1_555
D5_10 C10_12 1_555 1_555
C11_12 N3_12 1_555 1_555
C12_12 C11_12 1_555 1_555
D6_10 C12_12 1_555 1_555
C13_12 C10_12 1_555 1_555
D7_12 C13_12 1_555 1_555
C14_12 C12_12 1_555 1_555
D8_10 C14_12 1_555 1_555
Zn3_4 N1_10 1_555 1_555
N5_6 Zn3_4 1_555 1_555
Zn3_3 N2_7 1_555 1_555
C2_8 C6_8 1_555 1_555
C6_8 C7_8 1_555 1_555
N3_12 Zn3_4 1_555 1_555
C9_12 C11_12 1_555 1_555
C13_12 C14_12 1_555 1_555
N1_11 C1_13 1_555 1_555
C1_13 H1_13 1_555 1_555
N3_13 C8_11 1_555 1_555
C8_11 H2_11 1_555 1_555
N6_3 C8_11 1_555 1_555
C9_13 N6_3 1_555 1_555
C10_13 C9_13 1_555 1_555
D5_11 C10_13 1_555 1_555
C11_13 N3_13 1_555 1_555
C12_13 C11_13 1_555 1_555
D6_11 C12_13 1_555 1_555
C13_13 C10_13 1_555 1_555
D7_13 C13_13 1_555 1_555
C14_13 C12_13 1_555 1_555
D8_11 C14_13 1_555 1_555
Zn3 N1_11 1_555 1_555
N3_13 Zn3 1_555 1_555
C9_13 C11_13 1_555 1_555
C13_13 C14_13 1_555 1_555
N1_12 C1_14 1_555 1_555
C1_14 H1_14 1_555 1_555
N3_14 C8_12 1_555 1_555
C8_12 H2_12 1_555 1_555
N6 C8_12 1_555 1_555
C9_14 N6 1_555 1_555
C10_14 C9_14 1_555 1_555
D5_12 C10_14 1_555 1_555
C11_14 N3_14 1_555 1_555
C12_14 C11_14 1_555 1_555
D6_12 C12_14 1_555 1_555
C13_14 C10_14 1_555 1_555
D7_14 C13_14 1_555 1_555
C14_14 C12_14 1_555 1_555
D8_12 C14_14 1_555 1_555
Zn3_2 N1_12 1_555 1_555
N3_14 Zn3_2 1_555 1_555
C9_14 C11_14 1_555 1_555
C13_14 C14_14 1_555 1_555
N1_13 C1_15 1_555 1_555
C1_15 H1_15 1_555 1_555
N2_8 C1_15 1_555 1_555
C2_9 N1_13 1_555 1_555
C3_9 C2_9 1_555 1_555
D1_9 C3_9 1_555 1_555
C4_9 C3_9 1_555 1_555
D2_9 C4_9 1_555 1_555
C5_9 C4_9 1_555 1_555
D3_9 C5_9 1_555 1_555
C6_9 N2_8 1_555 1_555
C7_9 C5_9 1_555 1_555
D4_9 C7_9 1_555 1_555
N3_15 C8_13 1_555 1_555
C8_13 H2_13 1_555 1_555
N6_2 C8_13 1_555 1_555
C9_15 N6_2 1_555 1_555
C10_15 C9_15 1_555 1_555
D5_13 C10_15 1_555 1_555
C11_15 N3_15 1_555 1_555
C12_15 C11_15 1_555 1_555
D6_13 C12_15 1_555 1_555
C13_15 C10_15 1_555 1_555
D7_15 C13_15 1_555 1_555
C14_15 C12_15 1_555 1_555
D8_13 C14_15 1_555 1_555
Zn3_3 N1_13 1_555 1_555
Zn3_9 N2_8 1_555 1_555
C2_9 C6_9 1_555 1_555
C6_9 C7_9 1_555 1_555
N3_15 Zn3_3 1_555 1_555
C9_15 C11_15 1_555 1_555
C13_15 C14_15 1_555 1_555
C8_14 H2_14 1_555 1_555
N1_14 C1_16 1_555 1_555
C1_16 H1_16 1_555 1_555
N5_6 C1_16 1_555 1_555
C2_10 N1_14 1_555 1_555
C3_10 C2_10 1_555 1_555
D1_10 C3_10 1_555 1_555
C4_10 C3_10 1_555 1_555
D2_10 C4_10 1_555 1_555
C5_10 C4_10 1_555 1_555
D3_10 C5_10 1_555 1_555
C6_10 N5_6 1_555 1_555
C7_10 C5_10 1_555 1_555
D4_10 C7_10 1_555 1_555
C9_16 N6_8 1_555 1_555
C10_16 C9_16 1_555 1_555
C11_16 N3_16 1_555 1_555
C12_16 C11_16 1_555 1_555
D6_14 C12_16 1_555 1_555
C13_16 C10_16 1_555 1_555
D7_16 C13_16 1_555 1_555
C14_16 C12_16 1_555 1_555
D8_14 C14_16 1_555 1_555
C2_10 C6_10 1_555 1_555
C6_10 C7_10 1_555 1_555
C9_16 C11_16 1_555 1_555
C13_16 C14_16 1_555 1_555
C1_17 H1_17 1_555 1_555
N5_4 C1_17 1_555 1_555
C9_17 N6_9 1_555 1_555
C10_17 C9_17 1_555 1_555
C11_17 N3_17 1_555 1_555
C12_17 C11_17 1_555 1_555
C13_17 C10_17 1_555 1_555
D7_17 C13_17 1_555 1_555
C14_17 C12_17 1_555 1_555
C9_17 C11_17 1_555 1_555
C13_17 C14_17 1_555 1_555
C1_18 H1_18 1_555 1_555
N5_5 C1_18 1_555 1_555
C9_18 N6_7 1_555 1_555
C10_18 C9_18 1_555 1_555
D5_14 C10_18 1_555 1_555
C11_18 N3_18 1_555 1_555
C12_18 C11_18 1_555 1_555
C13_18 C10_18 1_555 1_555
D7_18 C13_18 1_555 1_555
C14_18 C12_18 1_555 1_555
C9_18 C11_18 1_555 1_555
C13_18 C14_18 1_555 1_555
C3_11 C2_11 1_555 1_555
D1_11 C3_11 1_555 1_555
C4_11 C3_11 1_555 1_555
D2_11 C4_11 1_555 1_555
C5_11 C4_11 1_555 1_555
D3_11 C5_11 1_555 1_555
C6_11 N2_9 1_555 1_555
C7_11 C5_11 1_555 1_555
D4_11 C7_11 1_555 1_555
C2_11 C6_11 1_555 1_555
C6_11 C7_11 1_555 1_555
C8_15 H2_15 1_555 1_555
C3_12 C2_12 1_555 1_555
D1_12 C3_12 1_555 1_555
C4_12 C3_12 1_555 1_555
D2_12 C4_12 1_555 1_555
C5_12 C4_12 1_555 1_555
D3_12 C5_12 1_555 1_555
C6_12 N2_10 1_555 1_555
C7_12 C5_12 1_555 1_555
D4_12 C7_12 1_555 1_555
C2_12 C6_12 1_555 1_555
C6_12 C7_12 1_555 1_555
C8_16 H2_16 1_555 1_555
C2_13 N1_15 1_555 1_555
C3_13 C2_13 1_555 1_555
D1_13 C3_13 1_555 1_555
C4_13 C3_13 1_555 1_555
D2_13 C4_13 1_555 1_555
C5_13 C4_13 1_555 1_555
D3_13 C5_13 1_555 1_555
C7_13 C5_13 1_555 1_555
D4_13 C7_13 1_555 1_555
C2_13 C6_13 1_555 1_555
C6_13 C7_13 1_555 1_555
C2_14 N1_16 1_555 1_555
C3_14 C2_14 1_555 1_555
D1_14 C3_14 1_555 1_555
C4_14 C3_14 1_555 1_555
D2_14 C4_14 1_555 1_555
C5_14 C4_14 1_555 1_555
D3_14 C5_14 1_555 1_555
C7_14 C5_14 1_555 1_555
D4_14 C7_14 1_555 1_555
C2_14 C6_14 1_555 1_555
C6_14 C7_14 1_555 1_555
C3_15 C2_15 1_555 1_555
D1_15 C3_15 1_555 1_555
C4_15 C3_15 1_555 1_555
D2_15 C4_15 1_555 1_555
C5_15 C4_15 1_555 1_555
D3_15 C5_15 1_555 1_555
C6_15 N2_11 1_555 1_555
C7_15 C5_15 1_555 1_555
D4_15 C7_15 1_555 1_555
C2_15 C6_15 1_555 1_555
C6_15 C7_15 1_555 1_555
C8_17 H2_17 1_555 1_555
C3_16 C2_16 1_555 1_555
D1_16 C3_16 1_555 1_555
C4_16 C3_16 1_555 1_555
D2_16 C4_16 1_555 1_555
C5_16 C4_16 1_555 1_555
D3_16 C5_16 1_555 1_555
C6_16 N2_12 1_555 1_555
C7_16 C5_16 1_555 1_555
D4_16 C7_16 1_555 1_555
C2_16 C6_16 1_555 1_555
C6_16 C7_16 1_555 1_555
C8_18 H2_18 1_555 1_555
C2_17 N1_17 1_555 1_555
C3_17 C2_17 1_555 1_555
D1_17 C3_17 1_555 1_555
C4_17 C3_17 1_555 1_555
D2_17 C4_17 1_555 1_555
C5_17 C4_17 1_555 1_555
D3_17 C5_17 1_555 1_555
C7_17 C5_17 1_555 1_555
D4_17 C7_17 1_555 1_555
C2_17 C6_17 1_555 1_555
C6_17 C7_17 1_555 1_555
C2_18 N1_18 1_555 1_555
C3_18 C2_18 1_555 1_555
D1_18 C3_18 1_555 1_555
C4_18 C3_18 1_555 1_555
D2_18 C4_18 1_555 1_555
C5_18 C4_18 1_555 1_555
D3_18 C5_18 1_555 1_555
C7_18 C5_18 1_555 1_555
D4_18 C7_18 1_555 1_555
C2_18 C6_18 1_555 1_555
C6_18 C7_18 1_555 1_555

#END
