
###############################################################################
#
# This file contains modified crystal structure data generated from the
# MOF subset of the Cambridge Structural Database (CSD) v543 
# hosted by the Cambridge Crystallographic Data Centre (CCDC).
#
# This work is licensed under the Creative Commons
# Attribution-NonCommercial-ShareAlike 4.0 International License.
# To view a copy of this license, visit
# http://creativecommons.org/licenses/by-nc-sa/4.0/
# or send a letter to
# Creative Commons, PO Box 1866, Mountain View, CA 94042, USA.
#
# CIF created using the CSD Python API on 29 September 2022
# The structure has been converted into the P1 space group
# The structure has a 3D framework
# The original CSD entry RIPROZ is in the hexagonal crystal system
# The framework has been calculated to contain at least 10.0% void space
# The void calculation uses a probe of radius 1.32A, grid spacing 0.4
# The framework is charged, counterions have been retained in the structure
#
###############################################################################

data_RIPROZ
_chemical_formula_moiety         '(C39 H15 Co11 Gd2 N18 O42 9-)n'
_symmetry_cell_setting           triclinic
_symmetry_space_group_name_H-M   'P 1'
_symmetry_Int_Tables_number      1
_space_group_name_Hall           'P 1'
loop_
_symmetry_equiv_pos_site_id
_symmetry_equiv_pos_as_xyz
1 x,y,z
_cell_length_a                   14.3327(10)
_cell_length_b                   14.3327(10)
_cell_length_c                   12.5871(9)
_cell_angle_alpha                90
_cell_angle_beta                 90
_cell_angle_gamma                120
_cell_volume                     2239.3
loop_
_atom_site_label
_atom_site_type_symbol
_atom_site_fract_x
_atom_site_fract_y
_atom_site_fract_z
Co4 Co 0.24691(12) -0.00000(17) 0.5000
C2 C -0.0000 0.8542(8) 0.5000
H1 H -0.0000 0.9191 0.5000
O4 O 0.0838(11) 0.8668(16) 0.5000(6)
Co4_2 Co 0.24691(12) 1.00000(17) 0.5000
O13 O 0.2170(12) 0.1332(16) 0.5000(6)
N8 N 0.2483(8) 0.0373(11) 0.2500
C12 C 0.1458(8) 0.1458(8) 0.5000
H3 H 0.0809 0.0809 0.5000
O16 O 0.1332(16) 0.2170(12) 0.5000(6)
Co8 Co -0.00000(17) 0.24691(12) 0.5000
Co9 Co 0.24691(12) -0.00000(17) 0.0000
O24 O 0.4106(6) 0.1203(8) 0.5146(4)
N12 N 0.2697(6) 0.0115(8) 0.6648(4)
Co9_2 Co 0.24691(12) -0.00000(17) 1.0000
Gd1 Gd 0.3333 0.6667 0.2500
Co1 Co 0.75309(12) 0.75309(12) 0.5000
O1 O 0.9162(11) 0.7830(12) 0.5000(6)
O2 O 0.5894(6) 0.7097(6) 0.4854(4)
O3 O 0.4575(6) 0.6771(6) 0.3714(5)
N1 N 0.7303(6) 0.7418(6) 0.3352(4)
N2 N 0.7890(8) 0.7517(8) 0.2500
C1 C 0.5548(7) 0.7007(8) 0.3913(5)
C2_2 C 1.0000 0.8542(8) 0.5000
H1_2 H 1.0000 0.9191 0.5000
C3 C 0.6328(7) 0.7164(8) 0.3077(6)
O5 O 0.5894(6) 0.7097(6) 0.0146(4)
O6 O 0.4575(6) 0.6771(6) 0.1286(5)
N3 N 0.7303(6) 0.7418(6) 0.1648(4)
C4 C 0.5548(7) 0.7007(8) 0.1087(5)
C5 C 0.6328(7) 0.7164(8) 0.1923(6)
Co2 Co -0.00000(17) 0.24691(12) 0.0000
O8 O 0.1203(8) 0.4106(6) 0.0146(4)
O9 O 0.2196(8) 0.5425(6) 0.1286(5)
N4 N 0.0115(8) 0.2697(6) 0.1648(4)
C6 C 0.1459(11) 0.4452(7) 0.1087(5)
C8 C 0.0836(11) 0.3672(7) 0.1923(6)
O11 O 0.1203(8) 0.4106(6) 0.4854(4)
O12 O 0.2196(8) 0.5425(6) 0.3714(5)
N6 N 0.0115(8) 0.2697(6) 0.3352(4)
C9 C 0.1459(11) 0.4452(7) 0.3913(5)
C10 C 0.0836(11) 0.3672(7) 0.3077(6)
O14 O 0.2903(6) 0.8797(8) 0.4854(4)
O15 O 0.3229(6) 0.7804(8) 0.3714(5)
N7 N 0.2582(6) 0.9885(8) 0.3352(4)
C11 C 0.2993(8) 0.8541(11) 0.3913(5)
C13 C 0.2836(8) 0.9164(11) 0.3077(6)
O17 O 0.2903(6) 0.8797(8) 0.0146(4)
O18 O 0.3229(6) 0.7804(8) 0.1286(5)
N9 N 0.2582(6) 0.9885(8) 0.1648(4)
C14 C 0.2993(8) 0.8541(11) 0.1087(5)
C15 C 0.2836(8) 0.9164(11) 0.1923(6)
Co6 Co 0.75309(12) 0.75309(12) 0.0000
Co9_3 Co 0.24691(12) 1.00000(17) 0.0000
O19 O 0.7830(12) 0.9162(11) 0.5000(6)
O20 O 0.1332(16) 0.2170(12) 0.0000(6)
O22 O 0.7097(6) 0.5894(6) 0.5146(4)
N10 N 0.7418(6) 0.7303(6) 0.6648(4)
Co2_2 Co -0.00000(17) 0.24691(12) 1.0000
Co6_2 Co 0.75309(12) 0.75309(12) 1.0000
Co9_4 Co 0.24691(12) 1.00000(17) 1.0000
O20_2 O 0.1332(16) 0.2170(12) 1.0000(6)
Co8_2 Co 1.00000(17) 0.24691(12) 0.5000
Co2_3 Co 1.00000(17) 0.24691(12) 0.0000
O7 O 0.8668(16) 0.0838(11) 0.0000(6)
N5 N 0.9627(11) 0.2110(8) 0.2500
C7 C 0.8542(8) 0.0000 0.0000
H2 H 0.9191 0.0000 0.0000
Co2_4 Co 1.00000(17) 0.24691(12) 1.0000
O7_2 O 0.8668(16) 0.0838(11) 1.0000(6)
C7_2 C 0.8542(8) -0.0000 1.0000
H2_2 H 0.9191 -0.0000 1.0000
O23 O 0.8797(8) 0.2903(6) 0.9854(4)
N11 N 0.9885(8) 0.2582(6) 0.8352(4)
C7_3 C 0.8542(8) 1.0000 0.0000
H2_3 H 0.9191 1.0000 0.0000
O10 O 0.7830(12) 0.9162(11) 0.0000(6)
C7_4 C 0.8542(8) 1.0000 1.0000
H2_4 H 0.9191 1.0000 1.0000
O10_2 O 0.7830(12) 0.9162(11) 1.0000(6)
C12_2 C -0.0000(11) 0.8542(8) 0.0000
H3_2 H -0.0000 0.9191 0.0000
O16_2 O 0.0838(20) 0.8668(16) 0.0000(6)
C12_3 C -0.0000(11) 0.8542(8) 1.0000
H3_3 H -0.0000 0.9191 1.0000
O16_3 O 0.0838(20) 0.8668(16) 1.0000(6)
O13_2 O 0.9162(20) 0.7830(12) 0.0000(6)
C12_4 C 1.0000(11) 0.8542(8) 0.0000
H3_4 H 1.0000 0.9191 0.0000
O13_3 O 0.9162(20) 0.7830(12) 1.0000(6)
C12_5 C 1.0000(11) 0.8542(8) 1.0000
H3_5 H 1.0000 0.9191 1.0000
O24_2 O 0.7097(10) 0.5894(6) 0.9854(4)
N12_2 N 0.7418(10) 0.7303(6) 0.8352(4)
O13_4 O 0.8668(16) 0.0838(20) 0.5000(6)
C12_6 C 0.8542(8) 0.0000(11) 0.5000
H3_6 H 0.9191 0.0000 0.5000
O24_3 O 0.8797(8) 0.2903(10) 0.5146(4)
N12_3 N 0.9885(8) 0.2582(10) 0.6648(4)
C12_7 C 0.8542(8) 1.0000(11) 0.5000
H3_7 H 0.9191 1.0000 0.5000
O13_5 O 0.2170(12) 0.1332(16) 0.0000(6)
C12_8 C 0.1458(8) 0.1458(8) 0.0000
H3_8 H 0.0809 0.0809 0.0000
O13_6 O 0.2170(12) 0.1332(16) 1.0000(6)
C12_9 C 0.1458(8) 0.1458(8) 1.0000
H3_9 H 0.0809 0.0809 1.0000
O24_4 O 0.4106(6) 0.1203(8) 0.9854(4)
N12_4 N 0.2697(6) 0.0115(8) 0.8352(4)
N8_2 N 0.0373(11) 0.2483(8) 0.7500
Gd1_2 Gd 0.6667 0.3333 0.7500
O3_2 O 0.6771(6) 0.4575(6) 0.8714(5)
N2_2 N 0.7517(8) 0.7890(8) 0.7500
C1_2 C 0.7007(8) 0.5548(7) 0.8913(5)
C3_2 C 0.7164(8) 0.6328(7) 0.8077(6)
O6_2 O 0.6771(6) 0.4575(6) 0.6286(5)
C4_2 C 0.7007(8) 0.5548(7) 0.6087(5)
C5_2 C 0.7164(8) 0.6328(7) 0.6923(6)
O9_2 O 0.5425(6) 0.2196(8) 0.6286(5)
C6_2 C 0.4452(7) 0.1459(11) 0.6087(5)
C8_2 C 0.3672(7) 0.0836(11) 0.6923(6)
O12_2 O 0.5425(6) 0.2196(8) 0.8714(5)
C9_2 C 0.4452(7) 0.1459(11) 0.8913(5)
C10_2 C 0.3672(7) 0.0836(11) 0.8077(6)
O15_2 O 0.7804(8) 0.3229(6) 0.8714(5)
C11_2 C 0.8541(11) 0.2993(8) 0.8913(5)
C13_2 C 0.9164(11) 0.2836(8) 0.8077(6)
O18_2 O 0.7804(8) 0.3229(6) 0.6286(5)
C14_2 C 0.8541(11) 0.2993(8) 0.6087(5)
C15_2 C 0.9164(11) 0.2836(8) 0.6923(6)
N5_2 N 0.2110(8) 0.9627(11) 0.7500
loop_
_geom_bond_atom_site_label_1
_geom_bond_atom_site_label_2
_geom_bond_site_symmetry_1
_geom_bond_site_symmetry_2
C2 H1 1_555 1_555
O4 C2 1_555 1_555
Co4_2 O4 1_555 1_555
Co4 O13 1_555 1_555
O13 C12 1_555 1_555
C12 H3 1_555 1_555
O16 C12 1_555 1_555
Co8 O16 1_555 1_555
O24 Co4 1_555 1_555
N12 Co4 1_555 1_555
Gd1 O3 1_555 1_555
Co1 O1 1_555 1_555
O1 C2_2 1_555 1_555
O2 Co1 1_555 1_555
O3 C1 1_555 1_555
N1 Co1 1_555 1_555
N2 N1 1_555 1_555
C1 O2 1_555 1_555
C2_2 H1_2 1_555 1_555
C3 N1 1_555 1_555
O5 C4 1_555 1_555
O6 Gd1 1_555 1_555
N3 N2 1_555 1_555
C4 O6 1_555 1_555
C5 C3 1_555 1_555
O8 Co2 1_555 1_555
O9 Gd1 1_555 1_555
N4 Co2 1_555 1_555
C6 O8 1_555 1_555
C8 N4 1_555 1_555
O11 C9 1_555 1_555
O12 Gd1 1_555 1_555
C9 O12 1_555 1_555
C10 C8 1_555 1_555
O14 Co4_2 1_555 1_555
O15 Gd1 1_555 1_555
N7 Co4_2 1_555 1_555
C11 O14 1_555 1_555
C13 N7 1_555 1_555
O17 C14 1_555 1_555
O18 Gd1 1_555 1_555
C14 O18 1_555 1_555
C15 C13 1_555 1_555
Co6 O5 1_555 1_555
Co8 O11 1_555 1_555
Co9_3 O17 1_555 1_555
O19 Co1 1_555 1_555
O20 Co2 1_555 1_555
O22 Co1 1_555 1_555
N10 Co1 1_555 1_555
C1 C3 1_555 1_555
N3 C5 1_555 1_555
N3 Co6 1_555 1_555
C4 C5 1_555 1_555
O9 C6 1_555 1_555
C6 C8 1_555 1_555
N6 C10 1_555 1_555
N6 Co8 1_555 1_555
C9 C10 1_555 1_555
O15 C11 1_555 1_555
C11 C13 1_555 1_555
N9 C15 1_555 1_555
N9 Co9_3 1_555 1_555
C14 C15 1_555 1_555
O20_2 Co2_2 1_555 1_555
Co2_3 O7 1_555 1_555
O7 C7 1_555 1_555
C7 H2 1_555 1_555
Co2_4 O7_2 1_555 1_555
O7_2 C7_2 1_555 1_555
C7_2 H2_2 1_555 1_555
O23 Co2_4 1_555 1_555
N11 Co2_4 1_555 1_555
C7_3 H2_3 1_555 1_555
O10 C7_3 1_555 1_555
Co6 O10 1_555 1_555
C7_4 H2_4 1_555 1_555
O10_2 C7_4 1_555 1_555
Co6_2 O10_2 1_555 1_555
C12_2 H3_2 1_555 1_555
O16_2 C12_2 1_555 1_555
Co9_3 O16_2 1_555 1_555
C12_3 H3_3 1_555 1_555
O16_3 C12_3 1_555 1_555
Co9_4 O16_3 1_555 1_555
Co6 O13_2 1_555 1_555
O13_2 C12_4 1_555 1_555
C12_4 H3_4 1_555 1_555
Co6_2 O13_3 1_555 1_555
O13_3 C12_5 1_555 1_555
C12_5 H3_5 1_555 1_555
O24_2 Co6_2 1_555 1_555
N12_2 Co6_2 1_555 1_555
Co8_2 O13_4 1_555 1_555
O13_4 C12_6 1_555 1_555
C12_6 H3_6 1_555 1_555
O24_3 Co8_2 1_555 1_555
N12_3 Co8_2 1_555 1_555
C12_7 H3_7 1_555 1_555
O19 C12_7 1_555 1_555
Co9 O13_5 1_555 1_555
O13_5 C12_8 1_555 1_555
C12_8 H3_8 1_555 1_555
O20 C12_8 1_555 1_555
Co9_2 O13_6 1_555 1_555
O13_6 C12_9 1_555 1_555
C12_9 H3_9 1_555 1_555
O20_2 C12_9 1_555 1_555
O24_4 Co9_2 1_555 1_555
N12_4 Co9_2 1_555 1_555
Gd1_2 O3_2 1_555 1_555
O3_2 C1_2 1_555 1_555
N2_2 N12_2 1_555 1_555
C1_2 O24_2 1_555 1_555
C3_2 N12_2 1_555 1_555
O22 C4_2 1_555 1_555
O6_2 Gd1_2 1_555 1_555
N10 N2_2 1_555 1_555
C4_2 O6_2 1_555 1_555
C5_2 C3_2 1_555 1_555
O9_2 Gd1_2 1_555 1_555
C6_2 O24 1_555 1_555
C8_2 N12 1_555 1_555
O24_4 C9_2 1_555 1_555
O12_2 Gd1_2 1_555 1_555
C9_2 O12_2 1_555 1_555
C10_2 C8_2 1_555 1_555
O15_2 Gd1_2 1_555 1_555
C11_2 O23 1_555 1_555
C13_2 N11 1_555 1_555
O24_3 C14_2 1_555 1_555
O18_2 Gd1_2 1_555 1_555
C14_2 O18_2 1_555 1_555
C15_2 C13_2 1_555 1_555
C1_2 C3_2 1_555 1_555
N10 C5_2 1_555 1_555
C4_2 C5_2 1_555 1_555
O9_2 C6_2 1_555 1_555
C6_2 C8_2 1_555 1_555
N12_4 C10_2 1_555 1_555
C9_2 C10_2 1_555 1_555
O15_2 C11_2 1_555 1_555
C11_2 C13_2 1_555 1_555
N12_3 C15_2 1_555 1_555
C14_2 C15_2 1_555 1_555

#END
