
###############################################################################
#
# This file contains modified crystal structure data generated from the
# MOF subset of the Cambridge Structural Database (CSD) v543 
# hosted by the Cambridge Crystallographic Data Centre (CCDC).
#
# This work is licensed under the Creative Commons
# Attribution-NonCommercial-ShareAlike 4.0 International License.
# To view a copy of this license, visit
# http://creativecommons.org/licenses/by-nc-sa/4.0/
# or send a letter to
# Creative Commons, PO Box 1866, Mountain View, CA 94042, USA.
#
# CIF created using the CSD Python API on 29 September 2022
# The structure has been converted into the P1 space group
# The structure has a 3D framework
# The original CSD entry RIPTAM is in the monoclinic crystal system
# The framework has been calculated to contain at least 10.0% void space
# The void calculation uses a probe of radius 1.32A, grid spacing 0.4
# H atom positions have been added when not included in the experimental data
# Generated hydrogen atom positions removed from atoms on special positions
#
###############################################################################

data_RIPTAM
_chemical_formula_moiety         '(C84 H108 Ca19 N12 O72 Tb4)n'
_symmetry_cell_setting           triclinic
_symmetry_space_group_name_H-M   'P 1'
_symmetry_Int_Tables_number      1
_space_group_name_Hall           'P 1'
loop_
_symmetry_equiv_pos_site_id
_symmetry_equiv_pos_as_xyz
1 x,y,z
_cell_length_a                   16.2024(12)
_cell_length_b                   9.4391(7)
_cell_length_c                   23.9864(18)
_cell_angle_alpha                90
_cell_angle_beta                 108.3540(10)
_cell_angle_gamma                90
_cell_volume                     3481.77
loop_
_atom_site_label
_atom_site_type_symbol
_atom_site_fract_x
_atom_site_fract_y
_atom_site_fract_z
Ca6 Ca 0.0000 0.0000 0.5000
H17 H 0.0174 0.5301 0.6309
H18 H 0.0101 0.3570 0.5609
Ca6_2 Ca 0.0000 1.0000 0.5000
Tb1 Tb 0.298158(14) 0.50047(2) 0.096960(10)
Ca2 Ca 0.5000 0.0000 0.0000
Ca3 Ca 0.0000 0.0000 0.0000
N1 N 0.1743(3) 0.5050(4) 0.0018(2)
C7 C 0.1197(3) 0.3068(5) 0.0410(2)
N2 N 0.2644(3) 0.4850(4) 0.19185(19)
C8 C 0.1689(3) 0.6812(6) 0.1545(2)
C9 C 0.2042(3) 0.5695(6) 0.2014(2)
C10 C 0.1749(5) 0.5522(9) 0.2493(3)
H4 H 0.1326 0.6117 0.2551
C11 C 0.2104(5) 0.4439(10) 0.2882(3)
H5 H 0.1935 0.4312 0.3215
C12 C 0.2705(4) 0.3555(7) 0.2776(3)
H6 H 0.2930 0.2796 0.3025
C13 C 0.2972(3) 0.3805(5) 0.2293(2)
C14 C 0.3635(3) 0.2904(5) 0.2132(2)
N3 N 0.4525(3) 0.5048(4) 0.0966(2)
C15 C 0.4116(3) 0.3070(5) 0.0322(2)
C16 C 0.4795(3) 0.4134(5) 0.0653(2)
C17 C 0.5637(4) 0.4165(6) 0.0616(3)
H7 H 0.5817 0.3507 0.0390
C18 C 0.6194(4) 0.5202(7) 0.0925(3)
H8 H 0.6757 0.5262 0.0907
C19 C 0.5910(4) 0.6145(6) 0.1262(3)
H9 H 0.6279 0.6848 0.1475
C20 C 0.5069(3) 0.6031(5) 0.1278(2)
C21 C 0.4681(3) 0.7019(5) 0.1618(2)
O1 O 0.3053(2) 0.6798(4) 0.02498(17)
O3 O 0.1857(2) 0.3234(4) 0.08598(17)
O4 O 0.0647(3) 0.2115(4) 0.03469(19)
O5 O 0.1946(2) 0.6730(4) 0.10996(17)
O6 O 0.1164(3) 0.7681(5) 0.1618(2)
O7 O 0.4020(3) 0.1957(4) 0.24759(17)
O8 O 0.3743(2) 0.3188(4) 0.16466(16)
O9 O 0.3358(2) 0.3279(4) 0.03431(17)
O10 O 0.4337(3) 0.2098(4) 0.00539(17)
O11 O 0.3893(2) 0.6786(4) 0.15803(17)
O12 O 0.5133(2) 0.7997(4) 0.19018(17)
O13 O 0.4696(3) 0.0948(4) 0.14831(16)
O15 O 0.6134(3) 0.0639(5) 0.0873(2)
Tb2 Tb 0.701842(14) 0.50047(2) 0.403040(10)
Ca4 Ca 0.5000 0.99768(10) 0.2500
Ca5 Ca 0.5000 0.0000 0.5000
Ca6_3 Ca 1.0000 0.0000 0.5000
N4 N 0.8257(3) 0.5050(4) 0.4982(2)
C22 C 0.7505(3) 0.6963(6) 0.5258(2)
C23 C 0.8295(3) 0.6032(5) 0.5391(2)
C24 C 0.9000(4) 0.6164(7) 0.5889(3)
H16 H 0.9013 0.6867 0.6164
C25 C 0.9689(5) 0.5233(8) 0.5976(4)
C26 C 0.9645(4) 0.4206(7) 0.5560(3)
C27 C 0.8916(3) 0.4130(5) 0.5068(2)
C28 C 0.8803(3) 0.3068(5) 0.4590(2)
N5 N 0.7356(3) 0.4850(4) 0.30815(19)
C29 C 0.8311(3) 0.6812(6) 0.3455(2)
C30 C 0.7958(3) 0.5695(6) 0.2986(2)
C31 C 0.8251(5) 0.5522(9) 0.2507(3)
H19 H 0.8674 0.6117 0.2449
C32 C 0.7896(5) 0.4439(10) 0.2118(3)
H20 H 0.8065 0.4312 0.1785
C33 C 0.7295(4) 0.3555(7) 0.2224(3)
H21 H 0.7070 0.2796 0.1975
C34 C 0.7028(3) 0.3805(5) 0.2707(2)
C35 C 0.6365(3) 0.2904(5) 0.2868(2)
N6 N 0.5475(3) 0.5048(4) 0.4034(2)
C36 C 0.5884(3) 0.3070(5) 0.4678(2)
C37 C 0.5205(3) 0.4134(5) 0.4347(2)
C38 C 0.4363(4) 0.4165(6) 0.4384(3)
H22 H 0.4183 0.3507 0.4610
C39 C 0.3806(4) 0.5202(7) 0.4075(3)
H23 H 0.3243 0.5262 0.4093
C40 C 0.4090(4) 0.6145(6) 0.3738(3)
H24 H 0.3721 0.6848 0.3525
C41 C 0.4931(3) 0.6031(5) 0.3722(2)
C42 C 0.5319(3) 0.7019(5) 0.3382(2)
O19 O 0.6947(2) 0.6798(4) 0.47502(17)
O20 O 0.7437(3) 0.7794(5) 0.5638(2)
O21 O 0.8143(2) 0.3234(4) 0.41402(17)
O23 O 0.9353(3) 0.2115(4) 0.46531(19)
O24 O 0.8054(2) 0.6730(4) 0.39004(17)
O25 O 0.8836(3) 0.7681(5) 0.3382(2)
O26 O 0.5980(3) 0.1957(4) 0.25241(17)
O27 O 0.6257(2) 0.3188(4) 0.33534(16)
O28 O 0.6642(2) 0.3279(4) 0.46569(17)
O30 O 0.5663(3) 0.2098(4) 0.49461(17)
O31 O 0.6107(2) 0.6786(4) 0.34197(17)
O34 O 0.4867(2) 0.7997(4) 0.30982(17)
O35 O 0.5304(3) 0.0948(4) 0.35169(16)
H31 H 0.588582 0.0783131 0.119816
Ca2_2 Ca 0.5000 0.0000 1.0000
Ca3_2 Ca 0.0000 0.0000 1.0000
C1 C 0.2495(3) 0.6963(6) 0.9742(2)
C2 C 0.1705(3) 0.6032(5) 0.9609(2)
C3 C 0.1000(4) 0.6164(7) 0.9111(3)
H1 H 0.0987 0.6867 0.8836
C4 C 0.0311(5) 0.5233(8) 0.9024(4)
C5 C 0.0355(4) 0.4206(7) 0.9440(3)
C6 C 0.1084(3) 0.4130(5) 0.9932(2)
O2 O 0.2563(3) 0.7794(5) 0.9362(2)
O38 O 0.5832(3) 0.0959(5) 0.9466(2)
O40 O 0.0095(5) 0.0530(8) 0.9071(3)
H27 H 0.612(5) 0.172(6) 0.954(4)
H28 H 0.604(8) 0.050(10) 0.923(5)
H37 H 0.383116 0.00743555 0.881614
H41 H 0.0714469 0.0661936 0.909809
Ca2_3 Ca 0.5000 1.0000 0.0000
Ca3_3 Ca 0.0000 1.0000 0.0000
O14 O 0.3494(3) 0.9134(4) 0.21244(19)
O16 O 0.4168(3) 0.9041(5) 0.0534(2)
O17 O 0.1380(3) 0.9001(5) 0.0343(3)
H10 H 0.346(6) 0.843(6) 0.190(3)
H11 H 0.314(5) 0.973(6) 0.192(3)
H12 H 0.388(5) 0.828(6) 0.046(4)
H13 H 0.396(8) 0.950(10) 0.077(5)
H14 H 0.179(3) 0.955(6) 0.033(3)
H15 H 0.162(5) 0.824(5) 0.049(4)
Ca5_2 Ca 0.5000 1.0000 0.5000
Ca6_4 Ca 1.0000 1.0000 0.5000
O36 O 0.6506(3) 0.9134(4) 0.28756(19)
H25 H 0.654(6) 0.843(6) 0.310(3)
H26 H 0.686(5) 0.973(6) 0.308(3)
H32 H 0.657423 0.987009 0.0979713
Ca2_4 Ca 0.5000 1.0000 1.0000
Ca3_4 Ca 0.0000 1.0000 1.0000
O29 O 0.5663(3) 0.7902(4) 0.99461(17)
O37 O 0.3866(3) 0.9361(5) 0.9127(2)
H38 H 0.399183 0.841493 0.899168
Ca3_5 Ca 1.0000 0.0000 0.0000
H33 H 0.955045 0.0204059 0.104404
Ca3_6 Ca 1.0000 0.0000 1.0000
H2 H 0.9826 0.5301 0.8691
H3 H 0.9899 0.3570 0.9391
O39 O 0.8620(3) 0.0999(5) 0.9657(3)
H29 H 0.821(3) 0.045(6) 0.967(3)
H30 H 0.838(5) 0.176(5) 0.951(4)
Ca3_7 Ca 1.0000 1.0000 0.0000
O18 O 0.9905(5) 0.9470(8) 0.0929(3)
H34 H 0.962661 0.85289 0.0918525
Ca3_8 Ca 1.0000 1.0000 1.0000
O22 O 0.9353(3) 0.7885(4) 0.96531(19)
H42 H 0.984354 0.973911 0.879722
O39_2 O 0.1380(3) 0.0999(5) 0.5343(3)
H29_2 H 0.179(3) 0.045(6) 0.533(3)
H30_2 H 0.162(5) 0.176(5) 0.549(4)
H33_2 H 0.0449546 0.0204059 0.395596
O18_2 O 0.0095(5) 0.9470(8) 0.4071(3)
O22_2 O 0.0647(3) 0.7885(4) 0.53469(19)
H34_2 H 0.0373385 0.85289 0.408147
H42_2 H 0.015646 0.973911 0.620278
O15_2 O 0.3866(3) 0.0639(5) 0.4127(2)
O38_2 O 0.4168(3) 0.0959(5) 0.5534(2)
O40_2 O 0.9905(5) 0.0530(8) 0.5929(3)
H27_2 H 0.388(5) 0.172(6) 0.546(4)
H28_2 H 0.396(8) 0.050(10) 0.577(5)
H31_2 H 0.411418 0.0783131 0.380184
H37_2 H 0.616884 0.00743555 0.618386
H41_2 H 0.928553 0.0661936 0.590191
O16_2 O 0.5832(3) 0.9041(5) 0.4466(2)
O17_2 O 0.8620(3) 0.9001(5) 0.4657(3)
H12_2 H 0.612(5) 0.828(6) 0.454(4)
H13_2 H 0.604(8) 0.950(10) 0.423(5)
H14_2 H 0.821(3) 0.955(6) 0.467(3)
H15_2 H 0.838(5) 0.824(5) 0.451(4)
O29_2 O 0.4337(3) 0.7902(4) 0.50539(17)
O37_2 O 0.6134(3) 0.9361(5) 0.5873(2)
H32_2 H 0.342577 0.987009 0.402029
H38_2 H 0.600817 0.841493 0.600832
H42_3 H 0.015646 0.0260887 0.120278
H34_3 H 0.0373385 0.14711 0.908147
H2_2 H 0.0174 0.4699 0.1309
H3_2 H 0.0101 0.6430 0.0609
H33_3 H 0.0449546 0.979594 0.895596
H38_3 H 0.600817 0.158507 0.100832
Ca1 Ca 0.5000 0.00232(10) 0.7500
O14_2 O 0.6506(3) 0.0866(4) 0.78756(19)
H10_2 H 0.654(6) 0.157(6) 0.810(3)
H11_2 H 0.686(5) 0.027(6) 0.808(3)
O32 O 0.4867(2) 0.2003(4) 0.80982(17)
O33 O 0.5133(2) 0.2003(4) 0.69018(17)
O36_2 O 0.3494(3) 0.0866(4) 0.71244(19)
H25_2 H 0.346(6) 0.157(6) 0.690(3)
H26_2 H 0.314(5) 0.027(6) 0.692(3)
H32_3 H 0.342577 0.0129907 0.902029
C1_2 C 0.7505(3) 0.3037(6) 0.0258(2)
C2_2 C 0.8295(3) 0.3968(5) 0.0391(2)
C3_2 C 0.9000(4) 0.3836(7) 0.0889(3)
H1_2 H 0.9013 0.3133 0.1164
C4_2 C 0.9689(5) 0.4767(8) 0.0976(4)
C5_2 C 0.9645(4) 0.5794(7) 0.0560(3)
C6_2 C 0.8916(3) 0.5870(5) 0.0068(2)
O2_2 O 0.7437(3) 0.2206(5) 0.0638(2)
H37_3 H 0.616884 0.992564 0.118386
H41_3 H 0.928553 0.933806 0.0901911
Tb1_2 Tb 0.701842(14) 0.49953(2) 0.903040(10)
N1_2 N 0.8257(3) 0.4950(4) 0.9982(2)
C7_2 C 0.8803(3) 0.6932(5) 0.9590(2)
N2_2 N 0.7356(3) 0.5150(4) 0.80815(19)
C8_2 C 0.8311(3) 0.3188(6) 0.8455(2)
C9_2 C 0.7958(3) 0.4305(6) 0.7986(2)
C10_2 C 0.8251(5) 0.4478(9) 0.7507(3)
H4_2 H 0.8674 0.3883 0.7449
C11_2 C 0.7896(5) 0.5561(10) 0.7118(3)
H5_2 H 0.8065 0.5688 0.6785
C12_2 C 0.7295(4) 0.6445(7) 0.7224(3)
H6_2 H 0.7070 0.7204 0.6975
C13_2 C 0.7028(3) 0.6195(5) 0.7707(2)
C14_2 C 0.6365(3) 0.7096(5) 0.7868(2)
N3_2 N 0.5475(3) 0.4952(4) 0.9034(2)
C15_2 C 0.5884(3) 0.6930(5) 0.9678(2)
C16_2 C 0.5205(3) 0.5866(5) 0.9347(2)
C17_2 C 0.4363(4) 0.5835(6) 0.9384(3)
H7_2 H 0.4183 0.6493 0.9610
C18_2 C 0.3806(4) 0.4798(7) 0.9075(3)
H8_2 H 0.3243 0.4738 0.9093
C19_2 C 0.4090(4) 0.3855(6) 0.8738(3)
H9_2 H 0.3721 0.3152 0.8525
C20_2 C 0.4931(3) 0.3969(5) 0.8722(2)
C21_2 C 0.5319(3) 0.2981(5) 0.8382(2)
O1_2 O 0.6947(2) 0.3202(4) 0.97502(17)
O3_2 O 0.8143(2) 0.6766(4) 0.91402(17)
O5_2 O 0.8054(2) 0.3270(4) 0.89004(17)
O6_2 O 0.8836(3) 0.2319(5) 0.8382(2)
O7_2 O 0.5980(3) 0.8043(4) 0.75241(17)
O8_2 O 0.6257(2) 0.6812(4) 0.83534(16)
O9_2 O 0.6642(2) 0.6721(4) 0.96569(17)
O11_2 O 0.6107(2) 0.3214(4) 0.84197(17)
O13_2 O 0.5304(3) 0.9052(4) 0.85169(16)
Tb2_2 Tb 0.298158(14) 0.49953(2) 0.596960(10)
N4_2 N 0.1743(3) 0.4950(4) 0.5018(2)
C22_2 C 0.2495(3) 0.3037(6) 0.4742(2)
C23_2 C 0.1705(3) 0.3968(5) 0.4609(2)
C24_2 C 0.1000(4) 0.3836(7) 0.4111(3)
H16_2 H 0.0987 0.3133 0.3836
C25_2 C 0.0311(5) 0.4767(8) 0.4024(4)
C26_2 C 0.0355(4) 0.5794(7) 0.4440(3)
C27_2 C 0.1084(3) 0.5870(5) 0.4932(2)
C28_2 C 0.1197(3) 0.6932(5) 0.5410(2)
N5_2 N 0.2644(3) 0.5150(4) 0.69185(19)
C29_2 C 0.1689(3) 0.3188(6) 0.6545(2)
C30_2 C 0.2042(3) 0.4305(6) 0.7014(2)
C31_2 C 0.1749(5) 0.4478(9) 0.7493(3)
H19_2 H 0.1326 0.3883 0.7551
C32_2 C 0.2104(5) 0.5561(10) 0.7882(3)
H20_2 H 0.1935 0.5688 0.8215
C33_2 C 0.2705(4) 0.6445(7) 0.7776(3)
H21_2 H 0.2930 0.7204 0.8025
C34_2 C 0.2972(3) 0.6195(5) 0.7293(2)
C35_2 C 0.3635(3) 0.7096(5) 0.7132(2)
N6_2 N 0.4525(3) 0.4952(4) 0.5966(2)
C36_2 C 0.4116(3) 0.6930(5) 0.5322(2)
C37_2 C 0.4795(3) 0.5866(5) 0.5653(2)
C38_2 C 0.5637(4) 0.5835(6) 0.5616(3)
H22_2 H 0.5817 0.6493 0.5390
C39_2 C 0.6194(4) 0.4798(7) 0.5925(3)
H23_2 H 0.6757 0.4738 0.5907
C40_2 C 0.5910(4) 0.3855(6) 0.6262(3)
H24_2 H 0.6279 0.3152 0.6475
C41_2 C 0.5069(3) 0.3969(5) 0.6278(2)
C42_2 C 0.4681(3) 0.2981(5) 0.6618(2)
O19_2 O 0.3053(2) 0.3202(4) 0.52498(17)
O20_2 O 0.2563(3) 0.2206(5) 0.4362(2)
O21_2 O 0.1857(2) 0.6766(4) 0.58598(17)
O24_2 O 0.1946(2) 0.3270(4) 0.60996(17)
O25_2 O 0.1164(3) 0.2319(5) 0.6618(2)
O26_2 O 0.4020(3) 0.8043(4) 0.74759(17)
O27_2 O 0.3743(2) 0.6812(4) 0.66466(16)
O28_2 O 0.3358(2) 0.6721(4) 0.53431(17)
O31_2 O 0.3893(2) 0.3214(4) 0.65803(17)
O35_2 O 0.4696(3) 0.9052(4) 0.64831(16)
H31_3 H 0.411418 0.921687 0.880184
H17_2 H 0.9826 0.4699 0.3691
H18_2 H 0.9899 0.6430 0.4391
H32_4 H 0.657423 0.0129907 0.597971
H38_4 H 0.399183 0.158507 0.399168
H31_4 H 0.588582 0.921687 0.619816
H37_4 H 0.383116 0.992564 0.381614
H41_4 H 0.0714469 0.933806 0.409809
H34_4 H 0.962661 0.14711 0.591853
H42_4 H 0.984354 0.0260887 0.379722
H33_4 H 0.955045 0.979594 0.604404
loop_
_geom_bond_atom_site_label_1
_geom_bond_atom_site_label_2
_geom_bond_site_symmetry_1
_geom_bond_site_symmetry_2
Tb1 N1 1_555 1_555
Ca2 O10 1_555 1_555
Ca3 O4 1_555 1_555
N2 Tb1 1_555 1_555
C8 C9 1_555 1_555
C9 N2 1_555 1_555
C10 C9 1_555 1_555
H4 C10 1_555 1_555
C11 C10 1_555 1_555
H5 C11 1_555 1_555
C12 C11 1_555 1_555
H6 C12 1_555 1_555
C13 N2 1_555 1_555
C14 C13 1_555 1_555
N3 Tb1 1_555 1_555
C15 C16 1_555 1_555
C16 N3 1_555 1_555
C17 C16 1_555 1_555
H7 C17 1_555 1_555
C18 C17 1_555 1_555
H8 C18 1_555 1_555
C19 C18 1_555 1_555
H9 C19 1_555 1_555
C20 N3 1_555 1_555
C21 C20 1_555 1_555
O1 Tb1 1_555 1_555
O3 Tb1 1_555 1_555
O4 C7 1_555 1_555
O5 Tb1 1_555 1_555
O6 C8 1_555 1_555
O7 C14 1_555 1_555
O8 Tb1 1_555 1_555
O9 Tb1 1_555 1_555
O10 C15 1_555 1_555
O11 Tb1 1_555 1_555
O12 C21 1_555 1_555
O15 Ca2 1_555 1_555
Tb2 N4 1_555 1_555
Ca4 O12 1_555 1_555
Ca5 O30 1_555 1_555
Ca6_3 O23 1_555 1_555
N4 C23 1_555 1_555
C22 C23 1_555 1_555
C23 C24 1_555 1_555
C24 H16 1_555 1_555
C25 C24 1_555 1_555
C26 C25 1_555 1_555
C27 N4 1_555 1_555
C28 C27 1_555 1_555
N5 Tb2 1_555 1_555
C29 C30 1_555 1_555
C30 N5 1_555 1_555
C31 C30 1_555 1_555
H19 C31 1_555 1_555
C32 C31 1_555 1_555
H20 C32 1_555 1_555
C33 C32 1_555 1_555
H21 C33 1_555 1_555
C34 N5 1_555 1_555
C35 C34 1_555 1_555
N6 Tb2 1_555 1_555
C36 C37 1_555 1_555
C37 N6 1_555 1_555
C38 C37 1_555 1_555
H22 C38 1_555 1_555
C39 C38 1_555 1_555
H23 C39 1_555 1_555
C40 C39 1_555 1_555
H24 C40 1_555 1_555
C41 N6 1_555 1_555
C42 C41 1_555 1_555
O19 Tb2 1_555 1_555
O20 C22 1_555 1_555
O21 Tb2 1_555 1_555
O23 C28 1_555 1_555
O24 Tb2 1_555 1_555
O25 C29 1_555 1_555
O27 Tb2 1_555 1_555
O28 Tb2 1_555 1_555
O30 C36 1_555 1_555
O31 Tb2 1_555 1_555
O34 Ca4 1_555 1_555
C7 O3 1_555 1_555
C8 O5 1_555 1_555
C12 C13 1_555 1_555
C14 O8 1_555 1_555
C15 O9 1_555 1_555
C19 C20 1_555 1_555
C21 O11 1_555 1_555
C22 O19 1_555 1_555
C26 C27 1_555 1_555
C28 O21 1_555 1_555
C29 O24 1_555 1_555
C33 C34 1_555 1_555
C35 O26 1_555 1_555
C35 O27 1_555 1_555
C36 O28 1_555 1_555
C40 C41 1_555 1_555
C42 O31 1_555 1_555
C42 O34 1_555 1_555
O15 H31 1_555 1_555
C1 C2 1_555 1_555
C2 C3 1_555 1_555
C3 H1 1_555 1_555
C4 C3 1_555 1_555
C5 C4 1_555 1_555
O2 C1 1_555 1_555
O38 Ca2_2 1_555 1_555
O40 Ca3_2 1_555 1_555
H27 O38 1_555 1_555
H28 O38 1_555 1_555
C5 C6 1_555 1_555
O40 H41 1_555 1_555
O14 Ca4 1_555 1_555
O16 Ca2_3 1_555 1_555
O17 Ca3_3 1_555 1_555
H10 O14 1_555 1_555
H11 O14 1_555 1_555
H12 O16 1_555 1_555
H13 O16 1_555 1_555
H14 O17 1_555 1_555
H15 O17 1_555 1_555
O36 Ca4 1_555 1_555
H25 O36 1_555 1_555
H26 O36 1_555 1_555
O29 Ca2_4 1_555 1_555
O37 Ca2_4 1_555 1_555
O37 H38 1_555 1_555
O39 Ca3_6 1_555 1_555
H29 O39 1_555 1_555
H30 O39 1_555 1_555
O18 Ca3_7 1_555 1_555
O18 H34 1_555 1_555
O22 Ca3_8 1_555 1_555
O39_2 Ca6 1_555 1_555
H29_2 O39_2 1_555 1_555
H30_2 O39_2 1_555 1_555
O18_2 Ca6_2 1_555 1_555
O22_2 Ca6_2 1_555 1_555
O18_2 H34_2 1_555 1_555
O15_2 Ca5 1_555 1_555
O38_2 Ca5 1_555 1_555
O40_2 Ca6_3 1_555 1_555
H27_2 O38_2 1_555 1_555
H28_2 O38_2 1_555 1_555
O15_2 H31_2 1_555 1_555
O40_2 H41_2 1_555 1_555
O16_2 Ca5_2 1_555 1_555
O17_2 Ca6_4 1_555 1_555
H12_2 O16_2 1_555 1_555
H13_2 O16_2 1_555 1_555
H14_2 O17_2 1_555 1_555
H15_2 O17_2 1_555 1_555
O29_2 Ca5_2 1_555 1_555
O37_2 Ca5_2 1_555 1_555
O37_2 H38_2 1_555 1_555
O40 H34_3 1_555 1_555
O15 H38_3 1_555 1_555
O14_2 Ca1 1_555 1_555
H10_2 O14_2 1_555 1_555
H11_2 O14_2 1_555 1_555
O32 Ca1 1_555 1_555
O33 Ca1 1_555 1_555
O36_2 Ca1 1_555 1_555
H25_2 O36_2 1_555 1_555
H26_2 O36_2 1_555 1_555
C1_2 C2_2 1_555 1_555
C2_2 C3_2 1_555 1_555
C3_2 H1_2 1_555 1_555
C4_2 C3_2 1_555 1_555
C5_2 C4_2 1_555 1_555
O2_2 C1_2 1_555 1_555
C5_2 C6_2 1_555 1_555
O18 H41_3 1_555 1_555
Tb1_2 N1_2 1_555 1_555
N2_2 Tb1_2 1_555 1_555
C8_2 C9_2 1_555 1_555
C9_2 N2_2 1_555 1_555
C10_2 C9_2 1_555 1_555
H4_2 C10_2 1_555 1_555
C11_2 C10_2 1_555 1_555
H5_2 C11_2 1_555 1_555
C12_2 C11_2 1_555 1_555
H6_2 C12_2 1_555 1_555
C13_2 N2_2 1_555 1_555
C14_2 C13_2 1_555 1_555
N3_2 Tb1_2 1_555 1_555
C15_2 C16_2 1_555 1_555
C16_2 N3_2 1_555 1_555
C17_2 C16_2 1_555 1_555
H7_2 C17_2 1_555 1_555
C18_2 C17_2 1_555 1_555
H8_2 C18_2 1_555 1_555
C19_2 C18_2 1_555 1_555
H9_2 C19_2 1_555 1_555
C20_2 N3_2 1_555 1_555
C21_2 C20_2 1_555 1_555
O1_2 Tb1_2 1_555 1_555
O3_2 Tb1_2 1_555 1_555
O22 C7_2 1_555 1_555
O5_2 Tb1_2 1_555 1_555
O6_2 C8_2 1_555 1_555
O7_2 C14_2 1_555 1_555
O8_2 Tb1_2 1_555 1_555
O9_2 Tb1_2 1_555 1_555
O29 C15_2 1_555 1_555
O11_2 Tb1_2 1_555 1_555
O32 C21_2 1_555 1_555
Tb2_2 N4_2 1_555 1_555
N4_2 C23_2 1_555 1_555
C22_2 C23_2 1_555 1_555
C23_2 C24_2 1_555 1_555
C24_2 H16_2 1_555 1_555
C25_2 C24_2 1_555 1_555
C26_2 C25_2 1_555 1_555
C27_2 N4_2 1_555 1_555
C28_2 C27_2 1_555 1_555
N5_2 Tb2_2 1_555 1_555
C29_2 C30_2 1_555 1_555
C30_2 N5_2 1_555 1_555
C31_2 C30_2 1_555 1_555
H19_2 C31_2 1_555 1_555
C32_2 C31_2 1_555 1_555
H20_2 C32_2 1_555 1_555
C33_2 C32_2 1_555 1_555
H21_2 C33_2 1_555 1_555
C34_2 N5_2 1_555 1_555
C35_2 C34_2 1_555 1_555
N6_2 Tb2_2 1_555 1_555
C36_2 C37_2 1_555 1_555
C37_2 N6_2 1_555 1_555
C38_2 C37_2 1_555 1_555
H22_2 C38_2 1_555 1_555
C39_2 C38_2 1_555 1_555
H23_2 C39_2 1_555 1_555
C40_2 C39_2 1_555 1_555
H24_2 C40_2 1_555 1_555
C41_2 N6_2 1_555 1_555
C42_2 C41_2 1_555 1_555
O19_2 Tb2_2 1_555 1_555
O20_2 C22_2 1_555 1_555
O21_2 Tb2_2 1_555 1_555
O22_2 C28_2 1_555 1_555
O24_2 Tb2_2 1_555 1_555
O25_2 C29_2 1_555 1_555
O27_2 Tb2_2 1_555 1_555
O28_2 Tb2_2 1_555 1_555
O29_2 C36_2 1_555 1_555
O31_2 Tb2_2 1_555 1_555
C7_2 O3_2 1_555 1_555
C8_2 O5_2 1_555 1_555
C12_2 C13_2 1_555 1_555
C14_2 O8_2 1_555 1_555
C15_2 O9_2 1_555 1_555
C19_2 C20_2 1_555 1_555
C21_2 O11_2 1_555 1_555
C22_2 O19_2 1_555 1_555
C26_2 C27_2 1_555 1_555
C28_2 O21_2 1_555 1_555
C29_2 O24_2 1_555 1_555
C33_2 C34_2 1_555 1_555
C35_2 O26_2 1_555 1_555
C35_2 O27_2 1_555 1_555
C36_2 O28_2 1_555 1_555
C40_2 C41_2 1_555 1_555
C42_2 O31_2 1_555 1_555
C42_2 O33 1_555 1_555
O37 H31_3 1_555 1_555
O15_2 H38_4 1_555 1_555
O37_2 H31_4 1_555 1_555
O18_2 H41_4 1_555 1_555
O40_2 H34_4 1_555 1_555

#END
