
###############################################################################
#
# This file contains modified crystal structure data generated from the
# MOF subset of the Cambridge Structural Database (CSD) v543 
# hosted by the Cambridge Crystallographic Data Centre (CCDC).
#
# This work is licensed under the Creative Commons
# Attribution-NonCommercial-ShareAlike 4.0 International License.
# To view a copy of this license, visit
# http://creativecommons.org/licenses/by-nc-sa/4.0/
# or send a letter to
# Creative Commons, PO Box 1866, Mountain View, CA 94042, USA.
#
# CIF created using the CSD Python API on 29 September 2022
# The structure has been converted into the P1 space group
# The structure has a 3D framework
# The original CSD entry RIQCOM is in the monoclinic crystal system
# The framework has been calculated to contain at least 10.0% void space
# The void calculation uses a probe of radius 1.32A, grid spacing 0.4
#
###############################################################################

data_RIQCOM
_chemical_formula_moiety         '(C216 H168 Cd8 N48 O48)n'
_symmetry_cell_setting           triclinic
_symmetry_space_group_name_H-M   'P 1'
_symmetry_Int_Tables_number      1
_space_group_name_Hall           'P 1'
loop_
_symmetry_equiv_pos_site_id
_symmetry_equiv_pos_as_xyz
1 x,y,z
_cell_length_a                   32.0222(11)
_cell_length_b                   15.5677(6)
_cell_length_c                   27.9349(11)
_cell_angle_alpha                90
_cell_angle_beta                 108.2360(10)
_cell_angle_gamma                90
_cell_volume                     13226.5
loop_
_atom_site_label
_atom_site_type_symbol
_atom_site_fract_x
_atom_site_fract_y
_atom_site_fract_z
Cd1 Cd 0.37184(2) 0.25368(2) 0.14307(2)
O1 O 0.44359(10) 0.2932(3) 0.17993(13)
O2 O 0.82051(11) 0.2502(2) 0.55733(13)
O3 O 0.88303(11) 0.6634(3) 0.21180(15)
O4 O 0.87268(11) 0.3482(2) 0.58415(13)
O5 O 0.81347(12) 0.6726(3) 0.16353(14)
N1 N 0.72653(13) 0.4281(3) 0.32084(16)
O6 O 0.41873(12) 0.3505(3) 0.10420(15)
N2 N 0.72009(13) 0.3734(3) 0.39477(15)
H1 H 0.704076 0.341998 0.408568
N3 N 0.65940(12) 0.3679(3) 0.32413(16)
N4 N 0.59833(13) 0.3759(3) 0.25396(16)
H2 H 0.586041 0.351577 0.274634
N5 N 0.66322(13) 0.4316(3) 0.24768(16)
C1 C 0.82030(15) 0.3708(3) 0.50419(18)
C2 C 0.83922(15) 0.3200(3) 0.55155(19)
C3 C 0.56905(15) 0.3900(4) 0.2048(2)
C4 C 0.44906(16) 0.3363(4) 0.1440(2)
C5 C 0.78012(15) 0.3498(3) 0.46969(18)
H3 H 0.764784 0.300607 0.475393
C6 C 0.52712(15) 0.3567(4) 0.19635(19)
H4 H 0.520721 0.324412 0.222060
C7 C 0.49471(16) 0.3700(4) 0.15109(19)
N6 N 0.72854(14) 0.4808(4) 0.24367(17)
H5 H 0.712851 0.492299 0.212363
C8 C 0.76188(15) 0.3990(3) 0.42718(19)
C9 C 0.84233(17) 0.6430(4) 0.2008(2)
C10 C 0.70182(15) 0.3915(3) 0.34508(19)
C11 C 0.64144(15) 0.3929(4) 0.27497(19)
C12 C 0.70588(15) 0.4458(4) 0.2724(2)
C13 C 0.57903(17) 0.4331(4) 0.1665(2)
H6 H 0.607765 0.455394 0.171928
C14 C 0.78594(16) 0.5585(4) 0.22517(19)
H7 H 0.764190 0.583195 0.197232
C15 C 0.83009(17) 0.5794(4) 0.2345(2)
C16 C 0.77373(17) 0.5017(4) 0.2565(2)
C17 C 0.7836(2) 0.4720(4) 0.4194(2)
H8 H 0.770751 0.506968 0.390756
C18 C 0.84238(19) 0.4431(4) 0.4958(2)
H9 H 0.870076 0.457887 0.519180
C19 C 0.50507(18) 0.4138(4) 0.1125(2)
H10 H 0.483030 0.422768 0.081068
C20 C 0.86210(17) 0.5428(4) 0.2749(2)
H11 H 0.892138 0.557402 0.281123
C21 C 0.85028(18) 0.4844(5) 0.3066(2)
C22 C 0.80555(18) 0.4654(4) 0.2967(2)
H12 H 0.796981 0.426658 0.318199
C23 C 0.8242(2) 0.4945(4) 0.4533(2)
C24 C 0.5471(2) 0.4439(5) 0.1200(2)
C25 C 0.8852(2) 0.4421(6) 0.3502(3)
H13 H 0.894479 0.387910 0.338819
H14 H 0.872985 0.430589 0.377677
H15 H 0.910570 0.480494 0.362280
C26 C 0.8486(3) 0.5743(6) 0.4438(3)
H16 H 0.877857 0.576805 0.468952
H17 H 0.831983 0.625961 0.446419
H18 H 0.851586 0.571000 0.409997
C27 C 0.5583(2) 0.4880(6) 0.0770(3)
H19 H 0.550345 0.548854 0.076117
H20 H 0.541923 0.460743 0.045047
H21 H 0.589942 0.482730 0.082235
Cd2 Cd 0.62816(2) 0.25368(2) 0.35693(2)
Cd3 Cd 0.87184(2) 0.75368(2) 0.14307(2)
Cd4 Cd 0.87184(2) 0.24632(2) 0.64307(2)
O7 O 0.32051(11) 0.2498(2) 0.05733(13)
O8 O 0.38303(11) 0.1634(3) 0.21180(15)
O9 O 0.37268(11) 0.1518(2) 0.08415(13)
O10 O 0.31347(12) 0.1726(3) 0.16353(14)
N7 N 0.34060(12) 0.3679(3) 0.17587(16)
O1_2 O 0.55641(10) 0.2932(3) 0.32007(13)
O3_2 O 0.11697(11) 0.6634(3) 0.28820(15)
O5_2 O 0.18653(12) 0.6726(3) 0.33647(14)
N1_2 N 0.27347(13) 0.4281(3) 0.17916(16)
O6_2 O 0.58127(12) 0.3505(3) 0.39580(15)
N2_2 N 0.27991(13) 0.3734(3) 0.10523(15)
H1_2 H 0.295924 0.341998 0.091432
N4_2 N 0.40167(13) 0.3759(3) 0.24604(16)
H2_2 H 0.413959 0.351577 0.225366
N5_2 N 0.33678(13) 0.4316(3) 0.25232(16)
C3_2 C 0.43095(15) 0.3900(4) 0.2952(2)
C4_2 C 0.55094(16) 0.3363(4) 0.3560(2)
C5_2 C 0.21988(15) 0.3498(3) 0.03031(18)
H3_2 H 0.235216 0.300607 0.024607
C6_2 C 0.47288(15) 0.3567(4) 0.30365(19)
H4_2 H 0.479279 0.324412 0.277940
C7_2 C 0.50529(16) 0.3700(4) 0.34891(19)
N6_2 N 0.27146(14) 0.4808(4) 0.25633(17)
H5_2 H 0.287149 0.492299 0.287637
C8_2 C 0.23812(15) 0.3990(3) 0.07282(19)
C9_2 C 0.15767(17) 0.6430(4) 0.2992(2)
C10_2 C 0.29818(15) 0.3915(3) 0.15492(19)
C11_2 C 0.35856(15) 0.3929(4) 0.22503(19)
C12_2 C 0.29412(15) 0.4458(4) 0.2276(2)
C13_2 C 0.42097(17) 0.4331(4) 0.3335(2)
H6_2 H 0.392235 0.455394 0.328072
C14_2 C 0.21406(16) 0.5585(4) 0.27483(19)
H7_2 H 0.235810 0.583195 0.302768
C15_2 C 0.16991(17) 0.5794(4) 0.2655(2)
C16_2 C 0.22627(17) 0.5017(4) 0.2435(2)
C17_2 C 0.2164(2) 0.4720(4) 0.0806(2)
H8_2 H 0.229249 0.506968 0.109244
C18_2 C 0.15762(19) 0.4431(4) 0.0042(2)
C19_2 C 0.49493(18) 0.4138(4) 0.3875(2)
H10_2 H 0.516970 0.422768 0.418932
C20_2 C 0.13790(17) 0.5428(4) 0.2251(2)
H11_2 H 0.107862 0.557402 0.218877
C21_2 C 0.14972(18) 0.4844(5) 0.1934(2)
C22_2 C 0.19445(18) 0.4654(4) 0.2033(2)
H12_2 H 0.203019 0.426658 0.181801
C23_2 C 0.1758(2) 0.4945(4) 0.0467(2)
C24_2 C 0.4529(2) 0.4439(5) 0.3800(2)
C25_2 C 0.1148(2) 0.4421(6) 0.1498(3)
H13_2 H 0.105521 0.387910 0.161181
H14_2 H 0.127015 0.430589 0.122323
H15_2 H 0.089430 0.480494 0.137720
C26_2 C 0.1514(3) 0.5743(6) 0.0562(3)
H16_2 H 0.122143 0.576805 0.031048
H17_2 H 0.168017 0.625961 0.053581
H18_2 H 0.148414 0.571000 0.090003
C27_2 C 0.4417(2) 0.4880(6) 0.4230(3)
H19_2 H 0.449655 0.548854 0.423883
H20_2 H 0.458077 0.460743 0.454953
H21_2 H 0.410058 0.482730 0.417765
Cd3_2 Cd 0.12816(2) 0.75368(2) 0.35693(2)
O7_2 O 0.67949(11) 0.2498(2) 0.44267(13)
O8_2 O 0.61697(11) 0.1634(3) 0.28820(15)
O9_2 O 0.62732(11) 0.1518(2) 0.41585(13)
O10_2 O 0.68653(12) 0.1726(3) 0.33647(14)
O2_2 O 0.17949(11) 0.2502(2) 0.94267(13)
O4_2 O 0.12732(11) 0.3482(2) 0.91585(13)
C1_2 C 0.17970(15) 0.3708(3) 0.99581(18)
C2_2 C 0.16078(15) 0.3200(3) 0.94845(19)
H9_2 H 0.129924 0.457887 0.980820
Cd4_2 Cd 0.12816(2) 0.24632(2) 0.85693(2)
C9_3 C 0.34233(17) 0.1430(4) 0.2008(2)
C14_3 C 0.28594(16) 0.0585(4) 0.22517(19)
H7_3 H 0.264190 0.083195 0.197232
C15_3 C 0.33009(17) 0.0794(4) 0.2345(2)
C16_3 C 0.27373(17) 0.0017(4) 0.2565(2)
H8_3 H 0.270751 0.006968 0.390756
C20_3 C 0.36210(17) 0.0428(4) 0.2749(2)
H11_3 H 0.392138 0.057402 0.281123
C26_3 C 0.3486(3) 0.0743(6) 0.4438(3)
H16_3 H 0.377857 0.076805 0.468952
H17_3 H 0.331983 0.125961 0.446419
H18_3 H 0.351586 0.071000 0.409997
H19_3 H 0.050345 0.048854 0.076117
O2_3 O 0.32051(11) 0.7502(2) 0.55733(13)
O4_3 O 0.37268(11) 0.8482(2) 0.58415(13)
N1_3 N 0.22653(13) 0.9281(3) 0.32084(16)
N2_3 N 0.22009(13) 0.8734(3) 0.39477(15)
H1_3 H 0.204076 0.841998 0.408568
N3_2 N 0.15940(12) 0.8679(3) 0.32413(16)
N4_3 N 0.09833(13) 0.8759(3) 0.25396(16)
H2_3 H 0.086041 0.851577 0.274634
N5_3 N 0.16322(13) 0.9316(3) 0.24768(16)
C1_3 C 0.32030(15) 0.8708(3) 0.50419(18)
C2_3 C 0.33922(15) 0.8200(3) 0.55155(19)
C3_3 C 0.06905(15) 0.8900(4) 0.2048(2)
C5_3 C 0.28012(15) 0.8498(3) 0.46969(18)
H3_3 H 0.264784 0.800607 0.475393
C6_3 C 0.02712(15) 0.8567(4) 0.19635(19)
H4_3 H 0.020721 0.824412 0.222060
N6_3 N 0.22854(14) 0.9808(4) 0.24367(17)
H5_3 H 0.212851 0.992299 0.212363
C8_3 C 0.26188(15) 0.8990(3) 0.42718(19)
C10_3 C 0.20182(15) 0.8915(3) 0.34508(19)
C11_3 C 0.14144(15) 0.8929(4) 0.27497(19)
C12_3 C 0.20588(15) 0.9458(4) 0.2724(2)
C13_3 C 0.07903(17) 0.9331(4) 0.1665(2)
H6_3 H 0.107765 0.955394 0.171928
C17_3 C 0.2836(2) 0.9720(4) 0.4194(2)
C18_3 C 0.34238(19) 0.9431(4) 0.4958(2)
H9_3 H 0.370076 0.957887 0.519180
C19_3 C 0.00507(18) 0.9138(4) 0.1125(2)
C21_3 C 0.35028(18) 0.9844(5) 0.3066(2)
C22_3 C 0.30555(18) 0.9654(4) 0.2967(2)
H12_3 H 0.296981 0.926658 0.318199
C23_3 C 0.3242(2) 0.9945(4) 0.4533(2)
C24_3 C 0.0471(2) 0.9439(5) 0.1200(2)
C25_3 C 0.3852(2) 0.9421(6) 0.3502(3)
H13_3 H 0.394479 0.887910 0.338819
H14_3 H 0.372985 0.930589 0.377677
H15_3 H 0.410570 0.980494 0.362280
C27_3 C 0.0583(2) 0.9880(6) 0.0770(3)
H20_3 H 0.041923 0.960743 0.045047
H21_3 H 0.089942 0.982730 0.082235
Cd4_3 Cd 0.37184(2) 0.74632(2) 0.64307(2)
O1_3 O 0.94359(10) 0.7932(3) 0.17993(13)
O6_3 O 0.91873(12) 0.8505(3) 0.10420(15)
C4_3 C 0.94906(16) 0.8363(4) 0.1440(2)
C7_3 C 0.99471(16) 0.8700(4) 0.15109(19)
H10_3 H 0.983030 0.922768 0.081068
O7_3 O 0.82051(11) 0.7498(2) 0.05733(13)
O9_3 O 0.87268(11) 0.6518(2) 0.08415(13)
N7_2 N 0.84060(12) 0.8679(3) 0.17587(16)
O1_4 O 0.05641(10) 0.7932(3) 0.32007(13)
O6_4 O 0.08127(12) 0.8505(3) 0.39580(15)
C4_4 C 0.05094(16) 0.8363(4) 0.3560(2)
C7_4 C 0.00529(16) 0.8700(4) 0.34891(19)
H10_4 H 0.016970 0.922768 0.418932
O7_4 O 0.17949(11) 0.7498(2) 0.44267(13)
O9_4 O 0.12732(11) 0.6518(2) 0.41585(13)
C9_4 C 0.65767(17) 0.1430(4) 0.2992(2)
C14_4 C 0.71406(16) 0.0585(4) 0.27483(19)
H7_4 H 0.735810 0.083195 0.302768
C15_4 C 0.66991(17) 0.0794(4) 0.2655(2)
C16_4 C 0.72627(17) 0.0017(4) 0.2435(2)
H8_4 H 0.729249 0.006968 0.109244
C20_4 C 0.63790(17) 0.0428(4) 0.2251(2)
H11_4 H 0.607862 0.057402 0.218877
C26_4 C 0.6514(3) 0.0743(6) 0.0562(3)
H16_4 H 0.622143 0.076805 0.031048
H17_4 H 0.668017 0.125961 0.053581
H18_4 H 0.648414 0.071000 0.090003
H19_4 H 0.949655 0.048854 0.423883
N1_4 N 0.77347(13) 0.9281(3) 0.17916(16)
N2_4 N 0.77991(13) 0.8734(3) 0.10523(15)
H1_4 H 0.795924 0.841998 0.091432
N4_4 N 0.90167(13) 0.8759(3) 0.24604(16)
H2_4 H 0.913959 0.851577 0.225366
N5_4 N 0.83678(13) 0.9316(3) 0.25232(16)
C3_4 C 0.93095(15) 0.8900(4) 0.2952(2)
C5_4 C 0.71988(15) 0.8498(3) 0.03031(18)
H3_4 H 0.735216 0.800607 0.024607
C6_4 C 0.97288(15) 0.8567(4) 0.30365(19)
H4_4 H 0.979279 0.824412 0.277940
N6_4 N 0.77146(14) 0.9808(4) 0.25633(17)
H5_4 H 0.787149 0.992299 0.287637
C8_4 C 0.73812(15) 0.8990(3) 0.07282(19)
C10_4 C 0.79818(15) 0.8915(3) 0.15492(19)
C11_4 C 0.85856(15) 0.8929(4) 0.22503(19)
C12_4 C 0.79412(15) 0.9458(4) 0.2276(2)
C13_4 C 0.92097(17) 0.9331(4) 0.3335(2)
H6_4 H 0.892235 0.955394 0.328072
C17_4 C 0.7164(2) 0.9720(4) 0.0806(2)
C18_4 C 0.65762(19) 0.9431(4) 0.0042(2)
C19_4 C 0.99493(18) 0.9138(4) 0.3875(2)
C21_4 C 0.64972(18) 0.9844(5) 0.1934(2)
C22_4 C 0.69445(18) 0.9654(4) 0.2033(2)
H12_4 H 0.703019 0.926658 0.181801
C23_4 C 0.6758(2) 0.9945(4) 0.0467(2)
C24_4 C 0.9529(2) 0.9439(5) 0.3800(2)
C25_4 C 0.6148(2) 0.9421(6) 0.1498(3)
H13_4 H 0.605521 0.887910 0.161181
H14_4 H 0.627015 0.930589 0.122323
H15_4 H 0.589430 0.980494 0.137720
C27_4 C 0.9417(2) 0.9880(6) 0.4230(3)
H20_4 H 0.958077 0.960743 0.454953
H21_4 H 0.910058 0.982730 0.417765
O2_4 O 0.67949(11) 0.7502(2) 0.94267(13)
O4_4 O 0.62732(11) 0.8482(2) 0.91585(13)
C1_4 C 0.67970(15) 0.8708(3) 0.99581(18)
C2_4 C 0.66078(15) 0.8200(3) 0.94845(19)
H9_4 H 0.629924 0.957887 0.980820
Cd4_4 Cd 0.62816(2) 0.74632(2) 0.85693(2)
O1_5 O 0.55641(10) 0.7068(3) 0.82007(13)
O3_3 O 0.11697(11) 0.3366(3) 0.78820(15)
O5_3 O 0.18653(12) 0.3274(3) 0.83647(14)
N1_5 N 0.27347(13) 0.5719(3) 0.67916(16)
O6_5 O 0.58127(12) 0.6495(3) 0.89580(15)
N2_5 N 0.27991(13) 0.6266(3) 0.60523(15)
H1_5 H 0.295924 0.658002 0.591432
N3_3 N 0.34060(12) 0.6321(3) 0.67587(16)
N4_5 N 0.40167(13) 0.6241(3) 0.74604(16)
H2_5 H 0.413959 0.648423 0.725366
N5_5 N 0.33678(13) 0.5684(3) 0.75232(16)
C1_5 C 0.17970(15) 0.6292(3) 0.49581(18)
C2_5 C 0.16078(15) 0.6800(3) 0.44845(19)
C3_5 C 0.43095(15) 0.6100(4) 0.7952(2)
C4_5 C 0.55094(16) 0.6637(4) 0.8560(2)
C5_5 C 0.21988(15) 0.6502(3) 0.53031(18)
H3_5 H 0.235216 0.699393 0.524607
C6_5 C 0.47288(15) 0.6433(4) 0.80365(19)
H4_5 H 0.479279 0.675588 0.777940
C7_5 C 0.50529(16) 0.6300(4) 0.84891(19)
N6_5 N 0.27146(14) 0.5192(4) 0.75633(17)
H5_5 H 0.287149 0.507701 0.787637
C8_5 C 0.23812(15) 0.6010(3) 0.57282(19)
C9_5 C 0.15767(17) 0.3570(4) 0.7992(2)
C10_5 C 0.29818(15) 0.6085(3) 0.65492(19)
C11_5 C 0.35856(15) 0.6071(4) 0.72503(19)
C12_5 C 0.29412(15) 0.5542(4) 0.7276(2)
C13_5 C 0.42097(17) 0.5669(4) 0.8335(2)
H6_5 H 0.392235 0.544606 0.828072
C14_5 C 0.21406(16) 0.4415(4) 0.77483(19)
H7_5 H 0.235810 0.416805 0.802768
C15_5 C 0.16991(17) 0.4206(4) 0.7655(2)
C16_5 C 0.22627(17) 0.4983(4) 0.7435(2)
C17_5 C 0.2164(2) 0.5280(4) 0.5806(2)
H8_5 H 0.229249 0.493032 0.609244
C18_5 C 0.15762(19) 0.5569(4) 0.5042(2)
H9_5 H 0.129924 0.542113 0.480820
C19_5 C 0.49493(18) 0.5862(4) 0.8875(2)
H10_5 H 0.516970 0.577232 0.918932
C20_5 C 0.13790(17) 0.4572(4) 0.7251(2)
H11_5 H 0.107862 0.442598 0.718877
C21_5 C 0.14972(18) 0.5156(5) 0.6934(2)
C22_5 C 0.19445(18) 0.5346(4) 0.7033(2)
H12_5 H 0.203019 0.573342 0.681801
C23_5 C 0.1758(2) 0.5055(4) 0.5467(2)
C24_5 C 0.4529(2) 0.5561(5) 0.8800(2)
C25_5 C 0.1148(2) 0.5579(6) 0.6498(3)
H13_5 H 0.105521 0.612090 0.661181
H14_5 H 0.127015 0.569411 0.622323
H15_5 H 0.089430 0.519506 0.637720
C26_5 C 0.1514(3) 0.4257(6) 0.5562(3)
H16_5 H 0.122143 0.423195 0.531048
H17_5 H 0.168017 0.374039 0.553581
H18_5 H 0.148414 0.429000 0.590003
C27_5 C 0.4417(2) 0.5120(6) 0.9230(3)
H19_5 H 0.449655 0.451146 0.923883
H20_5 H 0.458077 0.539257 0.954953
H21_5 H 0.410058 0.517270 0.917765
O8_3 O 0.61697(11) 0.8366(3) 0.78820(15)
O10_3 O 0.68653(12) 0.8274(3) 0.83647(14)
N7_3 N 0.65940(12) 0.6321(3) 0.82413(16)
C1_6 C 0.82030(15) 0.6292(3) 0.00419(18)
C2_6 C 0.83922(15) 0.6800(3) 0.05155(19)
H9_6 H 0.870076 0.542113 0.019180
O1_6 O 0.44359(10) 0.7068(3) 0.67993(13)
O3_4 O 0.88303(11) 0.3366(3) 0.71180(15)
O5_4 O 0.81347(12) 0.3274(3) 0.66353(14)
N1_6 N 0.72653(13) 0.5719(3) 0.82084(16)
O6_6 O 0.41873(12) 0.6495(3) 0.60420(15)
N2_6 N 0.72009(13) 0.6266(3) 0.89477(15)
H1_6 H 0.704076 0.658002 0.908568
N4_6 N 0.59833(13) 0.6241(3) 0.75396(16)
H2_6 H 0.586041 0.648423 0.774634
N5_6 N 0.66322(13) 0.5684(3) 0.74768(16)
C3_6 C 0.56905(15) 0.6100(4) 0.7048(2)
C4_6 C 0.44906(16) 0.6637(4) 0.6440(2)
C5_6 C 0.78012(15) 0.6502(3) 0.96969(18)
H3_6 H 0.764784 0.699393 0.975393
C6_6 C 0.52712(15) 0.6433(4) 0.69635(19)
H4_6 H 0.520721 0.675588 0.722060
C7_6 C 0.49471(16) 0.6300(4) 0.65109(19)
N6_6 N 0.72854(14) 0.5192(4) 0.74367(17)
H5_6 H 0.712851 0.507701 0.712363
C8_6 C 0.76188(15) 0.6010(3) 0.92718(19)
C9_6 C 0.84233(17) 0.3570(4) 0.7008(2)
C10_6 C 0.70182(15) 0.6085(3) 0.84508(19)
C11_6 C 0.64144(15) 0.6071(4) 0.77497(19)
C12_6 C 0.70588(15) 0.5542(4) 0.7724(2)
C13_6 C 0.57903(17) 0.5669(4) 0.6665(2)
H6_6 H 0.607765 0.544606 0.671928
C14_6 C 0.78594(16) 0.4415(4) 0.72517(19)
H7_6 H 0.764190 0.416805 0.697232
C15_6 C 0.83009(17) 0.4206(4) 0.7345(2)
C16_6 C 0.77373(17) 0.4983(4) 0.7565(2)
C17_6 C 0.7836(2) 0.5280(4) 0.9194(2)
H8_6 H 0.770751 0.493032 0.890756
C18_6 C 0.84238(19) 0.5569(4) 0.9958(2)
C19_6 C 0.50507(18) 0.5862(4) 0.6125(2)
H10_6 H 0.483030 0.577232 0.581068
C20_6 C 0.86210(17) 0.4572(4) 0.7749(2)
H11_6 H 0.892138 0.442598 0.781123
C21_6 C 0.85028(18) 0.5156(5) 0.8066(2)
C22_6 C 0.80555(18) 0.5346(4) 0.7967(2)
H12_6 H 0.796981 0.573342 0.818199
C23_6 C 0.8242(2) 0.5055(4) 0.9533(2)
C24_6 C 0.5471(2) 0.5561(5) 0.6200(2)
C25_6 C 0.8852(2) 0.5579(6) 0.8502(3)
H13_6 H 0.894479 0.612090 0.838819
H14_6 H 0.872985 0.569411 0.877677
H15_6 H 0.910570 0.519506 0.862280
C26_6 C 0.8486(3) 0.4257(6) 0.9438(3)
H16_6 H 0.877857 0.423195 0.968952
H17_6 H 0.831983 0.374039 0.946419
H18_6 H 0.851586 0.429000 0.909997
C27_6 C 0.5583(2) 0.5120(6) 0.5770(3)
H19_6 H 0.550345 0.451146 0.576117
H20_6 H 0.541923 0.539257 0.545047
H21_6 H 0.589942 0.517270 0.582235
O8_4 O 0.38303(11) 0.8366(3) 0.71180(15)
O10_4 O 0.31347(12) 0.8274(3) 0.66353(14)
O1_7 O 0.05641(10) 0.2068(3) 0.82007(13)
O6_7 O 0.08127(12) 0.1495(3) 0.89580(15)
C4_7 C 0.05094(16) 0.1637(4) 0.8560(2)
C7_7 C 0.00529(16) 0.1300(4) 0.84891(19)
H10_7 H 0.016970 0.077232 0.918932
N7_4 N 0.15940(12) 0.1321(3) 0.82413(16)
N1_7 N 0.77347(13) 0.0719(3) 0.67916(16)
N2_7 N 0.77991(13) 0.1266(3) 0.60523(15)
H1_7 H 0.795924 0.158002 0.591432
N3_4 N 0.84060(12) 0.1321(3) 0.67587(16)
N4_7 N 0.90167(13) 0.1241(3) 0.74604(16)
H2_7 H 0.913959 0.148423 0.725366
N5_7 N 0.83678(13) 0.0684(3) 0.75232(16)
C1_7 C 0.67970(15) 0.1292(3) 0.49581(18)
C2_7 C 0.66078(15) 0.1800(3) 0.44845(19)
C3_7 C 0.93095(15) 0.1100(4) 0.7952(2)
C5_7 C 0.71988(15) 0.1502(3) 0.53031(18)
H3_7 H 0.735216 0.199393 0.524607
C6_7 C 0.97288(15) 0.1433(4) 0.80365(19)
H4_7 H 0.979279 0.175588 0.777940
N6_7 N 0.77146(14) 0.0192(4) 0.75633(17)
H5_7 H 0.787149 0.007701 0.787637
C8_7 C 0.73812(15) 0.1010(3) 0.57282(19)
C10_7 C 0.79818(15) 0.1085(3) 0.65492(19)
C11_7 C 0.85856(15) 0.1071(4) 0.72503(19)
C12_7 C 0.79412(15) 0.0542(4) 0.7276(2)
C13_7 C 0.92097(17) 0.0669(4) 0.8335(2)
H6_7 H 0.892235 0.044606 0.828072
C17_7 C 0.7164(2) 0.0280(4) 0.5806(2)
C18_7 C 0.65762(19) 0.0569(4) 0.5042(2)
H9_7 H 0.629924 0.042113 0.480820
C19_7 C 0.99493(18) 0.0862(4) 0.8875(2)
C21_7 C 0.64972(18) 0.0156(5) 0.6934(2)
C22_7 C 0.69445(18) 0.0346(4) 0.7033(2)
H12_7 H 0.703019 0.073342 0.681801
C23_7 C 0.6758(2) 0.0055(4) 0.5467(2)
C24_7 C 0.9529(2) 0.0561(5) 0.8800(2)
C25_7 C 0.6148(2) 0.0579(6) 0.6498(3)
H13_7 H 0.605521 0.112090 0.661181
H14_7 H 0.627015 0.069411 0.622323
H15_7 H 0.589430 0.019506 0.637720
C27_7 C 0.9417(2) 0.0120(6) 0.9230(3)
H20_7 H 0.958077 0.039257 0.954953
H21_7 H 0.910058 0.017270 0.917765
C9_7 C 0.65767(17) 0.8570(4) 0.7992(2)
C14_7 C 0.71406(16) 0.9415(4) 0.77483(19)
H7_7 H 0.735810 0.916805 0.802768
C15_7 C 0.66991(17) 0.9206(4) 0.7655(2)
C16_7 C 0.72627(17) 0.9983(4) 0.7435(2)
H8_7 H 0.729249 0.993032 0.609244
C20_7 C 0.63790(17) 0.9572(4) 0.7251(2)
H11_7 H 0.607862 0.942598 0.718877
C26_7 C 0.6514(3) 0.9257(6) 0.5562(3)
H16_7 H 0.622143 0.923195 0.531048
H17_7 H 0.668017 0.874039 0.553581
H18_7 H 0.648414 0.929000 0.590003
H19_7 H 0.949655 0.951146 0.923883
C1_8 C 0.32030(15) 0.1292(3) 0.00419(18)
C2_8 C 0.33922(15) 0.1800(3) 0.05155(19)
H9_8 H 0.370076 0.042113 0.019180
N1_8 N 0.22653(13) 0.0719(3) 0.82084(16)
N2_8 N 0.22009(13) 0.1266(3) 0.89477(15)
H1_8 H 0.204076 0.158002 0.908568
N4_8 N 0.09833(13) 0.1241(3) 0.75396(16)
H2_8 H 0.086041 0.148423 0.774634
N5_8 N 0.16322(13) 0.0684(3) 0.74768(16)
C3_8 C 0.06905(15) 0.1100(4) 0.7048(2)
C5_8 C 0.28012(15) 0.1502(3) 0.96969(18)
H3_8 H 0.264784 0.199393 0.975393
C6_8 C 0.02712(15) 0.1433(4) 0.69635(19)
H4_8 H 0.020721 0.175588 0.722060
N6_8 N 0.22854(14) 0.0192(4) 0.74367(17)
H5_8 H 0.212851 0.007701 0.712363
C8_8 C 0.26188(15) 0.1010(3) 0.92718(19)
C10_8 C 0.20182(15) 0.1085(3) 0.84508(19)
C11_8 C 0.14144(15) 0.1071(4) 0.77497(19)
C12_8 C 0.20588(15) 0.0542(4) 0.7724(2)
C13_8 C 0.07903(17) 0.0669(4) 0.6665(2)
H6_8 H 0.107765 0.044606 0.671928
C17_8 C 0.2836(2) 0.0280(4) 0.9194(2)
C18_8 C 0.34238(19) 0.0569(4) 0.9958(2)
C19_8 C 0.00507(18) 0.0862(4) 0.6125(2)
C21_8 C 0.35028(18) 0.0156(5) 0.8066(2)
C22_8 C 0.30555(18) 0.0346(4) 0.7967(2)
H12_8 H 0.296981 0.073342 0.818199
C23_8 C 0.3242(2) 0.0055(4) 0.9533(2)
C24_8 C 0.0471(2) 0.0561(5) 0.6200(2)
C25_8 C 0.3852(2) 0.0579(6) 0.8502(3)
H13_8 H 0.394479 0.112090 0.838819
H14_8 H 0.372985 0.069411 0.877677
H15_8 H 0.410570 0.019506 0.862280
C27_8 C 0.0583(2) 0.0120(6) 0.5770(3)
H20_8 H 0.041923 0.039257 0.545047
H21_8 H 0.089942 0.017270 0.582235
C9_8 C 0.34233(17) 0.8570(4) 0.7008(2)
C14_8 C 0.28594(16) 0.9415(4) 0.72517(19)
H7_8 H 0.264190 0.916805 0.697232
C15_8 C 0.33009(17) 0.9206(4) 0.7345(2)
C16_8 C 0.27373(17) 0.9983(4) 0.7565(2)
H8_8 H 0.270751 0.993032 0.890756
C20_8 C 0.36210(17) 0.9572(4) 0.7749(2)
H11_8 H 0.392138 0.942598 0.781123
C26_8 C 0.3486(3) 0.9257(6) 0.9438(3)
H16_8 H 0.377857 0.923195 0.968952
H17_8 H 0.331983 0.874039 0.946419
H18_8 H 0.351586 0.929000 0.909997
H19_8 H 0.050345 0.951146 0.576117
O1_8 O 0.94359(10) 0.2068(3) 0.67993(13)
O6_8 O 0.91873(12) 0.1495(3) 0.60420(15)
C4_8 C 0.94906(16) 0.1637(4) 0.6440(2)
C7_8 C 0.99471(16) 0.1300(4) 0.65109(19)
H10_8 H 0.983030 0.077232 0.581068
loop_
_geom_bond_atom_site_label_1
_geom_bond_atom_site_label_2
_geom_bond_site_symmetry_1
_geom_bond_site_symmetry_2
Cd1 O1 1_555 1_555
O1 C4 1_555 1_555
O2 C2 1_555 1_555
O3 C9 1_555 1_555
O4 C2 1_555 1_555
O5 C9 1_555 1_555
N1 C10 1_555 1_555
O6 Cd1 1_555 1_555
N2 H1 1_555 1_555
N3 C10 1_555 1_555
N4 H2 1_555 1_555
N5 C11 1_555 1_555
C1 C2 1_555 1_555
C3 N4 1_555 1_555
C4 O6 1_555 1_555
C5 C1 1_555 1_555
H3 C5 1_555 1_555
C6 C3 1_555 1_555
H4 C6 1_555 1_555
C7 C4 1_555 1_555
N6 H5 1_555 1_555
C8 N2 1_555 1_555
C9 C15 1_555 1_555
C10 N2 1_555 1_555
C11 N3 1_555 1_555
C12 N1 1_555 1_555
C13 C3 1_555 1_555
H6 C13 1_555 1_555
C14 H7 1_555 1_555
C15 C14 1_555 1_555
C16 N6 1_555 1_555
C17 C8 1_555 1_555
H8 C17 1_555 1_555
C18 C1 1_555 1_555
H9 C18 1_555 1_555
C19 C7 1_555 1_555
H10 C19 1_555 1_555
C20 C15 1_555 1_555
H11 C20 1_555 1_555
C21 C20 1_555 1_555
C22 C16 1_555 1_555
H12 C22 1_555 1_555
C23 C17 1_555 1_555
C24 C13 1_555 1_555
C25 C21 1_555 1_555
H13 C25 1_555 1_555
H14 C25 1_555 1_555
H15 C25 1_555 1_555
C26 C23 1_555 1_555
H16 C26 1_555 1_555
H17 C26 1_555 1_555
H18 C26 1_555 1_555
C27 C24 1_555 1_555
H19 C27 1_555 1_555
H20 C27 1_555 1_555
H21 C27 1_555 1_555
Cd2 N3 1_555 1_555
Cd3 O3 1_555 1_555
Cd4 O2 1_555 1_555
O7 Cd1 1_555 1_555
O8 Cd1 1_555 1_555
O9 Cd1 1_555 1_555
O10 Cd1 1_555 1_555
N7 Cd1 1_555 1_555
O4 Cd4 1_555 1_555
O5 Cd3 1_555 1_555
N4 C11 1_555 1_555
N5 C12 1_555 1_555
C5 C8 1_555 1_555
C6 C7 1_555 1_555
N6 C12 1_555 1_555
C14 C16 1_555 1_555
C18 C23 1_555 1_555
C19 C24 1_555 1_555
C21 C22 1_555 1_555
Cd2 O1_2 1_555 1_555
O1_2 C4_2 1_555 1_555
O3_2 C9_2 1_555 1_555
O5_2 C9_2 1_555 1_555
N1_2 C10_2 1_555 1_555
O6_2 Cd2 1_555 1_555
N2_2 H1_2 1_555 1_555
N7 C10_2 1_555 1_555
N4_2 H2_2 1_555 1_555
N5_2 C11_2 1_555 1_555
C3_2 N4_2 1_555 1_555
C4_2 O6_2 1_555 1_555
H3_2 C5_2 1_555 1_555
C6_2 C3_2 1_555 1_555
H4_2 C6_2 1_555 1_555
C7_2 C4_2 1_555 1_555
N6_2 H5_2 1_555 1_555
C8_2 N2_2 1_555 1_555
C9_2 C15_2 1_555 1_555
C10_2 N2_2 1_555 1_555
C11_2 N7 1_555 1_555
C12_2 N1_2 1_555 1_555
C13_2 C3_2 1_555 1_555
H6_2 C13_2 1_555 1_555
C14_2 H7_2 1_555 1_555
C15_2 C14_2 1_555 1_555
C16_2 N6_2 1_555 1_555
C17_2 C8_2 1_555 1_555
H8_2 C17_2 1_555 1_555
C19_2 C7_2 1_555 1_555
H10_2 C19_2 1_555 1_555
C20_2 C15_2 1_555 1_555
H11_2 C20_2 1_555 1_555
C21_2 C20_2 1_555 1_555
C22_2 C16_2 1_555 1_555
H12_2 C22_2 1_555 1_555
C23_2 C17_2 1_555 1_555
C24_2 C13_2 1_555 1_555
C25_2 C21_2 1_555 1_555
H13_2 C25_2 1_555 1_555
H14_2 C25_2 1_555 1_555
H15_2 C25_2 1_555 1_555
C26_2 C23_2 1_555 1_555
H16_2 C26_2 1_555 1_555
H17_2 C26_2 1_555 1_555
H18_2 C26_2 1_555 1_555
C27_2 C24_2 1_555 1_555
H19_2 C27_2 1_555 1_555
H20_2 C27_2 1_555 1_555
H21_2 C27_2 1_555 1_555
Cd3_2 O3_2 1_555 1_555
O7_2 Cd2 1_555 1_555
O8_2 Cd2 1_555 1_555
O9_2 Cd2 1_555 1_555
O10_2 Cd2 1_555 1_555
O5_2 Cd3_2 1_555 1_555
N4_2 C11_2 1_555 1_555
N5_2 C12_2 1_555 1_555
C5_2 C8_2 1_555 1_555
C6_2 C7_2 1_555 1_555
N6_2 C12_2 1_555 1_555
C14_2 C16_2 1_555 1_555
C18_2 C23_2 1_555 1_555
C19_2 C24_2 1_555 1_555
C21_2 C22_2 1_555 1_555
O2_2 C2_2 1_555 1_555
O4_2 C2_2 1_555 1_555
C1_2 C2_2 1_555 1_555
Cd4_2 O2_2 1_555 1_555
O4_2 Cd4_2 1_555 1_555
O8 C9_3 1_555 1_555
O10 C9_3 1_555 1_555
C9_3 C15_3 1_555 1_555
C14_3 H7_3 1_555 1_555
C15_3 C14_3 1_555 1_555
C20_3 C15_3 1_555 1_555
H11_3 C20_3 1_555 1_555
H16_3 C26_3 1_555 1_555
H17_3 C26_3 1_555 1_555
H18_3 C26_3 1_555 1_555
C14_3 C16_3 1_555 1_555
O2_3 C2_3 1_555 1_555
O4_3 C2_3 1_555 1_555
N1_3 C10_3 1_555 1_555
N2_3 H1_3 1_555 1_555
N3_2 C10_3 1_555 1_555
N4_3 H2_3 1_555 1_555
N5_3 C11_3 1_555 1_555
C1_3 C2_3 1_555 1_555
C3_3 N4_3 1_555 1_555
C5_3 C1_3 1_555 1_555
H3_3 C5_3 1_555 1_555
C6_3 C3_3 1_555 1_555
H4_3 C6_3 1_555 1_555
N6_3 H5_3 1_555 1_555
C8_3 N2_3 1_555 1_555
C10_3 N2_3 1_555 1_555
C11_3 N3_2 1_555 1_555
C12_3 N1_3 1_555 1_555
C13_3 C3_3 1_555 1_555
H6_3 C13_3 1_555 1_555
C17_3 C8_3 1_555 1_555
C18_3 C1_3 1_555 1_555
H9_3 C18_3 1_555 1_555
H12_3 C22_3 1_555 1_555
C23_3 C17_3 1_555 1_555
C24_3 C13_3 1_555 1_555
C25_3 C21_3 1_555 1_555
H13_3 C25_3 1_555 1_555
H14_3 C25_3 1_555 1_555
H15_3 C25_3 1_555 1_555
C27_3 C24_3 1_555 1_555
H20_3 C27_3 1_555 1_555
H21_3 C27_3 1_555 1_555
Cd3_2 N3_2 1_555 1_555
Cd4_3 O2_3 1_555 1_555
O4_3 Cd4_3 1_555 1_555
N4_3 C11_3 1_555 1_555
N5_3 C12_3 1_555 1_555
C5_3 C8_3 1_555 1_555
N6_3 C12_3 1_555 1_555
C18_3 C23_3 1_555 1_555
C19_3 C24_3 1_555 1_555
C21_3 C22_3 1_555 1_555
Cd3 O1_3 1_555 1_555
O1_3 C4_3 1_555 1_555
O6_3 Cd3 1_555 1_555
C4_3 O6_3 1_555 1_555
C7_3 C4_3 1_555 1_555
O7_3 Cd3 1_555 1_555
O9_3 Cd3 1_555 1_555
N7_2 Cd3 1_555 1_555
Cd3_2 O1_4 1_555 1_555
O1_4 C4_4 1_555 1_555
O6_4 Cd3_2 1_555 1_555
C4_4 O6_4 1_555 1_555
C7_4 C4_4 1_555 1_555
O7_4 Cd3_2 1_555 1_555
O9_4 Cd3_2 1_555 1_555
O8_2 C9_4 1_555 1_555
O10_2 C9_4 1_555 1_555
C9_4 C15_4 1_555 1_555
C14_4 H7_4 1_555 1_555
C15_4 C14_4 1_555 1_555
C20_4 C15_4 1_555 1_555
H11_4 C20_4 1_555 1_555
H16_4 C26_4 1_555 1_555
H17_4 C26_4 1_555 1_555
H18_4 C26_4 1_555 1_555
C14_4 C16_4 1_555 1_555
N1_4 C10_4 1_555 1_555
N2_4 H1_4 1_555 1_555
N7_2 C10_4 1_555 1_555
N4_4 H2_4 1_555 1_555
N5_4 C11_4 1_555 1_555
C3_4 N4_4 1_555 1_555
H3_4 C5_4 1_555 1_555
C6_4 C3_4 1_555 1_555
H4_4 C6_4 1_555 1_555
N6_4 H5_4 1_555 1_555
C8_4 N2_4 1_555 1_555
C10_4 N2_4 1_555 1_555
C11_4 N7_2 1_555 1_555
C12_4 N1_4 1_555 1_555
C13_4 C3_4 1_555 1_555
H6_4 C13_4 1_555 1_555
C17_4 C8_4 1_555 1_555
H12_4 C22_4 1_555 1_555
C23_4 C17_4 1_555 1_555
C24_4 C13_4 1_555 1_555
C25_4 C21_4 1_555 1_555
H13_4 C25_4 1_555 1_555
H14_4 C25_4 1_555 1_555
H15_4 C25_4 1_555 1_555
C27_4 C24_4 1_555 1_555
H20_4 C27_4 1_555 1_555
H21_4 C27_4 1_555 1_555
N4_4 C11_4 1_555 1_555
N5_4 C12_4 1_555 1_555
C5_4 C8_4 1_555 1_555
N6_4 C12_4 1_555 1_555
C18_4 C23_4 1_555 1_555
C19_4 C24_4 1_555 1_555
C21_4 C22_4 1_555 1_555
O2_4 C2_4 1_555 1_555
O4_4 C2_4 1_555 1_555
C1_4 C2_4 1_555 1_555
Cd4_4 O2_4 1_555 1_555
O4_4 Cd4_4 1_555 1_555
Cd4_4 O1_5 1_555 1_555
O1_5 C4_5 1_555 1_555
O7_4 C2_5 1_555 1_555
O3_3 C9_5 1_555 1_555
O9_4 C2_5 1_555 1_555
O5_3 C9_5 1_555 1_555
N1_5 C10_5 1_555 1_555
O6_5 Cd4_4 1_555 1_555
N2_5 H1_5 1_555 1_555
N3_3 C10_5 1_555 1_555
N4_5 H2_5 1_555 1_555
N5_5 C11_5 1_555 1_555
C1_5 C2_5 1_555 1_555
C3_5 N4_5 1_555 1_555
C4_5 O6_5 1_555 1_555
C5_5 C1_5 1_555 1_555
H3_5 C5_5 1_555 1_555
C6_5 C3_5 1_555 1_555
H4_5 C6_5 1_555 1_555
C7_5 C4_5 1_555 1_555
N6_5 H5_5 1_555 1_555
C8_5 N2_5 1_555 1_555
C9_5 C15_5 1_555 1_555
C10_5 N2_5 1_555 1_555
C11_5 N3_3 1_555 1_555
C12_5 N1_5 1_555 1_555
C13_5 C3_5 1_555 1_555
H6_5 C13_5 1_555 1_555
C14_5 H7_5 1_555 1_555
C15_5 C14_5 1_555 1_555
C16_5 N6_5 1_555 1_555
C17_5 C8_5 1_555 1_555
H8_5 C17_5 1_555 1_555
C18_5 C1_5 1_555 1_555
H9_5 C18_5 1_555 1_555
C19_5 C7_5 1_555 1_555
H10_5 C19_5 1_555 1_555
C20_5 C15_5 1_555 1_555
H11_5 C20_5 1_555 1_555
C21_5 C20_5 1_555 1_555
C22_5 C16_5 1_555 1_555
H12_5 C22_5 1_555 1_555
C23_5 C17_5 1_555 1_555
C24_5 C13_5 1_555 1_555
C25_5 C21_5 1_555 1_555
H13_5 C25_5 1_555 1_555
H14_5 C25_5 1_555 1_555
H15_5 C25_5 1_555 1_555
C26_5 C23_5 1_555 1_555
H16_5 C26_5 1_555 1_555
H17_5 C26_5 1_555 1_555
H18_5 C26_5 1_555 1_555
C27_5 C24_5 1_555 1_555
H19_5 C27_5 1_555 1_555
H20_5 C27_5 1_555 1_555
H21_5 C27_5 1_555 1_555
Cd4_3 N3_3 1_555 1_555
Cd4_2 O3_3 1_555 1_555
O8_3 Cd4_4 1_555 1_555
O10_3 Cd4_4 1_555 1_555
N7_3 Cd4_4 1_555 1_555
O5_3 Cd4_2 1_555 1_555
N4_5 C11_5 1_555 1_555
N5_5 C12_5 1_555 1_555
C5_5 C8_5 1_555 1_555
C6_5 C7_5 1_555 1_555
N6_5 C12_5 1_555 1_555
C14_5 C16_5 1_555 1_555
C18_5 C23_5 1_555 1_555
C19_5 C24_5 1_555 1_555
C21_5 C22_5 1_555 1_555
O7_3 C2_6 1_555 1_555
O9_3 C2_6 1_555 1_555
C1_6 C2_6 1_555 1_555
Cd4_3 O1_6 1_555 1_555
O1_6 C4_6 1_555 1_555
O3_4 C9_6 1_555 1_555
O5_4 C9_6 1_555 1_555
N1_6 C10_6 1_555 1_555
O6_6 Cd4_3 1_555 1_555
N2_6 H1_6 1_555 1_555
N7_3 C10_6 1_555 1_555
N4_6 H2_6 1_555 1_555
N5_6 C11_6 1_555 1_555
C3_6 N4_6 1_555 1_555
C4_6 O6_6 1_555 1_555
H3_6 C5_6 1_555 1_555
C6_6 C3_6 1_555 1_555
H4_6 C6_6 1_555 1_555
C7_6 C4_6 1_555 1_555
N6_6 H5_6 1_555 1_555
C8_6 N2_6 1_555 1_555
C9_6 C15_6 1_555 1_555
C10_6 N2_6 1_555 1_555
C11_6 N7_3 1_555 1_555
C12_6 N1_6 1_555 1_555
C13_6 C3_6 1_555 1_555
H6_6 C13_6 1_555 1_555
C14_6 H7_6 1_555 1_555
C15_6 C14_6 1_555 1_555
C16_6 N6_6 1_555 1_555
C17_6 C8_6 1_555 1_555
H8_6 C17_6 1_555 1_555
C19_6 C7_6 1_555 1_555
H10_6 C19_6 1_555 1_555
C20_6 C15_6 1_555 1_555
H11_6 C20_6 1_555 1_555
C21_6 C20_6 1_555 1_555
C22_6 C16_6 1_555 1_555
H12_6 C22_6 1_555 1_555
C23_6 C17_6 1_555 1_555
C24_6 C13_6 1_555 1_555
C25_6 C21_6 1_555 1_555
H13_6 C25_6 1_555 1_555
H14_6 C25_6 1_555 1_555
H15_6 C25_6 1_555 1_555
C26_6 C23_6 1_555 1_555
H16_6 C26_6 1_555 1_555
H17_6 C26_6 1_555 1_555
H18_6 C26_6 1_555 1_555
C27_6 C24_6 1_555 1_555
H19_6 C27_6 1_555 1_555
H20_6 C27_6 1_555 1_555
H21_6 C27_6 1_555 1_555
Cd4 O3_4 1_555 1_555
O8_4 Cd4_3 1_555 1_555
O10_4 Cd4_3 1_555 1_555
O5_4 Cd4 1_555 1_555
N4_6 C11_6 1_555 1_555
N5_6 C12_6 1_555 1_555
C5_6 C8_6 1_555 1_555
C6_6 C7_6 1_555 1_555
N6_6 C12_6 1_555 1_555
C14_6 C16_6 1_555 1_555
C18_6 C23_6 1_555 1_555
C19_6 C24_6 1_555 1_555
C21_6 C22_6 1_555 1_555
Cd4_2 O1_7 1_555 1_555
O1_7 C4_7 1_555 1_555
O6_7 Cd4_2 1_555 1_555
C4_7 O6_7 1_555 1_555
C7_7 C4_7 1_555 1_555
N7_4 Cd4_2 1_555 1_555
O7_2 C2_7 1_555 1_555
O9_2 C2_7 1_555 1_555
N1_7 C10_7 1_555 1_555
N2_7 H1_7 1_555 1_555
N3_4 C10_7 1_555 1_555
N4_7 H2_7 1_555 1_555
N5_7 C11_7 1_555 1_555
C1_7 C2_7 1_555 1_555
C3_7 N4_7 1_555 1_555
C5_7 C1_7 1_555 1_555
H3_7 C5_7 1_555 1_555
C6_7 C3_7 1_555 1_555
H4_7 C6_7 1_555 1_555
N6_7 H5_7 1_555 1_555
C8_7 N2_7 1_555 1_555
C10_7 N2_7 1_555 1_555
C11_7 N3_4 1_555 1_555
C12_7 N1_7 1_555 1_555
C13_7 C3_7 1_555 1_555
H6_7 C13_7 1_555 1_555
C17_7 C8_7 1_555 1_555
C18_7 C1_7 1_555 1_555
H9_7 C18_7 1_555 1_555
H12_7 C22_7 1_555 1_555
C23_7 C17_7 1_555 1_555
C24_7 C13_7 1_555 1_555
C25_7 C21_7 1_555 1_555
H13_7 C25_7 1_555 1_555
H14_7 C25_7 1_555 1_555
H15_7 C25_7 1_555 1_555
C27_7 C24_7 1_555 1_555
H20_7 C27_7 1_555 1_555
H21_7 C27_7 1_555 1_555
Cd4 N3_4 1_555 1_555
N4_7 C11_7 1_555 1_555
N5_7 C12_7 1_555 1_555
C5_7 C8_7 1_555 1_555
N6_7 C12_7 1_555 1_555
C18_7 C23_7 1_555 1_555
C19_7 C24_7 1_555 1_555
C21_7 C22_7 1_555 1_555
O8_3 C9_7 1_555 1_555
O10_3 C9_7 1_555 1_555
C9_7 C15_7 1_555 1_555
C14_7 H7_7 1_555 1_555
C15_7 C14_7 1_555 1_555
C20_7 C15_7 1_555 1_555
H11_7 C20_7 1_555 1_555
H16_7 C26_7 1_555 1_555
H17_7 C26_7 1_555 1_555
H18_7 C26_7 1_555 1_555
C14_7 C16_7 1_555 1_555
O7 C2_8 1_555 1_555
O9 C2_8 1_555 1_555
C1_8 C2_8 1_555 1_555
N1_8 C10_8 1_555 1_555
N2_8 H1_8 1_555 1_555
N7_4 C10_8 1_555 1_555
N4_8 H2_8 1_555 1_555
N5_8 C11_8 1_555 1_555
C3_8 N4_8 1_555 1_555
H3_8 C5_8 1_555 1_555
C6_8 C3_8 1_555 1_555
H4_8 C6_8 1_555 1_555
N6_8 H5_8 1_555 1_555
C8_8 N2_8 1_555 1_555
C10_8 N2_8 1_555 1_555
C11_8 N7_4 1_555 1_555
C12_8 N1_8 1_555 1_555
C13_8 C3_8 1_555 1_555
H6_8 C13_8 1_555 1_555
C17_8 C8_8 1_555 1_555
H12_8 C22_8 1_555 1_555
C23_8 C17_8 1_555 1_555
C24_8 C13_8 1_555 1_555
C25_8 C21_8 1_555 1_555
H13_8 C25_8 1_555 1_555
H14_8 C25_8 1_555 1_555
H15_8 C25_8 1_555 1_555
C27_8 C24_8 1_555 1_555
H20_8 C27_8 1_555 1_555
H21_8 C27_8 1_555 1_555
N4_8 C11_8 1_555 1_555
N5_8 C12_8 1_555 1_555
C5_8 C8_8 1_555 1_555
N6_8 C12_8 1_555 1_555
C18_8 C23_8 1_555 1_555
C19_8 C24_8 1_555 1_555
C21_8 C22_8 1_555 1_555
O8_4 C9_8 1_555 1_555
O10_4 C9_8 1_555 1_555
C9_8 C15_8 1_555 1_555
C14_8 H7_8 1_555 1_555
C15_8 C14_8 1_555 1_555
C20_8 C15_8 1_555 1_555
H11_8 C20_8 1_555 1_555
H16_8 C26_8 1_555 1_555
H17_8 C26_8 1_555 1_555
H18_8 C26_8 1_555 1_555
C14_8 C16_8 1_555 1_555
Cd4 O1_8 1_555 1_555
O1_8 C4_8 1_555 1_555
O6_8 Cd4 1_555 1_555
C4_8 O6_8 1_555 1_555
C7_8 C4_8 1_555 1_555

#END
