
###############################################################################
#
# This file contains modified crystal structure data generated from the
# MOF subset of the Cambridge Structural Database (CSD) v543 
# hosted by the Cambridge Crystallographic Data Centre (CCDC).
#
# This work is licensed under the Creative Commons
# Attribution-NonCommercial-ShareAlike 4.0 International License.
# To view a copy of this license, visit
# http://creativecommons.org/licenses/by-nc-sa/4.0/
# or send a letter to
# Creative Commons, PO Box 1866, Mountain View, CA 94042, USA.
#
# CIF created using the CSD Python API on 29 September 2022
# The structure has been converted into the P1 space group
# The structure has a 3D framework
# The original CSD entry RIRDAZ is in the hexagonal crystal system
# The framework has been calculated to contain at least 10.0% void space
# The void calculation uses a probe of radius 1.32A, grid spacing 0.4
#
###############################################################################

data_RIRDAZ
_chemical_formula_moiety         '(C258 H186 Co24 N120 O48)n'
_symmetry_cell_setting           triclinic
_symmetry_space_group_name_H-M   'P 1'
_symmetry_Int_Tables_number      1
_space_group_name_Hall           'P 1'
loop_
_symmetry_equiv_pos_site_id
_symmetry_equiv_pos_as_xyz
1 x,y,z
_cell_length_a                   26.674(2)
_cell_length_b                   26.674(2)
_cell_length_c                   18.4694(20)
_cell_angle_alpha                90
_cell_angle_beta                 90
_cell_angle_gamma                120
_cell_volume                     11380.5
loop_
_atom_site_label
_atom_site_type_symbol
_atom_site_fract_x
_atom_site_fract_y
_atom_site_fract_z
C1 C 0.3593(3) 0.3143(3) 0.2844(5)
H1 H 0.3295 0.3123 0.3128
C2 C 0.4377(4) 0.3216(3) 0.2500
C3 C 0.3872(3) 0.3872(3) 0.5000
H2 H 0.4220 0.4220 0.5000
N1 N 0.4908(3) 0.3261(2) 0.2500
C4 C 0.2943(3) 0.2407(3) 0.4623(5)
H3 H 0.3121 0.2227 0.4393
C5 C 0.55122(19) 0.44878(19) 0.4199(6)
C6 C 0.4407(3) 0.22036(14) 0.4149(3)
H4 H 0.4457 0.2229 0.3649
C7 C 0.4236(5) 0.2657(5) 0.5815(3)
H5 H 0.4218 0.2996 0.5803
C8 C 0.3248(3) 0.2985(3) 0.4816(4)
C9 C 0.5597(4) 0.3926(4) 0.4874(4)
H6 H 0.5531 0.3597 0.5128
C10 C 0.4307(3) 0.2408(3) 0.5224(3)
C11 C 0.2357(4) 0.2109(4) 0.4791(7)
H7 H 0.2127 0.1734 0.4619
Co1 Co 0.44102(3) 0.33220(3) 0.41260(5)
N2 N 0.3820(2) 0.34044(18) 0.4677(3)
N3 N 0.5283(2) 0.4717(2) 0.3773(11)
N4 N 0.4080(2) 0.31763(19) 0.3113(3)
N5 N 0.43719(19) 0.26113(19) 0.4502(2)
N6 N 0.5201(3) 0.3957(2) 0.4461(4)
O1 O 0.4766(2) 0.4431(3) 0.3695(4)
O2 O 0.5146(2) 0.3290(2) 0.3093(4)
C12 C 0.4192(7) 0.2355(8) 0.6445(5)
H8 H 0.4161 0.2508 0.6885
C13 C 0.3593(3) 0.3143(3) 0.2156(5)
H9 H 0.3295 0.3123 0.1872
N7 N 0.4080(2) 0.31763(19) 0.1887(3)
O3 O 0.5146(2) 0.3290(2) 0.1907(4)
C14 C 0.2407(3) 0.2943(3) 0.5377(5)
H10 H 0.2227 0.3121 0.5607
C15 C 0.2985(3) 0.3248(3) 0.5184(4)
C16 C 0.2109(4) 0.2357(4) 0.5209(7)
H11 H 0.1734 0.2127 0.5381
N8 N 0.34044(18) 0.3820(2) 0.5323(3)
C17 C 0.6074(4) 0.4403(4) 0.4874(4)
H12 H 0.6403 0.4469 0.5128
N9 N 0.6043(2) 0.4799(3) 0.4461(4)
O4 O 0.5569(3) 0.5234(2) 0.3695(4)
C18 C 0.4236(5) 0.1579(7) 0.5815(3)
H13 H 0.4218 0.1222 0.5803
C19 C 0.4307(3) 0.1899(4) 0.5224(3)
N10 N 0.43719(19) 0.17606(27) 0.4502(2)
C20 C 0.4192(7) 0.1837(11) 0.6445(5)
H14 H 0.4161 0.1653 0.6885
Co2 Co 0.33220(3) 0.44102(3) 0.58740(5)
Co3 Co 0.44102(3) 0.33220(3) 0.08740(5)
Co4 Co 0.44102(3) 0.10882(4) 0.41260(5)
Co5 Co 0.66780(3) 0.55898(3) 0.41260(5)
N11 N 0.31763(19) 0.4080(2) 0.6887(3)
N12 N 0.26113(19) 0.43719(19) 0.5498(2)
N13 N 0.3957(2) 0.5201(3) 0.5539(4)
C3_2 C -0.0000(4) 0.3872(3) 0.0000
H2_2 H 0.0000 0.4220 0.0000
C7_2 C 0.1579(7) 0.4236(5) 0.0815(3)
H5_2 H 0.1222 0.4218 0.0803
H6_2 H 0.1934 0.5531 0.0128
C10_2 C 0.1899(4) 0.4307(3) 0.0224(3)
C12_2 C 0.1837(11) 0.4192(7) 0.1445(5)
H8_2 H 0.1653 0.4161 0.1885
H12_2 H 0.1934 0.6403 0.0128
C18_2 C 0.2657(9) 0.4236(5) 0.0815(3)
H13_2 H 0.2996 0.4218 0.0803
C19_2 C 0.2408(5) 0.4307(3) 0.0224(3)
C20_2 C 0.2355(13) 0.4192(7) 0.1445(5)
H14_2 H 0.2508 0.4161 0.1885
C1_2 C 0.0450(4) 0.3593(3) 0.7844(5)
H1_2 H 0.0172 0.3295 0.8128
C2_2 C 0.1161(5) 0.4377(4) 0.7500
C3_3 C -0.0000(4) 0.3872(3) 1.0000
H2_3 H 0.0000 0.4220 1.0000
N1_2 N 0.1647(4) 0.4908(3) 0.7500
C4_2 C 0.0536(4) 0.2943(3) 0.9623(5)
H3_2 H 0.0894 0.3121 0.9393
C5_2 C 0.10244(27) 0.55122(19) 0.9199(6)
C6_2 C 0.22034(33) 0.4407(3) 0.9149(3)
H4_2 H 0.2228 0.4457 0.8649
C8_2 C 0.0263(4) 0.3248(3) 0.9816(4)
C9_2 C 0.1671(6) 0.5597(4) 0.9874(4)
C11_2 C 0.0248(6) 0.2357(4) 0.9791(7)
H7_2 H 0.0393 0.2127 0.9619
Co1_2 Co 0.10882(4) 0.44102(3) 0.91260(5)
N2_2 N 0.04156(27) 0.3820(2) 0.9677(3)
N3_2 N 0.0566(3) 0.5283(2) 0.8773(11)
N4_2 N 0.09037(28) 0.4080(2) 0.8113(3)
N5_2 N 0.17606(27) 0.43719(19) 0.9502(2)
N6_2 N 0.1244(4) 0.5201(3) 0.9461(4)
O1_2 O 0.0335(4) 0.4766(2) 0.8695(4)
O2_2 O 0.1856(3) 0.5146(2) 0.8093(4)
C13_2 C 0.0450(4) 0.3593(3) 0.7156(5)
H9_2 H 0.0172 0.3295 0.6872
N7_2 N 0.09037(28) 0.4080(2) 0.6887(3)
O3_2 O 0.1856(3) 0.5146(2) 0.6907(4)
C17_2 C 0.1671(6) 0.6074(4) 0.9874(4)
N9_2 N 0.1244(4) 0.6043(2) 0.9461(4)
O4_2 O 0.0335(4) 0.5569(3) 0.8695(4)
N10_2 N 0.26113(33) 0.43719(19) 0.9502(2)
Co3_2 Co 0.10882(4) 0.44102(3) 0.58740(5)
Co4_2 Co 0.33220(5) 0.44102(3) 0.91260(5)
Co5_2 Co 0.10882(4) 0.66780(3) 0.91260(5)
C3_4 C 1.0000(4) 0.3872(3) 0.0000
H2_4 H 1.0000 0.4220 0.0000
C14_2 C 0.9464(4) 0.2407(3) 0.0377(5)
H10_2 H 0.9106 0.2227 0.0607
C15_2 C 0.9737(4) 0.2985(3) 0.0184(4)
C16_2 C 0.9752(6) 0.2109(4) 0.0209(7)
H11_2 H 0.9607 0.1734 0.0381
N8_2 N 0.95844(27) 0.34044(18) 0.0323(3)
Co2_2 Co 0.89118(4) 0.33220(3) 0.08740(5)
N11_2 N 0.90963(28) 0.31763(19) 0.1887(3)
N12_2 N 0.82394(27) 0.26113(19) 0.0498(2)
N13_2 N 0.8756(4) 0.3957(2) 0.0539(4)
C3_5 C 1.0000(4) 0.3872(3) 1.0000
H2_5 H 1.0000 0.4220 1.0000
C1_3 C 0.6857(3) 0.0450(4) 0.2844(5)
H1_3 H 0.6877 0.0172 0.3128
C2_3 C 0.6784(3) 0.1161(5) 0.2500
C3_6 C 0.6128(3) -0.0000(4) 0.5000
H2_6 H 0.5780 0.0000 0.5000
N1_3 N 0.6739(2) 0.1647(4) 0.2500
C4_3 C 0.7593(3) 0.0536(4) 0.4623(5)
H3_3 H 0.7773 0.0894 0.4393
C5_3 C 0.55122(19) 0.10244(27) 0.4199(6)
C6_3 C 0.77964(14) 0.22034(33) 0.4149(3)
H4_3 H 0.7771 0.2228 0.3649
C7_3 C 0.7343(5) 0.1579(7) 0.5815(3)
H5_3 H 0.7004 0.1222 0.5803
C8_3 C 0.7015(3) 0.0263(4) 0.4816(4)
C9_3 C 0.6074(4) 0.1671(6) 0.4874(4)
H6_3 H 0.6403 0.1934 0.5128
C10_3 C 0.7592(3) 0.1899(4) 0.5224(3)
C11_3 C 0.7891(4) 0.0248(6) 0.4791(7)
H7_3 H 0.8266 0.0393 0.4619
Co1_3 Co 0.66780(3) 0.10882(4) 0.41260(5)
N2_3 N 0.65956(18) 0.04156(27) 0.4677(3)
N3_3 N 0.5283(2) 0.0566(3) 0.3773(11)
N4_3 N 0.68237(19) 0.09037(28) 0.3113(3)
N5_3 N 0.73887(19) 0.17606(27) 0.4502(2)
N6_3 N 0.6043(2) 0.1244(4) 0.4461(4)
O1_3 O 0.5569(3) 0.0335(4) 0.3695(4)
O2_3 O 0.6710(2) 0.1856(3) 0.3093(4)
C12_3 C 0.7645(8) 0.1837(11) 0.6445(5)
H8_3 H 0.7492 0.1653 0.6885
C13_3 C 0.6857(3) 0.0450(4) 0.2156(5)
H9_3 H 0.6877 0.0172 0.1872
N7_3 N 0.68237(19) 0.09037(28) 0.1887(3)
O3_3 O 0.6710(2) 0.1856(3) 0.1907(4)
C17_3 C 0.5597(4) 0.1671(6) 0.4874(4)
H12_3 H 0.5531 0.1934 0.5128
N9_3 N 0.5201(3) 0.1244(4) 0.4461(4)
O4_3 O 0.4766(2) 0.0335(4) 0.3695(4)
C18_3 C 0.8421(7) 0.2657(9) 0.5815(3)
H13_3 H 0.8778 0.2996 0.5803
C19_3 C 0.8101(4) 0.2408(5) 0.5224(3)
N10_3 N 0.82394(27) 0.26113(33) 0.4502(2)
C20_3 C 0.8163(11) 0.2355(13) 0.6445(5)
H14_3 H 0.8347 0.2508 0.6885
Co3_3 Co 0.66780(3) 0.10882(4) 0.08740(5)
Co4_3 Co 0.89118(4) 0.33220(5) 0.41260(5)
C3_7 C 0.6128(3) 1.0000(4) 0.5000
H2_7 H 0.5780 1.0000 0.5000
C14_3 C 0.7057(3) 0.9464(4) 0.5377(5)
H10_3 H 0.6879 0.9106 0.5607
C15_3 C 0.6752(3) 0.9737(4) 0.5184(4)
C16_3 C 0.7643(4) 0.9752(6) 0.5209(7)
H11_3 H 0.7873 0.9607 0.5381
N8_3 N 0.6180(2) 0.95844(27) 0.5323(3)
Co2_3 Co 0.55898(3) 0.89118(4) 0.58740(5)
N11_3 N 0.5920(2) 0.90963(28) 0.6887(3)
N12_3 N 0.56281(19) 0.82394(27) 0.5498(2)
N13_3 N 0.4799(3) 0.8756(4) 0.5539(4)
C3_8 C 0.6128(3) 0.6128(3) 0.0000
H2_8 H 0.5780 0.5780 0.0000
C7_4 C 0.5764(5) 0.7343(5) 0.0815(3)
H5_4 H 0.5782 0.7004 0.0803
H6_4 H 0.4469 0.6403 0.0128
C10_4 C 0.5693(3) 0.7592(3) 0.0224(3)
C12_4 C 0.5808(7) 0.7645(8) 0.1445(5)
H8_4 H 0.5839 0.7492 0.1885
C14_4 C 0.7593(3) 0.7057(3) 0.0377(5)
H10_4 H 0.7773 0.6879 0.0607
C15_4 C 0.7015(3) 0.6752(3) 0.0184(4)
C16_4 C 0.7891(4) 0.7643(4) 0.0209(7)
H11_4 H 0.8266 0.7873 0.0381
N8_4 N 0.65956(18) 0.6180(2) 0.0323(3)
H12_4 H 0.3597 0.5531 0.0128
C18_4 C 0.5764(5) 0.8421(7) 0.0815(3)
H13_4 H 0.5782 0.8778 0.0803
C19_4 C 0.5693(3) 0.8101(4) 0.0224(3)
C20_4 C 0.5808(7) 0.8163(11) 0.1445(5)
H14_4 H 0.5839 0.8347 0.1885
Co2_4 Co 0.66780(3) 0.55898(3) 0.08740(5)
N11_4 N 0.68237(19) 0.5920(2) 0.1887(3)
N12_4 N 0.73887(19) 0.56281(19) 0.0498(2)
N13_4 N 0.6043(2) 0.4799(3) 0.0539(4)
C1_4 C 0.6407(3) 0.6857(3) 0.7844(5)
H1_4 H 0.6705 0.6877 0.8128
C2_4 C 0.5623(4) 0.6784(3) 0.7500
C3_9 C 0.6128(3) 0.6128(3) 1.0000
H2_9 H 0.5780 0.5780 1.0000
N1_4 N 0.5092(3) 0.6739(2) 0.7500
C4_4 C 0.7057(3) 0.7593(3) 0.9623(5)
H3_4 H 0.6879 0.7773 0.9393
C5_4 C 0.44878(19) 0.55122(19) 0.9199(6)
C6_4 C 0.5593(3) 0.77964(14) 0.9149(3)
H4_4 H 0.5543 0.7771 0.8649
C8_4 C 0.6752(3) 0.7015(3) 0.9816(4)
C9_4 C 0.4403(4) 0.6074(4) 0.9874(4)
C11_4 C 0.7643(4) 0.7891(4) 0.9791(7)
H7_4 H 0.7873 0.8266 0.9619
Co1_4 Co 0.55898(3) 0.66780(3) 0.91260(5)
N2_4 N 0.6180(2) 0.65956(18) 0.9677(3)
N3_4 N 0.4717(2) 0.5283(2) 0.8773(11)
N4_4 N 0.5920(2) 0.68237(19) 0.8113(3)
N5_4 N 0.56281(19) 0.73887(19) 0.9502(2)
N6_4 N 0.4799(3) 0.6043(2) 0.9461(4)
O1_4 O 0.5234(2) 0.5569(3) 0.8695(4)
O2_4 O 0.4854(2) 0.6710(2) 0.8093(4)
C13_4 C 0.6407(3) 0.6857(3) 0.7156(5)
H9_4 H 0.6705 0.6877 0.6872
N7_4 N 0.5920(2) 0.68237(19) 0.6887(3)
O3_4 O 0.4854(2) 0.6710(2) 0.6907(4)
C17_4 C 0.3926(4) 0.5597(4) 0.9874(4)
N9_4 N 0.3957(2) 0.5201(3) 0.9461(4)
O4_4 O 0.4431(3) 0.4766(2) 0.8695(4)
N10_4 N 0.56281(19) 0.82394(27) 0.9502(2)
Co3_4 Co 0.55898(3) 0.66780(3) 0.58740(5)
Co4_4 Co 0.55898(3) 0.89118(4) 0.91260(5)
C3_10 C -0.0000(4) 0.6128(3) 0.5000
H2_10 H -0.0000 0.5780 0.5000
C14_5 C 0.0536(4) 0.7593(3) 0.5377(5)
H10_5 H 0.0894 0.7773 0.5607
C15_5 C 0.0263(4) 0.7015(3) 0.5184(4)
C16_5 C 0.0248(6) 0.7891(4) 0.5209(7)
H11_5 H 0.0393 0.8266 0.5381
N8_5 N 0.04156(27) 0.65956(18) 0.5323(3)
Co2_5 Co 0.10882(4) 0.66780(3) 0.58740(5)
N11_5 N 0.09037(28) 0.68237(19) 0.6887(3)
N12_5 N 0.17606(27) 0.73887(19) 0.5498(2)
N13_5 N 0.1244(4) 0.6043(2) 0.5539(4)
C1_5 C 0.9550(4) 0.6407(3) 0.2844(5)
H1_5 H 0.9828 0.6705 0.3128
C2_5 C 0.8839(5) 0.5623(4) 0.2500
C3_11 C 1.0000(4) 0.6128(3) 0.5000
H2_11 H 1.0000 0.5780 0.5000
N1_5 N 0.8353(4) 0.5092(3) 0.2500
C4_5 C 0.9464(4) 0.7057(3) 0.4623(5)
H3_5 H 0.9106 0.6879 0.4393
C5_5 C 0.89756(27) 0.44878(19) 0.4199(6)
C6_5 C 0.77966(33) 0.5593(3) 0.4149(3)
H4_5 H 0.7772 0.5543 0.3649
C7_5 C 0.8421(7) 0.5764(5) 0.5815(3)
H5_5 H 0.8778 0.5782 0.5803
C8_5 C 0.9737(4) 0.6752(3) 0.4816(4)
C9_5 C 0.8329(6) 0.4403(4) 0.4874(4)
H6_5 H 0.8066 0.4469 0.5128
C10_5 C 0.8101(4) 0.5693(3) 0.5224(3)
C11_5 C 0.9752(6) 0.7643(4) 0.4791(7)
H7_5 H 0.9607 0.7873 0.4619
Co1_5 Co 0.89118(4) 0.55898(3) 0.41260(5)
N2_5 N 0.95844(27) 0.6180(2) 0.4677(3)
N3_5 N 0.9434(3) 0.4717(2) 0.3773(11)
N4_5 N 0.90963(28) 0.5920(2) 0.3113(3)
N5_5 N 0.82394(27) 0.56281(19) 0.4502(2)
N6_5 N 0.8756(4) 0.4799(3) 0.4461(4)
O1_5 O 0.9665(4) 0.5234(2) 0.3695(4)
O2_5 O 0.8144(3) 0.4854(2) 0.3093(4)
C12_5 C 0.8163(11) 0.5808(7) 0.6445(5)
H8_5 H 0.8347 0.5839 0.6885
C13_5 C 0.9550(4) 0.6407(3) 0.2156(5)
H9_5 H 0.9828 0.6705 0.1872
N7_5 N 0.90963(28) 0.5920(2) 0.1887(3)
O3_5 O 0.8144(3) 0.4854(2) 0.1907(4)
C17_5 C 0.8329(6) 0.3926(4) 0.4874(4)
H12_5 H 0.8066 0.3597 0.5128
N9_5 N 0.8756(4) 0.3957(2) 0.4461(4)
O4_5 O 0.9665(4) 0.4431(3) 0.3695(4)
C18_5 C 0.7343(9) 0.5764(5) 0.5815(3)
H13_5 H 0.7004 0.5782 0.5803
C19_5 C 0.7592(5) 0.5693(3) 0.5224(3)
N10_5 N 0.73887(33) 0.56281(19) 0.4502(2)
C20_5 C 0.7645(13) 0.5808(7) 0.6445(5)
H14_5 H 0.7492 0.5839 0.6885
Co3_5 Co 0.89118(4) 0.55898(3) 0.08740(5)
C3_12 C 0.3872(3) 0.0000(4) 0.0000
H2_12 H 0.4220 -0.0000 0.0000
C14_6 C 0.2943(3) 0.0536(4) 0.0377(5)
H10_6 H 0.3121 0.0894 0.0607
C15_6 C 0.3248(3) 0.0263(4) 0.0184(4)
C16_6 C 0.2357(4) 0.0248(6) 0.0209(7)
H11_6 H 0.2127 0.0393 0.0381
N8_6 N 0.3820(2) 0.04156(27) 0.0323(3)
Co2_6 Co 0.44102(3) 0.10882(4) 0.08740(5)
N11_6 N 0.4080(2) 0.09037(28) 0.1887(3)
N12_6 N 0.43719(19) 0.17606(27) 0.0498(2)
N13_6 N 0.5201(3) 0.1244(4) 0.0539(4)
C3_13 C 0.3872(3) 0.0000(4) 1.0000
H2_13 H 0.4220 -0.0000 1.0000
C3_14 C 0.3872(3) 1.0000(4) 0.0000
H2_14 H 0.4220 1.0000 0.0000
C7_6 C 0.2657(5) 0.8421(7) 0.0815(3)
H5_6 H 0.2996 0.8778 0.0803
H6_6 H 0.3597 0.8066 0.0128
C10_6 C 0.2408(3) 0.8101(4) 0.0224(3)
C12_6 C 0.2355(8) 0.8163(11) 0.1445(5)
H8_6 H 0.2508 0.8347 0.1885
H12_6 H 0.4469 0.8066 0.0128
C18_6 C 0.1579(7) 0.7343(9) 0.0815(3)
H13_6 H 0.1222 0.7004 0.0803
C19_6 C 0.1899(4) 0.7592(5) 0.0224(3)
C20_6 C 0.1837(11) 0.7645(13) 0.1445(5)
H14_6 H 0.1653 0.7492 0.1885
C1_6 C 0.3143(3) 0.9550(4) 0.7844(5)
H1_6 H 0.3123 0.9828 0.8128
C2_6 C 0.3216(3) 0.8839(5) 0.7500
C3_15 C 0.3872(3) 1.0000(4) 1.0000
H2_15 H 0.4220 1.0000 1.0000
N1_6 N 0.3261(2) 0.8353(4) 0.7500
C4_6 C 0.2407(3) 0.9464(4) 0.9623(5)
H3_6 H 0.2227 0.9106 0.9393
C5_6 C 0.44878(19) 0.89756(27) 0.9199(6)
C6_6 C 0.22036(14) 0.77966(33) 0.9149(3)
H4_6 H 0.2229 0.7772 0.8649
C8_6 C 0.2985(3) 0.9737(4) 0.9816(4)
C9_6 C 0.3926(4) 0.8329(6) 0.9874(4)
C11_6 C 0.2109(4) 0.9752(6) 0.9791(7)
H7_6 H 0.1734 0.9607 0.9619
Co1_6 Co 0.33220(3) 0.89118(4) 0.91260(5)
N2_6 N 0.34044(18) 0.95844(27) 0.9677(3)
N3_6 N 0.4717(2) 0.9434(3) 0.8773(11)
N4_6 N 0.31763(19) 0.90963(28) 0.8113(3)
N5_6 N 0.26113(19) 0.82394(27) 0.9502(2)
N6_6 N 0.3957(2) 0.8756(4) 0.9461(4)
O1_6 O 0.4431(3) 0.9665(4) 0.8695(4)
O2_6 O 0.3290(2) 0.8144(3) 0.8093(4)
C13_6 C 0.3143(3) 0.9550(4) 0.7156(5)
H9_6 H 0.3123 0.9828 0.6872
N7_6 N 0.31763(19) 0.90963(28) 0.6887(3)
O3_6 O 0.3290(2) 0.8144(3) 0.6907(4)
C17_6 C 0.4403(4) 0.8329(6) 0.9874(4)
N9_6 N 0.4799(3) 0.8756(4) 0.9461(4)
O4_6 O 0.5234(2) 0.9665(4) 0.8695(4)
N10_6 N 0.17606(27) 0.73887(33) 0.9502(2)
Co3_6 Co 0.33220(3) 0.89118(4) 0.58740(5)
C1_7 C 0.0450(4) 0.6857(3) 0.7156(5)
H1_7 H 0.0172 0.6877 0.6872
C2_7 C 0.1161(5) 0.6784(3) 0.7500
N1_7 N 0.1647(4) 0.6739(2) 0.7500
C5_7 C 0.10244(27) 0.55122(19) 0.5801(6)
C6_7 C 0.22034(33) 0.77964(14) 0.5851(3)
H4_7 H 0.2228 0.7771 0.6351
C7_7 C 0.1579(7) 0.7343(5) 0.4185(3)
H5_7 H 0.1222 0.7004 0.4197
C9_7 C 0.1671(6) 0.6074(4) 0.5126(4)
H6_7 H 0.1934 0.6403 0.4872
C10_7 C 0.1899(4) 0.7592(3) 0.4776(3)
N3_7 N 0.0566(3) 0.5283(2) 0.6227(11)
O1_7 O 0.0335(4) 0.5569(3) 0.6305(4)
O2_7 O 0.1856(3) 0.6710(2) 0.6907(4)
C12_7 C 0.1837(11) 0.7645(8) 0.3555(5)
H8_7 H 0.1653 0.7492 0.3115
C13_7 C 0.0450(4) 0.6857(3) 0.7844(5)
H9_7 H 0.0172 0.6877 0.8128
N7_7 N 0.09037(28) 0.68237(19) 0.8113(3)
O3_7 O 0.1856(3) 0.6710(2) 0.8093(4)
C17_7 C 0.1671(6) 0.5597(4) 0.5126(4)
H12_7 H 0.1934 0.5531 0.4872
N9_7 N 0.1244(4) 0.5201(3) 0.5539(4)
O4_7 O 0.0335(4) 0.4766(2) 0.6305(4)
C18_7 C 0.2657(9) 0.8421(7) 0.4185(3)
H13_7 H 0.2996 0.8778 0.4197
C19_7 C 0.2408(5) 0.8101(4) 0.4776(3)
N10_7 N 0.26113(33) 0.82394(27) 0.5498(2)
C20_7 C 0.2355(13) 0.8163(11) 0.3555(5)
H14_7 H 0.2508 0.8347 0.3115
C1_8 C 0.6407(3) 0.9550(4) 0.7156(5)
H1_8 H 0.6705 0.9828 0.6872
C2_8 C 0.5623(4) 0.8839(5) 0.7500
N1_8 N 0.5092(3) 0.8353(4) 0.7500
C5_8 C 0.44878(19) 0.89756(27) 0.5801(6)
C6_8 C 0.5593(3) 0.77966(33) 0.5851(3)
H4_8 H 0.5543 0.7772 0.6351
C7_8 C 0.5764(5) 0.8421(7) 0.4185(3)
H5_8 H 0.5782 0.8778 0.4197
C9_8 C 0.4403(4) 0.8329(6) 0.5126(4)
H6_8 H 0.4469 0.8066 0.4872
C10_8 C 0.5693(3) 0.8101(4) 0.4776(3)
N3_8 N 0.4717(2) 0.9434(3) 0.6227(11)
O1_8 O 0.5234(2) 0.9665(4) 0.6305(4)
O2_8 O 0.4854(2) 0.8144(3) 0.6907(4)
C12_8 C 0.5808(7) 0.8163(11) 0.3555(5)
H8_8 H 0.5839 0.8347 0.3115
C13_8 C 0.6407(3) 0.9550(4) 0.7844(5)
H9_8 H 0.6705 0.9828 0.8128
N7_8 N 0.5920(2) 0.90963(28) 0.8113(3)
O3_8 O 0.4854(2) 0.8144(3) 0.8093(4)
C17_8 C 0.3926(4) 0.8329(6) 0.5126(4)
H12_8 H 0.3597 0.8066 0.4872
N9_8 N 0.3957(2) 0.8756(4) 0.5539(4)
O4_8 O 0.4431(3) 0.9665(4) 0.6305(4)
C18_8 C 0.5764(5) 0.7343(9) 0.4185(3)
H13_8 H 0.5782 0.7004 0.4197
C19_8 C 0.5693(3) 0.7592(5) 0.4776(3)
N10_8 N 0.56281(19) 0.73887(33) 0.5498(2)
C20_8 C 0.5808(7) 0.7645(13) 0.3555(5)
H14_8 H 0.5839 0.7492 0.3115
C1_9 C 0.3143(3) 0.3593(3) 0.7156(5)
H1_9 H 0.3123 0.3295 0.6872
C2_9 C 0.3216(3) 0.4377(4) 0.7500
N1_9 N 0.3261(2) 0.4908(3) 0.7500
C5_9 C 0.44878(19) 0.55122(19) 0.5801(6)
C6_9 C 0.22036(14) 0.4407(3) 0.5851(3)
H4_9 H 0.2229 0.4457 0.6351
C7_9 C 0.2657(5) 0.4236(5) 0.4185(3)
H5_9 H 0.2996 0.4218 0.4197
C9_9 C 0.3926(4) 0.5597(4) 0.5126(4)
H6_9 H 0.3597 0.5531 0.4872
C10_9 C 0.2408(3) 0.4307(3) 0.4776(3)
N3_9 N 0.4717(2) 0.5283(2) 0.6227(11)
O1_9 O 0.4431(3) 0.4766(2) 0.6305(4)
O2_9 O 0.3290(2) 0.5146(2) 0.6907(4)
C12_9 C 0.2355(8) 0.4192(7) 0.3555(5)
H8_9 H 0.2508 0.4161 0.3115
C13_9 C 0.3143(3) 0.3593(3) 0.7844(5)
H9_9 H 0.3123 0.3295 0.8128
N7_9 N 0.31763(19) 0.4080(2) 0.8113(3)
O3_9 O 0.3290(2) 0.5146(2) 0.8093(4)
C17_9 C 0.4403(4) 0.6074(4) 0.5126(4)
H12_9 H 0.4469 0.6403 0.4872
N9_9 N 0.4799(3) 0.6043(2) 0.5539(4)
O4_9 O 0.5234(2) 0.5569(3) 0.6305(4)
C18_9 C 0.1579(7) 0.4236(5) 0.4185(3)
H13_9 H 0.1222 0.4218 0.4197
C19_9 C 0.1899(4) 0.4307(3) 0.4776(3)
N10_9 N 0.17606(27) 0.43719(19) 0.5498(2)
C20_9 C 0.1837(11) 0.4192(7) 0.3555(5)
H14_9 H 0.1653 0.4161 0.3115
C1_10 C 0.6857(3) 0.6407(3) 0.2156(5)
H1_10 H 0.6877 0.6705 0.1872
C2_10 C 0.6784(3) 0.5623(4) 0.2500
N1_10 N 0.6739(2) 0.5092(3) 0.2500
C5_10 C 0.55122(19) 0.44878(19) 0.0801(6)
C6_10 C 0.77964(14) 0.5593(3) 0.0851(3)
H4_10 H 0.7771 0.5543 0.1351
C9_10 C 0.6074(4) 0.4403(4) 0.0126(4)
N3_10 N 0.5283(2) 0.4717(2) 0.1227(11)
O1_10 O 0.5569(3) 0.5234(2) 0.1305(4)
O2_10 O 0.6710(2) 0.4854(2) 0.1907(4)
C13_10 C 0.6857(3) 0.6407(3) 0.2844(5)
H9_10 H 0.6877 0.6705 0.3128
N7_10 N 0.68237(19) 0.5920(2) 0.3113(3)
O3_10 O 0.6710(2) 0.4854(2) 0.3093(4)
C17_10 C 0.5597(4) 0.3926(4) 0.0126(4)
N9_10 N 0.5201(3) 0.3957(2) 0.0539(4)
O4_10 O 0.4766(2) 0.4431(3) 0.1305(4)
N10_10 N 0.82394(27) 0.56281(19) 0.0498(2)
C7_10 C 0.7343(5) 0.5764(5) 0.9185(3)
H5_10 H 0.7004 0.5782 0.9197
H6_10 H 0.6403 0.4469 0.9872
C10_10 C 0.7592(3) 0.5693(3) 0.9776(3)
C12_10 C 0.7645(8) 0.5808(7) 0.8555(5)
H8_10 H 0.7492 0.5839 0.8115
H12_10 H 0.5531 0.3597 0.9872
C18_10 C 0.8421(7) 0.5764(5) 0.9185(3)
H13_10 H 0.8778 0.5782 0.9197
C19_10 C 0.8101(4) 0.5693(3) 0.9776(3)
C20_10 C 0.8163(11) 0.5808(7) 0.8555(5)
H14_10 H 0.8347 0.5839 0.8115
C1_11 C 0.9550(4) 0.3143(3) 0.2156(5)
H1_11 H 0.9828 0.3123 0.1872
C2_11 C 0.8839(5) 0.3216(3) 0.2500
N1_11 N 0.8353(4) 0.3261(2) 0.2500
C5_11 C 0.89756(27) 0.44878(19) 0.0801(6)
C6_11 C 0.77966(33) 0.22036(14) 0.0851(3)
H4_11 H 0.7772 0.2229 0.1351
C9_11 C 0.8329(6) 0.3926(4) 0.0126(4)
N3_11 N 0.9434(3) 0.4717(2) 0.1227(11)
O1_11 O 0.9665(4) 0.4431(3) 0.1305(4)
O2_11 O 0.8144(3) 0.3290(2) 0.1907(4)
C13_11 C 0.9550(4) 0.3143(3) 0.2844(5)
H9_11 H 0.9828 0.3123 0.3128
N7_11 N 0.90963(28) 0.31763(19) 0.3113(3)
O3_11 O 0.8144(3) 0.3290(2) 0.3093(4)
C17_11 C 0.8329(6) 0.4403(4) 0.0126(4)
N9_11 N 0.8756(4) 0.4799(3) 0.0539(4)
O4_11 O 0.9665(4) 0.5234(2) 0.1305(4)
N10_11 N 0.73887(33) 0.17606(27) 0.0498(2)
C7_11 C 0.8421(7) 0.2657(5) 0.9185(3)
H5_11 H 0.8778 0.2996 0.9197
H6_11 H 0.8066 0.3597 0.9872
C10_11 C 0.8101(4) 0.2408(3) 0.9776(3)
C12_11 C 0.8163(11) 0.2355(8) 0.8555(5)
H8_11 H 0.8347 0.2508 0.8115
H12_11 H 0.8066 0.4469 0.9872
C18_11 C 0.7343(9) 0.1579(7) 0.9185(3)
H13_11 H 0.7004 0.1222 0.9197
C19_11 C 0.7592(5) 0.1899(4) 0.9776(3)
C20_11 C 0.7645(13) 0.1837(11) 0.8555(5)
H14_11 H 0.7492 0.1653 0.8115
C1_12 C 0.3593(3) 0.0450(4) 0.2156(5)
H1_12 H 0.3295 0.0172 0.1872
C2_12 C 0.4377(4) 0.1161(5) 0.2500
N1_12 N 0.4908(3) 0.1647(4) 0.2500
C5_12 C 0.55122(19) 0.10244(27) 0.0801(6)
C6_12 C 0.4407(3) 0.22034(33) 0.0851(3)
H4_12 H 0.4457 0.2228 0.1351
C9_12 C 0.5597(4) 0.1671(6) 0.0126(4)
N3_12 N 0.5283(2) 0.0566(3) 0.1227(11)
O1_12 O 0.4766(2) 0.0335(4) 0.1305(4)
O2_12 O 0.5146(2) 0.1856(3) 0.1907(4)
C13_12 C 0.3593(3) 0.0450(4) 0.2844(5)
H9_12 H 0.3295 0.0172 0.3128
N7_12 N 0.4080(2) 0.09037(28) 0.3113(3)
O3_12 O 0.5146(2) 0.1856(3) 0.3093(4)
C17_12 C 0.6074(4) 0.1671(6) 0.0126(4)
N9_12 N 0.6043(2) 0.1244(4) 0.0539(4)
O4_12 O 0.5569(3) 0.0335(4) 0.1305(4)
N10_12 N 0.43719(19) 0.26113(33) 0.0498(2)
C7_12 C 0.4236(5) 0.1579(7) 0.9185(3)
H5_12 H 0.4218 0.1222 0.9197
H6_12 H 0.5531 0.1934 0.9872
C10_12 C 0.4307(3) 0.1899(4) 0.9776(3)
C12_12 C 0.4192(7) 0.1837(11) 0.8555(5)
H8_12 H 0.4161 0.1653 0.8115
H12_12 H 0.6403 0.1934 0.9872
C18_12 C 0.4236(5) 0.2657(9) 0.9185(3)
H13_12 H 0.4218 0.2996 0.9197
C19_12 C 0.4307(3) 0.2408(5) 0.9776(3)
C20_12 C 0.4192(7) 0.2355(13) 0.8555(5)
H14_12 H 0.4161 0.2508 0.8115
C3_16 C 0.6128(3) 0.6128(3) 0.5000
H2_16 H 0.5780 0.5780 0.5000
C4_7 C 0.7057(3) 0.7593(3) 0.5377(5)
H3_7 H 0.6879 0.7773 0.5607
C8_7 C 0.6752(3) 0.7015(3) 0.5184(4)
C11_7 C 0.7643(4) 0.7891(4) 0.5209(7)
H7_7 H 0.7873 0.8266 0.5381
N2_7 N 0.6180(2) 0.65956(18) 0.5323(3)
C14_7 C 0.7593(3) 0.7057(3) 0.4623(5)
H10_7 H 0.7773 0.6879 0.4393
C15_7 C 0.7015(3) 0.6752(3) 0.4816(4)
C16_7 C 0.7891(4) 0.7643(4) 0.4791(7)
H11_7 H 0.8266 0.7873 0.4619
N8_7 N 0.65956(18) 0.6180(2) 0.4677(3)
C3_17 C 0.0000(4) 0.6128(3) 0.0000
H2_17 H -0.0000 0.5780 0.0000
C3_18 C -0.0000(4) 0.6128(3) 1.0000
H2_18 H -0.0000 0.5780 1.0000
C14_8 C 0.0536(4) 0.7593(3) 0.9623(5)
H10_8 H 0.0894 0.7773 0.9393
C15_8 C 0.0263(4) 0.7015(3) 0.9816(4)
C16_8 C 0.0248(6) 0.7891(4) 0.9791(7)
H11_8 H 0.0393 0.8266 0.9619
N8_8 N 0.04156(27) 0.65956(18) 0.9677(3)
C3_19 C 1.0000(4) 0.6128(3) 0.0000
H2_19 H 1.0000 0.5780 0.0000
C4_8 C 0.9464(4) 0.7057(3) 0.0377(5)
H3_8 H 0.9106 0.6879 0.0607
C8_8 C 0.9737(4) 0.6752(3) 0.0184(4)
C11_8 C 0.9752(6) 0.7643(4) 0.0209(7)
H7_8 H 0.9607 0.7873 0.0381
N2_8 N 0.95844(27) 0.6180(2) 0.0323(3)
C3_20 C 1.0000(4) 0.6128(3) 1.0000
H2_20 H 1.0000 0.5780 1.0000
C3_21 C 0.3872(3) 0.0000(4) 0.5000
H2_21 H 0.4220 -0.0000 0.5000
C14_9 C 0.2943(3) 0.0536(4) 0.4623(5)
H10_9 H 0.3121 0.0894 0.4393
C15_9 C 0.3248(3) 0.0263(4) 0.4816(4)
C16_9 C 0.2357(4) 0.0248(6) 0.4791(7)
H11_9 H 0.2127 0.0393 0.4619
N8_9 N 0.3820(2) 0.04156(27) 0.4677(3)
C3_22 C 0.3872(3) 1.0000(4) 0.5000
H2_22 H 0.4220 1.0000 0.5000
C4_9 C 0.2407(3) 0.9464(4) 0.5377(5)
H3_9 H 0.2227 0.9106 0.5607
C8_9 C 0.2985(3) 0.9737(4) 0.5184(4)
C11_9 C 0.2109(4) 0.9752(6) 0.5209(7)
H7_9 H 0.1734 0.9607 0.5381
N2_9 N 0.34044(18) 0.95844(27) 0.5323(3)
C3_23 C 0.3872(3) 0.3872(3) 0.0000
H2_23 H 0.4220 0.4220 0.0000
C4_10 C 0.2943(3) 0.2407(3) 0.0377(5)
H3_10 H 0.3121 0.2227 0.0607
C8_10 C 0.3248(3) 0.2985(3) 0.0184(4)
C11_10 C 0.2357(4) 0.2109(4) 0.0209(7)
H7_10 H 0.2127 0.1734 0.0381
N2_10 N 0.3820(2) 0.34044(18) 0.0323(3)
C3_24 C 0.3872(3) 0.3872(3) 1.0000
H2_24 H 0.4220 0.4220 1.0000
C14_10 C 0.2407(3) 0.2943(3) 0.9623(5)
H10_10 H 0.2227 0.3121 0.9393
C15_10 C 0.2985(3) 0.3248(3) 0.9816(4)
C16_10 C 0.2109(4) 0.2357(4) 0.9791(7)
H11_10 H 0.1734 0.2127 0.9619
N8_10 N 0.34044(18) 0.3820(2) 0.9677(3)
C3_25 C -0.0000(4) 0.3872(3) 0.5000
H2_25 H 0.0000 0.4220 0.5000
C4_11 C 0.0536(4) 0.2943(3) 0.5377(5)
H3_11 H 0.0894 0.3121 0.5607
C8_11 C 0.0263(4) 0.3248(3) 0.5184(4)
C11_11 C 0.0248(6) 0.2357(4) 0.5209(7)
H7_11 H 0.0393 0.2127 0.5381
N2_11 N 0.04156(27) 0.3820(2) 0.5323(3)
C3_26 C 1.0000(4) 0.3872(3) 0.5000
H2_26 H 1.0000 0.4220 0.5000
C14_11 C 0.9464(4) 0.2407(3) 0.4623(5)
H10_11 H 0.9106 0.2227 0.4393
C15_11 C 0.9737(4) 0.2985(3) 0.4816(4)
C16_11 C 0.9752(6) 0.2109(4) 0.4791(7)
H11_11 H 0.9607 0.1734 0.4619
N8_11 N 0.95844(27) 0.34044(18) 0.4677(3)
C3_27 C 0.6128(3) -0.0000(4) 0.0000
H2_27 H 0.5780 0.0000 0.0000
C4_12 C 0.7593(3) 0.0536(4) 0.0377(5)
H3_12 H 0.7773 0.0894 0.0607
C8_12 C 0.7015(3) 0.0263(4) 0.0184(4)
C11_12 C 0.7891(4) 0.0248(6) 0.0209(7)
H7_12 H 0.8266 0.0393 0.0381
N2_12 N 0.65956(18) 0.04156(27) 0.0323(3)
C3_28 C 0.6128(3) -0.0000(4) 1.0000
H2_28 H 0.5780 0.0000 1.0000
C3_29 C 0.6128(3) 1.0000(4) 0.0000
H2_29 H 0.5780 1.0000 0.0000
C3_30 C 0.6128(3) 1.0000(4) 1.0000
H2_30 H 0.5780 1.0000 1.0000
C14_12 C 0.7057(3) 0.9464(4) 0.9623(5)
H10_12 H 0.6879 0.9106 0.9393
C15_12 C 0.6752(3) 0.9737(4) 0.9816(4)
C16_12 C 0.7643(4) 0.9752(6) 0.9791(7)
H11_12 H 0.7873 0.9607 0.9619
N8_12 N 0.6180(2) 0.95844(27) 0.9677(3)
loop_
_geom_bond_atom_site_label_1
_geom_bond_atom_site_label_2
_geom_bond_site_symmetry_1
_geom_bond_site_symmetry_2
C1 H1 1_555 1_555
C2 N1 1_555 1_555
C3 H2 1_555 1_555
N1 O2 1_555 1_555
C4 H3 1_555 1_555
C5 N3 1_555 1_555
C6 H4 1_555 1_555
C7 H5 1_555 1_555
C8 C4 1_555 1_555
C9 H6 1_555 1_555
C10 C7 1_555 1_555
C11 C4 1_555 1_555
H7 C11 1_555 1_555
Co1 N2 1_555 1_555
N2 C3 1_555 1_555
N3 O1 1_555 1_555
N4 C1 1_555 1_555
N5 C6 1_555 1_555
N6 C5 1_555 1_555
C12 C7 1_555 1_555
H8 C12 1_555 1_555
C13 C1 1_555 1_555
H9 C13 1_555 1_555
N7 C2 1_555 1_555
O3 N1 1_555 1_555
C14 H10 1_555 1_555
C15 C8 1_555 1_555
C16 C11 1_555 1_555
H11 C16 1_555 1_555
N8 C3 1_555 1_555
C17 C9 1_555 1_555
H12 C17 1_555 1_555
N9 C5 1_555 1_555
O4 N3 1_555 1_555
C18 H13 1_555 1_555
C19 C10 1_555 1_555
N10 C6 1_555 1_555
C20 C12 1_555 1_555
H14 C20 1_555 1_555
Co2 N8 1_555 1_555
Co3 N7 1_555 1_555
Co4 N10 1_555 1_555
Co5 N9 1_555 1_555
N11 Co2 1_555 1_555
N12 Co2 1_555 1_555
N13 Co2 1_555 1_555
C2 N4 1_555 1_555
C8 N2 1_555 1_555
C9 N6 1_555 1_555
C10 N5 1_555 1_555
Co1 N4 1_555 1_555
Co1 N5 1_555 1_555
Co1 N6 1_555 1_555
C13 N7 1_555 1_555
C14 C15 1_555 1_555
C14 C16 1_555 1_555
C15 N8 1_555 1_555
C17 N9 1_555 1_555
C18 C19 1_555 1_555
C18 C20 1_555 1_555
C19 N10 1_555 1_555
C3_2 H2_2 1_555 1_555
C7_2 H5_2 1_555 1_555
C10_2 C7_2 1_555 1_555
C12_2 C7_2 1_555 1_555
H8_2 C12_2 1_555 1_555
C18_2 H13_2 1_555 1_555
C19_2 C10_2 1_555 1_555
C20_2 C12_2 1_555 1_555
H14_2 C20_2 1_555 1_555
C18_2 C19_2 1_555 1_555
C18_2 C20_2 1_555 1_555
C1_2 H1_2 1_555 1_555
C2_2 N1_2 1_555 1_555
C3_3 H2_3 1_555 1_555
N1_2 O2_2 1_555 1_555
C4_2 H3_2 1_555 1_555
C5_2 N3_2 1_555 1_555
C6_2 H4_2 1_555 1_555
C8_2 C4_2 1_555 1_555
C11_2 C4_2 1_555 1_555
H7_2 C11_2 1_555 1_555
Co1_2 N2_2 1_555 1_555
N2_2 C3_3 1_555 1_555
N3_2 O1_2 1_555 1_555
N4_2 C1_2 1_555 1_555
N5_2 C6_2 1_555 1_555
N6_2 C5_2 1_555 1_555
C13_2 C1_2 1_555 1_555
H9_2 C13_2 1_555 1_555
N7_2 C2_2 1_555 1_555
O3_2 N1_2 1_555 1_555
C17_2 C9_2 1_555 1_555
N9_2 C5_2 1_555 1_555
O4_2 N3_2 1_555 1_555
N10_2 C6_2 1_555 1_555
Co3_2 N7_2 1_555 1_555
Co4_2 N10_2 1_555 1_555
Co5_2 N9_2 1_555 1_555
C2_2 N4_2 1_555 1_555
C8_2 N2_2 1_555 1_555
C9_2 N6_2 1_555 1_555
Co1_2 N4_2 1_555 1_555
Co1_2 N5_2 1_555 1_555
Co1_2 N6_2 1_555 1_555
C13_2 N7_2 1_555 1_555
C17_2 N9_2 1_555 1_555
C3_4 H2_4 1_555 1_555
C14_2 H10_2 1_555 1_555
H11_2 C16_2 1_555 1_555
N8_2 C3_4 1_555 1_555
Co2_2 N8_2 1_555 1_555
N11_2 Co2_2 1_555 1_555
N12_2 Co2_2 1_555 1_555
N13_2 Co2_2 1_555 1_555
C14_2 C15_2 1_555 1_555
C14_2 C16_2 1_555 1_555
C15_2 N8_2 1_555 1_555
C3_5 H2_5 1_555 1_555
C1_3 H1_3 1_555 1_555
C2_3 N1_3 1_555 1_555
C3_6 H2_6 1_555 1_555
N1_3 O2_3 1_555 1_555
C4_3 H3_3 1_555 1_555
C5_3 N3_3 1_555 1_555
C6_3 H4_3 1_555 1_555
C7_3 H5_3 1_555 1_555
C8_3 C4_3 1_555 1_555
C9_3 H6_3 1_555 1_555
C10_3 C7_3 1_555 1_555
C11_3 C4_3 1_555 1_555
H7_3 C11_3 1_555 1_555
Co1_3 N2_3 1_555 1_555
N2_3 C3_6 1_555 1_555
N3_3 O1_3 1_555 1_555
N4_3 C1_3 1_555 1_555
N5_3 C6_3 1_555 1_555
N6_3 C5_3 1_555 1_555
C12_3 C7_3 1_555 1_555
H8_3 C12_3 1_555 1_555
C13_3 C1_3 1_555 1_555
H9_3 C13_3 1_555 1_555
N7_3 C2_3 1_555 1_555
O3_3 N1_3 1_555 1_555
C17_3 C9_3 1_555 1_555
H12_3 C17_3 1_555 1_555
N9_3 C5_3 1_555 1_555
O4_3 N3_3 1_555 1_555
C18_3 H13_3 1_555 1_555
C19_3 C10_3 1_555 1_555
N10_3 C6_3 1_555 1_555
C20_3 C12_3 1_555 1_555
H14_3 C20_3 1_555 1_555
Co3_3 N7_3 1_555 1_555
Co4_3 N10_3 1_555 1_555
Co4 N9_3 1_555 1_555
C2_3 N4_3 1_555 1_555
C8_3 N2_3 1_555 1_555
C9_3 N6_3 1_555 1_555
C10_3 N5_3 1_555 1_555
Co1_3 N4_3 1_555 1_555
Co1_3 N5_3 1_555 1_555
Co1_3 N6_3 1_555 1_555
C13_3 N7_3 1_555 1_555
C17_3 N9_3 1_555 1_555
C18_3 C19_3 1_555 1_555
C18_3 C20_3 1_555 1_555
C19_3 N10_3 1_555 1_555
C3_7 H2_7 1_555 1_555
C14_3 H10_3 1_555 1_555
H11_3 C16_3 1_555 1_555
N8_3 C3_7 1_555 1_555
Co2_3 N8_3 1_555 1_555
N11_3 Co2_3 1_555 1_555
N12_3 Co2_3 1_555 1_555
N13_3 Co2_3 1_555 1_555
C14_3 C15_3 1_555 1_555
C14_3 C16_3 1_555 1_555
C15_3 N8_3 1_555 1_555
C3_8 H2_8 1_555 1_555
C7_4 H5_4 1_555 1_555
C10_4 C7_4 1_555 1_555
C12_4 C7_4 1_555 1_555
H8_4 C12_4 1_555 1_555
C14_4 H10_4 1_555 1_555
H11_4 C16_4 1_555 1_555
N8_4 C3_8 1_555 1_555
C18_4 H13_4 1_555 1_555
C19_4 C10_4 1_555 1_555
C20_4 C12_4 1_555 1_555
H14_4 C20_4 1_555 1_555
Co2_4 N8_4 1_555 1_555
N11_4 Co2_4 1_555 1_555
N12_4 Co2_4 1_555 1_555
N13_4 Co2_4 1_555 1_555
C14_4 C15_4 1_555 1_555
C14_4 C16_4 1_555 1_555
C15_4 N8_4 1_555 1_555
C18_4 C19_4 1_555 1_555
C18_4 C20_4 1_555 1_555
C1_4 H1_4 1_555 1_555
C2_4 N1_4 1_555 1_555
C3_9 H2_9 1_555 1_555
N1_4 O2_4 1_555 1_555
C4_4 H3_4 1_555 1_555
C5_4 N3_4 1_555 1_555
C6_4 H4_4 1_555 1_555
C8_4 C4_4 1_555 1_555
C11_4 C4_4 1_555 1_555
H7_4 C11_4 1_555 1_555
Co1_4 N2_4 1_555 1_555
N2_4 C3_9 1_555 1_555
N3_4 O1_4 1_555 1_555
N4_4 C1_4 1_555 1_555
N5_4 C6_4 1_555 1_555
N6_4 C5_4 1_555 1_555
C13_4 C1_4 1_555 1_555
H9_4 C13_4 1_555 1_555
N7_4 C2_4 1_555 1_555
O3_4 N1_4 1_555 1_555
C17_4 C9_4 1_555 1_555
N9_4 C5_4 1_555 1_555
O4_4 N3_4 1_555 1_555
N10_4 C6_4 1_555 1_555
Co3_4 N7_4 1_555 1_555
Co4_4 N10_4 1_555 1_555
Co4_2 N9_4 1_555 1_555
C2_4 N4_4 1_555 1_555
C8_4 N2_4 1_555 1_555
C9_4 N6_4 1_555 1_555
Co1_4 N4_4 1_555 1_555
Co1_4 N5_4 1_555 1_555
Co1_4 N6_4 1_555 1_555
C13_4 N7_4 1_555 1_555
C17_4 N9_4 1_555 1_555
C3_10 H2_10 1_555 1_555
C14_5 H10_5 1_555 1_555
H11_5 C16_5 1_555 1_555
N8_5 C3_10 1_555 1_555
Co2_5 N8_5 1_555 1_555
N11_5 Co2_5 1_555 1_555
N12_5 Co2_5 1_555 1_555
N13_5 Co2_5 1_555 1_555
C14_5 C15_5 1_555 1_555
C14_5 C16_5 1_555 1_555
C15_5 N8_5 1_555 1_555
C1_5 H1_5 1_555 1_555
C2_5 N1_5 1_555 1_555
C3_11 H2_11 1_555 1_555
N1_5 O2_5 1_555 1_555
C4_5 H3_5 1_555 1_555
C5_5 N3_5 1_555 1_555
C6_5 H4_5 1_555 1_555
C7_5 H5_5 1_555 1_555
C8_5 C4_5 1_555 1_555
C9_5 H6_5 1_555 1_555
C10_5 C7_5 1_555 1_555
C11_5 C4_5 1_555 1_555
H7_5 C11_5 1_555 1_555
Co1_5 N2_5 1_555 1_555
N2_5 C3_11 1_555 1_555
N3_5 O1_5 1_555 1_555
N4_5 C1_5 1_555 1_555
N5_5 C6_5 1_555 1_555
N6_5 C5_5 1_555 1_555
C12_5 C7_5 1_555 1_555
H8_5 C12_5 1_555 1_555
C13_5 C1_5 1_555 1_555
H9_5 C13_5 1_555 1_555
N7_5 C2_5 1_555 1_555
O3_5 N1_5 1_555 1_555
C17_5 C9_5 1_555 1_555
H12_5 C17_5 1_555 1_555
N9_5 C5_5 1_555 1_555
O4_5 N3_5 1_555 1_555
C18_5 H13_5 1_555 1_555
C19_5 C10_5 1_555 1_555
N10_5 C6_5 1_555 1_555
C20_5 C12_5 1_555 1_555
H14_5 C20_5 1_555 1_555
Co3_5 N7_5 1_555 1_555
Co5 N10_5 1_555 1_555
Co4_3 N9_5 1_555 1_555
C2_5 N4_5 1_555 1_555
C8_5 N2_5 1_555 1_555
C9_5 N6_5 1_555 1_555
C10_5 N5_5 1_555 1_555
Co1_5 N4_5 1_555 1_555
Co1_5 N5_5 1_555 1_555
Co1_5 N6_5 1_555 1_555
C13_5 N7_5 1_555 1_555
C17_5 N9_5 1_555 1_555
C18_5 C19_5 1_555 1_555
C18_5 C20_5 1_555 1_555
C19_5 N10_5 1_555 1_555
C3_12 H2_12 1_555 1_555
C14_6 H10_6 1_555 1_555
H11_6 C16_6 1_555 1_555
N8_6 C3_12 1_555 1_555
Co2_6 N8_6 1_555 1_555
N11_6 Co2_6 1_555 1_555
N12_6 Co2_6 1_555 1_555
N13_6 Co2_6 1_555 1_555
C14_6 C15_6 1_555 1_555
C14_6 C16_6 1_555 1_555
C15_6 N8_6 1_555 1_555
C3_13 H2_13 1_555 1_555
C3_14 H2_14 1_555 1_555
C7_6 H5_6 1_555 1_555
C10_6 C7_6 1_555 1_555
C12_6 C7_6 1_555 1_555
H8_6 C12_6 1_555 1_555
C18_6 H13_6 1_555 1_555
C19_6 C10_6 1_555 1_555
C20_6 C12_6 1_555 1_555
H14_6 C20_6 1_555 1_555
C18_6 C19_6 1_555 1_555
C18_6 C20_6 1_555 1_555
C1_6 H1_6 1_555 1_555
C2_6 N1_6 1_555 1_555
C3_15 H2_15 1_555 1_555
N1_6 O2_6 1_555 1_555
C4_6 H3_6 1_555 1_555
C5_6 N3_6 1_555 1_555
C6_6 H4_6 1_555 1_555
C8_6 C4_6 1_555 1_555
C11_6 C4_6 1_555 1_555
H7_6 C11_6 1_555 1_555
Co1_6 N2_6 1_555 1_555
N2_6 C3_15 1_555 1_555
N3_6 O1_6 1_555 1_555
N4_6 C1_6 1_555 1_555
N5_6 C6_6 1_555 1_555
N6_6 C5_6 1_555 1_555
C13_6 C1_6 1_555 1_555
H9_6 C13_6 1_555 1_555
N7_6 C2_6 1_555 1_555
O3_6 N1_6 1_555 1_555
C17_6 C9_6 1_555 1_555
N9_6 C5_6 1_555 1_555
O4_6 N3_6 1_555 1_555
N10_6 C6_6 1_555 1_555
Co3_6 N7_6 1_555 1_555
Co5_2 N10_6 1_555 1_555
Co4_4 N9_6 1_555 1_555
C2_6 N4_6 1_555 1_555
C8_6 N2_6 1_555 1_555
C9_6 N6_6 1_555 1_555
Co1_6 N4_6 1_555 1_555
Co1_6 N5_6 1_555 1_555
Co1_6 N6_6 1_555 1_555
C13_6 N7_6 1_555 1_555
C17_6 N9_6 1_555 1_555
C1_7 H1_7 1_555 1_555
C2_7 N1_7 1_555 1_555
N1_7 O2_7 1_555 1_555
C5_7 N3_7 1_555 1_555
C6_7 H4_7 1_555 1_555
C7_7 H5_7 1_555 1_555
C9_7 H6_7 1_555 1_555
C10_7 C7_7 1_555 1_555
N3_7 O1_7 1_555 1_555
N11_5 C1_7 1_555 1_555
N12_5 C6_7 1_555 1_555
N13_5 C5_7 1_555 1_555
C12_7 C7_7 1_555 1_555
H8_7 C12_7 1_555 1_555
C13_7 C1_7 1_555 1_555
H9_7 C13_7 1_555 1_555
N7_7 C2_7 1_555 1_555
O3_7 N1_7 1_555 1_555
C17_7 C9_7 1_555 1_555
H12_7 C17_7 1_555 1_555
N9_7 C5_7 1_555 1_555
O4_7 N3_7 1_555 1_555
C18_7 H13_7 1_555 1_555
C19_7 C10_7 1_555 1_555
N10_7 C6_7 1_555 1_555
C20_7 C12_7 1_555 1_555
H14_7 C20_7 1_555 1_555
Co5_2 N7_7 1_555 1_555
Co3_6 N10_7 1_555 1_555
Co3_2 N9_7 1_555 1_555
C2_7 N11_5 1_555 1_555
C9_7 N13_5 1_555 1_555
C10_7 N12_5 1_555 1_555
C13_7 N7_7 1_555 1_555
C17_7 N9_7 1_555 1_555
C18_7 C19_7 1_555 1_555
C18_7 C20_7 1_555 1_555
C19_7 N10_7 1_555 1_555
C1_8 H1_8 1_555 1_555
C2_8 N1_8 1_555 1_555
N1_8 O2_8 1_555 1_555
C5_8 N3_8 1_555 1_555
C6_8 H4_8 1_555 1_555
C7_8 H5_8 1_555 1_555
C9_8 H6_8 1_555 1_555
C10_8 C7_8 1_555 1_555
N3_8 O1_8 1_555 1_555
N11_3 C1_8 1_555 1_555
N12_3 C6_8 1_555 1_555
N13_3 C5_8 1_555 1_555
C12_8 C7_8 1_555 1_555
H8_8 C12_8 1_555 1_555
C13_8 C1_8 1_555 1_555
H9_8 C13_8 1_555 1_555
N7_8 C2_8 1_555 1_555
O3_8 N1_8 1_555 1_555
C17_8 C9_8 1_555 1_555
H12_8 C17_8 1_555 1_555
N9_8 C5_8 1_555 1_555
O4_8 N3_8 1_555 1_555
C18_8 H13_8 1_555 1_555
C19_8 C10_8 1_555 1_555
N10_8 C6_8 1_555 1_555
C20_8 C12_8 1_555 1_555
H14_8 C20_8 1_555 1_555
Co4_4 N7_8 1_555 1_555
Co3_4 N10_8 1_555 1_555
Co3_6 N9_8 1_555 1_555
C2_8 N11_3 1_555 1_555
C9_8 N13_3 1_555 1_555
C10_8 N12_3 1_555 1_555
C13_8 N7_8 1_555 1_555
C17_8 N9_8 1_555 1_555
C18_8 C19_8 1_555 1_555
C18_8 C20_8 1_555 1_555
C19_8 N10_8 1_555 1_555
C1_9 H1_9 1_555 1_555
C2_9 N1_9 1_555 1_555
N1_9 O2_9 1_555 1_555
C5_9 N3_9 1_555 1_555
C6_9 H4_9 1_555 1_555
C7_9 H5_9 1_555 1_555
C9_9 H6_9 1_555 1_555
C10_9 C7_9 1_555 1_555
N3_9 O1_9 1_555 1_555
N11 C1_9 1_555 1_555
N12 C6_9 1_555 1_555
N13 C5_9 1_555 1_555
C12_9 C7_9 1_555 1_555
H8_9 C12_9 1_555 1_555
C13_9 C1_9 1_555 1_555
H9_9 C13_9 1_555 1_555
N7_9 C2_9 1_555 1_555
O3_9 N1_9 1_555 1_555
C17_9 C9_9 1_555 1_555
H12_9 C17_9 1_555 1_555
N9_9 C5_9 1_555 1_555
O4_9 N3_9 1_555 1_555
C18_9 H13_9 1_555 1_555
C19_9 C10_9 1_555 1_555
N10_9 C6_9 1_555 1_555
C20_9 C12_9 1_555 1_555
H14_9 C20_9 1_555 1_555
Co4_2 N7_9 1_555 1_555
Co3_2 N10_9 1_555 1_555
Co3_4 N9_9 1_555 1_555
C2_9 N11 1_555 1_555
C9_9 N13 1_555 1_555
C10_9 N12 1_555 1_555
C13_9 N7_9 1_555 1_555
C17_9 N9_9 1_555 1_555
C18_9 C19_9 1_555 1_555
C18_9 C20_9 1_555 1_555
C19_9 N10_9 1_555 1_555
C1_10 H1_10 1_555 1_555
C2_10 N1_10 1_555 1_555
N1_10 O2_10 1_555 1_555
C5_10 N3_10 1_555 1_555
C6_10 H4_10 1_555 1_555
N3_10 O1_10 1_555 1_555
N11_4 C1_10 1_555 1_555
N12_4 C6_10 1_555 1_555
N13_4 C5_10 1_555 1_555
C13_10 C1_10 1_555 1_555
H9_10 C13_10 1_555 1_555
N7_10 C2_10 1_555 1_555
O3_10 N1_10 1_555 1_555
C17_10 C9_10 1_555 1_555
N9_10 C5_10 1_555 1_555
O4_10 N3_10 1_555 1_555
N10_10 C6_10 1_555 1_555
Co5 N7_10 1_555 1_555
Co3_5 N10_10 1_555 1_555
Co3 N9_10 1_555 1_555
C2_10 N11_4 1_555 1_555
C9_10 N13_4 1_555 1_555
C13_10 N7_10 1_555 1_555
C17_10 N9_10 1_555 1_555
C7_10 H5_10 1_555 1_555
C10_10 C7_10 1_555 1_555
C12_10 C7_10 1_555 1_555
H8_10 C12_10 1_555 1_555
C18_10 H13_10 1_555 1_555
C19_10 C10_10 1_555 1_555
C20_10 C12_10 1_555 1_555
H14_10 C20_10 1_555 1_555
C18_10 C19_10 1_555 1_555
C18_10 C20_10 1_555 1_555
C1_11 H1_11 1_555 1_555
C2_11 N1_11 1_555 1_555
N1_11 O2_11 1_555 1_555
C5_11 N3_11 1_555 1_555
C6_11 H4_11 1_555 1_555
N3_11 O1_11 1_555 1_555
N11_2 C1_11 1_555 1_555
N12_2 C6_11 1_555 1_555
N13_2 C5_11 1_555 1_555
C13_11 C1_11 1_555 1_555
H9_11 C13_11 1_555 1_555
N7_11 C2_11 1_555 1_555
O3_11 N1_11 1_555 1_555
C17_11 C9_11 1_555 1_555
N9_11 C5_11 1_555 1_555
O4_11 N3_11 1_555 1_555
N10_11 C6_11 1_555 1_555
Co4_3 N7_11 1_555 1_555
Co3_3 N10_11 1_555 1_555
Co3_5 N9_11 1_555 1_555
C2_11 N11_2 1_555 1_555
C9_11 N13_2 1_555 1_555
C13_11 N7_11 1_555 1_555
C17_11 N9_11 1_555 1_555
C7_11 H5_11 1_555 1_555
C10_11 C7_11 1_555 1_555
C12_11 C7_11 1_555 1_555
H8_11 C12_11 1_555 1_555
C18_11 H13_11 1_555 1_555
C19_11 C10_11 1_555 1_555
C20_11 C12_11 1_555 1_555
H14_11 C20_11 1_555 1_555
C18_11 C19_11 1_555 1_555
C18_11 C20_11 1_555 1_555
C1_12 H1_12 1_555 1_555
C2_12 N1_12 1_555 1_555
N1_12 O2_12 1_555 1_555
C5_12 N3_12 1_555 1_555
C6_12 H4_12 1_555 1_555
N3_12 O1_12 1_555 1_555
N11_6 C1_12 1_555 1_555
N12_6 C6_12 1_555 1_555
N13_6 C5_12 1_555 1_555
C13_12 C1_12 1_555 1_555
H9_12 C13_12 1_555 1_555
N7_12 C2_12 1_555 1_555
O3_12 N1_12 1_555 1_555
C17_12 C9_12 1_555 1_555
N9_12 C5_12 1_555 1_555
O4_12 N3_12 1_555 1_555
N10_12 C6_12 1_555 1_555
Co4 N7_12 1_555 1_555
Co3 N10_12 1_555 1_555
Co3_3 N9_12 1_555 1_555
C2_12 N11_6 1_555 1_555
C9_12 N13_6 1_555 1_555
C13_12 N7_12 1_555 1_555
C17_12 N9_12 1_555 1_555
C7_12 H5_12 1_555 1_555
C10_12 C7_12 1_555 1_555
C12_12 C7_12 1_555 1_555
H8_12 C12_12 1_555 1_555
C18_12 H13_12 1_555 1_555
C19_12 C10_12 1_555 1_555
C20_12 C12_12 1_555 1_555
H14_12 C20_12 1_555 1_555
C18_12 C19_12 1_555 1_555
C18_12 C20_12 1_555 1_555
C3_16 H2_16 1_555 1_555
C4_7 H3_7 1_555 1_555
C8_7 C4_7 1_555 1_555
C11_7 C4_7 1_555 1_555
H7_7 C11_7 1_555 1_555
Co3_4 N2_7 1_555 1_555
N2_7 C3_16 1_555 1_555
C14_7 H10_7 1_555 1_555
C15_7 C8_7 1_555 1_555
C16_7 C11_7 1_555 1_555
H11_7 C16_7 1_555 1_555
N8_7 C3_16 1_555 1_555
Co5 N8_7 1_555 1_555
C8_7 N2_7 1_555 1_555
C14_7 C15_7 1_555 1_555
C14_7 C16_7 1_555 1_555
C15_7 N8_7 1_555 1_555
C3_17 H2_17 1_555 1_555
C3_18 H2_18 1_555 1_555
C14_8 H10_8 1_555 1_555
H11_8 C16_8 1_555 1_555
N8_8 C3_18 1_555 1_555
Co5_2 N8_8 1_555 1_555
C14_8 C15_8 1_555 1_555
C14_8 C16_8 1_555 1_555
C15_8 N8_8 1_555 1_555
C3_19 H2_19 1_555 1_555
C4_8 H3_8 1_555 1_555
C8_8 C4_8 1_555 1_555
C11_8 C4_8 1_555 1_555
H7_8 C11_8 1_555 1_555
Co3_5 N2_8 1_555 1_555
N2_8 C3_19 1_555 1_555
C8_8 N2_8 1_555 1_555
C3_20 H2_20 1_555 1_555
C3_21 H2_21 1_555 1_555
C14_9 H10_9 1_555 1_555
H11_9 C16_9 1_555 1_555
N8_9 C3_21 1_555 1_555
Co4 N8_9 1_555 1_555
C14_9 C15_9 1_555 1_555
C14_9 C16_9 1_555 1_555
C15_9 N8_9 1_555 1_555
C3_22 H2_22 1_555 1_555
C4_9 H3_9 1_555 1_555
C8_9 C4_9 1_555 1_555
C11_9 C4_9 1_555 1_555
H7_9 C11_9 1_555 1_555
Co3_6 N2_9 1_555 1_555
N2_9 C3_22 1_555 1_555
C8_9 N2_9 1_555 1_555
C3_23 H2_23 1_555 1_555
C4_10 H3_10 1_555 1_555
C8_10 C4_10 1_555 1_555
C11_10 C4_10 1_555 1_555
H7_10 C11_10 1_555 1_555
Co3 N2_10 1_555 1_555
N2_10 C3_23 1_555 1_555
C8_10 N2_10 1_555 1_555
C3_24 H2_24 1_555 1_555
C14_10 H10_10 1_555 1_555
H11_10 C16_10 1_555 1_555
N8_10 C3_24 1_555 1_555
Co4_2 N8_10 1_555 1_555
C14_10 C15_10 1_555 1_555
C14_10 C16_10 1_555 1_555
C15_10 N8_10 1_555 1_555
C3_25 H2_25 1_555 1_555
C4_11 H3_11 1_555 1_555
C8_11 C4_11 1_555 1_555
C11_11 C4_11 1_555 1_555
H7_11 C11_11 1_555 1_555
Co3_2 N2_11 1_555 1_555
N2_11 C3_25 1_555 1_555
C8_11 N2_11 1_555 1_555
C3_26 H2_26 1_555 1_555
C14_11 H10_11 1_555 1_555
H11_11 C16_11 1_555 1_555
N8_11 C3_26 1_555 1_555
Co4_3 N8_11 1_555 1_555
C14_11 C15_11 1_555 1_555
C14_11 C16_11 1_555 1_555
C15_11 N8_11 1_555 1_555
C3_27 H2_27 1_555 1_555
C4_12 H3_12 1_555 1_555
C8_12 C4_12 1_555 1_555
C11_12 C4_12 1_555 1_555
H7_12 C11_12 1_555 1_555
Co3_3 N2_12 1_555 1_555
N2_12 C3_27 1_555 1_555
C8_12 N2_12 1_555 1_555
C3_28 H2_28 1_555 1_555
C3_29 H2_29 1_555 1_555
C3_30 H2_30 1_555 1_555
C14_12 H10_12 1_555 1_555
H11_12 C16_12 1_555 1_555
N8_12 C3_30 1_555 1_555
Co4_4 N8_12 1_555 1_555
C14_12 C15_12 1_555 1_555
C14_12 C16_12 1_555 1_555
C15_12 N8_12 1_555 1_555

#END
