
###############################################################################
#
# This file contains modified crystal structure data generated from the
# MOF subset of the Cambridge Structural Database (CSD) v543 
# hosted by the Cambridge Crystallographic Data Centre (CCDC).
#
# This work is licensed under the Creative Commons
# Attribution-NonCommercial-ShareAlike 4.0 International License.
# To view a copy of this license, visit
# http://creativecommons.org/licenses/by-nc-sa/4.0/
# or send a letter to
# Creative Commons, PO Box 1866, Mountain View, CA 94042, USA.
#
# CIF created using the CSD Python API on 29 September 2022
# The structure has been converted into the P1 space group
# The structure has a 3D framework
# The original CSD entry RISBIG is in the orthorhombic crystal system
# The framework has been calculated to contain at least 10.0% void space
# The void calculation uses a probe of radius 1.32A, grid spacing 0.4
#
###############################################################################

data_RISBIG
_chemical_formula_moiety         '(C296 H224 N32 O32 Zn8)n'
_symmetry_cell_setting           triclinic
_symmetry_space_group_name_H-M   'P 1'
_symmetry_Int_Tables_number      1
_space_group_name_Hall           'P 1'
loop_
_symmetry_equiv_pos_site_id
_symmetry_equiv_pos_as_xyz
1 x,y,z
_cell_length_a                   12.0822(8)
_cell_length_b                   23.6760(16)
_cell_length_c                   29.4806(19)
_cell_angle_alpha                90
_cell_angle_beta                 90
_cell_angle_gamma                90
_cell_volume                     8433.17
loop_
_atom_site_label
_atom_site_type_symbol
_atom_site_fract_x
_atom_site_fract_y
_atom_site_fract_z
N4 N 0.1575(7) 0.2863(4) 0.1525(3)
C34 C 0.0743(8) 0.2800(4) 0.1239(3)
H25 H 0.0779 0.2990 0.0963
C36 C 0.1481(7) 0.2577(4) 0.1909(3)
H27 H 0.2057 0.2604 0.2117
C37 C 0.0590(6) 0.2241(4) 0.2021(3)
H28 H 0.0577 0.2052 0.2297
N2 N 0.0401(4) 0.1535(2) 0.03721(15)
N3 N 0.5908(4) 0.0856(2) 0.20976(17)
C7 C 0.3865(5) 0.1630(3) 0.13963(18)
H3 H 0.3756 0.1996 0.1291
C8 C 0.5855(4) 0.0472(3) 0.24664(19)
C9 C 0.8739(5) 0.1837(3) 0.1829(2)
C10 C 0.2168(4) 0.1324(2) 0.09716(18)
C11 C 0.3120(4) 0.1211(3) 0.12781(18)
C12 C 0.6896(5) 0.1169(3) 0.20156(19)
C13 C 0.4959(4) 0.0976(3) 0.18271(19)
C14 C 0.2181(5) 0.1769(3) 0.06670(19)
H4 H 0.2786 0.2012 0.0657
C15 C 0.1302(5) 0.1854(3) 0.0379(2)
H5 H 0.1342 0.2155 0.0176
C17 C 0.4940(5) 0.0454(3) 0.2746(2)
H7 H 0.4338 0.0687 0.2687
C18 C 0.4217(5) 0.0558(3) 0.1717(2)
H8 H 0.4324 0.0194 0.1827
C19 C 0.4913(5) 0.0092(2) 0.3112(2)
H9 H 0.4290 0.0085 0.3297
C20 C 0.4764(5) 0.1514(3) 0.16669(18)
H10 H 0.5250 0.1804 0.1743
C21 C 0.1226(5) 0.0992(3) 0.0967(2)
H11 H 0.1164 0.0691 0.1167
C22 C 0.8369(5) 0.1757(3) 0.2270(2)
H12 H 0.8748 0.1929 0.2507
C23 C 0.6729(5) 0.0113(3) 0.2553(2)
H13 H 0.7345 0.0115 0.2364
C24 C 0.3314(5) 0.0675(3) 0.1446(2)
H14 H 0.2823 0.0386 0.1375
C26 C 0.9722(5) 0.2188(3) 0.1725(2)
C27 C 0.8184(5) 0.1561(3) 0.1489(2)
H17 H 0.8425 0.1602 0.1191
C28 C 0.7453(5) 0.1430(3) 0.2365(2)
H18 H 0.7215 0.1386 0.2663
C31 C 0.0381(5) 0.1104(3) 0.0669(2)
C33 C 0.7287(5) 0.1229(3) 0.1576(2)
H24 H 0.6935 0.1042 0.1339
C35 C 0.9829(6) 0.2472(3) 0.1322(3)
H26 H 0.9277 0.2442 0.1103
N1 N 0.5867(4) 0.87155(19) 0.44100(15)
C2 C 0.6507(6) 0.8612(3) 0.4063(2)
H1 H 0.6988 0.8306 0.4081
C3 C 0.5172(6) 0.9137(3) 0.4365(2)
H2 H 0.4697 0.9217 0.4605
C4 C 0.5794(4) 0.9738(2) 0.32104(18)
C6 C 0.5802(4) 0.9373(2) 0.36193(18)
C16 C 0.6695(5) 0.9751(3) 0.2919(2)
H6 H 0.7289 0.9511 0.2972
C30 C 0.5105(6) 0.9466(3) 0.3984(2)
H21 H 0.4586 0.9756 0.3971
C32 C 0.6510(6) 0.8930(3) 0.3672(2)
H23 H 0.7002 0.8840 0.3440
Zn2 Zn 0.59673(6) 0.82243(3) 0.49884(2)
O1 O 0.0933(4) 0.76309(19) 0.48078(18)
C1 C 0.0404(6) 0.7805(3) 0.5129(3)
C29 C 0.0112(5) 0.8439(3) 0.5137(3)
H19 H 0.0738 0.8647 0.5259
O4 O 0.0109(4) 0.75097(19) 0.54231(17)
Zn3 Zn 0.09673(6) 0.67757(3) 0.50116(2)
O2 O 0.8003(4) 0.81213(19) 0.48437(16)
N2_2 N 0.4599(4) 0.8465(2) 0.53721(15)
O3 O 0.7133(4) 0.8591(2) 0.53776(14)
C5 C 0.8022(5) 0.8419(3) 0.5193(2)
C7_2 C 0.1135(5) 0.8370(3) 0.63963(18)
H3_2 H 0.1244 0.8004 0.6291
C10_2 C 0.2832(4) 0.8676(2) 0.59716(18)
C11_2 C 0.1880(4) 0.8789(3) 0.62781(18)
C13_2 C 0.0041(4) 0.9024(3) 0.68271(19)
C14_2 C 0.2819(5) 0.8231(3) 0.56670(19)
H4_2 H 0.2214 0.7988 0.5657
C15_2 C 0.3698(5) 0.8146(3) 0.5379(2)
H5_2 H 0.3658 0.7845 0.5176
C17_2 C 0.0060(5) 0.9546(3) 0.7746(2)
H7_2 H 0.0662 0.9313 0.7687
C18_2 C 0.0783(5) 0.9442(3) 0.6717(2)
H8_2 H 0.0676 0.9806 0.6827
C19_2 C 0.0087(5) 0.9908(2) 0.8112(2)
H9_2 H 0.0710 0.9915 0.8297
C20_2 C 0.0236(5) 0.8486(3) 0.66669(18)
C21_2 C 0.3774(5) 0.9008(3) 0.5967(2)
H11_2 H 0.3836 0.9309 0.6167
C24_2 C 0.1686(5) 0.9325(3) 0.6446(2)
H14_2 H 0.2177 0.9614 0.6375
C25 C 0.9102(5) 0.8583(3) 0.5410(2)
H15 H 0.9095 0.8987 0.5465
H16 H 0.9156 0.8397 0.5702
H20 H 0.9999 0.8566 0.4827
C31_2 C 0.4619(5) 0.8896(3) 0.5669(2)
H22 H 0.5237 0.9130 0.5672
O5 O 0.5933(4) 0.73691(19) 0.51922(18)
O6 O 0.5109(4) 0.74903(19) 0.45769(17)
O2_2 O 0.3003(4) 0.68787(19) 0.51563(16)
C1_2 C 0.5404(6) 0.7195(3) 0.4871(3)
O3_2 O 0.2133(4) 0.6409(2) 0.46224(14)
C5_2 C 0.3022(5) 0.6581(3) 0.4807(2)
C25_2 C 0.4102(5) 0.6417(3) 0.4590(2)
H15_2 H 0.4095 0.6013 0.4535
H16_2 H 0.4156 0.6603 0.4298
C29_2 C 0.5112(5) 0.6561(3) 0.4863(3)
H19_2 H 0.5738 0.6353 0.4741
H20_2 H 0.4999 0.6434 0.5173
H22_2 H 0.0237 0.5870 0.4328
N5 N 0.0867(4) 0.62845(19) 0.55900(15)
C2_2 C 0.1507(6) 0.6388(3) 0.5937(2)
H1_2 H 0.1988 0.6694 0.5919
C3_2 C 0.0172(6) 0.5863(3) 0.5635(2)
C4_2 C 0.0794(4) 0.5262(2) 0.67896(18)
N3_2 N 0.0908(4) 0.4144(2) 0.79024(17)
C6_2 C 0.0802(4) 0.5627(2) 0.63807(18)
C8_2 C 0.0855(4) 0.4528(3) 0.75336(19)
C9_2 C 0.3739(5) 0.3163(3) 0.8171(2)
C12_2 C 0.1896(5) 0.3831(3) 0.79844(19)
C16_2 C 0.1695(5) 0.5249(3) 0.7081(2)
H6_2 H 0.2289 0.5489 0.7028
H10_2 H 0.0250 0.3196 0.8257
C22_2 C 0.3369(5) 0.3243(3) 0.7730(2)
H12_2 H 0.3748 0.3071 0.7493
C23_2 C 0.1729(5) 0.4887(3) 0.7447(2)
H13_2 H 0.2345 0.4885 0.7636
C26_2 C 0.4722(5) 0.2812(3) 0.8275(2)
C27_2 C 0.3184(5) 0.3439(3) 0.8511(2)
H17_2 H 0.3425 0.3398 0.8809
C28_2 C 0.2453(5) 0.3570(3) 0.7635(2)
H18_2 H 0.2215 0.3614 0.7337
C30_2 C 0.0105(6) 0.5534(3) 0.6016(2)
C32_2 C 0.1510(6) 0.6070(3) 0.6328(2)
H23_2 H 0.2002 0.6160 0.6560
C33_2 C 0.2287(5) 0.3771(3) 0.8424(2)
H24_2 H 0.1935 0.3958 0.8661
N4_2 N 0.6575(7) 0.2137(4) 0.8475(3)
C34_2 C 0.5743(8) 0.2200(4) 0.8761(3)
H25_2 H 0.5779 0.2010 0.9037
C35_2 C 0.4829(6) 0.2528(3) 0.8678(3)
H26_2 H 0.4277 0.2558 0.8897
C36_2 C 0.6481(7) 0.2423(4) 0.8091(3)
H27_2 H 0.7057 0.2396 0.7883
C37_2 C 0.5590(6) 0.2759(4) 0.7979(3)
H28_2 H 0.5577 0.2948 0.7703
C1_3 C 0.4596(6) 0.2195(3) 0.0129(3)
O3_3 O 0.7867(4) 0.1409(2) 0.03776(14)
C5_3 C 0.6978(5) 0.1581(3) 0.0193(2)
C25_3 C 0.5898(5) 0.1417(3) 0.0410(2)
H15_3 H 0.5905 0.1013 0.0465
H16_3 H 0.5844 0.1603 0.0702
C29_3 C 0.4888(5) 0.1561(3) 0.0137(3)
H19_3 H 0.4262 0.1353 0.0259
H22_3 H 0.9763 0.0870 0.0672
O4_2 O 0.4891(4) 0.24903(19) 0.04231(17)
O5_2 O 0.9067(4) 0.26309(19) 0.01922(18)
Zn3_2 Zn 0.40327(6) 0.32243(3) 0.00116(2)
N1_2 N 0.4133(4) 0.37155(19) 0.05900(15)
C2_3 C 0.3493(6) 0.3612(3) 0.0937(2)
H1_3 H 0.3012 0.3306 0.0919
C3_3 C 0.4828(6) 0.4137(3) 0.0635(2)
H2_2 H 0.5303 0.4217 0.0395
N2_3 N 0.9599(4) 0.6535(2) 0.46279(15)
C4_3 C 0.4206(4) 0.4738(2) 0.17896(18)
N3_3 N 0.4092(4) 0.5856(2) 0.29024(17)
C6_3 C 0.4198(4) 0.4373(2) 0.13807(18)
C7_3 C 0.6135(5) 0.6630(3) 0.36037(18)
H3_3 H 0.6244 0.6996 0.3709
C8_3 C 0.4145(4) 0.5472(3) 0.25336(19)
C9_3 C 0.1261(5) 0.6837(3) 0.3171(2)
C10_3 C 0.7832(4) 0.6324(2) 0.40284(18)
C11_3 C 0.6880(4) 0.6211(3) 0.37219(18)
C12_3 C 0.3104(5) 0.6169(3) 0.29844(19)
C13_3 C 0.5041(4) 0.5976(3) 0.31729(19)
C14_3 C 0.7819(5) 0.6769(3) 0.43330(19)
H4_3 H 0.7214 0.7012 0.4343
C15_3 C 0.8698(5) 0.6854(3) 0.4621(2)
H5_3 H 0.8658 0.7155 0.4824
C16_3 C 0.3305(5) 0.4751(3) 0.2081(2)
H6_3 H 0.2711 0.4511 0.2028
C17_3 C 0.5060(5) 0.5454(3) 0.2254(2)
H7_3 H 0.5662 0.5687 0.2313
C18_3 C 0.5783(5) 0.5558(3) 0.3283(2)
H8_3 H 0.5676 0.5194 0.3173
C19_3 C 0.5087(5) 0.5092(2) 0.1888(2)
H9_3 H 0.5710 0.5085 0.1703
C20_3 C 0.5236(5) 0.6514(3) 0.33331(18)
H10_3 H 0.4750 0.6804 0.3257
C21_3 C 0.8774(5) 0.5992(3) 0.4033(2)
H11_3 H 0.8836 0.5691 0.3833
C22_3 C 0.1631(5) 0.6757(3) 0.2730(2)
H12_3 H 0.1252 0.6929 0.2493
C23_3 C 0.3271(5) 0.5113(3) 0.2447(2)
H13_3 H 0.2655 0.5115 0.2636
C24_3 C 0.6686(5) 0.5675(3) 0.3554(2)
H14_3 H 0.7177 0.5386 0.3625
C26_3 C 0.0278(5) 0.7188(3) 0.3275(2)
C27_3 C 0.1816(5) 0.6561(3) 0.3511(2)
H17_3 H 0.1575 0.6602 0.3809
C28_3 C 0.2547(5) 0.6430(3) 0.2635(2)
H18_3 H 0.2785 0.6386 0.2337
C30_3 C 0.4895(6) 0.4466(3) 0.1016(2)
H21_2 H 0.5414 0.4756 0.1029
C31_3 C 0.9619(5) 0.6104(3) 0.4331(2)
C32_3 C 0.3490(6) 0.3930(3) 0.1328(2)
H23_3 H 0.2998 0.3840 0.1560
C33_3 C 0.2713(5) 0.6229(3) 0.3424(2)
H24_3 H 0.3065 0.6042 0.3661
C35_3 C 0.0171(6) 0.7472(3) 0.3678(3)
H26_3 H 0.0723 0.7442 0.3897
O2_3 O 0.1997(4) 0.31213(19) 0.01563(16)
H20_3 H 0.0001 0.3566 0.0173
O1_2 O 0.4067(4) 0.23691(19) 0.98078(18)
O2_4 O 0.6997(4) 0.18787(19) 0.98437(16)
Zn1 Zn 0.90327(6) 0.17757(3) 0.99884(2)
H20_4 H 0.5001 0.1434 0.9827
N5_2 N 0.9133(4) 0.12845(19) 0.94100(15)
O6_2 O 0.9891(4) 0.25097(19) 0.95769(17)
C2_4 C 0.8493(6) 0.1388(3) 0.9063(2)
H1_4 H 0.8012 0.1694 0.9081
C3_4 C 0.9828(6) 0.0863(3) 0.9365(2)
C4_4 C 0.9206(4) 0.0262(2) 0.82104(18)
C6_4 C 0.9198(4) 0.0627(2) 0.86193(18)
C16_4 C 0.8305(5) 0.0249(3) 0.7919(2)
H6_4 H 0.7711 0.0489 0.7972
C30_4 C 0.9895(6) 0.0534(3) 0.8984(2)
C32_4 C 0.8490(6) 0.1070(3) 0.8672(2)
H23_4 H 0.7998 0.1160 0.8440
H2_3 H 0.9697 0.5783 0.5395
N2_4 N 0.5401(4) 0.3465(2) 0.96279(15)
O3_4 O 0.2867(4) 0.3591(2) 0.96224(14)
C5_4 C 0.1978(5) 0.3419(3) 0.9807(2)
C7_4 C 0.8865(5) 0.3370(3) 0.86037(18)
H3_4 H 0.8756 0.3004 0.8709
C10_4 C 0.7168(4) 0.3676(2) 0.90284(18)
C11_4 C 0.8120(4) 0.3789(3) 0.87219(18)
C13_4 C 0.9959(4) 0.4024(3) 0.81729(19)
C14_4 C 0.7181(5) 0.3231(3) 0.93330(19)
H4_4 H 0.7786 0.2988 0.9343
C15_4 C 0.6302(5) 0.3146(3) 0.9621(2)
H5_4 H 0.6342 0.2845 0.9824
C17_4 C 0.9940(5) 0.4546(3) 0.7254(2)
H7_4 H 0.9338 0.4313 0.7313
C18_4 C 0.9217(5) 0.4442(3) 0.8283(2)
H8_4 H 0.9324 0.4806 0.8173
C19_4 C 0.9913(5) 0.4908(2) 0.6888(2)
H9_4 H 0.9290 0.4915 0.6703
C20_4 C 0.9764(5) 0.3486(3) 0.83331(18)
C21_4 C 0.6226(5) 0.4008(3) 0.9033(2)
H11_4 H 0.6164 0.4309 0.8833
C24_4 C 0.8314(5) 0.4325(3) 0.8554(2)
H14_4 H 0.7823 0.4614 0.8625
C25_4 C 0.0898(5) 0.3583(3) 0.9590(2)
H15_4 H 0.0905 0.3987 0.9535
H16_4 H 0.0844 0.3397 0.9298
H21_3 H 0.9586 0.5244 0.6029
C31_4 C 0.5381(5) 0.3896(3) 0.9331(2)
H22_4 H 0.4763 0.4130 0.9328
C1_4 C 0.9596(6) 0.2805(3) 0.9871(3)
C29_4 C 0.9888(5) 0.3439(3) 0.9863(3)
H19_4 H 0.9262 0.3647 0.9741
H2_4 H 0.0303 0.0783 0.9605
H21_4 H 0.0414 0.0244 0.8971
N3_4 N 0.9092(4) 0.9144(2) 0.70976(17)
C8_4 C 0.9145(4) 0.9528(3) 0.74664(19)
C9_4 C 0.6261(5) 0.8163(3) 0.6829(2)
C12_4 C 0.8104(5) 0.8831(3) 0.70156(19)
H10_4 H 0.9750 0.8196 0.6743
C22_4 C 0.6631(5) 0.8243(3) 0.7270(2)
H12_4 H 0.6252 0.8071 0.7507
C23_4 C 0.8271(5) 0.9887(3) 0.7553(2)
H13_4 H 0.7655 0.9885 0.7364
C26_4 C 0.5278(5) 0.7812(3) 0.6725(2)
C27_4 C 0.6816(5) 0.8439(3) 0.6489(2)
H17_4 H 0.6575 0.8398 0.6191
C28_4 C 0.7547(5) 0.8570(3) 0.7365(2)
H18_4 H 0.7785 0.8614 0.7663
C33_4 C 0.7713(5) 0.8771(3) 0.6576(2)
H24_4 H 0.8065 0.8958 0.6339
N4_3 N 0.3425(7) 0.7137(4) 0.6525(3)
C34_3 C 0.4257(8) 0.7200(4) 0.6239(3)
H25_3 H 0.4221 0.7010 0.5963
C35_4 C 0.5171(6) 0.7528(3) 0.6322(3)
H26_4 H 0.5723 0.7558 0.6103
C36_3 C 0.3519(7) 0.7423(4) 0.6909(3)
H27_3 H 0.2943 0.7396 0.7117
C37_3 C 0.4410(6) 0.7759(4) 0.7021(3)
H28_3 H 0.4423 0.7948 0.7297
N4_4 N 0.8425(7) 0.7863(4) 0.3475(3)
C34_4 C 0.9257(8) 0.7800(4) 0.3761(3)
H25_4 H 0.9221 0.7990 0.4037
C36_4 C 0.8519(7) 0.7577(4) 0.3091(3)
H27_4 H 0.7943 0.7604 0.2883
C37_4 C 0.9410(6) 0.7241(4) 0.2979(3)
H28_4 H 0.9423 0.7052 0.2703
O1_3 O 0.5933(4) 0.76309(19) 0.01922(18)
O2_5 O 0.3003(4) 0.81213(19) 0.01563(16)
Zn1_2 Zn 0.09673(6) 0.82243(3) 0.00116(2)
H20_5 H 0.4999 0.8566 0.0173
N5_3 N 0.0867(4) 0.87155(19) 0.05900(15)
O6_3 O 0.0109(4) 0.74903(19) 0.04231(17)
C2_5 C 0.1507(6) 0.8612(3) 0.0937(2)
H1_5 H 0.1988 0.8306 0.0919
C3_5 C 0.0172(6) 0.9137(3) 0.0635(2)
C4_5 C 0.0794(4) 0.9738(2) 0.17896(18)
C6_5 C 0.0802(4) 0.9373(2) 0.13807(18)
C16_5 C 0.1695(5) 0.9751(3) 0.2081(2)
H6_5 H 0.2289 0.9511 0.2028
C30_5 C 0.0105(6) 0.9466(3) 0.1016(2)
C32_5 C 0.1510(6) 0.8930(3) 0.1328(2)
H23_5 H 0.2002 0.8840 0.1560
C1_5 C 0.0404(6) 0.7195(3) 0.0129(3)
C29_5 C 0.0112(5) 0.6561(3) 0.0137(3)
H19_5 H 0.0738 0.6353 0.0259
H2_5 H 0.0303 0.4217 0.4605
N2_5 N 0.4599(4) 0.6535(2) 0.03721(15)
O3_5 O 0.7133(4) 0.6409(2) 0.03776(14)
C5_5 C 0.8022(5) 0.6581(3) 0.0193(2)
C7_5 C 0.1135(5) 0.6630(3) 0.13963(18)
H3_5 H 0.1244 0.6996 0.1291
C10_5 C 0.2832(4) 0.6324(2) 0.09716(18)
C11_5 C 0.1880(4) 0.6211(3) 0.12781(18)
C13_5 C 0.0041(4) 0.5976(3) 0.18271(19)
C14_5 C 0.2819(5) 0.6769(3) 0.06670(19)
H4_5 H 0.2214 0.7012 0.0657
C15_5 C 0.3698(5) 0.6854(3) 0.0379(2)
H5_5 H 0.3658 0.7155 0.0176
C17_5 C 0.0060(5) 0.5454(3) 0.2746(2)
H7_5 H 0.0662 0.5687 0.2687
C18_5 C 0.0783(5) 0.5558(3) 0.1717(2)
H8_5 H 0.0676 0.5194 0.1827
C19_5 C 0.0087(5) 0.5092(2) 0.3112(2)
H9_5 H 0.0710 0.5085 0.3297
C20_5 C 0.0236(5) 0.6514(3) 0.16669(18)
C21_5 C 0.3774(5) 0.5992(3) 0.0967(2)
H11_5 H 0.3836 0.5691 0.1167
C24_5 C 0.1686(5) 0.5675(3) 0.1446(2)
H14_5 H 0.2177 0.5386 0.1375
C25_5 C 0.9102(5) 0.6417(3) 0.0410(2)
H15_5 H 0.9095 0.6013 0.0465
H16_5 H 0.9156 0.6603 0.0702
H21_5 H 0.0414 0.4756 0.3971
C31_5 C 0.4619(5) 0.6104(3) 0.0669(2)
H22_5 H 0.5237 0.5870 0.0672
C1_6 C 0.5404(6) 0.7805(3) 0.9871(3)
O3_6 O 0.2133(4) 0.8591(2) 0.96224(14)
C5_6 C 0.3022(5) 0.8419(3) 0.9807(2)
C25_6 C 0.4102(5) 0.8583(3) 0.9590(2)
H15_6 H 0.4095 0.8987 0.9535
H16_6 H 0.4156 0.8397 0.9298
C29_6 C 0.5112(5) 0.8439(3) 0.9863(3)
H19_6 H 0.5738 0.8647 0.9741
H22_6 H 0.0237 0.9130 0.9328
O4_3 O 0.5109(4) 0.75097(19) 0.95769(17)
O5_3 O 0.0933(4) 0.73691(19) 0.98078(18)
Zn3_3 Zn 0.59673(6) 0.67757(3) 0.99884(2)
N1_3 N 0.5867(4) 0.62845(19) 0.94100(15)
C2_6 C 0.6507(6) 0.6388(3) 0.9063(2)
H1_6 H 0.6988 0.6694 0.9081
C3_6 C 0.5172(6) 0.5863(3) 0.9365(2)
H2_6 H 0.4697 0.5783 0.9605
N2_6 N 0.0401(4) 0.3465(2) 0.53721(15)
C4_6 C 0.5794(4) 0.5262(2) 0.82104(18)
N3_5 N 0.5908(4) 0.4144(2) 0.70976(17)
C6_6 C 0.5802(4) 0.5627(2) 0.86193(18)
C7_6 C 0.3865(5) 0.3370(3) 0.63963(18)
H3_6 H 0.3756 0.3004 0.6291
C8_5 C 0.5855(4) 0.4528(3) 0.74664(19)
C9_5 C 0.8739(5) 0.3163(3) 0.6829(2)
C10_6 C 0.2168(4) 0.3676(2) 0.59716(18)
C11_6 C 0.3120(4) 0.3789(3) 0.62781(18)
C12_5 C 0.6896(5) 0.3831(3) 0.70156(19)
C13_6 C 0.4959(4) 0.4024(3) 0.68271(19)
C14_6 C 0.2181(5) 0.3231(3) 0.56670(19)
H4_6 H 0.2786 0.2988 0.5657
C15_6 C 0.1302(5) 0.3146(3) 0.5379(2)
H5_6 H 0.1342 0.2845 0.5176
C16_6 C 0.6695(5) 0.5249(3) 0.7919(2)
H6_6 H 0.7289 0.5489 0.7972
C17_6 C 0.4940(5) 0.4546(3) 0.7746(2)
H7_6 H 0.4338 0.4313 0.7687
C18_6 C 0.4217(5) 0.4442(3) 0.6717(2)
H8_6 H 0.4324 0.4806 0.6827
C19_6 C 0.4913(5) 0.4908(2) 0.8112(2)
H9_6 H 0.4290 0.4915 0.8297
C20_6 C 0.4764(5) 0.3486(3) 0.66669(18)
H10_5 H 0.5250 0.3196 0.6743
C21_6 C 0.1226(5) 0.4008(3) 0.5967(2)
H11_6 H 0.1164 0.4309 0.6167
C22_5 C 0.8369(5) 0.3243(3) 0.7270(2)
H12_5 H 0.8748 0.3071 0.7507
C23_5 C 0.6729(5) 0.4887(3) 0.7553(2)
H13_5 H 0.7345 0.4885 0.7364
C24_6 C 0.3314(5) 0.4325(3) 0.6446(2)
H14_6 H 0.2823 0.4614 0.6375
C26_5 C 0.9722(5) 0.2812(3) 0.6725(2)
C27_5 C 0.8184(5) 0.3439(3) 0.6489(2)
H17_5 H 0.8425 0.3398 0.6191
C28_5 C 0.7453(5) 0.3570(3) 0.7365(2)
H18_5 H 0.7215 0.3614 0.7663
C30_6 C 0.5105(6) 0.5534(3) 0.8984(2)
H21_6 H 0.4586 0.5244 0.8971
C31_6 C 0.0381(5) 0.3896(3) 0.5669(2)
C32_6 C 0.6510(6) 0.6070(3) 0.8672(2)
H23_6 H 0.7002 0.6160 0.8440
C33_5 C 0.7287(5) 0.3771(3) 0.6576(2)
H24_5 H 0.6935 0.3958 0.6339
C35_5 C 0.9829(6) 0.2528(3) 0.6322(3)
H26_5 H 0.9277 0.2558 0.6103
O2_6 O 0.8003(4) 0.68787(19) 0.98437(16)
H20_6 H 0.9999 0.6434 0.9827
N1_4 N 0.4133(4) 0.12845(19) 0.55900(15)
C2_7 C 0.3493(6) 0.1388(3) 0.5937(2)
H1_7 H 0.3012 0.1694 0.5919
C3_7 C 0.4828(6) 0.0863(3) 0.5635(2)
H2_7 H 0.5303 0.0783 0.5395
C4_7 C 0.4206(4) 0.0262(2) 0.67896(18)
C6_7 C 0.4198(4) 0.0627(2) 0.63807(18)
C16_7 C 0.3305(5) 0.0249(3) 0.7081(2)
H6_7 H 0.2711 0.0489 0.7028
C30_7 C 0.4895(6) 0.0534(3) 0.6016(2)
H21_7 H 0.5414 0.0244 0.6029
C32_7 C 0.3490(6) 0.1070(3) 0.6328(2)
H23_7 H 0.2998 0.1160 0.6560
Zn2_2 Zn 0.40327(6) 0.17757(3) 0.50116(2)
O2_7 O 0.1997(4) 0.18787(19) 0.51563(16)
N2_7 N 0.5401(4) 0.1535(2) 0.46279(15)
O3_7 O 0.2867(4) 0.1409(2) 0.46224(14)
C5_7 C 0.1978(5) 0.1581(3) 0.4807(2)
C7_7 C 0.8865(5) 0.1630(3) 0.36037(18)
H3_7 H 0.8756 0.1996 0.3709
C10_7 C 0.7168(4) 0.1324(2) 0.40284(18)
C11_7 C 0.8120(4) 0.1211(3) 0.37219(18)
C13_7 C 0.9959(4) 0.0976(3) 0.31729(19)
C14_7 C 0.7181(5) 0.1769(3) 0.43330(19)
H4_7 H 0.7786 0.2012 0.4343
C15_7 C 0.6302(5) 0.1854(3) 0.4621(2)
H5_7 H 0.6342 0.2155 0.4824
C17_7 C 0.9940(5) 0.0454(3) 0.2254(2)
H7_7 H 0.9338 0.0687 0.2313
C18_7 C 0.9217(5) 0.0558(3) 0.3283(2)
H8_7 H 0.9324 0.0194 0.3173
C19_7 C 0.9913(5) 0.0092(2) 0.1888(2)
H9_7 H 0.9290 0.0085 0.1703
C20_7 C 0.9764(5) 0.1514(3) 0.33331(18)
C21_7 C 0.6226(5) 0.0992(3) 0.4033(2)
H11_7 H 0.6164 0.0691 0.3833
C24_7 C 0.8314(5) 0.0675(3) 0.3554(2)
H14_7 H 0.7823 0.0386 0.3625
C25_7 C 0.0898(5) 0.1417(3) 0.4590(2)
H15_7 H 0.0905 0.1013 0.4535
H16_7 H 0.0844 0.1603 0.4298
H20_7 H 0.0001 0.1434 0.5173
C31_7 C 0.5381(5) 0.1104(3) 0.4331(2)
H22_7 H 0.4763 0.0870 0.4328
O5_4 O 0.4067(4) 0.26309(19) 0.48078(18)
O6_4 O 0.4891(4) 0.25097(19) 0.54231(17)
O1_4 O 0.9067(4) 0.23691(19) 0.51922(18)
C1_7 C 0.9596(6) 0.2195(3) 0.4871(3)
C29_7 C 0.9888(5) 0.1561(3) 0.4863(3)
H19_7 H 0.9262 0.1353 0.4741
O4_4 O 0.9891(4) 0.24903(19) 0.45769(17)
Zn3_4 Zn 0.90327(6) 0.32243(3) 0.49884(2)
O2_8 O 0.6997(4) 0.31213(19) 0.48437(16)
C1_8 C 0.4596(6) 0.2805(3) 0.5129(3)
O3_8 O 0.7867(4) 0.3591(2) 0.53776(14)
C5_8 C 0.6978(5) 0.3419(3) 0.5193(2)
C25_8 C 0.5898(5) 0.3583(3) 0.5410(2)
H15_8 H 0.5905 0.3987 0.5465
H16_8 H 0.5844 0.3397 0.5702
C29_8 C 0.4888(5) 0.3439(3) 0.5137(3)
H19_8 H 0.4262 0.3647 0.5259
H20_8 H 0.5001 0.3566 0.4827
H22_8 H 0.9763 0.4130 0.5672
N5_4 N 0.9133(4) 0.37155(19) 0.44100(15)
C2_8 C 0.8493(6) 0.3612(3) 0.4063(2)
H1_8 H 0.8012 0.3306 0.4081
C3_8 C 0.9828(6) 0.4137(3) 0.4365(2)
C4_8 C 0.9206(4) 0.4738(2) 0.32104(18)
N3_6 N 0.9092(4) 0.5856(2) 0.20976(17)
C6_8 C 0.9198(4) 0.4373(2) 0.36193(18)
C8_6 C 0.9145(4) 0.5472(3) 0.24664(19)
C9_6 C 0.6261(5) 0.6837(3) 0.1829(2)
C12_6 C 0.8104(5) 0.6169(3) 0.20156(19)
C16_8 C 0.8305(5) 0.4751(3) 0.2919(2)
H6_8 H 0.7711 0.4511 0.2972
H10_6 H 0.9750 0.6804 0.1743
C22_6 C 0.6631(5) 0.6757(3) 0.2270(2)
H12_6 H 0.6252 0.6929 0.2507
C23_6 C 0.8271(5) 0.5113(3) 0.2553(2)
H13_6 H 0.7655 0.5115 0.2364
C26_6 C 0.5278(5) 0.7188(3) 0.1725(2)
C27_6 C 0.6816(5) 0.6561(3) 0.1489(2)
H17_6 H 0.6575 0.6602 0.1191
C28_6 C 0.7547(5) 0.6430(3) 0.2365(2)
H18_6 H 0.7785 0.6386 0.2663
C30_8 C 0.9895(6) 0.4466(3) 0.3984(2)
C32_8 C 0.8490(6) 0.3930(3) 0.3672(2)
H23_8 H 0.7998 0.3840 0.3440
C33_6 C 0.7713(5) 0.6229(3) 0.1576(2)
H24_6 H 0.8065 0.6042 0.1339
N4_5 N 0.3425(7) 0.7863(4) 0.1525(3)
C34_5 C 0.4257(8) 0.7800(4) 0.1239(3)
H25_5 H 0.4221 0.7990 0.0963
C35_6 C 0.5171(6) 0.7472(3) 0.1322(3)
H26_6 H 0.5723 0.7442 0.1103
C36_5 C 0.3519(7) 0.7577(4) 0.1909(3)
H27_5 H 0.2943 0.7604 0.2117
C37_5 C 0.4410(6) 0.7241(4) 0.2021(3)
H28_5 H 0.4423 0.7052 0.2297
N2_8 N 0.9599(4) 0.8465(2) 0.96279(15)
N3_7 N 0.4092(4) 0.9144(2) 0.79024(17)
C7_8 C 0.6135(5) 0.8370(3) 0.86037(18)
H3_8 H 0.6244 0.8004 0.8709
C8_7 C 0.4145(4) 0.9528(3) 0.75336(19)
C9_7 C 0.1261(5) 0.8163(3) 0.8171(2)
C10_8 C 0.7832(4) 0.8676(2) 0.90284(18)
C11_8 C 0.6880(4) 0.8789(3) 0.87219(18)
C12_7 C 0.3104(5) 0.8831(3) 0.79844(19)
C13_8 C 0.5041(4) 0.9024(3) 0.81729(19)
C14_8 C 0.7819(5) 0.8231(3) 0.93330(19)
H4_8 H 0.7214 0.7988 0.9343
C15_8 C 0.8698(5) 0.8146(3) 0.9621(2)
H5_8 H 0.8658 0.7845 0.9824
C17_8 C 0.5060(5) 0.9546(3) 0.7254(2)
H7_8 H 0.5662 0.9313 0.7313
C18_8 C 0.5783(5) 0.9442(3) 0.8283(2)
H8_8 H 0.5676 0.9806 0.8173
C19_8 C 0.5087(5) 0.9908(2) 0.6888(2)
H9_8 H 0.5710 0.9915 0.6703
C20_8 C 0.5236(5) 0.8486(3) 0.83331(18)
H10_7 H 0.4750 0.8196 0.8257
C21_8 C 0.8774(5) 0.9008(3) 0.9033(2)
H11_8 H 0.8836 0.9309 0.8833
C22_7 C 0.1631(5) 0.8243(3) 0.7730(2)
H12_7 H 0.1252 0.8071 0.7493
C23_7 C 0.3271(5) 0.9887(3) 0.7447(2)
H13_7 H 0.2655 0.9885 0.7636
C24_8 C 0.6686(5) 0.9325(3) 0.8554(2)
H14_8 H 0.7177 0.9614 0.8625
C26_7 C 0.0278(5) 0.7812(3) 0.8275(2)
C27_7 C 0.1816(5) 0.8439(3) 0.8511(2)
H17_7 H 0.1575 0.8398 0.8809
C28_7 C 0.2547(5) 0.8570(3) 0.7635(2)
H18_7 H 0.2785 0.8614 0.7337
C31_8 C 0.9619(5) 0.8896(3) 0.9331(2)
C33_7 C 0.2713(5) 0.8771(3) 0.8424(2)
H24_7 H 0.3065 0.8958 0.8661
C35_7 C 0.0171(6) 0.7528(3) 0.8678(3)
H26_7 H 0.0723 0.7558 0.8897
N4_6 N 0.8425(7) 0.7137(4) 0.8475(3)
C34_6 C 0.9257(8) 0.7200(4) 0.8761(3)
H25_6 H 0.9221 0.7010 0.9037
C36_6 C 0.8519(7) 0.7423(4) 0.8091(3)
H27_6 H 0.7943 0.7396 0.7883
C37_6 C 0.9410(6) 0.7759(4) 0.7979(3)
H28_6 H 0.9423 0.7948 0.7703
N3_8 N 0.0908(4) 0.0856(2) 0.29024(17)
C8_8 C 0.0855(4) 0.0472(3) 0.25336(19)
C9_8 C 0.3739(5) 0.1837(3) 0.3171(2)
C12_8 C 0.1896(5) 0.1169(3) 0.29844(19)
H10_8 H 0.0250 0.1804 0.3257
C22_8 C 0.3369(5) 0.1757(3) 0.2730(2)
H12_8 H 0.3748 0.1929 0.2493
C23_8 C 0.1729(5) 0.0113(3) 0.2447(2)
H13_8 H 0.2345 0.0115 0.2636
C26_8 C 0.4722(5) 0.2188(3) 0.3275(2)
C27_8 C 0.3184(5) 0.1561(3) 0.3511(2)
H17_8 H 0.3425 0.1602 0.3809
C28_8 C 0.2453(5) 0.1430(3) 0.2635(2)
H18_8 H 0.2215 0.1386 0.2337
C33_8 C 0.2287(5) 0.1229(3) 0.3424(2)
H24_8 H 0.1935 0.1042 0.3661
N4_7 N 0.6575(7) 0.2863(4) 0.3475(3)
C34_7 C 0.5743(8) 0.2800(4) 0.3761(3)
H25_7 H 0.5779 0.2990 0.4037
C35_8 C 0.4829(6) 0.2472(3) 0.3678(3)
H26_8 H 0.4277 0.2442 0.3897
C36_7 C 0.6481(7) 0.2577(4) 0.3091(3)
H27_7 H 0.7057 0.2604 0.2883
C37_7 C 0.5590(6) 0.2241(4) 0.2979(3)
H28_7 H 0.5577 0.2052 0.2703
H2_8 H 0.9697 0.9217 0.0395
H21_8 H 0.9586 0.9756 0.1029
N4_8 N 0.1575(7) 0.2137(4) 0.6525(3)
C34_8 C 0.0743(8) 0.2200(4) 0.6239(3)
H25_8 H 0.0779 0.2010 0.5963
C36_8 C 0.1481(7) 0.2423(4) 0.6909(3)
H27_8 H 0.2057 0.2396 0.7117
C37_8 C 0.0590(6) 0.2759(4) 0.7021(3)
H28_8 H 0.0577 0.2948 0.7297
loop_
_geom_bond_atom_site_label_1
_geom_bond_atom_site_label_2
_geom_bond_site_symmetry_1
_geom_bond_site_symmetry_2
N4 C34 1_555 1_555
C34 H25 1_555 1_555
C36 N4 1_555 1_555
H27 C36 1_555 1_555
H28 C37 1_555 1_555
C36 C37 1_555 1_555
N2 C15 1_555 1_555
N3 C8 1_555 1_555
C7 H3 1_555 1_555
C8 C17 1_555 1_555
C9 C22 1_555 1_555
C10 C11 1_555 1_555
C11 C7 1_555 1_555
C12 N3 1_555 1_555
C13 N3 1_555 1_555
C14 C10 1_555 1_555
H4 C14 1_555 1_555
C15 C14 1_555 1_555
H5 C15 1_555 1_555
C17 H7 1_555 1_555
C18 C13 1_555 1_555
H8 C18 1_555 1_555
H9 C19 1_555 1_555
C20 C7 1_555 1_555
H10 C20 1_555 1_555
C21 C10 1_555 1_555
H11 C21 1_555 1_555
C22 H12 1_555 1_555
C23 C8 1_555 1_555
H13 C23 1_555 1_555
C24 C11 1_555 1_555
H14 C24 1_555 1_555
C26 C9 1_555 1_555
C27 C9 1_555 1_555
H17 C27 1_555 1_555
C28 C12 1_555 1_555
H18 C28 1_555 1_555
C31 N2 1_555 1_555
C33 C12 1_555 1_555
H24 C33 1_555 1_555
C35 C26 1_555 1_555
H26 C35 1_555 1_555
C13 C20 1_555 1_555
C17 C19 1_555 1_555
C18 C24 1_555 1_555
C21 C31 1_555 1_555
C22 C28 1_555 1_555
C27 C33 1_555 1_555
N1 C2 1_555 1_555
C2 H1 1_555 1_555
C3 N1 1_555 1_555
H2 C3 1_555 1_555
C4 C6 1_555 1_555
C6 C30 1_555 1_555
C16 C4 1_555 1_555
H6 C16 1_555 1_555
C30 C3 1_555 1_555
H21 C30 1_555 1_555
C32 C2 1_555 1_555
H23 C32 1_555 1_555
Zn2 N1 1_555 1_555
C6 C32 1_555 1_555
O1 C1 1_555 1_555
C1 C29 1_555 1_555
H19 C29 1_555 1_555
O4 C1 1_555 1_555
Zn3 O1 1_555 1_555
O4 Zn3 1_555 1_555
O2 Zn2 1_555 1_555
Zn2 N2_2 1_555 1_555
N2_2 C15_2 1_555 1_555
O3 Zn2 1_555 1_555
C5 O2 1_555 1_555
C7_2 H3_2 1_555 1_555
C10_2 C11_2 1_555 1_555
C11_2 C7_2 1_555 1_555
C14_2 C10_2 1_555 1_555
H4_2 C14_2 1_555 1_555
C15_2 C14_2 1_555 1_555
H5_2 C15_2 1_555 1_555
C17_2 H7_2 1_555 1_555
C18_2 C13_2 1_555 1_555
H8_2 C18_2 1_555 1_555
H9_2 C19_2 1_555 1_555
C20_2 C7_2 1_555 1_555
C21_2 C10_2 1_555 1_555
H11_2 C21_2 1_555 1_555
C24_2 C11_2 1_555 1_555
H14_2 C24_2 1_555 1_555
C25 C5 1_555 1_555
H15 C25 1_555 1_555
H16 C25 1_555 1_555
C31_2 N2_2 1_555 1_555
H22 C31_2 1_555 1_555
O5 Zn2 1_555 1_555
O6 Zn2 1_555 1_555
O3 C5 1_555 1_555
C13_2 C20_2 1_555 1_555
C17_2 C19_2 1_555 1_555
C18_2 C24_2 1_555 1_555
C21_2 C31_2 1_555 1_555
O5 C1_2 1_555 1_555
O2_2 Zn3 1_555 1_555
C1_2 C29_2 1_555 1_555
O3_2 Zn3 1_555 1_555
C5_2 O2_2 1_555 1_555
C25_2 C5_2 1_555 1_555
H15_2 C25_2 1_555 1_555
H16_2 C25_2 1_555 1_555
C29_2 C25_2 1_555 1_555
H19_2 C29_2 1_555 1_555
H20_2 C29_2 1_555 1_555
O6 C1_2 1_555 1_555
N5 Zn3 1_555 1_555
O3_2 C5_2 1_555 1_555
N5 C2_2 1_555 1_555
C2_2 H1_2 1_555 1_555
C3_2 N5 1_555 1_555
C4_2 C6_2 1_555 1_555
N3_2 C8_2 1_555 1_555
C6_2 C30_2 1_555 1_555
C9_2 C22_2 1_555 1_555
C12_2 N3_2 1_555 1_555
C16_2 C4_2 1_555 1_555
H6_2 C16_2 1_555 1_555
C22_2 H12_2 1_555 1_555
C23_2 C8_2 1_555 1_555
H13_2 C23_2 1_555 1_555
C26_2 C9_2 1_555 1_555
C27_2 C9_2 1_555 1_555
H17_2 C27_2 1_555 1_555
C28_2 C12_2 1_555 1_555
H18_2 C28_2 1_555 1_555
C30_2 C3_2 1_555 1_555
C32_2 C2_2 1_555 1_555
H23_2 C32_2 1_555 1_555
C33_2 C12_2 1_555 1_555
H24_2 C33_2 1_555 1_555
N4_2 C34_2 1_555 1_555
C34_2 H25_2 1_555 1_555
C35_2 C26_2 1_555 1_555
H26_2 C35_2 1_555 1_555
C36_2 N4_2 1_555 1_555
H27_2 C36_2 1_555 1_555
C37_2 C26_2 1_555 1_555
H28_2 C37_2 1_555 1_555
C6_2 C32_2 1_555 1_555
C16_2 C23_2 1_555 1_555
C22_2 C28_2 1_555 1_555
C27_2 C33_2 1_555 1_555
C34_2 C35_2 1_555 1_555
C36_2 C37_2 1_555 1_555
C1_3 C29_3 1_555 1_555
C25_3 C5_3 1_555 1_555
H15_3 C25_3 1_555 1_555
H16_3 C25_3 1_555 1_555
C29_3 C25_3 1_555 1_555
H19_3 C29_3 1_555 1_555
O4_2 C1_3 1_555 1_555
O3_3 C5_3 1_555 1_555
O4_2 Zn3_2 1_555 1_555
N1_2 C2_3 1_555 1_555
C2_3 H1_3 1_555 1_555
C3_3 N1_2 1_555 1_555
H2_2 C3_3 1_555 1_555
N2_3 C15_3 1_555 1_555
C4_3 C6_3 1_555 1_555
N3_3 C8_3 1_555 1_555
C6_3 C30_3 1_555 1_555
C7_3 H3_3 1_555 1_555
C8_3 C17_3 1_555 1_555
C9_3 C22_3 1_555 1_555
C10_3 C11_3 1_555 1_555
C11_3 C7_3 1_555 1_555
C12_3 N3_3 1_555 1_555
C13_3 N3_3 1_555 1_555
C14_3 C10_3 1_555 1_555
H4_3 C14_3 1_555 1_555
C15_3 C14_3 1_555 1_555
H5_3 C15_3 1_555 1_555
C16_3 C4_3 1_555 1_555
H6_3 C16_3 1_555 1_555
C17_3 H7_3 1_555 1_555
C18_3 C13_3 1_555 1_555
H8_3 C18_3 1_555 1_555
C19_3 C4_3 1_555 1_555
H9_3 C19_3 1_555 1_555
C20_3 C7_3 1_555 1_555
H10_3 C20_3 1_555 1_555
C21_3 C10_3 1_555 1_555
H11_3 C21_3 1_555 1_555
C22_3 H12_3 1_555 1_555
C23_3 C8_3 1_555 1_555
H13_3 C23_3 1_555 1_555
C24_3 C11_3 1_555 1_555
H14_3 C24_3 1_555 1_555
C26_3 C9_3 1_555 1_555
C27_3 C9_3 1_555 1_555
H17_3 C27_3 1_555 1_555
C28_3 C12_3 1_555 1_555
H18_3 C28_3 1_555 1_555
C30_3 C3_3 1_555 1_555
H21_2 C30_3 1_555 1_555
C31_3 N2_3 1_555 1_555
C32_3 C2_3 1_555 1_555
H23_3 C32_3 1_555 1_555
C33_3 C12_3 1_555 1_555
H24_3 C33_3 1_555 1_555
C35_3 C26_3 1_555 1_555
H26_3 C35_3 1_555 1_555
Zn3_2 N1_2 1_555 1_555
C6_3 C32_3 1_555 1_555
C13_3 C20_3 1_555 1_555
C16_3 C23_3 1_555 1_555
C17_3 C19_3 1_555 1_555
C18_3 C24_3 1_555 1_555
C21_3 C31_3 1_555 1_555
C22_3 C28_3 1_555 1_555
C27_3 C33_3 1_555 1_555
O2_3 Zn3_2 1_555 1_555
O2_4 Zn1 1_555 1_555
N5_2 Zn1 1_555 1_555
O6_2 Zn1 1_555 1_555
N5_2 C2_4 1_555 1_555
C2_4 H1_4 1_555 1_555
C3_4 N5_2 1_555 1_555
C4_4 C6_4 1_555 1_555
C6_4 C30_4 1_555 1_555
C16_4 C4_4 1_555 1_555
H6_4 C16_4 1_555 1_555
C30_4 C3_4 1_555 1_555
C32_4 C2_4 1_555 1_555
H23_4 C32_4 1_555 1_555
C6_4 C32_4 1_555 1_555
N2_4 C15_4 1_555 1_555
C7_4 H3_4 1_555 1_555
C10_4 C11_4 1_555 1_555
C11_4 C7_4 1_555 1_555
C14_4 C10_4 1_555 1_555
H4_4 C14_4 1_555 1_555
C15_4 C14_4 1_555 1_555
H5_4 C15_4 1_555 1_555
C17_4 H7_4 1_555 1_555
C18_4 C13_4 1_555 1_555
H8_4 C18_4 1_555 1_555
H9_4 C19_4 1_555 1_555
C20_4 C7_4 1_555 1_555
C21_4 C10_4 1_555 1_555
H11_4 C21_4 1_555 1_555
C24_4 C11_4 1_555 1_555
H14_4 C24_4 1_555 1_555
C25_4 C5_4 1_555 1_555
H15_4 C25_4 1_555 1_555
H16_4 C25_4 1_555 1_555
C31_4 N2_4 1_555 1_555
H22_4 C31_4 1_555 1_555
O3_4 C5_4 1_555 1_555
C13_4 C20_4 1_555 1_555
C17_4 C19_4 1_555 1_555
C18_4 C24_4 1_555 1_555
C21_4 C31_4 1_555 1_555
C1_4 C29_4 1_555 1_555
H19_4 C29_4 1_555 1_555
O6_2 C1_4 1_555 1_555
N3_4 C8_4 1_555 1_555
C9_4 C22_4 1_555 1_555
C12_4 N3_4 1_555 1_555
C22_4 H12_4 1_555 1_555
C23_4 C8_4 1_555 1_555
H13_4 C23_4 1_555 1_555
C26_4 C9_4 1_555 1_555
C27_4 C9_4 1_555 1_555
H17_4 C27_4 1_555 1_555
C28_4 C12_4 1_555 1_555
H18_4 C28_4 1_555 1_555
C33_4 C12_4 1_555 1_555
H24_4 C33_4 1_555 1_555
N4_3 C34_3 1_555 1_555
C34_3 H25_3 1_555 1_555
C35_4 C26_4 1_555 1_555
H26_4 C35_4 1_555 1_555
C36_3 N4_3 1_555 1_555
H27_3 C36_3 1_555 1_555
C37_3 C26_4 1_555 1_555
H28_3 C37_3 1_555 1_555
C22_4 C28_4 1_555 1_555
C27_4 C33_4 1_555 1_555
C34_3 C35_4 1_555 1_555
C36_3 C37_3 1_555 1_555
N4_4 C34_4 1_555 1_555
C34_4 H25_4 1_555 1_555
C36_4 N4_4 1_555 1_555
H27_4 C36_4 1_555 1_555
H28_4 C37_4 1_555 1_555
C36_4 C37_4 1_555 1_555
O2_5 Zn1_2 1_555 1_555
N5_3 Zn1_2 1_555 1_555
O6_3 Zn1_2 1_555 1_555
N5_3 C2_5 1_555 1_555
C2_5 H1_5 1_555 1_555
C3_5 N5_3 1_555 1_555
C4_5 C6_5 1_555 1_555
C6_5 C30_5 1_555 1_555
C16_5 C4_5 1_555 1_555
H6_5 C16_5 1_555 1_555
C30_5 C3_5 1_555 1_555
C32_5 C2_5 1_555 1_555
H23_5 C32_5 1_555 1_555
C6_5 C32_5 1_555 1_555
C1_5 C29_5 1_555 1_555
H19_5 C29_5 1_555 1_555
O6_3 C1_5 1_555 1_555
N2_5 C15_5 1_555 1_555
C7_5 H3_5 1_555 1_555
C10_5 C11_5 1_555 1_555
C11_5 C7_5 1_555 1_555
C14_5 C10_5 1_555 1_555
H4_5 C14_5 1_555 1_555
C15_5 C14_5 1_555 1_555
H5_5 C15_5 1_555 1_555
C17_5 H7_5 1_555 1_555
C18_5 C13_5 1_555 1_555
H8_5 C18_5 1_555 1_555
H9_5 C19_5 1_555 1_555
C20_5 C7_5 1_555 1_555
C21_5 C10_5 1_555 1_555
H11_5 C21_5 1_555 1_555
C24_5 C11_5 1_555 1_555
H14_5 C24_5 1_555 1_555
C25_5 C5_5 1_555 1_555
H15_5 C25_5 1_555 1_555
H16_5 C25_5 1_555 1_555
C31_5 N2_5 1_555 1_555
H22_5 C31_5 1_555 1_555
O3_5 C5_5 1_555 1_555
C13_5 C20_5 1_555 1_555
C17_5 C19_5 1_555 1_555
C18_5 C24_5 1_555 1_555
C21_5 C31_5 1_555 1_555
C1_6 C29_6 1_555 1_555
C25_6 C5_6 1_555 1_555
H15_6 C25_6 1_555 1_555
H16_6 C25_6 1_555 1_555
C29_6 C25_6 1_555 1_555
H19_6 C29_6 1_555 1_555
O4_3 C1_6 1_555 1_555
O3_6 C5_6 1_555 1_555
O4_3 Zn3_3 1_555 1_555
N1_3 C2_6 1_555 1_555
C2_6 H1_6 1_555 1_555
C3_6 N1_3 1_555 1_555
H2_6 C3_6 1_555 1_555
N2_6 C15_6 1_555 1_555
C4_6 C6_6 1_555 1_555
N3_5 C8_5 1_555 1_555
C6_6 C30_6 1_555 1_555
C7_6 H3_6 1_555 1_555
C8_5 C17_6 1_555 1_555
C9_5 C22_5 1_555 1_555
C10_6 C11_6 1_555 1_555
C11_6 C7_6 1_555 1_555
C12_5 N3_5 1_555 1_555
C13_6 N3_5 1_555 1_555
C14_6 C10_6 1_555 1_555
H4_6 C14_6 1_555 1_555
C15_6 C14_6 1_555 1_555
H5_6 C15_6 1_555 1_555
C16_6 C4_6 1_555 1_555
H6_6 C16_6 1_555 1_555
C17_6 H7_6 1_555 1_555
C18_6 C13_6 1_555 1_555
H8_6 C18_6 1_555 1_555
C19_6 C4_6 1_555 1_555
H9_6 C19_6 1_555 1_555
C20_6 C7_6 1_555 1_555
H10_5 C20_6 1_555 1_555
C21_6 C10_6 1_555 1_555
H11_6 C21_6 1_555 1_555
C22_5 H12_5 1_555 1_555
C23_5 C8_5 1_555 1_555
H13_5 C23_5 1_555 1_555
C24_6 C11_6 1_555 1_555
H14_6 C24_6 1_555 1_555
C26_5 C9_5 1_555 1_555
C27_5 C9_5 1_555 1_555
H17_5 C27_5 1_555 1_555
C28_5 C12_5 1_555 1_555
H18_5 C28_5 1_555 1_555
C30_6 C3_6 1_555 1_555
H21_6 C30_6 1_555 1_555
C31_6 N2_6 1_555 1_555
C32_6 C2_6 1_555 1_555
H23_6 C32_6 1_555 1_555
C33_5 C12_5 1_555 1_555
H24_5 C33_5 1_555 1_555
C35_5 C26_5 1_555 1_555
H26_5 C35_5 1_555 1_555
Zn3_3 N1_3 1_555 1_555
C6_6 C32_6 1_555 1_555
C13_6 C20_6 1_555 1_555
C16_6 C23_5 1_555 1_555
C17_6 C19_6 1_555 1_555
C18_6 C24_6 1_555 1_555
C21_6 C31_6 1_555 1_555
C22_5 C28_5 1_555 1_555
C27_5 C33_5 1_555 1_555
O2_6 Zn3_3 1_555 1_555
N1_4 C2_7 1_555 1_555
C2_7 H1_7 1_555 1_555
C3_7 N1_4 1_555 1_555
H2_7 C3_7 1_555 1_555
C4_7 C6_7 1_555 1_555
C6_7 C30_7 1_555 1_555
C16_7 C4_7 1_555 1_555
H6_7 C16_7 1_555 1_555
C30_7 C3_7 1_555 1_555
H21_7 C30_7 1_555 1_555
C32_7 C2_7 1_555 1_555
H23_7 C32_7 1_555 1_555
Zn2_2 N1_4 1_555 1_555
C6_7 C32_7 1_555 1_555
O2_7 Zn2_2 1_555 1_555
Zn2_2 N2_7 1_555 1_555
N2_7 C15_7 1_555 1_555
O3_7 Zn2_2 1_555 1_555
C5_7 O2_7 1_555 1_555
C7_7 H3_7 1_555 1_555
C10_7 C11_7 1_555 1_555
C11_7 C7_7 1_555 1_555
C14_7 C10_7 1_555 1_555
H4_7 C14_7 1_555 1_555
C15_7 C14_7 1_555 1_555
H5_7 C15_7 1_555 1_555
C17_7 H7_7 1_555 1_555
C18_7 C13_7 1_555 1_555
H8_7 C18_7 1_555 1_555
H9_7 C19_7 1_555 1_555
C20_7 C7_7 1_555 1_555
C21_7 C10_7 1_555 1_555
H11_7 C21_7 1_555 1_555
C24_7 C11_7 1_555 1_555
H14_7 C24_7 1_555 1_555
C25_7 C5_7 1_555 1_555
H15_7 C25_7 1_555 1_555
H16_7 C25_7 1_555 1_555
C31_7 N2_7 1_555 1_555
H22_7 C31_7 1_555 1_555
O5_4 Zn2_2 1_555 1_555
O6_4 Zn2_2 1_555 1_555
O3_7 C5_7 1_555 1_555
C13_7 C20_7 1_555 1_555
C17_7 C19_7 1_555 1_555
C18_7 C24_7 1_555 1_555
C21_7 C31_7 1_555 1_555
O1_4 C1_7 1_555 1_555
C1_7 C29_7 1_555 1_555
H19_7 C29_7 1_555 1_555
O4_4 C1_7 1_555 1_555
Zn3_4 O1_4 1_555 1_555
O4_4 Zn3_4 1_555 1_555
O5_4 C1_8 1_555 1_555
O2_8 Zn3_4 1_555 1_555
C1_8 C29_8 1_555 1_555
O3_8 Zn3_4 1_555 1_555
C5_8 O2_8 1_555 1_555
C25_8 C5_8 1_555 1_555
H15_8 C25_8 1_555 1_555
H16_8 C25_8 1_555 1_555
C29_8 C25_8 1_555 1_555
H19_8 C29_8 1_555 1_555
H20_8 C29_8 1_555 1_555
O6_4 C1_8 1_555 1_555
N5_4 Zn3_4 1_555 1_555
O3_8 C5_8 1_555 1_555
N5_4 C2_8 1_555 1_555
C2_8 H1_8 1_555 1_555
C3_8 N5_4 1_555 1_555
C4_8 C6_8 1_555 1_555
N3_6 C8_6 1_555 1_555
C6_8 C30_8 1_555 1_555
C9_6 C22_6 1_555 1_555
C12_6 N3_6 1_555 1_555
C16_8 C4_8 1_555 1_555
H6_8 C16_8 1_555 1_555
C22_6 H12_6 1_555 1_555
C23_6 C8_6 1_555 1_555
H13_6 C23_6 1_555 1_555
C26_6 C9_6 1_555 1_555
C27_6 C9_6 1_555 1_555
H17_6 C27_6 1_555 1_555
C28_6 C12_6 1_555 1_555
H18_6 C28_6 1_555 1_555
C30_8 C3_8 1_555 1_555
C32_8 C2_8 1_555 1_555
H23_8 C32_8 1_555 1_555
C33_6 C12_6 1_555 1_555
H24_6 C33_6 1_555 1_555
N4_5 C34_5 1_555 1_555
C34_5 H25_5 1_555 1_555
C35_6 C26_6 1_555 1_555
H26_6 C35_6 1_555 1_555
C36_5 N4_5 1_555 1_555
H27_5 C36_5 1_555 1_555
C37_5 C26_6 1_555 1_555
H28_5 C37_5 1_555 1_555
C6_8 C32_8 1_555 1_555
C16_8 C23_6 1_555 1_555
C22_6 C28_6 1_555 1_555
C27_6 C33_6 1_555 1_555
C34_5 C35_6 1_555 1_555
C36_5 C37_5 1_555 1_555
N2_8 C15_8 1_555 1_555
N3_7 C8_7 1_555 1_555
C7_8 H3_8 1_555 1_555
C8_7 C17_8 1_555 1_555
C9_7 C22_7 1_555 1_555
C10_8 C11_8 1_555 1_555
C11_8 C7_8 1_555 1_555
C12_7 N3_7 1_555 1_555
C13_8 N3_7 1_555 1_555
C14_8 C10_8 1_555 1_555
H4_8 C14_8 1_555 1_555
C15_8 C14_8 1_555 1_555
H5_8 C15_8 1_555 1_555
C17_8 H7_8 1_555 1_555
C18_8 C13_8 1_555 1_555
H8_8 C18_8 1_555 1_555
H9_8 C19_8 1_555 1_555
C20_8 C7_8 1_555 1_555
H10_7 C20_8 1_555 1_555
C21_8 C10_8 1_555 1_555
H11_8 C21_8 1_555 1_555
C22_7 H12_7 1_555 1_555
C23_7 C8_7 1_555 1_555
H13_7 C23_7 1_555 1_555
C24_8 C11_8 1_555 1_555
H14_8 C24_8 1_555 1_555
C26_7 C9_7 1_555 1_555
C27_7 C9_7 1_555 1_555
H17_7 C27_7 1_555 1_555
C28_7 C12_7 1_555 1_555
H18_7 C28_7 1_555 1_555
C31_8 N2_8 1_555 1_555
C33_7 C12_7 1_555 1_555
H24_7 C33_7 1_555 1_555
C35_7 C26_7 1_555 1_555
H26_7 C35_7 1_555 1_555
C13_8 C20_8 1_555 1_555
C17_8 C19_8 1_555 1_555
C18_8 C24_8 1_555 1_555
C21_8 C31_8 1_555 1_555
C22_7 C28_7 1_555 1_555
C27_7 C33_7 1_555 1_555
N4_6 C34_6 1_555 1_555
C34_6 H25_6 1_555 1_555
C36_6 N4_6 1_555 1_555
H27_6 C36_6 1_555 1_555
H28_6 C37_6 1_555 1_555
C36_6 C37_6 1_555 1_555
N3_8 C8_8 1_555 1_555
C9_8 C22_8 1_555 1_555
C12_8 N3_8 1_555 1_555
C22_8 H12_8 1_555 1_555
C23_8 C8_8 1_555 1_555
H13_8 C23_8 1_555 1_555
C26_8 C9_8 1_555 1_555
C27_8 C9_8 1_555 1_555
H17_8 C27_8 1_555 1_555
C28_8 C12_8 1_555 1_555
H18_8 C28_8 1_555 1_555
C33_8 C12_8 1_555 1_555
H24_8 C33_8 1_555 1_555
N4_7 C34_7 1_555 1_555
C34_7 H25_7 1_555 1_555
C35_8 C26_8 1_555 1_555
H26_8 C35_8 1_555 1_555
C36_7 N4_7 1_555 1_555
H27_7 C36_7 1_555 1_555
C37_7 C26_8 1_555 1_555
H28_7 C37_7 1_555 1_555
C22_8 C28_8 1_555 1_555
C27_8 C33_8 1_555 1_555
C34_7 C35_8 1_555 1_555
C36_7 C37_7 1_555 1_555
N4_8 C34_8 1_555 1_555
C34_8 H25_8 1_555 1_555
C36_8 N4_8 1_555 1_555
H27_8 C36_8 1_555 1_555
H28_8 C37_8 1_555 1_555
C36_8 C37_8 1_555 1_555

#END
