
###############################################################################
#
# This file contains modified crystal structure data generated from the
# MOF subset of the Cambridge Structural Database (CSD) v543 
# hosted by the Cambridge Crystallographic Data Centre (CCDC).
#
# This work is licensed under the Creative Commons
# Attribution-NonCommercial-ShareAlike 4.0 International License.
# To view a copy of this license, visit
# http://creativecommons.org/licenses/by-nc-sa/4.0/
# or send a letter to
# Creative Commons, PO Box 1866, Mountain View, CA 94042, USA.
#
# CIF created using the CSD Python API on 29 September 2022
# The structure has been converted into the P1 space group
# The structure has a 3D framework
# The original CSD entry RISXAU is in the monoclinic crystal system
# The framework has been calculated to contain at least 10.0% void space
# The void calculation uses a probe of radius 1.32A, grid spacing 0.4
# H atom positions have been added when not included in the experimental data
# Generated hydrogen atom positions removed from atoms on special positions
#
###############################################################################

data_RISXAU
_chemical_formula_moiety         '(C48 H64 Fe18 O72)n'
_symmetry_cell_setting           triclinic
_symmetry_space_group_name_H-M   'P 1'
_symmetry_Int_Tables_number      1
_space_group_name_Hall           'P 1'
loop_
_symmetry_equiv_pos_site_id
_symmetry_equiv_pos_as_xyz
1 x,y,z
_cell_length_a                   11.5656(11)
_cell_length_b                   11.5662(11)
_cell_length_c                   16.346(2)
_cell_angle_alpha                90
_cell_angle_beta                 90.444(3)
_cell_angle_gamma                90
_cell_volume                     2186.54
loop_
_atom_site_label
_atom_site_type_symbol
_atom_site_fract_x
_atom_site_fract_y
_atom_site_fract_z
Fe9 Fe -0.0000 0.49339(8) 0.2500
Fe1 Fe 0.2500 0.2500 0.0000
Fe2 Fe 0.7500 0.2500 0.0000
O3 O 0.1913(4) 0.2868(5) 0.3801(2)
O5 O 0.2959(4) 0.1899(5) 0.1191(2)
O7 O 0.1121(4) 0.3663(5) 0.1993(3)
O8 O 0.3806(5) 0.1130(5) 0.3006(3)
C3 C 0.2218(6) 0.2595(6) 0.3091(3)
C4 C 0.3057(5) 0.1808(6) 0.2720(3)
C5 C 0.2675(5) 0.2176(6) 0.1907(3)
C6 C 0.1840(5) 0.2963(6) 0.2279(3)
O10 O 0.5802(3) 0.6795(4) 0.0045(3)
O11 O 0.3182(3) 0.5797(4) 0.0020(3)
C7 C 0.5373(5) 0.5811(5) 0.0023(4)
C8 C 0.4176(4) 0.5365(5) 0.0008(4)
O12 O 0.8087(4) 0.2868(5) 0.1199(2)
O13 O 0.7041(4) 0.1899(5) 0.3809(2)
O14 O 0.8879(4) 0.3663(5) 0.3007(3)
O15 O 0.6194(5) 0.1130(5) 0.1994(3)
C9 C 0.7782(6) 0.2595(6) 0.1909(3)
C10 C 0.6943(5) 0.1808(6) 0.2280(3)
C11 C 0.7325(5) 0.2176(6) 0.3093(3)
C12 C 0.8160(5) 0.2963(6) 0.2721(3)
O17 O 0.5947(4) 0.1738(5) 0.0382(3)
H5 H 0.6091 0.1207 0.0700
O18 O 0.1710(4) 0.4019(4) 0.0398(3)
H6 H 0.1322 0.3882 0.0805
Fe4 Fe 0.7500 0.2500 0.5000
Fe5 Fe 0.7500 0.7500 0.0000
Fe6 Fe 0.2500 0.2500 0.5000
Fe7 Fe 0.2500 0.7500 0.0000
Fe9_2 Fe 1.0000 0.49339(8) 0.2500
O19 O 0.0802(3) 0.1795(4) 0.0045(3)
O20 O 0.8182(3) 0.0797(4) 0.0020(3)
H9 H 0.481678 0.00934913 0.0918753
H12 H 0.518322 0.00934913 0.408125
Fe1_2 Fe 0.2500 0.2500 1.0000
Fe2_2 Fe 0.7500 0.2500 1.0000
O1 O 0.4198(3) 0.3205(4) 0.9955(3)
O2 O 0.6818(3) 0.4203(4) 0.9980(3)
O4 O 0.9053(4) 0.3262(5) 0.9618(3)
H1 H 0.8909 0.3793 0.9300
O6 O 0.3290(4) 0.0981(4) 0.9602(3)
H2 H 0.3678 0.1118 0.9195
C1 C 0.4627(5) 0.4189(5) 0.9977(4)
C2 C 0.5824(4) 0.4635(5) 0.9992(4)
Fe5_2 Fe 0.7500 0.7500 1.0000
Fe7_2 Fe 0.2500 0.7500 1.0000
O21 O 0.6913(4) 0.2132(5) 0.8801(2)
O22 O 0.2041(4) 0.3101(5) 0.8809(2)
H7 H 0.268785 0.0399436 0.946381
H8 H 0.953499 0.267366 0.933879
H10 H 0.552102 0.143154 0.989885
H11 H 0.120132 0.432625 0.995675
Fe3 Fe 0.5000 0.99339(8) 0.2500
O9 O 0.4225(5) 0.9924(5) 0.1339(3)
H3 H 0.3941 0.9286 0.1251
O16 O 0.5775(5) 0.9924(5) 0.3661(3)
H4 H 0.6059 0.9286 0.3749
O23 O 0.6121(4) 0.8663(5) 0.1993(3)
O24 O 0.3879(4) 0.8663(5) 0.3007(3)
O1_2 O 0.5802(3) 0.3205(4) 0.5045(3)
O2_2 O 0.3182(3) 0.4203(4) 0.5020(3)
O4_2 O 0.0947(4) 0.3262(5) 0.5382(3)
O6_2 O 0.6710(4) 0.0981(4) 0.5398(3)
C1_2 C 0.5373(5) 0.4189(5) 0.5023(4)
C2_2 C 0.4176(4) 0.4635(5) 0.5008(4)
O10_2 O 0.4198(3) 0.6795(4) 0.4955(3)
O11_2 O 0.6818(3) 0.5797(4) 0.4980(3)
C7_2 C 0.4627(5) 0.5811(5) 0.4977(4)
C8_2 C 0.5824(4) 0.5365(5) 0.4992(4)
O17_2 O 0.4053(4) 0.1738(5) 0.4618(3)
O18_2 O 0.8290(4) 0.4019(4) 0.4602(3)
Fe5_3 Fe 0.2500 0.7500 0.5000
Fe7_3 Fe 0.7500 0.7500 0.5000
O19_2 O 0.9198(3) 0.1795(4) 0.4955(3)
O20_2 O 0.1818(3) 0.0797(4) 0.4980(3)
O21_2 O 0.3087(4) 0.2132(5) 0.6199(2)
O22_2 O 0.7959(4) 0.3101(5) 0.6191(2)
C7_3 C 0.0373(5) 0.0811(5) 0.0023(4)
O12_2 O 0.3087(4) 0.7868(5) 0.1199(2)
O13_2 O 0.2041(4) 0.6899(5) 0.3809(2)
O15_2 O 0.1194(5) 0.6130(5) 0.1994(3)
O16_2 O 0.0775(5) 0.4924(5) 0.3661(3)
H4_2 H 0.1059 0.4286 0.3749
C9_2 C 0.2782(6) 0.7595(6) 0.1909(3)
C10_2 C 0.1943(5) 0.6808(6) 0.2280(3)
C11_2 C 0.2325(5) 0.7176(6) 0.3093(3)
C12_2 C 0.3160(5) 0.7963(6) 0.2721(3)
O17_3 O 0.0947(4) 0.6738(5) 0.0382(3)
H5_2 H 0.1091 0.6207 0.0700
H12_2 H 0.0183216 0.509349 0.408125
O2_3 O 0.1818(3) 0.9203(4) 0.9980(3)
O4_3 O 0.4053(4) 0.8262(5) 0.9618(3)
H1_2 H 0.3909 0.8793 0.9300
C2_3 C 0.0824(4) 0.9635(5) 0.9992(4)
O21_3 O 0.1913(4) 0.7132(5) 0.8801(2)
H8_2 H 0.453499 0.767366 0.933879
H10_2 H 0.0521023 0.643154 0.989885
C8_3 C 0.9176(4) 0.0365(5) 0.0008(4)
O3_2 O 0.6913(4) 0.7868(5) 0.3801(2)
O5_2 O 0.7959(4) 0.6899(5) 0.1191(2)
O8_2 O 0.8806(5) 0.6130(5) 0.3006(3)
O9_2 O 0.9225(5) 0.4924(5) 0.1339(3)
H3_2 H 0.8941 0.4286 0.1251
C3_2 C 0.7218(6) 0.7595(6) 0.3091(3)
C4_2 C 0.8057(5) 0.6808(6) 0.2720(3)
C5_2 C 0.7675(5) 0.7176(6) 0.1907(3)
C6_2 C 0.6840(5) 0.7963(6) 0.2279(3)
O18_3 O 0.6710(4) 0.9019(4) 0.0398(3)
H6_2 H 0.6322 0.8882 0.0805
H9_2 H 0.981678 0.509349 0.0918753
O1_3 O 0.9198(3) 0.8205(4) 0.9955(3)
O6_3 O 0.8290(4) 0.5981(4) 0.9602(3)
H2_2 H 0.8678 0.6118 0.9195
C1_3 C 0.9627(5) 0.9189(5) 0.9977(4)
O22_3 O 0.7041(4) 0.8101(5) 0.8809(2)
H7_2 H 0.768785 0.539944 0.946381
H11_2 H 0.620132 0.932625 0.995675
C8_4 C 0.0824(4) 0.0365(5) 0.4992(4)
O1_4 O 0.0802(3) 0.8205(4) 0.5045(3)
O6_4 O 0.1710(4) 0.5981(4) 0.5398(3)
C1_4 C 0.0373(5) 0.9189(5) 0.5023(4)
O18_4 O 0.3290(4) 0.9019(4) 0.4602(3)
O22_4 O 0.2959(4) 0.8101(5) 0.6191(2)
C7_4 C 0.9627(5) 0.0811(5) 0.4977(4)
O2_4 O 0.8182(3) 0.9203(4) 0.5020(3)
O4_4 O 0.5947(4) 0.8262(5) 0.5382(3)
C2_4 C 0.9176(4) 0.9635(5) 0.5008(4)
O17_4 O 0.9053(4) 0.6738(5) 0.4618(3)
O21_4 O 0.8087(4) 0.7132(5) 0.6199(2)
Fe8 Fe 0.0000 0.50661(8) 0.7500
Fe3_2 Fe 0.5000 0.00661(8) 0.7500
O9_3 O 0.5775(5) 0.0076(5) 0.8661(3)
H3_3 H 0.6059 0.0714 0.8749
O16_3 O 0.4225(5) 0.0076(5) 0.6339(3)
H4_3 H 0.3941 0.0714 0.6251
O23_2 O 0.3879(4) 0.1337(5) 0.8007(3)
O24_2 O 0.6121(4) 0.1337(5) 0.6993(3)
H7_3 H 0.731215 0.960056 0.0536195
H8_3 H 0.0465013 0.732634 0.0661214
H10_3 H 0.447898 0.856846 0.0101151
H11_3 H 0.879868 0.567375 0.00432464
O7_2 O 0.8879(4) 0.6337(5) 0.8007(3)
O8_3 O 0.6194(5) 0.8870(5) 0.6994(3)
C3_3 C 0.7782(6) 0.7405(6) 0.6909(3)
C4_3 C 0.6943(5) 0.8192(6) 0.7280(3)
C5_3 C 0.7325(5) 0.7824(6) 0.8093(3)
C6_3 C 0.8160(5) 0.7037(6) 0.7721(3)
O14_2 O 0.1121(4) 0.6337(5) 0.6993(3)
O15_3 O 0.3806(5) 0.8870(5) 0.8006(3)
C9_3 C 0.2218(6) 0.7405(6) 0.8091(3)
C10_3 C 0.3057(5) 0.8192(6) 0.7720(3)
C11_3 C 0.2675(5) 0.7824(6) 0.6907(3)
C12_3 C 0.1840(5) 0.7037(6) 0.7279(3)
Fe8_2 Fe 1.0000 0.50661(8) 0.7500
H9_3 H 0.518322 0.990651 0.908125
H12_3 H 0.481678 0.990651 0.591875
H7_4 H 0.231215 0.460056 0.0536195
H11_4 H 0.379868 0.0673749 0.00432464
O8_4 O 0.1194(5) 0.3870(5) 0.6994(3)
O9_4 O 0.0775(5) 0.5076(5) 0.8661(3)
H3_4 H 0.1059 0.5714 0.8749
C3_4 C 0.2782(6) 0.2405(6) 0.6909(3)
C4_4 C 0.1943(5) 0.3192(6) 0.7280(3)
C5_4 C 0.2325(5) 0.2824(6) 0.8093(3)
C6_4 C 0.3160(5) 0.2037(6) 0.7721(3)
H9_4 H 0.0183216 0.490651 0.908125
H8_4 H 0.546501 0.232634 0.0661214
H10_4 H 0.947898 0.356846 0.0101151
O15_4 O 0.8806(5) 0.3870(5) 0.8006(3)
O16_4 O 0.9225(5) 0.5076(5) 0.6339(3)
H4_4 H 0.8941 0.5714 0.6251
C9_4 C 0.7218(6) 0.2405(6) 0.8091(3)
C10_4 C 0.8057(5) 0.3192(6) 0.7720(3)
C11_4 C 0.7675(5) 0.2824(6) 0.6907(3)
C12_4 C 0.6840(5) 0.2037(6) 0.7279(3)
H12_4 H 0.981678 0.490651 0.591875
loop_
_geom_bond_atom_site_label_1
_geom_bond_atom_site_label_2
_geom_bond_site_symmetry_1
_geom_bond_site_symmetry_2
O3 C3 1_555 1_555
O5 Fe1 1_555 1_555
O7 C6 1_555 1_555
O8 C4 1_555 1_555
C3 C4 1_555 1_555
C4 C5 1_555 1_555
C5 O5 1_555 1_555
C6 C3 1_555 1_555
O10 C7 1_555 1_555
O11 C8 1_555 1_555
C7 C8 1_555 1_555
O12 Fe2 1_555 1_555
O13 C11 1_555 1_555
O14 C12 1_555 1_555
C9 O12 1_555 1_555
C10 O15 1_555 1_555
C11 C10 1_555 1_555
C12 C9 1_555 1_555
O17 Fe2 1_555 1_555
H5 O17 1_555 1_555
O18 Fe1 1_555 1_555
H6 O18 1_555 1_555
Fe4 O13 1_555 1_555
Fe5 O10 1_555 1_555
Fe6 O3 1_555 1_555
Fe7 O11 1_555 1_555
Fe9 O7 1_555 1_555
Fe9_2 O14 1_555 1_555
O19 Fe1 1_555 1_555
O20 Fe2 1_555 1_555
C5 C6 1_555 1_555
C9 C10 1_555 1_555
C11 C12 1_555 1_555
Fe1_2 O1 1_555 1_555
Fe2_2 O2 1_555 1_555
O1 C1 1_555 1_555
O2 C2 1_555 1_555
O4 Fe2_2 1_555 1_555
H1 O4 1_555 1_555
O6 Fe1_2 1_555 1_555
H2 O6 1_555 1_555
C1 C2 1_555 1_555
O21 Fe2_2 1_555 1_555
O22 Fe1_2 1_555 1_555
O6 H7 1_555 1_555
O4 H8 1_555 1_555
O9 Fe3 1_555 1_555
H3 O9 1_555 1_555
O16 Fe3 1_555 1_555
H4 O16 1_555 1_555
O23 Fe3 1_555 1_555
O24 Fe3 1_555 1_555
Fe4 O1_2 1_555 1_555
Fe6 O2_2 1_555 1_555
O1_2 C1_2 1_555 1_555
O2_2 C2_2 1_555 1_555
O4_2 Fe6 1_555 1_555
O6_2 Fe4 1_555 1_555
C1_2 C2_2 1_555 1_555
C2_2 C7_2 1_555 1_555
O10_2 C7_2 1_555 1_555
O11_2 C8_2 1_555 1_555
C7_2 C8_2 1_555 1_555
C8_2 C1_2 1_555 1_555
O17_2 Fe6 1_555 1_555
O18_2 Fe4 1_555 1_555
Fe5_3 O10_2 1_555 1_555
Fe7_3 O11_2 1_555 1_555
O19_2 Fe4 1_555 1_555
O20_2 Fe6 1_555 1_555
O21_2 Fe6 1_555 1_555
O22_2 Fe4 1_555 1_555
O19 C7_3 1_555 1_555
O12_2 Fe7 1_555 1_555
O13_2 C11_2 1_555 1_555
O24 C12_2 1_555 1_555
O15_2 Fe9 1_555 1_555
O16_2 Fe9 1_555 1_555
H4_2 O16_2 1_555 1_555
C9_2 O12_2 1_555 1_555
C10_2 O15_2 1_555 1_555
C11_2 C10_2 1_555 1_555
C12_2 C9_2 1_555 1_555
O17_3 Fe7 1_555 1_555
H5_2 O17_3 1_555 1_555
Fe5_3 O13_2 1_555 1_555
C9_2 C10_2 1_555 1_555
C11_2 C12_2 1_555 1_555
O16_2 H12_2 1_555 1_555
Fe7_2 O2_3 1_555 1_555
O2_3 C2_3 1_555 1_555
O4_3 Fe7_2 1_555 1_555
H1_2 O4_3 1_555 1_555
O21_3 Fe7_2 1_555 1_555
O4_3 H8_2 1_555 1_555
O20 C8_3 1_555 1_555
Fe9_2 O8_2 1_555 1_555
O3_2 C3_2 1_555 1_555
O5_2 Fe5 1_555 1_555
O23 C6_2 1_555 1_555
O8_2 C4_2 1_555 1_555
O9_2 Fe9_2 1_555 1_555
H3_2 O9_2 1_555 1_555
C3_2 C4_2 1_555 1_555
C4_2 C5_2 1_555 1_555
C5_2 O5_2 1_555 1_555
C6_2 C3_2 1_555 1_555
O18_3 Fe5 1_555 1_555
H6_2 O18_3 1_555 1_555
Fe7_3 O3_2 1_555 1_555
C5_2 C6_2 1_555 1_555
O9_2 H9_2 1_555 1_555
Fe5_2 O1_3 1_555 1_555
O1_3 C1_3 1_555 1_555
O6_3 Fe5_2 1_555 1_555
H2_2 O6_3 1_555 1_555
O22_3 Fe5_2 1_555 1_555
O6_3 H7_2 1_555 1_555
O20_2 C8_4 1_555 1_555
Fe5_3 O1_4 1_555 1_555
O1_4 C1_4 1_555 1_555
O6_4 Fe5_3 1_555 1_555
O18_4 Fe5_3 1_555 1_555
O22_4 Fe5_3 1_555 1_555
O19_2 C7_4 1_555 1_555
Fe7_3 O2_4 1_555 1_555
O2_4 C2_4 1_555 1_555
O4_4 Fe7_3 1_555 1_555
O17_4 Fe7_3 1_555 1_555
O21_4 Fe7_3 1_555 1_555
O9_3 Fe3_2 1_555 1_555
H3_3 O9_3 1_555 1_555
O16_3 Fe3_2 1_555 1_555
H4_3 O16_3 1_555 1_555
O23_2 Fe3_2 1_555 1_555
O24_2 Fe3_2 1_555 1_555
O18_3 H7_3 1_555 1_555
O17_3 H8_3 1_555 1_555
O21_4 C3_3 1_555 1_555
O7_2 C6_3 1_555 1_555
O8_3 C4_3 1_555 1_555
C3_3 C4_3 1_555 1_555
C4_3 C5_3 1_555 1_555
C5_3 O22_3 1_555 1_555
C6_3 C3_3 1_555 1_555
O22_4 C11_3 1_555 1_555
O14_2 C12_3 1_555 1_555
C9_3 O21_3 1_555 1_555
C10_3 O15_3 1_555 1_555
C11_3 C10_3 1_555 1_555
C12_3 C9_3 1_555 1_555
Fe8_2 O7_2 1_555 1_555
Fe8 O14_2 1_555 1_555
C5_3 C6_3 1_555 1_555
C9_3 C10_3 1_555 1_555
C11_3 C12_3 1_555 1_555
O18 H7_4 1_555 1_555
Fe8 O8_4 1_555 1_555
O21_2 C3_4 1_555 1_555
O23_2 C6_4 1_555 1_555
O8_4 C4_4 1_555 1_555
O9_4 Fe8 1_555 1_555
H3_4 O9_4 1_555 1_555
C3_4 C4_4 1_555 1_555
C4_4 C5_4 1_555 1_555
C5_4 O22 1_555 1_555
C6_4 C3_4 1_555 1_555
C5_4 C6_4 1_555 1_555
O9_4 H9_4 1_555 1_555
O17 H8_4 1_555 1_555
O22_2 C11_4 1_555 1_555
O24_2 C12_4 1_555 1_555
O15_4 Fe8_2 1_555 1_555
O16_4 Fe8_2 1_555 1_555
H4_4 O16_4 1_555 1_555
C9_4 O21 1_555 1_555
C10_4 O15_4 1_555 1_555
C11_4 C10_4 1_555 1_555
C12_4 C9_4 1_555 1_555
C9_4 C10_4 1_555 1_555
C11_4 C12_4 1_555 1_555
O16_4 H12_4 1_555 1_555

#END
