
###############################################################################
#
# This file contains modified crystal structure data generated from the
# MOF subset of the Cambridge Structural Database (CSD) v543 
# hosted by the Cambridge Crystallographic Data Centre (CCDC).
#
# This work is licensed under the Creative Commons
# Attribution-NonCommercial-ShareAlike 4.0 International License.
# To view a copy of this license, visit
# http://creativecommons.org/licenses/by-nc-sa/4.0/
# or send a letter to
# Creative Commons, PO Box 1866, Mountain View, CA 94042, USA.
#
# CIF created using the CSD Python API on 29 September 2022
# The structure has been converted into the P1 space group
# The structure has a 3D framework
# The original CSD entry RITDAB is in the orthorhombic crystal system
# The framework has been calculated to contain at least 10.0% void space
# The void calculation uses a probe of radius 1.32A, grid spacing 0.4
#
###############################################################################

data_RITDAB
_chemical_formula_moiety         '(C192 H128 Cu8 In2 N32 O64)n'
_symmetry_cell_setting           triclinic
_symmetry_space_group_name_H-M   'P 1'
_symmetry_Int_Tables_number      1
_space_group_name_Hall           'P 1'
loop_
_symmetry_equiv_pos_site_id
_symmetry_equiv_pos_as_xyz
1 x,y,z
_cell_length_a                   12.4623(7)
_cell_length_b                   22.5494(9)
_cell_length_c                   24.692(2)
_cell_angle_alpha                90
_cell_angle_beta                 90
_cell_angle_gamma                90
_cell_volume                     6938.88
loop_
_atom_site_label
_atom_site_type_symbol
_atom_site_fract_x
_atom_site_fract_y
_atom_site_fract_z
In1 In 0.1250 0.1250 0.1250
O1 O 0.1562(5) 0.0536(3) 0.1883(2)
C5 C 0.0588(6) 0.0497(3) 0.1972(3)
C6 C 0.0192(6) 0.0092(3) 0.2408(3)
O9 O 0.1562(5) 0.1964(3) 0.0617(2)
O10 O 0.0938(5) 0.0536(3) 0.0617(2)
O11 O 0.0938(5) 0.1964(3) 0.1883(2)
O13 O 0.2607(4) 0.0786(2) 0.0792(2)
O14 O 0.2607(4) 0.1714(2) 0.1708(2)
C2 C 0.0887(6) 0.9689(4) 0.2646(3)
H2 H 0.1600 0.9667 0.2537
C4 C 0.0497(6) 0.9319(4) 0.3051(4)
H4 H 0.0960 0.9045 0.3208
O7 O 0.1562(5) 0.6964(3) 0.5617(2)
C20 C 0.0887(6) 0.7811(4) 0.4854(3)
H14 H 0.1600 0.7833 0.4963
C22 C 0.0497(6) 0.8181(4) 0.4449(4)
H16 H 0.0960 0.8455 0.4292
C23 C 0.0588(6) 0.7003(3) 0.5528(3)
C24 C 0.0192(6) 0.7408(3) 0.5092(3)
In4 In 0.1250 0.6250 0.6250
O2 O 0.9893(4) 0.0786(2) 0.1708(2)
C1 C 0.9154(7) 0.0109(4) 0.2591(3)
H1 H 0.8666 0.0374 0.2440
O5 O 0.5938(5) 0.0536(3) 0.5617(2)
O6 O 0.7607(4) 0.0786(2) 0.5792(2)
C13 C 0.8346(7) 0.0109(4) 0.4909(3)
H9 H 0.8834 0.0374 0.5060
C17 C 0.6912(6) 0.0497(3) 0.5528(3)
C18 C 0.7308(6) 0.0092(3) 0.5092(3)
In3 In 0.6250 0.1250 0.6250
O12 O 0.9893(4) 0.1714(2) 0.0792(2)
Cu1 Cu 0.8750 0.8750 0.3750
N1 N 0.9498(5) 0.9341(3) 0.3219(2)
C3 C 0.8839(6) 0.9733(5) 0.2996(4)
H3 H 0.8135 0.9753 0.3120
O3 O 0.5938(5) 0.6964(3) 0.1883(2)
O4 O 0.7607(4) 0.6714(2) 0.1708(2)
N2 N 0.8002(5) 0.8159(3) 0.3219(2)
C7 C 0.8346(7) 0.7391(4) 0.2591(3)
H5 H 0.8834 0.7126 0.2440
C8 C 0.6613(6) 0.7811(4) 0.2646(3)
H6 H 0.5900 0.7833 0.2537
C9 C 0.8661(6) 0.7767(5) 0.2996(4)
H7 H 0.9365 0.7747 0.3120
C10 C 0.7003(6) 0.8181(4) 0.3051(4)
H8 H 0.6540 0.8455 0.3208
C11 C 0.6912(6) 0.7003(3) 0.1972(3)
C12 C 0.7308(6) 0.7408(3) 0.2408(3)
N3 N 0.8002(5) 0.9341(3) 0.4281(2)
C14 C 0.6613(6) 0.9689(4) 0.4854(3)
H10 H 0.5900 0.9667 0.4963
C15 C 0.8661(6) 0.9733(5) 0.4504(4)
H11 H 0.9365 0.9753 0.4380
C16 C 0.7003(6) 0.9319(4) 0.4449(4)
H12 H 0.6540 0.9045 0.4292
O8 O 0.9893(4) 0.6714(2) 0.5792(2)
N4 N 0.9498(5) 0.8159(3) 0.4281(2)
C19 C 0.9154(7) 0.7391(4) 0.4909(3)
H13 H 0.8666 0.7126 0.5060
C21 C 0.8839(6) 0.7767(5) 0.4504(4)
H15 H 0.8135 0.7747 0.4380
In2 In 0.6250 0.6250 0.1250
O9_2 O 0.5938(5) 0.5536(3) 0.0617(2)
O10_2 O 0.6562(5) 0.6964(3) 0.0617(2)
O11_2 O 0.6562(5) 0.5536(3) 0.1883(2)
O12_2 O 0.7607(4) 0.5786(2) 0.0792(2)
O13_2 O 0.4893(4) 0.6714(2) 0.0792(2)
O14_2 O 0.4893(4) 0.5786(2) 0.1708(2)
O9_3 O 0.5938(5) 0.1964(3) 0.6883(2)
O10_3 O 0.6562(5) 0.0536(3) 0.6883(2)
O11_3 O 0.6562(5) 0.1964(3) 0.5617(2)
O12_3 O 0.7607(4) 0.1714(2) 0.6708(2)
O13_3 O 0.4893(4) 0.0786(2) 0.6708(2)
O14_3 O 0.4893(4) 0.1714(2) 0.5792(2)
O9_4 O 0.1562(5) 0.5536(3) 0.6883(2)
O10_4 O 0.0938(5) 0.6964(3) 0.6883(2)
O11_4 O 0.0938(5) 0.5536(3) 0.5617(2)
O13_4 O 0.2607(4) 0.6714(2) 0.6708(2)
O14_4 O 0.2607(4) 0.5786(2) 0.5792(2)
O12_4 O 0.9893(4) 0.5786(2) 0.6708(2)
C23_2 C 0.0588(6) 0.2003(3) 0.0528(3)
C24_2 C 0.0192(6) 0.2408(3) 0.0092(3)
C2_2 C 0.0887(6) 0.4689(4) 0.7646(3)
H2_2 H 0.1600 0.4667 0.7537
C4_2 C 0.0497(6) 0.4319(4) 0.8051(4)
H4_2 H 0.0960 0.4045 0.8208
C5_2 C 0.0588(6) 0.5497(3) 0.6972(3)
C6_2 C 0.0192(6) 0.5092(3) 0.7408(3)
C20_2 C 0.0887(6) 0.2811(4) 0.9854(3)
H14_2 H 0.1600 0.2833 0.9963
C22_2 C 0.0497(6) 0.3181(4) 0.9449(4)
H16_2 H 0.0960 0.3455 0.9292
H9_2 H 0.8834 0.5374 0.0060
C17_2 C 0.6912(6) 0.5497(3) 0.0528(3)
C18_2 C 0.7308(6) 0.5092(3) 0.0092(3)
H13_2 H 0.8666 0.2126 0.0060
Cu1_2 Cu 0.8750 0.3750 0.8750
N1_2 N 0.9498(5) 0.4341(3) 0.8219(2)
C1_2 C 0.9154(7) 0.5109(4) 0.7591(3)
H1_2 H 0.8666 0.5374 0.7440
C3_2 C 0.8839(6) 0.4733(5) 0.7996(4)
H3_2 H 0.8135 0.4753 0.8120
N2_2 N 0.8002(5) 0.3159(3) 0.8219(2)
C7_2 C 0.8346(7) 0.2391(4) 0.7591(3)
H5_2 H 0.8834 0.2126 0.7440
C8_2 C 0.6613(6) 0.2811(4) 0.7646(3)
H6_2 H 0.5900 0.2833 0.7537
C9_2 C 0.8661(6) 0.2767(5) 0.7996(4)
H7_2 H 0.9365 0.2747 0.8120
C10_2 C 0.7003(6) 0.3181(4) 0.8051(4)
H8_2 H 0.6540 0.3455 0.8208
C11_2 C 0.6912(6) 0.2003(3) 0.6972(3)
C12_2 C 0.7308(6) 0.2408(3) 0.7408(3)
N3_2 N 0.8002(5) 0.4341(3) 0.9281(2)
C13_2 C 0.8346(7) 0.5109(4) 0.9909(3)
C14_2 C 0.6613(6) 0.4689(4) 0.9854(3)
H10_2 H 0.5900 0.4667 0.9963
C15_2 C 0.8661(6) 0.4733(5) 0.9504(4)
H11_2 H 0.9365 0.4753 0.9380
C16_2 C 0.7003(6) 0.4319(4) 0.9449(4)
H12_2 H 0.6540 0.4045 0.9292
N4_2 N 0.9498(5) 0.3159(3) 0.9281(2)
C19_2 C 0.9154(7) 0.2391(4) 0.9909(3)
C21_2 C 0.8839(6) 0.2767(5) 0.9504(4)
H15_2 H 0.8135 0.2747 0.9380
H9_3 H 0.3834 0.0374 0.0060
C17_3 C 0.1912(6) 0.0497(3) 0.0528(3)
C18_3 C 0.2308(6) 0.0092(3) 0.0092(3)
C1_3 C 0.4154(7) 0.0109(4) 0.7591(3)
H1_3 H 0.3666 0.0374 0.7440
C5_3 C 0.5588(6) 0.0497(3) 0.6972(3)
C6_3 C 0.5192(6) 0.0092(3) 0.7408(3)
C13_3 C 0.3346(7) 0.0109(4) 0.9909(3)
H13_3 H 0.3666 0.7126 0.0060
C23_3 C 0.5588(6) 0.7003(3) 0.0528(3)
C24_3 C 0.5192(6) 0.7408(3) 0.0092(3)
Cu1_3 Cu 0.3750 0.8750 0.8750
N1_3 N 0.4498(5) 0.9341(3) 0.8219(2)
C2_3 C 0.5887(6) 0.9689(4) 0.7646(3)
H2_3 H 0.6600 0.9667 0.7537
C3_3 C 0.3839(6) 0.9733(5) 0.7996(4)
H3_3 H 0.3135 0.9753 0.8120
C4_3 C 0.5497(6) 0.9319(4) 0.8051(4)
H4_3 H 0.5960 0.9045 0.8208
N2_3 N 0.3002(5) 0.8159(3) 0.8219(2)
C7_3 C 0.3346(7) 0.7391(4) 0.7591(3)
H5_3 H 0.3834 0.7126 0.7440
C8_3 C 0.1613(6) 0.7811(4) 0.7646(3)
H6_3 H 0.0900 0.7833 0.7537
C9_3 C 0.3661(6) 0.7767(5) 0.7996(4)
H7_3 H 0.4365 0.7747 0.8120
C10_3 C 0.2003(6) 0.8181(4) 0.8051(4)
H8_3 H 0.1540 0.8455 0.8208
C11_3 C 0.1912(6) 0.7003(3) 0.6972(3)
C12_3 C 0.2308(6) 0.7408(3) 0.7408(3)
N3_3 N 0.3002(5) 0.9341(3) 0.9281(2)
C14_3 C 0.1613(6) 0.9689(4) 0.9854(3)
H10_3 H 0.0900 0.9667 0.9963
C15_3 C 0.3661(6) 0.9733(5) 0.9504(4)
H11_3 H 0.4365 0.9753 0.9380
C16_3 C 0.2003(6) 0.9319(4) 0.9449(4)
H12_3 H 0.1540 0.9045 0.9292
N4_3 N 0.4498(5) 0.8159(3) 0.9281(2)
C19_3 C 0.4154(7) 0.7391(4) 0.9909(3)
C20_3 C 0.5887(6) 0.7811(4) 0.9854(3)
H14_3 H 0.6600 0.7833 0.9963
C21_3 C 0.3839(6) 0.7767(5) 0.9504(4)
H15_3 H 0.3135 0.7747 0.9380
C22_3 C 0.5497(6) 0.8181(4) 0.9449(4)
H16_3 H 0.5960 0.8455 0.9292
Cu1_4 Cu 0.3750 0.3750 0.3750
N1_4 N 0.4498(5) 0.4341(3) 0.3219(2)
C1_4 C 0.4154(7) 0.5109(4) 0.2591(3)
H1_4 H 0.3666 0.5374 0.2440
C2_4 C 0.5887(6) 0.4689(4) 0.2646(3)
H2_4 H 0.6600 0.4667 0.2537
C3_4 C 0.3839(6) 0.4733(5) 0.2996(4)
H3_4 H 0.3135 0.4753 0.3120
C4_4 C 0.5497(6) 0.4319(4) 0.3051(4)
H4_4 H 0.5960 0.4045 0.3208
C5_4 C 0.5588(6) 0.5497(3) 0.1972(3)
C6_4 C 0.5192(6) 0.5092(3) 0.2408(3)
N2_4 N 0.3002(5) 0.3159(3) 0.3219(2)
C7_4 C 0.3346(7) 0.2391(4) 0.2591(3)
H5_4 H 0.3834 0.2126 0.2440
C8_4 C 0.1613(6) 0.2811(4) 0.2646(3)
H6_4 H 0.0900 0.2833 0.2537
C9_4 C 0.3661(6) 0.2767(5) 0.2996(4)
H7_4 H 0.4365 0.2747 0.3120
C10_4 C 0.2003(6) 0.3181(4) 0.3051(4)
H8_4 H 0.1540 0.3455 0.3208
C11_4 C 0.1912(6) 0.2003(3) 0.1972(3)
C12_4 C 0.2308(6) 0.2408(3) 0.2408(3)
N3_4 N 0.3002(5) 0.4341(3) 0.4281(2)
C13_4 C 0.3346(7) 0.5109(4) 0.4909(3)
H9_4 H 0.3834 0.5374 0.5060
C14_4 C 0.1613(6) 0.4689(4) 0.4854(3)
H10_4 H 0.0900 0.4667 0.4963
C15_4 C 0.3661(6) 0.4733(5) 0.4504(4)
H11_4 H 0.4365 0.4753 0.4380
C16_4 C 0.2003(6) 0.4319(4) 0.4449(4)
H12_4 H 0.1540 0.4045 0.4292
C17_4 C 0.1912(6) 0.5497(3) 0.5528(3)
C18_4 C 0.2308(6) 0.5092(3) 0.5092(3)
N4_4 N 0.4498(5) 0.3159(3) 0.4281(2)
C19_4 C 0.4154(7) 0.2391(4) 0.4909(3)
H13_4 H 0.3666 0.2126 0.5060
C20_4 C 0.5887(6) 0.2811(4) 0.4854(3)
H14_4 H 0.6600 0.2833 0.4963
C21_4 C 0.3839(6) 0.2767(5) 0.4504(4)
H15_4 H 0.3135 0.2747 0.4380
C22_4 C 0.5497(6) 0.3181(4) 0.4449(4)
H16_4 H 0.5960 0.3455 0.4292
C23_4 C 0.5588(6) 0.2003(3) 0.5528(3)
C24_4 C 0.5192(6) 0.2408(3) 0.5092(3)
Cu1_5 Cu 0.1250 0.1250 0.6250
N1_5 N 0.0502(5) 0.0659(3) 0.6781(2)
C3_5 C 0.1161(6) 0.0267(5) 0.7004(4)
H3_5 H 0.1865 0.0247 0.6880
O3_2 O 0.4062(5) 0.3036(3) 0.8117(2)
O4_2 O 0.2393(4) 0.3286(2) 0.8292(2)
N2_5 N 0.1998(5) 0.1841(3) 0.6781(2)
C7_5 C 0.1654(7) 0.2609(4) 0.7409(3)
H5_5 H 0.1166 0.2874 0.7560
C8_5 C 0.3387(6) 0.2189(4) 0.7354(3)
H6_5 H 0.4100 0.2167 0.7463
C9_5 C 0.1339(6) 0.2233(5) 0.7004(4)
H7_5 H 0.0635 0.2253 0.6880
C10_5 C 0.2997(6) 0.1819(4) 0.6949(4)
H8_5 H 0.3460 0.1545 0.6792
C11_5 C 0.3088(6) 0.2997(3) 0.8028(3)
C12_5 C 0.2692(6) 0.2592(3) 0.7592(3)
N3_5 N 0.1998(5) 0.0659(3) 0.5719(2)
C14_5 C 0.3387(6) 0.0311(4) 0.5146(3)
H10_5 H 0.4100 0.0333 0.5037
C15_5 C 0.1339(6) 0.0267(5) 0.5496(4)
H11_5 H 0.0635 0.0247 0.5620
C16_5 C 0.2997(6) 0.0681(4) 0.5551(4)
H12_5 H 0.3460 0.0955 0.5708
O8_2 O 0.0107(4) 0.3286(2) 0.4208(2)
N4_5 N 0.0502(5) 0.1841(3) 0.5719(2)
C19_5 C 0.0846(7) 0.2609(4) 0.5091(3)
H13_5 H 0.1334 0.2874 0.4940
C21_5 C 0.1161(6) 0.2233(5) 0.5496(4)
H15_5 H 0.1865 0.2253 0.5620
In2_2 In 0.3750 0.3750 0.8750
O2_2 O 0.0107(4) 0.9214(2) 0.8292(2)
C1_5 C 0.0846(7) 0.9891(4) 0.7409(3)
H1_5 H 0.1334 0.9626 0.7560
O5_2 O 0.4062(5) 0.9464(3) 0.4383(2)
O6_2 O 0.2393(4) 0.9214(2) 0.4208(2)
C13_5 C 0.1654(7) 0.9891(4) 0.5091(3)
H9_5 H 0.1166 0.9626 0.4940
C17_5 C 0.3088(6) 0.9503(3) 0.4472(3)
C18_5 C 0.2692(6) 0.9908(3) 0.4908(3)
In3_2 In 0.3750 0.8750 0.3750
O12_5 O 0.0107(4) 0.8286(2) 0.9208(2)
C2_5 C 0.9113(6) 0.0311(4) 0.7354(3)
H2_5 H 0.8400 0.0333 0.7463
C4_5 C 0.9503(6) 0.0681(4) 0.6949(4)
H4_5 H 0.9040 0.0955 0.6792
O7_2 O 0.8438(5) 0.3036(3) 0.4383(2)
C20_5 C 0.9113(6) 0.2189(4) 0.5146(3)
H14_5 H 0.8400 0.2167 0.5037
C22_5 C 0.9503(6) 0.1819(4) 0.5551(4)
H16_5 H 0.9040 0.1545 0.5708
C23_5 C 0.9412(6) 0.2997(3) 0.4472(3)
C24_5 C 0.9808(6) 0.2592(3) 0.4908(3)
In4_2 In 0.8750 0.3750 0.3750
In1_2 In 0.8750 0.8750 0.8750
O1_2 O 0.8438(5) 0.9464(3) 0.8117(2)
C5_5 C 0.9412(6) 0.9503(3) 0.8028(3)
C6_5 C 0.9808(6) 0.9908(3) 0.7592(3)
O9_5 O 0.8438(5) 0.8036(3) 0.9383(2)
O10_5 O 0.9062(5) 0.9464(3) 0.9383(2)
O11_5 O 0.9062(5) 0.8036(3) 0.8117(2)
O13_5 O 0.7393(4) 0.9214(2) 0.9208(2)
O14_5 O 0.7393(4) 0.8286(2) 0.8292(2)
O9_6 O 0.4062(5) 0.4464(3) 0.9383(2)
O10_6 O 0.3438(5) 0.3036(3) 0.9383(2)
O11_6 O 0.3438(5) 0.4464(3) 0.8117(2)
O12_6 O 0.2393(4) 0.4214(2) 0.9208(2)
O13_6 O 0.5107(4) 0.3286(2) 0.9208(2)
O14_6 O 0.5107(4) 0.4214(2) 0.8292(2)
O9_7 O 0.4062(5) 0.8036(3) 0.3117(2)
O10_7 O 0.3438(5) 0.9464(3) 0.3117(2)
O11_7 O 0.3438(5) 0.8036(3) 0.4383(2)
O12_7 O 0.2393(4) 0.8286(2) 0.3292(2)
O13_7 O 0.5107(4) 0.9214(2) 0.3292(2)
O14_7 O 0.5107(4) 0.8286(2) 0.4208(2)
O12_8 O 0.0107(4) 0.4214(2) 0.3292(2)
O9_8 O 0.8438(5) 0.4464(3) 0.3117(2)
O10_8 O 0.9062(5) 0.3036(3) 0.3117(2)
O11_8 O 0.9062(5) 0.4464(3) 0.4383(2)
O13_8 O 0.7393(4) 0.3286(2) 0.3292(2)
O14_8 O 0.7393(4) 0.4214(2) 0.4208(2)
Cu1_6 Cu 0.1250 0.6250 0.1250
N1_6 N 0.0502(5) 0.5659(3) 0.1781(2)
C1_6 C 0.0846(7) 0.4891(4) 0.2409(3)
H1_6 H 0.1334 0.4626 0.2560
C3_6 C 0.1161(6) 0.5267(5) 0.2004(4)
H3_6 H 0.1865 0.5247 0.1880
N2_6 N 0.1998(5) 0.6841(3) 0.1781(2)
C7_6 C 0.1654(7) 0.7609(4) 0.2409(3)
H5_6 H 0.1166 0.7874 0.2560
C8_6 C 0.3387(6) 0.7189(4) 0.2354(3)
H6_6 H 0.4100 0.7167 0.2463
C9_6 C 0.1339(6) 0.7233(5) 0.2004(4)
H7_6 H 0.0635 0.7253 0.1880
C10_6 C 0.2997(6) 0.6819(4) 0.1949(4)
H8_6 H 0.3460 0.6545 0.1792
C11_6 C 0.3088(6) 0.7997(3) 0.3028(3)
C12_6 C 0.2692(6) 0.7592(3) 0.2592(3)
N3_6 N 0.1998(5) 0.5659(3) 0.0719(2)
C13_6 C 0.1654(7) 0.4891(4) 0.0091(3)
C14_6 C 0.3387(6) 0.5311(4) 0.0146(3)
H10_6 H 0.4100 0.5333 0.0037
C15_6 C 0.1339(6) 0.5267(5) 0.0496(4)
H11_6 H 0.0635 0.5247 0.0620
C16_6 C 0.2997(6) 0.5681(4) 0.0551(4)
H12_6 H 0.3460 0.5955 0.0708
N4_6 N 0.0502(5) 0.6841(3) 0.0719(2)
C19_6 C 0.0846(7) 0.7609(4) 0.0091(3)
C21_6 C 0.1161(6) 0.7233(5) 0.0496(4)
H15_6 H 0.1865 0.7253 0.0620
H9_6 H 0.1166 0.4626 0.9940
C17_6 C 0.3088(6) 0.4503(3) 0.9472(3)
C18_6 C 0.2692(6) 0.4908(3) 0.9908(3)
H13_6 H 0.1334 0.7874 0.9940
C2_6 C 0.9113(6) 0.5311(4) 0.2354(3)
H2_6 H 0.8400 0.5333 0.2463
C4_6 C 0.9503(6) 0.5681(4) 0.1949(4)
H4_6 H 0.9040 0.5955 0.1792
C5_6 C 0.9412(6) 0.4503(3) 0.3028(3)
C6_6 C 0.9808(6) 0.4908(3) 0.2592(3)
C20_6 C 0.9113(6) 0.7189(4) 0.0146(3)
H14_6 H 0.8400 0.7167 0.0037
C22_6 C 0.9503(6) 0.6819(4) 0.0551(4)
H16_6 H 0.9040 0.6545 0.0708
C23_6 C 0.9412(6) 0.7997(3) 0.9472(3)
C24_6 C 0.9808(6) 0.7592(3) 0.9908(3)
Cu1_7 Cu 0.6250 0.1250 0.1250
N1_7 N 0.5502(5) 0.0659(3) 0.1781(2)
C2_7 C 0.4113(6) 0.0311(4) 0.2354(3)
H2_7 H 0.3400 0.0333 0.2463
C3_7 C 0.6161(6) 0.0267(5) 0.2004(4)
H3_7 H 0.6865 0.0247 0.1880
C4_7 C 0.4503(6) 0.0681(4) 0.1949(4)
H4_7 H 0.4040 0.0955 0.1792
N2_7 N 0.6998(5) 0.1841(3) 0.1781(2)
C7_7 C 0.6654(7) 0.2609(4) 0.2409(3)
H5_7 H 0.6166 0.2874 0.2560
C8_7 C 0.8387(6) 0.2189(4) 0.2354(3)
H6_7 H 0.9100 0.2167 0.2463
C9_7 C 0.6339(6) 0.2233(5) 0.2004(4)
H7_7 H 0.5635 0.2253 0.1880
C10_7 C 0.7997(6) 0.1819(4) 0.1949(4)
H8_7 H 0.8460 0.1545 0.1792
C11_7 C 0.8088(6) 0.2997(3) 0.3028(3)
C12_7 C 0.7692(6) 0.2592(3) 0.2592(3)
N3_7 N 0.6998(5) 0.0659(3) 0.0719(2)
C14_7 C 0.8387(6) 0.0311(4) 0.0146(3)
H10_7 H 0.9100 0.0333 0.0037
C15_7 C 0.6339(6) 0.0267(5) 0.0496(4)
H11_7 H 0.5635 0.0247 0.0620
C16_7 C 0.7997(6) 0.0681(4) 0.0551(4)
H12_7 H 0.8460 0.0955 0.0708
N4_7 N 0.5502(5) 0.1841(3) 0.0719(2)
C19_7 C 0.5846(7) 0.2609(4) 0.0091(3)
C20_7 C 0.4113(6) 0.2189(4) 0.0146(3)
H14_7 H 0.3400 0.2167 0.0037
C21_7 C 0.6161(6) 0.2233(5) 0.0496(4)
H15_7 H 0.6865 0.2253 0.0620
C22_7 C 0.4503(6) 0.1819(4) 0.0551(4)
H16_7 H 0.4040 0.1545 0.0708
H13_7 H 0.6334 0.2874 0.9940
C23_7 C 0.4412(6) 0.2997(3) 0.9472(3)
C24_7 C 0.4808(6) 0.2592(3) 0.9908(3)
C1_7 C 0.5846(7) 0.9891(4) 0.2409(3)
H1_7 H 0.6334 0.9626 0.2560
C5_7 C 0.4412(6) 0.9503(3) 0.3028(3)
C6_7 C 0.4808(6) 0.9908(3) 0.2592(3)
C13_7 C 0.6654(7) 0.9891(4) 0.0091(3)
H9_7 H 0.6166 0.9626 0.9940
C17_7 C 0.8088(6) 0.9503(3) 0.9472(3)
C18_7 C 0.7692(6) 0.9908(3) 0.9908(3)
Cu1_8 Cu 0.6250 0.6250 0.6250
N1_8 N 0.5502(5) 0.5659(3) 0.6781(2)
C1_8 C 0.5846(7) 0.4891(4) 0.7409(3)
H1_8 H 0.6334 0.4626 0.7560
C2_8 C 0.4113(6) 0.5311(4) 0.7354(3)
H2_8 H 0.3400 0.5333 0.7463
C3_8 C 0.6161(6) 0.5267(5) 0.7004(4)
H3_8 H 0.6865 0.5247 0.6880
C4_8 C 0.4503(6) 0.5681(4) 0.6949(4)
H4_8 H 0.4040 0.5955 0.6792
C5_8 C 0.4412(6) 0.4503(3) 0.8028(3)
C6_8 C 0.4808(6) 0.4908(3) 0.7592(3)
N2_8 N 0.6998(5) 0.6841(3) 0.6781(2)
C7_8 C 0.6654(7) 0.7609(4) 0.7409(3)
H5_8 H 0.6166 0.7874 0.7560
C8_8 C 0.8387(6) 0.7189(4) 0.7354(3)
H6_8 H 0.9100 0.7167 0.7463
C9_8 C 0.6339(6) 0.7233(5) 0.7004(4)
H7_8 H 0.5635 0.7253 0.6880
C10_8 C 0.7997(6) 0.6819(4) 0.6949(4)
H8_8 H 0.8460 0.6545 0.6792
C11_8 C 0.8088(6) 0.7997(3) 0.8028(3)
C12_8 C 0.7692(6) 0.7592(3) 0.7592(3)
N3_8 N 0.6998(5) 0.5659(3) 0.5719(2)
C13_8 C 0.6654(7) 0.4891(4) 0.5091(3)
H9_8 H 0.6166 0.4626 0.4940
C14_8 C 0.8387(6) 0.5311(4) 0.5146(3)
H10_8 H 0.9100 0.5333 0.5037
C15_8 C 0.6339(6) 0.5267(5) 0.5496(4)
H11_8 H 0.5635 0.5247 0.5620
C16_8 C 0.7997(6) 0.5681(4) 0.5551(4)
H12_8 H 0.8460 0.5955 0.5708
C17_8 C 0.8088(6) 0.4503(3) 0.4472(3)
C18_8 C 0.7692(6) 0.4908(3) 0.4908(3)
N4_8 N 0.5502(5) 0.6841(3) 0.5719(2)
C19_8 C 0.5846(7) 0.7609(4) 0.5091(3)
H13_8 H 0.6334 0.7874 0.4940
C20_8 C 0.4113(6) 0.7189(4) 0.5146(3)
H14_8 H 0.3400 0.7167 0.5037
C21_8 C 0.6161(6) 0.7233(5) 0.5496(4)
H15_8 H 0.6865 0.7253 0.5620
C22_8 C 0.4503(6) 0.6819(4) 0.5551(4)
H16_8 H 0.4040 0.6545 0.5708
C23_8 C 0.4412(6) 0.7997(3) 0.4472(3)
C24_8 C 0.4808(6) 0.7592(3) 0.4908(3)
loop_
_geom_bond_atom_site_label_1
_geom_bond_atom_site_label_2
_geom_bond_site_symmetry_1
_geom_bond_site_symmetry_2
In1 O1 1_555 1_555
O1 C5 1_555 1_555
O9 In1 1_555 1_555
O10 In1 1_555 1_555
O11 In1 1_555 1_555
O13 In1 1_555 1_555
O14 In1 1_555 1_555
C5 C6 1_555 1_555
C2 H2 1_555 1_555
H4 C4 1_555 1_555
O7 C23 1_555 1_555
C20 H14 1_555 1_555
H16 C22 1_555 1_555
C23 C24 1_555 1_555
In4 O7 1_555 1_555
C2 C4 1_555 1_555
C20 C22 1_555 1_555
C20 C24 1_555 1_555
C1 H1 1_555 1_555
O5 C17 1_555 1_555
O6 C17 1_555 1_555
C13 H9 1_555 1_555
C17 C18 1_555 1_555
C18 C13 1_555 1_555
In3 O5 1_555 1_555
O6 In3 1_555 1_555
Cu1 N1 1_555 1_555
N1 C3 1_555 1_555
H3 C3 1_555 1_555
O3 C11 1_555 1_555
O4 C11 1_555 1_555
N2 Cu1 1_555 1_555
C7 H5 1_555 1_555
C8 H6 1_555 1_555
C9 N2 1_555 1_555
H7 C9 1_555 1_555
C10 N2 1_555 1_555
H8 C10 1_555 1_555
C11 C12 1_555 1_555
C12 C7 1_555 1_555
N3 Cu1 1_555 1_555
C14 H10 1_555 1_555
C15 N3 1_555 1_555
H11 C15 1_555 1_555
C16 N3 1_555 1_555
H12 C16 1_555 1_555
N4 Cu1 1_555 1_555
C19 H13 1_555 1_555
C21 N4 1_555 1_555
H15 C21 1_555 1_555
In2 O3 1_555 1_555
O4 In2 1_555 1_555
C7 C9 1_555 1_555
C8 C10 1_555 1_555
C8 C12 1_555 1_555
C14 C16 1_555 1_555
C19 C21 1_555 1_555
O9_2 In2 1_555 1_555
O10_2 In2 1_555 1_555
O11_2 In2 1_555 1_555
O12_2 In2 1_555 1_555
O13_2 In2 1_555 1_555
O14_2 In2 1_555 1_555
O9_3 In3 1_555 1_555
O10_3 In3 1_555 1_555
O11_3 In3 1_555 1_555
O12_3 In3 1_555 1_555
O13_3 In3 1_555 1_555
O14_3 In3 1_555 1_555
O9_4 In4 1_555 1_555
O10_4 In4 1_555 1_555
O11_4 In4 1_555 1_555
O13_4 In4 1_555 1_555
O14_4 In4 1_555 1_555
O9 C23_2 1_555 1_555
C23_2 C24_2 1_555 1_555
O9_4 C5_2 1_555 1_555
C2_2 H2_2 1_555 1_555
H4_2 C4_2 1_555 1_555
C20_2 H14_2 1_555 1_555
H16_2 C22_2 1_555 1_555
C2_2 C4_2 1_555 1_555
C2_2 C6_2 1_555 1_555
C5_2 C6_2 1_555 1_555
C20_2 C22_2 1_555 1_555
O9_2 C17_2 1_555 1_555
O12_2 C17_2 1_555 1_555
C17_2 C18_2 1_555 1_555
Cu1_2 N1_2 1_555 1_555
N1_2 C3_2 1_555 1_555
C1_2 H1_2 1_555 1_555
C3_2 C1_2 1_555 1_555
H3_2 C3_2 1_555 1_555
O9_3 C11_2 1_555 1_555
O12_3 C11_2 1_555 1_555
N2_2 Cu1_2 1_555 1_555
C7_2 H5_2 1_555 1_555
C8_2 H6_2 1_555 1_555
C9_2 N2_2 1_555 1_555
H7_2 C9_2 1_555 1_555
C10_2 N2_2 1_555 1_555
H8_2 C10_2 1_555 1_555
C11_2 C12_2 1_555 1_555
C12_2 C7_2 1_555 1_555
N3_2 Cu1_2 1_555 1_555
C14_2 H10_2 1_555 1_555
C15_2 N3_2 1_555 1_555
H11_2 C15_2 1_555 1_555
C16_2 N3_2 1_555 1_555
H12_2 C16_2 1_555 1_555
N4_2 Cu1_2 1_555 1_555
C21_2 N4_2 1_555 1_555
H15_2 C21_2 1_555 1_555
C7_2 C9_2 1_555 1_555
C8_2 C10_2 1_555 1_555
C8_2 C12_2 1_555 1_555
C13_2 C15_2 1_555 1_555
C14_2 C16_2 1_555 1_555
C19_2 C21_2 1_555 1_555
O10 C17_3 1_555 1_555
O13 C17_3 1_555 1_555
C17_3 C18_3 1_555 1_555
O10_3 C5_3 1_555 1_555
C1_3 H1_3 1_555 1_555
C5_3 O13_3 1_555 1_555
C6_3 C1_3 1_555 1_555
C5_3 C6_3 1_555 1_555
O10_2 C23_3 1_555 1_555
O13_2 C23_3 1_555 1_555
C23_3 C24_3 1_555 1_555
Cu1_3 N1_3 1_555 1_555
N1_3 C3_3 1_555 1_555
C2_3 H2_3 1_555 1_555
H3_3 C3_3 1_555 1_555
C4_3 N1_3 1_555 1_555
H4_3 C4_3 1_555 1_555
O10_4 C11_3 1_555 1_555
O13_4 C11_3 1_555 1_555
N2_3 Cu1_3 1_555 1_555
C7_3 H5_3 1_555 1_555
C8_3 H6_3 1_555 1_555
C9_3 N2_3 1_555 1_555
H7_3 C9_3 1_555 1_555
C10_3 N2_3 1_555 1_555
H8_3 C10_3 1_555 1_555
C11_3 C12_3 1_555 1_555
C12_3 C7_3 1_555 1_555
N3_3 Cu1_3 1_555 1_555
C14_3 H10_3 1_555 1_555
C15_3 N3_3 1_555 1_555
H11_3 C15_3 1_555 1_555
C16_3 N3_3 1_555 1_555
H12_3 C16_3 1_555 1_555
N4_3 Cu1_3 1_555 1_555
C20_3 H14_3 1_555 1_555
C21_3 N4_3 1_555 1_555
H15_3 C21_3 1_555 1_555
C22_3 N4_3 1_555 1_555
H16_3 C22_3 1_555 1_555
C2_3 C4_3 1_555 1_555
C7_3 C9_3 1_555 1_555
C8_3 C10_3 1_555 1_555
C8_3 C12_3 1_555 1_555
C14_3 C16_3 1_555 1_555
C19_3 C21_3 1_555 1_555
C20_3 C22_3 1_555 1_555
Cu1_4 N1_4 1_555 1_555
O11_2 C5_4 1_555 1_555
N1_4 C3_4 1_555 1_555
C1_4 H1_4 1_555 1_555
C2_4 H2_4 1_555 1_555
C3_4 C1_4 1_555 1_555
H3_4 C3_4 1_555 1_555
C4_4 N1_4 1_555 1_555
H4_4 C4_4 1_555 1_555
C5_4 O14_2 1_555 1_555
C6_4 C1_4 1_555 1_555
O11 C11_4 1_555 1_555
O14 C11_4 1_555 1_555
N2_4 Cu1_4 1_555 1_555
C7_4 H5_4 1_555 1_555
C8_4 H6_4 1_555 1_555
C9_4 N2_4 1_555 1_555
H7_4 C9_4 1_555 1_555
C10_4 N2_4 1_555 1_555
H8_4 C10_4 1_555 1_555
C11_4 C12_4 1_555 1_555
C12_4 C7_4 1_555 1_555
O11_4 C17_4 1_555 1_555
O14_4 C17_4 1_555 1_555
N3_4 Cu1_4 1_555 1_555
C13_4 H9_4 1_555 1_555
C14_4 H10_4 1_555 1_555
C15_4 N3_4 1_555 1_555
H11_4 C15_4 1_555 1_555
C16_4 N3_4 1_555 1_555
H12_4 C16_4 1_555 1_555
C17_4 C18_4 1_555 1_555
C18_4 C13_4 1_555 1_555
O11_3 C23_4 1_555 1_555
O14_3 C23_4 1_555 1_555
N4_4 Cu1_4 1_555 1_555
C19_4 H13_4 1_555 1_555
C20_4 H14_4 1_555 1_555
C21_4 N4_4 1_555 1_555
H15_4 C21_4 1_555 1_555
C22_4 N4_4 1_555 1_555
H16_4 C22_4 1_555 1_555
C23_4 C24_4 1_555 1_555
C24_4 C19_4 1_555 1_555
C2_4 C4_4 1_555 1_555
C2_4 C6_4 1_555 1_555
C5_4 C6_4 1_555 1_555
C7_4 C9_4 1_555 1_555
C8_4 C10_4 1_555 1_555
C8_4 C12_4 1_555 1_555
C13_4 C15_4 1_555 1_555
C14_4 C16_4 1_555 1_555
C14_4 C18_4 1_555 1_555
C19_4 C21_4 1_555 1_555
C20_4 C22_4 1_555 1_555
C20_4 C24_4 1_555 1_555
Cu1_5 N1_5 1_555 1_555
N1_5 C3_5 1_555 1_555
H3_5 C3_5 1_555 1_555
O3_2 C11_5 1_555 1_555
O4_2 C11_5 1_555 1_555
N2_5 Cu1_5 1_555 1_555
C7_5 H5_5 1_555 1_555
C8_5 H6_5 1_555 1_555
C9_5 N2_5 1_555 1_555
H7_5 C9_5 1_555 1_555
C10_5 N2_5 1_555 1_555
H8_5 C10_5 1_555 1_555
C11_5 C12_5 1_555 1_555
C12_5 C7_5 1_555 1_555
N3_5 Cu1_5 1_555 1_555
C14_5 H10_5 1_555 1_555
C15_5 N3_5 1_555 1_555
H11_5 C15_5 1_555 1_555
C16_5 N3_5 1_555 1_555
H12_5 C16_5 1_555 1_555
N4_5 Cu1_5 1_555 1_555
C19_5 H13_5 1_555 1_555
C21_5 N4_5 1_555 1_555
H15_5 C21_5 1_555 1_555
In2_2 O3_2 1_555 1_555
O4_2 In2_2 1_555 1_555
C7_5 C9_5 1_555 1_555
C8_5 C10_5 1_555 1_555
C8_5 C12_5 1_555 1_555
C14_5 C16_5 1_555 1_555
C19_5 C21_5 1_555 1_555
C1_5 H1_5 1_555 1_555
O5_2 C17_5 1_555 1_555
O6_2 C17_5 1_555 1_555
C13_5 H9_5 1_555 1_555
C17_5 C18_5 1_555 1_555
C18_5 C13_5 1_555 1_555
In3_2 O5_2 1_555 1_555
O6_2 In3_2 1_555 1_555
C2_5 H2_5 1_555 1_555
H4_5 C4_5 1_555 1_555
O7_2 C23_5 1_555 1_555
C20_5 H14_5 1_555 1_555
H16_5 C22_5 1_555 1_555
C23_5 C24_5 1_555 1_555
In4_2 O7_2 1_555 1_555
C2_5 C4_5 1_555 1_555
C20_5 C22_5 1_555 1_555
C20_5 C24_5 1_555 1_555
In1_2 O1_2 1_555 1_555
O1_2 C5_5 1_555 1_555
O9_5 In1_2 1_555 1_555
O10_5 In1_2 1_555 1_555
O11_5 In1_2 1_555 1_555
O13_5 In1_2 1_555 1_555
O14_5 In1_2 1_555 1_555
C5_5 C6_5 1_555 1_555
O9_6 In2_2 1_555 1_555
O10_6 In2_2 1_555 1_555
O11_6 In2_2 1_555 1_555
O12_6 In2_2 1_555 1_555
O13_6 In2_2 1_555 1_555
O14_6 In2_2 1_555 1_555
O9_7 In3_2 1_555 1_555
O10_7 In3_2 1_555 1_555
O11_7 In3_2 1_555 1_555
O12_7 In3_2 1_555 1_555
O13_7 In3_2 1_555 1_555
O14_7 In3_2 1_555 1_555
O9_8 In4_2 1_555 1_555
O10_8 In4_2 1_555 1_555
O11_8 In4_2 1_555 1_555
O13_8 In4_2 1_555 1_555
O14_8 In4_2 1_555 1_555
Cu1_6 N1_6 1_555 1_555
N1_6 C3_6 1_555 1_555
C1_6 H1_6 1_555 1_555
C3_6 C1_6 1_555 1_555
H3_6 C3_6 1_555 1_555
O9_7 C11_6 1_555 1_555
O12_7 C11_6 1_555 1_555
N2_6 Cu1_6 1_555 1_555
C7_6 H5_6 1_555 1_555
C8_6 H6_6 1_555 1_555
C9_6 N2_6 1_555 1_555
H7_6 C9_6 1_555 1_555
C10_6 N2_6 1_555 1_555
H8_6 C10_6 1_555 1_555
C11_6 C12_6 1_555 1_555
C12_6 C7_6 1_555 1_555
N3_6 Cu1_6 1_555 1_555
C14_6 H10_6 1_555 1_555
C15_6 N3_6 1_555 1_555
H11_6 C15_6 1_555 1_555
C16_6 N3_6 1_555 1_555
H12_6 C16_6 1_555 1_555
N4_6 Cu1_6 1_555 1_555
C21_6 N4_6 1_555 1_555
H15_6 C21_6 1_555 1_555
C7_6 C9_6 1_555 1_555
C8_6 C10_6 1_555 1_555
C8_6 C12_6 1_555 1_555
C13_6 C15_6 1_555 1_555
C14_6 C16_6 1_555 1_555
C19_6 C21_6 1_555 1_555
O9_6 C17_6 1_555 1_555
O12_6 C17_6 1_555 1_555
C17_6 C18_6 1_555 1_555
O9_8 C5_6 1_555 1_555
C2_6 H2_6 1_555 1_555
H4_6 C4_6 1_555 1_555
C20_6 H14_6 1_555 1_555
H16_6 C22_6 1_555 1_555
C2_6 C4_6 1_555 1_555
C2_6 C6_6 1_555 1_555
C5_6 C6_6 1_555 1_555
C20_6 C22_6 1_555 1_555
O9_5 C23_6 1_555 1_555
C23_6 C24_6 1_555 1_555
Cu1_7 N1_7 1_555 1_555
N1_7 C3_7 1_555 1_555
C2_7 H2_7 1_555 1_555
H3_7 C3_7 1_555 1_555
C4_7 N1_7 1_555 1_555
H4_7 C4_7 1_555 1_555
O10_8 C11_7 1_555 1_555
O13_8 C11_7 1_555 1_555
N2_7 Cu1_7 1_555 1_555
C7_7 H5_7 1_555 1_555
C8_7 H6_7 1_555 1_555
C9_7 N2_7 1_555 1_555
H7_7 C9_7 1_555 1_555
C10_7 N2_7 1_555 1_555
H8_7 C10_7 1_555 1_555
C11_7 C12_7 1_555 1_555
C12_7 C7_7 1_555 1_555
N3_7 Cu1_7 1_555 1_555
C14_7 H10_7 1_555 1_555
C15_7 N3_7 1_555 1_555
H11_7 C15_7 1_555 1_555
C16_7 N3_7 1_555 1_555
H12_7 C16_7 1_555 1_555
N4_7 Cu1_7 1_555 1_555
C20_7 H14_7 1_555 1_555
C21_7 N4_7 1_555 1_555
H15_7 C21_7 1_555 1_555
C22_7 N4_7 1_555 1_555
H16_7 C22_7 1_555 1_555
C2_7 C4_7 1_555 1_555
C7_7 C9_7 1_555 1_555
C8_7 C10_7 1_555 1_555
C8_7 C12_7 1_555 1_555
C14_7 C16_7 1_555 1_555
C19_7 C21_7 1_555 1_555
C20_7 C22_7 1_555 1_555
O10_6 C23_7 1_555 1_555
O13_6 C23_7 1_555 1_555
C23_7 C24_7 1_555 1_555
O10_7 C5_7 1_555 1_555
C1_7 H1_7 1_555 1_555
C5_7 O13_7 1_555 1_555
C6_7 C1_7 1_555 1_555
C5_7 C6_7 1_555 1_555
O10_5 C17_7 1_555 1_555
O13_5 C17_7 1_555 1_555
C17_7 C18_7 1_555 1_555
Cu1_8 N1_8 1_555 1_555
O11_6 C5_8 1_555 1_555
N1_8 C3_8 1_555 1_555
C1_8 H1_8 1_555 1_555
C2_8 H2_8 1_555 1_555
C3_8 C1_8 1_555 1_555
H3_8 C3_8 1_555 1_555
C4_8 N1_8 1_555 1_555
H4_8 C4_8 1_555 1_555
C5_8 O14_6 1_555 1_555
C6_8 C1_8 1_555 1_555
O11_5 C11_8 1_555 1_555
O14_5 C11_8 1_555 1_555
N2_8 Cu1_8 1_555 1_555
C7_8 H5_8 1_555 1_555
C8_8 H6_8 1_555 1_555
C9_8 N2_8 1_555 1_555
H7_8 C9_8 1_555 1_555
C10_8 N2_8 1_555 1_555
H8_8 C10_8 1_555 1_555
C11_8 C12_8 1_555 1_555
C12_8 C7_8 1_555 1_555
O11_8 C17_8 1_555 1_555
O14_8 C17_8 1_555 1_555
N3_8 Cu1_8 1_555 1_555
C13_8 H9_8 1_555 1_555
C14_8 H10_8 1_555 1_555
C15_8 N3_8 1_555 1_555
H11_8 C15_8 1_555 1_555
C16_8 N3_8 1_555 1_555
H12_8 C16_8 1_555 1_555
C17_8 C18_8 1_555 1_555
C18_8 C13_8 1_555 1_555
O11_7 C23_8 1_555 1_555
O14_7 C23_8 1_555 1_555
N4_8 Cu1_8 1_555 1_555
C19_8 H13_8 1_555 1_555
C20_8 H14_8 1_555 1_555
C21_8 N4_8 1_555 1_555
H15_8 C21_8 1_555 1_555
C22_8 N4_8 1_555 1_555
H16_8 C22_8 1_555 1_555
C23_8 C24_8 1_555 1_555
C24_8 C19_8 1_555 1_555
C2_8 C4_8 1_555 1_555
C2_8 C6_8 1_555 1_555
C5_8 C6_8 1_555 1_555
C7_8 C9_8 1_555 1_555
C8_8 C10_8 1_555 1_555
C8_8 C12_8 1_555 1_555
C13_8 C15_8 1_555 1_555
C14_8 C16_8 1_555 1_555
C14_8 C18_8 1_555 1_555
C19_8 C21_8 1_555 1_555
C20_8 C22_8 1_555 1_555
C20_8 C24_8 1_555 1_555

#END
