
###############################################################################
#
# This file contains modified crystal structure data generated from the
# MOF subset of the Cambridge Structural Database (CSD) v543 
# hosted by the Cambridge Crystallographic Data Centre (CCDC).
#
# This work is licensed under the Creative Commons
# Attribution-NonCommercial-ShareAlike 4.0 International License.
# To view a copy of this license, visit
# http://creativecommons.org/licenses/by-nc-sa/4.0/
# or send a letter to
# Creative Commons, PO Box 1866, Mountain View, CA 94042, USA.
#
# CIF created using the CSD Python API on 29 September 2022
# The structure has been converted into the P1 space group
# The structure has a 3D framework
# The original CSD entry RITDEF is in the orthorhombic crystal system
# The framework has been calculated to contain at least 10.0% void space
# The void calculation uses a probe of radius 1.32A, grid spacing 0.4
#
###############################################################################

data_RITDEF
_chemical_formula_moiety         '(C192 H128 Ag8 In2 N32 O64)n'
_symmetry_cell_setting           triclinic
_symmetry_space_group_name_H-M   'P 1'
_symmetry_Int_Tables_number      1
_space_group_name_Hall           'P 1'
loop_
_symmetry_equiv_pos_site_id
_symmetry_equiv_pos_as_xyz
1 x,y,z
_cell_length_a                   12.0412(8)
_cell_length_b                   23.6221(17)
_cell_length_c                   25.381(2)
_cell_angle_alpha                90
_cell_angle_beta                 90
_cell_angle_gamma                90
_cell_volume                     7219.33
loop_
_atom_site_label
_atom_site_type_symbol
_atom_site_fract_x
_atom_site_fract_y
_atom_site_fract_z
In1 In 0.1250 0.1250 0.1250
O1 O 0.1557(4) 0.0563(2) 0.1862(2)
C5 C 0.0563(7) 0.0518(3) 0.1953(3)
C6 C 0.0193(5) 0.0127(3) 0.2383(3)
O9 O 0.1557(4) 0.1937(2) 0.0638(2)
O10 O 0.0943(4) 0.0563(2) 0.0638(2)
O11 O 0.0943(4) 0.1937(2) 0.1862(2)
O13 O 0.2653(4) 0.08147(19) 0.07950(19)
O14 O 0.2653(4) 0.16853(19) 0.17050(19)
C2 C 0.0907(7) 0.9727(3) 0.2593(4)
H2 H 0.1631 0.9700 0.2469
C4 C 0.0550(6) 0.9369(3) 0.2984(3)
H4 H 0.1036 0.9096 0.3113
O7 O 0.1557(4) 0.6937(2) 0.5638(2)
C20 C 0.0907(7) 0.7773(3) 0.4907(4)
H14 H 0.1631 0.7800 0.5031
C22 C 0.0550(6) 0.8131(3) 0.4516(3)
H16 H 0.1036 0.8404 0.4387
C23 C 0.0563(7) 0.6982(3) 0.5547(3)
C24 C 0.0193(5) 0.7373(3) 0.5117(3)
In4 In 0.1250 0.6250 0.6250
O2 O 0.9847(4) 0.08147(19) 0.17050(19)
C1 C 0.9145(7) 0.0150(4) 0.2585(3)
H1 H 0.8636 0.0409 0.2452
O5 O 0.5943(4) 0.0563(2) 0.5638(2)
O6 O 0.7653(4) 0.08147(19) 0.57950(19)
C13 C 0.8355(7) 0.0150(4) 0.4915(3)
H9 H 0.8864 0.0409 0.5048
C17 C 0.6937(7) 0.0518(3) 0.5547(3)
C18 C 0.7307(5) 0.0127(3) 0.5117(3)
In3 In 0.6250 0.1250 0.6250
O12 O 0.9847(4) 0.16853(19) 0.07950(19)
N1 N 0.9530(5) 0.9400(3) 0.3184(3)
Ag1 Ag 0.8750 0.8750 0.3750
C3 C 0.8840(6) 0.9789(5) 0.2987(4)
H3 H 0.8127 0.9818 0.3125
N2 N 0.7970(5) 0.8100(3) 0.3184(3)
O3 O 0.5943(4) 0.6937(2) 0.1862(2)
O4 O 0.7653(4) 0.66853(19) 0.17050(19)
C7 C 0.8355(7) 0.7350(4) 0.2585(3)
H5 H 0.8864 0.7091 0.2452
C8 C 0.6593(7) 0.7773(3) 0.2593(4)
H6 H 0.5869 0.7800 0.2469
C9 C 0.8660(6) 0.7711(5) 0.2987(4)
H7 H 0.9373 0.7682 0.3125
C10 C 0.6950(6) 0.8131(3) 0.2984(3)
H8 H 0.6464 0.8404 0.3113
C11 C 0.6937(7) 0.6982(3) 0.1953(3)
C12 C 0.7307(5) 0.7373(3) 0.2383(3)
N3 N 0.7970(5) 0.9400(3) 0.4316(3)
C14 C 0.6593(7) 0.9727(3) 0.4907(4)
H10 H 0.5869 0.9700 0.5031
C15 C 0.8660(6) 0.9789(5) 0.4513(4)
H11 H 0.9373 0.9818 0.4375
C16 C 0.6950(6) 0.9369(3) 0.4516(3)
H12 H 0.6464 0.9096 0.4387
N4 N 0.9530(5) 0.8100(3) 0.4316(3)
O8 O 0.9847(4) 0.66853(19) 0.57950(19)
C19 C 0.9145(7) 0.7350(4) 0.4915(3)
H13 H 0.8636 0.7091 0.5048
C21 C 0.8840(6) 0.7711(5) 0.4513(4)
H15 H 0.8127 0.7682 0.4375
In2 In 0.6250 0.6250 0.1250
O9_2 O 0.5943(4) 0.5563(2) 0.0638(2)
O10_2 O 0.6557(4) 0.6937(2) 0.0638(2)
O11_2 O 0.6557(4) 0.5563(2) 0.1862(2)
O12_2 O 0.7653(4) 0.58147(19) 0.07950(19)
O13_2 O 0.4847(4) 0.66853(19) 0.07950(19)
O14_2 O 0.4847(4) 0.58147(19) 0.17050(19)
O9_3 O 0.5943(4) 0.1937(2) 0.6862(2)
O10_3 O 0.6557(4) 0.0563(2) 0.6862(2)
O11_3 O 0.6557(4) 0.1937(2) 0.5638(2)
O12_3 O 0.7653(4) 0.16853(19) 0.67050(19)
O13_3 O 0.4847(4) 0.08147(19) 0.67050(19)
O14_3 O 0.4847(4) 0.16853(19) 0.57950(19)
O9_4 O 0.1557(4) 0.5563(2) 0.6862(2)
O10_4 O 0.0943(4) 0.6937(2) 0.6862(2)
O11_4 O 0.0943(4) 0.5563(2) 0.5638(2)
O13_4 O 0.2653(4) 0.66853(19) 0.67050(19)
O14_4 O 0.2653(4) 0.58147(19) 0.57950(19)
O12_4 O 0.9847(4) 0.58147(19) 0.67050(19)
H14_2 H 0.1631 0.2800 0.0031
C23_2 C 0.0563(7) 0.1982(3) 0.0547(3)
C24_2 C 0.0193(5) 0.2373(3) 0.0117(3)
C2_2 C 0.0907(7) 0.4727(3) 0.7593(4)
H2_2 H 0.1631 0.4700 0.7469
C4_2 C 0.0550(6) 0.4369(3) 0.7984(3)
H4_2 H 0.1036 0.4096 0.8113
C5_2 C 0.0563(7) 0.5518(3) 0.6953(3)
C6_2 C 0.0193(5) 0.5127(3) 0.7383(3)
C20_2 C 0.0907(7) 0.2773(3) 0.9907(4)
C22_2 C 0.0550(6) 0.3131(3) 0.9516(3)
H16_2 H 0.1036 0.3404 0.9387
H9_2 H 0.8864 0.5409 0.0048
H10_2 H 0.5869 0.4700 0.0031
C17_2 C 0.6937(7) 0.5518(3) 0.0547(3)
C18_2 C 0.7307(5) 0.5127(3) 0.0117(3)
H13_2 H 0.8636 0.2091 0.0048
N1_2 N 0.9530(5) 0.4400(3) 0.8184(3)
Ag1_2 Ag 0.8750 0.3750 0.8750
C1_2 C 0.9145(7) 0.5150(4) 0.7585(3)
H1_2 H 0.8636 0.5409 0.7452
C3_2 C 0.8840(6) 0.4789(5) 0.7987(4)
H3_2 H 0.8127 0.4818 0.8125
N2_2 N 0.7970(5) 0.3100(3) 0.8184(3)
C7_2 C 0.8355(7) 0.2350(4) 0.7585(3)
H5_2 H 0.8864 0.2091 0.7452
C8_2 C 0.6593(7) 0.2773(3) 0.7593(4)
H6_2 H 0.5869 0.2800 0.7469
C9_2 C 0.8660(6) 0.2711(5) 0.7987(4)
H7_2 H 0.9373 0.2682 0.8125
C10_2 C 0.6950(6) 0.3131(3) 0.7984(3)
H8_2 H 0.6464 0.3404 0.8113
C11_2 C 0.6937(7) 0.1982(3) 0.6953(3)
C12_2 C 0.7307(5) 0.2373(3) 0.7383(3)
N3_2 N 0.7970(5) 0.4400(3) 0.9316(3)
C13_2 C 0.8355(7) 0.5150(4) 0.9915(3)
C14_2 C 0.6593(7) 0.4727(3) 0.9907(4)
C15_2 C 0.8660(6) 0.4789(5) 0.9513(4)
H11_2 H 0.9373 0.4818 0.9375
C16_2 C 0.6950(6) 0.4369(3) 0.9516(3)
H12_2 H 0.6464 0.4096 0.9387
N4_2 N 0.9530(5) 0.3100(3) 0.9316(3)
C19_2 C 0.9145(7) 0.2350(4) 0.9915(3)
C21_2 C 0.8840(6) 0.2711(5) 0.9513(4)
H15_2 H 0.8127 0.2682 0.9375
H9_3 H 0.3864 0.0409 0.0048
C17_3 C 0.1937(7) 0.0518(3) 0.0547(3)
C18_3 C 0.2307(5) 0.0127(3) 0.0117(3)
C1_3 C 0.4145(7) 0.0150(4) 0.7585(3)
H1_3 H 0.3636 0.0409 0.7452
C5_3 C 0.5563(7) 0.0518(3) 0.6953(3)
C6_3 C 0.5193(5) 0.0127(3) 0.7383(3)
C13_3 C 0.3355(7) 0.0150(4) 0.9915(3)
H10_3 H 0.0869 0.9700 0.0031
H13_3 H 0.3636 0.7091 0.0048
H14_3 H 0.6631 0.7800 0.0031
C23_3 C 0.5563(7) 0.6982(3) 0.0547(3)
C24_3 C 0.5193(5) 0.7373(3) 0.0117(3)
N1_3 N 0.4530(5) 0.9400(3) 0.8184(3)
Ag1_3 Ag 0.3750 0.8750 0.8750
C2_3 C 0.5907(7) 0.9727(3) 0.7593(4)
H2_3 H 0.6631 0.9700 0.7469
C3_3 C 0.3840(6) 0.9789(5) 0.7987(4)
H3_3 H 0.3127 0.9818 0.8125
C4_3 C 0.5550(6) 0.9369(3) 0.7984(3)
H4_3 H 0.6036 0.9096 0.8113
N2_3 N 0.2970(5) 0.8100(3) 0.8184(3)
C7_3 C 0.3355(7) 0.7350(4) 0.7585(3)
H5_3 H 0.3864 0.7091 0.7452
C8_3 C 0.1593(7) 0.7773(3) 0.7593(4)
H6_3 H 0.0869 0.7800 0.7469
C9_3 C 0.3660(6) 0.7711(5) 0.7987(4)
H7_3 H 0.4373 0.7682 0.8125
C10_3 C 0.1950(6) 0.8131(3) 0.7984(3)
H8_3 H 0.1464 0.8404 0.8113
C11_3 C 0.1937(7) 0.6982(3) 0.6953(3)
C12_3 C 0.2307(5) 0.7373(3) 0.7383(3)
N3_3 N 0.2970(5) 0.9400(3) 0.9316(3)
C14_3 C 0.1593(7) 0.9727(3) 0.9907(4)
C15_3 C 0.3660(6) 0.9789(5) 0.9513(4)
H11_3 H 0.4373 0.9818 0.9375
C16_3 C 0.1950(6) 0.9369(3) 0.9516(3)
H12_3 H 0.1464 0.9096 0.9387
N4_3 N 0.4530(5) 0.8100(3) 0.9316(3)
C19_3 C 0.4145(7) 0.7350(4) 0.9915(3)
C20_3 C 0.5907(7) 0.7773(3) 0.9907(4)
C21_3 C 0.3840(6) 0.7711(5) 0.9513(4)
H15_3 H 0.3127 0.7682 0.9375
C22_3 C 0.5550(6) 0.8131(3) 0.9516(3)
H16_3 H 0.6036 0.8404 0.9387
N1_4 N 0.4530(5) 0.4400(3) 0.3184(3)
Ag1_4 Ag 0.3750 0.3750 0.3750
C1_4 C 0.4145(7) 0.5150(4) 0.2585(3)
H1_4 H 0.3636 0.5409 0.2452
C2_4 C 0.5907(7) 0.4727(3) 0.2593(4)
H2_4 H 0.6631 0.4700 0.2469
C3_4 C 0.3840(6) 0.4789(5) 0.2987(4)
H3_4 H 0.3127 0.4818 0.3125
C4_4 C 0.5550(6) 0.4369(3) 0.2984(3)
H4_4 H 0.6036 0.4096 0.3113
C5_4 C 0.5563(7) 0.5518(3) 0.1953(3)
C6_4 C 0.5193(5) 0.5127(3) 0.2383(3)
N2_4 N 0.2970(5) 0.3100(3) 0.3184(3)
C7_4 C 0.3355(7) 0.2350(4) 0.2585(3)
H5_4 H 0.3864 0.2091 0.2452
C8_4 C 0.1593(7) 0.2773(3) 0.2593(4)
H6_4 H 0.0869 0.2800 0.2469
C9_4 C 0.3660(6) 0.2711(5) 0.2987(4)
H7_4 H 0.4373 0.2682 0.3125
C10_4 C 0.1950(6) 0.3131(3) 0.2984(3)
H8_4 H 0.1464 0.3404 0.3113
C11_4 C 0.1937(7) 0.1982(3) 0.1953(3)
C12_4 C 0.2307(5) 0.2373(3) 0.2383(3)
N3_4 N 0.2970(5) 0.4400(3) 0.4316(3)
C13_4 C 0.3355(7) 0.5150(4) 0.4915(3)
H9_4 H 0.3864 0.5409 0.5048
C14_4 C 0.1593(7) 0.4727(3) 0.4907(4)
H10_4 H 0.0869 0.4700 0.5031
C15_4 C 0.3660(6) 0.4789(5) 0.4513(4)
H11_4 H 0.4373 0.4818 0.4375
C16_4 C 0.1950(6) 0.4369(3) 0.4516(3)
H12_4 H 0.1464 0.4096 0.4387
C17_4 C 0.1937(7) 0.5518(3) 0.5547(3)
C18_4 C 0.2307(5) 0.5127(3) 0.5117(3)
N4_4 N 0.4530(5) 0.3100(3) 0.4316(3)
C19_4 C 0.4145(7) 0.2350(4) 0.4915(3)
H13_4 H 0.3636 0.2091 0.5048
C20_4 C 0.5907(7) 0.2773(3) 0.4907(4)
H14_4 H 0.6631 0.2800 0.5031
C21_4 C 0.3840(6) 0.2711(5) 0.4513(4)
H15_4 H 0.3127 0.2682 0.4375
C22_4 C 0.5550(6) 0.3131(3) 0.4516(3)
H16_4 H 0.6036 0.3404 0.4387
C23_4 C 0.5563(7) 0.1982(3) 0.5547(3)
C24_4 C 0.5193(5) 0.2373(3) 0.5117(3)
N1_5 N 0.0470(5) 0.0600(3) 0.6816(3)
Ag1_5 Ag 0.1250 0.1250 0.6250
C3_5 C 0.1160(6) 0.0211(5) 0.7013(4)
H3_5 H 0.1873 0.0182 0.6875
N2_5 N 0.2030(5) 0.1900(3) 0.6816(3)
O3_2 O 0.4057(4) 0.3063(2) 0.8138(2)
O4_2 O 0.2347(4) 0.33147(19) 0.82950(19)
C7_5 C 0.1645(7) 0.2650(4) 0.7415(3)
H5_5 H 0.1136 0.2909 0.7548
C8_5 C 0.3407(7) 0.2227(3) 0.7407(4)
H6_5 H 0.4131 0.2200 0.7531
C9_5 C 0.1340(6) 0.2289(5) 0.7013(4)
H7_5 H 0.0627 0.2318 0.6875
C10_5 C 0.3050(6) 0.1869(3) 0.7016(3)
H8_5 H 0.3536 0.1596 0.6887
C11_5 C 0.3063(7) 0.3018(3) 0.8047(3)
C12_5 C 0.2693(5) 0.2627(3) 0.7617(3)
N3_5 N 0.2030(5) 0.0600(3) 0.5684(3)
C14_5 C 0.3407(7) 0.0273(3) 0.5093(4)
H10_5 H 0.4131 0.0300 0.4969
C15_5 C 0.1340(6) 0.0211(5) 0.5487(4)
H11_5 H 0.0627 0.0182 0.5625
C16_5 C 0.3050(6) 0.0631(3) 0.5484(3)
H12_5 H 0.3536 0.0904 0.5613
N4_5 N 0.0470(5) 0.1900(3) 0.5684(3)
O8_2 O 0.0153(4) 0.33147(19) 0.42050(19)
C19_5 C 0.0855(7) 0.2650(4) 0.5085(3)
H13_5 H 0.1364 0.2909 0.4952
C21_5 C 0.1160(6) 0.2289(5) 0.5487(4)
H15_5 H 0.1873 0.2318 0.5625
In2_2 In 0.3750 0.3750 0.8750
O2_2 O 0.0153(4) 0.91853(19) 0.82950(19)
C1_5 C 0.0855(7) 0.9850(4) 0.7415(3)
H1_5 H 0.1364 0.9591 0.7548
O5_2 O 0.4057(4) 0.9437(2) 0.4362(2)
O6_2 O 0.2347(4) 0.91853(19) 0.42050(19)
C13_5 C 0.1645(7) 0.9850(4) 0.5085(3)
H9_5 H 0.1136 0.9591 0.4952
C17_5 C 0.3063(7) 0.9482(3) 0.4453(3)
C18_5 C 0.2693(5) 0.9873(3) 0.4883(3)
In3_2 In 0.3750 0.8750 0.3750
O12_5 O 0.0153(4) 0.83147(19) 0.92050(19)
C2_5 C 0.9093(7) 0.0273(3) 0.7407(4)
H2_5 H 0.8369 0.0300 0.7531
C4_5 C 0.9450(6) 0.0631(3) 0.7016(3)
H4_5 H 0.8964 0.0904 0.6887
O7_2 O 0.8443(4) 0.3063(2) 0.4362(2)
C20_5 C 0.9093(7) 0.2227(3) 0.5093(4)
H14_5 H 0.8369 0.2200 0.4969
C22_5 C 0.9450(6) 0.1869(3) 0.5484(3)
H16_5 H 0.8964 0.1596 0.5613
C23_5 C 0.9437(7) 0.3018(3) 0.4453(3)
C24_5 C 0.9807(5) 0.2627(3) 0.4883(3)
In4_2 In 0.8750 0.3750 0.3750
In1_2 In 0.8750 0.8750 0.8750
O1_2 O 0.8443(4) 0.9437(2) 0.8138(2)
C5_5 C 0.9437(7) 0.9482(3) 0.8047(3)
C6_5 C 0.9807(5) 0.9873(3) 0.7617(3)
O9_5 O 0.8443(4) 0.8063(2) 0.9362(2)
O10_5 O 0.9057(4) 0.9437(2) 0.9362(2)
O11_5 O 0.9057(4) 0.8063(2) 0.8138(2)
O13_5 O 0.7347(4) 0.91853(19) 0.92050(19)
O14_5 O 0.7347(4) 0.83147(19) 0.82950(19)
O9_6 O 0.4057(4) 0.4437(2) 0.9362(2)
O10_6 O 0.3443(4) 0.3063(2) 0.9362(2)
O11_6 O 0.3443(4) 0.4437(2) 0.8138(2)
O12_6 O 0.2347(4) 0.41853(19) 0.92050(19)
O13_6 O 0.5153(4) 0.33147(19) 0.92050(19)
O14_6 O 0.5153(4) 0.41853(19) 0.82950(19)
O9_7 O 0.4057(4) 0.8063(2) 0.3138(2)
O10_7 O 0.3443(4) 0.9437(2) 0.3138(2)
O11_7 O 0.3443(4) 0.8063(2) 0.4362(2)
O12_7 O 0.2347(4) 0.83147(19) 0.32950(19)
O13_7 O 0.5153(4) 0.91853(19) 0.32950(19)
O14_7 O 0.5153(4) 0.83147(19) 0.42050(19)
O12_8 O 0.0153(4) 0.41853(19) 0.32950(19)
O9_8 O 0.8443(4) 0.4437(2) 0.3138(2)
O10_8 O 0.9057(4) 0.3063(2) 0.3138(2)
O11_8 O 0.9057(4) 0.4437(2) 0.4362(2)
O13_8 O 0.7347(4) 0.33147(19) 0.32950(19)
O14_8 O 0.7347(4) 0.41853(19) 0.42050(19)
N1_6 N 0.0470(5) 0.5600(3) 0.1816(3)
Ag1_6 Ag 0.1250 0.6250 0.1250
C1_6 C 0.0855(7) 0.4850(4) 0.2415(3)
H1_6 H 0.1364 0.4591 0.2548
C3_6 C 0.1160(6) 0.5211(5) 0.2013(4)
H3_6 H 0.1873 0.5182 0.1875
N2_6 N 0.2030(5) 0.6900(3) 0.1816(3)
C7_6 C 0.1645(7) 0.7650(4) 0.2415(3)
H5_6 H 0.1136 0.7909 0.2548
C8_6 C 0.3407(7) 0.7227(3) 0.2407(4)
H6_6 H 0.4131 0.7200 0.2531
C9_6 C 0.1340(6) 0.7289(5) 0.2013(4)
H7_6 H 0.0627 0.7318 0.1875
C10_6 C 0.3050(6) 0.6869(3) 0.2016(3)
H8_6 H 0.3536 0.6596 0.1887
C11_6 C 0.3063(7) 0.8018(3) 0.3047(3)
C12_6 C 0.2693(5) 0.7627(3) 0.2617(3)
N3_6 N 0.2030(5) 0.5600(3) 0.0684(3)
C13_6 C 0.1645(7) 0.4850(4) 0.0085(3)
C14_6 C 0.3407(7) 0.5273(3) 0.0093(4)
C15_6 C 0.1340(6) 0.5211(5) 0.0487(4)
H11_6 H 0.0627 0.5182 0.0625
C16_6 C 0.3050(6) 0.5631(3) 0.0484(3)
H12_6 H 0.3536 0.5904 0.0613
N4_6 N 0.0470(5) 0.6900(3) 0.0684(3)
C19_6 C 0.0855(7) 0.7650(4) 0.0085(3)
C21_6 C 0.1160(6) 0.7289(5) 0.0487(4)
H15_6 H 0.1873 0.7318 0.0625
H9_6 H 0.1136 0.4591 0.9952
H10_6 H 0.4131 0.5300 0.9969
C17_6 C 0.3063(7) 0.4482(3) 0.9453(3)
C18_6 C 0.2693(5) 0.4873(3) 0.9883(3)
H13_6 H 0.1364 0.7909 0.9952
C2_6 C 0.9093(7) 0.5273(3) 0.2407(4)
H2_6 H 0.8369 0.5300 0.2531
C4_6 C 0.9450(6) 0.5631(3) 0.2016(3)
H4_6 H 0.8964 0.5904 0.1887
C5_6 C 0.9437(7) 0.4482(3) 0.3047(3)
C6_6 C 0.9807(5) 0.4873(3) 0.2617(3)
C20_6 C 0.9093(7) 0.7227(3) 0.0093(4)
C22_6 C 0.9450(6) 0.6869(3) 0.0484(3)
H16_6 H 0.8964 0.6596 0.0613
H14_6 H 0.8369 0.7200 0.9969
C23_6 C 0.9437(7) 0.8018(3) 0.9453(3)
C24_6 C 0.9807(5) 0.7627(3) 0.9883(3)
N1_7 N 0.5470(5) 0.0600(3) 0.1816(3)
Ag1_7 Ag 0.6250 0.1250 0.1250
C2_7 C 0.4093(7) 0.0273(3) 0.2407(4)
H2_7 H 0.3369 0.0300 0.2531
C3_7 C 0.6160(6) 0.0211(5) 0.2013(4)
H3_7 H 0.6873 0.0182 0.1875
C4_7 C 0.4450(6) 0.0631(3) 0.2016(3)
H4_7 H 0.3964 0.0904 0.1887
N2_7 N 0.7030(5) 0.1900(3) 0.1816(3)
C7_7 C 0.6645(7) 0.2650(4) 0.2415(3)
H5_7 H 0.6136 0.2909 0.2548
C8_7 C 0.8407(7) 0.2227(3) 0.2407(4)
H6_7 H 0.9131 0.2200 0.2531
C9_7 C 0.6340(6) 0.2289(5) 0.2013(4)
H7_7 H 0.5627 0.2318 0.1875
C10_7 C 0.8050(6) 0.1869(3) 0.2016(3)
H8_7 H 0.8536 0.1596 0.1887
C11_7 C 0.8063(7) 0.3018(3) 0.3047(3)
C12_7 C 0.7693(5) 0.2627(3) 0.2617(3)
N3_7 N 0.7030(5) 0.0600(3) 0.0684(3)
C14_7 C 0.8407(7) 0.0273(3) 0.0093(4)
C15_7 C 0.6340(6) 0.0211(5) 0.0487(4)
H11_7 H 0.5627 0.0182 0.0625
C16_7 C 0.8050(6) 0.0631(3) 0.0484(3)
H12_7 H 0.8536 0.0904 0.0613
N4_7 N 0.5470(5) 0.1900(3) 0.0684(3)
C19_7 C 0.5855(7) 0.2650(4) 0.0085(3)
C20_7 C 0.4093(7) 0.2227(3) 0.0093(4)
C21_7 C 0.6160(6) 0.2289(5) 0.0487(4)
H15_7 H 0.6873 0.2318 0.0625
C22_7 C 0.4450(6) 0.1869(3) 0.0484(3)
H16_7 H 0.3964 0.1596 0.0613
H10_7 H 0.9131 0.0300 0.9969
H13_7 H 0.6364 0.2909 0.9952
H14_7 H 0.3369 0.2200 0.9969
C23_7 C 0.4437(7) 0.3018(3) 0.9453(3)
C24_7 C 0.4807(5) 0.2627(3) 0.9883(3)
C1_7 C 0.5855(7) 0.9850(4) 0.2415(3)
H1_7 H 0.6364 0.9591 0.2548
C5_7 C 0.4437(7) 0.9482(3) 0.3047(3)
C6_7 C 0.4807(5) 0.9873(3) 0.2617(3)
C13_7 C 0.6645(7) 0.9850(4) 0.0085(3)
H9_7 H 0.6136 0.9591 0.9952
C17_7 C 0.8063(7) 0.9482(3) 0.9453(3)
C18_7 C 0.7693(5) 0.9873(3) 0.9883(3)
N1_8 N 0.5470(5) 0.5600(3) 0.6816(3)
Ag1_8 Ag 0.6250 0.6250 0.6250
C1_8 C 0.5855(7) 0.4850(4) 0.7415(3)
H1_8 H 0.6364 0.4591 0.7548
C2_8 C 0.4093(7) 0.5273(3) 0.7407(4)
H2_8 H 0.3369 0.5300 0.7531
C3_8 C 0.6160(6) 0.5211(5) 0.7013(4)
H3_8 H 0.6873 0.5182 0.6875
C4_8 C 0.4450(6) 0.5631(3) 0.7016(3)
H4_8 H 0.3964 0.5904 0.6887
C5_8 C 0.4437(7) 0.4482(3) 0.8047(3)
C6_8 C 0.4807(5) 0.4873(3) 0.7617(3)
N2_8 N 0.7030(5) 0.6900(3) 0.6816(3)
C7_8 C 0.6645(7) 0.7650(4) 0.7415(3)
H5_8 H 0.6136 0.7909 0.7548
C8_8 C 0.8407(7) 0.7227(3) 0.7407(4)
H6_8 H 0.9131 0.7200 0.7531
C9_8 C 0.6340(6) 0.7289(5) 0.7013(4)
H7_8 H 0.5627 0.7318 0.6875
C10_8 C 0.8050(6) 0.6869(3) 0.7016(3)
H8_8 H 0.8536 0.6596 0.6887
C11_8 C 0.8063(7) 0.8018(3) 0.8047(3)
C12_8 C 0.7693(5) 0.7627(3) 0.7617(3)
N3_8 N 0.7030(5) 0.5600(3) 0.5684(3)
C13_8 C 0.6645(7) 0.4850(4) 0.5085(3)
H9_8 H 0.6136 0.4591 0.4952
C14_8 C 0.8407(7) 0.5273(3) 0.5093(4)
H10_8 H 0.9131 0.5300 0.4969
C15_8 C 0.6340(6) 0.5211(5) 0.5487(4)
H11_8 H 0.5627 0.5182 0.5625
C16_8 C 0.8050(6) 0.5631(3) 0.5484(3)
H12_8 H 0.8536 0.5904 0.5613
C17_8 C 0.8063(7) 0.4482(3) 0.4453(3)
C18_8 C 0.7693(5) 0.4873(3) 0.4883(3)
N4_8 N 0.5470(5) 0.6900(3) 0.5684(3)
C19_8 C 0.5855(7) 0.7650(4) 0.5085(3)
H13_8 H 0.6364 0.7909 0.4952
C20_8 C 0.4093(7) 0.7227(3) 0.5093(4)
H14_8 H 0.3369 0.7200 0.4969
C21_8 C 0.6160(6) 0.7289(5) 0.5487(4)
H15_8 H 0.6873 0.7318 0.5625
C22_8 C 0.4450(6) 0.6869(3) 0.5484(3)
H16_8 H 0.3964 0.6596 0.5613
C23_8 C 0.4437(7) 0.8018(3) 0.4453(3)
C24_8 C 0.4807(5) 0.7627(3) 0.4883(3)
loop_
_geom_bond_atom_site_label_1
_geom_bond_atom_site_label_2
_geom_bond_site_symmetry_1
_geom_bond_site_symmetry_2
In1 O1 1_555 1_555
O1 C5 1_555 1_555
O9 In1 1_555 1_555
O10 In1 1_555 1_555
O11 In1 1_555 1_555
O13 In1 1_555 1_555
O14 In1 1_555 1_555
C5 C6 1_555 1_555
C2 H2 1_555 1_555
H4 C4 1_555 1_555
O7 C23 1_555 1_555
C20 H14 1_555 1_555
H16 C22 1_555 1_555
C23 C24 1_555 1_555
In4 O7 1_555 1_555
C2 C4 1_555 1_555
C20 C22 1_555 1_555
C20 C24 1_555 1_555
C1 H1 1_555 1_555
O5 C17 1_555 1_555
O6 C17 1_555 1_555
C13 H9 1_555 1_555
C17 C18 1_555 1_555
C18 C13 1_555 1_555
In3 O5 1_555 1_555
O6 In3 1_555 1_555
N1 Ag1 1_555 1_555
Ag1 N2 1_555 1_555
C3 N1 1_555 1_555
H3 C3 1_555 1_555
N2 C9 1_555 1_555
O3 C11 1_555 1_555
O4 C11 1_555 1_555
C7 H5 1_555 1_555
C8 H6 1_555 1_555
C9 C7 1_555 1_555
H7 C9 1_555 1_555
C10 N2 1_555 1_555
H8 C10 1_555 1_555
C11 C12 1_555 1_555
C12 C7 1_555 1_555
N3 Ag1 1_555 1_555
C14 H10 1_555 1_555
C15 N3 1_555 1_555
H11 C15 1_555 1_555
C16 N3 1_555 1_555
H12 C16 1_555 1_555
N4 Ag1 1_555 1_555
C19 H13 1_555 1_555
C21 N4 1_555 1_555
H15 C21 1_555 1_555
In2 O3 1_555 1_555
O4 In2 1_555 1_555
C8 C10 1_555 1_555
C8 C12 1_555 1_555
C14 C16 1_555 1_555
C19 C21 1_555 1_555
O9_2 In2 1_555 1_555
O10_2 In2 1_555 1_555
O11_2 In2 1_555 1_555
O12_2 In2 1_555 1_555
O13_2 In2 1_555 1_555
O14_2 In2 1_555 1_555
O9_3 In3 1_555 1_555
O10_3 In3 1_555 1_555
O11_3 In3 1_555 1_555
O12_3 In3 1_555 1_555
O13_3 In3 1_555 1_555
O14_3 In3 1_555 1_555
O9_4 In4 1_555 1_555
O10_4 In4 1_555 1_555
O11_4 In4 1_555 1_555
O13_4 In4 1_555 1_555
O14_4 In4 1_555 1_555
O9 C23_2 1_555 1_555
C23_2 C24_2 1_555 1_555
O9_4 C5_2 1_555 1_555
C2_2 H2_2 1_555 1_555
H4_2 C4_2 1_555 1_555
H16_2 C22_2 1_555 1_555
C2_2 C4_2 1_555 1_555
C2_2 C6_2 1_555 1_555
C5_2 C6_2 1_555 1_555
C20_2 C22_2 1_555 1_555
O9_2 C17_2 1_555 1_555
O12_2 C17_2 1_555 1_555
C17_2 C18_2 1_555 1_555
N1_2 Ag1_2 1_555 1_555
Ag1_2 N2_2 1_555 1_555
C1_2 H1_2 1_555 1_555
C3_2 N1_2 1_555 1_555
H3_2 C3_2 1_555 1_555
N2_2 C9_2 1_555 1_555
O9_3 C11_2 1_555 1_555
O12_3 C11_2 1_555 1_555
C7_2 H5_2 1_555 1_555
C8_2 H6_2 1_555 1_555
C9_2 C7_2 1_555 1_555
H7_2 C9_2 1_555 1_555
C10_2 N2_2 1_555 1_555
H8_2 C10_2 1_555 1_555
C11_2 C12_2 1_555 1_555
C12_2 C7_2 1_555 1_555
N3_2 Ag1_2 1_555 1_555
C15_2 N3_2 1_555 1_555
H11_2 C15_2 1_555 1_555
C16_2 N3_2 1_555 1_555
H12_2 C16_2 1_555 1_555
N4_2 Ag1_2 1_555 1_555
C21_2 N4_2 1_555 1_555
H15_2 C21_2 1_555 1_555
C1_2 C3_2 1_555 1_555
C8_2 C10_2 1_555 1_555
C8_2 C12_2 1_555 1_555
C13_2 C15_2 1_555 1_555
C14_2 C16_2 1_555 1_555
C19_2 C21_2 1_555 1_555
O10 C17_3 1_555 1_555
O13 C17_3 1_555 1_555
C17_3 C18_3 1_555 1_555
O10_3 C5_3 1_555 1_555
C1_3 H1_3 1_555 1_555
C5_3 O13_3 1_555 1_555
C6_3 C1_3 1_555 1_555
C5_3 C6_3 1_555 1_555
O10_2 C23_3 1_555 1_555
O13_2 C23_3 1_555 1_555
C23_3 C24_3 1_555 1_555
N1_3 Ag1_3 1_555 1_555
Ag1_3 N2_3 1_555 1_555
C2_3 H2_3 1_555 1_555
C3_3 N1_3 1_555 1_555
H3_3 C3_3 1_555 1_555
C4_3 N1_3 1_555 1_555
H4_3 C4_3 1_555 1_555
N2_3 C9_3 1_555 1_555
O10_4 C11_3 1_555 1_555
O13_4 C11_3 1_555 1_555
C7_3 H5_3 1_555 1_555
C8_3 H6_3 1_555 1_555
C9_3 C7_3 1_555 1_555
H7_3 C9_3 1_555 1_555
C10_3 N2_3 1_555 1_555
H8_3 C10_3 1_555 1_555
C11_3 C12_3 1_555 1_555
C12_3 C7_3 1_555 1_555
N3_3 Ag1_3 1_555 1_555
C15_3 N3_3 1_555 1_555
H11_3 C15_3 1_555 1_555
C16_3 N3_3 1_555 1_555
H12_3 C16_3 1_555 1_555
N4_3 Ag1_3 1_555 1_555
C21_3 N4_3 1_555 1_555
H15_3 C21_3 1_555 1_555
C22_3 N4_3 1_555 1_555
H16_3 C22_3 1_555 1_555
C2_3 C4_3 1_555 1_555
C8_3 C10_3 1_555 1_555
C8_3 C12_3 1_555 1_555
C14_3 C16_3 1_555 1_555
C19_3 C21_3 1_555 1_555
C20_3 C22_3 1_555 1_555
N1_4 Ag1_4 1_555 1_555
Ag1_4 N2_4 1_555 1_555
O11_2 C5_4 1_555 1_555
C1_4 H1_4 1_555 1_555
C2_4 H2_4 1_555 1_555
C3_4 N1_4 1_555 1_555
H3_4 C3_4 1_555 1_555
C4_4 N1_4 1_555 1_555
H4_4 C4_4 1_555 1_555
C5_4 O14_2 1_555 1_555
C6_4 C1_4 1_555 1_555
N2_4 C9_4 1_555 1_555
O11 C11_4 1_555 1_555
O14 C11_4 1_555 1_555
C7_4 H5_4 1_555 1_555
C8_4 H6_4 1_555 1_555
C9_4 C7_4 1_555 1_555
H7_4 C9_4 1_555 1_555
C10_4 N2_4 1_555 1_555
H8_4 C10_4 1_555 1_555
C11_4 C12_4 1_555 1_555
C12_4 C7_4 1_555 1_555
N3_4 Ag1_4 1_555 1_555
O11_4 C17_4 1_555 1_555
O14_4 C17_4 1_555 1_555
C13_4 H9_4 1_555 1_555
C14_4 H10_4 1_555 1_555
C15_4 N3_4 1_555 1_555
H11_4 C15_4 1_555 1_555
C16_4 N3_4 1_555 1_555
H12_4 C16_4 1_555 1_555
C17_4 C18_4 1_555 1_555
C18_4 C13_4 1_555 1_555
N4_4 Ag1_4 1_555 1_555
O11_3 C23_4 1_555 1_555
O14_3 C23_4 1_555 1_555
C19_4 H13_4 1_555 1_555
C20_4 H14_4 1_555 1_555
C21_4 N4_4 1_555 1_555
H15_4 C21_4 1_555 1_555
C22_4 N4_4 1_555 1_555
H16_4 C22_4 1_555 1_555
C23_4 C24_4 1_555 1_555
C24_4 C19_4 1_555 1_555
C1_4 C3_4 1_555 1_555
C2_4 C4_4 1_555 1_555
C2_4 C6_4 1_555 1_555
C5_4 C6_4 1_555 1_555
C8_4 C10_4 1_555 1_555
C8_4 C12_4 1_555 1_555
C13_4 C15_4 1_555 1_555
C14_4 C16_4 1_555 1_555
C14_4 C18_4 1_555 1_555
C19_4 C21_4 1_555 1_555
C20_4 C22_4 1_555 1_555
C20_4 C24_4 1_555 1_555
N1_5 Ag1_5 1_555 1_555
Ag1_5 N2_5 1_555 1_555
C3_5 N1_5 1_555 1_555
H3_5 C3_5 1_555 1_555
N2_5 C9_5 1_555 1_555
O3_2 C11_5 1_555 1_555
O4_2 C11_5 1_555 1_555
C7_5 H5_5 1_555 1_555
C8_5 H6_5 1_555 1_555
C9_5 C7_5 1_555 1_555
H7_5 C9_5 1_555 1_555
C10_5 N2_5 1_555 1_555
H8_5 C10_5 1_555 1_555
C11_5 C12_5 1_555 1_555
C12_5 C7_5 1_555 1_555
N3_5 Ag1_5 1_555 1_555
C14_5 H10_5 1_555 1_555
C15_5 N3_5 1_555 1_555
H11_5 C15_5 1_555 1_555
C16_5 N3_5 1_555 1_555
H12_5 C16_5 1_555 1_555
N4_5 Ag1_5 1_555 1_555
C19_5 H13_5 1_555 1_555
C21_5 N4_5 1_555 1_555
H15_5 C21_5 1_555 1_555
In2_2 O3_2 1_555 1_555
O4_2 In2_2 1_555 1_555
C8_5 C10_5 1_555 1_555
C8_5 C12_5 1_555 1_555
C14_5 C16_5 1_555 1_555
C19_5 C21_5 1_555 1_555
C1_5 H1_5 1_555 1_555
O5_2 C17_5 1_555 1_555
O6_2 C17_5 1_555 1_555
C13_5 H9_5 1_555 1_555
C17_5 C18_5 1_555 1_555
C18_5 C13_5 1_555 1_555
In3_2 O5_2 1_555 1_555
O6_2 In3_2 1_555 1_555
C2_5 H2_5 1_555 1_555
H4_5 C4_5 1_555 1_555
O7_2 C23_5 1_555 1_555
C20_5 H14_5 1_555 1_555
H16_5 C22_5 1_555 1_555
C23_5 C24_5 1_555 1_555
In4_2 O7_2 1_555 1_555
C2_5 C4_5 1_555 1_555
C20_5 C22_5 1_555 1_555
C20_5 C24_5 1_555 1_555
In1_2 O1_2 1_555 1_555
O1_2 C5_5 1_555 1_555
O9_5 In1_2 1_555 1_555
O10_5 In1_2 1_555 1_555
O11_5 In1_2 1_555 1_555
O13_5 In1_2 1_555 1_555
O14_5 In1_2 1_555 1_555
C5_5 C6_5 1_555 1_555
O9_6 In2_2 1_555 1_555
O10_6 In2_2 1_555 1_555
O11_6 In2_2 1_555 1_555
O12_6 In2_2 1_555 1_555
O13_6 In2_2 1_555 1_555
O14_6 In2_2 1_555 1_555
O9_7 In3_2 1_555 1_555
O10_7 In3_2 1_555 1_555
O11_7 In3_2 1_555 1_555
O12_7 In3_2 1_555 1_555
O13_7 In3_2 1_555 1_555
O14_7 In3_2 1_555 1_555
O9_8 In4_2 1_555 1_555
O10_8 In4_2 1_555 1_555
O11_8 In4_2 1_555 1_555
O13_8 In4_2 1_555 1_555
O14_8 In4_2 1_555 1_555
N1_6 Ag1_6 1_555 1_555
Ag1_6 N2_6 1_555 1_555
C1_6 H1_6 1_555 1_555
C3_6 N1_6 1_555 1_555
H3_6 C3_6 1_555 1_555
N2_6 C9_6 1_555 1_555
O9_7 C11_6 1_555 1_555
O12_7 C11_6 1_555 1_555
C7_6 H5_6 1_555 1_555
C8_6 H6_6 1_555 1_555
C9_6 C7_6 1_555 1_555
H7_6 C9_6 1_555 1_555
C10_6 N2_6 1_555 1_555
H8_6 C10_6 1_555 1_555
C11_6 C12_6 1_555 1_555
C12_6 C7_6 1_555 1_555
N3_6 Ag1_6 1_555 1_555
C15_6 N3_6 1_555 1_555
H11_6 C15_6 1_555 1_555
C16_6 N3_6 1_555 1_555
H12_6 C16_6 1_555 1_555
N4_6 Ag1_6 1_555 1_555
C21_6 N4_6 1_555 1_555
H15_6 C21_6 1_555 1_555
C1_6 C3_6 1_555 1_555
C8_6 C10_6 1_555 1_555
C8_6 C12_6 1_555 1_555
C13_6 C15_6 1_555 1_555
C14_6 C16_6 1_555 1_555
C19_6 C21_6 1_555 1_555
O9_6 C17_6 1_555 1_555
O12_6 C17_6 1_555 1_555
C17_6 C18_6 1_555 1_555
O9_8 C5_6 1_555 1_555
C2_6 H2_6 1_555 1_555
H4_6 C4_6 1_555 1_555
H16_6 C22_6 1_555 1_555
C2_6 C4_6 1_555 1_555
C2_6 C6_6 1_555 1_555
C5_6 C6_6 1_555 1_555
C20_6 C22_6 1_555 1_555
O9_5 C23_6 1_555 1_555
C23_6 C24_6 1_555 1_555
N1_7 Ag1_7 1_555 1_555
Ag1_7 N2_7 1_555 1_555
C2_7 H2_7 1_555 1_555
C3_7 N1_7 1_555 1_555
H3_7 C3_7 1_555 1_555
C4_7 N1_7 1_555 1_555
H4_7 C4_7 1_555 1_555
N2_7 C9_7 1_555 1_555
O10_8 C11_7 1_555 1_555
O13_8 C11_7 1_555 1_555
C7_7 H5_7 1_555 1_555
C8_7 H6_7 1_555 1_555
C9_7 C7_7 1_555 1_555
H7_7 C9_7 1_555 1_555
C10_7 N2_7 1_555 1_555
H8_7 C10_7 1_555 1_555
C11_7 C12_7 1_555 1_555
C12_7 C7_7 1_555 1_555
N3_7 Ag1_7 1_555 1_555
C15_7 N3_7 1_555 1_555
H11_7 C15_7 1_555 1_555
C16_7 N3_7 1_555 1_555
H12_7 C16_7 1_555 1_555
N4_7 Ag1_7 1_555 1_555
C21_7 N4_7 1_555 1_555
H15_7 C21_7 1_555 1_555
C22_7 N4_7 1_555 1_555
H16_7 C22_7 1_555 1_555
C2_7 C4_7 1_555 1_555
C8_7 C10_7 1_555 1_555
C8_7 C12_7 1_555 1_555
C14_7 C16_7 1_555 1_555
C19_7 C21_7 1_555 1_555
C20_7 C22_7 1_555 1_555
O10_6 C23_7 1_555 1_555
O13_6 C23_7 1_555 1_555
C23_7 C24_7 1_555 1_555
O10_7 C5_7 1_555 1_555
C1_7 H1_7 1_555 1_555
C5_7 O13_7 1_555 1_555
C6_7 C1_7 1_555 1_555
C5_7 C6_7 1_555 1_555
O10_5 C17_7 1_555 1_555
O13_5 C17_7 1_555 1_555
C17_7 C18_7 1_555 1_555
N1_8 Ag1_8 1_555 1_555
Ag1_8 N2_8 1_555 1_555
O11_6 C5_8 1_555 1_555
C1_8 H1_8 1_555 1_555
C2_8 H2_8 1_555 1_555
C3_8 N1_8 1_555 1_555
H3_8 C3_8 1_555 1_555
C4_8 N1_8 1_555 1_555
H4_8 C4_8 1_555 1_555
C5_8 O14_6 1_555 1_555
C6_8 C1_8 1_555 1_555
N2_8 C9_8 1_555 1_555
O11_5 C11_8 1_555 1_555
O14_5 C11_8 1_555 1_555
C7_8 H5_8 1_555 1_555
C8_8 H6_8 1_555 1_555
C9_8 C7_8 1_555 1_555
H7_8 C9_8 1_555 1_555
C10_8 N2_8 1_555 1_555
H8_8 C10_8 1_555 1_555
C11_8 C12_8 1_555 1_555
C12_8 C7_8 1_555 1_555
N3_8 Ag1_8 1_555 1_555
O11_8 C17_8 1_555 1_555
O14_8 C17_8 1_555 1_555
C13_8 H9_8 1_555 1_555
C14_8 H10_8 1_555 1_555
C15_8 N3_8 1_555 1_555
H11_8 C15_8 1_555 1_555
C16_8 N3_8 1_555 1_555
H12_8 C16_8 1_555 1_555
C17_8 C18_8 1_555 1_555
C18_8 C13_8 1_555 1_555
N4_8 Ag1_8 1_555 1_555
O11_7 C23_8 1_555 1_555
O14_7 C23_8 1_555 1_555
C19_8 H13_8 1_555 1_555
C20_8 H14_8 1_555 1_555
C21_8 N4_8 1_555 1_555
H15_8 C21_8 1_555 1_555
C22_8 N4_8 1_555 1_555
H16_8 C22_8 1_555 1_555
C23_8 C24_8 1_555 1_555
C24_8 C19_8 1_555 1_555
C1_8 C3_8 1_555 1_555
C2_8 C4_8 1_555 1_555
C2_8 C6_8 1_555 1_555
C5_8 C6_8 1_555 1_555
C8_8 C10_8 1_555 1_555
C8_8 C12_8 1_555 1_555
C13_8 C15_8 1_555 1_555
C14_8 C16_8 1_555 1_555
C14_8 C18_8 1_555 1_555
C19_8 C21_8 1_555 1_555
C20_8 C22_8 1_555 1_555
C20_8 C24_8 1_555 1_555

#END
