
###############################################################################
#
# This file contains modified crystal structure data generated from the
# MOF subset of the Cambridge Structural Database (CSD) v543 
# hosted by the Cambridge Crystallographic Data Centre (CCDC).
#
# This work is licensed under the Creative Commons
# Attribution-NonCommercial-ShareAlike 4.0 International License.
# To view a copy of this license, visit
# http://creativecommons.org/licenses/by-nc-sa/4.0/
# or send a letter to
# Creative Commons, PO Box 1866, Mountain View, CA 94042, USA.
#
# CIF created using the CSD Python API on 29 September 2022
# The structure has been converted into the P1 space group
# The structure has a 3D framework
# The original CSD entry RIVDEH is in the cubic crystal system
# The framework has been calculated to contain at least 10.0% void space
# The void calculation uses a probe of radius 1.32A, grid spacing 0.4
#
###############################################################################

data_RIVDEH
_chemical_formula_moiety         '(C4992 H3072 Co216 N1920 S384)n'
_symmetry_cell_setting           triclinic
_symmetry_space_group_name_H-M   'P 1'
_symmetry_Int_Tables_number      1
_space_group_name_Hall           'P 1'
loop_
_symmetry_equiv_pos_site_id
_symmetry_equiv_pos_as_xyz
1 x,y,z
_cell_length_a                   63.897(19)
_cell_length_b                   63.897(19)
_cell_length_c                   63.897(19)
_cell_angle_alpha                90
_cell_angle_beta                 90
_cell_angle_gamma                90
_cell_volume                     260880
loop_
_atom_site_label
_atom_site_type_symbol
_atom_site_fract_x
_atom_site_fract_y
_atom_site_fract_z
C1 C 0.41105(8) 0.21878(7) 0.10084(8)
H1 H 0.3983 0.2154 0.0940
C2 C 0.42845(8) 0.20684(8) 0.09633(9)
C3 C 0.44733(9) 0.21194(10) 0.10600(11)
H2 H 0.4596 0.2040 0.1034
C4 C 0.44760(9) 0.22884(10) 0.11944(12)
H3 H 0.4602 0.2329 0.1261
C5 C 0.42924(9) 0.23985(10) 0.12310(10)
H4 H 0.4296 0.2515 0.1323
C7 C 0.35863(9) 0.16482(9) 0.01534(9)
H5 H 0.3477 0.1636 0.0053
C8 C 0.35944(11) 0.18264(10) 0.02795(10)
H6 H 0.3489 0.1930 0.0269
C9 C 0.37551(9) 0.18501(10) 0.04177(10)
H7 H 0.3765 0.1972 0.0502
C10 C 0.39057(8) 0.16906(8) 0.04333(8)
C11 C 0.38826(7) 0.15169(8) 0.03065(8)
H8 H 0.3983 0.1408 0.0318
C12 C 0.40791(8) 0.17038(8) 0.05847(8)
C13 C 0.42619(8) 0.18823(8) 0.08270(9)
C14 C 0.43553(8) 0.15570(8) 0.07422(9)
C15 C 0.46242(7) 0.13725(9) 0.09565(8)
H9 H 0.4628 0.1493 0.1044
C16 C 0.44878(8) 0.13729(9) 0.07836(9)
C17 C 0.44790(9) 0.11928(9) 0.06601(10)
H10 H 0.4388 0.1185 0.0543
C18 C 0.46063(11) 0.10256(10) 0.07141(11)
H11 H 0.4603 0.0900 0.0634
C19 C 0.47377(9) 0.10415(9) 0.08842(10)
H12 H 0.4825 0.0926 0.0918
C20 C 0.50126(9) 0.07496(12) 0.13009(12)
C21 C 0.51760(10) 0.11136(12) 0.16707(11)
H13 H 0.5073 0.1007 0.1659
C22 C 0.52925(12) 0.11214(13) 0.18473(12)
H14 H 0.5266 0.1027 0.1959
C23 C 0.54519(13) 0.12702(12) 0.18645(12)
H15 H 0.5537 0.1278 0.1986
C24 C 0.54822(9) 0.14067(10) 0.16989(10)
C25 C 0.53496(8) 0.13923(9) 0.15259(8)
H16 H 0.5367 0.1489 0.1414
C26 C 0.56433(9) 0.15696(10) 0.17061(9)
Co1 Co 0.369519(11) 0.119519(11) 0.0000
Co2 Co 0.497806(14) 0.1250 0.1250
N1 N 0.41093(7) 0.23473(6) 0.11413(7)
N3 N 0.37273(7) 0.14933(7) 0.01681(7)
N4 N 0.42030(6) 0.15364(7) 0.06052(7)
N5 N 0.40990(7) 0.18807(7) 0.06961(7)
N6 N 0.43970(7) 0.17285(7) 0.08523(8)
N7 N 0.47466(7) 0.12139(7) 0.10040(7)
N8 N 0.49874(7) 0.09250(8) 0.12722(7)
N9 N 0.52001(7) 0.12494(7) 0.15114(7)
N10 N 0.56397(7) 0.17137(8) 0.15560(8)
S2 S 0.50491(4) 0.05016(4) 0.13430(7)
C27 C 0.63864(12) 0.16707(11) 0.23240(10)
H17 H 0.6493 0.1659 0.2427
C28 C 0.63786(13) 0.18473(12) 0.22075(12)
H18 H 0.6473 0.1959 0.2234
C29 C 0.62298(12) 0.18645(12) 0.20481(13)
H19 H 0.6222 0.1986 0.1963
C30 C 0.60933(10) 0.16989(10) 0.20178(9)
C31 C 0.61077(9) 0.15259(8) 0.21504(8)
H20 H 0.6011 0.1414 0.2133
C32 C 0.59304(10) 0.17061(9) 0.18567(9)
N11 N 0.62506(7) 0.15114(7) 0.22999(7)
N12 N 0.57863(8) 0.15560(8) 0.18603(7)
C33 C 0.58293(11) 0.23240(10) 0.11136(12)
H21 H 0.5841 0.2427 0.1007
C34 C 0.56527(12) 0.22075(12) 0.11214(13)
H22 H 0.5541 0.2234 0.1027
C35 C 0.56355(12) 0.20481(13) 0.12702(12)
H23 H 0.5514 0.1963 0.1278
C36 C 0.58011(10) 0.20178(9) 0.14067(10)
C37 C 0.59741(8) 0.21504(8) 0.13923(9)
H24 H 0.6086 0.2133 0.1489
C38 C 0.57939(9) 0.18567(9) 0.15696(10)
N13 N 0.59886(7) 0.22999(7) 0.12494(7)
N14 N 0.59440(8) 0.18603(7) 0.17137(8)
C57 C 0.61991(12) 0.00126(9) 0.17504(12)
C58 C 0.58293(11) 0.01760(10) 0.13864(12)
H37 H 0.5841 0.0073 0.1493
C59 C 0.56527(12) 0.02925(12) 0.13786(13)
H38 H 0.5541 0.0266 0.1473
C60 C 0.56355(12) 0.04519(13) 0.12298(12)
H39 H 0.5514 0.0537 0.1222
C61 C 0.58011(10) 0.04822(9) 0.10933(10)
C62 C 0.59741(8) 0.03496(8) 0.11077(9)
H40 H 0.6086 0.0367 0.1011
C63 C 0.57939(9) 0.06433(9) 0.09304(10)
N22 N 0.59886(7) 0.02001(7) 0.12506(7)
N23 N 0.59440(8) 0.06397(7) 0.07863(8)
S3 S 0.61570(7) 0.00491(4) 0.19984(4)
C64 C 0.51760(10) 0.13864(12) 0.08293(11)
H41 H 0.5073 0.1493 0.0841
C65 C 0.52925(12) 0.13786(13) 0.06527(12)
H42 H 0.5266 0.1473 0.0541
C66 C 0.54519(13) 0.12298(12) 0.06355(12)
H43 H 0.5537 0.1222 0.0514
C67 C 0.54822(9) 0.10933(10) 0.08011(10)
C68 C 0.53496(8) 0.11077(9) 0.09741(8)
H44 H 0.5367 0.1011 0.1086
C69 C 0.56433(9) 0.09304(10) 0.07939(9)
N24 N 0.52001(7) 0.12506(7) 0.09886(7)
N25 N 0.56397(7) 0.07863(8) 0.09440(8)
C70 C 0.63864(12) 0.08293(11) 0.01760(10)
H45 H 0.6493 0.0841 0.0073
C71 C 0.63786(13) 0.06527(12) 0.02925(12)
H46 H 0.6473 0.0541 0.0266
C72 C 0.62298(12) 0.06355(12) 0.04519(13)
H47 H 0.6222 0.0514 0.0537
C73 C 0.60933(10) 0.08011(10) 0.04822(9)
C74 C 0.61077(9) 0.09741(8) 0.03496(8)
H48 H 0.6011 0.1086 0.0367
C75 C 0.59304(10) 0.07939(9) 0.06433(9)
N26 N 0.62506(7) 0.09886(7) 0.02001(7)
N27 N 0.57863(8) 0.09440(8) 0.06397(7)
C76 C 0.71878(7) 0.14916(8) 0.33895(8)
H49 H 0.7154 0.1560 0.3517
C77 C 0.70684(8) 0.15367(9) 0.32155(8)
C78 C 0.71194(10) 0.14400(11) 0.30267(9)
H50 H 0.7040 0.1466 0.2904
C79 C 0.72884(10) 0.13056(12) 0.30240(9)
H51 H 0.7329 0.1239 0.2898
C80 C 0.73985(10) 0.12690(10) 0.32076(9)
H52 H 0.7515 0.1177 0.3204
C81 C 0.66482(9) 0.23466(9) 0.39137(9)
H53 H 0.6636 0.2447 0.4023
C82 C 0.68264(10) 0.22205(10) 0.39056(11)
H54 H 0.6930 0.2231 0.4011
C83 C 0.68501(10) 0.20823(10) 0.37449(9)
H55 H 0.6972 0.1998 0.3735
C84 C 0.66906(8) 0.20667(8) 0.35943(8)
C85 C 0.65169(8) 0.21935(8) 0.36174(7)
H56 H 0.6408 0.2182 0.3517
C86 C 0.67038(8) 0.19153(8) 0.34209(8)
C87 C 0.68823(8) 0.16730(9) 0.32381(8)
C88 C 0.65570(8) 0.17578(9) 0.31447(8)
C89 C 0.63725(9) 0.15435(8) 0.28758(7)
H57 H 0.6493 0.1456 0.2872
C90 C 0.63729(9) 0.17164(9) 0.30122(8)
C91 C 0.61928(9) 0.18399(10) 0.30210(9)
H58 H 0.6185 0.1957 0.3112
C92 C 0.60256(10) 0.17859(11) 0.28937(11)
H59 H 0.5900 0.1866 0.2897
C93 C 0.60415(9) 0.16158(10) 0.27623(9)
H60 H 0.5926 0.1582 0.2675
C94 C 0.57496(12) 0.11991(12) 0.24874(9)
Co4 Co 0.6250 0.1250 0.252194(14)
N28 N 0.73473(6) 0.13587(7) 0.33907(7)
N29 N 0.64933(7) 0.23319(7) 0.37727(7)
N30 N 0.65364(7) 0.18948(7) 0.32970(6)
N31 N 0.68807(7) 0.18039(7) 0.34010(7)
N32 N 0.67285(7) 0.16477(8) 0.31030(7)
N33 N 0.62139(7) 0.14960(7) 0.27534(7)
N34 N 0.59250(8) 0.12278(7) 0.25126(7)
S4 S 0.55016(4) 0.11570(7) 0.24509(4)
C95 C 0.53122(7) 0.10084(8) 0.33895(8)
H61 H 0.5346 0.0940 0.3517
C96 C 0.54316(8) 0.09633(9) 0.32155(8)
C97 C 0.53806(10) 0.10600(11) 0.30267(9)
H62 H 0.5460 0.1034 0.2904
C98 C 0.52116(10) 0.11944(12) 0.30240(9)
H63 H 0.5171 0.1261 0.2898
C99 C 0.51015(10) 0.12310(10) 0.32076(9)
H64 H 0.4985 0.1323 0.3204
C100 C 0.58518(9) 0.01534(9) 0.39137(9)
H65 H 0.5864 0.0053 0.4023
C101 C 0.56736(10) 0.02795(10) 0.39056(11)
H66 H 0.5570 0.0269 0.4011
C102 C 0.56499(10) 0.04177(10) 0.37449(9)
H67 H 0.5528 0.0502 0.3735
C103 C 0.58094(8) 0.04333(8) 0.35943(8)
C104 C 0.59831(8) 0.03065(8) 0.36174(7)
H68 H 0.6092 0.0318 0.3517
C105 C 0.57962(8) 0.05847(8) 0.34209(8)
C106 C 0.56177(8) 0.08270(9) 0.32381(8)
C107 C 0.59430(8) 0.07422(9) 0.31447(8)
C108 C 0.61275(9) 0.09565(8) 0.28758(7)
H69 H 0.6007 0.1044 0.2872
C109 C 0.61271(9) 0.07836(9) 0.30122(8)
C110 C 0.63072(9) 0.06601(10) 0.30210(9)
H70 H 0.6315 0.0543 0.3112
C111 C 0.64744(10) 0.07141(11) 0.28937(11)
H71 H 0.6600 0.0634 0.2897
C112 C 0.64585(9) 0.08842(10) 0.27623(9)
H72 H 0.6574 0.0918 0.2675
C113 C 0.67504(12) 0.13009(12) 0.24874(9)
N35 N 0.51527(6) 0.11413(7) 0.33907(7)
N36 N 0.60067(7) 0.01681(7) 0.37727(7)
N37 N 0.59636(7) 0.06052(7) 0.32970(6)
N38 N 0.56193(7) 0.06961(7) 0.34010(7)
N39 N 0.57715(7) 0.08523(8) 0.31030(7)
N40 N 0.62861(7) 0.10040(7) 0.27534(7)
N41 N 0.65750(8) 0.12722(7) 0.25126(7)
S5 S 0.69984(4) 0.13430(7) 0.24509(4)
H76 H 0.3823 0.0704 0.0015
C133 C 0.33895(8) 0.10084(8) 0.03122(7)
H85 H 0.3517 0.0940 0.0346
C134 C 0.32155(8) 0.09633(9) 0.04316(8)
C135 C 0.30267(9) 0.10600(11) 0.03806(10)
H86 H 0.2904 0.1034 0.0460
C136 C 0.30240(9) 0.11944(12) 0.02116(10)
H87 H 0.2898 0.1261 0.0171
C137 C 0.32076(9) 0.12310(10) 0.01015(10)
C138 C 0.39137(9) 0.01534(9) 0.08518(9)
H89 H 0.4023 0.0053 0.0864
C139 C 0.39056(11) 0.02795(10) 0.06736(10)
H90 H 0.4011 0.0269 0.0570
C140 C 0.37449(9) 0.04177(10) 0.06499(10)
H91 H 0.3735 0.0502 0.0528
C141 C 0.35943(8) 0.04333(8) 0.08094(8)
C142 C 0.36174(7) 0.03065(8) 0.09831(8)
H92 H 0.3517 0.0318 0.1092
C143 C 0.34209(8) 0.05847(8) 0.07962(8)
C144 C 0.32381(8) 0.08270(9) 0.06177(8)
C145 C 0.31447(8) 0.07422(9) 0.09430(8)
C146 C 0.28758(7) 0.09565(8) 0.11275(9)
H93 H 0.2872 0.1044 0.1007
C147 C 0.30122(8) 0.07836(9) 0.11271(9)
C148 C 0.30210(9) 0.06601(10) 0.13072(9)
H94 H 0.3112 0.0543 0.1315
C149 C 0.28937(11) 0.07141(11) 0.14744(10)
H95 H 0.2897 0.0634 0.1600
C150 C 0.27623(9) 0.08842(10) 0.14585(9)
H96 H 0.2675 0.0918 0.1574
N49 N 0.33907(7) 0.11413(7) 0.01527(6)
N50 N 0.37727(7) 0.01681(7) 0.10067(7)
N51 N 0.32970(6) 0.06052(7) 0.09636(7)
N52 N 0.34010(7) 0.06961(7) 0.06193(7)
N53 N 0.31030(7) 0.08523(8) 0.07715(7)
N54 N 0.27534(7) 0.10040(7) 0.12861(7)
C151 C 0.39828(8) 0.09302(8) 0.03121(8)
N55 N 0.38623(7) 0.10431(7) 0.02354(6)
S7 S 0.41525(3) 0.07689(3) 0.04112(3)
C152 C 0.50126(9) 0.17504(12) 0.11991(12)
N56 N 0.49874(7) 0.15750(8) 0.12278(7)
S8 S 0.50491(4) 0.19984(4) 0.11570(7)
C153 C 0.63009(12) 0.00126(9) 0.07496(12)
S9 S 0.63430(7) 0.00491(4) 0.05016(4)
Co6 Co 0.380481(11) 0.2500 0.119519(11)
C155 C 0.35172(8) 0.21879(8) 0.09302(8)
N59 N 0.36377(7) 0.22646(6) 0.10431(7)
S11 S 0.33475(3) 0.20888(3) 0.07689(3)
C156 C 0.40698(8) 0.28121(8) 0.14828(8)
N60 N 0.39569(7) 0.27354(6) 0.13623(7)
S12 S 0.42311(3) 0.29112(3) 0.16525(3)
Co8 Co 0.619519(11) 0.2500 0.380481(11)
Co9 Co 0.630481(11) 0.0000 0.380481(11)
Co11 Co 0.5000 0.119519(11) 0.369519(11)
Co12 Co 0.380481(11) 0.0000 0.130481(11)
Co13 Co 0.7500 0.130481(11) 0.369519(11)
Co14 Co 0.6250 0.252194(14) 0.1250
Co17 Co 0.252194(14) 0.1250 0.1250
N61 N 0.38587(7) 0.26527(6) 0.08907(7)
N65 N 0.35067(7) 0.26681(7) 0.12273(7)
N67 N 0.37727(7) 0.23319(7) 0.14933(7)
N68 N 0.47466(7) 0.12861(7) 0.14960(7)
N70 N 0.62494(7) 0.09886(7) 0.22999(7)
N71 N 0.65114(7) 0.02001(7) 0.12494(7)
C6 C 0.34302(8) 0.14828(8) 0.96879(8)
Co1_2 Co 0.369519(11) 0.119519(11) 1.0000
N2 N 0.35431(7) 0.13623(7) 0.97646(6)
S1 S 0.32689(3) 0.16525(3) 0.95888(3)
C114 C 0.35084(8) 0.08895(8) 0.96878(7)
H73 H 0.3440 0.1017 0.9654
C115 C 0.34633(9) 0.07155(8) 0.95684(8)
C116 C 0.35600(11) 0.05267(9) 0.96194(10)
H74 H 0.3534 0.0404 0.9540
C117 C 0.36944(12) 0.05240(9) 0.97884(10)
H75 H 0.3761 0.0398 0.9829
C118 C 0.37310(10) 0.07076(9) 0.98985(10)
C119 C 0.21879(8) 0.15698(8) 0.89828(8)
C120 C 0.26534(9) 0.14137(9) 0.91482(9)
H77 H 0.2553 0.1523 0.9136
C121 C 0.27795(10) 0.14056(11) 0.93264(10)
H78 H 0.2769 0.1511 0.9430
C122 C 0.29177(10) 0.12449(9) 0.93501(10)
H79 H 0.3002 0.1235 0.9472
C123 C 0.29333(8) 0.10943(8) 0.91906(8)
C124 C 0.28065(8) 0.11174(7) 0.90169(8)
H80 H 0.2818 0.1017 0.8908
C125 C 0.30847(8) 0.09209(8) 0.92038(8)
C126 C 0.33270(9) 0.07381(8) 0.93823(8)
C127 C 0.32422(9) 0.06447(8) 0.90570(8)
C128 C 0.34565(8) 0.03758(7) 0.88725(9)
H81 H 0.3544 0.0372 0.8993
C129 C 0.32836(9) 0.05122(8) 0.88729(9)
C130 C 0.31601(10) 0.05210(9) 0.86928(9)
H82 H 0.3043 0.0612 0.8685
C131 C 0.32141(11) 0.03937(11) 0.85256(10)
H83 H 0.3134 0.0397 0.8400
C132 C 0.33842(10) 0.02623(9) 0.85415(9)
H84 H 0.3418 0.0175 0.8426
Co5 Co 0.2500 0.130481(11) 0.869519(11)
N42 N 0.36413(7) 0.08907(7) 0.98473(6)
N43 N 0.22646(6) 0.14569(7) 0.88623(7)
N44 N 0.26681(7) 0.12727(7) 0.89933(7)
N45 N 0.31052(7) 0.07970(6) 0.90364(7)
N46 N 0.31961(7) 0.09010(7) 0.93807(7)
N47 N 0.33523(8) 0.06030(7) 0.92285(7)
N48 N 0.35040(7) 0.02534(7) 0.87139(7)
S6 S 0.20888(3) 0.17311(3) 0.91525(3)
H88 H 0.3204 0.1323 0.9985
C154 C 0.28121(8) 0.10172(8) 0.84302(8)
N58 N 0.27354(6) 0.11377(7) 0.85431(7)
S10 S 0.29112(3) 0.08475(3) 0.82689(3)
Co15 Co 0.6250 0.1250 0.997806(14)
Co16 Co 0.3750 0.002194(14) 0.8750
N62 N 0.23473(6) 0.13587(7) 0.83907(7)
N63 N 0.26527(6) 0.16093(7) 0.86413(7)
N64 N 0.39933(7) 0.12273(7) 0.98319(7)
N66 N 0.23319(7) 0.10067(7) 0.87273(7)
C39 C 0.64916(8) 0.91105(8) 0.03122(7)
H25 H 0.6560 0.8983 0.0346
C40 C 0.65367(9) 0.92845(8) 0.04316(8)
C41 C 0.64400(11) 0.94733(9) 0.03806(10)
H26 H 0.6466 0.9596 0.0460
C42 C 0.63056(12) 0.94760(9) 0.02116(10)
H27 H 0.6239 0.9602 0.0171
C43 C 0.62690(10) 0.92924(9) 0.01015(10)
C44 C 0.73466(9) 0.85863(9) 0.08518(9)
H29 H 0.7447 0.8477 0.0864
C45 C 0.72205(10) 0.85944(11) 0.06736(10)
H30 H 0.7231 0.8489 0.0570
C46 C 0.70823(10) 0.87551(9) 0.06499(10)
H31 H 0.6998 0.8765 0.0528
C47 C 0.70667(8) 0.89057(8) 0.08094(8)
C48 C 0.71935(8) 0.88826(7) 0.09831(8)
H32 H 0.7182 0.8983 0.1092
C49 C 0.69153(8) 0.90791(8) 0.07962(8)
C50 C 0.66730(9) 0.92619(8) 0.06177(8)
C51 C 0.67578(9) 0.93553(8) 0.09430(8)
C52 C 0.65435(8) 0.96242(7) 0.11275(9)
H33 H 0.6456 0.9628 0.1007
C53 C 0.67164(9) 0.94878(8) 0.11271(9)
C54 C 0.68399(10) 0.94790(9) 0.13072(9)
H34 H 0.6957 0.9388 0.1315
C55 C 0.67859(11) 0.96063(11) 0.14744(10)
H35 H 0.6866 0.9603 0.1600
C56 C 0.66158(10) 0.97377(9) 0.14585(9)
H36 H 0.6582 0.9825 0.1574
Co3 Co 0.6250 0.997806(14) 0.1250
N15 N 0.63587(7) 0.91093(7) 0.01527(6)
N16 N 0.73319(7) 0.87273(7) 0.10067(7)
N17 N 0.68948(7) 0.92030(6) 0.09636(7)
N18 N 0.68039(7) 0.90990(7) 0.06193(7)
N19 N 0.66477(8) 0.93970(7) 0.07715(7)
N20 N 0.64960(7) 0.97466(7) 0.12861(7)
N21 N 0.62278(7) 0.99874(7) 0.15750(8)
N57 N 0.62722(7) 0.99874(7) 0.09250(8)
Co7 Co 0.7500 0.869519(11) 0.130481(11)
Co9_2 Co 0.630481(11) 1.0000 0.380481(11)
Co10 Co 0.630481(11) 0.880481(11) 0.0000
Co12_2 Co 0.380481(11) 1.0000 0.130481(11)
N69 N 0.60040(7) 0.97466(7) 0.12139(7)
H28 H 0.6177 0.9296 0.9985
Co10_2 Co 0.630481(11) 0.880481(11) 1.0000
C119_2 C 0.03121(8) 0.59302(8) 0.39828(8)
Co5_2 Co 0.0000 0.619519(11) 0.369519(11)
N43_2 N 0.02354(6) 0.60431(7) 0.38623(7)
S6_2 S 0.04112(3) 0.57689(3) 0.41525(3)
N62_2 N 0.01527(6) 0.61413(7) 0.33907(7)
N66_2 N 0.01681(7) 0.64933(7) 0.37273(7)
C1_2 C 0.83895(8) 0.53122(7) 0.60084(8)
H1_2 H 0.8517 0.5346 0.5940
C2_2 C 0.82155(8) 0.54316(8) 0.59633(9)
C3_2 C 0.80267(9) 0.53806(10) 0.60600(11)
H2_2 H 0.7904 0.5460 0.6034
C4_2 C 0.80240(9) 0.52116(10) 0.61944(12)
H3_2 H 0.7898 0.5171 0.6261
C5_2 C 0.82076(9) 0.51015(10) 0.62310(10)
H4_2 H 0.8204 0.4985 0.6323
C6_2 C 0.90698(8) 0.60172(8) 0.46879(8)
C7_2 C 0.89137(9) 0.58518(9) 0.51534(9)
H5_2 H 0.9023 0.5864 0.5053
C8_2 C 0.89056(11) 0.56736(10) 0.52795(10)
H6_2 H 0.9011 0.5570 0.5269
C9_2 C 0.87449(9) 0.56499(10) 0.54177(10)
H7_2 H 0.8735 0.5528 0.5502
C10_2 C 0.85943(8) 0.58094(8) 0.54333(8)
C11_2 C 0.86174(7) 0.59831(8) 0.53065(8)
H8_2 H 0.8517 0.6092 0.5318
C12_2 C 0.84209(8) 0.57962(8) 0.55847(8)
C13_2 C 0.82381(8) 0.56177(8) 0.58270(9)
C14_2 C 0.81447(8) 0.59430(8) 0.57422(9)
C15_2 C 0.78758(7) 0.61275(9) 0.59565(8)
H9_2 H 0.7872 0.6007 0.6044
C16_2 C 0.80122(8) 0.61271(9) 0.57836(9)
C17_2 C 0.80210(9) 0.63072(9) 0.56601(10)
H10_2 H 0.8112 0.6315 0.5543
C18_2 C 0.78937(11) 0.64744(10) 0.57141(11)
H11_2 H 0.7897 0.6600 0.5634
C19_2 C 0.77623(9) 0.64585(9) 0.58842(10)
H12_2 H 0.7675 0.6574 0.5918
C20_2 C 0.74874(9) 0.67504(12) 0.63009(12)
C21_2 C 0.73240(10) 0.63864(12) 0.66707(11)
H13_2 H 0.7427 0.6493 0.6659
C22_2 C 0.72075(12) 0.63786(13) 0.68473(12)
H14_2 H 0.7234 0.6473 0.6959
C23_2 C 0.70481(13) 0.62298(12) 0.68645(12)
H15_2 H 0.6963 0.6222 0.6986
C24_2 C 0.70178(9) 0.60933(10) 0.66989(10)
C25_2 C 0.71504(8) 0.61077(9) 0.65259(8)
H16_2 H 0.7133 0.6011 0.6414
C26_2 C 0.68567(9) 0.59304(10) 0.67061(9)
Co1_3 Co 0.880481(11) 0.630481(11) 0.5000
Co2_2 Co 0.752194(14) 0.6250 0.6250
N1_2 N 0.83907(7) 0.51527(6) 0.61413(7)
N2_2 N 0.89569(7) 0.61377(7) 0.47646(6)
N3_2 N 0.87727(7) 0.60067(7) 0.51681(7)
N4_2 N 0.82970(6) 0.59636(7) 0.56052(7)
N5_2 N 0.84010(7) 0.56193(7) 0.56961(7)
N6_2 N 0.81030(7) 0.57715(7) 0.58523(8)
N7_2 N 0.77534(7) 0.62861(7) 0.60040(7)
N8_2 N 0.75126(7) 0.65750(8) 0.62722(7)
N9_2 N 0.72999(7) 0.62506(7) 0.65114(7)
N10_2 N 0.68603(7) 0.57863(8) 0.65560(8)
S1_2 S 0.92311(3) 0.58475(3) 0.45888(3)
S2_2 S 0.74509(4) 0.69984(4) 0.63430(7)
C27_2 C 0.61136(12) 0.58293(11) 0.73240(10)
H17_2 H 0.6007 0.5841 0.7427
C28_2 C 0.61214(13) 0.56527(12) 0.72075(12)
H18_2 H 0.6027 0.5541 0.7234
C29_2 C 0.62702(12) 0.56355(12) 0.70481(13)
H19_2 H 0.6278 0.5514 0.6963
C30_2 C 0.64067(10) 0.58011(10) 0.70178(9)
C31_2 C 0.63923(9) 0.59741(8) 0.71504(8)
H20_2 H 0.6489 0.6086 0.7133
C32_2 C 0.65696(10) 0.57939(9) 0.68567(9)
N11_2 N 0.62494(7) 0.59886(7) 0.72999(7)
N12_2 N 0.67137(8) 0.59440(8) 0.68603(7)
C33_2 C 0.66707(11) 0.51760(10) 0.61136(12)
H21_2 H 0.6659 0.5073 0.6007
C34_2 C 0.68473(12) 0.52925(12) 0.61214(13)
H22_2 H 0.6959 0.5266 0.6027
C35_2 C 0.68645(12) 0.54519(13) 0.62702(12)
H23_2 H 0.6986 0.5537 0.6278
C36_2 C 0.66989(10) 0.54822(9) 0.64067(10)
C37_2 C 0.65259(8) 0.53496(8) 0.63923(9)
H24_2 H 0.6414 0.5367 0.6489
C38_2 C 0.67061(9) 0.56433(9) 0.65696(10)
N13_2 N 0.65114(7) 0.52001(7) 0.62494(7)
N14_2 N 0.65560(8) 0.56397(7) 0.67137(8)
C39_2 C 0.60084(8) 0.83895(8) 0.53122(7)
H25_2 H 0.5940 0.8517 0.5346
C40_2 C 0.59633(9) 0.82155(8) 0.54316(8)
C41_2 C 0.60600(11) 0.80267(9) 0.53806(10)
H26_2 H 0.6034 0.7904 0.5460
C42_2 C 0.61944(12) 0.80240(9) 0.52116(10)
H27_2 H 0.6261 0.7898 0.5171
C43_2 C 0.62310(10) 0.82076(9) 0.51015(10)
H28_2 H 0.6323 0.8204 0.4985
C44_2 C 0.51534(9) 0.89137(9) 0.58518(9)
H29_2 H 0.5053 0.9023 0.5864
C45_2 C 0.52795(10) 0.89056(11) 0.56736(10)
H30_2 H 0.5269 0.9011 0.5570
C46_2 C 0.54177(10) 0.87449(9) 0.56499(10)
H31_2 H 0.5502 0.8735 0.5528
C47_2 C 0.54333(8) 0.85943(8) 0.58094(8)
C48_2 C 0.53065(8) 0.86174(7) 0.59831(8)
H32_2 H 0.5318 0.8517 0.6092
C49_2 C 0.55847(8) 0.84209(8) 0.57962(8)
C50_2 C 0.58270(9) 0.82381(8) 0.56177(8)
C51_2 C 0.57422(9) 0.81447(8) 0.59430(8)
C52_2 C 0.59565(8) 0.78758(7) 0.61275(9)
H33_2 H 0.6044 0.7872 0.6007
C53_2 C 0.57836(9) 0.80122(8) 0.61271(9)
C54_2 C 0.56601(10) 0.80210(9) 0.63072(9)
H34_2 H 0.5543 0.8112 0.6315
C55_2 C 0.57141(11) 0.78937(11) 0.64744(10)
H35_2 H 0.5634 0.7897 0.6600
C56_2 C 0.58842(10) 0.77623(9) 0.64585(9)
H36_2 H 0.5918 0.7675 0.6574
C57_2 C 0.63009(12) 0.74874(9) 0.67504(12)
C58_2 C 0.66707(11) 0.73240(10) 0.63864(12)
H37_2 H 0.6659 0.7427 0.6493
C59_2 C 0.68473(12) 0.72075(12) 0.63786(13)
H38_2 H 0.6959 0.7234 0.6473
C60_2 C 0.68645(12) 0.70481(13) 0.62298(12)
H39_2 H 0.6986 0.6963 0.6222
C61_2 C 0.66989(10) 0.70178(9) 0.60933(10)
C62_2 C 0.65259(8) 0.71504(8) 0.61077(9)
H40_2 H 0.6414 0.7133 0.6011
C63_2 C 0.67061(9) 0.68567(9) 0.59304(10)
Co3_2 Co 0.6250 0.752194(14) 0.6250
N15_2 N 0.61413(7) 0.83907(7) 0.51527(6)
N16_2 N 0.51681(7) 0.87727(7) 0.60067(7)
N17_2 N 0.56052(7) 0.82970(6) 0.59636(7)
N18_2 N 0.56961(7) 0.84010(7) 0.56193(7)
N19_2 N 0.58523(8) 0.81030(7) 0.57715(7)
N20_2 N 0.60040(7) 0.77534(7) 0.62861(7)
N21_2 N 0.62722(7) 0.75126(7) 0.65750(8)
N22_2 N 0.65114(7) 0.72999(7) 0.62506(7)
N23_2 N 0.65560(8) 0.68603(7) 0.57863(8)
S3_2 S 0.63430(7) 0.74509(4) 0.69984(4)
C64_2 C 0.73240(10) 0.61136(12) 0.58293(11)
H41_2 H 0.7427 0.6007 0.5841
C65_2 C 0.72075(12) 0.61214(13) 0.56527(12)
H42_2 H 0.7234 0.6027 0.5541
C66_2 C 0.70481(13) 0.62702(12) 0.56355(12)
H43_2 H 0.6963 0.6278 0.5514
C67_2 C 0.70178(9) 0.64067(10) 0.58011(10)
C68_2 C 0.71504(8) 0.63923(9) 0.59741(8)
H44_2 H 0.7133 0.6489 0.6086
C69_2 C 0.68567(9) 0.65696(10) 0.57939(9)
N24_2 N 0.72999(7) 0.62494(7) 0.59886(7)
N25_2 N 0.68603(7) 0.67137(8) 0.59440(8)
C70_2 C 0.61136(12) 0.66707(11) 0.51760(10)
H45_2 H 0.6007 0.6659 0.5073
C71_2 C 0.61214(13) 0.68473(12) 0.52925(12)
H46_2 H 0.6027 0.6959 0.5266
C72_2 C 0.62702(12) 0.68645(12) 0.54519(13)
H47_2 H 0.6278 0.6986 0.5537
C73_2 C 0.64067(10) 0.66989(10) 0.54822(9)
C74_2 C 0.63923(9) 0.65259(8) 0.53496(8)
H48_2 H 0.6489 0.6414 0.5367
C75_2 C 0.65696(10) 0.67061(9) 0.56433(9)
N26_2 N 0.62494(7) 0.65114(7) 0.52001(7)
N27_2 N 0.67137(8) 0.65560(8) 0.56397(7)
C76_2 C 0.53122(7) 0.60084(8) 0.83895(8)
H49_2 H 0.5346 0.5940 0.8517
C77_2 C 0.54316(8) 0.59633(9) 0.82155(8)
C78_2 C 0.53806(10) 0.60600(11) 0.80267(9)
H50_2 H 0.5460 0.6034 0.7904
C79_2 C 0.52116(10) 0.61944(12) 0.80240(9)
H51_2 H 0.5171 0.6261 0.7898
C80_2 C 0.51015(10) 0.62310(10) 0.82076(9)
H52_2 H 0.4985 0.6323 0.8204
C81_2 C 0.58518(9) 0.51534(9) 0.89137(9)
H53_2 H 0.5864 0.5053 0.9023
C82_2 C 0.56736(10) 0.52795(10) 0.89056(11)
H54_2 H 0.5570 0.5269 0.9011
C83_2 C 0.56499(10) 0.54177(10) 0.87449(9)
H55_2 H 0.5528 0.5502 0.8735
C84_2 C 0.58094(8) 0.54333(8) 0.85943(8)
C85_2 C 0.59831(8) 0.53065(8) 0.86174(7)
H56_2 H 0.6092 0.5318 0.8517
C86_2 C 0.57962(8) 0.55847(8) 0.84209(8)
C87_2 C 0.56177(8) 0.58270(9) 0.82381(8)
C88_2 C 0.59430(8) 0.57422(9) 0.81447(8)
C89_2 C 0.61275(9) 0.59565(8) 0.78758(7)
H57_2 H 0.6007 0.6044 0.7872
C90_2 C 0.61271(9) 0.57836(9) 0.80122(8)
C91_2 C 0.63072(9) 0.56601(10) 0.80210(9)
H58_2 H 0.6315 0.5543 0.8112
C92_2 C 0.64744(10) 0.57141(11) 0.78937(11)
H59_2 H 0.6600 0.5634 0.7897
C93_2 C 0.64585(9) 0.58842(10) 0.77623(9)
H60_2 H 0.6574 0.5918 0.7675
C94_2 C 0.67504(12) 0.63009(12) 0.74874(9)
Co4_2 Co 0.6250 0.6250 0.752194(14)
N28_2 N 0.51527(6) 0.61413(7) 0.83907(7)
N29_2 N 0.60067(7) 0.51681(7) 0.87727(7)
N30_2 N 0.59636(7) 0.56052(7) 0.82970(6)
N31_2 N 0.56193(7) 0.56961(7) 0.84010(7)
N32_2 N 0.57715(7) 0.58523(8) 0.81030(7)
N33_2 N 0.62861(7) 0.60040(7) 0.77534(7)
N34_2 N 0.65750(8) 0.62722(7) 0.75126(7)
S4_2 S 0.69984(4) 0.63430(7) 0.74509(4)
C95_2 C 0.71878(7) 0.64916(8) 0.83895(8)
H61_2 H 0.7154 0.6560 0.8517
C96_2 C 0.70684(8) 0.65367(9) 0.82155(8)
C97_2 C 0.71194(10) 0.64400(11) 0.80267(9)
H62_2 H 0.7040 0.6466 0.7904
C98_2 C 0.72884(10) 0.63056(12) 0.80240(9)
H63_2 H 0.7329 0.6239 0.7898
C99_2 C 0.73985(10) 0.62690(10) 0.82076(9)
H64_2 H 0.7515 0.6177 0.8204
C100_2 C 0.66482(9) 0.73466(9) 0.89137(9)
H65_2 H 0.6636 0.7447 0.9023
C101_2 C 0.68264(10) 0.72205(10) 0.89056(11)
H66_2 H 0.6930 0.7231 0.9011
C102_2 C 0.68501(10) 0.70823(10) 0.87449(9)
H67_2 H 0.6972 0.6998 0.8735
C103_2 C 0.66906(8) 0.70667(8) 0.85943(8)
C104_2 C 0.65169(8) 0.71935(8) 0.86174(7)
H68_2 H 0.6408 0.7182 0.8517
C105_2 C 0.67038(8) 0.69153(8) 0.84209(8)
C106_2 C 0.68823(8) 0.66730(9) 0.82381(8)
C107_2 C 0.65570(8) 0.67578(9) 0.81447(8)
C108_2 C 0.63725(9) 0.65435(8) 0.78758(7)
H69_2 H 0.6493 0.6456 0.7872
C109_2 C 0.63729(9) 0.67164(9) 0.80122(8)
C110_2 C 0.61928(9) 0.68399(10) 0.80210(9)
H70_2 H 0.6185 0.6957 0.8112
C111_2 C 0.60256(10) 0.67859(11) 0.78937(11)
H71_2 H 0.5900 0.6866 0.7897
C112_2 C 0.60415(9) 0.66158(10) 0.77623(9)
H72_2 H 0.5926 0.6582 0.7675
C113_2 C 0.57496(12) 0.61991(12) 0.74874(9)
N35_2 N 0.73473(6) 0.63587(7) 0.83907(7)
N36_2 N 0.64933(7) 0.73319(7) 0.87727(7)
N37_2 N 0.65364(7) 0.68948(7) 0.82970(6)
N38_2 N 0.68807(7) 0.68039(7) 0.84010(7)
N39_2 N 0.67285(7) 0.66477(8) 0.81030(7)
N40_2 N 0.62139(7) 0.64960(7) 0.77534(7)
N41_2 N 0.59250(8) 0.62278(7) 0.75126(7)
S5_2 S 0.55016(4) 0.61570(7) 0.74509(4)
C114_2 C 0.89916(8) 0.66105(8) 0.46878(7)
H73_2 H 0.9060 0.6483 0.4654
C115_2 C 0.90367(9) 0.67845(8) 0.45684(8)
C116_2 C 0.89400(11) 0.69733(9) 0.46194(10)
H74_2 H 0.8966 0.7096 0.4540
C117_2 C 0.88056(12) 0.69760(9) 0.47884(10)
H75_2 H 0.8739 0.7102 0.4829
C118_2 C 0.87690(10) 0.67924(9) 0.48985(10)
H76_2 H 0.8677 0.6796 0.5015
C120_2 C 0.98466(9) 0.60863(9) 0.41482(9)
H77_2 H 0.9947 0.5977 0.4136
C121_2 C 0.97205(10) 0.60944(11) 0.43264(10)
H78_2 H 0.9731 0.5989 0.4430
C122_2 C 0.95823(10) 0.62551(9) 0.43501(10)
H79_2 H 0.9498 0.6265 0.4472
C123_2 C 0.95667(8) 0.64057(8) 0.41906(8)
C124_2 C 0.96935(8) 0.63826(7) 0.40169(8)
H80_2 H 0.9682 0.6483 0.3908
C125_2 C 0.94153(8) 0.65791(8) 0.42038(8)
C126_2 C 0.91730(9) 0.67619(8) 0.43823(8)
C127_2 C 0.92578(9) 0.68553(8) 0.40570(8)
C128_2 C 0.90435(8) 0.71242(7) 0.38725(9)
H81_2 H 0.8956 0.7128 0.3993
C129_2 C 0.92164(9) 0.69878(8) 0.38729(9)
C130_2 C 0.93399(10) 0.69790(9) 0.36928(9)
H82_2 H 0.9457 0.6888 0.3685
C131_2 C 0.92859(11) 0.71063(11) 0.35256(10)
H83_2 H 0.9366 0.7103 0.3400
C132_2 C 0.91158(10) 0.72377(9) 0.35415(9)
H84_2 H 0.9082 0.7325 0.3426
Co5_3 Co 1.0000 0.619519(11) 0.369519(11)
N42_2 N 0.88587(7) 0.66093(7) 0.48473(6)
N44_2 N 0.98319(7) 0.62273(7) 0.39933(7)
N45_2 N 0.93948(7) 0.67030(6) 0.40364(7)
N46_2 N 0.93039(7) 0.65990(7) 0.43807(7)
N47_2 N 0.91477(8) 0.68970(7) 0.42285(7)
N48_2 N 0.89960(7) 0.72466(7) 0.37139(7)
C133_2 C 0.91105(8) 0.64916(8) 0.53122(7)
H85_2 H 0.8983 0.6560 0.5346
C134_2 C 0.92845(8) 0.65367(9) 0.54316(8)
C135_2 C 0.94733(9) 0.64400(11) 0.53806(10)
H86_2 H 0.9596 0.6466 0.5460
C136_2 C 0.94760(9) 0.63056(12) 0.52116(10)
H87_2 H 0.9602 0.6239 0.5171
C137_2 C 0.92924(9) 0.62690(10) 0.51015(10)
H88_2 H 0.9296 0.6177 0.4985
C138_2 C 0.85863(9) 0.73466(9) 0.58518(9)
H89_2 H 0.8477 0.7447 0.5864
C139_2 C 0.85944(11) 0.72205(10) 0.56736(10)
H90_2 H 0.8489 0.7231 0.5570
C140_2 C 0.87551(9) 0.70823(10) 0.56499(10)
H91_2 H 0.8765 0.6998 0.5528
C141_2 C 0.89057(8) 0.70667(8) 0.58094(8)
C142_2 C 0.88826(7) 0.71935(8) 0.59831(8)
H92_2 H 0.8983 0.7182 0.6092
C143_2 C 0.90791(8) 0.69153(8) 0.57962(8)
C144_2 C 0.92619(8) 0.66730(9) 0.56177(8)
C145_2 C 0.93553(8) 0.67578(9) 0.59430(8)
C146_2 C 0.96242(7) 0.65435(8) 0.61275(9)
H93_2 H 0.9628 0.6456 0.6007
C147_2 C 0.94878(8) 0.67164(9) 0.61271(9)
C148_2 C 0.94790(9) 0.68399(10) 0.63072(9)
H94_2 H 0.9388 0.6957 0.6315
C149_2 C 0.96063(11) 0.67859(11) 0.64744(10)
H95_2 H 0.9603 0.6866 0.6600
C150_2 C 0.97377(9) 0.66158(10) 0.64585(9)
H96_2 H 0.9825 0.6582 0.6574
N49_2 N 0.91093(7) 0.63587(7) 0.51527(6)
N50_2 N 0.87273(7) 0.73319(7) 0.60067(7)
N51_2 N 0.92030(6) 0.68948(7) 0.59636(7)
N52_2 N 0.90990(7) 0.68039(7) 0.56193(7)
N53_2 N 0.93970(7) 0.66477(8) 0.57715(7)
N54_2 N 0.97466(7) 0.64960(7) 0.62861(7)
C151_2 C 0.85172(8) 0.65698(8) 0.53121(8)
N55_2 N 0.86377(7) 0.64569(7) 0.52354(6)
S7_2 S 0.83475(3) 0.67311(3) 0.54112(3)
C152_2 C 0.74874(9) 0.57496(12) 0.61991(12)
N56_2 N 0.75126(7) 0.59250(8) 0.62278(7)
S8_2 S 0.74509(4) 0.55016(4) 0.61570(7)
C153_2 C 0.61991(12) 0.74874(9) 0.57496(12)
N57_2 N 0.62278(7) 0.75126(7) 0.59250(8)
S9_2 S 0.61570(7) 0.74509(4) 0.55016(4)
Co6_2 Co 0.869519(11) 0.5000 0.619519(11)
C154_2 C 0.96879(8) 0.64828(8) 0.34302(8)
N58_2 N 0.97646(6) 0.63623(7) 0.35431(7)
S10_2 S 0.95888(3) 0.66525(3) 0.32689(3)
C155_2 C 0.89828(8) 0.53121(8) 0.59302(8)
N59_2 N 0.88623(7) 0.52354(6) 0.60431(7)
S11_2 S 0.91525(3) 0.54112(3) 0.57689(3)
C156_2 C 0.84302(8) 0.46879(8) 0.64828(8)
N60_2 N 0.85431(7) 0.47646(6) 0.63623(7)
S12_2 S 0.82689(3) 0.45888(3) 0.66525(3)
Co7_2 Co 0.5000 0.880481(11) 0.630481(11)
Co8_2 Co 0.630481(11) 0.5000 0.880481(11)
Co9_3 Co 0.619519(11) 0.7500 0.880481(11)
Co10_3 Co 0.619519(11) 0.869519(11) 0.5000
Co11_2 Co 0.7500 0.630481(11) 0.869519(11)
Co12_3 Co 0.869519(11) 0.7500 0.630481(11)
Co13_2 Co 0.5000 0.619519(11) 0.869519(11)
Co14_2 Co 0.6250 0.497806(14) 0.6250
Co15_2 Co 0.6250 0.6250 0.497806(14)
Co16_2 Co 0.8750 0.747806(14) 0.3750
Co17_2 Co 0.997806(14) 0.6250 0.6250
N61_2 N 0.86413(7) 0.48473(6) 0.58907(7)
N63_2 N 0.98473(6) 0.58907(7) 0.36413(7)
N64_2 N 0.85067(7) 0.62727(7) 0.48319(7)
N65_2 N 0.89933(7) 0.48319(7) 0.62273(7)
N67_2 N 0.87273(7) 0.51681(7) 0.64933(7)
N68_2 N 0.77534(7) 0.62139(7) 0.64960(7)
N69_2 N 0.64960(7) 0.77534(7) 0.62139(7)
N70_2 N 0.62506(7) 0.65114(7) 0.72999(7)
N71_2 N 0.59886(7) 0.72999(7) 0.62494(7)
C1_3 C 0.33895(8) 0.71878(7) 0.14916(8)
H1_3 H 0.3517 0.7154 0.1560
C2_3 C 0.32155(8) 0.70684(8) 0.15367(9)
C3_3 C 0.30267(9) 0.71194(10) 0.14400(11)
H2_3 H 0.2904 0.7040 0.1466
C4_3 C 0.30240(9) 0.72884(10) 0.13056(12)
H3_3 H 0.2898 0.7329 0.1239
C5_3 C 0.32076(9) 0.73985(10) 0.12690(10)
H4_3 H 0.3204 0.7515 0.1177
C6_3 C 0.40698(8) 0.64828(8) 0.28121(8)
C7_3 C 0.39137(9) 0.66482(9) 0.23466(9)
H5_3 H 0.4023 0.6636 0.2447
C8_3 C 0.39056(11) 0.68264(10) 0.22205(10)
H6_3 H 0.4011 0.6930 0.2231
C9_3 C 0.37449(9) 0.68501(10) 0.20823(10)
H7_3 H 0.3735 0.6972 0.1998
C10_3 C 0.35943(8) 0.66906(8) 0.20667(8)
C11_3 C 0.36174(7) 0.65169(8) 0.21935(8)
H8_3 H 0.3517 0.6408 0.2182
C12_3 C 0.34209(8) 0.67038(8) 0.19153(8)
C13_3 C 0.32381(8) 0.68823(8) 0.16730(9)
C14_3 C 0.31447(8) 0.65570(8) 0.17578(9)
C15_3 C 0.28758(7) 0.63725(9) 0.15435(8)
H9_3 H 0.2872 0.6493 0.1456
C16_3 C 0.30122(8) 0.63729(9) 0.17164(9)
C17_3 C 0.30210(9) 0.61928(9) 0.18399(10)
H10_3 H 0.3112 0.6185 0.1957
C18_3 C 0.28937(11) 0.60256(10) 0.17859(11)
H11_3 H 0.2897 0.5900 0.1866
C19_3 C 0.27623(9) 0.60415(9) 0.16158(10)
H12_3 H 0.2675 0.5926 0.1582
C20_3 C 0.24874(9) 0.57496(12) 0.11991(12)
C21_3 C 0.23240(10) 0.61136(12) 0.08293(11)
H13_3 H 0.2427 0.6007 0.0841
C22_3 C 0.22075(12) 0.61214(13) 0.06527(12)
H14_3 H 0.2234 0.6027 0.0541
C23_3 C 0.20481(13) 0.62702(12) 0.06355(12)
H15_3 H 0.1963 0.6278 0.0514
C24_3 C 0.20178(9) 0.64067(10) 0.08011(10)
C25_3 C 0.21504(8) 0.63923(9) 0.09741(8)
H16_3 H 0.2133 0.6489 0.1086
C26_3 C 0.18567(9) 0.65696(10) 0.07939(9)
Co1_4 Co 0.380481(11) 0.619519(11) 0.2500
Co2_3 Co 0.252194(14) 0.6250 0.1250
N1_3 N 0.33907(7) 0.73473(6) 0.13587(7)
N2_3 N 0.39569(7) 0.63623(7) 0.27354(6)
N3_3 N 0.37727(7) 0.64933(7) 0.23319(7)
N4_3 N 0.32970(6) 0.65364(7) 0.18948(7)
N5_3 N 0.34010(7) 0.68807(7) 0.18039(7)
N6_3 N 0.31030(7) 0.67285(7) 0.16477(8)
N7_3 N 0.27534(7) 0.62139(7) 0.14960(7)
N8_3 N 0.25126(7) 0.59250(8) 0.12278(7)
N9_3 N 0.22999(7) 0.62494(7) 0.09886(7)
N10_3 N 0.18603(7) 0.67137(8) 0.09440(8)
S1_3 S 0.42311(3) 0.66525(3) 0.29112(3)
S2_3 S 0.24509(4) 0.55016(4) 0.11570(7)
C27_3 C 0.11136(12) 0.66707(11) 0.01760(10)
H17_3 H 0.1007 0.6659 0.0073
C28_3 C 0.11214(13) 0.68473(12) 0.02925(12)
H18_3 H 0.1027 0.6959 0.0266
C29_3 C 0.12702(12) 0.68645(12) 0.04519(13)
H19_3 H 0.1278 0.6986 0.0537
C30_3 C 0.14067(10) 0.66989(10) 0.04822(9)
C31_3 C 0.13923(9) 0.65259(8) 0.03496(8)
H20_3 H 0.1489 0.6414 0.0367
C32_3 C 0.15696(10) 0.67061(9) 0.06433(9)
N11_3 N 0.12494(7) 0.65114(7) 0.02001(7)
N12_3 N 0.17137(8) 0.65560(8) 0.06397(7)
C33_3 C 0.16707(11) 0.73240(10) 0.13864(12)
H21_3 H 0.1659 0.7427 0.1493
C34_3 C 0.18473(12) 0.72075(12) 0.13786(13)
H22_3 H 0.1959 0.7234 0.1473
C35_3 C 0.18645(12) 0.70481(13) 0.12298(12)
H23_3 H 0.1986 0.6963 0.1222
C36_3 C 0.16989(10) 0.70178(9) 0.10933(10)
C37_3 C 0.15259(8) 0.71504(8) 0.11077(9)
H24_3 H 0.1414 0.7133 0.1011
C38_3 C 0.17061(9) 0.68567(9) 0.09304(10)
N13_3 N 0.15114(7) 0.72999(7) 0.12506(7)
N14_3 N 0.15560(8) 0.68603(7) 0.07863(8)
C39_3 C 0.10084(8) 0.41105(8) 0.21878(7)
H25_3 H 0.0940 0.3983 0.2154
C40_3 C 0.09633(9) 0.42845(8) 0.20684(8)
C41_3 C 0.10600(11) 0.44733(9) 0.21194(10)
H26_3 H 0.1034 0.4596 0.2040
C42_3 C 0.11944(12) 0.44760(9) 0.22884(10)
H27_3 H 0.1261 0.4602 0.2329
C43_3 C 0.12310(10) 0.42924(9) 0.23985(10)
H28_3 H 0.1323 0.4296 0.2515
C44_3 C 0.01534(9) 0.35863(9) 0.16482(9)
H29_3 H 0.0053 0.3477 0.1636
C45_3 C 0.02795(10) 0.35944(11) 0.18264(10)
H30_3 H 0.0269 0.3489 0.1930
C46_3 C 0.04177(10) 0.37551(9) 0.18501(10)
H31_3 H 0.0502 0.3765 0.1972
C47_3 C 0.04333(8) 0.39057(8) 0.16906(8)
C48_3 C 0.03065(8) 0.38826(7) 0.15169(8)
H32_3 H 0.0318 0.3983 0.1408
C49_3 C 0.05847(8) 0.40791(8) 0.17038(8)
C50_3 C 0.08270(9) 0.42619(8) 0.18823(8)
C51_3 C 0.07422(9) 0.43553(8) 0.15570(8)
C52_3 C 0.09565(8) 0.46242(7) 0.13725(9)
H33_3 H 0.1044 0.4628 0.1493
C53_3 C 0.07836(9) 0.44878(8) 0.13729(9)
C54_3 C 0.06601(10) 0.44790(9) 0.11928(9)
H34_3 H 0.0543 0.4388 0.1185
C55_3 C 0.07141(11) 0.46063(11) 0.10256(10)
H35_3 H 0.0634 0.4603 0.0900
C56_3 C 0.08842(10) 0.47377(9) 0.10415(9)
H36_3 H 0.0918 0.4825 0.0926
C57_3 C 0.13009(12) 0.50126(9) 0.07496(12)
C58_3 C 0.16707(11) 0.51760(10) 0.11136(12)
H37_3 H 0.1659 0.5073 0.1007
C59_3 C 0.18473(12) 0.52925(12) 0.11214(13)
H38_3 H 0.1959 0.5266 0.1027
C60_3 C 0.18645(12) 0.54519(13) 0.12702(12)
H39_3 H 0.1986 0.5537 0.1278
C61_3 C 0.16989(10) 0.54822(9) 0.14067(10)
C62_3 C 0.15259(8) 0.53496(8) 0.13923(9)
H40_3 H 0.1414 0.5367 0.1489
C63_3 C 0.17061(9) 0.56433(9) 0.15696(10)
Co3_3 Co 0.1250 0.497806(14) 0.1250
N15_3 N 0.11413(7) 0.41093(7) 0.23473(6)
N16_3 N 0.01681(7) 0.37273(7) 0.14933(7)
N17_3 N 0.06052(7) 0.42030(6) 0.15364(7)
N18_3 N 0.06961(7) 0.40990(7) 0.18807(7)
N19_3 N 0.08523(8) 0.43970(7) 0.17285(7)
N20_3 N 0.10040(7) 0.47466(7) 0.12139(7)
N21_3 N 0.12722(7) 0.49874(7) 0.09250(8)
N22_3 N 0.15114(7) 0.52001(7) 0.12494(7)
N23_3 N 0.15560(8) 0.56397(7) 0.17137(8)
S3_3 S 0.13430(7) 0.50491(4) 0.05016(4)
C64_3 C 0.23240(10) 0.63864(12) 0.16707(11)
H41_3 H 0.2427 0.6493 0.1659
C65_3 C 0.22075(12) 0.63786(13) 0.18473(12)
H42_3 H 0.2234 0.6473 0.1959
C66_3 C 0.20481(13) 0.62298(12) 0.18645(12)
H43_3 H 0.1963 0.6222 0.1986
C67_3 C 0.20178(9) 0.60933(10) 0.16989(10)
C68_3 C 0.21504(8) 0.61077(9) 0.15259(8)
H44_3 H 0.2133 0.6011 0.1414
C69_3 C 0.18567(9) 0.59304(10) 0.17061(9)
N24_3 N 0.22999(7) 0.62506(7) 0.15114(7)
N25_3 N 0.18603(7) 0.57863(8) 0.15560(8)
C70_3 C 0.11136(12) 0.58293(11) 0.23240(10)
H45_3 H 0.1007 0.5841 0.2427
C71_3 C 0.11214(13) 0.56527(12) 0.22075(12)
H46_3 H 0.1027 0.5541 0.2234
C72_3 C 0.12702(12) 0.56355(12) 0.20481(13)
H47_3 H 0.1278 0.5514 0.1963
C73_3 C 0.14067(10) 0.58011(10) 0.20178(9)
C74_3 C 0.13923(9) 0.59741(8) 0.21504(8)
H48_3 H 0.1489 0.6086 0.2133
C75_3 C 0.15696(10) 0.57939(9) 0.18567(9)
N26_3 N 0.12494(7) 0.59886(7) 0.22999(7)
N27_3 N 0.17137(8) 0.59440(8) 0.18603(7)
C94_3 C 0.17504(12) 0.61991(12) 0.00126(9)
S4_3 S 0.19984(4) 0.61570(7) 0.00491(4)
C113_3 C 0.07496(12) 0.63009(12) 0.00126(9)
S5_3 S 0.05016(4) 0.63430(7) 0.00491(4)
C114_3 C 0.39916(8) 0.58895(8) 0.28122(7)
H73_3 H 0.4060 0.6017 0.2846
C115_3 C 0.40367(9) 0.57155(8) 0.29316(8)
C116_3 C 0.39400(11) 0.55267(9) 0.28806(10)
H74_3 H 0.3966 0.5404 0.2960
C117_3 C 0.38056(12) 0.55240(9) 0.27116(10)
H75_3 H 0.3739 0.5398 0.2671
C118_3 C 0.37690(10) 0.57076(9) 0.26015(10)
H76_3 H 0.3677 0.5704 0.2485
C119_3 C 0.53121(8) 0.65698(8) 0.35172(8)
C120_3 C 0.48466(9) 0.64137(9) 0.33518(9)
H77_3 H 0.4947 0.6523 0.3364
C121_3 C 0.47205(10) 0.64056(11) 0.31736(10)
H78_3 H 0.4731 0.6511 0.3070
C122_3 C 0.45823(10) 0.62449(9) 0.31499(10)
H79_3 H 0.4498 0.6235 0.3028
C123_3 C 0.45667(8) 0.60943(8) 0.33094(8)
C124_3 C 0.46935(8) 0.61174(7) 0.34831(8)
H80_3 H 0.4682 0.6017 0.3592
C125_3 C 0.44153(8) 0.59209(8) 0.32962(8)
C126_3 C 0.41730(9) 0.57381(8) 0.31177(8)
C127_3 C 0.42578(9) 0.56447(8) 0.34430(8)
C128_3 C 0.40435(8) 0.53758(7) 0.36275(9)
H81_3 H 0.3956 0.5372 0.3507
C129_3 C 0.42164(9) 0.55122(8) 0.36271(9)
C130_3 C 0.43399(10) 0.55210(9) 0.38072(9)
H82_3 H 0.4457 0.5612 0.3815
C131_3 C 0.42859(11) 0.53937(11) 0.39744(10)
H83_3 H 0.4366 0.5397 0.4100
C132_3 C 0.41158(10) 0.52623(9) 0.39585(9)
H84_3 H 0.4082 0.5175 0.4074
Co5_4 Co 0.5000 0.630481(11) 0.380481(11)
N42_3 N 0.38587(7) 0.58907(7) 0.26527(6)
N43_3 N 0.52354(6) 0.64569(7) 0.36377(7)
N44_3 N 0.48319(7) 0.62727(7) 0.35067(7)
N45_3 N 0.43948(7) 0.57970(6) 0.34636(7)
N46_3 N 0.43039(7) 0.59010(7) 0.31193(7)
N47_3 N 0.41477(8) 0.56030(7) 0.32715(7)
N48_3 N 0.39960(7) 0.52534(7) 0.37861(7)
S6_3 S 0.54112(3) 0.67311(3) 0.33475(3)
C133_3 C 0.41105(8) 0.60084(8) 0.21878(7)
H85_3 H 0.3983 0.5940 0.2154
C134_3 C 0.42845(8) 0.59633(9) 0.20684(8)
C135_3 C 0.44733(9) 0.60600(11) 0.21194(10)
H86_3 H 0.4596 0.6034 0.2040
C136_3 C 0.44760(9) 0.61944(12) 0.22884(10)
H87_3 H 0.4602 0.6261 0.2329
C137_3 C 0.42924(9) 0.62310(10) 0.23985(10)
H88_3 H 0.4296 0.6323 0.2515
C138_3 C 0.35863(9) 0.51534(9) 0.16482(9)
H89_3 H 0.3477 0.5053 0.1636
C139_3 C 0.35944(11) 0.52795(10) 0.18264(10)
H90_3 H 0.3489 0.5269 0.1930
C140_3 C 0.37551(9) 0.54177(10) 0.18501(10)
H91_3 H 0.3765 0.5502 0.1972
C141_3 C 0.39057(8) 0.54333(8) 0.16906(8)
C142_3 C 0.38826(7) 0.53065(8) 0.15169(8)
H92_3 H 0.3983 0.5318 0.1408
C143_3 C 0.40791(8) 0.55847(8) 0.17038(8)
C144_3 C 0.42619(8) 0.58270(9) 0.18823(8)
C145_3 C 0.43553(8) 0.57422(9) 0.15570(8)
C146_3 C 0.46242(7) 0.59565(8) 0.13725(9)
H93_3 H 0.4628 0.6044 0.1493
C147_3 C 0.44878(8) 0.57836(9) 0.13729(9)
C148_3 C 0.44790(9) 0.56601(10) 0.11928(9)
H94_3 H 0.4388 0.5543 0.1185
C149_3 C 0.46063(11) 0.57141(11) 0.10256(10)
H95_3 H 0.4603 0.5634 0.0900
C150_3 C 0.47377(9) 0.58842(10) 0.10415(9)
H96_3 H 0.4825 0.5918 0.0926
N49_3 N 0.41093(7) 0.61413(7) 0.23473(6)
N50_3 N 0.37273(7) 0.51681(7) 0.14933(7)
N51_3 N 0.42030(6) 0.56052(7) 0.15364(7)
N52_3 N 0.40990(7) 0.56961(7) 0.18807(7)
N53_3 N 0.43970(7) 0.58523(8) 0.17285(7)
N54_3 N 0.47466(7) 0.60040(7) 0.12139(7)
C151_3 C 0.35172(8) 0.59302(8) 0.21879(8)
N55_3 N 0.36377(7) 0.60431(7) 0.22646(6)
S7_3 S 0.33475(3) 0.57689(3) 0.20888(3)
C152_3 C 0.24874(9) 0.67504(12) 0.13009(12)
N56_3 N 0.25126(7) 0.65750(8) 0.12722(7)
S8_3 S 0.24509(4) 0.69984(4) 0.13430(7)
C153_3 C 0.11991(12) 0.50126(9) 0.17504(12)
N57_3 N 0.12278(7) 0.49874(7) 0.15750(8)
S9_3 S 0.11570(7) 0.50491(4) 0.19984(4)
Co6_3 Co 0.369519(11) 0.7500 0.130481(11)
C154_3 C 0.46879(8) 0.60172(8) 0.40698(8)
N58_3 N 0.47646(6) 0.61377(7) 0.39569(7)
S10_3 S 0.45888(3) 0.58475(3) 0.42311(3)
C155_3 C 0.39828(8) 0.71879(8) 0.15698(8)
N59_3 N 0.38623(7) 0.72646(6) 0.14569(7)
S11_3 S 0.41525(3) 0.70888(3) 0.17311(3)
C156_3 C 0.34302(8) 0.78121(8) 0.10172(8)
N60_3 N 0.35431(7) 0.77354(6) 0.11377(7)
S12_3 S 0.32689(3) 0.79112(3) 0.08475(3)
Co7_3 Co -0.0000 0.369519(11) 0.119519(11)
Co10_4 Co 0.119519(11) 0.380481(11) 0.2500
Co12_4 Co 0.369519(11) 0.5000 0.119519(11)
Co14_3 Co 0.1250 0.752194(14) 0.1250
Co15_3 Co 0.1250 0.6250 0.252194(14)
Co16_3 Co 0.3750 0.502194(14) 0.3750
Co17_3 Co 0.497806(14) 0.6250 0.1250
N61_3 N 0.36413(7) 0.76527(6) 0.16093(7)
N62_3 N 0.51527(6) 0.63587(7) 0.41093(7)
N63_3 N 0.48473(6) 0.66093(7) 0.38587(7)
N64_3 N 0.35067(7) 0.62273(7) 0.26681(7)
N65_3 N 0.39933(7) 0.76681(7) 0.12727(7)
N66_3 N 0.51681(7) 0.60067(7) 0.37727(7)
N67_3 N 0.37273(7) 0.73319(7) 0.10067(7)
N68_3 N 0.27534(7) 0.62861(7) 0.10040(7)
N69_3 N 0.14960(7) 0.47466(7) 0.12861(7)
N70_3 N 0.12506(7) 0.59886(7) 0.02001(7)
N71_3 N 0.09886(7) 0.52001(7) 0.12506(7)
C76_3 C 0.03122(7) 0.64916(8) 0.91105(8)
H49_3 H 0.0346 0.6560 0.8983
C77_3 C 0.04316(8) 0.65367(9) 0.92845(8)
C78_3 C 0.03806(10) 0.64400(11) 0.94733(9)
H50_3 H 0.0460 0.6466 0.9596
C79_3 C 0.02116(10) 0.63056(12) 0.94760(9)
H51_3 H 0.0171 0.6239 0.9602
C80_3 C 0.01015(10) 0.62690(10) 0.92924(9)
C81_3 C 0.08518(9) 0.73466(9) 0.85863(9)
H53_3 H 0.0864 0.7447 0.8477
C82_3 C 0.06736(10) 0.72205(10) 0.85944(11)
H54_3 H 0.0570 0.7231 0.8489
C83_3 C 0.06499(10) 0.70823(10) 0.87551(9)
H55_3 H 0.0528 0.6998 0.8765
C84_3 C 0.08094(8) 0.70667(8) 0.89057(8)
C85_3 C 0.09831(8) 0.71935(8) 0.88826(7)
H56_3 H 0.1092 0.7182 0.8983
C86_3 C 0.07962(8) 0.69153(8) 0.90791(8)
C87_3 C 0.06177(8) 0.66730(9) 0.92619(8)
C88_3 C 0.09430(8) 0.67578(9) 0.93553(8)
C89_3 C 0.11275(9) 0.65435(8) 0.96242(7)
H57_3 H 0.1007 0.6456 0.9628
C90_3 C 0.11271(9) 0.67164(9) 0.94878(8)
C91_3 C 0.13072(9) 0.68399(10) 0.94790(9)
H58_3 H 0.1315 0.6957 0.9388
C92_3 C 0.14744(10) 0.67859(11) 0.96063(11)
H59_3 H 0.1600 0.6866 0.9603
C93_3 C 0.14585(9) 0.66158(10) 0.97377(9)
H60_3 H 0.1574 0.6582 0.9825
Co4_3 Co 0.1250 0.6250 0.997806(14)
N28_3 N 0.01527(6) 0.63587(7) 0.91093(7)
N29_3 N 0.10067(7) 0.73319(7) 0.87273(7)
N30_3 N 0.09636(7) 0.68948(7) 0.92030(6)
N31_3 N 0.06193(7) 0.68039(7) 0.90990(7)
N32_3 N 0.07715(7) 0.66477(8) 0.93970(7)
N33_3 N 0.12861(7) 0.64960(7) 0.97466(7)
N34_3 N 0.15750(8) 0.62278(7) 0.99874(7)
C95_3 C 0.21878(7) 0.60084(8) 0.91105(8)
H61_3 H 0.2154 0.5940 0.8983
C96_3 C 0.20684(8) 0.59633(9) 0.92845(8)
C97_3 C 0.21194(10) 0.60600(11) 0.94733(9)
H62_3 H 0.2040 0.6034 0.9596
C98_3 C 0.22884(10) 0.61944(12) 0.94760(9)
H63_3 H 0.2329 0.6261 0.9602
C99_3 C 0.23985(10) 0.62310(10) 0.92924(9)
H64_3 H 0.2515 0.6323 0.9296
C100_3 C 0.16482(9) 0.51534(9) 0.85863(9)
H65_3 H 0.1636 0.5053 0.8477
C101_3 C 0.18264(10) 0.52795(10) 0.85944(11)
H66_3 H 0.1930 0.5269 0.8489
C102_3 C 0.18501(10) 0.54177(10) 0.87551(9)
H67_3 H 0.1972 0.5502 0.8765
C103_3 C 0.16906(8) 0.54333(8) 0.89057(8)
C104_3 C 0.15169(8) 0.53065(8) 0.88826(7)
H68_3 H 0.1408 0.5318 0.8983
C105_3 C 0.17038(8) 0.55847(8) 0.90791(8)
C106_3 C 0.18823(8) 0.58270(9) 0.92619(8)
C107_3 C 0.15570(8) 0.57422(9) 0.93553(8)
C108_3 C 0.13725(9) 0.59565(8) 0.96242(7)
H69_3 H 0.1493 0.6044 0.9628
C109_3 C 0.13729(9) 0.57836(9) 0.94878(8)
C110_3 C 0.11928(9) 0.56601(10) 0.94790(9)
H70_3 H 0.1185 0.5543 0.9388
C111_3 C 0.10256(10) 0.57141(11) 0.96063(11)
H71_3 H 0.0900 0.5634 0.9603
C112_3 C 0.10415(9) 0.58842(10) 0.97377(9)
H72_3 H 0.0926 0.5918 0.9825
N35_3 N 0.23473(6) 0.61413(7) 0.91093(7)
N36_3 N 0.14933(7) 0.51681(7) 0.87273(7)
N37_3 N 0.15364(7) 0.56052(7) 0.92030(6)
N38_3 N 0.18807(7) 0.56961(7) 0.90990(7)
N39_3 N 0.17285(7) 0.58523(8) 0.93970(7)
N40_3 N 0.12139(7) 0.60040(7) 0.97466(7)
N41_3 N 0.09250(8) 0.62722(7) 0.99874(7)
Co8_3 Co 0.130481(11) 0.7500 0.869519(11)
Co9_4 Co 0.119519(11) 0.5000 0.869519(11)
Co11_3 Co 0.2500 0.619519(11) 0.880481(11)
Co13_3 Co 0.0000 0.630481(11) 0.880481(11)
Co7_4 Co 1.0000 0.369519(11) 0.119519(11)
H52_3 H 0.9985 0.6177 0.9296
Co13_4 Co 1.0000 0.630481(11) 0.880481(11)
C20_4 C 0.00126(9) 0.17504(12) 0.61991(12)
C21_4 C 0.01760(10) 0.13864(12) 0.58293(11)
H13_4 H 0.0073 0.1493 0.5841
C22_4 C 0.02925(12) 0.13786(13) 0.56527(12)
H14_4 H 0.0266 0.1473 0.5541
C23_4 C 0.04519(13) 0.12298(12) 0.56355(12)
H15_4 H 0.0537 0.1222 0.5514
C24_4 C 0.04822(9) 0.10933(10) 0.58011(10)
C25_4 C 0.03496(8) 0.11077(9) 0.59741(8)
H16_4 H 0.0367 0.1011 0.6086
C26_4 C 0.06433(9) 0.09304(10) 0.57939(9)
N9_4 N 0.02001(7) 0.12506(7) 0.59886(7)
N10_4 N 0.06397(7) 0.07863(8) 0.59440(8)
S2_4 S 0.00491(4) 0.19984(4) 0.61570(7)
C27_4 C 0.13864(12) 0.08293(11) 0.51760(10)
H17_4 H 0.1493 0.0841 0.5073
C28_4 C 0.13786(13) 0.06527(12) 0.52925(12)
H18_4 H 0.1473 0.0541 0.5266
C29_4 C 0.12298(12) 0.06355(12) 0.54519(13)
H19_4 H 0.1222 0.0514 0.5537
C30_4 C 0.10933(10) 0.08011(10) 0.54822(9)
C31_4 C 0.11077(9) 0.09741(8) 0.53496(8)
H20_4 H 0.1011 0.1086 0.5367
C32_4 C 0.09304(10) 0.07939(9) 0.56433(9)
N11_4 N 0.12506(7) 0.09886(7) 0.52001(7)
N12_4 N 0.07863(8) 0.09440(8) 0.56397(7)
C33_4 C 0.08293(11) 0.01760(10) 0.63864(12)
H21_4 H 0.0841 0.0073 0.6493
C34_4 C 0.06527(12) 0.02925(12) 0.63786(13)
H22_4 H 0.0541 0.0266 0.6473
C35_4 C 0.06355(12) 0.04519(13) 0.62298(12)
H23_4 H 0.0514 0.0537 0.6222
C36_4 C 0.08011(10) 0.04822(9) 0.60933(10)
C37_4 C 0.09741(8) 0.03496(8) 0.61077(9)
H24_4 H 0.1086 0.0367 0.6011
C38_4 C 0.07939(9) 0.06433(9) 0.59304(10)
N13_4 N 0.09886(7) 0.02001(7) 0.62506(7)
N14_4 N 0.09440(8) 0.06397(7) 0.57863(8)
C39_4 C 0.14916(8) 0.33895(8) 0.71878(7)
H25_4 H 0.1560 0.3517 0.7154
C40_4 C 0.15367(9) 0.32155(8) 0.70684(8)
C41_4 C 0.14400(11) 0.30267(9) 0.71194(10)
H26_4 H 0.1466 0.2904 0.7040
C42_4 C 0.13056(12) 0.30240(9) 0.72884(10)
H27_4 H 0.1239 0.2898 0.7329
C43_4 C 0.12690(10) 0.32076(9) 0.73985(10)
H28_4 H 0.1177 0.3204 0.7515
C44_4 C 0.23466(9) 0.39137(9) 0.66482(9)
H29_4 H 0.2447 0.4023 0.6636
C45_4 C 0.22205(10) 0.39056(11) 0.68264(10)
H30_4 H 0.2231 0.4011 0.6930
C46_4 C 0.20823(10) 0.37449(9) 0.68501(10)
H31_4 H 0.1998 0.3735 0.6972
C47_4 C 0.20667(8) 0.35943(8) 0.66906(8)
C48_4 C 0.21935(8) 0.36174(7) 0.65169(8)
H32_4 H 0.2182 0.3517 0.6408
C49_4 C 0.19153(8) 0.34209(8) 0.67038(8)
C50_4 C 0.16730(9) 0.32381(8) 0.68823(8)
C51_4 C 0.17578(9) 0.31447(8) 0.65570(8)
C52_4 C 0.15435(8) 0.28758(7) 0.63725(9)
H33_4 H 0.1456 0.2872 0.6493
C53_4 C 0.17164(9) 0.30122(8) 0.63729(9)
C54_4 C 0.18399(10) 0.30210(9) 0.61928(9)
H34_4 H 0.1957 0.3112 0.6185
C55_4 C 0.17859(11) 0.28937(11) 0.60256(10)
H35_4 H 0.1866 0.2897 0.5900
C56_4 C 0.16158(10) 0.27623(9) 0.60415(9)
H36_4 H 0.1582 0.2675 0.5926
C57_4 C 0.11991(12) 0.24874(9) 0.57496(12)
C58_4 C 0.08293(11) 0.23240(10) 0.61136(12)
H37_4 H 0.0841 0.2427 0.6007
C59_4 C 0.06527(12) 0.22075(12) 0.61214(13)
H38_4 H 0.0541 0.2234 0.6027
C60_4 C 0.06355(12) 0.20481(13) 0.62702(12)
H39_4 H 0.0514 0.1963 0.6278
C61_4 C 0.08011(10) 0.20178(9) 0.64067(10)
C62_4 C 0.09741(8) 0.21504(8) 0.63923(9)
H40_4 H 0.1086 0.2133 0.6489
C63_4 C 0.07939(9) 0.18567(9) 0.65696(10)
Co3_4 Co 0.1250 0.252194(14) 0.6250
N15_4 N 0.13587(7) 0.33907(7) 0.73473(6)
N16_4 N 0.23319(7) 0.37727(7) 0.64933(7)
N17_4 N 0.18948(7) 0.32970(6) 0.65364(7)
N18_4 N 0.18039(7) 0.34010(7) 0.68807(7)
N19_4 N 0.16477(8) 0.31030(7) 0.67285(7)
N20_4 N 0.14960(7) 0.27534(7) 0.62139(7)
N21_4 N 0.12278(7) 0.25126(7) 0.59250(8)
N22_4 N 0.09886(7) 0.22999(7) 0.62494(7)
N23_4 N 0.09440(8) 0.18603(7) 0.67137(8)
S3_4 S 0.11570(7) 0.24509(4) 0.55016(4)
C64_4 C 0.01760(10) 0.11136(12) 0.66707(11)
H41_4 H 0.0073 0.1007 0.6659
C65_4 C 0.02925(12) 0.11214(13) 0.68473(12)
H42_4 H 0.0266 0.1027 0.6959
C66_4 C 0.04519(13) 0.12702(12) 0.68645(12)
H43_4 H 0.0537 0.1278 0.6986
C67_4 C 0.04822(9) 0.14067(10) 0.66989(10)
C68_4 C 0.03496(8) 0.13923(9) 0.65259(8)
H44_4 H 0.0367 0.1489 0.6414
C69_4 C 0.06433(9) 0.15696(10) 0.67061(9)
N24_4 N 0.02001(7) 0.12494(7) 0.65114(7)
N25_4 N 0.06397(7) 0.17137(8) 0.65560(8)
C70_4 C 0.13864(12) 0.16707(11) 0.73240(10)
H45_4 H 0.1493 0.1659 0.7427
C71_4 C 0.13786(13) 0.18473(12) 0.72075(12)
H46_4 H 0.1473 0.1959 0.7234
C72_4 C 0.12298(12) 0.18645(12) 0.70481(13)
H47_4 H 0.1222 0.1986 0.6963
C73_4 C 0.10933(10) 0.16989(10) 0.70178(9)
C74_4 C 0.11077(9) 0.15259(8) 0.71504(8)
H48_4 H 0.1011 0.1414 0.7133
C75_4 C 0.09304(10) 0.17061(9) 0.68567(9)
N26_4 N 0.12506(7) 0.15114(7) 0.72999(7)
N27_4 N 0.07863(8) 0.15560(8) 0.68603(7)
C76_4 C 0.21878(7) 0.10084(8) 0.41105(8)
H49_4 H 0.2154 0.0940 0.3983
C77_4 C 0.20684(8) 0.09633(9) 0.42845(8)
C78_4 C 0.21194(10) 0.10600(11) 0.44733(9)
H50_4 H 0.2040 0.1034 0.4596
C79_4 C 0.22884(10) 0.11944(12) 0.44760(9)
H51_4 H 0.2329 0.1261 0.4602
C80_4 C 0.23985(10) 0.12310(10) 0.42924(9)
H52_4 H 0.2515 0.1323 0.4296
C81_4 C 0.16482(9) 0.01534(9) 0.35863(9)
H53_4 H 0.1636 0.0053 0.3477
C82_4 C 0.18264(10) 0.02795(10) 0.35944(11)
H54_4 H 0.1930 0.0269 0.3489
C83_4 C 0.18501(10) 0.04177(10) 0.37551(9)
H55_4 H 0.1972 0.0502 0.3765
C84_4 C 0.16906(8) 0.04333(8) 0.39057(8)
C85_4 C 0.15169(8) 0.03065(8) 0.38826(7)
H56_4 H 0.1408 0.0318 0.3983
C86_4 C 0.17038(8) 0.05847(8) 0.40791(8)
C87_4 C 0.18823(8) 0.08270(9) 0.42619(8)
C88_4 C 0.15570(8) 0.07422(9) 0.43553(8)
C89_4 C 0.13725(9) 0.09565(8) 0.46242(7)
H57_4 H 0.1493 0.1044 0.4628
C90_4 C 0.13729(9) 0.07836(9) 0.44878(8)
C91_4 C 0.11928(9) 0.06601(10) 0.44790(9)
H58_4 H 0.1185 0.0543 0.4388
C92_4 C 0.10256(10) 0.07141(11) 0.46063(11)
H59_4 H 0.0900 0.0634 0.4603
C93_4 C 0.10415(9) 0.08842(10) 0.47377(9)
H60_4 H 0.0926 0.0918 0.4825
C94_4 C 0.07496(12) 0.13009(12) 0.50126(9)
Co4_4 Co 0.1250 0.1250 0.497806(14)
N28_4 N 0.23473(6) 0.11413(7) 0.41093(7)
N29_4 N 0.14933(7) 0.01681(7) 0.37273(7)
N30_4 N 0.15364(7) 0.06052(7) 0.42030(6)
N31_4 N 0.18807(7) 0.06961(7) 0.40990(7)
N32_4 N 0.17285(7) 0.08523(8) 0.43970(7)
N33_4 N 0.12139(7) 0.10040(7) 0.47466(7)
N34_4 N 0.09250(8) 0.12722(7) 0.49874(7)
S4_4 S 0.05016(4) 0.13430(7) 0.50491(4)
C95_4 C 0.03122(7) 0.14916(8) 0.41105(8)
H61_4 H 0.0346 0.1560 0.3983
C96_4 C 0.04316(8) 0.15367(9) 0.42845(8)
C97_4 C 0.03806(10) 0.14400(11) 0.44733(9)
H62_4 H 0.0460 0.1466 0.4596
C98_4 C 0.02116(10) 0.13056(12) 0.44760(9)
H63_4 H 0.0171 0.1239 0.4602
C99_4 C 0.01015(10) 0.12690(10) 0.42924(9)
C100_4 C 0.08518(9) 0.23466(9) 0.35863(9)
H65_4 H 0.0864 0.2447 0.3477
C101_4 C 0.06736(10) 0.22205(10) 0.35944(11)
H66_4 H 0.0570 0.2231 0.3489
C102_4 C 0.06499(10) 0.20823(10) 0.37551(9)
H67_4 H 0.0528 0.1998 0.3765
C103_4 C 0.08094(8) 0.20667(8) 0.39057(8)
C104_4 C 0.09831(8) 0.21935(8) 0.38826(7)
H68_4 H 0.1092 0.2182 0.3983
C105_4 C 0.07962(8) 0.19153(8) 0.40791(8)
C106_4 C 0.06177(8) 0.16730(9) 0.42619(8)
C107_4 C 0.09430(8) 0.17578(9) 0.43553(8)
C108_4 C 0.11275(9) 0.15435(8) 0.46242(7)
H69_4 H 0.1007 0.1456 0.4628
C109_4 C 0.11271(9) 0.17164(9) 0.44878(8)
C110_4 C 0.13072(9) 0.18399(10) 0.44790(9)
H70_4 H 0.1315 0.1957 0.4388
C111_4 C 0.14744(10) 0.17859(11) 0.46063(11)
H71_4 H 0.1600 0.1866 0.4603
C112_4 C 0.14585(9) 0.16158(10) 0.47377(9)
H72_4 H 0.1574 0.1582 0.4825
C113_4 C 0.17504(12) 0.11991(12) 0.50126(9)
N35_4 N 0.01527(6) 0.13587(7) 0.41093(7)
N36_4 N 0.10067(7) 0.23319(7) 0.37273(7)
N37_4 N 0.09636(7) 0.18948(7) 0.42030(6)
N38_4 N 0.06193(7) 0.18039(7) 0.40990(7)
N39_4 N 0.07715(7) 0.16477(8) 0.43970(7)
N40_4 N 0.12861(7) 0.14960(7) 0.47466(7)
N41_4 N 0.15750(8) 0.12278(7) 0.49874(7)
S5_4 S 0.19984(4) 0.11570(7) 0.50491(4)
C152_4 C 0.00126(9) 0.07496(12) 0.63009(12)
S8_4 S 0.00491(4) 0.05016(4) 0.63430(7)
C153_4 C 0.13009(12) 0.24874(9) 0.67504(12)
N57_4 N 0.12722(7) 0.25126(7) 0.65750(8)
S9_4 S 0.13430(7) 0.24509(4) 0.69984(4)
Co7_5 Co 0.2500 0.380481(11) 0.619519(11)
Co8_4 Co 0.119519(11) -0.0000 0.369519(11)
Co9_5 Co 0.130481(11) 0.2500 0.369519(11)
Co10_5 Co 0.130481(11) 0.369519(11) 0.7500
Co11_4 Co -0.0000 0.130481(11) 0.380481(11)
Co13_5 Co 0.2500 0.119519(11) 0.380481(11)
Co15_4 Co 0.1250 0.1250 0.752194(14)
N69_4 N 0.10040(7) 0.27534(7) 0.62861(7)
N70_4 N 0.12494(7) 0.15114(7) 0.52001(7)
N71_4 N 0.15114(7) 0.22999(7) 0.62506(7)
Co8_5 Co 0.119519(11) 1.0000 0.369519(11)
Co14_4 Co 0.1250 0.997806(14) 0.6250
C1_4 C 0.91105(8) 0.03122(7) 0.64916(8)
H1_4 H 0.8983 0.0346 0.6560
C2_4 C 0.92845(8) 0.04316(8) 0.65367(9)
C3_4 C 0.94733(9) 0.03806(10) 0.64400(11)
H2_4 H 0.9596 0.0460 0.6466
C4_4 C 0.94760(9) 0.02116(10) 0.63056(12)
H3_4 H 0.9602 0.0171 0.6239
C5_4 C 0.92924(9) 0.01015(10) 0.62690(10)
C6_4 C 0.84302(8) 0.10172(8) 0.78121(8)
C7_4 C 0.85863(9) 0.08518(9) 0.73466(9)
H5_4 H 0.8477 0.0864 0.7447
C8_4 C 0.85944(11) 0.06736(10) 0.72205(10)
H6_4 H 0.8489 0.0570 0.7231
C9_4 C 0.87551(9) 0.06499(10) 0.70823(10)
H7_4 H 0.8765 0.0528 0.6998
C10_4 C 0.89057(8) 0.08094(8) 0.70667(8)
C11_4 C 0.88826(7) 0.09831(8) 0.71935(8)
H8_4 H 0.8983 0.1092 0.7182
C12_4 C 0.90791(8) 0.07962(8) 0.69153(8)
C13_4 C 0.92619(8) 0.06177(8) 0.66730(9)
C14_4 C 0.93553(8) 0.09430(8) 0.67578(9)
C15_4 C 0.96242(7) 0.11275(9) 0.65435(8)
H9_4 H 0.9628 0.1007 0.6456
C16_4 C 0.94878(8) 0.11271(9) 0.67164(9)
C17_4 C 0.94790(9) 0.13072(9) 0.68399(10)
H10_4 H 0.9388 0.1315 0.6957
C18_4 C 0.96063(11) 0.14744(10) 0.67859(11)
H11_4 H 0.9603 0.1600 0.6866
C19_4 C 0.97377(9) 0.14585(9) 0.66158(10)
H12_4 H 0.9825 0.1574 0.6582
Co1_5 Co 0.869519(11) 0.130481(11) 0.7500
Co2_4 Co 0.997806(14) 0.1250 0.6250
N1_4 N 0.91093(7) 0.01527(6) 0.63587(7)
N2_4 N 0.85431(7) 0.11377(7) 0.77354(6)
N3_4 N 0.87273(7) 0.10067(7) 0.73319(7)
N4_4 N 0.92030(6) 0.09636(7) 0.68948(7)
N5_4 N 0.90990(7) 0.06193(7) 0.68039(7)
N6_4 N 0.93970(7) 0.07715(7) 0.66477(8)
N7_4 N 0.97466(7) 0.12861(7) 0.64960(7)
N8_4 N 0.99874(7) 0.15750(8) 0.62278(7)
S1_4 S 0.82689(3) 0.08475(3) 0.79112(3)
H64_4 H 0.9985 0.1177 0.4296
C114_4 C 0.85084(8) 0.16105(8) 0.78122(7)
H73_4 H 0.8440 0.1483 0.7846
C115_4 C 0.84633(9) 0.17845(8) 0.79316(8)
C116_4 C 0.85600(11) 0.19733(9) 0.78806(10)
H74_4 H 0.8534 0.2096 0.7960
C117_4 C 0.86944(12) 0.19760(9) 0.77116(10)
H75_4 H 0.8761 0.2102 0.7671
C118_4 C 0.87310(10) 0.17924(9) 0.76015(10)
H76_4 H 0.8823 0.1796 0.7485
C119_4 C 0.71879(8) 0.09302(8) 0.85172(8)
C120_4 C 0.76534(9) 0.10863(9) 0.83518(9)
H77_4 H 0.7553 0.0977 0.8364
C121_4 C 0.77795(10) 0.10944(11) 0.81736(10)
H78_4 H 0.7769 0.0989 0.8070
C122_4 C 0.79177(10) 0.12551(9) 0.81499(10)
H79_4 H 0.8002 0.1265 0.8028
C123_4 C 0.79333(8) 0.14057(8) 0.83094(8)
C124_4 C 0.78065(8) 0.13826(7) 0.84831(8)
H80_4 H 0.7818 0.1483 0.8592
C125_4 C 0.80847(8) 0.15791(8) 0.82962(8)
C126_4 C 0.83270(9) 0.17619(8) 0.81177(8)
C127_4 C 0.82422(9) 0.18553(8) 0.84430(8)
C128_4 C 0.84565(8) 0.21242(7) 0.86275(9)
H81_4 H 0.8544 0.2128 0.8507
C129_4 C 0.82836(9) 0.19878(8) 0.86271(9)
C130_4 C 0.81601(10) 0.19790(9) 0.88072(9)
H82_4 H 0.8043 0.1888 0.8815
C131_4 C 0.82141(11) 0.21063(11) 0.89744(10)
H83_4 H 0.8134 0.2103 0.9100
C132_4 C 0.83842(10) 0.22377(9) 0.89585(9)
H84_4 H 0.8418 0.2325 0.9074
Co5_5 Co 0.7500 0.119519(11) 0.880481(11)
N42_4 N 0.86413(7) 0.16093(7) 0.76527(6)
N43_4 N 0.72646(6) 0.10431(7) 0.86377(7)
N44_4 N 0.76681(7) 0.12273(7) 0.85067(7)
N45_4 N 0.81052(7) 0.17030(6) 0.84636(7)
N46_4 N 0.81961(7) 0.15990(7) 0.81193(7)
N47_4 N 0.83523(8) 0.18970(7) 0.82715(7)
N48_4 N 0.85040(7) 0.22466(7) 0.87861(7)
S6_4 S 0.70888(3) 0.07689(3) 0.83475(3)
C133_4 C 0.83895(8) 0.14916(8) 0.71878(7)
H85_4 H 0.8517 0.1560 0.7154
C134_4 C 0.82155(8) 0.15367(9) 0.70684(8)
C135_4 C 0.80267(9) 0.14400(11) 0.71194(10)
H86_4 H 0.7904 0.1466 0.7040
C136_4 C 0.80240(9) 0.13056(12) 0.72884(10)
H87_4 H 0.7898 0.1239 0.7329
C137_4 C 0.82076(9) 0.12690(10) 0.73985(10)
H88_4 H 0.8204 0.1177 0.7515
C138_4 C 0.89137(9) 0.23466(9) 0.66482(9)
H89_4 H 0.9023 0.2447 0.6636
C139_4 C 0.89056(11) 0.22205(10) 0.68264(10)
H90_4 H 0.9011 0.2231 0.6930
C140_4 C 0.87449(9) 0.20823(10) 0.68501(10)
H91_4 H 0.8735 0.1998 0.6972
C141_4 C 0.85943(8) 0.20667(8) 0.66906(8)
C142_4 C 0.86174(7) 0.21935(8) 0.65169(8)
H92_4 H 0.8517 0.2182 0.6408
C143_4 C 0.84209(8) 0.19153(8) 0.67038(8)
C144_4 C 0.82381(8) 0.16730(9) 0.68823(8)
C145_4 C 0.81447(8) 0.17578(9) 0.65570(8)
C146_4 C 0.78758(7) 0.15435(8) 0.63725(9)
H93_4 H 0.7872 0.1456 0.6493
C147_4 C 0.80122(8) 0.17164(9) 0.63729(9)
C148_4 C 0.80210(9) 0.18399(10) 0.61928(9)
H94_4 H 0.8112 0.1957 0.6185
C149_4 C 0.78937(11) 0.17859(11) 0.60256(10)
H95_4 H 0.7897 0.1866 0.5900
C150_4 C 0.77623(9) 0.16158(10) 0.60415(9)
H96_4 H 0.7675 0.1582 0.5926
N49_4 N 0.83907(7) 0.13587(7) 0.73473(6)
N50_4 N 0.87727(7) 0.23319(7) 0.64933(7)
N51_4 N 0.82970(6) 0.18948(7) 0.65364(7)
N52_4 N 0.84010(7) 0.18039(7) 0.68807(7)
N53_4 N 0.81030(7) 0.16477(8) 0.67285(7)
N54_4 N 0.77534(7) 0.14960(7) 0.62139(7)
C151_4 C 0.89828(8) 0.15698(8) 0.71879(8)
N55_4 N 0.88623(7) 0.14569(7) 0.72646(6)
S7_4 S 0.91525(3) 0.17311(3) 0.70888(3)
N56_4 N 0.99874(7) 0.09250(8) 0.62722(7)
Co6_4 Co 0.880481(11) 0.0000 0.630481(11)
C154_4 C 0.78121(8) 0.14828(8) 0.90698(8)
N58_4 N 0.77354(6) 0.13623(7) 0.89569(7)
S10_4 S 0.79112(3) 0.16525(3) 0.92311(3)
C155_4 C 0.85172(8) 0.03121(8) 0.65698(8)
N59_4 N 0.86377(7) 0.02354(6) 0.64569(7)
S11_4 S 0.83475(3) 0.04112(3) 0.67311(3)
Co11_5 Co 1.0000 0.130481(11) 0.380481(11)
Co12_5 Co 0.880481(11) 0.2500 0.619519(11)
Co16_4 Co 0.8750 0.247806(14) 0.8750
Co17_4 Co 0.752194(14) 0.1250 0.6250
N62_4 N 0.73473(6) 0.11413(7) 0.91093(7)
N63_4 N 0.76527(6) 0.08907(7) 0.88587(7)
N64_4 N 0.89933(7) 0.12727(7) 0.76681(7)
N66_4 N 0.73319(7) 0.14933(7) 0.87727(7)
N67_4 N 0.87727(7) 0.01681(7) 0.60067(7)
N68_4 N 0.97466(7) 0.12139(7) 0.60040(7)
H4_4 H 0.9296 0.9985 0.6177
Co6_5 Co 0.880481(11) 1.0000 0.630481(11)
C156_4 C 0.90698(8) 0.96879(8) 0.60172(8)
N60_4 N 0.89569(7) 0.97646(6) 0.61377(7)
S12_4 S 0.92311(3) 0.95888(3) 0.58475(3)
N61_4 N 0.88587(7) 0.98473(6) 0.66093(7)
N65_4 N 0.85067(7) 0.98319(7) 0.62727(7)
C58_5 C 0.13864(12) 0.58293(11) 0.01760(10)
H37_5 H 0.1493 0.5841 0.0073
C59_5 C 0.13786(13) 0.56527(12) 0.02925(12)
H38_5 H 0.1473 0.5541 0.0266
C60_5 C 0.12298(12) 0.56355(12) 0.04519(13)
H39_5 H 0.1222 0.5514 0.0537
C61_5 C 0.10933(10) 0.58011(10) 0.04822(9)
C62_5 C 0.11077(9) 0.59741(8) 0.03496(8)
H40_5 H 0.1011 0.6086 0.0367
C63_5 C 0.09304(10) 0.57939(9) 0.06433(9)
N23_5 N 0.07863(8) 0.59440(8) 0.06397(7)
C64_5 C 0.08293(11) 0.51760(10) 0.13864(12)
H41_5 H 0.0841 0.5073 0.1493
C65_5 C 0.06527(12) 0.52925(12) 0.13786(13)
H42_5 H 0.0541 0.5266 0.1473
C66_5 C 0.06355(12) 0.54519(13) 0.12298(12)
H43_5 H 0.0514 0.5537 0.1222
C67_5 C 0.08011(10) 0.54822(9) 0.10933(10)
C68_5 C 0.09741(8) 0.53496(8) 0.11077(9)
H44_5 H 0.1086 0.5367 0.1011
C69_5 C 0.07939(9) 0.56433(9) 0.09304(10)
N25_5 N 0.09440(8) 0.56397(7) 0.07863(8)
C70_5 C 0.01760(10) 0.63864(12) 0.08293(11)
H45_5 H 0.0073 0.6493 0.0841
C71_5 C 0.02925(12) 0.63786(13) 0.06527(12)
H46_5 H 0.0266 0.6473 0.0541
C72_5 C 0.04519(13) 0.62298(12) 0.06355(12)
H47_5 H 0.0537 0.6222 0.0514
C73_5 C 0.04822(9) 0.60933(10) 0.08011(10)
C74_5 C 0.03496(8) 0.61077(9) 0.09741(8)
H48_5 H 0.0367 0.6011 0.1086
C75_5 C 0.06433(9) 0.59304(10) 0.07939(9)
N26_5 N 0.02001(7) 0.62506(7) 0.09886(7)
N27_5 N 0.06397(7) 0.57863(8) 0.09440(8)
C95_5 C 0.33895(8) 0.53122(7) 0.10084(8)
H61_5 H 0.3517 0.5346 0.0940
C96_5 C 0.32155(8) 0.54316(8) 0.09633(9)
C97_5 C 0.30267(9) 0.53806(10) 0.10600(11)
H62_5 H 0.2904 0.5460 0.1034
C98_5 C 0.30240(9) 0.52116(10) 0.11944(12)
H63_5 H 0.2898 0.5171 0.1261
C99_5 C 0.32076(9) 0.51015(10) 0.12310(10)
H64_5 H 0.3204 0.4985 0.1323
C100_5 C 0.39137(9) 0.58518(9) 0.01534(9)
H65_5 H 0.4023 0.5864 0.0053
C101_5 C 0.39056(11) 0.56736(10) 0.02795(10)
H66_5 H 0.4011 0.5570 0.0269
C102_5 C 0.37449(9) 0.56499(10) 0.04177(10)
H67_5 H 0.3735 0.5528 0.0502
C103_5 C 0.35943(8) 0.58094(8) 0.04333(8)
C104_5 C 0.36174(7) 0.59831(8) 0.03065(8)
H68_5 H 0.3517 0.6092 0.0318
C105_5 C 0.34209(8) 0.57962(8) 0.05847(8)
C106_5 C 0.32381(8) 0.56177(8) 0.08270(9)
C107_5 C 0.31447(8) 0.59430(8) 0.07422(9)
C108_5 C 0.28758(7) 0.61275(9) 0.09565(8)
H69_5 H 0.2872 0.6007 0.1044
C109_5 C 0.30122(8) 0.61271(9) 0.07836(9)
C110_5 C 0.30210(9) 0.63072(9) 0.06601(10)
H70_5 H 0.3112 0.6315 0.0543
C111_5 C 0.28937(11) 0.64744(10) 0.07141(11)
H71_5 H 0.2897 0.6600 0.0634
C112_5 C 0.27623(9) 0.64585(9) 0.08842(10)
H72_5 H 0.2675 0.6574 0.0918
N35_5 N 0.33907(7) 0.51527(6) 0.11413(7)
N36_5 N 0.37727(7) 0.60067(7) 0.01681(7)
N37_5 N 0.32970(6) 0.59636(7) 0.06052(7)
N38_5 N 0.34010(7) 0.56193(7) 0.06961(7)
N39_5 N 0.31030(7) 0.57715(7) 0.08523(8)
H76_5 H 0.0015 0.3823 0.0704
C133_5 C 0.03122(7) 0.33895(8) 0.10084(8)
H85_5 H 0.0346 0.3517 0.0940
C134_5 C 0.04316(8) 0.32155(8) 0.09633(9)
C135_5 C 0.03806(10) 0.30267(9) 0.10600(11)
H86_5 H 0.0460 0.2904 0.1034
C136_5 C 0.02116(10) 0.30240(9) 0.11944(12)
H87_5 H 0.0171 0.2898 0.1261
C137_5 C 0.01015(10) 0.32076(9) 0.12310(10)
C138_5 C 0.08518(9) 0.39137(9) 0.01534(9)
H89_5 H 0.0864 0.4023 0.0053
C139_5 C 0.06736(10) 0.39056(11) 0.02795(10)
H90_5 H 0.0570 0.4011 0.0269
C140_5 C 0.06499(10) 0.37449(9) 0.04177(10)
H91_5 H 0.0528 0.3735 0.0502
C141_5 C 0.08094(8) 0.35943(8) 0.04333(8)
C142_5 C 0.09831(8) 0.36174(7) 0.03065(8)
H92_5 H 0.1092 0.3517 0.0318
C143_5 C 0.07962(8) 0.34209(8) 0.05847(8)
C144_5 C 0.06177(8) 0.32381(8) 0.08270(9)
C145_5 C 0.09430(8) 0.31447(8) 0.07422(9)
C146_5 C 0.11275(9) 0.28758(7) 0.09565(8)
H93_5 H 0.1007 0.2872 0.1044
C147_5 C 0.11271(9) 0.30122(8) 0.07836(9)
C148_5 C 0.13072(9) 0.30210(9) 0.06601(10)
H94_5 H 0.1315 0.3112 0.0543
C149_5 C 0.14744(10) 0.28937(11) 0.07141(11)
H95_5 H 0.1600 0.2897 0.0634
C150_5 C 0.14585(9) 0.27623(9) 0.08842(10)
H96_5 H 0.1574 0.2675 0.0918
N49_5 N 0.01527(6) 0.33907(7) 0.11413(7)
N50_5 N 0.10067(7) 0.37727(7) 0.01681(7)
N51_5 N 0.09636(7) 0.32970(6) 0.06052(7)
N52_5 N 0.06193(7) 0.34010(7) 0.06961(7)
N53_5 N 0.07715(7) 0.31030(7) 0.08523(8)
N54_5 N 0.12861(7) 0.27534(7) 0.10040(7)
C151_5 C 0.03121(8) 0.39828(8) 0.09302(8)
N55_5 N 0.02354(6) 0.38623(7) 0.10431(7)
S7_5 S 0.04112(3) 0.41525(3) 0.07689(3)
C155_5 C 0.09302(8) 0.35172(8) 0.21879(8)
N59_5 N 0.10431(7) 0.36377(7) 0.22646(6)
S11_5 S 0.07689(3) 0.33475(3) 0.20888(3)
C156_5 C 0.14828(8) 0.40698(8) 0.28121(8)
N60_5 N 0.13623(7) 0.39569(7) 0.27354(6)
S12_5 S 0.16525(3) 0.42311(3) 0.29112(3)
Co9_6 Co 0.380481(11) 0.630481(11) 0.0000
Co12_6 Co 0.130481(11) 0.380481(11) 0.0000
Co17_5 Co 0.1250 0.252194(14) 0.1250
N61_5 N 0.08907(7) 0.38587(7) 0.26527(6)
N65_5 N 0.12273(7) 0.35067(7) 0.26681(7)
N67_5 N 0.14933(7) 0.37727(7) 0.23319(7)
Co9_7 Co 0.380481(11) 0.630481(11) 1.0000
Co12_7 Co 0.130481(11) 0.380481(11) 1.0000
C6_5 C 0.96879(8) 0.34302(8) 0.14828(8)
N2_5 N 0.97646(6) 0.35431(7) 0.13623(7)
S1_5 S 0.95888(3) 0.32689(3) 0.16525(3)
C114_5 C 0.96878(7) 0.35084(8) 0.08895(8)
H73_5 H 0.9654 0.3440 0.1017
C115_5 C 0.95684(8) 0.34633(9) 0.07155(8)
C116_5 C 0.96194(10) 0.35600(11) 0.05267(9)
H74_5 H 0.9540 0.3534 0.0404
C117_5 C 0.97884(10) 0.36944(12) 0.05240(9)
H75_5 H 0.9829 0.3761 0.0398
C118_5 C 0.98985(10) 0.37310(10) 0.07076(9)
C119_5 C 0.89828(8) 0.21879(8) 0.15698(8)
C120_5 C 0.91482(9) 0.26534(9) 0.14137(9)
H77_5 H 0.9136 0.2553 0.1523
C121_5 C 0.93264(10) 0.27795(10) 0.14056(11)
H78_5 H 0.9430 0.2769 0.1511
C122_5 C 0.93501(10) 0.29177(10) 0.12449(9)
H79_5 H 0.9472 0.3002 0.1235
C123_5 C 0.91906(8) 0.29333(8) 0.10943(8)
C124_5 C 0.90169(8) 0.28065(8) 0.11174(7)
H80_5 H 0.8908 0.2818 0.1017
C125_5 C 0.92038(8) 0.30847(8) 0.09209(8)
C126_5 C 0.93823(8) 0.33270(9) 0.07381(8)
C127_5 C 0.90570(8) 0.32422(9) 0.06447(8)
C128_5 C 0.88725(9) 0.34565(8) 0.03758(7)
H81_5 H 0.8993 0.3544 0.0372
C129_5 C 0.88729(9) 0.32836(9) 0.05122(8)
C130_5 C 0.86928(9) 0.31601(10) 0.05210(9)
H82_5 H 0.8685 0.3043 0.0612
C131_5 C 0.85256(10) 0.32141(11) 0.03937(11)
H83_5 H 0.8400 0.3134 0.0397
C132_5 C 0.85415(9) 0.33842(10) 0.02623(9)
H84_5 H 0.8426 0.3418 0.0175
Co5_6 Co 0.869519(11) 0.2500 0.130481(11)
N42_5 N 0.98473(6) 0.36413(7) 0.08907(7)
N43_5 N 0.88623(7) 0.22646(6) 0.14569(7)
N44_5 N 0.89933(7) 0.26681(7) 0.12727(7)
N45_5 N 0.90364(7) 0.31052(7) 0.07970(6)
N46_5 N 0.93807(7) 0.31961(7) 0.09010(7)
N47_5 N 0.92285(7) 0.33523(8) 0.06030(7)
N48_5 N 0.87139(7) 0.35040(7) 0.02534(7)
S6_5 S 0.91525(3) 0.20888(3) 0.17311(3)
H88_5 H 0.9985 0.3204 0.1323
C154_5 C 0.84302(8) 0.28121(8) 0.10172(8)
N58_5 N 0.85431(7) 0.27354(6) 0.11377(7)
S10_5 S 0.82689(3) 0.29112(3) 0.08475(3)
Co15_5 Co 0.997806(14) 0.6250 0.1250
Co16_5 Co 0.8750 0.3750 0.002194(14)
N62_5 N 0.83907(7) 0.23473(6) 0.13587(7)
N63_5 N 0.86413(7) 0.26527(6) 0.16093(7)
N64_5 N 0.98319(7) 0.39933(7) 0.12273(7)
N66_5 N 0.87273(7) 0.23319(7) 0.10067(7)
C119_6 C 0.39828(8) 0.03121(8) 0.59302(8)
Co5_7 Co 0.369519(11) 0.0000 0.619519(11)
N43_6 N 0.38623(7) 0.02354(6) 0.60431(7)
S6_6 S 0.41525(3) 0.04112(3) 0.57689(3)
N62_6 N 0.33907(7) 0.01527(6) 0.61413(7)
N66_6 N 0.37273(7) 0.01681(7) 0.64933(7)
C6_6 C 0.46879(8) 0.90698(8) 0.60172(8)
N2_6 N 0.47646(6) 0.89569(7) 0.61377(7)
S1_6 S 0.45888(3) 0.92311(3) 0.58475(3)
C58_6 C 0.63864(12) 0.66707(11) 0.73240(10)
H37_6 H 0.6493 0.6659 0.7427
C59_6 C 0.63786(13) 0.68473(12) 0.72075(12)
H38_6 H 0.6473 0.6959 0.7234
C60_6 C 0.62298(12) 0.68645(12) 0.70481(13)
H39_6 H 0.6222 0.6986 0.6963
C61_6 C 0.60933(10) 0.66989(10) 0.70178(9)
C62_6 C 0.61077(9) 0.65259(8) 0.71504(8)
H40_6 H 0.6011 0.6414 0.7133
C63_6 C 0.59304(10) 0.67061(9) 0.68567(9)
N23_6 N 0.57863(8) 0.65560(8) 0.68603(7)
C64_6 C 0.58293(11) 0.73240(10) 0.61136(12)
H41_6 H 0.5841 0.7427 0.6007
C65_6 C 0.56527(12) 0.72075(12) 0.61214(13)
H42_6 H 0.5541 0.7234 0.6027
C66_6 C 0.56355(12) 0.70481(13) 0.62702(12)
H43_6 H 0.5514 0.6963 0.6278
C67_6 C 0.58011(10) 0.70178(9) 0.64067(10)
C68_6 C 0.59741(8) 0.71504(8) 0.63923(9)
H44_6 H 0.6086 0.7133 0.6489
C69_6 C 0.57939(9) 0.68567(9) 0.65696(10)
N25_6 N 0.59440(8) 0.68603(7) 0.67137(8)
C70_6 C 0.51760(10) 0.61136(12) 0.66707(11)
H45_6 H 0.5073 0.6007 0.6659
C71_6 C 0.52925(12) 0.61214(13) 0.68473(12)
H46_6 H 0.5266 0.6027 0.6959
C72_6 C 0.54519(13) 0.62702(12) 0.68645(12)
H47_6 H 0.5537 0.6278 0.6986
C73_6 C 0.54822(9) 0.64067(10) 0.66989(10)
C74_6 C 0.53496(8) 0.63923(9) 0.65259(8)
H48_6 H 0.5367 0.6489 0.6414
C75_6 C 0.56433(9) 0.65696(10) 0.67061(9)
N26_6 N 0.52001(7) 0.62494(7) 0.65114(7)
N27_6 N 0.56397(7) 0.67137(8) 0.65560(8)
C95_6 C 0.83895(8) 0.71878(7) 0.64916(8)
H61_6 H 0.8517 0.7154 0.6560
C96_6 C 0.82155(8) 0.70684(8) 0.65367(9)
C97_6 C 0.80267(9) 0.71194(10) 0.64400(11)
H62_6 H 0.7904 0.7040 0.6466
C98_6 C 0.80240(9) 0.72884(10) 0.63056(12)
H63_6 H 0.7898 0.7329 0.6239
C99_6 C 0.82076(9) 0.73985(10) 0.62690(10)
H64_6 H 0.8204 0.7515 0.6177
C100_6 C 0.89137(9) 0.66482(9) 0.73466(9)
H65_6 H 0.9023 0.6636 0.7447
C101_6 C 0.89056(11) 0.68264(10) 0.72205(10)
H66_6 H 0.9011 0.6930 0.7231
C102_6 C 0.87449(9) 0.68501(10) 0.70823(10)
H67_6 H 0.8735 0.6972 0.6998
C103_6 C 0.85943(8) 0.66906(8) 0.70667(8)
C104_6 C 0.86174(7) 0.65169(8) 0.71935(8)
H68_6 H 0.8517 0.6408 0.7182
C105_6 C 0.84209(8) 0.67038(8) 0.69153(8)
C106_6 C 0.82381(8) 0.68823(8) 0.66730(9)
C107_6 C 0.81447(8) 0.65570(8) 0.67578(9)
C108_6 C 0.78758(7) 0.63725(9) 0.65435(8)
H69_6 H 0.7872 0.6493 0.6456
C109_6 C 0.80122(8) 0.63729(9) 0.67164(9)
C110_6 C 0.80210(9) 0.61928(9) 0.68399(10)
H70_6 H 0.8112 0.6185 0.6957
C111_6 C 0.78937(11) 0.60256(10) 0.67859(11)
H71_6 H 0.7897 0.5900 0.6866
C112_6 C 0.77623(9) 0.60415(9) 0.66158(10)
H72_6 H 0.7675 0.5926 0.6582
N35_6 N 0.83907(7) 0.73473(6) 0.63587(7)
N36_6 N 0.87727(7) 0.64933(7) 0.73319(7)
N37_6 N 0.82970(6) 0.65364(7) 0.68948(7)
N38_6 N 0.84010(7) 0.68807(7) 0.68039(7)
N39_6 N 0.81030(7) 0.67285(7) 0.66477(8)
C114_6 C 0.46878(7) 0.89916(8) 0.66105(8)
H73_6 H 0.4654 0.9060 0.6483
C115_6 C 0.45684(8) 0.90367(9) 0.67845(8)
C116_6 C 0.46194(10) 0.89400(11) 0.69733(9)
H74_6 H 0.4540 0.8966 0.7096
C117_6 C 0.47884(10) 0.88056(12) 0.69760(9)
H75_6 H 0.4829 0.8739 0.7102
C118_6 C 0.48985(10) 0.87690(10) 0.67924(9)
H76_6 H 0.5015 0.8677 0.6796
C120_6 C 0.41482(9) 0.98466(9) 0.60863(9)
H77_6 H 0.4136 0.9947 0.5977
C121_6 C 0.43264(10) 0.97205(10) 0.60944(11)
H78_6 H 0.4430 0.9731 0.5989
C122_6 C 0.43501(10) 0.95823(10) 0.62551(9)
H79_6 H 0.4472 0.9498 0.6265
C123_6 C 0.41906(8) 0.95667(8) 0.64057(8)
C124_6 C 0.40169(8) 0.96935(8) 0.63826(7)
H80_6 H 0.3908 0.9682 0.6483
C125_6 C 0.42038(8) 0.94153(8) 0.65791(8)
C126_6 C 0.43823(8) 0.91730(9) 0.67619(8)
C127_6 C 0.40570(8) 0.92578(9) 0.68553(8)
C128_6 C 0.38725(9) 0.90435(8) 0.71242(7)
H81_6 H 0.3993 0.8956 0.7128
C129_6 C 0.38729(9) 0.92164(9) 0.69878(8)
C130_6 C 0.36928(9) 0.93399(10) 0.69790(9)
H82_6 H 0.3685 0.9457 0.6888
C131_6 C 0.35256(10) 0.92859(11) 0.71063(11)
H83_6 H 0.3400 0.9366 0.7103
C132_6 C 0.35415(9) 0.91158(10) 0.72377(9)
H84_6 H 0.3426 0.9082 0.7325
Co5_8 Co 0.369519(11) 1.0000 0.619519(11)
N42_6 N 0.48473(6) 0.88587(7) 0.66093(7)
N44_6 N 0.39933(7) 0.98319(7) 0.62273(7)
N45_6 N 0.40364(7) 0.93948(7) 0.67030(6)
N46_6 N 0.43807(7) 0.93039(7) 0.65990(7)
N47_6 N 0.42285(7) 0.91477(8) 0.68970(7)
N48_6 N 0.37139(7) 0.89960(7) 0.72466(7)
C133_6 C 0.53122(7) 0.91105(8) 0.64916(8)
H85_6 H 0.5346 0.8983 0.6560
C134_6 C 0.54316(8) 0.92845(8) 0.65367(9)
C135_6 C 0.53806(10) 0.94733(9) 0.64400(11)
H86_6 H 0.5460 0.9596 0.6466
C136_6 C 0.52116(10) 0.94760(9) 0.63056(12)
H87_6 H 0.5171 0.9602 0.6239
C137_6 C 0.51015(10) 0.92924(9) 0.62690(10)
H88_6 H 0.4985 0.9296 0.6177
C138_6 C 0.58518(9) 0.85863(9) 0.73466(9)
H89_6 H 0.5864 0.8477 0.7447
C139_6 C 0.56736(10) 0.85944(11) 0.72205(10)
H90_6 H 0.5570 0.8489 0.7231
C140_6 C 0.56499(10) 0.87551(9) 0.70823(10)
H91_6 H 0.5528 0.8765 0.6998
C141_6 C 0.58094(8) 0.89057(8) 0.70667(8)
C142_6 C 0.59831(8) 0.88826(7) 0.71935(8)
H92_6 H 0.6092 0.8983 0.7182
C143_6 C 0.57962(8) 0.90791(8) 0.69153(8)
C144_6 C 0.56177(8) 0.92619(8) 0.66730(9)
C145_6 C 0.59430(8) 0.93553(8) 0.67578(9)
C146_6 C 0.61275(9) 0.96242(7) 0.65435(8)
H93_6 H 0.6007 0.9628 0.6456
C147_6 C 0.61271(9) 0.94878(8) 0.67164(9)
C148_6 C 0.63072(9) 0.94790(9) 0.68399(10)
H94_6 H 0.6315 0.9388 0.6957
C149_6 C 0.64744(10) 0.96063(11) 0.67859(11)
H95_6 H 0.6600 0.9603 0.6866
C150_6 C 0.64585(9) 0.97377(9) 0.66158(10)
H96_6 H 0.6574 0.9825 0.6582
N49_6 N 0.51527(6) 0.91093(7) 0.63587(7)
N50_6 N 0.60067(7) 0.87273(7) 0.73319(7)
N51_6 N 0.59636(7) 0.92030(6) 0.68948(7)
N52_6 N 0.56193(7) 0.90990(7) 0.68039(7)
N53_6 N 0.57715(7) 0.93970(7) 0.66477(8)
N54_6 N 0.62861(7) 0.97466(7) 0.64960(7)
C151_6 C 0.53121(8) 0.85172(8) 0.65698(8)
N55_6 N 0.52354(6) 0.86377(7) 0.64569(7)
S7_6 S 0.54112(3) 0.83475(3) 0.67311(3)
C154_6 C 0.34302(8) 0.96879(8) 0.64828(8)
N58_6 N 0.35431(7) 0.97646(6) 0.63623(7)
S10_6 S 0.32689(3) 0.95888(3) 0.66525(3)
C155_6 C 0.59302(8) 0.89828(8) 0.53121(8)
N59_6 N 0.60431(7) 0.88623(7) 0.52354(6)
S11_6 S 0.57689(3) 0.91525(3) 0.54112(3)
C156_6 C 0.64828(8) 0.84302(8) 0.46879(8)
N60_6 N 0.63623(7) 0.85431(7) 0.47646(6)
S12_6 S 0.66525(3) 0.82689(3) 0.45888(3)
Co9_8 Co 0.880481(11) 0.619519(11) 0.7500
Co12_8 Co 0.630481(11) 0.869519(11) 0.7500
Co15_6 Co 0.497806(14) 0.6250 0.6250
Co16_6 Co 0.3750 0.8750 0.747806(14)
Co17_6 Co 0.6250 0.997806(14) 0.6250
N61_6 N 0.58907(7) 0.86413(7) 0.48473(6)
N63_6 N 0.36413(7) 0.98473(6) 0.58907(7)
N64_6 N 0.48319(7) 0.85067(7) 0.62727(7)
N65_6 N 0.62273(7) 0.89933(7) 0.48319(7)
N67_6 N 0.64933(7) 0.87273(7) 0.51681(7)
C6_7 C 0.28121(8) 0.40698(8) 0.64828(8)
N2_7 N 0.27354(6) 0.39569(7) 0.63623(7)
S1_7 S 0.29112(3) 0.42311(3) 0.66525(3)
C58_7 C 0.11136(12) 0.16707(11) 0.51760(10)
H37_7 H 0.1007 0.1659 0.5073
C59_7 C 0.11214(13) 0.18473(12) 0.52925(12)
H38_7 H 0.1027 0.1959 0.5266
C60_7 C 0.12702(12) 0.18645(12) 0.54519(13)
H39_7 H 0.1278 0.1986 0.5537
C61_7 C 0.14067(10) 0.16989(10) 0.54822(9)
C62_7 C 0.13923(9) 0.15259(8) 0.53496(8)
H40_7 H 0.1489 0.1414 0.5367
C63_7 C 0.15696(10) 0.17061(9) 0.56433(9)
N23_7 N 0.17137(8) 0.15560(8) 0.56397(7)
C64_7 C 0.16707(11) 0.23240(10) 0.63864(12)
H41_7 H 0.1659 0.2427 0.6493
C65_7 C 0.18473(12) 0.22075(12) 0.63786(13)
H42_7 H 0.1959 0.2234 0.6473
C66_7 C 0.18645(12) 0.20481(13) 0.62298(12)
H43_7 H 0.1986 0.1963 0.6222
C67_7 C 0.16989(10) 0.20178(9) 0.60933(10)
C68_7 C 0.15259(8) 0.21504(8) 0.61077(9)
H44_7 H 0.1414 0.2133 0.6011
C69_7 C 0.17061(9) 0.18567(9) 0.59304(10)
N25_7 N 0.15560(8) 0.18603(7) 0.57863(8)
C70_7 C 0.23240(10) 0.11136(12) 0.58293(11)
H45_7 H 0.2427 0.1007 0.5841
C71_7 C 0.22075(12) 0.11214(13) 0.56527(12)
H46_7 H 0.2234 0.1027 0.5541
C72_7 C 0.20481(13) 0.12702(12) 0.56355(12)
H47_7 H 0.1963 0.1278 0.5514
C73_7 C 0.20178(9) 0.14067(10) 0.58011(10)
C74_7 C 0.21504(8) 0.13923(9) 0.59741(8)
H48_7 H 0.2133 0.1489 0.6086
C75_7 C 0.18567(9) 0.15696(10) 0.57939(9)
N26_7 N 0.22999(7) 0.12494(7) 0.59886(7)
N27_7 N 0.18603(7) 0.17137(8) 0.59440(8)
C114_7 C 0.28122(7) 0.39916(8) 0.58895(8)
H73_7 H 0.2846 0.4060 0.6017
C115_7 C 0.29316(8) 0.40367(9) 0.57155(8)
C116_7 C 0.28806(10) 0.39400(11) 0.55267(9)
H74_7 H 0.2960 0.3966 0.5404
C117_7 C 0.27116(10) 0.38056(12) 0.55240(9)
H75_7 H 0.2671 0.3739 0.5398
C118_7 C 0.26015(10) 0.37690(10) 0.57076(9)
H76_7 H 0.2485 0.3677 0.5704
C119_7 C 0.35172(8) 0.53121(8) 0.65698(8)
C120_7 C 0.33518(9) 0.48466(9) 0.64137(9)
H77_7 H 0.3364 0.4947 0.6523
C121_7 C 0.31736(10) 0.47205(10) 0.64056(11)
H78_7 H 0.3070 0.4731 0.6511
C122_7 C 0.31499(10) 0.45823(10) 0.62449(9)
H79_7 H 0.3028 0.4498 0.6235
C123_7 C 0.33094(8) 0.45667(8) 0.60943(8)
C124_7 C 0.34831(8) 0.46935(8) 0.61174(7)
H80_7 H 0.3592 0.4682 0.6017
C125_7 C 0.32962(8) 0.44153(8) 0.59209(8)
C126_7 C 0.31177(8) 0.41730(9) 0.57381(8)
C127_7 C 0.34430(8) 0.42578(9) 0.56447(8)
C128_7 C 0.36275(9) 0.40435(8) 0.53758(7)
H81_7 H 0.3507 0.3956 0.5372
C129_7 C 0.36271(9) 0.42164(9) 0.55122(8)
C130_7 C 0.38072(9) 0.43399(10) 0.55210(9)
H82_7 H 0.3815 0.4457 0.5612
C131_7 C 0.39744(10) 0.42859(11) 0.53937(11)
H83_7 H 0.4100 0.4366 0.5397
C132_7 C 0.39585(9) 0.41158(10) 0.52623(9)
H84_7 H 0.4074 0.4082 0.5175
Co5_9 Co 0.380481(11) 0.5000 0.630481(11)
N42_7 N 0.26527(6) 0.38587(7) 0.58907(7)
N43_7 N 0.36377(7) 0.52354(6) 0.64569(7)
N44_7 N 0.35067(7) 0.48319(7) 0.62727(7)
N45_7 N 0.34636(7) 0.43948(7) 0.57970(6)
N46_7 N 0.31193(7) 0.43039(7) 0.59010(7)
N47_7 N 0.32715(7) 0.41477(8) 0.56030(7)
N48_7 N 0.37861(7) 0.39960(7) 0.52534(7)
S6_7 S 0.33475(3) 0.54112(3) 0.67311(3)
C133_7 C 0.21878(7) 0.41105(8) 0.60084(8)
H85_7 H 0.2154 0.3983 0.5940
C134_7 C 0.20684(8) 0.42845(8) 0.59633(9)
C135_7 C 0.21194(10) 0.44733(9) 0.60600(11)
H86_7 H 0.2040 0.4596 0.6034
C136_7 C 0.22884(10) 0.44760(9) 0.61944(12)
H87_7 H 0.2329 0.4602 0.6261
C137_7 C 0.23985(10) 0.42924(9) 0.62310(10)
H88_7 H 0.2515 0.4296 0.6323
C138_7 C 0.16482(9) 0.35863(9) 0.51534(9)
H89_7 H 0.1636 0.3477 0.5053
C139_7 C 0.18264(10) 0.35944(11) 0.52795(10)
H90_7 H 0.1930 0.3489 0.5269
C140_7 C 0.18501(10) 0.37551(9) 0.54177(10)
H91_7 H 0.1972 0.3765 0.5502
C141_7 C 0.16906(8) 0.39057(8) 0.54333(8)
C142_7 C 0.15169(8) 0.38826(7) 0.53065(8)
H92_7 H 0.1408 0.3983 0.5318
C143_7 C 0.17038(8) 0.40791(8) 0.55847(8)
C144_7 C 0.18823(8) 0.42619(8) 0.58270(9)
C145_7 C 0.15570(8) 0.43553(8) 0.57422(9)
C146_7 C 0.13725(9) 0.46242(7) 0.59565(8)
H93_7 H 0.1493 0.4628 0.6044
C147_7 C 0.13729(9) 0.44878(8) 0.57836(9)
C148_7 C 0.11928(9) 0.44790(9) 0.56601(10)
H94_7 H 0.1185 0.4388 0.5543
C149_7 C 0.10256(10) 0.46063(11) 0.57141(11)
H95_7 H 0.0900 0.4603 0.5634
C150_7 C 0.10415(9) 0.47377(9) 0.58842(10)
H96_7 H 0.0926 0.4825 0.5918
N49_7 N 0.23473(6) 0.41093(7) 0.61413(7)
N50_7 N 0.14933(7) 0.37273(7) 0.51681(7)
N51_7 N 0.15364(7) 0.42030(6) 0.56052(7)
N52_7 N 0.18807(7) 0.40990(7) 0.56961(7)
N53_7 N 0.17285(7) 0.43970(7) 0.58523(8)
N54_7 N 0.12139(7) 0.47466(7) 0.60040(7)
C151_7 C 0.21879(8) 0.35172(8) 0.59302(8)
N55_7 N 0.22646(6) 0.36377(7) 0.60431(7)
S7_7 S 0.20888(3) 0.33475(3) 0.57689(3)
C154_7 C 0.40698(8) 0.46879(8) 0.60172(8)
N58_7 N 0.39569(7) 0.47646(6) 0.61377(7)
S10_7 S 0.42311(3) 0.45888(3) 0.58475(3)
C155_7 C 0.15698(8) 0.39828(8) 0.71879(8)
N59_7 N 0.14569(7) 0.38623(7) 0.72646(6)
S11_7 S 0.17311(3) 0.41525(3) 0.70888(3)
C156_7 C 0.10172(8) 0.34302(8) 0.78121(8)
N60_7 N 0.11377(7) 0.35431(7) 0.77354(6)
S12_7 S 0.08475(3) 0.32689(3) 0.79112(3)
Co12_9 Co 0.119519(11) 0.369519(11) 0.5000
Co15_7 Co 0.252194(14) 0.1250 0.6250
Co16_7 Co 0.3750 0.3750 0.502194(14)
Co17_7 Co 0.1250 0.497806(14) 0.6250
N61_7 N 0.16093(7) 0.36413(7) 0.76527(6)
N62_7 N 0.41093(7) 0.51527(6) 0.63587(7)
N63_7 N 0.38587(7) 0.48473(6) 0.66093(7)
N64_7 N 0.26681(7) 0.35067(7) 0.62273(7)
N65_7 N 0.12727(7) 0.39933(7) 0.76681(7)
N66_7 N 0.37727(7) 0.51681(7) 0.60067(7)
N67_7 N 0.10067(7) 0.37273(7) 0.73319(7)
C95_7 C 0.91105(8) 0.21878(7) 0.60084(8)
H61_7 H 0.8983 0.2154 0.5940
C96_7 C 0.92845(8) 0.20684(8) 0.59633(9)
C97_7 C 0.94733(9) 0.21194(10) 0.60600(11)
H62_7 H 0.9596 0.2040 0.6034
C98_7 C 0.94760(9) 0.22884(10) 0.61944(12)
H63_7 H 0.9602 0.2329 0.6261
C99_7 C 0.92924(9) 0.23985(10) 0.62310(10)
H64_7 H 0.9296 0.2515 0.6323
C100_7 C 0.85863(9) 0.16482(9) 0.51534(9)
H65_7 H 0.8477 0.1636 0.5053
C101_7 C 0.85944(11) 0.18264(10) 0.52795(10)
H66_7 H 0.8489 0.1930 0.5269
C102_7 C 0.87551(9) 0.18501(10) 0.54177(10)
H67_7 H 0.8765 0.1972 0.5502
C103_7 C 0.89057(8) 0.16906(8) 0.54333(8)
C104_7 C 0.88826(7) 0.15169(8) 0.53065(8)
H68_7 H 0.8983 0.1408 0.5318
C105_7 C 0.90791(8) 0.17038(8) 0.55847(8)
C106_7 C 0.92619(8) 0.18823(8) 0.58270(9)
C107_7 C 0.93553(8) 0.15570(8) 0.57422(9)
C108_7 C 0.96242(7) 0.13725(9) 0.59565(8)
H69_7 H 0.9628 0.1493 0.6044
C109_7 C 0.94878(8) 0.13729(9) 0.57836(9)
C110_7 C 0.94790(9) 0.11928(9) 0.56601(10)
H70_7 H 0.9388 0.1185 0.5543
C111_7 C 0.96063(11) 0.10256(10) 0.57141(11)
H71_7 H 0.9603 0.0900 0.5634
C112_7 C 0.97377(9) 0.10415(9) 0.58842(10)
H72_7 H 0.9825 0.0926 0.5918
N35_7 N 0.91093(7) 0.23473(6) 0.61413(7)
N36_7 N 0.87273(7) 0.14933(7) 0.51681(7)
N37_7 N 0.92030(6) 0.15364(7) 0.56052(7)
N38_7 N 0.90990(7) 0.18807(7) 0.56961(7)
N39_7 N 0.93970(7) 0.17285(7) 0.58523(8)
Co9_9 Co 0.869519(11) 0.119519(11) 0.5000
C58_8 C 0.61136(12) 0.08293(11) 0.23240(10)
H37_8 H 0.6007 0.0841 0.2427
C59_8 C 0.61214(13) 0.06527(12) 0.22075(12)
H38_8 H 0.6027 0.0541 0.2234
C60_8 C 0.62702(12) 0.06355(12) 0.20481(13)
H39_8 H 0.6278 0.0514 0.1963
C61_8 C 0.64067(10) 0.08011(10) 0.20178(9)
C62_8 C 0.63923(9) 0.09741(8) 0.21504(8)
H40_8 H 0.6489 0.1086 0.2133
C63_8 C 0.65696(10) 0.07939(9) 0.18567(9)
N23_8 N 0.67137(8) 0.09440(8) 0.18603(7)
C64_8 C 0.66707(11) 0.01760(10) 0.11136(12)
H41_8 H 0.6659 0.0073 0.1007
C65_8 C 0.68473(12) 0.02925(12) 0.11214(13)
H42_8 H 0.6959 0.0266 0.1027
C66_8 C 0.68645(12) 0.04519(13) 0.12702(12)
H43_8 H 0.6986 0.0537 0.1278
C67_8 C 0.66989(10) 0.04822(9) 0.14067(10)
C68_8 C 0.65259(8) 0.03496(8) 0.13923(9)
H44_8 H 0.6414 0.0367 0.1489
C69_8 C 0.67061(9) 0.06433(9) 0.15696(10)
N25_8 N 0.65560(8) 0.06397(7) 0.17137(8)
C70_8 C 0.73240(10) 0.13864(12) 0.16707(11)
H45_8 H 0.7427 0.1493 0.1659
C71_8 C 0.72075(12) 0.13786(13) 0.18473(12)
H46_8 H 0.7234 0.1473 0.1959
C72_8 C 0.70481(13) 0.12298(12) 0.18645(12)
H47_8 H 0.6963 0.1222 0.1986
C73_8 C 0.70178(9) 0.10933(10) 0.16989(10)
C74_8 C 0.71504(8) 0.11077(9) 0.15259(8)
H48_8 H 0.7133 0.1011 0.1414
C75_8 C 0.68567(9) 0.09304(10) 0.17061(9)
N26_8 N 0.72999(7) 0.12506(7) 0.15114(7)
N27_8 N 0.68603(7) 0.07863(8) 0.15560(8)
C95_8 C 0.41105(8) 0.03122(7) 0.14916(8)
H61_8 H 0.3983 0.0346 0.1560
C96_8 C 0.42845(8) 0.04316(8) 0.15367(9)
C97_8 C 0.44733(9) 0.03806(10) 0.14400(11)
H62_8 H 0.4596 0.0460 0.1466
C98_8 C 0.44760(9) 0.02116(10) 0.13056(12)
H63_8 H 0.4602 0.0171 0.1239
C99_8 C 0.42924(9) 0.01015(10) 0.12690(10)
C100_8 C 0.35863(9) 0.08518(9) 0.23466(9)
H65_8 H 0.3477 0.0864 0.2447
C101_8 C 0.35944(11) 0.06736(10) 0.22205(10)
H66_8 H 0.3489 0.0570 0.2231
C102_8 C 0.37551(9) 0.06499(10) 0.20823(10)
H67_8 H 0.3765 0.0528 0.1998
C103_8 C 0.39057(8) 0.08094(8) 0.20667(8)
C104_8 C 0.38826(7) 0.09831(8) 0.21935(8)
H68_8 H 0.3983 0.1092 0.2182
C105_8 C 0.40791(8) 0.07962(8) 0.19153(8)
C106_8 C 0.42619(8) 0.06177(8) 0.16730(9)
C107_8 C 0.43553(8) 0.09430(8) 0.17578(9)
C108_8 C 0.46242(7) 0.11275(9) 0.15435(8)
H69_8 H 0.4628 0.1007 0.1456
C109_8 C 0.44878(8) 0.11271(9) 0.17164(9)
C110_8 C 0.44790(9) 0.13072(9) 0.18399(10)
H70_8 H 0.4388 0.1315 0.1957
C111_8 C 0.46063(11) 0.14744(10) 0.17859(11)
H71_8 H 0.4603 0.1600 0.1866
C112_8 C 0.47377(9) 0.14585(9) 0.16158(10)
H72_8 H 0.4825 0.1574 0.1582
N35_8 N 0.41093(7) 0.01527(6) 0.13587(7)
N36_8 N 0.37273(7) 0.10067(7) 0.23319(7)
N37_8 N 0.42030(6) 0.09636(7) 0.18948(7)
N38_8 N 0.40990(7) 0.06193(7) 0.18039(7)
N39_8 N 0.43970(7) 0.07715(7) 0.16477(8)
Co9_10 Co 0.369519(11) 0.130481(11) 0.2500
Co15_8 Co 0.752194(14) 0.1250 0.1250
C6_8 C 0.78121(8) 0.84302(8) 0.10172(8)
N2_8 N 0.77354(6) 0.85431(7) 0.11377(7)
S1_8 S 0.79112(3) 0.82689(3) 0.08475(3)
H64_8 H 0.4296 0.9985 0.1177
C114_8 C 0.78122(7) 0.85084(8) 0.16105(8)
H73_8 H 0.7846 0.8440 0.1483
C115_8 C 0.79316(8) 0.84633(9) 0.17845(8)
C116_8 C 0.78806(10) 0.85600(11) 0.19733(9)
H74_8 H 0.7960 0.8534 0.2096
C117_8 C 0.77116(10) 0.86944(12) 0.19760(9)
H75_8 H 0.7671 0.8761 0.2102
C118_8 C 0.76015(10) 0.87310(10) 0.17924(9)
H76_8 H 0.7485 0.8823 0.1796
C119_8 C 0.85172(8) 0.71879(8) 0.09302(8)
C120_8 C 0.83518(9) 0.76534(9) 0.10863(9)
H77_8 H 0.8364 0.7553 0.0977
C121_8 C 0.81736(10) 0.77795(10) 0.10944(11)
H78_8 H 0.8070 0.7769 0.0989
C122_8 C 0.81499(10) 0.79177(10) 0.12551(9)
H79_8 H 0.8028 0.8002 0.1265
C123_8 C 0.83094(8) 0.79333(8) 0.14057(8)
C124_8 C 0.84831(8) 0.78065(8) 0.13826(7)
H80_8 H 0.8592 0.7818 0.1483
C125_8 C 0.82962(8) 0.80847(8) 0.15791(8)
C126_8 C 0.81177(8) 0.83270(9) 0.17619(8)
C127_8 C 0.84430(8) 0.82422(9) 0.18553(8)
C128_8 C 0.86275(9) 0.84565(8) 0.21242(7)
H81_8 H 0.8507 0.8544 0.2128
C129_8 C 0.86271(9) 0.82836(9) 0.19878(8)
C130_8 C 0.88072(9) 0.81601(10) 0.19790(9)
H82_8 H 0.8815 0.8043 0.1888
C131_8 C 0.89744(10) 0.82141(11) 0.21063(11)
H83_8 H 0.9100 0.8134 0.2103
C132_8 C 0.89585(9) 0.83842(10) 0.22377(9)
H84_8 H 0.9074 0.8418 0.2325
Co5_10 Co 0.880481(11) 0.7500 0.119519(11)
N42_8 N 0.76527(6) 0.86413(7) 0.16093(7)
N43_8 N 0.86377(7) 0.72646(6) 0.10431(7)
N44_8 N 0.85067(7) 0.76681(7) 0.12273(7)
N45_8 N 0.84636(7) 0.81052(7) 0.17030(6)
N46_8 N 0.81193(7) 0.81961(7) 0.15990(7)
N47_8 N 0.82715(7) 0.83523(8) 0.18970(7)
N48_8 N 0.87861(7) 0.85040(7) 0.22466(7)
S6_8 S 0.83475(3) 0.70888(3) 0.07689(3)
C133_8 C 0.71878(7) 0.83895(8) 0.14916(8)
H85_8 H 0.7154 0.8517 0.1560
C134_8 C 0.70684(8) 0.82155(8) 0.15367(9)
C135_8 C 0.71194(10) 0.80267(9) 0.14400(11)
H86_8 H 0.7040 0.7904 0.1466
C136_8 C 0.72884(10) 0.80240(9) 0.13056(12)
H87_8 H 0.7329 0.7898 0.1239
C137_8 C 0.73985(10) 0.82076(9) 0.12690(10)
H88_8 H 0.7515 0.8204 0.1177
C138_8 C 0.66482(9) 0.89137(9) 0.23466(9)
H89_8 H 0.6636 0.9023 0.2447
C139_8 C 0.68264(10) 0.89056(11) 0.22205(10)
H90_8 H 0.6930 0.9011 0.2231
C140_8 C 0.68501(10) 0.87449(9) 0.20823(10)
H91_8 H 0.6972 0.8735 0.1998
C141_8 C 0.66906(8) 0.85943(8) 0.20667(8)
C142_8 C 0.65169(8) 0.86174(7) 0.21935(8)
H92_8 H 0.6408 0.8517 0.2182
C143_8 C 0.67038(8) 0.84209(8) 0.19153(8)
C144_8 C 0.68823(8) 0.82381(8) 0.16730(9)
C145_8 C 0.65570(8) 0.81447(8) 0.17578(9)
C146_8 C 0.63725(9) 0.78758(7) 0.15435(8)
H93_8 H 0.6493 0.7872 0.1456
C147_8 C 0.63729(9) 0.80122(8) 0.17164(9)
C148_8 C 0.61928(9) 0.80210(9) 0.18399(10)
H94_8 H 0.6185 0.8112 0.1957
C149_8 C 0.60256(10) 0.78937(11) 0.17859(11)
H95_8 H 0.5900 0.7897 0.1866
C150_8 C 0.60415(9) 0.77623(9) 0.16158(10)
H96_8 H 0.5926 0.7675 0.1582
N49_8 N 0.73473(6) 0.83907(7) 0.13587(7)
N50_8 N 0.64933(7) 0.87727(7) 0.23319(7)
N51_8 N 0.65364(7) 0.82970(6) 0.18948(7)
N52_8 N 0.68807(7) 0.84010(7) 0.18039(7)
N53_8 N 0.67285(7) 0.81030(7) 0.16477(8)
N54_8 N 0.62139(7) 0.77534(7) 0.14960(7)
C151_8 C 0.71879(8) 0.89828(8) 0.15698(8)
N55_8 N 0.72646(6) 0.88623(7) 0.14569(7)
S7_8 S 0.70888(3) 0.91525(3) 0.17311(3)
C154_8 C 0.90698(8) 0.78121(8) 0.14828(8)
N58_8 N 0.89569(7) 0.77354(6) 0.13623(7)
S10_8 S 0.92311(3) 0.79112(3) 0.16525(3)
C155_8 C 0.65698(8) 0.85172(8) 0.03121(8)
N59_8 N 0.64569(7) 0.86377(7) 0.02354(6)
S11_8 S 0.67311(3) 0.83475(3) 0.04112(3)
Co12_10 Co 0.619519(11) 0.880481(11) 0.2500
Co16_8 Co 0.8750 0.8750 0.247806(14)
Co17_8 Co 0.6250 0.752194(14) 0.1250
N62_8 N 0.91093(7) 0.73473(6) 0.11413(7)
N63_8 N 0.88587(7) 0.76527(6) 0.08907(7)
N64_8 N 0.76681(7) 0.89933(7) 0.12727(7)
N66_8 N 0.87727(7) 0.73319(7) 0.14933(7)
N67_8 N 0.60067(7) 0.87727(7) 0.01681(7)
C156_8 C 0.60172(8) 0.90698(8) 0.96879(8)
N60_8 N 0.61377(7) 0.89569(7) 0.97646(6)
S12_8 S 0.58475(3) 0.92311(3) 0.95888(3)
N61_8 N 0.66093(7) 0.88587(7) 0.98473(6)
N65_8 N 0.62727(7) 0.85067(7) 0.98319(7)
C95_9 C 0.10084(8) 0.33895(8) 0.53122(7)
H61_9 H 0.0940 0.3517 0.5346
C96_9 C 0.09633(9) 0.32155(8) 0.54316(8)
C97_9 C 0.10600(11) 0.30267(9) 0.53806(10)
H62_9 H 0.1034 0.2904 0.5460
C98_9 C 0.11944(12) 0.30240(9) 0.52116(10)
H63_9 H 0.1261 0.2898 0.5171
C99_9 C 0.12310(10) 0.32076(9) 0.51015(10)
H64_9 H 0.1323 0.3204 0.4985
C100_9 C 0.01534(9) 0.39137(9) 0.58518(9)
H65_9 H 0.0053 0.4023 0.5864
C101_9 C 0.02795(10) 0.39056(11) 0.56736(10)
H66_9 H 0.0269 0.4011 0.5570
C102_9 C 0.04177(10) 0.37449(9) 0.56499(10)
H67_9 H 0.0502 0.3735 0.5528
C103_9 C 0.04333(8) 0.35943(8) 0.58094(8)
C104_9 C 0.03065(8) 0.36174(7) 0.59831(8)
H68_9 H 0.0318 0.3517 0.6092
C105_9 C 0.05847(8) 0.34209(8) 0.57962(8)
C106_9 C 0.08270(9) 0.32381(8) 0.56177(8)
C107_9 C 0.07422(9) 0.31447(8) 0.59430(8)
C108_9 C 0.09565(8) 0.28758(7) 0.61275(9)
H69_9 H 0.1044 0.2872 0.6007
C109_9 C 0.07836(9) 0.30122(8) 0.61271(9)
C110_9 C 0.06601(10) 0.30210(9) 0.63072(9)
H70_9 H 0.0543 0.3112 0.6315
C111_9 C 0.07141(11) 0.28937(11) 0.64744(10)
H71_9 H 0.0634 0.2897 0.6600
C112_9 C 0.08842(10) 0.27623(9) 0.64585(9)
H72_9 H 0.0918 0.2675 0.6574
N35_9 N 0.11413(7) 0.33907(7) 0.51527(6)
N36_9 N 0.01681(7) 0.37727(7) 0.60067(7)
N37_9 N 0.06052(7) 0.32970(6) 0.59636(7)
N38_9 N 0.06961(7) 0.34010(7) 0.56193(7)
N39_9 N 0.08523(8) 0.31030(7) 0.57715(7)
H76_9 H 0.0704 0.0015 0.3823
C133_9 C 0.10084(8) 0.03122(7) 0.33895(8)
H85_9 H 0.0940 0.0346 0.3517
C134_9 C 0.09633(9) 0.04316(8) 0.32155(8)
C135_9 C 0.10600(11) 0.03806(10) 0.30267(9)
H86_9 H 0.1034 0.0460 0.2904
C136_9 C 0.11944(12) 0.02116(10) 0.30240(9)
H87_9 H 0.1261 0.0171 0.2898
C137_9 C 0.12310(10) 0.01015(10) 0.32076(9)
C138_9 C 0.01534(9) 0.08518(9) 0.39137(9)
H89_9 H 0.0053 0.0864 0.4023
C139_9 C 0.02795(10) 0.06736(10) 0.39056(11)
H90_9 H 0.0269 0.0570 0.4011
C140_9 C 0.04177(10) 0.06499(10) 0.37449(9)
H91_9 H 0.0502 0.0528 0.3735
C141_9 C 0.04333(8) 0.08094(8) 0.35943(8)
C142_9 C 0.03065(8) 0.09831(8) 0.36174(7)
H92_9 H 0.0318 0.1092 0.3517
C143_9 C 0.05847(8) 0.07962(8) 0.34209(8)
C144_9 C 0.08270(9) 0.06177(8) 0.32381(8)
C145_9 C 0.07422(9) 0.09430(8) 0.31447(8)
C146_9 C 0.09565(8) 0.11275(9) 0.28758(7)
H93_9 H 0.1044 0.1007 0.2872
C147_9 C 0.07836(9) 0.11271(9) 0.30122(8)
C148_9 C 0.06601(10) 0.13072(9) 0.30210(9)
H94_9 H 0.0543 0.1315 0.3112
C149_9 C 0.07141(11) 0.14744(10) 0.28937(11)
H95_9 H 0.0634 0.1600 0.2897
C150_9 C 0.08842(10) 0.14585(9) 0.27623(9)
H96_9 H 0.0918 0.1574 0.2675
N49_9 N 0.11413(7) 0.01527(6) 0.33907(7)
N50_9 N 0.01681(7) 0.10067(7) 0.37727(7)
N51_9 N 0.06052(7) 0.09636(7) 0.32970(6)
N52_9 N 0.06961(7) 0.06193(7) 0.34010(7)
N53_9 N 0.08523(8) 0.07715(7) 0.31030(7)
N54_9 N 0.10040(7) 0.12861(7) 0.27534(7)
C151_9 C 0.09302(8) 0.03121(8) 0.39828(8)
N55_9 N 0.10431(7) 0.02354(6) 0.38623(7)
S7_9 S 0.07689(3) 0.04112(3) 0.41525(3)
C155_9 C 0.21879(8) 0.09302(8) 0.35172(8)
N59_9 N 0.22646(6) 0.10431(7) 0.36377(7)
S11_9 S 0.20888(3) 0.07689(3) 0.33475(3)
C156_9 C 0.28121(8) 0.14828(8) 0.40698(8)
N60_9 N 0.27354(6) 0.13623(7) 0.39569(7)
S12_9 S 0.29112(3) 0.16525(3) 0.42311(3)
Co9_11 Co 0.0000 0.380481(11) 0.630481(11)
Co17_9 Co 0.1250 0.1250 0.252194(14)
N61_9 N 0.26527(6) 0.08907(7) 0.38587(7)
N65_9 N 0.26681(7) 0.12273(7) 0.35067(7)
N67_9 N 0.23319(7) 0.14933(7) 0.37727(7)
C6_9 C 0.14828(8) 0.96879(8) 0.34302(8)
N2_9 N 0.13623(7) 0.97646(6) 0.35431(7)
S1_9 S 0.16525(3) 0.95888(3) 0.32689(3)
C114_9 C 0.08895(8) 0.96878(7) 0.35084(8)
H73_9 H 0.1017 0.9654 0.3440
C115_9 C 0.07155(8) 0.95684(8) 0.34633(9)
C116_9 C 0.05267(9) 0.96194(10) 0.35600(11)
H74_9 H 0.0404 0.9540 0.3534
C117_9 C 0.05240(9) 0.97884(10) 0.36944(12)
H75_9 H 0.0398 0.9829 0.3761
C118_9 C 0.07076(9) 0.98985(10) 0.37310(10)
C119_9 C 0.15698(8) 0.89828(8) 0.21879(8)
C120_9 C 0.14137(9) 0.91482(9) 0.26534(9)
H77_9 H 0.1523 0.9136 0.2553
C121_9 C 0.14056(11) 0.93264(10) 0.27795(10)
H78_9 H 0.1511 0.9430 0.2769
C122_9 C 0.12449(9) 0.93501(10) 0.29177(10)
H79_9 H 0.1235 0.9472 0.3002
C123_9 C 0.10943(8) 0.91906(8) 0.29333(8)
C124_9 C 0.11174(7) 0.90169(8) 0.28065(8)
H80_9 H 0.1017 0.8908 0.2818
C125_9 C 0.09209(8) 0.92038(8) 0.30847(8)
C126_9 C 0.07381(8) 0.93823(8) 0.33270(9)
C127_9 C 0.06447(8) 0.90570(8) 0.32422(9)
C128_9 C 0.03758(7) 0.88725(9) 0.34565(8)
H81_9 H 0.0372 0.8993 0.3544
C129_9 C 0.05122(8) 0.88729(9) 0.32836(9)
C130_9 C 0.05210(9) 0.86928(9) 0.31601(10)
H82_9 H 0.0612 0.8685 0.3043
C131_9 C 0.03937(11) 0.85256(10) 0.32141(11)
H83_9 H 0.0397 0.8400 0.3134
C132_9 C 0.02623(9) 0.85415(9) 0.33842(10)
H84_9 H 0.0175 0.8426 0.3418
Co5_11 Co 0.130481(11) 0.869519(11) 0.2500
N42_9 N 0.08907(7) 0.98473(6) 0.36413(7)
N43_9 N 0.14569(7) 0.88623(7) 0.22646(6)
N44_9 N 0.12727(7) 0.89933(7) 0.26681(7)
N45_9 N 0.07970(6) 0.90364(7) 0.31052(7)
N46_9 N 0.09010(7) 0.93807(7) 0.31961(7)
N47_9 N 0.06030(7) 0.92285(7) 0.33523(8)
N48_9 N 0.02534(7) 0.87139(7) 0.35040(7)
S6_9 S 0.17311(3) 0.91525(3) 0.20888(3)
H88_9 H 0.1323 0.9985 0.3204
C154_9 C 0.10172(8) 0.84302(8) 0.28121(8)
N58_9 N 0.11377(7) 0.85431(7) 0.27354(6)
S10_9 S 0.08475(3) 0.82689(3) 0.29112(3)
Co16_9 Co 0.002194(14) 0.8750 0.3750
N62_9 N 0.13587(7) 0.83907(7) 0.23473(6)
N63_9 N 0.16093(7) 0.86413(7) 0.26527(6)
N64_9 N 0.12273(7) 0.98319(7) 0.39933(7)
N66_9 N 0.10067(7) 0.87273(7) 0.23319(7)
Co9_12 Co 1.0000 0.380481(11) 0.630481(11)
C119_10 C 0.59302(8) 0.39828(8) 0.03121(8)
Co5_12 Co 0.619519(11) 0.369519(11) 0.0000
N43_10 N 0.60431(7) 0.38623(7) 0.02354(6)
S6_10 S 0.57689(3) 0.41525(3) 0.04112(3)
N62_10 N 0.61413(7) 0.33907(7) 0.01527(6)
N66_10 N 0.64933(7) 0.37273(7) 0.01681(7)
C6_10 C 0.60172(8) 0.46879(8) 0.90698(8)
N2_10 N 0.61377(7) 0.47646(6) 0.89569(7)
S1_10 S 0.58475(3) 0.45888(3) 0.92311(3)
C95_10 C 0.64916(8) 0.83895(8) 0.71878(7)
H61_10 H 0.6560 0.8517 0.7154
C96_10 C 0.65367(9) 0.82155(8) 0.70684(8)
C97_10 C 0.64400(11) 0.80267(9) 0.71194(10)
H62_10 H 0.6466 0.7904 0.7040
C98_10 C 0.63056(12) 0.80240(9) 0.72884(10)
H63_10 H 0.6239 0.7898 0.7329
C99_10 C 0.62690(10) 0.82076(9) 0.73985(10)
H64_10 H 0.6177 0.8204 0.7515
C100_10 C 0.73466(9) 0.89137(9) 0.66482(9)
H65_10 H 0.7447 0.9023 0.6636
C101_10 C 0.72205(10) 0.89056(11) 0.68264(10)
H66_10 H 0.7231 0.9011 0.6930
C102_10 C 0.70823(10) 0.87449(9) 0.68501(10)
H67_10 H 0.6998 0.8735 0.6972
C103_10 C 0.70667(8) 0.85943(8) 0.66906(8)
C104_10 C 0.71935(8) 0.86174(7) 0.65169(8)
H68_10 H 0.7182 0.8517 0.6408
C105_10 C 0.69153(8) 0.84209(8) 0.67038(8)
C106_10 C 0.66730(9) 0.82381(8) 0.68823(8)
C107_10 C 0.67578(9) 0.81447(8) 0.65570(8)
C108_10 C 0.65435(8) 0.78758(7) 0.63725(9)
H69_10 H 0.6456 0.7872 0.6493
C109_10 C 0.67164(9) 0.80122(8) 0.63729(9)
C110_10 C 0.68399(10) 0.80210(9) 0.61928(9)
H70_10 H 0.6957 0.8112 0.6185
C111_10 C 0.67859(11) 0.78937(11) 0.60256(10)
H71_10 H 0.6866 0.7897 0.5900
C112_10 C 0.66158(10) 0.77623(9) 0.60415(9)
H72_10 H 0.6582 0.7675 0.5926
N35_10 N 0.63587(7) 0.83907(7) 0.73473(6)
N36_10 N 0.73319(7) 0.87727(7) 0.64933(7)
N37_10 N 0.68948(7) 0.82970(6) 0.65364(7)
N38_10 N 0.68039(7) 0.84010(7) 0.68807(7)
N39_10 N 0.66477(8) 0.81030(7) 0.67285(7)
C114_10 C 0.66105(8) 0.46878(7) 0.89916(8)
H73_10 H 0.6483 0.4654 0.9060
C115_10 C 0.67845(8) 0.45684(8) 0.90367(9)
C116_10 C 0.69733(9) 0.46194(10) 0.89400(11)
H74_10 H 0.7096 0.4540 0.8966
C117_10 C 0.69760(9) 0.47884(10) 0.88056(12)
H75_10 H 0.7102 0.4829 0.8739
C118_10 C 0.67924(9) 0.48985(10) 0.87690(10)
H76_10 H 0.6796 0.5015 0.8677
C120_10 C 0.60863(9) 0.41482(9) 0.98466(9)
H77_10 H 0.5977 0.4136 0.9947
C121_10 C 0.60944(11) 0.43264(10) 0.97205(10)
H78_10 H 0.5989 0.4430 0.9731
C122_10 C 0.62551(9) 0.43501(10) 0.95823(10)
H79_10 H 0.6265 0.4472 0.9498
C123_10 C 0.64057(8) 0.41906(8) 0.95667(8)
C124_10 C 0.63826(7) 0.40169(8) 0.96935(8)
H80_10 H 0.6483 0.3908 0.9682
C125_10 C 0.65791(8) 0.42038(8) 0.94153(8)
C126_10 C 0.67619(8) 0.43823(8) 0.91730(9)
C127_10 C 0.68553(8) 0.40570(8) 0.92578(9)
C128_10 C 0.71242(7) 0.38725(9) 0.90435(8)
H81_10 H 0.7128 0.3993 0.8956
C129_10 C 0.69878(8) 0.38729(9) 0.92164(9)
C130_10 C 0.69790(9) 0.36928(9) 0.93399(10)
H82_10 H 0.6888 0.3685 0.9457
C131_10 C 0.71063(11) 0.35256(10) 0.92859(11)
H83_10 H 0.7103 0.3400 0.9366
C132_10 C 0.72377(9) 0.35415(9) 0.91158(10)
H84_10 H 0.7325 0.3426 0.9082
Co5_13 Co 0.619519(11) 0.369519(11) 1.0000
N42_10 N 0.66093(7) 0.48473(6) 0.88587(7)
N44_10 N 0.62273(7) 0.39933(7) 0.98319(7)
N45_10 N 0.67030(6) 0.40364(7) 0.93948(7)
N46_10 N 0.65990(7) 0.43807(7) 0.93039(7)
N47_10 N 0.68970(7) 0.42285(7) 0.91477(8)
N48_10 N 0.72466(7) 0.37139(7) 0.89960(7)
C133_10 C 0.64916(8) 0.53122(7) 0.91105(8)
H85_10 H 0.6560 0.5346 0.8983
C134_10 C 0.65367(9) 0.54316(8) 0.92845(8)
C135_10 C 0.64400(11) 0.53806(10) 0.94733(9)
H86_10 H 0.6466 0.5460 0.9596
C136_10 C 0.63056(12) 0.52116(10) 0.94760(9)
H87_10 H 0.6239 0.5171 0.9602
C137_10 C 0.62690(10) 0.51015(10) 0.92924(9)
H88_10 H 0.6177 0.4985 0.9296
C138_10 C 0.73466(9) 0.58518(9) 0.85863(9)
H89_10 H 0.7447 0.5864 0.8477
C139_10 C 0.72205(10) 0.56736(10) 0.85944(11)
H90_10 H 0.7231 0.5570 0.8489
C140_10 C 0.70823(10) 0.56499(10) 0.87551(9)
H91_10 H 0.6998 0.5528 0.8765
C141_10 C 0.70667(8) 0.58094(8) 0.89057(8)
C142_10 C 0.71935(8) 0.59831(8) 0.88826(7)
H92_10 H 0.7182 0.6092 0.8983
C143_10 C 0.69153(8) 0.57962(8) 0.90791(8)
C144_10 C 0.66730(9) 0.56177(8) 0.92619(8)
C145_10 C 0.67578(9) 0.59430(8) 0.93553(8)
C146_10 C 0.65435(8) 0.61275(9) 0.96242(7)
H93_10 H 0.6456 0.6007 0.9628
C147_10 C 0.67164(9) 0.61271(9) 0.94878(8)
C148_10 C 0.68399(10) 0.63072(9) 0.94790(9)
H94_10 H 0.6957 0.6315 0.9388
C149_10 C 0.67859(11) 0.64744(10) 0.96063(11)
H95_10 H 0.6866 0.6600 0.9603
C150_10 C 0.66158(10) 0.64585(9) 0.97377(9)
H96_10 H 0.6582 0.6574 0.9825
N49_10 N 0.63587(7) 0.51527(6) 0.91093(7)
N50_10 N 0.73319(7) 0.60067(7) 0.87273(7)
N51_10 N 0.68948(7) 0.59636(7) 0.92030(6)
N52_10 N 0.68039(7) 0.56193(7) 0.90990(7)
N53_10 N 0.66477(8) 0.57715(7) 0.93970(7)
N54_10 N 0.64960(7) 0.62861(7) 0.97466(7)
C151_10 C 0.65698(8) 0.53121(8) 0.85172(8)
N55_10 N 0.64569(7) 0.52354(6) 0.86377(7)
S7_10 S 0.67311(3) 0.54112(3) 0.83475(3)
C154_10 C 0.64828(8) 0.34302(8) 0.96879(8)
N58_10 N 0.63623(7) 0.35431(7) 0.97646(6)
S10_10 S 0.66525(3) 0.32689(3) 0.95888(3)
C155_10 C 0.53121(8) 0.59302(8) 0.89828(8)
N59_10 N 0.52354(6) 0.60431(7) 0.88623(7)
S11_10 S 0.54112(3) 0.57689(3) 0.91525(3)
C156_10 C 0.46879(8) 0.64828(8) 0.84302(8)
N60_10 N 0.47646(6) 0.63623(7) 0.85431(7)
S12_10 S 0.45888(3) 0.66525(3) 0.82689(3)
Co9_13 Co 0.7500 0.880481(11) 0.619519(11)
Co16_10 Co 0.747806(14) 0.3750 0.8750
Co17_10 Co 0.6250 0.6250 0.997806(14)
N61_10 N 0.48473(6) 0.58907(7) 0.86413(7)
N63_10 N 0.58907(7) 0.36413(7) 0.98473(6)
N64_10 N 0.62727(7) 0.48319(7) 0.85067(7)
N65_10 N 0.48319(7) 0.62273(7) 0.89933(7)
N67_10 N 0.51681(7) 0.64933(7) 0.87273(7)
C6_11 C 0.64828(8) 0.28121(8) 0.40698(8)
N2_11 N 0.63623(7) 0.27354(6) 0.39569(7)
S1_11 S 0.66525(3) 0.29112(3) 0.42311(3)
C114_11 C 0.58895(8) 0.28122(7) 0.39916(8)
H73_11 H 0.6017 0.2846 0.4060
C115_11 C 0.57155(8) 0.29316(8) 0.40367(9)
C116_11 C 0.55267(9) 0.28806(10) 0.39400(11)
H74_11 H 0.5404 0.2960 0.3966
C117_11 C 0.55240(9) 0.27116(10) 0.38056(12)
H75_11 H 0.5398 0.2671 0.3739
C118_11 C 0.57076(9) 0.26015(10) 0.37690(10)
H76_11 H 0.5704 0.2485 0.3677
C119_11 C 0.65698(8) 0.35172(8) 0.53121(8)
C120_11 C 0.64137(9) 0.33518(9) 0.48466(9)
H77_11 H 0.6523 0.3364 0.4947
C121_11 C 0.64056(11) 0.31736(10) 0.47205(10)
H78_11 H 0.6511 0.3070 0.4731
C122_11 C 0.62449(9) 0.31499(10) 0.45823(10)
H79_11 H 0.6235 0.3028 0.4498
C123_11 C 0.60943(8) 0.33094(8) 0.45667(8)
C124_11 C 0.61174(7) 0.34831(8) 0.46935(8)
H80_11 H 0.6017 0.3592 0.4682
C125_11 C 0.59209(8) 0.32962(8) 0.44153(8)
C126_11 C 0.57381(8) 0.31177(8) 0.41730(9)
C127_11 C 0.56447(8) 0.34430(8) 0.42578(9)
C128_11 C 0.53758(7) 0.36275(9) 0.40435(8)
H81_11 H 0.5372 0.3507 0.3956
C129_11 C 0.55122(8) 0.36271(9) 0.42164(9)
C130_11 C 0.55210(9) 0.38072(9) 0.43399(10)
H82_11 H 0.5612 0.3815 0.4457
C131_11 C 0.53937(11) 0.39744(10) 0.42859(11)
H83_11 H 0.5397 0.4100 0.4366
C132_11 C 0.52623(9) 0.39585(9) 0.41158(10)
H84_11 H 0.5175 0.4074 0.4082
Co5_14 Co 0.630481(11) 0.380481(11) 0.5000
N42_11 N 0.58907(7) 0.26527(6) 0.38587(7)
N43_11 N 0.64569(7) 0.36377(7) 0.52354(6)
N44_11 N 0.62727(7) 0.35067(7) 0.48319(7)
N45_11 N 0.57970(6) 0.34636(7) 0.43948(7)
N46_11 N 0.59010(7) 0.31193(7) 0.43039(7)
N47_11 N 0.56030(7) 0.32715(7) 0.41477(8)
N48_11 N 0.52534(7) 0.37861(7) 0.39960(7)
S6_11 S 0.67311(3) 0.33475(3) 0.54112(3)
C133_11 C 0.60084(8) 0.21878(7) 0.41105(8)
H85_11 H 0.5940 0.2154 0.3983
C134_11 C 0.59633(9) 0.20684(8) 0.42845(8)
C135_11 C 0.60600(11) 0.21194(10) 0.44733(9)
H86_11 H 0.6034 0.2040 0.4596
C136_11 C 0.61944(12) 0.22884(10) 0.44760(9)
H87_11 H 0.6261 0.2329 0.4602
C137_11 C 0.62310(10) 0.23985(10) 0.42924(9)
H88_11 H 0.6323 0.2515 0.4296
C138_11 C 0.51534(9) 0.16482(9) 0.35863(9)
H89_11 H 0.5053 0.1636 0.3477
C139_11 C 0.52795(10) 0.18264(10) 0.35944(11)
H90_11 H 0.5269 0.1930 0.3489
C140_11 C 0.54177(10) 0.18501(10) 0.37551(9)
H91_11 H 0.5502 0.1972 0.3765
C141_11 C 0.54333(8) 0.16906(8) 0.39057(8)
C142_11 C 0.53065(8) 0.15169(8) 0.38826(7)
H92_11 H 0.5318 0.1408 0.3983
C143_11 C 0.55847(8) 0.17038(8) 0.40791(8)
C144_11 C 0.58270(9) 0.18823(8) 0.42619(8)
C145_11 C 0.57422(9) 0.15570(8) 0.43553(8)
C146_11 C 0.59565(8) 0.13725(9) 0.46242(7)
H93_11 H 0.6044 0.1493 0.4628
C147_11 C 0.57836(9) 0.13729(9) 0.44878(8)
C148_11 C 0.56601(10) 0.11928(9) 0.44790(9)
H94_11 H 0.5543 0.1185 0.4388
C149_11 C 0.57141(11) 0.10256(10) 0.46063(11)
H95_11 H 0.5634 0.0900 0.4603
C150_11 C 0.58842(10) 0.10415(9) 0.47377(9)
H96_11 H 0.5918 0.0926 0.4825
N49_11 N 0.61413(7) 0.23473(6) 0.41093(7)
N50_11 N 0.51681(7) 0.14933(7) 0.37273(7)
N51_11 N 0.56052(7) 0.15364(7) 0.42030(6)
N52_11 N 0.56961(7) 0.18807(7) 0.40990(7)
N53_11 N 0.58523(8) 0.17285(7) 0.43970(7)
N54_11 N 0.60040(7) 0.12139(7) 0.47466(7)
C151_11 C 0.59302(8) 0.21879(8) 0.35172(8)
N55_11 N 0.60431(7) 0.22646(6) 0.36377(7)
S7_11 S 0.57689(3) 0.20888(3) 0.33475(3)
C154_11 C 0.60172(8) 0.40698(8) 0.46879(8)
N58_11 N 0.61377(7) 0.39569(7) 0.47646(6)
S10_11 S 0.58475(3) 0.42311(3) 0.45888(3)
C155_11 C 0.71879(8) 0.15698(8) 0.39828(8)
N59_11 N 0.72646(6) 0.14569(7) 0.38623(7)
S11_11 S 0.70888(3) 0.17311(3) 0.41525(3)
C156_11 C 0.78121(8) 0.10172(8) 0.34302(8)
N60_11 N 0.77354(6) 0.11377(7) 0.35431(7)
S12_11 S 0.79112(3) 0.08475(3) 0.32689(3)
Co16_11 Co 0.502194(14) 0.3750 0.3750
Co17_11 Co 0.6250 0.1250 0.497806(14)
N61_11 N 0.76527(6) 0.16093(7) 0.36413(7)
N62_11 N 0.63587(7) 0.41093(7) 0.51527(6)
N63_11 N 0.66093(7) 0.38587(7) 0.48473(6)
N64_11 N 0.62273(7) 0.26681(7) 0.35067(7)
N65_11 N 0.76681(7) 0.12727(7) 0.39933(7)
N66_11 N 0.60067(7) 0.37727(7) 0.51681(7)
N67_11 N 0.73319(7) 0.10067(7) 0.37273(7)
C95_11 C 0.60084(8) 0.91105(8) 0.21878(7)
H61_11 H 0.5940 0.8983 0.2154
C96_11 C 0.59633(9) 0.92845(8) 0.20684(8)
C97_11 C 0.60600(11) 0.94733(9) 0.21194(10)
H62_11 H 0.6034 0.9596 0.2040
C98_11 C 0.61944(12) 0.94760(9) 0.22884(10)
H63_11 H 0.6261 0.9602 0.2329
C99_11 C 0.62310(10) 0.92924(9) 0.23985(10)
H64_11 H 0.6323 0.9296 0.2515
C100_11 C 0.51534(9) 0.85863(9) 0.16482(9)
H65_11 H 0.5053 0.8477 0.1636
C101_11 C 0.52795(10) 0.85944(11) 0.18264(10)
H66_11 H 0.5269 0.8489 0.1930
C102_11 C 0.54177(10) 0.87551(9) 0.18501(10)
H67_11 H 0.5502 0.8765 0.1972
C103_11 C 0.54333(8) 0.89057(8) 0.16906(8)
C104_11 C 0.53065(8) 0.88826(7) 0.15169(8)
H68_11 H 0.5318 0.8983 0.1408
C105_11 C 0.55847(8) 0.90791(8) 0.17038(8)
C106_11 C 0.58270(9) 0.92619(8) 0.18823(8)
C107_11 C 0.57422(9) 0.93553(8) 0.15570(8)
C108_11 C 0.59565(8) 0.96242(7) 0.13725(9)
H69_11 H 0.6044 0.9628 0.1493
C109_11 C 0.57836(9) 0.94878(8) 0.13729(9)
C110_11 C 0.56601(10) 0.94790(9) 0.11928(9)
H70_11 H 0.5543 0.9388 0.1185
C111_11 C 0.57141(11) 0.96063(11) 0.10256(10)
H71_11 H 0.5634 0.9603 0.0900
C112_11 C 0.58842(10) 0.97377(9) 0.10415(9)
H72_11 H 0.5918 0.9825 0.0926
N35_11 N 0.61413(7) 0.91093(7) 0.23473(6)
N36_11 N 0.51681(7) 0.87273(7) 0.14933(7)
N37_11 N 0.56052(7) 0.92030(6) 0.15364(7)
N38_11 N 0.56961(7) 0.90990(7) 0.18807(7)
N39_11 N 0.58523(8) 0.93970(7) 0.17285(7)
Co9_14 Co 0.5000 0.869519(11) 0.119519(11)
C95_12 C 0.14916(8) 0.41105(8) 0.03122(7)
H61_12 H 0.1560 0.3983 0.0346
C96_12 C 0.15367(9) 0.42845(8) 0.04316(8)
C97_12 C 0.14400(11) 0.44733(9) 0.03806(10)
H62_12 H 0.1466 0.4596 0.0460
C98_12 C 0.13056(12) 0.44760(9) 0.02116(10)
H63_12 H 0.1239 0.4602 0.0171
C99_12 C 0.12690(10) 0.42924(9) 0.01015(10)
C100_12 C 0.23466(9) 0.35863(9) 0.08518(9)
H65_12 H 0.2447 0.3477 0.0864
C101_12 C 0.22205(10) 0.35944(11) 0.06736(10)
H66_12 H 0.2231 0.3489 0.0570
C102_12 C 0.20823(10) 0.37551(9) 0.06499(10)
H67_12 H 0.1998 0.3765 0.0528
C103_12 C 0.20667(8) 0.39057(8) 0.08094(8)
C104_12 C 0.21935(8) 0.38826(7) 0.09831(8)
H68_12 H 0.2182 0.3983 0.1092
C105_12 C 0.19153(8) 0.40791(8) 0.07962(8)
C106_12 C 0.16730(9) 0.42619(8) 0.06177(8)
C107_12 C 0.17578(9) 0.43553(8) 0.09430(8)
C108_12 C 0.15435(8) 0.46242(7) 0.11275(9)
H69_12 H 0.1456 0.4628 0.1007
C109_12 C 0.17164(9) 0.44878(8) 0.11271(9)
C110_12 C 0.18399(10) 0.44790(9) 0.13072(9)
H70_12 H 0.1957 0.4388 0.1315
C111_12 C 0.17859(11) 0.46063(11) 0.14744(10)
H71_12 H 0.1866 0.4603 0.1600
C112_12 C 0.16158(10) 0.47377(9) 0.14585(9)
H72_12 H 0.1582 0.4825 0.1574
N35_12 N 0.13587(7) 0.41093(7) 0.01527(6)
N36_12 N 0.23319(7) 0.37273(7) 0.10067(7)
N37_12 N 0.18948(7) 0.42030(6) 0.09636(7)
N38_12 N 0.18039(7) 0.40990(7) 0.06193(7)
N39_12 N 0.16477(8) 0.43970(7) 0.07715(7)
Co9_15 Co 0.2500 0.369519(11) 0.130481(11)
C6_12 C 0.10172(8) 0.78121(8) 0.84302(8)
N2_12 N 0.11377(7) 0.77354(6) 0.85431(7)
S1_12 S 0.08475(3) 0.79112(3) 0.82689(3)
H64_12 H 0.1177 0.4296 0.9985
C114_12 C 0.16105(8) 0.78122(7) 0.85084(8)
H73_12 H 0.1483 0.7846 0.8440
C115_12 C 0.17845(8) 0.79316(8) 0.84633(9)
C116_12 C 0.19733(9) 0.78806(10) 0.85600(11)
H74_12 H 0.2096 0.7960 0.8534
C117_12 C 0.19760(9) 0.77116(10) 0.86944(12)
H75_12 H 0.2102 0.7671 0.8761
C118_12 C 0.17924(9) 0.76015(10) 0.87310(10)
H76_12 H 0.1796 0.7485 0.8823
C119_12 C 0.09302(8) 0.85172(8) 0.71879(8)
C120_12 C 0.10863(9) 0.83518(9) 0.76534(9)
H77_12 H 0.0977 0.8364 0.7553
C121_12 C 0.10944(11) 0.81736(10) 0.77795(10)
H78_12 H 0.0989 0.8070 0.7769
C122_12 C 0.12551(9) 0.81499(10) 0.79177(10)
H79_12 H 0.1265 0.8028 0.8002
C123_12 C 0.14057(8) 0.83094(8) 0.79333(8)
C124_12 C 0.13826(7) 0.84831(8) 0.78065(8)
H80_12 H 0.1483 0.8592 0.7818
C125_12 C 0.15791(8) 0.82962(8) 0.80847(8)
C126_12 C 0.17619(8) 0.81177(8) 0.83270(9)
C127_12 C 0.18553(8) 0.84430(8) 0.82422(9)
C128_12 C 0.21242(7) 0.86275(9) 0.84565(8)
H81_12 H 0.2128 0.8507 0.8544
C129_12 C 0.19878(8) 0.86271(9) 0.82836(9)
C130_12 C 0.19790(9) 0.88072(9) 0.81601(10)
H82_12 H 0.1888 0.8815 0.8043
C131_12 C 0.21063(11) 0.89744(10) 0.82141(11)
H83_12 H 0.2103 0.9100 0.8134
C132_12 C 0.22377(9) 0.89585(9) 0.83842(10)
H84_12 H 0.2325 0.9074 0.8418
Co5_15 Co 0.119519(11) 0.880481(11) 0.7500
N42_12 N 0.16093(7) 0.76527(6) 0.86413(7)
N43_12 N 0.10431(7) 0.86377(7) 0.72646(6)
N44_12 N 0.12273(7) 0.85067(7) 0.76681(7)
N45_12 N 0.17030(6) 0.84636(7) 0.81052(7)
N46_12 N 0.15990(7) 0.81193(7) 0.81961(7)
N47_12 N 0.18970(7) 0.82715(7) 0.83523(8)
N48_12 N 0.22466(7) 0.87861(7) 0.85040(7)
S6_12 S 0.07689(3) 0.83475(3) 0.70888(3)
C133_12 C 0.14916(8) 0.71878(7) 0.83895(8)
H85_12 H 0.1560 0.7154 0.8517
C134_12 C 0.15367(9) 0.70684(8) 0.82155(8)
C135_12 C 0.14400(11) 0.71194(10) 0.80267(9)
H86_12 H 0.1466 0.7040 0.7904
C136_12 C 0.13056(12) 0.72884(10) 0.80240(9)
H87_12 H 0.1239 0.7329 0.7898
C137_12 C 0.12690(10) 0.73985(10) 0.82076(9)
H88_12 H 0.1177 0.7515 0.8204
C138_12 C 0.23466(9) 0.66482(9) 0.89137(9)
H89_12 H 0.2447 0.6636 0.9023
C139_12 C 0.22205(10) 0.68264(10) 0.89056(11)
H90_12 H 0.2231 0.6930 0.9011
C140_12 C 0.20823(10) 0.68501(10) 0.87449(9)
H91_12 H 0.1998 0.6972 0.8735
C141_12 C 0.20667(8) 0.66906(8) 0.85943(8)
C142_12 C 0.21935(8) 0.65169(8) 0.86174(7)
H92_12 H 0.2182 0.6408 0.8517
C143_12 C 0.19153(8) 0.67038(8) 0.84209(8)
C144_12 C 0.16730(9) 0.68823(8) 0.82381(8)
C145_12 C 0.17578(9) 0.65570(8) 0.81447(8)
C146_12 C 0.15435(8) 0.63725(9) 0.78758(7)
H93_12 H 0.1456 0.6493 0.7872
C147_12 C 0.17164(9) 0.63729(9) 0.80122(8)
C148_12 C 0.18399(10) 0.61928(9) 0.80210(9)
H94_12 H 0.1957 0.6185 0.8112
C149_12 C 0.17859(11) 0.60256(10) 0.78937(11)
H95_12 H 0.1866 0.5900 0.7897
C150_12 C 0.16158(10) 0.60415(9) 0.77623(9)
H96_12 H 0.1582 0.5926 0.7675
N49_12 N 0.13587(7) 0.73473(6) 0.83907(7)
N50_12 N 0.23319(7) 0.64933(7) 0.87727(7)
N51_12 N 0.18948(7) 0.65364(7) 0.82970(6)
N52_12 N 0.18039(7) 0.68807(7) 0.84010(7)
N53_12 N 0.16477(8) 0.67285(7) 0.81030(7)
N54_12 N 0.14960(7) 0.62139(7) 0.77534(7)
C151_12 C 0.15698(8) 0.71879(8) 0.89828(8)
N55_12 N 0.14569(7) 0.72646(6) 0.88623(7)
S7_12 S 0.17311(3) 0.70888(3) 0.91525(3)
C154_12 C 0.14828(8) 0.90698(8) 0.78121(8)
N58_12 N 0.13623(7) 0.89569(7) 0.77354(6)
S10_12 S 0.16525(3) 0.92311(3) 0.79112(3)
C155_12 C 0.03121(8) 0.65698(8) 0.85172(8)
N59_12 N 0.02354(6) 0.64569(7) 0.86377(7)
S11_12 S 0.04112(3) 0.67311(3) 0.83475(3)
Co16_12 Co 0.247806(14) 0.8750 0.8750
Co17_12 Co 0.1250 0.6250 0.752194(14)
N62_12 N 0.11413(7) 0.91093(7) 0.73473(6)
N63_12 N 0.08907(7) 0.88587(7) 0.76527(6)
N64_12 N 0.12727(7) 0.76681(7) 0.89933(7)
N66_12 N 0.14933(7) 0.87727(7) 0.73319(7)
N67_12 N 0.01681(7) 0.60067(7) 0.87727(7)
C156_12 C 0.96879(8) 0.60172(8) 0.90698(8)
N60_12 N 0.97646(6) 0.61377(7) 0.89569(7)
S12_12 S 0.95888(3) 0.58475(3) 0.92311(3)
N61_12 N 0.98473(6) 0.66093(7) 0.88587(7)
N65_12 N 0.98319(7) 0.62727(7) 0.85067(7)
H4_5 H 0.0015 0.6796 0.8677
Co8_6 Co 0.0000 0.869519(11) 0.619519(11)
Co14_5 Co 0.002194(14) 0.8750 0.8750
H52_5 H 0.8677 0.0015 0.6796
Co7_6 Co 0.619519(11) 0.0000 0.869519(11)
C6_13 C 0.89828(8) 0.59302(8) 0.03121(8)
Co1_6 Co 0.869519(11) 0.619519(11) 0.0000
N2_13 N 0.88623(7) 0.60431(7) 0.02354(6)
S1_13 S 0.91525(3) 0.57689(3) 0.04112(3)
H28_5 H 0.6796 0.8677 0.0015
C114_13 C 0.83895(8) 0.60084(8) 0.03122(7)
H73_13 H 0.8517 0.5940 0.0346
C115_13 C 0.82155(8) 0.59633(9) 0.04316(8)
C116_13 C 0.80267(9) 0.60600(11) 0.03806(10)
H74_13 H 0.7904 0.6034 0.0460
C117_13 C 0.80240(9) 0.61944(12) 0.02116(10)
H75_13 H 0.7898 0.6261 0.0171
C118_13 C 0.82076(9) 0.62310(10) 0.01015(10)
C119_13 C 0.90698(8) 0.46879(8) 0.10172(8)
C120_13 C 0.89137(9) 0.51534(9) 0.08518(9)
H77_13 H 0.9023 0.5053 0.0864
C121_13 C 0.89056(11) 0.52795(10) 0.06736(10)
H78_13 H 0.9011 0.5269 0.0570
C122_13 C 0.87449(9) 0.54177(10) 0.06499(10)
H79_13 H 0.8735 0.5502 0.0528
C123_13 C 0.85943(8) 0.54333(8) 0.08094(8)
C124_13 C 0.86174(7) 0.53065(8) 0.09831(8)
H80_13 H 0.8517 0.5318 0.1092
C125_13 C 0.84209(8) 0.55847(8) 0.07962(8)
C126_13 C 0.82381(8) 0.58270(9) 0.06177(8)
C127_13 C 0.81447(8) 0.57422(9) 0.09430(8)
C128_13 C 0.78758(7) 0.59565(8) 0.11275(9)
H81_13 H 0.7872 0.6044 0.1007
C129_13 C 0.80122(8) 0.57836(9) 0.11271(9)
C130_13 C 0.80210(9) 0.56601(10) 0.13072(9)
H82_13 H 0.8112 0.5543 0.1315
C131_13 C 0.78937(11) 0.57141(11) 0.14744(10)
H83_13 H 0.7897 0.5634 0.1600
C132_13 C 0.77623(9) 0.58842(10) 0.14585(9)
H84_13 H 0.7675 0.5918 0.1574
Co5_16 Co 0.880481(11) 0.5000 0.130481(11)
N42_13 N 0.83907(7) 0.61413(7) 0.01527(6)
N43_13 N 0.89569(7) 0.47646(6) 0.11377(7)
N44_13 N 0.87727(7) 0.51681(7) 0.10067(7)
N45_13 N 0.82970(6) 0.56052(7) 0.09636(7)
N46_13 N 0.84010(7) 0.56961(7) 0.06193(7)
N47_13 N 0.81030(7) 0.58523(8) 0.07715(7)
N48_13 N 0.77534(7) 0.60040(7) 0.12861(7)
S6_13 S 0.92311(3) 0.45888(3) 0.08475(3)
H88_13 H 0.8823 0.5704 0.0015
C154_13 C 0.85172(8) 0.53121(8) 0.15698(8)
N58_13 N 0.86377(7) 0.52354(6) 0.14569(7)
S10_13 S 0.83475(3) 0.54112(3) 0.17311(3)
Co15_9 Co 0.8750 0.8750 0.002194(14)
Co16_13 Co 0.752194(14) 0.6250 0.1250
N62_13 N 0.88587(7) 0.48473(6) 0.16093(7)
N63_13 N 0.91093(7) 0.51527(6) 0.13587(7)
N64_13 N 0.87273(7) 0.64933(7) 0.01681(7)
N66_13 N 0.85067(7) 0.48319(7) 0.12727(7)
C1_5 C 0.96878(7) 0.66105(8) 0.89916(8)
H1_5 H 0.9654 0.6483 0.9060
C2_5 C 0.95684(8) 0.67845(8) 0.90367(9)
C3_5 C 0.96194(10) 0.69733(9) 0.89400(11)
H2_5 H 0.9540 0.7096 0.8966
C4_5 C 0.97884(10) 0.69760(9) 0.88056(12)
H3_5 H 0.9829 0.7102 0.8739
C5_5 C 0.98985(10) 0.67924(9) 0.87690(10)
C7_5 C 0.91482(9) 0.60863(9) 0.98466(9)
H5_5 H 0.9136 0.5977 0.9947
C8_5 C 0.93264(10) 0.60944(11) 0.97205(10)
H6_5 H 0.9430 0.5989 0.9731
C9_5 C 0.93501(10) 0.62551(9) 0.95823(10)
H7_5 H 0.9472 0.6265 0.9498
C10_5 C 0.91906(8) 0.64057(8) 0.95667(8)
C11_5 C 0.90169(8) 0.63826(7) 0.96935(8)
H8_5 H 0.8908 0.6483 0.9682
C12_5 C 0.92038(8) 0.65791(8) 0.94153(8)
C13_5 C 0.93823(8) 0.67619(8) 0.91730(9)
C14_5 C 0.90570(8) 0.68553(8) 0.92578(9)
C15_5 C 0.88725(9) 0.71242(7) 0.90435(8)
H9_5 H 0.8993 0.7128 0.8956
C16_5 C 0.88729(9) 0.69878(8) 0.92164(9)
C17_5 C 0.86928(9) 0.69790(9) 0.93399(10)
H10_5 H 0.8685 0.6888 0.9457
C18_5 C 0.85256(10) 0.71063(11) 0.92859(11)
H11_5 H 0.8400 0.7103 0.9366
C19_5 C 0.85415(9) 0.72377(9) 0.91158(10)
H12_5 H 0.8426 0.7325 0.9082
C20_5 C 0.82496(12) 0.75126(9) 0.86991(12)
C21_5 C 0.86136(12) 0.76760(10) 0.83293(11)
H13_5 H 0.8507 0.7573 0.8341
C22_5 C 0.86214(13) 0.77925(12) 0.81527(12)
H14_5 H 0.8527 0.7766 0.8041
C23_5 C 0.87702(12) 0.79519(13) 0.81355(12)
H15_5 H 0.8778 0.8037 0.8014
C24_5 C 0.89067(10) 0.79822(9) 0.83011(10)
C25_5 C 0.88923(9) 0.78496(8) 0.84741(8)
H16_5 H 0.8989 0.7867 0.8586
C26_5 C 0.90696(10) 0.81433(9) 0.82939(9)
Co1_7 Co 0.869519(11) 0.619519(11) 1.0000
Co2_5 Co 0.8750 0.747806(14) 0.8750
N3_5 N 0.89933(7) 0.62273(7) 0.98319(7)
N4_5 N 0.90364(7) 0.67030(6) 0.93948(7)
N5_5 N 0.93807(7) 0.65990(7) 0.93039(7)
N6_5 N 0.92285(7) 0.68970(7) 0.91477(8)
N7_5 N 0.87139(7) 0.72466(7) 0.89960(7)
N8_5 N 0.84250(8) 0.74874(7) 0.87278(7)
N9_5 N 0.87494(7) 0.77001(7) 0.84886(7)
N10_5 N 0.92137(8) 0.81397(7) 0.84440(8)
S2_5 S 0.80016(4) 0.75491(4) 0.86570(7)
C27_5 C 0.91707(11) 0.88864(12) 0.76760(10)
H17_5 H 0.9159 0.8993 0.7573
C28_5 C 0.93473(12) 0.88786(13) 0.77925(12)
H18_5 H 0.9459 0.8973 0.7766
C29_5 C 0.93645(12) 0.87298(12) 0.79519(13)
H19_5 H 0.9486 0.8722 0.8037
C30_5 C 0.91989(10) 0.85933(10) 0.79822(9)
C31_5 C 0.90259(8) 0.86077(9) 0.78496(8)
H20_5 H 0.8914 0.8511 0.7867
C32_5 C 0.92061(9) 0.84304(10) 0.81433(9)
N11_5 N 0.90114(7) 0.87506(7) 0.77001(7)
N12_5 N 0.90560(8) 0.82863(8) 0.81397(7)
C33_5 C 0.98240(10) 0.83293(11) 0.88864(12)
H21_5 H 0.9927 0.8341 0.8993
C34_5 C 0.97075(12) 0.81527(12) 0.88786(13)
H22_5 H 0.9734 0.8041 0.8973
C35_5 C 0.95481(13) 0.81355(12) 0.87298(12)
H23_5 H 0.9463 0.8014 0.8722
C36_5 C 0.95178(9) 0.83011(10) 0.85933(10)
C37_5 C 0.96504(8) 0.84741(8) 0.86077(9)
H24_5 H 0.9633 0.8586 0.8511
C38_5 C 0.93567(9) 0.82939(9) 0.84304(10)
N13_5 N 0.97999(7) 0.84886(7) 0.87506(7)
N14_5 N 0.93603(7) 0.84440(8) 0.82863(8)
C39_5 C 0.66105(8) 0.89916(8) 0.96878(7)
H25_5 H 0.6483 0.9060 0.9654
C40_5 C 0.67845(8) 0.90367(9) 0.95684(8)
C41_5 C 0.69733(9) 0.89400(11) 0.96194(10)
H26_5 H 0.7096 0.8966 0.9540
C42_5 C 0.69760(9) 0.88056(12) 0.97884(10)
H27_5 H 0.7102 0.8739 0.9829
C43_5 C 0.67924(9) 0.87690(10) 0.98985(10)
C44_5 C 0.60863(9) 0.98466(9) 0.91482(9)
H29_5 H 0.5977 0.9947 0.9136
C45_5 C 0.60944(11) 0.97205(10) 0.93264(10)
H30_5 H 0.5989 0.9731 0.9430
C46_5 C 0.62551(9) 0.95823(10) 0.93501(10)
H31_5 H 0.6265 0.9498 0.9472
C47_5 C 0.64057(8) 0.95667(8) 0.91906(8)
C48_5 C 0.63826(7) 0.96935(8) 0.90169(8)
H32_5 H 0.6483 0.9682 0.8908
C49_5 C 0.65791(8) 0.94153(8) 0.92038(8)
C50_5 C 0.67619(8) 0.91730(9) 0.93823(8)
C51_5 C 0.68553(8) 0.92578(9) 0.90570(8)
C52_5 C 0.71242(7) 0.90435(8) 0.88725(9)
H33_5 H 0.7128 0.8956 0.8993
C53_5 C 0.69878(8) 0.92164(9) 0.88729(9)
C54_5 C 0.69790(9) 0.93399(10) 0.86928(9)
H34_5 H 0.6888 0.9457 0.8685
C55_5 C 0.71063(11) 0.92859(11) 0.85256(10)
H35_5 H 0.7103 0.9366 0.8400
C56_5 C 0.72377(9) 0.91158(10) 0.85415(9)
H36_5 H 0.7325 0.9082 0.8426
C57_5 C 0.75126(9) 0.86991(12) 0.82496(12)
C58_9 C 0.76760(10) 0.83293(11) 0.86136(12)
H37_9 H 0.7573 0.8341 0.8507
C59_9 C 0.77925(12) 0.81527(12) 0.86214(13)
H38_9 H 0.7766 0.8041 0.8527
C60_9 C 0.79519(13) 0.81355(12) 0.87702(12)
H39_9 H 0.8037 0.8014 0.8778
C61_9 C 0.79822(9) 0.83011(10) 0.89067(10)
C62_9 C 0.78496(8) 0.84741(8) 0.88923(9)
H40_9 H 0.7867 0.8586 0.8989
C63_9 C 0.81433(9) 0.82939(9) 0.90696(10)
Co3_5 Co 0.747806(14) 0.8750 0.8750
N16_5 N 0.62273(7) 0.98319(7) 0.89933(7)
N17_5 N 0.67030(6) 0.93948(7) 0.90364(7)
N18_5 N 0.65990(7) 0.93039(7) 0.93807(7)
N19_5 N 0.68970(7) 0.91477(8) 0.92285(7)
N20_5 N 0.72466(7) 0.89960(7) 0.87139(7)
N21_5 N 0.74874(7) 0.87278(7) 0.84250(8)
N22_5 N 0.77001(7) 0.84886(7) 0.87494(7)
N23_9 N 0.81397(7) 0.84440(8) 0.92137(8)
S3_5 S 0.75491(4) 0.86570(7) 0.80016(4)
C64_9 C 0.88864(12) 0.76760(10) 0.91707(11)
H41_9 H 0.8993 0.7573 0.9159
C65_9 C 0.88786(13) 0.77925(12) 0.93473(12)
H42_9 H 0.8973 0.7766 0.9459
C66_9 C 0.87298(12) 0.79519(13) 0.93645(12)
H43_9 H 0.8722 0.8037 0.9486
C67_9 C 0.85933(10) 0.79822(9) 0.91989(10)
C68_9 C 0.86077(9) 0.78496(8) 0.90259(8)
H44_9 H 0.8511 0.7867 0.8914
C69_9 C 0.84304(10) 0.81433(9) 0.92061(9)
N24_5 N 0.87506(7) 0.77001(7) 0.90114(7)
N25_9 N 0.82863(8) 0.81397(7) 0.90560(8)
C70_9 C 0.83293(11) 0.88864(12) 0.98240(10)
H45_9 H 0.8341 0.8993 0.9927
C71_9 C 0.81527(12) 0.88786(13) 0.97075(12)
H46_9 H 0.8041 0.8973 0.9734
C72_9 C 0.81355(12) 0.87298(12) 0.95481(13)
H47_9 H 0.8014 0.8722 0.9463
C73_9 C 0.83011(10) 0.85933(10) 0.95178(9)
C74_9 C 0.84741(8) 0.86077(9) 0.96504(8)
H48_9 H 0.8586 0.8511 0.9633
C75_9 C 0.82939(9) 0.84304(10) 0.93567(9)
N26_9 N 0.84886(7) 0.87506(7) 0.97999(7)
N27_9 N 0.84440(8) 0.82863(8) 0.93603(7)
C76_5 C 0.89916(8) 0.96878(7) 0.66105(8)
H49_5 H 0.9060 0.9654 0.6483
C77_5 C 0.90367(9) 0.95684(8) 0.67845(8)
C78_5 C 0.89400(11) 0.96194(10) 0.69733(9)
H50_5 H 0.8966 0.9540 0.7096
C79_5 C 0.88056(12) 0.97884(10) 0.69760(9)
H51_5 H 0.8739 0.9829 0.7102
C80_5 C 0.87690(10) 0.98985(10) 0.67924(9)
C81_5 C 0.98466(9) 0.91482(9) 0.60863(9)
H53_5 H 0.9947 0.9136 0.5977
C82_5 C 0.97205(10) 0.93264(10) 0.60944(11)
H54_5 H 0.9731 0.9430 0.5989
C83_5 C 0.95823(10) 0.93501(10) 0.62551(9)
H55_5 H 0.9498 0.9472 0.6265
C84_5 C 0.95667(8) 0.91906(8) 0.64057(8)
C85_5 C 0.96935(8) 0.90169(8) 0.63826(7)
H56_5 H 0.9682 0.8908 0.6483
C86_5 C 0.94153(8) 0.92038(8) 0.65791(8)
C87_5 C 0.91730(9) 0.93823(8) 0.67619(8)
C88_5 C 0.92578(9) 0.90570(8) 0.68553(8)
C89_5 C 0.90435(8) 0.88725(9) 0.71242(7)
H57_5 H 0.8956 0.8993 0.7128
C90_5 C 0.92164(9) 0.88729(9) 0.69878(8)
C91_5 C 0.93399(10) 0.86928(9) 0.69790(9)
H58_5 H 0.9457 0.8685 0.6888
C92_5 C 0.92859(11) 0.85256(10) 0.71063(11)
H59_5 H 0.9366 0.8400 0.7103
C93_5 C 0.91158(10) 0.85415(9) 0.72377(9)
H60_5 H 0.9082 0.8426 0.7325
C94_5 C 0.86991(12) 0.82496(12) 0.75126(9)
Co4_5 Co 0.8750 0.8750 0.747806(14)
N29_5 N 0.98319(7) 0.89933(7) 0.62273(7)
N30_5 N 0.93948(7) 0.90364(7) 0.67030(6)
N31_5 N 0.93039(7) 0.93807(7) 0.65990(7)
N32_5 N 0.91477(8) 0.92285(7) 0.68970(7)
N33_5 N 0.89960(7) 0.87139(7) 0.72466(7)
N34_5 N 0.87278(7) 0.84250(8) 0.74874(7)
S4_5 S 0.86570(7) 0.80016(4) 0.75491(4)
C95_13 C 0.85084(8) 0.78122(7) 0.66105(8)
H61_13 H 0.8440 0.7846 0.6483
C96_13 C 0.84633(9) 0.79316(8) 0.67845(8)
C97_13 C 0.85600(11) 0.78806(10) 0.69733(9)
H62_13 H 0.8534 0.7960 0.7096
C98_13 C 0.86944(12) 0.77116(10) 0.69760(9)
H63_13 H 0.8761 0.7671 0.7102
C99_13 C 0.87310(10) 0.76015(10) 0.67924(9)
H64_13 H 0.8823 0.7485 0.6796
C100_13 C 0.76534(9) 0.83518(9) 0.60863(9)
H65_13 H 0.7553 0.8364 0.5977
C101_13 C 0.77795(10) 0.81736(10) 0.60944(11)
H66_13 H 0.7769 0.8070 0.5989
C102_13 C 0.79177(10) 0.81499(10) 0.62551(9)
H67_13 H 0.8002 0.8028 0.6265
C103_13 C 0.79333(8) 0.83094(8) 0.64057(8)
C104_13 C 0.78065(8) 0.84831(8) 0.63826(7)
H68_13 H 0.7818 0.8592 0.6483
C105_13 C 0.80847(8) 0.82962(8) 0.65791(8)
C106_13 C 0.83270(9) 0.81177(8) 0.67619(8)
C107_13 C 0.82422(9) 0.84430(8) 0.68553(8)
C108_13 C 0.84565(8) 0.86275(9) 0.71242(7)
H69_13 H 0.8544 0.8507 0.7128
C109_13 C 0.82836(9) 0.86271(9) 0.69878(8)
C110_13 C 0.81601(10) 0.88072(9) 0.69790(9)
H70_13 H 0.8043 0.8815 0.6888
C111_13 C 0.82141(11) 0.89744(10) 0.71063(11)
H71_13 H 0.8134 0.9100 0.7103
C112_13 C 0.83842(10) 0.89585(9) 0.72377(9)
H72_13 H 0.8418 0.9074 0.7325
C113_5 C 0.88009(12) 0.92504(12) 0.75126(9)
N35_13 N 0.86413(7) 0.76527(6) 0.66093(7)
N36_13 N 0.76681(7) 0.85067(7) 0.62273(7)
N37_13 N 0.81052(7) 0.84636(7) 0.67030(6)
N38_13 N 0.81961(7) 0.81193(7) 0.65990(7)
N39_13 N 0.83523(8) 0.82715(7) 0.68970(7)
N40_5 N 0.85040(7) 0.87861(7) 0.72466(7)
N41_5 N 0.87722(7) 0.90750(8) 0.74874(7)
S5_5 S 0.88430(7) 0.94984(4) 0.75491(4)
H76_13 H 0.8204 0.6323 0.9985
C133_13 C 0.85084(8) 0.58895(8) 0.96878(7)
H85_13 H 0.8440 0.6017 0.9654
C134_13 C 0.84633(9) 0.57155(8) 0.95684(8)
C135_13 C 0.85600(11) 0.55267(9) 0.96194(10)
H86_13 H 0.8534 0.5404 0.9540
C136_13 C 0.86944(12) 0.55240(9) 0.97884(10)
H87_13 H 0.8761 0.5398 0.9829
C137_13 C 0.87310(10) 0.57076(9) 0.98985(10)
C138_13 C 0.76534(9) 0.64137(9) 0.91482(9)
H89_13 H 0.7553 0.6523 0.9136
C139_13 C 0.77795(10) 0.64056(11) 0.93264(10)
H90_13 H 0.7769 0.6511 0.9430
C140_13 C 0.79177(10) 0.62449(9) 0.93501(10)
H91_13 H 0.8002 0.6235 0.9472
C141_13 C 0.79333(8) 0.60943(8) 0.91906(8)
C142_13 C 0.78065(8) 0.61174(7) 0.90169(8)
H92_13 H 0.7818 0.6017 0.8908
C143_13 C 0.80847(8) 0.59209(8) 0.92038(8)
C144_13 C 0.83270(9) 0.57381(8) 0.93823(8)
C145_13 C 0.82422(9) 0.56447(8) 0.90570(8)
C146_13 C 0.84565(8) 0.53758(7) 0.88725(9)
H93_13 H 0.8544 0.5372 0.8993
C147_13 C 0.82836(9) 0.55122(8) 0.88729(9)
C148_13 C 0.81601(10) 0.55210(9) 0.86928(9)
H94_13 H 0.8043 0.5612 0.8685
C149_13 C 0.82141(11) 0.53937(11) 0.85256(10)
H95_13 H 0.8134 0.5397 0.8400
C150_13 C 0.83842(10) 0.52623(9) 0.85415(9)
H96_13 H 0.8418 0.5175 0.8426
N49_13 N 0.86413(7) 0.58907(7) 0.98473(6)
N50_13 N 0.76681(7) 0.62727(7) 0.89933(7)
N51_13 N 0.81052(7) 0.57970(6) 0.90364(7)
N52_13 N 0.81961(7) 0.59010(7) 0.93807(7)
N53_13 N 0.83523(8) 0.56030(7) 0.92285(7)
N54_13 N 0.85040(7) 0.52534(7) 0.87139(7)
C151_13 C 0.84302(8) 0.64828(8) 0.96879(8)
N55_13 N 0.85431(7) 0.63623(7) 0.97646(6)
S7_13 S 0.82689(3) 0.66525(3) 0.95888(3)
C152_5 C 0.92504(12) 0.75126(9) 0.88009(12)
N56_5 N 0.90750(8) 0.74874(7) 0.87722(7)
S8_5 S 0.94984(4) 0.75491(4) 0.88430(7)
C153_5 C 0.75126(9) 0.88009(12) 0.92504(12)
N57_5 N 0.74874(7) 0.87722(7) 0.90750(8)
S9_5 S 0.75491(4) 0.88430(7) 0.94984(4)
Co7_7 Co 0.619519(11) 1.0000 0.869519(11)
Co8_7 Co 1.0000 0.869519(11) 0.619519(11)
Co17_13 Co 0.8750 0.502194(14) 0.8750
N68_5 N 0.87861(7) 0.72466(7) 0.85040(7)
N69_5 N 0.72466(7) 0.85040(7) 0.87861(7)
N70_5 N 0.84886(7) 0.87494(7) 0.77001(7)
N71_5 N 0.77001(7) 0.90114(7) 0.87506(7)
C1_6 C 0.28122(7) 0.08895(8) 0.39916(8)
H1_6 H 0.2846 0.1017 0.4060
C2_6 C 0.29316(8) 0.07155(8) 0.40367(9)
C3_6 C 0.28806(10) 0.05267(9) 0.39400(11)
H2_6 H 0.2960 0.0404 0.3966
C4_6 C 0.27116(10) 0.05240(9) 0.38056(12)
H3_6 H 0.2671 0.0398 0.3739
C5_6 C 0.26015(10) 0.07076(9) 0.37690(10)
H4_6 H 0.2485 0.0704 0.3677
C6_14 C 0.35172(8) 0.15698(8) 0.53121(8)
C7_6 C 0.33518(9) 0.14137(9) 0.48466(9)
H5_6 H 0.3364 0.1523 0.4947
C8_6 C 0.31736(10) 0.14056(11) 0.47205(10)
H6_6 H 0.3070 0.1511 0.4731
C9_6 C 0.31499(10) 0.12449(9) 0.45823(10)
H7_6 H 0.3028 0.1235 0.4498
C10_6 C 0.33094(8) 0.10943(8) 0.45667(8)
C11_6 C 0.34831(8) 0.11174(7) 0.46935(8)
H8_6 H 0.3592 0.1017 0.4682
C12_6 C 0.32962(8) 0.09209(8) 0.44153(8)
C13_6 C 0.31177(8) 0.07381(8) 0.41730(9)
C14_6 C 0.34430(8) 0.06447(8) 0.42578(9)
C15_6 C 0.36275(9) 0.03758(7) 0.40435(8)
H9_6 H 0.3507 0.0372 0.3956
C16_6 C 0.36271(9) 0.05122(8) 0.42164(9)
C17_6 C 0.38072(9) 0.05210(9) 0.43399(10)
H10_6 H 0.3815 0.0612 0.4457
C18_6 C 0.39744(10) 0.03937(11) 0.42859(11)
H11_6 H 0.4100 0.0397 0.4366
C19_6 C 0.39585(9) 0.02623(9) 0.41158(10)
H12_6 H 0.4074 0.0175 0.4082
Co1_8 Co 0.380481(11) 0.130481(11) 0.5000
Co2_6 Co 0.3750 0.002194(14) 0.3750
N2_14 N 0.36377(7) 0.14569(7) 0.52354(6)
N3_6 N 0.35067(7) 0.12727(7) 0.48319(7)
N4_6 N 0.34636(7) 0.07970(6) 0.43948(7)
N5_6 N 0.31193(7) 0.09010(7) 0.43039(7)
N6_6 N 0.32715(7) 0.06030(7) 0.41477(8)
N7_6 N 0.37861(7) 0.02534(7) 0.39960(7)
N8_6 N 0.40750(8) 0.00126(7) 0.37278(7)
S1_14 S 0.33475(3) 0.17311(3) 0.54112(3)
H64_14 H 0.3677 0.0015 0.1796
C114_14 C 0.41105(8) 0.14916(8) 0.53122(7)
H73_14 H 0.3983 0.1560 0.5346
C115_14 C 0.42845(8) 0.15367(9) 0.54316(8)
C116_14 C 0.44733(9) 0.14400(11) 0.53806(10)
H74_14 H 0.4596 0.1466 0.5460
C117_14 C 0.44760(9) 0.13056(12) 0.52116(10)
H75_14 H 0.4602 0.1239 0.5171
C118_14 C 0.42924(9) 0.12690(10) 0.51015(10)
H76_14 H 0.4296 0.1177 0.4985
C119_14 C 0.34302(8) 0.28121(8) 0.60172(8)
C120_14 C 0.35863(9) 0.23466(9) 0.58518(9)
H77_14 H 0.3477 0.2447 0.5864
C121_14 C 0.35944(11) 0.22205(10) 0.56736(10)
H78_14 H 0.3489 0.2231 0.5570
C122_14 C 0.37551(9) 0.20823(10) 0.56499(10)
H79_14 H 0.3765 0.1998 0.5528
C123_14 C 0.39057(8) 0.20667(8) 0.58094(8)
C124_14 C 0.38826(7) 0.21935(8) 0.59831(8)
H80_14 H 0.3983 0.2182 0.6092
C125_14 C 0.40791(8) 0.19153(8) 0.57962(8)
C126_14 C 0.42619(8) 0.16730(9) 0.56177(8)
C127_14 C 0.43553(8) 0.17578(9) 0.59430(8)
C128_14 C 0.46242(7) 0.15435(8) 0.61275(9)
H81_14 H 0.4628 0.1456 0.6007
C129_14 C 0.44878(8) 0.17164(9) 0.61271(9)
C130_14 C 0.44790(9) 0.18399(10) 0.63072(9)
H82_14 H 0.4388 0.1957 0.6315
C131_14 C 0.46063(11) 0.17859(11) 0.64744(10)
H83_14 H 0.4603 0.1866 0.6600
C132_14 C 0.47377(9) 0.16158(10) 0.64585(9)
H84_14 H 0.4825 0.1582 0.6574
Co5_17 Co 0.369519(11) 0.2500 0.630481(11)
N42_14 N 0.41093(7) 0.13587(7) 0.51527(6)
N43_14 N 0.35431(7) 0.27354(6) 0.61377(7)
N44_14 N 0.37273(7) 0.23319(7) 0.60067(7)
N45_14 N 0.42030(6) 0.18948(7) 0.59636(7)
N46_14 N 0.40990(7) 0.18039(7) 0.56193(7)
N47_14 N 0.43970(7) 0.16477(8) 0.57715(7)
N48_14 N 0.47466(7) 0.14960(7) 0.62861(7)
S6_14 S 0.32689(3) 0.29112(3) 0.58475(3)
C133_14 C 0.39916(8) 0.16105(8) 0.46878(7)
H85_14 H 0.4060 0.1483 0.4654
C134_14 C 0.40367(9) 0.17845(8) 0.45684(8)
C135_14 C 0.39400(11) 0.19733(9) 0.46194(10)
H86_14 H 0.3966 0.2096 0.4540
C136_14 C 0.38056(12) 0.19760(9) 0.47884(10)
H87_14 H 0.3739 0.2102 0.4829
C137_14 C 0.37690(10) 0.17924(9) 0.48985(10)
H88_14 H 0.3677 0.1796 0.5015
C138_14 C 0.48466(9) 0.10863(9) 0.41482(9)
H89_14 H 0.4947 0.0977 0.4136
C139_14 C 0.47205(10) 0.10944(11) 0.43264(10)
H90_14 H 0.4731 0.0989 0.4430
C140_14 C 0.45823(10) 0.12551(9) 0.43501(10)
H91_14 H 0.4498 0.1265 0.4472
C141_14 C 0.45667(8) 0.14057(8) 0.41906(8)
C142_14 C 0.46935(8) 0.13826(7) 0.40169(8)
H92_14 H 0.4682 0.1483 0.3908
C143_14 C 0.44153(8) 0.15791(8) 0.42038(8)
C144_14 C 0.41730(9) 0.17619(8) 0.43823(8)
C145_14 C 0.42578(9) 0.18553(8) 0.40570(8)
C146_14 C 0.40435(8) 0.21242(7) 0.38725(9)
H93_14 H 0.3956 0.2128 0.3993
C147_14 C 0.42164(9) 0.19878(8) 0.38729(9)
C148_14 C 0.43399(10) 0.19790(9) 0.36928(9)
H94_14 H 0.4457 0.1888 0.3685
C149_14 C 0.42859(11) 0.21063(11) 0.35256(10)
H95_14 H 0.4366 0.2103 0.3400
C150_14 C 0.41158(10) 0.22377(9) 0.35415(9)
H96_14 H 0.4082 0.2325 0.3426
N49_14 N 0.38587(7) 0.16093(7) 0.48473(6)
N50_14 N 0.48319(7) 0.12273(7) 0.39933(7)
N51_14 N 0.43948(7) 0.17030(6) 0.40364(7)
N52_14 N 0.43039(7) 0.15990(7) 0.43807(7)
N53_14 N 0.41477(8) 0.18970(7) 0.42285(7)
N54_14 N 0.39960(7) 0.22466(7) 0.37139(7)
C151_14 C 0.40698(8) 0.10172(8) 0.46879(8)
N55_14 N 0.39569(7) 0.11377(7) 0.47646(6)
S7_14 S 0.42311(3) 0.08475(3) 0.45888(3)
N56_6 N 0.34250(8) 0.00126(7) 0.37722(7)
C154_14 C 0.39828(8) 0.21879(8) 0.65698(8)
N58_14 N 0.38623(7) 0.22646(6) 0.64569(7)
S10_14 S 0.41525(3) 0.20888(3) 0.67311(3)
Co16_14 Co 0.497806(14) 0.1250 0.6250
Co17_14 Co 0.3750 0.247806(14) 0.3750
N62_14 N 0.36413(7) 0.26527(6) 0.66093(7)
N63_14 N 0.33907(7) 0.23473(6) 0.63587(7)
N64_14 N 0.37727(7) 0.10067(7) 0.51681(7)
N66_14 N 0.39933(7) 0.26681(7) 0.62727(7)
N68_6 N 0.37139(7) 0.02534(7) 0.35040(7)
C20_6 C 0.42504(12) 0.99874(9) 0.36991(12)
C21_6 C 0.38864(12) 0.98240(10) 0.33293(11)
H13_6 H 0.3993 0.9927 0.3341
C22_6 C 0.38786(13) 0.97075(12) 0.31527(12)
H14_6 H 0.3973 0.9734 0.3041
C23_6 C 0.37298(12) 0.95481(13) 0.31355(12)
H15_6 H 0.3722 0.9463 0.3014
C24_6 C 0.35933(10) 0.95178(9) 0.33011(10)
C25_6 C 0.36077(9) 0.96504(8) 0.34741(8)
H16_6 H 0.3511 0.9633 0.3586
C26_6 C 0.34304(10) 0.93567(9) 0.32939(9)
N9_6 N 0.37506(7) 0.97999(7) 0.34886(7)
N10_6 N 0.32863(8) 0.93603(7) 0.34440(8)
S2_6 S 0.44984(4) 0.99509(4) 0.36570(7)
C27_6 C 0.33293(11) 0.86136(12) 0.26760(10)
H17_6 H 0.3341 0.8507 0.2573
C28_6 C 0.31527(12) 0.86214(13) 0.27925(12)
H18_6 H 0.3041 0.8527 0.2766
C29_6 C 0.31355(12) 0.87702(12) 0.29519(13)
H19_6 H 0.3014 0.8778 0.3037
C30_6 C 0.33011(10) 0.89067(10) 0.29822(9)
C31_6 C 0.34741(8) 0.88923(9) 0.28496(8)
H20_6 H 0.3586 0.8989 0.2867
C32_6 C 0.32939(9) 0.90696(10) 0.31433(9)
N11_6 N 0.34886(7) 0.87494(7) 0.27001(7)
N12_6 N 0.34440(8) 0.92137(8) 0.31397(7)
C33_6 C 0.26760(10) 0.91707(11) 0.38864(12)
H21_6 H 0.2573 0.9159 0.3993
C34_6 C 0.27925(12) 0.93473(12) 0.38786(13)
H22_6 H 0.2766 0.9459 0.3973
C35_6 C 0.29519(13) 0.93645(12) 0.37298(12)
H23_6 H 0.3037 0.9486 0.3722
C36_6 C 0.29822(9) 0.91989(10) 0.35933(10)
C37_6 C 0.28496(8) 0.90259(8) 0.36077(9)
H24_6 H 0.2867 0.8914 0.3511
C38_6 C 0.31433(9) 0.92061(9) 0.34304(10)
N13_6 N 0.27001(7) 0.90114(7) 0.37506(7)
N14_6 N 0.31397(7) 0.90560(8) 0.32863(8)
C39_6 C 0.58895(8) 0.85084(8) 0.46878(7)
H25_6 H 0.6017 0.8440 0.4654
C40_6 C 0.57155(8) 0.84633(9) 0.45684(8)
C41_6 C 0.55267(9) 0.85600(11) 0.46194(10)
H26_6 H 0.5404 0.8534 0.4540
C42_6 C 0.55240(9) 0.86944(12) 0.47884(10)
H27_6 H 0.5398 0.8761 0.4829
C43_6 C 0.57076(9) 0.87310(10) 0.48985(10)
H28_6 H 0.5704 0.8823 0.5015
C44_6 C 0.64137(9) 0.76534(9) 0.41482(9)
H29_6 H 0.6523 0.7553 0.4136
C45_6 C 0.64056(11) 0.77795(10) 0.43264(10)
H30_6 H 0.6511 0.7769 0.4430
C46_6 C 0.62449(9) 0.79177(10) 0.43501(10)
H31_6 H 0.6235 0.8002 0.4472
C47_6 C 0.60943(8) 0.79333(8) 0.41906(8)
C48_6 C 0.61174(7) 0.78065(8) 0.40169(8)
H32_6 H 0.6017 0.7818 0.3908
C49_6 C 0.59209(8) 0.80847(8) 0.42038(8)
C50_6 C 0.57381(8) 0.83270(9) 0.43823(8)
C51_6 C 0.56447(8) 0.82422(9) 0.40570(8)
C52_6 C 0.53758(7) 0.84565(8) 0.38725(9)
H33_6 H 0.5372 0.8544 0.3993
C53_6 C 0.55122(8) 0.82836(9) 0.38729(9)
C54_6 C 0.55210(9) 0.81601(10) 0.36928(9)
H34_6 H 0.5612 0.8043 0.3685
C55_6 C 0.53937(11) 0.82141(11) 0.35256(10)
H35_6 H 0.5397 0.8134 0.3400
C56_6 C 0.52623(9) 0.83842(10) 0.35415(9)
H36_6 H 0.5175 0.8418 0.3426
C57_6 C 0.49874(9) 0.88009(12) 0.32496(12)
C58_10 C 0.48240(10) 0.91707(11) 0.36136(12)
H37_10 H 0.4927 0.9159 0.3507
C59_10 C 0.47075(12) 0.93473(12) 0.36214(13)
H38_10 H 0.4734 0.9459 0.3527
C60_10 C 0.45481(13) 0.93645(12) 0.37702(12)
H39_10 H 0.4463 0.9486 0.3778
C61_10 C 0.45178(9) 0.91989(10) 0.39067(10)
C62_10 C 0.46504(8) 0.90259(8) 0.38923(9)
H40_10 H 0.4633 0.8914 0.3989
C63_10 C 0.43567(9) 0.92061(9) 0.40696(10)
Co3_6 Co 0.502194(14) 0.8750 0.3750
N16_6 N 0.62727(7) 0.76681(7) 0.39933(7)
N17_6 N 0.57970(6) 0.81052(7) 0.40364(7)
N18_6 N 0.59010(7) 0.81961(7) 0.43807(7)
N19_6 N 0.56030(7) 0.83523(8) 0.42285(7)
N20_6 N 0.52534(7) 0.85040(7) 0.37139(7)
N21_6 N 0.50126(7) 0.87722(7) 0.34250(8)
N22_6 N 0.47999(7) 0.90114(7) 0.37494(7)
N23_10 N 0.43603(7) 0.90560(8) 0.42137(8)
S3_6 S 0.49509(4) 0.88430(7) 0.30016(4)
C64_10 C 0.36136(12) 0.98240(10) 0.41707(11)
H41_10 H 0.3507 0.9927 0.4159
C65_10 C 0.36214(13) 0.97075(12) 0.43473(12)
H42_10 H 0.3527 0.9734 0.4459
C66_10 C 0.37702(12) 0.95481(13) 0.43645(12)
H43_10 H 0.3778 0.9463 0.4486
C67_10 C 0.39067(10) 0.95178(9) 0.41989(10)
C68_10 C 0.38923(9) 0.96504(8) 0.40259(8)
H44_10 H 0.3989 0.9633 0.3914
C69_10 C 0.40696(10) 0.93567(9) 0.42061(9)
N24_6 N 0.37494(7) 0.97999(7) 0.40114(7)
N25_10 N 0.42137(8) 0.93603(7) 0.40560(8)
C70_10 C 0.41707(11) 0.86136(12) 0.48240(10)
H45_10 H 0.4159 0.8507 0.4927
C71_10 C 0.43473(12) 0.86214(13) 0.47075(12)
H46_10 H 0.4459 0.8527 0.4734
C72_10 C 0.43645(12) 0.87702(12) 0.45481(13)
H47_10 H 0.4486 0.8778 0.4463
C73_10 C 0.41989(10) 0.89067(10) 0.45178(9)
C74_10 C 0.40259(8) 0.88923(9) 0.46504(8)
H48_10 H 0.3914 0.8989 0.4633
C75_10 C 0.42061(9) 0.90696(10) 0.43567(9)
N26_10 N 0.40114(7) 0.87494(7) 0.47999(7)
N27_10 N 0.40560(8) 0.92137(8) 0.43603(7)
C76_6 C 0.35084(8) 0.78122(7) 0.16105(8)
H49_6 H 0.3440 0.7846 0.1483
C77_6 C 0.34633(9) 0.79316(8) 0.17845(8)
C78_6 C 0.35600(11) 0.78806(10) 0.19733(9)
H50_6 H 0.3534 0.7960 0.2096
C79_6 C 0.36944(12) 0.77116(10) 0.19760(9)
H51_6 H 0.3761 0.7671 0.2102
C80_6 C 0.37310(10) 0.76015(10) 0.17924(9)
H52_6 H 0.3823 0.7485 0.1796
C81_6 C 0.26534(9) 0.83518(9) 0.10863(9)
H53_6 H 0.2553 0.8364 0.0977
C82_6 C 0.27795(10) 0.81736(10) 0.10944(11)
H54_6 H 0.2769 0.8070 0.0989
C83_6 C 0.29177(10) 0.81499(10) 0.12551(9)
H55_6 H 0.3002 0.8028 0.1265
C84_6 C 0.29333(8) 0.83094(8) 0.14057(8)
C85_6 C 0.28065(8) 0.84831(8) 0.13826(7)
H56_6 H 0.2818 0.8592 0.1483
C86_6 C 0.30847(8) 0.82962(8) 0.15791(8)
C87_6 C 0.33270(9) 0.81177(8) 0.17619(8)
C88_6 C 0.32422(9) 0.84430(8) 0.18553(8)
C89_6 C 0.34565(8) 0.86275(9) 0.21242(7)
H57_6 H 0.3544 0.8507 0.2128
C90_6 C 0.32836(9) 0.86271(9) 0.19878(8)
C91_6 C 0.31601(10) 0.88072(9) 0.19790(9)
H58_6 H 0.3043 0.8815 0.1888
C92_6 C 0.32141(11) 0.89744(10) 0.21063(11)
H59_6 H 0.3134 0.9100 0.2103
C93_6 C 0.33842(10) 0.89585(9) 0.22377(9)
H60_6 H 0.3418 0.9074 0.2325
C94_6 C 0.38009(12) 0.92504(12) 0.25126(9)
Co4_6 Co 0.3750 0.8750 0.247806(14)
N29_6 N 0.26681(7) 0.85067(7) 0.12273(7)
N30_6 N 0.31052(7) 0.84636(7) 0.17030(6)
N31_6 N 0.31961(7) 0.81193(7) 0.15990(7)
N32_6 N 0.33523(8) 0.82715(7) 0.18970(7)
N33_6 N 0.35040(7) 0.87861(7) 0.22466(7)
N34_6 N 0.37722(7) 0.90750(8) 0.24874(7)
S4_6 S 0.38430(7) 0.94984(4) 0.25491(4)
C95_14 C 0.39916(8) 0.96878(7) 0.16105(8)
H61_14 H 0.4060 0.9654 0.1483
C96_14 C 0.40367(9) 0.95684(8) 0.17845(8)
C97_14 C 0.39400(11) 0.96194(10) 0.19733(9)
H62_14 H 0.3966 0.9540 0.2096
C98_14 C 0.38056(12) 0.97884(10) 0.19760(9)
H63_14 H 0.3739 0.9829 0.2102
C99_14 C 0.37690(10) 0.98985(10) 0.17924(9)
C100_14 C 0.48466(9) 0.91482(9) 0.10863(9)
H65_14 H 0.4947 0.9136 0.0977
C101_14 C 0.47205(10) 0.93264(10) 0.10944(11)
H66_14 H 0.4731 0.9430 0.0989
C102_14 C 0.45823(10) 0.93501(10) 0.12551(9)
H67_14 H 0.4498 0.9472 0.1265
C103_14 C 0.45667(8) 0.91906(8) 0.14057(8)
C104_14 C 0.46935(8) 0.90169(8) 0.13826(7)
H68_14 H 0.4682 0.8908 0.1483
C105_14 C 0.44153(8) 0.92038(8) 0.15791(8)
C106_14 C 0.41730(9) 0.93823(8) 0.17619(8)
C107_14 C 0.42578(9) 0.90570(8) 0.18553(8)
C108_14 C 0.40435(8) 0.88725(9) 0.21242(7)
H69_14 H 0.3956 0.8993 0.2128
C109_14 C 0.42164(9) 0.88729(9) 0.19878(8)
C110_14 C 0.43399(10) 0.86928(9) 0.19790(9)
H70_14 H 0.4457 0.8685 0.1888
C111_14 C 0.42859(11) 0.85256(10) 0.21063(11)
H71_14 H 0.4366 0.8400 0.2103
C112_14 C 0.41158(10) 0.85415(9) 0.22377(9)
H72_14 H 0.4082 0.8426 0.2325
C113_6 C 0.36991(12) 0.82496(12) 0.25126(9)
N35_14 N 0.38587(7) 0.98473(6) 0.16093(7)
N36_14 N 0.48319(7) 0.89933(7) 0.12273(7)
N37_14 N 0.43948(7) 0.90364(7) 0.17030(6)
N38_14 N 0.43039(7) 0.93807(7) 0.15990(7)
N39_14 N 0.41477(8) 0.92285(7) 0.18970(7)
N40_6 N 0.39960(7) 0.87139(7) 0.22466(7)
N41_6 N 0.37278(7) 0.84250(8) 0.24874(7)
S5_6 S 0.36570(7) 0.80016(4) 0.25491(4)
C152_6 C 0.32496(12) 0.99874(9) 0.38009(12)
S8_6 S 0.30016(4) 0.99509(4) 0.38430(7)
C153_6 C 0.49874(9) 0.86991(12) 0.42504(12)
N57_6 N 0.50126(7) 0.87278(7) 0.40750(8)
S9_6 S 0.49509(4) 0.86570(7) 0.44984(4)
Co7_8 Co 0.630481(11) 0.7500 0.369519(11)
Co8_8 Co 0.2500 0.880481(11) 0.119519(11)
Co14_6 Co 0.247806(14) 0.8750 0.3750
Co15_10 Co 0.3750 0.8750 0.502194(14)
N69_6 N 0.52534(7) 0.89960(7) 0.37861(7)
N70_6 N 0.40114(7) 0.87506(7) 0.27001(7)
N71_6 N 0.47999(7) 0.84886(7) 0.37506(7)
C76_7 C 0.39916(8) 0.28122(7) 0.08895(8)
H49_7 H 0.4060 0.2846 0.1017
C77_7 C 0.40367(9) 0.29316(8) 0.07155(8)
C78_7 C 0.39400(11) 0.28806(10) 0.05267(9)
H50_7 H 0.3966 0.2960 0.0404
C79_7 C 0.38056(12) 0.27116(10) 0.05240(9)
H51_7 H 0.3739 0.2671 0.0398
C80_7 C 0.37690(10) 0.26015(10) 0.07076(9)
H52_7 H 0.3677 0.2485 0.0704
C81_7 C 0.48466(9) 0.33518(9) 0.14137(9)
H53_7 H 0.4947 0.3364 0.1523
C82_7 C 0.47205(10) 0.31736(10) 0.14056(11)
H54_7 H 0.4731 0.3070 0.1511
C83_7 C 0.45823(10) 0.31499(10) 0.12449(9)
H55_7 H 0.4498 0.3028 0.1235
C84_7 C 0.45667(8) 0.33094(8) 0.10943(8)
C85_7 C 0.46935(8) 0.34831(8) 0.11174(7)
H56_7 H 0.4682 0.3592 0.1017
C86_7 C 0.44153(8) 0.32962(8) 0.09209(8)
C87_7 C 0.41730(9) 0.31177(8) 0.07381(8)
C88_7 C 0.42578(9) 0.34430(8) 0.06447(8)
C89_7 C 0.40435(8) 0.36275(9) 0.03758(7)
H57_7 H 0.3956 0.3507 0.0372
C90_7 C 0.42164(9) 0.36271(9) 0.05122(8)
C91_7 C 0.43399(10) 0.38072(9) 0.05210(9)
H58_7 H 0.4457 0.3815 0.0612
C92_7 C 0.42859(11) 0.39744(10) 0.03937(11)
H59_7 H 0.4366 0.4100 0.0397
C93_7 C 0.41158(10) 0.39585(9) 0.02623(9)
H60_7 H 0.4082 0.4074 0.0175
Co4_7 Co 0.3750 0.3750 0.002194(14)
N29_7 N 0.48319(7) 0.35067(7) 0.12727(7)
N30_7 N 0.43948(7) 0.34636(7) 0.07970(6)
N31_7 N 0.43039(7) 0.31193(7) 0.09010(7)
N32_7 N 0.41477(8) 0.32715(7) 0.06030(7)
N33_7 N 0.39960(7) 0.37861(7) 0.02534(7)
N34_7 N 0.37278(7) 0.40750(8) 0.00126(7)
C95_15 C 0.35084(8) 0.46878(7) 0.08895(8)
H61_15 H 0.3440 0.4654 0.1017
C96_15 C 0.34633(9) 0.45684(8) 0.07155(8)
C97_15 C 0.35600(11) 0.46194(10) 0.05267(9)
H62_15 H 0.3534 0.4540 0.0404
C98_15 C 0.36944(12) 0.47884(10) 0.05240(9)
H63_15 H 0.3761 0.4829 0.0398
C99_15 C 0.37310(10) 0.48985(10) 0.07076(9)
H64_15 H 0.3823 0.5015 0.0704
C100_15 C 0.26534(9) 0.41482(9) 0.14137(9)
H65_15 H 0.2553 0.4136 0.1523
C101_15 C 0.27795(10) 0.43264(10) 0.14056(11)
H66_15 H 0.2769 0.4430 0.1511
C102_15 C 0.29177(10) 0.43501(10) 0.12449(9)
H67_15 H 0.3002 0.4472 0.1235
C103_15 C 0.29333(8) 0.41906(8) 0.10943(8)
C104_15 C 0.28065(8) 0.40169(8) 0.11174(7)
H68_15 H 0.2818 0.3908 0.1017
C105_15 C 0.30847(8) 0.42038(8) 0.09209(8)
C106_15 C 0.33270(9) 0.43823(8) 0.07381(8)
C107_15 C 0.32422(9) 0.40570(8) 0.06447(8)
C108_15 C 0.34565(8) 0.38725(9) 0.03758(7)
H69_15 H 0.3544 0.3993 0.0372
C109_15 C 0.32836(9) 0.38729(9) 0.05122(8)
C110_15 C 0.31601(10) 0.36928(9) 0.05210(9)
H70_15 H 0.3043 0.3685 0.0612
C111_15 C 0.32141(11) 0.35256(10) 0.03937(11)
H71_15 H 0.3134 0.3400 0.0397
C112_15 C 0.33842(10) 0.35415(9) 0.02623(9)
H72_15 H 0.3418 0.3426 0.0175
N35_15 N 0.36413(7) 0.48473(6) 0.08907(7)
N36_15 N 0.26681(7) 0.39933(7) 0.12727(7)
N37_15 N 0.31052(7) 0.40364(7) 0.07970(6)
N38_15 N 0.31961(7) 0.43807(7) 0.09010(7)
N39_15 N 0.33523(8) 0.42285(7) 0.06030(7)
N40_7 N 0.35040(7) 0.37139(7) 0.02534(7)
N41_7 N 0.37722(7) 0.34250(8) 0.00126(7)
Co8_9 Co 0.5000 0.380481(11) 0.130481(11)
C1_7 C 0.46878(7) 0.58895(8) 0.85084(8)
H1_7 H 0.4654 0.6017 0.8440
C2_7 C 0.45684(8) 0.57155(8) 0.84633(9)
C3_7 C 0.46194(10) 0.55267(9) 0.85600(11)
H2_7 H 0.4540 0.5404 0.8534
C4_7 C 0.47884(10) 0.55240(9) 0.86944(12)
H3_7 H 0.4829 0.5398 0.8761
C5_7 C 0.48985(10) 0.57076(9) 0.87310(10)
H4_7 H 0.5015 0.5704 0.8823
C6_15 C 0.39828(8) 0.65698(8) 0.71879(8)
C7_7 C 0.41482(9) 0.64137(9) 0.76534(9)
H5_7 H 0.4136 0.6523 0.7553
C8_7 C 0.43264(10) 0.64056(11) 0.77795(10)
H6_7 H 0.4430 0.6511 0.7769
C9_7 C 0.43501(10) 0.62449(9) 0.79177(10)
H7_7 H 0.4472 0.6235 0.8002
C10_7 C 0.41906(8) 0.60943(8) 0.79333(8)
C11_7 C 0.40169(8) 0.61174(7) 0.78065(8)
H8_7 H 0.3908 0.6017 0.7818
C12_7 C 0.42038(8) 0.59209(8) 0.80847(8)
C13_7 C 0.43823(8) 0.57381(8) 0.83270(9)
C14_7 C 0.40570(8) 0.56447(8) 0.82422(9)
C15_7 C 0.38725(9) 0.53758(7) 0.84565(8)
H9_7 H 0.3993 0.5372 0.8544
C16_7 C 0.38729(9) 0.55122(8) 0.82836(9)
C17_7 C 0.36928(9) 0.55210(9) 0.81601(10)
H10_7 H 0.3685 0.5612 0.8043
C18_7 C 0.35256(10) 0.53937(11) 0.82141(11)
H11_7 H 0.3400 0.5397 0.8134
C19_7 C 0.35415(9) 0.52623(9) 0.83842(10)
H12_7 H 0.3426 0.5175 0.8418
C20_7 C 0.32496(12) 0.49874(9) 0.88009(12)
C21_7 C 0.36136(12) 0.48240(10) 0.91707(11)
H13_7 H 0.3507 0.4927 0.9159
C22_7 C 0.36214(13) 0.47075(12) 0.93473(12)
H14_7 H 0.3527 0.4734 0.9459
C23_7 C 0.37702(12) 0.45481(13) 0.93645(12)
H15_7 H 0.3778 0.4463 0.9486
C24_7 C 0.39067(10) 0.45178(9) 0.91989(10)
C25_7 C 0.38923(9) 0.46504(8) 0.90259(8)
H16_7 H 0.3989 0.4633 0.8914
C26_7 C 0.40696(10) 0.43567(9) 0.92061(9)
Co1_9 Co 0.369519(11) 0.630481(11) 0.7500
Co2_7 Co 0.3750 0.502194(14) 0.8750
N2_15 N 0.38623(7) 0.64569(7) 0.72646(6)
N3_7 N 0.39933(7) 0.62727(7) 0.76681(7)
N4_7 N 0.40364(7) 0.57970(6) 0.81052(7)
N5_7 N 0.43807(7) 0.59010(7) 0.81961(7)
N6_7 N 0.42285(7) 0.56030(7) 0.83523(8)
N7_7 N 0.37139(7) 0.52534(7) 0.85040(7)
N8_7 N 0.34250(8) 0.50126(7) 0.87722(7)
N9_7 N 0.37494(7) 0.47999(7) 0.90114(7)
N10_7 N 0.42137(8) 0.43603(7) 0.90560(8)
S1_15 S 0.41525(3) 0.67311(3) 0.70888(3)
S2_7 S 0.30016(4) 0.49509(4) 0.88430(7)
C27_7 C 0.41707(11) 0.36136(12) 0.98240(10)
H17_7 H 0.4159 0.3507 0.9927
C28_7 C 0.43473(12) 0.36214(13) 0.97075(12)
H18_7 H 0.4459 0.3527 0.9734
C29_7 C 0.43645(12) 0.37702(12) 0.95481(13)
H19_7 H 0.4486 0.3778 0.9463
C30_7 C 0.41989(10) 0.39067(10) 0.95178(9)
C31_7 C 0.40259(8) 0.38923(9) 0.96504(8)
H20_7 H 0.3914 0.3989 0.9633
C32_7 C 0.42061(9) 0.40696(10) 0.93567(9)
N11_7 N 0.40114(7) 0.37494(7) 0.97999(7)
N12_7 N 0.40560(8) 0.42137(8) 0.93603(7)
C33_7 C 0.48240(10) 0.41707(11) 0.86136(12)
H21_7 H 0.4927 0.4159 0.8507
C34_7 C 0.47075(12) 0.43473(12) 0.86214(13)
H22_7 H 0.4734 0.4459 0.8527
C35_7 C 0.45481(13) 0.43645(12) 0.87702(12)
H23_7 H 0.4463 0.4486 0.8778
C36_7 C 0.45178(9) 0.41989(10) 0.89067(10)
C37_7 C 0.46504(8) 0.40259(8) 0.88923(9)
H24_7 H 0.4633 0.3914 0.8989
C38_7 C 0.43567(9) 0.42061(9) 0.90696(10)
N13_7 N 0.47999(7) 0.40114(7) 0.87494(7)
N14_7 N 0.43603(7) 0.40560(8) 0.92137(8)
C39_7 C 0.16105(8) 0.35084(8) 0.78122(7)
H25_7 H 0.1483 0.3440 0.7846
C40_7 C 0.17845(8) 0.34633(9) 0.79316(8)
C41_7 C 0.19733(9) 0.35600(11) 0.78806(10)
H26_7 H 0.2096 0.3534 0.7960
C42_7 C 0.19760(9) 0.36944(12) 0.77116(10)
H27_7 H 0.2102 0.3761 0.7671
C43_7 C 0.17924(9) 0.37310(10) 0.76015(10)
H28_7 H 0.1796 0.3823 0.7485
C44_7 C 0.10863(9) 0.26534(9) 0.83518(9)
H29_7 H 0.0977 0.2553 0.8364
C45_7 C 0.10944(11) 0.27795(10) 0.81736(10)
H30_7 H 0.0989 0.2769 0.8070
C46_7 C 0.12551(9) 0.29177(10) 0.81499(10)
H31_7 H 0.1265 0.3002 0.8028
C47_7 C 0.14057(8) 0.29333(8) 0.83094(8)
C48_7 C 0.13826(7) 0.28065(8) 0.84831(8)
H32_7 H 0.1483 0.2818 0.8592
C49_7 C 0.15791(8) 0.30847(8) 0.82962(8)
C50_7 C 0.17619(8) 0.33270(9) 0.81177(8)
C51_7 C 0.18553(8) 0.32422(9) 0.84430(8)
C52_7 C 0.21242(7) 0.34565(8) 0.86275(9)
H33_7 H 0.2128 0.3544 0.8507
C53_7 C 0.19878(8) 0.32836(9) 0.86271(9)
C54_7 C 0.19790(9) 0.31601(10) 0.88072(9)
H34_7 H 0.1888 0.3043 0.8815
C55_7 C 0.21063(11) 0.32141(11) 0.89744(10)
H35_7 H 0.2103 0.3134 0.9100
C56_7 C 0.22377(9) 0.33842(10) 0.89585(9)
H36_7 H 0.2325 0.3418 0.9074
C57_7 C 0.25126(9) 0.38009(12) 0.92504(12)
C58_11 C 0.26760(10) 0.41707(11) 0.88864(12)
H37_11 H 0.2573 0.4159 0.8993
C59_11 C 0.27925(12) 0.43473(12) 0.88786(13)
H38_11 H 0.2766 0.4459 0.8973
C60_11 C 0.29519(13) 0.43645(12) 0.87298(12)
H39_11 H 0.3037 0.4486 0.8722
C61_11 C 0.29822(9) 0.41989(10) 0.85933(10)
C62_11 C 0.28496(8) 0.40259(8) 0.86077(9)
H40_11 H 0.2867 0.3914 0.8511
C63_11 C 0.31433(9) 0.42061(9) 0.84304(10)
Co3_7 Co 0.247806(14) 0.3750 0.8750
N16_7 N 0.12273(7) 0.26681(7) 0.85067(7)
N17_7 N 0.17030(6) 0.31052(7) 0.84636(7)
N18_7 N 0.15990(7) 0.31961(7) 0.81193(7)
N19_7 N 0.18970(7) 0.33523(8) 0.82715(7)
N20_7 N 0.22466(7) 0.35040(7) 0.87861(7)
N21_7 N 0.24874(7) 0.37722(7) 0.90750(8)
N22_7 N 0.27001(7) 0.40114(7) 0.87506(7)
N23_11 N 0.31397(7) 0.40560(8) 0.82863(8)
S3_7 S 0.25491(4) 0.38430(7) 0.94984(4)
C64_11 C 0.38864(12) 0.48240(10) 0.83293(11)
H41_11 H 0.3993 0.4927 0.8341
C65_11 C 0.38786(13) 0.47075(12) 0.81527(12)
H42_11 H 0.3973 0.4734 0.8041
C66_11 C 0.37298(12) 0.45481(13) 0.81355(12)
H43_11 H 0.3722 0.4463 0.8014
C67_11 C 0.35933(10) 0.45178(9) 0.83011(10)
C68_11 C 0.36077(9) 0.46504(8) 0.84741(8)
H44_11 H 0.3511 0.4633 0.8586
C69_11 C 0.34304(10) 0.43567(9) 0.82939(9)
N24_7 N 0.37506(7) 0.47999(7) 0.84886(7)
N25_11 N 0.32863(8) 0.43603(7) 0.84440(8)
C70_11 C 0.33293(11) 0.36136(12) 0.76760(10)
H45_11 H 0.3341 0.3507 0.7573
C71_11 C 0.31527(12) 0.36214(13) 0.77925(12)
H46_11 H 0.3041 0.3527 0.7766
C72_11 C 0.31355(12) 0.37702(12) 0.79519(13)
H47_11 H 0.3014 0.3778 0.8037
C73_11 C 0.33011(10) 0.39067(10) 0.79822(9)
C74_11 C 0.34741(8) 0.38923(9) 0.78496(8)
H48_11 H 0.3586 0.3989 0.7867
C75_11 C 0.32939(9) 0.40696(10) 0.81433(9)
N26_11 N 0.34886(7) 0.37494(7) 0.77001(7)
N27_11 N 0.34440(8) 0.42137(8) 0.81397(7)
C94_7 C 0.36991(12) 0.42504(12) 0.99874(9)
S4_7 S 0.36570(7) 0.44984(4) 0.99509(4)
C113_7 C 0.38009(12) 0.32496(12) 0.99874(9)
S5_7 S 0.38430(7) 0.30016(4) 0.99509(4)
C114_15 C 0.33895(8) 0.64916(8) 0.71878(7)
H73_15 H 0.3517 0.6560 0.7154
C115_15 C 0.32155(8) 0.65367(9) 0.70684(8)
C116_15 C 0.30267(9) 0.64400(11) 0.71194(10)
H74_15 H 0.2904 0.6466 0.7040
C117_15 C 0.30240(9) 0.63056(12) 0.72884(10)
H75_15 H 0.2898 0.6239 0.7329
C118_15 C 0.32076(9) 0.62690(10) 0.73985(10)
H76_15 H 0.3204 0.6177 0.7515
C119_15 C 0.40698(8) 0.78121(8) 0.64828(8)
C120_15 C 0.39137(9) 0.73466(9) 0.66482(9)
H77_15 H 0.4023 0.7447 0.6636
C121_15 C 0.39056(11) 0.72205(10) 0.68264(10)
H78_15 H 0.4011 0.7231 0.6930
C122_15 C 0.37449(9) 0.70823(10) 0.68501(10)
H79_15 H 0.3735 0.6998 0.6972
C123_15 C 0.35943(8) 0.70667(8) 0.66906(8)
C124_15 C 0.36174(7) 0.71935(8) 0.65169(8)
H80_15 H 0.3517 0.7182 0.6408
C125_15 C 0.34209(8) 0.69153(8) 0.67038(8)
C126_15 C 0.32381(8) 0.66730(9) 0.68823(8)
C127_15 C 0.31447(8) 0.67578(9) 0.65570(8)
C128_15 C 0.28758(7) 0.65435(8) 0.63725(9)
H81_15 H 0.2872 0.6456 0.6493
C129_15 C 0.30122(8) 0.67164(9) 0.63729(9)
C130_15 C 0.30210(9) 0.68399(10) 0.61928(9)
H82_15 H 0.3112 0.6957 0.6185
C131_15 C 0.28937(11) 0.67859(11) 0.60256(10)
H83_15 H 0.2897 0.6866 0.5900
C132_15 C 0.27623(9) 0.66158(10) 0.60415(9)
H84_15 H 0.2675 0.6582 0.5926
Co5_18 Co 0.380481(11) 0.7500 0.619519(11)
N42_15 N 0.33907(7) 0.63587(7) 0.73473(6)
N43_15 N 0.39569(7) 0.77354(6) 0.63623(7)
N44_15 N 0.37727(7) 0.73319(7) 0.64933(7)
N45_15 N 0.32970(6) 0.68948(7) 0.65364(7)
N46_15 N 0.34010(7) 0.68039(7) 0.68807(7)
N47_15 N 0.31030(7) 0.66477(8) 0.67285(7)
N48_15 N 0.27534(7) 0.64960(7) 0.62139(7)
S6_15 S 0.42311(3) 0.79112(3) 0.66525(3)
C133_15 C 0.35084(8) 0.66105(8) 0.78122(7)
H85_15 H 0.3440 0.6483 0.7846
C134_15 C 0.34633(9) 0.67845(8) 0.79316(8)
C135_15 C 0.35600(11) 0.69733(9) 0.78806(10)
H86_15 H 0.3534 0.7096 0.7960
C136_15 C 0.36944(12) 0.69760(9) 0.77116(10)
H87_15 H 0.3761 0.7102 0.7671
C137_15 C 0.37310(10) 0.67924(9) 0.76015(10)
H88_15 H 0.3823 0.6796 0.7485
C138_15 C 0.26534(9) 0.60863(9) 0.83518(9)
H89_15 H 0.2553 0.5977 0.8364
C139_15 C 0.27795(10) 0.60944(11) 0.81736(10)
H90_15 H 0.2769 0.5989 0.8070
C140_15 C 0.29177(10) 0.62551(9) 0.81499(10)
H91_15 H 0.3002 0.6265 0.8028
C141_15 C 0.29333(8) 0.64057(8) 0.83094(8)
C142_15 C 0.28065(8) 0.63826(7) 0.84831(8)
H92_15 H 0.2818 0.6483 0.8592
C143_15 C 0.30847(8) 0.65791(8) 0.82962(8)
C144_15 C 0.33270(9) 0.67619(8) 0.81177(8)
C145_15 C 0.32422(9) 0.68553(8) 0.84430(8)
C146_15 C 0.34565(8) 0.71242(7) 0.86275(9)
H93_15 H 0.3544 0.7128 0.8507
C147_15 C 0.32836(9) 0.69878(8) 0.86271(9)
C148_15 C 0.31601(10) 0.69790(9) 0.88072(9)
H94_15 H 0.3043 0.6888 0.8815
C149_15 C 0.32141(11) 0.71063(11) 0.89744(10)
H95_15 H 0.3134 0.7103 0.9100
C150_15 C 0.33842(10) 0.72377(9) 0.89585(9)
H96_15 H 0.3418 0.7325 0.9074
N49_15 N 0.36413(7) 0.66093(7) 0.76527(6)
N50_15 N 0.26681(7) 0.62273(7) 0.85067(7)
N51_15 N 0.31052(7) 0.67030(6) 0.84636(7)
N52_15 N 0.31961(7) 0.65990(7) 0.81193(7)
N53_15 N 0.33523(8) 0.68970(7) 0.82715(7)
N54_15 N 0.35040(7) 0.72466(7) 0.87861(7)
C151_15 C 0.34302(8) 0.60172(8) 0.78121(8)
N55_15 N 0.35431(7) 0.61377(7) 0.77354(6)
S7_15 S 0.32689(3) 0.58475(3) 0.79112(3)
C152_7 C 0.42504(12) 0.49874(9) 0.86991(12)
N56_7 N 0.40750(8) 0.50126(7) 0.87278(7)
S8_7 S 0.44984(4) 0.49509(4) 0.86570(7)
C153_7 C 0.25126(9) 0.36991(12) 0.82496(12)
N57_7 N 0.24874(7) 0.37278(7) 0.84250(8)
S9_7 S 0.25491(4) 0.36570(7) 0.80016(4)
C154_15 C 0.35172(8) 0.71879(8) 0.59302(8)
N58_15 N 0.36377(7) 0.72646(6) 0.60431(7)
S10_15 S 0.33475(3) 0.70888(3) 0.57689(3)
Co7_9 Co 0.119519(11) 0.2500 0.880481(11)
Co14_7 Co 0.502194(14) 0.3750 0.8750
Co15_11 Co 0.3750 0.3750 0.747806(14)
Co16_15 Co 0.252194(14) 0.6250 0.6250
Co17_15 Co 0.3750 0.747806(14) 0.8750
N62_15 N 0.38587(7) 0.76527(6) 0.58907(7)
N63_15 N 0.41093(7) 0.73473(6) 0.61413(7)
N64_15 N 0.37273(7) 0.60067(7) 0.73319(7)
N66_15 N 0.35067(7) 0.76681(7) 0.62273(7)
N68_7 N 0.37861(7) 0.52534(7) 0.89960(7)
N69_7 N 0.22466(7) 0.39960(7) 0.87139(7)
N70_7 N 0.34886(7) 0.37506(7) 0.97999(7)
N71_7 N 0.27001(7) 0.34886(7) 0.87494(7)
C39_8 C 0.08895(8) 0.39916(8) 0.28122(7)
H25_8 H 0.1017 0.4060 0.2846
C40_8 C 0.07155(8) 0.40367(9) 0.29316(8)
C41_8 C 0.05267(9) 0.39400(11) 0.28806(10)
H26_8 H 0.0404 0.3966 0.2960
C42_8 C 0.05240(9) 0.38056(12) 0.27116(10)
H27_8 H 0.0398 0.3739 0.2671
C43_8 C 0.07076(9) 0.37690(10) 0.26015(10)
H28_8 H 0.0704 0.3677 0.2485
C44_8 C 0.14137(9) 0.48466(9) 0.33518(9)
H29_8 H 0.1523 0.4947 0.3364
C45_8 C 0.14056(11) 0.47205(10) 0.31736(10)
H30_8 H 0.1511 0.4731 0.3070
C46_8 C 0.12449(9) 0.45823(10) 0.31499(10)
H31_8 H 0.1235 0.4498 0.3028
C47_8 C 0.10943(8) 0.45667(8) 0.33094(8)
C48_8 C 0.11174(7) 0.46935(8) 0.34831(8)
H32_8 H 0.1017 0.4682 0.3592
C49_8 C 0.09209(8) 0.44153(8) 0.32962(8)
C50_8 C 0.07381(8) 0.41730(9) 0.31177(8)
C51_8 C 0.06447(8) 0.42578(9) 0.34430(8)
C52_8 C 0.03758(7) 0.40435(8) 0.36275(9)
H33_8 H 0.0372 0.3956 0.3507
C53_8 C 0.05122(8) 0.42164(9) 0.36271(9)
C54_8 C 0.05210(9) 0.43399(10) 0.38072(9)
H34_8 H 0.0612 0.4457 0.3815
C55_8 C 0.03937(11) 0.42859(11) 0.39744(10)
H35_8 H 0.0397 0.4366 0.4100
C56_8 C 0.02623(9) 0.41158(10) 0.39585(9)
H36_8 H 0.0175 0.4082 0.4074
Co3_8 Co 0.002194(14) 0.3750 0.3750
N16_8 N 0.12727(7) 0.48319(7) 0.35067(7)
N17_8 N 0.07970(6) 0.43948(7) 0.34636(7)
N18_8 N 0.09010(7) 0.43039(7) 0.31193(7)
N19_8 N 0.06030(7) 0.41477(8) 0.32715(7)
N20_8 N 0.02534(7) 0.39960(7) 0.37861(7)
N21_8 N 0.00126(7) 0.37278(7) 0.40750(8)
N57_8 N 0.00126(7) 0.37722(7) 0.34250(8)
Co7_10 Co 0.130481(11) 0.5000 0.380481(11)
N69_8 N 0.02534(7) 0.35040(7) 0.37139(7)
C1_8 C 0.78122(7) 0.16105(8) 0.35084(8)
H1_8 H 0.7846 0.1483 0.3440
C2_8 C 0.79316(8) 0.17845(8) 0.34633(9)
C3_8 C 0.78806(10) 0.19733(9) 0.35600(11)
H2_8 H 0.7960 0.2096 0.3534
C4_8 C 0.77116(10) 0.19760(9) 0.36944(12)
H3_8 H 0.7671 0.2102 0.3761
C5_8 C 0.76015(10) 0.17924(9) 0.37310(10)
H4_8 H 0.7485 0.1796 0.3823
C6_16 C 0.85172(8) 0.09302(8) 0.21879(8)
C7_8 C 0.83518(9) 0.10863(9) 0.26534(9)
H5_8 H 0.8364 0.0977 0.2553
C8_8 C 0.81736(10) 0.10944(11) 0.27795(10)
H6_8 H 0.8070 0.0989 0.2769
C9_8 C 0.81499(10) 0.12551(9) 0.29177(10)
H7_8 H 0.8028 0.1265 0.3002
C10_8 C 0.83094(8) 0.14057(8) 0.29333(8)
C11_8 C 0.84831(8) 0.13826(7) 0.28065(8)
H8_8 H 0.8592 0.1483 0.2818
C12_8 C 0.82962(8) 0.15791(8) 0.30847(8)
C13_8 C 0.81177(8) 0.17619(8) 0.33270(9)
C14_8 C 0.84430(8) 0.18553(8) 0.32422(9)
C15_8 C 0.86275(9) 0.21242(7) 0.34565(8)
H9_8 H 0.8507 0.2128 0.3544
C16_8 C 0.86271(9) 0.19878(8) 0.32836(9)
C17_8 C 0.88072(9) 0.19790(9) 0.31601(10)
H10_8 H 0.8815 0.1888 0.3043
C18_8 C 0.89744(10) 0.21063(11) 0.32141(11)
H11_8 H 0.9100 0.2103 0.3134
C19_8 C 0.89585(9) 0.22377(9) 0.33842(10)
H12_8 H 0.9074 0.2325 0.3418
C20_8 C 0.92504(12) 0.25126(9) 0.38009(12)
C21_8 C 0.88864(12) 0.26760(10) 0.41707(11)
H13_8 H 0.8993 0.2573 0.4159
C22_8 C 0.88786(13) 0.27925(12) 0.43473(12)
H14_8 H 0.8973 0.2766 0.4459
C23_8 C 0.87298(12) 0.29519(13) 0.43645(12)
H15_8 H 0.8722 0.3037 0.4486
C24_8 C 0.85933(10) 0.29822(9) 0.41989(10)
C25_8 C 0.86077(9) 0.28496(8) 0.40259(8)
H16_8 H 0.8511 0.2867 0.3914
C26_8 C 0.84304(10) 0.31433(9) 0.42061(9)
Co1_10 Co 0.880481(11) 0.119519(11) 0.2500
Co2_8 Co 0.8750 0.247806(14) 0.3750
N2_16 N 0.86377(7) 0.10431(7) 0.22646(6)
N3_8 N 0.85067(7) 0.12273(7) 0.26681(7)
N4_8 N 0.84636(7) 0.17030(6) 0.31052(7)
N5_8 N 0.81193(7) 0.15990(7) 0.31961(7)
N6_8 N 0.82715(7) 0.18970(7) 0.33523(8)
N7_8 N 0.87861(7) 0.22466(7) 0.35040(7)
N8_8 N 0.90750(8) 0.24874(7) 0.37722(7)
N9_8 N 0.87506(7) 0.27001(7) 0.40114(7)
N10_8 N 0.82863(8) 0.31397(7) 0.40560(8)
S1_16 S 0.83475(3) 0.07689(3) 0.20888(3)
S2_8 S 0.94984(4) 0.25491(4) 0.38430(7)
C27_8 C 0.83293(11) 0.38864(12) 0.48240(10)
H17_8 H 0.8341 0.3993 0.4927
C28_8 C 0.81527(12) 0.38786(13) 0.47075(12)
H18_8 H 0.8041 0.3973 0.4734
C29_8 C 0.81355(12) 0.37298(12) 0.45481(13)
H19_8 H 0.8014 0.3722 0.4463
C30_8 C 0.83011(10) 0.35933(10) 0.45178(9)
C31_8 C 0.84741(8) 0.36077(9) 0.46504(8)
H20_8 H 0.8586 0.3511 0.4633
C32_8 C 0.82939(9) 0.34304(10) 0.43567(9)
N11_8 N 0.84886(7) 0.37506(7) 0.47999(7)
N12_8 N 0.84440(8) 0.32863(8) 0.43603(7)
C33_8 C 0.76760(10) 0.33293(11) 0.36136(12)
H21_8 H 0.7573 0.3341 0.3507
C34_8 C 0.77925(12) 0.31527(12) 0.36214(13)
H22_8 H 0.7766 0.3041 0.3527
C35_8 C 0.79519(13) 0.31355(12) 0.37702(12)
H23_8 H 0.8037 0.3014 0.3778
C36_8 C 0.79822(9) 0.33011(10) 0.39067(10)
C37_8 C 0.78496(8) 0.34741(8) 0.38923(9)
H24_8 H 0.7867 0.3586 0.3989
C38_8 C 0.81433(9) 0.32939(9) 0.40696(10)
N13_8 N 0.77001(7) 0.34886(7) 0.37494(7)
N14_8 N 0.81397(7) 0.34440(8) 0.42137(8)
C57_8 C 0.99874(9) 0.36991(12) 0.42504(12)
C58_12 C 0.98240(10) 0.33293(11) 0.38864(12)
H37_12 H 0.9927 0.3341 0.3993
C59_12 C 0.97075(12) 0.31527(12) 0.38786(13)
H38_12 H 0.9734 0.3041 0.3973
C60_12 C 0.95481(13) 0.31355(12) 0.37298(12)
H39_12 H 0.9463 0.3014 0.3722
C61_12 C 0.95178(9) 0.33011(10) 0.35933(10)
C62_12 C 0.96504(8) 0.34741(8) 0.36077(9)
H40_12 H 0.9633 0.3586 0.3511
C63_12 C 0.93567(9) 0.32939(9) 0.34304(10)
N22_8 N 0.97999(7) 0.34886(7) 0.37506(7)
N23_12 N 0.93603(7) 0.34440(8) 0.32863(8)
S3_8 S 0.99509(4) 0.36570(7) 0.44984(4)
C64_12 C 0.86136(12) 0.26760(10) 0.33293(11)
H41_12 H 0.8507 0.2573 0.3341
C65_12 C 0.86214(13) 0.27925(12) 0.31527(12)
H42_12 H 0.8527 0.2766 0.3041
C66_12 C 0.87702(12) 0.29519(13) 0.31355(12)
H43_12 H 0.8778 0.3037 0.3014
C67_12 C 0.89067(10) 0.29822(9) 0.33011(10)
C68_12 C 0.88923(9) 0.28496(8) 0.34741(8)
H44_12 H 0.8989 0.2867 0.3586
C69_12 C 0.90696(10) 0.31433(9) 0.32939(9)
N24_8 N 0.87494(7) 0.27001(7) 0.34886(7)
N25_12 N 0.92137(8) 0.31397(7) 0.34440(8)
C70_12 C 0.91707(11) 0.38864(12) 0.26760(10)
H45_12 H 0.9159 0.3993 0.2573
C71_12 C 0.93473(12) 0.38786(13) 0.27925(12)
H46_12 H 0.9459 0.3973 0.2766
C72_12 C 0.93645(12) 0.37298(12) 0.29519(13)
H47_12 H 0.9486 0.3722 0.3037
C73_12 C 0.91989(10) 0.35933(10) 0.29822(9)
C74_12 C 0.90259(8) 0.36077(9) 0.28496(8)
H48_12 H 0.8914 0.3511 0.2867
C75_12 C 0.92061(9) 0.34304(10) 0.31433(9)
N26_12 N 0.90114(7) 0.37506(7) 0.27001(7)
N27_12 N 0.90560(8) 0.32863(8) 0.31397(7)
C76_8 C 0.85084(8) 0.46878(7) 0.58895(8)
H49_8 H 0.8440 0.4654 0.6017
C77_8 C 0.84633(9) 0.45684(8) 0.57155(8)
C78_8 C 0.85600(11) 0.46194(10) 0.55267(9)
H50_8 H 0.8534 0.4540 0.5404
C79_8 C 0.86944(12) 0.47884(10) 0.55240(9)
H51_8 H 0.8761 0.4829 0.5398
C80_8 C 0.87310(10) 0.48985(10) 0.57076(9)
H52_8 H 0.8823 0.5015 0.5704
C81_8 C 0.76534(9) 0.41482(9) 0.64137(9)
H53_8 H 0.7553 0.4136 0.6523
C82_8 C 0.77795(10) 0.43264(10) 0.64056(11)
H54_8 H 0.7769 0.4430 0.6511
C83_8 C 0.79177(10) 0.43501(10) 0.62449(9)
H55_8 H 0.8002 0.4472 0.6235
C84_8 C 0.79333(8) 0.41906(8) 0.60943(8)
C85_8 C 0.78065(8) 0.40169(8) 0.61174(7)
H56_8 H 0.7818 0.3908 0.6017
C86_8 C 0.80847(8) 0.42038(8) 0.59209(8)
C87_8 C 0.83270(9) 0.43823(8) 0.57381(8)
C88_8 C 0.82422(9) 0.40570(8) 0.56447(8)
C89_8 C 0.84565(8) 0.38725(9) 0.53758(7)
H57_8 H 0.8544 0.3993 0.5372
C90_8 C 0.82836(9) 0.38729(9) 0.55122(8)
C91_8 C 0.81601(10) 0.36928(9) 0.55210(9)
H58_8 H 0.8043 0.3685 0.5612
C92_8 C 0.82141(11) 0.35256(10) 0.53937(11)
H59_8 H 0.8134 0.3400 0.5397
C93_8 C 0.83842(10) 0.35415(9) 0.52623(9)
H60_8 H 0.8418 0.3426 0.5175
C94_8 C 0.88009(12) 0.32496(12) 0.49874(9)
Co4_8 Co 0.8750 0.3750 0.502194(14)
N29_8 N 0.76681(7) 0.39933(7) 0.62727(7)
N30_8 N 0.81052(7) 0.40364(7) 0.57970(6)
N31_8 N 0.81961(7) 0.43807(7) 0.59010(7)
N32_8 N 0.83523(8) 0.42285(7) 0.56030(7)
N33_8 N 0.85040(7) 0.37139(7) 0.52534(7)
N34_8 N 0.87722(7) 0.34250(8) 0.50126(7)
S4_8 S 0.88430(7) 0.30016(4) 0.49509(4)
C95_16 C 0.89916(8) 0.28122(7) 0.58895(8)
H61_16 H 0.9060 0.2846 0.6017
C96_16 C 0.90367(9) 0.29316(8) 0.57155(8)
C97_16 C 0.89400(11) 0.28806(10) 0.55267(9)
H62_16 H 0.8966 0.2960 0.5404
C98_16 C 0.88056(12) 0.27116(10) 0.55240(9)
H63_16 H 0.8739 0.2671 0.5398
C99_16 C 0.87690(10) 0.26015(10) 0.57076(9)
H64_16 H 0.8677 0.2485 0.5704
C100_16 C 0.98466(9) 0.33518(9) 0.64137(9)
H65_16 H 0.9947 0.3364 0.6523
C101_16 C 0.97205(10) 0.31736(10) 0.64056(11)
H66_16 H 0.9731 0.3070 0.6511
C102_16 C 0.95823(10) 0.31499(10) 0.62449(9)
H67_16 H 0.9498 0.3028 0.6235
C103_16 C 0.95667(8) 0.33094(8) 0.60943(8)
C104_16 C 0.96935(8) 0.34831(8) 0.61174(7)
H68_16 H 0.9682 0.3592 0.6017
C105_16 C 0.94153(8) 0.32962(8) 0.59209(8)
C106_16 C 0.91730(9) 0.31177(8) 0.57381(8)
C107_16 C 0.92578(9) 0.34430(8) 0.56447(8)
C108_16 C 0.90435(8) 0.36275(9) 0.53758(7)
H69_16 H 0.8956 0.3507 0.5372
C109_16 C 0.92164(9) 0.36271(9) 0.55122(8)
C110_16 C 0.93399(10) 0.38072(9) 0.55210(9)
H70_16 H 0.9457 0.3815 0.5612
C111_16 C 0.92859(11) 0.39744(10) 0.53937(11)
H71_16 H 0.9366 0.4100 0.5397
C112_16 C 0.91158(10) 0.39585(9) 0.52623(9)
H72_16 H 0.9082 0.4074 0.5175
C113_8 C 0.86991(12) 0.42504(12) 0.49874(9)
N35_16 N 0.88587(7) 0.26527(6) 0.58907(7)
N36_16 N 0.98319(7) 0.35067(7) 0.62727(7)
N37_16 N 0.93948(7) 0.34636(7) 0.57970(6)
N38_16 N 0.93039(7) 0.31193(7) 0.59010(7)
N39_16 N 0.91477(8) 0.32715(7) 0.56030(7)
N40_8 N 0.89960(7) 0.37861(7) 0.52534(7)
N41_8 N 0.87278(7) 0.40750(8) 0.50126(7)
S5_8 S 0.86570(7) 0.44984(4) 0.49509(4)
C114_16 C 0.91105(8) 0.10084(8) 0.21878(7)
H73_16 H 0.8983 0.0940 0.2154
C115_16 C 0.92845(8) 0.09633(9) 0.20684(8)
C116_16 C 0.94733(9) 0.10600(11) 0.21194(10)
H74_16 H 0.9596 0.1034 0.2040
C117_16 C 0.94760(9) 0.11944(12) 0.22884(10)
H75_16 H 0.9602 0.1261 0.2329
C118_16 C 0.92924(9) 0.12310(10) 0.23985(10)
H76_16 H 0.9296 0.1323 0.2515
C120_16 C 0.85863(9) 0.01534(9) 0.16482(9)
H77_16 H 0.8477 0.0053 0.1636
C121_16 C 0.85944(11) 0.02795(10) 0.18264(10)
H78_16 H 0.8489 0.0269 0.1930
C122_16 C 0.87551(9) 0.04177(10) 0.18501(10)
H79_16 H 0.8765 0.0502 0.1972
C123_16 C 0.89057(8) 0.04333(8) 0.16906(8)
C124_16 C 0.88826(7) 0.03065(8) 0.15169(8)
H80_16 H 0.8983 0.0318 0.1408
C125_16 C 0.90791(8) 0.05847(8) 0.17038(8)
C126_16 C 0.92619(8) 0.08270(9) 0.18823(8)
C127_16 C 0.93553(8) 0.07422(9) 0.15570(8)
C128_16 C 0.96242(7) 0.09565(8) 0.13725(9)
H81_16 H 0.9628 0.1044 0.1493
C129_16 C 0.94878(8) 0.07836(9) 0.13729(9)
C130_16 C 0.94790(9) 0.06601(10) 0.11928(9)
H82_16 H 0.9388 0.0543 0.1185
C131_16 C 0.96063(11) 0.07141(11) 0.10256(10)
H83_16 H 0.9603 0.0634 0.0900
C132_16 C 0.97377(9) 0.08842(10) 0.10415(9)
H84_16 H 0.9825 0.0918 0.0926
Co5_19 Co 0.869519(11) -0.0000 0.119519(11)
N42_16 N 0.91093(7) 0.11413(7) 0.23473(6)
N44_16 N 0.87273(7) 0.01681(7) 0.14933(7)
N45_16 N 0.92030(6) 0.06052(7) 0.15364(7)
N46_16 N 0.90990(7) 0.06961(7) 0.18807(7)
N47_16 N 0.93970(7) 0.08523(8) 0.17285(7)
N48_16 N 0.97466(7) 0.10040(7) 0.12139(7)
C133_16 C 0.89916(8) 0.08895(8) 0.28122(7)
H85_16 H 0.9060 0.1017 0.2846
C134_16 C 0.90367(9) 0.07155(8) 0.29316(8)
C135_16 C 0.89400(11) 0.05267(9) 0.28806(10)
H86_16 H 0.8966 0.0404 0.2960
C136_16 C 0.88056(12) 0.05240(9) 0.27116(10)
H87_16 H 0.8739 0.0398 0.2671
C137_16 C 0.87690(10) 0.07076(9) 0.26015(10)
H88_16 H 0.8677 0.0704 0.2485
C138_16 C 0.98466(9) 0.14137(9) 0.33518(9)
H89_16 H 0.9947 0.1523 0.3364
C139_16 C 0.97205(10) 0.14056(11) 0.31736(10)
H90_16 H 0.9731 0.1511 0.3070
C140_16 C 0.95823(10) 0.12449(9) 0.31499(10)
H91_16 H 0.9498 0.1235 0.3028
C141_16 C 0.95667(8) 0.10943(8) 0.33094(8)
C142_16 C 0.96935(8) 0.11174(7) 0.34831(8)
H92_16 H 0.9682 0.1017 0.3592
C143_16 C 0.94153(8) 0.09209(8) 0.32962(8)
C144_16 C 0.91730(9) 0.07381(8) 0.31177(8)
C145_16 C 0.92578(9) 0.06447(8) 0.34430(8)
C146_16 C 0.90435(8) 0.03758(7) 0.36275(9)
H93_16 H 0.8956 0.0372 0.3507
C147_16 C 0.92164(9) 0.05122(8) 0.36271(9)
C148_16 C 0.93399(10) 0.05210(9) 0.38072(9)
H94_16 H 0.9457 0.0612 0.3815
C149_16 C 0.92859(11) 0.03937(11) 0.39744(10)
H95_16 H 0.9366 0.0397 0.4100
C150_16 C 0.91158(10) 0.02623(9) 0.39585(9)
H96_16 H 0.9082 0.0175 0.4074
N49_16 N 0.88587(7) 0.08907(7) 0.26527(6)
N50_16 N 0.98319(7) 0.12727(7) 0.35067(7)
N51_16 N 0.93948(7) 0.07970(6) 0.34636(7)
N52_16 N 0.93039(7) 0.09010(7) 0.31193(7)
N53_16 N 0.91477(8) 0.06030(7) 0.32715(7)
N54_16 N 0.89960(7) 0.02534(7) 0.37861(7)
C151_16 C 0.90698(8) 0.14828(8) 0.28121(8)
N55_16 N 0.89569(7) 0.13623(7) 0.27354(6)
S7_16 S 0.92311(3) 0.16525(3) 0.29112(3)
C152_8 C 0.82496(12) 0.25126(9) 0.36991(12)
N56_8 N 0.84250(8) 0.24874(7) 0.37278(7)
S8_8 S 0.80016(4) 0.25491(4) 0.36570(7)
C153_8 C 0.99874(9) 0.38009(12) 0.32496(12)
S9_8 S 0.99509(4) 0.38430(7) 0.30016(4)
C154_16 C 0.89828(8) 0.03121(8) 0.09302(8)
N58_16 N 0.88623(7) 0.02354(6) 0.10431(7)
S10_16 S 0.91525(3) 0.04112(3) 0.07689(3)
Co8_10 Co 0.7500 0.369519(11) 0.630481(11)
Co14_8 Co 0.747806(14) 0.3750 0.3750
Co15_12 Co 0.8750 0.3750 0.247806(14)
Co16_16 Co 0.997806(14) 0.1250 0.1250
Co17_16 Co 0.8750 0.002194(14) 0.3750
N63_16 N 0.83907(7) 0.01527(6) 0.11413(7)
N64_16 N 0.87727(7) 0.14933(7) 0.23319(7)
N68_8 N 0.87139(7) 0.22466(7) 0.39960(7)
N70_8 N 0.90114(7) 0.37494(7) 0.47999(7)
N71_8 N 0.97999(7) 0.40114(7) 0.37494(7)
C119_16 C 0.84302(8) 0.96879(8) 0.14828(8)
Co5_20 Co 0.869519(11) 1.0000 0.119519(11)
N43_16 N 0.85431(7) 0.97646(6) 0.13623(7)
S6_16 S 0.82689(3) 0.95888(3) 0.16525(3)
N62_16 N 0.86413(7) 0.98473(6) 0.08907(7)
N66_16 N 0.89933(7) 0.98319(7) 0.12273(7)
C6_17 C 0.09302(8) 0.21879(8) 0.85172(8)
N2_17 N 0.10431(7) 0.22646(6) 0.86377(7)
S1_17 S 0.07689(3) 0.20888(3) 0.83475(3)
C58_13 C 0.33293(11) 0.38864(12) 0.98240(10)
H37_13 H 0.3341 0.3993 0.9927
C59_13 C 0.31527(12) 0.38786(13) 0.97075(12)
H38_13 H 0.3041 0.3973 0.9734
C60_13 C 0.31355(12) 0.37298(12) 0.95481(13)
H39_13 H 0.3014 0.3722 0.9463
C61_13 C 0.33011(10) 0.35933(10) 0.95178(9)
C62_13 C 0.34741(8) 0.36077(9) 0.96504(8)
H40_13 H 0.3586 0.3511 0.9633
C63_13 C 0.32939(9) 0.34304(10) 0.93567(9)
N23_13 N 0.34440(8) 0.32863(8) 0.93603(7)
C64_13 C 0.26760(10) 0.33293(11) 0.86136(12)
H41_13 H 0.2573 0.3341 0.8507
C65_13 C 0.27925(12) 0.31527(12) 0.86214(13)
H42_13 H 0.2766 0.3041 0.8527
C66_13 C 0.29519(13) 0.31355(12) 0.87702(12)
H43_13 H 0.3037 0.3014 0.8778
C67_13 C 0.29822(9) 0.33011(10) 0.89067(10)
C68_13 C 0.28496(8) 0.34741(8) 0.88923(9)
H44_13 H 0.2867 0.3586 0.8989
C69_13 C 0.31433(9) 0.32939(9) 0.90696(10)
N25_13 N 0.31397(7) 0.34440(8) 0.92137(8)
C70_13 C 0.38864(12) 0.26760(10) 0.91707(11)
H45_13 H 0.3993 0.2573 0.9159
C71_13 C 0.38786(13) 0.27925(12) 0.93473(12)
H46_13 H 0.3973 0.2766 0.9459
C72_13 C 0.37298(12) 0.29519(13) 0.93645(12)
H47_13 H 0.3722 0.3037 0.9486
C73_13 C 0.35933(10) 0.29822(9) 0.91989(10)
C74_13 C 0.36077(9) 0.28496(8) 0.90259(8)
H48_13 H 0.3511 0.2867 0.8914
C75_13 C 0.34304(10) 0.31433(9) 0.92061(9)
N26_13 N 0.37506(7) 0.27001(7) 0.90114(7)
N27_13 N 0.32863(8) 0.31397(7) 0.90560(8)
C95_17 C 0.28122(7) 0.58895(8) 0.89916(8)
H61_17 H 0.2846 0.6017 0.9060
C96_17 C 0.29316(8) 0.57155(8) 0.90367(9)
C97_17 C 0.28806(10) 0.55267(9) 0.89400(11)
H62_17 H 0.2960 0.5404 0.8966
C98_17 C 0.27116(10) 0.55240(9) 0.88056(12)
H63_17 H 0.2671 0.5398 0.8739
C99_17 C 0.26015(10) 0.57076(9) 0.87690(10)
H64_17 H 0.2485 0.5704 0.8677
C100_17 C 0.33518(9) 0.64137(9) 0.98466(9)
H65_17 H 0.3364 0.6523 0.9947
C101_17 C 0.31736(10) 0.64056(11) 0.97205(10)
H66_17 H 0.3070 0.6511 0.9731
C102_17 C 0.31499(10) 0.62449(9) 0.95823(10)
H67_17 H 0.3028 0.6235 0.9498
C103_17 C 0.33094(8) 0.60943(8) 0.95667(8)
C104_17 C 0.34831(8) 0.61174(7) 0.96935(8)
H68_17 H 0.3592 0.6017 0.9682
C105_17 C 0.32962(8) 0.59209(8) 0.94153(8)
C106_17 C 0.31177(8) 0.57381(8) 0.91730(9)
C107_17 C 0.34430(8) 0.56447(8) 0.92578(9)
C108_17 C 0.36275(9) 0.53758(7) 0.90435(8)
H69_17 H 0.3507 0.5372 0.8956
C109_17 C 0.36271(9) 0.55122(8) 0.92164(9)
C110_17 C 0.38072(9) 0.55210(9) 0.93399(10)
H70_17 H 0.3815 0.5612 0.9457
C111_17 C 0.39744(10) 0.53937(11) 0.92859(11)
H71_17 H 0.4100 0.5397 0.9366
C112_17 C 0.39585(9) 0.52623(9) 0.91158(10)
H72_17 H 0.4074 0.5175 0.9082
N35_17 N 0.26527(6) 0.58907(7) 0.88587(7)
N36_17 N 0.35067(7) 0.62727(7) 0.98319(7)
N37_17 N 0.34636(7) 0.57970(6) 0.93948(7)
N38_17 N 0.31193(7) 0.59010(7) 0.93039(7)
N39_17 N 0.32715(7) 0.56030(7) 0.91477(8)
C114_17 C 0.10084(8) 0.21878(7) 0.91105(8)
H73_17 H 0.0940 0.2154 0.8983
C115_17 C 0.09633(9) 0.20684(8) 0.92845(8)
C116_17 C 0.10600(11) 0.21194(10) 0.94733(9)
H74_17 H 0.1034 0.2040 0.9596
C117_17 C 0.11944(12) 0.22884(10) 0.94760(9)
H75_17 H 0.1261 0.2329 0.9602
C118_17 C 0.12310(10) 0.23985(10) 0.92924(9)
H76_17 H 0.1323 0.2515 0.9296
C120_17 C 0.01534(9) 0.16482(9) 0.85863(9)
H77_17 H 0.0053 0.1636 0.8477
C121_17 C 0.02795(10) 0.18264(10) 0.85944(11)
H78_17 H 0.0269 0.1930 0.8489
C122_17 C 0.04177(10) 0.18501(10) 0.87551(9)
H79_17 H 0.0502 0.1972 0.8765
C123_17 C 0.04333(8) 0.16906(8) 0.89057(8)
C124_17 C 0.03065(8) 0.15169(8) 0.88826(7)
H80_17 H 0.0318 0.1408 0.8983
C125_17 C 0.05847(8) 0.17038(8) 0.90791(8)
C126_17 C 0.08270(9) 0.18823(8) 0.92619(8)
C127_17 C 0.07422(9) 0.15570(8) 0.93553(8)
C128_17 C 0.09565(8) 0.13725(9) 0.96242(7)
H81_17 H 0.1044 0.1493 0.9628
C129_17 C 0.07836(9) 0.13729(9) 0.94878(8)
C130_17 C 0.06601(10) 0.11928(9) 0.94790(9)
H82_17 H 0.0543 0.1185 0.9388
C131_17 C 0.07141(11) 0.10256(10) 0.96063(11)
H83_17 H 0.0634 0.0900 0.9603
C132_17 C 0.08842(10) 0.10415(9) 0.97377(9)
H84_17 H 0.0918 0.0926 0.9825
Co5_21 Co 0.0000 0.119519(11) 0.869519(11)
N42_17 N 0.11413(7) 0.23473(6) 0.91093(7)
N44_17 N 0.01681(7) 0.14933(7) 0.87273(7)
N45_17 N 0.06052(7) 0.15364(7) 0.92030(6)
N46_17 N 0.06961(7) 0.18807(7) 0.90990(7)
N47_17 N 0.08523(8) 0.17285(7) 0.93970(7)
N48_17 N 0.10040(7) 0.12139(7) 0.97466(7)
C133_17 C 0.08895(8) 0.28122(7) 0.89916(8)
H85_17 H 0.1017 0.2846 0.9060
C134_17 C 0.07155(8) 0.29316(8) 0.90367(9)
C135_17 C 0.05267(9) 0.28806(10) 0.89400(11)
H86_17 H 0.0404 0.2960 0.8966
C136_17 C 0.05240(9) 0.27116(10) 0.88056(12)
H87_17 H 0.0398 0.2671 0.8739
C137_17 C 0.07076(9) 0.26015(10) 0.87690(10)
H88_17 H 0.0704 0.2485 0.8677
C138_17 C 0.14137(9) 0.33518(9) 0.98466(9)
H89_17 H 0.1523 0.3364 0.9947
C139_17 C 0.14056(11) 0.31736(10) 0.97205(10)
H90_17 H 0.1511 0.3070 0.9731
C140_17 C 0.12449(9) 0.31499(10) 0.95823(10)
H91_17 H 0.1235 0.3028 0.9498
C141_17 C 0.10943(8) 0.33094(8) 0.95667(8)
C142_17 C 0.11174(7) 0.34831(8) 0.96935(8)
H92_17 H 0.1017 0.3592 0.9682
C143_17 C 0.09209(8) 0.32962(8) 0.94153(8)
C144_17 C 0.07381(8) 0.31177(8) 0.91730(9)
C145_17 C 0.06447(8) 0.34430(8) 0.92578(9)
C146_17 C 0.03758(7) 0.36275(9) 0.90435(8)
H93_17 H 0.0372 0.3507 0.8956
C147_17 C 0.05122(8) 0.36271(9) 0.92164(9)
C148_17 C 0.05210(9) 0.38072(9) 0.93399(10)
H94_17 H 0.0612 0.3815 0.9457
C149_17 C 0.03937(11) 0.39744(10) 0.92859(11)
H95_17 H 0.0397 0.4100 0.9366
C150_17 C 0.02623(9) 0.39585(9) 0.91158(10)
H96_17 H 0.0175 0.4074 0.9082
N49_17 N 0.08907(7) 0.26527(6) 0.88587(7)
N50_17 N 0.12727(7) 0.35067(7) 0.98319(7)
N51_17 N 0.07970(6) 0.34636(7) 0.93948(7)
N52_17 N 0.09010(7) 0.31193(7) 0.93039(7)
N53_17 N 0.06030(7) 0.32715(7) 0.91477(8)
N54_17 N 0.02534(7) 0.37861(7) 0.89960(7)
C151_17 C 0.14828(8) 0.28121(8) 0.90698(8)
N55_17 N 0.13623(7) 0.27354(6) 0.89569(7)
S7_17 S 0.16525(3) 0.29112(3) 0.92311(3)
C154_17 C 0.03121(8) 0.09302(8) 0.89828(8)
N58_17 N 0.02354(6) 0.10431(7) 0.88623(7)
S10_17 S 0.04112(3) 0.07689(3) 0.91525(3)
Co15_13 Co 0.3750 0.247806(14) 0.8750
Co16_17 Co 0.1250 0.1250 0.997806(14)
Co17_17 Co 0.002194(14) 0.3750 0.8750
N63_17 N 0.01527(6) 0.11413(7) 0.83907(7)
N64_17 N 0.14933(7) 0.23319(7) 0.87727(7)
C119_17 C 0.96879(8) 0.14828(8) 0.84302(8)
Co5_22 Co 1.0000 0.119519(11) 0.869519(11)
N43_17 N 0.97646(6) 0.13623(7) 0.85431(7)
S6_17 S 0.95888(3) 0.16525(3) 0.82689(3)
N62_17 N 0.98473(6) 0.08907(7) 0.86413(7)
N66_17 N 0.98319(7) 0.12273(7) 0.89933(7)
C95_18 C 0.46878(7) 0.08895(8) 0.35084(8)
H61_18 H 0.4654 0.1017 0.3440
C96_18 C 0.45684(8) 0.07155(8) 0.34633(9)
C97_18 C 0.46194(10) 0.05267(9) 0.35600(11)
H62_18 H 0.4540 0.0404 0.3534
C98_18 C 0.47884(10) 0.05240(9) 0.36944(12)
H63_18 H 0.4829 0.0398 0.3761
C99_18 C 0.48985(10) 0.07076(9) 0.37310(10)
H64_18 H 0.5015 0.0704 0.3823
C100_18 C 0.41482(9) 0.14137(9) 0.26534(9)
H65_18 H 0.4136 0.1523 0.2553
C101_18 C 0.43264(10) 0.14056(11) 0.27795(10)
H66_18 H 0.4430 0.1511 0.2769
C102_18 C 0.43501(10) 0.12449(9) 0.29177(10)
H67_18 H 0.4472 0.1235 0.3002
C103_18 C 0.41906(8) 0.10943(8) 0.29333(8)
C104_18 C 0.40169(8) 0.11174(7) 0.28065(8)
H68_18 H 0.3908 0.1017 0.2818
C105_18 C 0.42038(8) 0.09209(8) 0.30847(8)
C106_18 C 0.43823(8) 0.07381(8) 0.33270(9)
C107_18 C 0.40570(8) 0.06447(8) 0.32422(9)
C108_18 C 0.38725(9) 0.03758(7) 0.34565(8)
H69_18 H 0.3993 0.0372 0.3544
C109_18 C 0.38729(9) 0.05122(8) 0.32836(9)
C110_18 C 0.36928(9) 0.05210(9) 0.31601(10)
H70_18 H 0.3685 0.0612 0.3043
C111_18 C 0.35256(10) 0.03937(11) 0.32141(11)
H71_18 H 0.3400 0.0397 0.3134
C112_18 C 0.35415(9) 0.02623(9) 0.33842(10)
H72_18 H 0.3426 0.0175 0.3418
N35_18 N 0.48473(6) 0.08907(7) 0.36413(7)
N36_18 N 0.39933(7) 0.12727(7) 0.26681(7)
N37_18 N 0.40364(7) 0.07970(6) 0.31052(7)
N38_18 N 0.43807(7) 0.09010(7) 0.31961(7)
N39_18 N 0.42285(7) 0.06030(7) 0.33523(8)
C6_18 C 0.65698(8) 0.71879(8) 0.39828(8)
N2_18 N 0.64569(7) 0.72646(6) 0.38623(7)
S1_18 S 0.67311(3) 0.70888(3) 0.41525(3)
C58_14 C 0.41707(11) 0.88864(12) 0.26760(10)
H37_14 H 0.4159 0.8993 0.2573
C59_14 C 0.43473(12) 0.88786(13) 0.27925(12)
H38_14 H 0.4459 0.8973 0.2766
C60_14 C 0.43645(12) 0.87298(12) 0.29519(13)
H39_14 H 0.4486 0.8722 0.3037
C61_14 C 0.41989(10) 0.85933(10) 0.29822(9)
C62_14 C 0.40259(8) 0.86077(9) 0.28496(8)
H40_14 H 0.3914 0.8511 0.2867
C63_14 C 0.42061(9) 0.84304(10) 0.31433(9)
N23_14 N 0.40560(8) 0.82863(8) 0.31397(7)
C64_14 C 0.48240(10) 0.83293(11) 0.38864(12)
H41_14 H 0.4927 0.8341 0.3993
C65_14 C 0.47075(12) 0.81527(12) 0.38786(13)
H42_14 H 0.4734 0.8041 0.3973
C66_14 C 0.45481(13) 0.81355(12) 0.37298(12)
H43_14 H 0.4463 0.8014 0.3722
C67_14 C 0.45178(9) 0.83011(10) 0.35933(10)
C68_14 C 0.46504(8) 0.84741(8) 0.36077(9)
H44_14 H 0.4633 0.8586 0.3511
C69_14 C 0.43567(9) 0.82939(9) 0.34304(10)
N25_14 N 0.43603(7) 0.84440(8) 0.32863(8)
C70_14 C 0.36136(12) 0.76760(10) 0.33293(11)
H45_14 H 0.3507 0.7573 0.3341
C71_14 C 0.36214(13) 0.77925(12) 0.31527(12)
H46_14 H 0.3527 0.7766 0.3041
C72_14 C 0.37702(12) 0.79519(13) 0.31355(12)
H47_14 H 0.3778 0.8037 0.3014
C73_14 C 0.39067(10) 0.79822(9) 0.33011(10)
C74_14 C 0.38923(9) 0.78496(8) 0.34741(8)
H48_14 H 0.3989 0.7867 0.3586
C75_14 C 0.40696(10) 0.81433(9) 0.32939(9)
N26_14 N 0.37494(7) 0.77001(7) 0.34886(7)
N27_14 N 0.42137(8) 0.81397(7) 0.34440(8)
C114_18 C 0.64916(8) 0.71878(7) 0.33895(8)
H73_18 H 0.6560 0.7154 0.3517
C115_18 C 0.65367(9) 0.70684(8) 0.32155(8)
C116_18 C 0.64400(11) 0.71194(10) 0.30267(9)
H74_18 H 0.6466 0.7040 0.2904
C117_18 C 0.63056(12) 0.72884(10) 0.30240(9)
H75_18 H 0.6239 0.7329 0.2898
C118_18 C 0.62690(10) 0.73985(10) 0.32076(9)
H76_18 H 0.6177 0.7515 0.3204
C119_18 C 0.78121(8) 0.64828(8) 0.40698(8)
C120_18 C 0.73466(9) 0.66482(9) 0.39137(9)
H77_18 H 0.7447 0.6636 0.4023
C121_18 C 0.72205(10) 0.68264(10) 0.39056(11)
H78_18 H 0.7231 0.6930 0.4011
C122_18 C 0.70823(10) 0.68501(10) 0.37449(9)
H79_18 H 0.6998 0.6972 0.3735
C123_18 C 0.70667(8) 0.66906(8) 0.35943(8)
C124_18 C 0.71935(8) 0.65169(8) 0.36174(7)
H80_18 H 0.7182 0.6408 0.3517
C125_18 C 0.69153(8) 0.67038(8) 0.34209(8)
C126_18 C 0.66730(9) 0.68823(8) 0.32381(8)
C127_18 C 0.67578(9) 0.65570(8) 0.31447(8)
C128_18 C 0.65435(8) 0.63725(9) 0.28758(7)
H81_18 H 0.6456 0.6493 0.2872
C129_18 C 0.67164(9) 0.63729(9) 0.30122(8)
C130_18 C 0.68399(10) 0.61928(9) 0.30210(9)
H82_18 H 0.6957 0.6185 0.3112
C131_18 C 0.67859(11) 0.60256(10) 0.28937(11)
H83_18 H 0.6866 0.5900 0.2897
C132_18 C 0.66158(10) 0.60415(9) 0.27623(9)
H84_18 H 0.6582 0.5926 0.2675
Co5_23 Co 0.7500 0.619519(11) 0.380481(11)
N42_18 N 0.63587(7) 0.73473(6) 0.33907(7)
N43_18 N 0.77354(6) 0.63623(7) 0.39569(7)
N44_18 N 0.73319(7) 0.64933(7) 0.37727(7)
N45_18 N 0.68948(7) 0.65364(7) 0.32970(6)
N46_18 N 0.68039(7) 0.68807(7) 0.34010(7)
N47_18 N 0.66477(8) 0.67285(7) 0.31030(7)
N48_18 N 0.64960(7) 0.62139(7) 0.27534(7)
S6_18 S 0.79112(3) 0.66525(3) 0.42311(3)
C133_18 C 0.66105(8) 0.78122(7) 0.35084(8)
H85_18 H 0.6483 0.7846 0.3440
C134_18 C 0.67845(8) 0.79316(8) 0.34633(9)
C135_18 C 0.69733(9) 0.78806(10) 0.35600(11)
H86_18 H 0.7096 0.7960 0.3534
C136_18 C 0.69760(9) 0.77116(10) 0.36944(12)
H87_18 H 0.7102 0.7671 0.3761
C137_18 C 0.67924(9) 0.76015(10) 0.37310(10)
H88_18 H 0.6796 0.7485 0.3823
C138_18 C 0.60863(9) 0.83518(9) 0.26534(9)
H89_18 H 0.5977 0.8364 0.2553
C139_18 C 0.60944(11) 0.81736(10) 0.27795(10)
H90_18 H 0.5989 0.8070 0.2769
C140_18 C 0.62551(9) 0.81499(10) 0.29177(10)
H91_18 H 0.6265 0.8028 0.3002
C141_18 C 0.64057(8) 0.83094(8) 0.29333(8)
C142_18 C 0.63826(7) 0.84831(8) 0.28065(8)
H92_18 H 0.6483 0.8592 0.2818
C143_18 C 0.65791(8) 0.82962(8) 0.30847(8)
C144_18 C 0.67619(8) 0.81177(8) 0.33270(9)
C145_18 C 0.68553(8) 0.84430(8) 0.32422(9)
C146_18 C 0.71242(7) 0.86275(9) 0.34565(8)
H93_18 H 0.7128 0.8507 0.3544
C147_18 C 0.69878(8) 0.86271(9) 0.32836(9)
C148_18 C 0.69790(9) 0.88072(9) 0.31601(10)
H94_18 H 0.6888 0.8815 0.3043
C149_18 C 0.71063(11) 0.89744(10) 0.32141(11)
H95_18 H 0.7103 0.9100 0.3134
C150_18 C 0.72377(9) 0.89585(9) 0.33842(10)
H96_18 H 0.7325 0.9074 0.3418
N49_18 N 0.66093(7) 0.76527(6) 0.36413(7)
N50_18 N 0.62273(7) 0.85067(7) 0.26681(7)
N51_18 N 0.67030(6) 0.84636(7) 0.31052(7)
N52_18 N 0.65990(7) 0.81193(7) 0.31961(7)
N53_18 N 0.68970(7) 0.82715(7) 0.33523(8)
N54_18 N 0.72466(7) 0.87861(7) 0.35040(7)
C151_18 C 0.60172(8) 0.78121(8) 0.34302(8)
N55_18 N 0.61377(7) 0.77354(6) 0.35431(7)
S7_18 S 0.58475(3) 0.79112(3) 0.32689(3)
C154_18 C 0.71879(8) 0.59302(8) 0.35172(8)
N58_18 N 0.72646(6) 0.60431(7) 0.36377(7)
S10_18 S 0.70888(3) 0.57689(3) 0.33475(3)
Co15_14 Co 0.3750 0.747806(14) 0.3750
Co16_18 Co 0.6250 0.6250 0.252194(14)
Co17_18 Co 0.747806(14) 0.8750 0.3750
N62_18 N 0.76527(6) 0.58907(7) 0.38587(7)
N63_18 N 0.73473(6) 0.61413(7) 0.41093(7)
N64_18 N 0.60067(7) 0.73319(7) 0.37273(7)
N66_18 N 0.76681(7) 0.62273(7) 0.35067(7)
C6_19 C 0.15698(8) 0.53121(8) 0.35172(8)
N2_19 N 0.14569(7) 0.52354(6) 0.36377(7)
S1_19 S 0.17311(3) 0.54112(3) 0.33475(3)
H64_19 H 0.0015 0.1796 0.3677
C114_19 C 0.14916(8) 0.53122(7) 0.41105(8)
H73_19 H 0.1560 0.5346 0.3983
C115_19 C 0.15367(9) 0.54316(8) 0.42845(8)
C116_19 C 0.14400(11) 0.53806(10) 0.44733(9)
H74_19 H 0.1466 0.5460 0.4596
C117_19 C 0.13056(12) 0.52116(10) 0.44760(9)
H75_19 H 0.1239 0.5171 0.4602
C118_19 C 0.12690(10) 0.51015(10) 0.42924(9)
H76_19 H 0.1177 0.4985 0.4296
C119_19 C 0.28121(8) 0.60172(8) 0.34302(8)
C120_19 C 0.23466(9) 0.58518(9) 0.35863(9)
H77_19 H 0.2447 0.5864 0.3477
C121_19 C 0.22205(10) 0.56736(10) 0.35944(11)
H78_19 H 0.2231 0.5570 0.3489
C122_19 C 0.20823(10) 0.56499(10) 0.37551(9)
H79_19 H 0.1998 0.5528 0.3765
C123_19 C 0.20667(8) 0.58094(8) 0.39057(8)
C124_19 C 0.21935(8) 0.59831(8) 0.38826(7)
H80_19 H 0.2182 0.6092 0.3983
C125_19 C 0.19153(8) 0.57962(8) 0.40791(8)
C126_19 C 0.16730(9) 0.56177(8) 0.42619(8)
C127_19 C 0.17578(9) 0.59430(8) 0.43553(8)
C128_19 C 0.15435(8) 0.61275(9) 0.46242(7)
H81_19 H 0.1456 0.6007 0.4628
C129_19 C 0.17164(9) 0.61271(9) 0.44878(8)
C130_19 C 0.18399(10) 0.63072(9) 0.44790(9)
H82_19 H 0.1957 0.6315 0.4388
C131_19 C 0.17859(11) 0.64744(10) 0.46063(11)
H83_19 H 0.1866 0.6600 0.4603
C132_19 C 0.16158(10) 0.64585(9) 0.47377(9)
H84_19 H 0.1582 0.6574 0.4825
Co5_24 Co 0.2500 0.630481(11) 0.369519(11)
N42_19 N 0.13587(7) 0.51527(6) 0.41093(7)
N43_19 N 0.27354(6) 0.61377(7) 0.35431(7)
N44_19 N 0.23319(7) 0.60067(7) 0.37273(7)
N45_19 N 0.18948(7) 0.59636(7) 0.42030(6)
N46_19 N 0.18039(7) 0.56193(7) 0.40990(7)
N47_19 N 0.16477(8) 0.57715(7) 0.43970(7)
N48_19 N 0.14960(7) 0.62861(7) 0.47466(7)
S6_19 S 0.29112(3) 0.58475(3) 0.32689(3)
C133_19 C 0.16105(8) 0.46878(7) 0.39916(8)
H85_19 H 0.1483 0.4654 0.4060
C134_19 C 0.17845(8) 0.45684(8) 0.40367(9)
C135_19 C 0.19733(9) 0.46194(10) 0.39400(11)
H86_19 H 0.2096 0.4540 0.3966
C136_19 C 0.19760(9) 0.47884(10) 0.38056(12)
H87_19 H 0.2102 0.4829 0.3739
C137_19 C 0.17924(9) 0.48985(10) 0.37690(10)
H88_19 H 0.1796 0.5015 0.3677
C138_19 C 0.10863(9) 0.41482(9) 0.48466(9)
H89_19 H 0.0977 0.4136 0.4947
C139_19 C 0.10944(11) 0.43264(10) 0.47205(10)
H90_19 H 0.0989 0.4430 0.4731
C140_19 C 0.12551(9) 0.43501(10) 0.45823(10)
H91_19 H 0.1265 0.4472 0.4498
C141_19 C 0.14057(8) 0.41906(8) 0.45667(8)
C142_19 C 0.13826(7) 0.40169(8) 0.46935(8)
H92_19 H 0.1483 0.3908 0.4682
C143_19 C 0.15791(8) 0.42038(8) 0.44153(8)
C144_19 C 0.17619(8) 0.43823(8) 0.41730(9)
C145_19 C 0.18553(8) 0.40570(8) 0.42578(9)
C146_19 C 0.21242(7) 0.38725(9) 0.40435(8)
H93_19 H 0.2128 0.3993 0.3956
C147_19 C 0.19878(8) 0.38729(9) 0.42164(9)
C148_19 C 0.19790(9) 0.36928(9) 0.43399(10)
H94_19 H 0.1888 0.3685 0.4457
C149_19 C 0.21063(11) 0.35256(10) 0.42859(11)
H95_19 H 0.2103 0.3400 0.4366
C150_19 C 0.22377(9) 0.35415(9) 0.41158(10)
H96_19 H 0.2325 0.3426 0.4082
N49_19 N 0.16093(7) 0.48473(6) 0.38587(7)
N50_19 N 0.12273(7) 0.39933(7) 0.48319(7)
N51_19 N 0.17030(6) 0.40364(7) 0.43948(7)
N52_19 N 0.15990(7) 0.43807(7) 0.43039(7)
N53_19 N 0.18970(7) 0.42285(7) 0.41477(8)
N54_19 N 0.22466(7) 0.37139(7) 0.39960(7)
C151_19 C 0.10172(8) 0.46879(8) 0.40698(8)
N55_19 N 0.11377(7) 0.47646(6) 0.39569(7)
S7_19 S 0.08475(3) 0.45888(3) 0.42311(3)
C154_19 C 0.21879(8) 0.65698(8) 0.39828(8)
N58_19 N 0.22646(6) 0.64569(7) 0.38623(7)
S10_19 S 0.20888(3) 0.67311(3) 0.41525(3)
Co16_19 Co 0.1250 0.6250 0.497806(14)
Co17_19 Co 0.247806(14) 0.3750 0.3750
N62_19 N 0.26527(6) 0.66093(7) 0.36413(7)
N63_19 N 0.23473(6) 0.63587(7) 0.33907(7)
N64_19 N 0.10067(7) 0.51681(7) 0.37727(7)
N66_19 N 0.26681(7) 0.62727(7) 0.39933(7)
C58_15 C 0.91707(11) 0.36136(12) 0.48240(10)
H37_15 H 0.9159 0.3507 0.4927
C59_15 C 0.93473(12) 0.36214(13) 0.47075(12)
H38_15 H 0.9459 0.3527 0.4734
C60_15 C 0.93645(12) 0.37702(12) 0.45481(13)
H39_15 H 0.9486 0.3778 0.4463
C61_15 C 0.91989(10) 0.39067(10) 0.45178(9)
C62_15 C 0.90259(8) 0.38923(9) 0.46504(8)
H40_15 H 0.8914 0.3989 0.4633
C63_15 C 0.92061(9) 0.40696(10) 0.43567(9)
N23_15 N 0.90560(8) 0.42137(8) 0.43603(7)
C64_15 C 0.98240(10) 0.41707(11) 0.36136(12)
H41_15 H 0.9927 0.4159 0.3507
C65_15 C 0.97075(12) 0.43473(12) 0.36214(13)
H42_15 H 0.9734 0.4459 0.3527
C66_15 C 0.95481(13) 0.43645(12) 0.37702(12)
H43_15 H 0.9463 0.4486 0.3778
C67_15 C 0.95178(9) 0.41989(10) 0.39067(10)
C68_15 C 0.96504(8) 0.40259(8) 0.38923(9)
H44_15 H 0.9633 0.3914 0.3989
C69_15 C 0.93567(9) 0.42061(9) 0.40696(10)
N25_15 N 0.93603(7) 0.40560(8) 0.42137(8)
C70_15 C 0.86136(12) 0.48240(10) 0.41707(11)
H45_15 H 0.8507 0.4927 0.4159
C71_15 C 0.86214(13) 0.47075(12) 0.43473(12)
H46_15 H 0.8527 0.4734 0.4459
C72_15 C 0.87702(12) 0.45481(13) 0.43645(12)
H47_15 H 0.8778 0.4463 0.4486
C73_15 C 0.89067(10) 0.45178(9) 0.41989(10)
C74_15 C 0.88923(9) 0.46504(8) 0.40259(8)
H48_15 H 0.8989 0.4633 0.3914
C75_15 C 0.90696(10) 0.43567(9) 0.42061(9)
N26_15 N 0.87494(7) 0.47999(7) 0.40114(7)
N27_15 N 0.92137(8) 0.43603(7) 0.40560(8)
C95_19 C 0.96878(7) 0.16105(8) 0.39916(8)
H61_19 H 0.9654 0.1483 0.4060
C96_19 C 0.95684(8) 0.17845(8) 0.40367(9)
C97_19 C 0.96194(10) 0.19733(9) 0.39400(11)
H62_19 H 0.9540 0.2096 0.3966
C98_19 C 0.97884(10) 0.19760(9) 0.38056(12)
H63_19 H 0.9829 0.2102 0.3739
C99_19 C 0.98985(10) 0.17924(9) 0.37690(10)
C100_19 C 0.91482(9) 0.10863(9) 0.48466(9)
H65_19 H 0.9136 0.0977 0.4947
C101_19 C 0.93264(10) 0.10944(11) 0.47205(10)
H66_19 H 0.9430 0.0989 0.4731
C102_19 C 0.93501(10) 0.12551(9) 0.45823(10)
H67_19 H 0.9472 0.1265 0.4498
C103_19 C 0.91906(8) 0.14057(8) 0.45667(8)
C104_19 C 0.90169(8) 0.13826(7) 0.46935(8)
H68_19 H 0.8908 0.1483 0.4682
C105_19 C 0.92038(8) 0.15791(8) 0.44153(8)
C106_19 C 0.93823(8) 0.17619(8) 0.41730(9)
C107_19 C 0.90570(8) 0.18553(8) 0.42578(9)
C108_19 C 0.88725(9) 0.21242(7) 0.40435(8)
H69_19 H 0.8993 0.2128 0.3956
C109_19 C 0.88729(9) 0.19878(8) 0.42164(9)
C110_19 C 0.86928(9) 0.19790(9) 0.43399(10)
H70_19 H 0.8685 0.1888 0.4457
C111_19 C 0.85256(10) 0.21063(11) 0.42859(11)
H71_19 H 0.8400 0.2103 0.4366
C112_19 C 0.85415(9) 0.22377(9) 0.41158(10)
H72_19 H 0.8426 0.2325 0.4082
N35_19 N 0.98473(6) 0.16093(7) 0.38587(7)
N36_19 N 0.89933(7) 0.12273(7) 0.48319(7)
N37_19 N 0.90364(7) 0.17030(6) 0.43948(7)
N38_19 N 0.93807(7) 0.15990(7) 0.43039(7)
N39_19 N 0.92285(7) 0.18970(7) 0.41477(8)
Co15_15 Co 0.8750 0.502194(14) 0.3750
C6_20 C 0.59302(8) 0.03121(8) 0.89828(8)
N2_20 N 0.60431(7) 0.02354(6) 0.88623(7)
S1_20 S 0.57689(3) 0.04112(3) 0.91525(3)
C114_20 C 0.60084(8) 0.03122(7) 0.83895(8)
H73_20 H 0.5940 0.0346 0.8517
C115_20 C 0.59633(9) 0.04316(8) 0.82155(8)
C116_20 C 0.60600(11) 0.03806(10) 0.80267(9)
H74_20 H 0.6034 0.0460 0.7904
C117_20 C 0.61944(12) 0.02116(10) 0.80240(9)
H75_20 H 0.6261 0.0171 0.7898
C118_20 C 0.62310(10) 0.01015(10) 0.82076(9)
C119_20 C 0.46879(8) 0.10172(8) 0.90698(8)
C120_20 C 0.51534(9) 0.08518(9) 0.89137(9)
H77_20 H 0.5053 0.0864 0.9023
C121_20 C 0.52795(10) 0.06736(10) 0.89056(11)
H78_20 H 0.5269 0.0570 0.9011
C122_20 C 0.54177(10) 0.06499(10) 0.87449(9)
H79_20 H 0.5502 0.0528 0.8735
C123_20 C 0.54333(8) 0.08094(8) 0.85943(8)
C124_20 C 0.53065(8) 0.09831(8) 0.86174(7)
H80_20 H 0.5318 0.1092 0.8517
C125_20 C 0.55847(8) 0.07962(8) 0.84209(8)
C126_20 C 0.58270(9) 0.06177(8) 0.82381(8)
C127_20 C 0.57422(9) 0.09430(8) 0.81447(8)
C128_20 C 0.59565(8) 0.11275(9) 0.78758(7)
H81_20 H 0.6044 0.1007 0.7872
C129_20 C 0.57836(9) 0.11271(9) 0.80122(8)
C130_20 C 0.56601(10) 0.13072(9) 0.80210(9)
H82_20 H 0.5543 0.1315 0.8112
C131_20 C 0.57141(11) 0.14744(10) 0.78937(11)
H83_20 H 0.5634 0.1600 0.7897
C132_20 C 0.58842(10) 0.14585(9) 0.77623(9)
H84_20 H 0.5918 0.1574 0.7675
Co5_25 Co 0.5000 0.130481(11) 0.880481(11)
N42_20 N 0.61413(7) 0.01527(6) 0.83907(7)
N43_20 N 0.47646(6) 0.11377(7) 0.89569(7)
N44_20 N 0.51681(7) 0.10067(7) 0.87727(7)
N45_20 N 0.56052(7) 0.09636(7) 0.82970(6)
N46_20 N 0.56961(7) 0.06193(7) 0.84010(7)
N47_20 N 0.58523(8) 0.07715(7) 0.81030(7)
N48_20 N 0.60040(7) 0.12861(7) 0.77534(7)
S6_20 S 0.45888(3) 0.08475(3) 0.92311(3)
H88_20 H 0.5704 0.0015 0.8823
C154_20 C 0.53121(8) 0.15698(8) 0.85172(8)
N58_20 N 0.52354(6) 0.14569(7) 0.86377(7)
S10_20 S 0.54112(3) 0.17311(3) 0.83475(3)
Co15_16 Co 0.8750 0.002194(14) 0.8750
Co16_20 Co 0.6250 0.1250 0.752194(14)
N62_20 N 0.48473(6) 0.16093(7) 0.88587(7)
N63_20 N 0.51527(6) 0.13587(7) 0.91093(7)
N64_20 N 0.64933(7) 0.01681(7) 0.87273(7)
N66_20 N 0.48319(7) 0.12727(7) 0.85067(7)
C58_16 C 0.83293(11) 0.86136(12) 0.76760(10)
H37_16 H 0.8341 0.8507 0.7573
C59_16 C 0.81527(12) 0.86214(13) 0.77925(12)
H38_16 H 0.8041 0.8527 0.7766
C60_16 C 0.81355(12) 0.87702(12) 0.79519(13)
H39_16 H 0.8014 0.8778 0.8037
C61_16 C 0.83011(10) 0.89067(10) 0.79822(9)
C62_16 C 0.84741(8) 0.88923(9) 0.78496(8)
H40_16 H 0.8586 0.8989 0.7867
C63_16 C 0.82939(9) 0.90696(10) 0.81433(9)
N23_16 N 0.84440(8) 0.92137(8) 0.81397(7)
C64_16 C 0.76760(10) 0.91707(11) 0.88864(12)
H41_16 H 0.7573 0.9159 0.8993
C65_16 C 0.77925(12) 0.93473(12) 0.88786(13)
H42_16 H 0.7766 0.9459 0.8973
C66_16 C 0.79519(13) 0.93645(12) 0.87298(12)
H43_16 H 0.8037 0.9486 0.8722
C67_16 C 0.79822(9) 0.91989(10) 0.85933(10)
C68_16 C 0.78496(8) 0.90259(8) 0.86077(9)
H44_16 H 0.7867 0.8914 0.8511
C69_16 C 0.81433(9) 0.92061(9) 0.84304(10)
N25_16 N 0.81397(7) 0.90560(8) 0.82863(8)
C70_16 C 0.88864(12) 0.98240(10) 0.83293(11)
H45_16 H 0.8993 0.9927 0.8341
C71_16 C 0.88786(13) 0.97075(12) 0.81527(12)
H46_16 H 0.8973 0.9734 0.8041
C72_16 C 0.87298(12) 0.95481(13) 0.81355(12)
H47_16 H 0.8722 0.9463 0.8014
C73_16 C 0.85933(10) 0.95178(9) 0.83011(10)
C74_16 C 0.86077(9) 0.96504(8) 0.84741(8)
H48_16 H 0.8511 0.9633 0.8586
C75_16 C 0.84304(10) 0.93567(9) 0.82939(9)
N26_16 N 0.87506(7) 0.97999(7) 0.84886(7)
N27_16 N 0.82863(8) 0.93603(7) 0.84440(8)
C95_20 C 0.78122(7) 0.66105(8) 0.85084(8)
H61_20 H 0.7846 0.6483 0.8440
C96_20 C 0.79316(8) 0.67845(8) 0.84633(9)
C97_20 C 0.78806(10) 0.69733(9) 0.85600(11)
H62_20 H 0.7960 0.7096 0.8534
C98_20 C 0.77116(10) 0.69760(9) 0.86944(12)
H63_20 H 0.7671 0.7102 0.8761
C99_20 C 0.76015(10) 0.67924(9) 0.87310(10)
H64_20 H 0.7485 0.6796 0.8823
C100_20 C 0.83518(9) 0.60863(9) 0.76534(9)
H65_20 H 0.8364 0.5977 0.7553
C101_20 C 0.81736(10) 0.60944(11) 0.77795(10)
H66_20 H 0.8070 0.5989 0.7769
C102_20 C 0.81499(10) 0.62551(9) 0.79177(10)
H67_20 H 0.8028 0.6265 0.8002
C103_20 C 0.83094(8) 0.64057(8) 0.79333(8)
C104_20 C 0.84831(8) 0.63826(7) 0.78065(8)
H68_20 H 0.8592 0.6483 0.7818
C105_20 C 0.82962(8) 0.65791(8) 0.80847(8)
C106_20 C 0.81177(8) 0.67619(8) 0.83270(9)
C107_20 C 0.84430(8) 0.68553(8) 0.82422(9)
C108_20 C 0.86275(9) 0.71242(7) 0.84565(8)
H69_20 H 0.8507 0.7128 0.8544
C109_20 C 0.86271(9) 0.69878(8) 0.82836(9)
C110_20 C 0.88072(9) 0.69790(9) 0.81601(10)
H70_20 H 0.8815 0.6888 0.8043
C111_20 C 0.89744(10) 0.71063(11) 0.82141(11)
H71_20 H 0.9100 0.7103 0.8134
C112_20 C 0.89585(9) 0.72377(9) 0.83842(10)
H72_20 H 0.9074 0.7325 0.8418
N35_20 N 0.76527(6) 0.66093(7) 0.86413(7)
N36_20 N 0.85067(7) 0.62273(7) 0.76681(7)
N37_20 N 0.84636(7) 0.67030(6) 0.81052(7)
N38_20 N 0.81193(7) 0.65990(7) 0.81961(7)
N39_20 N 0.82715(7) 0.68970(7) 0.83523(8)
H76_20 H 0.6323 0.9985 0.8204
C133_20 C 0.58895(8) 0.96878(7) 0.85084(8)
H85_20 H 0.6017 0.9654 0.8440
C134_20 C 0.57155(8) 0.95684(8) 0.84633(9)
C135_20 C 0.55267(9) 0.96194(10) 0.85600(11)
H86_20 H 0.5404 0.9540 0.8534
C136_20 C 0.55240(9) 0.97884(10) 0.86944(12)
H87_20 H 0.5398 0.9829 0.8761
C137_20 C 0.57076(9) 0.98985(10) 0.87310(10)
C138_20 C 0.64137(9) 0.91482(9) 0.76534(9)
H89_20 H 0.6523 0.9136 0.7553
C139_20 C 0.64056(11) 0.93264(10) 0.77795(10)
H90_20 H 0.6511 0.9430 0.7769
C140_20 C 0.62449(9) 0.93501(10) 0.79177(10)
H91_20 H 0.6235 0.9472 0.8002
C141_20 C 0.60943(8) 0.91906(8) 0.79333(8)
C142_20 C 0.61174(7) 0.90169(8) 0.78065(8)
H92_20 H 0.6017 0.8908 0.7818
C143_20 C 0.59209(8) 0.92038(8) 0.80847(8)
C144_20 C 0.57381(8) 0.93823(8) 0.83270(9)
C145_20 C 0.56447(8) 0.90570(8) 0.82422(9)
C146_20 C 0.53758(7) 0.88725(9) 0.84565(8)
H93_20 H 0.5372 0.8993 0.8544
C147_20 C 0.55122(8) 0.88729(9) 0.82836(9)
C148_20 C 0.55210(9) 0.86928(9) 0.81601(10)
H94_20 H 0.5612 0.8685 0.8043
C149_20 C 0.53937(11) 0.85256(10) 0.82141(11)
H95_20 H 0.5397 0.8400 0.8134
C150_20 C 0.52623(9) 0.85415(9) 0.83842(10)
H96_20 H 0.5175 0.8426 0.8418
N49_20 N 0.58907(7) 0.98473(6) 0.86413(7)
N50_20 N 0.62727(7) 0.89933(7) 0.76681(7)
N51_20 N 0.57970(6) 0.90364(7) 0.81052(7)
N52_20 N 0.59010(7) 0.93807(7) 0.81961(7)
N53_20 N 0.56030(7) 0.92285(7) 0.83523(8)
N54_20 N 0.52534(7) 0.87139(7) 0.85040(7)
C151_20 C 0.64828(8) 0.96879(8) 0.84302(8)
N55_20 N 0.63623(7) 0.97646(6) 0.85431(7)
S7_20 S 0.66525(3) 0.95888(3) 0.82689(3)
Co17_20 Co 0.502194(14) 0.8750 0.8750
C95_21 C 0.08895(8) 0.35084(8) 0.46878(7)
H61_21 H 0.1017 0.3440 0.4654
C96_21 C 0.07155(8) 0.34633(9) 0.45684(8)
C97_21 C 0.05267(9) 0.35600(11) 0.46194(10)
H62_21 H 0.0404 0.3534 0.4540
C98_21 C 0.05240(9) 0.36944(12) 0.47884(10)
H63_21 H 0.0398 0.3761 0.4829
C99_21 C 0.07076(9) 0.37310(10) 0.48985(10)
H64_21 H 0.0704 0.3823 0.5015
C100_21 C 0.14137(9) 0.26534(9) 0.41482(9)
H65_21 H 0.1523 0.2553 0.4136
C101_21 C 0.14056(11) 0.27795(10) 0.43264(10)
H66_21 H 0.1511 0.2769 0.4430
C102_21 C 0.12449(9) 0.29177(10) 0.43501(10)
H67_21 H 0.1235 0.3002 0.4472
C103_21 C 0.10943(8) 0.29333(8) 0.41906(8)
C104_21 C 0.11174(7) 0.28065(8) 0.40169(8)
H68_21 H 0.1017 0.2818 0.3908
C105_21 C 0.09209(8) 0.30847(8) 0.42038(8)
C106_21 C 0.07381(8) 0.33270(9) 0.43823(8)
C107_21 C 0.06447(8) 0.32422(9) 0.40570(8)
C108_21 C 0.03758(7) 0.34565(8) 0.38725(9)
H69_21 H 0.0372 0.3544 0.3993
C109_21 C 0.05122(8) 0.32836(9) 0.38729(9)
C110_21 C 0.05210(9) 0.31601(10) 0.36928(9)
H70_21 H 0.0612 0.3043 0.3685
C111_21 C 0.03937(11) 0.32141(11) 0.35256(10)
H71_21 H 0.0397 0.3134 0.3400
C112_21 C 0.02623(9) 0.33842(10) 0.35415(9)
H72_21 H 0.0175 0.3418 0.3426
N35_21 N 0.08907(7) 0.36413(7) 0.48473(6)
N36_21 N 0.12727(7) 0.26681(7) 0.39933(7)
N37_21 N 0.07970(6) 0.31052(7) 0.40364(7)
N38_21 N 0.09010(7) 0.31961(7) 0.43807(7)
N39_21 N 0.06030(7) 0.33523(8) 0.42285(7)
C6_21 C 0.71879(8) 0.39828(8) 0.65698(8)
N2_21 N 0.72646(6) 0.38623(7) 0.64569(7)
S1_21 S 0.70888(3) 0.41525(3) 0.67311(3)
C114_21 C 0.71878(7) 0.33895(8) 0.64916(8)
H73_21 H 0.7154 0.3517 0.6560
C115_21 C 0.70684(8) 0.32155(8) 0.65367(9)
C116_21 C 0.71194(10) 0.30267(9) 0.64400(11)
H74_21 H 0.7040 0.2904 0.6466
C117_21 C 0.72884(10) 0.30240(9) 0.63056(12)
H75_21 H 0.7329 0.2898 0.6239
C118_21 C 0.73985(10) 0.32076(9) 0.62690(10)
H76_21 H 0.7515 0.3204 0.6177
C119_21 C 0.64828(8) 0.40698(8) 0.78121(8)
C120_21 C 0.66482(9) 0.39137(9) 0.73466(9)
H77_21 H 0.6636 0.4023 0.7447
C121_21 C 0.68264(10) 0.39056(11) 0.72205(10)
H78_21 H 0.6930 0.4011 0.7231
C122_21 C 0.68501(10) 0.37449(9) 0.70823(10)
H79_21 H 0.6972 0.3735 0.6998
C123_21 C 0.66906(8) 0.35943(8) 0.70667(8)
C124_21 C 0.65169(8) 0.36174(7) 0.71935(8)
H80_21 H 0.6408 0.3517 0.7182
C125_21 C 0.67038(8) 0.34209(8) 0.69153(8)
C126_21 C 0.68823(8) 0.32381(8) 0.66730(9)
C127_21 C 0.65570(8) 0.31447(8) 0.67578(9)
C128_21 C 0.63725(9) 0.28758(7) 0.65435(8)
H81_21 H 0.6493 0.2872 0.6456
C129_21 C 0.63729(9) 0.30122(8) 0.67164(9)
C130_21 C 0.61928(9) 0.30210(9) 0.68399(10)
H82_21 H 0.6185 0.3112 0.6957
C131_21 C 0.60256(10) 0.28937(11) 0.67859(11)
H83_21 H 0.5900 0.2897 0.6866
C132_21 C 0.60415(9) 0.27623(9) 0.66158(10)
H84_21 H 0.5926 0.2675 0.6582
Co5_26 Co 0.619519(11) 0.380481(11) 0.7500
N42_21 N 0.73473(6) 0.33907(7) 0.63587(7)
N43_21 N 0.63623(7) 0.39569(7) 0.77354(6)
N44_21 N 0.64933(7) 0.37727(7) 0.73319(7)
N45_21 N 0.65364(7) 0.32970(6) 0.68948(7)
N46_21 N 0.68807(7) 0.34010(7) 0.68039(7)
N47_21 N 0.67285(7) 0.31030(7) 0.66477(8)
N48_21 N 0.62139(7) 0.27534(7) 0.64960(7)
S6_21 S 0.66525(3) 0.42311(3) 0.79112(3)
C133_21 C 0.78122(7) 0.35084(8) 0.66105(8)
H85_21 H 0.7846 0.3440 0.6483
C134_21 C 0.79316(8) 0.34633(9) 0.67845(8)
C135_21 C 0.78806(10) 0.35600(11) 0.69733(9)
H86_21 H 0.7960 0.3534 0.7096
C136_21 C 0.77116(10) 0.36944(12) 0.69760(9)
H87_21 H 0.7671 0.3761 0.7102
C137_21 C 0.76015(10) 0.37310(10) 0.67924(9)
H88_21 H 0.7485 0.3823 0.6796
C138_21 C 0.83518(9) 0.26534(9) 0.60863(9)
H89_21 H 0.8364 0.2553 0.5977
C139_21 C 0.81736(10) 0.27795(10) 0.60944(11)
H90_21 H 0.8070 0.2769 0.5989
C140_21 C 0.81499(10) 0.29177(10) 0.62551(9)
H91_21 H 0.8028 0.3002 0.6265
C141_21 C 0.83094(8) 0.29333(8) 0.64057(8)
C142_21 C 0.84831(8) 0.28065(8) 0.63826(7)
H92_21 H 0.8592 0.2818 0.6483
C143_21 C 0.82962(8) 0.30847(8) 0.65791(8)
C144_21 C 0.81177(8) 0.33270(9) 0.67619(8)
C145_21 C 0.84430(8) 0.32422(9) 0.68553(8)
C146_21 C 0.86275(9) 0.34565(8) 0.71242(7)
H93_21 H 0.8507 0.3544 0.7128
C147_21 C 0.86271(9) 0.32836(9) 0.69878(8)
C148_21 C 0.88072(9) 0.31601(10) 0.69790(9)
H94_21 H 0.8815 0.3043 0.6888
C149_21 C 0.89744(10) 0.32141(11) 0.71063(11)
H95_21 H 0.9100 0.3134 0.7103
C150_21 C 0.89585(9) 0.33842(10) 0.72377(9)
H96_21 H 0.9074 0.3418 0.7325
N49_21 N 0.76527(6) 0.36413(7) 0.66093(7)
N50_21 N 0.85067(7) 0.26681(7) 0.62273(7)
N51_21 N 0.84636(7) 0.31052(7) 0.67030(6)
N52_21 N 0.81193(7) 0.31961(7) 0.65990(7)
N53_21 N 0.82715(7) 0.33523(8) 0.68970(7)
N54_21 N 0.87861(7) 0.35040(7) 0.72466(7)
C151_21 C 0.78121(8) 0.34302(8) 0.60172(8)
N55_21 N 0.77354(6) 0.35431(7) 0.61377(7)
S7_21 S 0.79112(3) 0.32689(3) 0.58475(3)
C154_21 C 0.59302(8) 0.35172(8) 0.71879(8)
N58_21 N 0.60431(7) 0.36377(7) 0.72646(6)
S10_21 S 0.57689(3) 0.33475(3) 0.70888(3)
Co16_21 Co 0.6250 0.252194(14) 0.6250
Co17_21 Co 0.8750 0.3750 0.747806(14)
N62_21 N 0.58907(7) 0.38587(7) 0.76527(6)
N63_21 N 0.61413(7) 0.41093(7) 0.73473(6)
N64_21 N 0.73319(7) 0.37273(7) 0.60067(7)
N66_21 N 0.62273(7) 0.35067(7) 0.76681(7)
C6_22 C 0.21879(8) 0.85172(8) 0.09302(8)
N2_22 N 0.22646(6) 0.86377(7) 0.10431(7)
S1_22 S 0.20888(3) 0.83475(3) 0.07689(3)
C95_22 C 0.58895(8) 0.89916(8) 0.28122(7)
H61_22 H 0.6017 0.9060 0.2846
C96_22 C 0.57155(8) 0.90367(9) 0.29316(8)
C97_22 C 0.55267(9) 0.89400(11) 0.28806(10)
H62_22 H 0.5404 0.8966 0.2960
C98_22 C 0.55240(9) 0.88056(12) 0.27116(10)
H63_22 H 0.5398 0.8739 0.2671
C99_22 C 0.57076(9) 0.87690(10) 0.26015(10)
H64_22 H 0.5704 0.8677 0.2485
C100_22 C 0.64137(9) 0.98466(9) 0.33518(9)
H65_22 H 0.6523 0.9947 0.3364
C101_22 C 0.64056(11) 0.97205(10) 0.31736(10)
H66_22 H 0.6511 0.9731 0.3070
C102_22 C 0.62449(9) 0.95823(10) 0.31499(10)
H67_22 H 0.6235 0.9498 0.3028
C103_22 C 0.60943(8) 0.95667(8) 0.33094(8)
C104_22 C 0.61174(7) 0.96935(8) 0.34831(8)
H68_22 H 0.6017 0.9682 0.3592
C105_22 C 0.59209(8) 0.94153(8) 0.32962(8)
C106_22 C 0.57381(8) 0.91730(9) 0.31177(8)
C107_22 C 0.56447(8) 0.92578(9) 0.34430(8)
C108_22 C 0.53758(7) 0.90435(8) 0.36275(9)
H69_22 H 0.5372 0.8956 0.3507
C109_22 C 0.55122(8) 0.92164(9) 0.36271(9)
C110_22 C 0.55210(9) 0.93399(10) 0.38072(9)
H70_22 H 0.5612 0.9457 0.3815
C111_22 C 0.53937(11) 0.92859(11) 0.39744(10)
H71_22 H 0.5397 0.9366 0.4100
C112_22 C 0.52623(9) 0.91158(10) 0.39585(9)
H72_22 H 0.5175 0.9082 0.4074
N35_22 N 0.58907(7) 0.88587(7) 0.26527(6)
N36_22 N 0.62727(7) 0.98319(7) 0.35067(7)
N37_22 N 0.57970(6) 0.93948(7) 0.34636(7)
N38_22 N 0.59010(7) 0.93039(7) 0.31193(7)
N39_22 N 0.56030(7) 0.91477(8) 0.32715(7)
C114_22 C 0.21878(7) 0.91105(8) 0.10084(8)
H73_22 H 0.2154 0.8983 0.0940
C115_22 C 0.20684(8) 0.92845(8) 0.09633(9)
C116_22 C 0.21194(10) 0.94733(9) 0.10600(11)
H74_22 H 0.2040 0.9596 0.1034
C117_22 C 0.22884(10) 0.94760(9) 0.11944(12)
H75_22 H 0.2329 0.9602 0.1261
C118_22 C 0.23985(10) 0.92924(9) 0.12310(10)
H76_22 H 0.2515 0.9296 0.1323
C120_22 C 0.16482(9) 0.85863(9) 0.01534(9)
H77_22 H 0.1636 0.8477 0.0053
C121_22 C 0.18264(10) 0.85944(11) 0.02795(10)
H78_22 H 0.1930 0.8489 0.0269
C122_22 C 0.18501(10) 0.87551(9) 0.04177(10)
H79_22 H 0.1972 0.8765 0.0502
C123_22 C 0.16906(8) 0.89057(8) 0.04333(8)
C124_22 C 0.15169(8) 0.88826(7) 0.03065(8)
H80_22 H 0.1408 0.8983 0.0318
C125_22 C 0.17038(8) 0.90791(8) 0.05847(8)
C126_22 C 0.18823(8) 0.92619(8) 0.08270(9)
C127_22 C 0.15570(8) 0.93553(8) 0.07422(9)
C128_22 C 0.13725(9) 0.96242(7) 0.09565(8)
H81_22 H 0.1493 0.9628 0.1044
C129_22 C 0.13729(9) 0.94878(8) 0.07836(9)
C130_22 C 0.11928(9) 0.94790(9) 0.06601(10)
H82_22 H 0.1185 0.9388 0.0543
C131_22 C 0.10256(10) 0.96063(11) 0.07141(11)
H83_22 H 0.0900 0.9603 0.0634
C132_22 C 0.10415(9) 0.97377(9) 0.08842(10)
H84_22 H 0.0926 0.9825 0.0918
Co5_27 Co 0.119519(11) 0.869519(11) 0.0000
N42_22 N 0.23473(6) 0.91093(7) 0.11413(7)
N44_22 N 0.14933(7) 0.87273(7) 0.01681(7)
N45_22 N 0.15364(7) 0.92030(6) 0.06052(7)
N46_22 N 0.18807(7) 0.90990(7) 0.06961(7)
N47_22 N 0.17285(7) 0.93970(7) 0.08523(8)
N48_22 N 0.12139(7) 0.97466(7) 0.10040(7)
C133_22 C 0.28122(7) 0.89916(8) 0.08895(8)
H85_22 H 0.2846 0.9060 0.1017
C134_22 C 0.29316(8) 0.90367(9) 0.07155(8)
C135_22 C 0.28806(10) 0.89400(11) 0.05267(9)
H86_22 H 0.2960 0.8966 0.0404
C136_22 C 0.27116(10) 0.88056(12) 0.05240(9)
H87_22 H 0.2671 0.8739 0.0398
C137_22 C 0.26015(10) 0.87690(10) 0.07076(9)
H88_22 H 0.2485 0.8677 0.0704
C138_22 C 0.33518(9) 0.98466(9) 0.14137(9)
H89_22 H 0.3364 0.9947 0.1523
C139_22 C 0.31736(10) 0.97205(10) 0.14056(11)
H90_22 H 0.3070 0.9731 0.1511
C140_22 C 0.31499(10) 0.95823(10) 0.12449(9)
H91_22 H 0.3028 0.9498 0.1235
C141_22 C 0.33094(8) 0.95667(8) 0.10943(8)
C142_22 C 0.34831(8) 0.96935(8) 0.11174(7)
H92_22 H 0.3592 0.9682 0.1017
C143_22 C 0.32962(8) 0.94153(8) 0.09209(8)
C144_22 C 0.31177(8) 0.91730(9) 0.07381(8)
C145_22 C 0.34430(8) 0.92578(9) 0.06447(8)
C146_22 C 0.36275(9) 0.90435(8) 0.03758(7)
H93_22 H 0.3507 0.8956 0.0372
C147_22 C 0.36271(9) 0.92164(9) 0.05122(8)
C148_22 C 0.38072(9) 0.93399(10) 0.05210(9)
H94_22 H 0.3815 0.9457 0.0612
C149_22 C 0.39744(10) 0.92859(11) 0.03937(11)
H95_22 H 0.4100 0.9366 0.0397
C150_22 C 0.39585(9) 0.91158(10) 0.02623(9)
H96_22 H 0.4074 0.9082 0.0175
N49_22 N 0.26527(6) 0.88587(7) 0.08907(7)
N50_22 N 0.35067(7) 0.98319(7) 0.12727(7)
N51_22 N 0.34636(7) 0.93948(7) 0.07970(6)
N52_22 N 0.31193(7) 0.93039(7) 0.09010(7)
N53_22 N 0.32715(7) 0.91477(8) 0.06030(7)
N54_22 N 0.37861(7) 0.89960(7) 0.02534(7)
C151_22 C 0.28121(8) 0.90698(8) 0.14828(8)
N55_22 N 0.27354(6) 0.89569(7) 0.13623(7)
S7_22 S 0.29112(3) 0.92311(3) 0.16525(3)
C154_22 C 0.09302(8) 0.89828(8) 0.03121(8)
N58_22 N 0.10431(7) 0.88623(7) 0.02354(6)
S10_22 S 0.07689(3) 0.91525(3) 0.04112(3)
Co16_22 Co 0.1250 0.997806(14) 0.1250
Co17_22 Co 0.3750 0.8750 0.002194(14)
N63_22 N 0.11413(7) 0.83907(7) 0.01527(6)
N64_22 N 0.23319(7) 0.87727(7) 0.14933(7)
C119_22 C 0.14828(8) 0.84302(8) 0.96879(8)
Co5_28 Co 0.119519(11) 0.869519(11) 1.0000
N43_22 N 0.13623(7) 0.85431(7) 0.97646(6)
S6_22 S 0.16525(3) 0.82689(3) 0.95888(3)
N62_22 N 0.08907(7) 0.86413(7) 0.98473(6)
N66_22 N 0.12273(7) 0.89933(7) 0.98319(7)
C6_23 C 0.03121(8) 0.89828(8) 0.59302(8)
N2_23 N 0.02354(6) 0.88623(7) 0.60431(7)
S1_23 S 0.04112(3) 0.91525(3) 0.57689(3)
C114_23 C 0.03122(7) 0.83895(8) 0.60084(8)
H73_23 H 0.0346 0.8517 0.5940
C115_23 C 0.04316(8) 0.82155(8) 0.59633(9)
C116_23 C 0.03806(10) 0.80267(9) 0.60600(11)
H74_23 H 0.0460 0.7904 0.6034
C117_23 C 0.02116(10) 0.80240(9) 0.61944(12)
H75_23 H 0.0171 0.7898 0.6261
C118_23 C 0.01015(10) 0.82076(9) 0.62310(10)
C119_23 C 0.10172(8) 0.90698(8) 0.46879(8)
C120_23 C 0.08518(9) 0.89137(9) 0.51534(9)
H77_23 H 0.0864 0.9023 0.5053
C121_23 C 0.06736(10) 0.89056(11) 0.52795(10)
H78_23 H 0.0570 0.9011 0.5269
C122_23 C 0.06499(10) 0.87449(9) 0.54177(10)
H79_23 H 0.0528 0.8735 0.5502
C123_23 C 0.08094(8) 0.85943(8) 0.54333(8)
C124_23 C 0.09831(8) 0.86174(7) 0.53065(8)
H80_23 H 0.1092 0.8517 0.5318
C125_23 C 0.07962(8) 0.84209(8) 0.55847(8)
C126_23 C 0.06177(8) 0.82381(8) 0.58270(9)
C127_23 C 0.09430(8) 0.81447(8) 0.57422(9)
C128_23 C 0.11275(9) 0.78758(7) 0.59565(8)
H81_23 H 0.1007 0.7872 0.6044
C129_23 C 0.11271(9) 0.80122(8) 0.57836(9)
C130_23 C 0.13072(9) 0.80210(9) 0.56601(10)
H82_23 H 0.1315 0.8112 0.5543
C131_23 C 0.14744(10) 0.78937(11) 0.57141(11)
H83_23 H 0.1600 0.7897 0.5634
C132_23 C 0.14585(9) 0.77623(9) 0.58842(10)
H84_23 H 0.1574 0.7675 0.5918
Co5_29 Co 0.130481(11) 0.880481(11) 0.5000
N42_23 N 0.01527(6) 0.83907(7) 0.61413(7)
N43_23 N 0.11377(7) 0.89569(7) 0.47646(6)
N44_23 N 0.10067(7) 0.87727(7) 0.51681(7)
N45_23 N 0.09636(7) 0.82970(6) 0.56052(7)
N46_23 N 0.06193(7) 0.84010(7) 0.56961(7)
N47_23 N 0.07715(7) 0.81030(7) 0.58523(8)
N48_23 N 0.12861(7) 0.77534(7) 0.60040(7)
S6_23 S 0.08475(3) 0.92311(3) 0.45888(3)
H88_23 H 0.0015 0.8823 0.5704
C154_23 C 0.15698(8) 0.85172(8) 0.53121(8)
N58_23 N 0.14569(7) 0.86377(7) 0.52354(6)
S10_23 S 0.17311(3) 0.83475(3) 0.54112(3)
Co16_23 Co 0.1250 0.752194(14) 0.6250
N62_23 N 0.16093(7) 0.88587(7) 0.48473(6)
N63_23 N 0.13587(7) 0.91093(7) 0.51527(6)
N64_23 N 0.01681(7) 0.87273(7) 0.64933(7)
N66_23 N 0.12727(7) 0.85067(7) 0.48319(7)
C95_23 C 0.66105(8) 0.85084(8) 0.78122(7)
H61_23 H 0.6483 0.8440 0.7846
C96_23 C 0.67845(8) 0.84633(9) 0.79316(8)
C97_23 C 0.69733(9) 0.85600(11) 0.78806(10)
H62_23 H 0.7096 0.8534 0.7960
C98_23 C 0.69760(9) 0.86944(12) 0.77116(10)
H63_23 H 0.7102 0.8761 0.7671
C99_23 C 0.67924(9) 0.87310(10) 0.76015(10)
H64_23 H 0.6796 0.8823 0.7485
C100_23 C 0.60863(9) 0.76534(9) 0.83518(9)
H65_23 H 0.5977 0.7553 0.8364
C101_23 C 0.60944(11) 0.77795(10) 0.81736(10)
H66_23 H 0.5989 0.7769 0.8070
C102_23 C 0.62551(9) 0.79177(10) 0.81499(10)
H67_23 H 0.6265 0.8002 0.8028
C103_23 C 0.64057(8) 0.79333(8) 0.83094(8)
C104_23 C 0.63826(7) 0.78065(8) 0.84831(8)
H68_23 H 0.6483 0.7818 0.8592
C105_23 C 0.65791(8) 0.80847(8) 0.82962(8)
C106_23 C 0.67619(8) 0.83270(9) 0.81177(8)
C107_23 C 0.68553(8) 0.82422(9) 0.84430(8)
C108_23 C 0.71242(7) 0.84565(8) 0.86275(9)
H69_23 H 0.7128 0.8544 0.8507
C109_23 C 0.69878(8) 0.82836(9) 0.86271(9)
C110_23 C 0.69790(9) 0.81601(10) 0.88072(9)
H70_23 H 0.6888 0.8043 0.8815
C111_23 C 0.71063(11) 0.82141(11) 0.89744(10)
H71_23 H 0.7103 0.8134 0.9100
C112_23 C 0.72377(9) 0.83842(10) 0.89585(9)
H72_23 H 0.7325 0.8418 0.9074
N35_23 N 0.66093(7) 0.86413(7) 0.76527(6)
N36_23 N 0.62273(7) 0.76681(7) 0.85067(7)
N37_23 N 0.67030(6) 0.81052(7) 0.84636(7)
N38_23 N 0.65990(7) 0.81961(7) 0.81193(7)
N39_23 N 0.68970(7) 0.83523(8) 0.82715(7)
H76_23 H 0.9985 0.8204 0.6323
C133_23 C 0.96878(7) 0.85084(8) 0.58895(8)
H85_23 H 0.9654 0.8440 0.6017
C134_23 C 0.95684(8) 0.84633(9) 0.57155(8)
C135_23 C 0.96194(10) 0.85600(11) 0.55267(9)
H86_23 H 0.9540 0.8534 0.5404
C136_23 C 0.97884(10) 0.86944(12) 0.55240(9)
H87_23 H 0.9829 0.8761 0.5398
C137_23 C 0.98985(10) 0.87310(10) 0.57076(9)
C138_23 C 0.91482(9) 0.76534(9) 0.64137(9)
H89_23 H 0.9136 0.7553 0.6523
C139_23 C 0.93264(10) 0.77795(10) 0.64056(11)
H90_23 H 0.9430 0.7769 0.6511
C140_23 C 0.93501(10) 0.79177(10) 0.62449(9)
H91_23 H 0.9472 0.8002 0.6235
C141_23 C 0.91906(8) 0.79333(8) 0.60943(8)
C142_23 C 0.90169(8) 0.78065(8) 0.61174(7)
H92_23 H 0.8908 0.7818 0.6017
C143_23 C 0.92038(8) 0.80847(8) 0.59209(8)
C144_23 C 0.93823(8) 0.83270(9) 0.57381(8)
C145_23 C 0.90570(8) 0.82422(9) 0.56447(8)
C146_23 C 0.88725(9) 0.84565(8) 0.53758(7)
H93_23 H 0.8993 0.8544 0.5372
C147_23 C 0.88729(9) 0.82836(9) 0.55122(8)
C148_23 C 0.86928(9) 0.81601(10) 0.55210(9)
H94_23 H 0.8685 0.8043 0.5612
C149_23 C 0.85256(10) 0.82141(11) 0.53937(11)
H95_23 H 0.8400 0.8134 0.5397
C150_23 C 0.85415(9) 0.83842(10) 0.52623(9)
H96_23 H 0.8426 0.8418 0.5175
N49_23 N 0.98473(6) 0.86413(7) 0.58907(7)
N50_23 N 0.89933(7) 0.76681(7) 0.62727(7)
N51_23 N 0.90364(7) 0.81052(7) 0.57970(6)
N52_23 N 0.93807(7) 0.81961(7) 0.59010(7)
N53_23 N 0.92285(7) 0.83523(8) 0.56030(7)
N54_23 N 0.87139(7) 0.85040(7) 0.52534(7)
C151_23 C 0.96879(8) 0.84302(8) 0.64828(8)
N55_23 N 0.97646(6) 0.85431(7) 0.63623(7)
S7_23 S 0.95888(3) 0.82689(3) 0.66525(3)
Co17_23 Co 0.8750 0.8750 0.502194(14)
C6_24 C 0.53121(8) 0.35172(8) 0.15698(8)
N2_24 N 0.52354(6) 0.36377(7) 0.14569(7)
S1_24 S 0.54112(3) 0.33475(3) 0.17311(3)
H64_24 H 0.1796 0.3677 0.0015
C114_24 C 0.53122(7) 0.41105(8) 0.14916(8)
H73_24 H 0.5346 0.3983 0.1560
C115_24 C 0.54316(8) 0.42845(8) 0.15367(9)
C116_24 C 0.53806(10) 0.44733(9) 0.14400(11)
H74_24 H 0.5460 0.4596 0.1466
C117_24 C 0.52116(10) 0.44760(9) 0.13056(12)
H75_24 H 0.5171 0.4602 0.1239
C118_24 C 0.51015(10) 0.42924(9) 0.12690(10)
H76_24 H 0.4985 0.4296 0.1177
C119_24 C 0.60172(8) 0.34302(8) 0.28121(8)
C120_24 C 0.58518(9) 0.35863(9) 0.23466(9)
H77_24 H 0.5864 0.3477 0.2447
C121_24 C 0.56736(10) 0.35944(11) 0.22205(10)
H78_24 H 0.5570 0.3489 0.2231
C122_24 C 0.56499(10) 0.37551(9) 0.20823(10)
H79_24 H 0.5528 0.3765 0.1998
C123_24 C 0.58094(8) 0.39057(8) 0.20667(8)
C124_24 C 0.59831(8) 0.38826(7) 0.21935(8)
H80_24 H 0.6092 0.3983 0.2182
C125_24 C 0.57962(8) 0.40791(8) 0.19153(8)
C126_24 C 0.56177(8) 0.42619(8) 0.16730(9)
C127_24 C 0.59430(8) 0.43553(8) 0.17578(9)
C128_24 C 0.61275(9) 0.46242(7) 0.15435(8)
H81_24 H 0.6007 0.4628 0.1456
C129_24 C 0.61271(9) 0.44878(8) 0.17164(9)
C130_24 C 0.63072(9) 0.44790(9) 0.18399(10)
H82_24 H 0.6315 0.4388 0.1957
C131_24 C 0.64744(10) 0.46063(11) 0.17859(11)
H83_24 H 0.6600 0.4603 0.1866
C132_24 C 0.64585(9) 0.47377(9) 0.16158(10)
H84_24 H 0.6574 0.4825 0.1582
Co5_30 Co 0.630481(11) 0.369519(11) 0.2500
N42_24 N 0.51527(6) 0.41093(7) 0.13587(7)
N43_24 N 0.61377(7) 0.35431(7) 0.27354(6)
N44_24 N 0.60067(7) 0.37273(7) 0.23319(7)
N45_24 N 0.59636(7) 0.42030(6) 0.18948(7)
N46_24 N 0.56193(7) 0.40990(7) 0.18039(7)
N47_24 N 0.57715(7) 0.43970(7) 0.16477(8)
N48_24 N 0.62861(7) 0.47466(7) 0.14960(7)
S6_24 S 0.58475(3) 0.32689(3) 0.29112(3)
C133_24 C 0.46878(7) 0.39916(8) 0.16105(8)
H85_24 H 0.4654 0.4060 0.1483
C134_24 C 0.45684(8) 0.40367(9) 0.17845(8)
C135_24 C 0.46194(10) 0.39400(11) 0.19733(9)
H86_24 H 0.4540 0.3966 0.2096
C136_24 C 0.47884(10) 0.38056(12) 0.19760(9)
H87_24 H 0.4829 0.3739 0.2102
C137_24 C 0.48985(10) 0.37690(10) 0.17924(9)
H88_24 H 0.5015 0.3677 0.1796
C138_24 C 0.41482(9) 0.48466(9) 0.10863(9)
H89_24 H 0.4136 0.4947 0.0977
C139_24 C 0.43264(10) 0.47205(10) 0.10944(11)
H90_24 H 0.4430 0.4731 0.0989
C140_24 C 0.43501(10) 0.45823(10) 0.12551(9)
H91_24 H 0.4472 0.4498 0.1265
C141_24 C 0.41906(8) 0.45667(8) 0.14057(8)
C142_24 C 0.40169(8) 0.46935(8) 0.13826(7)
H92_24 H 0.3908 0.4682 0.1483
C143_24 C 0.42038(8) 0.44153(8) 0.15791(8)
C144_24 C 0.43823(8) 0.41730(9) 0.17619(8)
C145_24 C 0.40570(8) 0.42578(9) 0.18553(8)
C146_24 C 0.38725(9) 0.40435(8) 0.21242(7)
H93_24 H 0.3993 0.3956 0.2128
C147_24 C 0.38729(9) 0.42164(9) 0.19878(8)
C148_24 C 0.36928(9) 0.43399(10) 0.19790(9)
H94_24 H 0.3685 0.4457 0.1888
C149_24 C 0.35256(10) 0.42859(11) 0.21063(11)
H95_24 H 0.3400 0.4366 0.2103
C150_24 C 0.35415(9) 0.41158(10) 0.22377(9)
H96_24 H 0.3426 0.4082 0.2325
N49_24 N 0.48473(6) 0.38587(7) 0.16093(7)
N50_24 N 0.39933(7) 0.48319(7) 0.12273(7)
N51_24 N 0.40364(7) 0.43948(7) 0.17030(6)
N52_24 N 0.43807(7) 0.43039(7) 0.15990(7)
N53_24 N 0.42285(7) 0.41477(8) 0.18970(7)
N54_24 N 0.37139(7) 0.39960(7) 0.22466(7)
C151_24 C 0.46879(8) 0.40698(8) 0.10172(8)
N55_24 N 0.47646(6) 0.39569(7) 0.11377(7)
S7_24 S 0.45888(3) 0.42311(3) 0.08475(3)
C154_24 C 0.65698(8) 0.39828(8) 0.21879(8)
N58_24 N 0.64569(7) 0.38623(7) 0.22646(6)
S10_24 S 0.67311(3) 0.41525(3) 0.20888(3)
Co16_24 Co 0.6250 0.497806(14) 0.1250
Co17_24 Co 0.3750 0.3750 0.247806(14)
N62_24 N 0.66093(7) 0.36413(7) 0.26527(6)
N63_24 N 0.63587(7) 0.33907(7) 0.23473(6)
N64_24 N 0.51681(7) 0.37727(7) 0.10067(7)
N66_24 N 0.62727(7) 0.39933(7) 0.26681(7)
C95_24 C 0.16105(8) 0.39916(8) 0.96878(7)
H61_24 H 0.1483 0.4060 0.9654
C96_24 C 0.17845(8) 0.40367(9) 0.95684(8)
C97_24 C 0.19733(9) 0.39400(11) 0.96194(10)
H62_24 H 0.2096 0.3966 0.9540
C98_24 C 0.19760(9) 0.38056(12) 0.97884(10)
H63_24 H 0.2102 0.3739 0.9829
C99_24 C 0.17924(9) 0.37690(10) 0.98985(10)
C100_24 C 0.10863(9) 0.48466(9) 0.91482(9)
H65_24 H 0.0977 0.4947 0.9136
C101_24 C 0.10944(11) 0.47205(10) 0.93264(10)
H66_24 H 0.0989 0.4731 0.9430
C102_24 C 0.12551(9) 0.45823(10) 0.93501(10)
H67_24 H 0.1265 0.4498 0.9472
C103_24 C 0.14057(8) 0.45667(8) 0.91906(8)
C104_24 C 0.13826(7) 0.46935(8) 0.90169(8)
H68_24 H 0.1483 0.4682 0.8908
C105_24 C 0.15791(8) 0.44153(8) 0.92038(8)
C106_24 C 0.17619(8) 0.41730(9) 0.93823(8)
C107_24 C 0.18553(8) 0.42578(9) 0.90570(8)
C108_24 C 0.21242(7) 0.40435(8) 0.88725(9)
H69_24 H 0.2128 0.3956 0.8993
C109_24 C 0.19878(8) 0.42164(9) 0.88729(9)
C110_24 C 0.19790(9) 0.43399(10) 0.86928(9)
H70_24 H 0.1888 0.4457 0.8685
C111_24 C 0.21063(11) 0.42859(11) 0.85256(10)
H71_24 H 0.2103 0.4366 0.8400
C112_24 C 0.22377(9) 0.41158(10) 0.85415(9)
H72_24 H 0.2325 0.4082 0.8426
N35_24 N 0.16093(7) 0.38587(7) 0.98473(6)
N36_24 N 0.12273(7) 0.48319(7) 0.89933(7)
N37_24 N 0.17030(6) 0.43948(7) 0.90364(7)
N38_24 N 0.15990(7) 0.43039(7) 0.93807(7)
N39_24 N 0.18970(7) 0.41477(8) 0.92285(7)
C1_9 C 0.41105(8) 0.71878(7) 0.60084(8)
H1_9 H 0.3983 0.7154 0.5940
C2_9 C 0.42845(8) 0.70684(8) 0.59633(9)
C3_9 C 0.44733(9) 0.71194(10) 0.60600(11)
H2_9 H 0.4596 0.7040 0.6034
C4_9 C 0.44760(9) 0.72884(10) 0.61944(12)
H3_9 H 0.4602 0.7329 0.6261
C5_9 C 0.42924(9) 0.73985(10) 0.62310(10)
H4_9 H 0.4296 0.7515 0.6323
C6_25 C 0.34302(8) 0.64828(8) 0.46879(8)
C7_9 C 0.35863(9) 0.66482(9) 0.51534(9)
H5_9 H 0.3477 0.6636 0.5053
C8_9 C 0.35944(11) 0.68264(10) 0.52795(10)
H6_9 H 0.3489 0.6930 0.5269
C9_9 C 0.37551(9) 0.68501(10) 0.54177(10)
H7_9 H 0.3765 0.6972 0.5502
C10_9 C 0.39057(8) 0.66906(8) 0.54333(8)
C11_9 C 0.38826(7) 0.65169(8) 0.53065(8)
H8_9 H 0.3983 0.6408 0.5318
C12_9 C 0.40791(8) 0.67038(8) 0.55847(8)
C13_9 C 0.42619(8) 0.68823(8) 0.58270(9)
C14_9 C 0.43553(8) 0.65570(8) 0.57422(9)
C15_9 C 0.46242(7) 0.63725(9) 0.59565(8)
H9_9 H 0.4628 0.6493 0.6044
C16_9 C 0.44878(8) 0.63729(9) 0.57836(9)
C17_9 C 0.44790(9) 0.61928(9) 0.56601(10)
H10_9 H 0.4388 0.6185 0.5543
C18_9 C 0.46063(11) 0.60256(10) 0.57141(11)
H11_9 H 0.4603 0.5900 0.5634
C19_9 C 0.47377(9) 0.60415(9) 0.58842(10)
H12_9 H 0.4825 0.5926 0.5918
C20_9 C 0.50126(9) 0.57496(12) 0.63009(12)
Co1_11 Co 0.369519(11) 0.619519(11) 0.5000
N2_25 N 0.35431(7) 0.63623(7) 0.47646(6)
N3_9 N 0.37273(7) 0.64933(7) 0.51681(7)
N4_9 N 0.42030(6) 0.65364(7) 0.56052(7)
N5_9 N 0.40990(7) 0.68807(7) 0.56961(7)
N6_9 N 0.43970(7) 0.67285(7) 0.58523(8)
N7_9 N 0.47466(7) 0.62139(7) 0.60040(7)
N8_9 N 0.49874(7) 0.59250(8) 0.62722(7)
S1_25 S 0.32689(3) 0.66525(3) 0.45888(3)
S2_9 S 0.50491(4) 0.55016(4) 0.63430(7)
C39_9 C 0.64916(8) 0.41105(8) 0.53122(7)
H25_9 H 0.6560 0.3983 0.5346
C40_9 C 0.65367(9) 0.42845(8) 0.54316(8)
C41_9 C 0.64400(11) 0.44733(9) 0.53806(10)
H26_9 H 0.6466 0.4596 0.5460
C42_9 C 0.63056(12) 0.44760(9) 0.52116(10)
H27_9 H 0.6239 0.4602 0.5171
C43_9 C 0.62690(10) 0.42924(9) 0.51015(10)
H28_9 H 0.6177 0.4296 0.4985
C44_9 C 0.73466(9) 0.35863(9) 0.58518(9)
H29_9 H 0.7447 0.3477 0.5864
C45_9 C 0.72205(10) 0.35944(11) 0.56736(10)
H30_9 H 0.7231 0.3489 0.5570
C46_9 C 0.70823(10) 0.37551(9) 0.56499(10)
H31_9 H 0.6998 0.3765 0.5528
C47_9 C 0.70667(8) 0.39057(8) 0.58094(8)
C48_9 C 0.71935(8) 0.38826(7) 0.59831(8)
H32_9 H 0.7182 0.3983 0.6092
C49_9 C 0.69153(8) 0.40791(8) 0.57962(8)
C50_9 C 0.66730(9) 0.42619(8) 0.56177(8)
C51_9 C 0.67578(9) 0.43553(8) 0.59430(8)
C52_9 C 0.65435(8) 0.46242(7) 0.61275(9)
H33_9 H 0.6456 0.4628 0.6007
C53_9 C 0.67164(9) 0.44878(8) 0.61271(9)
C54_9 C 0.68399(10) 0.44790(9) 0.63072(9)
H34_9 H 0.6957 0.4388 0.6315
C55_9 C 0.67859(11) 0.46063(11) 0.64744(10)
H35_9 H 0.6866 0.4603 0.6600
C56_9 C 0.66158(10) 0.47377(9) 0.64585(9)
H36_9 H 0.6582 0.4825 0.6574
C57_9 C 0.61991(12) 0.50126(9) 0.67504(12)
C58_17 C 0.58293(11) 0.51760(10) 0.63864(12)
H37_17 H 0.5841 0.5073 0.6493
C59_17 C 0.56527(12) 0.52925(12) 0.63786(13)
H38_17 H 0.5541 0.5266 0.6473
C60_17 C 0.56355(12) 0.54519(13) 0.62298(12)
H39_17 H 0.5514 0.5537 0.6222
C61_17 C 0.58011(10) 0.54822(9) 0.60933(10)
C62_17 C 0.59741(8) 0.53496(8) 0.61077(9)
H40_17 H 0.6086 0.5367 0.6011
C63_17 C 0.57939(9) 0.56433(9) 0.59304(10)
N17_9 N 0.68948(7) 0.42030(6) 0.59636(7)
N18_9 N 0.68039(7) 0.40990(7) 0.56193(7)
N19_9 N 0.66477(8) 0.43970(7) 0.57715(7)
N20_9 N 0.64960(7) 0.47466(7) 0.62861(7)
N21_9 N 0.62278(7) 0.49874(7) 0.65750(8)
N22_9 N 0.59886(7) 0.52001(7) 0.62506(7)
N23_17 N 0.59440(8) 0.56397(7) 0.57863(8)
S3_9 S 0.61570(7) 0.50491(4) 0.69984(4)
C64_17 C 0.51760(10) 0.63864(12) 0.58293(11)
H41_17 H 0.5073 0.6493 0.5841
C65_17 C 0.52925(12) 0.63786(13) 0.56527(12)
H42_17 H 0.5266 0.6473 0.5541
C66_17 C 0.54519(13) 0.62298(12) 0.56355(12)
H43_17 H 0.5537 0.6222 0.5514
C67_17 C 0.54822(9) 0.60933(10) 0.58011(10)
C68_17 C 0.53496(8) 0.61077(9) 0.59741(8)
H44_17 H 0.5367 0.6011 0.6086
C69_17 C 0.56433(9) 0.59304(10) 0.57939(9)
N24_9 N 0.52001(7) 0.62506(7) 0.59886(7)
N25_17 N 0.56397(7) 0.57863(8) 0.59440(8)
C70_17 C 0.63864(12) 0.58293(11) 0.51760(10)
H45_17 H 0.6493 0.5841 0.5073
C71_17 C 0.63786(13) 0.56527(12) 0.52925(12)
H46_17 H 0.6473 0.5541 0.5266
C72_17 C 0.62298(12) 0.56355(12) 0.54519(13)
H47_17 H 0.6222 0.5514 0.5537
C73_17 C 0.60933(10) 0.58011(10) 0.54822(9)
C74_17 C 0.61077(9) 0.59741(8) 0.53496(8)
H48_17 H 0.6011 0.6086 0.5367
C75_17 C 0.59304(10) 0.57939(9) 0.56433(9)
N26_17 N 0.62506(7) 0.59886(7) 0.52001(7)
N27_17 N 0.57863(8) 0.59440(8) 0.56397(7)
C114_25 C 0.35084(8) 0.58895(8) 0.46878(7)
H73_25 H 0.3440 0.6017 0.4654
C115_25 C 0.34633(9) 0.57155(8) 0.45684(8)
C116_25 C 0.35600(11) 0.55267(9) 0.46194(10)
H74_25 H 0.3534 0.5404 0.4540
C117_25 C 0.36944(12) 0.55240(9) 0.47884(10)
H75_25 H 0.3761 0.5398 0.4829
C118_25 C 0.37310(10) 0.57076(9) 0.48985(10)
H76_25 H 0.3823 0.5704 0.5015
C120_25 C 0.26534(9) 0.64137(9) 0.41482(9)
H77_25 H 0.2553 0.6523 0.4136
C121_25 C 0.27795(10) 0.64056(11) 0.43264(10)
H78_25 H 0.2769 0.6511 0.4430
C122_25 C 0.29177(10) 0.62449(9) 0.43501(10)
H79_25 H 0.3002 0.6235 0.4472
C123_25 C 0.29333(8) 0.60943(8) 0.41906(8)
C124_25 C 0.28065(8) 0.61174(7) 0.40169(8)
H80_25 H 0.2818 0.6017 0.3908
C125_25 C 0.30847(8) 0.59209(8) 0.42038(8)
C126_25 C 0.33270(9) 0.57381(8) 0.43823(8)
C127_25 C 0.32422(9) 0.56447(8) 0.40570(8)
C128_25 C 0.34565(8) 0.53758(7) 0.38725(9)
H81_25 H 0.3544 0.5372 0.3993
C129_25 C 0.32836(9) 0.55122(8) 0.38729(9)
C130_25 C 0.31601(10) 0.55210(9) 0.36928(9)
H82_25 H 0.3043 0.5612 0.3685
C131_25 C 0.32141(11) 0.53937(11) 0.35256(10)
H83_25 H 0.3134 0.5397 0.3400
C132_25 C 0.33842(10) 0.52623(9) 0.35415(9)
H84_25 H 0.3418 0.5175 0.3426
N42_25 N 0.36413(7) 0.58907(7) 0.48473(6)
N45_25 N 0.31052(7) 0.57970(6) 0.40364(7)
N46_25 N 0.31961(7) 0.59010(7) 0.43807(7)
N47_25 N 0.33523(8) 0.56030(7) 0.42285(7)
N48_25 N 0.35040(7) 0.52534(7) 0.37139(7)
C133_25 C 0.33895(8) 0.60084(8) 0.53122(7)
H85_25 H 0.3517 0.5940 0.5346
C134_25 C 0.32155(8) 0.59633(9) 0.54316(8)
C135_25 C 0.30267(9) 0.60600(11) 0.53806(10)
H86_25 H 0.2904 0.6034 0.5460
C136_25 C 0.30240(9) 0.61944(12) 0.52116(10)
H87_25 H 0.2898 0.6261 0.5171
C137_25 C 0.32076(9) 0.62310(10) 0.51015(10)
H88_25 H 0.3204 0.6323 0.4985
C138_25 C 0.39137(9) 0.51534(9) 0.58518(9)
H89_25 H 0.4023 0.5053 0.5864
C139_25 C 0.39056(11) 0.52795(10) 0.56736(10)
H90_25 H 0.4011 0.5269 0.5570
C140_25 C 0.37449(9) 0.54177(10) 0.56499(10)
H91_25 H 0.3735 0.5502 0.5528
C141_25 C 0.35943(8) 0.54333(8) 0.58094(8)
C142_25 C 0.36174(7) 0.53065(8) 0.59831(8)
H92_25 H 0.3517 0.5318 0.6092
C143_25 C 0.34209(8) 0.55847(8) 0.57962(8)
C144_25 C 0.32381(8) 0.58270(9) 0.56177(8)
C145_25 C 0.31447(8) 0.57422(9) 0.59430(8)
C146_25 C 0.28758(7) 0.59565(8) 0.61275(9)
H93_25 H 0.2872 0.6044 0.6007
C147_25 C 0.30122(8) 0.57836(9) 0.61271(9)
C148_25 C 0.30210(9) 0.56601(10) 0.63072(9)
H94_25 H 0.3112 0.5543 0.6315
C149_25 C 0.28937(11) 0.57141(11) 0.64744(10)
H95_25 H 0.2897 0.5634 0.6600
C150_25 C 0.27623(9) 0.58842(10) 0.64585(9)
H96_25 H 0.2675 0.5918 0.6574
N49_25 N 0.33907(7) 0.61413(7) 0.51527(6)
N51_25 N 0.32970(6) 0.56052(7) 0.59636(7)
N52_25 N 0.34010(7) 0.56961(7) 0.56193(7)
N53_25 N 0.31030(7) 0.58523(8) 0.57715(7)
N54_25 N 0.27534(7) 0.60040(7) 0.62861(7)
C151_25 C 0.39828(8) 0.59302(8) 0.53121(8)
N55_25 N 0.38623(7) 0.60431(7) 0.52354(6)
S7_25 S 0.41525(3) 0.57689(3) 0.54112(3)
C152_9 C 0.50126(9) 0.67504(12) 0.61991(12)
N56_9 N 0.49874(7) 0.65750(8) 0.62278(7)
S8_9 S 0.50491(4) 0.69984(4) 0.61570(7)
C153_9 C 0.63009(12) 0.50126(9) 0.57496(12)
N57_9 N 0.62722(7) 0.49874(7) 0.59250(8)
S9_9 S 0.63430(7) 0.50491(4) 0.55016(4)
N64_25 N 0.39933(7) 0.62273(7) 0.48319(7)
N68_9 N 0.47466(7) 0.62861(7) 0.64960(7)
N69_9 N 0.60040(7) 0.47466(7) 0.62139(7)
C1_10 C 0.83895(8) 0.03122(7) 0.10084(8)
H1_10 H 0.8517 0.0346 0.0940
C2_10 C 0.82155(8) 0.04316(8) 0.09633(9)
C3_10 C 0.80267(9) 0.03806(10) 0.10600(11)
H2_10 H 0.7904 0.0460 0.1034
C4_10 C 0.80240(9) 0.02116(10) 0.11944(12)
H3_10 H 0.7898 0.0171 0.1261
C5_10 C 0.82076(9) 0.01015(10) 0.12310(10)
C7_10 C 0.89137(9) 0.08518(9) 0.01534(9)
H5_10 H 0.9023 0.0864 0.0053
C8_10 C 0.89056(11) 0.06736(10) 0.02795(10)
H6_10 H 0.9011 0.0570 0.0269
C9_10 C 0.87449(9) 0.06499(10) 0.04177(10)
H7_10 H 0.8735 0.0528 0.0502
C10_10 C 0.85943(8) 0.08094(8) 0.04333(8)
C11_10 C 0.86174(7) 0.09831(8) 0.03065(8)
H8_10 H 0.8517 0.1092 0.0318
C12_10 C 0.84209(8) 0.07962(8) 0.05847(8)
C13_10 C 0.82381(8) 0.06177(8) 0.08270(9)
C14_10 C 0.81447(8) 0.09430(8) 0.07422(9)
C15_10 C 0.78758(7) 0.11275(9) 0.09565(8)
H9_10 H 0.7872 0.1007 0.1044
C16_10 C 0.80122(8) 0.11271(9) 0.07836(9)
C17_10 C 0.80210(9) 0.13072(9) 0.06601(10)
H10_10 H 0.8112 0.1315 0.0543
C18_10 C 0.78937(11) 0.14744(10) 0.07141(11)
H11_10 H 0.7897 0.1600 0.0634
C19_10 C 0.77623(9) 0.14585(9) 0.08842(10)
H12_10 H 0.7675 0.1574 0.0918
C20_10 C 0.74874(9) 0.17504(12) 0.13009(12)
Co1_12 Co 0.880481(11) 0.130481(11) 0.0000
N3_10 N 0.87727(7) 0.10067(7) 0.01681(7)
N4_10 N 0.82970(6) 0.09636(7) 0.06052(7)
N5_10 N 0.84010(7) 0.06193(7) 0.06961(7)
N6_10 N 0.81030(7) 0.07715(7) 0.08523(8)
N7_10 N 0.77534(7) 0.12861(7) 0.10040(7)
N8_10 N 0.75126(7) 0.15750(8) 0.12722(7)
S2_10 S 0.74509(4) 0.19984(4) 0.13430(7)
C39_10 C 0.60084(8) 0.33895(8) 0.03122(7)
H25_10 H 0.5940 0.3517 0.0346
C40_10 C 0.59633(9) 0.32155(8) 0.04316(8)
C41_10 C 0.60600(11) 0.30267(9) 0.03806(10)
H26_10 H 0.6034 0.2904 0.0460
C42_10 C 0.61944(12) 0.30240(9) 0.02116(10)
H27_10 H 0.6261 0.2898 0.0171
C43_10 C 0.62310(10) 0.32076(9) 0.01015(10)
C44_10 C 0.51534(9) 0.39137(9) 0.08518(9)
H29_10 H 0.5053 0.4023 0.0864
C45_10 C 0.52795(10) 0.39056(11) 0.06736(10)
H30_10 H 0.5269 0.4011 0.0570
C46_10 C 0.54177(10) 0.37449(9) 0.06499(10)
H31_10 H 0.5502 0.3735 0.0528
C47_10 C 0.54333(8) 0.35943(8) 0.08094(8)
C48_10 C 0.53065(8) 0.36174(7) 0.09831(8)
H32_10 H 0.5318 0.3517 0.1092
C49_10 C 0.55847(8) 0.34209(8) 0.07962(8)
C50_10 C 0.58270(9) 0.32381(8) 0.06177(8)
C51_10 C 0.57422(9) 0.31447(8) 0.09430(8)
C52_10 C 0.59565(8) 0.28758(7) 0.11275(9)
H33_10 H 0.6044 0.2872 0.1007
C53_10 C 0.57836(9) 0.30122(8) 0.11271(9)
C54_10 C 0.56601(10) 0.30210(9) 0.13072(9)
H34_10 H 0.5543 0.3112 0.1315
C55_10 C 0.57141(11) 0.28937(11) 0.14744(10)
H35_10 H 0.5634 0.2897 0.1600
C56_10 C 0.58842(10) 0.27623(9) 0.14585(9)
H36_10 H 0.5918 0.2675 0.1574
C57_10 C 0.63009(12) 0.24874(9) 0.17504(12)
C58_18 C 0.66707(11) 0.23240(10) 0.13864(12)
H37_18 H 0.6659 0.2427 0.1493
C59_18 C 0.68473(12) 0.22075(12) 0.13786(13)
H38_18 H 0.6959 0.2234 0.1473
C60_18 C 0.68645(12) 0.20481(13) 0.12298(12)
H39_18 H 0.6986 0.1963 0.1222
C61_18 C 0.66989(10) 0.20178(9) 0.10933(10)
C62_18 C 0.65259(8) 0.21504(8) 0.11077(9)
H40_18 H 0.6414 0.2133 0.1011
C63_18 C 0.67061(9) 0.18567(9) 0.09304(10)
N17_10 N 0.56052(7) 0.32970(6) 0.09636(7)
N18_10 N 0.56961(7) 0.34010(7) 0.06193(7)
N19_10 N 0.58523(8) 0.31030(7) 0.07715(7)
N20_10 N 0.60040(7) 0.27534(7) 0.12861(7)
N21_10 N 0.62722(7) 0.25126(7) 0.15750(8)
N22_10 N 0.65114(7) 0.22999(7) 0.12506(7)
N23_18 N 0.65560(8) 0.18603(7) 0.07863(8)
S3_10 S 0.63430(7) 0.24509(4) 0.19984(4)
C64_18 C 0.73240(10) 0.11136(12) 0.08293(11)
H41_18 H 0.7427 0.1007 0.0841
C65_18 C 0.72075(12) 0.11214(13) 0.06527(12)
H42_18 H 0.7234 0.1027 0.0541
C66_18 C 0.70481(13) 0.12702(12) 0.06355(12)
H43_18 H 0.6963 0.1278 0.0514
C67_18 C 0.70178(9) 0.14067(10) 0.08011(10)
C68_18 C 0.71504(8) 0.13923(9) 0.09741(8)
H44_18 H 0.7133 0.1489 0.1086
C69_18 C 0.68567(9) 0.15696(10) 0.07939(9)
N24_10 N 0.72999(7) 0.12494(7) 0.09886(7)
N25_18 N 0.68603(7) 0.17137(8) 0.09440(8)
C70_18 C 0.61136(12) 0.16707(11) 0.01760(10)
H45_18 H 0.6007 0.1659 0.0073
C71_18 C 0.61214(13) 0.18473(12) 0.02925(12)
H46_18 H 0.6027 0.1959 0.0266
C72_18 C 0.62702(12) 0.18645(12) 0.04519(13)
H47_18 H 0.6278 0.1986 0.0537
C73_18 C 0.64067(10) 0.16989(10) 0.04822(9)
C74_18 C 0.63923(9) 0.15259(8) 0.03496(8)
H48_18 H 0.6489 0.1414 0.0367
C75_18 C 0.65696(10) 0.17061(9) 0.06433(9)
N26_18 N 0.62494(7) 0.15114(7) 0.02001(7)
N27_18 N 0.67137(8) 0.15560(8) 0.06397(7)
H76_26 H 0.8677 0.1796 0.0015
C133_26 C 0.91105(8) 0.14916(8) 0.03122(7)
H85_26 H 0.8983 0.1560 0.0346
C134_26 C 0.92845(8) 0.15367(9) 0.04316(8)
C135_26 C 0.94733(9) 0.14400(11) 0.03806(10)
H86_26 H 0.9596 0.1466 0.0460
C136_26 C 0.94760(9) 0.13056(12) 0.02116(10)
H87_26 H 0.9602 0.1239 0.0171
C137_26 C 0.92924(9) 0.12690(10) 0.01015(10)
C138_26 C 0.85863(9) 0.23466(9) 0.08518(9)
H89_26 H 0.8477 0.2447 0.0864
C139_26 C 0.85944(11) 0.22205(10) 0.06736(10)
H90_26 H 0.8489 0.2231 0.0570
C140_26 C 0.87551(9) 0.20823(10) 0.06499(10)
H91_26 H 0.8765 0.1998 0.0528
C141_26 C 0.89057(8) 0.20667(8) 0.08094(8)
C142_26 C 0.88826(7) 0.21935(8) 0.09831(8)
H92_26 H 0.8983 0.2182 0.1092
C143_26 C 0.90791(8) 0.19153(8) 0.07962(8)
C144_26 C 0.92619(8) 0.16730(9) 0.06177(8)
C145_26 C 0.93553(8) 0.17578(9) 0.09430(8)
C146_26 C 0.96242(7) 0.15435(8) 0.11275(9)
H93_26 H 0.9628 0.1456 0.1007
C147_26 C 0.94878(8) 0.17164(9) 0.11271(9)
C148_26 C 0.94790(9) 0.18399(10) 0.13072(9)
H94_26 H 0.9388 0.1957 0.1315
C149_26 C 0.96063(11) 0.17859(11) 0.14744(10)
H95_26 H 0.9603 0.1866 0.1600
C150_26 C 0.97377(9) 0.16158(10) 0.14585(9)
H96_26 H 0.9825 0.1582 0.1574
N49_26 N 0.91093(7) 0.13587(7) 0.01527(6)
N51_26 N 0.92030(6) 0.18948(7) 0.09636(7)
N52_26 N 0.90990(7) 0.18039(7) 0.06193(7)
N53_26 N 0.93970(7) 0.16477(8) 0.07715(7)
N54_26 N 0.97466(7) 0.14960(7) 0.12861(7)
C151_26 C 0.85172(8) 0.15698(8) 0.03121(8)
N55_26 N 0.86377(7) 0.14569(7) 0.02354(6)
S7_26 S 0.83475(3) 0.17311(3) 0.04112(3)
C152_10 C 0.74874(9) 0.07496(12) 0.11991(12)
N56_10 N 0.75126(7) 0.09250(8) 0.12278(7)
S8_10 S 0.74509(4) 0.05016(4) 0.11570(7)
C153_10 C 0.61991(12) 0.24874(9) 0.07496(12)
N57_10 N 0.62278(7) 0.25126(7) 0.09250(8)
S9_10 S 0.61570(7) 0.24509(4) 0.05016(4)
N68_10 N 0.77534(7) 0.12139(7) 0.14960(7)
N69_10 N 0.64960(7) 0.27534(7) 0.12139(7)
C6_26 C 0.90698(8) 0.10172(8) 0.96879(8)
Co1_13 Co 0.880481(11) 0.130481(11) 1.0000
N2_26 N 0.89569(7) 0.11377(7) 0.97646(6)
S1_26 S 0.92311(3) 0.08475(3) 0.95888(3)
H28_10 H 0.6323 0.3204 0.9985
C114_26 C 0.89916(8) 0.16105(8) 0.96878(7)
H73_26 H 0.9060 0.1483 0.9654
C115_26 C 0.90367(9) 0.17845(8) 0.95684(8)
C116_26 C 0.89400(11) 0.19733(9) 0.96194(10)
H74_26 H 0.8966 0.2096 0.9540
C117_26 C 0.88056(12) 0.19760(9) 0.97884(10)
H75_26 H 0.8739 0.2102 0.9829
C118_26 C 0.87690(10) 0.17924(9) 0.98985(10)
C120_26 C 0.98466(9) 0.10863(9) 0.91482(9)
H77_26 H 0.9947 0.0977 0.9136
C121_26 C 0.97205(10) 0.10944(11) 0.93264(10)
H78_26 H 0.9731 0.0989 0.9430
C122_26 C 0.95823(10) 0.12551(9) 0.93501(10)
H79_26 H 0.9498 0.1265 0.9472
C123_26 C 0.95667(8) 0.14057(8) 0.91906(8)
C124_26 C 0.96935(8) 0.13826(7) 0.90169(8)
H80_26 H 0.9682 0.1483 0.8908
C125_26 C 0.94153(8) 0.15791(8) 0.92038(8)
C126_26 C 0.91730(9) 0.17619(8) 0.93823(8)
C127_26 C 0.92578(9) 0.18553(8) 0.90570(8)
C128_26 C 0.90435(8) 0.21242(7) 0.88725(9)
H81_26 H 0.8956 0.2128 0.8993
C129_26 C 0.92164(9) 0.19878(8) 0.88729(9)
C130_26 C 0.93399(10) 0.19790(9) 0.86928(9)
H82_26 H 0.9457 0.1888 0.8685
C131_26 C 0.92859(11) 0.21063(11) 0.85256(10)
H83_26 H 0.9366 0.2103 0.8400
C132_26 C 0.91158(10) 0.22377(9) 0.85415(9)
H84_26 H 0.9082 0.2325 0.8426
N42_26 N 0.88587(7) 0.16093(7) 0.98473(6)
N45_26 N 0.93948(7) 0.17030(6) 0.90364(7)
N46_26 N 0.93039(7) 0.15990(7) 0.93807(7)
N47_26 N 0.91477(8) 0.18970(7) 0.92285(7)
N48_26 N 0.89960(7) 0.22466(7) 0.87139(7)
H88_26 H 0.9296 0.1177 0.9985
N64_26 N 0.85067(7) 0.12727(7) 0.98319(7)
H4_10 H 0.8204 0.9985 0.1323
C1_11 C 0.33895(8) 0.21878(7) 0.64916(8)
H1_11 H 0.3517 0.2154 0.6560
C2_11 C 0.32155(8) 0.20684(8) 0.65367(9)
C3_11 C 0.30267(9) 0.21194(10) 0.64400(11)
H2_11 H 0.2904 0.2040 0.6466
C4_11 C 0.30240(9) 0.22884(10) 0.63056(12)
H3_11 H 0.2898 0.2329 0.6239
C5_11 C 0.32076(9) 0.23985(10) 0.62690(10)
H4_11 H 0.3204 0.2515 0.6177
C6_27 C 0.40698(8) 0.14828(8) 0.78121(8)
C7_11 C 0.39137(9) 0.16482(9) 0.73466(9)
H5_11 H 0.4023 0.1636 0.7447
C8_11 C 0.39056(11) 0.18264(10) 0.72205(10)
H6_11 H 0.4011 0.1930 0.7231
C9_11 C 0.37449(9) 0.18501(10) 0.70823(10)
H7_11 H 0.3735 0.1972 0.6998
C10_11 C 0.35943(8) 0.16906(8) 0.70667(8)
C11_11 C 0.36174(7) 0.15169(8) 0.71935(8)
H8_11 H 0.3517 0.1408 0.7182
C12_11 C 0.34209(8) 0.17038(8) 0.69153(8)
C13_11 C 0.32381(8) 0.18823(8) 0.66730(9)
C14_11 C 0.31447(8) 0.15570(8) 0.67578(9)
C15_11 C 0.28758(7) 0.13725(9) 0.65435(8)
H9_11 H 0.2872 0.1493 0.6456
C16_11 C 0.30122(8) 0.13729(9) 0.67164(9)
C17_11 C 0.30210(9) 0.11928(9) 0.68399(10)
H10_11 H 0.3112 0.1185 0.6957
C18_11 C 0.28937(11) 0.10256(10) 0.67859(11)
H11_11 H 0.2897 0.0900 0.6866
C19_11 C 0.27623(9) 0.10415(9) 0.66158(10)
H12_11 H 0.2675 0.0926 0.6582
C20_11 C 0.24874(9) 0.07496(12) 0.61991(12)
Co1_14 Co 0.380481(11) 0.119519(11) 0.7500
N2_27 N 0.39569(7) 0.13623(7) 0.77354(6)
N3_11 N 0.37727(7) 0.14933(7) 0.73319(7)
N4_11 N 0.32970(6) 0.15364(7) 0.68948(7)
N5_11 N 0.34010(7) 0.18807(7) 0.68039(7)
N6_11 N 0.31030(7) 0.17285(7) 0.66477(8)
N7_11 N 0.27534(7) 0.12139(7) 0.64960(7)
N8_11 N 0.25126(7) 0.09250(8) 0.62278(7)
S1_27 S 0.42311(3) 0.16525(3) 0.79112(3)
S2_11 S 0.24509(4) 0.05016(4) 0.61570(7)
C57_11 C 0.13009(12) 0.00126(9) 0.57496(12)
C58_19 C 0.16707(11) 0.01760(10) 0.61136(12)
H37_19 H 0.1659 0.0073 0.6007
C59_19 C 0.18473(12) 0.02925(12) 0.61214(13)
H38_19 H 0.1959 0.0266 0.6027
C60_19 C 0.18645(12) 0.04519(13) 0.62702(12)
H39_19 H 0.1986 0.0537 0.6278
C61_19 C 0.16989(10) 0.04822(9) 0.64067(10)
C62_19 C 0.15259(8) 0.03496(8) 0.63923(9)
H40_19 H 0.1414 0.0367 0.6489
C63_19 C 0.17061(9) 0.06433(9) 0.65696(10)
N22_11 N 0.15114(7) 0.02001(7) 0.62494(7)
N23_19 N 0.15560(8) 0.06397(7) 0.67137(8)
S3_11 S 0.13430(7) 0.00491(4) 0.55016(4)
C64_19 C 0.23240(10) 0.13864(12) 0.66707(11)
H41_19 H 0.2427 0.1493 0.6659
C65_19 C 0.22075(12) 0.13786(13) 0.68473(12)
H42_19 H 0.2234 0.1473 0.6959
C66_19 C 0.20481(13) 0.12298(12) 0.68645(12)
H43_19 H 0.1963 0.1222 0.6986
C67_19 C 0.20178(9) 0.10933(10) 0.66989(10)
C68_19 C 0.21504(8) 0.11077(9) 0.65259(8)
H44_19 H 0.2133 0.1011 0.6414
C69_19 C 0.18567(9) 0.09304(10) 0.67061(9)
N24_11 N 0.22999(7) 0.12506(7) 0.65114(7)
N25_19 N 0.18603(7) 0.07863(8) 0.65560(8)
C70_19 C 0.11136(12) 0.08293(11) 0.73240(10)
H45_19 H 0.1007 0.0841 0.7427
C71_19 C 0.11214(13) 0.06527(12) 0.72075(12)
H46_19 H 0.1027 0.0541 0.7234
C72_19 C 0.12702(12) 0.06355(12) 0.70481(13)
H47_19 H 0.1278 0.0514 0.6963
C73_19 C 0.14067(10) 0.08011(10) 0.70178(9)
C74_19 C 0.13923(9) 0.09741(8) 0.71504(8)
H48_19 H 0.1489 0.1086 0.7133
C75_19 C 0.15696(10) 0.07939(9) 0.68567(9)
N26_19 N 0.12494(7) 0.09886(7) 0.72999(7)
N27_19 N 0.17137(8) 0.09440(8) 0.68603(7)
C114_27 C 0.39916(8) 0.08895(8) 0.78122(7)
H73_27 H 0.4060 0.1017 0.7846
C115_27 C 0.40367(9) 0.07155(8) 0.79316(8)
C116_27 C 0.39400(11) 0.05267(9) 0.78806(10)
H74_27 H 0.3966 0.0404 0.7960
C117_27 C 0.38056(12) 0.05240(9) 0.77116(10)
H75_27 H 0.3739 0.0398 0.7671
C118_27 C 0.37690(10) 0.07076(9) 0.76015(10)
H76_27 H 0.3677 0.0704 0.7485
C120_27 C 0.48466(9) 0.14137(9) 0.83518(9)
H77_27 H 0.4947 0.1523 0.8364
C121_27 C 0.47205(10) 0.14056(11) 0.81736(10)
H78_27 H 0.4731 0.1511 0.8070
C122_27 C 0.45823(10) 0.12449(9) 0.81499(10)
H79_27 H 0.4498 0.1235 0.8028
C123_27 C 0.45667(8) 0.10943(8) 0.83094(8)
C124_27 C 0.46935(8) 0.11174(7) 0.84831(8)
H80_27 H 0.4682 0.1017 0.8592
C125_27 C 0.44153(8) 0.09209(8) 0.82962(8)
C126_27 C 0.41730(9) 0.07381(8) 0.81177(8)
C127_27 C 0.42578(9) 0.06447(8) 0.84430(8)
C128_27 C 0.40435(8) 0.03758(7) 0.86275(9)
H81_27 H 0.3956 0.0372 0.8507
C129_27 C 0.42164(9) 0.05122(8) 0.86271(9)
C130_27 C 0.43399(10) 0.05210(9) 0.88072(9)
H82_27 H 0.4457 0.0612 0.8815
C131_27 C 0.42859(11) 0.03937(11) 0.89744(10)
H83_27 H 0.4366 0.0397 0.9100
C132_27 C 0.41158(10) 0.02623(9) 0.89585(9)
H84_27 H 0.4082 0.0175 0.9074
N42_27 N 0.38587(7) 0.08907(7) 0.76527(6)
N45_27 N 0.43948(7) 0.07970(6) 0.84636(7)
N46_27 N 0.43039(7) 0.09010(7) 0.81193(7)
N47_27 N 0.41477(8) 0.06030(7) 0.82715(7)
N48_27 N 0.39960(7) 0.02534(7) 0.87861(7)
C133_27 C 0.41105(8) 0.10084(8) 0.71878(7)
H85_27 H 0.3983 0.0940 0.7154
C134_27 C 0.42845(8) 0.09633(9) 0.70684(8)
C135_27 C 0.44733(9) 0.10600(11) 0.71194(10)
H86_27 H 0.4596 0.1034 0.7040
C136_27 C 0.44760(9) 0.11944(12) 0.72884(10)
H87_27 H 0.4602 0.1261 0.7329
C137_27 C 0.42924(9) 0.12310(10) 0.73985(10)
H88_27 H 0.4296 0.1323 0.7515
C138_27 C 0.35863(9) 0.01534(9) 0.66482(9)
H89_27 H 0.3477 0.0053 0.6636
C139_27 C 0.35944(11) 0.02795(10) 0.68264(10)
H90_27 H 0.3489 0.0269 0.6930
C140_27 C 0.37551(9) 0.04177(10) 0.68501(10)
H91_27 H 0.3765 0.0502 0.6972
C141_27 C 0.39057(8) 0.04333(8) 0.66906(8)
C142_27 C 0.38826(7) 0.03065(8) 0.65169(8)
H92_27 H 0.3983 0.0318 0.6408
C143_27 C 0.40791(8) 0.05847(8) 0.67038(8)
C144_27 C 0.42619(8) 0.08270(9) 0.68823(8)
C145_27 C 0.43553(8) 0.07422(9) 0.65570(8)
C146_27 C 0.46242(7) 0.09565(8) 0.63725(9)
H93_27 H 0.4628 0.1044 0.6493
C147_27 C 0.44878(8) 0.07836(9) 0.63729(9)
C148_27 C 0.44790(9) 0.06601(10) 0.61928(9)
H94_27 H 0.4388 0.0543 0.6185
C149_27 C 0.46063(11) 0.07141(11) 0.60256(10)
H95_27 H 0.4603 0.0634 0.5900
C150_27 C 0.47377(9) 0.08842(10) 0.60415(9)
H96_27 H 0.4825 0.0918 0.5926
N49_27 N 0.41093(7) 0.11413(7) 0.73473(6)
N51_27 N 0.42030(6) 0.06052(7) 0.65364(7)
N52_27 N 0.40990(7) 0.06961(7) 0.68807(7)
N53_27 N 0.43970(7) 0.08523(8) 0.67285(7)
N54_27 N 0.47466(7) 0.10040(7) 0.62139(7)
C151_27 C 0.35172(8) 0.09302(8) 0.71879(8)
N55_27 N 0.36377(7) 0.10431(7) 0.72646(6)
S7_27 S 0.33475(3) 0.07689(3) 0.70888(3)
C152_11 C 0.24874(9) 0.17504(12) 0.63009(12)
N56_11 N 0.25126(7) 0.15750(8) 0.62722(7)
S8_11 S 0.24509(4) 0.19984(4) 0.63430(7)
C153_11 C 0.11991(12) 0.00126(9) 0.67504(12)
S9_11 S 0.11570(7) 0.00491(4) 0.69984(4)
N64_27 N 0.35067(7) 0.12273(7) 0.76681(7)
N68_11 N 0.27534(7) 0.12861(7) 0.60040(7)
C39_11 C 0.10084(8) 0.91105(8) 0.71878(7)
H25_11 H 0.0940 0.8983 0.7154
C40_11 C 0.09633(9) 0.92845(8) 0.70684(8)
C41_11 C 0.10600(11) 0.94733(9) 0.71194(10)
H26_11 H 0.1034 0.9596 0.7040
C42_11 C 0.11944(12) 0.94760(9) 0.72884(10)
H27_11 H 0.1261 0.9602 0.7329
C43_11 C 0.12310(10) 0.92924(9) 0.73985(10)
H28_11 H 0.1323 0.9296 0.7515
C44_11 C 0.01534(9) 0.85863(9) 0.66482(9)
H29_11 H 0.0053 0.8477 0.6636
C45_11 C 0.02795(10) 0.85944(11) 0.68264(10)
H30_11 H 0.0269 0.8489 0.6930
C46_11 C 0.04177(10) 0.87551(9) 0.68501(10)
H31_11 H 0.0502 0.8765 0.6972
C47_11 C 0.04333(8) 0.89057(8) 0.66906(8)
C48_11 C 0.03065(8) 0.88826(7) 0.65169(8)
H32_11 H 0.0318 0.8983 0.6408
C49_11 C 0.05847(8) 0.90791(8) 0.67038(8)
C50_11 C 0.08270(9) 0.92619(8) 0.68823(8)
C51_11 C 0.07422(9) 0.93553(8) 0.65570(8)
C52_11 C 0.09565(8) 0.96242(7) 0.63725(9)
H33_11 H 0.1044 0.9628 0.6493
C53_11 C 0.07836(9) 0.94878(8) 0.63729(9)
C54_11 C 0.06601(10) 0.94790(9) 0.61928(9)
H34_11 H 0.0543 0.9388 0.6185
C55_11 C 0.07141(11) 0.96063(11) 0.60256(10)
H35_11 H 0.0634 0.9603 0.5900
C56_11 C 0.08842(10) 0.97377(9) 0.60415(9)
H36_11 H 0.0918 0.9825 0.5926
N17_11 N 0.06052(7) 0.92030(6) 0.65364(7)
N18_11 N 0.06961(7) 0.90990(7) 0.68807(7)
N19_11 N 0.08523(8) 0.93970(7) 0.67285(7)
N20_11 N 0.10040(7) 0.97466(7) 0.62139(7)
N21_11 N 0.12722(7) 0.99874(7) 0.59250(8)
N57_11 N 0.12278(7) 0.99874(7) 0.65750(8)
N69_11 N 0.14960(7) 0.97466(7) 0.62861(7)
C20_12 C 0.00126(9) 0.67504(12) 0.11991(12)
S2_12 S 0.00491(4) 0.69984(4) 0.11570(7)
C39_12 C 0.14916(8) 0.83895(8) 0.21878(7)
H25_12 H 0.1560 0.8517 0.2154
C40_12 C 0.15367(9) 0.82155(8) 0.20684(8)
C41_12 C 0.14400(11) 0.80267(9) 0.21194(10)
H26_12 H 0.1466 0.7904 0.2040
C42_12 C 0.13056(12) 0.80240(9) 0.22884(10)
H27_12 H 0.1239 0.7898 0.2329
C43_12 C 0.12690(10) 0.82076(9) 0.23985(10)
H28_12 H 0.1177 0.8204 0.2515
C44_12 C 0.23466(9) 0.89137(9) 0.16482(9)
H29_12 H 0.2447 0.9023 0.1636
C45_12 C 0.22205(10) 0.89056(11) 0.18264(10)
H30_12 H 0.2231 0.9011 0.1930
C46_12 C 0.20823(10) 0.87449(9) 0.18501(10)
H31_12 H 0.1998 0.8735 0.1972
C47_12 C 0.20667(8) 0.85943(8) 0.16906(8)
C48_12 C 0.21935(8) 0.86174(7) 0.15169(8)
H32_12 H 0.2182 0.8517 0.1408
C49_12 C 0.19153(8) 0.84209(8) 0.17038(8)
C50_12 C 0.16730(9) 0.82381(8) 0.18823(8)
C51_12 C 0.17578(9) 0.81447(8) 0.15570(8)
C52_12 C 0.15435(8) 0.78758(7) 0.13725(9)
H33_12 H 0.1456 0.7872 0.1493
C53_12 C 0.17164(9) 0.80122(8) 0.13729(9)
C54_12 C 0.18399(10) 0.80210(9) 0.11928(9)
H34_12 H 0.1957 0.8112 0.1185
C55_12 C 0.17859(11) 0.78937(11) 0.10256(10)
H35_12 H 0.1866 0.7897 0.0900
C56_12 C 0.16158(10) 0.77623(9) 0.10415(9)
H36_12 H 0.1582 0.7675 0.0926
C57_12 C 0.11991(12) 0.74874(9) 0.07496(12)
C58_20 C 0.08293(11) 0.73240(10) 0.11136(12)
H37_20 H 0.0841 0.7427 0.1007
C59_20 C 0.06527(12) 0.72075(12) 0.11214(13)
H38_20 H 0.0541 0.7234 0.1027
C60_20 C 0.06355(12) 0.70481(13) 0.12702(12)
H39_20 H 0.0514 0.6963 0.1278
C61_20 C 0.08011(10) 0.70178(9) 0.14067(10)
C62_20 C 0.09741(8) 0.71504(8) 0.13923(9)
H40_20 H 0.1086 0.7133 0.1489
C63_20 C 0.07939(9) 0.68567(9) 0.15696(10)
N17_12 N 0.18948(7) 0.82970(6) 0.15364(7)
N18_12 N 0.18039(7) 0.84010(7) 0.18807(7)
N19_12 N 0.16477(8) 0.81030(7) 0.17285(7)
N20_12 N 0.14960(7) 0.77534(7) 0.12139(7)
N21_12 N 0.12278(7) 0.75126(7) 0.09250(8)
N22_12 N 0.09886(7) 0.72999(7) 0.12494(7)
N23_20 N 0.09440(8) 0.68603(7) 0.17137(8)
S3_12 S 0.11570(7) 0.74509(4) 0.05016(4)
C64_20 C 0.01760(10) 0.61136(12) 0.16707(11)
H41_20 H 0.0073 0.6007 0.1659
C65_20 C 0.02925(12) 0.61214(13) 0.18473(12)
H42_20 H 0.0266 0.6027 0.1959
C66_20 C 0.04519(13) 0.62702(12) 0.18645(12)
H43_20 H 0.0537 0.6278 0.1986
C67_20 C 0.04822(9) 0.64067(10) 0.16989(10)
C68_20 C 0.03496(8) 0.63923(9) 0.15259(8)
H44_20 H 0.0367 0.6489 0.1414
C69_20 C 0.06433(9) 0.65696(10) 0.17061(9)
N24_12 N 0.02001(7) 0.62494(7) 0.15114(7)
N25_20 N 0.06397(7) 0.67137(8) 0.15560(8)
C70_20 C 0.13864(12) 0.66707(11) 0.23240(10)
H45_20 H 0.1493 0.6659 0.2427
C71_20 C 0.13786(13) 0.68473(12) 0.22075(12)
H46_20 H 0.1473 0.6959 0.2234
C72_20 C 0.12298(12) 0.68645(12) 0.20481(13)
H47_20 H 0.1222 0.6986 0.1963
C73_20 C 0.10933(10) 0.66989(10) 0.20178(9)
C74_20 C 0.11077(9) 0.65259(8) 0.21504(8)
H48_20 H 0.1011 0.6414 0.2133
C75_20 C 0.09304(10) 0.67061(9) 0.18567(9)
N26_20 N 0.12506(7) 0.65114(7) 0.22999(7)
N27_20 N 0.07863(8) 0.65560(8) 0.18603(7)
C152_12 C 0.00126(9) 0.57496(12) 0.13009(12)
S8_12 S 0.00491(4) 0.55016(4) 0.13430(7)
C153_12 C 0.13009(12) 0.74874(9) 0.17504(12)
N57_12 N 0.12722(7) 0.75126(7) 0.15750(8)
S9_12 S 0.13430(7) 0.74509(4) 0.19984(4)
N69_12 N 0.10040(7) 0.77534(7) 0.12861(7)
C1_12 C 0.91105(8) 0.53122(7) 0.14916(8)
H1_12 H 0.8983 0.5346 0.1560
C2_12 C 0.92845(8) 0.54316(8) 0.15367(9)
C3_12 C 0.94733(9) 0.53806(10) 0.14400(11)
H2_12 H 0.9596 0.5460 0.1466
C4_12 C 0.94760(9) 0.52116(10) 0.13056(12)
H3_12 H 0.9602 0.5171 0.1239
C5_12 C 0.92924(9) 0.51015(10) 0.12690(10)
H4_12 H 0.9296 0.4985 0.1177
C6_28 C 0.84302(8) 0.60172(8) 0.28121(8)
C7_12 C 0.85863(9) 0.58518(9) 0.23466(9)
H5_12 H 0.8477 0.5864 0.2447
C8_12 C 0.85944(11) 0.56736(10) 0.22205(10)
H6_12 H 0.8489 0.5570 0.2231
C9_12 C 0.87551(9) 0.56499(10) 0.20823(10)
H7_12 H 0.8765 0.5528 0.1998
C10_12 C 0.89057(8) 0.58094(8) 0.20667(8)
C11_12 C 0.88826(7) 0.59831(8) 0.21935(8)
H8_12 H 0.8983 0.6092 0.2182
C12_12 C 0.90791(8) 0.57962(8) 0.19153(8)
C13_12 C 0.92619(8) 0.56177(8) 0.16730(9)
C14_12 C 0.93553(8) 0.59430(8) 0.17578(9)
C15_12 C 0.96242(7) 0.61275(9) 0.15435(8)
H9_12 H 0.9628 0.6007 0.1456
C16_12 C 0.94878(8) 0.61271(9) 0.17164(9)
C17_12 C 0.94790(9) 0.63072(9) 0.18399(10)
H10_12 H 0.9388 0.6315 0.1957
C18_12 C 0.96063(11) 0.64744(10) 0.17859(11)
H11_12 H 0.9603 0.6600 0.1866
C19_12 C 0.97377(9) 0.64585(9) 0.16158(10)
H12_12 H 0.9825 0.6574 0.1582
Co1_15 Co 0.869519(11) 0.630481(11) 0.2500
N2_28 N 0.85431(7) 0.61377(7) 0.27354(6)
N3_12 N 0.87273(7) 0.60067(7) 0.23319(7)
N4_12 N 0.92030(6) 0.59636(7) 0.18948(7)
N5_12 N 0.90990(7) 0.56193(7) 0.18039(7)
N6_12 N 0.93970(7) 0.57715(7) 0.16477(8)
N7_12 N 0.97466(7) 0.62861(7) 0.14960(7)
N8_12 N 0.99874(7) 0.65750(8) 0.12278(7)
S1_28 S 0.82689(3) 0.58475(3) 0.29112(3)
C114_28 C 0.85084(8) 0.66105(8) 0.28122(7)
H73_28 H 0.8440 0.6483 0.2846
C115_28 C 0.84633(9) 0.67845(8) 0.29316(8)
C116_28 C 0.85600(11) 0.69733(9) 0.28806(10)
H74_28 H 0.8534 0.7096 0.2960
C117_28 C 0.86944(12) 0.69760(9) 0.27116(10)
H75_28 H 0.8761 0.7102 0.2671
C118_28 C 0.87310(10) 0.67924(9) 0.26015(10)
H76_28 H 0.8823 0.6796 0.2485
C120_28 C 0.76534(9) 0.60863(9) 0.33518(9)
H77_28 H 0.7553 0.5977 0.3364
C121_28 C 0.77795(10) 0.60944(11) 0.31736(10)
H78_28 H 0.7769 0.5989 0.3070
C122_28 C 0.79177(10) 0.62551(9) 0.31499(10)
H79_28 H 0.8002 0.6265 0.3028
C123_28 C 0.79333(8) 0.64057(8) 0.33094(8)
C124_28 C 0.78065(8) 0.63826(7) 0.34831(8)
H80_28 H 0.7818 0.6483 0.3592
C125_28 C 0.80847(8) 0.65791(8) 0.32962(8)
C126_28 C 0.83270(9) 0.67619(8) 0.31177(8)
C127_28 C 0.82422(9) 0.68553(8) 0.34430(8)
C128_28 C 0.84565(8) 0.71242(7) 0.36275(9)
H81_28 H 0.8544 0.7128 0.3507
C129_28 C 0.82836(9) 0.69878(8) 0.36271(9)
C130_28 C 0.81601(10) 0.69790(9) 0.38072(9)
H82_28 H 0.8043 0.6888 0.3815
C131_28 C 0.82141(11) 0.71063(11) 0.39744(10)
H83_28 H 0.8134 0.7103 0.4100
C132_28 C 0.83842(10) 0.72377(9) 0.39585(9)
H84_28 H 0.8418 0.7325 0.4074
N42_28 N 0.86413(7) 0.66093(7) 0.26527(6)
N45_28 N 0.81052(7) 0.67030(6) 0.34636(7)
N46_28 N 0.81961(7) 0.65990(7) 0.31193(7)
N47_28 N 0.83523(8) 0.68970(7) 0.32715(7)
N48_28 N 0.85040(7) 0.72466(7) 0.37861(7)
C133_28 C 0.83895(8) 0.64916(8) 0.21878(7)
H85_28 H 0.8517 0.6560 0.2154
C134_28 C 0.82155(8) 0.65367(9) 0.20684(8)
C135_28 C 0.80267(9) 0.64400(11) 0.21194(10)
H86_28 H 0.7904 0.6466 0.2040
C136_28 C 0.80240(9) 0.63056(12) 0.22884(10)
H87_28 H 0.7898 0.6239 0.2329
C137_28 C 0.82076(9) 0.62690(10) 0.23985(10)
H88_28 H 0.8204 0.6177 0.2515
C138_28 C 0.89137(9) 0.73466(9) 0.16482(9)
H89_28 H 0.9023 0.7447 0.1636
C139_28 C 0.89056(11) 0.72205(10) 0.18264(10)
H90_28 H 0.9011 0.7231 0.1930
C140_28 C 0.87449(9) 0.70823(10) 0.18501(10)
H91_28 H 0.8735 0.6998 0.1972
C141_28 C 0.85943(8) 0.70667(8) 0.16906(8)
C142_28 C 0.86174(7) 0.71935(8) 0.15169(8)
H92_28 H 0.8517 0.7182 0.1408
C143_28 C 0.84209(8) 0.69153(8) 0.17038(8)
C144_28 C 0.82381(8) 0.66730(9) 0.18823(8)
C145_28 C 0.81447(8) 0.67578(9) 0.15570(8)
C146_28 C 0.78758(7) 0.65435(8) 0.13725(9)
H93_28 H 0.7872 0.6456 0.1493
C147_28 C 0.80122(8) 0.67164(9) 0.13729(9)
C148_28 C 0.80210(9) 0.68399(10) 0.11928(9)
H94_28 H 0.8112 0.6957 0.1185
C149_28 C 0.78937(11) 0.67859(11) 0.10256(10)
H95_28 H 0.7897 0.6866 0.0900
C150_28 C 0.77623(9) 0.66158(10) 0.10415(9)
H96_28 H 0.7675 0.6582 0.0926
N49_28 N 0.83907(7) 0.63587(7) 0.23473(6)
N51_28 N 0.82970(6) 0.68948(7) 0.15364(7)
N52_28 N 0.84010(7) 0.68039(7) 0.18807(7)
N53_28 N 0.81030(7) 0.66477(8) 0.17285(7)
N54_28 N 0.77534(7) 0.64960(7) 0.12139(7)
C151_28 C 0.89828(8) 0.65698(8) 0.21879(8)
N55_28 N 0.88623(7) 0.64569(7) 0.22646(6)
S7_28 S 0.91525(3) 0.67311(3) 0.20888(3)
N56_12 N 0.99874(7) 0.59250(8) 0.12722(7)
N64_28 N 0.89933(7) 0.62727(7) 0.26681(7)
N68_12 N 0.97466(7) 0.62139(7) 0.10040(7)
C95_25 C 0.33895(8) 0.03122(7) 0.60084(8)
H61_25 H 0.3517 0.0346 0.5940
C96_25 C 0.32155(8) 0.04316(8) 0.59633(9)
C97_25 C 0.30267(9) 0.03806(10) 0.60600(11)
H62_25 H 0.2904 0.0460 0.6034
C98_25 C 0.30240(9) 0.02116(10) 0.61944(12)
H63_25 H 0.2898 0.0171 0.6261
C99_25 C 0.32076(9) 0.01015(10) 0.62310(10)
C100_25 C 0.39137(9) 0.08518(9) 0.51534(9)
H65_25 H 0.4023 0.0864 0.5053
C101_25 C 0.39056(11) 0.06736(10) 0.52795(10)
H66_25 H 0.4011 0.0570 0.5269
C102_25 C 0.37449(9) 0.06499(10) 0.54177(10)
H67_25 H 0.3735 0.0528 0.5502
C103_25 C 0.35943(8) 0.08094(8) 0.54333(8)
C104_25 C 0.36174(7) 0.09831(8) 0.53065(8)
H68_25 H 0.3517 0.1092 0.5318
C105_25 C 0.34209(8) 0.07962(8) 0.55847(8)
C106_25 C 0.32381(8) 0.06177(8) 0.58270(9)
C107_25 C 0.31447(8) 0.09430(8) 0.57422(9)
C108_25 C 0.28758(7) 0.11275(9) 0.59565(8)
H69_25 H 0.2872 0.1007 0.6044
C109_25 C 0.30122(8) 0.11271(9) 0.57836(9)
C110_25 C 0.30210(9) 0.13072(9) 0.56601(10)
H70_25 H 0.3112 0.1315 0.5543
C111_25 C 0.28937(11) 0.14744(10) 0.57141(11)
H71_25 H 0.2897 0.1600 0.5634
C112_25 C 0.27623(9) 0.14585(9) 0.58842(10)
H72_25 H 0.2675 0.1574 0.5918
N37_25 N 0.32970(6) 0.09636(7) 0.56052(7)
N38_25 N 0.34010(7) 0.06193(7) 0.56961(7)
N39_25 N 0.31030(7) 0.07715(7) 0.58523(8)
H64_25 H 0.3204 0.9985 0.6323
C119_25 C 0.89828(8) 0.71879(8) 0.65698(8)
N43_25 N 0.88623(7) 0.72646(6) 0.64569(7)
S6_25 S 0.91525(3) 0.70888(3) 0.67311(3)
C154_25 C 0.84302(8) 0.78121(8) 0.60172(8)
N58_25 N 0.85431(7) 0.77354(6) 0.61377(7)
S10_25 S 0.82689(3) 0.79112(3) 0.58475(3)
C95_26 C 0.83895(8) 0.21878(7) 0.14916(8)
H61_26 H 0.8517 0.2154 0.1560
C96_26 C 0.82155(8) 0.20684(8) 0.15367(9)
C97_26 C 0.80267(9) 0.21194(10) 0.14400(11)
H62_26 H 0.7904 0.2040 0.1466
C98_26 C 0.80240(9) 0.22884(10) 0.13056(12)
H63_26 H 0.7898 0.2329 0.1239
C99_26 C 0.82076(9) 0.23985(10) 0.12690(10)
H64_26 H 0.8204 0.2515 0.1177
C100_26 C 0.89137(9) 0.16482(9) 0.23466(9)
H65_26 H 0.9023 0.1636 0.2447
C101_26 C 0.89056(11) 0.18264(10) 0.22205(10)
H66_26 H 0.9011 0.1930 0.2231
C102_26 C 0.87449(9) 0.18501(10) 0.20823(10)
H67_26 H 0.8735 0.1972 0.1998
C103_26 C 0.85943(8) 0.16906(8) 0.20667(8)
C104_26 C 0.86174(7) 0.15169(8) 0.21935(8)
H68_26 H 0.8517 0.1408 0.2182
C105_26 C 0.84209(8) 0.17038(8) 0.19153(8)
C106_26 C 0.82381(8) 0.18823(8) 0.16730(9)
C107_26 C 0.81447(8) 0.15570(8) 0.17578(9)
C108_26 C 0.78758(7) 0.13725(9) 0.15435(8)
H69_26 H 0.7872 0.1493 0.1456
C109_26 C 0.80122(8) 0.13729(9) 0.17164(9)
C110_26 C 0.80210(9) 0.11928(9) 0.18399(10)
H70_26 H 0.8112 0.1185 0.1957
C111_26 C 0.78937(11) 0.10256(10) 0.17859(11)
H71_26 H 0.7897 0.0900 0.1866
C112_26 C 0.77623(9) 0.10415(9) 0.16158(10)
H72_26 H 0.7675 0.0926 0.1582
N37_26 N 0.82970(6) 0.15364(7) 0.18948(7)
N38_26 N 0.84010(7) 0.18807(7) 0.18039(7)
N39_26 N 0.81030(7) 0.17285(7) 0.16477(8)
C119_26 C 0.39828(8) 0.53121(8) 0.09302(8)
N43_26 N 0.38623(7) 0.52354(6) 0.10431(7)
S6_26 S 0.41525(3) 0.54112(3) 0.07689(3)
C154_26 C 0.34302(8) 0.46879(8) 0.14828(8)
N58_26 N 0.35431(7) 0.47646(6) 0.13623(7)
S10_26 S 0.32689(3) 0.45888(3) 0.16525(3)
C119_27 C 0.35172(8) 0.03121(8) 0.15698(8)
N43_27 N 0.36377(7) 0.02354(6) 0.14569(7)
S6_27 S 0.33475(3) 0.04112(3) 0.17311(3)
C154_27 C 0.40698(8) 0.96879(8) 0.10172(8)
N58_27 N 0.39569(7) 0.97646(6) 0.11377(7)
S10_27 S 0.42311(3) 0.95888(3) 0.08475(3)
C95_27 C 0.91105(8) 0.71878(7) 0.10084(8)
H61_27 H 0.8983 0.7154 0.0940
C96_27 C 0.92845(8) 0.70684(8) 0.09633(9)
C97_27 C 0.94733(9) 0.71194(10) 0.10600(11)
H62_27 H 0.9596 0.7040 0.1034
C98_27 C 0.94760(9) 0.72884(10) 0.11944(12)
H63_27 H 0.9602 0.7329 0.1261
C99_27 C 0.92924(9) 0.73985(10) 0.12310(10)
H64_27 H 0.9296 0.7515 0.1323
C100_27 C 0.85863(9) 0.66482(9) 0.01534(9)
H65_27 H 0.8477 0.6636 0.0053
C101_27 C 0.85944(11) 0.68264(10) 0.02795(10)
H66_27 H 0.8489 0.6930 0.0269
C102_27 C 0.87551(9) 0.68501(10) 0.04177(10)
H67_27 H 0.8765 0.6972 0.0502
C103_27 C 0.89057(8) 0.66906(8) 0.04333(8)
C104_27 C 0.88826(7) 0.65169(8) 0.03065(8)
H68_27 H 0.8983 0.6408 0.0318
C105_27 C 0.90791(8) 0.67038(8) 0.05847(8)
C106_27 C 0.92619(8) 0.68823(8) 0.08270(9)
C107_27 C 0.93553(8) 0.65570(8) 0.07422(9)
C108_27 C 0.96242(7) 0.63725(9) 0.09565(8)
H69_27 H 0.9628 0.6493 0.1044
C109_27 C 0.94878(8) 0.63729(9) 0.07836(9)
C110_27 C 0.94790(9) 0.61928(9) 0.06601(10)
H70_27 H 0.9388 0.6185 0.0543
C111_27 C 0.96063(11) 0.60256(10) 0.07141(11)
H71_27 H 0.9603 0.5900 0.0634
C112_27 C 0.97377(9) 0.60415(9) 0.08842(10)
H72_27 H 0.9825 0.5926 0.0918
N37_27 N 0.92030(6) 0.65364(7) 0.06052(7)
N38_27 N 0.90990(7) 0.68807(7) 0.06961(7)
N39_27 N 0.93970(7) 0.67285(7) 0.08523(8)
C95_28 C 0.41105(8) 0.53122(7) 0.64916(8)
H61_28 H 0.3983 0.5346 0.6560
C96_28 C 0.42845(8) 0.54316(8) 0.65367(9)
C97_28 C 0.44733(9) 0.53806(10) 0.64400(11)
H62_28 H 0.4596 0.5460 0.6466
C98_28 C 0.44760(9) 0.52116(10) 0.63056(12)
H63_28 H 0.4602 0.5171 0.6239
C99_28 C 0.42924(9) 0.51015(10) 0.62690(10)
H64_28 H 0.4296 0.4985 0.6177
C100_28 C 0.35863(9) 0.58518(9) 0.73466(9)
H65_28 H 0.3477 0.5864 0.7447
C101_28 C 0.35944(11) 0.56736(10) 0.72205(10)
H66_28 H 0.3489 0.5570 0.7231
C102_28 C 0.37551(9) 0.56499(10) 0.70823(10)
H67_28 H 0.3765 0.5528 0.6998
C103_28 C 0.39057(8) 0.58094(8) 0.70667(8)
C104_28 C 0.38826(7) 0.59831(8) 0.71935(8)
H68_28 H 0.3983 0.6092 0.7182
C105_28 C 0.40791(8) 0.57962(8) 0.69153(8)
C106_28 C 0.42619(8) 0.56177(8) 0.66730(9)
C107_28 C 0.43553(8) 0.59430(8) 0.67578(9)
C108_28 C 0.46242(7) 0.61275(9) 0.65435(8)
H69_28 H 0.4628 0.6007 0.6456
C109_28 C 0.44878(8) 0.61271(9) 0.67164(9)
C110_28 C 0.44790(9) 0.63072(9) 0.68399(10)
H70_28 H 0.4388 0.6315 0.6957
C111_28 C 0.46063(11) 0.64744(10) 0.67859(11)
H71_28 H 0.4603 0.6600 0.6866
C112_28 C 0.47377(9) 0.64585(9) 0.66158(10)
H72_28 H 0.4825 0.6574 0.6582
N37_28 N 0.42030(6) 0.59636(7) 0.68948(7)
N38_28 N 0.40990(7) 0.56193(7) 0.68039(7)
N39_28 N 0.43970(7) 0.57715(7) 0.66477(8)
C119_28 C 0.85172(8) 0.21879(8) 0.59302(8)
N43_28 N 0.86377(7) 0.22646(6) 0.60431(7)
S6_28 S 0.83475(3) 0.20888(3) 0.57689(3)
C154_28 C 0.90698(8) 0.28121(8) 0.64828(8)
N58_28 N 0.89569(7) 0.27354(6) 0.63623(7)
S10_28 S 0.92311(3) 0.29112(3) 0.66525(3)
C95_29 C 0.10084(8) 0.83895(8) 0.03122(7)
H61_29 H 0.0940 0.8517 0.0346
C96_29 C 0.09633(9) 0.82155(8) 0.04316(8)
C97_29 C 0.10600(11) 0.80267(9) 0.03806(10)
H62_29 H 0.1034 0.7904 0.0460
C98_29 C 0.11944(12) 0.80240(9) 0.02116(10)
H63_29 H 0.1261 0.7898 0.0171
C99_29 C 0.12310(10) 0.82076(9) 0.01015(10)
C100_29 C 0.01534(9) 0.89137(9) 0.08518(9)
H65_29 H 0.0053 0.9023 0.0864
C101_29 C 0.02795(10) 0.89056(11) 0.06736(10)
H66_29 H 0.0269 0.9011 0.0570
C102_29 C 0.04177(10) 0.87449(9) 0.06499(10)
H67_29 H 0.0502 0.8735 0.0528
C103_29 C 0.04333(8) 0.85943(8) 0.08094(8)
C104_29 C 0.03065(8) 0.86174(7) 0.09831(8)
H68_29 H 0.0318 0.8517 0.1092
C105_29 C 0.05847(8) 0.84209(8) 0.07962(8)
C106_29 C 0.08270(9) 0.82381(8) 0.06177(8)
C107_29 C 0.07422(9) 0.81447(8) 0.09430(8)
C108_29 C 0.09565(8) 0.78758(7) 0.11275(9)
H69_29 H 0.1044 0.7872 0.1007
C109_29 C 0.07836(9) 0.80122(8) 0.11271(9)
C110_29 C 0.06601(10) 0.80210(9) 0.13072(9)
H70_29 H 0.0543 0.8112 0.1315
C111_29 C 0.07141(11) 0.78937(11) 0.14744(10)
H71_29 H 0.0634 0.7897 0.1600
C112_29 C 0.08842(10) 0.77623(9) 0.14585(9)
H72_29 H 0.0918 0.7675 0.1574
N36_25 N 0.01681(7) 0.87727(7) 0.10067(7)
N37_29 N 0.06052(7) 0.82970(6) 0.09636(7)
N38_29 N 0.06961(7) 0.84010(7) 0.06193(7)
N39_29 N 0.08523(8) 0.81030(7) 0.07715(7)
Co9_16 Co -0.0000 0.880481(11) 0.130481(11)
C6_29 C 0.14828(8) 0.46879(8) 0.84302(8)
N2_29 N 0.13623(7) 0.47646(6) 0.85431(7)
S1_29 S 0.16525(3) 0.45888(3) 0.82689(3)
H64_29 H 0.1323 0.8204 0.9985
C114_29 C 0.08895(8) 0.46878(7) 0.85084(8)
H73_29 H 0.1017 0.4654 0.8440
C115_29 C 0.07155(8) 0.45684(8) 0.84633(9)
C116_29 C 0.05267(9) 0.46194(10) 0.85600(11)
H74_29 H 0.0404 0.4540 0.8534
C117_29 C 0.05240(9) 0.47884(10) 0.86944(12)
H75_29 H 0.0398 0.4829 0.8761
C118_29 C 0.07076(9) 0.48985(10) 0.87310(10)
H76_29 H 0.0704 0.5015 0.8823
C120_29 C 0.14137(9) 0.41482(9) 0.76534(9)
H77_29 H 0.1523 0.4136 0.7553
C121_29 C 0.14056(11) 0.43264(10) 0.77795(10)
H78_29 H 0.1511 0.4430 0.7769
C122_29 C 0.12449(9) 0.43501(10) 0.79177(10)
H79_29 H 0.1235 0.4472 0.8002
C123_29 C 0.10943(8) 0.41906(8) 0.79333(8)
C124_29 C 0.11174(7) 0.40169(8) 0.78065(8)
H80_29 H 0.1017 0.3908 0.7818
C125_29 C 0.09209(8) 0.42038(8) 0.80847(8)
C126_29 C 0.07381(8) 0.43823(8) 0.83270(9)
C127_29 C 0.06447(8) 0.40570(8) 0.82422(9)
C128_29 C 0.03758(7) 0.38725(9) 0.84565(8)
H81_29 H 0.0372 0.3993 0.8544
C129_29 C 0.05122(8) 0.38729(9) 0.82836(9)
C130_29 C 0.05210(9) 0.36928(9) 0.81601(10)
H82_29 H 0.0612 0.3685 0.8043
C131_29 C 0.03937(11) 0.35256(10) 0.82141(11)
H83_29 H 0.0397 0.3400 0.8134
C132_29 C 0.02623(9) 0.35415(9) 0.83842(10)
H84_29 H 0.0175 0.3426 0.8418
N42_29 N 0.08907(7) 0.48473(6) 0.86413(7)
N45_29 N 0.07970(6) 0.40364(7) 0.81052(7)
N46_29 N 0.09010(7) 0.43807(7) 0.81961(7)
N47_29 N 0.06030(7) 0.42285(7) 0.83523(8)
N48_29 N 0.02534(7) 0.37139(7) 0.85040(7)
C133_29 C 0.10084(8) 0.53122(7) 0.83895(8)
H85_29 H 0.0940 0.5346 0.8517
C134_29 C 0.09633(9) 0.54316(8) 0.82155(8)
C135_29 C 0.10600(11) 0.53806(10) 0.80267(9)
H86_29 H 0.1034 0.5460 0.7904
C136_29 C 0.11944(12) 0.52116(10) 0.80240(9)
H87_29 H 0.1261 0.5171 0.7898
C137_29 C 0.12310(10) 0.51015(10) 0.82076(9)
H88_29 H 0.1323 0.4985 0.8204
C138_29 C 0.01534(9) 0.58518(9) 0.89137(9)
H89_29 H 0.0053 0.5864 0.9023
C139_29 C 0.02795(10) 0.56736(10) 0.89056(11)
H90_29 H 0.0269 0.5570 0.9011
C140_29 C 0.04177(10) 0.56499(10) 0.87449(9)
H91_29 H 0.0502 0.5528 0.8735
C141_29 C 0.04333(8) 0.58094(8) 0.85943(8)
C142_29 C 0.03065(8) 0.59831(8) 0.86174(7)
H92_29 H 0.0318 0.6092 0.8517
C143_29 C 0.05847(8) 0.57962(8) 0.84209(8)
C144_29 C 0.08270(9) 0.56177(8) 0.82381(8)
C145_29 C 0.07422(9) 0.59430(8) 0.81447(8)
C146_29 C 0.09565(8) 0.61275(9) 0.78758(7)
H93_29 H 0.1044 0.6007 0.7872
C147_29 C 0.07836(9) 0.61271(9) 0.80122(8)
C148_29 C 0.06601(10) 0.63072(9) 0.80210(9)
H94_29 H 0.0543 0.6315 0.8112
C149_29 C 0.07141(11) 0.64744(10) 0.78937(11)
H95_29 H 0.0634 0.6600 0.7897
C150_29 C 0.08842(10) 0.64585(9) 0.77623(9)
H96_29 H 0.0918 0.6574 0.7675
N49_29 N 0.11413(7) 0.51527(6) 0.83907(7)
N51_29 N 0.06052(7) 0.59636(7) 0.82970(6)
N52_29 N 0.06961(7) 0.56193(7) 0.84010(7)
N53_29 N 0.08523(8) 0.57715(7) 0.81030(7)
N54_29 N 0.10040(7) 0.62861(7) 0.77534(7)
C151_29 C 0.09302(8) 0.53121(8) 0.89828(8)
N55_29 N 0.10431(7) 0.52354(6) 0.88623(7)
S7_29 S 0.07689(3) 0.54112(3) 0.91525(3)
C155_13 C 0.21879(8) 0.59302(8) 0.85172(8)
N59_13 N 0.22646(6) 0.60431(7) 0.86377(7)
S11_13 S 0.20888(3) 0.57689(3) 0.83475(3)
C156_13 C 0.28121(8) 0.64828(8) 0.90698(8)
N60_13 N 0.27354(6) 0.63623(7) 0.89569(7)
S12_13 S 0.29112(3) 0.66525(3) 0.92311(3)
Co9_17 Co 1.0000 0.880481(11) 0.130481(11)
C95_30 C 0.64916(8) 0.33895(8) 0.21878(7)
H61_30 H 0.6560 0.3517 0.2154
C96_30 C 0.65367(9) 0.32155(8) 0.20684(8)
C97_30 C 0.64400(11) 0.30267(9) 0.21194(10)
H62_30 H 0.6466 0.2904 0.2040
C98_30 C 0.63056(12) 0.30240(9) 0.22884(10)
H63_30 H 0.6239 0.2898 0.2329
C99_30 C 0.62690(10) 0.32076(9) 0.23985(10)
H64_30 H 0.6177 0.3204 0.2515
C100_30 C 0.73466(9) 0.39137(9) 0.16482(9)
H65_30 H 0.7447 0.4023 0.1636
C101_30 C 0.72205(10) 0.39056(11) 0.18264(10)
H66_30 H 0.7231 0.4011 0.1930
C102_30 C 0.70823(10) 0.37449(9) 0.18501(10)
H67_30 H 0.6998 0.3735 0.1972
C103_30 C 0.70667(8) 0.35943(8) 0.16906(8)
C104_30 C 0.71935(8) 0.36174(7) 0.15169(8)
H68_30 H 0.7182 0.3517 0.1408
C105_30 C 0.69153(8) 0.34209(8) 0.17038(8)
C106_30 C 0.66730(9) 0.32381(8) 0.18823(8)
C107_30 C 0.67578(9) 0.31447(8) 0.15570(8)
C108_30 C 0.65435(8) 0.28758(7) 0.13725(9)
H69_30 H 0.6456 0.2872 0.1493
C109_30 C 0.67164(9) 0.30122(8) 0.13729(9)
C110_30 C 0.68399(10) 0.30210(9) 0.11928(9)
H70_30 H 0.6957 0.3112 0.1185
C111_30 C 0.67859(11) 0.28937(11) 0.10256(10)
H71_30 H 0.6866 0.2897 0.0900
C112_30 C 0.66158(10) 0.27623(9) 0.10415(9)
H72_30 H 0.6582 0.2675 0.0926
N36_26 N 0.73319(7) 0.37727(7) 0.14933(7)
N37_30 N 0.68948(7) 0.32970(6) 0.15364(7)
N38_30 N 0.68039(7) 0.34010(7) 0.18807(7)
N39_30 N 0.66477(8) 0.31030(7) 0.17285(7)
H76_30 H 0.6796 0.0015 0.3677
C133_30 C 0.64916(8) 0.03122(7) 0.41105(8)
H85_30 H 0.6560 0.0346 0.3983
C134_30 C 0.65367(9) 0.04316(8) 0.42845(8)
C135_30 C 0.64400(11) 0.03806(10) 0.44733(9)
H86_30 H 0.6466 0.0460 0.4596
C136_30 C 0.63056(12) 0.02116(10) 0.44760(9)
H87_30 H 0.6239 0.0171 0.4602
C137_30 C 0.62690(10) 0.01015(10) 0.42924(9)
C138_30 C 0.73466(9) 0.08518(9) 0.35863(9)
H89_30 H 0.7447 0.0864 0.3477
C139_30 C 0.72205(10) 0.06736(10) 0.35944(11)
H90_30 H 0.7231 0.0570 0.3489
C140_30 C 0.70823(10) 0.06499(10) 0.37551(9)
H91_30 H 0.6998 0.0528 0.3765
C141_30 C 0.70667(8) 0.08094(8) 0.39057(8)
C142_30 C 0.71935(8) 0.09831(8) 0.38826(7)
H92_30 H 0.7182 0.1092 0.3983
C143_30 C 0.69153(8) 0.07962(8) 0.40791(8)
C144_30 C 0.66730(9) 0.06177(8) 0.42619(8)
C145_30 C 0.67578(9) 0.09430(8) 0.43553(8)
C146_30 C 0.65435(8) 0.11275(9) 0.46242(7)
H93_30 H 0.6456 0.1007 0.4628
C147_30 C 0.67164(9) 0.11271(9) 0.44878(8)
C148_30 C 0.68399(10) 0.13072(9) 0.44790(9)
H94_30 H 0.6957 0.1315 0.4388
C149_30 C 0.67859(11) 0.14744(10) 0.46063(11)
H95_30 H 0.6866 0.1600 0.4603
C150_30 C 0.66158(10) 0.14585(9) 0.47377(9)
H96_30 H 0.6582 0.1574 0.4825
N49_30 N 0.63587(7) 0.01527(6) 0.41093(7)
N51_30 N 0.68948(7) 0.09636(7) 0.42030(6)
N52_30 N 0.68039(7) 0.06193(7) 0.40990(7)
N53_30 N 0.66477(8) 0.07715(7) 0.43970(7)
N54_30 N 0.64960(7) 0.12861(7) 0.47466(7)
C151_30 C 0.65698(8) 0.03121(8) 0.35172(8)
N55_30 N 0.64569(7) 0.02354(6) 0.36377(7)
S7_30 S 0.67311(3) 0.04112(3) 0.33475(3)
C155_14 C 0.53121(8) 0.09302(8) 0.39828(8)
N59_14 N 0.52354(6) 0.10431(7) 0.38623(7)
S11_14 S 0.54112(3) 0.07689(3) 0.41525(3)
C156_14 C 0.46879(8) 0.14828(8) 0.34302(8)
N60_14 N 0.47646(6) 0.13623(7) 0.35431(7)
S12_14 S 0.45888(3) 0.16525(3) 0.32689(3)
Co9_18 Co 0.7500 0.380481(11) 0.119519(11)
C6_30 C 0.60172(8) 0.96879(8) 0.40698(8)
N2_30 N 0.61377(7) 0.97646(6) 0.39569(7)
S1_30 S 0.58475(3) 0.95888(3) 0.42311(3)
C114_30 C 0.66105(8) 0.96878(7) 0.39916(8)
H73_30 H 0.6483 0.9654 0.4060
C115_30 C 0.67845(8) 0.95684(8) 0.40367(9)
C116_30 C 0.69733(9) 0.96194(10) 0.39400(11)
H74_30 H 0.7096 0.9540 0.3966
C117_30 C 0.69760(9) 0.97884(10) 0.38056(12)
H75_30 H 0.7102 0.9829 0.3739
C118_30 C 0.67924(9) 0.98985(10) 0.37690(10)
C120_30 C 0.60863(9) 0.91482(9) 0.48466(9)
H77_30 H 0.5977 0.9136 0.4947
C121_30 C 0.60944(11) 0.93264(10) 0.47205(10)
H78_30 H 0.5989 0.9430 0.4731
C122_30 C 0.62551(9) 0.93501(10) 0.45823(10)
H79_30 H 0.6265 0.9472 0.4498
C123_30 C 0.64057(8) 0.91906(8) 0.45667(8)
C124_30 C 0.63826(7) 0.90169(8) 0.46935(8)
H80_30 H 0.6483 0.8908 0.4682
C125_30 C 0.65791(8) 0.92038(8) 0.44153(8)
C126_30 C 0.67619(8) 0.93823(8) 0.41730(9)
C127_30 C 0.68553(8) 0.90570(8) 0.42578(9)
C128_30 C 0.71242(7) 0.88725(9) 0.40435(8)
H81_30 H 0.7128 0.8993 0.3956
C129_30 C 0.69878(8) 0.88729(9) 0.42164(9)
C130_30 C 0.69790(9) 0.86928(9) 0.43399(10)
H82_30 H 0.6888 0.8685 0.4457
C131_30 C 0.71063(11) 0.85256(10) 0.42859(11)
H83_30 H 0.7103 0.8400 0.4366
C132_30 C 0.72377(9) 0.85415(9) 0.41158(10)
H84_30 H 0.7325 0.8426 0.4082
N42_30 N 0.66093(7) 0.98473(6) 0.38587(7)
N45_30 N 0.67030(6) 0.90364(7) 0.43948(7)
N46_30 N 0.65990(7) 0.93807(7) 0.43039(7)
N47_30 N 0.68970(7) 0.92285(7) 0.41477(8)
N48_30 N 0.72466(7) 0.87139(7) 0.39960(7)
H88_30 H 0.6177 0.9985 0.4296
C6_31 C 0.64828(8) 0.78121(8) 0.90698(8)
N2_31 N 0.63623(7) 0.77354(6) 0.89569(7)
S1_31 S 0.66525(3) 0.79112(3) 0.92311(3)
C95_31 C 0.60084(8) 0.41105(8) 0.71878(7)
H61_31 H 0.5940 0.3983 0.7154
C96_31 C 0.59633(9) 0.42845(8) 0.70684(8)
C97_31 C 0.60600(11) 0.44733(9) 0.71194(10)
H62_31 H 0.6034 0.4596 0.7040
C98_31 C 0.61944(12) 0.44760(9) 0.72884(10)
H63_31 H 0.6261 0.4602 0.7329
C99_31 C 0.62310(10) 0.42924(9) 0.73985(10)
H64_31 H 0.6323 0.4296 0.7515
C100_31 C 0.51534(9) 0.35863(9) 0.66482(9)
H65_31 H 0.5053 0.3477 0.6636
C101_31 C 0.52795(10) 0.35944(11) 0.68264(10)
H66_31 H 0.5269 0.3489 0.6930
C102_31 C 0.54177(10) 0.37551(9) 0.68501(10)
H67_31 H 0.5502 0.3765 0.6972
C103_31 C 0.54333(8) 0.39057(8) 0.66906(8)
C104_31 C 0.53065(8) 0.38826(7) 0.65169(8)
H68_31 H 0.5318 0.3983 0.6408
C105_31 C 0.55847(8) 0.40791(8) 0.67038(8)
C106_31 C 0.58270(9) 0.42619(8) 0.68823(8)
C107_31 C 0.57422(9) 0.43553(8) 0.65570(8)
C108_31 C 0.59565(8) 0.46242(7) 0.63725(9)
H69_31 H 0.6044 0.4628 0.6493
C109_31 C 0.57836(9) 0.44878(8) 0.63729(9)
C110_31 C 0.56601(10) 0.44790(9) 0.61928(9)
H70_31 H 0.5543 0.4388 0.6185
C111_31 C 0.57141(11) 0.46063(11) 0.60256(10)
H71_31 H 0.5634 0.4603 0.5900
C112_31 C 0.58842(10) 0.47377(9) 0.60415(9)
H72_31 H 0.5918 0.4825 0.5926
N36_27 N 0.51681(7) 0.37273(7) 0.64933(7)
N37_31 N 0.56052(7) 0.42030(6) 0.65364(7)
N38_31 N 0.56961(7) 0.40990(7) 0.68807(7)
N39_31 N 0.58523(8) 0.43970(7) 0.67285(7)
C114_31 C 0.58895(8) 0.78122(7) 0.89916(8)
H73_31 H 0.6017 0.7846 0.9060
C115_31 C 0.57155(8) 0.79316(8) 0.90367(9)
C116_31 C 0.55267(9) 0.78806(10) 0.89400(11)
H74_31 H 0.5404 0.7960 0.8966
C117_31 C 0.55240(9) 0.77116(10) 0.88056(12)
H75_31 H 0.5398 0.7671 0.8739
C118_31 C 0.57076(9) 0.76015(10) 0.87690(10)
H76_31 H 0.5704 0.7485 0.8677
C120_31 C 0.64137(9) 0.83518(9) 0.98466(9)
H77_31 H 0.6523 0.8364 0.9947
C121_31 C 0.64056(11) 0.81736(10) 0.97205(10)
H78_31 H 0.6511 0.8070 0.9731
C122_31 C 0.62449(9) 0.81499(10) 0.95823(10)
H79_31 H 0.6235 0.8028 0.9498
C123_31 C 0.60943(8) 0.83094(8) 0.95667(8)
C124_31 C 0.61174(7) 0.84831(8) 0.96935(8)
H80_31 H 0.6017 0.8592 0.9682
C125_31 C 0.59209(8) 0.82962(8) 0.94153(8)
C126_31 C 0.57381(8) 0.81177(8) 0.91730(9)
C127_31 C 0.56447(8) 0.84430(8) 0.92578(9)
C128_31 C 0.53758(7) 0.86275(9) 0.90435(8)
H81_31 H 0.5372 0.8507 0.8956
C129_31 C 0.55122(8) 0.86271(9) 0.92164(9)
C130_31 C 0.55210(9) 0.88072(9) 0.93399(10)
H82_31 H 0.5612 0.8815 0.9457
C131_31 C 0.53937(11) 0.89744(10) 0.92859(11)
H83_31 H 0.5397 0.9100 0.9366
C132_31 C 0.52623(9) 0.89585(9) 0.91158(10)
H84_31 H 0.5175 0.9074 0.9082
N42_31 N 0.58907(7) 0.76527(6) 0.88587(7)
N45_31 N 0.57970(6) 0.84636(7) 0.93948(7)
N46_31 N 0.59010(7) 0.81193(7) 0.93039(7)
N47_31 N 0.56030(7) 0.82715(7) 0.91477(8)
N48_31 N 0.52534(7) 0.87861(7) 0.89960(7)
C133_31 C 0.60084(8) 0.71878(7) 0.91105(8)
H85_31 H 0.5940 0.7154 0.8983
C134_31 C 0.59633(9) 0.70684(8) 0.92845(8)
C135_31 C 0.60600(11) 0.71194(10) 0.94733(9)
H86_31 H 0.6034 0.7040 0.9596
C136_31 C 0.61944(12) 0.72884(10) 0.94760(9)
H87_31 H 0.6261 0.7329 0.9602
C137_31 C 0.62310(10) 0.73985(10) 0.92924(9)
H88_31 H 0.6323 0.7515 0.9296
C138_31 C 0.51534(9) 0.66482(9) 0.85863(9)
H89_31 H 0.5053 0.6636 0.8477
C139_31 C 0.52795(10) 0.68264(10) 0.85944(11)
H90_31 H 0.5269 0.6930 0.8489
C140_31 C 0.54177(10) 0.68501(10) 0.87551(9)
H91_31 H 0.5502 0.6972 0.8765
C141_31 C 0.54333(8) 0.66906(8) 0.89057(8)
C142_31 C 0.53065(8) 0.65169(8) 0.88826(7)
H92_31 H 0.5318 0.6408 0.8983
C143_31 C 0.55847(8) 0.67038(8) 0.90791(8)
C144_31 C 0.58270(9) 0.68823(8) 0.92619(8)
C145_31 C 0.57422(9) 0.65570(8) 0.93553(8)
C146_31 C 0.59565(8) 0.63725(9) 0.96242(7)
H93_31 H 0.6044 0.6493 0.9628
C147_31 C 0.57836(9) 0.63729(9) 0.94878(8)
C148_31 C 0.56601(10) 0.61928(9) 0.94790(9)
H94_31 H 0.5543 0.6185 0.9388
C149_31 C 0.57141(11) 0.60256(10) 0.96063(11)
H95_31 H 0.5634 0.5900 0.9603
C150_31 C 0.58842(10) 0.60415(9) 0.97377(9)
H96_31 H 0.5918 0.5926 0.9825
N49_31 N 0.61413(7) 0.73473(6) 0.91093(7)
N51_31 N 0.56052(7) 0.65364(7) 0.92030(6)
N52_31 N 0.56961(7) 0.68807(7) 0.90990(7)
N53_31 N 0.58523(8) 0.67285(7) 0.93970(7)
N54_31 N 0.60040(7) 0.62139(7) 0.97466(7)
C151_31 C 0.59302(8) 0.71879(8) 0.85172(8)
N55_31 N 0.60431(7) 0.72646(6) 0.86377(7)
S7_31 S 0.57689(3) 0.70888(3) 0.83475(3)
C155_15 C 0.71879(8) 0.65698(8) 0.89828(8)
N59_15 N 0.72646(6) 0.64569(7) 0.88623(7)
S11_15 S 0.70888(3) 0.67311(3) 0.91525(3)
C156_15 C 0.78121(8) 0.60172(8) 0.84302(8)
N60_15 N 0.77354(6) 0.61377(7) 0.85431(7)
S12_15 S 0.79112(3) 0.58475(3) 0.82689(3)
Co9_19 Co 0.5000 0.369519(11) 0.619519(11)
C6_32 C 0.10172(8) 0.28121(8) 0.34302(8)
N2_32 N 0.11377(7) 0.27354(6) 0.35431(7)
S1_32 S 0.08475(3) 0.29112(3) 0.32689(3)
C114_32 C 0.16105(8) 0.28122(7) 0.35084(8)
H73_32 H 0.1483 0.2846 0.3440
C115_32 C 0.17845(8) 0.29316(8) 0.34633(9)
C116_32 C 0.19733(9) 0.28806(10) 0.35600(11)
H74_32 H 0.2096 0.2960 0.3534
C117_32 C 0.19760(9) 0.27116(10) 0.36944(12)
H75_32 H 0.2102 0.2671 0.3761
C118_32 C 0.17924(9) 0.26015(10) 0.37310(10)
H76_32 H 0.1796 0.2485 0.3823
C120_32 C 0.10863(9) 0.33518(9) 0.26534(9)
H77_32 H 0.0977 0.3364 0.2553
C121_32 C 0.10944(11) 0.31736(10) 0.27795(10)
H78_32 H 0.0989 0.3070 0.2769
C122_32 C 0.12551(9) 0.31499(10) 0.29177(10)
H79_32 H 0.1265 0.3028 0.3002
C123_32 C 0.14057(8) 0.33094(8) 0.29333(8)
C124_32 C 0.13826(7) 0.34831(8) 0.28065(8)
H80_32 H 0.1483 0.3592 0.2818
C125_32 C 0.15791(8) 0.32962(8) 0.30847(8)
C126_32 C 0.17619(8) 0.31177(8) 0.33270(9)
C127_32 C 0.18553(8) 0.34430(8) 0.32422(9)
C128_32 C 0.21242(7) 0.36275(9) 0.34565(8)
H81_32 H 0.2128 0.3507 0.3544
C129_32 C 0.19878(8) 0.36271(9) 0.32836(9)
C130_32 C 0.19790(9) 0.38072(9) 0.31601(10)
H82_32 H 0.1888 0.3815 0.3043
C131_32 C 0.21063(11) 0.39744(10) 0.32141(11)
H83_32 H 0.2103 0.4100 0.3134
C132_32 C 0.22377(9) 0.39585(9) 0.33842(10)
H84_32 H 0.2325 0.4074 0.3418
N42_32 N 0.16093(7) 0.26527(6) 0.36413(7)
N45_32 N 0.17030(6) 0.34636(7) 0.31052(7)
N46_32 N 0.15990(7) 0.31193(7) 0.31961(7)
N47_32 N 0.18970(7) 0.32715(7) 0.33523(8)
N48_32 N 0.22466(7) 0.37861(7) 0.35040(7)
C133_32 C 0.14916(8) 0.21878(7) 0.33895(8)
H85_32 H 0.1560 0.2154 0.3517
C134_32 C 0.15367(9) 0.20684(8) 0.32155(8)
C135_32 C 0.14400(11) 0.21194(10) 0.30267(9)
H86_32 H 0.1466 0.2040 0.2904
C136_32 C 0.13056(12) 0.22884(10) 0.30240(9)
H87_32 H 0.1239 0.2329 0.2898
C137_32 C 0.12690(10) 0.23985(10) 0.32076(9)
H88_32 H 0.1177 0.2515 0.3204
C138_32 C 0.23466(9) 0.16482(9) 0.39137(9)
H89_32 H 0.2447 0.1636 0.4023
C139_32 C 0.22205(10) 0.18264(10) 0.39056(11)
H90_32 H 0.2231 0.1930 0.4011
C140_32 C 0.20823(10) 0.18501(10) 0.37449(9)
H91_32 H 0.1998 0.1972 0.3735
C141_32 C 0.20667(8) 0.16906(8) 0.35943(8)
C142_32 C 0.21935(8) 0.15169(8) 0.36174(7)
H92_32 H 0.2182 0.1408 0.3517
C143_32 C 0.19153(8) 0.17038(8) 0.34209(8)
C144_32 C 0.16730(9) 0.18823(8) 0.32381(8)
C145_32 C 0.17578(9) 0.15570(8) 0.31447(8)
C146_32 C 0.15435(8) 0.13725(9) 0.28758(7)
H93_32 H 0.1456 0.1493 0.2872
C147_32 C 0.17164(9) 0.13729(9) 0.30122(8)
C148_32 C 0.18399(10) 0.11928(9) 0.30210(9)
H94_32 H 0.1957 0.1185 0.3112
C149_32 C 0.17859(11) 0.10256(10) 0.28937(11)
H95_32 H 0.1866 0.0900 0.2897
C150_32 C 0.16158(10) 0.10415(9) 0.27623(9)
H96_32 H 0.1582 0.0926 0.2675
N49_32 N 0.13587(7) 0.23473(6) 0.33907(7)
N51_32 N 0.18948(7) 0.15364(7) 0.32970(6)
N52_32 N 0.18039(7) 0.18807(7) 0.34010(7)
N53_32 N 0.16477(8) 0.17285(7) 0.31030(7)
N54_32 N 0.14960(7) 0.12139(7) 0.27534(7)
C151_32 C 0.15698(8) 0.21879(8) 0.39828(8)
N55_32 N 0.14569(7) 0.22646(6) 0.38623(7)
S7_32 S 0.17311(3) 0.20888(3) 0.41525(3)
C155_16 C 0.03121(8) 0.15698(8) 0.35172(8)
N59_16 N 0.02354(6) 0.14569(7) 0.36377(7)
S11_16 S 0.04112(3) 0.17311(3) 0.33475(3)
C95_32 C 0.14916(8) 0.91105(8) 0.53122(7)
H61_32 H 0.1560 0.8983 0.5346
C96_32 C 0.15367(9) 0.92845(8) 0.54316(8)
C97_32 C 0.14400(11) 0.94733(9) 0.53806(10)
H62_32 H 0.1466 0.9596 0.5460
C98_32 C 0.13056(12) 0.94760(9) 0.52116(10)
H63_32 H 0.1239 0.9602 0.5171
C99_32 C 0.12690(10) 0.92924(9) 0.51015(10)
H64_32 H 0.1177 0.9296 0.4985
C100_32 C 0.23466(9) 0.85863(9) 0.58518(9)
H65_32 H 0.2447 0.8477 0.5864
C101_32 C 0.22205(10) 0.85944(11) 0.56736(10)
H66_32 H 0.2231 0.8489 0.5570
C102_32 C 0.20823(10) 0.87551(9) 0.56499(10)
H67_32 H 0.1998 0.8765 0.5528
C103_32 C 0.20667(8) 0.89057(8) 0.58094(8)
C104_32 C 0.21935(8) 0.88826(7) 0.59831(8)
H68_32 H 0.2182 0.8983 0.6092
C105_32 C 0.19153(8) 0.90791(8) 0.57962(8)
C106_32 C 0.16730(9) 0.92619(8) 0.56177(8)
C107_32 C 0.17578(9) 0.93553(8) 0.59430(8)
C108_32 C 0.15435(8) 0.96242(7) 0.61275(9)
H69_32 H 0.1456 0.9628 0.6007
C109_32 C 0.17164(9) 0.94878(8) 0.61271(9)
C110_32 C 0.18399(10) 0.94790(9) 0.63072(9)
H70_32 H 0.1957 0.9388 0.6315
C111_32 C 0.17859(11) 0.96063(11) 0.64744(10)
H71_32 H 0.1866 0.9603 0.6600
C112_32 C 0.16158(10) 0.97377(9) 0.64585(9)
H72_32 H 0.1582 0.9825 0.6574
N36_28 N 0.23319(7) 0.87273(7) 0.60067(7)
N37_32 N 0.18948(7) 0.92030(6) 0.59636(7)
N38_32 N 0.18039(7) 0.90990(7) 0.56193(7)
N39_32 N 0.16477(8) 0.93970(7) 0.57715(7)
Co9_20 Co 0.2500 0.869519(11) 0.630481(11)
C156_16 C 0.96879(8) 0.10172(8) 0.40698(8)
N60_16 N 0.97646(6) 0.11377(7) 0.39569(7)
S12_16 S 0.95888(3) 0.08475(3) 0.42311(3)
C6_33 C 0.89828(8) 0.09302(8) 0.53121(8)
N2_33 N 0.88623(7) 0.10431(7) 0.52354(6)
S1_33 S 0.91525(3) 0.07689(3) 0.54112(3)
C39_13 C 0.66105(8) 0.39916(8) 0.46878(7)
H25_13 H 0.6483 0.4060 0.4654
C40_13 C 0.67845(8) 0.40367(9) 0.45684(8)
C41_13 C 0.69733(9) 0.39400(11) 0.46194(10)
H26_13 H 0.7096 0.3966 0.4540
C42_13 C 0.69760(9) 0.38056(12) 0.47884(10)
H27_13 H 0.7102 0.3739 0.4829
C43_13 C 0.67924(9) 0.37690(10) 0.48985(10)
H28_13 H 0.6796 0.3677 0.5015
C44_13 C 0.60863(9) 0.48466(9) 0.41482(9)
H29_13 H 0.5977 0.4947 0.4136
C45_13 C 0.60944(11) 0.47205(10) 0.43264(10)
H30_13 H 0.5989 0.4731 0.4430
C46_13 C 0.62551(9) 0.45823(10) 0.43501(10)
H31_13 H 0.6265 0.4498 0.4472
C47_13 C 0.64057(8) 0.45667(8) 0.41906(8)
C48_13 C 0.63826(7) 0.46935(8) 0.40169(8)
H32_13 H 0.6483 0.4682 0.3908
C49_13 C 0.65791(8) 0.44153(8) 0.42038(8)
C50_13 C 0.67619(8) 0.41730(9) 0.43823(8)
C51_13 C 0.68553(8) 0.42578(9) 0.40570(8)
C52_13 C 0.71242(7) 0.40435(8) 0.38725(9)
H33_13 H 0.7128 0.3956 0.3993
C53_13 C 0.69878(8) 0.42164(9) 0.38729(9)
C54_13 C 0.69790(9) 0.43399(10) 0.36928(9)
H34_13 H 0.6888 0.4457 0.3685
C55_13 C 0.71063(11) 0.42859(11) 0.35256(10)
H35_13 H 0.7103 0.4366 0.3400
C56_13 C 0.72377(9) 0.41158(10) 0.35415(9)
H36_13 H 0.7325 0.4082 0.3426
C57_13 C 0.75126(9) 0.36991(12) 0.32496(12)
N16_9 N 0.62273(7) 0.48319(7) 0.39933(7)
N17_13 N 0.67030(6) 0.43948(7) 0.40364(7)
N18_13 N 0.65990(7) 0.43039(7) 0.43807(7)
N19_13 N 0.68970(7) 0.41477(8) 0.42285(7)
N20_13 N 0.72466(7) 0.39960(7) 0.37139(7)
N21_13 N 0.74874(7) 0.37278(7) 0.34250(8)
S3_13 S 0.75491(4) 0.36570(7) 0.30016(4)
C76_9 C 0.89916(8) 0.46878(7) 0.16105(8)
H49_9 H 0.9060 0.4654 0.1483
C77_9 C 0.90367(9) 0.45684(8) 0.17845(8)
C78_9 C 0.89400(11) 0.46194(10) 0.19733(9)
H50_9 H 0.8966 0.4540 0.2096
C79_9 C 0.88056(12) 0.47884(10) 0.19760(9)
H51_9 H 0.8739 0.4829 0.2102
C80_9 C 0.87690(10) 0.48985(10) 0.17924(9)
H52_9 H 0.8677 0.5015 0.1796
C81_9 C 0.98466(9) 0.41482(9) 0.10863(9)
H53_9 H 0.9947 0.4136 0.0977
C82_9 C 0.97205(10) 0.43264(10) 0.10944(11)
H54_9 H 0.9731 0.4430 0.0989
C83_9 C 0.95823(10) 0.43501(10) 0.12551(9)
H55_9 H 0.9498 0.4472 0.1265
C84_9 C 0.95667(8) 0.41906(8) 0.14057(8)
C85_9 C 0.96935(8) 0.40169(8) 0.13826(7)
H56_9 H 0.9682 0.3908 0.1483
C86_9 C 0.94153(8) 0.42038(8) 0.15791(8)
C87_9 C 0.91730(9) 0.43823(8) 0.17619(8)
C88_9 C 0.92578(9) 0.40570(8) 0.18553(8)
C89_9 C 0.90435(8) 0.38725(9) 0.21242(7)
H57_9 H 0.8956 0.3993 0.2128
C90_9 C 0.92164(9) 0.38729(9) 0.19878(8)
C91_9 C 0.93399(10) 0.36928(9) 0.19790(9)
H58_9 H 0.9457 0.3685 0.1888
C92_9 C 0.92859(11) 0.35256(10) 0.21063(11)
H59_9 H 0.9366 0.3400 0.2103
C93_9 C 0.91158(10) 0.35415(9) 0.22377(9)
H60_9 H 0.9082 0.3426 0.2325
C94_9 C 0.86991(12) 0.32496(12) 0.25126(9)
N30_9 N 0.93948(7) 0.40364(7) 0.17030(6)
N31_9 N 0.93039(7) 0.43807(7) 0.15990(7)
N32_9 N 0.91477(8) 0.42285(7) 0.18970(7)
N33_9 N 0.89960(7) 0.37139(7) 0.22466(7)
N34_9 N 0.87278(7) 0.34250(8) 0.24874(7)
S4_9 S 0.86570(7) 0.30016(4) 0.25491(4)
C95_33 C 0.85084(8) 0.28122(7) 0.16105(8)
H61_33 H 0.8440 0.2846 0.1483
C96_33 C 0.84633(9) 0.29316(8) 0.17845(8)
C97_33 C 0.85600(11) 0.28806(10) 0.19733(9)
H62_33 H 0.8534 0.2960 0.2096
C98_33 C 0.86944(12) 0.27116(10) 0.19760(9)
H63_33 H 0.8761 0.2671 0.2102
C99_33 C 0.87310(10) 0.26015(10) 0.17924(9)
H64_33 H 0.8823 0.2485 0.1796
C100_33 C 0.76534(9) 0.33518(9) 0.10863(9)
H65_33 H 0.7553 0.3364 0.0977
C101_33 C 0.77795(10) 0.31736(10) 0.10944(11)
H66_33 H 0.7769 0.3070 0.0989
C102_33 C 0.79177(10) 0.31499(10) 0.12551(9)
H67_33 H 0.8002 0.3028 0.1265
C103_33 C 0.79333(8) 0.33094(8) 0.14057(8)
C104_33 C 0.78065(8) 0.34831(8) 0.13826(7)
H68_33 H 0.7818 0.3592 0.1483
C105_33 C 0.80847(8) 0.32962(8) 0.15791(8)
C106_33 C 0.83270(9) 0.31177(8) 0.17619(8)
C107_33 C 0.82422(9) 0.34430(8) 0.18553(8)
C108_33 C 0.84565(8) 0.36275(9) 0.21242(7)
H69_33 H 0.8544 0.3507 0.2128
C109_33 C 0.82836(9) 0.36271(9) 0.19878(8)
C110_33 C 0.81601(10) 0.38072(9) 0.19790(9)
H70_33 H 0.8043 0.3815 0.1888
C111_33 C 0.82141(11) 0.39744(10) 0.21063(11)
H71_33 H 0.8134 0.4100 0.2103
C112_33 C 0.83842(10) 0.39585(9) 0.22377(9)
H72_33 H 0.8418 0.4074 0.2325
C113_9 C 0.88009(12) 0.42504(12) 0.25126(9)
N36_29 N 0.76681(7) 0.35067(7) 0.12273(7)
N37_33 N 0.81052(7) 0.34636(7) 0.17030(6)
N38_33 N 0.81961(7) 0.31193(7) 0.15990(7)
N39_33 N 0.83523(8) 0.32715(7) 0.18970(7)
N40_9 N 0.85040(7) 0.37861(7) 0.22466(7)
N41_9 N 0.87722(7) 0.40750(8) 0.24874(7)
S5_9 S 0.88430(7) 0.44984(4) 0.25491(4)
C114_33 C 0.83895(8) 0.10084(8) 0.53122(7)
H73_33 H 0.8517 0.0940 0.5346
C115_33 C 0.82155(8) 0.09633(9) 0.54316(8)
C116_33 C 0.80267(9) 0.10600(11) 0.53806(10)
H74_33 H 0.7904 0.1034 0.5460
C117_33 C 0.80240(9) 0.11944(12) 0.52116(10)
H75_33 H 0.7898 0.1261 0.5171
C118_33 C 0.82076(9) 0.12310(10) 0.51015(10)
H76_33 H 0.8204 0.1323 0.4985
C120_33 C 0.89137(9) 0.01534(9) 0.58518(9)
H77_33 H 0.9023 0.0053 0.5864
C121_33 C 0.89056(11) 0.02795(10) 0.56736(10)
H78_33 H 0.9011 0.0269 0.5570
C122_33 C 0.87449(9) 0.04177(10) 0.56499(10)
H79_33 H 0.8735 0.0502 0.5528
C123_33 C 0.85943(8) 0.04333(8) 0.58094(8)
C124_33 C 0.86174(7) 0.03065(8) 0.59831(8)
H80_33 H 0.8517 0.0318 0.6092
C125_33 C 0.84209(8) 0.05847(8) 0.57962(8)
C126_33 C 0.82381(8) 0.08270(9) 0.56177(8)
C127_33 C 0.81447(8) 0.07422(9) 0.59430(8)
C128_33 C 0.78758(7) 0.09565(8) 0.61275(9)
H81_33 H 0.7872 0.1044 0.6007
C129_33 C 0.80122(8) 0.07836(9) 0.61271(9)
C130_33 C 0.80210(9) 0.06601(10) 0.63072(9)
H82_33 H 0.8112 0.0543 0.6315
C131_33 C 0.78937(11) 0.07141(11) 0.64744(10)
H83_33 H 0.7897 0.0634 0.6600
C132_33 C 0.77623(9) 0.08842(10) 0.64585(9)
H84_33 H 0.7675 0.0918 0.6574
N42_33 N 0.83907(7) 0.11413(7) 0.51527(6)
N45_33 N 0.82970(6) 0.06052(7) 0.59636(7)
N46_33 N 0.84010(7) 0.06961(7) 0.56193(7)
N47_33 N 0.81030(7) 0.08523(8) 0.57715(7)
N48_33 N 0.77534(7) 0.10040(7) 0.62861(7)
C133_33 C 0.85084(8) 0.08895(8) 0.46878(7)
H85_33 H 0.8440 0.1017 0.4654
C134_33 C 0.84633(9) 0.07155(8) 0.45684(8)
C135_33 C 0.85600(11) 0.05267(9) 0.46194(10)
H86_33 H 0.8534 0.0404 0.4540
C136_33 C 0.86944(12) 0.05240(9) 0.47884(10)
H87_33 H 0.8761 0.0398 0.4829
C137_33 C 0.87310(10) 0.07076(9) 0.48985(10)
H88_33 H 0.8823 0.0704 0.5015
C138_33 C 0.76534(9) 0.14137(9) 0.41482(9)
H89_33 H 0.7553 0.1523 0.4136
C139_33 C 0.77795(10) 0.14056(11) 0.43264(10)
H90_33 H 0.7769 0.1511 0.4430
C140_33 C 0.79177(10) 0.12449(9) 0.43501(10)
H91_33 H 0.8002 0.1235 0.4472
C141_33 C 0.79333(8) 0.10943(8) 0.41906(8)
C142_33 C 0.78065(8) 0.11174(7) 0.40169(8)
H92_33 H 0.7818 0.1017 0.3908
C143_33 C 0.80847(8) 0.09209(8) 0.42038(8)
C144_33 C 0.83270(9) 0.07381(8) 0.43823(8)
C145_33 C 0.82422(9) 0.06447(8) 0.40570(8)
C146_33 C 0.84565(8) 0.03758(7) 0.38725(9)
H93_33 H 0.8544 0.0372 0.3993
C147_33 C 0.82836(9) 0.05122(8) 0.38729(9)
C148_33 C 0.81601(10) 0.05210(9) 0.36928(9)
H94_33 H 0.8043 0.0612 0.3685
C149_33 C 0.82141(11) 0.03937(11) 0.35256(10)
H95_33 H 0.8134 0.0397 0.3400
C150_33 C 0.83842(10) 0.02623(9) 0.35415(9)
H96_33 H 0.8418 0.0175 0.3426
N49_33 N 0.86413(7) 0.08907(7) 0.48473(6)
N51_33 N 0.81052(7) 0.07970(6) 0.40364(7)
N52_33 N 0.81961(7) 0.09010(7) 0.43807(7)
N53_33 N 0.83523(8) 0.06030(7) 0.42285(7)
N54_33 N 0.85040(7) 0.02534(7) 0.37139(7)
C151_33 C 0.84302(8) 0.14828(8) 0.46879(8)
N55_33 N 0.85431(7) 0.13623(7) 0.47646(6)
S7_33 S 0.82689(3) 0.16525(3) 0.45888(3)
C153_13 C 0.75126(9) 0.38009(12) 0.42504(12)
N57_13 N 0.74874(7) 0.37722(7) 0.40750(8)
S9_13 S 0.75491(4) 0.38430(7) 0.44984(4)
Co7_11 Co 0.619519(11) 0.5000 0.369519(11)
N69_13 N 0.72466(7) 0.35040(7) 0.37861(7)
N70_9 N 0.84886(7) 0.37494(7) 0.27001(7)
N71_9 N 0.77001(7) 0.40114(7) 0.37506(7)
C6_34 C 0.35172(8) 0.65698(8) 0.03121(8)
N2_34 N 0.36377(7) 0.64569(7) 0.02354(6)
S1_34 S 0.33475(3) 0.67311(3) 0.04112(3)
H28_14 H 0.5704 0.3823 0.0015
C114_34 C 0.41105(8) 0.64916(8) 0.03122(7)
H73_34 H 0.3983 0.6560 0.0346
C115_34 C 0.42845(8) 0.65367(9) 0.04316(8)
C116_34 C 0.44733(9) 0.64400(11) 0.03806(10)
H74_34 H 0.4596 0.6466 0.0460
C117_34 C 0.44760(9) 0.63056(12) 0.02116(10)
H75_34 H 0.4602 0.6239 0.0171
C118_34 C 0.42924(9) 0.62690(10) 0.01015(10)
C120_34 C 0.35863(9) 0.73466(9) 0.08518(9)
H77_34 H 0.3477 0.7447 0.0864
C121_34 C 0.35944(11) 0.72205(10) 0.06736(10)
H78_34 H 0.3489 0.7231 0.0570
C122_34 C 0.37551(9) 0.70823(10) 0.06499(10)
H79_34 H 0.3765 0.6998 0.0528
C123_34 C 0.39057(8) 0.70667(8) 0.08094(8)
C124_34 C 0.38826(7) 0.71935(8) 0.09831(8)
H80_34 H 0.3983 0.7182 0.1092
C125_34 C 0.40791(8) 0.69153(8) 0.07962(8)
C126_34 C 0.42619(8) 0.66730(9) 0.06177(8)
C127_34 C 0.43553(8) 0.67578(9) 0.09430(8)
C128_34 C 0.46242(7) 0.65435(8) 0.11275(9)
H81_34 H 0.4628 0.6456 0.1007
C129_34 C 0.44878(8) 0.67164(9) 0.11271(9)
C130_34 C 0.44790(9) 0.68399(10) 0.13072(9)
H82_34 H 0.4388 0.6957 0.1315
C131_34 C 0.46063(11) 0.67859(11) 0.14744(10)
H83_34 H 0.4603 0.6866 0.1600
C132_34 C 0.47377(9) 0.66158(10) 0.14585(9)
H84_34 H 0.4825 0.6582 0.1574
N42_34 N 0.41093(7) 0.63587(7) 0.01527(6)
N45_34 N 0.42030(6) 0.68948(7) 0.09636(7)
N46_34 N 0.40990(7) 0.68039(7) 0.06193(7)
N47_34 N 0.43970(7) 0.66477(8) 0.07715(7)
N48_34 N 0.47466(7) 0.64960(7) 0.12861(7)
H88_34 H 0.3677 0.6796 0.0015
C39_14 C 0.58895(8) 0.35084(8) 0.96878(7)
H25_14 H 0.6017 0.3440 0.9654
C40_14 C 0.57155(8) 0.34633(9) 0.95684(8)
C41_14 C 0.55267(9) 0.35600(11) 0.96194(10)
H26_14 H 0.5404 0.3534 0.9540
C42_14 C 0.55240(9) 0.36944(12) 0.97884(10)
H27_14 H 0.5398 0.3761 0.9829
C43_14 C 0.57076(9) 0.37310(10) 0.98985(10)
C44_14 C 0.64137(9) 0.26534(9) 0.91482(9)
H29_14 H 0.6523 0.2553 0.9136
C45_14 C 0.64056(11) 0.27795(10) 0.93264(10)
H30_14 H 0.6511 0.2769 0.9430
C46_14 C 0.62449(9) 0.29177(10) 0.93501(10)
H31_14 H 0.6235 0.3002 0.9472
C47_14 C 0.60943(8) 0.29333(8) 0.91906(8)
C48_14 C 0.61174(7) 0.28065(8) 0.90169(8)
H32_14 H 0.6017 0.2818 0.8908
C49_14 C 0.59209(8) 0.30847(8) 0.92038(8)
C50_14 C 0.57381(8) 0.33270(9) 0.93823(8)
C51_14 C 0.56447(8) 0.32422(9) 0.90570(8)
C52_14 C 0.53758(7) 0.34565(8) 0.88725(9)
H33_14 H 0.5372 0.3544 0.8993
C53_14 C 0.55122(8) 0.32836(9) 0.88729(9)
C54_14 C 0.55210(9) 0.31601(10) 0.86928(9)
H34_14 H 0.5612 0.3043 0.8685
C55_14 C 0.53937(11) 0.32141(11) 0.85256(10)
H35_14 H 0.5397 0.3134 0.8400
C56_14 C 0.52623(9) 0.33842(10) 0.85415(9)
H36_14 H 0.5175 0.3418 0.8426
C57_14 C 0.49874(9) 0.38009(12) 0.82496(12)
N16_10 N 0.62727(7) 0.26681(7) 0.89933(7)
N17_14 N 0.57970(6) 0.31052(7) 0.90364(7)
N18_14 N 0.59010(7) 0.31961(7) 0.93807(7)
N19_14 N 0.56030(7) 0.33523(8) 0.92285(7)
N20_14 N 0.52534(7) 0.35040(7) 0.87139(7)
N21_14 N 0.50126(7) 0.37722(7) 0.84250(8)
S3_14 S 0.49509(4) 0.38430(7) 0.80016(4)
C76_10 C 0.35084(8) 0.28122(7) 0.66105(8)
H49_10 H 0.3440 0.2846 0.6483
C77_10 C 0.34633(9) 0.29316(8) 0.67845(8)
C78_10 C 0.35600(11) 0.28806(10) 0.69733(9)
H50_10 H 0.3534 0.2960 0.7096
C79_10 C 0.36944(12) 0.27116(10) 0.69760(9)
H51_10 H 0.3761 0.2671 0.7102
C80_10 C 0.37310(10) 0.26015(10) 0.67924(9)
H52_10 H 0.3823 0.2485 0.6796
C81_10 C 0.26534(9) 0.33518(9) 0.60863(9)
H53_10 H 0.2553 0.3364 0.5977
C82_10 C 0.27795(10) 0.31736(10) 0.60944(11)
H54_10 H 0.2769 0.3070 0.5989
C83_10 C 0.29177(10) 0.31499(10) 0.62551(9)
H55_10 H 0.3002 0.3028 0.6265
C84_10 C 0.29333(8) 0.33094(8) 0.64057(8)
C85_10 C 0.28065(8) 0.34831(8) 0.63826(7)
H56_10 H 0.2818 0.3592 0.6483
C86_10 C 0.30847(8) 0.32962(8) 0.65791(8)
C87_10 C 0.33270(9) 0.31177(8) 0.67619(8)
C88_10 C 0.32422(9) 0.34430(8) 0.68553(8)
C89_10 C 0.34565(8) 0.36275(9) 0.71242(7)
H57_10 H 0.3544 0.3507 0.7128
C90_10 C 0.32836(9) 0.36271(9) 0.69878(8)
C91_10 C 0.31601(10) 0.38072(9) 0.69790(9)
H58_10 H 0.3043 0.3815 0.6888
C92_10 C 0.32141(11) 0.39744(10) 0.71063(11)
H59_10 H 0.3134 0.4100 0.7103
C93_10 C 0.33842(10) 0.39585(9) 0.72377(9)
H60_10 H 0.3418 0.4074 0.7325
C94_10 C 0.38009(12) 0.42504(12) 0.75126(9)
N30_10 N 0.31052(7) 0.34636(7) 0.67030(6)
N31_10 N 0.31961(7) 0.31193(7) 0.65990(7)
N32_10 N 0.33523(8) 0.32715(7) 0.68970(7)
N33_10 N 0.35040(7) 0.37861(7) 0.72466(7)
N34_10 N 0.37722(7) 0.40750(8) 0.74874(7)
S4_10 S 0.38430(7) 0.44984(4) 0.75491(4)
C95_34 C 0.39916(8) 0.46878(7) 0.66105(8)
H61_34 H 0.4060 0.4654 0.6483
C96_34 C 0.40367(9) 0.45684(8) 0.67845(8)
C97_34 C 0.39400(11) 0.46194(10) 0.69733(9)
H62_34 H 0.3966 0.4540 0.7096
C98_34 C 0.38056(12) 0.47884(10) 0.69760(9)
H63_34 H 0.3739 0.4829 0.7102
C99_34 C 0.37690(10) 0.48985(10) 0.67924(9)
H64_34 H 0.3677 0.5015 0.6796
C100_34 C 0.48466(9) 0.41482(9) 0.60863(9)
H65_34 H 0.4947 0.4136 0.5977
C101_34 C 0.47205(10) 0.43264(10) 0.60944(11)
H66_34 H 0.4731 0.4430 0.5989
C102_34 C 0.45823(10) 0.43501(10) 0.62551(9)
H67_34 H 0.4498 0.4472 0.6265
C103_34 C 0.45667(8) 0.41906(8) 0.64057(8)
C104_34 C 0.46935(8) 0.40169(8) 0.63826(7)
H68_34 H 0.4682 0.3908 0.6483
C105_34 C 0.44153(8) 0.42038(8) 0.65791(8)
C106_34 C 0.41730(9) 0.43823(8) 0.67619(8)
C107_34 C 0.42578(9) 0.40570(8) 0.68553(8)
C108_34 C 0.40435(8) 0.38725(9) 0.71242(7)
H69_34 H 0.3956 0.3993 0.7128
C109_34 C 0.42164(9) 0.38729(9) 0.69878(8)
C110_34 C 0.43399(10) 0.36928(9) 0.69790(9)
H70_34 H 0.4457 0.3685 0.6888
C111_34 C 0.42859(11) 0.35256(10) 0.71063(11)
H71_34 H 0.4366 0.3400 0.7103
C112_34 C 0.41158(10) 0.35415(9) 0.72377(9)
H72_34 H 0.4082 0.3426 0.7325
C113_10 C 0.36991(12) 0.32496(12) 0.75126(9)
N36_30 N 0.48319(7) 0.39933(7) 0.62273(7)
N37_34 N 0.43948(7) 0.40364(7) 0.67030(6)
N38_34 N 0.43039(7) 0.43807(7) 0.65990(7)
N39_34 N 0.41477(8) 0.42285(7) 0.68970(7)
N40_10 N 0.39960(7) 0.37139(7) 0.72466(7)
N41_10 N 0.37278(7) 0.34250(8) 0.74874(7)
S5_10 S 0.36570(7) 0.30016(4) 0.75491(4)
H76_34 H 0.4296 0.6177 0.9985
C133_34 C 0.39916(8) 0.66105(8) 0.96878(7)
H85_34 H 0.4060 0.6483 0.9654
C134_34 C 0.40367(9) 0.67845(8) 0.95684(8)
C135_34 C 0.39400(11) 0.69733(9) 0.96194(10)
H86_34 H 0.3966 0.7096 0.9540
C136_34 C 0.38056(12) 0.69760(9) 0.97884(10)
H87_34 H 0.3739 0.7102 0.9829
C137_34 C 0.37690(10) 0.67924(9) 0.98985(10)
C138_34 C 0.48466(9) 0.60863(9) 0.91482(9)
H89_34 H 0.4947 0.5977 0.9136
C139_34 C 0.47205(10) 0.60944(11) 0.93264(10)
H90_34 H 0.4731 0.5989 0.9430
C140_34 C 0.45823(10) 0.62551(9) 0.93501(10)
H91_34 H 0.4498 0.6265 0.9472
C141_34 C 0.45667(8) 0.64057(8) 0.91906(8)
C142_34 C 0.46935(8) 0.63826(7) 0.90169(8)
H92_34 H 0.4682 0.6483 0.8908
C143_34 C 0.44153(8) 0.65791(8) 0.92038(8)
C144_34 C 0.41730(9) 0.67619(8) 0.93823(8)
C145_34 C 0.42578(9) 0.68553(8) 0.90570(8)
C146_34 C 0.40435(8) 0.71242(7) 0.88725(9)
H93_34 H 0.3956 0.7128 0.8993
C147_34 C 0.42164(9) 0.69878(8) 0.88729(9)
C148_34 C 0.43399(10) 0.69790(9) 0.86928(9)
H94_34 H 0.4457 0.6888 0.8685
C149_34 C 0.42859(11) 0.71063(11) 0.85256(10)
H95_34 H 0.4366 0.7103 0.8400
C150_34 C 0.41158(10) 0.72377(9) 0.85415(9)
H96_34 H 0.4082 0.7325 0.8426
N49_34 N 0.38587(7) 0.66093(7) 0.98473(6)
N51_34 N 0.43948(7) 0.67030(6) 0.90364(7)
N52_34 N 0.43039(7) 0.65990(7) 0.93807(7)
N53_34 N 0.41477(8) 0.68970(7) 0.92285(7)
N54_34 N 0.39960(7) 0.72466(7) 0.87139(7)
C151_34 C 0.40698(8) 0.60172(8) 0.96879(8)
N55_34 N 0.39569(7) 0.61377(7) 0.97646(6)
S7_34 S 0.42311(3) 0.58475(3) 0.95888(3)
C153_14 C 0.49874(9) 0.36991(12) 0.92504(12)
N57_14 N 0.50126(7) 0.37278(7) 0.90750(8)
S9_14 S 0.49509(4) 0.36570(7) 0.94984(4)
Co7_12 Co 0.630481(11) 0.2500 0.869519(11)
N69_14 N 0.52534(7) 0.39960(7) 0.87861(7)
N70_10 N 0.40114(7) 0.37506(7) 0.77001(7)
N71_10 N 0.47999(7) 0.34886(7) 0.87506(7)
C6_35 C 0.39828(8) 0.15698(8) 0.21879(8)
N2_35 N 0.38623(7) 0.14569(7) 0.22646(6)
S1_35 S 0.41525(3) 0.17311(3) 0.20888(3)
H64_35 H 0.3823 0.0015 0.5704
C114_35 C 0.33895(8) 0.14916(8) 0.21878(7)
H73_35 H 0.3517 0.1560 0.2154
C115_35 C 0.32155(8) 0.15367(9) 0.20684(8)
C116_35 C 0.30267(9) 0.14400(11) 0.21194(10)
H74_35 H 0.2904 0.1466 0.2040
C117_35 C 0.30240(9) 0.13056(12) 0.22884(10)
H75_35 H 0.2898 0.1239 0.2329
C118_35 C 0.32076(9) 0.12690(10) 0.23985(10)
H76_35 H 0.3204 0.1177 0.2515
C120_35 C 0.39137(9) 0.23466(9) 0.16482(9)
H77_35 H 0.4023 0.2447 0.1636
C121_35 C 0.39056(11) 0.22205(10) 0.18264(10)
H78_35 H 0.4011 0.2231 0.1930
C122_35 C 0.37449(9) 0.20823(10) 0.18501(10)
H79_35 H 0.3735 0.1998 0.1972
C123_35 C 0.35943(8) 0.20667(8) 0.16906(8)
C124_35 C 0.36174(7) 0.21935(8) 0.15169(8)
H80_35 H 0.3517 0.2182 0.1408
C125_35 C 0.34209(8) 0.19153(8) 0.17038(8)
C126_35 C 0.32381(8) 0.16730(9) 0.18823(8)
C127_35 C 0.31447(8) 0.17578(9) 0.15570(8)
C128_35 C 0.28758(7) 0.15435(8) 0.13725(9)
H81_35 H 0.2872 0.1456 0.1493
C129_35 C 0.30122(8) 0.17164(9) 0.13729(9)
C130_35 C 0.30210(9) 0.18399(10) 0.11928(9)
H82_35 H 0.3112 0.1957 0.1185
C131_35 C 0.28937(11) 0.17859(11) 0.10256(10)
H83_35 H 0.2897 0.1866 0.0900
C132_35 C 0.27623(9) 0.16158(10) 0.10415(9)
H84_35 H 0.2675 0.1582 0.0926
N42_35 N 0.33907(7) 0.13587(7) 0.23473(6)
N45_35 N 0.32970(6) 0.18948(7) 0.15364(7)
N46_35 N 0.34010(7) 0.18039(7) 0.18807(7)
N47_35 N 0.31030(7) 0.16477(8) 0.17285(7)
N48_35 N 0.27534(7) 0.14960(7) 0.12139(7)
C133_35 C 0.35084(8) 0.16105(8) 0.28122(7)
H85_35 H 0.3440 0.1483 0.2846
C134_35 C 0.34633(9) 0.17845(8) 0.29316(8)
C135_35 C 0.35600(11) 0.19733(9) 0.28806(10)
H86_35 H 0.3534 0.2096 0.2960
C136_35 C 0.36944(12) 0.19760(9) 0.27116(10)
H87_35 H 0.3761 0.2102 0.2671
C137_35 C 0.37310(10) 0.17924(9) 0.26015(10)
H88_35 H 0.3823 0.1796 0.2485
C138_35 C 0.26534(9) 0.10863(9) 0.33518(9)
H89_35 H 0.2553 0.0977 0.3364
C139_35 C 0.27795(10) 0.10944(11) 0.31736(10)
H90_35 H 0.2769 0.0989 0.3070
C140_35 C 0.29177(10) 0.12551(9) 0.31499(10)
H91_35 H 0.3002 0.1265 0.3028
C141_35 C 0.29333(8) 0.14057(8) 0.33094(8)
C142_35 C 0.28065(8) 0.13826(7) 0.34831(8)
H92_35 H 0.2818 0.1483 0.3592
C143_35 C 0.30847(8) 0.15791(8) 0.32962(8)
C144_35 C 0.33270(9) 0.17619(8) 0.31177(8)
C145_35 C 0.32422(9) 0.18553(8) 0.34430(8)
C146_35 C 0.34565(8) 0.21242(7) 0.36275(9)
H93_35 H 0.3544 0.2128 0.3507
C147_35 C 0.32836(9) 0.19878(8) 0.36271(9)
C148_35 C 0.31601(10) 0.19790(9) 0.38072(9)
H94_35 H 0.3043 0.1888 0.3815
C149_35 C 0.32141(11) 0.21063(11) 0.39744(10)
H95_35 H 0.3134 0.2103 0.4100
C150_35 C 0.33842(10) 0.22377(9) 0.39585(9)
H96_35 H 0.3418 0.2325 0.4074
N49_35 N 0.36413(7) 0.16093(7) 0.26527(6)
N51_35 N 0.31052(7) 0.17030(6) 0.34636(7)
N52_35 N 0.31961(7) 0.15990(7) 0.31193(7)
N53_35 N 0.33523(8) 0.18970(7) 0.32715(7)
N54_35 N 0.35040(7) 0.22466(7) 0.37861(7)
C151_35 C 0.34302(8) 0.10172(8) 0.28121(8)
N55_35 N 0.35431(7) 0.11377(7) 0.27354(6)
S7_35 S 0.32689(3) 0.08475(3) 0.29112(3)
C39_15 C 0.16105(8) 0.85084(8) 0.28122(7)
H25_15 H 0.1483 0.8440 0.2846
C40_15 C 0.17845(8) 0.84633(9) 0.29316(8)
C41_15 C 0.19733(9) 0.85600(11) 0.28806(10)
H26_15 H 0.2096 0.8534 0.2960
C42_15 C 0.19760(9) 0.86944(12) 0.27116(10)
H27_15 H 0.2102 0.8761 0.2671
C43_15 C 0.17924(9) 0.87310(10) 0.26015(10)
H28_15 H 0.1796 0.8823 0.2485
C44_15 C 0.10863(9) 0.76534(9) 0.33518(9)
H29_15 H 0.0977 0.7553 0.3364
C45_15 C 0.10944(11) 0.77795(10) 0.31736(10)
H30_15 H 0.0989 0.7769 0.3070
C46_15 C 0.12551(9) 0.79177(10) 0.31499(10)
H31_15 H 0.1265 0.8002 0.3028
C47_15 C 0.14057(8) 0.79333(8) 0.33094(8)
C48_15 C 0.13826(7) 0.78065(8) 0.34831(8)
H32_15 H 0.1483 0.7818 0.3592
C49_15 C 0.15791(8) 0.80847(8) 0.32962(8)
C50_15 C 0.17619(8) 0.83270(9) 0.31177(8)
C51_15 C 0.18553(8) 0.82422(9) 0.34430(8)
C52_15 C 0.21242(7) 0.84565(8) 0.36275(9)
H33_15 H 0.2128 0.8544 0.3507
C53_15 C 0.19878(8) 0.82836(9) 0.36271(9)
C54_15 C 0.19790(9) 0.81601(10) 0.38072(9)
H34_15 H 0.1888 0.8043 0.3815
C55_15 C 0.21063(11) 0.82141(11) 0.39744(10)
H35_15 H 0.2103 0.8134 0.4100
C56_15 C 0.22377(9) 0.83842(10) 0.39585(9)
H36_15 H 0.2325 0.8418 0.4074
C57_15 C 0.25126(9) 0.88009(12) 0.42504(12)
N16_11 N 0.12273(7) 0.76681(7) 0.35067(7)
N17_15 N 0.17030(6) 0.81052(7) 0.34636(7)
N18_15 N 0.15990(7) 0.81961(7) 0.31193(7)
N19_15 N 0.18970(7) 0.83523(8) 0.32715(7)
N20_15 N 0.22466(7) 0.85040(7) 0.37861(7)
N21_15 N 0.24874(7) 0.87722(7) 0.40750(8)
S3_15 S 0.25491(4) 0.88430(7) 0.44984(4)
C76_11 C 0.39916(8) 0.78122(7) 0.58895(8)
H49_11 H 0.4060 0.7846 0.6017
C77_11 C 0.40367(9) 0.79316(8) 0.57155(8)
C78_11 C 0.39400(11) 0.78806(10) 0.55267(9)
H50_11 H 0.3966 0.7960 0.5404
C79_11 C 0.38056(12) 0.77116(10) 0.55240(9)
H51_11 H 0.3739 0.7671 0.5398
C80_11 C 0.37690(10) 0.76015(10) 0.57076(9)
H52_11 H 0.3677 0.7485 0.5704
C81_11 C 0.48466(9) 0.83518(9) 0.64137(9)
H53_11 H 0.4947 0.8364 0.6523
C82_11 C 0.47205(10) 0.81736(10) 0.64056(11)
H54_11 H 0.4731 0.8070 0.6511
C83_11 C 0.45823(10) 0.81499(10) 0.62449(9)
H55_11 H 0.4498 0.8028 0.6235
C84_11 C 0.45667(8) 0.83094(8) 0.60943(8)
C85_11 C 0.46935(8) 0.84831(8) 0.61174(7)
H56_11 H 0.4682 0.8592 0.6017
C86_11 C 0.44153(8) 0.82962(8) 0.59209(8)
C87_11 C 0.41730(9) 0.81177(8) 0.57381(8)
C88_11 C 0.42578(9) 0.84430(8) 0.56447(8)
C89_11 C 0.40435(8) 0.86275(9) 0.53758(7)
H57_11 H 0.3956 0.8507 0.5372
C90_11 C 0.42164(9) 0.86271(9) 0.55122(8)
C91_11 C 0.43399(10) 0.88072(9) 0.55210(9)
H58_11 H 0.4457 0.8815 0.5612
C92_11 C 0.42859(11) 0.89744(10) 0.53937(11)
H59_11 H 0.4366 0.9100 0.5397
C93_11 C 0.41158(10) 0.89585(9) 0.52623(9)
H60_11 H 0.4082 0.9074 0.5175
C94_11 C 0.36991(12) 0.92504(12) 0.49874(9)
N30_11 N 0.43948(7) 0.84636(7) 0.57970(6)
N31_11 N 0.43039(7) 0.81193(7) 0.59010(7)
N32_11 N 0.41477(8) 0.82715(7) 0.56030(7)
N33_11 N 0.39960(7) 0.87861(7) 0.52534(7)
N34_11 N 0.37278(7) 0.90750(8) 0.50126(7)
S4_11 S 0.36570(7) 0.94984(4) 0.49509(4)
C95_35 C 0.35084(8) 0.96878(7) 0.58895(8)
H61_35 H 0.3440 0.9654 0.6017
C96_35 C 0.34633(9) 0.95684(8) 0.57155(8)
C97_35 C 0.35600(11) 0.96194(10) 0.55267(9)
H62_35 H 0.3534 0.9540 0.5404
C98_35 C 0.36944(12) 0.97884(10) 0.55240(9)
H63_35 H 0.3761 0.9829 0.5398
C99_35 C 0.37310(10) 0.98985(10) 0.57076(9)
C100_35 C 0.26534(9) 0.91482(9) 0.64137(9)
H65_35 H 0.2553 0.9136 0.6523
C101_35 C 0.27795(10) 0.93264(10) 0.64056(11)
H66_35 H 0.2769 0.9430 0.6511
C102_35 C 0.29177(10) 0.93501(10) 0.62449(9)
H67_35 H 0.3002 0.9472 0.6235
C103_35 C 0.29333(8) 0.91906(8) 0.60943(8)
C104_35 C 0.28065(8) 0.90169(8) 0.61174(7)
H68_35 H 0.2818 0.8908 0.6017
C105_35 C 0.30847(8) 0.92038(8) 0.59209(8)
C106_35 C 0.33270(9) 0.93823(8) 0.57381(8)
C107_35 C 0.32422(9) 0.90570(8) 0.56447(8)
C108_35 C 0.34565(8) 0.88725(9) 0.53758(7)
H69_35 H 0.3544 0.8993 0.5372
C109_35 C 0.32836(9) 0.88729(9) 0.55122(8)
C110_35 C 0.31601(10) 0.86928(9) 0.55210(9)
H70_35 H 0.3043 0.8685 0.5612
C111_35 C 0.32141(11) 0.85256(10) 0.53937(11)
H71_35 H 0.3134 0.8400 0.5397
C112_35 C 0.33842(10) 0.85415(9) 0.52623(9)
H72_35 H 0.3418 0.8426 0.5175
C113_11 C 0.38009(12) 0.82496(12) 0.49874(9)
N36_31 N 0.26681(7) 0.89933(7) 0.62727(7)
N37_35 N 0.31052(7) 0.90364(7) 0.57970(6)
N38_35 N 0.31961(7) 0.93807(7) 0.59010(7)
N39_35 N 0.33523(8) 0.92285(7) 0.56030(7)
N40_11 N 0.35040(7) 0.87139(7) 0.52534(7)
N41_11 N 0.37722(7) 0.84250(8) 0.50126(7)
S5_11 S 0.38430(7) 0.80016(4) 0.49509(4)
C153_15 C 0.25126(9) 0.86991(12) 0.32496(12)
N57_15 N 0.24874(7) 0.87278(7) 0.34250(8)
S9_15 S 0.25491(4) 0.86570(7) 0.30016(4)
Co7_13 Co 0.119519(11) 0.7500 0.380481(11)
N69_15 N 0.22466(7) 0.89960(7) 0.37139(7)
N70_11 N 0.34886(7) 0.87506(7) 0.47999(7)
N71_11 N 0.27001(7) 0.84886(7) 0.37494(7)
Co7_14 Co 0.130481(11) -0.0000 0.880481(11)
C39_16 C 0.08895(8) 0.89916(8) 0.78122(7)
H25_16 H 0.1017 0.9060 0.7846
C40_16 C 0.07155(8) 0.90367(9) 0.79316(8)
C41_16 C 0.05267(9) 0.89400(11) 0.78806(10)
H26_16 H 0.0404 0.8966 0.7960
C42_16 C 0.05240(9) 0.88056(12) 0.77116(10)
H27_16 H 0.0398 0.8739 0.7671
C43_16 C 0.07076(9) 0.87690(10) 0.76015(10)
H28_16 H 0.0704 0.8677 0.7485
C44_16 C 0.14137(9) 0.98466(9) 0.83518(9)
H29_16 H 0.1523 0.9947 0.8364
C45_16 C 0.14056(11) 0.97205(10) 0.81736(10)
H30_16 H 0.1511 0.9731 0.8070
C46_16 C 0.12449(9) 0.95823(10) 0.81499(10)
H31_16 H 0.1235 0.9498 0.8028
C47_16 C 0.10943(8) 0.95667(8) 0.83094(8)
C48_16 C 0.11174(7) 0.96935(8) 0.84831(8)
H32_16 H 0.1017 0.9682 0.8592
C49_16 C 0.09209(8) 0.94153(8) 0.82962(8)
C50_16 C 0.07381(8) 0.91730(9) 0.81177(8)
C51_16 C 0.06447(8) 0.92578(9) 0.84430(8)
C52_16 C 0.03758(7) 0.90435(8) 0.86275(9)
H33_16 H 0.0372 0.8956 0.8507
C53_16 C 0.05122(8) 0.92164(9) 0.86271(9)
C54_16 C 0.05210(9) 0.93399(10) 0.88072(9)
H34_16 H 0.0612 0.9457 0.8815
C55_16 C 0.03937(11) 0.92859(11) 0.89744(10)
H35_16 H 0.0397 0.9366 0.9100
C56_16 C 0.02623(9) 0.91158(10) 0.89585(9)
H36_16 H 0.0175 0.9082 0.9074
N16_12 N 0.12727(7) 0.98319(7) 0.85067(7)
N17_16 N 0.07970(6) 0.93948(7) 0.84636(7)
N18_16 N 0.09010(7) 0.93039(7) 0.81193(7)
N19_16 N 0.06030(7) 0.91477(8) 0.82715(7)
N20_16 N 0.02534(7) 0.89960(7) 0.87861(7)
N21_16 N 0.00126(7) 0.87278(7) 0.90750(8)
N57_16 N 0.00126(7) 0.87722(7) 0.84250(8)
Co7_15 Co 0.130481(11) 1.0000 0.880481(11)
N69_16 N 0.02534(7) 0.85040(7) 0.87139(7)
H52_12 H 0.8823 0.0015 0.0704
C76_12 C 0.85084(8) 0.96878(7) 0.08895(8)
H49_12 H 0.8440 0.9654 0.1017
C77_12 C 0.84633(9) 0.95684(8) 0.07155(8)
C78_12 C 0.85600(11) 0.96194(10) 0.05267(9)
H50_12 H 0.8534 0.9540 0.0404
C79_12 C 0.86944(12) 0.97884(10) 0.05240(9)
H51_12 H 0.8761 0.9829 0.0398
C80_12 C 0.87310(10) 0.98985(10) 0.07076(9)
C81_12 C 0.76534(9) 0.91482(9) 0.14137(9)
H53_12 H 0.7553 0.9136 0.1523
C82_12 C 0.77795(10) 0.93264(10) 0.14056(11)
H54_12 H 0.7769 0.9430 0.1511
C83_12 C 0.79177(10) 0.93501(10) 0.12449(9)
H55_12 H 0.8002 0.9472 0.1235
C84_12 C 0.79333(8) 0.91906(8) 0.10943(8)
C85_12 C 0.78065(8) 0.90169(8) 0.11174(7)
H56_12 H 0.7818 0.8908 0.1017
C86_12 C 0.80847(8) 0.92038(8) 0.09209(8)
C87_12 C 0.83270(9) 0.93823(8) 0.07381(8)
C88_12 C 0.82422(9) 0.90570(8) 0.06447(8)
C89_12 C 0.84565(8) 0.88725(9) 0.03758(7)
H57_12 H 0.8544 0.8993 0.0372
C90_12 C 0.82836(9) 0.88729(9) 0.05122(8)
C91_12 C 0.81601(10) 0.86928(9) 0.05210(9)
H58_12 H 0.8043 0.8685 0.0612
C92_12 C 0.82141(11) 0.85256(10) 0.03937(11)
H59_12 H 0.8134 0.8400 0.0397
C93_12 C 0.83842(10) 0.85415(9) 0.02623(9)
H60_12 H 0.8418 0.8426 0.0175
N30_12 N 0.81052(7) 0.90364(7) 0.07970(6)
N31_12 N 0.81961(7) 0.93807(7) 0.09010(7)
N32_12 N 0.83523(8) 0.92285(7) 0.06030(7)
N33_12 N 0.85040(7) 0.87139(7) 0.02534(7)
N34_12 N 0.87722(7) 0.84250(8) 0.00126(7)
C95_36 C 0.89916(8) 0.78122(7) 0.08895(8)
H61_36 H 0.9060 0.7846 0.1017
C96_36 C 0.90367(9) 0.79316(8) 0.07155(8)
C97_36 C 0.89400(11) 0.78806(10) 0.05267(9)
H62_36 H 0.8966 0.7960 0.0404
C98_36 C 0.88056(12) 0.77116(10) 0.05240(9)
H63_36 H 0.8739 0.7671 0.0398
C99_36 C 0.87690(10) 0.76015(10) 0.07076(9)
H64_36 H 0.8677 0.7485 0.0704
C100_36 C 0.98466(9) 0.83518(9) 0.14137(9)
H65_36 H 0.9947 0.8364 0.1523
C101_36 C 0.97205(10) 0.81736(10) 0.14056(11)
H66_36 H 0.9731 0.8070 0.1511
C102_36 C 0.95823(10) 0.81499(10) 0.12449(9)
H67_36 H 0.9498 0.8028 0.1235
C103_36 C 0.95667(8) 0.83094(8) 0.10943(8)
C104_36 C 0.96935(8) 0.84831(8) 0.11174(7)
H68_36 H 0.9682 0.8592 0.1017
C105_36 C 0.94153(8) 0.82962(8) 0.09209(8)
C106_36 C 0.91730(9) 0.81177(8) 0.07381(8)
C107_36 C 0.92578(9) 0.84430(8) 0.06447(8)
C108_36 C 0.90435(8) 0.86275(9) 0.03758(7)
H69_36 H 0.8956 0.8507 0.0372
C109_36 C 0.92164(9) 0.86271(9) 0.05122(8)
C110_36 C 0.93399(10) 0.88072(9) 0.05210(9)
H70_36 H 0.9457 0.8815 0.0612
C111_36 C 0.92859(11) 0.89744(10) 0.03937(11)
H71_36 H 0.9366 0.9100 0.0397
C112_36 C 0.91158(10) 0.89585(9) 0.02623(9)
H72_36 H 0.9082 0.9074 0.0175
N36_32 N 0.98319(7) 0.85067(7) 0.12727(7)
N37_36 N 0.93948(7) 0.84636(7) 0.07970(6)
N38_36 N 0.93039(7) 0.81193(7) 0.09010(7)
N39_36 N 0.91477(8) 0.82715(7) 0.06030(7)
N40_12 N 0.89960(7) 0.87861(7) 0.02534(7)
N41_12 N 0.87278(7) 0.90750(8) 0.00126(7)
C6_36 C 0.85172(8) 0.59302(8) 0.71879(8)
N2_36 N 0.86377(7) 0.60431(7) 0.72646(6)
S1_36 S 0.83475(3) 0.57689(3) 0.70888(3)
C57_16 C 0.99874(9) 0.86991(12) 0.92504(12)
S3_16 S 0.99509(4) 0.86570(7) 0.94984(4)
C94_12 C 0.88009(12) 0.82496(12) 0.99874(9)
S4_12 S 0.88430(7) 0.80016(4) 0.99509(4)
C113_12 C 0.86991(12) 0.92504(12) 0.99874(9)
S5_12 S 0.86570(7) 0.94984(4) 0.99509(4)
C114_36 C 0.91105(8) 0.60084(8) 0.71878(7)
H73_36 H 0.8983 0.5940 0.7154
C115_36 C 0.92845(8) 0.59633(9) 0.70684(8)
C116_36 C 0.94733(9) 0.60600(11) 0.71194(10)
H74_36 H 0.9596 0.6034 0.7040
C117_36 C 0.94760(9) 0.61944(12) 0.72884(10)
H75_36 H 0.9602 0.6261 0.7329
C118_36 C 0.92924(9) 0.62310(10) 0.73985(10)
H76_36 H 0.9296 0.6323 0.7515
C120_36 C 0.85863(9) 0.51534(9) 0.66482(9)
H77_36 H 0.8477 0.5053 0.6636
C121_36 C 0.85944(11) 0.52795(10) 0.68264(10)
H78_36 H 0.8489 0.5269 0.6930
C122_36 C 0.87551(9) 0.54177(10) 0.68501(10)
H79_36 H 0.8765 0.5502 0.6972
C123_36 C 0.89057(8) 0.54333(8) 0.66906(8)
C124_36 C 0.88826(7) 0.53065(8) 0.65169(8)
H80_36 H 0.8983 0.5318 0.6408
C125_36 C 0.90791(8) 0.55847(8) 0.67038(8)
C126_36 C 0.92619(8) 0.58270(9) 0.68823(8)
C127_36 C 0.93553(8) 0.57422(9) 0.65570(8)
C128_36 C 0.96242(7) 0.59565(8) 0.63725(9)
H81_36 H 0.9628 0.6044 0.6493
C129_36 C 0.94878(8) 0.57836(9) 0.63729(9)
C130_36 C 0.94790(9) 0.56601(10) 0.61928(9)
H82_36 H 0.9388 0.5543 0.6185
C131_36 C 0.96063(11) 0.57141(11) 0.60256(10)
H83_36 H 0.9603 0.5634 0.5900
C132_36 C 0.97377(9) 0.58842(10) 0.60415(9)
H84_36 H 0.9825 0.5918 0.5926
N42_36 N 0.91093(7) 0.61413(7) 0.73473(6)
N45_36 N 0.92030(6) 0.56052(7) 0.65364(7)
N46_36 N 0.90990(7) 0.56961(7) 0.68807(7)
N47_36 N 0.93970(7) 0.58523(8) 0.67285(7)
N48_36 N 0.97466(7) 0.60040(7) 0.62139(7)
C133_36 C 0.89916(8) 0.58895(8) 0.78122(7)
H85_36 H 0.9060 0.6017 0.7846
C134_36 C 0.90367(9) 0.57155(8) 0.79316(8)
C135_36 C 0.89400(11) 0.55267(9) 0.78806(10)
H86_36 H 0.8966 0.5404 0.7960
C136_36 C 0.88056(12) 0.55240(9) 0.77116(10)
H87_36 H 0.8739 0.5398 0.7671
C137_36 C 0.87690(10) 0.57076(9) 0.76015(10)
H88_36 H 0.8677 0.5704 0.7485
C138_36 C 0.98466(9) 0.64137(9) 0.83518(9)
H89_36 H 0.9947 0.6523 0.8364
C139_36 C 0.97205(10) 0.64056(11) 0.81736(10)
H90_36 H 0.9731 0.6511 0.8070
C140_36 C 0.95823(10) 0.62449(9) 0.81499(10)
H91_36 H 0.9498 0.6235 0.8028
C141_36 C 0.95667(8) 0.60943(8) 0.83094(8)
C142_36 C 0.96935(8) 0.61174(7) 0.84831(8)
H92_36 H 0.9682 0.6017 0.8592
C143_36 C 0.94153(8) 0.59209(8) 0.82962(8)
C144_36 C 0.91730(9) 0.57381(8) 0.81177(8)
C145_36 C 0.92578(9) 0.56447(8) 0.84430(8)
C146_36 C 0.90435(8) 0.53758(7) 0.86275(9)
H93_36 H 0.8956 0.5372 0.8507
C147_36 C 0.92164(9) 0.55122(8) 0.86271(9)
C148_36 C 0.93399(10) 0.55210(9) 0.88072(9)
H94_36 H 0.9457 0.5612 0.8815
C149_36 C 0.92859(11) 0.53937(11) 0.89744(10)
H95_36 H 0.9366 0.5397 0.9100
C150_36 C 0.91158(10) 0.52623(9) 0.89585(9)
H96_36 H 0.9082 0.5175 0.9074
N49_36 N 0.88587(7) 0.58907(7) 0.76527(6)
N51_36 N 0.93948(7) 0.57970(6) 0.84636(7)
N52_36 N 0.93039(7) 0.59010(7) 0.81193(7)
N53_36 N 0.91477(8) 0.56030(7) 0.82715(7)
N54_36 N 0.89960(7) 0.52534(7) 0.87861(7)
C151_36 C 0.90698(8) 0.64828(8) 0.78121(8)
N55_36 N 0.89569(7) 0.63623(7) 0.77354(6)
S7_36 S 0.92311(3) 0.66525(3) 0.79112(3)
C153_16 C 0.99874(9) 0.88009(12) 0.82496(12)
S9_16 S 0.99509(4) 0.88430(7) 0.80016(4)
N70_12 N 0.90114(7) 0.87494(7) 0.97999(7)
N71_12 N 0.97999(7) 0.90114(7) 0.87494(7)
C6_37 C 0.09302(8) 0.71879(8) 0.35172(8)
N2_37 N 0.10431(7) 0.72646(6) 0.36377(7)
S1_37 S 0.07689(3) 0.70888(3) 0.33475(3)
C58_21 C 0.33293(11) 0.88864(12) 0.48240(10)
H37_21 H 0.3341 0.8993 0.4927
C59_21 C 0.31527(12) 0.88786(13) 0.47075(12)
H38_21 H 0.3041 0.8973 0.4734
C60_21 C 0.31355(12) 0.87298(12) 0.45481(13)
H39_21 H 0.3014 0.8722 0.4463
C61_21 C 0.33011(10) 0.85933(10) 0.45178(9)
C62_21 C 0.34741(8) 0.86077(9) 0.46504(8)
H40_21 H 0.3586 0.8511 0.4633
C63_21 C 0.32939(9) 0.84304(10) 0.43567(9)
N23_21 N 0.34440(8) 0.82863(8) 0.43603(7)
C64_21 C 0.26760(10) 0.83293(11) 0.36136(12)
H41_21 H 0.2573 0.8341 0.3507
C65_21 C 0.27925(12) 0.81527(12) 0.36214(13)
H42_21 H 0.2766 0.8041 0.3527
C66_21 C 0.29519(13) 0.81355(12) 0.37702(12)
H43_21 H 0.3037 0.8014 0.3778
C67_21 C 0.29822(9) 0.83011(10) 0.39067(10)
C68_21 C 0.28496(8) 0.84741(8) 0.38923(9)
H44_21 H 0.2867 0.8586 0.3989
C69_21 C 0.31433(9) 0.82939(9) 0.40696(10)
N25_21 N 0.31397(7) 0.84440(8) 0.42137(8)
C70_21 C 0.38864(12) 0.76760(10) 0.41707(11)
H45_21 H 0.3993 0.7573 0.4159
C71_21 C 0.38786(13) 0.77925(12) 0.43473(12)
H46_21 H 0.3973 0.7766 0.4459
C72_21 C 0.37298(12) 0.79519(13) 0.43645(12)
H47_21 H 0.3722 0.8037 0.4486
C73_21 C 0.35933(10) 0.79822(9) 0.41989(10)
C74_21 C 0.36077(9) 0.78496(8) 0.40259(8)
H48_21 H 0.3511 0.7867 0.3914
C75_21 C 0.34304(10) 0.81433(9) 0.42061(9)
N26_21 N 0.37506(7) 0.77001(7) 0.40114(7)
N27_21 N 0.32863(8) 0.81397(7) 0.40560(8)
C114_37 C 0.10084(8) 0.71878(7) 0.41105(8)
H73_37 H 0.0940 0.7154 0.3983
C115_37 C 0.09633(9) 0.70684(8) 0.42845(8)
C116_37 C 0.10600(11) 0.71194(10) 0.44733(9)
H74_37 H 0.1034 0.7040 0.4596
C117_37 C 0.11944(12) 0.72884(10) 0.44760(9)
H75_37 H 0.1261 0.7329 0.4602
C118_37 C 0.12310(10) 0.73985(10) 0.42924(9)
H76_37 H 0.1323 0.7515 0.4296
C120_37 C 0.01534(9) 0.66482(9) 0.35863(9)
H77_37 H 0.0053 0.6636 0.3477
C121_37 C 0.02795(10) 0.68264(10) 0.35944(11)
H78_37 H 0.0269 0.6930 0.3489
C122_37 C 0.04177(10) 0.68501(10) 0.37551(9)
H79_37 H 0.0502 0.6972 0.3765
C123_37 C 0.04333(8) 0.66906(8) 0.39057(8)
C124_37 C 0.03065(8) 0.65169(8) 0.38826(7)
H80_37 H 0.0318 0.6408 0.3983
C125_37 C 0.05847(8) 0.67038(8) 0.40791(8)
C126_37 C 0.08270(9) 0.68823(8) 0.42619(8)
C127_37 C 0.07422(9) 0.65570(8) 0.43553(8)
C128_37 C 0.09565(8) 0.63725(9) 0.46242(7)
H81_37 H 0.1044 0.6493 0.4628
C129_37 C 0.07836(9) 0.63729(9) 0.44878(8)
C130_37 C 0.06601(10) 0.61928(9) 0.44790(9)
H82_37 H 0.0543 0.6185 0.4388
C131_37 C 0.07141(11) 0.60256(10) 0.46063(11)
H83_37 H 0.0634 0.5900 0.4603
C132_37 C 0.08842(10) 0.60415(9) 0.47377(9)
H84_37 H 0.0918 0.5926 0.4825
N42_37 N 0.11413(7) 0.73473(6) 0.41093(7)
N45_37 N 0.06052(7) 0.65364(7) 0.42030(6)
N46_37 N 0.06961(7) 0.68807(7) 0.40990(7)
N47_37 N 0.08523(8) 0.67285(7) 0.43970(7)
N48_37 N 0.10040(7) 0.62139(7) 0.47466(7)
C133_37 C 0.08895(8) 0.78122(7) 0.39916(8)
H85_37 H 0.1017 0.7846 0.4060
C134_37 C 0.07155(8) 0.79316(8) 0.40367(9)
C135_37 C 0.05267(9) 0.78806(10) 0.39400(11)
H86_37 H 0.0404 0.7960 0.3966
C136_37 C 0.05240(9) 0.77116(10) 0.38056(12)
H87_37 H 0.0398 0.7671 0.3739
C137_37 C 0.07076(9) 0.76015(10) 0.37690(10)
H88_37 H 0.0704 0.7485 0.3677
C138_37 C 0.14137(9) 0.83518(9) 0.48466(9)
H89_37 H 0.1523 0.8364 0.4947
C139_37 C 0.14056(11) 0.81736(10) 0.47205(10)
H90_37 H 0.1511 0.8070 0.4731
C140_37 C 0.12449(9) 0.81499(10) 0.45823(10)
H91_37 H 0.1235 0.8028 0.4498
C141_37 C 0.10943(8) 0.83094(8) 0.45667(8)
C142_37 C 0.11174(7) 0.84831(8) 0.46935(8)
H92_37 H 0.1017 0.8592 0.4682
C143_37 C 0.09209(8) 0.82962(8) 0.44153(8)
C144_37 C 0.07381(8) 0.81177(8) 0.41730(9)
C145_37 C 0.06447(8) 0.84430(8) 0.42578(9)
C146_37 C 0.03758(7) 0.86275(9) 0.40435(8)
H93_37 H 0.0372 0.8507 0.3956
C147_37 C 0.05122(8) 0.86271(9) 0.42164(9)
C148_37 C 0.05210(9) 0.88072(9) 0.43399(10)
H94_37 H 0.0612 0.8815 0.4457
C149_37 C 0.03937(11) 0.89744(10) 0.42859(11)
H95_37 H 0.0397 0.9100 0.4366
C150_37 C 0.02623(9) 0.89585(9) 0.41158(10)
H96_37 H 0.0175 0.9074 0.4082
N49_37 N 0.08907(7) 0.76527(6) 0.38587(7)
N51_37 N 0.07970(6) 0.84636(7) 0.43948(7)
N52_37 N 0.09010(7) 0.81193(7) 0.43039(7)
N53_37 N 0.06030(7) 0.82715(7) 0.41477(8)
N54_37 N 0.02534(7) 0.87861(7) 0.39960(7)
C151_37 C 0.14828(8) 0.78121(8) 0.40698(8)
N55_37 N 0.13623(7) 0.77354(6) 0.39569(7)
S7_37 S 0.16525(3) 0.79112(3) 0.42311(3)
N64_29 N 0.14933(7) 0.73319(7) 0.37727(7)
C6_38 C 0.65698(8) 0.21879(8) 0.89828(8)
N2_38 N 0.64569(7) 0.22646(6) 0.88623(7)
S1_38 S 0.67311(3) 0.20888(3) 0.91525(3)
C58_22 C 0.41707(11) 0.38864(12) 0.76760(10)
H37_22 H 0.4159 0.3993 0.7573
C59_22 C 0.43473(12) 0.38786(13) 0.77925(12)
H38_22 H 0.4459 0.3973 0.7766
C60_22 C 0.43645(12) 0.37298(12) 0.79519(13)
H39_22 H 0.4486 0.3722 0.8037
C61_22 C 0.41989(10) 0.35933(10) 0.79822(9)
C62_22 C 0.40259(8) 0.36077(9) 0.78496(8)
H40_22 H 0.3914 0.3511 0.7867
C63_22 C 0.42061(9) 0.34304(10) 0.81433(9)
N23_22 N 0.40560(8) 0.32863(8) 0.81397(7)
C64_22 C 0.48240(10) 0.33293(11) 0.88864(12)
H41_22 H 0.4927 0.3341 0.8993
C65_22 C 0.47075(12) 0.31527(12) 0.88786(13)
H42_22 H 0.4734 0.3041 0.8973
C66_22 C 0.45481(13) 0.31355(12) 0.87298(12)
H43_22 H 0.4463 0.3014 0.8722
C67_22 C 0.45178(9) 0.33011(10) 0.85933(10)
C68_22 C 0.46504(8) 0.34741(8) 0.86077(9)
H44_22 H 0.4633 0.3586 0.8511
C69_22 C 0.43567(9) 0.32939(9) 0.84304(10)
N25_22 N 0.43603(7) 0.34440(8) 0.82863(8)
C70_22 C 0.36136(12) 0.26760(10) 0.83293(11)
H45_22 H 0.3507 0.2573 0.8341
C71_22 C 0.36214(13) 0.27925(12) 0.81527(12)
H46_22 H 0.3527 0.2766 0.8041
C72_22 C 0.37702(12) 0.29519(13) 0.81355(12)
H47_22 H 0.3778 0.3037 0.8014
C73_22 C 0.39067(10) 0.29822(9) 0.83011(10)
C74_22 C 0.38923(9) 0.28496(8) 0.84741(8)
H48_22 H 0.3989 0.2867 0.8586
C75_22 C 0.40696(10) 0.31433(9) 0.82939(9)
N26_22 N 0.37494(7) 0.27001(7) 0.84886(7)
N27_22 N 0.42137(8) 0.31397(7) 0.84440(8)
C114_38 C 0.64916(8) 0.21878(7) 0.83895(8)
H73_38 H 0.6560 0.2154 0.8517
C115_38 C 0.65367(9) 0.20684(8) 0.82155(8)
C116_38 C 0.64400(11) 0.21194(10) 0.80267(9)
H74_38 H 0.6466 0.2040 0.7904
C117_38 C 0.63056(12) 0.22884(10) 0.80240(9)
H75_38 H 0.6239 0.2329 0.7898
C118_38 C 0.62690(10) 0.23985(10) 0.82076(9)
H76_38 H 0.6177 0.2515 0.8204
C120_38 C 0.73466(9) 0.16482(9) 0.89137(9)
H77_38 H 0.7447 0.1636 0.9023
C121_38 C 0.72205(10) 0.18264(10) 0.89056(11)
H78_38 H 0.7231 0.1930 0.9011
C122_38 C 0.70823(10) 0.18501(10) 0.87449(9)
H79_38 H 0.6998 0.1972 0.8735
C123_38 C 0.70667(8) 0.16906(8) 0.85943(8)
C124_38 C 0.71935(8) 0.15169(8) 0.86174(7)
H80_38 H 0.7182 0.1408 0.8517
C125_38 C 0.69153(8) 0.17038(8) 0.84209(8)
C126_38 C 0.66730(9) 0.18823(8) 0.82381(8)
C127_38 C 0.67578(9) 0.15570(8) 0.81447(8)
C128_38 C 0.65435(8) 0.13725(9) 0.78758(7)
H81_38 H 0.6456 0.1493 0.7872
C129_38 C 0.67164(9) 0.13729(9) 0.80122(8)
C130_38 C 0.68399(10) 0.11928(9) 0.80210(9)
H82_38 H 0.6957 0.1185 0.8112
C131_38 C 0.67859(11) 0.10256(10) 0.78937(11)
H83_38 H 0.6866 0.0900 0.7897
C132_38 C 0.66158(10) 0.10415(9) 0.77623(9)
H84_38 H 0.6582 0.0926 0.7675
N42_38 N 0.63587(7) 0.23473(6) 0.83907(7)
N45_38 N 0.68948(7) 0.15364(7) 0.82970(6)
N46_38 N 0.68039(7) 0.18807(7) 0.84010(7)
N47_38 N 0.66477(8) 0.17285(7) 0.81030(7)
N48_38 N 0.64960(7) 0.12139(7) 0.77534(7)
C133_38 C 0.66105(8) 0.28122(7) 0.85084(8)
H85_38 H 0.6483 0.2846 0.8440
C134_38 C 0.67845(8) 0.29316(8) 0.84633(9)
C135_38 C 0.69733(9) 0.28806(10) 0.85600(11)
H86_38 H 0.7096 0.2960 0.8534
C136_38 C 0.69760(9) 0.27116(10) 0.86944(12)
H87_38 H 0.7102 0.2671 0.8761
C137_38 C 0.67924(9) 0.26015(10) 0.87310(10)
H88_38 H 0.6796 0.2485 0.8823
C138_38 C 0.60863(9) 0.33518(9) 0.76534(9)
H89_38 H 0.5977 0.3364 0.7553
C139_38 C 0.60944(11) 0.31736(10) 0.77795(10)
H90_38 H 0.5989 0.3070 0.7769
C140_38 C 0.62551(9) 0.31499(10) 0.79177(10)
H91_38 H 0.6265 0.3028 0.8002
C141_38 C 0.64057(8) 0.33094(8) 0.79333(8)
C142_38 C 0.63826(7) 0.34831(8) 0.78065(8)
H92_38 H 0.6483 0.3592 0.7818
C143_38 C 0.65791(8) 0.32962(8) 0.80847(8)
C144_38 C 0.67619(8) 0.31177(8) 0.83270(9)
C145_38 C 0.68553(8) 0.34430(8) 0.82422(9)
C146_38 C 0.71242(7) 0.36275(9) 0.84565(8)
H93_38 H 0.7128 0.3507 0.8544
C147_38 C 0.69878(8) 0.36271(9) 0.82836(9)
C148_38 C 0.69790(9) 0.38072(9) 0.81601(10)
H94_38 H 0.6888 0.3815 0.8043
C149_38 C 0.71063(11) 0.39744(10) 0.82141(11)
H95_38 H 0.7103 0.4100 0.8134
C150_38 C 0.72377(9) 0.39585(9) 0.83842(10)
H96_38 H 0.7325 0.4074 0.8418
N49_38 N 0.66093(7) 0.26527(6) 0.86413(7)
N51_38 N 0.67030(6) 0.34636(7) 0.81052(7)
N52_38 N 0.65990(7) 0.31193(7) 0.81961(7)
N53_38 N 0.68970(7) 0.32715(7) 0.83523(8)
N54_38 N 0.72466(7) 0.37861(7) 0.85040(7)
C151_38 C 0.60172(8) 0.28121(8) 0.84302(8)
N55_38 N 0.61377(7) 0.27354(6) 0.85431(7)
S7_38 S 0.58475(3) 0.29112(3) 0.82689(3)
N64_30 N 0.60067(7) 0.23319(7) 0.87273(7)
C6_39 C 0.15698(8) 0.03121(8) 0.85172(8)
N2_39 N 0.14569(7) 0.02354(6) 0.86377(7)
S1_39 S 0.17311(3) 0.04112(3) 0.83475(3)
C114_39 C 0.14916(8) 0.03122(7) 0.91105(8)
H73_39 H 0.1560 0.0346 0.8983
C115_39 C 0.15367(9) 0.04316(8) 0.92845(8)
C116_39 C 0.14400(11) 0.03806(10) 0.94733(9)
H74_39 H 0.1466 0.0460 0.9596
C117_39 C 0.13056(12) 0.02116(10) 0.94760(9)
H75_39 H 0.1239 0.0171 0.9602
C118_39 C 0.12690(10) 0.01015(10) 0.92924(9)
C120_39 C 0.23466(9) 0.08518(9) 0.85863(9)
H77_39 H 0.2447 0.0864 0.8477
C121_39 C 0.22205(10) 0.06736(10) 0.85944(11)
H78_39 H 0.2231 0.0570 0.8489
C122_39 C 0.20823(10) 0.06499(10) 0.87551(9)
H79_39 H 0.1998 0.0528 0.8765
C123_39 C 0.20667(8) 0.08094(8) 0.89057(8)
C124_39 C 0.21935(8) 0.09831(8) 0.88826(7)
H80_39 H 0.2182 0.1092 0.8983
C125_39 C 0.19153(8) 0.07962(8) 0.90791(8)
C126_39 C 0.16730(9) 0.06177(8) 0.92619(8)
C127_39 C 0.17578(9) 0.09430(8) 0.93553(8)
C128_39 C 0.15435(8) 0.11275(9) 0.96242(7)
H81_39 H 0.1456 0.1007 0.9628
C129_39 C 0.17164(9) 0.11271(9) 0.94878(8)
C130_39 C 0.18399(10) 0.13072(9) 0.94790(9)
H82_39 H 0.1957 0.1315 0.9388
C131_39 C 0.17859(11) 0.14744(10) 0.96063(11)
H83_39 H 0.1866 0.1600 0.9603
C132_39 C 0.16158(10) 0.14585(9) 0.97377(9)
H84_39 H 0.1582 0.1574 0.9825
N42_39 N 0.13587(7) 0.01527(6) 0.91093(7)
N45_39 N 0.18948(7) 0.09636(7) 0.92030(6)
N46_39 N 0.18039(7) 0.06193(7) 0.90990(7)
N47_39 N 0.16477(8) 0.07715(7) 0.93970(7)
N48_39 N 0.14960(7) 0.12861(7) 0.97466(7)
H88_39 H 0.1796 0.0015 0.8677
N64_31 N 0.10067(7) 0.01681(7) 0.87727(7)
H76_39 H 0.1177 0.9985 0.9296
C133_39 C 0.16105(8) 0.96878(7) 0.89916(8)
H85_39 H 0.1483 0.9654 0.9060
C134_39 C 0.17845(8) 0.95684(8) 0.90367(9)
C135_39 C 0.19733(9) 0.96194(10) 0.89400(11)
H86_39 H 0.2096 0.9540 0.8966
C136_39 C 0.19760(9) 0.97884(10) 0.88056(12)
H87_39 H 0.2102 0.9829 0.8739
C137_39 C 0.17924(9) 0.98985(10) 0.87690(10)
C138_39 C 0.10863(9) 0.91482(9) 0.98466(9)
H89_39 H 0.0977 0.9136 0.9947
C139_39 C 0.10944(11) 0.93264(10) 0.97205(10)
H90_39 H 0.0989 0.9430 0.9731
C140_39 C 0.12551(9) 0.93501(10) 0.95823(10)
H91_39 H 0.1265 0.9472 0.9498
C141_39 C 0.14057(8) 0.91906(8) 0.95667(8)
C142_39 C 0.13826(7) 0.90169(8) 0.96935(8)
H92_39 H 0.1483 0.8908 0.9682
C143_39 C 0.15791(8) 0.92038(8) 0.94153(8)
C144_39 C 0.17619(8) 0.93823(8) 0.91730(9)
C145_39 C 0.18553(8) 0.90570(8) 0.92578(9)
C146_39 C 0.21242(7) 0.88725(9) 0.90435(8)
H93_39 H 0.2128 0.8993 0.8956
C147_39 C 0.19878(8) 0.88729(9) 0.92164(9)
C148_39 C 0.19790(9) 0.86928(9) 0.93399(10)
H94_39 H 0.1888 0.8685 0.9457
C149_39 C 0.21063(11) 0.85256(10) 0.92859(11)
H95_39 H 0.2103 0.8400 0.9366
C150_39 C 0.22377(9) 0.85415(9) 0.91158(10)
H96_39 H 0.2325 0.8426 0.9082
N49_39 N 0.16093(7) 0.98473(6) 0.88587(7)
N51_39 N 0.17030(6) 0.90364(7) 0.93948(7)
N52_39 N 0.15990(7) 0.93807(7) 0.93039(7)
N53_39 N 0.18970(7) 0.92285(7) 0.91477(8)
N54_39 N 0.22466(7) 0.87139(7) 0.89960(7)
C151_39 C 0.10172(8) 0.96879(8) 0.90698(8)
N55_39 N 0.11377(7) 0.97646(6) 0.89569(7)
S7_39 S 0.08475(3) 0.95888(3) 0.92311(3)
C58_23 C 0.91707(11) 0.86136(12) 0.98240(10)
H37_23 H 0.9159 0.8507 0.9927
C59_23 C 0.93473(12) 0.86214(13) 0.97075(12)
H38_23 H 0.9459 0.8527 0.9734
C60_23 C 0.93645(12) 0.87702(12) 0.95481(13)
H39_23 H 0.9486 0.8778 0.9463
C61_23 C 0.91989(10) 0.89067(10) 0.95178(9)
C62_23 C 0.90259(8) 0.88923(9) 0.96504(8)
H40_23 H 0.8914 0.8989 0.9633
C63_23 C 0.92061(9) 0.90696(10) 0.93567(9)
N23_23 N 0.90560(8) 0.92137(8) 0.93603(7)
C64_23 C 0.98240(10) 0.91707(11) 0.86136(12)
H41_23 H 0.9927 0.9159 0.8507
C65_23 C 0.97075(12) 0.93473(12) 0.86214(13)
H42_23 H 0.9734 0.9459 0.8527
C66_23 C 0.95481(13) 0.93645(12) 0.87702(12)
H43_23 H 0.9463 0.9486 0.8778
C67_23 C 0.95178(9) 0.91989(10) 0.89067(10)
C68_23 C 0.96504(8) 0.90259(8) 0.88923(9)
H44_23 H 0.9633 0.8914 0.8989
C69_23 C 0.93567(9) 0.92061(9) 0.90696(10)
N25_23 N 0.93603(7) 0.90560(8) 0.92137(8)
C70_23 C 0.86136(12) 0.98240(10) 0.91707(11)
H45_23 H 0.8507 0.9927 0.9159
C71_23 C 0.86214(13) 0.97075(12) 0.93473(12)
H46_23 H 0.8527 0.9734 0.9459
C72_23 C 0.87702(12) 0.95481(13) 0.93645(12)
H47_23 H 0.8778 0.9463 0.9486
C73_23 C 0.89067(10) 0.95178(9) 0.91989(10)
C74_23 C 0.88923(9) 0.96504(8) 0.90259(8)
H48_23 H 0.8989 0.9633 0.8914
C75_23 C 0.90696(10) 0.93567(9) 0.92061(9)
N26_23 N 0.87494(7) 0.97999(7) 0.90114(7)
N27_23 N 0.92137(8) 0.93603(7) 0.90560(8)
C6_40 C 0.59302(8) 0.53121(8) 0.39828(8)
N2_40 N 0.60431(7) 0.52354(6) 0.38623(7)
S1_40 S 0.57689(3) 0.54112(3) 0.41525(3)
C58_24 C 0.83293(11) 0.36136(12) 0.26760(10)
H37_24 H 0.8341 0.3507 0.2573
C59_24 C 0.81527(12) 0.36214(13) 0.27925(12)
H38_24 H 0.8041 0.3527 0.2766
C60_24 C 0.81355(12) 0.37702(12) 0.29519(13)
H39_24 H 0.8014 0.3778 0.3037
C61_24 C 0.83011(10) 0.39067(10) 0.29822(9)
C62_24 C 0.84741(8) 0.38923(9) 0.28496(8)
H40_24 H 0.8586 0.3989 0.2867
C63_24 C 0.82939(9) 0.40696(10) 0.31433(9)
N23_24 N 0.84440(8) 0.42137(8) 0.31397(7)
C64_24 C 0.76760(10) 0.41707(11) 0.38864(12)
H41_24 H 0.7573 0.4159 0.3993
C65_24 C 0.77925(12) 0.43473(12) 0.38786(13)
H42_24 H 0.7766 0.4459 0.3973
C66_24 C 0.79519(13) 0.43645(12) 0.37298(12)
H43_24 H 0.8037 0.4486 0.3722
C67_24 C 0.79822(9) 0.41989(10) 0.35933(10)
C68_24 C 0.78496(8) 0.40259(8) 0.36077(9)
H44_24 H 0.7867 0.3914 0.3511
C69_24 C 0.81433(9) 0.42061(9) 0.34304(10)
N25_24 N 0.81397(7) 0.40560(8) 0.32863(8)
C70_24 C 0.88864(12) 0.48240(10) 0.33293(11)
H45_24 H 0.8993 0.4927 0.3341
C71_24 C 0.88786(13) 0.47075(12) 0.31527(12)
H46_24 H 0.8973 0.4734 0.3041
C72_24 C 0.87298(12) 0.45481(13) 0.31355(12)
H47_24 H 0.8722 0.4463 0.3014
C73_24 C 0.85933(10) 0.45178(9) 0.33011(10)
C74_24 C 0.86077(9) 0.46504(8) 0.34741(8)
H48_24 H 0.8511 0.4633 0.3586
C75_24 C 0.84304(10) 0.43567(9) 0.32939(9)
N26_24 N 0.87506(7) 0.47999(7) 0.34886(7)
N27_24 N 0.82863(8) 0.43603(7) 0.34440(8)
C114_40 C 0.60084(8) 0.53122(7) 0.33895(8)
H73_40 H 0.5940 0.5346 0.3517
C115_40 C 0.59633(9) 0.54316(8) 0.32155(8)
C116_40 C 0.60600(11) 0.53806(10) 0.30267(9)
H74_40 H 0.6034 0.5460 0.2904
C117_40 C 0.61944(12) 0.52116(10) 0.30240(9)
H75_40 H 0.6261 0.5171 0.2898
C118_40 C 0.62310(10) 0.51015(10) 0.32076(9)
H76_40 H 0.6323 0.4985 0.3204
C120_40 C 0.51534(9) 0.58518(9) 0.39137(9)
H77_40 H 0.5053 0.5864 0.4023
C121_40 C 0.52795(10) 0.56736(10) 0.39056(11)
H78_40 H 0.5269 0.5570 0.4011
C122_40 C 0.54177(10) 0.56499(10) 0.37449(9)
H79_40 H 0.5502 0.5528 0.3735
C123_40 C 0.54333(8) 0.58094(8) 0.35943(8)
C124_40 C 0.53065(8) 0.59831(8) 0.36174(7)
H80_40 H 0.5318 0.6092 0.3517
C125_40 C 0.55847(8) 0.57962(8) 0.34209(8)
C126_40 C 0.58270(9) 0.56177(8) 0.32381(8)
C127_40 C 0.57422(9) 0.59430(8) 0.31447(8)
C128_40 C 0.59565(8) 0.61275(9) 0.28758(7)
H81_40 H 0.6044 0.6007 0.2872
C129_40 C 0.57836(9) 0.61271(9) 0.30122(8)
C130_40 C 0.56601(10) 0.63072(9) 0.30210(9)
H82_40 H 0.5543 0.6315 0.3112
C131_40 C 0.57141(11) 0.64744(10) 0.28937(11)
H83_40 H 0.5634 0.6600 0.2897
C132_40 C 0.58842(10) 0.64585(9) 0.27623(9)
H84_40 H 0.5918 0.6574 0.2675
N42_40 N 0.61413(7) 0.51527(6) 0.33907(7)
N45_40 N 0.56052(7) 0.59636(7) 0.32970(6)
N46_40 N 0.56961(7) 0.56193(7) 0.34010(7)
N47_40 N 0.58523(8) 0.57715(7) 0.31030(7)
N48_40 N 0.60040(7) 0.62861(7) 0.27534(7)
C133_40 C 0.58895(8) 0.46878(7) 0.35084(8)
H85_40 H 0.6017 0.4654 0.3440
C134_40 C 0.57155(8) 0.45684(8) 0.34633(9)
C135_40 C 0.55267(9) 0.46194(10) 0.35600(11)
H86_40 H 0.5404 0.4540 0.3534
C136_40 C 0.55240(9) 0.47884(10) 0.36944(12)
H87_40 H 0.5398 0.4829 0.3761
C137_40 C 0.57076(9) 0.48985(10) 0.37310(10)
H88_40 H 0.5704 0.5015 0.3823
C138_40 C 0.64137(9) 0.41482(9) 0.26534(9)
H89_40 H 0.6523 0.4136 0.2553
C139_40 C 0.64056(11) 0.43264(10) 0.27795(10)
H90_40 H 0.6511 0.4430 0.2769
C140_40 C 0.62449(9) 0.43501(10) 0.29177(10)
H91_40 H 0.6235 0.4472 0.3002
C141_40 C 0.60943(8) 0.41906(8) 0.29333(8)
C142_40 C 0.61174(7) 0.40169(8) 0.28065(8)
H92_40 H 0.6017 0.3908 0.2818
C143_40 C 0.59209(8) 0.42038(8) 0.30847(8)
C144_40 C 0.57381(8) 0.43823(8) 0.33270(9)
C145_40 C 0.56447(8) 0.40570(8) 0.32422(9)
C146_40 C 0.53758(7) 0.38725(9) 0.34565(8)
H93_40 H 0.5372 0.3993 0.3544
C147_40 C 0.55122(8) 0.38729(9) 0.32836(9)
C148_40 C 0.55210(9) 0.36928(9) 0.31601(10)
H94_40 H 0.5612 0.3685 0.3043
C149_40 C 0.53937(11) 0.35256(10) 0.32141(11)
H95_40 H 0.5397 0.3400 0.3134
C150_40 C 0.52623(9) 0.35415(9) 0.33842(10)
H96_40 H 0.5175 0.3426 0.3418
N49_40 N 0.58907(7) 0.48473(6) 0.36413(7)
N51_40 N 0.57970(6) 0.40364(7) 0.31052(7)
N52_40 N 0.59010(7) 0.43807(7) 0.31961(7)
N53_40 N 0.56030(7) 0.42285(7) 0.33523(8)
N54_40 N 0.52534(7) 0.37139(7) 0.35040(7)
C151_40 C 0.64828(8) 0.46879(8) 0.34302(8)
N55_40 N 0.63623(7) 0.47646(6) 0.35431(7)
S7_40 S 0.66525(3) 0.45888(3) 0.32689(3)
N64_32 N 0.64933(7) 0.51681(7) 0.37273(7)
H64_37 H 0.0704 0.8823 0.0015
C95_37 C 0.08895(8) 0.85084(8) 0.96878(7)
H61_37 H 0.1017 0.8440 0.9654
C96_37 C 0.07155(8) 0.84633(9) 0.95684(8)
C97_37 C 0.05267(9) 0.85600(11) 0.96194(10)
H62_37 H 0.0404 0.8534 0.9540
C98_37 C 0.05240(9) 0.86944(12) 0.97884(10)
H63_37 H 0.0398 0.8761 0.9829
C99_37 C 0.07076(9) 0.87310(10) 0.98985(10)
C100_37 C 0.14137(9) 0.76534(9) 0.91482(9)
H65_37 H 0.1523 0.7553 0.9136
C101_37 C 0.14056(11) 0.77795(10) 0.93264(10)
H66_37 H 0.1511 0.7769 0.9430
C102_37 C 0.12449(9) 0.79177(10) 0.93501(10)
H67_37 H 0.1235 0.8002 0.9472
C103_37 C 0.10943(8) 0.79333(8) 0.91906(8)
C104_37 C 0.11174(7) 0.78065(8) 0.90169(8)
H68_37 H 0.1017 0.7818 0.8908
C105_37 C 0.09209(8) 0.80847(8) 0.92038(8)
C106_37 C 0.07381(8) 0.83270(9) 0.93823(8)
C107_37 C 0.06447(8) 0.82422(9) 0.90570(8)
C108_37 C 0.03758(7) 0.84565(8) 0.88725(9)
H69_37 H 0.0372 0.8544 0.8993
C109_37 C 0.05122(8) 0.82836(9) 0.88729(9)
C110_37 C 0.05210(9) 0.81601(10) 0.86928(9)
H70_37 H 0.0612 0.8043 0.8685
C111_37 C 0.03937(11) 0.82141(11) 0.85256(10)
H71_37 H 0.0397 0.8134 0.8400
C112_37 C 0.02623(9) 0.83842(10) 0.85415(9)
H72_37 H 0.0175 0.8418 0.8426
N37_37 N 0.07970(6) 0.81052(7) 0.90364(7)
N38_37 N 0.09010(7) 0.81961(7) 0.93807(7)
N39_37 N 0.06030(7) 0.83523(8) 0.92285(7)
C119_29 C 0.64828(8) 0.90698(8) 0.28121(8)
N43_29 N 0.63623(7) 0.89569(7) 0.27354(6)
S6_29 S 0.66525(3) 0.92311(3) 0.29112(3)
C154_29 C 0.59302(8) 0.85172(8) 0.21879(8)
N58_29 N 0.60431(7) 0.86377(7) 0.22646(6)
S10_29 S 0.57689(3) 0.83475(3) 0.20888(3)
C95_38 C 0.58895(8) 0.39916(8) 0.78122(7)
H61_38 H 0.6017 0.4060 0.7846
C96_38 C 0.57155(8) 0.40367(9) 0.79316(8)
C97_38 C 0.55267(9) 0.39400(11) 0.78806(10)
H62_38 H 0.5404 0.3966 0.7960
C98_38 C 0.55240(9) 0.38056(12) 0.77116(10)
H63_38 H 0.5398 0.3739 0.7671
C99_38 C 0.57076(9) 0.37690(10) 0.76015(10)
H64_38 H 0.5704 0.3677 0.7485
C100_38 C 0.64137(9) 0.48466(9) 0.83518(9)
H65_38 H 0.6523 0.4947 0.8364
C101_38 C 0.64056(11) 0.47205(10) 0.81736(10)
H66_38 H 0.6511 0.4731 0.8070
C102_38 C 0.62449(9) 0.45823(10) 0.81499(10)
H67_38 H 0.6235 0.4498 0.8028
C103_38 C 0.60943(8) 0.45667(8) 0.83094(8)
C104_38 C 0.61174(7) 0.46935(8) 0.84831(8)
H68_38 H 0.6017 0.4682 0.8592
C105_38 C 0.59209(8) 0.44153(8) 0.82962(8)
C106_38 C 0.57381(8) 0.41730(9) 0.81177(8)
C107_38 C 0.56447(8) 0.42578(9) 0.84430(8)
C108_38 C 0.53758(7) 0.40435(8) 0.86275(9)
H69_38 H 0.5372 0.3956 0.8507
C109_38 C 0.55122(8) 0.42164(9) 0.86271(9)
C110_38 C 0.55210(9) 0.43399(10) 0.88072(9)
H70_38 H 0.5612 0.4457 0.8815
C111_38 C 0.53937(11) 0.42859(11) 0.89744(10)
H71_38 H 0.5397 0.4366 0.9100
C112_38 C 0.52623(9) 0.41158(10) 0.89585(9)
H72_38 H 0.5175 0.4082 0.9074
N37_38 N 0.57970(6) 0.43948(7) 0.84636(7)
N38_38 N 0.59010(7) 0.43039(7) 0.81193(7)
N39_38 N 0.56030(7) 0.41477(8) 0.82715(7)
C119_30 C 0.14828(8) 0.34302(8) 0.46879(8)
N43_30 N 0.13623(7) 0.35431(7) 0.47646(6)
S6_30 S 0.16525(3) 0.32689(3) 0.45888(3)
C154_30 C 0.09302(8) 0.39828(8) 0.53121(8)
N58_30 N 0.10431(7) 0.38623(7) 0.52354(6)
S10_30 S 0.07689(3) 0.41525(3) 0.54112(3)
C154_31 C 0.15698(8) 0.35172(8) 0.03121(8)
N58_31 N 0.14569(7) 0.36377(7) 0.02354(6)
S10_31 S 0.17311(3) 0.33475(3) 0.04112(3)
C119_31 C 0.10172(8) 0.40698(8) 0.96879(8)
N43_31 N 0.11377(7) 0.39569(7) 0.97646(6)
S6_31 S 0.08475(3) 0.42311(3) 0.95888(3)
C95_39 C 0.66105(8) 0.35084(8) 0.28122(7)
H61_39 H 0.6483 0.3440 0.2846
C96_39 C 0.67845(8) 0.34633(9) 0.29316(8)
C97_39 C 0.69733(9) 0.35600(11) 0.28806(10)
H62_39 H 0.7096 0.3534 0.2960
C98_39 C 0.69760(9) 0.36944(12) 0.27116(10)
H63_39 H 0.7102 0.3761 0.2671
C99_39 C 0.67924(9) 0.37310(10) 0.26015(10)
H64_39 H 0.6796 0.3823 0.2485
C100_39 C 0.60863(9) 0.26534(9) 0.33518(9)
H65_39 H 0.5977 0.2553 0.3364
C101_39 C 0.60944(11) 0.27795(10) 0.31736(10)
H66_39 H 0.5989 0.2769 0.3070
C102_39 C 0.62551(9) 0.29177(10) 0.31499(10)
H67_39 H 0.6265 0.3002 0.3028
C103_39 C 0.64057(8) 0.29333(8) 0.33094(8)
C104_39 C 0.63826(7) 0.28065(8) 0.34831(8)
H68_39 H 0.6483 0.2818 0.3592
C105_39 C 0.65791(8) 0.30847(8) 0.32962(8)
C106_39 C 0.67619(8) 0.33270(9) 0.31177(8)
C107_39 C 0.68553(8) 0.32422(9) 0.34430(8)
C108_39 C 0.71242(7) 0.34565(8) 0.36275(9)
H69_39 H 0.7128 0.3544 0.3507
C109_39 C 0.69878(8) 0.32836(9) 0.36271(9)
C110_39 C 0.69790(9) 0.31601(10) 0.38072(9)
H70_39 H 0.6888 0.3043 0.3815
C111_39 C 0.71063(11) 0.32141(11) 0.39744(10)
H71_39 H 0.7103 0.3134 0.4100
C112_39 C 0.72377(9) 0.33842(10) 0.39585(9)
H72_39 H 0.7325 0.3418 0.4074
N37_39 N 0.67030(6) 0.31052(7) 0.34636(7)
N38_39 N 0.65990(7) 0.31961(7) 0.31193(7)
N39_39 N 0.68970(7) 0.33523(8) 0.32715(7)
C95_40 C 0.16105(8) 0.89916(8) 0.46878(7)
H61_40 H 0.1483 0.9060 0.4654
C96_40 C 0.17845(8) 0.90367(9) 0.45684(8)
C97_40 C 0.19733(9) 0.89400(11) 0.46194(10)
H62_40 H 0.2096 0.8966 0.4540
C98_40 C 0.19760(9) 0.88056(12) 0.47884(10)
H63_40 H 0.2102 0.8739 0.4829
C99_40 C 0.17924(9) 0.87690(10) 0.48985(10)
H64_40 H 0.1796 0.8677 0.5015
C100_40 C 0.10863(9) 0.98466(9) 0.41482(9)
H65_40 H 0.0977 0.9947 0.4136
C101_40 C 0.10944(11) 0.97205(10) 0.43264(10)
H66_40 H 0.0989 0.9731 0.4430
C102_40 C 0.12551(9) 0.95823(10) 0.43501(10)
H67_40 H 0.1265 0.9498 0.4472
C103_40 C 0.14057(8) 0.95667(8) 0.41906(8)
C104_40 C 0.13826(7) 0.96935(8) 0.40169(8)
H68_40 H 0.1483 0.9682 0.3908
C105_40 C 0.15791(8) 0.94153(8) 0.42038(8)
C106_40 C 0.17619(8) 0.91730(9) 0.43823(8)
C107_40 C 0.18553(8) 0.92578(9) 0.40570(8)
C108_40 C 0.21242(7) 0.90435(8) 0.38725(9)
H69_40 H 0.2128 0.8956 0.3993
C109_40 C 0.19878(8) 0.92164(9) 0.38729(9)
C110_40 C 0.19790(9) 0.93399(10) 0.36928(9)
H70_40 H 0.1888 0.9457 0.3685
C111_40 C 0.21063(11) 0.92859(11) 0.35256(10)
H71_40 H 0.2103 0.9366 0.3400
C112_40 C 0.22377(9) 0.91158(10) 0.35415(9)
H72_40 H 0.2325 0.9082 0.3426
N37_40 N 0.17030(6) 0.93948(7) 0.40364(7)
N38_40 N 0.15990(7) 0.93039(7) 0.43807(7)
N39_40 N 0.18970(7) 0.91477(8) 0.42285(7)
C119_32 C 0.60172(8) 0.84302(8) 0.78121(8)
N43_32 N 0.61377(7) 0.85431(7) 0.77354(6)
S6_32 S 0.58475(3) 0.82689(3) 0.79112(3)
C154_32 C 0.65698(8) 0.89828(8) 0.71879(8)
N58_32 N 0.64569(7) 0.88623(7) 0.72646(6)
S10_32 S 0.67311(3) 0.91525(3) 0.70888(3)
C76_13 C 0.21878(7) 0.14916(8) 0.83895(8)
H49_13 H 0.2154 0.1560 0.8517
C77_13 C 0.20684(8) 0.15367(9) 0.82155(8)
C78_13 C 0.21194(10) 0.14400(11) 0.80267(9)
H50_13 H 0.2040 0.1466 0.7904
C79_13 C 0.22884(10) 0.13056(12) 0.80240(9)
H51_13 H 0.2329 0.1239 0.7898
C80_13 C 0.23985(10) 0.12690(10) 0.82076(9)
H52_13 H 0.2515 0.1177 0.8204
C81_13 C 0.16482(9) 0.23466(9) 0.89137(9)
H53_13 H 0.1636 0.2447 0.9023
C82_13 C 0.18264(10) 0.22205(10) 0.89056(11)
H54_13 H 0.1930 0.2231 0.9011
C83_13 C 0.18501(10) 0.20823(10) 0.87449(9)
H55_13 H 0.1972 0.1998 0.8735
C84_13 C 0.16906(8) 0.20667(8) 0.85943(8)
C85_13 C 0.15169(8) 0.21935(8) 0.86174(7)
H56_13 H 0.1408 0.2182 0.8517
C86_13 C 0.17038(8) 0.19153(8) 0.84209(8)
C87_13 C 0.18823(8) 0.16730(9) 0.82381(8)
C88_13 C 0.15570(8) 0.17578(9) 0.81447(8)
C89_13 C 0.13725(9) 0.15435(8) 0.78758(7)
H57_13 H 0.1493 0.1456 0.7872
C90_13 C 0.13729(9) 0.17164(9) 0.80122(8)
C91_13 C 0.11928(9) 0.18399(10) 0.80210(9)
H58_13 H 0.1185 0.1957 0.8112
C92_13 C 0.10256(10) 0.17859(11) 0.78937(11)
H59_13 H 0.0900 0.1866 0.7897
C93_13 C 0.10415(9) 0.16158(10) 0.77623(9)
H60_13 H 0.0926 0.1582 0.7675
C94_13 C 0.07496(12) 0.11991(12) 0.74874(9)
N30_13 N 0.15364(7) 0.18948(7) 0.82970(6)
N31_13 N 0.18807(7) 0.18039(7) 0.84010(7)
N32_13 N 0.17285(7) 0.16477(8) 0.81030(7)
N33_13 N 0.12139(7) 0.14960(7) 0.77534(7)
N34_13 N 0.09250(8) 0.12278(7) 0.75126(7)
S4_13 S 0.05016(4) 0.11570(7) 0.74509(4)
C95_41 C 0.03122(7) 0.10084(8) 0.83895(8)
H61_41 H 0.0346 0.0940 0.8517
C96_41 C 0.04316(8) 0.09633(9) 0.82155(8)
C97_41 C 0.03806(10) 0.10600(11) 0.80267(9)
H62_41 H 0.0460 0.1034 0.7904
C98_41 C 0.02116(10) 0.11944(12) 0.80240(9)
H63_41 H 0.0171 0.1261 0.7898
C99_41 C 0.01015(10) 0.12310(10) 0.82076(9)
C100_41 C 0.08518(9) 0.01534(9) 0.89137(9)
H65_41 H 0.0864 0.0053 0.9023
C101_41 C 0.06736(10) 0.02795(10) 0.89056(11)
H66_41 H 0.0570 0.0269 0.9011
C102_41 C 0.06499(10) 0.04177(10) 0.87449(9)
H67_41 H 0.0528 0.0502 0.8735
C103_41 C 0.08094(8) 0.04333(8) 0.85943(8)
C104_41 C 0.09831(8) 0.03065(8) 0.86174(7)
H68_41 H 0.1092 0.0318 0.8517
C105_41 C 0.07962(8) 0.05847(8) 0.84209(8)
C106_41 C 0.06177(8) 0.08270(9) 0.82381(8)
C107_41 C 0.09430(8) 0.07422(9) 0.81447(8)
C108_41 C 0.11275(9) 0.09565(8) 0.78758(7)
H69_41 H 0.1007 0.1044 0.7872
C109_41 C 0.11271(9) 0.07836(9) 0.80122(8)
C110_41 C 0.13072(9) 0.06601(10) 0.80210(9)
H70_41 H 0.1315 0.0543 0.8112
C111_41 C 0.14744(10) 0.07141(11) 0.78937(11)
H71_41 H 0.1600 0.0634 0.7897
C112_41 C 0.14585(9) 0.08842(10) 0.77623(9)
H72_41 H 0.1574 0.0918 0.7675
C113_13 C 0.17504(12) 0.13009(12) 0.74874(9)
N37_41 N 0.09636(7) 0.06052(7) 0.82970(6)
N38_41 N 0.06193(7) 0.06961(7) 0.84010(7)
N39_41 N 0.07715(7) 0.08523(8) 0.81030(7)
N40_13 N 0.12861(7) 0.10040(7) 0.77534(7)
N41_13 N 0.15750(8) 0.12722(7) 0.75126(7)
S5_13 S 0.19984(4) 0.13430(7) 0.74509(4)
H64_41 H 0.9985 0.1323 0.8204
C76_14 C 0.03122(7) 0.60084(8) 0.33895(8)
H49_14 H 0.0346 0.5940 0.3517
C77_14 C 0.04316(8) 0.59633(9) 0.32155(8)
C78_14 C 0.03806(10) 0.60600(11) 0.30267(9)
H50_14 H 0.0460 0.6034 0.2904
C79_14 C 0.02116(10) 0.61944(12) 0.30240(9)
H51_14 H 0.0171 0.6261 0.2898
C80_14 C 0.01015(10) 0.62310(10) 0.32076(9)
C81_14 C 0.08518(9) 0.51534(9) 0.39137(9)
H53_14 H 0.0864 0.5053 0.4023
C82_14 C 0.06736(10) 0.52795(10) 0.39056(11)
H54_14 H 0.0570 0.5269 0.4011
C83_14 C 0.06499(10) 0.54177(10) 0.37449(9)
H55_14 H 0.0528 0.5502 0.3735
C84_14 C 0.08094(8) 0.54333(8) 0.35943(8)
C85_14 C 0.09831(8) 0.53065(8) 0.36174(7)
H56_14 H 0.1092 0.5318 0.3517
C86_14 C 0.07962(8) 0.55847(8) 0.34209(8)
C87_14 C 0.06177(8) 0.58270(9) 0.32381(8)
C88_14 C 0.09430(8) 0.57422(9) 0.31447(8)
C89_14 C 0.11275(9) 0.59565(8) 0.28758(7)
H57_14 H 0.1007 0.6044 0.2872
C90_14 C 0.11271(9) 0.57836(9) 0.30122(8)
C91_14 C 0.13072(9) 0.56601(10) 0.30210(9)
H58_14 H 0.1315 0.5543 0.3112
C92_14 C 0.14744(10) 0.57141(11) 0.28937(11)
H59_14 H 0.1600 0.5634 0.2897
C93_14 C 0.14585(9) 0.58842(10) 0.27623(9)
H60_14 H 0.1574 0.5918 0.2675
C94_14 C 0.17504(12) 0.63009(12) 0.24874(9)
N30_14 N 0.09636(7) 0.56052(7) 0.32970(6)
N31_14 N 0.06193(7) 0.56961(7) 0.34010(7)
N32_14 N 0.07715(7) 0.58523(8) 0.31030(7)
N33_14 N 0.12861(7) 0.60040(7) 0.27534(7)
N34_14 N 0.15750(8) 0.62722(7) 0.25126(7)
S4_14 S 0.19984(4) 0.63430(7) 0.24509(4)
C95_42 C 0.21878(7) 0.64916(8) 0.33895(8)
H61_42 H 0.2154 0.6560 0.3517
C96_42 C 0.20684(8) 0.65367(9) 0.32155(8)
C97_42 C 0.21194(10) 0.64400(11) 0.30267(9)
H62_42 H 0.2040 0.6466 0.2904
C98_42 C 0.22884(10) 0.63056(12) 0.30240(9)
H63_42 H 0.2329 0.6239 0.2898
C99_42 C 0.23985(10) 0.62690(10) 0.32076(9)
H64_42 H 0.2515 0.6177 0.3204
C100_42 C 0.16482(9) 0.73466(9) 0.39137(9)
H65_42 H 0.1636 0.7447 0.4023
C101_42 C 0.18264(10) 0.72205(10) 0.39056(11)
H66_42 H 0.1930 0.7231 0.4011
C102_42 C 0.18501(10) 0.70823(10) 0.37449(9)
H67_42 H 0.1972 0.6998 0.3735
C103_42 C 0.16906(8) 0.70667(8) 0.35943(8)
C104_42 C 0.15169(8) 0.71935(8) 0.36174(7)
H68_42 H 0.1408 0.7182 0.3517
C105_42 C 0.17038(8) 0.69153(8) 0.34209(8)
C106_42 C 0.18823(8) 0.66730(9) 0.32381(8)
C107_42 C 0.15570(8) 0.67578(9) 0.31447(8)
C108_42 C 0.13725(9) 0.65435(8) 0.28758(7)
H69_42 H 0.1493 0.6456 0.2872
C109_42 C 0.13729(9) 0.67164(9) 0.30122(8)
C110_42 C 0.11928(9) 0.68399(10) 0.30210(9)
H70_42 H 0.1185 0.6957 0.3112
C111_42 C 0.10256(10) 0.67859(11) 0.28937(11)
H71_42 H 0.0900 0.6866 0.2897
C112_42 C 0.10415(9) 0.66158(10) 0.27623(9)
H72_42 H 0.0926 0.6582 0.2675
C113_14 C 0.07496(12) 0.61991(12) 0.24874(9)
N37_42 N 0.15364(7) 0.68948(7) 0.32970(6)
N38_42 N 0.18807(7) 0.68039(7) 0.34010(7)
N39_42 N 0.17285(7) 0.66477(8) 0.31030(7)
N40_14 N 0.12139(7) 0.64960(7) 0.27534(7)
N41_14 N 0.09250(8) 0.62278(7) 0.25126(7)
S5_14 S 0.05016(4) 0.61570(7) 0.24509(4)
H52_14 H 0.9985 0.6323 0.3204
C76_15 C 0.53122(7) 0.64916(8) 0.41105(8)
H49_15 H 0.5346 0.6560 0.3983
C77_15 C 0.54316(8) 0.65367(9) 0.42845(8)
C78_15 C 0.53806(10) 0.64400(11) 0.44733(9)
H50_15 H 0.5460 0.6466 0.4596
C79_15 C 0.52116(10) 0.63056(12) 0.44760(9)
H51_15 H 0.5171 0.6239 0.4602
C80_15 C 0.51015(10) 0.62690(10) 0.42924(9)
H52_15 H 0.4985 0.6177 0.4296
C81_15 C 0.58518(9) 0.73466(9) 0.35863(9)
H53_15 H 0.5864 0.7447 0.3477
C82_15 C 0.56736(10) 0.72205(10) 0.35944(11)
H54_15 H 0.5570 0.7231 0.3489
C83_15 C 0.56499(10) 0.70823(10) 0.37551(9)
H55_15 H 0.5528 0.6998 0.3765
C84_15 C 0.58094(8) 0.70667(8) 0.39057(8)
C85_15 C 0.59831(8) 0.71935(8) 0.38826(7)
H56_15 H 0.6092 0.7182 0.3983
C86_15 C 0.57962(8) 0.69153(8) 0.40791(8)
C87_15 C 0.56177(8) 0.66730(9) 0.42619(8)
C88_15 C 0.59430(8) 0.67578(9) 0.43553(8)
C89_15 C 0.61275(9) 0.65435(8) 0.46242(7)
H57_15 H 0.6007 0.6456 0.4628
C90_15 C 0.61271(9) 0.67164(9) 0.44878(8)
C91_15 C 0.63072(9) 0.68399(10) 0.44790(9)
H58_15 H 0.6315 0.6957 0.4388
C92_15 C 0.64744(10) 0.67859(11) 0.46063(11)
H59_15 H 0.6600 0.6866 0.4603
C93_15 C 0.64585(9) 0.66158(10) 0.47377(9)
H60_15 H 0.6574 0.6582 0.4825
C94_15 C 0.67504(12) 0.61991(12) 0.50126(9)
N30_15 N 0.59636(7) 0.68948(7) 0.42030(6)
N31_15 N 0.56193(7) 0.68039(7) 0.40990(7)
N32_15 N 0.57715(7) 0.66477(8) 0.43970(7)
N33_15 N 0.62861(7) 0.64960(7) 0.47466(7)
N34_15 N 0.65750(8) 0.62278(7) 0.49874(7)
S4_15 S 0.69984(4) 0.61570(7) 0.50491(4)
C95_43 C 0.71878(7) 0.60084(8) 0.41105(8)
H61_43 H 0.7154 0.5940 0.3983
C96_43 C 0.70684(8) 0.59633(9) 0.42845(8)
C97_43 C 0.71194(10) 0.60600(11) 0.44733(9)
H62_43 H 0.7040 0.6034 0.4596
C98_43 C 0.72884(10) 0.61944(12) 0.44760(9)
H63_43 H 0.7329 0.6261 0.4602
C99_43 C 0.73985(10) 0.62310(10) 0.42924(9)
H64_43 H 0.7515 0.6323 0.4296
C100_43 C 0.66482(9) 0.51534(9) 0.35863(9)
H65_43 H 0.6636 0.5053 0.3477
C101_43 C 0.68264(10) 0.52795(10) 0.35944(11)
H66_43 H 0.6930 0.5269 0.3489
C102_43 C 0.68501(10) 0.54177(10) 0.37551(9)
H67_43 H 0.6972 0.5502 0.3765
C103_43 C 0.66906(8) 0.54333(8) 0.39057(8)
C104_43 C 0.65169(8) 0.53065(8) 0.38826(7)
H68_43 H 0.6408 0.5318 0.3983
C105_43 C 0.67038(8) 0.55847(8) 0.40791(8)
C106_43 C 0.68823(8) 0.58270(9) 0.42619(8)
C107_43 C 0.65570(8) 0.57422(9) 0.43553(8)
C108_43 C 0.63725(9) 0.59565(8) 0.46242(7)
H69_43 H 0.6493 0.6044 0.4628
C109_43 C 0.63729(9) 0.57836(9) 0.44878(8)
C110_43 C 0.61928(9) 0.56601(10) 0.44790(9)
H70_43 H 0.6185 0.5543 0.4388
C111_43 C 0.60256(10) 0.57141(11) 0.46063(11)
H71_43 H 0.5900 0.5634 0.4603
C112_43 C 0.60415(9) 0.58842(10) 0.47377(9)
H72_43 H 0.5926 0.5918 0.4825
C113_15 C 0.57496(12) 0.63009(12) 0.50126(9)
N37_43 N 0.65364(7) 0.56052(7) 0.42030(6)
N38_43 N 0.68807(7) 0.56961(7) 0.40990(7)
N39_43 N 0.67285(7) 0.58523(8) 0.43970(7)
N40_15 N 0.62139(7) 0.60040(7) 0.47466(7)
N41_15 N 0.59250(8) 0.62722(7) 0.49874(7)
S5_15 S 0.55016(4) 0.63430(7) 0.50491(4)
C94_16 C 0.57496(12) 0.13009(12) 0.00126(9)
S4_16 S 0.55016(4) 0.13430(7) 0.00491(4)
C113_16 C 0.67504(12) 0.11991(12) 0.00126(9)
S5_16 S 0.69984(4) 0.11570(7) 0.00491(4)
C76_16 C 0.71878(7) 0.10084(8) 0.91105(8)
H49_16 H 0.7154 0.0940 0.8983
C77_16 C 0.70684(8) 0.09633(9) 0.92845(8)
C78_16 C 0.71194(10) 0.10600(11) 0.94733(9)
H50_16 H 0.7040 0.1034 0.9596
C79_16 C 0.72884(10) 0.11944(12) 0.94760(9)
H51_16 H 0.7329 0.1261 0.9602
C80_16 C 0.73985(10) 0.12310(10) 0.92924(9)
H52_16 H 0.7515 0.1323 0.9296
C81_16 C 0.66482(9) 0.01534(9) 0.85863(9)
H53_16 H 0.6636 0.0053 0.8477
C82_16 C 0.68264(10) 0.02795(10) 0.85944(11)
H54_16 H 0.6930 0.0269 0.8489
C83_16 C 0.68501(10) 0.04177(10) 0.87551(9)
H55_16 H 0.6972 0.0502 0.8765
C84_16 C 0.66906(8) 0.04333(8) 0.89057(8)
C85_16 C 0.65169(8) 0.03065(8) 0.88826(7)
H56_16 H 0.6408 0.0318 0.8983
C86_16 C 0.67038(8) 0.05847(8) 0.90791(8)
C87_16 C 0.68823(8) 0.08270(9) 0.92619(8)
C88_16 C 0.65570(8) 0.07422(9) 0.93553(8)
C89_16 C 0.63725(9) 0.09565(8) 0.96242(7)
H57_16 H 0.6493 0.1044 0.9628
C90_16 C 0.63729(9) 0.07836(9) 0.94878(8)
C91_16 C 0.61928(9) 0.06601(10) 0.94790(9)
H58_16 H 0.6185 0.0543 0.9388
C92_16 C 0.60256(10) 0.07141(11) 0.96063(11)
H59_16 H 0.5900 0.0634 0.9603
C93_16 C 0.60415(9) 0.08842(10) 0.97377(9)
H60_16 H 0.5926 0.0918 0.9825
N30_16 N 0.65364(7) 0.06052(7) 0.92030(6)
N31_16 N 0.68807(7) 0.06961(7) 0.90990(7)
N32_16 N 0.67285(7) 0.08523(8) 0.93970(7)
N33_16 N 0.62139(7) 0.10040(7) 0.97466(7)
N34_16 N 0.59250(8) 0.12722(7) 0.99874(7)
C95_44 C 0.53122(7) 0.14916(8) 0.91105(8)
H61_44 H 0.5346 0.1560 0.8983
C96_44 C 0.54316(8) 0.15367(9) 0.92845(8)
C97_44 C 0.53806(10) 0.14400(11) 0.94733(9)
H62_44 H 0.5460 0.1466 0.9596
C98_44 C 0.52116(10) 0.13056(12) 0.94760(9)
H63_44 H 0.5171 0.1239 0.9602
C99_44 C 0.51015(10) 0.12690(10) 0.92924(9)
H64_44 H 0.4985 0.1177 0.9296
C100_44 C 0.58518(9) 0.23466(9) 0.85863(9)
H65_44 H 0.5864 0.2447 0.8477
C101_44 C 0.56736(10) 0.22205(10) 0.85944(11)
H66_44 H 0.5570 0.2231 0.8489
C102_44 C 0.56499(10) 0.20823(10) 0.87551(9)
H67_44 H 0.5528 0.1998 0.8765
C103_44 C 0.58094(8) 0.20667(8) 0.89057(8)
C104_44 C 0.59831(8) 0.21935(8) 0.88826(7)
H68_44 H 0.6092 0.2182 0.8983
C105_44 C 0.57962(8) 0.19153(8) 0.90791(8)
C106_44 C 0.56177(8) 0.16730(9) 0.92619(8)
C107_44 C 0.59430(8) 0.17578(9) 0.93553(8)
C108_44 C 0.61275(9) 0.15435(8) 0.96242(7)
H69_44 H 0.6007 0.1456 0.9628
C109_44 C 0.61271(9) 0.17164(9) 0.94878(8)
C110_44 C 0.63072(9) 0.18399(10) 0.94790(9)
H70_44 H 0.6315 0.1957 0.9388
C111_44 C 0.64744(10) 0.17859(11) 0.96063(11)
H71_44 H 0.6600 0.1866 0.9603
C112_44 C 0.64585(9) 0.16158(10) 0.97377(9)
H72_44 H 0.6574 0.1582 0.9825
N37_44 N 0.59636(7) 0.18948(7) 0.92030(6)
N38_44 N 0.56193(7) 0.18039(7) 0.90990(7)
N39_44 N 0.57715(7) 0.16477(8) 0.93970(7)
N40_16 N 0.62861(7) 0.14960(7) 0.97466(7)
N41_16 N 0.65750(8) 0.12278(7) 0.99874(7)
C6_41 C 0.46879(8) 0.34302(8) 0.64828(8)
N2_41 N 0.47646(6) 0.35431(7) 0.63623(7)
S1_41 S 0.45888(3) 0.32689(3) 0.66525(3)
C114_41 C 0.46878(7) 0.35084(8) 0.58895(8)
H73_41 H 0.4654 0.3440 0.6017
C115_41 C 0.45684(8) 0.34633(9) 0.57155(8)
C116_41 C 0.46194(10) 0.35600(11) 0.55267(9)
H74_41 H 0.4540 0.3534 0.5404
C117_41 C 0.47884(10) 0.36944(12) 0.55240(9)
H75_41 H 0.4829 0.3761 0.5398
C118_41 C 0.48985(10) 0.37310(10) 0.57076(9)
H76_41 H 0.5015 0.3823 0.5704
C120_41 C 0.41482(9) 0.26534(9) 0.64137(9)
H77_41 H 0.4136 0.2553 0.6523
C121_41 C 0.43264(10) 0.27795(10) 0.64056(11)
H78_41 H 0.4430 0.2769 0.6511
C122_41 C 0.43501(10) 0.29177(10) 0.62449(9)
H79_41 H 0.4472 0.3002 0.6235
C123_41 C 0.41906(8) 0.29333(8) 0.60943(8)
C124_41 C 0.40169(8) 0.28065(8) 0.61174(7)
H80_41 H 0.3908 0.2818 0.6017
C125_41 C 0.42038(8) 0.30847(8) 0.59209(8)
C126_41 C 0.43823(8) 0.33270(9) 0.57381(8)
C127_41 C 0.40570(8) 0.32422(9) 0.56447(8)
C128_41 C 0.38725(9) 0.34565(8) 0.53758(7)
H81_41 H 0.3993 0.3544 0.5372
C129_41 C 0.38729(9) 0.32836(9) 0.55122(8)
C130_41 C 0.36928(9) 0.31601(10) 0.55210(9)
H82_41 H 0.3685 0.3043 0.5612
C131_41 C 0.35256(10) 0.32141(11) 0.53937(11)
H83_41 H 0.3400 0.3134 0.5397
C132_41 C 0.35415(9) 0.33842(10) 0.52623(9)
H84_41 H 0.3426 0.3418 0.5175
N42_41 N 0.48473(6) 0.36413(7) 0.58907(7)
N45_41 N 0.40364(7) 0.31052(7) 0.57970(6)
N46_41 N 0.43807(7) 0.31961(7) 0.59010(7)
N47_41 N 0.42285(7) 0.33523(8) 0.56030(7)
N48_41 N 0.37139(7) 0.35040(7) 0.52534(7)
C133_41 C 0.53122(7) 0.33895(8) 0.60084(8)
H85_41 H 0.5346 0.3517 0.5940
C134_41 C 0.54316(8) 0.32155(8) 0.59633(9)
C135_41 C 0.53806(10) 0.30267(9) 0.60600(11)
H86_41 H 0.5460 0.2904 0.6034
C136_41 C 0.52116(10) 0.30240(9) 0.61944(12)
H87_41 H 0.5171 0.2898 0.6261
C137_41 C 0.51015(10) 0.32076(9) 0.62310(10)
H88_41 H 0.4985 0.3204 0.6323
C138_41 C 0.58518(9) 0.39137(9) 0.51534(9)
H89_41 H 0.5864 0.4023 0.5053
C139_41 C 0.56736(10) 0.39056(11) 0.52795(10)
H90_41 H 0.5570 0.4011 0.5269
C140_41 C 0.56499(10) 0.37449(9) 0.54177(10)
H91_41 H 0.5528 0.3735 0.5502
C141_41 C 0.58094(8) 0.35943(8) 0.54333(8)
C142_41 C 0.59831(8) 0.36174(7) 0.53065(8)
H92_41 H 0.6092 0.3517 0.5318
C143_41 C 0.57962(8) 0.34209(8) 0.55847(8)
C144_41 C 0.56177(8) 0.32381(8) 0.58270(9)
C145_41 C 0.59430(8) 0.31447(8) 0.57422(9)
C146_41 C 0.61275(9) 0.28758(7) 0.59565(8)
H93_41 H 0.6007 0.2872 0.6044
C147_41 C 0.61271(9) 0.30122(8) 0.57836(9)
C148_41 C 0.63072(9) 0.30210(9) 0.56601(10)
H94_41 H 0.6315 0.3112 0.5543
C149_41 C 0.64744(10) 0.28937(11) 0.57141(11)
H95_41 H 0.6600 0.2897 0.5634
C150_41 C 0.64585(9) 0.27623(9) 0.58842(10)
H96_41 H 0.6574 0.2675 0.5918
N49_41 N 0.51527(6) 0.33907(7) 0.61413(7)
N51_41 N 0.59636(7) 0.32970(6) 0.56052(7)
N52_41 N 0.56193(7) 0.34010(7) 0.56961(7)
N53_41 N 0.57715(7) 0.31030(7) 0.58523(8)
N54_41 N 0.62861(7) 0.27534(7) 0.60040(7)
C151_41 C 0.53121(8) 0.39828(8) 0.59302(8)
N55_41 N 0.52354(6) 0.38623(7) 0.60431(7)
S7_41 S 0.54112(3) 0.41525(3) 0.57689(3)
H76_42 H 0.0015 0.8677 0.1796
C133_42 C 0.03122(7) 0.91105(8) 0.14916(8)
H85_42 H 0.0346 0.8983 0.1560
C134_42 C 0.04316(8) 0.92845(8) 0.15367(9)
C135_42 C 0.03806(10) 0.94733(9) 0.14400(11)
H86_42 H 0.0460 0.9596 0.1466
C136_42 C 0.02116(10) 0.94760(9) 0.13056(12)
H87_42 H 0.0171 0.9602 0.1239
C137_42 C 0.01015(10) 0.92924(9) 0.12690(10)
C138_42 C 0.08518(9) 0.85863(9) 0.23466(9)
H89_42 H 0.0864 0.8477 0.2447
C139_42 C 0.06736(10) 0.85944(11) 0.22205(10)
H90_42 H 0.0570 0.8489 0.2231
C140_42 C 0.06499(10) 0.87551(9) 0.20823(10)
H91_42 H 0.0528 0.8765 0.1998
C141_42 C 0.08094(8) 0.89057(8) 0.20667(8)
C142_42 C 0.09831(8) 0.88826(7) 0.21935(8)
H92_42 H 0.1092 0.8983 0.2182
C143_42 C 0.07962(8) 0.90791(8) 0.19153(8)
C144_42 C 0.06177(8) 0.92619(8) 0.16730(9)
C145_42 C 0.09430(8) 0.93553(8) 0.17578(9)
C146_42 C 0.11275(9) 0.96242(7) 0.15435(8)
H93_42 H 0.1007 0.9628 0.1456
C147_42 C 0.11271(9) 0.94878(8) 0.17164(9)
C148_42 C 0.13072(9) 0.94790(9) 0.18399(10)
H94_42 H 0.1315 0.9388 0.1957
C149_42 C 0.14744(10) 0.96063(11) 0.17859(11)
H95_42 H 0.1600 0.9603 0.1866
C150_42 C 0.14585(9) 0.97377(9) 0.16158(10)
H96_42 H 0.1574 0.9825 0.1582
N49_42 N 0.01527(6) 0.91093(7) 0.13587(7)
N51_42 N 0.09636(7) 0.92030(6) 0.18948(7)
N52_42 N 0.06193(7) 0.90990(7) 0.18039(7)
N53_42 N 0.07715(7) 0.93970(7) 0.16477(8)
N54_42 N 0.12861(7) 0.97466(7) 0.14960(7)
C151_42 C 0.03121(8) 0.85172(8) 0.15698(8)
N55_42 N 0.02354(6) 0.86377(7) 0.14569(7)
S7_42 S 0.04112(3) 0.83475(3) 0.17311(3)
C6_42 C 0.96879(8) 0.90698(8) 0.10172(8)
N2_42 N 0.97646(6) 0.89569(7) 0.11377(7)
S1_42 S 0.95888(3) 0.92311(3) 0.08475(3)
C114_42 C 0.96878(7) 0.89916(8) 0.16105(8)
H73_42 H 0.9654 0.9060 0.1483
C115_42 C 0.95684(8) 0.90367(9) 0.17845(8)
C116_42 C 0.96194(10) 0.89400(11) 0.19733(9)
H74_42 H 0.9540 0.8966 0.2096
C117_42 C 0.97884(10) 0.88056(12) 0.19760(9)
H75_42 H 0.9829 0.8739 0.2102
C118_42 C 0.98985(10) 0.87690(10) 0.17924(9)
C120_42 C 0.91482(9) 0.98466(9) 0.10863(9)
H77_42 H 0.9136 0.9947 0.0977
C121_42 C 0.93264(10) 0.97205(10) 0.10944(11)
H78_42 H 0.9430 0.9731 0.0989
C122_42 C 0.93501(10) 0.95823(10) 0.12551(9)
H79_42 H 0.9472 0.9498 0.1265
C123_42 C 0.91906(8) 0.95667(8) 0.14057(8)
C124_42 C 0.90169(8) 0.96935(8) 0.13826(7)
H80_42 H 0.8908 0.9682 0.1483
C125_42 C 0.92038(8) 0.94153(8) 0.15791(8)
C126_42 C 0.93823(8) 0.91730(9) 0.17619(8)
C127_42 C 0.90570(8) 0.92578(9) 0.18553(8)
C128_42 C 0.88725(9) 0.90435(8) 0.21242(7)
H81_42 H 0.8993 0.8956 0.2128
C129_42 C 0.88729(9) 0.92164(9) 0.19878(8)
C130_42 C 0.86928(9) 0.93399(10) 0.19790(9)
H82_42 H 0.8685 0.9457 0.1888
C131_42 C 0.85256(10) 0.92859(11) 0.21063(11)
H83_42 H 0.8400 0.9366 0.2103
C132_42 C 0.85415(9) 0.91158(10) 0.22377(9)
H84_42 H 0.8426 0.9082 0.2325
N42_42 N 0.98473(6) 0.88587(7) 0.16093(7)
N45_42 N 0.90364(7) 0.93948(7) 0.17030(6)
N46_42 N 0.93807(7) 0.93039(7) 0.15990(7)
N47_42 N 0.92285(7) 0.91477(8) 0.18970(7)
N48_42 N 0.87139(7) 0.89960(7) 0.22466(7)
H88_42 H 0.9985 0.9296 0.1177
C6_43 C 0.78121(8) 0.40698(8) 0.14828(8)
N2_43 N 0.77354(6) 0.39569(7) 0.13623(7)
S1_43 S 0.79112(3) 0.42311(3) 0.16525(3)
C114_43 C 0.78122(7) 0.39916(8) 0.08895(8)
H73_43 H 0.7846 0.4060 0.1017
C115_43 C 0.79316(8) 0.40367(9) 0.07155(8)
C116_43 C 0.78806(10) 0.39400(11) 0.05267(9)
H74_43 H 0.7960 0.3966 0.0404
C117_43 C 0.77116(10) 0.38056(12) 0.05240(9)
H75_43 H 0.7671 0.3739 0.0398
C118_43 C 0.76015(10) 0.37690(10) 0.07076(9)
H76_43 H 0.7485 0.3677 0.0704
C120_43 C 0.83518(9) 0.48466(9) 0.14137(9)
H77_43 H 0.8364 0.4947 0.1523
C121_43 C 0.81736(10) 0.47205(10) 0.14056(11)
H78_43 H 0.8070 0.4731 0.1511
C122_43 C 0.81499(10) 0.45823(10) 0.12449(9)
H79_43 H 0.8028 0.4498 0.1235
C123_43 C 0.83094(8) 0.45667(8) 0.10943(8)
C124_43 C 0.84831(8) 0.46935(8) 0.11174(7)
H80_43 H 0.8592 0.4682 0.1017
C125_43 C 0.82962(8) 0.44153(8) 0.09209(8)
C126_43 C 0.81177(8) 0.41730(9) 0.07381(8)
C127_43 C 0.84430(8) 0.42578(9) 0.06447(8)
C128_43 C 0.86275(9) 0.40435(8) 0.03758(7)
H81_43 H 0.8507 0.3956 0.0372
C129_43 C 0.86271(9) 0.42164(9) 0.05122(8)
C130_43 C 0.88072(9) 0.43399(10) 0.05210(9)
H82_43 H 0.8815 0.4457 0.0612
C131_43 C 0.89744(10) 0.42859(11) 0.03937(11)
H83_43 H 0.9100 0.4366 0.0397
C132_43 C 0.89585(9) 0.41158(10) 0.02623(9)
H84_43 H 0.9074 0.4082 0.0175
N42_43 N 0.76527(6) 0.38587(7) 0.08907(7)
N45_43 N 0.84636(7) 0.43948(7) 0.07970(6)
N46_43 N 0.81193(7) 0.43039(7) 0.09010(7)
N47_43 N 0.82715(7) 0.41477(8) 0.06030(7)
N48_43 N 0.87861(7) 0.39960(7) 0.02534(7)
C133_43 C 0.71878(7) 0.41105(8) 0.10084(8)
H85_43 H 0.7154 0.3983 0.0940
C134_43 C 0.70684(8) 0.42845(8) 0.09633(9)
C135_43 C 0.71194(10) 0.44733(9) 0.10600(11)
H86_43 H 0.7040 0.4596 0.1034
C136_43 C 0.72884(10) 0.44760(9) 0.11944(12)
H87_43 H 0.7329 0.4602 0.1261
C137_43 C 0.73985(10) 0.42924(9) 0.12310(10)
H88_43 H 0.7515 0.4296 0.1323
C138_43 C 0.66482(9) 0.35863(9) 0.01534(9)
H89_43 H 0.6636 0.3477 0.0053
C139_43 C 0.68264(10) 0.35944(11) 0.02795(10)
H90_43 H 0.6930 0.3489 0.0269
C140_43 C 0.68501(10) 0.37551(9) 0.04177(10)
H91_43 H 0.6972 0.3765 0.0502
C141_43 C 0.66906(8) 0.39057(8) 0.04333(8)
C142_43 C 0.65169(8) 0.38826(7) 0.03065(8)
H92_43 H 0.6408 0.3983 0.0318
C143_43 C 0.67038(8) 0.40791(8) 0.05847(8)
C144_43 C 0.68823(8) 0.42619(8) 0.08270(9)
C145_43 C 0.65570(8) 0.43553(8) 0.07422(9)
C146_43 C 0.63725(9) 0.46242(7) 0.09565(8)
H93_43 H 0.6493 0.4628 0.1044
C147_43 C 0.63729(9) 0.44878(8) 0.07836(9)
C148_43 C 0.61928(9) 0.44790(9) 0.06601(10)
H94_43 H 0.6185 0.4388 0.0543
C149_43 C 0.60256(10) 0.46063(11) 0.07141(11)
H95_43 H 0.5900 0.4603 0.0634
C150_43 C 0.60415(9) 0.47377(9) 0.08842(10)
H96_43 H 0.5926 0.4825 0.0918
N49_43 N 0.73473(6) 0.41093(7) 0.11413(7)
N51_43 N 0.65364(7) 0.42030(6) 0.06052(7)
N52_43 N 0.68807(7) 0.40990(7) 0.06961(7)
N53_43 N 0.67285(7) 0.43970(7) 0.08523(8)
N54_43 N 0.62139(7) 0.47466(7) 0.10040(7)
C151_43 C 0.71879(8) 0.35172(8) 0.09302(8)
N55_43 N 0.72646(6) 0.36377(7) 0.10431(7)
S7_43 S 0.70888(3) 0.33475(3) 0.07689(3)
C6_44 C 0.28121(8) 0.84302(8) 0.60172(8)
N2_44 N 0.27354(6) 0.85431(7) 0.61377(7)
S1_44 S 0.29112(3) 0.82689(3) 0.58475(3)
C114_44 C 0.28122(7) 0.85084(8) 0.66105(8)
H73_44 H 0.2846 0.8440 0.6483
C115_44 C 0.29316(8) 0.84633(9) 0.67845(8)
C116_44 C 0.28806(10) 0.85600(11) 0.69733(9)
H74_44 H 0.2960 0.8534 0.7096
C117_44 C 0.27116(10) 0.86944(12) 0.69760(9)
H75_44 H 0.2671 0.8761 0.7102
C118_44 C 0.26015(10) 0.87310(10) 0.67924(9)
H76_44 H 0.2485 0.8823 0.6796
C120_44 C 0.33518(9) 0.76534(9) 0.60863(9)
H77_44 H 0.3364 0.7553 0.5977
C121_44 C 0.31736(10) 0.77795(10) 0.60944(11)
H78_44 H 0.3070 0.7769 0.5989
C122_44 C 0.31499(10) 0.79177(10) 0.62551(9)
H79_44 H 0.3028 0.8002 0.6265
C123_44 C 0.33094(8) 0.79333(8) 0.64057(8)
C124_44 C 0.34831(8) 0.78065(8) 0.63826(7)
H80_44 H 0.3592 0.7818 0.6483
C125_44 C 0.32962(8) 0.80847(8) 0.65791(8)
C126_44 C 0.31177(8) 0.83270(9) 0.67619(8)
C127_44 C 0.34430(8) 0.82422(9) 0.68553(8)
C128_44 C 0.36275(9) 0.84565(8) 0.71242(7)
H81_44 H 0.3507 0.8544 0.7128
C129_44 C 0.36271(9) 0.82836(9) 0.69878(8)
C130_44 C 0.38072(9) 0.81601(10) 0.69790(9)
H82_44 H 0.3815 0.8043 0.6888
C131_44 C 0.39744(10) 0.82141(11) 0.71063(11)
H83_44 H 0.4100 0.8134 0.7103
C132_44 C 0.39585(9) 0.83842(10) 0.72377(9)
H84_44 H 0.4074 0.8418 0.7325
N42_44 N 0.26527(6) 0.86413(7) 0.66093(7)
N45_44 N 0.34636(7) 0.81052(7) 0.67030(6)
N46_44 N 0.31193(7) 0.81961(7) 0.65990(7)
N47_44 N 0.32715(7) 0.83523(8) 0.68970(7)
N48_44 N 0.37861(7) 0.85040(7) 0.72466(7)
C133_44 C 0.21878(7) 0.83895(8) 0.64916(8)
H85_44 H 0.2154 0.8517 0.6560
C134_44 C 0.20684(8) 0.82155(8) 0.65367(9)
C135_44 C 0.21194(10) 0.80267(9) 0.64400(11)
H86_44 H 0.2040 0.7904 0.6466
C136_44 C 0.22884(10) 0.80240(9) 0.63056(12)
H87_44 H 0.2329 0.7898 0.6239
C137_44 C 0.23985(10) 0.82076(9) 0.62690(10)
H88_44 H 0.2515 0.8204 0.6177
C138_44 C 0.16482(9) 0.89137(9) 0.73466(9)
H89_44 H 0.1636 0.9023 0.7447
C139_44 C 0.18264(10) 0.89056(11) 0.72205(10)
H90_44 H 0.1930 0.9011 0.7231
C140_44 C 0.18501(10) 0.87449(9) 0.70823(10)
H91_44 H 0.1972 0.8735 0.6998
C141_44 C 0.16906(8) 0.85943(8) 0.70667(8)
C142_44 C 0.15169(8) 0.86174(7) 0.71935(8)
H92_44 H 0.1408 0.8517 0.7182
C143_44 C 0.17038(8) 0.84209(8) 0.69153(8)
C144_44 C 0.18823(8) 0.82381(8) 0.66730(9)
C145_44 C 0.15570(8) 0.81447(8) 0.67578(9)
C146_44 C 0.13725(9) 0.78758(7) 0.65435(8)
H93_44 H 0.1493 0.7872 0.6456
C147_44 C 0.13729(9) 0.80122(8) 0.67164(9)
C148_44 C 0.11928(9) 0.80210(9) 0.68399(10)
H94_44 H 0.1185 0.8112 0.6957
C149_44 C 0.10256(10) 0.78937(11) 0.67859(11)
H95_44 H 0.0900 0.7897 0.6866
C150_44 C 0.10415(9) 0.77623(9) 0.66158(10)
H96_44 H 0.0926 0.7675 0.6582
N49_44 N 0.23473(6) 0.83907(7) 0.63587(7)
N51_44 N 0.15364(7) 0.82970(6) 0.68948(7)
N52_44 N 0.18807(7) 0.84010(7) 0.68039(7)
N53_44 N 0.17285(7) 0.81030(7) 0.66477(8)
N54_44 N 0.12139(7) 0.77534(7) 0.64960(7)
C151_44 C 0.21879(8) 0.89828(8) 0.65698(8)
N55_44 N 0.22646(6) 0.88623(7) 0.64569(7)
S7_44 S 0.20888(3) 0.91525(3) 0.67311(3)
C1_13 C 0.46878(7) 0.66105(8) 0.39916(8)
H1_13 H 0.4654 0.6483 0.4060
C2_13 C 0.45684(8) 0.67845(8) 0.40367(9)
C3_13 C 0.46194(10) 0.69733(9) 0.39400(11)
H2_13 H 0.4540 0.7096 0.3966
C4_13 C 0.47884(10) 0.69760(9) 0.38056(12)
H3_13 H 0.4829 0.7102 0.3739
C5_13 C 0.48985(10) 0.67924(9) 0.37690(10)
H4_13 H 0.5015 0.6796 0.3677
C7_13 C 0.41482(9) 0.60863(9) 0.48466(9)
H5_13 H 0.4136 0.5977 0.4947
C8_13 C 0.43264(10) 0.60944(11) 0.47205(10)
H6_13 H 0.4430 0.5989 0.4731
C9_13 C 0.43501(10) 0.62551(9) 0.45823(10)
H7_13 H 0.4472 0.6265 0.4498
C10_13 C 0.41906(8) 0.64057(8) 0.45667(8)
C11_13 C 0.40169(8) 0.63826(7) 0.46935(8)
H8_13 H 0.3908 0.6483 0.4682
C12_13 C 0.42038(8) 0.65791(8) 0.44153(8)
C13_13 C 0.43823(8) 0.67619(8) 0.41730(9)
C14_13 C 0.40570(8) 0.68553(8) 0.42578(9)
C15_13 C 0.38725(9) 0.71242(7) 0.40435(8)
H9_13 H 0.3993 0.7128 0.3956
C16_13 C 0.38729(9) 0.69878(8) 0.42164(9)
C17_13 C 0.36928(9) 0.69790(9) 0.43399(10)
H10_13 H 0.3685 0.6888 0.4457
C18_13 C 0.35256(10) 0.71063(11) 0.42859(11)
H11_13 H 0.3400 0.7103 0.4366
C19_13 C 0.35415(9) 0.72377(9) 0.41158(10)
H12_13 H 0.3426 0.7325 0.4082
C20_13 C 0.32496(12) 0.75126(9) 0.36991(12)
N4_13 N 0.40364(7) 0.67030(6) 0.43948(7)
N5_13 N 0.43807(7) 0.65990(7) 0.43039(7)
N6_13 N 0.42285(7) 0.68970(7) 0.41477(8)
N7_13 N 0.37139(7) 0.72466(7) 0.39960(7)
N8_13 N 0.34250(8) 0.74874(7) 0.37278(7)
S2_13 S 0.30016(4) 0.75491(4) 0.36570(7)
C152_13 C 0.42504(12) 0.75126(9) 0.38009(12)
N56_13 N 0.40750(8) 0.74874(7) 0.37722(7)
S8_13 S 0.44984(4) 0.75491(4) 0.38430(7)
N68_13 N 0.37861(7) 0.72466(7) 0.35040(7)
C1_14 C 0.78122(7) 0.08895(8) 0.89916(8)
H1_14 H 0.7846 0.1017 0.9060
C2_14 C 0.79316(8) 0.07155(8) 0.90367(9)
C3_14 C 0.78806(10) 0.05267(9) 0.89400(11)
H2_14 H 0.7960 0.0404 0.8966
C4_14 C 0.77116(10) 0.05240(9) 0.88056(12)
H3_14 H 0.7671 0.0398 0.8739
C5_14 C 0.76015(10) 0.07076(9) 0.87690(10)
H4_14 H 0.7485 0.0704 0.8677
C7_14 C 0.83518(9) 0.14137(9) 0.98466(9)
H5_14 H 0.8364 0.1523 0.9947
C8_14 C 0.81736(10) 0.14056(11) 0.97205(10)
H6_14 H 0.8070 0.1511 0.9731
C9_14 C 0.81499(10) 0.12449(9) 0.95823(10)
H7_14 H 0.8028 0.1235 0.9498
C10_14 C 0.83094(8) 0.10943(8) 0.95667(8)
C11_14 C 0.84831(8) 0.11174(7) 0.96935(8)
H8_14 H 0.8592 0.1017 0.9682
C12_14 C 0.82962(8) 0.09209(8) 0.94153(8)
C13_14 C 0.81177(8) 0.07381(8) 0.91730(9)
C14_14 C 0.84430(8) 0.06447(8) 0.92578(9)
C15_14 C 0.86275(9) 0.03758(7) 0.90435(8)
H9_14 H 0.8507 0.0372 0.8956
C16_14 C 0.86271(9) 0.05122(8) 0.92164(9)
C17_14 C 0.88072(9) 0.05210(9) 0.93399(10)
H10_14 H 0.8815 0.0612 0.9457
C18_14 C 0.89744(10) 0.03937(11) 0.92859(11)
H11_14 H 0.9100 0.0397 0.9366
C19_14 C 0.89585(9) 0.02623(9) 0.91158(10)
H12_14 H 0.9074 0.0175 0.9082
N4_14 N 0.84636(7) 0.07970(6) 0.93948(7)
N5_14 N 0.81193(7) 0.09010(7) 0.93039(7)
N6_14 N 0.82715(7) 0.06030(7) 0.91477(8)
N7_14 N 0.87861(7) 0.02534(7) 0.89960(7)
N8_14 N 0.90750(8) 0.00126(7) 0.87278(7)
N56_14 N 0.84250(8) 0.00126(7) 0.87722(7)
N68_14 N 0.87139(7) 0.02534(7) 0.85040(7)
C20_14 C 0.92504(12) 0.99874(9) 0.86991(12)
S2_14 S 0.94984(4) 0.99509(4) 0.86570(7)
C152_14 C 0.82496(12) 0.99874(9) 0.88009(12)
S8_14 S 0.80016(4) 0.99509(4) 0.88430(7)
H4_15 H 0.0015 0.5704 0.3823
C1_15 C 0.96878(7) 0.58895(8) 0.35084(8)
H1_15 H 0.9654 0.6017 0.3440
C2_15 C 0.95684(8) 0.57155(8) 0.34633(9)
C3_15 C 0.96194(10) 0.55267(9) 0.35600(11)
H2_15 H 0.9540 0.5404 0.3534
C4_15 C 0.97884(10) 0.55240(9) 0.36944(12)
H3_15 H 0.9829 0.5398 0.3761
C5_15 C 0.98985(10) 0.57076(9) 0.37310(10)
C7_15 C 0.91482(9) 0.64137(9) 0.26534(9)
H5_15 H 0.9136 0.6523 0.2553
C8_15 C 0.93264(10) 0.64056(11) 0.27795(10)
H6_15 H 0.9430 0.6511 0.2769
C9_15 C 0.93501(10) 0.62449(9) 0.29177(10)
H7_15 H 0.9472 0.6235 0.3002
C10_15 C 0.91906(8) 0.60943(8) 0.29333(8)
C11_15 C 0.90169(8) 0.61174(7) 0.28065(8)
H8_15 H 0.8908 0.6017 0.2818
C12_15 C 0.92038(8) 0.59209(8) 0.30847(8)
C13_15 C 0.93823(8) 0.57381(8) 0.33270(9)
C14_15 C 0.90570(8) 0.56447(8) 0.32422(9)
C15_15 C 0.88725(9) 0.53758(7) 0.34565(8)
H9_15 H 0.8993 0.5372 0.3544
C16_15 C 0.88729(9) 0.55122(8) 0.32836(9)
C17_15 C 0.86928(9) 0.55210(9) 0.31601(10)
H10_15 H 0.8685 0.5612 0.3043
C18_15 C 0.85256(10) 0.53937(11) 0.32141(11)
H11_15 H 0.8400 0.5397 0.3134
C19_15 C 0.85415(9) 0.52623(9) 0.33842(10)
H12_15 H 0.8426 0.5175 0.3418
C20_15 C 0.82496(12) 0.49874(9) 0.38009(12)
N4_15 N 0.90364(7) 0.57970(6) 0.31052(7)
N5_15 N 0.93807(7) 0.59010(7) 0.31961(7)
N6_15 N 0.92285(7) 0.56030(7) 0.33523(8)
N7_15 N 0.87139(7) 0.52534(7) 0.35040(7)
N8_15 N 0.84250(8) 0.50126(7) 0.37722(7)
S2_15 S 0.80016(4) 0.49509(4) 0.38430(7)
C152_15 C 0.92504(12) 0.49874(9) 0.36991(12)
N56_15 N 0.90750(8) 0.50126(7) 0.37278(7)
S8_15 S 0.94984(4) 0.49509(4) 0.36570(7)
N68_15 N 0.87861(7) 0.52534(7) 0.39960(7)
C1_16 C 0.28122(7) 0.16105(8) 0.85084(8)
H1_16 H 0.2846 0.1483 0.8440
C2_16 C 0.29316(8) 0.17845(8) 0.84633(9)
C3_16 C 0.28806(10) 0.19733(9) 0.85600(11)
H2_16 H 0.2960 0.2096 0.8534
C4_16 C 0.27116(10) 0.19760(9) 0.86944(12)
H3_16 H 0.2671 0.2102 0.8761
C5_16 C 0.26015(10) 0.17924(9) 0.87310(10)
H4_16 H 0.2485 0.1796 0.8823
C7_16 C 0.33518(9) 0.10863(9) 0.76534(9)
H5_16 H 0.3364 0.0977 0.7553
C8_16 C 0.31736(10) 0.10944(11) 0.77795(10)
H6_16 H 0.3070 0.0989 0.7769
C9_16 C 0.31499(10) 0.12551(9) 0.79177(10)
H7_16 H 0.3028 0.1265 0.8002
C10_16 C 0.33094(8) 0.14057(8) 0.79333(8)
C11_16 C 0.34831(8) 0.13826(7) 0.78065(8)
H8_16 H 0.3592 0.1483 0.7818
C12_16 C 0.32962(8) 0.15791(8) 0.80847(8)
C13_16 C 0.31177(8) 0.17619(8) 0.83270(9)
C14_16 C 0.34430(8) 0.18553(8) 0.82422(9)
C15_16 C 0.36275(9) 0.21242(7) 0.84565(8)
H9_16 H 0.3507 0.2128 0.8544
C16_16 C 0.36271(9) 0.19878(8) 0.82836(9)
C17_16 C 0.38072(9) 0.19790(9) 0.81601(10)
H10_16 H 0.3815 0.1888 0.8043
C18_16 C 0.39744(10) 0.21063(11) 0.82141(11)
H11_16 H 0.4100 0.2103 0.8134
C19_16 C 0.39585(9) 0.22377(9) 0.83842(10)
H12_16 H 0.4074 0.2325 0.8418
C20_16 C 0.42504(12) 0.25126(9) 0.88009(12)
N4_16 N 0.34636(7) 0.17030(6) 0.81052(7)
N5_16 N 0.31193(7) 0.15990(7) 0.81961(7)
N6_16 N 0.32715(7) 0.18970(7) 0.83523(8)
N7_16 N 0.37861(7) 0.22466(7) 0.85040(7)
N8_16 N 0.40750(8) 0.24874(7) 0.87722(7)
S2_16 S 0.44984(4) 0.25491(4) 0.88430(7)
C152_16 C 0.32496(12) 0.25126(9) 0.86991(12)
N56_16 N 0.34250(8) 0.24874(7) 0.87278(7)
S8_16 S 0.30016(4) 0.25491(4) 0.86570(7)
N68_16 N 0.37139(7) 0.22466(7) 0.89960(7)
C95_45 C 0.78122(7) 0.58895(8) 0.39916(8)
H61_45 H 0.7846 0.6017 0.4060
C96_45 C 0.79316(8) 0.57155(8) 0.40367(9)
C97_45 C 0.78806(10) 0.55267(9) 0.39400(11)
H62_45 H 0.7960 0.5404 0.3966
C98_45 C 0.77116(10) 0.55240(9) 0.38056(12)
H63_45 H 0.7671 0.5398 0.3739
C99_45 C 0.76015(10) 0.57076(9) 0.37690(10)
H64_45 H 0.7485 0.5704 0.3677
C100_45 C 0.83518(9) 0.64137(9) 0.48466(9)
H65_45 H 0.8364 0.6523 0.4947
C101_45 C 0.81736(10) 0.64056(11) 0.47205(10)
H66_45 H 0.8070 0.6511 0.4731
C102_45 C 0.81499(10) 0.62449(9) 0.45823(10)
H67_45 H 0.8028 0.6235 0.4498
C103_45 C 0.83094(8) 0.60943(8) 0.45667(8)
C104_45 C 0.84831(8) 0.61174(7) 0.46935(8)
H68_45 H 0.8592 0.6017 0.4682
C105_45 C 0.82962(8) 0.59209(8) 0.44153(8)
C106_45 C 0.81177(8) 0.57381(8) 0.41730(9)
C107_45 C 0.84430(8) 0.56447(8) 0.42578(9)
C108_45 C 0.86275(9) 0.53758(7) 0.40435(8)
H69_45 H 0.8507 0.5372 0.3956
C109_45 C 0.86271(9) 0.55122(8) 0.42164(9)
C110_45 C 0.88072(9) 0.55210(9) 0.43399(10)
H70_45 H 0.8815 0.5612 0.4457
C111_45 C 0.89744(10) 0.53937(11) 0.42859(11)
H71_45 H 0.9100 0.5397 0.4366
C112_45 C 0.89585(9) 0.52623(9) 0.41158(10)
H72_45 H 0.9074 0.5175 0.4082
N37_45 N 0.84636(7) 0.57970(6) 0.43948(7)
N38_45 N 0.81193(7) 0.59010(7) 0.43039(7)
N39_45 N 0.82715(7) 0.56030(7) 0.41477(8)
H64_46 H 0.0015 0.0704 0.8823
C95_46 C 0.96878(7) 0.08895(8) 0.85084(8)
H61_46 H 0.9654 0.1017 0.8440
C96_46 C 0.95684(8) 0.07155(8) 0.84633(9)
C97_46 C 0.96194(10) 0.05267(9) 0.85600(11)
H62_46 H 0.9540 0.0404 0.8534
C98_46 C 0.97884(10) 0.05240(9) 0.86944(12)
H63_46 H 0.9829 0.0398 0.8761
C99_46 C 0.98985(10) 0.07076(9) 0.87310(10)
C100_46 C 0.91482(9) 0.14137(9) 0.76534(9)
H65_46 H 0.9136 0.1523 0.7553
C101_46 C 0.93264(10) 0.14056(11) 0.77795(10)
H66_46 H 0.9430 0.1511 0.7769
C102_46 C 0.93501(10) 0.12449(9) 0.79177(10)
H67_46 H 0.9472 0.1235 0.8002
C103_46 C 0.91906(8) 0.10943(8) 0.79333(8)
C104_46 C 0.90169(8) 0.11174(7) 0.78065(8)
H68_46 H 0.8908 0.1017 0.7818
C105_46 C 0.92038(8) 0.09209(8) 0.80847(8)
C106_46 C 0.93823(8) 0.07381(8) 0.83270(9)
C107_46 C 0.90570(8) 0.06447(8) 0.82422(9)
C108_46 C 0.88725(9) 0.03758(7) 0.84565(8)
H69_46 H 0.8993 0.0372 0.8544
C109_46 C 0.88729(9) 0.05122(8) 0.82836(9)
C110_46 C 0.86928(9) 0.05210(9) 0.81601(10)
H70_46 H 0.8685 0.0612 0.8043
C111_46 C 0.85256(10) 0.03937(11) 0.82141(11)
H71_46 H 0.8400 0.0397 0.8134
C112_46 C 0.85415(9) 0.02623(9) 0.83842(10)
H72_46 H 0.8426 0.0175 0.8418
N37_46 N 0.90364(7) 0.07970(6) 0.81052(7)
N38_46 N 0.93807(7) 0.09010(7) 0.81961(7)
N39_46 N 0.92285(7) 0.06030(7) 0.83523(8)
C95_47 C 0.46878(7) 0.16105(8) 0.89916(8)
H61_47 H 0.4654 0.1483 0.9060
C96_47 C 0.45684(8) 0.17845(8) 0.90367(9)
C97_47 C 0.46194(10) 0.19733(9) 0.89400(11)
H62_47 H 0.4540 0.2096 0.8966
C98_47 C 0.47884(10) 0.19760(9) 0.88056(12)
H63_47 H 0.4829 0.2102 0.8739
C99_47 C 0.48985(10) 0.17924(9) 0.87690(10)
H64_47 H 0.5015 0.1796 0.8677
C100_47 C 0.41482(9) 0.10863(9) 0.98466(9)
H65_47 H 0.4136 0.0977 0.9947
C101_47 C 0.43264(10) 0.10944(11) 0.97205(10)
H66_47 H 0.4430 0.0989 0.9731
C102_47 C 0.43501(10) 0.12551(9) 0.95823(10)
H67_47 H 0.4472 0.1265 0.9498
C103_47 C 0.41906(8) 0.14057(8) 0.95667(8)
C104_47 C 0.40169(8) 0.13826(7) 0.96935(8)
H68_47 H 0.3908 0.1483 0.9682
C105_47 C 0.42038(8) 0.15791(8) 0.94153(8)
C106_47 C 0.43823(8) 0.17619(8) 0.91730(9)
C107_47 C 0.40570(8) 0.18553(8) 0.92578(9)
C108_47 C 0.38725(9) 0.21242(7) 0.90435(8)
H69_47 H 0.3993 0.2128 0.8956
C109_47 C 0.38729(9) 0.19878(8) 0.92164(9)
C110_47 C 0.36928(9) 0.19790(9) 0.93399(10)
H70_47 H 0.3685 0.1888 0.9457
C111_47 C 0.35256(10) 0.21063(11) 0.92859(11)
H71_47 H 0.3400 0.2103 0.9366
C112_47 C 0.35415(9) 0.22377(9) 0.91158(10)
H72_47 H 0.3426 0.2325 0.9082
N37_47 N 0.40364(7) 0.17030(6) 0.93948(7)
N38_47 N 0.43807(7) 0.15990(7) 0.93039(7)
N39_47 N 0.42285(7) 0.18970(7) 0.91477(8)
C95_48 C 0.28122(7) 0.66105(8) 0.35084(8)
H61_48 H 0.2846 0.6483 0.3440
C96_48 C 0.29316(8) 0.67845(8) 0.34633(9)
C97_48 C 0.28806(10) 0.69733(9) 0.35600(11)
H62_48 H 0.2960 0.7096 0.3534
C98_48 C 0.27116(10) 0.69760(9) 0.36944(12)
H63_48 H 0.2671 0.7102 0.3761
C99_48 C 0.26015(10) 0.67924(9) 0.37310(10)
H64_48 H 0.2485 0.6796 0.3823
C100_48 C 0.33518(9) 0.60863(9) 0.26534(9)
H65_48 H 0.3364 0.5977 0.2553
C101_48 C 0.31736(10) 0.60944(11) 0.27795(10)
H66_48 H 0.3070 0.5989 0.2769
C102_48 C 0.31499(10) 0.62551(9) 0.29177(10)
H67_48 H 0.3028 0.6265 0.3002
C103_48 C 0.33094(8) 0.64057(8) 0.29333(8)
C104_48 C 0.34831(8) 0.63826(7) 0.28065(8)
H68_48 H 0.3592 0.6483 0.2818
C105_48 C 0.32962(8) 0.65791(8) 0.30847(8)
C106_48 C 0.31177(8) 0.67619(8) 0.33270(9)
C107_48 C 0.34430(8) 0.68553(8) 0.32422(9)
C108_48 C 0.36275(9) 0.71242(7) 0.34565(8)
H69_48 H 0.3507 0.7128 0.3544
C109_48 C 0.36271(9) 0.69878(8) 0.32836(9)
C110_48 C 0.38072(9) 0.69790(9) 0.31601(10)
H70_48 H 0.3815 0.6888 0.3043
C111_48 C 0.39744(10) 0.71063(11) 0.32141(11)
H71_48 H 0.4100 0.7103 0.3134
C112_48 C 0.39585(9) 0.72377(9) 0.33842(10)
H72_48 H 0.4074 0.7325 0.3418
N37_48 N 0.34636(7) 0.67030(6) 0.31052(7)
N38_48 N 0.31193(7) 0.65990(7) 0.31961(7)
N39_48 N 0.32715(7) 0.68970(7) 0.33523(8)
C6_45 C 0.21879(8) 0.39828(8) 0.15698(8)
N2_45 N 0.22646(6) 0.38623(7) 0.14569(7)
S1_45 S 0.20888(3) 0.41525(3) 0.17311(3)
C114_45 C 0.21878(7) 0.33895(8) 0.14916(8)
H73_45 H 0.2154 0.3517 0.1560
C115_45 C 0.20684(8) 0.32155(8) 0.15367(9)
C116_45 C 0.21194(10) 0.30267(9) 0.14400(11)
H74_45 H 0.2040 0.2904 0.1466
C117_45 C 0.22884(10) 0.30240(9) 0.13056(12)
H75_45 H 0.2329 0.2898 0.1239
C118_45 C 0.23985(10) 0.32076(9) 0.12690(10)
H76_45 H 0.2515 0.3204 0.1177
C120_45 C 0.16482(9) 0.39137(9) 0.23466(9)
H77_45 H 0.1636 0.4023 0.2447
C121_45 C 0.18264(10) 0.39056(11) 0.22205(10)
H78_45 H 0.1930 0.4011 0.2231
C122_45 C 0.18501(10) 0.37449(9) 0.20823(10)
H79_45 H 0.1972 0.3735 0.1998
C123_45 C 0.16906(8) 0.35943(8) 0.20667(8)
C124_45 C 0.15169(8) 0.36174(7) 0.21935(8)
H80_45 H 0.1408 0.3517 0.2182
C125_45 C 0.17038(8) 0.34209(8) 0.19153(8)
C126_45 C 0.18823(8) 0.32381(8) 0.16730(9)
C127_45 C 0.15570(8) 0.31447(8) 0.17578(9)
C128_45 C 0.13725(9) 0.28758(7) 0.15435(8)
H81_45 H 0.1493 0.2872 0.1456
C129_45 C 0.13729(9) 0.30122(8) 0.17164(9)
C130_45 C 0.11928(9) 0.30210(9) 0.18399(10)
H82_45 H 0.1185 0.3112 0.1957
C131_45 C 0.10256(10) 0.28937(11) 0.17859(11)
H83_45 H 0.0900 0.2897 0.1866
C132_45 C 0.10415(9) 0.27623(9) 0.16158(10)
H84_45 H 0.0926 0.2675 0.1582
N42_45 N 0.23473(6) 0.33907(7) 0.13587(7)
N45_45 N 0.15364(7) 0.32970(6) 0.18948(7)
N46_45 N 0.18807(7) 0.34010(7) 0.18039(7)
N47_45 N 0.17285(7) 0.31030(7) 0.16477(8)
N48_45 N 0.12139(7) 0.27534(7) 0.14960(7)
C133_45 C 0.28122(7) 0.35084(8) 0.16105(8)
H85_45 H 0.2846 0.3440 0.1483
C134_45 C 0.29316(8) 0.34633(9) 0.17845(8)
C135_45 C 0.28806(10) 0.35600(11) 0.19733(9)
H86_45 H 0.2960 0.3534 0.2096
C136_45 C 0.27116(10) 0.36944(12) 0.19760(9)
H87_45 H 0.2671 0.3761 0.2102
C137_45 C 0.26015(10) 0.37310(10) 0.17924(9)
H88_45 H 0.2485 0.3823 0.1796
C138_45 C 0.33518(9) 0.26534(9) 0.10863(9)
H89_45 H 0.3364 0.2553 0.0977
C139_45 C 0.31736(10) 0.27795(10) 0.10944(11)
H90_45 H 0.3070 0.2769 0.0989
C140_45 C 0.31499(10) 0.29177(10) 0.12551(9)
H91_45 H 0.3028 0.3002 0.1265
C141_45 C 0.33094(8) 0.29333(8) 0.14057(8)
C142_45 C 0.34831(8) 0.28065(8) 0.13826(7)
H92_45 H 0.3592 0.2818 0.1483
C143_45 C 0.32962(8) 0.30847(8) 0.15791(8)
C144_45 C 0.31177(8) 0.33270(9) 0.17619(8)
C145_45 C 0.34430(8) 0.32422(9) 0.18553(8)
C146_45 C 0.36275(9) 0.34565(8) 0.21242(7)
H93_45 H 0.3507 0.3544 0.2128
C147_45 C 0.36271(9) 0.32836(9) 0.19878(8)
C148_45 C 0.38072(9) 0.31601(10) 0.19790(9)
H94_45 H 0.3815 0.3043 0.1888
C149_45 C 0.39744(10) 0.32141(11) 0.21063(11)
H95_45 H 0.4100 0.3134 0.2103
C150_45 C 0.39585(9) 0.33842(10) 0.22377(9)
H96_45 H 0.4074 0.3418 0.2325
N49_45 N 0.26527(6) 0.36413(7) 0.16093(7)
N51_45 N 0.34636(7) 0.31052(7) 0.17030(6)
N52_45 N 0.31193(7) 0.31961(7) 0.15990(7)
N53_45 N 0.32715(7) 0.33523(8) 0.18970(7)
N54_45 N 0.37861(7) 0.35040(7) 0.22466(7)
C151_45 C 0.28121(8) 0.34302(8) 0.10172(8)
N55_45 N 0.27354(6) 0.35431(7) 0.11377(7)
S7_45 S 0.29112(3) 0.32689(3) 0.08475(3)
C6_46 C 0.71879(8) 0.85172(8) 0.59302(8)
N2_46 N 0.72646(6) 0.86377(7) 0.60431(7)
S1_46 S 0.70888(3) 0.83475(3) 0.57689(3)
C114_46 C 0.71878(7) 0.91105(8) 0.60084(8)
H73_46 H 0.7154 0.8983 0.5940
C115_46 C 0.70684(8) 0.92845(8) 0.59633(9)
C116_46 C 0.71194(10) 0.94733(9) 0.60600(11)
H74_46 H 0.7040 0.9596 0.6034
C117_46 C 0.72884(10) 0.94760(9) 0.61944(12)
H75_46 H 0.7329 0.9602 0.6261
C118_46 C 0.73985(10) 0.92924(9) 0.62310(10)
H76_46 H 0.7515 0.9296 0.6323
C120_46 C 0.66482(9) 0.85863(9) 0.51534(9)
H77_46 H 0.6636 0.8477 0.5053
C121_46 C 0.68264(10) 0.85944(11) 0.52795(10)
H78_46 H 0.6930 0.8489 0.5269
C122_46 C 0.68501(10) 0.87551(9) 0.54177(10)
H79_46 H 0.6972 0.8765 0.5502
C123_46 C 0.66906(8) 0.89057(8) 0.54333(8)
C124_46 C 0.65169(8) 0.88826(7) 0.53065(8)
H80_46 H 0.6408 0.8983 0.5318
C125_46 C 0.67038(8) 0.90791(8) 0.55847(8)
C126_46 C 0.68823(8) 0.92619(8) 0.58270(9)
C127_46 C 0.65570(8) 0.93553(8) 0.57422(9)
C128_46 C 0.63725(9) 0.96242(7) 0.59565(8)
H81_46 H 0.6493 0.9628 0.6044
C129_46 C 0.63729(9) 0.94878(8) 0.57836(9)
C130_46 C 0.61928(9) 0.94790(9) 0.56601(10)
H82_46 H 0.6185 0.9388 0.5543
C131_46 C 0.60256(10) 0.96063(11) 0.57141(11)
H83_46 H 0.5900 0.9603 0.5634
C132_46 C 0.60415(9) 0.97377(9) 0.58842(10)
H84_46 H 0.5926 0.9825 0.5918
N42_46 N 0.73473(6) 0.91093(7) 0.61413(7)
N45_46 N 0.65364(7) 0.92030(6) 0.56052(7)
N46_46 N 0.68807(7) 0.90990(7) 0.56961(7)
N47_46 N 0.67285(7) 0.93970(7) 0.58523(8)
N48_46 N 0.62139(7) 0.97466(7) 0.60040(7)
C133_46 C 0.78122(7) 0.89916(8) 0.58895(8)
H85_46 H 0.7846 0.9060 0.6017
C134_46 C 0.79316(8) 0.90367(9) 0.57155(8)
C135_46 C 0.78806(10) 0.89400(11) 0.55267(9)
H86_46 H 0.7960 0.8966 0.5404
C136_46 C 0.77116(10) 0.88056(12) 0.55240(9)
H87_46 H 0.7671 0.8739 0.5398
C137_46 C 0.76015(10) 0.87690(10) 0.57076(9)
H88_46 H 0.7485 0.8677 0.5704
C138_46 C 0.83518(9) 0.98466(9) 0.64137(9)
H89_46 H 0.8364 0.9947 0.6523
C139_46 C 0.81736(10) 0.97205(10) 0.64056(11)
H90_46 H 0.8070 0.9731 0.6511
C140_46 C 0.81499(10) 0.95823(10) 0.62449(9)
H91_46 H 0.8028 0.9498 0.6235
C141_46 C 0.83094(8) 0.95667(8) 0.60943(8)
C142_46 C 0.84831(8) 0.96935(8) 0.61174(7)
H92_46 H 0.8592 0.9682 0.6017
C143_46 C 0.82962(8) 0.94153(8) 0.59209(8)
C144_46 C 0.81177(8) 0.91730(9) 0.57381(8)
C145_46 C 0.84430(8) 0.92578(9) 0.56447(8)
C146_46 C 0.86275(9) 0.90435(8) 0.53758(7)
H93_46 H 0.8507 0.8956 0.5372
C147_46 C 0.86271(9) 0.92164(9) 0.55122(8)
C148_46 C 0.88072(9) 0.93399(10) 0.55210(9)
H94_46 H 0.8815 0.9457 0.5612
C149_46 C 0.89744(10) 0.92859(11) 0.53937(11)
H95_46 H 0.9100 0.9366 0.5397
C150_46 C 0.89585(9) 0.91158(10) 0.52623(9)
H96_46 H 0.9074 0.9082 0.5175
N49_46 N 0.76527(6) 0.88587(7) 0.58907(7)
N51_46 N 0.84636(7) 0.93948(7) 0.57970(6)
N52_46 N 0.81193(7) 0.93039(7) 0.59010(7)
N53_46 N 0.82715(7) 0.91477(8) 0.56030(7)
N54_46 N 0.87861(7) 0.89960(7) 0.52534(7)
C151_46 C 0.78121(8) 0.90698(8) 0.64828(8)
N55_46 N 0.77354(6) 0.89569(7) 0.63623(7)
S7_46 S 0.79112(3) 0.92311(3) 0.66525(3)
C6_47 C 0.53121(8) 0.89828(8) 0.09302(8)
N2_47 N 0.52354(6) 0.88623(7) 0.10431(7)
S1_47 S 0.54112(3) 0.91525(3) 0.07689(3)
C114_47 C 0.53122(7) 0.83895(8) 0.10084(8)
H73_47 H 0.5346 0.8517 0.0940
C115_47 C 0.54316(8) 0.82155(8) 0.09633(9)
C116_47 C 0.53806(10) 0.80267(9) 0.10600(11)
H74_47 H 0.5460 0.7904 0.1034
C117_47 C 0.52116(10) 0.80240(9) 0.11944(12)
H75_47 H 0.5171 0.7898 0.1261
C118_47 C 0.51015(10) 0.82076(9) 0.12310(10)
H76_47 H 0.4985 0.8204 0.1323
C120_47 C 0.58518(9) 0.89137(9) 0.01534(9)
H77_47 H 0.5864 0.9023 0.0053
C121_47 C 0.56736(10) 0.89056(11) 0.02795(10)
H78_47 H 0.5570 0.9011 0.0269
C122_47 C 0.56499(10) 0.87449(9) 0.04177(10)
H79_47 H 0.5528 0.8735 0.0502
C123_47 C 0.58094(8) 0.85943(8) 0.04333(8)
C124_47 C 0.59831(8) 0.86174(7) 0.03065(8)
H80_47 H 0.6092 0.8517 0.0318
C125_47 C 0.57962(8) 0.84209(8) 0.05847(8)
C126_47 C 0.56177(8) 0.82381(8) 0.08270(9)
C127_47 C 0.59430(8) 0.81447(8) 0.07422(9)
C128_47 C 0.61275(9) 0.78758(7) 0.09565(8)
H81_47 H 0.6007 0.7872 0.1044
C129_47 C 0.61271(9) 0.80122(8) 0.07836(9)
C130_47 C 0.63072(9) 0.80210(9) 0.06601(10)
H82_47 H 0.6315 0.8112 0.0543
C131_47 C 0.64744(10) 0.78937(11) 0.07141(11)
H83_47 H 0.6600 0.7897 0.0634
C132_47 C 0.64585(9) 0.77623(9) 0.08842(10)
H84_47 H 0.6574 0.7675 0.0918
N42_47 N 0.51527(6) 0.83907(7) 0.11413(7)
N45_47 N 0.59636(7) 0.82970(6) 0.06052(7)
N46_47 N 0.56193(7) 0.84010(7) 0.06961(7)
N47_47 N 0.57715(7) 0.81030(7) 0.08523(8)
N48_47 N 0.62861(7) 0.77534(7) 0.10040(7)
C133_47 C 0.46878(7) 0.85084(8) 0.08895(8)
H85_47 H 0.4654 0.8440 0.1017
C134_47 C 0.45684(8) 0.84633(9) 0.07155(8)
C135_47 C 0.46194(10) 0.85600(11) 0.05267(9)
H86_47 H 0.4540 0.8534 0.0404
C136_47 C 0.47884(10) 0.86944(12) 0.05240(9)
H87_47 H 0.4829 0.8761 0.0398
C137_47 C 0.48985(10) 0.87310(10) 0.07076(9)
H88_47 H 0.5015 0.8823 0.0704
C138_47 C 0.41482(9) 0.76534(9) 0.14137(9)
H89_47 H 0.4136 0.7553 0.1523
C139_47 C 0.43264(10) 0.77795(10) 0.14056(11)
H90_47 H 0.4430 0.7769 0.1511
C140_47 C 0.43501(10) 0.79177(10) 0.12449(9)
H91_47 H 0.4472 0.8002 0.1235
C141_47 C 0.41906(8) 0.79333(8) 0.10943(8)
C142_47 C 0.40169(8) 0.78065(8) 0.11174(7)
H92_47 H 0.3908 0.7818 0.1017
C143_47 C 0.42038(8) 0.80847(8) 0.09209(8)
C144_47 C 0.43823(8) 0.83270(9) 0.07381(8)
C145_47 C 0.40570(8) 0.82422(9) 0.06447(8)
C146_47 C 0.38725(9) 0.84565(8) 0.03758(7)
H93_47 H 0.3993 0.8544 0.0372
C147_47 C 0.38729(9) 0.82836(9) 0.05122(8)
C148_47 C 0.36928(9) 0.81601(10) 0.05210(9)
H94_47 H 0.3685 0.8043 0.0612
C149_47 C 0.35256(10) 0.82141(11) 0.03937(11)
H95_47 H 0.3400 0.8134 0.0397
C150_47 C 0.35415(9) 0.83842(10) 0.02623(9)
H96_47 H 0.3426 0.8418 0.0175
N49_47 N 0.48473(6) 0.86413(7) 0.08907(7)
N51_47 N 0.40364(7) 0.81052(7) 0.07970(6)
N52_47 N 0.43807(7) 0.81961(7) 0.09010(7)
N53_47 N 0.42285(7) 0.83523(8) 0.06030(7)
N54_47 N 0.37139(7) 0.85040(7) 0.02534(7)
C151_47 C 0.46879(8) 0.84302(8) 0.14828(8)
N55_47 N 0.47646(6) 0.85431(7) 0.13623(7)
S7_47 S 0.45888(3) 0.82689(3) 0.16525(3)
C6_48 C 0.03121(8) 0.35172(8) 0.65698(8)
N2_48 N 0.02354(6) 0.36377(7) 0.64569(7)
S1_48 S 0.04112(3) 0.33475(3) 0.67311(3)
C114_48 C 0.03122(7) 0.41105(8) 0.64916(8)
H73_48 H 0.0346 0.3983 0.6560
C115_48 C 0.04316(8) 0.42845(8) 0.65367(9)
C116_48 C 0.03806(10) 0.44733(9) 0.64400(11)
H74_48 H 0.0460 0.4596 0.6466
C117_48 C 0.02116(10) 0.44760(9) 0.63056(12)
H75_48 H 0.0171 0.4602 0.6239
C118_48 C 0.01015(10) 0.42924(9) 0.62690(10)
C120_48 C 0.08518(9) 0.35863(9) 0.73466(9)
H77_48 H 0.0864 0.3477 0.7447
C121_48 C 0.06736(10) 0.35944(11) 0.72205(10)
H78_48 H 0.0570 0.3489 0.7231
C122_48 C 0.06499(10) 0.37551(9) 0.70823(10)
H79_48 H 0.0528 0.3765 0.6998
C123_48 C 0.08094(8) 0.39057(8) 0.70667(8)
C124_48 C 0.09831(8) 0.38826(7) 0.71935(8)
H80_48 H 0.1092 0.3983 0.7182
C125_48 C 0.07962(8) 0.40791(8) 0.69153(8)
C126_48 C 0.06177(8) 0.42619(8) 0.66730(9)
C127_48 C 0.09430(8) 0.43553(8) 0.67578(9)
C128_48 C 0.11275(9) 0.46242(7) 0.65435(8)
H81_48 H 0.1007 0.4628 0.6456
C129_48 C 0.11271(9) 0.44878(8) 0.67164(9)
C130_48 C 0.13072(9) 0.44790(9) 0.68399(10)
H82_48 H 0.1315 0.4388 0.6957
C131_48 C 0.14744(10) 0.46063(11) 0.67859(11)
H83_48 H 0.1600 0.4603 0.6866
C132_48 C 0.14585(9) 0.47377(9) 0.66158(10)
H84_48 H 0.1574 0.4825 0.6582
N42_48 N 0.01527(6) 0.41093(7) 0.63587(7)
N45_48 N 0.09636(7) 0.42030(6) 0.68948(7)
N46_48 N 0.06193(7) 0.40990(7) 0.68039(7)
N47_48 N 0.07715(7) 0.43970(7) 0.66477(8)
N48_48 N 0.12861(7) 0.47466(7) 0.64960(7)
H88_48 H 0.0015 0.3677 0.6796
H76_48 H 0.9985 0.4296 0.6177
C133_48 C 0.96878(7) 0.39916(8) 0.66105(8)
H85_48 H 0.9654 0.4060 0.6483
C134_48 C 0.95684(8) 0.40367(9) 0.67845(8)
C135_48 C 0.96194(10) 0.39400(11) 0.69733(9)
H86_48 H 0.9540 0.3966 0.7096
C136_48 C 0.97884(10) 0.38056(12) 0.69760(9)
H87_48 H 0.9829 0.3739 0.7102
C137_48 C 0.98985(10) 0.37690(10) 0.67924(9)
C138_48 C 0.91482(9) 0.48466(9) 0.60863(9)
H89_48 H 0.9136 0.4947 0.5977
C139_48 C 0.93264(10) 0.47205(10) 0.60944(11)
H90_48 H 0.9430 0.4731 0.5989
C140_48 C 0.93501(10) 0.45823(10) 0.62551(9)
H91_48 H 0.9472 0.4498 0.6265
C141_48 C 0.91906(8) 0.45667(8) 0.64057(8)
C142_48 C 0.90169(8) 0.46935(8) 0.63826(7)
H92_48 H 0.8908 0.4682 0.6483
C143_48 C 0.92038(8) 0.44153(8) 0.65791(8)
C144_48 C 0.93823(8) 0.41730(9) 0.67619(8)
C145_48 C 0.90570(8) 0.42578(9) 0.68553(8)
C146_48 C 0.88725(9) 0.40435(8) 0.71242(7)
H93_48 H 0.8993 0.3956 0.7128
C147_48 C 0.88729(9) 0.42164(9) 0.69878(8)
C148_48 C 0.86928(9) 0.43399(10) 0.69790(9)
H94_48 H 0.8685 0.4457 0.6888
C149_48 C 0.85256(10) 0.42859(11) 0.71063(11)
H95_48 H 0.8400 0.4366 0.7103
C150_48 C 0.85415(9) 0.41158(10) 0.72377(9)
H96_48 H 0.8426 0.4082 0.7325
N49_48 N 0.98473(6) 0.38587(7) 0.66093(7)
N51_48 N 0.90364(7) 0.43948(7) 0.67030(6)
N52_48 N 0.93807(7) 0.43039(7) 0.65990(7)
N53_48 N 0.92285(7) 0.41477(8) 0.68970(7)
N54_48 N 0.87139(7) 0.39960(7) 0.72466(7)
C151_48 C 0.96879(8) 0.40698(8) 0.60172(8)
N55_48 N 0.97646(6) 0.39569(7) 0.61377(7)
S7_48 S 0.95888(3) 0.42311(3) 0.58475(3)
N21_17 N 0.37722(7) 0.00126(7) 0.84250(8)
N57_17 N 0.37278(7) 0.00126(7) 0.90750(8)
C20_17 C 0.49874(9) 0.92504(12) 0.86991(12)
C21_9 C 0.48240(10) 0.88864(12) 0.83293(11)
H13_9 H 0.4927 0.8993 0.8341
C22_9 C 0.47075(12) 0.88786(13) 0.81527(12)
H14_9 H 0.4734 0.8973 0.8041
C23_9 C 0.45481(13) 0.87298(12) 0.81355(12)
H15_9 H 0.4463 0.8722 0.8014
C24_9 C 0.45178(9) 0.85933(10) 0.83011(10)
C25_9 C 0.46504(8) 0.86077(9) 0.84741(8)
H16_9 H 0.4633 0.8511 0.8586
C26_9 C 0.43567(9) 0.84304(10) 0.82939(9)
N8_17 N 0.50126(7) 0.90750(8) 0.87278(7)
N9_9 N 0.47999(7) 0.87506(7) 0.84886(7)
N10_9 N 0.43603(7) 0.82863(8) 0.84440(8)
S2_17 S 0.49509(4) 0.94984(4) 0.86570(7)
C27_9 C 0.36136(12) 0.83293(11) 0.76760(10)
H17_9 H 0.3507 0.8341 0.7573
C28_9 C 0.36214(13) 0.81527(12) 0.77925(12)
H18_9 H 0.3527 0.8041 0.7766
C29_9 C 0.37702(12) 0.81355(12) 0.79519(13)
H19_9 H 0.3778 0.8014 0.8037
C30_9 C 0.39067(10) 0.83011(10) 0.79822(9)
C31_9 C 0.38923(9) 0.84741(8) 0.78496(8)
H20_9 H 0.3989 0.8586 0.7867
C32_9 C 0.40696(10) 0.82939(9) 0.81433(9)
N11_9 N 0.37494(7) 0.84886(7) 0.77001(7)
N12_9 N 0.42137(8) 0.84440(8) 0.81397(7)
C33_9 C 0.41707(11) 0.76760(10) 0.88864(12)
H21_9 H 0.4159 0.7573 0.8993
C34_9 C 0.43473(12) 0.77925(12) 0.88786(13)
H22_9 H 0.4459 0.7766 0.8973
C35_9 C 0.43645(12) 0.79519(13) 0.87298(12)
H23_9 H 0.4486 0.8037 0.8722
C36_9 C 0.41989(10) 0.79822(9) 0.85933(10)
C37_9 C 0.40259(8) 0.78496(8) 0.86077(9)
H24_9 H 0.3914 0.7867 0.8511
C38_9 C 0.42061(9) 0.81433(9) 0.84304(10)
N13_9 N 0.40114(7) 0.77001(7) 0.87506(7)
N14_9 N 0.40560(8) 0.81397(7) 0.82863(8)
C57_17 C 0.38009(12) 0.99874(9) 0.82496(12)
C58_25 C 0.41707(11) 0.98240(10) 0.86136(12)
H37_25 H 0.4159 0.9927 0.8507
C59_25 C 0.43473(12) 0.97075(12) 0.86214(13)
H38_25 H 0.4459 0.9734 0.8527
C60_25 C 0.43645(12) 0.95481(13) 0.87702(12)
H39_25 H 0.4486 0.9463 0.8778
C61_25 C 0.41989(10) 0.95178(9) 0.89067(10)
C62_25 C 0.40259(8) 0.96504(8) 0.88923(9)
H40_25 H 0.3914 0.9633 0.8989
C63_25 C 0.42061(9) 0.93567(9) 0.90696(10)
N22_13 N 0.40114(7) 0.97999(7) 0.87494(7)
N23_25 N 0.40560(8) 0.93603(7) 0.92137(8)
S3_17 S 0.38430(7) 0.99509(4) 0.80016(4)
C64_25 C 0.48240(10) 0.86136(12) 0.91707(11)
H41_25 H 0.4927 0.8507 0.9159
C65_25 C 0.47075(12) 0.86214(13) 0.93473(12)
H42_25 H 0.4734 0.8527 0.9459
C66_25 C 0.45481(13) 0.87702(12) 0.93645(12)
H43_25 H 0.4463 0.8778 0.9486
C67_25 C 0.45178(9) 0.89067(10) 0.91989(10)
C68_25 C 0.46504(8) 0.88923(9) 0.90259(8)
H44_25 H 0.4633 0.8989 0.8914
C69_25 C 0.43567(9) 0.90696(10) 0.92061(9)
N24_13 N 0.47999(7) 0.87494(7) 0.90114(7)
N25_25 N 0.43603(7) 0.92137(8) 0.90560(8)
C70_25 C 0.36136(12) 0.91707(11) 0.98240(10)
H45_25 H 0.3507 0.9159 0.9927
C71_25 C 0.36214(13) 0.93473(12) 0.97075(12)
H46_25 H 0.3527 0.9459 0.9734
C72_25 C 0.37702(12) 0.93645(12) 0.95481(13)
H47_25 H 0.3778 0.9486 0.9463
C73_25 C 0.39067(10) 0.91989(10) 0.95178(9)
C74_25 C 0.38923(9) 0.90259(8) 0.96504(8)
H48_25 H 0.3989 0.8914 0.9633
C75_25 C 0.40696(10) 0.92061(9) 0.93567(9)
N26_25 N 0.37494(7) 0.90114(7) 0.97999(7)
N27_25 N 0.42137(8) 0.90560(8) 0.93603(7)
C94_17 C 0.42504(12) 0.88009(12) 0.75126(9)
N34_17 N 0.40750(8) 0.87722(7) 0.74874(7)
S4_17 S 0.44984(4) 0.88430(7) 0.75491(4)
C113_17 C 0.32496(12) 0.86991(12) 0.75126(9)
N41_17 N 0.34250(8) 0.87278(7) 0.74874(7)
S5_17 S 0.30016(4) 0.86570(7) 0.75491(4)
C152_17 C 0.49874(9) 0.82496(12) 0.88009(12)
N56_17 N 0.50126(7) 0.84250(8) 0.87722(7)
S8_17 S 0.49509(4) 0.80016(4) 0.88430(7)
C153_17 C 0.36991(12) 0.99874(9) 0.92504(12)
S9_17 S 0.36570(7) 0.99509(4) 0.94984(4)
N70_13 N 0.37506(7) 0.90114(7) 0.77001(7)
N71_13 N 0.34886(7) 0.97999(7) 0.87506(7)
C20_18 C 0.25126(9) 0.32496(12) 0.36991(12)
C21_10 C 0.26760(10) 0.36136(12) 0.33293(11)
H13_10 H 0.2573 0.3507 0.3341
C22_10 C 0.27925(12) 0.36214(13) 0.31527(12)
H14_10 H 0.2766 0.3527 0.3041
C23_10 C 0.29519(13) 0.37702(12) 0.31355(12)
H15_10 H 0.3037 0.3778 0.3014
C24_10 C 0.29822(9) 0.39067(10) 0.33011(10)
C25_10 C 0.28496(8) 0.38923(9) 0.34741(8)
H16_10 H 0.2867 0.3989 0.3586
C26_10 C 0.31433(9) 0.40696(10) 0.32939(9)
N8_18 N 0.24874(7) 0.34250(8) 0.37278(7)
N9_10 N 0.27001(7) 0.37494(7) 0.34886(7)
N10_10 N 0.31397(7) 0.42137(8) 0.34440(8)
S2_18 S 0.25491(4) 0.30016(4) 0.36570(7)
C27_10 C 0.38864(12) 0.41707(11) 0.26760(10)
H17_10 H 0.3993 0.4159 0.2573
C28_10 C 0.38786(13) 0.43473(12) 0.27925(12)
H18_10 H 0.3973 0.4459 0.2766
C29_10 C 0.37298(12) 0.43645(12) 0.29519(13)
H19_10 H 0.3722 0.4486 0.3037
C30_10 C 0.35933(10) 0.41989(10) 0.29822(9)
C31_10 C 0.36077(9) 0.40259(8) 0.28496(8)
H20_10 H 0.3511 0.3914 0.2867
C32_10 C 0.34304(10) 0.42061(9) 0.31433(9)
N11_10 N 0.37506(7) 0.40114(7) 0.27001(7)
N12_10 N 0.32863(8) 0.40560(8) 0.31397(7)
C33_10 C 0.33293(11) 0.48240(10) 0.38864(12)
H21_10 H 0.3341 0.4927 0.3993
C34_10 C 0.31527(12) 0.47075(12) 0.38786(13)
H22_10 H 0.3041 0.4734 0.3973
C35_10 C 0.31355(12) 0.45481(13) 0.37298(12)
H23_10 H 0.3014 0.4463 0.3722
C36_10 C 0.33011(10) 0.45178(9) 0.35933(10)
C37_10 C 0.34741(8) 0.46504(8) 0.36077(9)
H24_10 H 0.3586 0.4633 0.3511
C38_10 C 0.32939(9) 0.43567(9) 0.34304(10)
N13_10 N 0.34886(7) 0.47999(7) 0.37506(7)
N14_10 N 0.34440(8) 0.43603(7) 0.32863(8)
C57_18 C 0.36991(12) 0.25126(9) 0.32496(12)
C58_26 C 0.33293(11) 0.26760(10) 0.36136(12)
H37_26 H 0.3341 0.2573 0.3507
C59_26 C 0.31527(12) 0.27925(12) 0.36214(13)
H38_26 H 0.3041 0.2766 0.3527
C60_26 C 0.31355(12) 0.29519(13) 0.37702(12)
H39_26 H 0.3014 0.3037 0.3778
C61_26 C 0.33011(10) 0.29822(9) 0.39067(10)
C62_26 C 0.34741(8) 0.28496(8) 0.38923(9)
H40_26 H 0.3586 0.2867 0.3989
C63_26 C 0.32939(9) 0.31433(9) 0.40696(10)
N21_18 N 0.37278(7) 0.24874(7) 0.34250(8)
N22_14 N 0.34886(7) 0.27001(7) 0.37494(7)
N23_26 N 0.34440(8) 0.31397(7) 0.42137(8)
S3_18 S 0.36570(7) 0.25491(4) 0.30016(4)
C64_26 C 0.26760(10) 0.38864(12) 0.41707(11)
H41_26 H 0.2573 0.3993 0.4159
C65_26 C 0.27925(12) 0.38786(13) 0.43473(12)
H42_26 H 0.2766 0.3973 0.4459
C66_26 C 0.29519(13) 0.37298(12) 0.43645(12)
H43_26 H 0.3037 0.3722 0.4486
C67_26 C 0.29822(9) 0.35933(10) 0.41989(10)
C68_26 C 0.28496(8) 0.36077(9) 0.40259(8)
H44_26 H 0.2867 0.3511 0.3914
C69_26 C 0.31433(9) 0.34304(10) 0.42061(9)
N24_14 N 0.27001(7) 0.37506(7) 0.40114(7)
N25_26 N 0.31397(7) 0.32863(8) 0.40560(8)
C70_26 C 0.38864(12) 0.33293(11) 0.48240(10)
H45_26 H 0.3993 0.3341 0.4927
C71_26 C 0.38786(13) 0.31527(12) 0.47075(12)
H46_26 H 0.3973 0.3041 0.4734
C72_26 C 0.37298(12) 0.31355(12) 0.45481(13)
H47_26 H 0.3722 0.3014 0.4463
C73_26 C 0.35933(10) 0.33011(10) 0.45178(9)
C74_26 C 0.36077(9) 0.34741(8) 0.46504(8)
H48_26 H 0.3511 0.3586 0.4633
C75_26 C 0.34304(10) 0.32939(9) 0.43567(9)
N26_26 N 0.37506(7) 0.34886(7) 0.47999(7)
N27_26 N 0.32863(8) 0.34440(8) 0.43603(7)
C94_18 C 0.32496(12) 0.36991(12) 0.25126(9)
N34_18 N 0.34250(8) 0.37278(7) 0.24874(7)
S4_18 S 0.30016(4) 0.36570(7) 0.25491(4)
C113_18 C 0.42504(12) 0.38009(12) 0.25126(9)
N41_18 N 0.40750(8) 0.37722(7) 0.24874(7)
S5_18 S 0.44984(4) 0.38430(7) 0.25491(4)
C152_18 C 0.25126(9) 0.42504(12) 0.38009(12)
N56_18 N 0.24874(7) 0.40750(8) 0.37722(7)
S8_18 S 0.25491(4) 0.44984(4) 0.38430(7)
C153_18 C 0.38009(12) 0.25126(9) 0.42504(12)
N57_18 N 0.37722(7) 0.24874(7) 0.40750(8)
S9_18 S 0.38430(7) 0.25491(4) 0.44984(4)
N70_14 N 0.37494(7) 0.34886(7) 0.27001(7)
N71_14 N 0.40114(7) 0.27001(7) 0.37506(7)
N34_19 N 0.84250(8) 0.37722(7) 0.00126(7)
N41_19 N 0.90750(8) 0.37278(7) 0.00126(7)
C20_19 C 0.75126(9) 0.42504(12) 0.88009(12)
C21_11 C 0.76760(10) 0.38864(12) 0.91707(11)
H13_11 H 0.7573 0.3993 0.9159
C22_11 C 0.77925(12) 0.38786(13) 0.93473(12)
H14_11 H 0.7766 0.3973 0.9459
C23_11 C 0.79519(13) 0.37298(12) 0.93645(12)
H15_11 H 0.8037 0.3722 0.9486
C24_11 C 0.79822(9) 0.35933(10) 0.91989(10)
C25_11 C 0.78496(8) 0.36077(9) 0.90259(8)
H16_11 H 0.7867 0.3511 0.8914
C26_11 C 0.81433(9) 0.34304(10) 0.92061(9)
N8_19 N 0.74874(7) 0.40750(8) 0.87722(7)
N9_11 N 0.77001(7) 0.37506(7) 0.90114(7)
N10_11 N 0.81397(7) 0.32863(8) 0.90560(8)
S2_19 S 0.75491(4) 0.44984(4) 0.88430(7)
C27_11 C 0.88864(12) 0.33293(11) 0.98240(10)
H17_11 H 0.8993 0.3341 0.9927
C28_11 C 0.88786(13) 0.31527(12) 0.97075(12)
H18_11 H 0.8973 0.3041 0.9734
C29_11 C 0.87298(12) 0.31355(12) 0.95481(13)
H19_11 H 0.8722 0.3014 0.9463
C30_11 C 0.85933(10) 0.33011(10) 0.95178(9)
C31_11 C 0.86077(9) 0.34741(8) 0.96504(8)
H20_11 H 0.8511 0.3586 0.9633
C32_11 C 0.84304(10) 0.32939(9) 0.93567(9)
N11_11 N 0.87506(7) 0.34886(7) 0.97999(7)
N12_11 N 0.82863(8) 0.34440(8) 0.93603(7)
C33_11 C 0.83293(11) 0.26760(10) 0.86136(12)
H21_11 H 0.8341 0.2573 0.8507
C34_11 C 0.81527(12) 0.27925(12) 0.86214(13)
H22_11 H 0.8041 0.2766 0.8527
C35_11 C 0.81355(12) 0.29519(13) 0.87702(12)
H23_11 H 0.8014 0.3037 0.8778
C36_11 C 0.83011(10) 0.29822(9) 0.89067(10)
C37_11 C 0.84741(8) 0.28496(8) 0.88923(9)
H24_11 H 0.8586 0.2867 0.8989
C38_11 C 0.82939(9) 0.31433(9) 0.90696(10)
N13_11 N 0.84886(7) 0.27001(7) 0.87494(7)
N14_11 N 0.84440(8) 0.31397(7) 0.92137(8)
C57_19 C 0.86991(12) 0.49874(9) 0.92504(12)
C58_27 C 0.83293(11) 0.48240(10) 0.88864(12)
H37_27 H 0.8341 0.4927 0.8993
C59_27 C 0.81527(12) 0.47075(12) 0.88786(13)
H38_27 H 0.8041 0.4734 0.8973
C60_27 C 0.81355(12) 0.45481(13) 0.87298(12)
H39_27 H 0.8014 0.4463 0.8722
C61_27 C 0.83011(10) 0.45178(9) 0.85933(10)
C62_27 C 0.84741(8) 0.46504(8) 0.86077(9)
H40_27 H 0.8586 0.4633 0.8511
C63_27 C 0.82939(9) 0.43567(9) 0.84304(10)
N21_19 N 0.87278(7) 0.50126(7) 0.90750(8)
N22_15 N 0.84886(7) 0.47999(7) 0.87506(7)
N23_27 N 0.84440(8) 0.43603(7) 0.82863(8)
S3_19 S 0.86570(7) 0.49509(4) 0.94984(4)
C64_27 C 0.76760(10) 0.36136(12) 0.83293(11)
H41_27 H 0.7573 0.3507 0.8341
C65_27 C 0.77925(12) 0.36214(13) 0.81527(12)
H42_27 H 0.7766 0.3527 0.8041
C66_27 C 0.79519(13) 0.37702(12) 0.81355(12)
H43_27 H 0.8037 0.3778 0.8014
C67_27 C 0.79822(9) 0.39067(10) 0.83011(10)
C68_27 C 0.78496(8) 0.38923(9) 0.84741(8)
H44_27 H 0.7867 0.3989 0.8586
C69_27 C 0.81433(9) 0.40696(10) 0.82939(9)
N24_15 N 0.77001(7) 0.37494(7) 0.84886(7)
N25_27 N 0.81397(7) 0.42137(8) 0.84440(8)
C70_27 C 0.88864(12) 0.41707(11) 0.76760(10)
H45_27 H 0.8993 0.4159 0.7573
C71_27 C 0.88786(13) 0.43473(12) 0.77925(12)
H46_27 H 0.8973 0.4459 0.7766
C72_27 C 0.87298(12) 0.43645(12) 0.79519(13)
H47_27 H 0.8722 0.4486 0.8037
C73_27 C 0.85933(10) 0.41989(10) 0.79822(9)
C74_27 C 0.86077(9) 0.40259(8) 0.78496(8)
H48_27 H 0.8511 0.3914 0.7867
C75_27 C 0.84304(10) 0.42061(9) 0.81433(9)
N26_27 N 0.87506(7) 0.40114(7) 0.77001(7)
N27_27 N 0.82863(8) 0.40560(8) 0.81397(7)
C94_19 C 0.82496(12) 0.38009(12) 0.99874(9)
S4_19 S 0.80016(4) 0.38430(7) 0.99509(4)
C113_19 C 0.92504(12) 0.36991(12) 0.99874(9)
S5_19 S 0.94984(4) 0.36570(7) 0.99509(4)
C152_19 C 0.75126(9) 0.32496(12) 0.86991(12)
N56_19 N 0.74874(7) 0.34250(8) 0.87278(7)
S8_19 S 0.75491(4) 0.30016(4) 0.86570(7)
C153_19 C 0.88009(12) 0.49874(9) 0.82496(12)
N57_19 N 0.87722(7) 0.50126(7) 0.84250(8)
S9_19 S 0.88430(7) 0.49509(4) 0.80016(4)
N70_15 N 0.87494(7) 0.40114(7) 0.97999(7)
N71_15 N 0.90114(7) 0.47999(7) 0.87494(7)
N8_20 N 0.00126(7) 0.84250(8) 0.37722(7)
N56_20 N 0.00126(7) 0.90750(8) 0.37278(7)
C20_20 C 0.99874(9) 0.82496(12) 0.38009(12)
C21_12 C 0.98240(10) 0.86136(12) 0.41707(11)
H13_12 H 0.9927 0.8507 0.4159
C22_12 C 0.97075(12) 0.86214(13) 0.43473(12)
H14_12 H 0.9734 0.8527 0.4459
C23_12 C 0.95481(13) 0.87702(12) 0.43645(12)
H15_12 H 0.9463 0.8778 0.4486
C24_12 C 0.95178(9) 0.89067(10) 0.41989(10)
C25_12 C 0.96504(8) 0.88923(9) 0.40259(8)
H16_12 H 0.9633 0.8989 0.3914
C26_12 C 0.93567(9) 0.90696(10) 0.42061(9)
N9_12 N 0.97999(7) 0.87494(7) 0.40114(7)
N10_12 N 0.93603(7) 0.92137(8) 0.40560(8)
S2_20 S 0.99509(4) 0.80016(4) 0.38430(7)
C27_12 C 0.86136(12) 0.91707(11) 0.48240(10)
H17_12 H 0.8507 0.9159 0.4927
C28_12 C 0.86214(13) 0.93473(12) 0.47075(12)
H18_12 H 0.8527 0.9459 0.4734
C29_12 C 0.87702(12) 0.93645(12) 0.45481(13)
H19_12 H 0.8778 0.9486 0.4463
C30_12 C 0.89067(10) 0.91989(10) 0.45178(9)
C31_12 C 0.88923(9) 0.90259(8) 0.46504(8)
H20_12 H 0.8989 0.8914 0.4633
C32_12 C 0.90696(10) 0.92061(9) 0.43567(9)
N11_12 N 0.87494(7) 0.90114(7) 0.47999(7)
N12_12 N 0.92137(8) 0.90560(8) 0.43603(7)
C33_12 C 0.91707(11) 0.98240(10) 0.36136(12)
H21_12 H 0.9159 0.9927 0.3507
C34_12 C 0.93473(12) 0.97075(12) 0.36214(13)
H22_12 H 0.9459 0.9734 0.3527
C35_12 C 0.93645(12) 0.95481(13) 0.37702(12)
H23_12 H 0.9486 0.9463 0.3778
C36_12 C 0.91989(10) 0.95178(9) 0.39067(10)
C37_12 C 0.90259(8) 0.96504(8) 0.38923(9)
H24_12 H 0.8914 0.9633 0.3989
C38_12 C 0.92061(9) 0.93567(9) 0.40696(10)
N13_12 N 0.90114(7) 0.97999(7) 0.37494(7)
N14_12 N 0.90560(8) 0.93603(7) 0.42137(8)
C57_20 C 0.88009(12) 0.75126(9) 0.42504(12)
C58_28 C 0.91707(11) 0.76760(10) 0.38864(12)
H37_28 H 0.9159 0.7573 0.3993
C59_28 C 0.93473(12) 0.77925(12) 0.38786(13)
H38_28 H 0.9459 0.7766 0.3973
C60_28 C 0.93645(12) 0.79519(13) 0.37298(12)
H39_28 H 0.9486 0.8037 0.3722
C61_28 C 0.91989(10) 0.79822(9) 0.35933(10)
C62_28 C 0.90259(8) 0.78496(8) 0.36077(9)
H40_28 H 0.8914 0.7867 0.3511
C63_28 C 0.92061(9) 0.81433(9) 0.34304(10)
N21_20 N 0.87722(7) 0.74874(7) 0.40750(8)
N22_16 N 0.90114(7) 0.77001(7) 0.37506(7)
N23_28 N 0.90560(8) 0.81397(7) 0.32863(8)
S3_20 S 0.88430(7) 0.75491(4) 0.44984(4)
C64_28 C 0.98240(10) 0.88864(12) 0.33293(11)
H41_28 H 0.9927 0.8993 0.3341
C65_28 C 0.97075(12) 0.88786(13) 0.31527(12)
H42_28 H 0.9734 0.8973 0.3041
C66_28 C 0.95481(13) 0.87298(12) 0.31355(12)
H43_28 H 0.9463 0.8722 0.3014
C67_28 C 0.95178(9) 0.85933(10) 0.33011(10)
C68_28 C 0.96504(8) 0.86077(9) 0.34741(8)
H44_28 H 0.9633 0.8511 0.3586
C69_28 C 0.93567(9) 0.84304(10) 0.32939(9)
N24_16 N 0.97999(7) 0.87506(7) 0.34886(7)
N25_28 N 0.93603(7) 0.82863(8) 0.34440(8)
C70_28 C 0.86136(12) 0.83293(11) 0.26760(10)
H45_28 H 0.8507 0.8341 0.2573
C71_28 C 0.86214(13) 0.81527(12) 0.27925(12)
H46_28 H 0.8527 0.8041 0.2766
C72_28 C 0.87702(12) 0.81355(12) 0.29519(13)
H47_28 H 0.8778 0.8014 0.3037
C73_28 C 0.89067(10) 0.83011(10) 0.29822(9)
C74_28 C 0.88923(9) 0.84741(8) 0.28496(8)
H48_28 H 0.8989 0.8586 0.2867
C75_28 C 0.90696(10) 0.82939(9) 0.31433(9)
N26_28 N 0.87494(7) 0.84886(7) 0.27001(7)
N27_28 N 0.92137(8) 0.84440(8) 0.31397(7)
C94_20 C 0.92504(12) 0.86991(12) 0.49874(9)
N34_20 N 0.90750(8) 0.87278(7) 0.50126(7)
S4_20 S 0.94984(4) 0.86570(7) 0.49509(4)
C113_20 C 0.82496(12) 0.88009(12) 0.49874(9)
N41_20 N 0.84250(8) 0.87722(7) 0.50126(7)
S5_20 S 0.80016(4) 0.88430(7) 0.49509(4)
C152_20 C 0.99874(9) 0.92504(12) 0.36991(12)
S8_20 S 0.99509(4) 0.94984(4) 0.36570(7)
C153_20 C 0.86991(12) 0.75126(9) 0.32496(12)
N57_20 N 0.87278(7) 0.74874(7) 0.34250(8)
S9_20 S 0.86570(7) 0.75491(4) 0.30016(4)
N70_16 N 0.87506(7) 0.84886(7) 0.47999(7)
N71_16 N 0.84886(7) 0.77001(7) 0.37494(7)
C58_29 C 0.86136(12) 0.41707(11) 0.98240(10)
H37_29 H 0.8507 0.4159 0.9927
C59_29 C 0.86214(13) 0.43473(12) 0.97075(12)
H38_29 H 0.8527 0.4459 0.9734
C60_29 C 0.87702(12) 0.43645(12) 0.95481(13)
H39_29 H 0.8778 0.4486 0.9463
C61_29 C 0.89067(10) 0.41989(10) 0.95178(9)
C62_29 C 0.88923(9) 0.40259(8) 0.96504(8)
H40_29 H 0.8989 0.3914 0.9633
C63_29 C 0.90696(10) 0.42061(9) 0.93567(9)
N23_29 N 0.92137(8) 0.40560(8) 0.93603(7)
C64_29 C 0.91707(11) 0.48240(10) 0.86136(12)
H41_29 H 0.9159 0.4927 0.8507
C65_29 C 0.93473(12) 0.47075(12) 0.86214(13)
H42_29 H 0.9459 0.4734 0.8527
C66_29 C 0.93645(12) 0.45481(13) 0.87702(12)
H43_29 H 0.9486 0.4463 0.8778
C67_29 C 0.91989(10) 0.45178(9) 0.89067(10)
C68_29 C 0.90259(8) 0.46504(8) 0.88923(9)
H44_29 H 0.8914 0.4633 0.8989
C69_29 C 0.92061(9) 0.43567(9) 0.90696(10)
N25_29 N 0.90560(8) 0.43603(7) 0.92137(8)
C70_29 C 0.98240(10) 0.36136(12) 0.91707(11)
H45_29 H 0.9927 0.3507 0.9159
C71_29 C 0.97075(12) 0.36214(13) 0.93473(12)
H46_29 H 0.9734 0.3527 0.9459
C72_29 C 0.95481(13) 0.37702(12) 0.93645(12)
H47_29 H 0.9463 0.3778 0.9486
C73_29 C 0.95178(9) 0.39067(10) 0.91989(10)
C74_29 C 0.96504(8) 0.38923(9) 0.90259(8)
H48_29 H 0.9633 0.3989 0.8914
C75_29 C 0.93567(9) 0.40696(10) 0.92061(9)
N26_29 N 0.97999(7) 0.37494(7) 0.90114(7)
N27_29 N 0.93603(7) 0.42137(8) 0.90560(8)
C58_30 C 0.36136(12) 0.33293(11) 0.26760(10)
H37_30 H 0.3507 0.3341 0.2573
C59_30 C 0.36214(13) 0.31527(12) 0.27925(12)
H38_30 H 0.3527 0.3041 0.2766
C60_30 C 0.37702(12) 0.31355(12) 0.29519(13)
H39_30 H 0.3778 0.3014 0.3037
C61_30 C 0.39067(10) 0.33011(10) 0.29822(9)
C62_30 C 0.38923(9) 0.34741(8) 0.28496(8)
H40_30 H 0.3989 0.3586 0.2867
C63_30 C 0.40696(10) 0.32939(9) 0.31433(9)
N23_30 N 0.42137(8) 0.34440(8) 0.31397(7)
C64_30 C 0.41707(11) 0.26760(10) 0.38864(12)
H41_30 H 0.4159 0.2573 0.3993
C65_30 C 0.43473(12) 0.27925(12) 0.38786(13)
H42_30 H 0.4459 0.2766 0.3973
C66_30 C 0.43645(12) 0.29519(13) 0.37298(12)
H43_30 H 0.4486 0.3037 0.3722
C67_30 C 0.41989(10) 0.29822(9) 0.35933(10)
C68_30 C 0.40259(8) 0.28496(8) 0.36077(9)
H44_30 H 0.3914 0.2867 0.3511
C69_30 C 0.42061(9) 0.31433(9) 0.34304(10)
N25_30 N 0.40560(8) 0.31397(7) 0.32863(8)
C70_30 C 0.48240(10) 0.38864(12) 0.33293(11)
H45_30 H 0.4927 0.3993 0.3341
C71_30 C 0.47075(12) 0.38786(13) 0.31527(12)
H46_30 H 0.4734 0.3973 0.3041
C72_30 C 0.45481(13) 0.37298(12) 0.31355(12)
H47_30 H 0.4463 0.3722 0.3014
C73_30 C 0.45178(9) 0.35933(10) 0.33011(10)
C74_30 C 0.46504(8) 0.36077(9) 0.34741(8)
H48_30 H 0.4633 0.3511 0.3586
C75_30 C 0.43567(9) 0.34304(10) 0.32939(9)
N26_30 N 0.47999(7) 0.37506(7) 0.34886(7)
N27_30 N 0.43603(7) 0.32863(8) 0.34440(8)
C58_31 C 0.88864(12) 0.83293(11) 0.48240(10)
H37_31 H 0.8993 0.8341 0.4927
C59_31 C 0.88786(13) 0.81527(12) 0.47075(12)
H38_31 H 0.8973 0.8041 0.4734
C60_31 C 0.87298(12) 0.81355(12) 0.45481(13)
H39_31 H 0.8722 0.8014 0.4463
C61_31 C 0.85933(10) 0.83011(10) 0.45178(9)
C62_31 C 0.86077(9) 0.84741(8) 0.46504(8)
H40_31 H 0.8511 0.8586 0.4633
C63_31 C 0.84304(10) 0.82939(9) 0.43567(9)
N23_31 N 0.82863(8) 0.84440(8) 0.43603(7)
C64_31 C 0.83293(11) 0.76760(10) 0.36136(12)
H41_31 H 0.8341 0.7573 0.3507
C65_31 C 0.81527(12) 0.77925(12) 0.36214(13)
H42_31 H 0.8041 0.7766 0.3527
C66_31 C 0.81355(12) 0.79519(13) 0.37702(12)
H43_31 H 0.8014 0.8037 0.3778
C67_31 C 0.83011(10) 0.79822(9) 0.39067(10)
C68_31 C 0.84741(8) 0.78496(8) 0.38923(9)
H44_31 H 0.8586 0.7867 0.3989
C69_31 C 0.82939(9) 0.81433(9) 0.40696(10)
N25_31 N 0.84440(8) 0.81397(7) 0.42137(8)
C70_31 C 0.76760(10) 0.88864(12) 0.41707(11)
H45_31 H 0.7573 0.8993 0.4159
C71_31 C 0.77925(12) 0.88786(13) 0.43473(12)
H46_31 H 0.7766 0.8973 0.4459
C72_31 C 0.79519(13) 0.87298(12) 0.43645(12)
H47_31 H 0.8037 0.8722 0.4486
C73_31 C 0.79822(9) 0.85933(10) 0.41989(10)
C74_31 C 0.78496(8) 0.86077(9) 0.40259(8)
H48_31 H 0.7867 0.8511 0.3914
C75_31 C 0.81433(9) 0.84304(10) 0.42061(9)
N26_31 N 0.77001(7) 0.87506(7) 0.40114(7)
N27_31 N 0.81397(7) 0.82863(8) 0.40560(8)
C58_32 C 0.38864(12) 0.91707(11) 0.76760(10)
H37_32 H 0.3993 0.9159 0.7573
C59_32 C 0.38786(13) 0.93473(12) 0.77925(12)
H38_32 H 0.3973 0.9459 0.7766
C60_32 C 0.37298(12) 0.93645(12) 0.79519(13)
H39_32 H 0.3722 0.9486 0.8037
C61_32 C 0.35933(10) 0.91989(10) 0.79822(9)
C62_32 C 0.36077(9) 0.90259(8) 0.78496(8)
H40_32 H 0.3511 0.8914 0.7867
C63_32 C 0.34304(10) 0.92061(9) 0.81433(9)
N23_32 N 0.32863(8) 0.90560(8) 0.81397(7)
C64_32 C 0.33293(11) 0.98240(10) 0.88864(12)
H41_32 H 0.3341 0.9927 0.8993
C65_32 C 0.31527(12) 0.97075(12) 0.88786(13)
H42_32 H 0.3041 0.9734 0.8973
C66_32 C 0.31355(12) 0.95481(13) 0.87298(12)
H43_32 H 0.3014 0.9463 0.8722
C67_32 C 0.33011(10) 0.95178(9) 0.85933(10)
C68_32 C 0.34741(8) 0.96504(8) 0.86077(9)
H44_32 H 0.3586 0.9633 0.8511
C69_32 C 0.32939(9) 0.93567(9) 0.84304(10)
N25_32 N 0.34440(8) 0.93603(7) 0.82863(8)
C70_32 C 0.26760(10) 0.86136(12) 0.83293(11)
H45_32 H 0.2573 0.8507 0.8341
C71_32 C 0.27925(12) 0.86214(13) 0.81527(12)
H46_32 H 0.2766 0.8527 0.8041
C72_32 C 0.29519(13) 0.87702(12) 0.81355(12)
H47_32 H 0.3037 0.8778 0.8014
C73_32 C 0.29822(9) 0.89067(10) 0.83011(10)
C74_32 C 0.28496(8) 0.88923(9) 0.84741(8)
H48_32 H 0.2867 0.8989 0.8586
C75_32 C 0.31433(9) 0.90696(10) 0.82939(9)
N26_32 N 0.27001(7) 0.87494(7) 0.84886(7)
N27_32 N 0.31397(7) 0.92137(8) 0.84440(8)
C20_21 C 0.17504(12) 0.24874(9) 0.13009(12)
C21_13 C 0.13864(12) 0.23240(10) 0.16707(11)
H13_13 H 0.1493 0.2427 0.1659
C22_13 C 0.13786(13) 0.22075(12) 0.18473(12)
H14_13 H 0.1473 0.2234 0.1959
C23_13 C 0.12298(12) 0.20481(13) 0.18645(12)
H15_13 H 0.1222 0.1963 0.1986
C24_13 C 0.10933(10) 0.20178(9) 0.16989(10)
C25_13 C 0.11077(9) 0.21504(8) 0.15259(8)
H16_13 H 0.1011 0.2133 0.1414
C26_13 C 0.09304(10) 0.18567(9) 0.17061(9)
N8_21 N 0.15750(8) 0.25126(7) 0.12722(7)
N9_13 N 0.12506(7) 0.22999(7) 0.15114(7)
N10_13 N 0.07863(8) 0.18603(7) 0.15560(8)
S2_21 S 0.19984(4) 0.24509(4) 0.13430(7)
C27_13 C 0.08293(11) 0.11136(12) 0.23240(10)
H17_13 H 0.0841 0.1007 0.2427
C28_13 C 0.06527(12) 0.11214(13) 0.22075(12)
H18_13 H 0.0541 0.1027 0.2234
C29_13 C 0.06355(12) 0.12702(12) 0.20481(13)
H19_13 H 0.0514 0.1278 0.1963
C30_13 C 0.08011(10) 0.14067(10) 0.20178(9)
C31_13 C 0.09741(8) 0.13923(9) 0.21504(8)
H20_13 H 0.1086 0.1489 0.2133
C32_13 C 0.07939(9) 0.15696(10) 0.18567(9)
N11_13 N 0.09886(7) 0.12494(7) 0.22999(7)
N12_13 N 0.09440(8) 0.17137(8) 0.18603(7)
C33_13 C 0.01760(10) 0.16707(11) 0.11136(12)
H21_13 H 0.0073 0.1659 0.1007
C34_13 C 0.02925(12) 0.18473(12) 0.11214(13)
H22_13 H 0.0266 0.1959 0.1027
C35_13 C 0.04519(13) 0.18645(12) 0.12702(12)
H23_13 H 0.0537 0.1986 0.1278
C36_13 C 0.04822(9) 0.16989(10) 0.14067(10)
C37_13 C 0.03496(8) 0.15259(8) 0.13923(9)
H24_13 H 0.0367 0.1414 0.1489
C38_13 C 0.06433(9) 0.17061(9) 0.15696(10)
N13_13 N 0.02001(7) 0.15114(7) 0.12494(7)
N14_13 N 0.06397(7) 0.15560(8) 0.17137(8)
C57_21 C 0.24874(9) 0.13009(12) 0.17504(12)
C58_33 C 0.23240(10) 0.16707(11) 0.13864(12)
H37_33 H 0.2427 0.1659 0.1493
C59_33 C 0.22075(12) 0.18473(12) 0.13786(13)
H38_33 H 0.2234 0.1959 0.1473
C60_33 C 0.20481(13) 0.18645(12) 0.12298(12)
H39_33 H 0.1963 0.1986 0.1222
C61_33 C 0.20178(9) 0.16989(10) 0.10933(10)
C62_33 C 0.21504(8) 0.15259(8) 0.11077(9)
H40_33 H 0.2133 0.1414 0.1011
C63_33 C 0.18567(9) 0.17061(9) 0.09304(10)
N21_21 N 0.25126(7) 0.12722(7) 0.15750(8)
N22_17 N 0.22999(7) 0.15114(7) 0.12506(7)
N23_33 N 0.18603(7) 0.15560(8) 0.07863(8)
S3_21 S 0.24509(4) 0.13430(7) 0.19984(4)
C64_33 C 0.11136(12) 0.23240(10) 0.08293(11)
H41_33 H 0.1007 0.2427 0.0841
C65_33 C 0.11214(13) 0.22075(12) 0.06527(12)
H42_33 H 0.1027 0.2234 0.0541
C66_33 C 0.12702(12) 0.20481(13) 0.06355(12)
H43_33 H 0.1278 0.1963 0.0514
C67_33 C 0.14067(10) 0.20178(9) 0.08011(10)
C68_33 C 0.13923(9) 0.21504(8) 0.09741(8)
H44_33 H 0.1489 0.2133 0.1086
C69_33 C 0.15696(10) 0.18567(9) 0.07939(9)
N24_17 N 0.12494(7) 0.22999(7) 0.09886(7)
N25_33 N 0.17137(8) 0.18603(7) 0.09440(8)
C70_33 C 0.16707(11) 0.11136(12) 0.01760(10)
H45_33 H 0.1659 0.1007 0.0073
C71_33 C 0.18473(12) 0.11214(13) 0.02925(12)
H46_33 H 0.1959 0.1027 0.0266
C72_33 C 0.18645(12) 0.12702(12) 0.04519(13)
H47_33 H 0.1986 0.1278 0.0537
C73_33 C 0.16989(10) 0.14067(10) 0.04822(9)
C74_33 C 0.15259(8) 0.13923(9) 0.03496(8)
H48_33 H 0.1414 0.1489 0.0367
C75_33 C 0.17061(9) 0.15696(10) 0.06433(9)
N26_33 N 0.15114(7) 0.12494(7) 0.02001(7)
N27_33 N 0.15560(8) 0.17137(8) 0.06397(7)
C94_21 C 0.13009(12) 0.17504(12) 0.24874(9)
N34_21 N 0.12722(7) 0.15750(8) 0.25126(7)
S4_21 S 0.13430(7) 0.19984(4) 0.24509(4)
C113_21 C 0.11991(12) 0.07496(12) 0.24874(9)
N41_21 N 0.12278(7) 0.09250(8) 0.25126(7)
S5_21 S 0.11570(7) 0.05016(4) 0.24509(4)
C152_21 C 0.07496(12) 0.24874(9) 0.11991(12)
N56_21 N 0.09250(8) 0.25126(7) 0.12278(7)
S8_21 S 0.05016(4) 0.24509(4) 0.11570(7)
C153_21 C 0.24874(9) 0.11991(12) 0.07496(12)
N57_21 N 0.25126(7) 0.12278(7) 0.09250(8)
S9_21 S 0.24509(4) 0.11570(7) 0.05016(4)
N70_17 N 0.15114(7) 0.12506(7) 0.22999(7)
N71_17 N 0.22999(7) 0.09886(7) 0.12494(7)
C20_22 C 0.57496(12) 0.00126(9) 0.63009(12)
C21_14 C 0.61136(12) 0.01760(10) 0.66707(11)
H13_14 H 0.6007 0.0073 0.6659
C22_14 C 0.61214(13) 0.02925(12) 0.68473(12)
H14_14 H 0.6027 0.0266 0.6959
C23_14 C 0.62702(12) 0.04519(13) 0.68645(12)
H15_14 H 0.6278 0.0537 0.6986
C24_14 C 0.64067(10) 0.04822(9) 0.66989(10)
C25_14 C 0.63923(9) 0.03496(8) 0.65259(8)
H16_14 H 0.6489 0.0367 0.6414
C26_14 C 0.65696(10) 0.06433(9) 0.67061(9)
N9_14 N 0.62494(7) 0.02001(7) 0.65114(7)
N10_14 N 0.67137(8) 0.06397(7) 0.65560(8)
S2_22 S 0.55016(4) 0.00491(4) 0.63430(7)
C27_14 C 0.66707(11) 0.13864(12) 0.73240(10)
H17_14 H 0.6659 0.1493 0.7427
C28_14 C 0.68473(12) 0.13786(13) 0.72075(12)
H18_14 H 0.6959 0.1473 0.7234
C29_14 C 0.68645(12) 0.12298(12) 0.70481(13)
H19_14 H 0.6986 0.1222 0.6963
C30_14 C 0.66989(10) 0.10933(10) 0.70178(9)
C31_14 C 0.65259(8) 0.11077(9) 0.71504(8)
H20_14 H 0.6414 0.1011 0.7133
C32_14 C 0.67061(9) 0.09304(10) 0.68567(9)
N11_14 N 0.65114(7) 0.12506(7) 0.72999(7)
N12_14 N 0.65560(8) 0.07863(8) 0.68603(7)
C33_14 C 0.73240(10) 0.08293(11) 0.61136(12)
H21_14 H 0.7427 0.0841 0.6007
C34_14 C 0.72075(12) 0.06527(12) 0.61214(13)
H22_14 H 0.7234 0.0541 0.6027
C35_14 C 0.70481(13) 0.06355(12) 0.62702(12)
H23_14 H 0.6963 0.0514 0.6278
C36_14 C 0.70178(9) 0.08011(10) 0.64067(10)
C37_14 C 0.71504(8) 0.09741(8) 0.63923(9)
H24_14 H 0.7133 0.1086 0.6489
C38_14 C 0.68567(9) 0.07939(9) 0.65696(10)
N13_14 N 0.72999(7) 0.09886(7) 0.62494(7)
N14_14 N 0.68603(7) 0.09440(8) 0.67137(8)
C57_22 C 0.50126(9) 0.11991(12) 0.67504(12)
C58_34 C 0.51760(10) 0.08293(11) 0.63864(12)
H37_34 H 0.5073 0.0841 0.6493
C59_34 C 0.52925(12) 0.06527(12) 0.63786(13)
H38_34 H 0.5266 0.0541 0.6473
C60_34 C 0.54519(13) 0.06355(12) 0.62298(12)
H39_34 H 0.5537 0.0514 0.6222
C61_34 C 0.54822(9) 0.08011(10) 0.60933(10)
C62_34 C 0.53496(8) 0.09741(8) 0.61077(9)
H40_34 H 0.5367 0.1086 0.6011
C63_34 C 0.56433(9) 0.07939(9) 0.59304(10)
N21_22 N 0.49874(7) 0.12278(7) 0.65750(8)
N22_18 N 0.52001(7) 0.09886(7) 0.62506(7)
N23_34 N 0.56397(7) 0.09440(8) 0.57863(8)
S3_22 S 0.50491(4) 0.11570(7) 0.69984(4)
C64_34 C 0.63864(12) 0.01760(10) 0.58293(11)
H41_34 H 0.6493 0.0073 0.5841
C65_34 C 0.63786(13) 0.02925(12) 0.56527(12)
H42_34 H 0.6473 0.0266 0.5541
C66_34 C 0.62298(12) 0.04519(13) 0.56355(12)
H43_34 H 0.6222 0.0537 0.5514
C67_34 C 0.60933(10) 0.04822(9) 0.58011(10)
C68_34 C 0.61077(9) 0.03496(8) 0.59741(8)
H44_34 H 0.6011 0.0367 0.6086
C69_34 C 0.59304(10) 0.06433(9) 0.57939(9)
N24_18 N 0.62506(7) 0.02001(7) 0.59886(7)
N25_34 N 0.57863(8) 0.06397(7) 0.59440(8)
C70_34 C 0.58293(11) 0.13864(12) 0.51760(10)
H45_34 H 0.5841 0.1493 0.5073
C71_34 C 0.56527(12) 0.13786(13) 0.52925(12)
H46_34 H 0.5541 0.1473 0.5266
C72_34 C 0.56355(12) 0.12298(12) 0.54519(13)
H47_34 H 0.5514 0.1222 0.5537
C73_34 C 0.58011(10) 0.10933(10) 0.54822(9)
C74_34 C 0.59741(8) 0.11077(9) 0.53496(8)
H48_34 H 0.6086 0.1011 0.5367
C75_34 C 0.57939(9) 0.09304(10) 0.56433(9)
N26_34 N 0.59886(7) 0.12506(7) 0.52001(7)
N27_34 N 0.59440(8) 0.07863(8) 0.56397(7)
C94_22 C 0.61991(12) 0.07496(12) 0.74874(9)
N34_22 N 0.62278(7) 0.09250(8) 0.75126(7)
S4_22 S 0.61570(7) 0.05016(4) 0.74509(4)
C113_22 C 0.63009(12) 0.17504(12) 0.74874(9)
N41_22 N 0.62722(7) 0.15750(8) 0.75126(7)
S5_22 S 0.63430(7) 0.19984(4) 0.74509(4)
C152_22 C 0.67504(12) 0.00126(9) 0.61991(12)
S8_22 S 0.69984(4) 0.00491(4) 0.61570(7)
C153_22 C 0.50126(9) 0.13009(12) 0.57496(12)
N57_22 N 0.49874(7) 0.12722(7) 0.59250(8)
S9_22 S 0.50491(4) 0.13430(7) 0.55016(4)
N70_18 N 0.59886(7) 0.12494(7) 0.72999(7)
N71_18 N 0.52001(7) 0.15114(7) 0.62494(7)
N8_22 N 0.59250(8) 0.99874(7) 0.62722(7)
N56_22 N 0.65750(8) 0.99874(7) 0.62278(7)
C20_23 C 0.67504(12) 0.50126(9) 0.11991(12)
C21_15 C 0.63864(12) 0.51760(10) 0.08293(11)
H13_15 H 0.6493 0.5073 0.0841
C22_15 C 0.63786(13) 0.52925(12) 0.06527(12)
H14_15 H 0.6473 0.5266 0.0541
C23_15 C 0.62298(12) 0.54519(13) 0.06355(12)
H15_15 H 0.6222 0.5537 0.0514
C24_15 C 0.60933(10) 0.54822(9) 0.08011(10)
C25_15 C 0.61077(9) 0.53496(8) 0.09741(8)
H16_15 H 0.6011 0.5367 0.1086
C26_15 C 0.59304(10) 0.56433(9) 0.07939(9)
N8_23 N 0.65750(8) 0.49874(7) 0.12278(7)
N9_15 N 0.62506(7) 0.52001(7) 0.09886(7)
N10_15 N 0.57863(8) 0.56397(7) 0.09440(8)
S2_23 S 0.69984(4) 0.50491(4) 0.11570(7)
C27_15 C 0.58293(11) 0.63864(12) 0.01760(10)
H17_15 H 0.5841 0.6493 0.0073
C28_15 C 0.56527(12) 0.63786(13) 0.02925(12)
H18_15 H 0.5541 0.6473 0.0266
C29_15 C 0.56355(12) 0.62298(12) 0.04519(13)
H19_15 H 0.5514 0.6222 0.0537
C30_15 C 0.58011(10) 0.60933(10) 0.04822(9)
C31_15 C 0.59741(8) 0.61077(9) 0.03496(8)
H20_15 H 0.6086 0.6011 0.0367
C32_15 C 0.57939(9) 0.59304(10) 0.06433(9)
N11_15 N 0.59886(7) 0.62506(7) 0.02001(7)
N12_15 N 0.59440(8) 0.57863(8) 0.06397(7)
C33_15 C 0.51760(10) 0.58293(11) 0.13864(12)
H21_15 H 0.5073 0.5841 0.1493
C34_15 C 0.52925(12) 0.56527(12) 0.13786(13)
H22_15 H 0.5266 0.5541 0.1473
C35_15 C 0.54519(13) 0.56355(12) 0.12298(12)
H23_15 H 0.5537 0.5514 0.1222
C36_15 C 0.54822(9) 0.58011(10) 0.10933(10)
C37_15 C 0.53496(8) 0.59741(8) 0.11077(9)
H24_15 H 0.5367 0.6086 0.1011
C38_15 C 0.56433(9) 0.57939(9) 0.09304(10)
N13_15 N 0.52001(7) 0.59886(7) 0.12506(7)
N14_15 N 0.56397(7) 0.59440(8) 0.07863(8)
C57_23 C 0.74874(9) 0.61991(12) 0.07496(12)
C58_35 C 0.73240(10) 0.58293(11) 0.11136(12)
H37_35 H 0.7427 0.5841 0.1007
C59_35 C 0.72075(12) 0.56527(12) 0.11214(13)
H38_35 H 0.7234 0.5541 0.1027
C60_35 C 0.70481(13) 0.56355(12) 0.12702(12)
H39_35 H 0.6963 0.5514 0.1278
C61_35 C 0.70178(9) 0.58011(10) 0.14067(10)
C62_35 C 0.71504(8) 0.59741(8) 0.13923(9)
H40_35 H 0.7133 0.6086 0.1489
C63_35 C 0.68567(9) 0.57939(9) 0.15696(10)
N21_23 N 0.75126(7) 0.62278(7) 0.09250(8)
N22_19 N 0.72999(7) 0.59886(7) 0.12494(7)
N23_35 N 0.68603(7) 0.59440(8) 0.17137(8)
S3_23 S 0.74509(4) 0.61570(7) 0.05016(4)
C64_35 C 0.61136(12) 0.51760(10) 0.16707(11)
H41_35 H 0.6007 0.5073 0.1659
C65_35 C 0.61214(13) 0.52925(12) 0.18473(12)
H42_35 H 0.6027 0.5266 0.1959
C66_35 C 0.62702(12) 0.54519(13) 0.18645(12)
H43_35 H 0.6278 0.5537 0.1986
C67_35 C 0.64067(10) 0.54822(9) 0.16989(10)
C68_35 C 0.63923(9) 0.53496(8) 0.15259(8)
H44_35 H 0.6489 0.5367 0.1414
C69_35 C 0.65696(10) 0.56433(9) 0.17061(9)
N24_19 N 0.62494(7) 0.52001(7) 0.15114(7)
N25_35 N 0.67137(8) 0.56397(7) 0.15560(8)
C70_35 C 0.66707(11) 0.63864(12) 0.23240(10)
H45_35 H 0.6659 0.6493 0.2427
C71_35 C 0.68473(12) 0.63786(13) 0.22075(12)
H46_35 H 0.6959 0.6473 0.2234
C72_35 C 0.68645(12) 0.62298(12) 0.20481(13)
H47_35 H 0.6986 0.6222 0.1963
C73_35 C 0.66989(10) 0.60933(10) 0.20178(9)
C74_35 C 0.65259(8) 0.61077(9) 0.21504(8)
H48_35 H 0.6414 0.6011 0.2133
C75_35 C 0.67061(9) 0.59304(10) 0.18567(9)
N26_35 N 0.65114(7) 0.62506(7) 0.22999(7)
N27_35 N 0.65560(8) 0.57863(8) 0.18603(7)
C94_23 C 0.63009(12) 0.57496(12) 0.00126(9)
S4_23 S 0.63430(7) 0.55016(4) 0.00491(4)
C113_23 C 0.61991(12) 0.67504(12) 0.00126(9)
S5_23 S 0.61570(7) 0.69984(4) 0.00491(4)
C152_23 C 0.57496(12) 0.50126(9) 0.13009(12)
N56_23 N 0.59250(8) 0.49874(7) 0.12722(7)
S8_23 S 0.55016(4) 0.50491(4) 0.13430(7)
C153_23 C 0.74874(9) 0.63009(12) 0.17504(12)
N57_23 N 0.75126(7) 0.62722(7) 0.15750(8)
S9_23 S 0.74509(4) 0.63430(7) 0.19984(4)
N70_19 N 0.65114(7) 0.62494(7) 0.02001(7)
N71_19 N 0.72999(7) 0.65114(7) 0.12506(7)
N34_23 N 0.62722(7) 0.59250(8) 0.99874(7)
N41_23 N 0.62278(7) 0.65750(8) 0.99874(7)
C20_24 C 0.07496(12) 0.74874(9) 0.61991(12)
C21_16 C 0.11136(12) 0.73240(10) 0.58293(11)
H13_16 H 0.1007 0.7427 0.5841
C22_16 C 0.11214(13) 0.72075(12) 0.56527(12)
H14_16 H 0.1027 0.7234 0.5541
C23_16 C 0.12702(12) 0.70481(13) 0.56355(12)
H15_16 H 0.1278 0.6963 0.5514
C24_16 C 0.14067(10) 0.70178(9) 0.58011(10)
C25_16 C 0.13923(9) 0.71504(8) 0.59741(8)
H16_16 H 0.1489 0.7133 0.6086
C26_16 C 0.15696(10) 0.68567(9) 0.57939(9)
N8_24 N 0.09250(8) 0.75126(7) 0.62278(7)
N9_16 N 0.12494(7) 0.72999(7) 0.59886(7)
N10_16 N 0.17137(8) 0.68603(7) 0.59440(8)
S2_24 S 0.05016(4) 0.74509(4) 0.61570(7)
C27_16 C 0.16707(11) 0.61136(12) 0.51760(10)
H17_16 H 0.1659 0.6007 0.5073
C28_16 C 0.18473(12) 0.61214(13) 0.52925(12)
H18_16 H 0.1959 0.6027 0.5266
C29_16 C 0.18645(12) 0.62702(12) 0.54519(13)
H19_16 H 0.1986 0.6278 0.5537
C30_16 C 0.16989(10) 0.64067(10) 0.54822(9)
C31_16 C 0.15259(8) 0.63923(9) 0.53496(8)
H20_16 H 0.1414 0.6489 0.5367
C32_16 C 0.17061(9) 0.65696(10) 0.56433(9)
N11_16 N 0.15114(7) 0.62494(7) 0.52001(7)
N12_16 N 0.15560(8) 0.67137(8) 0.56397(7)
C33_16 C 0.23240(10) 0.66707(11) 0.63864(12)
H21_16 H 0.2427 0.6659 0.6493
C34_16 C 0.22075(12) 0.68473(12) 0.63786(13)
H22_16 H 0.2234 0.6959 0.6473
C35_16 C 0.20481(13) 0.68645(12) 0.62298(12)
H23_16 H 0.1963 0.6986 0.6222
C36_16 C 0.20178(9) 0.66989(10) 0.60933(10)
C37_16 C 0.21504(8) 0.65259(8) 0.61077(9)
H24_16 H 0.2133 0.6414 0.6011
C38_16 C 0.18567(9) 0.67061(9) 0.59304(10)
N13_16 N 0.22999(7) 0.65114(7) 0.62506(7)
N14_16 N 0.18603(7) 0.65560(8) 0.57863(8)
C57_24 C 0.00126(9) 0.63009(12) 0.57496(12)
C58_36 C 0.01760(10) 0.66707(11) 0.61136(12)
H37_36 H 0.0073 0.6659 0.6007
C59_36 C 0.02925(12) 0.68473(12) 0.61214(13)
H38_36 H 0.0266 0.6959 0.6027
C60_36 C 0.04519(13) 0.68645(12) 0.62702(12)
H39_36 H 0.0537 0.6986 0.6278
C61_36 C 0.04822(9) 0.66989(10) 0.64067(10)
C62_36 C 0.03496(8) 0.65259(8) 0.63923(9)
H40_36 H 0.0367 0.6414 0.6489
C63_36 C 0.06433(9) 0.67061(9) 0.65696(10)
N22_20 N 0.02001(7) 0.65114(7) 0.62494(7)
N23_36 N 0.06397(7) 0.65560(8) 0.67137(8)
S3_24 S 0.00491(4) 0.63430(7) 0.55016(4)
C64_36 C 0.13864(12) 0.73240(10) 0.66707(11)
H41_36 H 0.1493 0.7427 0.6659
C65_36 C 0.13786(13) 0.72075(12) 0.68473(12)
H42_36 H 0.1473 0.7234 0.6959
C66_36 C 0.12298(12) 0.70481(13) 0.68645(12)
H43_36 H 0.1222 0.6963 0.6986
C67_36 C 0.10933(10) 0.70178(9) 0.66989(10)
C68_36 C 0.11077(9) 0.71504(8) 0.65259(8)
H44_36 H 0.1011 0.7133 0.6414
C69_36 C 0.09304(10) 0.68567(9) 0.67061(9)
N24_20 N 0.12506(7) 0.72999(7) 0.65114(7)
N25_36 N 0.07863(8) 0.68603(7) 0.65560(8)
C70_36 C 0.08293(11) 0.61136(12) 0.73240(10)
H45_36 H 0.0841 0.6007 0.7427
C71_36 C 0.06527(12) 0.61214(13) 0.72075(12)
H46_36 H 0.0541 0.6027 0.7234
C72_36 C 0.06355(12) 0.62702(12) 0.70481(13)
H47_36 H 0.0514 0.6278 0.6963
C73_36 C 0.08011(10) 0.64067(10) 0.70178(9)
C74_36 C 0.09741(8) 0.63923(9) 0.71504(8)
H48_36 H 0.1086 0.6489 0.7133
C75_36 C 0.07939(9) 0.65696(10) 0.68567(9)
N26_36 N 0.09886(7) 0.62494(7) 0.72999(7)
N27_36 N 0.09440(8) 0.67137(8) 0.68603(7)
C94_24 C 0.11991(12) 0.67504(12) 0.50126(9)
N34_24 N 0.12278(7) 0.65750(8) 0.49874(7)
S4_24 S 0.11570(7) 0.69984(4) 0.50491(4)
C113_24 C 0.13009(12) 0.57496(12) 0.50126(9)
N41_24 N 0.12722(7) 0.59250(8) 0.49874(7)
S5_24 S 0.13430(7) 0.55016(4) 0.50491(4)
C152_24 C 0.17504(12) 0.74874(9) 0.63009(12)
N56_24 N 0.15750(8) 0.75126(7) 0.62722(7)
S8_24 S 0.19984(4) 0.74509(4) 0.63430(7)
C153_24 C 0.00126(9) 0.61991(12) 0.67504(12)
S9_24 S 0.00491(4) 0.61570(7) 0.69984(4)
N70_20 N 0.09886(7) 0.62506(7) 0.52001(7)
N71_20 N 0.02001(7) 0.59886(7) 0.62506(7)
N21_24 N 0.99874(7) 0.62722(7) 0.59250(8)
N57_24 N 0.99874(7) 0.62278(7) 0.65750(8)
C58_37 C 0.66707(11) 0.61136(12) 0.01760(10)
H37_37 H 0.6659 0.6007 0.0073
C59_37 C 0.68473(12) 0.61214(13) 0.02925(12)
H38_37 H 0.6959 0.6027 0.0266
C60_37 C 0.68645(12) 0.62702(12) 0.04519(13)
H39_37 H 0.6986 0.6278 0.0537
C61_37 C 0.66989(10) 0.64067(10) 0.04822(9)
C62_37 C 0.65259(8) 0.63923(9) 0.03496(8)
H40_37 H 0.6414 0.6489 0.0367
C63_37 C 0.67061(9) 0.65696(10) 0.06433(9)
N23_37 N 0.65560(8) 0.67137(8) 0.06397(7)
C64_37 C 0.73240(10) 0.66707(11) 0.13864(12)
H41_37 H 0.7427 0.6659 0.1493
C65_37 C 0.72075(12) 0.68473(12) 0.13786(13)
H42_37 H 0.7234 0.6959 0.1473
C66_37 C 0.70481(13) 0.68645(12) 0.12298(12)
H43_37 H 0.6963 0.6986 0.1222
C67_37 C 0.70178(9) 0.66989(10) 0.10933(10)
C68_37 C 0.71504(8) 0.65259(8) 0.11077(9)
H44_37 H 0.7133 0.6414 0.1011
C69_37 C 0.68567(9) 0.67061(9) 0.09304(10)
N25_37 N 0.68603(7) 0.65560(8) 0.07863(8)
C70_37 C 0.61136(12) 0.73240(10) 0.08293(11)
H45_37 H 0.6007 0.7427 0.0841
C71_37 C 0.61214(13) 0.72075(12) 0.06527(12)
H46_37 H 0.6027 0.7234 0.0541
C72_37 C 0.62702(12) 0.70481(13) 0.06355(12)
H47_37 H 0.6278 0.6963 0.0514
C73_37 C 0.64067(10) 0.70178(9) 0.08011(10)
C74_37 C 0.63923(9) 0.71504(8) 0.09741(8)
H48_37 H 0.6489 0.7133 0.1086
C75_37 C 0.65696(10) 0.68567(9) 0.07939(9)
N26_37 N 0.62494(7) 0.72999(7) 0.09886(7)
N27_37 N 0.67137(8) 0.68603(7) 0.09440(8)
C58_38 C 0.58293(11) 0.11136(12) 0.73240(10)
H37_38 H 0.5841 0.1007 0.7427
C59_38 C 0.56527(12) 0.11214(13) 0.72075(12)
H38_38 H 0.5541 0.1027 0.7234
C60_38 C 0.56355(12) 0.12702(12) 0.70481(13)
H39_38 H 0.5514 0.1278 0.6963
C61_38 C 0.58011(10) 0.14067(10) 0.70178(9)
C62_38 C 0.59741(8) 0.13923(9) 0.71504(8)
H40_38 H 0.6086 0.1489 0.7133
C63_38 C 0.57939(9) 0.15696(10) 0.68567(9)
N23_38 N 0.59440(8) 0.17137(8) 0.68603(7)
C64_38 C 0.51760(10) 0.16707(11) 0.61136(12)
H41_38 H 0.5073 0.1659 0.6007
C65_38 C 0.52925(12) 0.18473(12) 0.61214(13)
H42_38 H 0.5266 0.1959 0.6027
C66_38 C 0.54519(13) 0.18645(12) 0.62702(12)
H43_38 H 0.5537 0.1986 0.6278
C67_38 C 0.54822(9) 0.16989(10) 0.64067(10)
C68_38 C 0.53496(8) 0.15259(8) 0.63923(9)
H44_38 H 0.5367 0.1414 0.6489
C69_38 C 0.56433(9) 0.17061(9) 0.65696(10)
N25_38 N 0.56397(7) 0.15560(8) 0.67137(8)
C70_38 C 0.63864(12) 0.23240(10) 0.66707(11)
H45_38 H 0.6493 0.2427 0.6659
C71_38 C 0.63786(13) 0.22075(12) 0.68473(12)
H46_38 H 0.6473 0.2234 0.6959
C72_38 C 0.62298(12) 0.20481(13) 0.68645(12)
H47_38 H 0.6222 0.1963 0.6986
C73_38 C 0.60933(10) 0.20178(9) 0.66989(10)
C74_38 C 0.61077(9) 0.21504(8) 0.65259(8)
H48_38 H 0.6011 0.2133 0.6414
C75_38 C 0.59304(10) 0.18567(9) 0.67061(9)
N26_38 N 0.62506(7) 0.22999(7) 0.65114(7)
N27_38 N 0.57863(8) 0.18603(7) 0.65560(8)
C58_39 C 0.08293(11) 0.63864(12) 0.51760(10)
H37_39 H 0.0841 0.6493 0.5073
C59_39 C 0.06527(12) 0.63786(13) 0.52925(12)
H38_39 H 0.0541 0.6473 0.5266
C60_39 C 0.06355(12) 0.62298(12) 0.54519(13)
H39_39 H 0.0514 0.6222 0.5537
C61_39 C 0.08011(10) 0.60933(10) 0.54822(9)
C62_39 C 0.09741(8) 0.61077(9) 0.53496(8)
H40_39 H 0.1086 0.6011 0.5367
C63_39 C 0.07939(9) 0.59304(10) 0.56433(9)
N23_39 N 0.09440(8) 0.57863(8) 0.56397(7)
C64_39 C 0.01760(10) 0.58293(11) 0.63864(12)
H41_39 H 0.0073 0.5841 0.6493
C65_39 C 0.02925(12) 0.56527(12) 0.63786(13)
H42_39 H 0.0266 0.5541 0.6473
C66_39 C 0.04519(13) 0.56355(12) 0.62298(12)
H43_39 H 0.0537 0.5514 0.6222
C67_39 C 0.04822(9) 0.58011(10) 0.60933(10)
C68_39 C 0.03496(8) 0.59741(8) 0.61077(9)
H44_39 H 0.0367 0.6086 0.6011
C69_39 C 0.06433(9) 0.57939(9) 0.59304(10)
N25_39 N 0.06397(7) 0.59440(8) 0.57863(8)
C70_39 C 0.13864(12) 0.51760(10) 0.58293(11)
H45_39 H 0.1493 0.5073 0.5841
C71_39 C 0.13786(13) 0.52925(12) 0.56527(12)
H46_39 H 0.1473 0.5266 0.5541
C72_39 C 0.12298(12) 0.54519(13) 0.56355(12)
H47_39 H 0.1222 0.5537 0.5514
C73_39 C 0.10933(10) 0.54822(9) 0.58011(10)
C74_39 C 0.11077(9) 0.53496(8) 0.59741(8)
H48_39 H 0.1011 0.5367 0.6086
C75_39 C 0.09304(10) 0.56433(9) 0.57939(9)
N26_39 N 0.12506(7) 0.52001(7) 0.59886(7)
N27_39 N 0.07863(8) 0.56397(7) 0.59440(8)
C58_40 C 0.16707(11) 0.13864(12) 0.23240(10)
H37_40 H 0.1659 0.1493 0.2427
C59_40 C 0.18473(12) 0.13786(13) 0.22075(12)
H38_40 H 0.1959 0.1473 0.2234
C60_40 C 0.18645(12) 0.12298(12) 0.20481(13)
H39_40 H 0.1986 0.1222 0.1963
C61_40 C 0.16989(10) 0.10933(10) 0.20178(9)
C62_40 C 0.15259(8) 0.11077(9) 0.21504(8)
H40_40 H 0.1414 0.1011 0.2133
C63_40 C 0.17061(9) 0.09304(10) 0.18567(9)
N23_40 N 0.15560(8) 0.07863(8) 0.18603(7)
C64_40 C 0.23240(10) 0.08293(11) 0.11136(12)
H41_40 H 0.2427 0.0841 0.1007
C65_40 C 0.22075(12) 0.06527(12) 0.11214(13)
H42_40 H 0.2234 0.0541 0.1027
C66_40 C 0.20481(13) 0.06355(12) 0.12702(12)
H43_40 H 0.1963 0.0514 0.1278
C67_40 C 0.20178(9) 0.08011(10) 0.14067(10)
C68_40 C 0.21504(8) 0.09741(8) 0.13923(9)
H44_40 H 0.2133 0.1086 0.1489
C69_40 C 0.18567(9) 0.07939(9) 0.15696(10)
N25_40 N 0.18603(7) 0.09440(8) 0.17137(8)
C70_40 C 0.11136(12) 0.01760(10) 0.16707(11)
H45_40 H 0.1007 0.0073 0.1659
C71_40 C 0.11214(13) 0.02925(12) 0.18473(12)
H46_40 H 0.1027 0.0266 0.1959
C72_40 C 0.12702(12) 0.04519(13) 0.18645(12)
H47_40 H 0.1278 0.0537 0.1986
C73_40 C 0.14067(10) 0.04822(9) 0.16989(10)
C74_40 C 0.13923(9) 0.03496(8) 0.15259(8)
H48_40 H 0.1489 0.0367 0.1414
C75_40 C 0.15696(10) 0.06433(9) 0.17061(9)
N26_40 N 0.12494(7) 0.02001(7) 0.15114(7)
N27_40 N 0.17137(8) 0.06397(7) 0.15560(8)
C20_25 C 0.49874(9) 0.42504(12) 0.36991(12)
N8_25 N 0.50126(7) 0.40750(8) 0.37278(7)
S2_25 S 0.49509(4) 0.44984(4) 0.36570(7)
C57_25 C 0.38009(12) 0.49874(9) 0.32496(12)
C58_41 C 0.41707(11) 0.48240(10) 0.36136(12)
H37_41 H 0.4159 0.4927 0.3507
C59_41 C 0.43473(12) 0.47075(12) 0.36214(13)
H38_41 H 0.4459 0.4734 0.3527
C60_41 C 0.43645(12) 0.45481(13) 0.37702(12)
H39_41 H 0.4486 0.4463 0.3778
C61_41 C 0.41989(10) 0.45178(9) 0.39067(10)
C62_41 C 0.40259(8) 0.46504(8) 0.38923(9)
H40_41 H 0.3914 0.4633 0.3989
C63_41 C 0.42061(9) 0.43567(9) 0.40696(10)
N21_25 N 0.37722(7) 0.50126(7) 0.34250(8)
N22_21 N 0.40114(7) 0.47999(7) 0.37494(7)
N23_41 N 0.40560(8) 0.43603(7) 0.42137(8)
S3_25 S 0.38430(7) 0.49509(4) 0.30016(4)
C64_41 C 0.48240(10) 0.36136(12) 0.41707(11)
H41_41 H 0.4927 0.3507 0.4159
C65_41 C 0.47075(12) 0.36214(13) 0.43473(12)
H42_41 H 0.4734 0.3527 0.4459
C66_41 C 0.45481(13) 0.37702(12) 0.43645(12)
H43_41 H 0.4463 0.3778 0.4486
C67_41 C 0.45178(9) 0.39067(10) 0.41989(10)
C68_41 C 0.46504(8) 0.38923(9) 0.40259(8)
H44_41 H 0.4633 0.3989 0.3914
C69_41 C 0.43567(9) 0.40696(10) 0.42061(9)
N24_21 N 0.47999(7) 0.37494(7) 0.40114(7)
N25_41 N 0.43603(7) 0.42137(8) 0.40560(8)
C70_41 C 0.36136(12) 0.41707(11) 0.48240(10)
H45_41 H 0.3507 0.4159 0.4927
C71_41 C 0.36214(13) 0.43473(12) 0.47075(12)
H46_41 H 0.3527 0.4459 0.4734
C72_41 C 0.37702(12) 0.43645(12) 0.45481(13)
H47_41 H 0.3778 0.4486 0.4463
C73_41 C 0.39067(10) 0.41989(10) 0.45178(9)
C74_41 C 0.38923(9) 0.40259(8) 0.46504(8)
H48_41 H 0.3989 0.3914 0.4633
C75_41 C 0.40696(10) 0.42061(9) 0.43567(9)
N26_41 N 0.37494(7) 0.40114(7) 0.47999(7)
N27_41 N 0.42137(8) 0.40560(8) 0.43603(7)
C152_25 C 0.49874(9) 0.32496(12) 0.38009(12)
N56_25 N 0.50126(7) 0.34250(8) 0.37722(7)
S8_25 S 0.49509(4) 0.30016(4) 0.38430(7)
C153_25 C 0.36991(12) 0.49874(9) 0.42504(12)
N57_25 N 0.37278(7) 0.50126(7) 0.40750(8)
S9_25 S 0.36570(7) 0.49509(4) 0.44984(4)
C20_26 C 0.25126(9) 0.82496(12) 0.86991(12)
N8_26 N 0.24874(7) 0.84250(8) 0.87278(7)
S2_26 S 0.25491(4) 0.80016(4) 0.86570(7)
C57_26 C 0.36991(12) 0.75126(9) 0.82496(12)
C58_42 C 0.33293(11) 0.76760(10) 0.86136(12)
H37_42 H 0.3341 0.7573 0.8507
C59_42 C 0.31527(12) 0.77925(12) 0.86214(13)
H38_42 H 0.3041 0.7766 0.8527
C60_42 C 0.31355(12) 0.79519(13) 0.87702(12)
H39_42 H 0.3014 0.8037 0.8778
C61_42 C 0.33011(10) 0.79822(9) 0.89067(10)
C62_42 C 0.34741(8) 0.78496(8) 0.88923(9)
H40_42 H 0.3586 0.7867 0.8989
C63_42 C 0.32939(9) 0.81433(9) 0.90696(10)
N21_26 N 0.37278(7) 0.74874(7) 0.84250(8)
N22_22 N 0.34886(7) 0.77001(7) 0.87494(7)
N23_42 N 0.34440(8) 0.81397(7) 0.92137(8)
S3_26 S 0.36570(7) 0.75491(4) 0.80016(4)
C64_42 C 0.26760(10) 0.88864(12) 0.91707(11)
H41_42 H 0.2573 0.8993 0.9159
C65_42 C 0.27925(12) 0.88786(13) 0.93473(12)
H42_42 H 0.2766 0.8973 0.9459
C66_42 C 0.29519(13) 0.87298(12) 0.93645(12)
H43_42 H 0.3037 0.8722 0.9486
C67_42 C 0.29822(9) 0.85933(10) 0.91989(10)
C68_42 C 0.28496(8) 0.86077(9) 0.90259(8)
H44_42 H 0.2867 0.8511 0.8914
C69_42 C 0.31433(9) 0.84304(10) 0.92061(9)
N24_22 N 0.27001(7) 0.87506(7) 0.90114(7)
N25_42 N 0.31397(7) 0.82863(8) 0.90560(8)
C70_42 C 0.38864(12) 0.83293(11) 0.98240(10)
H45_42 H 0.3993 0.8341 0.9927
C71_42 C 0.38786(13) 0.81527(12) 0.97075(12)
H46_42 H 0.3973 0.8041 0.9734
C72_42 C 0.37298(12) 0.81355(12) 0.95481(13)
H47_42 H 0.3722 0.8014 0.9463
C73_42 C 0.35933(10) 0.83011(10) 0.95178(9)
C74_42 C 0.36077(9) 0.84741(8) 0.96504(8)
H48_42 H 0.3511 0.8586 0.9633
C75_42 C 0.34304(10) 0.82939(9) 0.93567(9)
N26_42 N 0.37506(7) 0.84886(7) 0.97999(7)
N27_42 N 0.32863(8) 0.84440(8) 0.93603(7)
C152_26 C 0.25126(9) 0.92504(12) 0.88009(12)
N56_26 N 0.24874(7) 0.90750(8) 0.87722(7)
S8_26 S 0.25491(4) 0.94984(4) 0.88430(7)
C153_26 C 0.38009(12) 0.75126(9) 0.92504(12)
N57_26 N 0.37722(7) 0.74874(7) 0.90750(8)
S9_26 S 0.38430(7) 0.75491(4) 0.94984(4)
N21_27 N 0.87278(7) 0.00126(7) 0.40750(8)
N57_27 N 0.87722(7) 0.00126(7) 0.34250(8)
C20_27 C 0.75126(9) 0.92504(12) 0.38009(12)
N8_27 N 0.74874(7) 0.90750(8) 0.37722(7)
S2_27 S 0.75491(4) 0.94984(4) 0.38430(7)
C57_27 C 0.86991(12) 0.99874(9) 0.42504(12)
C58_43 C 0.83293(11) 0.98240(10) 0.38864(12)
H37_43 H 0.8341 0.9927 0.3993
C59_43 C 0.81527(12) 0.97075(12) 0.38786(13)
H38_43 H 0.8041 0.9734 0.3973
C60_43 C 0.81355(12) 0.95481(13) 0.37298(12)
H39_43 H 0.8014 0.9463 0.3722
C61_43 C 0.83011(10) 0.95178(9) 0.35933(10)
C62_43 C 0.84741(8) 0.96504(8) 0.36077(9)
H40_43 H 0.8586 0.9633 0.3511
C63_43 C 0.82939(9) 0.93567(9) 0.34304(10)
N22_23 N 0.84886(7) 0.97999(7) 0.37506(7)
N23_43 N 0.84440(8) 0.93603(7) 0.32863(8)
S3_27 S 0.86570(7) 0.99509(4) 0.44984(4)
C64_43 C 0.76760(10) 0.86136(12) 0.33293(11)
H41_43 H 0.7573 0.8507 0.3341
C65_43 C 0.77925(12) 0.86214(13) 0.31527(12)
H42_43 H 0.7766 0.8527 0.3041
C66_43 C 0.79519(13) 0.87702(12) 0.31355(12)
H43_43 H 0.8037 0.8778 0.3014
C67_43 C 0.79822(9) 0.89067(10) 0.33011(10)
C68_43 C 0.78496(8) 0.88923(9) 0.34741(8)
H44_43 H 0.7867 0.8989 0.3586
C69_43 C 0.81433(9) 0.90696(10) 0.32939(9)
N24_23 N 0.77001(7) 0.87494(7) 0.34886(7)
N25_43 N 0.81397(7) 0.92137(8) 0.34440(8)
C70_43 C 0.88864(12) 0.91707(11) 0.26760(10)
H45_43 H 0.8993 0.9159 0.2573
C71_43 C 0.88786(13) 0.93473(12) 0.27925(12)
H46_43 H 0.8973 0.9459 0.2766
C72_43 C 0.87298(12) 0.93645(12) 0.29519(13)
H47_43 H 0.8722 0.9486 0.3037
C73_43 C 0.85933(10) 0.91989(10) 0.29822(9)
C74_43 C 0.86077(9) 0.90259(8) 0.28496(8)
H48_43 H 0.8511 0.8914 0.2867
C75_43 C 0.84304(10) 0.92061(9) 0.31433(9)
N26_43 N 0.87506(7) 0.90114(7) 0.27001(7)
N27_43 N 0.82863(8) 0.90560(8) 0.31397(7)
C152_27 C 0.75126(9) 0.82496(12) 0.36991(12)
N56_27 N 0.74874(7) 0.84250(8) 0.37278(7)
S8_27 S 0.75491(4) 0.80016(4) 0.36570(7)
C153_27 C 0.88009(12) 0.99874(9) 0.32496(12)
S9_27 S 0.88430(7) 0.99509(4) 0.30016(4)
N8_28 N 0.00126(7) 0.34250(8) 0.87722(7)
N56_28 N 0.00126(7) 0.40750(8) 0.87278(7)
C20_28 C 0.99874(9) 0.32496(12) 0.88009(12)
S2_28 S 0.99509(4) 0.30016(4) 0.88430(7)
C57_28 C 0.88009(12) 0.25126(9) 0.92504(12)
C58_44 C 0.91707(11) 0.26760(10) 0.88864(12)
H37_44 H 0.9159 0.2573 0.8993
C59_44 C 0.93473(12) 0.27925(12) 0.88786(13)
H38_44 H 0.9459 0.2766 0.8973
C60_44 C 0.93645(12) 0.29519(13) 0.87298(12)
H39_44 H 0.9486 0.3037 0.8722
C61_44 C 0.91989(10) 0.29822(9) 0.85933(10)
C62_44 C 0.90259(8) 0.28496(8) 0.86077(9)
H40_44 H 0.8914 0.2867 0.8511
C63_44 C 0.92061(9) 0.31433(9) 0.84304(10)
N21_28 N 0.87722(7) 0.24874(7) 0.90750(8)
N22_24 N 0.90114(7) 0.27001(7) 0.87506(7)
N23_44 N 0.90560(8) 0.31397(7) 0.82863(8)
S3_28 S 0.88430(7) 0.25491(4) 0.94984(4)
C64_44 C 0.98240(10) 0.38864(12) 0.83293(11)
H41_44 H 0.9927 0.3993 0.8341
C65_44 C 0.97075(12) 0.38786(13) 0.81527(12)
H42_44 H 0.9734 0.3973 0.8041
C66_44 C 0.95481(13) 0.37298(12) 0.81355(12)
H43_44 H 0.9463 0.3722 0.8014
C67_44 C 0.95178(9) 0.35933(10) 0.83011(10)
C68_44 C 0.96504(8) 0.36077(9) 0.84741(8)
H44_44 H 0.9633 0.3511 0.8586
C69_44 C 0.93567(9) 0.34304(10) 0.82939(9)
N24_24 N 0.97999(7) 0.37506(7) 0.84886(7)
N25_44 N 0.93603(7) 0.32863(8) 0.84440(8)
C70_44 C 0.86136(12) 0.33293(11) 0.76760(10)
H45_44 H 0.8507 0.3341 0.7573
C71_44 C 0.86214(13) 0.31527(12) 0.77925(12)
H46_44 H 0.8527 0.3041 0.7766
C72_44 C 0.87702(12) 0.31355(12) 0.79519(13)
H47_44 H 0.8778 0.3014 0.8037
C73_44 C 0.89067(10) 0.33011(10) 0.79822(9)
C74_44 C 0.88923(9) 0.34741(8) 0.78496(8)
H48_44 H 0.8989 0.3586 0.7867
C75_44 C 0.90696(10) 0.32939(9) 0.81433(9)
N26_44 N 0.87494(7) 0.34886(7) 0.77001(7)
N27_44 N 0.92137(8) 0.34440(8) 0.81397(7)
C152_28 C 0.99874(9) 0.42504(12) 0.86991(12)
S8_28 S 0.99509(4) 0.44984(4) 0.86570(7)
C153_28 C 0.86991(12) 0.25126(9) 0.82496(12)
N57_28 N 0.87278(7) 0.24874(7) 0.84250(8)
S9_28 S 0.86570(7) 0.25491(4) 0.80016(4)
C57_29 C 0.24874(9) 0.63009(12) 0.67504(12)
N21_29 N 0.25126(7) 0.62722(7) 0.65750(8)
S3_29 S 0.24509(4) 0.63430(7) 0.69984(4)
C94_25 C 0.13009(12) 0.67504(12) 0.74874(9)
N34_25 N 0.12722(7) 0.65750(8) 0.75126(7)
S4_25 S 0.13430(7) 0.69984(4) 0.74509(4)
C113_25 C 0.11991(12) 0.57496(12) 0.74874(9)
N41_25 N 0.12278(7) 0.59250(8) 0.75126(7)
S5_25 S 0.11570(7) 0.55016(4) 0.74509(4)
C153_29 C 0.24874(9) 0.61991(12) 0.57496(12)
N57_29 N 0.25126(7) 0.62278(7) 0.59250(8)
S9_29 S 0.24509(4) 0.61570(7) 0.55016(4)
N70_21 N 0.15114(7) 0.62506(7) 0.72999(7)
N71_21 N 0.22999(7) 0.59886(7) 0.62494(7)
C57_30 C 0.50126(9) 0.61991(12) 0.17504(12)
N21_30 N 0.49874(7) 0.62278(7) 0.15750(8)
S3_30 S 0.50491(4) 0.61570(7) 0.19984(4)
C94_26 C 0.61991(12) 0.57496(12) 0.24874(9)
N34_26 N 0.62278(7) 0.59250(8) 0.25126(7)
S4_26 S 0.61570(7) 0.55016(4) 0.24509(4)
C113_26 C 0.63009(12) 0.67504(12) 0.24874(9)
N41_26 N 0.62722(7) 0.65750(8) 0.25126(7)
S5_26 S 0.63430(7) 0.69984(4) 0.24509(4)
C153_30 C 0.50126(9) 0.63009(12) 0.07496(12)
N57_30 N 0.49874(7) 0.62722(7) 0.09250(8)
S9_30 S 0.50491(4) 0.63430(7) 0.05016(4)
N70_22 N 0.59886(7) 0.62494(7) 0.22999(7)
N71_22 N 0.52001(7) 0.65114(7) 0.12494(7)
C57_31 C 0.74874(9) 0.11991(12) 0.57496(12)
N21_31 N 0.75126(7) 0.12278(7) 0.59250(8)
S3_31 S 0.74509(4) 0.11570(7) 0.55016(4)
C94_27 C 0.63009(12) 0.07496(12) 0.50126(9)
N34_27 N 0.62722(7) 0.09250(8) 0.49874(7)
S4_27 S 0.63430(7) 0.05016(4) 0.50491(4)
C113_27 C 0.61991(12) 0.17504(12) 0.50126(9)
N41_27 N 0.62278(7) 0.15750(8) 0.49874(7)
S5_27 S 0.61570(7) 0.19984(4) 0.50491(4)
C153_31 C 0.74874(9) 0.13009(12) 0.67504(12)
N57_31 N 0.75126(7) 0.12722(7) 0.65750(8)
S9_31 S 0.74509(4) 0.13430(7) 0.69984(4)
N70_23 N 0.65114(7) 0.12494(7) 0.52001(7)
N71_23 N 0.72999(7) 0.15114(7) 0.62506(7)
C57_32 C 0.00126(9) 0.13009(12) 0.07496(12)
S3_32 S 0.00491(4) 0.13430(7) 0.05016(4)
C94_28 C 0.11991(12) 0.17504(12) 0.00126(9)
S4_28 S 0.11570(7) 0.19984(4) 0.00491(4)
C113_28 C 0.13009(12) 0.07496(12) 0.00126(9)
S5_28 S 0.13430(7) 0.05016(4) 0.00491(4)
C153_32 C 0.00126(9) 0.11991(12) 0.17504(12)
S9_32 S 0.00491(4) 0.11570(7) 0.19984(4)
N70_24 N 0.09886(7) 0.12506(7) 0.02001(7)
N71_24 N 0.02001(7) 0.09886(7) 0.12506(7)
N34_28 N 0.12278(7) 0.15750(8) 0.99874(7)
N41_28 N 0.12722(7) 0.09250(8) 0.99874(7)
N21_32 N 0.99874(7) 0.12722(7) 0.09250(8)
N57_32 N 0.99874(7) 0.12278(7) 0.15750(8)
C58_45 C 0.66707(11) 0.11136(12) 0.51760(10)
H37_45 H 0.6659 0.1007 0.5073
C59_45 C 0.68473(12) 0.11214(13) 0.52925(12)
H38_45 H 0.6959 0.1027 0.5266
C60_45 C 0.68645(12) 0.12702(12) 0.54519(13)
H39_45 H 0.6986 0.1278 0.5537
C61_45 C 0.66989(10) 0.14067(10) 0.54822(9)
C62_45 C 0.65259(8) 0.13923(9) 0.53496(8)
H40_45 H 0.6414 0.1489 0.5367
C63_45 C 0.67061(9) 0.15696(10) 0.56433(9)
N23_45 N 0.65560(8) 0.17137(8) 0.56397(7)
C64_45 C 0.73240(10) 0.16707(11) 0.63864(12)
H41_45 H 0.7427 0.1659 0.6493
C65_45 C 0.72075(12) 0.18473(12) 0.63786(13)
H42_45 H 0.7234 0.1959 0.6473
C66_45 C 0.70481(13) 0.18645(12) 0.62298(12)
H43_45 H 0.6963 0.1986 0.6222
C67_45 C 0.70178(9) 0.16989(10) 0.60933(10)
C68_45 C 0.71504(8) 0.15259(8) 0.61077(9)
H44_45 H 0.7133 0.1414 0.6011
C69_45 C 0.68567(9) 0.17061(9) 0.59304(10)
N25_45 N 0.68603(7) 0.15560(8) 0.57863(8)
C70_45 C 0.61136(12) 0.23240(10) 0.58293(11)
H45_45 H 0.6007 0.2427 0.5841
C71_45 C 0.61214(13) 0.22075(12) 0.56527(12)
H46_45 H 0.6027 0.2234 0.5541
C72_45 C 0.62702(12) 0.20481(13) 0.56355(12)
H47_45 H 0.6278 0.1963 0.5514
C73_45 C 0.64067(10) 0.20178(9) 0.58011(10)
C74_45 C 0.63923(9) 0.21504(8) 0.59741(8)
H48_45 H 0.6489 0.2133 0.6086
C75_45 C 0.65696(10) 0.18567(9) 0.57939(9)
N26_45 N 0.62494(7) 0.22999(7) 0.59886(7)
N27_45 N 0.67137(8) 0.18603(7) 0.59440(8)
C58_46 C 0.58293(11) 0.61136(12) 0.23240(10)
H37_46 H 0.5841 0.6007 0.2427
C59_46 C 0.56527(12) 0.61214(13) 0.22075(12)
H38_46 H 0.5541 0.6027 0.2234
C60_46 C 0.56355(12) 0.62702(12) 0.20481(13)
H39_46 H 0.5514 0.6278 0.1963
C61_46 C 0.58011(10) 0.64067(10) 0.20178(9)
C62_46 C 0.59741(8) 0.63923(9) 0.21504(8)
H40_46 H 0.6086 0.6489 0.2133
C63_46 C 0.57939(9) 0.65696(10) 0.18567(9)
N23_46 N 0.59440(8) 0.67137(8) 0.18603(7)
C64_46 C 0.51760(10) 0.66707(11) 0.11136(12)
H41_46 H 0.5073 0.6659 0.1007
C65_46 C 0.52925(12) 0.68473(12) 0.11214(13)
H42_46 H 0.5266 0.6959 0.1027
C66_46 C 0.54519(13) 0.68645(12) 0.12702(12)
H43_46 H 0.5537 0.6986 0.1278
C67_46 C 0.54822(9) 0.66989(10) 0.14067(10)
C68_46 C 0.53496(8) 0.65259(8) 0.13923(9)
H44_46 H 0.5367 0.6414 0.1489
C69_46 C 0.56433(9) 0.67061(9) 0.15696(10)
N25_46 N 0.56397(7) 0.65560(8) 0.17137(8)
C70_46 C 0.63864(12) 0.73240(10) 0.16707(11)
H45_46 H 0.6493 0.7427 0.1659
C71_46 C 0.63786(13) 0.72075(12) 0.18473(12)
H46_46 H 0.6473 0.7234 0.1959
C72_46 C 0.62298(12) 0.70481(13) 0.18645(12)
H47_46 H 0.6222 0.6963 0.1986
C73_46 C 0.60933(10) 0.70178(9) 0.16989(10)
C74_46 C 0.61077(9) 0.71504(8) 0.15259(8)
H48_46 H 0.6011 0.7133 0.1414
C75_46 C 0.59304(10) 0.68567(9) 0.17061(9)
N26_46 N 0.62506(7) 0.72999(7) 0.15114(7)
N27_46 N 0.57863(8) 0.68603(7) 0.15560(8)
C58_47 C 0.08293(11) 0.13864(12) 0.01760(10)
H37_47 H 0.0841 0.1493 0.0073
C59_47 C 0.06527(12) 0.13786(13) 0.02925(12)
H38_47 H 0.0541 0.1473 0.0266
C60_47 C 0.06355(12) 0.12298(12) 0.04519(13)
H39_47 H 0.0514 0.1222 0.0537
C61_47 C 0.08011(10) 0.10933(10) 0.04822(9)
C62_47 C 0.09741(8) 0.11077(9) 0.03496(8)
H40_47 H 0.1086 0.1011 0.0367
C63_47 C 0.07939(9) 0.09304(10) 0.06433(9)
N23_47 N 0.09440(8) 0.07863(8) 0.06397(7)
C64_47 C 0.01760(10) 0.08293(11) 0.13864(12)
H41_47 H 0.0073 0.0841 0.1493
C65_47 C 0.02925(12) 0.06527(12) 0.13786(13)
H42_47 H 0.0266 0.0541 0.1473
C66_47 C 0.04519(13) 0.06355(12) 0.12298(12)
H43_47 H 0.0537 0.0514 0.1222
C67_47 C 0.04822(9) 0.08011(10) 0.10933(10)
C68_47 C 0.03496(8) 0.09741(8) 0.11077(9)
H44_47 H 0.0367 0.1086 0.1011
C69_47 C 0.06433(9) 0.07939(9) 0.09304(10)
N25_47 N 0.06397(7) 0.09440(8) 0.07863(8)
C70_47 C 0.13864(12) 0.01760(10) 0.08293(11)
H45_47 H 0.1493 0.0073 0.0841
C71_47 C 0.13786(13) 0.02925(12) 0.06527(12)
H46_47 H 0.1473 0.0266 0.0541
C72_47 C 0.12298(12) 0.04519(13) 0.06355(12)
H47_47 H 0.1222 0.0537 0.0514
C73_47 C 0.10933(10) 0.04822(9) 0.08011(10)
C74_47 C 0.11077(9) 0.03496(8) 0.09741(8)
H48_47 H 0.1011 0.0367 0.1086
C75_47 C 0.09304(10) 0.06433(9) 0.07939(9)
N26_47 N 0.12506(7) 0.02001(7) 0.09886(7)
N27_47 N 0.07863(8) 0.06397(7) 0.09440(8)
C58_48 C 0.16707(11) 0.63864(12) 0.73240(10)
H37_48 H 0.1659 0.6493 0.7427
C59_48 C 0.18473(12) 0.63786(13) 0.72075(12)
H38_48 H 0.1959 0.6473 0.7234
C60_48 C 0.18645(12) 0.62298(12) 0.70481(13)
H39_48 H 0.1986 0.6222 0.6963
C61_48 C 0.16989(10) 0.60933(10) 0.70178(9)
C62_48 C 0.15259(8) 0.61077(9) 0.71504(8)
H40_48 H 0.1414 0.6011 0.7133
C63_48 C 0.17061(9) 0.59304(10) 0.68567(9)
N23_48 N 0.15560(8) 0.57863(8) 0.68603(7)
C64_48 C 0.23240(10) 0.58293(11) 0.61136(12)
H41_48 H 0.2427 0.5841 0.6007
C65_48 C 0.22075(12) 0.56527(12) 0.61214(13)
H42_48 H 0.2234 0.5541 0.6027
C66_48 C 0.20481(13) 0.56355(12) 0.62702(12)
H43_48 H 0.1963 0.5514 0.6278
C67_48 C 0.20178(9) 0.58011(10) 0.64067(10)
C68_48 C 0.21504(8) 0.59741(8) 0.63923(9)
H44_48 H 0.2133 0.6086 0.6489
C69_48 C 0.18567(9) 0.57939(9) 0.65696(10)
N25_48 N 0.18603(7) 0.59440(8) 0.67137(8)
C70_48 C 0.11136(12) 0.51760(10) 0.66707(11)
H45_48 H 0.1007 0.5073 0.6659
C71_48 C 0.11214(13) 0.52925(12) 0.68473(12)
H46_48 H 0.1027 0.5266 0.6959
C72_48 C 0.12702(12) 0.54519(13) 0.68645(12)
H47_48 H 0.1278 0.5537 0.6986
C73_48 C 0.14067(10) 0.54822(9) 0.66989(10)
C74_48 C 0.13923(9) 0.53496(8) 0.65259(8)
H48_48 H 0.1489 0.5367 0.6414
C75_48 C 0.15696(10) 0.56433(9) 0.67061(9)
N26_48 N 0.12494(7) 0.52001(7) 0.65114(7)
N27_48 N 0.17137(8) 0.56397(7) 0.65560(8)
C94_29 C 0.92504(12) 0.88009(12) 0.25126(9)
N34_29 N 0.90750(8) 0.87722(7) 0.24874(7)
S4_29 S 0.94984(4) 0.88430(7) 0.25491(4)
C113_29 C 0.82496(12) 0.86991(12) 0.25126(9)
N41_29 N 0.84250(8) 0.87278(7) 0.24874(7)
S5_29 S 0.80016(4) 0.86570(7) 0.25491(4)
C94_30 C 0.82496(12) 0.36991(12) 0.75126(9)
N34_30 N 0.84250(8) 0.37278(7) 0.74874(7)
S4_30 S 0.80016(4) 0.36570(7) 0.75491(4)
C113_30 C 0.92504(12) 0.38009(12) 0.75126(9)
N41_30 N 0.90750(8) 0.37722(7) 0.74874(7)
S5_30 S 0.94984(4) 0.38430(7) 0.75491(4)
C94_31 C 0.32496(12) 0.38009(12) 0.49874(9)
N34_31 N 0.34250(8) 0.37722(7) 0.50126(7)
S4_31 S 0.30016(4) 0.38430(7) 0.49509(4)
C113_31 C 0.42504(12) 0.36991(12) 0.49874(9)
N41_31 N 0.40750(8) 0.37278(7) 0.50126(7)
S5_31 S 0.44984(4) 0.36570(7) 0.49509(4)
N34_32 N 0.40750(8) 0.87278(7) 0.00126(7)
N41_32 N 0.34250(8) 0.87722(7) 0.00126(7)
C94_32 C 0.42504(12) 0.86991(12) 0.99874(9)
S4_32 S 0.44984(4) 0.86570(7) 0.99509(4)
C113_32 C 0.32496(12) 0.88009(12) 0.99874(9)
S5_32 S 0.30016(4) 0.88430(7) 0.99509(4)
C20_29 C 0.67504(12) 0.24874(9) 0.63009(12)
N8_29 N 0.65750(8) 0.25126(7) 0.62722(7)
S2_29 S 0.69984(4) 0.24509(4) 0.63430(7)
C152_29 C 0.57496(12) 0.24874(9) 0.61991(12)
N56_29 N 0.59250(8) 0.25126(7) 0.62278(7)
S8_29 S 0.55016(4) 0.24509(4) 0.61570(7)
C20_30 C 0.07496(12) 0.00126(9) 0.13009(12)
S2_30 S 0.05016(4) 0.00491(4) 0.13430(7)
C152_30 C 0.17504(12) 0.00126(9) 0.11991(12)
S8_30 S 0.19984(4) 0.00491(4) 0.11570(7)
N8_30 N 0.09250(8) 0.99874(7) 0.12722(7)
N56_30 N 0.15750(8) 0.99874(7) 0.12278(7)
C20_31 C 0.17504(12) 0.50126(9) 0.61991(12)
N8_31 N 0.15750(8) 0.49874(7) 0.62278(7)
S2_31 S 0.19984(4) 0.50491(4) 0.61570(7)
C152_31 C 0.07496(12) 0.50126(9) 0.63009(12)
N56_31 N 0.09250(8) 0.49874(7) 0.62722(7)
S8_31 S 0.05016(4) 0.50491(4) 0.63430(7)
C20_32 C 0.57496(12) 0.74874(9) 0.11991(12)
N8_32 N 0.59250(8) 0.75126(7) 0.12278(7)
S2_32 S 0.55016(4) 0.74509(4) 0.11570(7)
C152_32 C 0.67504(12) 0.74874(9) 0.13009(12)
N56_32 N 0.65750(8) 0.75126(7) 0.12722(7)
S8_32 S 0.69984(4) 0.74509(4) 0.13430(7)
loop_
_geom_bond_atom_site_label_1
_geom_bond_atom_site_label_2
_geom_bond_site_symmetry_1
_geom_bond_site_symmetry_2
C1 H1 1_555 1_555
C2 C1 1_555 1_555
C3 C2 1_555 1_555
H2 C3 1_555 1_555
C4 C3 1_555 1_555
H3 C4 1_555 1_555
C5 C4 1_555 1_555
H4 C5 1_555 1_555
C7 H5 1_555 1_555
C8 C7 1_555 1_555
H6 C8 1_555 1_555
C9 C8 1_555 1_555
H7 C9 1_555 1_555
C10 C9 1_555 1_555
C11 C10 1_555 1_555
H8 C11 1_555 1_555
C12 C10 1_555 1_555
C13 C2 1_555 1_555
C14 C16 1_555 1_555
C15 H9 1_555 1_555
C16 C15 1_555 1_555
C17 C16 1_555 1_555
H10 C17 1_555 1_555
C18 C17 1_555 1_555
H11 C18 1_555 1_555
C19 C18 1_555 1_555
H12 C19 1_555 1_555
C20 N8 1_555 1_555
C21 H13 1_555 1_555
C22 C21 1_555 1_555
H14 C22 1_555 1_555
C23 C22 1_555 1_555
H15 C23 1_555 1_555
C24 C23 1_555 1_555
C25 C24 1_555 1_555
H16 C25 1_555 1_555
C26 C24 1_555 1_555
Co2 N7 1_555 1_555
N1 C1 1_555 1_555
N3 C7 1_555 1_555
N4 C12 1_555 1_555
N5 C12 1_555 1_555
N6 C13 1_555 1_555
N7 C15 1_555 1_555
N8 Co2 1_555 1_555
N9 C21 1_555 1_555
N10 C26 1_555 1_555
S2 C20 1_555 1_555
C27 H17 1_555 1_555
C28 C27 1_555 1_555
H18 C28 1_555 1_555
C29 C28 1_555 1_555
H19 C29 1_555 1_555
C30 C29 1_555 1_555
C31 C30 1_555 1_555
H20 C31 1_555 1_555
C32 C30 1_555 1_555
N11 C27 1_555 1_555
N12 C26 1_555 1_555
C33 H21 1_555 1_555
C34 C33 1_555 1_555
H22 C34 1_555 1_555
C35 C34 1_555 1_555
H23 C35 1_555 1_555
C36 C35 1_555 1_555
C37 C36 1_555 1_555
H24 C37 1_555 1_555
C38 N10 1_555 1_555
N13 C33 1_555 1_555
N14 C32 1_555 1_555
C58 H37 1_555 1_555
C59 C58 1_555 1_555
H38 C59 1_555 1_555
C60 C59 1_555 1_555
H39 C60 1_555 1_555
C61 C60 1_555 1_555
C62 C61 1_555 1_555
H40 C62 1_555 1_555
C63 C61 1_555 1_555
N22 C58 1_555 1_555
N23 C63 1_555 1_555
S3 C57 1_555 1_555
C64 H41 1_555 1_555
C65 C64 1_555 1_555
H42 C65 1_555 1_555
C66 C65 1_555 1_555
H43 C66 1_555 1_555
C67 C66 1_555 1_555
C68 C67 1_555 1_555
H44 C68 1_555 1_555
C69 C67 1_555 1_555
N24 Co2 1_555 1_555
N25 C63 1_555 1_555
C70 H45 1_555 1_555
C71 C70 1_555 1_555
H46 C71 1_555 1_555
C72 C71 1_555 1_555
H47 C72 1_555 1_555
C73 C72 1_555 1_555
C74 C73 1_555 1_555
H48 C74 1_555 1_555
C75 N23 1_555 1_555
N26 C70 1_555 1_555
N27 C69 1_555 1_555
C76 H49 1_555 1_555
C77 C76 1_555 1_555
C78 C77 1_555 1_555
H50 C78 1_555 1_555
C79 C78 1_555 1_555
H51 C79 1_555 1_555
C80 C79 1_555 1_555
H52 C80 1_555 1_555
C81 H53 1_555 1_555
C82 C81 1_555 1_555
H54 C82 1_555 1_555
C83 C82 1_555 1_555
H55 C83 1_555 1_555
C84 C83 1_555 1_555
C85 C84 1_555 1_555
H56 C85 1_555 1_555
C86 C84 1_555 1_555
C87 C77 1_555 1_555
C88 C90 1_555 1_555
C89 H57 1_555 1_555
C90 C89 1_555 1_555
C91 C90 1_555 1_555
H58 C91 1_555 1_555
C92 C91 1_555 1_555
H59 C92 1_555 1_555
C93 C92 1_555 1_555
H60 C93 1_555 1_555
C94 N34 1_555 1_555
Co4 N11 1_555 1_555
N28 C76 1_555 1_555
N29 C81 1_555 1_555
N30 C86 1_555 1_555
N31 C86 1_555 1_555
N32 C87 1_555 1_555
N33 C89 1_555 1_555
N34 Co4 1_555 1_555
S4 C94 1_555 1_555
C95 H61 1_555 1_555
C96 C95 1_555 1_555
C97 C96 1_555 1_555
H62 C97 1_555 1_555
C98 C97 1_555 1_555
H63 C98 1_555 1_555
C99 C98 1_555 1_555
H64 C99 1_555 1_555
C100 H65 1_555 1_555
C101 C100 1_555 1_555
H66 C101 1_555 1_555
C102 C101 1_555 1_555
H67 C102 1_555 1_555
C103 C102 1_555 1_555
C104 C103 1_555 1_555
H68 C104 1_555 1_555
C105 C103 1_555 1_555
C106 C96 1_555 1_555
C107 C109 1_555 1_555
C108 H69 1_555 1_555
C109 C108 1_555 1_555
C110 C109 1_555 1_555
H70 C110 1_555 1_555
C111 C110 1_555 1_555
H71 C111 1_555 1_555
C112 C111 1_555 1_555
H72 C112 1_555 1_555
C113 N41 1_555 1_555
N35 C95 1_555 1_555
N36 C100 1_555 1_555
N37 C105 1_555 1_555
N38 C105 1_555 1_555
N39 C106 1_555 1_555
N40 Co4 1_555 1_555
N41 Co4 1_555 1_555
S5 C113 1_555 1_555
C133 H85 1_555 1_555
C134 C133 1_555 1_555
C135 C134 1_555 1_555
H86 C135 1_555 1_555
C136 C135 1_555 1_555
H87 C136 1_555 1_555
C137 C136 1_555 1_555
C138 H89 1_555 1_555
C139 C138 1_555 1_555
H90 C139 1_555 1_555
C140 C139 1_555 1_555
H91 C140 1_555 1_555
C141 C140 1_555 1_555
C142 C141 1_555 1_555
H92 C142 1_555 1_555
C143 C141 1_555 1_555
C144 C134 1_555 1_555
C145 C147 1_555 1_555
C146 H93 1_555 1_555
C147 C146 1_555 1_555
C148 C147 1_555 1_555
H94 C148 1_555 1_555
C149 C148 1_555 1_555
H95 C149 1_555 1_555
C150 C149 1_555 1_555
H96 C150 1_555 1_555
N49 Co1 1_555 1_555
N50 C138 1_555 1_555
N51 C143 1_555 1_555
N52 C143 1_555 1_555
N53 C144 1_555 1_555
N54 C146 1_555 1_555
C151 N55 1_555 1_555
N55 Co1 1_555 1_555
S7 C151 1_555 1_555
C152 N56 1_555 1_555
N56 Co2 1_555 1_555
S8 C152 1_555 1_555
S9 C153 1_555 1_555
Co6 N1 1_555 1_555
C155 N59 1_555 1_555
N59 Co6 1_555 1_555
S11 C155 1_555 1_555
C156 N60 1_555 1_555
N60 Co6 1_555 1_555
S12 C156 1_555 1_555
Co8 N29 1_555 1_555
Co9 N36 1_555 1_555
Co11 N35 1_555 1_555
Co12 N50 1_555 1_555
Co13 N28 1_555 1_555
Co14 N13 1_555 1_555
Co17 N54 1_555 1_555
N61 Co6 1_555 1_555
N65 Co6 1_555 1_555
N67 Co6 1_555 1_555
N68 Co2 1_555 1_555
N70 Co4 1_555 1_555
C5 N1 1_555 1_555
C11 N3 1_555 1_555
C13 N5 1_555 1_555
C14 N4 1_555 1_555
C14 N6 1_555 1_555
C19 N7 1_555 1_555
C25 N9 1_555 1_555
Co1 N3 1_555 1_555
Co2 N9 1_555 1_555
C31 N11 1_555 1_555
C32 N12 1_555 1_555
C36 C38 1_555 1_555
C37 N13 1_555 1_555
C38 N14 1_555 1_555
C62 N22 1_555 1_555
C64 N24 1_555 1_555
C68 N24 1_555 1_555
C69 N25 1_555 1_555
C73 C75 1_555 1_555
C74 N26 1_555 1_555
C75 N27 1_555 1_555
C80 N28 1_555 1_555
C85 N29 1_555 1_555
C87 N31 1_555 1_555
C88 N30 1_555 1_555
C88 N32 1_555 1_555
C93 N33 1_555 1_555
Co4 N33 1_555 1_555
C99 N35 1_555 1_555
C104 N36 1_555 1_555
C106 N38 1_555 1_555
C107 N37 1_555 1_555
C107 N39 1_555 1_555
C108 N40 1_555 1_555
C112 N40 1_555 1_555
C133 N49 1_555 1_555
C137 N49 1_555 1_555
C142 N50 1_555 1_555
C144 N52 1_555 1_555
C145 N51 1_555 1_555
C145 N53 1_555 1_555
C150 N54 1_555 1_555
C6 N2 1_555 1_555
Co1_2 N2 1_555 1_555
S1 C6 1_555 1_555
C114 H73 1_555 1_555
C115 C114 1_555 1_555
C116 C115 1_555 1_555
H74 C116 1_555 1_555
C117 C116 1_555 1_555
H75 C117 1_555 1_555
C118 C117 1_555 1_555
C119 N43 1_555 1_555
C120 H77 1_555 1_555
C121 C120 1_555 1_555
H78 C121 1_555 1_555
C122 C121 1_555 1_555
H79 C122 1_555 1_555
C123 C122 1_555 1_555
C124 C123 1_555 1_555
H80 C124 1_555 1_555
C125 C123 1_555 1_555
C126 C115 1_555 1_555
C127 C129 1_555 1_555
C128 H81 1_555 1_555
C129 C128 1_555 1_555
C130 C129 1_555 1_555
H82 C130 1_555 1_555
C131 C130 1_555 1_555
H83 C131 1_555 1_555
C132 C131 1_555 1_555
H84 C132 1_555 1_555
Co5 N43 1_555 1_555
N42 Co1_2 1_555 1_555
N44 C120 1_555 1_555
N45 C125 1_555 1_555
N46 C125 1_555 1_555
N47 C126 1_555 1_555
N48 C128 1_555 1_555
S6 C119 1_555 1_555
C154 N58 1_555 1_555
N58 Co5 1_555 1_555
S10 C154 1_555 1_555
Co16 N48 1_555 1_555
N62 Co5 1_555 1_555
N63 Co5 1_555 1_555
N64 Co1_2 1_555 1_555
N66 Co5 1_555 1_555
C114 N42 1_555 1_555
C118 N42 1_555 1_555
C124 N44 1_555 1_555
C126 N46 1_555 1_555
C127 N45 1_555 1_555
C127 N47 1_555 1_555
C132 N48 1_555 1_555
Co5 N44 1_555 1_555
C39 H25 1_555 1_555
C40 C39 1_555 1_555
C41 C40 1_555 1_555
H26 C41 1_555 1_555
C42 C41 1_555 1_555
H27 C42 1_555 1_555
C43 C42 1_555 1_555
C44 H29 1_555 1_555
C45 C44 1_555 1_555
H30 C45 1_555 1_555
C46 C45 1_555 1_555
H31 C46 1_555 1_555
C47 C46 1_555 1_555
C48 C47 1_555 1_555
H32 C48 1_555 1_555
C49 C47 1_555 1_555
C50 C40 1_555 1_555
C51 C53 1_555 1_555
C52 H33 1_555 1_555
C53 C52 1_555 1_555
C54 C53 1_555 1_555
H34 C54 1_555 1_555
C55 C54 1_555 1_555
H35 C55 1_555 1_555
C56 C55 1_555 1_555
H36 C56 1_555 1_555
Co3 N20 1_555 1_555
N15 C39 1_555 1_555
N16 C44 1_555 1_555
N17 C49 1_555 1_555
N18 C49 1_555 1_555
N19 C50 1_555 1_555
N20 C52 1_555 1_555
N21 Co3 1_555 1_555
N57 Co3 1_555 1_555
Co7 N16 1_555 1_555
Co10 N15 1_555 1_555
N69 Co3 1_555 1_555
C43 N15 1_555 1_555
C48 N16 1_555 1_555
C50 N18 1_555 1_555
C51 N17 1_555 1_555
C51 N19 1_555 1_555
C56 N20 1_555 1_555
C119_2 N43_2 1_555 1_555
Co5_2 N43_2 1_555 1_555
S6_2 C119_2 1_555 1_555
N62_2 Co5_2 1_555 1_555
N66_2 Co5_2 1_555 1_555
C1_2 H1_2 1_555 1_555
C2_2 C1_2 1_555 1_555
C3_2 C2_2 1_555 1_555
H2_2 C3_2 1_555 1_555
C4_2 C3_2 1_555 1_555
H3_2 C4_2 1_555 1_555
C5_2 C4_2 1_555 1_555
H4_2 C5_2 1_555 1_555
C6_2 N2_2 1_555 1_555
C7_2 H5_2 1_555 1_555
C8_2 C7_2 1_555 1_555
H6_2 C8_2 1_555 1_555
C9_2 C8_2 1_555 1_555
H7_2 C9_2 1_555 1_555
C10_2 C9_2 1_555 1_555
C11_2 C10_2 1_555 1_555
H8_2 C11_2 1_555 1_555
C12_2 C10_2 1_555 1_555
C13_2 C2_2 1_555 1_555
C14_2 C16_2 1_555 1_555
C15_2 H9_2 1_555 1_555
C16_2 C15_2 1_555 1_555
C17_2 C16_2 1_555 1_555
H10_2 C17_2 1_555 1_555
C18_2 C17_2 1_555 1_555
H11_2 C18_2 1_555 1_555
C19_2 C18_2 1_555 1_555
H12_2 C19_2 1_555 1_555
C20_2 N8_2 1_555 1_555
C21_2 H13_2 1_555 1_555
C22_2 C21_2 1_555 1_555
H14_2 C22_2 1_555 1_555
C23_2 C22_2 1_555 1_555
H15_2 C23_2 1_555 1_555
C24_2 C23_2 1_555 1_555
C25_2 C24_2 1_555 1_555
H16_2 C25_2 1_555 1_555
C26_2 C24_2 1_555 1_555
Co1_3 N2_2 1_555 1_555
Co2_2 N7_2 1_555 1_555
N1_2 C1_2 1_555 1_555
N3_2 C7_2 1_555 1_555
N4_2 C12_2 1_555 1_555
N5_2 C12_2 1_555 1_555
N6_2 C13_2 1_555 1_555
N7_2 C15_2 1_555 1_555
N8_2 Co2_2 1_555 1_555
N9_2 C21_2 1_555 1_555
N10_2 C26_2 1_555 1_555
S1_2 C6_2 1_555 1_555
S2_2 C20_2 1_555 1_555
C27_2 H17_2 1_555 1_555
C28_2 C27_2 1_555 1_555
H18_2 C28_2 1_555 1_555
C29_2 C28_2 1_555 1_555
H19_2 C29_2 1_555 1_555
C30_2 C29_2 1_555 1_555
C31_2 C30_2 1_555 1_555
H20_2 C31_2 1_555 1_555
C32_2 C30_2 1_555 1_555
N11_2 C27_2 1_555 1_555
N12_2 C26_2 1_555 1_555
C33_2 H21_2 1_555 1_555
C34_2 C33_2 1_555 1_555
H22_2 C34_2 1_555 1_555
C35_2 C34_2 1_555 1_555
H23_2 C35_2 1_555 1_555
C36_2 C35_2 1_555 1_555
C37_2 C36_2 1_555 1_555
H24_2 C37_2 1_555 1_555
C38_2 N10_2 1_555 1_555
N13_2 C33_2 1_555 1_555
N14_2 C32_2 1_555 1_555
C39_2 H25_2 1_555 1_555
C40_2 C39_2 1_555 1_555
C41_2 C40_2 1_555 1_555
H26_2 C41_2 1_555 1_555
C42_2 C41_2 1_555 1_555
H27_2 C42_2 1_555 1_555
C43_2 C42_2 1_555 1_555
H28_2 C43_2 1_555 1_555
C44_2 H29_2 1_555 1_555
C45_2 C44_2 1_555 1_555
H30_2 C45_2 1_555 1_555
C46_2 C45_2 1_555 1_555
H31_2 C46_2 1_555 1_555
C47_2 C46_2 1_555 1_555
C48_2 C47_2 1_555 1_555
H32_2 C48_2 1_555 1_555
C49_2 C47_2 1_555 1_555
C50_2 C40_2 1_555 1_555
C51_2 C53_2 1_555 1_555
C52_2 H33_2 1_555 1_555
C53_2 C52_2 1_555 1_555
C54_2 C53_2 1_555 1_555
H34_2 C54_2 1_555 1_555
C55_2 C54_2 1_555 1_555
H35_2 C55_2 1_555 1_555
C56_2 C55_2 1_555 1_555
H36_2 C56_2 1_555 1_555
C57_2 N21_2 1_555 1_555
C58_2 H37_2 1_555 1_555
C59_2 C58_2 1_555 1_555
H38_2 C59_2 1_555 1_555
C60_2 C59_2 1_555 1_555
H39_2 C60_2 1_555 1_555
C61_2 C60_2 1_555 1_555
C62_2 C61_2 1_555 1_555
H40_2 C62_2 1_555 1_555
C63_2 C61_2 1_555 1_555
Co3_2 N20_2 1_555 1_555
N15_2 C39_2 1_555 1_555
N16_2 C44_2 1_555 1_555
N17_2 C49_2 1_555 1_555
N18_2 C49_2 1_555 1_555
N19_2 C50_2 1_555 1_555
N20_2 C52_2 1_555 1_555
N21_2 Co3_2 1_555 1_555
N22_2 C58_2 1_555 1_555
N23_2 C63_2 1_555 1_555
S3_2 C57_2 1_555 1_555
C64_2 H41_2 1_555 1_555
C65_2 C64_2 1_555 1_555
H42_2 C65_2 1_555 1_555
C66_2 C65_2 1_555 1_555
H43_2 C66_2 1_555 1_555
C67_2 C66_2 1_555 1_555
C68_2 C67_2 1_555 1_555
H44_2 C68_2 1_555 1_555
C69_2 C67_2 1_555 1_555
N24_2 Co2_2 1_555 1_555
N25_2 C63_2 1_555 1_555
C70_2 H45_2 1_555 1_555
C71_2 C70_2 1_555 1_555
H46_2 C71_2 1_555 1_555
C72_2 C71_2 1_555 1_555
H47_2 C72_2 1_555 1_555
C73_2 C72_2 1_555 1_555
C74_2 C73_2 1_555 1_555
H48_2 C74_2 1_555 1_555
C75_2 N23_2 1_555 1_555
N26_2 C70_2 1_555 1_555
N27_2 C69_2 1_555 1_555
C76_2 H49_2 1_555 1_555
C77_2 C76_2 1_555 1_555
C78_2 C77_2 1_555 1_555
H50_2 C78_2 1_555 1_555
C79_2 C78_2 1_555 1_555
H51_2 C79_2 1_555 1_555
C80_2 C79_2 1_555 1_555
H52_2 C80_2 1_555 1_555
C81_2 H53_2 1_555 1_555
C82_2 C81_2 1_555 1_555
H54_2 C82_2 1_555 1_555
C83_2 C82_2 1_555 1_555
H55_2 C83_2 1_555 1_555
C84_2 C83_2 1_555 1_555
C85_2 C84_2 1_555 1_555
H56_2 C85_2 1_555 1_555
C86_2 C84_2 1_555 1_555
C87_2 C77_2 1_555 1_555
C88_2 C90_2 1_555 1_555
C89_2 H57_2 1_555 1_555
C90_2 C89_2 1_555 1_555
C91_2 C90_2 1_555 1_555
H58_2 C91_2 1_555 1_555
C92_2 C91_2 1_555 1_555
H59_2 C92_2 1_555 1_555
C93_2 C92_2 1_555 1_555
H60_2 C93_2 1_555 1_555
C94_2 N34_2 1_555 1_555
Co4_2 N11_2 1_555 1_555
N28_2 C76_2 1_555 1_555
N29_2 C81_2 1_555 1_555
N30_2 C86_2 1_555 1_555
N31_2 C86_2 1_555 1_555
N32_2 C87_2 1_555 1_555
N33_2 C89_2 1_555 1_555
N34_2 Co4_2 1_555 1_555
S4_2 C94_2 1_555 1_555
C95_2 H61_2 1_555 1_555
C96_2 C95_2 1_555 1_555
C97_2 C96_2 1_555 1_555
H62_2 C97_2 1_555 1_555
C98_2 C97_2 1_555 1_555
H63_2 C98_2 1_555 1_555
C99_2 C98_2 1_555 1_555
H64_2 C99_2 1_555 1_555
C100_2 H65_2 1_555 1_555
C101_2 C100_2 1_555 1_555
H66_2 C101_2 1_555 1_555
C102_2 C101_2 1_555 1_555
H67_2 C102_2 1_555 1_555
C103_2 C102_2 1_555 1_555
C104_2 C103_2 1_555 1_555
H68_2 C104_2 1_555 1_555
C105_2 C103_2 1_555 1_555
C106_2 C96_2 1_555 1_555
C107_2 C109_2 1_555 1_555
C108_2 H69_2 1_555 1_555
C109_2 C108_2 1_555 1_555
C110_2 C109_2 1_555 1_555
H70_2 C110_2 1_555 1_555
C111_2 C110_2 1_555 1_555
H71_2 C111_2 1_555 1_555
C112_2 C111_2 1_555 1_555
H72_2 C112_2 1_555 1_555
C113_2 N41_2 1_555 1_555
N35_2 C95_2 1_555 1_555
N36_2 C100_2 1_555 1_555
N37_2 C105_2 1_555 1_555
N38_2 C105_2 1_555 1_555
N39_2 C106_2 1_555 1_555
N40_2 Co4_2 1_555 1_555
N41_2 Co4_2 1_555 1_555
S5_2 C113_2 1_555 1_555
C114_2 H73_2 1_555 1_555
C115_2 C114_2 1_555 1_555
C116_2 C115_2 1_555 1_555
H74_2 C116_2 1_555 1_555
C117_2 C116_2 1_555 1_555
H75_2 C117_2 1_555 1_555
C118_2 C117_2 1_555 1_555
H76_2 C118_2 1_555 1_555
C120_2 H77_2 1_555 1_555
C121_2 C120_2 1_555 1_555
H78_2 C121_2 1_555 1_555
C122_2 C121_2 1_555 1_555
H79_2 C122_2 1_555 1_555
C123_2 C122_2 1_555 1_555
C124_2 C123_2 1_555 1_555
H80_2 C124_2 1_555 1_555
C125_2 C123_2 1_555 1_555
C126_2 C115_2 1_555 1_555
C127_2 C129_2 1_555 1_555
C128_2 H81_2 1_555 1_555
C129_2 C128_2 1_555 1_555
C130_2 C129_2 1_555 1_555
H82_2 C130_2 1_555 1_555
C131_2 C130_2 1_555 1_555
H83_2 C131_2 1_555 1_555
C132_2 C131_2 1_555 1_555
H84_2 C132_2 1_555 1_555
N42_2 Co1_3 1_555 1_555
N44_2 C120_2 1_555 1_555
N45_2 C125_2 1_555 1_555
N46_2 C125_2 1_555 1_555
N47_2 C126_2 1_555 1_555
N48_2 C128_2 1_555 1_555
C133_2 H85_2 1_555 1_555
C134_2 C133_2 1_555 1_555
C135_2 C134_2 1_555 1_555
H86_2 C135_2 1_555 1_555
C136_2 C135_2 1_555 1_555
H87_2 C136_2 1_555 1_555
C137_2 C136_2 1_555 1_555
H88_2 C137_2 1_555 1_555
C138_2 H89_2 1_555 1_555
C139_2 C138_2 1_555 1_555
H90_2 C139_2 1_555 1_555
C140_2 C139_2 1_555 1_555
H91_2 C140_2 1_555 1_555
C141_2 C140_2 1_555 1_555
C142_2 C141_2 1_555 1_555
H92_2 C142_2 1_555 1_555
C143_2 C141_2 1_555 1_555
C144_2 C134_2 1_555 1_555
C145_2 C147_2 1_555 1_555
C146_2 H93_2 1_555 1_555
C147_2 C146_2 1_555 1_555
C148_2 C147_2 1_555 1_555
H94_2 C148_2 1_555 1_555
C149_2 C148_2 1_555 1_555
H95_2 C149_2 1_555 1_555
C150_2 C149_2 1_555 1_555
H96_2 C150_2 1_555 1_555
N49_2 Co1_3 1_555 1_555
N50_2 C138_2 1_555 1_555
N51_2 C143_2 1_555 1_555
N52_2 C143_2 1_555 1_555
N53_2 C144_2 1_555 1_555
N54_2 C146_2 1_555 1_555
C151_2 N55_2 1_555 1_555
N55_2 Co1_3 1_555 1_555
S7_2 C151_2 1_555 1_555
C152_2 N56_2 1_555 1_555
N56_2 Co2_2 1_555 1_555
S8_2 C152_2 1_555 1_555
C153_2 N57_2 1_555 1_555
N57_2 Co3_2 1_555 1_555
S9_2 C153_2 1_555 1_555
Co6_2 N1_2 1_555 1_555
C154_2 N58_2 1_555 1_555
N58_2 Co5_3 1_555 1_555
S10_2 C154_2 1_555 1_555
C155_2 N59_2 1_555 1_555
N59_2 Co6_2 1_555 1_555
S11_2 C155_2 1_555 1_555
C156_2 N60_2 1_555 1_555
N60_2 Co6_2 1_555 1_555
S12_2 C156_2 1_555 1_555
Co7_2 N16_2 1_555 1_555
Co8_2 N29_2 1_555 1_555
Co9_3 N36_2 1_555 1_555
Co10_3 N15_2 1_555 1_555
Co11_2 N35_2 1_555 1_555
Co12_3 N50_2 1_555 1_555
Co13_2 N28_2 1_555 1_555
Co14_2 N13_2 1_555 1_555
Co15_2 N26_2 1_555 1_555
Co16_2 N48_2 1_555 1_555
Co17_2 N54_2 1_555 1_555
N61_2 Co6_2 1_555 1_555
N63_2 Co5_3 1_555 1_555
N64_2 Co1_3 1_555 1_555
N65_2 Co6_2 1_555 1_555
N67_2 Co6_2 1_555 1_555
N68_2 Co2_2 1_555 1_555
N69_2 Co3_2 1_555 1_555
N70_2 Co4_2 1_555 1_555
N71_2 Co3_2 1_555 1_555
C5_2 N1_2 1_555 1_555
C11_2 N3_2 1_555 1_555
C13_2 N5_2 1_555 1_555
C14_2 N4_2 1_555 1_555
C14_2 N6_2 1_555 1_555
C19_2 N7_2 1_555 1_555
C25_2 N9_2 1_555 1_555
Co1_3 N3_2 1_555 1_555
Co2_2 N9_2 1_555 1_555
C31_2 N11_2 1_555 1_555
C32_2 N12_2 1_555 1_555
C36_2 C38_2 1_555 1_555
C37_2 N13_2 1_555 1_555
C38_2 N14_2 1_555 1_555
C43_2 N15_2 1_555 1_555
C48_2 N16_2 1_555 1_555
C50_2 N18_2 1_555 1_555
C51_2 N17_2 1_555 1_555
C51_2 N19_2 1_555 1_555
C56_2 N20_2 1_555 1_555
C62_2 N22_2 1_555 1_555
Co3_2 N22_2 1_555 1_555
C64_2 N24_2 1_555 1_555
C68_2 N24_2 1_555 1_555
C69_2 N25_2 1_555 1_555
C73_2 C75_2 1_555 1_555
C74_2 N26_2 1_555 1_555
C75_2 N27_2 1_555 1_555
C80_2 N28_2 1_555 1_555
C85_2 N29_2 1_555 1_555
C87_2 N31_2 1_555 1_555
C88_2 N30_2 1_555 1_555
C88_2 N32_2 1_555 1_555
C93_2 N33_2 1_555 1_555
Co4_2 N33_2 1_555 1_555
C99_2 N35_2 1_555 1_555
C104_2 N36_2 1_555 1_555
C106_2 N38_2 1_555 1_555
C107_2 N37_2 1_555 1_555
C107_2 N39_2 1_555 1_555
C108_2 N40_2 1_555 1_555
C112_2 N40_2 1_555 1_555
C114_2 N42_2 1_555 1_555
C118_2 N42_2 1_555 1_555
C124_2 N44_2 1_555 1_555
C126_2 N46_2 1_555 1_555
C127_2 N45_2 1_555 1_555
C127_2 N47_2 1_555 1_555
C132_2 N48_2 1_555 1_555
Co5_3 N44_2 1_555 1_555
C133_2 N49_2 1_555 1_555
C137_2 N49_2 1_555 1_555
C142_2 N50_2 1_555 1_555
C144_2 N52_2 1_555 1_555
C145_2 N51_2 1_555 1_555
C145_2 N53_2 1_555 1_555
C150_2 N54_2 1_555 1_555
C1_3 H1_3 1_555 1_555
C2_3 C1_3 1_555 1_555
C3_3 C2_3 1_555 1_555
H2_3 C3_3 1_555 1_555
C4_3 C3_3 1_555 1_555
H3_3 C4_3 1_555 1_555
C5_3 C4_3 1_555 1_555
H4_3 C5_3 1_555 1_555
C6_3 N2_3 1_555 1_555
C7_3 H5_3 1_555 1_555
C8_3 C7_3 1_555 1_555
H6_3 C8_3 1_555 1_555
C9_3 C8_3 1_555 1_555
H7_3 C9_3 1_555 1_555
C10_3 C9_3 1_555 1_555
C11_3 C10_3 1_555 1_555
H8_3 C11_3 1_555 1_555
C12_3 C10_3 1_555 1_555
C13_3 C2_3 1_555 1_555
C14_3 C16_3 1_555 1_555
C15_3 H9_3 1_555 1_555
C16_3 C15_3 1_555 1_555
C17_3 C16_3 1_555 1_555
H10_3 C17_3 1_555 1_555
C18_3 C17_3 1_555 1_555
H11_3 C18_3 1_555 1_555
C19_3 C18_3 1_555 1_555
H12_3 C19_3 1_555 1_555
C20_3 N8_3 1_555 1_555
C21_3 H13_3 1_555 1_555
C22_3 C21_3 1_555 1_555
H14_3 C22_3 1_555 1_555
C23_3 C22_3 1_555 1_555
H15_3 C23_3 1_555 1_555
C24_3 C23_3 1_555 1_555
C25_3 C24_3 1_555 1_555
H16_3 C25_3 1_555 1_555
C26_3 C24_3 1_555 1_555
Co1_4 N2_3 1_555 1_555
Co2_3 N7_3 1_555 1_555
N1_3 C1_3 1_555 1_555
N3_3 C7_3 1_555 1_555
N4_3 C12_3 1_555 1_555
N5_3 C12_3 1_555 1_555
N6_3 C13_3 1_555 1_555
N7_3 C15_3 1_555 1_555
N8_3 Co2_3 1_555 1_555
N9_3 C21_3 1_555 1_555
N10_3 C26_3 1_555 1_555
S1_3 C6_3 1_555 1_555
S2_3 C20_3 1_555 1_555
C27_3 H17_3 1_555 1_555
C28_3 C27_3 1_555 1_555
H18_3 C28_3 1_555 1_555
C29_3 C28_3 1_555 1_555
H19_3 C29_3 1_555 1_555
C30_3 C29_3 1_555 1_555
C31_3 C30_3 1_555 1_555
H20_3 C31_3 1_555 1_555
C32_3 C30_3 1_555 1_555
N11_3 C27_3 1_555 1_555
N12_3 C26_3 1_555 1_555
C33_3 H21_3 1_555 1_555
C34_3 C33_3 1_555 1_555
H22_3 C34_3 1_555 1_555
C35_3 C34_3 1_555 1_555
H23_3 C35_3 1_555 1_555
C36_3 C35_3 1_555 1_555
C37_3 C36_3 1_555 1_555
H24_3 C37_3 1_555 1_555
C38_3 N10_3 1_555 1_555
N13_3 C33_3 1_555 1_555
N14_3 C32_3 1_555 1_555
C39_3 H25_3 1_555 1_555
C40_3 C39_3 1_555 1_555
C41_3 C40_3 1_555 1_555
H26_3 C41_3 1_555 1_555
C42_3 C41_3 1_555 1_555
H27_3 C42_3 1_555 1_555
C43_3 C42_3 1_555 1_555
H28_3 C43_3 1_555 1_555
C44_3 H29_3 1_555 1_555
C45_3 C44_3 1_555 1_555
H30_3 C45_3 1_555 1_555
C46_3 C45_3 1_555 1_555
H31_3 C46_3 1_555 1_555
C47_3 C46_3 1_555 1_555
C48_3 C47_3 1_555 1_555
H32_3 C48_3 1_555 1_555
C49_3 C47_3 1_555 1_555
C50_3 C40_3 1_555 1_555
C51_3 C53_3 1_555 1_555
C52_3 H33_3 1_555 1_555
C53_3 C52_3 1_555 1_555
C54_3 C53_3 1_555 1_555
H34_3 C54_3 1_555 1_555
C55_3 C54_3 1_555 1_555
H35_3 C55_3 1_555 1_555
C56_3 C55_3 1_555 1_555
H36_3 C56_3 1_555 1_555
C57_3 N21_3 1_555 1_555
C58_3 H37_3 1_555 1_555
C59_3 C58_3 1_555 1_555
H38_3 C59_3 1_555 1_555
C60_3 C59_3 1_555 1_555
H39_3 C60_3 1_555 1_555
C61_3 C60_3 1_555 1_555
C62_3 C61_3 1_555 1_555
H40_3 C62_3 1_555 1_555
C63_3 C61_3 1_555 1_555
Co3_3 N20_3 1_555 1_555
N15_3 C39_3 1_555 1_555
N16_3 C44_3 1_555 1_555
N17_3 C49_3 1_555 1_555
N18_3 C49_3 1_555 1_555
N19_3 C50_3 1_555 1_555
N20_3 C52_3 1_555 1_555
N21_3 Co3_3 1_555 1_555
N22_3 C58_3 1_555 1_555
N23_3 C63_3 1_555 1_555
S3_3 C57_3 1_555 1_555
C64_3 H41_3 1_555 1_555
C65_3 C64_3 1_555 1_555
H42_3 C65_3 1_555 1_555
C66_3 C65_3 1_555 1_555
H43_3 C66_3 1_555 1_555
C67_3 C66_3 1_555 1_555
C68_3 C67_3 1_555 1_555
H44_3 C68_3 1_555 1_555
C69_3 C67_3 1_555 1_555
N24_3 Co2_3 1_555 1_555
N25_3 C63_3 1_555 1_555
C70_3 H45_3 1_555 1_555
C71_3 C70_3 1_555 1_555
H46_3 C71_3 1_555 1_555
C72_3 C71_3 1_555 1_555
H47_3 C72_3 1_555 1_555
C73_3 C72_3 1_555 1_555
C74_3 C73_3 1_555 1_555
H48_3 C74_3 1_555 1_555
C75_3 N23_3 1_555 1_555
N26_3 C70_3 1_555 1_555
N27_3 C69_3 1_555 1_555
S4_3 C94_3 1_555 1_555
S5_3 C113_3 1_555 1_555
C114_3 H73_3 1_555 1_555
C115_3 C114_3 1_555 1_555
C116_3 C115_3 1_555 1_555
H74_3 C116_3 1_555 1_555
C117_3 C116_3 1_555 1_555
H75_3 C117_3 1_555 1_555
C118_3 C117_3 1_555 1_555
H76_3 C118_3 1_555 1_555
C119_3 N43_3 1_555 1_555
C120_3 H77_3 1_555 1_555
C121_3 C120_3 1_555 1_555
H78_3 C121_3 1_555 1_555
C122_3 C121_3 1_555 1_555
H79_3 C122_3 1_555 1_555
C123_3 C122_3 1_555 1_555
C124_3 C123_3 1_555 1_555
H80_3 C124_3 1_555 1_555
C125_3 C123_3 1_555 1_555
C126_3 C115_3 1_555 1_555
C127_3 C129_3 1_555 1_555
C128_3 H81_3 1_555 1_555
C129_3 C128_3 1_555 1_555
C130_3 C129_3 1_555 1_555
H82_3 C130_3 1_555 1_555
C131_3 C130_3 1_555 1_555
H83_3 C131_3 1_555 1_555
C132_3 C131_3 1_555 1_555
H84_3 C132_3 1_555 1_555
Co5_4 N43_3 1_555 1_555
N42_3 Co1_4 1_555 1_555
N44_3 C120_3 1_555 1_555
N45_3 C125_3 1_555 1_555
N46_3 C125_3 1_555 1_555
N47_3 C126_3 1_555 1_555
N48_3 C128_3 1_555 1_555
S6_3 C119_3 1_555 1_555
C133_3 H85_3 1_555 1_555
C134_3 C133_3 1_555 1_555
C135_3 C134_3 1_555 1_555
H86_3 C135_3 1_555 1_555
C136_3 C135_3 1_555 1_555
H87_3 C136_3 1_555 1_555
C137_3 C136_3 1_555 1_555
H88_3 C137_3 1_555 1_555
C138_3 H89_3 1_555 1_555
C139_3 C138_3 1_555 1_555
H90_3 C139_3 1_555 1_555
C140_3 C139_3 1_555 1_555
H91_3 C140_3 1_555 1_555
C141_3 C140_3 1_555 1_555
C142_3 C141_3 1_555 1_555
H92_3 C142_3 1_555 1_555
C143_3 C141_3 1_555 1_555
C144_3 C134_3 1_555 1_555
C145_3 C147_3 1_555 1_555
C146_3 H93_3 1_555 1_555
C147_3 C146_3 1_555 1_555
C148_3 C147_3 1_555 1_555
H94_3 C148_3 1_555 1_555
C149_3 C148_3 1_555 1_555
H95_3 C149_3 1_555 1_555
C150_3 C149_3 1_555 1_555
H96_3 C150_3 1_555 1_555
N49_3 Co1_4 1_555 1_555
N50_3 C138_3 1_555 1_555
N51_3 C143_3 1_555 1_555
N52_3 C143_3 1_555 1_555
N53_3 C144_3 1_555 1_555
N54_3 C146_3 1_555 1_555
C151_3 N55_3 1_555 1_555
N55_3 Co1_4 1_555 1_555
S7_3 C151_3 1_555 1_555
C152_3 N56_3 1_555 1_555
N56_3 Co2_3 1_555 1_555
S8_3 C152_3 1_555 1_555
C153_3 N57_3 1_555 1_555
N57_3 Co3_3 1_555 1_555
S9_3 C153_3 1_555 1_555
Co6_3 N1_3 1_555 1_555
C154_3 N58_3 1_555 1_555
N58_3 Co5_4 1_555 1_555
S10_3 C154_3 1_555 1_555
C155_3 N59_3 1_555 1_555
N59_3 Co6_3 1_555 1_555
S11_3 C155_3 1_555 1_555
C156_3 N60_3 1_555 1_555
N60_3 Co6_3 1_555 1_555
S12_3 C156_3 1_555 1_555
Co7_3 N16_3 1_555 1_555
Co10_4 N15_3 1_555 1_555
Co12_4 N50_3 1_555 1_555
Co14_3 N13_3 1_555 1_555
Co15_3 N26_3 1_555 1_555
Co16_3 N48_3 1_555 1_555
Co17_3 N54_3 1_555 1_555
N61_3 Co6_3 1_555 1_555
N62_3 Co5_4 1_555 1_555
N63_3 Co5_4 1_555 1_555
N64_3 Co1_4 1_555 1_555
N65_3 Co6_3 1_555 1_555
N66_3 Co5_4 1_555 1_555
N67_3 Co6_3 1_555 1_555
N68_3 Co2_3 1_555 1_555
N69_3 Co3_3 1_555 1_555
N71_3 Co3_3 1_555 1_555
C5_3 N1_3 1_555 1_555
C11_3 N3_3 1_555 1_555
C13_3 N5_3 1_555 1_555
C14_3 N4_3 1_555 1_555
C14_3 N6_3 1_555 1_555
C19_3 N7_3 1_555 1_555
C25_3 N9_3 1_555 1_555
Co1_4 N3_3 1_555 1_555
Co2_3 N9_3 1_555 1_555
C31_3 N11_3 1_555 1_555
C32_3 N12_3 1_555 1_555
C36_3 C38_3 1_555 1_555
C37_3 N13_3 1_555 1_555
C38_3 N14_3 1_555 1_555
C43_3 N15_3 1_555 1_555
C48_3 N16_3 1_555 1_555
C50_3 N18_3 1_555 1_555
C51_3 N17_3 1_555 1_555
C51_3 N19_3 1_555 1_555
C56_3 N20_3 1_555 1_555
C62_3 N22_3 1_555 1_555
Co3_3 N22_3 1_555 1_555
C64_3 N24_3 1_555 1_555
C68_3 N24_3 1_555 1_555
C69_3 N25_3 1_555 1_555
C73_3 C75_3 1_555 1_555
C74_3 N26_3 1_555 1_555
C75_3 N27_3 1_555 1_555
C114_3 N42_3 1_555 1_555
C118_3 N42_3 1_555 1_555
C124_3 N44_3 1_555 1_555
C126_3 N46_3 1_555 1_555
C127_3 N45_3 1_555 1_555
C127_3 N47_3 1_555 1_555
C132_3 N48_3 1_555 1_555
Co5_4 N44_3 1_555 1_555
C133_3 N49_3 1_555 1_555
C137_3 N49_3 1_555 1_555
C142_3 N50_3 1_555 1_555
C144_3 N52_3 1_555 1_555
C145_3 N51_3 1_555 1_555
C145_3 N53_3 1_555 1_555
C150_3 N54_3 1_555 1_555
C76_3 H49_3 1_555 1_555
C77_3 C76_3 1_555 1_555
C78_3 C77_3 1_555 1_555
H50_3 C78_3 1_555 1_555
C79_3 C78_3 1_555 1_555
H51_3 C79_3 1_555 1_555
C80_3 C79_3 1_555 1_555
C81_3 H53_3 1_555 1_555
C82_3 C81_3 1_555 1_555
H54_3 C82_3 1_555 1_555
C83_3 C82_3 1_555 1_555
H55_3 C83_3 1_555 1_555
C84_3 C83_3 1_555 1_555
C85_3 C84_3 1_555 1_555
H56_3 C85_3 1_555 1_555
C86_3 C84_3 1_555 1_555
C87_3 C77_3 1_555 1_555
C88_3 C90_3 1_555 1_555
C89_3 H57_3 1_555 1_555
C90_3 C89_3 1_555 1_555
C91_3 C90_3 1_555 1_555
H58_3 C91_3 1_555 1_555
C92_3 C91_3 1_555 1_555
H59_3 C92_3 1_555 1_555
C93_3 C92_3 1_555 1_555
H60_3 C93_3 1_555 1_555
N28_3 C76_3 1_555 1_555
N29_3 C81_3 1_555 1_555
N30_3 C86_3 1_555 1_555
N31_3 C86_3 1_555 1_555
N32_3 C87_3 1_555 1_555
N33_3 C89_3 1_555 1_555
N34_3 Co4_3 1_555 1_555
C95_3 H61_3 1_555 1_555
C96_3 C95_3 1_555 1_555
C97_3 C96_3 1_555 1_555
H62_3 C97_3 1_555 1_555
C98_3 C97_3 1_555 1_555
H63_3 C98_3 1_555 1_555
C99_3 C98_3 1_555 1_555
H64_3 C99_3 1_555 1_555
C100_3 H65_3 1_555 1_555
C101_3 C100_3 1_555 1_555
H66_3 C101_3 1_555 1_555
C102_3 C101_3 1_555 1_555
H67_3 C102_3 1_555 1_555
C103_3 C102_3 1_555 1_555
C104_3 C103_3 1_555 1_555
H68_3 C104_3 1_555 1_555
C105_3 C103_3 1_555 1_555
C106_3 C96_3 1_555 1_555
C107_3 C109_3 1_555 1_555
C108_3 H69_3 1_555 1_555
C109_3 C108_3 1_555 1_555
C110_3 C109_3 1_555 1_555
H70_3 C110_3 1_555 1_555
C111_3 C110_3 1_555 1_555
H71_3 C111_3 1_555 1_555
C112_3 C111_3 1_555 1_555
H72_3 C112_3 1_555 1_555
N35_3 C95_3 1_555 1_555
N36_3 C100_3 1_555 1_555
N37_3 C105_3 1_555 1_555
N38_3 C105_3 1_555 1_555
N39_3 C106_3 1_555 1_555
N40_3 Co4_3 1_555 1_555
N41_3 Co4_3 1_555 1_555
Co8_3 N29_3 1_555 1_555
Co9_4 N36_3 1_555 1_555
Co11_3 N35_3 1_555 1_555
Co13_3 N28_3 1_555 1_555
C80_3 N28_3 1_555 1_555
C85_3 N29_3 1_555 1_555
C87_3 N31_3 1_555 1_555
C88_3 N30_3 1_555 1_555
C88_3 N32_3 1_555 1_555
C93_3 N33_3 1_555 1_555
Co4_3 N33_3 1_555 1_555
C99_3 N35_3 1_555 1_555
C104_3 N36_3 1_555 1_555
C106_3 N38_3 1_555 1_555
C107_3 N37_3 1_555 1_555
C107_3 N39_3 1_555 1_555
C108_3 N40_3 1_555 1_555
C112_3 N40_3 1_555 1_555
C21_4 H13_4 1_555 1_555
C22_4 C21_4 1_555 1_555
H14_4 C22_4 1_555 1_555
C23_4 C22_4 1_555 1_555
H15_4 C23_4 1_555 1_555
C24_4 C23_4 1_555 1_555
C25_4 C24_4 1_555 1_555
H16_4 C25_4 1_555 1_555
C26_4 C24_4 1_555 1_555
N9_4 C21_4 1_555 1_555
N10_4 C26_4 1_555 1_555
S2_4 C20_4 1_555 1_555
C27_4 H17_4 1_555 1_555
C28_4 C27_4 1_555 1_555
H18_4 C28_4 1_555 1_555
C29_4 C28_4 1_555 1_555
H19_4 C29_4 1_555 1_555
C30_4 C29_4 1_555 1_555
C31_4 C30_4 1_555 1_555
H20_4 C31_4 1_555 1_555
C32_4 C30_4 1_555 1_555
N11_4 C27_4 1_555 1_555
N12_4 C26_4 1_555 1_555
C33_4 H21_4 1_555 1_555
C34_4 C33_4 1_555 1_555
H22_4 C34_4 1_555 1_555
C35_4 C34_4 1_555 1_555
H23_4 C35_4 1_555 1_555
C36_4 C35_4 1_555 1_555
C37_4 C36_4 1_555 1_555
H24_4 C37_4 1_555 1_555
C38_4 N10_4 1_555 1_555
N13_4 C33_4 1_555 1_555
N14_4 C32_4 1_555 1_555
C39_4 H25_4 1_555 1_555
C40_4 C39_4 1_555 1_555
C41_4 C40_4 1_555 1_555
H26_4 C41_4 1_555 1_555
C42_4 C41_4 1_555 1_555
H27_4 C42_4 1_555 1_555
C43_4 C42_4 1_555 1_555
H28_4 C43_4 1_555 1_555
C44_4 H29_4 1_555 1_555
C45_4 C44_4 1_555 1_555
H30_4 C45_4 1_555 1_555
C46_4 C45_4 1_555 1_555
H31_4 C46_4 1_555 1_555
C47_4 C46_4 1_555 1_555
C48_4 C47_4 1_555 1_555
H32_4 C48_4 1_555 1_555
C49_4 C47_4 1_555 1_555
C50_4 C40_4 1_555 1_555
C51_4 C53_4 1_555 1_555
C52_4 H33_4 1_555 1_555
C53_4 C52_4 1_555 1_555
C54_4 C53_4 1_555 1_555
H34_4 C54_4 1_555 1_555
C55_4 C54_4 1_555 1_555
H35_4 C55_4 1_555 1_555
C56_4 C55_4 1_555 1_555
H36_4 C56_4 1_555 1_555
C57_4 N21_4 1_555 1_555
C58_4 H37_4 1_555 1_555
C59_4 C58_4 1_555 1_555
H38_4 C59_4 1_555 1_555
C60_4 C59_4 1_555 1_555
H39_4 C60_4 1_555 1_555
C61_4 C60_4 1_555 1_555
C62_4 C61_4 1_555 1_555
H40_4 C62_4 1_555 1_555
C63_4 C61_4 1_555 1_555
Co3_4 N20_4 1_555 1_555
N15_4 C39_4 1_555 1_555
N16_4 C44_4 1_555 1_555
N17_4 C49_4 1_555 1_555
N18_4 C49_4 1_555 1_555
N19_4 C50_4 1_555 1_555
N20_4 C52_4 1_555 1_555
N21_4 Co3_4 1_555 1_555
N22_4 C58_4 1_555 1_555
N23_4 C63_4 1_555 1_555
S3_4 C57_4 1_555 1_555
C64_4 H41_4 1_555 1_555
C65_4 C64_4 1_555 1_555
H42_4 C65_4 1_555 1_555
C66_4 C65_4 1_555 1_555
H43_4 C66_4 1_555 1_555
C67_4 C66_4 1_555 1_555
C68_4 C67_4 1_555 1_555
H44_4 C68_4 1_555 1_555
C69_4 C67_4 1_555 1_555
N25_4 C63_4 1_555 1_555
C70_4 H45_4 1_555 1_555
C71_4 C70_4 1_555 1_555
H46_4 C71_4 1_555 1_555
C72_4 C71_4 1_555 1_555
H47_4 C72_4 1_555 1_555
C73_4 C72_4 1_555 1_555
C74_4 C73_4 1_555 1_555
H48_4 C74_4 1_555 1_555
C75_4 N23_4 1_555 1_555
N26_4 C70_4 1_555 1_555
N27_4 C69_4 1_555 1_555
C76_4 H49_4 1_555 1_555
C77_4 C76_4 1_555 1_555
C78_4 C77_4 1_555 1_555
H50_4 C78_4 1_555 1_555
C79_4 C78_4 1_555 1_555
H51_4 C79_4 1_555 1_555
C80_4 C79_4 1_555 1_555
H52_4 C80_4 1_555 1_555
C81_4 H53_4 1_555 1_555
C82_4 C81_4 1_555 1_555
H54_4 C82_4 1_555 1_555
C83_4 C82_4 1_555 1_555
H55_4 C83_4 1_555 1_555
C84_4 C83_4 1_555 1_555
C85_4 C84_4 1_555 1_555
H56_4 C85_4 1_555 1_555
C86_4 C84_4 1_555 1_555
C87_4 C77_4 1_555 1_555
C88_4 C90_4 1_555 1_555
C89_4 H57_4 1_555 1_555
C90_4 C89_4 1_555 1_555
C91_4 C90_4 1_555 1_555
H58_4 C91_4 1_555 1_555
C92_4 C91_4 1_555 1_555
H59_4 C92_4 1_555 1_555
C93_4 C92_4 1_555 1_555
H60_4 C93_4 1_555 1_555
C94_4 N34_4 1_555 1_555
Co4_4 N11_4 1_555 1_555
N28_4 C76_4 1_555 1_555
N29_4 C81_4 1_555 1_555
N30_4 C86_4 1_555 1_555
N31_4 C86_4 1_555 1_555
N32_4 C87_4 1_555 1_555
N33_4 C89_4 1_555 1_555
N34_4 Co4_4 1_555 1_555
S4_4 C94_4 1_555 1_555
C95_4 H61_4 1_555 1_555
C96_4 C95_4 1_555 1_555
C97_4 C96_4 1_555 1_555
H62_4 C97_4 1_555 1_555
C98_4 C97_4 1_555 1_555
H63_4 C98_4 1_555 1_555
C99_4 C98_4 1_555 1_555
C100_4 H65_4 1_555 1_555
C101_4 C100_4 1_555 1_555
H66_4 C101_4 1_555 1_555
C102_4 C101_4 1_555 1_555
H67_4 C102_4 1_555 1_555
C103_4 C102_4 1_555 1_555
C104_4 C103_4 1_555 1_555
H68_4 C104_4 1_555 1_555
C105_4 C103_4 1_555 1_555
C106_4 C96_4 1_555 1_555
C107_4 C109_4 1_555 1_555
C108_4 H69_4 1_555 1_555
C109_4 C108_4 1_555 1_555
C110_4 C109_4 1_555 1_555
H70_4 C110_4 1_555 1_555
C111_4 C110_4 1_555 1_555
H71_4 C111_4 1_555 1_555
C112_4 C111_4 1_555 1_555
H72_4 C112_4 1_555 1_555
C113_4 N41_4 1_555 1_555
N35_4 C95_4 1_555 1_555
N36_4 C100_4 1_555 1_555
N37_4 C105_4 1_555 1_555
N38_4 C105_4 1_555 1_555
N39_4 C106_4 1_555 1_555
N40_4 Co4_4 1_555 1_555
N41_4 Co4_4 1_555 1_555
S5_4 C113_4 1_555 1_555
S8_4 C152_4 1_555 1_555
C153_4 N57_4 1_555 1_555
N57_4 Co3_4 1_555 1_555
S9_4 C153_4 1_555 1_555
Co7_5 N16_4 1_555 1_555
Co8_4 N29_4 1_555 1_555
Co9_5 N36_4 1_555 1_555
Co10_5 N15_4 1_555 1_555
Co11_4 N35_4 1_555 1_555
Co13_5 N28_4 1_555 1_555
Co15_4 N26_4 1_555 1_555
N69_4 Co3_4 1_555 1_555
N70_4 Co4_4 1_555 1_555
N71_4 Co3_4 1_555 1_555
C25_4 N9_4 1_555 1_555
C31_4 N11_4 1_555 1_555
C32_4 N12_4 1_555 1_555
C36_4 C38_4 1_555 1_555
C37_4 N13_4 1_555 1_555
C38_4 N14_4 1_555 1_555
C43_4 N15_4 1_555 1_555
C48_4 N16_4 1_555 1_555
C50_4 N18_4 1_555 1_555
C51_4 N17_4 1_555 1_555
C51_4 N19_4 1_555 1_555
C56_4 N20_4 1_555 1_555
C62_4 N22_4 1_555 1_555
Co3_4 N22_4 1_555 1_555
C64_4 N24_4 1_555 1_555
C68_4 N24_4 1_555 1_555
C69_4 N25_4 1_555 1_555
C73_4 C75_4 1_555 1_555
C74_4 N26_4 1_555 1_555
C75_4 N27_4 1_555 1_555
C80_4 N28_4 1_555 1_555
C85_4 N29_4 1_555 1_555
C87_4 N31_4 1_555 1_555
C88_4 N30_4 1_555 1_555
C88_4 N32_4 1_555 1_555
C93_4 N33_4 1_555 1_555
Co4_4 N33_4 1_555 1_555
C99_4 N35_4 1_555 1_555
C104_4 N36_4 1_555 1_555
C106_4 N38_4 1_555 1_555
C107_4 N37_4 1_555 1_555
C107_4 N39_4 1_555 1_555
C108_4 N40_4 1_555 1_555
C112_4 N40_4 1_555 1_555
C1_4 H1_4 1_555 1_555
C2_4 C1_4 1_555 1_555
C3_4 C2_4 1_555 1_555
H2_4 C3_4 1_555 1_555
C4_4 C3_4 1_555 1_555
H3_4 C4_4 1_555 1_555
C5_4 C4_4 1_555 1_555
C6_4 N2_4 1_555 1_555
C7_4 H5_4 1_555 1_555
C8_4 C7_4 1_555 1_555
H6_4 C8_4 1_555 1_555
C9_4 C8_4 1_555 1_555
H7_4 C9_4 1_555 1_555
C10_4 C9_4 1_555 1_555
C11_4 C10_4 1_555 1_555
H8_4 C11_4 1_555 1_555
C12_4 C10_4 1_555 1_555
C13_4 C2_4 1_555 1_555
C14_4 C16_4 1_555 1_555
C15_4 H9_4 1_555 1_555
C16_4 C15_4 1_555 1_555
C17_4 C16_4 1_555 1_555
H10_4 C17_4 1_555 1_555
C18_4 C17_4 1_555 1_555
H11_4 C18_4 1_555 1_555
C19_4 C18_4 1_555 1_555
H12_4 C19_4 1_555 1_555
Co1_5 N2_4 1_555 1_555
Co2_4 N7_4 1_555 1_555
N1_4 C1_4 1_555 1_555
N3_4 C7_4 1_555 1_555
N4_4 C12_4 1_555 1_555
N5_4 C12_4 1_555 1_555
N6_4 C13_4 1_555 1_555
N7_4 C15_4 1_555 1_555
N8_4 Co2_4 1_555 1_555
S1_4 C6_4 1_555 1_555
C114_4 H73_4 1_555 1_555
C115_4 C114_4 1_555 1_555
C116_4 C115_4 1_555 1_555
H74_4 C116_4 1_555 1_555
C117_4 C116_4 1_555 1_555
H75_4 C117_4 1_555 1_555
C118_4 C117_4 1_555 1_555
H76_4 C118_4 1_555 1_555
C119_4 N43_4 1_555 1_555
C120_4 H77_4 1_555 1_555
C121_4 C120_4 1_555 1_555
H78_4 C121_4 1_555 1_555
C122_4 C121_4 1_555 1_555
H79_4 C122_4 1_555 1_555
C123_4 C122_4 1_555 1_555
C124_4 C123_4 1_555 1_555
H80_4 C124_4 1_555 1_555
C125_4 C123_4 1_555 1_555
C126_4 C115_4 1_555 1_555
C127_4 C129_4 1_555 1_555
C128_4 H81_4 1_555 1_555
C129_4 C128_4 1_555 1_555
C130_4 C129_4 1_555 1_555
H82_4 C130_4 1_555 1_555
C131_4 C130_4 1_555 1_555
H83_4 C131_4 1_555 1_555
C132_4 C131_4 1_555 1_555
H84_4 C132_4 1_555 1_555
Co5_5 N43_4 1_555 1_555
N42_4 Co1_5 1_555 1_555
N44_4 C120_4 1_555 1_555
N45_4 C125_4 1_555 1_555
N46_4 C125_4 1_555 1_555
N47_4 C126_4 1_555 1_555
N48_4 C128_4 1_555 1_555
S6_4 C119_4 1_555 1_555
C133_4 H85_4 1_555 1_555
C134_4 C133_4 1_555 1_555
C135_4 C134_4 1_555 1_555
H86_4 C135_4 1_555 1_555
C136_4 C135_4 1_555 1_555
H87_4 C136_4 1_555 1_555
C137_4 C136_4 1_555 1_555
H88_4 C137_4 1_555 1_555
C138_4 H89_4 1_555 1_555
C139_4 C138_4 1_555 1_555
H90_4 C139_4 1_555 1_555
C140_4 C139_4 1_555 1_555
H91_4 C140_4 1_555 1_555
C141_4 C140_4 1_555 1_555
C142_4 C141_4 1_555 1_555
H92_4 C142_4 1_555 1_555
C143_4 C141_4 1_555 1_555
C144_4 C134_4 1_555 1_555
C145_4 C147_4 1_555 1_555
C146_4 H93_4 1_555 1_555
C147_4 C146_4 1_555 1_555
C148_4 C147_4 1_555 1_555
H94_4 C148_4 1_555 1_555
C149_4 C148_4 1_555 1_555
H95_4 C149_4 1_555 1_555
C150_4 C149_4 1_555 1_555
H96_4 C150_4 1_555 1_555
N49_4 Co1_5 1_555 1_555
N50_4 C138_4 1_555 1_555
N51_4 C143_4 1_555 1_555
N52_4 C143_4 1_555 1_555
N53_4 C144_4 1_555 1_555
N54_4 C146_4 1_555 1_555
C151_4 N55_4 1_555 1_555
N55_4 Co1_5 1_555 1_555
S7_4 C151_4 1_555 1_555
N56_4 Co2_4 1_555 1_555
Co6_4 N1_4 1_555 1_555
C154_4 N58_4 1_555 1_555
N58_4 Co5_5 1_555 1_555
S10_4 C154_4 1_555 1_555
C155_4 N59_4 1_555 1_555
N59_4 Co6_4 1_555 1_555
S11_4 C155_4 1_555 1_555
Co12_5 N50_4 1_555 1_555
Co16_4 N48_4 1_555 1_555
Co17_4 N54_4 1_555 1_555
N62_4 Co5_5 1_555 1_555
N63_4 Co5_5 1_555 1_555
N64_4 Co1_5 1_555 1_555
N66_4 Co5_5 1_555 1_555
N67_4 Co6_4 1_555 1_555
N68_4 Co2_4 1_555 1_555
C5_4 N1_4 1_555 1_555
C11_4 N3_4 1_555 1_555
C13_4 N5_4 1_555 1_555
C14_4 N4_4 1_555 1_555
C14_4 N6_4 1_555 1_555
C19_4 N7_4 1_555 1_555
Co1_5 N3_4 1_555 1_555
C114_4 N42_4 1_555 1_555
C118_4 N42_4 1_555 1_555
C124_4 N44_4 1_555 1_555
C126_4 N46_4 1_555 1_555
C127_4 N45_4 1_555 1_555
C127_4 N47_4 1_555 1_555
C132_4 N48_4 1_555 1_555
Co5_5 N44_4 1_555 1_555
C133_4 N49_4 1_555 1_555
C137_4 N49_4 1_555 1_555
C142_4 N50_4 1_555 1_555
C144_4 N52_4 1_555 1_555
C145_4 N51_4 1_555 1_555
C145_4 N53_4 1_555 1_555
C150_4 N54_4 1_555 1_555
C156_4 N60_4 1_555 1_555
N60_4 Co6_5 1_555 1_555
S12_4 C156_4 1_555 1_555
N61_4 Co6_5 1_555 1_555
N65_4 Co6_5 1_555 1_555
C58_5 H37_5 1_555 1_555
C59_5 C58_5 1_555 1_555
H38_5 C59_5 1_555 1_555
C60_5 C59_5 1_555 1_555
H39_5 C60_5 1_555 1_555
C61_5 C60_5 1_555 1_555
C62_5 C61_5 1_555 1_555
H40_5 C62_5 1_555 1_555
C63_5 C61_5 1_555 1_555
N70_3 C58_5 1_555 1_555
N23_5 C63_5 1_555 1_555
C64_5 H41_5 1_555 1_555
C65_5 C64_5 1_555 1_555
H42_5 C65_5 1_555 1_555
C66_5 C65_5 1_555 1_555
H43_5 C66_5 1_555 1_555
C67_5 C66_5 1_555 1_555
C68_5 C67_5 1_555 1_555
H44_5 C68_5 1_555 1_555
C69_5 C67_5 1_555 1_555
N25_5 C63_5 1_555 1_555
C70_5 H45_5 1_555 1_555
C71_5 C70_5 1_555 1_555
H46_5 C71_5 1_555 1_555
C72_5 C71_5 1_555 1_555
H47_5 C72_5 1_555 1_555
C73_5 C72_5 1_555 1_555
C74_5 C73_5 1_555 1_555
H48_5 C74_5 1_555 1_555
C75_5 N23_5 1_555 1_555
N26_5 C70_5 1_555 1_555
N27_5 C69_5 1_555 1_555
C95_5 H61_5 1_555 1_555
C96_5 C95_5 1_555 1_555
C97_5 C96_5 1_555 1_555
H62_5 C97_5 1_555 1_555
C98_5 C97_5 1_555 1_555
H63_5 C98_5 1_555 1_555
C99_5 C98_5 1_555 1_555
H64_5 C99_5 1_555 1_555
C100_5 H65_5 1_555 1_555
C101_5 C100_5 1_555 1_555
H66_5 C101_5 1_555 1_555
C102_5 C101_5 1_555 1_555
H67_5 C102_5 1_555 1_555
C103_5 C102_5 1_555 1_555
C104_5 C103_5 1_555 1_555
H68_5 C104_5 1_555 1_555
C105_5 C103_5 1_555 1_555
C106_5 C96_5 1_555 1_555
C107_5 C109_5 1_555 1_555
C108_5 H69_5 1_555 1_555
C109_5 C108_5 1_555 1_555
C110_5 C109_5 1_555 1_555
H70_5 C110_5 1_555 1_555
C111_5 C110_5 1_555 1_555
H71_5 C111_5 1_555 1_555
C112_5 C111_5 1_555 1_555
H72_5 C112_5 1_555 1_555
N35_5 C95_5 1_555 1_555
N36_5 C100_5 1_555 1_555
N37_5 C105_5 1_555 1_555
N38_5 C105_5 1_555 1_555
N39_5 C106_5 1_555 1_555
C133_5 H85_5 1_555 1_555
C134_5 C133_5 1_555 1_555
C135_5 C134_5 1_555 1_555
H86_5 C135_5 1_555 1_555
C136_5 C135_5 1_555 1_555
H87_5 C136_5 1_555 1_555
C137_5 C136_5 1_555 1_555
C138_5 H89_5 1_555 1_555
C139_5 C138_5 1_555 1_555
H90_5 C139_5 1_555 1_555
C140_5 C139_5 1_555 1_555
H91_5 C140_5 1_555 1_555
C141_5 C140_5 1_555 1_555
C142_5 C141_5 1_555 1_555
H92_5 C142_5 1_555 1_555
C143_5 C141_5 1_555 1_555
C144_5 C134_5 1_555 1_555
C145_5 C147_5 1_555 1_555
C146_5 H93_5 1_555 1_555
C147_5 C146_5 1_555 1_555
C148_5 C147_5 1_555 1_555
H94_5 C148_5 1_555 1_555
C149_5 C148_5 1_555 1_555
H95_5 C149_5 1_555 1_555
C150_5 C149_5 1_555 1_555
H96_5 C150_5 1_555 1_555
N49_5 Co7_3 1_555 1_555
N50_5 C138_5 1_555 1_555
N51_5 C143_5 1_555 1_555
N52_5 C143_5 1_555 1_555
N53_5 C144_5 1_555 1_555
N54_5 C146_5 1_555 1_555
C151_5 N55_5 1_555 1_555
N55_5 Co7_3 1_555 1_555
S7_5 C151_5 1_555 1_555
C155_5 N59_5 1_555 1_555
N59_5 Co10_4 1_555 1_555
S11_5 C155_5 1_555 1_555
C156_5 N60_5 1_555 1_555
N60_5 Co10_4 1_555 1_555
S12_5 C156_5 1_555 1_555
Co9_6 N36_5 1_555 1_555
Co12_4 N35_5 1_555 1_555
Co12_6 N50_5 1_555 1_555
Co17_5 N54_5 1_555 1_555
N61_5 Co10_4 1_555 1_555
N65_5 Co10_4 1_555 1_555
N67_5 Co10_4 1_555 1_555
C62_5 N70_3 1_555 1_555
C64_5 N71_3 1_555 1_555
C68_5 N71_3 1_555 1_555
C69_5 N25_5 1_555 1_555
C73_5 C75_5 1_555 1_555
C74_5 N26_5 1_555 1_555
C75_5 N27_5 1_555 1_555
C99_5 N35_5 1_555 1_555
C104_5 N36_5 1_555 1_555
C106_5 N38_5 1_555 1_555
C107_5 N37_5 1_555 1_555
C107_5 N39_5 1_555 1_555
C108_5 N68_3 1_555 1_555
C112_5 N68_3 1_555 1_555
C133_5 N49_5 1_555 1_555
C137_5 N49_5 1_555 1_555
C142_5 N50_5 1_555 1_555
C144_5 N52_5 1_555 1_555
C145_5 N51_5 1_555 1_555
C145_5 N53_5 1_555 1_555
C150_5 N54_5 1_555 1_555
C6_5 N2_5 1_555 1_555
Co7_4 N2_5 1_555 1_555
S1_5 C6_5 1_555 1_555
C114_5 H73_5 1_555 1_555
C115_5 C114_5 1_555 1_555
C116_5 C115_5 1_555 1_555
H74_5 C116_5 1_555 1_555
C117_5 C116_5 1_555 1_555
H75_5 C117_5 1_555 1_555
C118_5 C117_5 1_555 1_555
C119_5 N43_5 1_555 1_555
C120_5 H77_5 1_555 1_555
C121_5 C120_5 1_555 1_555
H78_5 C121_5 1_555 1_555
C122_5 C121_5 1_555 1_555
H79_5 C122_5 1_555 1_555
C123_5 C122_5 1_555 1_555
C124_5 C123_5 1_555 1_555
H80_5 C124_5 1_555 1_555
C125_5 C123_5 1_555 1_555
C126_5 C115_5 1_555 1_555
C127_5 C129_5 1_555 1_555
C128_5 H81_5 1_555 1_555
C129_5 C128_5 1_555 1_555
C130_5 C129_5 1_555 1_555
H82_5 C130_5 1_555 1_555
C131_5 C130_5 1_555 1_555
H83_5 C131_5 1_555 1_555
C132_5 C131_5 1_555 1_555
H84_5 C132_5 1_555 1_555
Co5_6 N43_5 1_555 1_555
N42_5 Co7_4 1_555 1_555
N44_5 C120_5 1_555 1_555
N45_5 C125_5 1_555 1_555
N46_5 C125_5 1_555 1_555
N47_5 C126_5 1_555 1_555
N48_5 C128_5 1_555 1_555
S6_5 C119_5 1_555 1_555
C154_5 N58_5 1_555 1_555
N58_5 Co5_6 1_555 1_555
S10_5 C154_5 1_555 1_555
Co16_5 N48_5 1_555 1_555
N62_5 Co5_6 1_555 1_555
N63_5 Co5_6 1_555 1_555
N64_5 Co7_4 1_555 1_555
N66_5 Co5_6 1_555 1_555
C114_5 N42_5 1_555 1_555
C118_5 N42_5 1_555 1_555
C124_5 N44_5 1_555 1_555
C126_5 N46_5 1_555 1_555
C127_5 N45_5 1_555 1_555
C127_5 N47_5 1_555 1_555
C132_5 N48_5 1_555 1_555
Co5_6 N44_5 1_555 1_555
C119_6 N43_6 1_555 1_555
Co5_7 N43_6 1_555 1_555
S6_6 C119_6 1_555 1_555
N62_6 Co5_7 1_555 1_555
N66_6 Co5_7 1_555 1_555
C6_6 N2_6 1_555 1_555
Co7_2 N2_6 1_555 1_555
S1_6 C6_6 1_555 1_555
C58_6 H37_6 1_555 1_555
C59_6 C58_6 1_555 1_555
H38_6 C59_6 1_555 1_555
C60_6 C59_6 1_555 1_555
H39_6 C60_6 1_555 1_555
C61_6 C60_6 1_555 1_555
C62_6 C61_6 1_555 1_555
H40_6 C62_6 1_555 1_555
C63_6 C61_6 1_555 1_555
N70_2 C58_6 1_555 1_555
N23_6 C63_6 1_555 1_555
C64_6 H41_6 1_555 1_555
C65_6 C64_6 1_555 1_555
H42_6 C65_6 1_555 1_555
C66_6 C65_6 1_555 1_555
H43_6 C66_6 1_555 1_555
C67_6 C66_6 1_555 1_555
C68_6 C67_6 1_555 1_555
H44_6 C68_6 1_555 1_555
C69_6 C67_6 1_555 1_555
N25_6 C63_6 1_555 1_555
C70_6 H45_6 1_555 1_555
C71_6 C70_6 1_555 1_555
H46_6 C71_6 1_555 1_555
C72_6 C71_6 1_555 1_555
H47_6 C72_6 1_555 1_555
C73_6 C72_6 1_555 1_555
C74_6 C73_6 1_555 1_555
H48_6 C74_6 1_555 1_555
C75_6 N23_6 1_555 1_555
N26_6 C70_6 1_555 1_555
N27_6 C69_6 1_555 1_555
C95_6 H61_6 1_555 1_555
C96_6 C95_6 1_555 1_555
C97_6 C96_6 1_555 1_555
H62_6 C97_6 1_555 1_555
C98_6 C97_6 1_555 1_555
H63_6 C98_6 1_555 1_555
C99_6 C98_6 1_555 1_555
H64_6 C99_6 1_555 1_555
C100_6 H65_6 1_555 1_555
C101_6 C100_6 1_555 1_555
H66_6 C101_6 1_555 1_555
C102_6 C101_6 1_555 1_555
H67_6 C102_6 1_555 1_555
C103_6 C102_6 1_555 1_555
C104_6 C103_6 1_555 1_555
H68_6 C104_6 1_555 1_555
C105_6 C103_6 1_555 1_555
C106_6 C96_6 1_555 1_555
C107_6 C109_6 1_555 1_555
C108_6 H69_6 1_555 1_555
C109_6 C108_6 1_555 1_555
C110_6 C109_6 1_555 1_555
H70_6 C110_6 1_555 1_555
C111_6 C110_6 1_555 1_555
H71_6 C111_6 1_555 1_555
C112_6 C111_6 1_555 1_555
H72_6 C112_6 1_555 1_555
N35_6 C95_6 1_555 1_555
N36_6 C100_6 1_555 1_555
N37_6 C105_6 1_555 1_555
N38_6 C105_6 1_555 1_555
N39_6 C106_6 1_555 1_555
C114_6 H73_6 1_555 1_555
C115_6 C114_6 1_555 1_555
C116_6 C115_6 1_555 1_555
H74_6 C116_6 1_555 1_555
C117_6 C116_6 1_555 1_555
H75_6 C117_6 1_555 1_555
C118_6 C117_6 1_555 1_555
H76_6 C118_6 1_555 1_555
C120_6 H77_6 1_555 1_555
C121_6 C120_6 1_555 1_555
H78_6 C121_6 1_555 1_555
C122_6 C121_6 1_555 1_555
H79_6 C122_6 1_555 1_555
C123_6 C122_6 1_555 1_555
C124_6 C123_6 1_555 1_555
H80_6 C124_6 1_555 1_555
C125_6 C123_6 1_555 1_555
C126_6 C115_6 1_555 1_555
C127_6 C129_6 1_555 1_555
C128_6 H81_6 1_555 1_555
C129_6 C128_6 1_555 1_555
C130_6 C129_6 1_555 1_555
H82_6 C130_6 1_555 1_555
C131_6 C130_6 1_555 1_555
H83_6 C131_6 1_555 1_555
C132_6 C131_6 1_555 1_555
H84_6 C132_6 1_555 1_555
N42_6 Co7_2 1_555 1_555
N44_6 C120_6 1_555 1_555
N45_6 C125_6 1_555 1_555
N46_6 C125_6 1_555 1_555
N47_6 C126_6 1_555 1_555
N48_6 C128_6 1_555 1_555
C133_6 H85_6 1_555 1_555
C134_6 C133_6 1_555 1_555
C135_6 C134_6 1_555 1_555
H86_6 C135_6 1_555 1_555
C136_6 C135_6 1_555 1_555
H87_6 C136_6 1_555 1_555
C137_6 C136_6 1_555 1_555
H88_6 C137_6 1_555 1_555
C138_6 H89_6 1_555 1_555
C139_6 C138_6 1_555 1_555
H90_6 C139_6 1_555 1_555
C140_6 C139_6 1_555 1_555
H91_6 C140_6 1_555 1_555
C141_6 C140_6 1_555 1_555
C142_6 C141_6 1_555 1_555
H92_6 C142_6 1_555 1_555
C143_6 C141_6 1_555 1_555
C144_6 C134_6 1_555 1_555
C145_6 C147_6 1_555 1_555
C146_6 H93_6 1_555 1_555
C147_6 C146_6 1_555 1_555
C148_6 C147_6 1_555 1_555
H94_6 C148_6 1_555 1_555
C149_6 C148_6 1_555 1_555
H95_6 C149_6 1_555 1_555
C150_6 C149_6 1_555 1_555
H96_6 C150_6 1_555 1_555
N49_6 Co7_2 1_555 1_555
N50_6 C138_6 1_555 1_555
N51_6 C143_6 1_555 1_555
N52_6 C143_6 1_555 1_555
N53_6 C144_6 1_555 1_555
N54_6 C146_6 1_555 1_555
C151_6 N55_6 1_555 1_555
N55_6 Co7_2 1_555 1_555
S7_6 C151_6 1_555 1_555
C154_6 N58_6 1_555 1_555
N58_6 Co5_8 1_555 1_555
S10_6 C154_6 1_555 1_555
C155_6 N59_6 1_555 1_555
N59_6 Co10_3 1_555 1_555
S11_6 C155_6 1_555 1_555
C156_6 N60_6 1_555 1_555
N60_6 Co10_3 1_555 1_555
S12_6 C156_6 1_555 1_555
Co9_8 N36_6 1_555 1_555
Co12_3 N35_6 1_555 1_555
Co12_8 N50_6 1_555 1_555
Co15_6 N26_6 1_555 1_555
Co16_6 N48_6 1_555 1_555
Co17_6 N54_6 1_555 1_555
N61_6 Co10_3 1_555 1_555
N63_6 Co5_8 1_555 1_555
N64_6 Co7_2 1_555 1_555
N65_6 Co10_3 1_555 1_555
N67_6 Co10_3 1_555 1_555
C62_6 N70_2 1_555 1_555
C64_6 N71_2 1_555 1_555
C68_6 N71_2 1_555 1_555
C69_6 N25_6 1_555 1_555
C73_6 C75_6 1_555 1_555
C74_6 N26_6 1_555 1_555
C75_6 N27_6 1_555 1_555
C99_6 N35_6 1_555 1_555
C104_6 N36_6 1_555 1_555
C106_6 N38_6 1_555 1_555
C107_6 N37_6 1_555 1_555
C107_6 N39_6 1_555 1_555
C108_6 N68_2 1_555 1_555
C112_6 N68_2 1_555 1_555
C114_6 N42_6 1_555 1_555
C118_6 N42_6 1_555 1_555
C124_6 N44_6 1_555 1_555
C126_6 N46_6 1_555 1_555
C127_6 N45_6 1_555 1_555
C127_6 N47_6 1_555 1_555
C132_6 N48_6 1_555 1_555
Co5_8 N44_6 1_555 1_555
C133_6 N49_6 1_555 1_555
C137_6 N49_6 1_555 1_555
C142_6 N50_6 1_555 1_555
C144_6 N52_6 1_555 1_555
C145_6 N51_6 1_555 1_555
C145_6 N53_6 1_555 1_555
C150_6 N54_6 1_555 1_555
C6_7 N2_7 1_555 1_555
Co7_5 N2_7 1_555 1_555
S1_7 C6_7 1_555 1_555
C58_7 H37_7 1_555 1_555
C59_7 C58_7 1_555 1_555
H38_7 C59_7 1_555 1_555
C60_7 C59_7 1_555 1_555
H39_7 C60_7 1_555 1_555
C61_7 C60_7 1_555 1_555
C62_7 C61_7 1_555 1_555
H40_7 C62_7 1_555 1_555
C63_7 C61_7 1_555 1_555
N70_4 C58_7 1_555 1_555
N23_7 C63_7 1_555 1_555
C64_7 H41_7 1_555 1_555
C65_7 C64_7 1_555 1_555
H42_7 C65_7 1_555 1_555
C66_7 C65_7 1_555 1_555
H43_7 C66_7 1_555 1_555
C67_7 C66_7 1_555 1_555
C68_7 C67_7 1_555 1_555
H44_7 C68_7 1_555 1_555
C69_7 C67_7 1_555 1_555
N25_7 C63_7 1_555 1_555
C70_7 H45_7 1_555 1_555
C71_7 C70_7 1_555 1_555
H46_7 C71_7 1_555 1_555
C72_7 C71_7 1_555 1_555
H47_7 C72_7 1_555 1_555
C73_7 C72_7 1_555 1_555
C74_7 C73_7 1_555 1_555
H48_7 C74_7 1_555 1_555
C75_7 N23_7 1_555 1_555
N26_7 C70_7 1_555 1_555
N27_7 C69_7 1_555 1_555
C114_7 H73_7 1_555 1_555
C115_7 C114_7 1_555 1_555
C116_7 C115_7 1_555 1_555
H74_7 C116_7 1_555 1_555
C117_7 C116_7 1_555 1_555
H75_7 C117_7 1_555 1_555
C118_7 C117_7 1_555 1_555
H76_7 C118_7 1_555 1_555
C119_7 N43_7 1_555 1_555
C120_7 H77_7 1_555 1_555
C121_7 C120_7 1_555 1_555
H78_7 C121_7 1_555 1_555
C122_7 C121_7 1_555 1_555
H79_7 C122_7 1_555 1_555
C123_7 C122_7 1_555 1_555
C124_7 C123_7 1_555 1_555
H80_7 C124_7 1_555 1_555
C125_7 C123_7 1_555 1_555
C126_7 C115_7 1_555 1_555
C127_7 C129_7 1_555 1_555
C128_7 H81_7 1_555 1_555
C129_7 C128_7 1_555 1_555
C130_7 C129_7 1_555 1_555
H82_7 C130_7 1_555 1_555
C131_7 C130_7 1_555 1_555
H83_7 C131_7 1_555 1_555
C132_7 C131_7 1_555 1_555
H84_7 C132_7 1_555 1_555
Co5_9 N43_7 1_555 1_555
N42_7 Co7_5 1_555 1_555
N44_7 C120_7 1_555 1_555
N45_7 C125_7 1_555 1_555
N46_7 C125_7 1_555 1_555
N47_7 C126_7 1_555 1_555
N48_7 C128_7 1_555 1_555
S6_7 C119_7 1_555 1_555
C133_7 H85_7 1_555 1_555
C134_7 C133_7 1_555 1_555
C135_7 C134_7 1_555 1_555
H86_7 C135_7 1_555 1_555
C136_7 C135_7 1_555 1_555
H87_7 C136_7 1_555 1_555
C137_7 C136_7 1_555 1_555
H88_7 C137_7 1_555 1_555
C138_7 H89_7 1_555 1_555
C139_7 C138_7 1_555 1_555
H90_7 C139_7 1_555 1_555
C140_7 C139_7 1_555 1_555
H91_7 C140_7 1_555 1_555
C141_7 C140_7 1_555 1_555
C142_7 C141_7 1_555 1_555
H92_7 C142_7 1_555 1_555
C143_7 C141_7 1_555 1_555
C144_7 C134_7 1_555 1_555
C145_7 C147_7 1_555 1_555
C146_7 H93_7 1_555 1_555
C147_7 C146_7 1_555 1_555
C148_7 C147_7 1_555 1_555
H94_7 C148_7 1_555 1_555
C149_7 C148_7 1_555 1_555
H95_7 C149_7 1_555 1_555
C150_7 C149_7 1_555 1_555
H96_7 C150_7 1_555 1_555
N49_7 Co7_5 1_555 1_555
N50_7 C138_7 1_555 1_555
N51_7 C143_7 1_555 1_555
N52_7 C143_7 1_555 1_555
N53_7 C144_7 1_555 1_555
N54_7 C146_7 1_555 1_555
C151_7 N55_7 1_555 1_555
N55_7 Co7_5 1_555 1_555
S7_7 C151_7 1_555 1_555
C154_7 N58_7 1_555 1_555
N58_7 Co5_9 1_555 1_555
S10_7 C154_7 1_555 1_555
C155_7 N59_7 1_555 1_555
N59_7 Co10_5 1_555 1_555
S11_7 C155_7 1_555 1_555
C156_7 N60_7 1_555 1_555
N60_7 Co10_5 1_555 1_555
S12_7 C156_7 1_555 1_555
Co12_9 N50_7 1_555 1_555
Co15_7 N26_7 1_555 1_555
Co16_7 N48_7 1_555 1_555
Co17_7 N54_7 1_555 1_555
N61_7 Co10_5 1_555 1_555
N62_7 Co5_9 1_555 1_555
N63_7 Co5_9 1_555 1_555
N64_7 Co7_5 1_555 1_555
N65_7 Co10_5 1_555 1_555
N66_7 Co5_9 1_555 1_555
N67_7 Co10_5 1_555 1_555
C62_7 N70_4 1_555 1_555
C64_7 N71_4 1_555 1_555
C68_7 N71_4 1_555 1_555
C69_7 N25_7 1_555 1_555
C73_7 C75_7 1_555 1_555
C74_7 N26_7 1_555 1_555
C75_7 N27_7 1_555 1_555
C114_7 N42_7 1_555 1_555
C118_7 N42_7 1_555 1_555
C124_7 N44_7 1_555 1_555
C126_7 N46_7 1_555 1_555
C127_7 N45_7 1_555 1_555
C127_7 N47_7 1_555 1_555
C132_7 N48_7 1_555 1_555
Co5_9 N44_7 1_555 1_555
C133_7 N49_7 1_555 1_555
C137_7 N49_7 1_555 1_555
C142_7 N50_7 1_555 1_555
C144_7 N52_7 1_555 1_555
C145_7 N51_7 1_555 1_555
C145_7 N53_7 1_555 1_555
C150_7 N54_7 1_555 1_555
C95_7 H61_7 1_555 1_555
C96_7 C95_7 1_555 1_555
C97_7 C96_7 1_555 1_555
H62_7 C97_7 1_555 1_555
C98_7 C97_7 1_555 1_555
H63_7 C98_7 1_555 1_555
C99_7 C98_7 1_555 1_555
H64_7 C99_7 1_555 1_555
C100_7 H65_7 1_555 1_555
C101_7 C100_7 1_555 1_555
H66_7 C101_7 1_555 1_555
C102_7 C101_7 1_555 1_555
H67_7 C102_7 1_555 1_555
C103_7 C102_7 1_555 1_555
C104_7 C103_7 1_555 1_555
H68_7 C104_7 1_555 1_555
C105_7 C103_7 1_555 1_555
C106_7 C96_7 1_555 1_555
C107_7 C109_7 1_555 1_555
C108_7 H69_7 1_555 1_555
C109_7 C108_7 1_555 1_555
C110_7 C109_7 1_555 1_555
H70_7 C110_7 1_555 1_555
C111_7 C110_7 1_555 1_555
H71_7 C111_7 1_555 1_555
C112_7 C111_7 1_555 1_555
H72_7 C112_7 1_555 1_555
N35_7 C95_7 1_555 1_555
N36_7 C100_7 1_555 1_555
N37_7 C105_7 1_555 1_555
N38_7 C105_7 1_555 1_555
N39_7 C106_7 1_555 1_555
Co9_9 N36_7 1_555 1_555
Co12_5 N35_7 1_555 1_555
C99_7 N35_7 1_555 1_555
C104_7 N36_7 1_555 1_555
C106_7 N38_7 1_555 1_555
C107_7 N37_7 1_555 1_555
C107_7 N39_7 1_555 1_555
C108_7 N68_4 1_555 1_555
C112_7 N68_4 1_555 1_555
C58_8 H37_8 1_555 1_555
C59_8 C58_8 1_555 1_555
H38_8 C59_8 1_555 1_555
C60_8 C59_8 1_555 1_555
H39_8 C60_8 1_555 1_555
C61_8 C60_8 1_555 1_555
C62_8 C61_8 1_555 1_555
H40_8 C62_8 1_555 1_555
C63_8 C61_8 1_555 1_555
N70 C58_8 1_555 1_555
N23_8 C63_8 1_555 1_555
C64_8 H41_8 1_555 1_555
C65_8 C64_8 1_555 1_555
H42_8 C65_8 1_555 1_555
C66_8 C65_8 1_555 1_555
H43_8 C66_8 1_555 1_555
C67_8 C66_8 1_555 1_555
C68_8 C67_8 1_555 1_555
H44_8 C68_8 1_555 1_555
C69_8 C67_8 1_555 1_555
N25_8 C63_8 1_555 1_555
C70_8 H45_8 1_555 1_555
C71_8 C70_8 1_555 1_555
H46_8 C71_8 1_555 1_555
C72_8 C71_8 1_555 1_555
H47_8 C72_8 1_555 1_555
C73_8 C72_8 1_555 1_555
C74_8 C73_8 1_555 1_555
H48_8 C74_8 1_555 1_555
C75_8 N23_8 1_555 1_555
N26_8 C70_8 1_555 1_555
N27_8 C69_8 1_555 1_555
C95_8 H61_8 1_555 1_555
C96_8 C95_8 1_555 1_555
C97_8 C96_8 1_555 1_555
H62_8 C97_8 1_555 1_555
C98_8 C97_8 1_555 1_555
H63_8 C98_8 1_555 1_555
C99_8 C98_8 1_555 1_555
C100_8 H65_8 1_555 1_555
C101_8 C100_8 1_555 1_555
H66_8 C101_8 1_555 1_555
C102_8 C101_8 1_555 1_555
H67_8 C102_8 1_555 1_555
C103_8 C102_8 1_555 1_555
C104_8 C103_8 1_555 1_555
H68_8 C104_8 1_555 1_555
C105_8 C103_8 1_555 1_555
C106_8 C96_8 1_555 1_555
C107_8 C109_8 1_555 1_555
C108_8 H69_8 1_555 1_555
C109_8 C108_8 1_555 1_555
C110_8 C109_8 1_555 1_555
H70_8 C110_8 1_555 1_555
C111_8 C110_8 1_555 1_555
H71_8 C111_8 1_555 1_555
C112_8 C111_8 1_555 1_555
H72_8 C112_8 1_555 1_555
N35_8 C95_8 1_555 1_555
N36_8 C100_8 1_555 1_555
N37_8 C105_8 1_555 1_555
N38_8 C105_8 1_555 1_555
N39_8 C106_8 1_555 1_555
Co9_10 N36_8 1_555 1_555
Co12 N35_8 1_555 1_555
Co15_8 N26_8 1_555 1_555
C62_8 N70 1_555 1_555
C64_8 N71 1_555 1_555
C68_8 N71 1_555 1_555
C69_8 N25_8 1_555 1_555
C73_8 C75_8 1_555 1_555
C74_8 N26_8 1_555 1_555
C75_8 N27_8 1_555 1_555
C99_8 N35_8 1_555 1_555
C104_8 N36_8 1_555 1_555
C106_8 N38_8 1_555 1_555
C107_8 N37_8 1_555 1_555
C107_8 N39_8 1_555 1_555
C108_8 N68 1_555 1_555
C112_8 N68 1_555 1_555
C6_8 N2_8 1_555 1_555
Co7 N2_8 1_555 1_555
S1_8 C6_8 1_555 1_555
C114_8 H73_8 1_555 1_555
C115_8 C114_8 1_555 1_555
C116_8 C115_8 1_555 1_555
H74_8 C116_8 1_555 1_555
C117_8 C116_8 1_555 1_555
H75_8 C117_8 1_555 1_555
C118_8 C117_8 1_555 1_555
H76_8 C118_8 1_555 1_555
C119_8 N43_8 1_555 1_555
C120_8 H77_8 1_555 1_555
C121_8 C120_8 1_555 1_555
H78_8 C121_8 1_555 1_555
C122_8 C121_8 1_555 1_555
H79_8 C122_8 1_555 1_555
C123_8 C122_8 1_555 1_555
C124_8 C123_8 1_555 1_555
H80_8 C124_8 1_555 1_555
C125_8 C123_8 1_555 1_555
C126_8 C115_8 1_555 1_555
C127_8 C129_8 1_555 1_555
C128_8 H81_8 1_555 1_555
C129_8 C128_8 1_555 1_555
C130_8 C129_8 1_555 1_555
H82_8 C130_8 1_555 1_555
C131_8 C130_8 1_555 1_555
H83_8 C131_8 1_555 1_555
C132_8 C131_8 1_555 1_555
H84_8 C132_8 1_555 1_555
Co5_10 N43_8 1_555 1_555
N42_8 Co7 1_555 1_555
N44_8 C120_8 1_555 1_555
N45_8 C125_8 1_555 1_555
N46_8 C125_8 1_555 1_555
N47_8 C126_8 1_555 1_555
N48_8 C128_8 1_555 1_555
S6_8 C119_8 1_555 1_555
C133_8 H85_8 1_555 1_555
C134_8 C133_8 1_555 1_555
C135_8 C134_8 1_555 1_555
H86_8 C135_8 1_555 1_555
C136_8 C135_8 1_555 1_555
H87_8 C136_8 1_555 1_555
C137_8 C136_8 1_555 1_555
H88_8 C137_8 1_555 1_555
C138_8 H89_8 1_555 1_555
C139_8 C138_8 1_555 1_555
H90_8 C139_8 1_555 1_555
C140_8 C139_8 1_555 1_555
H91_8 C140_8 1_555 1_555
C141_8 C140_8 1_555 1_555
C142_8 C141_8 1_555 1_555
H92_8 C142_8 1_555 1_555
C143_8 C141_8 1_555 1_555
C144_8 C134_8 1_555 1_555
C145_8 C147_8 1_555 1_555
C146_8 H93_8 1_555 1_555
C147_8 C146_8 1_555 1_555
C148_8 C147_8 1_555 1_555
H94_8 C148_8 1_555 1_555
C149_8 C148_8 1_555 1_555
H95_8 C149_8 1_555 1_555
C150_8 C149_8 1_555 1_555
H96_8 C150_8 1_555 1_555
N49_8 Co7 1_555 1_555
N50_8 C138_8 1_555 1_555
N51_8 C143_8 1_555 1_555
N52_8 C143_8 1_555 1_555
N53_8 C144_8 1_555 1_555
N54_8 C146_8 1_555 1_555
C151_8 N55_8 1_555 1_555
N55_8 Co7 1_555 1_555
S7_8 C151_8 1_555 1_555
C154_8 N58_8 1_555 1_555
N58_8 Co5_10 1_555 1_555
S10_8 C154_8 1_555 1_555
C155_8 N59_8 1_555 1_555
N59_8 Co10 1_555 1_555
S11_8 C155_8 1_555 1_555
Co12_10 N50_8 1_555 1_555
Co16_8 N48_8 1_555 1_555
Co17_8 N54_8 1_555 1_555
N62_8 Co5_10 1_555 1_555
N63_8 Co5_10 1_555 1_555
N64_8 Co7 1_555 1_555
N66_8 Co5_10 1_555 1_555
N67_8 Co10 1_555 1_555
C114_8 N42_8 1_555 1_555
C118_8 N42_8 1_555 1_555
C124_8 N44_8 1_555 1_555
C126_8 N46_8 1_555 1_555
C127_8 N45_8 1_555 1_555
C127_8 N47_8 1_555 1_555
C132_8 N48_8 1_555 1_555
Co5_10 N44_8 1_555 1_555
C133_8 N49_8 1_555 1_555
C137_8 N49_8 1_555 1_555
C142_8 N50_8 1_555 1_555
C144_8 N52_8 1_555 1_555
C145_8 N51_8 1_555 1_555
C145_8 N53_8 1_555 1_555
C150_8 N54_8 1_555 1_555
C156_8 N60_8 1_555 1_555
N60_8 Co10_2 1_555 1_555
S12_8 C156_8 1_555 1_555
N61_8 Co10_2 1_555 1_555
N65_8 Co10_2 1_555 1_555
C95_9 H61_9 1_555 1_555
C96_9 C95_9 1_555 1_555
C97_9 C96_9 1_555 1_555
H62_9 C97_9 1_555 1_555
C98_9 C97_9 1_555 1_555
H63_9 C98_9 1_555 1_555
C99_9 C98_9 1_555 1_555
H64_9 C99_9 1_555 1_555
C100_9 H65_9 1_555 1_555
C101_9 C100_9 1_555 1_555
H66_9 C101_9 1_555 1_555
C102_9 C101_9 1_555 1_555
H67_9 C102_9 1_555 1_555
C103_9 C102_9 1_555 1_555
C104_9 C103_9 1_555 1_555
H68_9 C104_9 1_555 1_555
C105_9 C103_9 1_555 1_555
C106_9 C96_9 1_555 1_555
C107_9 C109_9 1_555 1_555
C108_9 H69_9 1_555 1_555
C109_9 C108_9 1_555 1_555
C110_9 C109_9 1_555 1_555
H70_9 C110_9 1_555 1_555
C111_9 C110_9 1_555 1_555
H71_9 C111_9 1_555 1_555
C112_9 C111_9 1_555 1_555
H72_9 C112_9 1_555 1_555
N35_9 C95_9 1_555 1_555
N36_9 C100_9 1_555 1_555
N37_9 C105_9 1_555 1_555
N38_9 C105_9 1_555 1_555
N39_9 C106_9 1_555 1_555
C133_9 H85_9 1_555 1_555
C134_9 C133_9 1_555 1_555
C135_9 C134_9 1_555 1_555
H86_9 C135_9 1_555 1_555
C136_9 C135_9 1_555 1_555
H87_9 C136_9 1_555 1_555
C137_9 C136_9 1_555 1_555
C138_9 H89_9 1_555 1_555
C139_9 C138_9 1_555 1_555
H90_9 C139_9 1_555 1_555
C140_9 C139_9 1_555 1_555
H91_9 C140_9 1_555 1_555
C141_9 C140_9 1_555 1_555
C142_9 C141_9 1_555 1_555
H92_9 C142_9 1_555 1_555
C143_9 C141_9 1_555 1_555
C144_9 C134_9 1_555 1_555
C145_9 C147_9 1_555 1_555
C146_9 H93_9 1_555 1_555
C147_9 C146_9 1_555 1_555
C148_9 C147_9 1_555 1_555
H94_9 C148_9 1_555 1_555
C149_9 C148_9 1_555 1_555
H95_9 C149_9 1_555 1_555
C150_9 C149_9 1_555 1_555
H96_9 C150_9 1_555 1_555
N49_9 Co8_4 1_555 1_555
N50_9 C138_9 1_555 1_555
N51_9 C143_9 1_555 1_555
N52_9 C143_9 1_555 1_555
N53_9 C144_9 1_555 1_555
N54_9 C146_9 1_555 1_555
C151_9 N55_9 1_555 1_555
N55_9 Co8_4 1_555 1_555
S7_9 C151_9 1_555 1_555
C155_9 N59_9 1_555 1_555
N59_9 Co13_5 1_555 1_555
S11_9 C155_9 1_555 1_555
C156_9 N60_9 1_555 1_555
N60_9 Co13_5 1_555 1_555
S12_9 C156_9 1_555 1_555
Co9_11 N36_9 1_555 1_555
Co12_9 N35_9 1_555 1_555
Co11_4 N50_9 1_555 1_555
Co17_9 N54_9 1_555 1_555
N61_9 Co13_5 1_555 1_555
N65_9 Co13_5 1_555 1_555
N67_9 Co13_5 1_555 1_555
C99_9 N35_9 1_555 1_555
C104_9 N36_9 1_555 1_555
C106_9 N38_9 1_555 1_555
C107_9 N37_9 1_555 1_555
C107_9 N39_9 1_555 1_555
C108_9 N69_4 1_555 1_555
C112_9 N69_4 1_555 1_555
C133_9 N49_9 1_555 1_555
C137_9 N49_9 1_555 1_555
C142_9 N50_9 1_555 1_555
C144_9 N52_9 1_555 1_555
C145_9 N51_9 1_555 1_555
C145_9 N53_9 1_555 1_555
C150_9 N54_9 1_555 1_555
C6_9 N2_9 1_555 1_555
Co8_5 N2_9 1_555 1_555
S1_9 C6_9 1_555 1_555
C114_9 H73_9 1_555 1_555
C115_9 C114_9 1_555 1_555
C116_9 C115_9 1_555 1_555
H74_9 C116_9 1_555 1_555
C117_9 C116_9 1_555 1_555
H75_9 C117_9 1_555 1_555
C118_9 C117_9 1_555 1_555
C119_9 N43_9 1_555 1_555
C120_9 H77_9 1_555 1_555
C121_9 C120_9 1_555 1_555
H78_9 C121_9 1_555 1_555
C122_9 C121_9 1_555 1_555
H79_9 C122_9 1_555 1_555
C123_9 C122_9 1_555 1_555
C124_9 C123_9 1_555 1_555
H80_9 C124_9 1_555 1_555
C125_9 C123_9 1_555 1_555
C126_9 C115_9 1_555 1_555
C127_9 C129_9 1_555 1_555
C128_9 H81_9 1_555 1_555
C129_9 C128_9 1_555 1_555
C130_9 C129_9 1_555 1_555
H82_9 C130_9 1_555 1_555
C131_9 C130_9 1_555 1_555
H83_9 C131_9 1_555 1_555
C132_9 C131_9 1_555 1_555
H84_9 C132_9 1_555 1_555
Co5_11 N43_9 1_555 1_555
N42_9 Co8_5 1_555 1_555
N44_9 C120_9 1_555 1_555
N45_9 C125_9 1_555 1_555
N46_9 C125_9 1_555 1_555
N47_9 C126_9 1_555 1_555
N48_9 C128_9 1_555 1_555
S6_9 C119_9 1_555 1_555
C154_9 N58_9 1_555 1_555
N58_9 Co5_11 1_555 1_555
S10_9 C154_9 1_555 1_555
Co16_9 N48_9 1_555 1_555
N62_9 Co5_11 1_555 1_555
N63_9 Co5_11 1_555 1_555
N64_9 Co8_5 1_555 1_555
N66_9 Co5_11 1_555 1_555
C114_9 N42_9 1_555 1_555
C118_9 N42_9 1_555 1_555
C124_9 N44_9 1_555 1_555
C126_9 N46_9 1_555 1_555
C127_9 N45_9 1_555 1_555
C127_9 N47_9 1_555 1_555
C132_9 N48_9 1_555 1_555
Co5_11 N44_9 1_555 1_555
C119_10 N43_10 1_555 1_555
Co5_12 N43_10 1_555 1_555
S6_10 C119_10 1_555 1_555
N62_10 Co5_12 1_555 1_555
N66_10 Co5_12 1_555 1_555
C6_10 N2_10 1_555 1_555
Co8_2 N2_10 1_555 1_555
S1_10 C6_10 1_555 1_555
C95_10 H61_10 1_555 1_555
C96_10 C95_10 1_555 1_555
C97_10 C96_10 1_555 1_555
H62_10 C97_10 1_555 1_555
C98_10 C97_10 1_555 1_555
H63_10 C98_10 1_555 1_555
C99_10 C98_10 1_555 1_555
H64_10 C99_10 1_555 1_555
C100_10 H65_10 1_555 1_555
C101_10 C100_10 1_555 1_555
H66_10 C101_10 1_555 1_555
C102_10 C101_10 1_555 1_555
H67_10 C102_10 1_555 1_555
C103_10 C102_10 1_555 1_555
C104_10 C103_10 1_555 1_555
H68_10 C104_10 1_555 1_555
C105_10 C103_10 1_555 1_555
C106_10 C96_10 1_555 1_555
C107_10 C109_10 1_555 1_555
C108_10 H69_10 1_555 1_555
C109_10 C108_10 1_555 1_555
C110_10 C109_10 1_555 1_555
H70_10 C110_10 1_555 1_555
C111_10 C110_10 1_555 1_555
H71_10 C111_10 1_555 1_555
C112_10 C111_10 1_555 1_555
H72_10 C112_10 1_555 1_555
N35_10 C95_10 1_555 1_555
N36_10 C100_10 1_555 1_555
N37_10 C105_10 1_555 1_555
N38_10 C105_10 1_555 1_555
N39_10 C106_10 1_555 1_555
C114_10 H73_10 1_555 1_555
C115_10 C114_10 1_555 1_555
C116_10 C115_10 1_555 1_555
H74_10 C116_10 1_555 1_555
C117_10 C116_10 1_555 1_555
H75_10 C117_10 1_555 1_555
C118_10 C117_10 1_555 1_555
H76_10 C118_10 1_555 1_555
C120_10 H77_10 1_555 1_555
C121_10 C120_10 1_555 1_555
H78_10 C121_10 1_555 1_555
C122_10 C121_10 1_555 1_555
H79_10 C122_10 1_555 1_555
C123_10 C122_10 1_555 1_555
C124_10 C123_10 1_555 1_555
H80_10 C124_10 1_555 1_555
C125_10 C123_10 1_555 1_555
C126_10 C115_10 1_555 1_555
C127_10 C129_10 1_555 1_555
C128_10 H81_10 1_555 1_555
C129_10 C128_10 1_555 1_555
C130_10 C129_10 1_555 1_555
H82_10 C130_10 1_555 1_555
C131_10 C130_10 1_555 1_555
H83_10 C131_10 1_555 1_555
C132_10 C131_10 1_555 1_555
H84_10 C132_10 1_555 1_555
N42_10 Co8_2 1_555 1_555
N44_10 C120_10 1_555 1_555
N45_10 C125_10 1_555 1_555
N46_10 C125_10 1_555 1_555
N47_10 C126_10 1_555 1_555
N48_10 C128_10 1_555 1_555
C133_10 H85_10 1_555 1_555
C134_10 C133_10 1_555 1_555
C135_10 C134_10 1_555 1_555
H86_10 C135_10 1_555 1_555
C136_10 C135_10 1_555 1_555
H87_10 C136_10 1_555 1_555
C137_10 C136_10 1_555 1_555
H88_10 C137_10 1_555 1_555
C138_10 H89_10 1_555 1_555
C139_10 C138_10 1_555 1_555
H90_10 C139_10 1_555 1_555
C140_10 C139_10 1_555 1_555
H91_10 C140_10 1_555 1_555
C141_10 C140_10 1_555 1_555
C142_10 C141_10 1_555 1_555
H92_10 C142_10 1_555 1_555
C143_10 C141_10 1_555 1_555
C144_10 C134_10 1_555 1_555
C145_10 C147_10 1_555 1_555
C146_10 H93_10 1_555 1_555
C147_10 C146_10 1_555 1_555
C148_10 C147_10 1_555 1_555
H94_10 C148_10 1_555 1_555
C149_10 C148_10 1_555 1_555
H95_10 C149_10 1_555 1_555
C150_10 C149_10 1_555 1_555
H96_10 C150_10 1_555 1_555
N49_10 Co8_2 1_555 1_555
N50_10 C138_10 1_555 1_555
N51_10 C143_10 1_555 1_555
N52_10 C143_10 1_555 1_555
N53_10 C144_10 1_555 1_555
N54_10 C146_10 1_555 1_555
C151_10 N55_10 1_555 1_555
N55_10 Co8_2 1_555 1_555
S7_10 C151_10 1_555 1_555
C154_10 N58_10 1_555 1_555
N58_10 Co5_13 1_555 1_555
S10_10 C154_10 1_555 1_555
C155_10 N59_10 1_555 1_555
N59_10 Co13_2 1_555 1_555
S11_10 C155_10 1_555 1_555
C156_10 N60_10 1_555 1_555
N60_10 Co13_2 1_555 1_555
S12_10 C156_10 1_555 1_555
Co9_13 N36_10 1_555 1_555
Co12_8 N35_10 1_555 1_555
Co11_2 N50_10 1_555 1_555
Co16_10 N48_10 1_555 1_555
Co17_10 N54_10 1_555 1_555
N61_10 Co13_2 1_555 1_555
N63_10 Co5_13 1_555 1_555
N64_10 Co8_2 1_555 1_555
N65_10 Co13_2 1_555 1_555
N67_10 Co13_2 1_555 1_555
C99_10 N35_10 1_555 1_555
C104_10 N36_10 1_555 1_555
C106_10 N38_10 1_555 1_555
C107_10 N37_10 1_555 1_555
C107_10 N39_10 1_555 1_555
C108_10 N69_2 1_555 1_555
C112_10 N69_2 1_555 1_555
C114_10 N42_10 1_555 1_555
C118_10 N42_10 1_555 1_555
C124_10 N44_10 1_555 1_555
C126_10 N46_10 1_555 1_555
C127_10 N45_10 1_555 1_555
C127_10 N47_10 1_555 1_555
C132_10 N48_10 1_555 1_555
Co5_13 N44_10 1_555 1_555
C133_10 N49_10 1_555 1_555
C137_10 N49_10 1_555 1_555
C142_10 N50_10 1_555 1_555
C144_10 N52_10 1_555 1_555
C145_10 N51_10 1_555 1_555
C145_10 N53_10 1_555 1_555
C150_10 N54_10 1_555 1_555
C6_11 N2_11 1_555 1_555
Co8 N2_11 1_555 1_555
S1_11 C6_11 1_555 1_555
C114_11 H73_11 1_555 1_555
C115_11 C114_11 1_555 1_555
C116_11 C115_11 1_555 1_555
H74_11 C116_11 1_555 1_555
C117_11 C116_11 1_555 1_555
H75_11 C117_11 1_555 1_555
C118_11 C117_11 1_555 1_555
H76_11 C118_11 1_555 1_555
C119_11 N43_11 1_555 1_555
C120_11 H77_11 1_555 1_555
C121_11 C120_11 1_555 1_555
H78_11 C121_11 1_555 1_555
C122_11 C121_11 1_555 1_555
H79_11 C122_11 1_555 1_555
C123_11 C122_11 1_555 1_555
C124_11 C123_11 1_555 1_555
H80_11 C124_11 1_555 1_555
C125_11 C123_11 1_555 1_555
C126_11 C115_11 1_555 1_555
C127_11 C129_11 1_555 1_555
C128_11 H81_11 1_555 1_555
C129_11 C128_11 1_555 1_555
C130_11 C129_11 1_555 1_555
H82_11 C130_11 1_555 1_555
C131_11 C130_11 1_555 1_555
H83_11 C131_11 1_555 1_555
C132_11 C131_11 1_555 1_555
H84_11 C132_11 1_555 1_555
Co5_14 N43_11 1_555 1_555
N42_11 Co8 1_555 1_555
N44_11 C120_11 1_555 1_555
N45_11 C125_11 1_555 1_555
N46_11 C125_11 1_555 1_555
N47_11 C126_11 1_555 1_555
N48_11 C128_11 1_555 1_555
S6_11 C119_11 1_555 1_555
C133_11 H85_11 1_555 1_555
C134_11 C133_11 1_555 1_555
C135_11 C134_11 1_555 1_555
H86_11 C135_11 1_555 1_555
C136_11 C135_11 1_555 1_555
H87_11 C136_11 1_555 1_555
C137_11 C136_11 1_555 1_555
H88_11 C137_11 1_555 1_555
C138_11 H89_11 1_555 1_555
C139_11 C138_11 1_555 1_555
H90_11 C139_11 1_555 1_555
C140_11 C139_11 1_555 1_555
H91_11 C140_11 1_555 1_555
C141_11 C140_11 1_555 1_555
C142_11 C141_11 1_555 1_555
H92_11 C142_11 1_555 1_555
C143_11 C141_11 1_555 1_555
C144_11 C134_11 1_555 1_555
C145_11 C147_11 1_555 1_555
C146_11 H93_11 1_555 1_555
C147_11 C146_11 1_555 1_555
C148_11 C147_11 1_555 1_555
H94_11 C148_11 1_555 1_555
C149_11 C148_11 1_555 1_555
H95_11 C149_11 1_555 1_555
C150_11 C149_11 1_555 1_555
H96_11 C150_11 1_555 1_555
N49_11 Co8 1_555 1_555
N50_11 C138_11 1_555 1_555
N51_11 C143_11 1_555 1_555
N52_11 C143_11 1_555 1_555
N53_11 C144_11 1_555 1_555
N54_11 C146_11 1_555 1_555
C151_11 N55_11 1_555 1_555
N55_11 Co8 1_555 1_555
S7_11 C151_11 1_555 1_555
C154_11 N58_11 1_555 1_555
N58_11 Co5_14 1_555 1_555
S10_11 C154_11 1_555 1_555
C155_11 N59_11 1_555 1_555
N59_11 Co13 1_555 1_555
S11_11 C155_11 1_555 1_555
C156_11 N60_11 1_555 1_555
N60_11 Co13 1_555 1_555
S12_11 C156_11 1_555 1_555
Co11 N50_11 1_555 1_555
Co16_11 N48_11 1_555 1_555
Co17_11 N54_11 1_555 1_555
N61_11 Co13 1_555 1_555
N62_11 Co5_14 1_555 1_555
N63_11 Co5_14 1_555 1_555
N64_11 Co8 1_555 1_555
N65_11 Co13 1_555 1_555
N66_11 Co5_14 1_555 1_555
N67_11 Co13 1_555 1_555
C114_11 N42_11 1_555 1_555
C118_11 N42_11 1_555 1_555
C124_11 N44_11 1_555 1_555
C126_11 N46_11 1_555 1_555
C127_11 N45_11 1_555 1_555
C127_11 N47_11 1_555 1_555
C132_11 N48_11 1_555 1_555
Co5_14 N44_11 1_555 1_555
C133_11 N49_11 1_555 1_555
C137_11 N49_11 1_555 1_555
C142_11 N50_11 1_555 1_555
C144_11 N52_11 1_555 1_555
C145_11 N51_11 1_555 1_555
C145_11 N53_11 1_555 1_555
C150_11 N54_11 1_555 1_555
C95_11 H61_11 1_555 1_555
C96_11 C95_11 1_555 1_555
C97_11 C96_11 1_555 1_555
H62_11 C97_11 1_555 1_555
C98_11 C97_11 1_555 1_555
H63_11 C98_11 1_555 1_555
C99_11 C98_11 1_555 1_555
H64_11 C99_11 1_555 1_555
C100_11 H65_11 1_555 1_555
C101_11 C100_11 1_555 1_555
H66_11 C101_11 1_555 1_555
C102_11 C101_11 1_555 1_555
H67_11 C102_11 1_555 1_555
C103_11 C102_11 1_555 1_555
C104_11 C103_11 1_555 1_555
H68_11 C104_11 1_555 1_555
C105_11 C103_11 1_555 1_555
C106_11 C96_11 1_555 1_555
C107_11 C109_11 1_555 1_555
C108_11 H69_11 1_555 1_555
C109_11 C108_11 1_555 1_555
C110_11 C109_11 1_555 1_555
H70_11 C110_11 1_555 1_555
C111_11 C110_11 1_555 1_555
H71_11 C111_11 1_555 1_555
C112_11 C111_11 1_555 1_555
H72_11 C112_11 1_555 1_555
N35_11 C95_11 1_555 1_555
N36_11 C100_11 1_555 1_555
N37_11 C105_11 1_555 1_555
N38_11 C105_11 1_555 1_555
N39_11 C106_11 1_555 1_555
Co9_14 N36_11 1_555 1_555
Co12_10 N35_11 1_555 1_555
C99_11 N35_11 1_555 1_555
C104_11 N36_11 1_555 1_555
C106_11 N38_11 1_555 1_555
C107_11 N37_11 1_555 1_555
C107_11 N39_11 1_555 1_555
C108_11 N69 1_555 1_555
C112_11 N69 1_555 1_555
C95_12 H61_12 1_555 1_555
C96_12 C95_12 1_555 1_555
C97_12 C96_12 1_555 1_555
H62_12 C97_12 1_555 1_555
C98_12 C97_12 1_555 1_555
H63_12 C98_12 1_555 1_555
C99_12 C98_12 1_555 1_555
C100_12 H65_12 1_555 1_555
C101_12 C100_12 1_555 1_555
H66_12 C101_12 1_555 1_555
C102_12 C101_12 1_555 1_555
H67_12 C102_12 1_555 1_555
C103_12 C102_12 1_555 1_555
C104_12 C103_12 1_555 1_555
H68_12 C104_12 1_555 1_555
C105_12 C103_12 1_555 1_555
C106_12 C96_12 1_555 1_555
C107_12 C109_12 1_555 1_555
C108_12 H69_12 1_555 1_555
C109_12 C108_12 1_555 1_555
C110_12 C109_12 1_555 1_555
H70_12 C110_12 1_555 1_555
C111_12 C110_12 1_555 1_555
H71_12 C111_12 1_555 1_555
C112_12 C111_12 1_555 1_555
H72_12 C112_12 1_555 1_555
N35_12 C95_12 1_555 1_555
N36_12 C100_12 1_555 1_555
N37_12 C105_12 1_555 1_555
N38_12 C105_12 1_555 1_555
N39_12 C106_12 1_555 1_555
Co9_15 N36_12 1_555 1_555
Co12_6 N35_12 1_555 1_555
C99_12 N35_12 1_555 1_555
C104_12 N36_12 1_555 1_555
C106_12 N38_12 1_555 1_555
C107_12 N37_12 1_555 1_555
C107_12 N39_12 1_555 1_555
C108_12 N69_3 1_555 1_555
C112_12 N69_3 1_555 1_555
C6_12 N2_12 1_555 1_555
Co8_3 N2_12 1_555 1_555
S1_12 C6_12 1_555 1_555
C114_12 H73_12 1_555 1_555
C115_12 C114_12 1_555 1_555
C116_12 C115_12 1_555 1_555
H74_12 C116_12 1_555 1_555
C117_12 C116_12 1_555 1_555
H75_12 C117_12 1_555 1_555
C118_12 C117_12 1_555 1_555
H76_12 C118_12 1_555 1_555
C119_12 N43_12 1_555 1_555
C120_12 H77_12 1_555 1_555
C121_12 C120_12 1_555 1_555
H78_12 C121_12 1_555 1_555
C122_12 C121_12 1_555 1_555
H79_12 C122_12 1_555 1_555
C123_12 C122_12 1_555 1_555
C124_12 C123_12 1_555 1_555
H80_12 C124_12 1_555 1_555
C125_12 C123_12 1_555 1_555
C126_12 C115_12 1_555 1_555
C127_12 C129_12 1_555 1_555
C128_12 H81_12 1_555 1_555
C129_12 C128_12 1_555 1_555
C130_12 C129_12 1_555 1_555
H82_12 C130_12 1_555 1_555
C131_12 C130_12 1_555 1_555
H83_12 C131_12 1_555 1_555
C132_12 C131_12 1_555 1_555
H84_12 C132_12 1_555 1_555
Co5_15 N43_12 1_555 1_555
N42_12 Co8_3 1_555 1_555
N44_12 C120_12 1_555 1_555
N45_12 C125_12 1_555 1_555
N46_12 C125_12 1_555 1_555
N47_12 C126_12 1_555 1_555
N48_12 C128_12 1_555 1_555
S6_12 C119_12 1_555 1_555
C133_12 H85_12 1_555 1_555
C134_12 C133_12 1_555 1_555
C135_12 C134_12 1_555 1_555
H86_12 C135_12 1_555 1_555
C136_12 C135_12 1_555 1_555
H87_12 C136_12 1_555 1_555
C137_12 C136_12 1_555 1_555
H88_12 C137_12 1_555 1_555
C138_12 H89_12 1_555 1_555
C139_12 C138_12 1_555 1_555
H90_12 C139_12 1_555 1_555
C140_12 C139_12 1_555 1_555
H91_12 C140_12 1_555 1_555
C141_12 C140_12 1_555 1_555
C142_12 C141_12 1_555 1_555
H92_12 C142_12 1_555 1_555
C143_12 C141_12 1_555 1_555
C144_12 C134_12 1_555 1_555
C145_12 C147_12 1_555 1_555
C146_12 H93_12 1_555 1_555
C147_12 C146_12 1_555 1_555
C148_12 C147_12 1_555 1_555
H94_12 C148_12 1_555 1_555
C149_12 C148_12 1_555 1_555
H95_12 C149_12 1_555 1_555
C150_12 C149_12 1_555 1_555
H96_12 C150_12 1_555 1_555
N49_12 Co8_3 1_555 1_555
N50_12 C138_12 1_555 1_555
N51_12 C143_12 1_555 1_555
N52_12 C143_12 1_555 1_555
N53_12 C144_12 1_555 1_555
N54_12 C146_12 1_555 1_555
C151_12 N55_12 1_555 1_555
N55_12 Co8_3 1_555 1_555
S7_12 C151_12 1_555 1_555
C154_12 N58_12 1_555 1_555
N58_12 Co5_15 1_555 1_555
S10_12 C154_12 1_555 1_555
C155_12 N59_12 1_555 1_555
N59_12 Co13_3 1_555 1_555
S11_12 C155_12 1_555 1_555
Co11_3 N50_12 1_555 1_555
Co16_12 N48_12 1_555 1_555
Co17_12 N54_12 1_555 1_555
N62_12 Co5_15 1_555 1_555
N63_12 Co5_15 1_555 1_555
N64_12 Co8_3 1_555 1_555
N66_12 Co5_15 1_555 1_555
N67_12 Co13_3 1_555 1_555
C114_12 N42_12 1_555 1_555
C118_12 N42_12 1_555 1_555
C124_12 N44_12 1_555 1_555
C126_12 N46_12 1_555 1_555
C127_12 N45_12 1_555 1_555
C127_12 N47_12 1_555 1_555
C132_12 N48_12 1_555 1_555
Co5_15 N44_12 1_555 1_555
C133_12 N49_12 1_555 1_555
C137_12 N49_12 1_555 1_555
C142_12 N50_12 1_555 1_555
C144_12 N52_12 1_555 1_555
C145_12 N51_12 1_555 1_555
C145_12 N53_12 1_555 1_555
C150_12 N54_12 1_555 1_555
C156_12 N60_12 1_555 1_555
N60_12 Co13_4 1_555 1_555
S12_12 C156_12 1_555 1_555
N61_12 Co13_4 1_555 1_555
N65_12 Co13_4 1_555 1_555
C6_13 N2_13 1_555 1_555
Co1_6 N2_13 1_555 1_555
S1_13 C6_13 1_555 1_555
C114_13 H73_13 1_555 1_555
C115_13 C114_13 1_555 1_555
C116_13 C115_13 1_555 1_555
H74_13 C116_13 1_555 1_555
C117_13 C116_13 1_555 1_555
H75_13 C117_13 1_555 1_555
C118_13 C117_13 1_555 1_555
C119_13 N43_13 1_555 1_555
C120_13 H77_13 1_555 1_555
C121_13 C120_13 1_555 1_555
H78_13 C121_13 1_555 1_555
C122_13 C121_13 1_555 1_555
H79_13 C122_13 1_555 1_555
C123_13 C122_13 1_555 1_555
C124_13 C123_13 1_555 1_555
H80_13 C124_13 1_555 1_555
C125_13 C123_13 1_555 1_555
C126_13 C115_13 1_555 1_555
C127_13 C129_13 1_555 1_555
C128_13 H81_13 1_555 1_555
C129_13 C128_13 1_555 1_555
C130_13 C129_13 1_555 1_555
H82_13 C130_13 1_555 1_555
C131_13 C130_13 1_555 1_555
H83_13 C131_13 1_555 1_555
C132_13 C131_13 1_555 1_555
H84_13 C132_13 1_555 1_555
Co5_16 N43_13 1_555 1_555
N42_13 Co1_6 1_555 1_555
N44_13 C120_13 1_555 1_555
N45_13 C125_13 1_555 1_555
N46_13 C125_13 1_555 1_555
N47_13 C126_13 1_555 1_555
N48_13 C128_13 1_555 1_555
S6_13 C119_13 1_555 1_555
C154_13 N58_13 1_555 1_555
N58_13 Co5_16 1_555 1_555
S10_13 C154_13 1_555 1_555
Co16_13 N48_13 1_555 1_555
N62_13 Co5_16 1_555 1_555
N63_13 Co5_16 1_555 1_555
N64_13 Co1_6 1_555 1_555
N66_13 Co5_16 1_555 1_555
C114_13 N42_13 1_555 1_555
C118_13 N42_13 1_555 1_555
C124_13 N44_13 1_555 1_555
C126_13 N46_13 1_555 1_555
C127_13 N45_13 1_555 1_555
C127_13 N47_13 1_555 1_555
C132_13 N48_13 1_555 1_555
Co5_16 N44_13 1_555 1_555
C1_5 H1_5 1_555 1_555
C2_5 C1_5 1_555 1_555
C3_5 C2_5 1_555 1_555
H2_5 C3_5 1_555 1_555
C4_5 C3_5 1_555 1_555
H3_5 C4_5 1_555 1_555
C5_5 C4_5 1_555 1_555
C7_5 H5_5 1_555 1_555
C8_5 C7_5 1_555 1_555
H6_5 C8_5 1_555 1_555
C9_5 C8_5 1_555 1_555
H7_5 C9_5 1_555 1_555
C10_5 C9_5 1_555 1_555
C11_5 C10_5 1_555 1_555
H8_5 C11_5 1_555 1_555
C12_5 C10_5 1_555 1_555
C13_5 C2_5 1_555 1_555
C14_5 C16_5 1_555 1_555
C15_5 H9_5 1_555 1_555
C16_5 C15_5 1_555 1_555
C17_5 C16_5 1_555 1_555
H10_5 C17_5 1_555 1_555
C18_5 C17_5 1_555 1_555
H11_5 C18_5 1_555 1_555
C19_5 C18_5 1_555 1_555
H12_5 C19_5 1_555 1_555
C20_5 N8_5 1_555 1_555
C21_5 H13_5 1_555 1_555
C22_5 C21_5 1_555 1_555
H14_5 C22_5 1_555 1_555
C23_5 C22_5 1_555 1_555
H15_5 C23_5 1_555 1_555
C24_5 C23_5 1_555 1_555
C25_5 C24_5 1_555 1_555
H16_5 C25_5 1_555 1_555
C26_5 C24_5 1_555 1_555
Co2_5 N7_5 1_555 1_555
N61_12 C1_5 1_555 1_555
N3_5 C7_5 1_555 1_555
N4_5 C12_5 1_555 1_555
N5_5 C12_5 1_555 1_555
N6_5 C13_5 1_555 1_555
N7_5 C15_5 1_555 1_555
N8_5 Co2_5 1_555 1_555
N9_5 C21_5 1_555 1_555
N10_5 C26_5 1_555 1_555
S2_5 C20_5 1_555 1_555
C27_5 H17_5 1_555 1_555
C28_5 C27_5 1_555 1_555
H18_5 C28_5 1_555 1_555
C29_5 C28_5 1_555 1_555
H19_5 C29_5 1_555 1_555
C30_5 C29_5 1_555 1_555
C31_5 C30_5 1_555 1_555
H20_5 C31_5 1_555 1_555
C32_5 C30_5 1_555 1_555
N11_5 C27_5 1_555 1_555
N12_5 C26_5 1_555 1_555
C33_5 H21_5 1_555 1_555
C34_5 C33_5 1_555 1_555
H22_5 C34_5 1_555 1_555
C35_5 C34_5 1_555 1_555
H23_5 C35_5 1_555 1_555
C36_5 C35_5 1_555 1_555
C37_5 C36_5 1_555 1_555
H24_5 C37_5 1_555 1_555
C38_5 N10_5 1_555 1_555
N13_5 C33_5 1_555 1_555
N14_5 C32_5 1_555 1_555
C39_5 H25_5 1_555 1_555
C40_5 C39_5 1_555 1_555
C41_5 C40_5 1_555 1_555
H26_5 C41_5 1_555 1_555
C42_5 C41_5 1_555 1_555
H27_5 C42_5 1_555 1_555
C43_5 C42_5 1_555 1_555
C44_5 H29_5 1_555 1_555
C45_5 C44_5 1_555 1_555
H30_5 C45_5 1_555 1_555
C46_5 C45_5 1_555 1_555
H31_5 C46_5 1_555 1_555
C47_5 C46_5 1_555 1_555
C48_5 C47_5 1_555 1_555
H32_5 C48_5 1_555 1_555
C49_5 C47_5 1_555 1_555
C50_5 C40_5 1_555 1_555
C51_5 C53_5 1_555 1_555
C52_5 H33_5 1_555 1_555
C53_5 C52_5 1_555 1_555
C54_5 C53_5 1_555 1_555
H34_5 C54_5 1_555 1_555
C55_5 C54_5 1_555 1_555
H35_5 C55_5 1_555 1_555
C56_5 C55_5 1_555 1_555
H36_5 C56_5 1_555 1_555
C57_5 N21_5 1_555 1_555
C58_9 H37_9 1_555 1_555
C59_9 C58_9 1_555 1_555
H38_9 C59_9 1_555 1_555
C60_9 C59_9 1_555 1_555
H39_9 C60_9 1_555 1_555
C61_9 C60_9 1_555 1_555
C62_9 C61_9 1_555 1_555
H40_9 C62_9 1_555 1_555
C63_9 C61_9 1_555 1_555
Co3_5 N20_5 1_555 1_555
N61_8 C39_5 1_555 1_555
N16_5 C44_5 1_555 1_555
N17_5 C49_5 1_555 1_555
N18_5 C49_5 1_555 1_555
N19_5 C50_5 1_555 1_555
N20_5 C52_5 1_555 1_555
N21_5 Co3_5 1_555 1_555
N22_5 C58_9 1_555 1_555
N23_9 C63_9 1_555 1_555
S3_5 C57_5 1_555 1_555
C64_9 H41_9 1_555 1_555
C65_9 C64_9 1_555 1_555
H42_9 C65_9 1_555 1_555
C66_9 C65_9 1_555 1_555
H43_9 C66_9 1_555 1_555
C67_9 C66_9 1_555 1_555
C68_9 C67_9 1_555 1_555
H44_9 C68_9 1_555 1_555
C69_9 C67_9 1_555 1_555
N24_5 Co2_5 1_555 1_555
N25_9 C63_9 1_555 1_555
C70_9 H45_9 1_555 1_555
C71_9 C70_9 1_555 1_555
H46_9 C71_9 1_555 1_555
C72_9 C71_9 1_555 1_555
H47_9 C72_9 1_555 1_555
C73_9 C72_9 1_555 1_555
C74_9 C73_9 1_555 1_555
H48_9 C74_9 1_555 1_555
C75_9 N23_9 1_555 1_555
N26_9 C70_9 1_555 1_555
N27_9 C69_9 1_555 1_555
C76_5 H49_5 1_555 1_555
C77_5 C76_5 1_555 1_555
C78_5 C77_5 1_555 1_555
H50_5 C78_5 1_555 1_555
C79_5 C78_5 1_555 1_555
H51_5 C79_5 1_555 1_555
C80_5 C79_5 1_555 1_555
C81_5 H53_5 1_555 1_555
C82_5 C81_5 1_555 1_555
H54_5 C82_5 1_555 1_555
C83_5 C82_5 1_555 1_555
H55_5 C83_5 1_555 1_555
C84_5 C83_5 1_555 1_555
C85_5 C84_5 1_555 1_555
H56_5 C85_5 1_555 1_555
C86_5 C84_5 1_555 1_555
C87_5 C77_5 1_555 1_555
C88_5 C90_5 1_555 1_555
C89_5 H57_5 1_555 1_555
C90_5 C89_5 1_555 1_555
C91_5 C90_5 1_555 1_555
H58_5 C91_5 1_555 1_555
C92_5 C91_5 1_555 1_555
H59_5 C92_5 1_555 1_555
C93_5 C92_5 1_555 1_555
H60_5 C93_5 1_555 1_555
C94_5 N34_5 1_555 1_555
Co4_5 N11_5 1_555 1_555
N61_4 C76_5 1_555 1_555
N29_5 C81_5 1_555 1_555
N30_5 C86_5 1_555 1_555
N31_5 C86_5 1_555 1_555
N32_5 C87_5 1_555 1_555
N33_5 C89_5 1_555 1_555
N34_5 Co4_5 1_555 1_555
S4_5 C94_5 1_555 1_555
C95_13 H61_13 1_555 1_555
C96_13 C95_13 1_555 1_555
C97_13 C96_13 1_555 1_555
H62_13 C97_13 1_555 1_555
C98_13 C97_13 1_555 1_555
H63_13 C98_13 1_555 1_555
C99_13 C98_13 1_555 1_555
H64_13 C99_13 1_555 1_555
C100_13 H65_13 1_555 1_555
C101_13 C100_13 1_555 1_555
H66_13 C101_13 1_555 1_555
C102_13 C101_13 1_555 1_555
H67_13 C102_13 1_555 1_555
C103_13 C102_13 1_555 1_555
C104_13 C103_13 1_555 1_555
H68_13 C104_13 1_555 1_555
C105_13 C103_13 1_555 1_555
C106_13 C96_13 1_555 1_555
C107_13 C109_13 1_555 1_555
C108_13 H69_13 1_555 1_555
C109_13 C108_13 1_555 1_555
C110_13 C109_13 1_555 1_555
H70_13 C110_13 1_555 1_555
C111_13 C110_13 1_555 1_555
H71_13 C111_13 1_555 1_555
C112_13 C111_13 1_555 1_555
H72_13 C112_13 1_555 1_555
C113_5 N41_5 1_555 1_555
N35_13 C95_13 1_555 1_555
N36_13 C100_13 1_555 1_555
N37_13 C105_13 1_555 1_555
N38_13 C105_13 1_555 1_555
N39_13 C106_13 1_555 1_555
N40_5 Co4_5 1_555 1_555
N41_5 Co4_5 1_555 1_555
S5_5 C113_5 1_555 1_555
C133_13 H85_13 1_555 1_555
C134_13 C133_13 1_555 1_555
C135_13 C134_13 1_555 1_555
H86_13 C135_13 1_555 1_555
C136_13 C135_13 1_555 1_555
H87_13 C136_13 1_555 1_555
C137_13 C136_13 1_555 1_555
C138_13 H89_13 1_555 1_555
C139_13 C138_13 1_555 1_555
H90_13 C139_13 1_555 1_555
C140_13 C139_13 1_555 1_555
H91_13 C140_13 1_555 1_555
C141_13 C140_13 1_555 1_555
C142_13 C141_13 1_555 1_555
H92_13 C142_13 1_555 1_555
C143_13 C141_13 1_555 1_555
C144_13 C134_13 1_555 1_555
C145_13 C147_13 1_555 1_555
C146_13 H93_13 1_555 1_555
C147_13 C146_13 1_555 1_555
C148_13 C147_13 1_555 1_555
H94_13 C148_13 1_555 1_555
C149_13 C148_13 1_555 1_555
H95_13 C149_13 1_555 1_555
C150_13 C149_13 1_555 1_555
H96_13 C150_13 1_555 1_555
N49_13 Co1_7 1_555 1_555
N50_13 C138_13 1_555 1_555
N51_13 C143_13 1_555 1_555
N52_13 C143_13 1_555 1_555
N53_13 C144_13 1_555 1_555
N54_13 C146_13 1_555 1_555
C151_13 N55_13 1_555 1_555
N55_13 Co1_7 1_555 1_555
S7_13 C151_13 1_555 1_555
C152_5 N56_5 1_555 1_555
N56_5 Co2_5 1_555 1_555
S8_5 C152_5 1_555 1_555
C153_5 N57_5 1_555 1_555
N57_5 Co3_5 1_555 1_555
S9_5 C153_5 1_555 1_555
Co7_7 N16_5 1_555 1_555
Co8_7 N29_5 1_555 1_555
Co9_13 N36_13 1_555 1_555
Co12_3 N35_13 1_555 1_555
Co11_2 N50_13 1_555 1_555
Co17_13 N54_13 1_555 1_555
N68_5 Co2_5 1_555 1_555
N69_5 Co3_5 1_555 1_555
N70_5 Co4_5 1_555 1_555
N71_5 Co3_5 1_555 1_555
C5_5 N61_12 1_555 1_555
C11_5 N3_5 1_555 1_555
C13_5 N5_5 1_555 1_555
C14_5 N4_5 1_555 1_555
C14_5 N6_5 1_555 1_555
C19_5 N7_5 1_555 1_555
C25_5 N9_5 1_555 1_555
Co1_7 N3_5 1_555 1_555
Co2_5 N9_5 1_555 1_555
C31_5 N11_5 1_555 1_555
C32_5 N12_5 1_555 1_555
C36_5 C38_5 1_555 1_555
C37_5 N13_5 1_555 1_555
C38_5 N14_5 1_555 1_555
C43_5 N61_8 1_555 1_555
C48_5 N16_5 1_555 1_555
C50_5 N18_5 1_555 1_555
C51_5 N17_5 1_555 1_555
C51_5 N19_5 1_555 1_555
C56_5 N20_5 1_555 1_555
C62_9 N22_5 1_555 1_555
Co3_5 N22_5 1_555 1_555
C64_9 N24_5 1_555 1_555
C68_9 N24_5 1_555 1_555
C69_9 N25_9 1_555 1_555
C73_9 C75_9 1_555 1_555
C74_9 N26_9 1_555 1_555
C75_9 N27_9 1_555 1_555
C80_5 N61_4 1_555 1_555
C85_5 N29_5 1_555 1_555
C87_5 N31_5 1_555 1_555
C88_5 N30_5 1_555 1_555
C88_5 N32_5 1_555 1_555
C93_5 N33_5 1_555 1_555
Co4_5 N33_5 1_555 1_555
C99_13 N35_13 1_555 1_555
C104_13 N36_13 1_555 1_555
C106_13 N38_13 1_555 1_555
C107_13 N37_13 1_555 1_555
C107_13 N39_13 1_555 1_555
C108_13 N40_5 1_555 1_555
C112_13 N40_5 1_555 1_555
C133_13 N49_13 1_555 1_555
C137_13 N49_13 1_555 1_555
C142_13 N50_13 1_555 1_555
C144_13 N52_13 1_555 1_555
C145_13 N51_13 1_555 1_555
C145_13 N53_13 1_555 1_555
C150_13 N54_13 1_555 1_555
C1_6 H1_6 1_555 1_555
C2_6 C1_6 1_555 1_555
C3_6 C2_6 1_555 1_555
H2_6 C3_6 1_555 1_555
C4_6 C3_6 1_555 1_555
H3_6 C4_6 1_555 1_555
C5_6 C4_6 1_555 1_555
H4_6 C5_6 1_555 1_555
C6_14 N2_14 1_555 1_555
C7_6 H5_6 1_555 1_555
C8_6 C7_6 1_555 1_555
H6_6 C8_6 1_555 1_555
C9_6 C8_6 1_555 1_555
H7_6 C9_6 1_555 1_555
C10_6 C9_6 1_555 1_555
C11_6 C10_6 1_555 1_555
H8_6 C11_6 1_555 1_555
C12_6 C10_6 1_555 1_555
C13_6 C2_6 1_555 1_555
C14_6 C16_6 1_555 1_555
C15_6 H9_6 1_555 1_555
C16_6 C15_6 1_555 1_555
C17_6 C16_6 1_555 1_555
H10_6 C17_6 1_555 1_555
C18_6 C17_6 1_555 1_555
H11_6 C18_6 1_555 1_555
C19_6 C18_6 1_555 1_555
H12_6 C19_6 1_555 1_555
Co1_8 N2_14 1_555 1_555
Co2_6 N7_6 1_555 1_555
N61_9 C1_6 1_555 1_555
N3_6 C7_6 1_555 1_555
N4_6 C12_6 1_555 1_555
N5_6 C12_6 1_555 1_555
N6_6 C13_6 1_555 1_555
N7_6 C15_6 1_555 1_555
N8_6 Co2_6 1_555 1_555
S1_14 C6_14 1_555 1_555
C114_14 H73_14 1_555 1_555
C115_14 C114_14 1_555 1_555
C116_14 C115_14 1_555 1_555
H74_14 C116_14 1_555 1_555
C117_14 C116_14 1_555 1_555
H75_14 C117_14 1_555 1_555
C118_14 C117_14 1_555 1_555
H76_14 C118_14 1_555 1_555
C119_14 N43_14 1_555 1_555
C120_14 H77_14 1_555 1_555
C121_14 C120_14 1_555 1_555
H78_14 C121_14 1_555 1_555
C122_14 C121_14 1_555 1_555
H79_14 C122_14 1_555 1_555
C123_14 C122_14 1_555 1_555
C124_14 C123_14 1_555 1_555
H80_14 C124_14 1_555 1_555
C125_14 C123_14 1_555 1_555
C126_14 C115_14 1_555 1_555
C127_14 C129_14 1_555 1_555
C128_14 H81_14 1_555 1_555
C129_14 C128_14 1_555 1_555
C130_14 C129_14 1_555 1_555
H82_14 C130_14 1_555 1_555
C131_14 C130_14 1_555 1_555
H83_14 C131_14 1_555 1_555
C132_14 C131_14 1_555 1_555
H84_14 C132_14 1_555 1_555
Co5_17 N43_14 1_555 1_555
N42_14 Co1_8 1_555 1_555
N44_14 C120_14 1_555 1_555
N45_14 C125_14 1_555 1_555
N46_14 C125_14 1_555 1_555
N47_14 C126_14 1_555 1_555
N48_14 C128_14 1_555 1_555
S6_14 C119_14 1_555 1_555
C133_14 H85_14 1_555 1_555
C134_14 C133_14 1_555 1_555
C135_14 C134_14 1_555 1_555
H86_14 C135_14 1_555 1_555
C136_14 C135_14 1_555 1_555
H87_14 C136_14 1_555 1_555
C137_14 C136_14 1_555 1_555
H88_14 C137_14 1_555 1_555
C138_14 H89_14 1_555 1_555
C139_14 C138_14 1_555 1_555
H90_14 C139_14 1_555 1_555
C140_14 C139_14 1_555 1_555
H91_14 C140_14 1_555 1_555
C141_14 C140_14 1_555 1_555
C142_14 C141_14 1_555 1_555
H92_14 C142_14 1_555 1_555
C143_14 C141_14 1_555 1_555
C144_14 C134_14 1_555 1_555
C145_14 C147_14 1_555 1_555
C146_14 H93_14 1_555 1_555
C147_14 C146_14 1_555 1_555
C148_14 C147_14 1_555 1_555
H94_14 C148_14 1_555 1_555
C149_14 C148_14 1_555 1_555
H95_14 C149_14 1_555 1_555
C150_14 C149_14 1_555 1_555
H96_14 C150_14 1_555 1_555
N49_14 Co1_8 1_555 1_555
N50_14 C138_14 1_555 1_555
N51_14 C143_14 1_555 1_555
N52_14 C143_14 1_555 1_555
N53_14 C144_14 1_555 1_555
N54_14 C146_14 1_555 1_555
C151_14 N55_14 1_555 1_555
N55_14 Co1_8 1_555 1_555
S7_14 C151_14 1_555 1_555
N56_6 Co2_6 1_555 1_555
C154_14 N58_14 1_555 1_555
N58_14 Co5_17 1_555 1_555
S10_14 C154_14 1_555 1_555
Co11 N50_14 1_555 1_555
Co16_14 N48_14 1_555 1_555
Co17_14 N54_14 1_555 1_555
N62_14 Co5_17 1_555 1_555
N63_14 Co5_17 1_555 1_555
N64_14 Co1_8 1_555 1_555
N66_14 Co5_17 1_555 1_555
N68_6 Co2_6 1_555 1_555
C5_6 N61_9 1_555 1_555
C11_6 N3_6 1_555 1_555
C13_6 N5_6 1_555 1_555
C14_6 N4_6 1_555 1_555
C14_6 N6_6 1_555 1_555
C19_6 N7_6 1_555 1_555
Co1_8 N3_6 1_555 1_555
C114_14 N42_14 1_555 1_555
C118_14 N42_14 1_555 1_555
C124_14 N44_14 1_555 1_555
C126_14 N46_14 1_555 1_555
C127_14 N45_14 1_555 1_555
C127_14 N47_14 1_555 1_555
C132_14 N48_14 1_555 1_555
Co5_17 N44_14 1_555 1_555
C133_14 N49_14 1_555 1_555
C137_14 N49_14 1_555 1_555
C142_14 N50_14 1_555 1_555
C144_14 N52_14 1_555 1_555
C145_14 N51_14 1_555 1_555
C145_14 N53_14 1_555 1_555
C150_14 N54_14 1_555 1_555
C21_6 H13_6 1_555 1_555
C22_6 C21_6 1_555 1_555
H14_6 C22_6 1_555 1_555
C23_6 C22_6 1_555 1_555
H15_6 C23_6 1_555 1_555
C24_6 C23_6 1_555 1_555
C25_6 C24_6 1_555 1_555
H16_6 C25_6 1_555 1_555
C26_6 C24_6 1_555 1_555
N9_6 C21_6 1_555 1_555
N10_6 C26_6 1_555 1_555
S2_6 C20_6 1_555 1_555
C27_6 H17_6 1_555 1_555
C28_6 C27_6 1_555 1_555
H18_6 C28_6 1_555 1_555
C29_6 C28_6 1_555 1_555
H19_6 C29_6 1_555 1_555
C30_6 C29_6 1_555 1_555
C31_6 C30_6 1_555 1_555
H20_6 C31_6 1_555 1_555
C32_6 C30_6 1_555 1_555
N11_6 C27_6 1_555 1_555
N12_6 C26_6 1_555 1_555
C33_6 H21_6 1_555 1_555
C34_6 C33_6 1_555 1_555
H22_6 C34_6 1_555 1_555
C35_6 C34_6 1_555 1_555
H23_6 C35_6 1_555 1_555
C36_6 C35_6 1_555 1_555
C37_6 C36_6 1_555 1_555
H24_6 C37_6 1_555 1_555
C38_6 N10_6 1_555 1_555
N13_6 C33_6 1_555 1_555
N14_6 C32_6 1_555 1_555
C39_6 H25_6 1_555 1_555
C40_6 C39_6 1_555 1_555
C41_6 C40_6 1_555 1_555
H26_6 C41_6 1_555 1_555
C42_6 C41_6 1_555 1_555
H27_6 C42_6 1_555 1_555
C43_6 C42_6 1_555 1_555
H28_6 C43_6 1_555 1_555
C44_6 H29_6 1_555 1_555
C45_6 C44_6 1_555 1_555
H30_6 C45_6 1_555 1_555
C46_6 C45_6 1_555 1_555
H31_6 C46_6 1_555 1_555
C47_6 C46_6 1_555 1_555
C48_6 C47_6 1_555 1_555
H32_6 C48_6 1_555 1_555
C49_6 C47_6 1_555 1_555
C50_6 C40_6 1_555 1_555
C51_6 C53_6 1_555 1_555
C52_6 H33_6 1_555 1_555
C53_6 C52_6 1_555 1_555
C54_6 C53_6 1_555 1_555
H34_6 C54_6 1_555 1_555
C55_6 C54_6 1_555 1_555
H35_6 C55_6 1_555 1_555
C56_6 C55_6 1_555 1_555
H36_6 C56_6 1_555 1_555
C57_6 N21_6 1_555 1_555
C58_10 H37_10 1_555 1_555
C59_10 C58_10 1_555 1_555
H38_10 C59_10 1_555 1_555
C60_10 C59_10 1_555 1_555
H39_10 C60_10 1_555 1_555
C61_10 C60_10 1_555 1_555
C62_10 C61_10 1_555 1_555
H40_10 C62_10 1_555 1_555
C63_10 C61_10 1_555 1_555
Co3_6 N20_6 1_555 1_555
N61_6 C39_6 1_555 1_555
N16_6 C44_6 1_555 1_555
N17_6 C49_6 1_555 1_555
N18_6 C49_6 1_555 1_555
N19_6 C50_6 1_555 1_555
N20_6 C52_6 1_555 1_555
N21_6 Co3_6 1_555 1_555
N22_6 C58_10 1_555 1_555
N23_10 C63_10 1_555 1_555
S3_6 C57_6 1_555 1_555
C64_10 H41_10 1_555 1_555
C65_10 C64_10 1_555 1_555
H42_10 C65_10 1_555 1_555
C66_10 C65_10 1_555 1_555
H43_10 C66_10 1_555 1_555
C67_10 C66_10 1_555 1_555
C68_10 C67_10 1_555 1_555
H44_10 C68_10 1_555 1_555
C69_10 C67_10 1_555 1_555
N25_10 C63_10 1_555 1_555
C70_10 H45_10 1_555 1_555
C71_10 C70_10 1_555 1_555
H46_10 C71_10 1_555 1_555
C72_10 C71_10 1_555 1_555
H47_10 C72_10 1_555 1_555
C73_10 C72_10 1_555 1_555
C74_10 C73_10 1_555 1_555
H48_10 C74_10 1_555 1_555
C75_10 N23_10 1_555 1_555
N26_10 C70_10 1_555 1_555
N27_10 C69_10 1_555 1_555
C76_6 H49_6 1_555 1_555
C77_6 C76_6 1_555 1_555
C78_6 C77_6 1_555 1_555
H50_6 C78_6 1_555 1_555
C79_6 C78_6 1_555 1_555
H51_6 C79_6 1_555 1_555
C80_6 C79_6 1_555 1_555
H52_6 C80_6 1_555 1_555
C81_6 H53_6 1_555 1_555
C82_6 C81_6 1_555 1_555
H54_6 C82_6 1_555 1_555
C83_6 C82_6 1_555 1_555
H55_6 C83_6 1_555 1_555
C84_6 C83_6 1_555 1_555
C85_6 C84_6 1_555 1_555
H56_6 C85_6 1_555 1_555
C86_6 C84_6 1_555 1_555
C87_6 C77_6 1_555 1_555
C88_6 C90_6 1_555 1_555
C89_6 H57_6 1_555 1_555
C90_6 C89_6 1_555 1_555
C91_6 C90_6 1_555 1_555
H58_6 C91_6 1_555 1_555
C92_6 C91_6 1_555 1_555
H59_6 C92_6 1_555 1_555
C93_6 C92_6 1_555 1_555
H60_6 C93_6 1_555 1_555
C94_6 N34_6 1_555 1_555
Co4_6 N11_6 1_555 1_555
N61_3 C76_6 1_555 1_555
N29_6 C81_6 1_555 1_555
N30_6 C86_6 1_555 1_555
N31_6 C86_6 1_555 1_555
N32_6 C87_6 1_555 1_555
N33_6 C89_6 1_555 1_555
N34_6 Co4_6 1_555 1_555
S4_6 C94_6 1_555 1_555
C95_14 H61_14 1_555 1_555
C96_14 C95_14 1_555 1_555
C97_14 C96_14 1_555 1_555
H62_14 C97_14 1_555 1_555
C98_14 C97_14 1_555 1_555
H63_14 C98_14 1_555 1_555
C99_14 C98_14 1_555 1_555
C100_14 H65_14 1_555 1_555
C101_14 C100_14 1_555 1_555
H66_14 C101_14 1_555 1_555
C102_14 C101_14 1_555 1_555
H67_14 C102_14 1_555 1_555
C103_14 C102_14 1_555 1_555
C104_14 C103_14 1_555 1_555
H68_14 C104_14 1_555 1_555
C105_14 C103_14 1_555 1_555
C106_14 C96_14 1_555 1_555
C107_14 C109_14 1_555 1_555
C108_14 H69_14 1_555 1_555
C109_14 C108_14 1_555 1_555
C110_14 C109_14 1_555 1_555
H70_14 C110_14 1_555 1_555
C111_14 C110_14 1_555 1_555
H71_14 C111_14 1_555 1_555
C112_14 C111_14 1_555 1_555
H72_14 C112_14 1_555 1_555
C113_6 N41_6 1_555 1_555
N35_14 C95_14 1_555 1_555
N36_14 C100_14 1_555 1_555
N37_14 C105_14 1_555 1_555
N38_14 C105_14 1_555 1_555
N39_14 C106_14 1_555 1_555
N40_6 Co4_6 1_555 1_555
N41_6 Co4_6 1_555 1_555
S5_6 C113_6 1_555 1_555
S8_6 C152_6 1_555 1_555
C153_6 N57_6 1_555 1_555
N57_6 Co3_6 1_555 1_555
S9_6 C153_6 1_555 1_555
Co7_8 N16_6 1_555 1_555
Co8_8 N29_6 1_555 1_555
Co9_14 N36_14 1_555 1_555
Co12_2 N35_14 1_555 1_555
Co14_6 N13_6 1_555 1_555
Co15_10 N26_10 1_555 1_555
N69_6 Co3_6 1_555 1_555
N70_6 Co4_6 1_555 1_555
N71_6 Co3_6 1_555 1_555
C25_6 N9_6 1_555 1_555
C31_6 N11_6 1_555 1_555
C32_6 N12_6 1_555 1_555
C36_6 C38_6 1_555 1_555
C37_6 N13_6 1_555 1_555
C38_6 N14_6 1_555 1_555
C43_6 N61_6 1_555 1_555
C48_6 N16_6 1_555 1_555
C50_6 N18_6 1_555 1_555
C51_6 N17_6 1_555 1_555
C51_6 N19_6 1_555 1_555
C56_6 N20_6 1_555 1_555
C62_10 N22_6 1_555 1_555
Co3_6 N22_6 1_555 1_555
C64_10 N24_6 1_555 1_555
C68_10 N24_6 1_555 1_555
C69_10 N25_10 1_555 1_555
C73_10 C75_10 1_555 1_555
C74_10 N26_10 1_555 1_555
C75_10 N27_10 1_555 1_555
C80_6 N61_3 1_555 1_555
C85_6 N29_6 1_555 1_555
C87_6 N31_6 1_555 1_555
C88_6 N30_6 1_555 1_555
C88_6 N32_6 1_555 1_555
C93_6 N33_6 1_555 1_555
Co4_6 N33_6 1_555 1_555
C99_14 N35_14 1_555 1_555
C104_14 N36_14 1_555 1_555
C106_14 N38_14 1_555 1_555
C107_14 N37_14 1_555 1_555
C107_14 N39_14 1_555 1_555
C108_14 N40_6 1_555 1_555
C112_14 N40_6 1_555 1_555
C76_7 H49_7 1_555 1_555
C77_7 C76_7 1_555 1_555
C78_7 C77_7 1_555 1_555
H50_7 C78_7 1_555 1_555
C79_7 C78_7 1_555 1_555
H51_7 C79_7 1_555 1_555
C80_7 C79_7 1_555 1_555
H52_7 C80_7 1_555 1_555
C81_7 H53_7 1_555 1_555
C82_7 C81_7 1_555 1_555
H54_7 C82_7 1_555 1_555
C83_7 C82_7 1_555 1_555
H55_7 C83_7 1_555 1_555
C84_7 C83_7 1_555 1_555
C85_7 C84_7 1_555 1_555
H56_7 C85_7 1_555 1_555
C86_7 C84_7 1_555 1_555
C87_7 C77_7 1_555 1_555
C88_7 C90_7 1_555 1_555
C89_7 H57_7 1_555 1_555
C90_7 C89_7 1_555 1_555
C91_7 C90_7 1_555 1_555
H58_7 C91_7 1_555 1_555
C92_7 C91_7 1_555 1_555
H59_7 C92_7 1_555 1_555
C93_7 C92_7 1_555 1_555
H60_7 C93_7 1_555 1_555
N61 C76_7 1_555 1_555
N29_7 C81_7 1_555 1_555
N30_7 C86_7 1_555 1_555
N31_7 C86_7 1_555 1_555
N32_7 C87_7 1_555 1_555
N33_7 C89_7 1_555 1_555
N34_7 Co4_7 1_555 1_555
C95_15 H61_15 1_555 1_555
C96_15 C95_15 1_555 1_555
C97_15 C96_15 1_555 1_555
H62_15 C97_15 1_555 1_555
C98_15 C97_15 1_555 1_555
H63_15 C98_15 1_555 1_555
C99_15 C98_15 1_555 1_555
H64_15 C99_15 1_555 1_555
C100_15 H65_15 1_555 1_555
C101_15 C100_15 1_555 1_555
H66_15 C101_15 1_555 1_555
C102_15 C101_15 1_555 1_555
H67_15 C102_15 1_555 1_555
C103_15 C102_15 1_555 1_555
C104_15 C103_15 1_555 1_555
H68_15 C104_15 1_555 1_555
C105_15 C103_15 1_555 1_555
C106_15 C96_15 1_555 1_555
C107_15 C109_15 1_555 1_555
C108_15 H69_15 1_555 1_555
C109_15 C108_15 1_555 1_555
C110_15 C109_15 1_555 1_555
H70_15 C110_15 1_555 1_555
C111_15 C110_15 1_555 1_555
H71_15 C111_15 1_555 1_555
C112_15 C111_15 1_555 1_555
H72_15 C112_15 1_555 1_555
N35_15 C95_15 1_555 1_555
N36_15 C100_15 1_555 1_555
N37_15 C105_15 1_555 1_555
N38_15 C105_15 1_555 1_555
N39_15 C106_15 1_555 1_555
N40_7 Co4_7 1_555 1_555
N41_7 Co4_7 1_555 1_555
Co8_9 N29_7 1_555 1_555
Co9_15 N36_15 1_555 1_555
Co12_4 N35_15 1_555 1_555
C80_7 N61 1_555 1_555
C85_7 N29_7 1_555 1_555
C87_7 N31_7 1_555 1_555
C88_7 N30_7 1_555 1_555
C88_7 N32_7 1_555 1_555
C93_7 N33_7 1_555 1_555
Co4_7 N33_7 1_555 1_555
C99_15 N35_15 1_555 1_555
C104_15 N36_15 1_555 1_555
C106_15 N38_15 1_555 1_555
C107_15 N37_15 1_555 1_555
C107_15 N39_15 1_555 1_555
C108_15 N40_7 1_555 1_555
C112_15 N40_7 1_555 1_555
C1_7 H1_7 1_555 1_555
C2_7 C1_7 1_555 1_555
C3_7 C2_7 1_555 1_555
H2_7 C3_7 1_555 1_555
C4_7 C3_7 1_555 1_555
H3_7 C4_7 1_555 1_555
C5_7 C4_7 1_555 1_555
H4_7 C5_7 1_555 1_555
C6_15 N2_15 1_555 1_555
C7_7 H5_7 1_555 1_555
C8_7 C7_7 1_555 1_555
H6_7 C8_7 1_555 1_555
C9_7 C8_7 1_555 1_555
H7_7 C9_7 1_555 1_555
C10_7 C9_7 1_555 1_555
C11_7 C10_7 1_555 1_555
H8_7 C11_7 1_555 1_555
C12_7 C10_7 1_555 1_555
C13_7 C2_7 1_555 1_555
C14_7 C16_7 1_555 1_555
C15_7 H9_7 1_555 1_555
C16_7 C15_7 1_555 1_555
C17_7 C16_7 1_555 1_555
H10_7 C17_7 1_555 1_555
C18_7 C17_7 1_555 1_555
H11_7 C18_7 1_555 1_555
C19_7 C18_7 1_555 1_555
H12_7 C19_7 1_555 1_555
C20_7 N8_7 1_555 1_555
C21_7 H13_7 1_555 1_555
C22_7 C21_7 1_555 1_555
H14_7 C22_7 1_555 1_555
C23_7 C22_7 1_555 1_555
H15_7 C23_7 1_555 1_555
C24_7 C23_7 1_555 1_555
C25_7 C24_7 1_555 1_555
H16_7 C25_7 1_555 1_555
C26_7 C24_7 1_555 1_555
Co1_9 N2_15 1_555 1_555
Co2_7 N7_7 1_555 1_555
N61_10 C1_7 1_555 1_555
N3_7 C7_7 1_555 1_555
N4_7 C12_7 1_555 1_555
N5_7 C12_7 1_555 1_555
N6_7 C13_7 1_555 1_555
N7_7 C15_7 1_555 1_555
N8_7 Co2_7 1_555 1_555
N9_7 C21_7 1_555 1_555
N10_7 C26_7 1_555 1_555
S1_15 C6_15 1_555 1_555
S2_7 C20_7 1_555 1_555
C27_7 H17_7 1_555 1_555
C28_7 C27_7 1_555 1_555
H18_7 C28_7 1_555 1_555
C29_7 C28_7 1_555 1_555
H19_7 C29_7 1_555 1_555
C30_7 C29_7 1_555 1_555
C31_7 C30_7 1_555 1_555
H20_7 C31_7 1_555 1_555
C32_7 C30_7 1_555 1_555
N11_7 C27_7 1_555 1_555
N12_7 C26_7 1_555 1_555
C33_7 H21_7 1_555 1_555
C34_7 C33_7 1_555 1_555
H22_7 C34_7 1_555 1_555
C35_7 C34_7 1_555 1_555
H23_7 C35_7 1_555 1_555
C36_7 C35_7 1_555 1_555
C37_7 C36_7 1_555 1_555
H24_7 C37_7 1_555 1_555
C38_7 N10_7 1_555 1_555
N13_7 C33_7 1_555 1_555
N14_7 C32_7 1_555 1_555
C39_7 H25_7 1_555 1_555
C40_7 C39_7 1_555 1_555
C41_7 C40_7 1_555 1_555
H26_7 C41_7 1_555 1_555
C42_7 C41_7 1_555 1_555
H27_7 C42_7 1_555 1_555
C43_7 C42_7 1_555 1_555
H28_7 C43_7 1_555 1_555
C44_7 H29_7 1_555 1_555
C45_7 C44_7 1_555 1_555
H30_7 C45_7 1_555 1_555
C46_7 C45_7 1_555 1_555
H31_7 C46_7 1_555 1_555
C47_7 C46_7 1_555 1_555
C48_7 C47_7 1_555 1_555
H32_7 C48_7 1_555 1_555
C49_7 C47_7 1_555 1_555
C50_7 C40_7 1_555 1_555
C51_7 C53_7 1_555 1_555
C52_7 H33_7 1_555 1_555
C53_7 C52_7 1_555 1_555
C54_7 C53_7 1_555 1_555
H34_7 C54_7 1_555 1_555
C55_7 C54_7 1_555 1_555
H35_7 C55_7 1_555 1_555
C56_7 C55_7 1_555 1_555
H36_7 C56_7 1_555 1_555
C57_7 N21_7 1_555 1_555
C58_11 H37_11 1_555 1_555
C59_11 C58_11 1_555 1_555
H38_11 C59_11 1_555 1_555
C60_11 C59_11 1_555 1_555
H39_11 C60_11 1_555 1_555
C61_11 C60_11 1_555 1_555
C62_11 C61_11 1_555 1_555
H40_11 C62_11 1_555 1_555
C63_11 C61_11 1_555 1_555
Co3_7 N20_7 1_555 1_555
N61_7 C39_7 1_555 1_555
N16_7 C44_7 1_555 1_555
N17_7 C49_7 1_555 1_555
N18_7 C49_7 1_555 1_555
N19_7 C50_7 1_555 1_555
N20_7 C52_7 1_555 1_555
N21_7 Co3_7 1_555 1_555
N22_7 C58_11 1_555 1_555
N23_11 C63_11 1_555 1_555
S3_7 C57_7 1_555 1_555
C64_11 H41_11 1_555 1_555
C65_11 C64_11 1_555 1_555
H42_11 C65_11 1_555 1_555
C66_11 C65_11 1_555 1_555
H43_11 C66_11 1_555 1_555
C67_11 C66_11 1_555 1_555
C68_11 C67_11 1_555 1_555
H44_11 C68_11 1_555 1_555
C69_11 C67_11 1_555 1_555
N24_7 Co2_7 1_555 1_555
N25_11 C63_11 1_555 1_555
C70_11 H45_11 1_555 1_555
C71_11 C70_11 1_555 1_555
H46_11 C71_11 1_555 1_555
C72_11 C71_11 1_555 1_555
H47_11 C72_11 1_555 1_555
C73_11 C72_11 1_555 1_555
C74_11 C73_11 1_555 1_555
H48_11 C74_11 1_555 1_555
C75_11 N23_11 1_555 1_555
N26_11 C70_11 1_555 1_555
N27_11 C69_11 1_555 1_555
S4_7 C94_7 1_555 1_555
S5_7 C113_7 1_555 1_555
C114_15 H73_15 1_555 1_555
C115_15 C114_15 1_555 1_555
C116_15 C115_15 1_555 1_555
H74_15 C116_15 1_555 1_555
C117_15 C116_15 1_555 1_555
H75_15 C117_15 1_555 1_555
C118_15 C117_15 1_555 1_555
H76_15 C118_15 1_555 1_555
C119_15 N43_15 1_555 1_555
C120_15 H77_15 1_555 1_555
C121_15 C120_15 1_555 1_555
H78_15 C121_15 1_555 1_555
C122_15 C121_15 1_555 1_555
H79_15 C122_15 1_555 1_555
C123_15 C122_15 1_555 1_555
C124_15 C123_15 1_555 1_555
H80_15 C124_15 1_555 1_555
C125_15 C123_15 1_555 1_555
C126_15 C115_15 1_555 1_555
C127_15 C129_15 1_555 1_555
C128_15 H81_15 1_555 1_555
C129_15 C128_15 1_555 1_555
C130_15 C129_15 1_555 1_555
H82_15 C130_15 1_555 1_555
C131_15 C130_15 1_555 1_555
H83_15 C131_15 1_555 1_555
C132_15 C131_15 1_555 1_555
H84_15 C132_15 1_555 1_555
Co5_18 N43_15 1_555 1_555
N42_15 Co1_9 1_555 1_555
N44_15 C120_15 1_555 1_555
N45_15 C125_15 1_555 1_555
N46_15 C125_15 1_555 1_555
N47_15 C126_15 1_555 1_555
N48_15 C128_15 1_555 1_555
S6_15 C119_15 1_555 1_555
C133_15 H85_15 1_555 1_555
C134_15 C133_15 1_555 1_555
C135_15 C134_15 1_555 1_555
H86_15 C135_15 1_555 1_555
C136_15 C135_15 1_555 1_555
H87_15 C136_15 1_555 1_555
C137_15 C136_15 1_555 1_555
H88_15 C137_15 1_555 1_555
C138_15 H89_15 1_555 1_555
C139_15 C138_15 1_555 1_555
H90_15 C139_15 1_555 1_555
C140_15 C139_15 1_555 1_555
H91_15 C140_15 1_555 1_555
C141_15 C140_15 1_555 1_555
C142_15 C141_15 1_555 1_555
H92_15 C142_15 1_555 1_555
C143_15 C141_15 1_555 1_555
C144_15 C134_15 1_555 1_555
C145_15 C147_15 1_555 1_555
C146_15 H93_15 1_555 1_555
C147_15 C146_15 1_555 1_555
C148_15 C147_15 1_555 1_555
H94_15 C148_15 1_555 1_555
C149_15 C148_15 1_555 1_555
H95_15 C149_15 1_555 1_555
C150_15 C149_15 1_555 1_555
H96_15 C150_15 1_555 1_555
N49_15 Co1_9 1_555 1_555
N50_15 C138_15 1_555 1_555
N51_15 C143_15 1_555 1_555
N52_15 C143_15 1_555 1_555
N53_15 C144_15 1_555 1_555
N54_15 C146_15 1_555 1_555
C151_15 N55_15 1_555 1_555
N55_15 Co1_9 1_555 1_555
S7_15 C151_15 1_555 1_555
C152_7 N56_7 1_555 1_555
N56_7 Co2_7 1_555 1_555
S8_7 C152_7 1_555 1_555
C153_7 N57_7 1_555 1_555
N57_7 Co3_7 1_555 1_555
S9_7 C153_7 1_555 1_555
C154_15 N58_15 1_555 1_555
N58_15 Co5_18 1_555 1_555
S10_15 C154_15 1_555 1_555
Co7_9 N16_7 1_555 1_555
Co11_3 N50_15 1_555 1_555
Co14_7 N13_7 1_555 1_555
Co15_11 N26_11 1_555 1_555
Co16_15 N48_15 1_555 1_555
Co17_15 N54_15 1_555 1_555
N62_15 Co5_18 1_555 1_555
N63_15 Co5_18 1_555 1_555
N64_15 Co1_9 1_555 1_555
N66_15 Co5_18 1_555 1_555
N68_7 Co2_7 1_555 1_555
N69_7 Co3_7 1_555 1_555
N71_7 Co3_7 1_555 1_555
C5_7 N61_10 1_555 1_555
C11_7 N3_7 1_555 1_555
C13_7 N5_7 1_555 1_555
C14_7 N4_7 1_555 1_555
C14_7 N6_7 1_555 1_555
C19_7 N7_7 1_555 1_555
C25_7 N9_7 1_555 1_555
Co1_9 N3_7 1_555 1_555
Co2_7 N9_7 1_555 1_555
C31_7 N11_7 1_555 1_555
C32_7 N12_7 1_555 1_555
C36_7 C38_7 1_555 1_555
C37_7 N13_7 1_555 1_555
C38_7 N14_7 1_555 1_555
C43_7 N61_7 1_555 1_555
C48_7 N16_7 1_555 1_555
C50_7 N18_7 1_555 1_555
C51_7 N17_7 1_555 1_555
C51_7 N19_7 1_555 1_555
C56_7 N20_7 1_555 1_555
C62_11 N22_7 1_555 1_555
Co3_7 N22_7 1_555 1_555
C64_11 N24_7 1_555 1_555
C68_11 N24_7 1_555 1_555
C69_11 N25_11 1_555 1_555
C73_11 C75_11 1_555 1_555
C74_11 N26_11 1_555 1_555
C75_11 N27_11 1_555 1_555
C114_15 N42_15 1_555 1_555
C118_15 N42_15 1_555 1_555
C124_15 N44_15 1_555 1_555
C126_15 N46_15 1_555 1_555
C127_15 N45_15 1_555 1_555
C127_15 N47_15 1_555 1_555
C132_15 N48_15 1_555 1_555
Co5_18 N44_15 1_555 1_555
C133_15 N49_15 1_555 1_555
C137_15 N49_15 1_555 1_555
C142_15 N50_15 1_555 1_555
C144_15 N52_15 1_555 1_555
C145_15 N51_15 1_555 1_555
C145_15 N53_15 1_555 1_555
C150_15 N54_15 1_555 1_555
C39_8 H25_8 1_555 1_555
C40_8 C39_8 1_555 1_555
C41_8 C40_8 1_555 1_555
H26_8 C41_8 1_555 1_555
C42_8 C41_8 1_555 1_555
H27_8 C42_8 1_555 1_555
C43_8 C42_8 1_555 1_555
H28_8 C43_8 1_555 1_555
C44_8 H29_8 1_555 1_555
C45_8 C44_8 1_555 1_555
H30_8 C45_8 1_555 1_555
C46_8 C45_8 1_555 1_555
H31_8 C46_8 1_555 1_555
C47_8 C46_8 1_555 1_555
C48_8 C47_8 1_555 1_555
H32_8 C48_8 1_555 1_555
C49_8 C47_8 1_555 1_555
C50_8 C40_8 1_555 1_555
C51_8 C53_8 1_555 1_555
C52_8 H33_8 1_555 1_555
C53_8 C52_8 1_555 1_555
C54_8 C53_8 1_555 1_555
H34_8 C54_8 1_555 1_555
C55_8 C54_8 1_555 1_555
H35_8 C55_8 1_555 1_555
C56_8 C55_8 1_555 1_555
H36_8 C56_8 1_555 1_555
Co3_8 N20_8 1_555 1_555
N61_5 C39_8 1_555 1_555
N16_8 C44_8 1_555 1_555
N17_8 C49_8 1_555 1_555
N18_8 C49_8 1_555 1_555
N19_8 C50_8 1_555 1_555
N20_8 C52_8 1_555 1_555
N21_8 Co3_8 1_555 1_555
N57_8 Co3_8 1_555 1_555
Co7_10 N16_8 1_555 1_555
N69_8 Co3_8 1_555 1_555
C43_8 N61_5 1_555 1_555
C48_8 N16_8 1_555 1_555
C50_8 N18_8 1_555 1_555
C51_8 N17_8 1_555 1_555
C51_8 N19_8 1_555 1_555
C56_8 N20_8 1_555 1_555
C1_8 H1_8 1_555 1_555
C2_8 C1_8 1_555 1_555
C3_8 C2_8 1_555 1_555
H2_8 C3_8 1_555 1_555
C4_8 C3_8 1_555 1_555
H3_8 C4_8 1_555 1_555
C5_8 C4_8 1_555 1_555
H4_8 C5_8 1_555 1_555
C6_16 N2_16 1_555 1_555
C7_8 H5_8 1_555 1_555
C8_8 C7_8 1_555 1_555
H6_8 C8_8 1_555 1_555
C9_8 C8_8 1_555 1_555
H7_8 C9_8 1_555 1_555
C10_8 C9_8 1_555 1_555
C11_8 C10_8 1_555 1_555
H8_8 C11_8 1_555 1_555
C12_8 C10_8 1_555 1_555
C13_8 C2_8 1_555 1_555
C14_8 C16_8 1_555 1_555
C15_8 H9_8 1_555 1_555
C16_8 C15_8 1_555 1_555
C17_8 C16_8 1_555 1_555
H10_8 C17_8 1_555 1_555
C18_8 C17_8 1_555 1_555
H11_8 C18_8 1_555 1_555
C19_8 C18_8 1_555 1_555
H12_8 C19_8 1_555 1_555
C20_8 N8_8 1_555 1_555
C21_8 H13_8 1_555 1_555
C22_8 C21_8 1_555 1_555
H14_8 C22_8 1_555 1_555
C23_8 C22_8 1_555 1_555
H15_8 C23_8 1_555 1_555
C24_8 C23_8 1_555 1_555
C25_8 C24_8 1_555 1_555
H16_8 C25_8 1_555 1_555
C26_8 C24_8 1_555 1_555
Co1_10 N2_16 1_555 1_555
Co2_8 N7_8 1_555 1_555
N61_11 C1_8 1_555 1_555
N3_8 C7_8 1_555 1_555
N4_8 C12_8 1_555 1_555
N5_8 C12_8 1_555 1_555
N6_8 C13_8 1_555 1_555
N7_8 C15_8 1_555 1_555
N8_8 Co2_8 1_555 1_555
N9_8 C21_8 1_555 1_555
N10_8 C26_8 1_555 1_555
S1_16 C6_16 1_555 1_555
S2_8 C20_8 1_555 1_555
C27_8 H17_8 1_555 1_555
C28_8 C27_8 1_555 1_555
H18_8 C28_8 1_555 1_555
C29_8 C28_8 1_555 1_555
H19_8 C29_8 1_555 1_555
C30_8 C29_8 1_555 1_555
C31_8 C30_8 1_555 1_555
H20_8 C31_8 1_555 1_555
C32_8 C30_8 1_555 1_555
N11_8 C27_8 1_555 1_555
N12_8 C26_8 1_555 1_555
C33_8 H21_8 1_555 1_555
C34_8 C33_8 1_555 1_555
H22_8 C34_8 1_555 1_555
C35_8 C34_8 1_555 1_555
H23_8 C35_8 1_555 1_555
C36_8 C35_8 1_555 1_555
C37_8 C36_8 1_555 1_555
H24_8 C37_8 1_555 1_555
C38_8 N10_8 1_555 1_555
N13_8 C33_8 1_555 1_555
N14_8 C32_8 1_555 1_555
C58_12 H37_12 1_555 1_555
C59_12 C58_12 1_555 1_555
H38_12 C59_12 1_555 1_555
C60_12 C59_12 1_555 1_555
H39_12 C60_12 1_555 1_555
C61_12 C60_12 1_555 1_555
C62_12 C61_12 1_555 1_555
H40_12 C62_12 1_555 1_555
C63_12 C61_12 1_555 1_555
N22_8 C58_12 1_555 1_555
N23_12 C63_12 1_555 1_555
S3_8 C57_8 1_555 1_555
C64_12 H41_12 1_555 1_555
C65_12 C64_12 1_555 1_555
H42_12 C65_12 1_555 1_555
C66_12 C65_12 1_555 1_555
H43_12 C66_12 1_555 1_555
C67_12 C66_12 1_555 1_555
C68_12 C67_12 1_555 1_555
H44_12 C68_12 1_555 1_555
C69_12 C67_12 1_555 1_555
N24_8 Co2_8 1_555 1_555
N25_12 C63_12 1_555 1_555
C70_12 H45_12 1_555 1_555
C71_12 C70_12 1_555 1_555
H46_12 C71_12 1_555 1_555
C72_12 C71_12 1_555 1_555
H47_12 C72_12 1_555 1_555
C73_12 C72_12 1_555 1_555
C74_12 C73_12 1_555 1_555
H48_12 C74_12 1_555 1_555
C75_12 N23_12 1_555 1_555
N26_12 C70_12 1_555 1_555
N27_12 C69_12 1_555 1_555
C76_8 H49_8 1_555 1_555
C77_8 C76_8 1_555 1_555
C78_8 C77_8 1_555 1_555
H50_8 C78_8 1_555 1_555
C79_8 C78_8 1_555 1_555
H51_8 C79_8 1_555 1_555
C80_8 C79_8 1_555 1_555
H52_8 C80_8 1_555 1_555
C81_8 H53_8 1_555 1_555
C82_8 C81_8 1_555 1_555
H54_8 C82_8 1_555 1_555
C83_8 C82_8 1_555 1_555
H55_8 C83_8 1_555 1_555
C84_8 C83_8 1_555 1_555
C85_8 C84_8 1_555 1_555
H56_8 C85_8 1_555 1_555
C86_8 C84_8 1_555 1_555
C87_8 C77_8 1_555 1_555
C88_8 C90_8 1_555 1_555
C89_8 H57_8 1_555 1_555
C90_8 C89_8 1_555 1_555
C91_8 C90_8 1_555 1_555
H58_8 C91_8 1_555 1_555
C92_8 C91_8 1_555 1_555
H59_8 C92_8 1_555 1_555
C93_8 C92_8 1_555 1_555
H60_8 C93_8 1_555 1_555
C94_8 N34_8 1_555 1_555
Co4_8 N11_8 1_555 1_555
N61_2 C76_8 1_555 1_555
N29_8 C81_8 1_555 1_555
N30_8 C86_8 1_555 1_555
N31_8 C86_8 1_555 1_555
N32_8 C87_8 1_555 1_555
N33_8 C89_8 1_555 1_555
N34_8 Co4_8 1_555 1_555
S4_8 C94_8 1_555 1_555
C95_16 H61_16 1_555 1_555
C96_16 C95_16 1_555 1_555
C97_16 C96_16 1_555 1_555
H62_16 C97_16 1_555 1_555
C98_16 C97_16 1_555 1_555
H63_16 C98_16 1_555 1_555
C99_16 C98_16 1_555 1_555
H64_16 C99_16 1_555 1_555
C100_16 H65_16 1_555 1_555
C101_16 C100_16 1_555 1_555
H66_16 C101_16 1_555 1_555
C102_16 C101_16 1_555 1_555
H67_16 C102_16 1_555 1_555
C103_16 C102_16 1_555 1_555
C104_16 C103_16 1_555 1_555
H68_16 C104_16 1_555 1_555
C105_16 C103_16 1_555 1_555
C106_16 C96_16 1_555 1_555
C107_16 C109_16 1_555 1_555
C108_16 H69_16 1_555 1_555
C109_16 C108_16 1_555 1_555
C110_16 C109_16 1_555 1_555
H70_16 C110_16 1_555 1_555
C111_16 C110_16 1_555 1_555
H71_16 C111_16 1_555 1_555
C112_16 C111_16 1_555 1_555
H72_16 C112_16 1_555 1_555
C113_8 N41_8 1_555 1_555
N35_16 C95_16 1_555 1_555
N36_16 C100_16 1_555 1_555
N37_16 C105_16 1_555 1_555
N38_16 C105_16 1_555 1_555
N39_16 C106_16 1_555 1_555
N40_8 Co4_8 1_555 1_555
N41_8 Co4_8 1_555 1_555
S5_8 C113_8 1_555 1_555
C114_16 H73_16 1_555 1_555
C115_16 C114_16 1_555 1_555
C116_16 C115_16 1_555 1_555
H74_16 C116_16 1_555 1_555
C117_16 C116_16 1_555 1_555
H75_16 C117_16 1_555 1_555
C118_16 C117_16 1_555 1_555
H76_16 C118_16 1_555 1_555
C120_16 H77_16 1_555 1_555
C121_16 C120_16 1_555 1_555
H78_16 C121_16 1_555 1_555
C122_16 C121_16 1_555 1_555
H79_16 C122_16 1_555 1_555
C123_16 C122_16 1_555 1_555
C124_16 C123_16 1_555 1_555
H80_16 C124_16 1_555 1_555
C125_16 C123_16 1_555 1_555
C126_16 C115_16 1_555 1_555
C127_16 C129_16 1_555 1_555
C128_16 H81_16 1_555 1_555
C129_16 C128_16 1_555 1_555
C130_16 C129_16 1_555 1_555
H82_16 C130_16 1_555 1_555
C131_16 C130_16 1_555 1_555
H83_16 C131_16 1_555 1_555
C132_16 C131_16 1_555 1_555
H84_16 C132_16 1_555 1_555
N42_16 Co1_10 1_555 1_555
N44_16 C120_16 1_555 1_555
N45_16 C125_16 1_555 1_555
N46_16 C125_16 1_555 1_555
N47_16 C126_16 1_555 1_555
N48_16 C128_16 1_555 1_555
C133_16 H85_16 1_555 1_555
C134_16 C133_16 1_555 1_555
C135_16 C134_16 1_555 1_555
H86_16 C135_16 1_555 1_555
C136_16 C135_16 1_555 1_555
H87_16 C136_16 1_555 1_555
C137_16 C136_16 1_555 1_555
H88_16 C137_16 1_555 1_555
C138_16 H89_16 1_555 1_555
C139_16 C138_16 1_555 1_555
H90_16 C139_16 1_555 1_555
C140_16 C139_16 1_555 1_555
H91_16 C140_16 1_555 1_555
C141_16 C140_16 1_555 1_555
C142_16 C141_16 1_555 1_555
H92_16 C142_16 1_555 1_555
C143_16 C141_16 1_555 1_555
C144_16 C134_16 1_555 1_555
C145_16 C147_16 1_555 1_555
C146_16 H93_16 1_555 1_555
C147_16 C146_16 1_555 1_555
C148_16 C147_16 1_555 1_555
H94_16 C148_16 1_555 1_555
C149_16 C148_16 1_555 1_555
H95_16 C149_16 1_555 1_555
C150_16 C149_16 1_555 1_555
H96_16 C150_16 1_555 1_555
N49_16 Co1_10 1_555 1_555
N50_16 C138_16 1_555 1_555
N51_16 C143_16 1_555 1_555
N52_16 C143_16 1_555 1_555
N53_16 C144_16 1_555 1_555
N54_16 C146_16 1_555 1_555
C151_16 N55_16 1_555 1_555
N55_16 Co1_10 1_555 1_555
S7_16 C151_16 1_555 1_555
C152_8 N56_8 1_555 1_555
N56_8 Co2_8 1_555 1_555
S8_8 C152_8 1_555 1_555
S9_8 C153_8 1_555 1_555
C154_16 N58_16 1_555 1_555
N58_16 Co5_19 1_555 1_555
S10_16 C154_16 1_555 1_555
Co8_10 N29_8 1_555 1_555
Co9_12 N36_16 1_555 1_555
Co12_5 N35_16 1_555 1_555
Co11_5 N50_16 1_555 1_555
Co14_8 N13_8 1_555 1_555
Co15_12 N26_12 1_555 1_555
Co16_16 N48_16 1_555 1_555
Co17_16 N54_16 1_555 1_555
N63_16 Co5_19 1_555 1_555
N64_16 Co1_10 1_555 1_555
N68_8 Co2_8 1_555 1_555
N70_8 Co4_8 1_555 1_555
C5_8 N61_11 1_555 1_555
C11_8 N3_8 1_555 1_555
C13_8 N5_8 1_555 1_555
C14_8 N4_8 1_555 1_555
C14_8 N6_8 1_555 1_555
C19_8 N7_8 1_555 1_555
C25_8 N9_8 1_555 1_555
Co1_10 N3_8 1_555 1_555
Co2_8 N9_8 1_555 1_555
C31_8 N11_8 1_555 1_555
C32_8 N12_8 1_555 1_555
C36_8 C38_8 1_555 1_555
C37_8 N13_8 1_555 1_555
C38_8 N14_8 1_555 1_555
C62_12 N22_8 1_555 1_555
C64_12 N24_8 1_555 1_555
C68_12 N24_8 1_555 1_555
C69_12 N25_12 1_555 1_555
C73_12 C75_12 1_555 1_555
C74_12 N26_12 1_555 1_555
C75_12 N27_12 1_555 1_555
C80_8 N61_2 1_555 1_555
C85_8 N29_8 1_555 1_555
C87_8 N31_8 1_555 1_555
C88_8 N30_8 1_555 1_555
C88_8 N32_8 1_555 1_555
C93_8 N33_8 1_555 1_555
Co4_8 N33_8 1_555 1_555
C99_16 N35_16 1_555 1_555
C104_16 N36_16 1_555 1_555
C106_16 N38_16 1_555 1_555
C107_16 N37_16 1_555 1_555
C107_16 N39_16 1_555 1_555
C108_16 N40_8 1_555 1_555
C112_16 N40_8 1_555 1_555
C114_16 N42_16 1_555 1_555
C118_16 N42_16 1_555 1_555
C124_16 N44_16 1_555 1_555
C126_16 N46_16 1_555 1_555
C127_16 N45_16 1_555 1_555
C127_16 N47_16 1_555 1_555
C132_16 N48_16 1_555 1_555
Co5_19 N44_16 1_555 1_555
C133_16 N49_16 1_555 1_555
C137_16 N49_16 1_555 1_555
C142_16 N50_16 1_555 1_555
C144_16 N52_16 1_555 1_555
C145_16 N51_16 1_555 1_555
C145_16 N53_16 1_555 1_555
C150_16 N54_16 1_555 1_555
C119_16 N43_16 1_555 1_555
Co5_20 N43_16 1_555 1_555
S6_16 C119_16 1_555 1_555
N62_16 Co5_20 1_555 1_555
N66_16 Co5_20 1_555 1_555
C6_17 N2_17 1_555 1_555
Co7_9 N2_17 1_555 1_555
S1_17 C6_17 1_555 1_555
C58_13 H37_13 1_555 1_555
C59_13 C58_13 1_555 1_555
H38_13 C59_13 1_555 1_555
C60_13 C59_13 1_555 1_555
H39_13 C60_13 1_555 1_555
C61_13 C60_13 1_555 1_555
C62_13 C61_13 1_555 1_555
H40_13 C62_13 1_555 1_555
C63_13 C61_13 1_555 1_555
N70_7 C58_13 1_555 1_555
N23_13 C63_13 1_555 1_555
C64_13 H41_13 1_555 1_555
C65_13 C64_13 1_555 1_555
H42_13 C65_13 1_555 1_555
C66_13 C65_13 1_555 1_555
H43_13 C66_13 1_555 1_555
C67_13 C66_13 1_555 1_555
C68_13 C67_13 1_555 1_555
H44_13 C68_13 1_555 1_555
C69_13 C67_13 1_555 1_555
N25_13 C63_13 1_555 1_555
C70_13 H45_13 1_555 1_555
C71_13 C70_13 1_555 1_555
H46_13 C71_13 1_555 1_555
C72_13 C71_13 1_555 1_555
H47_13 C72_13 1_555 1_555
C73_13 C72_13 1_555 1_555
C74_13 C73_13 1_555 1_555
H48_13 C74_13 1_555 1_555
C75_13 N23_13 1_555 1_555
N26_13 C70_13 1_555 1_555
N27_13 C69_13 1_555 1_555
C95_17 H61_17 1_555 1_555
C96_17 C95_17 1_555 1_555
C97_17 C96_17 1_555 1_555
H62_17 C97_17 1_555 1_555
C98_17 C97_17 1_555 1_555
H63_17 C98_17 1_555 1_555
C99_17 C98_17 1_555 1_555
H64_17 C99_17 1_555 1_555
C100_17 H65_17 1_555 1_555
C101_17 C100_17 1_555 1_555
H66_17 C101_17 1_555 1_555
C102_17 C101_17 1_555 1_555
H67_17 C102_17 1_555 1_555
C103_17 C102_17 1_555 1_555
C104_17 C103_17 1_555 1_555
H68_17 C104_17 1_555 1_555
C105_17 C103_17 1_555 1_555
C106_17 C96_17 1_555 1_555
C107_17 C109_17 1_555 1_555
C108_17 H69_17 1_555 1_555
C109_17 C108_17 1_555 1_555
C110_17 C109_17 1_555 1_555
H70_17 C110_17 1_555 1_555
C111_17 C110_17 1_555 1_555
H71_17 C111_17 1_555 1_555
C112_17 C111_17 1_555 1_555
H72_17 C112_17 1_555 1_555
N35_17 C95_17 1_555 1_555
N36_17 C100_17 1_555 1_555
N37_17 C105_17 1_555 1_555
N38_17 C105_17 1_555 1_555
N39_17 C106_17 1_555 1_555
C114_17 H73_17 1_555 1_555
C115_17 C114_17 1_555 1_555
C116_17 C115_17 1_555 1_555
H74_17 C116_17 1_555 1_555
C117_17 C116_17 1_555 1_555
H75_17 C117_17 1_555 1_555
C118_17 C117_17 1_555 1_555
H76_17 C118_17 1_555 1_555
C120_17 H77_17 1_555 1_555
C121_17 C120_17 1_555 1_555
H78_17 C121_17 1_555 1_555
C122_17 C121_17 1_555 1_555
H79_17 C122_17 1_555 1_555
C123_17 C122_17 1_555 1_555
C124_17 C123_17 1_555 1_555
H80_17 C124_17 1_555 1_555
C125_17 C123_17 1_555 1_555
C126_17 C115_17 1_555 1_555
C127_17 C129_17 1_555 1_555
C128_17 H81_17 1_555 1_555
C129_17 C128_17 1_555 1_555
C130_17 C129_17 1_555 1_555
H82_17 C130_17 1_555 1_555
C131_17 C130_17 1_555 1_555
H83_17 C131_17 1_555 1_555
C132_17 C131_17 1_555 1_555
H84_17 C132_17 1_555 1_555
N42_17 Co7_9 1_555 1_555
N44_17 C120_17 1_555 1_555
N45_17 C125_17 1_555 1_555
N46_17 C125_17 1_555 1_555
N47_17 C126_17 1_555 1_555
N48_17 C128_17 1_555 1_555
C133_17 H85_17 1_555 1_555
C134_17 C133_17 1_555 1_555
C135_17 C134_17 1_555 1_555
H86_17 C135_17 1_555 1_555
C136_17 C135_17 1_555 1_555
H87_17 C136_17 1_555 1_555
C137_17 C136_17 1_555 1_555
H88_17 C137_17 1_555 1_555
C138_17 H89_17 1_555 1_555
C139_17 C138_17 1_555 1_555
H90_17 C139_17 1_555 1_555
C140_17 C139_17 1_555 1_555
H91_17 C140_17 1_555 1_555
C141_17 C140_17 1_555 1_555
C142_17 C141_17 1_555 1_555
H92_17 C142_17 1_555 1_555
C143_17 C141_17 1_555 1_555
C144_17 C134_17 1_555 1_555
C145_17 C147_17 1_555 1_555
C146_17 H93_17 1_555 1_555
C147_17 C146_17 1_555 1_555
C148_17 C147_17 1_555 1_555
H94_17 C148_17 1_555 1_555
C149_17 C148_17 1_555 1_555
H95_17 C149_17 1_555 1_555
C150_17 C149_17 1_555 1_555
H96_17 C150_17 1_555 1_555
N49_17 Co7_9 1_555 1_555
N50_17 C138_17 1_555 1_555
N51_17 C143_17 1_555 1_555
N52_17 C143_17 1_555 1_555
N53_17 C144_17 1_555 1_555
N54_17 C146_17 1_555 1_555
C151_17 N55_17 1_555 1_555
N55_17 Co7_9 1_555 1_555
S7_17 C151_17 1_555 1_555
C154_17 N58_17 1_555 1_555
N58_17 Co5_21 1_555 1_555
S10_17 C154_17 1_555 1_555
Co9_7 N36_17 1_555 1_555
Co11_3 N35_17 1_555 1_555
Co12_7 N50_17 1_555 1_555
Co15_13 N26_13 1_555 1_555
Co16_17 N48_17 1_555 1_555
Co17_17 N54_17 1_555 1_555
N63_17 Co5_21 1_555 1_555
N64_17 Co7_9 1_555 1_555
C62_13 N70_7 1_555 1_555
C64_13 N71_7 1_555 1_555
C68_13 N71_7 1_555 1_555
C69_13 N25_13 1_555 1_555
C73_13 C75_13 1_555 1_555
C74_13 N26_13 1_555 1_555
C75_13 N27_13 1_555 1_555
C99_17 N35_17 1_555 1_555
C104_17 N36_17 1_555 1_555
C106_17 N38_17 1_555 1_555
C107_17 N37_17 1_555 1_555
C107_17 N39_17 1_555 1_555
C108_17 N68_7 1_555 1_555
C112_17 N68_7 1_555 1_555
C114_17 N42_17 1_555 1_555
C118_17 N42_17 1_555 1_555
C124_17 N44_17 1_555 1_555
C126_17 N46_17 1_555 1_555
C127_17 N45_17 1_555 1_555
C127_17 N47_17 1_555 1_555
C132_17 N48_17 1_555 1_555
Co5_21 N44_17 1_555 1_555
C133_17 N49_17 1_555 1_555
C137_17 N49_17 1_555 1_555
C142_17 N50_17 1_555 1_555
C144_17 N52_17 1_555 1_555
C145_17 N51_17 1_555 1_555
C145_17 N53_17 1_555 1_555
C150_17 N54_17 1_555 1_555
C119_17 N43_17 1_555 1_555
Co5_22 N43_17 1_555 1_555
S6_17 C119_17 1_555 1_555
N62_17 Co5_22 1_555 1_555
N66_17 Co5_22 1_555 1_555
C95_18 H61_18 1_555 1_555
C96_18 C95_18 1_555 1_555
C97_18 C96_18 1_555 1_555
H62_18 C97_18 1_555 1_555
C98_18 C97_18 1_555 1_555
H63_18 C98_18 1_555 1_555
C99_18 C98_18 1_555 1_555
H64_18 C99_18 1_555 1_555
C100_18 H65_18 1_555 1_555
C101_18 C100_18 1_555 1_555
H66_18 C101_18 1_555 1_555
C102_18 C101_18 1_555 1_555
H67_18 C102_18 1_555 1_555
C103_18 C102_18 1_555 1_555
C104_18 C103_18 1_555 1_555
H68_18 C104_18 1_555 1_555
C105_18 C103_18 1_555 1_555
C106_18 C96_18 1_555 1_555
C107_18 C109_18 1_555 1_555
C108_18 H69_18 1_555 1_555
C109_18 C108_18 1_555 1_555
C110_18 C109_18 1_555 1_555
H70_18 C110_18 1_555 1_555
C111_18 C110_18 1_555 1_555
H71_18 C111_18 1_555 1_555
C112_18 C111_18 1_555 1_555
H72_18 C112_18 1_555 1_555
N35_18 C95_18 1_555 1_555
N36_18 C100_18 1_555 1_555
N37_18 C105_18 1_555 1_555
N38_18 C105_18 1_555 1_555
N39_18 C106_18 1_555 1_555
Co9_10 N36_18 1_555 1_555
Co11 N35_18 1_555 1_555
C99_18 N35_18 1_555 1_555
C104_18 N36_18 1_555 1_555
C106_18 N38_18 1_555 1_555
C107_18 N37_18 1_555 1_555
C107_18 N39_18 1_555 1_555
C108_18 N68_6 1_555 1_555
C112_18 N68_6 1_555 1_555
C6_18 N2_18 1_555 1_555
Co7_8 N2_18 1_555 1_555
S1_18 C6_18 1_555 1_555
C58_14 H37_14 1_555 1_555
C59_14 C58_14 1_555 1_555
H38_14 C59_14 1_555 1_555
C60_14 C59_14 1_555 1_555
H39_14 C60_14 1_555 1_555
C61_14 C60_14 1_555 1_555
C62_14 C61_14 1_555 1_555
H40_14 C62_14 1_555 1_555
C63_14 C61_14 1_555 1_555
N70_6 C58_14 1_555 1_555
N23_14 C63_14 1_555 1_555
C64_14 H41_14 1_555 1_555
C65_14 C64_14 1_555 1_555
H42_14 C65_14 1_555 1_555
C66_14 C65_14 1_555 1_555
H43_14 C66_14 1_555 1_555
C67_14 C66_14 1_555 1_555
C68_14 C67_14 1_555 1_555
H44_14 C68_14 1_555 1_555
C69_14 C67_14 1_555 1_555
N25_14 C63_14 1_555 1_555
C70_14 H45_14 1_555 1_555
C71_14 C70_14 1_555 1_555
H46_14 C71_14 1_555 1_555
C72_14 C71_14 1_555 1_555
H47_14 C72_14 1_555 1_555
C73_14 C72_14 1_555 1_555
C74_14 C73_14 1_555 1_555
H48_14 C74_14 1_555 1_555
C75_14 N23_14 1_555 1_555
N26_14 C70_14 1_555 1_555
N27_14 C69_14 1_555 1_555
C114_18 H73_18 1_555 1_555
C115_18 C114_18 1_555 1_555
C116_18 C115_18 1_555 1_555
H74_18 C116_18 1_555 1_555
C117_18 C116_18 1_555 1_555
H75_18 C117_18 1_555 1_555
C118_18 C117_18 1_555 1_555
H76_18 C118_18 1_555 1_555
C119_18 N43_18 1_555 1_555
C120_18 H77_18 1_555 1_555
C121_18 C120_18 1_555 1_555
H78_18 C121_18 1_555 1_555
C122_18 C121_18 1_555 1_555
H79_18 C122_18 1_555 1_555
C123_18 C122_18 1_555 1_555
C124_18 C123_18 1_555 1_555
H80_18 C124_18 1_555 1_555
C125_18 C123_18 1_555 1_555
C126_18 C115_18 1_555 1_555
C127_18 C129_18 1_555 1_555
C128_18 H81_18 1_555 1_555
C129_18 C128_18 1_555 1_555
C130_18 C129_18 1_555 1_555
H82_18 C130_18 1_555 1_555
C131_18 C130_18 1_555 1_555
H83_18 C131_18 1_555 1_555
C132_18 C131_18 1_555 1_555
H84_18 C132_18 1_555 1_555
Co5_23 N43_18 1_555 1_555
N42_18 Co7_8 1_555 1_555
N44_18 C120_18 1_555 1_555
N45_18 C125_18 1_555 1_555
N46_18 C125_18 1_555 1_555
N47_18 C126_18 1_555 1_555
N48_18 C128_18 1_555 1_555
S6_18 C119_18 1_555 1_555
C133_18 H85_18 1_555 1_555
C134_18 C133_18 1_555 1_555
C135_18 C134_18 1_555 1_555
H86_18 C135_18 1_555 1_555
C136_18 C135_18 1_555 1_555
H87_18 C136_18 1_555 1_555
C137_18 C136_18 1_555 1_555
H88_18 C137_18 1_555 1_555
C138_18 H89_18 1_555 1_555
C139_18 C138_18 1_555 1_555
H90_18 C139_18 1_555 1_555
C140_18 C139_18 1_555 1_555
H91_18 C140_18 1_555 1_555
C141_18 C140_18 1_555 1_555
C142_18 C141_18 1_555 1_555
H92_18 C142_18 1_555 1_555
C143_18 C141_18 1_555 1_555
C144_18 C134_18 1_555 1_555
C145_18 C147_18 1_555 1_555
C146_18 H93_18 1_555 1_555
C147_18 C146_18 1_555 1_555
C148_18 C147_18 1_555 1_555
H94_18 C148_18 1_555 1_555
C149_18 C148_18 1_555 1_555
H95_18 C149_18 1_555 1_555
C150_18 C149_18 1_555 1_555
H96_18 C150_18 1_555 1_555
N49_18 Co7_8 1_555 1_555
N50_18 C138_18 1_555 1_555
N51_18 C143_18 1_555 1_555
N52_18 C143_18 1_555 1_555
N53_18 C144_18 1_555 1_555
N54_18 C146_18 1_555 1_555
C151_18 N55_18 1_555 1_555
N55_18 Co7_8 1_555 1_555
S7_18 C151_18 1_555 1_555
C154_18 N58_18 1_555 1_555
N58_18 Co5_23 1_555 1_555
S10_18 C154_18 1_555 1_555
Co12_10 N50_18 1_555 1_555
Co15_14 N26_14 1_555 1_555
Co16_18 N48_18 1_555 1_555
Co17_18 N54_18 1_555 1_555
N62_18 Co5_23 1_555 1_555
N63_18 Co5_23 1_555 1_555
N64_18 Co7_8 1_555 1_555
N66_18 Co5_23 1_555 1_555
C62_14 N70_6 1_555 1_555
C64_14 N71_6 1_555 1_555
C68_14 N71_6 1_555 1_555
C69_14 N25_14 1_555 1_555
C73_14 C75_14 1_555 1_555
C74_14 N26_14 1_555 1_555
C75_14 N27_14 1_555 1_555
C114_18 N42_18 1_555 1_555
C118_18 N42_18 1_555 1_555
C124_18 N44_18 1_555 1_555
C126_18 N46_18 1_555 1_555
C127_18 N45_18 1_555 1_555
C127_18 N47_18 1_555 1_555
C132_18 N48_18 1_555 1_555
Co5_23 N44_18 1_555 1_555
C133_18 N49_18 1_555 1_555
C137_18 N49_18 1_555 1_555
C142_18 N50_18 1_555 1_555
C144_18 N52_18 1_555 1_555
C145_18 N51_18 1_555 1_555
C145_18 N53_18 1_555 1_555
C150_18 N54_18 1_555 1_555
C6_19 N2_19 1_555 1_555
Co7_10 N2_19 1_555 1_555
S1_19 C6_19 1_555 1_555
C114_19 H73_19 1_555 1_555
C115_19 C114_19 1_555 1_555
C116_19 C115_19 1_555 1_555
H74_19 C116_19 1_555 1_555
C117_19 C116_19 1_555 1_555
H75_19 C117_19 1_555 1_555
C118_19 C117_19 1_555 1_555
H76_19 C118_19 1_555 1_555
C119_19 N43_19 1_555 1_555
C120_19 H77_19 1_555 1_555
C121_19 C120_19 1_555 1_555
H78_19 C121_19 1_555 1_555
C122_19 C121_19 1_555 1_555
H79_19 C122_19 1_555 1_555
C123_19 C122_19 1_555 1_555
C124_19 C123_19 1_555 1_555
H80_19 C124_19 1_555 1_555
C125_19 C123_19 1_555 1_555
C126_19 C115_19 1_555 1_555
C127_19 C129_19 1_555 1_555
C128_19 H81_19 1_555 1_555
C129_19 C128_19 1_555 1_555
C130_19 C129_19 1_555 1_555
H82_19 C130_19 1_555 1_555
C131_19 C130_19 1_555 1_555
H83_19 C131_19 1_555 1_555
C132_19 C131_19 1_555 1_555
H84_19 C132_19 1_555 1_555
Co5_24 N43_19 1_555 1_555
N42_19 Co7_10 1_555 1_555
N44_19 C120_19 1_555 1_555
N45_19 C125_19 1_555 1_555
N46_19 C125_19 1_555 1_555
N47_19 C126_19 1_555 1_555
N48_19 C128_19 1_555 1_555
S6_19 C119_19 1_555 1_555
C133_19 H85_19 1_555 1_555
C134_19 C133_19 1_555 1_555
C135_19 C134_19 1_555 1_555
H86_19 C135_19 1_555 1_555
C136_19 C135_19 1_555 1_555
H87_19 C136_19 1_555 1_555
C137_19 C136_19 1_555 1_555
H88_19 C137_19 1_555 1_555
C138_19 H89_19 1_555 1_555
C139_19 C138_19 1_555 1_555
H90_19 C139_19 1_555 1_555
C140_19 C139_19 1_555 1_555
H91_19 C140_19 1_555 1_555
C141_19 C140_19 1_555 1_555
C142_19 C141_19 1_555 1_555
H92_19 C142_19 1_555 1_555
C143_19 C141_19 1_555 1_555
C144_19 C134_19 1_555 1_555
C145_19 C147_19 1_555 1_555
C146_19 H93_19 1_555 1_555
C147_19 C146_19 1_555 1_555
C148_19 C147_19 1_555 1_555
H94_19 C148_19 1_555 1_555
C149_19 C148_19 1_555 1_555
H95_19 C149_19 1_555 1_555
C150_19 C149_19 1_555 1_555
H96_19 C150_19 1_555 1_555
N49_19 Co7_10 1_555 1_555
N50_19 C138_19 1_555 1_555
N51_19 C143_19 1_555 1_555
N52_19 C143_19 1_555 1_555
N53_19 C144_19 1_555 1_555
N54_19 C146_19 1_555 1_555
C151_19 N55_19 1_555 1_555
N55_19 Co7_10 1_555 1_555
S7_19 C151_19 1_555 1_555
C154_19 N58_19 1_555 1_555
N58_19 Co5_24 1_555 1_555
S10_19 C154_19 1_555 1_555
Co12_9 N50_19 1_555 1_555
Co16_19 N48_19 1_555 1_555
Co17_19 N54_19 1_555 1_555
N62_19 Co5_24 1_555 1_555
N63_19 Co5_24 1_555 1_555
N64_19 Co7_10 1_555 1_555
N66_19 Co5_24 1_555 1_555
C114_19 N42_19 1_555 1_555
C118_19 N42_19 1_555 1_555
C124_19 N44_19 1_555 1_555
C126_19 N46_19 1_555 1_555
C127_19 N45_19 1_555 1_555
C127_19 N47_19 1_555 1_555
C132_19 N48_19 1_555 1_555
Co5_24 N44_19 1_555 1_555
C133_19 N49_19 1_555 1_555
C137_19 N49_19 1_555 1_555
C142_19 N50_19 1_555 1_555
C144_19 N52_19 1_555 1_555
C145_19 N51_19 1_555 1_555
C145_19 N53_19 1_555 1_555
C150_19 N54_19 1_555 1_555
C58_15 H37_15 1_555 1_555
C59_15 C58_15 1_555 1_555
H38_15 C59_15 1_555 1_555
C60_15 C59_15 1_555 1_555
H39_15 C60_15 1_555 1_555
C61_15 C60_15 1_555 1_555
C62_15 C61_15 1_555 1_555
H40_15 C62_15 1_555 1_555
C63_15 C61_15 1_555 1_555
N70_8 C58_15 1_555 1_555
N23_15 C63_15 1_555 1_555
C64_15 H41_15 1_555 1_555
C65_15 C64_15 1_555 1_555
H42_15 C65_15 1_555 1_555
C66_15 C65_15 1_555 1_555
H43_15 C66_15 1_555 1_555
C67_15 C66_15 1_555 1_555
C68_15 C67_15 1_555 1_555
H44_15 C68_15 1_555 1_555
C69_15 C67_15 1_555 1_555
N25_15 C63_15 1_555 1_555
C70_15 H45_15 1_555 1_555
C71_15 C70_15 1_555 1_555
H46_15 C71_15 1_555 1_555
C72_15 C71_15 1_555 1_555
H47_15 C72_15 1_555 1_555
C73_15 C72_15 1_555 1_555
C74_15 C73_15 1_555 1_555
H48_15 C74_15 1_555 1_555
C75_15 N23_15 1_555 1_555
N26_15 C70_15 1_555 1_555
N27_15 C69_15 1_555 1_555
C95_19 H61_19 1_555 1_555
C96_19 C95_19 1_555 1_555
C97_19 C96_19 1_555 1_555
H62_19 C97_19 1_555 1_555
C98_19 C97_19 1_555 1_555
H63_19 C98_19 1_555 1_555
C99_19 C98_19 1_555 1_555
C100_19 H65_19 1_555 1_555
C101_19 C100_19 1_555 1_555
H66_19 C101_19 1_555 1_555
C102_19 C101_19 1_555 1_555
H67_19 C102_19 1_555 1_555
C103_19 C102_19 1_555 1_555
C104_19 C103_19 1_555 1_555
H68_19 C104_19 1_555 1_555
C105_19 C103_19 1_555 1_555
C106_19 C96_19 1_555 1_555
C107_19 C109_19 1_555 1_555
C108_19 H69_19 1_555 1_555
C109_19 C108_19 1_555 1_555
C110_19 C109_19 1_555 1_555
H70_19 C110_19 1_555 1_555
C111_19 C110_19 1_555 1_555
H71_19 C111_19 1_555 1_555
C112_19 C111_19 1_555 1_555
H72_19 C112_19 1_555 1_555
N35_19 C95_19 1_555 1_555
N36_19 C100_19 1_555 1_555
N37_19 C105_19 1_555 1_555
N38_19 C105_19 1_555 1_555
N39_19 C106_19 1_555 1_555
Co9_9 N36_19 1_555 1_555
Co11_5 N35_19 1_555 1_555
Co15_15 N26_15 1_555 1_555
C62_15 N70_8 1_555 1_555
C64_15 N71_8 1_555 1_555
C68_15 N71_8 1_555 1_555
C69_15 N25_15 1_555 1_555
C73_15 C75_15 1_555 1_555
C74_15 N26_15 1_555 1_555
C75_15 N27_15 1_555 1_555
C99_19 N35_19 1_555 1_555
C104_19 N36_19 1_555 1_555
C106_19 N38_19 1_555 1_555
C107_19 N37_19 1_555 1_555
C107_19 N39_19 1_555 1_555
C108_19 N68_8 1_555 1_555
C112_19 N68_8 1_555 1_555
C6_20 N2_20 1_555 1_555
Co7_6 N2_20 1_555 1_555
S1_20 C6_20 1_555 1_555
C114_20 H73_20 1_555 1_555
C115_20 C114_20 1_555 1_555
C116_20 C115_20 1_555 1_555
H74_20 C116_20 1_555 1_555
C117_20 C116_20 1_555 1_555
H75_20 C117_20 1_555 1_555
C118_20 C117_20 1_555 1_555
C119_20 N43_20 1_555 1_555
C120_20 H77_20 1_555 1_555
C121_20 C120_20 1_555 1_555
H78_20 C121_20 1_555 1_555
C122_20 C121_20 1_555 1_555
H79_20 C122_20 1_555 1_555
C123_20 C122_20 1_555 1_555
C124_20 C123_20 1_555 1_555
H80_20 C124_20 1_555 1_555
C125_20 C123_20 1_555 1_555
C126_20 C115_20 1_555 1_555
C127_20 C129_20 1_555 1_555
C128_20 H81_20 1_555 1_555
C129_20 C128_20 1_555 1_555
C130_20 C129_20 1_555 1_555
H82_20 C130_20 1_555 1_555
C131_20 C130_20 1_555 1_555
H83_20 C131_20 1_555 1_555
C132_20 C131_20 1_555 1_555
H84_20 C132_20 1_555 1_555
Co5_25 N43_20 1_555 1_555
N42_20 Co7_6 1_555 1_555
N44_20 C120_20 1_555 1_555
N45_20 C125_20 1_555 1_555
N46_20 C125_20 1_555 1_555
N47_20 C126_20 1_555 1_555
N48_20 C128_20 1_555 1_555
S6_20 C119_20 1_555 1_555
C154_20 N58_20 1_555 1_555
N58_20 Co5_25 1_555 1_555
S10_20 C154_20 1_555 1_555
Co16_20 N48_20 1_555 1_555
N62_20 Co5_25 1_555 1_555
N63_20 Co5_25 1_555 1_555
N64_20 Co7_6 1_555 1_555
N66_20 Co5_25 1_555 1_555
C114_20 N42_20 1_555 1_555
C118_20 N42_20 1_555 1_555
C124_20 N44_20 1_555 1_555
C126_20 N46_20 1_555 1_555
C127_20 N45_20 1_555 1_555
C127_20 N47_20 1_555 1_555
C132_20 N48_20 1_555 1_555
Co5_25 N44_20 1_555 1_555
C58_16 H37_16 1_555 1_555
C59_16 C58_16 1_555 1_555
H38_16 C59_16 1_555 1_555
C60_16 C59_16 1_555 1_555
H39_16 C60_16 1_555 1_555
C61_16 C60_16 1_555 1_555
C62_16 C61_16 1_555 1_555
H40_16 C62_16 1_555 1_555
C63_16 C61_16 1_555 1_555
N70_5 C58_16 1_555 1_555
N23_16 C63_16 1_555 1_555
C64_16 H41_16 1_555 1_555
C65_16 C64_16 1_555 1_555
H42_16 C65_16 1_555 1_555
C66_16 C65_16 1_555 1_555
H43_16 C66_16 1_555 1_555
C67_16 C66_16 1_555 1_555
C68_16 C67_16 1_555 1_555
H44_16 C68_16 1_555 1_555
C69_16 C67_16 1_555 1_555
N25_16 C63_16 1_555 1_555
C70_16 H45_16 1_555 1_555
C71_16 C70_16 1_555 1_555
H46_16 C71_16 1_555 1_555
C72_16 C71_16 1_555 1_555
H47_16 C72_16 1_555 1_555
C73_16 C72_16 1_555 1_555
C74_16 C73_16 1_555 1_555
H48_16 C74_16 1_555 1_555
C75_16 N23_16 1_555 1_555
N26_16 C70_16 1_555 1_555
N27_16 C69_16 1_555 1_555
C95_20 H61_20 1_555 1_555
C96_20 C95_20 1_555 1_555
C97_20 C96_20 1_555 1_555
H62_20 C97_20 1_555 1_555
C98_20 C97_20 1_555 1_555
H63_20 C98_20 1_555 1_555
C99_20 C98_20 1_555 1_555
H64_20 C99_20 1_555 1_555
C100_20 H65_20 1_555 1_555
C101_20 C100_20 1_555 1_555
H66_20 C101_20 1_555 1_555
C102_20 C101_20 1_555 1_555
H67_20 C102_20 1_555 1_555
C103_20 C102_20 1_555 1_555
C104_20 C103_20 1_555 1_555
H68_20 C104_20 1_555 1_555
C105_20 C103_20 1_555 1_555
C106_20 C96_20 1_555 1_555
C107_20 C109_20 1_555 1_555
C108_20 H69_20 1_555 1_555
C109_20 C108_20 1_555 1_555
C110_20 C109_20 1_555 1_555
H70_20 C110_20 1_555 1_555
C111_20 C110_20 1_555 1_555
H71_20 C111_20 1_555 1_555
C112_20 C111_20 1_555 1_555
H72_20 C112_20 1_555 1_555
N35_20 C95_20 1_555 1_555
N36_20 C100_20 1_555 1_555
N37_20 C105_20 1_555 1_555
N38_20 C105_20 1_555 1_555
N39_20 C106_20 1_555 1_555
C133_20 H85_20 1_555 1_555
C134_20 C133_20 1_555 1_555
C135_20 C134_20 1_555 1_555
H86_20 C135_20 1_555 1_555
C136_20 C135_20 1_555 1_555
H87_20 C136_20 1_555 1_555
C137_20 C136_20 1_555 1_555
C138_20 H89_20 1_555 1_555
C139_20 C138_20 1_555 1_555
H90_20 C139_20 1_555 1_555
C140_20 C139_20 1_555 1_555
H91_20 C140_20 1_555 1_555
C141_20 C140_20 1_555 1_555
C142_20 C141_20 1_555 1_555
H92_20 C142_20 1_555 1_555
C143_20 C141_20 1_555 1_555
C144_20 C134_20 1_555 1_555
C145_20 C147_20 1_555 1_555
C146_20 H93_20 1_555 1_555
C147_20 C146_20 1_555 1_555
C148_20 C147_20 1_555 1_555
H94_20 C148_20 1_555 1_555
C149_20 C148_20 1_555 1_555
H95_20 C149_20 1_555 1_555
C150_20 C149_20 1_555 1_555
H96_20 C150_20 1_555 1_555
N49_20 Co7_7 1_555 1_555
N50_20 C138_20 1_555 1_555
N51_20 C143_20 1_555 1_555
N52_20 C143_20 1_555 1_555
N53_20 C144_20 1_555 1_555
N54_20 C146_20 1_555 1_555
C151_20 N55_20 1_555 1_555
N55_20 Co7_7 1_555 1_555
S7_20 C151_20 1_555 1_555
Co9_8 N36_20 1_555 1_555
Co11_2 N35_20 1_555 1_555
Co12_8 N50_20 1_555 1_555
Co17_20 N54_20 1_555 1_555
C62_16 N70_5 1_555 1_555
C64_16 N71_5 1_555 1_555
C68_16 N71_5 1_555 1_555
C69_16 N25_16 1_555 1_555
C73_16 C75_16 1_555 1_555
C74_16 N26_16 1_555 1_555
C75_16 N27_16 1_555 1_555
C99_20 N35_20 1_555 1_555
C104_20 N36_20 1_555 1_555
C106_20 N38_20 1_555 1_555
C107_20 N37_20 1_555 1_555
C107_20 N39_20 1_555 1_555
C108_20 N68_5 1_555 1_555
C112_20 N68_5 1_555 1_555
C133_20 N49_20 1_555 1_555
C137_20 N49_20 1_555 1_555
C142_20 N50_20 1_555 1_555
C144_20 N52_20 1_555 1_555
C145_20 N51_20 1_555 1_555
C145_20 N53_20 1_555 1_555
C150_20 N54_20 1_555 1_555
C95_21 H61_21 1_555 1_555
C96_21 C95_21 1_555 1_555
C97_21 C96_21 1_555 1_555
H62_21 C97_21 1_555 1_555
C98_21 C97_21 1_555 1_555
H63_21 C98_21 1_555 1_555
C99_21 C98_21 1_555 1_555
H64_21 C99_21 1_555 1_555
C100_21 H65_21 1_555 1_555
C101_21 C100_21 1_555 1_555
H66_21 C101_21 1_555 1_555
C102_21 C101_21 1_555 1_555
H67_21 C102_21 1_555 1_555
C103_21 C102_21 1_555 1_555
C104_21 C103_21 1_555 1_555
H68_21 C104_21 1_555 1_555
C105_21 C103_21 1_555 1_555
C106_21 C96_21 1_555 1_555
C107_21 C109_21 1_555 1_555
C108_21 H69_21 1_555 1_555
C109_21 C108_21 1_555 1_555
C110_21 C109_21 1_555 1_555
H70_21 C110_21 1_555 1_555
C111_21 C110_21 1_555 1_555
H71_21 C111_21 1_555 1_555
C112_21 C111_21 1_555 1_555
H72_21 C112_21 1_555 1_555
N35_21 C95_21 1_555 1_555
N36_21 C100_21 1_555 1_555
N37_21 C105_21 1_555 1_555
N38_21 C105_21 1_555 1_555
N39_21 C106_21 1_555 1_555
Co9_5 N36_21 1_555 1_555
Co12_9 N35_21 1_555 1_555
C99_21 N35_21 1_555 1_555
C104_21 N36_21 1_555 1_555
C106_21 N38_21 1_555 1_555
C107_21 N37_21 1_555 1_555
C107_21 N39_21 1_555 1_555
C108_21 N69_8 1_555 1_555
C112_21 N69_8 1_555 1_555
C6_21 N2_21 1_555 1_555
Co8_10 N2_21 1_555 1_555
S1_21 C6_21 1_555 1_555
C114_21 H73_21 1_555 1_555
C115_21 C114_21 1_555 1_555
C116_21 C115_21 1_555 1_555
H74_21 C116_21 1_555 1_555
C117_21 C116_21 1_555 1_555
H75_21 C117_21 1_555 1_555
C118_21 C117_21 1_555 1_555
H76_21 C118_21 1_555 1_555
C119_21 N43_21 1_555 1_555
C120_21 H77_21 1_555 1_555
C121_21 C120_21 1_555 1_555
H78_21 C121_21 1_555 1_555
C122_21 C121_21 1_555 1_555
H79_21 C122_21 1_555 1_555
C123_21 C122_21 1_555 1_555
C124_21 C123_21 1_555 1_555
H80_21 C124_21 1_555 1_555
C125_21 C123_21 1_555 1_555
C126_21 C115_21 1_555 1_555
C127_21 C129_21 1_555 1_555
C128_21 H81_21 1_555 1_555
C129_21 C128_21 1_555 1_555
C130_21 C129_21 1_555 1_555
H82_21 C130_21 1_555 1_555
C131_21 C130_21 1_555 1_555
H83_21 C131_21 1_555 1_555
C132_21 C131_21 1_555 1_555
H84_21 C132_21 1_555 1_555
Co5_26 N43_21 1_555 1_555
N42_21 Co8_10 1_555 1_555
N44_21 C120_21 1_555 1_555
N45_21 C125_21 1_555 1_555
N46_21 C125_21 1_555 1_555
N47_21 C126_21 1_555 1_555
N48_21 C128_21 1_555 1_555
S6_21 C119_21 1_555 1_555
C133_21 H85_21 1_555 1_555
C134_21 C133_21 1_555 1_555
C135_21 C134_21 1_555 1_555
H86_21 C135_21 1_555 1_555
C136_21 C135_21 1_555 1_555
H87_21 C136_21 1_555 1_555
C137_21 C136_21 1_555 1_555
H88_21 C137_21 1_555 1_555
C138_21 H89_21 1_555 1_555
C139_21 C138_21 1_555 1_555
H90_21 C139_21 1_555 1_555
C140_21 C139_21 1_555 1_555
H91_21 C140_21 1_555 1_555
C141_21 C140_21 1_555 1_555
C142_21 C141_21 1_555 1_555
H92_21 C142_21 1_555 1_555
C143_21 C141_21 1_555 1_555
C144_21 C134_21 1_555 1_555
C145_21 C147_21 1_555 1_555
C146_21 H93_21 1_555 1_555
C147_21 C146_21 1_555 1_555
C148_21 C147_21 1_555 1_555
H94_21 C148_21 1_555 1_555
C149_21 C148_21 1_555 1_555
H95_21 C149_21 1_555 1_555
C150_21 C149_21 1_555 1_555
H96_21 C150_21 1_555 1_555
N49_21 Co8_10 1_555 1_555
N50_21 C138_21 1_555 1_555
N51_21 C143_21 1_555 1_555
N52_21 C143_21 1_555 1_555
N53_21 C144_21 1_555 1_555
N54_21 C146_21 1_555 1_555
C151_21 N55_21 1_555 1_555
N55_21 Co8_10 1_555 1_555
S7_21 C151_21 1_555 1_555
C154_21 N58_21 1_555 1_555
N58_21 Co5_26 1_555 1_555
S10_21 C154_21 1_555 1_555
Co12_5 N50_21 1_555 1_555
Co16_21 N48_21 1_555 1_555
Co17_21 N54_21 1_555 1_555
N62_21 Co5_26 1_555 1_555
N63_21 Co5_26 1_555 1_555
N64_21 Co8_10 1_555 1_555
N66_21 Co5_26 1_555 1_555
C114_21 N42_21 1_555 1_555
C118_21 N42_21 1_555 1_555
C124_21 N44_21 1_555 1_555
C126_21 N46_21 1_555 1_555
C127_21 N45_21 1_555 1_555
C127_21 N47_21 1_555 1_555
C132_21 N48_21 1_555 1_555
Co5_26 N44_21 1_555 1_555
C133_21 N49_21 1_555 1_555
C137_21 N49_21 1_555 1_555
C142_21 N50_21 1_555 1_555
C144_21 N52_21 1_555 1_555
C145_21 N51_21 1_555 1_555
C145_21 N53_21 1_555 1_555
C150_21 N54_21 1_555 1_555
C6_22 N2_22 1_555 1_555
Co8_8 N2_22 1_555 1_555
S1_22 C6_22 1_555 1_555
C95_22 H61_22 1_555 1_555
C96_22 C95_22 1_555 1_555
C97_22 C96_22 1_555 1_555
H62_22 C97_22 1_555 1_555
C98_22 C97_22 1_555 1_555
H63_22 C98_22 1_555 1_555
C99_22 C98_22 1_555 1_555
H64_22 C99_22 1_555 1_555
C100_22 H65_22 1_555 1_555
C101_22 C100_22 1_555 1_555
H66_22 C101_22 1_555 1_555
C102_22 C101_22 1_555 1_555
H67_22 C102_22 1_555 1_555
C103_22 C102_22 1_555 1_555
C104_22 C103_22 1_555 1_555
H68_22 C104_22 1_555 1_555
C105_22 C103_22 1_555 1_555
C106_22 C96_22 1_555 1_555
C107_22 C109_22 1_555 1_555
C108_22 H69_22 1_555 1_555
C109_22 C108_22 1_555 1_555
C110_22 C109_22 1_555 1_555
H70_22 C110_22 1_555 1_555
C111_22 C110_22 1_555 1_555
H71_22 C111_22 1_555 1_555
C112_22 C111_22 1_555 1_555
H72_22 C112_22 1_555 1_555
N35_22 C95_22 1_555 1_555
N36_22 C100_22 1_555 1_555
N37_22 C105_22 1_555 1_555
N38_22 C105_22 1_555 1_555
N39_22 C106_22 1_555 1_555
C114_22 H73_22 1_555 1_555
C115_22 C114_22 1_555 1_555
C116_22 C115_22 1_555 1_555
H74_22 C116_22 1_555 1_555
C117_22 C116_22 1_555 1_555
H75_22 C117_22 1_555 1_555
C118_22 C117_22 1_555 1_555
H76_22 C118_22 1_555 1_555
C120_22 H77_22 1_555 1_555
C121_22 C120_22 1_555 1_555
H78_22 C121_22 1_555 1_555
C122_22 C121_22 1_555 1_555
H79_22 C122_22 1_555 1_555
C123_22 C122_22 1_555 1_555
C124_22 C123_22 1_555 1_555
H80_22 C124_22 1_555 1_555
C125_22 C123_22 1_555 1_555
C126_22 C115_22 1_555 1_555
C127_22 C129_22 1_555 1_555
C128_22 H81_22 1_555 1_555
C129_22 C128_22 1_555 1_555
C130_22 C129_22 1_555 1_555
H82_22 C130_22 1_555 1_555
C131_22 C130_22 1_555 1_555
H83_22 C131_22 1_555 1_555
C132_22 C131_22 1_555 1_555
H84_22 C132_22 1_555 1_555
N42_22 Co8_8 1_555 1_555
N44_22 C120_22 1_555 1_555
N45_22 C125_22 1_555 1_555
N46_22 C125_22 1_555 1_555
N47_22 C126_22 1_555 1_555
N48_22 C128_22 1_555 1_555
C133_22 H85_22 1_555 1_555
C134_22 C133_22 1_555 1_555
C135_22 C134_22 1_555 1_555
H86_22 C135_22 1_555 1_555
C136_22 C135_22 1_555 1_555
H87_22 C136_22 1_555 1_555
C137_22 C136_22 1_555 1_555
H88_22 C137_22 1_555 1_555
C138_22 H89_22 1_555 1_555
C139_22 C138_22 1_555 1_555
H90_22 C139_22 1_555 1_555
C140_22 C139_22 1_555 1_555
H91_22 C140_22 1_555 1_555
C141_22 C140_22 1_555 1_555
C142_22 C141_22 1_555 1_555
H92_22 C142_22 1_555 1_555
C143_22 C141_22 1_555 1_555
C144_22 C134_22 1_555 1_555
C145_22 C147_22 1_555 1_555
C146_22 H93_22 1_555 1_555
C147_22 C146_22 1_555 1_555
C148_22 C147_22 1_555 1_555
H94_22 C148_22 1_555 1_555
C149_22 C148_22 1_555 1_555
H95_22 C149_22 1_555 1_555
C150_22 C149_22 1_555 1_555
H96_22 C150_22 1_555 1_555
N49_22 Co8_8 1_555 1_555
N50_22 C138_22 1_555 1_555
N51_22 C143_22 1_555 1_555
N52_22 C143_22 1_555 1_555
N53_22 C144_22 1_555 1_555
N54_22 C146_22 1_555 1_555
C151_22 N55_22 1_555 1_555
N55_22 Co8_8 1_555 1_555
S7_22 C151_22 1_555 1_555
C154_22 N58_22 1_555 1_555
N58_22 Co5_27 1_555 1_555
S10_22 C154_22 1_555 1_555
Co9_2 N36_22 1_555 1_555
Co12_10 N35_22 1_555 1_555
Co12_2 N50_22 1_555 1_555
Co16_22 N48_22 1_555 1_555
Co17_22 N54_22 1_555 1_555
N63_22 Co5_27 1_555 1_555
N64_22 Co8_8 1_555 1_555
C99_22 N35_22 1_555 1_555
C104_22 N36_22 1_555 1_555
C106_22 N38_22 1_555 1_555
C107_22 N37_22 1_555 1_555
C107_22 N39_22 1_555 1_555
C108_22 N69_6 1_555 1_555
C112_22 N69_6 1_555 1_555
C114_22 N42_22 1_555 1_555
C118_22 N42_22 1_555 1_555
C124_22 N44_22 1_555 1_555
C126_22 N46_22 1_555 1_555
C127_22 N45_22 1_555 1_555
C127_22 N47_22 1_555 1_555
C132_22 N48_22 1_555 1_555
Co5_27 N44_22 1_555 1_555
C133_22 N49_22 1_555 1_555
C137_22 N49_22 1_555 1_555
C142_22 N50_22 1_555 1_555
C144_22 N52_22 1_555 1_555
C145_22 N51_22 1_555 1_555
C145_22 N53_22 1_555 1_555
C150_22 N54_22 1_555 1_555
C119_22 N43_22 1_555 1_555
Co5_28 N43_22 1_555 1_555
S6_22 C119_22 1_555 1_555
N62_22 Co5_28 1_555 1_555
N66_22 Co5_28 1_555 1_555
C6_23 N2_23 1_555 1_555
Co8_6 N2_23 1_555 1_555
S1_23 C6_23 1_555 1_555
C114_23 H73_23 1_555 1_555
C115_23 C114_23 1_555 1_555
C116_23 C115_23 1_555 1_555
H74_23 C116_23 1_555 1_555
C117_23 C116_23 1_555 1_555
H75_23 C117_23 1_555 1_555
C118_23 C117_23 1_555 1_555
C119_23 N43_23 1_555 1_555
C120_23 H77_23 1_555 1_555
C121_23 C120_23 1_555 1_555
H78_23 C121_23 1_555 1_555
C122_23 C121_23 1_555 1_555
H79_23 C122_23 1_555 1_555
C123_23 C122_23 1_555 1_555
C124_23 C123_23 1_555 1_555
H80_23 C124_23 1_555 1_555
C125_23 C123_23 1_555 1_555
C126_23 C115_23 1_555 1_555
C127_23 C129_23 1_555 1_555
C128_23 H81_23 1_555 1_555
C129_23 C128_23 1_555 1_555
C130_23 C129_23 1_555 1_555
H82_23 C130_23 1_555 1_555
C131_23 C130_23 1_555 1_555
H83_23 C131_23 1_555 1_555
C132_23 C131_23 1_555 1_555
H84_23 C132_23 1_555 1_555
Co5_29 N43_23 1_555 1_555
N42_23 Co8_6 1_555 1_555
N44_23 C120_23 1_555 1_555
N45_23 C125_23 1_555 1_555
N46_23 C125_23 1_555 1_555
N47_23 C126_23 1_555 1_555
N48_23 C128_23 1_555 1_555
S6_23 C119_23 1_555 1_555
C154_23 N58_23 1_555 1_555
N58_23 Co5_29 1_555 1_555
S10_23 C154_23 1_555 1_555
Co16_23 N48_23 1_555 1_555
N62_23 Co5_29 1_555 1_555
N63_23 Co5_29 1_555 1_555
N64_23 Co8_6 1_555 1_555
N66_23 Co5_29 1_555 1_555
C114_23 N42_23 1_555 1_555
C118_23 N42_23 1_555 1_555
C124_23 N44_23 1_555 1_555
C126_23 N46_23 1_555 1_555
C127_23 N45_23 1_555 1_555
C127_23 N47_23 1_555 1_555
C132_23 N48_23 1_555 1_555
Co5_29 N44_23 1_555 1_555
C95_23 H61_23 1_555 1_555
C96_23 C95_23 1_555 1_555
C97_23 C96_23 1_555 1_555
H62_23 C97_23 1_555 1_555
C98_23 C97_23 1_555 1_555
H63_23 C98_23 1_555 1_555
C99_23 C98_23 1_555 1_555
H64_23 C99_23 1_555 1_555
C100_23 H65_23 1_555 1_555
C101_23 C100_23 1_555 1_555
H66_23 C101_23 1_555 1_555
C102_23 C101_23 1_555 1_555
H67_23 C102_23 1_555 1_555
C103_23 C102_23 1_555 1_555
C104_23 C103_23 1_555 1_555
H68_23 C104_23 1_555 1_555
C105_23 C103_23 1_555 1_555
C106_23 C96_23 1_555 1_555
C107_23 C109_23 1_555 1_555
C108_23 H69_23 1_555 1_555
C109_23 C108_23 1_555 1_555
C110_23 C109_23 1_555 1_555
H70_23 C110_23 1_555 1_555
C111_23 C110_23 1_555 1_555
H71_23 C111_23 1_555 1_555
C112_23 C111_23 1_555 1_555
H72_23 C112_23 1_555 1_555
N35_23 C95_23 1_555 1_555
N36_23 C100_23 1_555 1_555
N37_23 C105_23 1_555 1_555
N38_23 C105_23 1_555 1_555
N39_23 C106_23 1_555 1_555
C133_23 H85_23 1_555 1_555
C134_23 C133_23 1_555 1_555
C135_23 C134_23 1_555 1_555
H86_23 C135_23 1_555 1_555
C136_23 C135_23 1_555 1_555
H87_23 C136_23 1_555 1_555
C137_23 C136_23 1_555 1_555
C138_23 H89_23 1_555 1_555
C139_23 C138_23 1_555 1_555
H90_23 C139_23 1_555 1_555
C140_23 C139_23 1_555 1_555
H91_23 C140_23 1_555 1_555
C141_23 C140_23 1_555 1_555
C142_23 C141_23 1_555 1_555
H92_23 C142_23 1_555 1_555
C143_23 C141_23 1_555 1_555
C144_23 C134_23 1_555 1_555
C145_23 C147_23 1_555 1_555
C146_23 H93_23 1_555 1_555
C147_23 C146_23 1_555 1_555
C148_23 C147_23 1_555 1_555
H94_23 C148_23 1_555 1_555
C149_23 C148_23 1_555 1_555
H95_23 C149_23 1_555 1_555
C150_23 C149_23 1_555 1_555
H96_23 C150_23 1_555 1_555
N49_23 Co8_7 1_555 1_555
N50_23 C138_23 1_555 1_555
N51_23 C143_23 1_555 1_555
N52_23 C143_23 1_555 1_555
N53_23 C144_23 1_555 1_555
N54_23 C146_23 1_555 1_555
C151_23 N55_23 1_555 1_555
N55_23 Co8_7 1_555 1_555
S7_23 C151_23 1_555 1_555
Co9_3 N36_23 1_555 1_555
Co12_8 N35_23 1_555 1_555
Co12_3 N50_23 1_555 1_555
Co17_23 N54_23 1_555 1_555
C99_23 N35_23 1_555 1_555
C104_23 N36_23 1_555 1_555
C106_23 N38_23 1_555 1_555
C107_23 N37_23 1_555 1_555
C107_23 N39_23 1_555 1_555
C108_23 N69_5 1_555 1_555
C112_23 N69_5 1_555 1_555
C133_23 N49_23 1_555 1_555
C137_23 N49_23 1_555 1_555
C142_23 N50_23 1_555 1_555
C144_23 N52_23 1_555 1_555
C145_23 N51_23 1_555 1_555
C145_23 N53_23 1_555 1_555
C150_23 N54_23 1_555 1_555
C6_24 N2_24 1_555 1_555
Co8_9 N2_24 1_555 1_555
S1_24 C6_24 1_555 1_555
C114_24 H73_24 1_555 1_555
C115_24 C114_24 1_555 1_555
C116_24 C115_24 1_555 1_555
H74_24 C116_24 1_555 1_555
C117_24 C116_24 1_555 1_555
H75_24 C117_24 1_555 1_555
C118_24 C117_24 1_555 1_555
H76_24 C118_24 1_555 1_555
C119_24 N43_24 1_555 1_555
C120_24 H77_24 1_555 1_555
C121_24 C120_24 1_555 1_555
H78_24 C121_24 1_555 1_555
C122_24 C121_24 1_555 1_555
H79_24 C122_24 1_555 1_555
C123_24 C122_24 1_555 1_555
C124_24 C123_24 1_555 1_555
H80_24 C124_24 1_555 1_555
C125_24 C123_24 1_555 1_555
C126_24 C115_24 1_555 1_555
C127_24 C129_24 1_555 1_555
C128_24 H81_24 1_555 1_555
C129_24 C128_24 1_555 1_555
C130_24 C129_24 1_555 1_555
H82_24 C130_24 1_555 1_555
C131_24 C130_24 1_555 1_555
H83_24 C131_24 1_555 1_555
C132_24 C131_24 1_555 1_555
H84_24 C132_24 1_555 1_555
Co5_30 N43_24 1_555 1_555
N42_24 Co8_9 1_555 1_555
N44_24 C120_24 1_555 1_555
N45_24 C125_24 1_555 1_555
N46_24 C125_24 1_555 1_555
N47_24 C126_24 1_555 1_555
N48_24 C128_24 1_555 1_555
S6_24 C119_24 1_555 1_555
C133_24 H85_24 1_555 1_555
C134_24 C133_24 1_555 1_555
C135_24 C134_24 1_555 1_555
H86_24 C135_24 1_555 1_555
C136_24 C135_24 1_555 1_555
H87_24 C136_24 1_555 1_555
C137_24 C136_24 1_555 1_555
H88_24 C137_24 1_555 1_555
C138_24 H89_24 1_555 1_555
C139_24 C138_24 1_555 1_555
H90_24 C139_24 1_555 1_555
C140_24 C139_24 1_555 1_555
H91_24 C140_24 1_555 1_555
C141_24 C140_24 1_555 1_555
C142_24 C141_24 1_555 1_555
H92_24 C142_24 1_555 1_555
C143_24 C141_24 1_555 1_555
C144_24 C134_24 1_555 1_555
C145_24 C147_24 1_555 1_555
C146_24 H93_24 1_555 1_555
C147_24 C146_24 1_555 1_555
C148_24 C147_24 1_555 1_555
H94_24 C148_24 1_555 1_555
C149_24 C148_24 1_555 1_555
H95_24 C149_24 1_555 1_555
C150_24 C149_24 1_555 1_555
H96_24 C150_24 1_555 1_555
N49_24 Co8_9 1_555 1_555
N50_24 C138_24 1_555 1_555
N51_24 C143_24 1_555 1_555
N52_24 C143_24 1_555 1_555
N53_24 C144_24 1_555 1_555
N54_24 C146_24 1_555 1_555
C151_24 N55_24 1_555 1_555
N55_24 Co8_9 1_555 1_555
S7_24 C151_24 1_555 1_555
C154_24 N58_24 1_555 1_555
N58_24 Co5_30 1_555 1_555
S10_24 C154_24 1_555 1_555
Co12_4 N50_24 1_555 1_555
Co16_24 N48_24 1_555 1_555
Co17_24 N54_24 1_555 1_555
N62_24 Co5_30 1_555 1_555
N63_24 Co5_30 1_555 1_555
N64_24 Co8_9 1_555 1_555
N66_24 Co5_30 1_555 1_555
C114_24 N42_24 1_555 1_555
C118_24 N42_24 1_555 1_555
C124_24 N44_24 1_555 1_555
C126_24 N46_24 1_555 1_555
C127_24 N45_24 1_555 1_555
C127_24 N47_24 1_555 1_555
C132_24 N48_24 1_555 1_555
Co5_30 N44_24 1_555 1_555
C133_24 N49_24 1_555 1_555
C137_24 N49_24 1_555 1_555
C142_24 N50_24 1_555 1_555
C144_24 N52_24 1_555 1_555
C145_24 N51_24 1_555 1_555
C145_24 N53_24 1_555 1_555
C150_24 N54_24 1_555 1_555
C95_24 H61_24 1_555 1_555
C96_24 C95_24 1_555 1_555
C97_24 C96_24 1_555 1_555
H62_24 C97_24 1_555 1_555
C98_24 C97_24 1_555 1_555
H63_24 C98_24 1_555 1_555
C99_24 C98_24 1_555 1_555
C100_24 H65_24 1_555 1_555
C101_24 C100_24 1_555 1_555
H66_24 C101_24 1_555 1_555
C102_24 C101_24 1_555 1_555
H67_24 C102_24 1_555 1_555
C103_24 C102_24 1_555 1_555
C104_24 C103_24 1_555 1_555
H68_24 C104_24 1_555 1_555
C105_24 C103_24 1_555 1_555
C106_24 C96_24 1_555 1_555
C107_24 C109_24 1_555 1_555
C108_24 H69_24 1_555 1_555
C109_24 C108_24 1_555 1_555
C110_24 C109_24 1_555 1_555
H70_24 C110_24 1_555 1_555
C111_24 C110_24 1_555 1_555
H71_24 C111_24 1_555 1_555
C112_24 C111_24 1_555 1_555
H72_24 C112_24 1_555 1_555
N35_24 C95_24 1_555 1_555
N36_24 C100_24 1_555 1_555
N37_24 C105_24 1_555 1_555
N38_24 C105_24 1_555 1_555
N39_24 C106_24 1_555 1_555
Co9_4 N36_24 1_555 1_555
Co12_7 N35_24 1_555 1_555
C99_24 N35_24 1_555 1_555
C104_24 N36_24 1_555 1_555
C106_24 N38_24 1_555 1_555
C107_24 N37_24 1_555 1_555
C107_24 N39_24 1_555 1_555
C108_24 N69_7 1_555 1_555
C112_24 N69_7 1_555 1_555
C1_9 H1_9 1_555 1_555
C2_9 C1_9 1_555 1_555
C3_9 C2_9 1_555 1_555
H2_9 C3_9 1_555 1_555
C4_9 C3_9 1_555 1_555
H3_9 C4_9 1_555 1_555
C5_9 C4_9 1_555 1_555
H4_9 C5_9 1_555 1_555
C6_25 N2_25 1_555 1_555
C7_9 H5_9 1_555 1_555
C8_9 C7_9 1_555 1_555
H6_9 C8_9 1_555 1_555
C9_9 C8_9 1_555 1_555
H7_9 C9_9 1_555 1_555
C10_9 C9_9 1_555 1_555
C11_9 C10_9 1_555 1_555
H8_9 C11_9 1_555 1_555
C12_9 C10_9 1_555 1_555
C13_9 C2_9 1_555 1_555
C14_9 C16_9 1_555 1_555
C15_9 H9_9 1_555 1_555
C16_9 C15_9 1_555 1_555
C17_9 C16_9 1_555 1_555
H10_9 C17_9 1_555 1_555
C18_9 C17_9 1_555 1_555
H11_9 C18_9 1_555 1_555
C19_9 C18_9 1_555 1_555
H12_9 C19_9 1_555 1_555
C20_9 N8_9 1_555 1_555
Co1_11 N2_25 1_555 1_555
Co15_6 N7_9 1_555 1_555
N63_15 C1_9 1_555 1_555
N3_9 C7_9 1_555 1_555
N4_9 C12_9 1_555 1_555
N5_9 C12_9 1_555 1_555
N6_9 C13_9 1_555 1_555
N7_9 C15_9 1_555 1_555
N8_9 Co15_6 1_555 1_555
S1_25 C6_25 1_555 1_555
S2_9 C20_9 1_555 1_555
C39_9 H25_9 1_555 1_555
C40_9 C39_9 1_555 1_555
C41_9 C40_9 1_555 1_555
H26_9 C41_9 1_555 1_555
C42_9 C41_9 1_555 1_555
H27_9 C42_9 1_555 1_555
C43_9 C42_9 1_555 1_555
H28_9 C43_9 1_555 1_555
C44_9 H29_9 1_555 1_555
C45_9 C44_9 1_555 1_555
H30_9 C45_9 1_555 1_555
C46_9 C45_9 1_555 1_555
H31_9 C46_9 1_555 1_555
C47_9 C46_9 1_555 1_555
C48_9 C47_9 1_555 1_555
H32_9 C48_9 1_555 1_555
C49_9 C47_9 1_555 1_555
C50_9 C40_9 1_555 1_555
C51_9 C53_9 1_555 1_555
C52_9 H33_9 1_555 1_555
C53_9 C52_9 1_555 1_555
C54_9 C53_9 1_555 1_555
H34_9 C54_9 1_555 1_555
C55_9 C54_9 1_555 1_555
H35_9 C55_9 1_555 1_555
C56_9 C55_9 1_555 1_555
H36_9 C56_9 1_555 1_555
C57_9 N21_9 1_555 1_555
C58_17 H37_17 1_555 1_555
C59_17 C58_17 1_555 1_555
H38_17 C59_17 1_555 1_555
C60_17 C59_17 1_555 1_555
H39_17 C60_17 1_555 1_555
C61_17 C60_17 1_555 1_555
C62_17 C61_17 1_555 1_555
H40_17 C62_17 1_555 1_555
C63_17 C61_17 1_555 1_555
Co14_2 N20_9 1_555 1_555
N62_11 C39_9 1_555 1_555
N64_21 C44_9 1_555 1_555
N17_9 C49_9 1_555 1_555
N18_9 C49_9 1_555 1_555
N19_9 C50_9 1_555 1_555
N20_9 C52_9 1_555 1_555
N21_9 Co14_2 1_555 1_555
N22_9 C58_17 1_555 1_555
N23_17 C63_17 1_555 1_555
S3_9 C57_9 1_555 1_555
C64_17 H41_17 1_555 1_555
C65_17 C64_17 1_555 1_555
H42_17 C65_17 1_555 1_555
C66_17 C65_17 1_555 1_555
H43_17 C66_17 1_555 1_555
C67_17 C66_17 1_555 1_555
C68_17 C67_17 1_555 1_555
H44_17 C68_17 1_555 1_555
C69_17 C67_17 1_555 1_555
N24_9 Co15_6 1_555 1_555
N25_17 C63_17 1_555 1_555
C70_17 H45_17 1_555 1_555
C71_17 C70_17 1_555 1_555
H46_17 C71_17 1_555 1_555
C72_17 C71_17 1_555 1_555
H47_17 C72_17 1_555 1_555
C73_17 C72_17 1_555 1_555
C74_17 C73_17 1_555 1_555
H48_17 C74_17 1_555 1_555
C75_17 N23_17 1_555 1_555
N26_17 C70_17 1_555 1_555
N27_17 C69_17 1_555 1_555
C114_25 H73_25 1_555 1_555
C115_25 C114_25 1_555 1_555
C116_25 C115_25 1_555 1_555
H74_25 C116_25 1_555 1_555
C117_25 C116_25 1_555 1_555
H75_25 C117_25 1_555 1_555
C118_25 C117_25 1_555 1_555
H76_25 C118_25 1_555 1_555
C120_25 H77_25 1_555 1_555
C121_25 C120_25 1_555 1_555
H78_25 C121_25 1_555 1_555
C122_25 C121_25 1_555 1_555
H79_25 C122_25 1_555 1_555
C123_25 C122_25 1_555 1_555
C124_25 C123_25 1_555 1_555
H80_25 C124_25 1_555 1_555
C125_25 C123_25 1_555 1_555
C126_25 C115_25 1_555 1_555
C127_25 C129_25 1_555 1_555
C128_25 H81_25 1_555 1_555
C129_25 C128_25 1_555 1_555
C130_25 C129_25 1_555 1_555
H82_25 C130_25 1_555 1_555
C131_25 C130_25 1_555 1_555
H83_25 C131_25 1_555 1_555
C132_25 C131_25 1_555 1_555
H84_25 C132_25 1_555 1_555
N42_25 Co1_11 1_555 1_555
N66_19 C120_25 1_555 1_555
N45_25 C125_25 1_555 1_555
N46_25 C125_25 1_555 1_555
N47_25 C126_25 1_555 1_555
N48_25 C128_25 1_555 1_555
C133_25 H85_25 1_555 1_555
C134_25 C133_25 1_555 1_555
C135_25 C134_25 1_555 1_555
H86_25 C135_25 1_555 1_555
C136_25 C135_25 1_555 1_555
H87_25 C136_25 1_555 1_555
C137_25 C136_25 1_555 1_555
H88_25 C137_25 1_555 1_555
C138_25 H89_25 1_555 1_555
C139_25 C138_25 1_555 1_555
H90_25 C139_25 1_555 1_555
C140_25 C139_25 1_555 1_555
H91_25 C140_25 1_555 1_555
C141_25 C140_25 1_555 1_555
C142_25 C141_25 1_555 1_555
H92_25 C142_25 1_555 1_555
C143_25 C141_25 1_555 1_555
C144_25 C134_25 1_555 1_555
C145_25 C147_25 1_555 1_555
C146_25 H93_25 1_555 1_555
C147_25 C146_25 1_555 1_555
C148_25 C147_25 1_555 1_555
H94_25 C148_25 1_555 1_555
C149_25 C148_25 1_555 1_555
H95_25 C149_25 1_555 1_555
C150_25 C149_25 1_555 1_555
H96_25 C150_25 1_555 1_555
N49_25 Co1_11 1_555 1_555
N66_7 C138_25 1_555 1_555
N51_25 C143_25 1_555 1_555
N52_25 C143_25 1_555 1_555
N53_25 C144_25 1_555 1_555
N54_25 C146_25 1_555 1_555
C151_25 N55_25 1_555 1_555
N55_25 Co1_11 1_555 1_555
S7_25 C151_25 1_555 1_555
C152_9 N56_9 1_555 1_555
N56_9 Co15_6 1_555 1_555
S8_9 C152_9 1_555 1_555
C153_9 N57_9 1_555 1_555
N57_9 Co14_2 1_555 1_555
S9_9 C153_9 1_555 1_555
Co15_2 N26_17 1_555 1_555
Co16_3 N48_25 1_555 1_555
Co16_15 N54_25 1_555 1_555
N64_25 Co1_11 1_555 1_555
N68_9 Co15_6 1_555 1_555
N69_9 Co14_2 1_555 1_555
C5_9 N63_15 1_555 1_555
C11_9 N3_9 1_555 1_555
C13_9 N5_9 1_555 1_555
C14_9 N4_9 1_555 1_555
C14_9 N6_9 1_555 1_555
C19_9 N7_9 1_555 1_555
Co1_11 N3_9 1_555 1_555
C43_9 N62_11 1_555 1_555
C48_9 N64_21 1_555 1_555
C50_9 N18_9 1_555 1_555
C51_9 N17_9 1_555 1_555
C51_9 N19_9 1_555 1_555
C56_9 N20_9 1_555 1_555
C62_17 N22_9 1_555 1_555
Co14_2 N22_9 1_555 1_555
C64_17 N24_9 1_555 1_555
C68_17 N24_9 1_555 1_555
C69_17 N25_17 1_555 1_555
C73_17 C75_17 1_555 1_555
C74_17 N26_17 1_555 1_555
C75_17 N27_17 1_555 1_555
C114_25 N42_25 1_555 1_555
C118_25 N42_25 1_555 1_555
C124_25 N66_19 1_555 1_555
C126_25 N46_25 1_555 1_555
C127_25 N45_25 1_555 1_555
C127_25 N47_25 1_555 1_555
C132_25 N48_25 1_555 1_555
C133_25 N49_25 1_555 1_555
C137_25 N49_25 1_555 1_555
C142_25 N66_7 1_555 1_555
C144_25 N52_25 1_555 1_555
C145_25 N51_25 1_555 1_555
C145_25 N53_25 1_555 1_555
C150_25 N54_25 1_555 1_555
C1_10 H1_10 1_555 1_555
C2_10 C1_10 1_555 1_555
C3_10 C2_10 1_555 1_555
H2_10 C3_10 1_555 1_555
C4_10 C3_10 1_555 1_555
H3_10 C4_10 1_555 1_555
C5_10 C4_10 1_555 1_555
C7_10 H5_10 1_555 1_555
C8_10 C7_10 1_555 1_555
H6_10 C8_10 1_555 1_555
C9_10 C8_10 1_555 1_555
H7_10 C9_10 1_555 1_555
C10_10 C9_10 1_555 1_555
C11_10 C10_10 1_555 1_555
H8_10 C11_10 1_555 1_555
C12_10 C10_10 1_555 1_555
C13_10 C2_10 1_555 1_555
C14_10 C16_10 1_555 1_555
C15_10 H9_10 1_555 1_555
C16_10 C15_10 1_555 1_555
C17_10 C16_10 1_555 1_555
H10_10 C17_10 1_555 1_555
C18_10 C17_10 1_555 1_555
H11_10 C18_10 1_555 1_555
C19_10 C18_10 1_555 1_555
H12_10 C19_10 1_555 1_555
C20_10 N8_10 1_555 1_555
Co15_8 N7_10 1_555 1_555
N63_16 C1_10 1_555 1_555
N3_10 C7_10 1_555 1_555
N4_10 C12_10 1_555 1_555
N5_10 C12_10 1_555 1_555
N6_10 C13_10 1_555 1_555
N7_10 C15_10 1_555 1_555
N8_10 Co15_8 1_555 1_555
S2_10 C20_10 1_555 1_555
C39_10 H25_10 1_555 1_555
C40_10 C39_10 1_555 1_555
C41_10 C40_10 1_555 1_555
H26_10 C41_10 1_555 1_555
C42_10 C41_10 1_555 1_555
H27_10 C42_10 1_555 1_555
C43_10 C42_10 1_555 1_555
C44_10 H29_10 1_555 1_555
C45_10 C44_10 1_555 1_555
H30_10 C45_10 1_555 1_555
C46_10 C45_10 1_555 1_555
H31_10 C46_10 1_555 1_555
C47_10 C46_10 1_555 1_555
C48_10 C47_10 1_555 1_555
H32_10 C48_10 1_555 1_555
C49_10 C47_10 1_555 1_555
C50_10 C40_10 1_555 1_555
C51_10 C53_10 1_555 1_555
C52_10 H33_10 1_555 1_555
C53_10 C52_10 1_555 1_555
C54_10 C53_10 1_555 1_555
H34_10 C54_10 1_555 1_555
C55_10 C54_10 1_555 1_555
H35_10 C55_10 1_555 1_555
C56_10 C55_10 1_555 1_555
H36_10 C56_10 1_555 1_555
C57_10 N21_10 1_555 1_555
C58_18 H37_18 1_555 1_555
C59_18 C58_18 1_555 1_555
H38_18 C59_18 1_555 1_555
C60_18 C59_18 1_555 1_555
H39_18 C60_18 1_555 1_555
C61_18 C60_18 1_555 1_555
C62_18 C61_18 1_555 1_555
H40_18 C62_18 1_555 1_555
C63_18 C61_18 1_555 1_555
Co14 N20_10 1_555 1_555
N62_10 C39_10 1_555 1_555
N64_24 C44_10 1_555 1_555
N17_10 C49_10 1_555 1_555
N18_10 C49_10 1_555 1_555
N19_10 C50_10 1_555 1_555
N20_10 C52_10 1_555 1_555
N21_10 Co14 1_555 1_555
N22_10 C58_18 1_555 1_555
N23_18 C63_18 1_555 1_555
S3_10 C57_10 1_555 1_555
C64_18 H41_18 1_555 1_555
C65_18 C64_18 1_555 1_555
H42_18 C65_18 1_555 1_555
C66_18 C65_18 1_555 1_555
H43_18 C66_18 1_555 1_555
C67_18 C66_18 1_555 1_555
C68_18 C67_18 1_555 1_555
H44_18 C68_18 1_555 1_555
C69_18 C67_18 1_555 1_555
N24_10 Co15_8 1_555 1_555
N25_18 C63_18 1_555 1_555
C70_18 H45_18 1_555 1_555
C71_18 C70_18 1_555 1_555
H46_18 C71_18 1_555 1_555
C72_18 C71_18 1_555 1_555
H47_18 C72_18 1_555 1_555
C73_18 C72_18 1_555 1_555
C74_18 C73_18 1_555 1_555
H48_18 C74_18 1_555 1_555
C75_18 N23_18 1_555 1_555
N26_18 C70_18 1_555 1_555
N27_18 C69_18 1_555 1_555
C133_26 H85_26 1_555 1_555
C134_26 C133_26 1_555 1_555
C135_26 C134_26 1_555 1_555
H86_26 C135_26 1_555 1_555
C136_26 C135_26 1_555 1_555
H87_26 C136_26 1_555 1_555
C137_26 C136_26 1_555 1_555
C138_26 H89_26 1_555 1_555
C139_26 C138_26 1_555 1_555
H90_26 C139_26 1_555 1_555
C140_26 C139_26 1_555 1_555
H91_26 C140_26 1_555 1_555
C141_26 C140_26 1_555 1_555
C142_26 C141_26 1_555 1_555
H92_26 C142_26 1_555 1_555
C143_26 C141_26 1_555 1_555
C144_26 C134_26 1_555 1_555
C145_26 C147_26 1_555 1_555
C146_26 H93_26 1_555 1_555
C147_26 C146_26 1_555 1_555
C148_26 C147_26 1_555 1_555
H94_26 C148_26 1_555 1_555
C149_26 C148_26 1_555 1_555
H95_26 C149_26 1_555 1_555
C150_26 C149_26 1_555 1_555
H96_26 C150_26 1_555 1_555
N49_26 Co1_12 1_555 1_555
N66_5 C138_26 1_555 1_555
N51_26 C143_26 1_555 1_555
N52_26 C143_26 1_555 1_555
N53_26 C144_26 1_555 1_555
N54_26 C146_26 1_555 1_555
C151_26 N55_26 1_555 1_555
N55_26 Co1_12 1_555 1_555
S7_26 C151_26 1_555 1_555
C152_10 N56_10 1_555 1_555
N56_10 Co15_8 1_555 1_555
S8_10 C152_10 1_555 1_555
C153_10 N57_10 1_555 1_555
N57_10 Co14 1_555 1_555
S9_10 C153_10 1_555 1_555
Co16_16 N54_26 1_555 1_555
N68_10 Co15_8 1_555 1_555
N69_10 Co14 1_555 1_555
C5_10 N63_16 1_555 1_555
C11_10 N3_10 1_555 1_555
C13_10 N5_10 1_555 1_555
C14_10 N4_10 1_555 1_555
C14_10 N6_10 1_555 1_555
C19_10 N7_10 1_555 1_555
Co1_12 N3_10 1_555 1_555
C43_10 N62_10 1_555 1_555
C48_10 N64_24 1_555 1_555
C50_10 N18_10 1_555 1_555
C51_10 N17_10 1_555 1_555
C51_10 N19_10 1_555 1_555
C56_10 N20_10 1_555 1_555
C62_18 N22_10 1_555 1_555
Co14 N22_10 1_555 1_555
C64_18 N24_10 1_555 1_555
C68_18 N24_10 1_555 1_555
C69_18 N25_18 1_555 1_555
C73_18 C75_18 1_555 1_555
C74_18 N26_18 1_555 1_555
C75_18 N27_18 1_555 1_555
C133_26 N49_26 1_555 1_555
C137_26 N49_26 1_555 1_555
C142_26 N66_5 1_555 1_555
C144_26 N52_26 1_555 1_555
C145_26 N51_26 1_555 1_555
C145_26 N53_26 1_555 1_555
C150_26 N54_26 1_555 1_555
C6_26 N2_26 1_555 1_555
Co1_13 N2_26 1_555 1_555
S1_26 C6_26 1_555 1_555
C114_26 H73_26 1_555 1_555
C115_26 C114_26 1_555 1_555
C116_26 C115_26 1_555 1_555
H74_26 C116_26 1_555 1_555
C117_26 C116_26 1_555 1_555
H75_26 C117_26 1_555 1_555
C118_26 C117_26 1_555 1_555
C120_26 H77_26 1_555 1_555
C121_26 C120_26 1_555 1_555
H78_26 C121_26 1_555 1_555
C122_26 C121_26 1_555 1_555
H79_26 C122_26 1_555 1_555
C123_26 C122_26 1_555 1_555
C124_26 C123_26 1_555 1_555
H80_26 C124_26 1_555 1_555
C125_26 C123_26 1_555 1_555
C126_26 C115_26 1_555 1_555
C127_26 C129_26 1_555 1_555
C128_26 H81_26 1_555 1_555
C129_26 C128_26 1_555 1_555
C130_26 C129_26 1_555 1_555
H82_26 C130_26 1_555 1_555
C131_26 C130_26 1_555 1_555
H83_26 C131_26 1_555 1_555
C132_26 C131_26 1_555 1_555
H84_26 C132_26 1_555 1_555
N42_26 Co1_13 1_555 1_555
N66_17 C120_26 1_555 1_555
N45_26 C125_26 1_555 1_555
N46_26 C125_26 1_555 1_555
N47_26 C126_26 1_555 1_555
N48_26 C128_26 1_555 1_555
Co16_4 N48_26 1_555 1_555
N64_26 Co1_13 1_555 1_555
C114_26 N42_26 1_555 1_555
C118_26 N42_26 1_555 1_555
C124_26 N66_17 1_555 1_555
C126_26 N46_26 1_555 1_555
C127_26 N45_26 1_555 1_555
C127_26 N47_26 1_555 1_555
C132_26 N48_26 1_555 1_555
C1_11 H1_11 1_555 1_555
C2_11 C1_11 1_555 1_555
C3_11 C2_11 1_555 1_555
H2_11 C3_11 1_555 1_555
C4_11 C3_11 1_555 1_555
H3_11 C4_11 1_555 1_555
C5_11 C4_11 1_555 1_555
H4_11 C5_11 1_555 1_555
C6_27 N2_27 1_555 1_555
C7_11 H5_11 1_555 1_555
C8_11 C7_11 1_555 1_555
H6_11 C8_11 1_555 1_555
C9_11 C8_11 1_555 1_555
H7_11 C9_11 1_555 1_555
C10_11 C9_11 1_555 1_555
C11_11 C10_11 1_555 1_555
H8_11 C11_11 1_555 1_555
C12_11 C10_11 1_555 1_555
C13_11 C2_11 1_555 1_555
C14_11 C16_11 1_555 1_555
C15_11 H9_11 1_555 1_555
C16_11 C15_11 1_555 1_555
C17_11 C16_11 1_555 1_555
H10_11 C17_11 1_555 1_555
C18_11 C17_11 1_555 1_555
H11_11 C18_11 1_555 1_555
C19_11 C18_11 1_555 1_555
H12_11 C19_11 1_555 1_555
C20_11 N8_11 1_555 1_555
Co1_14 N2_27 1_555 1_555
Co15_7 N7_11 1_555 1_555
N63_14 C1_11 1_555 1_555
N3_11 C7_11 1_555 1_555
N4_11 C12_11 1_555 1_555
N5_11 C12_11 1_555 1_555
N6_11 C13_11 1_555 1_555
N7_11 C15_11 1_555 1_555
N8_11 Co15_7 1_555 1_555
S1_27 C6_27 1_555 1_555
S2_11 C20_11 1_555 1_555
C58_19 H37_19 1_555 1_555
C59_19 C58_19 1_555 1_555
H38_19 C59_19 1_555 1_555
C60_19 C59_19 1_555 1_555
H39_19 C60_19 1_555 1_555
C61_19 C60_19 1_555 1_555
C62_19 C61_19 1_555 1_555
H40_19 C62_19 1_555 1_555
C63_19 C61_19 1_555 1_555
N22_11 C58_19 1_555 1_555
N23_19 C63_19 1_555 1_555
S3_11 C57_11 1_555 1_555
C64_19 H41_19 1_555 1_555
C65_19 C64_19 1_555 1_555
H42_19 C65_19 1_555 1_555
C66_19 C65_19 1_555 1_555
H43_19 C66_19 1_555 1_555
C67_19 C66_19 1_555 1_555
C68_19 C67_19 1_555 1_555
H44_19 C68_19 1_555 1_555
C69_19 C67_19 1_555 1_555
N24_11 Co15_7 1_555 1_555
N25_19 C63_19 1_555 1_555
C70_19 H45_19 1_555 1_555
C71_19 C70_19 1_555 1_555
H46_19 C71_19 1_555 1_555
C72_19 C71_19 1_555 1_555
H47_19 C72_19 1_555 1_555
C73_19 C72_19 1_555 1_555
C74_19 C73_19 1_555 1_555
H48_19 C74_19 1_555 1_555
C75_19 N23_19 1_555 1_555
N26_19 C70_19 1_555 1_555
N27_19 C69_19 1_555 1_555
C114_27 H73_27 1_555 1_555
C115_27 C114_27 1_555 1_555
C116_27 C115_27 1_555 1_555
H74_27 C116_27 1_555 1_555
C117_27 C116_27 1_555 1_555
H75_27 C117_27 1_555 1_555
C118_27 C117_27 1_555 1_555
H76_27 C118_27 1_555 1_555
C120_27 H77_27 1_555 1_555
C121_27 C120_27 1_555 1_555
H78_27 C121_27 1_555 1_555
C122_27 C121_27 1_555 1_555
H79_27 C122_27 1_555 1_555
C123_27 C122_27 1_555 1_555
C124_27 C123_27 1_555 1_555
H80_27 C124_27 1_555 1_555
C125_27 C123_27 1_555 1_555
C126_27 C115_27 1_555 1_555
C127_27 C129_27 1_555 1_555
C128_27 H81_27 1_555 1_555
C129_27 C128_27 1_555 1_555
C130_27 C129_27 1_555 1_555
H82_27 C130_27 1_555 1_555
C131_27 C130_27 1_555 1_555
H83_27 C131_27 1_555 1_555
C132_27 C131_27 1_555 1_555
H84_27 C132_27 1_555 1_555
N42_27 Co1_14 1_555 1_555
N66_20 C120_27 1_555 1_555
N45_27 C125_27 1_555 1_555
N46_27 C125_27 1_555 1_555
N47_27 C126_27 1_555 1_555
N48_27 C128_27 1_555 1_555
C133_27 H85_27 1_555 1_555
C134_27 C133_27 1_555 1_555
C135_27 C134_27 1_555 1_555
H86_27 C135_27 1_555 1_555
C136_27 C135_27 1_555 1_555
H87_27 C136_27 1_555 1_555
C137_27 C136_27 1_555 1_555
H88_27 C137_27 1_555 1_555
C138_27 H89_27 1_555 1_555
C139_27 C138_27 1_555 1_555
H90_27 C139_27 1_555 1_555
C140_27 C139_27 1_555 1_555
H91_27 C140_27 1_555 1_555
C141_27 C140_27 1_555 1_555
C142_27 C141_27 1_555 1_555
H92_27 C142_27 1_555 1_555
C143_27 C141_27 1_555 1_555
C144_27 C134_27 1_555 1_555
C145_27 C147_27 1_555 1_555
C146_27 H93_27 1_555 1_555
C147_27 C146_27 1_555 1_555
C148_27 C147_27 1_555 1_555
H94_27 C148_27 1_555 1_555
C149_27 C148_27 1_555 1_555
H95_27 C149_27 1_555 1_555
C150_27 C149_27 1_555 1_555
H96_27 C150_27 1_555 1_555
N49_27 Co1_14 1_555 1_555
N66_6 C138_27 1_555 1_555
N51_27 C143_27 1_555 1_555
N52_27 C143_27 1_555 1_555
N53_27 C144_27 1_555 1_555
N54_27 C146_27 1_555 1_555
C151_27 N55_27 1_555 1_555
N55_27 Co1_14 1_555 1_555
S7_27 C151_27 1_555 1_555
C152_11 N56_11 1_555 1_555
N56_11 Co15_7 1_555 1_555
S8_11 C152_11 1_555 1_555
S9_11 C153_11 1_555 1_555
Co15_4 N26_19 1_555 1_555
Co16 N48_27 1_555 1_555
Co16_14 N54_27 1_555 1_555
N64_27 Co1_14 1_555 1_555
N68_11 Co15_7 1_555 1_555
C5_11 N63_14 1_555 1_555
C11_11 N3_11 1_555 1_555
C13_11 N5_11 1_555 1_555
C14_11 N4_11 1_555 1_555
C14_11 N6_11 1_555 1_555
C19_11 N7_11 1_555 1_555
Co1_14 N3_11 1_555 1_555
C62_19 N22_11 1_555 1_555
C64_19 N24_11 1_555 1_555
C68_19 N24_11 1_555 1_555
C69_19 N25_19 1_555 1_555
C73_19 C75_19 1_555 1_555
C74_19 N26_19 1_555 1_555
C75_19 N27_19 1_555 1_555
C114_27 N42_27 1_555 1_555
C118_27 N42_27 1_555 1_555
C124_27 N66_20 1_555 1_555
C126_27 N46_27 1_555 1_555
C127_27 N45_27 1_555 1_555
C127_27 N47_27 1_555 1_555
C132_27 N48_27 1_555 1_555
C133_27 N49_27 1_555 1_555
C137_27 N49_27 1_555 1_555
C142_27 N66_6 1_555 1_555
C144_27 N52_27 1_555 1_555
C145_27 N51_27 1_555 1_555
C145_27 N53_27 1_555 1_555
C150_27 N54_27 1_555 1_555
C39_11 H25_11 1_555 1_555
C40_11 C39_11 1_555 1_555
C41_11 C40_11 1_555 1_555
H26_11 C41_11 1_555 1_555
C42_11 C41_11 1_555 1_555
H27_11 C42_11 1_555 1_555
C43_11 C42_11 1_555 1_555
H28_11 C43_11 1_555 1_555
C44_11 H29_11 1_555 1_555
C45_11 C44_11 1_555 1_555
H30_11 C45_11 1_555 1_555
C46_11 C45_11 1_555 1_555
H31_11 C46_11 1_555 1_555
C47_11 C46_11 1_555 1_555
C48_11 C47_11 1_555 1_555
H32_11 C48_11 1_555 1_555
C49_11 C47_11 1_555 1_555
C50_11 C40_11 1_555 1_555
C51_11 C53_11 1_555 1_555
C52_11 H33_11 1_555 1_555
C53_11 C52_11 1_555 1_555
C54_11 C53_11 1_555 1_555
H34_11 C54_11 1_555 1_555
C55_11 C54_11 1_555 1_555
H35_11 C55_11 1_555 1_555
C56_11 C55_11 1_555 1_555
H36_11 C56_11 1_555 1_555
Co14_4 N20_11 1_555 1_555
N62_12 C39_11 1_555 1_555
N64_23 C44_11 1_555 1_555
N17_11 C49_11 1_555 1_555
N18_11 C49_11 1_555 1_555
N19_11 C50_11 1_555 1_555
N20_11 C52_11 1_555 1_555
N21_11 Co14_4 1_555 1_555
N57_11 Co14_4 1_555 1_555
N69_11 Co14_4 1_555 1_555
C43_11 N62_12 1_555 1_555
C48_11 N64_23 1_555 1_555
C50_11 N18_11 1_555 1_555
C51_11 N17_11 1_555 1_555
C51_11 N19_11 1_555 1_555
C56_11 N20_11 1_555 1_555
S2_12 C20_12 1_555 1_555
C39_12 H25_12 1_555 1_555
C40_12 C39_12 1_555 1_555
C41_12 C40_12 1_555 1_555
H26_12 C41_12 1_555 1_555
C42_12 C41_12 1_555 1_555
H27_12 C42_12 1_555 1_555
C43_12 C42_12 1_555 1_555
H28_12 C43_12 1_555 1_555
C44_12 H29_12 1_555 1_555
C45_12 C44_12 1_555 1_555
H30_12 C45_12 1_555 1_555
C46_12 C45_12 1_555 1_555
H31_12 C46_12 1_555 1_555
C47_12 C46_12 1_555 1_555
C48_12 C47_12 1_555 1_555
H32_12 C48_12 1_555 1_555
C49_12 C47_12 1_555 1_555
C50_12 C40_12 1_555 1_555
C51_12 C53_12 1_555 1_555
C52_12 H33_12 1_555 1_555
C53_12 C52_12 1_555 1_555
C54_12 C53_12 1_555 1_555
H34_12 C54_12 1_555 1_555
C55_12 C54_12 1_555 1_555
H35_12 C55_12 1_555 1_555
C56_12 C55_12 1_555 1_555
H36_12 C56_12 1_555 1_555
C57_12 N21_12 1_555 1_555
C58_20 H37_20 1_555 1_555
C59_20 C58_20 1_555 1_555
H38_20 C59_20 1_555 1_555
C60_20 C59_20 1_555 1_555
H39_20 C60_20 1_555 1_555
C61_20 C60_20 1_555 1_555
C62_20 C61_20 1_555 1_555
H40_20 C62_20 1_555 1_555
C63_20 C61_20 1_555 1_555
Co14_3 N20_12 1_555 1_555
N62_9 C39_12 1_555 1_555
N64_22 C44_12 1_555 1_555
N17_12 C49_12 1_555 1_555
N18_12 C49_12 1_555 1_555
N19_12 C50_12 1_555 1_555
N20_12 C52_12 1_555 1_555
N21_12 Co14_3 1_555 1_555
N22_12 C58_20 1_555 1_555
N23_20 C63_20 1_555 1_555
S3_12 C57_12 1_555 1_555
C64_20 H41_20 1_555 1_555
C65_20 C64_20 1_555 1_555
H42_20 C65_20 1_555 1_555
C66_20 C65_20 1_555 1_555
H43_20 C66_20 1_555 1_555
C67_20 C66_20 1_555 1_555
C68_20 C67_20 1_555 1_555
H44_20 C68_20 1_555 1_555
C69_20 C67_20 1_555 1_555
N25_20 C63_20 1_555 1_555
C70_20 H45_20 1_555 1_555
C71_20 C70_20 1_555 1_555
H46_20 C71_20 1_555 1_555
C72_20 C71_20 1_555 1_555
H47_20 C72_20 1_555 1_555
C73_20 C72_20 1_555 1_555
C74_20 C73_20 1_555 1_555
H48_20 C74_20 1_555 1_555
C75_20 N23_20 1_555 1_555
N26_20 C70_20 1_555 1_555
N27_20 C69_20 1_555 1_555
S8_12 C152_12 1_555 1_555
C153_12 N57_12 1_555 1_555
N57_12 Co14_3 1_555 1_555
S9_12 C153_12 1_555 1_555
Co15_3 N26_20 1_555 1_555
N69_12 Co14_3 1_555 1_555
C43_12 N62_9 1_555 1_555
C48_12 N64_22 1_555 1_555
C50_12 N18_12 1_555 1_555
C51_12 N17_12 1_555 1_555
C51_12 N19_12 1_555 1_555
C56_12 N20_12 1_555 1_555
C62_20 N22_12 1_555 1_555
Co14_3 N22_12 1_555 1_555
C64_20 N24_12 1_555 1_555
C68_20 N24_12 1_555 1_555
C69_20 N25_20 1_555 1_555
C73_20 C75_20 1_555 1_555
C74_20 N26_20 1_555 1_555
C75_20 N27_20 1_555 1_555
C1_12 H1_12 1_555 1_555
C2_12 C1_12 1_555 1_555
C3_12 C2_12 1_555 1_555
H2_12 C3_12 1_555 1_555
C4_12 C3_12 1_555 1_555
H3_12 C4_12 1_555 1_555
C5_12 C4_12 1_555 1_555
H4_12 C5_12 1_555 1_555
C6_28 N2_28 1_555 1_555
C7_12 H5_12 1_555 1_555
C8_12 C7_12 1_555 1_555
H6_12 C8_12 1_555 1_555
C9_12 C8_12 1_555 1_555
H7_12 C9_12 1_555 1_555
C10_12 C9_12 1_555 1_555
C11_12 C10_12 1_555 1_555
H8_12 C11_12 1_555 1_555
C12_12 C10_12 1_555 1_555
C13_12 C2_12 1_555 1_555
C14_12 C16_12 1_555 1_555
C15_12 H9_12 1_555 1_555
C16_12 C15_12 1_555 1_555
C17_12 C16_12 1_555 1_555
H10_12 C17_12 1_555 1_555
C18_12 C17_12 1_555 1_555
H11_12 C18_12 1_555 1_555
C19_12 C18_12 1_555 1_555
H12_12 C19_12 1_555 1_555
Co1_15 N2_28 1_555 1_555
Co15_5 N7_12 1_555 1_555
N63_13 C1_12 1_555 1_555
N3_12 C7_12 1_555 1_555
N4_12 C12_12 1_555 1_555
N5_12 C12_12 1_555 1_555
N6_12 C13_12 1_555 1_555
N7_12 C15_12 1_555 1_555
N8_12 Co15_5 1_555 1_555
S1_28 C6_28 1_555 1_555
C114_28 H73_28 1_555 1_555
C115_28 C114_28 1_555 1_555
C116_28 C115_28 1_555 1_555
H74_28 C116_28 1_555 1_555
C117_28 C116_28 1_555 1_555
H75_28 C117_28 1_555 1_555
C118_28 C117_28 1_555 1_555
H76_28 C118_28 1_555 1_555
C120_28 H77_28 1_555 1_555
C121_28 C120_28 1_555 1_555
H78_28 C121_28 1_555 1_555
C122_28 C121_28 1_555 1_555
H79_28 C122_28 1_555 1_555
C123_28 C122_28 1_555 1_555
C124_28 C123_28 1_555 1_555
H80_28 C124_28 1_555 1_555
C125_28 C123_28 1_555 1_555
C126_28 C115_28 1_555 1_555
C127_28 C129_28 1_555 1_555
C128_28 H81_28 1_555 1_555
C129_28 C128_28 1_555 1_555
C130_28 C129_28 1_555 1_555
H82_28 C130_28 1_555 1_555
C131_28 C130_28 1_555 1_555
H83_28 C131_28 1_555 1_555
C132_28 C131_28 1_555 1_555
H84_28 C132_28 1_555 1_555
N42_28 Co1_15 1_555 1_555
N66_18 C120_28 1_555 1_555
N45_28 C125_28 1_555 1_555
N46_28 C125_28 1_555 1_555
N47_28 C126_28 1_555 1_555
N48_28 C128_28 1_555 1_555
C133_28 H85_28 1_555 1_555
C134_28 C133_28 1_555 1_555
C135_28 C134_28 1_555 1_555
H86_28 C135_28 1_555 1_555
C136_28 C135_28 1_555 1_555
H87_28 C136_28 1_555 1_555
C137_28 C136_28 1_555 1_555
H88_28 C137_28 1_555 1_555
C138_28 H89_28 1_555 1_555
C139_28 C138_28 1_555 1_555
H90_28 C139_28 1_555 1_555
C140_28 C139_28 1_555 1_555
H91_28 C140_28 1_555 1_555
C141_28 C140_28 1_555 1_555
C142_28 C141_28 1_555 1_555
H92_28 C142_28 1_555 1_555
C143_28 C141_28 1_555 1_555
C144_28 C134_28 1_555 1_555
C145_28 C147_28 1_555 1_555
C146_28 H93_28 1_555 1_555
C147_28 C146_28 1_555 1_555
C148_28 C147_28 1_555 1_555
H94_28 C148_28 1_555 1_555
C149_28 C148_28 1_555 1_555
H95_28 C149_28 1_555 1_555
C150_28 C149_28 1_555 1_555
H96_28 C150_28 1_555 1_555
N49_28 Co1_15 1_555 1_555
N66_8 C138_28 1_555 1_555
N51_28 C143_28 1_555 1_555
N52_28 C143_28 1_555 1_555
N53_28 C144_28 1_555 1_555
N54_28 C146_28 1_555 1_555
C151_28 N55_28 1_555 1_555
N55_28 Co1_15 1_555 1_555
S7_28 C151_28 1_555 1_555
N56_12 Co15_5 1_555 1_555
Co16_2 N48_28 1_555 1_555
Co16_13 N54_28 1_555 1_555
N64_28 Co1_15 1_555 1_555
N68_12 Co15_5 1_555 1_555
C5_12 N63_13 1_555 1_555
C11_12 N3_12 1_555 1_555
C13_12 N5_12 1_555 1_555
C14_12 N4_12 1_555 1_555
C14_12 N6_12 1_555 1_555
C19_12 N7_12 1_555 1_555
Co1_15 N3_12 1_555 1_555
C114_28 N42_28 1_555 1_555
C118_28 N42_28 1_555 1_555
C124_28 N66_18 1_555 1_555
C126_28 N46_28 1_555 1_555
C127_28 N45_28 1_555 1_555
C127_28 N47_28 1_555 1_555
C132_28 N48_28 1_555 1_555
C133_28 N49_28 1_555 1_555
C137_28 N49_28 1_555 1_555
C142_28 N66_8 1_555 1_555
C144_28 N52_28 1_555 1_555
C145_28 N51_28 1_555 1_555
C145_28 N53_28 1_555 1_555
C150_28 N54_28 1_555 1_555
C95_25 H61_25 1_555 1_555
C96_25 C95_25 1_555 1_555
C97_25 C96_25 1_555 1_555
H62_25 C97_25 1_555 1_555
C98_25 C97_25 1_555 1_555
H63_25 C98_25 1_555 1_555
C99_25 C98_25 1_555 1_555
C100_25 H65_25 1_555 1_555
C101_25 C100_25 1_555 1_555
H66_25 C101_25 1_555 1_555
C102_25 C101_25 1_555 1_555
H67_25 C102_25 1_555 1_555
C103_25 C102_25 1_555 1_555
C104_25 C103_25 1_555 1_555
H68_25 C104_25 1_555 1_555
C105_25 C103_25 1_555 1_555
C106_25 C96_25 1_555 1_555
C107_25 C109_25 1_555 1_555
C108_25 H69_25 1_555 1_555
C109_25 C108_25 1_555 1_555
C110_25 C109_25 1_555 1_555
H70_25 C110_25 1_555 1_555
C111_25 C110_25 1_555 1_555
H71_25 C111_25 1_555 1_555
C112_25 C111_25 1_555 1_555
H72_25 C112_25 1_555 1_555
N62_6 C95_25 1_555 1_555
N64_14 C100_25 1_555 1_555
N37_25 C105_25 1_555 1_555
N38_25 C105_25 1_555 1_555
N39_25 C106_25 1_555 1_555
C99_25 N62_6 1_555 1_555
C104_25 N64_14 1_555 1_555
C106_25 N38_25 1_555 1_555
C107_25 N37_25 1_555 1_555
C107_25 N39_25 1_555 1_555
C108_25 N68_11 1_555 1_555
C112_25 N68_11 1_555 1_555
C119_25 N43_25 1_555 1_555
Co12_3 N43_25 1_555 1_555
S6_25 C119_25 1_555 1_555
C154_25 N58_25 1_555 1_555
N58_25 Co12_3 1_555 1_555
S10_25 C154_25 1_555 1_555
C95_26 H61_26 1_555 1_555
C96_26 C95_26 1_555 1_555
C97_26 C96_26 1_555 1_555
H62_26 C97_26 1_555 1_555
C98_26 C97_26 1_555 1_555
H63_26 C98_26 1_555 1_555
C99_26 C98_26 1_555 1_555
H64_26 C99_26 1_555 1_555
C100_26 H65_26 1_555 1_555
C101_26 C100_26 1_555 1_555
H66_26 C101_26 1_555 1_555
C102_26 C101_26 1_555 1_555
H67_26 C102_26 1_555 1_555
C103_26 C102_26 1_555 1_555
C104_26 C103_26 1_555 1_555
H68_26 C104_26 1_555 1_555
C105_26 C103_26 1_555 1_555
C106_26 C96_26 1_555 1_555
C107_26 C109_26 1_555 1_555
C108_26 H69_26 1_555 1_555
C109_26 C108_26 1_555 1_555
C110_26 C109_26 1_555 1_555
H70_26 C110_26 1_555 1_555
C111_26 C110_26 1_555 1_555
H71_26 C111_26 1_555 1_555
C112_26 C111_26 1_555 1_555
H72_26 C112_26 1_555 1_555
N62_5 C95_26 1_555 1_555
N64_16 C100_26 1_555 1_555
N37_26 C105_26 1_555 1_555
N38_26 C105_26 1_555 1_555
N39_26 C106_26 1_555 1_555
C119_26 N43_26 1_555 1_555
Co12_4 N43_26 1_555 1_555
S6_26 C119_26 1_555 1_555
C154_26 N58_26 1_555 1_555
N58_26 Co12_4 1_555 1_555
S10_26 C154_26 1_555 1_555
C99_26 N62_5 1_555 1_555
C104_26 N64_16 1_555 1_555
C106_26 N38_26 1_555 1_555
C107_26 N37_26 1_555 1_555
C107_26 N39_26 1_555 1_555
C108_26 N68_10 1_555 1_555
C112_26 N68_10 1_555 1_555
C119_27 N43_27 1_555 1_555
Co12 N43_27 1_555 1_555
S6_27 C119_27 1_555 1_555
C154_27 N58_27 1_555 1_555
N58_27 Co12_2 1_555 1_555
S10_27 C154_27 1_555 1_555
C95_27 H61_27 1_555 1_555
C96_27 C95_27 1_555 1_555
C97_27 C96_27 1_555 1_555
H62_27 C97_27 1_555 1_555
C98_27 C97_27 1_555 1_555
H63_27 C98_27 1_555 1_555
C99_27 C98_27 1_555 1_555
H64_27 C99_27 1_555 1_555
C100_27 H65_27 1_555 1_555
C101_27 C100_27 1_555 1_555
H66_27 C101_27 1_555 1_555
C102_27 C101_27 1_555 1_555
H67_27 C102_27 1_555 1_555
C103_27 C102_27 1_555 1_555
C104_27 C103_27 1_555 1_555
H68_27 C104_27 1_555 1_555
C105_27 C103_27 1_555 1_555
C106_27 C96_27 1_555 1_555
C107_27 C109_27 1_555 1_555
C108_27 H69_27 1_555 1_555
C109_27 C108_27 1_555 1_555
C110_27 C109_27 1_555 1_555
H70_27 C110_27 1_555 1_555
C111_27 C110_27 1_555 1_555
H71_27 C111_27 1_555 1_555
C112_27 C111_27 1_555 1_555
H72_27 C112_27 1_555 1_555
N62_8 C95_27 1_555 1_555
N64_13 C100_27 1_555 1_555
N37_27 C105_27 1_555 1_555
N38_27 C105_27 1_555 1_555
N39_27 C106_27 1_555 1_555
C99_27 N62_8 1_555 1_555
C104_27 N64_13 1_555 1_555
C106_27 N38_27 1_555 1_555
C107_27 N37_27 1_555 1_555
C107_27 N39_27 1_555 1_555
C108_27 N68_12 1_555 1_555
C112_27 N68_12 1_555 1_555
C95_28 H61_28 1_555 1_555
C96_28 C95_28 1_555 1_555
C97_28 C96_28 1_555 1_555
H62_28 C97_28 1_555 1_555
C98_28 C97_28 1_555 1_555
H63_28 C98_28 1_555 1_555
C99_28 C98_28 1_555 1_555
H64_28 C99_28 1_555 1_555
C100_28 H65_28 1_555 1_555
C101_28 C100_28 1_555 1_555
H66_28 C101_28 1_555 1_555
C102_28 C101_28 1_555 1_555
H67_28 C102_28 1_555 1_555
C103_28 C102_28 1_555 1_555
C104_28 C103_28 1_555 1_555
H68_28 C104_28 1_555 1_555
C105_28 C103_28 1_555 1_555
C106_28 C96_28 1_555 1_555
C107_28 C109_28 1_555 1_555
C108_28 H69_28 1_555 1_555
C109_28 C108_28 1_555 1_555
C110_28 C109_28 1_555 1_555
H70_28 C110_28 1_555 1_555
C111_28 C110_28 1_555 1_555
H71_28 C111_28 1_555 1_555
C112_28 C111_28 1_555 1_555
H72_28 C112_28 1_555 1_555
N62_7 C95_28 1_555 1_555
N64_15 C100_28 1_555 1_555
N37_28 C105_28 1_555 1_555
N38_28 C105_28 1_555 1_555
N39_28 C106_28 1_555 1_555
C119_28 N43_28 1_555 1_555
Co12_5 N43_28 1_555 1_555
S6_28 C119_28 1_555 1_555
C154_28 N58_28 1_555 1_555
N58_28 Co12_5 1_555 1_555
S10_28 C154_28 1_555 1_555
C99_28 N62_7 1_555 1_555
C104_28 N64_15 1_555 1_555
C106_28 N38_28 1_555 1_555
C107_28 N37_28 1_555 1_555
C107_28 N39_28 1_555 1_555
C108_28 N68_9 1_555 1_555
C112_28 N68_9 1_555 1_555
C95_29 H61_29 1_555 1_555
C96_29 C95_29 1_555 1_555
C97_29 C96_29 1_555 1_555
H62_29 C97_29 1_555 1_555
C98_29 C97_29 1_555 1_555
H63_29 C98_29 1_555 1_555
C99_29 C98_29 1_555 1_555
C100_29 H65_29 1_555 1_555
C101_29 C100_29 1_555 1_555
H66_29 C101_29 1_555 1_555
C102_29 C101_29 1_555 1_555
H67_29 C102_29 1_555 1_555
C103_29 C102_29 1_555 1_555
C104_29 C103_29 1_555 1_555
H68_29 C104_29 1_555 1_555
C105_29 C103_29 1_555 1_555
C106_29 C96_29 1_555 1_555
C107_29 C109_29 1_555 1_555
C108_29 H69_29 1_555 1_555
C109_29 C108_29 1_555 1_555
C110_29 C109_29 1_555 1_555
H70_29 C110_29 1_555 1_555
C111_29 C110_29 1_555 1_555
H71_29 C111_29 1_555 1_555
C112_29 C111_29 1_555 1_555
H72_29 C112_29 1_555 1_555
N63_22 C95_29 1_555 1_555
N36_25 C100_29 1_555 1_555
N37_29 C105_29 1_555 1_555
N38_29 C105_29 1_555 1_555
N39_29 C106_29 1_555 1_555
Co9_16 N36_25 1_555 1_555
C99_29 N63_22 1_555 1_555
C104_29 N36_25 1_555 1_555
C106_29 N38_29 1_555 1_555
C107_29 N37_29 1_555 1_555
C107_29 N39_29 1_555 1_555
C108_29 N69_12 1_555 1_555
C112_29 N69_12 1_555 1_555
C6_29 N2_29 1_555 1_555
Co9_4 N2_29 1_555 1_555
S1_29 C6_29 1_555 1_555
C114_29 H73_29 1_555 1_555
C115_29 C114_29 1_555 1_555
C116_29 C115_29 1_555 1_555
H74_29 C116_29 1_555 1_555
C117_29 C116_29 1_555 1_555
H75_29 C117_29 1_555 1_555
C118_29 C117_29 1_555 1_555
H76_29 C118_29 1_555 1_555
C120_29 H77_29 1_555 1_555
C121_29 C120_29 1_555 1_555
H78_29 C121_29 1_555 1_555
C122_29 C121_29 1_555 1_555
H79_29 C122_29 1_555 1_555
C123_29 C122_29 1_555 1_555
C124_29 C123_29 1_555 1_555
H80_29 C124_29 1_555 1_555
C125_29 C123_29 1_555 1_555
C126_29 C115_29 1_555 1_555
C127_29 C129_29 1_555 1_555
C128_29 H81_29 1_555 1_555
C129_29 C128_29 1_555 1_555
C130_29 C129_29 1_555 1_555
H82_29 C130_29 1_555 1_555
C131_29 C130_29 1_555 1_555
H83_29 C131_29 1_555 1_555
C132_29 C131_29 1_555 1_555
H84_29 C132_29 1_555 1_555
N42_29 Co9_4 1_555 1_555
N65_7 C120_29 1_555 1_555
N45_29 C125_29 1_555 1_555
N46_29 C125_29 1_555 1_555
N47_29 C126_29 1_555 1_555
N48_29 C128_29 1_555 1_555
C133_29 H85_29 1_555 1_555
C134_29 C133_29 1_555 1_555
C135_29 C134_29 1_555 1_555
H86_29 C135_29 1_555 1_555
C136_29 C135_29 1_555 1_555
H87_29 C136_29 1_555 1_555
C137_29 C136_29 1_555 1_555
H88_29 C137_29 1_555 1_555
C138_29 H89_29 1_555 1_555
C139_29 C138_29 1_555 1_555
H90_29 C139_29 1_555 1_555
C140_29 C139_29 1_555 1_555
H91_29 C140_29 1_555 1_555
C141_29 C140_29 1_555 1_555
C142_29 C141_29 1_555 1_555
H92_29 C142_29 1_555 1_555
C143_29 C141_29 1_555 1_555
C144_29 C134_29 1_555 1_555
C145_29 C147_29 1_555 1_555
C146_29 H93_29 1_555 1_555
C147_29 C146_29 1_555 1_555
C148_29 C147_29 1_555 1_555
H94_29 C148_29 1_555 1_555
C149_29 C148_29 1_555 1_555
H95_29 C149_29 1_555 1_555
C150_29 C149_29 1_555 1_555
H96_29 C150_29 1_555 1_555
N49_29 Co9_4 1_555 1_555
N67_12 C138_29 1_555 1_555
N51_29 C143_29 1_555 1_555
N52_29 C143_29 1_555 1_555
N53_29 C144_29 1_555 1_555
N54_29 C146_29 1_555 1_555
C151_29 N55_29 1_555 1_555
N55_29 Co9_4 1_555 1_555
S7_29 C151_29 1_555 1_555
C155_13 N59_13 1_555 1_555
N59_13 Co11_3 1_555 1_555
S11_13 C155_13 1_555 1_555
C156_13 N60_13 1_555 1_555
N60_13 Co11_3 1_555 1_555
S12_13 C156_13 1_555 1_555
Co17_17 N48_29 1_555 1_555
Co17_12 N54_29 1_555 1_555
C114_29 N42_29 1_555 1_555
C118_29 N42_29 1_555 1_555
C124_29 N65_7 1_555 1_555
C126_29 N46_29 1_555 1_555
C127_29 N45_29 1_555 1_555
C127_29 N47_29 1_555 1_555
C132_29 N48_29 1_555 1_555
C133_29 N49_29 1_555 1_555
C137_29 N49_29 1_555 1_555
C142_29 N67_12 1_555 1_555
C144_29 N52_29 1_555 1_555
C145_29 N51_29 1_555 1_555
C145_29 N53_29 1_555 1_555
C150_29 N54_29 1_555 1_555
C95_30 H61_30 1_555 1_555
C96_30 C95_30 1_555 1_555
C97_30 C96_30 1_555 1_555
H62_30 C97_30 1_555 1_555
C98_30 C97_30 1_555 1_555
H63_30 C98_30 1_555 1_555
C99_30 C98_30 1_555 1_555
H64_30 C99_30 1_555 1_555
C100_30 H65_30 1_555 1_555
C101_30 C100_30 1_555 1_555
H66_30 C101_30 1_555 1_555
C102_30 C101_30 1_555 1_555
H67_30 C102_30 1_555 1_555
C103_30 C102_30 1_555 1_555
C104_30 C103_30 1_555 1_555
H68_30 C104_30 1_555 1_555
C105_30 C103_30 1_555 1_555
C106_30 C96_30 1_555 1_555
C107_30 C109_30 1_555 1_555
C108_30 H69_30 1_555 1_555
C109_30 C108_30 1_555 1_555
C110_30 C109_30 1_555 1_555
H70_30 C110_30 1_555 1_555
C111_30 C110_30 1_555 1_555
H71_30 C111_30 1_555 1_555
C112_30 C111_30 1_555 1_555
H72_30 C112_30 1_555 1_555
N63_24 C95_30 1_555 1_555
N36_26 C100_30 1_555 1_555
N37_30 C105_30 1_555 1_555
N38_30 C105_30 1_555 1_555
N39_30 C106_30 1_555 1_555
C133_30 H85_30 1_555 1_555
C134_30 C133_30 1_555 1_555
C135_30 C134_30 1_555 1_555
H86_30 C135_30 1_555 1_555
C136_30 C135_30 1_555 1_555
H87_30 C136_30 1_555 1_555
C137_30 C136_30 1_555 1_555
C138_30 H89_30 1_555 1_555
C139_30 C138_30 1_555 1_555
H90_30 C139_30 1_555 1_555
C140_30 C139_30 1_555 1_555
H91_30 C140_30 1_555 1_555
C141_30 C140_30 1_555 1_555
C142_30 C141_30 1_555 1_555
H92_30 C142_30 1_555 1_555
C143_30 C141_30 1_555 1_555
C144_30 C134_30 1_555 1_555
C145_30 C147_30 1_555 1_555
C146_30 H93_30 1_555 1_555
C147_30 C146_30 1_555 1_555
C148_30 C147_30 1_555 1_555
H94_30 C148_30 1_555 1_555
C149_30 C148_30 1_555 1_555
H95_30 C149_30 1_555 1_555
C150_30 C149_30 1_555 1_555
H96_30 C150_30 1_555 1_555
N49_30 Co9 1_555 1_555
N67_11 C138_30 1_555 1_555
N51_30 C143_30 1_555 1_555
N52_30 C143_30 1_555 1_555
N53_30 C144_30 1_555 1_555
N54_30 C146_30 1_555 1_555
C151_30 N55_30 1_555 1_555
N55_30 Co9 1_555 1_555
S7_30 C151_30 1_555 1_555
C155_14 N59_14 1_555 1_555
N59_14 Co11 1_555 1_555
S11_14 C155_14 1_555 1_555
C156_14 N60_14 1_555 1_555
N60_14 Co11 1_555 1_555
S12_14 C156_14 1_555 1_555
Co9_18 N36_26 1_555 1_555
Co17_11 N54_30 1_555 1_555
C99_30 N63_24 1_555 1_555
C104_30 N36_26 1_555 1_555
C106_30 N38_30 1_555 1_555
C107_30 N37_30 1_555 1_555
C107_30 N39_30 1_555 1_555
C108_30 N69_10 1_555 1_555
C112_30 N69_10 1_555 1_555
C133_30 N49_30 1_555 1_555
C137_30 N49_30 1_555 1_555
C142_30 N67_11 1_555 1_555
C144_30 N52_30 1_555 1_555
C145_30 N51_30 1_555 1_555
C145_30 N53_30 1_555 1_555
C150_30 N54_30 1_555 1_555
C6_30 N2_30 1_555 1_555
Co9_2 N2_30 1_555 1_555
S1_30 C6_30 1_555 1_555
C114_30 H73_30 1_555 1_555
C115_30 C114_30 1_555 1_555
C116_30 C115_30 1_555 1_555
H74_30 C116_30 1_555 1_555
C117_30 C116_30 1_555 1_555
H75_30 C117_30 1_555 1_555
C118_30 C117_30 1_555 1_555
C120_30 H77_30 1_555 1_555
C121_30 C120_30 1_555 1_555
H78_30 C121_30 1_555 1_555
C122_30 C121_30 1_555 1_555
H79_30 C122_30 1_555 1_555
C123_30 C122_30 1_555 1_555
C124_30 C123_30 1_555 1_555
H80_30 C124_30 1_555 1_555
C125_30 C123_30 1_555 1_555
C126_30 C115_30 1_555 1_555
C127_30 C129_30 1_555 1_555
C128_30 H81_30 1_555 1_555
C129_30 C128_30 1_555 1_555
C130_30 C129_30 1_555 1_555
H82_30 C130_30 1_555 1_555
C131_30 C130_30 1_555 1_555
H83_30 C131_30 1_555 1_555
C132_30 C131_30 1_555 1_555
H84_30 C132_30 1_555 1_555
N42_30 Co9_2 1_555 1_555
N65_6 C120_30 1_555 1_555
N45_30 C125_30 1_555 1_555
N46_30 C125_30 1_555 1_555
N47_30 C126_30 1_555 1_555
N48_30 C128_30 1_555 1_555
Co17_18 N48_30 1_555 1_555
C114_30 N42_30 1_555 1_555
C118_30 N42_30 1_555 1_555
C124_30 N65_6 1_555 1_555
C126_30 N46_30 1_555 1_555
C127_30 N45_30 1_555 1_555
C127_30 N47_30 1_555 1_555
C132_30 N48_30 1_555 1_555
C6_31 N2_31 1_555 1_555
Co9_3 N2_31 1_555 1_555
S1_31 C6_31 1_555 1_555
C95_31 H61_31 1_555 1_555
C96_31 C95_31 1_555 1_555
C97_31 C96_31 1_555 1_555
H62_31 C97_31 1_555 1_555
C98_31 C97_31 1_555 1_555
H63_31 C98_31 1_555 1_555
C99_31 C98_31 1_555 1_555
H64_31 C99_31 1_555 1_555
C100_31 H65_31 1_555 1_555
C101_31 C100_31 1_555 1_555
H66_31 C101_31 1_555 1_555
C102_31 C101_31 1_555 1_555
H67_31 C102_31 1_555 1_555
C103_31 C102_31 1_555 1_555
C104_31 C103_31 1_555 1_555
H68_31 C104_31 1_555 1_555
C105_31 C103_31 1_555 1_555
C106_31 C96_31 1_555 1_555
C107_31 C109_31 1_555 1_555
C108_31 H69_31 1_555 1_555
C109_31 C108_31 1_555 1_555
C110_31 C109_31 1_555 1_555
H70_31 C110_31 1_555 1_555
C111_31 C110_31 1_555 1_555
H71_31 C111_31 1_555 1_555
C112_31 C111_31 1_555 1_555
H72_31 C112_31 1_555 1_555
N63_21 C95_31 1_555 1_555
N36_27 C100_31 1_555 1_555
N37_31 C105_31 1_555 1_555
N38_31 C105_31 1_555 1_555
N39_31 C106_31 1_555 1_555
C114_31 H73_31 1_555 1_555
C115_31 C114_31 1_555 1_555
C116_31 C115_31 1_555 1_555
H74_31 C116_31 1_555 1_555
C117_31 C116_31 1_555 1_555
H75_31 C117_31 1_555 1_555
C118_31 C117_31 1_555 1_555
H76_31 C118_31 1_555 1_555
C120_31 H77_31 1_555 1_555
C121_31 C120_31 1_555 1_555
H78_31 C121_31 1_555 1_555
C122_31 C121_31 1_555 1_555
H79_31 C122_31 1_555 1_555
C123_31 C122_31 1_555 1_555
C124_31 C123_31 1_555 1_555
H80_31 C124_31 1_555 1_555
C125_31 C123_31 1_555 1_555
C126_31 C115_31 1_555 1_555
C127_31 C129_31 1_555 1_555
C128_31 H81_31 1_555 1_555
C129_31 C128_31 1_555 1_555
C130_31 C129_31 1_555 1_555
H82_31 C130_31 1_555 1_555
C131_31 C130_31 1_555 1_555
H83_31 C131_31 1_555 1_555
C132_31 C131_31 1_555 1_555
H84_31 C132_31 1_555 1_555
N42_31 Co9_3 1_555 1_555
N65_8 C120_31 1_555 1_555
N45_31 C125_31 1_555 1_555
N46_31 C125_31 1_555 1_555
N47_31 C126_31 1_555 1_555
N48_31 C128_31 1_555 1_555
C133_31 H85_31 1_555 1_555
C134_31 C133_31 1_555 1_555
C135_31 C134_31 1_555 1_555
H86_31 C135_31 1_555 1_555
C136_31 C135_31 1_555 1_555
H87_31 C136_31 1_555 1_555
C137_31 C136_31 1_555 1_555
H88_31 C137_31 1_555 1_555
C138_31 H89_31 1_555 1_555
C139_31 C138_31 1_555 1_555
H90_31 C139_31 1_555 1_555
C140_31 C139_31 1_555 1_555
H91_31 C140_31 1_555 1_555
C141_31 C140_31 1_555 1_555
C142_31 C141_31 1_555 1_555
H92_31 C142_31 1_555 1_555
C143_31 C141_31 1_555 1_555
C144_31 C134_31 1_555 1_555
C145_31 C147_31 1_555 1_555
C146_31 H93_31 1_555 1_555
C147_31 C146_31 1_555 1_555
C148_31 C147_31 1_555 1_555
H94_31 C148_31 1_555 1_555
C149_31 C148_31 1_555 1_555
H95_31 C149_31 1_555 1_555
C150_31 C149_31 1_555 1_555
H96_31 C150_31 1_555 1_555
N49_31 Co9_3 1_555 1_555
N67_10 C138_31 1_555 1_555
N51_31 C143_31 1_555 1_555
N52_31 C143_31 1_555 1_555
N53_31 C144_31 1_555 1_555
N54_31 C146_31 1_555 1_555
C151_31 N55_31 1_555 1_555
N55_31 Co9_3 1_555 1_555
S7_31 C151_31 1_555 1_555
C155_15 N59_15 1_555 1_555
N59_15 Co11_2 1_555 1_555
S11_15 C155_15 1_555 1_555
C156_15 N60_15 1_555 1_555
N60_15 Co11_2 1_555 1_555
S12_15 C156_15 1_555 1_555
Co9_19 N36_27 1_555 1_555
Co17_20 N48_31 1_555 1_555
Co17_10 N54_31 1_555 1_555
C99_31 N63_21 1_555 1_555
C104_31 N36_27 1_555 1_555
C106_31 N38_31 1_555 1_555
C107_31 N37_31 1_555 1_555
C107_31 N39_31 1_555 1_555
C108_31 N69_9 1_555 1_555
C112_31 N69_9 1_555 1_555
C114_31 N42_31 1_555 1_555
C118_31 N42_31 1_555 1_555
C124_31 N65_8 1_555 1_555
C126_31 N46_31 1_555 1_555
C127_31 N45_31 1_555 1_555
C127_31 N47_31 1_555 1_555
C132_31 N48_31 1_555 1_555
C133_31 N49_31 1_555 1_555
C137_31 N49_31 1_555 1_555
C142_31 N67_10 1_555 1_555
C144_31 N52_31 1_555 1_555
C145_31 N51_31 1_555 1_555
C145_31 N53_31 1_555 1_555
C150_31 N54_31 1_555 1_555
C6_32 N2_32 1_555 1_555
Co9_5 N2_32 1_555 1_555
S1_32 C6_32 1_555 1_555
C114_32 H73_32 1_555 1_555
C115_32 C114_32 1_555 1_555
C116_32 C115_32 1_555 1_555
H74_32 C116_32 1_555 1_555
C117_32 C116_32 1_555 1_555
H75_32 C117_32 1_555 1_555
C118_32 C117_32 1_555 1_555
H76_32 C118_32 1_555 1_555
C120_32 H77_32 1_555 1_555
C121_32 C120_32 1_555 1_555
H78_32 C121_32 1_555 1_555
C122_32 C121_32 1_555 1_555
H79_32 C122_32 1_555 1_555
C123_32 C122_32 1_555 1_555
C124_32 C123_32 1_555 1_555
H80_32 C124_32 1_555 1_555
C125_32 C123_32 1_555 1_555
C126_32 C115_32 1_555 1_555
C127_32 C129_32 1_555 1_555
C128_32 H81_32 1_555 1_555
C129_32 C128_32 1_555 1_555
C130_32 C129_32 1_555 1_555
H82_32 C130_32 1_555 1_555
C131_32 C130_32 1_555 1_555
H83_32 C131_32 1_555 1_555
C132_32 C131_32 1_555 1_555
H84_32 C132_32 1_555 1_555
N42_32 Co9_5 1_555 1_555
N65_5 C120_32 1_555 1_555
N45_32 C125_32 1_555 1_555
N46_32 C125_32 1_555 1_555
N47_32 C126_32 1_555 1_555
N48_32 C128_32 1_555 1_555
C133_32 H85_32 1_555 1_555
C134_32 C133_32 1_555 1_555
C135_32 C134_32 1_555 1_555
H86_32 C135_32 1_555 1_555
C136_32 C135_32 1_555 1_555
H87_32 C136_32 1_555 1_555
C137_32 C136_32 1_555 1_555
H88_32 C137_32 1_555 1_555
C138_32 H89_32 1_555 1_555
C139_32 C138_32 1_555 1_555
H90_32 C139_32 1_555 1_555
C140_32 C139_32 1_555 1_555
H91_32 C140_32 1_555 1_555
C141_32 C140_32 1_555 1_555
C142_32 C141_32 1_555 1_555
H92_32 C142_32 1_555 1_555
C143_32 C141_32 1_555 1_555
C144_32 C134_32 1_555 1_555
C145_32 C147_32 1_555 1_555
C146_32 H93_32 1_555 1_555
C147_32 C146_32 1_555 1_555
C148_32 C147_32 1_555 1_555
H94_32 C148_32 1_555 1_555
C149_32 C148_32 1_555 1_555
H95_32 C149_32 1_555 1_555
C150_32 C149_32 1_555 1_555
H96_32 C150_32 1_555 1_555
N49_32 Co9_5 1_555 1_555
N67_9 C138_32 1_555 1_555
N51_32 C143_32 1_555 1_555
N52_32 C143_32 1_555 1_555
N53_32 C144_32 1_555 1_555
N54_32 C146_32 1_555 1_555
C151_32 N55_32 1_555 1_555
N55_32 Co9_5 1_555 1_555
S7_32 C151_32 1_555 1_555
C155_16 N59_16 1_555 1_555
N59_16 Co11_4 1_555 1_555
S11_16 C155_16 1_555 1_555
Co17_19 N48_32 1_555 1_555
Co17_9 N54_32 1_555 1_555
C114_32 N42_32 1_555 1_555
C118_32 N42_32 1_555 1_555
C124_32 N65_5 1_555 1_555
C126_32 N46_32 1_555 1_555
C127_32 N45_32 1_555 1_555
C127_32 N47_32 1_555 1_555
C132_32 N48_32 1_555 1_555
C133_32 N49_32 1_555 1_555
C137_32 N49_32 1_555 1_555
C142_32 N67_9 1_555 1_555
C144_32 N52_32 1_555 1_555
C145_32 N51_32 1_555 1_555
C145_32 N53_32 1_555 1_555
C150_32 N54_32 1_555 1_555
C95_32 H61_32 1_555 1_555
C96_32 C95_32 1_555 1_555
C97_32 C96_32 1_555 1_555
H62_32 C97_32 1_555 1_555
C98_32 C97_32 1_555 1_555
H63_32 C98_32 1_555 1_555
C99_32 C98_32 1_555 1_555
H64_32 C99_32 1_555 1_555
C100_32 H65_32 1_555 1_555
C101_32 C100_32 1_555 1_555
H66_32 C101_32 1_555 1_555
C102_32 C101_32 1_555 1_555
H67_32 C102_32 1_555 1_555
C103_32 C102_32 1_555 1_555
C104_32 C103_32 1_555 1_555
H68_32 C104_32 1_555 1_555
C105_32 C103_32 1_555 1_555
C106_32 C96_32 1_555 1_555
C107_32 C109_32 1_555 1_555
C108_32 H69_32 1_555 1_555
C109_32 C108_32 1_555 1_555
C110_32 C109_32 1_555 1_555
H70_32 C110_32 1_555 1_555
C111_32 C110_32 1_555 1_555
H71_32 C111_32 1_555 1_555
C112_32 C111_32 1_555 1_555
H72_32 C112_32 1_555 1_555
N63_23 C95_32 1_555 1_555
N36_28 C100_32 1_555 1_555
N37_32 C105_32 1_555 1_555
N38_32 C105_32 1_555 1_555
N39_32 C106_32 1_555 1_555
Co9_20 N36_28 1_555 1_555
C99_32 N63_23 1_555 1_555
C104_32 N36_28 1_555 1_555
C106_32 N38_32 1_555 1_555
C107_32 N37_32 1_555 1_555
C107_32 N39_32 1_555 1_555
C108_32 N69_11 1_555 1_555
C112_32 N69_11 1_555 1_555
C156_16 N60_16 1_555 1_555
N60_16 Co11_5 1_555 1_555
S12_16 C156_16 1_555 1_555
C6_33 N2_33 1_555 1_555
Co9_9 N2_33 1_555 1_555
S1_33 C6_33 1_555 1_555
C39_13 H25_13 1_555 1_555
C40_13 C39_13 1_555 1_555
C41_13 C40_13 1_555 1_555
H26_13 C41_13 1_555 1_555
C42_13 C41_13 1_555 1_555
H27_13 C42_13 1_555 1_555
C43_13 C42_13 1_555 1_555
H28_13 C43_13 1_555 1_555
C44_13 H29_13 1_555 1_555
C45_13 C44_13 1_555 1_555
H30_13 C45_13 1_555 1_555
C46_13 C45_13 1_555 1_555
H31_13 C46_13 1_555 1_555
C47_13 C46_13 1_555 1_555
C48_13 C47_13 1_555 1_555
H32_13 C48_13 1_555 1_555
C49_13 C47_13 1_555 1_555
C50_13 C40_13 1_555 1_555
C51_13 C53_13 1_555 1_555
C52_13 H33_13 1_555 1_555
C53_13 C52_13 1_555 1_555
C54_13 C53_13 1_555 1_555
H34_13 C54_13 1_555 1_555
C55_13 C54_13 1_555 1_555
H35_13 C55_13 1_555 1_555
C56_13 C55_13 1_555 1_555
H36_13 C56_13 1_555 1_555
C57_13 N21_13 1_555 1_555
Co14_8 N20_13 1_555 1_555
N63_11 C39_13 1_555 1_555
N16_9 C44_13 1_555 1_555
N17_13 C49_13 1_555 1_555
N18_13 C49_13 1_555 1_555
N19_13 C50_13 1_555 1_555
N20_13 C52_13 1_555 1_555
N21_13 Co14_8 1_555 1_555
S3_13 C57_13 1_555 1_555
C76_9 H49_9 1_555 1_555
C77_9 C76_9 1_555 1_555
C78_9 C77_9 1_555 1_555
H50_9 C78_9 1_555 1_555
C79_9 C78_9 1_555 1_555
H51_9 C79_9 1_555 1_555
C80_9 C79_9 1_555 1_555
H52_9 C80_9 1_555 1_555
C81_9 H53_9 1_555 1_555
C82_9 C81_9 1_555 1_555
H54_9 C82_9 1_555 1_555
C83_9 C82_9 1_555 1_555
H55_9 C83_9 1_555 1_555
C84_9 C83_9 1_555 1_555
C85_9 C84_9 1_555 1_555
H56_9 C85_9 1_555 1_555
C86_9 C84_9 1_555 1_555
C87_9 C77_9 1_555 1_555
C88_9 C90_9 1_555 1_555
C89_9 H57_9 1_555 1_555
C90_9 C89_9 1_555 1_555
C91_9 C90_9 1_555 1_555
H58_9 C91_9 1_555 1_555
C92_9 C91_9 1_555 1_555
H59_9 C92_9 1_555 1_555
C93_9 C92_9 1_555 1_555
H60_9 C93_9 1_555 1_555
C94_9 N34_9 1_555 1_555
N62_13 C76_9 1_555 1_555
N64_5 C81_9 1_555 1_555
N30_9 C86_9 1_555 1_555
N31_9 C86_9 1_555 1_555
N32_9 C87_9 1_555 1_555
N33_9 C89_9 1_555 1_555
N34_9 Co15_12 1_555 1_555
S4_9 C94_9 1_555 1_555
C95_33 H61_33 1_555 1_555
C96_33 C95_33 1_555 1_555
C97_33 C96_33 1_555 1_555
H62_33 C97_33 1_555 1_555
C98_33 C97_33 1_555 1_555
H63_33 C98_33 1_555 1_555
C99_33 C98_33 1_555 1_555
H64_33 C99_33 1_555 1_555
C100_33 H65_33 1_555 1_555
C101_33 C100_33 1_555 1_555
H66_33 C101_33 1_555 1_555
C102_33 C101_33 1_555 1_555
H67_33 C102_33 1_555 1_555
C103_33 C102_33 1_555 1_555
C104_33 C103_33 1_555 1_555
H68_33 C104_33 1_555 1_555
C105_33 C103_33 1_555 1_555
C106_33 C96_33 1_555 1_555
C107_33 C109_33 1_555 1_555
C108_33 H69_33 1_555 1_555
C109_33 C108_33 1_555 1_555
C110_33 C109_33 1_555 1_555
H70_33 C110_33 1_555 1_555
C111_33 C110_33 1_555 1_555
H71_33 C111_33 1_555 1_555
C112_33 C111_33 1_555 1_555
H72_33 C112_33 1_555 1_555
C113_9 N41_9 1_555 1_555
N63_5 C95_33 1_555 1_555
N36_29 C100_33 1_555 1_555
N37_33 C105_33 1_555 1_555
N38_33 C105_33 1_555 1_555
N39_33 C106_33 1_555 1_555
N40_9 Co15_12 1_555 1_555
N41_9 Co15_12 1_555 1_555
S5_9 C113_9 1_555 1_555
C114_33 H73_33 1_555 1_555
C115_33 C114_33 1_555 1_555
C116_33 C115_33 1_555 1_555
H74_33 C116_33 1_555 1_555
C117_33 C116_33 1_555 1_555
H75_33 C117_33 1_555 1_555
C118_33 C117_33 1_555 1_555
H76_33 C118_33 1_555 1_555
C120_33 H77_33 1_555 1_555
C121_33 C120_33 1_555 1_555
H78_33 C121_33 1_555 1_555
C122_33 C121_33 1_555 1_555
H79_33 C122_33 1_555 1_555
C123_33 C122_33 1_555 1_555
C124_33 C123_33 1_555 1_555
H80_33 C124_33 1_555 1_555
C125_33 C123_33 1_555 1_555
C126_33 C115_33 1_555 1_555
C127_33 C129_33 1_555 1_555
C128_33 H81_33 1_555 1_555
C129_33 C128_33 1_555 1_555
C130_33 C129_33 1_555 1_555
H82_33 C130_33 1_555 1_555
C131_33 C130_33 1_555 1_555
H83_33 C131_33 1_555 1_555
C132_33 C131_33 1_555 1_555
H84_33 C132_33 1_555 1_555
N42_33 Co9_9 1_555 1_555
N67_4 C120_33 1_555 1_555
N45_33 C125_33 1_555 1_555
N46_33 C125_33 1_555 1_555
N47_33 C126_33 1_555 1_555
N48_33 C128_33 1_555 1_555
C133_33 H85_33 1_555 1_555
C134_33 C133_33 1_555 1_555
C135_33 C134_33 1_555 1_555
H86_33 C135_33 1_555 1_555
C136_33 C135_33 1_555 1_555
H87_33 C136_33 1_555 1_555
C137_33 C136_33 1_555 1_555
H88_33 C137_33 1_555 1_555
C138_33 H89_33 1_555 1_555
C139_33 C138_33 1_555 1_555
H90_33 C139_33 1_555 1_555
C140_33 C139_33 1_555 1_555
H91_33 C140_33 1_555 1_555
C141_33 C140_33 1_555 1_555
C142_33 C141_33 1_555 1_555
H92_33 C142_33 1_555 1_555
C143_33 C141_33 1_555 1_555
C144_33 C134_33 1_555 1_555
C145_33 C147_33 1_555 1_555
C146_33 H93_33 1_555 1_555
C147_33 C146_33 1_555 1_555
C148_33 C147_33 1_555 1_555
H94_33 C148_33 1_555 1_555
C149_33 C148_33 1_555 1_555
H95_33 C149_33 1_555 1_555
C150_33 C149_33 1_555 1_555
H96_33 C150_33 1_555 1_555
N49_33 Co9_9 1_555 1_555
N65_11 C138_33 1_555 1_555
N51_33 C143_33 1_555 1_555
N52_33 C143_33 1_555 1_555
N53_33 C144_33 1_555 1_555
N54_33 C146_33 1_555 1_555
C151_33 N55_33 1_555 1_555
N55_33 Co9_9 1_555 1_555
S7_33 C151_33 1_555 1_555
C153_13 N57_13 1_555 1_555
N57_13 Co14_8 1_555 1_555
S9_13 C153_13 1_555 1_555
Co7_11 N16_9 1_555 1_555
Co9_18 N36_29 1_555 1_555
Co17_4 N48_33 1_555 1_555
Co17_16 N54_33 1_555 1_555
N69_13 Co14_8 1_555 1_555
N70_9 Co15_12 1_555 1_555
N71_9 Co14_8 1_555 1_555
C43_13 N63_11 1_555 1_555
C48_13 N16_9 1_555 1_555
C50_13 N18_13 1_555 1_555
C51_13 N17_13 1_555 1_555
C51_13 N19_13 1_555 1_555
C56_13 N20_13 1_555 1_555
C80_9 N62_13 1_555 1_555
C85_9 N64_5 1_555 1_555
C87_9 N31_9 1_555 1_555
C88_9 N30_9 1_555 1_555
C88_9 N32_9 1_555 1_555
C93_9 N33_9 1_555 1_555
Co15_12 N33_9 1_555 1_555
C99_33 N63_5 1_555 1_555
C104_33 N36_29 1_555 1_555
C106_33 N38_33 1_555 1_555
C107_33 N37_33 1_555 1_555
C107_33 N39_33 1_555 1_555
C108_33 N40_9 1_555 1_555
C112_33 N40_9 1_555 1_555
C114_33 N42_33 1_555 1_555
C118_33 N42_33 1_555 1_555
C124_33 N67_4 1_555 1_555
C126_33 N46_33 1_555 1_555
C127_33 N45_33 1_555 1_555
C127_33 N47_33 1_555 1_555
C132_33 N48_33 1_555 1_555
C133_33 N49_33 1_555 1_555
C137_33 N49_33 1_555 1_555
C142_33 N65_11 1_555 1_555
C144_33 N52_33 1_555 1_555
C145_33 N51_33 1_555 1_555
C145_33 N53_33 1_555 1_555
C150_33 N54_33 1_555 1_555
C6_34 N2_34 1_555 1_555
Co9_6 N2_34 1_555 1_555
S1_34 C6_34 1_555 1_555
C114_34 H73_34 1_555 1_555
C115_34 C114_34 1_555 1_555
C116_34 C115_34 1_555 1_555
H74_34 C116_34 1_555 1_555
C117_34 C116_34 1_555 1_555
H75_34 C117_34 1_555 1_555
C118_34 C117_34 1_555 1_555
C120_34 H77_34 1_555 1_555
C121_34 C120_34 1_555 1_555
H78_34 C121_34 1_555 1_555
C122_34 C121_34 1_555 1_555
H79_34 C122_34 1_555 1_555
C123_34 C122_34 1_555 1_555
C124_34 C123_34 1_555 1_555
H80_34 C124_34 1_555 1_555
C125_34 C123_34 1_555 1_555
C126_34 C115_34 1_555 1_555
C127_34 C129_34 1_555 1_555
C128_34 H81_34 1_555 1_555
C129_34 C128_34 1_555 1_555
C130_34 C129_34 1_555 1_555
H82_34 C130_34 1_555 1_555
C131_34 C130_34 1_555 1_555
H83_34 C131_34 1_555 1_555
C132_34 C131_34 1_555 1_555
H84_34 C132_34 1_555 1_555
N42_34 Co9_6 1_555 1_555
N67_3 C120_34 1_555 1_555
N45_34 C125_34 1_555 1_555
N46_34 C125_34 1_555 1_555
N47_34 C126_34 1_555 1_555
N48_34 C128_34 1_555 1_555
Co17_3 N48_34 1_555 1_555
C114_34 N42_34 1_555 1_555
C118_34 N42_34 1_555 1_555
C124_34 N67_3 1_555 1_555
C126_34 N46_34 1_555 1_555
C127_34 N45_34 1_555 1_555
C127_34 N47_34 1_555 1_555
C132_34 N48_34 1_555 1_555
C39_14 H25_14 1_555 1_555
C40_14 C39_14 1_555 1_555
C41_14 C40_14 1_555 1_555
H26_14 C41_14 1_555 1_555
C42_14 C41_14 1_555 1_555
H27_14 C42_14 1_555 1_555
C43_14 C42_14 1_555 1_555
C44_14 H29_14 1_555 1_555
C45_14 C44_14 1_555 1_555
H30_14 C45_14 1_555 1_555
C46_14 C45_14 1_555 1_555
H31_14 C46_14 1_555 1_555
C47_14 C46_14 1_555 1_555
C48_14 C47_14 1_555 1_555
H32_14 C48_14 1_555 1_555
C49_14 C47_14 1_555 1_555
C50_14 C40_14 1_555 1_555
C51_14 C53_14 1_555 1_555
C52_14 H33_14 1_555 1_555
C53_14 C52_14 1_555 1_555
C54_14 C53_14 1_555 1_555
H34_14 C54_14 1_555 1_555
C55_14 C54_14 1_555 1_555
H35_14 C55_14 1_555 1_555
C56_14 C55_14 1_555 1_555
H36_14 C56_14 1_555 1_555
C57_14 N21_14 1_555 1_555
Co14_7 N20_14 1_555 1_555
N63_10 C39_14 1_555 1_555
N16_10 C44_14 1_555 1_555
N17_14 C49_14 1_555 1_555
N18_14 C49_14 1_555 1_555
N19_14 C50_14 1_555 1_555
N20_14 C52_14 1_555 1_555
N21_14 Co14_7 1_555 1_555
S3_14 C57_14 1_555 1_555
C76_10 H49_10 1_555 1_555
C77_10 C76_10 1_555 1_555
C78_10 C77_10 1_555 1_555
H50_10 C78_10 1_555 1_555
C79_10 C78_10 1_555 1_555
H51_10 C79_10 1_555 1_555
C80_10 C79_10 1_555 1_555
H52_10 C80_10 1_555 1_555
C81_10 H53_10 1_555 1_555
C82_10 C81_10 1_555 1_555
H54_10 C82_10 1_555 1_555
C83_10 C82_10 1_555 1_555
H55_10 C83_10 1_555 1_555
C84_10 C83_10 1_555 1_555
C85_10 C84_10 1_555 1_555
H56_10 C85_10 1_555 1_555
C86_10 C84_10 1_555 1_555
C87_10 C77_10 1_555 1_555
C88_10 C90_10 1_555 1_555
C89_10 H57_10 1_555 1_555
C90_10 C89_10 1_555 1_555
C91_10 C90_10 1_555 1_555
H58_10 C91_10 1_555 1_555
C92_10 C91_10 1_555 1_555
H59_10 C92_10 1_555 1_555
C93_10 C92_10 1_555 1_555
H60_10 C93_10 1_555 1_555
C94_10 N34_10 1_555 1_555
N62_14 C76_10 1_555 1_555
N64_7 C81_10 1_555 1_555
N30_10 C86_10 1_555 1_555
N31_10 C86_10 1_555 1_555
N32_10 C87_10 1_555 1_555
N33_10 C89_10 1_555 1_555
N34_10 Co15_11 1_555 1_555
S4_10 C94_10 1_555 1_555
C95_34 H61_34 1_555 1_555
C96_34 C95_34 1_555 1_555
C97_34 C96_34 1_555 1_555
H62_34 C97_34 1_555 1_555
C98_34 C97_34 1_555 1_555
H63_34 C98_34 1_555 1_555
C99_34 C98_34 1_555 1_555
H64_34 C99_34 1_555 1_555
C100_34 H65_34 1_555 1_555
C101_34 C100_34 1_555 1_555
H66_34 C101_34 1_555 1_555
C102_34 C101_34 1_555 1_555
H67_34 C102_34 1_555 1_555
C103_34 C102_34 1_555 1_555
C104_34 C103_34 1_555 1_555
H68_34 C104_34 1_555 1_555
C105_34 C103_34 1_555 1_555
C106_34 C96_34 1_555 1_555
C107_34 C109_34 1_555 1_555
C108_34 H69_34 1_555 1_555
C109_34 C108_34 1_555 1_555
C110_34 C109_34 1_555 1_555
H70_34 C110_34 1_555 1_555
C111_34 C110_34 1_555 1_555
H71_34 C111_34 1_555 1_555
C112_34 C111_34 1_555 1_555
H72_34 C112_34 1_555 1_555
C113_10 N41_10 1_555 1_555
N63_7 C95_34 1_555 1_555
N36_30 C100_34 1_555 1_555
N37_34 C105_34 1_555 1_555
N38_34 C105_34 1_555 1_555
N39_34 C106_34 1_555 1_555
N40_10 Co15_11 1_555 1_555
N41_10 Co15_11 1_555 1_555
S5_10 C113_10 1_555 1_555
C133_34 H85_34 1_555 1_555
C134_34 C133_34 1_555 1_555
C135_34 C134_34 1_555 1_555
H86_34 C135_34 1_555 1_555
C136_34 C135_34 1_555 1_555
H87_34 C136_34 1_555 1_555
C137_34 C136_34 1_555 1_555
C138_34 H89_34 1_555 1_555
C139_34 C138_34 1_555 1_555
H90_34 C139_34 1_555 1_555
C140_34 C139_34 1_555 1_555
H91_34 C140_34 1_555 1_555
C141_34 C140_34 1_555 1_555
C142_34 C141_34 1_555 1_555
H92_34 C142_34 1_555 1_555
C143_34 C141_34 1_555 1_555
C144_34 C134_34 1_555 1_555
C145_34 C147_34 1_555 1_555
C146_34 H93_34 1_555 1_555
C147_34 C146_34 1_555 1_555
C148_34 C147_34 1_555 1_555
H94_34 C148_34 1_555 1_555
C149_34 C148_34 1_555 1_555
H95_34 C149_34 1_555 1_555
C150_34 C149_34 1_555 1_555
H96_34 C150_34 1_555 1_555
N49_34 Co9_7 1_555 1_555
N65_10 C138_34 1_555 1_555
N51_34 C143_34 1_555 1_555
N52_34 C143_34 1_555 1_555
N53_34 C144_34 1_555 1_555
N54_34 C146_34 1_555 1_555
C151_34 N55_34 1_555 1_555
N55_34 Co9_7 1_555 1_555
S7_34 C151_34 1_555 1_555
C153_14 N57_14 1_555 1_555
N57_14 Co14_7 1_555 1_555
S9_14 C153_14 1_555 1_555
Co7_12 N16_10 1_555 1_555
Co9_19 N36_30 1_555 1_555
Co17_15 N54_34 1_555 1_555
N69_14 Co14_7 1_555 1_555
N70_10 Co15_11 1_555 1_555
N71_10 Co14_7 1_555 1_555
C43_14 N63_10 1_555 1_555
C48_14 N16_10 1_555 1_555
C50_14 N18_14 1_555 1_555
C51_14 N17_14 1_555 1_555
C51_14 N19_14 1_555 1_555
C56_14 N20_14 1_555 1_555
C80_10 N62_14 1_555 1_555
C85_10 N64_7 1_555 1_555
C87_10 N31_10 1_555 1_555
C88_10 N30_10 1_555 1_555
C88_10 N32_10 1_555 1_555
C93_10 N33_10 1_555 1_555
Co15_11 N33_10 1_555 1_555
C99_34 N63_7 1_555 1_555
C104_34 N36_30 1_555 1_555
C106_34 N38_34 1_555 1_555
C107_34 N37_34 1_555 1_555
C107_34 N39_34 1_555 1_555
C108_34 N40_10 1_555 1_555
C112_34 N40_10 1_555 1_555
C133_34 N49_34 1_555 1_555
C137_34 N49_34 1_555 1_555
C142_34 N65_10 1_555 1_555
C144_34 N52_34 1_555 1_555
C145_34 N51_34 1_555 1_555
C145_34 N53_34 1_555 1_555
C150_34 N54_34 1_555 1_555
C6_35 N2_35 1_555 1_555
Co9_10 N2_35 1_555 1_555
S1_35 C6_35 1_555 1_555
C114_35 H73_35 1_555 1_555
C115_35 C114_35 1_555 1_555
C116_35 C115_35 1_555 1_555
H74_35 C116_35 1_555 1_555
C117_35 C116_35 1_555 1_555
H75_35 C117_35 1_555 1_555
C118_35 C117_35 1_555 1_555
H76_35 C118_35 1_555 1_555
C120_35 H77_35 1_555 1_555
C121_35 C120_35 1_555 1_555
H78_35 C121_35 1_555 1_555
C122_35 C121_35 1_555 1_555
H79_35 C122_35 1_555 1_555
C123_35 C122_35 1_555 1_555
C124_35 C123_35 1_555 1_555
H80_35 C124_35 1_555 1_555
C125_35 C123_35 1_555 1_555
C126_35 C115_35 1_555 1_555
C127_35 C129_35 1_555 1_555
C128_35 H81_35 1_555 1_555
C129_35 C128_35 1_555 1_555
C130_35 C129_35 1_555 1_555
H82_35 C130_35 1_555 1_555
C131_35 C130_35 1_555 1_555
H83_35 C131_35 1_555 1_555
C132_35 C131_35 1_555 1_555
H84_35 C132_35 1_555 1_555
N42_35 Co9_10 1_555 1_555
N67 C120_35 1_555 1_555
N45_35 C125_35 1_555 1_555
N46_35 C125_35 1_555 1_555
N47_35 C126_35 1_555 1_555
N48_35 C128_35 1_555 1_555
C133_35 H85_35 1_555 1_555
C134_35 C133_35 1_555 1_555
C135_35 C134_35 1_555 1_555
H86_35 C135_35 1_555 1_555
C136_35 C135_35 1_555 1_555
H87_35 C136_35 1_555 1_555
C137_35 C136_35 1_555 1_555
H88_35 C137_35 1_555 1_555
C138_35 H89_35 1_555 1_555
C139_35 C138_35 1_555 1_555
H90_35 C139_35 1_555 1_555
C140_35 C139_35 1_555 1_555
H91_35 C140_35 1_555 1_555
C141_35 C140_35 1_555 1_555
C142_35 C141_35 1_555 1_555
H92_35 C142_35 1_555 1_555
C143_35 C141_35 1_555 1_555
C144_35 C134_35 1_555 1_555
C145_35 C147_35 1_555 1_555
C146_35 H93_35 1_555 1_555
C147_35 C146_35 1_555 1_555
C148_35 C147_35 1_555 1_555
H94_35 C148_35 1_555 1_555
C149_35 C148_35 1_555 1_555
H95_35 C149_35 1_555 1_555
C150_35 C149_35 1_555 1_555
H96_35 C150_35 1_555 1_555
N49_35 Co9_10 1_555 1_555
N65_9 C138_35 1_555 1_555
N51_35 C143_35 1_555 1_555
N52_35 C143_35 1_555 1_555
N53_35 C144_35 1_555 1_555
N54_35 C146_35 1_555 1_555
C151_35 N55_35 1_555 1_555
N55_35 Co9_10 1_555 1_555
S7_35 C151_35 1_555 1_555
Co17 N48_35 1_555 1_555
Co17_14 N54_35 1_555 1_555
C114_35 N42_35 1_555 1_555
C118_35 N42_35 1_555 1_555
C124_35 N67 1_555 1_555
C126_35 N46_35 1_555 1_555
C127_35 N45_35 1_555 1_555
C127_35 N47_35 1_555 1_555
C132_35 N48_35 1_555 1_555
C133_35 N49_35 1_555 1_555
C137_35 N49_35 1_555 1_555
C142_35 N65_9 1_555 1_555
C144_35 N52_35 1_555 1_555
C145_35 N51_35 1_555 1_555
C145_35 N53_35 1_555 1_555
C150_35 N54_35 1_555 1_555
C39_15 H25_15 1_555 1_555
C40_15 C39_15 1_555 1_555
C41_15 C40_15 1_555 1_555
H26_15 C41_15 1_555 1_555
C42_15 C41_15 1_555 1_555
H27_15 C42_15 1_555 1_555
C43_15 C42_15 1_555 1_555
H28_15 C43_15 1_555 1_555
C44_15 H29_15 1_555 1_555
C45_15 C44_15 1_555 1_555
H30_15 C45_15 1_555 1_555
C46_15 C45_15 1_555 1_555
H31_15 C46_15 1_555 1_555
C47_15 C46_15 1_555 1_555
C48_15 C47_15 1_555 1_555
H32_15 C48_15 1_555 1_555
C49_15 C47_15 1_555 1_555
C50_15 C40_15 1_555 1_555
C51_15 C53_15 1_555 1_555
C52_15 H33_15 1_555 1_555
C53_15 C52_15 1_555 1_555
C54_15 C53_15 1_555 1_555
H34_15 C54_15 1_555 1_555
C55_15 C54_15 1_555 1_555
H35_15 C55_15 1_555 1_555
C56_15 C55_15 1_555 1_555
H36_15 C56_15 1_555 1_555
C57_15 N21_15 1_555 1_555
Co14_6 N20_15 1_555 1_555
N63_9 C39_15 1_555 1_555
N16_11 C44_15 1_555 1_555
N17_15 C49_15 1_555 1_555
N18_15 C49_15 1_555 1_555
N19_15 C50_15 1_555 1_555
N20_15 C52_15 1_555 1_555
N21_15 Co14_6 1_555 1_555
S3_15 C57_15 1_555 1_555
C76_11 H49_11 1_555 1_555
C77_11 C76_11 1_555 1_555
C78_11 C77_11 1_555 1_555
H50_11 C78_11 1_555 1_555
C79_11 C78_11 1_555 1_555
H51_11 C79_11 1_555 1_555
C80_11 C79_11 1_555 1_555
H52_11 C80_11 1_555 1_555
C81_11 H53_11 1_555 1_555
C82_11 C81_11 1_555 1_555
H54_11 C82_11 1_555 1_555
C83_11 C82_11 1_555 1_555
H55_11 C83_11 1_555 1_555
C84_11 C83_11 1_555 1_555
C85_11 C84_11 1_555 1_555
H56_11 C85_11 1_555 1_555
C86_11 C84_11 1_555 1_555
C87_11 C77_11 1_555 1_555
C88_11 C90_11 1_555 1_555
C89_11 H57_11 1_555 1_555
C90_11 C89_11 1_555 1_555
C91_11 C90_11 1_555 1_555
H58_11 C91_11 1_555 1_555
C92_11 C91_11 1_555 1_555
H59_11 C92_11 1_555 1_555
C93_11 C92_11 1_555 1_555
H60_11 C93_11 1_555 1_555
C94_11 N34_11 1_555 1_555
N62_15 C76_11 1_555 1_555
N64_6 C81_11 1_555 1_555
N30_11 C86_11 1_555 1_555
N31_11 C86_11 1_555 1_555
N32_11 C87_11 1_555 1_555
N33_11 C89_11 1_555 1_555
N34_11 Co15_10 1_555 1_555
S4_11 C94_11 1_555 1_555
C95_35 H61_35 1_555 1_555
C96_35 C95_35 1_555 1_555
C97_35 C96_35 1_555 1_555
H62_35 C97_35 1_555 1_555
C98_35 C97_35 1_555 1_555
H63_35 C98_35 1_555 1_555
C99_35 C98_35 1_555 1_555
C100_35 H65_35 1_555 1_555
C101_35 C100_35 1_555 1_555
H66_35 C101_35 1_555 1_555
C102_35 C101_35 1_555 1_555
H67_35 C102_35 1_555 1_555
C103_35 C102_35 1_555 1_555
C104_35 C103_35 1_555 1_555
H68_35 C104_35 1_555 1_555
C105_35 C103_35 1_555 1_555
C106_35 C96_35 1_555 1_555
C107_35 C109_35 1_555 1_555
C108_35 H69_35 1_555 1_555
C109_35 C108_35 1_555 1_555
C110_35 C109_35 1_555 1_555
H70_35 C110_35 1_555 1_555
C111_35 C110_35 1_555 1_555
H71_35 C111_35 1_555 1_555
C112_35 C111_35 1_555 1_555
H72_35 C112_35 1_555 1_555
C113_11 N41_11 1_555 1_555
N63_6 C95_35 1_555 1_555
N36_31 C100_35 1_555 1_555
N37_35 C105_35 1_555 1_555
N38_35 C105_35 1_555 1_555
N39_35 C106_35 1_555 1_555
N40_11 Co15_10 1_555 1_555
N41_11 Co15_10 1_555 1_555
S5_11 C113_11 1_555 1_555
C153_15 N57_15 1_555 1_555
N57_15 Co14_6 1_555 1_555
S9_15 C153_15 1_555 1_555
Co7_13 N16_11 1_555 1_555
Co9_20 N36_31 1_555 1_555
N69_15 Co14_6 1_555 1_555
N70_11 Co15_10 1_555 1_555
N71_11 Co14_6 1_555 1_555
C43_15 N63_9 1_555 1_555
C48_15 N16_11 1_555 1_555
C50_15 N18_15 1_555 1_555
C51_15 N17_15 1_555 1_555
C51_15 N19_15 1_555 1_555
C56_15 N20_15 1_555 1_555
C80_11 N62_15 1_555 1_555
C85_11 N64_6 1_555 1_555
C87_11 N31_11 1_555 1_555
C88_11 N30_11 1_555 1_555
C88_11 N32_11 1_555 1_555
C93_11 N33_11 1_555 1_555
Co15_10 N33_11 1_555 1_555
C99_35 N63_6 1_555 1_555
C104_35 N36_31 1_555 1_555
C106_35 N38_35 1_555 1_555
C107_35 N37_35 1_555 1_555
C107_35 N39_35 1_555 1_555
C108_35 N40_11 1_555 1_555
C112_35 N40_11 1_555 1_555
C39_16 H25_16 1_555 1_555
C40_16 C39_16 1_555 1_555
C41_16 C40_16 1_555 1_555
H26_16 C41_16 1_555 1_555
C42_16 C41_16 1_555 1_555
H27_16 C42_16 1_555 1_555
C43_16 C42_16 1_555 1_555
H28_16 C43_16 1_555 1_555
C44_16 H29_16 1_555 1_555
C45_16 C44_16 1_555 1_555
H30_16 C45_16 1_555 1_555
C46_16 C45_16 1_555 1_555
H31_16 C46_16 1_555 1_555
C47_16 C46_16 1_555 1_555
C48_16 C47_16 1_555 1_555
H32_16 C48_16 1_555 1_555
C49_16 C47_16 1_555 1_555
C50_16 C40_16 1_555 1_555
C51_16 C53_16 1_555 1_555
C52_16 H33_16 1_555 1_555
C53_16 C52_16 1_555 1_555
C54_16 C53_16 1_555 1_555
H34_16 C54_16 1_555 1_555
C55_16 C54_16 1_555 1_555
H35_16 C55_16 1_555 1_555
C56_16 C55_16 1_555 1_555
H36_16 C56_16 1_555 1_555
Co14_5 N20_16 1_555 1_555
N63_12 C39_16 1_555 1_555
N16_12 C44_16 1_555 1_555
N17_16 C49_16 1_555 1_555
N18_16 C49_16 1_555 1_555
N19_16 C50_16 1_555 1_555
N20_16 C52_16 1_555 1_555
N21_16 Co14_5 1_555 1_555
N57_16 Co14_5 1_555 1_555
Co7_15 N16_12 1_555 1_555
N69_16 Co14_5 1_555 1_555
C43_16 N63_12 1_555 1_555
C48_16 N16_12 1_555 1_555
C50_16 N18_16 1_555 1_555
C51_16 N17_16 1_555 1_555
C51_16 N19_16 1_555 1_555
C56_16 N20_16 1_555 1_555
C76_12 H49_12 1_555 1_555
C77_12 C76_12 1_555 1_555
C78_12 C77_12 1_555 1_555
H50_12 C78_12 1_555 1_555
C79_12 C78_12 1_555 1_555
H51_12 C79_12 1_555 1_555
C80_12 C79_12 1_555 1_555
C81_12 H53_12 1_555 1_555
C82_12 C81_12 1_555 1_555
H54_12 C82_12 1_555 1_555
C83_12 C82_12 1_555 1_555
H55_12 C83_12 1_555 1_555
C84_12 C83_12 1_555 1_555
C85_12 C84_12 1_555 1_555
H56_12 C85_12 1_555 1_555
C86_12 C84_12 1_555 1_555
C87_12 C77_12 1_555 1_555
C88_12 C90_12 1_555 1_555
C89_12 H57_12 1_555 1_555
C90_12 C89_12 1_555 1_555
C91_12 C90_12 1_555 1_555
H58_12 C91_12 1_555 1_555
C92_12 C91_12 1_555 1_555
H59_12 C92_12 1_555 1_555
C93_12 C92_12 1_555 1_555
H60_12 C93_12 1_555 1_555
N62_16 C76_12 1_555 1_555
N64_8 C81_12 1_555 1_555
N30_12 C86_12 1_555 1_555
N31_12 C86_12 1_555 1_555
N32_12 C87_12 1_555 1_555
N33_12 C89_12 1_555 1_555
N34_12 Co15_9 1_555 1_555
C95_36 H61_36 1_555 1_555
C96_36 C95_36 1_555 1_555
C97_36 C96_36 1_555 1_555
H62_36 C97_36 1_555 1_555
C98_36 C97_36 1_555 1_555
H63_36 C98_36 1_555 1_555
C99_36 C98_36 1_555 1_555
H64_36 C99_36 1_555 1_555
C100_36 H65_36 1_555 1_555
C101_36 C100_36 1_555 1_555
H66_36 C101_36 1_555 1_555
C102_36 C101_36 1_555 1_555
H67_36 C102_36 1_555 1_555
C103_36 C102_36 1_555 1_555
C104_36 C103_36 1_555 1_555
H68_36 C104_36 1_555 1_555
C105_36 C103_36 1_555 1_555
C106_36 C96_36 1_555 1_555
C107_36 C109_36 1_555 1_555
C108_36 H69_36 1_555 1_555
C109_36 C108_36 1_555 1_555
C110_36 C109_36 1_555 1_555
H70_36 C110_36 1_555 1_555
C111_36 C110_36 1_555 1_555
H71_36 C111_36 1_555 1_555
C112_36 C111_36 1_555 1_555
H72_36 C112_36 1_555 1_555
N63_8 C95_36 1_555 1_555
N36_32 C100_36 1_555 1_555
N37_36 C105_36 1_555 1_555
N38_36 C105_36 1_555 1_555
N39_36 C106_36 1_555 1_555
N40_12 Co15_9 1_555 1_555
N41_12 Co15_9 1_555 1_555
Co9_17 N36_32 1_555 1_555
C80_12 N62_16 1_555 1_555
C85_12 N64_8 1_555 1_555
C87_12 N31_12 1_555 1_555
C88_12 N30_12 1_555 1_555
C88_12 N32_12 1_555 1_555
C93_12 N33_12 1_555 1_555
Co15_9 N33_12 1_555 1_555
C99_36 N63_8 1_555 1_555
C104_36 N36_32 1_555 1_555
C106_36 N38_36 1_555 1_555
C107_36 N37_36 1_555 1_555
C107_36 N39_36 1_555 1_555
C108_36 N40_12 1_555 1_555
C112_36 N40_12 1_555 1_555
C6_36 N2_36 1_555 1_555
Co9_8 N2_36 1_555 1_555
S1_36 C6_36 1_555 1_555
S3_16 C57_16 1_555 1_555
S4_12 C94_12 1_555 1_555
S5_12 C113_12 1_555 1_555
C114_36 H73_36 1_555 1_555
C115_36 C114_36 1_555 1_555
C116_36 C115_36 1_555 1_555
H74_36 C116_36 1_555 1_555
C117_36 C116_36 1_555 1_555
H75_36 C117_36 1_555 1_555
C118_36 C117_36 1_555 1_555
H76_36 C118_36 1_555 1_555
C120_36 H77_36 1_555 1_555
C121_36 C120_36 1_555 1_555
H78_36 C121_36 1_555 1_555
C122_36 C121_36 1_555 1_555
H79_36 C122_36 1_555 1_555
C123_36 C122_36 1_555 1_555
C124_36 C123_36 1_555 1_555
H80_36 C124_36 1_555 1_555
C125_36 C123_36 1_555 1_555
C126_36 C115_36 1_555 1_555
C127_36 C129_36 1_555 1_555
C128_36 H81_36 1_555 1_555
C129_36 C128_36 1_555 1_555
C130_36 C129_36 1_555 1_555
H82_36 C130_36 1_555 1_555
C131_36 C130_36 1_555 1_555
H83_36 C131_36 1_555 1_555
C132_36 C131_36 1_555 1_555
H84_36 C132_36 1_555 1_555
N42_36 Co9_8 1_555 1_555
N67_2 C120_36 1_555 1_555
N45_36 C125_36 1_555 1_555
N46_36 C125_36 1_555 1_555
N47_36 C126_36 1_555 1_555
N48_36 C128_36 1_555 1_555
C133_36 H85_36 1_555 1_555
C134_36 C133_36 1_555 1_555
C135_36 C134_36 1_555 1_555
H86_36 C135_36 1_555 1_555
C136_36 C135_36 1_555 1_555
H87_36 C136_36 1_555 1_555
C137_36 C136_36 1_555 1_555
H88_36 C137_36 1_555 1_555
C138_36 H89_36 1_555 1_555
C139_36 C138_36 1_555 1_555
H90_36 C139_36 1_555 1_555
C140_36 C139_36 1_555 1_555
H91_36 C140_36 1_555 1_555
C141_36 C140_36 1_555 1_555
C142_36 C141_36 1_555 1_555
H92_36 C142_36 1_555 1_555
C143_36 C141_36 1_555 1_555
C144_36 C134_36 1_555 1_555
C145_36 C147_36 1_555 1_555
C146_36 H93_36 1_555 1_555
C147_36 C146_36 1_555 1_555
C148_36 C147_36 1_555 1_555
H94_36 C148_36 1_555 1_555
C149_36 C148_36 1_555 1_555
H95_36 C149_36 1_555 1_555
C150_36 C149_36 1_555 1_555
H96_36 C150_36 1_555 1_555
N49_36 Co9_8 1_555 1_555
N65_12 C138_36 1_555 1_555
N51_36 C143_36 1_555 1_555
N52_36 C143_36 1_555 1_555
N53_36 C144_36 1_555 1_555
N54_36 C146_36 1_555 1_555
C151_36 N55_36 1_555 1_555
N55_36 Co9_8 1_555 1_555
S7_36 C151_36 1_555 1_555
S9_16 C153_16 1_555 1_555
Co17_2 N48_36 1_555 1_555
Co17_13 N54_36 1_555 1_555
C114_36 N42_36 1_555 1_555
C118_36 N42_36 1_555 1_555
C124_36 N67_2 1_555 1_555
C126_36 N46_36 1_555 1_555
C127_36 N45_36 1_555 1_555
C127_36 N47_36 1_555 1_555
C132_36 N48_36 1_555 1_555
C133_36 N49_36 1_555 1_555
C137_36 N49_36 1_555 1_555
C142_36 N65_12 1_555 1_555
C144_36 N52_36 1_555 1_555
C145_36 N51_36 1_555 1_555
C145_36 N53_36 1_555 1_555
C150_36 N54_36 1_555 1_555
C6_37 N2_37 1_555 1_555
Co7_13 N2_37 1_555 1_555
S1_37 C6_37 1_555 1_555
C58_21 H37_21 1_555 1_555
C59_21 C58_21 1_555 1_555
H38_21 C59_21 1_555 1_555
C60_21 C59_21 1_555 1_555
H39_21 C60_21 1_555 1_555
C61_21 C60_21 1_555 1_555
C62_21 C61_21 1_555 1_555
H40_21 C62_21 1_555 1_555
C63_21 C61_21 1_555 1_555
N70_11 C58_21 1_555 1_555
N23_21 C63_21 1_555 1_555
C64_21 H41_21 1_555 1_555
C65_21 C64_21 1_555 1_555
H42_21 C65_21 1_555 1_555
C66_21 C65_21 1_555 1_555
H43_21 C66_21 1_555 1_555
C67_21 C66_21 1_555 1_555
C68_21 C67_21 1_555 1_555
H44_21 C68_21 1_555 1_555
C69_21 C67_21 1_555 1_555
N25_21 C63_21 1_555 1_555
C70_21 H45_21 1_555 1_555
C71_21 C70_21 1_555 1_555
H46_21 C71_21 1_555 1_555
C72_21 C71_21 1_555 1_555
H47_21 C72_21 1_555 1_555
C73_21 C72_21 1_555 1_555
C74_21 C73_21 1_555 1_555
H48_21 C74_21 1_555 1_555
C75_21 N23_21 1_555 1_555
N26_21 C70_21 1_555 1_555
N27_21 C69_21 1_555 1_555
C114_37 H73_37 1_555 1_555
C115_37 C114_37 1_555 1_555
C116_37 C115_37 1_555 1_555
H74_37 C116_37 1_555 1_555
C117_37 C116_37 1_555 1_555
H75_37 C117_37 1_555 1_555
C118_37 C117_37 1_555 1_555
H76_37 C118_37 1_555 1_555
C120_37 H77_37 1_555 1_555
C121_37 C120_37 1_555 1_555
H78_37 C121_37 1_555 1_555
C122_37 C121_37 1_555 1_555
H79_37 C122_37 1_555 1_555
C123_37 C122_37 1_555 1_555
C124_37 C123_37 1_555 1_555
H80_37 C124_37 1_555 1_555
C125_37 C123_37 1_555 1_555
C126_37 C115_37 1_555 1_555
C127_37 C129_37 1_555 1_555
C128_37 H81_37 1_555 1_555
C129_37 C128_37 1_555 1_555
C130_37 C129_37 1_555 1_555
H82_37 C130_37 1_555 1_555
C131_37 C130_37 1_555 1_555
H83_37 C131_37 1_555 1_555
C132_37 C131_37 1_555 1_555
H84_37 C132_37 1_555 1_555
N42_37 Co7_13 1_555 1_555
N66_2 C120_37 1_555 1_555
N45_37 C125_37 1_555 1_555
N46_37 C125_37 1_555 1_555
N47_37 C126_37 1_555 1_555
N48_37 C128_37 1_555 1_555
C133_37 H85_37 1_555 1_555
C134_37 C133_37 1_555 1_555
C135_37 C134_37 1_555 1_555
H86_37 C135_37 1_555 1_555
C136_37 C135_37 1_555 1_555
H87_37 C136_37 1_555 1_555
C137_37 C136_37 1_555 1_555
H88_37 C137_37 1_555 1_555
C138_37 H89_37 1_555 1_555
C139_37 C138_37 1_555 1_555
H90_37 C139_37 1_555 1_555
C140_37 C139_37 1_555 1_555
H91_37 C140_37 1_555 1_555
C141_37 C140_37 1_555 1_555
C142_37 C141_37 1_555 1_555
H92_37 C142_37 1_555 1_555
C143_37 C141_37 1_555 1_555
C144_37 C134_37 1_555 1_555
C145_37 C147_37 1_555 1_555
C146_37 H93_37 1_555 1_555
C147_37 C146_37 1_555 1_555
C148_37 C147_37 1_555 1_555
H94_37 C148_37 1_555 1_555
C149_37 C148_37 1_555 1_555
H95_37 C149_37 1_555 1_555
C150_37 C149_37 1_555 1_555
H96_37 C150_37 1_555 1_555
N49_37 Co7_13 1_555 1_555
N66_23 C138_37 1_555 1_555
N51_37 C143_37 1_555 1_555
N52_37 C143_37 1_555 1_555
N53_37 C144_37 1_555 1_555
N54_37 C146_37 1_555 1_555
C151_37 N55_37 1_555 1_555
N55_37 Co7_13 1_555 1_555
S7_37 C151_37 1_555 1_555
Co15_14 N26_21 1_555 1_555
Co16_19 N48_37 1_555 1_555
Co16_9 N54_37 1_555 1_555
N64_29 Co7_13 1_555 1_555
C62_21 N70_11 1_555 1_555
C64_21 N71_11 1_555 1_555
C68_21 N71_11 1_555 1_555
C69_21 N25_21 1_555 1_555
C73_21 C75_21 1_555 1_555
C74_21 N26_21 1_555 1_555
C75_21 N27_21 1_555 1_555
C114_37 N42_37 1_555 1_555
C118_37 N42_37 1_555 1_555
C124_37 N66_2 1_555 1_555
C126_37 N46_37 1_555 1_555
C127_37 N45_37 1_555 1_555
C127_37 N47_37 1_555 1_555
C132_37 N48_37 1_555 1_555
C133_37 N49_37 1_555 1_555
C137_37 N49_37 1_555 1_555
C142_37 N66_23 1_555 1_555
C144_37 N52_37 1_555 1_555
C145_37 N51_37 1_555 1_555
C145_37 N53_37 1_555 1_555
C150_37 N54_37 1_555 1_555
C6_38 N2_38 1_555 1_555
Co7_12 N2_38 1_555 1_555
S1_38 C6_38 1_555 1_555
C58_22 H37_22 1_555 1_555
C59_22 C58_22 1_555 1_555
H38_22 C59_22 1_555 1_555
C60_22 C59_22 1_555 1_555
H39_22 C60_22 1_555 1_555
C61_22 C60_22 1_555 1_555
C62_22 C61_22 1_555 1_555
H40_22 C62_22 1_555 1_555
C63_22 C61_22 1_555 1_555
N70_10 C58_22 1_555 1_555
N23_22 C63_22 1_555 1_555
C64_22 H41_22 1_555 1_555
C65_22 C64_22 1_555 1_555
H42_22 C65_22 1_555 1_555
C66_22 C65_22 1_555 1_555
H43_22 C66_22 1_555 1_555
C67_22 C66_22 1_555 1_555
C68_22 C67_22 1_555 1_555
H44_22 C68_22 1_555 1_555
C69_22 C67_22 1_555 1_555
N25_22 C63_22 1_555 1_555
C70_22 H45_22 1_555 1_555
C71_22 C70_22 1_555 1_555
H46_22 C71_22 1_555 1_555
C72_22 C71_22 1_555 1_555
H47_22 C72_22 1_555 1_555
C73_22 C72_22 1_555 1_555
C74_22 C73_22 1_555 1_555
H48_22 C74_22 1_555 1_555
C75_22 N23_22 1_555 1_555
N26_22 C70_22 1_555 1_555
N27_22 C69_22 1_555 1_555
C114_38 H73_38 1_555 1_555
C115_38 C114_38 1_555 1_555
C116_38 C115_38 1_555 1_555
H74_38 C116_38 1_555 1_555
C117_38 C116_38 1_555 1_555
H75_38 C117_38 1_555 1_555
C118_38 C117_38 1_555 1_555
H76_38 C118_38 1_555 1_555
C120_38 H77_38 1_555 1_555
C121_38 C120_38 1_555 1_555
H78_38 C121_38 1_555 1_555
C122_38 C121_38 1_555 1_555
H79_38 C122_38 1_555 1_555
C123_38 C122_38 1_555 1_555
C124_38 C123_38 1_555 1_555
H80_38 C124_38 1_555 1_555
C125_38 C123_38 1_555 1_555
C126_38 C115_38 1_555 1_555
C127_38 C129_38 1_555 1_555
C128_38 H81_38 1_555 1_555
C129_38 C128_38 1_555 1_555
C130_38 C129_38 1_555 1_555
H82_38 C130_38 1_555 1_555
C131_38 C130_38 1_555 1_555
H83_38 C131_38 1_555 1_555
C132_38 C131_38 1_555 1_555
H84_38 C132_38 1_555 1_555
N42_38 Co7_12 1_555 1_555
N66_4 C120_38 1_555 1_555
N45_38 C125_38 1_555 1_555
N46_38 C125_38 1_555 1_555
N47_38 C126_38 1_555 1_555
N48_38 C128_38 1_555 1_555
C133_38 H85_38 1_555 1_555
C134_38 C133_38 1_555 1_555
C135_38 C134_38 1_555 1_555
H86_38 C135_38 1_555 1_555
C136_38 C135_38 1_555 1_555
H87_38 C136_38 1_555 1_555
C137_38 C136_38 1_555 1_555
H88_38 C137_38 1_555 1_555
C138_38 H89_38 1_555 1_555
C139_38 C138_38 1_555 1_555
H90_38 C139_38 1_555 1_555
C140_38 C139_38 1_555 1_555
H91_38 C140_38 1_555 1_555
C141_38 C140_38 1_555 1_555
C142_38 C141_38 1_555 1_555
H92_38 C142_38 1_555 1_555
C143_38 C141_38 1_555 1_555
C144_38 C134_38 1_555 1_555
C145_38 C147_38 1_555 1_555
C146_38 H93_38 1_555 1_555
C147_38 C146_38 1_555 1_555
C148_38 C147_38 1_555 1_555
H94_38 C148_38 1_555 1_555
C149_38 C148_38 1_555 1_555
H95_38 C149_38 1_555 1_555
C150_38 C149_38 1_555 1_555
H96_38 C150_38 1_555 1_555
N49_38 Co7_12 1_555 1_555
N66_21 C138_38 1_555 1_555
N51_38 C143_38 1_555 1_555
N52_38 C143_38 1_555 1_555
N53_38 C144_38 1_555 1_555
N54_38 C146_38 1_555 1_555
C151_38 N55_38 1_555 1_555
N55_38 Co7_12 1_555 1_555
S7_38 C151_38 1_555 1_555
Co15_13 N26_22 1_555 1_555
Co16_20 N48_38 1_555 1_555
Co16_10 N54_38 1_555 1_555
N64_30 Co7_12 1_555 1_555
C62_22 N70_10 1_555 1_555
C64_22 N71_10 1_555 1_555
C68_22 N71_10 1_555 1_555
C69_22 N25_22 1_555 1_555
C73_22 C75_22 1_555 1_555
C74_22 N26_22 1_555 1_555
C75_22 N27_22 1_555 1_555
C114_38 N42_38 1_555 1_555
C118_38 N42_38 1_555 1_555
C124_38 N66_4 1_555 1_555
C126_38 N46_38 1_555 1_555
C127_38 N45_38 1_555 1_555
C127_38 N47_38 1_555 1_555
C132_38 N48_38 1_555 1_555
C133_38 N49_38 1_555 1_555
C137_38 N49_38 1_555 1_555
C142_38 N66_21 1_555 1_555
C144_38 N52_38 1_555 1_555
C145_38 N51_38 1_555 1_555
C145_38 N53_38 1_555 1_555
C150_38 N54_38 1_555 1_555
C6_39 N2_39 1_555 1_555
Co7_14 N2_39 1_555 1_555
S1_39 C6_39 1_555 1_555
C114_39 H73_39 1_555 1_555
C115_39 C114_39 1_555 1_555
C116_39 C115_39 1_555 1_555
H74_39 C116_39 1_555 1_555
C117_39 C116_39 1_555 1_555
H75_39 C117_39 1_555 1_555
C118_39 C117_39 1_555 1_555
C120_39 H77_39 1_555 1_555
C121_39 C120_39 1_555 1_555
H78_39 C121_39 1_555 1_555
C122_39 C121_39 1_555 1_555
H79_39 C122_39 1_555 1_555
C123_39 C122_39 1_555 1_555
C124_39 C123_39 1_555 1_555
H80_39 C124_39 1_555 1_555
C125_39 C123_39 1_555 1_555
C126_39 C115_39 1_555 1_555
C127_39 C129_39 1_555 1_555
C128_39 H81_39 1_555 1_555
C129_39 C128_39 1_555 1_555
C130_39 C129_39 1_555 1_555
H82_39 C130_39 1_555 1_555
C131_39 C130_39 1_555 1_555
H83_39 C131_39 1_555 1_555
C132_39 C131_39 1_555 1_555
H84_39 C132_39 1_555 1_555
N42_39 Co7_14 1_555 1_555
N66 C120_39 1_555 1_555
N45_39 C125_39 1_555 1_555
N46_39 C125_39 1_555 1_555
N47_39 C126_39 1_555 1_555
N48_39 C128_39 1_555 1_555
Co16_17 N48_39 1_555 1_555
N64_31 Co7_14 1_555 1_555
C114_39 N42_39 1_555 1_555
C118_39 N42_39 1_555 1_555
C124_39 N66 1_555 1_555
C126_39 N46_39 1_555 1_555
C127_39 N45_39 1_555 1_555
C127_39 N47_39 1_555 1_555
C132_39 N48_39 1_555 1_555
C133_39 H85_39 1_555 1_555
C134_39 C133_39 1_555 1_555
C135_39 C134_39 1_555 1_555
H86_39 C135_39 1_555 1_555
C136_39 C135_39 1_555 1_555
H87_39 C136_39 1_555 1_555
C137_39 C136_39 1_555 1_555
C138_39 H89_39 1_555 1_555
C139_39 C138_39 1_555 1_555
H90_39 C139_39 1_555 1_555
C140_39 C139_39 1_555 1_555
H91_39 C140_39 1_555 1_555
C141_39 C140_39 1_555 1_555
C142_39 C141_39 1_555 1_555
H92_39 C142_39 1_555 1_555
C143_39 C141_39 1_555 1_555
C144_39 C134_39 1_555 1_555
C145_39 C147_39 1_555 1_555
C146_39 H93_39 1_555 1_555
C147_39 C146_39 1_555 1_555
C148_39 C147_39 1_555 1_555
H94_39 C148_39 1_555 1_555
C149_39 C148_39 1_555 1_555
H95_39 C149_39 1_555 1_555
C150_39 C149_39 1_555 1_555
H96_39 C150_39 1_555 1_555
N49_39 Co7_15 1_555 1_555
N66_22 C138_39 1_555 1_555
N51_39 C143_39 1_555 1_555
N52_39 C143_39 1_555 1_555
N53_39 C144_39 1_555 1_555
N54_39 C146_39 1_555 1_555
C151_39 N55_39 1_555 1_555
N55_39 Co7_15 1_555 1_555
S7_39 C151_39 1_555 1_555
Co16_12 N54_39 1_555 1_555
C133_39 N49_39 1_555 1_555
C137_39 N49_39 1_555 1_555
C142_39 N66_22 1_555 1_555
C144_39 N52_39 1_555 1_555
C145_39 N51_39 1_555 1_555
C145_39 N53_39 1_555 1_555
C150_39 N54_39 1_555 1_555
C58_23 H37_23 1_555 1_555
C59_23 C58_23 1_555 1_555
H38_23 C59_23 1_555 1_555
C60_23 C59_23 1_555 1_555
H39_23 C60_23 1_555 1_555
C61_23 C60_23 1_555 1_555
C62_23 C61_23 1_555 1_555
H40_23 C62_23 1_555 1_555
C63_23 C61_23 1_555 1_555
N70_12 C58_23 1_555 1_555
N23_23 C63_23 1_555 1_555
C64_23 H41_23 1_555 1_555
C65_23 C64_23 1_555 1_555
H42_23 C65_23 1_555 1_555
C66_23 C65_23 1_555 1_555
H43_23 C66_23 1_555 1_555
C67_23 C66_23 1_555 1_555
C68_23 C67_23 1_555 1_555
H44_23 C68_23 1_555 1_555
C69_23 C67_23 1_555 1_555
N25_23 C63_23 1_555 1_555
C70_23 H45_23 1_555 1_555
C71_23 C70_23 1_555 1_555
H46_23 C71_23 1_555 1_555
C72_23 C71_23 1_555 1_555
H47_23 C72_23 1_555 1_555
C73_23 C72_23 1_555 1_555
C74_23 C73_23 1_555 1_555
H48_23 C74_23 1_555 1_555
C75_23 N23_23 1_555 1_555
N26_23 C70_23 1_555 1_555
N27_23 C69_23 1_555 1_555
C62_23 N70_12 1_555 1_555
C64_23 N71_12 1_555 1_555
C68_23 N71_12 1_555 1_555
C69_23 N25_23 1_555 1_555
C73_23 C75_23 1_555 1_555
C74_23 N26_23 1_555 1_555
C75_23 N27_23 1_555 1_555
C6_40 N2_40 1_555 1_555
Co7_11 N2_40 1_555 1_555
S1_40 C6_40 1_555 1_555
C58_24 H37_24 1_555 1_555
C59_24 C58_24 1_555 1_555
H38_24 C59_24 1_555 1_555
C60_24 C59_24 1_555 1_555
H39_24 C60_24 1_555 1_555
C61_24 C60_24 1_555 1_555
C62_24 C61_24 1_555 1_555
H40_24 C62_24 1_555 1_555
C63_24 C61_24 1_555 1_555
N70_9 C58_24 1_555 1_555
N23_24 C63_24 1_555 1_555
C64_24 H41_24 1_555 1_555
C65_24 C64_24 1_555 1_555
H42_24 C65_24 1_555 1_555
C66_24 C65_24 1_555 1_555
H43_24 C66_24 1_555 1_555
C67_24 C66_24 1_555 1_555
C68_24 C67_24 1_555 1_555
H44_24 C68_24 1_555 1_555
C69_24 C67_24 1_555 1_555
N25_24 C63_24 1_555 1_555
C70_24 H45_24 1_555 1_555
C71_24 C70_24 1_555 1_555
H46_24 C71_24 1_555 1_555
C72_24 C71_24 1_555 1_555
H47_24 C72_24 1_555 1_555
C73_24 C72_24 1_555 1_555
C74_24 C73_24 1_555 1_555
H48_24 C74_24 1_555 1_555
C75_24 N23_24 1_555 1_555
N26_24 C70_24 1_555 1_555
N27_24 C69_24 1_555 1_555
C114_40 H73_40 1_555 1_555
C115_40 C114_40 1_555 1_555
C116_40 C115_40 1_555 1_555
H74_40 C116_40 1_555 1_555
C117_40 C116_40 1_555 1_555
H75_40 C117_40 1_555 1_555
C118_40 C117_40 1_555 1_555
H76_40 C118_40 1_555 1_555
C120_40 H77_40 1_555 1_555
C121_40 C120_40 1_555 1_555
H78_40 C121_40 1_555 1_555
C122_40 C121_40 1_555 1_555
H79_40 C122_40 1_555 1_555
C123_40 C122_40 1_555 1_555
C124_40 C123_40 1_555 1_555
H80_40 C124_40 1_555 1_555
C125_40 C123_40 1_555 1_555
C126_40 C115_40 1_555 1_555
C127_40 C129_40 1_555 1_555
C128_40 H81_40 1_555 1_555
C129_40 C128_40 1_555 1_555
C130_40 C129_40 1_555 1_555
H82_40 C130_40 1_555 1_555
C131_40 C130_40 1_555 1_555
H83_40 C131_40 1_555 1_555
C132_40 C131_40 1_555 1_555
H84_40 C132_40 1_555 1_555
N42_40 Co7_11 1_555 1_555
N66_3 C120_40 1_555 1_555
N45_40 C125_40 1_555 1_555
N46_40 C125_40 1_555 1_555
N47_40 C126_40 1_555 1_555
N48_40 C128_40 1_555 1_555
C133_40 H85_40 1_555 1_555
C134_40 C133_40 1_555 1_555
C135_40 C134_40 1_555 1_555
H86_40 C135_40 1_555 1_555
C136_40 C135_40 1_555 1_555
H87_40 C136_40 1_555 1_555
C137_40 C136_40 1_555 1_555
H88_40 C137_40 1_555 1_555
C138_40 H89_40 1_555 1_555
C139_40 C138_40 1_555 1_555
H90_40 C139_40 1_555 1_555
C140_40 C139_40 1_555 1_555
H91_40 C140_40 1_555 1_555
C141_40 C140_40 1_555 1_555
C142_40 C141_40 1_555 1_555
H92_40 C142_40 1_555 1_555
C143_40 C141_40 1_555 1_555
C144_40 C134_40 1_555 1_555
C145_40 C147_40 1_555 1_555
C146_40 H93_40 1_555 1_555
C147_40 C146_40 1_555 1_555
C148_40 C147_40 1_555 1_555
H94_40 C148_40 1_555 1_555
C149_40 C148_40 1_555 1_555
H95_40 C149_40 1_555 1_555
C150_40 C149_40 1_555 1_555
H96_40 C150_40 1_555 1_555
N49_40 Co7_11 1_555 1_555
N66_24 C138_40 1_555 1_555
N51_40 C143_40 1_555 1_555
N52_40 C143_40 1_555 1_555
N53_40 C144_40 1_555 1_555
N54_40 C146_40 1_555 1_555
C151_40 N55_40 1_555 1_555
N55_40 Co7_11 1_555 1_555
S7_40 C151_40 1_555 1_555
Co15_15 N26_24 1_555 1_555
Co16_18 N48_40 1_555 1_555
Co16_11 N54_40 1_555 1_555
N64_32 Co7_11 1_555 1_555
C62_24 N70_9 1_555 1_555
C64_24 N71_9 1_555 1_555
C68_24 N71_9 1_555 1_555
C69_24 N25_24 1_555 1_555
C73_24 C75_24 1_555 1_555
C74_24 N26_24 1_555 1_555
C75_24 N27_24 1_555 1_555
C114_40 N42_40 1_555 1_555
C118_40 N42_40 1_555 1_555
C124_40 N66_3 1_555 1_555
C126_40 N46_40 1_555 1_555
C127_40 N45_40 1_555 1_555
C127_40 N47_40 1_555 1_555
C132_40 N48_40 1_555 1_555
C133_40 N49_40 1_555 1_555
C137_40 N49_40 1_555 1_555
C142_40 N66_24 1_555 1_555
C144_40 N52_40 1_555 1_555
C145_40 N51_40 1_555 1_555
C145_40 N53_40 1_555 1_555
C150_40 N54_40 1_555 1_555
C95_37 H61_37 1_555 1_555
C96_37 C95_37 1_555 1_555
C97_37 C96_37 1_555 1_555
H62_37 C97_37 1_555 1_555
C98_37 C97_37 1_555 1_555
H63_37 C98_37 1_555 1_555
C99_37 C98_37 1_555 1_555
C100_37 H65_37 1_555 1_555
C101_37 C100_37 1_555 1_555
H66_37 C101_37 1_555 1_555
C102_37 C101_37 1_555 1_555
H67_37 C102_37 1_555 1_555
C103_37 C102_37 1_555 1_555
C104_37 C103_37 1_555 1_555
H68_37 C104_37 1_555 1_555
C105_37 C103_37 1_555 1_555
C106_37 C96_37 1_555 1_555
C107_37 C109_37 1_555 1_555
C108_37 H69_37 1_555 1_555
C109_37 C108_37 1_555 1_555
C110_37 C109_37 1_555 1_555
H70_37 C110_37 1_555 1_555
C111_37 C110_37 1_555 1_555
H71_37 C111_37 1_555 1_555
C112_37 C111_37 1_555 1_555
H72_37 C112_37 1_555 1_555
N62_22 C95_37 1_555 1_555
N64_12 C100_37 1_555 1_555
N37_37 C105_37 1_555 1_555
N38_37 C105_37 1_555 1_555
N39_37 C106_37 1_555 1_555
C99_37 N62_22 1_555 1_555
C104_37 N64_12 1_555 1_555
C106_37 N38_37 1_555 1_555
C107_37 N37_37 1_555 1_555
C107_37 N39_37 1_555 1_555
C108_37 N69_16 1_555 1_555
C112_37 N69_16 1_555 1_555
C119_29 N43_29 1_555 1_555
Co12_10 N43_29 1_555 1_555
S6_29 C119_29 1_555 1_555
C154_29 N58_29 1_555 1_555
N58_29 Co12_10 1_555 1_555
S10_29 C154_29 1_555 1_555
C95_38 H61_38 1_555 1_555
C96_38 C95_38 1_555 1_555
C97_38 C96_38 1_555 1_555
H62_38 C97_38 1_555 1_555
C98_38 C97_38 1_555 1_555
H63_38 C98_38 1_555 1_555
C99_38 C98_38 1_555 1_555
H64_38 C99_38 1_555 1_555
C100_38 H65_38 1_555 1_555
C101_38 C100_38 1_555 1_555
H66_38 C101_38 1_555 1_555
C102_38 C101_38 1_555 1_555
H67_38 C102_38 1_555 1_555
C103_38 C102_38 1_555 1_555
C104_38 C103_38 1_555 1_555
H68_38 C104_38 1_555 1_555
C105_38 C103_38 1_555 1_555
C106_38 C96_38 1_555 1_555
C107_38 C109_38 1_555 1_555
C108_38 H69_38 1_555 1_555
C109_38 C108_38 1_555 1_555
C110_38 C109_38 1_555 1_555
H70_38 C110_38 1_555 1_555
C111_38 C110_38 1_555 1_555
H71_38 C111_38 1_555 1_555
C112_38 C111_38 1_555 1_555
H72_38 C112_38 1_555 1_555
N62_21 C95_38 1_555 1_555
N64_10 C100_38 1_555 1_555
N37_38 C105_38 1_555 1_555
N38_38 C105_38 1_555 1_555
N39_38 C106_38 1_555 1_555
C119_30 N43_30 1_555 1_555
Co12_9 N43_30 1_555 1_555
S6_30 C119_30 1_555 1_555
C154_30 N58_30 1_555 1_555
N58_30 Co12_9 1_555 1_555
S10_30 C154_30 1_555 1_555
C99_38 N62_21 1_555 1_555
C104_38 N64_10 1_555 1_555
C106_38 N38_38 1_555 1_555
C107_38 N37_38 1_555 1_555
C107_38 N39_38 1_555 1_555
C108_38 N69_14 1_555 1_555
C112_38 N69_14 1_555 1_555
C154_31 N58_31 1_555 1_555
N58_31 Co12_6 1_555 1_555
S10_31 C154_31 1_555 1_555
C119_31 N43_31 1_555 1_555
Co12_7 N43_31 1_555 1_555
S6_31 C119_31 1_555 1_555
C95_39 H61_39 1_555 1_555
C96_39 C95_39 1_555 1_555
C97_39 C96_39 1_555 1_555
H62_39 C97_39 1_555 1_555
C98_39 C97_39 1_555 1_555
H63_39 C98_39 1_555 1_555
C99_39 C98_39 1_555 1_555
H64_39 C99_39 1_555 1_555
C100_39 H65_39 1_555 1_555
C101_39 C100_39 1_555 1_555
H66_39 C101_39 1_555 1_555
C102_39 C101_39 1_555 1_555
H67_39 C102_39 1_555 1_555
C103_39 C102_39 1_555 1_555
C104_39 C103_39 1_555 1_555
H68_39 C104_39 1_555 1_555
C105_39 C103_39 1_555 1_555
C106_39 C96_39 1_555 1_555
C107_39 C109_39 1_555 1_555
C108_39 H69_39 1_555 1_555
C109_39 C108_39 1_555 1_555
C110_39 C109_39 1_555 1_555
H70_39 C110_39 1_555 1_555
C111_39 C110_39 1_555 1_555
H71_39 C111_39 1_555 1_555
C112_39 C111_39 1_555 1_555
H72_39 C112_39 1_555 1_555
N62_24 C95_39 1_555 1_555
N64_11 C100_39 1_555 1_555
N37_39 C105_39 1_555 1_555
N38_39 C105_39 1_555 1_555
N39_39 C106_39 1_555 1_555
C99_39 N62_24 1_555 1_555
C104_39 N64_11 1_555 1_555
C106_39 N38_39 1_555 1_555
C107_39 N37_39 1_555 1_555
C107_39 N39_39 1_555 1_555
C108_39 N69_13 1_555 1_555
C112_39 N69_13 1_555 1_555
C95_40 H61_40 1_555 1_555
C96_40 C95_40 1_555 1_555
C97_40 C96_40 1_555 1_555
H62_40 C97_40 1_555 1_555
C98_40 C97_40 1_555 1_555
H63_40 C98_40 1_555 1_555
C99_40 C98_40 1_555 1_555
H64_40 C99_40 1_555 1_555
C100_40 H65_40 1_555 1_555
C101_40 C100_40 1_555 1_555
H66_40 C101_40 1_555 1_555
C102_40 C101_40 1_555 1_555
H67_40 C102_40 1_555 1_555
C103_40 C102_40 1_555 1_555
C104_40 C103_40 1_555 1_555
H68_40 C104_40 1_555 1_555
C105_40 C103_40 1_555 1_555
C106_40 C96_40 1_555 1_555
C107_40 C109_40 1_555 1_555
C108_40 H69_40 1_555 1_555
C109_40 C108_40 1_555 1_555
C110_40 C109_40 1_555 1_555
H70_40 C110_40 1_555 1_555
C111_40 C110_40 1_555 1_555
H71_40 C111_40 1_555 1_555
C112_40 C111_40 1_555 1_555
H72_40 C112_40 1_555 1_555
N62_23 C95_40 1_555 1_555
N64_9 C100_40 1_555 1_555
N37_40 C105_40 1_555 1_555
N38_40 C105_40 1_555 1_555
N39_40 C106_40 1_555 1_555
C119_32 N43_32 1_555 1_555
Co12_8 N43_32 1_555 1_555
S6_32 C119_32 1_555 1_555
C154_32 N58_32 1_555 1_555
N58_32 Co12_8 1_555 1_555
S10_32 C154_32 1_555 1_555
C99_40 N62_23 1_555 1_555
C104_40 N64_9 1_555 1_555
C106_40 N38_40 1_555 1_555
C107_40 N37_40 1_555 1_555
C107_40 N39_40 1_555 1_555
C108_40 N69_15 1_555 1_555
C112_40 N69_15 1_555 1_555
C76_13 H49_13 1_555 1_555
C77_13 C76_13 1_555 1_555
C78_13 C77_13 1_555 1_555
H50_13 C78_13 1_555 1_555
C79_13 C78_13 1_555 1_555
H51_13 C79_13 1_555 1_555
C80_13 C79_13 1_555 1_555
H52_13 C80_13 1_555 1_555
C81_13 H53_13 1_555 1_555
C82_13 C81_13 1_555 1_555
H54_13 C82_13 1_555 1_555
C83_13 C82_13 1_555 1_555
H55_13 C83_13 1_555 1_555
C84_13 C83_13 1_555 1_555
C85_13 C84_13 1_555 1_555
H56_13 C85_13 1_555 1_555
C86_13 C84_13 1_555 1_555
C87_13 C77_13 1_555 1_555
C88_13 C90_13 1_555 1_555
C89_13 H57_13 1_555 1_555
C90_13 C89_13 1_555 1_555
C91_13 C90_13 1_555 1_555
H58_13 C91_13 1_555 1_555
C92_13 C91_13 1_555 1_555
H59_13 C92_13 1_555 1_555
C93_13 C92_13 1_555 1_555
H60_13 C93_13 1_555 1_555
C94_13 N34_13 1_555 1_555
N62 C76_13 1_555 1_555
N64_17 C81_13 1_555 1_555
N30_13 C86_13 1_555 1_555
N31_13 C86_13 1_555 1_555
N32_13 C87_13 1_555 1_555
N33_13 C89_13 1_555 1_555
N34_13 Co15_4 1_555 1_555
S4_13 C94_13 1_555 1_555
C95_41 H61_41 1_555 1_555
C96_41 C95_41 1_555 1_555
C97_41 C96_41 1_555 1_555
H62_41 C97_41 1_555 1_555
C98_41 C97_41 1_555 1_555
H63_41 C98_41 1_555 1_555
C99_41 C98_41 1_555 1_555
C100_41 H65_41 1_555 1_555
C101_41 C100_41 1_555 1_555
H66_41 C101_41 1_555 1_555
C102_41 C101_41 1_555 1_555
H67_41 C102_41 1_555 1_555
C103_41 C102_41 1_555 1_555
C104_41 C103_41 1_555 1_555
H68_41 C104_41 1_555 1_555
C105_41 C103_41 1_555 1_555
C106_41 C96_41 1_555 1_555
C107_41 C109_41 1_555 1_555
C108_41 H69_41 1_555 1_555
C109_41 C108_41 1_555 1_555
C110_41 C109_41 1_555 1_555
H70_41 C110_41 1_555 1_555
C111_41 C110_41 1_555 1_555
H71_41 C111_41 1_555 1_555
C112_41 C111_41 1_555 1_555
H72_41 C112_41 1_555 1_555
C113_13 N41_13 1_555 1_555
N63_17 C95_41 1_555 1_555
N64_31 C100_41 1_555 1_555
N37_41 C105_41 1_555 1_555
N38_41 C105_41 1_555 1_555
N39_41 C106_41 1_555 1_555
N40_13 Co15_4 1_555 1_555
N41_13 Co15_4 1_555 1_555
S5_13 C113_13 1_555 1_555
C80_13 N62 1_555 1_555
C85_13 N64_17 1_555 1_555
C87_13 N31_13 1_555 1_555
C88_13 N30_13 1_555 1_555
C88_13 N32_13 1_555 1_555
C93_13 N33_13 1_555 1_555
Co15_4 N33_13 1_555 1_555
C99_41 N63_17 1_555 1_555
C104_41 N64_31 1_555 1_555
C106_41 N38_41 1_555 1_555
C107_41 N37_41 1_555 1_555
C107_41 N39_41 1_555 1_555
C108_41 N40_13 1_555 1_555
C112_41 N40_13 1_555 1_555
C76_14 H49_14 1_555 1_555
C77_14 C76_14 1_555 1_555
C78_14 C77_14 1_555 1_555
H50_14 C78_14 1_555 1_555
C79_14 C78_14 1_555 1_555
H51_14 C79_14 1_555 1_555
C80_14 C79_14 1_555 1_555
C81_14 H53_14 1_555 1_555
C82_14 C81_14 1_555 1_555
H54_14 C82_14 1_555 1_555
C83_14 C82_14 1_555 1_555
H55_14 C83_14 1_555 1_555
C84_14 C83_14 1_555 1_555
C85_14 C84_14 1_555 1_555
H56_14 C85_14 1_555 1_555
C86_14 C84_14 1_555 1_555
C87_14 C77_14 1_555 1_555
C88_14 C90_14 1_555 1_555
C89_14 H57_14 1_555 1_555
C90_14 C89_14 1_555 1_555
C91_14 C90_14 1_555 1_555
H58_14 C91_14 1_555 1_555
C92_14 C91_14 1_555 1_555
H59_14 C92_14 1_555 1_555
C93_14 C92_14 1_555 1_555
H60_14 C93_14 1_555 1_555
C94_14 N34_14 1_555 1_555
N62_2 C76_14 1_555 1_555
N64_19 C81_14 1_555 1_555
N30_14 C86_14 1_555 1_555
N31_14 C86_14 1_555 1_555
N32_14 C87_14 1_555 1_555
N33_14 C89_14 1_555 1_555
N34_14 Co15_3 1_555 1_555
S4_14 C94_14 1_555 1_555
C95_42 H61_42 1_555 1_555
C96_42 C95_42 1_555 1_555
C97_42 C96_42 1_555 1_555
H62_42 C97_42 1_555 1_555
C98_42 C97_42 1_555 1_555
H63_42 C98_42 1_555 1_555
C99_42 C98_42 1_555 1_555
H64_42 C99_42 1_555 1_555
C100_42 H65_42 1_555 1_555
C101_42 C100_42 1_555 1_555
H66_42 C101_42 1_555 1_555
C102_42 C101_42 1_555 1_555
H67_42 C102_42 1_555 1_555
C103_42 C102_42 1_555 1_555
C104_42 C103_42 1_555 1_555
H68_42 C104_42 1_555 1_555
C105_42 C103_42 1_555 1_555
C106_42 C96_42 1_555 1_555
C107_42 C109_42 1_555 1_555
C108_42 H69_42 1_555 1_555
C109_42 C108_42 1_555 1_555
C110_42 C109_42 1_555 1_555
H70_42 C110_42 1_555 1_555
C111_42 C110_42 1_555 1_555
H71_42 C111_42 1_555 1_555
C112_42 C111_42 1_555 1_555
H72_42 C112_42 1_555 1_555
C113_14 N41_14 1_555 1_555
N63_19 C95_42 1_555 1_555
N64_29 C100_42 1_555 1_555
N37_42 C105_42 1_555 1_555
N38_42 C105_42 1_555 1_555
N39_42 C106_42 1_555 1_555
N40_14 Co15_3 1_555 1_555
N41_14 Co15_3 1_555 1_555
S5_14 C113_14 1_555 1_555
C80_14 N62_2 1_555 1_555
C85_14 N64_19 1_555 1_555
C87_14 N31_14 1_555 1_555
C88_14 N30_14 1_555 1_555
C88_14 N32_14 1_555 1_555
C93_14 N33_14 1_555 1_555
Co15_3 N33_14 1_555 1_555
C99_42 N63_19 1_555 1_555
C104_42 N64_29 1_555 1_555
C106_42 N38_42 1_555 1_555
C107_42 N37_42 1_555 1_555
C107_42 N39_42 1_555 1_555
C108_42 N40_14 1_555 1_555
C112_42 N40_14 1_555 1_555
C76_15 H49_15 1_555 1_555
C77_15 C76_15 1_555 1_555
C78_15 C77_15 1_555 1_555
H50_15 C78_15 1_555 1_555
C79_15 C78_15 1_555 1_555
H51_15 C79_15 1_555 1_555
C80_15 C79_15 1_555 1_555
H52_15 C80_15 1_555 1_555
C81_15 H53_15 1_555 1_555
C82_15 C81_15 1_555 1_555
H54_15 C82_15 1_555 1_555
C83_15 C82_15 1_555 1_555
H55_15 C83_15 1_555 1_555
C84_15 C83_15 1_555 1_555
C85_15 C84_15 1_555 1_555
H56_15 C85_15 1_555 1_555
C86_15 C84_15 1_555 1_555
C87_15 C77_15 1_555 1_555
C88_15 C90_15 1_555 1_555
C89_15 H57_15 1_555 1_555
C90_15 C89_15 1_555 1_555
C91_15 C90_15 1_555 1_555
H58_15 C91_15 1_555 1_555
C92_15 C91_15 1_555 1_555
H59_15 C92_15 1_555 1_555
C93_15 C92_15 1_555 1_555
H60_15 C93_15 1_555 1_555
C94_15 N34_15 1_555 1_555
N62_3 C76_15 1_555 1_555
N64_18 C81_15 1_555 1_555
N30_15 C86_15 1_555 1_555
N31_15 C86_15 1_555 1_555
N32_15 C87_15 1_555 1_555
N33_15 C89_15 1_555 1_555
N34_15 Co15_2 1_555 1_555
S4_15 C94_15 1_555 1_555
C95_43 H61_43 1_555 1_555
C96_43 C95_43 1_555 1_555
C97_43 C96_43 1_555 1_555
H62_43 C97_43 1_555 1_555
C98_43 C97_43 1_555 1_555
H63_43 C98_43 1_555 1_555
C99_43 C98_43 1_555 1_555
H64_43 C99_43 1_555 1_555
C100_43 H65_43 1_555 1_555
C101_43 C100_43 1_555 1_555
H66_43 C101_43 1_555 1_555
C102_43 C101_43 1_555 1_555
H67_43 C102_43 1_555 1_555
C103_43 C102_43 1_555 1_555
C104_43 C103_43 1_555 1_555
H68_43 C104_43 1_555 1_555
C105_43 C103_43 1_555 1_555
C106_43 C96_43 1_555 1_555
C107_43 C109_43 1_555 1_555
C108_43 H69_43 1_555 1_555
C109_43 C108_43 1_555 1_555
C110_43 C109_43 1_555 1_555
H70_43 C110_43 1_555 1_555
C111_43 C110_43 1_555 1_555
H71_43 C111_43 1_555 1_555
C112_43 C111_43 1_555 1_555
H72_43 C112_43 1_555 1_555
C113_15 N41_15 1_555 1_555
N63_18 C95_43 1_555 1_555
N64_32 C100_43 1_555 1_555
N37_43 C105_43 1_555 1_555
N38_43 C105_43 1_555 1_555
N39_43 C106_43 1_555 1_555
N40_15 Co15_2 1_555 1_555
N41_15 Co15_2 1_555 1_555
S5_15 C113_15 1_555 1_555
C80_15 N62_3 1_555 1_555
C85_15 N64_18 1_555 1_555
C87_15 N31_15 1_555 1_555
C88_15 N30_15 1_555 1_555
C88_15 N32_15 1_555 1_555
C93_15 N33_15 1_555 1_555
Co15_2 N33_15 1_555 1_555
C99_43 N63_18 1_555 1_555
C104_43 N64_32 1_555 1_555
C106_43 N38_43 1_555 1_555
C107_43 N37_43 1_555 1_555
C107_43 N39_43 1_555 1_555
C108_43 N40_15 1_555 1_555
C112_43 N40_15 1_555 1_555
S4_16 C94_16 1_555 1_555
S5_16 C113_16 1_555 1_555
C76_16 H49_16 1_555 1_555
C77_16 C76_16 1_555 1_555
C78_16 C77_16 1_555 1_555
H50_16 C78_16 1_555 1_555
C79_16 C78_16 1_555 1_555
H51_16 C79_16 1_555 1_555
C80_16 C79_16 1_555 1_555
H52_16 C80_16 1_555 1_555
C81_16 H53_16 1_555 1_555
C82_16 C81_16 1_555 1_555
H54_16 C82_16 1_555 1_555
C83_16 C82_16 1_555 1_555
H55_16 C83_16 1_555 1_555
C84_16 C83_16 1_555 1_555
C85_16 C84_16 1_555 1_555
H56_16 C85_16 1_555 1_555
C86_16 C84_16 1_555 1_555
C87_16 C77_16 1_555 1_555
C88_16 C90_16 1_555 1_555
C89_16 H57_16 1_555 1_555
C90_16 C89_16 1_555 1_555
C91_16 C90_16 1_555 1_555
H58_16 C91_16 1_555 1_555
C92_16 C91_16 1_555 1_555
H59_16 C92_16 1_555 1_555
C93_16 C92_16 1_555 1_555
H60_16 C93_16 1_555 1_555
N62_4 C76_16 1_555 1_555
N64_20 C81_16 1_555 1_555
N30_16 C86_16 1_555 1_555
N31_16 C86_16 1_555 1_555
N32_16 C87_16 1_555 1_555
N33_16 C89_16 1_555 1_555
N34_16 Co15 1_555 1_555
C95_44 H61_44 1_555 1_555
C96_44 C95_44 1_555 1_555
C97_44 C96_44 1_555 1_555
H62_44 C97_44 1_555 1_555
C98_44 C97_44 1_555 1_555
H63_44 C98_44 1_555 1_555
C99_44 C98_44 1_555 1_555
H64_44 C99_44 1_555 1_555
C100_44 H65_44 1_555 1_555
C101_44 C100_44 1_555 1_555
H66_44 C101_44 1_555 1_555
C102_44 C101_44 1_555 1_555
H67_44 C102_44 1_555 1_555
C103_44 C102_44 1_555 1_555
C104_44 C103_44 1_555 1_555
H68_44 C104_44 1_555 1_555
C105_44 C103_44 1_555 1_555
C106_44 C96_44 1_555 1_555
C107_44 C109_44 1_555 1_555
C108_44 H69_44 1_555 1_555
C109_44 C108_44 1_555 1_555
C110_44 C109_44 1_555 1_555
H70_44 C110_44 1_555 1_555
C111_44 C110_44 1_555 1_555
H71_44 C111_44 1_555 1_555
C112_44 C111_44 1_555 1_555
H72_44 C112_44 1_555 1_555
N63_20 C95_44 1_555 1_555
N64_30 C100_44 1_555 1_555
N37_44 C105_44 1_555 1_555
N38_44 C105_44 1_555 1_555
N39_44 C106_44 1_555 1_555
N40_16 Co15 1_555 1_555
N41_16 Co15 1_555 1_555
C80_16 N62_4 1_555 1_555
C85_16 N64_20 1_555 1_555
C87_16 N31_16 1_555 1_555
C88_16 N30_16 1_555 1_555
C88_16 N32_16 1_555 1_555
C93_16 N33_16 1_555 1_555
Co15 N33_16 1_555 1_555
C99_44 N63_20 1_555 1_555
C104_44 N64_30 1_555 1_555
C106_44 N38_44 1_555 1_555
C107_44 N37_44 1_555 1_555
C107_44 N39_44 1_555 1_555
C108_44 N40_16 1_555 1_555
C112_44 N40_16 1_555 1_555
C6_41 N2_41 1_555 1_555
Co9_19 N2_41 1_555 1_555
S1_41 C6_41 1_555 1_555
C114_41 H73_41 1_555 1_555
C115_41 C114_41 1_555 1_555
C116_41 C115_41 1_555 1_555
H74_41 C116_41 1_555 1_555
C117_41 C116_41 1_555 1_555
H75_41 C117_41 1_555 1_555
C118_41 C117_41 1_555 1_555
H76_41 C118_41 1_555 1_555
C120_41 H77_41 1_555 1_555
C121_41 C120_41 1_555 1_555
H78_41 C121_41 1_555 1_555
C122_41 C121_41 1_555 1_555
H79_41 C122_41 1_555 1_555
C123_41 C122_41 1_555 1_555
C124_41 C123_41 1_555 1_555
H80_41 C124_41 1_555 1_555
C125_41 C123_41 1_555 1_555
C126_41 C115_41 1_555 1_555
C127_41 C129_41 1_555 1_555
C128_41 H81_41 1_555 1_555
C129_41 C128_41 1_555 1_555
C130_41 C129_41 1_555 1_555
H82_41 C130_41 1_555 1_555
C131_41 C130_41 1_555 1_555
H83_41 C131_41 1_555 1_555
C132_41 C131_41 1_555 1_555
H84_41 C132_41 1_555 1_555
N42_41 Co9_19 1_555 1_555
N66_14 C120_41 1_555 1_555
N45_41 C125_41 1_555 1_555
N46_41 C125_41 1_555 1_555
N47_41 C126_41 1_555 1_555
N48_41 C128_41 1_555 1_555
C133_41 H85_41 1_555 1_555
C134_41 C133_41 1_555 1_555
C135_41 C134_41 1_555 1_555
H86_41 C135_41 1_555 1_555
C136_41 C135_41 1_555 1_555
H87_41 C136_41 1_555 1_555
C137_41 C136_41 1_555 1_555
H88_41 C137_41 1_555 1_555
C138_41 H89_41 1_555 1_555
C139_41 C138_41 1_555 1_555
H90_41 C139_41 1_555 1_555
C140_41 C139_41 1_555 1_555
H91_41 C140_41 1_555 1_555
C141_41 C140_41 1_555 1_555
C142_41 C141_41 1_555 1_555
H92_41 C142_41 1_555 1_555
C143_41 C141_41 1_555 1_555
C144_41 C134_41 1_555 1_555
C145_41 C147_41 1_555 1_555
C146_41 H93_41 1_555 1_555
C147_41 C146_41 1_555 1_555
C148_41 C147_41 1_555 1_555
H94_41 C148_41 1_555 1_555
C149_41 C148_41 1_555 1_555
H95_41 C149_41 1_555 1_555
C150_41 C149_41 1_555 1_555
H96_41 C150_41 1_555 1_555
N49_41 Co9_19 1_555 1_555
N66_11 C138_41 1_555 1_555
N51_41 C143_41 1_555 1_555
N52_41 C143_41 1_555 1_555
N53_41 C144_41 1_555 1_555
N54_41 C146_41 1_555 1_555
C151_41 N55_41 1_555 1_555
N55_41 Co9_19 1_555 1_555
S7_41 C151_41 1_555 1_555
Co16_7 N48_41 1_555 1_555
Co16_21 N54_41 1_555 1_555
C114_41 N42_41 1_555 1_555
C118_41 N42_41 1_555 1_555
C124_41 N66_14 1_555 1_555
C126_41 N46_41 1_555 1_555
C127_41 N45_41 1_555 1_555
C127_41 N47_41 1_555 1_555
C132_41 N48_41 1_555 1_555
C133_41 N49_41 1_555 1_555
C137_41 N49_41 1_555 1_555
C142_41 N66_11 1_555 1_555
C144_41 N52_41 1_555 1_555
C145_41 N51_41 1_555 1_555
C145_41 N53_41 1_555 1_555
C150_41 N54_41 1_555 1_555
C133_42 H85_42 1_555 1_555
C134_42 C133_42 1_555 1_555
C135_42 C134_42 1_555 1_555
H86_42 C135_42 1_555 1_555
C136_42 C135_42 1_555 1_555
H87_42 C136_42 1_555 1_555
C137_42 C136_42 1_555 1_555
C138_42 H89_42 1_555 1_555
C139_42 C138_42 1_555 1_555
H90_42 C139_42 1_555 1_555
C140_42 C139_42 1_555 1_555
H91_42 C140_42 1_555 1_555
C141_42 C140_42 1_555 1_555
C142_42 C141_42 1_555 1_555
H92_42 C142_42 1_555 1_555
C143_42 C141_42 1_555 1_555
C144_42 C134_42 1_555 1_555
C145_42 C147_42 1_555 1_555
C146_42 H93_42 1_555 1_555
C147_42 C146_42 1_555 1_555
C148_42 C147_42 1_555 1_555
H94_42 C148_42 1_555 1_555
C149_42 C148_42 1_555 1_555
H95_42 C149_42 1_555 1_555
C150_42 C149_42 1_555 1_555
H96_42 C150_42 1_555 1_555
N49_42 Co9_16 1_555 1_555
N66_9 C138_42 1_555 1_555
N51_42 C143_42 1_555 1_555
N52_42 C143_42 1_555 1_555
N53_42 C144_42 1_555 1_555
N54_42 C146_42 1_555 1_555
C151_42 N55_42 1_555 1_555
N55_42 Co9_16 1_555 1_555
S7_42 C151_42 1_555 1_555
Co16_22 N54_42 1_555 1_555
C133_42 N49_42 1_555 1_555
C137_42 N49_42 1_555 1_555
C142_42 N66_9 1_555 1_555
C144_42 N52_42 1_555 1_555
C145_42 N51_42 1_555 1_555
C145_42 N53_42 1_555 1_555
C150_42 N54_42 1_555 1_555
C6_42 N2_42 1_555 1_555
Co9_17 N2_42 1_555 1_555
S1_42 C6_42 1_555 1_555
C114_42 H73_42 1_555 1_555
C115_42 C114_42 1_555 1_555
C116_42 C115_42 1_555 1_555
H74_42 C116_42 1_555 1_555
C117_42 C116_42 1_555 1_555
H75_42 C117_42 1_555 1_555
C118_42 C117_42 1_555 1_555
C120_42 H77_42 1_555 1_555
C121_42 C120_42 1_555 1_555
H78_42 C121_42 1_555 1_555
C122_42 C121_42 1_555 1_555
H79_42 C122_42 1_555 1_555
C123_42 C122_42 1_555 1_555
C124_42 C123_42 1_555 1_555
H80_42 C124_42 1_555 1_555
C125_42 C123_42 1_555 1_555
C126_42 C115_42 1_555 1_555
C127_42 C129_42 1_555 1_555
C128_42 H81_42 1_555 1_555
C129_42 C128_42 1_555 1_555
C130_42 C129_42 1_555 1_555
H82_42 C130_42 1_555 1_555
C131_42 C130_42 1_555 1_555
H83_42 C131_42 1_555 1_555
C132_42 C131_42 1_555 1_555
H84_42 C132_42 1_555 1_555
N42_42 Co9_17 1_555 1_555
N66_16 C120_42 1_555 1_555
N45_42 C125_42 1_555 1_555
N46_42 C125_42 1_555 1_555
N47_42 C126_42 1_555 1_555
N48_42 C128_42 1_555 1_555
Co16_8 N48_42 1_555 1_555
C114_42 N42_42 1_555 1_555
C118_42 N42_42 1_555 1_555
C124_42 N66_16 1_555 1_555
C126_42 N46_42 1_555 1_555
C127_42 N45_42 1_555 1_555
C127_42 N47_42 1_555 1_555
C132_42 N48_42 1_555 1_555
C6_43 N2_43 1_555 1_555
Co9_18 N2_43 1_555 1_555
S1_43 C6_43 1_555 1_555
C114_43 H73_43 1_555 1_555
C115_43 C114_43 1_555 1_555
C116_43 C115_43 1_555 1_555
H74_43 C116_43 1_555 1_555
C117_43 C116_43 1_555 1_555
H75_43 C117_43 1_555 1_555
C118_43 C117_43 1_555 1_555
H76_43 C118_43 1_555 1_555
C120_43 H77_43 1_555 1_555
C121_43 C120_43 1_555 1_555
H78_43 C121_43 1_555 1_555
C122_43 C121_43 1_555 1_555
H79_43 C122_43 1_555 1_555
C123_43 C122_43 1_555 1_555
C124_43 C123_43 1_555 1_555
H80_43 C124_43 1_555 1_555
C125_43 C123_43 1_555 1_555
C126_43 C115_43 1_555 1_555
C127_43 C129_43 1_555 1_555
C128_43 H81_43 1_555 1_555
C129_43 C128_43 1_555 1_555
C130_43 C129_43 1_555 1_555
H82_43 C130_43 1_555 1_555
C131_43 C130_43 1_555 1_555
H83_43 C131_43 1_555 1_555
C132_43 C131_43 1_555 1_555
H84_43 C132_43 1_555 1_555
N42_43 Co9_18 1_555 1_555
N66_13 C120_43 1_555 1_555
N45_43 C125_43 1_555 1_555
N46_43 C125_43 1_555 1_555
N47_43 C126_43 1_555 1_555
N48_43 C128_43 1_555 1_555
C133_43 H85_43 1_555 1_555
C134_43 C133_43 1_555 1_555
C135_43 C134_43 1_555 1_555
H86_43 C135_43 1_555 1_555
C136_43 C135_43 1_555 1_555
H87_43 C136_43 1_555 1_555
C137_43 C136_43 1_555 1_555
H88_43 C137_43 1_555 1_555
C138_43 H89_43 1_555 1_555
C139_43 C138_43 1_555 1_555
H90_43 C139_43 1_555 1_555
C140_43 C139_43 1_555 1_555
H91_43 C140_43 1_555 1_555
C141_43 C140_43 1_555 1_555
C142_43 C141_43 1_555 1_555
H92_43 C142_43 1_555 1_555
C143_43 C141_43 1_555 1_555
C144_43 C134_43 1_555 1_555
C145_43 C147_43 1_555 1_555
C146_43 H93_43 1_555 1_555
C147_43 C146_43 1_555 1_555
C148_43 C147_43 1_555 1_555
H94_43 C148_43 1_555 1_555
C149_43 C148_43 1_555 1_555
H95_43 C149_43 1_555 1_555
C150_43 C149_43 1_555 1_555
H96_43 C150_43 1_555 1_555
N49_43 Co9_18 1_555 1_555
N66_10 C138_43 1_555 1_555
N51_43 C143_43 1_555 1_555
N52_43 C143_43 1_555 1_555
N53_43 C144_43 1_555 1_555
N54_43 C146_43 1_555 1_555
C151_43 N55_43 1_555 1_555
N55_43 Co9_18 1_555 1_555
S7_43 C151_43 1_555 1_555
Co16_5 N48_43 1_555 1_555
Co16_24 N54_43 1_555 1_555
C114_43 N42_43 1_555 1_555
C118_43 N42_43 1_555 1_555
C124_43 N66_13 1_555 1_555
C126_43 N46_43 1_555 1_555
C127_43 N45_43 1_555 1_555
C127_43 N47_43 1_555 1_555
C132_43 N48_43 1_555 1_555
C133_43 N49_43 1_555 1_555
C137_43 N49_43 1_555 1_555
C142_43 N66_10 1_555 1_555
C144_43 N52_43 1_555 1_555
C145_43 N51_43 1_555 1_555
C145_43 N53_43 1_555 1_555
C150_43 N54_43 1_555 1_555
C6_44 N2_44 1_555 1_555
Co9_20 N2_44 1_555 1_555
S1_44 C6_44 1_555 1_555
C114_44 H73_44 1_555 1_555
C115_44 C114_44 1_555 1_555
C116_44 C115_44 1_555 1_555
H74_44 C116_44 1_555 1_555
C117_44 C116_44 1_555 1_555
H75_44 C117_44 1_555 1_555
C118_44 C117_44 1_555 1_555
H76_44 C118_44 1_555 1_555
C120_44 H77_44 1_555 1_555
C121_44 C120_44 1_555 1_555
H78_44 C121_44 1_555 1_555
C122_44 C121_44 1_555 1_555
H79_44 C122_44 1_555 1_555
C123_44 C122_44 1_555 1_555
C124_44 C123_44 1_555 1_555
H80_44 C124_44 1_555 1_555
C125_44 C123_44 1_555 1_555
C126_44 C115_44 1_555 1_555
C127_44 C129_44 1_555 1_555
C128_44 H81_44 1_555 1_555
C129_44 C128_44 1_555 1_555
C130_44 C129_44 1_555 1_555
H82_44 C130_44 1_555 1_555
C131_44 C130_44 1_555 1_555
H83_44 C131_44 1_555 1_555
C132_44 C131_44 1_555 1_555
H84_44 C132_44 1_555 1_555
N42_44 Co9_20 1_555 1_555
N66_15 C120_44 1_555 1_555
N45_44 C125_44 1_555 1_555
N46_44 C125_44 1_555 1_555
N47_44 C126_44 1_555 1_555
N48_44 C128_44 1_555 1_555
C133_44 H85_44 1_555 1_555
C134_44 C133_44 1_555 1_555
C135_44 C134_44 1_555 1_555
H86_44 C135_44 1_555 1_555
C136_44 C135_44 1_555 1_555
H87_44 C136_44 1_555 1_555
C137_44 C136_44 1_555 1_555
H88_44 C137_44 1_555 1_555
C138_44 H89_44 1_555 1_555
C139_44 C138_44 1_555 1_555
H90_44 C139_44 1_555 1_555
C140_44 C139_44 1_555 1_555
H91_44 C140_44 1_555 1_555
C141_44 C140_44 1_555 1_555
C142_44 C141_44 1_555 1_555
H92_44 C142_44 1_555 1_555
C143_44 C141_44 1_555 1_555
C144_44 C134_44 1_555 1_555
C145_44 C147_44 1_555 1_555
C146_44 H93_44 1_555 1_555
C147_44 C146_44 1_555 1_555
C148_44 C147_44 1_555 1_555
H94_44 C148_44 1_555 1_555
C149_44 C148_44 1_555 1_555
H95_44 C149_44 1_555 1_555
C150_44 C149_44 1_555 1_555
H96_44 C150_44 1_555 1_555
N49_44 Co9_20 1_555 1_555
N66_12 C138_44 1_555 1_555
N51_44 C143_44 1_555 1_555
N52_44 C143_44 1_555 1_555
N53_44 C144_44 1_555 1_555
N54_44 C146_44 1_555 1_555
C151_44 N55_44 1_555 1_555
N55_44 Co9_20 1_555 1_555
S7_44 C151_44 1_555 1_555
Co16_6 N48_44 1_555 1_555
Co16_23 N54_44 1_555 1_555
C114_44 N42_44 1_555 1_555
C118_44 N42_44 1_555 1_555
C124_44 N66_15 1_555 1_555
C126_44 N46_44 1_555 1_555
C127_44 N45_44 1_555 1_555
C127_44 N47_44 1_555 1_555
C132_44 N48_44 1_555 1_555
C133_44 N49_44 1_555 1_555
C137_44 N49_44 1_555 1_555
C142_44 N66_12 1_555 1_555
C144_44 N52_44 1_555 1_555
C145_44 N51_44 1_555 1_555
C145_44 N53_44 1_555 1_555
C150_44 N54_44 1_555 1_555
C1_13 H1_13 1_555 1_555
C2_13 C1_13 1_555 1_555
C3_13 C2_13 1_555 1_555
H2_13 C3_13 1_555 1_555
C4_13 C3_13 1_555 1_555
H3_13 C4_13 1_555 1_555
C5_13 C4_13 1_555 1_555
H4_13 C5_13 1_555 1_555
C7_13 H5_13 1_555 1_555
C8_13 C7_13 1_555 1_555
H6_13 C8_13 1_555 1_555
C9_13 C8_13 1_555 1_555
H7_13 C9_13 1_555 1_555
C10_13 C9_13 1_555 1_555
C11_13 C10_13 1_555 1_555
H8_13 C11_13 1_555 1_555
C12_13 C10_13 1_555 1_555
C13_13 C2_13 1_555 1_555
C14_13 C16_13 1_555 1_555
C15_13 H9_13 1_555 1_555
C16_13 C15_13 1_555 1_555
C17_13 C16_13 1_555 1_555
H10_13 C17_13 1_555 1_555
C18_13 C17_13 1_555 1_555
H11_13 C18_13 1_555 1_555
C19_13 C18_13 1_555 1_555
H12_13 C19_13 1_555 1_555
C20_13 N8_13 1_555 1_555
Co15_14 N7_13 1_555 1_555
N63_3 C1_13 1_555 1_555
N64_25 C7_13 1_555 1_555
N4_13 C12_13 1_555 1_555
N5_13 C12_13 1_555 1_555
N6_13 C13_13 1_555 1_555
N7_13 C15_13 1_555 1_555
N8_13 Co15_14 1_555 1_555
S2_13 C20_13 1_555 1_555
C152_13 N56_13 1_555 1_555
N56_13 Co15_14 1_555 1_555
S8_13 C152_13 1_555 1_555
N68_13 Co15_14 1_555 1_555
C5_13 N63_3 1_555 1_555
C11_13 N64_25 1_555 1_555
C13_13 N5_13 1_555 1_555
C14_13 N4_13 1_555 1_555
C14_13 N6_13 1_555 1_555
C19_13 N7_13 1_555 1_555
C1_14 H1_14 1_555 1_555
C2_14 C1_14 1_555 1_555
C3_14 C2_14 1_555 1_555
H2_14 C3_14 1_555 1_555
C4_14 C3_14 1_555 1_555
H3_14 C4_14 1_555 1_555
C5_14 C4_14 1_555 1_555
H4_14 C5_14 1_555 1_555
C7_14 H5_14 1_555 1_555
C8_14 C7_14 1_555 1_555
H6_14 C8_14 1_555 1_555
C9_14 C8_14 1_555 1_555
H7_14 C9_14 1_555 1_555
C10_14 C9_14 1_555 1_555
C11_14 C10_14 1_555 1_555
H8_14 C11_14 1_555 1_555
C12_14 C10_14 1_555 1_555
C13_14 C2_14 1_555 1_555
C14_14 C16_14 1_555 1_555
C15_14 H9_14 1_555 1_555
C16_14 C15_14 1_555 1_555
C17_14 C16_14 1_555 1_555
H10_14 C17_14 1_555 1_555
C18_14 C17_14 1_555 1_555
H11_14 C18_14 1_555 1_555
C19_14 C18_14 1_555 1_555
H12_14 C19_14 1_555 1_555
Co15_16 N7_14 1_555 1_555
N63_4 C1_14 1_555 1_555
N64_26 C7_14 1_555 1_555
N4_14 C12_14 1_555 1_555
N5_14 C12_14 1_555 1_555
N6_14 C13_14 1_555 1_555
N7_14 C15_14 1_555 1_555
N8_14 Co15_16 1_555 1_555
N56_14 Co15_16 1_555 1_555
N68_14 Co15_16 1_555 1_555
C5_14 N63_4 1_555 1_555
C11_14 N64_26 1_555 1_555
C13_14 N5_14 1_555 1_555
C14_14 N4_14 1_555 1_555
C14_14 N6_14 1_555 1_555
C19_14 N7_14 1_555 1_555
S2_14 C20_14 1_555 1_555
S8_14 C152_14 1_555 1_555
C1_15 H1_15 1_555 1_555
C2_15 C1_15 1_555 1_555
C3_15 C2_15 1_555 1_555
H2_15 C3_15 1_555 1_555
C4_15 C3_15 1_555 1_555
H3_15 C4_15 1_555 1_555
C5_15 C4_15 1_555 1_555
C7_15 H5_15 1_555 1_555
C8_15 C7_15 1_555 1_555
H6_15 C8_15 1_555 1_555
C9_15 C8_15 1_555 1_555
H7_15 C9_15 1_555 1_555
C10_15 C9_15 1_555 1_555
C11_15 C10_15 1_555 1_555
H8_15 C11_15 1_555 1_555
C12_15 C10_15 1_555 1_555
C13_15 C2_15 1_555 1_555
C14_15 C16_15 1_555 1_555
C15_15 H9_15 1_555 1_555
C16_15 C15_15 1_555 1_555
C17_15 C16_15 1_555 1_555
H10_15 C17_15 1_555 1_555
C18_15 C17_15 1_555 1_555
H11_15 C18_15 1_555 1_555
C19_15 C18_15 1_555 1_555
H12_15 C19_15 1_555 1_555
C20_15 N8_15 1_555 1_555
Co15_15 N7_15 1_555 1_555
N63_2 C1_15 1_555 1_555
N64_28 C7_15 1_555 1_555
N4_15 C12_15 1_555 1_555
N5_15 C12_15 1_555 1_555
N6_15 C13_15 1_555 1_555
N7_15 C15_15 1_555 1_555
N8_15 Co15_15 1_555 1_555
S2_15 C20_15 1_555 1_555
C152_15 N56_15 1_555 1_555
N56_15 Co15_15 1_555 1_555
S8_15 C152_15 1_555 1_555
N68_15 Co15_15 1_555 1_555
C5_15 N63_2 1_555 1_555
C11_15 N64_28 1_555 1_555
C13_15 N5_15 1_555 1_555
C14_15 N4_15 1_555 1_555
C14_15 N6_15 1_555 1_555
C19_15 N7_15 1_555 1_555
C1_16 H1_16 1_555 1_555
C2_16 C1_16 1_555 1_555
C3_16 C2_16 1_555 1_555
H2_16 C3_16 1_555 1_555
C4_16 C3_16 1_555 1_555
H3_16 C4_16 1_555 1_555
C5_16 C4_16 1_555 1_555
H4_16 C5_16 1_555 1_555
C7_16 H5_16 1_555 1_555
C8_16 C7_16 1_555 1_555
H6_16 C8_16 1_555 1_555
C9_16 C8_16 1_555 1_555
H7_16 C9_16 1_555 1_555
C10_16 C9_16 1_555 1_555
C11_16 C10_16 1_555 1_555
H8_16 C11_16 1_555 1_555
C12_16 C10_16 1_555 1_555
C13_16 C2_16 1_555 1_555
C14_16 C16_16 1_555 1_555
C15_16 H9_16 1_555 1_555
C16_16 C15_16 1_555 1_555
C17_16 C16_16 1_555 1_555
H10_16 C17_16 1_555 1_555
C18_16 C17_16 1_555 1_555
H11_16 C18_16 1_555 1_555
C19_16 C18_16 1_555 1_555
H12_16 C19_16 1_555 1_555
C20_16 N8_16 1_555 1_555
Co15_13 N7_16 1_555 1_555
N63 C1_16 1_555 1_555
N64_27 C7_16 1_555 1_555
N4_16 C12_16 1_555 1_555
N5_16 C12_16 1_555 1_555
N6_16 C13_16 1_555 1_555
N7_16 C15_16 1_555 1_555
N8_16 Co15_13 1_555 1_555
S2_16 C20_16 1_555 1_555
C152_16 N56_16 1_555 1_555
N56_16 Co15_13 1_555 1_555
S8_16 C152_16 1_555 1_555
N68_16 Co15_13 1_555 1_555
C5_16 N63 1_555 1_555
C11_16 N64_27 1_555 1_555
C13_16 N5_16 1_555 1_555
C14_16 N4_16 1_555 1_555
C14_16 N6_16 1_555 1_555
C19_16 N7_16 1_555 1_555
C95_45 H61_45 1_555 1_555
C96_45 C95_45 1_555 1_555
C97_45 C96_45 1_555 1_555
H62_45 C97_45 1_555 1_555
C98_45 C97_45 1_555 1_555
H63_45 C98_45 1_555 1_555
C99_45 C98_45 1_555 1_555
H64_45 C99_45 1_555 1_555
C100_45 H65_45 1_555 1_555
C101_45 C100_45 1_555 1_555
H66_45 C101_45 1_555 1_555
C102_45 C101_45 1_555 1_555
H67_45 C102_45 1_555 1_555
C103_45 C102_45 1_555 1_555
C104_45 C103_45 1_555 1_555
H68_45 C104_45 1_555 1_555
C105_45 C103_45 1_555 1_555
C106_45 C96_45 1_555 1_555
C107_45 C109_45 1_555 1_555
C108_45 H69_45 1_555 1_555
C109_45 C108_45 1_555 1_555
C110_45 C109_45 1_555 1_555
H70_45 C110_45 1_555 1_555
C111_45 C110_45 1_555 1_555
H71_45 C111_45 1_555 1_555
C112_45 C111_45 1_555 1_555
H72_45 C112_45 1_555 1_555
N62_18 C95_45 1_555 1_555
N64_2 C100_45 1_555 1_555
N37_45 C105_45 1_555 1_555
N38_45 C105_45 1_555 1_555
N39_45 C106_45 1_555 1_555
C99_45 N62_18 1_555 1_555
C104_45 N64_2 1_555 1_555
C106_45 N38_45 1_555 1_555
C107_45 N37_45 1_555 1_555
C107_45 N39_45 1_555 1_555
C108_45 N68_15 1_555 1_555
C112_45 N68_15 1_555 1_555
C95_46 H61_46 1_555 1_555
C96_46 C95_46 1_555 1_555
C97_46 C96_46 1_555 1_555
H62_46 C97_46 1_555 1_555
C98_46 C97_46 1_555 1_555
H63_46 C98_46 1_555 1_555
C99_46 C98_46 1_555 1_555
C100_46 H65_46 1_555 1_555
C101_46 C100_46 1_555 1_555
H66_46 C101_46 1_555 1_555
C102_46 C101_46 1_555 1_555
H67_46 C102_46 1_555 1_555
C103_46 C102_46 1_555 1_555
C104_46 C103_46 1_555 1_555
H68_46 C104_46 1_555 1_555
C105_46 C103_46 1_555 1_555
C106_46 C96_46 1_555 1_555
C107_46 C109_46 1_555 1_555
C108_46 H69_46 1_555 1_555
C109_46 C108_46 1_555 1_555
C110_46 C109_46 1_555 1_555
H70_46 C110_46 1_555 1_555
C111_46 C110_46 1_555 1_555
H71_46 C111_46 1_555 1_555
C112_46 C111_46 1_555 1_555
H72_46 C112_46 1_555 1_555
N62_17 C95_46 1_555 1_555
N64_4 C100_46 1_555 1_555
N37_46 C105_46 1_555 1_555
N38_46 C105_46 1_555 1_555
N39_46 C106_46 1_555 1_555
C99_46 N62_17 1_555 1_555
C104_46 N64_4 1_555 1_555
C106_46 N38_46 1_555 1_555
C107_46 N37_46 1_555 1_555
C107_46 N39_46 1_555 1_555
C108_46 N68_14 1_555 1_555
C112_46 N68_14 1_555 1_555
C95_47 H61_47 1_555 1_555
C96_47 C95_47 1_555 1_555
C97_47 C96_47 1_555 1_555
H62_47 C97_47 1_555 1_555
C98_47 C97_47 1_555 1_555
H63_47 C98_47 1_555 1_555
C99_47 C98_47 1_555 1_555
H64_47 C99_47 1_555 1_555
C100_47 H65_47 1_555 1_555
C101_47 C100_47 1_555 1_555
H66_47 C101_47 1_555 1_555
C102_47 C101_47 1_555 1_555
H67_47 C102_47 1_555 1_555
C103_47 C102_47 1_555 1_555
C104_47 C103_47 1_555 1_555
H68_47 C104_47 1_555 1_555
C105_47 C103_47 1_555 1_555
C106_47 C96_47 1_555 1_555
C107_47 C109_47 1_555 1_555
C108_47 H69_47 1_555 1_555
C109_47 C108_47 1_555 1_555
C110_47 C109_47 1_555 1_555
H70_47 C110_47 1_555 1_555
C111_47 C110_47 1_555 1_555
H71_47 C111_47 1_555 1_555
C112_47 C111_47 1_555 1_555
H72_47 C112_47 1_555 1_555
N62_20 C95_47 1_555 1_555
N64 C100_47 1_555 1_555
N37_47 C105_47 1_555 1_555
N38_47 C105_47 1_555 1_555
N39_47 C106_47 1_555 1_555
C99_47 N62_20 1_555 1_555
C104_47 N64 1_555 1_555
C106_47 N38_47 1_555 1_555
C107_47 N37_47 1_555 1_555
C107_47 N39_47 1_555 1_555
C108_47 N68_16 1_555 1_555
C112_47 N68_16 1_555 1_555
C95_48 H61_48 1_555 1_555
C96_48 C95_48 1_555 1_555
C97_48 C96_48 1_555 1_555
H62_48 C97_48 1_555 1_555
C98_48 C97_48 1_555 1_555
H63_48 C98_48 1_555 1_555
C99_48 C98_48 1_555 1_555
H64_48 C99_48 1_555 1_555
C100_48 H65_48 1_555 1_555
C101_48 C100_48 1_555 1_555
H66_48 C101_48 1_555 1_555
C102_48 C101_48 1_555 1_555
H67_48 C102_48 1_555 1_555
C103_48 C102_48 1_555 1_555
C104_48 C103_48 1_555 1_555
H68_48 C104_48 1_555 1_555
C105_48 C103_48 1_555 1_555
C106_48 C96_48 1_555 1_555
C107_48 C109_48 1_555 1_555
C108_48 H69_48 1_555 1_555
C109_48 C108_48 1_555 1_555
C110_48 C109_48 1_555 1_555
H70_48 C110_48 1_555 1_555
C111_48 C110_48 1_555 1_555
H71_48 C111_48 1_555 1_555
C112_48 C111_48 1_555 1_555
H72_48 C112_48 1_555 1_555
N62_19 C95_48 1_555 1_555
N64_3 C100_48 1_555 1_555
N37_48 C105_48 1_555 1_555
N38_48 C105_48 1_555 1_555
N39_48 C106_48 1_555 1_555
C99_48 N62_19 1_555 1_555
C104_48 N64_3 1_555 1_555
C106_48 N38_48 1_555 1_555
C107_48 N37_48 1_555 1_555
C107_48 N39_48 1_555 1_555
C108_48 N68_13 1_555 1_555
C112_48 N68_13 1_555 1_555
C6_45 N2_45 1_555 1_555
Co9_15 N2_45 1_555 1_555
S1_45 C6_45 1_555 1_555
C114_45 H73_45 1_555 1_555
C115_45 C114_45 1_555 1_555
C116_45 C115_45 1_555 1_555
H74_45 C116_45 1_555 1_555
C117_45 C116_45 1_555 1_555
H75_45 C117_45 1_555 1_555
C118_45 C117_45 1_555 1_555
H76_45 C118_45 1_555 1_555
C120_45 H77_45 1_555 1_555
C121_45 C120_45 1_555 1_555
H78_45 C121_45 1_555 1_555
C122_45 C121_45 1_555 1_555
H79_45 C122_45 1_555 1_555
C123_45 C122_45 1_555 1_555
C124_45 C123_45 1_555 1_555
H80_45 C124_45 1_555 1_555
C125_45 C123_45 1_555 1_555
C126_45 C115_45 1_555 1_555
C127_45 C129_45 1_555 1_555
C128_45 H81_45 1_555 1_555
C129_45 C128_45 1_555 1_555
C130_45 C129_45 1_555 1_555
H82_45 C130_45 1_555 1_555
C131_45 C130_45 1_555 1_555
H83_45 C131_45 1_555 1_555
C132_45 C131_45 1_555 1_555
H84_45 C132_45 1_555 1_555
N42_45 Co9_15 1_555 1_555
N67_5 C120_45 1_555 1_555
N45_45 C125_45 1_555 1_555
N46_45 C125_45 1_555 1_555
N47_45 C126_45 1_555 1_555
N48_45 C128_45 1_555 1_555
C133_45 H85_45 1_555 1_555
C134_45 C133_45 1_555 1_555
C135_45 C134_45 1_555 1_555
H86_45 C135_45 1_555 1_555
C136_45 C135_45 1_555 1_555
H87_45 C136_45 1_555 1_555
C137_45 C136_45 1_555 1_555
H88_45 C137_45 1_555 1_555
C138_45 H89_45 1_555 1_555
C139_45 C138_45 1_555 1_555
H90_45 C139_45 1_555 1_555
C140_45 C139_45 1_555 1_555
H91_45 C140_45 1_555 1_555
C141_45 C140_45 1_555 1_555
C142_45 C141_45 1_555 1_555
H92_45 C142_45 1_555 1_555
C143_45 C141_45 1_555 1_555
C144_45 C134_45 1_555 1_555
C145_45 C147_45 1_555 1_555
C146_45 H93_45 1_555 1_555
C147_45 C146_45 1_555 1_555
C148_45 C147_45 1_555 1_555
H94_45 C148_45 1_555 1_555
C149_45 C148_45 1_555 1_555
H95_45 C149_45 1_555 1_555
C150_45 C149_45 1_555 1_555
H96_45 C150_45 1_555 1_555
N49_45 Co9_15 1_555 1_555
N65 C138_45 1_555 1_555
N51_45 C143_45 1_555 1_555
N52_45 C143_45 1_555 1_555
N53_45 C144_45 1_555 1_555
N54_45 C146_45 1_555 1_555
C151_45 N55_45 1_555 1_555
N55_45 Co9_15 1_555 1_555
S7_45 C151_45 1_555 1_555
Co17_5 N48_45 1_555 1_555
Co17_24 N54_45 1_555 1_555
C114_45 N42_45 1_555 1_555
C118_45 N42_45 1_555 1_555
C124_45 N67_5 1_555 1_555
C126_45 N46_45 1_555 1_555
C127_45 N45_45 1_555 1_555
C127_45 N47_45 1_555 1_555
C132_45 N48_45 1_555 1_555
C133_45 N49_45 1_555 1_555
C137_45 N49_45 1_555 1_555
C142_45 N65 1_555 1_555
C144_45 N52_45 1_555 1_555
C145_45 N51_45 1_555 1_555
C145_45 N53_45 1_555 1_555
C150_45 N54_45 1_555 1_555
C6_46 N2_46 1_555 1_555
Co9_13 N2_46 1_555 1_555
S1_46 C6_46 1_555 1_555
C114_46 H73_46 1_555 1_555
C115_46 C114_46 1_555 1_555
C116_46 C115_46 1_555 1_555
H74_46 C116_46 1_555 1_555
C117_46 C116_46 1_555 1_555
H75_46 C117_46 1_555 1_555
C118_46 C117_46 1_555 1_555
H76_46 C118_46 1_555 1_555
C120_46 H77_46 1_555 1_555
C121_46 C120_46 1_555 1_555
H78_46 C121_46 1_555 1_555
C122_46 C121_46 1_555 1_555
H79_46 C122_46 1_555 1_555
C123_46 C122_46 1_555 1_555
C124_46 C123_46 1_555 1_555
H80_46 C124_46 1_555 1_555
C125_46 C123_46 1_555 1_555
C126_46 C115_46 1_555 1_555
C127_46 C129_46 1_555 1_555
C128_46 H81_46 1_555 1_555
C129_46 C128_46 1_555 1_555
C130_46 C129_46 1_555 1_555
H82_46 C130_46 1_555 1_555
C131_46 C130_46 1_555 1_555
H83_46 C131_46 1_555 1_555
C132_46 C131_46 1_555 1_555
H84_46 C132_46 1_555 1_555
N42_46 Co9_13 1_555 1_555
N67_6 C120_46 1_555 1_555
N45_46 C125_46 1_555 1_555
N46_46 C125_46 1_555 1_555
N47_46 C126_46 1_555 1_555
N48_46 C128_46 1_555 1_555
C133_46 H85_46 1_555 1_555
C134_46 C133_46 1_555 1_555
C135_46 C134_46 1_555 1_555
H86_46 C135_46 1_555 1_555
C136_46 C135_46 1_555 1_555
H87_46 C136_46 1_555 1_555
C137_46 C136_46 1_555 1_555
H88_46 C137_46 1_555 1_555
C138_46 H89_46 1_555 1_555
C139_46 C138_46 1_555 1_555
H90_46 C139_46 1_555 1_555
C140_46 C139_46 1_555 1_555
H91_46 C140_46 1_555 1_555
C141_46 C140_46 1_555 1_555
C142_46 C141_46 1_555 1_555
H92_46 C142_46 1_555 1_555
C143_46 C141_46 1_555 1_555
C144_46 C134_46 1_555 1_555
C145_46 C147_46 1_555 1_555
C146_46 H93_46 1_555 1_555
C147_46 C146_46 1_555 1_555
C148_46 C147_46 1_555 1_555
H94_46 C148_46 1_555 1_555
C149_46 C148_46 1_555 1_555
H95_46 C149_46 1_555 1_555
C150_46 C149_46 1_555 1_555
H96_46 C150_46 1_555 1_555
N49_46 Co9_13 1_555 1_555
N65_4 C138_46 1_555 1_555
N51_46 C143_46 1_555 1_555
N52_46 C143_46 1_555 1_555
N53_46 C144_46 1_555 1_555
N54_46 C146_46 1_555 1_555
C151_46 N55_46 1_555 1_555
N55_46 Co9_13 1_555 1_555
S7_46 C151_46 1_555 1_555
Co17_6 N48_46 1_555 1_555
Co17_23 N54_46 1_555 1_555
C114_46 N42_46 1_555 1_555
C118_46 N42_46 1_555 1_555
C124_46 N67_6 1_555 1_555
C126_46 N46_46 1_555 1_555
C127_46 N45_46 1_555 1_555
C127_46 N47_46 1_555 1_555
C132_46 N48_46 1_555 1_555
C133_46 N49_46 1_555 1_555
C137_46 N49_46 1_555 1_555
C142_46 N65_4 1_555 1_555
C144_46 N52_46 1_555 1_555
C145_46 N51_46 1_555 1_555
C145_46 N53_46 1_555 1_555
C150_46 N54_46 1_555 1_555
C6_47 N2_47 1_555 1_555
Co9_14 N2_47 1_555 1_555
S1_47 C6_47 1_555 1_555
C114_47 H73_47 1_555 1_555
C115_47 C114_47 1_555 1_555
C116_47 C115_47 1_555 1_555
H74_47 C116_47 1_555 1_555
C117_47 C116_47 1_555 1_555
H75_47 C117_47 1_555 1_555
C118_47 C117_47 1_555 1_555
H76_47 C118_47 1_555 1_555
C120_47 H77_47 1_555 1_555
C121_47 C120_47 1_555 1_555
H78_47 C121_47 1_555 1_555
C122_47 C121_47 1_555 1_555
H79_47 C122_47 1_555 1_555
C123_47 C122_47 1_555 1_555
C124_47 C123_47 1_555 1_555
H80_47 C124_47 1_555 1_555
C125_47 C123_47 1_555 1_555
C126_47 C115_47 1_555 1_555
C127_47 C129_47 1_555 1_555
C128_47 H81_47 1_555 1_555
C129_47 C128_47 1_555 1_555
C130_47 C129_47 1_555 1_555
H82_47 C130_47 1_555 1_555
C131_47 C130_47 1_555 1_555
H83_47 C131_47 1_555 1_555
C132_47 C131_47 1_555 1_555
H84_47 C132_47 1_555 1_555
N42_47 Co9_14 1_555 1_555
N67_8 C120_47 1_555 1_555
N45_47 C125_47 1_555 1_555
N46_47 C125_47 1_555 1_555
N47_47 C126_47 1_555 1_555
N48_47 C128_47 1_555 1_555
C133_47 H85_47 1_555 1_555
C134_47 C133_47 1_555 1_555
C135_47 C134_47 1_555 1_555
H86_47 C135_47 1_555 1_555
C136_47 C135_47 1_555 1_555
H87_47 C136_47 1_555 1_555
C137_47 C136_47 1_555 1_555
H88_47 C137_47 1_555 1_555
C138_47 H89_47 1_555 1_555
C139_47 C138_47 1_555 1_555
H90_47 C139_47 1_555 1_555
C140_47 C139_47 1_555 1_555
H91_47 C140_47 1_555 1_555
C141_47 C140_47 1_555 1_555
C142_47 C141_47 1_555 1_555
H92_47 C142_47 1_555 1_555
C143_47 C141_47 1_555 1_555
C144_47 C134_47 1_555 1_555
C145_47 C147_47 1_555 1_555
C146_47 H93_47 1_555 1_555
C147_47 C146_47 1_555 1_555
C148_47 C147_47 1_555 1_555
H94_47 C148_47 1_555 1_555
C149_47 C148_47 1_555 1_555
H95_47 C149_47 1_555 1_555
C150_47 C149_47 1_555 1_555
H96_47 C150_47 1_555 1_555
N49_47 Co9_14 1_555 1_555
N65_3 C138_47 1_555 1_555
N51_47 C143_47 1_555 1_555
N52_47 C143_47 1_555 1_555
N53_47 C144_47 1_555 1_555
N54_47 C146_47 1_555 1_555
C151_47 N55_47 1_555 1_555
N55_47 Co9_14 1_555 1_555
S7_47 C151_47 1_555 1_555
Co17_8 N48_47 1_555 1_555
Co17_22 N54_47 1_555 1_555
C114_47 N42_47 1_555 1_555
C118_47 N42_47 1_555 1_555
C124_47 N67_8 1_555 1_555
C126_47 N46_47 1_555 1_555
C127_47 N45_47 1_555 1_555
C127_47 N47_47 1_555 1_555
C132_47 N48_47 1_555 1_555
C133_47 N49_47 1_555 1_555
C137_47 N49_47 1_555 1_555
C142_47 N65_3 1_555 1_555
C144_47 N52_47 1_555 1_555
C145_47 N51_47 1_555 1_555
C145_47 N53_47 1_555 1_555
C150_47 N54_47 1_555 1_555
C6_48 N2_48 1_555 1_555
Co9_11 N2_48 1_555 1_555
S1_48 C6_48 1_555 1_555
C114_48 H73_48 1_555 1_555
C115_48 C114_48 1_555 1_555
C116_48 C115_48 1_555 1_555
H74_48 C116_48 1_555 1_555
C117_48 C116_48 1_555 1_555
H75_48 C117_48 1_555 1_555
C118_48 C117_48 1_555 1_555
C120_48 H77_48 1_555 1_555
C121_48 C120_48 1_555 1_555
H78_48 C121_48 1_555 1_555
C122_48 C121_48 1_555 1_555
H79_48 C122_48 1_555 1_555
C123_48 C122_48 1_555 1_555
C124_48 C123_48 1_555 1_555
H80_48 C124_48 1_555 1_555
C125_48 C123_48 1_555 1_555
C126_48 C115_48 1_555 1_555
C127_48 C129_48 1_555 1_555
C128_48 H81_48 1_555 1_555
C129_48 C128_48 1_555 1_555
C130_48 C129_48 1_555 1_555
H82_48 C130_48 1_555 1_555
C131_48 C130_48 1_555 1_555
H83_48 C131_48 1_555 1_555
C132_48 C131_48 1_555 1_555
H84_48 C132_48 1_555 1_555
N42_48 Co9_11 1_555 1_555
N67_7 C120_48 1_555 1_555
N45_48 C125_48 1_555 1_555
N46_48 C125_48 1_555 1_555
N47_48 C126_48 1_555 1_555
N48_48 C128_48 1_555 1_555
Co17_7 N48_48 1_555 1_555
C114_48 N42_48 1_555 1_555
C118_48 N42_48 1_555 1_555
C124_48 N67_7 1_555 1_555
C126_48 N46_48 1_555 1_555
C127_48 N45_48 1_555 1_555
C127_48 N47_48 1_555 1_555
C132_48 N48_48 1_555 1_555
C133_48 H85_48 1_555 1_555
C134_48 C133_48 1_555 1_555
C135_48 C134_48 1_555 1_555
H86_48 C135_48 1_555 1_555
C136_48 C135_48 1_555 1_555
H87_48 C136_48 1_555 1_555
C137_48 C136_48 1_555 1_555
C138_48 H89_48 1_555 1_555
C139_48 C138_48 1_555 1_555
H90_48 C139_48 1_555 1_555
C140_48 C139_48 1_555 1_555
H91_48 C140_48 1_555 1_555
C141_48 C140_48 1_555 1_555
C142_48 C141_48 1_555 1_555
H92_48 C142_48 1_555 1_555
C143_48 C141_48 1_555 1_555
C144_48 C134_48 1_555 1_555
C145_48 C147_48 1_555 1_555
C146_48 H93_48 1_555 1_555
C147_48 C146_48 1_555 1_555
C148_48 C147_48 1_555 1_555
H94_48 C148_48 1_555 1_555
C149_48 C148_48 1_555 1_555
H95_48 C149_48 1_555 1_555
C150_48 C149_48 1_555 1_555
H96_48 C150_48 1_555 1_555
N49_48 Co9_12 1_555 1_555
N65_2 C138_48 1_555 1_555
N51_48 C143_48 1_555 1_555
N52_48 C143_48 1_555 1_555
N53_48 C144_48 1_555 1_555
N54_48 C146_48 1_555 1_555
C151_48 N55_48 1_555 1_555
N55_48 Co9_12 1_555 1_555
S7_48 C151_48 1_555 1_555
Co17_21 N54_48 1_555 1_555
C133_48 N49_48 1_555 1_555
C137_48 N49_48 1_555 1_555
C142_48 N65_2 1_555 1_555
C144_48 N52_48 1_555 1_555
C145_48 N51_48 1_555 1_555
C145_48 N53_48 1_555 1_555
C150_48 N54_48 1_555 1_555
N21_17 Co16 1_555 1_555
N57_17 Co16 1_555 1_555
C20_17 N8_17 1_555 1_555
C21_9 H13_9 1_555 1_555
C22_9 C21_9 1_555 1_555
H14_9 C22_9 1_555 1_555
C23_9 C22_9 1_555 1_555
H15_9 C23_9 1_555 1_555
C24_9 C23_9 1_555 1_555
C25_9 C24_9 1_555 1_555
H16_9 C25_9 1_555 1_555
C26_9 C24_9 1_555 1_555
N8_17 Co17_20 1_555 1_555
N9_9 C21_9 1_555 1_555
N10_9 C26_9 1_555 1_555
S2_17 C20_17 1_555 1_555
C27_9 H17_9 1_555 1_555
C28_9 C27_9 1_555 1_555
H18_9 C28_9 1_555 1_555
C29_9 C28_9 1_555 1_555
H19_9 C29_9 1_555 1_555
C30_9 C29_9 1_555 1_555
C31_9 C30_9 1_555 1_555
H20_9 C31_9 1_555 1_555
C32_9 C30_9 1_555 1_555
N11_9 C27_9 1_555 1_555
N12_9 C26_9 1_555 1_555
C33_9 H21_9 1_555 1_555
C34_9 C33_9 1_555 1_555
H22_9 C34_9 1_555 1_555
C35_9 C34_9 1_555 1_555
H23_9 C35_9 1_555 1_555
C36_9 C35_9 1_555 1_555
C37_9 C36_9 1_555 1_555
H24_9 C37_9 1_555 1_555
C38_9 N10_9 1_555 1_555
N13_9 C33_9 1_555 1_555
N14_9 C32_9 1_555 1_555
C58_25 H37_25 1_555 1_555
C59_25 C58_25 1_555 1_555
H38_25 C59_25 1_555 1_555
C60_25 C59_25 1_555 1_555
H39_25 C60_25 1_555 1_555
C61_25 C60_25 1_555 1_555
C62_25 C61_25 1_555 1_555
H40_25 C62_25 1_555 1_555
C63_25 C61_25 1_555 1_555
N22_13 C58_25 1_555 1_555
N23_25 C63_25 1_555 1_555
S3_17 C57_17 1_555 1_555
C64_25 H41_25 1_555 1_555
C65_25 C64_25 1_555 1_555
H42_25 C65_25 1_555 1_555
C66_25 C65_25 1_555 1_555
H43_25 C66_25 1_555 1_555
C67_25 C66_25 1_555 1_555
C68_25 C67_25 1_555 1_555
H44_25 C68_25 1_555 1_555
C69_25 C67_25 1_555 1_555
N24_13 Co17_20 1_555 1_555
N25_25 C63_25 1_555 1_555
C70_25 H45_25 1_555 1_555
C71_25 C70_25 1_555 1_555
H46_25 C71_25 1_555 1_555
C72_25 C71_25 1_555 1_555
H47_25 C72_25 1_555 1_555
C73_25 C72_25 1_555 1_555
C74_25 C73_25 1_555 1_555
H48_25 C74_25 1_555 1_555
C75_25 N23_25 1_555 1_555
N26_25 C70_25 1_555 1_555
N27_25 C69_25 1_555 1_555
C94_17 N34_17 1_555 1_555
Co16_6 N11_9 1_555 1_555
N34_17 Co16_6 1_555 1_555
S4_17 C94_17 1_555 1_555
C113_17 N41_17 1_555 1_555
N41_17 Co16_6 1_555 1_555
S5_17 C113_17 1_555 1_555
C152_17 N56_17 1_555 1_555
N56_17 Co17_20 1_555 1_555
S8_17 C152_17 1_555 1_555
S9_17 C153_17 1_555 1_555
Co17_15 N13_9 1_555 1_555
N70_13 Co16_6 1_555 1_555
C25_9 N9_9 1_555 1_555
Co17_20 N9_9 1_555 1_555
C31_9 N11_9 1_555 1_555
C32_9 N12_9 1_555 1_555
C36_9 C38_9 1_555 1_555
C37_9 N13_9 1_555 1_555
C38_9 N14_9 1_555 1_555
C62_25 N22_13 1_555 1_555
C64_25 N24_13 1_555 1_555
C68_25 N24_13 1_555 1_555
C69_25 N25_25 1_555 1_555
C73_25 C75_25 1_555 1_555
C74_25 N26_25 1_555 1_555
C75_25 N27_25 1_555 1_555
C20_18 N8_18 1_555 1_555
C21_10 H13_10 1_555 1_555
C22_10 C21_10 1_555 1_555
H14_10 C22_10 1_555 1_555
C23_10 C22_10 1_555 1_555
H15_10 C23_10 1_555 1_555
C24_10 C23_10 1_555 1_555
C25_10 C24_10 1_555 1_555
H16_10 C25_10 1_555 1_555
C26_10 C24_10 1_555 1_555
N8_18 Co17_19 1_555 1_555
N9_10 C21_10 1_555 1_555
N10_10 C26_10 1_555 1_555
S2_18 C20_18 1_555 1_555
C27_10 H17_10 1_555 1_555
C28_10 C27_10 1_555 1_555
H18_10 C28_10 1_555 1_555
C29_10 C28_10 1_555 1_555
H19_10 C29_10 1_555 1_555
C30_10 C29_10 1_555 1_555
C31_10 C30_10 1_555 1_555
H20_10 C31_10 1_555 1_555
C32_10 C30_10 1_555 1_555
N11_10 C27_10 1_555 1_555
N12_10 C26_10 1_555 1_555
C33_10 H21_10 1_555 1_555
C34_10 C33_10 1_555 1_555
H22_10 C34_10 1_555 1_555
C35_10 C34_10 1_555 1_555
H23_10 C35_10 1_555 1_555
C36_10 C35_10 1_555 1_555
C37_10 C36_10 1_555 1_555
H24_10 C37_10 1_555 1_555
C38_10 N10_10 1_555 1_555
N13_10 C33_10 1_555 1_555
N14_10 C32_10 1_555 1_555
C57_18 N21_18 1_555 1_555
C58_26 H37_26 1_555 1_555
C59_26 C58_26 1_555 1_555
H38_26 C59_26 1_555 1_555
C60_26 C59_26 1_555 1_555
H39_26 C60_26 1_555 1_555
C61_26 C60_26 1_555 1_555
C62_26 C61_26 1_555 1_555
H40_26 C62_26 1_555 1_555
C63_26 C61_26 1_555 1_555
N21_18 Co17_14 1_555 1_555
N22_14 C58_26 1_555 1_555
N23_26 C63_26 1_555 1_555
S3_18 C57_18 1_555 1_555
C64_26 H41_26 1_555 1_555
C65_26 C64_26 1_555 1_555
H42_26 C65_26 1_555 1_555
C66_26 C65_26 1_555 1_555
H43_26 C66_26 1_555 1_555
C67_26 C66_26 1_555 1_555
C68_26 C67_26 1_555 1_555
H44_26 C68_26 1_555 1_555
C69_26 C67_26 1_555 1_555
N24_14 Co17_19 1_555 1_555
N25_26 C63_26 1_555 1_555
C70_26 H45_26 1_555 1_555
C71_26 C70_26 1_555 1_555
H46_26 C71_26 1_555 1_555
C72_26 C71_26 1_555 1_555
H47_26 C72_26 1_555 1_555
C73_26 C72_26 1_555 1_555
C74_26 C73_26 1_555 1_555
H48_26 C74_26 1_555 1_555
C75_26 N23_26 1_555 1_555
N26_26 C70_26 1_555 1_555
N27_26 C69_26 1_555 1_555
C94_18 N34_18 1_555 1_555
Co17_24 N11_10 1_555 1_555
N34_18 Co17_24 1_555 1_555
S4_18 C94_18 1_555 1_555
C113_18 N41_18 1_555 1_555
N41_18 Co17_24 1_555 1_555
S5_18 C113_18 1_555 1_555
C152_18 N56_18 1_555 1_555
N56_18 Co17_19 1_555 1_555
S8_18 C152_18 1_555 1_555
C153_18 N57_18 1_555 1_555
N57_18 Co17_14 1_555 1_555
S9_18 C153_18 1_555 1_555
Co16_3 N13_10 1_555 1_555
Co16_7 N26_26 1_555 1_555
N70_14 Co17_24 1_555 1_555
N71_14 Co17_14 1_555 1_555
C25_10 N9_10 1_555 1_555
Co17_19 N9_10 1_555 1_555
C31_10 N11_10 1_555 1_555
C32_10 N12_10 1_555 1_555
C36_10 C38_10 1_555 1_555
C37_10 N13_10 1_555 1_555
C38_10 N14_10 1_555 1_555
C62_26 N22_14 1_555 1_555
Co17_14 N22_14 1_555 1_555
C64_26 N24_14 1_555 1_555
C68_26 N24_14 1_555 1_555
C69_26 N25_26 1_555 1_555
C73_26 C75_26 1_555 1_555
C74_26 N26_26 1_555 1_555
C75_26 N27_26 1_555 1_555
N34_19 Co16_5 1_555 1_555
N41_19 Co16_5 1_555 1_555
C20_19 N8_19 1_555 1_555
C21_11 H13_11 1_555 1_555
C22_11 C21_11 1_555 1_555
H14_11 C22_11 1_555 1_555
C23_11 C22_11 1_555 1_555
H15_11 C23_11 1_555 1_555
C24_11 C23_11 1_555 1_555
C25_11 C24_11 1_555 1_555
H16_11 C25_11 1_555 1_555
C26_11 C24_11 1_555 1_555
N8_19 Co16_10 1_555 1_555
N9_11 C21_11 1_555 1_555
N10_11 C26_11 1_555 1_555
S2_19 C20_19 1_555 1_555
C27_11 H17_11 1_555 1_555
C28_11 C27_11 1_555 1_555
H18_11 C28_11 1_555 1_555
C29_11 C28_11 1_555 1_555
H19_11 C29_11 1_555 1_555
C30_11 C29_11 1_555 1_555
C31_11 C30_11 1_555 1_555
H20_11 C31_11 1_555 1_555
C32_11 C30_11 1_555 1_555
N11_11 C27_11 1_555 1_555
N12_11 C26_11 1_555 1_555
C33_11 H21_11 1_555 1_555
C34_11 C33_11 1_555 1_555
H22_11 C34_11 1_555 1_555
C35_11 C34_11 1_555 1_555
H23_11 C35_11 1_555 1_555
C36_11 C35_11 1_555 1_555
C37_11 C36_11 1_555 1_555
H24_11 C37_11 1_555 1_555
C38_11 N10_11 1_555 1_555
N13_11 C33_11 1_555 1_555
N14_11 C32_11 1_555 1_555
C57_19 N21_19 1_555 1_555
C58_27 H37_27 1_555 1_555
C59_27 C58_27 1_555 1_555
H38_27 C59_27 1_555 1_555
C60_27 C59_27 1_555 1_555
H39_27 C60_27 1_555 1_555
C61_27 C60_27 1_555 1_555
C62_27 C61_27 1_555 1_555
H40_27 C62_27 1_555 1_555
C63_27 C61_27 1_555 1_555
N21_19 Co17_13 1_555 1_555
N22_15 C58_27 1_555 1_555
N23_27 C63_27 1_555 1_555
S3_19 C57_19 1_555 1_555
C64_27 H41_27 1_555 1_555
C65_27 C64_27 1_555 1_555
H42_27 C65_27 1_555 1_555
C66_27 C65_27 1_555 1_555
H43_27 C66_27 1_555 1_555
C67_27 C66_27 1_555 1_555
C68_27 C67_27 1_555 1_555
H44_27 C68_27 1_555 1_555
C69_27 C67_27 1_555 1_555
N24_15 Co16_10 1_555 1_555
N25_27 C63_27 1_555 1_555
C70_27 H45_27 1_555 1_555
C71_27 C70_27 1_555 1_555
H46_27 C71_27 1_555 1_555
C72_27 C71_27 1_555 1_555
H47_27 C72_27 1_555 1_555
C73_27 C72_27 1_555 1_555
C74_27 C73_27 1_555 1_555
H48_27 C74_27 1_555 1_555
C75_27 N23_27 1_555 1_555
N26_27 C70_27 1_555 1_555
N27_27 C69_27 1_555 1_555
S4_19 C94_19 1_555 1_555
S5_19 C113_19 1_555 1_555
C152_19 N56_19 1_555 1_555
N56_19 Co16_10 1_555 1_555
S8_19 C152_19 1_555 1_555
C153_19 N57_19 1_555 1_555
N57_19 Co17_13 1_555 1_555
S9_19 C153_19 1_555 1_555
Co16_4 N13_11 1_555 1_555
Co17_21 N26_27 1_555 1_555
N71_15 Co17_13 1_555 1_555
C25_11 N9_11 1_555 1_555
Co16_10 N9_11 1_555 1_555
C31_11 N11_11 1_555 1_555
C32_11 N12_11 1_555 1_555
C36_11 C38_11 1_555 1_555
C37_11 N13_11 1_555 1_555
C38_11 N14_11 1_555 1_555
C62_27 N22_15 1_555 1_555
Co17_13 N22_15 1_555 1_555
C64_27 N24_15 1_555 1_555
C68_27 N24_15 1_555 1_555
C69_27 N25_27 1_555 1_555
C73_27 C75_27 1_555 1_555
C74_27 N26_27 1_555 1_555
C75_27 N27_27 1_555 1_555
N8_20 Co16_9 1_555 1_555
N56_20 Co16_9 1_555 1_555
C21_12 H13_12 1_555 1_555
C22_12 C21_12 1_555 1_555
H14_12 C22_12 1_555 1_555
C23_12 C22_12 1_555 1_555
H15_12 C23_12 1_555 1_555
C24_12 C23_12 1_555 1_555
C25_12 C24_12 1_555 1_555
H16_12 C25_12 1_555 1_555
C26_12 C24_12 1_555 1_555
N9_12 C21_12 1_555 1_555
N10_12 C26_12 1_555 1_555
S2_20 C20_20 1_555 1_555
C27_12 H17_12 1_555 1_555
C28_12 C27_12 1_555 1_555
H18_12 C28_12 1_555 1_555
C29_12 C28_12 1_555 1_555
H19_12 C29_12 1_555 1_555
C30_12 C29_12 1_555 1_555
C31_12 C30_12 1_555 1_555
H20_12 C31_12 1_555 1_555
C32_12 C30_12 1_555 1_555
N11_12 C27_12 1_555 1_555
N12_12 C26_12 1_555 1_555
C33_12 H21_12 1_555 1_555
C34_12 C33_12 1_555 1_555
H22_12 C34_12 1_555 1_555
C35_12 C34_12 1_555 1_555
H23_12 C35_12 1_555 1_555
C36_12 C35_12 1_555 1_555
C37_12 C36_12 1_555 1_555
H24_12 C37_12 1_555 1_555
C38_12 N10_12 1_555 1_555
N13_12 C33_12 1_555 1_555
N14_12 C32_12 1_555 1_555
C57_20 N21_20 1_555 1_555
C58_28 H37_28 1_555 1_555
C59_28 C58_28 1_555 1_555
H38_28 C59_28 1_555 1_555
C60_28 C59_28 1_555 1_555
H39_28 C60_28 1_555 1_555
C61_28 C60_28 1_555 1_555
C62_28 C61_28 1_555 1_555
H40_28 C62_28 1_555 1_555
C63_28 C61_28 1_555 1_555
N21_20 Co16_2 1_555 1_555
N22_16 C58_28 1_555 1_555
N23_28 C63_28 1_555 1_555
S3_20 C57_20 1_555 1_555
C64_28 H41_28 1_555 1_555
C65_28 C64_28 1_555 1_555
H42_28 C65_28 1_555 1_555
C66_28 C65_28 1_555 1_555
H43_28 C66_28 1_555 1_555
C67_28 C66_28 1_555 1_555
C68_28 C67_28 1_555 1_555
H44_28 C68_28 1_555 1_555
C69_28 C67_28 1_555 1_555
N25_28 C63_28 1_555 1_555
C70_28 H45_28 1_555 1_555
C71_28 C70_28 1_555 1_555
H46_28 C71_28 1_555 1_555
C72_28 C71_28 1_555 1_555
H47_28 C72_28 1_555 1_555
C73_28 C72_28 1_555 1_555
C74_28 C73_28 1_555 1_555
H48_28 C74_28 1_555 1_555
C75_28 N23_28 1_555 1_555
N26_28 C70_28 1_555 1_555
N27_28 C69_28 1_555 1_555
C94_20 N34_20 1_555 1_555
Co17_23 N11_12 1_555 1_555
N34_20 Co17_23 1_555 1_555
S4_20 C94_20 1_555 1_555
C113_20 N41_20 1_555 1_555
N41_20 Co17_23 1_555 1_555
S5_20 C113_20 1_555 1_555
S8_20 C152_20 1_555 1_555
C153_20 N57_20 1_555 1_555
N57_20 Co16_2 1_555 1_555
S9_20 C153_20 1_555 1_555
Co16_8 N26_28 1_555 1_555
N70_16 Co17_23 1_555 1_555
N71_16 Co16_2 1_555 1_555
C25_12 N9_12 1_555 1_555
C31_12 N11_12 1_555 1_555
C32_12 N12_12 1_555 1_555
C36_12 C38_12 1_555 1_555
C37_12 N13_12 1_555 1_555
C38_12 N14_12 1_555 1_555
C62_28 N22_16 1_555 1_555
Co16_2 N22_16 1_555 1_555
C64_28 N24_16 1_555 1_555
C68_28 N24_16 1_555 1_555
C69_28 N25_28 1_555 1_555
C73_28 C75_28 1_555 1_555
C74_28 N26_28 1_555 1_555
C75_28 N27_28 1_555 1_555
C58_29 H37_29 1_555 1_555
C59_29 C58_29 1_555 1_555
H38_29 C59_29 1_555 1_555
C60_29 C59_29 1_555 1_555
H39_29 C60_29 1_555 1_555
C61_29 C60_29 1_555 1_555
C62_29 C61_29 1_555 1_555
H40_29 C62_29 1_555 1_555
C63_29 C61_29 1_555 1_555
N70_15 C58_29 1_555 1_555
N23_29 C63_29 1_555 1_555
C64_29 H41_29 1_555 1_555
C65_29 C64_29 1_555 1_555
H42_29 C65_29 1_555 1_555
C66_29 C65_29 1_555 1_555
H43_29 C66_29 1_555 1_555
C67_29 C66_29 1_555 1_555
C68_29 C67_29 1_555 1_555
H44_29 C68_29 1_555 1_555
C69_29 C67_29 1_555 1_555
N25_29 C63_29 1_555 1_555
C70_29 H45_29 1_555 1_555
C71_29 C70_29 1_555 1_555
H46_29 C71_29 1_555 1_555
C72_29 C71_29 1_555 1_555
H47_29 C72_29 1_555 1_555
C73_29 C72_29 1_555 1_555
C74_29 C73_29 1_555 1_555
H48_29 C74_29 1_555 1_555
C75_29 N23_29 1_555 1_555
N26_29 C70_29 1_555 1_555
N27_29 C69_29 1_555 1_555
C62_29 N70_15 1_555 1_555
C64_29 N71_15 1_555 1_555
C68_29 N71_15 1_555 1_555
C69_29 N25_29 1_555 1_555
C73_29 C75_29 1_555 1_555
C74_29 N26_29 1_555 1_555
C75_29 N27_29 1_555 1_555
C58_30 H37_30 1_555 1_555
C59_30 C58_30 1_555 1_555
H38_30 C59_30 1_555 1_555
C60_30 C59_30 1_555 1_555
H39_30 C60_30 1_555 1_555
C61_30 C60_30 1_555 1_555
C62_30 C61_30 1_555 1_555
H40_30 C62_30 1_555 1_555
C63_30 C61_30 1_555 1_555
N70_14 C58_30 1_555 1_555
N23_30 C63_30 1_555 1_555
C64_30 H41_30 1_555 1_555
C65_30 C64_30 1_555 1_555
H42_30 C65_30 1_555 1_555
C66_30 C65_30 1_555 1_555
H43_30 C66_30 1_555 1_555
C67_30 C66_30 1_555 1_555
C68_30 C67_30 1_555 1_555
H44_30 C68_30 1_555 1_555
C69_30 C67_30 1_555 1_555
N25_30 C63_30 1_555 1_555
C70_30 H45_30 1_555 1_555
C71_30 C70_30 1_555 1_555
H46_30 C71_30 1_555 1_555
C72_30 C71_30 1_555 1_555
H47_30 C72_30 1_555 1_555
C73_30 C72_30 1_555 1_555
C74_30 C73_30 1_555 1_555
H48_30 C74_30 1_555 1_555
C75_30 N23_30 1_555 1_555
N26_30 C70_30 1_555 1_555
N27_30 C69_30 1_555 1_555
Co16_11 N26_30 1_555 1_555
C62_30 N70_14 1_555 1_555
C64_30 N71_14 1_555 1_555
C68_30 N71_14 1_555 1_555
C69_30 N25_30 1_555 1_555
C73_30 C75_30 1_555 1_555
C74_30 N26_30 1_555 1_555
C75_30 N27_30 1_555 1_555
C58_31 H37_31 1_555 1_555
C59_31 C58_31 1_555 1_555
H38_31 C59_31 1_555 1_555
C60_31 C59_31 1_555 1_555
H39_31 C60_31 1_555 1_555
C61_31 C60_31 1_555 1_555
C62_31 C61_31 1_555 1_555
H40_31 C62_31 1_555 1_555
C63_31 C61_31 1_555 1_555
N70_16 C58_31 1_555 1_555
N23_31 C63_31 1_555 1_555
C64_31 H41_31 1_555 1_555
C65_31 C64_31 1_555 1_555
H42_31 C65_31 1_555 1_555
C66_31 C65_31 1_555 1_555
H43_31 C66_31 1_555 1_555
C67_31 C66_31 1_555 1_555
C68_31 C67_31 1_555 1_555
H44_31 C68_31 1_555 1_555
C69_31 C67_31 1_555 1_555
N25_31 C63_31 1_555 1_555
C70_31 H45_31 1_555 1_555
C71_31 C70_31 1_555 1_555
H46_31 C71_31 1_555 1_555
C72_31 C71_31 1_555 1_555
H47_31 C72_31 1_555 1_555
C73_31 C72_31 1_555 1_555
C74_31 C73_31 1_555 1_555
H48_31 C74_31 1_555 1_555
C75_31 N23_31 1_555 1_555
N26_31 C70_31 1_555 1_555
N27_31 C69_31 1_555 1_555
Co17_18 N26_31 1_555 1_555
C62_31 N70_16 1_555 1_555
C64_31 N71_16 1_555 1_555
C68_31 N71_16 1_555 1_555
C69_31 N25_31 1_555 1_555
C73_31 C75_31 1_555 1_555
C74_31 N26_31 1_555 1_555
C75_31 N27_31 1_555 1_555
C58_32 H37_32 1_555 1_555
C59_32 C58_32 1_555 1_555
H38_32 C59_32 1_555 1_555
C60_32 C59_32 1_555 1_555
H39_32 C60_32 1_555 1_555
C61_32 C60_32 1_555 1_555
C62_32 C61_32 1_555 1_555
H40_32 C62_32 1_555 1_555
C63_32 C61_32 1_555 1_555
N70_13 C58_32 1_555 1_555
N23_32 C63_32 1_555 1_555
C64_32 H41_32 1_555 1_555
C65_32 C64_32 1_555 1_555
H42_32 C65_32 1_555 1_555
C66_32 C65_32 1_555 1_555
H43_32 C66_32 1_555 1_555
C67_32 C66_32 1_555 1_555
C68_32 C67_32 1_555 1_555
H44_32 C68_32 1_555 1_555
C69_32 C67_32 1_555 1_555
N25_32 C63_32 1_555 1_555
C70_32 H45_32 1_555 1_555
C71_32 C70_32 1_555 1_555
H46_32 C71_32 1_555 1_555
C72_32 C71_32 1_555 1_555
H47_32 C72_32 1_555 1_555
C73_32 C72_32 1_555 1_555
C74_32 C73_32 1_555 1_555
H48_32 C74_32 1_555 1_555
C75_32 N23_32 1_555 1_555
N26_32 C70_32 1_555 1_555
N27_32 C69_32 1_555 1_555
Co16_12 N26_32 1_555 1_555
C62_32 N70_13 1_555 1_555
C64_32 N71_13 1_555 1_555
C68_32 N71_13 1_555 1_555
C69_32 N25_32 1_555 1_555
C73_32 C75_32 1_555 1_555
C74_32 N26_32 1_555 1_555
C75_32 N27_32 1_555 1_555
C20_21 N8_21 1_555 1_555
C21_13 H13_13 1_555 1_555
C22_13 C21_13 1_555 1_555
H14_13 C22_13 1_555 1_555
C23_13 C22_13 1_555 1_555
H15_13 C23_13 1_555 1_555
C24_13 C23_13 1_555 1_555
C25_13 C24_13 1_555 1_555
H16_13 C25_13 1_555 1_555
C26_13 C24_13 1_555 1_555
N8_21 Co17_5 1_555 1_555
N9_13 C21_13 1_555 1_555
N10_13 C26_13 1_555 1_555
S2_21 C20_21 1_555 1_555
C27_13 H17_13 1_555 1_555
C28_13 C27_13 1_555 1_555
H18_13 C28_13 1_555 1_555
C29_13 C28_13 1_555 1_555
H19_13 C29_13 1_555 1_555
C30_13 C29_13 1_555 1_555
C31_13 C30_13 1_555 1_555
H20_13 C31_13 1_555 1_555
C32_13 C30_13 1_555 1_555
N11_13 C27_13 1_555 1_555
N12_13 C26_13 1_555 1_555
C33_13 H21_13 1_555 1_555
C34_13 C33_13 1_555 1_555
H22_13 C34_13 1_555 1_555
C35_13 C34_13 1_555 1_555
H23_13 C35_13 1_555 1_555
C36_13 C35_13 1_555 1_555
C37_13 C36_13 1_555 1_555
H24_13 C37_13 1_555 1_555
C38_13 N10_13 1_555 1_555
N13_13 C33_13 1_555 1_555
N14_13 C32_13 1_555 1_555
C57_21 N21_21 1_555 1_555
C58_33 H37_33 1_555 1_555
C59_33 C58_33 1_555 1_555
H38_33 C59_33 1_555 1_555
C60_33 C59_33 1_555 1_555
H39_33 C60_33 1_555 1_555
C61_33 C60_33 1_555 1_555
C62_33 C61_33 1_555 1_555
H40_33 C62_33 1_555 1_555
C63_33 C61_33 1_555 1_555
N21_21 Co17 1_555 1_555
N22_17 C58_33 1_555 1_555
N23_33 C63_33 1_555 1_555
S3_21 C57_21 1_555 1_555
C64_33 H41_33 1_555 1_555
C65_33 C64_33 1_555 1_555
H42_33 C65_33 1_555 1_555
C66_33 C65_33 1_555 1_555
H43_33 C66_33 1_555 1_555
C67_33 C66_33 1_555 1_555
C68_33 C67_33 1_555 1_555
H44_33 C68_33 1_555 1_555
C69_33 C67_33 1_555 1_555
N24_17 Co17_5 1_555 1_555
N25_33 C63_33 1_555 1_555
C70_33 H45_33 1_555 1_555
C71_33 C70_33 1_555 1_555
H46_33 C71_33 1_555 1_555
C72_33 C71_33 1_555 1_555
H47_33 C72_33 1_555 1_555
C73_33 C72_33 1_555 1_555
C74_33 C73_33 1_555 1_555
H48_33 C74_33 1_555 1_555
C75_33 N23_33 1_555 1_555
N26_33 C70_33 1_555 1_555
N27_33 C69_33 1_555 1_555
C94_21 N34_21 1_555 1_555
Co17_9 N11_13 1_555 1_555
N34_21 Co17_9 1_555 1_555
S4_21 C94_21 1_555 1_555
C113_21 N41_21 1_555 1_555
N41_21 Co17_9 1_555 1_555
S5_21 C113_21 1_555 1_555
C152_21 N56_21 1_555 1_555
N56_21 Co17_5 1_555 1_555
S8_21 C152_21 1_555 1_555
C153_21 N57_21 1_555 1_555
N57_21 Co17 1_555 1_555
S9_21 C153_21 1_555 1_555
N70_17 Co17_9 1_555 1_555
N71_17 Co17 1_555 1_555
C25_13 N9_13 1_555 1_555
Co17_5 N9_13 1_555 1_555
C31_13 N11_13 1_555 1_555
C32_13 N12_13 1_555 1_555
C36_13 C38_13 1_555 1_555
C37_13 N13_13 1_555 1_555
C38_13 N14_13 1_555 1_555
C62_33 N22_17 1_555 1_555
Co17 N22_17 1_555 1_555
C64_33 N24_17 1_555 1_555
C68_33 N24_17 1_555 1_555
C69_33 N25_33 1_555 1_555
C73_33 C75_33 1_555 1_555
C74_33 N26_33 1_555 1_555
C75_33 N27_33 1_555 1_555
C21_14 H13_14 1_555 1_555
C22_14 C21_14 1_555 1_555
H14_14 C22_14 1_555 1_555
C23_14 C22_14 1_555 1_555
H15_14 C23_14 1_555 1_555
C24_14 C23_14 1_555 1_555
C25_14 C24_14 1_555 1_555
H16_14 C25_14 1_555 1_555
C26_14 C24_14 1_555 1_555
N9_14 C21_14 1_555 1_555
N10_14 C26_14 1_555 1_555
S2_22 C20_22 1_555 1_555
C27_14 H17_14 1_555 1_555
C28_14 C27_14 1_555 1_555
H18_14 C28_14 1_555 1_555
C29_14 C28_14 1_555 1_555
H19_14 C29_14 1_555 1_555
C30_14 C29_14 1_555 1_555
C31_14 C30_14 1_555 1_555
H20_14 C31_14 1_555 1_555
C32_14 C30_14 1_555 1_555
N11_14 C27_14 1_555 1_555
N12_14 C26_14 1_555 1_555
C33_14 H21_14 1_555 1_555
C34_14 C33_14 1_555 1_555
H22_14 C34_14 1_555 1_555
C35_14 C34_14 1_555 1_555
H23_14 C35_14 1_555 1_555
C36_14 C35_14 1_555 1_555
C37_14 C36_14 1_555 1_555
H24_14 C37_14 1_555 1_555
C38_14 N10_14 1_555 1_555
N13_14 C33_14 1_555 1_555
N14_14 C32_14 1_555 1_555
C57_22 N21_22 1_555 1_555
C58_34 H37_34 1_555 1_555
C59_34 C58_34 1_555 1_555
H38_34 C59_34 1_555 1_555
C60_34 C59_34 1_555 1_555
H39_34 C60_34 1_555 1_555
C61_34 C60_34 1_555 1_555
C62_34 C61_34 1_555 1_555
H40_34 C62_34 1_555 1_555
C63_34 C61_34 1_555 1_555
N21_22 Co16_14 1_555 1_555
N22_18 C58_34 1_555 1_555
N23_34 C63_34 1_555 1_555
S3_22 C57_22 1_555 1_555
C64_34 H41_34 1_555 1_555
C65_34 C64_34 1_555 1_555
H42_34 C65_34 1_555 1_555
C66_34 C65_34 1_555 1_555
H43_34 C66_34 1_555 1_555
C67_34 C66_34 1_555 1_555
C68_34 C67_34 1_555 1_555
H44_34 C68_34 1_555 1_555
C69_34 C67_34 1_555 1_555
N25_34 C63_34 1_555 1_555
C70_34 H45_34 1_555 1_555
C71_34 C70_34 1_555 1_555
H46_34 C71_34 1_555 1_555
C72_34 C71_34 1_555 1_555
H47_34 C72_34 1_555 1_555
C73_34 C72_34 1_555 1_555
C74_34 C73_34 1_555 1_555
H48_34 C74_34 1_555 1_555
C75_34 N23_34 1_555 1_555
N26_34 C70_34 1_555 1_555
N27_34 C69_34 1_555 1_555
C94_22 N34_22 1_555 1_555
Co16_20 N11_14 1_555 1_555
N34_22 Co16_20 1_555 1_555
S4_22 C94_22 1_555 1_555
C113_22 N41_22 1_555 1_555
N41_22 Co16_20 1_555 1_555
S5_22 C113_22 1_555 1_555
S8_22 C152_22 1_555 1_555
C153_22 N57_22 1_555 1_555
N57_22 Co16_14 1_555 1_555
S9_22 C153_22 1_555 1_555
Co17_4 N13_14 1_555 1_555
Co17_11 N26_34 1_555 1_555
N70_18 Co16_20 1_555 1_555
N71_18 Co16_14 1_555 1_555
C25_14 N9_14 1_555 1_555
C31_14 N11_14 1_555 1_555
C32_14 N12_14 1_555 1_555
C36_14 C38_14 1_555 1_555
C37_14 N13_14 1_555 1_555
C38_14 N14_14 1_555 1_555
C62_34 N22_18 1_555 1_555
Co16_14 N22_18 1_555 1_555
C64_34 N24_18 1_555 1_555
C68_34 N24_18 1_555 1_555
C69_34 N25_34 1_555 1_555
C73_34 C75_34 1_555 1_555
C74_34 N26_34 1_555 1_555
C75_34 N27_34 1_555 1_555
N8_22 Co17_6 1_555 1_555
N56_22 Co17_6 1_555 1_555
C20_23 N8_23 1_555 1_555
C21_15 H13_15 1_555 1_555
C22_15 C21_15 1_555 1_555
H14_15 C22_15 1_555 1_555
C23_15 C22_15 1_555 1_555
H15_15 C23_15 1_555 1_555
C24_15 C23_15 1_555 1_555
C25_15 C24_15 1_555 1_555
H16_15 C25_15 1_555 1_555
C26_15 C24_15 1_555 1_555
N8_23 Co16_24 1_555 1_555
N9_15 C21_15 1_555 1_555
N10_15 C26_15 1_555 1_555
S2_23 C20_23 1_555 1_555
C27_15 H17_15 1_555 1_555
C28_15 C27_15 1_555 1_555
H18_15 C28_15 1_555 1_555
C29_15 C28_15 1_555 1_555
H19_15 C29_15 1_555 1_555
C30_15 C29_15 1_555 1_555
C31_15 C30_15 1_555 1_555
H20_15 C31_15 1_555 1_555
C32_15 C30_15 1_555 1_555
N11_15 C27_15 1_555 1_555
N12_15 C26_15 1_555 1_555
C33_15 H21_15 1_555 1_555
C34_15 C33_15 1_555 1_555
H22_15 C34_15 1_555 1_555
C35_15 C34_15 1_555 1_555
H23_15 C35_15 1_555 1_555
C36_15 C35_15 1_555 1_555
C37_15 C36_15 1_555 1_555
H24_15 C37_15 1_555 1_555
C38_15 N10_15 1_555 1_555
N13_15 C33_15 1_555 1_555
N14_15 C32_15 1_555 1_555
C57_23 N21_23 1_555 1_555
C58_35 H37_35 1_555 1_555
C59_35 C58_35 1_555 1_555
H38_35 C59_35 1_555 1_555
C60_35 C59_35 1_555 1_555
H39_35 C60_35 1_555 1_555
C61_35 C60_35 1_555 1_555
C62_35 C61_35 1_555 1_555
H40_35 C62_35 1_555 1_555
C63_35 C61_35 1_555 1_555
N21_23 Co16_13 1_555 1_555
N22_19 C58_35 1_555 1_555
N23_35 C63_35 1_555 1_555
S3_23 C57_23 1_555 1_555
C64_35 H41_35 1_555 1_555
C65_35 C64_35 1_555 1_555
H42_35 C65_35 1_555 1_555
C66_35 C65_35 1_555 1_555
H43_35 C66_35 1_555 1_555
C67_35 C66_35 1_555 1_555
C68_35 C67_35 1_555 1_555
H44_35 C68_35 1_555 1_555
C69_35 C67_35 1_555 1_555
N24_19 Co16_24 1_555 1_555
N25_35 C63_35 1_555 1_555
C70_35 H45_35 1_555 1_555
C71_35 C70_35 1_555 1_555
H46_35 C71_35 1_555 1_555
C72_35 C71_35 1_555 1_555
H47_35 C72_35 1_555 1_555
C73_35 C72_35 1_555 1_555
C74_35 C73_35 1_555 1_555
H48_35 C74_35 1_555 1_555
C75_35 N23_35 1_555 1_555
N26_35 C70_35 1_555 1_555
N27_35 C69_35 1_555 1_555
S4_23 C94_23 1_555 1_555
S5_23 C113_23 1_555 1_555
C152_23 N56_23 1_555 1_555
N56_23 Co16_24 1_555 1_555
S8_23 C152_23 1_555 1_555
C153_23 N57_23 1_555 1_555
N57_23 Co16_13 1_555 1_555
S9_23 C153_23 1_555 1_555
Co17_3 N13_15 1_555 1_555
Co16_18 N26_35 1_555 1_555
N71_19 Co16_13 1_555 1_555
C25_15 N9_15 1_555 1_555
Co16_24 N9_15 1_555 1_555
C31_15 N11_15 1_555 1_555
C32_15 N12_15 1_555 1_555
C36_15 C38_15 1_555 1_555
C37_15 N13_15 1_555 1_555
C38_15 N14_15 1_555 1_555
C62_35 N22_19 1_555 1_555
Co16_13 N22_19 1_555 1_555
C64_35 N24_19 1_555 1_555
C68_35 N24_19 1_555 1_555
C69_35 N25_35 1_555 1_555
C73_35 C75_35 1_555 1_555
C74_35 N26_35 1_555 1_555
C75_35 N27_35 1_555 1_555
N34_23 Co17_10 1_555 1_555
N41_23 Co17_10 1_555 1_555
C20_24 N8_24 1_555 1_555
C21_16 H13_16 1_555 1_555
C22_16 C21_16 1_555 1_555
H14_16 C22_16 1_555 1_555
C23_16 C22_16 1_555 1_555
H15_16 C23_16 1_555 1_555
C24_16 C23_16 1_555 1_555
C25_16 C24_16 1_555 1_555
H16_16 C25_16 1_555 1_555
C26_16 C24_16 1_555 1_555
N8_24 Co16_23 1_555 1_555
N9_16 C21_16 1_555 1_555
N10_16 C26_16 1_555 1_555
S2_24 C20_24 1_555 1_555
C27_16 H17_16 1_555 1_555
C28_16 C27_16 1_555 1_555
H18_16 C28_16 1_555 1_555
C29_16 C28_16 1_555 1_555
H19_16 C29_16 1_555 1_555
C30_16 C29_16 1_555 1_555
C31_16 C30_16 1_555 1_555
H20_16 C31_16 1_555 1_555
C32_16 C30_16 1_555 1_555
N11_16 C27_16 1_555 1_555
N12_16 C26_16 1_555 1_555
C33_16 H21_16 1_555 1_555
C34_16 C33_16 1_555 1_555
H22_16 C34_16 1_555 1_555
C35_16 C34_16 1_555 1_555
H23_16 C35_16 1_555 1_555
C36_16 C35_16 1_555 1_555
C37_16 C36_16 1_555 1_555
H24_16 C37_16 1_555 1_555
C38_16 N10_16 1_555 1_555
N13_16 C33_16 1_555 1_555
N14_16 C32_16 1_555 1_555
C58_36 H37_36 1_555 1_555
C59_36 C58_36 1_555 1_555
H38_36 C59_36 1_555 1_555
C60_36 C59_36 1_555 1_555
H39_36 C60_36 1_555 1_555
C61_36 C60_36 1_555 1_555
C62_36 C61_36 1_555 1_555
H40_36 C62_36 1_555 1_555
C63_36 C61_36 1_555 1_555
N22_20 C58_36 1_555 1_555
N23_36 C63_36 1_555 1_555
S3_24 C57_24 1_555 1_555
C64_36 H41_36 1_555 1_555
C65_36 C64_36 1_555 1_555
H42_36 C65_36 1_555 1_555
C66_36 C65_36 1_555 1_555
H43_36 C66_36 1_555 1_555
C67_36 C66_36 1_555 1_555
C68_36 C67_36 1_555 1_555
H44_36 C68_36 1_555 1_555
C69_36 C67_36 1_555 1_555
N24_20 Co16_23 1_555 1_555
N25_36 C63_36 1_555 1_555
C70_36 H45_36 1_555 1_555
C71_36 C70_36 1_555 1_555
H46_36 C71_36 1_555 1_555
C72_36 C71_36 1_555 1_555
H47_36 C72_36 1_555 1_555
C73_36 C72_36 1_555 1_555
C74_36 C73_36 1_555 1_555
H48_36 C74_36 1_555 1_555
C75_36 N23_36 1_555 1_555
N26_36 C70_36 1_555 1_555
N27_36 C69_36 1_555 1_555
C94_24 N34_24 1_555 1_555
Co16_19 N11_16 1_555 1_555
N34_24 Co16_19 1_555 1_555
S4_24 C94_24 1_555 1_555
C113_24 N41_24 1_555 1_555
N41_24 Co16_19 1_555 1_555
S5_24 C113_24 1_555 1_555
C152_24 N56_24 1_555 1_555
N56_24 Co16_23 1_555 1_555
S8_24 C152_24 1_555 1_555
S9_24 C153_24 1_555 1_555
Co16_15 N13_16 1_555 1_555
Co17_12 N26_36 1_555 1_555
N70_20 Co16_19 1_555 1_555
C25_16 N9_16 1_555 1_555
Co16_23 N9_16 1_555 1_555
C31_16 N11_16 1_555 1_555
C32_16 N12_16 1_555 1_555
C36_16 C38_16 1_555 1_555
C37_16 N13_16 1_555 1_555
C38_16 N14_16 1_555 1_555
C62_36 N22_20 1_555 1_555
C64_36 N24_20 1_555 1_555
C68_36 N24_20 1_555 1_555
C69_36 N25_36 1_555 1_555
C73_36 C75_36 1_555 1_555
C74_36 N26_36 1_555 1_555
C75_36 N27_36 1_555 1_555
N21_24 Co17_2 1_555 1_555
N57_24 Co17_2 1_555 1_555
C58_37 H37_37 1_555 1_555
C59_37 C58_37 1_555 1_555
H38_37 C59_37 1_555 1_555
C60_37 C59_37 1_555 1_555
H39_37 C60_37 1_555 1_555
C61_37 C60_37 1_555 1_555
C62_37 C61_37 1_555 1_555
H40_37 C62_37 1_555 1_555
C63_37 C61_37 1_555 1_555
N70_19 C58_37 1_555 1_555
N23_37 C63_37 1_555 1_555
C64_37 H41_37 1_555 1_555
C65_37 C64_37 1_555 1_555
H42_37 C65_37 1_555 1_555
C66_37 C65_37 1_555 1_555
H43_37 C66_37 1_555 1_555
C67_37 C66_37 1_555 1_555
C68_37 C67_37 1_555 1_555
H44_37 C68_37 1_555 1_555
C69_37 C67_37 1_555 1_555
N25_37 C63_37 1_555 1_555
C70_37 H45_37 1_555 1_555
C71_37 C70_37 1_555 1_555
H46_37 C71_37 1_555 1_555
C72_37 C71_37 1_555 1_555
H47_37 C72_37 1_555 1_555
C73_37 C72_37 1_555 1_555
C74_37 C73_37 1_555 1_555
H48_37 C74_37 1_555 1_555
C75_37 N23_37 1_555 1_555
N26_37 C70_37 1_555 1_555
N27_37 C69_37 1_555 1_555
Co17_8 N26_37 1_555 1_555
C62_37 N70_19 1_555 1_555
C64_37 N71_19 1_555 1_555
C68_37 N71_19 1_555 1_555
C69_37 N25_37 1_555 1_555
C73_37 C75_37 1_555 1_555
C74_37 N26_37 1_555 1_555
C75_37 N27_37 1_555 1_555
C58_38 H37_38 1_555 1_555
C59_38 C58_38 1_555 1_555
H38_38 C59_38 1_555 1_555
C60_38 C59_38 1_555 1_555
H39_38 C60_38 1_555 1_555
C61_38 C60_38 1_555 1_555
C62_38 C61_38 1_555 1_555
H40_38 C62_38 1_555 1_555
C63_38 C61_38 1_555 1_555
N70_18 C58_38 1_555 1_555
N23_38 C63_38 1_555 1_555
C64_38 H41_38 1_555 1_555
C65_38 C64_38 1_555 1_555
H42_38 C65_38 1_555 1_555
C66_38 C65_38 1_555 1_555
H43_38 C66_38 1_555 1_555
C67_38 C66_38 1_555 1_555
C68_38 C67_38 1_555 1_555
H44_38 C68_38 1_555 1_555
C69_38 C67_38 1_555 1_555
N25_38 C63_38 1_555 1_555
C70_38 H45_38 1_555 1_555
C71_38 C70_38 1_555 1_555
H46_38 C71_38 1_555 1_555
C72_38 C71_38 1_555 1_555
H47_38 C72_38 1_555 1_555
C73_38 C72_38 1_555 1_555
C74_38 C73_38 1_555 1_555
H48_38 C74_38 1_555 1_555
C75_38 N23_38 1_555 1_555
N26_38 C70_38 1_555 1_555
N27_38 C69_38 1_555 1_555
Co16_21 N26_38 1_555 1_555
C62_38 N70_18 1_555 1_555
C64_38 N71_18 1_555 1_555
C68_38 N71_18 1_555 1_555
C69_38 N25_38 1_555 1_555
C73_38 C75_38 1_555 1_555
C74_38 N26_38 1_555 1_555
C75_38 N27_38 1_555 1_555
C58_39 H37_39 1_555 1_555
C59_39 C58_39 1_555 1_555
H38_39 C59_39 1_555 1_555
C60_39 C59_39 1_555 1_555
H39_39 C60_39 1_555 1_555
C61_39 C60_39 1_555 1_555
C62_39 C61_39 1_555 1_555
H40_39 C62_39 1_555 1_555
C63_39 C61_39 1_555 1_555
N70_20 C58_39 1_555 1_555
N23_39 C63_39 1_555 1_555
C64_39 H41_39 1_555 1_555
C65_39 C64_39 1_555 1_555
H42_39 C65_39 1_555 1_555
C66_39 C65_39 1_555 1_555
H43_39 C66_39 1_555 1_555
C67_39 C66_39 1_555 1_555
C68_39 C67_39 1_555 1_555
H44_39 C68_39 1_555 1_555
C69_39 C67_39 1_555 1_555
N25_39 C63_39 1_555 1_555
C70_39 H45_39 1_555 1_555
C71_39 C70_39 1_555 1_555
H46_39 C71_39 1_555 1_555
C72_39 C71_39 1_555 1_555
H47_39 C72_39 1_555 1_555
C73_39 C72_39 1_555 1_555
C74_39 C73_39 1_555 1_555
H48_39 C74_39 1_555 1_555
C75_39 N23_39 1_555 1_555
N26_39 C70_39 1_555 1_555
N27_39 C69_39 1_555 1_555
Co17_7 N26_39 1_555 1_555
C62_39 N70_20 1_555 1_555
C64_39 N71_20 1_555 1_555
C68_39 N71_20 1_555 1_555
C69_39 N25_39 1_555 1_555
C73_39 C75_39 1_555 1_555
C74_39 N26_39 1_555 1_555
C75_39 N27_39 1_555 1_555
C58_40 H37_40 1_555 1_555
C59_40 C58_40 1_555 1_555
H38_40 C59_40 1_555 1_555
C60_40 C59_40 1_555 1_555
H39_40 C60_40 1_555 1_555
C61_40 C60_40 1_555 1_555
C62_40 C61_40 1_555 1_555
H40_40 C62_40 1_555 1_555
C63_40 C61_40 1_555 1_555
N70_17 C58_40 1_555 1_555
N23_40 C63_40 1_555 1_555
C64_40 H41_40 1_555 1_555
C65_40 C64_40 1_555 1_555
H42_40 C65_40 1_555 1_555
C66_40 C65_40 1_555 1_555
H43_40 C66_40 1_555 1_555
C67_40 C66_40 1_555 1_555
C68_40 C67_40 1_555 1_555
H44_40 C68_40 1_555 1_555
C69_40 C67_40 1_555 1_555
N25_40 C63_40 1_555 1_555
C70_40 H45_40 1_555 1_555
C71_40 C70_40 1_555 1_555
H46_40 C71_40 1_555 1_555
C72_40 C71_40 1_555 1_555
H47_40 C72_40 1_555 1_555
C73_40 C72_40 1_555 1_555
C74_40 C73_40 1_555 1_555
H48_40 C74_40 1_555 1_555
C75_40 N23_40 1_555 1_555
N26_40 C70_40 1_555 1_555
N27_40 C69_40 1_555 1_555
C62_40 N70_17 1_555 1_555
C64_40 N71_17 1_555 1_555
C68_40 N71_17 1_555 1_555
C69_40 N25_40 1_555 1_555
C73_40 C75_40 1_555 1_555
C74_40 N26_40 1_555 1_555
C75_40 N27_40 1_555 1_555
C20_25 N8_25 1_555 1_555
N8_25 Co16_11 1_555 1_555
S2_25 C20_25 1_555 1_555
C57_25 N21_25 1_555 1_555
C58_41 H37_41 1_555 1_555
C59_41 C58_41 1_555 1_555
H38_41 C59_41 1_555 1_555
C60_41 C59_41 1_555 1_555
H39_41 C60_41 1_555 1_555
C61_41 C60_41 1_555 1_555
C62_41 C61_41 1_555 1_555
H40_41 C62_41 1_555 1_555
C63_41 C61_41 1_555 1_555
N21_25 Co16_3 1_555 1_555
N22_21 C58_41 1_555 1_555
N23_41 C63_41 1_555 1_555
S3_25 C57_25 1_555 1_555
C64_41 H41_41 1_555 1_555
C65_41 C64_41 1_555 1_555
H42_41 C65_41 1_555 1_555
C66_41 C65_41 1_555 1_555
H43_41 C66_41 1_555 1_555
C67_41 C66_41 1_555 1_555
C68_41 C67_41 1_555 1_555
H44_41 C68_41 1_555 1_555
C69_41 C67_41 1_555 1_555
N24_21 Co16_11 1_555 1_555
N25_41 C63_41 1_555 1_555
C70_41 H45_41 1_555 1_555
C71_41 C70_41 1_555 1_555
H46_41 C71_41 1_555 1_555
C72_41 C71_41 1_555 1_555
H47_41 C72_41 1_555 1_555
C73_41 C72_41 1_555 1_555
C74_41 C73_41 1_555 1_555
H48_41 C74_41 1_555 1_555
C75_41 N23_41 1_555 1_555
N26_41 C70_41 1_555 1_555
N27_41 C69_41 1_555 1_555
C152_25 N56_25 1_555 1_555
N56_25 Co16_11 1_555 1_555
S8_25 C152_25 1_555 1_555
C153_25 N57_25 1_555 1_555
N57_25 Co16_3 1_555 1_555
S9_25 C153_25 1_555 1_555
Co16_7 N26_41 1_555 1_555
C62_41 N22_21 1_555 1_555
Co16_3 N22_21 1_555 1_555
C64_41 N24_21 1_555 1_555
C68_41 N24_21 1_555 1_555
C69_41 N25_41 1_555 1_555
C73_41 C75_41 1_555 1_555
C74_41 N26_41 1_555 1_555
C75_41 N27_41 1_555 1_555
C20_26 N8_26 1_555 1_555
N8_26 Co16_12 1_555 1_555
S2_26 C20_26 1_555 1_555
C57_26 N21_26 1_555 1_555
C58_42 H37_42 1_555 1_555
C59_42 C58_42 1_555 1_555
H38_42 C59_42 1_555 1_555
C60_42 C59_42 1_555 1_555
H39_42 C60_42 1_555 1_555
C61_42 C60_42 1_555 1_555
C62_42 C61_42 1_555 1_555
H40_42 C62_42 1_555 1_555
C63_42 C61_42 1_555 1_555
N21_26 Co17_15 1_555 1_555
N22_22 C58_42 1_555 1_555
N23_42 C63_42 1_555 1_555
S3_26 C57_26 1_555 1_555
C64_42 H41_42 1_555 1_555
C65_42 C64_42 1_555 1_555
H42_42 C65_42 1_555 1_555
C66_42 C65_42 1_555 1_555
H43_42 C66_42 1_555 1_555
C67_42 C66_42 1_555 1_555
C68_42 C67_42 1_555 1_555
H44_42 C68_42 1_555 1_555
C69_42 C67_42 1_555 1_555
N24_22 Co16_12 1_555 1_555
N25_42 C63_42 1_555 1_555
C70_42 H45_42 1_555 1_555
C71_42 C70_42 1_555 1_555
H46_42 C71_42 1_555 1_555
C72_42 C71_42 1_555 1_555
H47_42 C72_42 1_555 1_555
C73_42 C72_42 1_555 1_555
C74_42 C73_42 1_555 1_555
H48_42 C74_42 1_555 1_555
C75_42 N23_42 1_555 1_555
N26_42 C70_42 1_555 1_555
N27_42 C69_42 1_555 1_555
C152_26 N56_26 1_555 1_555
N56_26 Co16_12 1_555 1_555
S8_26 C152_26 1_555 1_555
C153_26 N57_26 1_555 1_555
N57_26 Co17_15 1_555 1_555
S9_26 C153_26 1_555 1_555
C62_42 N22_22 1_555 1_555
Co17_15 N22_22 1_555 1_555
C64_42 N24_22 1_555 1_555
C68_42 N24_22 1_555 1_555
C69_42 N25_42 1_555 1_555
C73_42 C75_42 1_555 1_555
C74_42 N26_42 1_555 1_555
C75_42 N27_42 1_555 1_555
N21_27 Co17_16 1_555 1_555
N57_27 Co17_16 1_555 1_555
C20_27 N8_27 1_555 1_555
N8_27 Co17_18 1_555 1_555
S2_27 C20_27 1_555 1_555
C58_43 H37_43 1_555 1_555
C59_43 C58_43 1_555 1_555
H38_43 C59_43 1_555 1_555
C60_43 C59_43 1_555 1_555
H39_43 C60_43 1_555 1_555
C61_43 C60_43 1_555 1_555
C62_43 C61_43 1_555 1_555
H40_43 C62_43 1_555 1_555
C63_43 C61_43 1_555 1_555
N22_23 C58_43 1_555 1_555
N23_43 C63_43 1_555 1_555
S3_27 C57_27 1_555 1_555
C64_43 H41_43 1_555 1_555
C65_43 C64_43 1_555 1_555
H42_43 C65_43 1_555 1_555
C66_43 C65_43 1_555 1_555
H43_43 C66_43 1_555 1_555
C67_43 C66_43 1_555 1_555
C68_43 C67_43 1_555 1_555
H44_43 C68_43 1_555 1_555
C69_43 C67_43 1_555 1_555
N24_23 Co17_18 1_555 1_555
N25_43 C63_43 1_555 1_555
C70_43 H45_43 1_555 1_555
C71_43 C70_43 1_555 1_555
H46_43 C71_43 1_555 1_555
C72_43 C71_43 1_555 1_555
H47_43 C72_43 1_555 1_555
C73_43 C72_43 1_555 1_555
C74_43 C73_43 1_555 1_555
H48_43 C74_43 1_555 1_555
C75_43 N23_43 1_555 1_555
N26_43 C70_43 1_555 1_555
N27_43 C69_43 1_555 1_555
C152_27 N56_27 1_555 1_555
N56_27 Co17_18 1_555 1_555
S8_27 C152_27 1_555 1_555
S9_27 C153_27 1_555 1_555
Co16_8 N26_43 1_555 1_555
C62_43 N22_23 1_555 1_555
C64_43 N24_23 1_555 1_555
C68_43 N24_23 1_555 1_555
C69_43 N25_43 1_555 1_555
C73_43 C75_43 1_555 1_555
C74_43 N26_43 1_555 1_555
C75_43 N27_43 1_555 1_555
N8_28 Co17_17 1_555 1_555
N56_28 Co17_17 1_555 1_555
S2_28 C20_28 1_555 1_555
C57_28 N21_28 1_555 1_555
C58_44 H37_44 1_555 1_555
C59_44 C58_44 1_555 1_555
H38_44 C59_44 1_555 1_555
C60_44 C59_44 1_555 1_555
H39_44 C60_44 1_555 1_555
C61_44 C60_44 1_555 1_555
C62_44 C61_44 1_555 1_555
H40_44 C62_44 1_555 1_555
C63_44 C61_44 1_555 1_555
N21_28 Co16_4 1_555 1_555
N22_24 C58_44 1_555 1_555
N23_44 C63_44 1_555 1_555
S3_28 C57_28 1_555 1_555
C64_44 H41_44 1_555 1_555
C65_44 C64_44 1_555 1_555
H42_44 C65_44 1_555 1_555
C66_44 C65_44 1_555 1_555
H43_44 C66_44 1_555 1_555
C67_44 C66_44 1_555 1_555
C68_44 C67_44 1_555 1_555
H44_44 C68_44 1_555 1_555
C69_44 C67_44 1_555 1_555
N25_44 C63_44 1_555 1_555
C70_44 H45_44 1_555 1_555
C71_44 C70_44 1_555 1_555
H46_44 C71_44 1_555 1_555
C72_44 C71_44 1_555 1_555
H47_44 C72_44 1_555 1_555
C73_44 C72_44 1_555 1_555
C74_44 C73_44 1_555 1_555
H48_44 C74_44 1_555 1_555
C75_44 N23_44 1_555 1_555
N26_44 C70_44 1_555 1_555
N27_44 C69_44 1_555 1_555
S8_28 C152_28 1_555 1_555
C153_28 N57_28 1_555 1_555
N57_28 Co16_4 1_555 1_555
S9_28 C153_28 1_555 1_555
Co17_21 N26_44 1_555 1_555
C62_44 N22_24 1_555 1_555
Co16_4 N22_24 1_555 1_555
C64_44 N24_24 1_555 1_555
C68_44 N24_24 1_555 1_555
C69_44 N25_44 1_555 1_555
C73_44 C75_44 1_555 1_555
C74_44 N26_44 1_555 1_555
C75_44 N27_44 1_555 1_555
C57_29 N21_29 1_555 1_555
N21_29 Co16_15 1_555 1_555
S3_29 C57_29 1_555 1_555
C94_25 N34_25 1_555 1_555
N34_25 Co17_12 1_555 1_555
S4_25 C94_25 1_555 1_555
C113_25 N41_25 1_555 1_555
N41_25 Co17_12 1_555 1_555
S5_25 C113_25 1_555 1_555
C153_29 N57_29 1_555 1_555
N57_29 Co16_15 1_555 1_555
S9_29 C153_29 1_555 1_555
N70_21 Co17_12 1_555 1_555
N71_21 Co16_15 1_555 1_555
C57_30 N21_30 1_555 1_555
N21_30 Co17_3 1_555 1_555
S3_30 C57_30 1_555 1_555
C94_26 N34_26 1_555 1_555
N34_26 Co16_18 1_555 1_555
S4_26 C94_26 1_555 1_555
C113_26 N41_26 1_555 1_555
N41_26 Co16_18 1_555 1_555
S5_26 C113_26 1_555 1_555
C153_30 N57_30 1_555 1_555
N57_30 Co17_3 1_555 1_555
S9_30 C153_30 1_555 1_555
N70_22 Co16_18 1_555 1_555
N71_22 Co17_3 1_555 1_555
C57_31 N21_31 1_555 1_555
N21_31 Co17_4 1_555 1_555
S3_31 C57_31 1_555 1_555
C94_27 N34_27 1_555 1_555
N34_27 Co17_11 1_555 1_555
S4_27 C94_27 1_555 1_555
C113_27 N41_27 1_555 1_555
N41_27 Co17_11 1_555 1_555
S5_27 C113_27 1_555 1_555
C153_31 N57_31 1_555 1_555
N57_31 Co17_4 1_555 1_555
S9_31 C153_31 1_555 1_555
N70_23 Co17_11 1_555 1_555
N71_23 Co17_4 1_555 1_555
S3_32 C57_32 1_555 1_555
S4_28 C94_28 1_555 1_555
S5_28 C113_28 1_555 1_555
S9_32 C153_32 1_555 1_555
N34_28 Co16_17 1_555 1_555
N41_28 Co16_17 1_555 1_555
N21_32 Co16_16 1_555 1_555
N57_32 Co16_16 1_555 1_555
C58_45 H37_45 1_555 1_555
C59_45 C58_45 1_555 1_555
H38_45 C59_45 1_555 1_555
C60_45 C59_45 1_555 1_555
H39_45 C60_45 1_555 1_555
C61_45 C60_45 1_555 1_555
C62_45 C61_45 1_555 1_555
H40_45 C62_45 1_555 1_555
C63_45 C61_45 1_555 1_555
N70_23 C58_45 1_555 1_555
N23_45 C63_45 1_555 1_555
C64_45 H41_45 1_555 1_555
C65_45 C64_45 1_555 1_555
H42_45 C65_45 1_555 1_555
C66_45 C65_45 1_555 1_555
H43_45 C66_45 1_555 1_555
C67_45 C66_45 1_555 1_555
C68_45 C67_45 1_555 1_555
H44_45 C68_45 1_555 1_555
C69_45 C67_45 1_555 1_555
N25_45 C63_45 1_555 1_555
C70_45 H45_45 1_555 1_555
C71_45 C70_45 1_555 1_555
H46_45 C71_45 1_555 1_555
C72_45 C71_45 1_555 1_555
H47_45 C72_45 1_555 1_555
C73_45 C72_45 1_555 1_555
C74_45 C73_45 1_555 1_555
H48_45 C74_45 1_555 1_555
C75_45 N23_45 1_555 1_555
N26_45 C70_45 1_555 1_555
N27_45 C69_45 1_555 1_555
Co16_21 N26_45 1_555 1_555
C62_45 N70_23 1_555 1_555
C64_45 N71_23 1_555 1_555
C68_45 N71_23 1_555 1_555
C69_45 N25_45 1_555 1_555
C73_45 C75_45 1_555 1_555
C74_45 N26_45 1_555 1_555
C75_45 N27_45 1_555 1_555
C58_46 H37_46 1_555 1_555
C59_46 C58_46 1_555 1_555
H38_46 C59_46 1_555 1_555
C60_46 C59_46 1_555 1_555
H39_46 C60_46 1_555 1_555
C61_46 C60_46 1_555 1_555
C62_46 C61_46 1_555 1_555
H40_46 C62_46 1_555 1_555
C63_46 C61_46 1_555 1_555
N70_22 C58_46 1_555 1_555
N23_46 C63_46 1_555 1_555
C64_46 H41_46 1_555 1_555
C65_46 C64_46 1_555 1_555
H42_46 C65_46 1_555 1_555
C66_46 C65_46 1_555 1_555
H43_46 C66_46 1_555 1_555
C67_46 C66_46 1_555 1_555
C68_46 C67_46 1_555 1_555
H44_46 C68_46 1_555 1_555
C69_46 C67_46 1_555 1_555
N25_46 C63_46 1_555 1_555
C70_46 H45_46 1_555 1_555
C71_46 C70_46 1_555 1_555
H46_46 C71_46 1_555 1_555
C72_46 C71_46 1_555 1_555
H47_46 C72_46 1_555 1_555
C73_46 C72_46 1_555 1_555
C74_46 C73_46 1_555 1_555
H48_46 C74_46 1_555 1_555
C75_46 N23_46 1_555 1_555
N26_46 C70_46 1_555 1_555
N27_46 C69_46 1_555 1_555
Co17_8 N26_46 1_555 1_555
C62_46 N70_22 1_555 1_555
C64_46 N71_22 1_555 1_555
C68_46 N71_22 1_555 1_555
C69_46 N25_46 1_555 1_555
C73_46 C75_46 1_555 1_555
C74_46 N26_46 1_555 1_555
C75_46 N27_46 1_555 1_555
C58_47 H37_47 1_555 1_555
C59_47 C58_47 1_555 1_555
H38_47 C59_47 1_555 1_555
C60_47 C59_47 1_555 1_555
H39_47 C60_47 1_555 1_555
C61_47 C60_47 1_555 1_555
C62_47 C61_47 1_555 1_555
H40_47 C62_47 1_555 1_555
C63_47 C61_47 1_555 1_555
N70_24 C58_47 1_555 1_555
N23_47 C63_47 1_555 1_555
C64_47 H41_47 1_555 1_555
C65_47 C64_47 1_555 1_555
H42_47 C65_47 1_555 1_555
C66_47 C65_47 1_555 1_555
H43_47 C66_47 1_555 1_555
C67_47 C66_47 1_555 1_555
C68_47 C67_47 1_555 1_555
H44_47 C68_47 1_555 1_555
C69_47 C67_47 1_555 1_555
N25_47 C63_47 1_555 1_555
C70_47 H45_47 1_555 1_555
C71_47 C70_47 1_555 1_555
H46_47 C71_47 1_555 1_555
C72_47 C71_47 1_555 1_555
H47_47 C72_47 1_555 1_555
C73_47 C72_47 1_555 1_555
C74_47 C73_47 1_555 1_555
H48_47 C74_47 1_555 1_555
C75_47 N23_47 1_555 1_555
N26_47 C70_47 1_555 1_555
N27_47 C69_47 1_555 1_555
C62_47 N70_24 1_555 1_555
C64_47 N71_24 1_555 1_555
C68_47 N71_24 1_555 1_555
C69_47 N25_47 1_555 1_555
C73_47 C75_47 1_555 1_555
C74_47 N26_47 1_555 1_555
C75_47 N27_47 1_555 1_555
C58_48 H37_48 1_555 1_555
C59_48 C58_48 1_555 1_555
H38_48 C59_48 1_555 1_555
C60_48 C59_48 1_555 1_555
H39_48 C60_48 1_555 1_555
C61_48 C60_48 1_555 1_555
C62_48 C61_48 1_555 1_555
H40_48 C62_48 1_555 1_555
C63_48 C61_48 1_555 1_555
N70_21 C58_48 1_555 1_555
N23_48 C63_48 1_555 1_555
C64_48 H41_48 1_555 1_555
C65_48 C64_48 1_555 1_555
H42_48 C65_48 1_555 1_555
C66_48 C65_48 1_555 1_555
H43_48 C66_48 1_555 1_555
C67_48 C66_48 1_555 1_555
C68_48 C67_48 1_555 1_555
H44_48 C68_48 1_555 1_555
C69_48 C67_48 1_555 1_555
N25_48 C63_48 1_555 1_555
C70_48 H45_48 1_555 1_555
C71_48 C70_48 1_555 1_555
H46_48 C71_48 1_555 1_555
C72_48 C71_48 1_555 1_555
H47_48 C72_48 1_555 1_555
C73_48 C72_48 1_555 1_555
C74_48 C73_48 1_555 1_555
H48_48 C74_48 1_555 1_555
C75_48 N23_48 1_555 1_555
N26_48 C70_48 1_555 1_555
N27_48 C69_48 1_555 1_555
Co17_7 N26_48 1_555 1_555
C62_48 N70_21 1_555 1_555
C64_48 N71_21 1_555 1_555
C68_48 N71_21 1_555 1_555
C69_48 N25_48 1_555 1_555
C73_48 C75_48 1_555 1_555
C74_48 N26_48 1_555 1_555
C75_48 N27_48 1_555 1_555
C94_29 N34_29 1_555 1_555
N34_29 Co16_8 1_555 1_555
S4_29 C94_29 1_555 1_555
C113_29 N41_29 1_555 1_555
N41_29 Co16_8 1_555 1_555
S5_29 C113_29 1_555 1_555
C94_30 N34_30 1_555 1_555
N34_30 Co17_21 1_555 1_555
S4_30 C94_30 1_555 1_555
C113_30 N41_30 1_555 1_555
N41_30 Co17_21 1_555 1_555
S5_30 C113_30 1_555 1_555
C94_31 N34_31 1_555 1_555
N34_31 Co16_7 1_555 1_555
S4_31 C94_31 1_555 1_555
C113_31 N41_31 1_555 1_555
N41_31 Co16_7 1_555 1_555
S5_31 C113_31 1_555 1_555
N34_32 Co17_22 1_555 1_555
N41_32 Co17_22 1_555 1_555
S4_32 C94_32 1_555 1_555
S5_32 C113_32 1_555 1_555
C20_29 N8_29 1_555 1_555
N8_29 Co16_21 1_555 1_555
S2_29 C20_29 1_555 1_555
C152_29 N56_29 1_555 1_555
N56_29 Co16_21 1_555 1_555
S8_29 C152_29 1_555 1_555
S2_30 C20_30 1_555 1_555
S8_30 C152_30 1_555 1_555
N8_30 Co16_22 1_555 1_555
N56_30 Co16_22 1_555 1_555
C20_31 N8_31 1_555 1_555
N8_31 Co17_7 1_555 1_555
S2_31 C20_31 1_555 1_555
C152_31 N56_31 1_555 1_555
N56_31 Co17_7 1_555 1_555
S8_31 C152_31 1_555 1_555
C20_32 N8_32 1_555 1_555
N8_32 Co17_8 1_555 1_555
S2_32 C20_32 1_555 1_555
C152_32 N56_32 1_555 1_555
N56_32 Co17_8 1_555 1_555
S8_32 C152_32 1_555 1_555

#END
