
###############################################################################
#
# This file contains modified crystal structure data generated from the
# MOF subset of the Cambridge Structural Database (CSD) v543 
# hosted by the Cambridge Crystallographic Data Centre (CCDC).
#
# This work is licensed under the Creative Commons
# Attribution-NonCommercial-ShareAlike 4.0 International License.
# To view a copy of this license, visit
# http://creativecommons.org/licenses/by-nc-sa/4.0/
# or send a letter to
# Creative Commons, PO Box 1866, Mountain View, CA 94042, USA.
#
# CIF created using the CSD Python API on 29 September 2022
# The structure has been converted into the P1 space group
# The structure has a 3D framework
# The original CSD entry RIVRIA is in the monoclinic crystal system
# The framework has been calculated to contain at least 10.0% void space
# The void calculation uses a probe of radius 1.32A, grid spacing 0.4
#
###############################################################################

data_RIVRIA
_chemical_formula_moiety         '(C144 H140 N20 O36 Zn8)n'
_symmetry_cell_setting           triclinic
_symmetry_space_group_name_H-M   'P 1'
_symmetry_Int_Tables_number      1
_space_group_name_Hall           'P 1'
loop_
_symmetry_equiv_pos_site_id
_symmetry_equiv_pos_as_xyz
1 x,y,z
_cell_length_a                   15.3952(2)
_cell_length_b                   18.0382(2)
_cell_length_c                   18.1058(2)
_cell_angle_alpha                90
_cell_angle_beta                 102.0270(10)
_cell_angle_gamma                90
_cell_volume                     4917.64
loop_
_atom_site_label
_atom_site_type_symbol
_atom_site_fract_x
_atom_site_fract_y
_atom_site_fract_z
Zn1 Zn 0.36338(3) 0.03105(3) 0.08992(3)
O5 O 0.23809(19) 0.01148(19) 0.05650(19)
O6 O 0.1939(2) 0.1286(2) 0.0306(3)
O9 O 0.43053(16) 0.04484(13) 0.01051(14)
C29 C 0.0857(3) 0.0297(3) 0.0171(3)
C30 C 0.1787(3) 0.0599(3) 0.0344(3)
H36 H 0.062835 0.174486 0.006474
Zn9 Zn 0.56362(3) 0.03215(3) 0.07155(3)
O21 O 0.39596(17) 0.12353(14) 0.14792(15)
H24 H 0.181420 0.038432 0.742692
N6 N 0.0194(3) 0.1528(3) 0.9767(3)
C43 C 0.0118(3) 0.0762(3) 0.9854(3)
O24 O 0.46778(18) 0.05446(15) 0.86143(15)
O1 O 0.45977(17) 0.61824(15) 0.35793(15)
O2 O 0.60404(17) 0.62353(14) 0.35208(15)
O3 O 0.53222(18) 0.94554(15) 0.13857(15)
O4 O 0.39828(17) 0.95388(14) 0.16709(15)
N1 N 0.6484(2) 0.8482(2) 0.20955(19)
H1 H 0.635733 0.879491 0.173056
N2 N 0.3654(2) 0.7431(2) 0.3340(2)
H2 H 0.356782 0.695945 0.332938
N5 N 0.3669(3) 0.7889(2) 0.0574(2)
C1 C 0.4950(2) 0.8596(2) 0.2260(2)
C2 C 0.5776(2) 0.8214(2) 0.2383(2)
C3 C 0.5828(3) 0.7540(2) 0.2765(2)
H4 H 0.634632 0.726293 0.281495
C4 C 0.5137(2) 0.7259(2) 0.3076(2)
C5 C 0.4348(2) 0.7681(2) 0.3021(2)
C6 C 0.4276(2) 0.8328(2) 0.2597(2)
H5 H 0.375046 0.859737 0.253375
C7 C 0.3082(3) 0.7850(3) 0.3673(3)
C8 C 0.2337(3) 0.7495(4) 0.3842(3)
H6 H 0.225062 0.699392 0.372988
C9 C 0.1733(5) 0.7861(5) 0.4166(4)
H7 H 0.123191 0.761791 0.425359
C10 C 0.1878(7) 0.8580(6) 0.4355(5)
H8 H 0.148574 0.882536 0.459778
C11 C 0.2603(7) 0.8963(5) 0.4194(5)
H9 H 0.267495 0.946577 0.430408
C12 C 0.3226(5) 0.8585(4) 0.3864(3)
H10 H 0.372796 0.882832 0.377668
C13 C 0.7383(3) 0.8298(2) 0.2335(2)
C14 C 0.7925(3) 0.8371(3) 0.1810(3)
H11 H 0.767715 0.851006 0.131619
C15 C 0.8818(3) 0.8238(3) 0.2016(3)
H12 H 0.917094 0.828221 0.165909
C16 C 0.9203(3) 0.8038(4) 0.2751(4)
H13 H 0.980954 0.794422 0.288708
C17 C 0.8677(4) 0.7979(4) 0.3277(4)
H14 H 0.893129 0.785646 0.377408
C18 C 0.7767(3) 0.8102(3) 0.3067(3)
H15 H 0.741465 0.805146 0.342356
C19 C 0.5269(2) 0.6508(2) 0.3424(2)
C20 C 0.4744(2) 0.9246(2) 0.1744(2)
C21 C 0.0364(3) 0.7255(3) 0.0645(3)
H16 H 0.003344 0.704579 0.020558
C22 C 0.0858(4) 0.6814(3) 0.1197(4)
H17 H 0.085088 0.630269 0.113160
C23 C 0.1362(4) 0.7116(4) 0.1843(3)
H18 H 0.170664 0.681140 0.220322
C24 C 0.1354(4) 0.7873(4) 0.1954(3)
H19 H 0.168499 0.807821 0.239533
C25 C 0.0872(3) 0.8313(3) 0.1429(3)
H20 H 0.086956 0.882169 0.151257
C26 C 0.0368(3) 0.8022(3) 0.0755(3)
C28 C 0.0714(3) 0.9563(3) 0.0308(3)
H21 H 0.120017 0.927031 0.051972
C34 C 0.4053(3) 0.8319(2) 0.0146(2)
H29 H 0.457335 0.815174 0.001822
C35 C 0.4042(4) 0.7173(3) 0.0831(3)
H30 H 0.367676 0.694043 0.113353
H31 H 0.406549 0.686619 0.040259
H32 H 0.463118 0.723973 0.112722
C36 C 0.2847(3) 0.8106(3) 0.0789(3)
H33 H 0.266967 0.772627 0.109832
H34 H 0.293697 0.856254 0.106743
H35 H 0.239123 0.817336 0.034354
Zn5 Zn 0.63662(3) 0.53105(3) 0.41008(3)
Zn10 Zn 0.43638(3) 0.53215(3) 0.42845(3)
Zn2 Zn 0.43638(3) 0.96785(3) 0.92845(3)
O7 O 0.30991(19) 0.98378(17) 0.85838(17)
O8 O 0.37603(17) 0.89295(15) 0.99064(15)
N4 N 0.1627(3) 0.9637(3) 0.8188(2)
C31 C 0.2379(3) 0.9640(3) 0.8704(3)
H22 H 0.235809 0.948117 0.918907
C32 C 0.1618(4) 0.9879(4) 0.7421(3)
H23 H 0.102497 0.984167 0.712397
H25 H 0.200757 0.957018 0.720441
C33 C 0.0793(4) 0.9400(5) 0.8366(4)
H26 H 0.032819 0.943689 0.792238
H27 H 0.084467 0.889475 0.853683
H28 H 0.065420 0.971061 0.875591
O20 O 0.45977(17) 0.88176(15) 0.85793(15)
O26 O 0.56947(16) 0.95516(13) 0.98949(14)
O16 O 0.69009(19) 0.01622(17) 0.14162(17)
O17 O 0.62397(17) 0.10705(15) 0.00936(15)
N9 N 0.8373(3) 0.0363(3) 0.1812(2)
C67 C 0.7621(3) 0.0360(3) 0.1296(3)
H57 H 0.764191 0.051883 0.081093
C68 C 0.8382(4) 0.0121(4) 0.2579(3)
H58 H 0.897503 0.015833 0.287603
H60 H 0.799243 0.042982 0.279559
C69 C 0.9207(4) 0.0600(5) 0.1634(4)
H61 H 0.967181 0.056311 0.207762
H62 H 0.915533 0.110525 0.146317
H63 H 0.934580 0.028939 0.124409
O19 O 0.54023(17) 0.11824(15) 0.14207(15)
C37 C 0.9636(3) 0.2745(3) 0.9355(3)
H37 H 0.996656 0.295421 0.979442
C38 C 0.9142(4) 0.3186(3) 0.8803(4)
H38 H 0.914912 0.369731 0.886840
C39 C 0.8638(4) 0.2884(4) 0.8157(3)
H39 H 0.829336 0.318860 0.779678
C40 C 0.8646(4) 0.2127(4) 0.8046(3)
H40 H 0.831501 0.192179 0.760467
C41 C 0.9128(3) 0.1687(3) 0.8571(3)
H41 H 0.913044 0.117831 0.848743
C42 C 0.9632(3) 0.1978(3) 0.9245(3)
C44 C 0.9286(3) 0.0437(3) 0.9692(3)
H42 H 0.879983 0.072969 0.948028
O12 O 0.54023(17) 0.38176(15) 0.64207(15)
O13 O 0.39596(17) 0.37647(14) 0.64792(15)
O15 O 0.60172(17) 0.04612(14) 0.83291(15)
N7 N 0.3516(2) 0.1518(2) 0.79045(19)
H43 H 0.364267 0.120509 0.826944
N8 N 0.6346(2) 0.2569(2) 0.6660(2)
H44 H 0.643218 0.304055 0.667062
N10 N 0.6331(3) 0.2111(2) 0.9426(2)
C47 C 0.5050(2) 0.1404(2) 0.7740(2)
C48 C 0.4224(2) 0.1786(2) 0.7617(2)
C49 C 0.4172(3) 0.2460(2) 0.7235(2)
H45 H 0.365368 0.273707 0.718505
C50 C 0.4863(2) 0.2741(2) 0.6924(2)
C51 C 0.5652(2) 0.2319(2) 0.6979(2)
C52 C 0.5724(2) 0.1672(2) 0.7403(2)
H46 H 0.624954 0.140263 0.746625
C53 C 0.6918(3) 0.2150(3) 0.6327(3)
C54 C 0.7663(3) 0.2505(4) 0.6158(3)
H47 H 0.774938 0.300608 0.627012
C55 C 0.8267(5) 0.2139(5) 0.5834(4)
H48 H 0.876809 0.238209 0.574641
C56 C 0.8122(7) 0.1420(6) 0.5645(5)
H49 H 0.851426 0.117464 0.540222
C57 C 0.7397(7) 0.1037(5) 0.5806(5)
H50 H 0.732505 0.053423 0.569592
C58 C 0.6774(5) 0.1415(4) 0.6136(3)
H51 H 0.627204 0.117168 0.622332
C59 C 0.2617(3) 0.1702(2) 0.7665(2)
C60 C 0.2075(3) 0.1629(3) 0.8190(3)
H52 H 0.232285 0.148994 0.868381
C61 C 0.1182(3) 0.1762(3) 0.7984(3)
H53 H 0.082906 0.171779 0.834091
C62 C 0.0797(3) 0.1962(4) 0.7249(4)
H54 H 0.019046 0.205578 0.711292
C63 C 0.1323(4) 0.2021(4) 0.6723(4)
H55 H 0.106871 0.214354 0.622592
C64 C 0.2233(3) 0.1898(3) 0.6933(3)
H56 H 0.258535 0.194854 0.657644
C65 C 0.4731(2) 0.3492(2) 0.6576(2)
C66 C 0.5256(2) 0.0754(2) 0.8256(2)
C70 C 0.5947(3) 0.1681(2) 0.9854(2)
H64 H 0.542665 0.184826 0.998178
C71 C 0.5958(4) 0.2827(3) 0.9169(3)
H65 H 0.632324 0.305957 0.886647
H66 H 0.593451 0.313381 0.959741
H67 H 0.536882 0.276027 0.887278
C72 C 0.7153(3) 0.1894(3) 0.9211(3)
H68 H 0.733033 0.227373 0.890168
H69 H 0.706303 0.143746 0.893257
H70 H 0.760877 0.182664 0.965646
Zn6 Zn 0.36338(3) 0.46895(3) 0.58992(3)
Zn8 Zn 0.56362(3) 0.46785(3) 0.57155(3)
N3 N 0.9806(3) 0.8472(3) 0.0233(3)
C27 C 0.9882(3) 0.9238(3) 0.0146(3)
H59 H 0.818580 0.961568 0.257308
H3 H 0.937165 0.825514 0.993526
O10 O 0.76191(19) 0.98852(19) 0.94350(19)
O11 O 0.8061(2) 0.8714(2) 0.9694(3)
C45 C 0.9143(3) 0.9703(3) 0.9829(3)
C46 C 0.8213(3) 0.9401(3) 0.9656(3)
Zn3 Zn 0.63662(3) 0.96895(3) 0.91008(3)
O22 O 0.60404(17) 0.87647(14) 0.85208(15)
N3_2 N 0.0194(3) 0.3472(3) 0.4767(3)
H3_2 H 0.062835 0.325514 0.506474
C27_2 C 0.0118(3) 0.4238(3) 0.4854(3)
O10_2 O 0.23809(19) 0.48852(19) 0.55650(19)
O11_2 O 0.1939(2) 0.3714(2) 0.5306(3)
C37_2 C 0.0364(3) 0.7745(3) 0.5645(3)
H37_2 H 0.003344 0.795421 0.520558
C38_2 C 0.0858(4) 0.8186(3) 0.6197(4)
H38_2 H 0.085088 0.869731 0.613160
C39_2 C 0.1362(4) 0.7884(4) 0.6843(3)
H39_2 H 0.170664 0.818860 0.720322
C40_2 C 0.1354(4) 0.7127(4) 0.6954(3)
H40_2 H 0.168499 0.692179 0.739533
C41_2 C 0.0872(3) 0.6687(3) 0.6429(3)
H41_2 H 0.086956 0.617831 0.651257
C42_2 C 0.0368(3) 0.6978(3) 0.5755(3)
C44_2 C 0.0714(3) 0.5437(3) 0.5308(3)
H42_2 H 0.120017 0.572969 0.551972
C45_2 C 0.0857(3) 0.4703(3) 0.5171(3)
C46_2 C 0.1787(3) 0.4401(3) 0.5344(3)
O14 O 0.53222(18) 0.55446(15) 0.63857(15)
O15_2 O 0.39828(17) 0.54612(14) 0.66709(15)
O16_2 O 0.30991(19) 0.51622(17) 0.35838(17)
O17_2 O 0.37603(17) 0.60705(15) 0.49064(15)
O18 O 0.43053(16) 0.45516(13) 0.51051(14)
N7_2 N 0.6484(2) 0.6518(2) 0.70955(19)
H43_2 H 0.635733 0.620509 0.673056
N8_2 N 0.3654(2) 0.7569(2) 0.8340(2)
H44_2 H 0.356782 0.804055 0.832938
N9_2 N 0.1627(3) 0.5363(3) 0.3188(2)
N10_2 N 0.3669(3) 0.7111(2) 0.5574(2)
C47_2 C 0.4950(2) 0.6404(2) 0.7260(2)
C48_2 C 0.5776(2) 0.6786(2) 0.7383(2)
C49_2 C 0.5828(3) 0.7460(2) 0.7765(2)
H45_2 H 0.634632 0.773707 0.781495
C50_2 C 0.5137(2) 0.7741(2) 0.8076(2)
C51_2 C 0.4348(2) 0.7319(2) 0.8021(2)
C52_2 C 0.4276(2) 0.6672(2) 0.7597(2)
H46_2 H 0.375046 0.640263 0.753375
C53_2 C 0.3082(3) 0.7150(3) 0.8673(3)
C54_2 C 0.2337(3) 0.7505(4) 0.8842(3)
H47_2 H 0.225062 0.800608 0.872988
C55_2 C 0.1733(5) 0.7139(5) 0.9166(4)
H48_2 H 0.123191 0.738209 0.925359
C56_2 C 0.1878(7) 0.6420(6) 0.9355(5)
H49_2 H 0.148574 0.617464 0.959778
C57_2 C 0.2603(7) 0.6037(5) 0.9194(5)
H50_2 H 0.267495 0.553423 0.930408
C58_2 C 0.3226(5) 0.6415(4) 0.8864(3)
H51_2 H 0.372796 0.617168 0.877668
C59_2 C 0.7383(3) 0.6702(2) 0.7335(2)
C60_2 C 0.7925(3) 0.6629(3) 0.6810(3)
H52_2 H 0.767715 0.648994 0.631619
C61_2 C 0.8818(3) 0.6762(3) 0.7016(3)
H53_2 H 0.917094 0.671779 0.665909
C62_2 C 0.9203(3) 0.6962(4) 0.7751(4)
H54_2 H 0.980954 0.705578 0.788708
C63_2 C 0.8677(4) 0.7021(4) 0.8277(4)
H55_2 H 0.893129 0.714354 0.877408
C64_2 C 0.7767(3) 0.6898(3) 0.8067(3)
H56_2 H 0.741465 0.694854 0.842356
C65_2 C 0.5269(2) 0.8492(2) 0.8424(2)
C66_2 C 0.4744(2) 0.5754(2) 0.6744(2)
C67_2 C 0.2379(3) 0.5360(3) 0.3704(3)
H57_2 H 0.235809 0.551883 0.418907
C68_2 C 0.1618(4) 0.5121(4) 0.2421(3)
H58_2 H 0.102497 0.515833 0.212397
H59_2 H 0.181420 0.461568 0.242692
H60_2 H 0.200757 0.542982 0.220441
C69_2 C 0.0793(4) 0.5600(5) 0.3366(4)
H61_2 H 0.032819 0.556311 0.292238
H62_2 H 0.084467 0.610525 0.353683
H63_2 H 0.065420 0.528939 0.375591
C70_2 C 0.4053(3) 0.6681(2) 0.5146(2)
H64_2 H 0.457335 0.684826 0.501822
C71_2 C 0.4042(4) 0.7827(3) 0.5831(3)
H65_2 H 0.367676 0.805957 0.613353
H66_2 H 0.406549 0.813381 0.540259
H67_2 H 0.463118 0.776027 0.612722
C72_2 C 0.2847(3) 0.6894(3) 0.5789(3)
H68_2 H 0.266967 0.727373 0.609832
H69_2 H 0.293697 0.643746 0.606743
H70_2 H 0.239123 0.682664 0.534354
O23 O 0.46778(18) 0.44554(15) 0.36143(15)
O25 O 0.56947(16) 0.54484(13) 0.48949(14)
O4_2 O 0.60172(17) 0.45388(14) 0.33291(15)
O5_2 O 0.76191(19) 0.51148(19) 0.44350(19)
O6_2 O 0.8061(2) 0.6286(2) 0.4694(3)
O7_2 O 0.69009(19) 0.48378(17) 0.64162(17)
O8_2 O 0.62397(17) 0.39295(15) 0.50936(15)
N1_2 N 0.3516(2) 0.3482(2) 0.29045(19)
H1_2 H 0.364267 0.379491 0.326944
N2_2 N 0.6346(2) 0.2431(2) 0.1660(2)
H2_2 H 0.643218 0.195945 0.167062
N4_2 N 0.8373(3) 0.4637(3) 0.6812(2)
N5_2 N 0.6331(3) 0.2889(2) 0.4426(2)
C1_2 C 0.5050(2) 0.3596(2) 0.2740(2)
C2_2 C 0.4224(2) 0.3214(2) 0.2617(2)
C3_2 C 0.4172(3) 0.2540(2) 0.2235(2)
H4_2 H 0.365368 0.226293 0.218505
C4_2 C 0.4863(2) 0.2259(2) 0.1924(2)
C5_2 C 0.5652(2) 0.2681(2) 0.1979(2)
C6_2 C 0.5724(2) 0.3328(2) 0.2403(2)
H5_2 H 0.624954 0.359737 0.246625
C7_2 C 0.6918(3) 0.2850(3) 0.1327(3)
C8_2 C 0.7663(3) 0.2495(4) 0.1158(3)
H6_2 H 0.774938 0.199392 0.127012
C9_2 C 0.8267(5) 0.2861(5) 0.0834(4)
H7_2 H 0.876809 0.261791 0.074641
C10_2 C 0.8122(7) 0.3580(6) 0.0645(5)
H8_2 H 0.851426 0.382536 0.040222
C11_2 C 0.7397(7) 0.3963(5) 0.0806(5)
H9_2 H 0.732505 0.446577 0.069592
C12_2 C 0.6774(5) 0.3585(4) 0.1136(3)
H10_2 H 0.627204 0.382832 0.122332
C13_2 C 0.2617(3) 0.3298(2) 0.2665(2)
C14_2 C 0.2075(3) 0.3371(3) 0.3190(3)
H11_2 H 0.232285 0.351006 0.368381
C15_2 C 0.1182(3) 0.3238(3) 0.2984(3)
H12_2 H 0.082906 0.328221 0.334091
C16_2 C 0.0797(3) 0.3038(4) 0.2249(4)
H13_2 H 0.019046 0.294422 0.211292
C17_2 C 0.1323(4) 0.2979(4) 0.1723(4)
H14_2 H 0.106871 0.285646 0.122592
C18_2 C 0.2233(3) 0.3102(3) 0.1933(3)
H15_2 H 0.258535 0.305146 0.157644
C19_2 C 0.4731(2) 0.1508(2) 0.1576(2)
C20_2 C 0.5256(2) 0.4246(2) 0.3256(2)
C21_2 C 0.9636(3) 0.2255(3) 0.4355(3)
H16_2 H 0.996656 0.204579 0.479442
C22_2 C 0.9142(4) 0.1814(3) 0.3803(4)
H17_2 H 0.914912 0.130269 0.386840
C23_2 C 0.8638(4) 0.2116(4) 0.3157(3)
H18_2 H 0.829336 0.181140 0.279678
C24_2 C 0.8646(4) 0.2873(4) 0.3046(3)
H19_2 H 0.831501 0.307821 0.260467
C25_2 C 0.9128(3) 0.3313(3) 0.3571(3)
H20_2 H 0.913044 0.382169 0.348743
C26_2 C 0.9632(3) 0.3022(3) 0.4245(3)
C28_2 C 0.9286(3) 0.4563(3) 0.4692(3)
H21_2 H 0.879983 0.427031 0.448028
C29_2 C 0.9143(3) 0.5297(3) 0.4829(3)
C30_2 C 0.8213(3) 0.5599(3) 0.4656(3)
C31_2 C 0.7621(3) 0.4640(3) 0.6296(3)
H22_2 H 0.764191 0.448117 0.581093
C32_2 C 0.8382(4) 0.4879(4) 0.7579(3)
H23_2 H 0.897503 0.484167 0.787603
H24_2 H 0.818580 0.538432 0.757308
H25_2 H 0.799243 0.457018 0.779559
C33_2 C 0.9207(4) 0.4400(5) 0.6634(4)
H26_2 H 0.967181 0.443689 0.707762
H27_2 H 0.915533 0.389475 0.646317
H28_2 H 0.934580 0.471061 0.624409
C34_2 C 0.5947(3) 0.3319(2) 0.4854(2)
H29_2 H 0.542665 0.315174 0.498178
C35_2 C 0.5958(4) 0.2173(3) 0.4169(3)
H30_2 H 0.632324 0.194043 0.386647
H31_2 H 0.593451 0.186619 0.459741
H32_2 H 0.536882 0.223973 0.387278
C36_2 C 0.7153(3) 0.3106(3) 0.4211(3)
H33_2 H 0.733033 0.272627 0.390168
H34_2 H 0.706303 0.356254 0.393257
H35_2 H 0.760877 0.317336 0.465646
N6_2 N 0.9806(3) 0.6528(3) 0.5233(3)
H36_2 H 0.937165 0.674486 0.493526
C43_2 C 0.9882(3) 0.5762(3) 0.5146(3)
loop_
_geom_bond_atom_site_label_1
_geom_bond_atom_site_label_2
_geom_bond_site_symmetry_1
_geom_bond_site_symmetry_2
O5 Zn1 1_555 1_555
O6 C30 1_555 1_555
O9 Zn1 1_555 1_555
C30 O5 1_555 1_555
O21 Zn1 1_555 1_555
O9 Zn9 1_555 1_555
C29 C30 1_555 1_555
N6 C43 1_555 1_555
O1 C19 1_555 1_555
O2 C19 1_555 1_555
O3 C20 1_555 1_555
O4 C20 1_555 1_555
N1 H1 1_555 1_555
N2 H2 1_555 1_555
N5 C34 1_555 1_555
C1 C2 1_555 1_555
C2 N1 1_555 1_555
C3 C2 1_555 1_555
H4 C3 1_555 1_555
C4 C3 1_555 1_555
C5 N2 1_555 1_555
C6 C1 1_555 1_555
H5 C6 1_555 1_555
C7 N2 1_555 1_555
C8 C7 1_555 1_555
H6 C8 1_555 1_555
C9 C8 1_555 1_555
H7 C9 1_555 1_555
C10 C9 1_555 1_555
H8 C10 1_555 1_555
C11 C10 1_555 1_555
H9 C11 1_555 1_555
C12 C7 1_555 1_555
H10 C12 1_555 1_555
C13 N1 1_555 1_555
C14 C13 1_555 1_555
H11 C14 1_555 1_555
C15 C14 1_555 1_555
H12 C15 1_555 1_555
C16 C15 1_555 1_555
H13 C16 1_555 1_555
C17 C16 1_555 1_555
H14 C17 1_555 1_555
C18 C13 1_555 1_555
H15 C18 1_555 1_555
C19 C4 1_555 1_555
C20 C1 1_555 1_555
C21 H16 1_555 1_555
C22 C21 1_555 1_555
H17 C22 1_555 1_555
C23 C22 1_555 1_555
H18 C23 1_555 1_555
C24 C23 1_555 1_555
H19 C24 1_555 1_555
C25 C24 1_555 1_555
H20 C25 1_555 1_555
H21 C28 1_555 1_555
H29 C34 1_555 1_555
C35 N5 1_555 1_555
H30 C35 1_555 1_555
H31 C35 1_555 1_555
H32 C35 1_555 1_555
C36 N5 1_555 1_555
H33 C36 1_555 1_555
H34 C36 1_555 1_555
H35 C36 1_555 1_555
Zn5 O2 1_555 1_555
Zn10 O1 1_555 1_555
C4 C5 1_555 1_555
C5 C6 1_555 1_555
C11 C12 1_555 1_555
C17 C18 1_555 1_555
C21 C26 1_555 1_555
C25 C26 1_555 1_555
Zn2 O7 1_555 1_555
O7 C31 1_555 1_555
O8 Zn2 1_555 1_555
N4 C31 1_555 1_555
C31 H22 1_555 1_555
C32 N4 1_555 1_555
H23 C32 1_555 1_555
H25 C32 1_555 1_555
C33 N4 1_555 1_555
H26 C33 1_555 1_555
H27 C33 1_555 1_555
H28 C33 1_555 1_555
O20 Zn2 1_555 1_555
O26 Zn2 1_555 1_555
Zn9 O16 1_555 1_555
O16 C67 1_555 1_555
O17 Zn9 1_555 1_555
N9 C67 1_555 1_555
C67 H57 1_555 1_555
C68 N9 1_555 1_555
H58 C68 1_555 1_555
H60 C68 1_555 1_555
C69 N9 1_555 1_555
H61 C69 1_555 1_555
H62 C69 1_555 1_555
H63 C69 1_555 1_555
O19 Zn9 1_555 1_555
C37 H37 1_555 1_555
C38 C37 1_555 1_555
H38 C38 1_555 1_555
C39 C38 1_555 1_555
H39 C39 1_555 1_555
C40 C39 1_555 1_555
H40 C40 1_555 1_555
C41 C40 1_555 1_555
H41 C41 1_555 1_555
H42 C44 1_555 1_555
O12 C65 1_555 1_555
O13 C65 1_555 1_555
O24 C66 1_555 1_555
N7 H43 1_555 1_555
N8 H44 1_555 1_555
N10 C70 1_555 1_555
C47 C48 1_555 1_555
C48 N7 1_555 1_555
C49 C48 1_555 1_555
H45 C49 1_555 1_555
C50 C49 1_555 1_555
C51 N8 1_555 1_555
C52 C47 1_555 1_555
H46 C52 1_555 1_555
C53 N8 1_555 1_555
C54 C53 1_555 1_555
H47 C54 1_555 1_555
C55 C54 1_555 1_555
H48 C55 1_555 1_555
C56 C55 1_555 1_555
H49 C56 1_555 1_555
C57 C56 1_555 1_555
H50 C57 1_555 1_555
C58 C53 1_555 1_555
H51 C58 1_555 1_555
C59 N7 1_555 1_555
C60 C59 1_555 1_555
H52 C60 1_555 1_555
C61 C60 1_555 1_555
H53 C61 1_555 1_555
C62 C61 1_555 1_555
H54 C62 1_555 1_555
C63 C62 1_555 1_555
H55 C63 1_555 1_555
C64 C59 1_555 1_555
H56 C64 1_555 1_555
C65 C50 1_555 1_555
C66 O15 1_555 1_555
H64 C70 1_555 1_555
C71 N10 1_555 1_555
H65 C71 1_555 1_555
H66 C71 1_555 1_555
H67 C71 1_555 1_555
C72 N10 1_555 1_555
H68 C72 1_555 1_555
H69 C72 1_555 1_555
H70 C72 1_555 1_555
Zn6 O13 1_555 1_555
Zn8 O12 1_555 1_555
C37 C42 1_555 1_555
C41 C42 1_555 1_555
C47 C66 1_555 1_555
C50 C51 1_555 1_555
C51 C52 1_555 1_555
C57 C58 1_555 1_555
C63 C64 1_555 1_555
C27 N3 1_555 1_555
O10 C46 1_555 1_555
O11 C46 1_555 1_555
C46 C45 1_555 1_555
Zn3 O10 1_555 1_555
O26 Zn3 1_555 1_555
O22 Zn3 1_555 1_555
N3_2 H3_2 1_555 1_555
C27_2 N3_2 1_555 1_555
O10_2 C46_2 1_555 1_555
O11_2 C46_2 1_555 1_555
C37_2 H37_2 1_555 1_555
C38_2 C37_2 1_555 1_555
H38_2 C38_2 1_555 1_555
C39_2 C38_2 1_555 1_555
H39_2 C39_2 1_555 1_555
C40_2 C39_2 1_555 1_555
H40_2 C40_2 1_555 1_555
C41_2 C40_2 1_555 1_555
H41_2 C41_2 1_555 1_555
H42_2 C44_2 1_555 1_555
C45_2 C27_2 1_555 1_555
C46_2 C45_2 1_555 1_555
Zn6 O10_2 1_555 1_555
Zn10 O16_2 1_555 1_555
O20 C65_2 1_555 1_555
O22 C65_2 1_555 1_555
O14 C66_2 1_555 1_555
O15_2 Zn6 1_555 1_555
O16_2 C67_2 1_555 1_555
O17_2 Zn10 1_555 1_555
O18 Zn6 1_555 1_555
N7_2 H43_2 1_555 1_555
N8_2 H44_2 1_555 1_555
N9_2 C67_2 1_555 1_555
N10_2 C70_2 1_555 1_555
C47_2 C48_2 1_555 1_555
C48_2 N7_2 1_555 1_555
C49_2 C48_2 1_555 1_555
H45_2 C49_2 1_555 1_555
C50_2 C49_2 1_555 1_555
C51_2 N8_2 1_555 1_555
C52_2 C47_2 1_555 1_555
H46_2 C52_2 1_555 1_555
C53_2 N8_2 1_555 1_555
C54_2 C53_2 1_555 1_555
H47_2 C54_2 1_555 1_555
C55_2 C54_2 1_555 1_555
H48_2 C55_2 1_555 1_555
C56_2 C55_2 1_555 1_555
H49_2 C56_2 1_555 1_555
C57_2 C56_2 1_555 1_555
H50_2 C57_2 1_555 1_555
C58_2 C53_2 1_555 1_555
H51_2 C58_2 1_555 1_555
C59_2 N7_2 1_555 1_555
C60_2 C59_2 1_555 1_555
H52_2 C60_2 1_555 1_555
C61_2 C60_2 1_555 1_555
H53_2 C61_2 1_555 1_555
C62_2 C61_2 1_555 1_555
H54_2 C62_2 1_555 1_555
C63_2 C62_2 1_555 1_555
H55_2 C63_2 1_555 1_555
C64_2 C59_2 1_555 1_555
H56_2 C64_2 1_555 1_555
C65_2 C50_2 1_555 1_555
C66_2 O15_2 1_555 1_555
C67_2 H57_2 1_555 1_555
C68_2 N9_2 1_555 1_555
H58_2 C68_2 1_555 1_555
H59_2 C68_2 1_555 1_555
H60_2 C68_2 1_555 1_555
C69_2 N9_2 1_555 1_555
H61_2 C69_2 1_555 1_555
H62_2 C69_2 1_555 1_555
H63_2 C69_2 1_555 1_555
C70_2 O17_2 1_555 1_555
H64_2 C70_2 1_555 1_555
C71_2 N10_2 1_555 1_555
H65_2 C71_2 1_555 1_555
H66_2 C71_2 1_555 1_555
H67_2 C71_2 1_555 1_555
C72_2 N10_2 1_555 1_555
H68_2 C72_2 1_555 1_555
H69_2 C72_2 1_555 1_555
H70_2 C72_2 1_555 1_555
Zn8 O14 1_555 1_555
O23 Zn10 1_555 1_555
O25 Zn10 1_555 1_555
C37_2 C42_2 1_555 1_555
C41_2 C42_2 1_555 1_555
C44_2 C45_2 1_555 1_555
Zn10 O18 1_555 1_555
O18 Zn8 1_555 1_555
C47_2 C66_2 1_555 1_555
C50_2 C51_2 1_555 1_555
C51_2 C52_2 1_555 1_555
C57_2 C58_2 1_555 1_555
C63_2 C64_2 1_555 1_555
Zn8 O25 1_555 1_555
Zn5 O4_2 1_555 1_555
Zn8 O7_2 1_555 1_555
O19 C19_2 1_555 1_555
O21 C19_2 1_555 1_555
O23 C20_2 1_555 1_555
O4_2 C20_2 1_555 1_555
O5_2 Zn5 1_555 1_555
O6_2 C30_2 1_555 1_555
O7_2 C31_2 1_555 1_555
O8_2 Zn8 1_555 1_555
O25 Zn5 1_555 1_555
N1_2 H1_2 1_555 1_555
N2_2 H2_2 1_555 1_555
N4_2 C31_2 1_555 1_555
N5_2 C34_2 1_555 1_555
C1_2 C2_2 1_555 1_555
C2_2 N1_2 1_555 1_555
C3_2 C2_2 1_555 1_555
H4_2 C3_2 1_555 1_555
C4_2 C3_2 1_555 1_555
C5_2 N2_2 1_555 1_555
C6_2 C1_2 1_555 1_555
H5_2 C6_2 1_555 1_555
C7_2 N2_2 1_555 1_555
C8_2 C7_2 1_555 1_555
H6_2 C8_2 1_555 1_555
C9_2 C8_2 1_555 1_555
H7_2 C9_2 1_555 1_555
C10_2 C9_2 1_555 1_555
H8_2 C10_2 1_555 1_555
C11_2 C10_2 1_555 1_555
H9_2 C11_2 1_555 1_555
C12_2 C7_2 1_555 1_555
H10_2 C12_2 1_555 1_555
C13_2 N1_2 1_555 1_555
C14_2 C13_2 1_555 1_555
H11_2 C14_2 1_555 1_555
C15_2 C14_2 1_555 1_555
H12_2 C15_2 1_555 1_555
C16_2 C15_2 1_555 1_555
H13_2 C16_2 1_555 1_555
C17_2 C16_2 1_555 1_555
H14_2 C17_2 1_555 1_555
C18_2 C13_2 1_555 1_555
H15_2 C18_2 1_555 1_555
C19_2 C4_2 1_555 1_555
C20_2 C1_2 1_555 1_555
C21_2 H16_2 1_555 1_555
C22_2 C21_2 1_555 1_555
H17_2 C22_2 1_555 1_555
C23_2 C22_2 1_555 1_555
H18_2 C23_2 1_555 1_555
C24_2 C23_2 1_555 1_555
H19_2 C24_2 1_555 1_555
C25_2 C24_2 1_555 1_555
H20_2 C25_2 1_555 1_555
H21_2 C28_2 1_555 1_555
C29_2 C28_2 1_555 1_555
C30_2 O5_2 1_555 1_555
C31_2 H22_2 1_555 1_555
C32_2 N4_2 1_555 1_555
H23_2 C32_2 1_555 1_555
H24_2 C32_2 1_555 1_555
H25_2 C32_2 1_555 1_555
C33_2 N4_2 1_555 1_555
H26_2 C33_2 1_555 1_555
H27_2 C33_2 1_555 1_555
H28_2 C33_2 1_555 1_555
C34_2 O8_2 1_555 1_555
H29_2 C34_2 1_555 1_555
C35_2 N5_2 1_555 1_555
H30_2 C35_2 1_555 1_555
H31_2 C35_2 1_555 1_555
H32_2 C35_2 1_555 1_555
C36_2 N5_2 1_555 1_555
H33_2 C36_2 1_555 1_555
H34_2 C36_2 1_555 1_555
H35_2 C36_2 1_555 1_555
N6_2 H36_2 1_555 1_555
C43_2 C29_2 1_555 1_555
C4_2 C5_2 1_555 1_555
C5_2 C6_2 1_555 1_555
C11_2 C12_2 1_555 1_555
C17_2 C18_2 1_555 1_555
C21_2 C26_2 1_555 1_555
C25_2 C26_2 1_555 1_555
C29_2 C30_2 1_555 1_555
N6_2 C43_2 1_555 1_555

#END
