
###############################################################################
#
# This file contains modified crystal structure data generated from the
# MOF subset of the Cambridge Structural Database (CSD) v543 
# hosted by the Cambridge Crystallographic Data Centre (CCDC).
#
# This work is licensed under the Creative Commons
# Attribution-NonCommercial-ShareAlike 4.0 International License.
# To view a copy of this license, visit
# http://creativecommons.org/licenses/by-nc-sa/4.0/
# or send a letter to
# Creative Commons, PO Box 1866, Mountain View, CA 94042, USA.
#
# CIF created using the CSD Python API on 29 September 2022
# The structure has been converted into the P1 space group
# The structure has a 3D framework
# The original CSD entry RIWKOA is in the monoclinic crystal system
# The framework has been calculated to contain at least 10.0% void space
# The void calculation uses a probe of radius 1.32A, grid spacing 0.4
# H atom positions have been added when not included in the experimental data
# Generated hydrogen atom positions removed from atoms on special positions
#
###############################################################################

data_RIWKOA
_chemical_formula_moiety         '(C168 H144 N24 Ni10 O56)n'
_symmetry_cell_setting           triclinic
_symmetry_space_group_name_H-M   'P 1'
_symmetry_Int_Tables_number      1
_space_group_name_Hall           'P 1'
loop_
_symmetry_equiv_pos_site_id
_symmetry_equiv_pos_as_xyz
1 x,y,z
_cell_length_a                   30.359(7)
_cell_length_b                   10.007(2)
_cell_length_c                   22.709(5)
_cell_angle_alpha                90
_cell_angle_beta                 124.027(7)
_cell_angle_gamma                90
_cell_volume                     5717.75
loop_
_atom_site_label
_atom_site_type_symbol
_atom_site_fract_x
_atom_site_fract_y
_atom_site_fract_z
Ni1 Ni 0.7500 0.2500 0.5000
O1 O 0.71889(12) 0.0330(2) 0.63411(14)
O2 O 0.70942(11) 0.4124(2) 0.50738(13)
O3 O 0.72865(11) 0.1263(2) 0.55334(13)
O4 O 0.75678(11) 0.7308(2) 0.67150(14)
O5 O 0.68549(12) 0.6423(2) 0.57966(15)
O6 O 0.64330(12) 0.3687(3) 0.51919(17)
N1 N 0.67856(12) 0.1958(3) 0.40516(16)
N2 N 0.84268(13) 0.3433(3) 0.84565(16)
H1 H 0.8666 0.4098 0.8606
H2 H 0.8604 0.2657 0.8550
C1 C 0.68964(14) 0.3885(3) 0.54329(18)
C2 C 0.75015(14) 0.4923(3) 0.66710(18)
C3 C 0.73004(14) 0.3791(3) 0.62359(18)
C4 C 0.73019(15) 0.6285(3) 0.63744(18)
C5 C 0.74925(14) 0.2540(3) 0.65479(18)
C6 C 0.73122(14) 0.1293(3) 0.61090(18)
C7 C 0.80585(14) 0.3550(3) 0.76995(18)
C8 C 0.78793(15) 0.4802(3) 0.73934(18)
H3 H 0.8014 0.5563 0.7675
C9 C 0.78642(15) 0.2420(3) 0.72807(18)
H4 H 0.7980 0.1579 0.7485
C10 C 0.66714(16) 0.0679(4) 0.3841(2)
H5 H 0.6915 0.0024 0.4131
C11 C 0.53602(18) 0.0992(5) 0.2112(2)
H6 H 0.5142 0.1689 0.1826
C12 C 0.39523(18) 0.0271(5) 0.0187(2)
C14 C 0.62114(18) 0.0290(5) 0.3217(2)
C15 C 0.58543(17) 0.1264(5) 0.2780(2)
C16 C 0.64370(18) 0.2887(5) 0.3624(2)
H10 H 0.6512 0.3778 0.3762
C17 C 0.44111(19) 0.0609(5) 0.0820(3)
H11 H 0.4496 0.1500 0.0953
C20 C 0.5970(2) 0.2583(5) 0.2985(3)
H13 H 0.5738 0.3257 0.2697
N4 N 0.32144(12) 0.1958(3) 0.09484(16)
C31 C 0.33286(16) 0.0679(4) 0.1159(2)
H19 H 0.3085 0.0024 0.0869
C32 C 0.46398(18) 0.0992(5) 0.2888(2)
H20 H 0.4858 0.1689 0.3174
C33 C 0.60477(18) 0.0271(5) 0.4813(2)
H21 H 0.6271 0.0952 0.5109
C35 C 0.37886(18) 0.0290(5) 0.1783(2)
C36 C 0.41457(17) 0.1264(5) 0.2220(2)
C37 C 0.35630(18) 0.2887(5) 0.1376(2)
H24 H 0.3488 0.3778 0.1238
C38 C 0.55889(19) 0.0609(5) 0.4180(3)
H25 H 0.5504 0.1500 0.4047
C41 C 0.4030(2) 0.2583(5) 0.2015(3)
H27 H 0.4262 0.3257 0.2303
Ni4 Ni 0.2500 0.2500 0.0000
Ni5 Ni 0.691125(19) 0.84940(4) 0.59406(2)
Ni8 Ni 0.808875(19) 0.34940(4) 0.90594(2)
O15 O 0.79058(11) 0.0876(2) 0.49262(13)
O16 O 0.77135(11) 0.3737(2) 0.44666(13)
N7 N 0.82144(12) 0.3042(3) 0.59484(16)
H7 H 0.3729 0.0952 0.9891
O8 O 0.28111(12) 0.0330(2) 0.86589(14)
O9 O 0.29058(11) 0.4124(2) 0.99262(13)
O10 O 0.27135(11) 0.1263(2) 0.94666(13)
O11 O 0.24322(11) 0.7308(2) 0.82850(14)
O12 O 0.31451(12) 0.6423(2) 0.92034(15)
O13 O 0.35670(12) 0.3687(3) 0.98081(17)
N5 N 0.15732(13) 0.3433(3) 0.65435(16)
H15 H 0.1334 0.4098 0.6394
H16 H 0.1396 0.2657 0.6450
C22 C 0.31036(14) 0.3885(3) 0.95671(18)
C23 C 0.24985(14) 0.4923(3) 0.83290(18)
C24 C 0.26996(14) 0.3791(3) 0.87641(18)
C25 C 0.26981(15) 0.6285(3) 0.86256(18)
C26 C 0.25075(14) 0.2540(3) 0.84521(18)
C27 C 0.26878(14) 0.1293(3) 0.88910(18)
C28 C 0.19415(14) 0.3550(3) 0.73005(18)
C29 C 0.21207(15) 0.4802(3) 0.76066(18)
H17 H 0.1986 0.5563 0.7325
C30 C 0.21358(15) 0.2420(3) 0.77193(18)
H18 H 0.2020 0.1579 0.7515
Ni4_2 Ni 0.2500 0.2500 1.0000
Ni6 Ni 0.308875(19) 0.84940(4) 0.90594(2)
Ni7 Ni 0.191125(19) 0.34940(4) 0.59406(2)
O7 O 0.72405(13) 0.8619(3) 0.53420(15)
C13 C 0.52351(18) 0.9852(5) 0.1929(2)
H8 H 0.5449 0.9151 0.2216
H9 H 0.6143 0.9392 0.3093
C18 C 0.47441(18) 0.9597(5) 0.1253(2)
C19 C 0.41347(19) 0.8034(5) 0.0407(3)
H12 H 0.4041 0.7148 0.0271
C21 C 0.4599(2) 0.8307(5) 0.1042(3)
H14 H 0.4817 0.7611 0.1331
N6 N 0.61897(14) 0.8999(3) 0.50255(17)
C34 C 0.47649(18) 0.9852(5) 0.3071(2)
H22 H 0.4551 0.9151 0.2784
H23 H 0.3857 0.9392 0.1907
C39 C 0.52559(18) 0.9597(5) 0.3747(2)
C40 C 0.58653(19) 0.8034(5) 0.4593(3)
H26 H 0.5959 0.7148 0.4729
C42 C 0.5401(2) 0.8307(5) 0.3958(3)
H28 H 0.5183 0.7611 0.3669
N9 N 0.65732(13) 0.8433(3) 0.65435(16)
N3 N 0.38103(14) 0.8999(3) 0.99745(17)
O14 O 0.27595(13) 0.8619(3) 0.96580(15)
N8 N 0.34268(13) 0.8433(3) 0.84565(16)
O15_2 O 0.20942(11) 0.0876(2) 0.00738(13)
O16_2 O 0.22865(11) 0.3737(2) 0.05334(13)
N7_2 N 0.17856(12) 0.3042(3) 0.90516(16)
O4_2 O 0.25678(11) 0.2308(2) 0.67150(14)
O5_2 O 0.18549(12) 0.1423(2) 0.57966(15)
C4_2 C 0.23019(15) 0.1285(3) 0.63744(18)
H3_2 H 0.3014 0.0563 0.7675
Ni1_2 Ni 0.2500 0.7500 0.5000
O1_2 O 0.21889(12) 0.5330(2) 0.63411(14)
O2_2 O 0.20942(11) 0.9124(2) 0.50738(13)
O3_2 O 0.22865(11) 0.6263(2) 0.55334(13)
O6_2 O 0.14330(12) 0.8687(3) 0.51919(17)
O7_2 O 0.22405(13) 0.3619(3) 0.53420(15)
N1_2 N 0.17856(12) 0.6958(3) 0.40516(16)
H1_2 H 0.3666 0.9098 0.8606
H2_2 H 0.3604 0.7657 0.8550
C1_2 C 0.18964(14) 0.8885(3) 0.54329(18)
C2_2 C 0.25015(14) 0.9923(3) 0.66710(18)
C3_2 C 0.23004(14) 0.8791(3) 0.62359(18)
C5_2 C 0.24925(14) 0.7540(3) 0.65479(18)
C6_2 C 0.23122(14) 0.6293(3) 0.61090(18)
C7_2 C 0.30585(14) 0.8550(3) 0.76995(18)
C8_2 C 0.28793(15) 0.9802(3) 0.73934(18)
C9_2 C 0.28642(15) 0.7420(3) 0.72807(18)
H4_2 H 0.2980 0.6579 0.7485
C10_2 C 0.16714(16) 0.5679(4) 0.3841(2)
H5_2 H 0.1915 0.5024 0.4131
C11_2 C 0.03602(18) 0.5992(5) 0.2112(2)
H6_2 H 0.0142 0.6689 0.1826
C13_2 C 0.02351(18) 0.4852(5) 0.1929(2)
H8_2 H 0.0449 0.4151 0.2216
C14_2 C 0.12114(18) 0.5290(5) 0.3217(2)
H9_2 H 0.1143 0.4392 0.3093
C15_2 C 0.08543(17) 0.6264(5) 0.2780(2)
C16_2 C 0.14370(18) 0.7887(5) 0.3624(2)
H10_2 H 0.1512 0.8778 0.3762
C20_2 C 0.0970(2) 0.7583(5) 0.2985(3)
H13_2 H 0.0738 0.8257 0.2697
N6_2 N 0.11897(14) 0.3999(3) 0.50255(17)
C33_2 C 0.10477(18) 0.5271(5) 0.4813(2)
H21_2 H 0.1271 0.5952 0.5109
C38_2 C 0.05889(19) 0.5609(5) 0.4180(3)
H25_2 H 0.0504 0.6500 0.4047
C39_2 C 0.02559(18) 0.4597(5) 0.3747(2)
C40_2 C 0.08653(19) 0.3034(5) 0.4593(3)
H26_2 H 0.0959 0.2148 0.4729
C42_2 C 0.0401(2) 0.3307(5) 0.3958(3)
H28_2 H 0.0183 0.2611 0.3669
O15_3 O 0.29058(11) 0.5876(2) 0.49262(13)
O16_3 O 0.27135(11) 0.8737(2) 0.44666(13)
N7_3 N 0.32144(12) 0.8042(3) 0.59484(16)
O11_2 O 0.74322(11) 0.2308(2) 0.82850(14)
O12_2 O 0.81451(12) 0.1423(2) 0.92034(15)
C25_2 C 0.76981(15) 0.1285(3) 0.86256(18)
H17_2 H 0.6986 0.0563 0.7325
C12_2 C 0.89523(18) 0.5271(5) 0.0187(2)
C17_2 C 0.94111(19) 0.5609(5) 0.0820(3)
H11_2 H 0.9496 0.6500 0.0953
C18_2 C 0.97441(18) 0.4597(5) 0.1253(2)
C19_2 C 0.91347(19) 0.3034(5) 0.0407(3)
H12_2 H 0.9041 0.2148 0.0271
C21_2 C 0.9599(2) 0.3307(5) 0.1042(3)
H14_2 H 0.9817 0.2611 0.1331
N4_2 N 0.82144(12) 0.6958(3) 0.09484(16)
C31_2 C 0.83286(16) 0.5679(4) 0.1159(2)
H19_2 H 0.8085 0.5024 0.0869
C32_2 C 0.96398(18) 0.5992(5) 0.2888(2)
H20_2 H 0.9858 0.6689 0.3174
C34_2 C 0.97649(18) 0.4852(5) 0.3071(2)
H22_2 H 0.9551 0.4151 0.2784
C35_2 C 0.87886(18) 0.5290(5) 0.1783(2)
H23_2 H 0.8857 0.4392 0.1907
C36_2 C 0.91457(17) 0.6264(5) 0.2220(2)
C37_2 C 0.85630(18) 0.7887(5) 0.1376(2)
H24_2 H 0.8488 0.8778 0.1238
C41_2 C 0.9030(2) 0.7583(5) 0.2015(3)
H27_2 H 0.9262 0.8257 0.2303
Ni4_3 Ni 0.7500 0.7500 0.0000
N3_2 N 0.88103(14) 0.3999(3) 0.99745(17)
H7_2 H 0.8729 0.5952 0.9891
O8_2 O 0.78111(12) 0.5330(2) 0.86589(14)
O9_2 O 0.79058(11) 0.9124(2) 0.99262(13)
O10_2 O 0.77135(11) 0.6263(2) 0.94666(13)
O13_2 O 0.85670(12) 0.8687(3) 0.98081(17)
O14_2 O 0.77595(13) 0.3619(3) 0.96580(15)
H15_2 H 0.6334 0.9098 0.6394
H16_2 H 0.6396 0.7657 0.6450
C22_2 C 0.81036(14) 0.8885(3) 0.95671(18)
C23_2 C 0.74985(14) 0.9923(3) 0.83290(18)
C24_2 C 0.76996(14) 0.8791(3) 0.87641(18)
C26_2 C 0.75075(14) 0.7540(3) 0.84521(18)
C27_2 C 0.76878(14) 0.6293(3) 0.88910(18)
C28_2 C 0.69415(14) 0.8550(3) 0.73005(18)
C29_2 C 0.71207(15) 0.9802(3) 0.76066(18)
C30_2 C 0.71358(15) 0.7420(3) 0.77193(18)
H18_2 H 0.7020 0.6579 0.7515
Ni4_4 Ni 0.7500 0.7500 1.0000
O15_4 O 0.70942(11) 0.5876(2) 0.00738(13)
O16_4 O 0.72865(11) 0.8737(2) 0.05334(13)
N7_4 N 0.67856(12) 0.8042(3) 0.90516(16)
N3_3 N 0.61897(14) 0.1001(3) 0.00255(17)
Ni3 Ni 0.691125(19) 0.15060(4) 0.09406(2)
O14_3 O 0.72405(13) 0.1381(3) 0.03420(15)
O18 O 0.75678(11) 0.2692(2) 0.17150(14)
O20 O 0.68549(12) 0.3577(2) 0.07966(15)
N8_2 N 0.65732(13) 0.1567(3) 0.15435(16)
Ni2 Ni 0.308875(19) 0.15060(4) 0.40594(2)
O7_3 O 0.27595(13) 0.1381(3) 0.46580(15)
C13_3 C 0.47649(18) 0.0148(5) 0.8071(2)
H8_3 H 0.4551 0.0849 0.7784
H9_3 H 0.3857 0.0608 0.6907
C18_3 C 0.52559(18) 0.0403(5) 0.8747(2)
C19_3 C 0.58653(19) 0.1966(5) 0.9593(3)
H12_3 H 0.5959 0.2852 0.9729
C21_3 C 0.5401(2) 0.1693(5) 0.8958(3)
H14_3 H 0.5183 0.2389 0.8669
N6_3 N 0.38103(14) 0.1001(3) 0.49745(17)
C34_3 C 0.52351(18) 0.0148(5) 0.6929(2)
H22_3 H 0.5449 0.0849 0.7216
H23_3 H 0.6143 0.0608 0.8093
C39_3 C 0.47441(18) 0.0403(5) 0.6253(2)
C40_3 C 0.41347(19) 0.1966(5) 0.5407(3)
H26_3 H 0.4041 0.2852 0.5271
C42_3 C 0.4599(2) 0.1693(5) 0.6042(3)
H28_3 H 0.4817 0.2389 0.6331
O17 O 0.24322(11) 0.2692(2) 0.32850(14)
O19 O 0.31451(12) 0.3577(2) 0.42034(15)
N9_2 N 0.34268(13) 0.1567(3) 0.34565(16)
H7_3 H 0.6271 0.9048 0.0109
O8_3 O 0.71889(12) 0.9670(2) 0.13411(14)
O13_3 O 0.64330(12) 0.6313(3) 0.01919(17)
N5_2 N 0.84268(13) 0.6567(3) 0.34565(16)
H15_3 H 0.8666 0.5902 0.3606
H16_3 H 0.8604 0.7343 0.3550
C22_3 C 0.68964(14) 0.6115(3) 0.04329(18)
C23_3 C 0.75015(14) 0.5077(3) 0.16710(18)
C24_3 C 0.73004(14) 0.6209(3) 0.12359(18)
C25_3 C 0.73019(15) 0.3715(3) 0.13744(18)
C26_3 C 0.74925(14) 0.7460(3) 0.15479(18)
C27_3 C 0.73122(14) 0.8707(3) 0.11090(18)
C28_3 C 0.80585(14) 0.6450(3) 0.26995(18)
C29_3 C 0.78793(15) 0.5198(3) 0.23934(18)
H17_3 H 0.8014 0.4437 0.2675
C30_3 C 0.78642(15) 0.7580(3) 0.22807(18)
H18_3 H 0.7980 0.8421 0.2485
Ni7_2 Ni 0.808875(19) 0.65060(4) 0.40594(2)
O1_3 O 0.28111(12) 0.9670(2) 0.36589(14)
O6_3 O 0.35670(12) 0.6313(3) 0.48081(17)
N2_2 N 0.15732(13) 0.6567(3) 0.15435(16)
H1_3 H 0.1334 0.5902 0.1394
H2_3 H 0.1396 0.7343 0.1450
C1_3 C 0.31036(14) 0.6115(3) 0.45671(18)
C2_3 C 0.24985(14) 0.5077(3) 0.33290(18)
C3_3 C 0.26996(14) 0.6209(3) 0.37641(18)
C4_3 C 0.26981(15) 0.3715(3) 0.36256(18)
C5_3 C 0.25075(14) 0.7460(3) 0.34521(18)
C6_3 C 0.26878(14) 0.8707(3) 0.38910(18)
C7_3 C 0.19415(14) 0.6450(3) 0.23005(18)
C8_3 C 0.21207(15) 0.5198(3) 0.26066(18)
H3_3 H 0.1986 0.4437 0.2325
C9_3 C 0.21358(15) 0.7580(3) 0.27193(18)
H4_3 H 0.2020 0.8421 0.2515
C10_3 C 0.33286(16) 0.9321(4) 0.6159(2)
H5_3 H 0.3085 0.9976 0.5869
C11_3 C 0.46398(18) 0.9008(5) 0.7888(2)
H6_3 H 0.4858 0.8311 0.8174
C12_3 C 0.60477(18) 0.9729(5) 0.9813(2)
C14_3 C 0.37886(18) 0.9710(5) 0.6783(2)
C15_3 C 0.41457(17) 0.8736(5) 0.7220(2)
C16_3 C 0.35630(18) 0.7113(5) 0.6376(2)
H10_3 H 0.3488 0.6222 0.6238
C17_3 C 0.55889(19) 0.9391(5) 0.9180(3)
H11_3 H 0.5504 0.8500 0.9047
C20_3 C 0.4030(2) 0.7417(5) 0.7015(3)
H13_3 H 0.4262 0.6743 0.7303
C31_3 C 0.66714(16) 0.9321(4) 0.8841(2)
H19_3 H 0.6915 0.9976 0.9131
C32_3 C 0.53602(18) 0.9008(5) 0.7112(2)
H20_3 H 0.5142 0.8311 0.6826
C33_3 C 0.39523(18) 0.9729(5) 0.5187(2)
H21_3 H 0.3729 0.9048 0.4891
C35_3 C 0.62114(18) 0.9710(5) 0.8217(2)
C36_3 C 0.58543(17) 0.8736(5) 0.7780(2)
C37_3 C 0.64370(18) 0.7113(5) 0.8624(2)
H24_3 H 0.6512 0.6222 0.8762
C38_3 C 0.44111(19) 0.9391(5) 0.5820(3)
H25_3 H 0.4496 0.8500 0.5953
C41_3 C 0.5970(2) 0.7417(5) 0.7985(3)
H27_3 H 0.5738 0.6743 0.7697
Ni8_2 Ni 0.191125(19) 0.65060(4) 0.09406(2)
N3_4 N 0.11897(14) 0.6001(3) 0.00255(17)
H7_4 H 0.1271 0.4048 0.0109
O8_4 O 0.21889(12) 0.4670(2) 0.13411(14)
O13_4 O 0.14330(12) 0.1313(3) 0.01919(17)
O14_4 O 0.22405(13) 0.6381(3) 0.03420(15)
H15_4 H 0.3666 0.0902 0.3606
H16_4 H 0.3604 0.2343 0.3550
C22_4 C 0.18964(14) 0.1115(3) 0.04329(18)
C23_4 C 0.25015(14) 0.0077(3) 0.16710(18)
C24_4 C 0.23004(14) 0.1209(3) 0.12359(18)
C26_4 C 0.24925(14) 0.2460(3) 0.15479(18)
C27_4 C 0.23122(14) 0.3707(3) 0.11090(18)
C28_4 C 0.30585(14) 0.1450(3) 0.26995(18)
C29_4 C 0.28793(15) 0.0198(3) 0.23934(18)
C30_4 C 0.28642(15) 0.2580(3) 0.22807(18)
H18_4 H 0.2980 0.3421 0.2485
O18_2 O 0.25678(11) 0.7692(2) 0.17150(14)
O20_2 O 0.18549(12) 0.8577(2) 0.07966(15)
C12_4 C 0.10477(18) 0.4729(5) 0.9813(2)
C17_4 C 0.05889(19) 0.4391(5) 0.9180(3)
H11_4 H 0.0504 0.3500 0.9047
C18_4 C 0.02559(18) 0.5403(5) 0.8747(2)
C19_4 C 0.08653(19) 0.6966(5) 0.9593(3)
H12_4 H 0.0959 0.7852 0.9729
C21_4 C 0.0401(2) 0.6693(5) 0.8958(3)
H14_4 H 0.0183 0.7389 0.8669
C31_4 C 0.16714(16) 0.4321(4) 0.8841(2)
H19_4 H 0.1915 0.4976 0.9131
C32_4 C 0.03602(18) 0.4008(5) 0.7112(2)
H20_4 H 0.0142 0.3311 0.6826
C34_4 C 0.02351(18) 0.5148(5) 0.6929(2)
H22_4 H 0.0449 0.5849 0.7216
C35_4 C 0.12114(18) 0.4710(5) 0.8217(2)
H23_4 H 0.1143 0.5608 0.8093
C36_4 C 0.08543(17) 0.3736(5) 0.7780(2)
C37_4 C 0.14370(18) 0.2113(5) 0.8624(2)
H24_4 H 0.1512 0.1222 0.8762
C41_4 C 0.0970(2) 0.2417(5) 0.7985(3)
H27_4 H 0.0738 0.1743 0.7697
C25_4 C 0.23019(15) 0.8715(3) 0.13744(18)
H17_4 H 0.3014 0.9437 0.2675
O1_4 O 0.78111(12) 0.4670(2) 0.36589(14)
O6_4 O 0.85670(12) 0.1313(3) 0.48081(17)
O7_4 O 0.77595(13) 0.6381(3) 0.46580(15)
H1_4 H 0.6334 0.0902 0.1394
H2_4 H 0.6396 0.2343 0.1450
C1_4 C 0.81036(14) 0.1115(3) 0.45671(18)
C2_4 C 0.74985(14) 0.0077(3) 0.33290(18)
C3_4 C 0.76996(14) 0.1209(3) 0.37641(18)
C5_4 C 0.75075(14) 0.2460(3) 0.34521(18)
C6_4 C 0.76878(14) 0.3707(3) 0.38910(18)
C7_4 C 0.69415(14) 0.1450(3) 0.23005(18)
C8_4 C 0.71207(15) 0.0198(3) 0.26066(18)
C9_4 C 0.71358(15) 0.2580(3) 0.27193(18)
H4_4 H 0.7020 0.3421 0.2515
C10_4 C 0.83286(16) 0.4321(4) 0.6159(2)
H5_4 H 0.8085 0.4976 0.5869
C11_4 C 0.96398(18) 0.4008(5) 0.7888(2)
H6_4 H 0.9858 0.3311 0.8174
C13_4 C 0.97649(18) 0.5148(5) 0.8071(2)
H8_4 H 0.9551 0.5849 0.7784
C14_4 C 0.87886(18) 0.4710(5) 0.6783(2)
H9_4 H 0.8857 0.5608 0.6907
C15_4 C 0.91457(17) 0.3736(5) 0.7220(2)
C16_4 C 0.85630(18) 0.2113(5) 0.6376(2)
H10_4 H 0.8488 0.1222 0.6238
C20_4 C 0.9030(2) 0.2417(5) 0.7015(3)
H13_4 H 0.9262 0.1743 0.7303
N6_4 N 0.88103(14) 0.6001(3) 0.49745(17)
C33_4 C 0.89523(18) 0.4729(5) 0.5187(2)
H21_4 H 0.8729 0.4048 0.4891
C38_4 C 0.94111(19) 0.4391(5) 0.5820(3)
H25_4 H 0.9496 0.3500 0.5953
C39_4 C 0.97441(18) 0.5403(5) 0.6253(2)
C40_4 C 0.91347(19) 0.6966(5) 0.5407(3)
H26_4 H 0.9041 0.7852 0.5271
C42_4 C 0.9599(2) 0.6693(5) 0.6042(3)
H28_4 H 0.9817 0.7389 0.6331
O17_2 O 0.74322(11) 0.7692(2) 0.32850(14)
O19_2 O 0.81451(12) 0.8577(2) 0.42034(15)
C4_4 C 0.76981(15) 0.8715(3) 0.36256(18)
H3_4 H 0.6986 0.9437 0.2325
loop_
_geom_bond_atom_site_label_1
_geom_bond_atom_site_label_2
_geom_bond_site_symmetry_1
_geom_bond_site_symmetry_2
Ni1 O2 1_555 1_555
O1 C6 1_555 1_555
O2 C1 1_555 1_555
O3 Ni1 1_555 1_555
O4 C4 1_555 1_555
O5 C4 1_555 1_555
O6 C1 1_555 1_555
N1 Ni1 1_555 1_555
N2 H1 1_555 1_555
H2 N2 1_555 1_555
C1 C3 1_555 1_555
C2 C3 1_555 1_555
C3 C5 1_555 1_555
C4 C2 1_555 1_555
C5 C6 1_555 1_555
C6 O3 1_555 1_555
C7 N2 1_555 1_555
C8 C2 1_555 1_555
H3 C8 1_555 1_555
C9 C5 1_555 1_555
H4 C9 1_555 1_555
C10 N1 1_555 1_555
H5 C10 1_555 1_555
C11 H6 1_555 1_555
C14 C10 1_555 1_555
C15 C11 1_555 1_555
C16 N1 1_555 1_555
H10 C16 1_555 1_555
C17 C12 1_555 1_555
H11 C17 1_555 1_555
C20 C15 1_555 1_555
H13 C20 1_555 1_555
N4 C31 1_555 1_555
C31 H19 1_555 1_555
C32 H20 1_555 1_555
H21 C33 1_555 1_555
C35 C31 1_555 1_555
C36 C32 1_555 1_555
C37 N4 1_555 1_555
H24 C37 1_555 1_555
C38 C33 1_555 1_555
H25 C38 1_555 1_555
C41 C36 1_555 1_555
H27 C41 1_555 1_555
Ni5 O4 1_555 1_555
Ni8 N2 1_555 1_555
O15 Ni1 1_555 1_555
O16 Ni1 1_555 1_555
N7 Ni1 1_555 1_555
O5 Ni5 1_555 1_555
C7 C8 1_555 1_555
C7 C9 1_555 1_555
C14 C15 1_555 1_555
C16 C20 1_555 1_555
N4 Ni4 1_555 1_555
C35 C36 1_555 1_555
C37 C41 1_555 1_555
O9 C22 1_555 1_555
O10 C27 1_555 1_555
O11 C25 1_555 1_555
O12 C25 1_555 1_555
O13 C22 1_555 1_555
N5 H15 1_555 1_555
H16 N5 1_555 1_555
C22 C24 1_555 1_555
C23 C24 1_555 1_555
C24 C26 1_555 1_555
C25 C23 1_555 1_555
C26 C27 1_555 1_555
C27 O8 1_555 1_555
C28 N5 1_555 1_555
C29 C23 1_555 1_555
H17 C29 1_555 1_555
C30 C26 1_555 1_555
H18 C30 1_555 1_555
Ni4_2 O9 1_555 1_555
Ni6 O11 1_555 1_555
Ni7 N5 1_555 1_555
O10 Ni4_2 1_555 1_555
O12 Ni6 1_555 1_555
C28 C29 1_555 1_555
C28 C30 1_555 1_555
O7 Ni5 1_555 1_555
H8 C13 1_555 1_555
C18 C13 1_555 1_555
H12 C19 1_555 1_555
C21 C18 1_555 1_555
H14 C21 1_555 1_555
N6 Ni5 1_555 1_555
H22 C34 1_555 1_555
C39 C34 1_555 1_555
C40 N6 1_555 1_555
H26 C40 1_555 1_555
C42 C39 1_555 1_555
H28 C42 1_555 1_555
N9 Ni5 1_555 1_555
C19 C21 1_555 1_555
C40 C42 1_555 1_555
Ni6 N3 1_555 1_555
O14 Ni6 1_555 1_555
N8 Ni6 1_555 1_555
O15_2 Ni4 1_555 1_555
O16_2 Ni4 1_555 1_555
N7_2 Ni4_2 1_555 1_555
O4_2 C4_2 1_555 1_555
O5_2 C4_2 1_555 1_555
Ni7 O4_2 1_555 1_555
O5_2 Ni7 1_555 1_555
Ni1_2 O2_2 1_555 1_555
Ni7 O1_2 1_555 1_555
O1_2 C6_2 1_555 1_555
O2_2 C1_2 1_555 1_555
O3_2 Ni1_2 1_555 1_555
O6_2 C1_2 1_555 1_555
O7_2 Ni7 1_555 1_555
N1_2 Ni1_2 1_555 1_555
N8 H1_2 1_555 1_555
H2_2 N8 1_555 1_555
C1_2 C3_2 1_555 1_555
C2_2 C3_2 1_555 1_555
C3_2 C5_2 1_555 1_555
C5_2 C6_2 1_555 1_555
C6_2 O3_2 1_555 1_555
C7_2 N8 1_555 1_555
C8_2 C2_2 1_555 1_555
C9_2 C5_2 1_555 1_555
H4_2 C9_2 1_555 1_555
C10_2 N1_2 1_555 1_555
H5_2 C10_2 1_555 1_555
C11_2 H6_2 1_555 1_555
C13_2 C11_2 1_555 1_555
H8_2 C13_2 1_555 1_555
C14_2 C10_2 1_555 1_555
H9_2 C14_2 1_555 1_555
C15_2 C11_2 1_555 1_555
C16_2 N1_2 1_555 1_555
H10_2 C16_2 1_555 1_555
C20_2 C15_2 1_555 1_555
H13_2 C20_2 1_555 1_555
N6_2 Ni7 1_555 1_555
C33_2 N6_2 1_555 1_555
H21_2 C33_2 1_555 1_555
C38_2 C33_2 1_555 1_555
H25_2 C38_2 1_555 1_555
C40_2 N6_2 1_555 1_555
H26_2 C40_2 1_555 1_555
C42_2 C39_2 1_555 1_555
H28_2 C42_2 1_555 1_555
O15_3 Ni1_2 1_555 1_555
O16_3 Ni1_2 1_555 1_555
N7_3 Ni1_2 1_555 1_555
C7_2 C8_2 1_555 1_555
C7_2 C9_2 1_555 1_555
C14_2 C15_2 1_555 1_555
C16_2 C20_2 1_555 1_555
C38_2 C39_2 1_555 1_555
C40_2 C42_2 1_555 1_555
O11_2 C25_2 1_555 1_555
O12_2 C25_2 1_555 1_555
Ni8 O11_2 1_555 1_555
O12_2 Ni8 1_555 1_555
C17_2 C12_2 1_555 1_555
H11_2 C17_2 1_555 1_555
H12_2 C19_2 1_555 1_555
C21_2 C18_2 1_555 1_555
H14_2 C21_2 1_555 1_555
N4_2 C31_2 1_555 1_555
C31_2 H19_2 1_555 1_555
C32_2 H20_2 1_555 1_555
C34_2 C32_2 1_555 1_555
H22_2 C34_2 1_555 1_555
C35_2 C31_2 1_555 1_555
H23_2 C35_2 1_555 1_555
C36_2 C32_2 1_555 1_555
C37_2 N4_2 1_555 1_555
H24_2 C37_2 1_555 1_555
C41_2 C36_2 1_555 1_555
H27_2 C41_2 1_555 1_555
C17_2 C18_2 1_555 1_555
C19_2 C21_2 1_555 1_555
N4_2 Ni4_3 1_555 1_555
C35_2 C36_2 1_555 1_555
C37_2 C41_2 1_555 1_555
Ni8 N3_2 1_555 1_555
O8_2 Ni8 1_555 1_555
O9_2 C22_2 1_555 1_555
O10_2 C27_2 1_555 1_555
O13_2 C22_2 1_555 1_555
O14_2 Ni8 1_555 1_555
N9 H15_2 1_555 1_555
H16_2 N9 1_555 1_555
C22_2 C24_2 1_555 1_555
C23_2 C24_2 1_555 1_555
C24_2 C26_2 1_555 1_555
C26_2 C27_2 1_555 1_555
C27_2 O8_2 1_555 1_555
C28_2 N9 1_555 1_555
C29_2 C23_2 1_555 1_555
C30_2 C26_2 1_555 1_555
H18_2 C30_2 1_555 1_555
Ni4_4 O9_2 1_555 1_555
O10_2 Ni4_4 1_555 1_555
C28_2 C29_2 1_555 1_555
C28_2 C30_2 1_555 1_555
O15_4 Ni4_3 1_555 1_555
O16_4 Ni4_3 1_555 1_555
N7_4 Ni4_4 1_555 1_555
Ni3 N3_3 1_555 1_555
O14_3 Ni3 1_555 1_555
O18 Ni3 1_555 1_555
O20 Ni3 1_555 1_555
N8_2 Ni3 1_555 1_555
O7_3 Ni2 1_555 1_555
H8_3 C13_3 1_555 1_555
C18_3 C13_3 1_555 1_555
H12_3 C19_3 1_555 1_555
C21_3 C18_3 1_555 1_555
H14_3 C21_3 1_555 1_555
N6_3 Ni2 1_555 1_555
H22_3 C34_3 1_555 1_555
C39_3 C34_3 1_555 1_555
C40_3 N6_3 1_555 1_555
H26_3 C40_3 1_555 1_555
C42_3 C39_3 1_555 1_555
H28_3 C42_3 1_555 1_555
O17 Ni2 1_555 1_555
O19 Ni2 1_555 1_555
N9_2 Ni2 1_555 1_555
C19_3 C21_3 1_555 1_555
C40_3 C42_3 1_555 1_555
O15_4 C22_3 1_555 1_555
O16_4 C27_3 1_555 1_555
O18 C25_3 1_555 1_555
O20 C25_3 1_555 1_555
O13_3 C22_3 1_555 1_555
N5_2 H15_3 1_555 1_555
H16_3 N5_2 1_555 1_555
C22_3 C24_3 1_555 1_555
C23_3 C24_3 1_555 1_555
C24_3 C26_3 1_555 1_555
C25_3 C23_3 1_555 1_555
C26_3 C27_3 1_555 1_555
C27_3 O8_3 1_555 1_555
C28_3 N5_2 1_555 1_555
C29_3 C23_3 1_555 1_555
H17_3 C29_3 1_555 1_555
C30_3 C26_3 1_555 1_555
H18_3 C30_3 1_555 1_555
Ni7_2 N5_2 1_555 1_555
C28_3 C29_3 1_555 1_555
C28_3 C30_3 1_555 1_555
O1_3 C6_3 1_555 1_555
O15_3 C1_3 1_555 1_555
O17 C4_3 1_555 1_555
O19 C4_3 1_555 1_555
O6_3 C1_3 1_555 1_555
N2_2 H1_3 1_555 1_555
H2_3 N2_2 1_555 1_555
C1_3 C3_3 1_555 1_555
C2_3 C3_3 1_555 1_555
C3_3 C5_3 1_555 1_555
C4_3 C2_3 1_555 1_555
C5_3 C6_3 1_555 1_555
C6_3 O16_3 1_555 1_555
C7_3 N2_2 1_555 1_555
C8_3 C2_3 1_555 1_555
H3_3 C8_3 1_555 1_555
C9_3 C5_3 1_555 1_555
H4_3 C9_3 1_555 1_555
C10_3 N7_3 1_555 1_555
H5_3 C10_3 1_555 1_555
C11_3 H6_3 1_555 1_555
C14_3 C10_3 1_555 1_555
C15_3 C11_3 1_555 1_555
C16_3 N7_3 1_555 1_555
H10_3 C16_3 1_555 1_555
C17_3 C12_3 1_555 1_555
H11_3 C17_3 1_555 1_555
C20_3 C15_3 1_555 1_555
H13_3 C20_3 1_555 1_555
N7_4 C31_3 1_555 1_555
C31_3 H19_3 1_555 1_555
C32_3 H20_3 1_555 1_555
H21_3 C33_3 1_555 1_555
C35_3 C31_3 1_555 1_555
C36_3 C32_3 1_555 1_555
C37_3 N7_4 1_555 1_555
H24_3 C37_3 1_555 1_555
C38_3 C33_3 1_555 1_555
H25_3 C38_3 1_555 1_555
C41_3 C36_3 1_555 1_555
H27_3 C41_3 1_555 1_555
Ni8_2 N2_2 1_555 1_555
C7_3 C8_3 1_555 1_555
C7_3 C9_3 1_555 1_555
C14_3 C15_3 1_555 1_555
C16_3 C20_3 1_555 1_555
C35_3 C36_3 1_555 1_555
C37_3 C41_3 1_555 1_555
Ni8_2 N3_4 1_555 1_555
O8_4 Ni8_2 1_555 1_555
O15_2 C22_4 1_555 1_555
O16_2 C27_4 1_555 1_555
O13_4 C22_4 1_555 1_555
O14_4 Ni8_2 1_555 1_555
N9_2 H15_4 1_555 1_555
H16_4 N9_2 1_555 1_555
C22_4 C24_4 1_555 1_555
C23_4 C24_4 1_555 1_555
C24_4 C26_4 1_555 1_555
C26_4 C27_4 1_555 1_555
C27_4 O8_4 1_555 1_555
C28_4 N9_2 1_555 1_555
C29_4 C23_4 1_555 1_555
C30_4 C26_4 1_555 1_555
H18_4 C30_4 1_555 1_555
O18_2 Ni8_2 1_555 1_555
O20_2 Ni8_2 1_555 1_555
C28_4 C29_4 1_555 1_555
C28_4 C30_4 1_555 1_555
C17_4 C12_4 1_555 1_555
H11_4 C17_4 1_555 1_555
H12_4 C19_4 1_555 1_555
C21_4 C18_4 1_555 1_555
H14_4 C21_4 1_555 1_555
N7_2 C31_4 1_555 1_555
C31_4 H19_4 1_555 1_555
C32_4 H20_4 1_555 1_555
C34_4 C32_4 1_555 1_555
H22_4 C34_4 1_555 1_555
C35_4 C31_4 1_555 1_555
H23_4 C35_4 1_555 1_555
C36_4 C32_4 1_555 1_555
C37_4 N7_2 1_555 1_555
H24_4 C37_4 1_555 1_555
C41_4 C36_4 1_555 1_555
H27_4 C41_4 1_555 1_555
C17_4 C18_4 1_555 1_555
C19_4 C21_4 1_555 1_555
C35_4 C36_4 1_555 1_555
C37_4 C41_4 1_555 1_555
O18_2 C25_4 1_555 1_555
O20_2 C25_4 1_555 1_555
Ni7_2 O1_4 1_555 1_555
O1_4 C6_4 1_555 1_555
O15 C1_4 1_555 1_555
O6_4 C1_4 1_555 1_555
O7_4 Ni7_2 1_555 1_555
N8_2 H1_4 1_555 1_555
H2_4 N8_2 1_555 1_555
C1_4 C3_4 1_555 1_555
C2_4 C3_4 1_555 1_555
C3_4 C5_4 1_555 1_555
C5_4 C6_4 1_555 1_555
C6_4 O16 1_555 1_555
C7_4 N8_2 1_555 1_555
C8_4 C2_4 1_555 1_555
C9_4 C5_4 1_555 1_555
H4_4 C9_4 1_555 1_555
C10_4 N7 1_555 1_555
H5_4 C10_4 1_555 1_555
C11_4 H6_4 1_555 1_555
C13_4 C11_4 1_555 1_555
H8_4 C13_4 1_555 1_555
C14_4 C10_4 1_555 1_555
H9_4 C14_4 1_555 1_555
C15_4 C11_4 1_555 1_555
C16_4 N7 1_555 1_555
H10_4 C16_4 1_555 1_555
C20_4 C15_4 1_555 1_555
H13_4 C20_4 1_555 1_555
N6_4 Ni7_2 1_555 1_555
C33_4 N6_4 1_555 1_555
H21_4 C33_4 1_555 1_555
C38_4 C33_4 1_555 1_555
H25_4 C38_4 1_555 1_555
C40_4 N6_4 1_555 1_555
H26_4 C40_4 1_555 1_555
C42_4 C39_4 1_555 1_555
H28_4 C42_4 1_555 1_555
O17_2 Ni7_2 1_555 1_555
O19_2 Ni7_2 1_555 1_555
C7_4 C8_4 1_555 1_555
C7_4 C9_4 1_555 1_555
C14_4 C15_4 1_555 1_555
C16_4 C20_4 1_555 1_555
C38_4 C39_4 1_555 1_555
C40_4 C42_4 1_555 1_555
O17_2 C4_4 1_555 1_555
O19_2 C4_4 1_555 1_555

#END
