
###############################################################################
#
# This file contains modified crystal structure data generated from the
# MOF subset of the Cambridge Structural Database (CSD) v543 
# hosted by the Cambridge Crystallographic Data Centre (CCDC).
#
# This work is licensed under the Creative Commons
# Attribution-NonCommercial-ShareAlike 4.0 International License.
# To view a copy of this license, visit
# http://creativecommons.org/licenses/by-nc-sa/4.0/
# or send a letter to
# Creative Commons, PO Box 1866, Mountain View, CA 94042, USA.
#
# CIF created using the CSD Python API on 29 September 2022
# The structure has been converted into the P1 space group
# The structure has a 3D framework
# The original CSD entry RIWKUG is in the monoclinic crystal system
# The framework has been calculated to contain at least 10.0% void space
# The void calculation uses a probe of radius 1.32A, grid spacing 0.4
#
###############################################################################

data_RIWKUG
_chemical_formula_moiety         '(C152 H112 N40 Ni10 O56)n'
_symmetry_cell_setting           triclinic
_symmetry_space_group_name_H-M   'P 1'
_symmetry_Int_Tables_number      1
_space_group_name_Hall           'P 1'
loop_
_symmetry_equiv_pos_site_id
_symmetry_equiv_pos_as_xyz
1 x,y,z
_cell_length_a                   30.511(11)
_cell_length_b                   10.034(3)
_cell_length_c                   22.747(7)
_cell_angle_alpha                90
_cell_angle_beta                 124.442(14)
_cell_angle_gamma                90
_cell_volume                     5743.15
loop_
_atom_site_label
_atom_site_type_symbol
_atom_site_fract_x
_atom_site_fract_y
_atom_site_fract_z
Ni1 Ni 0.7500 0.2500 0.5000
O1 O 0.72877(9) 0.12636(19) 0.55332(11)
O2 O 0.70928(9) 0.4123(2) 0.50698(11)
N1 N 0.67798(10) 0.1950(3) 0.40459(13)
C1 C 0.73123(11) 0.1298(3) 0.61062(15)
C2 C 0.68960(12) 0.3884(3) 0.54301(15)
C3 C 0.66662(13) 0.0676(3) 0.38344(17)
C4 C 0.64259(14) 0.2877(4) 0.36155(18)
O3 O 0.71891(10) 0.0338(2) 0.63407(11)
C5 C 0.74963(12) 0.2544(2) 0.65502(15)
O4 O 0.64265(10) 0.3687(3) 0.51847(14)
C6 C 0.73001(11) 0.3795(3) 0.62316(14)
C7 C 0.62049(15) 0.0279(4) 0.32080(19)
H1 H 0.6912 0.0025 0.4126
H2 H 0.6499 0.3765 0.3755
C8 C 0.59569(17) 0.2570(4) 0.2973(2)
C9 C 0.78669(12) 0.2426(3) 0.72826(15)
C10 C 0.75004(11) 0.4930(3) 0.66692(14)
C11 C 0.58459(15) 0.1258(4) 0.2775(2)
H4 H 0.5722 0.3239 0.2683
O6 O 0.75660(9) 0.7312(2) 0.67158(12)
O7 O 0.68487(10) 0.6427(2) 0.57899(12)
N3 N 0.84321(11) 0.3442(2) 0.84622(13)
C12 C 0.72991(12) 0.6292(3) 0.63735(15)
H5 H 0.7982 0.1587 0.7488
C13 C 0.80646(12) 0.3557(3) 0.77075(15)
C14 C 0.78814(12) 0.4810(3) 0.73976(15)
N4 N 0.53488(15) 0.1008(4) 0.20985(19)
C15 C 0.39554(15) 0.0295(4) 0.0188(2)
H8 H 0.8015 0.5571 0.7680
C17 C 0.44205(15) 0.0640(4) 0.0830(2)
H11 H 0.8671 0.4106 0.8614
H12 H 0.8610 0.2668 0.8557
H13 H 0.4507 0.1529 0.0961
N6 N 0.32202(10) 0.1950(3) 0.09541(13)
C22 C 0.33338(13) 0.0676(3) 0.11656(17)
C23 C 0.35741(14) 0.2877(4) 0.13845(18)
C26 C 0.37951(15) 0.0279(4) 0.17920(19)
H15 H 0.3088 0.0025 0.0874
H16 H 0.3501 0.3765 0.1245
C27 C 0.40431(17) 0.2570(4) 0.2027(2)
C30 C 0.41541(15) 0.1258(4) 0.2225(2)
H18 H 0.4278 0.3239 0.2317
N9 N 0.46512(15) 0.1008(4) 0.29015(19)
C34 C 0.60446(15) 0.0295(4) 0.4812(2)
H23 H 0.6268 0.0971 0.5113
C36 C 0.55795(15) 0.0640(4) 0.4170(2)
H27 H 0.5493 0.1529 0.4039
Ni4 Ni 0.2500 0.2500 0.0000
O15 O 0.77123(9) 0.37364(19) 0.44668(11)
O16 O 0.79072(9) 0.0877(2) 0.49302(11)
N11 N 0.82202(10) 0.3050(3) 0.59541(13)
Ni5 Ni 0.690865(15) 0.85013(3) 0.593594(18)
Ni8 Ni 0.809135(15) 0.35013(3) 0.906406(18)
H9 H 0.3732 0.0971 0.9887
O8 O 0.27123(9) 0.12636(19) 0.94668(11)
O9 O 0.29072(9) 0.4123(2) 0.99302(11)
C20 C 0.26877(11) 0.1298(3) 0.88938(15)
C21 C 0.31040(12) 0.3884(3) 0.95699(15)
O10 O 0.28109(10) 0.0338(2) 0.86593(11)
C24 C 0.25037(12) 0.2544(2) 0.84498(15)
O11 O 0.35735(10) 0.3687(3) 0.98153(14)
C25 C 0.26999(11) 0.3795(3) 0.87684(14)
C28 C 0.21331(12) 0.2426(3) 0.77174(15)
C29 C 0.24996(11) 0.4930(3) 0.83308(14)
O13 O 0.24340(9) 0.7312(2) 0.82842(12)
O14 O 0.31513(10) 0.6427(2) 0.92101(12)
N8 N 0.15679(11) 0.3442(2) 0.65378(13)
C31 C 0.27009(12) 0.6292(3) 0.86265(15)
H19 H 0.2018 0.1587 0.7512
C32 C 0.19354(12) 0.3557(3) 0.72925(15)
C33 C 0.21186(12) 0.4810(3) 0.76024(15)
H22 H 0.1985 0.5571 0.7320
H25 H 0.1329 0.4106 0.6386
H26 H 0.1390 0.2668 0.6443
Ni4_2 Ni 0.2500 0.2500 1.0000
Ni6 Ni 0.309135(15) 0.85013(3) 0.906406(18)
Ni7 Ni 0.190865(15) 0.35013(3) 0.593594(18)
H3 H 0.6137 0.9384 0.3081
O5 O 0.72378(11) 0.8623(2) 0.53422(13)
H6 H 0.7080 0.8076 0.4997
H7 H 0.7558 0.8351 0.5594
C16 C 0.41384(15) 0.8058(4) 0.0428(2)
N5 N 0.52424(15) 0.9867(4) 0.19446(19)
C18 C 0.46071(18) 0.8338(4) 0.1070(2)
H10 H 0.4043 0.7173 0.0297
C19 C 0.47509(15) 0.9633(4) 0.12706(19)
H14 H 0.4825 0.7649 0.1365
H17 H 0.3863 0.9384 0.1919
N7 N 0.61860(11) 0.9022(3) 0.50160(14)
H20 H 0.2920 0.8076 0.0003
C35 C 0.58616(15) 0.8058(4) 0.4572(2)
N10 N 0.47576(15) 0.9867(4) 0.30554(19)
C37 C 0.53929(18) 0.8338(4) 0.3930(2)
H24 H 0.5957 0.7173 0.4703
C38 C 0.52491(15) 0.9633(4) 0.37294(19)
H28 H 0.5175 0.7649 0.3635
N13 N 0.65679(11) 0.8442(2) 0.65378(13)
N2 N 0.38140(11) 0.9022(3) 0.99840(14)
O12 O 0.27622(11) 0.8623(2) 0.96578(13)
H21 H 0.2442 0.8351 0.9406
N12 N 0.34321(11) 0.8442(2) 0.84622(13)
O15_2 O 0.22877(9) 0.37364(19) 0.05332(11)
O16_2 O 0.20928(9) 0.0877(2) 0.00698(11)
N11_2 N 0.17798(10) 0.3050(3) 0.90459(13)
O6_2 O 0.25660(9) 0.2312(2) 0.67158(12)
O7_2 O 0.18487(10) 0.1427(2) 0.57899(12)
C12_2 C 0.22991(12) 0.1292(3) 0.63735(15)
H8_2 H 0.3015 0.0571 0.7680
Ni1_2 Ni 0.2500 0.7500 0.5000
O1_2 O 0.22877(9) 0.62636(19) 0.55332(11)
O2_2 O 0.20928(9) 0.9123(2) 0.50698(11)
N1_2 N 0.17798(10) 0.6950(3) 0.40459(13)
C1_2 C 0.23123(11) 0.6298(3) 0.61062(15)
C2_2 C 0.18960(12) 0.8884(3) 0.54301(15)
C3_2 C 0.16662(13) 0.5676(3) 0.38344(17)
C4_2 C 0.14259(14) 0.7877(4) 0.36155(18)
O3_2 O 0.21891(10) 0.5338(2) 0.63407(11)
C5_2 C 0.24963(12) 0.7544(2) 0.65502(15)
O4_2 O 0.14265(10) 0.8687(3) 0.51847(14)
C6_2 C 0.23001(11) 0.8795(3) 0.62316(14)
C7_2 C 0.12049(15) 0.5279(4) 0.32080(19)
H1_2 H 0.1912 0.5025 0.4126
H2_2 H 0.1499 0.8765 0.3755
C8_2 C 0.09569(17) 0.7570(4) 0.2973(2)
C9_2 C 0.28669(12) 0.7426(3) 0.72826(15)
C10_2 C 0.25004(11) 0.9930(3) 0.66692(14)
C11_2 C 0.08459(15) 0.6258(4) 0.2775(2)
H3_2 H 0.1137 0.4384 0.3081
H4_2 H 0.0722 0.8239 0.2683
O5_2 O 0.22378(11) 0.3623(2) 0.53422(13)
H5_2 H 0.2982 0.6587 0.7488
C13_2 C 0.30646(12) 0.8557(3) 0.77075(15)
C14_2 C 0.28814(12) 0.9810(3) 0.73976(15)
N4_2 N 0.03488(15) 0.6008(4) 0.20985(19)
H6_2 H 0.2080 0.3076 0.4997
H7_2 H 0.2558 0.3351 0.5594
N5_2 N 0.02424(15) 0.4867(4) 0.19446(19)
H11_2 H 0.3671 0.9106 0.8614
H12_2 H 0.3610 0.7668 0.8557
N7_2 N 0.11860(11) 0.4022(3) 0.50160(14)
C34_2 C 0.10446(15) 0.5295(4) 0.4812(2)
C35_2 C 0.08616(15) 0.3058(4) 0.4572(2)
H23_2 H 0.1268 0.5971 0.5113
C36_2 C 0.05795(15) 0.5640(4) 0.4170(2)
C37_2 C 0.03929(18) 0.3338(4) 0.3930(2)
H24_2 H 0.0957 0.2173 0.4703
C38_2 C 0.02491(15) 0.4633(4) 0.37294(19)
H27_2 H 0.0493 0.6529 0.4039
H28_2 H 0.0175 0.2649 0.3635
O15_3 O 0.27123(9) 0.87364(19) 0.44668(11)
O16_3 O 0.29072(9) 0.5877(2) 0.49302(11)
N11_3 N 0.32202(10) 0.8050(3) 0.59541(13)
O13_2 O 0.74340(9) 0.2312(2) 0.82842(12)
O14_2 O 0.81513(10) 0.1427(2) 0.92101(12)
C31_2 C 0.77009(12) 0.1292(3) 0.86265(15)
H22_2 H 0.6985 0.0571 0.7320
C15_2 C 0.89554(15) 0.5295(4) 0.0188(2)
C16_2 C 0.91384(15) 0.3058(4) 0.0428(2)
C17_2 C 0.94205(15) 0.5640(4) 0.0830(2)
C18_2 C 0.96071(18) 0.3338(4) 0.1070(2)
H10_2 H 0.9043 0.2173 0.0297
C19_2 C 0.97509(15) 0.4633(4) 0.12706(19)
H13_2 H 0.9507 0.6529 0.0961
H14_2 H 0.9825 0.2649 0.1365
N6_2 N 0.82202(10) 0.6950(3) 0.09541(13)
C22_2 C 0.83338(13) 0.5676(3) 0.11656(17)
C23_2 C 0.85741(14) 0.7877(4) 0.13845(18)
C26_2 C 0.87951(15) 0.5279(4) 0.17920(19)
H15_2 H 0.8088 0.5025 0.0874
H16_2 H 0.8501 0.8765 0.1245
C27_2 C 0.90431(17) 0.7570(4) 0.2027(2)
C30_2 C 0.91541(15) 0.6258(4) 0.2225(2)
H17_2 H 0.8863 0.4384 0.1919
H18_2 H 0.9278 0.8239 0.2317
N9_2 N 0.96512(15) 0.6008(4) 0.29015(19)
H20_2 H 0.7920 0.3076 0.0003
N10_2 N 0.97576(15) 0.4867(4) 0.30554(19)
Ni4_3 Ni 0.7500 0.7500 0.0000
N2_2 N 0.88140(11) 0.4022(3) 0.99840(14)
H9_2 H 0.8732 0.5971 0.9887
O8_2 O 0.77123(9) 0.62636(19) 0.94668(11)
O9_2 O 0.79072(9) 0.9123(2) 0.99302(11)
C20_2 C 0.76877(11) 0.6298(3) 0.88938(15)
C21_2 C 0.81040(12) 0.8884(3) 0.95699(15)
O10_2 O 0.78109(10) 0.5338(2) 0.86593(11)
C24_2 C 0.75037(12) 0.7544(2) 0.84498(15)
O11_2 O 0.85735(10) 0.8687(3) 0.98153(14)
C25_2 C 0.76999(11) 0.8795(3) 0.87684(14)
C28_2 C 0.71331(12) 0.7426(3) 0.77174(15)
C29_2 C 0.74996(11) 0.9930(3) 0.83308(14)
O12_2 O 0.77622(11) 0.3623(2) 0.96578(13)
H19_2 H 0.7018 0.6587 0.7512
C32_2 C 0.69354(12) 0.8557(3) 0.72925(15)
C33_2 C 0.71186(12) 0.9810(3) 0.76024(15)
H21_2 H 0.7442 0.3351 0.9406
H25_2 H 0.6329 0.9106 0.6386
H26_2 H 0.6390 0.7668 0.6443
Ni4_4 Ni 0.7500 0.7500 1.0000
O15_4 O 0.72877(9) 0.87364(19) 0.05332(11)
O16_4 O 0.70928(9) 0.5877(2) 0.00698(11)
N11_4 N 0.67798(10) 0.8050(3) 0.90459(13)
N2_3 N 0.61860(11) 0.0978(3) 0.00160(14)
Ni3 Ni 0.690865(15) 0.14987(3) 0.093594(18)
O12_3 O 0.72378(11) 0.1377(2) 0.03422(13)
H21_3 H 0.7558 0.1649 0.0594
O18 O 0.75660(9) 0.2688(2) 0.17158(12)
O20 O 0.68487(10) 0.3573(2) 0.07899(12)
N12_2 N 0.65679(11) 0.1558(2) 0.15378(13)
Ni2 Ni 0.309135(15) 0.14987(3) 0.406406(18)
H3_3 H 0.3863 0.0616 0.6919
O5_3 O 0.27622(11) 0.1377(2) 0.46578(13)
H6_3 H 0.2920 0.1924 0.5003
H7_3 H 0.2442 0.1649 0.4406
C16_3 C 0.58616(15) 0.1942(4) 0.9572(2)
N5_3 N 0.47576(15) 0.0133(4) 0.80554(19)
C18_3 C 0.53929(18) 0.1662(4) 0.8930(2)
H10_3 H 0.5957 0.2827 0.9703
C19_3 C 0.52491(15) 0.0367(4) 0.87294(19)
H14_3 H 0.5175 0.2351 0.8635
H17_3 H 0.6137 0.0616 0.8081
N7_3 N 0.38140(11) 0.0978(3) 0.49840(14)
H20_3 H 0.7080 0.1924 0.9997
C35_3 C 0.41384(15) 0.1942(4) 0.5428(2)
N10_3 N 0.52424(15) 0.0133(4) 0.69446(19)
C37_3 C 0.46071(18) 0.1662(4) 0.6070(2)
H24_3 H 0.4043 0.2827 0.5297
C38_3 C 0.47509(15) 0.0367(4) 0.62706(19)
H28_3 H 0.4825 0.2351 0.6365
O17 O 0.24340(9) 0.2688(2) 0.32842(12)
O19 O 0.31513(10) 0.3573(2) 0.42101(12)
N13_2 N 0.34321(11) 0.1558(2) 0.34622(13)
H9_3 H 0.6268 0.9029 0.0113
C20_3 C 0.73123(11) 0.8702(3) 0.11062(15)
C21_3 C 0.68960(12) 0.6116(3) 0.04301(15)
O10_3 O 0.71891(10) 0.9662(2) 0.13407(11)
C24_3 C 0.74963(12) 0.7456(2) 0.15502(15)
O11_3 O 0.64265(10) 0.6313(3) 0.01847(14)
C25_3 C 0.73001(11) 0.6205(3) 0.12316(14)
C28_3 C 0.78669(12) 0.7574(3) 0.22826(15)
C29_3 C 0.75004(11) 0.5070(3) 0.16692(14)
N8_2 N 0.84321(11) 0.6558(2) 0.34622(13)
C31_3 C 0.72991(12) 0.3708(3) 0.13735(15)
H19_3 H 0.7982 0.8413 0.2488
C32_3 C 0.80646(12) 0.6443(3) 0.27075(15)
C33_3 C 0.78814(12) 0.5190(3) 0.23976(15)
H22_3 H 0.8015 0.4429 0.2680
H25_3 H 0.8671 0.5894 0.3614
H26_3 H 0.8610 0.7332 0.3557
Ni7_2 Ni 0.809135(15) 0.64987(3) 0.406406(18)
C1_3 C 0.26877(11) 0.8702(3) 0.38938(15)
C2_3 C 0.31040(12) 0.6116(3) 0.45699(15)
C3_3 C 0.33338(13) 0.9324(3) 0.61656(17)
C4_3 C 0.35741(14) 0.7123(4) 0.63845(18)
O3_3 O 0.28109(10) 0.9662(2) 0.36593(11)
C5_3 C 0.25037(12) 0.7456(2) 0.34498(15)
O4_3 O 0.35735(10) 0.6313(3) 0.48153(14)
C6_3 C 0.26999(11) 0.6205(3) 0.37684(14)
C7_3 C 0.37951(15) 0.9721(4) 0.67920(19)
H1_3 H 0.3088 0.9975 0.5874
H2_3 H 0.3501 0.6235 0.6245
C8_3 C 0.40431(17) 0.7430(4) 0.7027(2)
C9_3 C 0.21331(12) 0.7574(3) 0.27174(15)
C10_3 C 0.24996(11) 0.5070(3) 0.33308(14)
C11_3 C 0.41541(15) 0.8742(4) 0.7225(2)
H4_3 H 0.4278 0.6761 0.7317
N3_2 N 0.15679(11) 0.6558(2) 0.15378(13)
C12_3 C 0.27009(12) 0.3708(3) 0.36265(15)
H5_3 H 0.2018 0.8413 0.2512
C13_3 C 0.19354(12) 0.6443(3) 0.22925(15)
C14_3 C 0.21186(12) 0.5190(3) 0.26024(15)
N4_3 N 0.46512(15) 0.8992(4) 0.79015(19)
C15_3 C 0.60446(15) 0.9705(4) 0.9812(2)
H8_3 H 0.1985 0.4429 0.2320
C17_3 C 0.55795(15) 0.9360(4) 0.9170(2)
H11_3 H 0.1329 0.5894 0.1386
H12_3 H 0.1390 0.7332 0.1443
H13_3 H 0.5493 0.8471 0.9039
C22_3 C 0.66662(13) 0.9324(3) 0.88344(17)
C23_3 C 0.64259(14) 0.7123(4) 0.86155(18)
C26_3 C 0.62049(15) 0.9721(4) 0.82080(19)
H15_3 H 0.6912 0.9975 0.9126
H16_3 H 0.6499 0.6235 0.8755
C27_3 C 0.59569(17) 0.7430(4) 0.7973(2)
C30_3 C 0.58459(15) 0.8742(4) 0.7775(2)
H18_3 H 0.5722 0.6761 0.7683
N9_3 N 0.53488(15) 0.8992(4) 0.70985(19)
C34_3 C 0.39554(15) 0.9705(4) 0.5188(2)
H23_3 H 0.3732 0.9029 0.4887
C36_3 C 0.44205(15) 0.9360(4) 0.5830(2)
H27_3 H 0.4507 0.8471 0.5961
Ni8_2 Ni 0.190865(15) 0.64987(3) 0.093594(18)
N2_4 N 0.11860(11) 0.5978(3) 0.00160(14)
H9_4 H 0.1268 0.4029 0.0113
C20_4 C 0.23123(11) 0.3702(3) 0.11062(15)
C21_4 C 0.18960(12) 0.1116(3) 0.04301(15)
O10_4 O 0.21891(10) 0.4662(2) 0.13407(11)
C24_4 C 0.24963(12) 0.2456(2) 0.15502(15)
O11_4 O 0.14265(10) 0.1313(3) 0.01847(14)
C25_4 C 0.23001(11) 0.1205(3) 0.12316(14)
C28_4 C 0.28669(12) 0.2574(3) 0.22826(15)
C29_4 C 0.25004(11) 0.0070(3) 0.16692(14)
O12_4 O 0.22378(11) 0.6377(2) 0.03422(13)
H19_4 H 0.2982 0.3413 0.2488
C32_4 C 0.30646(12) 0.1443(3) 0.27075(15)
C33_4 C 0.28814(12) 0.0190(3) 0.23976(15)
H21_4 H 0.2558 0.6649 0.0594
H25_4 H 0.3671 0.0894 0.3614
H26_4 H 0.3610 0.2332 0.3557
O18_2 O 0.25660(9) 0.7688(2) 0.17158(12)
O20_2 O 0.18487(10) 0.8573(2) 0.07899(12)
C15_4 C 0.10446(15) 0.4705(4) 0.9812(2)
C16_4 C 0.08616(15) 0.6942(4) 0.9572(2)
C17_4 C 0.05795(15) 0.4360(4) 0.9170(2)
C18_4 C 0.03929(18) 0.6662(4) 0.8930(2)
H10_4 H 0.0957 0.7827 0.9703
C19_4 C 0.02491(15) 0.5367(4) 0.87294(19)
H13_4 H 0.0493 0.3471 0.9039
H14_4 H 0.0175 0.7351 0.8635
C22_4 C 0.16662(13) 0.4324(3) 0.88344(17)
C23_4 C 0.14259(14) 0.2123(4) 0.86155(18)
C26_4 C 0.12049(15) 0.4721(4) 0.82080(19)
H15_4 H 0.1912 0.4975 0.9126
H16_4 H 0.1499 0.1235 0.8755
C27_4 C 0.09569(17) 0.2430(4) 0.7973(2)
C30_4 C 0.08459(15) 0.3742(4) 0.7775(2)
H17_4 H 0.1137 0.5616 0.8081
H18_4 H 0.0722 0.1761 0.7683
N9_4 N 0.03488(15) 0.3992(4) 0.70985(19)
H20_4 H 0.2080 0.6924 0.9997
N10_4 N 0.02424(15) 0.5133(4) 0.69446(19)
C31_4 C 0.22991(12) 0.8708(3) 0.13735(15)
H22_4 H 0.3015 0.9429 0.2680
C1_4 C 0.76877(11) 0.3702(3) 0.38938(15)
C2_4 C 0.81040(12) 0.1116(3) 0.45699(15)
C3_4 C 0.83338(13) 0.4324(3) 0.61656(17)
C4_4 C 0.85741(14) 0.2123(4) 0.63845(18)
O3_4 O 0.78109(10) 0.4662(2) 0.36593(11)
C5_4 C 0.75037(12) 0.2456(2) 0.34498(15)
O4_4 O 0.85735(10) 0.1313(3) 0.48153(14)
C6_4 C 0.76999(11) 0.1205(3) 0.37684(14)
C7_4 C 0.87951(15) 0.4721(4) 0.67920(19)
H1_4 H 0.8088 0.4975 0.5874
H2_4 H 0.8501 0.1235 0.6245
C8_4 C 0.90431(17) 0.2430(4) 0.7027(2)
C9_4 C 0.71331(12) 0.2574(3) 0.27174(15)
C10_4 C 0.74996(11) 0.0070(3) 0.33308(14)
C11_4 C 0.91541(15) 0.3742(4) 0.7225(2)
H3_4 H 0.8863 0.5616 0.6919
H4_4 H 0.9278 0.1761 0.7317
O5_4 O 0.77622(11) 0.6377(2) 0.46578(13)
H5_4 H 0.7018 0.3413 0.2512
C13_4 C 0.69354(12) 0.1443(3) 0.22925(15)
C14_4 C 0.71186(12) 0.0190(3) 0.26024(15)
N4_4 N 0.96512(15) 0.3992(4) 0.79015(19)
H6_4 H 0.7920 0.6924 0.5003
H7_4 H 0.7442 0.6649 0.4406
N5_4 N 0.97576(15) 0.5133(4) 0.80554(19)
H11_4 H 0.6329 0.0894 0.1386
H12_4 H 0.6390 0.2332 0.1443
N7_4 N 0.88140(11) 0.5978(3) 0.49840(14)
C34_4 C 0.89554(15) 0.4705(4) 0.5188(2)
C35_4 C 0.91384(15) 0.6942(4) 0.5428(2)
H23_4 H 0.8732 0.4029 0.4887
C36_4 C 0.94205(15) 0.4360(4) 0.5830(2)
C37_4 C 0.96071(18) 0.6662(4) 0.6070(2)
H24_4 H 0.9043 0.7827 0.5297
C38_4 C 0.97509(15) 0.5367(4) 0.62706(19)
H27_4 H 0.9507 0.3471 0.5961
H28_4 H 0.9825 0.7351 0.6365
O17_2 O 0.74340(9) 0.7688(2) 0.32842(12)
O19_2 O 0.81513(10) 0.8573(2) 0.42101(12)
C12_4 C 0.77009(12) 0.8708(3) 0.36265(15)
H8_4 H 0.6985 0.9429 0.2320
loop_
_geom_bond_atom_site_label_1
_geom_bond_atom_site_label_2
_geom_bond_site_symmetry_1
_geom_bond_site_symmetry_2
Ni1 O1 1_555 1_555
O1 C1 1_555 1_555
O2 Ni1 1_555 1_555
N1 Ni1 1_555 1_555
C1 O3 1_555 1_555
C2 O2 1_555 1_555
C3 N1 1_555 1_555
C4 N1 1_555 1_555
C5 C1 1_555 1_555
O4 C2 1_555 1_555
C6 C2 1_555 1_555
C7 C3 1_555 1_555
H1 C3 1_555 1_555
H2 C4 1_555 1_555
C8 C4 1_555 1_555
C9 C5 1_555 1_555
C10 C6 1_555 1_555
C11 C7 1_555 1_555
H4 C8 1_555 1_555
O6 C12 1_555 1_555
O7 C12 1_555 1_555
N3 C13 1_555 1_555
C12 C10 1_555 1_555
H5 C9 1_555 1_555
C13 C9 1_555 1_555
C14 C10 1_555 1_555
N4 C11 1_555 1_555
H8 C14 1_555 1_555
C17 C15 1_555 1_555
H11 N3 1_555 1_555
H12 N3 1_555 1_555
H13 C17 1_555 1_555
N6 C22 1_555 1_555
C22 C26 1_555 1_555
C23 N6 1_555 1_555
C26 C30 1_555 1_555
H15 C22 1_555 1_555
H16 C23 1_555 1_555
C27 C23 1_555 1_555
C30 C27 1_555 1_555
H18 C27 1_555 1_555
N9 C30 1_555 1_555
H23 C34 1_555 1_555
C36 C34 1_555 1_555
H27 C36 1_555 1_555
O15 Ni1 1_555 1_555
O16 Ni1 1_555 1_555
N11 Ni1 1_555 1_555
Ni5 O6 1_555 1_555
Ni8 N3 1_555 1_555
C5 C6 1_555 1_555
C8 C11 1_555 1_555
O7 Ni5 1_555 1_555
C13 C14 1_555 1_555
N6 Ni4 1_555 1_555
O8 C20 1_555 1_555
O9 C21 1_555 1_555
C20 O10 1_555 1_555
C21 O11 1_555 1_555
C24 C20 1_555 1_555
C25 C21 1_555 1_555
C28 C24 1_555 1_555
C29 C25 1_555 1_555
O13 C31 1_555 1_555
O14 C31 1_555 1_555
N8 C32 1_555 1_555
C31 C29 1_555 1_555
H19 C28 1_555 1_555
C32 C28 1_555 1_555
C33 C29 1_555 1_555
H22 C33 1_555 1_555
H25 N8 1_555 1_555
H26 N8 1_555 1_555
Ni4_2 O8 1_555 1_555
Ni6 O13 1_555 1_555
Ni7 N8 1_555 1_555
O9 Ni4_2 1_555 1_555
C24 C25 1_555 1_555
O14 Ni6 1_555 1_555
C32 C33 1_555 1_555
Ni5 O5 1_555 1_555
O5 H6 1_555 1_555
H7 O5 1_555 1_555
C18 C16 1_555 1_555
H10 C16 1_555 1_555
C19 N5 1_555 1_555
H14 C18 1_555 1_555
N7 Ni5 1_555 1_555
C35 N7 1_555 1_555
C37 C35 1_555 1_555
H24 C35 1_555 1_555
C38 N10 1_555 1_555
H28 C37 1_555 1_555
N13 Ni5 1_555 1_555
C18 C19 1_555 1_555
C37 C38 1_555 1_555
Ni6 N2 1_555 1_555
O12 Ni6 1_555 1_555
H21 O12 1_555 1_555
N12 Ni6 1_555 1_555
O15_2 Ni4 1_555 1_555
O16_2 Ni4 1_555 1_555
N11_2 Ni4_2 1_555 1_555
O6_2 C12_2 1_555 1_555
O7_2 C12_2 1_555 1_555
Ni7 O6_2 1_555 1_555
O7_2 Ni7 1_555 1_555
Ni1_2 O1_2 1_555 1_555
O1_2 C1_2 1_555 1_555
O2_2 Ni1_2 1_555 1_555
N1_2 Ni1_2 1_555 1_555
C1_2 O3_2 1_555 1_555
C2_2 O2_2 1_555 1_555
C3_2 N1_2 1_555 1_555
C4_2 N1_2 1_555 1_555
O3_2 Ni7 1_555 1_555
C5_2 C1_2 1_555 1_555
O4_2 C2_2 1_555 1_555
C6_2 C2_2 1_555 1_555
C7_2 C3_2 1_555 1_555
H1_2 C3_2 1_555 1_555
H2_2 C4_2 1_555 1_555
C8_2 C4_2 1_555 1_555
Ni7 O5_2 1_555 1_555
C9_2 C5_2 1_555 1_555
C10_2 C6_2 1_555 1_555
C11_2 C7_2 1_555 1_555
H3_2 C7_2 1_555 1_555
H4_2 C8_2 1_555 1_555
O5_2 H6_2 1_555 1_555
N12 C13_2 1_555 1_555
H5_2 C9_2 1_555 1_555
C13_2 C9_2 1_555 1_555
C14_2 C10_2 1_555 1_555
N4_2 C11_2 1_555 1_555
H7_2 O5_2 1_555 1_555
N5_2 N4_2 1_555 1_555
H11_2 N12 1_555 1_555
H12_2 N12 1_555 1_555
N7_2 Ni7 1_555 1_555
C34_2 N7_2 1_555 1_555
C35_2 N7_2 1_555 1_555
H23_2 C34_2 1_555 1_555
C36_2 C34_2 1_555 1_555
C37_2 C35_2 1_555 1_555
H24_2 C35_2 1_555 1_555
H27_2 C36_2 1_555 1_555
H28_2 C37_2 1_555 1_555
O15_3 Ni1_2 1_555 1_555
O16_3 Ni1_2 1_555 1_555
N11_3 Ni1_2 1_555 1_555
C5_2 C6_2 1_555 1_555
C8_2 C11_2 1_555 1_555
C13_2 C14_2 1_555 1_555
C36_2 C38_2 1_555 1_555
C37_2 C38_2 1_555 1_555
O13_2 C31_2 1_555 1_555
O14_2 C31_2 1_555 1_555
Ni8 O13_2 1_555 1_555
O14_2 Ni8 1_555 1_555
C17_2 C15_2 1_555 1_555
C18_2 C16_2 1_555 1_555
H10_2 C16_2 1_555 1_555
H13_2 C17_2 1_555 1_555
H14_2 C18_2 1_555 1_555
N6_2 C22_2 1_555 1_555
C22_2 C26_2 1_555 1_555
C23_2 N6_2 1_555 1_555
C26_2 C30_2 1_555 1_555
H15_2 C22_2 1_555 1_555
H16_2 C23_2 1_555 1_555
C27_2 C23_2 1_555 1_555
C30_2 C27_2 1_555 1_555
H17_2 C26_2 1_555 1_555
H18_2 C27_2 1_555 1_555
N9_2 C30_2 1_555 1_555
N10_2 N9_2 1_555 1_555
C17_2 C19_2 1_555 1_555
C18_2 C19_2 1_555 1_555
N6_2 Ni4_3 1_555 1_555
O8_2 C20_2 1_555 1_555
O9_2 C21_2 1_555 1_555
C20_2 O10_2 1_555 1_555
C21_2 O11_2 1_555 1_555
O10_2 Ni8 1_555 1_555
C24_2 C20_2 1_555 1_555
C25_2 C21_2 1_555 1_555
Ni8 N2_2 1_555 1_555
C28_2 C24_2 1_555 1_555
C29_2 C25_2 1_555 1_555
O12_2 Ni8 1_555 1_555
N13 C32_2 1_555 1_555
H19_2 C28_2 1_555 1_555
C32_2 C28_2 1_555 1_555
C33_2 C29_2 1_555 1_555
H21_2 O12_2 1_555 1_555
H25_2 N13 1_555 1_555
H26_2 N13 1_555 1_555
Ni4_4 O8_2 1_555 1_555
O9_2 Ni4_4 1_555 1_555
C24_2 C25_2 1_555 1_555
C32_2 C33_2 1_555 1_555
O15_4 Ni4_3 1_555 1_555
O16_4 Ni4_3 1_555 1_555
N11_4 Ni4_4 1_555 1_555
Ni3 N2_3 1_555 1_555
O12_3 Ni3 1_555 1_555
H21_3 O12_3 1_555 1_555
O18 Ni3 1_555 1_555
O20 Ni3 1_555 1_555
N12_2 Ni3 1_555 1_555
Ni2 O5_3 1_555 1_555
O5_3 H6_3 1_555 1_555
H7_3 O5_3 1_555 1_555
C18_3 C16_3 1_555 1_555
H10_3 C16_3 1_555 1_555
C19_3 N5_3 1_555 1_555
H14_3 C18_3 1_555 1_555
N7_3 Ni2 1_555 1_555
C35_3 N7_3 1_555 1_555
C37_3 C35_3 1_555 1_555
H24_3 C35_3 1_555 1_555
C38_3 N10_3 1_555 1_555
H28_3 C37_3 1_555 1_555
O17 Ni2 1_555 1_555
O19 Ni2 1_555 1_555
N13_2 Ni2 1_555 1_555
C18_3 C19_3 1_555 1_555
C37_3 C38_3 1_555 1_555
O15_4 C20_3 1_555 1_555
O16_4 C21_3 1_555 1_555
C20_3 O10_3 1_555 1_555
C21_3 O11_3 1_555 1_555
C24_3 C20_3 1_555 1_555
C25_3 C21_3 1_555 1_555
C28_3 C24_3 1_555 1_555
C29_3 C25_3 1_555 1_555
O18 C31_3 1_555 1_555
O20 C31_3 1_555 1_555
N8_2 C32_3 1_555 1_555
C31_3 C29_3 1_555 1_555
H19_3 C28_3 1_555 1_555
C32_3 C28_3 1_555 1_555
C33_3 C29_3 1_555 1_555
H22_3 C33_3 1_555 1_555
H25_3 N8_2 1_555 1_555
H26_3 N8_2 1_555 1_555
Ni7_2 N8_2 1_555 1_555
C24_3 C25_3 1_555 1_555
C32_3 C33_3 1_555 1_555
O15_3 C1_3 1_555 1_555
C1_3 O3_3 1_555 1_555
C2_3 O16_3 1_555 1_555
C3_3 N11_3 1_555 1_555
C4_3 N11_3 1_555 1_555
C5_3 C1_3 1_555 1_555
O4_3 C2_3 1_555 1_555
C6_3 C2_3 1_555 1_555
C7_3 C3_3 1_555 1_555
H1_3 C3_3 1_555 1_555
H2_3 C4_3 1_555 1_555
C8_3 C4_3 1_555 1_555
C9_3 C5_3 1_555 1_555
C10_3 C6_3 1_555 1_555
C11_3 C7_3 1_555 1_555
H4_3 C8_3 1_555 1_555
O17 C12_3 1_555 1_555
O19 C12_3 1_555 1_555
N3_2 C13_3 1_555 1_555
C12_3 C10_3 1_555 1_555
H5_3 C9_3 1_555 1_555
C13_3 C9_3 1_555 1_555
C14_3 C10_3 1_555 1_555
N4_3 C11_3 1_555 1_555
H8_3 C14_3 1_555 1_555
C17_3 C15_3 1_555 1_555
H11_3 N3_2 1_555 1_555
H12_3 N3_2 1_555 1_555
H13_3 C17_3 1_555 1_555
N11_4 C22_3 1_555 1_555
C22_3 C26_3 1_555 1_555
C23_3 N11_4 1_555 1_555
C26_3 C30_3 1_555 1_555
H15_3 C22_3 1_555 1_555
H16_3 C23_3 1_555 1_555
C27_3 C23_3 1_555 1_555
C30_3 C27_3 1_555 1_555
H18_3 C27_3 1_555 1_555
N9_3 C30_3 1_555 1_555
H23_3 C34_3 1_555 1_555
C36_3 C34_3 1_555 1_555
H27_3 C36_3 1_555 1_555
Ni8_2 N3_2 1_555 1_555
C5_3 C6_3 1_555 1_555
C8_3 C11_3 1_555 1_555
C13_3 C14_3 1_555 1_555
O15_2 C20_4 1_555 1_555
O16_2 C21_4 1_555 1_555
C20_4 O10_4 1_555 1_555
C21_4 O11_4 1_555 1_555
O10_4 Ni8_2 1_555 1_555
C24_4 C20_4 1_555 1_555
C25_4 C21_4 1_555 1_555
Ni8_2 N2_4 1_555 1_555
C28_4 C24_4 1_555 1_555
C29_4 C25_4 1_555 1_555
O12_4 Ni8_2 1_555 1_555
N13_2 C32_4 1_555 1_555
H19_4 C28_4 1_555 1_555
C32_4 C28_4 1_555 1_555
C33_4 C29_4 1_555 1_555
H21_4 O12_4 1_555 1_555
H25_4 N13_2 1_555 1_555
H26_4 N13_2 1_555 1_555
O18_2 Ni8_2 1_555 1_555
O20_2 Ni8_2 1_555 1_555
C24_4 C25_4 1_555 1_555
C32_4 C33_4 1_555 1_555
C17_4 C15_4 1_555 1_555
C18_4 C16_4 1_555 1_555
H10_4 C16_4 1_555 1_555
H13_4 C17_4 1_555 1_555
H14_4 C18_4 1_555 1_555
N11_2 C22_4 1_555 1_555
C22_4 C26_4 1_555 1_555
C23_4 N11_2 1_555 1_555
C26_4 C30_4 1_555 1_555
H15_4 C22_4 1_555 1_555
H16_4 C23_4 1_555 1_555
C27_4 C23_4 1_555 1_555
C30_4 C27_4 1_555 1_555
H17_4 C26_4 1_555 1_555
H18_4 C27_4 1_555 1_555
N9_4 C30_4 1_555 1_555
N10_4 N9_4 1_555 1_555
C17_4 C19_4 1_555 1_555
C18_4 C19_4 1_555 1_555
O18_2 C31_4 1_555 1_555
O20_2 C31_4 1_555 1_555
O15 C1_4 1_555 1_555
C1_4 O3_4 1_555 1_555
C2_4 O16 1_555 1_555
C3_4 N11 1_555 1_555
C4_4 N11 1_555 1_555
O3_4 Ni7_2 1_555 1_555
C5_4 C1_4 1_555 1_555
O4_4 C2_4 1_555 1_555
C6_4 C2_4 1_555 1_555
C7_4 C3_4 1_555 1_555
H1_4 C3_4 1_555 1_555
H2_4 C4_4 1_555 1_555
C8_4 C4_4 1_555 1_555
Ni7_2 O5_4 1_555 1_555
C9_4 C5_4 1_555 1_555
C10_4 C6_4 1_555 1_555
C11_4 C7_4 1_555 1_555
H3_4 C7_4 1_555 1_555
H4_4 C8_4 1_555 1_555
O5_4 H6_4 1_555 1_555
N12_2 C13_4 1_555 1_555
H5_4 C9_4 1_555 1_555
C13_4 C9_4 1_555 1_555
C14_4 C10_4 1_555 1_555
N4_4 C11_4 1_555 1_555
H7_4 O5_4 1_555 1_555
N5_4 N4_4 1_555 1_555
H11_4 N12_2 1_555 1_555
H12_4 N12_2 1_555 1_555
N7_4 Ni7_2 1_555 1_555
C34_4 N7_4 1_555 1_555
C35_4 N7_4 1_555 1_555
H23_4 C34_4 1_555 1_555
C36_4 C34_4 1_555 1_555
C37_4 C35_4 1_555 1_555
H24_4 C35_4 1_555 1_555
H27_4 C36_4 1_555 1_555
H28_4 C37_4 1_555 1_555
O17_2 Ni7_2 1_555 1_555
O19_2 Ni7_2 1_555 1_555
C5_4 C6_4 1_555 1_555
C8_4 C11_4 1_555 1_555
C13_4 C14_4 1_555 1_555
C36_4 C38_4 1_555 1_555
C37_4 C38_4 1_555 1_555
O17_2 C12_4 1_555 1_555
O19_2 C12_4 1_555 1_555

#END
