
###############################################################################
#
# This file contains modified crystal structure data generated from the
# MOF subset of the Cambridge Structural Database (CSD) v543 
# hosted by the Cambridge Crystallographic Data Centre (CCDC).
#
# This work is licensed under the Creative Commons
# Attribution-NonCommercial-ShareAlike 4.0 International License.
# To view a copy of this license, visit
# http://creativecommons.org/licenses/by-nc-sa/4.0/
# or send a letter to
# Creative Commons, PO Box 1866, Mountain View, CA 94042, USA.
#
# CIF created using the CSD Python API on 29 September 2022
# The structure has been converted into the P1 space group
# The structure has a 3D framework
# The original CSD entry RIWMUH is in the tetragonal crystal system
# The framework has been calculated to contain at least 10.0% void space
# The void calculation uses a probe of radius 1.32A, grid spacing 0.4
# H atom positions have been added when not included in the experimental data
# Generated hydrogen atom positions removed from atoms on special positions
#
###############################################################################

data_RIWMUH
_chemical_formula_moiety         '(C128 H128 Cu8 O44)n'
_symmetry_cell_setting           triclinic
_symmetry_space_group_name_H-M   'P 1'
_symmetry_Int_Tables_number      1
_space_group_name_Hall           'P 1'
loop_
_symmetry_equiv_pos_site_id
_symmetry_equiv_pos_as_xyz
1 x,y,z
_cell_length_a                   27.086(3)
_cell_length_b                   27.086(3)
_cell_length_c                   6.7052(9)
_cell_angle_alpha                90
_cell_angle_beta                 90
_cell_angle_gamma                90
_cell_volume                     4919.28
loop_
_atom_site_label
_atom_site_type_symbol
_atom_site_fract_x
_atom_site_fract_y
_atom_site_fract_z
Cu1 Cu 0.520970(14) 0.020970(14) 0.15159(8)
O1 O 0.51076(11) 0.08266(9) 0.0048(4)
O2 O 0.55429(14) 0.05429(14) 0.4040(7)
O8 O 0.58266(9) 0.01076(11) 0.0048(4)
O9 O 0.45311(9) 0.02504(10) 0.2545(4)
C1 C 0.08374(13) 0.00887(13) 0.8362(5)
C2 C 0.13355(13) 0.01230(13) 0.7389(5)
C3 C 0.13756(12) 0.03437(14) 0.5545(5)
H1 H 0.1098 0.0472 0.4917
C4 C 0.18349(13) 0.03726(15) 0.4634(5)
C5 C 0.22561(13) 0.01709(16) 0.5513(6)
C8 C 0.15184(17) 0.0876(2) 0.2032(7)
H4 H 0.1620 0.1015 0.0781
H5 H 0.1431 0.1137 0.2935
H6 H 0.1238 0.0665 0.1823
O3 O 0.04689(9) 0.02504(10) 0.7455(4)
O4 O 0.19096(10) 0.05976(13) 0.2850(4)
C9 C 0.41626(13) 0.00887(13) 0.1638(5)
C10 C 0.36645(13) 0.01230(13) 0.2611(5)
C11 C 0.36244(12) 0.03437(14) 0.4455(5)
H7 H 0.3902 0.0472 0.5083
C12 C 0.31651(13) 0.03726(15) 0.5366(5)
C13 C 0.27439(13) 0.01709(16) 0.4487(6)
C16 C 0.34816(17) 0.0876(2) 0.7968(7)
H10 H 0.3380 0.1015 0.9219
H11 H 0.3569 0.1137 0.7065
H12 H 0.3762 0.0665 0.8177
O7 O 0.30904(10) 0.05976(13) 0.7150(4)
C1_2 C 0.49113(13) 0.08374(13) 0.8362(5)
C2_2 C 0.48770(13) 0.13355(13) 0.7389(5)
C3_2 C 0.46563(14) 0.13756(12) 0.5545(5)
H1_2 H 0.4528 0.1098 0.4917
C4_2 C 0.46274(15) 0.18349(13) 0.4634(5)
C5_2 C 0.48291(16) 0.22561(13) 0.5513(6)
C6 C 0.50385(19) 0.22068(14) 0.7359(7)
H2 H 0.5166 0.2484 0.7996
C7 C 0.50643(19) 0.17522(15) 0.8298(6)
H3 H 0.5209 0.1728 0.9552
C8_2 C 0.4124(2) 0.15184(17) 0.2032(7)
H4_2 H 0.3985 0.1620 0.0781
H5_2 H 0.3863 0.1431 0.2935
H6_2 H 0.4335 0.1238 0.1823
O3_2 O 0.47496(10) 0.04689(9) 0.7455(4)
O4_2 O 0.44024(13) 0.19096(10) 0.2850(4)
C9_2 C 0.49113(13) 0.41626(13) 0.1638(5)
C10_2 C 0.48770(13) 0.36645(13) 0.2611(5)
C11_2 C 0.46563(14) 0.36244(12) 0.4455(5)
H7_2 H 0.4528 0.3902 0.5083
C12_2 C 0.46274(15) 0.31651(13) 0.5366(5)
C13_2 C 0.48291(16) 0.27439(13) 0.4487(6)
C14 C 0.50385(19) 0.27932(14) 0.2641(7)
H8 H 0.5166 0.2516 0.2004
C15 C 0.50643(19) 0.32478(15) 0.1702(6)
H9 H 0.5209 0.3272 0.0448
C16_2 C 0.4124(2) 0.34816(17) 0.7968(7)
H10_2 H 0.3985 0.3380 0.9219
H11_2 H 0.3863 0.3569 0.7065
H12_2 H 0.4335 0.3762 0.8177
O6 O 0.47496(10) 0.45311(9) 0.2545(4)
O7_2 O 0.44024(13) 0.30904(10) 0.7150(4)
Cu2 Cu 0.479030(14) 0.520970(14) 0.15159(8)
O1_2 O 0.41734(9) 0.51076(11) 0.0048(4)
O2_2 O 0.44571(14) 0.55429(14) 0.4040(7)
O8_2 O 0.48924(11) 0.58266(9) 0.0048(4)
O10 O 0.54689(9) 0.52504(10) 0.2545(4)
O10_2 O 0.95311(9) 0.52504(10) 0.7455(4)
C1_3 C 0.58374(13) 0.50887(13) 0.1638(5)
C2_3 C 0.63355(13) 0.51230(13) 0.2611(5)
C3_3 C 0.63756(12) 0.53437(14) 0.4455(5)
H1_3 H 0.6098 0.5472 0.5083
C4_3 C 0.68349(13) 0.53726(15) 0.5366(5)
C5_3 C 0.72561(13) 0.51709(16) 0.4487(6)
C6_2 C 0.72068(14) 0.49615(19) 0.2641(7)
H2_2 H 0.7484 0.4834 0.2004
C7_2 C 0.67522(15) 0.49357(19) 0.1702(6)
H3_2 H 0.6728 0.4791 0.0448
C8_3 C 0.65184(17) 0.5876(2) 0.7968(7)
H4_3 H 0.6620 0.6015 0.9219
H5_3 H 0.6431 0.6137 0.7065
H6_3 H 0.6238 0.5665 0.8177
O4_3 O 0.69096(10) 0.55976(13) 0.7150(4)
C9_3 C 0.91626(13) 0.50887(13) 0.8362(5)
C10_3 C 0.86645(13) 0.51230(13) 0.7389(5)
C11_3 C 0.86244(12) 0.53437(14) 0.5545(5)
H7_3 H 0.8902 0.5472 0.4917
C12_3 C 0.81651(13) 0.53726(15) 0.4634(5)
C13_3 C 0.77439(13) 0.51709(16) 0.5513(6)
C14_2 C 0.77932(14) 0.49615(19) 0.7359(7)
H8_2 H 0.7516 0.4834 0.7996
C15_2 C 0.82478(15) 0.49357(19) 0.8298(6)
H9_2 H 0.8272 0.4791 0.9552
C16_3 C 0.84816(17) 0.5876(2) 0.2032(7)
H10_3 H 0.8380 0.6015 0.0781
H11_3 H 0.8569 0.6137 0.2935
H12_3 H 0.8762 0.5665 0.1823
O7_3 O 0.80904(10) 0.55976(13) 0.2850(4)
O5 O 0.51076(11) 0.41734(9) 0.9952(4)
Cu3 Cu 0.520970(14) 0.479030(14) 0.84841(8)
O10_3 O 0.52504(10) 0.95311(9) 0.2545(4)
O9_2 O 0.04689(9) 0.47496(10) 0.2545(4)
C1_4 C 0.41626(13) 0.49113(13) 0.8362(5)
C2_4 C 0.36645(13) 0.48770(13) 0.7389(5)
C3_4 C 0.36244(12) 0.46563(14) 0.5545(5)
H1_4 H 0.3902 0.4528 0.4917
C4_4 C 0.31651(13) 0.46274(15) 0.4634(5)
C5_4 C 0.27439(13) 0.48291(16) 0.5513(6)
C6_3 C 0.27932(14) 0.50385(19) 0.7359(7)
H2_3 H 0.2516 0.5166 0.7996
C7_3 C 0.32478(15) 0.50643(19) 0.8298(6)
H3_3 H 0.3272 0.5209 0.9552
C8_4 C 0.34816(17) 0.4124(2) 0.2032(7)
H4_4 H 0.3380 0.3985 0.0781
H5_4 H 0.3569 0.3863 0.2935
H6_4 H 0.3762 0.4335 0.1823
O3_3 O 0.45311(9) 0.47496(10) 0.7455(4)
O4_4 O 0.30904(10) 0.44024(13) 0.2850(4)
C9_4 C 0.08374(13) 0.49113(13) 0.1638(5)
C10_4 C 0.13355(13) 0.48770(13) 0.2611(5)
C11_4 C 0.13756(12) 0.46563(14) 0.4455(5)
H7_4 H 0.1098 0.4528 0.5083
C12_4 C 0.18349(13) 0.46274(15) 0.5366(5)
C13_4 C 0.22561(13) 0.48291(16) 0.4487(6)
C14_3 C 0.22068(14) 0.50385(19) 0.2641(7)
H8_3 H 0.2484 0.5166 0.2004
C15_3 C 0.17522(15) 0.50643(19) 0.1702(6)
H9_3 H 0.1728 0.5209 0.0448
C16_4 C 0.15184(17) 0.4124(2) 0.7968(7)
H10_4 H 0.1620 0.3985 0.9219
H11_4 H 0.1431 0.3863 0.7065
H12_4 H 0.1238 0.4335 0.8177
O7_4 O 0.19096(10) 0.44024(13) 0.7150(4)
O2_3 O 0.55429(14) 0.44571(14) 0.5960(7)
O8_3 O 0.58266(9) 0.48924(11) 0.9952(4)
O10_4 O 0.52504(10) 0.54689(9) 0.7455(4)
C1_5 C 0.50887(13) 0.91626(13) 0.1638(5)
C2_5 C 0.51230(13) 0.86645(13) 0.2611(5)
C3_5 C 0.53437(14) 0.86244(12) 0.4455(5)
H1_5 H 0.5472 0.8902 0.5083
C4_5 C 0.53726(15) 0.81651(13) 0.5366(5)
C5_5 C 0.51709(16) 0.77439(13) 0.4487(6)
C6_4 C 0.49615(19) 0.77932(14) 0.2641(7)
H2_4 H 0.4834 0.7516 0.2004
C7_4 C 0.49357(19) 0.82478(15) 0.1702(6)
H3_4 H 0.4791 0.8272 0.0448
C8_5 C 0.5876(2) 0.84816(17) 0.7968(7)
H4_5 H 0.6015 0.8380 0.9219
H5_5 H 0.6137 0.8569 0.7065
H6_5 H 0.5665 0.8762 0.8177
O4_5 O 0.55976(13) 0.80904(10) 0.7150(4)
C9_5 C 0.50887(13) 0.58374(13) 0.8362(5)
C10_5 C 0.51230(13) 0.63355(13) 0.7389(5)
C11_5 C 0.53437(14) 0.63756(12) 0.5545(5)
H7_5 H 0.5472 0.6098 0.4917
C12_5 C 0.53726(15) 0.68349(13) 0.4634(5)
C13_5 C 0.51709(16) 0.72561(13) 0.5513(6)
C14_4 C 0.49615(19) 0.72068(14) 0.7359(7)
H8_4 H 0.4834 0.7484 0.7996
C15_4 C 0.49357(19) 0.67522(15) 0.8298(6)
H9_4 H 0.4791 0.6728 0.9552
C16_5 C 0.5876(2) 0.65184(17) 0.2032(7)
H10_5 H 0.6015 0.6620 0.0781
H11_5 H 0.6137 0.6431 0.2935
H12_5 H 0.5665 0.6238 0.1823
O7_5 O 0.55976(13) 0.69096(10) 0.2850(4)
Cu4 Cu 0.479030(14) 0.979030(14) 0.84841(8)
O5_2 O 0.41734(9) 0.98924(11) 0.9952(4)
O10_5 O 0.95311(9) 0.97496(10) 0.2545(4)
O2_4 O 0.44571(14) 0.94571(14) 0.5960(7)
O8_4 O 0.48924(11) 0.91734(9) 0.9952(4)
O10_6 O 0.54689(9) 0.97496(10) 0.7455(4)
C1_6 C 0.91626(13) 0.99113(13) 0.1638(5)
C2_6 C 0.86645(13) 0.98770(13) 0.2611(5)
C3_6 C 0.86244(12) 0.96563(14) 0.4455(5)
H1_6 H 0.8902 0.9528 0.5083
C4_6 C 0.81651(13) 0.96274(15) 0.5366(5)
C5_6 C 0.77439(13) 0.98291(16) 0.4487(6)
C8_6 C 0.84816(17) 0.9124(2) 0.7968(7)
H4_6 H 0.8380 0.8985 0.9219
H5_6 H 0.8569 0.8863 0.7065
H6_6 H 0.8762 0.9335 0.8177
O4_6 O 0.80904(10) 0.94024(13) 0.7150(4)
C9_6 C 0.58374(13) 0.99113(13) 0.8362(5)
C10_6 C 0.63355(13) 0.98770(13) 0.7389(5)
C11_6 C 0.63756(12) 0.96563(14) 0.5545(5)
H7_6 H 0.6098 0.9528 0.4917
C12_6 C 0.68349(13) 0.96274(15) 0.4634(5)
C13_6 C 0.72561(13) 0.98291(16) 0.5513(6)
C16_6 C 0.65184(17) 0.9124(2) 0.2032(7)
H10_6 H 0.6620 0.8985 0.0781
H11_6 H 0.6431 0.8863 0.2935
H12_6 H 0.6238 0.9335 0.1823
O7_6 O 0.69096(10) 0.94024(13) 0.2850(4)
C1_7 C 0.00887(13) 0.41626(13) 0.8362(5)
C2_7 C 0.01230(13) 0.36645(13) 0.7389(5)
C3_7 C 0.03437(14) 0.36244(12) 0.5545(5)
H1_7 H 0.0472 0.3902 0.4917
C4_7 C 0.03726(15) 0.31651(13) 0.4634(5)
C5_7 C 0.01709(16) 0.27439(13) 0.5513(6)
C8_7 C 0.0876(2) 0.34816(17) 0.2032(7)
H4_7 H 0.1015 0.3380 0.0781
H5_7 H 0.1137 0.3569 0.2935
H6_7 H 0.0665 0.3762 0.1823
O3_4 O 0.02504(10) 0.45311(9) 0.7455(4)
O4_7 O 0.05976(13) 0.30904(10) 0.2850(4)
C9_7 C 0.00887(13) 0.08374(13) 0.1638(5)
C10_7 C 0.01230(13) 0.13355(13) 0.2611(5)
C11_7 C 0.03437(14) 0.13756(12) 0.4455(5)
H7_7 H 0.0472 0.1098 0.5083
C12_7 C 0.03726(15) 0.18349(13) 0.5366(5)
C13_7 C 0.01709(16) 0.22561(13) 0.4487(6)
C16_7 C 0.0876(2) 0.15184(17) 0.7968(7)
H10_7 H 0.1015 0.1620 0.9219
H11_7 H 0.1137 0.1431 0.7065
H12_7 H 0.0665 0.1238 0.8177
O6_2 O 0.02504(10) 0.04689(9) 0.2545(4)
O7_7 O 0.05976(13) 0.19096(10) 0.7150(4)
Cu4_2 Cu 0.020970(14) 0.520970(14) 0.84841(8)
O5_3 O 0.08266(9) 0.51076(11) 0.9952(4)
O2_5 O 0.05429(14) 0.55429(14) 0.5960(7)
O8_5 O 0.01076(11) 0.58266(9) 0.9952(4)
Cu2_2 Cu 0.020970(14) 0.979030(14) 0.15159(8)
O1_3 O 0.08266(9) 0.98924(11) 0.0048(4)
O2_6 O 0.05429(14) 0.94571(14) 0.4040(7)
O8_6 O 0.01076(11) 0.91734(9) 0.0048(4)
Cu1_2 Cu 0.979030(14) 0.479030(14) 0.15159(8)
O1_4 O 0.98924(11) 0.41734(9) 0.0048(4)
O2_7 O 0.94571(14) 0.44571(14) 0.4040(7)
O8_7 O 0.91734(9) 0.48924(11) 0.0048(4)
O10_7 O 0.97496(10) 0.54689(9) 0.2545(4)
O10_8 O 0.97496(10) 0.95311(9) 0.7455(4)
C1_8 C 0.99113(13) 0.58374(13) 0.1638(5)
C2_8 C 0.98770(13) 0.63355(13) 0.2611(5)
C3_8 C 0.96563(14) 0.63756(12) 0.4455(5)
H1_8 H 0.9528 0.6098 0.5083
C4_8 C 0.96274(15) 0.68349(13) 0.5366(5)
C5_8 C 0.98291(16) 0.72561(13) 0.4487(6)
C8_8 C 0.9124(2) 0.65184(17) 0.7968(7)
H4_8 H 0.8985 0.6620 0.9219
H5_8 H 0.8863 0.6431 0.7065
H6_8 H 0.9335 0.6238 0.8177
O4_8 O 0.94024(13) 0.69096(10) 0.7150(4)
C9_8 C 0.99113(13) 0.91626(13) 0.8362(5)
C10_8 C 0.98770(13) 0.86645(13) 0.7389(5)
C11_8 C 0.96563(14) 0.86244(12) 0.5545(5)
H7_8 H 0.9528 0.8902 0.4917
C12_8 C 0.96274(15) 0.81651(13) 0.4634(5)
C13_8 C 0.98291(16) 0.77439(13) 0.5513(6)
C16_8 C 0.9124(2) 0.84816(17) 0.2032(7)
H10_8 H 0.8985 0.8380 0.0781
H11_8 H 0.8863 0.8569 0.2935
H12_8 H 0.9335 0.8762 0.1823
O7_8 O 0.94024(13) 0.80904(10) 0.2850(4)
C6_5 C 0.99615(19) 0.27932(14) 0.7359(7)
H2_5 H 0.9834 0.2516 0.7996
C7_5 C 0.99357(19) 0.32478(15) 0.8298(6)
H3_5 H 0.9791 0.3272 0.9552
C14_5 C 0.99615(19) 0.22068(14) 0.2641(7)
H8_5 H 0.9834 0.2484 0.2004
C15_5 C 0.99357(19) 0.17522(15) 0.1702(6)
H9_5 H 0.9791 0.1728 0.0448
O5_4 O 0.98924(11) 0.08266(9) 0.9952(4)
Cu3_2 Cu 0.979030(14) 0.020970(14) 0.84841(8)
O2_8 O 0.94571(14) 0.05429(14) 0.5960(7)
O8_8 O 0.91734(9) 0.01076(11) 0.9952(4)
C6_6 C 0.22068(14) 0.99615(19) 0.7359(7)
H2_6 H 0.2484 0.9834 0.7996
C7_6 C 0.17522(15) 0.99357(19) 0.8298(6)
H3_6 H 0.1728 0.9791 0.9552
C14_6 C 0.27932(14) 0.99615(19) 0.2641(7)
H8_6 H 0.2516 0.9834 0.2004
C15_6 C 0.32478(15) 0.99357(19) 0.1702(6)
H9_6 H 0.3272 0.9791 0.0448
C6_7 C 0.00385(19) 0.72068(14) 0.2641(7)
H2_7 H 0.0166 0.7484 0.2004
C7_7 C 0.00643(19) 0.67522(15) 0.1702(6)
H3_7 H 0.0209 0.6728 0.0448
C14_7 C 0.00385(19) 0.77932(14) 0.7359(7)
H8_7 H 0.0166 0.7516 0.7996
C15_7 C 0.00643(19) 0.82478(15) 0.8298(6)
H9_7 H 0.0209 0.8272 0.9552
C6_8 C 0.77932(14) 0.00385(19) 0.2641(7)
H2_8 H 0.7516 0.0166 0.2004
C7_8 C 0.82478(15) 0.00643(19) 0.1702(6)
H3_8 H 0.8272 0.0209 0.0448
C14_8 C 0.72068(14) 0.00385(19) 0.7359(7)
H8_8 H 0.7484 0.0166 0.7996
C15_8 C 0.67522(15) 0.00643(19) 0.8298(6)
H9_8 H 0.6728 0.0209 0.9552
loop_
_geom_bond_atom_site_label_1
_geom_bond_atom_site_label_2
_geom_bond_site_symmetry_1
_geom_bond_site_symmetry_2
Cu1 O1 1_555 1_555
O2 Cu1 1_555 1_555
O8 Cu1 1_555 1_555
O9 Cu1 1_555 1_555
C1 C2 1_555 1_555
C2 C3 1_555 1_555
C3 H1 1_555 1_555
C4 C3 1_555 1_555
C5 C4 1_555 1_555
C8 H4 1_555 1_555
H5 C8 1_555 1_555
H6 C8 1_555 1_555
O3 C1 1_555 1_555
O4 C4 1_555 1_555
C9 C10 1_555 1_555
C10 C11 1_555 1_555
C11 H7 1_555 1_555
C12 C11 1_555 1_555
C13 C5 1_555 1_555
C16 H10 1_555 1_555
H11 C16 1_555 1_555
H12 C16 1_555 1_555
O9 C9 1_555 1_555
O7 C12 1_555 1_555
C8 O4 1_555 1_555
C12 C13 1_555 1_555
C16 O7 1_555 1_555
C1_2 C2_2 1_555 1_555
C2_2 C3_2 1_555 1_555
C3_2 H1_2 1_555 1_555
C4_2 C3_2 1_555 1_555
C5_2 C4_2 1_555 1_555
C6 C5_2 1_555 1_555
H2 C6 1_555 1_555
C7 C2_2 1_555 1_555
H3 C7 1_555 1_555
C8_2 H4_2 1_555 1_555
H5_2 C8_2 1_555 1_555
H6_2 C8_2 1_555 1_555
O3_2 C1_2 1_555 1_555
O4_2 C4_2 1_555 1_555
C9_2 C10_2 1_555 1_555
C10_2 C11_2 1_555 1_555
C11_2 H7_2 1_555 1_555
C12_2 C11_2 1_555 1_555
C13_2 C5_2 1_555 1_555
C14 C13_2 1_555 1_555
H8 C14 1_555 1_555
C15 C10_2 1_555 1_555
H9 C15 1_555 1_555
C16_2 H10_2 1_555 1_555
H11_2 C16_2 1_555 1_555
H12_2 C16_2 1_555 1_555
O6 C9_2 1_555 1_555
O7_2 C12_2 1_555 1_555
Cu2 O6 1_555 1_555
C6 C7 1_555 1_555
C8_2 O4_2 1_555 1_555
C12_2 C13_2 1_555 1_555
C14 C15 1_555 1_555
C16_2 O7_2 1_555 1_555
Cu2 O1_2 1_555 1_555
O2_2 Cu2 1_555 1_555
O8_2 Cu2 1_555 1_555
O10 Cu2 1_555 1_555
C1_3 C2_3 1_555 1_555
C2_3 C3_3 1_555 1_555
C3_3 H1_3 1_555 1_555
C4_3 C3_3 1_555 1_555
C5_3 C4_3 1_555 1_555
C6_2 C5_3 1_555 1_555
H2_2 C6_2 1_555 1_555
C7_2 C2_3 1_555 1_555
H3_2 C7_2 1_555 1_555
C8_3 H4_3 1_555 1_555
H5_3 C8_3 1_555 1_555
H6_3 C8_3 1_555 1_555
O10 C1_3 1_555 1_555
O4_3 C4_3 1_555 1_555
C9_3 C10_3 1_555 1_555
C10_3 C11_3 1_555 1_555
C11_3 H7_3 1_555 1_555
C12_3 C11_3 1_555 1_555
C13_3 C5_3 1_555 1_555
C14_2 C13_3 1_555 1_555
H8_2 C14_2 1_555 1_555
C15_2 C10_3 1_555 1_555
H9_2 C15_2 1_555 1_555
C16_3 H10_3 1_555 1_555
H11_3 C16_3 1_555 1_555
H12_3 C16_3 1_555 1_555
O10_2 C9_3 1_555 1_555
O7_3 C12_3 1_555 1_555
C6_2 C7_2 1_555 1_555
C8_3 O4_3 1_555 1_555
C12_3 C13_3 1_555 1_555
C14_2 C15_2 1_555 1_555
C16_3 O7_3 1_555 1_555
Cu3 O5 1_555 1_555
C1_4 C2_4 1_555 1_555
C2_4 C3_4 1_555 1_555
C3_4 H1_4 1_555 1_555
C4_4 C3_4 1_555 1_555
C5_4 C4_4 1_555 1_555
C6_3 C5_4 1_555 1_555
H2_3 C6_3 1_555 1_555
C7_3 C2_4 1_555 1_555
H3_3 C7_3 1_555 1_555
C8_4 H4_4 1_555 1_555
H5_4 C8_4 1_555 1_555
H6_4 C8_4 1_555 1_555
O3_3 C1_4 1_555 1_555
O4_4 C4_4 1_555 1_555
C9_4 C10_4 1_555 1_555
C10_4 C11_4 1_555 1_555
C11_4 H7_4 1_555 1_555
C12_4 C11_4 1_555 1_555
C13_4 C5_4 1_555 1_555
C14_3 C13_4 1_555 1_555
H8_3 C14_3 1_555 1_555
C15_3 C10_4 1_555 1_555
H9_3 C15_3 1_555 1_555
C16_4 H10_4 1_555 1_555
H11_4 C16_4 1_555 1_555
H12_4 C16_4 1_555 1_555
O9_2 C9_4 1_555 1_555
O7_4 C12_4 1_555 1_555
Cu3 O3_3 1_555 1_555
C6_3 C7_3 1_555 1_555
C8_4 O4_4 1_555 1_555
C12_4 C13_4 1_555 1_555
C14_3 C15_3 1_555 1_555
C16_4 O7_4 1_555 1_555
O2_3 Cu3 1_555 1_555
O8_3 Cu3 1_555 1_555
O10_4 Cu3 1_555 1_555
C1_5 C2_5 1_555 1_555
C2_5 C3_5 1_555 1_555
C3_5 H1_5 1_555 1_555
C4_5 C3_5 1_555 1_555
C5_5 C4_5 1_555 1_555
C6_4 C5_5 1_555 1_555
H2_4 C6_4 1_555 1_555
C7_4 C2_5 1_555 1_555
H3_4 C7_4 1_555 1_555
C8_5 H4_5 1_555 1_555
H5_5 C8_5 1_555 1_555
H6_5 C8_5 1_555 1_555
O10_3 C1_5 1_555 1_555
O4_5 C4_5 1_555 1_555
C9_5 C10_5 1_555 1_555
C10_5 C11_5 1_555 1_555
C11_5 H7_5 1_555 1_555
C12_5 C11_5 1_555 1_555
C13_5 C5_5 1_555 1_555
C14_4 C13_5 1_555 1_555
H8_4 C14_4 1_555 1_555
C15_4 C10_5 1_555 1_555
H9_4 C15_4 1_555 1_555
C16_5 H10_5 1_555 1_555
H11_5 C16_5 1_555 1_555
H12_5 C16_5 1_555 1_555
O10_4 C9_5 1_555 1_555
O7_5 C12_5 1_555 1_555
C6_4 C7_4 1_555 1_555
C8_5 O4_5 1_555 1_555
C12_5 C13_5 1_555 1_555
C14_4 C15_4 1_555 1_555
C16_5 O7_5 1_555 1_555
Cu4 O5_2 1_555 1_555
O2_4 Cu4 1_555 1_555
O8_4 Cu4 1_555 1_555
O10_6 Cu4 1_555 1_555
C1_6 C2_6 1_555 1_555
C2_6 C3_6 1_555 1_555
C3_6 H1_6 1_555 1_555
C4_6 C3_6 1_555 1_555
C5_6 C4_6 1_555 1_555
C8_6 H4_6 1_555 1_555
H5_6 C8_6 1_555 1_555
H6_6 C8_6 1_555 1_555
O10_5 C1_6 1_555 1_555
O4_6 C4_6 1_555 1_555
C9_6 C10_6 1_555 1_555
C10_6 C11_6 1_555 1_555
C11_6 H7_6 1_555 1_555
C12_6 C11_6 1_555 1_555
C13_6 C5_6 1_555 1_555
C16_6 H10_6 1_555 1_555
H11_6 C16_6 1_555 1_555
H12_6 C16_6 1_555 1_555
O10_6 C9_6 1_555 1_555
O7_6 C12_6 1_555 1_555
C8_6 O4_6 1_555 1_555
C12_6 C13_6 1_555 1_555
C16_6 O7_6 1_555 1_555
C1_7 C2_7 1_555 1_555
C2_7 C3_7 1_555 1_555
C3_7 H1_7 1_555 1_555
C4_7 C3_7 1_555 1_555
C5_7 C4_7 1_555 1_555
C8_7 H4_7 1_555 1_555
H5_7 C8_7 1_555 1_555
H6_7 C8_7 1_555 1_555
O3_4 C1_7 1_555 1_555
O4_7 C4_7 1_555 1_555
C9_7 C10_7 1_555 1_555
C10_7 C11_7 1_555 1_555
C11_7 H7_7 1_555 1_555
C12_7 C11_7 1_555 1_555
C13_7 C5_7 1_555 1_555
C16_7 H10_7 1_555 1_555
H11_7 C16_7 1_555 1_555
H12_7 C16_7 1_555 1_555
O6_2 C9_7 1_555 1_555
O7_7 C12_7 1_555 1_555
Cu4_2 O3_4 1_555 1_555
C8_7 O4_7 1_555 1_555
C12_7 C13_7 1_555 1_555
C16_7 O7_7 1_555 1_555
Cu4_2 O5_3 1_555 1_555
O2_5 Cu4_2 1_555 1_555
O8_5 Cu4_2 1_555 1_555
Cu2_2 O1_3 1_555 1_555
O2_6 Cu2_2 1_555 1_555
O8_6 Cu2_2 1_555 1_555
Cu1_2 O1_4 1_555 1_555
O2_7 Cu1_2 1_555 1_555
O8_7 Cu1_2 1_555 1_555
O10_7 Cu1_2 1_555 1_555
C1_8 C2_8 1_555 1_555
C2_8 C3_8 1_555 1_555
C3_8 H1_8 1_555 1_555
C4_8 C3_8 1_555 1_555
C5_8 C4_8 1_555 1_555
C8_8 H4_8 1_555 1_555
H5_8 C8_8 1_555 1_555
H6_8 C8_8 1_555 1_555
O10_7 C1_8 1_555 1_555
O4_8 C4_8 1_555 1_555
C9_8 C10_8 1_555 1_555
C10_8 C11_8 1_555 1_555
C11_8 H7_8 1_555 1_555
C12_8 C11_8 1_555 1_555
C13_8 C5_8 1_555 1_555
C16_8 H10_8 1_555 1_555
H11_8 C16_8 1_555 1_555
H12_8 C16_8 1_555 1_555
O10_8 C9_8 1_555 1_555
O7_8 C12_8 1_555 1_555
C8_8 O4_8 1_555 1_555
C12_8 C13_8 1_555 1_555
C16_8 O7_8 1_555 1_555
H2_5 C6_5 1_555 1_555
H3_5 C7_5 1_555 1_555
H8_5 C14_5 1_555 1_555
H9_5 C15_5 1_555 1_555
C6_5 C7_5 1_555 1_555
C14_5 C15_5 1_555 1_555
Cu3_2 O5_4 1_555 1_555
O2_8 Cu3_2 1_555 1_555
O8_8 Cu3_2 1_555 1_555
H2_6 C6_6 1_555 1_555
H3_6 C7_6 1_555 1_555
H8_6 C14_6 1_555 1_555
H9_6 C15_6 1_555 1_555
C6_6 C7_6 1_555 1_555
C14_6 C15_6 1_555 1_555
H2_7 C6_7 1_555 1_555
H3_7 C7_7 1_555 1_555
H8_7 C14_7 1_555 1_555
H9_7 C15_7 1_555 1_555
C6_7 C7_7 1_555 1_555
C14_7 C15_7 1_555 1_555
H2_8 C6_8 1_555 1_555
H3_8 C7_8 1_555 1_555
H8_8 C14_8 1_555 1_555
H9_8 C15_8 1_555 1_555
C6_8 C7_8 1_555 1_555
C14_8 C15_8 1_555 1_555

#END
