
###############################################################################
#
# This file contains modified crystal structure data generated from the
# MOF subset of the Cambridge Structural Database (CSD) v543 
# hosted by the Cambridge Crystallographic Data Centre (CCDC).
#
# This work is licensed under the Creative Commons
# Attribution-NonCommercial-ShareAlike 4.0 International License.
# To view a copy of this license, visit
# http://creativecommons.org/licenses/by-nc-sa/4.0/
# or send a letter to
# Creative Commons, PO Box 1866, Mountain View, CA 94042, USA.
#
# CIF created using the CSD Python API on 29 September 2022
# The structure has been converted into the P1 space group
# The structure has a 3D framework
# The original CSD entry RIWNAO is in the tetragonal crystal system
# The framework has been calculated to contain at least 10.0% void space
# The void calculation uses a probe of radius 1.32A, grid spacing 0.4
# The framework is charged, counterions have been retained in the structure
# H atom positions have been added when not included in the experimental data
#
###############################################################################

data_RIWNAO
_chemical_formula_moiety         '(C672 H608 Cd26 N16 Na18 O234 5+)n'
_symmetry_cell_setting           triclinic
_symmetry_space_group_name_H-M   'P 1'
_symmetry_Int_Tables_number      1
_space_group_name_Hall           'P 1'
loop_
_symmetry_equiv_pos_site_id
_symmetry_equiv_pos_as_xyz
1 x,y,z
_cell_length_a                   21.769(2)
_cell_length_b                   21.769(2)
_cell_length_c                   44.426(9)
_cell_angle_alpha                90
_cell_angle_beta                 90
_cell_angle_gamma                90
_cell_volume                     21053
loop_
_atom_site_label
_atom_site_type_symbol
_atom_site_fract_x
_atom_site_fract_y
_atom_site_fract_z
Cd1 Cd 0.0000 0.0000 0.5000
O8 O 0.0538(3) 0.0538(3) 0.54220(18)
C17 C 0.0109(5) 0.0913(4) 0.54261(19)
C18 C 0.0149(4) 0.1370(4) 0.56854(18)
C21 C 0.0106(4) 0.2246(3) 0.61293(14)
C22 C 0.0567(4) 0.1840(4) 0.6101(2)
H14 H 0.0891 0.1856 0.6237
C23 C 0.0579(4) 0.1418(4) 0.58848(16)
H15 H 0.0908 0.1147 0.5877
O11 O 0.0538(3) 0.4462(3) 0.70780(18)
C25 C 0.0109(5) 0.4087(4) 0.70739(19)
C26 C 0.0149(4) 0.3630(4) 0.68146(18)
C29 C 0.0106(4) 0.2754(3) 0.63707(14)
C30 C 0.0567(4) 0.3160(4) 0.6399(2)
H20 H 0.0891 0.3144 0.6263
C31 C 0.0579(4) 0.3582(4) 0.66152(16)
H21 H 0.0908 0.3853 0.6623
Cd3 Cd -0.0000 0.5000 0.7500
O14 O 0.0867(3) 0.0314(3) 0.47462(13)
Cd1_2 Cd 0.0000 1.0000 0.5000
O1 O 0.0314(3) 0.9133(3) 0.52538(13)
O3 O 0.0833(3) 0.7359(3) 0.59429(16)
C3 C 0.0326(5) 0.8230(4) 0.56911(19)
H1 H 0.0626 0.8264 0.5543
C4 C 0.0389(5) 0.7759(4) 0.59127(17)
C8 C 0.1421(6) 0.7431(7) 0.5790(3)
H4 H 0.1673 0.7077 0.5828
H5 H 0.1625 0.7792 0.5865
H6 H 0.1354 0.7472 0.5577
O4 O 0.0314(3) 0.5867(3) 0.72462(13)
O6 O 0.0833(3) 0.7641(3) 0.65571(16)
C11 C 0.0326(5) 0.6770(4) 0.68089(19)
H7 H 0.0626 0.6736 0.6957
C12 C 0.0389(5) 0.7241(4) 0.65873(17)
C16 C 0.1421(6) 0.7569(7) 0.6710(3)
H10 H 0.1673 0.7923 0.6672
H11 H 0.1625 0.7208 0.6635
H12 H 0.1354 0.7528 0.6923
O16 O 0.0538(3) 0.9462(3) 0.45780(18)
Cd1_3 Cd 1.0000 0.0000 0.5000
O7 O 0.9686(3) 0.0867(3) 0.52538(13)
O9 O 0.9167(3) 0.2641(3) 0.59429(16)
C19 C 0.9674(5) 0.1770(4) 0.56911(19)
H13 H 0.9374 0.1736 0.5543
C20 C 0.9611(5) 0.2241(4) 0.59127(17)
C24 C 0.8579(6) 0.2569(7) 0.5790(3)
H16 H 0.8327 0.2923 0.5828
H17 H 0.8375 0.2208 0.5865
H18 H 0.8646 0.2528 0.5577
O10 O 0.9686(3) 0.4133(3) 0.72462(13)
O12 O 0.9167(3) 0.2359(3) 0.65571(16)
C27 C 0.9674(5) 0.3230(4) 0.68089(19)
H19 H 0.9374 0.3264 0.6957
C28 C 0.9611(5) 0.2759(4) 0.65873(17)
C32 C 0.8579(6) 0.2431(7) 0.6710(3)
H22 H 0.8327 0.2077 0.6672
H23 H 0.8375 0.2792 0.6635
H24 H 0.8646 0.2472 0.6923
Cd3_2 Cd 1.0000 0.5000 0.7500
O15 O 0.9462(3) 0.0538(3) 0.45780(18)
Cd1_4 Cd 1.0000 1.0000 0.5000
O2 O 0.9462(3) 0.9462(3) 0.54220(18)
C1 C 0.9891(5) 0.9087(4) 0.54261(19)
C2 C 0.9851(4) 0.8630(4) 0.56854(18)
C5 C 0.9894(4) 0.7754(3) 0.61293(14)
C6 C 0.9433(4) 0.8160(4) 0.6101(2)
H2 H 0.9109 0.8144 0.6237
C7 C 0.9421(4) 0.8582(4) 0.58848(16)
H3 H 0.9092 0.8853 0.5877
O5 O 0.9462(3) 0.5538(3) 0.70780(18)
C9 C 0.9891(5) 0.5913(4) 0.70739(19)
C10 C 0.9851(4) 0.6370(4) 0.68146(18)
C13 C 0.9894(4) 0.7246(3) 0.63707(14)
C14 C 0.9433(4) 0.6840(4) 0.6399(2)
H8 H 0.9109 0.6856 0.6263
C15 C 0.9421(4) 0.6418(4) 0.66152(16)
H9 H 0.9092 0.6147 0.6623
O13 O 0.9133(3) 0.9686(3) 0.47462(13)
O9_2 O 0.2641(3) 0.0833(3) 0.40571(16)
C19_2 C 0.1770(4) 0.0326(5) 0.43089(19)
H13_2 H 0.1736 0.0626 0.4457
C20_2 C 0.2241(4) 0.0389(5) 0.40873(17)
C24_2 C 0.2569(7) 0.1421(6) 0.4210(3)
H16_2 H 0.2923 0.1673 0.4172
H17_2 H 0.2208 0.1625 0.4135
H18_2 H 0.2528 0.1354 0.4423
O10_2 O 0.4133(3) 0.0314(3) 0.27538(13)
O12_2 O 0.2359(3) 0.0833(3) 0.34429(16)
C27_2 C 0.3230(4) 0.0326(5) 0.31911(19)
H19_2 H 0.3264 0.0626 0.3043
C28_2 C 0.2759(4) 0.0389(5) 0.34127(17)
C32_2 C 0.2431(7) 0.1421(6) 0.3290(3)
H22_2 H 0.2077 0.1673 0.3328
H23_2 H 0.2792 0.1625 0.3365
H24_2 H 0.2472 0.1354 0.3077
Cd3_3 Cd 0.5000 0.0000 0.2500
C17_2 C 0.0913(4) 0.9891(5) 0.45739(19)
C18_2 C 0.1370(4) 0.9851(4) 0.43146(18)
C21_2 C 0.2246(3) 0.9894(4) 0.38707(14)
C22_2 C 0.1840(4) 0.9433(4) 0.3899(2)
H14_2 H 0.1856 0.9109 0.3763
C23_2 C 0.1418(4) 0.9421(4) 0.41152(16)
H15_2 H 0.1147 0.9092 0.4123
O11_2 O 0.4462(3) 0.9462(3) 0.29220(18)
C25_2 C 0.4087(4) 0.9891(5) 0.29261(19)
C26_2 C 0.3630(4) 0.9851(4) 0.31854(18)
C29_2 C 0.2754(3) 0.9894(4) 0.36293(14)
C30_2 C 0.3160(4) 0.9433(4) 0.3601(2)
H20_2 H 0.3144 0.9109 0.3737
C31_2 C 0.3582(4) 0.9421(4) 0.33848(16)
H21_2 H 0.3853 0.9092 0.3377
Cd3_4 Cd 0.5000 1.0000 0.2500
C1_2 C 0.9087(4) 0.0109(5) 0.45739(19)
C2_2 C 0.8630(4) 0.0149(4) 0.43146(18)
C5_2 C 0.7754(3) 0.0106(4) 0.38707(14)
C6_2 C 0.8160(4) 0.0567(4) 0.3899(2)
H2_2 H 0.8144 0.0891 0.3763
C7_2 C 0.8582(4) 0.0579(4) 0.41152(16)
H3_2 H 0.8853 0.0908 0.4123
O5_2 O 0.5538(3) 0.0538(3) 0.29220(18)
C9_2 C 0.5913(4) 0.0109(5) 0.29261(19)
C10_2 C 0.6370(4) 0.0149(4) 0.31854(18)
C13_2 C 0.7246(3) 0.0106(4) 0.36293(14)
C14_2 C 0.6840(4) 0.0567(4) 0.3601(2)
H8_2 H 0.6856 0.0891 0.3737
C15_2 C 0.6418(4) 0.0579(4) 0.33848(16)
H9_2 H 0.6147 0.0908 0.3377
O3_2 O 0.7359(3) 0.9167(3) 0.40571(16)
C3_2 C 0.8230(4) 0.9674(5) 0.43089(19)
H1_2 H 0.8264 0.9374 0.4457
C4_2 C 0.7759(4) 0.9611(5) 0.40873(17)
C8_2 C 0.7431(7) 0.8579(6) 0.4210(3)
H4_2 H 0.7077 0.8327 0.4172
H5_2 H 0.7792 0.8375 0.4135
H6_2 H 0.7472 0.8646 0.4423
O4_2 O 0.5867(3) 0.9686(3) 0.27538(13)
O6_2 O 0.7641(3) 0.9167(3) 0.34429(16)
C11_2 C 0.6770(4) 0.9674(5) 0.31911(19)
H7_2 H 0.6736 0.9374 0.3043
C12_2 C 0.7241(4) 0.9611(5) 0.34127(17)
C16_2 C 0.7569(7) 0.8579(6) 0.3290(3)
H10_2 H 0.7923 0.8327 0.3328
H11_2 H 0.7208 0.8375 0.3365
H12_2 H 0.7528 0.8646 0.3077
O7_2 O 0.5314(3) 0.0867(3) 0.22462(13)
O8_2 O 0.4462(3) 0.0538(3) 0.20780(18)
O9_3 O 0.5833(3) 0.2641(3) 0.15571(16)
C17_3 C 0.4891(5) 0.0913(4) 0.20739(19)
C18_3 C 0.4851(4) 0.1370(4) 0.18146(18)
C19_3 C 0.5326(5) 0.1770(4) 0.18089(19)
H13_3 H 0.5626 0.1736 0.1957
C20_3 C 0.5389(5) 0.2241(4) 0.15873(17)
C21_3 C 0.4894(4) 0.2246(3) 0.13707(14)
C22_3 C 0.4433(4) 0.1840(4) 0.1399(2)
H14_3 H 0.4109 0.1856 0.1263
C23_3 C 0.4421(4) 0.1418(4) 0.16152(16)
H15_3 H 0.4092 0.1147 0.1623
C24_3 C 0.6421(6) 0.2569(7) 0.1710(3)
H16_3 H 0.6673 0.2923 0.1672
H17_3 H 0.6625 0.2208 0.1635
H18_3 H 0.6354 0.2528 0.1923
O10_3 O 0.5314(3) 0.4133(3) 0.02538(13)
O11_3 O 0.4462(3) 0.4462(3) 0.04220(18)
O12_3 O 0.5833(3) 0.2359(3) 0.09429(16)
C25_3 C 0.4891(5) 0.4087(4) 0.04261(19)
C26_3 C 0.4851(4) 0.3630(4) 0.06854(18)
C27_3 C 0.5326(5) 0.3230(4) 0.06911(19)
H19_3 H 0.5626 0.3264 0.0543
C28_3 C 0.5389(5) 0.2759(4) 0.09127(17)
C29_3 C 0.4894(4) 0.2754(3) 0.11293(14)
C30_3 C 0.4433(4) 0.3160(4) 0.1101(2)
H20_3 H 0.4109 0.3144 0.1237
C31_3 C 0.4421(4) 0.3582(4) 0.08848(16)
H21_3 H 0.4092 0.3853 0.0877
C32_3 C 0.6421(6) 0.2431(7) 0.0790(3)
H22_3 H 0.6673 0.2077 0.0828
H23_3 H 0.6625 0.2792 0.0865
H24_3 H 0.6354 0.2472 0.0577
Cd3_5 Cd 0.5000 0.5000 0.0000
Cd3_6 Cd 0.5000 0.5000 1.0000
O1_2 O 0.4686(3) 0.9133(3) 0.22462(13)
O2_2 O 0.5538(3) 0.9462(3) 0.20780(18)
O3_3 O 0.4167(3) 0.7359(3) 0.15571(16)
C1_3 C 0.5109(5) 0.9087(4) 0.20739(19)
C2_3 C 0.5149(4) 0.8630(4) 0.18146(18)
C3_3 C 0.4674(5) 0.8230(4) 0.18089(19)
H1_3 H 0.4374 0.8264 0.1957
C4_3 C 0.4611(5) 0.7759(4) 0.15873(17)
C5_3 C 0.5106(4) 0.7754(3) 0.13707(14)
C6_3 C 0.5567(4) 0.8160(4) 0.1399(2)
H2_3 H 0.5891 0.8144 0.1263
C7_3 C 0.5579(4) 0.8582(4) 0.16152(16)
H3_3 H 0.5908 0.8853 0.1623
C8_3 C 0.3579(6) 0.7431(7) 0.1710(3)
H4_3 H 0.3327 0.7077 0.1672
H5_3 H 0.3375 0.7792 0.1635
H6_3 H 0.3646 0.7472 0.1923
O4_3 O 0.4686(3) 0.5867(3) 0.02538(13)
O5_3 O 0.5538(3) 0.5538(3) 0.04220(18)
O6_3 O 0.4167(3) 0.7641(3) 0.09429(16)
C9_3 C 0.5109(5) 0.5913(4) 0.04261(19)
C10_3 C 0.5149(4) 0.6370(4) 0.06854(18)
C11_3 C 0.4674(5) 0.6770(4) 0.06911(19)
H7_3 H 0.4374 0.6736 0.0543
C12_3 C 0.4611(5) 0.7241(4) 0.09127(17)
C13_3 C 0.5106(4) 0.7246(3) 0.11293(14)
C14_3 C 0.5567(4) 0.6840(4) 0.1101(2)
H8_3 H 0.5891 0.6856 0.1237
C15_3 C 0.5579(4) 0.6418(4) 0.08848(16)
H9_3 H 0.5908 0.6147 0.0877
C16_3 C 0.3579(6) 0.7569(7) 0.0790(3)
H10_3 H 0.3327 0.7923 0.0828
H11_3 H 0.3375 0.7208 0.0865
H12_3 H 0.3646 0.7528 0.0577
O13_2 O 0.4133(3) 0.4686(3) 0.97462(13)
O14_2 O 0.5867(3) 0.5314(3) 0.97462(13)
O15_2 O 0.4462(3) 0.5538(3) 0.95780(18)
O16_2 O 0.5538(3) 0.4462(3) 0.95780(18)
O3_4 O 0.2359(3) 0.4167(3) 0.90571(16)
C1_4 C 0.4087(4) 0.5109(5) 0.95739(19)
C2_4 C 0.3630(4) 0.5149(4) 0.93146(18)
C3_4 C 0.3230(4) 0.4674(5) 0.93089(19)
H1_4 H 0.3264 0.4374 0.9457
C4_4 C 0.2759(4) 0.4611(5) 0.90873(17)
C5_4 C 0.2754(3) 0.5106(4) 0.88707(14)
C6_4 C 0.3160(4) 0.5567(4) 0.8899(2)
H2_4 H 0.3144 0.5891 0.8763
C7_4 C 0.3582(4) 0.5579(4) 0.91152(16)
H3_4 H 0.3853 0.5908 0.9123
C8_4 C 0.2431(7) 0.3579(6) 0.9210(3)
H4_4 H 0.2077 0.3327 0.9172
H5_4 H 0.2792 0.3375 0.9135
H6_4 H 0.2472 0.3646 0.9423
O4_4 O 0.0867(3) 0.4686(3) 0.77538(13)
O5_4 O 0.0538(3) 0.5538(3) 0.79220(18)
O6_4 O 0.2641(3) 0.4167(3) 0.84429(16)
C9_4 C 0.0913(4) 0.5109(5) 0.79261(19)
C10_4 C 0.1370(4) 0.5149(4) 0.81854(18)
C11_4 C 0.1770(4) 0.4674(5) 0.81911(19)
H7_4 H 0.1736 0.4374 0.8043
C12_4 C 0.2241(4) 0.4611(5) 0.84127(17)
C13_4 C 0.2246(3) 0.5106(4) 0.86293(14)
C14_4 C 0.1840(4) 0.5567(4) 0.8601(2)
H8_4 H 0.1856 0.5891 0.8737
C15_4 C 0.1418(4) 0.5579(4) 0.83848(16)
H9_4 H 0.1147 0.5908 0.8377
C16_4 C 0.2569(7) 0.3579(6) 0.8290(3)
H10_4 H 0.2923 0.3327 0.8328
H11_4 H 0.2208 0.3375 0.8365
H12_4 H 0.2528 0.3646 0.8077
O9_4 O 0.7641(3) 0.5833(3) 0.90571(16)
C17_4 C 0.5913(4) 0.4891(5) 0.95739(19)
C18_4 C 0.6370(4) 0.4851(4) 0.93146(18)
C19_4 C 0.6770(4) 0.5326(5) 0.93089(19)
H13_4 H 0.6736 0.5626 0.9457
C20_4 C 0.7241(4) 0.5389(5) 0.90873(17)
C21_4 C 0.7246(3) 0.4894(4) 0.88707(14)
C22_4 C 0.6840(4) 0.4433(4) 0.8899(2)
H14_4 H 0.6856 0.4109 0.8763
C23_4 C 0.6418(4) 0.4421(4) 0.91152(16)
H15_4 H 0.6147 0.4092 0.9123
C24_4 C 0.7569(7) 0.6421(6) 0.9210(3)
H16_4 H 0.7923 0.6673 0.9172
H17_4 H 0.7208 0.6625 0.9135
H18_4 H 0.7528 0.6354 0.9423
O10_4 O 0.9133(3) 0.5314(3) 0.77538(13)
O11_4 O 0.9462(3) 0.4462(3) 0.79220(18)
O12_4 O 0.7359(3) 0.5833(3) 0.84429(16)
C25_4 C 0.9087(4) 0.4891(5) 0.79261(19)
C26_4 C 0.8630(4) 0.4851(4) 0.81854(18)
C27_4 C 0.8230(4) 0.5326(5) 0.81911(19)
H19_4 H 0.8264 0.5626 0.8043
C28_4 C 0.7759(4) 0.5389(5) 0.84127(17)
C29_4 C 0.7754(3) 0.4894(4) 0.86293(14)
C30_4 C 0.8160(4) 0.4433(4) 0.8601(2)
H20_4 H 0.8144 0.4109 0.8737
C31_4 C 0.8582(4) 0.4421(4) 0.83848(16)
H21_4 H 0.8853 0.4092 0.8377
C32_4 C 0.7431(7) 0.6421(6) 0.8290(3)
H22_4 H 0.7077 0.6673 0.8328
H23_4 H 0.7792 0.6625 0.8365
H24_4 H 0.7472 0.6354 0.8077
C33 C 0.7006(7) 0.5348(7) 0.0353(5)
H25 H 0.6772 0.5718 0.0379
H26 H 0.7201 0.5353 0.0160
H27 H 0.7313 0.5322 0.0508
C34 C 0.6783(11) 0.4191(7) 0.0215(5)
H28 H 0.6468 0.4065 0.0077
H29 H 0.6845 0.3876 0.0363
H30 H 0.7159 0.4259 0.0107
N1 N 0.6584(7) 0.4799(6) 0.0374(4)
H31 H 0.6217 0.4910 0.0298
H32 H 0.6527 0.4714 0.0570
C33_2 C 0.2994(7) 0.4652(7) 0.0353(5)
H25_2 H 0.3228 0.4282 0.0379
H26_2 H 0.2799 0.4647 0.0160
H27_2 H 0.2687 0.4678 0.0508
C34_2 C 0.3217(11) 0.5809(7) 0.0215(5)
H28_2 H 0.3532 0.5935 0.0077
H29_2 H 0.3155 0.6124 0.0363
H30_2 H 0.2841 0.5741 0.0107
N1_2 N 0.3416(7) 0.5201(6) 0.0374(4)
H31_2 H 0.3783 0.5090 0.0298
H32_2 H 0.3473 0.5286 0.0570
C33_3 C 0.5348(7) 0.2994(7) 0.9647(5)
H25_3 H 0.5718 0.3228 0.9621
H26_3 H 0.5353 0.2799 0.9840
H27_3 H 0.5322 0.2687 0.9492
C34_3 C 0.4191(7) 0.3217(11) 0.9785(5)
H28_3 H 0.4065 0.3532 0.9923
H29_3 H 0.3876 0.3155 0.9637
H30_3 H 0.4259 0.2841 0.9893
N1_3 N 0.4799(6) 0.3416(7) 0.9626(4)
H31_3 H 0.4910 0.3783 0.9702
H32_3 H 0.4714 0.3473 0.9430
C33_4 C 0.4652(7) 0.7006(7) 0.9647(5)
H25_4 H 0.4282 0.6772 0.9621
H26_4 H 0.4647 0.7201 0.9840
H27_4 H 0.4678 0.7313 0.9492
C34_4 C 0.5809(7) 0.6783(11) 0.9785(5)
H28_4 H 0.5935 0.6468 0.9923
H29_4 H 0.6124 0.6845 0.9637
H30_4 H 0.5741 0.7159 0.9893
N1_4 N 0.5201(6) 0.6584(7) 0.9626(4)
H31_4 H 0.5090 0.6217 0.9702
H32_4 H 0.5286 0.6527 0.9430
C33_5 C 0.7994(7) 0.5348(7) 0.7147(5)
H25_5 H 0.8228 0.5718 0.7121
H26_5 H 0.7799 0.5353 0.7340
H27_5 H 0.7687 0.5322 0.6992
C34_5 C 0.8217(11) 0.4191(7) 0.7285(5)
H28_5 H 0.8532 0.4065 0.7423
H29_5 H 0.8155 0.3876 0.7137
H30_5 H 0.7841 0.4259 0.7393
N1_5 N 0.8416(7) 0.4799(6) 0.7126(4)
H31_5 H 0.8783 0.4910 0.7202
H32_5 H 0.8473 0.4714 0.6930
C33_6 C 0.2006(7) 0.4652(7) 0.7147(5)
H25_6 H 0.1772 0.4282 0.7121
H26_6 H 0.2201 0.4647 0.7340
H27_6 H 0.2313 0.4678 0.6992
C34_6 C 0.1783(11) 0.5809(7) 0.7285(5)
H28_6 H 0.1468 0.5935 0.7423
H29_6 H 0.1845 0.6124 0.7137
H30_6 H 0.2159 0.5741 0.7393
N1_6 N 0.1584(7) 0.5201(6) 0.7126(4)
H31_6 H 0.1217 0.5090 0.7202
H32_6 H 0.1527 0.5286 0.6930
C34_7 C 0.0809(7) 0.3217(11) 0.7715(5)
H28_7 H 0.0935 0.3532 0.7577
H29_7 H 0.1124 0.3155 0.7863
H30_7 H 0.0741 0.2841 0.7607
N1_7 N 0.0201(6) 0.3416(7) 0.7874(4)
H31_7 H 0.0090 0.3783 0.7798
H32_7 H 0.0286 0.3473 0.8070
C33_7 C 0.9652(7) 0.2994(7) 0.7853(5)
H25_7 H 0.9282 0.3228 0.7879
H26_7 H 0.9647 0.2799 0.7660
H27_7 H 0.9678 0.2687 0.8008
C33_8 C 0.0348(7) 0.7006(7) 0.7853(5)
H25_8 H 0.0718 0.6772 0.7879
H26_8 H 0.0353 0.7201 0.7660
H27_8 H 0.0322 0.7313 0.8008
C34_8 C 0.9191(7) 0.6783(11) 0.7715(5)
H28_8 H 0.9065 0.6468 0.7577
H29_8 H 0.8876 0.6845 0.7863
H30_8 H 0.9259 0.7159 0.7607
N1_8 N 0.9799(6) 0.6584(7) 0.7874(4)
H31_8 H 0.9910 0.6217 0.7798
H32_8 H 0.9714 0.6527 0.8070
C33_9 C 0.2006(7) 0.0348(7) 0.5353(5)
H25_9 H 0.1772 0.0718 0.5379
H26_9 H 0.2201 0.0353 0.5160
H27_9 H 0.2313 0.0322 0.5508
C34_9 C 0.1783(11) 0.9191(7) 0.5215(5)
H28_9 H 0.1468 0.9065 0.5077
H29_9 H 0.1845 0.8876 0.5363
H30_9 H 0.2159 0.9259 0.5107
N1_9 N 0.1584(7) 0.9799(6) 0.5374(4)
H31_9 H 0.1217 0.9910 0.5298
H32_9 H 0.1527 0.9714 0.5570
C34_10 C 0.8217(11) 0.0809(7) 0.5215(5)
H28_10 H 0.8532 0.0935 0.5077
H29_10 H 0.8155 0.1124 0.5363
H30_10 H 0.7841 0.0741 0.5107
N1_10 N 0.8416(7) 0.0201(6) 0.5374(4)
H31_10 H 0.8783 0.0090 0.5298
H32_10 H 0.8473 0.0286 0.5570
C33_10 C 0.7994(7) 0.9652(7) 0.5353(5)
H25_10 H 0.8228 0.9282 0.5379
H26_10 H 0.7799 0.9647 0.5160
H27_10 H 0.7687 0.9678 0.5508
C33_11 C 0.0348(7) 0.7994(7) 0.4647(5)
H25_11 H 0.0718 0.8228 0.4621
H26_11 H 0.0353 0.7799 0.4840
H27_11 H 0.0322 0.7687 0.4492
C34_11 C 0.9191(7) 0.8217(11) 0.4785(5)
H28_11 H 0.9065 0.8532 0.4923
H29_11 H 0.8876 0.8155 0.4637
H30_11 H 0.9259 0.7841 0.4893
N1_11 N 0.9799(6) 0.8416(7) 0.4626(4)
H31_11 H 0.9910 0.8783 0.4702
H32_11 H 0.9714 0.8473 0.4430
C34_12 C 0.0809(7) 0.1783(11) 0.4785(5)
H28_12 H 0.0935 0.1468 0.4923
H29_12 H 0.1124 0.1845 0.4637
H30_12 H 0.0741 0.2159 0.4893
N1_12 N 0.0201(6) 0.1584(7) 0.4626(4)
H31_12 H 0.0090 0.1217 0.4702
H32_12 H 0.0286 0.1527 0.4430
C33_12 C 0.9652(7) 0.2006(7) 0.4647(5)
H25_12 H 0.9282 0.1772 0.4621
H26_12 H 0.9647 0.2201 0.4840
H27_12 H 0.9678 0.2313 0.4492
C33_13 C 0.2994(7) 0.0348(7) 0.2147(5)
H25_13 H 0.3228 0.0718 0.2121
H26_13 H 0.2799 0.0353 0.2340
H27_13 H 0.2687 0.0322 0.1992
C34_13 C 0.3217(11) 0.9191(7) 0.2285(5)
H28_13 H 0.3532 0.9065 0.2423
H29_13 H 0.3155 0.8876 0.2137
H30_13 H 0.2841 0.9259 0.2393
N1_13 N 0.3416(7) 0.9799(6) 0.2126(4)
H31_13 H 0.3783 0.9910 0.2202
H32_13 H 0.3473 0.9714 0.1930
C34_14 C 0.6783(11) 0.0809(7) 0.2285(5)
H28_14 H 0.6468 0.0935 0.2423
H29_14 H 0.6845 0.1124 0.2137
H30_14 H 0.7159 0.0741 0.2393
N1_14 N 0.6584(7) 0.0201(6) 0.2126(4)
H31_14 H 0.6217 0.0090 0.2202
H32_14 H 0.6527 0.0286 0.1930
C33_14 C 0.7006(7) 0.9652(7) 0.2147(5)
H25_14 H 0.6772 0.9282 0.2121
H26_14 H 0.7201 0.9647 0.2340
H27_14 H 0.7313 0.9678 0.1992
C33_15 C 0.4652(7) 0.7994(7) 0.2853(5)
H25_15 H 0.4282 0.8228 0.2879
H26_15 H 0.4647 0.7799 0.2660
H27_15 H 0.4678 0.7687 0.3008
C34_15 C 0.5809(7) 0.8217(11) 0.2715(5)
H28_15 H 0.5935 0.8532 0.2577
H29_15 H 0.6124 0.8155 0.2863
H30_15 H 0.5741 0.7841 0.2607
N1_15 N 0.5201(6) 0.8416(7) 0.2874(4)
H31_15 H 0.5090 0.8783 0.2798
H32_15 H 0.5286 0.8473 0.3070
C33_16 C 0.5348(7) 0.2006(7) 0.2853(5)
H25_16 H 0.5718 0.1772 0.2879
H26_16 H 0.5353 0.2201 0.2660
H27_16 H 0.5322 0.2313 0.3008
C34_16 C 0.4191(7) 0.1783(11) 0.2715(5)
H28_16 H 0.4065 0.1468 0.2577
H29_16 H 0.3876 0.1845 0.2863
H30_16 H 0.4259 0.2159 0.2607
N1_16 N 0.4799(6) 0.1584(7) 0.2874(4)
H31_16 H 0.4910 0.1217 0.2798
H32_16 H 0.4714 0.1527 0.3070
Na1 Na 0.0000 0.5000 0.07677(9)
O25 O 0.29894(18) 0.6107(2) 0.29876(8)
O26 O 0.21657(16) 0.6248(2) 0.32801(7)
O27 O 0.1378(4) 0.5375(3) 0.18368(19)
O28 O 0.0533(7) 0.6289(8) 0.2555(3)
H39 H 0.0131 0.2926 0.0095
H41 H 0.0211 0.3635 0.0144
C52 C 0.0134(3) 0.6280(3) 0.14643(13)
C53 C 0.0498(4) 0.5762(4) 0.15337(19)
H45 H 0.0456 0.5395 0.1428
C54 C 0.0929(5) 0.5824(4) 0.1771(2)
C55 C 0.0908(4) 0.6285(4) 0.19721(16)
C56 C 0.0638(3) 0.6814(4) 0.18687(15)
H46 H 0.0734 0.7186 0.1960
C57 C 0.0217(3) 0.6804(3) 0.16277(14)
C58 C 0.1324(4) 0.6279(5) 0.22397(19)
C59 C 0.1075(5) 0.6359(6) 0.2527(2)
C60 C 0.1414(4) 0.6387(5) 0.2778(2)
H48 H 0.1239 0.6506 0.2960
C61 C 0.2038(3) 0.6233(4) 0.27604(14)
C62 C 0.2305(4) 0.6210(4) 0.24730(18)
H49 H 0.2730 0.6217 0.2453
C63 C 0.1942(4) 0.6177(5) 0.22239(18)
C64 C 0.2436(3) 0.6183(2) 0.30343(10)
C65 C 0.1704(12) 0.5154(12) 0.1549(4)
H50 H 0.1973 0.4818 0.1597
H51 H 0.1940 0.5485 0.1465
H52 H 0.1403 0.5021 0.1405
C66 C 0.0160(10) 0.6512(13) 0.2793(4)
H54 H 0.0396 0.6784 0.2917
H55 H 0.0016 0.6173 0.2911
Cd6 Cd 0.119549(14) 0.381783(14) 0.076025(6)
O29 O 0.0747(2) 0.45961(19) 0.04591(9)
O30 O 0.1657(2) 0.4258(2) 0.03186(10)
O35 O 0.0442(2) 0.4248(2) 0.10868(11)
O36 O 0.05518(17) 0.32755(18) 0.11198(8)
C67 C 0.1174(3) 0.4621(2) 0.02968(12)
C68 C 0.1191(3) 0.5071(3) 0.00347(14)
C73 C 0.0796(4) 0.5566(4) 0.00347(17)
H58 H 0.0490 0.5589 0.0180
C81 C 0.0082(6) 0.6691(7) 0.0122(3)
H63 H 0.0333 0.6714 0.0300
C83 C 0.0295(2) 0.3737(3) 0.12078(12)
H70 H 0.0004 0.2844 0.1580
H76 H 0.0185 0.3271 0.2711
Cd9 Cd 0.381783(14) 0.619549(14) 0.326025(6)
Cd11 Cd 0.12199(2) 0.2500 0.1250
Cd14 Cd 0.2500 0.62199(2) 0.3750
O42 O 0.2044(2) 0.42087(19) 0.10302(11)
O45 O 0.19282(17) 0.32160(18) 0.10924(8)
O48 O 0.1107(2) 0.29894(18) 0.04876(8)
H79 H 0.214911 0.606687 0.200739
O31 O 0.07913(19) 0.7956(2) 0.85302(11)
O32 O 0.17840(18) 0.80718(17) 0.85924(8)
O33 O 0.0510(3) 0.6560(3) 0.98338(15)
O34 O 0.2266(3) 0.6654(2) 0.94711(12)
C69 C 0.1654(3) 0.5074(3) 0.98234(14)
H56 H 0.1964 0.4781 0.9834
C70 C 0.1663(3) 0.5503(3) 0.95987(16)
H57 H 0.1980 0.5489 0.9458
C71 C 0.1225(3) 0.5951(3) 0.95715(15)
C72 C 0.0843(4) 0.6003(4) 0.98354(19)
C74 C 0.1270(3) 0.6416(3) 0.93309(14)
C75 C 0.0774(3) 0.6527(3) 0.91612(16)
H59 H 0.0422 0.6295 0.9195
C76 C 0.0758(3) 0.6986(3) 0.89294(18)
H60 H 0.0405 0.7045 0.8815
C77 C 0.1274(3) 0.7338(2) 0.88795(13)
C78 C 0.1790(3) 0.7204(3) 0.90583(12)
H61 H 0.2156 0.7409 0.9020
C79 C 0.1770(3) 0.6771(3) 0.92919(14)
C80 C 0.1286(3) 0.7838(3) 0.86590(11)
C82 C 0.2597(12) 0.6763(13) 0.9797(4)
H65 H 0.2584 0.6389 0.9911
H66 H 0.2385 0.7081 0.9904
H67 H 0.3017 0.6882 0.9766
Cd8 Cd 0.118217(14) 0.880451(14) 0.826025(6)
Cd13 Cd 0.2500 0.87801(2) 0.8750
Cd4 Cd 0.880451(14) 0.618217(14) 0.076025(6)
Cd5 Cd 0.87801(2) 0.7500 0.1250
Na1_2 Na 1.0000 0.5000 0.07677(9)
O17 O 0.9253(2) 0.54039(19) 0.04591(9)
O18 O 0.8343(2) 0.5742(2) 0.03186(10)
O23 O 0.9558(2) 0.5752(2) 0.10868(11)
O24 O 0.94482(17) 0.67245(18) 0.11198(8)
C35 C 0.8826(3) 0.5379(2) 0.02968(12)
C36 C 0.8809(3) 0.4929(3) 0.00347(14)
C41 C 0.9204(4) 0.4434(4) 0.00347(17)
H35 H 0.9510 0.4411 0.0180
C49 C 0.9918(6) 0.3309(7) 0.0122(3)
H40 H 0.9667 0.3286 0.0300
C51 C 0.9705(2) 0.6263(3) 0.12078(12)
H47 H 0.9996 0.7156 0.1580
H53 H 0.9815 0.6729 0.2711
O37 O 0.70106(18) 0.3893(2) 0.29876(8)
O38 O 0.78343(16) 0.3752(2) 0.32801(7)
O39 O 0.8622(4) 0.4625(3) 0.18368(19)
O40 O 0.9467(7) 0.3711(8) 0.2555(3)
H62 H 0.9869 0.7074 0.0095
H64 H 0.9789 0.6365 0.0144
C84 C 0.9866(3) 0.3720(3) 0.14643(13)
C85 C 0.9502(4) 0.4238(4) 0.15337(19)
H68 H 0.9544 0.4605 0.1428
C86 C 0.9071(5) 0.4176(4) 0.1771(2)
C87 C 0.9092(4) 0.3715(4) 0.19721(16)
C88 C 0.9362(3) 0.3186(4) 0.18687(15)
H69 H 0.9266 0.2814 0.1960
C89 C 0.9783(3) 0.3196(3) 0.16277(14)
C90 C 0.8676(4) 0.3721(5) 0.22397(19)
C91 C 0.8925(5) 0.3641(6) 0.2527(2)
C92 C 0.8586(4) 0.3613(5) 0.2778(2)
H71 H 0.8761 0.3494 0.2960
C93 C 0.7962(3) 0.3767(4) 0.27604(14)
C94 C 0.7695(4) 0.3790(4) 0.24730(18)
H72 H 0.7270 0.3783 0.2453
C95 C 0.8058(4) 0.3823(5) 0.22239(18)
C96 C 0.7564(3) 0.3817(2) 0.30343(10)
C97 C 0.8296(12) 0.4846(12) 0.1549(4)
H73 H 0.8027 0.5182 0.1597
H74 H 0.8060 0.4515 0.1465
H75 H 0.8597 0.4979 0.1405
C98 C 0.9840(10) 0.3488(13) 0.2793(4)
H77 H 0.9604 0.3216 0.2917
H78 H 0.9984 0.3827 0.2911
Cd10 Cd 0.618217(14) 0.380451(14) 0.326025(6)
Cd15 Cd 0.7500 0.37801(2) 0.3750
O41 O 0.7956(2) 0.57913(19) 0.10302(11)
O43 O 0.80718(17) 0.82160(18) 0.14076(8)
O44 O 0.80718(17) 0.67840(18) 0.10924(8)
O46 O 0.94482(17) 0.82755(18) 0.13802(8)
O47 O 0.8893(2) 0.70106(18) 0.04876(8)
O49 O 0.8752(2) 0.78343(16) 0.07801(7)
O50 O 0.8752(2) 0.71657(16) 0.17199(7)
H80 H 0.785089 0.393313 0.200739
O19 O 0.92087(19) 0.2044(2) 0.85302(11)
O20 O 0.82160(18) 0.19282(17) 0.85924(8)
O21 O 0.9490(3) 0.3440(3) 0.98338(15)
O22 O 0.7734(3) 0.3346(2) 0.94711(12)
C37 C 0.8346(3) 0.4926(3) 0.98234(14)
H33 H 0.8036 0.5219 0.9834
C38 C 0.8337(3) 0.4497(3) 0.95987(16)
H34 H 0.8020 0.4511 0.9458
C39 C 0.8775(3) 0.4049(3) 0.95715(15)
C40 C 0.9157(4) 0.3997(4) 0.98354(19)
C42 C 0.8730(3) 0.3584(3) 0.93309(14)
C43 C 0.9226(3) 0.3473(3) 0.91612(16)
H36 H 0.9578 0.3705 0.9195
C44 C 0.9242(3) 0.3014(3) 0.89294(18)
H37 H 0.9595 0.2955 0.8815
C45 C 0.8726(3) 0.2662(2) 0.88795(13)
C46 C 0.8210(3) 0.2796(3) 0.90583(12)
H38 H 0.7844 0.2591 0.9020
C47 C 0.8230(3) 0.3229(3) 0.92919(14)
C48 C 0.8714(3) 0.2162(3) 0.86590(11)
C50 C 0.7403(12) 0.3237(13) 0.9797(4)
H42 H 0.7416 0.3611 0.9911
H43 H 0.7615 0.2919 0.9904
H44 H 0.6983 0.3118 0.9766
Cd7 Cd 0.881783(14) 0.119549(14) 0.826025(6)
Cd12 Cd 0.7500 0.12199(2) 0.8750
O43_2 O 0.19282(17) 0.17840(18) 0.14076(8)
O46_2 O 0.05518(17) 0.17245(18) 0.13802(8)
O49_2 O 0.1248(2) 0.21657(16) 0.07801(7)
O50_2 O 0.1248(2) 0.28343(16) 0.17199(7)
O19_2 O 0.2044(2) 0.07913(19) 0.14698(11)
O21_2 O 0.3440(3) 0.0510(3) 0.01662(15)
O22_2 O 0.3346(2) 0.2266(3) 0.05289(12)
C37_2 C 0.4926(3) 0.1654(3) 0.01766(14)
H33_2 H 0.5219 0.1964 0.0166
C38_2 C 0.4497(3) 0.1663(3) 0.04013(16)
H34_2 H 0.4511 0.1980 0.0542
C39_2 C 0.4049(3) 0.1225(3) 0.04285(15)
C40_2 C 0.3997(4) 0.0843(4) 0.01646(19)
C42_2 C 0.3584(3) 0.1270(3) 0.06691(14)
C43_2 C 0.3473(3) 0.0774(3) 0.08388(16)
H36_2 H 0.3705 0.0422 0.0805
C44_2 C 0.3014(3) 0.0758(3) 0.10706(18)
H37_2 H 0.2955 0.0405 0.1185
C45_2 C 0.2662(2) 0.1274(3) 0.11205(13)
C46_2 C 0.2796(3) 0.1790(3) 0.09417(12)
H38_2 H 0.2591 0.2156 0.0980
C47_2 C 0.3229(3) 0.1770(3) 0.07081(14)
C48_2 C 0.2162(3) 0.1286(3) 0.13410(11)
C50_2 C 0.3237(13) 0.2597(12) 0.0203(4)
H42_2 H 0.3611 0.2584 0.0089
H43_2 H 0.2919 0.2385 0.0096
H44_2 H 0.3118 0.3017 0.0234
Cd7_2 Cd 0.119549(14) 0.118217(14) 0.173975(6)
Cd4_2 Cd 0.618217(14) 0.119549(14) 0.923975(6)
Na1_3 Na 0.5000 -0.0000 0.92323(9)
O17_2 O 0.54039(19) 0.0747(2) 0.95409(9)
O18_2 O 0.5742(2) 0.1657(2) 0.96814(10)
O23_2 O 0.5752(2) 0.0442(2) 0.89132(11)
O24_2 O 0.67245(18) 0.05518(17) 0.88802(8)
C35_2 C 0.5379(2) 0.1174(3) 0.97032(12)
C36_2 C 0.4929(3) 0.1191(3) 0.99653(14)
C41_2 C 0.4434(4) 0.0796(4) 0.99653(17)
H35_2 H 0.4411 0.0490 0.9820
C49_2 C 0.3309(7) 0.0082(6) 0.9878(3)
H40_2 H 0.3286 0.0333 0.9700
C51_2 C 0.6263(3) 0.0295(2) 0.87922(12)
H47_2 H 0.7156 0.0004 0.8420
H53_2 H 0.6729 0.0185 0.7289
O37_2 O 0.3893(2) 0.29894(18) 0.70124(8)
O38_2 O 0.3752(2) 0.21657(16) 0.67199(7)
O39_2 O 0.4625(3) 0.1378(4) 0.81632(19)
O40_2 O 0.3711(8) 0.0533(7) 0.7445(3)
H62_2 H 0.7074 0.0131 0.9905
H64_2 H 0.6365 0.0211 0.9856
C84_2 C 0.3720(3) 0.0134(3) 0.85357(13)
C85_2 C 0.4238(4) 0.0498(4) 0.84663(19)
H68_2 H 0.4605 0.0456 0.8572
C86_2 C 0.4176(4) 0.0929(5) 0.8229(2)
C87_2 C 0.3715(4) 0.0908(4) 0.80279(16)
C88_2 C 0.3186(4) 0.0638(3) 0.81313(15)
H69_2 H 0.2814 0.0734 0.8040
C89_2 C 0.3196(3) 0.0217(3) 0.83723(14)
C90_2 C 0.3721(5) 0.1324(4) 0.77603(19)
C91_2 C 0.3641(6) 0.1075(5) 0.7473(2)
C92_2 C 0.3613(5) 0.1414(4) 0.7222(2)
H71_2 H 0.3494 0.1239 0.7040
C93_2 C 0.3767(4) 0.2038(3) 0.72396(14)
C94_2 C 0.3790(4) 0.2305(4) 0.75270(18)
H72_2 H 0.3783 0.2730 0.7547
C95_2 C 0.3823(5) 0.1942(4) 0.77761(18)
C96_2 C 0.3817(2) 0.2436(3) 0.69657(10)
C97_2 C 0.4846(12) 0.1704(12) 0.8451(4)
H73_2 H 0.5182 0.1973 0.8403
H74_2 H 0.4515 0.1940 0.8535
H75_2 H 0.4979 0.1403 0.8595
C98_2 C 0.3488(13) 0.0160(10) 0.7207(4)
H77_2 H 0.3216 0.0396 0.7083
H78_2 H 0.3827 0.0016 0.7089
Cd10_2 Cd 0.380451(14) 0.381783(14) 0.673975(6)
Cd15_2 Cd 0.37801(2) 0.2500 0.6250
O41_2 O 0.57913(19) 0.2044(2) 0.89698(11)
O44_2 O 0.67840(18) 0.19282(17) 0.89076(8)
O46_3 O 0.82755(18) 0.05518(17) 0.86198(8)
O47_2 O 0.70106(18) 0.1107(2) 0.95124(8)
O49_3 O 0.78343(16) 0.1248(2) 0.92199(7)
O50_3 O 0.71657(16) 0.1248(2) 0.82801(7)
H80_2 H 0.393313 0.214911 0.799261
O31_2 O 0.7956(2) 0.92087(19) 0.14698(11)
O33_2 O 0.6560(3) 0.9490(3) 0.01662(15)
O34_2 O 0.6654(2) 0.7734(3) 0.05289(12)
C69_2 C 0.5074(3) 0.8346(3) 0.01766(14)
H56_2 H 0.4781 0.8036 0.0166
C70_2 C 0.5503(3) 0.8337(3) 0.04013(16)
H57_2 H 0.5489 0.8020 0.0542
C71_2 C 0.5951(3) 0.8775(3) 0.04285(15)
C72_2 C 0.6003(4) 0.9157(4) 0.01646(19)
C74_2 C 0.6416(3) 0.8730(3) 0.06691(14)
C75_2 C 0.6527(3) 0.9226(3) 0.08388(16)
H59_2 H 0.6295 0.9578 0.0805
C76_2 C 0.6986(3) 0.9242(3) 0.10706(18)
H60_2 H 0.7045 0.9595 0.1185
C77_2 C 0.7338(2) 0.8726(3) 0.11205(13)
C78_2 C 0.7204(3) 0.8210(3) 0.09417(12)
H61_2 H 0.7409 0.7844 0.0980
C79_2 C 0.6771(3) 0.8230(3) 0.07081(14)
C80_2 C 0.7838(3) 0.8714(3) 0.13410(11)
C82_2 C 0.6763(13) 0.7403(12) 0.0203(4)
H65_2 H 0.6389 0.7416 0.0089
H66_2 H 0.7081 0.7615 0.0096
H67_2 H 0.6882 0.6983 0.0234
Cd8_2 Cd 0.880451(14) 0.881783(14) 0.173975(6)
Na1_4 Na 0.5000 1.0000 0.92323(9)
O25_2 O 0.6107(2) 0.70106(18) 0.70124(8)
O26_2 O 0.6248(2) 0.78343(16) 0.67199(7)
O27_2 O 0.5375(3) 0.8622(4) 0.81632(19)
O28_2 O 0.6289(8) 0.9467(7) 0.7445(3)
H39_2 H 0.2926 0.9869 0.9905
H41_2 H 0.3635 0.9789 0.9856
C52_2 C 0.6280(3) 0.9866(3) 0.85357(13)
C53_2 C 0.5762(4) 0.9502(4) 0.84663(19)
H45_2 H 0.5395 0.9544 0.8572
C54_2 C 0.5824(4) 0.9071(5) 0.8229(2)
C55_2 C 0.6285(4) 0.9092(4) 0.80279(16)
C56_2 C 0.6814(4) 0.9362(3) 0.81313(15)
H46_2 H 0.7186 0.9266 0.8040
C57_2 C 0.6804(3) 0.9783(3) 0.83723(14)
C58_2 C 0.6279(5) 0.8676(4) 0.77603(19)
C59_2 C 0.6359(6) 0.8925(5) 0.7473(2)
C60_2 C 0.6387(5) 0.8586(4) 0.7222(2)
H48_2 H 0.6506 0.8761 0.7040
C61_2 C 0.6233(4) 0.7962(3) 0.72396(14)
C62_2 C 0.6210(4) 0.7695(4) 0.75270(18)
H49_2 H 0.6217 0.7270 0.7547
C63_2 C 0.6177(5) 0.8058(4) 0.77761(18)
C64_2 C 0.6183(2) 0.7564(3) 0.69657(10)
C65_2 C 0.5154(12) 0.8296(12) 0.8451(4)
H50_2 H 0.4818 0.8027 0.8403
H51_2 H 0.5485 0.8060 0.8535
H52_2 H 0.5021 0.8597 0.8595
C66_2 C 0.6512(13) 0.9840(10) 0.7207(4)
H54_2 H 0.6784 0.9604 0.7083
H55_2 H 0.6173 0.9984 0.7089
Cd6_2 Cd 0.381783(14) 0.880451(14) 0.923975(6)
O29_2 O 0.45961(19) 0.9253(2) 0.95409(9)
O30_2 O 0.4258(2) 0.8343(2) 0.96814(10)
O35_2 O 0.4248(2) 0.9558(2) 0.89132(11)
O36_2 O 0.32755(18) 0.94482(17) 0.88802(8)
C67_2 C 0.4621(2) 0.8826(3) 0.97032(12)
C68_2 C 0.5071(3) 0.8809(3) 0.99653(14)
C73_2 C 0.5566(4) 0.9204(4) 0.99653(17)
H58_2 H 0.5589 0.9510 0.9820
C81_2 C 0.6691(7) 0.9918(6) 0.9878(3)
H63_2 H 0.6714 0.9667 0.9700
C83_2 C 0.3737(3) 0.9705(2) 0.87922(12)
H70_2 H 0.2844 0.9996 0.8420
H76_2 H 0.3271 0.9815 0.7289
Cd9_2 Cd 0.619549(14) 0.618217(14) 0.673975(6)
Cd14_2 Cd 0.62199(2) 0.7500 0.6250
O42_2 O 0.42087(19) 0.7956(2) 0.89698(11)
O45_2 O 0.32160(18) 0.80718(17) 0.89076(8)
O48_2 O 0.29894(18) 0.8893(2) 0.95124(8)
H79_2 H 0.606687 0.785089 0.799261
O46_4 O 0.17245(18) 0.94482(17) 0.86198(8)
O49_4 O 0.21657(16) 0.8752(2) 0.92199(7)
O50_4 O 0.28343(16) 0.8752(2) 0.82801(7)
Na1_5 Na 0.5000 0.5000 0.67323(9)
O17_3 O 0.5747(2) 0.54039(19) 0.70409(9)
O18_3 O 0.6657(2) 0.5742(2) 0.71814(10)
O21_3 O 0.5510(3) 0.3440(3) 0.76662(15)
O22_3 O 0.7266(3) 0.3346(2) 0.80289(12)
O23_3 O 0.5442(2) 0.5752(2) 0.64132(11)
O24_3 O 0.55518(17) 0.67245(18) 0.63802(8)
O25_3 O 0.20106(18) 0.6107(2) 0.45124(8)
O26_3 O 0.28343(16) 0.6248(2) 0.42199(7)
O27_3 O 0.3622(4) 0.5375(3) 0.56632(19)
O28_3 O 0.4467(7) 0.6289(8) 0.4945(3)
C35_3 C 0.6174(3) 0.5379(2) 0.72032(12)
C36_3 C 0.6191(3) 0.4929(3) 0.74653(14)
C37_3 C 0.6654(3) 0.4926(3) 0.76766(14)
H33_3 H 0.6964 0.5219 0.7666
C38_3 C 0.6663(3) 0.4497(3) 0.79013(16)
H34_3 H 0.6980 0.4511 0.8042
C39_3 C 0.6225(3) 0.4049(3) 0.79285(15)
C40_3 C 0.5843(4) 0.3997(4) 0.76646(19)
C41_3 C 0.5796(4) 0.4434(4) 0.74653(17)
H35_3 H 0.5490 0.4411 0.7320
C42_3 C 0.6270(3) 0.3584(3) 0.81691(14)
C43_3 C 0.5774(3) 0.3473(3) 0.83388(16)
H36_3 H 0.5422 0.3705 0.8305
C44_3 C 0.5758(3) 0.3014(3) 0.85706(18)
H37_3 H 0.5405 0.2955 0.8685
C45_3 C 0.6274(3) 0.2662(2) 0.86205(13)
C46_3 C 0.6790(3) 0.2796(3) 0.84417(12)
H38_3 H 0.7156 0.2591 0.8480
C47_3 C 0.6770(3) 0.3229(3) 0.82081(14)
C48_3 C 0.6286(3) 0.2162(3) 0.88410(11)
C49_3 C 0.5082(6) 0.3309(7) 0.7378(3)
H39_3 H 0.4869 0.2926 0.7405
H40_3 H 0.5333 0.3286 0.7200
H41_3 H 0.4789 0.3635 0.7356
C50_3 C 0.7597(12) 0.3237(13) 0.7703(4)
H42_3 H 0.7584 0.3611 0.7589
H43_3 H 0.7385 0.2919 0.7596
H44_3 H 0.8017 0.3118 0.7734
C51_3 C 0.5295(2) 0.6263(3) 0.62922(12)
C52_3 C 0.4866(3) 0.6280(3) 0.60357(13)
C53_3 C 0.4502(4) 0.5762(4) 0.59663(19)
H45_3 H 0.4544 0.5395 0.6072
C54_3 C 0.4071(5) 0.5824(4) 0.5729(2)
C55_3 C 0.4092(4) 0.6285(4) 0.55279(16)
C56_3 C 0.4362(3) 0.6814(4) 0.56313(15)
H46_3 H 0.4266 0.7186 0.5540
C57_3 C 0.4783(3) 0.6804(3) 0.58723(14)
H47_3 H 0.5004 0.7156 0.5920
C58_3 C 0.3676(4) 0.6279(5) 0.52603(19)
C59_3 C 0.3925(5) 0.6359(6) 0.4973(2)
C60_3 C 0.3586(4) 0.6387(5) 0.4722(2)
H48_3 H 0.3761 0.6506 0.4540
C61_3 C 0.2962(3) 0.6233(4) 0.47396(14)
C62_3 C 0.2695(4) 0.6210(4) 0.50270(18)
H49_3 H 0.2270 0.6217 0.5047
C63_3 C 0.3058(4) 0.6177(5) 0.52761(18)
C64_3 C 0.2564(3) 0.6183(2) 0.44657(10)
C65_3 C 0.3296(12) 0.5154(12) 0.5951(4)
H50_3 H 0.3027 0.4818 0.5903
H51_3 H 0.3060 0.5485 0.6035
H52_3 H 0.3597 0.5021 0.6095
C66_3 C 0.4840(10) 0.6512(13) 0.4707(4)
H53_3 H 0.5185 0.6729 0.4789
H54_3 H 0.4604 0.6784 0.4583
H55_3 H 0.4984 0.6173 0.4589
O29_3 O 0.4253(2) 0.45961(19) 0.70409(9)
O30_3 O 0.3343(2) 0.4258(2) 0.71814(10)
O33_3 O 0.4490(3) 0.6560(3) 0.76662(15)
O34_3 O 0.2734(3) 0.6654(2) 0.80289(12)
O35_3 O 0.4558(2) 0.4248(2) 0.64132(11)
O36_3 O 0.44482(17) 0.32755(18) 0.63802(8)
O37_3 O 0.79894(18) 0.3893(2) 0.45124(8)
O38_3 O 0.71657(16) 0.3752(2) 0.42199(7)
O39_3 O 0.6378(4) 0.4625(3) 0.56632(19)
O40_3 O 0.5533(7) 0.3711(8) 0.4945(3)
C67_3 C 0.3826(3) 0.4621(2) 0.72032(12)
C68_3 C 0.3809(3) 0.5071(3) 0.74653(14)
C69_3 C 0.3346(3) 0.5074(3) 0.76766(14)
H56_3 H 0.3036 0.4781 0.7666
C70_3 C 0.3337(3) 0.5503(3) 0.79013(16)
H57_3 H 0.3020 0.5489 0.8042
C71_3 C 0.3775(3) 0.5951(3) 0.79285(15)
C72_3 C 0.4157(4) 0.6003(4) 0.76646(19)
C73_3 C 0.4204(4) 0.5566(4) 0.74653(17)
H58_3 H 0.4510 0.5589 0.7320
C74_3 C 0.3730(3) 0.6416(3) 0.81691(14)
C75_3 C 0.4226(3) 0.6527(3) 0.83388(16)
H59_3 H 0.4578 0.6295 0.8305
C76_3 C 0.4242(3) 0.6986(3) 0.85706(18)
H60_3 H 0.4595 0.7045 0.8685
C77_3 C 0.3726(3) 0.7338(2) 0.86205(13)
C78_3 C 0.3210(3) 0.7204(3) 0.84417(12)
H61_3 H 0.2844 0.7409 0.8480
C79_3 C 0.3230(3) 0.6771(3) 0.82081(14)
C80_3 C 0.3714(3) 0.7838(3) 0.88410(11)
C81_3 C 0.4918(6) 0.6691(7) 0.7378(3)
H62_3 H 0.5131 0.7074 0.7405
H63_3 H 0.4667 0.6714 0.7200
H64_3 H 0.5211 0.6365 0.7356
C82_3 C 0.2403(12) 0.6763(13) 0.7703(4)
H65_3 H 0.2416 0.6389 0.7589
H66_3 H 0.2615 0.7081 0.7596
H67_3 H 0.1983 0.6882 0.7734
C83_3 C 0.4705(2) 0.3737(3) 0.62922(12)
C84_3 C 0.5134(3) 0.3720(3) 0.60357(13)
C85_3 C 0.5498(4) 0.4238(4) 0.59663(19)
H68_3 H 0.5456 0.4605 0.6072
C86_3 C 0.5929(5) 0.4176(4) 0.5729(2)
C87_3 C 0.5908(4) 0.3715(4) 0.55279(16)
C88_3 C 0.5638(3) 0.3186(4) 0.56313(15)
H69_3 H 0.5734 0.2814 0.5540
C89_3 C 0.5217(3) 0.3196(3) 0.58723(14)
H70_3 H 0.4996 0.2844 0.5920
C90_3 C 0.6324(4) 0.3721(5) 0.52603(19)
C91_3 C 0.6075(5) 0.3641(6) 0.4973(2)
C92_3 C 0.6414(4) 0.3613(5) 0.4722(2)
H71_3 H 0.6239 0.3494 0.4540
C93_3 C 0.7038(3) 0.3767(4) 0.47396(14)
C94_3 C 0.7305(4) 0.3790(4) 0.50270(18)
H72_3 H 0.7730 0.3783 0.5047
C95_3 C 0.6942(4) 0.3823(5) 0.52761(18)
C96_3 C 0.7436(3) 0.3817(2) 0.44657(10)
C97_3 C 0.6704(12) 0.4846(12) 0.5951(4)
H73_3 H 0.6973 0.5182 0.5903
H74_3 H 0.6940 0.4515 0.6035
H75_3 H 0.6403 0.4979 0.6095
C98_3 C 0.5160(10) 0.3488(13) 0.4707(4)
H76_3 H 0.4815 0.3271 0.4789
H77_3 H 0.5396 0.3216 0.4583
H78_3 H 0.5016 0.3827 0.4589
Cd9_3 Cd 0.118217(14) 0.619549(14) 0.423975(6)
Cd10_3 Cd 0.881783(14) 0.380451(14) 0.423975(6)
O41_3 O 0.7044(2) 0.57913(19) 0.64698(11)
O42_3 O 0.2956(2) 0.42087(19) 0.64698(11)
O43_3 O 0.69282(17) 0.82160(18) 0.60924(8)
O44_3 O 0.69282(17) 0.67840(18) 0.64076(8)
O45_3 O 0.30718(17) 0.32160(18) 0.64076(8)
O46_5 O 0.55518(17) 0.82755(18) 0.61198(8)
O50_5 O 0.6248(2) 0.71657(16) 0.57801(7)
H79_3 H 0.285089 0.606687 0.549261
H80_3 H 0.714911 0.393313 0.549261
O43_4 O 0.30718(17) 0.17840(18) 0.60924(8)
O46_6 O 0.44482(17) 0.17245(18) 0.61198(8)
O50_6 O 0.3752(2) 0.28343(16) 0.57801(7)
O40_4 O 0.1289(8) 0.0533(7) 0.0055(3)
C91_4 C 0.1359(6) 0.1075(5) 0.0027(2)
C92_4 C 0.1387(5) 0.1414(4) 0.0278(2)
H71_4 H 0.1506 0.1239 0.0460
C93_4 C 0.1233(4) 0.2038(3) 0.02604(14)
C96_4 C 0.1183(2) 0.2436(3) 0.05343(10)
C98_4 C 0.1512(13) 0.0160(10) 0.0293(4)
H77_4 H 0.1784 0.0396 0.0417
H78_4 H 0.1173 0.0016 0.0411
Na1_6 Na -0.0000 -0.0000 0.82677(9)
O19_3 O 0.2956(2) 0.07913(19) 0.60302(11)
O21_4 O 0.1560(3) 0.0510(3) 0.73338(15)
O22_4 O 0.1654(2) 0.2266(3) 0.69711(12)
C36_4 C 0.0071(3) 0.1191(3) 0.75347(14)
C37_4 C 0.0074(3) 0.1654(3) 0.73234(14)
C38_4 C 0.0503(3) 0.1663(3) 0.70987(16)
H34_4 H 0.0489 0.1980 0.6958
C39_4 C 0.0951(3) 0.1225(3) 0.70715(15)
C40_4 C 0.1003(4) 0.0843(4) 0.73354(19)
C41_4 C 0.0566(4) 0.0796(4) 0.75347(17)
H35_4 H 0.0589 0.0490 0.7680
C42_4 C 0.1416(3) 0.1270(3) 0.68309(14)
C43_4 C 0.1527(3) 0.0774(3) 0.66612(16)
H36_4 H 0.1295 0.0422 0.6695
C44_4 C 0.1986(3) 0.0758(3) 0.64294(18)
H37_4 H 0.2045 0.0405 0.6315
C45_4 C 0.2338(2) 0.1274(3) 0.63795(13)
C46_4 C 0.2204(3) 0.1790(3) 0.65583(12)
H38_4 H 0.2409 0.2156 0.6520
C47_4 C 0.1771(3) 0.1770(3) 0.67919(14)
C48_4 C 0.2838(3) 0.1286(3) 0.61590(11)
C49_4 C 0.1691(7) 0.0082(6) 0.7622(3)
H40_4 H 0.1714 0.0333 0.7800
C50_4 C 0.1763(13) 0.2597(12) 0.7297(4)
H42_4 H 0.1389 0.2584 0.7411
H43_4 H 0.2081 0.2385 0.7404
H44_4 H 0.1882 0.3017 0.7266
O39_4 O 0.0375(3) 0.1378(4) 0.93368(19)
C84_4 C 0.1280(3) 0.0134(3) 0.89643(13)
C85_4 C 0.0762(4) 0.0498(4) 0.90337(19)
H68_4 H 0.0395 0.0456 0.8928
C86_4 C 0.0824(4) 0.0929(5) 0.9271(2)
C87_4 C 0.1285(4) 0.0908(4) 0.94721(16)
C88_4 C 0.1814(4) 0.0638(3) 0.93687(15)
H69_4 H 0.2186 0.0734 0.9460
C89_4 C 0.1804(3) 0.0217(3) 0.91277(14)
C90_4 C 0.1279(5) 0.1324(4) 0.97397(19)
C94_4 C 0.1210(4) 0.2305(4) 0.99730(18)
H72_4 H 0.1217 0.2730 0.9953
C95_4 C 0.1177(5) 0.1942(4) 0.97239(18)
C97_4 C 0.0154(12) 0.1704(12) 0.9049(4)
H74_4 H 0.0485 0.1940 0.8965
H75_4 H 0.0021 0.1403 0.8905
Cd7_3 Cd 0.380451(14) 0.118217(14) 0.576025(6)
H80_4 H 0.106687 0.214911 0.950739
Na1_7 Na -0.0000 1.0000 0.82677(9)
H39_4 H 0.2074 0.9869 0.7595
H41_4 H 0.1365 0.9789 0.7644
H50_4 H 0.0182 0.8027 0.9097
O29_4 O 0.04039(19) 0.9253(2) 0.79591(9)
O30_4 O 0.0742(2) 0.8343(2) 0.78186(10)
O35_4 O 0.0752(2) 0.9558(2) 0.85868(11)
C67_4 C 0.0379(2) 0.8826(3) 0.77968(12)
H56_4 H 0.0219 0.8036 0.7334
C83_4 C 0.1263(3) 0.9705(2) 0.87078(12)
H70_4 H 0.2156 0.9996 0.9080
O48_3 O 0.20106(18) 0.8893(2) 0.79876(8)
Na1_8 Na 1.0000 -0.0000 0.82677(9)
O17_4 O 0.95961(19) 0.0747(2) 0.79591(9)
O18_4 O 0.9258(2) 0.1657(2) 0.78186(10)
O23_4 O 0.9248(2) 0.0442(2) 0.85868(11)
C35_4 C 0.9621(2) 0.1174(3) 0.77968(12)
H33_4 H 0.9781 0.1964 0.7334
C51_4 C 0.8737(3) 0.0295(2) 0.87078(12)
H47_4 H 0.7844 0.0004 0.9080
H62_4 H 0.7926 0.0131 0.7595
H64_4 H 0.8635 0.0211 0.7644
H73_4 H 0.9818 0.1973 0.9097
O47_3 O 0.79894(18) 0.1107(2) 0.79876(8)
O28_4 O 0.8711(8) 0.9467(7) 0.0055(3)
C59_4 C 0.8641(6) 0.8925(5) 0.0027(2)
C60_4 C 0.8613(5) 0.8586(4) 0.0278(2)
H48_4 H 0.8494 0.8761 0.0460
C61_4 C 0.8767(4) 0.7962(3) 0.02604(14)
C64_4 C 0.8817(2) 0.7564(3) 0.05343(10)
C66_4 C 0.8488(13) 0.9840(10) 0.0293(4)
H54_4 H 0.8216 0.9604 0.0417
H55_4 H 0.8827 0.9984 0.0411
Na1_9 Na 1.0000 1.0000 0.82677(9)
O27_4 O 0.9625(3) 0.8622(4) 0.93368(19)
C52_4 C 0.8720(3) 0.9866(3) 0.89643(13)
C53_4 C 0.9238(4) 0.9502(4) 0.90337(19)
H45_4 H 0.9605 0.9544 0.8928
C54_4 C 0.9176(4) 0.9071(5) 0.9271(2)
C55_4 C 0.8715(4) 0.9092(4) 0.94721(16)
C56_4 C 0.8186(4) 0.9362(3) 0.93687(15)
H46_4 H 0.7814 0.9266 0.9460
C57_4 C 0.8196(3) 0.9783(3) 0.91277(14)
C58_4 C 0.8721(5) 0.8676(4) 0.97397(19)
C62_4 C 0.8790(4) 0.7695(4) 0.99730(18)
H49_4 H 0.8783 0.7270 0.9953
C63_4 C 0.8823(5) 0.8058(4) 0.97239(18)
C65_4 C 0.9846(12) 0.8296(12) 0.9049(4)
H51_4 H 0.9515 0.8060 0.8965
H52_4 H 0.9979 0.8597 0.8905
O31_3 O 0.7044(2) 0.92087(19) 0.60302(11)
O33_4 O 0.8440(3) 0.9490(3) 0.73338(15)
O34_4 O 0.8346(2) 0.7734(3) 0.69711(12)
C68_4 C 0.9929(3) 0.8809(3) 0.75347(14)
C69_4 C 0.9926(3) 0.8346(3) 0.73234(14)
C70_4 C 0.9497(3) 0.8337(3) 0.70987(16)
H57_4 H 0.9511 0.8020 0.6958
C71_4 C 0.9049(3) 0.8775(3) 0.70715(15)
C72_4 C 0.8997(4) 0.9157(4) 0.73354(19)
C73_4 C 0.9434(4) 0.9204(4) 0.75347(17)
H58_4 H 0.9411 0.9510 0.7680
C74_4 C 0.8584(3) 0.8730(3) 0.68309(14)
C75_4 C 0.8473(3) 0.9226(3) 0.66612(16)
H59_4 H 0.8705 0.9578 0.6695
C76_4 C 0.8014(3) 0.9242(3) 0.64294(18)
H60_4 H 0.7955 0.9595 0.6315
C77_4 C 0.7662(2) 0.8726(3) 0.63795(13)
C78_4 C 0.7796(3) 0.8210(3) 0.65583(12)
H61_4 H 0.7591 0.7844 0.6520
C79_4 C 0.8229(3) 0.8230(3) 0.67919(14)
C80_4 C 0.7162(3) 0.8714(3) 0.61590(11)
C81_4 C 0.8309(7) 0.9918(6) 0.7622(3)
H63_4 H 0.8286 0.9667 0.7800
C82_4 C 0.8237(13) 0.7403(12) 0.7297(4)
H65_4 H 0.8611 0.7416 0.7411
H66_4 H 0.7919 0.7615 0.7404
H67_4 H 0.8118 0.6983 0.7266
Cd8_3 Cd 0.619549(14) 0.881783(14) 0.576025(6)
H79_4 H 0.893313 0.785089 0.950739
Na1_10 Na 0.5000 0.0000 0.57677(9)
O17_5 O 0.4253(2) 0.04039(19) 0.54591(9)
O18_5 O 0.3343(2) 0.0742(2) 0.53186(10)
O23_5 O 0.4558(2) 0.0752(2) 0.60868(11)
O27_5 O 0.6378(4) 0.0375(3) 0.68368(19)
O28_5 O 0.5533(7) 0.1289(8) 0.7555(3)
C35_5 C 0.3826(3) 0.0379(2) 0.52968(12)
H33_5 H 0.3036 0.0219 0.4834
C51_5 C 0.4705(2) 0.1263(3) 0.62078(12)
C52_5 C 0.5134(3) 0.1280(3) 0.64643(13)
C53_5 C 0.5498(4) 0.0762(4) 0.65337(19)
H45_5 H 0.5456 0.0395 0.6428
C54_5 C 0.5929(5) 0.0824(4) 0.6771(2)
C55_5 C 0.5908(4) 0.1285(4) 0.69721(16)
C56_5 C 0.5638(3) 0.1814(4) 0.68687(15)
H46_5 H 0.5734 0.2186 0.6960
C57_5 C 0.5217(3) 0.1804(3) 0.66277(14)
H47_5 H 0.4996 0.2156 0.6580
C58_5 C 0.6324(4) 0.1279(5) 0.72397(19)
C59_5 C 0.6075(5) 0.1359(6) 0.7527(2)
C60_5 C 0.6414(4) 0.1387(5) 0.7778(2)
H48_5 H 0.6239 0.1506 0.7960
C61_5 C 0.7038(3) 0.1233(4) 0.77604(14)
C62_5 C 0.7305(4) 0.1210(4) 0.74730(18)
H49_5 H 0.7730 0.1217 0.7453
C63_5 C 0.6942(4) 0.1177(5) 0.72239(18)
C64_5 C 0.7436(3) 0.1183(2) 0.80343(10)
C65_5 C 0.6704(12) 0.0154(12) 0.6549(4)
H51_5 H 0.6940 0.0485 0.6465
H52_5 H 0.6403 0.0021 0.6405
C66_5 C 0.5160(10) 0.1512(13) 0.7793(4)
H53_4 H 0.4815 0.1729 0.7711
H54_5 H 0.5396 0.1784 0.7917
H55_5 H 0.5016 0.1173 0.7911
O31_4 O 0.57913(19) 0.2956(2) 0.35302(11)
O32_2 O 0.67840(18) 0.30718(17) 0.35924(8)
O33_5 O 0.5510(3) 0.1560(3) 0.48338(15)
O34_5 O 0.7266(3) 0.1654(2) 0.44711(12)
C68_5 C 0.6191(3) 0.0071(3) 0.50347(14)
C69_5 C 0.6654(3) 0.0074(3) 0.48234(14)
C70_5 C 0.6663(3) 0.0503(3) 0.45987(16)
H57_5 H 0.6980 0.0489 0.4458
C71_5 C 0.6225(3) 0.0951(3) 0.45715(15)
C72_5 C 0.5843(4) 0.1003(4) 0.48354(19)
C73_5 C 0.5796(4) 0.0566(4) 0.50347(17)
H58_5 H 0.5490 0.0589 0.5180
C74_5 C 0.6270(3) 0.1416(3) 0.43309(14)
C75_5 C 0.5774(3) 0.1527(3) 0.41612(16)
H59_5 H 0.5422 0.1295 0.4195
C76_5 C 0.5758(3) 0.1986(3) 0.39294(18)
H60_5 H 0.5405 0.2045 0.3815
C77_5 C 0.6274(3) 0.2338(2) 0.38795(13)
C78_5 C 0.6790(3) 0.2204(3) 0.40583(12)
H61_5 H 0.7156 0.2409 0.4020
C79_5 C 0.6770(3) 0.1771(3) 0.42919(14)
C80_5 C 0.6286(3) 0.2838(3) 0.36590(11)
C81_5 C 0.5082(6) 0.1691(7) 0.5122(3)
H62_5 H 0.4869 0.2074 0.5095
H63_5 H 0.5333 0.1714 0.5300
H64_5 H 0.4789 0.1365 0.5144
C82_5 C 0.7597(12) 0.1763(13) 0.4797(4)
H65_5 H 0.7584 0.1389 0.4911
H66_5 H 0.7385 0.2081 0.4904
H67_5 H 0.8017 0.1882 0.4766
H73_5 H 0.3027 0.0182 0.6597
O47_4 O 0.3893(2) 0.20106(18) 0.54876(8)
H79_5 H 0.714911 0.106687 0.700739
Na1_11 Na 0.5000 1.0000 0.57677(9)
O19_4 O 0.42087(19) 0.7044(2) 0.35302(11)
O20_2 O 0.32160(18) 0.69282(17) 0.35924(8)
O21_5 O 0.4490(3) 0.8440(3) 0.48338(15)
O22_5 O 0.2734(3) 0.8346(2) 0.44711(12)
C36_5 C 0.3809(3) 0.9929(3) 0.50347(14)
C37_5 C 0.3346(3) 0.9926(3) 0.48234(14)
C38_5 C 0.3337(3) 0.9497(3) 0.45987(16)
H34_5 H 0.3020 0.9511 0.4458
C39_5 C 0.3775(3) 0.9049(3) 0.45715(15)
C40_5 C 0.4157(4) 0.8997(4) 0.48354(19)
C41_5 C 0.4204(4) 0.9434(4) 0.50347(17)
H35_5 H 0.4510 0.9411 0.5180
C42_5 C 0.3730(3) 0.8584(3) 0.43309(14)
C43_5 C 0.4226(3) 0.8473(3) 0.41612(16)
H36_5 H 0.4578 0.8705 0.4195
C44_5 C 0.4242(3) 0.8014(3) 0.39294(18)
H37_5 H 0.4595 0.7955 0.3815
C45_5 C 0.3726(3) 0.7662(2) 0.38795(13)
C46_5 C 0.3210(3) 0.7796(3) 0.40583(12)
H38_5 H 0.2844 0.7591 0.4020
C47_5 C 0.3230(3) 0.8229(3) 0.42919(14)
C48_5 C 0.3714(3) 0.7162(3) 0.36590(11)
C49_5 C 0.4918(6) 0.8309(7) 0.5122(3)
H39_5 H 0.5131 0.7926 0.5095
H40_5 H 0.4667 0.8286 0.5300
H41_5 H 0.5211 0.8635 0.5144
C50_5 C 0.2403(12) 0.8237(13) 0.4797(4)
H42_5 H 0.2416 0.8611 0.4911
H43_5 H 0.2615 0.7919 0.4904
H44_5 H 0.1983 0.8118 0.4766
H50_5 H 0.6973 0.9818 0.6597
O29_5 O 0.5747(2) 0.95961(19) 0.54591(9)
O30_5 O 0.6657(2) 0.9258(2) 0.53186(10)
O35_5 O 0.5442(2) 0.9248(2) 0.60868(11)
O39_5 O 0.3622(4) 0.9625(3) 0.68368(19)
O40_5 O 0.4467(7) 0.8711(8) 0.7555(3)
C67_5 C 0.6174(3) 0.9621(2) 0.52968(12)
H56_5 H 0.6964 0.9781 0.4834
C83_5 C 0.5295(2) 0.8737(3) 0.62078(12)
C84_5 C 0.4866(3) 0.8720(3) 0.64643(13)
C85_5 C 0.4502(4) 0.9238(4) 0.65337(19)
H68_5 H 0.4544 0.9605 0.6428
C86_5 C 0.4071(5) 0.9176(4) 0.6771(2)
C87_5 C 0.4092(4) 0.8715(4) 0.69721(16)
C88_5 C 0.4362(3) 0.8186(4) 0.68687(15)
H69_5 H 0.4266 0.7814 0.6960
C89_5 C 0.4783(3) 0.8196(3) 0.66277(14)
H70_5 H 0.5004 0.7844 0.6580
C90_5 C 0.3676(4) 0.8721(5) 0.72397(19)
C91_5 C 0.3925(5) 0.8641(6) 0.7527(2)
C92_5 C 0.3586(4) 0.8613(5) 0.7778(2)
H71_5 H 0.3761 0.8494 0.7960
C93_5 C 0.2962(3) 0.8767(4) 0.77604(14)
C94_5 C 0.2695(4) 0.8790(4) 0.74730(18)
H72_5 H 0.2270 0.8783 0.7453
C95_5 C 0.3058(4) 0.8823(5) 0.72239(18)
C96_5 C 0.2564(3) 0.8817(2) 0.80343(10)
C97_5 C 0.3296(12) 0.9846(12) 0.6549(4)
H74_5 H 0.3060 0.9515 0.6465
H75_5 H 0.3597 0.9979 0.6405
C98_5 C 0.4840(10) 0.8488(13) 0.7793(4)
H76_4 H 0.5185 0.8271 0.7711
H77_5 H 0.4604 0.8216 0.7917
H78_5 H 0.4984 0.8827 0.7911
O48_4 O 0.6107(2) 0.79894(18) 0.54876(8)
H80_5 H 0.285089 0.893313 0.700739
Na1_12 Na -0.0000 0.5000 0.42323(9)
O17_6 O 0.04039(19) 0.5747(2) 0.45409(9)
O18_6 O 0.0742(2) 0.6657(2) 0.46814(10)
O23_6 O 0.0752(2) 0.5442(2) 0.39132(11)
O24_4 O 0.17245(18) 0.55518(17) 0.38802(8)
O25_4 O 0.1107(2) 0.20106(18) 0.20124(8)
O27_6 O 0.0375(3) 0.3622(4) 0.31632(19)
O28_6 O 0.1289(8) 0.4467(7) 0.2445(3)
C35_6 C 0.0379(2) 0.6174(3) 0.47032(12)
H33_6 H 0.0219 0.6964 0.5166
C51_6 C 0.1263(3) 0.5295(2) 0.37922(12)
C52_6 C 0.1280(3) 0.4866(3) 0.35357(13)
C53_6 C 0.0762(4) 0.4502(4) 0.34663(19)
H45_6 H 0.0395 0.4544 0.3572
C54_6 C 0.0824(4) 0.4071(5) 0.3229(2)
C55_6 C 0.1285(4) 0.4092(4) 0.30279(16)
C56_6 C 0.1814(4) 0.4362(3) 0.31313(15)
H46_6 H 0.2186 0.4266 0.3040
C57_6 C 0.1804(3) 0.4783(3) 0.33723(14)
H47_6 H 0.2156 0.5004 0.3420
C58_6 C 0.1279(5) 0.3676(4) 0.27603(19)
C59_6 C 0.1359(6) 0.3925(5) 0.2473(2)
C60_6 C 0.1387(5) 0.3586(4) 0.2222(2)
H48_6 H 0.1506 0.3761 0.2040
C61_6 C 0.1233(4) 0.2962(3) 0.22396(14)
C62_6 C 0.1210(4) 0.2695(4) 0.25270(18)
H49_6 H 0.1217 0.2270 0.2547
C63_6 C 0.1177(5) 0.3058(4) 0.27761(18)
C64_6 C 0.1183(2) 0.2564(3) 0.19657(10)
C65_6 C 0.0154(12) 0.3296(12) 0.3451(4)
H51_6 H 0.0485 0.3060 0.3535
H52_6 H 0.0021 0.3597 0.3595
C66_6 C 0.1512(13) 0.4840(10) 0.2207(4)
H53_5 H 0.1729 0.5185 0.2289
H54_6 H 0.1784 0.4604 0.2083
H55_6 H 0.1173 0.4984 0.2089
O33_6 O 0.1560(3) 0.4490(3) 0.51662(15)
O34_6 O 0.1654(2) 0.2734(3) 0.55289(12)
C68_6 C 0.0071(3) 0.3809(3) 0.49653(14)
C69_6 C 0.0074(3) 0.3346(3) 0.51766(14)
C70_6 C 0.0503(3) 0.3337(3) 0.54013(16)
H57_6 H 0.0489 0.3020 0.5542
C71_6 C 0.0951(3) 0.3775(3) 0.54285(15)
C72_6 C 0.1003(4) 0.4157(4) 0.51646(19)
C73_6 C 0.0566(4) 0.4204(4) 0.49653(17)
H58_6 H 0.0589 0.4510 0.4820
C74_6 C 0.1416(3) 0.3730(3) 0.56691(14)
C75_6 C 0.1527(3) 0.4226(3) 0.58388(16)
H59_6 H 0.1295 0.4578 0.5805
C76_6 C 0.1986(3) 0.4242(3) 0.60706(18)
H60_6 H 0.2045 0.4595 0.6185
C77_6 C 0.2338(2) 0.3726(3) 0.61205(13)
C78_6 C 0.2204(3) 0.3210(3) 0.59417(12)
H61_6 H 0.2409 0.2844 0.5980
C79_6 C 0.1771(3) 0.3230(3) 0.57081(14)
C80_6 C 0.2838(3) 0.3714(3) 0.63410(11)
C81_6 C 0.1691(7) 0.4918(6) 0.4878(3)
H62_6 H 0.2074 0.5131 0.4905
H63_6 H 0.1714 0.4667 0.4700
H64_6 H 0.1365 0.5211 0.4856
C82_6 C 0.1763(13) 0.2403(12) 0.5203(4)
H65_6 H 0.1389 0.2416 0.5089
H66_6 H 0.2081 0.2615 0.5096
H67_6 H 0.1882 0.1983 0.5234
H73_6 H 0.0182 0.6973 0.3403
O41_4 O 0.07913(19) 0.7044(2) 0.39698(11)
O44_4 O 0.17840(18) 0.69282(17) 0.39076(8)
O46_7 O 0.32755(18) 0.55518(17) 0.36198(8)
H79_6 H 0.106687 0.285089 0.299261
Na1_13 Na 1.0000 0.5000 0.42323(9)
O21_6 O 0.8440(3) 0.5510(3) 0.51662(15)
O22_6 O 0.8346(2) 0.7266(3) 0.55289(12)
C36_6 C 0.9929(3) 0.6191(3) 0.49653(14)
C37_6 C 0.9926(3) 0.6654(3) 0.51766(14)
C38_6 C 0.9497(3) 0.6663(3) 0.54013(16)
H34_6 H 0.9511 0.6980 0.5542
C39_6 C 0.9049(3) 0.6225(3) 0.54285(15)
C40_6 C 0.8997(4) 0.5843(4) 0.51646(19)
C41_6 C 0.9434(4) 0.5796(4) 0.49653(17)
H35_6 H 0.9411 0.5490 0.4820
C42_6 C 0.8584(3) 0.6270(3) 0.56691(14)
C43_6 C 0.8473(3) 0.5774(3) 0.58388(16)
H36_6 H 0.8705 0.5422 0.5805
C44_6 C 0.8014(3) 0.5758(3) 0.60706(18)
H37_6 H 0.7955 0.5405 0.6185
C45_6 C 0.7662(2) 0.6274(3) 0.61205(13)
C46_6 C 0.7796(3) 0.6790(3) 0.59417(12)
H38_6 H 0.7591 0.7156 0.5980
C47_6 C 0.8229(3) 0.6770(3) 0.57081(14)
C48_6 C 0.7162(3) 0.6286(3) 0.63410(11)
C49_6 C 0.8309(7) 0.5082(6) 0.4878(3)
H39_6 H 0.7926 0.4869 0.4905
H40_6 H 0.8286 0.5333 0.4700
H41_6 H 0.8635 0.4789 0.4856
C50_6 C 0.8237(13) 0.7597(12) 0.5203(4)
H42_6 H 0.8611 0.7584 0.5089
H43_6 H 0.7919 0.7385 0.5096
H44_6 H 0.8118 0.8017 0.5234
H50_6 H 0.9818 0.3027 0.3403
O29_6 O 0.95961(19) 0.4253(2) 0.45409(9)
O30_6 O 0.9258(2) 0.3343(2) 0.46814(10)
O35_6 O 0.9248(2) 0.4558(2) 0.39132(11)
O36_4 O 0.82755(18) 0.44482(17) 0.38802(8)
O37_4 O 0.8893(2) 0.79894(18) 0.20124(8)
O39_6 O 0.9625(3) 0.6378(4) 0.31632(19)
O40_6 O 0.8711(8) 0.5533(7) 0.2445(3)
C67_6 C 0.9621(2) 0.3826(3) 0.47032(12)
H56_6 H 0.9781 0.3036 0.5166
C83_6 C 0.8737(3) 0.4705(2) 0.37922(12)
C84_6 C 0.8720(3) 0.5134(3) 0.35357(13)
C85_6 C 0.9238(4) 0.5498(4) 0.34663(19)
H68_6 H 0.9605 0.5456 0.3572
C86_6 C 0.9176(4) 0.5929(5) 0.3229(2)
C87_6 C 0.8715(4) 0.5908(4) 0.30279(16)
C88_6 C 0.8186(4) 0.5638(3) 0.31313(15)
H69_6 H 0.7814 0.5734 0.3040
C89_6 C 0.8196(3) 0.5217(3) 0.33723(14)
H70_6 H 0.7844 0.4996 0.3420
C90_6 C 0.8721(5) 0.6324(4) 0.27603(19)
C91_6 C 0.8641(6) 0.6075(5) 0.2473(2)
C92_6 C 0.8613(5) 0.6414(4) 0.2222(2)
H71_6 H 0.8494 0.6239 0.2040
C93_6 C 0.8767(4) 0.7038(3) 0.22396(14)
C94_6 C 0.8790(4) 0.7305(4) 0.25270(18)
H72_6 H 0.8783 0.7730 0.2547
C95_6 C 0.8823(5) 0.6942(4) 0.27761(18)
C96_6 C 0.8817(2) 0.7436(3) 0.19657(10)
C97_6 C 0.9846(12) 0.6704(12) 0.3451(4)
H74_6 H 0.9515 0.6940 0.3535
H75_6 H 0.9979 0.6403 0.3595
C98_6 C 0.8488(13) 0.5160(10) 0.2207(4)
H76_5 H 0.8271 0.4815 0.2289
H77_6 H 0.8216 0.5396 0.2083
H78_6 H 0.8827 0.5016 0.2089
O42_4 O 0.92087(19) 0.2956(2) 0.39698(11)
O45_4 O 0.82160(18) 0.30718(17) 0.39076(8)
H80_6 H 0.893313 0.714911 0.299261
O46_8 O 0.67245(18) 0.44482(17) 0.36198(8)
Na1_14 Na -0.0000 -0.0000 0.17323(9)
O17_7 O 0.0747(2) 0.04039(19) 0.20409(9)
O18_7 O 0.1657(2) 0.0742(2) 0.21814(10)
O23_7 O 0.0442(2) 0.0752(2) 0.14132(11)
C35_7 C 0.1174(3) 0.0379(2) 0.22032(12)
H33_7 H 0.1964 0.0219 0.2666
C51_7 C 0.0295(2) 0.1263(3) 0.12922(12)
H47_7 H 0.0004 0.2156 0.0920
H62_7 H 0.0131 0.2074 0.2405
H64_7 H 0.0211 0.1365 0.2356
H73_7 H 0.1973 0.0182 0.0903
Na1_15 Na -0.0000 1.0000 0.17323(9)
O21_7 O 0.0510(3) 0.8440(3) 0.26662(15)
O22_7 O 0.2266(3) 0.8346(2) 0.30289(12)
C36_7 C 0.1191(3) 0.9929(3) 0.24653(14)
C37_7 C 0.1654(3) 0.9926(3) 0.26766(14)
C38_7 C 0.1663(3) 0.9497(3) 0.29013(16)
H34_7 H 0.1980 0.9511 0.3042
C39_7 C 0.1225(3) 0.9049(3) 0.29285(15)
C40_7 C 0.0843(4) 0.8997(4) 0.26646(19)
C41_7 C 0.0796(4) 0.9434(4) 0.24653(17)
H35_7 H 0.0490 0.9411 0.2320
C42_7 C 0.1270(3) 0.8584(3) 0.31691(14)
C43_7 C 0.0774(3) 0.8473(3) 0.33388(16)
H36_7 H 0.0422 0.8705 0.3305
C44_7 C 0.0758(3) 0.8014(3) 0.35706(18)
H37_7 H 0.0405 0.7955 0.3685
C45_7 C 0.1274(3) 0.7662(2) 0.36205(13)
C46_7 C 0.1790(3) 0.7796(3) 0.34417(12)
H38_7 H 0.2156 0.7591 0.3480
C47_7 C 0.1770(3) 0.8229(3) 0.32081(14)
C48_7 C 0.1286(3) 0.7162(3) 0.38410(11)
C49_7 C 0.0082(6) 0.8309(7) 0.2378(3)
H40_7 H 0.0333 0.8286 0.2200
C50_7 C 0.2597(12) 0.8237(13) 0.2703(4)
H42_7 H 0.2584 0.8611 0.2589
H43_7 H 0.2385 0.7919 0.2596
H44_7 H 0.3017 0.8118 0.2734
O39_7 O 0.1378(4) 0.9625(3) 0.06632(19)
C84_7 C 0.0134(3) 0.8720(3) 0.10357(13)
C85_7 C 0.0498(4) 0.9238(4) 0.09663(19)
H68_7 H 0.0456 0.9605 0.1072
C86_7 C 0.0929(5) 0.9176(4) 0.0729(2)
C87_7 C 0.0908(4) 0.8715(4) 0.05279(16)
C88_7 C 0.0638(3) 0.8186(4) 0.06313(15)
H69_7 H 0.0734 0.7814 0.0540
C89_7 C 0.0217(3) 0.8196(3) 0.08723(14)
C90_7 C 0.1324(4) 0.8721(5) 0.02603(19)
C94_7 C 0.2305(4) 0.8790(4) 0.00270(18)
H72_7 H 0.2730 0.8783 0.0047
C95_7 C 0.1942(4) 0.8823(5) 0.02761(18)
C97_7 C 0.1704(12) 0.9846(12) 0.0951(4)
H74_7 H 0.1940 0.9515 0.1035
H75_7 H 0.1403 0.9979 0.1095
H80_7 H 0.214911 0.893313 0.0492607
O40_7 O 0.0533(7) 0.8711(8) 0.9945(3)
C91_7 C 0.1075(5) 0.8641(6) 0.9973(2)
C92_7 C 0.1414(4) 0.8613(5) 0.9722(2)
H71_7 H 0.1239 0.8494 0.9540
C93_7 C 0.2038(3) 0.8767(4) 0.97396(14)
C96_7 C 0.2436(3) 0.8817(2) 0.94657(10)
C98_7 C 0.0160(10) 0.8488(13) 0.9707(4)
H77_7 H 0.0396 0.8216 0.9583
H78_7 H 0.0016 0.8827 0.9589
Na1_16 Na 1.0000 -0.0000 0.17323(9)
O27_7 O 0.8622(4) 0.0375(3) 0.06632(19)
C52_7 C 0.9866(3) 0.1280(3) 0.10357(13)
C53_7 C 0.9502(4) 0.0762(4) 0.09663(19)
H45_7 H 0.9544 0.0395 0.1072
C54_7 C 0.9071(5) 0.0824(4) 0.0729(2)
C55_7 C 0.9092(4) 0.1285(4) 0.05279(16)
C56_7 C 0.9362(3) 0.1814(4) 0.06313(15)
H46_7 H 0.9266 0.2186 0.0540
C57_7 C 0.9783(3) 0.1804(3) 0.08723(14)
C58_7 C 0.8676(4) 0.1279(5) 0.02603(19)
C62_7 C 0.7695(4) 0.1210(4) 0.00270(18)
H49_7 H 0.7270 0.1217 0.0047
C63_7 C 0.8058(4) 0.1177(5) 0.02761(18)
C65_7 C 0.8296(12) 0.0154(12) 0.0951(4)
H51_7 H 0.8060 0.0485 0.1035
H52_7 H 0.8597 0.0021 0.1095
O33_7 O 0.9490(3) 0.1560(3) 0.26662(15)
O34_7 O 0.7734(3) 0.1654(2) 0.30289(12)
C68_7 C 0.8809(3) 0.0071(3) 0.24653(14)
C69_7 C 0.8346(3) 0.0074(3) 0.26766(14)
C70_7 C 0.8337(3) 0.0503(3) 0.29013(16)
H57_7 H 0.8020 0.0489 0.3042
C71_7 C 0.8775(3) 0.0951(3) 0.29285(15)
C72_7 C 0.9157(4) 0.1003(4) 0.26646(19)
C73_7 C 0.9204(4) 0.0566(4) 0.24653(17)
H58_7 H 0.9510 0.0589 0.2320
C74_7 C 0.8730(3) 0.1416(3) 0.31691(14)
C75_7 C 0.9226(3) 0.1527(3) 0.33388(16)
H59_7 H 0.9578 0.1295 0.3305
C76_7 C 0.9242(3) 0.1986(3) 0.35706(18)
H60_7 H 0.9595 0.2045 0.3685
C77_7 C 0.8726(3) 0.2338(2) 0.36205(13)
C78_7 C 0.8210(3) 0.2204(3) 0.34417(12)
H61_7 H 0.7844 0.2409 0.3480
C79_7 C 0.8230(3) 0.1771(3) 0.32081(14)
C80_7 C 0.8714(3) 0.2838(3) 0.38410(11)
C81_7 C 0.9918(6) 0.1691(7) 0.2378(3)
H63_7 H 0.9667 0.1714 0.2200
C82_7 C 0.7403(12) 0.1763(13) 0.2703(4)
H65_7 H 0.7416 0.1389 0.2589
H66_7 H 0.7615 0.2081 0.2596
H67_7 H 0.6983 0.1882 0.2734
H79_7 H 0.785089 0.106687 0.0492607
O28_7 O 0.9467(7) 0.1289(8) 0.9945(3)
C59_7 C 0.8925(5) 0.1359(6) 0.9973(2)
C60_7 C 0.8586(4) 0.1387(5) 0.9722(2)
H48_7 H 0.8761 0.1506 0.9540
C61_7 C 0.7962(3) 0.1233(4) 0.97396(14)
C64_7 C 0.7564(3) 0.1183(2) 0.94657(10)
C66_7 C 0.9840(10) 0.1512(13) 0.9707(4)
H54_7 H 0.9604 0.1784 0.9583
H55_7 H 0.9984 0.1173 0.9589
Na1_17 Na 1.0000 1.0000 0.17323(9)
H39_7 H 0.9869 0.7926 0.2405
H41_7 H 0.9789 0.8635 0.2356
H50_7 H 0.8027 0.9818 0.0903
O29_7 O 0.9253(2) 0.95961(19) 0.20409(9)
O30_7 O 0.8343(2) 0.9258(2) 0.21814(10)
O35_7 O 0.9558(2) 0.9248(2) 0.14132(11)
C67_7 C 0.8826(3) 0.9621(2) 0.22032(12)
H56_7 H 0.8036 0.9781 0.2666
C83_7 C 0.9705(2) 0.8737(3) 0.12922(12)
H70_7 H 0.9996 0.7844 0.0920
Na1_18 Na 0.5000 0.5000 0.32677(9)
O17_8 O 0.45961(19) 0.5747(2) 0.29591(9)
O18_8 O 0.4258(2) 0.6657(2) 0.28186(10)
O21_8 O 0.6560(3) 0.5510(3) 0.23338(15)
O22_8 O 0.6654(2) 0.7266(3) 0.19711(12)
O23_8 O 0.4248(2) 0.5442(2) 0.35868(11)
O27_8 O 0.4625(3) 0.3622(4) 0.43368(19)
O28_8 O 0.3711(8) 0.4467(7) 0.5055(3)
C35_8 C 0.4621(2) 0.6174(3) 0.27968(12)
C36_8 C 0.5071(3) 0.6191(3) 0.25347(14)
C37_8 C 0.5074(3) 0.6654(3) 0.23234(14)
H33_8 H 0.4781 0.6964 0.2334
C38_8 C 0.5503(3) 0.6663(3) 0.20987(16)
H34_8 H 0.5489 0.6980 0.1958
C39_8 C 0.5951(3) 0.6225(3) 0.20715(15)
C40_8 C 0.6003(4) 0.5843(4) 0.23354(19)
C41_8 C 0.5566(4) 0.5796(4) 0.25347(17)
H35_8 H 0.5589 0.5490 0.2680
C42_8 C 0.6416(3) 0.6270(3) 0.18309(14)
C43_8 C 0.6527(3) 0.5774(3) 0.16612(16)
H36_8 H 0.6295 0.5422 0.1695
C44_8 C 0.6986(3) 0.5758(3) 0.14294(18)
H37_8 H 0.7045 0.5405 0.1315
C45_8 C 0.7338(2) 0.6274(3) 0.13795(13)
C46_8 C 0.7204(3) 0.6790(3) 0.15583(12)
H38_8 H 0.7409 0.7156 0.1520
C47_8 C 0.6771(3) 0.6770(3) 0.17919(14)
C48_8 C 0.7838(3) 0.6286(3) 0.11590(11)
C49_8 C 0.6691(7) 0.5082(6) 0.2622(3)
H39_8 H 0.7074 0.4869 0.2595
H40_8 H 0.6714 0.5333 0.2800
H41_8 H 0.6365 0.4789 0.2644
C50_8 C 0.6763(13) 0.7597(12) 0.2297(4)
H42_8 H 0.6389 0.7584 0.2411
H43_8 H 0.7081 0.7385 0.2404
H44_8 H 0.6882 0.8017 0.2266
C51_8 C 0.3737(3) 0.5295(2) 0.37078(12)
C52_8 C 0.3720(3) 0.4866(3) 0.39643(13)
C53_8 C 0.4238(4) 0.4502(4) 0.40337(19)
H45_8 H 0.4605 0.4544 0.3928
C54_8 C 0.4176(4) 0.4071(5) 0.4271(2)
C55_8 C 0.3715(4) 0.4092(4) 0.44721(16)
C56_8 C 0.3186(4) 0.4362(3) 0.43687(15)
H46_8 H 0.2814 0.4266 0.4460
C57_8 C 0.3196(3) 0.4783(3) 0.41277(14)
H47_8 H 0.2844 0.5004 0.4080
C58_8 C 0.3721(5) 0.3676(4) 0.47397(19)
C59_8 C 0.3641(6) 0.3925(5) 0.5027(2)
C60_8 C 0.3613(5) 0.3586(4) 0.5278(2)
H48_8 H 0.3494 0.3761 0.5460
C61_8 C 0.3767(4) 0.2962(3) 0.52604(14)
C62_8 C 0.3790(4) 0.2695(4) 0.49730(18)
H49_8 H 0.3783 0.2270 0.4953
C63_8 C 0.3823(5) 0.3058(4) 0.47239(18)
C64_8 C 0.3817(2) 0.2564(3) 0.55343(10)
C65_8 C 0.4846(12) 0.3296(12) 0.4049(4)
H50_8 H 0.5182 0.3027 0.4097
H51_8 H 0.4515 0.3060 0.3965
H52_8 H 0.4979 0.3597 0.3905
C66_8 C 0.3488(13) 0.4840(10) 0.5293(4)
H53_6 H 0.3271 0.5185 0.5211
H54_8 H 0.3216 0.4604 0.5417
H55_8 H 0.3827 0.4984 0.5411
O29_8 O 0.54039(19) 0.4253(2) 0.29591(9)
O30_8 O 0.5742(2) 0.3343(2) 0.28186(10)
O33_8 O 0.3440(3) 0.4490(3) 0.23338(15)
O34_8 O 0.3346(2) 0.2734(3) 0.19711(12)
O35_8 O 0.5752(2) 0.4558(2) 0.35868(11)
O39_8 O 0.5375(3) 0.6378(4) 0.43368(19)
O40_8 O 0.6289(8) 0.5533(7) 0.5055(3)
C67_8 C 0.5379(2) 0.3826(3) 0.27968(12)
C68_8 C 0.4929(3) 0.3809(3) 0.25347(14)
C69_8 C 0.4926(3) 0.3346(3) 0.23234(14)
H56_8 H 0.5219 0.3036 0.2334
C70_8 C 0.4497(3) 0.3337(3) 0.20987(16)
H57_8 H 0.4511 0.3020 0.1958
C71_8 C 0.4049(3) 0.3775(3) 0.20715(15)
C72_8 C 0.3997(4) 0.4157(4) 0.23354(19)
C73_8 C 0.4434(4) 0.4204(4) 0.25347(17)
H58_8 H 0.4411 0.4510 0.2680
C74_8 C 0.3584(3) 0.3730(3) 0.18309(14)
C75_8 C 0.3473(3) 0.4226(3) 0.16612(16)
H59_8 H 0.3705 0.4578 0.1695
C76_8 C 0.3014(3) 0.4242(3) 0.14294(18)
H60_8 H 0.2955 0.4595 0.1315
C77_8 C 0.2662(2) 0.3726(3) 0.13795(13)
C78_8 C 0.2796(3) 0.3210(3) 0.15583(12)
H61_8 H 0.2591 0.2844 0.1520
C79_8 C 0.3229(3) 0.3230(3) 0.17919(14)
C80_8 C 0.2162(3) 0.3714(3) 0.11590(11)
C81_8 C 0.3309(7) 0.4918(6) 0.2622(3)
H62_8 H 0.2926 0.5131 0.2595
H63_8 H 0.3286 0.4667 0.2800
H64_8 H 0.3635 0.5211 0.2644
C82_8 C 0.3237(13) 0.2403(12) 0.2297(4)
H65_8 H 0.3611 0.2416 0.2411
H66_8 H 0.2919 0.2615 0.2404
H67_8 H 0.3118 0.1983 0.2266
C83_8 C 0.6263(3) 0.4705(2) 0.37078(12)
C84_8 C 0.6280(3) 0.5134(3) 0.39643(13)
C85_8 C 0.5762(4) 0.5498(4) 0.40337(19)
H68_8 H 0.5395 0.5456 0.3928
C86_8 C 0.5824(4) 0.5929(5) 0.4271(2)
C87_8 C 0.6285(4) 0.5908(4) 0.44721(16)
C88_8 C 0.6814(4) 0.5638(3) 0.43687(15)
H69_8 H 0.7186 0.5734 0.4460
C89_8 C 0.6804(3) 0.5217(3) 0.41277(14)
H70_8 H 0.7156 0.4996 0.4080
C90_8 C 0.6279(5) 0.6324(4) 0.47397(19)
C91_8 C 0.6359(6) 0.6075(5) 0.5027(2)
C92_8 C 0.6387(5) 0.6414(4) 0.5278(2)
H71_8 H 0.6506 0.6239 0.5460
C93_8 C 0.6233(4) 0.7038(3) 0.52604(14)
C94_8 C 0.6210(4) 0.7305(4) 0.49730(18)
H72_8 H 0.6217 0.7730 0.4953
C95_8 C 0.6177(5) 0.6942(4) 0.47239(18)
C96_8 C 0.6183(2) 0.7436(3) 0.55343(10)
C97_8 C 0.5154(12) 0.6704(12) 0.4049(4)
H73_8 H 0.4818 0.6973 0.4097
H74_8 H 0.5485 0.6940 0.3965
H75_8 H 0.5021 0.6403 0.3905
C98_8 C 0.6512(13) 0.5160(10) 0.5293(4)
H76_6 H 0.6729 0.4815 0.5211
H77_8 H 0.6784 0.5396 0.5417
H78_8 H 0.6173 0.5016 0.5411
H79_8 H 0.393313 0.285089 0.450739
H80_8 H 0.606687 0.714911 0.450739
H76_7 H 0.1729 0.9815 0.0211
H53_7 H 0.8271 0.0185 0.0211
H53_8 H 0.0185 0.1729 0.9789
H76_8 H 0.9815 0.8271 0.9789
loop_
_geom_bond_atom_site_label_1
_geom_bond_atom_site_label_2
_geom_bond_site_symmetry_1
_geom_bond_site_symmetry_2
O8 Cd1 1_555 1_555
C18 C17 1_555 1_555
C22 C21 1_555 1_555
H14 C22 1_555 1_555
C23 C18 1_555 1_555
H15 C23 1_555 1_555
O11 C25 1_555 1_555
C25 C26 1_555 1_555
C29 C21 1_555 1_555
C30 C29 1_555 1_555
H20 C30 1_555 1_555
C31 C26 1_555 1_555
H21 C31 1_555 1_555
O14 Cd1 1_555 1_555
O8 C17 1_555 1_555
C22 C23 1_555 1_555
O11 Cd3 1_555 1_555
C30 C31 1_555 1_555
Cd1_2 O1 1_555 1_555
O3 C4 1_555 1_555
H1 C3 1_555 1_555
C4 C3 1_555 1_555
C8 O3 1_555 1_555
H4 C8 1_555 1_555
H5 C8 1_555 1_555
H6 C8 1_555 1_555
O6 C12 1_555 1_555
C11 H7 1_555 1_555
C12 C11 1_555 1_555
C16 O6 1_555 1_555
H10 C16 1_555 1_555
H11 C16 1_555 1_555
H12 C16 1_555 1_555
Cd3 O4 1_555 1_555
O16 Cd1_2 1_555 1_555
O7 Cd1_3 1_555 1_555
O9 C20 1_555 1_555
H13 C19 1_555 1_555
C20 C19 1_555 1_555
C24 O9 1_555 1_555
H16 C24 1_555 1_555
H17 C24 1_555 1_555
H18 C24 1_555 1_555
O12 C28 1_555 1_555
C27 H19 1_555 1_555
C28 C27 1_555 1_555
C32 O12 1_555 1_555
H22 C32 1_555 1_555
H23 C32 1_555 1_555
H24 C32 1_555 1_555
Cd3_2 O10 1_555 1_555
O15 Cd1_3 1_555 1_555
O2 Cd1_4 1_555 1_555
C1 O2 1_555 1_555
C2 C1 1_555 1_555
C6 C5 1_555 1_555
H2 C6 1_555 1_555
C7 C2 1_555 1_555
H3 C7 1_555 1_555
O5 C9 1_555 1_555
C9 C10 1_555 1_555
C13 C5 1_555 1_555
C14 C13 1_555 1_555
H8 C14 1_555 1_555
C15 C10 1_555 1_555
H9 C15 1_555 1_555
O13 Cd1_4 1_555 1_555
C6 C7 1_555 1_555
O5 Cd3_2 1_555 1_555
C14 C15 1_555 1_555
O9_2 C20_2 1_555 1_555
H13_2 C19_2 1_555 1_555
C20_2 C19_2 1_555 1_555
C24_2 O9_2 1_555 1_555
H16_2 C24_2 1_555 1_555
H17_2 C24_2 1_555 1_555
H18_2 C24_2 1_555 1_555
O12_2 C28_2 1_555 1_555
C27_2 H19_2 1_555 1_555
C28_2 C27_2 1_555 1_555
C32_2 O12_2 1_555 1_555
H22_2 C32_2 1_555 1_555
H23_2 C32_2 1_555 1_555
H24_2 C32_2 1_555 1_555
Cd3_3 O10_2 1_555 1_555
C18_2 C17_2 1_555 1_555
C22_2 C21_2 1_555 1_555
H14_2 C22_2 1_555 1_555
C23_2 C18_2 1_555 1_555
H15_2 C23_2 1_555 1_555
O11_2 C25_2 1_555 1_555
C25_2 C26_2 1_555 1_555
C29_2 C21_2 1_555 1_555
C30_2 C29_2 1_555 1_555
H20_2 C30_2 1_555 1_555
C31_2 C26_2 1_555 1_555
H21_2 C31_2 1_555 1_555
O16 C17_2 1_555 1_555
C22_2 C23_2 1_555 1_555
O11_2 Cd3_4 1_555 1_555
C30_2 C31_2 1_555 1_555
C1_2 O15 1_555 1_555
C2_2 C1_2 1_555 1_555
C6_2 C5_2 1_555 1_555
H2_2 C6_2 1_555 1_555
C7_2 C2_2 1_555 1_555
H3_2 C7_2 1_555 1_555
O5_2 C9_2 1_555 1_555
C9_2 C10_2 1_555 1_555
C13_2 C5_2 1_555 1_555
C14_2 C13_2 1_555 1_555
H8_2 C14_2 1_555 1_555
C15_2 C10_2 1_555 1_555
H9_2 C15_2 1_555 1_555
C6_2 C7_2 1_555 1_555
O5_2 Cd3_3 1_555 1_555
C14_2 C15_2 1_555 1_555
O3_2 C4_2 1_555 1_555
H1_2 C3_2 1_555 1_555
C4_2 C3_2 1_555 1_555
C8_2 O3_2 1_555 1_555
H4_2 C8_2 1_555 1_555
H5_2 C8_2 1_555 1_555
H6_2 C8_2 1_555 1_555
O6_2 C12_2 1_555 1_555
C11_2 H7_2 1_555 1_555
C12_2 C11_2 1_555 1_555
C16_2 O6_2 1_555 1_555
H10_2 C16_2 1_555 1_555
H11_2 C16_2 1_555 1_555
H12_2 C16_2 1_555 1_555
Cd3_4 O4_2 1_555 1_555
O7_2 Cd3_3 1_555 1_555
O8_2 Cd3_3 1_555 1_555
O9_3 C20_3 1_555 1_555
C17_3 O7_2 1_555 1_555
C18_3 C17_3 1_555 1_555
C19_3 C18_3 1_555 1_555
H13_3 C19_3 1_555 1_555
C20_3 C19_3 1_555 1_555
C21_3 C20_3 1_555 1_555
C22_3 C21_3 1_555 1_555
H14_3 C22_3 1_555 1_555
C23_3 C18_3 1_555 1_555
H15_3 C23_3 1_555 1_555
C24_3 O9_3 1_555 1_555
H16_3 C24_3 1_555 1_555
H17_3 C24_3 1_555 1_555
H18_3 C24_3 1_555 1_555
O10_3 C25_3 1_555 1_555
O11_3 C25_3 1_555 1_555
O12_3 C28_3 1_555 1_555
C25_3 C26_3 1_555 1_555
C26_3 C27_3 1_555 1_555
C27_3 H19_3 1_555 1_555
C28_3 C27_3 1_555 1_555
C29_3 C21_3 1_555 1_555
C30_3 C29_3 1_555 1_555
H20_3 C30_3 1_555 1_555
C31_3 C26_3 1_555 1_555
H21_3 C31_3 1_555 1_555
C32_3 O12_3 1_555 1_555
H22_3 C32_3 1_555 1_555
H23_3 C32_3 1_555 1_555
H24_3 C32_3 1_555 1_555
Cd3_5 O10_3 1_555 1_555
O8_2 C17_3 1_555 1_555
C22_3 C23_3 1_555 1_555
O11_3 Cd3_5 1_555 1_555
C28_3 C29_3 1_555 1_555
C30_3 C31_3 1_555 1_555
Cd3_4 O1_2 1_555 1_555
O1_2 C1_3 1_555 1_555
O2_2 Cd3_4 1_555 1_555
O3_3 C4_3 1_555 1_555
C1_3 O2_2 1_555 1_555
C2_3 C1_3 1_555 1_555
C3_3 C2_3 1_555 1_555
H1_3 C3_3 1_555 1_555
C4_3 C3_3 1_555 1_555
C5_3 C4_3 1_555 1_555
C6_3 C5_3 1_555 1_555
H2_3 C6_3 1_555 1_555
C7_3 C2_3 1_555 1_555
H3_3 C7_3 1_555 1_555
C8_3 O3_3 1_555 1_555
H4_3 C8_3 1_555 1_555
H5_3 C8_3 1_555 1_555
H6_3 C8_3 1_555 1_555
O4_3 C9_3 1_555 1_555
O5_3 C9_3 1_555 1_555
O6_3 C12_3 1_555 1_555
C9_3 C10_3 1_555 1_555
C10_3 C11_3 1_555 1_555
C11_3 H7_3 1_555 1_555
C12_3 C11_3 1_555 1_555
C13_3 C5_3 1_555 1_555
C14_3 C13_3 1_555 1_555
H8_3 C14_3 1_555 1_555
C15_3 C10_3 1_555 1_555
H9_3 C15_3 1_555 1_555
C16_3 O6_3 1_555 1_555
H10_3 C16_3 1_555 1_555
H11_3 C16_3 1_555 1_555
H12_3 C16_3 1_555 1_555
Cd3_5 O4_3 1_555 1_555
C6_3 C7_3 1_555 1_555
O5_3 Cd3_5 1_555 1_555
C12_3 C13_3 1_555 1_555
C14_3 C15_3 1_555 1_555
O13_2 Cd3_6 1_555 1_555
O14_2 Cd3_6 1_555 1_555
O15_2 Cd3_6 1_555 1_555
O16_2 Cd3_6 1_555 1_555
O13_2 C1_4 1_555 1_555
O3_4 C4_4 1_555 1_555
C1_4 O15_2 1_555 1_555
C2_4 C1_4 1_555 1_555
C3_4 C2_4 1_555 1_555
H1_4 C3_4 1_555 1_555
C4_4 C3_4 1_555 1_555
C5_4 C4_4 1_555 1_555
C6_4 C5_4 1_555 1_555
H2_4 C6_4 1_555 1_555
C7_4 C2_4 1_555 1_555
H3_4 C7_4 1_555 1_555
C8_4 O3_4 1_555 1_555
H4_4 C8_4 1_555 1_555
H5_4 C8_4 1_555 1_555
H6_4 C8_4 1_555 1_555
O4_4 C9_4 1_555 1_555
O5_4 C9_4 1_555 1_555
O6_4 C12_4 1_555 1_555
C9_4 C10_4 1_555 1_555
C10_4 C11_4 1_555 1_555
C11_4 H7_4 1_555 1_555
C12_4 C11_4 1_555 1_555
C13_4 C5_4 1_555 1_555
C14_4 C13_4 1_555 1_555
H8_4 C14_4 1_555 1_555
C15_4 C10_4 1_555 1_555
H9_4 C15_4 1_555 1_555
C16_4 O6_4 1_555 1_555
H10_4 C16_4 1_555 1_555
H11_4 C16_4 1_555 1_555
H12_4 C16_4 1_555 1_555
O9_4 C20_4 1_555 1_555
C17_4 O14_2 1_555 1_555
C18_4 C17_4 1_555 1_555
C19_4 C18_4 1_555 1_555
H13_4 C19_4 1_555 1_555
C20_4 C19_4 1_555 1_555
C21_4 C20_4 1_555 1_555
C22_4 C21_4 1_555 1_555
H14_4 C22_4 1_555 1_555
C23_4 C18_4 1_555 1_555
H15_4 C23_4 1_555 1_555
C24_4 O9_4 1_555 1_555
H16_4 C24_4 1_555 1_555
H17_4 C24_4 1_555 1_555
H18_4 C24_4 1_555 1_555
O10_4 C25_4 1_555 1_555
O11_4 C25_4 1_555 1_555
O12_4 C28_4 1_555 1_555
C25_4 C26_4 1_555 1_555
C26_4 C27_4 1_555 1_555
C27_4 H19_4 1_555 1_555
C28_4 C27_4 1_555 1_555
C29_4 C21_4 1_555 1_555
C30_4 C29_4 1_555 1_555
H20_4 C30_4 1_555 1_555
C31_4 C26_4 1_555 1_555
H21_4 C31_4 1_555 1_555
C32_4 O12_4 1_555 1_555
H22_4 C32_4 1_555 1_555
H23_4 C32_4 1_555 1_555
H24_4 C32_4 1_555 1_555
Cd3 O4_4 1_555 1_555
Cd3_2 O10_4 1_555 1_555
C6_4 C7_4 1_555 1_555
O5_4 Cd3 1_555 1_555
C12_4 C13_4 1_555 1_555
C14_4 C15_4 1_555 1_555
O16_2 C17_4 1_555 1_555
C22_4 C23_4 1_555 1_555
O11_4 Cd3_2 1_555 1_555
C28_4 C29_4 1_555 1_555
C30_4 C31_4 1_555 1_555
C33 H25 1_555 1_555
H26 C33 1_555 1_555
H27 C33 1_555 1_555
C34 H28 1_555 1_555
H29 C34 1_555 1_555
H30 C34 1_555 1_555
N1 C33 1_555 1_555
H31 N1 1_555 1_555
H32 N1 1_555 1_555
C34 N1 1_555 1_555
C33_2 H25_2 1_555 1_555
H26_2 C33_2 1_555 1_555
H27_2 C33_2 1_555 1_555
C34_2 H28_2 1_555 1_555
H29_2 C34_2 1_555 1_555
H30_2 C34_2 1_555 1_555
N1_2 C33_2 1_555 1_555
H31_2 N1_2 1_555 1_555
H32_2 N1_2 1_555 1_555
C34_2 N1_2 1_555 1_555
C33_3 H25_3 1_555 1_555
H26_3 C33_3 1_555 1_555
H27_3 C33_3 1_555 1_555
C34_3 H28_3 1_555 1_555
H29_3 C34_3 1_555 1_555
H30_3 C34_3 1_555 1_555
N1_3 C33_3 1_555 1_555
H31_3 N1_3 1_555 1_555
H32_3 N1_3 1_555 1_555
C34_3 N1_3 1_555 1_555
C33_4 H25_4 1_555 1_555
H26_4 C33_4 1_555 1_555
H27_4 C33_4 1_555 1_555
C34_4 H28_4 1_555 1_555
H29_4 C34_4 1_555 1_555
H30_4 C34_4 1_555 1_555
N1_4 C33_4 1_555 1_555
H31_4 N1_4 1_555 1_555
H32_4 N1_4 1_555 1_555
C34_4 N1_4 1_555 1_555
C33_5 H25_5 1_555 1_555
H26_5 C33_5 1_555 1_555
H27_5 C33_5 1_555 1_555
C34_5 H28_5 1_555 1_555
H29_5 C34_5 1_555 1_555
H30_5 C34_5 1_555 1_555
N1_5 C33_5 1_555 1_555
H31_5 N1_5 1_555 1_555
H32_5 N1_5 1_555 1_555
C34_5 N1_5 1_555 1_555
C33_6 H25_6 1_555 1_555
H26_6 C33_6 1_555 1_555
H27_6 C33_6 1_555 1_555
C34_6 H28_6 1_555 1_555
H29_6 C34_6 1_555 1_555
H30_6 C34_6 1_555 1_555
N1_6 C33_6 1_555 1_555
H31_6 N1_6 1_555 1_555
H32_6 N1_6 1_555 1_555
C34_6 N1_6 1_555 1_555
C34_7 H28_7 1_555 1_555
H29_7 C34_7 1_555 1_555
H30_7 C34_7 1_555 1_555
H31_7 N1_7 1_555 1_555
H32_7 N1_7 1_555 1_555
C34_7 N1_7 1_555 1_555
C33_7 H25_7 1_555 1_555
H26_7 C33_7 1_555 1_555
H27_7 C33_7 1_555 1_555
C33_8 H25_8 1_555 1_555
H26_8 C33_8 1_555 1_555
H27_8 C33_8 1_555 1_555
C34_8 H28_8 1_555 1_555
H29_8 C34_8 1_555 1_555
H30_8 C34_8 1_555 1_555
H31_8 N1_8 1_555 1_555
H32_8 N1_8 1_555 1_555
C34_8 N1_8 1_555 1_555
C33_9 H25_9 1_555 1_555
H26_9 C33_9 1_555 1_555
H27_9 C33_9 1_555 1_555
C34_9 H28_9 1_555 1_555
H29_9 C34_9 1_555 1_555
H30_9 C34_9 1_555 1_555
H31_9 N1_9 1_555 1_555
H32_9 N1_9 1_555 1_555
C34_9 N1_9 1_555 1_555
C34_10 H28_10 1_555 1_555
H29_10 C34_10 1_555 1_555
H30_10 C34_10 1_555 1_555
H31_10 N1_10 1_555 1_555
H32_10 N1_10 1_555 1_555
C34_10 N1_10 1_555 1_555
C33_10 H25_10 1_555 1_555
H26_10 C33_10 1_555 1_555
H27_10 C33_10 1_555 1_555
C33_11 H25_11 1_555 1_555
H26_11 C33_11 1_555 1_555
H27_11 C33_11 1_555 1_555
C34_11 H28_11 1_555 1_555
H29_11 C34_11 1_555 1_555
H30_11 C34_11 1_555 1_555
H31_11 N1_11 1_555 1_555
H32_11 N1_11 1_555 1_555
C34_11 N1_11 1_555 1_555
C34_12 H28_12 1_555 1_555
H29_12 C34_12 1_555 1_555
H30_12 C34_12 1_555 1_555
H31_12 N1_12 1_555 1_555
H32_12 N1_12 1_555 1_555
C34_12 N1_12 1_555 1_555
C33_12 H25_12 1_555 1_555
H26_12 C33_12 1_555 1_555
H27_12 C33_12 1_555 1_555
C33_13 H25_13 1_555 1_555
H26_13 C33_13 1_555 1_555
H27_13 C33_13 1_555 1_555
C34_13 H28_13 1_555 1_555
H29_13 C34_13 1_555 1_555
H30_13 C34_13 1_555 1_555
H31_13 N1_13 1_555 1_555
H32_13 N1_13 1_555 1_555
C34_13 N1_13 1_555 1_555
C34_14 H28_14 1_555 1_555
H29_14 C34_14 1_555 1_555
H30_14 C34_14 1_555 1_555
H31_14 N1_14 1_555 1_555
H32_14 N1_14 1_555 1_555
C34_14 N1_14 1_555 1_555
C33_14 H25_14 1_555 1_555
H26_14 C33_14 1_555 1_555
H27_14 C33_14 1_555 1_555
C33_15 H25_15 1_555 1_555
H26_15 C33_15 1_555 1_555
H27_15 C33_15 1_555 1_555
C34_15 H28_15 1_555 1_555
H29_15 C34_15 1_555 1_555
H30_15 C34_15 1_555 1_555
N1_15 C33_15 1_555 1_555
H31_15 N1_15 1_555 1_555
H32_15 N1_15 1_555 1_555
C34_15 N1_15 1_555 1_555
C33_16 H25_16 1_555 1_555
H26_16 C33_16 1_555 1_555
H27_16 C33_16 1_555 1_555
C34_16 H28_16 1_555 1_555
H29_16 C34_16 1_555 1_555
H30_16 C34_16 1_555 1_555
N1_16 C33_16 1_555 1_555
H31_16 N1_16 1_555 1_555
H32_16 N1_16 1_555 1_555
C34_16 N1_16 1_555 1_555
O25 C64 1_555 1_555
O26 C64 1_555 1_555
O27 C54 1_555 1_555
O28 C59 1_555 1_555
C53 C52 1_555 1_555
H45 C53 1_555 1_555
C54 C53 1_555 1_555
C55 C54 1_555 1_555
C56 C55 1_555 1_555
H46 C56 1_555 1_555
C57 C52 1_555 1_555
C58 C55 1_555 1_555
C59 C58 1_555 1_555
C60 C59 1_555 1_555
H48 C60 1_555 1_555
C61 C60 1_555 1_555
C62 C61 1_555 1_555
H49 C62 1_555 1_555
C63 C58 1_555 1_555
C64 C61 1_555 1_555
C65 O27 1_555 1_555
H50 C65 1_555 1_555
H51 C65 1_555 1_555
H52 C65 1_555 1_555
C66 O28 1_555 1_555
H54 C66 1_555 1_555
H55 C66 1_555 1_555
Cd6 O29 1_555 1_555
O29 Na1 1_555 1_555
O30 Cd6 1_555 1_555
O35 Na1 1_555 1_555
O36 Cd6 1_555 1_555
C67 O29 1_555 1_555
C68 C67 1_555 1_555
C73 C68 1_555 1_555
H58 C73 1_555 1_555
H63 C81 1_555 1_555
C83 O35 1_555 1_555
Cd9 O25 1_555 1_555
Cd11 O36 1_555 1_555
Cd14 O26 1_555 1_555
O42 Cd6 1_555 1_555
O45 Cd6 1_555 1_555
O48 Cd6 1_555 1_555
C56 C57 1_555 1_555
C62 C63 1_555 1_555
Cd6 O35 1_555 1_555
O30 C67 1_555 1_555
O36 C83 1_555 1_555
Cd11 O45 1_555 1_555
C63 H79 1_555 1_555
O31 C80 1_555 1_555
O32 C80 1_555 1_555
O33 C72 1_555 1_555
O34 C79 1_555 1_555
H56 C69 1_555 1_555
C70 C69 1_555 1_555
H57 C70 1_555 1_555
C71 C70 1_555 1_555
C72 C71 1_555 1_555
C74 C71 1_555 1_555
C75 C74 1_555 1_555
H59 C75 1_555 1_555
C76 C75 1_555 1_555
H60 C76 1_555 1_555
C77 C76 1_555 1_555
C78 C77 1_555 1_555
H61 C78 1_555 1_555
C79 C74 1_555 1_555
C80 C77 1_555 1_555
C82 O34 1_555 1_555
H65 C82 1_555 1_555
H66 C82 1_555 1_555
H67 C82 1_555 1_555
Cd8 O31 1_555 1_555
Cd13 O32 1_555 1_555
O32 Cd8 1_555 1_555
C78 C79 1_555 1_555
Cd4 O17 1_555 1_555
Cd5 O24 1_555 1_555
Na1_2 O17 1_555 1_555
O17 C35 1_555 1_555
O18 Cd4 1_555 1_555
O23 Cd4 1_555 1_555
O24 Cd4 1_555 1_555
C35 O18 1_555 1_555
C36 C35 1_555 1_555
C41 C36 1_555 1_555
H35 C41 1_555 1_555
H40 C49 1_555 1_555
C51 O23 1_555 1_555
O37 C96 1_555 1_555
O38 C96 1_555 1_555
O39 C86 1_555 1_555
O40 C91 1_555 1_555
C85 C84 1_555 1_555
H68 C85 1_555 1_555
C86 C85 1_555 1_555
C87 C86 1_555 1_555
C88 C87 1_555 1_555
H69 C88 1_555 1_555
C89 C84 1_555 1_555
C90 C87 1_555 1_555
C91 C90 1_555 1_555
C92 C91 1_555 1_555
H71 C92 1_555 1_555
C93 C92 1_555 1_555
C94 C93 1_555 1_555
H72 C94 1_555 1_555
C95 C90 1_555 1_555
C96 C93 1_555 1_555
C97 O39 1_555 1_555
H73 C97 1_555 1_555
H74 C97 1_555 1_555
H75 C97 1_555 1_555
C98 O40 1_555 1_555
H77 C98 1_555 1_555
H78 C98 1_555 1_555
Cd10 O37 1_555 1_555
Cd15 O38 1_555 1_555
O41 Cd4 1_555 1_555
O43 Cd5 1_555 1_555
O44 Cd4 1_555 1_555
O46 Cd5 1_555 1_555
O47 Cd4 1_555 1_555
O49 Cd5 1_555 1_555
O50 Cd5 1_555 1_555
Cd5 O44 1_555 1_555
Na1_2 O23 1_555 1_555
O24 C51 1_555 1_555
C88 C89 1_555 1_555
C94 C95 1_555 1_555
C95 H80 1_555 1_555
O19 C48 1_555 1_555
O20 C48 1_555 1_555
O21 C40 1_555 1_555
O22 C47 1_555 1_555
H33 C37 1_555 1_555
C38 C37 1_555 1_555
H34 C38 1_555 1_555
C39 C38 1_555 1_555
C40 C39 1_555 1_555
C42 C39 1_555 1_555
C43 C42 1_555 1_555
H36 C43 1_555 1_555
C44 C43 1_555 1_555
H37 C44 1_555 1_555
C45 C44 1_555 1_555
C46 C45 1_555 1_555
H38 C46 1_555 1_555
C47 C42 1_555 1_555
C48 C45 1_555 1_555
C50 O22 1_555 1_555
H42 C50 1_555 1_555
H43 C50 1_555 1_555
H44 C50 1_555 1_555
Cd7 O19 1_555 1_555
Cd12 O20 1_555 1_555
O20 Cd7 1_555 1_555
C46 C47 1_555 1_555
O43_2 Cd11 1_555 1_555
O46_2 Cd11 1_555 1_555
O49_2 Cd11 1_555 1_555
O50_2 Cd11 1_555 1_555
O19_2 C48_2 1_555 1_555
O43_2 C48_2 1_555 1_555
O21_2 C40_2 1_555 1_555
O22_2 C47_2 1_555 1_555
H33_2 C37_2 1_555 1_555
C38_2 C37_2 1_555 1_555
H34_2 C38_2 1_555 1_555
C39_2 C38_2 1_555 1_555
C40_2 C39_2 1_555 1_555
C42_2 C39_2 1_555 1_555
C43_2 C42_2 1_555 1_555
H36_2 C43_2 1_555 1_555
C44_2 C43_2 1_555 1_555
H37_2 C44_2 1_555 1_555
C45_2 C44_2 1_555 1_555
C46_2 C45_2 1_555 1_555
H38_2 C46_2 1_555 1_555
C47_2 C42_2 1_555 1_555
C48_2 C45_2 1_555 1_555
C50_2 O22_2 1_555 1_555
H42_2 C50_2 1_555 1_555
H43_2 C50_2 1_555 1_555
H44_2 C50_2 1_555 1_555
Cd7_2 O19_2 1_555 1_555
O43_2 Cd7_2 1_555 1_555
C46_2 C47_2 1_555 1_555
Cd4_2 O17_2 1_555 1_555
Cd12 O24_2 1_555 1_555
Na1_3 O17_2 1_555 1_555
O17_2 C35_2 1_555 1_555
O18_2 Cd4_2 1_555 1_555
O23_2 Cd4_2 1_555 1_555
O24_2 Cd4_2 1_555 1_555
C35_2 O18_2 1_555 1_555
C36_2 C35_2 1_555 1_555
C41_2 C36_2 1_555 1_555
H35_2 C41_2 1_555 1_555
H40_2 C49_2 1_555 1_555
C51_2 O23_2 1_555 1_555
O37_2 C96_2 1_555 1_555
O38_2 C96_2 1_555 1_555
O39_2 C86_2 1_555 1_555
O40_2 C91_2 1_555 1_555
C85_2 C84_2 1_555 1_555
H68_2 C85_2 1_555 1_555
C86_2 C85_2 1_555 1_555
C87_2 C86_2 1_555 1_555
C88_2 C87_2 1_555 1_555
H69_2 C88_2 1_555 1_555
C89_2 C84_2 1_555 1_555
C90_2 C87_2 1_555 1_555
C91_2 C90_2 1_555 1_555
C92_2 C91_2 1_555 1_555
H71_2 C92_2 1_555 1_555
C93_2 C92_2 1_555 1_555
C94_2 C93_2 1_555 1_555
H72_2 C94_2 1_555 1_555
C95_2 C90_2 1_555 1_555
C96_2 C93_2 1_555 1_555
C97_2 O39_2 1_555 1_555
H73_2 C97_2 1_555 1_555
H74_2 C97_2 1_555 1_555
H75_2 C97_2 1_555 1_555
C98_2 O40_2 1_555 1_555
H77_2 C98_2 1_555 1_555
H78_2 C98_2 1_555 1_555
Cd10_2 O37_2 1_555 1_555
Cd15_2 O38_2 1_555 1_555
O41_2 Cd4_2 1_555 1_555
O44_2 Cd4_2 1_555 1_555
O46_3 Cd12 1_555 1_555
O47_2 Cd4_2 1_555 1_555
O49_3 Cd12 1_555 1_555
O50_3 Cd12 1_555 1_555
Cd12 O44_2 1_555 1_555
Na1_3 O23_2 1_555 1_555
O24_2 C51_2 1_555 1_555
C88_2 C89_2 1_555 1_555
C94_2 C95_2 1_555 1_555
C95_2 H80_2 1_555 1_555
O31_2 C80_2 1_555 1_555
O43 C80_2 1_555 1_555
O33_2 C72_2 1_555 1_555
O34_2 C79_2 1_555 1_555
H56_2 C69_2 1_555 1_555
C70_2 C69_2 1_555 1_555
H57_2 C70_2 1_555 1_555
C71_2 C70_2 1_555 1_555
C72_2 C71_2 1_555 1_555
C74_2 C71_2 1_555 1_555
C75_2 C74_2 1_555 1_555
H59_2 C75_2 1_555 1_555
C76_2 C75_2 1_555 1_555
H60_2 C76_2 1_555 1_555
C77_2 C76_2 1_555 1_555
C78_2 C77_2 1_555 1_555
H61_2 C78_2 1_555 1_555
C79_2 C74_2 1_555 1_555
C80_2 C77_2 1_555 1_555
C82_2 O34_2 1_555 1_555
H65_2 C82_2 1_555 1_555
H66_2 C82_2 1_555 1_555
H67_2 C82_2 1_555 1_555
Cd8_2 O31_2 1_555 1_555
O43 Cd8_2 1_555 1_555
C78_2 C79_2 1_555 1_555
O25_2 C64_2 1_555 1_555
O26_2 C64_2 1_555 1_555
O27_2 C54_2 1_555 1_555
O28_2 C59_2 1_555 1_555
C53_2 C52_2 1_555 1_555
H45_2 C53_2 1_555 1_555
C54_2 C53_2 1_555 1_555
C55_2 C54_2 1_555 1_555
C56_2 C55_2 1_555 1_555
H46_2 C56_2 1_555 1_555
C57_2 C52_2 1_555 1_555
C58_2 C55_2 1_555 1_555
C59_2 C58_2 1_555 1_555
C60_2 C59_2 1_555 1_555
H48_2 C60_2 1_555 1_555
C61_2 C60_2 1_555 1_555
C62_2 C61_2 1_555 1_555
H49_2 C62_2 1_555 1_555
C63_2 C58_2 1_555 1_555
C64_2 C61_2 1_555 1_555
C65_2 O27_2 1_555 1_555
H50_2 C65_2 1_555 1_555
H51_2 C65_2 1_555 1_555
H52_2 C65_2 1_555 1_555
C66_2 O28_2 1_555 1_555
H54_2 C66_2 1_555 1_555
H55_2 C66_2 1_555 1_555
Cd6_2 O29_2 1_555 1_555
O29_2 Na1_4 1_555 1_555
O30_2 Cd6_2 1_555 1_555
O35_2 Na1_4 1_555 1_555
O36_2 Cd6_2 1_555 1_555
C67_2 O29_2 1_555 1_555
C68_2 C67_2 1_555 1_555
C73_2 C68_2 1_555 1_555
H58_2 C73_2 1_555 1_555
H63_2 C81_2 1_555 1_555
C83_2 O35_2 1_555 1_555
Cd9_2 O25_2 1_555 1_555
Cd13 O36_2 1_555 1_555
Cd14_2 O26_2 1_555 1_555
O42_2 Cd6_2 1_555 1_555
O45_2 Cd6_2 1_555 1_555
O48_2 Cd6_2 1_555 1_555
C56_2 C57_2 1_555 1_555
C62_2 C63_2 1_555 1_555
Cd6_2 O35_2 1_555 1_555
O30_2 C67_2 1_555 1_555
O36_2 C83_2 1_555 1_555
Cd13 O45_2 1_555 1_555
C63_2 H79_2 1_555 1_555
O46_4 Cd13 1_555 1_555
O49_4 Cd13 1_555 1_555
O50_4 Cd13 1_555 1_555
Cd9_2 O17_3 1_555 1_555
Cd14_2 O24_3 1_555 1_555
Na1_5 O17_3 1_555 1_555
O17_3 C35_3 1_555 1_555
O18_3 Cd9_2 1_555 1_555
O41_2 C48_3 1_555 1_555
O44_2 C48_3 1_555 1_555
O21_3 C40_3 1_555 1_555
O22_3 C47_3 1_555 1_555
O23_3 Cd9_2 1_555 1_555
O24_3 Cd9_2 1_555 1_555
O25_3 C64_3 1_555 1_555
O26_3 C64_3 1_555 1_555
O27_3 C54_3 1_555 1_555
O28_3 C59_3 1_555 1_555
C35_3 O18_3 1_555 1_555
C36_3 C35_3 1_555 1_555
C37_3 C36_3 1_555 1_555
H33_3 C37_3 1_555 1_555
C38_3 C37_3 1_555 1_555
H34_3 C38_3 1_555 1_555
C39_3 C38_3 1_555 1_555
C40_3 C39_3 1_555 1_555
C41_3 C36_3 1_555 1_555
H35_3 C41_3 1_555 1_555
C42_3 C39_3 1_555 1_555
C43_3 C42_3 1_555 1_555
H36_3 C43_3 1_555 1_555
C44_3 C43_3 1_555 1_555
H37_3 C44_3 1_555 1_555
C45_3 C44_3 1_555 1_555
C46_3 C45_3 1_555 1_555
H38_3 C46_3 1_555 1_555
C47_3 C42_3 1_555 1_555
C48_3 C45_3 1_555 1_555
C49_3 O21_3 1_555 1_555
H39_3 C49_3 1_555 1_555
H40_3 C49_3 1_555 1_555
H41_3 C49_3 1_555 1_555
C50_3 O22_3 1_555 1_555
H42_3 C50_3 1_555 1_555
H43_3 C50_3 1_555 1_555
H44_3 C50_3 1_555 1_555
C51_3 O23_3 1_555 1_555
C52_3 C51_3 1_555 1_555
C53_3 C52_3 1_555 1_555
H45_3 C53_3 1_555 1_555
C54_3 C53_3 1_555 1_555
C55_3 C54_3 1_555 1_555
C56_3 C55_3 1_555 1_555
H46_3 C56_3 1_555 1_555
C57_3 C52_3 1_555 1_555
H47_3 C57_3 1_555 1_555
C58_3 C55_3 1_555 1_555
C59_3 C58_3 1_555 1_555
C60_3 C59_3 1_555 1_555
H48_3 C60_3 1_555 1_555
C61_3 C60_3 1_555 1_555
C62_3 C61_3 1_555 1_555
H49_3 C62_3 1_555 1_555
C63_3 C58_3 1_555 1_555
C64_3 C61_3 1_555 1_555
C65_3 O27_3 1_555 1_555
H50_3 C65_3 1_555 1_555
H51_3 C65_3 1_555 1_555
H52_3 C65_3 1_555 1_555
C66_3 O28_3 1_555 1_555
H53_3 C66_3 1_555 1_555
H54_3 C66_3 1_555 1_555
H55_3 C66_3 1_555 1_555
Cd10_2 O29_3 1_555 1_555
O29_3 Na1_5 1_555 1_555
O30_3 Cd10_2 1_555 1_555
O42_2 C80_3 1_555 1_555
O45_2 C80_3 1_555 1_555
O33_3 C72_3 1_555 1_555
O34_3 C79_3 1_555 1_555
O35_3 Na1_5 1_555 1_555
O36_3 Cd10_2 1_555 1_555
O37_3 C96_3 1_555 1_555
O38_3 C96_3 1_555 1_555
O39_3 C86_3 1_555 1_555
O40_3 C91_3 1_555 1_555
C67_3 O29_3 1_555 1_555
C68_3 C67_3 1_555 1_555
C69_3 C68_3 1_555 1_555
H56_3 C69_3 1_555 1_555
C70_3 C69_3 1_555 1_555
H57_3 C70_3 1_555 1_555
C71_3 C70_3 1_555 1_555
C72_3 C71_3 1_555 1_555
C73_3 C68_3 1_555 1_555
H58_3 C73_3 1_555 1_555
C74_3 C71_3 1_555 1_555
C75_3 C74_3 1_555 1_555
H59_3 C75_3 1_555 1_555
C76_3 C75_3 1_555 1_555
H60_3 C76_3 1_555 1_555
C77_3 C76_3 1_555 1_555
C78_3 C77_3 1_555 1_555
H61_3 C78_3 1_555 1_555
C79_3 C74_3 1_555 1_555
C80_3 C77_3 1_555 1_555
C81_3 O33_3 1_555 1_555
H62_3 C81_3 1_555 1_555
H63_3 C81_3 1_555 1_555
H64_3 C81_3 1_555 1_555
C82_3 O34_3 1_555 1_555
H65_3 C82_3 1_555 1_555
H66_3 C82_3 1_555 1_555
H67_3 C82_3 1_555 1_555
C83_3 O35_3 1_555 1_555
C84_3 C83_3 1_555 1_555
C85_3 C84_3 1_555 1_555
H68_3 C85_3 1_555 1_555
C86_3 C85_3 1_555 1_555
C87_3 C86_3 1_555 1_555
C88_3 C87_3 1_555 1_555
H69_3 C88_3 1_555 1_555
C89_3 C84_3 1_555 1_555
H70_3 C89_3 1_555 1_555
C90_3 C87_3 1_555 1_555
C91_3 C90_3 1_555 1_555
C92_3 C91_3 1_555 1_555
H71_3 C92_3 1_555 1_555
C93_3 C92_3 1_555 1_555
C94_3 C93_3 1_555 1_555
H72_3 C94_3 1_555 1_555
C95_3 C90_3 1_555 1_555
C96_3 C93_3 1_555 1_555
C97_3 O39_3 1_555 1_555
H73_3 C97_3 1_555 1_555
H74_3 C97_3 1_555 1_555
H75_3 C97_3 1_555 1_555
C98_3 O40_3 1_555 1_555
H76_3 C98_3 1_555 1_555
H77_3 C98_3 1_555 1_555
H78_3 C98_3 1_555 1_555
Cd9_3 O25_3 1_555 1_555
Cd10_3 O37_3 1_555 1_555
Cd15_2 O36_3 1_555 1_555
Cd14 O26_3 1_555 1_555
Cd15 O38_3 1_555 1_555
O41_3 Cd9_2 1_555 1_555
O42_3 Cd10_2 1_555 1_555
O43_3 Cd14_2 1_555 1_555
O44_3 Cd9_2 1_555 1_555
O45_3 Cd10_2 1_555 1_555
O46_5 Cd14_2 1_555 1_555
O50_5 Cd14_2 1_555 1_555
Cd14_2 O44_3 1_555 1_555
Na1_5 O23_3 1_555 1_555
O24_3 C51_3 1_555 1_555
C40_3 C41_3 1_555 1_555
C46_3 C47_3 1_555 1_555
C56_3 C57_3 1_555 1_555
C62_3 C63_3 1_555 1_555
Cd10_2 O35_3 1_555 1_555
O30_3 C67_3 1_555 1_555
O36_3 C83_3 1_555 1_555
C72_3 C73_3 1_555 1_555
C78_3 C79_3 1_555 1_555
C88_3 C89_3 1_555 1_555
C94_3 C95_3 1_555 1_555
Cd15_2 O45_3 1_555 1_555
C63_3 H79_3 1_555 1_555
C95_3 H80_3 1_555 1_555
O43_4 Cd15_2 1_555 1_555
O46_6 Cd15_2 1_555 1_555
O50_6 Cd15_2 1_555 1_555
O48 C96_4 1_555 1_555
O49_2 C96_4 1_555 1_555
O40_4 C91_4 1_555 1_555
C92_4 C91_4 1_555 1_555
H71_4 C92_4 1_555 1_555
C93_4 C92_4 1_555 1_555
C96_4 C93_4 1_555 1_555
C98_4 O40_4 1_555 1_555
H77_4 C98_4 1_555 1_555
H78_4 C98_4 1_555 1_555
O19_3 C48_4 1_555 1_555
O43_4 C48_4 1_555 1_555
O21_4 C40_4 1_555 1_555
O22_4 C47_4 1_555 1_555
C37_4 C36_4 1_555 1_555
C38_4 C37_4 1_555 1_555
H34_4 C38_4 1_555 1_555
C39_4 C38_4 1_555 1_555
C40_4 C39_4 1_555 1_555
C41_4 C36_4 1_555 1_555
H35_4 C41_4 1_555 1_555
C42_4 C39_4 1_555 1_555
C43_4 C42_4 1_555 1_555
H36_4 C43_4 1_555 1_555
C44_4 C43_4 1_555 1_555
H37_4 C44_4 1_555 1_555
C45_4 C44_4 1_555 1_555
C46_4 C45_4 1_555 1_555
H38_4 C46_4 1_555 1_555
C47_4 C42_4 1_555 1_555
C48_4 C45_4 1_555 1_555
C49_4 O21_4 1_555 1_555
H40_4 C49_4 1_555 1_555
C50_4 O22_4 1_555 1_555
H42_4 C50_4 1_555 1_555
H43_4 C50_4 1_555 1_555
H44_4 C50_4 1_555 1_555
O39_4 C86_4 1_555 1_555
C85_4 C84_4 1_555 1_555
H68_4 C85_4 1_555 1_555
C86_4 C85_4 1_555 1_555
C87_4 C86_4 1_555 1_555
C88_4 C87_4 1_555 1_555
H69_4 C88_4 1_555 1_555
C89_4 C84_4 1_555 1_555
C90_4 C87_4 1_555 1_555
H72_4 C94_4 1_555 1_555
C95_4 C90_4 1_555 1_555
C97_4 O39_4 1_555 1_555
H74_4 C97_4 1_555 1_555
H75_4 C97_4 1_555 1_555
Cd7_3 O19_3 1_555 1_555
O43_4 Cd7_3 1_555 1_555
C40_4 C41_4 1_555 1_555
C46_4 C47_4 1_555 1_555
C88_4 C89_4 1_555 1_555
C94_4 C95_4 1_555 1_555
C95_4 H80_4 1_555 1_555
Cd8 O29_4 1_555 1_555
O29_4 Na1_7 1_555 1_555
O30_4 Cd8 1_555 1_555
O35_4 Na1_7 1_555 1_555
O46_4 Cd8 1_555 1_555
C67_4 O29_4 1_555 1_555
C83_4 O35_4 1_555 1_555
O48_3 Cd8 1_555 1_555
Cd8 O35_4 1_555 1_555
O30_4 C67_4 1_555 1_555
O46_4 C83_4 1_555 1_555
Cd7 O17_4 1_555 1_555
Na1_8 O17_4 1_555 1_555
O17_4 C35_4 1_555 1_555
O18_4 Cd7 1_555 1_555
O23_4 Cd7 1_555 1_555
O46_3 Cd7 1_555 1_555
C35_4 O18_4 1_555 1_555
C51_4 O23_4 1_555 1_555
O47_3 Cd7 1_555 1_555
Na1_8 O23_4 1_555 1_555
O46_3 C51_4 1_555 1_555
O47 C64_4 1_555 1_555
O49 C64_4 1_555 1_555
O28_4 C59_4 1_555 1_555
C60_4 C59_4 1_555 1_555
H48_4 C60_4 1_555 1_555
C61_4 C60_4 1_555 1_555
C64_4 C61_4 1_555 1_555
C66_4 O28_4 1_555 1_555
H54_4 C66_4 1_555 1_555
H55_4 C66_4 1_555 1_555
O27_4 C54_4 1_555 1_555
C53_4 C52_4 1_555 1_555
H45_4 C53_4 1_555 1_555
C54_4 C53_4 1_555 1_555
C55_4 C54_4 1_555 1_555
C56_4 C55_4 1_555 1_555
H46_4 C56_4 1_555 1_555
C57_4 C52_4 1_555 1_555
C58_4 C55_4 1_555 1_555
H49_4 C62_4 1_555 1_555
C63_4 C58_4 1_555 1_555
C65_4 O27_4 1_555 1_555
H51_4 C65_4 1_555 1_555
H52_4 C65_4 1_555 1_555
O31_3 C80_4 1_555 1_555
O43_3 C80_4 1_555 1_555
O33_4 C72_4 1_555 1_555
O34_4 C79_4 1_555 1_555
C69_4 C68_4 1_555 1_555
C70_4 C69_4 1_555 1_555
H57_4 C70_4 1_555 1_555
C71_4 C70_4 1_555 1_555
C72_4 C71_4 1_555 1_555
C73_4 C68_4 1_555 1_555
H58_4 C73_4 1_555 1_555
C74_4 C71_4 1_555 1_555
C75_4 C74_4 1_555 1_555
H59_4 C75_4 1_555 1_555
C76_4 C75_4 1_555 1_555
H60_4 C76_4 1_555 1_555
C77_4 C76_4 1_555 1_555
C78_4 C77_4 1_555 1_555
H61_4 C78_4 1_555 1_555
C79_4 C74_4 1_555 1_555
C80_4 C77_4 1_555 1_555
C81_4 O33_4 1_555 1_555
H63_4 C81_4 1_555 1_555
C82_4 O34_4 1_555 1_555
H65_4 C82_4 1_555 1_555
H66_4 C82_4 1_555 1_555
H67_4 C82_4 1_555 1_555
Cd8_3 O31_3 1_555 1_555
C56_4 C57_4 1_555 1_555
C62_4 C63_4 1_555 1_555
O43_3 Cd8_3 1_555 1_555
C72_4 C73_4 1_555 1_555
C78_4 C79_4 1_555 1_555
C63_4 H79_4 1_555 1_555
Cd7_3 O17_5 1_555 1_555
Na1_10 O17_5 1_555 1_555
O17_5 C35_5 1_555 1_555
O18_5 Cd7_3 1_555 1_555
O23_5 Cd7_3 1_555 1_555
O46_6 Cd7_3 1_555 1_555
O47_3 C64_5 1_555 1_555
O50_3 C64_5 1_555 1_555
O27_5 C54_5 1_555 1_555
O28_5 C59_5 1_555 1_555
C35_5 O18_5 1_555 1_555
C51_5 O23_5 1_555 1_555
C52_5 C51_5 1_555 1_555
C53_5 C52_5 1_555 1_555
H45_5 C53_5 1_555 1_555
C54_5 C53_5 1_555 1_555
C55_5 C54_5 1_555 1_555
C56_5 C55_5 1_555 1_555
H46_5 C56_5 1_555 1_555
C57_5 C52_5 1_555 1_555
H47_5 C57_5 1_555 1_555
C58_5 C55_5 1_555 1_555
C59_5 C58_5 1_555 1_555
C60_5 C59_5 1_555 1_555
H48_5 C60_5 1_555 1_555
C61_5 C60_5 1_555 1_555
C62_5 C61_5 1_555 1_555
H49_5 C62_5 1_555 1_555
C63_5 C58_5 1_555 1_555
C64_5 C61_5 1_555 1_555
C65_5 O27_5 1_555 1_555
H51_5 C65_5 1_555 1_555
H52_5 C65_5 1_555 1_555
C66_5 O28_5 1_555 1_555
H53_4 C66_5 1_555 1_555
H54_5 C66_5 1_555 1_555
H55_5 C66_5 1_555 1_555
O31_4 C80_5 1_555 1_555
O32_2 C80_5 1_555 1_555
O33_5 C72_5 1_555 1_555
O34_5 C79_5 1_555 1_555
C69_5 C68_5 1_555 1_555
C70_5 C69_5 1_555 1_555
H57_5 C70_5 1_555 1_555
C71_5 C70_5 1_555 1_555
C72_5 C71_5 1_555 1_555
C73_5 C68_5 1_555 1_555
H58_5 C73_5 1_555 1_555
C74_5 C71_5 1_555 1_555
C75_5 C74_5 1_555 1_555
H59_5 C75_5 1_555 1_555
C76_5 C75_5 1_555 1_555
H60_5 C76_5 1_555 1_555
C77_5 C76_5 1_555 1_555
C78_5 C77_5 1_555 1_555
H61_5 C78_5 1_555 1_555
C79_5 C74_5 1_555 1_555
C80_5 C77_5 1_555 1_555
C81_5 O33_5 1_555 1_555
H62_5 C81_5 1_555 1_555
H63_5 C81_5 1_555 1_555
H64_5 C81_5 1_555 1_555
C82_5 O34_5 1_555 1_555
H65_5 C82_5 1_555 1_555
H66_5 C82_5 1_555 1_555
H67_5 C82_5 1_555 1_555
Cd10 O31_4 1_555 1_555
Cd15 O32_2 1_555 1_555
O47_4 Cd7_3 1_555 1_555
Na1_10 O23_5 1_555 1_555
O46_6 C51_5 1_555 1_555
C56_5 C57_5 1_555 1_555
C62_5 C63_5 1_555 1_555
O32_2 Cd10 1_555 1_555
C72_5 C73_5 1_555 1_555
C78_5 C79_5 1_555 1_555
C63_5 H79_5 1_555 1_555
O19_4 C48_5 1_555 1_555
O20_2 C48_5 1_555 1_555
O21_5 C40_5 1_555 1_555
O22_5 C47_5 1_555 1_555
C37_5 C36_5 1_555 1_555
C38_5 C37_5 1_555 1_555
H34_5 C38_5 1_555 1_555
C39_5 C38_5 1_555 1_555
C40_5 C39_5 1_555 1_555
C41_5 C36_5 1_555 1_555
H35_5 C41_5 1_555 1_555
C42_5 C39_5 1_555 1_555
C43_5 C42_5 1_555 1_555
H36_5 C43_5 1_555 1_555
C44_5 C43_5 1_555 1_555
H37_5 C44_5 1_555 1_555
C45_5 C44_5 1_555 1_555
C46_5 C45_5 1_555 1_555
H38_5 C46_5 1_555 1_555
C47_5 C42_5 1_555 1_555
C48_5 C45_5 1_555 1_555
C49_5 O21_5 1_555 1_555
H39_5 C49_5 1_555 1_555
H40_5 C49_5 1_555 1_555
H41_5 C49_5 1_555 1_555
C50_5 O22_5 1_555 1_555
H42_5 C50_5 1_555 1_555
H43_5 C50_5 1_555 1_555
H44_5 C50_5 1_555 1_555
Cd8_3 O29_5 1_555 1_555
O29_5 Na1_11 1_555 1_555
O30_5 Cd8_3 1_555 1_555
O35_5 Na1_11 1_555 1_555
O46_5 Cd8_3 1_555 1_555
O48_3 C96_5 1_555 1_555
O50_4 C96_5 1_555 1_555
O39_5 C86_5 1_555 1_555
O40_5 C91_5 1_555 1_555
C67_5 O29_5 1_555 1_555
C83_5 O35_5 1_555 1_555
C84_5 C83_5 1_555 1_555
C85_5 C84_5 1_555 1_555
H68_5 C85_5 1_555 1_555
C86_5 C85_5 1_555 1_555
C87_5 C86_5 1_555 1_555
C88_5 C87_5 1_555 1_555
H69_5 C88_5 1_555 1_555
C89_5 C84_5 1_555 1_555
H70_5 C89_5 1_555 1_555
C90_5 C87_5 1_555 1_555
C91_5 C90_5 1_555 1_555
C92_5 C91_5 1_555 1_555
H71_5 C92_5 1_555 1_555
C93_5 C92_5 1_555 1_555
C94_5 C93_5 1_555 1_555
H72_5 C94_5 1_555 1_555
C95_5 C90_5 1_555 1_555
C96_5 C93_5 1_555 1_555
C97_5 O39_5 1_555 1_555
H74_5 C97_5 1_555 1_555
H75_5 C97_5 1_555 1_555
C98_5 O40_5 1_555 1_555
H76_4 C98_5 1_555 1_555
H77_5 C98_5 1_555 1_555
H78_5 C98_5 1_555 1_555
Cd9 O19_4 1_555 1_555
Cd14 O20_2 1_555 1_555
O48_4 Cd8_3 1_555 1_555
O20_2 Cd9 1_555 1_555
C40_5 C41_5 1_555 1_555
C46_5 C47_5 1_555 1_555
Cd8_3 O35_5 1_555 1_555
O30_5 C67_5 1_555 1_555
O46_5 C83_5 1_555 1_555
C88_5 C89_5 1_555 1_555
C94_5 C95_5 1_555 1_555
C95_5 H80_5 1_555 1_555
Cd9_3 O17_6 1_555 1_555
Cd14 O24_4 1_555 1_555
Na1_12 O17_6 1_555 1_555
O17_6 C35_6 1_555 1_555
O18_6 Cd9_3 1_555 1_555
O23_6 Cd9_3 1_555 1_555
O24_4 Cd9_3 1_555 1_555
O25_4 C64_6 1_555 1_555
O50_2 C64_6 1_555 1_555
O27_6 C54_6 1_555 1_555
O28_6 C59_6 1_555 1_555
C35_6 O18_6 1_555 1_555
C51_6 O23_6 1_555 1_555
C52_6 C51_6 1_555 1_555
C53_6 C52_6 1_555 1_555
H45_6 C53_6 1_555 1_555
C54_6 C53_6 1_555 1_555
C55_6 C54_6 1_555 1_555
C56_6 C55_6 1_555 1_555
H46_6 C56_6 1_555 1_555
C57_6 C52_6 1_555 1_555
H47_6 C57_6 1_555 1_555
C58_6 C55_6 1_555 1_555
C59_6 C58_6 1_555 1_555
C60_6 C59_6 1_555 1_555
H48_6 C60_6 1_555 1_555
C61_6 C60_6 1_555 1_555
C62_6 C61_6 1_555 1_555
H49_6 C62_6 1_555 1_555
C63_6 C58_6 1_555 1_555
C64_6 C61_6 1_555 1_555
C65_6 O27_6 1_555 1_555
H51_6 C65_6 1_555 1_555
H52_6 C65_6 1_555 1_555
C66_6 O28_6 1_555 1_555
H53_5 C66_6 1_555 1_555
H54_6 C66_6 1_555 1_555
H55_6 C66_6 1_555 1_555
O42_3 C80_6 1_555 1_555
O45_3 C80_6 1_555 1_555
O33_6 C72_6 1_555 1_555
O34_6 C79_6 1_555 1_555
C69_6 C68_6 1_555 1_555
C70_6 C69_6 1_555 1_555
H57_6 C70_6 1_555 1_555
C71_6 C70_6 1_555 1_555
C72_6 C71_6 1_555 1_555
C73_6 C68_6 1_555 1_555
H58_6 C73_6 1_555 1_555
C74_6 C71_6 1_555 1_555
C75_6 C74_6 1_555 1_555
H59_6 C75_6 1_555 1_555
C76_6 C75_6 1_555 1_555
H60_6 C76_6 1_555 1_555
C77_6 C76_6 1_555 1_555
C78_6 C77_6 1_555 1_555
H61_6 C78_6 1_555 1_555
C79_6 C74_6 1_555 1_555
C80_6 C77_6 1_555 1_555
C81_6 O33_6 1_555 1_555
H62_6 C81_6 1_555 1_555
H63_6 C81_6 1_555 1_555
H64_6 C81_6 1_555 1_555
C82_6 O34_6 1_555 1_555
H65_6 C82_6 1_555 1_555
H66_6 C82_6 1_555 1_555
H67_6 C82_6 1_555 1_555
Cd7_2 O25_4 1_555 1_555
O41_4 Cd9_3 1_555 1_555
O44_4 Cd9_3 1_555 1_555
O46_7 Cd14 1_555 1_555
Cd14 O44_4 1_555 1_555
Na1_12 O23_6 1_555 1_555
O24_4 C51_6 1_555 1_555
C56_6 C57_6 1_555 1_555
C62_6 C63_6 1_555 1_555
C72_6 C73_6 1_555 1_555
C78_6 C79_6 1_555 1_555
C63_6 H79_6 1_555 1_555
O41_3 C48_6 1_555 1_555
O44_3 C48_6 1_555 1_555
O21_6 C40_6 1_555 1_555
O22_6 C47_6 1_555 1_555
C37_6 C36_6 1_555 1_555
C38_6 C37_6 1_555 1_555
H34_6 C38_6 1_555 1_555
C39_6 C38_6 1_555 1_555
C40_6 C39_6 1_555 1_555
C41_6 C36_6 1_555 1_555
H35_6 C41_6 1_555 1_555
C42_6 C39_6 1_555 1_555
C43_6 C42_6 1_555 1_555
H36_6 C43_6 1_555 1_555
C44_6 C43_6 1_555 1_555
H37_6 C44_6 1_555 1_555
C45_6 C44_6 1_555 1_555
C46_6 C45_6 1_555 1_555
H38_6 C46_6 1_555 1_555
C47_6 C42_6 1_555 1_555
C48_6 C45_6 1_555 1_555
C49_6 O21_6 1_555 1_555
H39_6 C49_6 1_555 1_555
H40_6 C49_6 1_555 1_555
H41_6 C49_6 1_555 1_555
C50_6 O22_6 1_555 1_555
H42_6 C50_6 1_555 1_555
H43_6 C50_6 1_555 1_555
H44_6 C50_6 1_555 1_555
Cd10_3 O29_6 1_555 1_555
O29_6 Na1_13 1_555 1_555
O30_6 Cd10_3 1_555 1_555
O35_6 Na1_13 1_555 1_555
O36_4 Cd10_3 1_555 1_555
O37_4 C96_6 1_555 1_555
O50 C96_6 1_555 1_555
O39_6 C86_6 1_555 1_555
O40_6 C91_6 1_555 1_555
C67_6 O29_6 1_555 1_555
C83_6 O35_6 1_555 1_555
C84_6 C83_6 1_555 1_555
C85_6 C84_6 1_555 1_555
H68_6 C85_6 1_555 1_555
C86_6 C85_6 1_555 1_555
C87_6 C86_6 1_555 1_555
C88_6 C87_6 1_555 1_555
H69_6 C88_6 1_555 1_555
C89_6 C84_6 1_555 1_555
H70_6 C89_6 1_555 1_555
C90_6 C87_6 1_555 1_555
C91_6 C90_6 1_555 1_555
C92_6 C91_6 1_555 1_555
H71_6 C92_6 1_555 1_555
C93_6 C92_6 1_555 1_555
C94_6 C93_6 1_555 1_555
H72_6 C94_6 1_555 1_555
C95_6 C90_6 1_555 1_555
C96_6 C93_6 1_555 1_555
C97_6 O39_6 1_555 1_555
H74_6 C97_6 1_555 1_555
H75_6 C97_6 1_555 1_555
C98_6 O40_6 1_555 1_555
H76_5 C98_6 1_555 1_555
H77_6 C98_6 1_555 1_555
H78_6 C98_6 1_555 1_555
Cd8_2 O37_4 1_555 1_555
Cd15 O36_4 1_555 1_555
O42_4 Cd10_3 1_555 1_555
O45_4 Cd10_3 1_555 1_555
C40_6 C41_6 1_555 1_555
C46_6 C47_6 1_555 1_555
Cd10_3 O35_6 1_555 1_555
O30_6 C67_6 1_555 1_555
O36_4 C83_6 1_555 1_555
C88_6 C89_6 1_555 1_555
C94_6 C95_6 1_555 1_555
Cd15 O45_4 1_555 1_555
C95_6 H80_6 1_555 1_555
O46_8 Cd15 1_555 1_555
Cd7_2 O17_7 1_555 1_555
Na1_14 O17_7 1_555 1_555
O17_7 C35_7 1_555 1_555
O18_7 Cd7_2 1_555 1_555
O23_7 Cd7_2 1_555 1_555
O46_2 Cd7_2 1_555 1_555
C35_7 O18_7 1_555 1_555
C51_7 O23_7 1_555 1_555
Na1_14 O23_7 1_555 1_555
O46_2 C51_7 1_555 1_555
O41_4 C48_7 1_555 1_555
O44_4 C48_7 1_555 1_555
O21_7 C40_7 1_555 1_555
O22_7 C47_7 1_555 1_555
C37_7 C36_7 1_555 1_555
C38_7 C37_7 1_555 1_555
H34_7 C38_7 1_555 1_555
C39_7 C38_7 1_555 1_555
C40_7 C39_7 1_555 1_555
C41_7 C36_7 1_555 1_555
H35_7 C41_7 1_555 1_555
C42_7 C39_7 1_555 1_555
C43_7 C42_7 1_555 1_555
H36_7 C43_7 1_555 1_555
C44_7 C43_7 1_555 1_555
H37_7 C44_7 1_555 1_555
C45_7 C44_7 1_555 1_555
C46_7 C45_7 1_555 1_555
H38_7 C46_7 1_555 1_555
C47_7 C42_7 1_555 1_555
C48_7 C45_7 1_555 1_555
C49_7 O21_7 1_555 1_555
H40_7 C49_7 1_555 1_555
C50_7 O22_7 1_555 1_555
H42_7 C50_7 1_555 1_555
H43_7 C50_7 1_555 1_555
H44_7 C50_7 1_555 1_555
O39_7 C86_7 1_555 1_555
C85_7 C84_7 1_555 1_555
H68_7 C85_7 1_555 1_555
C86_7 C85_7 1_555 1_555
C87_7 C86_7 1_555 1_555
C88_7 C87_7 1_555 1_555
H69_7 C88_7 1_555 1_555
C89_7 C84_7 1_555 1_555
C90_7 C87_7 1_555 1_555
H72_7 C94_7 1_555 1_555
C95_7 C90_7 1_555 1_555
C97_7 O39_7 1_555 1_555
H74_7 C97_7 1_555 1_555
H75_7 C97_7 1_555 1_555
C40_7 C41_7 1_555 1_555
C46_7 C47_7 1_555 1_555
C88_7 C89_7 1_555 1_555
C94_7 C95_7 1_555 1_555
C95_7 H80_7 1_555 1_555
O48_2 C96_7 1_555 1_555
O49_4 C96_7 1_555 1_555
O40_7 C91_7 1_555 1_555
C92_7 C91_7 1_555 1_555
H71_7 C92_7 1_555 1_555
C93_7 C92_7 1_555 1_555
C96_7 C93_7 1_555 1_555
C98_7 O40_7 1_555 1_555
H77_7 C98_7 1_555 1_555
H78_7 C98_7 1_555 1_555
O27_7 C54_7 1_555 1_555
C53_7 C52_7 1_555 1_555
H45_7 C53_7 1_555 1_555
C54_7 C53_7 1_555 1_555
C55_7 C54_7 1_555 1_555
C56_7 C55_7 1_555 1_555
H46_7 C56_7 1_555 1_555
C57_7 C52_7 1_555 1_555
C58_7 C55_7 1_555 1_555
H49_7 C62_7 1_555 1_555
C63_7 C58_7 1_555 1_555
C65_7 O27_7 1_555 1_555
H51_7 C65_7 1_555 1_555
H52_7 C65_7 1_555 1_555
O42_4 C80_7 1_555 1_555
O45_4 C80_7 1_555 1_555
O33_7 C72_7 1_555 1_555
O34_7 C79_7 1_555 1_555
C69_7 C68_7 1_555 1_555
C70_7 C69_7 1_555 1_555
H57_7 C70_7 1_555 1_555
C71_7 C70_7 1_555 1_555
C72_7 C71_7 1_555 1_555
C73_7 C68_7 1_555 1_555
H58_7 C73_7 1_555 1_555
C74_7 C71_7 1_555 1_555
C75_7 C74_7 1_555 1_555
H59_7 C75_7 1_555 1_555
C76_7 C75_7 1_555 1_555
H60_7 C76_7 1_555 1_555
C77_7 C76_7 1_555 1_555
C78_7 C77_7 1_555 1_555
H61_7 C78_7 1_555 1_555
C79_7 C74_7 1_555 1_555
C80_7 C77_7 1_555 1_555
C81_7 O33_7 1_555 1_555
H63_7 C81_7 1_555 1_555
C82_7 O34_7 1_555 1_555
H65_7 C82_7 1_555 1_555
H66_7 C82_7 1_555 1_555
H67_7 C82_7 1_555 1_555
C56_7 C57_7 1_555 1_555
C62_7 C63_7 1_555 1_555
C72_7 C73_7 1_555 1_555
C78_7 C79_7 1_555 1_555
C63_7 H79_7 1_555 1_555
O47_2 C64_7 1_555 1_555
O49_3 C64_7 1_555 1_555
O28_7 C59_7 1_555 1_555
C60_7 C59_7 1_555 1_555
H48_7 C60_7 1_555 1_555
C61_7 C60_7 1_555 1_555
C64_7 C61_7 1_555 1_555
C66_7 O28_7 1_555 1_555
H54_7 C66_7 1_555 1_555
H55_7 C66_7 1_555 1_555
Cd8_2 O29_7 1_555 1_555
O29_7 Na1_17 1_555 1_555
O30_7 Cd8_2 1_555 1_555
O35_7 Na1_17 1_555 1_555
O46 Cd8_2 1_555 1_555
C67_7 O29_7 1_555 1_555
C83_7 O35_7 1_555 1_555
Cd8_2 O35_7 1_555 1_555
O30_7 C67_7 1_555 1_555
O46 C83_7 1_555 1_555
Cd9 O17_8 1_555 1_555
Na1_18 O17_8 1_555 1_555
O17_8 C35_8 1_555 1_555
O18_8 Cd9 1_555 1_555
O41 C48_8 1_555 1_555
O44 C48_8 1_555 1_555
O21_8 C40_8 1_555 1_555
O22_8 C47_8 1_555 1_555
O23_8 Cd9 1_555 1_555
O46_7 Cd9 1_555 1_555
O47_4 C64_8 1_555 1_555
O50_6 C64_8 1_555 1_555
O27_8 C54_8 1_555 1_555
O28_8 C59_8 1_555 1_555
C35_8 O18_8 1_555 1_555
C36_8 C35_8 1_555 1_555
C37_8 C36_8 1_555 1_555
H33_8 C37_8 1_555 1_555
C38_8 C37_8 1_555 1_555
H34_8 C38_8 1_555 1_555
C39_8 C38_8 1_555 1_555
C40_8 C39_8 1_555 1_555
C41_8 C36_8 1_555 1_555
H35_8 C41_8 1_555 1_555
C42_8 C39_8 1_555 1_555
C43_8 C42_8 1_555 1_555
H36_8 C43_8 1_555 1_555
C44_8 C43_8 1_555 1_555
H37_8 C44_8 1_555 1_555
C45_8 C44_8 1_555 1_555
C46_8 C45_8 1_555 1_555
H38_8 C46_8 1_555 1_555
C47_8 C42_8 1_555 1_555
C48_8 C45_8 1_555 1_555
C49_8 O21_8 1_555 1_555
H39_8 C49_8 1_555 1_555
H40_8 C49_8 1_555 1_555
H41_8 C49_8 1_555 1_555
C50_8 O22_8 1_555 1_555
H42_8 C50_8 1_555 1_555
H43_8 C50_8 1_555 1_555
H44_8 C50_8 1_555 1_555
C51_8 O23_8 1_555 1_555
C52_8 C51_8 1_555 1_555
C53_8 C52_8 1_555 1_555
H45_8 C53_8 1_555 1_555
C54_8 C53_8 1_555 1_555
C55_8 C54_8 1_555 1_555
C56_8 C55_8 1_555 1_555
H46_8 C56_8 1_555 1_555
C57_8 C52_8 1_555 1_555
H47_8 C57_8 1_555 1_555
C58_8 C55_8 1_555 1_555
C59_8 C58_8 1_555 1_555
C60_8 C59_8 1_555 1_555
H48_8 C60_8 1_555 1_555
C61_8 C60_8 1_555 1_555
C62_8 C61_8 1_555 1_555
H49_8 C62_8 1_555 1_555
C63_8 C58_8 1_555 1_555
C64_8 C61_8 1_555 1_555
C65_8 O27_8 1_555 1_555
H50_8 C65_8 1_555 1_555
H51_8 C65_8 1_555 1_555
H52_8 C65_8 1_555 1_555
C66_8 O28_8 1_555 1_555
H53_6 C66_8 1_555 1_555
H54_8 C66_8 1_555 1_555
H55_8 C66_8 1_555 1_555
Cd10 O29_8 1_555 1_555
O29_8 Na1_18 1_555 1_555
O30_8 Cd10 1_555 1_555
O42 C80_8 1_555 1_555
O45 C80_8 1_555 1_555
O33_8 C72_8 1_555 1_555
O34_8 C79_8 1_555 1_555
O35_8 Na1_18 1_555 1_555
O46_8 Cd10 1_555 1_555
O48_4 C96_8 1_555 1_555
O50_5 C96_8 1_555 1_555
O39_8 C86_8 1_555 1_555
O40_8 C91_8 1_555 1_555
C67_8 O29_8 1_555 1_555
C68_8 C67_8 1_555 1_555
C69_8 C68_8 1_555 1_555
H56_8 C69_8 1_555 1_555
C70_8 C69_8 1_555 1_555
H57_8 C70_8 1_555 1_555
C71_8 C70_8 1_555 1_555
C72_8 C71_8 1_555 1_555
C73_8 C68_8 1_555 1_555
H58_8 C73_8 1_555 1_555
C74_8 C71_8 1_555 1_555
C75_8 C74_8 1_555 1_555
H59_8 C75_8 1_555 1_555
C76_8 C75_8 1_555 1_555
H60_8 C76_8 1_555 1_555
C77_8 C76_8 1_555 1_555
C78_8 C77_8 1_555 1_555
H61_8 C78_8 1_555 1_555
C79_8 C74_8 1_555 1_555
C80_8 C77_8 1_555 1_555
C81_8 O33_8 1_555 1_555
H62_8 C81_8 1_555 1_555
H63_8 C81_8 1_555 1_555
H64_8 C81_8 1_555 1_555
C82_8 O34_8 1_555 1_555
H65_8 C82_8 1_555 1_555
H66_8 C82_8 1_555 1_555
H67_8 C82_8 1_555 1_555
C83_8 O35_8 1_555 1_555
C84_8 C83_8 1_555 1_555
C85_8 C84_8 1_555 1_555
H68_8 C85_8 1_555 1_555
C86_8 C85_8 1_555 1_555
C87_8 C86_8 1_555 1_555
C88_8 C87_8 1_555 1_555
H69_8 C88_8 1_555 1_555
C89_8 C84_8 1_555 1_555
H70_8 C89_8 1_555 1_555
C90_8 C87_8 1_555 1_555
C91_8 C90_8 1_555 1_555
C92_8 C91_8 1_555 1_555
H71_8 C92_8 1_555 1_555
C93_8 C92_8 1_555 1_555
C94_8 C93_8 1_555 1_555
H72_8 C94_8 1_555 1_555
C95_8 C90_8 1_555 1_555
C96_8 C93_8 1_555 1_555
C97_8 O39_8 1_555 1_555
H73_8 C97_8 1_555 1_555
H74_8 C97_8 1_555 1_555
H75_8 C97_8 1_555 1_555
C98_8 O40_8 1_555 1_555
H76_6 C98_8 1_555 1_555
H77_8 C98_8 1_555 1_555
H78_8 C98_8 1_555 1_555
Na1_18 O23_8 1_555 1_555
O46_7 C51_8 1_555 1_555
C40_8 C41_8 1_555 1_555
C46_8 C47_8 1_555 1_555
C56_8 C57_8 1_555 1_555
C62_8 C63_8 1_555 1_555
Cd10 O35_8 1_555 1_555
O30_8 C67_8 1_555 1_555
O46_8 C83_8 1_555 1_555
C72_8 C73_8 1_555 1_555
C78_8 C79_8 1_555 1_555
C88_8 C89_8 1_555 1_555
C94_8 C95_8 1_555 1_555
C63_8 H79_8 1_555 1_555
C95_8 H80_8 1_555 1_555

#END
