
###############################################################################
#
# This file contains modified crystal structure data generated from the
# MOF subset of the Cambridge Structural Database (CSD) v543 
# hosted by the Cambridge Crystallographic Data Centre (CCDC).
#
# This work is licensed under the Creative Commons
# Attribution-NonCommercial-ShareAlike 4.0 International License.
# To view a copy of this license, visit
# http://creativecommons.org/licenses/by-nc-sa/4.0/
# or send a letter to
# Creative Commons, PO Box 1866, Mountain View, CA 94042, USA.
#
# CIF created using the CSD Python API on 29 September 2022
# The structure has been converted into the P1 space group
# The structure has a 3D framework
# The original CSD entry RIWSUM is in the monoclinic crystal system
# The original CSD entry RIWSUM is in a Sohncke space group
# The framework has been calculated to contain at least 10.0% void space
# The void calculation uses a probe of radius 1.32A, grid spacing 0.4
# H atom positions have been added when not included in the experimental data
#
###############################################################################

data_RIWSUM
_chemical_formula_moiety         '(C176 H224 Cd16 N16 O120)n'
_symmetry_cell_setting           triclinic
_symmetry_space_group_name_H-M   'P 1'
_symmetry_Int_Tables_number      1
_space_group_name_Hall           'P 1'
loop_
_symmetry_equiv_pos_site_id
_symmetry_equiv_pos_as_xyz
1 x,y,z
_cell_length_a                   16.7039(11)
_cell_length_b                   14.0024(9)
_cell_length_c                   26.8224(17)
_cell_angle_alpha                90
_cell_angle_beta                 91.1650(10)
_cell_angle_gamma                90
_cell_volume                     6272.32
loop_
_atom_site_label
_atom_site_type_symbol
_atom_site_fract_x
_atom_site_fract_y
_atom_site_fract_z
H44 H 0.0197 0.0012 0.3530
O43 O 0.2794(2) 0.3415(2) 0.5883(3)
O44 O 0.32955(16) 0.52937(17) 0.68031(9)
O45 O 0.45615(15) 0.5152(2) 0.66208(10)
N5 N 0.27904(18) 0.4988(2) 0.58191(11)
H69 H 0.2511 0.5514 0.5770
C47 C 0.0388(2) 0.3108(3) 0.55508(15)
H70 H 0.0147 0.2495 0.5569
C48 C 0.1190(3) 0.3219(3) 0.56795(16)
H71 H 0.1494 0.2685 0.5793
C49 C 0.1553(2) 0.4112(3) 0.56429(15)
C50 C 0.1097(2) 0.4888(3) 0.54924(14)
H72 H 0.1340 0.5500 0.5472
C51 C 0.0295(2) 0.4786(3) 0.53715(15)
C52 C 0.2423(2) 0.4153(3) 0.57862(18)
C53 C 0.3645(2) 0.5065(3) 0.59342(13)
H74 H 0.3914 0.4474 0.5812
C54 C 0.4001(2) 0.5921(3) 0.56683(15)
H75 H 0.3854 0.5895 0.5313
H76 H 0.4585 0.5908 0.5708
H77 H 0.3793 0.6511 0.5813
C55 C 0.3824(2) 0.5163(2) 0.64949(13)
Cd9 Cd 0.440160(15) 0.552370(18) 0.745090(9)
O53 O 0.25386(17) 0.7668(2) 0.88106(11)
O54 O 0.44153(15) 0.5943(2) 0.82650(10)
O55 O 0.31471(15) 0.57040(18) 0.80646(9)
N7 N 0.26580(18) 0.6127(2) 0.90428(12)
H87 H 0.2414 0.5606 0.9143
C69 C 0.0170(2) 0.6290(3) 0.94801(14)
C70 C 0.0954(2) 0.6178(3) 0.93129(14)
H89 H 0.1173 0.5556 0.9276
C71 C 0.1409(2) 0.6975(3) 0.92020(14)
C72 C 0.1084(3) 0.7885(3) 0.92771(17)
H90 H 0.1394 0.8436 0.9206
C73 C 0.0318(2) 0.7990(3) 0.94531(16)
H91 H 0.0107 0.8612 0.9505
C74 C 0.2238(2) 0.6938(3) 0.90024(14)
C75 C 0.3504(2) 0.6076(3) 0.89269(14)
H92 H 0.3757 0.6697 0.9025
C76 C 0.3913(2) 0.5284(3) 0.92338(14)
H93 H 0.3745 0.5327 0.9581
H94 H 0.4496 0.5360 0.9220
H95 H 0.3761 0.4660 0.9097
C77 C 0.3678(2) 0.5900(2) 0.83774(13)
O21 O 0.45027(17) 0.71178(19) 0.73080(11)
O22 O 0.57553(16) 0.66192(18) 0.72902(10)
C1 C 0.5238(2) 0.7264(3) 0.72459(13)
C2 C 0.5484(2) 0.8260(3) 0.71064(15)
C3 C 0.4939(3) 0.8848(3) 0.6872(2)
H34 H 0.4410 0.8625 0.6807
C4 C 0.5152(3) 0.9760(3) 0.6730(2)
C6 C 0.6462(2) 0.9536(3) 0.70834(14)
H36 H 0.6981 0.9774 0.7165
C7 C 0.6257(2) 0.8597(3) 0.72047(13)
H37 H 0.6645 0.8187 0.7355
O27 O 0.92674(17) 0.65402(17) 0.26834(10)
C12 C 0.9766(2) 0.7200(3) 0.27446(13)
C13 C 0.9500(2) 0.8158(2) 0.29280(13)
C15 C 0.9825(2) 0.9634(2) 0.33442(14)
C16 C 0.9066(2) 0.9992(2) 0.32345(13)
C17 C 0.8509(2) 0.9410(2) 0.29826(13)
H45 H 0.7985 0.9642 0.2912
C18 C 0.8721(2) 0.8491(2) 0.28354(13)
H46 H 0.8337 0.8091 0.2673
O31 O 0.93794(16) 0.43484(17) 0.22980(10)
H51 H 0.7889 0.0044 0.1729
C23 C 0.9911(2) 0.3709(2) 0.22740(13)
C24 C 0.9676(2) 0.2694(2) 0.21671(13)
C25 C 0.8886(2) 0.2389(2) 0.22224(13)
H52 H 0.8495 0.2819 0.2343
C26 C 0.8670(2) 0.1459(2) 0.21018(13)
H53 H 0.8134 0.1254 0.2146
C27 C 0.9230(2) 0.0827(2) 0.19175(13)
O61 O 0.55542(16) 0.44457(18) 0.76580(10)
O62 O 0.43266(17) 0.38835(19) 0.76000(11)
H60 H 0.7169 0.0159 0.8329
C34 C 0.5054(2) 0.3773(3) 0.76926(15)
C35 C 0.5334(2) 0.2797(3) 0.78551(16)
C36 C 0.4782(3) 0.2155(3) 0.8046(2)
H61 H 0.4235 0.2333 0.8067
C37 C 0.5025(3) 0.1260(4) 0.8205(2)
H62 H 0.4644 0.0825 0.8334
C38 C 0.5822(2) 0.0994(3) 0.81782(15)
C39 C 0.6375(2) 0.1623(3) 0.79799(14)
H63 H 0.6918 0.1434 0.7948
C40 C 0.6135(2) 0.2524(3) 0.78288(14)
H64 H 0.6519 0.2961 0.7706
Cd3 Cd 0.057520(15) 0.550790(17) 0.247060(9)
O26 O 0.04988(16) 0.70994(18) 0.26520(10)
C14 C 0.0045(2) 0.8734(3) 0.31866(14)
H43 H 0.0572 0.8507 0.3255
O32 O 0.06433(16) 0.38915(18) 0.23318(10)
C28 C 0.0018(2) 0.1124(2) 0.18664(15)
H54 H 0.0405 0.0693 0.1743
C29 C 0.0241(2) 0.2051(3) 0.19960(15)
H55 H 0.0783 0.2245 0.1967
O46 O 0.61573(16) 0.2935(2) 0.48766(10)
O47 O 0.64270(17) 0.4448(2) 0.47318(11)
O48 O 0.23266(18) 0.34647(19) 0.38896(12)
O49 O 0.17314(16) 0.53590(18) 0.31181(10)
O50 O 0.04722(15) 0.50836(19) 0.32966(10)
N6 N 0.22492(19) 0.5014(2) 0.41067(12)
H78 H 0.2506 0.5532 0.4206
C56 C 0.5947(2) 0.3760(3) 0.47444(13)
C57 C 0.5081(2) 0.3908(3) 0.45939(13)
C58 C 0.4610(2) 0.3118(3) 0.44846(15)
H79 H 0.4827 0.2494 0.4521
C59 C 0.3825(2) 0.3235(3) 0.43234(16)
H80 H 0.3507 0.2689 0.4247
C60 C 0.3495(2) 0.4143(3) 0.42723(14)
C61 C 0.3959(2) 0.4927(3) 0.43932(15)
H81 H 0.3734 0.5549 0.4372
C62 C 0.4755(2) 0.4814(3) 0.45453(15)
H82 H 0.5075 0.5359 0.4616
C63 C 0.2649(2) 0.4192(3) 0.40737(15)
C64 C 0.1397(2) 0.5075(3) 0.39822(14)
H83 H 0.1132 0.4483 0.4107
C65 C 0.1024(2) 0.5936(3) 0.42446(14)
H84 H 0.1170 0.5920 0.4600
H85 H 0.0440 0.5910 0.4204
H86 H 0.1224 0.6527 0.4097
C66 C 0.1206(2) 0.5164(2) 0.34226(13)
Cd12 Cd 0.749720(14) 0.30952(2) 0.501300(9)
O67 O 0.05253(15) 0.5826(2) 0.16476(10)
Cd5 Cd 0.688490(16) 0.497320(17) 0.618700(10)
Cd6 Cd 0.814280(18) 0.485140(19) 0.376920(11)
O1 O 0.6871(2) 0.6500(2) 0.65455(12)
H1 H 0.658(3) 0.663(4) 0.677(2)
O2 O 0.6712(4) 0.5757(3) 0.54610(14)
H2 H 0.701(5) 0.615(5) 0.535(3)
H3 H 0.665(5) 0.541(6) 0.527(3)
O3 O 0.5652(2) 0.4479(3) 0.60337(16)
H4 H 0.532(4) 0.480(5) 0.611(2)
H5 H 0.548(4) 0.391(5) 0.600(2)
O4 O 0.68224(19) 0.4562(2) 0.70041(11)
H6 H 0.712(3) 0.472(4) 0.715(2)
H7 H 0.645(3) 0.458(4) 0.721(2)
O5 O 0.82209(18) 0.5071(2) 0.62023(12)
H8 H 0.841(3) 0.561(4) 0.627(2)
H9 H 0.840(3) 0.499(4) 0.591(2)
O6 O 0.8191(3) 0.6398(3) 0.34372(15)
H10 H 0.854(5) 0.651(6) 0.323(3)
O7 O 0.8120(2) 0.4440(2) 0.29537(12)
H11 H 0.847(3) 0.446(4) 0.275(2)
H12 H 0.785(3) 0.470(4) 0.284(2)
O8 O 0.6806(2) 0.5030(3) 0.37858(14)
H13 H 0.665(4) 0.487(4) 0.414(2)
H14 H 0.664(4) 0.546(5) 0.376(2)
O9 O 0.8330(5) 0.5640(4) 0.44923(14)
O10 O 0.9383(3) 0.4317(5) 0.3842(3)
H15 H 0.956(6) 0.407(8) 0.383(5)
O23 O 0.54926(16) 0.1673(2) 0.65903(12)
O24 O 0.71922(15) 0.34638(16) 0.58554(9)
O25 O 0.72081(16) 0.19297(17) 0.56847(10)
N1 N 0.68228(18) 0.1415(2) 0.66618(11)
H33 H 0.7209 0.0996 0.6713
H35 H 0.4776 0.0146 0.6552
C5 C 0.5907(3) 0.0118(3) 0.68440(15)
C8 C 0.6070(2) 0.1132(3) 0.66904(14)
C9 C 0.7030(2) 0.2402(2) 0.65480(13)
H38 H 0.6597 0.2829 0.6671
C10 C 0.7817(2) 0.2660(3) 0.68226(14)
H39 H 0.7742 0.2613 0.7183
H40 H 0.7971 0.3313 0.6737
H41 H 0.8238 0.2216 0.6723
C11 C 0.7139(2) 0.2594(2) 0.59919(14)
O28 O 0.94749(15) 0.15366(17) 0.34982(10)
O29 O 0.78342(16) 0.34203(17) 0.41623(10)
O30 O 0.77781(15) 0.19002(17) 0.43608(9)
N2 N 0.81467(17) 0.1307(2) 0.33939(11)
H42 H 0.7755 0.0896 0.3343
C19 C 0.8901(2) 0.1005(2) 0.33843(13)
C20 C 0.7956(2) 0.2306(2) 0.34878(13)
H47 H 0.8391 0.2714 0.3351
C21 C 0.7162(2) 0.2560(3) 0.32202(15)
H48 H 0.7215 0.2465 0.2860
H49 H 0.7029 0.3230 0.3286
H50 H 0.6735 0.2149 0.3344
C22 C 0.7861(2) 0.2540(2) 0.40423(13)
O41 O 0.88361(16) 0.2911(2) 0.51538(11)
O42 O 0.85910(17) 0.4443(2) 0.52645(11)
C45 C 0.9060(2) 0.3745(3) 0.52653(14)
C46 C 0.9932(2) 0.3886(3) 0.53959(14)
H73 H 0.9988 0.5327 0.5272
H105 H 0.829(9) 0.564(10) 0.464(4)
H106 H 0.673716 0.695205 0.6271
H110 H 0.809077 0.626637 0.440012
H111 H 0.949402 0.449973 0.419438
H112 H 0.827671 0.684673 0.371995
Cd4 Cd 0.748820(14) 0.801740(19) 0.002420(8)
Cd7 Cd 0.810100(17) 0.60439(2) 0.121000(10)
O11 O 0.8183(2) 0.4495(2) 0.15560(12)
H16 H 0.861(3) 0.444(4) 0.178(2)
H17 H 0.774(3) 0.388(4) 0.1519(19)
O12 O 0.9294(2) 0.6702(3) 0.12603(19)
H18 H 0.951(4) 0.629(5) 0.125(3)
H19 H 0.931(4) 0.682(5) 0.094(2)
O13 O 0.8440(2) 0.5366(2) 0.04812(12)
H20 H 0.852(4) 0.576(4) 0.026(2)
H21 H 0.819(4) 0.505(4) 0.035(2)
O14 O 0.67796(19) 0.5777(3) 0.11289(12)
H22 H 0.670(4) 0.593(4) 0.092(2)
O15 O 0.7955(2) 0.6403(3) 0.20262(12)
H23 H 0.815(4) 0.640(6) 0.215(3)
H24 H 0.757(3) 0.606(4) 0.218(2)
O33 O 0.95684(15) 0.92617(18) 0.16441(10)
O34 O 0.78300(15) 0.75869(16) 0.08593(9)
O35 O 0.78381(15) 0.91349(17) 0.07001(9)
N3 N 0.82562(18) 0.9601(2) 0.16877(11)
C30 C 0.9029(2) 0.9836(2) 0.17441(13)
C31 C 0.8005(2) 0.8631(2) 0.15602(13)
H56 H 0.8407 0.8170 0.1701
C32 C 0.7201(2) 0.8435(3) 0.17907(14)
H57 H 0.7234 0.8567 0.2149
H58 H 0.7055 0.7764 0.1737
H59 H 0.6793 0.8847 0.1635
C33 C 0.7905(2) 0.8452(2) 0.09999(13)
O56 O 0.64187(15) 0.67338(19) 0.02765(10)
O57 O 0.61390(16) 0.82596(18) 0.01790(10)
O58 O 0.21734(18) 0.7701(2) 0.06732(12)
O60 O 0.18071(16) 0.58118(19) 0.18405(10)
N8 N 0.22479(18) 0.6141(2) 0.08640(12)
H96 H 0.2548 0.5626 0.0887
C78 C 0.5937(2) 0.7421(3) 0.02887(13)
C79 C 0.5080(2) 0.7252(3) 0.04300(13)
C80 C 0.4736(2) 0.6345(3) 0.04008(14)
H97 H 0.5050 0.5812 0.0306
C81 C 0.3927(2) 0.6221(3) 0.05104(15)
H98 H 0.3693 0.5603 0.0495
C82 C 0.3468(2) 0.7001(3) 0.06421(15)
C83 C 0.3825(2) 0.7901(3) 0.06891(15)
H99 H 0.3516 0.8432 0.0793
C84 C 0.4624(2) 0.8019(3) 0.05854(15)
H100 H 0.4864 0.8631 0.0621
C85 C 0.2585(2) 0.6955(3) 0.07325(15)
C86 C 0.1404(2) 0.6062(3) 0.09722(14)
H101 H 0.1145 0.6681 0.0877
C87 C 0.1001(3) 0.5274(3) 0.06596(15)
H102 H 0.1110 0.5378 0.0306
H103 H 0.0421 0.5290 0.0710
H104 H 0.1213 0.4651 0.0763
C88 C 0.1254(2) 0.5896(2) 0.15276(14)
H109 H 0.647938 0.61295 0.138635
Cd8 Cd 0.678700(17) 0.623340(19) 0.877090(10)
O16 O 0.6517(2) 0.4725(2) 0.84842(12)
H25 H 0.698(3) 0.439(4) 0.843(2)
H26 H 0.624(3) 0.461(4) 0.815(2)
O17 O 0.6507(2) 0.5528(2) 0.95071(11)
H27 H 0.675(4) 0.510(4) 0.960(2)
H28 H 0.650(4) 0.585(4) 0.975(2)
O18 O 0.81141(19) 0.5889(2) 0.88368(13)
H29 H 0.821(3) 0.602(4) 0.915(2)
H30 H 0.811(3) 0.546(4) 0.884(2)
O19 O 0.7039(2) 0.6551(2) 0.79540(12)
H31 H 0.740(3) 0.622(4) 0.783(2)
H32 H 0.683(4) 0.645(5) 0.785(2)
O20 O 0.55828(18) 0.6910(2) 0.86862(14)
O38 O 0.54830(16) 0.94426(19) 0.84743(11)
O39 O 0.70996(15) 0.76619(16) 0.91789(9)
O40 O 0.71825(16) 0.91941(17) 0.93582(9)
N4 N 0.67930(18) 0.9732(2) 0.83798(11)
C41 C 0.6027(2) 0.9995(3) 0.83540(13)
C42 C 0.7020(2) 0.8742(2) 0.84921(13)
H65 H 0.6612 0.8304 0.8337
C43 C 0.7829(2) 0.8527(3) 0.82737(14)
H66 H 0.7816 0.8681 0.7917
H67 H 0.7953 0.7849 0.8319
H68 H 0.8240 0.8914 0.8444
C44 C 0.7083(2) 0.8535(2) 0.90491(13)
O51 O 0.88126(16) 0.81673(19) 0.98597(10)
O52 O 0.85356(15) 0.66455(19) 0.97368(10)
C67 C 0.9015(2) 0.7344(3) 0.97287(13)
C68 C 0.9853(2) 0.7195(3) 0.95544(13)
H88 H 0.9852 0.5742 0.9543
H107 H 0.519225 0.655679 0.889084
H108 H 0.561245 0.758431 0.879971
O1_2 O 0.3129(2) 0.1500(2) 0.34545(12)
H1_2 H 0.342(3) 0.163(4) 0.323(2)
O2_2 O 0.3288(4) 0.0757(3) 0.45390(14)
H2_2 H 0.299(5) 0.115(5) 0.465(3)
H3_2 H 0.335(5) 0.041(6) 0.473(3)
O5_2 O 0.17791(18) 0.0071(2) 0.37977(12)
H8_2 H 0.159(3) 0.061(4) 0.373(2)
O6_2 O 0.1809(3) 0.1398(3) 0.65628(15)
H10_2 H 0.146(5) 0.151(6) 0.677(3)
O8_2 O 0.3194(2) 0.0030(3) 0.62142(14)
H14_2 H 0.336(4) 0.046(5) 0.624(2)
O9_2 O 0.1670(5) 0.0640(4) 0.55077(14)
H73_2 H 0.0012 0.0327 0.4728
H105_2 H 0.171(9) 0.064(10) 0.536(4)
H106_2 H 0.326284 0.195205 0.3729
H110_2 H 0.190923 0.126637 0.559988
H112_2 H 0.172329 0.184673 0.628005
Cd11 Cd 0.559840(15) 0.052370(18) 0.254910(9)
Cd2 Cd 0.250280(14) 0.80952(2) 0.498700(9)
Cd5_2 Cd 0.311510(16) 0.997320(17) 0.381300(10)
Cd6_2 Cd 0.185720(18) 0.985140(19) 0.623080(11)
O3_2 O 0.4348(2) 0.9479(3) 0.39663(16)
H4_2 H 0.468(4) 0.980(5) 0.389(2)
H5_2 H 0.452(4) 0.891(5) 0.400(2)
O4_2 O 0.31776(19) 0.9562(2) 0.29959(11)
H6_2 H 0.288(3) 0.972(4) 0.285(2)
H7_2 H 0.355(3) 0.958(4) 0.279(2)
H9_2 H 0.160(3) 0.999(4) 0.409(2)
O7_2 O 0.1880(2) 0.9440(2) 0.70463(12)
H11_2 H 0.153(3) 0.946(4) 0.725(2)
H12_2 H 0.215(3) 0.970(4) 0.716(2)
H13_2 H 0.335(4) 0.987(4) 0.586(2)
O10_2 O 0.0617(3) 0.9317(5) 0.6158(3)
H15_2 H 0.044(6) 0.907(8) 0.617(5)
O21_2 O 0.54973(17) 0.21178(19) 0.26920(11)
O22_2 O 0.42447(16) 0.16192(18) 0.27098(10)
O23_2 O 0.45074(16) 0.6673(2) 0.34097(12)
O24_2 O 0.28078(15) 0.84638(16) 0.41446(9)
O25_2 O 0.27919(16) 0.69297(17) 0.43153(10)
N1_2 N 0.31772(18) 0.6415(2) 0.33382(11)
H33_2 H 0.2791 0.5996 0.3287
C1_2 C 0.4762(2) 0.2264(3) 0.27541(13)
C2_2 C 0.4516(2) 0.3260(3) 0.28936(15)
C3_2 C 0.5061(3) 0.3848(3) 0.3128(2)
H34_2 H 0.5590 0.3625 0.3193
C4_2 C 0.4848(3) 0.4760(3) 0.3270(2)
H35_2 H 0.5224 0.5146 0.3448
C5_2 C 0.4093(3) 0.5118(3) 0.31560(15)
C6_2 C 0.3538(2) 0.4536(3) 0.29166(14)
H36_2 H 0.3019 0.4774 0.2835
C7_2 C 0.3743(2) 0.3597(3) 0.27953(13)
H37_2 H 0.3355 0.3187 0.2645
C8_2 C 0.3930(2) 0.6132(3) 0.33096(14)
C9_2 C 0.2970(2) 0.7402(2) 0.34520(13)
H38_2 H 0.3403 0.7829 0.3329
C10_2 C 0.2183(2) 0.7660(3) 0.31774(14)
H39_2 H 0.2258 0.7613 0.2817
H40_2 H 0.2029 0.8313 0.3263
H41_2 H 0.1762 0.7216 0.3277
C11_2 C 0.2861(2) 0.7594(2) 0.40081(14)
O27_2 O 0.07326(17) 0.15402(17) 0.73166(10)
O28_2 O 0.05251(15) 0.65366(17) 0.65018(10)
O29_2 O 0.21658(16) 0.84203(17) 0.58377(10)
O30_2 O 0.22219(15) 0.69002(17) 0.56392(9)
N2_2 N 0.18533(17) 0.6307(2) 0.66061(11)
H42_2 H 0.2245 0.5896 0.6657
C12_2 C 0.0234(2) 0.2200(3) 0.72554(13)
C13_2 C 0.0500(2) 0.3158(2) 0.70720(13)
C15_2 C 0.0175(2) 0.4634(2) 0.66558(14)
C16_2 C 0.0934(2) 0.4992(2) 0.67655(13)
C17_2 C 0.1491(2) 0.4410(2) 0.70174(13)
H45_2 H 0.2015 0.4642 0.7088
C18_2 C 0.1279(2) 0.3491(2) 0.71646(13)
H46_2 H 0.1663 0.3091 0.7327
C19_2 C 0.1099(2) 0.6005(2) 0.66157(13)
C20_2 C 0.2044(2) 0.7306(2) 0.65122(13)
H47_2 H 0.1609 0.7714 0.6649
C21_2 C 0.2838(2) 0.7560(3) 0.67798(15)
H48_2 H 0.2785 0.7465 0.7140
H49_2 H 0.2971 0.8230 0.6714
H50_2 H 0.3265 0.7149 0.6656
C22_2 C 0.2139(2) 0.7540(2) 0.59577(13)
O41_2 O 0.11639(16) 0.7911(2) 0.48462(11)
O42_2 O 0.14090(17) 0.9443(2) 0.47355(11)
C45_2 C 0.0940(2) 0.8745(3) 0.47347(14)
C46_2 C 0.0068(2) 0.8886(3) 0.46041(14)
O63 O 0.67045(16) 0.02937(17) 0.31969(9)
O64 O 0.54385(15) 0.0152(2) 0.33792(10)
O65 O 0.38427(16) 0.7935(2) 0.51234(10)
O66 O 0.55847(15) 0.0943(2) 0.17350(10)
H111_2 H 0.0505977 0.949973 0.580562
H69_2 H 0.7489 0.0514 0.4230
H72_2 H 0.8660 0.0500 0.4528
C53_2 C 0.6355(2) 0.0065(3) 0.40658(13)
C54_2 C 0.5999(2) 0.0921(3) 0.43317(15)
H75_2 H 0.6146 0.0895 0.4687
H76_2 H 0.5415 0.0908 0.4292
H77_2 H 0.6207 0.1511 0.4187
C55_2 C 0.6176(2) 0.0163(2) 0.35051(13)
O53_2 O 0.74614(17) 0.2668(2) 0.11894(11)
O55_2 O 0.68529(15) 0.07040(18) 0.19354(9)
N7_2 N 0.73420(18) 0.1127(2) 0.09572(12)
H87_2 H 0.7586 0.0606 0.0857
C69_2 C 0.9830(2) 0.1290(3) 0.05199(14)
C70_2 C 0.9046(2) 0.1178(3) 0.06871(14)
H89_2 H 0.8827 0.0556 0.0724
C71_2 C 0.8591(2) 0.1975(3) 0.07980(14)
C72_2 C 0.8916(3) 0.2885(3) 0.07229(17)
H90_2 H 0.8606 0.3436 0.0794
C73_2 C 0.9682(2) 0.2990(3) 0.05469(16)
H91_2 H 0.9893 0.3612 0.0495
C74_2 C 0.7762(2) 0.1938(3) 0.09976(14)
C75_2 C 0.6496(2) 0.1076(3) 0.10731(14)
H92_2 H 0.6243 0.1697 0.0975
C76_2 C 0.6087(2) 0.0284(3) 0.07662(14)
H93_2 H 0.6255 0.0327 0.0419
H94_2 H 0.5504 0.0360 0.0780
C77_2 C 0.6322(2) 0.0900(2) 0.16226(13)
O32_2 O 0.93567(16) 0.88915(18) 0.76682(10)
C28_2 C 0.9982(2) 0.6124(2) 0.81336(15)
H54_2 H 0.9595 0.5693 0.8257
C29_2 C 0.9759(2) 0.7051(3) 0.80040(15)
H55_2 H 0.9217 0.7245 0.8033
O47_2 O 0.35730(17) 0.9448(2) 0.52682(11)
O48_2 O 0.76734(18) 0.84647(19) 0.61104(12)
C56_2 C 0.4053(2) 0.8760(3) 0.52556(13)
C57_2 C 0.4919(2) 0.8908(3) 0.54061(13)
C58_2 C 0.5390(2) 0.8118(3) 0.55154(15)
H79_2 H 0.5173 0.7494 0.5479
C59_2 C 0.6175(2) 0.8235(3) 0.56766(16)
H80_2 H 0.6493 0.7689 0.5753
C60_2 C 0.6505(2) 0.9143(3) 0.57277(14)
C61_2 C 0.6041(2) 0.9927(3) 0.56068(15)
C62_2 C 0.5245(2) 0.9814(3) 0.54547(15)
C63_2 C 0.7351(2) 0.9192(3) 0.59263(15)
H83_2 H 0.8868 0.9483 0.5893
Cd8_2 Cd 0.321300(17) 0.123340(19) 0.122910(10)
O17_2 O 0.3493(2) 0.0528(2) 0.04929(11)
H27_2 H 0.325(4) 0.010(4) 0.040(2)
H28_2 H 0.350(4) 0.085(4) 0.025(2)
O18_2 O 0.18859(19) 0.0889(2) 0.11632(13)
H29_2 H 0.179(3) 0.102(4) 0.085(2)
H30_2 H 0.189(3) 0.046(4) 0.116(2)
O19_2 O 0.2961(2) 0.1551(2) 0.20460(12)
H31_2 H 0.260(3) 0.122(4) 0.217(2)
H32_2 H 0.317(4) 0.145(5) 0.215(2)
O20_2 O 0.44172(18) 0.1910(2) 0.13138(14)
O36 O 0.44458(16) 0.94457(18) 0.23420(10)
O37 O 0.56734(17) 0.88835(19) 0.24000(11)
O38_2 O 0.45170(16) 0.44426(19) 0.15257(11)
O39_2 O 0.29004(15) 0.26619(16) 0.08211(9)
O40_2 O 0.28175(16) 0.41941(17) 0.06418(9)
N4_2 N 0.32070(18) 0.4732(2) 0.16202(11)
H60_2 H 0.2831 0.5159 0.1671
C34_2 C 0.4946(2) 0.8773(3) 0.23074(15)
C35_2 C 0.4666(2) 0.7797(3) 0.21449(16)
C36_2 C 0.5218(3) 0.7155(3) 0.1954(2)
H61_2 H 0.5765 0.7333 0.1933
C37_2 C 0.4975(3) 0.6260(4) 0.1795(2)
H62_2 H 0.5356 0.5825 0.1666
C38_2 C 0.4178(2) 0.5994(3) 0.18218(15)
C39_2 C 0.3625(2) 0.6623(3) 0.20201(14)
H63_2 H 0.3082 0.6434 0.2052
C40_2 C 0.3865(2) 0.7524(3) 0.21712(14)
H64_2 H 0.3481 0.7961 0.2294
C41_2 C 0.3973(2) 0.4995(3) 0.16460(13)
C42_2 C 0.2980(2) 0.3742(2) 0.15079(13)
H65_2 H 0.3388 0.3304 0.1663
C43_2 C 0.2171(2) 0.3527(3) 0.17263(14)
H66_2 H 0.2184 0.3681 0.2083
H67_2 H 0.2047 0.2849 0.1681
H68_2 H 0.1760 0.3914 0.1556
C44_2 C 0.2917(2) 0.3535(2) 0.09509(13)
O51_2 O 0.11874(16) 0.31673(19) 0.01403(10)
O52_2 O 0.14644(15) 0.16455(19) 0.02632(10)
C67_2 C 0.0985(2) 0.2344(3) 0.02713(13)
C68_2 C 0.0147(2) 0.2195(3) 0.04456(13)
H88_2 H 0.0148 0.0742 0.0457
H107_2 H 0.480775 0.155679 0.110916
H108_2 H 0.438755 0.258431 0.120029
Cd4_2 Cd 0.251180(14) 0.301740(19) 0.997580(8)
Cd7_2 Cd 0.189900(17) 0.10439(2) 0.879000(10)
O12_2 O 0.0706(2) 0.1702(3) 0.87397(19)
H18_2 H 0.049(4) 0.129(5) 0.875(3)
H19_2 H 0.069(4) 0.182(5) 0.906(2)
O13_2 O 0.1560(2) 0.0366(2) 0.95188(12)
H20_2 H 0.148(4) 0.076(4) 0.974(2)
H21_2 H 0.181(4) 0.005(4) 0.965(2)
O14_2 O 0.32204(19) 0.0777(3) 0.88711(12)
H22_2 H 0.330(4) 0.093(4) 0.908(2)
O15_2 O 0.2045(2) 0.1403(3) 0.79738(12)
H23_2 H 0.185(4) 0.140(6) 0.785(3)
H24_2 H 0.243(3) 0.106(4) 0.782(2)
O31_2 O 0.06206(16) 0.93484(17) 0.77020(10)
O33_2 O 0.04316(15) 0.42617(18) 0.83559(10)
O34_2 O 0.21700(15) 0.25869(16) 0.91407(9)
O35_2 O 0.21619(15) 0.41349(17) 0.92999(9)
N3_2 N 0.17438(18) 0.4601(2) 0.83123(11)
H51_2 H 0.2111 0.5044 0.8271
C23_2 C 0.0089(2) 0.8709(2) 0.77260(13)
C24_2 C 0.0324(2) 0.7694(2) 0.78329(13)
C25_2 C 0.1114(2) 0.7389(2) 0.77776(13)
H52_2 H 0.1505 0.7819 0.7657
C26_2 C 0.1330(2) 0.6459(2) 0.78982(13)
H53_2 H 0.1866 0.6254 0.7854
C27_2 C 0.0770(2) 0.5827(2) 0.80825(13)
C30_2 C 0.0971(2) 0.4836(2) 0.82559(13)
C31_2 C 0.1995(2) 0.3631(2) 0.84398(13)
H56_2 H 0.1593 0.3170 0.8299
C32_2 C 0.2799(2) 0.3435(3) 0.82093(14)
H57_2 H 0.2766 0.3567 0.7851
H58_2 H 0.2945 0.2764 0.8263
H59_2 H 0.3207 0.3847 0.8365
C33_2 C 0.2095(2) 0.3452(2) 0.90001(13)
O56_2 O 0.35813(15) 0.17338(19) 0.97235(10)
O57_2 O 0.38610(16) 0.32596(18) 0.98210(10)
O58_2 O 0.78266(18) 0.2701(2) 0.93268(12)
O59 O 0.94747(15) 0.0826(2) 0.83524(10)
O60_2 O 0.81929(16) 0.08118(19) 0.81595(10)
N8_2 N 0.77521(18) 0.1141(2) 0.91360(12)
H96_2 H 0.7452 0.0626 0.9113
C78_2 C 0.4063(2) 0.2421(3) 0.97113(13)
C79_2 C 0.4920(2) 0.2252(3) 0.95700(13)
C80_2 C 0.5264(2) 0.1345(3) 0.95992(14)
H97_2 H 0.4950 0.0812 0.9694
C81_2 C 0.6073(2) 0.1221(3) 0.94896(15)
H98_2 H 0.6307 0.0603 0.9505
C82_2 C 0.6532(2) 0.2001(3) 0.93579(15)
C83_2 C 0.6175(2) 0.2901(3) 0.93109(15)
H99_2 H 0.6484 0.3432 0.9207
C84_2 C 0.5376(2) 0.3019(3) 0.94146(15)
H100_2 H 0.5136 0.3631 0.9379
C85_2 C 0.7415(2) 0.1955(3) 0.92675(15)
C86_2 C 0.8596(2) 0.1062(3) 0.90278(14)
H101_2 H 0.8855 0.1681 0.9123
C87_2 C 0.8999(3) 0.0274(3) 0.93404(15)
H102_2 H 0.8890 0.0378 0.9694
H103_2 H 0.9579 0.0290 0.9290
C88_2 C 0.8746(2) 0.0896(2) 0.84724(14)
Cd13 Cd 0.942480(15) 0.050790(17) 0.752940(9)
H109_2 H 0.352062 0.11295 0.861365
O26_2 O 0.95012(16) 0.20994(18) 0.73480(10)
C14_2 C 0.9955(2) 0.3734(3) 0.68134(14)
H43_2 H 0.9428 0.3507 0.6745
H44_2 H 0.9803 0.5012 0.6470
O43_2 O 0.7206(2) 0.8415(2) 0.4117(3)
N5_2 N 0.72096(18) 0.9988(2) 0.41809(11)
C47_2 C 0.9612(2) 0.8108(3) 0.44492(15)
H70_2 H 0.9853 0.7495 0.4431
C48_2 C 0.8810(3) 0.8219(3) 0.43205(16)
H71_2 H 0.8506 0.7685 0.4207
C49_2 C 0.8447(2) 0.9112(3) 0.43571(15)
C50_2 C 0.8903(2) 0.9888(3) 0.45076(14)
C51_2 C 0.9705(2) 0.9786(3) 0.46285(15)
C52_2 C 0.7577(2) 0.9153(3) 0.42138(18)
H74_2 H 0.6086 0.9474 0.4188
O49_2 O 0.82686(16) 0.03590(18) 0.68819(10)
O50_2 O 0.95278(15) 0.00836(19) 0.67034(10)
N6_2 N 0.77508(19) 0.0014(2) 0.58933(12)
H78_2 H 0.7494 0.0532 0.5794
H81_2 H 0.6266 0.0549 0.5628
H82_2 H 0.4925 0.0359 0.5384
C64_2 C 0.8603(2) 0.0075(3) 0.60178(14)
C65_2 C 0.8976(2) 0.0936(3) 0.57554(14)
H84_2 H 0.8830 0.0920 0.5400
H85_2 H 0.9560 0.0910 0.5796
H86_2 H 0.8776 0.1527 0.5903
C66_2 C 0.8794(2) 0.0164(2) 0.65774(13)
O16_2 O 0.3483(2) 0.9725(2) 0.15158(12)
H25_2 H 0.302(3) 0.939(4) 0.157(2)
H26_2 H 0.376(3) 0.961(4) 0.185(2)
O11_2 O 0.1817(2) 0.9495(2) 0.84440(12)
H16_2 H 0.139(3) 0.944(4) 0.822(2)
H17_2 H 0.226(3) 0.888(4) 0.8481(19)
H104_2 H 0.8787 0.9651 0.9237
H95_2 H 0.6239 0.9660 0.0903
loop_
_geom_bond_atom_site_label_1
_geom_bond_atom_site_label_2
_geom_bond_site_symmetry_1
_geom_bond_site_symmetry_2
O43 C52 1_555 1_555
O44 C55 1_555 1_555
O45 C55 1_555 1_555
N5 H69 1_555 1_555
H70 C47 1_555 1_555
C48 C47 1_555 1_555
H71 C48 1_555 1_555
C49 C48 1_555 1_555
C50 C49 1_555 1_555
H72 C50 1_555 1_555
C52 N5 1_555 1_555
C53 N5 1_555 1_555
H74 C53 1_555 1_555
C54 C53 1_555 1_555
H75 C54 1_555 1_555
H76 C54 1_555 1_555
H77 C54 1_555 1_555
C55 C53 1_555 1_555
Cd9 O44 1_555 1_555
O45 Cd9 1_555 1_555
C49 C52 1_555 1_555
C50 C51 1_555 1_555
O53 C74 1_555 1_555
O54 C77 1_555 1_555
O55 C77 1_555 1_555
N7 H87 1_555 1_555
C70 C69 1_555 1_555
H89 C70 1_555 1_555
C71 C70 1_555 1_555
C72 C71 1_555 1_555
H90 C72 1_555 1_555
H91 C73 1_555 1_555
C74 N7 1_555 1_555
C75 N7 1_555 1_555
H92 C75 1_555 1_555
C76 C75 1_555 1_555
H93 C76 1_555 1_555
H94 C76 1_555 1_555
H95 C76 1_555 1_555
C77 C75 1_555 1_555
Cd9 O54 1_555 1_555
C71 C74 1_555 1_555
C72 C73 1_555 1_555
Cd9 O21 1_555 1_555
O21 C1 1_555 1_555
O22 C1 1_555 1_555
C1 C2 1_555 1_555
C2 C3 1_555 1_555
C3 H34 1_555 1_555
C4 C3 1_555 1_555
H36 C6 1_555 1_555
C7 C2 1_555 1_555
H37 C7 1_555 1_555
O27 C12 1_555 1_555
C12 C13 1_555 1_555
C16 C15 1_555 1_555
C17 C16 1_555 1_555
H45 C17 1_555 1_555
C18 C13 1_555 1_555
H46 C18 1_555 1_555
C23 O31 1_555 1_555
C24 C23 1_555 1_555
C25 C24 1_555 1_555
H52 C25 1_555 1_555
C26 C25 1_555 1_555
H53 C26 1_555 1_555
C27 C26 1_555 1_555
O61 Cd9 1_555 1_555
O62 Cd9 1_555 1_555
C6 C7 1_555 1_555
C17 C18 1_555 1_555
O61 C34 1_555 1_555
O62 C34 1_555 1_555
C34 C35 1_555 1_555
C35 C36 1_555 1_555
C36 H61 1_555 1_555
C37 C36 1_555 1_555
H62 C37 1_555 1_555
C38 C37 1_555 1_555
C39 C38 1_555 1_555
H63 C39 1_555 1_555
C40 C35 1_555 1_555
H64 C40 1_555 1_555
C39 C40 1_555 1_555
Cd3 O26 1_555 1_555
C14 H43 1_555 1_555
O32 Cd3 1_555 1_555
H54 C28 1_555 1_555
H55 C29 1_555 1_555
O46 C56 1_555 1_555
O47 C56 1_555 1_555
O48 C63 1_555 1_555
O49 Cd3 1_555 1_555
O50 Cd3 1_555 1_555
N6 H78 1_555 1_555
C56 C57 1_555 1_555
C57 C58 1_555 1_555
C58 H79 1_555 1_555
C59 C58 1_555 1_555
H80 C59 1_555 1_555
C60 C59 1_555 1_555
C61 C60 1_555 1_555
H81 C61 1_555 1_555
C62 C57 1_555 1_555
H82 C62 1_555 1_555
C63 N6 1_555 1_555
C64 N6 1_555 1_555
H83 C64 1_555 1_555
C65 C64 1_555 1_555
H84 C65 1_555 1_555
H85 C65 1_555 1_555
H86 C65 1_555 1_555
C66 O49 1_555 1_555
Cd12 O46 1_555 1_555
O67 Cd3 1_555 1_555
C28 C29 1_555 1_555
O50 C66 1_555 1_555
C60 C63 1_555 1_555
C61 C62 1_555 1_555
C64 C66 1_555 1_555
Cd12 O24 1_555 1_555
Cd5 O1 1_555 1_555
Cd6 O6 1_555 1_555
O1 H1 1_555 1_555
O2 Cd5 1_555 1_555
H2 O2 1_555 1_555
H3 O2 1_555 1_555
O3 Cd5 1_555 1_555
H4 O3 1_555 1_555
H5 O3 1_555 1_555
O4 Cd5 1_555 1_555
H6 O4 1_555 1_555
H7 O4 1_555 1_555
O5 Cd5 1_555 1_555
H8 O5 1_555 1_555
H9 O5 1_555 1_555
O6 H10 1_555 1_555
O7 Cd6 1_555 1_555
H11 O7 1_555 1_555
H12 O7 1_555 1_555
O8 Cd6 1_555 1_555
H13 O8 1_555 1_555
H14 O8 1_555 1_555
O9 Cd6 1_555 1_555
O10 Cd6 1_555 1_555
H15 O10 1_555 1_555
O23 C8 1_555 1_555
O24 Cd5 1_555 1_555
O25 Cd12 1_555 1_555
N1 H33 1_555 1_555
C8 N1 1_555 1_555
C9 N1 1_555 1_555
H38 C9 1_555 1_555
C10 C9 1_555 1_555
H39 C10 1_555 1_555
H40 C10 1_555 1_555
H41 C10 1_555 1_555
C11 O24 1_555 1_555
O28 C19 1_555 1_555
O29 Cd12 1_555 1_555
O30 Cd12 1_555 1_555
N2 H42 1_555 1_555
C19 N2 1_555 1_555
C20 N2 1_555 1_555
H47 C20 1_555 1_555
C21 C20 1_555 1_555
H48 C21 1_555 1_555
H49 C21 1_555 1_555
H50 C21 1_555 1_555
C22 O29 1_555 1_555
O41 Cd12 1_555 1_555
O42 C45 1_555 1_555
C45 O41 1_555 1_555
C46 C45 1_555 1_555
H105 O9 1_555 1_555
Cd6 O29 1_555 1_555
O25 C11 1_555 1_555
C5 C8 1_555 1_555
C9 C11 1_555 1_555
O30 C22 1_555 1_555
C20 C22 1_555 1_555
O1 H106 1_555 1_555
O9 H110 1_555 1_555
O10 H111 1_555 1_555
O6 H112 1_555 1_555
Cd4 O34 1_555 1_555
Cd7 O11 1_555 1_555
O11 H16 1_555 1_555
H17 O11 1_555 1_555
O12 Cd7 1_555 1_555
H18 O12 1_555 1_555
H19 O12 1_555 1_555
O13 Cd7 1_555 1_555
H20 O13 1_555 1_555
H21 O13 1_555 1_555
O14 Cd7 1_555 1_555
H22 O14 1_555 1_555
O15 Cd7 1_555 1_555
H23 O15 1_555 1_555
H24 O15 1_555 1_555
O33 C30 1_555 1_555
O34 Cd7 1_555 1_555
O35 Cd4 1_555 1_555
C30 N3 1_555 1_555
C31 N3 1_555 1_555
H56 C31 1_555 1_555
C32 C31 1_555 1_555
H57 C32 1_555 1_555
H58 C32 1_555 1_555
H59 C32 1_555 1_555
C33 O34 1_555 1_555
O56 C78 1_555 1_555
O57 Cd4 1_555 1_555
O58 C85 1_555 1_555
O67 C88 1_555 1_555
O60 C88 1_555 1_555
N8 H96 1_555 1_555
C78 O57 1_555 1_555
C79 C78 1_555 1_555
C80 C79 1_555 1_555
H97 C80 1_555 1_555
C81 C80 1_555 1_555
H98 C81 1_555 1_555
C82 C81 1_555 1_555
C83 C82 1_555 1_555
H99 C83 1_555 1_555
C84 C79 1_555 1_555
H100 C84 1_555 1_555
C85 N8 1_555 1_555
C86 N8 1_555 1_555
H101 C86 1_555 1_555
C87 C86 1_555 1_555
H102 C87 1_555 1_555
H103 C87 1_555 1_555
H104 C87 1_555 1_555
C88 C86 1_555 1_555
O35 C33 1_555 1_555
C31 C33 1_555 1_555
C82 C85 1_555 1_555
C83 C84 1_555 1_555
O14 H109 1_555 1_555
Cd8 O16 1_555 1_555
O16 H25 1_555 1_555
H26 O16 1_555 1_555
O17 Cd8 1_555 1_555
H27 O17 1_555 1_555
H28 O17 1_555 1_555
O18 Cd8 1_555 1_555
H29 O18 1_555 1_555
H30 O18 1_555 1_555
O19 Cd8 1_555 1_555
H31 O19 1_555 1_555
H32 O19 1_555 1_555
O20 Cd8 1_555 1_555
O38 C41 1_555 1_555
C41 N4 1_555 1_555
C42 N4 1_555 1_555
H65 C42 1_555 1_555
C43 C42 1_555 1_555
H66 C43 1_555 1_555
H67 C43 1_555 1_555
H68 C43 1_555 1_555
C44 O39 1_555 1_555
O52 C67 1_555 1_555
C67 O51 1_555 1_555
C68 C67 1_555 1_555
Cd8 O39 1_555 1_555
O40 C44 1_555 1_555
C42 C44 1_555 1_555
O20 H107 1_555 1_555
O20 H108 1_555 1_555
O1_2 H1_2 1_555 1_555
H2_2 O2_2 1_555 1_555
H3_2 O2_2 1_555 1_555
H8_2 O5_2 1_555 1_555
O6_2 H10_2 1_555 1_555
H14_2 O8_2 1_555 1_555
H105_2 O9_2 1_555 1_555
O1_2 H106_2 1_555 1_555
O9_2 H110_2 1_555 1_555
O6_2 H112_2 1_555 1_555
Cd11 O21_2 1_555 1_555
Cd2 O24_2 1_555 1_555
O3_2 Cd5_2 1_555 1_555
H4_2 O3_2 1_555 1_555
H5_2 O3_2 1_555 1_555
O4_2 Cd5_2 1_555 1_555
H6_2 O4_2 1_555 1_555
H7_2 O4_2 1_555 1_555
O7_2 Cd6_2 1_555 1_555
H11_2 O7_2 1_555 1_555
H12_2 O7_2 1_555 1_555
O10_2 Cd6_2 1_555 1_555
H15_2 O10_2 1_555 1_555
O21_2 C1_2 1_555 1_555
O22_2 C1_2 1_555 1_555
O23_2 C8_2 1_555 1_555
O24_2 Cd5_2 1_555 1_555
O25_2 Cd2 1_555 1_555
N1_2 H33_2 1_555 1_555
C1_2 C2_2 1_555 1_555
C2_2 C3_2 1_555 1_555
C3_2 H34_2 1_555 1_555
C4_2 C3_2 1_555 1_555
H35_2 C4_2 1_555 1_555
C5_2 C4_2 1_555 1_555
C6_2 C5_2 1_555 1_555
H36_2 C6_2 1_555 1_555
C7_2 C2_2 1_555 1_555
H37_2 C7_2 1_555 1_555
C8_2 N1_2 1_555 1_555
C9_2 N1_2 1_555 1_555
H38_2 C9_2 1_555 1_555
C10_2 C9_2 1_555 1_555
H39_2 C10_2 1_555 1_555
H40_2 C10_2 1_555 1_555
H41_2 C10_2 1_555 1_555
C11_2 O24_2 1_555 1_555
O27_2 C12_2 1_555 1_555
O28_2 C19_2 1_555 1_555
O29_2 Cd2 1_555 1_555
O30_2 Cd2 1_555 1_555
N2_2 H42_2 1_555 1_555
C12_2 C13_2 1_555 1_555
C16_2 C15_2 1_555 1_555
C17_2 C16_2 1_555 1_555
H45_2 C17_2 1_555 1_555
C18_2 C13_2 1_555 1_555
H46_2 C18_2 1_555 1_555
C19_2 N2_2 1_555 1_555
C20_2 N2_2 1_555 1_555
H47_2 C20_2 1_555 1_555
C21_2 C20_2 1_555 1_555
H48_2 C21_2 1_555 1_555
H49_2 C21_2 1_555 1_555
H50_2 C21_2 1_555 1_555
C22_2 O29_2 1_555 1_555
O41_2 Cd2 1_555 1_555
O42_2 C45_2 1_555 1_555
C45_2 O41_2 1_555 1_555
C46_2 C45_2 1_555 1_555
O63 Cd11 1_555 1_555
O64 Cd11 1_555 1_555
O65 Cd2 1_555 1_555
O66 Cd11 1_555 1_555
Cd6_2 O29_2 1_555 1_555
O25_2 C11_2 1_555 1_555
C5_2 C8_2 1_555 1_555
C6_2 C7_2 1_555 1_555
C9_2 C11_2 1_555 1_555
O30_2 C22_2 1_555 1_555
C16_2 C19_2 1_555 1_555
C17_2 C18_2 1_555 1_555
C20_2 C22_2 1_555 1_555
O10_2 H111_2 1_555 1_555
O63 C55_2 1_555 1_555
O64 C55_2 1_555 1_555
C54_2 C53_2 1_555 1_555
H75_2 C54_2 1_555 1_555
H76_2 C54_2 1_555 1_555
H77_2 C54_2 1_555 1_555
C55_2 C53_2 1_555 1_555
O53_2 C74_2 1_555 1_555
O66 C77_2 1_555 1_555
O55_2 C77_2 1_555 1_555
N7_2 H87_2 1_555 1_555
C70_2 C69_2 1_555 1_555
H89_2 C70_2 1_555 1_555
C71_2 C70_2 1_555 1_555
C72_2 C71_2 1_555 1_555
H90_2 C72_2 1_555 1_555
H91_2 C73_2 1_555 1_555
C74_2 N7_2 1_555 1_555
C75_2 N7_2 1_555 1_555
H92_2 C75_2 1_555 1_555
C76_2 C75_2 1_555 1_555
H93_2 C76_2 1_555 1_555
H94_2 C76_2 1_555 1_555
C77_2 C75_2 1_555 1_555
C71_2 C74_2 1_555 1_555
C72_2 C73_2 1_555 1_555
H54_2 C28_2 1_555 1_555
H55_2 C29_2 1_555 1_555
O65 C56_2 1_555 1_555
O47_2 C56_2 1_555 1_555
O48_2 C63_2 1_555 1_555
C56_2 C57_2 1_555 1_555
C57_2 C58_2 1_555 1_555
C58_2 H79_2 1_555 1_555
C59_2 C58_2 1_555 1_555
H80_2 C59_2 1_555 1_555
C60_2 C59_2 1_555 1_555
C61_2 C60_2 1_555 1_555
C62_2 C57_2 1_555 1_555
C28_2 C29_2 1_555 1_555
C60_2 C63_2 1_555 1_555
C61_2 C62_2 1_555 1_555
O17_2 Cd8_2 1_555 1_555
H27_2 O17_2 1_555 1_555
H28_2 O17_2 1_555 1_555
O18_2 Cd8_2 1_555 1_555
H29_2 O18_2 1_555 1_555
H30_2 O18_2 1_555 1_555
O19_2 Cd8_2 1_555 1_555
H31_2 O19_2 1_555 1_555
H32_2 O19_2 1_555 1_555
O20_2 Cd8_2 1_555 1_555
O36 C34_2 1_555 1_555
O37 C34_2 1_555 1_555
O38_2 C41_2 1_555 1_555
N4_2 H60_2 1_555 1_555
C34_2 C35_2 1_555 1_555
C35_2 C36_2 1_555 1_555
C36_2 H61_2 1_555 1_555
C37_2 C36_2 1_555 1_555
H62_2 C37_2 1_555 1_555
C38_2 C37_2 1_555 1_555
C39_2 C38_2 1_555 1_555
H63_2 C39_2 1_555 1_555
C40_2 C35_2 1_555 1_555
H64_2 C40_2 1_555 1_555
C41_2 N4_2 1_555 1_555
C42_2 N4_2 1_555 1_555
H65_2 C42_2 1_555 1_555
C43_2 C42_2 1_555 1_555
H66_2 C43_2 1_555 1_555
H67_2 C43_2 1_555 1_555
H68_2 C43_2 1_555 1_555
C44_2 O39_2 1_555 1_555
O52_2 C67_2 1_555 1_555
C67_2 O51_2 1_555 1_555
C68_2 C67_2 1_555 1_555
Cd8_2 O39_2 1_555 1_555
O40_2 C44_2 1_555 1_555
C38_2 C41_2 1_555 1_555
C39_2 C40_2 1_555 1_555
C42_2 C44_2 1_555 1_555
O20_2 H107_2 1_555 1_555
O20_2 H108_2 1_555 1_555
Cd4_2 O34_2 1_555 1_555
O12_2 Cd7_2 1_555 1_555
H18_2 O12_2 1_555 1_555
H19_2 O12_2 1_555 1_555
O13_2 Cd7_2 1_555 1_555
H20_2 O13_2 1_555 1_555
H21_2 O13_2 1_555 1_555
O14_2 Cd7_2 1_555 1_555
H22_2 O14_2 1_555 1_555
O15_2 Cd7_2 1_555 1_555
H23_2 O15_2 1_555 1_555
H24_2 O15_2 1_555 1_555
O33_2 C30_2 1_555 1_555
O34_2 Cd7_2 1_555 1_555
O35_2 Cd4_2 1_555 1_555
N3_2 H51_2 1_555 1_555
C23_2 O31_2 1_555 1_555
C24_2 C23_2 1_555 1_555
C25_2 C24_2 1_555 1_555
H52_2 C25_2 1_555 1_555
C26_2 C25_2 1_555 1_555
H53_2 C26_2 1_555 1_555
C27_2 C26_2 1_555 1_555
C30_2 N3_2 1_555 1_555
C31_2 N3_2 1_555 1_555
H56_2 C31_2 1_555 1_555
C32_2 C31_2 1_555 1_555
H57_2 C32_2 1_555 1_555
H58_2 C32_2 1_555 1_555
H59_2 C32_2 1_555 1_555
C33_2 O34_2 1_555 1_555
O56_2 C78_2 1_555 1_555
O57_2 Cd4_2 1_555 1_555
O58_2 C85_2 1_555 1_555
O59 C88_2 1_555 1_555
O60_2 C88_2 1_555 1_555
N8_2 H96_2 1_555 1_555
C78_2 O57_2 1_555 1_555
C79_2 C78_2 1_555 1_555
C80_2 C79_2 1_555 1_555
H97_2 C80_2 1_555 1_555
C81_2 C80_2 1_555 1_555
H98_2 C81_2 1_555 1_555
C82_2 C81_2 1_555 1_555
C83_2 C82_2 1_555 1_555
H99_2 C83_2 1_555 1_555
C84_2 C79_2 1_555 1_555
H100_2 C84_2 1_555 1_555
C85_2 N8_2 1_555 1_555
C86_2 N8_2 1_555 1_555
H101_2 C86_2 1_555 1_555
C87_2 C86_2 1_555 1_555
H102_2 C87_2 1_555 1_555
H103_2 C87_2 1_555 1_555
C88_2 C86_2 1_555 1_555
Cd13 O59 1_555 1_555
O35_2 C33_2 1_555 1_555
C27_2 C30_2 1_555 1_555
C31_2 C33_2 1_555 1_555
C82_2 C85_2 1_555 1_555
C83_2 C84_2 1_555 1_555
O14_2 H109_2 1_555 1_555
Cd13 O26_2 1_555 1_555
C14_2 H43_2 1_555 1_555
O43_2 C52_2 1_555 1_555
H70_2 C47_2 1_555 1_555
C48_2 C47_2 1_555 1_555
H71_2 C48_2 1_555 1_555
C49_2 C48_2 1_555 1_555
C50_2 C49_2 1_555 1_555
C52_2 N5_2 1_555 1_555
O49_2 Cd13 1_555 1_555
O50_2 Cd13 1_555 1_555
N6_2 H78_2 1_555 1_555
C64_2 N6_2 1_555 1_555
C65_2 C64_2 1_555 1_555
H84_2 C65_2 1_555 1_555
H85_2 C65_2 1_555 1_555
H86_2 C65_2 1_555 1_555
C66_2 O49_2 1_555 1_555
C49_2 C52_2 1_555 1_555
C50_2 C51_2 1_555 1_555
O50_2 C66_2 1_555 1_555
C64_2 C66_2 1_555 1_555
O16_2 H25_2 1_555 1_555
H26_2 O16_2 1_555 1_555
O11_2 H16_2 1_555 1_555
H17_2 O11_2 1_555 1_555

#END
