
###############################################################################
#
# This file contains modified crystal structure data generated from the
# MOF subset of the Cambridge Structural Database (CSD) v543 
# hosted by the Cambridge Crystallographic Data Centre (CCDC).
#
# This work is licensed under the Creative Commons
# Attribution-NonCommercial-ShareAlike 4.0 International License.
# To view a copy of this license, visit
# http://creativecommons.org/licenses/by-nc-sa/4.0/
# or send a letter to
# Creative Commons, PO Box 1866, Mountain View, CA 94042, USA.
#
# CIF created using the CSD Python API on 29 September 2022
# The structure has been converted into the P1 space group
# The structure has a 3D framework
# The original CSD entry RIXBIK is in the monoclinic crystal system
# The framework has been calculated to contain at least 10.0% void space
# The void calculation uses a probe of radius 1.32A, grid spacing 0.4
#
###############################################################################

data_RIXBIK
_chemical_formula_moiety         '(C76 H68 Mn4 N12 O28 S4)n'
_symmetry_cell_setting           triclinic
_symmetry_space_group_name_H-M   'P 1'
_symmetry_Int_Tables_number      1
_space_group_name_Hall           'P 1'
loop_
_symmetry_equiv_pos_site_id
_symmetry_equiv_pos_as_xyz
1 x,y,z
_cell_length_a                   11.663(3)
_cell_length_b                   8.708(2)
_cell_length_c                   27.218(7)
_cell_angle_alpha                90
_cell_angle_beta                 101.485(4)
_cell_angle_gamma                90
_cell_volume                     2708.95
loop_
_atom_site_label
_atom_site_type_symbol
_atom_site_fract_x
_atom_site_fract_y
_atom_site_fract_z
Mn1 Mn 0.25385(7) 0.63387(9) 0.19667(3)
O1 O 0.2564(3) 0.3909(4) 0.21093(14)
O2 O 0.1989(3) 0.1531(4) 0.22120(13)
O7 O 0.2648(4) 0.8785(4) 0.18322(14)
H1 H 0.2447 0.8863 0.1520
H2 H 0.2411 0.9552 0.1967
N1 N 0.0844(5) 0.1359(6) 0.11946(19)
H3 H 0.1116 0.0485 0.1125
N2 N 0.0586(4) 0.6362(5) 0.19994(17)
C1 C 0.2089(5) 0.2675(6) 0.19468(19)
C2 C 0.1645(6) 0.2595(7) 0.1381(2)
H4 H 0.2318 0.2510 0.1223
H5 H 0.1261 0.3560 0.1273
C10 C 0.0107(5) 0.5353(8) 0.2265(2)
H10 H 0.0595 0.4634 0.2455
H13 H 0.0188 0.8089 0.1548
Mn2 Mn 0.24615(7) 0.13387(9) 0.30333(3)
O8 O 0.3011(3) 0.6531(4) 0.27880(13)
O9 O 0.2081(4) 0.6185(4) 0.11403(14)
N4 N 0.4487(4) 0.6231(6) 0.19503(18)
S1 S 0.94564(17) 0.1601(2) 0.11159(6)
O3 O 0.9223(5) 0.2310(7) 0.15590(17)
O4 O 0.8937(5) 0.0155(6) 0.09498(19)
C3 C 0.9033(6) 0.2931(7) 0.0619(2)
C4 C 0.8795(5) 0.2404(7) 0.0129(2)
H6 H 0.8874 0.1366 0.0063
C7 C 0.8575(7) 0.5501(8) 0.0333(2)
H8 H 0.8505 0.6541 0.0401
C8 C 0.8927(7) 0.4456(8) 0.0728(2)
H9 H 0.9087 0.4794 0.1058
C11 C 0.8941(5) 0.5310(7) 0.2276(2)
H11 H 0.8654 0.4583 0.2470
C12 C 0.8191(5) 0.6354(6) 0.1995(2)
C13 C 0.8679(5) 0.7397(7) 0.1715(2)
H12 H 0.8210 0.8115 0.1516
C14 C 0.9871(5) 0.7363(7) 0.1734(2)
C15 C 0.6912(5) 0.6319(6) 0.1979(2)
C16 C 0.6445(6) 0.5762(9) 0.2377(2)
H14 H 0.6937 0.5399 0.2665
C17 C 0.5250(5) 0.5752(8) 0.2342(2)
H15 H 0.4964 0.5379 0.2614
C18 C 0.4934(6) 0.6795(10) 0.1574(3)
H16 H 0.4418 0.7166 0.1294
C19 C 0.6111(6) 0.6861(9) 0.1576(3)
H17 H 0.6369 0.7275 0.1302
O5 O 0.8082(6) 0.1417(5) 0.91484(17)
O6 O 0.7919(4) 0.3815(4) 0.88597(14)
C5 C 0.8438(5) 0.3427(6) 0.9739(2)
C6 C 0.8334(6) 0.4974(7) 0.9847(2)
H7 H 0.8098 0.5665 0.9586
C9 C 0.8141(5) 0.2855(6) 0.9205(2)
Mn3 Mn 0.74615(7) 0.36613(9) 0.80333(3)
N3 N 0.0513(4) 0.1231(6) 0.30497(18)
H15_2 H 0.0036 0.0379 0.2386
C18_2 C 0.0066(6) 0.1795(10) 0.3426(3)
H16_2 H 0.0582 0.2166 0.3706
O7_2 O 0.2352(4) 0.3785(4) 0.31678(14)
H1_2 H 0.2553 0.3863 0.3480
H2_2 H 0.2589 0.4552 0.3033
N2_2 N 0.4414(4) 0.1362(5) 0.30006(17)
H7_2 H 0.6902 0.0665 0.5414
C7_2 C 0.6425(7) 0.0501(8) 0.4667(2)
H8_2 H 0.6495 0.1541 0.4599
C10_2 C 0.4893(5) 0.0353(8) 0.2735(2)
C11_2 C 0.6059(5) 0.0310(7) 0.2724(2)
C12_2 C 0.6809(5) 0.1354(6) 0.3005(2)
C13_2 C 0.6321(5) 0.2397(7) 0.3285(2)
H12_2 H 0.6790 0.3115 0.3484
C14_2 C 0.5129(5) 0.2363(7) 0.3266(2)
H13_2 H 0.4812 0.3089 0.3452
C15_2 C 0.8088(5) 0.1319(6) 0.3021(2)
C16_2 C 0.8555(6) 0.0762(9) 0.2623(2)
H14_2 H 0.8063 0.0399 0.2335
C17_2 C 0.9750(5) 0.0752(8) 0.2658(2)
C19_2 C 0.8889(6) 0.1861(9) 0.3424(3)
H17_2 H 0.8631 0.2275 0.3698
O9_2 O 0.2919(4) 0.1185(4) 0.38597(14)
S1_2 S 0.55436(17) 0.6601(2) 0.38841(6)
O1_2 O 0.2436(3) 0.8909(4) 0.28907(14)
O3_2 O 0.5777(5) 0.7310(7) 0.34410(17)
O4_2 O 0.6063(5) 0.5155(6) 0.40502(19)
O5_2 O 0.6918(6) 0.6417(5) 0.58516(17)
O6_2 O 0.7081(4) 0.8815(4) 0.61403(14)
N1_2 N 0.4156(5) 0.6359(6) 0.38054(19)
H3_2 H 0.3884 0.5485 0.3875
C1_2 C 0.2911(5) 0.7675(6) 0.30532(19)
C2_2 C 0.3355(6) 0.7595(7) 0.3619(2)
H4_2 H 0.2682 0.7510 0.3777
H5_2 H 0.3739 0.8560 0.3727
C3_2 C 0.5967(6) 0.7931(7) 0.4381(2)
C4_2 C 0.6205(5) 0.7404(7) 0.4871(2)
H6_2 H 0.6126 0.6366 0.4937
C5_2 C 0.6562(5) 0.8427(6) 0.5261(2)
C6_2 C 0.6666(6) 0.9974(7) 0.5153(2)
C8_2 C 0.6073(7) 0.9456(8) 0.4272(2)
H9_2 H 0.5913 0.9794 0.3942
C9_2 C 0.6859(5) 0.7855(6) 0.5795(2)
H10_2 H 0.4405 0.9634 0.2545
H11_2 H 0.6346 0.9583 0.2530
Mn3_2 Mn 0.75385(7) 0.86613(9) 0.69667(3)
O5_3 O 0.1918(6) 0.8583(5) 0.08516(17)
C5_3 C 0.1562(5) 0.6573(6) 0.0261(2)
C6_3 C 0.1666(6) 0.5026(7) 0.0153(2)
H7_3 H 0.1902 0.4335 0.0414
C9_3 C 0.1859(5) 0.7145(6) 0.0795(2)
S1_3 S 0.05436(17) 0.8399(2) 0.88841(6)
O3_3 O 0.0777(5) 0.7690(7) 0.84410(17)
O4_3 O 0.1063(5) 0.9845(6) 0.90502(19)
N3_2 N 0.5513(4) 0.3769(6) 0.80497(18)
C3_3 C 0.0967(6) 0.7069(7) 0.9381(2)
C4_3 C 0.1205(5) 0.7596(7) 0.9871(2)
H6_3 H 0.1126 0.8634 0.9937
C7_3 C 0.1425(7) 0.4499(8) 0.9667(2)
H8_3 H 0.1495 0.3459 0.9599
C8_3 C 0.1073(7) 0.5544(8) 0.9272(2)
H9_3 H 0.0913 0.5206 0.8942
C11_3 C 0.1059(5) 0.4690(7) 0.7724(2)
H11_3 H 0.1346 0.5417 0.7530
C12_3 C 0.1809(5) 0.3646(6) 0.8005(2)
C13_3 C 0.1321(5) 0.2603(7) 0.8285(2)
H12_3 H 0.1790 0.1885 0.8484
C14_3 C 0.0129(5) 0.2637(7) 0.8266(2)
C15_3 C 0.3088(5) 0.3681(6) 0.8021(2)
C16_3 C 0.3555(6) 0.4238(9) 0.7623(2)
H14_3 H 0.3063 0.4601 0.7335
C17_3 C 0.4750(5) 0.4248(8) 0.7658(2)
H15_3 H 0.5036 0.4621 0.7386
C18_3 C 0.5066(6) 0.3205(10) 0.8426(3)
H16_3 H 0.5582 0.2834 0.8706
C19_3 C 0.3889(6) 0.3139(9) 0.8424(3)
H17_3 H 0.3631 0.2725 0.8698
O1_3 O 0.7436(3) 0.6091(4) 0.78907(14)
O2_2 O 0.8011(3) 0.8469(4) 0.77880(13)
O7_3 O 0.7352(4) 0.1215(4) 0.81678(14)
H1_3 H 0.7553 0.1137 0.8480
H2_3 H 0.7589 0.0448 0.8033
N1_3 N 0.9156(5) 0.8641(6) 0.88054(19)
H3_3 H 0.8884 0.9515 0.8875
N2_3 N 0.9414(4) 0.3638(5) 0.80006(17)
C1_3 C 0.7911(5) 0.7325(6) 0.80532(19)
C2_3 C 0.8355(6) 0.7405(7) 0.8619(2)
H4_3 H 0.7682 0.7490 0.8777
H5_3 H 0.8739 0.6440 0.8727
C10_3 C 0.9893(5) 0.4647(8) 0.7735(2)
H10_3 H 0.9405 0.5366 0.7545
H13_3 H 0.9812 0.1911 0.8452
O8_2 O 0.6989(3) 0.3469(4) 0.72120(13)
S1_4 S 0.44564(17) 0.3399(2) 0.61159(6)
O1_4 O 0.7564(3) 0.1091(4) 0.71093(14)
O3_4 O 0.4223(5) 0.2690(7) 0.65590(17)
O4_4 O 0.3937(5) 0.4845(6) 0.59498(19)
O5_4 O 0.3082(6) 0.3583(5) 0.41484(17)
N1_4 N 0.5844(5) 0.3641(6) 0.61946(19)
H3_4 H 0.6116 0.4515 0.6125
C1_4 C 0.7089(5) 0.2325(6) 0.69468(19)
C2_4 C 0.6645(6) 0.2405(7) 0.6381(2)
H4_4 H 0.7318 0.2490 0.6223
H5_4 H 0.6261 0.1440 0.6273
C3_4 C 0.4033(6) 0.2069(7) 0.5619(2)
C4_4 C 0.3795(5) 0.2596(7) 0.5129(2)
H6_4 H 0.3874 0.3634 0.5063
C5_4 C 0.3438(5) 0.1573(6) 0.4739(2)
C6_4 C 0.3334(6) 0.0026(7) 0.4847(2)
C8_4 C 0.3927(7) 0.0544(8) 0.5728(2)
H9_4 H 0.4087 0.0206 0.6058
C9_4 C 0.3141(5) 0.2145(6) 0.4205(2)
H10_4 H 0.5595 0.0366 0.7455
H11_4 H 0.3654 0.0417 0.7470
O7_4 O 0.7648(4) 0.6215(4) 0.68322(14)
H1_4 H 0.7447 0.6137 0.6520
H2_4 H 0.7411 0.5448 0.6967
N2_4 N 0.5586(4) 0.8638(5) 0.69994(17)
H7_4 H 0.3098 0.9335 0.4586
C7_4 C 0.3575(7) 0.9499(8) 0.5333(2)
H8_4 H 0.3505 0.8459 0.5401
C10_4 C 0.5107(5) 0.9647(8) 0.7265(2)
C11_4 C 0.3941(5) 0.9690(7) 0.7276(2)
C12_4 C 0.3191(5) 0.8646(6) 0.6995(2)
C13_4 C 0.3679(5) 0.7603(7) 0.6715(2)
H12_4 H 0.3210 0.6885 0.6516
C14_4 C 0.4871(5) 0.7637(7) 0.6734(2)
H13_4 H 0.5188 0.6911 0.6548
C15_4 C 0.1912(5) 0.8681(6) 0.6979(2)
C16_4 C 0.1445(6) 0.9238(9) 0.7377(2)
H14_4 H 0.1937 0.9601 0.7665
C17_4 C 0.0250(5) 0.9248(8) 0.7342(2)
C19_4 C 0.1111(6) 0.8139(9) 0.6576(3)
H17_4 H 0.1369 0.7725 0.6302
N4_2 N 0.9487(4) 0.8769(6) 0.69503(18)
H15_4 H 0.9964 0.9621 0.7614
C18_4 C 0.9934(6) 0.8205(10) 0.6574(3)
H16_4 H 0.9418 0.7834 0.6294
loop_
_geom_bond_atom_site_label_1
_geom_bond_atom_site_label_2
_geom_bond_site_symmetry_1
_geom_bond_site_symmetry_2
Mn1 O1 1_555 1_555
O1 C1 1_555 1_555
O2 C1 1_555 1_555
O7 Mn1 1_555 1_555
H1 O7 1_555 1_555
H2 O7 1_555 1_555
H3 N1 1_555 1_555
N2 Mn1 1_555 1_555
C1 C2 1_555 1_555
C2 N1 1_555 1_555
H4 C2 1_555 1_555
H5 C2 1_555 1_555
C10 N2 1_555 1_555
H10 C10 1_555 1_555
Mn2 O2 1_555 1_555
O8 Mn1 1_555 1_555
O9 Mn1 1_555 1_555
N4 Mn1 1_555 1_555
S1 O3 1_555 1_555
O4 S1 1_555 1_555
N4 C17 1_555 1_555
C3 S1 1_555 1_555
C4 C3 1_555 1_555
H6 C4 1_555 1_555
H8 C7 1_555 1_555
C8 C3 1_555 1_555
H9 C8 1_555 1_555
H11 C11 1_555 1_555
C12 C11 1_555 1_555
C13 C12 1_555 1_555
H12 C13 1_555 1_555
C15 C12 1_555 1_555
C16 C15 1_555 1_555
H14 C16 1_555 1_555
C17 C16 1_555 1_555
H15 C17 1_555 1_555
C18 N4 1_555 1_555
H16 C18 1_555 1_555
C19 C15 1_555 1_555
H17 C19 1_555 1_555
C7 C8 1_555 1_555
C13 C14 1_555 1_555
C18 C19 1_555 1_555
O5 C9 1_555 1_555
O6 C9 1_555 1_555
C6 C5 1_555 1_555
H7 C6 1_555 1_555
C9 C5 1_555 1_555
Mn3 O6 1_555 1_555
C18_2 N3 1_555 1_555
H16_2 C18_2 1_555 1_555
Mn2 N3 1_555 1_555
O7_2 Mn2 1_555 1_555
H1_2 O7_2 1_555 1_555
H2_2 O7_2 1_555 1_555
N2_2 Mn2 1_555 1_555
H8_2 C7_2 1_555 1_555
C10_2 N2_2 1_555 1_555
C11_2 C10_2 1_555 1_555
C12_2 C11_2 1_555 1_555
C13_2 C12_2 1_555 1_555
H12_2 C13_2 1_555 1_555
C14_2 N2_2 1_555 1_555
H13_2 C14_2 1_555 1_555
C15_2 C12_2 1_555 1_555
C16_2 C15_2 1_555 1_555
H14_2 C16_2 1_555 1_555
C17_2 C16_2 1_555 1_555
C19_2 C15_2 1_555 1_555
H17_2 C19_2 1_555 1_555
O9_2 Mn2 1_555 1_555
C13_2 C14_2 1_555 1_555
S1_2 O3_2 1_555 1_555
O1_2 C1_2 1_555 1_555
O8 C1_2 1_555 1_555
O4_2 S1_2 1_555 1_555
O5_2 C9_2 1_555 1_555
O6_2 C9_2 1_555 1_555
N1_2 S1_2 1_555 1_555
H3_2 N1_2 1_555 1_555
C1_2 C2_2 1_555 1_555
C2_2 N1_2 1_555 1_555
H4_2 C2_2 1_555 1_555
H5_2 C2_2 1_555 1_555
C3_2 S1_2 1_555 1_555
C4_2 C3_2 1_555 1_555
H6_2 C4_2 1_555 1_555
C5_2 C4_2 1_555 1_555
C6_2 C5_2 1_555 1_555
C8_2 C3_2 1_555 1_555
H9_2 C8_2 1_555 1_555
C9_2 C5_2 1_555 1_555
Mn3_2 O6_2 1_555 1_555
O5_3 C9_3 1_555 1_555
O9 C9_3 1_555 1_555
C6_3 C5_3 1_555 1_555
H7_3 C6_3 1_555 1_555
C9_3 C5_3 1_555 1_555
S1_3 O3_3 1_555 1_555
O4_3 S1_3 1_555 1_555
N3_2 C17_3 1_555 1_555
C3_3 S1_3 1_555 1_555
C4_3 C3_3 1_555 1_555
H6_3 C4_3 1_555 1_555
H8_3 C7_3 1_555 1_555
C8_3 C3_3 1_555 1_555
H9_3 C8_3 1_555 1_555
H11_3 C11_3 1_555 1_555
C12_3 C11_3 1_555 1_555
C13_3 C12_3 1_555 1_555
H12_3 C13_3 1_555 1_555
C15_3 C12_3 1_555 1_555
C16_3 C15_3 1_555 1_555
H14_3 C16_3 1_555 1_555
C17_3 C16_3 1_555 1_555
H15_3 C17_3 1_555 1_555
C18_3 N3_2 1_555 1_555
H16_3 C18_3 1_555 1_555
C19_3 C15_3 1_555 1_555
H17_3 C19_3 1_555 1_555
Mn3 N3_2 1_555 1_555
C7_3 C8_3 1_555 1_555
C13_3 C14_3 1_555 1_555
C18_3 C19_3 1_555 1_555
Mn3 O1_3 1_555 1_555
O1_3 C1_3 1_555 1_555
O2_2 C1_3 1_555 1_555
O7_3 Mn3 1_555 1_555
H1_3 O7_3 1_555 1_555
H2_3 O7_3 1_555 1_555
H3_3 N1_3 1_555 1_555
N2_3 Mn3 1_555 1_555
C1_3 C2_3 1_555 1_555
C2_3 N1_3 1_555 1_555
H4_3 C2_3 1_555 1_555
H5_3 C2_3 1_555 1_555
C10_3 N2_3 1_555 1_555
H10_3 C10_3 1_555 1_555
Mn3_2 O2_2 1_555 1_555
O8_2 Mn3 1_555 1_555
S1_4 O3_4 1_555 1_555
O1_4 C1_4 1_555 1_555
O8_2 C1_4 1_555 1_555
O4_4 S1_4 1_555 1_555
O5_4 C9_4 1_555 1_555
O9_2 C9_4 1_555 1_555
N1_4 S1_4 1_555 1_555
H3_4 N1_4 1_555 1_555
C1_4 C2_4 1_555 1_555
C2_4 N1_4 1_555 1_555
H4_4 C2_4 1_555 1_555
H5_4 C2_4 1_555 1_555
C3_4 S1_4 1_555 1_555
C4_4 C3_4 1_555 1_555
H6_4 C4_4 1_555 1_555
C5_4 C4_4 1_555 1_555
C6_4 C5_4 1_555 1_555
C8_4 C3_4 1_555 1_555
H9_4 C8_4 1_555 1_555
C9_4 C5_4 1_555 1_555
O7_4 Mn3_2 1_555 1_555
H1_4 O7_4 1_555 1_555
H2_4 O7_4 1_555 1_555
N2_4 Mn3_2 1_555 1_555
H8_4 C7_4 1_555 1_555
C10_4 N2_4 1_555 1_555
C11_4 C10_4 1_555 1_555
C12_4 C11_4 1_555 1_555
C13_4 C12_4 1_555 1_555
H12_4 C13_4 1_555 1_555
C14_4 N2_4 1_555 1_555
H13_4 C14_4 1_555 1_555
C15_4 C12_4 1_555 1_555
C16_4 C15_4 1_555 1_555
H14_4 C16_4 1_555 1_555
C17_4 C16_4 1_555 1_555
C19_4 C15_4 1_555 1_555
H17_4 C19_4 1_555 1_555
N4_2 Mn3_2 1_555 1_555
C13_4 C14_4 1_555 1_555
C18_4 N4_2 1_555 1_555
H16_4 C18_4 1_555 1_555

#END
