
###############################################################################
#
# This file contains modified crystal structure data generated from the
# MOF subset of the Cambridge Structural Database (CSD) v543 
# hosted by the Cambridge Crystallographic Data Centre (CCDC).
#
# This work is licensed under the Creative Commons
# Attribution-NonCommercial-ShareAlike 4.0 International License.
# To view a copy of this license, visit
# http://creativecommons.org/licenses/by-nc-sa/4.0/
# or send a letter to
# Creative Commons, PO Box 1866, Mountain View, CA 94042, USA.
#
# CIF created using the CSD Python API on 29 September 2022
# The structure has been converted into the P1 space group
# The structure has a 3D framework
# The original CSD entry RIXBEG is in the monoclinic crystal system
# The framework has been calculated to contain at least 10.0% void space
# The void calculation uses a probe of radius 1.32A, grid spacing 0.4
#
###############################################################################

data_RIXBEG
_chemical_formula_moiety         '(C192 H168 Mn8 N32 O54 S8)n'
_symmetry_cell_setting           triclinic
_symmetry_space_group_name_H-M   'P 1'
_symmetry_Int_Tables_number      1
_space_group_name_Hall           'P 1'
loop_
_symmetry_equiv_pos_site_id
_symmetry_equiv_pos_as_xyz
1 x,y,z
_cell_length_a                   25.2321(16)
_cell_length_b                   8.6715(5)
_cell_length_c                   27.4412(17)
_cell_angle_alpha                90
_cell_angle_beta                 94.0970(10)
_cell_angle_gamma                90
_cell_volume                     5988.8
loop_
_atom_site_label
_atom_site_type_symbol
_atom_site_fract_x
_atom_site_fract_y
_atom_site_fract_z
N3 N 0.0993(3) 0.5343(14) 0.8638(4)
C16 C 0.0233(3) 0.6632(19) 0.8270(5)
H14 H 0.0105 0.7485 0.8093
C17 C 0.0771(4) 0.645(2) 0.8381(6)
H15 H 0.0994 0.7182 0.8259
C18 C 0.0653(3) 0.4211(15) 0.8803(5)
H16 H 0.0796 0.3378 0.8981
C19 C 0.0108(3) 0.4308(13) 0.8707(4)
O5 O 0.79265(19) 0.1132(3) 0.09589(12)
C8 C 0.80912(16) 0.0070(5) 0.00310(13)
H9 H 0.8043 0.1124 0.0072
S1 S 0.82709(5) 0.07852(15) 0.90883(4)
O2 O 0.76089(11) 0.0917(3) 0.78104(9)
O4 O 0.84654(17) 0.2217(5) 0.92938(13)
N1 N 0.76863(15) 0.1117(4) 0.88409(12)
H3 H 0.7551 0.2023 0.8860
H4 H 0.7006 0.0079 0.8620
Mn3 Mn 0.77096(2) 0.10654(6) 0.702525(18)
O6 O 0.78375(12) 0.8746(3) 0.12405(9)
C6 C 0.81211(16) 0.7484(5) 0.03500(14)
H8 H 0.8096 0.6808 0.0610
C7 C 0.80513(15) 0.9063(4) 0.04209(13)
C9 C 0.79281(16) 0.9692(4) 0.09105(13)
Mn4 Mn 0.77096(2) 0.89346(6) 0.202525(18)
Mn1 Mn 0.72904(2) 0.60654(6) 0.797475(18)
O1 O 0.73521(12) 0.8482(3) 0.78473(10)
O3 O 0.85625(15) 0.9977(5) 0.87353(13)
O7 O 0.71450(13) 0.3633(3) 0.80842(10)
H1 H 0.7085 0.3446 0.8371
H2 H 0.7315 0.2914 0.7967
N2 N 0.81972(14) 0.5929(4) 0.81361(13)
N4 N 0.63889(13) 0.6208(4) 0.77916(13)
C1 C 0.74636(13) 0.9749(4) 0.80386(12)
C2 C 0.73806(16) 0.9896(4) 0.85835(13)
H5 H 0.7472 0.8920 0.8740
C3 C 0.82044(16) 0.9476(5) 0.95776(14)
C4 C 0.82661(18) 0.7909(6) 0.95056(15)
H6 H 0.8333 0.7528 0.9199
C5 C 0.82274(18) 0.6916(5) 0.98968(15)
H7 H 0.8273 0.5861 0.9854
C10 C 0.85350(19) 0.6840(9) 0.7919(2)
H10 H 0.8396 0.7599 0.7707
C11 C 0.9080(2) 0.6716(11) 0.7994(3)
H11 H 0.9297 0.7347 0.7819
C12 C 0.9306(2) 0.5671(9) 0.8323(2)
C13 C 0.8957(2) 0.4789(7) 0.8571(3)
H12 H 0.9086 0.4087 0.8807
C14 C 0.84124(19) 0.4957(6) 0.8466(2)
H13 H 0.8186 0.4349 0.8638
C15 C 0.9891(2) 0.5555(11) 0.8423(3)
H17 H 0.9886 0.3563 0.8826
C20 C 0.6186(2) 0.6454(10) 0.7356(2)
H18 H 0.6416 0.6669 0.7114
C21 C 0.5645(2) 0.6419(11) 0.7224(2)
H19 H 0.5526 0.6564 0.6899
C22 C 0.52898(16) 0.6175(5) 0.75622(16)
C23 C 0.5501(2) 0.5846(12) 0.8016(2)
H20 H 0.5282 0.5604 0.8263
C24 C 0.6048(2) 0.5872(12) 0.8109(2)
H21 H 0.6182 0.5630 0.8425
Mn5 Mn 0.27096(2) 0.60654(6) 0.702525(18)
Mn6 Mn 0.72904(2) 0.39346(6) 0.297475(18)
S2 S 0.67291(5) 0.57852(15) 0.59117(4)
O8 O 0.76479(12) 0.3482(3) 0.71527(10)
O9 O 0.73911(11) 0.5917(3) 0.71896(9)
O11 O 0.64375(15) 0.4977(5) 0.62647(13)
O12 O 0.65346(17) 0.7217(5) 0.57062(13)
O13 O 0.70735(19) 0.6132(3) 0.40411(12)
O14 O 0.71625(12) 0.3746(3) 0.37595(9)
O15 O 0.71625(12) 0.6254(3) 0.87595(9)
O16 O 0.78375(12) 0.1254(3) 0.62405(9)
N5 N 0.73137(15) 0.6117(4) 0.61591(12)
H24 H 0.7449 0.7023 0.6140
N6 N 0.68028(14) 0.0929(4) 0.68639(13)
N7 N 0.4007(3) 0.0343(14) 0.6362(4)
N8 N 0.36111(13) 0.6208(4) 0.72084(13)
N9 N 0.86111(13) 0.1208(4) 0.72084(13)
C25 C 0.75364(13) 0.4749(4) 0.69614(12)
C26 C 0.76194(16) 0.4896(4) 0.64165(13)
H25 H 0.7994 0.5079 0.6380
H26 H 0.7528 0.3920 0.6260
C27 C 0.67956(16) 0.4476(5) 0.54224(14)
C28 C 0.67339(18) 0.2909(6) 0.54944(15)
H27 H 0.6667 0.2528 0.5801
C29 C 0.67726(18) 0.1916(5) 0.51032(15)
H28 H 0.6727 0.0861 0.5146
C30 C 0.68789(16) 0.2484(5) 0.46500(14)
H29 H 0.6904 0.1808 0.4390
C31 C 0.69487(15) 0.4063(4) 0.45791(13)
C32 C 0.69088(16) 0.5070(5) 0.49690(13)
H30 H 0.6957 0.6124 0.4928
C33 C 0.70719(16) 0.4692(4) 0.40895(13)
C34 C 0.64650(19) 0.1840(9) 0.7081(2)
H31 H 0.6604 0.2599 0.7293
C35 C 0.5920(2) 0.1716(11) 0.7006(3)
H32 H 0.5703 0.2347 0.7181
C36 C 0.5694(2) 0.0671(9) 0.6677(2)
C39 C 0.5109(2) 0.0555(11) 0.6577(3)
C40 C 0.4767(3) 0.1632(19) 0.6730(5)
H35 H 0.4895 0.2485 0.6907
C41 C 0.4229(4) 0.145(2) 0.6619(6)
H36 H 0.4006 0.2182 0.6741
C44 C 0.3814(2) 0.6454(10) 0.7644(2)
H39 H 0.3584 0.6669 0.7886
C45 C 0.4355(2) 0.6419(11) 0.7776(2)
H40 H 0.4474 0.6564 0.8101
C46 C 0.47102(16) 0.6175(5) 0.74378(16)
C47 C 0.4499(2) 0.5846(12) 0.6984(2)
H41 H 0.4718 0.5604 0.6737
C48 C 0.3952(2) 0.5872(12) 0.6891(2)
H42 H 0.3818 0.5630 0.6575
O17 O 0.78550(13) 0.8633(3) 0.69158(10)
H22 H 0.7915 0.8446 0.6629
H23 H 0.7685 0.7914 0.7033
C37 C 0.6043(2) 0.9789(7) 0.6429(3)
H33 H 0.5914 0.9087 0.6193
C38 C 0.65876(19) 0.9957(6) 0.6534(2)
H34 H 0.6814 0.9349 0.6362
C42 C 0.4347(3) 0.9211(15) 0.6197(5)
H37 H 0.4204 0.8378 0.6019
C43 C 0.4892(3) 0.9308(13) 0.6293(4)
H38 H 0.5114 0.8563 0.6174
O5_2 O 0.29265(19) 0.6132(3) 0.09589(12)
O6_2 O 0.28375(12) 0.3746(3) 0.12405(9)
C6_2 C 0.31211(16) 0.2484(5) 0.03500(14)
H8_2 H 0.3096 0.1808 0.0610
C7_2 C 0.30513(15) 0.4063(4) 0.04209(13)
C8_2 C 0.30912(16) 0.5070(5) 0.00310(13)
H9_2 H 0.3043 0.6124 0.0072
C9_2 C 0.29281(16) 0.4692(4) 0.09105(13)
Mn4_2 Mn 0.27096(2) 0.39346(6) 0.202525(18)
Mn1_2 Mn 0.22904(2) 0.10654(6) 0.797475(18)
S1_2 S 0.32709(5) 0.57852(15) 0.90883(4)
O1_2 O 0.23521(12) 0.3482(3) 0.78473(10)
O2_2 O 0.26089(11) 0.5917(3) 0.78104(9)
O3_2 O 0.35625(15) 0.4977(5) 0.87353(13)
O4_2 O 0.34654(17) 0.7217(5) 0.92938(13)
N1_2 N 0.26863(15) 0.6117(4) 0.88409(12)
H3_2 H 0.2551 0.7023 0.8860
N2_2 N 0.31972(14) 0.0929(4) 0.81361(13)
N3_2 N 0.5993(3) 0.0343(14) 0.8638(4)
N4_2 N 0.13889(13) 0.1208(4) 0.77916(13)
C1_2 C 0.24636(13) 0.4749(4) 0.80386(12)
C2_2 C 0.23806(16) 0.4896(4) 0.85835(13)
H4_2 H 0.2006 0.5079 0.8620
H5_2 H 0.2472 0.3920 0.8740
C3_2 C 0.32044(16) 0.4476(5) 0.95776(14)
C4_2 C 0.32661(18) 0.2909(6) 0.95056(15)
H6_2 H 0.3333 0.2528 0.9199
C5_2 C 0.32274(18) 0.1916(5) 0.98968(15)
H7_2 H 0.3273 0.0861 0.9854
C10_2 C 0.35350(19) 0.1840(9) 0.7919(2)
H10_2 H 0.3396 0.2599 0.7707
C11_2 C 0.4080(2) 0.1716(11) 0.7994(3)
H11_2 H 0.4297 0.2347 0.7819
C12_2 C 0.4306(2) 0.0671(9) 0.8323(2)
C15_2 C 0.4891(2) 0.0555(11) 0.8423(3)
C16_2 C 0.5233(3) 0.1632(19) 0.8270(5)
H14_2 H 0.5105 0.2485 0.8093
C17_2 C 0.5771(4) 0.145(2) 0.8381(6)
H15_2 H 0.5994 0.2182 0.8259
C20_2 C 0.1186(2) 0.1454(10) 0.7356(2)
H18_2 H 0.1416 0.1669 0.7114
C21_2 C 0.0645(2) 0.1419(11) 0.7224(2)
H19_2 H 0.0526 0.1564 0.6899
C22_2 C 0.02898(16) 0.1175(5) 0.75622(16)
C23_2 C 0.0501(2) 0.0846(12) 0.8016(2)
H20_2 H 0.0282 0.0604 0.8263
C24_2 C 0.1048(2) 0.0872(12) 0.8109(2)
H21_2 H 0.1182 0.0630 0.8425
S2_2 S 0.17291(5) 0.07852(15) 0.59117(4)
O9_2 O 0.23911(11) 0.0917(3) 0.71896(9)
O12_2 O 0.15346(17) 0.2217(5) 0.57062(13)
O13_2 O 0.20735(19) 0.1132(3) 0.40411(12)
O15_2 O 0.21625(12) 0.1254(3) 0.87595(9)
N5_2 N 0.23137(15) 0.1117(4) 0.61591(12)
H24_2 H 0.2449 0.2023 0.6140
H25_2 H 0.2994 0.0079 0.6380
C32_2 C 0.19088(16) 0.0070(5) 0.49690(13)
H30_2 H 0.1957 0.1124 0.4928
O7_2 O 0.21450(13) 0.8633(3) 0.80842(10)
H1_2 H 0.2085 0.8446 0.8371
H2_2 H 0.2315 0.7914 0.7967
C13_2 C 0.3957(2) 0.9789(7) 0.8571(3)
H12_2 H 0.4086 0.9087 0.8807
C14_2 C 0.34124(19) 0.9957(6) 0.8466(2)
H13_2 H 0.3186 0.9349 0.8638
C18_2 C 0.5653(3) 0.9211(15) 0.8803(5)
H16_2 H 0.5796 0.8378 0.8981
C19_2 C 0.5108(3) 0.9308(13) 0.8707(4)
H17_2 H 0.4886 0.8563 0.8826
Mn6_2 Mn 0.22904(2) 0.89346(6) 0.297475(18)
O8_2 O 0.26479(12) 0.8482(3) 0.71527(10)
O11_2 O 0.14375(15) 0.9977(5) 0.62647(13)
O14_2 O 0.21625(12) 0.8746(3) 0.37595(9)
O16_2 O 0.28375(12) 0.6254(3) 0.62405(9)
O17_2 O 0.28550(13) 0.3633(3) 0.69158(10)
H22_2 H 0.2915 0.3446 0.6629
H23_2 H 0.2685 0.2914 0.7033
N6_2 N 0.18028(14) 0.5929(4) 0.68639(13)
C25_2 C 0.25364(13) 0.9749(4) 0.69614(12)
C26_2 C 0.26194(16) 0.9896(4) 0.64165(13)
H26_2 H 0.2528 0.8920 0.6260
C27_2 C 0.17956(16) 0.9476(5) 0.54224(14)
C28_2 C 0.17339(18) 0.7909(6) 0.54944(15)
H27_2 H 0.1667 0.7528 0.5801
C29_2 C 0.17726(18) 0.6916(5) 0.51032(15)
H28_2 H 0.1727 0.5861 0.5146
C30_2 C 0.18789(16) 0.7484(5) 0.46500(14)
H29_2 H 0.1904 0.6808 0.4390
C31_2 C 0.19487(15) 0.9063(4) 0.45791(13)
C33_2 C 0.20719(16) 0.9692(4) 0.40895(13)
C34_2 C 0.14650(19) 0.6840(9) 0.7081(2)
H31_2 H 0.1604 0.7599 0.7293
C35_2 C 0.0920(2) 0.6716(11) 0.7006(3)
H32_2 H 0.0703 0.7347 0.7181
C36_2 C 0.0694(2) 0.5671(9) 0.6677(2)
C37_2 C 0.1043(2) 0.4789(7) 0.6429(3)
H33_2 H 0.0914 0.4087 0.6193
C38_2 C 0.15876(19) 0.4957(6) 0.6534(2)
H34_2 H 0.1814 0.4349 0.6362
C39_2 C 0.0109(2) 0.5555(11) 0.6577(3)
H38_2 H 0.0114 0.3563 0.6174
C44_2 C 0.8814(2) 0.1454(10) 0.7644(2)
H39_2 H 0.8584 0.1669 0.7886
C45_2 C 0.9355(2) 0.1419(11) 0.7776(2)
H40_2 H 0.9474 0.1564 0.8101
C46_2 C 0.97102(16) 0.1175(5) 0.74378(16)
C47_2 C 0.9499(2) 0.0846(12) 0.6984(2)
H41_2 H 0.9718 0.0604 0.6737
C48_2 C 0.8952(2) 0.0872(12) 0.6891(2)
H42_2 H 0.8818 0.0630 0.6575
O17_3 O 0.21450(13) 0.1367(3) 0.30842(10)
H22_3 H 0.2085 0.1554 0.3371
H23_3 H 0.2315 0.2086 0.2967
C37_3 C 0.3957(2) 0.0211(7) 0.3571(3)
H33_3 H 0.4086 0.0913 0.3807
C38_3 C 0.34124(19) 0.0043(6) 0.3466(2)
H34_3 H 0.3186 0.0651 0.3638
C42_2 C 0.5653(3) 0.0789(15) 0.3803(5)
H37_2 H 0.5796 0.1622 0.3981
C43_2 C 0.5108(3) 0.0692(13) 0.3707(4)
H38_3 H 0.4886 0.1437 0.3826
O1_3 O 0.26479(12) 0.1518(3) 0.21527(10)
O3_3 O 0.14375(15) 0.0023(5) 0.12647(13)
O7_3 O 0.28550(13) 0.6367(3) 0.19158(10)
H1_3 H 0.2915 0.6554 0.1629
H2_3 H 0.2685 0.7086 0.2033
N2_3 N 0.18028(14) 0.4071(4) 0.18639(13)
N4_3 N 0.36111(13) 0.3792(4) 0.22084(13)
C1_3 C 0.25364(13) 0.0251(4) 0.19614(12)
C2_3 C 0.26194(16) 0.0104(4) 0.14165(13)
H5_3 H 0.2528 0.1080 0.1260
C3_3 C 0.17956(16) 0.0524(5) 0.04224(14)
C4_3 C 0.17339(18) 0.2091(6) 0.04944(15)
H6_3 H 0.1667 0.2472 0.0801
C5_3 C 0.17726(18) 0.3084(5) 0.01032(15)
H7_3 H 0.1727 0.4139 0.0146
C10_3 C 0.14650(19) 0.3160(9) 0.2081(2)
H10_3 H 0.1604 0.2401 0.2293
C11_3 C 0.0920(2) 0.3284(11) 0.2006(3)
H11_3 H 0.0703 0.2653 0.2181
C12_3 C 0.0694(2) 0.4329(9) 0.1677(2)
C13_3 C 0.1043(2) 0.5211(7) 0.1429(3)
H12_3 H 0.0914 0.5913 0.1193
C14_3 C 0.15876(19) 0.5043(6) 0.1534(2)
H13_3 H 0.1814 0.5651 0.1362
C15_3 C 0.0109(2) 0.4445(11) 0.1577(3)
H17_3 H 0.0114 0.6437 0.1174
C20_3 C 0.3814(2) 0.3546(10) 0.2644(2)
H18_3 H 0.3584 0.3331 0.2886
C21_3 C 0.4355(2) 0.3581(11) 0.2776(2)
H19_3 H 0.4474 0.3436 0.3101
C22_3 C 0.47102(16) 0.3825(5) 0.24378(16)
C23_3 C 0.4499(2) 0.4154(12) 0.1984(2)
H20_3 H 0.4718 0.4396 0.1737
C24_3 C 0.3952(2) 0.4128(12) 0.1891(2)
H21_3 H 0.3818 0.4370 0.1575
S2_3 S 0.32709(5) 0.42148(15) 0.40883(4)
O8_3 O 0.23521(12) 0.6518(3) 0.28473(10)
O9_3 O 0.26089(11) 0.4083(3) 0.28104(9)
O10 O 0.23911(11) 0.9083(3) 0.21896(9)
O11_3 O 0.35625(15) 0.5023(5) 0.37353(13)
O12_3 O 0.34654(17) 0.2783(5) 0.42938(13)
O13_3 O 0.29265(19) 0.3868(3) 0.59589(12)
N5_3 N 0.26863(15) 0.3883(4) 0.38409(12)
H24_3 H 0.2551 0.2977 0.3860
N6_3 N 0.31972(14) 0.9071(4) 0.31361(13)
N7_2 N 0.5993(3) 0.9657(14) 0.3638(4)
N8_2 N 0.63889(13) 0.3792(4) 0.27916(13)
N9_2 N 0.13889(13) 0.8792(4) 0.27916(13)
C25_3 C 0.24636(13) 0.5251(4) 0.30386(12)
C26_3 C 0.23806(16) 0.5104(4) 0.35835(13)
H25_3 H 0.2006 0.4921 0.3620
H26_3 H 0.2472 0.6080 0.3740
C27_3 C 0.32044(16) 0.5524(5) 0.45776(14)
C28_3 C 0.32661(18) 0.7091(6) 0.45056(15)
H27_3 H 0.3333 0.7472 0.4199
C29_3 C 0.32274(18) 0.8084(5) 0.48968(15)
H28_3 H 0.3273 0.9139 0.4854
C30_3 C 0.31211(16) 0.7516(5) 0.53500(14)
H29_3 H 0.3096 0.8192 0.5610
C31_3 C 0.30513(15) 0.5937(4) 0.54209(13)
C32_3 C 0.30912(16) 0.4930(5) 0.50310(13)
H30_3 H 0.3043 0.3876 0.5072
C33_3 C 0.29281(16) 0.5308(4) 0.59105(13)
C34_3 C 0.35350(19) 0.8160(9) 0.2919(2)
H31_3 H 0.3396 0.7401 0.2707
C35_3 C 0.4080(2) 0.8284(11) 0.2994(3)
H32_3 H 0.4297 0.7653 0.2819
C36_3 C 0.4306(2) 0.9329(9) 0.3323(2)
C39_3 C 0.4891(2) 0.9445(11) 0.3423(3)
C40_2 C 0.5233(3) 0.8368(19) 0.3270(5)
H35_2 H 0.5105 0.7515 0.3093
C41_2 C 0.5771(4) 0.855(2) 0.3381(6)
H36_2 H 0.5994 0.7818 0.3259
C44_3 C 0.6186(2) 0.3546(10) 0.2356(2)
H39_3 H 0.6416 0.3331 0.2114
C45_3 C 0.5645(2) 0.3581(11) 0.2224(2)
H40_3 H 0.5526 0.3436 0.1899
C46_3 C 0.52898(16) 0.3825(5) 0.25622(16)
C47_3 C 0.5501(2) 0.4154(12) 0.3016(2)
H41_3 H 0.5282 0.4396 0.3263
C48_3 C 0.6048(2) 0.4128(12) 0.3109(2)
H42_3 H 0.6182 0.4370 0.3425
C6_3 C 0.18789(16) 0.2516(5) 0.96500(14)
H8_3 H 0.1904 0.3192 0.9390
C7_3 C 0.19487(15) 0.0937(4) 0.95791(13)
C9_3 C 0.20719(16) 0.0308(4) 0.90895(13)
S1_3 S 0.17291(5) 0.92148(15) 0.09117(4)
O4_3 O 0.15346(17) 0.7783(5) 0.07062(13)
N1_3 N 0.23137(15) 0.8883(4) 0.11591(12)
H3_3 H 0.2449 0.7977 0.1140
H4_3 H 0.2994 0.9921 0.1380
C44_4 C 0.1186(2) 0.8546(10) 0.2356(2)
H39_4 H 0.1416 0.8331 0.2114
C45_4 C 0.0645(2) 0.8581(11) 0.2224(2)
H40_4 H 0.0526 0.8436 0.1899
C46_4 C 0.02898(16) 0.8825(5) 0.25622(16)
C47_4 C 0.0501(2) 0.9154(12) 0.3016(2)
H41_4 H 0.0282 0.9396 0.3263
C48_4 C 0.1048(2) 0.9128(12) 0.3109(2)
H42_4 H 0.1182 0.9370 0.3425
O7_4 O 0.78550(13) 0.1367(3) 0.19158(10)
H1_4 H 0.7915 0.1554 0.1629
H2_4 H 0.7685 0.2086 0.2033
C13_4 C 0.6043(2) 0.0211(7) 0.1429(3)
H12_4 H 0.5914 0.0913 0.1193
C14_4 C 0.65876(19) 0.0043(6) 0.1534(2)
H13_4 H 0.6814 0.0651 0.1362
C18_3 C 0.4347(3) 0.0789(15) 0.1197(5)
H16_3 H 0.4204 0.1622 0.1019
C19_3 C 0.4892(3) 0.0692(13) 0.1293(4)
H17_4 H 0.5114 0.1437 0.1174
O8_4 O 0.73521(12) 0.1518(3) 0.28473(10)
O10_2 O 0.73911(11) 0.4083(3) 0.21896(9)
O11_4 O 0.85625(15) 0.0023(5) 0.37353(13)
O17_4 O 0.71450(13) 0.6367(3) 0.30842(10)
H22_4 H 0.7085 0.6554 0.3371
H23_4 H 0.7315 0.7086 0.2967
N6_4 N 0.81972(14) 0.4071(4) 0.31361(13)
C25_4 C 0.74636(13) 0.0251(4) 0.30386(12)
C26_4 C 0.73806(16) 0.0104(4) 0.35835(13)
H26_4 H 0.7472 0.1080 0.3740
C27_4 C 0.82044(16) 0.0524(5) 0.45776(14)
C28_4 C 0.82661(18) 0.2091(6) 0.45056(15)
H27_4 H 0.8333 0.2472 0.4199
C29_4 C 0.82274(18) 0.3084(5) 0.48968(15)
H28_4 H 0.8273 0.4139 0.4854
C30_4 C 0.81211(16) 0.2516(5) 0.53500(14)
H29_4 H 0.8096 0.3192 0.5610
C31_4 C 0.80513(15) 0.0937(4) 0.54209(13)
C33_4 C 0.79281(16) 0.0308(4) 0.59105(13)
C34_4 C 0.85350(19) 0.3160(9) 0.2919(2)
H31_4 H 0.8396 0.2401 0.2707
C35_4 C 0.9080(2) 0.3284(11) 0.2994(3)
H32_4 H 0.9297 0.2653 0.2819
C36_4 C 0.9306(2) 0.4329(9) 0.3323(2)
C37_4 C 0.8957(2) 0.5211(7) 0.3571(3)
H33_4 H 0.9086 0.5913 0.3807
C38_4 C 0.84124(19) 0.5043(6) 0.3466(2)
H34_4 H 0.8186 0.5651 0.3638
C39_4 C 0.9891(2) 0.4445(11) 0.3423(3)
H38_4 H 0.9886 0.6437 0.3826
S1_4 S 0.67291(5) 0.42148(15) 0.09117(4)
O1_4 O 0.76479(12) 0.6518(3) 0.21527(10)
O3_4 O 0.64375(15) 0.5023(5) 0.12647(13)
O4_4 O 0.65346(17) 0.2783(5) 0.07062(13)
N1_4 N 0.73137(15) 0.3883(4) 0.11591(12)
H3_4 H 0.7449 0.2977 0.1140
N2_4 N 0.68028(14) 0.9071(4) 0.18639(13)
N3_3 N 0.4007(3) 0.9657(14) 0.1362(4)
N4_4 N 0.86111(13) 0.8792(4) 0.22084(13)
C1_4 C 0.75364(13) 0.5251(4) 0.19614(12)
C2_4 C 0.76194(16) 0.5104(4) 0.14165(13)
H4_4 H 0.7994 0.4921 0.1380
H5_4 H 0.7528 0.6080 0.1260
C3_4 C 0.67956(16) 0.5524(5) 0.04224(14)
C4_4 C 0.67339(18) 0.7091(6) 0.04944(15)
H6_4 H 0.6667 0.7472 0.0801
C5_4 C 0.67726(18) 0.8084(5) 0.01032(15)
H7_4 H 0.6727 0.9139 0.0146
C10_4 C 0.64650(19) 0.8160(9) 0.2081(2)
H10_4 H 0.6604 0.7401 0.2293
C11_4 C 0.5920(2) 0.8284(11) 0.2006(3)
H11_4 H 0.5703 0.7653 0.2181
C12_4 C 0.5694(2) 0.9329(9) 0.1677(2)
C15_4 C 0.5109(2) 0.9445(11) 0.1577(3)
C16_3 C 0.4767(3) 0.8368(19) 0.1730(5)
H14_3 H 0.4895 0.7515 0.1907
C17_3 C 0.4229(4) 0.855(2) 0.1619(6)
H15_3 H 0.4006 0.7818 0.1741
C20_4 C 0.8814(2) 0.8546(10) 0.2644(2)
H18_4 H 0.8584 0.8331 0.2886
C21_4 C 0.9355(2) 0.8581(11) 0.2776(2)
H19_4 H 0.9474 0.8436 0.3101
C22_4 C 0.97102(16) 0.8825(5) 0.24378(16)
C23_4 C 0.9499(2) 0.9154(12) 0.1984(2)
H20_4 H 0.9718 0.9396 0.1737
C24_4 C 0.8952(2) 0.9128(12) 0.1891(2)
H21_4 H 0.8818 0.9370 0.1575
S2_4 S 0.82709(5) 0.92148(15) 0.40883(4)
O9_4 O 0.76089(11) 0.9083(3) 0.28104(9)
O12_4 O 0.84654(17) 0.7783(5) 0.42938(13)
O13_4 O 0.79265(19) 0.8868(3) 0.59589(12)
N5_4 N 0.76863(15) 0.8883(4) 0.38409(12)
H24_4 H 0.7551 0.7977 0.3860
H25_4 H 0.7006 0.9921 0.3620
C32_4 C 0.80912(16) 0.9930(5) 0.50310(13)
H30_4 H 0.8043 0.8876 0.5072
O5_3 O 0.70735(19) 0.3868(3) 0.90411(12)
C6_4 C 0.68789(16) 0.7516(5) 0.96500(14)
H8_4 H 0.6904 0.8192 0.9390
C7_4 C 0.69487(15) 0.5937(4) 0.95791(13)
C8_3 C 0.69088(16) 0.4930(5) 0.99690(13)
H9_3 H 0.6957 0.3876 0.9928
C9_4 C 0.70719(16) 0.5308(4) 0.90895(13)
N7_3 N 0.9007(3) 0.5343(14) 0.6362(4)
C40_3 C 0.9767(3) 0.6632(19) 0.6730(5)
H35_3 H 0.9895 0.7485 0.6907
C41_3 C 0.9229(4) 0.645(2) 0.6619(6)
H36_3 H 0.9006 0.7182 0.6741
C42_3 C 0.9347(3) 0.4211(15) 0.6197(5)
H37_3 H 0.9204 0.3378 0.6019
C43_3 C 0.9892(3) 0.4308(13) 0.6293(4)
O5_4 O 0.20735(19) 0.8868(3) 0.90411(12)
C8_4 C 0.19088(16) 0.9930(5) 0.99690(13)
H9_4 H 0.1957 0.8876 0.9928
N3_4 N 0.9007(3) 0.4657(14) 0.1362(4)
C16_4 C 0.9767(3) 0.3368(19) 0.1730(5)
H14_4 H 0.9895 0.2515 0.1907
C17_4 C 0.9229(4) 0.355(2) 0.1619(6)
H15_4 H 0.9006 0.2818 0.1741
C18_4 C 0.9347(3) 0.5789(15) 0.1197(5)
H16_4 H 0.9204 0.6622 0.1019
C19_4 C 0.9892(3) 0.5692(13) 0.1293(4)
N7_4 N 0.0993(3) 0.4657(14) 0.3638(4)
C40_4 C 0.0233(3) 0.3368(19) 0.3270(5)
H35_4 H 0.0105 0.2515 0.3093
C41_4 C 0.0771(4) 0.355(2) 0.3381(6)
H36_4 H 0.0994 0.2818 0.3259
C42_4 C 0.0653(3) 0.5789(15) 0.3803(5)
H37_4 H 0.0796 0.6622 0.3981
C43_4 C 0.0108(3) 0.5692(13) 0.3707(4)
loop_
_geom_bond_atom_site_label_1
_geom_bond_atom_site_label_2
_geom_bond_site_symmetry_1
_geom_bond_site_symmetry_2
N3 C17 1_555 1_555
H14 C16 1_555 1_555
C17 C16 1_555 1_555
H15 C17 1_555 1_555
C18 N3 1_555 1_555
H16 C18 1_555 1_555
C18 C19 1_555 1_555
H9 C8 1_555 1_555
O4 S1 1_555 1_555
N1 S1 1_555 1_555
H3 N1 1_555 1_555
Mn3 O2 1_555 1_555
O6 C9 1_555 1_555
H8 C6 1_555 1_555
C7 C6 1_555 1_555
C9 C7 1_555 1_555
Mn4 O6 1_555 1_555
Mn1 O1 1_555 1_555
O1 C1 1_555 1_555
O7 Mn1 1_555 1_555
H1 O7 1_555 1_555
H2 O7 1_555 1_555
N2 Mn1 1_555 1_555
N4 Mn1 1_555 1_555
C1 C2 1_555 1_555
H5 C2 1_555 1_555
C4 C3 1_555 1_555
H6 C4 1_555 1_555
C5 C4 1_555 1_555
H7 C5 1_555 1_555
C10 N2 1_555 1_555
H10 C10 1_555 1_555
C11 C10 1_555 1_555
H11 C11 1_555 1_555
C12 C11 1_555 1_555
C13 C12 1_555 1_555
H12 C13 1_555 1_555
C14 N2 1_555 1_555
H13 C14 1_555 1_555
C15 C12 1_555 1_555
C20 N4 1_555 1_555
H18 C20 1_555 1_555
C21 C20 1_555 1_555
H19 C21 1_555 1_555
C22 C21 1_555 1_555
C23 C22 1_555 1_555
H20 C23 1_555 1_555
C24 N4 1_555 1_555
H21 C24 1_555 1_555
Mn3 O8 1_555 1_555
Mn5 N8 1_555 1_555
Mn6 O14 1_555 1_555
S2 O11 1_555 1_555
O8 C25 1_555 1_555
O9 Mn1 1_555 1_555
O12 S2 1_555 1_555
O13 C33 1_555 1_555
O14 C33 1_555 1_555
O15 Mn1 1_555 1_555
O16 Mn3 1_555 1_555
N5 S2 1_555 1_555
H24 N5 1_555 1_555
N6 Mn3 1_555 1_555
N7 C41 1_555 1_555
N8 C44 1_555 1_555
N9 Mn3 1_555 1_555
C25 O9 1_555 1_555
C26 N5 1_555 1_555
H25 C26 1_555 1_555
H26 C26 1_555 1_555
C27 S2 1_555 1_555
C28 C27 1_555 1_555
H27 C28 1_555 1_555
C29 C28 1_555 1_555
H28 C29 1_555 1_555
C30 C29 1_555 1_555
H29 C30 1_555 1_555
C31 C30 1_555 1_555
C32 C27 1_555 1_555
H30 C32 1_555 1_555
C33 C31 1_555 1_555
C34 N6 1_555 1_555
H31 C34 1_555 1_555
C35 C34 1_555 1_555
H32 C35 1_555 1_555
C36 C35 1_555 1_555
C39 C36 1_555 1_555
C40 C39 1_555 1_555
H35 C40 1_555 1_555
C41 C40 1_555 1_555
H36 C41 1_555 1_555
C44 H39 1_555 1_555
C45 C44 1_555 1_555
H40 C45 1_555 1_555
C46 C22 1_555 1_555
C47 C46 1_555 1_555
H41 C47 1_555 1_555
C48 N8 1_555 1_555
H42 C48 1_555 1_555
C13 C14 1_555 1_555
C23 C24 1_555 1_555
C25 C26 1_555 1_555
C31 C32 1_555 1_555
C45 C46 1_555 1_555
C47 C48 1_555 1_555
H22 O17 1_555 1_555
H23 O17 1_555 1_555
H33 C37 1_555 1_555
H34 C38 1_555 1_555
H37 C42 1_555 1_555
H38 C43 1_555 1_555
C37 C38 1_555 1_555
C42 C43 1_555 1_555
O5_2 C9_2 1_555 1_555
O6_2 C9_2 1_555 1_555
H8_2 C6_2 1_555 1_555
C7_2 C6_2 1_555 1_555
H9_2 C8_2 1_555 1_555
C9_2 C7_2 1_555 1_555
Mn4_2 O6_2 1_555 1_555
C7_2 C8_2 1_555 1_555
Mn1_2 O1_2 1_555 1_555
S1_2 O3_2 1_555 1_555
O1_2 C1_2 1_555 1_555
O2_2 C1_2 1_555 1_555
O4_2 S1_2 1_555 1_555
N1_2 S1_2 1_555 1_555
H3_2 N1_2 1_555 1_555
N2_2 Mn1_2 1_555 1_555
N3_2 C17_2 1_555 1_555
N4_2 Mn1_2 1_555 1_555
C1_2 C2_2 1_555 1_555
C2_2 N1_2 1_555 1_555
H4_2 C2_2 1_555 1_555
H5_2 C2_2 1_555 1_555
C3_2 S1_2 1_555 1_555
C4_2 C3_2 1_555 1_555
H6_2 C4_2 1_555 1_555
C5_2 C4_2 1_555 1_555
H7_2 C5_2 1_555 1_555
C10_2 N2_2 1_555 1_555
H10_2 C10_2 1_555 1_555
C11_2 C10_2 1_555 1_555
H11_2 C11_2 1_555 1_555
C12_2 C11_2 1_555 1_555
C15_2 C12_2 1_555 1_555
C16_2 C15_2 1_555 1_555
H14_2 C16_2 1_555 1_555
C17_2 C16_2 1_555 1_555
H15_2 C17_2 1_555 1_555
C20_2 N4_2 1_555 1_555
H18_2 C20_2 1_555 1_555
C21_2 C20_2 1_555 1_555
H19_2 C21_2 1_555 1_555
C22_2 C21_2 1_555 1_555
C23_2 C22_2 1_555 1_555
H20_2 C23_2 1_555 1_555
C24_2 N4_2 1_555 1_555
H21_2 C24_2 1_555 1_555
Mn5 O2_2 1_555 1_555
O9_2 Mn1_2 1_555 1_555
O12_2 S2_2 1_555 1_555
O15_2 Mn1_2 1_555 1_555
N5_2 S2_2 1_555 1_555
H24_2 N5_2 1_555 1_555
H30_2 C32_2 1_555 1_555
C23_2 C24_2 1_555 1_555
H1_2 O7_2 1_555 1_555
H2_2 O7_2 1_555 1_555
H12_2 C13_2 1_555 1_555
H13_2 C14_2 1_555 1_555
H16_2 C18_2 1_555 1_555
H17_2 C19_2 1_555 1_555
Mn5 O8_2 1_555 1_555
Mn6_2 O14_2 1_555 1_555
O8_2 C25_2 1_555 1_555
O14_2 C33_2 1_555 1_555
O16_2 Mn5 1_555 1_555
O17_2 Mn5 1_555 1_555
H22_2 O17_2 1_555 1_555
H23_2 O17_2 1_555 1_555
N6_2 Mn5 1_555 1_555
H26_2 C26_2 1_555 1_555
C28_2 C27_2 1_555 1_555
H27_2 C28_2 1_555 1_555
C29_2 C28_2 1_555 1_555
H28_2 C29_2 1_555 1_555
C30_2 C29_2 1_555 1_555
H29_2 C30_2 1_555 1_555
C31_2 C30_2 1_555 1_555
C33_2 C31_2 1_555 1_555
C34_2 N6_2 1_555 1_555
H31_2 C34_2 1_555 1_555
C35_2 C34_2 1_555 1_555
H32_2 C35_2 1_555 1_555
C36_2 C35_2 1_555 1_555
C37_2 C36_2 1_555 1_555
H33_2 C37_2 1_555 1_555
C38_2 N6_2 1_555 1_555
H34_2 C38_2 1_555 1_555
C39_2 C36_2 1_555 1_555
C13_2 C14_2 1_555 1_555
C18_2 C19_2 1_555 1_555
C25_2 C26_2 1_555 1_555
C37_2 C38_2 1_555 1_555
N9 C44_2 1_555 1_555
C44_2 H39_2 1_555 1_555
C45_2 C44_2 1_555 1_555
H40_2 C45_2 1_555 1_555
C47_2 C46_2 1_555 1_555
H41_2 C47_2 1_555 1_555
C48_2 N9 1_555 1_555
H42_2 C48_2 1_555 1_555
C45_2 C46_2 1_555 1_555
C47_2 C48_2 1_555 1_555
H22_3 O17_3 1_555 1_555
H23_3 O17_3 1_555 1_555
H33_3 C37_3 1_555 1_555
H34_3 C38_3 1_555 1_555
H37_2 C42_2 1_555 1_555
H38_3 C43_2 1_555 1_555
C37_3 C38_3 1_555 1_555
C42_2 C43_2 1_555 1_555
Mn4_2 O1_3 1_555 1_555
O1_3 C1_3 1_555 1_555
O7_3 Mn4_2 1_555 1_555
H1_3 O7_3 1_555 1_555
H2_3 O7_3 1_555 1_555
N2_3 Mn4_2 1_555 1_555
N4_3 Mn4_2 1_555 1_555
C1_3 C2_3 1_555 1_555
H5_3 C2_3 1_555 1_555
C4_3 C3_3 1_555 1_555
H6_3 C4_3 1_555 1_555
C5_3 C4_3 1_555 1_555
H7_3 C5_3 1_555 1_555
C10_3 N2_3 1_555 1_555
H10_3 C10_3 1_555 1_555
C11_3 C10_3 1_555 1_555
H11_3 C11_3 1_555 1_555
C12_3 C11_3 1_555 1_555
C13_3 C12_3 1_555 1_555
H12_3 C13_3 1_555 1_555
C14_3 N2_3 1_555 1_555
H13_3 C14_3 1_555 1_555
C15_3 C12_3 1_555 1_555
C20_3 N4_3 1_555 1_555
H18_3 C20_3 1_555 1_555
C21_3 C20_3 1_555 1_555
H19_3 C21_3 1_555 1_555
C22_3 C21_3 1_555 1_555
C23_3 C22_3 1_555 1_555
H20_3 C23_3 1_555 1_555
C24_3 N4_3 1_555 1_555
H21_3 C24_3 1_555 1_555
Mn6_2 O8_3 1_555 1_555
Mn6 N8_2 1_555 1_555
S2_3 O11_3 1_555 1_555
O8_3 C25_3 1_555 1_555
O9_3 Mn4_2 1_555 1_555
O10 Mn6_2 1_555 1_555
O12_3 S2_3 1_555 1_555
O13_3 C33_3 1_555 1_555
O16_2 C33_3 1_555 1_555
N5_3 S2_3 1_555 1_555
H24_3 N5_3 1_555 1_555
N6_3 Mn6_2 1_555 1_555
N7_2 C41_2 1_555 1_555
N8_2 C44_3 1_555 1_555
N9_2 Mn6_2 1_555 1_555
C25_3 O9_3 1_555 1_555
C26_3 N5_3 1_555 1_555
H25_3 C26_3 1_555 1_555
H26_3 C26_3 1_555 1_555
C27_3 S2_3 1_555 1_555
C28_3 C27_3 1_555 1_555
H27_3 C28_3 1_555 1_555
C29_3 C28_3 1_555 1_555
H28_3 C29_3 1_555 1_555
C30_3 C29_3 1_555 1_555
H29_3 C30_3 1_555 1_555
C31_3 C30_3 1_555 1_555
C32_3 C27_3 1_555 1_555
H30_3 C32_3 1_555 1_555
C33_3 C31_3 1_555 1_555
C34_3 N6_3 1_555 1_555
H31_3 C34_3 1_555 1_555
C35_3 C34_3 1_555 1_555
H32_3 C35_3 1_555 1_555
C36_3 C35_3 1_555 1_555
C39_3 C36_3 1_555 1_555
C40_2 C39_3 1_555 1_555
H35_2 C40_2 1_555 1_555
C41_2 C40_2 1_555 1_555
H36_2 C41_2 1_555 1_555
C44_3 H39_3 1_555 1_555
C45_3 C44_3 1_555 1_555
H40_3 C45_3 1_555 1_555
C46_3 C22_3 1_555 1_555
C47_3 C46_3 1_555 1_555
H41_3 C47_3 1_555 1_555
C48_3 N8_2 1_555 1_555
H42_3 C48_3 1_555 1_555
C13_3 C14_3 1_555 1_555
C23_3 C24_3 1_555 1_555
C25_3 C26_3 1_555 1_555
C31_3 C32_3 1_555 1_555
C45_3 C46_3 1_555 1_555
C47_3 C48_3 1_555 1_555
O15_2 C9_3 1_555 1_555
H8_3 C6_3 1_555 1_555
C7_3 C6_3 1_555 1_555
C9_3 C7_3 1_555 1_555
O4_3 S1_3 1_555 1_555
N1_3 S1_3 1_555 1_555
H3_3 N1_3 1_555 1_555
N9_2 C44_4 1_555 1_555
C44_4 H39_4 1_555 1_555
C45_4 C44_4 1_555 1_555
H40_4 C45_4 1_555 1_555
C47_4 C46_4 1_555 1_555
H41_4 C47_4 1_555 1_555
C48_4 N9_2 1_555 1_555
H42_4 C48_4 1_555 1_555
C45_4 C46_4 1_555 1_555
C47_4 C48_4 1_555 1_555
H1_4 O7_4 1_555 1_555
H2_4 O7_4 1_555 1_555
H12_4 C13_4 1_555 1_555
H13_4 C14_4 1_555 1_555
H16_3 C18_3 1_555 1_555
H17_4 C19_3 1_555 1_555
Mn6 O8_4 1_555 1_555
O8_4 C25_4 1_555 1_555
O10_2 Mn6 1_555 1_555
O16 C33_4 1_555 1_555
O17_4 Mn6 1_555 1_555
H22_4 O17_4 1_555 1_555
H23_4 O17_4 1_555 1_555
N6_4 Mn6 1_555 1_555
H26_4 C26_4 1_555 1_555
C28_4 C27_4 1_555 1_555
H27_4 C28_4 1_555 1_555
C29_4 C28_4 1_555 1_555
H28_4 C29_4 1_555 1_555
C30_4 C29_4 1_555 1_555
H29_4 C30_4 1_555 1_555
C31_4 C30_4 1_555 1_555
C33_4 C31_4 1_555 1_555
C34_4 N6_4 1_555 1_555
H31_4 C34_4 1_555 1_555
C35_4 C34_4 1_555 1_555
H32_4 C35_4 1_555 1_555
C36_4 C35_4 1_555 1_555
C37_4 C36_4 1_555 1_555
H33_4 C37_4 1_555 1_555
C38_4 N6_4 1_555 1_555
H34_4 C38_4 1_555 1_555
C39_4 C36_4 1_555 1_555
C13_4 C14_4 1_555 1_555
C18_3 C19_3 1_555 1_555
C25_4 C26_4 1_555 1_555
C37_4 C38_4 1_555 1_555
Mn4 O1_4 1_555 1_555
S1_4 O3_4 1_555 1_555
O1_4 C1_4 1_555 1_555
O10_2 C1_4 1_555 1_555
O4_4 S1_4 1_555 1_555
N1_4 S1_4 1_555 1_555
H3_4 N1_4 1_555 1_555
N2_4 Mn4 1_555 1_555
N3_3 C17_3 1_555 1_555
N4_4 Mn4 1_555 1_555
C1_4 C2_4 1_555 1_555
C2_4 N1_4 1_555 1_555
H4_4 C2_4 1_555 1_555
H5_4 C2_4 1_555 1_555
C3_4 S1_4 1_555 1_555
C4_4 C3_4 1_555 1_555
H6_4 C4_4 1_555 1_555
C5_4 C4_4 1_555 1_555
H7_4 C5_4 1_555 1_555
C10_4 N2_4 1_555 1_555
H10_4 C10_4 1_555 1_555
C11_4 C10_4 1_555 1_555
H11_4 C11_4 1_555 1_555
C12_4 C11_4 1_555 1_555
C15_4 C12_4 1_555 1_555
C16_3 C15_4 1_555 1_555
H14_3 C16_3 1_555 1_555
C17_3 C16_3 1_555 1_555
H15_3 C17_3 1_555 1_555
C20_4 N4_4 1_555 1_555
H18_4 C20_4 1_555 1_555
C21_4 C20_4 1_555 1_555
H19_4 C21_4 1_555 1_555
C22_4 C21_4 1_555 1_555
C23_4 C22_4 1_555 1_555
H20_4 C23_4 1_555 1_555
C24_4 N4_4 1_555 1_555
H21_4 C24_4 1_555 1_555
O9_4 Mn4 1_555 1_555
O12_4 S2_4 1_555 1_555
N5_4 S2_4 1_555 1_555
H24_4 N5_4 1_555 1_555
H30_4 C32_4 1_555 1_555
C23_4 C24_4 1_555 1_555
O5_3 C9_4 1_555 1_555
O15 C9_4 1_555 1_555
H8_4 C6_4 1_555 1_555
C7_4 C6_4 1_555 1_555
H9_3 C8_3 1_555 1_555
C9_4 C7_4 1_555 1_555
C7_4 C8_3 1_555 1_555
N7_3 C41_3 1_555 1_555
H35_3 C40_3 1_555 1_555
C41_3 C40_3 1_555 1_555
H36_3 C41_3 1_555 1_555
C42_3 N7_3 1_555 1_555
H37_3 C42_3 1_555 1_555
C42_3 C43_3 1_555 1_555
H9_4 C8_4 1_555 1_555
N3_4 C17_4 1_555 1_555
H14_4 C16_4 1_555 1_555
C17_4 C16_4 1_555 1_555
H15_4 C17_4 1_555 1_555
C18_4 N3_4 1_555 1_555
H16_4 C18_4 1_555 1_555
C18_4 C19_4 1_555 1_555
N7_4 C41_4 1_555 1_555
H35_4 C40_4 1_555 1_555
C41_4 C40_4 1_555 1_555
H36_4 C41_4 1_555 1_555
C42_4 N7_4 1_555 1_555
H37_4 C42_4 1_555 1_555
C42_4 C43_4 1_555 1_555

#END
