
###############################################################################
#
# This file contains modified crystal structure data generated from the
# MOF subset of the Cambridge Structural Database (CSD) v543 
# hosted by the Cambridge Crystallographic Data Centre (CCDC).
#
# This work is licensed under the Creative Commons
# Attribution-NonCommercial-ShareAlike 4.0 International License.
# To view a copy of this license, visit
# http://creativecommons.org/licenses/by-nc-sa/4.0/
# or send a letter to
# Creative Commons, PO Box 1866, Mountain View, CA 94042, USA.
#
# CIF created using the CSD Python API on 29 September 2022
# The structure has been converted into the P1 space group
# The structure has a 3D framework
# The original CSD entry RIXPOF is in the tetragonal crystal system
# The original CSD entry RIXPOF is in a Sohncke space group
# The framework has been calculated to contain at least 10.0% void space
# The void calculation uses a probe of radius 1.32A, grid spacing 0.4
# H atom positions have been added when not included in the experimental data
#
###############################################################################

data_RIXPOF
_chemical_formula_moiety         '(C432 H256 Al16 O108)n'
_symmetry_cell_setting           triclinic
_symmetry_space_group_name_H-M   'P 1'
_symmetry_Int_Tables_number      1
_space_group_name_Hall           'P 1'
loop_
_symmetry_equiv_pos_site_id
_symmetry_equiv_pos_as_xyz
1 x,y,z
_cell_length_a                   19.2800(10)
_cell_length_b                   19.2800(10)
_cell_length_c                   36.0300(10)
_cell_angle_alpha                90
_cell_angle_beta                 90
_cell_angle_gamma                90
_cell_volume                     13393
loop_
_atom_site_label
_atom_site_type_symbol
_atom_site_fract_x
_atom_site_fract_y
_atom_site_fract_z
Al1 Al -0.0000 0.0000 0.11859(8)
C55 C 0.1210(4) 0.0514(4) 0.1595(2)
C57 C 0.4495(4) 0.2871(4) 0.3786(2)
C58 C 0.4927(4) 0.3505(4) 0.38501(19)
C59 C 0.3281(5) 0.1080(5) 0.3483(3)
C61 C 0.2178(5) 0.0921(5) 0.2011(3)
H16 H 0.2381 0.1153 0.1812
C63 C 0.4745(4) 0.2221(4) 0.3843(2)
H18 H 0.5185 0.2169 0.3944
C65 C 0.2912(6) 0.1136(5) 0.3152(3)
H20 H 0.2901 0.1547 0.3017
C67 C 0.3702(5) 0.1733(5) 0.3606(3)
C69 C 0.1288(5) 0.0177(5) 0.2259(3)
C70 C 0.3310(5) 0.0475(5) 0.3677(2)
H23 H 0.3565 0.0462 0.3896
C71 C 0.2185(5) 0.0569(5) 0.2661(2)
C72 C 0.2552(6) 0.0534(5) 0.3033(3)
C74 C 0.1604(5) 0.0190(4) 0.2612(2)
C75 C 0.1536(5) 0.0529(4) 0.1965(2)
C77 C 0.4372(5) 0.1640(5) 0.3756(3)
H27 H 0.4553 0.1199 0.3793
C78 C 0.3824(6) 0.2950(5) 0.3641(3)
H28 H 0.3648 0.3394 0.3605
C79 C 0.3423(6) 0.2387(5) 0.3554(3)
H29 H 0.2975 0.2443 0.3462
C80 C 0.2474(6) 0.0938(5) 0.2361(3)
H30 H 0.2873 0.1199 0.2399
C82 C 0.2331(4) 0.0462(4) 0.0366(2)
Al4 Al 0.12378(12) 0.09815(12) 0.08386(6)
O16 O 0.5531(3) 0.3406(3) 0.39733(14)
O17 O 0.1000(2) 0.1239(2) 0.03591(13)
O18 O 0.0631(3) 0.0226(3) 0.15761(14)
O20 O 0.0656(3) 0.0244(3) 0.08302(14)
O21 O 0.4639(3) 0.4091(3) 0.37937(14)
O22 O 0.1515(3) 0.0780(3) 0.13290(14)
O23 O 0.1991(3) 0.0411(3) 0.06647(15)
O24 O 0.2280(3) 0.0923(3) 0.01280(14)
Al6 Al 0.5000 0.5000 0.38141(8)
Al8 Al 0.15943(10) 0.15943(10) 0.0000
Al13 Al 0.62378(12) 0.40185(12) 0.41614(6)
O29 O 0.1830(3) 0.1737(3) 0.08762(13)
O32 O 0.0531(3) 0.1594(3) 0.10267(14)
Al8_2 Al 0.15943(10) 0.15943(10) 1.0000
H58 H 0.290713 0.0126327 0.969157
Al1_2 Al -0.0000 1.0000 0.11859(8)
C56 C 0.3048(4) 0.7942(3) 0.41284(19)
C60 C 0.2985(4) 0.9233(4) 0.3752(2)
C62 C 0.2961(4) 0.8563(4) 0.4326(2)
H17 H 0.2918 0.8543 0.4583
C64 C 0.3095(4) 0.7986(5) 0.3740(2)
H19 H 0.3146 0.7587 0.3597
C66 C 0.3066(5) 0.8608(4) 0.3580(2)
H21 H 0.3105 0.8617 0.3323
C68 C 0.2972(5) 0.9872(4) 0.3562(2)
H22 H 0.0888 0.9913 0.2228
C73 C 0.2571(5) 0.9929(4) 0.3225(2)
H24 H 0.2323 0.9547 0.3139
H25 H 0.1415 0.9939 0.2808
C76 C 0.2937(5) 0.9195(4) 0.4157(2)
H26 H 0.2891 0.9598 0.4298
C81 C 0.3087(3) 0.7278(4) 0.43126(18)
C83 C 0.2810(10) 0.9905(10) 0.0299(5)
C84 C 0.3074(10) 0.9533(10) 0.0645(5)
C87 C 0.3723(10) 0.8899(10) 0.0192(5)
C88 C 0.3524(4) 0.8943(4) 0.0580(2)
C89 C 0.4222(4) 0.8186(4) 0.0181(2)
C92 C 0.5052(4) 0.7008(4) 0.0155(2)
C93 C 0.5102(4) 0.7461(4) 0.0454(2)
C94 C 0.4687(4) 0.8050(4) 0.0467(2)
C95 C 0.5628(4) 0.7339(4) 0.0751(2)
C96 C 0.5589(4) 0.6703(4) 0.0932(2)
C97 C 0.5944(4) 0.6602(4) 0.1263(2)
C98 C 0.6338(4) 0.7136(4) 0.1413(2)
C99 C 0.6377(4) 0.7772(4) 0.1233(2)
C100 C 0.6022(4) 0.7873(4) 0.0901(2)
C107 C 0.652(2) 0.712(2) 0.1781(11)
O15 O 0.3170(3) 0.6737(3) 0.41238(13)
O19 O 0.3063(2) 0.7278(2) 0.46703(13)
O25 O 0.6952(11) 0.7502(11) 0.1963(6)
O26 O 0.6561(12) 0.6503(13) 0.1963(6)
Al9 Al 0.34057(10) 0.65943(10) 0.5000
Al11 Al 0.37622(12) 0.59815(12) 0.41614(6)
O36 O 0.0361(3) 0.9091(3) 0.12063(14)
H48 H 0.293307 0.970038 0.0923649
H49 H 0.472595 0.840503 0.0701152
H50 H 0.691253 0.620396 0.184066
H51 H 0.369082 0.858056 0.0793942
H52 H 0.591346 0.610423 0.140491
H53 H 0.537706 0.654647 0.0144715
H54 H 0.605315 0.837054 0.0758898
H62 H 0.668474 0.819075 0.135143
H63 H 0.528021 0.62844 0.0814207
C2 C 0.6952(4) 0.2058(3) 0.41284(19)
C6 C 0.7015(4) 0.0767(4) 0.3752(2)
C8 C 0.7039(4) 0.1437(4) 0.4326(2)
H2 H 0.7082 0.1457 0.4583
C10 C 0.6905(4) 0.2014(5) 0.3740(2)
H4 H 0.6854 0.2413 0.3597
C12 C 0.6934(5) 0.1392(4) 0.3580(2)
H6 H 0.6895 0.1383 0.3323
C14 C 0.7028(5) 0.0128(4) 0.3562(2)
H7 H 0.9112 0.0087 0.2228
C19 C 0.7429(5) 0.0071(4) 0.3225(2)
H9 H 0.7677 0.0453 0.3139
H10 H 0.8585 0.0061 0.2808
C22 C 0.7063(5) 0.0805(4) 0.4157(2)
H11 H 0.7109 0.0402 0.4298
C27 C 0.6913(3) 0.2722(4) 0.43126(18)
C29 C 0.7190(10) 0.0095(10) 0.0299(5)
C30 C 0.6926(10) 0.0467(10) 0.0645(5)
C33 C 0.6277(10) 0.1101(10) 0.0192(5)
C34 C 0.6476(4) 0.1057(4) 0.0580(2)
C35 C 0.5778(4) 0.1814(4) 0.0181(2)
C38 C 0.4948(4) 0.2992(4) 0.0155(2)
C39 C 0.4898(4) 0.2539(4) 0.0454(2)
C40 C 0.5313(4) 0.1950(4) 0.0467(2)
C41 C 0.4372(4) 0.2661(4) 0.0751(2)
C42 C 0.4411(4) 0.3297(4) 0.0932(2)
C43 C 0.4056(4) 0.3398(4) 0.1263(2)
C44 C 0.3662(4) 0.2864(4) 0.1413(2)
C45 C 0.3623(4) 0.2228(4) 0.1233(2)
C46 C 0.3978(4) 0.2127(4) 0.0901(2)
C53 C 0.348(2) 0.288(2) 0.1781(11)
Al1_3 Al 1.0000 0.0000 0.11859(8)
O1 O 0.6830(3) 0.3263(3) 0.41238(13)
O5 O 0.6937(2) 0.2722(2) 0.46703(13)
O11 O 0.3048(11) 0.2498(11) 0.1963(6)
O12 O 0.3439(12) 0.3497(13) 0.1963(6)
Al7 Al 0.65943(10) 0.34057(10) 0.5000
O37 O 0.9639(3) 0.0909(3) 0.12063(14)
H31 H 0.394685 0.162946 0.0758898
H32 H 0.706693 0.0299624 0.0923649
H35 H 0.462294 0.345353 0.0144715
H36 H 0.527405 0.159497 0.0701152
H37 H 0.630918 0.141944 0.0793942
H38 H 0.331526 0.180925 0.135143
H43 H 0.471979 0.37156 0.0814207
H45 H 0.408654 0.389577 0.140491
H46 H 0.308747 0.379604 0.184066
C1 C 0.8790(4) 0.9486(4) 0.1595(2)
C3 C 0.5505(4) 0.7129(4) 0.3786(2)
C4 C 0.5073(4) 0.6495(4) 0.38501(19)
C5 C 0.6719(5) 0.8920(5) 0.3483(3)
C7 C 0.7822(5) 0.9079(5) 0.2011(3)
H1 H 0.7619 0.8847 0.1812
C9 C 0.5255(4) 0.7779(4) 0.3843(2)
H3 H 0.4815 0.7831 0.3944
C11 C 0.7088(6) 0.8864(5) 0.3152(3)
H5 H 0.7099 0.8453 0.3017
C13 C 0.6298(5) 0.8267(5) 0.3606(3)
C15 C 0.8712(5) 0.9823(5) 0.2259(3)
C16 C 0.6690(5) 0.9525(5) 0.3677(2)
H8 H 0.6435 0.9538 0.3896
C17 C 0.7815(5) 0.9431(5) 0.2661(2)
C18 C 0.7448(6) 0.9466(5) 0.3033(3)
C20 C 0.8396(5) 0.9810(4) 0.2612(2)
C21 C 0.8464(5) 0.9471(4) 0.1965(2)
C23 C 0.5628(5) 0.8360(5) 0.3756(3)
H12 H 0.5447 0.8801 0.3793
C24 C 0.6176(6) 0.7050(5) 0.3641(3)
H13 H 0.6352 0.6606 0.3605
C25 C 0.6577(6) 0.7613(5) 0.3554(3)
H14 H 0.7025 0.7557 0.3462
C26 C 0.7526(6) 0.9062(5) 0.2361(3)
H15 H 0.7127 0.8801 0.2399
C28 C 0.7669(4) 0.9538(4) 0.0366(2)
Al1_4 Al 1.0000 1.0000 0.11859(8)
Al2 Al 0.84057(10) 0.84057(10) 0.0000
Al3 Al 0.87622(12) 0.90185(12) 0.08386(6)
O2 O 0.4469(3) 0.6594(3) 0.39733(14)
O3 O 0.9000(2) 0.8761(2) 0.03591(13)
O4 O 0.9369(3) 0.9774(3) 0.15761(14)
O6 O 0.9344(3) 0.9756(3) 0.08302(14)
O7 O 0.5361(3) 0.5909(3) 0.37937(14)
O8 O 0.8485(3) 0.9220(3) 0.13290(14)
O9 O 0.8009(3) 0.9589(3) 0.06647(15)
O10 O 0.7720(3) 0.9077(3) 0.01280(14)
O30 O 0.8170(3) 0.8263(3) 0.08762(13)
O31 O 0.9469(3) 0.8406(3) 0.10267(14)
O35 O 0.8063(2) 0.7722(2) 0.03297(13)
Al2_2 Al 0.84057(10) 0.84057(10) 1.0000
O33 O 0.8761(2) 0.9000(2) 0.96409(13)
O34 O 0.7722(2) 0.8063(2) 0.96703(13)
O38 O 0.9077(3) 0.7720(3) 0.98720(14)
H33 H 0.709287 0.987367 0.969157
Al5 Al 0.0000 -0.0000 0.88141(8)
H57 H 0.0052166 0.905627 0.34645
Al5_2 Al 0.0000 1.0000 0.88141(8)
H18_2 H 0.2831 0.0185 0.8944
C92_2 C 0.7992(4) 0.0052(4) 0.5155(2)
C93_2 C 0.7539(4) 0.0102(4) 0.5454(2)
C95_2 C 0.7661(4) 0.0628(4) 0.5751(2)
C96_2 C 0.8297(4) 0.0589(4) 0.5932(2)
C97_2 C 0.8398(4) 0.0944(4) 0.6263(2)
C98_2 C 0.7864(4) 0.1338(4) 0.6413(2)
C99_2 C 0.7228(4) 0.1377(4) 0.6233(2)
C100_2 C 0.7127(4) 0.1022(4) 0.5901(2)
C107_2 C 0.788(2) 0.152(2) 0.6781(11)
O16_2 O 0.1594(3) 0.0531(3) 0.89733(14)
O25_2 O 0.7498(11) 0.1952(11) 0.6963(6)
O26_2 O 0.8497(13) 0.1561(12) 0.6963(6)
Al13_2 Al 0.09815(12) 0.12378(12) 0.91614(6)
H50_2 H 0.879604 0.191253 0.684066
H52_2 H 0.889577 0.0913461 0.640491
H53_2 H 0.845353 0.0377057 0.514471
H54_2 H 0.662946 0.105315 0.57589
H56 H 0.862583 0.0406649 0.442105
H59 H 0.903 0.00982416 0.378825
H62_2 H 0.680925 0.168474 0.635143
H63_2 H 0.87156 0.0280209 0.581421
C1_2 C 0.5514(4) 0.3790(4) 0.6595(2)
C2_2 C 0.2942(3) 0.1952(4) 0.91284(19)
C3_2 C 0.7871(4) 0.0505(4) 0.8786(2)
C4_2 C 0.8505(4) 0.0073(4) 0.88501(19)
C5_2 C 0.6080(5) 0.1719(5) 0.8483(3)
C6_2 C 0.4233(4) 0.2015(4) 0.8752(2)
C7_2 C 0.5921(5) 0.2822(5) 0.7011(3)
H1_2 H 0.6153 0.2619 0.6812
C8_2 C 0.3563(4) 0.2039(4) 0.9326(2)
H2_2 H 0.3543 0.2082 0.9583
C9_2 C 0.7221(4) 0.0255(4) 0.8843(2)
C10_2 C 0.2986(5) 0.1905(4) 0.8740(2)
H4_2 H 0.2587 0.1854 0.8597
C11_2 C 0.6136(5) 0.2088(6) 0.8152(3)
H5_2 H 0.6547 0.2099 0.8017
C12_2 C 0.3608(4) 0.1934(5) 0.8580(2)
H6_2 H 0.3617 0.1895 0.8323
C13_2 C 0.6733(5) 0.1298(5) 0.8606(3)
C14_2 C 0.4872(4) 0.2028(5) 0.8562(2)
C15_2 C 0.5177(5) 0.3712(5) 0.7259(3)
H7_2 H 0.4913 0.4112 0.7228
C16_2 C 0.5475(5) 0.1690(5) 0.8677(2)
H8_2 H 0.5462 0.1435 0.8896
C17_2 C 0.5569(5) 0.2815(5) 0.7661(2)
C18_2 C 0.5534(5) 0.2448(6) 0.8033(3)
C19_2 C 0.4929(4) 0.2429(5) 0.8225(2)
H9_2 H 0.4547 0.2677 0.8139
C20_2 C 0.5190(4) 0.3396(5) 0.7612(2)
H10_2 H 0.4939 0.3585 0.7808
C21_2 C 0.5529(4) 0.3464(5) 0.6965(2)
C22_2 C 0.4195(4) 0.2063(5) 0.9157(2)
H11_2 H 0.4598 0.2109 0.9298
C23_2 C 0.6640(5) 0.0628(5) 0.8756(3)
H12_2 H 0.6199 0.0447 0.8793
C24_2 C 0.7950(5) 0.1176(6) 0.8641(3)
H13_2 H 0.8394 0.1352 0.8605
C25_2 C 0.7387(5) 0.1577(6) 0.8554(3)
H14_2 H 0.7443 0.2025 0.8462
C26_2 C 0.5938(5) 0.2526(6) 0.7361(3)
H15_2 H 0.6199 0.2127 0.7399
C27_2 C 0.2278(4) 0.1913(3) 0.93126(18)
C28_2 C 0.5462(4) 0.2669(4) 0.5366(2)
C29_2 C 0.4905(10) 0.2190(10) 0.5299(5)
C30_2 C 0.4533(10) 0.1926(10) 0.5645(5)
C31 C 0.4791(10) 0.1959(10) 0.4924(5)
C32 C 0.4149(10) 0.1507(10) 0.4890(5)
C33_2 C 0.3899(10) 0.1277(10) 0.5192(5)
C34_2 C 0.3943(4) 0.1476(4) 0.5580(2)
C35_2 C 0.3186(4) 0.0778(4) 0.5181(2)
C36 C 0.2733(4) 0.0828(4) 0.4882(2)
C37 C 0.2144(4) 0.0413(4) 0.4869(2)
C40_2 C 0.3050(4) 0.0313(4) 0.5467(2)
C47 C 0.1695(4) 0.0634(4) 0.4552(2)
C48 C 0.1750(4) 0.1314(4) 0.4427(2)
C49 C 0.1525(4) 0.1486(4) 0.4072(2)
C50 C 0.1245(4) 0.0978(4) 0.3843(2)
C51 C 0.1190(4) 0.0299(4) 0.3968(2)
C52 C 0.1416(4) 0.0126(4) 0.4323(2)
C54 C 0.0988(12) 0.1010(12) 0.3534(6)
Al1_5 Al 0.5000 0.5000 0.61859(8)
Al3_2 Al 0.59815(12) 0.37622(12) 0.58386(6)
O1_2 O 0.1737(3) 0.1830(3) 0.91238(13)
O3_2 O 0.6239(2) 0.4000(2) 0.53591(13)
O4_2 O 0.5226(3) 0.4369(3) 0.65761(14)
O5_2 O 0.2278(2) 0.1937(2) 0.96703(13)
O6_2 O 0.5244(3) 0.4344(3) 0.58302(14)
O7_2 O 0.9091(3) 0.0361(3) 0.87937(14)
O8_2 O 0.5780(3) 0.3485(3) 0.63290(14)
O9_2 O 0.5411(3) 0.3009(3) 0.56647(15)
O10_2 O 0.5923(3) 0.2720(3) 0.51280(14)
O13 O 0.0829 0.1738 0.3504
O14 O 0.0369 0.0760 0.3340
C55_2 C 0.4486(4) 0.6210(4) 0.6595(2)
C56_2 C 0.7058(3) 0.8048(4) 0.91284(19)
C57_2 C 0.2129(4) 0.9495(4) 0.8786(2)
C58_2 C 0.1495(4) 0.9927(4) 0.88501(19)
C59_2 C 0.3920(5) 0.8281(5) 0.8483(3)
C60_2 C 0.5767(4) 0.7985(4) 0.8752(2)
C61_2 C 0.4079(5) 0.7178(5) 0.7011(3)
H16_2 H 0.3847 0.7381 0.6812
C62_2 C 0.6437(4) 0.7961(4) 0.9326(2)
H17_2 H 0.6457 0.7918 0.9583
C63_2 C 0.2779(4) 0.9745(4) 0.8843(2)
C64_2 C 0.7014(5) 0.8095(4) 0.8740(2)
H19_2 H 0.7413 0.8146 0.8597
C65_2 C 0.3864(5) 0.7912(6) 0.8152(3)
H20_2 H 0.3453 0.7901 0.8017
C66_2 C 0.6392(4) 0.8066(5) 0.8580(2)
H21_2 H 0.6383 0.8105 0.8323
C67_2 C 0.3267(5) 0.8702(5) 0.8606(3)
C68_2 C 0.5128(4) 0.7972(5) 0.8562(2)
C69_2 C 0.4823(5) 0.6288(5) 0.7259(3)
H22_2 H 0.5087 0.5888 0.7228
C70_2 C 0.4525(5) 0.8310(5) 0.8677(2)
H23_2 H 0.4538 0.8565 0.8896
C71_2 C 0.4431(5) 0.7185(5) 0.7661(2)
C72_2 C 0.4466(5) 0.7552(6) 0.8033(3)
C73_2 C 0.5071(4) 0.7571(5) 0.8225(2)
H24_2 H 0.5453 0.7323 0.8139
C74_2 C 0.4810(4) 0.6604(5) 0.7612(2)
H25_2 H 0.5061 0.6415 0.7808
C75_2 C 0.4471(4) 0.6536(5) 0.6965(2)
C76_2 C 0.5805(4) 0.7937(5) 0.9157(2)
H26_2 H 0.5402 0.7891 0.9298
C77_2 C 0.3360(5) 0.9372(5) 0.8756(3)
H27_2 H 0.3801 0.9553 0.8793
C78_2 C 0.2050(5) 0.8824(6) 0.8641(3)
H28_2 H 0.1606 0.8648 0.8605
C79_2 C 0.2613(5) 0.8423(6) 0.8554(3)
H29_2 H 0.2557 0.7975 0.8462
C80_2 C 0.4062(5) 0.7474(6) 0.7361(3)
H30_2 H 0.3801 0.7873 0.7399
C81_2 C 0.7722(4) 0.8087(3) 0.93126(18)
C82_2 C 0.4538(4) 0.7331(4) 0.5366(2)
C83_2 C 0.5095(10) 0.7810(10) 0.5299(5)
C84_2 C 0.5467(10) 0.8074(10) 0.5645(5)
C85 C 0.5209(10) 0.8041(10) 0.4924(5)
C86 C 0.5851(10) 0.8493(10) 0.4890(5)
C87_2 C 0.6101(10) 0.8723(10) 0.5192(5)
C88_2 C 0.6057(4) 0.8524(4) 0.5580(2)
C89_2 C 0.6814(4) 0.9222(4) 0.5181(2)
C90 C 0.7267(4) 0.9172(4) 0.4882(2)
C91 C 0.7856(4) 0.9587(4) 0.4869(2)
C94_2 C 0.6950(4) 0.9687(4) 0.5467(2)
C101 C 0.8305(4) 0.9366(4) 0.4552(2)
C102 C 0.8250(4) 0.8686(4) 0.4427(2)
C103 C 0.8475(4) 0.8514(4) 0.4072(2)
C104 C 0.8755(4) 0.9022(4) 0.3843(2)
C105 C 0.8810(4) 0.9701(4) 0.3968(2)
C106 C 0.8584(4) 0.9874(4) 0.4323(2)
C108 C 0.9012(12) 0.8990(12) 0.3534(6)
Al4_2 Al 0.40185(12) 0.62378(12) 0.58386(6)
O15_2 O 0.8263(3) 0.8170(3) 0.91238(13)
O17_2 O 0.3761(2) 0.6000(2) 0.53591(13)
O18_2 O 0.4774(3) 0.5631(3) 0.65761(14)
O20_2 O 0.4756(3) 0.5656(3) 0.58302(14)
O21_2 O 0.0909(3) 0.9639(3) 0.87937(14)
O22_2 O 0.4220(3) 0.6515(3) 0.63290(14)
O23_2 O 0.4589(3) 0.6991(3) 0.56647(15)
O24_2 O 0.4077(3) 0.7280(3) 0.51280(14)
O27 O 0.9171 0.8262 0.3504
O28 O 0.9631 0.9240 0.3340
Al5_3 Al 1.0000 -0.0000 0.88141(8)
Al11_2 Al 0.90185(12) 0.87622(12) 0.91614(6)
O29_2 O 0.3263(3) 0.6830(3) 0.58762(13)
O30_2 O 0.6737(3) 0.3170(3) 0.58762(13)
O31_2 O 0.6594(3) 0.4469(3) 0.60267(14)
O32_2 O 0.3406(3) 0.5531(3) 0.60267(14)
O33_2 O 0.6000(2) 0.3761(2) 0.46409(13)
O35_2 O 0.7278(2) 0.3063(2) 0.53297(13)
O36_2 O 0.5909(3) 0.5361(3) 0.62063(14)
O37_2 O 0.4091(3) 0.4639(3) 0.62063(14)
O38_2 O 0.7280(3) 0.4077(3) 0.48720(14)
H32_2 H 0.470038 0.206693 0.592365
H33_2 H 0.512633 0.209287 0.469157
H34 H 0.283956 0.119212 0.465808
H36_2 H 0.340503 0.0274046 0.570115
H37_2 H 0.358056 0.130918 0.579394
H39 H 0.196904 0.171155 0.460689
H40 H 0.156818 0.201828 0.397355
H44 H 0.391646 0.138704 0.462214
H48_2 H 0.529962 0.793307 0.592365
H49_2 H 0.659497 0.972595 0.570115
H51_2 H 0.641944 0.869082 0.579394
H55 H 0.716044 0.880788 0.465808
H58_2 H 0.487367 0.790713 0.469157
H60 H 0.608354 0.861296 0.462214
H61 H 0.803096 0.828845 0.460689
H64 H 0.843182 0.798172 0.397355
H3_2 H 0.7169 0.9815 0.8944
C38_2 C 0.2008(4) 0.9948(4) 0.5155(2)
C39_2 C 0.2461(4) 0.9898(4) 0.5454(2)
C41_2 C 0.2339(4) 0.9372(4) 0.5751(2)
C42_2 C 0.1703(4) 0.9411(4) 0.5932(2)
C43_2 C 0.1602(4) 0.9056(4) 0.6263(2)
C44_2 C 0.2136(4) 0.8662(4) 0.6413(2)
C45_2 C 0.2772(4) 0.8623(4) 0.6233(2)
C46_2 C 0.2873(4) 0.8978(4) 0.5901(2)
C53_2 C 0.212(2) 0.848(2) 0.6781(11)
O2_2 O 0.8406(3) 0.9469(3) 0.89733(14)
O11_2 O 0.2502(11) 0.8048(11) 0.6963(6)
O12_2 O 0.1503(13) 0.8439(12) 0.6963(6)
Al5_4 Al 1.0000 1.0000 0.88141(8)
H31_2 H 0.337054 0.894685 0.57589
H35_2 H 0.154647 0.962294 0.514471
H38_2 H 0.319075 0.831526 0.635143
H41 H 0.0970002 0.990176 0.378825
H42 H 0.137417 0.959335 0.442105
H43_2 H 0.12844 0.971979 0.581421
H45_2 H 0.110423 0.908654 0.640491
H46_2 H 0.120396 0.808747 0.684066
H47 H 0.994783 0.0943729 0.34645
O35_3 O 0.1937(2) 0.2278(2) 0.03297(13)
O33_3 O 0.1239(2) 0.1000(2) 0.96409(13)
O38_3 O 0.0923(3) 0.2280(3) 0.98720(14)
O33_4 O 0.4000(2) 0.6239(2) 0.46409(13)
O35_4 O 0.2722(2) 0.6937(2) 0.53297(13)
O38_4 O 0.2720(3) 0.5923(3) 0.48720(14)
H18_3 H 0.0185 0.2831 0.1056
C92_3 C 0.0052(4) 0.7992(4) 0.4845(2)
C93_3 C 0.0102(4) 0.7539(4) 0.4546(2)
C95_3 C 0.0628(4) 0.7661(4) 0.4249(2)
C96_3 C 0.0589(4) 0.8297(4) 0.4068(2)
C97_3 C 0.0944(4) 0.8398(4) 0.3737(2)
C98_3 C 0.1338(4) 0.7864(4) 0.3587(2)
C99_3 C 0.1377(4) 0.7228(4) 0.3767(2)
C100_3 C 0.1022(4) 0.7127(4) 0.4099(2)
C107_3 C 0.152(2) 0.788(2) 0.3219(11)
O25_3 O 0.1952(11) 0.7498(11) 0.3037(6)
O26_3 O 0.1561(12) 0.8497(13) 0.3037(6)
H50_3 H 0.191253 0.879604 0.315934
H52_3 H 0.0913461 0.889577 0.359509
H53_3 H 0.0377057 0.845353 0.485529
H54_3 H 0.105315 0.662946 0.42411
H56_2 H 0.0406649 0.862583 0.557895
H59_2 H 0.00982416 0.903 0.621175
H62_3 H 0.168474 0.680925 0.364857
H63_3 H 0.0280209 0.87156 0.418579
H57_2 H 0.905627 0.0052166 0.65355
C1_3 C 0.3790(4) 0.5514(4) 0.3405(2)
C2_3 C 0.1952(4) 0.2942(3) 0.08716(19)
C3_3 C 0.0505(4) 0.7871(4) 0.1214(2)
C4_3 C 0.0073(4) 0.8505(4) 0.11499(19)
C5_3 C 0.1719(5) 0.6080(5) 0.1517(3)
C6_3 C 0.2015(4) 0.4233(4) 0.1248(2)
C7_3 C 0.2822(5) 0.5921(5) 0.2989(3)
H1_3 H 0.2619 0.6153 0.3188
C8_3 C 0.2039(4) 0.3563(4) 0.0674(2)
H2_3 H 0.2082 0.3543 0.0417
C9_3 C 0.0255(4) 0.7221(4) 0.1157(2)
C10_3 C 0.1905(4) 0.2986(5) 0.1260(2)
H4_3 H 0.1854 0.2587 0.1403
C11_3 C 0.2088(6) 0.6136(5) 0.1848(3)
H5_3 H 0.2099 0.6547 0.1983
C12_3 C 0.1934(5) 0.3608(4) 0.1420(2)
H6_3 H 0.1895 0.3617 0.1677
C13_3 C 0.1298(5) 0.6733(5) 0.1394(3)
C14_3 C 0.2028(5) 0.4872(4) 0.1438(2)
C15_3 C 0.3712(5) 0.5177(5) 0.2741(3)
H7_3 H 0.4112 0.4913 0.2772
C16_3 C 0.1690(5) 0.5475(5) 0.1323(2)
H8_3 H 0.1435 0.5462 0.1104
C17_3 C 0.2815(5) 0.5569(5) 0.2339(2)
C18_3 C 0.2448(6) 0.5534(5) 0.1967(3)
C19_3 C 0.2429(5) 0.4929(4) 0.1775(2)
H9_3 H 0.2677 0.4547 0.1861
C20_3 C 0.3396(5) 0.5190(4) 0.2388(2)
H10_3 H 0.3585 0.4939 0.2192
C21_3 C 0.3464(5) 0.5529(4) 0.3035(2)
C22_3 C 0.2063(5) 0.4195(4) 0.0843(2)
H11_3 H 0.2109 0.4598 0.0702
C23_3 C 0.0628(5) 0.6640(5) 0.1244(3)
H12_3 H 0.0447 0.6199 0.1207
C24_3 C 0.1176(6) 0.7950(5) 0.1359(3)
H13_3 H 0.1352 0.8394 0.1395
C25_3 C 0.1577(6) 0.7387(5) 0.1446(3)
H14_3 H 0.2025 0.7443 0.1538
C26_3 C 0.2526(6) 0.5938(5) 0.2639(3)
H15_3 H 0.2127 0.6199 0.2601
C27_3 C 0.1913(3) 0.2278(4) 0.06874(18)
C28_3 C 0.2669(4) 0.5462(4) 0.4634(2)
C29_3 C 0.2190(10) 0.4905(10) 0.4701(5)
C30_3 C 0.1926(10) 0.4533(10) 0.4355(5)
C31_2 C 0.1959(10) 0.4791(10) 0.5076(5)
C32_2 C 0.1507(10) 0.4149(10) 0.5110(5)
C33_3 C 0.1277(10) 0.3899(10) 0.4808(5)
C34_3 C 0.1476(4) 0.3943(4) 0.4420(2)
C35_3 C 0.0778(4) 0.3186(4) 0.4819(2)
C36_2 C 0.0828(4) 0.2733(4) 0.5118(2)
C37_2 C 0.0413(4) 0.2144(4) 0.5131(2)
C40_3 C 0.0313(4) 0.3050(4) 0.4533(2)
C47_2 C 0.0634(4) 0.1695(4) 0.5448(2)
C48_2 C 0.1314(4) 0.1750(4) 0.5573(2)
C49_2 C 0.1486(4) 0.1525(4) 0.5928(2)
C50_2 C 0.0978(4) 0.1245(4) 0.6157(2)
C51_2 C 0.0299(4) 0.1190(4) 0.6032(2)
C52_2 C 0.0126(4) 0.1416(4) 0.5677(2)
C54_2 C 0.1010(12) 0.0988(12) 0.6466(6)
O4_3 O 0.4369(3) 0.5226(3) 0.34239(14)
O6_3 O 0.4344(3) 0.5244(3) 0.41698(14)
O8_3 O 0.3485(3) 0.5780(3) 0.36710(14)
O9_3 O 0.3009(3) 0.5411(3) 0.43353(15)
O13_2 O 0.1738 0.0829 0.6496
O14_2 O 0.0760 0.0369 0.6660
C55_3 C 0.6210(4) 0.4486(4) 0.3405(2)
C56_3 C 0.8048(4) 0.7058(3) 0.08716(19)
C57_3 C 0.9495(4) 0.2129(4) 0.1214(2)
C58_3 C 0.9927(4) 0.1495(4) 0.11499(19)
C59_3 C 0.8281(5) 0.3920(5) 0.1517(3)
C60_3 C 0.7985(4) 0.5767(4) 0.1248(2)
C61_3 C 0.7178(5) 0.4079(5) 0.2989(3)
H16_3 H 0.7381 0.3847 0.3188
C62_3 C 0.7961(4) 0.6437(4) 0.0674(2)
H17_3 H 0.7918 0.6457 0.0417
C63_3 C 0.9745(4) 0.2779(4) 0.1157(2)
C64_3 C 0.8095(4) 0.7014(5) 0.1260(2)
H19_3 H 0.8146 0.7413 0.1403
C65_3 C 0.7912(6) 0.3864(5) 0.1848(3)
H20_3 H 0.7901 0.3453 0.1983
C66_3 C 0.8066(5) 0.6392(4) 0.1420(2)
H21_3 H 0.8105 0.6383 0.1677
C67_3 C 0.8702(5) 0.3267(5) 0.1394(3)
C68_3 C 0.7972(5) 0.5128(4) 0.1438(2)
C69_3 C 0.6288(5) 0.4823(5) 0.2741(3)
H22_3 H 0.5888 0.5087 0.2772
C70_3 C 0.8310(5) 0.4525(5) 0.1323(2)
H23_3 H 0.8565 0.4538 0.1104
C71_3 C 0.7185(5) 0.4431(5) 0.2339(2)
C72_3 C 0.7552(6) 0.4466(5) 0.1967(3)
C73_3 C 0.7571(5) 0.5071(4) 0.1775(2)
H24_3 H 0.7323 0.5453 0.1861
C74_3 C 0.6604(5) 0.4810(4) 0.2388(2)
H25_3 H 0.6415 0.5061 0.2192
C75_3 C 0.6536(5) 0.4471(4) 0.3035(2)
C76_3 C 0.7937(5) 0.5805(4) 0.0843(2)
H26_3 H 0.7891 0.5402 0.0702
C77_3 C 0.9372(5) 0.3360(5) 0.1244(3)
H27_3 H 0.9553 0.3801 0.1207
C78_3 C 0.8824(6) 0.2050(5) 0.1359(3)
H28_3 H 0.8648 0.1606 0.1395
C79_3 C 0.8423(6) 0.2613(5) 0.1446(3)
H29_3 H 0.7975 0.2557 0.1538
C80_3 C 0.7474(6) 0.4062(5) 0.2639(3)
H30_3 H 0.7873 0.3801 0.2601
C81_3 C 0.8087(3) 0.7722(4) 0.06874(18)
C82_3 C 0.7331(4) 0.4538(4) 0.4634(2)
C83_3 C 0.7810(10) 0.5095(10) 0.4701(5)
C84_3 C 0.8074(10) 0.5467(10) 0.4355(5)
C85_2 C 0.8041(10) 0.5209(10) 0.5076(5)
C86_2 C 0.8493(10) 0.5851(10) 0.5110(5)
C87_3 C 0.8723(10) 0.6101(10) 0.4808(5)
C88_3 C 0.8524(4) 0.6057(4) 0.4420(2)
C89_3 C 0.9222(4) 0.6814(4) 0.4819(2)
C90_2 C 0.9172(4) 0.7267(4) 0.5118(2)
C91_2 C 0.9587(4) 0.7856(4) 0.5131(2)
C94_3 C 0.9687(4) 0.6950(4) 0.4533(2)
C101_2 C 0.9366(4) 0.8305(4) 0.5448(2)
C102_2 C 0.8686(4) 0.8250(4) 0.5573(2)
C103_2 C 0.8514(4) 0.8475(4) 0.5928(2)
C104_2 C 0.9022(4) 0.8755(4) 0.6157(2)
C105_2 C 0.9701(4) 0.8810(4) 0.6032(2)
C106_2 C 0.9874(4) 0.8584(4) 0.5677(2)
C108_2 C 0.8990(12) 0.9012(12) 0.6466(6)
O18_3 O 0.5631(3) 0.4774(3) 0.34239(14)
O20_3 O 0.5656(3) 0.4756(3) 0.41698(14)
O22_3 O 0.6515(3) 0.4220(3) 0.36710(14)
O23_3 O 0.6991(3) 0.4589(3) 0.43353(15)
O27_2 O 0.8262 0.9171 0.6496
O28_2 O 0.9240 0.9631 0.6660
H32_3 H 0.206693 0.470038 0.407635
H33_3 H 0.209287 0.512633 0.530843
H34_2 H 0.119212 0.283956 0.534192
H36_3 H 0.0274046 0.340503 0.429885
H37_3 H 0.130918 0.358056 0.420606
H39_2 H 0.171155 0.196904 0.539311
H40_2 H 0.201828 0.156818 0.602645
H44_2 H 0.138704 0.391646 0.537786
H48_3 H 0.793307 0.529962 0.407635
H49_3 H 0.972595 0.659497 0.429885
H51_3 H 0.869082 0.641944 0.420606
H55_2 H 0.880788 0.716044 0.534192
H58_3 H 0.790713 0.487367 0.530843
H60_2 H 0.861296 0.608354 0.537786
H61_2 H 0.828845 0.803096 0.539311
H64_2 H 0.798172 0.843182 0.602645
H47_2 H 0.0943729 0.994783 0.65355
H3_3 H 0.9815 0.7169 0.1056
C38_3 C 0.9948(4) 0.2008(4) 0.4845(2)
C39_3 C 0.9898(4) 0.2461(4) 0.4546(2)
C41_3 C 0.9372(4) 0.2339(4) 0.4249(2)
C42_3 C 0.9411(4) 0.1703(4) 0.4068(2)
C43_3 C 0.9056(4) 0.1602(4) 0.3737(2)
C44_3 C 0.8662(4) 0.2136(4) 0.3587(2)
C45_3 C 0.8623(4) 0.2772(4) 0.3767(2)
C46_3 C 0.8978(4) 0.2873(4) 0.4099(2)
C53_3 C 0.848(2) 0.212(2) 0.3219(11)
O11_3 O 0.8048(11) 0.2502(11) 0.3037(6)
O12_3 O 0.8439(12) 0.1503(13) 0.3037(6)
H31_3 H 0.894685 0.337054 0.42411
H35_3 H 0.962294 0.154647 0.485529
H38_3 H 0.831526 0.319075 0.364857
H41_2 H 0.990176 0.0970002 0.621175
H42_2 H 0.959335 0.137417 0.557895
H43_3 H 0.971979 0.12844 0.418579
H45_3 H 0.908654 0.110423 0.359509
H46_3 H 0.808747 0.120396 0.315934
H58_4 H 0.0126327 0.290713 0.0308432
C55_4 C 0.0514(4) 0.1210(4) 0.8405(2)
C57_4 C 0.2871(4) 0.4495(4) 0.6214(2)
C58_4 C 0.3505(4) 0.4927(4) 0.61499(19)
C59_4 C 0.1080(5) 0.3281(5) 0.6517(3)
C61_4 C 0.0921(5) 0.2178(5) 0.7989(3)
H16_4 H 0.1153 0.2381 0.8188
C63_4 C 0.2221(4) 0.4745(4) 0.6157(2)
H18_4 H 0.2169 0.5185 0.6056
C65_4 C 0.1136(5) 0.2912(6) 0.6848(3)
H20_4 H 0.1547 0.2901 0.6983
C67_4 C 0.1733(5) 0.3702(5) 0.6394(3)
C69_4 C 0.0177(5) 0.1288(5) 0.7741(3)
C70_4 C 0.0475(5) 0.3310(5) 0.6323(2)
H23_4 H 0.0462 0.3565 0.6104
C71_4 C 0.0569(5) 0.2185(5) 0.7339(2)
C72_4 C 0.0534(5) 0.2552(6) 0.6967(3)
C74_4 C 0.0190(4) 0.1604(5) 0.7388(2)
C75_4 C 0.0529(4) 0.1536(5) 0.8035(2)
C77_4 C 0.1640(5) 0.4372(5) 0.6244(3)
H27_4 H 0.1199 0.4553 0.6207
C78_4 C 0.2950(5) 0.3824(6) 0.6359(3)
H28_4 H 0.3394 0.3648 0.6395
C79_4 C 0.2387(5) 0.3423(6) 0.6446(3)
H29_4 H 0.2443 0.2975 0.6538
C80_4 C 0.0938(5) 0.2474(6) 0.7639(3)
H30_4 H 0.1199 0.2873 0.7601
C82_4 C 0.0462(4) 0.2331(4) 0.9634(2)
O18_4 O 0.0226(3) 0.0631(3) 0.84239(14)
O20_4 O 0.0244(3) 0.0656(3) 0.91698(14)
O22_4 O 0.0780(3) 0.1515(3) 0.86710(14)
O23_4 O 0.0411(3) 0.1991(3) 0.93353(15)
C2_4 C 0.2058(3) 0.6952(4) 0.58716(19)
C6_4 C 0.0767(4) 0.7015(4) 0.6248(2)
C8_4 C 0.1437(4) 0.7039(4) 0.5674(2)
H2_4 H 0.1457 0.7082 0.5417
C10_4 C 0.2014(5) 0.6905(4) 0.6260(2)
H4_4 H 0.2413 0.6854 0.6403
C12_4 C 0.1392(4) 0.6934(5) 0.6420(2)
H6_4 H 0.1383 0.6895 0.6677
C14_4 C 0.0128(4) 0.7028(5) 0.6438(2)
H7_4 H 0.0087 0.9112 0.7772
C19_4 C 0.0071(4) 0.7429(5) 0.6775(2)
H9_4 H 0.0453 0.7677 0.6861
H10_4 H 0.0061 0.8585 0.7192
C22_4 C 0.0805(4) 0.7063(5) 0.5843(2)
H11_4 H 0.0402 0.7109 0.5702
C27_4 C 0.2722(4) 0.6913(3) 0.56874(18)
C29_4 C 0.0095(10) 0.7190(10) 0.9701(5)
C30_4 C 0.0467(10) 0.6926(10) 0.9355(5)
C33_4 C 0.1101(10) 0.6277(10) 0.9808(5)
C34_4 C 0.1057(4) 0.6476(4) 0.9420(2)
C35_4 C 0.1814(4) 0.5778(4) 0.9819(2)
C38_4 C 0.2992(4) 0.4948(4) 0.9845(2)
C39_4 C 0.2539(4) 0.4898(4) 0.9546(2)
C40_4 C 0.1950(4) 0.5313(4) 0.9533(2)
C41_4 C 0.2661(4) 0.4372(4) 0.9249(2)
C42_4 C 0.3297(4) 0.4411(4) 0.9068(2)
C43_4 C 0.3398(4) 0.4056(4) 0.8737(2)
C44_4 C 0.2864(4) 0.3662(4) 0.8587(2)
C45_4 C 0.2228(4) 0.3623(4) 0.8767(2)
C46_4 C 0.2127(4) 0.3978(4) 0.9099(2)
C53_4 C 0.288(2) 0.348(2) 0.8219(11)
O11_4 O 0.2498(11) 0.3048(11) 0.8037(6)
O12_4 O 0.3497(13) 0.3439(12) 0.8037(6)
H31_4 H 0.162946 0.394685 0.92411
H32_4 H 0.0299624 0.706693 0.907635
H35_4 H 0.345353 0.462294 0.985529
H36_4 H 0.159497 0.527405 0.929885
H37_4 H 0.141944 0.630918 0.920606
H38_4 H 0.180925 0.331526 0.864857
H43_4 H 0.37156 0.471979 0.918579
H45_4 H 0.389577 0.408654 0.859509
H46_4 H 0.379604 0.308747 0.815934
C56_4 C 0.7942(3) 0.3048(4) 0.58716(19)
C60_4 C 0.9233(4) 0.2985(4) 0.6248(2)
C62_4 C 0.8563(4) 0.2961(4) 0.5674(2)
H17_4 H 0.8543 0.2918 0.5417
C64_4 C 0.7986(5) 0.3095(4) 0.6260(2)
H19_4 H 0.7587 0.3146 0.6403
C66_4 C 0.8608(4) 0.3066(5) 0.6420(2)
H21_4 H 0.8617 0.3105 0.6677
C68_4 C 0.9872(4) 0.2972(5) 0.6438(2)
H22_4 H 0.9913 0.0888 0.7772
C73_4 C 0.9929(4) 0.2571(5) 0.6775(2)
H24_4 H 0.9547 0.2323 0.6861
H25_4 H 0.9939 0.1415 0.7192
C76_4 C 0.9195(4) 0.2937(5) 0.5843(2)
H26_4 H 0.9598 0.2891 0.5702
C81_4 C 0.7278(4) 0.3087(3) 0.56874(18)
C83_4 C 0.9905(10) 0.2810(10) 0.9701(5)
C84_4 C 0.9533(10) 0.3074(10) 0.9355(5)
C87_4 C 0.8899(10) 0.3723(10) 0.9808(5)
C88_4 C 0.8943(4) 0.3524(4) 0.9420(2)
C89_4 C 0.8186(4) 0.4222(4) 0.9819(2)
C92_4 C 0.7008(4) 0.5052(4) 0.9845(2)
C93_4 C 0.7461(4) 0.5102(4) 0.9546(2)
C94_4 C 0.8050(4) 0.4687(4) 0.9533(2)
C95_4 C 0.7339(4) 0.5628(4) 0.9249(2)
C96_4 C 0.6703(4) 0.5589(4) 0.9068(2)
C97_4 C 0.6602(4) 0.5944(4) 0.8737(2)
C98_4 C 0.7136(4) 0.6338(4) 0.8587(2)
C99_4 C 0.7772(4) 0.6377(4) 0.8767(2)
C100_4 C 0.7873(4) 0.6022(4) 0.9099(2)
C107_4 C 0.712(2) 0.652(2) 0.8219(11)
O25_4 O 0.7502(11) 0.6952(11) 0.8037(6)
O26_4 O 0.6503(13) 0.6561(12) 0.8037(6)
H48_4 H 0.970038 0.293307 0.907635
H49_4 H 0.840503 0.472595 0.929885
H50_4 H 0.620396 0.691253 0.815934
H51_4 H 0.858056 0.369082 0.920606
H52_4 H 0.610423 0.591346 0.859509
H53_4 H 0.654647 0.537706 0.985529
H54_4 H 0.837054 0.605315 0.92411
H62_4 H 0.819075 0.668474 0.864857
H63_4 H 0.62844 0.528021 0.918579
H33_4 H 0.987367 0.709287 0.0308432
C1_4 C 0.9486(4) 0.8790(4) 0.8405(2)
C3_4 C 0.7129(4) 0.5505(4) 0.6214(2)
C4_4 C 0.6495(4) 0.5073(4) 0.61499(19)
C5_4 C 0.8920(5) 0.6719(5) 0.6517(3)
C7_4 C 0.9079(5) 0.7822(5) 0.7989(3)
H1_4 H 0.8847 0.7619 0.8188
C9_4 C 0.7779(4) 0.5255(4) 0.6157(2)
H3_4 H 0.7831 0.4815 0.6056
C11_4 C 0.8864(5) 0.7088(6) 0.6848(3)
H5_4 H 0.8453 0.7099 0.6983
C13_4 C 0.8267(5) 0.6298(5) 0.6394(3)
C15_4 C 0.9823(5) 0.8712(5) 0.7741(3)
C16_4 C 0.9525(5) 0.6690(5) 0.6323(2)
H8_4 H 0.9538 0.6435 0.6104
C17_4 C 0.9431(5) 0.7815(5) 0.7339(2)
C18_4 C 0.9466(5) 0.7448(6) 0.6967(3)
C20_4 C 0.9810(4) 0.8396(5) 0.7388(2)
C21_4 C 0.9471(4) 0.8464(5) 0.8035(2)
C23_4 C 0.8360(5) 0.5628(5) 0.6244(3)
H12_4 H 0.8801 0.5447 0.6207
C24_4 C 0.7050(5) 0.6176(6) 0.6359(3)
H13_4 H 0.6606 0.6352 0.6395
C25_4 C 0.7613(5) 0.6577(6) 0.6446(3)
H14_4 H 0.7557 0.7025 0.6538
C26_4 C 0.9062(5) 0.7526(6) 0.7639(3)
H15_4 H 0.8801 0.7127 0.7601
C28_4 C 0.9538(4) 0.7669(4) 0.9634(2)
O4_4 O 0.9774(3) 0.9369(3) 0.84239(14)
O6_4 O 0.9756(3) 0.9344(3) 0.91698(14)
O8_4 O 0.9220(3) 0.8485(3) 0.86710(14)
O9_4 O 0.9589(3) 0.8009(3) 0.93353(15)
C85_3 C 0.3041(10) 0.9791(10) 0.9924(5)
C86_3 C 0.3493(10) 0.9149(10) 0.9890(5)
C90_3 C 0.4172(4) 0.7733(4) 0.9882(2)
C91_3 C 0.4587(4) 0.7144(4) 0.9869(2)
C101_3 C 0.4366(4) 0.6695(4) 0.9552(2)
C102_3 C 0.3686(4) 0.6750(4) 0.9427(2)
C103_3 C 0.3514(4) 0.6525(4) 0.9072(2)
C104_3 C 0.4022(4) 0.6245(4) 0.8843(2)
C105_3 C 0.4701(4) 0.6190(4) 0.8968(2)
C106_3 C 0.4874(4) 0.6416(4) 0.9323(2)
C108_3 C 0.3990(12) 0.5988(12) 0.8534(6)
O27_3 O 0.3262 0.5829 0.8504
O28_3 O 0.4240 0.5369 0.8340
H55_3 H 0.380788 0.783956 0.965808
H56_3 H 0.540665 0.637417 0.942105
H57_3 H 0.405627 0.494783 0.84645
H59_3 H 0.509824 0.597 0.878825
H60_3 H 0.361296 0.891646 0.962214
H61_3 H 0.328845 0.696904 0.960689
H64_3 H 0.298172 0.656818 0.897355
C31_3 C 0.6959(10) 0.0209(10) 0.9924(5)
C32_3 C 0.6507(10) 0.0851(10) 0.9890(5)
C36_3 C 0.5828(4) 0.2267(4) 0.9882(2)
C37_3 C 0.5413(4) 0.2856(4) 0.9869(2)
C47_3 C 0.5634(4) 0.3305(4) 0.9552(2)
C48_3 C 0.6314(4) 0.3250(4) 0.9427(2)
C49_3 C 0.6486(4) 0.3475(4) 0.9072(2)
C50_3 C 0.5978(4) 0.3755(4) 0.8843(2)
C51_3 C 0.5299(4) 0.3810(4) 0.8968(2)
C52_3 C 0.5126(4) 0.3584(4) 0.9323(2)
C54_3 C 0.6010(12) 0.4012(12) 0.8534(6)
O13_3 O 0.6738 0.4171 0.8504
O14_3 O 0.5760 0.4631 0.8340
H34_3 H 0.619212 0.216044 0.965808
H39_3 H 0.671155 0.303096 0.960689
H40_3 H 0.701828 0.343182 0.897355
H41_3 H 0.490176 0.403 0.878825
H42_3 H 0.459335 0.362583 0.942105
H44_3 H 0.638704 0.108354 0.962214
H47_3 H 0.594373 0.505217 0.84645
C31_4 C 0.0209(10) 0.6959(10) 0.0076(5)
C32_4 C 0.0851(10) 0.6507(10) 0.0110(5)
C36_4 C 0.2267(4) 0.5828(4) 0.0118(2)
C37_4 C 0.2856(4) 0.5413(4) 0.0131(2)
C47_4 C 0.3305(4) 0.5634(4) 0.0448(2)
C48_4 C 0.3250(4) 0.6314(4) 0.0573(2)
C49_4 C 0.3475(4) 0.6486(4) 0.0928(2)
C50_4 C 0.3755(4) 0.5978(4) 0.1157(2)
C51_4 C 0.3810(4) 0.5299(4) 0.1032(2)
C52_4 C 0.3584(4) 0.5126(4) 0.0677(2)
C54_4 C 0.4012(12) 0.6010(12) 0.1466(6)
O13_4 O 0.4171 0.6738 0.1496
O14_4 O 0.4631 0.5760 0.1660
H34_4 H 0.216044 0.619212 0.0341915
H39_4 H 0.303096 0.671155 0.0393114
H40_4 H 0.343182 0.701828 0.102645
H41_4 H 0.403 0.490176 0.121175
H42_4 H 0.362583 0.459335 0.0578953
H44_4 H 0.108354 0.638704 0.0377861
H47_4 H 0.505217 0.594373 0.15355
C85_4 C 0.9791(10) 0.3041(10) 0.0076(5)
C86_4 C 0.9149(10) 0.3493(10) 0.0110(5)
C90_4 C 0.7733(4) 0.4172(4) 0.0118(2)
C91_4 C 0.7144(4) 0.4587(4) 0.0131(2)
C101_4 C 0.6695(4) 0.4366(4) 0.0448(2)
C102_4 C 0.6750(4) 0.3686(4) 0.0573(2)
C103_4 C 0.6525(4) 0.3514(4) 0.0928(2)
C104_4 C 0.6245(4) 0.4022(4) 0.1157(2)
C105_4 C 0.6190(4) 0.4701(4) 0.1032(2)
C106_4 C 0.6416(4) 0.4874(4) 0.0677(2)
C108_4 C 0.5988(12) 0.3990(12) 0.1466(6)
O27_4 O 0.5829 0.3262 0.1496
O28_4 O 0.5369 0.4240 0.1660
H55_4 H 0.783956 0.380788 0.0341915
H56_4 H 0.637417 0.540665 0.0578953
H57_4 H 0.494783 0.405627 0.15355
H59_4 H 0.597 0.509824 0.121175
H60_4 H 0.891646 0.361296 0.0377861
H61_4 H 0.696904 0.328845 0.0393114
H64_4 H 0.656818 0.298172 0.102645
loop_
_geom_bond_atom_site_label_1
_geom_bond_atom_site_label_2
_geom_bond_site_symmetry_1
_geom_bond_site_symmetry_2
C55 C75 1_555 1_555
C57 C58 1_555 1_555
C58 O16 1_555 1_555
C59 C65 1_555 1_555
C61 H16 1_555 1_555
C63 C57 1_555 1_555
H18 C63 1_555 1_555
C65 H20 1_555 1_555
C67 C59 1_555 1_555
C70 C59 1_555 1_555
H23 C70 1_555 1_555
C71 C72 1_555 1_555
C72 C65 1_555 1_555
C74 C69 1_555 1_555
C75 C61 1_555 1_555
C77 C63 1_555 1_555
H27 C77 1_555 1_555
C78 C57 1_555 1_555
H28 C78 1_555 1_555
C79 C67 1_555 1_555
H29 C79 1_555 1_555
C80 C61 1_555 1_555
H30 C80 1_555 1_555
Al4 O17 1_555 1_555
O16 Al13 1_555 1_555
O17 Al8 1_555 1_555
O18 Al1 1_555 1_555
O20 Al1 1_555 1_555
O21 C58 1_555 1_555
O22 C55 1_555 1_555
O23 C82 1_555 1_555
O24 C82 1_555 1_555
Al6 O21 1_555 1_555
Al8 O24 1_555 1_555
O29 Al4 1_555 1_555
O32 Al4 1_555 1_555
C55 O18 1_555 1_555
C67 C77 1_555 1_555
C69 C75 1_555 1_555
C71 C74 1_555 1_555
C71 C80 1_555 1_555
C78 C79 1_555 1_555
Al4 O20 1_555 1_555
Al4 O22 1_555 1_555
Al4 O23 1_555 1_555
C56 C62 1_555 1_555
C60 C66 1_555 1_555
C62 H17 1_555 1_555
C64 C56 1_555 1_555
H19 C64 1_555 1_555
C66 C64 1_555 1_555
H21 C66 1_555 1_555
C68 C60 1_555 1_555
C73 C68 1_555 1_555
H24 C73 1_555 1_555
C76 C60 1_555 1_555
H26 C76 1_555 1_555
C81 C56 1_555 1_555
C83 C84 1_555 1_555
C84 C88 1_555 1_555
C88 C87 1_555 1_555
C89 C87 1_555 1_555
C93 C92 1_555 1_555
C94 C89 1_555 1_555
C95 C93 1_555 1_555
C96 C95 1_555 1_555
C97 C96 1_555 1_555
C98 C97 1_555 1_555
C99 C98 1_555 1_555
C100 C95 1_555 1_555
C107 C98 1_555 1_555
O15 C81 1_555 1_555
O19 C81 1_555 1_555
O25 C107 1_555 1_555
O26 C107 1_555 1_555
Al9 O19 1_555 1_555
Al11 O15 1_555 1_555
O36 Al1_2 1_555 1_555
C62 C76 1_555 1_555
C93 C94 1_555 1_555
C99 C100 1_555 1_555
C84 H48 1_555 1_555
C94 H49 1_555 1_555
O26 H50 1_555 1_555
C88 H51 1_555 1_555
C97 H52 1_555 1_555
C92 H53 1_555 1_555
C100 H54 1_555 1_555
C99 H62 1_555 1_555
C96 H63 1_555 1_555
C2 C8 1_555 1_555
C6 C12 1_555 1_555
C8 H2 1_555 1_555
C10 C2 1_555 1_555
H4 C10 1_555 1_555
C12 C10 1_555 1_555
H6 C12 1_555 1_555
C14 C6 1_555 1_555
C19 C14 1_555 1_555
H9 C19 1_555 1_555
C22 C6 1_555 1_555
H11 C22 1_555 1_555
C27 C2 1_555 1_555
C29 C30 1_555 1_555
C30 C34 1_555 1_555
C34 C33 1_555 1_555
C35 C33 1_555 1_555
C39 C38 1_555 1_555
C40 C35 1_555 1_555
C41 C39 1_555 1_555
C42 C41 1_555 1_555
C43 C42 1_555 1_555
C44 C43 1_555 1_555
C45 C44 1_555 1_555
C46 C41 1_555 1_555
C53 C44 1_555 1_555
O1 C27 1_555 1_555
O5 C27 1_555 1_555
O11 C53 1_555 1_555
O12 C53 1_555 1_555
Al7 O5 1_555 1_555
Al13 O1 1_555 1_555
O37 Al1_3 1_555 1_555
C8 C22 1_555 1_555
C39 C40 1_555 1_555
C45 C46 1_555 1_555
C46 H31 1_555 1_555
C30 H32 1_555 1_555
C38 H35 1_555 1_555
C40 H36 1_555 1_555
C34 H37 1_555 1_555
C45 H38 1_555 1_555
C42 H43 1_555 1_555
C43 H45 1_555 1_555
O12 H46 1_555 1_555
C1 C21 1_555 1_555
C3 C4 1_555 1_555
C4 O2 1_555 1_555
C5 C11 1_555 1_555
C7 H1 1_555 1_555
C9 C3 1_555 1_555
H3 C9 1_555 1_555
C11 H5 1_555 1_555
C13 C5 1_555 1_555
C16 C5 1_555 1_555
H8 C16 1_555 1_555
C17 C18 1_555 1_555
C18 C11 1_555 1_555
C20 C15 1_555 1_555
C21 C7 1_555 1_555
C23 C9 1_555 1_555
H12 C23 1_555 1_555
C24 C3 1_555 1_555
H13 C24 1_555 1_555
C25 C13 1_555 1_555
H14 C25 1_555 1_555
C26 C7 1_555 1_555
H15 C26 1_555 1_555
Al1_4 O4 1_555 1_555
Al2 O3 1_555 1_555
Al3 O3 1_555 1_555
O2 Al11 1_555 1_555
O4 C1 1_555 1_555
O6 Al1_4 1_555 1_555
O7 C4 1_555 1_555
O8 C1 1_555 1_555
O9 C28 1_555 1_555
O10 C28 1_555 1_555
Al6 O7 1_555 1_555
O30 Al3 1_555 1_555
O31 Al3 1_555 1_555
O35 Al2 1_555 1_555
C13 C23 1_555 1_555
C15 C21 1_555 1_555
C17 C20 1_555 1_555
C17 C26 1_555 1_555
C24 C25 1_555 1_555
Al2 O10 1_555 1_555
Al3 O6 1_555 1_555
Al3 O8 1_555 1_555
Al3 O9 1_555 1_555
O33 Al2_2 1_555 1_555
O34 Al2_2 1_555 1_555
O38 Al2_2 1_555 1_555
C93_2 C92_2 1_555 1_555
C95_2 C93_2 1_555 1_555
C96_2 C95_2 1_555 1_555
C97_2 C96_2 1_555 1_555
C98_2 C97_2 1_555 1_555
C99_2 C98_2 1_555 1_555
C100_2 C95_2 1_555 1_555
C107_2 C98_2 1_555 1_555
O16_2 Al13_2 1_555 1_555
O25_2 C107_2 1_555 1_555
O26_2 C107_2 1_555 1_555
C99_2 C100_2 1_555 1_555
O26_2 H50_2 1_555 1_555
C97_2 H52_2 1_555 1_555
C92_2 H53_2 1_555 1_555
C100_2 H54_2 1_555 1_555
C99_2 H62_2 1_555 1_555
C96_2 H63_2 1_555 1_555
C1_2 C21_2 1_555 1_555
C2_2 C8_2 1_555 1_555
C3_2 C4_2 1_555 1_555
C5_2 C11_2 1_555 1_555
C6_2 C12_2 1_555 1_555
C7_2 H1_2 1_555 1_555
C8_2 H2_2 1_555 1_555
C9_2 C3_2 1_555 1_555
C10_2 C2_2 1_555 1_555
H4_2 C10_2 1_555 1_555
C11_2 H5_2 1_555 1_555
C12_2 C10_2 1_555 1_555
H6_2 C12_2 1_555 1_555
C13_2 C5_2 1_555 1_555
C14_2 C6_2 1_555 1_555
C15_2 H7_2 1_555 1_555
C16_2 C5_2 1_555 1_555
H8_2 C16_2 1_555 1_555
C17_2 C18_2 1_555 1_555
C18_2 C11_2 1_555 1_555
C19_2 C14_2 1_555 1_555
H9_2 C19_2 1_555 1_555
C20_2 C15_2 1_555 1_555
H10_2 C20_2 1_555 1_555
C21_2 C7_2 1_555 1_555
C22_2 C6_2 1_555 1_555
H11_2 C22_2 1_555 1_555
C23_2 C9_2 1_555 1_555
H12_2 C23_2 1_555 1_555
C24_2 C3_2 1_555 1_555
H13_2 C24_2 1_555 1_555
C25_2 C13_2 1_555 1_555
H14_2 C25_2 1_555 1_555
C26_2 C7_2 1_555 1_555
H15_2 C26_2 1_555 1_555
C27_2 C2_2 1_555 1_555
C28_2 C29_2 1_555 1_555
C29_2 C30_2 1_555 1_555
C30_2 C34_2 1_555 1_555
C31 C29_2 1_555 1_555
C32 C31 1_555 1_555
C33_2 C32 1_555 1_555
C34_2 C33_2 1_555 1_555
C35_2 C33_2 1_555 1_555
C36 C35_2 1_555 1_555
C37 C36 1_555 1_555
C40_2 C35_2 1_555 1_555
C47 C37 1_555 1_555
C48 C47 1_555 1_555
C49 C48 1_555 1_555
C50 C49 1_555 1_555
C51 C50 1_555 1_555
C52 C47 1_555 1_555
C54 C50 1_555 1_555
Al1_5 O4_2 1_555 1_555
Al7 O3_2 1_555 1_555
Al3_2 O3_2 1_555 1_555
O1_2 C27_2 1_555 1_555
O4_2 C1_2 1_555 1_555
O5_2 C27_2 1_555 1_555
O6_2 Al1_5 1_555 1_555
O7_2 C4_2 1_555 1_555
O8_2 C1_2 1_555 1_555
O9_2 C28_2 1_555 1_555
O10_2 C28_2 1_555 1_555
O13 C54 1_555 1_555
O14 C54 1_555 1_555
C55_2 C75_2 1_555 1_555
C56_2 C62_2 1_555 1_555
C57_2 C58_2 1_555 1_555
C59_2 C65_2 1_555 1_555
C60_2 C66_2 1_555 1_555
C61_2 H16_2 1_555 1_555
C62_2 H17_2 1_555 1_555
C63_2 C57_2 1_555 1_555
C64_2 C56_2 1_555 1_555
H19_2 C64_2 1_555 1_555
C65_2 H20_2 1_555 1_555
C66_2 C64_2 1_555 1_555
H21_2 C66_2 1_555 1_555
C67_2 C59_2 1_555 1_555
C68_2 C60_2 1_555 1_555
C69_2 H22_2 1_555 1_555
C70_2 C59_2 1_555 1_555
H23_2 C70_2 1_555 1_555
C71_2 C72_2 1_555 1_555
C72_2 C65_2 1_555 1_555
C73_2 C68_2 1_555 1_555
H24_2 C73_2 1_555 1_555
C74_2 C69_2 1_555 1_555
H25_2 C74_2 1_555 1_555
C75_2 C61_2 1_555 1_555
C76_2 C60_2 1_555 1_555
H26_2 C76_2 1_555 1_555
C77_2 C63_2 1_555 1_555
H27_2 C77_2 1_555 1_555
C78_2 C57_2 1_555 1_555
H28_2 C78_2 1_555 1_555
C79_2 C67_2 1_555 1_555
H29_2 C79_2 1_555 1_555
C80_2 C61_2 1_555 1_555
H30_2 C80_2 1_555 1_555
C81_2 C56_2 1_555 1_555
C82_2 C83_2 1_555 1_555
C83_2 C84_2 1_555 1_555
C84_2 C88_2 1_555 1_555
C85 C83_2 1_555 1_555
C86 C85 1_555 1_555
C87_2 C86 1_555 1_555
C88_2 C87_2 1_555 1_555
C89_2 C87_2 1_555 1_555
C90 C89_2 1_555 1_555
C91 C90 1_555 1_555
C94_2 C89_2 1_555 1_555
C101 C91 1_555 1_555
C102 C101 1_555 1_555
C103 C102 1_555 1_555
C104 C103 1_555 1_555
C105 C104 1_555 1_555
C106 C101 1_555 1_555
C108 C104 1_555 1_555
Al4_2 O17_2 1_555 1_555
O15_2 C81_2 1_555 1_555
O17_2 Al9 1_555 1_555
O18_2 Al1_5 1_555 1_555
O34 C81_2 1_555 1_555
O20_2 Al1_5 1_555 1_555
O21_2 C58_2 1_555 1_555
O22_2 C55_2 1_555 1_555
O23_2 C82_2 1_555 1_555
O24_2 C82_2 1_555 1_555
O27 C108 1_555 1_555
O28 C108 1_555 1_555
Al5_3 O7_2 1_555 1_555
Al5_2 O21_2 1_555 1_555
Al8_2 O5_2 1_555 1_555
Al9 O24_2 1_555 1_555
Al11_2 O15_2 1_555 1_555
Al13_2 O1_2 1_555 1_555
O29_2 Al4_2 1_555 1_555
O30_2 Al3_2 1_555 1_555
O31_2 Al3_2 1_555 1_555
O32_2 Al4_2 1_555 1_555
O33_2 Al7 1_555 1_555
O35_2 Al7 1_555 1_555
O36_2 Al1_5 1_555 1_555
O37_2 Al1_5 1_555 1_555
O38_2 Al7 1_555 1_555
C8_2 C22_2 1_555 1_555
C13_2 C23_2 1_555 1_555
C14_2 C16_2 1_555 1_555
C15_2 C21_2 1_555 1_555
C17_2 C20_2 1_555 1_555
C17_2 C26_2 1_555 1_555
C18_2 C19_2 1_555 1_555
C24_2 C25_2 1_555 1_555
C51 C52 1_555 1_555
Al7 O10_2 1_555 1_555
Al3_2 O6_2 1_555 1_555
Al3_2 O8_2 1_555 1_555
Al3_2 O9_2 1_555 1_555
C55_2 O18_2 1_555 1_555
C62_2 C76_2 1_555 1_555
C67_2 C77_2 1_555 1_555
C68_2 C70_2 1_555 1_555
C69_2 C75_2 1_555 1_555
C71_2 C74_2 1_555 1_555
C71_2 C80_2 1_555 1_555
C72_2 C73_2 1_555 1_555
C78_2 C79_2 1_555 1_555
C105 C106 1_555 1_555
Al4_2 O20_2 1_555 1_555
Al4_2 O22_2 1_555 1_555
Al4_2 O23_2 1_555 1_555
C30_2 H32_2 1_555 1_555
C31 H33_2 1_555 1_555
C36 H34 1_555 1_555
C40_2 H36_2 1_555 1_555
C34_2 H37_2 1_555 1_555
C48 H39 1_555 1_555
C49 H40 1_555 1_555
C32 H44 1_555 1_555
C84_2 H48_2 1_555 1_555
C94_2 H49_2 1_555 1_555
C88_2 H51_2 1_555 1_555
C90 H55 1_555 1_555
C85 H58_2 1_555 1_555
C86 H60 1_555 1_555
C102 H61 1_555 1_555
C103 H64 1_555 1_555
C39_2 C38_2 1_555 1_555
C41_2 C39_2 1_555 1_555
C42_2 C41_2 1_555 1_555
C43_2 C42_2 1_555 1_555
C44_2 C43_2 1_555 1_555
C45_2 C44_2 1_555 1_555
C46_2 C41_2 1_555 1_555
C53_2 C44_2 1_555 1_555
O2_2 Al11_2 1_555 1_555
O11_2 C53_2 1_555 1_555
O12_2 C53_2 1_555 1_555
C45_2 C46_2 1_555 1_555
C46_2 H31_2 1_555 1_555
C38_2 H35_2 1_555 1_555
C45_2 H38_2 1_555 1_555
C42_2 H43_2 1_555 1_555
C43_2 H45_2 1_555 1_555
O12_2 H46_2 1_555 1_555
O35_3 Al8 1_555 1_555
O33_3 Al8_2 1_555 1_555
O38_3 Al8_2 1_555 1_555
O33_4 Al9 1_555 1_555
O35_4 Al9 1_555 1_555
O38_4 Al9 1_555 1_555
C93_3 C92_3 1_555 1_555
C95_3 C93_3 1_555 1_555
C96_3 C95_3 1_555 1_555
C97_3 C96_3 1_555 1_555
C98_3 C97_3 1_555 1_555
C99_3 C98_3 1_555 1_555
C100_3 C95_3 1_555 1_555
C107_3 C98_3 1_555 1_555
O25_3 C107_3 1_555 1_555
O26_3 C107_3 1_555 1_555
C99_3 C100_3 1_555 1_555
O26_3 H50_3 1_555 1_555
C97_3 H52_3 1_555 1_555
C92_3 H53_3 1_555 1_555
C100_3 H54_3 1_555 1_555
C99_3 H62_3 1_555 1_555
C96_3 H63_3 1_555 1_555
C1_3 C21_3 1_555 1_555
C2_3 C8_3 1_555 1_555
C3_3 C4_3 1_555 1_555
C5_3 C11_3 1_555 1_555
C6_3 C12_3 1_555 1_555
C7_3 H1_3 1_555 1_555
C8_3 H2_3 1_555 1_555
C9_3 C3_3 1_555 1_555
C10_3 C2_3 1_555 1_555
H4_3 C10_3 1_555 1_555
C11_3 H5_3 1_555 1_555
C12_3 C10_3 1_555 1_555
H6_3 C12_3 1_555 1_555
C13_3 C5_3 1_555 1_555
C14_3 C6_3 1_555 1_555
C15_3 H7_3 1_555 1_555
C16_3 C5_3 1_555 1_555
H8_3 C16_3 1_555 1_555
C17_3 C18_3 1_555 1_555
C18_3 C11_3 1_555 1_555
C19_3 C14_3 1_555 1_555
H9_3 C19_3 1_555 1_555
C20_3 C15_3 1_555 1_555
H10_3 C20_3 1_555 1_555
C21_3 C7_3 1_555 1_555
C22_3 C6_3 1_555 1_555
H11_3 C22_3 1_555 1_555
C23_3 C9_3 1_555 1_555
H12_3 C23_3 1_555 1_555
C24_3 C3_3 1_555 1_555
H13_3 C24_3 1_555 1_555
C25_3 C13_3 1_555 1_555
H14_3 C25_3 1_555 1_555
C26_3 C7_3 1_555 1_555
H15_3 C26_3 1_555 1_555
C27_3 C2_3 1_555 1_555
C28_3 C29_3 1_555 1_555
C29_3 C30_3 1_555 1_555
C30_3 C34_3 1_555 1_555
C31_2 C29_3 1_555 1_555
C32_2 C31_2 1_555 1_555
C33_3 C32_2 1_555 1_555
C34_3 C33_3 1_555 1_555
C35_3 C33_3 1_555 1_555
C36_2 C35_3 1_555 1_555
C37_2 C36_2 1_555 1_555
C40_3 C35_3 1_555 1_555
C47_2 C37_2 1_555 1_555
C48_2 C47_2 1_555 1_555
C49_2 C48_2 1_555 1_555
C50_2 C49_2 1_555 1_555
C51_2 C50_2 1_555 1_555
C52_2 C47_2 1_555 1_555
C54_2 C50_2 1_555 1_555
Al6 O4_3 1_555 1_555
Al11 O33_4 1_555 1_555
O29 C27_3 1_555 1_555
O4_3 C1_3 1_555 1_555
O35_3 C27_3 1_555 1_555
O6_3 Al6 1_555 1_555
O36 C4_3 1_555 1_555
O8_3 C1_3 1_555 1_555
O9_3 C28_3 1_555 1_555
O38_4 C28_3 1_555 1_555
O13_2 C54_2 1_555 1_555
O14_2 C54_2 1_555 1_555
C55_3 C75_3 1_555 1_555
C56_3 C62_3 1_555 1_555
C57_3 C58_3 1_555 1_555
C59_3 C65_3 1_555 1_555
C60_3 C66_3 1_555 1_555
C61_3 H16_3 1_555 1_555
C62_3 H17_3 1_555 1_555
C63_3 C57_3 1_555 1_555
C64_3 C56_3 1_555 1_555
H19_3 C64_3 1_555 1_555
C65_3 H20_3 1_555 1_555
C66_3 C64_3 1_555 1_555
H21_3 C66_3 1_555 1_555
C67_3 C59_3 1_555 1_555
C68_3 C60_3 1_555 1_555
C69_3 H22_3 1_555 1_555
C70_3 C59_3 1_555 1_555
H23_3 C70_3 1_555 1_555
C71_3 C72_3 1_555 1_555
C72_3 C65_3 1_555 1_555
C73_3 C68_3 1_555 1_555
H24_3 C73_3 1_555 1_555
C74_3 C69_3 1_555 1_555
H25_3 C74_3 1_555 1_555
C75_3 C61_3 1_555 1_555
C76_3 C60_3 1_555 1_555
H26_3 C76_3 1_555 1_555
C77_3 C63_3 1_555 1_555
H27_3 C77_3 1_555 1_555
C78_3 C57_3 1_555 1_555
H28_3 C78_3 1_555 1_555
C79_3 C67_3 1_555 1_555
H29_3 C79_3 1_555 1_555
C80_3 C61_3 1_555 1_555
H30_3 C80_3 1_555 1_555
C81_3 C56_3 1_555 1_555
C82_3 C83_3 1_555 1_555
C83_3 C84_3 1_555 1_555
C84_3 C88_3 1_555 1_555
C85_2 C83_3 1_555 1_555
C86_2 C85_2 1_555 1_555
C87_3 C86_2 1_555 1_555
C88_3 C87_3 1_555 1_555
C89_3 C87_3 1_555 1_555
C90_2 C89_3 1_555 1_555
C91_2 C90_2 1_555 1_555
C94_3 C89_3 1_555 1_555
C101_2 C91_2 1_555 1_555
C102_2 C101_2 1_555 1_555
C103_2 C102_2 1_555 1_555
C104_2 C103_2 1_555 1_555
C105_2 C104_2 1_555 1_555
C106_2 C101_2 1_555 1_555
C108_2 C104_2 1_555 1_555
Al13 O33_2 1_555 1_555
O30 C81_3 1_555 1_555
O18_3 Al6 1_555 1_555
O35 C81_3 1_555 1_555
O20_3 Al6 1_555 1_555
O37 C58_3 1_555 1_555
O22_3 C55_3 1_555 1_555
O23_3 C82_3 1_555 1_555
O38_2 C82_3 1_555 1_555
O27_2 C108_2 1_555 1_555
O28_2 C108_2 1_555 1_555
C8_3 C22_3 1_555 1_555
C13_3 C23_3 1_555 1_555
C14_3 C16_3 1_555 1_555
C15_3 C21_3 1_555 1_555
C17_3 C20_3 1_555 1_555
C17_3 C26_3 1_555 1_555
C18_3 C19_3 1_555 1_555
C24_3 C25_3 1_555 1_555
C51_2 C52_2 1_555 1_555
Al11 O6_3 1_555 1_555
Al11 O8_3 1_555 1_555
Al11 O9_3 1_555 1_555
C55_3 O18_3 1_555 1_555
C62_3 C76_3 1_555 1_555
C67_3 C77_3 1_555 1_555
C68_3 C70_3 1_555 1_555
C69_3 C75_3 1_555 1_555
C71_3 C74_3 1_555 1_555
C71_3 C80_3 1_555 1_555
C72_3 C73_3 1_555 1_555
C78_3 C79_3 1_555 1_555
C105_2 C106_2 1_555 1_555
Al13 O20_3 1_555 1_555
Al13 O22_3 1_555 1_555
Al13 O23_3 1_555 1_555
C30_3 H32_3 1_555 1_555
C31_2 H33_3 1_555 1_555
C36_2 H34_2 1_555 1_555
C40_3 H36_3 1_555 1_555
C34_3 H37_3 1_555 1_555
C48_2 H39_2 1_555 1_555
C49_2 H40_2 1_555 1_555
C32_2 H44_2 1_555 1_555
C84_3 H48_3 1_555 1_555
C94_3 H49_3 1_555 1_555
C88_3 H51_3 1_555 1_555
C90_2 H55_2 1_555 1_555
C85_2 H58_3 1_555 1_555
C86_2 H60_2 1_555 1_555
C102_2 H61_2 1_555 1_555
C103_2 H64_2 1_555 1_555
C39_3 C38_3 1_555 1_555
C41_3 C39_3 1_555 1_555
C42_3 C41_3 1_555 1_555
C43_3 C42_3 1_555 1_555
C44_3 C43_3 1_555 1_555
C45_3 C44_3 1_555 1_555
C46_3 C41_3 1_555 1_555
C53_3 C44_3 1_555 1_555
O11_3 C53_3 1_555 1_555
O12_3 C53_3 1_555 1_555
C45_3 C46_3 1_555 1_555
C46_3 H31_3 1_555 1_555
C38_3 H35_3 1_555 1_555
C45_3 H38_3 1_555 1_555
C42_3 H43_3 1_555 1_555
C43_3 H45_3 1_555 1_555
O12_3 H46_3 1_555 1_555
C55_4 C75_4 1_555 1_555
C57_4 C58_4 1_555 1_555
C58_4 O32_2 1_555 1_555
C59_4 C65_4 1_555 1_555
C61_4 H16_4 1_555 1_555
C63_4 C57_4 1_555 1_555
H18_4 C63_4 1_555 1_555
C65_4 H20_4 1_555 1_555
C67_4 C59_4 1_555 1_555
C70_4 C59_4 1_555 1_555
H23_4 C70_4 1_555 1_555
C71_4 C72_4 1_555 1_555
C72_4 C65_4 1_555 1_555
C74_4 C69_4 1_555 1_555
C75_4 C61_4 1_555 1_555
C77_4 C63_4 1_555 1_555
H27_4 C77_4 1_555 1_555
C78_4 C57_4 1_555 1_555
H28_4 C78_4 1_555 1_555
C79_4 C67_4 1_555 1_555
H29_4 C79_4 1_555 1_555
C80_4 C61_4 1_555 1_555
H30_4 C80_4 1_555 1_555
Al13_2 O33_3 1_555 1_555
O18_4 Al5 1_555 1_555
O20_4 Al5 1_555 1_555
O37_2 C58_4 1_555 1_555
O22_4 C55_4 1_555 1_555
O23_4 C82_4 1_555 1_555
O38_3 C82_4 1_555 1_555
C55_4 O18_4 1_555 1_555
C67_4 C77_4 1_555 1_555
C69_4 C75_4 1_555 1_555
C71_4 C74_4 1_555 1_555
C71_4 C80_4 1_555 1_555
C78_4 C79_4 1_555 1_555
Al13_2 O20_4 1_555 1_555
Al13_2 O22_4 1_555 1_555
Al13_2 O23_4 1_555 1_555
C2_4 C8_4 1_555 1_555
C6_4 C12_4 1_555 1_555
C8_4 H2_4 1_555 1_555
C10_4 C2_4 1_555 1_555
H4_4 C10_4 1_555 1_555
C12_4 C10_4 1_555 1_555
H6_4 C12_4 1_555 1_555
C14_4 C6_4 1_555 1_555
C19_4 C14_4 1_555 1_555
H9_4 C19_4 1_555 1_555
C22_4 C6_4 1_555 1_555
H11_4 C22_4 1_555 1_555
C27_4 C2_4 1_555 1_555
C29_4 C30_4 1_555 1_555
C30_4 C34_4 1_555 1_555
C34_4 C33_4 1_555 1_555
C35_4 C33_4 1_555 1_555
C39_4 C38_4 1_555 1_555
C40_4 C35_4 1_555 1_555
C41_4 C39_4 1_555 1_555
C42_4 C41_4 1_555 1_555
C43_4 C42_4 1_555 1_555
C44_4 C43_4 1_555 1_555
C45_4 C44_4 1_555 1_555
C46_4 C41_4 1_555 1_555
C53_4 C44_4 1_555 1_555
O29_2 C27_4 1_555 1_555
O35_4 C27_4 1_555 1_555
O11_4 C53_4 1_555 1_555
O12_4 C53_4 1_555 1_555
C8_4 C22_4 1_555 1_555
C39_4 C40_4 1_555 1_555
C45_4 C46_4 1_555 1_555
C46_4 H31_4 1_555 1_555
C30_4 H32_4 1_555 1_555
C38_4 H35_4 1_555 1_555
C40_4 H36_4 1_555 1_555
C34_4 H37_4 1_555 1_555
C45_4 H38_4 1_555 1_555
C42_4 H43_4 1_555 1_555
C43_4 H45_4 1_555 1_555
O12_4 H46_4 1_555 1_555
C56_4 C62_4 1_555 1_555
C60_4 C66_4 1_555 1_555
C62_4 H17_4 1_555 1_555
C64_4 C56_4 1_555 1_555
H19_4 C64_4 1_555 1_555
C66_4 C64_4 1_555 1_555
H21_4 C66_4 1_555 1_555
C68_4 C60_4 1_555 1_555
C73_4 C68_4 1_555 1_555
H24_4 C73_4 1_555 1_555
C76_4 C60_4 1_555 1_555
H26_4 C76_4 1_555 1_555
C81_4 C56_4 1_555 1_555
C83_4 C84_4 1_555 1_555
C84_4 C88_4 1_555 1_555
C88_4 C87_4 1_555 1_555
C89_4 C87_4 1_555 1_555
C93_4 C92_4 1_555 1_555
C94_4 C89_4 1_555 1_555
C95_4 C93_4 1_555 1_555
C96_4 C95_4 1_555 1_555
C97_4 C96_4 1_555 1_555
C98_4 C97_4 1_555 1_555
C99_4 C98_4 1_555 1_555
C100_4 C95_4 1_555 1_555
C107_4 C98_4 1_555 1_555
O30_2 C81_4 1_555 1_555
O35_2 C81_4 1_555 1_555
O25_4 C107_4 1_555 1_555
O26_4 C107_4 1_555 1_555
C62_4 C76_4 1_555 1_555
C93_4 C94_4 1_555 1_555
C99_4 C100_4 1_555 1_555
C84_4 H48_4 1_555 1_555
C94_4 H49_4 1_555 1_555
O26_4 H50_4 1_555 1_555
C88_4 H51_4 1_555 1_555
C97_4 H52_4 1_555 1_555
C92_4 H53_4 1_555 1_555
C100_4 H54_4 1_555 1_555
C99_4 H62_4 1_555 1_555
C96_4 H63_4 1_555 1_555
C1_4 C21_4 1_555 1_555
C3_4 C4_4 1_555 1_555
C4_4 O31_2 1_555 1_555
C5_4 C11_4 1_555 1_555
C7_4 H1_4 1_555 1_555
C9_4 C3_4 1_555 1_555
H3_4 C9_4 1_555 1_555
C11_4 H5_4 1_555 1_555
C13_4 C5_4 1_555 1_555
C16_4 C5_4 1_555 1_555
H8_4 C16_4 1_555 1_555
C17_4 C18_4 1_555 1_555
C18_4 C11_4 1_555 1_555
C20_4 C15_4 1_555 1_555
C21_4 C7_4 1_555 1_555
C23_4 C9_4 1_555 1_555
H12_4 C23_4 1_555 1_555
C24_4 C3_4 1_555 1_555
H13_4 C24_4 1_555 1_555
C25_4 C13_4 1_555 1_555
H14_4 C25_4 1_555 1_555
C26_4 C7_4 1_555 1_555
H15_4 C26_4 1_555 1_555
Al5_4 O4_4 1_555 1_555
Al11_2 O33 1_555 1_555
O4_4 C1_4 1_555 1_555
O6_4 Al5_4 1_555 1_555
O36_2 C4_4 1_555 1_555
O8_4 C1_4 1_555 1_555
O9_4 C28_4 1_555 1_555
O38 C28_4 1_555 1_555
C13_4 C23_4 1_555 1_555
C15_4 C21_4 1_555 1_555
C17_4 C20_4 1_555 1_555
C17_4 C26_4 1_555 1_555
C24_4 C25_4 1_555 1_555
Al11_2 O6_4 1_555 1_555
Al11_2 O8_4 1_555 1_555
Al11_2 O9_4 1_555 1_555
C86_3 C85_3 1_555 1_555
C91_3 C90_3 1_555 1_555
C101_3 C91_3 1_555 1_555
C102_3 C101_3 1_555 1_555
C103_3 C102_3 1_555 1_555
C104_3 C103_3 1_555 1_555
C105_3 C104_3 1_555 1_555
C106_3 C101_3 1_555 1_555
C108_3 C104_3 1_555 1_555
O27_3 C108_3 1_555 1_555
O28_3 C108_3 1_555 1_555
C105_3 C106_3 1_555 1_555
C90_3 H55_3 1_555 1_555
C106_3 H56_3 1_555 1_555
O28_3 H57_3 1_555 1_555
C105_3 H59_3 1_555 1_555
C86_3 H60_3 1_555 1_555
C102_3 H61_3 1_555 1_555
C103_3 H64_3 1_555 1_555
C32_3 C31_3 1_555 1_555
C37_3 C36_3 1_555 1_555
C47_3 C37_3 1_555 1_555
C48_3 C47_3 1_555 1_555
C49_3 C48_3 1_555 1_555
C50_3 C49_3 1_555 1_555
C51_3 C50_3 1_555 1_555
C52_3 C47_3 1_555 1_555
C54_3 C50_3 1_555 1_555
O13_3 C54_3 1_555 1_555
O14_3 C54_3 1_555 1_555
C51_3 C52_3 1_555 1_555
C36_3 H34_3 1_555 1_555
C48_3 H39_3 1_555 1_555
C49_3 H40_3 1_555 1_555
C51_3 H41_3 1_555 1_555
C52_3 H42_3 1_555 1_555
C32_3 H44_3 1_555 1_555
O14_3 H47_3 1_555 1_555
C32_4 C31_4 1_555 1_555
C37_4 C36_4 1_555 1_555
C47_4 C37_4 1_555 1_555
C48_4 C47_4 1_555 1_555
C49_4 C48_4 1_555 1_555
C50_4 C49_4 1_555 1_555
C51_4 C50_4 1_555 1_555
C52_4 C47_4 1_555 1_555
C54_4 C50_4 1_555 1_555
O13_4 C54_4 1_555 1_555
O14_4 C54_4 1_555 1_555
C51_4 C52_4 1_555 1_555
C36_4 H34_4 1_555 1_555
C48_4 H39_4 1_555 1_555
C49_4 H40_4 1_555 1_555
C51_4 H41_4 1_555 1_555
C52_4 H42_4 1_555 1_555
C32_4 H44_4 1_555 1_555
O14_4 H47_4 1_555 1_555
C86_4 C85_4 1_555 1_555
C91_4 C90_4 1_555 1_555
C101_4 C91_4 1_555 1_555
C102_4 C101_4 1_555 1_555
C103_4 C102_4 1_555 1_555
C104_4 C103_4 1_555 1_555
C105_4 C104_4 1_555 1_555
C106_4 C101_4 1_555 1_555
C108_4 C104_4 1_555 1_555
O27_4 C108_4 1_555 1_555
O28_4 C108_4 1_555 1_555
C105_4 C106_4 1_555 1_555
C90_4 H55_4 1_555 1_555
C106_4 H56_4 1_555 1_555
O28_4 H57_4 1_555 1_555
C105_4 H59_4 1_555 1_555
C86_4 H60_4 1_555 1_555
C102_4 H61_4 1_555 1_555
C103_4 H64_4 1_555 1_555

#END
