
###############################################################################
#
# This file contains modified crystal structure data generated from the
# MOF subset of the Cambridge Structural Database (CSD) v543 
# hosted by the Cambridge Crystallographic Data Centre (CCDC).
#
# This work is licensed under the Creative Commons
# Attribution-NonCommercial-ShareAlike 4.0 International License.
# To view a copy of this license, visit
# http://creativecommons.org/licenses/by-nc-sa/4.0/
# or send a letter to
# Creative Commons, PO Box 1866, Mountain View, CA 94042, USA.
#
# CIF created using the CSD Python API on 29 September 2022
# The structure has been converted into the P1 space group
# The structure has a 3D framework
# The original CSD entry RIXPIZ is in the tetragonal crystal system
# The original CSD entry RIXPIZ is in a Sohncke space group
# The framework has been calculated to contain at least 10.0% void space
# The void calculation uses a probe of radius 1.32A, grid spacing 0.4
#
###############################################################################

data_RIXPIZ
_chemical_formula_moiety         '(C224 H128 Al16 O76)n'
_symmetry_cell_setting           triclinic
_symmetry_space_group_name_H-M   'P 1'
_symmetry_Int_Tables_number      1
_space_group_name_Hall           'P 1'
loop_
_symmetry_equiv_pos_site_id
_symmetry_equiv_pos_as_xyz
1 x,y,z
_cell_length_a                   18.878(4)
_cell_length_b                   18.878(4)
_cell_length_c                   37.043(8)
_cell_angle_alpha                90
_cell_angle_beta                 90
_cell_angle_gamma                90
_cell_volume                     13201.3
loop_
_atom_site_label
_atom_site_type_symbol
_atom_site_fract_x
_atom_site_fract_y
_atom_site_fract_z
Al7 Al -0.0000 0.0000 0.11447(6)
O2 O 0.0635(2) 0.8405(2) 0.10250(11)
C2 C 0.0004(4) 0.8468(4) 0.11393(15)
H11 H 0.0364 0.7093 0.1120
Al7_2 Al -0.0000 1.0000 0.11447(6)
Al11 Al 0.13138(10) 0.90442(10) 0.08073(5)
O30 O 0.0330(2) 0.0943(2) 0.11604(12)
O11 O 0.1976(2) 0.8303(2) 0.08450(11)
O13 O 0.2036(3) 0.9654(2) 0.06117(11)
O14 O 0.0675(2) 0.9783(2) 0.07946(10)
O15 O 0.1053(2) 0.8723(2) 0.03497(10)
O16 O 0.3374(3) 0.4304(3) 0.37273(11)
O17 O 0.4343(3) 0.4796(3) 0.34775(11)
O18 O 0.2013(2) 0.7672(2) 0.03321(11)
C29 C 0.0383(4) 0.2164(4) 0.12597(17)
O20 O 0.2377(2) 0.9033(3) 0.01165(11)
C31 C 0.2077(4) 0.7064(4) 0.08877(17)
C32 C 0.3729(4) 0.4553(4) 0.34611(17)
C33 C 0.2093(5) 0.6406(4) 0.07198(18)
H17 H 0.2120 0.6375 0.0464
C34 C 0.3360(4) 0.4545(4) 0.31033(18)
C35 C 0.2027(3) 0.7725(4) 0.06715(16)
C36 C 0.3681(5) 0.4863(4) 0.28067(17)
H18 H 0.4125 0.5094 0.2834
C37 C 0.2044(4) 0.7106(4) 0.12630(18)
H19 H 0.2032 0.7555 0.1379
C38 C 0.2028(5) 0.6488(4) 0.14675(18)
H20 H 0.2014 0.6519 0.1723
C39 C 0.2698(5) 0.4230(4) 0.30652(19)
H21 H 0.2474 0.4025 0.3270
C40 C 0.1597(5) 0.4587(4) 0.1417(2)
H22 H 0.1355 0.4605 0.1192
C41 C 0.2070(5) 0.5792(4) 0.0927(2)
H23 H 0.2080 0.5343 0.0812
C42 C 0.1055(5) 0.2080(4) 0.1418(2)
H24 H 0.1253 0.1620 0.1445
C43 C 0.3355(5) 0.4844(5) 0.2470(2)
H25 H 0.3588 0.5040 0.2266
C44 C 0.1433(5) 0.2680(5) 0.1536(2)
H26 H 0.1890 0.2624 0.1639
C45 C 0.2674(5) 0.4533(4) 0.2431(2)
C46 C 0.1545(5) 0.3985(4) 0.1627(2)
C47 C 0.2032(5) 0.5831(4) 0.13048(19)
C48 C 0.2000(5) 0.5172(4) 0.1528(2)
C49 C 0.0093(5) 0.2845(4) 0.12222(19)
C50 C 0.2360(5) 0.4210(4) 0.2733(2)
H28 H 0.1915 0.3979 0.2710
C51 C 0.1925(6) 0.3961(4) 0.1958(2)
H29 H 0.1914 0.3543 0.2100
C52 C 0.2346(5) 0.5138(5) 0.1859(2)
H30 H 0.2612 0.5536 0.1938
C53 C 0.2446(4) 0.9526(4) 0.03426(17)
H31 H 0.2839 0.9834 0.0311
C54 C 0.2318(5) 0.4548(4) 0.2077(2)
C55 C 0.1139(5) 0.3363(4) 0.1503(2)
C56 C 0.0487(5) 0.3426(4) 0.1337(2)
H32 H 0.0299 0.3887 0.1299
Al5 Al 0.16538(10) 0.83462(10) 0.0000
Al9 Al 0.5000 0.5000 0.38553(6)
Al13 Al 0.36862(10) 0.40442(10) 0.41927(5)
O25 O 0.1626(3) 0.9304(3) 0.12727(11)
O27 O 0.0657(3) 0.9796(3) 0.15225(11)
Al5_2 Al 0.16538(10) 0.83462(10) 1.0000
Al7_3 Al 1.0000 0.0000 0.11447(6)
Al1 Al 0.83462(10) 0.16538(10) 0.0000
Al3 Al 0.86862(10) 0.09558(10) 0.08073(5)
O1 O 0.8024(2) 0.1697(2) 0.08450(11)
O3 O 0.7964(3) 0.0346(2) 0.06117(11)
O4 O 0.9325(2) 0.0217(2) 0.07946(10)
O5 O 0.8947(2) 0.1277(2) 0.03497(10)
O6 O 0.6626(3) 0.5696(3) 0.37273(11)
O7 O 0.5657(3) 0.5204(3) 0.34775(11)
O8 O 0.7987(2) 0.2328(2) 0.03321(11)
O9 O 0.9670(2) 0.9057(2) 0.11604(12)
C1 C 0.9617(4) 0.7836(4) 0.12597(17)
O10 O 0.7623(2) 0.0967(3) 0.01165(11)
C3 C 0.7923(4) 0.2936(4) 0.08877(17)
C4 C 0.6271(4) 0.5447(4) 0.34611(17)
C5 C 0.7907(5) 0.3594(4) 0.07198(18)
H1 H 0.7880 0.3625 0.0464
C6 C 0.6640(4) 0.5455(4) 0.31033(18)
C7 C 0.7973(3) 0.2275(4) 0.06715(16)
C8 C 0.6319(5) 0.5137(4) 0.28067(17)
H2 H 0.5875 0.4906 0.2834
C9 C 0.7956(4) 0.2894(4) 0.12630(18)
H3 H 0.7968 0.2445 0.1379
C10 C 0.7972(5) 0.3512(4) 0.14675(18)
H4 H 0.7986 0.3481 0.1723
C11 C 0.7302(5) 0.5770(4) 0.30652(19)
H5 H 0.7526 0.5975 0.3270
C12 C 0.8403(5) 0.5413(4) 0.1417(2)
H6 H 0.8645 0.5395 0.1192
C13 C 0.7930(5) 0.4208(4) 0.0927(2)
H7 H 0.7920 0.4657 0.0812
C14 C 0.8945(5) 0.7920(4) 0.1418(2)
H8 H 0.8747 0.8380 0.1445
C15 C 0.6645(5) 0.5156(5) 0.2470(2)
H9 H 0.6412 0.4960 0.2266
C16 C 0.8567(5) 0.7320(5) 0.1536(2)
H10 H 0.8110 0.7376 0.1639
C17 C 0.7326(5) 0.5467(4) 0.2431(2)
C18 C 0.8455(5) 0.6015(4) 0.1627(2)
C19 C 0.7968(5) 0.4169(4) 0.13048(19)
C20 C 0.8000(5) 0.4828(4) 0.1528(2)
C21 C 0.9907(5) 0.7155(4) 0.12222(19)
C22 C 0.7640(5) 0.5790(4) 0.2733(2)
H12 H 0.8085 0.6021 0.2710
C23 C 0.8075(6) 0.6039(4) 0.1958(2)
H13 H 0.8086 0.6457 0.2100
C24 C 0.7654(5) 0.4862(5) 0.1859(2)
H14 H 0.7388 0.4464 0.1938
C25 C 0.7554(4) 0.0474(4) 0.03426(17)
H15 H 0.7161 0.0166 0.0311
C26 C 0.7682(5) 0.5452(4) 0.2077(2)
C27 C 0.8861(5) 0.6637(4) 0.1503(2)
C28 C 0.9513(5) 0.6574(4) 0.1337(2)
H16 H 0.9701 0.6113 0.1299
Al7_4 Al 1.0000 1.0000 0.11447(6)
Al12 Al 0.63138(10) 0.59558(10) 0.41927(5)
O22 O 0.9365(2) 0.1595(2) 0.10250(11)
O24 O 0.8374(3) 0.0696(3) 0.12727(11)
O26 O 0.9343(3) 0.0204(3) 0.15225(11)
Al1_2 Al 0.83462(10) 0.16538(10) 1.0000
O23 O 0.8723(2) 0.1053(2) 0.96503(10)
O28 O 0.7672(2) 0.2013(2) 0.96679(11)
O31 O 0.9033(3) 0.2377(2) 0.98835(11)
C30 C 0.9996(4) 0.1532(4) 0.11393(15)
H27 H 0.9636 0.2907 0.1120
O23_2 O 0.1277(2) 0.8947(2) 0.96503(10)
O28_2 O 0.2328(2) 0.7987(2) 0.96679(11)
O31_2 O 0.0967(3) 0.7623(2) 0.98835(11)
Al9_2 Al -0.0000 0.0000 0.88553(6)
O12 O 0.3405(2) 0.4365(2) 0.60250(11)
O16_2 O 0.0696(3) 0.8374(3) 0.87273(11)
O17_2 O 0.0204(3) 0.9343(3) 0.84775(11)
O19 O 0.4057(2) 0.5330(2) 0.61604(12)
C29_2 C 0.2836(4) 0.5383(4) 0.62597(17)
C30_2 C 0.3468(4) 0.4996(4) 0.61393(15)
C32_2 C 0.0447(4) 0.8729(4) 0.84611(17)
C34_2 C 0.0455(4) 0.8360(4) 0.81033(18)
C36_2 C 0.0137(4) 0.8681(5) 0.78067(17)
C39_2 C 0.0770(4) 0.7698(5) 0.80652(19)
H21_2 H 0.0975 0.7474 0.8270
C40_2 C 0.0413(4) 0.6597(5) 0.6417(2)
H22_2 H 0.0395 0.6355 0.6192
C42_2 C 0.2920(4) 0.6055(5) 0.6418(2)
H24_2 H 0.3380 0.6253 0.6445
C43_2 C 0.0156(5) 0.8355(5) 0.7470(2)
C44_2 C 0.2320(5) 0.6433(5) 0.6536(2)
H26_2 H 0.2376 0.6890 0.6639
C45_2 C 0.0467(4) 0.7674(5) 0.7431(2)
C46_2 C 0.1015(4) 0.6545(5) 0.6627(2)
C49_2 C 0.2155(4) 0.5093(5) 0.62222(19)
H27_2 H 0.2093 0.4636 0.6120
C50_2 C 0.0790(4) 0.7360(5) 0.7733(2)
H28_2 H 0.1021 0.6915 0.7710
C51_2 C 0.1039(4) 0.6925(6) 0.6958(2)
H29_2 H 0.1457 0.6914 0.7100
C54_2 C 0.0452(4) 0.7318(5) 0.7077(2)
C55_2 C 0.1637(4) 0.6139(5) 0.6503(2)
C56_2 C 0.1574(4) 0.5487(5) 0.6337(2)
H32_2 H 0.1113 0.5299 0.6299
Al6 Al 0.5000 0.5000 0.61447(6)
Al9_3 Al -0.0000 1.0000 0.88553(6)
Al10 Al 0.40442(10) 0.36862(10) 0.58073(5)
Al13_2 Al 0.09558(10) 0.86862(10) 0.91927(5)
Al9_4 Al 1.0000 0.0000 0.88553(6)
Al1_3 Al 0.33462(10) 0.33462(10) 0.5000
O1_2 O 0.3303(2) 0.3024(2) 0.58450(11)
O3_2 O 0.4654(2) 0.2964(3) 0.56117(11)
O4_2 O 0.4783(2) 0.4325(2) 0.57946(10)
O5_2 O 0.3723(2) 0.3947(2) 0.53497(10)
O8_2 O 0.2672(2) 0.2987(2) 0.53321(11)
O10_2 O 0.4033(3) 0.2623(2) 0.51165(11)
C3_2 C 0.2064(4) 0.2923(4) 0.58877(17)
C5_2 C 0.1406(4) 0.2907(5) 0.57198(18)
H1_2 H 0.1375 0.2880 0.5464
C7_2 C 0.2725(4) 0.2973(3) 0.56715(16)
H2_2 H 0.0094 0.0875 0.7834
C9_2 C 0.2106(4) 0.2956(4) 0.62630(18)
H3_2 H 0.2555 0.2968 0.6379
C10_2 C 0.1488(4) 0.2972(5) 0.64675(18)
H4_2 H 0.1519 0.2986 0.6723
C13_2 C 0.0792(4) 0.2930(5) 0.5927(2)
H7_2 H 0.0343 0.2920 0.5812
H9_2 H 0.0040 0.1412 0.7266
C19_2 C 0.0831(4) 0.2968(5) 0.63048(19)
C20_2 C 0.0172(4) 0.3000(5) 0.6528(2)
C24_2 C 0.0138(5) 0.2654(5) 0.6859(2)
H14_2 H 0.0536 0.2388 0.6938
C25_2 C 0.4526(4) 0.2554(4) 0.53426(17)
H15_2 H 0.4834 0.2161 0.5311
Al4 Al 0.59558(10) 0.63138(10) 0.58073(5)
O11_2 O 0.6697(2) 0.6976(2) 0.58450(11)
O13_2 O 0.5346(2) 0.7036(3) 0.56117(11)
O14_2 O 0.5217(2) 0.5675(2) 0.57946(10)
O15_2 O 0.6277(2) 0.6053(2) 0.53497(10)
O18_2 O 0.7328(2) 0.7013(2) 0.53321(11)
O20_2 O 0.5967(3) 0.7377(2) 0.51165(11)
C31_2 C 0.7936(4) 0.7077(4) 0.58877(17)
C33_2 C 0.8594(4) 0.7093(5) 0.57198(18)
H17_2 H 0.8625 0.7120 0.5464
C35_2 C 0.7275(4) 0.7027(3) 0.56715(16)
H18_2 H 0.9906 0.9125 0.7834
C37_2 C 0.7894(4) 0.7044(4) 0.62630(18)
H19_2 H 0.7445 0.7032 0.6379
C38_2 C 0.8512(4) 0.7028(5) 0.64675(18)
H20_2 H 0.8481 0.7014 0.6723
C41_2 C 0.9208(4) 0.7070(5) 0.5927(2)
H23_2 H 0.9657 0.7080 0.5812
H25_2 H 0.9960 0.8588 0.7266
C47_2 C 0.9169(4) 0.7032(5) 0.63048(19)
C48_2 C 0.9828(4) 0.7000(5) 0.6528(2)
C52_2 C 0.9862(5) 0.7346(5) 0.6859(2)
H30_2 H 0.9464 0.7612 0.6938
C53_2 C 0.5474(4) 0.7446(4) 0.53426(17)
H31_2 H 0.5166 0.7839 0.5311
Al5_3 Al 0.66538(10) 0.66538(10) 0.5000
Al9_5 Al 1.0000 1.0000 0.88553(6)
O21 O 0.6595(2) 0.5635(2) 0.60250(11)
O23_3 O 0.3947(2) 0.3723(2) 0.46503(10)
O24_2 O 0.4304(3) 0.3374(3) 0.62727(11)
O25_2 O 0.5696(3) 0.6626(3) 0.62727(11)
O26_2 O 0.4796(3) 0.4343(3) 0.65225(11)
O27_2 O 0.5204(3) 0.5657(3) 0.65225(11)
O28_3 O 0.2987(2) 0.2672(2) 0.46679(11)
O29 O 0.5943(2) 0.4670(2) 0.61604(12)
O31_3 O 0.2623(2) 0.4033(3) 0.48835(11)
O6_2 O 0.9304(3) 0.1626(3) 0.87273(11)
O7_2 O 0.9796(3) 0.0657(3) 0.84775(11)
C1_2 C 0.7164(4) 0.4617(4) 0.62597(17)
C2_2 C 0.6532(4) 0.5004(4) 0.61393(15)
C4_2 C 0.9553(4) 0.1271(4) 0.84611(17)
C6_2 C 0.9545(4) 0.1640(4) 0.81033(18)
C8_2 C 0.9863(4) 0.1319(5) 0.78067(17)
C11_2 C 0.9230(4) 0.2302(5) 0.80652(19)
H5_2 H 0.9025 0.2526 0.8270
C12_2 C 0.9587(4) 0.3403(5) 0.6417(2)
H6_2 H 0.9605 0.3645 0.6192
C14_2 C 0.7080(4) 0.3945(5) 0.6418(2)
H8_2 H 0.6620 0.3747 0.6445
C15_2 C 0.9844(5) 0.1645(5) 0.7470(2)
C16_2 C 0.7680(5) 0.3567(5) 0.6536(2)
H10_2 H 0.7624 0.3110 0.6639
C17_2 C 0.9533(4) 0.2326(5) 0.7431(2)
C18_2 C 0.8985(4) 0.3455(5) 0.6627(2)
C21_2 C 0.7845(4) 0.4907(5) 0.62222(19)
H11_2 H 0.7907 0.5364 0.6120
C22_2 C 0.9210(4) 0.2640(5) 0.7733(2)
H12_2 H 0.8979 0.3085 0.7710
C23_2 C 0.8961(4) 0.3075(6) 0.6958(2)
H13_2 H 0.8543 0.3086 0.7100
C26_2 C 0.9548(4) 0.2682(5) 0.7077(2)
C27_2 C 0.8363(4) 0.3861(5) 0.6503(2)
C28_2 C 0.8426(4) 0.4513(5) 0.6337(2)
H16_2 H 0.8887 0.4701 0.6299
Al12_2 Al 0.90442(10) 0.13138(10) 0.91927(5)
O23_4 O 0.6053(2) 0.6277(2) 0.46503(10)
O28_4 O 0.7013(2) 0.7328(2) 0.46679(11)
O31_4 O 0.7377(2) 0.5967(3) 0.48835(11)
O2_2 O 0.4365(2) 0.3405(2) 0.39750(11)
O9_2 O 0.5330(2) 0.4057(2) 0.38396(12)
C1_3 C 0.5383(4) 0.2836(4) 0.37403(17)
C2_3 C 0.4996(4) 0.3468(4) 0.38607(15)
C4_3 C 0.8729(4) 0.0447(4) 0.15389(17)
C6_3 C 0.8360(4) 0.0455(4) 0.18967(18)
C8_3 C 0.8681(5) 0.0137(4) 0.21933(17)
C11_3 C 0.7698(5) 0.0770(4) 0.19348(19)
H5_3 H 0.7474 0.0975 0.1730
C12_3 C 0.6597(5) 0.0413(4) 0.3583(2)
H6_3 H 0.6355 0.0395 0.3808
C14_3 C 0.6055(5) 0.2920(4) 0.3582(2)
H8_3 H 0.6253 0.3380 0.3555
C15_3 C 0.8355(5) 0.0156(5) 0.2530(2)
C16_3 C 0.6433(5) 0.2320(5) 0.3464(2)
H10_3 H 0.6890 0.2376 0.3361
C17_3 C 0.7674(5) 0.0467(4) 0.2569(2)
C18_3 C 0.6545(5) 0.1015(4) 0.3373(2)
C21_3 C 0.5093(5) 0.2155(4) 0.37778(19)
H11_3 H 0.4636 0.2093 0.3880
C22_3 C 0.7360(5) 0.0790(4) 0.2267(2)
H12_3 H 0.6915 0.1021 0.2290
C23_3 C 0.6925(6) 0.1039(4) 0.3042(2)
H13_3 H 0.6914 0.1457 0.2900
C26_3 C 0.7318(5) 0.0452(4) 0.2923(2)
C27_3 C 0.6139(5) 0.1637(4) 0.3497(2)
C28_3 C 0.5487(5) 0.1574(4) 0.3663(2)
H16_3 H 0.5299 0.1113 0.3701
O1_3 O 0.6976(2) 0.6697(2) 0.41550(11)
O3_3 O 0.7036(3) 0.5346(2) 0.43883(11)
O4_3 O 0.5675(2) 0.5217(2) 0.42054(10)
C3_3 C 0.7077(4) 0.7936(4) 0.41123(17)
C5_3 C 0.7093(5) 0.8594(4) 0.42802(18)
H1_3 H 0.7120 0.8625 0.4536
C7_3 C 0.7027(3) 0.7275(4) 0.43285(16)
H2_3 H 0.9125 0.9906 0.2166
C9_3 C 0.7044(4) 0.7894(4) 0.37370(18)
H3_3 H 0.7032 0.7445 0.3621
C10_3 C 0.7028(5) 0.8512(4) 0.35325(18)
H4_3 H 0.7014 0.8481 0.3277
C13_3 C 0.7070(5) 0.9208(4) 0.4073(2)
H7_3 H 0.7080 0.9657 0.4188
H9_3 H 0.8588 0.9960 0.2734
C19_3 C 0.7032(5) 0.9169(4) 0.36952(19)
C20_3 C 0.7000(5) 0.9828(4) 0.3472(2)
C24_3 C 0.7346(5) 0.9862(5) 0.3141(2)
H14_3 H 0.7612 0.9464 0.3062
C25_3 C 0.7446(4) 0.5474(4) 0.46574(17)
H15_3 H 0.7839 0.5166 0.4689
O11_3 O 0.3024(2) 0.3303(2) 0.41550(11)
O13_3 O 0.2964(3) 0.4654(2) 0.43883(11)
O14_3 O 0.4325(2) 0.4783(2) 0.42054(10)
C31_3 C 0.2923(4) 0.2064(4) 0.41123(17)
C33_3 C 0.2907(5) 0.1406(4) 0.42802(18)
H17_3 H 0.2880 0.1375 0.4536
C35_3 C 0.2973(3) 0.2725(4) 0.43285(16)
H18_3 H 0.0875 0.0094 0.2166
C37_3 C 0.2956(4) 0.2106(4) 0.37370(18)
H19_3 H 0.2968 0.2555 0.3621
C38_3 C 0.2972(5) 0.1488(4) 0.35325(18)
H20_3 H 0.2986 0.1519 0.3277
C41_3 C 0.2930(5) 0.0792(4) 0.4073(2)
H23_3 H 0.2920 0.0343 0.4188
H25_3 H 0.1412 0.0040 0.2734
C47_3 C 0.2968(5) 0.0831(4) 0.36952(19)
C48_3 C 0.3000(5) 0.0172(4) 0.3472(2)
C52_3 C 0.2654(5) 0.0138(5) 0.3141(2)
H30_3 H 0.2388 0.0536 0.3062
C53_3 C 0.2554(4) 0.4526(4) 0.46574(17)
H31_3 H 0.2161 0.4834 0.4689
O22_2 O 0.5635(2) 0.6595(2) 0.39750(11)
O30_2 O 0.4670(2) 0.5943(2) 0.38396(12)
C29_3 C 0.4617(4) 0.7164(4) 0.37403(17)
C30_3 C 0.5004(4) 0.6532(4) 0.38607(15)
C32_3 C 0.1271(4) 0.9553(4) 0.15389(17)
C34_3 C 0.1640(4) 0.9545(4) 0.18967(18)
C36_3 C 0.1319(5) 0.9863(4) 0.21933(17)
C39_3 C 0.2302(5) 0.9230(4) 0.19348(19)
H21_3 H 0.2526 0.9025 0.1730
C40_3 C 0.3403(5) 0.9587(4) 0.3583(2)
H22_3 H 0.3645 0.9605 0.3808
C42_3 C 0.3945(5) 0.7080(4) 0.3582(2)
H24_3 H 0.3747 0.6620 0.3555
C43_3 C 0.1645(5) 0.9844(5) 0.2530(2)
C44_3 C 0.3567(5) 0.7680(5) 0.3464(2)
H26_3 H 0.3110 0.7624 0.3361
C45_3 C 0.2326(5) 0.9533(4) 0.2569(2)
C46_3 C 0.3455(5) 0.8985(4) 0.3373(2)
C49_3 C 0.4907(5) 0.7845(4) 0.37778(19)
H27_3 H 0.5364 0.7907 0.3880
C50_3 C 0.2640(5) 0.9210(4) 0.2267(2)
H28_3 H 0.3085 0.8979 0.2290
C51_3 C 0.3075(6) 0.8961(4) 0.3042(2)
H29_3 H 0.3086 0.8543 0.2900
C54_3 C 0.2682(5) 0.9548(4) 0.2923(2)
C55_3 C 0.3861(5) 0.8363(4) 0.3497(2)
C56_3 C 0.4513(5) 0.8426(4) 0.3663(2)
H32_3 H 0.4701 0.8887 0.3701
O2_3 O 0.8405(2) 0.0635(2) 0.89750(11)
C2_4 C 0.8468(4) 0.0004(4) 0.88607(15)
H11_4 H 0.7093 0.0364 0.8880
O30_3 O 0.0943(2) 0.0330(2) 0.88396(12)
O1_4 O 0.1697(2) 0.8024(2) 0.91550(11)
O3_4 O 0.0346(2) 0.7964(3) 0.93883(11)
O4_4 O 0.0217(2) 0.9325(2) 0.92054(10)
O9_3 O 0.9057(2) 0.9670(2) 0.88396(12)
C1_4 C 0.7836(4) 0.9617(4) 0.87403(17)
C3_4 C 0.2936(4) 0.7923(4) 0.91123(17)
C4_4 C 0.5447(4) 0.6271(4) 0.65389(17)
C5_4 C 0.3594(4) 0.7907(5) 0.92802(18)
H1_4 H 0.3625 0.7880 0.9536
C6_4 C 0.5455(4) 0.6640(4) 0.68967(18)
C7_4 C 0.2275(4) 0.7973(3) 0.93285(16)
C8_4 C 0.5137(4) 0.6319(5) 0.71933(17)
H2_4 H 0.4906 0.5875 0.7166
C9_4 C 0.2894(4) 0.7956(4) 0.87370(18)
H3_4 H 0.2445 0.7968 0.8621
C10_4 C 0.3512(4) 0.7972(5) 0.85325(18)
H4_4 H 0.3481 0.7986 0.8277
C11_4 C 0.5770(4) 0.7302(5) 0.69348(19)
H5_4 H 0.5975 0.7526 0.6730
C12_4 C 0.5413(4) 0.8403(5) 0.8583(2)
H6_4 H 0.5395 0.8645 0.8808
C13_4 C 0.4208(4) 0.7930(5) 0.9073(2)
H7_4 H 0.4657 0.7920 0.9188
C14_4 C 0.7920(4) 0.8945(5) 0.8582(2)
H8_4 H 0.8380 0.8747 0.8555
C15_4 C 0.5156(5) 0.6645(5) 0.7530(2)
H9_4 H 0.4960 0.6412 0.7734
C16_4 C 0.7320(5) 0.8567(5) 0.8464(2)
H10_4 H 0.7376 0.8110 0.8361
C17_4 C 0.5467(4) 0.7326(5) 0.7569(2)
C18_4 C 0.6015(4) 0.8455(5) 0.8373(2)
C19_4 C 0.4169(4) 0.7968(5) 0.86952(19)
C20_4 C 0.4828(4) 0.8000(5) 0.8472(2)
C21_4 C 0.7155(4) 0.9907(5) 0.87778(19)
C22_4 C 0.5790(4) 0.7640(5) 0.7267(2)
H12_4 H 0.6021 0.8085 0.7290
C23_4 C 0.6039(4) 0.8075(6) 0.8042(2)
H13_4 H 0.6457 0.8086 0.7900
C24_4 C 0.4862(5) 0.7654(5) 0.8141(2)
H14_4 H 0.4464 0.7388 0.8062
C25_4 C 0.0474(4) 0.7554(4) 0.96574(17)
H15_4 H 0.0166 0.7161 0.9689
C26_4 C 0.5452(4) 0.7682(5) 0.7923(2)
C27_4 C 0.6637(4) 0.8861(5) 0.8497(2)
C28_4 C 0.6574(4) 0.9513(5) 0.8663(2)
H16_4 H 0.6113 0.9701 0.8701
O22_3 O 0.1595(2) 0.9365(2) 0.89750(11)
O11_4 O 0.8303(2) 0.1976(2) 0.91550(11)
O13_4 O 0.9654(2) 0.2036(3) 0.93883(11)
O14_4 O 0.9783(2) 0.0675(2) 0.92054(10)
C29_4 C 0.2164(4) 0.0383(4) 0.87403(17)
C31_4 C 0.7064(4) 0.2077(4) 0.91123(17)
C32_4 C 0.4553(4) 0.3729(4) 0.65389(17)
C33_4 C 0.6406(4) 0.2093(5) 0.92802(18)
H17_4 H 0.6375 0.2120 0.9536
C34_4 C 0.4545(4) 0.3360(4) 0.68967(18)
C35_4 C 0.7725(4) 0.2027(3) 0.93285(16)
C36_4 C 0.4863(4) 0.3681(5) 0.71933(17)
H18_4 H 0.5094 0.4125 0.7166
C37_4 C 0.7106(4) 0.2044(4) 0.87370(18)
H19_4 H 0.7555 0.2032 0.8621
C38_4 C 0.6488(4) 0.2028(5) 0.85325(18)
H20_4 H 0.6519 0.2014 0.8277
C39_4 C 0.4230(4) 0.2698(5) 0.69348(19)
H21_4 H 0.4025 0.2474 0.6730
C40_4 C 0.4587(4) 0.1597(5) 0.8583(2)
H22_4 H 0.4605 0.1355 0.8808
C41_4 C 0.5792(4) 0.2070(5) 0.9073(2)
H23_4 H 0.5343 0.2080 0.9188
C42_4 C 0.2080(4) 0.1055(5) 0.8582(2)
H24_4 H 0.1620 0.1253 0.8555
C43_4 C 0.4844(5) 0.3355(5) 0.7530(2)
H25_4 H 0.5040 0.3588 0.7734
C44_4 C 0.2680(5) 0.1433(5) 0.8464(2)
H26_4 H 0.2624 0.1890 0.8361
C45_4 C 0.4533(4) 0.2674(5) 0.7569(2)
C46_4 C 0.3985(4) 0.1545(5) 0.8373(2)
C47_4 C 0.5831(4) 0.2032(5) 0.86952(19)
C48_4 C 0.5172(4) 0.2000(5) 0.8472(2)
C49_4 C 0.2845(4) 0.0093(5) 0.87778(19)
C50_4 C 0.4210(4) 0.2360(5) 0.7267(2)
H28_4 H 0.3979 0.1915 0.7290
C51_4 C 0.3961(4) 0.1925(6) 0.8042(2)
H29_4 H 0.3543 0.1914 0.7900
C52_4 C 0.5138(5) 0.2346(5) 0.8141(2)
H30_4 H 0.5536 0.2612 0.8062
C53_4 C 0.9526(4) 0.2446(4) 0.96574(17)
H31_4 H 0.9834 0.2839 0.9689
C54_4 C 0.4548(4) 0.2318(5) 0.7923(2)
C55_4 C 0.3363(4) 0.1139(5) 0.8497(2)
C56_4 C 0.3426(4) 0.0487(5) 0.8663(2)
H32_4 H 0.3887 0.0299 0.8701
C30_4 C 0.1532(4) 0.9996(4) 0.88607(15)
H27_4 H 0.2907 0.9636 0.8880
loop_
_geom_bond_atom_site_label_1
_geom_bond_atom_site_label_2
_geom_bond_site_symmetry_1
_geom_bond_site_symmetry_2
O2 C2 1_555 1_555
Al11 O2 1_555 1_555
O30 Al7 1_555 1_555
Al11 O11 1_555 1_555
O11 C35 1_555 1_555
O13 Al11 1_555 1_555
O14 Al7_2 1_555 1_555
O15 Al11 1_555 1_555
O16 C32 1_555 1_555
O17 C32 1_555 1_555
O18 C35 1_555 1_555
O20 C53 1_555 1_555
C31 C33 1_555 1_555
C32 C34 1_555 1_555
C33 H17 1_555 1_555
C34 C36 1_555 1_555
C35 C31 1_555 1_555
C36 H18 1_555 1_555
C37 C31 1_555 1_555
H19 C37 1_555 1_555
C38 C37 1_555 1_555
H20 C38 1_555 1_555
C39 C34 1_555 1_555
H21 C39 1_555 1_555
C40 H22 1_555 1_555
C41 C33 1_555 1_555
H23 C41 1_555 1_555
C42 C29 1_555 1_555
H24 C42 1_555 1_555
C43 C36 1_555 1_555
H25 C43 1_555 1_555
C44 C42 1_555 1_555
H26 C44 1_555 1_555
C45 C43 1_555 1_555
C46 C40 1_555 1_555
C47 C38 1_555 1_555
C48 C40 1_555 1_555
C49 C29 1_555 1_555
C50 C39 1_555 1_555
H28 C50 1_555 1_555
C51 C46 1_555 1_555
H29 C51 1_555 1_555
C52 C48 1_555 1_555
H30 C52 1_555 1_555
C53 O13 1_555 1_555
H31 C53 1_555 1_555
C54 C45 1_555 1_555
C55 C44 1_555 1_555
C56 C49 1_555 1_555
H32 C56 1_555 1_555
Al5 O15 1_555 1_555
Al9 O17 1_555 1_555
Al13 O16 1_555 1_555
O25 Al11 1_555 1_555
O27 Al7_2 1_555 1_555
Al11 O14 1_555 1_555
O18 Al5 1_555 1_555
O20 Al5 1_555 1_555
C41 C47 1_555 1_555
C45 C50 1_555 1_555
C46 C55 1_555 1_555
C47 C48 1_555 1_555
C51 C54 1_555 1_555
C52 C54 1_555 1_555
C55 C56 1_555 1_555
Al1 O5 1_555 1_555
Al7_3 O4 1_555 1_555
Al3 O1 1_555 1_555
O1 C7 1_555 1_555
O3 Al3 1_555 1_555
O4 Al3 1_555 1_555
O5 Al3 1_555 1_555
O6 C4 1_555 1_555
O7 C4 1_555 1_555
O8 Al1 1_555 1_555
O10 Al1 1_555 1_555
C3 C5 1_555 1_555
C4 C6 1_555 1_555
C5 H1 1_555 1_555
C6 C8 1_555 1_555
C7 O8 1_555 1_555
C8 H2 1_555 1_555
C9 C3 1_555 1_555
H3 C9 1_555 1_555
C10 C9 1_555 1_555
H4 C10 1_555 1_555
C11 C6 1_555 1_555
H5 C11 1_555 1_555
C12 H6 1_555 1_555
C13 C5 1_555 1_555
H7 C13 1_555 1_555
C14 C1 1_555 1_555
H8 C14 1_555 1_555
C15 C8 1_555 1_555
H9 C15 1_555 1_555
C16 C14 1_555 1_555
H10 C16 1_555 1_555
C17 C15 1_555 1_555
C18 C12 1_555 1_555
C19 C10 1_555 1_555
C20 C12 1_555 1_555
C21 C1 1_555 1_555
C22 C11 1_555 1_555
H12 C22 1_555 1_555
C23 C18 1_555 1_555
H13 C23 1_555 1_555
C24 C20 1_555 1_555
H14 C24 1_555 1_555
C25 O3 1_555 1_555
H15 C25 1_555 1_555
C26 C17 1_555 1_555
C27 C16 1_555 1_555
C28 C21 1_555 1_555
H16 C28 1_555 1_555
Al7_4 O9 1_555 1_555
Al9 O7 1_555 1_555
Al12 O6 1_555 1_555
O22 Al3 1_555 1_555
O24 Al3 1_555 1_555
O26 Al7_3 1_555 1_555
O10 C25 1_555 1_555
C3 C7 1_555 1_555
C13 C19 1_555 1_555
C17 C22 1_555 1_555
C18 C27 1_555 1_555
C19 C20 1_555 1_555
C23 C26 1_555 1_555
C24 C26 1_555 1_555
C27 C28 1_555 1_555
O23 Al1_2 1_555 1_555
O28 Al1_2 1_555 1_555
O31 Al1_2 1_555 1_555
O22 C30 1_555 1_555
O23_2 Al5_2 1_555 1_555
O28_2 Al5_2 1_555 1_555
O31_2 Al5_2 1_555 1_555
O12 C30_2 1_555 1_555
O16_2 C32_2 1_555 1_555
O17_2 C32_2 1_555 1_555
O19 C30_2 1_555 1_555
C29_2 C30_2 1_555 1_555
C32_2 C34_2 1_555 1_555
C34_2 C36_2 1_555 1_555
C39_2 C34_2 1_555 1_555
H21_2 C39_2 1_555 1_555
C40_2 H22_2 1_555 1_555
C42_2 C29_2 1_555 1_555
H24_2 C42_2 1_555 1_555
C43_2 C36_2 1_555 1_555
C44_2 C42_2 1_555 1_555
H26_2 C44_2 1_555 1_555
C45_2 C43_2 1_555 1_555
C46_2 C40_2 1_555 1_555
C49_2 C29_2 1_555 1_555
H27_2 C49_2 1_555 1_555
C50_2 C39_2 1_555 1_555
H28_2 C50_2 1_555 1_555
C51_2 C46_2 1_555 1_555
H29_2 C51_2 1_555 1_555
C54_2 C45_2 1_555 1_555
C55_2 C44_2 1_555 1_555
C56_2 C49_2 1_555 1_555
H32_2 C56_2 1_555 1_555
Al6 O19 1_555 1_555
Al9_3 O17_2 1_555 1_555
Al10 O12 1_555 1_555
Al13_2 O16_2 1_555 1_555
C45_2 C50_2 1_555 1_555
C46_2 C55_2 1_555 1_555
C51_2 C54_2 1_555 1_555
C55_2 C56_2 1_555 1_555
Al1_3 O5_2 1_555 1_555
Al6 O4_2 1_555 1_555
Al10 O1_2 1_555 1_555
O1_2 C7_2 1_555 1_555
O3_2 Al10 1_555 1_555
O4_2 Al10 1_555 1_555
O5_2 Al10 1_555 1_555
O8_2 Al1_3 1_555 1_555
O10_2 Al1_3 1_555 1_555
C3_2 C5_2 1_555 1_555
C5_2 H1_2 1_555 1_555
C7_2 O8_2 1_555 1_555
C9_2 C3_2 1_555 1_555
H3_2 C9_2 1_555 1_555
C10_2 C9_2 1_555 1_555
H4_2 C10_2 1_555 1_555
C13_2 C5_2 1_555 1_555
H7_2 C13_2 1_555 1_555
C19_2 C10_2 1_555 1_555
C24_2 C20_2 1_555 1_555
H14_2 C24_2 1_555 1_555
C25_2 O3_2 1_555 1_555
H15_2 C25_2 1_555 1_555
Al4 O11_2 1_555 1_555
O11_2 C35_2 1_555 1_555
O13_2 Al4 1_555 1_555
O14_2 Al6 1_555 1_555
O15_2 Al4 1_555 1_555
O18_2 C35_2 1_555 1_555
O20_2 C53_2 1_555 1_555
C31_2 C33_2 1_555 1_555
C33_2 H17_2 1_555 1_555
C35_2 C31_2 1_555 1_555
C37_2 C31_2 1_555 1_555
H19_2 C37_2 1_555 1_555
C38_2 C37_2 1_555 1_555
H20_2 C38_2 1_555 1_555
C41_2 C33_2 1_555 1_555
H23_2 C41_2 1_555 1_555
C47_2 C38_2 1_555 1_555
C52_2 C48_2 1_555 1_555
H30_2 C52_2 1_555 1_555
C53_2 O13_2 1_555 1_555
H31_2 C53_2 1_555 1_555
Al5_3 O15_2 1_555 1_555
O21 Al4 1_555 1_555
O23_3 Al1_3 1_555 1_555
O24_2 Al10 1_555 1_555
O25_2 Al4 1_555 1_555
O26_2 Al6 1_555 1_555
O27_2 Al6 1_555 1_555
O28_3 Al1_3 1_555 1_555
O29 Al6 1_555 1_555
O31_3 Al1_3 1_555 1_555
O10_2 C25_2 1_555 1_555
C3_2 C7_2 1_555 1_555
C13_2 C19_2 1_555 1_555
C19_2 C20_2 1_555 1_555
Al4 O14_2 1_555 1_555
O18_2 Al5_3 1_555 1_555
O20_2 Al5_3 1_555 1_555
C41_2 C47_2 1_555 1_555
C47_2 C48_2 1_555 1_555
O21 C2_2 1_555 1_555
O6_2 C4_2 1_555 1_555
O7_2 C4_2 1_555 1_555
O29 C2_2 1_555 1_555
C1_2 C2_2 1_555 1_555
C4_2 C6_2 1_555 1_555
C6_2 C8_2 1_555 1_555
C11_2 C6_2 1_555 1_555
H5_2 C11_2 1_555 1_555
C12_2 H6_2 1_555 1_555
C14_2 C1_2 1_555 1_555
H8_2 C14_2 1_555 1_555
C15_2 C8_2 1_555 1_555
C16_2 C14_2 1_555 1_555
H10_2 C16_2 1_555 1_555
C17_2 C15_2 1_555 1_555
C18_2 C12_2 1_555 1_555
C21_2 C1_2 1_555 1_555
H11_2 C21_2 1_555 1_555
C22_2 C11_2 1_555 1_555
H12_2 C22_2 1_555 1_555
C23_2 C18_2 1_555 1_555
H13_2 C23_2 1_555 1_555
C26_2 C17_2 1_555 1_555
C27_2 C16_2 1_555 1_555
C28_2 C21_2 1_555 1_555
H16_2 C28_2 1_555 1_555
Al9_4 O7_2 1_555 1_555
Al12_2 O6_2 1_555 1_555
C17_2 C22_2 1_555 1_555
C18_2 C27_2 1_555 1_555
C23_2 C26_2 1_555 1_555
C27_2 C28_2 1_555 1_555
O23_4 Al5_3 1_555 1_555
O28_4 Al5_3 1_555 1_555
O31_4 Al5_3 1_555 1_555
O2_2 C2_3 1_555 1_555
O24 C4_3 1_555 1_555
O26 C4_3 1_555 1_555
O9_2 C2_3 1_555 1_555
C1_3 C2_3 1_555 1_555
C4_3 C6_3 1_555 1_555
C6_3 C8_3 1_555 1_555
C11_3 C6_3 1_555 1_555
H5_3 C11_3 1_555 1_555
C12_3 H6_3 1_555 1_555
C14_3 C1_3 1_555 1_555
H8_3 C14_3 1_555 1_555
C15_3 C8_3 1_555 1_555
C16_3 C14_3 1_555 1_555
H10_3 C16_3 1_555 1_555
C17_3 C15_3 1_555 1_555
C18_3 C12_3 1_555 1_555
C21_3 C1_3 1_555 1_555
H11_3 C21_3 1_555 1_555
C22_3 C11_3 1_555 1_555
H12_3 C22_3 1_555 1_555
C23_3 C18_3 1_555 1_555
H13_3 C23_3 1_555 1_555
C26_3 C17_3 1_555 1_555
C27_3 C16_3 1_555 1_555
C28_3 C21_3 1_555 1_555
H16_3 C28_3 1_555 1_555
Al9 O9_2 1_555 1_555
Al13 O2_2 1_555 1_555
C17_3 C22_3 1_555 1_555
C18_3 C27_3 1_555 1_555
C23_3 C26_3 1_555 1_555
C27_3 C28_3 1_555 1_555
Al9 O4_3 1_555 1_555
Al12 O1_3 1_555 1_555
O1_3 C7_3 1_555 1_555
O3_3 Al12 1_555 1_555
O4_3 Al12 1_555 1_555
O23_4 Al12 1_555 1_555
C3_3 C5_3 1_555 1_555
C5_3 H1_3 1_555 1_555
C7_3 O28_4 1_555 1_555
C9_3 C3_3 1_555 1_555
H3_3 C9_3 1_555 1_555
C10_3 C9_3 1_555 1_555
H4_3 C10_3 1_555 1_555
C13_3 C5_3 1_555 1_555
H7_3 C13_3 1_555 1_555
C19_3 C10_3 1_555 1_555
C24_3 C20_3 1_555 1_555
H14_3 C24_3 1_555 1_555
C25_3 O3_3 1_555 1_555
H15_3 C25_3 1_555 1_555
Al13 O11_3 1_555 1_555
O11_3 C35_3 1_555 1_555
O13_3 Al13 1_555 1_555
O14_3 Al9 1_555 1_555
O23_3 Al13 1_555 1_555
O28_3 C35_3 1_555 1_555
O31_3 C53_3 1_555 1_555
C31_3 C33_3 1_555 1_555
C33_3 H17_3 1_555 1_555
C35_3 C31_3 1_555 1_555
C37_3 C31_3 1_555 1_555
H19_3 C37_3 1_555 1_555
C38_3 C37_3 1_555 1_555
H20_3 C38_3 1_555 1_555
C41_3 C33_3 1_555 1_555
H23_3 C41_3 1_555 1_555
C47_3 C38_3 1_555 1_555
C52_3 C48_3 1_555 1_555
H30_3 C52_3 1_555 1_555
C53_3 O13_3 1_555 1_555
H31_3 C53_3 1_555 1_555
O22_2 Al12 1_555 1_555
O30_2 Al9 1_555 1_555
O31_4 C25_3 1_555 1_555
C3_3 C7_3 1_555 1_555
C13_3 C19_3 1_555 1_555
C19_3 C20_3 1_555 1_555
Al13 O14_3 1_555 1_555
C41_3 C47_3 1_555 1_555
C47_3 C48_3 1_555 1_555
O22_2 C30_3 1_555 1_555
O25 C32_3 1_555 1_555
O27 C32_3 1_555 1_555
O30_2 C30_3 1_555 1_555
C29_3 C30_3 1_555 1_555
C32_3 C34_3 1_555 1_555
C34_3 C36_3 1_555 1_555
C39_3 C34_3 1_555 1_555
H21_3 C39_3 1_555 1_555
C40_3 H22_3 1_555 1_555
C42_3 C29_3 1_555 1_555
H24_3 C42_3 1_555 1_555
C43_3 C36_3 1_555 1_555
C44_3 C42_3 1_555 1_555
H26_3 C44_3 1_555 1_555
C45_3 C43_3 1_555 1_555
C46_3 C40_3 1_555 1_555
C49_3 C29_3 1_555 1_555
H27_3 C49_3 1_555 1_555
C50_3 C39_3 1_555 1_555
H28_3 C50_3 1_555 1_555
C51_3 C46_3 1_555 1_555
H29_3 C51_3 1_555 1_555
C54_3 C45_3 1_555 1_555
C55_3 C44_3 1_555 1_555
C56_3 C49_3 1_555 1_555
H32_3 C56_3 1_555 1_555
C45_3 C50_3 1_555 1_555
C46_3 C55_3 1_555 1_555
C51_3 C54_3 1_555 1_555
C55_3 C56_3 1_555 1_555
O2_3 C2_4 1_555 1_555
Al12_2 O2_3 1_555 1_555
O30_3 Al9_2 1_555 1_555
Al9_3 O4_4 1_555 1_555
Al13_2 O1_4 1_555 1_555
O1_4 C7_4 1_555 1_555
O3_4 Al13_2 1_555 1_555
O4_4 Al13_2 1_555 1_555
O23_2 Al13_2 1_555 1_555
O25_2 C4_4 1_555 1_555
O27_2 C4_4 1_555 1_555
C3_4 C5_4 1_555 1_555
C4_4 C6_4 1_555 1_555
C5_4 H1_4 1_555 1_555
C6_4 C8_4 1_555 1_555
C7_4 O28_2 1_555 1_555
C8_4 H2_4 1_555 1_555
C9_4 C3_4 1_555 1_555
H3_4 C9_4 1_555 1_555
C10_4 C9_4 1_555 1_555
H4_4 C10_4 1_555 1_555
C11_4 C6_4 1_555 1_555
H5_4 C11_4 1_555 1_555
C12_4 H6_4 1_555 1_555
C13_4 C5_4 1_555 1_555
H7_4 C13_4 1_555 1_555
C14_4 C1_4 1_555 1_555
H8_4 C14_4 1_555 1_555
C15_4 C8_4 1_555 1_555
H9_4 C15_4 1_555 1_555
C16_4 C14_4 1_555 1_555
H10_4 C16_4 1_555 1_555
C17_4 C15_4 1_555 1_555
C18_4 C12_4 1_555 1_555
C19_4 C10_4 1_555 1_555
C20_4 C12_4 1_555 1_555
C21_4 C1_4 1_555 1_555
C22_4 C11_4 1_555 1_555
H12_4 C22_4 1_555 1_555
C23_4 C18_4 1_555 1_555
H13_4 C23_4 1_555 1_555
C24_4 C20_4 1_555 1_555
H14_4 C24_4 1_555 1_555
C25_4 O3_4 1_555 1_555
H15_4 C25_4 1_555 1_555
C26_4 C17_4 1_555 1_555
C27_4 C16_4 1_555 1_555
C28_4 C21_4 1_555 1_555
H16_4 C28_4 1_555 1_555
Al9_5 O9_3 1_555 1_555
O22_3 Al13_2 1_555 1_555
O31_2 C25_4 1_555 1_555
C3_4 C7_4 1_555 1_555
C13_4 C19_4 1_555 1_555
C17_4 C22_4 1_555 1_555
C18_4 C27_4 1_555 1_555
C19_4 C20_4 1_555 1_555
C23_4 C26_4 1_555 1_555
C24_4 C26_4 1_555 1_555
C27_4 C28_4 1_555 1_555
Al12_2 O11_4 1_555 1_555
O11_4 C35_4 1_555 1_555
O13_4 Al12_2 1_555 1_555
O14_4 Al9_4 1_555 1_555
O23 Al12_2 1_555 1_555
O24_2 C32_4 1_555 1_555
O26_2 C32_4 1_555 1_555
O28 C35_4 1_555 1_555
O31 C53_4 1_555 1_555
C31_4 C33_4 1_555 1_555
C32_4 C34_4 1_555 1_555
C33_4 H17_4 1_555 1_555
C34_4 C36_4 1_555 1_555
C35_4 C31_4 1_555 1_555
C36_4 H18_4 1_555 1_555
C37_4 C31_4 1_555 1_555
H19_4 C37_4 1_555 1_555
C38_4 C37_4 1_555 1_555
H20_4 C38_4 1_555 1_555
C39_4 C34_4 1_555 1_555
H21_4 C39_4 1_555 1_555
C40_4 H22_4 1_555 1_555
C41_4 C33_4 1_555 1_555
H23_4 C41_4 1_555 1_555
C42_4 C29_4 1_555 1_555
H24_4 C42_4 1_555 1_555
C43_4 C36_4 1_555 1_555
H25_4 C43_4 1_555 1_555
C44_4 C42_4 1_555 1_555
H26_4 C44_4 1_555 1_555
C45_4 C43_4 1_555 1_555
C46_4 C40_4 1_555 1_555
C47_4 C38_4 1_555 1_555
C48_4 C40_4 1_555 1_555
C49_4 C29_4 1_555 1_555
C50_4 C39_4 1_555 1_555
H28_4 C50_4 1_555 1_555
C51_4 C46_4 1_555 1_555
H29_4 C51_4 1_555 1_555
C52_4 C48_4 1_555 1_555
H30_4 C52_4 1_555 1_555
C53_4 O13_4 1_555 1_555
H31_4 C53_4 1_555 1_555
C54_4 C45_4 1_555 1_555
C55_4 C44_4 1_555 1_555
C56_4 C49_4 1_555 1_555
H32_4 C56_4 1_555 1_555
Al12_2 O14_4 1_555 1_555
C41_4 C47_4 1_555 1_555
C45_4 C50_4 1_555 1_555
C46_4 C55_4 1_555 1_555
C47_4 C48_4 1_555 1_555
C51_4 C54_4 1_555 1_555
C52_4 C54_4 1_555 1_555
C55_4 C56_4 1_555 1_555
O22_3 C30_4 1_555 1_555

#END
