
###############################################################################
#
# This file contains modified crystal structure data generated from the
# MOF subset of the Cambridge Structural Database (CSD) v543 
# hosted by the Cambridge Crystallographic Data Centre (CCDC).
#
# This work is licensed under the Creative Commons
# Attribution-NonCommercial-ShareAlike 4.0 International License.
# To view a copy of this license, visit
# http://creativecommons.org/licenses/by-nc-sa/4.0/
# or send a letter to
# Creative Commons, PO Box 1866, Mountain View, CA 94042, USA.
#
# CIF created using the CSD Python API on 29 September 2022
# The structure has been converted into the P1 space group
# The structure has a 3D framework
# The original CSD entry RIXXEE is in the tetragonal crystal system
# The framework has been calculated to contain at least 10.0% void space
# The void calculation uses a probe of radius 1.32A, grid spacing 0.4
# The framework is charged, counterions have been retained in the structure
#
###############################################################################

data_RIXXEE
_chemical_formula_moiety         '(C224 H180 Co16 N64 O94 Zn12 8+)n'
_symmetry_cell_setting           triclinic
_symmetry_space_group_name_H-M   'P 1'
_symmetry_Int_Tables_number      1
_space_group_name_Hall           'P 1'
loop_
_symmetry_equiv_pos_site_id
_symmetry_equiv_pos_as_xyz
1 x,y,z
_cell_length_a                   22.8877(11)
_cell_length_b                   22.8877(11)
_cell_length_c                   13.2321(8)
_cell_angle_alpha                90
_cell_angle_beta                 90
_cell_angle_gamma                90
_cell_volume                     6931.59
loop_
_atom_site_label
_atom_site_type_symbol
_atom_site_fract_x
_atom_site_fract_y
_atom_site_fract_z
Zn2 Zn 0.0000 0.7500 0.3750
N2 N 0.15725(16) 0.74108(16) 0.0229(2)
N3 N 0.04407(16) 0.80577(17) 0.2911(3)
N4 N 0.12204(16) 0.84242(16) 0.2186(3)
C2 C 0.0754(2) 0.6938(2) 0.0296(3)
H2 H 0.0465 0.6670 0.0471
C3 C 0.1293(2) 0.6950(2) 0.0677(4)
H3 H 0.1448 0.6696 0.1155
C4 C 0.21862(19) 0.7572(2) 0.0375(3)
H4 H 0.2252 0.7963 0.0118
H5 H 0.2434 0.7305 0.0000
C5 C 0.0992(2) 0.7976(2) 0.2699(4)
H6 H 0.1201 0.7645 0.2885
C6 C 0.0306(2) 0.8577(2) 0.2483(4)
C7 C 0.0782(2) 0.8817(2) 0.2055(4)
H8 H 0.0806 0.9178 0.1734
C8 C 0.18291(18) 0.8507(2) 0.1855(4)
H9 H 0.1987 0.8858 0.2161
H10 H 0.1841 0.8554 0.1127
C9 C 0.23457(19) 0.7550(2) 0.1481(3)
C10 C 0.21945(18) 0.7986(2) 0.2159(3)
C11 C 0.26490(19) 0.7073(2) 0.1835(3)
H11 H 0.2753 0.6780 0.1382
N5 N 0.43084(16) 0.76213(16) 0.5391(3)
N6 N 0.34275(16) 0.75892(16) 0.4771(2)
N7 N 0.45593(16) 0.69423(17) 0.2089(3)
N8 N 0.37796(16) 0.65758(16) 0.2814(3)
C12 C 0.3807(2) 0.7349(2) 0.5413(3)
H12 H 0.3725 0.7029 0.5823
C13 C 0.4246(2) 0.8062(2) 0.4704(3)
H13 H 0.4535 0.8330 0.4529
C14 C 0.3707(2) 0.8050(2) 0.4323(4)
H14 H 0.3552 0.8304 0.3845
C15 C 0.28138(19) 0.7428(2) 0.4625(3)
H15 H 0.2748 0.7037 0.4882
H16 H 0.2566 0.7695 0.5000
C16 C 0.4008(2) 0.7024(2) 0.2301(4)
H17 H 0.3799 0.7355 0.2115
C17 C 0.4694(2) 0.6423(2) 0.2517(4)
H18 H 0.5064 0.6256 0.2515
C18 C 0.4218(2) 0.6183(2) 0.2945(4)
H19 H 0.4194 0.5822 0.3266
C19 C 0.31709(18) 0.6493(2) 0.3145(4)
H20 H 0.3013 0.6142 0.2839
H21 H 0.3159 0.6446 0.3873
C20 C 0.26543(19) 0.7450(2) 0.3519(3)
C21 C 0.28055(18) 0.7014(2) 0.2841(3)
C22 C 0.23510(19) 0.7927(2) 0.3165(3)
H22 H 0.2247 0.8220 0.3618
H29 H 0.0064 0.6256 0.2485
Zn4 Zn 0.5000 0.7500 0.6250
Zn6 Zn 0.5000 0.7500 0.1250
N19 N 0.05577(17) 0.70593(16) 0.4589(3)
Zn1 Zn 0.0000 0.7500 0.8750
N1 N 0.06916(16) 0.73787(16) 0.9609(3)
C1 C 0.1193(2) 0.7651(2) 0.9587(3)
H1 H 0.1275 0.7971 0.9177
H5_2 H 0.2434 0.7305 1.0000
N18 N 0.01213(16) 0.81916(16) 0.7891(3)
Zn2_2 Zn 1.0000 0.7500 0.3750
H7 H 0.9936 0.8744 0.2485
N10 N 0.84275(16) 0.75892(16) 0.0229(2)
N11 N 0.95593(16) 0.69423(17) 0.2911(3)
N12 N 0.87796(16) 0.65758(16) 0.2186(3)
C24 C 0.9246(2) 0.8062(2) 0.0296(3)
H24 H 0.9535 0.8330 0.0471
C25 C 0.8707(2) 0.8050(2) 0.0677(4)
H25 H 0.8552 0.8304 0.1155
C26 C 0.78138(19) 0.7428(2) 0.0375(3)
H26 H 0.7748 0.7037 0.0118
H27 H 0.7566 0.7695 0.0000
C27 C 0.9008(2) 0.7024(2) 0.2699(4)
H28 H 0.8799 0.7355 0.2885
C28 C 0.9694(2) 0.6423(2) 0.2483(4)
C29 C 0.9218(2) 0.6183(2) 0.2055(4)
H30 H 0.9194 0.5822 0.1734
C30 C 0.81709(18) 0.6493(2) 0.1855(4)
H31 H 0.8013 0.6142 0.2161
H32 H 0.8159 0.6446 0.1127
C31 C 0.76543(19) 0.7450(2) 0.1481(3)
C32 C 0.78055(18) 0.7014(2) 0.2159(3)
C33 C 0.73510(19) 0.7927(2) 0.1835(3)
H33 H 0.7247 0.8220 0.1382
N13 N 0.56916(16) 0.73787(16) 0.5391(3)
N14 N 0.65725(16) 0.74108(16) 0.4771(2)
N15 N 0.54407(16) 0.80577(17) 0.2089(3)
N16 N 0.62204(16) 0.84242(16) 0.2814(3)
C34 C 0.6193(2) 0.7651(2) 0.5413(3)
H34 H 0.6275 0.7971 0.5823
C35 C 0.5754(2) 0.6938(2) 0.4704(3)
H35 H 0.5465 0.6670 0.4529
C36 C 0.6293(2) 0.6950(2) 0.4323(4)
H36 H 0.6448 0.6696 0.3845
C37 C 0.71862(19) 0.7572(2) 0.4625(3)
H37 H 0.7252 0.7963 0.4882
H38 H 0.7434 0.7305 0.5000
C38 C 0.5992(2) 0.7976(2) 0.2301(4)
H39 H 0.6201 0.7645 0.2115
C39 C 0.5306(2) 0.8577(2) 0.2517(4)
H40 H 0.4936 0.8744 0.2515
C40 C 0.5782(2) 0.8817(2) 0.2945(4)
H41 H 0.5806 0.9178 0.3266
C41 C 0.68291(18) 0.8507(2) 0.3145(4)
H42 H 0.6987 0.8858 0.2839
H43 H 0.6841 0.8554 0.3873
C42 C 0.73457(19) 0.7550(2) 0.3519(3)
C43 C 0.71945(18) 0.7986(2) 0.2841(3)
C44 C 0.76490(19) 0.7073(2) 0.3165(3)
H44 H 0.7753 0.6780 0.3618
N20 N 0.94423(17) 0.79407(16) 0.4589(3)
Zn1_2 Zn 1.0000 0.7500 0.8750
N9 N 0.93084(16) 0.76213(16) 0.9609(3)
C23 C 0.8807(2) 0.7349(2) 0.9587(3)
H23 H 0.8725 0.7029 0.9177
H27_2 H 0.7566 0.7695 1.0000
N17 N 0.98787(16) 0.68084(16) 0.7891(3)
Zn3 Zn 0.0000 0.2500 0.1250
H40_2 H 0.0064 0.1256 0.7515
Zn5 Zn 0.0000 0.2500 0.6250
N5_2 N 0.06916(16) 0.23787(16) 0.0391(3)
C12_2 C 0.1193(2) 0.2651(2) 0.0413(3)
H12_2 H 0.1275 0.2971 0.0823
H16_2 H 0.2434 0.2305 0.0000
N13_2 N 0.93084(16) 0.26213(16) 0.0391(3)
C34_2 C 0.8807(2) 0.2349(2) 0.0413(3)
H34_2 H 0.8725 0.2029 0.0823
H38_2 H 0.7566 0.2695 0.0000
Zn3_2 Zn 1.0000 0.2500 0.1250
Zn1_3 Zn 0.5000 0.2500 0.3750
Zn2_3 Zn 0.5000 0.2500 0.8750
N1_2 N 0.43084(16) 0.26213(16) 0.4609(3)
N2_2 N 0.34275(16) 0.25892(16) 0.5229(2)
N3_2 N 0.45593(16) 0.19423(17) 0.7911(3)
N4_2 N 0.37796(16) 0.15758(16) 0.7186(3)
C1_2 C 0.3807(2) 0.2349(2) 0.4587(3)
H1_2 H 0.3725 0.2029 0.4177
C2_2 C 0.4246(2) 0.3062(2) 0.5296(3)
H2_2 H 0.4535 0.3330 0.5471
C3_2 C 0.3707(2) 0.3050(2) 0.5677(4)
H3_2 H 0.3552 0.3304 0.6155
C4_2 C 0.28138(19) 0.2428(2) 0.5375(3)
H4_2 H 0.2748 0.2037 0.5118
H5_3 H 0.2566 0.2695 0.5000
C5_2 C 0.4008(2) 0.2024(2) 0.7699(4)
H6_2 H 0.3799 0.2355 0.7885
C6_2 C 0.4694(2) 0.1423(2) 0.7483(4)
H7_2 H 0.5064 0.1256 0.7485
C7_2 C 0.4218(2) 0.1183(2) 0.7055(4)
H8_2 H 0.4194 0.0822 0.6734
C8_2 C 0.31709(18) 0.1493(2) 0.6855(4)
H9_2 H 0.3013 0.1142 0.7161
H10_2 H 0.3159 0.1446 0.6127
C9_2 C 0.26543(19) 0.2450(2) 0.6481(3)
C10_2 C 0.28055(18) 0.2014(2) 0.7159(3)
C11_2 C 0.23510(19) 0.2927(2) 0.6835(3)
H11_2 H 0.2247 0.3220 0.6382
N6_2 N 0.15725(16) 0.24108(16) 0.9771(2)
N7_2 N 0.04407(16) 0.30577(17) 0.7089(3)
N8_2 N 0.12204(16) 0.34242(16) 0.7814(3)
C13_2 C 0.0754(2) 0.1938(2) 0.9704(3)
H13_2 H 0.0465 0.1670 0.9529
C14_2 C 0.1293(2) 0.1950(2) 0.9323(4)
H14_2 H 0.1448 0.1696 0.8845
C15_2 C 0.21862(19) 0.2572(2) 0.9625(3)
H15_2 H 0.2252 0.2963 0.9882
H16_3 H 0.2434 0.2305 1.0000
C16_2 C 0.0992(2) 0.2976(2) 0.7301(4)
H17_2 H 0.1201 0.2645 0.7115
C17_2 C 0.0306(2) 0.3577(2) 0.7517(4)
C18_2 C 0.0782(2) 0.3817(2) 0.7945(4)
H19_2 H 0.0806 0.4178 0.8266
C19_2 C 0.18291(18) 0.3507(2) 0.8145(4)
H20_2 H 0.1987 0.3858 0.7839
H21_2 H 0.1841 0.3554 0.8873
C20_2 C 0.23457(19) 0.2550(2) 0.8519(3)
C21_2 C 0.21945(18) 0.2986(2) 0.7841(3)
C22_2 C 0.26490(19) 0.2073(2) 0.8165(3)
H22_2 H 0.2753 0.1780 0.8618
N9_2 N 0.56916(16) 0.23787(16) 0.4609(3)
N10_2 N 0.65725(16) 0.24108(16) 0.5229(2)
N11_2 N 0.54407(16) 0.30577(17) 0.7911(3)
N12_2 N 0.62204(16) 0.34242(16) 0.7186(3)
C23_2 C 0.6193(2) 0.2651(2) 0.4587(3)
H23_2 H 0.6275 0.2971 0.4177
C24_2 C 0.5754(2) 0.1938(2) 0.5296(3)
H24_2 H 0.5465 0.1670 0.5471
C25_2 C 0.6293(2) 0.1950(2) 0.5677(4)
H25_2 H 0.6448 0.1696 0.6155
C26_2 C 0.71862(19) 0.2572(2) 0.5375(3)
H26_2 H 0.7252 0.2963 0.5118
H27_3 H 0.7434 0.2305 0.5000
C27_2 C 0.5992(2) 0.2976(2) 0.7699(4)
H28_2 H 0.6201 0.2645 0.7885
C28_2 C 0.5306(2) 0.3577(2) 0.7483(4)
H29_2 H 0.4936 0.3744 0.7485
C29_2 C 0.5782(2) 0.3817(2) 0.7055(4)
H30_2 H 0.5806 0.4178 0.6734
C30_2 C 0.68291(18) 0.3507(2) 0.6855(4)
H31_2 H 0.6987 0.3858 0.7161
H32_2 H 0.6841 0.3554 0.6127
C31_2 C 0.73457(19) 0.2550(2) 0.6481(3)
C32_2 C 0.71945(18) 0.2986(2) 0.7159(3)
C33_2 C 0.76490(19) 0.2073(2) 0.6835(3)
H33_2 H 0.7753 0.1780 0.6382
N14_2 N 0.84275(16) 0.25892(16) 0.9771(2)
N15_2 N 0.95593(16) 0.19423(17) 0.7089(3)
N16_2 N 0.87796(16) 0.15758(16) 0.7814(3)
C35_2 C 0.9246(2) 0.3062(2) 0.9704(3)
H35_2 H 0.9535 0.3330 0.9529
C36_2 C 0.8707(2) 0.3050(2) 0.9323(4)
H36_2 H 0.8552 0.3304 0.8845
C37_2 C 0.78138(19) 0.2428(2) 0.9625(3)
H37_2 H 0.7748 0.2037 0.9882
H38_3 H 0.7566 0.2695 1.0000
C38_2 C 0.9008(2) 0.2024(2) 0.7301(4)
H39_2 H 0.8799 0.2355 0.7115
C39_2 C 0.9694(2) 0.1423(2) 0.7517(4)
C40_2 C 0.9218(2) 0.1183(2) 0.7945(4)
H41_2 H 0.9194 0.0822 0.8266
C41_2 C 0.81709(18) 0.1493(2) 0.8145(4)
H42_2 H 0.8013 0.1142 0.7839
H43_2 H 0.8159 0.1446 0.8873
C42_2 C 0.76543(19) 0.2450(2) 0.8519(3)
C43_2 C 0.78055(18) 0.2014(2) 0.7841(3)
C44_2 C 0.73510(19) 0.2927(2) 0.8165(3)
H44_2 H 0.7247 0.3220 0.8618
Zn5_2 Zn 1.0000 0.2500 0.6250
N17_2 N 0.51213(16) 0.31916(16) 0.2891(3)
N18_2 N 0.48787(16) 0.18084(16) 0.2891(3)
N19_2 N 0.44423(17) 0.29407(16) 0.9589(3)
N20_2 N 0.55577(17) 0.20593(16) 0.9589(3)
H18_2 H 0.9936 0.3744 0.7515
N1_3 N 0.01213(16) 0.31916(16) 0.2109(3)
N2_3 N 0.00892(16) 0.40725(16) 0.2729(2)
C2_3 C 0.0562(2) 0.3254(2) 0.2796(3)
H2_3 H 0.0830 0.2965 0.2971
C3_3 C 0.0550(2) 0.3793(2) 0.3177(4)
H3_3 H 0.0804 0.3948 0.3655
H5_4 H 0.0195 0.4934 0.2500
C11_3 C 0.0427(2) 0.51490(19) 0.4335(3)
H11_3 H 0.0720 0.5253 0.3882
N8_3 N 0.09242(16) 0.62796(16) 0.5314(3)
C12_3 C 0.0151(2) 0.6307(2) 0.7913(3)
H12_3 H 0.0471 0.6225 0.8323
C15_3 C 0.0072(2) 0.53138(19) 0.7125(3)
H15_3 H 0.0463 0.5248 0.7382
C16_3 C 0.0476(2) 0.6508(2) 0.4801(4)
H17_3 H 0.0145 0.6299 0.4615
C17_3 C 0.1077(2) 0.7194(2) 0.5017(4)
H18_3 H 0.1244 0.7564 0.5015
C18_3 C 0.1317(2) 0.6718(2) 0.5445(4)
H19_3 H 0.1678 0.6694 0.5766
C19_3 C 0.1007(2) 0.56709(18) 0.5645(4)
H20_3 H 0.1358 0.5513 0.5339
H21_3 H 0.1054 0.5659 0.6373
C20_3 C 0.0050(2) 0.51543(19) 0.6019(3)
C21_3 C 0.0486(2) 0.53055(18) 0.5341(3)
N11_3 N 0.05577(17) 0.20593(16) 0.5411(3)
N12_3 N 0.09242(16) 0.12796(16) 0.4686(3)
C23_3 C 0.0151(2) 0.1307(2) 0.2087(3)
H23_3 H 0.0471 0.1225 0.1677
C26_3 C 0.0072(2) 0.03138(19) 0.2875(3)
H26_3 H 0.0463 0.0248 0.2618
C27_3 C 0.0476(2) 0.1508(2) 0.5199(4)
H28_3 H 0.0145 0.1299 0.5385
C28_3 C 0.1077(2) 0.2194(2) 0.4983(4)
H29_3 H 0.1244 0.2564 0.4985
C29_3 C 0.1317(2) 0.1718(2) 0.4555(4)
H30_3 H 0.1678 0.1694 0.4234
C30_3 C 0.1007(2) 0.06709(18) 0.4355(4)
H31_3 H 0.1358 0.0513 0.4661
H32_3 H 0.1054 0.0659 0.3627
C31_3 C 0.0050(2) 0.01543(19) 0.3981(3)
C32_3 C 0.0486(2) 0.03055(18) 0.4659(3)
C44_3 C 0.0427(2) 0.01490(19) 0.5665(3)
H44_3 H 0.0720 0.0253 0.6118
N14_3 N 0.00892(16) 0.90725(16) 0.7271(2)
C35_3 C 0.0562(2) 0.8254(2) 0.7204(3)
H35_3 H 0.0830 0.7965 0.7029
C36_3 C 0.0550(2) 0.8793(2) 0.6823(4)
H36_3 H 0.0804 0.8948 0.6345
H38_4 H 0.0195 0.9934 0.7500
N3_3 N 0.94423(17) 0.29407(16) 0.5411(3)
N4_3 N 0.90758(16) 0.37204(16) 0.4686(3)
C1_3 C 0.9849(2) 0.3693(2) 0.2087(3)
H1_3 H 0.9529 0.3775 0.1677
C4_3 C 0.9928(2) 0.46862(19) 0.2875(3)
H4_3 H 0.9537 0.4752 0.2618
C5_3 C 0.9524(2) 0.3492(2) 0.5199(4)
H6_3 H 0.9855 0.3701 0.5385
C6_3 C 0.8923(2) 0.2806(2) 0.4983(4)
H7_3 H 0.8756 0.2436 0.4985
C7_3 C 0.8683(2) 0.3282(2) 0.4555(4)
H8_3 H 0.8322 0.3306 0.4234
C8_3 C 0.8993(2) 0.43291(18) 0.4355(4)
H9_3 H 0.8642 0.4487 0.4661
H10_3 H 0.8946 0.4341 0.3627
C9_3 C 0.9950(2) 0.48457(19) 0.3981(3)
C10_3 C 0.9514(2) 0.46945(18) 0.4659(3)
N6_3 N 0.99108(16) 0.59275(16) 0.7271(2)
C13_3 C 0.9438(2) 0.6746(2) 0.7204(3)
H13_3 H 0.9170 0.7035 0.7029
C14_3 C 0.9450(2) 0.6207(2) 0.6823(4)
H14_3 H 0.9196 0.6052 0.6345
H16_4 H 0.9805 0.5066 0.7500
C22_3 C 0.9573(2) 0.48510(19) 0.5665(3)
H22_3 H 0.9280 0.4747 0.6118
N9_3 N 0.98787(16) 0.18084(16) 0.2109(3)
N10_3 N 0.99108(16) 0.09275(16) 0.2729(2)
C24_3 C 0.9438(2) 0.1746(2) 0.2796(3)
H24_3 H 0.9170 0.2035 0.2971
C25_3 C 0.9450(2) 0.1207(2) 0.3177(4)
H25_3 H 0.9196 0.1052 0.3655
H27_4 H 0.9805 0.0066 0.2500
C33_3 C 0.9573(2) 0.98510(19) 0.4335(3)
H33_3 H 0.9280 0.9747 0.3882
N16_3 N 0.90758(16) 0.87204(16) 0.5314(3)
C34_3 C 0.9849(2) 0.8693(2) 0.7913(3)
H34_3 H 0.9529 0.8775 0.8323
C37_3 C 0.9928(2) 0.96862(19) 0.7125(3)
H37_3 H 0.9537 0.9752 0.7382
C38_3 C 0.9524(2) 0.8492(2) 0.4801(4)
H39_3 H 0.9855 0.8701 0.4615
C39_3 C 0.8923(2) 0.7806(2) 0.5017(4)
H40_3 H 0.8756 0.7436 0.5015
C40_3 C 0.8683(2) 0.8282(2) 0.5445(4)
H41_3 H 0.8322 0.8306 0.5766
C41_3 C 0.8993(2) 0.93291(18) 0.5645(4)
H42_3 H 0.8642 0.9487 0.5339
H43_3 H 0.8946 0.9341 0.6373
C42_3 C 0.9950(2) 0.98457(19) 0.6019(3)
C43_3 C 0.9514(2) 0.96945(18) 0.5341(3)
N14_4 N 0.49108(16) 0.09275(16) 0.2271(2)
N16_4 N 0.59242(16) 0.12796(16) 0.0314(3)
C34_4 C 0.5151(2) 0.1307(2) 0.2913(3)
H34_4 H 0.5471 0.1225 0.3323
C35_4 C 0.4438(2) 0.1746(2) 0.2204(3)
H35_4 H 0.4170 0.2035 0.2029
C36_4 C 0.4450(2) 0.1207(2) 0.1823(4)
H36_4 H 0.4196 0.1052 0.1345
C37_4 C 0.5072(2) 0.03138(19) 0.2125(3)
H37_4 H 0.5463 0.0248 0.2382
H38_5 H 0.4805 0.0066 0.2500
C39_4 C 0.6077(2) 0.2194(2) 0.0017(4)
H40_4 H 0.6244 0.2564 0.0015
C40_4 C 0.6317(2) 0.1718(2) 0.0445(4)
H41_4 H 0.6678 0.1694 0.0766
C41_4 C 0.6007(2) 0.06709(18) 0.0645(4)
H42_4 H 0.6358 0.0513 0.0339
H43_4 H 0.6054 0.0659 0.1373
C42_4 C 0.5050(2) 0.01543(19) 0.1019(3)
C43_4 C 0.5486(2) 0.03055(18) 0.0341(3)
C33_4 C 0.5427(2) 0.01490(19) 0.9335(3)
H33_4 H 0.5720 0.0253 0.8882
C38_4 C 0.5476(2) 0.1508(2) 0.9801(4)
H39_4 H 0.5145 0.1299 0.9615
N3_4 N 0.55577(17) 0.70593(16) 0.0411(3)
C5_4 C 0.5476(2) 0.6508(2) 0.0199(4)
H6_4 H 0.5145 0.6299 0.0385
N6_4 N 0.50892(16) 0.40725(16) 0.2271(2)
N8_4 N 0.40758(16) 0.37204(16) 0.0314(3)
C12_4 C 0.4849(2) 0.3693(2) 0.2913(3)
H12_4 H 0.4529 0.3775 0.3323
C13_4 C 0.5562(2) 0.3254(2) 0.2204(3)
H13_4 H 0.5830 0.2965 0.2029
C14_4 C 0.5550(2) 0.3793(2) 0.1823(4)
H14_4 H 0.5804 0.3948 0.1345
C15_4 C 0.4928(2) 0.46862(19) 0.2125(3)
H15_4 H 0.4537 0.4752 0.2382
H16_5 H 0.5195 0.4934 0.2500
C17_4 C 0.3923(2) 0.2806(2) 0.0017(4)
H18_4 H 0.3756 0.2436 0.0015
C18_4 C 0.3683(2) 0.3282(2) 0.0445(4)
H19_4 H 0.3322 0.3306 0.0766
C19_4 C 0.3993(2) 0.43291(18) 0.0645(4)
H20_4 H 0.3642 0.4487 0.0339
H21_4 H 0.3946 0.4341 0.1373
C20_4 C 0.4950(2) 0.48457(19) 0.1019(3)
C21_4 C 0.4514(2) 0.46945(18) 0.0341(3)
C22_4 C 0.5427(2) 0.51490(19) 0.0665(3)
H22_4 H 0.5720 0.5253 0.1118
N11_4 N 0.44423(17) 0.79407(16) 0.0411(3)
C27_4 C 0.4524(2) 0.8492(2) 0.0199(4)
H28_4 H 0.4855 0.8701 0.0385
C44_4 C 0.4573(2) 0.98510(19) 0.0665(3)
H44_4 H 0.4280 0.9747 0.1118
N1_4 N 0.48787(16) 0.68084(16) 0.7109(3)
N2_4 N 0.49108(16) 0.59275(16) 0.7729(2)
N4_4 N 0.59242(16) 0.62796(16) 0.9686(3)
C1_4 C 0.5151(2) 0.6307(2) 0.7087(3)
H1_4 H 0.5471 0.6225 0.6677
C2_4 C 0.4438(2) 0.6746(2) 0.7796(3)
H2_4 H 0.4170 0.7035 0.7971
C3_4 C 0.4450(2) 0.6207(2) 0.8177(4)
H3_4 H 0.4196 0.6052 0.8655
C4_4 C 0.5072(2) 0.53138(19) 0.7875(3)
H4_4 H 0.5463 0.5248 0.7618
H5_5 H 0.4805 0.5066 0.7500
C6_4 C 0.6077(2) 0.7194(2) 0.9983(4)
H7_4 H 0.6244 0.7564 0.9985
C7_4 C 0.6317(2) 0.6718(2) 0.9555(4)
H8_4 H 0.6678 0.6694 0.9234
C8_4 C 0.6007(2) 0.56709(18) 0.9355(4)
H9_4 H 0.6358 0.5513 0.9661
H10_4 H 0.6054 0.5659 0.8627
C9_4 C 0.5050(2) 0.51543(19) 0.8981(3)
C10_4 C 0.5486(2) 0.53055(18) 0.9659(3)
C11_4 C 0.4573(2) 0.48510(19) 0.9335(3)
H11_4 H 0.4280 0.4747 0.8882
C16_4 C 0.4524(2) 0.3492(2) 0.9801(4)
H17_4 H 0.4855 0.3701 0.9615
N9_4 N 0.51213(16) 0.81916(16) 0.7109(3)
N10_4 N 0.50892(16) 0.90725(16) 0.7729(2)
N12_4 N 0.40758(16) 0.87204(16) 0.9686(3)
C23_4 C 0.4849(2) 0.8693(2) 0.7087(3)
H23_4 H 0.4529 0.8775 0.6677
C24_4 C 0.5562(2) 0.8254(2) 0.7796(3)
H24_4 H 0.5830 0.7965 0.7971
C25_4 C 0.5550(2) 0.8793(2) 0.8177(4)
H25_4 H 0.5804 0.8948 0.8655
C26_4 C 0.4928(2) 0.96862(19) 0.7875(3)
H26_4 H 0.4537 0.9752 0.7618
H27_5 H 0.5195 0.9934 0.7500
C28_4 C 0.3923(2) 0.7806(2) 0.9983(4)
H29_4 H 0.3756 0.7436 0.9985
C29_4 C 0.3683(2) 0.8282(2) 0.9555(4)
H30_4 H 0.3322 0.8306 0.9234
C30_4 C 0.3993(2) 0.93291(18) 0.9355(4)
H31_4 H 0.3642 0.9487 0.9661
H32_4 H 0.3946 0.9341 0.8627
C31_4 C 0.4950(2) 0.98457(19) 0.8981(3)
C32_4 C 0.4514(2) 0.96945(18) 0.9659(3)
O1 O 0.04640(14) 0.55478(13) 0.0442(2)
O7 O 0.04699(13) 0.44051(12) 0.0048(2)
Co2 Co 0.11607(2) 0.49696(3) 0.03264(4)
O9 O 0.12995(13) 0.48294(13) 0.1859(2)
O10 O 0.17786(13) 0.42961(14) 0.0259(2)
O11 O 0.18912(13) 0.43293(13) 0.2884(2)
O12 O 0.23358(14) 0.37554(13) 0.1285(2)
C49 C 0.19594(19) 0.41428(19) 0.1107(3)
C50 C 0.16887(19) 0.44613(19) 0.2032(3)
Co4 Co 0.25304(3) 0.36607(2) 0.28264(4)
O14 O 0.18293(13) 0.56088(13) 0.0384(2)
C48 C 0.0002(2) 0.46707(18) 0.9883(3)
O16 O 0.12554(13) 0.51642(14) 0.8785(2)
C46 C 0.9998(2) 0.53293(18) 0.0117(3)
O15 O 0.87446(13) 0.48358(14) 0.1215(2)
Co1 Co 0.88393(2) 0.50304(3) 0.96736(4)
O2 O 0.95301(13) 0.55949(12) 0.9952(2)
O3 O 0.87005(13) 0.51706(13) 0.8141(2)
O4 O 0.82214(13) 0.57039(14) 0.9741(2)
O5 O 0.81088(13) 0.56707(13) 0.7116(2)
O6 O 0.76642(14) 0.62446(13) 0.8715(2)
C45 C 0.80406(19) 0.58572(19) 0.8893(3)
C47 C 0.83113(19) 0.55387(19) 0.7968(3)
O8 O 0.95360(14) 0.44522(13) 0.9558(2)
Co3 Co 0.74696(3) 0.63393(2) 0.71736(4)
O13 O 0.81707(13) 0.43912(13) 0.9616(2)
Co1_2 Co 0.61607(2) 0.49696(3) 0.46736(4)
O1_2 O 0.45360(14) 0.44522(13) 0.5442(2)
O2_2 O 0.54699(13) 0.44051(12) 0.4952(2)
O3_2 O 0.62995(13) 0.48294(13) 0.3141(2)
O4_2 O 0.67786(13) 0.42961(14) 0.4741(2)
O5_2 O 0.68912(13) 0.43293(13) 0.2116(2)
O6_2 O 0.73358(14) 0.37554(13) 0.3715(2)
C45_2 C 0.69594(19) 0.41428(19) 0.3893(3)
C46_2 C 0.5002(2) 0.46707(18) 0.5117(3)
C47_2 C 0.66887(19) 0.44613(19) 0.2968(3)
O7_2 O 0.45301(13) 0.55949(12) 0.5048(2)
C48_2 C 0.4998(2) 0.53293(18) 0.4883(3)
O8_2 O 0.54640(14) 0.55478(13) 0.4558(2)
Co2_2 Co 0.38393(2) 0.50304(3) 0.53264(4)
O9_2 O 0.37005(13) 0.51706(13) 0.6859(2)
O10_2 O 0.32214(13) 0.57039(14) 0.5259(2)
O11_2 O 0.31088(13) 0.56707(13) 0.7884(2)
O12_2 O 0.26642(14) 0.62446(13) 0.6285(2)
C49_2 C 0.30406(19) 0.58572(19) 0.6107(3)
C50_2 C 0.33113(19) 0.55387(19) 0.7032(3)
Co3_2 Co 0.75304(3) 0.36607(2) 0.21736(4)
Co4_2 Co 0.24696(3) 0.63393(2) 0.78264(4)
O13_2 O 0.68293(13) 0.56088(13) 0.4616(2)
O14_2 O 0.31707(13) 0.43912(13) 0.5384(2)
O15_2 O 0.62554(13) 0.51642(14) 0.6215(2)
O16_2 O 0.37446(13) 0.48358(14) 0.3785(2)
Co1_3 Co 0.24696(3) 0.13393(2) 0.21736(4)
O1_3 O 0.19522(13) 0.29640(14) 0.2942(2)
O2_3 O 0.19051(12) 0.20301(13) 0.2452(2)
O3_3 O 0.23294(13) 0.12005(13) 0.0641(2)
O4_3 O 0.17961(14) 0.07214(13) 0.2241(2)
O6_3 O 0.12554(13) 0.01642(14) 0.1215(2)
C45_3 C 0.16428(19) 0.05406(19) 0.1393(3)
C46_3 C 0.21707(18) 0.2498(2) 0.2617(3)
C47_3 C 0.19613(19) 0.08113(19) 0.0468(3)
O7_3 O 0.30949(12) 0.29699(13) 0.2548(2)
C48_3 C 0.28293(18) 0.2502(2) 0.2383(3)
O8_3 O 0.30478(13) 0.20360(14) 0.2058(2)
O9_3 O 0.26706(13) 0.37995(13) 0.4359(2)
O10_3 O 0.32039(14) 0.42786(13) 0.2759(2)
C49_3 C 0.33572(19) 0.44594(19) 0.3607(3)
C50_3 C 0.30387(19) 0.41887(19) 0.4532(3)
O13_3 O 0.31088(13) 0.06707(13) 0.2116(2)
O15_3 O 0.26642(14) 0.12446(13) 0.3715(2)
Co3_3 Co 0.11607(2) 0.99696(3) 0.96736(4)
Co3_4 Co 0.38393(2) 0.00304(3) 0.46736(4)
Co1_4 Co 0.25304(3) 0.86607(2) 0.71736(4)
O1_4 O 0.30478(13) 0.70360(14) 0.7942(2)
O2_4 O 0.30949(12) 0.79699(13) 0.7452(2)
O3_4 O 0.26706(13) 0.87995(13) 0.5641(2)
O4_4 O 0.32039(14) 0.92786(13) 0.7241(2)
O5_3 O 0.31707(13) 0.93912(13) 0.4616(2)
O6_4 O 0.37446(13) 0.98358(14) 0.6215(2)
C45_4 C 0.33572(19) 0.94594(19) 0.6393(3)
C46_4 C 0.28293(18) 0.7502(2) 0.7617(3)
C47_4 C 0.30387(19) 0.91887(19) 0.5468(3)
O7_4 O 0.19051(12) 0.70301(13) 0.7548(2)
C48_4 C 0.21707(18) 0.7498(2) 0.7383(3)
O8_4 O 0.19522(13) 0.79640(14) 0.7058(2)
O9_4 O 0.23294(13) 0.62005(13) 0.9359(2)
O10_4 O 0.17961(14) 0.57214(13) 0.7759(2)
C49_4 C 0.16428(19) 0.55406(19) 0.8607(3)
C50_4 C 0.19613(19) 0.58113(19) 0.9532(3)
O13_4 O 0.18912(13) 0.93293(13) 0.7116(2)
O15_4 O 0.23358(14) 0.87554(13) 0.8715(2)
O1_5 O 0.54640(14) 0.05478(13) 0.5442(2)
O2_5 O 0.45301(13) 0.05949(12) 0.4952(2)
O3_5 O 0.37005(13) 0.01706(13) 0.3141(2)
O4_5 O 0.32214(13) 0.07039(14) 0.4741(2)
C45_5 C 0.30406(19) 0.08572(19) 0.3893(3)
C46_5 C 0.4998(2) 0.03293(18) 0.5117(3)
C47_5 C 0.33113(19) 0.05387(19) 0.2968(3)
O14_3 O 0.68293(13) 0.06088(13) 0.5384(2)
O16_3 O 0.62554(13) 0.01642(14) 0.3785(2)
O7_5 O 0.54699(13) 0.94051(12) 0.5048(2)
C48_5 C 0.5002(2) 0.96707(18) 0.4883(3)
O8_5 O 0.45360(14) 0.94522(13) 0.4558(2)
Co2_3 Co 0.61607(2) 0.99696(3) 0.53264(4)
O9_5 O 0.62995(13) 0.98294(13) 0.6859(2)
O10_5 O 0.67786(13) 0.92961(14) 0.5259(2)
O11_3 O 0.68912(13) 0.93293(13) 0.7884(2)
O12_3 O 0.73358(14) 0.87554(13) 0.6285(2)
C49_5 C 0.69594(19) 0.91428(19) 0.6107(3)
C50_5 C 0.66887(19) 0.94613(19) 0.7032(3)
Co4_3 Co 0.75304(3) 0.86607(2) 0.78264(4)
O2_6 O 0.04699(13) 0.94051(12) 0.9952(2)
O3_6 O 0.12995(13) 0.98294(13) 0.8141(2)
O4_6 O 0.17786(13) 0.92961(14) 0.9741(2)
C45_6 C 0.19594(19) 0.91428(19) 0.8893(3)
C47_6 C 0.16887(19) 0.94613(19) 0.7968(3)
O7_6 O 0.95301(13) 0.05949(12) 0.0048(2)
Co2_4 Co 0.88393(2) 0.00304(3) 0.03264(4)
O9_6 O 0.87005(13) 0.01706(13) 0.1859(2)
O10_6 O 0.82214(13) 0.07039(14) 0.0259(2)
O11_4 O 0.81088(13) 0.06707(13) 0.2884(2)
O12_4 O 0.76642(14) 0.12446(13) 0.1285(2)
C49_6 C 0.80406(19) 0.08572(19) 0.1107(3)
C50_6 C 0.83113(19) 0.05387(19) 0.2032(3)
Co4_4 Co 0.74696(3) 0.13393(2) 0.28264(4)
O16_4 O 0.87446(13) 0.98358(14) 0.8785(2)
O1_6 O 0.69522(13) 0.79640(14) 0.7942(2)
O2_7 O 0.69051(12) 0.70301(13) 0.7452(2)
O3_7 O 0.73294(13) 0.62005(13) 0.5641(2)
O4_7 O 0.67961(14) 0.57214(13) 0.7241(2)
C45_7 C 0.66428(19) 0.55406(19) 0.6393(3)
C46_6 C 0.71707(18) 0.7498(2) 0.7617(3)
C47_7 C 0.69613(19) 0.58113(19) 0.5468(3)
O7_7 O 0.80949(12) 0.79699(13) 0.7548(2)
C48_6 C 0.78293(18) 0.7502(2) 0.7383(3)
O8_6 O 0.80478(13) 0.70360(14) 0.7058(2)
O9_7 O 0.76706(13) 0.87995(13) 0.9359(2)
O10_7 O 0.82039(14) 0.92786(13) 0.7759(2)
C49_7 C 0.83572(19) 0.94594(19) 0.8607(3)
C50_7 C 0.80387(19) 0.91887(19) 0.9532(3)
O1_7 O 0.80478(13) 0.20360(14) 0.2942(2)
O2_8 O 0.80949(12) 0.29699(13) 0.2452(2)
O3_8 O 0.76706(13) 0.37995(13) 0.0641(2)
O4_8 O 0.82039(14) 0.42786(13) 0.2241(2)
C45_8 C 0.83572(19) 0.44594(19) 0.1393(3)
C46_7 C 0.78293(18) 0.2502(2) 0.2617(3)
C47_8 C 0.80387(19) 0.41887(19) 0.0468(3)
O7_8 O 0.69051(12) 0.20301(13) 0.2548(2)
C48_7 C 0.71707(18) 0.2498(2) 0.2383(3)
O8_7 O 0.69522(13) 0.29640(14) 0.2058(2)
O9_8 O 0.73294(13) 0.12005(13) 0.4359(2)
O10_8 O 0.67961(14) 0.07214(13) 0.2759(2)
C49_8 C 0.66428(19) 0.05406(19) 0.3607(3)
C50_8 C 0.69613(19) 0.08113(19) 0.4532(3)
O5_4 O 0.18293(13) 0.06088(13) 0.9616(2)
O8_8 O 0.04640(14) 0.05478(13) 0.9558(2)
C46_8 C 0.0002(2) 0.96707(18) 0.0117(3)
C48_8 C 0.9998(2) 0.03293(18) 0.9883(3)
O1_8 O 0.95360(14) 0.94522(13) 0.0442(2)
O14_4 O 0.81707(13) 0.93912(13) 0.0384(2)
loop_
_geom_bond_atom_site_label_1
_geom_bond_atom_site_label_2
_geom_bond_site_symmetry_1
_geom_bond_site_symmetry_2
Zn2 N3 1_555 1_555
N3 C5 1_555 1_555
N4 C5 1_555 1_555
H2 C2 1_555 1_555
C3 N2 1_555 1_555
H3 C3 1_555 1_555
C4 N2 1_555 1_555
H4 C4 1_555 1_555
H5 C4 1_555 1_555
C5 H6 1_555 1_555
C6 N3 1_555 1_555
C7 N4 1_555 1_555
H8 C7 1_555 1_555
C8 N4 1_555 1_555
H9 C8 1_555 1_555
H10 C8 1_555 1_555
C9 C4 1_555 1_555
C10 C8 1_555 1_555
C11 C9 1_555 1_555
H11 C11 1_555 1_555
N5 C12 1_555 1_555
N6 C12 1_555 1_555
N7 C16 1_555 1_555
N8 C16 1_555 1_555
C12 H12 1_555 1_555
C13 N5 1_555 1_555
H13 C13 1_555 1_555
C14 N6 1_555 1_555
H14 C14 1_555 1_555
C15 N6 1_555 1_555
H15 C15 1_555 1_555
H16 C15 1_555 1_555
C16 H17 1_555 1_555
C17 N7 1_555 1_555
H18 C17 1_555 1_555
C18 N8 1_555 1_555
H19 C18 1_555 1_555
C19 N8 1_555 1_555
H20 C19 1_555 1_555
H21 C19 1_555 1_555
C20 C15 1_555 1_555
C21 C11 1_555 1_555
C22 C10 1_555 1_555
H22 C22 1_555 1_555
Zn4 N5 1_555 1_555
Zn6 N7 1_555 1_555
N19 Zn2 1_555 1_555
C2 C3 1_555 1_555
C6 C7 1_555 1_555
C9 C10 1_555 1_555
C13 C14 1_555 1_555
C17 C18 1_555 1_555
C19 C21 1_555 1_555
C20 C21 1_555 1_555
C20 C22 1_555 1_555
Zn1 N1 1_555 1_555
N1 C1 1_555 1_555
C1 H1 1_555 1_555
N18 Zn1 1_555 1_555
N11 Zn2_2 1_555 1_555
N12 C27 1_555 1_555
H24 C24 1_555 1_555
C25 N10 1_555 1_555
H25 C25 1_555 1_555
C26 N10 1_555 1_555
H26 C26 1_555 1_555
H27 C26 1_555 1_555
C27 N11 1_555 1_555
H28 C27 1_555 1_555
C28 N11 1_555 1_555
C29 N12 1_555 1_555
H30 C29 1_555 1_555
C30 N12 1_555 1_555
H31 C30 1_555 1_555
H32 C30 1_555 1_555
C31 C26 1_555 1_555
C32 C30 1_555 1_555
C33 C31 1_555 1_555
H33 C33 1_555 1_555
N13 C34 1_555 1_555
N14 C34 1_555 1_555
N15 C38 1_555 1_555
N16 C38 1_555 1_555
C34 H34 1_555 1_555
C35 N13 1_555 1_555
H35 C35 1_555 1_555
C36 N14 1_555 1_555
H36 C36 1_555 1_555
C37 N14 1_555 1_555
H37 C37 1_555 1_555
H38 C37 1_555 1_555
C38 H39 1_555 1_555
C39 N15 1_555 1_555
H40 C39 1_555 1_555
C40 N16 1_555 1_555
H41 C40 1_555 1_555
C41 N16 1_555 1_555
H42 C41 1_555 1_555
H43 C41 1_555 1_555
C42 C37 1_555 1_555
C43 C33 1_555 1_555
C44 C32 1_555 1_555
H44 C44 1_555 1_555
Zn4 N13 1_555 1_555
Zn6 N15 1_555 1_555
N20 Zn2_2 1_555 1_555
C24 C25 1_555 1_555
C28 C29 1_555 1_555
C31 C32 1_555 1_555
C35 C36 1_555 1_555
C39 C40 1_555 1_555
C41 C43 1_555 1_555
C42 C43 1_555 1_555
C42 C44 1_555 1_555
N9 Zn1_2 1_555 1_555
C23 N9 1_555 1_555
H23 C23 1_555 1_555
N17 Zn1_2 1_555 1_555
N5_2 C12_2 1_555 1_555
C12_2 H12_2 1_555 1_555
N13_2 C34_2 1_555 1_555
C34_2 H34_2 1_555 1_555
Zn3_2 N13_2 1_555 1_555
Zn3 N5_2 1_555 1_555
Zn1_3 N1_2 1_555 1_555
Zn2_3 N3_2 1_555 1_555
N1_2 C1_2 1_555 1_555
N2_2 C1_2 1_555 1_555
N3_2 C5_2 1_555 1_555
N4_2 C5_2 1_555 1_555
C1_2 H1_2 1_555 1_555
C2_2 N1_2 1_555 1_555
H2_2 C2_2 1_555 1_555
C3_2 N2_2 1_555 1_555
H3_2 C3_2 1_555 1_555
C4_2 N2_2 1_555 1_555
H4_2 C4_2 1_555 1_555
H5_3 C4_2 1_555 1_555
C5_2 H6_2 1_555 1_555
C6_2 N3_2 1_555 1_555
H7_2 C6_2 1_555 1_555
C7_2 N4_2 1_555 1_555
H8_2 C7_2 1_555 1_555
C8_2 N4_2 1_555 1_555
H9_2 C8_2 1_555 1_555
H10_2 C8_2 1_555 1_555
C9_2 C4_2 1_555 1_555
C10_2 C8_2 1_555 1_555
C11_2 C9_2 1_555 1_555
H11_2 C11_2 1_555 1_555
N7_2 C16_2 1_555 1_555
N8_2 C16_2 1_555 1_555
H13_2 C13_2 1_555 1_555
C14_2 N6_2 1_555 1_555
H14_2 C14_2 1_555 1_555
C15_2 N6_2 1_555 1_555
H15_2 C15_2 1_555 1_555
H16_3 C15_2 1_555 1_555
C16_2 H17_2 1_555 1_555
C17_2 N7_2 1_555 1_555
C18_2 N8_2 1_555 1_555
H19_2 C18_2 1_555 1_555
C19_2 N8_2 1_555 1_555
H20_2 C19_2 1_555 1_555
H21_2 C19_2 1_555 1_555
C20_2 C15_2 1_555 1_555
C21_2 C11_2 1_555 1_555
C22_2 C10_2 1_555 1_555
H22_2 C22_2 1_555 1_555
N9_2 Zn1_3 1_555 1_555
N10_2 C23_2 1_555 1_555
N11_2 Zn2_3 1_555 1_555
N12_2 C27_2 1_555 1_555
C23_2 N9_2 1_555 1_555
H23_2 C23_2 1_555 1_555
C24_2 N9_2 1_555 1_555
H24_2 C24_2 1_555 1_555
C25_2 N10_2 1_555 1_555
H25_2 C25_2 1_555 1_555
C26_2 N10_2 1_555 1_555
H26_2 C26_2 1_555 1_555
H27_3 C26_2 1_555 1_555
C27_2 N11_2 1_555 1_555
H28_2 C27_2 1_555 1_555
C28_2 N11_2 1_555 1_555
H29_2 C28_2 1_555 1_555
C29_2 N12_2 1_555 1_555
H30_2 C29_2 1_555 1_555
C30_2 N12_2 1_555 1_555
H31_2 C30_2 1_555 1_555
H32_2 C30_2 1_555 1_555
C31_2 C26_2 1_555 1_555
C32_2 C30_2 1_555 1_555
C33_2 C31_2 1_555 1_555
H33_2 C33_2 1_555 1_555
N15_2 C38_2 1_555 1_555
N16_2 C38_2 1_555 1_555
H35_2 C35_2 1_555 1_555
C36_2 N14_2 1_555 1_555
H36_2 C36_2 1_555 1_555
C37_2 N14_2 1_555 1_555
H37_2 C37_2 1_555 1_555
H38_3 C37_2 1_555 1_555
C38_2 H39_2 1_555 1_555
C39_2 N15_2 1_555 1_555
C40_2 N16_2 1_555 1_555
H41_2 C40_2 1_555 1_555
C41_2 N16_2 1_555 1_555
H42_2 C41_2 1_555 1_555
H43_2 C41_2 1_555 1_555
C42_2 C37_2 1_555 1_555
C43_2 C33_2 1_555 1_555
C44_2 C32_2 1_555 1_555
H44_2 C44_2 1_555 1_555
Zn5_2 N15_2 1_555 1_555
Zn5 N7_2 1_555 1_555
N17_2 Zn1_3 1_555 1_555
N18_2 Zn1_3 1_555 1_555
N19_2 Zn2_3 1_555 1_555
N20_2 Zn2_3 1_555 1_555
C2_2 C3_2 1_555 1_555
C6_2 C7_2 1_555 1_555
C9_2 C10_2 1_555 1_555
C13_2 C14_2 1_555 1_555
C17_2 C18_2 1_555 1_555
C19_2 C21_2 1_555 1_555
C20_2 C21_2 1_555 1_555
C20_2 C22_2 1_555 1_555
C24_2 C25_2 1_555 1_555
C28_2 C29_2 1_555 1_555
C31_2 C32_2 1_555 1_555
C35_2 C36_2 1_555 1_555
C39_2 C40_2 1_555 1_555
C41_2 C43_2 1_555 1_555
C42_2 C43_2 1_555 1_555
C42_2 C44_2 1_555 1_555
Zn3 N1_3 1_555 1_555
C2_3 N1_3 1_555 1_555
H2_3 C2_3 1_555 1_555
C3_3 N2_3 1_555 1_555
H3_3 C3_3 1_555 1_555
H11_3 C11_3 1_555 1_555
N19 C16_3 1_555 1_555
N8_3 C16_3 1_555 1_555
C12_3 H12_3 1_555 1_555
H15_3 C15_3 1_555 1_555
C16_3 H17_3 1_555 1_555
C17_3 N19 1_555 1_555
H18_3 C17_3 1_555 1_555
C18_3 N8_3 1_555 1_555
H19_3 C18_3 1_555 1_555
C19_3 N8_3 1_555 1_555
H20_3 C19_3 1_555 1_555
H21_3 C19_3 1_555 1_555
C20_3 C15_3 1_555 1_555
C21_3 C11_3 1_555 1_555
N11_3 Zn5 1_555 1_555
N12_3 C27_3 1_555 1_555
H23_3 C23_3 1_555 1_555
H26_3 C26_3 1_555 1_555
C27_3 N11_3 1_555 1_555
H28_3 C27_3 1_555 1_555
C28_3 N11_3 1_555 1_555
H29_3 C28_3 1_555 1_555
C29_3 N12_3 1_555 1_555
H30_3 C29_3 1_555 1_555
C30_3 N12_3 1_555 1_555
H31_3 C30_3 1_555 1_555
H32_3 C30_3 1_555 1_555
C31_3 C26_3 1_555 1_555
C32_3 C30_3 1_555 1_555
C44_3 C32_3 1_555 1_555
H44_3 C44_3 1_555 1_555
C2_3 C3_3 1_555 1_555
C17_3 C18_3 1_555 1_555
C19_3 C21_3 1_555 1_555
C20_3 C21_3 1_555 1_555
C28_3 C29_3 1_555 1_555
C31_3 C32_3 1_555 1_555
C35_3 N18 1_555 1_555
H35_3 C35_3 1_555 1_555
C36_3 N14_3 1_555 1_555
H36_3 C36_3 1_555 1_555
C35_3 C36_3 1_555 1_555
Zn5_2 N3_3 1_555 1_555
N3_3 C5_3 1_555 1_555
N4_3 C5_3 1_555 1_555
C1_3 H1_3 1_555 1_555
H4_3 C4_3 1_555 1_555
C5_3 H6_3 1_555 1_555
C6_3 N3_3 1_555 1_555
H7_3 C6_3 1_555 1_555
C7_3 N4_3 1_555 1_555
H8_3 C7_3 1_555 1_555
C8_3 N4_3 1_555 1_555
H9_3 C8_3 1_555 1_555
H10_3 C8_3 1_555 1_555
C9_3 C4_3 1_555 1_555
C10_3 C8_3 1_555 1_555
C13_3 N17 1_555 1_555
H13_3 C13_3 1_555 1_555
C14_3 N6_3 1_555 1_555
H14_3 C14_3 1_555 1_555
C22_3 C10_3 1_555 1_555
H22_3 C22_3 1_555 1_555
N9_3 Zn3_2 1_555 1_555
C24_3 N9_3 1_555 1_555
H24_3 C24_3 1_555 1_555
C25_3 N10_3 1_555 1_555
H25_3 C25_3 1_555 1_555
C6_3 C7_3 1_555 1_555
C9_3 C10_3 1_555 1_555
C13_3 C14_3 1_555 1_555
C24_3 C25_3 1_555 1_555
H33_3 C33_3 1_555 1_555
N20 C38_3 1_555 1_555
N16_3 C38_3 1_555 1_555
C34_3 H34_3 1_555 1_555
H37_3 C37_3 1_555 1_555
C38_3 H39_3 1_555 1_555
C39_3 N20 1_555 1_555
H40_3 C39_3 1_555 1_555
C40_3 N16_3 1_555 1_555
H41_3 C40_3 1_555 1_555
C41_3 N16_3 1_555 1_555
H42_3 C41_3 1_555 1_555
H43_3 C41_3 1_555 1_555
C42_3 C37_3 1_555 1_555
C43_3 C33_3 1_555 1_555
C39_3 C40_3 1_555 1_555
C41_3 C43_3 1_555 1_555
C42_3 C43_3 1_555 1_555
N18_2 C34_4 1_555 1_555
N14_4 C34_4 1_555 1_555
C34_4 H34_4 1_555 1_555
C35_4 N18_2 1_555 1_555
H35_4 C35_4 1_555 1_555
C36_4 N14_4 1_555 1_555
H36_4 C36_4 1_555 1_555
C37_4 N14_4 1_555 1_555
H37_4 C37_4 1_555 1_555
H38_5 C37_4 1_555 1_555
H40_4 C39_4 1_555 1_555
C40_4 N16_4 1_555 1_555
H41_4 C40_4 1_555 1_555
C41_4 N16_4 1_555 1_555
H42_4 C41_4 1_555 1_555
H43_4 C41_4 1_555 1_555
C42_4 C37_4 1_555 1_555
C35_4 C36_4 1_555 1_555
C39_4 C40_4 1_555 1_555
C41_4 C43_4 1_555 1_555
C42_4 C43_4 1_555 1_555
H33_4 C33_4 1_555 1_555
N20_2 C38_4 1_555 1_555
C38_4 H39_4 1_555 1_555
Zn6 N3_4 1_555 1_555
N3_4 C5_4 1_555 1_555
C5_4 H6_4 1_555 1_555
N17_2 C12_4 1_555 1_555
N6_4 C12_4 1_555 1_555
C12_4 H12_4 1_555 1_555
C13_4 N17_2 1_555 1_555
H13_4 C13_4 1_555 1_555
C14_4 N6_4 1_555 1_555
H14_4 C14_4 1_555 1_555
C15_4 N6_4 1_555 1_555
H15_4 C15_4 1_555 1_555
H16_5 C15_4 1_555 1_555
H18_4 C17_4 1_555 1_555
C18_4 N8_4 1_555 1_555
H19_4 C18_4 1_555 1_555
C19_4 N8_4 1_555 1_555
H20_4 C19_4 1_555 1_555
H21_4 C19_4 1_555 1_555
C20_4 C15_4 1_555 1_555
H22_4 C22_4 1_555 1_555
N11_4 Zn6 1_555 1_555
C27_4 N11_4 1_555 1_555
H28_4 C27_4 1_555 1_555
H44_4 C44_4 1_555 1_555
C13_4 C14_4 1_555 1_555
C17_4 C18_4 1_555 1_555
C19_4 C21_4 1_555 1_555
C20_4 C21_4 1_555 1_555
C20_4 C22_4 1_555 1_555
Zn4 N1_4 1_555 1_555
N1_4 C1_4 1_555 1_555
N2_4 C1_4 1_555 1_555
C1_4 H1_4 1_555 1_555
C2_4 N1_4 1_555 1_555
H2_4 C2_4 1_555 1_555
C3_4 N2_4 1_555 1_555
H3_4 C3_4 1_555 1_555
C4_4 N2_4 1_555 1_555
H4_4 C4_4 1_555 1_555
H5_5 C4_4 1_555 1_555
H7_4 C6_4 1_555 1_555
C7_4 N4_4 1_555 1_555
H8_4 C7_4 1_555 1_555
C8_4 N4_4 1_555 1_555
H9_4 C8_4 1_555 1_555
H10_4 C8_4 1_555 1_555
C9_4 C4_4 1_555 1_555
C10_4 C8_4 1_555 1_555
C11_4 C9_4 1_555 1_555
H11_4 C11_4 1_555 1_555
N19_2 C16_4 1_555 1_555
C16_4 H17_4 1_555 1_555
N9_4 Zn4 1_555 1_555
N10_4 C23_4 1_555 1_555
C23_4 N9_4 1_555 1_555
H23_4 C23_4 1_555 1_555
C24_4 N9_4 1_555 1_555
H24_4 C24_4 1_555 1_555
C25_4 N10_4 1_555 1_555
H25_4 C25_4 1_555 1_555
C26_4 N10_4 1_555 1_555
H26_4 C26_4 1_555 1_555
H27_5 C26_4 1_555 1_555
H29_4 C28_4 1_555 1_555
C29_4 N12_4 1_555 1_555
H30_4 C29_4 1_555 1_555
C30_4 N12_4 1_555 1_555
H31_4 C30_4 1_555 1_555
H32_4 C30_4 1_555 1_555
C31_4 C26_4 1_555 1_555
C32_4 C30_4 1_555 1_555
C2_4 C3_4 1_555 1_555
C6_4 C7_4 1_555 1_555
C9_4 C10_4 1_555 1_555
C24_4 C25_4 1_555 1_555
C28_4 C29_4 1_555 1_555
C31_4 C32_4 1_555 1_555
Co2 O1 1_555 1_555
O9 Co2 1_555 1_555
O10 Co2 1_555 1_555
O11 C50 1_555 1_555
O12 C49 1_555 1_555
C49 O10 1_555 1_555
C50 O9 1_555 1_555
Co4 O11 1_555 1_555
O14 Co2 1_555 1_555
O7 Co2 1_555 1_555
O12 Co4 1_555 1_555
C49 C50 1_555 1_555
Co1 O2 1_555 1_555
O3 Co1 1_555 1_555
O4 Co1 1_555 1_555
O5 C47 1_555 1_555
O6 C45 1_555 1_555
C45 O4 1_555 1_555
C47 O3 1_555 1_555
O8 Co1 1_555 1_555
Co3 O5 1_555 1_555
O13 Co1 1_555 1_555
O6 Co3 1_555 1_555
C45 C47 1_555 1_555
Co1_2 O2_2 1_555 1_555
O1_2 C46_2 1_555 1_555
O2_2 C46_2 1_555 1_555
O3_2 Co1_2 1_555 1_555
O4_2 Co1_2 1_555 1_555
O5_2 C47_2 1_555 1_555
O6_2 C45_2 1_555 1_555
C45_2 O4_2 1_555 1_555
C46_2 C48_2 1_555 1_555
C47_2 O3_2 1_555 1_555
O7_2 C48_2 1_555 1_555
C48_2 O8_2 1_555 1_555
O8_2 Co1_2 1_555 1_555
Co2_2 O1_2 1_555 1_555
O9_2 Co2_2 1_555 1_555
O10_2 Co2_2 1_555 1_555
O11_2 C50_2 1_555 1_555
O12_2 C49_2 1_555 1_555
C49_2 O10_2 1_555 1_555
C50_2 O9_2 1_555 1_555
Co3_2 O5_2 1_555 1_555
Co4_2 O11_2 1_555 1_555
O13_2 Co1_2 1_555 1_555
O14_2 Co2_2 1_555 1_555
O15_2 Co1_2 1_555 1_555
O16_2 Co2_2 1_555 1_555
O6_2 Co3_2 1_555 1_555
C45_2 C47_2 1_555 1_555
O7_2 Co2_2 1_555 1_555
O12_2 Co4_2 1_555 1_555
C49_2 C50_2 1_555 1_555
Co1_3 O2_3 1_555 1_555
O1_3 C46_3 1_555 1_555
O2_3 C46_3 1_555 1_555
O3_3 Co1_3 1_555 1_555
O4_3 Co1_3 1_555 1_555
O6_3 C45_3 1_555 1_555
C45_3 O4_3 1_555 1_555
C46_3 C48_3 1_555 1_555
C47_3 O3_3 1_555 1_555
O7_3 C48_3 1_555 1_555
C48_3 O8_3 1_555 1_555
O8_3 Co1_3 1_555 1_555
Co4 O1_3 1_555 1_555
O9_3 Co4 1_555 1_555
O10_3 Co4 1_555 1_555
O14_2 C50_3 1_555 1_555
O16_2 C49_3 1_555 1_555
C49_3 O10_3 1_555 1_555
C50_3 O9_3 1_555 1_555
O13_3 Co1_3 1_555 1_555
O15_3 Co1_3 1_555 1_555
C45_3 C47_3 1_555 1_555
O7_3 Co4 1_555 1_555
C49_3 C50_3 1_555 1_555
Co1_4 O2_4 1_555 1_555
O1_4 C46_4 1_555 1_555
O2_4 C46_4 1_555 1_555
O3_4 Co1_4 1_555 1_555
O4_4 Co1_4 1_555 1_555
O5_3 C47_4 1_555 1_555
O6_4 C45_4 1_555 1_555
C45_4 O4_4 1_555 1_555
C46_4 C48_4 1_555 1_555
C47_4 O3_4 1_555 1_555
O7_4 C48_4 1_555 1_555
C48_4 O8_4 1_555 1_555
O8_4 Co1_4 1_555 1_555
Co4_2 O1_4 1_555 1_555
O9_4 Co4_2 1_555 1_555
O10_4 Co4_2 1_555 1_555
O16 C49_4 1_555 1_555
C49_4 O10_4 1_555 1_555
C50_4 O9_4 1_555 1_555
O13_4 Co1_4 1_555 1_555
O15_4 Co1_4 1_555 1_555
C45_4 C47_4 1_555 1_555
O7_4 Co4_2 1_555 1_555
C49_4 C50_4 1_555 1_555
Co3_4 O2_5 1_555 1_555
O1_5 C46_5 1_555 1_555
O2_5 C46_5 1_555 1_555
O3_5 Co3_4 1_555 1_555
O4_5 Co3_4 1_555 1_555
O13_3 C47_5 1_555 1_555
O15_3 C45_5 1_555 1_555
C45_5 O4_5 1_555 1_555
C47_5 O3_5 1_555 1_555
C45_5 C47_5 1_555 1_555
O7_5 C48_5 1_555 1_555
C48_5 O8_5 1_555 1_555
O9_5 Co2_3 1_555 1_555
O10_5 Co2_3 1_555 1_555
O11_3 C50_5 1_555 1_555
O12_3 C49_5 1_555 1_555
C49_5 O10_5 1_555 1_555
C50_5 O9_5 1_555 1_555
Co4_3 O11_3 1_555 1_555
O7_5 Co2_3 1_555 1_555
O12_3 Co4_3 1_555 1_555
C49_5 C50_5 1_555 1_555
Co3_3 O2_6 1_555 1_555
O3_6 Co3_3 1_555 1_555
O4_6 Co3_3 1_555 1_555
O13_4 C47_6 1_555 1_555
O15_4 C45_6 1_555 1_555
C45_6 O4_6 1_555 1_555
C47_6 O3_6 1_555 1_555
C45_6 C47_6 1_555 1_555
O9_6 Co2_4 1_555 1_555
O10_6 Co2_4 1_555 1_555
O11_4 C50_6 1_555 1_555
O12_4 C49_6 1_555 1_555
C49_6 O10_6 1_555 1_555
C50_6 O9_6 1_555 1_555
Co4_4 O11_4 1_555 1_555
O7_6 Co2_4 1_555 1_555
O12_4 Co4_4 1_555 1_555
C49_6 C50_6 1_555 1_555
Co3 O2_7 1_555 1_555
O1_6 C46_6 1_555 1_555
O2_7 C46_6 1_555 1_555
O3_7 Co3 1_555 1_555
O4_7 Co3 1_555 1_555
O13_2 C47_7 1_555 1_555
O15_2 C45_7 1_555 1_555
C45_7 O4_7 1_555 1_555
C46_6 C48_6 1_555 1_555
C47_7 O3_7 1_555 1_555
O7_7 C48_6 1_555 1_555
C48_6 O8_6 1_555 1_555
O8_6 Co3 1_555 1_555
Co4_3 O1_6 1_555 1_555
O9_7 Co4_3 1_555 1_555
O10_7 Co4_3 1_555 1_555
O16_4 C49_7 1_555 1_555
C49_7 O10_7 1_555 1_555
C50_7 O9_7 1_555 1_555
C45_7 C47_7 1_555 1_555
O7_7 Co4_3 1_555 1_555
C49_7 C50_7 1_555 1_555
Co3_2 O2_8 1_555 1_555
O1_7 C46_7 1_555 1_555
O2_8 C46_7 1_555 1_555
O3_8 Co3_2 1_555 1_555
O4_8 Co3_2 1_555 1_555
O15 C45_8 1_555 1_555
C45_8 O4_8 1_555 1_555
C46_7 C48_7 1_555 1_555
C47_8 O3_8 1_555 1_555
O7_8 C48_7 1_555 1_555
C48_7 O8_7 1_555 1_555
O8_7 Co3_2 1_555 1_555
Co4_4 O1_7 1_555 1_555
O9_8 Co4_4 1_555 1_555
O10_8 Co4_4 1_555 1_555
O14_3 C50_8 1_555 1_555
O16_3 C49_8 1_555 1_555
C49_8 O10_8 1_555 1_555
C50_8 O9_8 1_555 1_555
C45_8 C47_8 1_555 1_555
O7_8 Co4_4 1_555 1_555
C49_8 C50_8 1_555 1_555

#END
