
###############################################################################
#
# This file contains modified crystal structure data generated from the
# MOF subset of the Cambridge Structural Database (CSD) v543 
# hosted by the Cambridge Crystallographic Data Centre (CCDC).
#
# This work is licensed under the Creative Commons
# Attribution-NonCommercial-ShareAlike 4.0 International License.
# To view a copy of this license, visit
# http://creativecommons.org/licenses/by-nc-sa/4.0/
# or send a letter to
# Creative Commons, PO Box 1866, Mountain View, CA 94042, USA.
#
# CIF created using the CSD Python API on 29 September 2022
# The structure has been converted into the P1 space group
# The structure has a 3D framework
# The original CSD entry RIXXAA is in the tetragonal crystal system
# The framework has been calculated to contain at least 10.0% void space
# The void calculation uses a probe of radius 1.32A, grid spacing 0.4
# The framework is charged, counterions have been retained in the structure
#
###############################################################################

data_RIXXAA
_chemical_formula_moiety         '(C224 H176 N64 O96 Zn28 8+)n'
_symmetry_cell_setting           triclinic
_symmetry_space_group_name_H-M   'P 1'
_symmetry_Int_Tables_number      1
_space_group_name_Hall           'P 1'
loop_
_symmetry_equiv_pos_site_id
_symmetry_equiv_pos_as_xyz
1 x,y,z
_cell_length_a                   22.9289(9)
_cell_length_b                   22.9289(9)
_cell_length_c                   13.2300(5)
_cell_angle_alpha                90
_cell_angle_beta                 90
_cell_angle_gamma                90
_cell_volume                     6955.47
loop_
_atom_site_label
_atom_site_type_symbol
_atom_site_fract_x
_atom_site_fract_y
_atom_site_fract_z
O2 O 0.23267(11) 0.38015(11) 0.06314(19)
O3 O 0.17869(12) 0.42755(12) 0.22398(19)
O4 O 0.12637(12) 0.48381(12) 0.1220(2)
C1 C 0.19586(15) 0.41913(15) 0.0462(3)
C2 C 0.16390(15) 0.44611(16) 0.1388(3)
C4 C 0.00019(16) 0.53307(15) 0.0129(3)
Zn3 Zn 0.246611(19) 0.365936(18) 0.21693(3)
Zn1 Zn 0.115936(18) 0.503389(19) 0.96693(3)
O1 O 0.18239(11) 0.43870(12) 0.96148(18)
O6 O 0.04624(11) 0.44560(11) 0.9539(2)
O8 O 0.04666(11) 0.55980(11) 0.9968(2)
O13 O 0.13015(11) 0.51733(11) 0.81314(19)
O15 O 0.17755(12) 0.57131(12) 0.97398(19)
O5 O 0.95334(11) 0.44020(11) 0.0032(2)
O7 O 0.95376(11) 0.55440(11) 0.0461(2)
Zn2 Zn 0.884064(18) 0.496611(19) 0.03307(3)
O9 O 0.81761(11) 0.56130(12) 0.03852(18)
O14 O 0.86985(11) 0.48267(11) 0.18686(19)
O16 O 0.82245(12) 0.42869(12) 0.02602(19)
C3 C 0.99981(16) 0.46693(15) 0.9871(3)
O10 O 0.76733(11) 0.61985(11) 0.93686(19)
O11 O 0.82131(12) 0.57245(12) 0.77602(19)
O12 O 0.87363(12) 0.51619(12) 0.8780(2)
C5 C 0.80414(15) 0.58087(15) 0.9538(3)
C6 C 0.83610(15) 0.55389(16) 0.8612(3)
Zn4 Zn 0.753389(19) 0.634064(18) 0.78307(3)
Zn1_2 Zn 0.384064(18) 0.496611(19) 0.46693(3)
O1_2 O 0.31761(11) 0.56130(12) 0.46148(18)
O2_2 O 0.26733(11) 0.61985(11) 0.56314(19)
O3_2 O 0.32131(12) 0.57245(12) 0.72398(19)
O4_2 O 0.37363(12) 0.51619(12) 0.6220(2)
O5_2 O 0.54666(11) 0.55980(11) 0.5032(2)
O6_2 O 0.45376(11) 0.55440(11) 0.4539(2)
C1_2 C 0.30414(15) 0.58087(15) 0.5462(3)
C2_2 C 0.33610(15) 0.55389(16) 0.6388(3)
C3_2 C 0.50019(16) 0.53307(15) 0.4871(3)
O7_2 O 0.54624(11) 0.44560(11) 0.5461(2)
C4_2 C 0.49981(16) 0.46693(15) 0.5129(3)
O8_2 O 0.45334(11) 0.44020(11) 0.4968(2)
Zn2_2 Zn 0.615936(18) 0.503389(19) 0.53307(3)
O9_2 O 0.68239(11) 0.43870(12) 0.53852(18)
O10_2 O 0.73267(11) 0.38015(11) 0.43686(19)
O11_2 O 0.67869(12) 0.42755(12) 0.27602(19)
O12_2 O 0.62637(12) 0.48381(12) 0.3780(2)
C5_2 C 0.69586(15) 0.41913(15) 0.4538(3)
C6_2 C 0.66390(15) 0.44611(16) 0.3612(3)
Zn3_2 Zn 0.253389(19) 0.634064(18) 0.71693(3)
Zn4_2 Zn 0.746611(19) 0.365936(18) 0.28307(3)
O13_2 O 0.36985(11) 0.48267(11) 0.31314(19)
O14_2 O 0.63015(11) 0.51733(11) 0.68686(19)
O15_2 O 0.32245(12) 0.42869(12) 0.47398(19)
O16_2 O 0.67755(12) 0.57131(12) 0.52602(19)
O1_3 O 0.31130(12) 0.43239(11) 0.21148(18)
O4_3 O 0.26619(12) 0.37637(12) 0.3720(2)
O5_3 O 0.30980(11) 0.20334(11) 0.2532(2)
O6_3 O 0.30440(11) 0.29624(11) 0.2039(2)
C1_3 C 0.33087(15) 0.44586(15) 0.2962(3)
C2_3 C 0.30389(16) 0.41390(15) 0.3888(3)
C3_3 C 0.28307(15) 0.24981(16) 0.2371(3)
O7_3 O 0.19560(11) 0.20376(11) 0.2961(2)
C4_3 C 0.21693(15) 0.25019(16) 0.2629(3)
O8_3 O 0.19020(11) 0.29666(11) 0.2468(2)
Zn2_3 Zn 0.253389(19) 0.134064(18) 0.28307(3)
O9_3 O 0.18870(12) 0.06761(11) 0.28852(18)
O10_3 O 0.13015(11) 0.01733(11) 0.18686(19)
O11_3 O 0.17755(12) 0.07131(12) 0.02602(19)
O12_3 O 0.23381(12) 0.12363(12) 0.1280(2)
C5_3 C 0.16913(15) 0.05414(15) 0.2038(3)
C6_3 C 0.19611(16) 0.08610(15) 0.1112(3)
Zn4_3 Zn 0.115936(18) 0.003389(19) 0.03307(3)
O14_3 O 0.26733(11) 0.11985(11) 0.43686(19)
O16_3 O 0.32131(12) 0.07245(12) 0.27602(19)
O1_4 O 0.18870(12) 0.56761(11) 0.71148(18)
O4_4 O 0.23381(12) 0.62363(12) 0.8720(2)
O5_4 O 0.19020(11) 0.79666(11) 0.7532(2)
O6_4 O 0.19560(11) 0.70376(11) 0.7039(2)
C1_4 C 0.16913(15) 0.55414(15) 0.7962(3)
C2_4 C 0.19611(16) 0.58610(15) 0.8888(3)
C3_4 C 0.21693(15) 0.75019(16) 0.7371(3)
O7_4 O 0.30440(11) 0.79624(11) 0.7961(2)
C4_4 C 0.28307(15) 0.74981(16) 0.7629(3)
O8_4 O 0.30980(11) 0.70334(11) 0.7468(2)
Zn2_4 Zn 0.246611(19) 0.865936(18) 0.78307(3)
O9_4 O 0.31130(12) 0.93239(11) 0.78852(18)
O10_4 O 0.36985(11) 0.98267(11) 0.68686(19)
O11_4 O 0.32245(12) 0.92869(12) 0.52602(19)
O12_4 O 0.26619(12) 0.87637(12) 0.6280(2)
C5_4 C 0.33087(15) 0.94586(15) 0.7038(3)
C6_4 C 0.30389(16) 0.91390(15) 0.6112(3)
Zn4_4 Zn 0.384064(18) 0.996611(19) 0.53307(3)
O14_4 O 0.23267(11) 0.88015(11) 0.93686(19)
O16_4 O 0.17869(12) 0.92755(12) 0.77602(19)
Zn1_3 Zn 0.615936(18) 0.003389(19) 0.46693(3)
O7_5 O 0.45376(11) 0.05440(11) 0.5461(2)
C4_5 C 0.50019(16) 0.03307(15) 0.5129(3)
O8_5 O 0.54666(11) 0.05980(11) 0.4968(2)
O9_5 O 0.31761(11) 0.06130(12) 0.53852(18)
O12_5 O 0.37363(12) 0.01619(12) 0.3780(2)
C5_5 C 0.30414(15) 0.08087(15) 0.4538(3)
C6_5 C 0.33610(15) 0.05389(16) 0.3612(3)
O13_3 O 0.63015(11) 0.01733(11) 0.31314(19)
O15_3 O 0.67755(12) 0.07131(12) 0.47398(19)
O1_5 O 0.68239(11) 0.93870(12) 0.46148(18)
O2_3 O 0.73267(11) 0.88015(11) 0.56314(19)
O3_3 O 0.67869(12) 0.92755(12) 0.72398(19)
O4_5 O 0.62637(12) 0.98381(12) 0.6220(2)
O5_5 O 0.45334(11) 0.94020(11) 0.5032(2)
O6_5 O 0.54624(11) 0.94560(11) 0.4539(2)
C1_5 C 0.69586(15) 0.91913(15) 0.5462(3)
C2_5 C 0.66390(15) 0.94611(16) 0.6388(3)
C3_5 C 0.49981(16) 0.96693(15) 0.4871(3)
Zn3_3 Zn 0.746611(19) 0.865936(18) 0.71693(3)
O5_6 O 0.04666(11) 0.05980(11) 0.0032(2)
O12_6 O 0.12637(12) 0.98381(12) 0.8780(2)
C5_6 C 0.19586(15) 0.91913(15) 0.9538(3)
C6_6 C 0.16390(15) 0.94611(16) 0.8612(3)
O2_4 O 0.76733(11) 0.11985(11) 0.06314(19)
O3_4 O 0.82131(12) 0.07245(12) 0.22398(19)
O4_6 O 0.87363(12) 0.01619(12) 0.1220(2)
C1_6 C 0.80414(15) 0.08087(15) 0.0462(3)
C2_6 C 0.83610(15) 0.05389(16) 0.1388(3)
Zn3_4 Zn 0.753389(19) 0.134064(18) 0.21693(3)
Zn1_4 Zn 0.884064(18) 0.996611(19) 0.96693(3)
O8_6 O 0.95334(11) 0.94020(11) 0.9968(2)
O13_4 O 0.86985(11) 0.98267(11) 0.81314(19)
O15_4 O 0.82245(12) 0.92869(12) 0.97398(19)
O1_6 O 0.81130(12) 0.93239(11) 0.71148(18)
O4_7 O 0.76619(12) 0.87637(12) 0.8720(2)
O5_7 O 0.80980(11) 0.70334(11) 0.7532(2)
O6_6 O 0.80440(11) 0.79624(11) 0.7039(2)
C1_7 C 0.83087(15) 0.94586(15) 0.7962(3)
C2_7 C 0.80389(16) 0.91390(15) 0.8888(3)
C3_6 C 0.78307(15) 0.74981(16) 0.7371(3)
O7_6 O 0.69560(11) 0.70376(11) 0.7961(2)
C4_6 C 0.71693(15) 0.75019(16) 0.7629(3)
O8_7 O 0.69020(11) 0.79666(11) 0.7468(2)
O9_6 O 0.68870(12) 0.56761(11) 0.78852(18)
O12_7 O 0.73381(12) 0.62363(12) 0.6280(2)
C5_7 C 0.66913(15) 0.55414(15) 0.7038(3)
C6_7 C 0.69611(16) 0.58610(15) 0.6112(3)
O1_7 O 0.68870(12) 0.06761(11) 0.21148(18)
O4_8 O 0.73381(12) 0.12363(12) 0.3720(2)
O5_8 O 0.69020(11) 0.29666(11) 0.2532(2)
O6_7 O 0.69560(11) 0.20376(11) 0.2039(2)
C1_8 C 0.66913(15) 0.05414(15) 0.2962(3)
C2_8 C 0.69611(16) 0.08610(15) 0.3888(3)
C3_7 C 0.71693(15) 0.25019(16) 0.2371(3)
O7_7 O 0.80440(11) 0.29624(11) 0.2961(2)
C4_7 C 0.78307(15) 0.24981(16) 0.2629(3)
O8_8 O 0.80980(11) 0.20334(11) 0.2468(2)
O9_7 O 0.81130(12) 0.43239(11) 0.28852(18)
O12_8 O 0.76619(12) 0.37637(12) 0.1280(2)
C5_8 C 0.83087(15) 0.44586(15) 0.2038(3)
C6_8 C 0.80389(16) 0.41390(15) 0.1112(3)
C3_8 C 0.00019(16) 0.03307(15) 0.9871(3)
O7_8 O 0.04624(11) 0.94560(11) 0.0461(2)
O9_8 O 0.18239(11) 0.93870(12) 0.03852(18)
O1_8 O 0.81761(11) 0.06130(12) 0.96148(18)
O6_8 O 0.95376(11) 0.05440(11) 0.9539(2)
C4_8 C 0.99981(16) 0.96693(15) 0.0129(3)
Zn5 Zn -0.0000 0.2500 0.1250
N1 N 0.06935(14) 0.26212(13) 0.0400(2)
C7 C 0.11980(17) 0.23458(17) 0.0414(3)
H1 H 0.1282 0.2026 0.0821
H5 H 0.2426 0.2701 0.0006
N18 N 0.01212(13) 0.18065(14) 0.2100(2)
Zn6 Zn -0.0000 0.2500 0.6250
N2 N 0.15699(13) 0.25863(14) 0.9769(2)
N3 N 0.12206(14) 0.15759(14) 0.7811(2)
N4 N 0.04432(15) 0.19427(15) 0.7097(3)
C8 C 0.07561(19) 0.30638(18) 0.9712(3)
H2 H 0.0469 0.3332 0.9539
C9 C 0.1293(2) 0.30491(18) 0.9333(3)
H3 H 0.1450 0.3305 0.8861
C10 C 0.21825(17) 0.2430(2) 0.9632(3)
H4 H 0.2250 0.2042 0.9896
C11 C 0.23470(15) 0.24481(17) 0.8522(3)
C12 C 0.21917(16) 0.20115(17) 0.7839(3)
C13 C 0.23519(16) 0.20714(18) 0.6832(3)
H6 H 0.2253 0.1777 0.6379
C14 C 0.18277(17) 0.14928(19) 0.8130(3)
H7 H 0.1985 0.1145 0.7814
H8 H 0.1842 0.1439 0.8857
C15 C 0.09940(18) 0.20231(18) 0.7303(3)
H9 H 0.1203 0.2353 0.7117
C16 C 0.0780(2) 0.1188(2) 0.7942(4)
H10 H 0.0804 0.0829 0.8266
C17 C 0.0304(2) 0.1420(2) 0.7516(4)
N5 N 0.43065(14) 0.23788(13) 0.4600(2)
N6 N 0.34301(13) 0.24137(14) 0.5231(2)
N7 N 0.37794(14) 0.34241(14) 0.7189(2)
N8 N 0.45568(15) 0.30573(15) 0.7903(3)
C18 C 0.38020(17) 0.26542(17) 0.4586(3)
H12 H 0.3718 0.2974 0.4179
C19 C 0.42439(19) 0.19362(18) 0.5288(3)
H13 H 0.4531 0.1668 0.5461
C20 C 0.3707(2) 0.19509(18) 0.5667(3)
H14 H 0.3550 0.1695 0.6139
C21 C 0.28175(17) 0.2570(2) 0.5368(3)
H15 H 0.2750 0.2958 0.5104
H16 H 0.2574 0.2299 0.4994
C22 C 0.26530(15) 0.25519(17) 0.6478(3)
C23 C 0.28083(16) 0.29885(17) 0.7161(3)
C24 C 0.26481(16) 0.29286(18) 0.8168(3)
H17 H 0.2747 0.3223 0.8621
C25 C 0.31723(17) 0.35072(19) 0.6870(3)
H18 H 0.3015 0.3855 0.7186
H19 H 0.3158 0.3561 0.6143
C26 C 0.40060(18) 0.29769(18) 0.7697(3)
H20 H 0.3797 0.2647 0.7883
C27 C 0.4220(2) 0.3812(2) 0.7058(4)
H21 H 0.4196 0.4171 0.6734
C28 C 0.4696(2) 0.3580(2) 0.7484(4)
H22 H 0.5065 0.3749 0.7491
H33 H 0.0065 0.3749 0.7509
Zn8 Zn 0.5000 0.2500 0.3750
Zn10 Zn 0.5000 0.2500 0.8750
N19 N 0.05573(15) 0.29432(15) 0.5403(3)
Zn5_2 Zn 1.0000 0.2500 0.1250
N9 N 0.93065(14) 0.23788(13) 0.0400(2)
C29 C 0.88020(17) 0.26542(17) 0.0414(3)
H23 H 0.8718 0.2974 0.0821
H27 H 0.7574 0.2299 0.0006
N17 N 0.98788(13) 0.31935(14) 0.2100(2)
Zn6_2 Zn 1.0000 0.2500 0.6250
H11 H 0.9935 0.1251 0.7509
N10 N 0.84301(13) 0.24137(14) 0.9769(2)
N11 N 0.87794(14) 0.34241(14) 0.7811(2)
N12 N 0.95568(15) 0.30573(15) 0.7097(3)
C30 C 0.92439(19) 0.19362(18) 0.9712(3)
H24 H 0.9531 0.1668 0.9539
C31 C 0.8707(2) 0.19509(18) 0.9333(3)
H25 H 0.8550 0.1695 0.8861
C32 C 0.78175(17) 0.2570(2) 0.9632(3)
H26 H 0.7750 0.2958 0.9896
C33 C 0.76530(15) 0.25519(17) 0.8522(3)
C34 C 0.78083(16) 0.29885(17) 0.7839(3)
C35 C 0.76481(16) 0.29286(18) 0.6832(3)
H28 H 0.7747 0.3223 0.6379
C36 C 0.81723(17) 0.35072(19) 0.8130(3)
H29 H 0.8015 0.3855 0.7814
H30 H 0.8158 0.3561 0.8857
C37 C 0.90060(18) 0.29769(18) 0.7303(3)
H31 H 0.8797 0.2647 0.7117
C38 C 0.9220(2) 0.3812(2) 0.7942(4)
H32 H 0.9196 0.4171 0.8266
C39 C 0.9696(2) 0.3580(2) 0.7516(4)
N13 N 0.56935(14) 0.26212(13) 0.4600(2)
N14 N 0.65699(13) 0.25863(14) 0.5231(2)
N15 N 0.62206(14) 0.15759(14) 0.7189(2)
N16 N 0.54432(15) 0.19427(15) 0.7903(3)
C40 C 0.61980(17) 0.23458(17) 0.4586(3)
H34 H 0.6282 0.2026 0.4179
C41 C 0.57561(19) 0.30638(18) 0.5288(3)
H35 H 0.5469 0.3332 0.5461
C42 C 0.6293(2) 0.30491(18) 0.5667(3)
H36 H 0.6450 0.3305 0.6139
C43 C 0.71825(17) 0.2430(2) 0.5368(3)
H37 H 0.7250 0.2042 0.5104
H38 H 0.7426 0.2701 0.4994
C44 C 0.73470(15) 0.24481(17) 0.6478(3)
C45 C 0.71917(16) 0.20115(17) 0.7161(3)
C46 C 0.73519(16) 0.20714(18) 0.8168(3)
H39 H 0.7253 0.1777 0.8621
C47 C 0.68277(17) 0.14928(19) 0.6870(3)
H40 H 0.6985 0.1145 0.7186
H41 H 0.6842 0.1439 0.6143
C48 C 0.59940(18) 0.20231(18) 0.7697(3)
H42 H 0.6203 0.2353 0.7883
C49 C 0.5780(2) 0.1188(2) 0.7058(4)
H43 H 0.5804 0.0829 0.6734
C50 C 0.5304(2) 0.1420(2) 0.7484(4)
H44 H 0.4935 0.1251 0.7491
N20 N 0.94427(15) 0.20568(15) 0.5403(3)
H44_2 H 0.0065 0.8749 0.2491
Zn9 Zn -0.0000 0.7500 0.3750
Zn7 Zn -0.0000 0.7500 0.8750
Zn5_3 Zn 0.5000 0.7500 0.6250
Zn6_3 Zn 0.5000 0.7500 0.1250
N1_2 N 0.43065(14) 0.73788(13) 0.5400(2)
N2_2 N 0.34301(13) 0.74137(14) 0.4769(2)
N3_2 N 0.37794(14) 0.84241(14) 0.2811(2)
N4_2 N 0.45568(15) 0.80573(15) 0.2097(3)
C7_2 C 0.38020(17) 0.76542(17) 0.5414(3)
H1_2 H 0.3718 0.7974 0.5821
C8_2 C 0.42439(19) 0.69362(18) 0.4712(3)
H2_2 H 0.4531 0.6668 0.4539
C9_2 C 0.3707(2) 0.69509(18) 0.4333(3)
H3_2 H 0.3550 0.6695 0.3861
C10_2 C 0.28175(17) 0.7570(2) 0.4632(3)
H4_2 H 0.2750 0.7958 0.4896
H5_2 H 0.2574 0.7299 0.5006
C11_2 C 0.26530(15) 0.75519(17) 0.3522(3)
C12_2 C 0.28083(16) 0.79885(17) 0.2839(3)
C13_2 C 0.26481(16) 0.79286(18) 0.1832(3)
H6_2 H 0.2747 0.8223 0.1379
C14_2 C 0.31723(17) 0.85072(19) 0.3130(3)
H7_2 H 0.3015 0.8855 0.2814
H8_2 H 0.3158 0.8561 0.3857
C15_2 C 0.40060(18) 0.79769(18) 0.2303(3)
H9_2 H 0.3797 0.7647 0.2117
C16_2 C 0.4220(2) 0.8812(2) 0.2942(4)
H10_2 H 0.4196 0.9171 0.3266
C17_2 C 0.4696(2) 0.8580(2) 0.2516(4)
H11_2 H 0.5065 0.8749 0.2509
N6_2 N 0.15699(13) 0.75863(14) 0.0231(2)
N7_2 N 0.12206(14) 0.65759(14) 0.2189(2)
N8_2 N 0.04432(15) 0.69427(15) 0.2903(3)
C19_2 C 0.07561(19) 0.80638(18) 0.0288(3)
H13_2 H 0.0469 0.8332 0.0461
C20_2 C 0.1293(2) 0.80491(18) 0.0667(3)
H14_2 H 0.1450 0.8305 0.1139
C21_2 C 0.21825(17) 0.7430(2) 0.0368(3)
H15_2 H 0.2250 0.7042 0.0104
C22_2 C 0.23470(15) 0.74481(17) 0.1478(3)
C23_2 C 0.21917(16) 0.70115(17) 0.2161(3)
C24_2 C 0.23519(16) 0.70714(18) 0.3168(3)
H17_2 H 0.2253 0.6777 0.3621
C25_2 C 0.18277(17) 0.64928(19) 0.1870(3)
H18_2 H 0.1985 0.6145 0.2186
H19_2 H 0.1842 0.6439 0.1143
C26_2 C 0.09940(18) 0.70231(18) 0.2697(3)
H20_2 H 0.1203 0.7353 0.2883
C27_2 C 0.0780(2) 0.6188(2) 0.2058(4)
H21_2 H 0.0804 0.5829 0.1734
C28_2 C 0.0304(2) 0.6420(2) 0.2484(4)
N9_2 N 0.56935(14) 0.76212(13) 0.5400(2)
N10_2 N 0.65699(13) 0.75863(14) 0.4769(2)
N11_2 N 0.62206(14) 0.65759(14) 0.2811(2)
N12_2 N 0.54432(15) 0.69427(15) 0.2097(3)
C29_2 C 0.61980(17) 0.73458(17) 0.5414(3)
H23_2 H 0.6282 0.7026 0.5821
C30_2 C 0.57561(19) 0.80638(18) 0.4712(3)
H24_2 H 0.5469 0.8332 0.4539
C31_2 C 0.6293(2) 0.80491(18) 0.4333(3)
H25_2 H 0.6450 0.8305 0.3861
C32_2 C 0.71825(17) 0.7430(2) 0.4632(3)
H26_2 H 0.7250 0.7042 0.4896
H27_2 H 0.7426 0.7701 0.5006
C33_2 C 0.73470(15) 0.74481(17) 0.3522(3)
C34_2 C 0.71917(16) 0.70115(17) 0.2839(3)
C35_2 C 0.73519(16) 0.70714(18) 0.1832(3)
H28_2 H 0.7253 0.6777 0.1379
C36_2 C 0.68277(17) 0.64928(19) 0.3130(3)
H29_2 H 0.6985 0.6145 0.2814
H30_2 H 0.6842 0.6439 0.3857
C37_2 C 0.59940(18) 0.70231(18) 0.2303(3)
H31_2 H 0.6203 0.7353 0.2117
C38_2 C 0.5780(2) 0.6188(2) 0.2942(4)
H32_2 H 0.5804 0.5829 0.3266
C39_2 C 0.5304(2) 0.6420(2) 0.2516(4)
H33_2 H 0.4935 0.6251 0.2509
N14_2 N 0.84301(13) 0.74137(14) 0.0231(2)
N15_2 N 0.87794(14) 0.84241(14) 0.2189(2)
N16_2 N 0.95568(15) 0.80573(15) 0.2903(3)
C41_2 C 0.92439(19) 0.69362(18) 0.0288(3)
H35_2 H 0.9531 0.6668 0.0461
C42_2 C 0.8707(2) 0.69509(18) 0.0667(3)
H36_2 H 0.8550 0.6695 0.1139
C43_2 C 0.78175(17) 0.7570(2) 0.0368(3)
H37_2 H 0.7750 0.7958 0.0104
C44_2 C 0.76530(15) 0.75519(17) 0.1478(3)
C45_2 C 0.78083(16) 0.79885(17) 0.2161(3)
C46_2 C 0.76481(16) 0.79286(18) 0.3168(3)
H39_2 H 0.7747 0.8223 0.3621
C47_2 C 0.81723(17) 0.85072(19) 0.1870(3)
H40_2 H 0.8015 0.8855 0.2186
H41_2 H 0.8158 0.8561 0.1143
C48_2 C 0.90060(18) 0.79769(18) 0.2697(3)
H42_2 H 0.8797 0.7647 0.2883
C49_2 C 0.9220(2) 0.8812(2) 0.2058(4)
H43_2 H 0.9196 0.9171 0.1734
C50_2 C 0.9696(2) 0.8580(2) 0.2484(4)
Zn9_2 Zn 1.0000 0.7500 0.3750
N17_2 N 0.51212(13) 0.68065(14) 0.7100(2)
N18_2 N 0.48788(13) 0.81935(14) 0.7100(2)
N19_2 N 0.44427(15) 0.70568(15) 0.0403(3)
N20_2 N 0.55573(15) 0.79432(15) 0.0403(3)
N5_2 N 0.06935(14) 0.76212(13) 0.9600(2)
C18_2 C 0.11980(17) 0.73458(17) 0.9586(3)
H12_2 H 0.1282 0.7026 0.9179
H16_2 H 0.2426 0.7701 0.9994
N13_2 N 0.93065(14) 0.73788(13) 0.9600(2)
C40_2 C 0.88020(17) 0.76542(17) 0.9586(3)
H34_2 H 0.8718 0.7974 0.9179
H38_2 H 0.7574 0.7299 0.9994
Zn7_2 Zn 1.0000 0.7500 0.8750
H22_2 H 0.9935 0.6251 0.2491
N1_3 N 0.48788(13) 0.31935(14) 0.2900(2)
N2_3 N 0.49137(14) 0.40699(13) 0.2269(2)
N3_3 N 0.59241(14) 0.37206(14) 0.0311(2)
C7_3 C 0.51542(17) 0.36980(17) 0.2914(3)
H1_3 H 0.5474 0.3782 0.3321
C8_3 C 0.44362(18) 0.32561(19) 0.2212(3)
H2_3 H 0.4168 0.2969 0.2039
C9_3 C 0.44509(18) 0.3793(2) 0.1833(3)
H3_3 H 0.4195 0.3950 0.1361
C10_3 C 0.5070(2) 0.46825(17) 0.2132(3)
H4_3 H 0.5458 0.4750 0.2396
H5_3 H 0.4799 0.4926 0.2506
C11_3 C 0.50519(17) 0.48470(15) 0.1022(3)
C12_3 C 0.54885(17) 0.46917(16) 0.0339(3)
C14_3 C 0.60072(19) 0.43277(17) 0.0630(3)
H7_3 H 0.6355 0.4485 0.0314
H8_3 H 0.6061 0.4342 0.1357
C16_3 C 0.6312(2) 0.3280(2) 0.0442(4)
H10_3 H 0.6671 0.3304 0.0766
C17_3 C 0.6080(2) 0.2804(2) 0.0016(4)
H11_3 H 0.6249 0.2435 0.0009
C24_3 C 0.45714(18) 0.51481(16) 0.0668(3)
H17_3 H 0.4277 0.5247 0.1121
C26_3 C 0.45231(18) 0.65060(18) 0.0197(3)
H20_3 H 0.4853 0.6297 0.0383
N9_3 N 0.51212(13) 0.18065(14) 0.2900(2)
N10_3 N 0.50863(14) 0.09301(13) 0.2269(2)
N11_3 N 0.40759(14) 0.12794(14) 0.0311(2)
C29_3 C 0.48458(17) 0.13020(17) 0.2914(3)
H23_3 H 0.4526 0.1218 0.3321
C30_3 C 0.55638(18) 0.17439(19) 0.2212(3)
H24_3 H 0.5832 0.2031 0.2039
C31_3 C 0.55491(18) 0.1207(2) 0.1833(3)
H25_3 H 0.5805 0.1050 0.1361
C32_3 C 0.4930(2) 0.03175(17) 0.2132(3)
H26_3 H 0.4542 0.0250 0.2396
H27_3 H 0.5201 0.0074 0.2506
C33_3 C 0.49481(17) 0.01530(15) 0.1022(3)
C34_3 C 0.45115(17) 0.03083(16) 0.0339(3)
C36_3 C 0.39928(19) 0.06723(17) 0.0630(3)
H29_3 H 0.3645 0.0515 0.0314
H30_3 H 0.3939 0.0658 0.1357
C38_3 C 0.3688(2) 0.1720(2) 0.0442(4)
H32_3 H 0.3329 0.1696 0.0766
C39_3 C 0.3920(2) 0.2196(2) 0.0016(4)
H33_3 H 0.3751 0.2565 0.0009
N4_3 N 0.55573(15) 0.29432(15) 0.9597(3)
C13_3 C 0.54286(18) 0.48519(16) 0.9332(3)
H6_3 H 0.5723 0.4753 0.8879
C15_3 C 0.54769(18) 0.34940(18) 0.9803(3)
H9_3 H 0.5147 0.3703 0.9617
N6_3 N 0.50863(14) 0.59301(13) 0.7731(2)
N7_3 N 0.40759(14) 0.62794(14) 0.9689(2)
C18_3 C 0.48458(17) 0.63020(17) 0.7086(3)
H12_3 H 0.4526 0.6218 0.6679
C19_3 C 0.55638(18) 0.67439(19) 0.7788(3)
H13_3 H 0.5832 0.7031 0.7961
C20_3 C 0.55491(18) 0.6207(2) 0.8167(3)
H14_3 H 0.5805 0.6050 0.8639
C21_3 C 0.4930(2) 0.53175(17) 0.7868(3)
H15_3 H 0.4542 0.5250 0.7604
H16_3 H 0.5201 0.5074 0.7494
C22_3 C 0.49481(17) 0.51530(15) 0.8978(3)
C23_3 C 0.45115(17) 0.53083(16) 0.9661(3)
C25_3 C 0.39928(19) 0.56723(17) 0.9370(3)
H18_3 H 0.3645 0.5515 0.9686
H19_3 H 0.3939 0.5658 0.8643
C27_3 C 0.3688(2) 0.6720(2) 0.9558(4)
H21_3 H 0.3329 0.6696 0.9234
C28_3 C 0.3920(2) 0.7196(2) 0.9984(4)
H22_3 H 0.3751 0.7565 0.9991
N12_3 N 0.44427(15) 0.20568(15) 0.9597(3)
C35_3 C 0.45714(18) 0.01481(16) 0.9332(3)
H28_3 H 0.4277 0.0247 0.8879
C37_3 C 0.45231(18) 0.15060(18) 0.9803(3)
H31_3 H 0.4853 0.1297 0.9617
C46_3 C 0.54286(18) 0.98519(16) 0.0668(3)
H39_3 H 0.5723 0.9753 0.1121
C48_3 C 0.54769(18) 0.84940(18) 0.0197(3)
H42_3 H 0.5147 0.8703 0.0383
N14_3 N 0.49137(14) 0.90699(13) 0.7731(2)
N15_3 N 0.59241(14) 0.87206(14) 0.9689(2)
C40_3 C 0.51542(17) 0.86980(17) 0.7086(3)
H34_3 H 0.5474 0.8782 0.6679
C41_3 C 0.44362(18) 0.82561(19) 0.7788(3)
H35_3 H 0.4168 0.7969 0.7961
C42_3 C 0.44509(18) 0.8793(2) 0.8167(3)
H36_3 H 0.4195 0.8950 0.8639
C43_3 C 0.5070(2) 0.96825(17) 0.7868(3)
H37_3 H 0.5458 0.9750 0.7604
H38_3 H 0.4799 0.9926 0.7494
C44_3 C 0.50519(17) 0.98470(15) 0.8978(3)
C45_3 C 0.54885(17) 0.96917(16) 0.9661(3)
C47_3 C 0.60072(19) 0.93277(17) 0.9370(3)
H40_3 H 0.6355 0.9485 0.9686
H41_3 H 0.6061 0.9342 0.8643
C49_3 C 0.6312(2) 0.8280(2) 0.9558(4)
H43_3 H 0.6671 0.8304 0.9234
C50_3 C 0.6080(2) 0.7804(2) 0.9984(4)
H44_3 H 0.6249 0.7435 0.9991
N14_4 N 0.00863(14) 0.09301(13) 0.2731(2)
C41_4 C 0.05638(18) 0.17439(19) 0.2788(3)
H35_4 H 0.0832 0.2031 0.2961
C42_4 C 0.05491(18) 0.1207(2) 0.3167(3)
H36_4 H 0.0805 0.1050 0.3639
H38_4 H 0.0201 0.0074 0.2494
N1_4 N 0.01212(13) 0.68065(14) 0.7900(2)
N2_4 N 0.00863(14) 0.59301(13) 0.7269(2)
C8_4 C 0.05638(18) 0.67439(19) 0.7212(3)
H2_4 H 0.0832 0.7031 0.7039
C9_4 C 0.05491(18) 0.6207(2) 0.6833(3)
H3_4 H 0.0805 0.6050 0.6361
H5_4 H 0.0201 0.5074 0.7506
N7_4 N 0.09241(14) 0.37206(14) 0.4689(2)
C18_4 C 0.01542(17) 0.36980(17) 0.2086(3)
H12_4 H 0.0474 0.3782 0.1679
C21_4 C 0.0070(2) 0.46825(17) 0.2868(3)
H15_4 H 0.0458 0.4750 0.2604
C22_4 C 0.00519(17) 0.48470(15) 0.3978(3)
C23_4 C 0.04885(17) 0.46917(16) 0.4661(3)
C24_4 C 0.04286(18) 0.48519(16) 0.5668(3)
H17_4 H 0.0723 0.4753 0.6121
C25_4 C 0.10072(19) 0.43277(17) 0.4370(3)
H18_4 H 0.1355 0.4485 0.4686
H19_4 H 0.1061 0.4342 0.3643
C26_4 C 0.04769(18) 0.34940(18) 0.5197(3)
H20_4 H 0.0147 0.3703 0.5383
C27_4 C 0.1312(2) 0.3280(2) 0.4558(4)
H21_4 H 0.1671 0.3304 0.4234
C28_4 C 0.1080(2) 0.2804(2) 0.4984(4)
H22_4 H 0.1249 0.2435 0.4991
N11_4 N 0.09241(14) 0.87206(14) 0.5311(2)
N12_4 N 0.05573(15) 0.79432(15) 0.4597(3)
C29_4 C 0.01542(17) 0.86980(17) 0.7914(3)
H23_4 H 0.0474 0.8782 0.8321
C32_4 C 0.0070(2) 0.96825(17) 0.7132(3)
H26_4 H 0.0458 0.9750 0.7396
C33_4 C 0.00519(17) 0.98470(15) 0.6022(3)
C34_4 C 0.04885(17) 0.96917(16) 0.5339(3)
C35_4 C 0.04286(18) 0.98519(16) 0.4332(3)
H28_4 H 0.0723 0.9753 0.3879
C36_4 C 0.10072(19) 0.93277(17) 0.5630(3)
H29_4 H 0.1355 0.9485 0.5314
H30_4 H 0.1061 0.9342 0.6357
C37_4 C 0.04769(18) 0.84940(18) 0.4803(3)
H31_4 H 0.0147 0.8703 0.4617
C38_4 C 0.1312(2) 0.8280(2) 0.5442(4)
H32_4 H 0.1671 0.8304 0.5766
C39_4 C 0.1080(2) 0.7804(2) 0.5016(4)
H33_4 H 0.1249 0.7435 0.5009
N15_4 N 0.90759(14) 0.12794(14) 0.4689(2)
C40_4 C 0.98458(17) 0.13020(17) 0.2086(3)
H34_4 H 0.9526 0.1218 0.1679
C43_4 C 0.9930(2) 0.03175(17) 0.2868(3)
H37_4 H 0.9542 0.0250 0.2604
C44_4 C 0.99481(17) 0.01530(15) 0.3978(3)
C45_4 C 0.95115(17) 0.03083(16) 0.4661(3)
C46_4 C 0.95714(18) 0.01481(16) 0.5668(3)
H39_4 H 0.9277 0.0247 0.6121
C47_4 C 0.89928(19) 0.06723(17) 0.4370(3)
H40_4 H 0.8645 0.0515 0.4686
H41_4 H 0.8939 0.0658 0.3643
C48_4 C 0.95231(18) 0.15060(18) 0.5197(3)
H42_4 H 0.9853 0.1297 0.5383
C49_4 C 0.8688(2) 0.1720(2) 0.4558(4)
H43_4 H 0.8329 0.1696 0.4234
C50_4 C 0.8920(2) 0.2196(2) 0.4984(4)
H44_4 H 0.8751 0.2565 0.4991
N3_4 N 0.90759(14) 0.62794(14) 0.5311(2)
N4_4 N 0.94427(15) 0.70568(15) 0.4597(3)
C7_4 C 0.98458(17) 0.63020(17) 0.7914(3)
H1_4 H 0.9526 0.6218 0.8321
C10_4 C 0.9930(2) 0.53175(17) 0.7132(3)
H4_4 H 0.9542 0.5250 0.7396
C11_4 C 0.99481(17) 0.51530(15) 0.6022(3)
C12_4 C 0.95115(17) 0.53083(16) 0.5339(3)
C13_4 C 0.95714(18) 0.51481(16) 0.4332(3)
H6_4 H 0.9277 0.5247 0.3879
C14_4 C 0.89928(19) 0.56723(17) 0.5630(3)
H7_4 H 0.8645 0.5515 0.5314
H8_4 H 0.8939 0.5658 0.6357
C15_4 C 0.95231(18) 0.65060(18) 0.4803(3)
H9_4 H 0.9853 0.6297 0.4617
C16_4 C 0.8688(2) 0.6720(2) 0.5442(4)
H10_4 H 0.8329 0.6696 0.5766
C17_4 C 0.8920(2) 0.7196(2) 0.5016(4)
H11_4 H 0.8751 0.7565 0.5009
N6_4 N 0.99137(14) 0.40699(13) 0.2731(2)
C19_4 C 0.94362(18) 0.32561(19) 0.2788(3)
H13_4 H 0.9168 0.2969 0.2961
C20_4 C 0.94509(18) 0.3793(2) 0.3167(3)
H14_4 H 0.9195 0.3950 0.3639
H16_4 H 0.9799 0.4926 0.2494
N9_4 N 0.98788(13) 0.81935(14) 0.7900(2)
N10_4 N 0.99137(14) 0.90699(13) 0.7269(2)
C30_4 C 0.94362(18) 0.82561(19) 0.7212(3)
H24_4 H 0.9168 0.7969 0.7039
C31_4 C 0.94509(18) 0.8793(2) 0.6833(3)
H25_4 H 0.9195 0.8950 0.6361
H27_4 H 0.9799 0.9926 0.7506
loop_
_geom_bond_atom_site_label_1
_geom_bond_atom_site_label_2
_geom_bond_site_symmetry_1
_geom_bond_site_symmetry_2
O2 C1 1_555 1_555
O3 C2 1_555 1_555
C1 C2 1_555 1_555
C2 O4 1_555 1_555
Zn3 O2 1_555 1_555
O3 Zn3 1_555 1_555
Zn1 O1 1_555 1_555
O6 Zn1 1_555 1_555
O8 Zn1 1_555 1_555
O13 Zn1 1_555 1_555
O15 Zn1 1_555 1_555
Zn2 O5 1_555 1_555
O9 Zn2 1_555 1_555
O14 Zn2 1_555 1_555
O16 Zn2 1_555 1_555
O7 Zn2 1_555 1_555
O10 C5 1_555 1_555
O11 C6 1_555 1_555
C6 O12 1_555 1_555
Zn4 O10 1_555 1_555
O11 Zn4 1_555 1_555
C5 C6 1_555 1_555
Zn1_2 O1_2 1_555 1_555
O1_2 C1_2 1_555 1_555
O2_2 C1_2 1_555 1_555
O3_2 C2_2 1_555 1_555
O4_2 Zn1_2 1_555 1_555
O5_2 C3_2 1_555 1_555
O6_2 Zn1_2 1_555 1_555
C1_2 C2_2 1_555 1_555
C2_2 O4_2 1_555 1_555
C3_2 O6_2 1_555 1_555
O7_2 C4_2 1_555 1_555
C4_2 C3_2 1_555 1_555
O8_2 Zn1_2 1_555 1_555
Zn2_2 O5_2 1_555 1_555
O9_2 Zn2_2 1_555 1_555
O10_2 C5_2 1_555 1_555
O11_2 C6_2 1_555 1_555
O12_2 Zn2_2 1_555 1_555
C5_2 O9_2 1_555 1_555
C6_2 O12_2 1_555 1_555
Zn3_2 O2_2 1_555 1_555
Zn4_2 O10_2 1_555 1_555
O13_2 Zn1_2 1_555 1_555
O14_2 Zn2_2 1_555 1_555
O15_2 Zn1_2 1_555 1_555
O16_2 Zn2_2 1_555 1_555
O3_2 Zn3_2 1_555 1_555
O7_2 Zn2_2 1_555 1_555
C4_2 O8_2 1_555 1_555
O11_2 Zn4_2 1_555 1_555
C5_2 C6_2 1_555 1_555
Zn3 O1_3 1_555 1_555
O1_3 C1_3 1_555 1_555
O13_2 C1_3 1_555 1_555
O15_2 C2_3 1_555 1_555
O4_3 Zn3 1_555 1_555
O5_3 C3_3 1_555 1_555
O6_3 Zn3 1_555 1_555
C1_3 C2_3 1_555 1_555
C2_3 O4_3 1_555 1_555
C3_3 O6_3 1_555 1_555
O7_3 C4_3 1_555 1_555
C4_3 C3_3 1_555 1_555
O8_3 Zn3 1_555 1_555
Zn2_3 O5_3 1_555 1_555
O9_3 Zn2_3 1_555 1_555
O10_3 C5_3 1_555 1_555
O11_3 C6_3 1_555 1_555
O12_3 Zn2_3 1_555 1_555
C5_3 O9_3 1_555 1_555
C6_3 O12_3 1_555 1_555
Zn4_3 O10_3 1_555 1_555
O14_3 Zn2_3 1_555 1_555
O16_3 Zn2_3 1_555 1_555
O7_3 Zn2_3 1_555 1_555
C4_3 O8_3 1_555 1_555
O11_3 Zn4_3 1_555 1_555
C5_3 C6_3 1_555 1_555
Zn3_2 O1_4 1_555 1_555
O1_4 C1_4 1_555 1_555
O13 C1_4 1_555 1_555
O15 C2_4 1_555 1_555
O4_4 Zn3_2 1_555 1_555
O5_4 C3_4 1_555 1_555
O6_4 Zn3_2 1_555 1_555
C1_4 C2_4 1_555 1_555
C2_4 O4_4 1_555 1_555
C3_4 O6_4 1_555 1_555
O7_4 C4_4 1_555 1_555
C4_4 C3_4 1_555 1_555
O8_4 Zn3_2 1_555 1_555
Zn2_4 O5_4 1_555 1_555
O9_4 Zn2_4 1_555 1_555
O10_4 C5_4 1_555 1_555
O11_4 C6_4 1_555 1_555
O12_4 Zn2_4 1_555 1_555
C5_4 O9_4 1_555 1_555
C6_4 O12_4 1_555 1_555
Zn4_4 O10_4 1_555 1_555
O14_4 Zn2_4 1_555 1_555
O16_4 Zn2_4 1_555 1_555
O7_4 Zn2_4 1_555 1_555
C4_4 O8_4 1_555 1_555
O11_4 Zn4_4 1_555 1_555
C5_4 C6_4 1_555 1_555
O7_5 C4_5 1_555 1_555
O8_5 Zn1_3 1_555 1_555
O14_3 C5_5 1_555 1_555
O16_3 C6_5 1_555 1_555
C5_5 O9_5 1_555 1_555
C6_5 O12_5 1_555 1_555
O13_3 Zn1_3 1_555 1_555
O15_3 Zn1_3 1_555 1_555
C4_5 O8_5 1_555 1_555
C5_5 C6_5 1_555 1_555
O1_5 C1_5 1_555 1_555
O2_3 C1_5 1_555 1_555
O3_3 C2_5 1_555 1_555
O5_5 C3_5 1_555 1_555
C1_5 C2_5 1_555 1_555
C2_5 O4_5 1_555 1_555
C3_5 O6_5 1_555 1_555
Zn4_4 O5_5 1_555 1_555
Zn3_3 O2_3 1_555 1_555
O3_3 Zn3_3 1_555 1_555
Zn4_3 O5_6 1_555 1_555
O14_4 C5_6 1_555 1_555
O16_4 C6_6 1_555 1_555
C6_6 O12_6 1_555 1_555
C5_6 C6_6 1_555 1_555
O2_4 C1_6 1_555 1_555
O3_4 C2_6 1_555 1_555
C1_6 C2_6 1_555 1_555
C2_6 O4_6 1_555 1_555
Zn3_4 O2_4 1_555 1_555
O3_4 Zn3_4 1_555 1_555
O8_6 Zn1_4 1_555 1_555
O13_4 Zn1_4 1_555 1_555
O15_4 Zn1_4 1_555 1_555
Zn3_3 O1_6 1_555 1_555
O1_6 C1_7 1_555 1_555
O13_4 C1_7 1_555 1_555
O15_4 C2_7 1_555 1_555
O4_7 Zn3_3 1_555 1_555
O5_7 C3_6 1_555 1_555
O6_6 Zn3_3 1_555 1_555
C1_7 C2_7 1_555 1_555
C2_7 O4_7 1_555 1_555
C3_6 O6_6 1_555 1_555
O7_6 C4_6 1_555 1_555
C4_6 C3_6 1_555 1_555
O8_7 Zn3_3 1_555 1_555
Zn4 O5_7 1_555 1_555
O9_6 Zn4 1_555 1_555
O14_2 C5_7 1_555 1_555
O16_2 C6_7 1_555 1_555
O12_7 Zn4 1_555 1_555
C5_7 O9_6 1_555 1_555
C6_7 O12_7 1_555 1_555
O7_6 Zn4 1_555 1_555
C4_6 O8_7 1_555 1_555
C5_7 C6_7 1_555 1_555
Zn3_4 O1_7 1_555 1_555
O1_7 C1_8 1_555 1_555
O13_3 C1_8 1_555 1_555
O15_3 C2_8 1_555 1_555
O4_8 Zn3_4 1_555 1_555
O5_8 C3_7 1_555 1_555
O6_7 Zn3_4 1_555 1_555
C1_8 C2_8 1_555 1_555
C2_8 O4_8 1_555 1_555
C3_7 O6_7 1_555 1_555
O7_7 C4_7 1_555 1_555
C4_7 C3_7 1_555 1_555
O8_8 Zn3_4 1_555 1_555
Zn4_2 O5_8 1_555 1_555
O9_7 Zn4_2 1_555 1_555
O14 C5_8 1_555 1_555
O16 C6_8 1_555 1_555
O12_8 Zn4_2 1_555 1_555
C5_8 O9_7 1_555 1_555
C6_8 O12_8 1_555 1_555
O7_7 Zn4_2 1_555 1_555
C4_7 O8_8 1_555 1_555
C5_8 C6_8 1_555 1_555
Zn5 N1 1_555 1_555
N1 C7 1_555 1_555
C7 H1 1_555 1_555
N18 Zn5 1_555 1_555
Zn6 N4 1_555 1_555
N3 C14 1_555 1_555
N4 C15 1_555 1_555
H2 C8 1_555 1_555
C9 N2 1_555 1_555
H3 C9 1_555 1_555
C10 N2 1_555 1_555
H4 C10 1_555 1_555
C11 C10 1_555 1_555
C12 C11 1_555 1_555
C13 C12 1_555 1_555
H6 C13 1_555 1_555
C14 C12 1_555 1_555
H7 C14 1_555 1_555
H8 C14 1_555 1_555
C15 N3 1_555 1_555
H9 C15 1_555 1_555
C16 N3 1_555 1_555
H10 C16 1_555 1_555
C17 N4 1_555 1_555
N5 C18 1_555 1_555
N6 C18 1_555 1_555
N7 C25 1_555 1_555
N8 C26 1_555 1_555
C18 H12 1_555 1_555
C19 N5 1_555 1_555
H13 C19 1_555 1_555
C20 N6 1_555 1_555
H14 C20 1_555 1_555
C21 N6 1_555 1_555
H15 C21 1_555 1_555
H16 C21 1_555 1_555
C22 C13 1_555 1_555
C23 C22 1_555 1_555
C24 C11 1_555 1_555
H17 C24 1_555 1_555
C25 C23 1_555 1_555
H18 C25 1_555 1_555
H19 C25 1_555 1_555
C26 N7 1_555 1_555
H20 C26 1_555 1_555
C27 N7 1_555 1_555
H21 C27 1_555 1_555
C28 N8 1_555 1_555
H22 C28 1_555 1_555
Zn8 N5 1_555 1_555
Zn10 N8 1_555 1_555
N19 Zn6 1_555 1_555
C8 C9 1_555 1_555
C16 C17 1_555 1_555
C19 C20 1_555 1_555
C21 C22 1_555 1_555
C23 C24 1_555 1_555
C27 C28 1_555 1_555
N9 Zn5_2 1_555 1_555
C29 N9 1_555 1_555
H23 C29 1_555 1_555
N17 Zn5_2 1_555 1_555
N11 C36 1_555 1_555
N12 Zn6_2 1_555 1_555
H24 C30 1_555 1_555
C31 N10 1_555 1_555
H25 C31 1_555 1_555
C32 N10 1_555 1_555
H26 C32 1_555 1_555
C33 C32 1_555 1_555
C34 C33 1_555 1_555
C35 C34 1_555 1_555
H28 C35 1_555 1_555
C36 C34 1_555 1_555
H29 C36 1_555 1_555
H30 C36 1_555 1_555
C37 N11 1_555 1_555
H31 C37 1_555 1_555
C38 N11 1_555 1_555
H32 C38 1_555 1_555
C39 N12 1_555 1_555
N13 C40 1_555 1_555
N14 C40 1_555 1_555
N15 C47 1_555 1_555
N16 C48 1_555 1_555
C40 H34 1_555 1_555
C41 N13 1_555 1_555
H35 C41 1_555 1_555
C42 N14 1_555 1_555
H36 C42 1_555 1_555
C43 N14 1_555 1_555
H37 C43 1_555 1_555
H38 C43 1_555 1_555
C44 C35 1_555 1_555
C45 C44 1_555 1_555
C46 C33 1_555 1_555
H39 C46 1_555 1_555
C47 C45 1_555 1_555
H40 C47 1_555 1_555
H41 C47 1_555 1_555
C48 N15 1_555 1_555
H42 C48 1_555 1_555
C49 N15 1_555 1_555
H43 C49 1_555 1_555
C50 N16 1_555 1_555
H44 C50 1_555 1_555
Zn8 N13 1_555 1_555
Zn10 N16 1_555 1_555
N20 Zn6_2 1_555 1_555
N12 C37 1_555 1_555
C30 C31 1_555 1_555
C38 C39 1_555 1_555
C41 C42 1_555 1_555
C43 C44 1_555 1_555
C45 C46 1_555 1_555
C49 C50 1_555 1_555
Zn5_3 N1_2 1_555 1_555
Zn6_3 N4_2 1_555 1_555
N1_2 C7_2 1_555 1_555
N2_2 C7_2 1_555 1_555
N3_2 C14_2 1_555 1_555
N4_2 C15_2 1_555 1_555
C7_2 H1_2 1_555 1_555
C8_2 N1_2 1_555 1_555
H2_2 C8_2 1_555 1_555
C9_2 N2_2 1_555 1_555
H3_2 C9_2 1_555 1_555
C10_2 N2_2 1_555 1_555
H4_2 C10_2 1_555 1_555
H5_2 C10_2 1_555 1_555
C11_2 C10_2 1_555 1_555
C12_2 C11_2 1_555 1_555
C13_2 C12_2 1_555 1_555
H6_2 C13_2 1_555 1_555
C14_2 C12_2 1_555 1_555
H7_2 C14_2 1_555 1_555
H8_2 C14_2 1_555 1_555
C15_2 N3_2 1_555 1_555
H9_2 C15_2 1_555 1_555
C16_2 N3_2 1_555 1_555
H10_2 C16_2 1_555 1_555
C17_2 N4_2 1_555 1_555
H11_2 C17_2 1_555 1_555
N7_2 C25_2 1_555 1_555
N8_2 C26_2 1_555 1_555
H13_2 C19_2 1_555 1_555
C20_2 N6_2 1_555 1_555
H14_2 C20_2 1_555 1_555
C21_2 N6_2 1_555 1_555
H15_2 C21_2 1_555 1_555
C22_2 C13_2 1_555 1_555
C23_2 C22_2 1_555 1_555
C24_2 C11_2 1_555 1_555
H17_2 C24_2 1_555 1_555
C25_2 C23_2 1_555 1_555
H18_2 C25_2 1_555 1_555
H19_2 C25_2 1_555 1_555
C26_2 N7_2 1_555 1_555
H20_2 C26_2 1_555 1_555
C27_2 N7_2 1_555 1_555
H21_2 C27_2 1_555 1_555
C28_2 N8_2 1_555 1_555
N9_2 Zn5_3 1_555 1_555
N10_2 C29_2 1_555 1_555
N11_2 C36_2 1_555 1_555
N12_2 Zn6_3 1_555 1_555
C29_2 N9_2 1_555 1_555
H23_2 C29_2 1_555 1_555
C30_2 N9_2 1_555 1_555
H24_2 C30_2 1_555 1_555
C31_2 N10_2 1_555 1_555
H25_2 C31_2 1_555 1_555
C32_2 N10_2 1_555 1_555
H26_2 C32_2 1_555 1_555
H27_2 C32_2 1_555 1_555
C33_2 C32_2 1_555 1_555
C34_2 C33_2 1_555 1_555
C35_2 C34_2 1_555 1_555
H28_2 C35_2 1_555 1_555
C36_2 C34_2 1_555 1_555
H29_2 C36_2 1_555 1_555
H30_2 C36_2 1_555 1_555
C37_2 N11_2 1_555 1_555
H31_2 C37_2 1_555 1_555
C38_2 N11_2 1_555 1_555
H32_2 C38_2 1_555 1_555
C39_2 N12_2 1_555 1_555
H33_2 C39_2 1_555 1_555
N15_2 C47_2 1_555 1_555
N16_2 C48_2 1_555 1_555
H35_2 C41_2 1_555 1_555
C42_2 N14_2 1_555 1_555
H36_2 C42_2 1_555 1_555
C43_2 N14_2 1_555 1_555
H37_2 C43_2 1_555 1_555
C44_2 C35_2 1_555 1_555
C45_2 C44_2 1_555 1_555
C46_2 C33_2 1_555 1_555
H39_2 C46_2 1_555 1_555
C47_2 C45_2 1_555 1_555
H40_2 C47_2 1_555 1_555
H41_2 C47_2 1_555 1_555
C48_2 N15_2 1_555 1_555
H42_2 C48_2 1_555 1_555
C49_2 N15_2 1_555 1_555
H43_2 C49_2 1_555 1_555
C50_2 N16_2 1_555 1_555
Zn9_2 N16_2 1_555 1_555
Zn9 N8_2 1_555 1_555
N17_2 Zn5_3 1_555 1_555
N18_2 Zn5_3 1_555 1_555
N19_2 Zn6_3 1_555 1_555
N20_2 Zn6_3 1_555 1_555
C8_2 C9_2 1_555 1_555
C16_2 C17_2 1_555 1_555
C19_2 C20_2 1_555 1_555
C21_2 C22_2 1_555 1_555
C23_2 C24_2 1_555 1_555
C27_2 C28_2 1_555 1_555
N12_2 C37_2 1_555 1_555
C30_2 C31_2 1_555 1_555
C38_2 C39_2 1_555 1_555
C41_2 C42_2 1_555 1_555
C43_2 C44_2 1_555 1_555
C45_2 C46_2 1_555 1_555
C49_2 C50_2 1_555 1_555
N5_2 C18_2 1_555 1_555
C18_2 H12_2 1_555 1_555
N13_2 C40_2 1_555 1_555
C40_2 H34_2 1_555 1_555
Zn7_2 N13_2 1_555 1_555
Zn7 N5_2 1_555 1_555
Zn8 N1_3 1_555 1_555
N1_3 C7_3 1_555 1_555
N2_3 C7_3 1_555 1_555
N3_3 C14_3 1_555 1_555
C7_3 H1_3 1_555 1_555
C8_3 N1_3 1_555 1_555
H2_3 C8_3 1_555 1_555
C9_3 N2_3 1_555 1_555
H3_3 C9_3 1_555 1_555
C10_3 N2_3 1_555 1_555
H4_3 C10_3 1_555 1_555
H5_3 C10_3 1_555 1_555
C11_3 C10_3 1_555 1_555
C12_3 C11_3 1_555 1_555
C14_3 C12_3 1_555 1_555
H7_3 C14_3 1_555 1_555
H8_3 C14_3 1_555 1_555
C16_3 N3_3 1_555 1_555
H10_3 C16_3 1_555 1_555
H11_3 C17_3 1_555 1_555
N19_2 C26_3 1_555 1_555
C24_3 C11_3 1_555 1_555
H17_3 C24_3 1_555 1_555
H20_3 C26_3 1_555 1_555
N9_3 Zn8 1_555 1_555
N10_3 C29_3 1_555 1_555
N11_3 C36_3 1_555 1_555
C29_3 N9_3 1_555 1_555
H23_3 C29_3 1_555 1_555
C30_3 N9_3 1_555 1_555
H24_3 C30_3 1_555 1_555
C31_3 N10_3 1_555 1_555
H25_3 C31_3 1_555 1_555
C32_3 N10_3 1_555 1_555
H26_3 C32_3 1_555 1_555
H27_3 C32_3 1_555 1_555
C33_3 C32_3 1_555 1_555
C34_3 C33_3 1_555 1_555
C36_3 C34_3 1_555 1_555
H29_3 C36_3 1_555 1_555
H30_3 C36_3 1_555 1_555
C38_3 N11_3 1_555 1_555
H32_3 C38_3 1_555 1_555
H33_3 C39_3 1_555 1_555
C8_3 C9_3 1_555 1_555
C16_3 C17_3 1_555 1_555
C30_3 C31_3 1_555 1_555
C38_3 C39_3 1_555 1_555
Zn10 N4_3 1_555 1_555
N4_3 C15_3 1_555 1_555
H6_3 C13_3 1_555 1_555
H9_3 C15_3 1_555 1_555
N17_2 C18_3 1_555 1_555
N6_3 C18_3 1_555 1_555
N7_3 C25_3 1_555 1_555
C18_3 H12_3 1_555 1_555
C19_3 N17_2 1_555 1_555
H13_3 C19_3 1_555 1_555
C20_3 N6_3 1_555 1_555
H14_3 C20_3 1_555 1_555
C21_3 N6_3 1_555 1_555
H15_3 C21_3 1_555 1_555
H16_3 C21_3 1_555 1_555
C22_3 C13_3 1_555 1_555
C23_3 C22_3 1_555 1_555
C25_3 C23_3 1_555 1_555
H18_3 C25_3 1_555 1_555
H19_3 C25_3 1_555 1_555
C27_3 N7_3 1_555 1_555
H21_3 C27_3 1_555 1_555
H22_3 C28_3 1_555 1_555
N12_3 Zn10 1_555 1_555
H28_3 C35_3 1_555 1_555
H31_3 C37_3 1_555 1_555
C19_3 C20_3 1_555 1_555
C21_3 C22_3 1_555 1_555
C27_3 C28_3 1_555 1_555
N12_3 C37_3 1_555 1_555
N20_2 C48_3 1_555 1_555
H39_3 C46_3 1_555 1_555
H42_3 C48_3 1_555 1_555
N18_2 C40_3 1_555 1_555
N14_3 C40_3 1_555 1_555
N15_3 C47_3 1_555 1_555
C40_3 H34_3 1_555 1_555
C41_3 N18_2 1_555 1_555
H35_3 C41_3 1_555 1_555
C42_3 N14_3 1_555 1_555
H36_3 C42_3 1_555 1_555
C43_3 N14_3 1_555 1_555
H37_3 C43_3 1_555 1_555
H38_3 C43_3 1_555 1_555
C45_3 C44_3 1_555 1_555
C47_3 C45_3 1_555 1_555
H40_3 C47_3 1_555 1_555
H41_3 C47_3 1_555 1_555
C49_3 N15_3 1_555 1_555
H43_3 C49_3 1_555 1_555
H44_3 C50_3 1_555 1_555
C41_3 C42_3 1_555 1_555
C43_3 C44_3 1_555 1_555
C49_3 C50_3 1_555 1_555
C41_4 N18 1_555 1_555
H35_4 C41_4 1_555 1_555
C42_4 N14_4 1_555 1_555
H36_4 C42_4 1_555 1_555
C41_4 C42_4 1_555 1_555
Zn7 N1_4 1_555 1_555
C8_4 N1_4 1_555 1_555
H2_4 C8_4 1_555 1_555
C9_4 N2_4 1_555 1_555
H3_4 C9_4 1_555 1_555
N7_4 C25_4 1_555 1_555
N19 C26_4 1_555 1_555
C18_4 H12_4 1_555 1_555
H15_4 C21_4 1_555 1_555
C23_4 C22_4 1_555 1_555
H17_4 C24_4 1_555 1_555
C25_4 C23_4 1_555 1_555
H18_4 C25_4 1_555 1_555
H19_4 C25_4 1_555 1_555
C26_4 N7_4 1_555 1_555
H20_4 C26_4 1_555 1_555
C27_4 N7_4 1_555 1_555
H21_4 C27_4 1_555 1_555
C28_4 N19 1_555 1_555
H22_4 C28_4 1_555 1_555
N11_4 C36_4 1_555 1_555
N12_4 Zn9 1_555 1_555
H23_4 C29_4 1_555 1_555
H26_4 C32_4 1_555 1_555
C33_4 C32_4 1_555 1_555
C34_4 C33_4 1_555 1_555
C35_4 C34_4 1_555 1_555
H28_4 C35_4 1_555 1_555
C36_4 C34_4 1_555 1_555
H29_4 C36_4 1_555 1_555
H30_4 C36_4 1_555 1_555
C37_4 N11_4 1_555 1_555
H31_4 C37_4 1_555 1_555
C38_4 N11_4 1_555 1_555
H32_4 C38_4 1_555 1_555
C39_4 N12_4 1_555 1_555
H33_4 C39_4 1_555 1_555
C8_4 C9_4 1_555 1_555
C21_4 C22_4 1_555 1_555
C23_4 C24_4 1_555 1_555
C27_4 C28_4 1_555 1_555
N12_4 C37_4 1_555 1_555
C38_4 C39_4 1_555 1_555
N15_4 C47_4 1_555 1_555
N20 C48_4 1_555 1_555
C40_4 H34_4 1_555 1_555
H37_4 C43_4 1_555 1_555
C45_4 C44_4 1_555 1_555
H39_4 C46_4 1_555 1_555
C47_4 C45_4 1_555 1_555
H40_4 C47_4 1_555 1_555
H41_4 C47_4 1_555 1_555
C48_4 N15_4 1_555 1_555
H42_4 C48_4 1_555 1_555
C49_4 N15_4 1_555 1_555
H43_4 C49_4 1_555 1_555
C50_4 N20 1_555 1_555
H44_4 C50_4 1_555 1_555
C43_4 C44_4 1_555 1_555
C45_4 C46_4 1_555 1_555
C49_4 C50_4 1_555 1_555
Zn9_2 N4_4 1_555 1_555
N3_4 C14_4 1_555 1_555
N4_4 C15_4 1_555 1_555
C7_4 H1_4 1_555 1_555
H4_4 C10_4 1_555 1_555
C11_4 C10_4 1_555 1_555
C12_4 C11_4 1_555 1_555
C13_4 C12_4 1_555 1_555
H6_4 C13_4 1_555 1_555
C14_4 C12_4 1_555 1_555
H7_4 C14_4 1_555 1_555
H8_4 C14_4 1_555 1_555
C15_4 N3_4 1_555 1_555
H9_4 C15_4 1_555 1_555
C16_4 N3_4 1_555 1_555
H10_4 C16_4 1_555 1_555
C17_4 N4_4 1_555 1_555
H11_4 C17_4 1_555 1_555
C19_4 N17 1_555 1_555
H13_4 C19_4 1_555 1_555
C20_4 N6_4 1_555 1_555
H14_4 C20_4 1_555 1_555
N9_4 Zn7_2 1_555 1_555
C30_4 N9_4 1_555 1_555
H24_4 C30_4 1_555 1_555
C31_4 N10_4 1_555 1_555
H25_4 C31_4 1_555 1_555
C16_4 C17_4 1_555 1_555
C19_4 C20_4 1_555 1_555
C30_4 C31_4 1_555 1_555

#END
