
###############################################################################
#
# This file contains modified crystal structure data generated from the
# MOF subset of the Cambridge Structural Database (CSD) v543 
# hosted by the Cambridge Crystallographic Data Centre (CCDC).
#
# This work is licensed under the Creative Commons
# Attribution-NonCommercial-ShareAlike 4.0 International License.
# To view a copy of this license, visit
# http://creativecommons.org/licenses/by-nc-sa/4.0/
# or send a letter to
# Creative Commons, PO Box 1866, Mountain View, CA 94042, USA.
#
# CIF created using the CSD Python API on 29 September 2022
# The structure has been converted into the P1 space group
# The structure has a 3D framework
# The original CSD entry RIYBOS is in the orthorhombic crystal system
# The framework has been calculated to contain at least 10.0% void space
# The void calculation uses a probe of radius 1.32A, grid spacing 0.4
#
###############################################################################

data_RIYBOS
_chemical_formula_moiety         '(C288 H192 I48 N96 Zn24)n'
_symmetry_cell_setting           triclinic
_symmetry_space_group_name_H-M   'P 1'
_symmetry_Int_Tables_number      1
_space_group_name_Hall           'P 1'
loop_
_symmetry_equiv_pos_site_id
_symmetry_equiv_pos_as_xyz
1 x,y,z
_cell_length_a                   27.5504(3)
_cell_length_b                   13.83530(19)
_cell_length_c                   44.5398(6)
_cell_angle_alpha                90
_cell_angle_beta                 90
_cell_angle_gamma                90
_cell_volume                     16977.1
loop_
_atom_site_label
_atom_site_type_symbol
_atom_site_fract_x
_atom_site_fract_y
_atom_site_fract_z
I2 I 0.82513(4) 0.67590(9) 0.33574(2)
I4 I 0.69774(4) 0.83015(6) 0.31549(2)
Zn1 Zn 0.73991(4) 0.67407(7) 0.32121(2)
N5 N 0.5528(2) 0.0074(5) 0.42481(16)
N6 N 0.6124(2) 0.4876(4) 0.44343(14)
N7 N 0.6236(2) 0.3399(4) 0.41670(15)
N8 N 0.7005(3) 0.5929(5) 0.35059(14)
N9 N 0.5795(2) 0.3426(4) 0.46259(14)
C9 C 0.2759(3) 0.0241(5) 0.27626(15)
C10 C 0.5972(3) 0.2974(5) 0.43859(17)
C11 C 0.5891(3) 0.4372(5) 0.46433(15)
C12 C 0.7027(3) 0.4976(6) 0.35131(19)
H5 H 0.7208 0.4650 0.3362
C14 C 0.5450(3) 0.4923(6) 0.54175(17)
H7 H 0.5328 0.4584 0.5587
C16 C 0.5574(3) 0.4405(5) 0.51646(16)
H8 H 0.5550 0.3720 0.5163
C18 C 0.5631(3) 0.6357(6) 0.51849(18)
H10 H 0.5641 0.7043 0.5188
C19 C 0.6288(3) 0.4357(5) 0.41999(17)
C20 C 0.5849(3) 0.1936(5) 0.43457(17)
C22 C 0.5456(3) 0.0525(6) 0.4510(2)
H12 H 0.5292 0.0185 0.4666
C24 C 0.5765(3) 0.0560(6) 0.4033(2)
H14 H 0.5818 0.0255 0.3845
C25 C 0.5605(3) 0.1442(6) 0.4566(2)
H15 H 0.5541 0.1738 0.4754
C26 C 0.6534(3) 0.4894(6) 0.39556(17)
C27 C 0.5935(3) 0.1487(5) 0.40756(19)
H16 H 0.6108 0.1810 0.3921
C28 C 0.6512(4) 0.5879(6) 0.3947(2)
H17 H 0.6344 0.6218 0.4100
C29 C 0.5753(3) 0.5901(6) 0.4928(2)
H18 H 0.5853 0.6266 0.4758
C30 C 0.5735(2) 0.4896(5) 0.49114(17)
C31 C 0.6790(3) 0.4420(6) 0.3739(2)
H19 H 0.6810 0.3735 0.3739
C32 C 0.6728(4) 0.6381(7) 0.3719(2)
H20 H 0.6686 0.7062 0.3709
N11 N 0.5495(2) 0.5899(5) 0.54337(14)
C33 C 0.3170(3) 0.0573(6) 0.26017(17)
H21 H 0.3483 0.0540 0.2690
C34 C 0.2320(3) 0.0262(5) 0.26169(16)
H22 H 0.2037 0.0024 0.2714
C35 C 0.2290(3) 0.0630(5) 0.23272(16)
H23 H 0.1982 0.0638 0.2230
C36 C 0.3115(3) 0.0936(6) 0.23212(18)
H24 H 0.3392 0.1176 0.2218
N12 N 0.2671(2) 0.0968(5) 0.21808(14)
Zn4 Zn 0.26009(4) 0.17407(7) 0.17879(2)
Zn5 Zn 0.54602(3) 0.65556(8) 0.58434(2)
N14 N 0.7329(2) 0.5968(5) 0.28192(14)
C14_2 C 0.9550(3) 0.5077(6) 0.04175(17)
H7_2 H 0.9672 0.5416 0.0587
C16_2 C 0.9426(3) 0.5595(5) 0.01646(16)
H8_2 H 0.9450 0.6280 0.0163
C18_2 C 0.9369(3) 0.3643(6) 0.01849(18)
H10_2 H 0.9359 0.2957 0.0188
N11_2 N 0.9505(2) 0.4101(5) 0.04337(14)
Zn5_2 Zn 0.95398(3) 0.34444(8) 0.08434(2)
I2_2 I 0.67487(4) 0.32410(9) 0.83574(2)
I4_2 I 0.80226(4) 0.16985(6) 0.81549(2)
Zn1_2 Zn 0.76009(4) 0.32593(7) 0.82121(2)
N5_2 N 0.9472(2) 0.9926(5) 0.92481(16)
N6_2 N 0.8876(2) 0.5124(4) 0.94343(14)
N7_2 N 0.8764(2) 0.6601(4) 0.91670(15)
N8_2 N 0.7995(3) 0.4071(5) 0.85059(14)
N9_2 N 0.9205(2) 0.6574(4) 0.96259(14)
C10_2 C 0.9028(3) 0.7026(5) 0.93859(17)
C11_2 C 0.9109(3) 0.5628(5) 0.96433(15)
C12_2 C 0.7973(3) 0.5024(6) 0.85131(19)
H5_2 H 0.7792 0.5350 0.8362
C19_2 C 0.8712(3) 0.5643(5) 0.91999(17)
C20_2 C 0.9151(3) 0.8064(5) 0.93457(17)
C22_2 C 0.9544(3) 0.9475(6) 0.9510(2)
H12_2 H 0.9708 0.9815 0.9666
C24_2 C 0.9235(3) 0.9440(6) 0.9033(2)
H14_2 H 0.9182 0.9745 0.8845
C25_2 C 0.9395(3) 0.8558(6) 0.9566(2)
H15_2 H 0.9459 0.8262 0.9754
C26_2 C 0.8466(3) 0.5106(6) 0.89556(17)
C27_2 C 0.9065(3) 0.8513(5) 0.90756(19)
H16_2 H 0.8892 0.8190 0.8921
C28_2 C 0.8488(4) 0.4121(6) 0.8947(2)
H17_2 H 0.8656 0.3782 0.9100
C29_2 C 0.9247(3) 0.4099(6) 0.9928(2)
H18_2 H 0.9147 0.3734 0.9758
C30_2 C 0.9265(2) 0.5104(5) 0.99114(17)
C31_2 C 0.8210(3) 0.5580(6) 0.8739(2)
H19_2 H 0.8190 0.6265 0.8739
C32_2 C 0.8272(4) 0.3619(7) 0.8719(2)
H20_2 H 0.8314 0.2938 0.8709
N14_2 N 0.7671(2) 0.4032(5) 0.78192(14)
I1 I 0.55983(3) 0.82864(6) 0.57782(2)
I6 I 0.48380(3) 0.58091(14) 0.61294(3)
N1 N 0.7375(2) 0.5202(4) 0.67821(13)
N2 N 0.9581(2) 0.5900(4) 0.60572(16)
N3 N 0.7837(2) 0.5594(4) 0.63459(12)
N4 N 0.8236(2) 0.5201(4) 0.68009(12)
C1 C 0.9161(3) 0.5917(6) 0.59123(19)
H1 H 0.9164 0.6032 0.5702
C2 C 0.6955(3) 0.5914(5) 0.60247(15)
H2 H 0.7250 0.5970 0.5916
C3 C 0.7415(2) 0.5469(4) 0.64922(14)
N10 N 0.6093(2) 0.6046(4) 0.60317(13)
C4 C 0.9141(3) 0.5542(6) 0.65043(19)
H3 H 0.9147 0.5387 0.6712
C5 C 0.7801(2) 0.5086(4) 0.69214(15)
C6 C 0.6961(3) 0.5627(5) 0.63274(15)
C7 C 0.8702(3) 0.5594(5) 0.63555(17)
C8 C 0.6514(3) 0.5540(5) 0.64686(16)
H4 H 0.6498 0.5343 0.6673
C9_2 C 0.7759(3) 0.4759(5) 0.72374(15)
C13 C 0.6097(3) 0.5737(5) 0.63159(16)
H6 H 0.5796 0.5651 0.6416
C15 C 0.8232(3) 0.5453(5) 0.65119(16)
C17 C 0.8715(3) 0.5774(5) 0.60547(18)
H9 H 0.8422 0.5802 0.5942
C21 C 0.9563(3) 0.5710(6) 0.6357(2)
H11 H 0.9859 0.5695 0.6468
C23 C 0.6532(3) 0.6107(6) 0.58911(17)
H13 H 0.6536 0.6299 0.5686
C33_2 C 0.8170(3) 0.4427(6) 0.73983(17)
H21_2 H 0.8483 0.4460 0.7310
C34_2 C 0.7320(3) 0.4738(5) 0.73831(16)
H22_2 H 0.7037 0.4976 0.7286
C35_2 C 0.7290(3) 0.4370(5) 0.76728(16)
H23_2 H 0.6982 0.4362 0.7770
C36_2 C 0.8115(3) 0.4064(6) 0.76788(18)
H24_2 H 0.8392 0.3824 0.7782
I2_3 I 0.17487(4) 0.17590(9) 0.16426(2)
I4_3 I 0.30226(4) 0.33015(6) 0.18451(2)
N8_3 N 0.2995(3) 0.0929(5) 0.14941(14)
C28_3 C 0.3488(4) 0.0879(6) 0.1053(2)
H17_3 H 0.3656 0.1218 0.0900
C29_3 C 0.4247(3) 0.0901(6) 0.0072(2)
H18_3 H 0.4147 0.1266 0.0242
C32_3 C 0.3272(4) 0.1381(7) 0.1281(2)
H20_3 H 0.3314 0.2062 0.1291
I1_2 I 0.94017(3) 0.17136(6) 0.07782(2)
I3 I 0.49760(3) 0.29960(6) 0.03709(2)
I5 I 0.42769(3) 0.29990(7) 0.12246(3)
Zn2 Zn 0.47772(3) 0.37545(6) 0.08477(2)
N1_2 N 0.7625(2) 0.4798(4) 0.17821(13)
N2_2 N 0.5419(2) 0.4100(4) 0.10572(16)
N3_2 N 0.7163(2) 0.4406(4) 0.13459(12)
N4_2 N 0.6764(2) 0.4799(4) 0.18009(12)
N5_3 N 0.4472(2) 0.5074(5) 0.07519(16)
N6_3 N 0.3876(2) 0.9876(4) 0.05657(14)
N7_3 N 0.3764(2) 0.8399(4) 0.08330(15)
N9_3 N 0.4205(2) 0.8426(4) 0.03741(14)
C1_2 C 0.5839(3) 0.4083(6) 0.09123(19)
H1_2 H 0.5836 0.3968 0.0702
C2_2 C 0.8045(3) 0.4086(5) 0.10247(15)
H2_2 H 0.7750 0.4030 0.0916
C3_2 C 0.7585(2) 0.4531(4) 0.14922(14)
N10_2 N 0.8907(2) 0.3954(4) 0.10317(13)
C4_2 C 0.5859(3) 0.4458(6) 0.15043(19)
H3_2 H 0.5853 0.4613 0.1712
C5_2 C 0.7199(2) 0.4914(4) 0.19214(15)
C6_2 C 0.8039(3) 0.4373(5) 0.13274(15)
C7_2 C 0.6298(3) 0.4406(5) 0.13555(17)
C8_2 C 0.8486(3) 0.4460(5) 0.14686(16)
H4_2 H 0.8502 0.4657 0.1673
C9_3 C 0.7241(3) 0.5241(5) 0.22374(15)
C10_3 C 0.4028(3) 0.7974(5) 0.06141(17)
C11_3 C 0.4109(3) 0.9372(5) 0.03567(15)
C12_3 C 0.2973(3) 0.9976(6) 0.14869(19)
H5_3 H 0.2792 0.9650 0.1638
C13_2 C 0.8903(3) 0.4263(5) 0.13159(16)
H6_2 H 0.9204 0.4349 0.1416
C15_2 C 0.6768(3) 0.4547(5) 0.15119(16)
C17_2 C 0.6285(3) 0.4226(5) 0.10547(18)
H9_2 H 0.6578 0.4198 0.0942
C19_3 C 0.3712(3) 0.9357(5) 0.08001(17)
C20_3 C 0.4151(3) 0.6936(5) 0.06543(17)
C21_2 C 0.5437(3) 0.4290(6) 0.1357(2)
H11_2 H 0.5141 0.4305 0.1468
C22_3 C 0.4544(3) 0.5525(6) 0.0490(2)
H12_3 H 0.4708 0.5185 0.0334
C23_2 C 0.8468(3) 0.3893(6) 0.08911(17)
H13_2 H 0.8464 0.3701 0.0686
C24_3 C 0.4235(3) 0.5560(6) 0.0967(2)
H14_3 H 0.4182 0.5255 0.1155
C25_3 C 0.4395(3) 0.6442(6) 0.0434(2)
H15_3 H 0.4459 0.6738 0.0246
C26_3 C 0.3466(3) 0.9894(6) 0.10444(17)
C27_3 C 0.4065(3) 0.6487(5) 0.09244(19)
H16_3 H 0.3892 0.6810 0.1079
C30_3 C 0.4265(2) 0.9896(5) 0.00886(17)
C31_3 C 0.3210(3) 0.9420(6) 0.1261(2)
H19_3 H 0.3190 0.8735 0.1261
C33_3 C 0.6830(3) 0.5573(6) 0.23983(17)
H21_3 H 0.6517 0.5540 0.2310
C34_3 C 0.7680(3) 0.5262(5) 0.23831(16)
H22_3 H 0.7963 0.5024 0.2286
C35_3 C 0.7710(3) 0.5630(5) 0.26728(16)
H23_3 H 0.8018 0.5638 0.2770
C36_3 C 0.6885(3) 0.5936(6) 0.26788(18)
H24_3 H 0.6608 0.6176 0.2782
I1_3 I 0.05983(3) 0.67136(6) 0.42218(2)
I3_2 I 0.50240(3) 0.79960(6) 0.46291(2)
I5_2 I 0.57231(3) 0.79990(7) 0.37754(3)
Zn2_2 Zn 0.52228(3) 0.87545(6) 0.41523(2)
Zn3 Zn 0.04602(3) 0.84444(8) 0.41566(2)
N1_3 N 0.2375(2) 0.9798(4) 0.32179(13)
N2_3 N 0.4581(2) 0.9100(4) 0.39428(16)
N3_3 N 0.2837(2) 0.9406(4) 0.36541(12)
N4_3 N 0.3236(2) 0.9799(4) 0.31991(12)
C1_3 C 0.4161(3) 0.9083(6) 0.40877(19)
H1_3 H 0.4164 0.8968 0.4298
C2_3 C 0.1955(3) 0.9086(5) 0.39753(15)
H2_3 H 0.2250 0.9030 0.4084
C3_3 C 0.2415(2) 0.9531(4) 0.35078(14)
N10_3 N 0.1093(2) 0.8954(4) 0.39683(13)
C4_3 C 0.4141(3) 0.9458(6) 0.34957(19)
H3_3 H 0.4147 0.9613 0.3288
C5_3 C 0.2801(2) 0.9914(4) 0.30786(15)
C6_3 C 0.1961(3) 0.9373(5) 0.36726(15)
C7_3 C 0.3702(3) 0.9406(5) 0.36445(17)
C8_3 C 0.1514(3) 0.9460(5) 0.35314(16)
H4_3 H 0.1498 0.9657 0.3327
C13_3 C 0.1097(3) 0.9263(5) 0.36841(16)
H6_3 H 0.0796 0.9349 0.3584
C15_3 C 0.3232(3) 0.9547(5) 0.34881(16)
C17_3 C 0.3715(3) 0.9226(5) 0.39453(18)
H9_3 H 0.3422 0.9198 0.4058
C21_3 C 0.4563(3) 0.9290(6) 0.3643(2)
H11_3 H 0.4859 0.9305 0.3532
C23_3 C 0.1532(3) 0.8893(6) 0.41089(17)
H13_3 H 0.1536 0.8701 0.4314
N13 N 0.0495(2) 0.9101(5) 0.45663(14)
C9_4 C 0.2241(3) 0.9759(5) 0.77626(15)
C33_4 C 0.1830(3) 0.9427(6) 0.76017(17)
H21_4 H 0.1517 0.9460 0.7690
C34_4 C 0.2680(3) 0.9738(5) 0.76169(16)
H22_4 H 0.2963 0.9976 0.7714
C35_4 C 0.2710(3) 0.9370(5) 0.73272(16)
H23_4 H 0.3018 0.9362 0.7230
C36_4 C 0.1885(3) 0.9064(6) 0.73212(18)
H24_4 H 0.1608 0.8824 0.7218
N12_2 N 0.2329(2) 0.9032(5) 0.71808(14)
Zn4_2 Zn 0.23991(4) 0.82593(7) 0.67879(2)
I2_4 I 0.32513(4) 0.82410(9) 0.66426(2)
I4_4 I 0.19774(4) 0.66985(6) 0.68451(2)
N8_4 N 0.2005(3) 0.9071(5) 0.64941(14)
C18_3 C 0.0631(3) 0.8643(6) 0.48151(18)
H10_3 H 0.0641 0.7957 0.4812
C28_4 C 0.1512(4) 0.9121(6) 0.6053(2)
H17_4 H 0.1344 0.8782 0.5900
C29_4 C 0.0753(3) 0.9099(6) 0.5072(2)
H18_4 H 0.0853 0.8734 0.5242
C32_4 C 0.1728(4) 0.8619(7) 0.6281(2)
H20_4 H 0.1686 0.7938 0.6291
I6_2 I 0.98380(3) 0.91909(14) 0.38706(3)
I1_4 I 0.44017(3) 0.32864(6) 0.92218(2)
I6_3 I 0.51620(3) 0.08091(14) 0.88706(3)
Zn3_2 Zn 0.45398(3) 0.15556(8) 0.91566(2)
N1_4 N 0.2625(2) 0.0202(4) 0.82179(13)
N2_4 N 0.0419(2) 0.0900(4) 0.89428(16)
N3_4 N 0.2163(2) 0.0594(4) 0.86541(12)
N4_4 N 0.1764(2) 0.0201(4) 0.81991(12)
C1_4 C 0.0839(3) 0.0917(6) 0.90877(19)
H1_4 H 0.0836 0.1032 0.9298
C2_4 C 0.3045(3) 0.0914(5) 0.89753(15)
H2_4 H 0.2750 0.0970 0.9084
C3_4 C 0.2585(2) 0.0469(4) 0.85078(14)
N10_4 N 0.3907(2) 0.1046(4) 0.89683(13)
C4_4 C 0.0859(3) 0.0542(6) 0.84957(19)
H3_4 H 0.0853 0.0387 0.8288
C5_4 C 0.2199(2) 0.0086(4) 0.80786(15)
C6_4 C 0.3039(3) 0.0627(5) 0.86726(15)
C7_4 C 0.1298(3) 0.0594(5) 0.86445(17)
C8_4 C 0.3486(3) 0.0540(5) 0.85314(16)
H4_4 H 0.3502 0.0343 0.8327
C13_4 C 0.3903(3) 0.0737(5) 0.86841(16)
H6_4 H 0.4204 0.0651 0.8584
C15_4 C 0.1768(3) 0.0453(5) 0.84881(16)
C17_4 C 0.1285(3) 0.0774(5) 0.89453(18)
H9_4 H 0.1578 0.0802 0.9058
C21_4 C 0.0437(3) 0.0710(6) 0.8643(2)
H11_4 H 0.0141 0.0695 0.8532
C23_4 C 0.3468(3) 0.1107(6) 0.91089(17)
H13_4 H 0.3464 0.1299 0.9314
N13_2 N 0.4505(2) 0.0899(5) 0.95663(14)
C18_4 C 0.4369(3) 0.1357(6) 0.98151(18)
H10_4 H 0.4359 0.2043 0.9812
I3_3 I 0.99760(3) 0.20040(6) 0.96291(2)
I5_3 I 0.92769(3) 0.20010(7) 0.87754(3)
Zn2_3 Zn 0.97772(3) 0.12455(6) 0.91523(2)
I3_4 I 0.00240(3) 0.70040(6) 0.53709(2)
I5_4 I 0.07231(3) 0.70010(7) 0.62246(3)
Zn2_4 Zn 0.02228(3) 0.62455(6) 0.58477(2)
N5_4 N 0.0528(2) 0.4926(5) 0.57519(16)
N6_4 N 0.1124(2) 0.0124(4) 0.55657(14)
N7_4 N 0.1236(2) 0.1601(4) 0.58330(15)
N9_4 N 0.0795(2) 0.1574(4) 0.53741(14)
C10_4 C 0.0972(3) 0.2026(5) 0.56141(17)
C11_4 C 0.0891(3) 0.0628(5) 0.53567(15)
C12_4 C 0.2027(3) 0.0024(6) 0.64869(19)
H5_4 H 0.2208 0.0350 0.6638
C14_3 C 0.0450(3) 0.0077(6) 0.45825(17)
H7_3 H 0.0328 0.0416 0.4413
C16_3 C 0.0574(3) 0.0595(5) 0.48354(16)
H8_3 H 0.0550 0.1280 0.4837
C19_4 C 0.1288(3) 0.0643(5) 0.58001(17)
C20_4 C 0.0849(3) 0.3064(5) 0.56543(17)
C22_4 C 0.0456(3) 0.4475(6) 0.5490(2)
H12_4 H 0.0292 0.4815 0.5334
C24_4 C 0.0765(3) 0.4440(6) 0.5967(2)
H14_4 H 0.0818 0.4745 0.6155
C25_4 C 0.0605(3) 0.3558(6) 0.5434(2)
H15_4 H 0.0541 0.3262 0.5246
C26_4 C 0.1534(3) 0.0106(6) 0.60444(17)
C27_4 C 0.0935(3) 0.3513(5) 0.59244(19)
H16_4 H 0.1108 0.3190 0.6079
C30_4 C 0.0735(2) 0.0104(5) 0.50886(17)
C31_4 C 0.1790(3) 0.0580(6) 0.6261(2)
H19_4 H 0.1810 0.1265 0.6261
I6_4 I 0.01620(3) 0.41909(14) 0.11294(3)
C14_4 C 0.4550(3) 0.9923(6) 0.95825(17)
H7_4 H 0.4672 0.9584 0.9413
C16_4 C 0.4426(3) 0.9405(5) 0.98354(16)
H8_4 H 0.4450 0.8720 0.9837
I6_5 I 0.01620(3) 0.08091(14) 0.61294(3)
I1_5 I 0.94017(3) 0.32864(6) 0.57782(2)
I3_5 I 0.49760(3) 0.20040(6) 0.53709(2)
I5_5 I 0.42769(3) 0.20010(7) 0.62246(3)
Zn2_5 Zn 0.47772(3) 0.12455(6) 0.58477(2)
Zn3_3 Zn 0.95398(3) 0.15556(8) 0.58434(2)
N1_5 N 0.7625(2) 0.0202(4) 0.67821(13)
N2_5 N 0.5419(2) 0.0900(4) 0.60572(16)
N3_5 N 0.7163(2) 0.0594(4) 0.63459(12)
N4_5 N 0.6764(2) 0.0201(4) 0.68009(12)
C1_5 C 0.5839(3) 0.0917(6) 0.59123(19)
H1_5 H 0.5836 0.1032 0.5702
C2_5 C 0.8045(3) 0.0914(5) 0.60247(15)
H2_5 H 0.7750 0.0970 0.5916
C3_5 C 0.7585(2) 0.0469(4) 0.64922(14)
N10_5 N 0.8907(2) 0.1046(4) 0.60317(13)
C4_5 C 0.5859(3) 0.0542(6) 0.65043(19)
H3_5 H 0.5853 0.0387 0.6712
C5_5 C 0.7199(2) 0.0086(4) 0.69214(15)
C6_5 C 0.8039(3) 0.0627(5) 0.63274(15)
C7_5 C 0.6298(3) 0.0594(5) 0.63555(17)
C8_5 C 0.8486(3) 0.0540(5) 0.64686(16)
H4_5 H 0.8502 0.0343 0.6673
C13_5 C 0.8903(3) 0.0737(5) 0.63159(16)
H6_5 H 0.9204 0.0651 0.6416
C15_5 C 0.6768(3) 0.0453(5) 0.65119(16)
C17_5 C 0.6285(3) 0.0774(5) 0.60547(18)
H9_5 H 0.6578 0.0802 0.5942
C21_5 C 0.5437(3) 0.0710(6) 0.6357(2)
H11_5 H 0.5141 0.0695 0.6468
C23_5 C 0.8468(3) 0.1107(6) 0.58911(17)
H13_5 H 0.8464 0.1299 0.5686
N13_3 N 0.9505(2) 0.0899(5) 0.54337(14)
C9_5 C 0.7759(3) 0.0241(5) 0.22374(15)
C33_5 C 0.8170(3) 0.0573(6) 0.23983(17)
H21_5 H 0.8483 0.0540 0.2310
C34_5 C 0.7320(3) 0.0262(5) 0.23831(16)
H22_5 H 0.7037 0.0024 0.2286
C35_5 C 0.7290(3) 0.0630(5) 0.26728(16)
H23_5 H 0.6982 0.0638 0.2770
C36_5 C 0.8115(3) 0.0936(6) 0.26788(18)
H24_5 H 0.8392 0.1176 0.2782
N12_3 N 0.7671(2) 0.0968(5) 0.28192(14)
Zn4_3 Zn 0.76009(4) 0.17407(7) 0.32121(2)
I2_5 I 0.67487(4) 0.17590(9) 0.33574(2)
I4_5 I 0.80226(4) 0.33015(6) 0.31549(2)
N8_5 N 0.7995(3) 0.0929(5) 0.35059(14)
C18_5 C 0.9369(3) 0.1357(6) 0.51849(18)
H10_5 H 0.9359 0.2043 0.5188
C28_5 C 0.8488(4) 0.0879(6) 0.3947(2)
H17_5 H 0.8656 0.1218 0.4100
C29_5 C 0.9247(3) 0.0901(6) 0.4928(2)
H18_5 H 0.9147 0.1266 0.4758
C32_5 C 0.8272(4) 0.1381(7) 0.3719(2)
H20_5 H 0.8314 0.2062 0.3709
I2_6 I 0.17487(4) 0.32410(9) 0.66426(2)
I4_6 I 0.30226(4) 0.16985(6) 0.68451(2)
Zn1_3 Zn 0.26009(4) 0.32593(7) 0.67879(2)
N5_5 N 0.4472(2) 0.9926(5) 0.57519(16)
N6_5 N 0.3876(2) 0.5124(4) 0.55657(14)
N7_5 N 0.3764(2) 0.6601(4) 0.58330(15)
N8_6 N 0.2995(3) 0.4071(5) 0.64941(14)
N9_5 N 0.4205(2) 0.6574(4) 0.53741(14)
C9_6 C 0.7241(3) 0.9759(5) 0.72374(15)
C10_5 C 0.4028(3) 0.7026(5) 0.56141(17)
C11_5 C 0.4109(3) 0.5628(5) 0.53567(15)
C12_5 C 0.2973(3) 0.5024(6) 0.64869(19)
H5_5 H 0.2792 0.5350 0.6638
C14_5 C 0.4550(3) 0.5077(6) 0.45825(17)
H7_5 H 0.4672 0.5416 0.4413
C16_5 C 0.4426(3) 0.5595(5) 0.48354(16)
H8_5 H 0.4450 0.6280 0.4837
C18_6 C 0.4369(3) 0.3643(6) 0.48151(18)
H10_6 H 0.4359 0.2957 0.4812
C19_5 C 0.3712(3) 0.5643(5) 0.58001(17)
C20_5 C 0.4151(3) 0.8064(5) 0.56543(17)
C22_5 C 0.4544(3) 0.9475(6) 0.5490(2)
H12_5 H 0.4708 0.9815 0.5334
C24_5 C 0.4235(3) 0.9440(6) 0.5967(2)
H14_5 H 0.4182 0.9745 0.6155
C25_5 C 0.4395(3) 0.8558(6) 0.5434(2)
H15_5 H 0.4459 0.8262 0.5246
C26_5 C 0.3466(3) 0.5106(6) 0.60444(17)
C27_5 C 0.4065(3) 0.8513(5) 0.59244(19)
H16_5 H 0.3892 0.8190 0.6079
C28_6 C 0.3488(4) 0.4121(6) 0.6053(2)
H17_6 H 0.3656 0.3782 0.5900
C29_6 C 0.4247(3) 0.4099(6) 0.5072(2)
H18_6 H 0.4147 0.3734 0.5242
C30_5 C 0.4265(2) 0.5104(5) 0.50886(17)
C31_5 C 0.3210(3) 0.5580(6) 0.6261(2)
H19_5 H 0.3190 0.6265 0.6261
C32_6 C 0.3272(4) 0.3619(7) 0.6281(2)
H20_6 H 0.3314 0.2938 0.6291
N11_3 N 0.4505(2) 0.4101(5) 0.45663(14)
C33_6 C 0.6830(3) 0.9427(6) 0.73983(17)
H21_6 H 0.6517 0.9460 0.7310
C34_6 C 0.7680(3) 0.9738(5) 0.73831(16)
H22_6 H 0.7963 0.9976 0.7286
C35_6 C 0.7710(3) 0.9370(5) 0.76728(16)
H23_6 H 0.8018 0.9362 0.7770
C36_6 C 0.6885(3) 0.9064(6) 0.76788(18)
H24_6 H 0.6608 0.8824 0.7782
N12_4 N 0.7329(2) 0.9032(5) 0.78192(14)
Zn4_4 Zn 0.73991(4) 0.82593(7) 0.82121(2)
Zn5_3 Zn 0.45398(3) 0.34444(8) 0.41566(2)
N14_3 N 0.2671(2) 0.4032(5) 0.71808(14)
I2_7 I 0.32513(4) 0.67590(9) 0.16426(2)
I4_7 I 0.19774(4) 0.83015(6) 0.18451(2)
Zn1_4 Zn 0.23991(4) 0.67407(7) 0.17879(2)
N5_6 N 0.0528(2) 0.0074(5) 0.07519(16)
N6_6 N 0.1124(2) 0.4876(4) 0.05657(14)
N7_6 N 0.1236(2) 0.3399(4) 0.08330(15)
N8_7 N 0.2005(3) 0.5929(5) 0.14941(14)
N9_6 N 0.0795(2) 0.3426(4) 0.03741(14)
C10_6 C 0.0972(3) 0.2974(5) 0.06141(17)
C11_6 C 0.0891(3) 0.4372(5) 0.03567(15)
C12_6 C 0.2027(3) 0.4976(6) 0.14869(19)
H5_6 H 0.2208 0.4650 0.1638
C19_6 C 0.1288(3) 0.4357(5) 0.08001(17)
C20_6 C 0.0849(3) 0.1936(5) 0.06543(17)
C22_6 C 0.0456(3) 0.0525(6) 0.0490(2)
H12_6 H 0.0292 0.0185 0.0334
C24_6 C 0.0765(3) 0.0560(6) 0.0967(2)
H14_6 H 0.0818 0.0255 0.1155
C25_6 C 0.0605(3) 0.1442(6) 0.0434(2)
H15_6 H 0.0541 0.1738 0.0246
C26_6 C 0.1534(3) 0.4894(6) 0.10444(17)
C27_6 C 0.0935(3) 0.1487(5) 0.09244(19)
H16_6 H 0.1108 0.1810 0.1079
C28_7 C 0.1512(4) 0.5879(6) 0.1053(2)
H17_7 H 0.1344 0.6218 0.0900
C29_7 C 0.0753(3) 0.5901(6) 0.0072(2)
H18_7 H 0.0853 0.6266 0.0242
C30_6 C 0.0735(2) 0.4896(5) 0.00886(17)
C31_6 C 0.1790(3) 0.4420(6) 0.1261(2)
H19_6 H 0.1810 0.3735 0.1261
C32_7 C 0.1728(4) 0.6381(7) 0.1281(2)
H20_7 H 0.1686 0.7062 0.1291
N14_4 N 0.2329(2) 0.5968(5) 0.21808(14)
C14_6 C 0.0450(3) 0.4923(6) 0.95825(17)
H7_6 H 0.0328 0.4584 0.9413
C16_6 C 0.0574(3) 0.4405(5) 0.98354(16)
H8_6 H 0.0550 0.3720 0.9837
C18_7 C 0.0631(3) 0.6357(6) 0.98151(18)
H10_7 H 0.0641 0.7043 0.9812
N11_4 N 0.0495(2) 0.5899(5) 0.95663(14)
Zn5_4 Zn 0.04602(3) 0.65556(8) 0.91566(2)
I1_6 I 0.44017(3) 0.17136(6) 0.42218(2)
I6_6 I 0.51620(3) 0.41909(14) 0.38706(3)
N1_6 N 0.2625(2) 0.4798(4) 0.32179(13)
N2_6 N 0.0419(2) 0.4100(4) 0.39428(16)
N3_6 N 0.2163(2) 0.4406(4) 0.36541(12)
N4_6 N 0.1764(2) 0.4799(4) 0.31991(12)
C1_6 C 0.0839(3) 0.4083(6) 0.40877(19)
H1_6 H 0.0836 0.3968 0.4298
C2_6 C 0.3045(3) 0.4086(5) 0.39753(15)
H2_6 H 0.2750 0.4030 0.4084
C3_6 C 0.2585(2) 0.4531(4) 0.35078(14)
N10_6 N 0.3907(2) 0.3954(4) 0.39683(13)
C4_6 C 0.0859(3) 0.4458(6) 0.34957(19)
H3_6 H 0.0853 0.4613 0.3288
C5_6 C 0.2199(2) 0.4914(4) 0.30786(15)
C6_6 C 0.3039(3) 0.4373(5) 0.36726(15)
C7_6 C 0.1298(3) 0.4406(5) 0.36445(17)
C8_6 C 0.3486(3) 0.4460(5) 0.35314(16)
H4_6 H 0.3502 0.4657 0.3327
C9_7 C 0.2241(3) 0.5241(5) 0.27626(15)
C13_6 C 0.3903(3) 0.4263(5) 0.36841(16)
H6_6 H 0.4204 0.4349 0.3584
C15_6 C 0.1768(3) 0.4547(5) 0.34881(16)
C17_6 C 0.1285(3) 0.4226(5) 0.39453(18)
H9_6 H 0.1578 0.4198 0.4058
C21_6 C 0.0437(3) 0.4290(6) 0.3643(2)
H11_6 H 0.0141 0.4305 0.3532
C23_6 C 0.3468(3) 0.3893(6) 0.41089(17)
H13_6 H 0.3464 0.3701 0.4314
C33_7 C 0.1830(3) 0.5573(6) 0.26017(17)
H21_7 H 0.1517 0.5540 0.2690
C34_7 C 0.2680(3) 0.5262(5) 0.26169(16)
H22_7 H 0.2963 0.5024 0.2714
C35_7 C 0.2710(3) 0.5630(5) 0.23272(16)
H23_7 H 0.3018 0.5638 0.2230
C36_7 C 0.1885(3) 0.5936(6) 0.23212(18)
H24_7 H 0.1608 0.6176 0.2218
I1_7 I 0.05983(3) 0.82864(6) 0.92218(2)
I3_6 I 0.50240(3) 0.70040(6) 0.96291(2)
I5_6 I 0.57231(3) 0.70010(7) 0.87754(3)
Zn2_6 Zn 0.52228(3) 0.62455(6) 0.91523(2)
N1_7 N 0.2375(2) 0.5202(4) 0.82179(13)
N2_7 N 0.4581(2) 0.5900(4) 0.89428(16)
N3_7 N 0.2837(2) 0.5594(4) 0.86541(12)
N4_7 N 0.3236(2) 0.5201(4) 0.81991(12)
N5_7 N 0.5528(2) 0.4926(5) 0.92481(16)
N6_7 N 0.6124(2) 0.0124(4) 0.94343(14)
N7_7 N 0.6236(2) 0.1601(4) 0.91670(15)
N9_7 N 0.5795(2) 0.1574(4) 0.96259(14)
C1_7 C 0.4161(3) 0.5917(6) 0.90877(19)
H1_7 H 0.4164 0.6032 0.9298
C2_7 C 0.1955(3) 0.5914(5) 0.89753(15)
H2_7 H 0.2250 0.5970 0.9084
C3_7 C 0.2415(2) 0.5469(4) 0.85078(14)
N10_7 N 0.1093(2) 0.6046(4) 0.89683(13)
C4_7 C 0.4141(3) 0.5542(6) 0.84957(19)
H3_7 H 0.4147 0.5387 0.8288
C5_7 C 0.2801(2) 0.5086(4) 0.80786(15)
C6_7 C 0.1961(3) 0.5627(5) 0.86726(15)
C7_7 C 0.3702(3) 0.5594(5) 0.86445(17)
C8_7 C 0.1514(3) 0.5540(5) 0.85314(16)
H4_7 H 0.1498 0.5343 0.8327
C9_8 C 0.2759(3) 0.4759(5) 0.77626(15)
C10_7 C 0.5972(3) 0.2026(5) 0.93859(17)
C11_7 C 0.5891(3) 0.0628(5) 0.96433(15)
C12_7 C 0.7027(3) 0.0024(6) 0.85131(19)
H5_7 H 0.7208 0.0350 0.8362
C13_7 C 0.1097(3) 0.5737(5) 0.86841(16)
H6_7 H 0.0796 0.5651 0.8584
C15_7 C 0.3232(3) 0.5453(5) 0.84881(16)
C17_7 C 0.3715(3) 0.5774(5) 0.89453(18)
H9_7 H 0.3422 0.5802 0.9058
C19_7 C 0.6288(3) 0.0643(5) 0.91999(17)
C20_7 C 0.5849(3) 0.3064(5) 0.93457(17)
C21_7 C 0.4563(3) 0.5710(6) 0.8643(2)
H11_7 H 0.4859 0.5695 0.8532
C22_7 C 0.5456(3) 0.4475(6) 0.9510(2)
H12_7 H 0.5292 0.4815 0.9666
C23_7 C 0.1532(3) 0.6107(6) 0.91089(17)
H13_7 H 0.1536 0.6299 0.9314
C24_7 C 0.5765(3) 0.4440(6) 0.9033(2)
H14_7 H 0.5818 0.4745 0.8845
C25_7 C 0.5605(3) 0.3558(6) 0.9566(2)
H15_7 H 0.5541 0.3262 0.9754
C26_7 C 0.6534(3) 0.0106(6) 0.89556(17)
C27_7 C 0.5935(3) 0.3513(5) 0.90756(19)
H16_7 H 0.6108 0.3190 0.8921
C30_7 C 0.5735(2) 0.0104(5) 0.99114(17)
C31_7 C 0.6790(3) 0.0580(6) 0.8739(2)
H19_7 H 0.6810 0.1265 0.8739
C33_8 C 0.3170(3) 0.4427(6) 0.76017(17)
H21_8 H 0.3483 0.4460 0.7690
C34_8 C 0.2320(3) 0.4738(5) 0.76169(16)
H22_8 H 0.2037 0.4976 0.7714
C35_8 C 0.2290(3) 0.4370(5) 0.73272(16)
H23_8 H 0.1982 0.4362 0.7230
C36_8 C 0.3115(3) 0.4064(6) 0.73212(18)
H24_8 H 0.3392 0.3824 0.7218
I2_8 I 0.82513(4) 0.82410(9) 0.83574(2)
I4_8 I 0.69774(4) 0.66985(6) 0.81549(2)
N8_8 N 0.7005(3) 0.9071(5) 0.85059(14)
C28_8 C 0.6512(4) 0.9121(6) 0.8947(2)
H17_8 H 0.6344 0.8782 0.9100
C29_8 C 0.5753(3) 0.9099(6) 0.9928(2)
H18_8 H 0.5853 0.8734 0.9758
C32_8 C 0.6728(4) 0.8619(7) 0.8719(2)
H20_8 H 0.6686 0.7938 0.8709
I3_7 I 0.00240(3) 0.79960(6) 0.03709(2)
I5_7 I 0.07231(3) 0.79990(7) 0.12246(3)
Zn2_7 Zn 0.02228(3) 0.87545(6) 0.08477(2)
I1_8 I 0.55983(3) 0.67136(6) 0.07782(2)
I6_7 I 0.48380(3) 0.91909(14) 0.11294(3)
Zn3_4 Zn 0.54602(3) 0.84444(8) 0.08434(2)
N1_8 N 0.7375(2) 0.9798(4) 0.17821(13)
N2_8 N 0.9581(2) 0.9100(4) 0.10572(16)
N3_8 N 0.7837(2) 0.9406(4) 0.13459(12)
N4_8 N 0.8236(2) 0.9799(4) 0.18009(12)
C1_8 C 0.9161(3) 0.9083(6) 0.09123(19)
H1_8 H 0.9164 0.8968 0.0702
C2_8 C 0.6955(3) 0.9086(5) 0.10247(15)
H2_8 H 0.7250 0.9030 0.0916
C3_8 C 0.7415(2) 0.9531(4) 0.14922(14)
N10_8 N 0.6093(2) 0.8954(4) 0.10317(13)
C4_8 C 0.9141(3) 0.9458(6) 0.15043(19)
H3_8 H 0.9147 0.9613 0.1712
C5_8 C 0.7801(2) 0.9914(4) 0.19214(15)
C6_8 C 0.6961(3) 0.9373(5) 0.13274(15)
C7_8 C 0.8702(3) 0.9406(5) 0.13555(17)
C8_8 C 0.6514(3) 0.9460(5) 0.14686(16)
H4_8 H 0.6498 0.9657 0.1673
C13_8 C 0.6097(3) 0.9263(5) 0.13159(16)
H6_8 H 0.5796 0.9349 0.1416
C15_8 C 0.8232(3) 0.9547(5) 0.15119(16)
C17_8 C 0.8715(3) 0.9226(5) 0.10547(18)
H9_8 H 0.8422 0.9198 0.0942
C21_8 C 0.9563(3) 0.9290(6) 0.1357(2)
H11_8 H 0.9859 0.9305 0.1468
C23_8 C 0.6532(3) 0.8893(6) 0.08911(17)
H13_8 H 0.6536 0.8701 0.0686
N13_4 N 0.5495(2) 0.9101(5) 0.04337(14)
C18_8 C 0.5631(3) 0.8643(6) 0.01849(18)
H10_8 H 0.5641 0.7957 0.0188
I3_8 I 0.99760(3) 0.29960(6) 0.46291(2)
I5_8 I 0.92769(3) 0.29990(7) 0.37754(3)
Zn2_8 Zn 0.97772(3) 0.37545(6) 0.41523(2)
N5_8 N 0.9472(2) 0.5074(5) 0.42481(16)
N6_8 N 0.8876(2) 0.9876(4) 0.44343(14)
N7_8 N 0.8764(2) 0.8399(4) 0.41670(15)
N9_8 N 0.9205(2) 0.8426(4) 0.46259(14)
C10_8 C 0.9028(3) 0.7974(5) 0.43859(17)
C11_8 C 0.9109(3) 0.9372(5) 0.46433(15)
C12_8 C 0.7973(3) 0.9976(6) 0.35131(19)
H5_8 H 0.7792 0.9650 0.3362
C14_7 C 0.9550(3) 0.9923(6) 0.54175(17)
H7_7 H 0.9672 0.9584 0.5587
C16_7 C 0.9426(3) 0.9405(5) 0.51646(16)
H8_7 H 0.9450 0.8720 0.5163
C19_8 C 0.8712(3) 0.9357(5) 0.41999(17)
C20_8 C 0.9151(3) 0.6936(5) 0.43457(17)
C22_8 C 0.9544(3) 0.5525(6) 0.4510(2)
H12_8 H 0.9708 0.5185 0.4666
C24_8 C 0.9235(3) 0.5560(6) 0.4033(2)
H14_8 H 0.9182 0.5255 0.3845
C25_8 C 0.9395(3) 0.6442(6) 0.4566(2)
H15_8 H 0.9459 0.6738 0.4754
C26_8 C 0.8466(3) 0.9894(6) 0.39556(17)
C27_8 C 0.9065(3) 0.6487(5) 0.40756(19)
H16_8 H 0.8892 0.6810 0.3921
C30_8 C 0.9265(2) 0.9896(5) 0.49114(17)
C31_8 C 0.8210(3) 0.9420(6) 0.3739(2)
H19_8 H 0.8190 0.8735 0.3739
C14_8 C 0.5450(3) 0.0077(6) 0.04175(17)
H7_8 H 0.5328 0.0416 0.0587
C16_8 C 0.5574(3) 0.0595(5) 0.01646(16)
H8_8 H 0.5550 0.1280 0.0163
I6_8 I 0.98380(3) 0.58091(14) 0.88706(3)
loop_
_geom_bond_atom_site_label_1
_geom_bond_atom_site_label_2
_geom_bond_site_symmetry_1
_geom_bond_site_symmetry_2
I2 Zn1 1_555 1_555
I4 Zn1 1_555 1_555
Zn1 N8 1_555 1_555
N6 C11 1_555 1_555
N7 C10 1_555 1_555
N8 C12 1_555 1_555
N9 C10 1_555 1_555
C10 C20 1_555 1_555
C11 N9 1_555 1_555
C12 H5 1_555 1_555
C14 H7 1_555 1_555
C16 C14 1_555 1_555
H8 C16 1_555 1_555
C18 H10 1_555 1_555
C19 N6 1_555 1_555
C20 C25 1_555 1_555
C22 N5 1_555 1_555
H12 C22 1_555 1_555
C24 N5 1_555 1_555
H14 C24 1_555 1_555
C25 C22 1_555 1_555
H15 C25 1_555 1_555
C26 C19 1_555 1_555
C27 C20 1_555 1_555
H16 C27 1_555 1_555
C28 C26 1_555 1_555
H17 C28 1_555 1_555
C29 C18 1_555 1_555
H18 C29 1_555 1_555
C30 C11 1_555 1_555
C31 C12 1_555 1_555
H19 C31 1_555 1_555
C32 N8 1_555 1_555
H20 C32 1_555 1_555
N11 C14 1_555 1_555
C33 C9 1_555 1_555
H21 C33 1_555 1_555
C34 C9 1_555 1_555
H22 C34 1_555 1_555
C35 C34 1_555 1_555
H23 C35 1_555 1_555
C36 C33 1_555 1_555
H24 C36 1_555 1_555
N12 C35 1_555 1_555
Zn4 N12 1_555 1_555
Zn5 N11 1_555 1_555
N14 Zn1 1_555 1_555
N7 C19 1_555 1_555
C16 C30 1_555 1_555
C18 N11 1_555 1_555
C24 C27 1_555 1_555
C26 C31 1_555 1_555
C28 C32 1_555 1_555
C29 C30 1_555 1_555
C36 N12 1_555 1_555
C14_2 H7_2 1_555 1_555
C16_2 C14_2 1_555 1_555
H8_2 C16_2 1_555 1_555
C18_2 H10_2 1_555 1_555
N11_2 C14_2 1_555 1_555
Zn5_2 N11_2 1_555 1_555
C18_2 N11_2 1_555 1_555
I2_2 Zn1_2 1_555 1_555
I4_2 Zn1_2 1_555 1_555
Zn1_2 N8_2 1_555 1_555
N6_2 C11_2 1_555 1_555
N7_2 C10_2 1_555 1_555
N8_2 C12_2 1_555 1_555
N9_2 C10_2 1_555 1_555
C10_2 C20_2 1_555 1_555
C11_2 N9_2 1_555 1_555
C12_2 H5_2 1_555 1_555
C19_2 N6_2 1_555 1_555
C20_2 C25_2 1_555 1_555
C22_2 N5_2 1_555 1_555
H12_2 C22_2 1_555 1_555
C24_2 N5_2 1_555 1_555
H14_2 C24_2 1_555 1_555
C25_2 C22_2 1_555 1_555
H15_2 C25_2 1_555 1_555
C26_2 C19_2 1_555 1_555
C27_2 C20_2 1_555 1_555
H16_2 C27_2 1_555 1_555
C28_2 C26_2 1_555 1_555
H17_2 C28_2 1_555 1_555
H18_2 C29_2 1_555 1_555
C30_2 C11_2 1_555 1_555
C31_2 C12_2 1_555 1_555
H19_2 C31_2 1_555 1_555
C32_2 N8_2 1_555 1_555
H20_2 C32_2 1_555 1_555
N14_2 Zn1_2 1_555 1_555
N7_2 C19_2 1_555 1_555
C24_2 C27_2 1_555 1_555
C26_2 C31_2 1_555 1_555
C28_2 C32_2 1_555 1_555
C29_2 C30_2 1_555 1_555
I1 Zn5 1_555 1_555
I6 Zn5 1_555 1_555
Zn5 N10 1_555 1_555
N1 C3 1_555 1_555
N2 C1 1_555 1_555
N3 C3 1_555 1_555
N4 C5 1_555 1_555
C1 H1 1_555 1_555
C2 H2 1_555 1_555
C3 C6 1_555 1_555
N10 C13 1_555 1_555
C4 H3 1_555 1_555
C5 N1 1_555 1_555
C6 C2 1_555 1_555
C7 C4 1_555 1_555
C8 C6 1_555 1_555
H4 C8 1_555 1_555
C9_2 C5 1_555 1_555
C13 C8 1_555 1_555
H6 C13 1_555 1_555
C15 N3 1_555 1_555
C17 C1 1_555 1_555
H9 C17 1_555 1_555
C21 N2 1_555 1_555
H11 C21 1_555 1_555
C23 C2 1_555 1_555
H13 C23 1_555 1_555
C33_2 C9_2 1_555 1_555
H21_2 C33_2 1_555 1_555
C34_2 C9_2 1_555 1_555
H22_2 C34_2 1_555 1_555
C35_2 C34_2 1_555 1_555
H23_2 C35_2 1_555 1_555
C36_2 C33_2 1_555 1_555
H24_2 C36_2 1_555 1_555
N14_2 C35_2 1_555 1_555
N4 C15 1_555 1_555
N10 C23 1_555 1_555
C4 C21 1_555 1_555
C7 C15 1_555 1_555
C7 C17 1_555 1_555
C36_2 N14_2 1_555 1_555
I2_3 Zn4 1_555 1_555
I4_3 Zn4 1_555 1_555
Zn4 N8_3 1_555 1_555
H17_3 C28_3 1_555 1_555
H18_3 C29_3 1_555 1_555
C32_3 N8_3 1_555 1_555
H20_3 C32_3 1_555 1_555
C28_3 C32_3 1_555 1_555
I1_2 Zn5_2 1_555 1_555
I3 Zn2 1_555 1_555
I5 Zn2 1_555 1_555
Zn2 N2_2 1_555 1_555
Zn5_2 N10_2 1_555 1_555
N1_2 C3_2 1_555 1_555
N2_2 C1_2 1_555 1_555
N3_2 C3_2 1_555 1_555
N4_2 C5_2 1_555 1_555
N5_3 Zn2 1_555 1_555
N6_3 C11_3 1_555 1_555
N7_3 C10_3 1_555 1_555
N9_3 C10_3 1_555 1_555
C1_2 H1_2 1_555 1_555
C2_2 H2_2 1_555 1_555
C3_2 C6_2 1_555 1_555
N10_2 C13_2 1_555 1_555
C4_2 H3_2 1_555 1_555
C5_2 N1_2 1_555 1_555
C6_2 C2_2 1_555 1_555
C7_2 C4_2 1_555 1_555
C8_2 C6_2 1_555 1_555
H4_2 C8_2 1_555 1_555
C9_3 C5_2 1_555 1_555
C10_3 C20_3 1_555 1_555
C11_3 N9_3 1_555 1_555
C12_3 H5_3 1_555 1_555
C13_2 C8_2 1_555 1_555
H6_2 C13_2 1_555 1_555
C15_2 N3_2 1_555 1_555
C17_2 C1_2 1_555 1_555
H9_2 C17_2 1_555 1_555
C19_3 N6_3 1_555 1_555
C20_3 C25_3 1_555 1_555
C21_2 N2_2 1_555 1_555
H11_2 C21_2 1_555 1_555
C22_3 N5_3 1_555 1_555
H12_3 C22_3 1_555 1_555
C23_2 C2_2 1_555 1_555
H13_2 C23_2 1_555 1_555
C24_3 N5_3 1_555 1_555
H14_3 C24_3 1_555 1_555
C25_3 C22_3 1_555 1_555
H15_3 C25_3 1_555 1_555
C26_3 C19_3 1_555 1_555
C27_3 C20_3 1_555 1_555
H16_3 C27_3 1_555 1_555
C30_3 C11_3 1_555 1_555
C31_3 C12_3 1_555 1_555
H19_3 C31_3 1_555 1_555
C33_3 C9_3 1_555 1_555
H21_3 C33_3 1_555 1_555
C34_3 C9_3 1_555 1_555
H22_3 C34_3 1_555 1_555
C35_3 C34_3 1_555 1_555
H23_3 C35_3 1_555 1_555
C36_3 C33_3 1_555 1_555
H24_3 C36_3 1_555 1_555
N14 C35_3 1_555 1_555
N4_2 C15_2 1_555 1_555
N7_3 C19_3 1_555 1_555
N10_2 C23_2 1_555 1_555
C4_2 C21_2 1_555 1_555
C7_2 C15_2 1_555 1_555
C7_2 C17_2 1_555 1_555
C24_3 C27_3 1_555 1_555
C26_3 C31_3 1_555 1_555
C36_3 N14 1_555 1_555
I1_3 Zn3 1_555 1_555
I3_2 Zn2_2 1_555 1_555
I5_2 Zn2_2 1_555 1_555
Zn2_2 N2_3 1_555 1_555
Zn3 N10_3 1_555 1_555
N1_3 C3_3 1_555 1_555
N2_3 C1_3 1_555 1_555
N3_3 C3_3 1_555 1_555
N4_3 C5_3 1_555 1_555
C1_3 H1_3 1_555 1_555
C2_3 H2_3 1_555 1_555
C3_3 C6_3 1_555 1_555
N10_3 C13_3 1_555 1_555
C4_3 H3_3 1_555 1_555
C5_3 N1_3 1_555 1_555
C6_3 C2_3 1_555 1_555
C7_3 C4_3 1_555 1_555
C8_3 C6_3 1_555 1_555
H4_3 C8_3 1_555 1_555
C13_3 C8_3 1_555 1_555
H6_3 C13_3 1_555 1_555
C15_3 N3_3 1_555 1_555
C17_3 C1_3 1_555 1_555
H9_3 C17_3 1_555 1_555
C21_3 N2_3 1_555 1_555
H11_3 C21_3 1_555 1_555
C23_3 C2_3 1_555 1_555
H13_3 C23_3 1_555 1_555
N13 Zn3 1_555 1_555
N4_3 C15_3 1_555 1_555
N10_3 C23_3 1_555 1_555
C4_3 C21_3 1_555 1_555
C7_3 C15_3 1_555 1_555
C7_3 C17_3 1_555 1_555
C33_4 C9_4 1_555 1_555
H21_4 C33_4 1_555 1_555
C34_4 C9_4 1_555 1_555
H22_4 C34_4 1_555 1_555
C35_4 C34_4 1_555 1_555
H23_4 C35_4 1_555 1_555
C36_4 C33_4 1_555 1_555
H24_4 C36_4 1_555 1_555
N12_2 C35_4 1_555 1_555
Zn4_2 N12_2 1_555 1_555
C36_4 N12_2 1_555 1_555
I2_4 Zn4_2 1_555 1_555
I4_4 Zn4_2 1_555 1_555
Zn4_2 N8_4 1_555 1_555
C18_3 H10_3 1_555 1_555
H17_4 C28_4 1_555 1_555
C29_4 C18_3 1_555 1_555
H18_4 C29_4 1_555 1_555
C32_4 N8_4 1_555 1_555
H20_4 C32_4 1_555 1_555
C18_3 N13 1_555 1_555
C28_4 C32_4 1_555 1_555
I1_4 Zn3_2 1_555 1_555
I6_3 Zn3_2 1_555 1_555
Zn3_2 N10_4 1_555 1_555
N1_4 C3_4 1_555 1_555
N2_4 C1_4 1_555 1_555
N3_4 C3_4 1_555 1_555
N4_4 C5_4 1_555 1_555
C1_4 H1_4 1_555 1_555
C2_4 H2_4 1_555 1_555
C3_4 C6_4 1_555 1_555
N10_4 C13_4 1_555 1_555
C4_4 H3_4 1_555 1_555
C5_4 N1_4 1_555 1_555
C6_4 C2_4 1_555 1_555
C7_4 C4_4 1_555 1_555
C8_4 C6_4 1_555 1_555
H4_4 C8_4 1_555 1_555
C13_4 C8_4 1_555 1_555
H6_4 C13_4 1_555 1_555
C15_4 N3_4 1_555 1_555
C17_4 C1_4 1_555 1_555
H9_4 C17_4 1_555 1_555
C21_4 N2_4 1_555 1_555
H11_4 C21_4 1_555 1_555
C23_4 C2_4 1_555 1_555
H13_4 C23_4 1_555 1_555
N13_2 Zn3_2 1_555 1_555
N4_4 C15_4 1_555 1_555
N10_4 C23_4 1_555 1_555
C4_4 C21_4 1_555 1_555
C7_4 C15_4 1_555 1_555
C7_4 C17_4 1_555 1_555
C18_4 H10_4 1_555 1_555
C18_4 N13_2 1_555 1_555
I3_3 Zn2_3 1_555 1_555
I5_3 Zn2_3 1_555 1_555
I3_4 Zn2_4 1_555 1_555
I5_4 Zn2_4 1_555 1_555
N5_4 Zn2_4 1_555 1_555
N6_4 C11_4 1_555 1_555
N7_4 C10_4 1_555 1_555
N9_4 C10_4 1_555 1_555
C10_4 C20_4 1_555 1_555
C11_4 N9_4 1_555 1_555
C12_4 H5_4 1_555 1_555
C14_3 H7_3 1_555 1_555
C16_3 C14_3 1_555 1_555
H8_3 C16_3 1_555 1_555
C19_4 N6_4 1_555 1_555
C20_4 C25_4 1_555 1_555
C22_4 N5_4 1_555 1_555
H12_4 C22_4 1_555 1_555
C24_4 N5_4 1_555 1_555
H14_4 C24_4 1_555 1_555
C25_4 C22_4 1_555 1_555
H15_4 C25_4 1_555 1_555
C26_4 C19_4 1_555 1_555
C27_4 C20_4 1_555 1_555
H16_4 C27_4 1_555 1_555
C30_4 C11_4 1_555 1_555
C31_4 C12_4 1_555 1_555
H19_4 C31_4 1_555 1_555
N7_4 C19_4 1_555 1_555
C16_3 C30_4 1_555 1_555
C24_4 C27_4 1_555 1_555
C26_4 C31_4 1_555 1_555
C14_4 H7_4 1_555 1_555
C16_4 C14_4 1_555 1_555
H8_4 C16_4 1_555 1_555
I1_5 Zn3_3 1_555 1_555
I3_5 Zn2_5 1_555 1_555
I5_5 Zn2_5 1_555 1_555
Zn2_5 N2_5 1_555 1_555
Zn3_3 N10_5 1_555 1_555
N1_5 C3_5 1_555 1_555
N2_5 C1_5 1_555 1_555
N3_5 C3_5 1_555 1_555
N4_5 C5_5 1_555 1_555
C1_5 H1_5 1_555 1_555
C2_5 H2_5 1_555 1_555
C3_5 C6_5 1_555 1_555
N10_5 C13_5 1_555 1_555
C4_5 H3_5 1_555 1_555
C5_5 N1_5 1_555 1_555
C6_5 C2_5 1_555 1_555
C7_5 C4_5 1_555 1_555
C8_5 C6_5 1_555 1_555
H4_5 C8_5 1_555 1_555
C13_5 C8_5 1_555 1_555
H6_5 C13_5 1_555 1_555
C15_5 N3_5 1_555 1_555
C17_5 C1_5 1_555 1_555
H9_5 C17_5 1_555 1_555
C21_5 N2_5 1_555 1_555
H11_5 C21_5 1_555 1_555
C23_5 C2_5 1_555 1_555
H13_5 C23_5 1_555 1_555
N13_3 Zn3_3 1_555 1_555
N4_5 C15_5 1_555 1_555
N10_5 C23_5 1_555 1_555
C4_5 C21_5 1_555 1_555
C7_5 C15_5 1_555 1_555
C7_5 C17_5 1_555 1_555
C33_5 C9_5 1_555 1_555
H21_5 C33_5 1_555 1_555
C34_5 C9_5 1_555 1_555
H22_5 C34_5 1_555 1_555
C35_5 C34_5 1_555 1_555
H23_5 C35_5 1_555 1_555
C36_5 C33_5 1_555 1_555
H24_5 C36_5 1_555 1_555
N12_3 C35_5 1_555 1_555
Zn4_3 N12_3 1_555 1_555
C36_5 N12_3 1_555 1_555
I2_5 Zn4_3 1_555 1_555
I4_5 Zn4_3 1_555 1_555
Zn4_3 N8_5 1_555 1_555
C18_5 H10_5 1_555 1_555
H17_5 C28_5 1_555 1_555
C29_5 C18_5 1_555 1_555
H18_5 C29_5 1_555 1_555
C32_5 N8_5 1_555 1_555
H20_5 C32_5 1_555 1_555
C18_5 N13_3 1_555 1_555
C28_5 C32_5 1_555 1_555
I2_6 Zn1_3 1_555 1_555
I4_6 Zn1_3 1_555 1_555
Zn1_3 N8_6 1_555 1_555
N6_5 C11_5 1_555 1_555
N7_5 C10_5 1_555 1_555
N8_6 C12_5 1_555 1_555
N9_5 C10_5 1_555 1_555
C10_5 C20_5 1_555 1_555
C11_5 N9_5 1_555 1_555
C12_5 H5_5 1_555 1_555
C14_5 H7_5 1_555 1_555
C16_5 C14_5 1_555 1_555
H8_5 C16_5 1_555 1_555
C18_6 H10_6 1_555 1_555
C19_5 N6_5 1_555 1_555
C20_5 C25_5 1_555 1_555
C22_5 N5_5 1_555 1_555
H12_5 C22_5 1_555 1_555
C24_5 N5_5 1_555 1_555
H14_5 C24_5 1_555 1_555
C25_5 C22_5 1_555 1_555
H15_5 C25_5 1_555 1_555
C26_5 C19_5 1_555 1_555
C27_5 C20_5 1_555 1_555
H16_5 C27_5 1_555 1_555
C28_6 C26_5 1_555 1_555
H17_6 C28_6 1_555 1_555
C29_6 C18_6 1_555 1_555
H18_6 C29_6 1_555 1_555
C30_5 C11_5 1_555 1_555
C31_5 C12_5 1_555 1_555
H19_5 C31_5 1_555 1_555
C32_6 N8_6 1_555 1_555
H20_6 C32_6 1_555 1_555
N11_3 C14_5 1_555 1_555
C33_6 C9_6 1_555 1_555
H21_6 C33_6 1_555 1_555
C34_6 C9_6 1_555 1_555
H22_6 C34_6 1_555 1_555
C35_6 C34_6 1_555 1_555
H23_6 C35_6 1_555 1_555
C36_6 C33_6 1_555 1_555
H24_6 C36_6 1_555 1_555
N12_4 C35_6 1_555 1_555
Zn4_4 N12_4 1_555 1_555
Zn5_3 N11_3 1_555 1_555
N14_3 Zn1_3 1_555 1_555
N7_5 C19_5 1_555 1_555
C16_5 C30_5 1_555 1_555
C18_6 N11_3 1_555 1_555
C24_5 C27_5 1_555 1_555
C26_5 C31_5 1_555 1_555
C28_6 C32_6 1_555 1_555
C29_6 C30_5 1_555 1_555
C36_6 N12_4 1_555 1_555
I2_7 Zn1_4 1_555 1_555
I4_7 Zn1_4 1_555 1_555
Zn1_4 N8_7 1_555 1_555
N6_6 C11_6 1_555 1_555
N7_6 C10_6 1_555 1_555
N8_7 C12_6 1_555 1_555
N9_6 C10_6 1_555 1_555
C10_6 C20_6 1_555 1_555
C11_6 N9_6 1_555 1_555
C12_6 H5_6 1_555 1_555
C19_6 N6_6 1_555 1_555
C20_6 C25_6 1_555 1_555
C22_6 N5_6 1_555 1_555
H12_6 C22_6 1_555 1_555
C24_6 N5_6 1_555 1_555
H14_6 C24_6 1_555 1_555
C25_6 C22_6 1_555 1_555
H15_6 C25_6 1_555 1_555
C26_6 C19_6 1_555 1_555
C27_6 C20_6 1_555 1_555
H16_6 C27_6 1_555 1_555
C28_7 C26_6 1_555 1_555
H17_7 C28_7 1_555 1_555
H18_7 C29_7 1_555 1_555
C30_6 C11_6 1_555 1_555
C31_6 C12_6 1_555 1_555
H19_6 C31_6 1_555 1_555
C32_7 N8_7 1_555 1_555
H20_7 C32_7 1_555 1_555
N14_4 Zn1_4 1_555 1_555
N7_6 C19_6 1_555 1_555
C24_6 C27_6 1_555 1_555
C26_6 C31_6 1_555 1_555
C28_7 C32_7 1_555 1_555
C29_7 C30_6 1_555 1_555
C14_6 H7_6 1_555 1_555
C16_6 C14_6 1_555 1_555
H8_6 C16_6 1_555 1_555
C18_7 H10_7 1_555 1_555
N11_4 C14_6 1_555 1_555
Zn5_4 N11_4 1_555 1_555
C18_7 N11_4 1_555 1_555
I1_6 Zn5_3 1_555 1_555
I6_6 Zn5_3 1_555 1_555
Zn5_3 N10_6 1_555 1_555
N1_6 C3_6 1_555 1_555
N2_6 C1_6 1_555 1_555
N3_6 C3_6 1_555 1_555
N4_6 C5_6 1_555 1_555
C1_6 H1_6 1_555 1_555
C2_6 H2_6 1_555 1_555
C3_6 C6_6 1_555 1_555
N10_6 C13_6 1_555 1_555
C4_6 H3_6 1_555 1_555
C5_6 N1_6 1_555 1_555
C6_6 C2_6 1_555 1_555
C7_6 C4_6 1_555 1_555
C8_6 C6_6 1_555 1_555
H4_6 C8_6 1_555 1_555
C9_7 C5_6 1_555 1_555
C13_6 C8_6 1_555 1_555
H6_6 C13_6 1_555 1_555
C15_6 N3_6 1_555 1_555
C17_6 C1_6 1_555 1_555
H9_6 C17_6 1_555 1_555
C21_6 N2_6 1_555 1_555
H11_6 C21_6 1_555 1_555
C23_6 C2_6 1_555 1_555
H13_6 C23_6 1_555 1_555
C33_7 C9_7 1_555 1_555
H21_7 C33_7 1_555 1_555
C34_7 C9_7 1_555 1_555
H22_7 C34_7 1_555 1_555
C35_7 C34_7 1_555 1_555
H23_7 C35_7 1_555 1_555
C36_7 C33_7 1_555 1_555
H24_7 C36_7 1_555 1_555
N14_4 C35_7 1_555 1_555
N4_6 C15_6 1_555 1_555
N10_6 C23_6 1_555 1_555
C4_6 C21_6 1_555 1_555
C7_6 C15_6 1_555 1_555
C7_6 C17_6 1_555 1_555
C36_7 N14_4 1_555 1_555
I1_7 Zn5_4 1_555 1_555
I3_6 Zn2_6 1_555 1_555
I5_6 Zn2_6 1_555 1_555
Zn2_6 N2_7 1_555 1_555
Zn5_4 N10_7 1_555 1_555
N1_7 C3_7 1_555 1_555
N2_7 C1_7 1_555 1_555
N3_7 C3_7 1_555 1_555
N4_7 C5_7 1_555 1_555
N5_7 Zn2_6 1_555 1_555
N6_7 C11_7 1_555 1_555
N7_7 C10_7 1_555 1_555
N9_7 C10_7 1_555 1_555
C1_7 H1_7 1_555 1_555
C2_7 H2_7 1_555 1_555
C3_7 C6_7 1_555 1_555
N10_7 C13_7 1_555 1_555
C4_7 H3_7 1_555 1_555
C5_7 N1_7 1_555 1_555
C6_7 C2_7 1_555 1_555
C7_7 C4_7 1_555 1_555
C8_7 C6_7 1_555 1_555
H4_7 C8_7 1_555 1_555
C9_8 C5_7 1_555 1_555
C10_7 C20_7 1_555 1_555
C11_7 N9_7 1_555 1_555
C12_7 H5_7 1_555 1_555
C13_7 C8_7 1_555 1_555
H6_7 C13_7 1_555 1_555
C15_7 N3_7 1_555 1_555
C17_7 C1_7 1_555 1_555
H9_7 C17_7 1_555 1_555
C19_7 N6_7 1_555 1_555
C20_7 C25_7 1_555 1_555
C21_7 N2_7 1_555 1_555
H11_7 C21_7 1_555 1_555
C22_7 N5_7 1_555 1_555
H12_7 C22_7 1_555 1_555
C23_7 C2_7 1_555 1_555
H13_7 C23_7 1_555 1_555
C24_7 N5_7 1_555 1_555
H14_7 C24_7 1_555 1_555
C25_7 C22_7 1_555 1_555
H15_7 C25_7 1_555 1_555
C26_7 C19_7 1_555 1_555
C27_7 C20_7 1_555 1_555
H16_7 C27_7 1_555 1_555
C30_7 C11_7 1_555 1_555
C31_7 C12_7 1_555 1_555
H19_7 C31_7 1_555 1_555
C33_8 C9_8 1_555 1_555
H21_8 C33_8 1_555 1_555
C34_8 C9_8 1_555 1_555
H22_8 C34_8 1_555 1_555
C35_8 C34_8 1_555 1_555
H23_8 C35_8 1_555 1_555
C36_8 C33_8 1_555 1_555
H24_8 C36_8 1_555 1_555
N14_3 C35_8 1_555 1_555
N4_7 C15_7 1_555 1_555
N7_7 C19_7 1_555 1_555
N10_7 C23_7 1_555 1_555
C4_7 C21_7 1_555 1_555
C7_7 C15_7 1_555 1_555
C7_7 C17_7 1_555 1_555
C24_7 C27_7 1_555 1_555
C26_7 C31_7 1_555 1_555
C36_8 N14_3 1_555 1_555
I2_8 Zn4_4 1_555 1_555
I4_8 Zn4_4 1_555 1_555
Zn4_4 N8_8 1_555 1_555
H17_8 C28_8 1_555 1_555
H18_8 C29_8 1_555 1_555
C32_8 N8_8 1_555 1_555
H20_8 C32_8 1_555 1_555
C28_8 C32_8 1_555 1_555
I3_7 Zn2_7 1_555 1_555
I5_7 Zn2_7 1_555 1_555
I1_8 Zn3_4 1_555 1_555
I6_7 Zn3_4 1_555 1_555
Zn3_4 N10_8 1_555 1_555
N1_8 C3_8 1_555 1_555
N2_8 C1_8 1_555 1_555
N3_8 C3_8 1_555 1_555
N4_8 C5_8 1_555 1_555
C1_8 H1_8 1_555 1_555
C2_8 H2_8 1_555 1_555
C3_8 C6_8 1_555 1_555
N10_8 C13_8 1_555 1_555
C4_8 H3_8 1_555 1_555
C5_8 N1_8 1_555 1_555
C6_8 C2_8 1_555 1_555
C7_8 C4_8 1_555 1_555
C8_8 C6_8 1_555 1_555
H4_8 C8_8 1_555 1_555
C13_8 C8_8 1_555 1_555
H6_8 C13_8 1_555 1_555
C15_8 N3_8 1_555 1_555
C17_8 C1_8 1_555 1_555
H9_8 C17_8 1_555 1_555
C21_8 N2_8 1_555 1_555
H11_8 C21_8 1_555 1_555
C23_8 C2_8 1_555 1_555
H13_8 C23_8 1_555 1_555
N13_4 Zn3_4 1_555 1_555
N4_8 C15_8 1_555 1_555
N10_8 C23_8 1_555 1_555
C4_8 C21_8 1_555 1_555
C7_8 C15_8 1_555 1_555
C7_8 C17_8 1_555 1_555
C18_8 H10_8 1_555 1_555
C18_8 N13_4 1_555 1_555
I3_8 Zn2_8 1_555 1_555
I5_8 Zn2_8 1_555 1_555
N5_8 Zn2_8 1_555 1_555
N6_8 C11_8 1_555 1_555
N7_8 C10_8 1_555 1_555
N9_8 C10_8 1_555 1_555
C10_8 C20_8 1_555 1_555
C11_8 N9_8 1_555 1_555
C12_8 H5_8 1_555 1_555
C14_7 H7_7 1_555 1_555
C16_7 C14_7 1_555 1_555
H8_7 C16_7 1_555 1_555
C19_8 N6_8 1_555 1_555
C20_8 C25_8 1_555 1_555
C22_8 N5_8 1_555 1_555
H12_8 C22_8 1_555 1_555
C24_8 N5_8 1_555 1_555
H14_8 C24_8 1_555 1_555
C25_8 C22_8 1_555 1_555
H15_8 C25_8 1_555 1_555
C26_8 C19_8 1_555 1_555
C27_8 C20_8 1_555 1_555
H16_8 C27_8 1_555 1_555
C30_8 C11_8 1_555 1_555
C31_8 C12_8 1_555 1_555
H19_8 C31_8 1_555 1_555
N7_8 C19_8 1_555 1_555
C16_7 C30_8 1_555 1_555
C24_8 C27_8 1_555 1_555
C26_8 C31_8 1_555 1_555
C14_8 H7_8 1_555 1_555
C16_8 C14_8 1_555 1_555
H8_8 C16_8 1_555 1_555

#END
