
###############################################################################
#
# This file contains modified crystal structure data generated from the
# MOF subset of the Cambridge Structural Database (CSD) v543 
# hosted by the Cambridge Crystallographic Data Centre (CCDC).
#
# This work is licensed under the Creative Commons
# Attribution-NonCommercial-ShareAlike 4.0 International License.
# To view a copy of this license, visit
# http://creativecommons.org/licenses/by-nc-sa/4.0/
# or send a letter to
# Creative Commons, PO Box 1866, Mountain View, CA 94042, USA.
#
# CIF created using the CSD Python API on 29 September 2022
# The structure has been converted into the P1 space group
# The structure has a 3D framework
# The original CSD entry RIYBEI is in the orthorhombic crystal system
# The framework has been calculated to contain at least 10.0% void space
# The void calculation uses a probe of radius 1.32A, grid spacing 0.4
#
###############################################################################

data_RIYBEI
_chemical_formula_moiety         '(C288 H192 I48 N96 Zn24)n'
_symmetry_cell_setting           triclinic
_symmetry_space_group_name_H-M   'P 1'
_symmetry_Int_Tables_number      1
_space_group_name_Hall           'P 1'
loop_
_symmetry_equiv_pos_site_id
_symmetry_equiv_pos_as_xyz
1 x,y,z
_cell_length_a                   27.8747(4)
_cell_length_b                   13.78762(17)
_cell_length_c                   45.4150(5)
_cell_angle_alpha                90
_cell_angle_beta                 90
_cell_angle_gamma                90
_cell_volume                     17454.2
loop_
_atom_site_label
_atom_site_type_symbol
_atom_site_fract_x
_atom_site_fract_y
_atom_site_fract_z
I3 I 0.51477(2) 0.06449(5) 0.60545(2)
I5 I 0.44295(3) 0.33266(4) 0.56759(2)
Zn2 Zn 0.44887(3) 0.15056(7) 0.57684(2)
N2 N 0.2912(2) 0.0827(4) 0.34571(13)
N3 N 0.4388(2) 0.0825(5) 0.53702(12)
N4 N 0.1767(2) 0.0312(4) 0.67653(12)
N5 N 0.2614(2) 0.0343(4) 0.67362(11)
N7 N 0.2146(2) 0.0686(4) 0.63134(12)
N8 N 0.3858(2) 0.1093(4) 0.59790(12)
C1 C 0.1760(3) 0.0544(4) 0.64794(14)
C4 C 0.2205(2) 0.0218(4) 0.68809(14)
C5 C 0.3146(3) 0.1283(5) 0.36723(16)
H2 H 0.3165 0.1971 0.3665
C6 C 0.2566(2) 0.0573(4) 0.64516(14)
C7 C 0.3458(3) 0.0654(5) 0.64228(15)
H3 H 0.3476 0.0475 0.6624
C9 C 0.3014(2) 0.0740(4) 0.62812(13)
C10 C 0.3436(3) 0.1164(5) 0.58433(15)
H5 H 0.3431 0.1339 0.5641
C11 C 0.3866(3) 0.0833(5) 0.62649(15)
H6 H 0.4167 0.0772 0.6361
C14 C 0.4151(3) 0.1277(6) 0.51503(17)
H8 H 0.4076 0.1946 0.5171
H9 H 0.2974 0.0123 0.7233
C24 C 0.3360(3) 0.0811(5) 0.39025(17)
H15 H 0.3512 0.1167 0.4055
C26 C 0.3005(3) 0.0992(5) 0.59866(15)
H16 H 0.2709 0.1047 0.5884
C29 C 0.4011(3) 0.0799(6) 0.48933(16)
H18 H 0.3843 0.1135 0.4743
C32 C 0.1285(3) 0.0655(5) 0.63372(14)
C33 C 0.1250(3) 0.0887(5) 0.60417(16)
H21 H 0.1531 0.0957 0.5926
C34 C 0.0867(3) 0.0562(6) 0.64976(17)
H22 H 0.0878 0.0397 0.6701
C35 C 0.0802(3) 0.1014(6) 0.59170(17)
H23 H 0.0782 0.1153 0.5712
C36 C 0.0432(3) 0.0711(6) 0.63576(18)
H24 H 0.0145 0.0640 0.6468
N12 N 0.0399(2) 0.0950(4) 0.60728(14)
Zn4 Zn 0.25673(3) 0.16105(6) 0.31384(2)
I1 I 0.30511(2) 0.31663(4) 0.30567(2)
I4 I 0.16712(2) 0.17641(5) 0.32545(2)
N1 N 0.2648(2) 0.0801(4) 0.27650(12)
C3 C 0.2752(2) 0.0084(4) 0.21912(14)
C8 C 0.3081(3) 0.0734(5) 0.26354(16)
H4 H 0.3355 0.0937 0.2743
C12 C 0.2262(3) 0.0470(5) 0.26155(14)
H7 H 0.1955 0.0486 0.2707
C15 C 0.2303(3) 0.0109(5) 0.23327(15)
C17 C 0.0614(3) 0.0627(6) 0.00792(17)
H10 H 0.0517 0.1283 0.0057
C20 C 0.0493(3) 0.0113(6) 0.03300(16)
H12 H 0.0318 0.0435 0.0481
C21 C 0.3145(3) 0.0388(5) 0.23572(16)
H13 H 0.3459 0.0353 0.2276
I1_2 I 0.19489(2) 0.68337(4) 0.80567(2)
I2 I 0.49121(3) 0.29084(5) 0.46218(2)
I4_2 I 0.33288(2) 0.82359(5) 0.82545(2)
I6 I 0.42705(3) 0.28359(5) 0.37231(2)
Zn1 Zn 0.24327(3) 0.83895(6) 0.81384(2)
Zn3 Zn 0.47500(3) 0.36946(6) 0.41202(2)
N1_2 N 0.2352(2) 0.9199(4) 0.77650(12)
N6 N 0.4441(2) 0.5024(4) 0.41969(14)
N9 N 0.3688(2) 0.8331(4) 0.41122(14)
N10 N 0.3727(2) 0.9793(4) 0.43876(13)
N11 N 0.4085(2) 0.8353(4) 0.45758(13)
C2 C 0.2892(3) 0.9851(5) 0.34700(18)
H1 H 0.2717 0.9514 0.3322
C3_2 C 0.2248(2) 0.9916(4) 0.71912(14)
C8_2 C 0.1919(3) 0.9266(5) 0.76354(16)
H4_2 H 0.1645 0.9063 0.7743
C12_2 C 0.2738(3) 0.9530(5) 0.76155(14)
H7_2 H 0.3045 0.9514 0.7707
C13 C 0.4100(3) 0.6884(5) 0.42847(16)
C15_2 C 0.2697(3) 0.9891(5) 0.73327(15)
C16 C 0.3599(3) 0.9273(5) 0.41514(15)
C17_2 C 0.4386(3) 0.9373(6) 0.50792(17)
H10_2 H 0.4483 0.8717 0.5057
C18 C 0.4271(4) 0.6346(6) 0.45160(18)
H11 H 0.4273 0.6607 0.4710
C19 C 0.3350(3) 0.9803(5) 0.39092(15)
C20_2 C 0.4507(3) 0.9887(6) 0.53300(16)
H12_2 H 0.4682 0.9565 0.5481
C21_2 C 0.1855(3) 0.9612(5) 0.73572(16)
H13_2 H 0.1541 0.9647 0.7276
C22 C 0.3112(3) 0.9329(5) 0.36855(18)
H14 H 0.3101 0.8640 0.3682
C23 C 0.3966(3) 0.9289(5) 0.45943(15)
C25 C 0.3944(3) 0.7918(5) 0.43257(15)
C27 C 0.4123(3) 0.9828(5) 0.48620(14)
C28 C 0.4438(4) 0.5427(6) 0.44639(18)
H17 H 0.4557 0.5061 0.4625
C30 C 0.4278(3) 0.5564(6) 0.39732(18)
H19 H 0.4283 0.5289 0.3781
C31 C 0.4102(3) 0.6491(6) 0.40042(18)
H20 H 0.3988 0.6848 0.3840
N13 N 0.2088(2) 0.9173(4) 0.84571(13)
N14 N 0.5399(2) 0.4050(4) 0.39272(14)
C5_2 C 0.1854(3) 0.8717(5) 0.86723(16)
H2_2 H 0.1835 0.8029 0.8665
C24_2 C 0.1640(3) 0.9189(5) 0.89025(17)
H15_2 H 0.1488 0.8833 0.9055
C29_2 C 0.0989(3) 0.9201(6) 0.98933(16)
H18_2 H 0.1157 0.8865 0.9743
N14_2 N 0.9601(2) 0.5950(4) 0.89272(14)
I1_3 I 0.69489(2) 0.81663(4) 0.19433(2)
I4_3 I 0.83288(2) 0.67641(5) 0.17455(2)
I5_2 I 0.94295(3) 0.16734(4) 0.43241(2)
Zn1_2 Zn 0.74327(3) 0.66105(6) 0.18616(2)
Zn2_2 Zn 0.94887(3) 0.34944(7) 0.42316(2)
N1_3 N 0.7352(2) 0.5801(4) 0.22350(12)
N2_2 N 0.7912(2) 0.4173(4) 0.65429(13)
N3_2 N 0.9388(2) 0.4175(5) 0.46298(12)
N4_2 N 0.6767(2) 0.4688(4) 0.32347(12)
N5_2 N 0.7614(2) 0.4657(4) 0.32638(11)
N6_2 N 0.9441(2) 0.9976(4) 0.58031(14)
N7_2 N 0.7146(2) 0.4314(4) 0.36866(12)
N8_2 N 0.8858(2) 0.3907(4) 0.40210(12)
N9_2 N 0.8688(2) 0.6669(4) 0.58878(14)
N10_2 N 0.8727(2) 0.5207(4) 0.56124(13)
C1_2 C 0.6760(3) 0.4456(4) 0.35206(14)
N11_2 N 0.9085(2) 0.6647(4) 0.54242(13)
C2_2 C 0.7892(3) 0.5149(5) 0.65300(18)
H1_2 H 0.7717 0.5486 0.6678
C3_3 C 0.7248(2) 0.5084(4) 0.28088(14)
C4_2 C 0.7205(2) 0.4782(4) 0.31191(14)
C5_3 C 0.8146(3) 0.3717(5) 0.63277(16)
H2_3 H 0.8165 0.3029 0.6335
C6_2 C 0.7566(2) 0.4427(4) 0.35484(14)
C7_2 C 0.8458(3) 0.4346(5) 0.35772(15)
H3_2 H 0.8476 0.4525 0.3376
C8_3 C 0.6919(3) 0.5734(5) 0.23646(16)
H4_3 H 0.6645 0.5937 0.2257
C9_2 C 0.8014(2) 0.4260(4) 0.37188(13)
C10_2 C 0.8436(3) 0.3836(5) 0.41567(15)
H5_2 H 0.8431 0.3661 0.4359
C11_2 C 0.8866(3) 0.4167(5) 0.37351(15)
H6_2 H 0.9167 0.4228 0.3639
C12_3 C 0.7738(3) 0.5470(5) 0.23845(14)
H7_3 H 0.8045 0.5486 0.2293
C13_2 C 0.9100(3) 0.8116(5) 0.57153(16)
C14_2 C 0.9151(3) 0.3723(6) 0.48497(17)
H8_2 H 0.9076 0.3054 0.4829
C15_3 C 0.7697(3) 0.5109(5) 0.26673(15)
H9_2 H 0.7974 0.4877 0.2767
C16_2 C 0.8599(3) 0.5727(5) 0.58486(15)
C17_3 C 0.9386(3) 0.5627(6) 0.49208(17)
H10_3 H 0.9483 0.6283 0.4943
C18_2 C 0.9271(4) 0.8654(6) 0.54840(18)
H11_2 H 0.9273 0.8393 0.5290
C19_2 C 0.8350(3) 0.5197(5) 0.60908(15)
C20_3 C 0.9507(3) 0.5113(6) 0.46700(16)
H12_3 H 0.9682 0.5435 0.4519
C21_3 C 0.6855(3) 0.5388(5) 0.26428(16)
H13_3 H 0.6541 0.5353 0.2724
C22_2 C 0.8112(3) 0.5671(5) 0.63145(18)
H14_2 H 0.8101 0.6360 0.6318
C23_2 C 0.8966(3) 0.5711(5) 0.54057(15)
C24_3 C 0.8360(3) 0.4189(5) 0.60975(17)
H15_3 H 0.8512 0.3833 0.5945
C25_2 C 0.8944(3) 0.7082(5) 0.56743(15)
C26_2 C 0.8005(3) 0.4008(5) 0.40134(15)
H16_2 H 0.7709 0.3953 0.4116
C27_2 C 0.9123(3) 0.5172(5) 0.51380(14)
C28_2 C 0.9438(4) 0.9573(6) 0.55361(18)
H17_2 H 0.9557 0.9939 0.5375
C29_3 C 0.9011(3) 0.4201(6) 0.51067(16)
H18_3 H 0.8843 0.3865 0.5257
C30_2 C 0.9278(3) 0.9436(6) 0.60268(18)
H19_2 H 0.9283 0.9711 0.6219
C31_2 C 0.9102(3) 0.8509(6) 0.59958(18)
H20_2 H 0.8988 0.8152 0.6160
C32_2 C 0.6285(3) 0.4345(5) 0.36628(14)
C33_2 C 0.6250(3) 0.4113(5) 0.39583(16)
H21_2 H 0.6531 0.4043 0.4074
C34_2 C 0.5867(3) 0.4438(6) 0.35024(17)
H22_2 H 0.5878 0.4603 0.3299
C35_2 C 0.5802(3) 0.3986(6) 0.40830(17)
H23_2 H 0.5782 0.3847 0.4288
C36_2 C 0.5432(3) 0.4289(6) 0.36424(18)
H24_2 H 0.5145 0.4360 0.3532
Zn4_2 Zn 0.75673(3) 0.33895(6) 0.68616(2)
N13_2 N 0.7088(2) 0.5827(4) 0.15429(13)
N6_3 N 0.5559(2) 0.0024(4) 0.08031(14)
N9_3 N 0.6312(2) 0.3331(4) 0.08878(14)
N10_3 N 0.6273(2) 0.4793(4) 0.06124(13)
N11_3 N 0.5915(2) 0.3353(4) 0.04242(13)
C2_3 C 0.7108(3) 0.4851(5) 0.15300(18)
H1_3 H 0.7283 0.4514 0.1678
C5_4 C 0.6854(3) 0.6283(5) 0.13277(16)
H2_4 H 0.6835 0.6971 0.1335
C13_3 C 0.5900(3) 0.1884(5) 0.07153(16)
C16_3 C 0.6401(3) 0.4273(5) 0.08486(15)
C18_3 C 0.5729(4) 0.1346(6) 0.04840(18)
H11_3 H 0.5727 0.1607 0.0290
C19_3 C 0.6650(3) 0.4803(5) 0.10908(15)
C22_3 C 0.6888(3) 0.4329(5) 0.13145(18)
H14_3 H 0.6899 0.3640 0.1318
C23_3 C 0.6034(3) 0.4289(5) 0.04057(15)
C24_4 C 0.6640(3) 0.5811(5) 0.10975(17)
H15_4 H 0.6488 0.6167 0.0945
C25_3 C 0.6056(3) 0.2918(5) 0.06743(15)
C27_3 C 0.5877(3) 0.4828(5) 0.01380(14)
C28_3 C 0.5562(4) 0.0427(6) 0.05361(18)
H17_3 H 0.5443 0.0061 0.0375
C29_4 C 0.5989(3) 0.5799(6) 0.01067(16)
H18_4 H 0.6157 0.6135 0.0257
C30_3 C 0.5722(3) 0.0564(6) 0.10268(18)
H19_3 H 0.5717 0.0289 0.1219
C31_3 C 0.5898(3) 0.1491(6) 0.09958(18)
H20_3 H 0.6012 0.1848 0.1160
I1_4 I 0.80511(2) 0.18337(4) 0.69433(2)
I3_2 I 0.48523(2) 0.56449(5) 0.89455(2)
I4_4 I 0.66712(2) 0.32359(5) 0.67455(2)
I5_3 I 0.55705(3) 0.83266(4) 0.93241(2)
Zn2_3 Zn 0.55113(3) 0.65056(7) 0.92316(2)
N1_4 N 0.7648(2) 0.4199(4) 0.72350(12)
N3_3 N 0.5612(2) 0.5825(5) 0.96298(12)
N4_3 N 0.8233(2) 0.5312(4) 0.82347(12)
N5_3 N 0.7386(2) 0.5343(4) 0.82638(11)
N7_3 N 0.7854(2) 0.5686(4) 0.86866(12)
N8_3 N 0.6142(2) 0.6093(4) 0.90210(12)
C1_3 C 0.8240(3) 0.5544(4) 0.85206(14)
C3_4 C 0.7752(2) 0.4916(4) 0.78088(14)
C4_3 C 0.7795(2) 0.5218(4) 0.81191(14)
C6_3 C 0.7434(2) 0.5573(4) 0.85484(14)
C7_3 C 0.6542(3) 0.5654(5) 0.85772(15)
H3_3 H 0.6524 0.5475 0.8376
C8_4 C 0.8081(3) 0.4266(5) 0.73646(16)
H4_4 H 0.8355 0.4063 0.7257
C9_3 C 0.6986(2) 0.5740(4) 0.87188(13)
C10_3 C 0.6564(3) 0.6164(5) 0.91567(15)
H5_3 H 0.6569 0.6339 0.9359
C11_3 C 0.6134(3) 0.5833(5) 0.87351(15)
H6_3 H 0.5833 0.5772 0.8639
C12_4 C 0.7262(3) 0.4530(5) 0.73845(14)
H7_4 H 0.6955 0.4514 0.7293
C14_3 C 0.5849(3) 0.6277(6) 0.98497(17)
H8_3 H 0.5924 0.6946 0.9829
C15_4 C 0.7303(3) 0.4891(5) 0.76673(15)
H9_3 H 0.7026 0.5123 0.7767
C17_4 C 0.5614(3) 0.4373(6) 0.99208(17)
H10_4 H 0.5517 0.3717 0.9943
C20_4 C 0.5493(3) 0.4887(6) 0.96700(16)
H12_4 H 0.5318 0.4565 0.9519
C21_4 C 0.8145(3) 0.4612(5) 0.76428(16)
H13_4 H 0.8459 0.4647 0.7724
C26_3 C 0.6995(3) 0.5992(5) 0.90134(15)
H16_3 H 0.7291 0.6047 0.9116
C32_3 C 0.8715(3) 0.5655(5) 0.86628(14)
C33_3 C 0.8750(3) 0.5887(5) 0.89583(16)
H21_3 H 0.8469 0.5957 0.9074
C34_3 C 0.9133(3) 0.5562(6) 0.85024(17)
H22_3 H 0.9122 0.5397 0.8299
C35_3 C 0.9198(3) 0.6014(6) 0.90830(17)
H23_3 H 0.9218 0.6153 0.9288
C36_3 C 0.9568(3) 0.5711(6) 0.86424(18)
H24_3 H 0.9855 0.5640 0.8532
Zn5 Zn 0.97500(3) 0.13054(6) 0.58798(2)
I2_2 I 0.99121(3) 0.20916(5) 0.53782(2)
I6_2 I 0.92705(3) 0.21641(5) 0.62769(2)
I2_3 I 0.00879(3) 0.70916(5) 0.96218(2)
I6_3 I 0.07295(3) 0.71641(5) 0.87231(2)
Zn3_2 Zn 0.02500(3) 0.63054(6) 0.91202(2)
N6_4 N 0.0559(2) 0.4976(4) 0.91969(14)
N9_4 N 0.1312(2) 0.1669(4) 0.91122(14)
N10_4 N 0.1273(2) 0.0207(4) 0.93876(13)
N11_4 N 0.0915(2) 0.1647(4) 0.95758(13)
C2_4 C 0.2108(3) 0.0149(5) 0.84700(18)
H1_4 H 0.2283 0.0486 0.8322
C13_4 C 0.0900(3) 0.3116(5) 0.92847(16)
C16_4 C 0.1401(3) 0.0727(5) 0.91514(15)
C18_4 C 0.0729(4) 0.3654(6) 0.95160(18)
H11_4 H 0.0727 0.3393 0.9710
C19_4 C 0.1650(3) 0.0197(5) 0.89092(15)
C22_4 C 0.1888(3) 0.0671(5) 0.86855(18)
H14_4 H 0.1899 0.1360 0.8682
C23_4 C 0.1034(3) 0.0711(5) 0.95943(15)
C25_4 C 0.1056(3) 0.2082(5) 0.93257(15)
C27_4 C 0.0877(3) 0.0172(5) 0.98620(14)
C28_4 C 0.0562(4) 0.4573(6) 0.94639(18)
H17_4 H 0.0443 0.4939 0.9625
C30_4 C 0.0722(3) 0.4436(6) 0.89732(18)
H19_4 H 0.0717 0.4711 0.8781
C31_4 C 0.0898(3) 0.3509(6) 0.90042(18)
H20_4 H 0.1012 0.3152 0.8840
I5_4 I 0.05705(3) 0.66734(4) 0.06759(2)
Zn2_4 Zn 0.05113(3) 0.84944(7) 0.07684(2)
N3_4 N 0.0612(2) 0.9175(5) 0.03702(12)
N4_4 N 0.3233(2) 0.9688(4) 0.17653(12)
N5_4 N 0.2386(2) 0.9657(4) 0.17362(11)
N7_4 N 0.2854(2) 0.9314(4) 0.13134(12)
N8_4 N 0.1142(2) 0.8907(4) 0.09790(12)
C1_4 C 0.3240(3) 0.9456(4) 0.14794(14)
C4_4 C 0.2795(2) 0.9782(4) 0.18809(14)
C6_4 C 0.2434(2) 0.9427(4) 0.14516(14)
C7_4 C 0.1542(3) 0.9346(5) 0.14228(15)
H3_4 H 0.1524 0.9525 0.1624
C9_4 C 0.1986(2) 0.9260(4) 0.12812(13)
C10_4 C 0.1564(3) 0.8836(5) 0.08433(15)
H5_4 H 0.1569 0.8661 0.0641
C11_4 C 0.1134(3) 0.9167(5) 0.12649(15)
H6_4 H 0.0833 0.9228 0.1361
C14_4 C 0.0849(3) 0.8723(6) 0.01503(17)
H8_4 H 0.0924 0.8054 0.0171
H9_4 H 0.2026 0.9877 0.2233
C26_4 C 0.1995(3) 0.9008(5) 0.09866(15)
H16_4 H 0.2291 0.8953 0.0884
C32_4 C 0.3715(3) 0.9345(5) 0.13372(14)
C33_4 C 0.3750(3) 0.9113(5) 0.10417(16)
H21_4 H 0.3469 0.9043 0.0926
C34_4 C 0.4133(3) 0.9438(6) 0.14976(17)
H22_4 H 0.4122 0.9603 0.1701
C35_4 C 0.4198(3) 0.8986(6) 0.09170(17)
H23_4 H 0.4218 0.8847 0.0712
C36_4 C 0.4568(3) 0.9289(6) 0.13576(18)
H24_4 H 0.4855 0.9360 0.1468
N12_2 N 0.4601(2) 0.9050(4) 0.10728(14)
Zn5_2 Zn 0.52500(3) 0.86946(6) 0.08798(2)
I2_4 I 0.50879(3) 0.79084(5) 0.03782(2)
I6_4 I 0.57295(3) 0.78359(5) 0.12769(2)
I3_3 I 0.98523(2) 0.93551(5) 0.10545(2)
I3_4 I 0.01477(2) 0.43551(5) 0.39455(2)
Zn5_3 Zn 0.02500(3) 0.86946(6) 0.41202(2)
I2_5 I 0.00879(3) 0.79084(5) 0.46218(2)
I6_5 I 0.07295(3) 0.78359(5) 0.37231(2)
I1_5 I 0.80511(2) 0.31663(4) 0.19433(2)
I2_6 I 0.50879(3) 0.70916(5) 0.53782(2)
I4_5 I 0.66712(2) 0.17641(5) 0.17455(2)
I6_6 I 0.57295(3) 0.71641(5) 0.62769(2)
Zn1_3 Zn 0.75673(3) 0.16105(6) 0.18616(2)
Zn3_3 Zn 0.52500(3) 0.63054(6) 0.58798(2)
N1_5 N 0.7648(2) 0.0801(4) 0.22350(12)
N6_5 N 0.5559(2) 0.4976(4) 0.58031(14)
N9_5 N 0.6312(2) 0.1669(4) 0.58878(14)
N10_5 N 0.6273(2) 0.0207(4) 0.56124(13)
N11_5 N 0.5915(2) 0.1647(4) 0.54242(13)
C2_5 C 0.7108(3) 0.0149(5) 0.65300(18)
H1_5 H 0.7283 0.0486 0.6678
C3_5 C 0.7752(2) 0.0084(4) 0.28088(14)
C8_5 C 0.8081(3) 0.0734(5) 0.23646(16)
H4_5 H 0.8355 0.0937 0.2257
C12_5 C 0.7262(3) 0.0470(5) 0.23845(14)
H7_5 H 0.6955 0.0486 0.2293
C13_5 C 0.5900(3) 0.3116(5) 0.57153(16)
C15_5 C 0.7303(3) 0.0109(5) 0.26673(15)
C16_5 C 0.6401(3) 0.0727(5) 0.58486(15)
C17_5 C 0.5614(3) 0.0627(6) 0.49208(17)
H10_5 H 0.5517 0.1283 0.4943
C18_5 C 0.5729(4) 0.3654(6) 0.54840(18)
H11_5 H 0.5727 0.3393 0.5290
C19_5 C 0.6650(3) 0.0197(5) 0.60908(15)
C20_5 C 0.5493(3) 0.0113(6) 0.46700(16)
H12_5 H 0.5318 0.0435 0.4519
C21_5 C 0.8145(3) 0.0388(5) 0.26428(16)
H13_5 H 0.8459 0.0353 0.2724
C22_5 C 0.6888(3) 0.0671(5) 0.63145(18)
H14_5 H 0.6899 0.1360 0.6318
C23_5 C 0.6034(3) 0.0711(5) 0.54057(15)
C25_5 C 0.6056(3) 0.2082(5) 0.56743(15)
C27_5 C 0.5877(3) 0.0172(5) 0.51380(14)
C28_5 C 0.5562(4) 0.4573(6) 0.55361(18)
H17_5 H 0.5443 0.4939 0.5375
C30_5 C 0.5722(3) 0.4436(6) 0.60268(18)
H19_5 H 0.5717 0.4711 0.6219
C31_5 C 0.5898(3) 0.3509(6) 0.59958(18)
H20_5 H 0.6012 0.3152 0.6160
N13_3 N 0.7912(2) 0.0827(4) 0.15429(13)
N14_3 N 0.4601(2) 0.5950(4) 0.60728(14)
N14_4 N 0.0399(2) 0.4050(4) 0.10728(14)
C5_5 C 0.8146(3) 0.1283(5) 0.13277(16)
H2_5 H 0.8165 0.1971 0.1335
C24_5 C 0.8360(3) 0.0811(5) 0.10975(17)
H15_5 H 0.8512 0.1167 0.0945
C29_5 C 0.9011(3) 0.0799(6) 0.01067(16)
H18_5 H 0.8843 0.1135 0.0257
I1_6 I 0.30511(2) 0.18337(4) 0.80567(2)
I4_6 I 0.16712(2) 0.32359(5) 0.82545(2)
I5_5 I 0.05705(3) 0.83266(4) 0.56759(2)
Zn1_4 Zn 0.25673(3) 0.33895(6) 0.81384(2)
Zn2_5 Zn 0.05113(3) 0.65056(7) 0.57684(2)
N1_6 N 0.2648(2) 0.4199(4) 0.77650(12)
N2_3 N 0.2088(2) 0.5827(4) 0.34571(13)
N3_5 N 0.0612(2) 0.5825(5) 0.53702(12)
N4_5 N 0.3233(2) 0.5312(4) 0.67653(12)
N5_5 N 0.2386(2) 0.5343(4) 0.67362(11)
N6_6 N 0.0559(2) 0.0024(4) 0.41969(14)
N7_5 N 0.2854(2) 0.5686(4) 0.63134(12)
N8_5 N 0.1142(2) 0.6093(4) 0.59790(12)
N9_6 N 0.1312(2) 0.3331(4) 0.41122(14)
N10_6 N 0.1273(2) 0.4793(4) 0.43876(13)
C1_5 C 0.3240(3) 0.5544(4) 0.64794(14)
N11_6 N 0.0915(2) 0.3353(4) 0.45758(13)
C2_6 C 0.2108(3) 0.4851(5) 0.34700(18)
H1_6 H 0.2283 0.4514 0.3322
C3_6 C 0.2752(2) 0.4916(4) 0.71912(14)
C4_5 C 0.2795(2) 0.5218(4) 0.68809(14)
C5_6 C 0.1854(3) 0.6283(5) 0.36723(16)
H2_6 H 0.1835 0.6971 0.3665
C6_5 C 0.2434(2) 0.5573(4) 0.64516(14)
C7_5 C 0.1542(3) 0.5654(5) 0.64228(15)
H3_5 H 0.1524 0.5475 0.6624
C8_6 C 0.3081(3) 0.4266(5) 0.76354(16)
H4_6 H 0.3355 0.4063 0.7743
C9_5 C 0.1986(2) 0.5740(4) 0.62812(13)
C10_5 C 0.1564(3) 0.6164(5) 0.58433(15)
H5_5 H 0.1569 0.6339 0.5641
C11_5 C 0.1134(3) 0.5833(5) 0.62649(15)
H6_5 H 0.0833 0.5772 0.6361
C12_6 C 0.2262(3) 0.4530(5) 0.76155(14)
H7_6 H 0.1955 0.4514 0.7707
C13_6 C 0.0900(3) 0.1884(5) 0.42847(16)
C14_5 C 0.0849(3) 0.6277(6) 0.51503(17)
H8_5 H 0.0924 0.6946 0.5171
C15_6 C 0.2303(3) 0.4891(5) 0.73327(15)
H9_5 H 0.2026 0.5123 0.7233
C16_6 C 0.1401(3) 0.4273(5) 0.41514(15)
C17_6 C 0.0614(3) 0.4373(6) 0.50792(17)
H10_6 H 0.0517 0.3717 0.5057
C18_6 C 0.0729(4) 0.1346(6) 0.45160(18)
H11_6 H 0.0727 0.1607 0.4710
C19_6 C 0.1650(3) 0.4803(5) 0.39092(15)
C20_6 C 0.0493(3) 0.4887(6) 0.53300(16)
H12_6 H 0.0318 0.4565 0.5481
C21_6 C 0.3145(3) 0.4612(5) 0.73572(16)
H13_6 H 0.3459 0.4647 0.7276
C22_6 C 0.1888(3) 0.4329(5) 0.36855(18)
H14_6 H 0.1899 0.3640 0.3682
C23_6 C 0.1034(3) 0.4289(5) 0.45943(15)
C24_6 C 0.1640(3) 0.5811(5) 0.39025(17)
H15_6 H 0.1488 0.6167 0.4055
C25_6 C 0.1056(3) 0.2918(5) 0.43257(15)
C26_5 C 0.1995(3) 0.5992(5) 0.59866(15)
H16_5 H 0.2291 0.6047 0.5884
C27_6 C 0.0877(3) 0.4828(5) 0.48620(14)
C28_6 C 0.0562(4) 0.0427(6) 0.44639(18)
H17_6 H 0.0443 0.0061 0.4625
C29_6 C 0.0989(3) 0.5799(6) 0.48933(16)
H18_6 H 0.1157 0.6135 0.4743
C30_6 C 0.0722(3) 0.0564(6) 0.39732(18)
H19_6 H 0.0717 0.0289 0.3781
C31_6 C 0.0898(3) 0.1491(6) 0.40042(18)
H20_6 H 0.1012 0.1848 0.3840
C32_5 C 0.3715(3) 0.5655(5) 0.63372(14)
C33_5 C 0.3750(3) 0.5887(5) 0.60417(16)
H21_5 H 0.3469 0.5957 0.5926
C34_5 C 0.4133(3) 0.5562(6) 0.64976(17)
H22_5 H 0.4122 0.5397 0.6701
C35_5 C 0.4198(3) 0.6014(6) 0.59170(17)
H23_5 H 0.4218 0.6153 0.5712
C36_5 C 0.4568(3) 0.5711(6) 0.63576(18)
H24_5 H 0.4855 0.5640 0.6468
Zn4_3 Zn 0.24327(3) 0.66105(6) 0.31384(2)
N13_4 N 0.2912(2) 0.4173(4) 0.84571(13)
I1_7 I 0.19489(2) 0.81663(4) 0.30567(2)
I3_5 I 0.51477(2) 0.43551(5) 0.10545(2)
I4_7 I 0.33288(2) 0.67641(5) 0.32545(2)
I5_6 I 0.44295(3) 0.16734(4) 0.06759(2)
Zn2_6 Zn 0.44887(3) 0.34944(7) 0.07684(2)
N1_7 N 0.2352(2) 0.5801(4) 0.27650(12)
N3_6 N 0.4388(2) 0.4175(5) 0.03702(12)
N4_6 N 0.1767(2) 0.4688(4) 0.17653(12)
N5_6 N 0.2614(2) 0.4657(4) 0.17362(11)
N7_6 N 0.2146(2) 0.4314(4) 0.13134(12)
N8_6 N 0.3858(2) 0.3907(4) 0.09790(12)
C1_6 C 0.1760(3) 0.4456(4) 0.14794(14)
C3_7 C 0.2248(2) 0.5084(4) 0.21912(14)
C4_6 C 0.2205(2) 0.4782(4) 0.18809(14)
C6_6 C 0.2566(2) 0.4427(4) 0.14516(14)
C7_6 C 0.3458(3) 0.4346(5) 0.14228(15)
H3_6 H 0.3476 0.4525 0.1624
C8_7 C 0.1919(3) 0.5734(5) 0.26354(16)
H4_7 H 0.1645 0.5937 0.2743
C9_6 C 0.3014(2) 0.4260(4) 0.12812(13)
C10_6 C 0.3436(3) 0.3836(5) 0.08433(15)
H5_6 H 0.3431 0.3661 0.0641
C11_6 C 0.3866(3) 0.4167(5) 0.12649(15)
H6_6 H 0.4167 0.4228 0.1361
C12_7 C 0.2738(3) 0.5470(5) 0.26155(14)
H7_7 H 0.3045 0.5486 0.2707
C14_6 C 0.4151(3) 0.3723(6) 0.01503(17)
H8_6 H 0.4076 0.3054 0.0171
C15_7 C 0.2697(3) 0.5109(5) 0.23327(15)
H9_6 H 0.2974 0.4877 0.2233
C17_7 C 0.4386(3) 0.5627(6) 0.00792(17)
H10_7 H 0.4483 0.6283 0.0057
C20_7 C 0.4507(3) 0.5113(6) 0.03300(16)
H12_7 H 0.4682 0.5435 0.0481
C21_7 C 0.1855(3) 0.5388(5) 0.23572(16)
H13_7 H 0.1541 0.5353 0.2276
C26_6 C 0.3005(3) 0.4008(5) 0.09866(15)
H16_6 H 0.2709 0.3953 0.0884
C32_6 C 0.1285(3) 0.4345(5) 0.13372(14)
C33_6 C 0.1250(3) 0.4113(5) 0.10417(16)
H21_6 H 0.1531 0.4043 0.0926
C34_6 C 0.0867(3) 0.4438(6) 0.14976(17)
H22_6 H 0.0878 0.4603 0.1701
C35_6 C 0.0802(3) 0.3986(6) 0.09170(17)
H23_6 H 0.0782 0.3847 0.0712
C36_6 C 0.0432(3) 0.4289(6) 0.13576(18)
H24_6 H 0.0145 0.4360 0.1468
N6_7 N 0.4441(2) 0.9976(4) 0.91969(14)
N9_7 N 0.3688(2) 0.6669(4) 0.91122(14)
N10_7 N 0.3727(2) 0.5207(4) 0.93876(13)
N11_7 N 0.4085(2) 0.6647(4) 0.95758(13)
C2_7 C 0.2892(3) 0.5149(5) 0.84700(18)
H1_7 H 0.2717 0.5486 0.8322
C5_7 C 0.3146(3) 0.3717(5) 0.86723(16)
H2_7 H 0.3165 0.3029 0.8665
C13_7 C 0.4100(3) 0.8116(5) 0.92847(16)
C16_7 C 0.3599(3) 0.5727(5) 0.91514(15)
C18_7 C 0.4271(4) 0.8654(6) 0.95160(18)
H11_7 H 0.4273 0.8393 0.9710
C19_7 C 0.3350(3) 0.5197(5) 0.89092(15)
C22_7 C 0.3112(3) 0.5671(5) 0.86855(18)
H14_7 H 0.3101 0.6360 0.8682
C23_7 C 0.3966(3) 0.5711(5) 0.95943(15)
C24_7 C 0.3360(3) 0.4189(5) 0.89025(17)
H15_7 H 0.3512 0.3833 0.9055
C25_7 C 0.3944(3) 0.7082(5) 0.93257(15)
C27_7 C 0.4123(3) 0.5172(5) 0.98620(14)
C28_7 C 0.4438(4) 0.9573(6) 0.94639(18)
H17_7 H 0.4557 0.9939 0.9625
C29_7 C 0.4011(3) 0.4201(6) 0.98933(16)
H18_7 H 0.3843 0.3865 0.9743
C30_7 C 0.4278(3) 0.9436(6) 0.89732(18)
H19_7 H 0.4283 0.9711 0.8781
C31_7 C 0.4102(3) 0.8509(6) 0.90042(18)
H20_7 H 0.3988 0.8152 0.8840
I3_6 I 0.48523(2) 0.93551(5) 0.39455(2)
I5_7 I 0.55705(3) 0.66734(4) 0.43241(2)
Zn2_7 Zn 0.55113(3) 0.84944(7) 0.42316(2)
N2_4 N 0.7088(2) 0.9173(4) 0.65429(13)
N3_7 N 0.5612(2) 0.9175(5) 0.46298(12)
N4_7 N 0.8233(2) 0.9688(4) 0.32347(12)
N5_7 N 0.7386(2) 0.9657(4) 0.32638(11)
N7_7 N 0.7854(2) 0.9314(4) 0.36866(12)
N8_7 N 0.6142(2) 0.8907(4) 0.40210(12)
C1_7 C 0.8240(3) 0.9456(4) 0.35206(14)
C4_7 C 0.7795(2) 0.9782(4) 0.31191(14)
C5_8 C 0.6854(3) 0.8717(5) 0.63277(16)
H2_8 H 0.6835 0.8029 0.6335
C6_7 C 0.7434(2) 0.9427(4) 0.35484(14)
C7_7 C 0.6542(3) 0.9346(5) 0.35772(15)
H3_7 H 0.6524 0.9525 0.3376
C9_7 C 0.6986(2) 0.9260(4) 0.37188(13)
C10_7 C 0.6564(3) 0.8836(5) 0.41567(15)
H5_7 H 0.6569 0.8661 0.4359
C11_7 C 0.6134(3) 0.9167(5) 0.37351(15)
H6_7 H 0.5833 0.9228 0.3639
C14_7 C 0.5849(3) 0.8723(6) 0.48497(17)
H8_7 H 0.5924 0.8054 0.4829
H9_7 H 0.7026 0.9877 0.2767
C24_8 C 0.6640(3) 0.9189(5) 0.60975(17)
H15_8 H 0.6488 0.8833 0.5945
C26_7 C 0.6995(3) 0.9008(5) 0.40134(15)
H16_7 H 0.7291 0.8953 0.4116
C29_8 C 0.5989(3) 0.9201(6) 0.51067(16)
H18_8 H 0.6157 0.8865 0.5257
C32_7 C 0.8715(3) 0.9345(5) 0.36628(14)
C33_7 C 0.8750(3) 0.9113(5) 0.39583(16)
H21_7 H 0.8469 0.9043 0.4074
C34_7 C 0.9133(3) 0.9438(6) 0.35024(17)
H22_7 H 0.9122 0.9603 0.3299
C35_7 C 0.9198(3) 0.8986(6) 0.40830(17)
H23_7 H 0.9218 0.8847 0.4288
C36_7 C 0.9568(3) 0.9289(6) 0.36424(18)
H24_7 H 0.9855 0.9360 0.3532
N12_3 N 0.9601(2) 0.9050(4) 0.39272(14)
Zn4_4 Zn 0.74327(3) 0.83895(6) 0.68616(2)
I1_8 I 0.69489(2) 0.68337(4) 0.69433(2)
I4_8 I 0.83288(2) 0.82359(5) 0.67455(2)
N1_8 N 0.7352(2) 0.9199(4) 0.72350(12)
C3_8 C 0.7248(2) 0.9916(4) 0.78088(14)
C8_8 C 0.6919(3) 0.9266(5) 0.73646(16)
H4_8 H 0.6645 0.9063 0.7257
C12_8 C 0.7738(3) 0.9530(5) 0.73845(14)
H7_8 H 0.8045 0.9514 0.7293
C15_8 C 0.7697(3) 0.9891(5) 0.76673(15)
C17_8 C 0.9386(3) 0.9373(6) 0.99208(17)
H10_8 H 0.9483 0.8717 0.9943
C20_8 C 0.9507(3) 0.9887(6) 0.96700(16)
H12_8 H 0.9682 0.9565 0.9519
C21_8 C 0.6855(3) 0.9612(5) 0.76428(16)
H13_8 H 0.6541 0.9647 0.7724
I3_7 I 0.01477(2) 0.06449(5) 0.89455(2)
I5_8 I 0.94295(3) 0.33266(4) 0.93241(2)
Zn2_8 Zn 0.94887(3) 0.15056(7) 0.92316(2)
N3_8 N 0.9388(2) 0.0825(5) 0.96298(12)
N4_8 N 0.6767(2) 0.0312(4) 0.82347(12)
N5_8 N 0.7614(2) 0.0343(4) 0.82638(11)
N7_8 N 0.7146(2) 0.0686(4) 0.86866(12)
N8_8 N 0.8858(2) 0.1093(4) 0.90210(12)
C1_8 C 0.6760(3) 0.0544(4) 0.85206(14)
C4_8 C 0.7205(2) 0.0218(4) 0.81191(14)
C6_8 C 0.7566(2) 0.0573(4) 0.85484(14)
C7_8 C 0.8458(3) 0.0654(5) 0.85772(15)
H3_8 H 0.8476 0.0475 0.8376
C9_8 C 0.8014(2) 0.0740(4) 0.87188(13)
C10_8 C 0.8436(3) 0.1164(5) 0.91567(15)
H5_8 H 0.8431 0.1339 0.9359
C11_8 C 0.8866(3) 0.0833(5) 0.87351(15)
H6_8 H 0.9167 0.0772 0.8639
C14_8 C 0.9151(3) 0.1277(6) 0.98497(17)
H8_8 H 0.9076 0.1946 0.9829
H9_8 H 0.7974 0.0123 0.7767
C26_8 C 0.8005(3) 0.0992(5) 0.90134(15)
H16_8 H 0.7709 0.1047 0.9116
C32_8 C 0.6285(3) 0.0655(5) 0.86628(14)
C33_8 C 0.6250(3) 0.0887(5) 0.89583(16)
H21_8 H 0.6531 0.0957 0.9074
C34_8 C 0.5867(3) 0.0562(6) 0.85024(17)
H22_8 H 0.5878 0.0397 0.8299
C35_8 C 0.5802(3) 0.1014(6) 0.90830(17)
H23_8 H 0.5782 0.1153 0.9288
C36_8 C 0.5432(3) 0.0711(6) 0.86424(18)
H24_8 H 0.5145 0.0640 0.8532
N12_4 N 0.5399(2) 0.0950(4) 0.89272(14)
Zn5_4 Zn 0.47500(3) 0.13054(6) 0.91202(2)
I2_7 I 0.49121(3) 0.20916(5) 0.96218(2)
I6_7 I 0.42705(3) 0.21641(5) 0.87231(2)
I2_8 I 0.99121(3) 0.29084(5) 0.03782(2)
I6_8 I 0.92705(3) 0.28359(5) 0.12769(2)
Zn3_4 Zn 0.97500(3) 0.36946(6) 0.08798(2)
N6_8 N 0.9441(2) 0.5024(4) 0.08031(14)
N9_8 N 0.8688(2) 0.8331(4) 0.08878(14)
N10_8 N 0.8727(2) 0.9793(4) 0.06124(13)
N11_8 N 0.9085(2) 0.8353(4) 0.04242(13)
C2_8 C 0.7892(3) 0.9851(5) 0.15300(18)
H1_8 H 0.7717 0.9514 0.1678
C13_8 C 0.9100(3) 0.6884(5) 0.07153(16)
C16_8 C 0.8599(3) 0.9273(5) 0.08486(15)
C18_8 C 0.9271(4) 0.6346(6) 0.04840(18)
H11_8 H 0.9273 0.6607 0.0290
C19_8 C 0.8350(3) 0.9803(5) 0.10908(15)
C22_8 C 0.8112(3) 0.9329(5) 0.13145(18)
H14_8 H 0.8101 0.8640 0.1318
C23_8 C 0.8966(3) 0.9289(5) 0.04057(15)
C25_8 C 0.8944(3) 0.7918(5) 0.06743(15)
C27_8 C 0.9123(3) 0.9828(5) 0.01380(14)
C28_8 C 0.9438(4) 0.5427(6) 0.05361(18)
H17_8 H 0.9557 0.5061 0.0375
C30_8 C 0.9278(3) 0.5564(6) 0.10268(18)
H19_8 H 0.9283 0.5289 0.1219
C31_8 C 0.9102(3) 0.6491(6) 0.09958(18)
H20_8 H 0.8988 0.6848 0.1160
I3_8 I 0.98523(2) 0.56449(5) 0.60545(2)
loop_
_geom_bond_atom_site_label_1
_geom_bond_atom_site_label_2
_geom_bond_site_symmetry_1
_geom_bond_site_symmetry_2
I3 Zn2 1_555 1_555
I5 Zn2 1_555 1_555
Zn2 N3 1_555 1_555
N3 C14 1_555 1_555
N4 C1 1_555 1_555
N5 C4 1_555 1_555
N7 C1 1_555 1_555
N8 Zn2 1_555 1_555
C1 C32 1_555 1_555
C4 N4 1_555 1_555
C5 N2 1_555 1_555
H2 C5 1_555 1_555
C6 N5 1_555 1_555
C7 H3 1_555 1_555
C9 C6 1_555 1_555
C10 N8 1_555 1_555
H5 C10 1_555 1_555
C11 N8 1_555 1_555
H6 C11 1_555 1_555
C14 H8 1_555 1_555
C24 C5 1_555 1_555
H15 C24 1_555 1_555
C26 C9 1_555 1_555
H16 C26 1_555 1_555
C29 C14 1_555 1_555
H18 C29 1_555 1_555
C32 C33 1_555 1_555
C33 H21 1_555 1_555
C34 C32 1_555 1_555
H22 C34 1_555 1_555
C35 C33 1_555 1_555
H23 C35 1_555 1_555
C36 C34 1_555 1_555
H24 C36 1_555 1_555
N12 C35 1_555 1_555
Zn4 N2 1_555 1_555
N7 C6 1_555 1_555
C7 C9 1_555 1_555
C7 C11 1_555 1_555
C10 C26 1_555 1_555
C36 N12 1_555 1_555
I1 Zn4 1_555 1_555
I4 Zn4 1_555 1_555
Zn4 N1 1_555 1_555
N1 C8 1_555 1_555
C8 H4 1_555 1_555
C12 N1 1_555 1_555
H7 C12 1_555 1_555
C15 C3 1_555 1_555
C17 H10 1_555 1_555
H12 C20 1_555 1_555
C21 C3 1_555 1_555
H13 C21 1_555 1_555
C8 C21 1_555 1_555
C12 C15 1_555 1_555
C17 C20 1_555 1_555
I1_2 Zn1 1_555 1_555
I2 Zn3 1_555 1_555
I4_2 Zn1 1_555 1_555
I6 Zn3 1_555 1_555
Zn1 N1_2 1_555 1_555
Zn3 N6 1_555 1_555
N1_2 C8_2 1_555 1_555
N6 C28 1_555 1_555
N9 C16 1_555 1_555
N10 C16 1_555 1_555
N11 C23 1_555 1_555
C2 H1 1_555 1_555
C8_2 H4_2 1_555 1_555
C12_2 N1_2 1_555 1_555
H7_2 C12_2 1_555 1_555
C13 C18 1_555 1_555
C15_2 C3_2 1_555 1_555
C16 C19 1_555 1_555
C17_2 H10_2 1_555 1_555
C18 H11 1_555 1_555
C19 C22 1_555 1_555
H12_2 C20_2 1_555 1_555
C21_2 C3_2 1_555 1_555
H13_2 C21_2 1_555 1_555
C22 C2 1_555 1_555
H14 C22 1_555 1_555
C23 N10 1_555 1_555
C25 N9 1_555 1_555
C27 C17_2 1_555 1_555
C28 C18 1_555 1_555
H17 C28 1_555 1_555
C30 N6 1_555 1_555
H19 C30 1_555 1_555
C31 C13 1_555 1_555
H20 C31 1_555 1_555
N13 Zn1 1_555 1_555
N14 Zn3 1_555 1_555
N11 C25 1_555 1_555
C8_2 C21_2 1_555 1_555
C12_2 C15_2 1_555 1_555
C13 C25 1_555 1_555
C17_2 C20_2 1_555 1_555
C23 C27 1_555 1_555
C30 C31 1_555 1_555
C5_2 N13 1_555 1_555
H2_2 C5_2 1_555 1_555
C24_2 C5_2 1_555 1_555
H15_2 C24_2 1_555 1_555
H18_2 C29_2 1_555 1_555
I1_3 Zn1_2 1_555 1_555
I4_3 Zn1_2 1_555 1_555
I5_2 Zn2_2 1_555 1_555
Zn1_2 N1_3 1_555 1_555
Zn2_2 N3_2 1_555 1_555
N1_3 C8_3 1_555 1_555
N2_2 C2_2 1_555 1_555
N3_2 C14_2 1_555 1_555
N4_2 C1_2 1_555 1_555
N5_2 C4_2 1_555 1_555
N6_2 C28_2 1_555 1_555
N7_2 C1_2 1_555 1_555
N8_2 Zn2_2 1_555 1_555
N9_2 C16_2 1_555 1_555
N10_2 C16_2 1_555 1_555
C1_2 C32_2 1_555 1_555
N11_2 C23_2 1_555 1_555
C2_2 H1_2 1_555 1_555
C3_3 C4_2 1_555 1_555
C4_2 N4_2 1_555 1_555
C5_3 N2_2 1_555 1_555
H2_3 C5_3 1_555 1_555
C6_2 N5_2 1_555 1_555
C7_2 H3_2 1_555 1_555
C8_3 H4_3 1_555 1_555
C9_2 C6_2 1_555 1_555
C10_2 N8_2 1_555 1_555
H5_2 C10_2 1_555 1_555
C11_2 N8_2 1_555 1_555
H6_2 C11_2 1_555 1_555
C12_3 N1_3 1_555 1_555
H7_3 C12_3 1_555 1_555
C13_2 C18_2 1_555 1_555
C14_2 H8_2 1_555 1_555
C15_3 C3_3 1_555 1_555
H9_2 C15_3 1_555 1_555
C16_2 C19_2 1_555 1_555
C17_3 H10_3 1_555 1_555
C18_2 H11_2 1_555 1_555
C19_2 C22_2 1_555 1_555
C20_3 N3_2 1_555 1_555
H12_3 C20_3 1_555 1_555
C21_3 C3_3 1_555 1_555
H13_3 C21_3 1_555 1_555
C22_2 C2_2 1_555 1_555
H14_2 C22_2 1_555 1_555
C23_2 N10_2 1_555 1_555
C24_3 C5_3 1_555 1_555
H15_3 C24_3 1_555 1_555
C25_2 N9_2 1_555 1_555
C26_2 C9_2 1_555 1_555
H16_2 C26_2 1_555 1_555
C27_2 C17_3 1_555 1_555
C28_2 C18_2 1_555 1_555
H17_2 C28_2 1_555 1_555
C29_3 C14_2 1_555 1_555
H18_3 C29_3 1_555 1_555
C30_2 N6_2 1_555 1_555
H19_2 C30_2 1_555 1_555
C31_2 C13_2 1_555 1_555
H20_2 C31_2 1_555 1_555
C32_2 C33_2 1_555 1_555
C33_2 H21_2 1_555 1_555
C34_2 C32_2 1_555 1_555
H22_2 C34_2 1_555 1_555
C35_2 C33_2 1_555 1_555
H23_2 C35_2 1_555 1_555
C36_2 C34_2 1_555 1_555
H24_2 C36_2 1_555 1_555
N14 C35_2 1_555 1_555
Zn4_2 N2_2 1_555 1_555
N13_2 Zn1_2 1_555 1_555
N7_2 C6_2 1_555 1_555
N11_2 C25_2 1_555 1_555
C7_2 C9_2 1_555 1_555
C7_2 C11_2 1_555 1_555
C8_3 C21_3 1_555 1_555
C10_2 C26_2 1_555 1_555
C12_3 C15_3 1_555 1_555
C13_2 C25_2 1_555 1_555
C17_3 C20_3 1_555 1_555
C19_2 C24_3 1_555 1_555
C23_2 C27_2 1_555 1_555
C27_2 C29_3 1_555 1_555
C30_2 C31_2 1_555 1_555
C36_2 N14 1_555 1_555
N13_2 C2_3 1_555 1_555
N6_3 C28_3 1_555 1_555
N9_3 C16_3 1_555 1_555
N10_3 C16_3 1_555 1_555
N11_3 C23_3 1_555 1_555
C2_3 H1_3 1_555 1_555
C5_4 N13_2 1_555 1_555
H2_4 C5_4 1_555 1_555
C13_3 C18_3 1_555 1_555
C16_3 C19_3 1_555 1_555
C18_3 H11_3 1_555 1_555
C19_3 C22_3 1_555 1_555
C22_3 C2_3 1_555 1_555
H14_3 C22_3 1_555 1_555
C23_3 N10_3 1_555 1_555
C24_4 C5_4 1_555 1_555
H15_4 C24_4 1_555 1_555
C25_3 N9_3 1_555 1_555
C28_3 C18_3 1_555 1_555
H17_3 C28_3 1_555 1_555
H18_4 C29_4 1_555 1_555
C30_3 N6_3 1_555 1_555
H19_3 C30_3 1_555 1_555
C31_3 C13_3 1_555 1_555
H20_3 C31_3 1_555 1_555
N11_3 C25_3 1_555 1_555
C13_3 C25_3 1_555 1_555
C19_3 C24_4 1_555 1_555
C23_3 C27_3 1_555 1_555
C27_3 C29_4 1_555 1_555
C30_3 C31_3 1_555 1_555
I1_4 Zn4_2 1_555 1_555
I3_2 Zn2_3 1_555 1_555
I4_4 Zn4_2 1_555 1_555
I5_3 Zn2_3 1_555 1_555
Zn4_2 N1_4 1_555 1_555
Zn2_3 N3_3 1_555 1_555
N1_4 C8_4 1_555 1_555
N3_3 C14_3 1_555 1_555
N4_3 C1_3 1_555 1_555
N5_3 C4_3 1_555 1_555
N7_3 C1_3 1_555 1_555
N8_3 Zn2_3 1_555 1_555
C1_3 C32_3 1_555 1_555
C3_4 C4_3 1_555 1_555
C4_3 N4_3 1_555 1_555
C6_3 N5_3 1_555 1_555
C7_3 H3_3 1_555 1_555
C8_4 H4_4 1_555 1_555
C9_3 C6_3 1_555 1_555
C10_3 N8_3 1_555 1_555
H5_3 C10_3 1_555 1_555
C11_3 N8_3 1_555 1_555
H6_3 C11_3 1_555 1_555
C12_4 N1_4 1_555 1_555
H7_4 C12_4 1_555 1_555
C14_3 H8_3 1_555 1_555
C15_4 C3_4 1_555 1_555
H9_3 C15_4 1_555 1_555
C17_4 H10_4 1_555 1_555
C20_4 N3_3 1_555 1_555
H12_4 C20_4 1_555 1_555
C21_4 C3_4 1_555 1_555
H13_4 C21_4 1_555 1_555
C26_3 C9_3 1_555 1_555
H16_3 C26_3 1_555 1_555
C32_3 C33_3 1_555 1_555
C33_3 H21_3 1_555 1_555
C34_3 C32_3 1_555 1_555
H22_3 C34_3 1_555 1_555
C35_3 C33_3 1_555 1_555
H23_3 C35_3 1_555 1_555
C36_3 C34_3 1_555 1_555
H24_3 C36_3 1_555 1_555
N14_2 C35_3 1_555 1_555
N7_3 C6_3 1_555 1_555
C7_3 C9_3 1_555 1_555
C7_3 C11_3 1_555 1_555
C8_4 C21_4 1_555 1_555
C10_3 C26_3 1_555 1_555
C12_4 C15_4 1_555 1_555
C17_4 C20_4 1_555 1_555
C36_3 N14_2 1_555 1_555
I2_2 Zn5 1_555 1_555
I6_2 Zn5 1_555 1_555
I2_3 Zn3_2 1_555 1_555
I6_3 Zn3_2 1_555 1_555
Zn3_2 N6_4 1_555 1_555
N6_4 C28_4 1_555 1_555
N9_4 C16_4 1_555 1_555
N10_4 C16_4 1_555 1_555
N11_4 C23_4 1_555 1_555
C2_4 H1_4 1_555 1_555
C13_4 C18_4 1_555 1_555
C16_4 C19_4 1_555 1_555
C18_4 H11_4 1_555 1_555
C19_4 C22_4 1_555 1_555
C22_4 C2_4 1_555 1_555
H14_4 C22_4 1_555 1_555
C23_4 N10_4 1_555 1_555
C25_4 N9_4 1_555 1_555
C28_4 C18_4 1_555 1_555
H17_4 C28_4 1_555 1_555
C30_4 N6_4 1_555 1_555
H19_4 C30_4 1_555 1_555
C31_4 C13_4 1_555 1_555
H20_4 C31_4 1_555 1_555
N11_4 C25_4 1_555 1_555
C13_4 C25_4 1_555 1_555
C23_4 C27_4 1_555 1_555
C30_4 C31_4 1_555 1_555
I5_4 Zn2_4 1_555 1_555
Zn2_4 N3_4 1_555 1_555
N3_4 C14_4 1_555 1_555
N4_4 C1_4 1_555 1_555
N5_4 C4_4 1_555 1_555
N7_4 C1_4 1_555 1_555
N8_4 Zn2_4 1_555 1_555
C1_4 C32_4 1_555 1_555
C4_4 N4_4 1_555 1_555
C6_4 N5_4 1_555 1_555
C7_4 H3_4 1_555 1_555
C9_4 C6_4 1_555 1_555
C10_4 N8_4 1_555 1_555
H5_4 C10_4 1_555 1_555
C11_4 N8_4 1_555 1_555
H6_4 C11_4 1_555 1_555
C14_4 H8_4 1_555 1_555
C26_4 C9_4 1_555 1_555
H16_4 C26_4 1_555 1_555
C32_4 C33_4 1_555 1_555
C33_4 H21_4 1_555 1_555
C34_4 C32_4 1_555 1_555
H22_4 C34_4 1_555 1_555
C35_4 C33_4 1_555 1_555
H23_4 C35_4 1_555 1_555
C36_4 C34_4 1_555 1_555
H24_4 C36_4 1_555 1_555
N12_2 C35_4 1_555 1_555
Zn5_2 N12_2 1_555 1_555
N7_4 C6_4 1_555 1_555
C7_4 C9_4 1_555 1_555
C7_4 C11_4 1_555 1_555
C10_4 C26_4 1_555 1_555
C36_4 N12_2 1_555 1_555
I2_4 Zn5_2 1_555 1_555
I6_4 Zn5_2 1_555 1_555
I2_5 Zn5_3 1_555 1_555
I6_5 Zn5_3 1_555 1_555
I1_5 Zn1_3 1_555 1_555
I2_6 Zn3_3 1_555 1_555
I4_5 Zn1_3 1_555 1_555
I6_6 Zn3_3 1_555 1_555
Zn1_3 N1_5 1_555 1_555
Zn3_3 N6_5 1_555 1_555
N1_5 C8_5 1_555 1_555
N6_5 C28_5 1_555 1_555
N9_5 C16_5 1_555 1_555
N10_5 C16_5 1_555 1_555
N11_5 C23_5 1_555 1_555
C2_5 H1_5 1_555 1_555
C8_5 H4_5 1_555 1_555
C12_5 N1_5 1_555 1_555
H7_5 C12_5 1_555 1_555
C13_5 C18_5 1_555 1_555
C15_5 C3_5 1_555 1_555
C16_5 C19_5 1_555 1_555
C17_5 H10_5 1_555 1_555
C18_5 H11_5 1_555 1_555
C19_5 C22_5 1_555 1_555
H12_5 C20_5 1_555 1_555
C21_5 C3_5 1_555 1_555
H13_5 C21_5 1_555 1_555
C22_5 C2_5 1_555 1_555
H14_5 C22_5 1_555 1_555
C23_5 N10_5 1_555 1_555
C25_5 N9_5 1_555 1_555
C27_5 C17_5 1_555 1_555
C28_5 C18_5 1_555 1_555
H17_5 C28_5 1_555 1_555
C30_5 N6_5 1_555 1_555
H19_5 C30_5 1_555 1_555
C31_5 C13_5 1_555 1_555
H20_5 C31_5 1_555 1_555
N13_3 Zn1_3 1_555 1_555
N14_3 Zn3_3 1_555 1_555
N11_5 C25_5 1_555 1_555
C8_5 C21_5 1_555 1_555
C12_5 C15_5 1_555 1_555
C13_5 C25_5 1_555 1_555
C17_5 C20_5 1_555 1_555
C23_5 C27_5 1_555 1_555
C30_5 C31_5 1_555 1_555
C5_5 N13_3 1_555 1_555
H2_5 C5_5 1_555 1_555
C24_5 C5_5 1_555 1_555
H15_5 C24_5 1_555 1_555
H18_5 C29_5 1_555 1_555
I1_6 Zn1_4 1_555 1_555
I4_6 Zn1_4 1_555 1_555
I5_5 Zn2_5 1_555 1_555
Zn1_4 N1_6 1_555 1_555
Zn2_5 N3_5 1_555 1_555
N1_6 C8_6 1_555 1_555
N2_3 C2_6 1_555 1_555
N3_5 C14_5 1_555 1_555
N4_5 C1_5 1_555 1_555
N5_5 C4_5 1_555 1_555
N6_6 C28_6 1_555 1_555
N7_5 C1_5 1_555 1_555
N8_5 Zn2_5 1_555 1_555
N9_6 C16_6 1_555 1_555
N10_6 C16_6 1_555 1_555
C1_5 C32_5 1_555 1_555
N11_6 C23_6 1_555 1_555
C2_6 H1_6 1_555 1_555
C3_6 C4_5 1_555 1_555
C4_5 N4_5 1_555 1_555
C5_6 N2_3 1_555 1_555
H2_6 C5_6 1_555 1_555
C6_5 N5_5 1_555 1_555
C7_5 H3_5 1_555 1_555
C8_6 H4_6 1_555 1_555
C9_5 C6_5 1_555 1_555
C10_5 N8_5 1_555 1_555
H5_5 C10_5 1_555 1_555
C11_5 N8_5 1_555 1_555
H6_5 C11_5 1_555 1_555
C12_6 N1_6 1_555 1_555
H7_6 C12_6 1_555 1_555
C13_6 C18_6 1_555 1_555
C14_5 H8_5 1_555 1_555
C15_6 C3_6 1_555 1_555
H9_5 C15_6 1_555 1_555
C16_6 C19_6 1_555 1_555
C17_6 H10_6 1_555 1_555
C18_6 H11_6 1_555 1_555
C19_6 C22_6 1_555 1_555
C20_6 N3_5 1_555 1_555
H12_6 C20_6 1_555 1_555
C21_6 C3_6 1_555 1_555
H13_6 C21_6 1_555 1_555
C22_6 C2_6 1_555 1_555
H14_6 C22_6 1_555 1_555
C23_6 N10_6 1_555 1_555
C24_6 C5_6 1_555 1_555
H15_6 C24_6 1_555 1_555
C25_6 N9_6 1_555 1_555
C26_5 C9_5 1_555 1_555
H16_5 C26_5 1_555 1_555
C27_6 C17_6 1_555 1_555
C28_6 C18_6 1_555 1_555
H17_6 C28_6 1_555 1_555
C29_6 C14_5 1_555 1_555
H18_6 C29_6 1_555 1_555
C30_6 N6_6 1_555 1_555
H19_6 C30_6 1_555 1_555
C31_6 C13_6 1_555 1_555
H20_6 C31_6 1_555 1_555
C32_5 C33_5 1_555 1_555
C33_5 H21_5 1_555 1_555
C34_5 C32_5 1_555 1_555
H22_5 C34_5 1_555 1_555
C35_5 C33_5 1_555 1_555
H23_5 C35_5 1_555 1_555
C36_5 C34_5 1_555 1_555
H24_5 C36_5 1_555 1_555
N14_3 C35_5 1_555 1_555
Zn4_3 N2_3 1_555 1_555
N13_4 Zn1_4 1_555 1_555
N7_5 C6_5 1_555 1_555
N11_6 C25_6 1_555 1_555
C7_5 C9_5 1_555 1_555
C7_5 C11_5 1_555 1_555
C8_6 C21_6 1_555 1_555
C10_5 C26_5 1_555 1_555
C12_6 C15_6 1_555 1_555
C13_6 C25_6 1_555 1_555
C17_6 C20_6 1_555 1_555
C19_6 C24_6 1_555 1_555
C23_6 C27_6 1_555 1_555
C27_6 C29_6 1_555 1_555
C30_6 C31_6 1_555 1_555
C36_5 N14_3 1_555 1_555
I1_7 Zn4_3 1_555 1_555
I3_5 Zn2_6 1_555 1_555
I4_7 Zn4_3 1_555 1_555
I5_6 Zn2_6 1_555 1_555
Zn4_3 N1_7 1_555 1_555
Zn2_6 N3_6 1_555 1_555
N1_7 C8_7 1_555 1_555
N3_6 C14_6 1_555 1_555
N4_6 C1_6 1_555 1_555
N5_6 C4_6 1_555 1_555
N7_6 C1_6 1_555 1_555
N8_6 Zn2_6 1_555 1_555
C1_6 C32_6 1_555 1_555
C3_7 C4_6 1_555 1_555
C4_6 N4_6 1_555 1_555
C6_6 N5_6 1_555 1_555
C7_6 H3_6 1_555 1_555
C8_7 H4_7 1_555 1_555
C9_6 C6_6 1_555 1_555
C10_6 N8_6 1_555 1_555
H5_6 C10_6 1_555 1_555
C11_6 N8_6 1_555 1_555
H6_6 C11_6 1_555 1_555
C12_7 N1_7 1_555 1_555
H7_7 C12_7 1_555 1_555
C14_6 H8_6 1_555 1_555
C15_7 C3_7 1_555 1_555
H9_6 C15_7 1_555 1_555
C17_7 H10_7 1_555 1_555
C20_7 N3_6 1_555 1_555
H12_7 C20_7 1_555 1_555
C21_7 C3_7 1_555 1_555
H13_7 C21_7 1_555 1_555
C26_6 C9_6 1_555 1_555
H16_6 C26_6 1_555 1_555
C32_6 C33_6 1_555 1_555
C33_6 H21_6 1_555 1_555
C34_6 C32_6 1_555 1_555
H22_6 C34_6 1_555 1_555
C35_6 C33_6 1_555 1_555
H23_6 C35_6 1_555 1_555
C36_6 C34_6 1_555 1_555
H24_6 C36_6 1_555 1_555
N14_4 C35_6 1_555 1_555
N7_6 C6_6 1_555 1_555
C7_6 C9_6 1_555 1_555
C7_6 C11_6 1_555 1_555
C8_7 C21_7 1_555 1_555
C10_6 C26_6 1_555 1_555
C12_7 C15_7 1_555 1_555
C17_7 C20_7 1_555 1_555
C36_6 N14_4 1_555 1_555
N13_4 C2_7 1_555 1_555
N6_7 C28_7 1_555 1_555
N9_7 C16_7 1_555 1_555
N10_7 C16_7 1_555 1_555
N11_7 C23_7 1_555 1_555
C2_7 H1_7 1_555 1_555
C5_7 N13_4 1_555 1_555
H2_7 C5_7 1_555 1_555
C13_7 C18_7 1_555 1_555
C16_7 C19_7 1_555 1_555
C18_7 H11_7 1_555 1_555
C19_7 C22_7 1_555 1_555
C22_7 C2_7 1_555 1_555
H14_7 C22_7 1_555 1_555
C23_7 N10_7 1_555 1_555
C24_7 C5_7 1_555 1_555
H15_7 C24_7 1_555 1_555
C25_7 N9_7 1_555 1_555
C28_7 C18_7 1_555 1_555
H17_7 C28_7 1_555 1_555
H18_7 C29_7 1_555 1_555
C30_7 N6_7 1_555 1_555
H19_7 C30_7 1_555 1_555
C31_7 C13_7 1_555 1_555
H20_7 C31_7 1_555 1_555
N11_7 C25_7 1_555 1_555
C13_7 C25_7 1_555 1_555
C19_7 C24_7 1_555 1_555
C23_7 C27_7 1_555 1_555
C27_7 C29_7 1_555 1_555
C30_7 C31_7 1_555 1_555
I3_6 Zn2_7 1_555 1_555
I5_7 Zn2_7 1_555 1_555
Zn2_7 N3_7 1_555 1_555
N3_7 C14_7 1_555 1_555
N4_7 C1_7 1_555 1_555
N5_7 C4_7 1_555 1_555
N7_7 C1_7 1_555 1_555
N8_7 Zn2_7 1_555 1_555
C1_7 C32_7 1_555 1_555
C4_7 N4_7 1_555 1_555
C5_8 N2_4 1_555 1_555
H2_8 C5_8 1_555 1_555
C6_7 N5_7 1_555 1_555
C7_7 H3_7 1_555 1_555
C9_7 C6_7 1_555 1_555
C10_7 N8_7 1_555 1_555
H5_7 C10_7 1_555 1_555
C11_7 N8_7 1_555 1_555
H6_7 C11_7 1_555 1_555
C14_7 H8_7 1_555 1_555
C24_8 C5_8 1_555 1_555
H15_8 C24_8 1_555 1_555
C26_7 C9_7 1_555 1_555
H16_7 C26_7 1_555 1_555
C29_8 C14_7 1_555 1_555
H18_8 C29_8 1_555 1_555
C32_7 C33_7 1_555 1_555
C33_7 H21_7 1_555 1_555
C34_7 C32_7 1_555 1_555
H22_7 C34_7 1_555 1_555
C35_7 C33_7 1_555 1_555
H23_7 C35_7 1_555 1_555
C36_7 C34_7 1_555 1_555
H24_7 C36_7 1_555 1_555
N12_3 C35_7 1_555 1_555
Zn4_4 N2_4 1_555 1_555
N7_7 C6_7 1_555 1_555
C7_7 C9_7 1_555 1_555
C7_7 C11_7 1_555 1_555
C10_7 C26_7 1_555 1_555
C36_7 N12_3 1_555 1_555
I1_8 Zn4_4 1_555 1_555
I4_8 Zn4_4 1_555 1_555
Zn4_4 N1_8 1_555 1_555
N1_8 C8_8 1_555 1_555
C8_8 H4_8 1_555 1_555
C12_8 N1_8 1_555 1_555
H7_8 C12_8 1_555 1_555
C15_8 C3_8 1_555 1_555
C17_8 H10_8 1_555 1_555
H12_8 C20_8 1_555 1_555
C21_8 C3_8 1_555 1_555
H13_8 C21_8 1_555 1_555
C8_8 C21_8 1_555 1_555
C12_8 C15_8 1_555 1_555
C17_8 C20_8 1_555 1_555
I5_8 Zn2_8 1_555 1_555
Zn2_8 N3_8 1_555 1_555
N3_8 C14_8 1_555 1_555
N4_8 C1_8 1_555 1_555
N5_8 C4_8 1_555 1_555
N7_8 C1_8 1_555 1_555
N8_8 Zn2_8 1_555 1_555
C1_8 C32_8 1_555 1_555
C4_8 N4_8 1_555 1_555
C6_8 N5_8 1_555 1_555
C7_8 H3_8 1_555 1_555
C9_8 C6_8 1_555 1_555
C10_8 N8_8 1_555 1_555
H5_8 C10_8 1_555 1_555
C11_8 N8_8 1_555 1_555
H6_8 C11_8 1_555 1_555
C14_8 H8_8 1_555 1_555
C26_8 C9_8 1_555 1_555
H16_8 C26_8 1_555 1_555
C32_8 C33_8 1_555 1_555
C33_8 H21_8 1_555 1_555
C34_8 C32_8 1_555 1_555
H22_8 C34_8 1_555 1_555
C35_8 C33_8 1_555 1_555
H23_8 C35_8 1_555 1_555
C36_8 C34_8 1_555 1_555
H24_8 C36_8 1_555 1_555
N12_4 C35_8 1_555 1_555
Zn5_4 N12_4 1_555 1_555
N7_8 C6_8 1_555 1_555
C7_8 C9_8 1_555 1_555
C7_8 C11_8 1_555 1_555
C10_8 C26_8 1_555 1_555
C36_8 N12_4 1_555 1_555
I2_7 Zn5_4 1_555 1_555
I6_7 Zn5_4 1_555 1_555
I2_8 Zn3_4 1_555 1_555
I6_8 Zn3_4 1_555 1_555
Zn3_4 N6_8 1_555 1_555
N6_8 C28_8 1_555 1_555
N9_8 C16_8 1_555 1_555
N10_8 C16_8 1_555 1_555
N11_8 C23_8 1_555 1_555
C2_8 H1_8 1_555 1_555
C13_8 C18_8 1_555 1_555
C16_8 C19_8 1_555 1_555
C18_8 H11_8 1_555 1_555
C19_8 C22_8 1_555 1_555
C22_8 C2_8 1_555 1_555
H14_8 C22_8 1_555 1_555
C23_8 N10_8 1_555 1_555
C25_8 N9_8 1_555 1_555
C28_8 C18_8 1_555 1_555
H17_8 C28_8 1_555 1_555
C30_8 N6_8 1_555 1_555
H19_8 C30_8 1_555 1_555
C31_8 C13_8 1_555 1_555
H20_8 C31_8 1_555 1_555
N11_8 C25_8 1_555 1_555
C13_8 C25_8 1_555 1_555
C23_8 C27_8 1_555 1_555
C30_8 C31_8 1_555 1_555

#END
