
###############################################################################
#
# This file contains modified crystal structure data generated from the
# MOF subset of the Cambridge Structural Database (CSD) v543 
# hosted by the Cambridge Crystallographic Data Centre (CCDC).
#
# This work is licensed under the Creative Commons
# Attribution-NonCommercial-ShareAlike 4.0 International License.
# To view a copy of this license, visit
# http://creativecommons.org/licenses/by-nc-sa/4.0/
# or send a letter to
# Creative Commons, PO Box 1866, Mountain View, CA 94042, USA.
#
# CIF created using the CSD Python API on 29 September 2022
# The structure has been converted into the P1 space group
# The structure has a 3D framework
# The original CSD entry RIYBIM is in the orthorhombic crystal system
# The framework has been calculated to contain at least 10.0% void space
# The void calculation uses a probe of radius 1.32A, grid spacing 0.4
#
###############################################################################

data_RIYBIM
_chemical_formula_moiety         '(C288 H192 I48 N96 Zn24)n'
_symmetry_cell_setting           triclinic
_symmetry_space_group_name_H-M   'P 1'
_symmetry_Int_Tables_number      1
_space_group_name_Hall           'P 1'
loop_
_symmetry_equiv_pos_site_id
_symmetry_equiv_pos_as_xyz
1 x,y,z
_cell_length_a                   27.6775(9)
_cell_length_b                   13.7981(3)
_cell_length_c                   44.3415(11)
_cell_angle_alpha                90
_cell_angle_beta                 90
_cell_angle_gamma                90
_cell_volume                     16933.9
loop_
_atom_site_label
_atom_site_type_symbol
_atom_site_fract_x
_atom_site_fract_y
_atom_site_fract_z
Zn4 Zn 0.47915(6) 0.13000(11) 0.58295(4)
I1 I 0.49981(6) 0.19611(11) 0.53540(4)
Zn2 Zn 0.95366(6) 0.15692(12) 0.58328(4)
Zn3 Zn 0.75208(9) 0.15741(15) 0.32086(4)
I2 I 0.94488(7) 0.32466(11) 0.57655(4)
I4 I 0.67150(10) 0.1389(2) 0.33675(5)
I5 I 0.43064(8) 0.21005(15) 0.61850(6)
I6 I 0.78399(13) 0.31439(14) 0.31497(4)
N1 N 0.5426(4) 0.0932(8) 0.6049(3)
N2 N 0.6764(4) 0.0275(7) 0.6799(2)
N4 N 0.9501(4) 0.0906(7) 0.5418(2)
N5 N 0.7151(4) 0.0667(7) 0.6341(2)
N6 N 0.8881(4) 0.1121(7) 0.6022(2)
N8 N 0.7635(4) 0.0293(7) 0.6775(2)
N9 N 0.7952(5) 0.0826(9) 0.3504(3)
C2 C 0.7579(5) 0.0553(8) 0.6482(3)
C3 C 0.6767(5) 0.0519(8) 0.6505(3)
C4 C 0.7212(5) 0.0197(8) 0.6921(3)
C5 C 0.8477(5) 0.0613(8) 0.6464(3)
H1 H 0.8495 0.0402 0.6667
C6 C 0.8038(5) 0.0986(9) 0.6008(3)
H2 H 0.7751 0.1030 0.5891
C9 C 0.8024(5) 0.0711(9) 0.6317(3)
C10 C 0.9220(5) 0.0910(9) 0.4912(3)
H3 H 0.9096 0.1271 0.4746
C12 C 0.5863(5) 0.0949(10) 0.5906(3)
H5 H 0.5863 0.1055 0.5695
C13 C 0.6276(5) 0.0833(9) 0.6037(3)
H6 H 0.6565 0.0878 0.5922
C14 C 0.9351(5) 0.1328(9) 0.5177(3)
H7 H 0.9330 0.2014 0.5185
C16 C 0.8884(5) 0.0825(8) 0.6308(3)
H9 H 0.9187 0.0761 0.6407
C17 C 0.6301(5) 0.0637(9) 0.6355(3)
C19 C 0.8487(5) 0.1187(8) 0.5885(3)
H10 H 0.8496 0.1393 0.5681
C23 C 0.8263(6) 0.1289(12) 0.3692(3)
H13 H 0.8321 0.1963 0.3668
C26 C 0.8483(7) 0.0808(11) 0.3908(3)
H15 H 0.8671 0.1169 0.4048
H19 H 0.7982 0.0080 0.7272
C32 C 0.5424(6) 0.0745(9) 0.6348(4)
H20 H 0.5125 0.0711 0.6452
C34 C 0.5853(6) 0.0602(11) 0.6505(4)
H22 H 0.5843 0.0480 0.6716
N14 N 0.7633(5) 0.0801(8) 0.2817(2)
C15 C 0.5431(4) 0.0058(9) 0.0404(3)
H8 H 0.5297 0.0384 0.0574
C25 C 0.5553(5) 0.0587(9) 0.0147(3)
H14 H 0.5520 0.1272 0.0145
C30 C 0.7749(6) 0.0149(9) 0.2241(3)
C31 C 0.7293(6) 0.0147(9) 0.2379(3)
C33 C 0.8142(6) 0.0443(9) 0.2404(3)
H21 H 0.8457 0.0415 0.2320
C35 C 0.8070(6) 0.0783(9) 0.2694(3)
H23 H 0.8338 0.1009 0.2808
C36 C 0.7250(6) 0.0467(9) 0.2661(3)
H24 H 0.6942 0.0459 0.2755
Zn2_2 Zn 0.45366(6) 0.34308(12) 0.41672(4)
Zn3_2 Zn 0.25208(9) 0.34259(15) 0.67914(4)
I2_2 I 0.44488(7) 0.17534(11) 0.42345(4)
I3 I 0.51433(6) 0.41798(15) 0.38781(4)
I4_2 I 0.17150(10) 0.3611(2) 0.66325(5)
I6_2 I 0.28399(13) 0.18561(14) 0.68503(4)
N1_2 N 0.0426(4) 0.4068(8) 0.3951(3)
N2_2 N 0.1764(4) 0.4725(7) 0.3201(2)
N3 N 0.4480(4) 0.9988(7) 0.5748(2)
N4_2 N 0.4501(4) 0.4094(7) 0.4582(2)
N5_2 N 0.2151(4) 0.4333(7) 0.3659(2)
N6_2 N 0.3881(4) 0.3879(7) 0.3978(2)
N7 N 0.4201(4) 0.6601(8) 0.5387(2)
C1 C 0.4112(4) 0.5658(8) 0.5377(3)
N8_2 N 0.2635(4) 0.4707(7) 0.3225(2)
N9_2 N 0.2952(5) 0.4174(9) 0.6496(3)
N10 N 0.3778(4) 0.6638(7) 0.5848(3)
C2_2 C 0.2579(5) 0.4447(8) 0.3518(3)
C3_2 C 0.1767(5) 0.4481(8) 0.3495(3)
C4_2 C 0.2212(5) 0.4803(8) 0.3079(3)
C5_2 C 0.3477(5) 0.4387(8) 0.3536(3)
H1_2 H 0.3495 0.4598 0.3333
C6_2 C 0.3038(5) 0.4014(9) 0.3992(3)
H2_2 H 0.2751 0.3970 0.4109
C7 C 0.4283(4) 0.5116(10) 0.5097(3)
C8 C 0.4030(4) 0.7022(8) 0.5629(3)
N11 N 0.3877(4) 0.5170(7) 0.5578(2)
C9_2 C 0.3024(5) 0.4289(9) 0.3683(3)
C10_2 C 0.4220(5) 0.4090(9) 0.5088(3)
H3_2 H 0.4096 0.3729 0.5254
C11 C 0.4542(5) 0.9535(9) 0.5489(3)
H4 H 0.4689 0.9890 0.5330
C12_2 C 0.0863(5) 0.4051(10) 0.4094(3)
H5_2 H 0.0863 0.3945 0.4305
C13_2 C 0.1276(5) 0.4167(9) 0.3963(3)
H6_2 H 0.1565 0.4122 0.4078
C14_2 C 0.4351(5) 0.3672(9) 0.4823(3)
H7_2 H 0.4330 0.2986 0.4815
C15_2 C 0.4569(4) 0.5058(9) 0.4596(3)
H8_2 H 0.4703 0.5384 0.4426
C16_2 C 0.3884(5) 0.4175(8) 0.3692(3)
H9_2 H 0.4187 0.4239 0.3593
C17_2 C 0.1301(5) 0.4363(9) 0.3645(3)
C18 C 0.3462(5) 0.5165(9) 0.6055(3)
C19_2 C 0.3487(5) 0.3813(8) 0.4115(3)
H10_2 H 0.3496 0.3607 0.4319
C20 C 0.4406(5) 0.8550(10) 0.5427(3)
H11 H 0.4464 0.8245 0.5239
C21 C 0.3724(4) 0.5679(9) 0.5815(3)
C22 C 0.3192(7) 0.5655(12) 0.6271(4)
H12 H 0.3164 0.6340 0.6265
C23_2 C 0.3263(6) 0.3711(12) 0.6308(3)
H13_2 H 0.3321 0.3037 0.6332
C24 C 0.4180(5) 0.8073(9) 0.5671(3)
C25_2 C 0.4447(5) 0.5587(9) 0.4853(3)
H14_2 H 0.4480 0.6272 0.4855
C26_2 C 0.3483(7) 0.4192(11) 0.6092(3)
H15_2 H 0.3671 0.3831 0.5952
C27 C 0.4083(4) 0.8557(10) 0.5933(3)
H16 H 0.3905 0.8250 0.6090
C28 C 0.4253(5) 0.9533(9) 0.5969(3)
H17 H 0.4201 0.9858 0.6155
C29 C 0.2959(8) 0.5115(12) 0.6498(5)
H18 H 0.2803 0.5450 0.6658
C30_2 C 0.2251(6) 0.5149(9) 0.2759(3)
C31_2 C 0.2707(6) 0.5147(9) 0.2621(3)
H19_2 H 0.2982 0.4920 0.2728
C32_2 C 0.0424(6) 0.4255(9) 0.3652(4)
H20_2 H 0.0125 0.4289 0.3548
C33_2 C 0.1858(6) 0.5443(9) 0.2596(3)
H21_2 H 0.1543 0.5415 0.2680
C34_2 C 0.0853(6) 0.4398(11) 0.3495(4)
H22_2 H 0.0843 0.4520 0.3284
C35_2 C 0.1930(6) 0.5783(9) 0.2306(3)
H23_2 H 0.1662 0.6009 0.2192
C36_2 C 0.2750(6) 0.5467(9) 0.2339(3)
H24_2 H 0.3058 0.5459 0.2245
N12 N 0.2367(5) 0.5801(8) 0.2183(2)
Zn5 Zn 0.24792(9) 0.65741(15) 0.17914(4)
N14_2 N 0.2633(5) 0.4199(8) 0.7183(2)
Zn1 Zn 0.97915(6) 0.37000(11) 0.41705(4)
I1_2 I 0.99981(6) 0.30389(11) 0.46460(4)
I5_2 I 0.93064(8) 0.28995(15) 0.38150(6)
N13 N 0.9480(4) 0.5012(7) 0.4252(2)
I4_3 I 0.32850(10) 0.6389(2) 0.16325(5)
I6_3 I 0.21601(13) 0.81439(14) 0.18503(4)
N3_2 N 0.0520(4) 0.0012(7) 0.0748(2)
N7_2 N 0.0799(4) 0.3399(8) 0.0387(2)
C1_2 C 0.0888(4) 0.4342(8) 0.0377(3)
N9_3 N 0.2048(5) 0.5826(9) 0.1496(3)
N10_2 N 0.1222(4) 0.3362(7) 0.0848(3)
C7_2 C 0.0717(4) 0.4884(10) 0.0097(3)
C8_2 C 0.0970(4) 0.2978(8) 0.0629(3)
N11_2 N 0.1123(4) 0.4830(7) 0.0578(2)
C10_3 C 0.0780(5) 0.5910(9) 0.0088(3)
H3_3 H 0.0904 0.6271 0.0254
C11_2 C 0.0458(5) 0.0465(9) 0.0489(3)
H4_2 H 0.0311 0.0110 0.0330
C18_2 C 0.1538(5) 0.4835(9) 0.1055(3)
C20_2 C 0.0594(5) 0.1450(10) 0.0427(3)
H11_2 H 0.0536 0.1755 0.0239
C21_2 C 0.1276(4) 0.4321(9) 0.0815(3)
C22_2 C 0.1808(7) 0.4345(12) 0.1271(4)
H12_2 H 0.1836 0.3660 0.1265
C23_3 C 0.1737(6) 0.6289(12) 0.1308(3)
H13_3 H 0.1679 0.6963 0.1332
C24_2 C 0.0820(5) 0.1927(9) 0.0671(3)
C26_3 C 0.1517(7) 0.5808(11) 0.1092(3)
H15_3 H 0.1329 0.6169 0.0952
C27_2 C 0.0917(4) 0.1443(10) 0.0933(3)
H16_2 H 0.1095 0.1750 0.1090
C28_2 C 0.0747(5) 0.0467(9) 0.0969(3)
H17_2 H 0.0799 0.0142 0.1155
C29_2 C 0.2041(8) 0.4885(12) 0.1498(5)
H18_2 H 0.2197 0.4550 0.1658
Zn1_2 Zn 0.52085(6) 0.63000(11) 0.91705(4)
I1_3 I 0.50019(6) 0.69611(11) 0.96460(4)
Zn2_3 Zn 0.04634(6) 0.65692(12) 0.91672(4)
I2_3 I 0.05512(7) 0.82466(11) 0.92345(4)
I5_3 I 0.56936(8) 0.71005(15) 0.88150(6)
N1_3 N 0.4574(4) 0.5932(8) 0.8951(3)
N2_3 N 0.3236(4) 0.5275(7) 0.8201(2)
N4_3 N 0.0499(4) 0.5906(7) 0.9582(2)
N5_3 N 0.2849(4) 0.5667(7) 0.8659(2)
N6_3 N 0.1119(4) 0.6121(7) 0.8978(2)
N8_3 N 0.2365(4) 0.5293(7) 0.8225(2)
C2_3 C 0.2421(5) 0.5553(8) 0.8518(3)
C3_3 C 0.3233(5) 0.5519(8) 0.8495(3)
C4_3 C 0.2788(5) 0.5197(8) 0.8079(3)
C5_3 C 0.1523(5) 0.5613(8) 0.8536(3)
H1_3 H 0.1505 0.5402 0.8333
C6_3 C 0.1962(5) 0.5986(9) 0.8992(3)
H2_3 H 0.2249 0.6030 0.9109
C9_3 C 0.1976(5) 0.5711(9) 0.8683(3)
C12_3 C 0.4137(5) 0.5949(10) 0.9094(3)
H5_3 H 0.4137 0.6055 0.9305
C13_3 C 0.3724(5) 0.5833(9) 0.8963(3)
H6_3 H 0.3435 0.5878 0.9078
C14_3 C 0.0649(5) 0.6328(9) 0.9823(3)
H7_3 H 0.0670 0.7014 0.9815
C15_3 C 0.0431(4) 0.4942(9) 0.9596(3)
H8_3 H 0.0297 0.4616 0.9426
C16_3 C 0.1116(5) 0.5825(8) 0.8692(3)
H9_3 H 0.0813 0.5761 0.8593
C17_3 C 0.3699(5) 0.5637(9) 0.8645(3)
C19_3 C 0.1513(5) 0.6187(8) 0.9115(3)
H10_3 H 0.1504 0.6393 0.9319
C25_3 C 0.0553(5) 0.4413(9) 0.9853(3)
H14_3 H 0.0520 0.3728 0.9855
C30_3 C 0.2749(6) 0.4851(9) 0.7759(3)
C31_3 C 0.2293(6) 0.4853(9) 0.7621(3)
H19_3 H 0.2018 0.5080 0.7728
C32_3 C 0.4576(6) 0.5745(9) 0.8652(4)
H20_3 H 0.4875 0.5711 0.8548
C33_3 C 0.3142(6) 0.4557(9) 0.7596(3)
H21_3 H 0.3457 0.4585 0.7680
C34_3 C 0.4147(6) 0.5602(11) 0.8495(4)
H22_3 H 0.4157 0.5480 0.8284
C35_3 C 0.3070(6) 0.4217(9) 0.7306(3)
H23_3 H 0.3338 0.3991 0.7192
C36_3 C 0.2250(6) 0.4533(9) 0.7339(3)
H24_3 H 0.1942 0.4541 0.7245
N13_2 N 0.5520(4) 0.4988(7) 0.9252(2)
N7_3 N 0.9201(4) 0.8399(8) 0.4613(2)
C1_3 C 0.9112(4) 0.9342(8) 0.4623(3)
N10_3 N 0.8778(4) 0.8362(7) 0.4152(3)
C7_3 C 0.9283(4) 0.9884(10) 0.4903(3)
C8_3 C 0.9030(4) 0.7978(8) 0.4371(3)
N11_3 N 0.8877(4) 0.9830(7) 0.4422(2)
C11_3 C 0.9542(5) 0.5465(9) 0.4511(3)
H4_3 H 0.9689 0.5110 0.4670
C15_4 C 0.9569(4) 0.9942(9) 0.5404(3)
H8_4 H 0.9703 0.9616 0.5574
C18_3 C 0.8462(5) 0.9835(9) 0.3945(3)
C20_3 C 0.9406(5) 0.6450(10) 0.4573(3)
H11_3 H 0.9464 0.6755 0.4761
C21_3 C 0.8724(4) 0.9321(9) 0.4185(3)
C22_3 C 0.8192(7) 0.9345(12) 0.3729(4)
H12_3 H 0.8164 0.8660 0.3735
C24_3 C 0.9180(5) 0.6927(9) 0.4329(3)
C25_4 C 0.9447(5) 0.9413(9) 0.5147(3)
H14_4 H 0.9480 0.8728 0.5145
C27_3 C 0.9083(4) 0.6443(10) 0.4067(3)
H16_3 H 0.8905 0.6750 0.3910
C28_3 C 0.9253(5) 0.5467(9) 0.4031(3)
H17_3 H 0.9201 0.5142 0.3845
C29_3 C 0.7959(8) 0.9885(12) 0.3502(5)
H18_3 H 0.7803 0.9550 0.3342
C30_4 C 0.7251(6) 0.9851(9) 0.7241(3)
C31_4 C 0.7707(6) 0.9853(9) 0.7379(3)
C33_4 C 0.6858(6) 0.9557(9) 0.7404(3)
H21_4 H 0.6543 0.9585 0.7320
C35_4 C 0.6930(6) 0.9217(9) 0.7694(3)
H23_4 H 0.6662 0.8991 0.7808
C36_4 C 0.7750(6) 0.9533(9) 0.7661(3)
H24_4 H 0.8058 0.9541 0.7755
N12_2 N 0.7367(5) 0.9199(8) 0.7817(2)
Zn5_2 Zn 0.74792(9) 0.84259(15) 0.82086(4)
N7_4 N 0.5799(4) 0.1601(8) 0.9613(2)
C1_4 C 0.5888(4) 0.0658(8) 0.9623(3)
N10_4 N 0.6222(4) 0.1638(7) 0.9152(3)
C7_4 C 0.5717(4) 0.0116(10) 0.9903(3)
C8_4 C 0.5970(4) 0.2022(8) 0.9371(3)
N11_4 N 0.6123(4) 0.0170(7) 0.9422(2)
C11_4 C 0.5458(5) 0.4535(9) 0.9511(3)
H4_4 H 0.5311 0.4890 0.9670
C18_4 C 0.6538(5) 0.0165(9) 0.8945(3)
C20_4 C 0.5594(5) 0.3550(10) 0.9573(3)
H11_4 H 0.5536 0.3245 0.9761
C21_4 C 0.6276(4) 0.0679(9) 0.9185(3)
C22_4 C 0.6808(7) 0.0655(12) 0.8729(4)
H12_4 H 0.6836 0.1340 0.8735
C24_4 C 0.5820(5) 0.3073(9) 0.9329(3)
C27_4 C 0.5917(4) 0.3557(10) 0.9067(3)
H16_4 H 0.6095 0.3250 0.8910
C28_4 C 0.5747(5) 0.4533(9) 0.9031(3)
H17_4 H 0.5799 0.4858 0.8845
C29_4 C 0.7041(8) 0.0115(12) 0.8502(5)
H18_4 H 0.7197 0.0450 0.8342
I4_4 I 0.82850(10) 0.8611(2) 0.83675(5)
I6_4 I 0.71601(13) 0.68561(14) 0.81497(4)
N9_4 N 0.7048(5) 0.9174(9) 0.8504(3)
C10_4 C 0.5780(5) 0.9090(9) 0.9912(3)
H3_4 H 0.5904 0.8729 0.9746
C23_4 C 0.6737(6) 0.8711(12) 0.8692(3)
H13_4 H 0.6679 0.8037 0.8668
C26_4 C 0.6517(7) 0.9192(11) 0.8908(3)
H15_4 H 0.6329 0.8831 0.9048
Zn4_2 Zn 0.02085(6) 0.87000(11) 0.08295(4)
I1_4 I 0.00019(6) 0.80389(11) 0.03540(4)
I5_4 I 0.06936(8) 0.78995(15) 0.11850(6)
I3_2 I 0.98567(6) 0.58202(15) 0.88781(4)
I3_3 I 0.01433(6) 0.08202(15) 0.61219(4)
Zn2_4 Zn 0.54634(6) 0.84308(12) 0.08328(4)
I2_4 I 0.55512(7) 0.67534(11) 0.07655(4)
I3_4 I 0.48567(6) 0.91798(15) 0.11219(4)
N1_4 N 0.9574(4) 0.9068(8) 0.1049(3)
N2_4 N 0.8236(4) 0.9725(7) 0.1799(2)
N4_4 N 0.5499(4) 0.9094(7) 0.0418(2)
N5_4 N 0.7849(4) 0.9333(7) 0.1341(2)
N6_4 N 0.6119(4) 0.8879(7) 0.1022(2)
N8_4 N 0.7365(4) 0.9707(7) 0.1775(2)
C2_4 C 0.7421(5) 0.9447(8) 0.1482(3)
C3_4 C 0.8233(5) 0.9481(8) 0.1505(3)
C4_4 C 0.7788(5) 0.9803(8) 0.1921(3)
C5_4 C 0.6523(5) 0.9387(8) 0.1464(3)
H1_4 H 0.6505 0.9598 0.1667
C6_4 C 0.6962(5) 0.9014(9) 0.1008(3)
H2_4 H 0.7249 0.8970 0.0891
C9_4 C 0.6976(5) 0.9289(9) 0.1317(3)
C12_4 C 0.9137(5) 0.9051(10) 0.0906(3)
H5_4 H 0.9137 0.8945 0.0695
C13_4 C 0.8724(5) 0.9167(9) 0.1037(3)
H6_4 H 0.8435 0.9122 0.0922
C14_4 C 0.5649(5) 0.8672(9) 0.0177(3)
H7_4 H 0.5670 0.7986 0.0185
C16_4 C 0.6116(5) 0.9175(8) 0.1308(3)
H9_4 H 0.5813 0.9239 0.1407
C17_4 C 0.8699(5) 0.9363(9) 0.1355(3)
C19_4 C 0.6513(5) 0.8813(8) 0.0885(3)
H10_4 H 0.6504 0.8607 0.0681
H19_4 H 0.7018 0.9920 0.2272
C32_4 C 0.9576(6) 0.9255(9) 0.1348(4)
H20_4 H 0.9875 0.9289 0.1452
C34_4 C 0.9147(6) 0.9398(11) 0.1505(4)
H22_4 H 0.9157 0.9520 0.1716
Zn1_3 Zn 0.02085(6) 0.63000(11) 0.58295(4)
I1_5 I 0.00019(6) 0.69611(11) 0.53540(4)
I5_5 I 0.06936(8) 0.71005(15) 0.61850(6)
N13_3 N 0.0520(4) 0.4988(7) 0.5748(2)
Zn2_5 Zn 0.54634(6) 0.65692(12) 0.58328(4)
Zn3_3 Zn 0.74792(9) 0.65741(15) 0.32086(4)
I2_5 I 0.55512(7) 0.82466(11) 0.57655(4)
I3_5 I 0.48567(6) 0.58202(15) 0.61219(4)
I4_5 I 0.82850(10) 0.6389(2) 0.33675(5)
I6_5 I 0.71601(13) 0.81439(14) 0.31497(4)
N1_5 N 0.9574(4) 0.5932(8) 0.6049(3)
N2_5 N 0.8236(4) 0.5275(7) 0.6799(2)
N3_3 N 0.5520(4) 0.0012(7) 0.4252(2)
N4_5 N 0.5499(4) 0.5906(7) 0.5418(2)
N5_5 N 0.7849(4) 0.5667(7) 0.6341(2)
N6_5 N 0.6119(4) 0.6121(7) 0.6022(2)
N7_5 N 0.5799(4) 0.3399(8) 0.4613(2)
C1_5 C 0.5888(4) 0.4342(8) 0.4623(3)
N8_5 N 0.7365(4) 0.5293(7) 0.6775(2)
N9_5 N 0.7048(5) 0.5826(9) 0.3504(3)
N10_5 N 0.6222(4) 0.3362(7) 0.4152(3)
C2_5 C 0.7421(5) 0.5553(8) 0.6482(3)
C3_5 C 0.8233(5) 0.5519(8) 0.6505(3)
C4_5 C 0.7788(5) 0.5197(8) 0.6921(3)
C5_5 C 0.6523(5) 0.5613(8) 0.6464(3)
H1_5 H 0.6505 0.5402 0.6667
C6_5 C 0.6962(5) 0.5986(9) 0.6008(3)
H2_5 H 0.7249 0.6030 0.5891
C7_5 C 0.5717(4) 0.4884(10) 0.4903(3)
C8_5 C 0.5970(4) 0.2978(8) 0.4371(3)
N11_5 N 0.6123(4) 0.4830(7) 0.4422(2)
C9_5 C 0.6976(5) 0.5711(9) 0.6317(3)
C10_5 C 0.5780(5) 0.5910(9) 0.4912(3)
H3_5 H 0.5904 0.6271 0.4746
C11_5 C 0.5458(5) 0.0465(9) 0.4511(3)
H4_5 H 0.5311 0.0110 0.4670
C12_5 C 0.9137(5) 0.5949(10) 0.5906(3)
H5_5 H 0.9137 0.6055 0.5695
C13_5 C 0.8724(5) 0.5833(9) 0.6037(3)
H6_5 H 0.8435 0.5878 0.5922
C14_5 C 0.5649(5) 0.6328(9) 0.5177(3)
H7_5 H 0.5670 0.7014 0.5185
C15_5 C 0.5431(4) 0.4942(9) 0.5404(3)
H8_5 H 0.5297 0.4616 0.5574
C16_5 C 0.6116(5) 0.5825(8) 0.6308(3)
H9_5 H 0.5813 0.5761 0.6407
C17_5 C 0.8699(5) 0.5637(9) 0.6355(3)
C18_5 C 0.6538(5) 0.4835(9) 0.3945(3)
C19_5 C 0.6513(5) 0.6187(8) 0.5885(3)
H10_5 H 0.6504 0.6393 0.5681
C20_5 C 0.5594(5) 0.1450(10) 0.4573(3)
H11_5 H 0.5536 0.1755 0.4761
C21_5 C 0.6276(4) 0.4321(9) 0.4185(3)
C22_5 C 0.6808(7) 0.4345(12) 0.3729(4)
H12_5 H 0.6836 0.3660 0.3735
C23_5 C 0.6737(6) 0.6289(12) 0.3692(3)
H13_5 H 0.6679 0.6963 0.3668
C24_5 C 0.5820(5) 0.1927(9) 0.4329(3)
C25_5 C 0.5553(5) 0.4413(9) 0.5147(3)
H14_5 H 0.5520 0.3728 0.5145
C26_5 C 0.6517(7) 0.5808(11) 0.3908(3)
H15_5 H 0.6329 0.6169 0.4048
C27_5 C 0.5917(4) 0.1443(10) 0.4067(3)
H16_5 H 0.6095 0.1750 0.3910
C28_5 C 0.5747(5) 0.0467(9) 0.4031(3)
H17_5 H 0.5799 0.0142 0.3845
C29_5 C 0.7041(8) 0.4885(12) 0.3502(5)
H18_5 H 0.7197 0.4550 0.3342
C30_5 C 0.7749(6) 0.4851(9) 0.7241(3)
C31_5 C 0.7293(6) 0.4853(9) 0.7379(3)
H19_5 H 0.7018 0.5080 0.7272
C32_5 C 0.9576(6) 0.5745(9) 0.6348(4)
H20_5 H 0.9875 0.5711 0.6452
C33_5 C 0.8142(6) 0.4557(9) 0.7404(3)
H21_5 H 0.8457 0.4585 0.7320
C34_5 C 0.9147(6) 0.5602(11) 0.6505(4)
H22_5 H 0.9157 0.5480 0.6716
C35_5 C 0.8070(6) 0.4217(9) 0.7694(3)
H23_5 H 0.8338 0.3991 0.7808
C36_5 C 0.7250(6) 0.4533(9) 0.7661(3)
H24_5 H 0.6942 0.4541 0.7755
N12_3 N 0.7633(5) 0.4199(8) 0.7817(2)
Zn5_3 Zn 0.75208(9) 0.34259(15) 0.82086(4)
N14_3 N 0.7367(5) 0.5801(8) 0.2817(2)
Zn1_4 Zn 0.47915(6) 0.37000(11) 0.08295(4)
I1_6 I 0.49981(6) 0.30389(11) 0.03540(4)
Zn2_6 Zn 0.95366(6) 0.34308(12) 0.08328(4)
I2_6 I 0.94488(7) 0.17534(11) 0.07655(4)
I5_6 I 0.43064(8) 0.28995(15) 0.11850(6)
N1_6 N 0.5426(4) 0.4068(8) 0.1049(3)
N2_6 N 0.6764(4) 0.4725(7) 0.1799(2)
N4_6 N 0.9501(4) 0.4094(7) 0.0418(2)
N5_6 N 0.7151(4) 0.4333(7) 0.1341(2)
N6_6 N 0.8881(4) 0.3879(7) 0.1022(2)
N8_6 N 0.7635(4) 0.4707(7) 0.1775(2)
C2_6 C 0.7579(5) 0.4447(8) 0.1482(3)
C3_6 C 0.6767(5) 0.4481(8) 0.1505(3)
C4_6 C 0.7212(5) 0.4803(8) 0.1921(3)
C5_6 C 0.8477(5) 0.4387(8) 0.1464(3)
H1_6 H 0.8495 0.4598 0.1667
C6_6 C 0.8038(5) 0.4014(9) 0.1008(3)
H2_6 H 0.7751 0.3970 0.0891
C9_6 C 0.8024(5) 0.4289(9) 0.1317(3)
C12_6 C 0.5863(5) 0.4051(10) 0.0906(3)
H5_6 H 0.5863 0.3945 0.0695
C13_6 C 0.6276(5) 0.4167(9) 0.1037(3)
H6_6 H 0.6565 0.4122 0.0922
C14_6 C 0.9351(5) 0.3672(9) 0.0177(3)
H7_6 H 0.9330 0.2986 0.0185
C15_6 C 0.9569(4) 0.5058(9) 0.0404(3)
H8_6 H 0.9703 0.5384 0.0574
C16_6 C 0.8884(5) 0.4175(8) 0.1308(3)
H9_6 H 0.9187 0.4239 0.1407
C17_6 C 0.6301(5) 0.4363(9) 0.1355(3)
C19_6 C 0.8487(5) 0.3813(8) 0.0885(3)
H10_6 H 0.8496 0.3607 0.0681
C25_6 C 0.9447(5) 0.5587(9) 0.0147(3)
H14_6 H 0.9480 0.6272 0.0145
C30_6 C 0.7251(6) 0.5149(9) 0.2241(3)
C31_6 C 0.7707(6) 0.5147(9) 0.2379(3)
H19_6 H 0.7982 0.4920 0.2272
C32_6 C 0.5424(6) 0.4255(9) 0.1348(4)
H20_6 H 0.5125 0.4289 0.1452
C33_6 C 0.6858(6) 0.5443(9) 0.2404(3)
H21_6 H 0.6543 0.5415 0.2320
C34_6 C 0.5853(6) 0.4398(11) 0.1505(4)
H22_6 H 0.5843 0.4520 0.1716
C35_6 C 0.6930(6) 0.5783(9) 0.2694(3)
H23_6 H 0.6662 0.6009 0.2808
C36_6 C 0.7750(6) 0.5467(9) 0.2661(3)
H24_6 H 0.8058 0.5459 0.2755
N13_4 N 0.4480(4) 0.5012(7) 0.0748(2)
I4_6 I 0.67150(10) 0.3611(2) 0.83675(5)
I6_6 I 0.78399(13) 0.18561(14) 0.81497(4)
N3_4 N 0.9480(4) 0.9988(7) 0.9252(2)
N7_6 N 0.9201(4) 0.6601(8) 0.9613(2)
C1_6 C 0.9112(4) 0.5658(8) 0.9623(3)
N9_6 N 0.7952(5) 0.4174(9) 0.8504(3)
N10_6 N 0.8778(4) 0.6638(7) 0.9152(3)
C7_6 C 0.9283(4) 0.5116(10) 0.9903(3)
C8_6 C 0.9030(4) 0.7022(8) 0.9371(3)
N11_6 N 0.8877(4) 0.5170(7) 0.9422(2)
C10_6 C 0.9220(5) 0.4090(9) 0.9912(3)
H3_6 H 0.9096 0.3729 0.9746
C11_6 C 0.9542(5) 0.9535(9) 0.9511(3)
H4_6 H 0.9689 0.9890 0.9670
C18_6 C 0.8462(5) 0.5165(9) 0.8945(3)
C20_6 C 0.9406(5) 0.8550(10) 0.9573(3)
H11_6 H 0.9464 0.8245 0.9761
C21_6 C 0.8724(4) 0.5679(9) 0.9185(3)
C22_6 C 0.8192(7) 0.5655(12) 0.8729(4)
H12_6 H 0.8164 0.6340 0.8735
C23_6 C 0.8263(6) 0.3711(12) 0.8692(3)
H13_6 H 0.8321 0.3037 0.8668
C24_6 C 0.9180(5) 0.8073(9) 0.9329(3)
C26_6 C 0.8483(7) 0.4192(11) 0.8908(3)
H15_6 H 0.8671 0.3831 0.9048
C27_6 C 0.9083(4) 0.8557(10) 0.9067(3)
H16_6 H 0.8905 0.8250 0.8910
C28_6 C 0.9253(5) 0.9533(9) 0.9031(3)
H17_6 H 0.9201 0.9858 0.8845
C29_6 C 0.7959(8) 0.5115(12) 0.8502(5)
H18_6 H 0.7803 0.5450 0.8342
N7_7 N 0.0799(4) 0.1601(8) 0.5387(2)
C1_7 C 0.0888(4) 0.0658(8) 0.5377(3)
N10_7 N 0.1222(4) 0.1638(7) 0.5848(3)
C7_7 C 0.0717(4) 0.0116(10) 0.5097(3)
C8_7 C 0.0970(4) 0.2022(8) 0.5629(3)
N11_7 N 0.1123(4) 0.0170(7) 0.5578(2)
C11_7 C 0.0458(5) 0.4535(9) 0.5489(3)
H4_7 H 0.0311 0.4890 0.5330
C15_7 C 0.0431(4) 0.0058(9) 0.4596(3)
H8_7 H 0.0297 0.0384 0.4426
C18_7 C 0.1538(5) 0.0165(9) 0.6055(3)
C20_7 C 0.0594(5) 0.3550(10) 0.5427(3)
H11_7 H 0.0536 0.3245 0.5239
C21_7 C 0.1276(4) 0.0679(9) 0.5815(3)
C22_7 C 0.1808(7) 0.0655(12) 0.6271(4)
H12_7 H 0.1836 0.1340 0.6265
C24_7 C 0.0820(5) 0.3073(9) 0.5671(3)
C25_7 C 0.0553(5) 0.0587(9) 0.4853(3)
H14_7 H 0.0520 0.1272 0.4855
C27_7 C 0.0917(4) 0.3557(10) 0.5933(3)
H16_7 H 0.1095 0.3250 0.6090
C28_7 C 0.0747(5) 0.4533(9) 0.5969(3)
H17_7 H 0.0799 0.4858 0.6155
C29_7 C 0.2041(8) 0.0115(12) 0.6498(5)
H18_7 H 0.2197 0.0450 0.6658
C30_7 C 0.2749(6) 0.0149(9) 0.2759(3)
C31_7 C 0.2293(6) 0.0147(9) 0.2621(3)
C33_7 C 0.3142(6) 0.0443(9) 0.2596(3)
H21_7 H 0.3457 0.0415 0.2680
C35_7 C 0.3070(6) 0.0783(9) 0.2306(3)
H23_7 H 0.3338 0.1009 0.2192
C36_7 C 0.2250(6) 0.0467(9) 0.2339(3)
H24_7 H 0.1942 0.0459 0.2245
N12_4 N 0.2633(5) 0.0801(8) 0.2183(2)
Zn5_4 Zn 0.25208(9) 0.15741(15) 0.17914(4)
I4_7 I 0.17150(10) 0.1389(2) 0.16325(5)
I6_7 I 0.28399(13) 0.31439(14) 0.18503(4)
N9_7 N 0.2952(5) 0.0826(9) 0.1496(3)
C10_7 C 0.4220(5) 0.0910(9) 0.0088(3)
H3_7 H 0.4096 0.1271 0.0254
C23_7 C 0.3263(6) 0.1289(12) 0.1308(3)
H13_7 H 0.3321 0.1963 0.1332
C26_7 C 0.3483(7) 0.0808(11) 0.1092(3)
H15_7 H 0.3671 0.1169 0.0952
N7_8 N 0.4201(4) 0.8399(8) 0.0387(2)
C1_8 C 0.4112(4) 0.9342(8) 0.0377(3)
N10_8 N 0.3778(4) 0.8362(7) 0.0848(3)
C7_8 C 0.4283(4) 0.9884(10) 0.0097(3)
C8_8 C 0.4030(4) 0.7978(8) 0.0629(3)
N11_8 N 0.3877(4) 0.9830(7) 0.0578(2)
C11_8 C 0.4542(5) 0.5465(9) 0.0489(3)
H4_8 H 0.4689 0.5110 0.0330
C18_8 C 0.3462(5) 0.9835(9) 0.1055(3)
C20_8 C 0.4406(5) 0.6450(10) 0.0427(3)
H11_8 H 0.4464 0.6755 0.0239
C21_8 C 0.3724(4) 0.9321(9) 0.0815(3)
C22_8 C 0.3192(7) 0.9345(12) 0.1271(4)
H12_8 H 0.3164 0.8660 0.1265
C24_8 C 0.4180(5) 0.6927(9) 0.0671(3)
C27_8 C 0.4083(4) 0.6443(10) 0.0933(3)
H16_8 H 0.3905 0.6750 0.1090
C28_8 C 0.4253(5) 0.5467(9) 0.0969(3)
H17_8 H 0.4201 0.5142 0.1155
C29_8 C 0.2959(8) 0.9885(12) 0.1498(5)
H18_8 H 0.2803 0.9550 0.1658
Zn4_3 Zn 0.52085(6) 0.87000(11) 0.41705(4)
I1_7 I 0.50019(6) 0.80389(11) 0.46460(4)
Zn2_7 Zn 0.04634(6) 0.84308(12) 0.41672(4)
Zn3_4 Zn 0.24792(9) 0.84259(15) 0.67914(4)
I2_7 I 0.05512(7) 0.67534(11) 0.42345(4)
I4_8 I 0.32850(10) 0.8611(2) 0.66325(5)
I5_7 I 0.56936(8) 0.78995(15) 0.38150(6)
I6_8 I 0.21601(13) 0.68561(14) 0.68503(4)
N1_7 N 0.4574(4) 0.9068(8) 0.3951(3)
N2_7 N 0.3236(4) 0.9725(7) 0.3201(2)
N4_7 N 0.0499(4) 0.9094(7) 0.4582(2)
N5_7 N 0.2849(4) 0.9333(7) 0.3659(2)
N6_7 N 0.1119(4) 0.8879(7) 0.3978(2)
N8_7 N 0.2365(4) 0.9707(7) 0.3225(2)
N9_8 N 0.2048(5) 0.9174(9) 0.6496(3)
C2_7 C 0.2421(5) 0.9447(8) 0.3518(3)
C3_7 C 0.3233(5) 0.9481(8) 0.3495(3)
C4_7 C 0.2788(5) 0.9803(8) 0.3079(3)
C5_7 C 0.1523(5) 0.9387(8) 0.3536(3)
H1_7 H 0.1505 0.9598 0.3333
C6_7 C 0.1962(5) 0.9014(9) 0.3992(3)
H2_7 H 0.2249 0.8970 0.4109
C9_7 C 0.1976(5) 0.9289(9) 0.3683(3)
C10_8 C 0.0780(5) 0.9090(9) 0.5088(3)
H3_8 H 0.0904 0.8729 0.5254
C12_7 C 0.4137(5) 0.9051(10) 0.4094(3)
H5_7 H 0.4137 0.8945 0.4305
C13_7 C 0.3724(5) 0.9167(9) 0.3963(3)
H6_7 H 0.3435 0.9122 0.4078
C14_7 C 0.0649(5) 0.8672(9) 0.4823(3)
H7_7 H 0.0670 0.7986 0.4815
C16_7 C 0.1116(5) 0.9175(8) 0.3692(3)
H9_7 H 0.0813 0.9239 0.3593
C17_7 C 0.3699(5) 0.9363(9) 0.3645(3)
C19_7 C 0.1513(5) 0.8813(8) 0.4115(3)
H10_7 H 0.1504 0.8607 0.4319
C23_8 C 0.1737(6) 0.8711(12) 0.6308(3)
H13_8 H 0.1679 0.8037 0.6332
C26_8 C 0.1517(7) 0.9192(11) 0.6092(3)
H15_8 H 0.1329 0.8831 0.5952
H19_7 H 0.2018 0.9920 0.2728
C32_7 C 0.4576(6) 0.9255(9) 0.3652(4)
H20_7 H 0.4875 0.9289 0.3548
C34_7 C 0.4147(6) 0.9398(11) 0.3495(4)
H22_7 H 0.4157 0.9520 0.3284
N14_4 N 0.2367(5) 0.9199(8) 0.7183(2)
C15_8 C 0.4569(4) 0.9942(9) 0.9596(3)
H8_8 H 0.4703 0.9616 0.9426
C25_8 C 0.4447(5) 0.9413(9) 0.9853(3)
H14_8 H 0.4480 0.8728 0.9855
C30_8 C 0.2251(6) 0.9851(9) 0.7759(3)
C31_8 C 0.2707(6) 0.9853(9) 0.7621(3)
C33_8 C 0.1858(6) 0.9557(9) 0.7596(3)
H21_8 H 0.1543 0.9585 0.7680
C35_8 C 0.1930(6) 0.9217(9) 0.7306(3)
H23_8 H 0.1662 0.8991 0.7192
C36_8 C 0.2750(6) 0.9533(9) 0.7339(3)
H24_8 H 0.3058 0.9541 0.7245
I3_6 I 0.01433(6) 0.41798(15) 0.11219(4)
Zn4_4 Zn 0.97915(6) 0.13000(11) 0.91705(4)
I1_8 I 0.99981(6) 0.19611(11) 0.96460(4)
I5_8 I 0.93064(8) 0.21005(15) 0.88150(6)
I3_7 I 0.98567(6) 0.91798(15) 0.38781(4)
Zn2_8 Zn 0.45366(6) 0.15692(12) 0.91672(4)
I2_8 I 0.44488(7) 0.32466(11) 0.92345(4)
I3_8 I 0.51433(6) 0.08202(15) 0.88781(4)
N1_8 N 0.0426(4) 0.0932(8) 0.8951(3)
N2_8 N 0.1764(4) 0.0275(7) 0.8201(2)
N4_8 N 0.4501(4) 0.0906(7) 0.9582(2)
N5_8 N 0.2151(4) 0.0667(7) 0.8659(2)
N6_8 N 0.3881(4) 0.1121(7) 0.8978(2)
N8_8 N 0.2635(4) 0.0293(7) 0.8225(2)
C2_8 C 0.2579(5) 0.0553(8) 0.8518(3)
C3_8 C 0.1767(5) 0.0519(8) 0.8495(3)
C4_8 C 0.2212(5) 0.0197(8) 0.8079(3)
C5_8 C 0.3477(5) 0.0613(8) 0.8536(3)
H1_8 H 0.3495 0.0402 0.8333
C6_8 C 0.3038(5) 0.0986(9) 0.8992(3)
H2_8 H 0.2751 0.1030 0.9109
C9_8 C 0.3024(5) 0.0711(9) 0.8683(3)
C12_8 C 0.0863(5) 0.0949(10) 0.9094(3)
H5_8 H 0.0863 0.1055 0.9305
C13_8 C 0.1276(5) 0.0833(9) 0.8963(3)
H6_8 H 0.1565 0.0878 0.9078
C14_8 C 0.4351(5) 0.1328(9) 0.9823(3)
H7_8 H 0.4330 0.2014 0.9815
C16_8 C 0.3884(5) 0.0825(8) 0.8692(3)
H9_8 H 0.4187 0.0761 0.8593
C17_8 C 0.1301(5) 0.0637(9) 0.8645(3)
C19_8 C 0.3487(5) 0.1187(8) 0.9115(3)
H10_8 H 0.3496 0.1393 0.9319
H19_8 H 0.2982 0.0080 0.7728
C32_8 C 0.0424(6) 0.0745(9) 0.8652(4)
H20_8 H 0.0125 0.0711 0.8548
C34_8 C 0.0853(6) 0.0602(11) 0.8495(4)
H22_8 H 0.0843 0.0480 0.8284
loop_
_geom_bond_atom_site_label_1
_geom_bond_atom_site_label_2
_geom_bond_site_symmetry_1
_geom_bond_site_symmetry_2
Zn4 I1 1_555 1_555
Zn2 I2 1_555 1_555
Zn3 I4 1_555 1_555
I5 Zn4 1_555 1_555
I6 Zn3 1_555 1_555
N1 Zn4 1_555 1_555
N2 C3 1_555 1_555
N4 Zn2 1_555 1_555
N5 C2 1_555 1_555
N6 Zn2 1_555 1_555
N8 C2 1_555 1_555
N9 Zn3 1_555 1_555
C2 C9 1_555 1_555
C3 N5 1_555 1_555
C4 N2 1_555 1_555
C5 H1 1_555 1_555
C6 H2 1_555 1_555
C9 C5 1_555 1_555
C10 H3 1_555 1_555
C12 N1 1_555 1_555
H5 C12 1_555 1_555
C13 C12 1_555 1_555
H6 C13 1_555 1_555
C14 N4 1_555 1_555
H7 C14 1_555 1_555
C16 N6 1_555 1_555
H9 C16 1_555 1_555
C17 C3 1_555 1_555
C19 N6 1_555 1_555
H10 C19 1_555 1_555
C23 N9 1_555 1_555
H13 C23 1_555 1_555
H15 C26 1_555 1_555
C32 N1 1_555 1_555
H20 C32 1_555 1_555
C34 C17 1_555 1_555
H22 C34 1_555 1_555
N14 Zn3 1_555 1_555
N8 C4 1_555 1_555
C5 C16 1_555 1_555
C6 C9 1_555 1_555
C6 C19 1_555 1_555
C10 C14 1_555 1_555
C13 C17 1_555 1_555
C23 C26 1_555 1_555
C32 C34 1_555 1_555
H8 C15 1_555 1_555
H14 C25 1_555 1_555
C31 C30 1_555 1_555
C33 C30 1_555 1_555
H21 C33 1_555 1_555
C35 C33 1_555 1_555
H23 C35 1_555 1_555
C36 C31 1_555 1_555
H24 C36 1_555 1_555
N14 C35 1_555 1_555
C15 C25 1_555 1_555
C36 N14 1_555 1_555
Zn2_2 I2_2 1_555 1_555
Zn3_2 I4_2 1_555 1_555
I3 Zn2_2 1_555 1_555
I6_2 Zn3_2 1_555 1_555
N2_2 C3_2 1_555 1_555
N3 C11 1_555 1_555
N4_2 Zn2_2 1_555 1_555
N5_2 C2_2 1_555 1_555
N6_2 Zn2_2 1_555 1_555
N7 C1 1_555 1_555
C1 C7 1_555 1_555
N8_2 C2_2 1_555 1_555
N9_2 Zn3_2 1_555 1_555
N10 C8 1_555 1_555
C2_2 C9_2 1_555 1_555
C3_2 N5_2 1_555 1_555
C4_2 N2_2 1_555 1_555
C5_2 H1_2 1_555 1_555
C6_2 H2_2 1_555 1_555
C7 C10_2 1_555 1_555
C8 N7 1_555 1_555
N11 C1 1_555 1_555
C9_2 C5_2 1_555 1_555
C10_2 H3_2 1_555 1_555
C11 H4 1_555 1_555
C12_2 N1_2 1_555 1_555
H5_2 C12_2 1_555 1_555
C13_2 C12_2 1_555 1_555
H6_2 C13_2 1_555 1_555
C14_2 N4_2 1_555 1_555
H7_2 C14_2 1_555 1_555
C15_2 N4_2 1_555 1_555
H8_2 C15_2 1_555 1_555
C16_2 N6_2 1_555 1_555
H9_2 C16_2 1_555 1_555
C17_2 C3_2 1_555 1_555
C18 C21 1_555 1_555
C19_2 N6_2 1_555 1_555
H10_2 C19_2 1_555 1_555
C20 C11 1_555 1_555
H11 C20 1_555 1_555
C21 N10 1_555 1_555
C22 C18 1_555 1_555
H12 C22 1_555 1_555
C23_2 N9_2 1_555 1_555
H13_2 C23_2 1_555 1_555
C24 C8 1_555 1_555
C25_2 C7 1_555 1_555
H14_2 C25_2 1_555 1_555
C26_2 C18 1_555 1_555
H15_2 C26_2 1_555 1_555
C27 C24 1_555 1_555
H16 C27 1_555 1_555
C28 N3 1_555 1_555
H17 C28 1_555 1_555
C29 N9_2 1_555 1_555
H18 C29 1_555 1_555
C30_2 C4_2 1_555 1_555
C31_2 C30_2 1_555 1_555
H19_2 C31_2 1_555 1_555
C32_2 N1_2 1_555 1_555
H20_2 C32_2 1_555 1_555
C33_2 C30_2 1_555 1_555
H21_2 C33_2 1_555 1_555
C34_2 C17_2 1_555 1_555
H22_2 C34_2 1_555 1_555
C35_2 C33_2 1_555 1_555
H23_2 C35_2 1_555 1_555
C36_2 C31_2 1_555 1_555
H24_2 C36_2 1_555 1_555
N12 C35_2 1_555 1_555
Zn5 N12 1_555 1_555
N14_2 Zn3_2 1_555 1_555
N8_2 C4_2 1_555 1_555
C5_2 C16_2 1_555 1_555
C6_2 C9_2 1_555 1_555
C6_2 C19_2 1_555 1_555
N11 C21 1_555 1_555
C10_2 C14_2 1_555 1_555
C13_2 C17_2 1_555 1_555
C15_2 C25_2 1_555 1_555
C20 C24 1_555 1_555
C22 C29 1_555 1_555
C23_2 C26_2 1_555 1_555
C27 C28 1_555 1_555
C32_2 C34_2 1_555 1_555
C36_2 N12 1_555 1_555
Zn1 I1_2 1_555 1_555
I5_2 Zn1 1_555 1_555
N13 Zn1 1_555 1_555
Zn5 I4_3 1_555 1_555
I6_3 Zn5 1_555 1_555
N3_2 C11_2 1_555 1_555
N7_2 C1_2 1_555 1_555
C1_2 C7_2 1_555 1_555
N9_3 Zn5 1_555 1_555
N10_2 C8_2 1_555 1_555
C7_2 C10_3 1_555 1_555
C8_2 N7_2 1_555 1_555
N11_2 C1_2 1_555 1_555
C10_3 H3_3 1_555 1_555
C11_2 H4_2 1_555 1_555
C18_2 C21_2 1_555 1_555
C20_2 C11_2 1_555 1_555
H11_2 C20_2 1_555 1_555
C21_2 N10_2 1_555 1_555
C22_2 C18_2 1_555 1_555
H12_2 C22_2 1_555 1_555
C23_3 N9_3 1_555 1_555
H13_3 C23_3 1_555 1_555
C24_2 C8_2 1_555 1_555
C26_3 C18_2 1_555 1_555
H15_3 C26_3 1_555 1_555
C27_2 C24_2 1_555 1_555
H16_2 C27_2 1_555 1_555
C28_2 N3_2 1_555 1_555
H17_2 C28_2 1_555 1_555
C29_2 N9_3 1_555 1_555
H18_2 C29_2 1_555 1_555
N11_2 C21_2 1_555 1_555
C20_2 C24_2 1_555 1_555
C22_2 C29_2 1_555 1_555
C23_3 C26_3 1_555 1_555
C27_2 C28_2 1_555 1_555
Zn1_2 I1_3 1_555 1_555
Zn2_3 I2_3 1_555 1_555
I5_3 Zn1_2 1_555 1_555
N1_3 Zn1_2 1_555 1_555
N2_3 C3_3 1_555 1_555
N4_3 Zn2_3 1_555 1_555
N5_3 C2_3 1_555 1_555
N6_3 Zn2_3 1_555 1_555
N8_3 C2_3 1_555 1_555
C2_3 C9_3 1_555 1_555
C3_3 N5_3 1_555 1_555
C4_3 N2_3 1_555 1_555
C5_3 H1_3 1_555 1_555
C6_3 H2_3 1_555 1_555
C9_3 C5_3 1_555 1_555
C12_3 N1_3 1_555 1_555
H5_3 C12_3 1_555 1_555
C13_3 C12_3 1_555 1_555
H6_3 C13_3 1_555 1_555
C14_3 N4_3 1_555 1_555
H7_3 C14_3 1_555 1_555
C15_3 N4_3 1_555 1_555
H8_3 C15_3 1_555 1_555
C16_3 N6_3 1_555 1_555
H9_3 C16_3 1_555 1_555
C17_3 C3_3 1_555 1_555
C19_3 N6_3 1_555 1_555
H10_3 C19_3 1_555 1_555
H14_3 C25_3 1_555 1_555
C30_3 C4_3 1_555 1_555
C31_3 C30_3 1_555 1_555
H19_3 C31_3 1_555 1_555
C32_3 N1_3 1_555 1_555
H20_3 C32_3 1_555 1_555
C33_3 C30_3 1_555 1_555
H21_3 C33_3 1_555 1_555
C34_3 C17_3 1_555 1_555
H22_3 C34_3 1_555 1_555
C35_3 C33_3 1_555 1_555
H23_3 C35_3 1_555 1_555
C36_3 C31_3 1_555 1_555
H24_3 C36_3 1_555 1_555
N14_2 C35_3 1_555 1_555
N13_2 Zn1_2 1_555 1_555
N8_3 C4_3 1_555 1_555
C5_3 C16_3 1_555 1_555
C6_3 C9_3 1_555 1_555
C6_3 C19_3 1_555 1_555
C13_3 C17_3 1_555 1_555
C15_3 C25_3 1_555 1_555
C32_3 C34_3 1_555 1_555
C36_3 N14_2 1_555 1_555
N13 C11_3 1_555 1_555
N7_3 C1_3 1_555 1_555
C1_3 C7_3 1_555 1_555
N10_3 C8_3 1_555 1_555
C8_3 N7_3 1_555 1_555
N11_3 C1_3 1_555 1_555
C11_3 H4_3 1_555 1_555
H8_4 C15_4 1_555 1_555
C18_3 C21_3 1_555 1_555
C20_3 C11_3 1_555 1_555
H11_3 C20_3 1_555 1_555
C21_3 N10_3 1_555 1_555
C22_3 C18_3 1_555 1_555
H12_3 C22_3 1_555 1_555
C24_3 C8_3 1_555 1_555
C25_4 C7_3 1_555 1_555
H14_4 C25_4 1_555 1_555
C27_3 C24_3 1_555 1_555
H16_3 C27_3 1_555 1_555
C28_3 N13 1_555 1_555
H17_3 C28_3 1_555 1_555
H18_3 C29_3 1_555 1_555
C31_4 C30_4 1_555 1_555
C33_4 C30_4 1_555 1_555
H21_4 C33_4 1_555 1_555
C35_4 C33_4 1_555 1_555
H23_4 C35_4 1_555 1_555
C36_4 C31_4 1_555 1_555
H24_4 C36_4 1_555 1_555
N12_2 C35_4 1_555 1_555
Zn5_2 N12_2 1_555 1_555
N11_3 C21_3 1_555 1_555
C15_4 C25_4 1_555 1_555
C20_3 C24_3 1_555 1_555
C22_3 C29_3 1_555 1_555
C27_3 C28_3 1_555 1_555
C36_4 N12_2 1_555 1_555
N13_2 C11_4 1_555 1_555
N7_4 C1_4 1_555 1_555
C1_4 C7_4 1_555 1_555
N10_4 C8_4 1_555 1_555
C8_4 N7_4 1_555 1_555
N11_4 C1_4 1_555 1_555
C11_4 H4_4 1_555 1_555
C18_4 C21_4 1_555 1_555
C20_4 C11_4 1_555 1_555
H11_4 C20_4 1_555 1_555
C21_4 N10_4 1_555 1_555
C22_4 C18_4 1_555 1_555
H12_4 C22_4 1_555 1_555
C24_4 C8_4 1_555 1_555
C27_4 C24_4 1_555 1_555
H16_4 C27_4 1_555 1_555
C28_4 N13_2 1_555 1_555
H17_4 C28_4 1_555 1_555
H18_4 C29_4 1_555 1_555
N11_4 C21_4 1_555 1_555
C20_4 C24_4 1_555 1_555
C22_4 C29_4 1_555 1_555
C27_4 C28_4 1_555 1_555
Zn5_2 I4_4 1_555 1_555
I6_4 Zn5_2 1_555 1_555
N9_4 Zn5_2 1_555 1_555
C10_4 H3_4 1_555 1_555
C23_4 N9_4 1_555 1_555
H13_4 C23_4 1_555 1_555
H15_4 C26_4 1_555 1_555
C23_4 C26_4 1_555 1_555
Zn4_2 I1_4 1_555 1_555
I5_4 Zn4_2 1_555 1_555
Zn2_4 I2_4 1_555 1_555
I3_4 Zn2_4 1_555 1_555
N2_4 C3_4 1_555 1_555
N4_4 Zn2_4 1_555 1_555
N5_4 C2_4 1_555 1_555
N6_4 Zn2_4 1_555 1_555
N8_4 C2_4 1_555 1_555
C2_4 C9_4 1_555 1_555
C3_4 N5_4 1_555 1_555
C4_4 N2_4 1_555 1_555
C5_4 H1_4 1_555 1_555
C6_4 H2_4 1_555 1_555
C9_4 C5_4 1_555 1_555
C12_4 N1_4 1_555 1_555
H5_4 C12_4 1_555 1_555
C13_4 C12_4 1_555 1_555
H6_4 C13_4 1_555 1_555
C14_4 N4_4 1_555 1_555
H7_4 C14_4 1_555 1_555
C16_4 N6_4 1_555 1_555
H9_4 C16_4 1_555 1_555
C17_4 C3_4 1_555 1_555
C19_4 N6_4 1_555 1_555
H10_4 C19_4 1_555 1_555
C32_4 N1_4 1_555 1_555
H20_4 C32_4 1_555 1_555
C34_4 C17_4 1_555 1_555
H22_4 C34_4 1_555 1_555
N8_4 C4_4 1_555 1_555
C5_4 C16_4 1_555 1_555
C6_4 C9_4 1_555 1_555
C6_4 C19_4 1_555 1_555
C13_4 C17_4 1_555 1_555
C32_4 C34_4 1_555 1_555
Zn1_3 I1_5 1_555 1_555
I5_5 Zn1_3 1_555 1_555
N13_3 Zn1_3 1_555 1_555
Zn2_5 I2_5 1_555 1_555
Zn3_3 I4_5 1_555 1_555
I3_5 Zn2_5 1_555 1_555
I6_5 Zn3_3 1_555 1_555
N2_5 C3_5 1_555 1_555
N3_3 C11_5 1_555 1_555
N4_5 Zn2_5 1_555 1_555
N5_5 C2_5 1_555 1_555
N6_5 Zn2_5 1_555 1_555
N7_5 C1_5 1_555 1_555
C1_5 C7_5 1_555 1_555
N8_5 C2_5 1_555 1_555
N9_5 Zn3_3 1_555 1_555
N10_5 C8_5 1_555 1_555
C2_5 C9_5 1_555 1_555
C3_5 N5_5 1_555 1_555
C4_5 N2_5 1_555 1_555
C5_5 H1_5 1_555 1_555
C6_5 H2_5 1_555 1_555
C7_5 C10_5 1_555 1_555
C8_5 N7_5 1_555 1_555
N11_5 C1_5 1_555 1_555
C9_5 C5_5 1_555 1_555
C10_5 H3_5 1_555 1_555
C11_5 H4_5 1_555 1_555
C12_5 N1_5 1_555 1_555
H5_5 C12_5 1_555 1_555
C13_5 C12_5 1_555 1_555
H6_5 C13_5 1_555 1_555
C14_5 N4_5 1_555 1_555
H7_5 C14_5 1_555 1_555
C15_5 N4_5 1_555 1_555
H8_5 C15_5 1_555 1_555
C16_5 N6_5 1_555 1_555
H9_5 C16_5 1_555 1_555
C17_5 C3_5 1_555 1_555
C18_5 C21_5 1_555 1_555
C19_5 N6_5 1_555 1_555
H10_5 C19_5 1_555 1_555
C20_5 C11_5 1_555 1_555
H11_5 C20_5 1_555 1_555
C21_5 N10_5 1_555 1_555
C22_5 C18_5 1_555 1_555
H12_5 C22_5 1_555 1_555
C23_5 N9_5 1_555 1_555
H13_5 C23_5 1_555 1_555
C24_5 C8_5 1_555 1_555
C25_5 C7_5 1_555 1_555
H14_5 C25_5 1_555 1_555
C26_5 C18_5 1_555 1_555
H15_5 C26_5 1_555 1_555
C27_5 C24_5 1_555 1_555
H16_5 C27_5 1_555 1_555
C28_5 N3_3 1_555 1_555
H17_5 C28_5 1_555 1_555
C29_5 N9_5 1_555 1_555
H18_5 C29_5 1_555 1_555
C30_5 C4_5 1_555 1_555
C31_5 C30_5 1_555 1_555
H19_5 C31_5 1_555 1_555
C32_5 N1_5 1_555 1_555
H20_5 C32_5 1_555 1_555
C33_5 C30_5 1_555 1_555
H21_5 C33_5 1_555 1_555
C34_5 C17_5 1_555 1_555
H22_5 C34_5 1_555 1_555
C35_5 C33_5 1_555 1_555
H23_5 C35_5 1_555 1_555
C36_5 C31_5 1_555 1_555
H24_5 C36_5 1_555 1_555
N12_3 C35_5 1_555 1_555
Zn5_3 N12_3 1_555 1_555
N14_3 Zn3_3 1_555 1_555
N8_5 C4_5 1_555 1_555
C5_5 C16_5 1_555 1_555
C6_5 C9_5 1_555 1_555
C6_5 C19_5 1_555 1_555
N11_5 C21_5 1_555 1_555
C10_5 C14_5 1_555 1_555
C13_5 C17_5 1_555 1_555
C15_5 C25_5 1_555 1_555
C20_5 C24_5 1_555 1_555
C22_5 C29_5 1_555 1_555
C23_5 C26_5 1_555 1_555
C27_5 C28_5 1_555 1_555
C32_5 C34_5 1_555 1_555
C36_5 N12_3 1_555 1_555
Zn1_4 I1_6 1_555 1_555
Zn2_6 I2_6 1_555 1_555
I5_6 Zn1_4 1_555 1_555
N1_6 Zn1_4 1_555 1_555
N2_6 C3_6 1_555 1_555
N4_6 Zn2_6 1_555 1_555
N5_6 C2_6 1_555 1_555
N6_6 Zn2_6 1_555 1_555
N8_6 C2_6 1_555 1_555
C2_6 C9_6 1_555 1_555
C3_6 N5_6 1_555 1_555
C4_6 N2_6 1_555 1_555
C5_6 H1_6 1_555 1_555
C6_6 H2_6 1_555 1_555
C9_6 C5_6 1_555 1_555
C12_6 N1_6 1_555 1_555
H5_6 C12_6 1_555 1_555
C13_6 C12_6 1_555 1_555
H6_6 C13_6 1_555 1_555
C14_6 N4_6 1_555 1_555
H7_6 C14_6 1_555 1_555
C15_6 N4_6 1_555 1_555
H8_6 C15_6 1_555 1_555
C16_6 N6_6 1_555 1_555
H9_6 C16_6 1_555 1_555
C17_6 C3_6 1_555 1_555
C19_6 N6_6 1_555 1_555
H10_6 C19_6 1_555 1_555
H14_6 C25_6 1_555 1_555
C30_6 C4_6 1_555 1_555
C31_6 C30_6 1_555 1_555
H19_6 C31_6 1_555 1_555
C32_6 N1_6 1_555 1_555
H20_6 C32_6 1_555 1_555
C33_6 C30_6 1_555 1_555
H21_6 C33_6 1_555 1_555
C34_6 C17_6 1_555 1_555
H22_6 C34_6 1_555 1_555
C35_6 C33_6 1_555 1_555
H23_6 C35_6 1_555 1_555
C36_6 C31_6 1_555 1_555
H24_6 C36_6 1_555 1_555
N14_3 C35_6 1_555 1_555
N13_4 Zn1_4 1_555 1_555
N8_6 C4_6 1_555 1_555
C5_6 C16_6 1_555 1_555
C6_6 C9_6 1_555 1_555
C6_6 C19_6 1_555 1_555
C13_6 C17_6 1_555 1_555
C15_6 C25_6 1_555 1_555
C32_6 C34_6 1_555 1_555
C36_6 N14_3 1_555 1_555
Zn5_3 I4_6 1_555 1_555
I6_6 Zn5_3 1_555 1_555
N3_4 C11_6 1_555 1_555
N7_6 C1_6 1_555 1_555
C1_6 C7_6 1_555 1_555
N9_6 Zn5_3 1_555 1_555
N10_6 C8_6 1_555 1_555
C7_6 C10_6 1_555 1_555
C8_6 N7_6 1_555 1_555
N11_6 C1_6 1_555 1_555
C10_6 H3_6 1_555 1_555
C11_6 H4_6 1_555 1_555
C18_6 C21_6 1_555 1_555
C20_6 C11_6 1_555 1_555
H11_6 C20_6 1_555 1_555
C21_6 N10_6 1_555 1_555
C22_6 C18_6 1_555 1_555
H12_6 C22_6 1_555 1_555
C23_6 N9_6 1_555 1_555
H13_6 C23_6 1_555 1_555
C24_6 C8_6 1_555 1_555
C26_6 C18_6 1_555 1_555
H15_6 C26_6 1_555 1_555
C27_6 C24_6 1_555 1_555
H16_6 C27_6 1_555 1_555
C28_6 N3_4 1_555 1_555
H17_6 C28_6 1_555 1_555
C29_6 N9_6 1_555 1_555
H18_6 C29_6 1_555 1_555
N11_6 C21_6 1_555 1_555
C20_6 C24_6 1_555 1_555
C22_6 C29_6 1_555 1_555
C23_6 C26_6 1_555 1_555
C27_6 C28_6 1_555 1_555
N13_3 C11_7 1_555 1_555
N7_7 C1_7 1_555 1_555
C1_7 C7_7 1_555 1_555
N10_7 C8_7 1_555 1_555
C8_7 N7_7 1_555 1_555
N11_7 C1_7 1_555 1_555
C11_7 H4_7 1_555 1_555
H8_7 C15_7 1_555 1_555
C18_7 C21_7 1_555 1_555
C20_7 C11_7 1_555 1_555
H11_7 C20_7 1_555 1_555
C21_7 N10_7 1_555 1_555
C22_7 C18_7 1_555 1_555
H12_7 C22_7 1_555 1_555
C24_7 C8_7 1_555 1_555
C25_7 C7_7 1_555 1_555
H14_7 C25_7 1_555 1_555
C27_7 C24_7 1_555 1_555
H16_7 C27_7 1_555 1_555
C28_7 N13_3 1_555 1_555
H17_7 C28_7 1_555 1_555
H18_7 C29_7 1_555 1_555
C31_7 C30_7 1_555 1_555
C33_7 C30_7 1_555 1_555
H21_7 C33_7 1_555 1_555
C35_7 C33_7 1_555 1_555
H23_7 C35_7 1_555 1_555
C36_7 C31_7 1_555 1_555
H24_7 C36_7 1_555 1_555
N12_4 C35_7 1_555 1_555
Zn5_4 N12_4 1_555 1_555
N11_7 C21_7 1_555 1_555
C15_7 C25_7 1_555 1_555
C20_7 C24_7 1_555 1_555
C22_7 C29_7 1_555 1_555
C27_7 C28_7 1_555 1_555
C36_7 N12_4 1_555 1_555
Zn5_4 I4_7 1_555 1_555
I6_7 Zn5_4 1_555 1_555
N9_7 Zn5_4 1_555 1_555
C10_7 H3_7 1_555 1_555
C23_7 N9_7 1_555 1_555
H13_7 C23_7 1_555 1_555
H15_7 C26_7 1_555 1_555
C23_7 C26_7 1_555 1_555
N13_4 C11_8 1_555 1_555
N7_8 C1_8 1_555 1_555
C1_8 C7_8 1_555 1_555
N10_8 C8_8 1_555 1_555
C8_8 N7_8 1_555 1_555
N11_8 C1_8 1_555 1_555
C11_8 H4_8 1_555 1_555
C18_8 C21_8 1_555 1_555
C20_8 C11_8 1_555 1_555
H11_8 C20_8 1_555 1_555
C21_8 N10_8 1_555 1_555
C22_8 C18_8 1_555 1_555
H12_8 C22_8 1_555 1_555
C24_8 C8_8 1_555 1_555
C27_8 C24_8 1_555 1_555
H16_8 C27_8 1_555 1_555
C28_8 N13_4 1_555 1_555
H17_8 C28_8 1_555 1_555
H18_8 C29_8 1_555 1_555
N11_8 C21_8 1_555 1_555
C20_8 C24_8 1_555 1_555
C22_8 C29_8 1_555 1_555
C27_8 C28_8 1_555 1_555
Zn4_3 I1_7 1_555 1_555
Zn2_7 I2_7 1_555 1_555
Zn3_4 I4_8 1_555 1_555
I5_7 Zn4_3 1_555 1_555
I6_8 Zn3_4 1_555 1_555
N1_7 Zn4_3 1_555 1_555
N2_7 C3_7 1_555 1_555
N4_7 Zn2_7 1_555 1_555
N5_7 C2_7 1_555 1_555
N6_7 Zn2_7 1_555 1_555
N8_7 C2_7 1_555 1_555
N9_8 Zn3_4 1_555 1_555
C2_7 C9_7 1_555 1_555
C3_7 N5_7 1_555 1_555
C4_7 N2_7 1_555 1_555
C5_7 H1_7 1_555 1_555
C6_7 H2_7 1_555 1_555
C9_7 C5_7 1_555 1_555
C10_8 H3_8 1_555 1_555
C12_7 N1_7 1_555 1_555
H5_7 C12_7 1_555 1_555
C13_7 C12_7 1_555 1_555
H6_7 C13_7 1_555 1_555
C14_7 N4_7 1_555 1_555
H7_7 C14_7 1_555 1_555
C16_7 N6_7 1_555 1_555
H9_7 C16_7 1_555 1_555
C17_7 C3_7 1_555 1_555
C19_7 N6_7 1_555 1_555
H10_7 C19_7 1_555 1_555
C23_8 N9_8 1_555 1_555
H13_8 C23_8 1_555 1_555
H15_8 C26_8 1_555 1_555
C32_7 N1_7 1_555 1_555
H20_7 C32_7 1_555 1_555
C34_7 C17_7 1_555 1_555
H22_7 C34_7 1_555 1_555
N14_4 Zn3_4 1_555 1_555
N8_7 C4_7 1_555 1_555
C5_7 C16_7 1_555 1_555
C6_7 C9_7 1_555 1_555
C6_7 C19_7 1_555 1_555
C10_8 C14_7 1_555 1_555
C13_7 C17_7 1_555 1_555
C23_8 C26_8 1_555 1_555
C32_7 C34_7 1_555 1_555
H8_8 C15_8 1_555 1_555
H14_8 C25_8 1_555 1_555
C31_8 C30_8 1_555 1_555
C33_8 C30_8 1_555 1_555
H21_8 C33_8 1_555 1_555
C35_8 C33_8 1_555 1_555
H23_8 C35_8 1_555 1_555
C36_8 C31_8 1_555 1_555
H24_8 C36_8 1_555 1_555
N14_4 C35_8 1_555 1_555
C15_8 C25_8 1_555 1_555
C36_8 N14_4 1_555 1_555
Zn4_4 I1_8 1_555 1_555
I5_8 Zn4_4 1_555 1_555
Zn2_8 I2_8 1_555 1_555
I3_8 Zn2_8 1_555 1_555
N2_8 C3_8 1_555 1_555
N4_8 Zn2_8 1_555 1_555
N5_8 C2_8 1_555 1_555
N6_8 Zn2_8 1_555 1_555
N8_8 C2_8 1_555 1_555
C2_8 C9_8 1_555 1_555
C3_8 N5_8 1_555 1_555
C4_8 N2_8 1_555 1_555
C5_8 H1_8 1_555 1_555
C6_8 H2_8 1_555 1_555
C9_8 C5_8 1_555 1_555
C12_8 N1_8 1_555 1_555
H5_8 C12_8 1_555 1_555
C13_8 C12_8 1_555 1_555
H6_8 C13_8 1_555 1_555
C14_8 N4_8 1_555 1_555
H7_8 C14_8 1_555 1_555
C16_8 N6_8 1_555 1_555
H9_8 C16_8 1_555 1_555
C17_8 C3_8 1_555 1_555
C19_8 N6_8 1_555 1_555
H10_8 C19_8 1_555 1_555
C32_8 N1_8 1_555 1_555
H20_8 C32_8 1_555 1_555
C34_8 C17_8 1_555 1_555
H22_8 C34_8 1_555 1_555
N8_8 C4_8 1_555 1_555
C5_8 C16_8 1_555 1_555
C6_8 C9_8 1_555 1_555
C6_8 C19_8 1_555 1_555
C13_8 C17_8 1_555 1_555
C32_8 C34_8 1_555 1_555

#END
