
###############################################################################
#
# This file contains modified crystal structure data generated from the
# MOF subset of the Cambridge Structural Database (CSD) v543 
# hosted by the Cambridge Crystallographic Data Centre (CCDC).
#
# This work is licensed under the Creative Commons
# Attribution-NonCommercial-ShareAlike 4.0 International License.
# To view a copy of this license, visit
# http://creativecommons.org/licenses/by-nc-sa/4.0/
# or send a letter to
# Creative Commons, PO Box 1866, Mountain View, CA 94042, USA.
#
# CIF created using the CSD Python API on 29 September 2022
# The structure has been converted into the P1 space group
# The structure has a 3D framework
# The original CSD entry RIYWIH is in the monoclinic crystal system
# The framework has been calculated to contain at least 10.0% void space
# The void calculation uses a probe of radius 1.32A, grid spacing 0.4
# H atom positions have been added when not included in the experimental data
#
###############################################################################

data_RIYWIH
_chemical_formula_moiety         '(C96 H68 Ca8 O91 P12)n'
_symmetry_cell_setting           triclinic
_symmetry_space_group_name_H-M   'P 1'
_symmetry_Int_Tables_number      1
_space_group_name_Hall           'P 1'
loop_
_symmetry_equiv_pos_site_id
_symmetry_equiv_pos_as_xyz
1 x,y,z
_cell_length_a                   23.0652(7)
_cell_length_b                   6.97311(10)
_cell_length_c                   22.4165(7)
_cell_angle_alpha                90
_cell_angle_beta                 91.540(4)
_cell_angle_gamma                90
_cell_volume                     3604.08
loop_
_atom_site_label
_atom_site_type_symbol
_atom_site_fract_x
_atom_site_fract_y
_atom_site_fract_z
_atom_site_U_iso_or_equiv
_atom_site_thermal_displace_type
O3 O 0.4459(24) 0.141(4) 0.0213(35) 0.0282 Uiso
C7 C 0.1779(21) 0.043(15) 0.0304(32) 0.0282 Uiso
O5 O 0.1758(27) 0.070(11) 0.0847(32) 0.0282 Uiso
O11 O 0.5494(24) 0.627(4) 0.0072(34) 0.0282 Uiso
C9 C 0.6457(21) 0.407(7) 0.0322(27) 0.0282 Uiso
C10 C 0.6969(21) 0.499(10) 0.0177(29) 0.0282 Uiso
C11 C 0.7460(20) 0.474(9) 0.0550(29) 0.0282 Uiso
C12 C 0.7369(23) 0.432(11) 0.1154(28) 0.0282 Uiso
C13 C 0.6865(23) 0.330(8) 0.1293(27) 0.0282 Uiso
C14 C 0.6377(22) 0.353(10) 0.0915(28) 0.0282 Uiso
C15 C 0.8057(22) 0.516(13) 0.0317(30) 0.0282 Uiso
O13 O 0.8471(23) 0.573(10) 0.0635(35) 0.0282 Uiso
C16 C 0.6760(25) 0.271(8) 0.1936(27) 0.0282 Uiso
O14 O 0.7177(28) 0.296(10) 0.2291(28) 0.0282 Uiso
O15 O 0.6241(26) 0.277(9) 0.2079(32) 0.0282 Uiso
Ca2 Ca 0.4586(22) 0.4662(29) 0.0314(25) 0.0147 Uiso
Ca3 Ca 0.45707 0.0808(29) 0.5091(25) 0.0147 Uiso
P4 P 0.5823(13) 0.0793(32) 0.5543(26) 0.0147 Uiso
O24 O 0.5448(16) 0.258(4) 0.5494(31) 0.0282 Uiso
O26 O 0.6013(21) 0.039(7) 0.6199(27) 0.0282 Uiso
C25 C 0.6469(14) 0.106(6) 0.5110(28) 0.0282 Uiso
C26 C 0.6959(15) 0.005(9) 0.5314(28) 0.0282 Uiso
C27 C 0.7443(14) 0.001(10) 0.4948(29) 0.0282 Uiso
C28 C 0.7335(20) 0.006(11) 0.4329(28) 0.0282 Uiso
C29 C 0.6819(20) 0.087(10) 0.4106(28) 0.0282 Uiso
C30 C 0.6356(16) 0.105(12) 0.4492(28) 0.0282 Uiso
C32 C 0.6725(22) 0.151(9) 0.3464(27) 0.0282 Uiso
O29 O 0.6220(24) 0.196(9) 0.3314(33) 0.0282 Uiso
O30 O 0.7140(27) 0.202(9) 0.3164(32) 0.0282 Uiso
O38 O 0.472(4) 0.379(10) 0.1415(32) 0.0282 Uiso
O46 O 0.468(4) 0.084(9) 0.3918(30) 0.0282 Uiso
Ca5 Ca 0.5325(19) 0.9524(29) 0.0069(24) 0.0147 Uiso
Ca6 Ca 0.0325(19) 0.0476(29) 0.0069(24) 0.0147 Uiso
O47 O 0.4418(22) 0.7868(33) 0.0308(35) 0.0282 Uiso
O50 O 0.3471(23) 0.427(10) 0.0635(35) 0.0282 Uiso
Ca8 Ca 0.9586(22) 0.5338(29) 0.0314(25) 0.0147 Uiso
O52 O 0.3480(14) 0.039(10) 0.492(4) 0.0282 Uiso
O53 O 0.4404(18) 0.407(4) 0.5046(34) 0.0282 Uiso
Ca12 Ca 0.5351(15) 0.5912(30) 0.5282(24) 0.0147 Uiso
O55 O 0.4389(30) 0.076(10) 0.6281(27) 0.0282 Uiso
H8 H 0.600916 0.189055 0.181858 . .
H10 H 0.767847 0.476983 0.150183 . .
H13 H 0.594292 0.329277 0.107967 . .
H16 H 0.608998 0.304254 0.356525 . .
H23 H 0.591338 0.118075 0.43152 . .
H26 H 0.504614 0.0185958 0.381407 . .
H27 H 0.434609 0.0159576 0.372581 . .
H31 H 0.505346 0.289879 0.146584 . .
H32 H 0.479592 0.497213 0.165142 . .
O6 O 0.1331(21) 0.038(11) 0.998(4) 0.0282 Uiso
P2 P 0.5815(20) 0.4478(34) 0.9868(26) 0.0147 Uiso
O9 O 0.6003(27) 0.476(8) 0.9216(26) 0.0282 Uiso
O10 O 0.5414(22) 0.2733(35) 0.9932(33) 0.0282 Uiso
O12 O 0.8116(30) 0.509(10) 0.9766(30) 0.0282 Uiso
P6 P 0.4789(19) 0.5462(34) 0.8500(25) 0.0147 Uiso
O39 O 0.4663(27) 0.576(7) 0.9168(25) 0.0282 Uiso
O40 O 0.4851(31) 0.738(5) 0.8166(30) 0.0282 Uiso
O41 O 0.5372(20) 0.433(6) 0.846(4) 0.0282 Uiso
C41 C 0.4244(19) 0.390(6) 0.8166(31) 0.0282 Uiso
C42 C 0.4484(21) 0.247(5) 0.7805(28) 0.0282 Uiso
C43 C 0.4199(23) 0.213(8) 0.7248(27) 0.0282 Uiso
C44 C 0.3592(22) 0.222(10) 0.7247(29) 0.0282 Uiso
C45 C 0.3289(20) 0.298(8) 0.7736(30) 0.0282 Uiso
C46 C 0.3637(19) 0.399(9) 0.8166(33) 0.0282 Uiso
C47 C 0.4587(25) 0.145(10) 0.6750(29) 0.0282 Uiso
O42 O 0.5105(25) 0.198(9) 0.682(4) 0.0282 Uiso
C48 C 0.2630(20) 0.294(11) 0.7716(33) 0.0282 Uiso
O44 O 0.2334(24) 0.333(10) 0.8156(35) 0.0282 Uiso
O45 O 0.2341(25) 0.234(10) 0.7272(34) 0.0282 Uiso
H3 H 0.197197 0.0443638 0.91293 . .
H11 H 0.698793 0.588855 0.978066 . .
H25 H 0.244236 0.0979766 0.719529 . .
H28 H 0.342661 0.485219 0.850259 . .
H29 H 0.486863 0.166741 0.794664 . .
H30 H 0.334583 0.16912 0.685962 . .
H34 H 0.533422 0.307226 0.866303 . .
O1 O 0.547(4) 0.649(9) 0.6465(30) 0.0282 Uiso
P1 P 0.4086(20) 0.9738(33) 0.0425(27) 0.0147 Uiso
O4 O 0.3995(26) 0.993(8) 0.1104(27) 0.0282 Uiso
C1 C 0.3390(20) 0.971(9) 0.0038(27) 0.0282 Uiso
C2 C 0.2873(20) 0.978(11) 0.0342(27) 0.0282 Uiso
C3 C 0.2351(20) 0.996(10) 0.0018(29) 0.0282 Uiso
P3 P 0.5373(19) 0.5919(35) 0.3633(21) 0.0147 Uiso
O16 O 0.5701(23) 0.602(8) 0.4240(21) 0.0282 Uiso
O17 O 0.5219(31) 0.381(4) 0.3486(34) 0.0282 Uiso
O18 O 0.4828(22) 0.721(7) 0.3633(31) 0.0282 Uiso
C17 C 0.5830(21) 0.683(8) 0.3056(20) 0.0282 Uiso
C18 C 0.5579(21) 0.789(9) 0.2595(23) 0.0282 Uiso
C19 C 0.5892(22) 0.827(8) 0.2086(24) 0.0282 Uiso
C20 C 0.6502(21) 0.812(9) 0.2126(22) 0.0282 Uiso
C21 C 0.6771(20) 0.729(8) 0.2629(22) 0.0282 Uiso
C22 C 0.6421(21) 0.635(9) 0.30401 0.0282 Uiso
C23 C 0.5587(24) 0.905(13) 0.1530(28) 0.0282 Uiso
O19 O 0.5053(24) 0.921(10) 0.1561(28) 0.0282 Uiso
O20 O 0.5845(27) 0.941(9) 0.1070(22) 0.0282 Uiso
C24 C 0.7426(21) 0.718(10) 0.2688(29) 0.0282 Uiso
O21 O 0.7643(26) 0.663(9) 0.3170(30) 0.0282 Uiso
O22 O 0.7735(24) 0.794(10) 0.2308(33) 0.0282 Uiso
O25 O 0.5468(17) 0.913(4) 0.5276(33) 0.0282 Uiso
C31 C 0.8033(16) 0.953(15) 0.5217(32) 0.0282 Uiso
O27 O 0.8053(24) 0.902(10) 0.5750(32) 0.0282 Uiso
O28 O 0.8480(14) 0.961(10) 0.492(4) 0.0282 Uiso
P5 P 0.3991(16) 0.5760(32) 0.4939(26) 0.0147 Uiso
O31 O 0.3838(24) 0.592(7) 0.4264(26) 0.0282 Uiso
O32 O 0.4343(19) 0.752(4) 0.5139(31) 0.0282 Uiso
C33 C 0.3339(16) 0.548(7) 0.5361(27) 0.0282 Uiso
C34 C 0.2807(17) 0.514(10) 0.5070(28) 0.0282 Uiso
C35 C 0.2311(17) 0.498(9) 0.5403(29) 0.0282 Uiso
C36 C 0.2306(18) 0.593(10) 0.5956(30) 0.0282 Uiso
C37 C 0.2822(20) 0.655(9) 0.6231(27) 0.0282 Uiso
C38 C 0.3345(18) 0.612(10) 0.5960(27) 0.0282 Uiso
C39 C 0.1707(17) 0.435(8) 0.5198(30) 0.0282 Uiso
O34 O 0.1526(25) 0.491(9) 0.4706(31) 0.0282 Uiso
O35 O 0.1374(19) 0.407(9) 0.5619(32) 0.0282 Uiso
C40 C 0.2762(24) 0.707(11) 0.6885(28) 0.0282 Uiso
O36 O 0.2270(26) 0.692(9) 0.7098(30) 0.0282 Uiso
O37 O 0.3214(27) 0.730(10) 0.7185(31) 0.0282 Uiso
Ca11 Ca 0.95707 0.9192(29) 0.5091(25) 0.0147 Uiso
O54 O 0.6374(19) 0.593(9) 0.5619(32) 0.0282 Uiso
Ca13 Ca 0.0351(15) 0.4088(30) 0.5282(24) 0.0147 Uiso
H1 H 0.553766 0.787423 0.654417 . .
H2 H 0.511136 0.607319 0.666326 . .
H5 H 0.287547 0.969535 0.082715 . .
H6 H 0.676366 0.865204 0.176421 . .
H7 H 0.513772 0.842516 0.263057 . .
H9 H 0.660408 0.526923 0.334099 . .
H14 H 0.496981 0.328446 0.38013 . .
H15 H 0.278115 0.500145 0.458613 . .
H19 H 0.765478 0.933843 0.229211 . .
H20 H 0.375453 0.627664 0.620838 . .
H21 H 0.765025 0.947326 0.402539 . .
H22 H 0.189546 0.618389 0.617149 . .
H24 H 0.696489 0.931772 0.574321 . .
H33 H 0.21359 0.557063 0.706242 . .
C4 C 0.2347(21) 0.994(11) 0.9390(29) 0.0282 Uiso
C5 C 0.2842(22) 0.925(8) 0.9112(28) 0.0282 Uiso
C6 C 0.3379(20) 0.949(10) 0.9416(27) 0.0282 Uiso
C8 C 0.2814(25) 0.867(10) 0.8460(29) 0.0282 Uiso
O7 O 0.3285(29) 0.865(9) 0.8200(32) 0.0282 Uiso
O8 O 0.2361(28) 0.796(8) 0.8245(33) 0.0282 Uiso
O23 O 0.529(4) 0.922(10) 0.8950(31) 0.0282 Uiso
O48 O 0.6331(21) 0.962(11) 0.998(4) 0.0282 Uiso
H4 H 0.378058 0.950464 0.917142 . .
H12 H 0.355301 0.772808 0.840232 . .
H17 H 0.493505 0.98584 0.878688 . .
H18 H 0.563797 0.983941 0.878354 . .
O1_2 O 0.047(4) 0.351(9) 0.6465(30) 0.0282 Uiso
P3_2 P 0.0373(19) 0.4081(35) 0.3633(21) 0.0147 Uiso
O16_2 O 0.0701(23) 0.398(8) 0.4240(21) 0.0282 Uiso
O17_2 O 0.0219(31) 0.619(4) 0.3486(34) 0.0282 Uiso
C17_2 C 0.0830(21) 0.317(8) 0.3056(20) 0.0282 Uiso
C18_2 C 0.0579(21) 0.211(9) 0.2595(23) 0.0282 Uiso
C19_2 C 0.0892(22) 0.173(8) 0.2086(24) 0.0282 Uiso
C20_2 C 0.1502(21) 0.188(9) 0.2126(22) 0.0282 Uiso
C21_2 C 0.1771(20) 0.271(8) 0.2629(22) 0.0282 Uiso
C22_2 C 0.1421(21) 0.365(9) 0.30401 0.0282 Uiso
C23_2 C 0.0587(24) 0.095(13) 0.1530(28) 0.0282 Uiso
O19_2 O 0.0053(24) 0.079(10) 0.1561(28) 0.0282 Uiso
O20_2 O 0.0845(27) 0.059(9) 0.1070(22) 0.0282 Uiso
C24_2 C 0.2426(21) 0.282(10) 0.2688(29) 0.0282 Uiso
O21_2 O 0.2643(26) 0.337(9) 0.3170(30) 0.0282 Uiso
O22_2 O 0.2735(24) 0.206(10) 0.2308(33) 0.0282 Uiso
O25_2 O 0.0468(17) 0.087(4) 0.5276(33) 0.0282 Uiso
C31_2 C 0.3033(16) 0.047(15) 0.5217(32) 0.0282 Uiso
O27_2 O 0.3053(24) 0.098(10) 0.5750(32) 0.0282 Uiso
O49 O 0.0494(24) 0.373(4) 0.0072(34) 0.0282 Uiso
O51 O 0.0448(16) 0.742(4) 0.5494(31) 0.0282 Uiso
H1_2 H 0.0537663 0.212577 0.654417 . .
H2_2 H 0.0111357 0.392681 0.666326 . .
H6_2 H 0.176366 0.134796 0.176421 . .
H7_2 H 0.0137723 0.157484 0.263057 . .
H9_2 H 0.160408 0.473077 0.334099 . .
H19_2 H 0.265478 0.0661571 0.229211 . .
H21_2 H 0.265025 0.0526737 0.402539 . .
H24_2 H 0.196489 0.0682276 0.574321 . .
O23_2 O 0.029(4) 0.078(10) 0.8950(31) 0.0282 Uiso
H18_2 H 0.0637967 0.0160593 0.878354 . .
C9_2 C 0.1457(21) 0.593(7) 0.0322(27) 0.0282 Uiso
C10_2 C 0.1969(21) 0.501(10) 0.0177(29) 0.0282 Uiso
C11_2 C 0.2460(20) 0.526(9) 0.0550(29) 0.0282 Uiso
C12_2 C 0.2369(23) 0.568(11) 0.1154(28) 0.0282 Uiso
C13_2 C 0.1865(23) 0.670(8) 0.1293(27) 0.0282 Uiso
C14_2 C 0.1377(22) 0.647(10) 0.0915(28) 0.0282 Uiso
C15_2 C 0.3057(22) 0.484(13) 0.0317(30) 0.0282 Uiso
C16_2 C 0.1760(25) 0.729(8) 0.1936(27) 0.0282 Uiso
O14_2 O 0.2177(28) 0.704(10) 0.2291(28) 0.0282 Uiso
O15_2 O 0.1241(26) 0.723(9) 0.2079(32) 0.0282 Uiso
P4_2 P 0.0823(13) 0.9207(32) 0.5543(26) 0.0147 Uiso
O26_2 O 0.1013(21) 0.961(7) 0.6199(27) 0.0282 Uiso
C25_2 C 0.1469(14) 0.894(6) 0.5110(28) 0.0282 Uiso
C26_2 C 0.1959(15) 0.995(9) 0.5314(28) 0.0282 Uiso
C27_2 C 0.2443(14) 0.999(10) 0.4948(29) 0.0282 Uiso
C28_2 C 0.2335(20) 0.994(11) 0.4329(28) 0.0282 Uiso
C29_2 C 0.1819(20) 0.913(10) 0.4106(28) 0.0282 Uiso
C30_2 C 0.1356(16) 0.895(12) 0.4492(28) 0.0282 Uiso
C32_2 C 0.1725(22) 0.849(9) 0.3464(27) 0.0282 Uiso
O29_2 O 0.1220(24) 0.804(9) 0.3314(33) 0.0282 Uiso
O30_2 O 0.2140(27) 0.798(9) 0.3164(32) 0.0282 Uiso
H8_2 H 0.100916 0.810945 0.181858 . .
H10_2 H 0.267847 0.523017 0.150183 . .
H13_2 H 0.0942921 0.670723 0.107967 . .
H16_2 H 0.108998 0.695746 0.356525 . .
H23_2 H 0.0913377 0.881925 0.43152 . .
H26_2 H 0.00461389 0.981404 0.381407 . .
H31_2 H 0.00534631 0.710121 0.146584 . .
P1_2 P 0.9086(20) 0.0262(33) 0.0425(27) 0.0147 Uiso
O2 O 0.9418(22) 0.2132(33) 0.0308(35) 0.0282 Uiso
O4_2 O 0.8995(26) 0.007(8) 0.1104(27) 0.0282 Uiso
C1_2 C 0.8390(20) 0.029(9) 0.0038(27) 0.0282 Uiso
C2_2 C 0.7873(20) 0.022(11) 0.0342(27) 0.0282 Uiso
C3_2 C 0.7351(20) 0.004(10) 0.0018(29) 0.0282 Uiso
O18_2 O 0.9828(22) 0.279(7) 0.3633(31) 0.0282 Uiso
P5_2 P 0.8991(16) 0.4240(32) 0.4939(26) 0.0147 Uiso
O31_2 O 0.8838(24) 0.408(7) 0.4264(26) 0.0282 Uiso
O32_2 O 0.9343(19) 0.248(4) 0.5139(31) 0.0282 Uiso
O33 O 0.9404(18) 0.593(4) 0.5046(34) 0.0282 Uiso
C33_2 C 0.8339(16) 0.452(7) 0.5361(27) 0.0282 Uiso
C34_2 C 0.7807(17) 0.486(10) 0.5070(28) 0.0282 Uiso
C35_2 C 0.7311(17) 0.502(9) 0.5403(29) 0.0282 Uiso
C36_2 C 0.7306(18) 0.407(10) 0.5956(30) 0.0282 Uiso
C37_2 C 0.7822(20) 0.345(9) 0.6231(27) 0.0282 Uiso
C38_2 C 0.8345(18) 0.388(10) 0.5960(27) 0.0282 Uiso
C39_2 C 0.6707(17) 0.565(8) 0.5198(30) 0.0282 Uiso
O34_2 O 0.6526(25) 0.509(9) 0.4706(31) 0.0282 Uiso
C40_2 C 0.7762(24) 0.293(11) 0.6885(28) 0.0282 Uiso
O36_2 O 0.7270(26) 0.308(9) 0.7098(30) 0.0282 Uiso
O37_2 O 0.8214(27) 0.270(10) 0.7185(31) 0.0282 Uiso
H5_2 H 0.787547 0.0304649 0.082715 . .
H14_2 H 0.996981 0.671554 0.38013 . .
H15_2 H 0.778115 0.499855 0.458613 . .
H20_2 H 0.875453 0.372336 0.620838 . .
H22_2 H 0.689546 0.381611 0.617149 . .
H33_2 H 0.71359 0.442937 0.706242 . .
O3_2 O 0.9459(24) 0.859(4) 0.0213(35) 0.0282 Uiso
C7_2 C 0.6779(21) 0.957(15) 0.0304(32) 0.0282 Uiso
O5_2 O 0.6758(27) 0.930(11) 0.0847(32) 0.0282 Uiso
O38_2 O 0.972(4) 0.621(10) 0.1415(32) 0.0282 Uiso
O46_2 O 0.968(4) 0.916(9) 0.3918(30) 0.0282 Uiso
O55_2 O 0.9389(30) 0.924(10) 0.6281(27) 0.0282 Uiso
H27_2 H 0.934609 0.984042 0.372581 . .
H32_2 H 0.979592 0.502787 0.165142 . .
P6_2 P 0.9789(19) 0.4538(34) 0.8500(25) 0.0147 Uiso
O39_2 O 0.9663(27) 0.424(7) 0.9168(25) 0.0282 Uiso
O40_2 O 0.9851(31) 0.262(5) 0.8166(30) 0.0282 Uiso
C41_2 C 0.9244(19) 0.610(6) 0.8166(31) 0.0282 Uiso
C42_2 C 0.9484(21) 0.753(5) 0.7805(28) 0.0282 Uiso
C43_2 C 0.9199(23) 0.787(8) 0.7248(27) 0.0282 Uiso
C44_2 C 0.8592(22) 0.778(10) 0.7247(29) 0.0282 Uiso
C45_2 C 0.8289(20) 0.702(8) 0.7736(30) 0.0282 Uiso
C46_2 C 0.8637(19) 0.601(9) 0.8166(33) 0.0282 Uiso
C47_2 C 0.9587(25) 0.855(10) 0.6750(29) 0.0282 Uiso
C48_2 C 0.7630(20) 0.706(11) 0.7716(33) 0.0282 Uiso
O44_2 O 0.7334(24) 0.667(10) 0.8156(35) 0.0282 Uiso
O45_2 O 0.7341(25) 0.766(10) 0.7272(34) 0.0282 Uiso
H3_2 H 0.697197 0.955636 0.91293 . .
H25_2 H 0.744236 0.902023 0.719529 . .
H28_2 H 0.842661 0.514781 0.850259 . .
H29_2 H 0.986863 0.833259 0.794664 . .
H30_2 H 0.834583 0.83088 0.685962 . .
P2_2 P 0.0815(20) 0.5522(34) 0.9868(26) 0.0147 Uiso
O9_2 O 0.1003(27) 0.524(8) 0.9216(26) 0.0282 Uiso
O10_2 O 0.0414(22) 0.7267(35) 0.9932(33) 0.0282 Uiso
O12_2 O 0.3116(30) 0.491(10) 0.9766(30) 0.0282 Uiso
O41_2 O 0.0372(20) 0.567(6) 0.846(4) 0.0282 Uiso
O42_2 O 0.0105(25) 0.802(9) 0.682(4) 0.0282 Uiso
H11_2 H 0.198793 0.411145 0.978066 . .
H34_2 H 0.0334222 0.692774 0.866303 . .
C4_2 C 0.7347(21) 0.006(11) 0.9390(29) 0.0282 Uiso
C5_2 C 0.7842(22) 0.075(8) 0.9112(28) 0.0282 Uiso
C6_2 C 0.8379(20) 0.051(10) 0.9416(27) 0.0282 Uiso
C8_2 C 0.7814(25) 0.133(10) 0.8460(29) 0.0282 Uiso
O7_2 O 0.8285(29) 0.135(9) 0.8200(32) 0.0282 Uiso
O8_2 O 0.7361(28) 0.204(8) 0.8245(33) 0.0282 Uiso
H4_2 H 0.878058 0.0495361 0.917142 . .
H12_2 H 0.855301 0.227192 0.840232 . .
H17_2 H 0.993505 0.0141596 0.878688 . .
loop_
_geom_bond_atom_site_label_1
_geom_bond_atom_site_label_2
_geom_bond_site_symmetry_1
_geom_bond_site_symmetry_2
O5 C7 1_555 1_555
C10 C9 1_555 1_555
C11 C10 1_555 1_555
C12 C11 1_555 1_555
C13 C12 1_555 1_555
C14 C9 1_555 1_555
C15 C11 1_555 1_555
O13 C15 1_555 1_555
C16 C13 1_555 1_555
O14 C16 1_555 1_555
O15 C16 1_555 1_555
Ca2 O3 1_555 1_555
Ca3 O24 1_555 1_555
P4 O24 1_555 1_555
O24 Ca12 1_555 1_555
O26 P4 1_555 1_555
C25 P4 1_555 1_555
C26 C25 1_555 1_555
C27 C26 1_555 1_555
C28 C27 1_555 1_555
C29 C28 1_555 1_555
C30 C25 1_555 1_555
C32 C29 1_555 1_555
O29 C32 1_555 1_555
O30 C32 1_555 1_555
O38 Ca2 1_555 1_555
O46 Ca3 1_555 1_555
Ca5 O11 1_555 1_555
O47 Ca2 1_555 1_555
O50 Ca2 1_555 1_555
Ca8 O13 1_555 1_555
O52 Ca3 1_555 1_555
O53 Ca3 1_555 1_555
Ca12 O53 1_555 1_555
O55 Ca3 1_555 1_555
O11 Ca2 1_555 1_555
C13 C14 1_555 1_555
C29 C30 1_555 1_555
Ca5 O47 1_555 1_555
O15 H8 1_555 1_555
C12 H10 1_555 1_555
C14 H13 1_555 1_555
O29 H16 1_555 1_555
C30 H23 1_555 1_555
O46 H26 1_555 1_555
O46 H27 1_555 1_555
O38 H31 1_555 1_555
O38 H32 1_555 1_555
P2 O9 1_555 1_555
P6 O39 1_555 1_555
O40 P6 1_555 1_555
O41 P6 1_555 1_555
C41 P6 1_555 1_555
C42 C41 1_555 1_555
C43 C42 1_555 1_555
C44 C43 1_555 1_555
C45 C44 1_555 1_555
C46 C41 1_555 1_555
C47 C43 1_555 1_555
O42 C47 1_555 1_555
O55 C47 1_555 1_555
C48 C45 1_555 1_555
O44 C48 1_555 1_555
O45 C48 1_555 1_555
P2 O10 1_555 1_555
C45 C46 1_555 1_555
O45 H25 1_555 1_555
C46 H28 1_555 1_555
C42 H29 1_555 1_555
C44 H30 1_555 1_555
O41 H34 1_555 1_555
O1 Ca12 1_555 1_555
P1 O47 1_555 1_555
O4 P1 1_555 1_555
C1 P1 1_555 1_555
C2 C1 1_555 1_555
C3 C2 1_555 1_555
P3 O16 1_555 1_555
O16 Ca12 1_555 1_555
O17 P3 1_555 1_555
O18 P3 1_555 1_555
C17 P3 1_555 1_555
C18 C17 1_555 1_555
C19 C18 1_555 1_555
C20 C19 1_555 1_555
C21 C20 1_555 1_555
C22 C17 1_555 1_555
C23 C19 1_555 1_555
O19 C23 1_555 1_555
O20 Ca5 1_555 1_555
C24 C21 1_555 1_555
O21 C24 1_555 1_555
O22 C24 1_555 1_555
O27 C31 1_555 1_555
O28 C31 1_555 1_555
P5 O31 1_555 1_555
O53 P5 1_555 1_555
C33 P5 1_555 1_555
C34 C33 1_555 1_555
C35 C34 1_555 1_555
C36 C35 1_555 1_555
C37 C36 1_555 1_555
C38 C33 1_555 1_555
C39 C35 1_555 1_555
O34 C39 1_555 1_555
O35 C39 1_555 1_555
C40 C37 1_555 1_555
O36 C40 1_555 1_555
O37 C40 1_555 1_555
Ca12 O25 1_555 1_555
Ca11 O28 1_555 1_555
O54 Ca12 1_555 1_555
Ca13 O35 1_555 1_555
C21 C22 1_555 1_555
C23 O20 1_555 1_555
P5 O32 1_555 1_555
O32 Ca12 1_555 1_555
C37 C38 1_555 1_555
O1 H1 1_555 1_555
O1 H2 1_555 1_555
C2 H5 1_555 1_555
C20 H6 1_555 1_555
C18 H7 1_555 1_555
C22 H9 1_555 1_555
O17 H14 1_555 1_555
C34 H15 1_555 1_555
O22 H19 1_555 1_555
C38 H20 1_555 1_555
C36 H22 1_555 1_555
O36 H33 1_555 1_555
C5 C4 1_555 1_555
C8 C5 1_555 1_555
O7 C8 1_555 1_555
O8 C8 1_555 1_555
C5 C6 1_555 1_555
C6 H4 1_555 1_555
O7 H12 1_555 1_555
O23 H17 1_555 1_555
O23 H18 1_555 1_555
O1_2 Ca13 1_555 1_555
P3_2 O16_2 1_555 1_555
O16_2 Ca13 1_555 1_555
O17_2 P3_2 1_555 1_555
C17_2 P3_2 1_555 1_555
C18_2 C17_2 1_555 1_555
C19_2 C18_2 1_555 1_555
C20_2 C19_2 1_555 1_555
C21_2 C20_2 1_555 1_555
C22_2 C17_2 1_555 1_555
C23_2 C19_2 1_555 1_555
O19_2 C23_2 1_555 1_555
O20_2 Ca6 1_555 1_555
C24_2 C21_2 1_555 1_555
O21_2 C24_2 1_555 1_555
O22_2 C24_2 1_555 1_555
O27_2 C31_2 1_555 1_555
O52 C31_2 1_555 1_555
Ca13 O25_2 1_555 1_555
O49 Ca6 1_555 1_555
O51 Ca13 1_555 1_555
C21_2 C22_2 1_555 1_555
C23_2 O20_2 1_555 1_555
O1_2 H1_2 1_555 1_555
O1_2 H2_2 1_555 1_555
C20_2 H6_2 1_555 1_555
C18_2 H7_2 1_555 1_555
C22_2 H9_2 1_555 1_555
O22_2 H19_2 1_555 1_555
O23_2 H18_2 1_555 1_555
C10_2 C9_2 1_555 1_555
C11_2 C10_2 1_555 1_555
C12_2 C11_2 1_555 1_555
C13_2 C12_2 1_555 1_555
C14_2 C9_2 1_555 1_555
C15_2 C11_2 1_555 1_555
O50 C15_2 1_555 1_555
C16_2 C13_2 1_555 1_555
O14_2 C16_2 1_555 1_555
O15_2 C16_2 1_555 1_555
P4_2 O51 1_555 1_555
O26_2 P4_2 1_555 1_555
C25_2 P4_2 1_555 1_555
C26_2 C25_2 1_555 1_555
C27_2 C26_2 1_555 1_555
C28_2 C27_2 1_555 1_555
C29_2 C28_2 1_555 1_555
C30_2 C25_2 1_555 1_555
C32_2 C29_2 1_555 1_555
O29_2 C32_2 1_555 1_555
O30_2 C32_2 1_555 1_555
C13_2 C14_2 1_555 1_555
C29_2 C30_2 1_555 1_555
O15_2 H8_2 1_555 1_555
C12_2 H10_2 1_555 1_555
C14_2 H13_2 1_555 1_555
O29_2 H16_2 1_555 1_555
C30_2 H23_2 1_555 1_555
P1_2 O2 1_555 1_555
O2 Ca8 1_555 1_555
O4_2 P1_2 1_555 1_555
C1_2 P1_2 1_555 1_555
C2_2 C1_2 1_555 1_555
C3_2 C2_2 1_555 1_555
P5_2 O31_2 1_555 1_555
O33 P5_2 1_555 1_555
C33_2 P5_2 1_555 1_555
C34_2 C33_2 1_555 1_555
C35_2 C34_2 1_555 1_555
C36_2 C35_2 1_555 1_555
C37_2 C36_2 1_555 1_555
C38_2 C33_2 1_555 1_555
C39_2 C35_2 1_555 1_555
O34_2 C39_2 1_555 1_555
O54 C39_2 1_555 1_555
C40_2 C37_2 1_555 1_555
O36_2 C40_2 1_555 1_555
O37_2 C40_2 1_555 1_555
Ca11 O33 1_555 1_555
P5_2 O32_2 1_555 1_555
C37_2 C38_2 1_555 1_555
C2_2 H5_2 1_555 1_555
C34_2 H15_2 1_555 1_555
C38_2 H20_2 1_555 1_555
C36_2 H22_2 1_555 1_555
O36_2 H33_2 1_555 1_555
O5_2 C7_2 1_555 1_555
Ca8 O3_2 1_555 1_555
O38_2 Ca8 1_555 1_555
O46_2 Ca11 1_555 1_555
O55_2 Ca11 1_555 1_555
O46_2 H27_2 1_555 1_555
O38_2 H32_2 1_555 1_555
P6_2 O39_2 1_555 1_555
O40_2 P6_2 1_555 1_555
C41_2 P6_2 1_555 1_555
C42_2 C41_2 1_555 1_555
C43_2 C42_2 1_555 1_555
C44_2 C43_2 1_555 1_555
C45_2 C44_2 1_555 1_555
C46_2 C41_2 1_555 1_555
C47_2 C43_2 1_555 1_555
O55_2 C47_2 1_555 1_555
C48_2 C45_2 1_555 1_555
O44_2 C48_2 1_555 1_555
O45_2 C48_2 1_555 1_555
C45_2 C46_2 1_555 1_555
O45_2 H25_2 1_555 1_555
C46_2 H28_2 1_555 1_555
C42_2 H29_2 1_555 1_555
C44_2 H30_2 1_555 1_555
P2_2 O9_2 1_555 1_555
P2_2 O10_2 1_555 1_555
O41_2 H34_2 1_555 1_555
C5_2 C4_2 1_555 1_555
C8_2 C5_2 1_555 1_555
O7_2 C8_2 1_555 1_555
O8_2 C8_2 1_555 1_555
C5_2 C6_2 1_555 1_555
C6_2 H4_2 1_555 1_555
O7_2 H12_2 1_555 1_555

#END
