
###############################################################################
#
# This file contains modified crystal structure data generated from the
# MOF subset of the Cambridge Structural Database (CSD) v543 
# hosted by the Cambridge Crystallographic Data Centre (CCDC).
#
# This work is licensed under the Creative Commons
# Attribution-NonCommercial-ShareAlike 4.0 International License.
# To view a copy of this license, visit
# http://creativecommons.org/licenses/by-nc-sa/4.0/
# or send a letter to
# Creative Commons, PO Box 1866, Mountain View, CA 94042, USA.
#
# CIF created using the CSD Python API on 29 September 2022
# The structure has been converted into the P1 space group
# The structure has a 3D framework
# The original CSD entry RIYWED is in the orthorhombic crystal system
# The framework has been calculated to contain at least 10.0% void space
# The void calculation uses a probe of radius 1.32A, grid spacing 0.4
#
###############################################################################

data_RIYWED
_chemical_formula_moiety         '(C96 H84 Ca8 O86 P12)n'
_symmetry_cell_setting           triclinic
_symmetry_space_group_name_H-M   'P 1'
_symmetry_Int_Tables_number      1
_space_group_name_Hall           'P 1'
loop_
_symmetry_equiv_pos_site_id
_symmetry_equiv_pos_as_xyz
1 x,y,z
_cell_length_a                   23.112(4)
_cell_length_b                   6.9534(13)
_cell_length_c                   22.638(4)
_cell_angle_alpha                90
_cell_angle_beta                 90
_cell_angle_gamma                90
_cell_volume                     3638.08
loop_
_atom_site_label
_atom_site_type_symbol
_atom_site_fract_x
_atom_site_fract_y
_atom_site_fract_z
H3 H 0.4937 0.0253 0.6235
O12 O 0.4740(4) 0.1361(12) 0.3287(4)
H8 H 0.4763 0.1515 0.2919
O25 O 0.4508(4) 0.2586(13) 0.5135(4)
O30 O 0.5585(3) 0.1161(12) 0.4732(4)
Ca1 Ca 0.46847(10) 0.9357(4) 0.50113(10)
P1 P 0.41484(13) 0.4375(5) 0.52588(14)
P2 P 0.46557(16) 0.9184(5) 0.34265(16)
O1 O 0.4513(3) 0.6119(12) 0.5148(4)
O3 O 0.3911(4) 0.4429(14) 0.5908(4)
H1 H 0.3803 0.3322 0.6008
O4 O 0.3507(4) 0.3027(16) 0.3016(4)
H2 H 0.3466 0.2615 0.2669
O5 O 0.2530(4) 0.3179(16) 0.2968(4)
O6 O 0.4987(4) 0.9195(13) 0.6004(4)
H4 H 0.4857 0.8191 0.6192
O8 O 0.1908(4) 0.5817(14) 0.5568(4)
H7 H 0.1569 0.5949 0.5694
O9 O 0.1451(3) 0.5615(12) 0.4693(4)
O10 O 0.4341(4) 0.9136(14) 0.4016(4)
O11 O 0.5234(3) 0.8109(12) 0.3399(4)
O13 O 0.4161(4) 0.5866(13) 0.0870(4)
O14 O 0.4823(4) 0.4628(14) 0.1466(4)
O15 O 0.2394(4) 0.8189(17) 0.3003(4)
H9 H 0.2031 0.8113 0.3006
O16 O 0.2301(4) 0.6852(16) 0.2091(5)
O20 O 0.2450(4) 0.1732(16) 0.1898(4)
H11 H 0.2495 0.1560 0.2262
O21 O 0.3421(4) 0.2057(14) 0.1864(4)
C1 C 0.3497(5) 0.4402(18) 0.4813(6)
C2 C 0.3518(5) 0.3921(17) 0.4214(6)
H13 H 0.3873 0.3550 0.4038
C3 C 0.3010(5) 0.3987(19) 0.3875(6)
C4 C 0.3005(6) 0.338(2) 0.3242(6)
C5 C 0.2485(5) 0.4500(17) 0.4136(5)
H14 H 0.2141 0.4509 0.3906
C6 C 0.2462(5) 0.4998(19) 0.4729(6)
C7 C 0.1896(5) 0.5517(18) 0.4989(7)
C8 C 0.2975(5) 0.4960(18) 0.5062(6)
H15 H 0.2964 0.5326 0.5466
C9 C 0.4193(6) 0.819(2) 0.2858(6)
C10 C 0.4441(5) 0.736(2) 0.2360(6)
H16 H 0.4851 0.7295 0.2328
C11 C 0.4104(6) 0.663(2) 0.1915(6)
C12 C 0.4416(7) 0.569(2) 0.1384(6)
C13 C 0.3508(6) 0.6729(19) 0.1946(6)
H17 H 0.3275 0.6265 0.1631
C14 C 0.3245(5) 0.756(2) 0.2468(7)
C15 C 0.2596(5) 0.748(2) 0.2498(8)
C16 C 0.3594(5) 0.825(2) 0.2903(6)
H18 H 0.3423 0.8774 0.3249
C17 C 0.3393(5) 0.0541(19) 0.0047(7)
C18 C 0.3412(5) 0.0981(18) 0.0645(6)
H19 H 0.3776 0.1276 0.0818
C19 C 0.2920(5) 0.1010(19) 0.1001(6)
C20 C 0.2954(6) 0.166(2) 0.1632(6)
C21 C 0.2393(5) 0.0489(18) 0.0749(6)
H20 H 0.2054 0.0460 0.0987
C22 C 0.2356(5) 0.0008(19) 0.0148(6)
Ca4 Ca 0.53153(10) 0.0643(4) 0.00113(10)
Ca7 Ca 0.54293(10) 0.4368(4) 0.49093(11)
Ca8 Ca 0.04293(10) 0.5632(4) 0.49093(11)
O24 O 0.5487(3) 0.3881(12) 0.0148(4)
O26 O 0.5492(4) 0.7414(13) 0.0135(4)
O28 O 0.5600(3) 0.7654(12) 0.4809(4)
O31 O 0.3654(3) 0.9508(12) 0.5214(4)
Ca2 Ca 0.45707(10) 0.5632(4) 0.99093(11)
P3 P 0.40479(14) 0.0640(5) 0.96294(16)
O7 O 0.4777(4) 0.5546(13) 0.8901(4)
H5 H 0.4581 0.4755 0.8697
H6 H 0.5071 0.6143 0.8772
O17 O 0.4400(3) 0.2346(12) 0.9809(4)
O19 O 0.3832(4) 0.0774(13) 0.8974(4)
H10 H 0.4100 0.1203 0.8760
C24 C 0.2859(5) 0.0075(18) 0.9803(6)
O27 O 0.3549(3) 0.5615(12) 0.9693(4)
O29 O 0.4415(3) 0.8839(12) 0.9732(4)
O23 O 0.1346(3) 0.9508(12) 0.0214(4)
Ca5 Ca 0.03153(10) 0.9357(4) 0.00113(10)
O22 O 0.1762(3) 0.9261(14) 0.9323(4)
H12 H 0.1416 0.9160 0.9213
C23 C 0.1779(5) 0.9573(18) 0.9913(7)
H21 H 0.2834 0.9795 0.9393
O22_2 O 0.8238(3) 0.0739(14) 0.4323(4)
H12_2 H 0.8584 0.0840 0.4213
O23_2 O 0.8654(3) 0.0492(12) 0.5214(4)
C23_2 C 0.8221(5) 0.0427(18) 0.4913(7)
H21_2 H 0.7166 0.0205 0.4393
Ca5_2 Ca 0.96847(10) 0.0643(4) 0.50113(10)
P1_2 P 0.58516(13) 0.5625(5) 0.02588(14)
O3_2 O 0.6089(4) 0.5571(14) 0.0908(4)
H1_2 H 0.6197 0.6678 0.1008
O6_2 O 0.5013(4) 0.0805(13) 0.1004(4)
H4_2 H 0.5143 0.1809 0.1192
O8_2 O 0.8092(4) 0.4183(14) 0.0568(4)
H7_2 H 0.8431 0.4051 0.0694
C8_2 C 0.7025(5) 0.5040(18) 0.0062(6)
H15_2 H 0.7036 0.4674 0.0466
O31_2 O 0.6346(3) 0.0492(12) 0.0214(4)
P2_2 P 0.53443(16) 0.0816(5) 0.84265(16)
P3_2 P 0.59521(14) 0.9360(5) 0.46294(16)
O4_2 O 0.6493(4) 0.6973(16) 0.8016(4)
H2_2 H 0.6534 0.7385 0.7669
O5_2 O 0.7470(4) 0.6821(16) 0.7968(4)
O7_2 O 0.5223(4) 0.4454(13) 0.3901(4)
H5_2 H 0.5419 0.5245 0.3697
H6_2 H 0.4929 0.3857 0.3772
O9_2 O 0.8549(3) 0.4385(12) 0.9693(4)
O10_2 O 0.5659(4) 0.0864(14) 0.9016(4)
O11_2 O 0.4766(3) 0.1891(12) 0.8399(4)
O13_2 O 0.5839(4) 0.4134(13) 0.5870(4)
O14_2 O 0.5177(4) 0.5372(14) 0.6466(4)
O15_2 O 0.7606(4) 0.1811(17) 0.8003(4)
H9_2 H 0.7969 0.1887 0.8006
O16_2 O 0.7699(4) 0.3148(16) 0.7091(5)
O19_2 O 0.6168(4) 0.9226(13) 0.3974(4)
H10_2 H 0.5900 0.8797 0.3760
O20_2 O 0.7550(4) 0.8268(16) 0.6898(4)
H11_2 H 0.7505 0.8440 0.7262
O21_2 O 0.6579(4) 0.7943(14) 0.6864(4)
C1_2 C 0.6503(5) 0.5598(18) 0.9813(6)
C2_2 C 0.6482(5) 0.6079(17) 0.9214(6)
H13_2 H 0.6127 0.6450 0.9038
C3_2 C 0.6990(5) 0.6013(19) 0.8875(6)
C4_2 C 0.6995(6) 0.662(2) 0.8242(6)
C5_2 C 0.7515(5) 0.5500(17) 0.9136(5)
H14_2 H 0.7859 0.5491 0.8906
C6_2 C 0.7538(5) 0.5002(19) 0.9729(6)
C7_2 C 0.8104(5) 0.4483(18) 0.9989(7)
C9_2 C 0.5807(6) 0.181(2) 0.7858(6)
C10_2 C 0.5559(5) 0.264(2) 0.7360(6)
H16_2 H 0.5149 0.2705 0.7328
C11_2 C 0.5896(6) 0.337(2) 0.6915(6)
C12_2 C 0.5584(7) 0.431(2) 0.6384(6)
C13_2 C 0.6492(6) 0.3271(19) 0.6946(6)
H17_2 H 0.6725 0.3735 0.6631
C14_2 C 0.6755(5) 0.244(2) 0.7468(7)
C15_2 C 0.7404(5) 0.252(2) 0.7498(8)
C16_2 C 0.6406(5) 0.175(2) 0.7903(6)
H18_2 H 0.6577 0.1226 0.8249
C17_2 C 0.6607(5) 0.9459(19) 0.5047(7)
C18_2 C 0.6588(5) 0.9019(18) 0.5645(6)
H19_2 H 0.6224 0.8724 0.5818
C19_2 C 0.7080(5) 0.8990(19) 0.6001(6)
C20_2 C 0.7046(6) 0.834(2) 0.6632(6)
C21_2 C 0.7607(5) 0.9511(18) 0.5749(6)
H20_2 H 0.7946 0.9540 0.5987
C22_2 C 0.7644(5) 0.9992(19) 0.5148(6)
C24_2 C 0.7141(5) 0.9925(18) 0.4803(6)
Ca8_2 Ca 0.95707(10) 0.4368(4) 0.99093(11)
O27_2 O 0.6451(3) 0.4385(12) 0.4693(4)
H3_2 H 0.5063 0.9747 0.1235
O12_2 O 0.5260(4) 0.8639(12) 0.8287(4)
H8_2 H 0.5237 0.8485 0.7919
O11_3 O 0.0234(3) 0.1891(12) 0.3399(4)
O24_2 O 0.0487(3) 0.6119(12) 0.0148(4)
O26_2 O 0.0492(4) 0.2586(13) 0.0135(4)
O28_2 O 0.0600(3) 0.2346(12) 0.4809(4)
O30_2 O 0.0585(3) 0.8839(12) 0.4732(4)
O18 O 0.9415(3) 0.1161(12) 0.9732(4)
O22_3 O 0.6762(3) 0.0739(14) 0.9323(4)
H12_3 H 0.6416 0.0840 0.9213
C23_3 C 0.6779(5) 0.0427(18) 0.9913(7)
H21_3 H 0.7834 0.0205 0.9393
P1_3 P 0.91484(13) 0.5625(5) 0.52588(14)
P2_3 P 0.96557(16) 0.0816(5) 0.34265(16)
O1_2 O 0.9513(3) 0.3881(12) 0.5148(4)
O2 O 0.9508(4) 0.7414(13) 0.5135(4)
O3_3 O 0.8911(4) 0.5571(14) 0.5908(4)
H1_3 H 0.8803 0.6678 0.6008
O4_3 O 0.8507(4) 0.6973(16) 0.3016(4)
H2_3 H 0.8466 0.7385 0.2669
O5_3 O 0.7530(4) 0.6821(16) 0.2968(4)
O6_3 O 0.9987(4) 0.0805(13) 0.6004(4)
H4_3 H 0.9857 0.1809 0.6192
O8_3 O 0.6908(4) 0.4183(14) 0.5568(4)
H7_3 H 0.6569 0.4051 0.5694
O10_3 O 0.9341(4) 0.0864(14) 0.4016(4)
O13_3 O 0.9161(4) 0.4134(13) 0.0870(4)
O14_3 O 0.9823(4) 0.5372(14) 0.1466(4)
O15_3 O 0.7394(4) 0.1811(17) 0.3003(4)
H9_3 H 0.7031 0.1887 0.3006
O16_3 O 0.7301(4) 0.3148(16) 0.2091(5)
O20_3 O 0.7450(4) 0.8268(16) 0.1898(4)
H11_3 H 0.7495 0.8440 0.2262
O21_3 O 0.8421(4) 0.7943(14) 0.1864(4)
C1_3 C 0.8497(5) 0.5598(18) 0.4813(6)
C2_3 C 0.8518(5) 0.6079(17) 0.4214(6)
H13_3 H 0.8873 0.6450 0.4038
C3_3 C 0.8010(5) 0.6013(19) 0.3875(6)
C4_3 C 0.8005(6) 0.662(2) 0.3242(6)
C5_3 C 0.7485(5) 0.5500(17) 0.4136(5)
H14_3 H 0.7141 0.5491 0.3906
C6_3 C 0.7462(5) 0.5002(19) 0.4729(6)
C7_3 C 0.6896(5) 0.4483(18) 0.4989(7)
C8_3 C 0.7975(5) 0.5040(18) 0.5062(6)
H15_3 H 0.7964 0.4674 0.5466
C9_3 C 0.9193(6) 0.181(2) 0.2858(6)
C10_3 C 0.9441(5) 0.264(2) 0.2360(6)
H16_3 H 0.9851 0.2705 0.2328
C11_3 C 0.9104(6) 0.337(2) 0.1915(6)
C12_3 C 0.9416(7) 0.431(2) 0.1384(6)
C13_3 C 0.8508(6) 0.3271(19) 0.1946(6)
H17_3 H 0.8275 0.3735 0.1631
C14_3 C 0.8245(5) 0.244(2) 0.2468(7)
C15_3 C 0.7596(5) 0.252(2) 0.2498(8)
C16_3 C 0.8594(5) 0.175(2) 0.2903(6)
H18_3 H 0.8423 0.1226 0.3249
C17_3 C 0.8393(5) 0.9459(19) 0.0047(7)
C18_3 C 0.8412(5) 0.9019(18) 0.0645(6)
H19_3 H 0.8776 0.8724 0.0818
C19_3 C 0.7920(5) 0.8990(19) 0.1001(6)
C20_3 C 0.7954(6) 0.834(2) 0.1632(6)
C21_3 C 0.7393(5) 0.9511(18) 0.0749(6)
H20_3 H 0.7054 0.9540 0.0987
C22_3 C 0.7356(5) 0.9992(19) 0.0148(6)
P3_3 P 0.90479(14) 0.9360(5) 0.96294(16)
O7_3 O 0.9777(4) 0.4454(13) 0.8901(4)
H5_3 H 0.9581 0.5245 0.8697
O17_2 O 0.9400(3) 0.7654(12) 0.9809(4)
O19_3 O 0.8832(4) 0.9226(13) 0.8974(4)
H10_3 H 0.9100 0.8797 0.8760
C24_3 C 0.7859(5) 0.9925(18) 0.9803(6)
H3_3 H 0.9937 0.9747 0.6235
O12_3 O 0.9740(4) 0.8639(12) 0.3287(4)
H8_3 H 0.9763 0.8485 0.2919
H3_4 H 0.0063 0.0253 0.1235
P1_4 P 0.08516(13) 0.4375(5) 0.02588(14)
O3_4 O 0.1089(4) 0.4429(14) 0.0908(4)
H1_4 H 0.1197 0.3322 0.1008
O6_4 O 0.0013(4) 0.9195(13) 0.1004(4)
H4_4 H 0.0143 0.8191 0.1192
O8_4 O 0.3092(4) 0.5817(14) 0.0568(4)
H7_4 H 0.3431 0.5949 0.0694
C8_4 C 0.2025(5) 0.4960(18) 0.0062(6)
H15_4 H 0.2036 0.5326 0.0466
P2_4 P 0.03443(16) 0.9184(5) 0.84265(16)
P3_4 P 0.09521(14) 0.0640(5) 0.46294(16)
O4_4 O 0.1493(4) 0.3027(16) 0.8016(4)
H2_4 H 0.1534 0.2615 0.7669
O5_4 O 0.2470(4) 0.3179(16) 0.7968(4)
O7_4 O 0.0223(4) 0.5546(13) 0.3901(4)
H5_4 H 0.0419 0.4755 0.3697
O10_4 O 0.0659(4) 0.9136(14) 0.9016(4)
O13_4 O 0.0839(4) 0.5866(13) 0.5870(4)
O14_4 O 0.0177(4) 0.4628(14) 0.6466(4)
O15_4 O 0.2606(4) 0.8189(17) 0.8003(4)
H9_4 H 0.2969 0.8113 0.8006
O16_4 O 0.2699(4) 0.6852(16) 0.7091(5)
O19_4 O 0.1168(4) 0.0774(13) 0.3974(4)
H10_4 H 0.0900 0.1203 0.3760
O20_4 O 0.2550(4) 0.1732(16) 0.6898(4)
H11_4 H 0.2505 0.1560 0.7262
O21_4 O 0.1579(4) 0.2057(14) 0.6864(4)
C1_4 C 0.1503(5) 0.4402(18) 0.9813(6)
C2_4 C 0.1482(5) 0.3921(17) 0.9214(6)
H13_4 H 0.1127 0.3550 0.9038
C3_4 C 0.1990(5) 0.3987(19) 0.8875(6)
C4_4 C 0.1995(6) 0.338(2) 0.8242(6)
C5_4 C 0.2515(5) 0.4500(17) 0.9136(5)
H14_4 H 0.2859 0.4509 0.8906
C6_4 C 0.2538(5) 0.4998(19) 0.9729(6)
C7_4 C 0.3104(5) 0.5517(18) 0.9989(7)
C9_4 C 0.0807(6) 0.819(2) 0.7858(6)
C10_4 C 0.0559(5) 0.736(2) 0.7360(6)
H16_4 H 0.0149 0.7295 0.7328
C11_4 C 0.0896(6) 0.663(2) 0.6915(6)
C12_4 C 0.0584(7) 0.569(2) 0.6384(6)
C13_4 C 0.1492(6) 0.6729(19) 0.6946(6)
H17_4 H 0.1725 0.6265 0.6631
C14_4 C 0.1755(5) 0.756(2) 0.7468(7)
C15_4 C 0.2404(5) 0.748(2) 0.7498(8)
C16_4 C 0.1406(5) 0.825(2) 0.7903(6)
H18_4 H 0.1577 0.8774 0.8249
C17_4 C 0.1607(5) 0.0541(19) 0.5047(7)
C18_4 C 0.1588(5) 0.0981(18) 0.5645(6)
H19_4 H 0.1224 0.1276 0.5818
C19_4 C 0.2080(5) 0.1010(19) 0.6001(6)
C20_4 C 0.2046(6) 0.166(2) 0.6632(6)
C21_4 C 0.2607(5) 0.0489(18) 0.5749(6)
H20_4 H 0.2946 0.0460 0.5987
C22_4 C 0.2644(5) 0.0008(19) 0.5148(6)
C24_4 C 0.2141(5) 0.0075(18) 0.4803(6)
O22_4 O 0.3238(3) 0.9261(14) 0.4323(4)
H12_4 H 0.3584 0.9160 0.4213
C23_4 C 0.3221(5) 0.9573(18) 0.4913(7)
H21_4 H 0.2166 0.9795 0.4393
H6_3 H 0.9929 0.6143 0.3772
O11_4 O 0.9766(3) 0.8109(12) 0.8399(4)
H6_4 H 0.0071 0.3857 0.8772
O12_4 O 0.0260(4) 0.1361(12) 0.8287(4)
H8_4 H 0.0237 0.1515 0.7919
loop_
_geom_bond_atom_site_label_1
_geom_bond_atom_site_label_2
_geom_bond_site_symmetry_1
_geom_bond_site_symmetry_2
H8 O12 1_555 1_555
Ca1 O1 1_555 1_555
P1 O1 1_555 1_555
P2 O10 1_555 1_555
O1 Ca7 1_555 1_555
O25 P1 1_555 1_555
O3 P1 1_555 1_555
H1 O3 1_555 1_555
O4 H2 1_555 1_555
O5 C4 1_555 1_555
O6 Ca1 1_555 1_555
H4 O6 1_555 1_555
O8 H7 1_555 1_555
O9 C7 1_555 1_555
O10 Ca1 1_555 1_555
O11 P2 1_555 1_555
O14 C12 1_555 1_555
O15 H9 1_555 1_555
O16 C15 1_555 1_555
O20 H11 1_555 1_555
O21 C20 1_555 1_555
C1 P1 1_555 1_555
C2 C1 1_555 1_555
H13 C2 1_555 1_555
C3 C2 1_555 1_555
C4 O4 1_555 1_555
C5 C3 1_555 1_555
H14 C5 1_555 1_555
C6 C5 1_555 1_555
C7 O8 1_555 1_555
C8 C1 1_555 1_555
H15 C8 1_555 1_555
C9 P2 1_555 1_555
C10 C9 1_555 1_555
H16 C10 1_555 1_555
C11 C10 1_555 1_555
C12 O13 1_555 1_555
C13 C11 1_555 1_555
H17 C13 1_555 1_555
C14 C13 1_555 1_555
C15 O15 1_555 1_555
C16 C9 1_555 1_555
H18 C16 1_555 1_555
C18 C17 1_555 1_555
H19 C18 1_555 1_555
C19 C18 1_555 1_555
C20 O20 1_555 1_555
C21 C19 1_555 1_555
H20 C21 1_555 1_555
C22 C21 1_555 1_555
Ca7 O25 1_555 1_555
Ca8 O9 1_555 1_555
O28 Ca1 1_555 1_555
O31 Ca1 1_555 1_555
C3 C4 1_555 1_555
C6 C7 1_555 1_555
C6 C8 1_555 1_555
C11 C12 1_555 1_555
C14 C15 1_555 1_555
C14 C16 1_555 1_555
C19 C20 1_555 1_555
Ca4 O24 1_555 1_555
Ca7 O28 1_555 1_555
Ca2 O7 1_555 1_555
P3 O17 1_555 1_555
O7 H5 1_555 1_555
H6 O7 1_555 1_555
O17 Ca2 1_555 1_555
O19 P3 1_555 1_555
H10 O19 1_555 1_555
O27 Ca2 1_555 1_555
O29 Ca2 1_555 1_555
Ca5 O23 1_555 1_555
O22 H12 1_555 1_555
C23 O22 1_555 1_555
O22_2 H12_2 1_555 1_555
O23_2 C23_2 1_555 1_555
C23_2 O22_2 1_555 1_555
Ca5_2 O23_2 1_555 1_555
Ca7 O30 1_555 1_555
P1_2 O24 1_555 1_555
O26 P1_2 1_555 1_555
O3_2 P1_2 1_555 1_555
H1_2 O3_2 1_555 1_555
O6_2 Ca4 1_555 1_555
H4_2 O6_2 1_555 1_555
O8_2 H7_2 1_555 1_555
H15_2 C8_2 1_555 1_555
O31_2 Ca4 1_555 1_555
Ca7 O7_2 1_555 1_555
P2_2 O10_2 1_555 1_555
P3_2 O28 1_555 1_555
O4_2 H2_2 1_555 1_555
O5_2 C4_2 1_555 1_555
O7_2 H5_2 1_555 1_555
H6_2 O7_2 1_555 1_555
O9_2 C7_2 1_555 1_555
O11_2 P2_2 1_555 1_555
O13_2 Ca7 1_555 1_555
O14_2 C12_2 1_555 1_555
O15_2 H9_2 1_555 1_555
O16_2 C15_2 1_555 1_555
O19_2 P3_2 1_555 1_555
H10_2 O19_2 1_555 1_555
O20_2 H11_2 1_555 1_555
O21_2 C20_2 1_555 1_555
C2_2 C1_2 1_555 1_555
H13_2 C2_2 1_555 1_555
C3_2 C2_2 1_555 1_555
C4_2 O4_2 1_555 1_555
C5_2 C3_2 1_555 1_555
H14_2 C5_2 1_555 1_555
C6_2 C5_2 1_555 1_555
C9_2 P2_2 1_555 1_555
C10_2 C9_2 1_555 1_555
H16_2 C10_2 1_555 1_555
C11_2 C10_2 1_555 1_555
C12_2 O13_2 1_555 1_555
C13_2 C11_2 1_555 1_555
H17_2 C13_2 1_555 1_555
C14_2 C13_2 1_555 1_555
C15_2 O15_2 1_555 1_555
C16_2 C9_2 1_555 1_555
H18_2 C16_2 1_555 1_555
C17_2 P3_2 1_555 1_555
C18_2 C17_2 1_555 1_555
H19_2 C18_2 1_555 1_555
C19_2 C18_2 1_555 1_555
C20_2 O20_2 1_555 1_555
C21_2 C19_2 1_555 1_555
H20_2 C21_2 1_555 1_555
C22_2 C21_2 1_555 1_555
C24_2 C17_2 1_555 1_555
Ca8_2 O9_2 1_555 1_555
O27_2 Ca7 1_555 1_555
C3_2 C4_2 1_555 1_555
C6_2 C7_2 1_555 1_555
C11_2 C12_2 1_555 1_555
C14_2 C15_2 1_555 1_555
C14_2 C16_2 1_555 1_555
C19_2 C20_2 1_555 1_555
C22_2 C24_2 1_555 1_555
H8_2 O12_2 1_555 1_555
Ca5 O24_2 1_555 1_555
Ca8 O28_2 1_555 1_555
O22_3 H12_3 1_555 1_555
C23_3 O22_3 1_555 1_555
Ca8_2 O18 1_555 1_555
Ca5_2 O1_2 1_555 1_555
P1_3 O1_2 1_555 1_555
P2_3 O10_3 1_555 1_555
O2 P1_3 1_555 1_555
O3_3 P1_3 1_555 1_555
H1_3 O3_3 1_555 1_555
O4_3 H2_3 1_555 1_555
O5_3 C4_3 1_555 1_555
O6_3 Ca5_2 1_555 1_555
H4_3 O6_3 1_555 1_555
O8_3 H7_3 1_555 1_555
O27_2 C7_3 1_555 1_555
O10_3 Ca5_2 1_555 1_555
O14_3 C12_3 1_555 1_555
O15_3 H9_3 1_555 1_555
O16_3 C15_3 1_555 1_555
O20_3 H11_3 1_555 1_555
O21_3 C20_3 1_555 1_555
C1_3 P1_3 1_555 1_555
C2_3 C1_3 1_555 1_555
H13_3 C2_3 1_555 1_555
C3_3 C2_3 1_555 1_555
C4_3 O4_3 1_555 1_555
C5_3 C3_3 1_555 1_555
H14_3 C5_3 1_555 1_555
C6_3 C5_3 1_555 1_555
C7_3 O8_3 1_555 1_555
C8_3 C1_3 1_555 1_555
H15_3 C8_3 1_555 1_555
C9_3 P2_3 1_555 1_555
C10_3 C9_3 1_555 1_555
H16_3 C10_3 1_555 1_555
C11_3 C10_3 1_555 1_555
C12_3 O13_3 1_555 1_555
C13_3 C11_3 1_555 1_555
H17_3 C13_3 1_555 1_555
C14_3 C13_3 1_555 1_555
C15_3 O15_3 1_555 1_555
C16_3 C9_3 1_555 1_555
H18_3 C16_3 1_555 1_555
C18_3 C17_3 1_555 1_555
H19_3 C18_3 1_555 1_555
C19_3 C18_3 1_555 1_555
C20_3 O20_3 1_555 1_555
C21_3 C19_3 1_555 1_555
H20_3 C21_3 1_555 1_555
C22_3 C21_3 1_555 1_555
C3_3 C4_3 1_555 1_555
C6_3 C7_3 1_555 1_555
C6_3 C8_3 1_555 1_555
C11_3 C12_3 1_555 1_555
C14_3 C15_3 1_555 1_555
C14_3 C16_3 1_555 1_555
C19_3 C20_3 1_555 1_555
Ca8_2 O7_3 1_555 1_555
P3_3 O17_2 1_555 1_555
O7_3 H5_3 1_555 1_555
O17_2 Ca8_2 1_555 1_555
O19_3 P3_3 1_555 1_555
H10_3 O19_3 1_555 1_555
H8_3 O12_3 1_555 1_555
P1_4 O24_2 1_555 1_555
O26_2 P1_4 1_555 1_555
O3_4 P1_4 1_555 1_555
H1_4 O3_4 1_555 1_555
O6_4 Ca5 1_555 1_555
H4_4 O6_4 1_555 1_555
O8_4 H7_4 1_555 1_555
H15_4 C8_4 1_555 1_555
Ca8 O7_4 1_555 1_555
P2_4 O10_4 1_555 1_555
P3_4 O28_2 1_555 1_555
O4_4 H2_4 1_555 1_555
O5_4 C4_4 1_555 1_555
O7_4 H5_4 1_555 1_555
O27 C7_4 1_555 1_555
O13_4 Ca8 1_555 1_555
O14_4 C12_4 1_555 1_555
O15_4 H9_4 1_555 1_555
O16_4 C15_4 1_555 1_555
O19_4 P3_4 1_555 1_555
H10_4 O19_4 1_555 1_555
O20_4 H11_4 1_555 1_555
O21_4 C20_4 1_555 1_555
C2_4 C1_4 1_555 1_555
H13_4 C2_4 1_555 1_555
C3_4 C2_4 1_555 1_555
C4_4 O4_4 1_555 1_555
C5_4 C3_4 1_555 1_555
H14_4 C5_4 1_555 1_555
C6_4 C5_4 1_555 1_555
C9_4 P2_4 1_555 1_555
C10_4 C9_4 1_555 1_555
H16_4 C10_4 1_555 1_555
C11_4 C10_4 1_555 1_555
C12_4 O13_4 1_555 1_555
C13_4 C11_4 1_555 1_555
H17_4 C13_4 1_555 1_555
C14_4 C13_4 1_555 1_555
C15_4 O15_4 1_555 1_555
C16_4 C9_4 1_555 1_555
H18_4 C16_4 1_555 1_555
C17_4 P3_4 1_555 1_555
C18_4 C17_4 1_555 1_555
H19_4 C18_4 1_555 1_555
C19_4 C18_4 1_555 1_555
C20_4 O20_4 1_555 1_555
C21_4 C19_4 1_555 1_555
H20_4 C21_4 1_555 1_555
C22_4 C21_4 1_555 1_555
C24_4 C17_4 1_555 1_555
O30_2 Ca8 1_555 1_555
C3_4 C4_4 1_555 1_555
C6_4 C7_4 1_555 1_555
C11_4 C12_4 1_555 1_555
C14_4 C15_4 1_555 1_555
C14_4 C16_4 1_555 1_555
C19_4 C20_4 1_555 1_555
C22_4 C24_4 1_555 1_555
O22_4 H12_4 1_555 1_555
O31 C23_4 1_555 1_555
C23_4 O22_4 1_555 1_555
H8_4 O12_4 1_555 1_555

#END
