
###############################################################################
#
# This file contains modified crystal structure data generated from the
# MOF subset of the Cambridge Structural Database (CSD) v543 
# hosted by the Cambridge Crystallographic Data Centre (CCDC).
#
# This work is licensed under the Creative Commons
# Attribution-NonCommercial-ShareAlike 4.0 International License.
# To view a copy of this license, visit
# http://creativecommons.org/licenses/by-nc-sa/4.0/
# or send a letter to
# Creative Commons, PO Box 1866, Mountain View, CA 94042, USA.
#
# CIF created using the CSD Python API on 29 September 2022
# The structure has been converted into the P1 space group
# The structure has a 3D framework
# The original CSD entry ROBWAH is in the orthorhombic crystal system
# The framework has been calculated to contain at least 10.0% void space
# The void calculation uses a probe of radius 1.32A, grid spacing 0.4
# The framework is charged, counterions have been retained in the structure
#
###############################################################################

data_ROBWAH
_chemical_formula_moiety         '(C104 H80 Ag8 N26 O12 S8 4+)n'
_symmetry_cell_setting           triclinic
_symmetry_space_group_name_H-M   'P 1'
_symmetry_Int_Tables_number      1
_space_group_name_Hall           'P 1'
loop_
_symmetry_equiv_pos_site_id
_symmetry_equiv_pos_as_xyz
1 x,y,z
_cell_length_a                   23.458(4)
_cell_length_b                   7.5546(14)
_cell_length_c                   16.518(3)
_cell_angle_alpha                90
_cell_angle_beta                 90
_cell_angle_gamma                90
_cell_volume                     2927.25
loop_
_atom_site_label
_atom_site_type_symbol
_atom_site_fract_x
_atom_site_fract_y
_atom_site_fract_z
O4 O 0.0285(5) 0.7071(16) 0.6195(6)
H18 H 0.2933 0.0409 0.0071
H19 H 0.3879 0.0780 0.0206
N3 N 0.1325(3) 0.0054(13) 0.4412(5)
Ag5 Ag 0.14263(3) 0.11973(14) 0.56512(5)
Ag6 Ag 0.64263(3) 0.38027(14) 0.06512(5)
S3 S 0.77768(12) 0.3377(5) 0.04066(14)
C27 C 0.7601(4) 0.2522(13) 0.1358(6)
C28 C 0.6899(5) 0.1828(16) 0.2204(6)
H21 H 0.6514 0.1673 0.2318
C29 C 0.7282(5) 0.1346(18) 0.2778(7)
H22 H 0.7164 0.0936 0.3282
C30 C 0.7845(4) 0.1484(14) 0.2590(6)
C31 C 0.8326(4) 0.1035(16) 0.3159(6)
C32 C 0.8894(5) 0.1483(16) 0.2949(7)
H23 H 0.8975 0.2009 0.2453
C33 C 0.9316(5) 0.114(2) 0.3478(7)
H24 H 0.9689 0.1444 0.3349
C34 C 0.9204(4) 0.0363(16) 0.4183(7)
H25 H 0.9505 0.0102 0.4529
C35 C 0.8254(5) 0.0308(15) 0.3887(6)
H26 H 0.7884 0.0032 0.4043
C36 C 0.8527(5) 0.3103(17) 0.0419(6)
H27 H 0.8699 0.3930 0.0796
H28 H 0.8625 0.1910 0.0586
N8 N 0.7037(3) 0.2502(12) 0.1494(5)
N11 N 0.8011(3) 0.2138(11) 0.1870(5)
Ag1 Ag 0.5000 0.0000 0.93341(9)
C24 C 0.3172(5) 0.0156(16) 0.9636(7)
C25 C 0.3738(5) 0.0316(15) 0.9724(7)
N7 N 0.0205(8) 0.238(2) 0.6112(11)
O2 O 0.0417(5) 0.2388(15) 0.5456(7)
O3 O 0.0498(5) 0.2085(15) 0.6698(6)
S4 S 0.84601(14) 0.2089(5) 0.65794(16)
C37 C 0.8746(5) 0.3460(18) 0.9543(8)
C38 C 0.8648(5) 0.2368(18) 0.8928(7)
H29 H 0.8433 0.1350 0.9017
C39 C 0.8858(5) 0.2710(19) 0.8152(6)
C40 C 0.9176(5) 0.4084(19) 0.8004(7)
H30 H 0.9349 0.4204 0.7500
C41 C 0.9262(6) 0.5397(19) 0.8602(9)
H31 H 0.9456 0.6438 0.8482
C42 C 0.9055(5) 0.510(2) 0.9356(8)
H32 H 0.9110 0.5943 0.9759
C43 C 0.8760(6) 0.1293(18) 0.7514(7)
H33 H 0.8508 0.0401 0.7737
H34 H 0.9122 0.0725 0.7397
C44 C 0.7714(5) 0.2156(17) 0.6767(7)
C45 C 0.6870(6) 0.2840(16) 0.6267(6)
H35 H 0.6644 0.3255 0.5845
C46 C 0.6605(5) 0.2237(15) 0.6912(6)
H36 H 0.6209 0.2234 0.6945
C47 C 0.6947(5) 0.1590(15) 0.7555(7)
C48 C 0.6710(4) 0.0879(14) 0.8319(6)
C49 C 0.7064(5) 0.0381(15) 0.8908(6)
H37 H 0.7456 0.0393 0.8832
C52 C 0.6129(5) 0.0724(18) 0.8478(7)
H40 H 0.5882 0.1054 0.8064
N9 N 0.2037(3) 0.2498(12) 0.6494(5)
N15 N 0.7426(5) 0.2911(14) 0.6161(6)
N16 N 0.7505(4) 0.1493(12) 0.7471(5)
N17 N 0.5894(4) 0.0157(14) 0.9154(6)
S1 S 0.22232(12) 0.6623(5) 0.04066(14)
C1 C 0.2399(4) 0.7478(13) 0.1358(6)
C2 C 0.3101(5) 0.8172(16) 0.2204(6)
H1 H 0.3486 0.8327 0.2318
C3 C 0.2718(5) 0.8654(18) 0.2778(7)
H2 H 0.2836 0.9064 0.3282
C4 C 0.2155(4) 0.8516(14) 0.2590(6)
C5 C 0.1674(4) 0.8965(16) 0.3159(6)
C6 C 0.1106(5) 0.8517(16) 0.2949(7)
H3 H 0.1025 0.7991 0.2453
C7 C 0.0684(5) 0.886(2) 0.3478(7)
H4 H 0.0311 0.8556 0.3349
C8 C 0.0796(4) 0.9637(16) 0.4183(7)
H5 H 0.0495 0.9898 0.4529
C9 C 0.1746(5) 0.9692(15) 0.3887(6)
H6 H 0.2116 0.9968 0.4043
C10 C 0.1473(5) 0.6897(17) 0.0419(6)
H7 H 0.1301 0.6070 0.0796
H8 H 0.1375 0.8090 0.0586
N1 N 0.2963(3) 0.7498(12) 0.1494(5)
N2 N 0.1989(3) 0.7862(11) 0.1870(5)
Ag4 Ag 0.35737(3) 0.61973(14) 0.06512(5)
Ag7 Ag 0.85737(3) 0.88027(14) 0.56512(5)
H38 H 0.7067 0.9591 0.0071
H39 H 0.6121 0.9220 0.0206
N12 N 0.8675(3) 0.9946(13) 0.4412(5)
Ag1_2 Ag 0.5000 1.0000 0.93341(9)
S2 S 0.15399(14) 0.7911(5) 0.65794(16)
C11 C 0.1254(5) 0.6540(18) 0.9543(8)
C12 C 0.1352(5) 0.7632(18) 0.8928(7)
H9 H 0.1567 0.8650 0.9017
C13 C 0.1142(5) 0.7290(19) 0.8152(6)
C14 C 0.0824(5) 0.5916(19) 0.8004(7)
H10 H 0.0651 0.5796 0.7500
C15 C 0.0738(6) 0.4603(19) 0.8602(9)
H11 H 0.0544 0.3562 0.8482
C16 C 0.0945(5) 0.490(2) 0.9356(8)
H12 H 0.0890 0.4057 0.9759
C17 C 0.1240(6) 0.8707(18) 0.7514(7)
H13 H 0.1492 0.9599 0.7737
H14 H 0.0878 0.9275 0.7397
C18 C 0.2286(5) 0.7844(17) 0.6767(7)
C19 C 0.3130(6) 0.7160(16) 0.6267(6)
H15 H 0.3356 0.6745 0.5845
C20 C 0.3395(5) 0.7763(15) 0.6912(6)
H16 H 0.3791 0.7766 0.6945
C21 C 0.3053(5) 0.8410(15) 0.7555(7)
C22 C 0.3290(4) 0.9121(14) 0.8319(6)
C23 C 0.2936(5) 0.9619(15) 0.8908(6)
H17 H 0.2544 0.9607 0.8832
C26 C 0.3871(5) 0.9276(18) 0.8478(7)
H20 H 0.4118 0.8946 0.8064
N4 N 0.2574(5) 0.7089(14) 0.6161(6)
N5 N 0.2495(4) 0.8507(12) 0.7471(5)
N6 N 0.4106(4) 0.9843(14) 0.9154(6)
C50 C 0.6828(5) 0.9844(16) 0.9636(7)
C51 C 0.6262(5) 0.9684(15) 0.9724(7)
N10 N 0.7963(3) 0.7502(12) 0.6494(5)
N18 N 0.9795(8) 0.762(2) 0.6112(11)
O5 O 0.9583(5) 0.7612(15) 0.5456(7)
O6 O 0.9502(5) 0.7915(15) 0.6698(6)
Ag1_3 Ag 0.0000 0.5000 0.43341(9)
S3_2 S 0.27768(12) 0.1623(5) 0.54066(14)
S4_2 S 0.34601(14) 0.2911(5) 0.15794(16)
C27_2 C 0.2601(4) 0.2478(13) 0.6358(6)
C28_2 C 0.1899(5) 0.3172(16) 0.7204(6)
H21_2 H 0.1514 0.3327 0.7318
C29_2 C 0.2282(5) 0.3654(18) 0.7778(7)
H22_2 H 0.2164 0.4064 0.8282
C30_2 C 0.2845(4) 0.3516(14) 0.7590(6)
C31_2 C 0.3326(4) 0.3965(16) 0.8159(6)
C32_2 C 0.3894(5) 0.3517(16) 0.7949(7)
H23_2 H 0.3975 0.2991 0.7453
C33_2 C 0.4316(5) 0.386(2) 0.8478(7)
H24_2 H 0.4689 0.3556 0.8349
C34_2 C 0.4204(4) 0.4637(16) 0.9183(7)
H25_2 H 0.4505 0.4898 0.9529
C35_2 C 0.3254(5) 0.4692(15) 0.8887(6)
H26_2 H 0.2884 0.4968 0.9043
C36_2 C 0.3527(5) 0.1897(17) 0.5419(6)
H27_2 H 0.3699 0.1070 0.5796
H28_2 H 0.3625 0.3090 0.5586
C37_2 C 0.3746(5) 0.1540(18) 0.4543(8)
C38_2 C 0.3648(5) 0.2632(18) 0.3928(7)
H29_2 H 0.3433 0.3650 0.4017
C39_2 C 0.3858(5) 0.2290(19) 0.3152(6)
C40_2 C 0.4176(5) 0.0916(19) 0.3004(7)
H30_2 H 0.4349 0.0796 0.2500
C43_2 C 0.3760(6) 0.3707(18) 0.2514(7)
H33_2 H 0.3508 0.4599 0.2737
H34_2 H 0.4122 0.4275 0.2397
C44_2 C 0.2714(5) 0.2844(17) 0.1767(7)
C45_2 C 0.1870(6) 0.2160(16) 0.1267(6)
H35_2 H 0.1644 0.1745 0.0845
C46_2 C 0.1605(5) 0.2763(15) 0.1912(6)
H36_2 H 0.1209 0.2766 0.1945
C47_2 C 0.1947(5) 0.3410(15) 0.2555(7)
C48_2 C 0.1710(4) 0.4121(14) 0.3319(6)
C49_2 C 0.2064(5) 0.4619(15) 0.3908(6)
H37_2 H 0.2456 0.4607 0.3832
C50_2 C 0.1828(5) 0.5156(16) 0.4636(7)
H38_2 H 0.2067 0.5409 0.5071
C51_2 C 0.1262(5) 0.5316(15) 0.4724(7)
H39_2 H 0.1121 0.5780 0.5206
C52_2 C 0.1129(5) 0.4276(18) 0.3478(7)
H40_2 H 0.0882 0.3946 0.3064
N11_2 N 0.3011(3) 0.2862(11) 0.6870(5)
N12_2 N 0.3675(3) 0.5054(13) 0.9412(5)
N15_2 N 0.2426(5) 0.2089(14) 0.1161(6)
N16_2 N 0.2505(4) 0.3507(12) 0.2471(5)
N17_2 N 0.0894(4) 0.4843(14) 0.4154(6)
N18_2 N 0.4795(8) 0.738(2) 0.1112(11)
O4_2 O 0.5285(5) 0.7929(16) 0.1195(6)
O5_2 O 0.4583(5) 0.7388(15) 0.0456(7)
O6_2 O 0.4502(5) 0.7085(15) 0.1698(6)
Ag1_4 Ag 1.0000 0.5000 0.43341(9)
S1_2 S 0.72232(12) 0.8377(5) 0.54066(14)
S2_2 S 0.65399(14) 0.7089(5) 0.15794(16)
C1_2 C 0.7399(4) 0.7522(13) 0.6358(6)
C2_2 C 0.8101(5) 0.6828(16) 0.7204(6)
H1_2 H 0.8486 0.6673 0.7318
C3_2 C 0.7718(5) 0.6346(18) 0.7778(7)
H2_2 H 0.7836 0.5936 0.8282
C4_2 C 0.7155(4) 0.6484(14) 0.7590(6)
C5_2 C 0.6674(4) 0.6035(16) 0.8159(6)
C6_2 C 0.6106(5) 0.6483(16) 0.7949(7)
H3_2 H 0.6025 0.7009 0.7453
C7_2 C 0.5684(5) 0.614(2) 0.8478(7)
H4_2 H 0.5311 0.6444 0.8349
C8_2 C 0.5796(4) 0.5363(16) 0.9183(7)
H5_2 H 0.5495 0.5102 0.9529
C9_2 C 0.6746(5) 0.5308(15) 0.8887(6)
H6_2 H 0.7116 0.5032 0.9043
C10_2 C 0.6473(5) 0.8103(17) 0.5419(6)
H7_2 H 0.6301 0.8930 0.5796
H8_2 H 0.6375 0.6910 0.5586
C11_2 C 0.6254(5) 0.8460(18) 0.4543(8)
C12_2 C 0.6352(5) 0.7368(18) 0.3928(7)
H9_2 H 0.6567 0.6350 0.4017
C13_2 C 0.6142(5) 0.7710(19) 0.3152(6)
C14_2 C 0.5824(5) 0.9084(19) 0.3004(7)
H10_2 H 0.5651 0.9204 0.2500
C17_2 C 0.6240(6) 0.6293(18) 0.2514(7)
H13_2 H 0.6492 0.5401 0.2737
H14_2 H 0.5878 0.5725 0.2397
C18_2 C 0.7286(5) 0.7156(17) 0.1767(7)
C19_2 C 0.8130(6) 0.7840(16) 0.1267(6)
H15_2 H 0.8356 0.8255 0.0845
C20_2 C 0.8395(5) 0.7237(15) 0.1912(6)
H16_2 H 0.8791 0.7234 0.1945
C21_2 C 0.8053(5) 0.6590(15) 0.2555(7)
C22_2 C 0.8290(4) 0.5879(14) 0.3319(6)
C23_2 C 0.7936(5) 0.5381(15) 0.3908(6)
H17_2 H 0.7544 0.5393 0.3832
C24_2 C 0.8172(5) 0.4844(16) 0.4636(7)
H18_2 H 0.7933 0.4591 0.5071
C25_2 C 0.8738(5) 0.4684(15) 0.4724(7)
H19_2 H 0.8879 0.4220 0.5206
C26_2 C 0.8871(5) 0.5724(18) 0.3478(7)
H20_2 H 0.9118 0.6054 0.3064
N2_2 N 0.6989(3) 0.7138(11) 0.6870(5)
N3_2 N 0.6325(3) 0.4946(13) 0.9412(5)
N4_2 N 0.7574(5) 0.7911(14) 0.1161(6)
N5_2 N 0.7495(4) 0.6493(12) 0.2471(5)
N6_2 N 0.9106(4) 0.5157(14) 0.4154(6)
N7_2 N 0.5205(8) 0.262(2) 0.1112(11)
O1 O 0.4715(5) 0.2071(16) 0.1195(6)
O2_2 O 0.5417(5) 0.2612(15) 0.0456(7)
O3_2 O 0.5498(5) 0.2915(15) 0.1698(6)
O1_2 O 0.9715(5) 0.2929(16) 0.6195(6)
C41_2 C 0.4262(6) 0.9603(19) 0.3602(9)
H31_2 H 0.4456 0.8562 0.3482
C42_2 C 0.4055(5) 0.990(2) 0.4356(8)
H32_2 H 0.4110 0.9057 0.4759
C15_2 C 0.5738(6) 0.0397(19) 0.3602(9)
H11_2 H 0.5544 0.1438 0.3482
C16_2 C 0.5945(5) 0.010(2) 0.4356(8)
H12_2 H 0.5890 0.0943 0.4759
loop_
_geom_bond_atom_site_label_1
_geom_bond_atom_site_label_2
_geom_bond_site_symmetry_1
_geom_bond_site_symmetry_2
Ag5 N3 1_555 1_555
Ag6 N8 1_555 1_555
S3 C27 1_555 1_555
C27 N8 1_555 1_555
C28 H21 1_555 1_555
C29 C28 1_555 1_555
H22 C29 1_555 1_555
C30 C29 1_555 1_555
C31 C30 1_555 1_555
C32 C31 1_555 1_555
H23 C32 1_555 1_555
C33 C32 1_555 1_555
H24 C33 1_555 1_555
C34 C33 1_555 1_555
H25 C34 1_555 1_555
C35 C31 1_555 1_555
H26 C35 1_555 1_555
C36 S3 1_555 1_555
H27 C36 1_555 1_555
H28 C36 1_555 1_555
N8 C28 1_555 1_555
N11 C27 1_555 1_555
C30 N11 1_555 1_555
C25 C24 1_555 1_555
O2 Ag5 1_555 1_555
O3 N7 1_555 1_555
S4 C43 1_555 1_555
C38 C37 1_555 1_555
H29 C38 1_555 1_555
C39 C38 1_555 1_555
C40 C39 1_555 1_555
H30 C40 1_555 1_555
C41 C40 1_555 1_555
H31 C41 1_555 1_555
C42 C37 1_555 1_555
H32 C42 1_555 1_555
C43 C39 1_555 1_555
H33 C43 1_555 1_555
H34 C43 1_555 1_555
C44 S4 1_555 1_555
C45 H35 1_555 1_555
C46 C45 1_555 1_555
H36 C46 1_555 1_555
C47 C46 1_555 1_555
C48 C47 1_555 1_555
C49 C48 1_555 1_555
H37 C49 1_555 1_555
C52 C48 1_555 1_555
H40 C52 1_555 1_555
N9 Ag5 1_555 1_555
N15 C44 1_555 1_555
N16 C44 1_555 1_555
N17 Ag1 1_555 1_555
N7 O2 1_555 1_555
C41 C42 1_555 1_555
C45 N15 1_555 1_555
C47 N16 1_555 1_555
C52 N17 1_555 1_555
S1 C1 1_555 1_555
C1 N1 1_555 1_555
C2 H1 1_555 1_555
C3 C2 1_555 1_555
H2 C3 1_555 1_555
C4 C3 1_555 1_555
C5 C4 1_555 1_555
C6 C5 1_555 1_555
H3 C6 1_555 1_555
C7 C6 1_555 1_555
H4 C7 1_555 1_555
C8 C7 1_555 1_555
H5 C8 1_555 1_555
C9 C5 1_555 1_555
H6 C9 1_555 1_555
C10 S1 1_555 1_555
H7 C10 1_555 1_555
H8 C10 1_555 1_555
N1 C2 1_555 1_555
N2 C1 1_555 1_555
Ag4 N1 1_555 1_555
Ag7 N12 1_555 1_555
C4 N2 1_555 1_555
Ag1_2 N6 1_555 1_555
S2 C17 1_555 1_555
C12 C11 1_555 1_555
H9 C12 1_555 1_555
C13 C12 1_555 1_555
C14 C13 1_555 1_555
H10 C14 1_555 1_555
C15 C14 1_555 1_555
H11 C15 1_555 1_555
C16 C11 1_555 1_555
H12 C16 1_555 1_555
C17 C13 1_555 1_555
H13 C17 1_555 1_555
H14 C17 1_555 1_555
C18 S2 1_555 1_555
C19 H15 1_555 1_555
C20 C19 1_555 1_555
H16 C20 1_555 1_555
C21 C20 1_555 1_555
C22 C21 1_555 1_555
C23 C22 1_555 1_555
H17 C23 1_555 1_555
C26 C22 1_555 1_555
H20 C26 1_555 1_555
N4 C18 1_555 1_555
N5 C18 1_555 1_555
C51 C50 1_555 1_555
N10 Ag7 1_555 1_555
O5 Ag7 1_555 1_555
O6 N18 1_555 1_555
C15 C16 1_555 1_555
C19 N4 1_555 1_555
C21 N5 1_555 1_555
C26 N6 1_555 1_555
N18 O5 1_555 1_555
Ag4 S4_2 1_555 1_555
S3_2 C27_2 1_555 1_555
S4_2 C43_2 1_555 1_555
C27_2 N9 1_555 1_555
C28_2 H21_2 1_555 1_555
C29_2 C28_2 1_555 1_555
H22_2 C29_2 1_555 1_555
C30_2 C29_2 1_555 1_555
C31_2 C30_2 1_555 1_555
C32_2 C31_2 1_555 1_555
H23_2 C32_2 1_555 1_555
C33_2 C32_2 1_555 1_555
H24_2 C33_2 1_555 1_555
C34_2 C33_2 1_555 1_555
H25_2 C34_2 1_555 1_555
C35_2 C31_2 1_555 1_555
H26_2 C35_2 1_555 1_555
C36_2 S3_2 1_555 1_555
H27_2 C36_2 1_555 1_555
H28_2 C36_2 1_555 1_555
C37_2 C36_2 1_555 1_555
C38_2 C37_2 1_555 1_555
H29_2 C38_2 1_555 1_555
C39_2 C38_2 1_555 1_555
C40_2 C39_2 1_555 1_555
H30_2 C40_2 1_555 1_555
C43_2 C39_2 1_555 1_555
H33_2 C43_2 1_555 1_555
H34_2 C43_2 1_555 1_555
C44_2 S4_2 1_555 1_555
C45_2 H35_2 1_555 1_555
C46_2 C45_2 1_555 1_555
H36_2 C46_2 1_555 1_555
C47_2 C46_2 1_555 1_555
C48_2 C47_2 1_555 1_555
C49_2 C48_2 1_555 1_555
H37_2 C49_2 1_555 1_555
C50_2 C49_2 1_555 1_555
H38_2 C50_2 1_555 1_555
C51_2 C50_2 1_555 1_555
H39_2 C51_2 1_555 1_555
C52_2 C48_2 1_555 1_555
H40_2 C52_2 1_555 1_555
N9 C28_2 1_555 1_555
N11_2 C27_2 1_555 1_555
N12_2 C34_2 1_555 1_555
N15_2 C44_2 1_555 1_555
N16_2 C44_2 1_555 1_555
N17_2 Ag1_3 1_555 1_555
N18_2 O4_2 1_555 1_555
O5_2 Ag4 1_555 1_555
O6_2 N18_2 1_555 1_555
C30_2 N11_2 1_555 1_555
C35_2 N12_2 1_555 1_555
C45_2 N15_2 1_555 1_555
C47_2 N16_2 1_555 1_555
C51_2 N17_2 1_555 1_555
C52_2 N17_2 1_555 1_555
N18_2 O5_2 1_555 1_555
Ag1_4 N6_2 1_555 1_555
Ag6 S2_2 1_555 1_555
S1_2 C1_2 1_555 1_555
S2_2 C17_2 1_555 1_555
C1_2 N10 1_555 1_555
C2_2 H1_2 1_555 1_555
C3_2 C2_2 1_555 1_555
H2_2 C3_2 1_555 1_555
C4_2 C3_2 1_555 1_555
C5_2 C4_2 1_555 1_555
C6_2 C5_2 1_555 1_555
H3_2 C6_2 1_555 1_555
C7_2 C6_2 1_555 1_555
H4_2 C7_2 1_555 1_555
C8_2 C7_2 1_555 1_555
H5_2 C8_2 1_555 1_555
C9_2 C5_2 1_555 1_555
H6_2 C9_2 1_555 1_555
C10_2 S1_2 1_555 1_555
H7_2 C10_2 1_555 1_555
H8_2 C10_2 1_555 1_555
C11_2 C10_2 1_555 1_555
C12_2 C11_2 1_555 1_555
H9_2 C12_2 1_555 1_555
C13_2 C12_2 1_555 1_555
C14_2 C13_2 1_555 1_555
H10_2 C14_2 1_555 1_555
C17_2 C13_2 1_555 1_555
H13_2 C17_2 1_555 1_555
H14_2 C17_2 1_555 1_555
C18_2 S2_2 1_555 1_555
C19_2 H15_2 1_555 1_555
C20_2 C19_2 1_555 1_555
H16_2 C20_2 1_555 1_555
C21_2 C20_2 1_555 1_555
C22_2 C21_2 1_555 1_555
C23_2 C22_2 1_555 1_555
H17_2 C23_2 1_555 1_555
C24_2 C23_2 1_555 1_555
H18_2 C24_2 1_555 1_555
C25_2 C24_2 1_555 1_555
H19_2 C25_2 1_555 1_555
C26_2 C22_2 1_555 1_555
H20_2 C26_2 1_555 1_555
N10 C2_2 1_555 1_555
N2_2 C1_2 1_555 1_555
N3_2 C8_2 1_555 1_555
N4_2 C18_2 1_555 1_555
N5_2 C18_2 1_555 1_555
N6_2 C25_2 1_555 1_555
N7_2 O1 1_555 1_555
O2_2 Ag6 1_555 1_555
O3_2 N7_2 1_555 1_555
C4_2 N2_2 1_555 1_555
C9_2 N3_2 1_555 1_555
C19_2 N4_2 1_555 1_555
C21_2 N5_2 1_555 1_555
C26_2 N6_2 1_555 1_555
N7_2 O2_2 1_555 1_555
H31_2 C41_2 1_555 1_555
H32_2 C42_2 1_555 1_555
C41_2 C42_2 1_555 1_555
H11_2 C15_2 1_555 1_555
H12_2 C16_2 1_555 1_555
C15_2 C16_2 1_555 1_555

#END
