
###############################################################################
#
# This file contains modified crystal structure data generated from the
# MOF subset of the Cambridge Structural Database (CSD) v543 
# hosted by the Cambridge Crystallographic Data Centre (CCDC).
#
# This work is licensed under the Creative Commons
# Attribution-NonCommercial-ShareAlike 4.0 International License.
# To view a copy of this license, visit
# http://creativecommons.org/licenses/by-nc-sa/4.0/
# or send a letter to
# Creative Commons, PO Box 1866, Mountain View, CA 94042, USA.
#
# CIF created using the CSD Python API on 29 September 2022
# The structure has been converted into the P1 space group
# The structure has a 3D framework
# The original CSD entry ROBYUE is in the monoclinic crystal system
# The original CSD entry ROBYUE is in a Sohncke space group
# The framework has been calculated to contain at least 10.0% void space
# The void calculation uses a probe of radius 1.32A, grid spacing 0.4
#
###############################################################################

data_ROBYUE
_chemical_formula_moiety         '(C204 H120 N12 O48 Zn12)n'
_symmetry_cell_setting           triclinic
_symmetry_space_group_name_H-M   'P 1'
_symmetry_Int_Tables_number      1
_space_group_name_Hall           'P 1'
loop_
_symmetry_equiv_pos_site_id
_symmetry_equiv_pos_as_xyz
1 x,y,z
_cell_length_a                   17.0963(3)
_cell_length_b                   19.9054(3)
_cell_length_c                   14.0678(2)
_cell_angle_alpha                90
_cell_angle_beta                 95.9780(10)
_cell_angle_gamma                90
_cell_volume                     4761.36
loop_
_atom_site_label
_atom_site_type_symbol
_atom_site_fract_x
_atom_site_fract_y
_atom_site_fract_z
Zn7 Zn 0.00352(3) 0.13775(2) 0.39596(3)
O3 O 0.0755(3) 0.0618(2) 0.5913(3)
O4 O 0.0899(3) 0.06789(19) 0.4360(3)
C3 C 0.1027(3) 0.0416(3) 0.5165(5)
O7 O 0.9245(3) 0.0618(2) 0.4087(3)
O8 O 0.9101(3) 0.06789(19) 0.5640(3)
C25 C 0.8973(3) 0.0416(3) 0.4835(5)
Zn5 Zn 0.99648(3) 0.13775(2) 0.60404(3)
N2 N 0.50196(19) 0.6360(3) 0.2507(2)
C18 C 0.5006(3) 0.6356(4) 0.0529(3)
C19 C 0.5615(3) 0.6625(3) 0.2082(3)
H11 H 0.6043 0.6822 0.2469
C20 C 0.5629(3) 0.6622(3) 0.1102(3)
H12 H 0.6068 0.6803 0.0825
C21 C 0.4429(3) 0.6092(3) 0.1950(3)
H13 H 0.4013 0.5889 0.2245
C22 C 0.4384(3) 0.6091(3) 0.0966(3)
H14 H 0.3937 0.5911 0.0595
Zn3 Zn 0.50352(3) 0.63775(2) 0.39596(3)
Zn1 Zn 0.49648(3) 0.63775(2) 0.60404(3)
O1 O 0.4166(3) 0.7104(2) 0.5681(4)
N1 N 0.49804(19) 0.6360(3) 0.7493(2)
O2 O 0.4166(3) 0.7056(2) 0.4083(3)
C1 C 0.3399(4) 0.7885(3) 0.4752(5)
C2 C 0.2517(4) 0.8678(3) 0.5440(5)
C4 C 0.1557(3) 0.9808(3) 0.5265(5)
C5 C 0.3955(3) 0.7305(3) 0.4839(5)
C6 C 0.2422(4) 0.9039(3) 0.4570(5)
C7 C 0.3007(4) 0.8083(3) 0.5501(5)
H1 H 0.3057 0.7827 0.6074
C8 C 0.1651(4) 0.9431(3) 0.6133(5)
H2 H 0.1388 0.9570 0.6662
C9 C 0.4994(3) 0.6356(4) 0.9471(3)
C10 C 0.4385(3) 0.6625(3) 0.7918(3)
H3 H 0.3957 0.6822 0.7531
C11 C 0.4371(3) 0.6622(3) 0.8898(3)
H4 H 0.3932 0.6803 0.9175
C12 C 0.5571(3) 0.6092(3) 0.8050(3)
H5 H 0.5987 0.5889 0.7755
C13 C 0.3294(4) 0.8254(3) 0.3877(5)
H6 H 0.3559 0.8113 0.3350
C14 C 0.2816(4) 0.8813(3) 0.3787(4)
H7 H 0.2748 0.9048 0.3197
C15 C 0.5616(3) 0.6091(3) 0.9034(3)
H8 H 0.6063 0.5911 0.9405
C16 C 0.2102(4) 0.8888(3) 0.6205(5)
H9 H 0.2148 0.8636 0.6782
C17 C 0.1945(4) 0.9606(3) 0.4515(5)
H10 H 0.1887 0.9859 0.3939
O5 O 0.5834(3) 0.7104(2) 0.4319(4)
O6 O 0.5834(3) 0.7056(2) 0.5917(3)
C23 C 0.6601(4) 0.7885(3) 0.5248(5)
C24 C 0.7483(4) 0.8678(3) 0.4560(5)
C26 C 0.8443(3) 0.9808(3) 0.4735(5)
C27 C 0.6045(3) 0.7305(3) 0.5161(5)
C28 C 0.7578(4) 0.9039(3) 0.5430(5)
C29 C 0.6993(4) 0.8083(3) 0.4499(5)
H15 H 0.6943 0.7827 0.3926
C30 C 0.8349(4) 0.9431(3) 0.3867(5)
H16 H 0.8612 0.9570 0.3338
C31 C 0.6706(4) 0.8254(3) 0.6123(5)
H17 H 0.6441 0.8113 0.6650
C32 C 0.7184(4) 0.8813(3) 0.6213(4)
H18 H 0.7252 0.9048 0.6803
C33 C 0.7898(4) 0.8888(3) 0.3795(5)
H19 H 0.7852 0.8636 0.3218
C34 C 0.8055(4) 0.9606(3) 0.5485(5)
H20 H 0.8113 0.9859 0.6061
O9 O 0.5755(3) 0.5618(2) 0.5913(3)
O10 O 0.4245(3) 0.5618(2) 0.4087(3)
O11 O 0.5899(3) 0.56789(19) 0.4360(3)
O12 O 0.4101(3) 0.56789(19) 0.5640(3)
N2_2 N 0.00196(19) 0.1360(3) 0.2507(2)
C18_2 C 0.0006(3) 0.1356(4) 0.0529(3)
C19_2 C 0.0615(3) 0.1625(3) 0.2082(3)
H11_2 H 0.1043 0.1822 0.2469
C20_2 C 0.0629(3) 0.1622(3) 0.1102(3)
H12_2 H 0.1068 0.1803 0.0825
C12_2 C 0.0571(3) 0.1092(3) 0.8050(3)
H5_2 H 0.0987 0.0889 0.7755
C15_2 C 0.0616(3) 0.1091(3) 0.9034(3)
H8_2 H 0.1063 0.0911 0.9405
O5_2 O 0.0834(3) 0.2104(2) 0.4319(4)
O6_2 O 0.0834(3) 0.2056(2) 0.5917(3)
C23_2 C 0.1601(4) 0.2885(3) 0.5248(5)
C24_2 C 0.2483(4) 0.3678(3) 0.4560(5)
C25_2 C 0.3973(3) 0.5416(3) 0.4835(5)
C26_2 C 0.3443(3) 0.4808(3) 0.4735(5)
C27_2 C 0.1045(3) 0.2305(3) 0.5161(5)
C28_2 C 0.2578(4) 0.4039(3) 0.5430(5)
C29_2 C 0.1993(4) 0.3083(3) 0.4499(5)
H15_2 H 0.1943 0.2827 0.3926
C30_2 C 0.3349(4) 0.4431(3) 0.3867(5)
H16_2 H 0.3612 0.4570 0.3338
C31_2 C 0.1706(4) 0.3254(3) 0.6123(5)
H17_2 H 0.1441 0.3113 0.6650
C32_2 C 0.2184(4) 0.3813(3) 0.6213(4)
H18_2 H 0.2252 0.4048 0.6803
C33_2 C 0.2898(4) 0.3888(3) 0.3795(5)
H19_2 H 0.2852 0.3636 0.3218
C34_2 C 0.3055(4) 0.4606(3) 0.5485(5)
H20_2 H 0.3113 0.4859 0.6061
C21_2 C 0.9429(3) 0.1092(3) 0.1950(3)
H13_2 H 0.9013 0.0889 0.2245
C22_2 C 0.9384(3) 0.1091(3) 0.0966(3)
H14_2 H 0.8937 0.0911 0.0595
O1_2 O 0.9166(3) 0.2104(2) 0.5681(4)
N1_2 N 0.99804(19) 0.1360(3) 0.7493(2)
O2_2 O 0.9166(3) 0.2056(2) 0.4083(3)
C1_2 C 0.8399(4) 0.2885(3) 0.4752(5)
C2_2 C 0.7517(4) 0.3678(3) 0.5440(5)
C3_2 C 0.6027(3) 0.5416(3) 0.5165(5)
C4_2 C 0.6557(3) 0.4808(3) 0.5265(5)
C5_2 C 0.8955(3) 0.2305(3) 0.4839(5)
C6_2 C 0.7422(4) 0.4039(3) 0.4570(5)
C7_2 C 0.8007(4) 0.3083(3) 0.5501(5)
H1_2 H 0.8057 0.2827 0.6074
C8_2 C 0.6651(4) 0.4431(3) 0.6133(5)
H2_2 H 0.6388 0.4570 0.6662
C9_2 C 0.9994(3) 0.1356(4) 0.9471(3)
C10_2 C 0.9385(3) 0.1625(3) 0.7918(3)
H3_2 H 0.8957 0.1822 0.7531
C11_2 C 0.9371(3) 0.1622(3) 0.8898(3)
H4_2 H 0.8932 0.1803 0.9175
C13_2 C 0.8294(4) 0.3254(3) 0.3877(5)
H6_2 H 0.8559 0.3113 0.3350
C14_2 C 0.7816(4) 0.3813(3) 0.3787(4)
H7_2 H 0.7748 0.4048 0.3197
C16_2 C 0.7102(4) 0.3888(3) 0.6205(5)
H9_2 H 0.7148 0.3636 0.6782
C17_2 C 0.6945(4) 0.4606(3) 0.4515(5)
H10_2 H 0.6887 0.4859 0.3939
Zn8 Zn 0.33402(2) 0.17228(3) 0.05678(3)
Zn9 Zn 0.32541(2) 0.17199(3) 0.26505(3)
O13 O 0.2425(3) 0.1010(2) 0.2292(3)
O14 O 0.2517(3) 0.0990(2) 0.0723(4)
O19 O 0.2421(3) 0.2427(2) 0.2251(4)
O20 O 0.2519(3) 0.2455(2) 0.0678(4)
C37 C 0.1230(4) 0.3400(3) 0.2013(5)
H21 H 0.1203 0.3093 0.2525
C38 C 0.0815(4) 0.4459(3) 0.1225(5)
C39 C 0.2276(4) 0.0763(3) 0.1473(5)
C41 C 0.1759(3) 0.0146(3) 0.1374(5)
C42 C 0.1276(4) 0.0005(3) 0.2074(5)
H22 H 0.1265 0.0302 0.2601
C44 C 0.2266(4) 0.2670(3) 0.1420(5)
C47 C 0.1727(4) 0.3267(3) 0.1345(5)
C50 C 0.0745(4) 0.3990(3) 0.1970(5)
C61 C 0.0351(5) 0.5020(3) 0.1173(5)
H34 H 0.0392 0.5334 0.0672
C62 C 0.0196(4) 0.4123(4) 0.2624(5)
H35 H 0.0142 0.3810 0.3123
C67 C 0.1332(5) 0.4306(4) 0.0517(6)
H39 H 0.1383 0.4611 0.0007
C68 C 0.1762(5) 0.3708(4) 0.0577(6)
H40 H 0.2084 0.3598 0.0088
N6 N 0.32544(18) 0.1748(4) 0.4098(2)
O21 O 0.4181(3) 0.2422(2) 0.0967(3)
O22 O 0.4174(3) 0.1013(2) 0.0917(3)
O23 O 0.4084(3) 0.2438(2) 0.2536(3)
O24 O 0.4065(3) 0.0983(2) 0.2476(3)
N4 N 0.33225(19) 0.1747(3) 0.9124(2)
C51 C 0.3984(2) 0.1715(4) 0.8691(3)
H26 H 0.4471 0.1679 0.9079
C52 C 0.2720(3) 0.1417(4) 0.4533(3)
H27 H 0.2327 0.1169 0.4154
C53 C 0.2708(3) 0.1418(4) 0.5511(3)
H28 H 0.2313 0.1174 0.5792
C54 C 0.3285(2) 0.1774(4) 0.7136(3)
C55 C 0.3269(2) 0.1772(4) 0.6083(3)
C56 C 0.3993(2) 0.1732(4) 0.7715(3)
H29 H 0.4478 0.1716 0.7440
C57 C 0.2595(3) 0.1832(3) 0.7577(3)
H30 H 0.2102 0.1879 0.7205
C58 C 0.2637(2) 0.1819(3) 0.8567(3)
H31 H 0.2165 0.1863 0.8864
C59 C 0.3813(3) 0.2142(3) 0.5627(3)
H32 H 0.4204 0.2402 0.5991
C60 C 0.3777(3) 0.2128(3) 0.4639(3)
H33 H 0.4135 0.2397 0.4333
O16 O 0.9174(3) 0.6013(2) 0.0917(3)
O18 O 0.9065(3) 0.5983(2) 0.2476(3)
C40 C 0.9826(4) 0.5141(3) 0.1833(5)
C43 C 0.9320(4) 0.5759(3) 0.1726(5)
C63 C 0.9749(4) 0.4675(3) 0.2566(5)
H36 H 0.9382 0.4751 0.3017
Zn11 Zn 0.83402(2) 0.67228(3) 0.05678(3)
Zn14 Zn 0.82541(2) 0.67199(3) 0.26505(3)
O15 O 0.9181(3) 0.7422(2) 0.0967(3)
O17 O 0.9084(3) 0.7438(2) 0.2536(3)
C35 C 0.9346(3) 0.7652(3) 0.1796(5)
C45 C 0.9893(4) 0.8244(3) 0.1885(5)
C48 C 0.9879(4) 0.8685(3) 0.2680(5)
H24 H 0.9566 0.8576 0.3178
C40_2 C 0.4826(4) 0.0141(3) 0.1833(5)
C43_2 C 0.4320(4) 0.0759(3) 0.1726(5)
C61_2 C 0.5351(5) 0.0020(3) 0.1173(5)
H34_2 H 0.5392 0.0334 0.0672
O13_2 O 0.7425(3) 0.6010(2) 0.2292(3)
O14_2 O 0.7517(3) 0.5990(2) 0.0723(4)
O19_2 O 0.7421(3) 0.7427(2) 0.2251(4)
O20_2 O 0.7519(3) 0.7455(2) 0.0678(4)
C35_2 C 0.4346(3) 0.2652(3) 0.1796(5)
C36 C 0.5809(4) 0.4438(3) 0.2021(5)
C37_2 C 0.6230(4) 0.8400(3) 0.2013(5)
H21_2 H 0.6203 0.8093 0.2525
C38_2 C 0.5815(4) 0.9459(3) 0.1225(5)
C39_2 C 0.7276(4) 0.5763(3) 0.1473(5)
C41_2 C 0.6759(3) 0.5146(3) 0.1374(5)
C42_2 C 0.6276(4) 0.5005(3) 0.2074(5)
H22_2 H 0.6265 0.5302 0.2601
C44_2 C 0.7266(4) 0.7670(3) 0.1420(5)
C45_2 C 0.4893(4) 0.3244(3) 0.1885(5)
C46 C 0.5375(4) 0.3384(3) 0.1197(5)
H23 H 0.5401 0.3078 0.0683
C47_2 C 0.6727(4) 0.8267(3) 0.1345(5)
C48_2 C 0.4879(4) 0.3685(3) 0.2680(5)
H24_2 H 0.4566 0.3576 0.3178
C49 C 0.5318(4) 0.4272(3) 0.2738(5)
H25 H 0.5289 0.4567 0.3265
C50_2 C 0.5745(4) 0.8990(3) 0.1970(5)
C62_2 C 0.5196(4) 0.9123(4) 0.2624(5)
H35_2 H 0.5142 0.8810 0.3123
C63_2 C 0.4749(4) 0.9675(3) 0.2566(5)
H36_2 H 0.4382 0.9751 0.3017
C64 C 0.6339(4) 0.4149(3) 0.0531(5)
H37 H 0.6363 0.3853 0.0004
C65 C 0.5845(4) 0.3989(3) 0.1232(5)
C66 C 0.6777(4) 0.4706(3) 0.0580(5)
H38 H 0.7100 0.4807 0.0088
C67_2 C 0.6332(5) 0.9306(4) 0.0517(6)
H39_2 H 0.6383 0.9611 0.0007
C68_2 C 0.6762(5) 0.8708(4) 0.0577(6)
H40_2 H 0.7084 0.8598 0.0088
N6_2 N 0.82544(18) 0.6748(4) 0.4098(2)
N4_2 N 0.83225(19) 0.6747(3) 0.9124(2)
C51_2 C 0.8984(2) 0.6715(4) 0.8691(3)
H26_2 H 0.9471 0.6679 0.9079
C52_2 C 0.7720(3) 0.6417(4) 0.4533(3)
H27_2 H 0.7327 0.6169 0.4154
C53_2 C 0.7708(3) 0.6418(4) 0.5511(3)
H28_2 H 0.7313 0.6174 0.5792
C54_2 C 0.8285(2) 0.6774(4) 0.7136(3)
C55_2 C 0.8269(2) 0.6772(4) 0.6083(3)
C56_2 C 0.8993(2) 0.6732(4) 0.7715(3)
H29_2 H 0.9478 0.6716 0.7440
C57_2 C 0.7595(3) 0.6832(3) 0.7577(3)
H30_2 H 0.7102 0.6879 0.7205
C58_2 C 0.7637(2) 0.6819(3) 0.8567(3)
H31_2 H 0.7165 0.6863 0.8864
C59_2 C 0.8813(3) 0.7142(3) 0.5627(3)
H32_2 H 0.9204 0.7402 0.5991
C60_2 C 0.8777(3) 0.7128(3) 0.4639(3)
H33_2 H 0.9135 0.7397 0.4333
C36_2 C 0.0809(4) 0.9438(3) 0.2021(5)
C46_2 C 0.0375(4) 0.8384(3) 0.1197(5)
H23_2 H 0.0401 0.8078 0.0683
C49_2 C 0.0318(4) 0.9272(3) 0.2738(5)
H25_2 H 0.0289 0.9567 0.3265
C64_2 C 0.1339(4) 0.9149(3) 0.0531(5)
H37_2 H 0.1363 0.8853 0.0004
C65_2 C 0.0845(4) 0.8989(3) 0.1232(5)
C66_2 C 0.1777(4) 0.9706(3) 0.0580(5)
H38_2 H 0.2100 0.9807 0.0088
O16_2 O 0.0826(3) 0.6013(2) 0.9083(3)
O18_2 O 0.0935(3) 0.5983(2) 0.7524(3)
C40_3 C 0.0174(4) 0.5141(3) 0.8167(5)
C43_3 C 0.0680(4) 0.5759(3) 0.8274(5)
C63_3 C 0.0251(4) 0.4675(3) 0.7434(5)
H36_3 H 0.0618 0.4751 0.6983
Zn11_2 Zn 0.16598(2) 0.67228(3) 0.94322(3)
Zn14_2 Zn 0.17459(2) 0.67199(3) 0.73495(3)
O15_2 O 0.0819(3) 0.7422(2) 0.9033(3)
O17_2 O 0.0916(3) 0.7438(2) 0.7464(3)
C35_3 C 0.0654(3) 0.7652(3) 0.8204(5)
C45_3 C 0.0107(4) 0.8244(3) 0.8115(5)
C48_3 C 0.0121(4) 0.8685(3) 0.7320(5)
H24_3 H 0.0434 0.8576 0.6822
N4_3 N 0.66775(19) 0.1747(3) 0.0876(2)
N5 N 0.67456(18) 0.1748(4) 0.5902(2)
C51_3 C 0.6016(2) 0.1715(4) 0.1309(3)
H26_3 H 0.5529 0.1679 0.0921
C52_3 C 0.7280(3) 0.1417(4) 0.5467(3)
H27_3 H 0.7673 0.1169 0.5846
C53_3 C 0.7292(3) 0.1418(4) 0.4489(3)
H28_3 H 0.7687 0.1174 0.4208
C54_3 C 0.6715(2) 0.1774(4) 0.2864(3)
C55_3 C 0.6731(2) 0.1772(4) 0.3917(3)
C56_3 C 0.6007(2) 0.1732(4) 0.2285(3)
H29_3 H 0.5522 0.1716 0.2560
C57_3 C 0.7405(3) 0.1832(3) 0.2423(3)
H30_3 H 0.7898 0.1879 0.2795
C58_3 C 0.7363(2) 0.1819(3) 0.1433(3)
H31_3 H 0.7835 0.1863 0.1136
C59_3 C 0.6187(3) 0.2142(3) 0.4373(3)
H32_3 H 0.5796 0.2402 0.4009
C60_3 C 0.6223(3) 0.2128(3) 0.5361(3)
H33_3 H 0.5865 0.2397 0.5667
Zn12 Zn 0.67459(2) 0.17199(3) 0.73495(3)
Zn8_2 Zn 0.66598(2) 0.17228(3) 0.94322(3)
O13_3 O 0.7575(3) 0.1010(2) 0.7708(3)
O14_3 O 0.7483(3) 0.0990(2) 0.9277(4)
O19_3 O 0.7579(3) 0.2427(2) 0.7749(4)
O20_3 O 0.7481(3) 0.2455(2) 0.9322(4)
C37_3 C 0.8770(4) 0.3400(3) 0.7987(5)
H21_3 H 0.8797 0.3093 0.7475
C38_3 C 0.9185(4) 0.4459(3) 0.8775(5)
C39_3 C 0.7724(4) 0.0763(3) 0.8527(5)
C41_3 C 0.8241(3) 0.0146(3) 0.8626(5)
C42_3 C 0.8724(4) 0.0005(3) 0.7926(5)
H22_3 H 0.8735 0.0302 0.7399
C44_3 C 0.7734(4) 0.2670(3) 0.8580(5)
C47_3 C 0.8273(4) 0.3267(3) 0.8655(5)
C50_3 C 0.9255(4) 0.3990(3) 0.8030(5)
C61_3 C 0.9649(5) 0.5020(3) 0.8827(5)
H34_3 H 0.9608 0.5334 0.9328
C62_3 C 0.9804(4) 0.4123(4) 0.7376(5)
H35_3 H 0.9858 0.3810 0.6877
C67_3 C 0.8668(5) 0.4306(4) 0.9483(6)
H39_3 H 0.8617 0.4611 0.9993
C68_3 C 0.8238(5) 0.3708(4) 0.9423(6)
H40_3 H 0.7916 0.3598 0.9912
O21_2 O 0.5819(3) 0.2422(2) 0.9033(3)
O22_2 O 0.5826(3) 0.1013(2) 0.9083(3)
O23_2 O 0.5916(3) 0.2438(2) 0.7464(3)
O24_2 O 0.5935(3) 0.0983(2) 0.7524(3)
C40_4 C 0.5174(4) 0.0141(3) 0.8167(5)
C43_4 C 0.5680(4) 0.0759(3) 0.8274(5)
C61_4 C 0.4649(5) 0.0020(3) 0.8827(5)
H34_4 H 0.4608 0.0334 0.9328
N4_4 N 0.16775(19) 0.6747(3) 0.0876(2)
N5_2 N 0.17456(18) 0.6748(4) 0.5902(2)
C51_4 C 0.1016(2) 0.6715(4) 0.1309(3)
H26_4 H 0.0529 0.6679 0.0921
C52_4 C 0.2280(3) 0.6417(4) 0.5467(3)
H27_4 H 0.2673 0.6169 0.5846
C53_4 C 0.2292(3) 0.6418(4) 0.4489(3)
H28_4 H 0.2687 0.6174 0.4208
C54_4 C 0.1715(2) 0.6774(4) 0.2864(3)
C55_4 C 0.1731(2) 0.6772(4) 0.3917(3)
C56_4 C 0.1007(2) 0.6732(4) 0.2285(3)
H29_4 H 0.0522 0.6716 0.2560
C57_4 C 0.2405(3) 0.6832(3) 0.2423(3)
H30_4 H 0.2898 0.6879 0.2795
C58_4 C 0.2363(2) 0.6819(3) 0.1433(3)
H31_4 H 0.2835 0.6863 0.1136
C59_4 C 0.1187(3) 0.7142(3) 0.4373(3)
H32_4 H 0.0796 0.7402 0.4009
C60_4 C 0.1223(3) 0.7128(3) 0.5361(3)
H33_4 H 0.0865 0.7397 0.5667
O13_4 O 0.2575(3) 0.6010(2) 0.7708(3)
O14_4 O 0.2483(3) 0.5990(2) 0.9277(4)
O19_4 O 0.2579(3) 0.7427(2) 0.7749(4)
O20_4 O 0.2481(3) 0.7455(2) 0.9322(4)
C35_4 C 0.5654(3) 0.2652(3) 0.8204(5)
C36_3 C 0.4191(4) 0.4438(3) 0.7979(5)
C37_4 C 0.3770(4) 0.8400(3) 0.7987(5)
H21_4 H 0.3797 0.8093 0.7475
C38_4 C 0.4185(4) 0.9459(3) 0.8775(5)
C39_4 C 0.2724(4) 0.5763(3) 0.8527(5)
C41_4 C 0.3241(3) 0.5146(3) 0.8626(5)
C42_4 C 0.3724(4) 0.5005(3) 0.7926(5)
H22_4 H 0.3735 0.5302 0.7399
C44_4 C 0.2734(4) 0.7670(3) 0.8580(5)
C45_4 C 0.5107(4) 0.3244(3) 0.8115(5)
C46_3 C 0.4625(4) 0.3384(3) 0.8803(5)
H23_3 H 0.4599 0.3078 0.9317
C47_4 C 0.3273(4) 0.8267(3) 0.8655(5)
C48_4 C 0.5121(4) 0.3685(3) 0.7320(5)
H24_4 H 0.5434 0.3576 0.6822
C49_3 C 0.4682(4) 0.4272(3) 0.7262(5)
H25_3 H 0.4711 0.4567 0.6735
C50_4 C 0.4255(4) 0.8990(3) 0.8030(5)
C62_4 C 0.4804(4) 0.9123(4) 0.7376(5)
H35_4 H 0.4858 0.8810 0.6877
C63_4 C 0.5251(4) 0.9675(3) 0.7434(5)
H36_4 H 0.5618 0.9751 0.6983
C64_3 C 0.3661(4) 0.4149(3) 0.9469(5)
H37_3 H 0.3637 0.3853 0.9996
C65_3 C 0.4155(4) 0.3989(3) 0.8768(5)
C66_3 C 0.3223(4) 0.4706(3) 0.9420(5)
H38_3 H 0.2900 0.4807 0.9912
C67_4 C 0.3668(5) 0.9306(4) 0.9483(6)
H39_4 H 0.3617 0.9611 0.9993
C68_4 C 0.3238(5) 0.8708(4) 0.9423(6)
H40_4 H 0.2916 0.8598 0.9912
C36_4 C 0.9191(4) 0.9438(3) 0.7979(5)
C46_4 C 0.9625(4) 0.8384(3) 0.8803(5)
H23_4 H 0.9599 0.8078 0.9317
C49_4 C 0.9682(4) 0.9272(3) 0.7262(5)
H25_4 H 0.9711 0.9567 0.6735
C64_4 C 0.8661(4) 0.9149(3) 0.9469(5)
H37_4 H 0.8637 0.8853 0.9996
C65_4 C 0.9155(4) 0.8989(3) 0.8768(5)
C66_4 C 0.8223(4) 0.9706(3) 0.9420(5)
H38_4 H 0.7900 0.9807 0.9912
loop_
_geom_bond_atom_site_label_1
_geom_bond_atom_site_label_2
_geom_bond_site_symmetry_1
_geom_bond_site_symmetry_2
O3 C3 1_555 1_555
O4 C3 1_555 1_555
O7 C25 1_555 1_555
O8 C25 1_555 1_555
Zn5 O8 1_555 1_555
Zn7 O4 1_555 1_555
N2 C19 1_555 1_555
C19 H11 1_555 1_555
C20 C18 1_555 1_555
H12 C20 1_555 1_555
C21 N2 1_555 1_555
H13 C21 1_555 1_555
C22 C18 1_555 1_555
H14 C22 1_555 1_555
Zn3 N2 1_555 1_555
C19 C20 1_555 1_555
C21 C22 1_555 1_555
Zn1 O1 1_555 1_555
O1 C5 1_555 1_555
N1 Zn1 1_555 1_555
O2 C5 1_555 1_555
C1 C5 1_555 1_555
C2 C6 1_555 1_555
C4 C8 1_555 1_555
C6 C14 1_555 1_555
C7 C1 1_555 1_555
H1 C7 1_555 1_555
C8 H2 1_555 1_555
C9 C11 1_555 1_555
C10 N1 1_555 1_555
H3 C10 1_555 1_555
C11 C10 1_555 1_555
H4 C11 1_555 1_555
C12 N1 1_555 1_555
H5 C12 1_555 1_555
C13 C1 1_555 1_555
H6 C13 1_555 1_555
C14 C13 1_555 1_555
H7 C14 1_555 1_555
C15 C9 1_555 1_555
H8 C15 1_555 1_555
C16 C2 1_555 1_555
H9 C16 1_555 1_555
C17 C4 1_555 1_555
H10 C17 1_555 1_555
Zn3 O2 1_555 1_555
O5 Zn3 1_555 1_555
O6 Zn1 1_555 1_555
C23 C27 1_555 1_555
C24 C28 1_555 1_555
C26 C30 1_555 1_555
C27 O5 1_555 1_555
C28 C32 1_555 1_555
C29 C23 1_555 1_555
H15 C29 1_555 1_555
C30 H16 1_555 1_555
C31 C23 1_555 1_555
H17 C31 1_555 1_555
C32 C31 1_555 1_555
H18 C32 1_555 1_555
C33 C24 1_555 1_555
H19 C33 1_555 1_555
C34 C26 1_555 1_555
H20 C34 1_555 1_555
O9 Zn1 1_555 1_555
O10 Zn3 1_555 1_555
O11 Zn3 1_555 1_555
O12 Zn1 1_555 1_555
C2 C7 1_555 1_555
C6 C17 1_555 1_555
C8 C16 1_555 1_555
C12 C15 1_555 1_555
O6 C27 1_555 1_555
C24 C29 1_555 1_555
C28 C34 1_555 1_555
C30 C33 1_555 1_555
N2_2 C19_2 1_555 1_555
C19_2 H11_2 1_555 1_555
C20_2 C18_2 1_555 1_555
H12_2 C20_2 1_555 1_555
Zn7 N2_2 1_555 1_555
C19_2 C20_2 1_555 1_555
H5_2 C12_2 1_555 1_555
H8_2 C15_2 1_555 1_555
O5_2 Zn7 1_555 1_555
O10 C25_2 1_555 1_555
O12 C25_2 1_555 1_555
C23_2 C27_2 1_555 1_555
C24_2 C28_2 1_555 1_555
C25_2 C26_2 1_555 1_555
C26_2 C30_2 1_555 1_555
C27_2 O5_2 1_555 1_555
C28_2 C32_2 1_555 1_555
C29_2 C23_2 1_555 1_555
H15_2 C29_2 1_555 1_555
C30_2 H16_2 1_555 1_555
C31_2 C23_2 1_555 1_555
H17_2 C31_2 1_555 1_555
C32_2 C31_2 1_555 1_555
H18_2 C32_2 1_555 1_555
C33_2 C24_2 1_555 1_555
H19_2 C33_2 1_555 1_555
C34_2 C26_2 1_555 1_555
H20_2 C34_2 1_555 1_555
C12_2 C15_2 1_555 1_555
O6_2 C27_2 1_555 1_555
C24_2 C29_2 1_555 1_555
C28_2 C34_2 1_555 1_555
C30_2 C33_2 1_555 1_555
H13_2 C21_2 1_555 1_555
H14_2 C22_2 1_555 1_555
C21_2 C22_2 1_555 1_555
Zn5 O1_2 1_555 1_555
O1_2 C5_2 1_555 1_555
N1_2 Zn5 1_555 1_555
O2_2 C5_2 1_555 1_555
O9 C3_2 1_555 1_555
O11 C3_2 1_555 1_555
C1_2 C5_2 1_555 1_555
C2_2 C6_2 1_555 1_555
C3_2 C4_2 1_555 1_555
C4_2 C8_2 1_555 1_555
C6_2 C14_2 1_555 1_555
C7_2 C1_2 1_555 1_555
H1_2 C7_2 1_555 1_555
C8_2 H2_2 1_555 1_555
C9_2 C11_2 1_555 1_555
C10_2 N1_2 1_555 1_555
H3_2 C10_2 1_555 1_555
C11_2 C10_2 1_555 1_555
H4_2 C11_2 1_555 1_555
C13_2 C1_2 1_555 1_555
H6_2 C13_2 1_555 1_555
C14_2 C13_2 1_555 1_555
H7_2 C14_2 1_555 1_555
C16_2 C2_2 1_555 1_555
H9_2 C16_2 1_555 1_555
C17_2 C4_2 1_555 1_555
H10_2 C17_2 1_555 1_555
C2_2 C7_2 1_555 1_555
C6_2 C17_2 1_555 1_555
C8_2 C16_2 1_555 1_555
Zn9 O13 1_555 1_555
O13 C39 1_555 1_555
O14 Zn8 1_555 1_555
O19 Zn9 1_555 1_555
O20 Zn8 1_555 1_555
C37 H21 1_555 1_555
C38 C50 1_555 1_555
C39 O14 1_555 1_555
C41 C39 1_555 1_555
C42 C41 1_555 1_555
H22 C42 1_555 1_555
C44 O19 1_555 1_555
C47 C37 1_555 1_555
C50 C37 1_555 1_555
C61 C38 1_555 1_555
H34 C61 1_555 1_555
C62 C50 1_555 1_555
H35 C62 1_555 1_555
C67 C38 1_555 1_555
H39 C67 1_555 1_555
C68 C47 1_555 1_555
H40 C68 1_555 1_555
N6 Zn9 1_555 1_555
O21 Zn8 1_555 1_555
O22 Zn8 1_555 1_555
O23 Zn9 1_555 1_555
O24 Zn9 1_555 1_555
O20 C44 1_555 1_555
C44 C47 1_555 1_555
C67 C68 1_555 1_555
N4 C51 1_555 1_555
N6 C52 1_555 1_555
C51 H26 1_555 1_555
C52 H27 1_555 1_555
C53 C52 1_555 1_555
H28 C53 1_555 1_555
C54 C55 1_555 1_555
C55 C53 1_555 1_555
C56 C51 1_555 1_555
H29 C56 1_555 1_555
C57 C54 1_555 1_555
H30 C57 1_555 1_555
C58 N4 1_555 1_555
H31 C58 1_555 1_555
C59 C55 1_555 1_555
H32 C59 1_555 1_555
C60 N6 1_555 1_555
H33 C60 1_555 1_555
C54 C56 1_555 1_555
C57 C58 1_555 1_555
C59 C60 1_555 1_555
O16 C43 1_555 1_555
O18 C43 1_555 1_555
C40 C43 1_555 1_555
C63 C40 1_555 1_555
H36 C63 1_555 1_555
Zn11 O16 1_555 1_555
Zn14 O18 1_555 1_555
O15 C35 1_555 1_555
O17 C35 1_555 1_555
C35 C45 1_555 1_555
C48 C45 1_555 1_555
H24 C48 1_555 1_555
Zn11 O15 1_555 1_555
Zn14 O17 1_555 1_555
O22 C43_2 1_555 1_555
O24 C43_2 1_555 1_555
C40_2 C43_2 1_555 1_555
H34_2 C61_2 1_555 1_555
C40_2 C61_2 1_555 1_555
Zn14 O13_2 1_555 1_555
O13_2 C39_2 1_555 1_555
O14_2 Zn11 1_555 1_555
O21 C35_2 1_555 1_555
O23 C35_2 1_555 1_555
O19_2 Zn14 1_555 1_555
O20_2 Zn11 1_555 1_555
C35_2 C45_2 1_555 1_555
C36 C42_2 1_555 1_555
C37_2 H21_2 1_555 1_555
C38_2 C50_2 1_555 1_555
C39_2 O14_2 1_555 1_555
C41_2 C39_2 1_555 1_555
C42_2 C41_2 1_555 1_555
H22_2 C42_2 1_555 1_555
C44_2 O19_2 1_555 1_555
C45_2 C46 1_555 1_555
C46 H23 1_555 1_555
C47_2 C37_2 1_555 1_555
C48_2 C45_2 1_555 1_555
H24_2 C48_2 1_555 1_555
C49 C36 1_555 1_555
H25 C49 1_555 1_555
C50_2 C37_2 1_555 1_555
C62_2 C50_2 1_555 1_555
H35_2 C62_2 1_555 1_555
H36_2 C63_2 1_555 1_555
C64 H37 1_555 1_555
C65 C36 1_555 1_555
C66 C41_2 1_555 1_555
H38 C66 1_555 1_555
C67_2 C38_2 1_555 1_555
H39_2 C67_2 1_555 1_555
C68_2 C47_2 1_555 1_555
H40_2 C68_2 1_555 1_555
N6_2 Zn14 1_555 1_555
O20_2 C44_2 1_555 1_555
C44_2 C47_2 1_555 1_555
C46 C65 1_555 1_555
C48_2 C49 1_555 1_555
C62_2 C63_2 1_555 1_555
C64 C65 1_555 1_555
C64 C66 1_555 1_555
C67_2 C68_2 1_555 1_555
N4_2 C51_2 1_555 1_555
N6_2 C52_2 1_555 1_555
C51_2 H26_2 1_555 1_555
C52_2 H27_2 1_555 1_555
C53_2 C52_2 1_555 1_555
H28_2 C53_2 1_555 1_555
C54_2 C55_2 1_555 1_555
C55_2 C53_2 1_555 1_555
C56_2 C51_2 1_555 1_555
H29_2 C56_2 1_555 1_555
C57_2 C54_2 1_555 1_555
H30_2 C57_2 1_555 1_555
C58_2 N4_2 1_555 1_555
H31_2 C58_2 1_555 1_555
C59_2 C55_2 1_555 1_555
H32_2 C59_2 1_555 1_555
C60_2 N6_2 1_555 1_555
H33_2 C60_2 1_555 1_555
C54_2 C56_2 1_555 1_555
C57_2 C58_2 1_555 1_555
C59_2 C60_2 1_555 1_555
C46_2 H23_2 1_555 1_555
C49_2 C36_2 1_555 1_555
H25_2 C49_2 1_555 1_555
C64_2 H37_2 1_555 1_555
C65_2 C36_2 1_555 1_555
H38_2 C66_2 1_555 1_555
C46_2 C65_2 1_555 1_555
C64_2 C65_2 1_555 1_555
C64_2 C66_2 1_555 1_555
O16_2 C43_3 1_555 1_555
O18_2 C43_3 1_555 1_555
C40_3 C43_3 1_555 1_555
C63_3 C40_3 1_555 1_555
H36_3 C63_3 1_555 1_555
Zn11_2 O16_2 1_555 1_555
Zn14_2 O18_2 1_555 1_555
O15_2 C35_3 1_555 1_555
O17_2 C35_3 1_555 1_555
C35_3 C45_3 1_555 1_555
C48_3 C45_3 1_555 1_555
H24_3 C48_3 1_555 1_555
Zn11_2 O15_2 1_555 1_555
Zn14_2 O17_2 1_555 1_555
N4_3 C51_3 1_555 1_555
N5 C52_3 1_555 1_555
C51_3 H26_3 1_555 1_555
C52_3 H27_3 1_555 1_555
C53_3 C52_3 1_555 1_555
H28_3 C53_3 1_555 1_555
C54_3 C55_3 1_555 1_555
C55_3 C53_3 1_555 1_555
C56_3 C51_3 1_555 1_555
H29_3 C56_3 1_555 1_555
C57_3 C54_3 1_555 1_555
H30_3 C57_3 1_555 1_555
C58_3 N4_3 1_555 1_555
H31_3 C58_3 1_555 1_555
C59_3 C55_3 1_555 1_555
H32_3 C59_3 1_555 1_555
C60_3 N5 1_555 1_555
H33_3 C60_3 1_555 1_555
Zn12 N5 1_555 1_555
C54_3 C56_3 1_555 1_555
C57_3 C58_3 1_555 1_555
C59_3 C60_3 1_555 1_555
Zn12 O13_3 1_555 1_555
O13_3 C39_3 1_555 1_555
O14_3 Zn8_2 1_555 1_555
O19_3 Zn12 1_555 1_555
O20_3 Zn8_2 1_555 1_555
C37_3 H21_3 1_555 1_555
C38_3 C50_3 1_555 1_555
C39_3 O14_3 1_555 1_555
C41_3 C39_3 1_555 1_555
C42_3 C41_3 1_555 1_555
H22_3 C42_3 1_555 1_555
C44_3 O19_3 1_555 1_555
C47_3 C37_3 1_555 1_555
C50_3 C37_3 1_555 1_555
C61_3 C38_3 1_555 1_555
H34_3 C61_3 1_555 1_555
C62_3 C50_3 1_555 1_555
H35_3 C62_3 1_555 1_555
C67_3 C38_3 1_555 1_555
H39_3 C67_3 1_555 1_555
C68_3 C47_3 1_555 1_555
H40_3 C68_3 1_555 1_555
O21_2 Zn8_2 1_555 1_555
O22_2 Zn8_2 1_555 1_555
O23_2 Zn12 1_555 1_555
O24_2 Zn12 1_555 1_555
O20_3 C44_3 1_555 1_555
C44_3 C47_3 1_555 1_555
C67_3 C68_3 1_555 1_555
O22_2 C43_4 1_555 1_555
O24_2 C43_4 1_555 1_555
C40_4 C43_4 1_555 1_555
H34_4 C61_4 1_555 1_555
C40_4 C61_4 1_555 1_555
N4_4 C51_4 1_555 1_555
N5_2 C52_4 1_555 1_555
C51_4 H26_4 1_555 1_555
C52_4 H27_4 1_555 1_555
C53_4 C52_4 1_555 1_555
H28_4 C53_4 1_555 1_555
C54_4 C55_4 1_555 1_555
C55_4 C53_4 1_555 1_555
C56_4 C51_4 1_555 1_555
H29_4 C56_4 1_555 1_555
C57_4 C54_4 1_555 1_555
H30_4 C57_4 1_555 1_555
C58_4 N4_4 1_555 1_555
H31_4 C58_4 1_555 1_555
C59_4 C55_4 1_555 1_555
H32_4 C59_4 1_555 1_555
C60_4 N5_2 1_555 1_555
H33_4 C60_4 1_555 1_555
Zn14_2 N5_2 1_555 1_555
C54_4 C56_4 1_555 1_555
C57_4 C58_4 1_555 1_555
C59_4 C60_4 1_555 1_555
Zn14_2 O13_4 1_555 1_555
O13_4 C39_4 1_555 1_555
O14_4 Zn11_2 1_555 1_555
O21_2 C35_4 1_555 1_555
O23_2 C35_4 1_555 1_555
O19_4 Zn14_2 1_555 1_555
O20_4 Zn11_2 1_555 1_555
C35_4 C45_4 1_555 1_555
C36_3 C42_4 1_555 1_555
C37_4 H21_4 1_555 1_555
C38_4 C50_4 1_555 1_555
C39_4 O14_4 1_555 1_555
C41_4 C39_4 1_555 1_555
C42_4 C41_4 1_555 1_555
H22_4 C42_4 1_555 1_555
C44_4 O19_4 1_555 1_555
C45_4 C46_3 1_555 1_555
C46_3 H23_3 1_555 1_555
C47_4 C37_4 1_555 1_555
C48_4 C45_4 1_555 1_555
H24_4 C48_4 1_555 1_555
C49_3 C36_3 1_555 1_555
H25_3 C49_3 1_555 1_555
C50_4 C37_4 1_555 1_555
C62_4 C50_4 1_555 1_555
H35_4 C62_4 1_555 1_555
H36_4 C63_4 1_555 1_555
C64_3 H37_3 1_555 1_555
C65_3 C36_3 1_555 1_555
C66_3 C41_4 1_555 1_555
H38_3 C66_3 1_555 1_555
C67_4 C38_4 1_555 1_555
H39_4 C67_4 1_555 1_555
C68_4 C47_4 1_555 1_555
H40_4 C68_4 1_555 1_555
O20_4 C44_4 1_555 1_555
C44_4 C47_4 1_555 1_555
C46_3 C65_3 1_555 1_555
C48_4 C49_3 1_555 1_555
C62_4 C63_4 1_555 1_555
C64_3 C65_3 1_555 1_555
C64_3 C66_3 1_555 1_555
C67_4 C68_4 1_555 1_555
C46_4 H23_4 1_555 1_555
C49_4 C36_4 1_555 1_555
H25_4 C49_4 1_555 1_555
C64_4 H37_4 1_555 1_555
C65_4 C36_4 1_555 1_555
H38_4 C66_4 1_555 1_555
C46_4 C65_4 1_555 1_555
C64_4 C65_4 1_555 1_555
C64_4 C66_4 1_555 1_555

#END
