
###############################################################################
#
# This file contains modified crystal structure data generated from the
# MOF subset of the Cambridge Structural Database (CSD) v543 
# hosted by the Cambridge Crystallographic Data Centre (CCDC).
#
# This work is licensed under the Creative Commons
# Attribution-NonCommercial-ShareAlike 4.0 International License.
# To view a copy of this license, visit
# http://creativecommons.org/licenses/by-nc-sa/4.0/
# or send a letter to
# Creative Commons, PO Box 1866, Mountain View, CA 94042, USA.
#
# CIF created using the CSD Python API on 29 September 2022
# The structure has been converted into the P1 space group
# The structure has a 3D framework
# The original CSD entry ROBZAL is in the monoclinic crystal system
# The original CSD entry ROBZAL is in a Sohncke space group
# The framework has been calculated to contain at least 10.0% void space
# The void calculation uses a probe of radius 1.32A, grid spacing 0.4
#
###############################################################################

data_ROBZAL
_chemical_formula_moiety         '(C204 H120 N12 O48 Zn12)n'
_symmetry_cell_setting           triclinic
_symmetry_space_group_name_H-M   'P 1'
_symmetry_Int_Tables_number      1
_space_group_name_Hall           'P 1'
loop_
_symmetry_equiv_pos_site_id
_symmetry_equiv_pos_as_xyz
1 x,y,z
_cell_length_a                   17.1323(14)
_cell_length_b                   19.8444(16)
_cell_length_c                   14.0625(12)
_cell_angle_alpha                90
_cell_angle_beta                 96.1590(10)
_cell_angle_gamma                90
_cell_volume                     4753.38
loop_
_atom_site_label
_atom_site_type_symbol
_atom_site_fract_x
_atom_site_fract_y
_atom_site_fract_z
Zn7 Zn 0.00302(5) 0.12701(4) 0.39587(5)
O3 O 0.0774(5) 0.0511(4) 0.5925(5)
O4 O 0.0893(4) 0.0559(3) 0.4359(6)
C12 C 0.1023(6) 0.0322(4) 0.5164(8)
O7 O 0.9226(5) 0.0511(4) 0.4075(5)
O8 O 0.9107(4) 0.0559(3) 0.5641(6)
C34 C 0.8977(6) 0.0322(4) 0.4836(8)
Zn5 Zn 0.99698(5) 0.12701(4) 0.60413(5)
N2 N 0.5016(3) 0.6258(6) 0.2499(4)
C18 C 0.5614(5) 0.6521(5) 0.2092(5)
H11 H 0.6041 0.6712 0.2488
C19 C 0.5632(5) 0.6527(6) 0.1106(5)
H12 H 0.6065 0.6715 0.0830
C20 C 0.5006(4) 0.6253(7) 0.0537(4)
C21 C 0.4390(5) 0.5967(5) 0.0961(6)
H13 H 0.3958 0.5767 0.0585
C22 C 0.4423(5) 0.5983(5) 0.1949(5)
H14 H 0.4003 0.5789 0.2244
Zn3 Zn 0.50302(5) 0.62701(4) 0.39587(5)
Zn1 Zn 0.49698(5) 0.62701(4) 0.60413(5)
O1 O 0.4175(5) 0.6992(4) 0.5690(6)
O2 O 0.4189(5) 0.6953(4) 0.4095(6)
N1 N 0.4984(3) 0.6258(6) 0.7501(4)
C1 C 0.2998(6) 0.7987(5) 0.5484(8)
H1 H 0.3042 0.7715 0.6043
C2 C 0.3403(6) 0.7800(5) 0.4739(8)
C3 C 0.3267(5) 0.8144(5) 0.3861(6)
H2 H 0.3508 0.7993 0.3322
C4 C 0.2794(6) 0.8686(5) 0.3789(7)
H3 H 0.2700 0.8915 0.3195
C5 C 0.2432(6) 0.8923(5) 0.4591(8)
C6 C 0.2528(6) 0.8556(5) 0.5460(8)
C7 C 0.2100(6) 0.8760(5) 0.6218(8)
H4 H 0.2135 0.8506 0.6795
C8 C 0.1642(6) 0.9313(5) 0.6121(8)
H5 H 0.1363 0.9442 0.6642
C9 C 0.1553(6) 0.9722(5) 0.5259(8)
C10 C 0.1939(6) 0.9513(5) 0.4501(7)
H6 H 0.1881 0.9759 0.3917
C11 C 0.3959(6) 0.7215(5) 0.4830(8)
C13 C 0.4386(5) 0.6521(5) 0.7908(5)
H7 H 0.3959 0.6712 0.7512
C14 C 0.4368(5) 0.6527(6) 0.8894(5)
H8 H 0.3935 0.6715 0.9170
C15 C 0.4994(4) 0.6253(7) 0.9463(4)
C16 C 0.5610(5) 0.5967(5) 0.9039(6)
H9 H 0.6042 0.5767 0.9415
C17 C 0.5577(5) 0.5983(5) 0.8051(5)
H10 H 0.5997 0.5789 0.7756
O5 O 0.5825(5) 0.6992(4) 0.4310(6)
O6 O 0.5811(5) 0.6953(4) 0.5905(6)
C23 C 0.7002(6) 0.7987(5) 0.4516(8)
H15 H 0.6958 0.7715 0.3957
C24 C 0.6597(6) 0.7800(5) 0.5261(8)
C25 C 0.6733(5) 0.8144(5) 0.6139(6)
H16 H 0.6492 0.7993 0.6678
C26 C 0.7206(6) 0.8686(5) 0.6211(7)
H17 H 0.7300 0.8915 0.6805
C27 C 0.7568(6) 0.8923(5) 0.5409(8)
C28 C 0.7472(6) 0.8556(5) 0.4540(8)
C29 C 0.7900(6) 0.8760(5) 0.3782(8)
H18 H 0.7865 0.8506 0.3205
C30 C 0.8358(6) 0.9313(5) 0.3879(8)
H19 H 0.8637 0.9442 0.3358
C31 C 0.8447(6) 0.9722(5) 0.4741(8)
C32 C 0.8061(6) 0.9513(5) 0.5499(7)
H20 H 0.8119 0.9759 0.6083
C33 C 0.6041(6) 0.7215(5) 0.5170(8)
O9 O 0.5774(5) 0.5511(4) 0.5925(5)
O10 O 0.4226(5) 0.5511(4) 0.4075(5)
O11 O 0.5893(4) 0.5559(3) 0.4359(6)
O12 O 0.4107(4) 0.5559(3) 0.5641(6)
N2_2 N 0.0016(3) 0.1258(6) 0.2499(4)
C18_2 C 0.0614(5) 0.1521(5) 0.2092(5)
H11_2 H 0.1041 0.1712 0.2488
C19_2 C 0.0632(5) 0.1527(6) 0.1106(5)
H12_2 H 0.1065 0.1715 0.0830
C20_2 C 0.0006(4) 0.1253(7) 0.0537(4)
C16_2 C 0.0610(5) 0.0967(5) 0.9039(6)
H9_2 H 0.1042 0.0767 0.9415
C17_2 C 0.0577(5) 0.0983(5) 0.8051(5)
H10_2 H 0.0997 0.0789 0.7756
O5_2 O 0.0825(5) 0.1992(4) 0.4310(6)
O6_2 O 0.0811(5) 0.1953(4) 0.5905(6)
C23_2 C 0.2002(6) 0.2987(5) 0.4516(8)
H15_2 H 0.1958 0.2715 0.3957
C24_2 C 0.1597(6) 0.2800(5) 0.5261(8)
C25_2 C 0.1733(5) 0.3144(5) 0.6139(6)
H16_2 H 0.1492 0.2993 0.6678
C26_2 C 0.2206(6) 0.3686(5) 0.6211(7)
H17_2 H 0.2300 0.3915 0.6805
C27_2 C 0.2568(6) 0.3923(5) 0.5409(8)
C28_2 C 0.2472(6) 0.3556(5) 0.4540(8)
C29_2 C 0.2900(6) 0.3760(5) 0.3782(8)
H18_2 H 0.2865 0.3506 0.3205
C30_2 C 0.3358(6) 0.4313(5) 0.3879(8)
H19_2 H 0.3637 0.4442 0.3358
C31_2 C 0.3447(6) 0.4722(5) 0.4741(8)
C32_2 C 0.3061(6) 0.4513(5) 0.5499(7)
H20_2 H 0.3119 0.4759 0.6083
C33_2 C 0.1041(6) 0.2215(5) 0.5170(8)
C34_2 C 0.3977(6) 0.5322(4) 0.4836(8)
C21_2 C 0.9390(5) 0.0967(5) 0.0961(6)
H13_2 H 0.8958 0.0767 0.0585
C22_2 C 0.9423(5) 0.0983(5) 0.1949(5)
H14_2 H 0.9003 0.0789 0.2244
O1_2 O 0.9175(5) 0.1992(4) 0.5690(6)
O2_2 O 0.9189(5) 0.1953(4) 0.4095(6)
N1_2 N 0.9984(3) 0.1258(6) 0.7501(4)
C1_2 C 0.7998(6) 0.2987(5) 0.5484(8)
H1_2 H 0.8042 0.2715 0.6043
C2_2 C 0.8403(6) 0.2800(5) 0.4739(8)
C3_2 C 0.8267(5) 0.3144(5) 0.3861(6)
H2_2 H 0.8508 0.2993 0.3322
C4_2 C 0.7794(6) 0.3686(5) 0.3789(7)
H3_2 H 0.7700 0.3915 0.3195
C5_2 C 0.7432(6) 0.3923(5) 0.4591(8)
C6_2 C 0.7528(6) 0.3556(5) 0.5460(8)
C7_2 C 0.7100(6) 0.3760(5) 0.6218(8)
H4_2 H 0.7135 0.3506 0.6795
C8_2 C 0.6642(6) 0.4313(5) 0.6121(8)
H5_2 H 0.6363 0.4442 0.6642
C9_2 C 0.6553(6) 0.4722(5) 0.5259(8)
C10_2 C 0.6939(6) 0.4513(5) 0.4501(7)
H6_2 H 0.6881 0.4759 0.3917
C11_2 C 0.8959(6) 0.2215(5) 0.4830(8)
C12_2 C 0.6023(6) 0.5322(4) 0.5164(8)
C13_2 C 0.9386(5) 0.1521(5) 0.7908(5)
H7_2 H 0.8959 0.1712 0.7512
C14_2 C 0.9368(5) 0.1527(6) 0.8894(5)
H8_2 H 0.8935 0.1715 0.9170
C15_2 C 0.9994(4) 0.1253(7) 0.9463(4)
Zn8 Zn 0.33368(4) 0.16032(5) 0.05636(5)
Zn9 Zn 0.32594(4) 0.16049(5) 0.26488(5)
O13 O 0.2528(5) 0.2334(4) 0.0677(6)
O14 O 0.2428(5) 0.2304(4) 0.2250(6)
O17 O 0.2499(5) 0.0869(4) 0.0700(5)
O18 O 0.2430(5) 0.0888(3) 0.2277(6)
C35 C 0.1246(7) 0.3311(7) 0.1995(8)
H21 H 0.1227 0.2997 0.2502
C36 C 0.1731(6) 0.3177(5) 0.1340(8)
C37 C 0.1716(8) 0.3572(7) 0.0528(10)
H22 H 0.1992 0.3441 0.0007
C38 C 0.1299(8) 0.4147(7) 0.0499(9)
C39 C 0.0818(7) 0.4325(6) 0.1233(9)
C40 C 0.0769(7) 0.3873(7) 0.1993(9)
C41 C 0.0227(6) 0.4000(6) 0.2655(8)
H24 H 0.0175 0.3690 0.3159
C44 C 0.0314(7) 0.4907(6) 0.1146(9)
H26 H 0.0320 0.5195 0.0607
C45 C 0.2265(6) 0.2575(5) 0.1414(8)
H27 H 0.1281 0.0191 0.2619
C48 C 0.1767(6) 0.0048(4) 0.1372(7)
C57 C 0.2271(6) 0.0661(4) 0.1476(7)
O21 O 0.4171(5) 0.0884(4) 0.0910(6)
O22 O 0.4076(5) 0.0868(4) 0.2467(6)
O23 O 0.4169(5) 0.2298(4) 0.0968(6)
O24 O 0.4077(5) 0.2324(4) 0.2537(6)
N6 N 0.3253(3) 0.1632(6) 0.4094(3)
N4 N 0.3321(3) 0.1623(6) 0.9121(4)
H23 H 0.1325 0.4445 0.9974
C59 C 0.2649(4) 0.1696(6) 0.8568(5)
H33 H 0.2178 0.1739 0.8864
C60 C 0.2604(4) 0.1713(5) 0.7576(5)
H34 H 0.2110 0.1761 0.7206
C61 C 0.3287(4) 0.1659(7) 0.7130(4)
C62 C 0.3989(4) 0.1623(7) 0.7704(5)
H35 H 0.4472 0.1612 0.7430
C63 C 0.3981(4) 0.1604(6) 0.8680(5)
H36 H 0.4469 0.1575 0.9067
C64 C 0.3786(5) 0.1992(5) 0.4650(5)
H37 H 0.4159 0.2247 0.4347
C65 C 0.3825(5) 0.2013(4) 0.5630(5)
H38 H 0.4217 0.2273 0.5993
C66 C 0.3276(4) 0.1645(7) 0.6079(4)
C67 C 0.2723(5) 0.1316(6) 0.5501(5)
H39 H 0.2322 0.1079 0.5779
C68 C 0.2720(5) 0.1312(6) 0.4526(5)
H40 H 0.2319 0.1071 0.4150
O15 O 0.9171(5) 0.5884(4) 0.0910(6)
O16 O 0.9076(5) 0.5868(4) 0.2467(6)
C42 C 0.9769(6) 0.4577(6) 0.2573(7)
H25 H 0.9405 0.4660 0.3025
C43 C 0.9838(6) 0.5050(5) 0.1814(8)
C46 C 0.9326(6) 0.5660(5) 0.1730(8)
Zn11 Zn 0.83368(4) 0.66032(5) 0.05636(5)
Zn14 Zn 0.82594(4) 0.66049(5) 0.26488(5)
O19 O 0.9169(5) 0.7298(4) 0.0968(6)
O20 O 0.9077(5) 0.7324(4) 0.2537(6)
C54 C 0.9895(6) 0.8566(5) 0.2696(7)
H31 H 0.9595 0.8452 0.3203
C55 C 0.9891(6) 0.8147(5) 0.1902(8)
C58 C 0.9351(6) 0.7556(5) 0.1798(8)
C43_2 C 0.4838(6) 0.0050(5) 0.1814(8)
H26_2 H 0.5320 0.0195 0.0607
C46_2 C 0.4326(6) 0.0660(5) 0.1730(8)
O13_2 O 0.7528(5) 0.7334(4) 0.0677(6)
O14_2 O 0.7428(5) 0.7304(4) 0.2250(6)
O17_2 O 0.7499(5) 0.5869(4) 0.0700(5)
O18_2 O 0.7430(5) 0.5888(3) 0.2277(6)
C35_2 C 0.6246(7) 0.8311(7) 0.1995(8)
H21_2 H 0.6227 0.7997 0.2502
C36_2 C 0.6731(6) 0.8177(5) 0.1340(8)
C37_2 C 0.6716(8) 0.8572(7) 0.0528(10)
H22_2 H 0.6992 0.8441 0.0007
C38_2 C 0.6299(8) 0.9147(7) 0.0499(9)
C39_2 C 0.5818(7) 0.9325(6) 0.1233(9)
C40_2 C 0.5769(7) 0.8873(7) 0.1993(9)
C41_2 C 0.5227(6) 0.9000(6) 0.2655(8)
H24_2 H 0.5175 0.8690 0.3159
C42_2 C 0.4769(6) 0.9577(6) 0.2573(7)
H25_2 H 0.4405 0.9660 0.3025
C44_2 C 0.5314(7) 0.9907(6) 0.1146(9)
C45_2 C 0.7265(6) 0.7575(5) 0.1414(8)
C47 C 0.6288(6) 0.4901(5) 0.2083(7)
H27_2 H 0.6281 0.5191 0.2619
C48_2 C 0.6767(6) 0.5048(4) 0.1372(7)
C49 C 0.6790(6) 0.4596(5) 0.0595(7)
H28 H 0.7124 0.4693 0.0115
C50 C 0.6335(6) 0.4017(5) 0.0518(7)
C51 C 0.5830(6) 0.3867(5) 0.1218(8)
C52 C 0.5811(6) 0.4314(5) 0.2004(8)
C53 C 0.5330(6) 0.4135(5) 0.2737(7)
H30 H 0.5316 0.4427 0.3271
C54_2 C 0.4895(6) 0.3566(5) 0.2696(7)
H31_2 H 0.4595 0.3452 0.3203
C55_2 C 0.4891(6) 0.3147(5) 0.1902(8)
C56 C 0.5380(6) 0.3286(5) 0.1203(7)
H32 H 0.5409 0.2973 0.0698
C57_2 C 0.7271(6) 0.5661(4) 0.1476(7)
C58_2 C 0.4351(6) 0.2556(5) 0.1798(8)
N6_2 N 0.8253(3) 0.6632(6) 0.4094(3)
N4_2 N 0.8321(3) 0.6623(6) 0.9121(4)
H23_2 H 0.6325 0.9445 0.9974
H29 H 0.6364 0.3721 0.9993
C59_2 C 0.7649(4) 0.6696(6) 0.8568(5)
H33_2 H 0.7178 0.6739 0.8864
C60_2 C 0.7604(4) 0.6713(5) 0.7576(5)
H34_2 H 0.7110 0.6761 0.7206
C61_2 C 0.8287(4) 0.6659(7) 0.7130(4)
C62_2 C 0.8989(4) 0.6623(7) 0.7704(5)
H35_2 H 0.9472 0.6612 0.7430
C63_2 C 0.8981(4) 0.6604(6) 0.8680(5)
H36_2 H 0.9469 0.6575 0.9067
C64_2 C 0.8786(5) 0.6992(5) 0.4650(5)
H37_2 H 0.9159 0.7247 0.4347
C65_2 C 0.8825(5) 0.7013(4) 0.5630(5)
H38_2 H 0.9217 0.7273 0.5993
C66_2 C 0.8276(4) 0.6645(7) 0.6079(4)
C67_2 C 0.7723(5) 0.6316(6) 0.5501(5)
H39_2 H 0.7322 0.6079 0.5779
C68_2 C 0.7720(5) 0.6312(6) 0.4526(5)
H40_2 H 0.7319 0.6071 0.4150
C47_2 C 0.1288(6) 0.9901(5) 0.2083(7)
C49_2 C 0.1790(6) 0.9596(5) 0.0595(7)
H28_2 H 0.2124 0.9693 0.0115
C50_2 C 0.1335(6) 0.9017(5) 0.0518(7)
C51_2 C 0.0830(6) 0.8867(5) 0.1218(8)
C52_2 C 0.0811(6) 0.9314(5) 0.2004(8)
C53_2 C 0.0330(6) 0.9135(5) 0.2737(7)
H30_2 H 0.0316 0.9427 0.3271
C56_2 C 0.0380(6) 0.8286(5) 0.1203(7)
H32_2 H 0.0409 0.7973 0.0698
H29_2 H 0.1364 0.8721 0.9993
O15_2 O 0.0829(5) 0.5884(4) 0.9090(6)
O16_2 O 0.0924(5) 0.5868(4) 0.7533(6)
C42_3 C 0.0231(6) 0.4577(6) 0.7427(7)
H25_3 H 0.0595 0.4660 0.6975
C43_3 C 0.0162(6) 0.5050(5) 0.8186(8)
C46_3 C 0.0674(6) 0.5660(5) 0.8270(8)
Zn11_2 Zn 0.16632(4) 0.66032(5) 0.94364(5)
Zn14_2 Zn 0.17406(4) 0.66049(5) 0.73512(5)
O19_2 O 0.0831(5) 0.7298(4) 0.9032(6)
O20_2 O 0.0923(5) 0.7324(4) 0.7463(6)
C54_3 C 0.0105(6) 0.8566(5) 0.7304(7)
H31_3 H 0.0405 0.8452 0.6797
C55_3 C 0.0109(6) 0.8147(5) 0.8098(8)
C58_3 C 0.0649(6) 0.7556(5) 0.8202(8)
N4_3 N 0.6679(3) 0.1623(6) 0.0879(4)
N5 N 0.6747(3) 0.1632(6) 0.5906(3)
H23_3 H 0.8675 0.4445 0.0026
C59_3 C 0.7351(4) 0.1696(6) 0.1432(5)
H33_3 H 0.7822 0.1739 0.1136
C60_3 C 0.7396(4) 0.1713(5) 0.2424(5)
H34_3 H 0.7890 0.1761 0.2794
C61_3 C 0.6713(4) 0.1659(7) 0.2870(4)
C62_3 C 0.6011(4) 0.1623(7) 0.2296(5)
H35_3 H 0.5528 0.1612 0.2570
C63_3 C 0.6019(4) 0.1604(6) 0.1320(5)
H36_3 H 0.5531 0.1575 0.0933
C64_3 C 0.6214(5) 0.1992(5) 0.5350(5)
H37_3 H 0.5841 0.2247 0.5653
C65_3 C 0.6175(5) 0.2013(4) 0.4370(5)
H38_3 H 0.5783 0.2273 0.4007
C66_3 C 0.6724(4) 0.1645(7) 0.3921(4)
C67_3 C 0.7277(5) 0.1316(6) 0.4499(5)
H39_3 H 0.7678 0.1079 0.4221
C68_3 C 0.7280(5) 0.1312(6) 0.5474(5)
H40_3 H 0.7681 0.1071 0.5850
Zn12 Zn 0.67406(4) 0.16049(5) 0.73512(5)
Zn8_2 Zn 0.66632(4) 0.16032(5) 0.94364(5)
O13_3 O 0.7472(5) 0.2334(4) 0.9323(6)
O14_3 O 0.7572(5) 0.2304(4) 0.7750(6)
O17_3 O 0.7501(5) 0.0869(4) 0.9300(5)
O18_3 O 0.7570(5) 0.0888(3) 0.7723(6)
C35_3 C 0.8754(7) 0.3311(7) 0.8005(8)
H21_3 H 0.8773 0.2997 0.7498
C36_3 C 0.8269(6) 0.3177(5) 0.8660(8)
C37_3 C 0.8284(8) 0.3572(7) 0.9472(10)
H22_3 H 0.8008 0.3441 0.9993
C38_3 C 0.8701(8) 0.4147(7) 0.9501(9)
C39_3 C 0.9182(7) 0.4325(6) 0.8767(9)
C40_3 C 0.9231(7) 0.3873(7) 0.8007(9)
C41_3 C 0.9773(6) 0.4000(6) 0.7345(8)
H24_3 H 0.9825 0.3690 0.6841
C44_3 C 0.9686(7) 0.4907(6) 0.8854(9)
H26_3 H 0.9680 0.5195 0.9393
C45_3 C 0.7735(6) 0.2575(5) 0.8586(8)
H27_3 H 0.8719 0.0191 0.7381
C48_3 C 0.8233(6) 0.0048(4) 0.8628(7)
C57_3 C 0.7729(6) 0.0661(4) 0.8524(7)
O21_2 O 0.5829(5) 0.0884(4) 0.9090(6)
O22_2 O 0.5924(5) 0.0868(4) 0.7533(6)
O23_2 O 0.5831(5) 0.2298(4) 0.9032(6)
O24_2 O 0.5923(5) 0.2324(4) 0.7463(6)
C43_4 C 0.5162(6) 0.0050(5) 0.8186(8)
H26_4 H 0.4680 0.0195 0.9393
C46_4 C 0.5674(6) 0.0660(5) 0.8270(8)
N4_4 N 0.1679(3) 0.6623(6) 0.0879(4)
N5_2 N 0.1747(3) 0.6632(6) 0.5906(3)
H23_4 H 0.3675 0.9445 0.0026
H29_3 H 0.3636 0.3721 0.0007
C59_4 C 0.2351(4) 0.6696(6) 0.1432(5)
H33_4 H 0.2822 0.6739 0.1136
C60_4 C 0.2396(4) 0.6713(5) 0.2424(5)
H34_4 H 0.2890 0.6761 0.2794
C61_4 C 0.1713(4) 0.6659(7) 0.2870(4)
C62_4 C 0.1011(4) 0.6623(7) 0.2296(5)
H35_4 H 0.0528 0.6612 0.2570
C63_4 C 0.1019(4) 0.6604(6) 0.1320(5)
H36_4 H 0.0531 0.6575 0.0933
C64_4 C 0.1214(5) 0.6992(5) 0.5350(5)
H37_4 H 0.0841 0.7247 0.5653
C65_4 C 0.1175(5) 0.7013(4) 0.4370(5)
H38_4 H 0.0783 0.7273 0.4007
C66_4 C 0.1724(4) 0.6645(7) 0.3921(4)
C67_4 C 0.2277(5) 0.6316(6) 0.4499(5)
H39_4 H 0.2678 0.6079 0.4221
C68_4 C 0.2280(5) 0.6312(6) 0.5474(5)
H40_4 H 0.2681 0.6071 0.5850
O13_4 O 0.2472(5) 0.7334(4) 0.9323(6)
O14_4 O 0.2572(5) 0.7304(4) 0.7750(6)
O17_4 O 0.2501(5) 0.5869(4) 0.9300(5)
O18_4 O 0.2570(5) 0.5888(3) 0.7723(6)
C35_4 C 0.3754(7) 0.8311(7) 0.8005(8)
H21_4 H 0.3773 0.7997 0.7498
C36_4 C 0.3269(6) 0.8177(5) 0.8660(8)
C37_4 C 0.3284(8) 0.8572(7) 0.9472(10)
H22_4 H 0.3008 0.8441 0.9993
C38_4 C 0.3701(8) 0.9147(7) 0.9501(9)
C39_4 C 0.4182(7) 0.9325(6) 0.8767(9)
C40_4 C 0.4231(7) 0.8873(7) 0.8007(9)
C41_4 C 0.4773(6) 0.9000(6) 0.7345(8)
H24_4 H 0.4825 0.8690 0.6841
C42_4 C 0.5231(6) 0.9577(6) 0.7427(7)
H25_4 H 0.5595 0.9660 0.6975
C44_4 C 0.4686(7) 0.9907(6) 0.8854(9)
C45_4 C 0.2735(6) 0.7575(5) 0.8586(8)
C47_3 C 0.3712(6) 0.4901(5) 0.7917(7)
H27_4 H 0.3719 0.5191 0.7381
C48_4 C 0.3233(6) 0.5048(4) 0.8628(7)
C49_3 C 0.3210(6) 0.4596(5) 0.9405(7)
H28_3 H 0.2876 0.4693 0.9885
C50_3 C 0.3665(6) 0.4017(5) 0.9482(7)
C51_3 C 0.4170(6) 0.3867(5) 0.8782(8)
C52_3 C 0.4189(6) 0.4314(5) 0.7996(8)
C53_3 C 0.4670(6) 0.4135(5) 0.7263(7)
H30_3 H 0.4684 0.4427 0.6729
C54_4 C 0.5105(6) 0.3566(5) 0.7304(7)
H31_4 H 0.5405 0.3452 0.6797
C55_4 C 0.5109(6) 0.3147(5) 0.8098(8)
C56_3 C 0.4620(6) 0.3286(5) 0.8797(7)
H32_3 H 0.4591 0.2973 0.9302
C57_4 C 0.2729(6) 0.5661(4) 0.8524(7)
C58_4 C 0.5649(6) 0.2556(5) 0.8202(8)
H29_4 H 0.8636 0.8721 0.0007
C47_4 C 0.8712(6) 0.9901(5) 0.7917(7)
C49_4 C 0.8210(6) 0.9596(5) 0.9405(7)
H28_4 H 0.7876 0.9693 0.9885
C50_4 C 0.8665(6) 0.9017(5) 0.9482(7)
C51_4 C 0.9170(6) 0.8867(5) 0.8782(8)
C52_4 C 0.9189(6) 0.9314(5) 0.7996(8)
C53_4 C 0.9670(6) 0.9135(5) 0.7263(7)
H30_4 H 0.9684 0.9427 0.6729
C56_4 C 0.9620(6) 0.8286(5) 0.8797(7)
H32_4 H 0.9591 0.7973 0.9302
loop_
_geom_bond_atom_site_label_1
_geom_bond_atom_site_label_2
_geom_bond_site_symmetry_1
_geom_bond_site_symmetry_2
O3 C12 1_555 1_555
O4 C12 1_555 1_555
O7 C34 1_555 1_555
O8 C34 1_555 1_555
Zn5 O8 1_555 1_555
Zn7 O4 1_555 1_555
N2 C18 1_555 1_555
C18 H11 1_555 1_555
C19 C18 1_555 1_555
H12 C19 1_555 1_555
C21 C20 1_555 1_555
H13 C21 1_555 1_555
C22 N2 1_555 1_555
H14 C22 1_555 1_555
Zn3 N2 1_555 1_555
C19 C20 1_555 1_555
C21 C22 1_555 1_555
Zn1 O1 1_555 1_555
O1 C11 1_555 1_555
O2 C11 1_555 1_555
N1 Zn1 1_555 1_555
C1 H1 1_555 1_555
C2 C1 1_555 1_555
C3 C2 1_555 1_555
H2 C3 1_555 1_555
C4 C3 1_555 1_555
H3 C4 1_555 1_555
C5 C4 1_555 1_555
C6 C1 1_555 1_555
C7 C6 1_555 1_555
H4 C7 1_555 1_555
C8 C7 1_555 1_555
H5 C8 1_555 1_555
C9 C8 1_555 1_555
C10 C5 1_555 1_555
H6 C10 1_555 1_555
C11 C2 1_555 1_555
C13 N1 1_555 1_555
H7 C13 1_555 1_555
C14 C13 1_555 1_555
H8 C14 1_555 1_555
C15 C14 1_555 1_555
C16 C15 1_555 1_555
H9 C16 1_555 1_555
C17 N1 1_555 1_555
H10 C17 1_555 1_555
Zn3 O2 1_555 1_555
O5 Zn3 1_555 1_555
O6 Zn1 1_555 1_555
C23 H15 1_555 1_555
C24 C23 1_555 1_555
C25 C24 1_555 1_555
H16 C25 1_555 1_555
C26 C25 1_555 1_555
H17 C26 1_555 1_555
C27 C26 1_555 1_555
C28 C23 1_555 1_555
C29 C28 1_555 1_555
H18 C29 1_555 1_555
C30 C29 1_555 1_555
H19 C30 1_555 1_555
C31 C30 1_555 1_555
C32 C27 1_555 1_555
H20 C32 1_555 1_555
C33 O5 1_555 1_555
O9 Zn1 1_555 1_555
O10 Zn3 1_555 1_555
O11 Zn3 1_555 1_555
O12 Zn1 1_555 1_555
C5 C6 1_555 1_555
C9 C10 1_555 1_555
C16 C17 1_555 1_555
O6 C33 1_555 1_555
C24 C33 1_555 1_555
C27 C28 1_555 1_555
C31 C32 1_555 1_555
N2_2 C18_2 1_555 1_555
C18_2 H11_2 1_555 1_555
C19_2 C18_2 1_555 1_555
H12_2 C19_2 1_555 1_555
Zn7 N2_2 1_555 1_555
C19_2 C20_2 1_555 1_555
H9_2 C16_2 1_555 1_555
H10_2 C17_2 1_555 1_555
O5_2 Zn7 1_555 1_555
O10 C34_2 1_555 1_555
O12 C34_2 1_555 1_555
C23_2 H15_2 1_555 1_555
C24_2 C23_2 1_555 1_555
C25_2 C24_2 1_555 1_555
H16_2 C25_2 1_555 1_555
C26_2 C25_2 1_555 1_555
H17_2 C26_2 1_555 1_555
C27_2 C26_2 1_555 1_555
C28_2 C23_2 1_555 1_555
C29_2 C28_2 1_555 1_555
H18_2 C29_2 1_555 1_555
C30_2 C29_2 1_555 1_555
H19_2 C30_2 1_555 1_555
C31_2 C30_2 1_555 1_555
C32_2 C27_2 1_555 1_555
H20_2 C32_2 1_555 1_555
C33_2 O5_2 1_555 1_555
C34_2 C31_2 1_555 1_555
C16_2 C17_2 1_555 1_555
O6_2 C33_2 1_555 1_555
C24_2 C33_2 1_555 1_555
C27_2 C28_2 1_555 1_555
C31_2 C32_2 1_555 1_555
H13_2 C21_2 1_555 1_555
H14_2 C22_2 1_555 1_555
C21_2 C22_2 1_555 1_555
Zn5 O1_2 1_555 1_555
O1_2 C11_2 1_555 1_555
O2_2 C11_2 1_555 1_555
O9 C12_2 1_555 1_555
O11 C12_2 1_555 1_555
N1_2 Zn5 1_555 1_555
C1_2 H1_2 1_555 1_555
C2_2 C1_2 1_555 1_555
C3_2 C2_2 1_555 1_555
H2_2 C3_2 1_555 1_555
C4_2 C3_2 1_555 1_555
H3_2 C4_2 1_555 1_555
C5_2 C4_2 1_555 1_555
C6_2 C1_2 1_555 1_555
C7_2 C6_2 1_555 1_555
H4_2 C7_2 1_555 1_555
C8_2 C7_2 1_555 1_555
H5_2 C8_2 1_555 1_555
C9_2 C8_2 1_555 1_555
C10_2 C5_2 1_555 1_555
H6_2 C10_2 1_555 1_555
C11_2 C2_2 1_555 1_555
C12_2 C9_2 1_555 1_555
C13_2 N1_2 1_555 1_555
H7_2 C13_2 1_555 1_555
C14_2 C13_2 1_555 1_555
H8_2 C14_2 1_555 1_555
C15_2 C14_2 1_555 1_555
C5_2 C6_2 1_555 1_555
C9_2 C10_2 1_555 1_555
Zn8 O13 1_555 1_555
Zn9 O14 1_555 1_555
O13 C45 1_555 1_555
O14 C45 1_555 1_555
O17 Zn8 1_555 1_555
O18 Zn9 1_555 1_555
C35 H21 1_555 1_555
C36 C35 1_555 1_555
C37 C36 1_555 1_555
H22 C37 1_555 1_555
C38 C37 1_555 1_555
C39 C38 1_555 1_555
C40 C35 1_555 1_555
C41 C40 1_555 1_555
H24 C41 1_555 1_555
C44 C39 1_555 1_555
H26 C44 1_555 1_555
C45 C36 1_555 1_555
C57 O17 1_555 1_555
O21 Zn8 1_555 1_555
O22 Zn9 1_555 1_555
O23 Zn8 1_555 1_555
O24 Zn9 1_555 1_555
N6 Zn9 1_555 1_555
O18 C57 1_555 1_555
C39 C40 1_555 1_555
C48 C57 1_555 1_555
N6 C64 1_555 1_555
C59 N4 1_555 1_555
H33 C59 1_555 1_555
C60 C59 1_555 1_555
H34 C60 1_555 1_555
C61 C60 1_555 1_555
C62 C61 1_555 1_555
H35 C62 1_555 1_555
C63 N4 1_555 1_555
H36 C63 1_555 1_555
C64 H37 1_555 1_555
C65 C64 1_555 1_555
H38 C65 1_555 1_555
C66 C61 1_555 1_555
C67 C66 1_555 1_555
H39 C67 1_555 1_555
C68 N6 1_555 1_555
H40 C68 1_555 1_555
C62 C63 1_555 1_555
C65 C66 1_555 1_555
C67 C68 1_555 1_555
O15 C46 1_555 1_555
O16 C46 1_555 1_555
H25 C42 1_555 1_555
C43 C42 1_555 1_555
C46 C43 1_555 1_555
Zn11 O15 1_555 1_555
Zn14 O16 1_555 1_555
O19 C58 1_555 1_555
O20 C58 1_555 1_555
H31 C54 1_555 1_555
C55 C54 1_555 1_555
C58 C55 1_555 1_555
Zn11 O19 1_555 1_555
Zn14 O20 1_555 1_555
O21 C46_2 1_555 1_555
O22 C46_2 1_555 1_555
C46_2 C43_2 1_555 1_555
Zn11 O13_2 1_555 1_555
Zn14 O14_2 1_555 1_555
O13_2 C45_2 1_555 1_555
O14_2 C45_2 1_555 1_555
O17_2 Zn11 1_555 1_555
O18_2 Zn14 1_555 1_555
O23 C58_2 1_555 1_555
O24 C58_2 1_555 1_555
C35_2 H21_2 1_555 1_555
C36_2 C35_2 1_555 1_555
C37_2 C36_2 1_555 1_555
H22_2 C37_2 1_555 1_555
C38_2 C37_2 1_555 1_555
C39_2 C38_2 1_555 1_555
C40_2 C35_2 1_555 1_555
C41_2 C40_2 1_555 1_555
H24_2 C41_2 1_555 1_555
C42_2 C41_2 1_555 1_555
H25_2 C42_2 1_555 1_555
C44_2 C39_2 1_555 1_555
C45_2 C36_2 1_555 1_555
C47 H27_2 1_555 1_555
C48_2 C47 1_555 1_555
C49 C48_2 1_555 1_555
H28 C49 1_555 1_555
C50 C49 1_555 1_555
C51 C50 1_555 1_555
C52 C47 1_555 1_555
C53 C52 1_555 1_555
H30 C53 1_555 1_555
C54_2 C53 1_555 1_555
H31_2 C54_2 1_555 1_555
C55_2 C54_2 1_555 1_555
C56 C51 1_555 1_555
H32 C56 1_555 1_555
C57_2 O17_2 1_555 1_555
C58_2 C55_2 1_555 1_555
N6_2 Zn14 1_555 1_555
O18_2 C57_2 1_555 1_555
C39_2 C40_2 1_555 1_555
C48_2 C57_2 1_555 1_555
C51 C52 1_555 1_555
C55_2 C56 1_555 1_555
N6_2 C64_2 1_555 1_555
C59_2 N4_2 1_555 1_555
H33_2 C59_2 1_555 1_555
C60_2 C59_2 1_555 1_555
H34_2 C60_2 1_555 1_555
C61_2 C60_2 1_555 1_555
C62_2 C61_2 1_555 1_555
H35_2 C62_2 1_555 1_555
C63_2 N4_2 1_555 1_555
H36_2 C63_2 1_555 1_555
C64_2 H37_2 1_555 1_555
C65_2 C64_2 1_555 1_555
H38_2 C65_2 1_555 1_555
C66_2 C61_2 1_555 1_555
C67_2 C66_2 1_555 1_555
H39_2 C67_2 1_555 1_555
C68_2 N6_2 1_555 1_555
H40_2 C68_2 1_555 1_555
C62_2 C63_2 1_555 1_555
C65_2 C66_2 1_555 1_555
C67_2 C68_2 1_555 1_555
H28_2 C49_2 1_555 1_555
C50_2 C49_2 1_555 1_555
C51_2 C50_2 1_555 1_555
C52_2 C47_2 1_555 1_555
C53_2 C52_2 1_555 1_555
H30_2 C53_2 1_555 1_555
C56_2 C51_2 1_555 1_555
H32_2 C56_2 1_555 1_555
C51_2 C52_2 1_555 1_555
O15_2 C46_3 1_555 1_555
O16_2 C46_3 1_555 1_555
H25_3 C42_3 1_555 1_555
C43_3 C42_3 1_555 1_555
C46_3 C43_3 1_555 1_555
Zn11_2 O15_2 1_555 1_555
Zn14_2 O16_2 1_555 1_555
O19_2 C58_3 1_555 1_555
O20_2 C58_3 1_555 1_555
H31_3 C54_3 1_555 1_555
C55_3 C54_3 1_555 1_555
C58_3 C55_3 1_555 1_555
Zn11_2 O19_2 1_555 1_555
Zn14_2 O20_2 1_555 1_555
N5 C64_3 1_555 1_555
C59_3 N4_3 1_555 1_555
H33_3 C59_3 1_555 1_555
C60_3 C59_3 1_555 1_555
H34_3 C60_3 1_555 1_555
C61_3 C60_3 1_555 1_555
C62_3 C61_3 1_555 1_555
H35_3 C62_3 1_555 1_555
C63_3 N4_3 1_555 1_555
H36_3 C63_3 1_555 1_555
C64_3 H37_3 1_555 1_555
C65_3 C64_3 1_555 1_555
H38_3 C65_3 1_555 1_555
C66_3 C61_3 1_555 1_555
C67_3 C66_3 1_555 1_555
H39_3 C67_3 1_555 1_555
C68_3 N5 1_555 1_555
H40_3 C68_3 1_555 1_555
Zn12 N5 1_555 1_555
C62_3 C63_3 1_555 1_555
C65_3 C66_3 1_555 1_555
C67_3 C68_3 1_555 1_555
Zn8_2 O13_3 1_555 1_555
Zn12 O14_3 1_555 1_555
O13_3 C45_3 1_555 1_555
O14_3 C45_3 1_555 1_555
O17_3 Zn8_2 1_555 1_555
O18_3 Zn12 1_555 1_555
C35_3 H21_3 1_555 1_555
C36_3 C35_3 1_555 1_555
C37_3 C36_3 1_555 1_555
H22_3 C37_3 1_555 1_555
C38_3 C37_3 1_555 1_555
C39_3 C38_3 1_555 1_555
C40_3 C35_3 1_555 1_555
C41_3 C40_3 1_555 1_555
H24_3 C41_3 1_555 1_555
C44_3 C39_3 1_555 1_555
H26_3 C44_3 1_555 1_555
C45_3 C36_3 1_555 1_555
C57_3 O17_3 1_555 1_555
O21_2 Zn8_2 1_555 1_555
O22_2 Zn12 1_555 1_555
O23_2 Zn8_2 1_555 1_555
O24_2 Zn12 1_555 1_555
O18_3 C57_3 1_555 1_555
C39_3 C40_3 1_555 1_555
C48_3 C57_3 1_555 1_555
O21_2 C46_4 1_555 1_555
O22_2 C46_4 1_555 1_555
C46_4 C43_4 1_555 1_555
N5_2 C64_4 1_555 1_555
C59_4 N4_4 1_555 1_555
H33_4 C59_4 1_555 1_555
C60_4 C59_4 1_555 1_555
H34_4 C60_4 1_555 1_555
C61_4 C60_4 1_555 1_555
C62_4 C61_4 1_555 1_555
H35_4 C62_4 1_555 1_555
C63_4 N4_4 1_555 1_555
H36_4 C63_4 1_555 1_555
C64_4 H37_4 1_555 1_555
C65_4 C64_4 1_555 1_555
H38_4 C65_4 1_555 1_555
C66_4 C61_4 1_555 1_555
C67_4 C66_4 1_555 1_555
H39_4 C67_4 1_555 1_555
C68_4 N5_2 1_555 1_555
H40_4 C68_4 1_555 1_555
Zn14_2 N5_2 1_555 1_555
C62_4 C63_4 1_555 1_555
C65_4 C66_4 1_555 1_555
C67_4 C68_4 1_555 1_555
Zn11_2 O13_4 1_555 1_555
Zn14_2 O14_4 1_555 1_555
O13_4 C45_4 1_555 1_555
O14_4 C45_4 1_555 1_555
O17_4 Zn11_2 1_555 1_555
O18_4 Zn14_2 1_555 1_555
O23_2 C58_4 1_555 1_555
O24_2 C58_4 1_555 1_555
C35_4 H21_4 1_555 1_555
C36_4 C35_4 1_555 1_555
C37_4 C36_4 1_555 1_555
H22_4 C37_4 1_555 1_555
C38_4 C37_4 1_555 1_555
C39_4 C38_4 1_555 1_555
C40_4 C35_4 1_555 1_555
C41_4 C40_4 1_555 1_555
H24_4 C41_4 1_555 1_555
C42_4 C41_4 1_555 1_555
H25_4 C42_4 1_555 1_555
C44_4 C39_4 1_555 1_555
C45_4 C36_4 1_555 1_555
C47_3 H27_4 1_555 1_555
C48_4 C47_3 1_555 1_555
C49_3 C48_4 1_555 1_555
H28_3 C49_3 1_555 1_555
C50_3 C49_3 1_555 1_555
C51_3 C50_3 1_555 1_555
C52_3 C47_3 1_555 1_555
C53_3 C52_3 1_555 1_555
H30_3 C53_3 1_555 1_555
C54_4 C53_3 1_555 1_555
H31_4 C54_4 1_555 1_555
C55_4 C54_4 1_555 1_555
C56_3 C51_3 1_555 1_555
H32_3 C56_3 1_555 1_555
C57_4 O17_4 1_555 1_555
C58_4 C55_4 1_555 1_555
O18_4 C57_4 1_555 1_555
C39_4 C40_4 1_555 1_555
C48_4 C57_4 1_555 1_555
C51_3 C52_3 1_555 1_555
C55_4 C56_3 1_555 1_555
H28_4 C49_4 1_555 1_555
C50_4 C49_4 1_555 1_555
C51_4 C50_4 1_555 1_555
C52_4 C47_4 1_555 1_555
C53_4 C52_4 1_555 1_555
H30_4 C53_4 1_555 1_555
C56_4 C51_4 1_555 1_555
H32_4 C56_4 1_555 1_555
C51_4 C52_4 1_555 1_555

#END
