
###############################################################################
#
# This file contains modified crystal structure data generated from the
# MOF subset of the Cambridge Structural Database (CSD) v543 
# hosted by the Cambridge Crystallographic Data Centre (CCDC).
#
# This work is licensed under the Creative Commons
# Attribution-NonCommercial-ShareAlike 4.0 International License.
# To view a copy of this license, visit
# http://creativecommons.org/licenses/by-nc-sa/4.0/
# or send a letter to
# Creative Commons, PO Box 1866, Mountain View, CA 94042, USA.
#
# CIF created using the CSD Python API on 29 September 2022
# The structure has been converted into the P1 space group
# The structure has a 3D framework
# The original CSD entry ROCBET02 is in the monoclinic crystal system
# The framework has been calculated to contain at least 10.0% void space
# The void calculation uses a probe of radius 1.32A, grid spacing 0.4
#
###############################################################################

data_ROCBET02
_chemical_formula_moiety         '(C168 H128 Eu8 N8 O56)n'
_symmetry_cell_setting           triclinic
_symmetry_space_group_name_H-M   'P 1'
_symmetry_Int_Tables_number      1
_space_group_name_Hall           'P 1'
loop_
_symmetry_equiv_pos_site_id
_symmetry_equiv_pos_as_xyz
1 x,y,z
_cell_length_a                   11.9185(3)
_cell_length_b                   21.8730(5)
_cell_length_c                   16.5342(4)
_cell_angle_alpha                90
_cell_angle_beta                 100.476(2)
_cell_angle_gamma                90
_cell_volume                     4238.51
loop_
_atom_site_label
_atom_site_type_symbol
_atom_site_fract_x
_atom_site_fract_y
_atom_site_fract_z
O6 O 0.36535(15) 0.43230(8) 0.19431(10)
O7 O 0.38214(15) 0.40212(7) 0.32410(10)
C3 C 0.3251(2) 0.41228(10) 0.25416(15)
C10 C 0.1995(2) 0.40119(10) 0.23945(15)
C25 C 0.1435(2) 0.39629(10) 0.30448(15)
H12 H 0.1852 0.3945 0.3577
C26 C 0.0233(2) 0.39390(10) 0.29161(15)
C27 C 0.1378(2) 0.40145(11) 0.15780(15)
H13 H 0.1765 0.4045 0.1139
C34 C 0.0219(2) 0.39719(11) 0.14333(15)
H20 H 0.0017 0.3911 0.4114
Eu3 Eu 0.53450(2) 0.45958(2) 0.40208(2)
Eu9 Eu 0.46390(2) 0.45679(2) 0.09429(2)
O1 O 0.43222(15) 0.43580(7) 0.50536(10)
O2 O 0.62052(16) 0.44427(8) 0.29270(11)
O3 O 0.06620(15) 0.06238(7) 0.48867(10)
O4 O 0.31236(15) 0.55126(7) 0.48592(10)
O5 O 0.36021(16) 0.44728(7) 0.61803(10)
O9 O 0.37598(15) 0.52619(7) 0.37076(10)
O10 O 0.60299(15) 0.39310(7) 0.17480(10)
O12 O 0.13327(16) 0.05058(7) 0.37440(10)
O14 O 0.58989(16) 0.35250(7) 0.40832(11)
C1 C 0.1229(2) 0.08192(10) 0.43604(15)
C2 C 0.3728(2) 0.41605(10) 0.55636(14)
C4 C 0.1790(2) 0.14355(10) 0.44799(15)
C5 C 0.6598(2) 0.41139(10) 0.24216(14)
C6 C 0.2986(2) 0.54220(10) 0.40922(15)
N2 N 0.6108(2) 0.25412(10) 0.44859(15)
C8 C 0.1704(2) 0.17819(10) 0.51615(15)
H1 H 0.1313 0.1627 0.5555
C9 C 0.3279(2) 0.31965(10) 0.47621(15)
H2 H 0.3665 0.3352 0.4367
C11 C 0.3185(2) 0.35433(10) 0.54424(15)
C12 C 0.1793(2) 0.54888(10) 0.36086(15)
C14 C 0.5974(2) 0.31307(11) 0.46235(17)
H3 H 0.5934 0.3254 0.5156
C15 C 0.7845(2) 0.39781(10) 0.26076(15)
C16 C 0.2791(2) 0.26041(10) 0.46607(15)
C18 C 0.2121(2) 0.27407(11) 0.59601(15)
H5 H 0.1741 0.2592 0.6363
C19 C 0.2387(2) 0.16633(10) 0.38764(15)
H6 H 0.2453 0.1426 0.3421
C21 C 0.2589(2) 0.33116(11) 0.60428(15)
H8 H 0.2517 0.3550 0.6496
C22 C 0.2869(2) 0.22369(10) 0.39649(15)
H9 H 0.3251 0.2386 0.3563
C23 C 0.0854(2) 0.54955(10) 0.40258(15)
H10 H 0.0981 0.5493 0.4598
C24 C 0.8417(2) 0.39485(10) 0.19616(15)
H11 H 0.8004 0.3933 0.1427
C29 C 0.0492(2) 0.55385(10) 0.23007(15)
C30 C 0.0278(2) 0.55517(11) 0.14266(15)
H15 H 0.0886 0.5578 0.1147
C31 C 0.2204(2) 0.23716(10) 0.52699(15)
C32 C 0.1611(2) 0.55142(10) 0.27662(15)
H16 H 0.2232 0.5516 0.2497
C33 C 0.8460(2) 0.39721(11) 0.34309(15)
H17 H 0.8071 0.3992 0.3869
H18 H 0.9821 0.3963 0.0895
C37 C 0.9621(2) 0.39369(10) 0.35754(15)
C38 C 0.9615(2) 0.39410(10) 0.20911(15)
C40 C 0.6138(3) 0.20973(13) 0.5142(2)
H24 H 0.6159 0.2307 0.5654
H25 H 0.6805 0.1846 0.5176
H26 H 0.5468 0.1845 0.5029
C41 C 0.6191(3) 0.23113(14) 0.3683(2)
H27 H 0.6106 0.2643 0.3296
H28 H 0.5599 0.2016 0.3514
H29 H 0.6922 0.2122 0.3702
Eu4 Eu 0.46550(2) 0.54042(2) 0.59792(2)
O15 O 0.56778(15) 0.56420(7) 0.49464(10)
O17 O 0.68764(15) 0.44874(7) 0.51408(10)
O18 O 0.63979(16) 0.55272(7) 0.38197(10)
O22 O 0.10299(15) 0.10690(7) 0.67480(10)
Eu6 Eu 0.03610(2) 0.95679(2) 0.40571(2)
O21 O 0.13078(15) 0.98151(7) 0.62821(10)
Eu2 Eu 0.96390(2) 0.04321(2) 0.59429(2)
O8 O 0.63078(15) 0.51849(7) 0.12821(10)
O11 O 0.69358(15) 0.54823(7) 0.01473(10)
O13 O 0.91458(16) 0.15191(7) 0.56391(11)
N1 N 0.9068(2) 0.25130(9) 0.60259(15)
C7 C 0.7069(2) 0.53771(9) 0.09110(15)
C13 C 0.8246(2) 0.54756(10) 0.14077(14)
C17 C 0.9186(2) 0.55257(11) 0.09928(15)
H4 H 0.9058 0.5541 0.0421
C20 C 0.9133(2) 0.19150(11) 0.61665(17)
H7 H 0.9172 0.1785 0.6706
C28 C 0.8430(2) 0.54783(10) 0.22487(15)
H14 H 0.7810 0.5454 0.2517
C35 C 0.9550(2) 0.55178(10) 0.27192(15)
C36 C 0.9766(2) 0.55050(10) 0.35916(15)
H19 H 0.9157 0.5503 0.3872
C39 C 0.9062(3) 0.27629(13) 0.52104(19)
H21 H 0.9729 0.3010 0.5219
H22 H 0.8392 0.3009 0.5049
H23 H 0.9059 0.2435 0.4825
C42 C 0.8989(3) 0.29402(13) 0.6684(2)
H30 H 0.8277 0.3156 0.6561
H31 H 0.9608 0.3227 0.6736
H32 H 0.9030 0.2721 0.7191
O19 O 0.86535(15) 0.06770(8) 0.69431(10)
O23 O 0.80642(15) 0.04823(7) 0.48527(10)
Eu5 Eu 0.53610(2) 0.54321(2) 0.90571(2)
O16 O 0.93380(15) 0.93762(7) 0.51133(10)
O24 O 0.86673(16) 0.94942(7) 0.62560(10)
O4_2 O 0.18764(15) 0.05126(7) 0.01408(10)
O8_2 O 0.86922(15) 0.01849(7) 0.37179(10)
O9_2 O 0.12402(15) 0.02619(7) 0.12924(10)
C6_2 C 0.2014(2) 0.04220(10) 0.09078(15)
C7_2 C 0.7931(2) 0.03771(9) 0.40890(15)
C12_2 C 0.3207(2) 0.04888(10) 0.13914(15)
C13_2 C 0.6754(2) 0.04756(10) 0.35923(14)
C17_2 C 0.5814(2) 0.05257(11) 0.40072(15)
H4_2 H 0.5942 0.0541 0.4579
C23_2 C 0.4146(2) 0.04955(10) 0.09742(15)
H10_2 H 0.4019 0.0493 0.0402
C28_2 C 0.6570(2) 0.04783(10) 0.27513(15)
H14_2 H 0.7190 0.0454 0.2483
C29_2 C 0.4508(2) 0.05385(10) 0.26993(15)
C30_2 C 0.4722(2) 0.05517(11) 0.35734(15)
H15_2 H 0.4114 0.0578 0.3853
C32_2 C 0.3389(2) 0.05142(10) 0.22338(15)
H16_2 H 0.2768 0.0516 0.2503
C35_2 C 0.5450(2) 0.05178(10) 0.22808(15)
C36_2 C 0.5234(2) 0.05050(10) 0.14084(15)
H19_2 H 0.5843 0.0503 0.1128
Eu4_2 Eu 0.03450(2) 0.04042(2) 0.90208(2)
O3_2 O 0.43380(15) 0.56238(7) 0.01133(10)
O12_2 O 0.36673(16) 0.55058(7) 0.12560(10)
C1_2 C 0.3771(2) 0.58192(10) 0.06396(15)
C4_2 C 0.3210(2) 0.64355(10) 0.05201(15)
C9_2 C 0.1721(2) 0.81965(10) 0.02379(15)
H2_2 H 0.1335 0.8352 0.0633
C16_2 C 0.2209(2) 0.76041(10) 0.03393(15)
C19_2 C 0.2613(2) 0.66633(10) 0.11236(15)
H6_2 H 0.2547 0.6426 0.1579
C22_2 C 0.2131(2) 0.72369(10) 0.10351(15)
H9_2 H 0.1749 0.7386 0.1437
H23_2 H 0.5941 0.7435 0.0175
O20 O 0.11786(15) 0.90212(7) 0.17590(10)
O1_2 O 0.06778(15) 0.93580(7) 0.99464(10)
O5_2 O 0.13979(16) 0.94728(7) 0.88197(10)
O13_2 O 0.58542(16) 0.65191(7) 0.93609(11)
C2_2 C 0.1272(2) 0.91605(10) 0.94364(14)
N1_2 N 0.5932(2) 0.75130(9) 0.89741(15)
C8_2 C 0.3296(2) 0.67819(10) 0.98385(15)
H1_2 H 0.3687 0.6627 0.9445
C11_2 C 0.1815(2) 0.85433(10) 0.95576(15)
C18_2 C 0.2879(2) 0.77407(11) 0.90399(15)
H5_2 H 0.3259 0.7592 0.8637
C20_2 C 0.5867(2) 0.69150(11) 0.88335(17)
H7_2 H 0.5828 0.6785 0.8294
C21_2 C 0.2411(2) 0.83116(11) 0.89572(15)
H8_2 H 0.2483 0.8550 0.8504
C31_2 C 0.2796(2) 0.73716(10) 0.97301(15)
C39_2 C 0.5938(3) 0.77629(13) 0.97896(19)
H21_2 H 0.5271 0.8010 0.9781
H22_2 H 0.6608 0.8009 0.9951
C42_2 C 0.6011(3) 0.79402(13) 0.8316(2)
H30_2 H 0.6723 0.8156 0.8439
H31_2 H 0.5392 0.8227 0.8264
H32_2 H 0.5970 0.7721 0.7809
O16_2 O 0.56620(15) 0.43762(7) 0.98867(10)
O19_2 O 0.63465(15) 0.56770(8) 0.80569(10)
O21_2 O 0.36922(15) 0.48151(7) 0.87179(10)
O22_2 O 0.39701(15) 0.60690(7) 0.82520(10)
O24_2 O 0.63327(16) 0.44942(7) 0.87440(10)
O15_2 O 0.93222(15) 0.06420(7) 0.00536(10)
O18_2 O 0.86021(16) 0.05272(7) 0.11803(10)
Eu1 Eu 0.96550(2) 0.95958(2) 0.09792(2)
O2_2 O 0.87948(16) 0.94427(8) 0.20730(11)
O6_2 O 0.13465(15) 0.93230(8) 0.30569(10)
O10_2 O 0.89701(15) 0.89310(7) 0.32520(10)
O14_2 O 0.91011(16) 0.85250(7) 0.09168(11)
C3_2 C 0.1749(2) 0.91228(10) 0.24584(15)
C5_2 C 0.8402(2) 0.91139(10) 0.25784(14)
N2_2 N 0.8892(2) 0.75412(10) 0.05141(15)
C10_2 C 0.3005(2) 0.90119(10) 0.26055(15)
C14_2 C 0.9026(2) 0.81307(11) 0.03765(17)
C15_2 C 0.7155(2) 0.89781(10) 0.23924(15)
C24_2 C 0.6583(2) 0.89485(10) 0.30384(15)
H11_2 H 0.6996 0.8933 0.3573
C25_2 C 0.3565(2) 0.89629(10) 0.19552(15)
H12_2 H 0.3148 0.8945 0.1423
C26_2 C 0.4767(2) 0.89390(10) 0.20839(15)
C27_2 C 0.3622(2) 0.90145(11) 0.34220(15)
H13_2 H 0.3235 0.9045 0.3861
C33_2 C 0.6540(2) 0.89721(11) 0.15691(15)
H17_2 H 0.6929 0.8992 0.1131
C34_2 C 0.4781(2) 0.89719(11) 0.35667(15)
H18_2 H 0.5179 0.8963 0.4105
C37_2 C 0.5379(2) 0.89369(10) 0.14246(15)
H20_2 H 0.4983 0.8911 0.0886
C38_2 C 0.5385(2) 0.89410(10) 0.29089(15)
C41_2 C 0.8809(3) 0.73113(14) 0.1317(2)
H27_2 H 0.8894 0.7643 0.1704
H28_2 H 0.9401 0.7016 0.1486
H29_2 H 0.8078 0.7122 0.1298
H3_2 H 0.9066 0.8254 0.9844
C40_2 C 0.8862(3) 0.70973(13) 0.9858(2)
H24_2 H 0.8841 0.7307 0.9346
H25_2 H 0.8195 0.6846 0.9824
H26_2 H 0.9532 0.6845 0.9971
O17_2 O 0.81236(15) 0.94874(7) 0.98592(10)
O11_2 O 0.30642(15) 0.45177(7) 0.98527(10)
O13_3 O 0.08542(16) 0.84809(7) 0.43609(11)
N1_3 N 0.0932(2) 0.74870(9) 0.39741(15)
C7_3 C 0.2931(2) 0.46229(9) 0.90890(15)
C13_3 C 0.1754(2) 0.45244(10) 0.85923(14)
C17_3 C 0.0814(2) 0.44743(11) 0.90072(15)
H4_3 H 0.0942 0.4459 0.9579
C20_3 C 0.0867(2) 0.80850(11) 0.38335(17)
H7_3 H 0.0828 0.8215 0.3294
C28_3 C 0.1570(2) 0.45217(10) 0.77513(15)
H14_3 H 0.2190 0.4546 0.7483
C35_3 C 0.0450(2) 0.44822(10) 0.72808(15)
C36_3 C 0.0234(2) 0.44950(10) 0.64084(15)
H19_3 H 0.0843 0.4497 0.6128
C39_3 C 0.0938(3) 0.72371(13) 0.47896(19)
H21_3 H 0.0271 0.6990 0.4781
H22_3 H 0.1608 0.6991 0.4951
H23_3 H 0.0941 0.7565 0.5175
C42_3 C 0.1011(3) 0.70598(13) 0.3316(2)
H30_3 H 0.1723 0.6844 0.3439
H31_3 H 0.0392 0.6773 0.3264
H32_3 H 0.0970 0.7279 0.2809
O23_2 O 0.19358(15) 0.95177(7) 0.51473(10)
O2_3 O 0.37948(16) 0.55573(8) 0.70730(11)
O9_3 O 0.62402(15) 0.47381(7) 0.62924(10)
O14_3 O 0.41011(16) 0.64750(7) 0.59168(11)
C1_3 C 0.8771(2) 0.91808(10) 0.56396(15)
C2_3 C 0.6272(2) 0.58395(10) 0.44364(14)
C4_3 C 0.8210(2) 0.85645(10) 0.55201(15)
C5_3 C 0.3402(2) 0.58861(10) 0.75784(14)
C6_3 C 0.7014(2) 0.45780(10) 0.59078(15)
N2_3 N 0.3892(2) 0.74588(10) 0.55141(15)
C8_3 C 0.8296(2) 0.82181(10) 0.48385(15)
H1_3 H 0.8687 0.8373 0.4445
C9_3 C 0.6721(2) 0.68035(10) 0.52379(15)
H2_3 H 0.6335 0.6648 0.5633
C11_3 C 0.6815(2) 0.64567(10) 0.45576(15)
C12_3 C 0.8207(2) 0.45112(10) 0.63914(15)
C14_3 C 0.4026(2) 0.68693(11) 0.53765(17)
H3_3 H 0.4066 0.6746 0.4844
C15_3 C 0.2155(2) 0.60219(10) 0.73924(15)
C16_3 C 0.7209(2) 0.73959(10) 0.53393(15)
C18_3 C 0.7879(2) 0.72593(11) 0.40399(15)
H5_3 H 0.8259 0.7408 0.3637
C19_3 C 0.7613(2) 0.83367(10) 0.61236(15)
H6_3 H 0.7547 0.8574 0.6579
C21_3 C 0.7411(2) 0.66884(11) 0.39572(15)
H8_3 H 0.7483 0.6450 0.3504
C22_3 C 0.7131(2) 0.77631(10) 0.60351(15)
H9_3 H 0.6749 0.7614 0.6437
C23_3 C 0.9146(2) 0.45045(10) 0.59742(15)
H10_3 H 0.9019 0.4507 0.5402
C24_3 C 0.1583(2) 0.60515(10) 0.80384(15)
H11_3 H 0.1996 0.6067 0.8573
C29_3 C 0.9508(2) 0.44615(10) 0.76993(15)
C30_3 C 0.9722(2) 0.44483(11) 0.85734(15)
H15_3 H 0.9114 0.4422 0.8853
C31_3 C 0.7796(2) 0.76284(10) 0.47301(15)
C32_3 C 0.8389(2) 0.44858(10) 0.72338(15)
H16_3 H 0.7768 0.4484 0.7503
C33_3 C 0.1540(2) 0.60279(11) 0.65691(15)
H17_3 H 0.1929 0.6008 0.6131
H18_3 H 0.0179 0.6037 0.9105
C37_3 C 0.0379(2) 0.60631(10) 0.64246(15)
C38_3 C 0.0385(2) 0.60590(10) 0.79089(15)
C40_3 C 0.3862(3) 0.79027(13) 0.4858(2)
H24_3 H 0.3841 0.7693 0.4346
H25_3 H 0.3195 0.8154 0.4824
H26_3 H 0.4532 0.8155 0.4971
C41_3 C 0.3809(3) 0.76887(14) 0.6317(2)
H27_3 H 0.3894 0.7357 0.6704
H28_3 H 0.4401 0.7984 0.6486
H29_3 H 0.3078 0.7878 0.6298
O20_2 O 0.61786(15) 0.59788(7) 0.67590(10)
C3_3 C 0.6749(2) 0.58772(10) 0.74584(15)
C10_3 C 0.8005(2) 0.59881(10) 0.76055(15)
C25_3 C 0.8565(2) 0.60371(10) 0.69552(15)
H12_3 H 0.8148 0.6055 0.6423
C26_3 C 0.9767(2) 0.60610(10) 0.70839(15)
C27_3 C 0.8622(2) 0.59855(11) 0.84220(15)
H13_3 H 0.8235 0.5955 0.8861
C34_3 C 0.9781(2) 0.60281(11) 0.85667(15)
H20_3 H 0.9983 0.6089 0.5886
H3_4 H 0.0934 0.1746 0.0156
C40_4 C 0.1138(3) 0.29027(13) 0.0142(2)
H24_4 H 0.1159 0.2693 0.0654
H25_4 H 0.1805 0.3154 0.0176
H26_4 H 0.0468 0.3155 0.0029
O2_4 O 0.12052(16) 0.05573(8) 0.79270(11)
O7_2 O 0.88214(15) 0.09788(7) 0.82410(10)
O14_4 O 0.08989(16) 0.14750(7) 0.90832(11)
C3_4 C 0.8251(2) 0.08772(10) 0.75416(15)
C5_4 C 0.1598(2) 0.08861(10) 0.74216(14)
N2_4 N 0.1108(2) 0.24588(10) 0.94859(15)
C10_4 C 0.6995(2) 0.09881(10) 0.73945(15)
C14_4 C 0.0974(2) 0.18693(11) 0.96235(17)
C15_4 C 0.2845(2) 0.10219(10) 0.76076(15)
C24_4 C 0.3417(2) 0.10515(10) 0.69616(15)
H11_4 H 0.3004 0.1067 0.6427
C25_4 C 0.6435(2) 0.10371(10) 0.80448(15)
H12_4 H 0.6852 0.1055 0.8577
C26_4 C 0.5233(2) 0.10610(10) 0.79161(15)
C27_4 C 0.6378(2) 0.09855(11) 0.65780(15)
H13_4 H 0.6765 0.0955 0.6139
C33_4 C 0.3460(2) 0.10279(11) 0.84309(15)
H17_4 H 0.3071 0.1008 0.8869
C34_4 C 0.5219(2) 0.10281(11) 0.64333(15)
H18_4 H 0.4821 0.1037 0.5895
C37_4 C 0.4621(2) 0.10631(10) 0.85754(15)
H20_4 H 0.5017 0.1089 0.9114
C38_4 C 0.4615(2) 0.10590(10) 0.70911(15)
C41_4 C 0.1191(3) 0.26887(14) 0.8683(2)
H27_4 H 0.1106 0.2357 0.8296
H28_4 H 0.0599 0.2984 0.8514
H29_4 H 0.1922 0.2878 0.8702
O13_4 O 0.41458(16) 0.34809(7) 0.06391(11)
C2_4 C 0.8728(2) 0.08395(10) 0.05636(14)
N1_4 N 0.4068(2) 0.24870(9) 0.10259(15)
C8_4 C 0.6704(2) 0.32181(10) 0.01615(15)
H1_4 H 0.6313 0.3373 0.0555
C11_4 C 0.8185(2) 0.14567(10) 0.04424(15)
C18_4 C 0.7121(2) 0.22593(11) 0.09601(15)
H5_4 H 0.6741 0.2408 0.1363
C20_4 C 0.4133(2) 0.30850(11) 0.11665(17)
H7_4 H 0.4172 0.3215 0.1706
C21_4 C 0.7589(2) 0.16884(11) 0.10428(15)
H8_4 H 0.7517 0.1450 0.1496
C31_4 C 0.7204(2) 0.26284(10) 0.02699(15)
C39_4 C 0.4062(3) 0.22371(13) 0.02104(19)
H21_4 H 0.4729 0.1990 0.0219
H22_4 H 0.3392 0.1991 0.0049
C42_4 C 0.3989(3) 0.20598(13) 0.1684(2)
H30_4 H 0.3277 0.1844 0.1561
H31_4 H 0.4608 0.1773 0.1736
H32_4 H 0.4030 0.2279 0.2191
C1_4 C 0.6229(2) 0.41808(10) 0.93604(15)
C4_4 C 0.6790(2) 0.35645(10) 0.94799(15)
C9_4 C 0.8279(2) 0.18035(10) 0.97621(15)
H2_4 H 0.8665 0.1648 0.9367
C16_4 C 0.7791(2) 0.23959(10) 0.96607(15)
C19_4 C 0.7387(2) 0.33367(10) 0.88764(15)
H6_4 H 0.7453 0.3574 0.8421
C22_4 C 0.7869(2) 0.27631(10) 0.89649(15)
H9_4 H 0.8251 0.2614 0.8563
H23_4 H 0.4059 0.2565 0.9825
O9_4 O 0.87598(15) 0.97381(7) 0.87076(10)
C6_4 C 0.7986(2) 0.95780(10) 0.90922(15)
C7_4 C 0.2069(2) 0.96229(9) 0.59110(15)
C12_4 C 0.6793(2) 0.95112(10) 0.86086(15)
C13_4 C 0.3246(2) 0.95244(10) 0.64077(14)
C17_4 C 0.4186(2) 0.94743(11) 0.59928(15)
H4_4 H 0.4058 0.9459 0.5421
C23_4 C 0.5854(2) 0.95045(10) 0.90258(15)
H10_4 H 0.5981 0.9507 0.9598
C28_4 C 0.3430(2) 0.95217(10) 0.72487(15)
H14_4 H 0.2810 0.9546 0.7517
C29_4 C 0.5492(2) 0.94615(10) 0.73007(15)
C30_4 C 0.5278(2) 0.94483(11) 0.64266(15)
H15_4 H 0.5886 0.9422 0.6147
C32_4 C 0.6611(2) 0.94858(10) 0.77662(15)
H16_4 H 0.7232 0.9484 0.7497
C35_4 C 0.4550(2) 0.94822(10) 0.77192(15)
C36_4 C 0.4766(2) 0.94950(10) 0.85916(15)
H19_4 H 0.4157 0.9497 0.8872
loop_
_geom_bond_atom_site_label_1
_geom_bond_atom_site_label_2
_geom_bond_site_symmetry_1
_geom_bond_site_symmetry_2
O6 C3 1_555 1_555
O7 C3 1_555 1_555
C3 C10 1_555 1_555
C10 C25 1_555 1_555
C25 H12 1_555 1_555
C26 C25 1_555 1_555
C27 C10 1_555 1_555
H13 C27 1_555 1_555
C34 C27 1_555 1_555
Eu3 O7 1_555 1_555
Eu9 O6 1_555 1_555
Eu3 O1 1_555 1_555
O1 C2 1_555 1_555
O2 Eu3 1_555 1_555
O3 C1 1_555 1_555
O4 C6 1_555 1_555
O5 C2 1_555 1_555
O9 Eu3 1_555 1_555
O10 C5 1_555 1_555
O12 C1 1_555 1_555
O14 Eu3 1_555 1_555
C1 C4 1_555 1_555
C2 C11 1_555 1_555
C4 C8 1_555 1_555
C5 O2 1_555 1_555
C6 O9 1_555 1_555
N2 C14 1_555 1_555
C8 H1 1_555 1_555
C9 H2 1_555 1_555
C11 C9 1_555 1_555
C12 C6 1_555 1_555
C14 O14 1_555 1_555
H3 C14 1_555 1_555
C15 C5 1_555 1_555
C16 C9 1_555 1_555
C18 H5 1_555 1_555
C19 C4 1_555 1_555
H6 C19 1_555 1_555
C21 C11 1_555 1_555
H8 C21 1_555 1_555
C22 C16 1_555 1_555
H9 C22 1_555 1_555
C23 C12 1_555 1_555
H10 C23 1_555 1_555
C24 C15 1_555 1_555
H11 C24 1_555 1_555
C29 C30 1_555 1_555
H15 C30 1_555 1_555
C31 C8 1_555 1_555
C32 C12 1_555 1_555
H16 C32 1_555 1_555
C33 C15 1_555 1_555
H17 C33 1_555 1_555
C38 C24 1_555 1_555
C40 N2 1_555 1_555
H24 C40 1_555 1_555
H25 C40 1_555 1_555
H26 C40 1_555 1_555
C41 N2 1_555 1_555
H27 C41 1_555 1_555
H28 C41 1_555 1_555
H29 C41 1_555 1_555
Eu4 O1 1_555 1_555
Eu9 O10 1_555 1_555
O15 Eu3 1_555 1_555
O17 Eu3 1_555 1_555
O18 Eu3 1_555 1_555
O4 Eu4 1_555 1_555
O5 Eu4 1_555 1_555
C16 C31 1_555 1_555
C18 C21 1_555 1_555
C18 C31 1_555 1_555
C19 C22 1_555 1_555
C29 C32 1_555 1_555
C33 C37 1_555 1_555
Eu4 O15 1_555 1_555
O8 C7 1_555 1_555
O11 C7 1_555 1_555
O13 Eu2 1_555 1_555
N1 C20 1_555 1_555
C7 C13 1_555 1_555
C13 C17 1_555 1_555
C17 H4 1_555 1_555
C20 O13 1_555 1_555
H7 C20 1_555 1_555
C28 C13 1_555 1_555
H14 C28 1_555 1_555
C35 C28 1_555 1_555
H19 C36 1_555 1_555
C39 N1 1_555 1_555
H21 C39 1_555 1_555
H22 C39 1_555 1_555
H23 C39 1_555 1_555
C42 N1 1_555 1_555
H30 C42 1_555 1_555
H31 C42 1_555 1_555
H32 C42 1_555 1_555
Eu9 O8 1_555 1_555
O19 Eu2 1_555 1_555
O23 Eu2 1_555 1_555
C35 C36 1_555 1_555
O4_2 C6_2 1_555 1_555
O8_2 C7_2 1_555 1_555
O23 C7_2 1_555 1_555
C6_2 O9_2 1_555 1_555
C7_2 C13_2 1_555 1_555
C12_2 C6_2 1_555 1_555
C13_2 C17_2 1_555 1_555
C17_2 H4_2 1_555 1_555
C23_2 C12_2 1_555 1_555
H10_2 C23_2 1_555 1_555
C28_2 C13_2 1_555 1_555
H14_2 C28_2 1_555 1_555
C29_2 C30_2 1_555 1_555
C30_2 C17_2 1_555 1_555
H15_2 C30_2 1_555 1_555
C32_2 C12_2 1_555 1_555
H16_2 C32_2 1_555 1_555
C35_2 C28_2 1_555 1_555
C36_2 C23_2 1_555 1_555
H19_2 C36_2 1_555 1_555
C29_2 C32_2 1_555 1_555
C29_2 C35_2 1_555 1_555
C35_2 C36_2 1_555 1_555
O3_2 C1_2 1_555 1_555
O12_2 C1_2 1_555 1_555
C1_2 C4_2 1_555 1_555
C9_2 H2_2 1_555 1_555
C16_2 C9_2 1_555 1_555
C19_2 C4_2 1_555 1_555
H6_2 C19_2 1_555 1_555
C22_2 C16_2 1_555 1_555
H9_2 C22_2 1_555 1_555
Eu9 O3_2 1_555 1_555
O12_2 Eu9 1_555 1_555
C19_2 C22_2 1_555 1_555
O1_2 C2_2 1_555 1_555
O5_2 C2_2 1_555 1_555
O13_2 Eu5 1_555 1_555
C2_2 C11_2 1_555 1_555
N1_2 C20_2 1_555 1_555
C8_2 H1_2 1_555 1_555
C18_2 H5_2 1_555 1_555
C20_2 O13_2 1_555 1_555
H7_2 C20_2 1_555 1_555
C21_2 C11_2 1_555 1_555
H8_2 C21_2 1_555 1_555
C31_2 C8_2 1_555 1_555
C39_2 N1_2 1_555 1_555
H21_2 C39_2 1_555 1_555
H22_2 C39_2 1_555 1_555
C42_2 N1_2 1_555 1_555
H30_2 C42_2 1_555 1_555
H31_2 C42_2 1_555 1_555
H32_2 C42_2 1_555 1_555
O16_2 Eu5 1_555 1_555
O19_2 Eu5 1_555 1_555
O21_2 Eu5 1_555 1_555
O22_2 Eu5 1_555 1_555
O24_2 Eu5 1_555 1_555
C18_2 C21_2 1_555 1_555
C18_2 C31_2 1_555 1_555
O2_2 Eu1 1_555 1_555
O6_2 C3_2 1_555 1_555
O20 C3_2 1_555 1_555
O10_2 C5_2 1_555 1_555
O14_2 Eu1 1_555 1_555
C3_2 C10_2 1_555 1_555
C5_2 O2_2 1_555 1_555
N2_2 C14_2 1_555 1_555
C10_2 C25_2 1_555 1_555
C14_2 O14_2 1_555 1_555
C15_2 C5_2 1_555 1_555
C24_2 C15_2 1_555 1_555
H11_2 C24_2 1_555 1_555
C25_2 H12_2 1_555 1_555
C26_2 C25_2 1_555 1_555
C27_2 C10_2 1_555 1_555
H13_2 C27_2 1_555 1_555
C33_2 C15_2 1_555 1_555
H17_2 C33_2 1_555 1_555
C34_2 C27_2 1_555 1_555
H18_2 C34_2 1_555 1_555
C37_2 C26_2 1_555 1_555
H20_2 C37_2 1_555 1_555
C38_2 C24_2 1_555 1_555
C41_2 N2_2 1_555 1_555
H27_2 C41_2 1_555 1_555
H28_2 C41_2 1_555 1_555
H29_2 C41_2 1_555 1_555
Eu6 O6_2 1_555 1_555
C26_2 C38_2 1_555 1_555
C33_2 C37_2 1_555 1_555
C34_2 C38_2 1_555 1_555
H24_2 C40_2 1_555 1_555
H25_2 C40_2 1_555 1_555
H26_2 C40_2 1_555 1_555
O21_2 C7_3 1_555 1_555
O11_2 C7_3 1_555 1_555
O13_3 Eu6 1_555 1_555
N1_3 C20_3 1_555 1_555
C7_3 C13_3 1_555 1_555
C13_3 C17_3 1_555 1_555
C17_3 H4_3 1_555 1_555
C20_3 O13_3 1_555 1_555
H7_3 C20_3 1_555 1_555
C28_3 C13_3 1_555 1_555
H14_3 C28_3 1_555 1_555
C35_3 C28_3 1_555 1_555
H19_3 C36_3 1_555 1_555
C39_3 N1_3 1_555 1_555
H21_3 C39_3 1_555 1_555
H22_3 C39_3 1_555 1_555
H23_3 C39_3 1_555 1_555
C42_3 N1_3 1_555 1_555
H30_3 C42_3 1_555 1_555
H31_3 C42_3 1_555 1_555
H32_3 C42_3 1_555 1_555
O23_2 Eu6 1_555 1_555
C35_3 C36_3 1_555 1_555
O15 C2_3 1_555 1_555
O2_3 Eu4 1_555 1_555
O16 C1_3 1_555 1_555
O17 C6_3 1_555 1_555
O18 C2_3 1_555 1_555
O9_3 Eu4 1_555 1_555
O22_2 C5_3 1_555 1_555
O24 C1_3 1_555 1_555
O14_3 Eu4 1_555 1_555
C1_3 C4_3 1_555 1_555
C2_3 C11_3 1_555 1_555
C4_3 C8_3 1_555 1_555
C5_3 O2_3 1_555 1_555
C6_3 O9_3 1_555 1_555
N2_3 C14_3 1_555 1_555
C8_3 H1_3 1_555 1_555
C9_3 H2_3 1_555 1_555
C11_3 C9_3 1_555 1_555
C12_3 C6_3 1_555 1_555
C14_3 O14_3 1_555 1_555
H3_3 C14_3 1_555 1_555
C15_3 C5_3 1_555 1_555
C16_3 C9_3 1_555 1_555
C18_3 H5_3 1_555 1_555
C19_3 C4_3 1_555 1_555
H6_3 C19_3 1_555 1_555
C21_3 C11_3 1_555 1_555
H8_3 C21_3 1_555 1_555
C22_3 C16_3 1_555 1_555
H9_3 C22_3 1_555 1_555
C23_3 C12_3 1_555 1_555
H10_3 C23_3 1_555 1_555
C24_3 C15_3 1_555 1_555
H11_3 C24_3 1_555 1_555
C29_3 C30_3 1_555 1_555
H15_3 C30_3 1_555 1_555
C31_3 C8_3 1_555 1_555
C32_3 C12_3 1_555 1_555
H16_3 C32_3 1_555 1_555
C33_3 C15_3 1_555 1_555
H17_3 C33_3 1_555 1_555
C38_3 C24_3 1_555 1_555
C40_3 N2_3 1_555 1_555
H24_3 C40_3 1_555 1_555
H25_3 C40_3 1_555 1_555
H26_3 C40_3 1_555 1_555
C41_3 N2_3 1_555 1_555
H27_3 C41_3 1_555 1_555
H28_3 C41_3 1_555 1_555
H29_3 C41_3 1_555 1_555
O20_2 Eu4 1_555 1_555
C16_3 C31_3 1_555 1_555
C18_3 C21_3 1_555 1_555
C18_3 C31_3 1_555 1_555
C19_3 C22_3 1_555 1_555
C29_3 C32_3 1_555 1_555
C33_3 C37_3 1_555 1_555
O19_2 C3_3 1_555 1_555
O20_2 C3_3 1_555 1_555
C3_3 C10_3 1_555 1_555
C10_3 C25_3 1_555 1_555
C25_3 H12_3 1_555 1_555
C26_3 C25_3 1_555 1_555
C27_3 C10_3 1_555 1_555
H13_3 C27_3 1_555 1_555
C34_3 C27_3 1_555 1_555
H24_4 C40_4 1_555 1_555
H25_4 C40_4 1_555 1_555
H26_4 C40_4 1_555 1_555
O2_4 Eu4_2 1_555 1_555
O19 C3_4 1_555 1_555
O7_2 C3_4 1_555 1_555
O22 C5_4 1_555 1_555
O14_4 Eu4_2 1_555 1_555
C3_4 C10_4 1_555 1_555
C5_4 O2_4 1_555 1_555
N2_4 C14_4 1_555 1_555
C10_4 C25_4 1_555 1_555
C14_4 O14_4 1_555 1_555
C15_4 C5_4 1_555 1_555
C24_4 C15_4 1_555 1_555
H11_4 C24_4 1_555 1_555
C25_4 H12_4 1_555 1_555
C26_4 C25_4 1_555 1_555
C27_4 C10_4 1_555 1_555
H13_4 C27_4 1_555 1_555
C33_4 C15_4 1_555 1_555
H17_4 C33_4 1_555 1_555
C34_4 C27_4 1_555 1_555
H18_4 C34_4 1_555 1_555
C37_4 C26_4 1_555 1_555
H20_4 C37_4 1_555 1_555
C38_4 C24_4 1_555 1_555
C41_4 N2_4 1_555 1_555
H27_4 C41_4 1_555 1_555
H28_4 C41_4 1_555 1_555
H29_4 C41_4 1_555 1_555
C26_4 C38_4 1_555 1_555
C33_4 C37_4 1_555 1_555
C34_4 C38_4 1_555 1_555
O15_2 C2_4 1_555 1_555
O18_2 C2_4 1_555 1_555
O13_4 Eu9 1_555 1_555
C2_4 C11_4 1_555 1_555
N1_4 C20_4 1_555 1_555
C8_4 H1_4 1_555 1_555
C18_4 H5_4 1_555 1_555
C20_4 O13_4 1_555 1_555
H7_4 C20_4 1_555 1_555
C21_4 C11_4 1_555 1_555
H8_4 C21_4 1_555 1_555
C31_4 C8_4 1_555 1_555
C39_4 N1_4 1_555 1_555
H21_4 C39_4 1_555 1_555
H22_4 C39_4 1_555 1_555
C42_4 N1_4 1_555 1_555
H30_4 C42_4 1_555 1_555
H31_4 C42_4 1_555 1_555
H32_4 C42_4 1_555 1_555
C18_4 C21_4 1_555 1_555
C18_4 C31_4 1_555 1_555
O16_2 C1_4 1_555 1_555
O24_2 C1_4 1_555 1_555
C1_4 C4_4 1_555 1_555
C9_4 H2_4 1_555 1_555
C16_4 C9_4 1_555 1_555
C19_4 C4_4 1_555 1_555
H6_4 C19_4 1_555 1_555
C22_4 C16_4 1_555 1_555
H9_4 C22_4 1_555 1_555
C19_4 C22_4 1_555 1_555
O17_2 C6_4 1_555 1_555
O21 C7_4 1_555 1_555
O23_2 C7_4 1_555 1_555
C6_4 O9_4 1_555 1_555
C7_4 C13_4 1_555 1_555
C12_4 C6_4 1_555 1_555
C13_4 C17_4 1_555 1_555
C17_4 H4_4 1_555 1_555
C23_4 C12_4 1_555 1_555
H10_4 C23_4 1_555 1_555
C28_4 C13_4 1_555 1_555
H14_4 C28_4 1_555 1_555
C29_4 C30_4 1_555 1_555
C30_4 C17_4 1_555 1_555
H15_4 C30_4 1_555 1_555
C32_4 C12_4 1_555 1_555
H16_4 C32_4 1_555 1_555
C35_4 C28_4 1_555 1_555
C36_4 C23_4 1_555 1_555
H19_4 C36_4 1_555 1_555
C29_4 C32_4 1_555 1_555
C29_4 C35_4 1_555 1_555
C35_4 C36_4 1_555 1_555

#END
