
###############################################################################
#
# This file contains modified crystal structure data generated from the
# MOF subset of the Cambridge Structural Database (CSD) v543 
# hosted by the Cambridge Crystallographic Data Centre (CCDC).
#
# This work is licensed under the Creative Commons
# Attribution-NonCommercial-ShareAlike 4.0 International License.
# To view a copy of this license, visit
# http://creativecommons.org/licenses/by-nc-sa/4.0/
# or send a letter to
# Creative Commons, PO Box 1866, Mountain View, CA 94042, USA.
#
# CIF created using the CSD Python API on 29 September 2022
# The structure has been converted into the P1 space group
# The structure has a 3D framework
# The original CSD entry ROCBET is in the monoclinic crystal system
# The framework has been calculated to contain at least 10.0% void space
# The void calculation uses a probe of radius 1.32A, grid spacing 0.4
#
###############################################################################

data_ROCBET
_chemical_formula_moiety         '(C168 H128 Eu8 N8 O56)n'
_symmetry_cell_setting           triclinic
_symmetry_space_group_name_H-M   'P 1'
_symmetry_Int_Tables_number      1
_space_group_name_Hall           'P 1'
loop_
_symmetry_equiv_pos_site_id
_symmetry_equiv_pos_as_xyz
1 x,y,z
_cell_length_a                   11.93700(10)
_cell_length_b                   21.89300(10)
_cell_length_c                   16.57120(10)
_cell_angle_alpha                90
_cell_angle_beta                 100.5340(10)
_cell_angle_gamma                90
_cell_volume                     4257.68
loop_
_atom_site_label
_atom_site_type_symbol
_atom_site_fract_x
_atom_site_fract_y
_atom_site_fract_z
Eu3 Eu 0.03475(2) 0.45965(2) 0.40215(2)
Eu8 Eu 0.03610(2) 0.54318(2) 0.90586(2)
O21 O 0.13075(14) 0.51856(8) 0.12778(10)
O24 O 0.10294(14) 0.39368(8) 0.17513(10)
O17 O 0.06637(14) 0.43746(8) 0.98893(10)
Eu6 Eu 0.96390(2) 0.45682(2) 0.09414(2)
O2 O 0.12082(15) 0.44438(9) 0.29297(11)
O5 O 0.80643(16) 0.45155(8) 0.98510(11)
O6 O 0.12387(15) 0.47394(8) 0.62885(10)
O7 O 0.86925(14) 0.48144(8) 0.87222(10)
O8 O 0.86568(15) 0.43245(9) 0.19427(10)
O9 O 0.88312(14) 0.40246(8) 0.32403(10)
O10 O 0.18765(16) 0.44897(9) 0.51446(11)
O12 O 0.91511(16) 0.34822(8) 0.06395(11)
O14 O 0.09103(15) 0.35275(8) 0.40842(11)
N1 N 0.9067(2) 0.24890(10) 0.10276(15)
C4 C 0.8258(2) 0.41256(11) 0.25423(14)
C5 C 0.2012(2) 0.45813(10) 0.59066(18)
C6 C 0.1601(2) 0.41186(11) 0.24243(14)
N2 N 0.1106(2) 0.25453(10) 0.44884(15)
C9 C 0.5812(2) 0.44725(12) 0.90044(16)
H2 H 0.593811 0.445882 0.957481
C11 C 0.69948(19) 0.40148(11) 0.23917(14)
C13 C 0.7934(2) 0.46222(10) 0.90934(18)
C14 C 0.3204(2) 0.45108(11) 0.63923(17)
C16 C 0.9124(2) 0.30869(12) 0.11662(16)
H4 H 0.914477 0.321773 0.170262
C17 C 0.6754(2) 0.45223(11) 0.85932(17)
C21 C 0.3418(2) 0.39512(11) 0.19602(14)
H8 H 0.300598 0.393407 0.142704
C22 C 0.4510(2) 0.44616(12) 0.77000(16)
C23 C 0.5233(2) 0.44936(12) 0.64104(17)
H9 H 0.584040 0.449274 0.612964
C24 C 0.5235(2) 0.39400(11) 0.29170(14)
C25 C 0.6375(2) 0.40155(12) 0.15768(14)
H10 H 0.675960 0.404427 0.113828
C27 C 0.2849(2) 0.39827(11) 0.26094(14)
C28 C 0.3387(2) 0.44837(12) 0.72331(17)
H12 H 0.276786 0.447969 0.750135
C29 C 0.4726(2) 0.44446(13) 0.85710(16)
H13 H 0.411943 0.441399 0.884968
C30 C 0.6437(2) 0.39648(11) 0.30462(14)
H14 H 0.685527 0.394715 0.357751
C31 C 0.6574(2) 0.45183(11) 0.77522(17)
H15 H 0.719300 0.453995 0.748456
C32 C 0.5453(2) 0.44815(12) 0.72840(16)
C33 C 0.5215(2) 0.39742(12) 0.14333(15)
H16 H 0.481455 0.396554 0.089638
C34 C 0.0974(2) 0.31327(12) 0.46232(15)
H17 H 0.092552 0.325613 0.515276
C35 C 0.4622(2) 0.39400(12) 0.35751(14)
H18 H 0.501676 0.391966 0.411291
C36 C 0.3461(2) 0.39694(12) 0.34278(15)
H19 H 0.307085 0.398069 0.386451
C37 C 0.9070(3) 0.22397(14) 0.02134(19)
H21 H 0.842650 0.197389 0.006125
H22 H 0.976001 0.201331 0.021814
C38 C 0.4618(2) 0.39444(11) 0.20932(14)
C39 C 0.4143(2) 0.45066(12) 0.59791(17)
H23 H 0.401554 0.451280 0.540852
C40 C 0.8980(3) 0.20613(14) 0.1683(2)
H24 H 0.902918 0.227936 0.219045
H25 H 0.958943 0.177000 0.173067
H26 H 0.826234 0.185156 0.155975
C41 C 0.1195(3) 0.23165(15) 0.3679(2)
H27 H 0.110513 0.264873 0.329420
H28 H 0.061056 0.201812 0.350869
H29 H 0.192924 0.213171 0.369895
C42 C 0.1121(3) 0.20943(15) 0.5134(2)
H30 H 0.114493 0.229845 0.564992
H31 H 0.178142 0.183913 0.516494
H32 H 0.044620 0.184748 0.501466
O15 O 0.06760(14) 0.56455(8) 0.49496(10)
O16 O 0.93363(14) 0.56254(8) 0.01107(10)
O18 O 0.14011(17) 0.55291(8) 0.38283(11)
O23 O 0.86619(17) 0.55058(8) 0.12501(11)
H20 H 0.902563 0.256749 0.982410
O1 O 0.93240(14) 0.43545(8) 0.50504(10)
O3 O 0.56637(14) 0.06254(8) 0.48893(10)
O4 O 0.85989(17) 0.44709(8) 0.61717(11)
O11 O 0.63381(17) 0.05058(8) 0.37499(11)
C1 C 0.6240(2) 0.08161(11) 0.43647(15)
C2 C 0.8730(2) 0.41614(11) 0.55607(15)
C3 C 0.8187(2) 0.35406(11) 0.54397(14)
C7 C 0.6796(2) 0.14347(11) 0.44815(14)
C8 C 0.8279(2) 0.31963(12) 0.47610(14)
H1 H 0.866293 0.335253 0.436631
C10 C 0.7791(2) 0.26041(12) 0.46591(14)
C12 C 0.7127(2) 0.27400(12) 0.59625(15)
H3 H 0.675285 0.259124 0.636702
C15 C 0.7209(2) 0.23685(12) 0.52699(14)
C18 C 0.6709(2) 0.17788(12) 0.51628(14)
H5 H 0.631977 0.162385 0.555561
C19 C 0.7864(2) 0.22323(12) 0.39652(15)
H6 H 0.824541 0.237918 0.356326
C20 C 0.7590(2) 0.33096(12) 0.60401(15)
H7 H 0.751539 0.354943 0.649037
C26 C 0.7386(2) 0.16657(12) 0.38796(15)
H11 H 0.744845 0.142928 0.342359
Eu4 Eu 0.96525(2) 0.54035(2) 0.59785(2)
Eu9 Eu 0.46390(2) 0.04318(2) 0.59414(2)
O20 O 0.87613(15) 0.52606(8) 0.37115(10)
Eu7 Eu 0.53610(2) 0.95682(2) 0.40586(2)
Eu4_2 Eu 0.53475(2) 0.04035(2) 0.90215(2)
Eu1 Eu 0.46525(2) 0.95965(2) 0.09785(2)
O2_2 O 0.37918(15) 0.94438(9) 0.20703(11)
O13 O 0.39706(14) 0.89368(8) 0.32487(10)
O14_2 O 0.40897(15) 0.85275(8) 0.09158(11)
C1_2 C 0.8760(2) 0.58161(11) 0.06353(15)
C6_2 C 0.3399(2) 0.91186(11) 0.25757(14)
C7_2 C 0.8204(2) 0.64347(11) 0.05185(14)
N2_2 N 0.3894(2) 0.75453(10) 0.05116(15)
C8_2 C 0.6721(2) 0.81963(12) 0.02390(14)
H1_2 H 0.633707 0.835253 0.063369
C10_2 C 0.7209(2) 0.76041(12) 0.03409(14)
C19_2 C 0.7136(2) 0.72323(12) 0.10348(15)
H6_2 H 0.675459 0.737918 0.143674
C21_2 C 0.1582(2) 0.89512(11) 0.30398(14)
H8_2 H 0.199402 0.893407 0.357296
C26_2 C 0.7614(2) 0.66657(12) 0.11204(15)
H11_2 H 0.755155 0.642928 0.157641
C27_2 C 0.2151(2) 0.89827(11) 0.23906(14)
H16_2 H 0.018545 0.896554 0.410362
C34_2 C 0.4026(2) 0.81327(12) 0.03768(15)
C35_2 C 0.0378(2) 0.89400(12) 0.14249(14)
C36_2 C 0.1539(2) 0.89694(12) 0.15722(15)
H19_2 H 0.192915 0.898069 0.113549
C38_2 C 0.0382(2) 0.89444(11) 0.29068(14)
C41_2 C 0.3805(3) 0.73165(15) 0.1321(2)
H27_2 H 0.389487 0.764873 0.170580
H28_2 H 0.438944 0.701812 0.149131
H29_2 H 0.307076 0.713171 0.130105
O22 O 0.61688(14) 0.90246(8) 0.17597(10)
O21_2 O 0.36925(14) 0.01856(8) 0.37222(10)
O8_2 O 0.63432(15) 0.93245(9) 0.30573(10)
O12_2 O 0.58489(16) 0.84822(8) 0.43605(11)
N1_2 N 0.5933(2) 0.74890(10) 0.39724(15)
C4_2 C 0.6742(2) 0.91256(11) 0.24577(14)
C11_2 C 0.80052(19) 0.90148(11) 0.26083(14)
C16_2 C 0.5876(2) 0.80869(12) 0.38338(16)
H4_2 H 0.585523 0.821773 0.329738
C24_2 C 0.9765(2) 0.89400(11) 0.20830(14)
C25_2 C 0.8625(2) 0.90155(12) 0.34232(14)
H10_2 H 0.824040 0.904427 0.386172
C30_2 C 0.8563(2) 0.89648(11) 0.19538(14)
H14_2 H 0.814473 0.894715 0.142249
C33_2 C 0.9785(2) 0.89742(12) 0.35667(15)
H18_2 H 0.998324 0.891966 0.088709
C37_2 C 0.5930(3) 0.72397(14) 0.47866(19)
H20_2 H 0.597437 0.756749 0.517590
H21_2 H 0.657350 0.697389 0.493875
H22_2 H 0.523999 0.701331 0.478186
C40_2 C 0.6020(3) 0.70613(14) 0.3317(2)
H24_2 H 0.597082 0.727936 0.280955
H25_2 H 0.541057 0.677000 0.326933
H26_2 H 0.673766 0.685156 0.344025
O17_2 O 0.43363(14) 0.93746(8) 0.51107(10)
O19 O 0.69357(16) 0.95155(8) 0.51490(11)
O7_2 O 0.63075(14) 0.98144(8) 0.62778(10)
C9_2 C 0.9188(2) 0.94725(12) 0.59956(16)
H2_2 H 0.906189 0.945882 0.542519
C13_2 C 0.7066(2) 0.96222(10) 0.59066(18)
C17_2 C 0.8246(2) 0.95223(11) 0.64068(17)
C23_2 C 0.9767(2) 0.94936(12) 0.85896(17)
H9_2 H 0.915960 0.949274 0.887036
C31_2 C 0.8426(2) 0.95183(11) 0.72478(17)
H15_2 H 0.780700 0.953995 0.751544
C32_2 C 0.9547(2) 0.94815(12) 0.77160(16)
O11_2 O 0.36619(17) 0.94942(8) 0.62501(11)
C1_3 C 0.3760(2) 0.91839(11) 0.56353(15)
C2_2 C 0.1270(2) 0.58386(11) 0.44393(15)
C3_2 C 0.1813(2) 0.64594(11) 0.45603(14)
C7_3 C 0.3204(2) 0.85653(11) 0.55185(14)
C8_3 C 0.1721(2) 0.68037(12) 0.52390(14)
H1_3 H 0.133707 0.664747 0.563369
C10_3 C 0.2209(2) 0.73959(12) 0.53409(14)
C12_2 C 0.2873(2) 0.72600(12) 0.40375(15)
H3_2 H 0.324715 0.740876 0.363298
C15_2 C 0.2791(2) 0.76315(12) 0.47301(14)
C18_2 C 0.3291(2) 0.82212(12) 0.48372(14)
H5_2 H 0.368023 0.837615 0.444439
C19_3 C 0.2136(2) 0.77677(12) 0.60348(15)
H6_3 H 0.175459 0.762082 0.643674
C20_2 C 0.2410(2) 0.66904(12) 0.39599(15)
H7_2 H 0.248461 0.645057 0.350963
C26_3 C 0.2614(2) 0.83343(12) 0.61204(15)
H11_3 H 0.255155 0.857072 0.657641
O22_2 O 0.11688(14) 0.59754(8) 0.67597(10)
H20_3 H 0.097437 0.743251 0.017590
O19_2 O 0.19357(16) 0.54845(8) 0.01490(11)
O2_3 O 0.87918(15) 0.55562(9) 0.70703(11)
O8_3 O 0.13432(15) 0.56755(9) 0.80573(10)
O10_2 O 0.81235(16) 0.55103(9) 0.48554(11)
O12_3 O 0.08489(16) 0.65178(8) 0.93605(11)
O13_2 O 0.89706(14) 0.60632(8) 0.82487(10)
O14_3 O 0.90897(15) 0.64725(8) 0.59158(11)
N1_3 N 0.0933(2) 0.75110(10) 0.89724(15)
C4_3 C 0.1742(2) 0.58744(11) 0.74577(14)
C5_2 C 0.7988(2) 0.54187(10) 0.40934(18)
C6_3 C 0.8399(2) 0.58814(11) 0.75757(14)
N2_3 N 0.8894(2) 0.74547(10) 0.55116(15)
C9_3 C 0.4188(2) 0.55275(12) 0.09956(16)
H2_3 H 0.406189 0.554118 0.042519
C11_3 C 0.30052(19) 0.59852(11) 0.76083(14)
C13_3 C 0.2066(2) 0.53778(10) 0.09066(18)
C14_2 C 0.6796(2) 0.54892(11) 0.36077(17)
C16_3 C 0.0876(2) 0.69131(12) 0.88338(16)
H4_3 H 0.085523 0.678227 0.829738
C17_3 C 0.3246(2) 0.54777(11) 0.14068(17)
C21_3 C 0.6582(2) 0.60488(11) 0.80398(14)
H8_3 H 0.699402 0.606593 0.857296
C22_2 C 0.5490(2) 0.55384(12) 0.23000(16)
C23_3 C 0.4767(2) 0.55064(12) 0.35896(17)
H9_3 H 0.415960 0.550726 0.387036
C24_3 C 0.4765(2) 0.60600(11) 0.70830(14)
C25_3 C 0.3625(2) 0.59845(12) 0.84232(14)
H10_3 H 0.324040 0.595573 0.886172
C27_3 C 0.7151(2) 0.60173(11) 0.73906(14)
C28_2 C 0.6613(2) 0.55163(12) 0.27669(17)
H12_2 H 0.723214 0.552031 0.249865
C29_2 C 0.5274(2) 0.55554(13) 0.14290(16)
H13_2 H 0.588057 0.558601 0.115032
C30_3 C 0.3563(2) 0.60352(11) 0.69538(14)
H14_3 H 0.314473 0.605285 0.642249
C31_3 C 0.3426(2) 0.54817(11) 0.22478(17)
H15_3 H 0.280700 0.546005 0.251544
C32_3 C 0.4547(2) 0.55185(12) 0.27160(16)
C33_3 C 0.4785(2) 0.60258(12) 0.85667(15)
H16_3 H 0.518545 0.603446 0.910362
C34_3 C 0.9026(2) 0.68673(12) 0.53768(15)
H17_2 H 0.907448 0.674387 0.484724
C35_3 C 0.5378(2) 0.60600(12) 0.64249(14)
H18_3 H 0.498324 0.608034 0.588709
C36_3 C 0.6539(2) 0.60306(12) 0.65722(15)
H19_3 H 0.692915 0.601931 0.613549
C37_3 C 0.0930(3) 0.77603(14) 0.97866(19)
H21_3 H 0.157350 0.802611 0.993875
H22_3 H 0.023999 0.798669 0.978186
C38_3 C 0.5382(2) 0.60556(11) 0.79068(14)
C39_2 C 0.5857(2) 0.54934(12) 0.40209(17)
H23_2 H 0.598446 0.548720 0.459148
C40_3 C 0.1020(3) 0.79387(14) 0.8317(2)
H24_3 H 0.097082 0.772064 0.780955
H25_3 H 0.041057 0.823000 0.826933
H26_3 H 0.173766 0.814844 0.844025
C41_3 C 0.8805(3) 0.76835(15) 0.6321(2)
H27_3 H 0.889487 0.735127 0.670580
H28_3 H 0.938944 0.798188 0.649131
H29_3 H 0.807076 0.786829 0.630105
C42_2 C 0.8879(3) 0.79057(15) 0.4866(2)
H30_2 H 0.885507 0.770155 0.435008
H31_2 H 0.821858 0.816087 0.483506
H32_2 H 0.955380 0.815252 0.498534
O23_2 O 0.13381(17) 0.44942(8) 0.87499(11)
O5_2 O 0.30643(16) 0.04845(8) 0.48510(11)
C9_4 C 0.0812(2) 0.05275(12) 0.40044(16)
H2_4 H 0.093811 0.054118 0.457481
C13_4 C 0.2934(2) 0.03778(10) 0.40934(18)
C17_4 C 0.1754(2) 0.04777(11) 0.35932(17)
C23_4 C 0.0233(2) 0.05064(12) 0.14104(17)
H9_4 H 0.084040 0.050726 0.112964
C31_4 C 0.1574(2) 0.04817(11) 0.27522(17)
H15_4 H 0.219300 0.046005 0.248456
C32_4 C 0.0453(2) 0.05185(12) 0.22840(16)
O8_4 O 0.36568(15) 0.06755(9) 0.69427(10)
O9_2 O 0.38312(14) 0.09754(8) 0.82403(10)
O12_4 O 0.41511(16) 0.15178(8) 0.56395(11)
N1_4 N 0.4067(2) 0.25110(10) 0.60276(15)
C4_4 C 0.3258(2) 0.08744(11) 0.75423(14)
C11_4 C 0.19948(19) 0.09852(11) 0.73917(14)
C16_4 C 0.4124(2) 0.19131(12) 0.61662(16)
H4_4 H 0.414477 0.178227 0.670262
C24_4 C 0.0235(2) 0.10600(11) 0.79170(14)
C25_4 C 0.1375(2) 0.09845(12) 0.65768(14)
H10_4 H 0.175960 0.095573 0.613828
C30_4 C 0.1437(2) 0.10352(11) 0.80462(14)
H14_4 H 0.185527 0.105285 0.857751
C33_4 C 0.0215(2) 0.10258(12) 0.64333(15)
H18_4 H 0.001676 0.108034 0.911291
C37_4 C 0.4070(3) 0.27603(14) 0.52134(19)
H20_4 H 0.402563 0.243251 0.482410
H21_4 H 0.342650 0.302611 0.506125
H22_4 H 0.476001 0.298669 0.521814
C40_4 C 0.3980(3) 0.29387(14) 0.6683(2)
H24_4 H 0.402918 0.272064 0.719045
H25_4 H 0.458943 0.323000 0.673067
H26_4 H 0.326234 0.314844 0.655975
O24_2 O 0.60294(14) 0.10632(8) 0.67513(10)
O2_4 O 0.62082(15) 0.05562(9) 0.79297(11)
O14_4 O 0.59103(15) 0.14725(8) 0.90842(11)
C1_4 C 0.1240(2) 0.41839(11) 0.93647(15)
C6_4 C 0.6601(2) 0.08814(11) 0.74243(14)
C7_4 C 0.1796(2) 0.35653(11) 0.94815(14)
N2_4 N 0.6106(2) 0.24547(10) 0.94884(15)
C8_4 C 0.3279(2) 0.18037(12) 0.97610(14)
H1_4 H 0.366293 0.164747 0.936631
C10_4 C 0.2791(2) 0.23959(12) 0.96591(14)
C19_4 C 0.2864(2) 0.27677(12) 0.89652(15)
H6_4 H 0.324541 0.262082 0.856326
C21_4 C 0.8418(2) 0.10488(11) 0.69602(14)
H8_4 H 0.800598 0.106593 0.642704
C26_4 C 0.2386(2) 0.33343(12) 0.88796(15)
H11_4 H 0.244845 0.357072 0.842359
C27_4 C 0.7849(2) 0.10173(11) 0.76094(14)
H16_4 H 0.981455 0.103446 0.589638
C34_4 C 0.5974(2) 0.18673(12) 0.96232(15)
C35_4 C 0.9622(2) 0.10600(12) 0.85751(14)
C36_4 C 0.8461(2) 0.10306(12) 0.84278(15)
H19_4 H 0.807085 0.101931 0.886451
C38_4 C 0.9618(2) 0.10556(11) 0.70932(14)
C41_4 C 0.6195(3) 0.26835(15) 0.8679(2)
H27_4 H 0.610513 0.235127 0.829420
H28_4 H 0.561056 0.298188 0.850869
H29_4 H 0.692924 0.286829 0.869895
O15_2 O 0.43240(14) 0.06455(8) 0.00504(10)
O18_2 O 0.35989(17) 0.05291(8) 0.11717(11)
O20_2 O 0.62387(15) 0.02606(8) 0.12885(10)
O10_3 O 0.68765(16) 0.05103(9) 0.01446(11)
C2_3 C 0.3730(2) 0.08386(11) 0.05607(15)
C3_3 C 0.3187(2) 0.14594(11) 0.04397(14)
C5_3 C 0.7012(2) 0.04187(10) 0.09066(18)
C12_3 C 0.2127(2) 0.22600(12) 0.09625(15)
H3_3 H 0.175285 0.240876 0.136702
C14_3 C 0.8204(2) 0.04892(11) 0.13923(17)
C15_3 C 0.2209(2) 0.26315(12) 0.02699(14)
C18_3 C 0.1709(2) 0.32212(12) 0.01628(14)
H5_3 H 0.131977 0.337615 0.055561
C20_3 C 0.2590(2) 0.16904(12) 0.10401(15)
H7_3 H 0.251539 0.145057 0.149037
C22_3 C 0.9510(2) 0.05384(12) 0.27000(16)
C28_3 C 0.8387(2) 0.05163(12) 0.22331(17)
H12_3 H 0.776786 0.052031 0.250135
C29_3 C 0.9726(2) 0.05554(13) 0.35710(16)
H13_3 H 0.911943 0.058601 0.384968
H17_3 H 0.592552 0.174387 0.015276
C39_3 C 0.9143(2) 0.04934(12) 0.09791(17)
H23_3 H 0.901554 0.048720 0.040852
C42_3 C 0.6121(3) 0.29057(15) 0.0134(2)
H30_3 H 0.614493 0.270155 0.064992
H31_3 H 0.678142 0.316087 0.016494
H32_3 H 0.544620 0.315252 0.001466
O1_2 O 0.56760(14) 0.93545(8) 0.99496(10)
O4_2 O 0.64011(17) 0.94709(8) 0.88283(11)
O6_2 O 0.37613(15) 0.97394(8) 0.87115(10)
O10_4 O 0.31235(16) 0.94897(9) 0.98554(11)
C2_4 C 0.6270(2) 0.91614(11) 0.94393(15)
C3_4 C 0.6813(2) 0.85406(11) 0.95603(14)
C5_4 C 0.2988(2) 0.95813(10) 0.90934(18)
C12_4 C 0.7873(2) 0.77400(12) 0.90375(15)
H3_4 H 0.824715 0.759124 0.863298
C14_4 C 0.1796(2) 0.95108(11) 0.86077(17)
C15_4 C 0.7791(2) 0.73685(12) 0.97301(14)
C18_4 C 0.8291(2) 0.67788(12) 0.98372(14)
H5_4 H 0.868023 0.662385 0.944439
C20_4 C 0.7410(2) 0.83096(12) 0.89599(15)
H7_4 H 0.748461 0.854943 0.850963
C22_4 C 0.0490(2) 0.94616(12) 0.73000(16)
C28_4 C 0.1613(2) 0.94837(12) 0.77669(17)
H12_4 H 0.223214 0.947969 0.749865
C29_4 C 0.0274(2) 0.94446(13) 0.64290(16)
H13_4 H 0.088057 0.941399 0.615032
H17_4 H 0.407448 0.825613 0.984724
C39_4 C 0.0857(2) 0.95066(12) 0.90209(17)
H23_4 H 0.098446 0.951280 0.959148
C42_4 C 0.3879(3) 0.70943(15) 0.9866(2)
H30_4 H 0.385507 0.729845 0.935008
H31_4 H 0.321858 0.683913 0.983506
H32_4 H 0.455380 0.684748 0.998534
loop_
_geom_bond_atom_site_label_1
_geom_bond_atom_site_label_2
_geom_bond_site_symmetry_1
_geom_bond_site_symmetry_2
Eu6 O8 1_555 1_555
O2 Eu3 1_555 1_555
O5 C13 1_555 1_555
O6 C5 1_555 1_555
O7 C13 1_555 1_555
O8 C4 1_555 1_555
O9 C4 1_555 1_555
O10 Eu3 1_555 1_555
O12 Eu6 1_555 1_555
O24 C6 1_555 1_555
O14 Eu3 1_555 1_555
N1 C16 1_555 1_555
C4 C11 1_555 1_555
C5 O10 1_555 1_555
C6 O2 1_555 1_555
N2 C34 1_555 1_555
C9 H2 1_555 1_555
C11 C25 1_555 1_555
C13 C17 1_555 1_555
C14 C5 1_555 1_555
C16 O12 1_555 1_555
H4 C16 1_555 1_555
C17 C9 1_555 1_555
C21 H8 1_555 1_555
C22 C28 1_555 1_555
C23 H9 1_555 1_555
C24 C30 1_555 1_555
C25 H10 1_555 1_555
C27 C6 1_555 1_555
C28 C14 1_555 1_555
H12 C28 1_555 1_555
C29 C9 1_555 1_555
H13 C29 1_555 1_555
C30 C11 1_555 1_555
H14 C30 1_555 1_555
C31 C17 1_555 1_555
H15 C31 1_555 1_555
C32 C22 1_555 1_555
C33 C25 1_555 1_555
H16 C33 1_555 1_555
C34 O14 1_555 1_555
H17 C34 1_555 1_555
C35 C24 1_555 1_555
H18 C35 1_555 1_555
C36 C27 1_555 1_555
H19 C36 1_555 1_555
C37 N1 1_555 1_555
H21 C37 1_555 1_555
H22 C37 1_555 1_555
C38 C21 1_555 1_555
C39 C14 1_555 1_555
H23 C39 1_555 1_555
C40 N1 1_555 1_555
H24 C40 1_555 1_555
H25 C40 1_555 1_555
H26 C40 1_555 1_555
C41 N2 1_555 1_555
H27 C41 1_555 1_555
H28 C41 1_555 1_555
H29 C41 1_555 1_555
C42 N2 1_555 1_555
H30 C42 1_555 1_555
H31 C42 1_555 1_555
H32 C42 1_555 1_555
O15 Eu3 1_555 1_555
O16 Eu6 1_555 1_555
O18 Eu3 1_555 1_555
O23 Eu6 1_555 1_555
C21 C27 1_555 1_555
C22 C29 1_555 1_555
C23 C32 1_555 1_555
C23 C39 1_555 1_555
C24 C38 1_555 1_555
C31 C32 1_555 1_555
C33 C38 1_555 1_555
C35 C36 1_555 1_555
O1 C2 1_555 1_555
O3 C1 1_555 1_555
O4 C2 1_555 1_555
O11 C1 1_555 1_555
C1 C7 1_555 1_555
C2 C3 1_555 1_555
C3 C8 1_555 1_555
C7 C18 1_555 1_555
C8 H1 1_555 1_555
C10 C8 1_555 1_555
C12 H3 1_555 1_555
C15 C10 1_555 1_555
C18 C15 1_555 1_555
H5 C18 1_555 1_555
C19 C10 1_555 1_555
H6 C19 1_555 1_555
C20 C3 1_555 1_555
H7 C20 1_555 1_555
C26 C7 1_555 1_555
H11 C26 1_555 1_555
Eu4 O1 1_555 1_555
Eu9 O3 1_555 1_555
O4 Eu4 1_555 1_555
C12 C15 1_555 1_555
C12 C20 1_555 1_555
C19 C26 1_555 1_555
O2_2 Eu1 1_555 1_555
O16 C1_2 1_555 1_555
O23 C1_2 1_555 1_555
O13 C6_2 1_555 1_555
O14_2 Eu1 1_555 1_555
C1_2 C7_2 1_555 1_555
C6_2 O2_2 1_555 1_555
N2_2 C34_2 1_555 1_555
C8_2 H1_2 1_555 1_555
C10_2 C8_2 1_555 1_555
C19_2 C10_2 1_555 1_555
H6_2 C19_2 1_555 1_555
C21_2 H8_2 1_555 1_555
C26_2 C7_2 1_555 1_555
H11_2 C26_2 1_555 1_555
C27_2 C6_2 1_555 1_555
C34_2 O14_2 1_555 1_555
C36_2 C27_2 1_555 1_555
H19_2 C36_2 1_555 1_555
C38_2 C21_2 1_555 1_555
C41_2 N2_2 1_555 1_555
H27_2 C41_2 1_555 1_555
H28_2 C41_2 1_555 1_555
H29_2 C41_2 1_555 1_555
Eu7 O13 1_555 1_555
O22 Eu1 1_555 1_555
C19_2 C26_2 1_555 1_555
C21_2 C27_2 1_555 1_555
C35_2 C36_2 1_555 1_555
Eu7 O8_2 1_555 1_555
O8_2 C4_2 1_555 1_555
O22 C4_2 1_555 1_555
O12_2 Eu7 1_555 1_555
N1_2 C16_2 1_555 1_555
C4_2 C11_2 1_555 1_555
C11_2 C25_2 1_555 1_555
C16_2 O12_2 1_555 1_555
H4_2 C16_2 1_555 1_555
C24_2 C30_2 1_555 1_555
C25_2 H10_2 1_555 1_555
C30_2 C11_2 1_555 1_555
H14_2 C30_2 1_555 1_555
C33_2 C25_2 1_555 1_555
C37_2 N1_2 1_555 1_555
H20_2 C37_2 1_555 1_555
H21_2 C37_2 1_555 1_555
H22_2 C37_2 1_555 1_555
C40_2 N1_2 1_555 1_555
H24_2 C40_2 1_555 1_555
H25_2 C40_2 1_555 1_555
H26_2 C40_2 1_555 1_555
O17_2 Eu7 1_555 1_555
O19 Eu7 1_555 1_555
O19 C13_2 1_555 1_555
O7_2 C13_2 1_555 1_555
C9_2 H2_2 1_555 1_555
C13_2 C17_2 1_555 1_555
C17_2 C9_2 1_555 1_555
C23_2 H9_2 1_555 1_555
C31_2 C17_2 1_555 1_555
H15_2 C31_2 1_555 1_555
C23_2 C32_2 1_555 1_555
C31_2 C32_2 1_555 1_555
O15 C2_2 1_555 1_555
O17_2 C1_3 1_555 1_555
O18 C2_2 1_555 1_555
O11_2 C1_3 1_555 1_555
C1_3 C7_3 1_555 1_555
C2_2 C3_2 1_555 1_555
C3_2 C8_3 1_555 1_555
C7_3 C18_2 1_555 1_555
C8_3 H1_3 1_555 1_555
C10_3 C8_3 1_555 1_555
C12_2 H3_2 1_555 1_555
C15_2 C10_3 1_555 1_555
C18_2 C15_2 1_555 1_555
H5_2 C18_2 1_555 1_555
C19_3 C10_3 1_555 1_555
H6_3 C19_3 1_555 1_555
C20_2 C3_2 1_555 1_555
H7_2 C20_2 1_555 1_555
C26_3 C7_3 1_555 1_555
H11_3 C26_3 1_555 1_555
C12_2 C15_2 1_555 1_555
C12_2 C20_2 1_555 1_555
C19_3 C26_3 1_555 1_555
Eu8 O8_3 1_555 1_555
O2_3 Eu4 1_555 1_555
O19_2 C13_3 1_555 1_555
O20 C5_2 1_555 1_555
O21 C13_3 1_555 1_555
O8_3 C4_3 1_555 1_555
O22_2 C4_3 1_555 1_555
O10_2 Eu4 1_555 1_555
O12_3 Eu8 1_555 1_555
O13_2 C6_3 1_555 1_555
O14_3 Eu4 1_555 1_555
N1_3 C16_3 1_555 1_555
C4_3 C11_3 1_555 1_555
C5_2 O10_2 1_555 1_555
C6_3 O2_3 1_555 1_555
N2_3 C34_3 1_555 1_555
C9_3 H2_3 1_555 1_555
C11_3 C25_3 1_555 1_555
C13_3 C17_3 1_555 1_555
C14_2 C5_2 1_555 1_555
C16_3 O12_3 1_555 1_555
H4_3 C16_3 1_555 1_555
C17_3 C9_3 1_555 1_555
C21_3 H8_3 1_555 1_555
C22_2 C28_2 1_555 1_555
C23_3 H9_3 1_555 1_555
C24_3 C30_3 1_555 1_555
C25_3 H10_3 1_555 1_555
C27_3 C6_3 1_555 1_555
C28_2 C14_2 1_555 1_555
H12_2 C28_2 1_555 1_555
C29_2 C9_3 1_555 1_555
H13_2 C29_2 1_555 1_555
C30_3 C11_3 1_555 1_555
H14_3 C30_3 1_555 1_555
C31_3 C17_3 1_555 1_555
H15_3 C31_3 1_555 1_555
C32_3 C22_2 1_555 1_555
C33_3 C25_3 1_555 1_555
H16_3 C33_3 1_555 1_555
C34_3 O14_3 1_555 1_555
H17_2 C34_3 1_555 1_555
C35_3 C24_3 1_555 1_555
H18_3 C35_3 1_555 1_555
C36_3 C27_3 1_555 1_555
H19_3 C36_3 1_555 1_555
C37_3 N1_3 1_555 1_555
H21_3 C37_3 1_555 1_555
H22_3 C37_3 1_555 1_555
C38_3 C21_3 1_555 1_555
C39_2 C14_2 1_555 1_555
H23_2 C39_2 1_555 1_555
C40_3 N1_3 1_555 1_555
H24_3 C40_3 1_555 1_555
H25_3 C40_3 1_555 1_555
H26_3 C40_3 1_555 1_555
C41_3 N2_3 1_555 1_555
H27_3 C41_3 1_555 1_555
H28_3 C41_3 1_555 1_555
H29_3 C41_3 1_555 1_555
C42_2 N2_3 1_555 1_555
H30_2 C42_2 1_555 1_555
H31_2 C42_2 1_555 1_555
H32_2 C42_2 1_555 1_555
O17 Eu8 1_555 1_555
O23_2 Eu8 1_555 1_555
C21_3 C27_3 1_555 1_555
C22_2 C29_2 1_555 1_555
C23_3 C32_3 1_555 1_555
C23_3 C39_2 1_555 1_555
C24_3 C38_3 1_555 1_555
C31_3 C32_3 1_555 1_555
C33_3 C38_3 1_555 1_555
C35_3 C36_3 1_555 1_555
O5_2 C13_4 1_555 1_555
O21_2 C13_4 1_555 1_555
C9_4 H2_4 1_555 1_555
C13_4 C17_4 1_555 1_555
C17_4 C9_4 1_555 1_555
C23_4 H9_4 1_555 1_555
C31_4 C17_4 1_555 1_555
H15_4 C31_4 1_555 1_555
Eu9 O5_2 1_555 1_555
C23_4 C32_4 1_555 1_555
C31_4 C32_4 1_555 1_555
Eu9 O8_4 1_555 1_555
O8_4 C4_4 1_555 1_555
O9_2 C4_4 1_555 1_555
O12_4 Eu9 1_555 1_555
N1_4 C16_4 1_555 1_555
C4_4 C11_4 1_555 1_555
C11_4 C25_4 1_555 1_555
C16_4 O12_4 1_555 1_555
H4_4 C16_4 1_555 1_555
C24_4 C30_4 1_555 1_555
C25_4 H10_4 1_555 1_555
C30_4 C11_4 1_555 1_555
H14_4 C30_4 1_555 1_555
C33_4 C25_4 1_555 1_555
C37_4 N1_4 1_555 1_555
H20_4 C37_4 1_555 1_555
H21_4 C37_4 1_555 1_555
H22_4 C37_4 1_555 1_555
C40_4 N1_4 1_555 1_555
H24_4 C40_4 1_555 1_555
H25_4 C40_4 1_555 1_555
H26_4 C40_4 1_555 1_555
Eu4_2 O9_2 1_555 1_555
O24_2 Eu9 1_555 1_555
O2_4 Eu4_2 1_555 1_555
O17 C1_4 1_555 1_555
O23_2 C1_4 1_555 1_555
O24_2 C6_4 1_555 1_555
O14_4 Eu4_2 1_555 1_555
C1_4 C7_4 1_555 1_555
C6_4 O2_4 1_555 1_555
N2_4 C34_4 1_555 1_555
C8_4 H1_4 1_555 1_555
C10_4 C8_4 1_555 1_555
C19_4 C10_4 1_555 1_555
H6_4 C19_4 1_555 1_555
C21_4 H8_4 1_555 1_555
C26_4 C7_4 1_555 1_555
H11_4 C26_4 1_555 1_555
C27_4 C6_4 1_555 1_555
C34_4 O14_4 1_555 1_555
C36_4 C27_4 1_555 1_555
H19_4 C36_4 1_555 1_555
C38_4 C21_4 1_555 1_555
C41_4 N2_4 1_555 1_555
H27_4 C41_4 1_555 1_555
H28_4 C41_4 1_555 1_555
H29_4 C41_4 1_555 1_555
C19_4 C26_4 1_555 1_555
C21_4 C27_4 1_555 1_555
C35_4 C36_4 1_555 1_555
O15_2 C2_3 1_555 1_555
O18_2 C2_3 1_555 1_555
O20_2 C5_3 1_555 1_555
C2_3 C3_3 1_555 1_555
C5_3 O10_3 1_555 1_555
C12_3 H3_3 1_555 1_555
C14_3 C5_3 1_555 1_555
C18_3 C15_3 1_555 1_555
H5_3 C18_3 1_555 1_555
C20_3 C3_3 1_555 1_555
H7_3 C20_3 1_555 1_555
C22_3 C28_3 1_555 1_555
C28_3 C14_3 1_555 1_555
H12_3 C28_3 1_555 1_555
H13_3 C29_3 1_555 1_555
C39_3 C14_3 1_555 1_555
H23_3 C39_3 1_555 1_555
H30_3 C42_3 1_555 1_555
H31_3 C42_3 1_555 1_555
H32_3 C42_3 1_555 1_555
C12_3 C15_3 1_555 1_555
C12_3 C20_3 1_555 1_555
C22_3 C29_3 1_555 1_555
O1_2 C2_4 1_555 1_555
O4_2 C2_4 1_555 1_555
O6_2 C5_4 1_555 1_555
C2_4 C3_4 1_555 1_555
C5_4 O10_4 1_555 1_555
C12_4 H3_4 1_555 1_555
C14_4 C5_4 1_555 1_555
C18_4 C15_4 1_555 1_555
H5_4 C18_4 1_555 1_555
C20_4 C3_4 1_555 1_555
H7_4 C20_4 1_555 1_555
C22_4 C28_4 1_555 1_555
C28_4 C14_4 1_555 1_555
H12_4 C28_4 1_555 1_555
H13_4 C29_4 1_555 1_555
C39_4 C14_4 1_555 1_555
H23_4 C39_4 1_555 1_555
H30_4 C42_4 1_555 1_555
H31_4 C42_4 1_555 1_555
H32_4 C42_4 1_555 1_555
C12_4 C15_4 1_555 1_555
C12_4 C20_4 1_555 1_555
C22_4 C29_4 1_555 1_555

#END
