
###############################################################################
#
# This file contains modified crystal structure data generated from the
# MOF subset of the Cambridge Structural Database (CSD) v543 
# hosted by the Cambridge Crystallographic Data Centre (CCDC).
#
# This work is licensed under the Creative Commons
# Attribution-NonCommercial-ShareAlike 4.0 International License.
# To view a copy of this license, visit
# http://creativecommons.org/licenses/by-nc-sa/4.0/
# or send a letter to
# Creative Commons, PO Box 1866, Mountain View, CA 94042, USA.
#
# CIF created using the CSD Python API on 29 September 2022
# The structure has been converted into the P1 space group
# The structure has a 3D framework
# The original CSD entry ROCZUG is in the monoclinic crystal system
# The framework has been calculated to contain at least 10.0% void space
# The void calculation uses a probe of radius 1.32A, grid spacing 0.4
#
###############################################################################

data_ROCZUG
_chemical_formula_moiety         '(C68 H68 Cd9 N56 O4)n'
_symmetry_cell_setting           triclinic
_symmetry_space_group_name_H-M   'P 1'
_symmetry_Int_Tables_number      1
_space_group_name_Hall           'P 1'
loop_
_symmetry_equiv_pos_site_id
_symmetry_equiv_pos_as_xyz
1 x,y,z
_cell_length_a                   11.0290(4)
_cell_length_b                   22.7620(7)
_cell_length_c                   14.4800(4)
_cell_angle_alpha                90
_cell_angle_beta                 97.147(3)
_cell_angle_gamma                90
_cell_volume                     3606.85
loop_
_atom_site_label
_atom_site_type_symbol
_atom_site_fract_x
_atom_site_fract_y
_atom_site_fract_z
C18 C 0.0625(4) 0.0948(2) 0.7253(3)
H18 H 0.0854 0.1084 0.6695
C22 C 0.1138(4) 0.0607(2) 0.8720(3)
H21 H 0.1732 0.0503 0.9206
N15 N 0.1507(3) 0.07878(15) 0.7924(2)
Cd6 Cd 0.36417(2) 0.074446(12) 0.783659(17)
Cd1 Cd 0.5000 0.0000 0.0000
C13 C 0.6235(5) 0.0196(2) 0.3862(3)
C14 C 0.5204(7) 0.0563(3) 0.3422(5)
H9 H 0.5352 0.0692 0.2808
H10 H 0.4443 0.0344 0.3367
C15 C 0.5160(11) 0.1067(4) 0.4055(7)
H11 H 0.5443 0.1419 0.3770
H12 H 0.4327 0.1133 0.4181
C16 C 0.5942(10) 0.0939(3) 0.4919(6)
H13 H 0.6489 0.1264 0.5100
H14 H 0.5461 0.0856 0.5420
C17 C 0.7612(9) 0.0182(4) 0.5293(5)
H15 H 0.7741 0.0411 0.5853
H16 H 0.8339 0.0189 0.4990
N11 N 0.6361(3) 0.01183(14) 0.1319(2)
N12 N 0.6978(4) 0.05254(18) 0.1522(3)
N13 N 0.7572(8) 0.0928(3) 0.1731(6)
N14 N 0.6616(6) 0.0423(2) 0.4685(3)
C24 C 0.4179(5) 0.2909(2) 0.2374(3)
H22 H 0.4478 0.2917 0.3003
C25 C 0.4227(5) 0.2391(2) 0.1908(3)
H23 H 0.4538 0.2056 0.2219
C26 C 0.3808(4) 0.23685(17) 0.0968(3)
C27 C 0.3342(4) 0.28795(17) 0.0547(3)
C28 C 0.3322(4) 0.33837(17) 0.1075(3)
H25 H 0.3006 0.3725 0.0783
C29 C 0.3877(4) 0.18283(17) 0.0434(3)
N20 N 0.3729(3) 0.34078(14) 0.1979(2)
N21 N 0.4267(3) 0.13130(15) 0.0809(2)
N22 N 0.4223(3) 0.09489(14) 0.0089(2)
Cd5 Cd 0.36417(2) 0.425554(12) 0.283659(17)
Cd1_2 Cd 0.5000 0.0000 1.0000
C19 C 0.9404(4) 0.0923(2) 0.7340(3)
H19 H 0.8828 0.1042 0.6852
C20 C 0.9034(4) 0.07188(17) 0.8160(3)
C21 C 0.9945(4) 0.0566(2) 0.8866(3)
H20 H 0.9743 0.0436 0.9436
C23 C 0.7750(4) 0.06430(18) 0.8307(3)
H24 H 0.3046 0.2884 0.9917
H34 H 0.2574 0.0216 0.4556
N16 N 0.7433(3) 0.03906(16) 0.9074(2)
N17 N 0.6231(3) 0.03992(15) 0.8953(2)
N18 N 0.5824(3) 0.06522(15) 0.8140(2)
N19 N 0.6780(3) 0.08104(15) 0.7716(2)
N23 N 0.3833(3) 0.12339(14) 0.9309(2)
N24 N 0.3605(3) 0.17914(14) 0.9511(2)
O2 O 0.3351(3) 0.02604(14) 0.6445(2)
N31 N 0.3729(3) 0.15922(14) 0.6979(2)
Cd1_3 Cd 0.5000 1.0000 0.0000
Cd2 Cd 0.63583(2) 0.925554(12) 0.216341(17)
C2 C 0.0596(4) 0.9077(2) 0.2660(3)
H2 H 0.1172 0.8958 0.3148
C3 C 0.0966(4) 0.92812(17) 0.1840(3)
C4 C 0.0055(4) 0.9434(2) 0.1134(3)
H3 H 0.0257 0.9564 0.0564
C6 C 0.2250(4) 0.93570(18) 0.1693(3)
H7 H 0.6954 0.7116 0.0083
H17 H 0.7426 0.9784 0.5444
N2 N 0.2567(3) 0.96094(16) 0.0926(2)
N3 N 0.3769(3) 0.96008(15) 0.1047(2)
N4 N 0.4176(3) 0.93478(15) 0.1860(2)
N5 N 0.3220(3) 0.91896(15) 0.2284(2)
N9 N 0.6167(3) 0.87661(14) 0.0691(2)
N10 N 0.6395(3) 0.82086(14) 0.0489(2)
O1 O 0.6649(3) 0.97396(14) 0.3555(2)
N29 N 0.8493(3) 0.92122(15) 0.2076(2)
N32 N 0.6271(3) 0.84078(14) 0.3021(2)
Cd1_4 Cd 0.5000 1.0000 1.0000
C7 C 0.5821(5) 0.7091(2) 0.7626(3)
H5 H 0.5522 0.7083 0.6997
C8 C 0.5773(5) 0.7609(2) 0.8092(3)
H6 H 0.5462 0.7944 0.7781
C9 C 0.6192(4) 0.76315(17) 0.9032(3)
C10 C 0.6658(4) 0.71205(17) 0.9453(3)
C11 C 0.6678(4) 0.66163(17) 0.8925(3)
H8 H 0.6994 0.6275 0.9217
C12 C 0.6123(4) 0.81717(17) 0.9566(3)
N6 N 0.6271(3) 0.65922(14) 0.8021(2)
N7 N 0.5733(3) 0.86870(15) 0.9191(2)
N8 N 0.5777(3) 0.90511(14) 0.9911(2)
C30 C 0.3765(5) 0.9804(2) 0.6138(3)
C31 C 0.4796(7) 0.9437(3) 0.6578(5)
H26 H 0.4648 0.9308 0.7192
H27 H 0.5557 0.9656 0.6633
C32 C 0.4840(11) 0.8933(4) 0.5945(7)
H28 H 0.4557 0.8581 0.6230
H29 H 0.5673 0.8867 0.5819
C33 C 0.4058(10) 0.9061(3) 0.5081(6)
H30 H 0.3511 0.8736 0.4900
H31 H 0.4539 0.9144 0.4580
C34 C 0.2388(9) 0.9818(4) 0.4707(5)
H32 H 0.2259 0.9589 0.4147
H33 H 0.1661 0.9811 0.5010
N25 N 0.3639(3) 0.98817(14) 0.8681(2)
N26 N 0.3022(4) 0.94746(18) 0.8478(3)
N27 N 0.2428(8) 0.9072(3) 0.8269(6)
N28 N 0.3384(6) 0.9577(2) 0.5315(3)
Cd7 Cd 0.63583(2) 0.574446(12) 0.716341(17)
C1 C 0.9375(4) 0.9052(2) 0.2747(3)
H1 H 0.9146 0.8916 0.3305
C5 C 0.8862(4) 0.9393(2) 0.1280(3)
H4 H 0.8268 0.9497 0.0794
C1_2 C 0.0625(4) 0.4052(2) 0.2253(3)
H1_2 H 0.0854 0.3916 0.1695
C5_2 C 0.1138(4) 0.4393(2) 0.3720(3)
H4_2 H 0.1732 0.4497 0.4206
N1 N 0.1507(3) 0.42122(15) 0.2924(2)
Cd1_5 Cd 0.5000 0.5000 0.5000
C2_2 C 0.9404(4) 0.4077(2) 0.2340(3)
H2_2 H 0.8828 0.3958 0.1852
C3_2 C 0.9034(4) 0.42812(17) 0.3160(3)
C4_2 C 0.9945(4) 0.4434(2) 0.3866(3)
H3_2 H 0.9743 0.4564 0.4436
C6_2 C 0.7750(4) 0.43570(18) 0.3307(3)
C7_2 C 0.4179(5) 0.2091(2) 0.7374(3)
H5_2 H 0.4478 0.2083 0.8003
C8_2 C 0.4227(5) 0.2609(2) 0.6908(3)
H6_2 H 0.4538 0.2944 0.7219
C9_2 C 0.3808(4) 0.26315(17) 0.5968(3)
C10_2 C 0.3342(4) 0.21205(17) 0.5547(3)
H7_2 H 0.3046 0.2116 0.4917
C11_2 C 0.3322(4) 0.16163(17) 0.6075(3)
H8_2 H 0.3006 0.1275 0.5783
C12_2 C 0.3877(4) 0.31717(17) 0.5434(3)
C13_2 C 0.3765(5) 0.5196(2) 0.1138(3)
C14_2 C 0.4796(7) 0.5563(3) 0.1578(5)
H9_2 H 0.4648 0.5692 0.2192
H10_2 H 0.5557 0.5344 0.1633
C15_2 C 0.4840(11) 0.6067(4) 0.0945(7)
H11_2 H 0.4557 0.6419 0.1230
H12_2 H 0.5673 0.6133 0.0819
C16_2 C 0.4058(10) 0.5939(3) 0.0081(6)
H16_2 H 0.1661 0.5189 0.0010
N2_2 N 0.7433(3) 0.46094(16) 0.4074(2)
N3_2 N 0.6231(3) 0.46008(15) 0.3953(2)
N4_2 N 0.5824(3) 0.43478(15) 0.3140(2)
N5_2 N 0.6780(3) 0.41896(15) 0.2716(2)
N7_2 N 0.4267(3) 0.36870(15) 0.5809(2)
N8_2 N 0.4223(3) 0.40511(14) 0.5089(2)
N9_2 N 0.3833(3) 0.37661(14) 0.4309(2)
N10_2 N 0.3605(3) 0.32086(14) 0.4511(2)
N11_2 N 0.3639(3) 0.51183(14) 0.3681(2)
N12_2 N 0.3022(4) 0.55254(18) 0.3478(3)
N13_2 N 0.2428(8) 0.5928(3) 0.3269(6)
N14_2 N 0.3384(6) 0.5423(2) 0.0315(3)
O1_2 O 0.3351(3) 0.47396(14) 0.1445(2)
C19_2 C 0.0596(4) 0.5923(2) 0.7660(3)
H19_2 H 0.1172 0.6042 0.8148
C20_2 C 0.0966(4) 0.57188(17) 0.6840(3)
C21_2 C 0.0055(4) 0.5566(2) 0.6134(3)
H20_2 H 0.0257 0.5436 0.5564
C23_2 C 0.2250(4) 0.56430(18) 0.6693(3)
C24_2 C 0.5821(5) 0.7909(2) 0.2626(3)
H22_2 H 0.5522 0.7917 0.1997
C25_2 C 0.5773(5) 0.7391(2) 0.3092(3)
H23_2 H 0.5462 0.7056 0.2781
C26_2 C 0.6192(4) 0.73685(17) 0.4032(3)
C27_2 C 0.6658(4) 0.78795(17) 0.4453(3)
H24_2 H 0.6954 0.7884 0.5083
C28_2 C 0.6678(4) 0.83837(17) 0.3925(3)
H25_2 H 0.6994 0.8725 0.4217
C29_2 C 0.6123(4) 0.68283(17) 0.4566(3)
C30_2 C 0.6235(5) 0.4804(2) 0.8862(3)
C31_2 C 0.5204(7) 0.4437(3) 0.8422(5)
H26_2 H 0.5352 0.4308 0.7808
H27_2 H 0.4443 0.4656 0.8367
C32_2 C 0.5160(11) 0.3933(4) 0.9055(7)
H28_2 H 0.5443 0.3581 0.8770
H29_2 H 0.4327 0.3867 0.9181
C33_2 C 0.5942(10) 0.4061(3) 0.9919(6)
H33_2 H 0.8339 0.4811 0.9990
N16_2 N 0.2567(3) 0.53906(16) 0.5926(2)
N17_2 N 0.3769(3) 0.53992(15) 0.6047(2)
N18_2 N 0.4176(3) 0.56522(15) 0.6860(2)
N19_2 N 0.3220(3) 0.58104(15) 0.7284(2)
N21_2 N 0.5733(3) 0.63130(15) 0.4191(2)
N22_2 N 0.5777(3) 0.59489(14) 0.4911(2)
N23_2 N 0.6167(3) 0.62339(14) 0.5691(2)
N24_2 N 0.6395(3) 0.67914(14) 0.5489(2)
N25_2 N 0.6361(3) 0.48817(14) 0.6319(2)
N26_2 N 0.6978(4) 0.44746(18) 0.6522(3)
N27_2 N 0.7572(8) 0.4072(3) 0.6731(6)
N28_2 N 0.6616(6) 0.4577(2) 0.9685(3)
O2_2 O 0.6649(3) 0.52604(14) 0.8555(2)
N30 N 0.8493(3) 0.57878(15) 0.7076(2)
C18_2 C 0.9375(4) 0.5948(2) 0.7747(3)
H18_2 H 0.9146 0.6084 0.8305
C22_2 C 0.8862(4) 0.5607(2) 0.6280(3)
H21_2 H 0.8268 0.5503 0.5794
H30_2 H 0.6489 0.3736 0.0100
H31_2 H 0.5461 0.4144 0.0420
C34_2 C 0.7612(9) 0.4818(4) 0.0293(5)
H32_2 H 0.7741 0.4589 0.0853
H34_2 H 0.7426 0.5216 0.0444
H13_2 H 0.3511 0.6264 0.9900
H14_2 H 0.4539 0.5856 0.9580
C17_2 C 0.2388(9) 0.5182(4) 0.9707(5)
H15_2 H 0.2259 0.5411 0.9147
H17_2 H 0.2574 0.4784 0.9556
loop_
_geom_bond_atom_site_label_1
_geom_bond_atom_site_label_2
_geom_bond_site_symmetry_1
_geom_bond_site_symmetry_2
C18 H18 1_555 1_555
H21 C22 1_555 1_555
N15 C18 1_555 1_555
Cd6 N15 1_555 1_555
C22 N15 1_555 1_555
C13 C14 1_555 1_555
C14 H9 1_555 1_555
H10 C14 1_555 1_555
C15 C14 1_555 1_555
H11 C15 1_555 1_555
H12 C15 1_555 1_555
C16 C15 1_555 1_555
H13 C16 1_555 1_555
H14 C16 1_555 1_555
C17 H15 1_555 1_555
H16 C17 1_555 1_555
N11 Cd1 1_555 1_555
N12 N11 1_555 1_555
N13 N12 1_555 1_555
N14 C13 1_555 1_555
C24 H22 1_555 1_555
C25 C24 1_555 1_555
H23 C25 1_555 1_555
C26 C25 1_555 1_555
C27 C26 1_555 1_555
C28 C27 1_555 1_555
H25 C28 1_555 1_555
C29 C26 1_555 1_555
N20 C24 1_555 1_555
N21 C29 1_555 1_555
N22 Cd1 1_555 1_555
Cd5 N20 1_555 1_555
C16 N14 1_555 1_555
C17 N14 1_555 1_555
C28 N20 1_555 1_555
N21 N22 1_555 1_555
Cd6 N18 1_555 1_555
H19 C19 1_555 1_555
C20 C19 1_555 1_555
C21 C20 1_555 1_555
H20 C21 1_555 1_555
C23 C20 1_555 1_555
N16 C23 1_555 1_555
N17 Cd1_2 1_555 1_555
N18 N17 1_555 1_555
N19 C23 1_555 1_555
N23 Cd6 1_555 1_555
O2 Cd6 1_555 1_555
N31 Cd6 1_555 1_555
N16 N17 1_555 1_555
N18 N19 1_555 1_555
N23 N24 1_555 1_555
Cd1_3 N3 1_555 1_555
Cd2 N4 1_555 1_555
H2 C2 1_555 1_555
C3 C2 1_555 1_555
C4 C3 1_555 1_555
H3 C4 1_555 1_555
C6 C3 1_555 1_555
N2 C6 1_555 1_555
N3 N2 1_555 1_555
N4 N3 1_555 1_555
N5 C6 1_555 1_555
N9 Cd2 1_555 1_555
O1 Cd2 1_555 1_555
N29 Cd2 1_555 1_555
N32 Cd2 1_555 1_555
N4 N5 1_555 1_555
N9 N10 1_555 1_555
C7 H5 1_555 1_555
C8 C7 1_555 1_555
H6 C8 1_555 1_555
C9 C8 1_555 1_555
C10 C9 1_555 1_555
C11 C10 1_555 1_555
H8 C11 1_555 1_555
C12 C9 1_555 1_555
N6 C7 1_555 1_555
N7 C12 1_555 1_555
N8 Cd1_4 1_555 1_555
C30 C31 1_555 1_555
C31 H26 1_555 1_555
H27 C31 1_555 1_555
C32 C31 1_555 1_555
H28 C32 1_555 1_555
H29 C32 1_555 1_555
C33 C32 1_555 1_555
H30 C33 1_555 1_555
H31 C33 1_555 1_555
C34 H32 1_555 1_555
H33 C34 1_555 1_555
N25 Cd1_4 1_555 1_555
N26 N25 1_555 1_555
N27 N26 1_555 1_555
N28 C30 1_555 1_555
Cd7 N6 1_555 1_555
C11 N6 1_555 1_555
N7 N8 1_555 1_555
C33 N28 1_555 1_555
C34 N28 1_555 1_555
C1 H1 1_555 1_555
H4 C5 1_555 1_555
N29 C1 1_555 1_555
C5 N29 1_555 1_555
C1_2 H1_2 1_555 1_555
H4_2 C5_2 1_555 1_555
N1 C1_2 1_555 1_555
Cd5 N1 1_555 1_555
C5_2 N1 1_555 1_555
Cd1_5 N3_2 1_555 1_555
Cd5 N4_2 1_555 1_555
H2_2 C2_2 1_555 1_555
C3_2 C2_2 1_555 1_555
C4_2 C3_2 1_555 1_555
H3_2 C4_2 1_555 1_555
C6_2 C3_2 1_555 1_555
C7_2 H5_2 1_555 1_555
C8_2 C7_2 1_555 1_555
H6_2 C8_2 1_555 1_555
C9_2 C8_2 1_555 1_555
C10_2 C9_2 1_555 1_555
H7_2 C10_2 1_555 1_555
C11_2 C10_2 1_555 1_555
H8_2 C11_2 1_555 1_555
C12_2 C9_2 1_555 1_555
C13_2 C14_2 1_555 1_555
C14_2 H9_2 1_555 1_555
H10_2 C14_2 1_555 1_555
C15_2 C14_2 1_555 1_555
H11_2 C15_2 1_555 1_555
H12_2 C15_2 1_555 1_555
C16_2 C15_2 1_555 1_555
N2_2 C6_2 1_555 1_555
N3_2 N2_2 1_555 1_555
N4_2 N3_2 1_555 1_555
N5_2 C6_2 1_555 1_555
N31 C7_2 1_555 1_555
N7_2 C12_2 1_555 1_555
N8_2 Cd1_5 1_555 1_555
N9_2 Cd5 1_555 1_555
N10_2 C12_2 1_555 1_555
N11_2 Cd1_5 1_555 1_555
N12_2 N11_2 1_555 1_555
N13_2 N12_2 1_555 1_555
N14_2 C13_2 1_555 1_555
O1_2 Cd5 1_555 1_555
Cd7 N18_2 1_555 1_555
H19_2 C19_2 1_555 1_555
C20_2 C19_2 1_555 1_555
C21_2 C20_2 1_555 1_555
H20_2 C21_2 1_555 1_555
C23_2 C20_2 1_555 1_555
C24_2 H22_2 1_555 1_555
C25_2 C24_2 1_555 1_555
H23_2 C25_2 1_555 1_555
C26_2 C25_2 1_555 1_555
C27_2 C26_2 1_555 1_555
H24_2 C27_2 1_555 1_555
C28_2 C27_2 1_555 1_555
H25_2 C28_2 1_555 1_555
C29_2 C26_2 1_555 1_555
C30_2 C31_2 1_555 1_555
C31_2 H26_2 1_555 1_555
H27_2 C31_2 1_555 1_555
C32_2 C31_2 1_555 1_555
H28_2 C32_2 1_555 1_555
H29_2 C32_2 1_555 1_555
C33_2 C32_2 1_555 1_555
N16_2 C23_2 1_555 1_555
N17_2 Cd1_5 1_555 1_555
N18_2 N17_2 1_555 1_555
N19_2 C23_2 1_555 1_555
N32 C24_2 1_555 1_555
N21_2 C29_2 1_555 1_555
N22_2 Cd1_5 1_555 1_555
N23_2 Cd7 1_555 1_555
N24_2 C29_2 1_555 1_555
N25_2 Cd1_5 1_555 1_555
N26_2 N25_2 1_555 1_555
N27_2 N26_2 1_555 1_555
N28_2 C30_2 1_555 1_555
O2_2 Cd7 1_555 1_555
N30 Cd7 1_555 1_555
Cd5 N11_2 1_555 1_555
C11_2 N31 1_555 1_555
C13_2 O1_2 1_555 1_555
C16_2 N14_2 1_555 1_555
N4_2 N5_2 1_555 1_555
N7_2 N8_2 1_555 1_555
N8_2 N9_2 1_555 1_555
N9_2 N10_2 1_555 1_555
Cd7 N25_2 1_555 1_555
C28_2 N32 1_555 1_555
C30_2 O2_2 1_555 1_555
C33_2 N28_2 1_555 1_555
N16_2 N17_2 1_555 1_555
N18_2 N19_2 1_555 1_555
N21_2 N22_2 1_555 1_555
N22_2 N23_2 1_555 1_555
N23_2 N24_2 1_555 1_555
C18_2 H18_2 1_555 1_555
H21_2 C22_2 1_555 1_555
N30 C18_2 1_555 1_555
C22_2 N30 1_555 1_555
C34_2 H32_2 1_555 1_555
H34_2 C34_2 1_555 1_555
C17_2 H15_2 1_555 1_555
H17_2 C17_2 1_555 1_555

#END
