
###############################################################################
#
# This file contains modified crystal structure data generated from the
# MOF subset of the Cambridge Structural Database (CSD) v543 
# hosted by the Cambridge Crystallographic Data Centre (CCDC).
#
# This work is licensed under the Creative Commons
# Attribution-NonCommercial-ShareAlike 4.0 International License.
# To view a copy of this license, visit
# http://creativecommons.org/licenses/by-nc-sa/4.0/
# or send a letter to
# Creative Commons, PO Box 1866, Mountain View, CA 94042, USA.
#
# CIF created using the CSD Python API on 29 September 2022
# The structure has been converted into the P1 space group
# The structure has a 3D framework
# The original CSD entry ROCZIU is in the monoclinic crystal system
# The framework has been calculated to contain at least 10.0% void space
# The void calculation uses a probe of radius 1.32A, grid spacing 0.4
#
###############################################################################

data_ROCZIU
_chemical_formula_moiety         '(C68 H72 Cd14 N28 O20)n'
_symmetry_cell_setting           triclinic
_symmetry_space_group_name_H-M   'P 1'
_symmetry_Int_Tables_number      1
_space_group_name_Hall           'P 1'
loop_
_symmetry_equiv_pos_site_id
_symmetry_equiv_pos_as_xyz
1 x,y,z
_cell_length_a                   9.6380(12)
_cell_length_b                   15.4430(15)
_cell_length_c                   18.7170(16)
_cell_angle_alpha                90
_cell_angle_beta                 90.00
_cell_angle_gamma                90
_cell_volume                     2785.83
loop_
_atom_site_label
_atom_site_type_symbol
_atom_site_fract_x
_atom_site_fract_y
_atom_site_fract_z
Cd1 Cd 0.0000 0.0000 0.0000
C18 C 0.5819(5) 0.1446(4) 0.0166(3)
C19 C 0.4430(5) 0.1301(3) 0.0091(3)
C20 C 0.3511(5) 0.1847(3) 0.0423(3)
C21 C 0.4070(5) 0.2515(3) 0.0817(3)
H21 H 0.3486 0.2905 0.1047
C22 C 0.5473(5) 0.2610(3) 0.0872(3)
H22 H 0.5817 0.3063 0.1148
C23 C 0.1981(5) 0.1689(3) 0.0369(3)
N8 N 0.6365(4) 0.2087(3) 0.0552(2)
O9 O 0.1205(3) 0.2196(2) 0.07033(19)
Cd6 Cd 0.88353(3) 0.21690(2) 0.060981(17)
Cd1_2 Cd 0.0000 1.0000 0.0000
C7 C 0.0507(5) 0.8273(3) 0.2994(3)
C8 C 0.0464(5) 0.8577(3) 0.2306(2)
C9 C 0.1257(5) 0.8183(3) 0.1800(2)
C10 C 0.2087(5) 0.7503(3) 0.2009(3)
H7 H 0.2631 0.7213 0.1676
C11 C 0.2105(5) 0.7256(3) 0.2715(3)
H8 H 0.2693 0.6808 0.2852
C12 C 0.1189(5) 0.8472(3) 0.1031(2)
C13 C 0.1082(6) 0.5975(3) 0.0226(3)
C14 C 0.0371(7) 0.5494(4) 0.1313(3)
H10 H 0.0355 0.5925 0.1690
C15 C 0.1797(8) 0.5174(4) 0.1188(4)
H11 H 0.2412 0.5334 0.1576
H12 H 0.1813 0.4550 0.1129
C17 C 0.3491(7) 0.5508(5) 0.0209(5)
H16 H 0.4116 0.5228 0.0534
H17 H 0.3852 0.6068 0.0084
N2 N 0.1321(4) 0.7627(2) 0.3206(2)
N7 N 0.2167(5) 0.5607(3) 0.0540(3)
O1 O 0.1066(4) 0.9259(2) 0.09189(17)
O2 O 0.1288(4) 0.7883(2) 0.05798(17)
Cd7 Cd 0.11647(3) 0.71690(2) 0.439019(17)
Cd1_3 Cd 0.0000 1.0000 1.0000
Cd2 Cd 0.11647(3) 0.78310(2) 0.939019(17)
H18 H 0.3396 0.5163 0.9785
N3 N 0.1212(4) 0.9285(3) 0.9149(2)
N4 N 0.1710(6) 0.9632(3) 0.8667(3)
N5 N 0.2150(10) 0.9976(4) 0.8181(5)
O5 O 0.1095(4) 0.6343(2) 0.96279(19)
N15 N 0.3635(4) 0.7913(3) 0.9448(2)
N18 N 0.1321(4) 0.7373(2) 0.8206(2)
Cd1_4 Cd 1.0000 0.0000 0.0000
H36 H 0.6604 0.4837 0.0215
N10 N 0.8788(4) 0.0715(3) 0.0851(2)
N11 N 0.8290(6) 0.0368(3) 0.1333(3)
N12 N 0.7850(10) 0.0024(4) 0.1819(5)
O10 O 0.8905(4) 0.3657(2) 0.03721(19)
N17 N 0.8679(4) 0.2627(2) 0.1794(2)
Cd1_5 Cd 1.0000 0.0000 1.0000
C24 C 0.9493(5) 0.1727(3) 0.7006(3)
C25 C 0.9536(5) 0.1423(3) 0.7694(2)
C26 C 0.8743(5) 0.1817(3) 0.8200(2)
C27 C 0.7913(5) 0.2497(3) 0.7991(3)
H25 H 0.7369 0.2787 0.8324
C28 C 0.7895(5) 0.2744(3) 0.7285(3)
H26 H 0.7307 0.3192 0.7148
C29 C 0.8811(5) 0.1528(3) 0.8969(2)
C30 C 0.8918(6) 0.4025(3) 0.9774(3)
C31 C 0.9629(7) 0.4506(4) 0.8687(3)
H28 H 0.9645 0.4075 0.8310
C32 C 0.8203(8) 0.4826(4) 0.8812(4)
H29 H 0.7588 0.4666 0.8424
H30 H 0.8187 0.5450 0.8871
C34 C 0.6509(7) 0.4492(5) 0.9791(5)
H34 H 0.5884 0.4772 0.9466
H35 H 0.6148 0.3932 0.9916
N9 N 0.8679(4) 0.2373(2) 0.6794(2)
N14 N 0.7833(5) 0.4393(3) 0.9460(3)
O6 O 0.8934(4) 0.0741(2) 0.90811(17)
O7 O 0.8712(4) 0.2117(2) 0.94202(17)
Cd5 Cd 0.88353(3) 0.28310(2) 0.560981(17)
Cd1_6 Cd 1.0000 1.0000 1.0000
C1 C 0.4181(5) 0.8554(4) 0.9834(3)
C2 C 0.5570(5) 0.8699(3) 0.9909(3)
C3 C 0.6489(5) 0.8153(3) 0.9577(3)
C4 C 0.5930(5) 0.7485(3) 0.9183(3)
H3 H 0.6514 0.7095 0.8953
C5 C 0.4527(5) 0.7390(3) 0.9128(3)
H4 H 0.4183 0.6937 0.8852
C6 C 0.8019(5) 0.8311(3) 0.9631(3)
O4 O 0.8795(3) 0.7804(2) 0.92967(19)
Cd1_7 Cd 0.0000 0.5000 0.5000
C1_2 C 0.5819(5) 0.3554(4) 0.5166(3)
H1 H 0.6425 0.3927 0.4931
C2_2 C 0.4430(5) 0.3699(3) 0.5091(3)
H2 H 0.4111 0.4162 0.4819
C3_2 C 0.3511(5) 0.3153(3) 0.5423(3)
C4_2 C 0.4070(5) 0.2485(3) 0.5817(3)
H3_2 H 0.3486 0.2095 0.6047
C5_2 C 0.5473(5) 0.2390(3) 0.5872(3)
H4_2 H 0.5817 0.1937 0.6148
C6_2 C 0.1981(5) 0.3311(3) 0.5369(3)
H5 H 0.0064 0.3534 0.1668
H6 H 0.0099 0.4044 0.2813
H9 H 0.0246 0.0022 0.3560
C16 C 0.1307(6) 0.1313(4) 0.4461(4)
H13 H 0.1954 0.1139 0.4099
H14 H 0.1675 0.1171 0.4923
H15 H 0.1155 0.1926 0.4432
N1 N 0.6365(4) 0.2913(3) 0.5552(2)
N6 N 0.0016(5) 0.0866(3) 0.4357(2)
O3 O 0.1612(3) 0.3929(2) 0.4993(2)
O4_2 O 0.1205(3) 0.2804(2) 0.57033(19)
C24_2 C 0.0507(5) 0.6727(3) 0.7994(3)
C25_2 C 0.0464(5) 0.6423(3) 0.7306(2)
C26_2 C 0.1257(5) 0.6817(3) 0.6800(2)
C27_2 C 0.2087(5) 0.7497(3) 0.7009(3)
H25_2 H 0.2631 0.7787 0.6676
C28_2 C 0.2105(5) 0.7744(3) 0.7715(3)
H26_2 H 0.2693 0.8192 0.7852
C29_2 C 0.1189(5) 0.6528(3) 0.6031(2)
C30_2 C 0.1082(6) 0.9025(3) 0.5226(3)
C31_2 C 0.0371(7) 0.9506(4) 0.6313(3)
H28_2 H 0.0355 0.9075 0.6690
C32_2 C 0.1797(8) 0.9826(4) 0.6188(4)
H29_2 H 0.2412 0.9666 0.6576
C34_2 C 0.3491(7) 0.9492(5) 0.5209(5)
H34_2 H 0.4116 0.9772 0.5534
H35_2 H 0.3852 0.8932 0.5084
H36_2 H 0.3396 0.9837 0.4785
N10_2 N 0.1212(4) 0.5715(3) 0.4149(2)
N11_2 N 0.1710(6) 0.5368(3) 0.3667(3)
N12_2 N 0.2150(10) 0.5024(4) 0.3181(5)
N14_2 N 0.2167(5) 0.9393(3) 0.5540(3)
O6_2 O 0.1066(4) 0.5741(2) 0.59189(17)
O7_2 O 0.1288(4) 0.7117(2) 0.55798(17)
O10_2 O 0.1095(4) 0.8657(2) 0.46279(19)
N16 N 0.3635(4) 0.7087(3) 0.4448(2)
Cd1_8 Cd 1.0000 0.5000 0.5000
C7_2 C 0.9493(5) 0.3273(3) 0.2006(3)
C8_2 C 0.9536(5) 0.3577(3) 0.2694(2)
C9_2 C 0.8743(5) 0.3183(3) 0.3200(2)
C10_2 C 0.7913(5) 0.2503(3) 0.2991(3)
H7_2 H 0.7369 0.2213 0.3324
C11_2 C 0.7895(5) 0.2256(3) 0.2285(3)
H8_2 H 0.7307 0.1808 0.2148
C12_2 C 0.8811(5) 0.3472(3) 0.3969(2)
C13_2 C 0.8918(6) 0.0975(3) 0.4774(3)
C14_2 C 0.9629(7) 0.0494(4) 0.3687(3)
H10_2 H 0.9645 0.0925 0.3310
C15_2 C 0.8203(8) 0.0174(4) 0.3812(4)
H11_2 H 0.7588 0.0334 0.3424
C17_2 C 0.6509(7) 0.0508(5) 0.4791(5)
H16_2 H 0.5884 0.0228 0.4466
H17_2 H 0.6148 0.1068 0.4916
H18_2 H 0.6604 0.0163 0.5215
N3_2 N 0.8788(4) 0.4285(3) 0.5851(2)
N4_2 N 0.8290(6) 0.4632(3) 0.6333(3)
N5_2 N 0.7850(10) 0.4976(4) 0.6819(5)
N7_2 N 0.7833(5) 0.0607(3) 0.4460(3)
O1_2 O 0.8934(4) 0.4259(2) 0.40811(17)
O2_2 O 0.8712(4) 0.2883(2) 0.44202(17)
O5_2 O 0.8905(4) 0.1343(2) 0.53721(19)
C18_2 C 0.4181(5) 0.6446(4) 0.4834(3)
H19 H 0.3575 0.6073 0.5069
C19_2 C 0.5570(5) 0.6301(3) 0.4909(3)
H20 H 0.5889 0.5838 0.5181
C20_2 C 0.6489(5) 0.6847(3) 0.4577(3)
C21_2 C 0.5930(5) 0.7515(3) 0.4183(3)
H21_2 H 0.6514 0.7905 0.3953
C22_2 C 0.4527(5) 0.7610(3) 0.4128(3)
H22_2 H 0.4183 0.8063 0.3852
C23_2 C 0.8019(5) 0.6689(3) 0.4631(3)
H23 H 0.9936 0.6466 0.8332
H24 H 0.9901 0.5956 0.7187
H27 H 0.9754 0.9978 0.6440
C33 C 0.8693(6) 0.8687(4) 0.5539(4)
H31 H 0.8046 0.8861 0.5901
H32 H 0.8325 0.8829 0.5077
H33 H 0.8845 0.8074 0.5568
N13 N 0.9984(5) 0.9134(3) 0.5643(2)
O8 O 0.8388(3) 0.6071(2) 0.5007(2)
O9_2 O 0.8795(3) 0.7196(2) 0.42967(19)
Cd1_9 Cd 0.0000 0.0000 1.0000
H19_2 H 0.6425 0.1073 0.9931
H20_2 H 0.4111 0.0838 0.9819
H23_2 H 0.0064 0.1466 0.6668
H24_2 H 0.0099 0.0956 0.7813
H27_2 H 0.0246 0.4978 0.8560
C33_2 C 0.1307(6) 0.3687(4) 0.9461(4)
H31_2 H 0.1954 0.3861 0.9099
H32_2 H 0.1675 0.3829 0.9923
H33_2 H 0.1155 0.3074 0.9432
N13_2 N 0.0016(5) 0.4134(3) 0.9357(2)
O8_2 O 0.1612(3) 0.1071(2) 0.9993(2)
Cd1_10 Cd 1.0000 1.0000 0.0000
H1_2 H 0.3575 0.8927 0.0069
H2_2 H 0.5889 0.9162 0.0181
H5_2 H 0.9936 0.8534 0.3332
H6_2 H 0.9901 0.9044 0.2187
H9_2 H 0.9754 0.5022 0.1440
C16_2 C 0.8693(6) 0.6313(4) 0.0539(4)
H13_2 H 0.8046 0.6139 0.0901
H14_2 H 0.8325 0.6171 0.0077
H15_2 H 0.8845 0.6926 0.0568
N6_2 N 0.9984(5) 0.5866(3) 0.0643(2)
O3_2 O 0.8388(3) 0.8929(2) 0.0007(2)
H30_2 H 0.1813 0.0450 0.6129
H12_2 H 0.8187 0.9550 0.3871
loop_
_geom_bond_atom_site_label_1
_geom_bond_atom_site_label_2
_geom_bond_site_symmetry_1
_geom_bond_site_symmetry_2
C19 C18 1_555 1_555
C20 C19 1_555 1_555
C21 C20 1_555 1_555
H21 C21 1_555 1_555
C22 C21 1_555 1_555
H22 C22 1_555 1_555
C23 C20 1_555 1_555
N8 C18 1_555 1_555
Cd6 N8 1_555 1_555
C22 N8 1_555 1_555
C23 O9 1_555 1_555
C8 C7 1_555 1_555
C9 C8 1_555 1_555
C10 C9 1_555 1_555
H7 C10 1_555 1_555
C11 C10 1_555 1_555
H8 C11 1_555 1_555
C12 C9 1_555 1_555
H10 C14 1_555 1_555
C15 C14 1_555 1_555
H11 C15 1_555 1_555
H12 C15 1_555 1_555
C17 H16 1_555 1_555
H17 C17 1_555 1_555
N2 C7 1_555 1_555
N7 C13 1_555 1_555
O1 Cd1_2 1_555 1_555
Cd7 N2 1_555 1_555
C11 N2 1_555 1_555
C12 O1 1_555 1_555
C12 O2 1_555 1_555
C15 N7 1_555 1_555
C17 N7 1_555 1_555
Cd1_3 N3 1_555 1_555
Cd2 N3 1_555 1_555
N3 N4 1_555 1_555
N4 N5 1_555 1_555
O5 Cd2 1_555 1_555
N15 Cd2 1_555 1_555
N18 Cd2 1_555 1_555
Cd6 N10 1_555 1_555
N10 Cd1_4 1_555 1_555
N11 N10 1_555 1_555
N12 N11 1_555 1_555
O10 Cd6 1_555 1_555
N17 Cd6 1_555 1_555
C25 C24 1_555 1_555
C26 C25 1_555 1_555
C27 C26 1_555 1_555
H25 C27 1_555 1_555
C28 C27 1_555 1_555
H26 C28 1_555 1_555
C29 C26 1_555 1_555
H28 C31 1_555 1_555
C32 C31 1_555 1_555
H29 C32 1_555 1_555
H30 C32 1_555 1_555
C34 H34 1_555 1_555
H35 C34 1_555 1_555
N9 C24 1_555 1_555
N14 C30 1_555 1_555
O6 Cd1_5 1_555 1_555
Cd5 N9 1_555 1_555
C28 N9 1_555 1_555
C29 O6 1_555 1_555
C29 O7 1_555 1_555
C32 N14 1_555 1_555
C34 N14 1_555 1_555
C2 C1 1_555 1_555
C3 C2 1_555 1_555
C4 C3 1_555 1_555
H3 C4 1_555 1_555
C5 C4 1_555 1_555
H4 C5 1_555 1_555
C6 C3 1_555 1_555
N15 C1 1_555 1_555
C5 N15 1_555 1_555
C6 O4 1_555 1_555
C1_2 H1 1_555 1_555
C2_2 C1_2 1_555 1_555
H2 C2_2 1_555 1_555
C3_2 C2_2 1_555 1_555
C4_2 C3_2 1_555 1_555
H3_2 C4_2 1_555 1_555
C5_2 C4_2 1_555 1_555
H4_2 C5_2 1_555 1_555
C6_2 C3_2 1_555 1_555
C16 H13 1_555 1_555
H14 C16 1_555 1_555
H15 C16 1_555 1_555
N1 C1_2 1_555 1_555
O3 Cd1_7 1_555 1_555
Cd7 N10_2 1_555 1_555
C25_2 C24_2 1_555 1_555
C26_2 C25_2 1_555 1_555
C27_2 C26_2 1_555 1_555
H25_2 C27_2 1_555 1_555
C28_2 C27_2 1_555 1_555
H26_2 C28_2 1_555 1_555
C29_2 C26_2 1_555 1_555
H28_2 C31_2 1_555 1_555
C32_2 C31_2 1_555 1_555
H29_2 C32_2 1_555 1_555
C34_2 H34_2 1_555 1_555
H35_2 C34_2 1_555 1_555
H36_2 C34_2 1_555 1_555
N18 C24_2 1_555 1_555
N10_2 Cd1_7 1_555 1_555
N11_2 N10_2 1_555 1_555
N12_2 N11_2 1_555 1_555
N14_2 C30_2 1_555 1_555
O6_2 Cd1_7 1_555 1_555
O7_2 Cd7 1_555 1_555
O10_2 Cd7 1_555 1_555
Cd5 N1 1_555 1_555
N16 Cd7 1_555 1_555
C5_2 N1 1_555 1_555
C6_2 O3 1_555 1_555
C6_2 O4_2 1_555 1_555
C16 N6 1_555 1_555
C28_2 N18 1_555 1_555
C29_2 O6_2 1_555 1_555
C29_2 O7_2 1_555 1_555
C30_2 O10_2 1_555 1_555
C32_2 N14_2 1_555 1_555
C34_2 N14_2 1_555 1_555
Cd1_8 N3_2 1_555 1_555
Cd5 N3_2 1_555 1_555
C8_2 C7_2 1_555 1_555
C9_2 C8_2 1_555 1_555
C10_2 C9_2 1_555 1_555
H7_2 C10_2 1_555 1_555
C11_2 C10_2 1_555 1_555
H8_2 C11_2 1_555 1_555
C12_2 C9_2 1_555 1_555
H10_2 C14_2 1_555 1_555
C15_2 C14_2 1_555 1_555
H11_2 C15_2 1_555 1_555
C17_2 H16_2 1_555 1_555
H17_2 C17_2 1_555 1_555
H18_2 C17_2 1_555 1_555
N17 C7_2 1_555 1_555
N3_2 N4_2 1_555 1_555
N4_2 N5_2 1_555 1_555
N7_2 C13_2 1_555 1_555
O1_2 Cd1_8 1_555 1_555
O2_2 Cd5 1_555 1_555
O5_2 Cd5 1_555 1_555
C18_2 H19 1_555 1_555
C19_2 C18_2 1_555 1_555
H20 C19_2 1_555 1_555
C20_2 C19_2 1_555 1_555
C21_2 C20_2 1_555 1_555
H21_2 C21_2 1_555 1_555
C22_2 C21_2 1_555 1_555
H22_2 C22_2 1_555 1_555
C23_2 C20_2 1_555 1_555
C33 H31 1_555 1_555
H32 C33 1_555 1_555
H33 C33 1_555 1_555
N16 C18_2 1_555 1_555
O8 Cd1_8 1_555 1_555
C11_2 N17 1_555 1_555
C12_2 O1_2 1_555 1_555
C12_2 O2_2 1_555 1_555
C13_2 O5_2 1_555 1_555
C15_2 N7_2 1_555 1_555
C17_2 N7_2 1_555 1_555
C22_2 N16 1_555 1_555
C23_2 O8 1_555 1_555
C23_2 O9_2 1_555 1_555
C33 N13 1_555 1_555
C33_2 H31_2 1_555 1_555
H32_2 C33_2 1_555 1_555
H33_2 C33_2 1_555 1_555
O8_2 Cd1_9 1_555 1_555
C33_2 N13_2 1_555 1_555
C16_2 H13_2 1_555 1_555
H14_2 C16_2 1_555 1_555
H15_2 C16_2 1_555 1_555
O3_2 Cd1_10 1_555 1_555
C16_2 N6_2 1_555 1_555

#END
