
###############################################################################
#
# This file contains modified crystal structure data generated from the
# MOF subset of the Cambridge Structural Database (CSD) v543 
# hosted by the Cambridge Crystallographic Data Centre (CCDC).
#
# This work is licensed under the Creative Commons
# Attribution-NonCommercial-ShareAlike 4.0 International License.
# To view a copy of this license, visit
# http://creativecommons.org/licenses/by-nc-sa/4.0/
# or send a letter to
# Creative Commons, PO Box 1866, Mountain View, CA 94042, USA.
#
# CIF created using the CSD Python API on 29 September 2022
# The structure has been converted into the P1 space group
# The structure has a 3D framework
# The original CSD entry RODBAP is in the monoclinic crystal system
# The framework has been calculated to contain at least 10.0% void space
# The void calculation uses a probe of radius 1.32A, grid spacing 0.4
#
###############################################################################

data_RODBAP
_chemical_formula_moiety         '(C68 H72 Cd14 N60 O4)n'
_symmetry_cell_setting           triclinic
_symmetry_space_group_name_H-M   'P 1'
_symmetry_Int_Tables_number      1
_space_group_name_Hall           'P 1'
loop_
_symmetry_equiv_pos_site_id
_symmetry_equiv_pos_as_xyz
1 x,y,z
_cell_length_a                   11.0540(5)
_cell_length_b                   22.7230(10)
_cell_length_c                   14.6660(7)
_cell_angle_alpha                90
_cell_angle_beta                 96.800(4)
_cell_angle_gamma                90
_cell_volume                     3657.89
loop_
_atom_site_label
_atom_site_type_symbol
_atom_site_fract_x
_atom_site_fract_y
_atom_site_fract_z
Cd1 Cd 0.0000 0.0000 0.0000
C13 C 0.1441(3) 0.01379(14) 0.4024(2)
C14 C 0.1421(6) 0.0670(2) 0.5358(3)
H9 H 0.2044 0.0961 0.5543
H10 H 0.1062 0.0541 0.5896
C15 C 0.0491(5) 0.0910(2) 0.4663(3)
H12 H 0.0645 0.1322 0.4549
H18 H 0.0389 0.0734 0.2536
N11 N 0.1427(2) 0.00862(10) 0.12526(16)
N12 N 0.2190(3) 0.04515(13) 0.1347(2)
N13 N 0.2931(5) 0.0801(2) 0.1434(4)
N14 N 0.0598(3) 0.05602(15) 0.3856(2)
N15 N 0.1931(4) 0.01729(17) 0.4902(2)
Cd1_2 Cd 0.0000 -0.0000 1.0000
C24 C 0.6097(3) 0.06745(15) 0.8796(2)
H23 H 0.6681 0.0597 0.9291
C25 C 0.4899(3) 0.06404(15) 0.8928(2)
H24 H 0.4683 0.0537 0.9501
C26 C 0.3998(3) 0.07602(13) 0.8204(2)
C27 C 0.4380(3) 0.09284(16) 0.7383(2)
H25 H 0.3813 0.1031 0.6889
C28 C 0.5615(3) 0.09440(15) 0.7296(2)
H26 H 0.5854 0.1050 0.6732
C29 C 0.2716(3) 0.06833(13) 0.83464(19)
N21 N 0.6479(2) 0.08144(11) 0.79818(17)
N22 N 0.2388(2) 0.04084(12) 0.90770(17)
N23 N 0.1188(2) 0.04101(12) 0.89517(16)
N24 N 0.0798(2) 0.06808(11) 0.81757(16)
N25 N 0.1754(2) 0.08596(12) 0.77706(16)
Cd6 Cd 0.860748(18) 0.075450(8) 0.788936(12)
Cd1_3 Cd 0.0000 1.0000 0.0000
Cd2 Cd 0.139252(18) 0.924550(8) 0.211064(12)
H3 H 0.1666 0.7069 0.0056
C16 C 0.2967(6) 0.9839(2) 0.5271(4)
H13 H 0.3167 0.9934 0.5909
H14 H 0.3646 0.9933 0.4945
H15 H 0.2786 0.9427 0.5208
N4 N 0.1129(2) 0.87453(10) 0.06417(16)
N5 N 0.1342(3) 0.81901(10) 0.04378(16)
O1 O 0.1723(2) 0.97644(10) 0.34761(15)
N32 N 0.1348(2) 0.84004(10) 0.29792(16)
N33 N 0.3521(2) 0.91856(11) 0.20182(17)
Cd1_4 Cd 0.0000 1.0000 1.0000
C1 C 0.1057(4) 0.71143(14) 0.7573(2)
H1 H 0.0908 0.7125 0.6936
C2 C 0.0967(4) 0.76300(15) 0.8053(2)
H2 H 0.0767 0.7980 0.7743
C3 C 0.1176(3) 0.76210(12) 0.90013(19)
C4 C 0.1500(3) 0.70911(13) 0.9421(2)
C5 C 0.1574(3) 0.65968(13) 0.8890(2)
H4 H 0.1792 0.6243 0.9182
C6 C 0.1072(3) 0.81598(12) 0.95316(18)
N1 N 0.1348(2) 0.65996(10) 0.79792(16)
N2 N 0.0696(3) 0.86742(11) 0.91689(17)
N3 N 0.0734(2) 0.90321(11) 0.98799(16)
H29 H 0.0315 0.9128 0.5144
C34 C 0.0129(5) 0.9346(2) 0.6998(3)
H34 H 0.0662 0.9018 0.6945
H35 H 0.0604 0.9692 0.7162
Cd7 Cd 0.139252(18) 0.575450(8) 0.711064(12)
Cd1_5 Cd 1.0000 0.0000 0.0000
H11 H 0.9685 0.0872 0.4856
C17 C 0.9871(5) 0.0654(2) 0.3002(3)
H16 H 0.9338 0.0982 0.3055
H17 H 0.9396 0.0308 0.2838
C18 C 0.8943(4) 0.28857(14) 0.2427(2)
H19 H 0.9092 0.2875 0.3064
C19 C 0.9033(4) 0.23700(15) 0.1947(2)
H20 H 0.9233 0.2020 0.2257
C20 C 0.8824(3) 0.23790(12) 0.09987(19)
C21 C 0.8500(3) 0.29089(13) 0.0579(2)
C22 C 0.8426(3) 0.34032(13) 0.1110(2)
H22 H 0.8208 0.3757 0.0818
C23 C 0.8928(3) 0.18402(12) 0.04684(18)
N16 N 0.8652(2) 0.34004(10) 0.20208(16)
N17 N 0.9304(3) 0.13258(11) 0.08311(17)
N18 N 0.9266(2) 0.09679(11) 0.01201(16)
Cd5 Cd 0.860748(18) 0.424550(8) 0.288936(12)
Cd1_6 Cd 1.0000 -0.0000 1.0000
H21 H 0.8334 0.2931 0.9944
C33 C 0.7033(6) 0.0161(2) 0.4729(4)
H31 H 0.6833 0.0066 0.4091
H32 H 0.6354 0.0067 0.5055
H33 H 0.7214 0.0573 0.4792
N19 N 0.8871(2) 0.12547(10) 0.93583(16)
N20 N 0.8658(3) 0.18099(10) 0.95622(16)
O2 O 0.8277(2) 0.02356(10) 0.65239(15)
N31 N 0.8652(2) 0.15996(10) 0.70208(16)
Cd1_7 Cd 1.0000 1.0000 0.0000
C7 C 0.3903(3) 0.93255(15) 0.1204(2)
H5 H 0.3319 0.9403 0.0709
C8 C 0.5101(3) 0.93596(15) 0.1072(2)
H6 H 0.5317 0.9463 0.0499
C9 C 0.6002(3) 0.92398(13) 0.1796(2)
C10 C 0.5620(3) 0.90716(16) 0.2617(2)
H7 H 0.6187 0.8969 0.3111
C11 C 0.4385(3) 0.90560(15) 0.2704(2)
H8 H 0.4146 0.8950 0.3268
C12 C 0.7284(3) 0.93167(13) 0.16536(19)
N7 N 0.7612(2) 0.95916(12) 0.09230(17)
N8 N 0.8812(2) 0.95899(12) 0.10483(16)
N9 N 0.9202(2) 0.93192(11) 0.18243(16)
N10 N 0.8246(2) 0.91404(12) 0.22294(16)
Cd1_8 Cd 0.0000 0.5000 0.5000
C7_2 C 0.6097(3) 0.43255(15) 0.3796(2)
H5_2 H 0.6681 0.4403 0.4291
C8_2 C 0.4899(3) 0.43596(15) 0.3928(2)
H6_2 H 0.4683 0.4463 0.4501
C9_2 C 0.3998(3) 0.42398(13) 0.3204(2)
C10_2 C 0.4380(3) 0.40716(16) 0.2383(2)
H7_2 H 0.3813 0.3969 0.1889
C11_2 C 0.5615(3) 0.40560(15) 0.2296(2)
H8_2 H 0.5854 0.3950 0.1732
C12_2 C 0.2716(3) 0.43167(13) 0.33464(19)
H11_2 H 0.0315 0.5872 0.0144
C17_2 C 0.0129(5) 0.5654(2) 0.1998(3)
H16_2 H 0.0662 0.5982 0.1945
H17_2 H 0.0604 0.5308 0.2162
N6 N 0.6479(2) 0.41856(11) 0.29818(17)
N7_2 N 0.2388(2) 0.45916(12) 0.40770(17)
N8_2 N 0.1188(2) 0.45899(12) 0.39517(16)
N9_2 N 0.0798(2) 0.43192(11) 0.31757(16)
N10_2 N 0.1754(2) 0.41404(12) 0.27706(16)
C18_2 C 0.1057(4) 0.78857(14) 0.2573(2)
H19_2 H 0.0908 0.7875 0.1936
C19_2 C 0.0967(4) 0.73700(15) 0.3053(2)
H20_2 H 0.0767 0.7020 0.2743
C20_2 C 0.1176(3) 0.73790(12) 0.40013(19)
C21_2 C 0.1500(3) 0.79089(13) 0.4421(2)
H21_2 H 0.1666 0.7931 0.5056
C22_2 C 0.1574(3) 0.84032(13) 0.3890(2)
H22_2 H 0.1792 0.8757 0.4182
C23_2 C 0.1072(3) 0.68402(12) 0.45316(18)
C30 C 0.1441(3) 0.48621(14) 0.9024(2)
C32 C 0.0491(5) 0.4090(2) 0.9663(3)
H30 H 0.0645 0.3678 0.9549
H32_2 H 0.3646 0.5067 0.9945
H36 H 0.0389 0.4266 0.7536
N17_2 N 0.0696(3) 0.63258(11) 0.41689(17)
N18_2 N 0.0734(2) 0.59679(11) 0.48799(16)
N19_2 N 0.1129(2) 0.62547(10) 0.56417(16)
N20_2 N 0.1342(3) 0.68099(10) 0.54378(16)
N26 N 0.1427(2) 0.49138(10) 0.62526(16)
N27 N 0.2190(3) 0.45485(13) 0.6347(2)
N28 N 0.2931(5) 0.4199(2) 0.6434(4)
N29 N 0.0598(3) 0.44398(15) 0.8856(2)
N30 N 0.1931(4) 0.48271(17) 0.9902(2)
O2_2 O 0.1723(2) 0.52356(10) 0.84761(15)
N34 N 0.3521(2) 0.58144(11) 0.70182(17)
Cd1_9 Cd 1.0000 0.5000 0.5000
C1_2 C 0.8943(4) 0.21143(14) 0.7427(2)
H1_2 H 0.9092 0.2125 0.8064
C2_2 C 0.9033(4) 0.26300(15) 0.6947(2)
H2_2 H 0.9233 0.2980 0.7257
C3_2 C 0.8824(3) 0.26210(12) 0.59987(19)
C4_2 C 0.8500(3) 0.20911(13) 0.5579(2)
H3_2 H 0.8334 0.2069 0.4944
C5_2 C 0.8426(3) 0.15968(13) 0.6110(2)
H4_2 H 0.8208 0.1243 0.5818
C6_2 C 0.8928(3) 0.31598(12) 0.54684(18)
C13_2 C 0.8559(3) 0.51379(14) 0.0976(2)
C15_2 C 0.9509(5) 0.5910(2) 0.0337(3)
H12_2 H 0.9355 0.6322 0.0451
H14_2 H 0.6354 0.4933 0.0055
H18_2 H 0.9611 0.5734 0.2464
N2_2 N 0.9304(3) 0.36742(11) 0.58311(17)
N3_2 N 0.9266(2) 0.40321(11) 0.51201(16)
N4_2 N 0.8871(2) 0.37453(10) 0.43583(16)
N5_2 N 0.8658(3) 0.31901(10) 0.45622(16)
N11_2 N 0.8573(2) 0.50862(10) 0.37474(16)
N12_2 N 0.7810(3) 0.54515(13) 0.3653(2)
N13_2 N 0.7069(5) 0.5801(2) 0.3566(4)
N14_2 N 0.9402(3) 0.55602(15) 0.1144(2)
N15_2 N 0.8069(4) 0.51729(17) 0.0098(2)
O1_2 O 0.8277(2) 0.47644(10) 0.15239(15)
C24_2 C 0.3903(3) 0.56745(15) 0.6204(2)
H23_2 H 0.3319 0.5597 0.5709
C25_2 C 0.5101(3) 0.56404(15) 0.6072(2)
H24_2 H 0.5317 0.5537 0.5499
C26_2 C 0.6002(3) 0.57602(13) 0.6796(2)
C27_2 C 0.5620(3) 0.59284(16) 0.7617(2)
H25_2 H 0.6187 0.6031 0.8111
C28_2 C 0.4385(3) 0.59440(15) 0.7704(2)
H26_2 H 0.4146 0.6050 0.8268
C29_2 C 0.7284(3) 0.56833(13) 0.66536(19)
H29_2 H 0.9685 0.4128 0.9856
C34_2 C 0.9871(5) 0.4346(2) 0.8002(3)
H34_2 H 0.9338 0.4018 0.8055
H35_2 H 0.9396 0.4692 0.7838
N22_2 N 0.7612(2) 0.54084(12) 0.59230(17)
N23_2 N 0.8812(2) 0.54101(12) 0.60483(16)
N24_2 N 0.9202(2) 0.56808(11) 0.68243(16)
N25_2 N 0.8246(2) 0.58596(12) 0.72294(16)
Cd1_10 Cd 1.0000 1.0000 1.0000
C30_2 C 0.8559(3) 0.98621(14) 0.5976(2)
C31 C 0.8579(6) 0.9330(2) 0.4642(3)
H27 H 0.7956 0.9039 0.4457
H28 H 0.8938 0.9459 0.4104
C32_2 C 0.9509(5) 0.9090(2) 0.5337(3)
H30_2 H 0.9355 0.8678 0.5451
H36_2 H 0.9611 0.9266 0.7464
N26_2 N 0.8573(2) 0.99138(10) 0.87474(16)
N27_2 N 0.7810(3) 0.95485(13) 0.8653(2)
N28_2 N 0.7069(5) 0.9199(2) 0.8566(4)
N29_2 N 0.9402(3) 0.94398(15) 0.6144(2)
N30_2 N 0.8069(4) 0.98271(17) 0.5098(2)
C31_2 C 0.1421(6) 0.4330(2) 0.0358(3)
H27_2 H 0.2044 0.4039 0.0543
H28_2 H 0.1062 0.4459 0.0896
C33_2 C 0.2967(6) 0.5161(2) 0.0271(4)
H31_2 H 0.3167 0.5066 0.0909
H33_2 H 0.2786 0.5573 0.0208
C14_2 C 0.8579(6) 0.5670(2) 0.9642(3)
H9_2 H 0.7956 0.5961 0.9457
H10_2 H 0.8938 0.5541 0.9104
C16_2 C 0.7033(6) 0.4839(2) 0.9729(4)
H13_2 H 0.6833 0.4934 0.9091
H15_2 H 0.7214 0.4427 0.9792
loop_
_geom_bond_atom_site_label_1
_geom_bond_atom_site_label_2
_geom_bond_site_symmetry_1
_geom_bond_site_symmetry_2
C13 N14 1_555 1_555
C14 H9 1_555 1_555
H10 C14 1_555 1_555
C15 C14 1_555 1_555
H12 C15 1_555 1_555
N11 Cd1 1_555 1_555
N12 N11 1_555 1_555
N13 N12 1_555 1_555
N14 C15 1_555 1_555
N15 C13 1_555 1_555
C14 N15 1_555 1_555
C24 H23 1_555 1_555
C25 C24 1_555 1_555
H24 C25 1_555 1_555
C26 C25 1_555 1_555
C27 C26 1_555 1_555
H25 C27 1_555 1_555
C28 C27 1_555 1_555
H26 C28 1_555 1_555
C29 C26 1_555 1_555
N21 C24 1_555 1_555
N22 C29 1_555 1_555
N23 Cd1_2 1_555 1_555
N25 C29 1_555 1_555
Cd6 N21 1_555 1_555
C28 N21 1_555 1_555
N22 N23 1_555 1_555
N23 N24 1_555 1_555
N24 N25 1_555 1_555
Cd2 N4 1_555 1_555
C16 H13 1_555 1_555
H14 C16 1_555 1_555
H15 C16 1_555 1_555
O1 Cd2 1_555 1_555
N32 Cd2 1_555 1_555
N33 Cd2 1_555 1_555
N4 N5 1_555 1_555
Cd1_4 N3 1_555 1_555
C1 H1 1_555 1_555
C2 C1 1_555 1_555
H2 C2 1_555 1_555
C3 C2 1_555 1_555
C4 C3 1_555 1_555
C5 C4 1_555 1_555
H4 C5 1_555 1_555
C6 C3 1_555 1_555
N1 C1 1_555 1_555
N2 C6 1_555 1_555
N3 N2 1_555 1_555
C34 H34 1_555 1_555
H35 C34 1_555 1_555
Cd7 N1 1_555 1_555
C5 N1 1_555 1_555
C17 H16 1_555 1_555
H17 C17 1_555 1_555
C18 H19 1_555 1_555
C19 C18 1_555 1_555
H20 C19 1_555 1_555
C20 C19 1_555 1_555
C21 C20 1_555 1_555
C22 C21 1_555 1_555
H22 C22 1_555 1_555
C23 C20 1_555 1_555
N16 C18 1_555 1_555
N17 C23 1_555 1_555
N18 Cd1_5 1_555 1_555
Cd5 N16 1_555 1_555
C22 N16 1_555 1_555
N17 N18 1_555 1_555
Cd6 N19 1_555 1_555
C33 H31 1_555 1_555
H32 C33 1_555 1_555
H33 C33 1_555 1_555
O2 Cd6 1_555 1_555
N31 Cd6 1_555 1_555
N19 N20 1_555 1_555
C7 H5 1_555 1_555
C8 C7 1_555 1_555
H6 C8 1_555 1_555
C9 C8 1_555 1_555
C10 C9 1_555 1_555
H7 C10 1_555 1_555
C11 C10 1_555 1_555
H8 C11 1_555 1_555
C12 C9 1_555 1_555
N33 C7 1_555 1_555
N7 C12 1_555 1_555
N8 Cd1_7 1_555 1_555
N10 C12 1_555 1_555
C11 N33 1_555 1_555
N7 N8 1_555 1_555
N8 N9 1_555 1_555
N9 N10 1_555 1_555
C7_2 H5_2 1_555 1_555
C8_2 C7_2 1_555 1_555
H6_2 C8_2 1_555 1_555
C9_2 C8_2 1_555 1_555
C10_2 C9_2 1_555 1_555
H7_2 C10_2 1_555 1_555
C11_2 C10_2 1_555 1_555
H8_2 C11_2 1_555 1_555
C12_2 C9_2 1_555 1_555
C17_2 H16_2 1_555 1_555
H17_2 C17_2 1_555 1_555
N6 C7_2 1_555 1_555
N7_2 C12_2 1_555 1_555
N8_2 Cd1_8 1_555 1_555
N10_2 C12_2 1_555 1_555
Cd7 N19_2 1_555 1_555
C18_2 H19_2 1_555 1_555
C19_2 C18_2 1_555 1_555
H20_2 C19_2 1_555 1_555
C20_2 C19_2 1_555 1_555
C21_2 C20_2 1_555 1_555
H21_2 C21_2 1_555 1_555
C22_2 C21_2 1_555 1_555
H22_2 C22_2 1_555 1_555
C23_2 C20_2 1_555 1_555
C30 N29 1_555 1_555
H30 C32 1_555 1_555
N32 C18_2 1_555 1_555
N17_2 C23_2 1_555 1_555
N18_2 Cd1_8 1_555 1_555
N19_2 N18_2 1_555 1_555
N20_2 C23_2 1_555 1_555
N26 Cd1_8 1_555 1_555
N27 N26 1_555 1_555
N28 N27 1_555 1_555
N29 C32 1_555 1_555
N30 C30 1_555 1_555
O2_2 Cd7 1_555 1_555
Cd5 N6 1_555 1_555
N34 Cd7 1_555 1_555
C11_2 N6 1_555 1_555
N7_2 N8_2 1_555 1_555
N8_2 N9_2 1_555 1_555
N9_2 N10_2 1_555 1_555
Cd7 N26 1_555 1_555
C22_2 N32 1_555 1_555
C30 O2_2 1_555 1_555
N17_2 N18_2 1_555 1_555
N19_2 N20_2 1_555 1_555
Cd1_9 N3_2 1_555 1_555
Cd5 N4_2 1_555 1_555
C1_2 H1_2 1_555 1_555
C2_2 C1_2 1_555 1_555
H2_2 C2_2 1_555 1_555
C3_2 C2_2 1_555 1_555
C4_2 C3_2 1_555 1_555
H3_2 C4_2 1_555 1_555
C5_2 C4_2 1_555 1_555
H4_2 C5_2 1_555 1_555
C6_2 C3_2 1_555 1_555
C13_2 N14_2 1_555 1_555
H12_2 C15_2 1_555 1_555
N31 C1_2 1_555 1_555
N2_2 C6_2 1_555 1_555
N3_2 N2_2 1_555 1_555
N4_2 N3_2 1_555 1_555
N5_2 C6_2 1_555 1_555
N11_2 Cd1_9 1_555 1_555
N12_2 N11_2 1_555 1_555
N13_2 N12_2 1_555 1_555
N14_2 C15_2 1_555 1_555
N15_2 C13_2 1_555 1_555
O1_2 Cd5 1_555 1_555
C24_2 H23_2 1_555 1_555
C25_2 C24_2 1_555 1_555
H24_2 C25_2 1_555 1_555
C26_2 C25_2 1_555 1_555
C27_2 C26_2 1_555 1_555
H25_2 C27_2 1_555 1_555
C28_2 C27_2 1_555 1_555
H26_2 C28_2 1_555 1_555
C29_2 C26_2 1_555 1_555
C34_2 H34_2 1_555 1_555
H35_2 C34_2 1_555 1_555
N34 C24_2 1_555 1_555
N22_2 C29_2 1_555 1_555
N23_2 Cd1_9 1_555 1_555
N25_2 C29_2 1_555 1_555
Cd5 N11_2 1_555 1_555
C5_2 N31 1_555 1_555
C13_2 O1_2 1_555 1_555
N4_2 N5_2 1_555 1_555
C28_2 N34 1_555 1_555
N22_2 N23_2 1_555 1_555
N23_2 N24_2 1_555 1_555
N24_2 N25_2 1_555 1_555
C30_2 N29_2 1_555 1_555
C31 H27 1_555 1_555
H28 C31 1_555 1_555
C32_2 C31 1_555 1_555
H30_2 C32_2 1_555 1_555
N26_2 Cd1_10 1_555 1_555
N27_2 N26_2 1_555 1_555
N28_2 N27_2 1_555 1_555
N29_2 C32_2 1_555 1_555
N30_2 C30_2 1_555 1_555
C31 N30_2 1_555 1_555
C31_2 H27_2 1_555 1_555
H28_2 C31_2 1_555 1_555
C33_2 H31_2 1_555 1_555
H33_2 C33_2 1_555 1_555
C14_2 H9_2 1_555 1_555
H10_2 C14_2 1_555 1_555
C16_2 H13_2 1_555 1_555
H15_2 C16_2 1_555 1_555

#END
