
###############################################################################
#
# This file contains modified crystal structure data generated from the
# MOF subset of the Cambridge Structural Database (CSD) v543 
# hosted by the Cambridge Crystallographic Data Centre (CCDC).
#
# This work is licensed under the Creative Commons
# Attribution-NonCommercial-ShareAlike 4.0 International License.
# To view a copy of this license, visit
# http://creativecommons.org/licenses/by-nc-sa/4.0/
# or send a letter to
# Creative Commons, PO Box 1866, Mountain View, CA 94042, USA.
#
# CIF created using the CSD Python API on 29 September 2022
# The structure has been converted into the P1 space group
# The structure has a 3D framework
# The original CSD entry RODJUS is in the tetragonal crystal system
# The framework has been calculated to contain at least 10.0% void space
# The void calculation uses a probe of radius 1.32A, grid spacing 0.4
# H atom positions have been added when not included in the experimental data
# Generated hydrogen atom positions removed from atoms on special positions
#
###############################################################################

data_RODJUS
_chemical_formula_moiety         '(C256 H398 N20 O122 Zr26)n'
_symmetry_cell_setting           triclinic
_symmetry_space_group_name_H-M   'P 1'
_symmetry_Int_Tables_number      1
_space_group_name_Hall           'P 1'
loop_
_symmetry_equiv_pos_site_id
_symmetry_equiv_pos_as_xyz
1 x,y,z
_cell_length_a                   15.246(2)
_cell_length_b                   15.246(2)
_cell_length_c                   60.403(12)
_cell_angle_alpha                90
_cell_angle_beta                 90
_cell_angle_gamma                90
_cell_volume                     14040.1
loop_
_atom_site_label
_atom_site_type_symbol
_atom_site_fract_x
_atom_site_fract_y
_atom_site_fract_z
Zr1 Zr 0.38408(2) 0.36592(2) 0.1250
O1 O 0.5000 0.3846(2) 0.10271(4)
O2 O 0.40231(18) 0.2500 0.10776(4)
O3 O 0.32964(16) 0.40115(18) 0.09169(4)
O4 O 0.3910(2) 0.50945(18) 0.12304(4)
Zr2 Zr 0.5000 0.2500 0.08411(2)
H1 H 0.5000 0.4415(18) 0.0950(7)
C1 C 0.3465(2) 0.3816(2) 0.07180(5)
O5 O 0.41035(14) 0.33582(16) 0.06523(3)
C2 C 0.2832(2) 0.4163(2) 0.05492(5)
C3 C 0.2181(3) 0.4741(3) 0.06149(6)
C4 C 0.2846(2) 0.3878(3) 0.03314(5)
C5 C 0.1541(3) 0.5009(3) 0.04668(6)
H2 H 0.2173 0.4950 0.0759
H3 H 0.3285 0.3498 0.0284
C6 C 0.2212(2) 0.4155(3) 0.01846(5)
C7 C 0.1546(2) 0.4701(3) 0.02528(5)
H4 H 0.1107 0.5398 0.0512
H5 H 0.2234 0.3971 0.0038
C8 C 0.0758(2) 0.4887(3) 0.01114(5)
N1 N 0.0000 0.4787(3) 0.02196(7)
O14 O 0.3654(2) 0.2500 0.14729(4)
H18 H 0.3085(18) 0.2500 0.1550(7)
O15 O 0.24055(18) 0.3590(2) 0.12696(4)
Zr7 Zr 0.38408(2) 0.13408(2) 0.1250
Zr8 Zr 0.61592(2) 0.36592(2) 0.1250
O19 O 0.5000 0.1154(2) 0.10271(4)
O20 O 0.59769(18) 0.2500 0.10776(4)
O22 O 0.5000 0.34769(18) 0.14224(4)
O23 O 0.34885(18) 0.42036(16) 0.15831(4)
Zr12 Zr 0.5000 0.2500 0.16589(2)
O25 O 0.58965(14) 0.16418(16) 0.06523(3)
O26 O 0.58965(14) 0.33582(16) 0.06523(3)
O27 O 0.41035(14) 0.16418(16) 0.06523(3)
O6 O 0.32964(16) 0.59885(18) 0.90831(4)
C9 C 0.3465(2) 0.6184(2) 0.92820(5)
O7 O 0.41035(14) 0.66418(16) 0.93477(3)
C10 C 0.2832(2) 0.5837(2) 0.94508(5)
C11 C 0.2181(3) 0.5259(3) 0.93851(6)
C12 C 0.2846(2) 0.6122(3) 0.96686(5)
C13 C 0.1541(3) 0.4991(3) 0.95332(6)
H6 H 0.2173 0.5050 0.9241
H7 H 0.3285 0.6502 0.9716
C14 C 0.2212(2) 0.5845(3) 0.98154(5)
C15 C 0.1546(2) 0.5299(3) 0.97472(5)
H8 H 0.1107 0.4602 0.9488
H9 H 0.2234 0.6029 0.9962
C16 C 0.0758(2) 0.5113(3) 0.98886(5)
N2 N 0.0000 0.5213(3) 0.97804(7)
Zr4 Zr 0.38408(2) 0.63408(2) 0.8750
Zr11 Zr 0.5000 0.7500 0.91589(2)
N1_2 N 1.0000 0.4787(3) 0.02196(7)
O10 O 0.67036(16) 0.40115(18) 0.09169(4)
C25 C 0.6535(2) 0.3816(2) 0.07180(5)
C26 C 0.7168(2) 0.4163(2) 0.05492(5)
C27 C 0.7819(3) 0.4741(3) 0.06149(6)
C28 C 0.7154(2) 0.3878(3) 0.03314(5)
C29 C 0.8459(3) 0.5009(3) 0.04668(6)
H14 H 0.7827 0.4950 0.0759
H15 H 0.6715 0.3498 0.0284
C30 C 0.7788(2) 0.4155(3) 0.01846(5)
C31 C 0.8454(2) 0.4701(3) 0.02528(5)
H16 H 0.8893 0.5398 0.0512
H17 H 0.7766 0.3971 0.0038
C32 C 0.9242(2) 0.4887(3) 0.01114(5)
O13 O 0.6090(2) 0.50945(18) 0.12304(4)
O16 O 0.75945(18) 0.3590(2) 0.12696(4)
Zr5 Zr 0.61592(2) 0.13408(2) 0.1250
O18 O 0.6346(2) 0.2500 0.14729(4)
O24 O 0.65115(18) 0.42036(16) 0.15831(4)
N2_2 N 1.0000 0.5213(3) 0.97804(7)
O8 O 0.67036(16) 0.59885(18) 0.90831(4)
C17 C 0.6535(2) 0.6184(2) 0.92820(5)
O9 O 0.58965(14) 0.66418(16) 0.93477(3)
C18 C 0.7168(2) 0.5837(2) 0.94508(5)
C19 C 0.7819(3) 0.5259(3) 0.93851(6)
C20 C 0.7154(2) 0.6122(3) 0.96686(5)
C21 C 0.8459(3) 0.4991(3) 0.95332(6)
H10 H 0.7827 0.5050 0.9241
H11 H 0.6715 0.6502 0.9716
C22 C 0.7788(2) 0.5845(3) 0.98154(5)
C23 C 0.8454(2) 0.5299(3) 0.97472(5)
H12 H 0.8893 0.4602 0.9488
H13 H 0.7766 0.6029 0.9962
C24 C 0.9242(2) 0.5113(3) 0.98886(5)
Zr6 Zr 0.61592(2) 0.63408(2) 0.8750
O17 O -0.0000 0.6154(2) 0.60271(4)
O21 O 0.0000 0.65231(18) 0.64224(4)
Zr9 Zr 0.0000 0.7500 0.58411(2)
Zr10 Zr 0.0000 0.2500 0.41589(2)
Zr1_2 Zr 0.11592(2) 0.63408(2) 0.6250
O2_2 O 0.09769(18) 0.7500 0.60776(4)
O3_2 O 0.17036(16) 0.59885(18) 0.59169(4)
O4_2 O 0.1090(2) 0.49055(18) 0.62304(4)
H1_2 H 0.0000 0.5585(18) 0.5950(7)
C1_2 C 0.1535(2) 0.6184(2) 0.57180(5)
O5_2 O 0.08965(14) 0.66418(16) 0.56523(3)
C2_2 C 0.2168(2) 0.5837(2) 0.55492(5)
C3_2 C 0.2819(3) 0.5259(3) 0.56149(6)
C4_2 C 0.2154(2) 0.6122(3) 0.53314(5)
C5_2 C 0.3459(3) 0.4991(3) 0.54668(6)
H2_2 H 0.2827 0.5050 0.5759
H3_2 H 0.1715 0.6502 0.5284
C6_2 C 0.2788(2) 0.5845(3) 0.51846(5)
C7_2 C 0.3454(2) 0.5299(3) 0.52528(5)
H4_2 H 0.3893 0.4602 0.5512
H5_2 H 0.2766 0.6029 0.5038
C8_2 C 0.4242(2) 0.5113(3) 0.51114(5)
N1_3 N 0.5000 0.5213(3) 0.52196(7)
O6_2 O 0.17036(16) 0.40115(18) 0.40831(4)
C9_2 C 0.1535(2) 0.3816(2) 0.42820(5)
O7_2 O 0.08965(14) 0.33582(16) 0.43477(3)
C10_2 C 0.2168(2) 0.4163(2) 0.44508(5)
C11_2 C 0.2819(3) 0.4741(3) 0.43851(6)
C12_2 C 0.2154(2) 0.3878(3) 0.46686(5)
C13_2 C 0.3459(3) 0.5009(3) 0.45332(6)
H6_2 H 0.2827 0.4950 0.4241
H7_2 H 0.1715 0.3498 0.4716
C14_2 C 0.2788(2) 0.4155(3) 0.48154(5)
C15_2 C 0.3454(2) 0.4701(3) 0.47472(5)
H8_2 H 0.3893 0.5398 0.4488
H9_2 H 0.2766 0.3971 0.4962
C16_2 C 0.4242(2) 0.4887(3) 0.48886(5)
N2_3 N 0.5000 0.4787(3) 0.47804(7)
O8_2 O 0.82964(16) 0.40115(18) 0.40831(4)
C17_2 C 0.8465(2) 0.3816(2) 0.42820(5)
O9_2 O 0.91035(14) 0.33582(16) 0.43477(3)
C18_2 C 0.7832(2) 0.4163(2) 0.44508(5)
C19_2 C 0.7181(3) 0.4741(3) 0.43851(6)
C20_2 C 0.7846(2) 0.3878(3) 0.46686(5)
C21_2 C 0.6541(3) 0.5009(3) 0.45332(6)
H10_2 H 0.7173 0.4950 0.4241
H11_2 H 0.8285 0.3498 0.4716
C22_2 C 0.7212(2) 0.4155(3) 0.48154(5)
C23_2 C 0.6546(2) 0.4701(3) 0.47472(5)
H12_2 H 0.6107 0.5398 0.4488
H13_2 H 0.7234 0.3971 0.4962
C24_2 C 0.5758(2) 0.4887(3) 0.48886(5)
O10_2 O 0.82964(16) 0.59885(18) 0.59169(4)
C25_2 C 0.8465(2) 0.6184(2) 0.57180(5)
O11 O 0.91035(14) 0.66418(16) 0.56523(3)
C26_2 C 0.7832(2) 0.5837(2) 0.55492(5)
C27_2 C 0.7181(3) 0.5259(3) 0.56149(6)
C28_2 C 0.7846(2) 0.6122(3) 0.53314(5)
C29_2 C 0.6541(3) 0.4991(3) 0.54668(6)
H14_2 H 0.7173 0.5050 0.5759
H15_2 H 0.8285 0.6502 0.5284
C30_2 C 0.7212(2) 0.5845(3) 0.51846(5)
C31_2 C 0.6546(2) 0.5299(3) 0.52528(5)
H16_2 H 0.6107 0.4602 0.5512
H17_2 H 0.7234 0.6029 0.5038
C32_2 C 0.5758(2) 0.5113(3) 0.51114(5)
Zr3 Zr 0.88408(2) 0.63408(2) 0.6250
O12 O 0.90231(18) 0.7500 0.60776(4)
O13_2 O 0.8910(2) 0.49055(18) 0.62304(4)
O14_2 O 0.1346(2) 0.7500 0.64729(4)
H18_2 H 0.1915(18) 0.7500 0.6550(7)
O15_2 O 0.25945(18) 0.6410(2) 0.62696(4)
O16_2 O 0.74055(18) 0.6410(2) 0.62696(4)
Zr4_2 Zr 0.11592(2) 0.36592(2) 0.3750
Zr5_2 Zr 0.88408(2) 0.86592(2) 0.6250
Zr6_2 Zr 0.88408(2) 0.36592(2) 0.3750
Zr7_2 Zr 0.11592(2) 0.86592(2) 0.6250
O17_2 O 1.0000 0.6154(2) 0.60271(4)
O18_2 O 0.8654(2) 0.7500 0.64729(4)
O19_2 O 0.0000 0.8846(2) 0.60271(4)
O21_2 O 1.0000 0.65231(18) 0.64224(4)
O23_2 O 0.15115(18) 0.57964(16) 0.65831(4)
O24_2 O 0.84885(18) 0.57964(16) 0.65831(4)
Zr9_2 Zr 1.0000 0.7500 0.58411(2)
Zr10_2 Zr 1.0000 0.2500 0.41589(2)
Zr12_2 Zr 0.0000 0.7500 0.66589(2)
O27_2 O 0.08965(14) 0.83582(16) 0.56523(3)
H1_3 H 1.0000 0.5585(18) 0.5950(7)
O19_3 O 1.0000 0.8846(2) 0.60271(4)
Zr12_3 Zr 1.0000 0.7500 0.66589(2)
O25_2 O 0.91035(14) 0.83582(16) 0.56523(3)
O2_3 O 0.0000 0.15231(18) 0.35776(4)
Zr2_2 Zr 0.0000 0.2500 0.33411(2)
O14_3 O 0.0000 0.1154(2) 0.39729(4)
H18_3 H 0.0000 0.0585(18) 0.4050(7)
Zr7_3 Zr 0.11592(2) 0.13408(2) 0.3750
O19_4 O 0.1346(2) 0.2500 0.35271(4)
O20_2 O 0.0000 0.34769(18) 0.35776(4)
O25_3 O 0.08582(16) 0.33965(14) 0.31523(3)
O27_3 O 0.08582(16) 0.16035(14) 0.31523(3)
O18_3 O 0.0000 0.3846(2) 0.39729(4)
Zr1_3 Zr 0.88408(2) 0.13408(2) 0.3750
O1_2 O 0.8654(2) 0.2500 0.35271(4)
O2_4 O 1.0000 0.15231(18) 0.35776(4)
O3_3 O 0.84885(18) 0.07964(16) 0.34169(4)
O4_3 O 0.74055(18) 0.1410(2) 0.37304(4)
Zr2_3 Zr 1.0000 0.2500 0.33411(2)
H1_4 H 0.8085(18) 0.2500 0.3450(7)
C1_3 C 0.8684(2) 0.0965(2) 0.32180(5)
O5_3 O 0.91418(16) 0.16035(14) 0.31523(3)
C2_3 C 0.8337(2) 0.0332(2) 0.30492(5)
C4_3 C 0.8622(3) 0.0346(2) 0.28314(5)
H3_3 H 0.9002 0.0785 0.2784
O6_3 O 0.65115(18) 0.07964(16) 0.15831(4)
C9_3 C 0.6316(2) 0.0965(2) 0.17820(5)
O7_3 O 0.58582(16) 0.16035(14) 0.18477(3)
C10_3 C 0.6663(2) 0.0332(2) 0.19508(5)
C12_3 C 0.6378(3) 0.0346(2) 0.21686(5)
H7_3 H 0.5998 0.0785 0.2216
O14_4 O 1.0000 0.1154(2) 0.39729(4)
H18_4 H 1.0000 0.0585(18) 0.4050(7)
O20_3 O 1.0000 0.34769(18) 0.35776(4)
O22_2 O 0.90231(18) 0.2500 0.39224(4)
O23_3 O 0.82964(16) 0.09885(18) 0.40831(4)
O26_2 O 0.91418(16) 0.33965(14) 0.31523(3)
C3_3 C 0.7759(3) 0.9681(3) 0.31149(6)
C5_3 C 0.7491(3) 0.9041(3) 0.29668(6)
H2_3 H 0.7550 0.9673 0.3259
C6_3 C 0.8345(3) 0.9712(2) 0.26846(5)
C7_3 C 0.7799(3) 0.9046(2) 0.27528(5)
H4_3 H 0.7102 0.8607 0.3012
H5_3 H 0.8529 0.9734 0.2538
C8_3 C 0.7613(3) 0.8258(2) 0.26114(5)
N1_4 N 0.7713(3) 0.7500 0.27196(7)
C11_3 C 0.7241(3) 0.9681(3) 0.18851(6)
C13_3 C 0.7509(3) 0.9041(3) 0.20332(6)
H6_3 H 0.7450 0.9673 0.1741
C14_3 C 0.6655(3) 0.9712(2) 0.23154(5)
C15_3 C 0.7201(3) 0.9046(2) 0.22472(5)
H8_3 H 0.7898 0.8607 0.1988
H9_3 H 0.6471 0.9734 0.2462
C16_3 C 0.7387(3) 0.8258(2) 0.23886(5)
N2_4 N 0.7287(3) 0.7500 0.22804(7)
C17_3 C 0.6316(2) 0.4035(2) 0.17820(5)
O9_3 O 0.58582(16) 0.33965(14) 0.18477(3)
C18_3 C 0.6663(2) 0.4668(2) 0.19508(5)
C19_3 C 0.7241(3) 0.5319(3) 0.18851(6)
C20_3 C 0.6378(3) 0.4654(2) 0.21686(5)
C21_3 C 0.7509(3) 0.5959(3) 0.20332(6)
H10_3 H 0.7450 0.5327 0.1741
H11_3 H 0.5998 0.4215 0.2216
C22_3 C 0.6655(3) 0.5288(2) 0.23154(5)
C23_3 C 0.7201(3) 0.5954(2) 0.22472(5)
H12_3 H 0.7898 0.6393 0.1988
H13_3 H 0.6471 0.5266 0.2462
C24_3 C 0.7387(3) 0.6742(2) 0.23886(5)
O10_3 O 0.84885(18) 0.42036(16) 0.34169(4)
C25_3 C 0.8684(2) 0.4035(2) 0.32180(5)
C26_3 C 0.8337(2) 0.4668(2) 0.30492(5)
C27_3 C 0.7759(3) 0.5319(3) 0.31149(6)
C28_3 C 0.8622(3) 0.4654(2) 0.28314(5)
C29_3 C 0.7491(3) 0.5959(3) 0.29668(6)
H14_3 H 0.7550 0.5327 0.3259
H15_3 H 0.9002 0.4215 0.2784
C30_3 C 0.8345(3) 0.5288(2) 0.26846(5)
C31_3 C 0.7799(3) 0.5954(2) 0.27528(5)
H16_3 H 0.7102 0.6393 0.3012
H17_3 H 0.8529 0.5266 0.2538
C32_3 C 0.7613(3) 0.6742(2) 0.26114(5)
O13_3 O 0.74055(18) 0.3590(2) 0.37304(4)
O15_3 O 0.8910(2) 0.99055(18) 0.37696(4)
O16_3 O 0.8910(2) 0.50945(18) 0.37696(4)
O18_4 O 1.0000 0.3846(2) 0.39729(4)
C3_4 C 0.7241(3) 0.0319(3) 0.81149(6)
C5_4 C 0.7509(3) 0.0959(3) 0.79668(6)
H2_4 H 0.7450 0.0327 0.8259
C6_4 C 0.6655(3) 0.0288(2) 0.76846(5)
C7_4 C 0.7201(3) 0.0954(2) 0.77528(5)
H4_4 H 0.7898 0.1393 0.8012
H5_4 H 0.6471 0.0266 0.7538
C8_4 C 0.7387(3) 0.1742(2) 0.76114(5)
N1_5 N 0.7287(3) 0.2500 0.77196(7)
C11_4 C 0.7759(3) 0.0319(3) 0.68851(6)
C13_4 C 0.7491(3) 0.0959(3) 0.70332(6)
H6_4 H 0.7550 0.0327 0.6741
C14_4 C 0.8345(3) 0.0288(2) 0.73154(5)
C15_4 C 0.7799(3) 0.0954(2) 0.72472(5)
H8_4 H 0.7102 0.1393 0.6988
H9_4 H 0.8529 0.0266 0.7462
C16_4 C 0.7613(3) 0.1742(2) 0.73886(5)
N2_5 N 0.7713(3) 0.2500 0.72804(7)
C17_4 C 0.8684(2) 0.5965(2) 0.67820(5)
O9_4 O 0.91418(16) 0.66035(14) 0.68477(3)
C18_4 C 0.8337(2) 0.5332(2) 0.69508(5)
C19_4 C 0.7759(3) 0.4681(3) 0.68851(6)
C20_4 C 0.8622(3) 0.5346(2) 0.71686(5)
C21_4 C 0.7491(3) 0.4041(3) 0.70332(6)
H10_4 H 0.7550 0.4673 0.6741
H11_4 H 0.9002 0.5785 0.7216
C22_4 C 0.8345(3) 0.4712(2) 0.73154(5)
C23_4 C 0.7799(3) 0.4046(2) 0.72472(5)
H12_4 H 0.7102 0.3607 0.6988
H13_4 H 0.8529 0.4734 0.7462
C24_4 C 0.7613(3) 0.3258(2) 0.73886(5)
O10_4 O 0.65115(18) 0.57964(16) 0.84169(4)
C25_4 C 0.6316(2) 0.5965(2) 0.82180(5)
O11_2 O 0.58582(16) 0.66035(14) 0.81523(3)
C26_4 C 0.6663(2) 0.5332(2) 0.80492(5)
C27_4 C 0.7241(3) 0.4681(3) 0.81149(6)
C28_4 C 0.6378(3) 0.5346(2) 0.78314(5)
C29_4 C 0.7509(3) 0.4041(3) 0.79668(6)
H14_4 H 0.7450 0.4673 0.8259
H15_4 H 0.5998 0.5785 0.7784
C30_4 C 0.6655(3) 0.4712(2) 0.76846(5)
C31_4 C 0.7201(3) 0.4046(2) 0.77528(5)
H16_4 H 0.7898 0.3607 0.8012
H17_4 H 0.6471 0.4734 0.7538
C32_4 C 0.7387(3) 0.3258(2) 0.76114(5)
O12_2 O 0.5000 0.65231(18) 0.85776(4)
O13_4 O 0.75945(18) 0.6410(2) 0.87304(4)
O15_4 O 0.6090(2) 0.00945(18) 0.87696(4)
O16_4 O 0.6090(2) 0.49055(18) 0.87696(4)
O17_3 O 0.6346(2) 0.7500 0.85271(4)
O18_5 O 0.5000 0.6154(2) 0.89729(4)
O21_3 O 0.59769(18) 0.7500 0.89224(4)
Zr9_3 Zr 0.5000 0.7500 0.83411(2)
Zr1_4 Zr 0.61592(2) 0.86592(2) 0.8750
O2_5 O 0.5000 0.84769(18) 0.85776(4)
O3_4 O 0.65115(18) 0.92036(16) 0.84169(4)
O4_4 O 0.75945(18) 0.8590(2) 0.87304(4)
H1_5 H 0.6915(18) 0.7500 0.8450(7)
C1_4 C 0.6316(2) 0.9035(2) 0.82180(5)
O5_4 O 0.58582(16) 0.83965(14) 0.81523(3)
C2_4 C 0.6663(2) 0.9668(2) 0.80492(5)
C4_4 C 0.6378(3) 0.9654(2) 0.78314(5)
H3_4 H 0.5998 0.9215 0.7784
O6_4 O 0.84885(18) 0.92036(16) 0.65831(4)
C9_4 C 0.8684(2) 0.9035(2) 0.67820(5)
O7_4 O 0.91418(16) 0.83965(14) 0.68477(3)
C10_4 C 0.8337(2) 0.9668(2) 0.69508(5)
C12_4 C 0.8622(3) 0.9654(2) 0.71686(5)
H7_4 H 0.9002 0.9215 0.7216
O14_5 O 0.5000 0.8846(2) 0.89729(4)
H18_5 H 0.5000 0.9415(18) 0.9050(7)
Zr7_4 Zr 0.38408(2) 0.86592(2) 0.8750
O19_5 O 0.3654(2) 0.7500 0.85271(4)
O23_4 O 0.67036(16) 0.90115(18) 0.90831(4)
O25_4 O 0.41418(16) 0.66035(14) 0.81523(3)
O27_4 O 0.41418(16) 0.83965(14) 0.81523(3)
O2_6 O 0.09769(18) 0.2500 0.39224(4)
O4_5 O 0.1090(2) 0.50945(18) 0.37696(4)
H1_6 H 0.0000 0.4415(18) 0.4050(7)
H18_6 H 0.1915(18) 0.2500 0.3450(7)
O15_5 O 0.25945(18) 0.3590(2) 0.37304(4)
O23_5 O 0.15115(18) 0.42036(16) 0.34169(4)
O27_5 O 0.08965(14) 0.16418(16) 0.43477(3)
H1_7 H 1.0000 0.4415(18) 0.4050(7)
O25_5 O 0.91035(14) 0.16418(16) 0.43477(3)
O2_7 O 0.40231(18) 0.7500 0.89224(4)
O4_6 O 0.3910(2) 0.49055(18) 0.87696(4)
H1_8 H 0.5000 0.5585(18) 0.9050(7)
H18_7 H 0.3085(18) 0.7500 0.8450(7)
O15_6 O 0.24055(18) 0.6410(2) 0.87304(4)
O23_6 O 0.34885(18) 0.57964(16) 0.84169(4)
O25_6 O 0.58965(14) 0.83582(16) 0.93477(3)
O27_6 O 0.41035(14) 0.83582(16) 0.93477(3)
O2_8 O 0.5000 0.15231(18) 0.14224(4)
O4_7 O 0.75945(18) 0.1410(2) 0.12696(4)
H1_9 H 0.6915(18) 0.2500 0.1550(7)
H18_8 H 0.5000 0.0585(18) 0.0950(7)
O23_7 O 0.67036(16) 0.09885(18) 0.09169(4)
O25_7 O 0.41418(16) 0.33965(14) 0.18477(3)
O27_7 O 0.41418(16) 0.16035(14) 0.18477(3)
O15_7 O 0.6090(2) 0.99055(18) 0.12304(4)
O2_9 O 0.0000 0.84769(18) 0.64224(4)
H18_9 H 0.0000 0.9415(18) 0.5950(7)
O25_8 O 0.08582(16) 0.66035(14) 0.68477(3)
O27_8 O 0.08582(16) 0.83965(14) 0.68477(3)
O15_8 O 0.8910(2) 0.00945(18) 0.62304(4)
O2_10 O 1.0000 0.84769(18) 0.64224(4)
O4_8 O 0.74055(18) 0.8590(2) 0.62696(4)
H1_10 H 0.8085(18) 0.7500 0.6550(7)
H18_10 H 1.0000 0.9415(18) 0.5950(7)
O23_8 O 0.82964(16) 0.90115(18) 0.59169(4)
C5_5 C 0.6541(3) 0.0009(3) 0.54668(6)
H4_5 H 0.6107 0.0398 0.5512
C9_5 C 0.8465(2) 0.1184(2) 0.42820(5)
C10_5 C 0.7832(2) 0.0837(2) 0.44508(5)
C11_5 C 0.7181(3) 0.0259(3) 0.43851(6)
C12_5 C 0.7846(2) 0.1122(3) 0.46686(5)
H6_5 H 0.7173 0.0050 0.4241
H7_5 H 0.8285 0.1502 0.4716
C14_5 C 0.7212(2) 0.0845(3) 0.48154(5)
C15_5 C 0.6546(2) 0.0299(3) 0.47472(5)
H9_5 H 0.7234 0.1029 0.4962
C16_5 C 0.5758(2) 0.0113(3) 0.48886(5)
N2_6 N 0.5000 0.0213(3) 0.47804(7)
O8_3 O 0.17036(16) 0.09885(18) 0.40831(4)
C17_5 C 0.1535(2) 0.1184(2) 0.42820(5)
C18_5 C 0.2168(2) 0.0837(2) 0.44508(5)
C19_5 C 0.2819(3) 0.0259(3) 0.43851(6)
C20_5 C 0.2154(2) 0.1122(3) 0.46686(5)
H10_5 H 0.2827 0.0050 0.4241
H11_5 H 0.1715 0.1502 0.4716
C22_5 C 0.2788(2) 0.0845(3) 0.48154(5)
C23_5 C 0.3454(2) 0.0299(3) 0.47472(5)
H13_5 H 0.2766 0.1029 0.4962
C24_5 C 0.4242(2) 0.0113(3) 0.48886(5)
C29_5 C 0.3459(3) 0.0009(3) 0.54668(6)
H16_5 H 0.3893 0.0398 0.5512
O13_5 O 0.1090(2) 0.00945(18) 0.62304(4)
C1_5 C 0.8465(2) 0.8816(2) 0.57180(5)
C2_5 C 0.7832(2) 0.9163(2) 0.55492(5)
C3_5 C 0.7181(3) 0.9741(3) 0.56149(6)
C4_5 C 0.7846(2) 0.8878(3) 0.53314(5)
H2_5 H 0.7173 0.9950 0.5759
H3_5 H 0.8285 0.8498 0.5284
C6_5 C 0.7212(2) 0.9155(3) 0.51846(5)
C7_5 C 0.6546(2) 0.9701(3) 0.52528(5)
H5_5 H 0.7234 0.8971 0.5038
C8_5 C 0.5758(2) 0.9887(3) 0.51114(5)
N1_6 N 0.5000 0.9787(3) 0.52196(7)
C13_5 C 0.6541(3) 0.9991(3) 0.45332(6)
H8_5 H 0.6107 0.9602 0.4488
C21_5 C 0.3459(3) 0.9991(3) 0.45332(6)
H12_5 H 0.3893 0.9602 0.4488
O10_5 O 0.17036(16) 0.90115(18) 0.59169(4)
C25_5 C 0.1535(2) 0.8816(2) 0.57180(5)
C26_5 C 0.2168(2) 0.9163(2) 0.55492(5)
C27_5 C 0.2819(3) 0.9741(3) 0.56149(6)
C28_5 C 0.2154(2) 0.8878(3) 0.53314(5)
H14_5 H 0.2827 0.9950 0.5759
H15_5 H 0.1715 0.8498 0.5284
C30_5 C 0.2788(2) 0.9155(3) 0.51846(5)
C31_5 C 0.3454(2) 0.9701(3) 0.52528(5)
H17_5 H 0.2766 0.8971 0.5038
C32_5 C 0.4242(2) 0.9887(3) 0.51114(5)
O16_5 O 0.25945(18) 0.8590(2) 0.62696(4)
O24_3 O 0.15115(18) 0.92036(16) 0.65831(4)
N1_7 N -0.0000 0.0213(3) 0.02196(7)
O10_6 O 0.32964(16) 0.09885(18) 0.09169(4)
C25_6 C 0.3465(2) 0.1184(2) 0.07180(5)
C26_6 C 0.2832(2) 0.0837(2) 0.05492(5)
C27_6 C 0.2181(3) 0.0259(3) 0.06149(6)
C28_6 C 0.2846(2) 0.1122(3) 0.03314(5)
H14_6 H 0.2173 0.0050 0.0759
H15_6 H 0.3285 0.1502 0.0284
C30_6 C 0.2212(2) 0.0845(3) 0.01846(5)
C31_6 C 0.1546(2) 0.0299(3) 0.02528(5)
H17_6 H 0.2234 0.1029 0.0038
C32_6 C 0.0758(2) 0.0113(3) 0.01114(5)
O16_6 O 0.24055(18) 0.1410(2) 0.12696(4)
O24_4 O 0.34885(18) 0.07964(16) 0.15831(4)
C21_6 C 0.1541(3) 0.0009(3) 0.95332(6)
H12_6 H 0.1107 0.0398 0.9488
C29_6 C 0.1541(3) 0.9991(3) 0.04668(6)
H16_6 H 0.1107 0.9602 0.0512
O13_6 O 0.3910(2) 0.99055(18) 0.12304(4)
N2_7 N 0.0000 0.9787(3) 0.97804(7)
O8_4 O 0.32964(16) 0.90115(18) 0.90831(4)
C17_6 C 0.3465(2) 0.8816(2) 0.92820(5)
C18_6 C 0.2832(2) 0.9163(2) 0.94508(5)
C19_6 C 0.2181(3) 0.9741(3) 0.93851(6)
C20_6 C 0.2846(2) 0.8878(3) 0.96686(5)
H10_6 H 0.2173 0.9950 0.9241
H11_6 H 0.3285 0.8498 0.9716
C22_6 C 0.2212(2) 0.9155(3) 0.98154(5)
C23_6 C 0.1546(2) 0.9701(3) 0.97472(5)
H13_6 H 0.2234 0.8971 0.9962
C24_6 C 0.0758(2) 0.9887(3) 0.98886(5)
C1_6 C 0.6535(2) 0.1184(2) 0.07180(5)
C2_6 C 0.7168(2) 0.0837(2) 0.05492(5)
C3_6 C 0.7819(3) 0.0259(3) 0.06149(6)
C4_6 C 0.7154(2) 0.1122(3) 0.03314(5)
H2_6 H 0.7827 0.0050 0.0759
H3_6 H 0.6715 0.1502 0.0284
C6_6 C 0.7788(2) 0.0845(3) 0.01846(5)
C7_6 C 0.8454(2) 0.0299(3) 0.02528(5)
H5_6 H 0.7766 0.1029 0.0038
C8_6 C 0.9242(2) 0.0113(3) 0.01114(5)
N1_8 N 1.0000 0.0213(3) 0.02196(7)
C13_6 C 0.8459(3) 0.0009(3) 0.95332(6)
H8_6 H 0.8893 0.0398 0.9488
C5_6 C 0.8459(3) 0.9991(3) 0.04668(6)
H4_6 H 0.8893 0.9602 0.0512
C9_6 C 0.6535(2) 0.8816(2) 0.92820(5)
C10_6 C 0.7168(2) 0.9163(2) 0.94508(5)
C11_6 C 0.7819(3) 0.9741(3) 0.93851(6)
C12_6 C 0.7154(2) 0.8878(3) 0.96686(5)
H6_6 H 0.7827 0.9950 0.9241
H7_6 H 0.6715 0.8498 0.9716
C14_6 C 0.7788(2) 0.9155(3) 0.98154(5)
C15_6 C 0.8454(2) 0.9701(3) 0.97472(5)
H9_6 H 0.7766 0.8971 0.9962
C16_6 C 0.9242(2) 0.9887(3) 0.98886(5)
N2_8 N 1.0000 0.9787(3) 0.97804(7)
C1_7 C 0.3684(2) 0.5965(2) 0.82180(5)
C2_7 C 0.3337(2) 0.5332(2) 0.80492(5)
C3_7 C 0.2759(3) 0.4681(3) 0.81149(6)
C4_7 C 0.3622(3) 0.5346(2) 0.78314(5)
C5_7 C 0.2491(3) 0.4041(3) 0.79668(6)
H2_7 H 0.2550 0.4673 0.8259
H3_7 H 0.4002 0.5785 0.7784
C6_7 C 0.3345(3) 0.4712(2) 0.76846(5)
C7_7 C 0.2799(3) 0.4046(2) 0.77528(5)
H4_7 H 0.2102 0.3607 0.8012
H5_7 H 0.3529 0.4734 0.7538
C8_7 C 0.2613(3) 0.3258(2) 0.76114(5)
N1_9 N 0.2713(3) 0.2500 0.77196(7)
C9_7 C 0.1316(2) 0.5965(2) 0.67820(5)
C10_7 C 0.1663(2) 0.5332(2) 0.69508(5)
C11_7 C 0.2241(3) 0.4681(3) 0.68851(6)
C12_7 C 0.1378(3) 0.5346(2) 0.71686(5)
C13_7 C 0.2509(3) 0.4041(3) 0.70332(6)
H6_7 H 0.2450 0.4673 0.6741
H7_7 H 0.0998 0.5785 0.7216
C14_7 C 0.1655(3) 0.4712(2) 0.73154(5)
C15_7 C 0.2201(3) 0.4046(2) 0.72472(5)
H8_7 H 0.2898 0.3607 0.6988
H9_7 H 0.1471 0.4734 0.7462
C16_7 C 0.2387(3) 0.3258(2) 0.73886(5)
N2_9 N 0.2287(3) 0.2500 0.72804(7)
C19_7 C 0.2241(3) 0.0319(3) 0.68851(6)
C21_7 C 0.2509(3) 0.0959(3) 0.70332(6)
H10_7 H 0.2450 0.0327 0.6741
C22_7 C 0.1655(3) 0.0288(2) 0.73154(5)
C23_7 C 0.2201(3) 0.0954(2) 0.72472(5)
H12_7 H 0.2898 0.1393 0.6988
H13_7 H 0.1471 0.0266 0.7462
C24_7 C 0.2387(3) 0.1742(2) 0.73886(5)
C27_7 C 0.2759(3) 0.0319(3) 0.81149(6)
C29_7 C 0.2491(3) 0.0959(3) 0.79668(6)
H14_7 H 0.2550 0.0327 0.8259
C30_7 C 0.3345(3) 0.0288(2) 0.76846(5)
C31_7 C 0.2799(3) 0.0954(2) 0.77528(5)
H16_7 H 0.2102 0.1393 0.8012
H17_7 H 0.3529 0.0266 0.7538
C32_7 C 0.2613(3) 0.1742(2) 0.76114(5)
O16_7 O 0.3910(2) 0.00945(18) 0.87696(4)
C17_7 C 0.1316(2) 0.9035(2) 0.67820(5)
C18_7 C 0.1663(2) 0.9668(2) 0.69508(5)
C20_7 C 0.1378(3) 0.9654(2) 0.71686(5)
H11_7 H 0.0998 0.9215 0.7216
O10_7 O 0.34885(18) 0.92036(16) 0.84169(4)
C25_7 C 0.3684(2) 0.9035(2) 0.82180(5)
C26_7 C 0.3337(2) 0.9668(2) 0.80492(5)
C28_7 C 0.3622(3) 0.9654(2) 0.78314(5)
H15_7 H 0.4002 0.9215 0.7784
O13_7 O 0.24055(18) 0.8590(2) 0.87304(4)
C17_8 C 0.3684(2) 0.0965(2) 0.17820(5)
C18_8 C 0.3337(2) 0.0332(2) 0.19508(5)
C20_8 C 0.3622(3) 0.0346(2) 0.21686(5)
H11_8 H 0.4002 0.0785 0.2216
O10_8 O 0.15115(18) 0.07964(16) 0.34169(4)
C25_8 C 0.1316(2) 0.0965(2) 0.32180(5)
C26_8 C 0.1663(2) 0.0332(2) 0.30492(5)
C28_8 C 0.1378(3) 0.0346(2) 0.28314(5)
H15_8 H 0.0998 0.0785 0.2784
O13_8 O 0.25945(18) 0.1410(2) 0.37304(4)
C1_8 C 0.1316(2) 0.4035(2) 0.32180(5)
C2_8 C 0.1663(2) 0.4668(2) 0.30492(5)
C3_8 C 0.2241(3) 0.5319(3) 0.31149(6)
C4_8 C 0.1378(3) 0.4654(2) 0.28314(5)
C5_8 C 0.2509(3) 0.5959(3) 0.29668(6)
H2_8 H 0.2450 0.5327 0.3259
H3_8 H 0.0998 0.4215 0.2784
C6_8 C 0.1655(3) 0.5288(2) 0.26846(5)
C7_8 C 0.2201(3) 0.5954(2) 0.27528(5)
H4_8 H 0.2898 0.6393 0.3012
H5_8 H 0.1471 0.5266 0.2538
C8_8 C 0.2387(3) 0.6742(2) 0.26114(5)
N1_10 N 0.2287(3) 0.7500 0.27196(7)
C9_8 C 0.3684(2) 0.4035(2) 0.17820(5)
C10_8 C 0.3337(2) 0.4668(2) 0.19508(5)
C11_8 C 0.2759(3) 0.5319(3) 0.18851(6)
C12_8 C 0.3622(3) 0.4654(2) 0.21686(5)
C13_8 C 0.2491(3) 0.5959(3) 0.20332(6)
H6_8 H 0.2550 0.5327 0.1741
H7_8 H 0.4002 0.4215 0.2216
C14_8 C 0.3345(3) 0.5288(2) 0.23154(5)
C15_8 C 0.2799(3) 0.5954(2) 0.22472(5)
H8_8 H 0.2102 0.6393 0.1988
H9_8 H 0.3529 0.5266 0.2462
C16_8 C 0.2613(3) 0.6742(2) 0.23886(5)
N2_10 N 0.2713(3) 0.7500 0.22804(7)
C19_8 C 0.2759(3) 0.9681(3) 0.18851(6)
C21_8 C 0.2491(3) 0.9041(3) 0.20332(6)
H10_8 H 0.2550 0.9673 0.1741
C22_8 C 0.3345(3) 0.9712(2) 0.23154(5)
C23_8 C 0.2799(3) 0.9046(2) 0.22472(5)
H12_8 H 0.2102 0.8607 0.1988
H13_8 H 0.3529 0.9734 0.2462
C24_8 C 0.2613(3) 0.8258(2) 0.23886(5)
C27_8 C 0.2241(3) 0.9681(3) 0.31149(6)
C29_8 C 0.2509(3) 0.9041(3) 0.29668(6)
H14_8 H 0.2450 0.9673 0.3259
C30_8 C 0.1655(3) 0.9712(2) 0.26846(5)
C31_8 C 0.2201(3) 0.9046(2) 0.27528(5)
H16_8 H 0.2898 0.8607 0.3012
H17_8 H 0.1471 0.9734 0.2538
C32_8 C 0.2387(3) 0.8258(2) 0.26114(5)
O16_8 O 0.1090(2) 0.99055(18) 0.37696(4)
loop_
_geom_bond_atom_site_label_1
_geom_bond_atom_site_label_2
_geom_bond_site_symmetry_1
_geom_bond_site_symmetry_2
Zr1 O1 1_555 1_555
O1 Zr2 1_555 1_555
O2 Zr1 1_555 1_555
O3 Zr1 1_555 1_555
O4 Zr1 1_555 1_555
Zr2 O2 1_555 1_555
H1 O1 1_555 1_555
C1 O3 1_555 1_555
O5 Zr2 1_555 1_555
C2 C1 1_555 1_555
C3 C2 1_555 1_555
C4 C2 1_555 1_555
C5 C3 1_555 1_555
H2 C3 1_555 1_555
H3 C4 1_555 1_555
C6 C4 1_555 1_555
C7 C5 1_555 1_555
H4 C5 1_555 1_555
H5 C6 1_555 1_555
C8 C7 1_555 1_555
N1 C8 1_555 1_555
O14 Zr1 1_555 1_555
H18 O14 1_555 1_555
O15 Zr1 1_555 1_555
Zr7 O2 1_555 1_555
Zr8 O1 1_555 1_555
O19 Zr2 1_555 1_555
O20 Zr2 1_555 1_555
O22 Zr1 1_555 1_555
O23 Zr1 1_555 1_555
Zr12 O14 1_555 1_555
O25 Zr2 1_555 1_555
O26 Zr2 1_555 1_555
O27 Zr2 1_555 1_555
C1 O5 1_555 1_555
C6 C7 1_555 1_555
O14 Zr7 1_555 1_555
Zr7 O19 1_555 1_555
Zr8 O20 1_555 1_555
Zr8 O22 1_555 1_555
O22 Zr12 1_555 1_555
O6 C9 1_555 1_555
C9 O7 1_555 1_555
O7 Zr11 1_555 1_555
C10 C9 1_555 1_555
C11 C10 1_555 1_555
C12 C10 1_555 1_555
C13 C11 1_555 1_555
H6 C11 1_555 1_555
H7 C12 1_555 1_555
C14 C12 1_555 1_555
C15 C13 1_555 1_555
H8 C13 1_555 1_555
H9 C14 1_555 1_555
N2 C16 1_555 1_555
Zr4 O6 1_555 1_555
C14 C15 1_555 1_555
C15 C16 1_555 1_555
O10 C25 1_555 1_555
C25 O26 1_555 1_555
C26 C25 1_555 1_555
C27 C26 1_555 1_555
C28 C26 1_555 1_555
C29 C27 1_555 1_555
H14 C27 1_555 1_555
H15 C28 1_555 1_555
C30 C28 1_555 1_555
C31 C29 1_555 1_555
H16 C29 1_555 1_555
H17 C30 1_555 1_555
C32 N1_2 1_555 1_555
Zr8 O10 1_555 1_555
O13 Zr8 1_555 1_555
O16 Zr8 1_555 1_555
Zr5 O20 1_555 1_555
O18 Zr8 1_555 1_555
O24 Zr8 1_555 1_555
C30 C31 1_555 1_555
C31 C32 1_555 1_555
Zr5 O18 1_555 1_555
O8 C17 1_555 1_555
C17 O9 1_555 1_555
O9 Zr11 1_555 1_555
C18 C17 1_555 1_555
C19 C18 1_555 1_555
C20 C18 1_555 1_555
C21 C19 1_555 1_555
H10 C19 1_555 1_555
H11 C20 1_555 1_555
C22 C20 1_555 1_555
C23 C21 1_555 1_555
H12 C21 1_555 1_555
H13 C22 1_555 1_555
C24 N2_2 1_555 1_555
Zr6 O8 1_555 1_555
C22 C23 1_555 1_555
C23 C24 1_555 1_555
O17 Zr9 1_555 1_555
Zr1_2 O17 1_555 1_555
O2_2 Zr1_2 1_555 1_555
O3_2 Zr1_2 1_555 1_555
O4_2 Zr1_2 1_555 1_555
Zr9 O2_2 1_555 1_555
H1_2 O17 1_555 1_555
C1_2 O3_2 1_555 1_555
O5_2 Zr9 1_555 1_555
C2_2 C1_2 1_555 1_555
C3_2 C2_2 1_555 1_555
C4_2 C2_2 1_555 1_555
C5_2 C3_2 1_555 1_555
H2_2 C3_2 1_555 1_555
H3_2 C4_2 1_555 1_555
C6_2 C4_2 1_555 1_555
C7_2 C5_2 1_555 1_555
H4_2 C5_2 1_555 1_555
H5_2 C6_2 1_555 1_555
C8_2 C7_2 1_555 1_555
N1_3 C8_2 1_555 1_555
O6_2 C9_2 1_555 1_555
C9_2 O7_2 1_555 1_555
O7_2 Zr10 1_555 1_555
C10_2 C9_2 1_555 1_555
C11_2 C10_2 1_555 1_555
C12_2 C10_2 1_555 1_555
C13_2 C11_2 1_555 1_555
H6_2 C11_2 1_555 1_555
H7_2 C12_2 1_555 1_555
C14_2 C12_2 1_555 1_555
C15_2 C13_2 1_555 1_555
H8_2 C13_2 1_555 1_555
H9_2 C14_2 1_555 1_555
C16_2 C8_2 1_555 1_555
N2_3 C16_2 1_555 1_555
O8_2 C17_2 1_555 1_555
C17_2 O9_2 1_555 1_555
O9_2 Zr10_2 1_555 1_555
C18_2 C17_2 1_555 1_555
C19_2 C18_2 1_555 1_555
C20_2 C18_2 1_555 1_555
C21_2 C19_2 1_555 1_555
H10_2 C19_2 1_555 1_555
H11_2 C20_2 1_555 1_555
C22_2 C20_2 1_555 1_555
C23_2 C21_2 1_555 1_555
H12_2 C21_2 1_555 1_555
H13_2 C22_2 1_555 1_555
C24_2 N2_3 1_555 1_555
O10_2 C25_2 1_555 1_555
C25_2 O11 1_555 1_555
O11 Zr9_2 1_555 1_555
C26_2 C25_2 1_555 1_555
C27_2 C26_2 1_555 1_555
C28_2 C26_2 1_555 1_555
C29_2 C27_2 1_555 1_555
H14_2 C27_2 1_555 1_555
H15_2 C28_2 1_555 1_555
C30_2 C28_2 1_555 1_555
C31_2 C29_2 1_555 1_555
H16_2 C29_2 1_555 1_555
H17_2 C30_2 1_555 1_555
C32_2 N1_3 1_555 1_555
Zr3 O10_2 1_555 1_555
O12 Zr3 1_555 1_555
O13_2 Zr3 1_555 1_555
O14_2 Zr1_2 1_555 1_555
H18_2 O14_2 1_555 1_555
O15_2 Zr1_2 1_555 1_555
O16_2 Zr3 1_555 1_555
Zr4_2 O6_2 1_555 1_555
Zr5_2 O12 1_555 1_555
Zr6_2 O8_2 1_555 1_555
Zr7_2 O2_2 1_555 1_555
O17_2 Zr3 1_555 1_555
O18_2 Zr3 1_555 1_555
O19_2 Zr9 1_555 1_555
O21_2 Zr3 1_555 1_555
O21 Zr1_2 1_555 1_555
O23_2 Zr1_2 1_555 1_555
O24_2 Zr3 1_555 1_555
Zr9_2 O12 1_555 1_555
Zr12_2 O14_2 1_555 1_555
O27_2 Zr9 1_555 1_555
C1_2 O5_2 1_555 1_555
C6_2 C7_2 1_555 1_555
C14_2 C15_2 1_555 1_555
C15_2 C16_2 1_555 1_555
C22_2 C23_2 1_555 1_555
C23_2 C24_2 1_555 1_555
C24_2 C32_2 1_555 1_555
C30_2 C31_2 1_555 1_555
C31_2 C32_2 1_555 1_555
O14_2 Zr7_2 1_555 1_555
Zr5_2 O18_2 1_555 1_555
Zr7_2 O19_2 1_555 1_555
O17_2 Zr9_2 1_555 1_555
O21 Zr12_2 1_555 1_555
H1_3 O17_2 1_555 1_555
O19_3 Zr9_2 1_555 1_555
O25_2 Zr9_2 1_555 1_555
O21_2 Zr12_3 1_555 1_555
Zr2_2 O2_3 1_555 1_555
H18_3 O14_3 1_555 1_555
Zr7_3 O2_3 1_555 1_555
O19_4 Zr2_2 1_555 1_555
O20_2 Zr2_2 1_555 1_555
Zr10 O14_3 1_555 1_555
O25_3 Zr2_2 1_555 1_555
O27_3 Zr2_2 1_555 1_555
O14_3 Zr7_3 1_555 1_555
Zr7_3 O19_4 1_555 1_555
Zr4_2 O20_2 1_555 1_555
Zr4_2 O18_3 1_555 1_555
Zr1_3 O1_2 1_555 1_555
O1_2 Zr2_3 1_555 1_555
O2_4 Zr1_3 1_555 1_555
O3_3 Zr1_3 1_555 1_555
O4_3 Zr1_3 1_555 1_555
Zr2_3 O2_4 1_555 1_555
H1_4 O1_2 1_555 1_555
C1_3 O3_3 1_555 1_555
O5_3 Zr2_3 1_555 1_555
C2_3 C1_3 1_555 1_555
C4_3 C2_3 1_555 1_555
H3_3 C4_3 1_555 1_555
O6_3 C9_3 1_555 1_555
C9_3 O7_3 1_555 1_555
O7_3 Zr12 1_555 1_555
C10_3 C9_3 1_555 1_555
C12_3 C10_3 1_555 1_555
H7_3 C12_3 1_555 1_555
O14_4 Zr1_3 1_555 1_555
H18_4 O14_4 1_555 1_555
Zr5 O6_3 1_555 1_555
Zr6_2 O1_2 1_555 1_555
O20_3 Zr2_3 1_555 1_555
O22_2 Zr1_3 1_555 1_555
O23_3 Zr1_3 1_555 1_555
Zr10_2 O14_4 1_555 1_555
O26_2 Zr2_3 1_555 1_555
C1_3 O5_3 1_555 1_555
Zr6_2 O20_3 1_555 1_555
Zr6_2 O22_2 1_555 1_555
O22_2 Zr10_2 1_555 1_555
C5_3 C3_3 1_555 1_555
H2_3 C3_3 1_555 1_555
C7_3 C5_3 1_555 1_555
H4_3 C5_3 1_555 1_555
H5_3 C6_3 1_555 1_555
C8_3 C7_3 1_555 1_555
N1_4 C8_3 1_555 1_555
C13_3 C11_3 1_555 1_555
H6_3 C11_3 1_555 1_555
C15_3 C13_3 1_555 1_555
H8_3 C13_3 1_555 1_555
H9_3 C14_3 1_555 1_555
C16_3 C8_3 1_555 1_555
N2_4 C16_3 1_555 1_555
O24 C17_3 1_555 1_555
C17_3 O9_3 1_555 1_555
O9_3 Zr12 1_555 1_555
C18_3 C17_3 1_555 1_555
C19_3 C18_3 1_555 1_555
C20_3 C18_3 1_555 1_555
C21_3 C19_3 1_555 1_555
H10_3 C19_3 1_555 1_555
H11_3 C20_3 1_555 1_555
C22_3 C20_3 1_555 1_555
C23_3 C21_3 1_555 1_555
H12_3 C21_3 1_555 1_555
H13_3 C22_3 1_555 1_555
C24_3 N2_4 1_555 1_555
O10_3 C25_3 1_555 1_555
C25_3 O26_2 1_555 1_555
C26_3 C25_3 1_555 1_555
C27_3 C26_3 1_555 1_555
C28_3 C26_3 1_555 1_555
C29_3 C27_3 1_555 1_555
H14_3 C27_3 1_555 1_555
H15_3 C28_3 1_555 1_555
C30_3 C28_3 1_555 1_555
C31_3 C29_3 1_555 1_555
H16_3 C29_3 1_555 1_555
H17_3 C30_3 1_555 1_555
C32_3 N1_4 1_555 1_555
Zr6_2 O10_3 1_555 1_555
O13_3 Zr6_2 1_555 1_555
O16_3 Zr6_2 1_555 1_555
O18_4 Zr6_2 1_555 1_555
C6_3 C7_3 1_555 1_555
C14_3 C15_3 1_555 1_555
C15_3 C16_3 1_555 1_555
C22_3 C23_3 1_555 1_555
C23_3 C24_3 1_555 1_555
C24_3 C32_3 1_555 1_555
C30_3 C31_3 1_555 1_555
C31_3 C32_3 1_555 1_555
C5_4 C3_4 1_555 1_555
H2_4 C3_4 1_555 1_555
C7_4 C5_4 1_555 1_555
H4_4 C5_4 1_555 1_555
H5_4 C6_4 1_555 1_555
C8_4 C7_4 1_555 1_555
N1_5 C8_4 1_555 1_555
C13_4 C11_4 1_555 1_555
H6_4 C11_4 1_555 1_555
C15_4 C13_4 1_555 1_555
H8_4 C13_4 1_555 1_555
H9_4 C14_4 1_555 1_555
C16_4 C8_4 1_555 1_555
N2_5 C16_4 1_555 1_555
O24_2 C17_4 1_555 1_555
C17_4 O9_4 1_555 1_555
O9_4 Zr12_3 1_555 1_555
C18_4 C17_4 1_555 1_555
C19_4 C18_4 1_555 1_555
C20_4 C18_4 1_555 1_555
C21_4 C19_4 1_555 1_555
H10_4 C19_4 1_555 1_555
H11_4 C20_4 1_555 1_555
C22_4 C20_4 1_555 1_555
C23_4 C21_4 1_555 1_555
H12_4 C21_4 1_555 1_555
H13_4 C22_4 1_555 1_555
C24_4 N2_5 1_555 1_555
O10_4 C25_4 1_555 1_555
C25_4 O11_2 1_555 1_555
O11_2 Zr9_3 1_555 1_555
C26_4 C25_4 1_555 1_555
C27_4 C26_4 1_555 1_555
C28_4 C26_4 1_555 1_555
C29_4 C27_4 1_555 1_555
H14_4 C27_4 1_555 1_555
H15_4 C28_4 1_555 1_555
C30_4 C28_4 1_555 1_555
C31_4 C29_4 1_555 1_555
H16_4 C29_4 1_555 1_555
H17_4 C30_4 1_555 1_555
C32_4 N1_5 1_555 1_555
Zr6 O10_4 1_555 1_555
O12_2 Zr6 1_555 1_555
O13_4 Zr6 1_555 1_555
O16_4 Zr6 1_555 1_555
Zr4 O12_2 1_555 1_555
O17_3 Zr6 1_555 1_555
O18_5 Zr6 1_555 1_555
O21_3 Zr6 1_555 1_555
Zr9_3 O12_2 1_555 1_555
C6_4 C7_4 1_555 1_555
C14_4 C15_4 1_555 1_555
C15_4 C16_4 1_555 1_555
C22_4 C23_4 1_555 1_555
C23_4 C24_4 1_555 1_555
C24_4 C32_4 1_555 1_555
C30_4 C31_4 1_555 1_555
C31_4 C32_4 1_555 1_555
Zr4 O18_5 1_555 1_555
O17_3 Zr9_3 1_555 1_555
Zr1_4 O17_3 1_555 1_555
O2_5 Zr1_4 1_555 1_555
O3_4 Zr1_4 1_555 1_555
O4_4 Zr1_4 1_555 1_555
Zr9_3 O2_5 1_555 1_555
H1_5 O17_3 1_555 1_555
C1_4 O3_4 1_555 1_555
O5_4 Zr9_3 1_555 1_555
C2_4 C1_4 1_555 1_555
C4_4 C2_4 1_555 1_555
H3_4 C4_4 1_555 1_555
O6_4 C9_4 1_555 1_555
C9_4 O7_4 1_555 1_555
O7_4 Zr12_3 1_555 1_555
C10_4 C9_4 1_555 1_555
C12_4 C10_4 1_555 1_555
H7_4 C12_4 1_555 1_555
O14_5 Zr1_4 1_555 1_555
H18_5 O14_5 1_555 1_555
Zr5_2 O6_4 1_555 1_555
Zr7_4 O2_5 1_555 1_555
O19_5 Zr9_3 1_555 1_555
O21_3 Zr1_4 1_555 1_555
O23_4 Zr1_4 1_555 1_555
Zr11 O14_5 1_555 1_555
O25_4 Zr9_3 1_555 1_555
O27_4 Zr9_3 1_555 1_555
C1_4 O5_4 1_555 1_555
O14_5 Zr7_4 1_555 1_555
Zr7_4 O19_5 1_555 1_555
O21_3 Zr11 1_555 1_555
O18_3 Zr10 1_555 1_555
O2_6 Zr4_2 1_555 1_555
O4_5 Zr4_2 1_555 1_555
Zr10 O2_6 1_555 1_555
H1_6 O18_3 1_555 1_555
O19_4 Zr4_2 1_555 1_555
H18_6 O19_4 1_555 1_555
O15_5 Zr4_2 1_555 1_555
Zr7_3 O2_6 1_555 1_555
O23_5 Zr4_2 1_555 1_555
O27_5 Zr10 1_555 1_555
O18_4 Zr10_2 1_555 1_555
H1_7 O18_4 1_555 1_555
O25_5 Zr10_2 1_555 1_555
O18_5 Zr11 1_555 1_555
O2_7 Zr4 1_555 1_555
O4_6 Zr4 1_555 1_555
Zr11 O2_7 1_555 1_555
H1_8 O18_5 1_555 1_555
O19_5 Zr4 1_555 1_555
H18_7 O19_5 1_555 1_555
O15_6 Zr4 1_555 1_555
Zr7_4 O2_7 1_555 1_555
O23_6 Zr4 1_555 1_555
O25_6 Zr11 1_555 1_555
O27_6 Zr11 1_555 1_555
O18 Zr12 1_555 1_555
O2_8 Zr5 1_555 1_555
O4_7 Zr5 1_555 1_555
Zr12 O2_8 1_555 1_555
H1_9 O18 1_555 1_555
O19 Zr5 1_555 1_555
H18_8 O19 1_555 1_555
Zr7 O2_8 1_555 1_555
O23_7 Zr5 1_555 1_555
O25_7 Zr12 1_555 1_555
O27_7 Zr12 1_555 1_555
Zr12_2 O2_9 1_555 1_555
H18_9 O19_2 1_555 1_555
Zr7_2 O2_9 1_555 1_555
O25_8 Zr12_2 1_555 1_555
O27_8 Zr12_2 1_555 1_555
O18_2 Zr12_3 1_555 1_555
O2_10 Zr5_2 1_555 1_555
O4_8 Zr5_2 1_555 1_555
Zr12_3 O2_10 1_555 1_555
H1_10 O18_2 1_555 1_555
O19_3 Zr5_2 1_555 1_555
H18_10 O19_3 1_555 1_555
O23_8 Zr5_2 1_555 1_555
H4_5 C5_5 1_555 1_555
O23_3 C9_5 1_555 1_555
C9_5 O25_5 1_555 1_555
C10_5 C9_5 1_555 1_555
C11_5 C10_5 1_555 1_555
C12_5 C10_5 1_555 1_555
H6_5 C11_5 1_555 1_555
H7_5 C12_5 1_555 1_555
C14_5 C12_5 1_555 1_555
H9_5 C14_5 1_555 1_555
N2_6 C16_5 1_555 1_555
O8_3 C17_5 1_555 1_555
C17_5 O27_5 1_555 1_555
C18_5 C17_5 1_555 1_555
C19_5 C18_5 1_555 1_555
C20_5 C18_5 1_555 1_555
H10_5 C19_5 1_555 1_555
H11_5 C20_5 1_555 1_555
C22_5 C20_5 1_555 1_555
H13_5 C22_5 1_555 1_555
C24_5 N2_6 1_555 1_555
H16_5 C29_5 1_555 1_555
Zr7_3 O8_3 1_555 1_555
C14_5 C15_5 1_555 1_555
C15_5 C16_5 1_555 1_555
C22_5 C23_5 1_555 1_555
C23_5 C24_5 1_555 1_555
C1_5 O23_8 1_555 1_555
C2_5 C1_5 1_555 1_555
C3_5 C2_5 1_555 1_555
C4_5 C2_5 1_555 1_555
H2_5 C3_5 1_555 1_555
H3_5 C4_5 1_555 1_555
C6_5 C4_5 1_555 1_555
H5_5 C6_5 1_555 1_555
C8_5 C7_5 1_555 1_555
N1_6 C8_5 1_555 1_555
H8_5 C13_5 1_555 1_555
H12_5 C21_5 1_555 1_555
O10_5 C25_5 1_555 1_555
C25_5 O27_2 1_555 1_555
C26_5 C25_5 1_555 1_555
C27_5 C26_5 1_555 1_555
C28_5 C26_5 1_555 1_555
H14_5 C27_5 1_555 1_555
H15_5 C28_5 1_555 1_555
C30_5 C28_5 1_555 1_555
H17_5 C30_5 1_555 1_555
C32_5 N1_6 1_555 1_555
Zr7_2 O10_5 1_555 1_555
O16_5 Zr7_2 1_555 1_555
O24_3 Zr7_2 1_555 1_555
C1_5 O25_2 1_555 1_555
C6_5 C7_5 1_555 1_555
C30_5 C31_5 1_555 1_555
C31_5 C32_5 1_555 1_555
O10_6 C25_6 1_555 1_555
C25_6 O27 1_555 1_555
C26_6 C25_6 1_555 1_555
C27_6 C26_6 1_555 1_555
C28_6 C26_6 1_555 1_555
H14_6 C27_6 1_555 1_555
H15_6 C28_6 1_555 1_555
C30_6 C28_6 1_555 1_555
H17_6 C30_6 1_555 1_555
C32_6 N1_7 1_555 1_555
Zr7 O10_6 1_555 1_555
O16_6 Zr7 1_555 1_555
O24_4 Zr7 1_555 1_555
C30_6 C31_6 1_555 1_555
C31_6 C32_6 1_555 1_555
H12_6 C21_6 1_555 1_555
H16_6 C29_6 1_555 1_555
O8_4 C17_6 1_555 1_555
C17_6 O27_6 1_555 1_555
C18_6 C17_6 1_555 1_555
C19_6 C18_6 1_555 1_555
C20_6 C18_6 1_555 1_555
H10_6 C19_6 1_555 1_555
H11_6 C20_6 1_555 1_555
C22_6 C20_6 1_555 1_555
H13_6 C22_6 1_555 1_555
C24_6 N2_7 1_555 1_555
Zr7_4 O8_4 1_555 1_555
C22_6 C23_6 1_555 1_555
C23_6 C24_6 1_555 1_555
C1_6 O23_7 1_555 1_555
C2_6 C1_6 1_555 1_555
C3_6 C2_6 1_555 1_555
C4_6 C2_6 1_555 1_555
H2_6 C3_6 1_555 1_555
H3_6 C4_6 1_555 1_555
C6_6 C4_6 1_555 1_555
H5_6 C6_6 1_555 1_555
C8_6 C7_6 1_555 1_555
N1_8 C8_6 1_555 1_555
C1_6 O25 1_555 1_555
C6_6 C7_6 1_555 1_555
H8_6 C13_6 1_555 1_555
H4_6 C5_6 1_555 1_555
O23_4 C9_6 1_555 1_555
C9_6 O25_6 1_555 1_555
C10_6 C9_6 1_555 1_555
C11_6 C10_6 1_555 1_555
C12_6 C10_6 1_555 1_555
H6_6 C11_6 1_555 1_555
H7_6 C12_6 1_555 1_555
C14_6 C12_6 1_555 1_555
H9_6 C14_6 1_555 1_555
N2_8 C16_6 1_555 1_555
C14_6 C15_6 1_555 1_555
C15_6 C16_6 1_555 1_555
C1_7 O23_6 1_555 1_555
C2_7 C1_7 1_555 1_555
C3_7 C2_7 1_555 1_555
C4_7 C2_7 1_555 1_555
C5_7 C3_7 1_555 1_555
H2_7 C3_7 1_555 1_555
H3_7 C4_7 1_555 1_555
C6_7 C4_7 1_555 1_555
C7_7 C5_7 1_555 1_555
H4_7 C5_7 1_555 1_555
H5_7 C6_7 1_555 1_555
C8_7 C7_7 1_555 1_555
N1_9 C8_7 1_555 1_555
O23_2 C9_7 1_555 1_555
C9_7 O25_8 1_555 1_555
C10_7 C9_7 1_555 1_555
C11_7 C10_7 1_555 1_555
C12_7 C10_7 1_555 1_555
C13_7 C11_7 1_555 1_555
H6_7 C11_7 1_555 1_555
H7_7 C12_7 1_555 1_555
C14_7 C12_7 1_555 1_555
C15_7 C13_7 1_555 1_555
H8_7 C13_7 1_555 1_555
H9_7 C14_7 1_555 1_555
C16_7 C8_7 1_555 1_555
N2_9 C16_7 1_555 1_555
C21_7 C19_7 1_555 1_555
H10_7 C19_7 1_555 1_555
C23_7 C21_7 1_555 1_555
H12_7 C21_7 1_555 1_555
H13_7 C22_7 1_555 1_555
C24_7 N2_9 1_555 1_555
C29_7 C27_7 1_555 1_555
H14_7 C27_7 1_555 1_555
C31_7 C29_7 1_555 1_555
H16_7 C29_7 1_555 1_555
H17_7 C30_7 1_555 1_555
C32_7 N1_9 1_555 1_555
C1_7 O25_4 1_555 1_555
C6_7 C7_7 1_555 1_555
C14_7 C15_7 1_555 1_555
C15_7 C16_7 1_555 1_555
C22_7 C23_7 1_555 1_555
C23_7 C24_7 1_555 1_555
C24_7 C32_7 1_555 1_555
C30_7 C31_7 1_555 1_555
C31_7 C32_7 1_555 1_555
O24_3 C17_7 1_555 1_555
C17_7 O27_8 1_555 1_555
C18_7 C17_7 1_555 1_555
C20_7 C18_7 1_555 1_555
H11_7 C20_7 1_555 1_555
O10_7 C25_7 1_555 1_555
C25_7 O27_4 1_555 1_555
C26_7 C25_7 1_555 1_555
C28_7 C26_7 1_555 1_555
H15_7 C28_7 1_555 1_555
Zr7_4 O10_7 1_555 1_555
O13_7 Zr7_4 1_555 1_555
O24_4 C17_8 1_555 1_555
C17_8 O27_7 1_555 1_555
C18_8 C17_8 1_555 1_555
C20_8 C18_8 1_555 1_555
H11_8 C20_8 1_555 1_555
O10_8 C25_8 1_555 1_555
C25_8 O27_3 1_555 1_555
C26_8 C25_8 1_555 1_555
C28_8 C26_8 1_555 1_555
H15_8 C28_8 1_555 1_555
Zr7_3 O10_8 1_555 1_555
O13_8 Zr7_3 1_555 1_555
C1_8 O23_5 1_555 1_555
C2_8 C1_8 1_555 1_555
C3_8 C2_8 1_555 1_555
C4_8 C2_8 1_555 1_555
C5_8 C3_8 1_555 1_555
H2_8 C3_8 1_555 1_555
H3_8 C4_8 1_555 1_555
C6_8 C4_8 1_555 1_555
C7_8 C5_8 1_555 1_555
H4_8 C5_8 1_555 1_555
H5_8 C6_8 1_555 1_555
C8_8 C7_8 1_555 1_555
N1_10 C8_8 1_555 1_555
O23 C9_8 1_555 1_555
C9_8 O25_7 1_555 1_555
C10_8 C9_8 1_555 1_555
C11_8 C10_8 1_555 1_555
C12_8 C10_8 1_555 1_555
C13_8 C11_8 1_555 1_555
H6_8 C11_8 1_555 1_555
H7_8 C12_8 1_555 1_555
C14_8 C12_8 1_555 1_555
C15_8 C13_8 1_555 1_555
H8_8 C13_8 1_555 1_555
H9_8 C14_8 1_555 1_555
C16_8 C8_8 1_555 1_555
N2_10 C16_8 1_555 1_555
C21_8 C19_8 1_555 1_555
H10_8 C19_8 1_555 1_555
C23_8 C21_8 1_555 1_555
H12_8 C21_8 1_555 1_555
H13_8 C22_8 1_555 1_555
C24_8 N2_10 1_555 1_555
C29_8 C27_8 1_555 1_555
H14_8 C27_8 1_555 1_555
C31_8 C29_8 1_555 1_555
H16_8 C29_8 1_555 1_555
H17_8 C30_8 1_555 1_555
C32_8 N1_10 1_555 1_555
C1_8 O25_3 1_555 1_555
C6_8 C7_8 1_555 1_555
C14_8 C15_8 1_555 1_555
C15_8 C16_8 1_555 1_555
C22_8 C23_8 1_555 1_555
C23_8 C24_8 1_555 1_555
C24_8 C32_8 1_555 1_555
C30_8 C31_8 1_555 1_555
C31_8 C32_8 1_555 1_555

#END
