
###############################################################################
#
# This file contains modified crystal structure data generated from the
# MOF subset of the Cambridge Structural Database (CSD) v543 
# hosted by the Cambridge Crystallographic Data Centre (CCDC).
#
# This work is licensed under the Creative Commons
# Attribution-NonCommercial-ShareAlike 4.0 International License.
# To view a copy of this license, visit
# http://creativecommons.org/licenses/by-nc-sa/4.0/
# or send a letter to
# Creative Commons, PO Box 1866, Mountain View, CA 94042, USA.
#
# CIF created using the CSD Python API on 29 September 2022
# The structure has been converted into the P1 space group
# The structure has a 3D framework
# The original CSD entry ROFREL is in the monoclinic crystal system
# The framework has been calculated to contain at least 10.0% void space
# The void calculation uses a probe of radius 1.32A, grid spacing 0.4
#
###############################################################################

data_ROFREL
_chemical_formula_moiety         '(C96 H52 Bi8 O56)n'
_symmetry_cell_setting           triclinic
_symmetry_space_group_name_H-M   'P 1'
_symmetry_Int_Tables_number      1
_space_group_name_Hall           'P 1'
loop_
_symmetry_equiv_pos_site_id
_symmetry_equiv_pos_as_xyz
1 x,y,z
_cell_length_a                   19.567(6)
_cell_length_b                   9.869(3)
_cell_length_c                   22.135(6)
_cell_angle_alpha                90
_cell_angle_beta                 104.807(7)
_cell_angle_gamma                90
_cell_volume                     4132.47
loop_
_atom_site_label
_atom_site_type_symbol
_atom_site_fract_x
_atom_site_fract_y
_atom_site_fract_z
Bi7 Bi 0.16774(3) 0.04809(7) 0.06752(3)
O17 O 0.2859(5) 0.9551(11) 0.7858(5)
O18 O 0.2091(5) 0.9495(12) 0.6932(5)
C28 C 0.1633(8) 0.9879(18) 0.7796(9)
C29 C 0.2230(7) 0.9615(19) 0.7508(8)
C30 C 0.0950(7) 0.9820(18) 0.7443(9)
H15 H 0.0858 0.9640 0.7008
Bi8 Bi 0.16774(3) 0.95191(7) 0.56752(3)
Bi13 Bi 0.34396(3) 0.95108(7) 0.70743(3)
Bi2 Bi 0.34396(3) 0.04892(7) 0.20743(3)
O14 O 0.4456(7) 0.0628(19) 0.1573(8)
H3 H 0.4308 0.0856 0.1159
Bi4 Bi 0.65604(3) 0.04892(7) 0.29257(3)
O28 O 0.5544(7) 0.0628(19) 0.3427(8)
H19 H 0.5692 0.0856 0.3841
Bi5 Bi 0.83226(3) 0.04809(7) 0.43248(3)
O29 O 0.3245(5) 0.2937(10) 0.2307(6)
O30 O 0.6755(5) 0.2937(10) 0.2693(6)
O31 O 0.4223(5) 0.1873(10) 0.2783(6)
O32 O 0.5777(5) 0.1873(10) 0.2217(6)
O33 O 0.7252(5) 0.1932(10) 0.4054(6)
O34 O 0.2748(5) 0.1932(10) 0.0946(6)
O41 O 0.2859(5) 0.0449(11) 0.2858(5)
O42 O 0.7141(5) 0.0449(11) 0.2142(5)
O44 O 0.2091(5) 0.0505(12) 0.1932(5)
O46 O 0.7909(5) 0.0505(12) 0.3068(5)
O1 O 0.4221(5) 0.9081(10) 0.2746(6)
O2 O 0.3224(5) 0.7983(10) 0.2300(6)
O6 O 0.8235(6) 0.2937(10) 0.4547(6)
O7 O 0.7213(5) 0.9103(10) 0.4055(6)
O8 O 0.8170(5) 0.8019(10) 0.4536(7)
O9 O 0.8008(5) 0.0531(12) 0.5248(6)
O10 O 0.9161(5) 0.0457(13) 0.5340(6)
H4 H 0.4685 0.9816 0.1595
C1 C 0.3849(8) 0.7959(15) 0.2665(9)
C2 C 0.4199(8) 0.6674(15) 0.2904(9)
C3 C 0.3851(7) 0.5470(16) 0.2751(8)
H5 H 0.3369 0.5463 0.2522
C4 C 0.4213(8) 0.4231(14) 0.2934(9)
C5 C 0.3852(8) 0.2990(15) 0.2664(9)
C6 C 0.4893(8) 0.4275(15) 0.3298(9)
H6 H 0.5122 0.3442 0.3438
C7 C 0.5262(8) 0.5450(16) 0.3473(8)
C8 C 0.6055(7) 0.5458(16) 0.3804(9)
C9 C 0.6451(8) 0.4274(15) 0.3896(9)
H7 H 0.6227 0.3435 0.3756
C10 C 0.7146(8) 0.4295(15) 0.4180(9)
C11 C 0.7568(8) 0.2986(16) 0.4279(10)
C12 C 0.7514(7) 0.5536(16) 0.4327(8)
H8 H 0.8009 0.5541 0.4510
C13 C 0.7151(8) 0.6716(16) 0.4202(9)
C14 C 0.7506(8) 0.8017(15) 0.4239(10)
C15 C 0.6398(8) 0.6735(15) 0.3948(9)
H9 H 0.6140 0.7561 0.3879
C16 C 0.4879(8) 0.6699(15) 0.3273(9)
H10 H 0.5102 0.7545 0.3399
C17 C 0.8638(7) 0.044(2) 0.5589(9)
C18 C 0.8777(8) 0.0225(19) 0.6270(9)
C19 C 0.8231(8) 0.0051(17) 0.6575(9)
H11 H 0.7754 0.0055 0.6333
C23 C 0.9614(8) 0.0020(19) 0.7292(8)
C24 C 0.9471(8) 0.0235(18) 0.6657(8)
H13 H 0.9853 0.0394 0.6474
O19 O 0.5779(5) 0.9081(10) 0.2254(6)
O20 O 0.6776(5) 0.7983(10) 0.2700(6)
O24 O 0.1765(6) 0.2937(10) 0.0453(6)
O25 O 0.2787(5) 0.9103(10) 0.0945(6)
O26 O 0.1830(5) 0.8019(10) 0.0464(7)
H20 H 0.5315 0.9816 0.3405
C33 C 0.6151(8) 0.7959(15) 0.2335(9)
C34 C 0.5801(8) 0.6674(15) 0.2096(9)
C35 C 0.6149(7) 0.5470(16) 0.2249(8)
H21 H 0.6631 0.5463 0.2478
C36 C 0.5787(8) 0.4231(14) 0.2066(9)
C37 C 0.6148(8) 0.2990(15) 0.2336(9)
C38 C 0.5107(8) 0.4275(15) 0.1702(9)
H22 H 0.4878 0.3442 0.1562
C39 C 0.4738(8) 0.5450(16) 0.1527(8)
C40 C 0.3945(7) 0.5458(16) 0.1196(9)
C41 C 0.3549(8) 0.4274(15) 0.1104(9)
H23 H 0.3773 0.3435 0.1244
C42 C 0.2854(8) 0.4295(15) 0.0820(9)
C43 C 0.2432(8) 0.2986(16) 0.0721(10)
C44 C 0.2486(7) 0.5536(16) 0.0673(8)
H24 H 0.1991 0.5541 0.0490
C45 C 0.2849(8) 0.6716(16) 0.0798(9)
C46 C 0.2494(8) 0.8017(15) 0.0761(10)
C47 C 0.3602(8) 0.6735(15) 0.1052(9)
H25 H 0.3860 0.7561 0.1121
C48 C 0.5121(8) 0.6699(15) 0.1727(9)
H26 H 0.4898 0.7545 0.1601
O11 O 0.7141(5) 0.9551(11) 0.7142(5)
O12 O 0.7909(5) 0.9495(12) 0.8068(5)
O13 O 0.9325(7) 0.8946(13) 0.4153(7)
H1 H 0.9244 0.8564 0.3723
H2 H 0.9434 0.8111 0.4426
C20 C 0.8367(8) 0.9879(18) 0.7204(9)
C21 C 0.7770(7) 0.9615(19) 0.7492(8)
C22 C 0.9050(7) 0.9820(18) 0.7557(9)
H12 H 0.9142 0.9640 0.7992
O27 O 0.0675(7) 0.8946(13) 0.0847(7)
H17 H 0.0756 0.8564 0.1277
H18 H 0.0566 0.8111 0.0574
Bi9 Bi 0.83226(3) 0.95191(7) 0.93248(3)
Bi12 Bi 0.65604(3) 0.95108(7) 0.79257(3)
O13_2 O 0.0675(7) 0.1054(13) 0.5847(7)
H1_2 H 0.0756 0.1436 0.6277
H2_2 H 0.0566 0.1889 0.5574
C20_2 C 0.1633(8) 0.0121(18) 0.2796(9)
C21_2 C 0.2230(7) 0.0385(19) 0.2508(8)
C22_2 C 0.0950(7) 0.0180(18) 0.2443(9)
H12_2 H 0.0858 0.0360 0.2008
O27_2 O 0.9325(7) 0.1054(13) 0.9153(7)
H17_2 H 0.9244 0.1436 0.8723
H18_2 H 0.9434 0.1889 0.9426
O35 O 0.2787(5) 0.0897(10) 0.5945(6)
O36 O 0.7213(5) 0.0897(10) 0.9055(6)
O37 O 0.1830(5) 0.1981(10) 0.5464(7)
O38 O 0.8170(5) 0.1981(10) 0.9536(7)
O1_2 O 0.5779(5) 0.0919(10) 0.7254(6)
O2_2 O 0.6776(5) 0.2017(10) 0.7700(6)
O3 O 0.6755(5) 0.7063(10) 0.7693(6)
O4 O 0.5777(5) 0.8127(10) 0.7217(6)
O5 O 0.2748(5) 0.8068(10) 0.5946(6)
O6_2 O 0.1765(6) 0.7063(10) 0.5453(6)
O9_2 O 0.1992(5) 0.9469(12) 0.4752(6)
O10_2 O 0.0839(5) 0.9543(13) 0.4660(6)
H4_2 H 0.5315 0.0184 0.8405
C1_2 C 0.6151(8) 0.2041(15) 0.7335(9)
C2_2 C 0.5801(8) 0.3326(15) 0.7096(9)
C3_2 C 0.6149(7) 0.4530(16) 0.7249(8)
H5_2 H 0.6631 0.4537 0.7478
C4_2 C 0.5787(8) 0.5769(14) 0.7066(9)
C5_2 C 0.6148(8) 0.7010(15) 0.7336(9)
C6_2 C 0.5107(8) 0.5725(15) 0.6702(9)
H6_2 H 0.4878 0.6558 0.6562
C7_2 C 0.4738(8) 0.4550(16) 0.6527(8)
C8_2 C 0.3945(7) 0.4542(16) 0.6196(9)
C9_2 C 0.3549(8) 0.5726(15) 0.6104(9)
H7_2 H 0.3773 0.6565 0.6244
C10_2 C 0.2854(8) 0.5705(15) 0.5820(9)
C11_2 C 0.2432(8) 0.7014(16) 0.5721(10)
C12_2 C 0.2486(7) 0.4464(16) 0.5673(8)
H8_2 H 0.1991 0.4459 0.5490
C13_2 C 0.2849(8) 0.3284(16) 0.5798(9)
C14_2 C 0.2494(8) 0.1983(15) 0.5761(10)
C15_2 C 0.3602(8) 0.3265(15) 0.6052(9)
H9_2 H 0.3860 0.2439 0.6121
C16_2 C 0.5121(8) 0.3301(15) 0.6727(9)
H10_2 H 0.4898 0.2455 0.6601
C17_2 C 0.1362(7) 0.956(2) 0.4411(9)
C18_2 C 0.1223(8) 0.9775(19) 0.3730(9)
C19_2 C 0.1769(8) 0.9949(17) 0.3425(9)
H11_2 H 0.2246 0.9945 0.3667
C23_2 C 0.0386(8) 0.9980(19) 0.2708(8)
C24_2 C 0.0529(8) 0.9765(18) 0.3343(8)
H13_2 H 0.0147 0.9606 0.3526
O19_2 O 0.4221(5) 0.0919(10) 0.7746(6)
O20_2 O 0.3224(5) 0.2017(10) 0.7300(6)
O21 O 0.3245(5) 0.7063(10) 0.7307(6)
O22 O 0.4223(5) 0.8127(10) 0.7783(6)
O23 O 0.7252(5) 0.8068(10) 0.9054(6)
O24_2 O 0.8235(6) 0.7063(10) 0.9547(6)
H20_2 H 0.4685 0.0184 0.6595
C33_2 C 0.3849(8) 0.2041(15) 0.7665(9)
C34_2 C 0.4199(8) 0.3326(15) 0.7904(9)
C35_2 C 0.3851(7) 0.4530(16) 0.7751(8)
H21_2 H 0.3369 0.4537 0.7522
C36_2 C 0.4213(8) 0.5769(14) 0.7934(9)
C37_2 C 0.3852(8) 0.7010(15) 0.7664(9)
C38_2 C 0.4893(8) 0.5725(15) 0.8298(9)
H22_2 H 0.5122 0.6558 0.8438
C39_2 C 0.5262(8) 0.4550(16) 0.8473(8)
C40_2 C 0.6055(7) 0.4542(16) 0.8804(9)
C41_2 C 0.6451(8) 0.5726(15) 0.8896(9)
H23_2 H 0.6227 0.6565 0.8756
C42_2 C 0.7146(8) 0.5705(15) 0.9180(9)
C43_2 C 0.7568(8) 0.7014(16) 0.9279(10)
C44_2 C 0.7514(7) 0.4464(16) 0.9327(8)
H24_2 H 0.8009 0.4459 0.9510
C45_2 C 0.7151(8) 0.3284(16) 0.9202(9)
C46_2 C 0.7506(8) 0.1983(15) 0.9239(10)
C47_2 C 0.6398(8) 0.3265(15) 0.8948(9)
H25_2 H 0.6140 0.2439 0.8879
C48_2 C 0.4879(8) 0.3301(15) 0.8273(9)
H26_2 H 0.5102 0.2455 0.8399
O14_2 O 0.5544(7) 0.9372(19) 0.8427(8)
H3_2 H 0.5692 0.9144 0.8841
O28_2 O 0.4456(7) 0.9372(19) 0.6573(8)
H19_2 H 0.4308 0.9144 0.6159
C28_2 C 0.8367(8) 0.0121(18) 0.2204(9)
C29_2 C 0.7770(7) 0.0385(19) 0.2492(8)
C30_2 C 0.9050(7) 0.0180(18) 0.2557(9)
H15_2 H 0.9142 0.0360 0.2992
O15 O 0.1992(5) 0.0531(12) 0.9752(6)
O16 O 0.0839(5) 0.0457(13) 0.9660(6)
C25 C 0.1362(7) 0.044(2) 0.9411(9)
C26 C 0.1223(8) 0.0225(19) 0.8730(9)
C27 C 0.1769(8) 0.0051(17) 0.8425(9)
H14 H 0.2246 0.0055 0.8667
C31 C 0.0386(8) 0.0020(19) 0.7708(8)
C32 C 0.0529(8) 0.0235(18) 0.8343(8)
H16 H 0.0147 0.0394 0.8526
O39 O 0.8008(5) 0.9469(12) 0.0248(6)
O40 O 0.9161(5) 0.9543(13) 0.0340(6)
C25_2 C 0.8638(7) 0.956(2) 0.0589(9)
C26_2 C 0.8777(8) 0.9775(19) 0.1270(9)
C27_2 C 0.8231(8) 0.9949(17) 0.1575(9)
H14_2 H 0.7754 0.9945 0.1333
C31_2 C 0.9614(8) 0.9980(19) 0.2292(8)
C32_2 C 0.9471(8) 0.9765(18) 0.1657(8)
H16_2 H 0.9853 0.9606 0.1474
loop_
_geom_bond_atom_site_label_1
_geom_bond_atom_site_label_2
_geom_bond_site_symmetry_1
_geom_bond_site_symmetry_2
O17 C29 1_555 1_555
O18 C29 1_555 1_555
C29 C28 1_555 1_555
C30 C28 1_555 1_555
H15 C30 1_555 1_555
Bi8 O18 1_555 1_555
Bi13 O17 1_555 1_555
O18 Bi13 1_555 1_555
O14 Bi2 1_555 1_555
H3 O14 1_555 1_555
O28 Bi4 1_555 1_555
H19 O28 1_555 1_555
O29 Bi2 1_555 1_555
O30 Bi4 1_555 1_555
O31 Bi2 1_555 1_555
O32 Bi4 1_555 1_555
O33 Bi4 1_555 1_555
O34 Bi2 1_555 1_555
O41 Bi2 1_555 1_555
O42 Bi4 1_555 1_555
O44 Bi2 1_555 1_555
O46 Bi4 1_555 1_555
Bi5 O33 1_555 1_555
Bi5 O46 1_555 1_555
Bi7 O34 1_555 1_555
Bi7 O44 1_555 1_555
O1 C1 1_555 1_555
O29 C5 1_555 1_555
O31 C5 1_555 1_555
O33 C11 1_555 1_555
O6 Bi5 1_555 1_555
O7 C14 1_555 1_555
O8 C14 1_555 1_555
O9 Bi5 1_555 1_555
O10 Bi5 1_555 1_555
C1 O2 1_555 1_555
C2 C1 1_555 1_555
C3 C2 1_555 1_555
H5 C3 1_555 1_555
C4 C3 1_555 1_555
C5 C4 1_555 1_555
C6 C4 1_555 1_555
H6 C6 1_555 1_555
C7 C6 1_555 1_555
C8 C7 1_555 1_555
C9 C8 1_555 1_555
H7 C9 1_555 1_555
C10 C9 1_555 1_555
C11 O6 1_555 1_555
C12 C10 1_555 1_555
H8 C12 1_555 1_555
C13 C12 1_555 1_555
C14 C13 1_555 1_555
C15 C8 1_555 1_555
H9 C15 1_555 1_555
C16 C2 1_555 1_555
H10 C16 1_555 1_555
C17 O9 1_555 1_555
C18 C17 1_555 1_555
C19 C18 1_555 1_555
H11 C19 1_555 1_555
C24 C18 1_555 1_555
H13 C24 1_555 1_555
O30 C37 1_555 1_555
O32 C37 1_555 1_555
O34 C43 1_555 1_555
O24 Bi7 1_555 1_555
O26 C46 1_555 1_555
C33 O19 1_555 1_555
C34 C33 1_555 1_555
C35 C34 1_555 1_555
H21 C35 1_555 1_555
C36 C35 1_555 1_555
C37 C36 1_555 1_555
C38 C36 1_555 1_555
H22 C38 1_555 1_555
C39 C38 1_555 1_555
C40 C39 1_555 1_555
C41 C40 1_555 1_555
H23 C41 1_555 1_555
C42 C41 1_555 1_555
C43 O24 1_555 1_555
C44 C42 1_555 1_555
H24 C44 1_555 1_555
C45 C44 1_555 1_555
C46 O25 1_555 1_555
C47 C40 1_555 1_555
H25 C47 1_555 1_555
C48 C34 1_555 1_555
H26 C48 1_555 1_555
O10 C17 1_555 1_555
C7 C16 1_555 1_555
C10 C11 1_555 1_555
C13 C15 1_555 1_555
C23 C24 1_555 1_555
O20 C33 1_555 1_555
C39 C48 1_555 1_555
C42 C43 1_555 1_555
C45 C46 1_555 1_555
C45 C47 1_555 1_555
O11 C21 1_555 1_555
O12 C21 1_555 1_555
H1 O13 1_555 1_555
H2 O13 1_555 1_555
C21 C20 1_555 1_555
C22 C20 1_555 1_555
H12 C22 1_555 1_555
H17 O27 1_555 1_555
H18 O27 1_555 1_555
Bi9 O12 1_555 1_555
Bi12 O11 1_555 1_555
O12 Bi12 1_555 1_555
O41 C21_2 1_555 1_555
O44 C21_2 1_555 1_555
H1_2 O13_2 1_555 1_555
H2_2 O13_2 1_555 1_555
C21_2 C20_2 1_555 1_555
C22_2 C20_2 1_555 1_555
H12_2 C22_2 1_555 1_555
H17_2 O27_2 1_555 1_555
H18_2 O27_2 1_555 1_555
Bi8 O5 1_555 1_555
O1_2 C1_2 1_555 1_555
O3 C5_2 1_555 1_555
O4 C5_2 1_555 1_555
O5 C11_2 1_555 1_555
O6_2 Bi8 1_555 1_555
O35 C14_2 1_555 1_555
O37 C14_2 1_555 1_555
O9_2 Bi8 1_555 1_555
O10_2 Bi8 1_555 1_555
C1_2 O2_2 1_555 1_555
C2_2 C1_2 1_555 1_555
C3_2 C2_2 1_555 1_555
H5_2 C3_2 1_555 1_555
C4_2 C3_2 1_555 1_555
C5_2 C4_2 1_555 1_555
C6_2 C4_2 1_555 1_555
H6_2 C6_2 1_555 1_555
C7_2 C6_2 1_555 1_555
C8_2 C7_2 1_555 1_555
C9_2 C8_2 1_555 1_555
H7_2 C9_2 1_555 1_555
C10_2 C9_2 1_555 1_555
C11_2 O6_2 1_555 1_555
C12_2 C10_2 1_555 1_555
H8_2 C12_2 1_555 1_555
C13_2 C12_2 1_555 1_555
C14_2 C13_2 1_555 1_555
C15_2 C8_2 1_555 1_555
H9_2 C15_2 1_555 1_555
C16_2 C2_2 1_555 1_555
H10_2 C16_2 1_555 1_555
C17_2 O9_2 1_555 1_555
C18_2 C17_2 1_555 1_555
C19_2 C18_2 1_555 1_555
H11_2 C19_2 1_555 1_555
C24_2 C18_2 1_555 1_555
H13_2 C24_2 1_555 1_555
Bi9 O23 1_555 1_555
O21 C37_2 1_555 1_555
O22 C37_2 1_555 1_555
O23 C43_2 1_555 1_555
O24_2 Bi9 1_555 1_555
O38 C46_2 1_555 1_555
C33_2 O19_2 1_555 1_555
C34_2 C33_2 1_555 1_555
C35_2 C34_2 1_555 1_555
H21_2 C35_2 1_555 1_555
C36_2 C35_2 1_555 1_555
C37_2 C36_2 1_555 1_555
C38_2 C36_2 1_555 1_555
H22_2 C38_2 1_555 1_555
C39_2 C38_2 1_555 1_555
C40_2 C39_2 1_555 1_555
C41_2 C40_2 1_555 1_555
H23_2 C41_2 1_555 1_555
C42_2 C41_2 1_555 1_555
C43_2 O24_2 1_555 1_555
C44_2 C42_2 1_555 1_555
H24_2 C44_2 1_555 1_555
C45_2 C44_2 1_555 1_555
C46_2 O36 1_555 1_555
C47_2 C40_2 1_555 1_555
H25_2 C47_2 1_555 1_555
C48_2 C34_2 1_555 1_555
H26_2 C48_2 1_555 1_555
Bi12 O3 1_555 1_555
Bi13 O5 1_555 1_555
O4 Bi12 1_555 1_555
O10_2 C17_2 1_555 1_555
C7_2 C16_2 1_555 1_555
C10_2 C11_2 1_555 1_555
C13_2 C15_2 1_555 1_555
C23_2 C24_2 1_555 1_555
O20_2 C33_2 1_555 1_555
O21 Bi13 1_555 1_555
O22 Bi13 1_555 1_555
O23 Bi12 1_555 1_555
C39_2 C48_2 1_555 1_555
C42_2 C43_2 1_555 1_555
C45_2 C46_2 1_555 1_555
C45_2 C47_2 1_555 1_555
O14_2 Bi12 1_555 1_555
H3_2 O14_2 1_555 1_555
O28_2 Bi13 1_555 1_555
H19_2 O28_2 1_555 1_555
O42 C29_2 1_555 1_555
O46 C29_2 1_555 1_555
C29_2 C28_2 1_555 1_555
C30_2 C28_2 1_555 1_555
H15_2 C30_2 1_555 1_555
O15 C25 1_555 1_555
O16 C25 1_555 1_555
C25 C26 1_555 1_555
C26 C27 1_555 1_555
C27 H14 1_555 1_555
C32 C26 1_555 1_555
H16 C32 1_555 1_555
C31 C32 1_555 1_555
O39 C25_2 1_555 1_555
O40 C25_2 1_555 1_555
C25_2 C26_2 1_555 1_555
C26_2 C27_2 1_555 1_555
C27_2 H14_2 1_555 1_555
C32_2 C26_2 1_555 1_555
H16_2 C32_2 1_555 1_555
C31_2 C32_2 1_555 1_555

#END
