
###############################################################################
#
# This file contains modified crystal structure data generated from the
# MOF subset of the Cambridge Structural Database (CSD) v543 
# hosted by the Cambridge Crystallographic Data Centre (CCDC).
#
# This work is licensed under the Creative Commons
# Attribution-NonCommercial-ShareAlike 4.0 International License.
# To view a copy of this license, visit
# http://creativecommons.org/licenses/by-nc-sa/4.0/
# or send a letter to
# Creative Commons, PO Box 1866, Mountain View, CA 94042, USA.
#
# CIF created using the CSD Python API on 29 September 2022
# The structure has been converted into the P1 space group
# The structure has a 3D framework
# The original CSD entry ROFREL01 is in the monoclinic crystal system
# The framework has been calculated to contain at least 10.0% void space
# The void calculation uses a probe of radius 1.32A, grid spacing 0.4
# H atom positions have been added when not included in the experimental data
#
###############################################################################

data_ROFREL01
_chemical_formula_moiety         '(C96 H52 Bi8 O56)n'
_symmetry_cell_setting           triclinic
_symmetry_space_group_name_H-M   'P 1'
_symmetry_Int_Tables_number      1
_space_group_name_Hall           'P 1'
loop_
_symmetry_equiv_pos_site_id
_symmetry_equiv_pos_as_xyz
1 x,y,z
_cell_length_a                   19.721(10)
_cell_length_b                   9.862(5)
_cell_length_c                   22.179(11)
_cell_angle_alpha                90
_cell_angle_beta                 105.345(6)
_cell_angle_gamma                90
_cell_volume                     4159.78
loop_
_atom_site_label
_atom_site_type_symbol
_atom_site_fract_x
_atom_site_fract_y
_atom_site_fract_z
O2 O 0.4210(6) 0.8108(10) 0.2781(5)
O3 O 0.7220(6) 0.0835(10) 0.4022(6)
O4 O 0.1965(6) 0.0516(10) 0.4740(6)
O5 O 0.0831(6) 0.0592(11) 0.4641(6)
O6 O 0.3247(6) 0.2005(10) 0.2306(5)
O7 O 0.3244(6) 0.7010(10) 0.2343(5)
O8 O 0.8226(6) 0.6981(10) 0.4540(5)
O9 O 0.7261(5) 0.8071(9) 0.4045(5)
O10 O 0.8177(6) 0.1901(10) 0.4534(6)
O11 O 0.4201(5) 0.0875(10) 0.2750(6)
O13 O 0.0629(6) 0.1042(13) 0.0831(6)
C1 C 0.3853(8) 0.1985(15) 0.2650(8)
C2 C 0.4214(8) 0.3288(14) 0.2920(8)
C3 C 0.3853(9) 0.4529(13) 0.2743(8)
H1 H 0.3374 0.4538 0.2507
C4 C 0.4218(8) 0.5732(14) 0.2925(8)
C5 C 0.3865(8) 0.7025(15) 0.2672(7)
C6 C 0.4915(8) 0.5692(13) 0.3280(8)
H2 H 0.5155 0.6525 0.3397
C7 C 0.5272(8) 0.4505(12) 0.3470(8)
C8 C 0.6037(9) 0.4455(12) 0.3762(8)
C9 C 0.6435(8) 0.5699(13) 0.3898(8)
H3 H 0.6203 0.6547 0.3805
C10 C 0.7155(9) 0.5658(13) 0.4164(8)
C11 C 0.7571(8) 0.7000(14) 0.4239(8)
C12 C 0.7556(9) 0.4435(13) 0.4290(8)
H4 H 0.8053 0.4424 0.4453
C13 C 0.7144(8) 0.3235(14) 0.4150(8)
C14 C 0.7529(8) 0.1937(15) 0.4254(8)
C15 C 0.6416(8) 0.3234(14) 0.3928(7)
H5 H 0.6168 0.2399 0.3886
C16 C 0.4903(8) 0.3301(14) 0.3259(7)
H6 H 0.5143 0.2461 0.3355
C19 C 0.1730(8) 0.0034(17) 0.3452(8)
C20 C 0.1174(8) 0.0290(16) 0.3709(8)
C21 C 0.1338(8) 0.0490(15) 0.4426(8)
C22 C 0.0517(8) 0.0376(15) 0.3338(8)
H8 H 0.0147 0.0616 0.3517
C23 C 0.0360(7) 0.0125(17) 0.2699(7)
Bi8 Bi 0.83298(3) 0.94684(5) 0.43121(3)
Bi10 Bi 0.16702(3) 0.05316(5) 0.56879(3)
Bi13 Bi 0.34278(3) 0.94898(5) 0.21018(3)
Bi16 Bi 0.65722(3) 0.94898(5) 0.28982(3)
O32 O 0.2780(6) 0.0835(10) 0.0978(6)
O44 O 0.1823(6) 0.1901(10) 0.0466(6)
H23 H 0.082715 0.188643 0.105255
H24 H 0.0315856 0.127445 0.0414284
Bi1 Bi 0.16702(3) 0.94684(5) 0.06879(3)
O1 O 0.2121(6) 0.9478(10) 0.1945(6)
O12 O 0.2824(5) 0.9557(9) 0.2860(5)
O14 O 0.0618(6) 0.8111(12) 0.0987(6)
C17 C 0.2182(8) 0.9545(15) 0.2525(8)
C18 C 0.1639(8) 0.9883(17) 0.2866(8)
H7 H 0.2192 0.9968 0.3722
C24 C 0.0917(8) 0.9778(16) 0.2445(8)
H9 H 0.0836 0.9490 0.2023
O40 O 0.1774(6) 0.6981(10) 0.0460(5)
O42 O 0.2739(5) 0.8071(9) 0.0955(5)
H25 H 0.0398581 0.870017 0.124589
H26 H 0.0259152 0.785053 0.0598657
O34 O 0.1965(6) 0.9484(10) 0.9740(6)
O36 O 0.0831(6) 0.9408(11) 0.9641(6)
O16 O 0.8035(6) 0.0516(10) 0.0260(6)
O17 O 0.9169(6) 0.0592(11) 0.0359(6)
C27 C 0.8270(8) 0.0034(17) 0.1548(8)
C28 C 0.8826(8) 0.0290(16) 0.1291(8)
C29 C 0.8662(8) 0.0490(15) 0.0574(8)
C30 C 0.9483(8) 0.0376(15) 0.1662(8)
H11 H 0.9853 0.0616 0.1483
C31 C 0.9640(7) 0.0125(17) 0.2301(7)
O19 O 0.5790(6) 0.8108(10) 0.2219(5)
O21 O 0.6753(6) 0.2005(10) 0.2694(5)
O22 O 0.6756(6) 0.7010(10) 0.2657(5)
O26 O 0.5799(5) 0.0875(10) 0.2250(6)
O27 O 0.9371(6) 0.1042(13) 0.4169(6)
C33 C 0.6147(8) 0.1985(15) 0.2350(8)
C34 C 0.5786(8) 0.3288(14) 0.2080(8)
C35 C 0.6147(9) 0.4529(13) 0.2257(8)
H13 H 0.6626 0.4538 0.2493
C36 C 0.5782(8) 0.5732(14) 0.2075(8)
C37 C 0.6135(8) 0.7025(15) 0.2328(7)
C38 C 0.5085(8) 0.5692(13) 0.1720(8)
H14 H 0.4845 0.6525 0.1603
C39 C 0.4728(8) 0.4505(12) 0.1530(8)
C40 C 0.3963(9) 0.4455(12) 0.1238(8)
C41 C 0.3565(8) 0.5699(13) 0.1102(8)
H15 H 0.3797 0.6547 0.1195
C42 C 0.2845(9) 0.5658(13) 0.0836(8)
C43 C 0.2429(8) 0.7000(14) 0.0761(8)
C44 C 0.2444(9) 0.4435(13) 0.0710(8)
H16 H 0.1947 0.4424 0.0547
C45 C 0.2856(8) 0.3235(14) 0.0850(8)
C46 C 0.2471(8) 0.1937(15) 0.0746(8)
C47 C 0.3584(8) 0.3234(14) 0.1072(7)
H17 H 0.3832 0.2399 0.1114
C48 C 0.5097(8) 0.3301(14) 0.1741(7)
H18 H 0.4857 0.2461 0.1645
H19 H 0.917285 0.188643 0.394745
H20 H 0.968414 0.127445 0.458572
Bi9 Bi 0.83298(3) 0.05316(5) 0.93121(3)
O15 O 0.7879(6) 0.9478(10) 0.3055(6)
O18 O 0.7176(5) 0.9557(9) 0.2140(5)
C25 C 0.7818(8) 0.9545(15) 0.2475(8)
C26 C 0.8361(8) 0.9883(17) 0.2134(8)
H10 H 0.7808 0.9968 0.1278
C32 C 0.9083(8) 0.9778(16) 0.2555(8)
H12 H 0.9164 0.9490 0.2977
O28 O 0.9382(6) 0.8111(12) 0.4013(6)
O33 O 0.8035(6) 0.9484(10) 0.5260(6)
O35 O 0.9169(6) 0.9408(11) 0.5359(6)
H21 H 0.960142 0.870017 0.375411
H22 H 0.974085 0.785053 0.440134
O15_2 O 0.2121(6) 0.0522(10) 0.6945(6)
O18_2 O 0.2824(5) 0.0443(9) 0.7860(5)
C25_2 C 0.2182(8) 0.0455(15) 0.7525(8)
C26_2 C 0.1639(8) 0.0117(17) 0.7866(8)
H10_2 H 0.2192 0.0032 0.8722
C32_2 C 0.0917(8) 0.0222(16) 0.7445(8)
H12_2 H 0.0836 0.0510 0.7023
Bi4 Bi 0.34278(3) 0.05102(5) 0.71018(3)
O28_2 O 0.0618(6) 0.1889(12) 0.5987(6)
Bi11 Bi 0.65722(3) 0.05102(5) 0.78982(3)
O30 O 0.4210(6) 0.1892(10) 0.7781(5)
O38 O 0.3244(6) 0.2990(10) 0.7343(5)
O39 O 0.1774(6) 0.3019(10) 0.5460(5)
O41 O 0.2739(5) 0.1929(9) 0.5955(5)
H21_2 H 0.0398581 0.129983 0.624589
H22_2 H 0.0259152 0.214947 0.559866
C27_2 C 0.1730(8) 0.9966(17) 0.8452(8)
C28_2 C 0.1174(8) 0.9710(16) 0.8709(8)
C29_2 C 0.1338(8) 0.9510(15) 0.9426(8)
C30_2 C 0.0517(8) 0.9624(15) 0.8338(8)
H11_2 H 0.0147 0.9384 0.8517
C31_2 C 0.0360(7) 0.9875(17) 0.7699(7)
O20 O 0.7220(6) 0.9165(10) 0.9022(6)
O21_2 O 0.3247(6) 0.7995(10) 0.7306(5)
O23 O 0.8226(6) 0.3019(10) 0.9540(5)
O24 O 0.7261(5) 0.1929(9) 0.9045(5)
O25 O 0.8177(6) 0.8099(10) 0.9534(6)
O26_2 O 0.4201(5) 0.9125(10) 0.7750(6)
O27_2 O 0.0629(6) 0.8958(13) 0.5831(6)
C33_2 C 0.3853(8) 0.8015(15) 0.7650(8)
C34_2 C 0.4214(8) 0.6712(14) 0.7920(8)
C35_2 C 0.3853(9) 0.5471(13) 0.7743(8)
H13_2 H 0.3374 0.5462 0.7507
C36_2 C 0.4218(8) 0.4268(14) 0.7925(8)
C37_2 C 0.3865(8) 0.2975(15) 0.7672(7)
C38_2 C 0.4915(8) 0.4308(13) 0.8280(8)
H14_2 H 0.5155 0.3475 0.8397
C39_2 C 0.5272(8) 0.5495(12) 0.8470(8)
C40_2 C 0.6037(9) 0.5545(12) 0.8762(8)
C41_2 C 0.6435(8) 0.4301(13) 0.8898(8)
H15_2 H 0.6203 0.3453 0.8805
C42_2 C 0.7155(9) 0.4342(13) 0.9164(8)
C43_2 C 0.7571(8) 0.3000(14) 0.9239(8)
C44_2 C 0.7556(9) 0.5565(13) 0.9290(8)
H16_2 H 0.8053 0.5576 0.9453
C45_2 C 0.7144(8) 0.6765(14) 0.9150(8)
C46_2 C 0.7529(8) 0.8063(15) 0.9254(8)
C47_2 C 0.6416(8) 0.6766(14) 0.8928(7)
H17_2 H 0.6168 0.7601 0.8886
C48_2 C 0.4903(8) 0.6699(14) 0.8259(7)
H18_2 H 0.5143 0.7539 0.8355
O31 O 0.2780(6) 0.9165(10) 0.5978(6)
O43 O 0.1823(6) 0.8099(10) 0.5466(6)
H19_2 H 0.082715 0.811357 0.605255
H20_2 H 0.0315856 0.872555 0.541428
O1_2 O 0.7879(6) 0.0522(10) 0.8055(6)
O12_2 O 0.7176(5) 0.0443(9) 0.7140(5)
O14_2 O 0.9382(6) 0.1889(12) 0.9013(6)
C17_2 C 0.7818(8) 0.0455(15) 0.7475(8)
C18_2 C 0.8361(8) 0.0117(17) 0.7134(8)
H7_2 H 0.7808 0.0032 0.6278
C24_2 C 0.9083(8) 0.0222(16) 0.7555(8)
H9_2 H 0.9164 0.0510 0.7977
O29 O 0.5790(6) 0.1892(10) 0.7219(5)
O37 O 0.6756(6) 0.2990(10) 0.7657(5)
H25_2 H 0.960142 0.129983 0.875411
H26_2 H 0.974085 0.214947 0.940134
O6_2 O 0.6753(6) 0.7995(10) 0.7694(5)
O11_2 O 0.5799(5) 0.9125(10) 0.7250(6)
O13_2 O 0.9371(6) 0.8958(13) 0.9169(6)
C1_2 C 0.6147(8) 0.8015(15) 0.7350(8)
C2_2 C 0.5786(8) 0.6712(14) 0.7080(8)
C3_2 C 0.6147(9) 0.5471(13) 0.7257(8)
H1_2 H 0.6626 0.5462 0.7493
C4_2 C 0.5782(8) 0.4268(14) 0.7075(8)
C5_2 C 0.6135(8) 0.2975(15) 0.7328(7)
C6_2 C 0.5085(8) 0.4308(13) 0.6720(8)
H2_2 H 0.4845 0.3475 0.6603
C7_2 C 0.4728(8) 0.5495(12) 0.6530(8)
C8_2 C 0.3963(9) 0.5545(12) 0.6238(8)
C9_2 C 0.3565(8) 0.4301(13) 0.6102(8)
H3_2 H 0.3797 0.3453 0.6195
C10_2 C 0.2845(9) 0.4342(13) 0.5836(8)
C11_2 C 0.2429(8) 0.3000(14) 0.5761(8)
C12_2 C 0.2444(9) 0.5565(13) 0.5710(8)
H4_2 H 0.1947 0.5576 0.5547
C13_2 C 0.2856(8) 0.6765(14) 0.5850(8)
C14_2 C 0.2471(8) 0.8063(15) 0.5746(8)
C15_2 C 0.3584(8) 0.6766(14) 0.6072(7)
H5_2 H 0.3832 0.7601 0.6114
C16_2 C 0.5097(8) 0.6699(14) 0.6741(7)
H6_2 H 0.4857 0.7539 0.6645
C19_2 C 0.8270(8) 0.9966(17) 0.6548(8)
C20_2 C 0.8826(8) 0.9710(16) 0.6291(8)
C21_2 C 0.8662(8) 0.9510(15) 0.5574(8)
C22_2 C 0.9483(8) 0.9624(15) 0.6662(8)
H8_2 H 0.9853 0.9384 0.6483
C23_2 C 0.9640(7) 0.9875(17) 0.7301(7)
H23_2 H 0.917285 0.811357 0.894745
H24_2 H 0.968414 0.872555 0.958572
loop_
_geom_bond_atom_site_label_1
_geom_bond_atom_site_label_2
_geom_bond_site_symmetry_1
_geom_bond_site_symmetry_2
O2 C5 1_555 1_555
O3 C14 1_555 1_555
O4 C21 1_555 1_555
O5 C21 1_555 1_555
O7 C5 1_555 1_555
O8 C11 1_555 1_555
O9 C11 1_555 1_555
O10 C14 1_555 1_555
C1 O6 1_555 1_555
C2 C1 1_555 1_555
C3 C2 1_555 1_555
H1 C3 1_555 1_555
C4 C3 1_555 1_555
C5 C4 1_555 1_555
C6 C4 1_555 1_555
H2 C6 1_555 1_555
C7 C6 1_555 1_555
C8 C7 1_555 1_555
C9 C8 1_555 1_555
H3 C9 1_555 1_555
C10 C9 1_555 1_555
C11 C10 1_555 1_555
C12 C10 1_555 1_555
H4 C12 1_555 1_555
C13 C12 1_555 1_555
C14 C13 1_555 1_555
C15 C8 1_555 1_555
H5 C15 1_555 1_555
C16 C2 1_555 1_555
H6 C16 1_555 1_555
C20 C19 1_555 1_555
C21 C20 1_555 1_555
C22 C20 1_555 1_555
H8 C22 1_555 1_555
C23 C22 1_555 1_555
Bi8 O8 1_555 1_555
Bi10 O4 1_555 1_555
Bi13 O2 1_555 1_555
Bi16 O9 1_555 1_555
O5 Bi10 1_555 1_555
O7 Bi13 1_555 1_555
O9 Bi8 1_555 1_555
O11 C1 1_555 1_555
C7 C16 1_555 1_555
C13 C15 1_555 1_555
O13 H23 1_555 1_555
O13 H24 1_555 1_555
Bi1 O1 1_555 1_555
Bi13 O1 1_555 1_555
O1 C17 1_555 1_555
O12 Bi13 1_555 1_555
O14 Bi1 1_555 1_555
C17 O12 1_555 1_555
C18 C17 1_555 1_555
C24 C18 1_555 1_555
H9 C24 1_555 1_555
O40 Bi1 1_555 1_555
O42 Bi1 1_555 1_555
Bi13 O42 1_555 1_555
O14 H25 1_555 1_555
O14 H26 1_555 1_555
O16 C29 1_555 1_555
O17 C29 1_555 1_555
C28 C27 1_555 1_555
C29 C28 1_555 1_555
C30 C28 1_555 1_555
H11 C30 1_555 1_555
O19 C37 1_555 1_555
O32 C46 1_555 1_555
O22 C37 1_555 1_555
O40 C43 1_555 1_555
O42 C43 1_555 1_555
O44 C46 1_555 1_555
C33 O21 1_555 1_555
C34 C33 1_555 1_555
C35 C34 1_555 1_555
H13 C35 1_555 1_555
C36 C35 1_555 1_555
C37 C36 1_555 1_555
C38 C36 1_555 1_555
H14 C38 1_555 1_555
C39 C38 1_555 1_555
C40 C39 1_555 1_555
C41 C40 1_555 1_555
H15 C41 1_555 1_555
C42 C41 1_555 1_555
C43 C42 1_555 1_555
C44 C42 1_555 1_555
H16 C44 1_555 1_555
C45 C44 1_555 1_555
C46 C45 1_555 1_555
C47 C40 1_555 1_555
H17 C47 1_555 1_555
C48 C34 1_555 1_555
H18 C48 1_555 1_555
Bi16 O19 1_555 1_555
C30 C31 1_555 1_555
O22 Bi16 1_555 1_555
O26 C33 1_555 1_555
C39 C48 1_555 1_555
C45 C47 1_555 1_555
O27 H19 1_555 1_555
O27 H20 1_555 1_555
O15 C25 1_555 1_555
O18 C25 1_555 1_555
C25 C26 1_555 1_555
C32 C26 1_555 1_555
H12 C32 1_555 1_555
Bi8 O15 1_555 1_555
Bi16 O15 1_555 1_555
O28 Bi8 1_555 1_555
O33 Bi8 1_555 1_555
O35 Bi8 1_555 1_555
O18 Bi16 1_555 1_555
O28 H21 1_555 1_555
O28 H22 1_555 1_555
O15_2 C25_2 1_555 1_555
O18_2 C25_2 1_555 1_555
C25_2 C26_2 1_555 1_555
C32_2 C26_2 1_555 1_555
H12_2 C32_2 1_555 1_555
Bi10 O15_2 1_555 1_555
Bi4 O15_2 1_555 1_555
O28_2 Bi10 1_555 1_555
O30 Bi4 1_555 1_555
O38 Bi4 1_555 1_555
O39 Bi10 1_555 1_555
O41 Bi10 1_555 1_555
O18_2 Bi4 1_555 1_555
Bi4 O41 1_555 1_555
O28_2 H21_2 1_555 1_555
O28_2 H22_2 1_555 1_555
O34 C29_2 1_555 1_555
O36 C29_2 1_555 1_555
C28_2 C27_2 1_555 1_555
C29_2 C28_2 1_555 1_555
C30_2 C28_2 1_555 1_555
H11_2 C30_2 1_555 1_555
O30 C37_2 1_555 1_555
O20 C46_2 1_555 1_555
O38 C37_2 1_555 1_555
O23 C43_2 1_555 1_555
O24 C43_2 1_555 1_555
O25 C46_2 1_555 1_555
C33_2 O21_2 1_555 1_555
C34_2 C33_2 1_555 1_555
C35_2 C34_2 1_555 1_555
H13_2 C35_2 1_555 1_555
C36_2 C35_2 1_555 1_555
C37_2 C36_2 1_555 1_555
C38_2 C36_2 1_555 1_555
H14_2 C38_2 1_555 1_555
C39_2 C38_2 1_555 1_555
C40_2 C39_2 1_555 1_555
C41_2 C40_2 1_555 1_555
H15_2 C41_2 1_555 1_555
C42_2 C41_2 1_555 1_555
C43_2 C42_2 1_555 1_555
C44_2 C42_2 1_555 1_555
H16_2 C44_2 1_555 1_555
C45_2 C44_2 1_555 1_555
C46_2 C45_2 1_555 1_555
C47_2 C40_2 1_555 1_555
H17_2 C47_2 1_555 1_555
C48_2 C34_2 1_555 1_555
H18_2 C48_2 1_555 1_555
Bi9 O23 1_555 1_555
Bi11 O24 1_555 1_555
C30_2 C31_2 1_555 1_555
O24 Bi9 1_555 1_555
O26_2 C33_2 1_555 1_555
C39_2 C48_2 1_555 1_555
C45_2 C47_2 1_555 1_555
O27_2 H19_2 1_555 1_555
O27_2 H20_2 1_555 1_555
Bi9 O1_2 1_555 1_555
Bi11 O1_2 1_555 1_555
O1_2 C17_2 1_555 1_555
O12_2 Bi11 1_555 1_555
O14_2 Bi9 1_555 1_555
C17_2 O12_2 1_555 1_555
C18_2 C17_2 1_555 1_555
C24_2 C18_2 1_555 1_555
H9_2 C24_2 1_555 1_555
O29 Bi11 1_555 1_555
O37 Bi11 1_555 1_555
O14_2 H25_2 1_555 1_555
O14_2 H26_2 1_555 1_555
O29 C5_2 1_555 1_555
O31 C14_2 1_555 1_555
O33 C21_2 1_555 1_555
O35 C21_2 1_555 1_555
O37 C5_2 1_555 1_555
O39 C11_2 1_555 1_555
O41 C11_2 1_555 1_555
O43 C14_2 1_555 1_555
C1_2 O6_2 1_555 1_555
C2_2 C1_2 1_555 1_555
C3_2 C2_2 1_555 1_555
H1_2 C3_2 1_555 1_555
C4_2 C3_2 1_555 1_555
C5_2 C4_2 1_555 1_555
C6_2 C4_2 1_555 1_555
H2_2 C6_2 1_555 1_555
C7_2 C6_2 1_555 1_555
C8_2 C7_2 1_555 1_555
C9_2 C8_2 1_555 1_555
H3_2 C9_2 1_555 1_555
C10_2 C9_2 1_555 1_555
C11_2 C10_2 1_555 1_555
C12_2 C10_2 1_555 1_555
H4_2 C12_2 1_555 1_555
C13_2 C12_2 1_555 1_555
C14_2 C13_2 1_555 1_555
C15_2 C8_2 1_555 1_555
H5_2 C15_2 1_555 1_555
C16_2 C2_2 1_555 1_555
H6_2 C16_2 1_555 1_555
C20_2 C19_2 1_555 1_555
C21_2 C20_2 1_555 1_555
C22_2 C20_2 1_555 1_555
H8_2 C22_2 1_555 1_555
C23_2 C22_2 1_555 1_555
O11_2 C1_2 1_555 1_555
C7_2 C16_2 1_555 1_555
C13_2 C15_2 1_555 1_555
O13_2 H23_2 1_555 1_555
O13_2 H24_2 1_555 1_555

#END
