
###############################################################################
#
# This file contains modified crystal structure data generated from the
# MOF subset of the Cambridge Structural Database (CSD) v543 
# hosted by the Cambridge Crystallographic Data Centre (CCDC).
#
# This work is licensed under the Creative Commons
# Attribution-NonCommercial-ShareAlike 4.0 International License.
# To view a copy of this license, visit
# http://creativecommons.org/licenses/by-nc-sa/4.0/
# or send a letter to
# Creative Commons, PO Box 1866, Mountain View, CA 94042, USA.
#
# CIF created using the CSD Python API on 29 September 2022
# The structure has been converted into the P1 space group
# The structure has a 3D framework
# The original CSD entry ROFYOD is in the cubic crystal system
# The framework has been calculated to contain at least 10.0% void space
# The void calculation uses a probe of radius 1.32A, grid spacing 0.4
# The framework is charged, counterions have been retained in the structure
# H atom positions have been added when not included in the experimental data
# Generated hydrogen atom positions removed from atoms on special positions
#
###############################################################################

data_ROFYOD
_chemical_formula_moiety         '(C432 H528 Cd36 N336 O48 72+)n'
_symmetry_cell_setting           triclinic
_symmetry_space_group_name_H-M   'P 1'
_symmetry_Int_Tables_number      1
_space_group_name_Hall           'P 1'
loop_
_symmetry_equiv_pos_site_id
_symmetry_equiv_pos_as_xyz
1 x,y,z
_cell_length_a                   30.375(4)
_cell_length_b                   30.375(4)
_cell_length_c                   30.375(4)
_cell_angle_alpha                90
_cell_angle_beta                 90
_cell_angle_gamma                90
_cell_volume                     28025.2
loop_
_atom_site_label
_atom_site_type_symbol
_atom_site_fract_x
_atom_site_fract_y
_atom_site_fract_z
H10 H 0.7181 0.0164 0.8409
Cd2 Cd 0.65665(11) -0.0000 0.7500
Cd1 Cd 0.5000 0.7500 0.84335(11)
N1 N 0.3953(7) 0.6905(7) 0.9254(8)
N2 N 0.4474(7) 0.7297(7) 0.8940(7)
N3 N 0.4035(9) 0.7262(9) 0.9527(8)
N4 N 0.3251(6) 0.5635(6) 0.8819(7)
N5 N 0.2939(8) 0.5318(10) 0.8844(10)
N6 N 0.3580(8) 0.6268(7) 0.9053(7)
N7 N 0.3302(9) 0.5246(8) 0.8221(8)
C1 C 0.4231(9) 0.6948(8) 0.8908(8)
H1 H 0.4245 0.6750 0.8675
C2 C 0.3312(9) 0.5932(9) 0.9152(9)
C3 C 0.3091(10) 0.5899(10) 0.9562(10)
H2 H 0.2900 0.5666 0.9618
C4 C 0.3641(9) 0.6579(9) 0.9370(9)
C5 C 0.2986(10) 0.5083(10) 0.8478(11)
H3 H 0.2819 0.4836 0.8409
C6 C 0.3441(10) 0.6573(12) 0.9773(10)
H4 H 0.3485 0.6798 0.9977
C7 C 0.4333(13) 0.7479(10) 0.9334(11)
C8 C 0.3164(12) 0.6209(12) 0.9867(11)
C9 C 0.3455(8) 0.5586(8) 0.8445(8)
H6 H 0.3680 0.5768 0.8348
H7 H 0.4407 0.7699 0.9498
O1 O 0.4471(11) 0.7337(11) 0.7853(11)
N8 N 0.6047(7) 0.8095(7) 0.9254(8)
N9 N 0.5526(7) 0.7703(7) 0.8940(7)
N10 N 0.5965(9) 0.7738(9) 0.9527(8)
N11 N 0.6749(6) 0.9365(6) 0.8819(7)
N12 N 0.7061(8) 0.9682(10) 0.8844(10)
N13 N 0.6420(8) 0.8732(7) 0.9053(7)
N14 N 0.6698(9) 0.9754(8) 0.8221(8)
C10 C 0.5769(9) 0.8052(8) 0.8908(8)
H8 H 0.5755 0.8250 0.8675
C11 C 0.6688(9) 0.9068(9) 0.9152(9)
C12 C 0.6909(10) 0.9101(10) 0.9562(10)
H9 H 0.7100 0.9334 0.9618
C13 C 0.6359(9) 0.8421(9) 0.9370(9)
C14 C 0.7014(10) 0.9917(10) 0.8478(11)
C15 C 0.6559(10) 0.8427(12) 0.9773(10)
H11 H 0.6515 0.8202 0.9977
C16 C 0.5667(13) 0.7521(10) 0.9334(11)
C17 C 0.6836(12) 0.8791(12) 0.9867(11)
C18 C 0.6545(8) 0.9414(8) 0.8445(8)
H13 H 0.6320 0.9232 0.8348
H14 H 0.5593 0.7301 0.9498
O2 O 0.5529(11) 0.7663(11) 0.7853(11)
Cd2_2 Cd 0.65665(11) 1.0000 0.7500
Cd3 Cd 0.34335(11) 0.5000 0.7500
N15 N 0.5246(8) 0.6779(8) 0.8302(9)
N16 N 0.4754(8) 0.8221(8) 0.8302(9)
Cd1_2 Cd -0.0000 0.2500 0.34335(11)
N1_2 N 0.1047(7) 0.3095(7) 0.4254(8)
N2_2 N 0.0526(7) 0.2703(7) 0.3940(7)
N3_2 N 0.0965(9) 0.2738(9) 0.4527(8)
N4_2 N 0.1749(6) 0.4365(6) 0.3819(7)
N5_2 N 0.2061(8) 0.4682(10) 0.3844(10)
N6_2 N 0.1420(8) 0.3732(7) 0.4053(7)
N7_2 N 0.1698(9) 0.4754(8) 0.3221(8)
C1_2 C 0.0769(9) 0.3052(8) 0.3908(8)
H1_2 H 0.0755 0.3250 0.3675
C2_2 C 0.1688(9) 0.4068(9) 0.4152(9)
C3_2 C 0.1909(10) 0.4101(10) 0.4562(10)
H2_2 H 0.2100 0.4334 0.4618
C4_2 C 0.1359(9) 0.3421(9) 0.4370(9)
C5_2 C 0.2014(10) 0.4917(10) 0.3478(11)
H3_2 H 0.2181 0.5164 0.3409
C6_2 C 0.1559(10) 0.3427(12) 0.4773(10)
H4_2 H 0.1515 0.3202 0.4977
C7_2 C 0.0667(13) 0.2521(10) 0.4334(11)
C8_2 C 0.1836(12) 0.3791(12) 0.4867(11)
H5 H 0.1968 0.3815 0.5142
C9_2 C 0.1545(8) 0.4414(8) 0.3445(8)
H6_2 H 0.1320 0.4232 0.3348
H7_2 H 0.0593 0.2301 0.4498
O1_2 O 0.0529(11) 0.2663(11) 0.2853(11)
Cd3_2 Cd 0.15665(11) 0.5000 0.2500
N16_2 N 0.0246(8) 0.1779(8) 0.3302(9)
Cd1_3 Cd 1.0000 0.2500 0.34335(11)
N8_2 N 0.8953(7) 0.1905(7) 0.4254(8)
N9_2 N 0.9474(7) 0.2297(7) 0.3940(7)
N10_2 N 0.9035(9) 0.2262(9) 0.4527(8)
N11_2 N 0.8251(6) 0.0635(6) 0.3819(7)
N12_2 N 0.7939(8) 0.0318(10) 0.3844(10)
N13_2 N 0.8580(8) 0.1268(7) 0.4053(7)
N14_2 N 0.8302(9) 0.0246(8) 0.3221(8)
C10_2 C 0.9231(9) 0.1948(8) 0.3908(8)
H8_2 H 0.9245 0.1750 0.3675
C11_2 C 0.8312(9) 0.0932(9) 0.4152(9)
C12_2 C 0.8091(10) 0.0899(10) 0.4562(10)
H9_2 H 0.7900 0.0666 0.4618
C13_2 C 0.8641(9) 0.1579(9) 0.4370(9)
C14_2 C 0.7986(10) 0.0083(10) 0.3478(11)
C15_2 C 0.8441(10) 0.1573(12) 0.4773(10)
H11_2 H 0.8485 0.1798 0.4977
C16_2 C 0.9333(13) 0.2479(10) 0.4334(11)
C17_2 C 0.8164(12) 0.1209(12) 0.4867(11)
H12 H 0.8032 0.1185 0.5142
C18_2 C 0.8455(8) 0.0586(8) 0.3445(8)
H13_2 H 0.8680 0.0768 0.3348
H14_2 H 0.9407 0.2699 0.4498
O2_2 O 0.9471(11) 0.2337(11) 0.2853(11)
Cd2_3 Cd 0.84335(11) 0.0000 0.2500
N15_2 N 0.9754(8) 0.3221(8) 0.3302(9)
H10_2 H 0.7819 0.9836 0.3409
Cd2_4 Cd 0.84335(11) 1.0000 0.2500
Cd1_4 Cd 0.5000 0.2500 0.65665(11)
N1_3 N 0.6047(7) 0.1905(7) 0.5746(8)
N2_3 N 0.5526(7) 0.2297(7) 0.6060(7)
N3_3 N 0.5965(9) 0.2262(9) 0.5473(8)
N4_3 N 0.6749(6) 0.0635(6) 0.6181(7)
N5_3 N 0.7061(8) 0.0318(10) 0.6156(10)
N6_3 N 0.6420(8) 0.1268(7) 0.5947(7)
N7_3 N 0.6698(9) 0.0246(8) 0.6779(8)
C1_3 C 0.5769(9) 0.1948(8) 0.6092(8)
H1_3 H 0.5755 0.1750 0.6325
C2_3 C 0.6688(9) 0.0932(9) 0.5848(9)
C3_3 C 0.6909(10) 0.0899(10) 0.5438(10)
H2_3 H 0.7100 0.0666 0.5382
C4_3 C 0.6359(9) 0.1579(9) 0.5630(9)
C5_3 C 0.7014(10) 0.0083(10) 0.6522(11)
C6_3 C 0.6559(10) 0.1573(12) 0.5227(10)
H4_3 H 0.6515 0.1798 0.5023
C7_3 C 0.5667(13) 0.2479(10) 0.5666(11)
C8_3 C 0.6836(12) 0.1209(12) 0.5133(11)
H5_2 H 0.6968 0.1185 0.4858
C9_3 C 0.6545(8) 0.0586(8) 0.6555(8)
H6_3 H 0.6320 0.0768 0.6652
H7_3 H 0.5593 0.2699 0.5502
O1_3 O 0.5529(11) 0.2337(11) 0.7147(11)
N8_3 N 0.3953(7) 0.3095(7) 0.5746(8)
N9_3 N 0.4474(7) 0.2703(7) 0.6060(7)
N10_3 N 0.4035(9) 0.2738(9) 0.5473(8)
N11_3 N 0.3251(6) 0.4365(6) 0.6181(7)
N12_3 N 0.2939(8) 0.4682(10) 0.6156(10)
N13_3 N 0.3580(8) 0.3732(7) 0.5947(7)
N14_3 N 0.3302(9) 0.4754(8) 0.6779(8)
C10_3 C 0.4231(9) 0.3052(8) 0.6092(8)
H8_3 H 0.4245 0.3250 0.6325
C11_3 C 0.3312(9) 0.4068(9) 0.5848(9)
C12_3 C 0.3091(10) 0.4101(10) 0.5438(10)
H9_3 H 0.2900 0.4334 0.5382
C13_3 C 0.3641(9) 0.3421(9) 0.5630(9)
C14_3 C 0.2986(10) 0.4917(10) 0.6522(11)
H10_3 H 0.2819 0.5164 0.6591
C15_3 C 0.3441(10) 0.3427(12) 0.5227(10)
H11_3 H 0.3485 0.3202 0.5023
C16_3 C 0.4333(13) 0.2521(10) 0.5666(11)
C17_3 C 0.3164(12) 0.3791(12) 0.5133(11)
H12_2 H 0.3032 0.3815 0.4858
C18_3 C 0.3455(8) 0.4414(8) 0.6555(8)
H13_3 H 0.3680 0.4232 0.6652
H14_3 H 0.4407 0.2301 0.5502
O2_3 O 0.4471(11) 0.2663(11) 0.7147(11)
N15_3 N 0.4754(8) 0.1779(8) 0.6698(9)
N16_3 N 0.5246(8) 0.3221(8) 0.6698(9)
H3_3 H 0.7181 0.9836 0.6591
Cd1_5 Cd 0.0000 0.7500 0.15665(11)
N8_4 N 0.1047(7) 0.6905(7) 0.0746(8)
N9_4 N 0.0526(7) 0.7297(7) 0.1060(7)
N10_4 N 0.0965(9) 0.7262(9) 0.0473(8)
N11_4 N 0.1749(6) 0.5635(6) 0.1181(7)
N12_4 N 0.2061(8) 0.5318(10) 0.1156(10)
N13_4 N 0.1420(8) 0.6268(7) 0.0947(7)
N14_4 N 0.1698(9) 0.5246(8) 0.1779(8)
C10_4 C 0.0769(9) 0.6948(8) 0.1092(8)
H8_4 H 0.0755 0.6750 0.1325
C11_4 C 0.1688(9) 0.5932(9) 0.0848(9)
C12_4 C 0.1909(10) 0.5899(10) 0.0438(10)
H9_4 H 0.2100 0.5666 0.0382
C13_4 C 0.1359(9) 0.6579(9) 0.0630(9)
C14_4 C 0.2014(10) 0.5083(10) 0.1522(11)
H10_4 H 0.2181 0.4836 0.1591
C15_4 C 0.1559(10) 0.6573(12) 0.0227(10)
H11_4 H 0.1515 0.6798 0.0023
C16_4 C 0.0667(13) 0.7479(10) 0.0666(11)
C17_4 C 0.1836(12) 0.6209(12) 0.0133(11)
C18_4 C 0.1545(8) 0.5586(8) 0.1555(8)
H13_4 H 0.1320 0.5768 0.1652
H14_4 H 0.0593 0.7699 0.0502
O2_4 O 0.0529(11) 0.7337(11) 0.2147(11)
N15_4 N 0.0246(8) 0.8221(8) 0.1698(9)
H3_4 H 0.7819 0.0164 0.1591
Cd1_6 Cd 1.0000 0.7500 0.15665(11)
N1_4 N 0.8953(7) 0.8095(7) 0.0746(8)
N2_4 N 0.9474(7) 0.7703(7) 0.1060(7)
N3_4 N 0.9035(9) 0.7738(9) 0.0473(8)
N4_4 N 0.8251(6) 0.9365(6) 0.1181(7)
N5_4 N 0.7939(8) 0.9682(10) 0.1156(10)
N6_4 N 0.8580(8) 0.8732(7) 0.0947(7)
N7_4 N 0.8302(9) 0.9754(8) 0.1779(8)
C1_4 C 0.9231(9) 0.8052(8) 0.1092(8)
H1_4 H 0.9245 0.8250 0.1325
C2_4 C 0.8312(9) 0.9068(9) 0.0848(9)
C3_4 C 0.8091(10) 0.9101(10) 0.0438(10)
H2_4 H 0.7900 0.9334 0.0382
C4_4 C 0.8641(9) 0.8421(9) 0.0630(9)
C5_4 C 0.7986(10) 0.9917(10) 0.1522(11)
C6_4 C 0.8441(10) 0.8427(12) 0.0227(10)
H4_4 H 0.8485 0.8202 0.0023
C7_4 C 0.9333(13) 0.7521(10) 0.0666(11)
C8_4 C 0.8164(12) 0.8791(12) 0.0133(11)
C9_4 C 0.8455(8) 0.9414(8) 0.1555(8)
H6_4 H 0.8680 0.9232 0.1652
H7_4 H 0.9407 0.7301 0.0502
O1_4 O 0.9471(11) 0.7663(11) 0.2147(11)
N16_4 N 0.9754(8) 0.6779(8) 0.1698(9)
H10_5 H 0.8409 0.7181 0.0164
Cd2_5 Cd 0.7500 0.65665(11) 0.0000
Cd1_7 Cd 0.84335(11) 0.5000 0.7500
N1_5 N 0.9254(8) 0.3953(7) 0.6905(7)
N2_5 N 0.8940(7) 0.4474(7) 0.7297(7)
N3_5 N 0.9527(8) 0.4035(9) 0.7262(9)
N4_5 N 0.8819(7) 0.3251(6) 0.5635(6)
N5_5 N 0.8844(10) 0.2939(8) 0.5318(10)
N6_5 N 0.9053(7) 0.3580(8) 0.6268(7)
N7_5 N 0.8221(8) 0.3302(9) 0.5246(8)
C1_5 C 0.8908(8) 0.4231(9) 0.6948(8)
H1_5 H 0.8675 0.4245 0.6750
C2_5 C 0.9152(9) 0.3312(9) 0.5932(9)
C3_5 C 0.9562(10) 0.3091(10) 0.5899(10)
H2_5 H 0.9618 0.2900 0.5666
C4_5 C 0.9370(9) 0.3641(9) 0.6579(9)
C5_5 C 0.8478(11) 0.2986(10) 0.5083(10)
H3_5 H 0.8409 0.2819 0.4836
C6_5 C 0.9773(10) 0.3441(10) 0.6573(12)
H4_5 H 0.9977 0.3485 0.6798
C7_5 C 0.9334(11) 0.4333(13) 0.7479(10)
C8_5 C 0.9867(11) 0.3164(12) 0.6209(12)
C9_5 C 0.8445(8) 0.3455(8) 0.5586(8)
H6_5 H 0.8348 0.3680 0.5768
H7_5 H 0.9498 0.4407 0.7699
O1_5 O 0.7853(11) 0.4471(11) 0.7337(11)
N8_5 N 0.9254(8) 0.6047(7) 0.8095(7)
N9_5 N 0.8940(7) 0.5526(7) 0.7703(7)
N10_5 N 0.9527(8) 0.5965(9) 0.7738(9)
N11_5 N 0.8819(7) 0.6749(6) 0.9365(6)
N12_5 N 0.8844(10) 0.7061(8) 0.9682(10)
N13_5 N 0.9053(7) 0.6420(8) 0.8732(7)
N14_5 N 0.8221(8) 0.6698(9) 0.9754(8)
C10_5 C 0.8908(8) 0.5769(9) 0.8052(8)
H8_5 H 0.8675 0.5755 0.8250
C11_5 C 0.9152(9) 0.6688(9) 0.9068(9)
C12_5 C 0.9562(10) 0.6909(10) 0.9101(10)
H9_5 H 0.9618 0.7100 0.9334
C13_5 C 0.9370(9) 0.6359(9) 0.8421(9)
C14_5 C 0.8478(11) 0.7014(10) 0.9917(10)
C15_5 C 0.9773(10) 0.6559(10) 0.8427(12)
H11_5 H 0.9977 0.6515 0.8202
C16_5 C 0.9334(11) 0.5667(13) 0.7521(10)
C17_5 C 0.9867(11) 0.6836(12) 0.8791(12)
C18_5 C 0.8445(8) 0.6545(8) 0.9414(8)
H13_5 H 0.8348 0.6320 0.9232
H14_5 H 0.9498 0.5593 0.7301
O2_5 O 0.7853(11) 0.5529(11) 0.7663(11)
Cd2_6 Cd 0.7500 0.65665(11) 1.0000
Cd3_3 Cd 0.7500 0.34335(11) 0.5000
N15_5 N 0.8302(9) 0.5246(8) 0.6779(8)
N16_5 N 0.8302(9) 0.4754(8) 0.8221(8)
Cd1_8 Cd 0.34335(11) -0.0000 0.2500
N1_6 N 0.4254(8) 0.1047(7) 0.3095(7)
N2_6 N 0.3940(7) 0.0526(7) 0.2703(7)
N3_6 N 0.4527(8) 0.0965(9) 0.2738(9)
N4_6 N 0.3819(7) 0.1749(6) 0.4365(6)
N5_6 N 0.3844(10) 0.2061(8) 0.4682(10)
N6_6 N 0.4053(7) 0.1420(8) 0.3732(7)
N7_6 N 0.3221(8) 0.1698(9) 0.4754(8)
C1_6 C 0.3908(8) 0.0769(9) 0.3052(8)
H1_6 H 0.3675 0.0755 0.3250
C2_6 C 0.4152(9) 0.1688(9) 0.4068(9)
C3_6 C 0.4562(10) 0.1909(10) 0.4101(10)
H2_6 H 0.4618 0.2100 0.4334
C4_6 C 0.4370(9) 0.1359(9) 0.3421(9)
C5_6 C 0.3478(11) 0.2014(10) 0.4917(10)
H3_6 H 0.3409 0.2181 0.5164
C6_6 C 0.4773(10) 0.1559(10) 0.3427(12)
H4_6 H 0.4977 0.1515 0.3202
C7_6 C 0.4334(11) 0.0667(13) 0.2521(10)
C8_6 C 0.4867(11) 0.1836(12) 0.3791(12)
H5_3 H 0.5142 0.1968 0.3815
C9_6 C 0.3445(8) 0.1545(8) 0.4414(8)
H6_6 H 0.3348 0.1320 0.4232
H7_6 H 0.4498 0.0593 0.2301
O1_6 O 0.2853(11) 0.0529(11) 0.2663(11)
Cd3_4 Cd 0.2500 0.15665(11) 0.5000
N16_6 N 0.3302(9) 0.0246(8) 0.1779(8)
Cd1_9 Cd 0.34335(11) 1.0000 0.2500
N8_6 N 0.4254(8) 0.8953(7) 0.1905(7)
N9_6 N 0.3940(7) 0.9474(7) 0.2297(7)
N10_6 N 0.4527(8) 0.9035(9) 0.2262(9)
N11_6 N 0.3819(7) 0.8251(6) 0.0635(6)
N12_6 N 0.3844(10) 0.7939(8) 0.0318(10)
N13_6 N 0.4053(7) 0.8580(8) 0.1268(7)
N14_6 N 0.3221(8) 0.8302(9) 0.0246(8)
C10_6 C 0.3908(8) 0.9231(9) 0.1948(8)
H8_6 H 0.3675 0.9245 0.1750
C11_6 C 0.4152(9) 0.8312(9) 0.0932(9)
C12_6 C 0.4562(10) 0.8091(10) 0.0899(10)
H9_6 H 0.4618 0.7900 0.0666
C13_6 C 0.4370(9) 0.8641(9) 0.1579(9)
C14_6 C 0.3478(11) 0.7986(10) 0.0083(10)
C15_6 C 0.4773(10) 0.8441(10) 0.1573(12)
H11_6 H 0.4977 0.8485 0.1798
C16_6 C 0.4334(11) 0.9333(13) 0.2479(10)
C17_6 C 0.4867(11) 0.8164(12) 0.1209(12)
H12_3 H 0.5142 0.8032 0.1185
C18_6 C 0.3445(8) 0.8455(8) 0.0586(8)
H13_6 H 0.3348 0.8680 0.0768
H14_6 H 0.4498 0.9407 0.2699
O2_6 O 0.2853(11) 0.9471(11) 0.2337(11)
Cd2_7 Cd 0.2500 0.84335(11) 0.0000
N15_6 N 0.3302(9) 0.9754(8) 0.3221(8)
H10_6 H 0.3409 0.7819 0.9836
Cd2_8 Cd 0.2500 0.84335(11) 1.0000
Cd1_10 Cd 0.65665(11) 0.5000 0.2500
N1_7 N 0.5746(8) 0.6047(7) 0.1905(7)
N2_7 N 0.6060(7) 0.5526(7) 0.2297(7)
N3_7 N 0.5473(8) 0.5965(9) 0.2262(9)
N4_7 N 0.6181(7) 0.6749(6) 0.0635(6)
N5_7 N 0.6156(10) 0.7061(8) 0.0318(10)
N6_7 N 0.5947(7) 0.6420(8) 0.1268(7)
N7_7 N 0.6779(8) 0.6698(9) 0.0246(8)
C1_7 C 0.6092(8) 0.5769(9) 0.1948(8)
H1_7 H 0.6325 0.5755 0.1750
C2_7 C 0.5848(9) 0.6688(9) 0.0932(9)
C3_7 C 0.5438(10) 0.6909(10) 0.0899(10)
H2_7 H 0.5382 0.7100 0.0666
C4_7 C 0.5630(9) 0.6359(9) 0.1579(9)
C5_7 C 0.6522(11) 0.7014(10) 0.0083(10)
C6_7 C 0.5227(10) 0.6559(10) 0.1573(12)
H4_7 H 0.5023 0.6515 0.1798
C7_7 C 0.5666(11) 0.5667(13) 0.2479(10)
C8_7 C 0.5133(11) 0.6836(12) 0.1209(12)
H5_4 H 0.4858 0.6968 0.1185
C9_7 C 0.6555(8) 0.6545(8) 0.0586(8)
H6_7 H 0.6652 0.6320 0.0768
H7_7 H 0.5502 0.5593 0.2699
O1_7 O 0.7147(11) 0.5529(11) 0.2337(11)
N8_7 N 0.5746(8) 0.3953(7) 0.3095(7)
N9_7 N 0.6060(7) 0.4474(7) 0.2703(7)
N10_7 N 0.5473(8) 0.4035(9) 0.2738(9)
N11_7 N 0.6181(7) 0.3251(6) 0.4365(6)
N12_7 N 0.6156(10) 0.2939(8) 0.4682(10)
N13_7 N 0.5947(7) 0.3580(8) 0.3732(7)
N14_7 N 0.6779(8) 0.3302(9) 0.4754(8)
C10_7 C 0.6092(8) 0.4231(9) 0.3052(8)
H8_7 H 0.6325 0.4245 0.3250
C11_7 C 0.5848(9) 0.3312(9) 0.4068(9)
C12_7 C 0.5438(10) 0.3091(10) 0.4101(10)
H9_7 H 0.5382 0.2900 0.4334
C13_7 C 0.5630(9) 0.3641(9) 0.3421(9)
C14_7 C 0.6522(11) 0.2986(10) 0.4917(10)
H10_7 H 0.6591 0.2819 0.5164
C15_7 C 0.5227(10) 0.3441(10) 0.3427(12)
H11_7 H 0.5023 0.3485 0.3202
C16_7 C 0.5666(11) 0.4333(13) 0.2521(10)
C17_7 C 0.5133(11) 0.3164(12) 0.3791(12)
H12_4 H 0.4858 0.3032 0.3815
C18_7 C 0.6555(8) 0.3455(8) 0.4414(8)
H13_7 H 0.6652 0.3680 0.4232
H14_7 H 0.5502 0.4407 0.2301
O2_7 O 0.7147(11) 0.4471(11) 0.2663(11)
N15_7 N 0.6698(9) 0.4754(8) 0.1779(8)
N16_7 N 0.6698(9) 0.5246(8) 0.3221(8)
H3_7 H 0.6591 0.7181 0.9836
Cd1_11 Cd 0.15665(11) 0.0000 0.7500
N8_8 N 0.0746(8) 0.1047(7) 0.6905(7)
N9_8 N 0.1060(7) 0.0526(7) 0.7297(7)
N10_8 N 0.0473(8) 0.0965(9) 0.7262(9)
N11_8 N 0.1181(7) 0.1749(6) 0.5635(6)
N12_8 N 0.1156(10) 0.2061(8) 0.5318(10)
N13_8 N 0.0947(7) 0.1420(8) 0.6268(7)
N14_8 N 0.1779(8) 0.1698(9) 0.5246(8)
C10_8 C 0.1092(8) 0.0769(9) 0.6948(8)
H8_8 H 0.1325 0.0755 0.6750
C11_8 C 0.0848(9) 0.1688(9) 0.5932(9)
C12_8 C 0.0438(10) 0.1909(10) 0.5899(10)
H9_8 H 0.0382 0.2100 0.5666
C13_8 C 0.0630(9) 0.1359(9) 0.6579(9)
C14_8 C 0.1522(11) 0.2014(10) 0.5083(10)
H10_8 H 0.1591 0.2181 0.4836
C15_8 C 0.0227(10) 0.1559(10) 0.6573(12)
H11_8 H 0.0023 0.1515 0.6798
C16_8 C 0.0666(11) 0.0667(13) 0.7479(10)
C17_8 C 0.0133(11) 0.1836(12) 0.6209(12)
C18_8 C 0.1555(8) 0.1545(8) 0.5586(8)
H13_8 H 0.1652 0.1320 0.5768
H14_8 H 0.0502 0.0593 0.7699
O2_8 O 0.2147(11) 0.0529(11) 0.7337(11)
N15_8 N 0.1698(9) 0.0246(8) 0.8221(8)
H3_8 H 0.1591 0.7819 0.0164
Cd1_12 Cd 0.15665(11) 1.0000 0.7500
N1_8 N 0.0746(8) 0.8953(7) 0.8095(7)
N2_8 N 0.1060(7) 0.9474(7) 0.7703(7)
N3_8 N 0.0473(8) 0.9035(9) 0.7738(9)
N4_8 N 0.1181(7) 0.8251(6) 0.9365(6)
N5_8 N 0.1156(10) 0.7939(8) 0.9682(10)
N6_8 N 0.0947(7) 0.8580(8) 0.8732(7)
N7_8 N 0.1779(8) 0.8302(9) 0.9754(8)
C1_8 C 0.1092(8) 0.9231(9) 0.8052(8)
H1_8 H 0.1325 0.9245 0.8250
C2_8 C 0.0848(9) 0.8312(9) 0.9068(9)
C3_8 C 0.0438(10) 0.8091(10) 0.9101(10)
H2_8 H 0.0382 0.7900 0.9334
C4_8 C 0.0630(9) 0.8641(9) 0.8421(9)
C5_8 C 0.1522(11) 0.7986(10) 0.9917(10)
C6_8 C 0.0227(10) 0.8441(10) 0.8427(12)
H4_8 H 0.0023 0.8485 0.8202
C7_8 C 0.0666(11) 0.9333(13) 0.7521(10)
C8_8 C 0.0133(11) 0.8164(12) 0.8791(12)
C9_8 C 0.1555(8) 0.8455(8) 0.9414(8)
H6_8 H 0.1652 0.8680 0.9232
H7_8 H 0.0502 0.9407 0.7301
O1_8 O 0.2147(11) 0.9471(11) 0.7663(11)
N16_8 N 0.1698(9) 0.9754(8) 0.6779(8)
H10_9 H 0.0164 0.8409 0.7181
Cd2_9 Cd -0.0000 0.7500 0.65665(11)
Cd1_13 Cd 0.7500 0.84335(11) 0.5000
N1_9 N 0.6905(7) 0.9254(8) 0.3953(7)
N2_9 N 0.7297(7) 0.8940(7) 0.4474(7)
N3_9 N 0.7262(9) 0.9527(8) 0.4035(9)
N4_9 N 0.5635(6) 0.8819(7) 0.3251(6)
N5_9 N 0.5318(10) 0.8844(10) 0.2939(8)
N6_9 N 0.6268(7) 0.9053(7) 0.3580(8)
N7_9 N 0.5246(8) 0.8221(8) 0.3302(9)
C1_9 C 0.6948(8) 0.8908(8) 0.4231(9)
H1_9 H 0.6750 0.8675 0.4245
C2_9 C 0.5932(9) 0.9152(9) 0.3312(9)
C3_9 C 0.5899(10) 0.9562(10) 0.3091(10)
H2_9 H 0.5666 0.9618 0.2900
C4_9 C 0.6579(9) 0.9370(9) 0.3641(9)
C5_9 C 0.5083(10) 0.8478(11) 0.2986(10)
H3_9 H 0.4836 0.8409 0.2819
C6_9 C 0.6573(12) 0.9773(10) 0.3441(10)
H4_9 H 0.6798 0.9977 0.3485
C7_9 C 0.7479(10) 0.9334(11) 0.4333(13)
C8_9 C 0.6209(12) 0.9867(11) 0.3164(12)
C9_9 C 0.5586(8) 0.8445(8) 0.3455(8)
H6_9 H 0.5768 0.8348 0.3680
H7_9 H 0.7699 0.9498 0.4407
O1_9 O 0.7337(11) 0.7853(11) 0.4471(11)
N8_9 N 0.8095(7) 0.9254(8) 0.6047(7)
N9_9 N 0.7703(7) 0.8940(7) 0.5526(7)
N10_9 N 0.7738(9) 0.9527(8) 0.5965(9)
N11_9 N 0.9365(6) 0.8819(7) 0.6749(6)
N12_9 N 0.9682(10) 0.8844(10) 0.7061(8)
N13_9 N 0.8732(7) 0.9053(7) 0.6420(8)
N14_9 N 0.9754(8) 0.8221(8) 0.6698(9)
C10_9 C 0.8052(8) 0.8908(8) 0.5769(9)
H8_9 H 0.8250 0.8675 0.5755
C11_9 C 0.9068(9) 0.9152(9) 0.6688(9)
C12_9 C 0.9101(10) 0.9562(10) 0.6909(10)
H9_9 H 0.9334 0.9618 0.7100
C13_9 C 0.8421(9) 0.9370(9) 0.6359(9)
C14_9 C 0.9917(10) 0.8478(11) 0.7014(10)
C15_9 C 0.8427(12) 0.9773(10) 0.6559(10)
H11_9 H 0.8202 0.9977 0.6515
C16_9 C 0.7521(10) 0.9334(11) 0.5667(13)
C17_9 C 0.8791(12) 0.9867(11) 0.6836(12)
C18_9 C 0.9414(8) 0.8445(8) 0.6545(8)
H13_9 H 0.9232 0.8348 0.6320
H14_9 H 0.7301 0.9498 0.5593
O2_9 O 0.7663(11) 0.7853(11) 0.5529(11)
Cd2_10 Cd 1.0000 0.7500 0.65665(11)
Cd3_5 Cd 0.5000 0.7500 0.34335(11)
N15_9 N 0.6779(8) 0.8302(9) 0.5246(8)
N16_9 N 0.8221(8) 0.8302(9) 0.4754(8)
Cd1_14 Cd 0.2500 0.34335(11) -0.0000
N1_10 N 0.3095(7) 0.4254(8) 0.1047(7)
N2_10 N 0.2703(7) 0.3940(7) 0.0526(7)
N3_10 N 0.2738(9) 0.4527(8) 0.0965(9)
N4_10 N 0.4365(6) 0.3819(7) 0.1749(6)
N5_10 N 0.4682(10) 0.3844(10) 0.2061(8)
N6_10 N 0.3732(7) 0.4053(7) 0.1420(8)
N7_10 N 0.4754(8) 0.3221(8) 0.1698(9)
C1_10 C 0.3052(8) 0.3908(8) 0.0769(9)
H1_10 H 0.3250 0.3675 0.0755
C2_10 C 0.4068(9) 0.4152(9) 0.1688(9)
C3_10 C 0.4101(10) 0.4562(10) 0.1909(10)
H2_10 H 0.4334 0.4618 0.2100
C4_10 C 0.3421(9) 0.4370(9) 0.1359(9)
C5_10 C 0.4917(10) 0.3478(11) 0.2014(10)
H3_10 H 0.5164 0.3409 0.2181
C6_10 C 0.3427(12) 0.4773(10) 0.1559(10)
H4_10 H 0.3202 0.4977 0.1515
C7_10 C 0.2521(10) 0.4334(11) 0.0667(13)
C8_10 C 0.3791(12) 0.4867(11) 0.1836(12)
H5_5 H 0.3815 0.5142 0.1968
C9_10 C 0.4414(8) 0.3445(8) 0.1545(8)
H6_10 H 0.4232 0.3348 0.1320
H7_10 H 0.2301 0.4498 0.0593
O1_10 O 0.2663(11) 0.2853(11) 0.0529(11)
Cd3_6 Cd 0.5000 0.2500 0.15665(11)
N16_10 N 0.1779(8) 0.3302(9) 0.0246(8)
Cd1_15 Cd 0.2500 0.34335(11) 1.0000
N8_10 N 0.1905(7) 0.4254(8) 0.8953(7)
N9_10 N 0.2297(7) 0.3940(7) 0.9474(7)
N10_10 N 0.2262(9) 0.4527(8) 0.9035(9)
N11_10 N 0.0635(6) 0.3819(7) 0.8251(6)
N12_10 N 0.0318(10) 0.3844(10) 0.7939(8)
N13_10 N 0.1268(7) 0.4053(7) 0.8580(8)
N14_10 N 0.0246(8) 0.3221(8) 0.8302(9)
C10_10 C 0.1948(8) 0.3908(8) 0.9231(9)
H8_10 H 0.1750 0.3675 0.9245
C11_10 C 0.0932(9) 0.4152(9) 0.8312(9)
C12_10 C 0.0899(10) 0.4562(10) 0.8091(10)
H9_10 H 0.0666 0.4618 0.7900
C13_10 C 0.1579(9) 0.4370(9) 0.8641(9)
C14_10 C 0.0083(10) 0.3478(11) 0.7986(10)
C15_10 C 0.1573(12) 0.4773(10) 0.8441(10)
H11_10 H 0.1798 0.4977 0.8485
C16_10 C 0.2479(10) 0.4334(11) 0.9333(13)
C17_10 C 0.1209(12) 0.4867(11) 0.8164(12)
H12_5 H 0.1185 0.5142 0.8032
C18_10 C 0.0586(8) 0.3445(8) 0.8455(8)
H13_10 H 0.0768 0.3348 0.8680
H14_10 H 0.2699 0.4498 0.9407
O2_10 O 0.2337(11) 0.2853(11) 0.9471(11)
Cd2_11 Cd 0.0000 0.2500 0.84335(11)
N15_10 N 0.3221(8) 0.3302(9) 0.9754(8)
H10_10 H 0.9836 0.3409 0.7819
Cd2_12 Cd 1.0000 0.2500 0.84335(11)
Cd1_16 Cd 0.2500 0.65665(11) 0.5000
N1_11 N 0.1905(7) 0.5746(8) 0.6047(7)
N2_11 N 0.2297(7) 0.6060(7) 0.5526(7)
N3_11 N 0.2262(9) 0.5473(8) 0.5965(9)
N4_11 N 0.0635(6) 0.6181(7) 0.6749(6)
N5_11 N 0.0318(10) 0.6156(10) 0.7061(8)
N6_11 N 0.1268(7) 0.5947(7) 0.6420(8)
N7_11 N 0.0246(8) 0.6779(8) 0.6698(9)
C1_11 C 0.1948(8) 0.6092(8) 0.5769(9)
H1_11 H 0.1750 0.6325 0.5755
C2_11 C 0.0932(9) 0.5848(9) 0.6688(9)
C3_11 C 0.0899(10) 0.5438(10) 0.6909(10)
H2_11 H 0.0666 0.5382 0.7100
C4_11 C 0.1579(9) 0.5630(9) 0.6359(9)
C5_11 C 0.0083(10) 0.6522(11) 0.7014(10)
C6_11 C 0.1573(12) 0.5227(10) 0.6559(10)
H4_11 H 0.1798 0.5023 0.6515
C7_11 C 0.2479(10) 0.5666(11) 0.5667(13)
C8_11 C 0.1209(12) 0.5133(11) 0.6836(12)
H5_6 H 0.1185 0.4858 0.6968
C9_11 C 0.0586(8) 0.6555(8) 0.6545(8)
H6_11 H 0.0768 0.6652 0.6320
H7_11 H 0.2699 0.5502 0.5593
O1_11 O 0.2337(11) 0.7147(11) 0.5529(11)
N8_11 N 0.3095(7) 0.5746(8) 0.3953(7)
N9_11 N 0.2703(7) 0.6060(7) 0.4474(7)
N10_11 N 0.2738(9) 0.5473(8) 0.4035(9)
N11_11 N 0.4365(6) 0.6181(7) 0.3251(6)
N12_11 N 0.4682(10) 0.6156(10) 0.2939(8)
N13_11 N 0.3732(7) 0.5947(7) 0.3580(8)
N14_11 N 0.4754(8) 0.6779(8) 0.3302(9)
C10_11 C 0.3052(8) 0.6092(8) 0.4231(9)
H8_11 H 0.3250 0.6325 0.4245
C11_11 C 0.4068(9) 0.5848(9) 0.3312(9)
C12_11 C 0.4101(10) 0.5438(10) 0.3091(10)
H9_11 H 0.4334 0.5382 0.2900
C13_11 C 0.3421(9) 0.5630(9) 0.3641(9)
C14_11 C 0.4917(10) 0.6522(11) 0.2986(10)
H10_11 H 0.5164 0.6591 0.2819
C15_11 C 0.3427(12) 0.5227(10) 0.3441(10)
H11_11 H 0.3202 0.5023 0.3485
C16_11 C 0.2521(10) 0.5666(11) 0.4333(13)
C17_11 C 0.3791(12) 0.5133(11) 0.3164(12)
H12_6 H 0.3815 0.4858 0.3032
C18_11 C 0.4414(8) 0.6555(8) 0.3455(8)
H13_11 H 0.4232 0.6652 0.3680
H14_11 H 0.2301 0.5502 0.4407
O2_11 O 0.2663(11) 0.7147(11) 0.4471(11)
N15_11 N 0.1779(8) 0.6698(9) 0.4754(8)
N16_11 N 0.3221(8) 0.6698(9) 0.5246(8)
H3_11 H 0.9836 0.6591 0.7181
H3_12 H 0.0164 0.1591 0.7819
Cd1_17 Cd 0.7500 0.15665(11) 0.0000
N8_12 N 0.6905(7) 0.0746(8) 0.1047(7)
N9_12 N 0.7297(7) 0.1060(7) 0.0526(7)
N10_12 N 0.7262(9) 0.0473(8) 0.0965(9)
N11_12 N 0.5635(6) 0.1181(7) 0.1749(6)
N12_12 N 0.5318(10) 0.1156(10) 0.2061(8)
N13_12 N 0.6268(7) 0.0947(7) 0.1420(8)
N14_12 N 0.5246(8) 0.1779(8) 0.1698(9)
C10_12 C 0.6948(8) 0.1092(8) 0.0769(9)
H8_12 H 0.6750 0.1325 0.0755
C11_12 C 0.5932(9) 0.0848(9) 0.1688(9)
C12_12 C 0.5899(10) 0.0438(10) 0.1909(10)
H9_12 H 0.5666 0.0382 0.2100
C13_12 C 0.6579(9) 0.0630(9) 0.1359(9)
C14_12 C 0.5083(10) 0.1522(11) 0.2014(10)
H10_12 H 0.4836 0.1591 0.2181
C15_12 C 0.6573(12) 0.0227(10) 0.1559(10)
H11_12 H 0.6798 0.0023 0.1515
C16_12 C 0.7479(10) 0.0666(11) 0.0667(13)
C17_12 C 0.6209(12) 0.0133(11) 0.1836(12)
C18_12 C 0.5586(8) 0.1555(8) 0.1545(8)
H13_12 H 0.5768 0.1652 0.1320
H14_12 H 0.7699 0.0502 0.0593
O2_12 O 0.7337(11) 0.2147(11) 0.0529(11)
N15_12 N 0.8221(8) 0.1698(9) 0.0246(8)
Cd1_18 Cd 0.7500 0.15665(11) 1.0000
N1_12 N 0.8095(7) 0.0746(8) 0.8953(7)
N2_12 N 0.7703(7) 0.1060(7) 0.9474(7)
N3_12 N 0.7738(9) 0.0473(8) 0.9035(9)
N4_12 N 0.9365(6) 0.1181(7) 0.8251(6)
N5_12 N 0.9682(10) 0.1156(10) 0.7939(8)
N6_12 N 0.8732(7) 0.0947(7) 0.8580(8)
N7_12 N 0.9754(8) 0.1779(8) 0.8302(9)
C1_12 C 0.8052(8) 0.1092(8) 0.9231(9)
H1_12 H 0.8250 0.1325 0.9245
C2_12 C 0.9068(9) 0.0848(9) 0.8312(9)
C3_12 C 0.9101(10) 0.0438(10) 0.8091(10)
H2_12 H 0.9334 0.0382 0.7900
C4_12 C 0.8421(9) 0.0630(9) 0.8641(9)
C5_12 C 0.9917(10) 0.1522(11) 0.7986(10)
C6_12 C 0.8427(12) 0.0227(10) 0.8441(10)
H4_12 H 0.8202 0.0023 0.8485
C7_12 C 0.7521(10) 0.0666(11) 0.9333(13)
C8_12 C 0.8791(12) 0.0133(11) 0.8164(12)
C9_12 C 0.9414(8) 0.1555(8) 0.8455(8)
H6_12 H 0.9232 0.1652 0.8680
H7_12 H 0.7301 0.0502 0.9407
O1_12 O 0.7663(11) 0.2147(11) 0.9471(11)
N16_12 N 0.6779(8) 0.1698(9) 0.9754(8)
N1_13 N 0.6047(7) 0.3095(7) 0.0746(8)
N2_13 N 0.5526(7) 0.2703(7) 0.1060(7)
N3_13 N 0.5965(9) 0.2738(9) 0.0473(8)
N4_13 N 0.6749(6) 0.4365(6) 0.1181(7)
N5_13 N 0.7061(8) 0.4682(10) 0.1156(10)
N6_13 N 0.6420(8) 0.3732(7) 0.0947(7)
C1_13 C 0.5769(9) 0.3052(8) 0.1092(8)
H1_13 H 0.5755 0.3250 0.1325
C2_13 C 0.6688(9) 0.4068(9) 0.0848(9)
C3_13 C 0.6909(10) 0.4101(10) 0.0438(10)
H2_13 H 0.7100 0.4334 0.0382
C4_13 C 0.6359(9) 0.3421(9) 0.0630(9)
C5_13 C 0.7014(10) 0.4917(10) 0.1522(11)
H3_13 H 0.7181 0.5164 0.1591
C6_13 C 0.6559(10) 0.3427(12) 0.0227(10)
H4_13 H 0.6515 0.3202 0.0023
C7_13 C 0.5667(13) 0.2521(10) 0.0666(11)
C8_13 C 0.6836(12) 0.3791(12) 0.0133(11)
C9_13 C 0.6545(8) 0.4414(8) 0.1555(8)
H6_13 H 0.6320 0.4232 0.1652
H7_13 H 0.5593 0.2301 0.0502
O1_13 O 0.5529(11) 0.2663(11) 0.2147(11)
N8_13 N 0.3953(7) 0.1905(7) 0.0746(8)
N9_13 N 0.4474(7) 0.2297(7) 0.1060(7)
N10_13 N 0.4035(9) 0.2262(9) 0.0473(8)
N11_13 N 0.3251(6) 0.0635(6) 0.1181(7)
N12_13 N 0.2939(8) 0.0318(10) 0.1156(10)
N13_13 N 0.3580(8) 0.1268(7) 0.0947(7)
C10_13 C 0.4231(9) 0.1948(8) 0.1092(8)
H8_13 H 0.4245 0.1750 0.1325
C11_13 C 0.3312(9) 0.0932(9) 0.0848(9)
C12_13 C 0.3091(10) 0.0899(10) 0.0438(10)
H9_13 H 0.2900 0.0666 0.0382
C13_13 C 0.3641(9) 0.1579(9) 0.0630(9)
C14_13 C 0.2986(10) 0.0083(10) 0.1522(11)
C15_13 C 0.3441(10) 0.1573(12) 0.0227(10)
H11_13 H 0.3485 0.1798 0.0023
C16_13 C 0.4333(13) 0.2479(10) 0.0666(11)
C17_13 C 0.3164(12) 0.1209(12) 0.0133(11)
C18_13 C 0.3455(8) 0.0586(8) 0.1555(8)
H13_13 H 0.3680 0.0768 0.1652
H14_13 H 0.4407 0.2699 0.0502
O2_13 O 0.4471(11) 0.2337(11) 0.2147(11)
H10_13 H 0.2819 0.9836 0.1591
H10_14 H 0.2181 0.0164 0.6591
N8_14 N 0.1047(7) 0.8095(7) 0.5746(8)
N9_14 N 0.0526(7) 0.7703(7) 0.6060(7)
N10_14 N 0.0965(9) 0.7738(9) 0.5473(8)
N11_14 N 0.1749(6) 0.9365(6) 0.6181(7)
N12_14 N 0.2061(8) 0.9682(10) 0.6156(10)
N13_14 N 0.1420(8) 0.8732(7) 0.5947(7)
C10_14 C 0.0769(9) 0.8052(8) 0.6092(8)
H8_14 H 0.0755 0.8250 0.6325
C11_14 C 0.1688(9) 0.9068(9) 0.5848(9)
C12_14 C 0.1909(10) 0.9101(10) 0.5438(10)
H9_14 H 0.2100 0.9334 0.5382
C13_14 C 0.1359(9) 0.8421(9) 0.5630(9)
C14_14 C 0.2014(10) 0.9917(10) 0.6522(11)
C15_14 C 0.1559(10) 0.8427(12) 0.5227(10)
H11_14 H 0.1515 0.8202 0.5023
C16_14 C 0.0667(13) 0.7521(10) 0.5666(11)
C17_14 C 0.1836(12) 0.8791(12) 0.5133(11)
H12_7 H 0.1968 0.8815 0.4858
C18_14 C 0.1545(8) 0.9414(8) 0.6555(8)
H13_14 H 0.1320 0.9232 0.6652
H14_14 H 0.0593 0.7301 0.5502
O2_14 O 0.0529(11) 0.7663(11) 0.7147(11)
N1_14 N 0.8953(7) 0.6905(7) 0.5746(8)
N2_14 N 0.9474(7) 0.7297(7) 0.6060(7)
N3_14 N 0.9035(9) 0.7262(9) 0.5473(8)
N4_14 N 0.8251(6) 0.5635(6) 0.6181(7)
N5_14 N 0.7939(8) 0.5318(10) 0.6156(10)
N6_14 N 0.8580(8) 0.6268(7) 0.5947(7)
C1_14 C 0.9231(9) 0.6948(8) 0.6092(8)
H1_14 H 0.9245 0.6750 0.6325
C2_14 C 0.8312(9) 0.5932(9) 0.5848(9)
C3_14 C 0.8091(10) 0.5899(10) 0.5438(10)
H2_14 H 0.7900 0.5666 0.5382
C4_14 C 0.8641(9) 0.6579(9) 0.5630(9)
C5_14 C 0.7986(10) 0.5083(10) 0.6522(11)
H3_14 H 0.7819 0.4836 0.6591
C6_14 C 0.8441(10) 0.6573(12) 0.5227(10)
H4_14 H 0.8485 0.6798 0.5023
C7_14 C 0.9333(13) 0.7479(10) 0.5666(11)
C8_14 C 0.8164(12) 0.6209(12) 0.5133(11)
H5_7 H 0.8032 0.6185 0.4858
C9_14 C 0.8455(8) 0.5586(8) 0.6555(8)
H6_14 H 0.8680 0.5768 0.6652
H7_14 H 0.9407 0.7699 0.5502
O1_14 O 0.9471(11) 0.7337(11) 0.7147(11)
H3_15 H 0.2819 0.0164 0.3409
N1_15 N 0.3953(7) 0.8095(7) 0.4254(8)
N2_15 N 0.4474(7) 0.7703(7) 0.3940(7)
N3_15 N 0.4035(9) 0.7738(9) 0.4527(8)
N4_15 N 0.3251(6) 0.9365(6) 0.3819(7)
N5_15 N 0.2939(8) 0.9682(10) 0.3844(10)
N6_15 N 0.3580(8) 0.8732(7) 0.4053(7)
C1_15 C 0.4231(9) 0.8052(8) 0.3908(8)
H1_15 H 0.4245 0.8250 0.3675
C2_15 C 0.3312(9) 0.9068(9) 0.4152(9)
C3_15 C 0.3091(10) 0.9101(10) 0.4562(10)
H2_15 H 0.2900 0.9334 0.4618
C4_15 C 0.3641(9) 0.8421(9) 0.4370(9)
C5_15 C 0.2986(10) 0.9917(10) 0.3478(11)
C6_15 C 0.3441(10) 0.8427(12) 0.4773(10)
H4_15 H 0.3485 0.8202 0.4977
C7_15 C 0.4333(13) 0.7521(10) 0.4334(11)
C8_15 C 0.3164(12) 0.8791(12) 0.4867(11)
H5_8 H 0.3032 0.8815 0.5142
C9_15 C 0.3455(8) 0.9414(8) 0.3445(8)
H6_15 H 0.3680 0.9232 0.3348
H7_15 H 0.4407 0.7301 0.4498
O1_15 O 0.4471(11) 0.7663(11) 0.2853(11)
N8_15 N 0.6047(7) 0.6905(7) 0.4254(8)
N9_15 N 0.5526(7) 0.7297(7) 0.3940(7)
N10_15 N 0.5965(9) 0.7262(9) 0.4527(8)
N11_15 N 0.6749(6) 0.5635(6) 0.3819(7)
N12_15 N 0.7061(8) 0.5318(10) 0.3844(10)
N13_15 N 0.6420(8) 0.6268(7) 0.4053(7)
C10_15 C 0.5769(9) 0.6948(8) 0.3908(8)
H8_15 H 0.5755 0.6750 0.3675
C11_15 C 0.6688(9) 0.5932(9) 0.4152(9)
C12_15 C 0.6909(10) 0.5899(10) 0.4562(10)
H9_15 H 0.7100 0.5666 0.4618
C13_15 C 0.6359(9) 0.6579(9) 0.4370(9)
C14_15 C 0.7014(10) 0.5083(10) 0.3478(11)
H10_15 H 0.7181 0.4836 0.3409
C15_15 C 0.6559(10) 0.6573(12) 0.4773(10)
H11_15 H 0.6515 0.6798 0.4977
C16_15 C 0.5667(13) 0.7479(10) 0.4334(11)
C17_15 C 0.6836(12) 0.6209(12) 0.4867(11)
H12_8 H 0.6968 0.6185 0.5142
C18_15 C 0.6545(8) 0.5586(8) 0.3445(8)
H13_15 H 0.6320 0.5768 0.3348
H14_15 H 0.5593 0.7699 0.4498
O2_15 O 0.5529(11) 0.7337(11) 0.2853(11)
N1_16 N 0.1047(7) 0.1905(7) 0.9254(8)
N2_16 N 0.0526(7) 0.2297(7) 0.8940(7)
N3_16 N 0.0965(9) 0.2262(9) 0.9527(8)
N4_16 N 0.1749(6) 0.0635(6) 0.8819(7)
N5_16 N 0.2061(8) 0.0318(10) 0.8844(10)
N6_16 N 0.1420(8) 0.1268(7) 0.9053(7)
C1_16 C 0.0769(9) 0.1948(8) 0.8908(8)
H1_16 H 0.0755 0.1750 0.8675
C2_16 C 0.1688(9) 0.0932(9) 0.9152(9)
C3_16 C 0.1909(10) 0.0899(10) 0.9562(10)
H2_16 H 0.2100 0.0666 0.9618
C4_16 C 0.1359(9) 0.1579(9) 0.9370(9)
C5_16 C 0.2014(10) 0.0083(10) 0.8478(11)
C6_16 C 0.1559(10) 0.1573(12) 0.9773(10)
H4_16 H 0.1515 0.1798 0.9977
C7_16 C 0.0667(13) 0.2479(10) 0.9334(11)
C8_16 C 0.1836(12) 0.1209(12) 0.9867(11)
C9_16 C 0.1545(8) 0.0586(8) 0.8445(8)
H6_16 H 0.1320 0.0768 0.8348
H7_16 H 0.0593 0.2699 0.9498
O1_16 O 0.0529(11) 0.2337(11) 0.7853(11)
H3_16 H 0.2181 0.9836 0.8409
N8_16 N 0.8953(7) 0.3095(7) 0.9254(8)
N9_16 N 0.9474(7) 0.2703(7) 0.8940(7)
N10_16 N 0.9035(9) 0.2738(9) 0.9527(8)
N11_16 N 0.8251(6) 0.4365(6) 0.8819(7)
N12_16 N 0.7939(8) 0.4682(10) 0.8844(10)
N13_16 N 0.8580(8) 0.3732(7) 0.9053(7)
C10_16 C 0.9231(9) 0.3052(8) 0.8908(8)
H8_16 H 0.9245 0.3250 0.8675
C11_16 C 0.8312(9) 0.4068(9) 0.9152(9)
C12_16 C 0.8091(10) 0.4101(10) 0.9562(10)
H9_16 H 0.7900 0.4334 0.9618
C13_16 C 0.8641(9) 0.3421(9) 0.9370(9)
C14_16 C 0.7986(10) 0.4917(10) 0.8478(11)
H10_16 H 0.7819 0.5164 0.8409
C15_16 C 0.8441(10) 0.3427(12) 0.9773(10)
H11_16 H 0.8485 0.3202 0.9977
C16_16 C 0.9333(13) 0.2521(10) 0.9334(11)
C17_16 C 0.8164(12) 0.3791(12) 0.9867(11)
C18_16 C 0.8455(8) 0.4414(8) 0.8445(8)
H13_16 H 0.8680 0.4232 0.8348
H14_16 H 0.9407 0.2301 0.9498
O2_16 O 0.9471(11) 0.2663(11) 0.7853(11)
N1_17 N 0.0746(8) 0.6047(7) 0.3095(7)
N2_17 N 0.1060(7) 0.5526(7) 0.2703(7)
N3_17 N 0.0473(8) 0.5965(9) 0.2738(9)
N4_17 N 0.1181(7) 0.6749(6) 0.4365(6)
N5_17 N 0.1156(10) 0.7061(8) 0.4682(10)
N6_17 N 0.0947(7) 0.6420(8) 0.3732(7)
C1_17 C 0.1092(8) 0.5769(9) 0.3052(8)
H1_17 H 0.1325 0.5755 0.3250
C2_17 C 0.0848(9) 0.6688(9) 0.4068(9)
C3_17 C 0.0438(10) 0.6909(10) 0.4101(10)
H2_17 H 0.0382 0.7100 0.4334
C4_17 C 0.0630(9) 0.6359(9) 0.3421(9)
C5_17 C 0.1522(11) 0.7014(10) 0.4917(10)
H3_17 H 0.1591 0.7181 0.5164
C6_17 C 0.0227(10) 0.6559(10) 0.3427(12)
H4_17 H 0.0023 0.6515 0.3202
C7_17 C 0.0666(11) 0.5667(13) 0.2521(10)
C8_17 C 0.0133(11) 0.6836(12) 0.3791(12)
C9_17 C 0.1555(8) 0.6545(8) 0.4414(8)
H6_17 H 0.1652 0.6320 0.4232
H7_17 H 0.0502 0.5593 0.2301
O1_17 O 0.2147(11) 0.5529(11) 0.2663(11)
N8_17 N 0.0746(8) 0.3953(7) 0.1905(7)
N9_17 N 0.1060(7) 0.4474(7) 0.2297(7)
N10_17 N 0.0473(8) 0.4035(9) 0.2262(9)
N11_17 N 0.1181(7) 0.3251(6) 0.0635(6)
N12_17 N 0.1156(10) 0.2939(8) 0.0318(10)
N13_17 N 0.0947(7) 0.3580(8) 0.1268(7)
C10_17 C 0.1092(8) 0.4231(9) 0.1948(8)
H8_17 H 0.1325 0.4245 0.1750
C11_17 C 0.0848(9) 0.3312(9) 0.0932(9)
C12_17 C 0.0438(10) 0.3091(10) 0.0899(10)
H9_17 H 0.0382 0.2900 0.0666
C13_17 C 0.0630(9) 0.3641(9) 0.1579(9)
C14_17 C 0.1522(11) 0.2986(10) 0.0083(10)
C15_17 C 0.0227(10) 0.3441(10) 0.1573(12)
H11_17 H 0.0023 0.3485 0.1798
C16_17 C 0.0666(11) 0.4333(13) 0.2479(10)
C17_17 C 0.0133(11) 0.3164(12) 0.1209(12)
C18_17 C 0.1555(8) 0.3455(8) 0.0586(8)
H13_17 H 0.1652 0.3680 0.0768
H14_17 H 0.0502 0.4407 0.2699
O2_17 O 0.2147(11) 0.4471(11) 0.2337(11)
H10_17 H 0.1591 0.2819 0.9836
H10_18 H 0.6591 0.2181 0.0164
N8_18 N 0.5746(8) 0.1047(7) 0.8095(7)
N9_18 N 0.6060(7) 0.0526(7) 0.7703(7)
N10_18 N 0.5473(8) 0.0965(9) 0.7738(9)
N11_18 N 0.6181(7) 0.1749(6) 0.9365(6)
N12_18 N 0.6156(10) 0.2061(8) 0.9682(10)
N13_18 N 0.5947(7) 0.1420(8) 0.8732(7)
C10_18 C 0.6092(8) 0.0769(9) 0.8052(8)
H8_18 H 0.6325 0.0755 0.8250
C11_18 C 0.5848(9) 0.1688(9) 0.9068(9)
C12_18 C 0.5438(10) 0.1909(10) 0.9101(10)
H9_18 H 0.5382 0.2100 0.9334
C13_18 C 0.5630(9) 0.1359(9) 0.8421(9)
C14_18 C 0.6522(11) 0.2014(10) 0.9917(10)
C15_18 C 0.5227(10) 0.1559(10) 0.8427(12)
H11_18 H 0.5023 0.1515 0.8202
C16_18 C 0.5666(11) 0.0667(13) 0.7521(10)
C17_18 C 0.5133(11) 0.1836(12) 0.8791(12)
H12_9 H 0.4858 0.1968 0.8815
C18_18 C 0.6555(8) 0.1545(8) 0.9414(8)
H13_18 H 0.6652 0.1320 0.9232
H14_18 H 0.5502 0.0593 0.7301
O2_18 O 0.7147(11) 0.0529(11) 0.7663(11)
N1_18 N 0.5746(8) 0.8953(7) 0.6905(7)
N2_18 N 0.6060(7) 0.9474(7) 0.7297(7)
N3_18 N 0.5473(8) 0.9035(9) 0.7262(9)
N4_18 N 0.6181(7) 0.8251(6) 0.5635(6)
N5_18 N 0.6156(10) 0.7939(8) 0.5318(10)
N6_18 N 0.5947(7) 0.8580(8) 0.6268(7)
C1_18 C 0.6092(8) 0.9231(9) 0.6948(8)
H1_18 H 0.6325 0.9245 0.6750
C2_18 C 0.5848(9) 0.8312(9) 0.5932(9)
C3_18 C 0.5438(10) 0.8091(10) 0.5899(10)
H2_18 H 0.5382 0.7900 0.5666
C4_18 C 0.5630(9) 0.8641(9) 0.6579(9)
C5_18 C 0.6522(11) 0.7986(10) 0.5083(10)
H3_18 H 0.6591 0.7819 0.4836
C6_18 C 0.5227(10) 0.8441(10) 0.6573(12)
H4_18 H 0.5023 0.8485 0.6798
C7_18 C 0.5666(11) 0.9333(13) 0.7479(10)
C8_18 C 0.5133(11) 0.8164(12) 0.6209(12)
H5_9 H 0.4858 0.8032 0.6185
C9_18 C 0.6555(8) 0.8455(8) 0.5586(8)
H6_18 H 0.6652 0.8680 0.5768
H7_18 H 0.5502 0.9407 0.7699
O1_18 O 0.7147(11) 0.9471(11) 0.7337(11)
H3_19 H 0.3409 0.2819 0.0164
N1_19 N 0.4254(8) 0.3953(7) 0.8095(7)
N2_19 N 0.3940(7) 0.4474(7) 0.7703(7)
N3_19 N 0.4527(8) 0.4035(9) 0.7738(9)
N4_19 N 0.3819(7) 0.3251(6) 0.9365(6)
N5_19 N 0.3844(10) 0.2939(8) 0.9682(10)
N6_19 N 0.4053(7) 0.3580(8) 0.8732(7)
C1_19 C 0.3908(8) 0.4231(9) 0.8052(8)
H1_19 H 0.3675 0.4245 0.8250
C2_19 C 0.4152(9) 0.3312(9) 0.9068(9)
C3_19 C 0.4562(10) 0.3091(10) 0.9101(10)
H2_19 H 0.4618 0.2900 0.9334
C4_19 C 0.4370(9) 0.3641(9) 0.8421(9)
C5_19 C 0.3478(11) 0.2986(10) 0.9917(10)
C6_19 C 0.4773(10) 0.3441(10) 0.8427(12)
H4_19 H 0.4977 0.3485 0.8202
C7_19 C 0.4334(11) 0.4333(13) 0.7521(10)
C8_19 C 0.4867(11) 0.3164(12) 0.8791(12)
H5_10 H 0.5142 0.3032 0.8815
C9_19 C 0.3445(8) 0.3455(8) 0.9414(8)
H6_19 H 0.3348 0.3680 0.9232
H7_19 H 0.4498 0.4407 0.7301
O1_19 O 0.2853(11) 0.4471(11) 0.7663(11)
N8_19 N 0.4254(8) 0.6047(7) 0.6905(7)
N9_19 N 0.3940(7) 0.5526(7) 0.7297(7)
N10_19 N 0.4527(8) 0.5965(9) 0.7262(9)
N11_19 N 0.3819(7) 0.6749(6) 0.5635(6)
N12_19 N 0.3844(10) 0.7061(8) 0.5318(10)
N13_19 N 0.4053(7) 0.6420(8) 0.6268(7)
C10_19 C 0.3908(8) 0.5769(9) 0.6948(8)
H8_19 H 0.3675 0.5755 0.6750
C11_19 C 0.4152(9) 0.6688(9) 0.5932(9)
C12_19 C 0.4562(10) 0.6909(10) 0.5899(10)
H9_19 H 0.4618 0.7100 0.5666
C13_19 C 0.4370(9) 0.6359(9) 0.6579(9)
C14_19 C 0.3478(11) 0.7014(10) 0.5083(10)
H10_19 H 0.3409 0.7181 0.4836
C15_19 C 0.4773(10) 0.6559(10) 0.6573(12)
H11_19 H 0.4977 0.6515 0.6798
C16_19 C 0.4334(11) 0.5667(13) 0.7479(10)
C17_19 C 0.4867(11) 0.6836(12) 0.6209(12)
H12_10 H 0.5142 0.6968 0.6185
C18_19 C 0.3445(8) 0.6545(8) 0.5586(8)
H13_19 H 0.3348 0.6320 0.5768
H14_19 H 0.4498 0.5593 0.7699
O2_19 O 0.2853(11) 0.5529(11) 0.7337(11)
N1_20 N 0.9254(8) 0.1047(7) 0.1905(7)
N2_20 N 0.8940(7) 0.0526(7) 0.2297(7)
N3_20 N 0.9527(8) 0.0965(9) 0.2262(9)
N4_20 N 0.8819(7) 0.1749(6) 0.0635(6)
N5_20 N 0.8844(10) 0.2061(8) 0.0318(10)
N6_20 N 0.9053(7) 0.1420(8) 0.1268(7)
C1_20 C 0.8908(8) 0.0769(9) 0.1948(8)
H1_20 H 0.8675 0.0755 0.1750
C2_20 C 0.9152(9) 0.1688(9) 0.0932(9)
C3_20 C 0.9562(10) 0.1909(10) 0.0899(10)
H2_20 H 0.9618 0.2100 0.0666
C4_20 C 0.9370(9) 0.1359(9) 0.1579(9)
C5_20 C 0.8478(11) 0.2014(10) 0.0083(10)
C6_20 C 0.9773(10) 0.1559(10) 0.1573(12)
H4_20 H 0.9977 0.1515 0.1798
C7_20 C 0.9334(11) 0.0667(13) 0.2479(10)
C8_20 C 0.9867(11) 0.1836(12) 0.1209(12)
C9_20 C 0.8445(8) 0.1545(8) 0.0586(8)
H6_20 H 0.8348 0.1320 0.0768
H7_20 H 0.9498 0.0593 0.2699
O1_20 O 0.7853(11) 0.0529(11) 0.2337(11)
H3_20 H 0.8409 0.2181 0.9836
N8_20 N 0.9254(8) 0.8953(7) 0.3095(7)
N9_20 N 0.8940(7) 0.9474(7) 0.2703(7)
N10_20 N 0.9527(8) 0.9035(9) 0.2738(9)
N11_20 N 0.8819(7) 0.8251(6) 0.4365(6)
N12_20 N 0.8844(10) 0.7939(8) 0.4682(10)
N13_20 N 0.9053(7) 0.8580(8) 0.3732(7)
C10_20 C 0.8908(8) 0.9231(9) 0.3052(8)
H8_20 H 0.8675 0.9245 0.3250
C11_20 C 0.9152(9) 0.8312(9) 0.4068(9)
C12_20 C 0.9562(10) 0.8091(10) 0.4101(10)
H9_20 H 0.9618 0.7900 0.4334
C13_20 C 0.9370(9) 0.8641(9) 0.3421(9)
C14_20 C 0.8478(11) 0.7986(10) 0.4917(10)
H10_20 H 0.8409 0.7819 0.5164
C15_20 C 0.9773(10) 0.8441(10) 0.3427(12)
H11_20 H 0.9977 0.8485 0.3202
C16_20 C 0.9334(11) 0.9333(13) 0.2521(10)
C17_20 C 0.9867(11) 0.8164(12) 0.3791(12)
C18_20 C 0.8445(8) 0.8455(8) 0.4414(8)
H13_20 H 0.8348 0.8680 0.4232
H14_20 H 0.9498 0.9407 0.2301
O2_20 O 0.7853(11) 0.9471(11) 0.2663(11)
N1_21 N 0.3095(7) 0.0746(8) 0.6047(7)
N2_21 N 0.2703(7) 0.1060(7) 0.5526(7)
N3_21 N 0.2738(9) 0.0473(8) 0.5965(9)
N4_21 N 0.4365(6) 0.1181(7) 0.6749(6)
N5_21 N 0.4682(10) 0.1156(10) 0.7061(8)
N6_21 N 0.3732(7) 0.0947(7) 0.6420(8)
C1_21 C 0.3052(8) 0.1092(8) 0.5769(9)
H1_21 H 0.3250 0.1325 0.5755
C2_21 C 0.4068(9) 0.0848(9) 0.6688(9)
C3_21 C 0.4101(10) 0.0438(10) 0.6909(10)
H2_21 H 0.4334 0.0382 0.7100
C4_21 C 0.3421(9) 0.0630(9) 0.6359(9)
C5_21 C 0.4917(10) 0.1522(11) 0.7014(10)
H3_21 H 0.5164 0.1591 0.7181
C6_21 C 0.3427(12) 0.0227(10) 0.6559(10)
H4_21 H 0.3202 0.0023 0.6515
C7_21 C 0.2521(10) 0.0666(11) 0.5667(13)
C8_21 C 0.3791(12) 0.0133(11) 0.6836(12)
C9_21 C 0.4414(8) 0.1555(8) 0.6545(8)
H6_21 H 0.4232 0.1652 0.6320
H7_21 H 0.2301 0.0502 0.5593
O1_21 O 0.2663(11) 0.2147(11) 0.5529(11)
N8_21 N 0.1905(7) 0.0746(8) 0.3953(7)
N9_21 N 0.2297(7) 0.1060(7) 0.4474(7)
N10_21 N 0.2262(9) 0.0473(8) 0.4035(9)
N11_21 N 0.0635(6) 0.1181(7) 0.3251(6)
N12_21 N 0.0318(10) 0.1156(10) 0.2939(8)
N13_21 N 0.1268(7) 0.0947(7) 0.3580(8)
C10_21 C 0.1948(8) 0.1092(8) 0.4231(9)
H8_21 H 0.1750 0.1325 0.4245
C11_21 C 0.0932(9) 0.0848(9) 0.3312(9)
C12_21 C 0.0899(10) 0.0438(10) 0.3091(10)
H9_21 H 0.0666 0.0382 0.2900
C13_21 C 0.1579(9) 0.0630(9) 0.3641(9)
C14_21 C 0.0083(10) 0.1522(11) 0.2986(10)
C15_21 C 0.1573(12) 0.0227(10) 0.3441(10)
H11_21 H 0.1798 0.0023 0.3485
C16_21 C 0.2479(10) 0.0666(11) 0.4333(13)
C17_21 C 0.1209(12) 0.0133(11) 0.3164(12)
C18_21 C 0.0586(8) 0.1555(8) 0.3455(8)
H13_21 H 0.0768 0.1652 0.3680
H14_21 H 0.2699 0.0502 0.4407
O2_21 O 0.2337(11) 0.2147(11) 0.4471(11)
H10_21 H 0.9836 0.1591 0.2819
H10_22 H 0.0164 0.6591 0.2181
N8_22 N 0.8095(7) 0.5746(8) 0.1047(7)
N9_22 N 0.7703(7) 0.6060(7) 0.0526(7)
N10_22 N 0.7738(9) 0.5473(8) 0.0965(9)
N11_22 N 0.9365(6) 0.6181(7) 0.1749(6)
N12_22 N 0.9682(10) 0.6156(10) 0.2061(8)
N13_22 N 0.8732(7) 0.5947(7) 0.1420(8)
C10_22 C 0.8052(8) 0.6092(8) 0.0769(9)
H8_22 H 0.8250 0.6325 0.0755
C11_22 C 0.9068(9) 0.5848(9) 0.1688(9)
C12_22 C 0.9101(10) 0.5438(10) 0.1909(10)
H9_22 H 0.9334 0.5382 0.2100
C13_22 C 0.8421(9) 0.5630(9) 0.1359(9)
C14_22 C 0.9917(10) 0.6522(11) 0.2014(10)
C15_22 C 0.8427(12) 0.5227(10) 0.1559(10)
H11_22 H 0.8202 0.5023 0.1515
C16_22 C 0.7521(10) 0.5666(11) 0.0667(13)
C17_22 C 0.8791(12) 0.5133(11) 0.1836(12)
H12_11 H 0.8815 0.4858 0.1968
C18_22 C 0.9414(8) 0.6555(8) 0.1545(8)
H13_22 H 0.9232 0.6652 0.1320
H14_22 H 0.7301 0.5502 0.0593
O2_22 O 0.7663(11) 0.7147(11) 0.0529(11)
N1_22 N 0.6905(7) 0.5746(8) 0.8953(7)
N2_22 N 0.7297(7) 0.6060(7) 0.9474(7)
N3_22 N 0.7262(9) 0.5473(8) 0.9035(9)
N4_22 N 0.5635(6) 0.6181(7) 0.8251(6)
N5_22 N 0.5318(10) 0.6156(10) 0.7939(8)
N6_22 N 0.6268(7) 0.5947(7) 0.8580(8)
C1_22 C 0.6948(8) 0.6092(8) 0.9231(9)
H1_22 H 0.6750 0.6325 0.9245
C2_22 C 0.5932(9) 0.5848(9) 0.8312(9)
C3_22 C 0.5899(10) 0.5438(10) 0.8091(10)
H2_22 H 0.5666 0.5382 0.7900
C4_22 C 0.6579(9) 0.5630(9) 0.8641(9)
C5_22 C 0.5083(10) 0.6522(11) 0.7986(10)
H3_22 H 0.4836 0.6591 0.7819
C6_22 C 0.6573(12) 0.5227(10) 0.8441(10)
H4_22 H 0.6798 0.5023 0.8485
C7_22 C 0.7479(10) 0.5666(11) 0.9333(13)
C8_22 C 0.6209(12) 0.5133(11) 0.8164(12)
H5_11 H 0.6185 0.4858 0.8032
C9_22 C 0.5586(8) 0.6555(8) 0.8455(8)
H6_22 H 0.5768 0.6652 0.8680
H7_22 H 0.7699 0.5502 0.9407
O1_22 O 0.7337(11) 0.7147(11) 0.9471(11)
H3_23 H 0.0164 0.3409 0.2819
N1_23 N 0.8095(7) 0.4254(8) 0.3953(7)
N2_23 N 0.7703(7) 0.3940(7) 0.4474(7)
N3_23 N 0.7738(9) 0.4527(8) 0.4035(9)
N4_23 N 0.9365(6) 0.3819(7) 0.3251(6)
N5_23 N 0.9682(10) 0.3844(10) 0.2939(8)
N6_23 N 0.8732(7) 0.4053(7) 0.3580(8)
C1_23 C 0.8052(8) 0.3908(8) 0.4231(9)
H1_23 H 0.8250 0.3675 0.4245
C2_23 C 0.9068(9) 0.4152(9) 0.3312(9)
C3_23 C 0.9101(10) 0.4562(10) 0.3091(10)
H2_23 H 0.9334 0.4618 0.2900
C4_23 C 0.8421(9) 0.4370(9) 0.3641(9)
C5_23 C 0.9917(10) 0.3478(11) 0.2986(10)
C6_23 C 0.8427(12) 0.4773(10) 0.3441(10)
H4_23 H 0.8202 0.4977 0.3485
C7_23 C 0.7521(10) 0.4334(11) 0.4333(13)
C8_23 C 0.8791(12) 0.4867(11) 0.3164(12)
H5_12 H 0.8815 0.5142 0.3032
C9_23 C 0.9414(8) 0.3445(8) 0.3455(8)
H6_23 H 0.9232 0.3348 0.3680
H7_23 H 0.7301 0.4498 0.4407
O1_23 O 0.7663(11) 0.2853(11) 0.4471(11)
N8_23 N 0.6905(7) 0.4254(8) 0.6047(7)
N9_23 N 0.7297(7) 0.3940(7) 0.5526(7)
N10_23 N 0.7262(9) 0.4527(8) 0.5965(9)
N11_23 N 0.5635(6) 0.3819(7) 0.6749(6)
N12_23 N 0.5318(10) 0.3844(10) 0.7061(8)
N13_23 N 0.6268(7) 0.4053(7) 0.6420(8)
C10_23 C 0.6948(8) 0.3908(8) 0.5769(9)
H8_23 H 0.6750 0.3675 0.5755
C11_23 C 0.5932(9) 0.4152(9) 0.6688(9)
C12_23 C 0.5899(10) 0.4562(10) 0.6909(10)
H9_23 H 0.5666 0.4618 0.7100
C13_23 C 0.6579(9) 0.4370(9) 0.6359(9)
C14_23 C 0.5083(10) 0.3478(11) 0.7014(10)
H10_23 H 0.4836 0.3409 0.7181
C15_23 C 0.6573(12) 0.4773(10) 0.6559(10)
H11_23 H 0.6798 0.4977 0.6515
C16_23 C 0.7479(10) 0.4334(11) 0.5667(13)
C17_23 C 0.6209(12) 0.4867(11) 0.6836(12)
H12_12 H 0.6185 0.5142 0.6968
C18_23 C 0.5586(8) 0.3445(8) 0.6545(8)
H13_23 H 0.5768 0.3348 0.6320
H14_23 H 0.7699 0.4498 0.5593
O2_23 O 0.7337(11) 0.2853(11) 0.5529(11)
N1_24 N 0.1905(7) 0.9254(8) 0.1047(7)
N2_24 N 0.2297(7) 0.8940(7) 0.0526(7)
N3_24 N 0.2262(9) 0.9527(8) 0.0965(9)
N4_24 N 0.0635(6) 0.8819(7) 0.1749(6)
N5_24 N 0.0318(10) 0.8844(10) 0.2061(8)
N6_24 N 0.1268(7) 0.9053(7) 0.1420(8)
C1_24 C 0.1948(8) 0.8908(8) 0.0769(9)
H1_24 H 0.1750 0.8675 0.0755
C2_24 C 0.0932(9) 0.9152(9) 0.1688(9)
C3_24 C 0.0899(10) 0.9562(10) 0.1909(10)
H2_24 H 0.0666 0.9618 0.2100
C4_24 C 0.1579(9) 0.9370(9) 0.1359(9)
C5_24 C 0.0083(10) 0.8478(11) 0.2014(10)
C6_24 C 0.1573(12) 0.9773(10) 0.1559(10)
H4_24 H 0.1798 0.9977 0.1515
C7_24 C 0.2479(10) 0.9334(11) 0.0667(13)
C8_24 C 0.1209(12) 0.9867(11) 0.1836(12)
C9_24 C 0.0586(8) 0.8445(8) 0.1545(8)
H6_24 H 0.0768 0.8348 0.1320
H7_24 H 0.2699 0.9498 0.0593
O1_24 O 0.2337(11) 0.7853(11) 0.0529(11)
N8_24 N 0.3095(7) 0.9254(8) 0.8953(7)
N9_24 N 0.2703(7) 0.8940(7) 0.9474(7)
N10_24 N 0.2738(9) 0.9527(8) 0.9035(9)
N11_24 N 0.4365(6) 0.8819(7) 0.8251(6)
N12_24 N 0.4682(10) 0.8844(10) 0.7939(8)
N13_24 N 0.3732(7) 0.9053(7) 0.8580(8)
C10_24 C 0.3052(8) 0.8908(8) 0.9231(9)
H8_24 H 0.3250 0.8675 0.9245
C11_24 C 0.4068(9) 0.9152(9) 0.8312(9)
C12_24 C 0.4101(10) 0.9562(10) 0.8091(10)
H9_24 H 0.4334 0.9618 0.7900
C13_24 C 0.3421(9) 0.9370(9) 0.8641(9)
C14_24 C 0.4917(10) 0.8478(11) 0.7986(10)
H10_24 H 0.5164 0.8409 0.7819
C15_24 C 0.3427(12) 0.9773(10) 0.8441(10)
H11_24 H 0.3202 0.9977 0.8485
C16_24 C 0.2521(10) 0.9334(11) 0.9333(13)
C17_24 C 0.3791(12) 0.9867(11) 0.8164(12)
C18_24 C 0.4414(8) 0.8445(8) 0.8455(8)
H13_24 H 0.4232 0.8348 0.8680
H14_24 H 0.2301 0.9498 0.9407
O2_24 O 0.2663(11) 0.7853(11) 0.9471(11)
H3_24 H 0.9836 0.8409 0.2181
H5_13 H 0.3032 0.6185 0.0142
H12_13 H 0.6968 0.8815 0.0142
H12_14 H 0.1968 0.6185 0.9858
H5_14 H 0.8032 0.8815 0.9858
H5_15 H 0.0142 0.3032 0.6185
H12_15 H 0.0142 0.6968 0.8815
H12_16 H 0.9858 0.1968 0.6185
H5_16 H 0.9858 0.8032 0.8815
H5_17 H 0.6185 0.0142 0.3032
H12_17 H 0.8815 0.0142 0.6968
H12_18 H 0.6185 0.9858 0.1968
H5_18 H 0.8815 0.9858 0.8032
H5_19 H 0.6968 0.3815 0.9858
H12_19 H 0.3032 0.1185 0.9858
H5_20 H 0.1968 0.1185 0.0142
H12_20 H 0.8032 0.3815 0.0142
H5_21 H 0.9858 0.6968 0.3815
H12_21 H 0.9858 0.3032 0.1185
H5_22 H 0.0142 0.1968 0.1185
H12_22 H 0.0142 0.8032 0.3815
H5_23 H 0.3815 0.9858 0.6968
H12_23 H 0.1185 0.9858 0.3032
H5_24 H 0.1185 0.0142 0.1968
H12_24 H 0.3815 0.0142 0.8032
loop_
_geom_bond_atom_site_label_1
_geom_bond_atom_site_label_2
_geom_bond_site_symmetry_1
_geom_bond_site_symmetry_2
Cd1 N2 1_555 1_555
N1 N3 1_555 1_555
N2 C1 1_555 1_555
N3 C7 1_555 1_555
N4 N5 1_555 1_555
N5 C5 1_555 1_555
N6 C2 1_555 1_555
N7 C5 1_555 1_555
C1 N1 1_555 1_555
H1 C1 1_555 1_555
C2 N4 1_555 1_555
C3 C2 1_555 1_555
H2 C3 1_555 1_555
C4 N1 1_555 1_555
C5 H3 1_555 1_555
C6 C4 1_555 1_555
H4 C6 1_555 1_555
C7 N2 1_555 1_555
C8 C3 1_555 1_555
C9 N4 1_555 1_555
H6 C9 1_555 1_555
H7 C7 1_555 1_555
O1 Cd1 1_555 1_555
N8 N10 1_555 1_555
N9 Cd1 1_555 1_555
N10 C16 1_555 1_555
N11 N12 1_555 1_555
N12 C14 1_555 1_555
N13 C11 1_555 1_555
N14 C14 1_555 1_555
C10 N8 1_555 1_555
H8 C10 1_555 1_555
C11 N11 1_555 1_555
C12 C11 1_555 1_555
H9 C12 1_555 1_555
C13 N8 1_555 1_555
C15 C13 1_555 1_555
H11 C15 1_555 1_555
C16 N9 1_555 1_555
C17 C12 1_555 1_555
C18 N11 1_555 1_555
H13 C18 1_555 1_555
H14 C16 1_555 1_555
O2 Cd1 1_555 1_555
Cd2_2 N14 1_555 1_555
Cd3 N7 1_555 1_555
N15 Cd1 1_555 1_555
N16 Cd1 1_555 1_555
N6 C4 1_555 1_555
N7 C9 1_555 1_555
C6 C8 1_555 1_555
N9 C10 1_555 1_555
N13 C13 1_555 1_555
N14 C18 1_555 1_555
C15 C17 1_555 1_555
Cd1_2 N2_2 1_555 1_555
N1_2 N3_2 1_555 1_555
N2_2 C1_2 1_555 1_555
N3_2 C7_2 1_555 1_555
N4_2 N5_2 1_555 1_555
N5_2 C5_2 1_555 1_555
N6_2 C2_2 1_555 1_555
N7_2 C5_2 1_555 1_555
C1_2 N1_2 1_555 1_555
H1_2 C1_2 1_555 1_555
C2_2 N4_2 1_555 1_555
C3_2 C2_2 1_555 1_555
H2_2 C3_2 1_555 1_555
C4_2 N1_2 1_555 1_555
C5_2 H3_2 1_555 1_555
C6_2 C4_2 1_555 1_555
H4_2 C6_2 1_555 1_555
C7_2 N2_2 1_555 1_555
C8_2 C3_2 1_555 1_555
H5 C8_2 1_555 1_555
C9_2 N4_2 1_555 1_555
H6_2 C9_2 1_555 1_555
H7_2 C7_2 1_555 1_555
O1_2 Cd1_2 1_555 1_555
Cd3_2 N7_2 1_555 1_555
N16_2 Cd1_2 1_555 1_555
N6_2 C4_2 1_555 1_555
N7_2 C9_2 1_555 1_555
C6_2 C8_2 1_555 1_555
N8_2 N10_2 1_555 1_555
N9_2 Cd1_3 1_555 1_555
N10_2 C16_2 1_555 1_555
N11_2 N12_2 1_555 1_555
N12_2 C14_2 1_555 1_555
N13_2 C11_2 1_555 1_555
N14_2 C14_2 1_555 1_555
C10_2 N8_2 1_555 1_555
H8_2 C10_2 1_555 1_555
C11_2 N11_2 1_555 1_555
C12_2 C11_2 1_555 1_555
H9_2 C12_2 1_555 1_555
C13_2 N8_2 1_555 1_555
C15_2 C13_2 1_555 1_555
H11_2 C15_2 1_555 1_555
C16_2 N9_2 1_555 1_555
C17_2 C12_2 1_555 1_555
H12 C17_2 1_555 1_555
C18_2 N11_2 1_555 1_555
H13_2 C18_2 1_555 1_555
H14_2 C16_2 1_555 1_555
O2_2 Cd1_3 1_555 1_555
Cd2_3 N14_2 1_555 1_555
N15_2 Cd1_3 1_555 1_555
N9_2 C10_2 1_555 1_555
N13_2 C13_2 1_555 1_555
N14_2 C18_2 1_555 1_555
C15_2 C17_2 1_555 1_555
Cd1_4 N2_3 1_555 1_555
N1_3 N3_3 1_555 1_555
N2_3 C1_3 1_555 1_555
N3_3 C7_3 1_555 1_555
N4_3 N5_3 1_555 1_555
N5_3 C5_3 1_555 1_555
N6_3 C2_3 1_555 1_555
N7_3 C5_3 1_555 1_555
C1_3 N1_3 1_555 1_555
H1_3 C1_3 1_555 1_555
C2_3 N4_3 1_555 1_555
C3_3 C2_3 1_555 1_555
H2_3 C3_3 1_555 1_555
C4_3 N1_3 1_555 1_555
C6_3 C4_3 1_555 1_555
H4_3 C6_3 1_555 1_555
C7_3 N2_3 1_555 1_555
C8_3 C3_3 1_555 1_555
H5_2 C8_3 1_555 1_555
C9_3 N4_3 1_555 1_555
H6_3 C9_3 1_555 1_555
H7_3 C7_3 1_555 1_555
O1_3 Cd1_4 1_555 1_555
N8_3 N10_3 1_555 1_555
N9_3 Cd1_4 1_555 1_555
N10_3 C16_3 1_555 1_555
N11_3 N12_3 1_555 1_555
N12_3 C14_3 1_555 1_555
N13_3 C11_3 1_555 1_555
N14_3 C14_3 1_555 1_555
C10_3 N8_3 1_555 1_555
H8_3 C10_3 1_555 1_555
C11_3 N11_3 1_555 1_555
C12_3 C11_3 1_555 1_555
H9_3 C12_3 1_555 1_555
C13_3 N8_3 1_555 1_555
C14_3 H10_3 1_555 1_555
C15_3 C13_3 1_555 1_555
H11_3 C15_3 1_555 1_555
C16_3 N9_3 1_555 1_555
C17_3 C12_3 1_555 1_555
H12_2 C17_3 1_555 1_555
C18_3 N11_3 1_555 1_555
H13_3 C18_3 1_555 1_555
H14_3 C16_3 1_555 1_555
O2_3 Cd1_4 1_555 1_555
Cd3 N14_3 1_555 1_555
Cd2 N7_3 1_555 1_555
N15_3 Cd1_4 1_555 1_555
N16_3 Cd1_4 1_555 1_555
N6_3 C4_3 1_555 1_555
N7_3 C9_3 1_555 1_555
C6_3 C8_3 1_555 1_555
N9_3 C10_3 1_555 1_555
N13_3 C13_3 1_555 1_555
N14_3 C18_3 1_555 1_555
C15_3 C17_3 1_555 1_555
N8_4 N10_4 1_555 1_555
N9_4 Cd1_5 1_555 1_555
N10_4 C16_4 1_555 1_555
N11_4 N12_4 1_555 1_555
N12_4 C14_4 1_555 1_555
N13_4 C11_4 1_555 1_555
N14_4 C14_4 1_555 1_555
C10_4 N8_4 1_555 1_555
H8_4 C10_4 1_555 1_555
C11_4 N11_4 1_555 1_555
C12_4 C11_4 1_555 1_555
H9_4 C12_4 1_555 1_555
C13_4 N8_4 1_555 1_555
C14_4 H10_4 1_555 1_555
C15_4 C13_4 1_555 1_555
H11_4 C15_4 1_555 1_555
C16_4 N9_4 1_555 1_555
C17_4 C12_4 1_555 1_555
C18_4 N11_4 1_555 1_555
H13_4 C18_4 1_555 1_555
H14_4 C16_4 1_555 1_555
O2_4 Cd1_5 1_555 1_555
Cd3_2 N14_4 1_555 1_555
N15_4 Cd1_5 1_555 1_555
N9_4 C10_4 1_555 1_555
N13_4 C13_4 1_555 1_555
N14_4 C18_4 1_555 1_555
C15_4 C17_4 1_555 1_555
Cd1_6 N2_4 1_555 1_555
N1_4 N3_4 1_555 1_555
N2_4 C1_4 1_555 1_555
N3_4 C7_4 1_555 1_555
N4_4 N5_4 1_555 1_555
N5_4 C5_4 1_555 1_555
N6_4 C2_4 1_555 1_555
N7_4 C5_4 1_555 1_555
C1_4 N1_4 1_555 1_555
H1_4 C1_4 1_555 1_555
C2_4 N4_4 1_555 1_555
C3_4 C2_4 1_555 1_555
H2_4 C3_4 1_555 1_555
C4_4 N1_4 1_555 1_555
C6_4 C4_4 1_555 1_555
H4_4 C6_4 1_555 1_555
C7_4 N2_4 1_555 1_555
C8_4 C3_4 1_555 1_555
C9_4 N4_4 1_555 1_555
H6_4 C9_4 1_555 1_555
H7_4 C7_4 1_555 1_555
O1_4 Cd1_6 1_555 1_555
Cd2_4 N7_4 1_555 1_555
N16_4 Cd1_6 1_555 1_555
N6_4 C4_4 1_555 1_555
N7_4 C9_4 1_555 1_555
C6_4 C8_4 1_555 1_555
Cd1_7 N2_5 1_555 1_555
N1_5 N3_5 1_555 1_555
N2_5 C1_5 1_555 1_555
N3_5 C7_5 1_555 1_555
N4_5 N5_5 1_555 1_555
N5_5 C5_5 1_555 1_555
N6_5 C2_5 1_555 1_555
N7_5 C5_5 1_555 1_555
C1_5 N1_5 1_555 1_555
H1_5 C1_5 1_555 1_555
C2_5 N4_5 1_555 1_555
C3_5 C2_5 1_555 1_555
H2_5 C3_5 1_555 1_555
C4_5 N1_5 1_555 1_555
C5_5 H3_5 1_555 1_555
C6_5 C4_5 1_555 1_555
H4_5 C6_5 1_555 1_555
C7_5 N2_5 1_555 1_555
C8_5 C3_5 1_555 1_555
C9_5 N4_5 1_555 1_555
H6_5 C9_5 1_555 1_555
H7_5 C7_5 1_555 1_555
O1_5 Cd1_7 1_555 1_555
N8_5 N10_5 1_555 1_555
N9_5 Cd1_7 1_555 1_555
N10_5 C16_5 1_555 1_555
N11_5 N12_5 1_555 1_555
N12_5 C14_5 1_555 1_555
N13_5 C11_5 1_555 1_555
N14_5 C14_5 1_555 1_555
C10_5 N8_5 1_555 1_555
H8_5 C10_5 1_555 1_555
C11_5 N11_5 1_555 1_555
C12_5 C11_5 1_555 1_555
H9_5 C12_5 1_555 1_555
C13_5 N8_5 1_555 1_555
C15_5 C13_5 1_555 1_555
H11_5 C15_5 1_555 1_555
C16_5 N9_5 1_555 1_555
C17_5 C12_5 1_555 1_555
C18_5 N11_5 1_555 1_555
H13_5 C18_5 1_555 1_555
H14_5 C16_5 1_555 1_555
O2_5 Cd1_7 1_555 1_555
Cd2_6 N14_5 1_555 1_555
Cd3_3 N7_5 1_555 1_555
N15_5 Cd1_7 1_555 1_555
N16_5 Cd1_7 1_555 1_555
N6_5 C4_5 1_555 1_555
N7_5 C9_5 1_555 1_555
C6_5 C8_5 1_555 1_555
N9_5 C10_5 1_555 1_555
N13_5 C13_5 1_555 1_555
N14_5 C18_5 1_555 1_555
C15_5 C17_5 1_555 1_555
Cd1_8 N2_6 1_555 1_555
N1_6 N3_6 1_555 1_555
N2_6 C1_6 1_555 1_555
N3_6 C7_6 1_555 1_555
N4_6 N5_6 1_555 1_555
N5_6 C5_6 1_555 1_555
N6_6 C2_6 1_555 1_555
N7_6 C5_6 1_555 1_555
C1_6 N1_6 1_555 1_555
H1_6 C1_6 1_555 1_555
C2_6 N4_6 1_555 1_555
C3_6 C2_6 1_555 1_555
H2_6 C3_6 1_555 1_555
C4_6 N1_6 1_555 1_555
C5_6 H3_6 1_555 1_555
C6_6 C4_6 1_555 1_555
H4_6 C6_6 1_555 1_555
C7_6 N2_6 1_555 1_555
C8_6 C3_6 1_555 1_555
H5_3 C8_6 1_555 1_555
C9_6 N4_6 1_555 1_555
H6_6 C9_6 1_555 1_555
H7_6 C7_6 1_555 1_555
O1_6 Cd1_8 1_555 1_555
Cd3_4 N7_6 1_555 1_555
N16_6 Cd1_8 1_555 1_555
N6_6 C4_6 1_555 1_555
N7_6 C9_6 1_555 1_555
C6_6 C8_6 1_555 1_555
N8_6 N10_6 1_555 1_555
N9_6 Cd1_9 1_555 1_555
N10_6 C16_6 1_555 1_555
N11_6 N12_6 1_555 1_555
N12_6 C14_6 1_555 1_555
N13_6 C11_6 1_555 1_555
N14_6 C14_6 1_555 1_555
C10_6 N8_6 1_555 1_555
H8_6 C10_6 1_555 1_555
C11_6 N11_6 1_555 1_555
C12_6 C11_6 1_555 1_555
H9_6 C12_6 1_555 1_555
C13_6 N8_6 1_555 1_555
C15_6 C13_6 1_555 1_555
H11_6 C15_6 1_555 1_555
C16_6 N9_6 1_555 1_555
C17_6 C12_6 1_555 1_555
H12_3 C17_6 1_555 1_555
C18_6 N11_6 1_555 1_555
H13_6 C18_6 1_555 1_555
H14_6 C16_6 1_555 1_555
O2_6 Cd1_9 1_555 1_555
Cd2_7 N14_6 1_555 1_555
N15_6 Cd1_9 1_555 1_555
N9_6 C10_6 1_555 1_555
N13_6 C13_6 1_555 1_555
N14_6 C18_6 1_555 1_555
C15_6 C17_6 1_555 1_555
Cd1_10 N2_7 1_555 1_555
N1_7 N3_7 1_555 1_555
N2_7 C1_7 1_555 1_555
N3_7 C7_7 1_555 1_555
N4_7 N5_7 1_555 1_555
N5_7 C5_7 1_555 1_555
N6_7 C2_7 1_555 1_555
N7_7 C5_7 1_555 1_555
C1_7 N1_7 1_555 1_555
H1_7 C1_7 1_555 1_555
C2_7 N4_7 1_555 1_555
C3_7 C2_7 1_555 1_555
H2_7 C3_7 1_555 1_555
C4_7 N1_7 1_555 1_555
C6_7 C4_7 1_555 1_555
H4_7 C6_7 1_555 1_555
C7_7 N2_7 1_555 1_555
C8_7 C3_7 1_555 1_555
H5_4 C8_7 1_555 1_555
C9_7 N4_7 1_555 1_555
H6_7 C9_7 1_555 1_555
H7_7 C7_7 1_555 1_555
O1_7 Cd1_10 1_555 1_555
N8_7 N10_7 1_555 1_555
N9_7 Cd1_10 1_555 1_555
N10_7 C16_7 1_555 1_555
N11_7 N12_7 1_555 1_555
N12_7 C14_7 1_555 1_555
N13_7 C11_7 1_555 1_555
N14_7 C14_7 1_555 1_555
C10_7 N8_7 1_555 1_555
H8_7 C10_7 1_555 1_555
C11_7 N11_7 1_555 1_555
C12_7 C11_7 1_555 1_555
H9_7 C12_7 1_555 1_555
C13_7 N8_7 1_555 1_555
C14_7 H10_7 1_555 1_555
C15_7 C13_7 1_555 1_555
H11_7 C15_7 1_555 1_555
C16_7 N9_7 1_555 1_555
C17_7 C12_7 1_555 1_555
H12_4 C17_7 1_555 1_555
C18_7 N11_7 1_555 1_555
H13_7 C18_7 1_555 1_555
H14_7 C16_7 1_555 1_555
O2_7 Cd1_10 1_555 1_555
Cd3_3 N14_7 1_555 1_555
Cd2_5 N7_7 1_555 1_555
N15_7 Cd1_10 1_555 1_555
N16_7 Cd1_10 1_555 1_555
N6_7 C4_7 1_555 1_555
N7_7 C9_7 1_555 1_555
C6_7 C8_7 1_555 1_555
N9_7 C10_7 1_555 1_555
N13_7 C13_7 1_555 1_555
N14_7 C18_7 1_555 1_555
C15_7 C17_7 1_555 1_555
N8_8 N10_8 1_555 1_555
N9_8 Cd1_11 1_555 1_555
N10_8 C16_8 1_555 1_555
N11_8 N12_8 1_555 1_555
N12_8 C14_8 1_555 1_555
N13_8 C11_8 1_555 1_555
N14_8 C14_8 1_555 1_555
C10_8 N8_8 1_555 1_555
H8_8 C10_8 1_555 1_555
C11_8 N11_8 1_555 1_555
C12_8 C11_8 1_555 1_555
H9_8 C12_8 1_555 1_555
C13_8 N8_8 1_555 1_555
C14_8 H10_8 1_555 1_555
C15_8 C13_8 1_555 1_555
H11_8 C15_8 1_555 1_555
C16_8 N9_8 1_555 1_555
C17_8 C12_8 1_555 1_555
C18_8 N11_8 1_555 1_555
H13_8 C18_8 1_555 1_555
H14_8 C16_8 1_555 1_555
O2_8 Cd1_11 1_555 1_555
Cd3_4 N14_8 1_555 1_555
N15_8 Cd1_11 1_555 1_555
N9_8 C10_8 1_555 1_555
N13_8 C13_8 1_555 1_555
N14_8 C18_8 1_555 1_555
C15_8 C17_8 1_555 1_555
Cd1_12 N2_8 1_555 1_555
N1_8 N3_8 1_555 1_555
N2_8 C1_8 1_555 1_555
N3_8 C7_8 1_555 1_555
N4_8 N5_8 1_555 1_555
N5_8 C5_8 1_555 1_555
N6_8 C2_8 1_555 1_555
N7_8 C5_8 1_555 1_555
C1_8 N1_8 1_555 1_555
H1_8 C1_8 1_555 1_555
C2_8 N4_8 1_555 1_555
C3_8 C2_8 1_555 1_555
H2_8 C3_8 1_555 1_555
C4_8 N1_8 1_555 1_555
C6_8 C4_8 1_555 1_555
H4_8 C6_8 1_555 1_555
C7_8 N2_8 1_555 1_555
C8_8 C3_8 1_555 1_555
C9_8 N4_8 1_555 1_555
H6_8 C9_8 1_555 1_555
H7_8 C7_8 1_555 1_555
O1_8 Cd1_12 1_555 1_555
Cd2_8 N7_8 1_555 1_555
N16_8 Cd1_12 1_555 1_555
N6_8 C4_8 1_555 1_555
N7_8 C9_8 1_555 1_555
C6_8 C8_8 1_555 1_555
Cd1_13 N2_9 1_555 1_555
N1_9 N3_9 1_555 1_555
N2_9 C1_9 1_555 1_555
N3_9 C7_9 1_555 1_555
N4_9 N5_9 1_555 1_555
N5_9 C5_9 1_555 1_555
N6_9 C2_9 1_555 1_555
N7_9 C5_9 1_555 1_555
C1_9 N1_9 1_555 1_555
H1_9 C1_9 1_555 1_555
C2_9 N4_9 1_555 1_555
C3_9 C2_9 1_555 1_555
H2_9 C3_9 1_555 1_555
C4_9 N1_9 1_555 1_555
C5_9 H3_9 1_555 1_555
C6_9 C4_9 1_555 1_555
H4_9 C6_9 1_555 1_555
C7_9 N2_9 1_555 1_555
C8_9 C3_9 1_555 1_555
C9_9 N4_9 1_555 1_555
H6_9 C9_9 1_555 1_555
H7_9 C7_9 1_555 1_555
O1_9 Cd1_13 1_555 1_555
N8_9 N10_9 1_555 1_555
N9_9 Cd1_13 1_555 1_555
N10_9 C16_9 1_555 1_555
N11_9 N12_9 1_555 1_555
N12_9 C14_9 1_555 1_555
N13_9 C11_9 1_555 1_555
N14_9 C14_9 1_555 1_555
C10_9 N8_9 1_555 1_555
H8_9 C10_9 1_555 1_555
C11_9 N11_9 1_555 1_555
C12_9 C11_9 1_555 1_555
H9_9 C12_9 1_555 1_555
C13_9 N8_9 1_555 1_555
C15_9 C13_9 1_555 1_555
H11_9 C15_9 1_555 1_555
C16_9 N9_9 1_555 1_555
C17_9 C12_9 1_555 1_555
C18_9 N11_9 1_555 1_555
H13_9 C18_9 1_555 1_555
H14_9 C16_9 1_555 1_555
O2_9 Cd1_13 1_555 1_555
Cd2_10 N14_9 1_555 1_555
Cd3_5 N7_9 1_555 1_555
N15_9 Cd1_13 1_555 1_555
N16_9 Cd1_13 1_555 1_555
N6_9 C4_9 1_555 1_555
N7_9 C9_9 1_555 1_555
C6_9 C8_9 1_555 1_555
N9_9 C10_9 1_555 1_555
N13_9 C13_9 1_555 1_555
N14_9 C18_9 1_555 1_555
C15_9 C17_9 1_555 1_555
Cd1_14 N2_10 1_555 1_555
N1_10 N3_10 1_555 1_555
N2_10 C1_10 1_555 1_555
N3_10 C7_10 1_555 1_555
N4_10 N5_10 1_555 1_555
N5_10 C5_10 1_555 1_555
N6_10 C2_10 1_555 1_555
N7_10 C5_10 1_555 1_555
C1_10 N1_10 1_555 1_555
H1_10 C1_10 1_555 1_555
C2_10 N4_10 1_555 1_555
C3_10 C2_10 1_555 1_555
H2_10 C3_10 1_555 1_555
C4_10 N1_10 1_555 1_555
C5_10 H3_10 1_555 1_555
C6_10 C4_10 1_555 1_555
H4_10 C6_10 1_555 1_555
C7_10 N2_10 1_555 1_555
C8_10 C3_10 1_555 1_555
H5_5 C8_10 1_555 1_555
C9_10 N4_10 1_555 1_555
H6_10 C9_10 1_555 1_555
H7_10 C7_10 1_555 1_555
O1_10 Cd1_14 1_555 1_555
Cd3_6 N7_10 1_555 1_555
N16_10 Cd1_14 1_555 1_555
N6_10 C4_10 1_555 1_555
N7_10 C9_10 1_555 1_555
C6_10 C8_10 1_555 1_555
N8_10 N10_10 1_555 1_555
N9_10 Cd1_15 1_555 1_555
N10_10 C16_10 1_555 1_555
N11_10 N12_10 1_555 1_555
N12_10 C14_10 1_555 1_555
N13_10 C11_10 1_555 1_555
N14_10 C14_10 1_555 1_555
C10_10 N8_10 1_555 1_555
H8_10 C10_10 1_555 1_555
C11_10 N11_10 1_555 1_555
C12_10 C11_10 1_555 1_555
H9_10 C12_10 1_555 1_555
C13_10 N8_10 1_555 1_555
C15_10 C13_10 1_555 1_555
H11_10 C15_10 1_555 1_555
C16_10 N9_10 1_555 1_555
C17_10 C12_10 1_555 1_555
H12_5 C17_10 1_555 1_555
C18_10 N11_10 1_555 1_555
H13_10 C18_10 1_555 1_555
H14_10 C16_10 1_555 1_555
O2_10 Cd1_15 1_555 1_555
Cd2_11 N14_10 1_555 1_555
N15_10 Cd1_15 1_555 1_555
N9_10 C10_10 1_555 1_555
N13_10 C13_10 1_555 1_555
N14_10 C18_10 1_555 1_555
C15_10 C17_10 1_555 1_555
Cd1_16 N2_11 1_555 1_555
N1_11 N3_11 1_555 1_555
N2_11 C1_11 1_555 1_555
N3_11 C7_11 1_555 1_555
N4_11 N5_11 1_555 1_555
N5_11 C5_11 1_555 1_555
N6_11 C2_11 1_555 1_555
N7_11 C5_11 1_555 1_555
C1_11 N1_11 1_555 1_555
H1_11 C1_11 1_555 1_555
C2_11 N4_11 1_555 1_555
C3_11 C2_11 1_555 1_555
H2_11 C3_11 1_555 1_555
C4_11 N1_11 1_555 1_555
C6_11 C4_11 1_555 1_555
H4_11 C6_11 1_555 1_555
C7_11 N2_11 1_555 1_555
C8_11 C3_11 1_555 1_555
H5_6 C8_11 1_555 1_555
C9_11 N4_11 1_555 1_555
H6_11 C9_11 1_555 1_555
H7_11 C7_11 1_555 1_555
O1_11 Cd1_16 1_555 1_555
N8_11 N10_11 1_555 1_555
N9_11 Cd1_16 1_555 1_555
N10_11 C16_11 1_555 1_555
N11_11 N12_11 1_555 1_555
N12_11 C14_11 1_555 1_555
N13_11 C11_11 1_555 1_555
N14_11 C14_11 1_555 1_555
C10_11 N8_11 1_555 1_555
H8_11 C10_11 1_555 1_555
C11_11 N11_11 1_555 1_555
C12_11 C11_11 1_555 1_555
H9_11 C12_11 1_555 1_555
C13_11 N8_11 1_555 1_555
C14_11 H10_11 1_555 1_555
C15_11 C13_11 1_555 1_555
H11_11 C15_11 1_555 1_555
C16_11 N9_11 1_555 1_555
C17_11 C12_11 1_555 1_555
H12_6 C17_11 1_555 1_555
C18_11 N11_11 1_555 1_555
H13_11 C18_11 1_555 1_555
H14_11 C16_11 1_555 1_555
O2_11 Cd1_16 1_555 1_555
Cd3_5 N14_11 1_555 1_555
Cd2_9 N7_11 1_555 1_555
N15_11 Cd1_16 1_555 1_555
N16_11 Cd1_16 1_555 1_555
N6_11 C4_11 1_555 1_555
N7_11 C9_11 1_555 1_555
C6_11 C8_11 1_555 1_555
N9_11 C10_11 1_555 1_555
N13_11 C13_11 1_555 1_555
N14_11 C18_11 1_555 1_555
C15_11 C17_11 1_555 1_555
N8_12 N10_12 1_555 1_555
N9_12 Cd1_17 1_555 1_555
N10_12 C16_12 1_555 1_555
N11_12 N12_12 1_555 1_555
N12_12 C14_12 1_555 1_555
N13_12 C11_12 1_555 1_555
N14_12 C14_12 1_555 1_555
C10_12 N8_12 1_555 1_555
H8_12 C10_12 1_555 1_555
C11_12 N11_12 1_555 1_555
C12_12 C11_12 1_555 1_555
H9_12 C12_12 1_555 1_555
C13_12 N8_12 1_555 1_555
C14_12 H10_12 1_555 1_555
C15_12 C13_12 1_555 1_555
H11_12 C15_12 1_555 1_555
C16_12 N9_12 1_555 1_555
C17_12 C12_12 1_555 1_555
C18_12 N11_12 1_555 1_555
H13_12 C18_12 1_555 1_555
H14_12 C16_12 1_555 1_555
O2_12 Cd1_17 1_555 1_555
Cd3_6 N14_12 1_555 1_555
N15_12 Cd1_17 1_555 1_555
N9_12 C10_12 1_555 1_555
N13_12 C13_12 1_555 1_555
N14_12 C18_12 1_555 1_555
C15_12 C17_12 1_555 1_555
Cd1_18 N2_12 1_555 1_555
N1_12 N3_12 1_555 1_555
N2_12 C1_12 1_555 1_555
N3_12 C7_12 1_555 1_555
N4_12 N5_12 1_555 1_555
N5_12 C5_12 1_555 1_555
N6_12 C2_12 1_555 1_555
N7_12 C5_12 1_555 1_555
C1_12 N1_12 1_555 1_555
H1_12 C1_12 1_555 1_555
C2_12 N4_12 1_555 1_555
C3_12 C2_12 1_555 1_555
H2_12 C3_12 1_555 1_555
C4_12 N1_12 1_555 1_555
C6_12 C4_12 1_555 1_555
H4_12 C6_12 1_555 1_555
C7_12 N2_12 1_555 1_555
C8_12 C3_12 1_555 1_555
C9_12 N4_12 1_555 1_555
H6_12 C9_12 1_555 1_555
H7_12 C7_12 1_555 1_555
O1_12 Cd1_18 1_555 1_555
Cd2_12 N7_12 1_555 1_555
N16_12 Cd1_18 1_555 1_555
N6_12 C4_12 1_555 1_555
N7_12 C9_12 1_555 1_555
C6_12 C8_12 1_555 1_555
Cd3_6 N2_13 1_555 1_555
N1_13 N3_13 1_555 1_555
N2_13 C1_13 1_555 1_555
N3_13 C7_13 1_555 1_555
N4_13 N5_13 1_555 1_555
N5_13 C5_13 1_555 1_555
N6_13 C2_13 1_555 1_555
N15_7 C5_13 1_555 1_555
C1_13 N1_13 1_555 1_555
H1_13 C1_13 1_555 1_555
C2_13 N4_13 1_555 1_555
C3_13 C2_13 1_555 1_555
H2_13 C3_13 1_555 1_555
C4_13 N1_13 1_555 1_555
C5_13 H3_13 1_555 1_555
C6_13 C4_13 1_555 1_555
H4_13 C6_13 1_555 1_555
C7_13 N2_13 1_555 1_555
C8_13 C3_13 1_555 1_555
C9_13 N4_13 1_555 1_555
H6_13 C9_13 1_555 1_555
H7_13 C7_13 1_555 1_555
O1_13 Cd3_6 1_555 1_555
N8_13 N10_13 1_555 1_555
N9_13 Cd3_6 1_555 1_555
N10_13 C16_13 1_555 1_555
N11_13 N12_13 1_555 1_555
N12_13 C14_13 1_555 1_555
N13_13 C11_13 1_555 1_555
N16_6 C14_13 1_555 1_555
C10_13 N8_13 1_555 1_555
H8_13 C10_13 1_555 1_555
C11_13 N11_13 1_555 1_555
C12_13 C11_13 1_555 1_555
H9_13 C12_13 1_555 1_555
C13_13 N8_13 1_555 1_555
C15_13 C13_13 1_555 1_555
H11_13 C15_13 1_555 1_555
C16_13 N9_13 1_555 1_555
C17_13 C12_13 1_555 1_555
C18_13 N11_13 1_555 1_555
H13_13 C18_13 1_555 1_555
H14_13 C16_13 1_555 1_555
O2_13 Cd3_6 1_555 1_555
N6_13 C4_13 1_555 1_555
N15_7 C9_13 1_555 1_555
C6_13 C8_13 1_555 1_555
N9_13 C10_13 1_555 1_555
N13_13 C13_13 1_555 1_555
N16_6 C18_13 1_555 1_555
C15_13 C17_13 1_555 1_555
N8_14 N10_14 1_555 1_555
N9_14 Cd2_9 1_555 1_555
N10_14 C16_14 1_555 1_555
N11_14 N12_14 1_555 1_555
N12_14 C14_14 1_555 1_555
N13_14 C11_14 1_555 1_555
N16_8 C14_14 1_555 1_555
C10_14 N8_14 1_555 1_555
H8_14 C10_14 1_555 1_555
C11_14 N11_14 1_555 1_555
C12_14 C11_14 1_555 1_555
H9_14 C12_14 1_555 1_555
C13_14 N8_14 1_555 1_555
C15_14 C13_14 1_555 1_555
H11_14 C15_14 1_555 1_555
C16_14 N9_14 1_555 1_555
C17_14 C12_14 1_555 1_555
H12_7 C17_14 1_555 1_555
C18_14 N11_14 1_555 1_555
H13_14 C18_14 1_555 1_555
H14_14 C16_14 1_555 1_555
O2_14 Cd2_9 1_555 1_555
N9_14 C10_14 1_555 1_555
N13_14 C13_14 1_555 1_555
N16_8 C18_14 1_555 1_555
C15_14 C17_14 1_555 1_555
Cd2_10 N2_14 1_555 1_555
N1_14 N3_14 1_555 1_555
N2_14 C1_14 1_555 1_555
N3_14 C7_14 1_555 1_555
N4_14 N5_14 1_555 1_555
N5_14 C5_14 1_555 1_555
N6_14 C2_14 1_555 1_555
N15_5 C5_14 1_555 1_555
C1_14 N1_14 1_555 1_555
H1_14 C1_14 1_555 1_555
C2_14 N4_14 1_555 1_555
C3_14 C2_14 1_555 1_555
H2_14 C3_14 1_555 1_555
C4_14 N1_14 1_555 1_555
C5_14 H3_14 1_555 1_555
C6_14 C4_14 1_555 1_555
H4_14 C6_14 1_555 1_555
C7_14 N2_14 1_555 1_555
C8_14 C3_14 1_555 1_555
H5_7 C8_14 1_555 1_555
C9_14 N4_14 1_555 1_555
H6_14 C9_14 1_555 1_555
H7_14 C7_14 1_555 1_555
O1_14 Cd2_10 1_555 1_555
N6_14 C4_14 1_555 1_555
N15_5 C9_14 1_555 1_555
C6_14 C8_14 1_555 1_555
Cd3_5 N2_15 1_555 1_555
N1_15 N3_15 1_555 1_555
N2_15 C1_15 1_555 1_555
N3_15 C7_15 1_555 1_555
N4_15 N5_15 1_555 1_555
N5_15 C5_15 1_555 1_555
N6_15 C2_15 1_555 1_555
N15_6 C5_15 1_555 1_555
C1_15 N1_15 1_555 1_555
H1_15 C1_15 1_555 1_555
C2_15 N4_15 1_555 1_555
C3_15 C2_15 1_555 1_555
H2_15 C3_15 1_555 1_555
C4_15 N1_15 1_555 1_555
C6_15 C4_15 1_555 1_555
H4_15 C6_15 1_555 1_555
C7_15 N2_15 1_555 1_555
C8_15 C3_15 1_555 1_555
H5_8 C8_15 1_555 1_555
C9_15 N4_15 1_555 1_555
H6_15 C9_15 1_555 1_555
H7_15 C7_15 1_555 1_555
O1_15 Cd3_5 1_555 1_555
N8_15 N10_15 1_555 1_555
N9_15 Cd3_5 1_555 1_555
N10_15 C16_15 1_555 1_555
N11_15 N12_15 1_555 1_555
N12_15 C14_15 1_555 1_555
N13_15 C11_15 1_555 1_555
N16_7 C14_15 1_555 1_555
C10_15 N8_15 1_555 1_555
H8_15 C10_15 1_555 1_555
C11_15 N11_15 1_555 1_555
C12_15 C11_15 1_555 1_555
H9_15 C12_15 1_555 1_555
C13_15 N8_15 1_555 1_555
C14_15 H10_15 1_555 1_555
C15_15 C13_15 1_555 1_555
H11_15 C15_15 1_555 1_555
C16_15 N9_15 1_555 1_555
C17_15 C12_15 1_555 1_555
H12_8 C17_15 1_555 1_555
C18_15 N11_15 1_555 1_555
H13_15 C18_15 1_555 1_555
H14_15 C16_15 1_555 1_555
O2_15 Cd3_5 1_555 1_555
N6_15 C4_15 1_555 1_555
N15_6 C9_15 1_555 1_555
C6_15 C8_15 1_555 1_555
N9_15 C10_15 1_555 1_555
N13_15 C13_15 1_555 1_555
N16_7 C18_15 1_555 1_555
C15_15 C17_15 1_555 1_555
Cd2_11 N2_16 1_555 1_555
N1_16 N3_16 1_555 1_555
N2_16 C1_16 1_555 1_555
N3_16 C7_16 1_555 1_555
N4_16 N5_16 1_555 1_555
N5_16 C5_16 1_555 1_555
N6_16 C2_16 1_555 1_555
N15_8 C5_16 1_555 1_555
C1_16 N1_16 1_555 1_555
H1_16 C1_16 1_555 1_555
C2_16 N4_16 1_555 1_555
C3_16 C2_16 1_555 1_555
H2_16 C3_16 1_555 1_555
C4_16 N1_16 1_555 1_555
C6_16 C4_16 1_555 1_555
H4_16 C6_16 1_555 1_555
C7_16 N2_16 1_555 1_555
C8_16 C3_16 1_555 1_555
C9_16 N4_16 1_555 1_555
H6_16 C9_16 1_555 1_555
H7_16 C7_16 1_555 1_555
O1_16 Cd2_11 1_555 1_555
N6_16 C4_16 1_555 1_555
N15_8 C9_16 1_555 1_555
C6_16 C8_16 1_555 1_555
N8_16 N10_16 1_555 1_555
N9_16 Cd2_12 1_555 1_555
N10_16 C16_16 1_555 1_555
N11_16 N12_16 1_555 1_555
N12_16 C14_16 1_555 1_555
N13_16 C11_16 1_555 1_555
N16_5 C14_16 1_555 1_555
C10_16 N8_16 1_555 1_555
H8_16 C10_16 1_555 1_555
C11_16 N11_16 1_555 1_555
C12_16 C11_16 1_555 1_555
H9_16 C12_16 1_555 1_555
C13_16 N8_16 1_555 1_555
C14_16 H10_16 1_555 1_555
C15_16 C13_16 1_555 1_555
H11_16 C15_16 1_555 1_555
C16_16 N9_16 1_555 1_555
C17_16 C12_16 1_555 1_555
C18_16 N11_16 1_555 1_555
H13_16 C18_16 1_555 1_555
H14_16 C16_16 1_555 1_555
O2_16 Cd2_12 1_555 1_555
N9_16 C10_16 1_555 1_555
N13_16 C13_16 1_555 1_555
N16_5 C18_16 1_555 1_555
C15_16 C17_16 1_555 1_555
Cd3_2 N2_17 1_555 1_555
N1_17 N3_17 1_555 1_555
N2_17 C1_17 1_555 1_555
N3_17 C7_17 1_555 1_555
N4_17 N5_17 1_555 1_555
N5_17 C5_17 1_555 1_555
N6_17 C2_17 1_555 1_555
N15_11 C5_17 1_555 1_555
C1_17 N1_17 1_555 1_555
H1_17 C1_17 1_555 1_555
C2_17 N4_17 1_555 1_555
C3_17 C2_17 1_555 1_555
H2_17 C3_17 1_555 1_555
C4_17 N1_17 1_555 1_555
C5_17 H3_17 1_555 1_555
C6_17 C4_17 1_555 1_555
H4_17 C6_17 1_555 1_555
C7_17 N2_17 1_555 1_555
C8_17 C3_17 1_555 1_555
C9_17 N4_17 1_555 1_555
H6_17 C9_17 1_555 1_555
H7_17 C7_17 1_555 1_555
O1_17 Cd3_2 1_555 1_555
N8_17 N10_17 1_555 1_555
N9_17 Cd3_2 1_555 1_555
N10_17 C16_17 1_555 1_555
N11_17 N12_17 1_555 1_555
N12_17 C14_17 1_555 1_555
N13_17 C11_17 1_555 1_555
N16_10 C14_17 1_555 1_555
C10_17 N8_17 1_555 1_555
H8_17 C10_17 1_555 1_555
C11_17 N11_17 1_555 1_555
C12_17 C11_17 1_555 1_555
H9_17 C12_17 1_555 1_555
C13_17 N8_17 1_555 1_555
C15_17 C13_17 1_555 1_555
H11_17 C15_17 1_555 1_555
C16_17 N9_17 1_555 1_555
C17_17 C12_17 1_555 1_555
C18_17 N11_17 1_555 1_555
H13_17 C18_17 1_555 1_555
H14_17 C16_17 1_555 1_555
O2_17 Cd3_2 1_555 1_555
N6_17 C4_17 1_555 1_555
N15_11 C9_17 1_555 1_555
C6_17 C8_17 1_555 1_555
N9_17 C10_17 1_555 1_555
N13_17 C13_17 1_555 1_555
N16_10 C18_17 1_555 1_555
C15_17 C17_17 1_555 1_555
N8_18 N10_18 1_555 1_555
N9_18 Cd2 1_555 1_555
N10_18 C16_18 1_555 1_555
N11_18 N12_18 1_555 1_555
N12_18 C14_18 1_555 1_555
N13_18 C11_18 1_555 1_555
N16_12 C14_18 1_555 1_555
C10_18 N8_18 1_555 1_555
H8_18 C10_18 1_555 1_555
C11_18 N11_18 1_555 1_555
C12_18 C11_18 1_555 1_555
H9_18 C12_18 1_555 1_555
C13_18 N8_18 1_555 1_555
C15_18 C13_18 1_555 1_555
H11_18 C15_18 1_555 1_555
C16_18 N9_18 1_555 1_555
C17_18 C12_18 1_555 1_555
H12_9 C17_18 1_555 1_555
C18_18 N11_18 1_555 1_555
H13_18 C18_18 1_555 1_555
H14_18 C16_18 1_555 1_555
O2_18 Cd2 1_555 1_555
N9_18 C10_18 1_555 1_555
N13_18 C13_18 1_555 1_555
N16_12 C18_18 1_555 1_555
C15_18 C17_18 1_555 1_555
Cd2_2 N2_18 1_555 1_555
N1_18 N3_18 1_555 1_555
N2_18 C1_18 1_555 1_555
N3_18 C7_18 1_555 1_555
N4_18 N5_18 1_555 1_555
N5_18 C5_18 1_555 1_555
N6_18 C2_18 1_555 1_555
N15_9 C5_18 1_555 1_555
C1_18 N1_18 1_555 1_555
H1_18 C1_18 1_555 1_555
C2_18 N4_18 1_555 1_555
C3_18 C2_18 1_555 1_555
H2_18 C3_18 1_555 1_555
C4_18 N1_18 1_555 1_555
C5_18 H3_18 1_555 1_555
C6_18 C4_18 1_555 1_555
H4_18 C6_18 1_555 1_555
C7_18 N2_18 1_555 1_555
C8_18 C3_18 1_555 1_555
H5_9 C8_18 1_555 1_555
C9_18 N4_18 1_555 1_555
H6_18 C9_18 1_555 1_555
H7_18 C7_18 1_555 1_555
O1_18 Cd2_2 1_555 1_555
N6_18 C4_18 1_555 1_555
N15_9 C9_18 1_555 1_555
C6_18 C8_18 1_555 1_555
Cd3 N2_19 1_555 1_555
N1_19 N3_19 1_555 1_555
N2_19 C1_19 1_555 1_555
N3_19 C7_19 1_555 1_555
N4_19 N5_19 1_555 1_555
N5_19 C5_19 1_555 1_555
N6_19 C2_19 1_555 1_555
N15_10 C5_19 1_555 1_555
C1_19 N1_19 1_555 1_555
H1_19 C1_19 1_555 1_555
C2_19 N4_19 1_555 1_555
C3_19 C2_19 1_555 1_555
H2_19 C3_19 1_555 1_555
C4_19 N1_19 1_555 1_555
C6_19 C4_19 1_555 1_555
H4_19 C6_19 1_555 1_555
C7_19 N2_19 1_555 1_555
C8_19 C3_19 1_555 1_555
H5_10 C8_19 1_555 1_555
C9_19 N4_19 1_555 1_555
H6_19 C9_19 1_555 1_555
H7_19 C7_19 1_555 1_555
O1_19 Cd3 1_555 1_555
N8_19 N10_19 1_555 1_555
N9_19 Cd3 1_555 1_555
N10_19 C16_19 1_555 1_555
N11_19 N12_19 1_555 1_555
N12_19 C14_19 1_555 1_555
N13_19 C11_19 1_555 1_555
N16_11 C14_19 1_555 1_555
C10_19 N8_19 1_555 1_555
H8_19 C10_19 1_555 1_555
C11_19 N11_19 1_555 1_555
C12_19 C11_19 1_555 1_555
H9_19 C12_19 1_555 1_555
C13_19 N8_19 1_555 1_555
C14_19 H10_19 1_555 1_555
C15_19 C13_19 1_555 1_555
H11_19 C15_19 1_555 1_555
C16_19 N9_19 1_555 1_555
C17_19 C12_19 1_555 1_555
H12_10 C17_19 1_555 1_555
C18_19 N11_19 1_555 1_555
H13_19 C18_19 1_555 1_555
H14_19 C16_19 1_555 1_555
O2_19 Cd3 1_555 1_555
N6_19 C4_19 1_555 1_555
N15_10 C9_19 1_555 1_555
C6_19 C8_19 1_555 1_555
N9_19 C10_19 1_555 1_555
N13_19 C13_19 1_555 1_555
N16_11 C18_19 1_555 1_555
C15_19 C17_19 1_555 1_555
Cd2_3 N2_20 1_555 1_555
N1_20 N3_20 1_555 1_555
N2_20 C1_20 1_555 1_555
N3_20 C7_20 1_555 1_555
N4_20 N5_20 1_555 1_555
N5_20 C5_20 1_555 1_555
N6_20 C2_20 1_555 1_555
N15_12 C5_20 1_555 1_555
C1_20 N1_20 1_555 1_555
H1_20 C1_20 1_555 1_555
C2_20 N4_20 1_555 1_555
C3_20 C2_20 1_555 1_555
H2_20 C3_20 1_555 1_555
C4_20 N1_20 1_555 1_555
C6_20 C4_20 1_555 1_555
H4_20 C6_20 1_555 1_555
C7_20 N2_20 1_555 1_555
C8_20 C3_20 1_555 1_555
C9_20 N4_20 1_555 1_555
H6_20 C9_20 1_555 1_555
H7_20 C7_20 1_555 1_555
O1_20 Cd2_3 1_555 1_555
N6_20 C4_20 1_555 1_555
N15_12 C9_20 1_555 1_555
C6_20 C8_20 1_555 1_555
N8_20 N10_20 1_555 1_555
N9_20 Cd2_4 1_555 1_555
N10_20 C16_20 1_555 1_555
N11_20 N12_20 1_555 1_555
N12_20 C14_20 1_555 1_555
N13_20 C11_20 1_555 1_555
N16_9 C14_20 1_555 1_555
C10_20 N8_20 1_555 1_555
H8_20 C10_20 1_555 1_555
C11_20 N11_20 1_555 1_555
C12_20 C11_20 1_555 1_555
H9_20 C12_20 1_555 1_555
C13_20 N8_20 1_555 1_555
C14_20 H10_20 1_555 1_555
C15_20 C13_20 1_555 1_555
H11_20 C15_20 1_555 1_555
C16_20 N9_20 1_555 1_555
C17_20 C12_20 1_555 1_555
C18_20 N11_20 1_555 1_555
H13_20 C18_20 1_555 1_555
H14_20 C16_20 1_555 1_555
O2_20 Cd2_4 1_555 1_555
N9_20 C10_20 1_555 1_555
N13_20 C13_20 1_555 1_555
N16_9 C18_20 1_555 1_555
C15_20 C17_20 1_555 1_555
Cd3_4 N2_21 1_555 1_555
N1_21 N3_21 1_555 1_555
N2_21 C1_21 1_555 1_555
N3_21 C7_21 1_555 1_555
N4_21 N5_21 1_555 1_555
N5_21 C5_21 1_555 1_555
N6_21 C2_21 1_555 1_555
N15_3 C5_21 1_555 1_555
C1_21 N1_21 1_555 1_555
H1_21 C1_21 1_555 1_555
C2_21 N4_21 1_555 1_555
C3_21 C2_21 1_555 1_555
H2_21 C3_21 1_555 1_555
C4_21 N1_21 1_555 1_555
C5_21 H3_21 1_555 1_555
C6_21 C4_21 1_555 1_555
H4_21 C6_21 1_555 1_555
C7_21 N2_21 1_555 1_555
C8_21 C3_21 1_555 1_555
C9_21 N4_21 1_555 1_555
H6_21 C9_21 1_555 1_555
H7_21 C7_21 1_555 1_555
O1_21 Cd3_4 1_555 1_555
N8_21 N10_21 1_555 1_555
N9_21 Cd3_4 1_555 1_555
N10_21 C16_21 1_555 1_555
N11_21 N12_21 1_555 1_555
N12_21 C14_21 1_555 1_555
N13_21 C11_21 1_555 1_555
N16_2 C14_21 1_555 1_555
C10_21 N8_21 1_555 1_555
H8_21 C10_21 1_555 1_555
C11_21 N11_21 1_555 1_555
C12_21 C11_21 1_555 1_555
H9_21 C12_21 1_555 1_555
C13_21 N8_21 1_555 1_555
C15_21 C13_21 1_555 1_555
H11_21 C15_21 1_555 1_555
C16_21 N9_21 1_555 1_555
C17_21 C12_21 1_555 1_555
C18_21 N11_21 1_555 1_555
H13_21 C18_21 1_555 1_555
H14_21 C16_21 1_555 1_555
O2_21 Cd3_4 1_555 1_555
N6_21 C4_21 1_555 1_555
N15_3 C9_21 1_555 1_555
C6_21 C8_21 1_555 1_555
N9_21 C10_21 1_555 1_555
N13_21 C13_21 1_555 1_555
N16_2 C18_21 1_555 1_555
C15_21 C17_21 1_555 1_555
N8_22 N10_22 1_555 1_555
N9_22 Cd2_5 1_555 1_555
N10_22 C16_22 1_555 1_555
N11_22 N12_22 1_555 1_555
N12_22 C14_22 1_555 1_555
N13_22 C11_22 1_555 1_555
N16_4 C14_22 1_555 1_555
C10_22 N8_22 1_555 1_555
H8_22 C10_22 1_555 1_555
C11_22 N11_22 1_555 1_555
C12_22 C11_22 1_555 1_555
H9_22 C12_22 1_555 1_555
C13_22 N8_22 1_555 1_555
C15_22 C13_22 1_555 1_555
H11_22 C15_22 1_555 1_555
C16_22 N9_22 1_555 1_555
C17_22 C12_22 1_555 1_555
H12_11 C17_22 1_555 1_555
C18_22 N11_22 1_555 1_555
H13_22 C18_22 1_555 1_555
H14_22 C16_22 1_555 1_555
O2_22 Cd2_5 1_555 1_555
N9_22 C10_22 1_555 1_555
N13_22 C13_22 1_555 1_555
N16_4 C18_22 1_555 1_555
C15_22 C17_22 1_555 1_555
Cd2_6 N2_22 1_555 1_555
N1_22 N3_22 1_555 1_555
N2_22 C1_22 1_555 1_555
N3_22 C7_22 1_555 1_555
N4_22 N5_22 1_555 1_555
N5_22 C5_22 1_555 1_555
N6_22 C2_22 1_555 1_555
N15 C5_22 1_555 1_555
C1_22 N1_22 1_555 1_555
H1_22 C1_22 1_555 1_555
C2_22 N4_22 1_555 1_555
C3_22 C2_22 1_555 1_555
H2_22 C3_22 1_555 1_555
C4_22 N1_22 1_555 1_555
C5_22 H3_22 1_555 1_555
C6_22 C4_22 1_555 1_555
H4_22 C6_22 1_555 1_555
C7_22 N2_22 1_555 1_555
C8_22 C3_22 1_555 1_555
H5_11 C8_22 1_555 1_555
C9_22 N4_22 1_555 1_555
H6_22 C9_22 1_555 1_555
H7_22 C7_22 1_555 1_555
O1_22 Cd2_6 1_555 1_555
N6_22 C4_22 1_555 1_555
N15 C9_22 1_555 1_555
C6_22 C8_22 1_555 1_555
Cd3_3 N2_23 1_555 1_555
N1_23 N3_23 1_555 1_555
N2_23 C1_23 1_555 1_555
N3_23 C7_23 1_555 1_555
N4_23 N5_23 1_555 1_555
N5_23 C5_23 1_555 1_555
N6_23 C2_23 1_555 1_555
N15_2 C5_23 1_555 1_555
C1_23 N1_23 1_555 1_555
H1_23 C1_23 1_555 1_555
C2_23 N4_23 1_555 1_555
C3_23 C2_23 1_555 1_555
H2_23 C3_23 1_555 1_555
C4_23 N1_23 1_555 1_555
C6_23 C4_23 1_555 1_555
H4_23 C6_23 1_555 1_555
C7_23 N2_23 1_555 1_555
C8_23 C3_23 1_555 1_555
H5_12 C8_23 1_555 1_555
C9_23 N4_23 1_555 1_555
H6_23 C9_23 1_555 1_555
H7_23 C7_23 1_555 1_555
O1_23 Cd3_3 1_555 1_555
N8_23 N10_23 1_555 1_555
N9_23 Cd3_3 1_555 1_555
N10_23 C16_23 1_555 1_555
N11_23 N12_23 1_555 1_555
N12_23 C14_23 1_555 1_555
N13_23 C11_23 1_555 1_555
N16_3 C14_23 1_555 1_555
C10_23 N8_23 1_555 1_555
H8_23 C10_23 1_555 1_555
C11_23 N11_23 1_555 1_555
C12_23 C11_23 1_555 1_555
H9_23 C12_23 1_555 1_555
C13_23 N8_23 1_555 1_555
C14_23 H10_23 1_555 1_555
C15_23 C13_23 1_555 1_555
H11_23 C15_23 1_555 1_555
C16_23 N9_23 1_555 1_555
C17_23 C12_23 1_555 1_555
H12_12 C17_23 1_555 1_555
C18_23 N11_23 1_555 1_555
H13_23 C18_23 1_555 1_555
H14_23 C16_23 1_555 1_555
O2_23 Cd3_3 1_555 1_555
N6_23 C4_23 1_555 1_555
N15_2 C9_23 1_555 1_555
C6_23 C8_23 1_555 1_555
N9_23 C10_23 1_555 1_555
N13_23 C13_23 1_555 1_555
N16_3 C18_23 1_555 1_555
C15_23 C17_23 1_555 1_555
Cd2_7 N2_24 1_555 1_555
N1_24 N3_24 1_555 1_555
N2_24 C1_24 1_555 1_555
N3_24 C7_24 1_555 1_555
N4_24 N5_24 1_555 1_555
N5_24 C5_24 1_555 1_555
N6_24 C2_24 1_555 1_555
N15_4 C5_24 1_555 1_555
C1_24 N1_24 1_555 1_555
H1_24 C1_24 1_555 1_555
C2_24 N4_24 1_555 1_555
C3_24 C2_24 1_555 1_555
H2_24 C3_24 1_555 1_555
C4_24 N1_24 1_555 1_555
C6_24 C4_24 1_555 1_555
H4_24 C6_24 1_555 1_555
C7_24 N2_24 1_555 1_555
C8_24 C3_24 1_555 1_555
C9_24 N4_24 1_555 1_555
H6_24 C9_24 1_555 1_555
H7_24 C7_24 1_555 1_555
O1_24 Cd2_7 1_555 1_555
N6_24 C4_24 1_555 1_555
N15_4 C9_24 1_555 1_555
C6_24 C8_24 1_555 1_555
N8_24 N10_24 1_555 1_555
N9_24 Cd2_8 1_555 1_555
N10_24 C16_24 1_555 1_555
N11_24 N12_24 1_555 1_555
N12_24 C14_24 1_555 1_555
N13_24 C11_24 1_555 1_555
N16 C14_24 1_555 1_555
C10_24 N8_24 1_555 1_555
H8_24 C10_24 1_555 1_555
C11_24 N11_24 1_555 1_555
C12_24 C11_24 1_555 1_555
H9_24 C12_24 1_555 1_555
C13_24 N8_24 1_555 1_555
C14_24 H10_24 1_555 1_555
C15_24 C13_24 1_555 1_555
H11_24 C15_24 1_555 1_555
C16_24 N9_24 1_555 1_555
C17_24 C12_24 1_555 1_555
C18_24 N11_24 1_555 1_555
H13_24 C18_24 1_555 1_555
H14_24 C16_24 1_555 1_555
O2_24 Cd2_8 1_555 1_555
N9_24 C10_24 1_555 1_555
N13_24 C13_24 1_555 1_555
N16 C18_24 1_555 1_555
C15_24 C17_24 1_555 1_555

#END
