
###############################################################################
#
# This file contains modified crystal structure data generated from the
# MOF subset of the Cambridge Structural Database (CSD) v543 
# hosted by the Cambridge Crystallographic Data Centre (CCDC).
#
# This work is licensed under the Creative Commons
# Attribution-NonCommercial-ShareAlike 4.0 International License.
# To view a copy of this license, visit
# http://creativecommons.org/licenses/by-nc-sa/4.0/
# or send a letter to
# Creative Commons, PO Box 1866, Mountain View, CA 94042, USA.
#
# CIF created using the CSD Python API on 29 September 2022
# The structure has been converted into the P1 space group
# The structure has a 3D framework
# The original CSD entry ROGHAZ is in the monoclinic crystal system
# The framework has been calculated to contain at least 10.0% void space
# The void calculation uses a probe of radius 1.32A, grid spacing 0.4
#
###############################################################################

data_ROGHAZ
_chemical_formula_moiety         '(C168 H104 Cd8 N40 O28)n'
_symmetry_cell_setting           triclinic
_symmetry_space_group_name_H-M   'P 1'
_symmetry_Int_Tables_number      1
_space_group_name_Hall           'P 1'
loop_
_symmetry_equiv_pos_site_id
_symmetry_equiv_pos_as_xyz
1 x,y,z
_cell_length_a                   10.1629(5)
_cell_length_b                   37.0638(17)
_cell_length_c                   14.9125(7)
_cell_angle_alpha                90
_cell_angle_beta                 105.4870(10)
_cell_angle_gamma                90
_cell_volume                     5413.22
loop_
_atom_site_label
_atom_site_type_symbol
_atom_site_fract_x
_atom_site_fract_y
_atom_site_fract_z
H25 H 0.0456 0.8812 0.5665
Cd4 Cd 0.04994(3) 0.661618(7) 0.25388(2)
Cd6 Cd 0.04994(3) 0.838382(7) 0.75388(2)
O13 O 0.0213(3) 0.60005(7) 0.2282(2)
O8 O 0.0762(3) 0.44910(7) 0.7402(2)
Cd8 Cd 0.24704(3) 0.409625(7) 0.75937(2)
Cd2 Cd 0.75296(3) 0.590375(7) 0.24063(2)
O1 O 0.8922(3) 0.69803(7) 0.2816(2)
O2 O 0.1877(3) 0.71385(7) 0.2538(2)
O3 O 0.2693(2) 0.66179(7) 0.2251(2)
O4 O 0.7599(3) 0.65250(7) 0.2215(2)
C1 C 0.5268(4) 0.69141(10) 0.2377(3)
H1 H 0.5148 0.6668 0.2261
C2 C 0.6542(4) 0.70678(10) 0.2496(3)
C3 C 0.6689(4) 0.74363(10) 0.2634(3)
H2 H 0.7539 0.7542 0.2700
C4 C 0.5580(4) 0.76504(9) 0.2673(3)
C5 C 0.4331(4) 0.74900(10) 0.2581(3)
H3 H 0.3592 0.7631 0.2622
C6 C 0.4155(4) 0.71290(10) 0.2430(3)
C13 C 0.7460(4) 0.56554(11) 0.0320(3)
H7 H 0.8055 0.5481 0.0646
C17 C 0.6185(4) 0.61541(12) 0.0305(3)
H10 H 0.5868 0.6335 0.0625
C18 C 0.7776(4) 0.68378(11) 0.2515(3)
C20 C 0.2825(4) 0.69470(12) 0.2392(4)
C24 C 0.8753(4) 0.88469(12) 0.0572(3)
H12 H 0.9486 0.8898 0.1081
C25 C 0.7704(4) 0.86356(11) 0.0676(3)
C33 C 0.5722(4) 0.80513(9) 0.2859(3)
H21 H 0.4858 0.8167 0.2565
H22 H 0.5910 0.8091 0.3524
C34 C 0.7595(4) 0.84866(10) 0.1557(3)
C35 C 0.8007(4) 0.83619(10) 0.2994(3)
C36 C 0.8623(4) 0.83478(10) 0.3995(3)
C37 C 0.9405(4) 0.86243(11) 0.4429(3)
H23 H 0.9596 0.8818 0.4086
C38 C 0.8452(4) 0.80594(11) 0.4548(3)
H24 H 0.7976 0.7855 0.4280
C41 C 0.9920(4) 0.86180(12) 0.5385(3)
C42 C 0.8993(5) 0.80797(11) 0.5493(3)
H26 H 0.8848 0.7886 0.5850
N2 N 0.7053(3) 0.59088(9) 0.0799(2)
N6 N 0.6789(3) 0.82237(7) 0.2527(2)
N7 N 0.6504(3) 0.82969(8) 0.1604(2)
N8 N 0.8542(3) 0.85350(8) 0.2386(3)
N9 N 0.9705(3) 0.83556(9) 0.5932(2)
O10 O 0.5105(3) 0.59130(7) 0.2178(2)
O11 O 0.6121(3) 0.53883(7) 0.2380(2)
O14 O 0.9238(3) 0.55090(7) 0.2598(2)
N11 N 0.1706(4) 0.64249(9) 0.4051(3)
N13 N 0.7728(4) 0.60695(9) 0.3952(3)
O5 O 0.4895(3) 0.40870(7) 0.7822(2)
O6 O 0.3879(3) 0.46117(7) 0.7620(2)
O7 O 0.9787(3) 0.39995(7) 0.7718(2)
C7 C 0.6232(4) 0.45937(10) 0.7679(3)
C8 C 0.6288(4) 0.49692(10) 0.7550(3)
H4 H 0.5519 0.5110 0.7520
C9 C 0.7468(4) 0.51299(9) 0.7470(3)
C10 C 0.8583(4) 0.49224(10) 0.7495(3)
H5 H 0.9374 0.5032 0.7429
C11 C 0.8569(4) 0.45512(10) 0.7618(3)
C12 C 0.7384(4) 0.43922(10) 0.7743(3)
H6 H 0.7377 0.4147 0.7871
C14 C 0.7056(4) 0.56324(11) 0.9359(3)
H8 H 0.7377 0.5446 0.9058
C15 C 0.6186(4) 0.58839(10) 0.8854(3)
C16 C 0.5735(4) 0.61518(11) 0.9340(3)
H9 H 0.5137 0.6329 0.9027
C19 C 0.5696(4) 0.58907(10) 0.7853(3)
C21 C 0.9790(4) 0.43256(11) 0.7571(3)
C22 C 0.4932(4) 0.44155(11) 0.7712(3)
C23 C 0.8716(4) 0.89863(12) 0.9690(4)
H11 H 0.9446 0.9127 0.9633
C26 C 0.6637(5) 0.85744(13) 0.9884(3)
H13 H 0.5898 0.8431 0.9915
C27 C 0.6694(5) 0.87296(13) 0.9050(3)
H14 H 0.5966 0.8691 0.8529
C28 C 0.2683(5) 0.61934(13) 0.4017(4)
H15 H 0.2764 0.6129 0.3431
C29 C 0.3589(5) 0.60410(13) 0.4776(4)
H16 H 0.4249 0.5880 0.4694
C30 C 0.1624(4) 0.65044(12) 0.4894(4)
H17 H 0.0944 0.6664 0.4947
C31 C 0.2477(4) 0.63674(12) 0.5712(3)
H18 H 0.2361 0.6434 0.6287
C32 C 0.7588(4) 0.55348(10) 0.7364(3)
H19 H 0.8238 0.5629 0.7914
H20 H 0.7949 0.5582 0.6835
C39 C 0.4507(4) 0.59890(10) 0.6466(3)
C40 C 0.3512(4) 0.61279(11) 0.5655(3)
N3 N 0.6287(3) 0.57291(8) 0.7231(3)
N4 N 0.4551(3) 0.60564(8) 0.7362(3)
N5 N 0.5546(4) 0.57878(8) 0.6348(3)
N10 N 0.7728(4) 0.89305(9) 0.8952(3)
Cd5 Cd 0.95006(3) 0.338382(7) 0.74612(2)
Cd9 Cd 0.75296(3) 0.909625(7) 0.74063(2)
N12 N 0.9705(3) 0.66444(9) 0.0932(2)
O9 O 0.1078(3) 0.19803(7) 0.2184(2)
N12_2 N 0.0295(3) 0.16444(9) 0.4068(2)
C28_2 C 0.7317(5) 0.11934(13) 0.0983(4)
H15_2 H 0.7236 0.1129 0.1569
C29_2 C 0.6411(5) 0.10410(13) 0.0224(4)
H16_2 H 0.5751 0.0880 0.0306
C30_2 C 0.8376(4) 0.15044(12) 0.0106(4)
H17_2 H 0.9056 0.1664 0.0053
N1 N 0.8294(4) 0.14249(9) 0.0949(3)
Cd3 Cd 0.95006(3) 0.161618(7) 0.24612(2)
Cd2_2 Cd 0.24704(3) 0.090375(7) 0.25937(2)
O2_2 O 0.8123(3) 0.21385(7) 0.2462(2)
O3_2 O 0.7307(2) 0.16179(7) 0.2749(2)
O4_2 O 0.2401(3) 0.15250(7) 0.2785(2)
C1_2 C 0.4732(4) 0.19141(10) 0.2623(3)
H1_2 H 0.4852 0.1668 0.2739
C2_2 C 0.3458(4) 0.20678(10) 0.2504(3)
C3_2 C 0.3311(4) 0.24363(10) 0.2366(3)
H2_2 H 0.2461 0.2542 0.2300
C4_2 C 0.4420(4) 0.26504(9) 0.2327(3)
C5_2 C 0.5669(4) 0.24900(10) 0.2419(3)
H3_2 H 0.6408 0.2631 0.2378
C6_2 C 0.5845(4) 0.21290(10) 0.2570(3)
H4_2 H 0.4481 0.0110 0.7480
C9_2 C 0.2532(4) 0.01299(9) 0.7530(3)
H5_2 H 0.0626 0.0032 0.7571
C13_2 C 0.2540(4) 0.06554(11) 0.4680(3)
H7_2 H 0.1945 0.0481 0.4354
C14_2 C 0.2944(4) 0.06324(11) 0.5641(3)
H8_2 H 0.2623 0.0446 0.5942
C15_2 C 0.3814(4) 0.08839(10) 0.6146(3)
C16_2 C 0.4265(4) 0.11518(11) 0.5660(3)
H9_2 H 0.4863 0.1329 0.5973
C17_2 C 0.3815(4) 0.11541(12) 0.4695(3)
H10_2 H 0.4132 0.1335 0.4375
C18_2 C 0.2224(4) 0.18378(11) 0.2485(3)
C19_2 C 0.4304(4) 0.08907(10) 0.7147(3)
C20_2 C 0.7175(4) 0.19470(12) 0.2608(4)
C23_2 C 0.1284(4) 0.39863(12) 0.5310(4)
H11_2 H 0.0554 0.4127 0.5367
C24_2 C 0.1247(4) 0.38469(12) 0.4428(3)
H12_2 H 0.0514 0.3898 0.3919
C25_2 C 0.2296(4) 0.36356(11) 0.4324(3)
C26_2 C 0.3363(5) 0.35744(13) 0.5116(3)
H13_2 H 0.4102 0.3431 0.5085
C27_2 C 0.3306(5) 0.37296(13) 0.5950(3)
H14_2 H 0.4034 0.3691 0.6471
C31_2 C 0.7523(4) 0.13674(12) 0.9288(3)
H18_2 H 0.7639 0.1434 0.8713
C32_2 C 0.2412(4) 0.05348(10) 0.7636(3)
H19_2 H 0.1762 0.0629 0.7086
H20_2 H 0.2051 0.0582 0.8165
C33_2 C 0.4278(4) 0.30513(9) 0.2141(3)
H21_2 H 0.5142 0.3167 0.2435
H22_2 H 0.4090 0.3091 0.1476
C34_2 C 0.2405(4) 0.34866(10) 0.3443(3)
C35_2 C 0.1993(4) 0.33619(10) 0.2006(3)
C36_2 C 0.1377(4) 0.33478(10) 0.1005(3)
C37_2 C 0.0595(4) 0.36243(11) 0.0571(3)
H23_2 H 0.0404 0.3818 0.0914
C38_2 C 0.1548(4) 0.30594(11) 0.0452(3)
H24_2 H 0.2024 0.2855 0.0720
C39_2 C 0.5493(4) 0.09890(10) 0.8534(3)
C40_2 C 0.6488(4) 0.11279(11) 0.9345(3)
N2_2 N 0.2947(3) 0.09088(9) 0.4201(2)
N3_2 N 0.3713(3) 0.07291(8) 0.7769(3)
N4_2 N 0.5449(3) 0.10564(8) 0.7638(3)
N5_2 N 0.4454(4) 0.07878(8) 0.8652(3)
N6_2 N 0.3211(3) 0.32237(7) 0.2473(2)
N7_2 N 0.3496(3) 0.32969(8) 0.3396(2)
N8_2 N 0.1458(3) 0.35350(8) 0.2614(3)
N10_2 N 0.2272(4) 0.39305(9) 0.6048(3)
O10_2 O 0.4895(3) 0.09130(7) 0.2822(2)
O11_2 O 0.3879(3) 0.03883(7) 0.2620(2)
O12 O 0.9787(3) 0.10005(7) 0.2718(2)
O14_2 O 0.0762(3) 0.05090(7) 0.2402(2)
N13_2 N 0.2272(4) 0.10695(9) 0.1048(3)
C41_2 C 0.0080(4) 0.36180(12) 0.9615(3)
C42_2 C 0.1007(5) 0.30797(11) 0.9507(3)
H26_2 H 0.1152 0.2886 0.9150
N9_2 N 0.0295(3) 0.33556(9) 0.9068(2)
O5_2 O 0.5105(3) 0.90870(7) 0.7178(2)
O6_2 O 0.6121(3) 0.96117(7) 0.7380(2)
O7_2 O 0.0213(3) 0.89995(7) 0.7282(2)
C7_2 C 0.3768(4) 0.95937(10) 0.7321(3)
C8_2 C 0.3712(4) 0.99692(10) 0.7450(3)
C10_2 C 0.1417(4) 0.99224(10) 0.7505(3)
C11_2 C 0.1431(4) 0.95512(10) 0.7382(3)
C12_2 C 0.2616(4) 0.93922(10) 0.7257(3)
H6_2 H 0.2623 0.9147 0.7129
C21_2 C 0.0210(4) 0.93256(11) 0.7429(3)
C22_2 C 0.5068(4) 0.94155(11) 0.7288(3)
H25_2 H 0.9544 0.3812 0.9335
O8_2 O 0.9238(3) 0.94910(7) 0.7598(2)
O9_2 O 0.1078(3) 0.30197(7) 0.7184(2)
C7_3 C 0.3768(4) 0.54063(10) 0.2321(3)
C8_3 C 0.3712(4) 0.50308(10) 0.2450(3)
H4_3 H 0.4481 0.4890 0.2480
C9_3 C 0.2532(4) 0.48701(9) 0.2530(3)
C10_3 C 0.1417(4) 0.50776(10) 0.2505(3)
H5_3 H 0.0626 0.4968 0.2571
C11_3 C 0.1431(4) 0.54488(10) 0.2382(3)
C12_3 C 0.2616(4) 0.56078(10) 0.2257(3)
H6_3 H 0.2623 0.5853 0.2129
C14_3 C 0.2944(4) 0.43676(11) 0.0641(3)
H8_3 H 0.2623 0.4554 0.0942
C15_3 C 0.3814(4) 0.41161(10) 0.1146(3)
C16_3 C 0.4265(4) 0.38482(11) 0.0660(3)
H9_3 H 0.4863 0.3671 0.0973
C19_3 C 0.4304(4) 0.41093(10) 0.2147(3)
C21_3 C 0.0210(4) 0.56744(11) 0.2429(3)
C22_3 C 0.5068(4) 0.55845(11) 0.2288(3)
C23_3 C 0.1284(4) 0.10137(12) 0.0310(4)
H11_3 H 0.0554 0.0873 0.0367
C26_3 C 0.3363(5) 0.14256(13) 0.0116(3)
H13_3 H 0.4102 0.1569 0.0085
C27_3 C 0.3306(5) 0.12704(13) 0.0950(3)
H14_3 H 0.4034 0.1309 0.1471
C28_3 C 0.7317(5) 0.38066(13) 0.5983(4)
H15_3 H 0.7236 0.3871 0.6569
C29_3 C 0.6411(5) 0.39590(13) 0.5224(4)
H16_3 H 0.5751 0.4120 0.5306
C30_3 C 0.8376(4) 0.34956(12) 0.5106(4)
H17_3 H 0.9056 0.3336 0.5053
C31_3 C 0.7523(4) 0.36326(12) 0.4288(3)
H18_3 H 0.7639 0.3566 0.3713
C32_3 C 0.2412(4) 0.44652(10) 0.2636(3)
H19_3 H 0.1762 0.4371 0.2086
H20_3 H 0.2051 0.4418 0.3165
C39_3 C 0.5493(4) 0.40110(10) 0.3534(3)
C40_3 C 0.6488(4) 0.38721(11) 0.4345(3)
N1_2 N 0.8294(4) 0.35751(9) 0.5949(3)
N3_3 N 0.3713(3) 0.42709(8) 0.2769(3)
N4_3 N 0.5449(3) 0.39436(8) 0.2638(3)
N5_3 N 0.4454(4) 0.42122(8) 0.3652(3)
O2_3 O 0.8123(3) 0.28615(7) 0.7462(2)
O3_3 O 0.7307(2) 0.33821(7) 0.7749(2)
O4_3 O 0.2401(3) 0.34750(7) 0.7785(2)
C1_3 C 0.4732(4) 0.30859(10) 0.7623(3)
H1_3 H 0.4852 0.3332 0.7739
C2_3 C 0.3458(4) 0.29322(10) 0.7504(3)
C3_3 C 0.3311(4) 0.25637(10) 0.7366(3)
H2_3 H 0.2461 0.2458 0.7300
C4_3 C 0.4420(4) 0.23496(9) 0.7327(3)
C5_3 C 0.5669(4) 0.25100(10) 0.7419(3)
H3_3 H 0.6408 0.2369 0.7378
C6_3 C 0.5845(4) 0.28710(10) 0.7570(3)
C13_3 C 0.2540(4) 0.43446(11) 0.9680(3)
H7_3 H 0.1945 0.4519 0.9354
C17_3 C 0.3815(4) 0.38459(12) 0.9695(3)
H10_3 H 0.4132 0.3665 0.9375
C18_3 C 0.2224(4) 0.31622(11) 0.7485(3)
C20_3 C 0.7175(4) 0.30530(12) 0.7608(4)
C24_3 C 0.1247(4) 0.11531(12) 0.9428(3)
H12_3 H 0.0514 0.1102 0.8919
C25_3 C 0.2296(4) 0.13644(11) 0.9324(3)
C33_3 C 0.4278(4) 0.19487(9) 0.7141(3)
H21_3 H 0.5142 0.1833 0.7435
H22_3 H 0.4090 0.1909 0.6476
C34_3 C 0.2405(4) 0.15134(10) 0.8443(3)
C35_3 C 0.1993(4) 0.16381(10) 0.7006(3)
C36_3 C 0.1377(4) 0.16522(10) 0.6005(3)
C37_3 C 0.0595(4) 0.13757(11) 0.5571(3)
H23_3 H 0.0404 0.1182 0.5914
C38_3 C 0.1548(4) 0.19406(11) 0.5452(3)
H24_3 H 0.2024 0.2145 0.5720
C41_3 C 0.0080(4) 0.13820(12) 0.4615(3)
C42_3 C 0.1007(5) 0.19203(11) 0.4507(3)
H26_3 H 0.1152 0.2114 0.4150
N2_3 N 0.2947(3) 0.40912(9) 0.9201(2)
N6_3 N 0.3211(3) 0.17763(7) 0.7473(2)
N7_3 N 0.3496(3) 0.17031(8) 0.8396(2)
N8_3 N 0.1458(3) 0.14650(8) 0.7614(3)
H25_3 H 0.9544 0.1188 0.4335
H25_4 H 0.0456 0.6188 0.0665
C7_4 C 0.6232(4) 0.04063(10) 0.2679(3)
C8_4 C 0.6288(4) 0.00308(10) 0.2550(3)
C10_4 C 0.8583(4) 0.00776(10) 0.2495(3)
C11_4 C 0.8569(4) 0.04488(10) 0.2618(3)
C12_4 C 0.7384(4) 0.06078(10) 0.2743(3)
H6_4 H 0.7377 0.0853 0.2871
C21_4 C 0.9790(4) 0.06744(11) 0.2571(3)
C22_4 C 0.4932(4) 0.05845(11) 0.2712(3)
C41_4 C 0.9920(4) 0.63820(12) 0.0385(3)
C42_4 C 0.8993(5) 0.69203(11) 0.0493(3)
H26_4 H 0.8848 0.7114 0.0850
O1_2 O 0.8922(3) 0.80197(7) 0.7816(2)
O2_4 O 0.1877(3) 0.78615(7) 0.7538(2)
O3_4 O 0.2693(2) 0.83821(7) 0.7251(2)
O4_4 O 0.7599(3) 0.84750(7) 0.7215(2)
C1_4 C 0.5268(4) 0.80859(10) 0.7377(3)
H1_4 H 0.5148 0.8332 0.7261
C2_4 C 0.6542(4) 0.79322(10) 0.7496(3)
C3_4 C 0.6689(4) 0.75637(10) 0.7634(3)
H2_4 H 0.7539 0.7458 0.7700
C4_4 C 0.5580(4) 0.73496(9) 0.7673(3)
C5_4 C 0.4331(4) 0.75100(10) 0.7581(3)
H3_4 H 0.3592 0.7369 0.7622
C6_4 C 0.4155(4) 0.78710(10) 0.7430(3)
H4_4 H 0.5519 0.9890 0.2520
C9_4 C 0.7468(4) 0.98701(9) 0.2470(3)
H5_4 H 0.9374 0.9968 0.2429
C13_4 C 0.7460(4) 0.93446(11) 0.5320(3)
H7_4 H 0.8055 0.9519 0.5646
C14_4 C 0.7056(4) 0.93676(11) 0.4359(3)
H8_4 H 0.7377 0.9554 0.4058
C15_4 C 0.6186(4) 0.91161(10) 0.3854(3)
C16_4 C 0.5735(4) 0.88482(11) 0.4340(3)
H9_4 H 0.5137 0.8671 0.4027
C17_4 C 0.6185(4) 0.88459(12) 0.5305(3)
H10_4 H 0.5868 0.8665 0.5625
C18_4 C 0.7776(4) 0.81622(11) 0.7515(3)
C19_4 C 0.5696(4) 0.91093(10) 0.2853(3)
C20_4 C 0.2825(4) 0.80530(12) 0.7392(4)
C23_4 C 0.8716(4) 0.60137(12) 0.4690(4)
H11_4 H 0.9446 0.5873 0.4633
C24_4 C 0.8753(4) 0.61531(12) 0.5572(3)
H12_4 H 0.9486 0.6102 0.6081
C25_4 C 0.7704(4) 0.63644(11) 0.5676(3)
C26_4 C 0.6637(5) 0.64256(13) 0.4884(3)
H13_4 H 0.5898 0.6569 0.4915
C27_4 C 0.6694(5) 0.62704(13) 0.4050(3)
H14_4 H 0.5966 0.6309 0.3529
C31_4 C 0.2477(4) 0.86326(12) 0.0712(3)
H18_4 H 0.2361 0.8566 0.1287
C32_4 C 0.7588(4) 0.94652(10) 0.2364(3)
H19_4 H 0.8238 0.9371 0.2914
H20_4 H 0.7949 0.9418 0.1835
C33_4 C 0.5722(4) 0.69487(9) 0.7859(3)
H21_4 H 0.4858 0.6833 0.7565
H22_4 H 0.5910 0.6909 0.8524
C34_4 C 0.7595(4) 0.65134(10) 0.6557(3)
C35_4 C 0.8007(4) 0.66381(10) 0.7994(3)
C36_4 C 0.8623(4) 0.66522(10) 0.8995(3)
C37_4 C 0.9405(4) 0.63757(11) 0.9429(3)
H23_4 H 0.9596 0.6182 0.9086
C38_4 C 0.8452(4) 0.69406(11) 0.9548(3)
H24_4 H 0.7976 0.7145 0.9280
C39_4 C 0.4507(4) 0.90110(10) 0.1466(3)
C40_4 C 0.3512(4) 0.88721(11) 0.0655(3)
N2_4 N 0.7053(3) 0.90912(9) 0.5799(2)
N3_4 N 0.6287(3) 0.92709(8) 0.2231(3)
N4_4 N 0.4551(3) 0.89436(8) 0.2362(3)
N5_4 N 0.5546(4) 0.92122(8) 0.1348(3)
N6_4 N 0.6789(3) 0.67763(7) 0.7527(2)
N7_4 N 0.6504(3) 0.67031(8) 0.6604(2)
N8_4 N 0.8542(3) 0.64650(8) 0.7386(3)
N11_2 N 0.1706(4) 0.85751(9) 0.9051(3)
C28_4 C 0.2683(5) 0.88066(13) 0.9017(4)
H15_4 H 0.2764 0.8871 0.8431
C29_4 C 0.3589(5) 0.89590(13) 0.9776(4)
H16_4 H 0.4249 0.9120 0.9694
C30_4 C 0.1624(4) 0.84956(12) 0.9894(4)
H17_4 H 0.0944 0.8336 0.9947
loop_
_geom_bond_atom_site_label_1
_geom_bond_atom_site_label_2
_geom_bond_site_symmetry_1
_geom_bond_site_symmetry_2
Cd4 O13 1_555 1_555
O8 Cd8 1_555 1_555
Cd4 O2 1_555 1_555
Cd2 O4 1_555 1_555
O1 C18 1_555 1_555
O2 C20 1_555 1_555
O3 Cd4 1_555 1_555
O4 C18 1_555 1_555
C1 H1 1_555 1_555
C2 C1 1_555 1_555
C3 C2 1_555 1_555
H2 C3 1_555 1_555
C4 C3 1_555 1_555
C5 C4 1_555 1_555
H3 C5 1_555 1_555
C6 C1 1_555 1_555
C13 H7 1_555 1_555
H10 C17 1_555 1_555
C18 C2 1_555 1_555
C20 O3 1_555 1_555
H12 C24 1_555 1_555
C25 C24 1_555 1_555
C33 C4 1_555 1_555
H21 C33 1_555 1_555
H22 C33 1_555 1_555
C34 C25 1_555 1_555
C35 C36 1_555 1_555
C36 C37 1_555 1_555
C37 H23 1_555 1_555
C38 C36 1_555 1_555
H24 C38 1_555 1_555
C41 C37 1_555 1_555
C42 C38 1_555 1_555
H26 C42 1_555 1_555
N2 Cd2 1_555 1_555
N6 C33 1_555 1_555
N7 C34 1_555 1_555
N8 C34 1_555 1_555
N9 C41 1_555 1_555
O10 Cd2 1_555 1_555
O11 Cd2 1_555 1_555
O14 Cd2 1_555 1_555
N11 Cd4 1_555 1_555
N13 Cd2 1_555 1_555
C5 C6 1_555 1_555
C6 C20 1_555 1_555
C13 N2 1_555 1_555
C17 N2 1_555 1_555
C35 N6 1_555 1_555
C35 N8 1_555 1_555
C42 N9 1_555 1_555
N6 N7 1_555 1_555
O5 C22 1_555 1_555
O6 C22 1_555 1_555
O7 C21 1_555 1_555
C7 C8 1_555 1_555
C8 H4 1_555 1_555
C9 C8 1_555 1_555
C10 C9 1_555 1_555
H5 C10 1_555 1_555
C11 C10 1_555 1_555
C12 C7 1_555 1_555
H6 C12 1_555 1_555
H8 C14 1_555 1_555
C15 C14 1_555 1_555
C16 C15 1_555 1_555
H9 C16 1_555 1_555
C19 C15 1_555 1_555
C21 C11 1_555 1_555
C22 C7 1_555 1_555
C23 H11 1_555 1_555
H13 C26 1_555 1_555
C27 C26 1_555 1_555
H14 C27 1_555 1_555
C28 H15 1_555 1_555
C29 C28 1_555 1_555
H16 C29 1_555 1_555
C30 H17 1_555 1_555
C31 C30 1_555 1_555
H18 C31 1_555 1_555
C32 C9 1_555 1_555
H19 C32 1_555 1_555
H20 C32 1_555 1_555
C39 C40 1_555 1_555
C40 C29 1_555 1_555
N11 C28 1_555 1_555
N3 C19 1_555 1_555
N4 C19 1_555 1_555
N5 C39 1_555 1_555
N10 C23 1_555 1_555
Cd5 O7 1_555 1_555
Cd8 O5 1_555 1_555
Cd9 N10 1_555 1_555
O6 Cd8 1_555 1_555
C11 C12 1_555 1_555
C27 N10 1_555 1_555
C30 N11 1_555 1_555
C31 C40 1_555 1_555
C32 N3 1_555 1_555
C39 N4 1_555 1_555
N3 N5 1_555 1_555
C28_2 H15_2 1_555 1_555
C29_2 C28_2 1_555 1_555
H16_2 C29_2 1_555 1_555
C30_2 H17_2 1_555 1_555
N1 C28_2 1_555 1_555
Cd3 N1 1_555 1_555
C30_2 N1 1_555 1_555
Cd3 O2_2 1_555 1_555
Cd2_2 O4_2 1_555 1_555
O9 C18_2 1_555 1_555
O2_2 C20_2 1_555 1_555
O3_2 Cd3 1_555 1_555
O4_2 C18_2 1_555 1_555
C1_2 H1_2 1_555 1_555
C2_2 C1_2 1_555 1_555
C3_2 C2_2 1_555 1_555
H2_2 C3_2 1_555 1_555
C4_2 C3_2 1_555 1_555
C5_2 C4_2 1_555 1_555
H3_2 C5_2 1_555 1_555
C6_2 C1_2 1_555 1_555
C13_2 H7_2 1_555 1_555
C14_2 C13_2 1_555 1_555
H8_2 C14_2 1_555 1_555
C15_2 C14_2 1_555 1_555
C16_2 C15_2 1_555 1_555
H9_2 C16_2 1_555 1_555
C17_2 C16_2 1_555 1_555
H10_2 C17_2 1_555 1_555
C18_2 C2_2 1_555 1_555
C19_2 C15_2 1_555 1_555
C20_2 O3_2 1_555 1_555
C23_2 H11_2 1_555 1_555
C24_2 C23_2 1_555 1_555
H12_2 C24_2 1_555 1_555
C25_2 C24_2 1_555 1_555
C26_2 C25_2 1_555 1_555
H13_2 C26_2 1_555 1_555
C27_2 C26_2 1_555 1_555
H14_2 C27_2 1_555 1_555
H18_2 C31_2 1_555 1_555
C32_2 C9_2 1_555 1_555
H19_2 C32_2 1_555 1_555
H20_2 C32_2 1_555 1_555
C33_2 C4_2 1_555 1_555
H21_2 C33_2 1_555 1_555
H22_2 C33_2 1_555 1_555
C34_2 C25_2 1_555 1_555
C35_2 C36_2 1_555 1_555
C36_2 C37_2 1_555 1_555
C37_2 H23_2 1_555 1_555
C38_2 C36_2 1_555 1_555
H24_2 C38_2 1_555 1_555
C39_2 C40_2 1_555 1_555
N2_2 Cd2_2 1_555 1_555
N3_2 C19_2 1_555 1_555
N4_2 C19_2 1_555 1_555
N5_2 C39_2 1_555 1_555
N6_2 C33_2 1_555 1_555
N7_2 C34_2 1_555 1_555
N8_2 C34_2 1_555 1_555
N10_2 C23_2 1_555 1_555
Cd8 N10_2 1_555 1_555
O10_2 Cd2_2 1_555 1_555
O11_2 Cd2_2 1_555 1_555
O12 Cd3 1_555 1_555
O14_2 Cd2_2 1_555 1_555
N13_2 Cd2_2 1_555 1_555
C5_2 C6_2 1_555 1_555
C6_2 C20_2 1_555 1_555
C13_2 N2_2 1_555 1_555
C17_2 N2_2 1_555 1_555
C27_2 N10_2 1_555 1_555
C31_2 C40_2 1_555 1_555
C32_2 N3_2 1_555 1_555
C35_2 N6_2 1_555 1_555
C35_2 N8_2 1_555 1_555
C39_2 N4_2 1_555 1_555
N3_2 N5_2 1_555 1_555
N6_2 N7_2 1_555 1_555
H26_2 C42_2 1_555 1_555
N9_2 C41_2 1_555 1_555
C42_2 N9_2 1_555 1_555
O5_2 C22_2 1_555 1_555
O6_2 C22_2 1_555 1_555
O7_2 C21_2 1_555 1_555
C7_2 C8_2 1_555 1_555
C11_2 C10_2 1_555 1_555
C12_2 C7_2 1_555 1_555
H6_2 C12_2 1_555 1_555
C21_2 C11_2 1_555 1_555
C22_2 C7_2 1_555 1_555
Cd6 O7_2 1_555 1_555
Cd9 O5_2 1_555 1_555
O6_2 Cd9 1_555 1_555
C11_2 C12_2 1_555 1_555
O8_2 Cd9 1_555 1_555
O10 C22_3 1_555 1_555
O11 C22_3 1_555 1_555
O13 C21_3 1_555 1_555
C7_3 C8_3 1_555 1_555
C8_3 H4_3 1_555 1_555
C9_3 C8_3 1_555 1_555
C10_3 C9_3 1_555 1_555
H5_3 C10_3 1_555 1_555
C11_3 C10_3 1_555 1_555
C12_3 C7_3 1_555 1_555
H6_3 C12_3 1_555 1_555
H8_3 C14_3 1_555 1_555
C15_3 C14_3 1_555 1_555
C16_3 C15_3 1_555 1_555
H9_3 C16_3 1_555 1_555
C19_3 C15_3 1_555 1_555
C21_3 C11_3 1_555 1_555
C22_3 C7_3 1_555 1_555
C23_3 H11_3 1_555 1_555
H13_3 C26_3 1_555 1_555
C27_3 C26_3 1_555 1_555
H14_3 C27_3 1_555 1_555
C28_3 H15_3 1_555 1_555
C29_3 C28_3 1_555 1_555
H16_3 C29_3 1_555 1_555
C30_3 H17_3 1_555 1_555
C31_3 C30_3 1_555 1_555
H18_3 C31_3 1_555 1_555
C32_3 C9_3 1_555 1_555
H19_3 C32_3 1_555 1_555
H20_3 C32_3 1_555 1_555
C39_3 C40_3 1_555 1_555
C40_3 C29_3 1_555 1_555
N1_2 C28_3 1_555 1_555
N3_3 C19_3 1_555 1_555
N4_3 C19_3 1_555 1_555
N5_3 C39_3 1_555 1_555
N13_2 C23_3 1_555 1_555
Cd5 N1_2 1_555 1_555
C11_3 C12_3 1_555 1_555
C27_3 N13_2 1_555 1_555
C30_3 N1_2 1_555 1_555
C31_3 C40_3 1_555 1_555
C32_3 N3_3 1_555 1_555
C39_3 N4_3 1_555 1_555
N3_3 N5_3 1_555 1_555
Cd5 O2_3 1_555 1_555
Cd8 O4_3 1_555 1_555
O9_2 C18_3 1_555 1_555
O2_3 C20_3 1_555 1_555
O3_3 Cd5 1_555 1_555
O4_3 C18_3 1_555 1_555
C1_3 H1_3 1_555 1_555
C2_3 C1_3 1_555 1_555
C3_3 C2_3 1_555 1_555
H2_3 C3_3 1_555 1_555
C4_3 C3_3 1_555 1_555
C5_3 C4_3 1_555 1_555
H3_3 C5_3 1_555 1_555
C6_3 C1_3 1_555 1_555
C13_3 H7_3 1_555 1_555
H10_3 C17_3 1_555 1_555
C18_3 C2_3 1_555 1_555
C20_3 O3_3 1_555 1_555
H12_3 C24_3 1_555 1_555
C25_3 C24_3 1_555 1_555
C33_3 C4_3 1_555 1_555
H21_3 C33_3 1_555 1_555
H22_3 C33_3 1_555 1_555
C34_3 C25_3 1_555 1_555
C35_3 C36_3 1_555 1_555
C36_3 C37_3 1_555 1_555
C37_3 H23_3 1_555 1_555
C38_3 C36_3 1_555 1_555
H24_3 C38_3 1_555 1_555
C41_3 C37_3 1_555 1_555
C42_3 C38_3 1_555 1_555
H26_3 C42_3 1_555 1_555
N2_3 Cd8 1_555 1_555
N6_3 C33_3 1_555 1_555
N7_3 C34_3 1_555 1_555
N8_3 C34_3 1_555 1_555
N12_2 C41_3 1_555 1_555
C5_3 C6_3 1_555 1_555
C6_3 C20_3 1_555 1_555
C13_3 N2_3 1_555 1_555
C17_3 N2_3 1_555 1_555
C35_3 N6_3 1_555 1_555
C35_3 N8_3 1_555 1_555
C42_3 N12_2 1_555 1_555
N6_3 N7_3 1_555 1_555
O10_2 C22_4 1_555 1_555
O11_2 C22_4 1_555 1_555
O12 C21_4 1_555 1_555
C7_4 C8_4 1_555 1_555
C11_4 C10_4 1_555 1_555
C12_4 C7_4 1_555 1_555
H6_4 C12_4 1_555 1_555
C21_4 C11_4 1_555 1_555
C22_4 C7_4 1_555 1_555
C11_4 C12_4 1_555 1_555
H26_4 C42_4 1_555 1_555
N12 C41_4 1_555 1_555
C42_4 N12 1_555 1_555
Cd6 O2_4 1_555 1_555
Cd9 O4_4 1_555 1_555
O1_2 C18_4 1_555 1_555
O2_4 C20_4 1_555 1_555
O3_4 Cd6 1_555 1_555
O4_4 C18_4 1_555 1_555
C1_4 H1_4 1_555 1_555
C2_4 C1_4 1_555 1_555
C3_4 C2_4 1_555 1_555
H2_4 C3_4 1_555 1_555
C4_4 C3_4 1_555 1_555
C5_4 C4_4 1_555 1_555
H3_4 C5_4 1_555 1_555
C6_4 C1_4 1_555 1_555
C13_4 H7_4 1_555 1_555
C14_4 C13_4 1_555 1_555
H8_4 C14_4 1_555 1_555
C15_4 C14_4 1_555 1_555
C16_4 C15_4 1_555 1_555
H9_4 C16_4 1_555 1_555
C17_4 C16_4 1_555 1_555
H10_4 C17_4 1_555 1_555
C18_4 C2_4 1_555 1_555
C19_4 C15_4 1_555 1_555
C20_4 O3_4 1_555 1_555
C23_4 H11_4 1_555 1_555
C24_4 C23_4 1_555 1_555
H12_4 C24_4 1_555 1_555
C25_4 C24_4 1_555 1_555
C26_4 C25_4 1_555 1_555
H13_4 C26_4 1_555 1_555
C27_4 C26_4 1_555 1_555
H14_4 C27_4 1_555 1_555
H18_4 C31_4 1_555 1_555
C32_4 C9_4 1_555 1_555
H19_4 C32_4 1_555 1_555
H20_4 C32_4 1_555 1_555
C33_4 C4_4 1_555 1_555
H21_4 C33_4 1_555 1_555
H22_4 C33_4 1_555 1_555
C34_4 C25_4 1_555 1_555
C35_4 C36_4 1_555 1_555
C36_4 C37_4 1_555 1_555
C37_4 H23_4 1_555 1_555
C38_4 C36_4 1_555 1_555
H24_4 C38_4 1_555 1_555
C39_4 C40_4 1_555 1_555
N2_4 Cd9 1_555 1_555
N3_4 C19_4 1_555 1_555
N4_4 C19_4 1_555 1_555
N5_4 C39_4 1_555 1_555
N6_4 C33_4 1_555 1_555
N7_4 C34_4 1_555 1_555
N8_4 C34_4 1_555 1_555
N13 C23_4 1_555 1_555
N11_2 Cd6 1_555 1_555
C5_4 C6_4 1_555 1_555
C6_4 C20_4 1_555 1_555
C13_4 N2_4 1_555 1_555
C17_4 N2_4 1_555 1_555
C27_4 N13 1_555 1_555
C31_4 C40_4 1_555 1_555
C32_4 N3_4 1_555 1_555
C35_4 N6_4 1_555 1_555
C35_4 N8_4 1_555 1_555
C39_4 N4_4 1_555 1_555
N3_4 N5_4 1_555 1_555
N6_4 N7_4 1_555 1_555
C28_4 H15_4 1_555 1_555
C29_4 C28_4 1_555 1_555
H16_4 C29_4 1_555 1_555
C30_4 H17_4 1_555 1_555
N11_2 C28_4 1_555 1_555
C30_4 N11_2 1_555 1_555

#END
