
###############################################################################
#
# This file contains modified crystal structure data generated from the
# MOF subset of the Cambridge Structural Database (CSD) v543 
# hosted by the Cambridge Crystallographic Data Centre (CCDC).
#
# This work is licensed under the Creative Commons
# Attribution-NonCommercial-ShareAlike 4.0 International License.
# To view a copy of this license, visit
# http://creativecommons.org/licenses/by-nc-sa/4.0/
# or send a letter to
# Creative Commons, PO Box 1866, Mountain View, CA 94042, USA.
#
# CIF created using the CSD Python API on 29 September 2022
# The structure has been converted into the P1 space group
# The structure has a 3D framework
# The original CSD entry ROGLOP is in the monoclinic crystal system
# The framework has been calculated to contain at least 10.0% void space
# The void calculation uses a probe of radius 1.32A, grid spacing 0.4
#
###############################################################################

data_ROGLOP
_chemical_formula_moiety         '(C76 H64 N32 Ni11 O32)n'
_symmetry_cell_setting           triclinic
_symmetry_space_group_name_H-M   'P 1'
_symmetry_Int_Tables_number      1
_space_group_name_Hall           'P 1'
loop_
_symmetry_equiv_pos_site_id
_symmetry_equiv_pos_as_xyz
1 x,y,z
_cell_length_a                   18.502(4)
_cell_length_b                   21.177(4)
_cell_length_c                   7.4933(15)
_cell_angle_alpha                90
_cell_angle_beta                 107.39(3)
_cell_angle_gamma                90
_cell_volume                     2801.8
loop_
_atom_site_label
_atom_site_type_symbol
_atom_site_fract_x
_atom_site_fract_y
_atom_site_fract_z
Ni4 Ni 0.0000 0.0000 0.0000
Ni1 Ni 0.0000 0.41123(2) 0.2500
Ni2 Ni 0.0000 0.0000 0.5000
N1 N 0.38119(13) 0.48736(11) 0.4413(3)
C1 C 0.26964(17) 0.42362(14) 0.3848(5)
H1 H 0.2482 0.3835 0.3690
C2 C 0.22475(16) 0.47667(15) 0.3782(4)
C3 C 0.34668(17) 0.43127(14) 0.4153(5)
H2 H 0.3760 0.3954 0.4177
C4 C 0.14037(17) 0.47145(16) 0.3413(4)
O3 O 0.10234(13) 0.52113(12) 0.3293(4)
C5 C 0.25985(17) 0.53453(15) 0.4043(5)
H3 H 0.2317 0.5712 0.4007
C6 C 0.33757(17) 0.53796(14) 0.4362(5)
H4 H 0.3604 0.5775 0.4548
O4 O 0.11306(13) 0.41619(12) 0.3239(4)
N2 N 0.0000 0.04645(15) 0.7500
N3 N 0.0000 0.10234(18) 0.7500
N4 N 0.0000 0.1563(2) 0.7500
C7 C 0.0000 0.11314(17) 0.2500
C8 C 0.0000 0.18426(17) 0.2500
N5 N 0.0000 0.31582(15) 0.2500
C9 C 0.0430(2) 0.28302(15) 0.1679(6)
H5 H 0.072(2) 0.3089(19) 0.116(6)
C10 C 0.0441(2) 0.21804(14) 0.1632(6)
H8 H 0.0742 0.1971 0.1024
Ni3 Ni 0.5000 0.5000 0.5000
Ni4_2 Ni 0.0000 0.0000 1.0000
O5 O 0.02258(12) 0.08685(8) 0.1264(3)
N8 N 0.11881(13) 0.01264(11) 0.5587(3)
O7 O 0.00096(16) 0.42108(12) 0.5209(4)
H15 H 0.033(2) 0.430(2) 0.592(6)
H6 H 0.035(2) 0.441(2) 0.940(6)
Ni4_3 Ni -0.0000 1.0000 0.0000
Ni2_2 Ni 0.0000 1.0000 0.5000
Ni4_4 Ni 0.0000 1.0000 1.0000
O6 O 0.02258(12) 0.91315(8) 0.6264(3)
N9 N 0.0000 0.95355(15) 0.2500
Ni4_5 Ni 1.0000 0.0000 0.0000
Ni1_2 Ni 1.0000 0.41123(2) 0.2500
Ni2_3 Ni 1.0000 0.0000 0.5000
O1 O 0.97742(12) 0.08685(8) 0.3736(3)
N2_2 N 1.0000 0.04645(15) 0.7500
N3_2 N 1.0000 0.10234(18) 0.7500
N4_2 N 1.0000 0.1563(2) 0.7500
C7_2 C 1.0000 0.11314(17) 0.2500
C8_2 C 1.0000 0.18426(17) 0.2500
N5_2 N 1.0000 0.31582(15) 0.2500
Ni4_6 Ni 1.0000 0.0000 1.0000
Ni6 Ni 0.5000 0.5000 0.0000
N6 N 0.61881(13) 0.48736(11) 0.0587(3)
C11 C 0.73036(17) 0.42362(14) 0.1152(5)
H9 H 0.7518 0.3835 0.1310
C12 C 0.77525(16) 0.47667(15) 0.1218(4)
C13 C 0.65332(17) 0.43127(14) 0.0847(5)
H10 H 0.6240 0.3954 0.0823
C14 C 0.85963(17) 0.47145(16) 0.1587(4)
O8 O 0.89766(13) 0.52113(12) 0.1707(4)
C15 C 0.74015(17) 0.53453(15) 0.0957(5)
H11 H 0.7683 0.5712 0.0993
C16 C 0.66243(17) 0.53796(14) 0.0638(5)
H12 H 0.6396 0.5775 0.0452
O9 O 0.88694(13) 0.41619(12) 0.1761(4)
C17 C 0.9570(2) 0.28302(15) 0.3321(6)
H13 H 0.928(2) 0.3089(19) 0.384(6)
H14 H 0.965(2) 0.441(2) 0.560(6)
C18 C 0.9559(2) 0.21804(14) 0.3368(6)
H16 H 0.9258 0.1971 0.3976
O2 O 0.99904(16) 0.42108(12) 0.9791(4)
H7 H 0.967(2) 0.430(2) 0.908(6)
Ni6_2 Ni 0.5000 0.5000 1.0000
Ni4_7 Ni 1.0000 1.0000 0.0000
Ni2_4 Ni 1.0000 1.0000 0.5000
Ni4_8 Ni 1.0000 1.0000 1.0000
N7 N 0.88119(13) 0.98736(11) 0.4413(3)
N9_2 N 1.0000 0.95355(15) 0.2500
O3_2 O 0.60234(13) 0.02113(12) 0.3293(4)
C5_2 C 0.75985(17) 0.03453(15) 0.4043(5)
H3_2 H 0.7317 0.0712 0.4007
C6_2 C 0.83757(17) 0.03796(14) 0.4362(5)
H4_2 H 0.8604 0.0775 0.4548
O8_2 O 0.39766(13) 0.02113(12) 0.1707(4)
C15_2 C 0.24015(17) 0.03453(15) 0.0957(5)
H11_2 H 0.2683 0.0712 0.0993
C16_2 C 0.16243(17) 0.03796(14) 0.0638(5)
H12_2 H 0.1396 0.0775 0.0452
Ni1_3 Ni 0.5000 0.91123(2) 0.2500
O1_2 O 0.47742(12) 0.58685(8) 0.3736(3)
C1_2 C 0.76964(17) 0.92362(14) 0.3848(5)
H1_2 H 0.7482 0.8835 0.3690
C2_2 C 0.72475(16) 0.97667(15) 0.3782(4)
C3_2 C 0.84668(17) 0.93127(14) 0.4153(5)
H2_2 H 0.8760 0.8954 0.4177
C4_2 C 0.64037(17) 0.97145(16) 0.3413(4)
O4_2 O 0.61306(13) 0.91619(12) 0.3239(4)
N2_3 N 0.5000 0.54645(15) 0.7500
N3_3 N 0.5000 0.60234(18) 0.7500
N4_3 N 0.5000 0.6563(2) 0.7500
C7_3 C 0.5000 0.61314(17) 0.2500
C8_3 C 0.5000 0.68426(17) 0.2500
N5_3 N 0.5000 0.81582(15) 0.2500
C9_2 C 0.5430(2) 0.78302(15) 0.1679(6)
H5_2 H 0.572(2) 0.8089(19) 0.116(6)
C10_2 C 0.5441(2) 0.71804(14) 0.1632(6)
H8_2 H 0.5742 0.6971 0.1024
O5_2 O 0.52258(12) 0.58685(8) 0.1264(3)
O6_2 O 0.52258(12) 0.41315(8) 0.6264(3)
N6_2 N 0.11881(13) 0.98736(11) 0.0587(3)
N8_2 N 0.61881(13) 0.51264(11) 0.5587(3)
C11_2 C 0.23036(17) 0.92362(14) 0.1152(5)
H9_2 H 0.2518 0.8835 0.1310
O7_2 O 0.50096(16) 0.92108(12) 0.5209(4)
C12_2 C 0.27525(16) 0.97667(15) 0.1218(4)
C13_2 C 0.15332(17) 0.93127(14) 0.0847(5)
H10_2 H 0.1240 0.8954 0.0823
C14_2 C 0.35963(17) 0.97145(16) 0.1587(4)
O9_2 O 0.38694(13) 0.91619(12) 0.1761(4)
N9_3 N 0.5000 0.45355(15) 0.2500
C17_2 C 0.4570(2) 0.78302(15) 0.3321(6)
H13_2 H 0.428(2) 0.8089(19) 0.384(6)
H14_2 H 0.465(2) 0.941(2) 0.560(6)
H15_2 H 0.533(2) 0.930(2) 0.592(6)
C18_2 C 0.4559(2) 0.71804(14) 0.3368(6)
H16_2 H 0.4258 0.6971 0.3976
O2_2 O 0.49904(16) 0.92108(12) 0.9791(4)
H6_2 H 0.535(2) 0.941(2) 0.940(6)
H7_2 H 0.467(2) 0.930(2) 0.908(6)
N8_3 N 0.88119(13) 0.01264(11) 0.9413(3)
O6_3 O 0.97742(12) 0.91315(8) 0.8736(3)
O6_4 O 0.47742(12) 0.41315(8) 0.8736(3)
N8_4 N 0.38119(13) 0.51264(11) 0.9413(3)
O2_3 O 0.00096(16) 0.57892(12) 0.0209(4)
H7_3 H 0.033(2) 0.570(2) 0.092(6)
Ni1_4 Ni 0.0000 0.58877(2) 0.7500
N3_4 N -0.0000 0.89766(18) 0.2500
N4_4 N -0.0000 0.8437(2) 0.2500
C7_4 C 0.0000 0.88686(17) 0.7500
C8_4 C 0.0000 0.81574(17) 0.7500
N5_4 N 0.0000 0.68418(15) 0.7500
C11_3 C 0.26964(17) 0.57638(14) 0.8848(5)
H9_3 H 0.2482 0.6165 0.8690
C12_3 C 0.22475(16) 0.52333(15) 0.8782(4)
C13_3 C 0.34668(17) 0.56873(14) 0.9153(5)
H10_3 H 0.3760 0.6046 0.9177
C14_3 C 0.14037(17) 0.52855(16) 0.8413(4)
O8_3 O 0.10234(13) 0.47887(12) 0.8293(4)
C15_3 C 0.25985(17) 0.46547(15) 0.9043(5)
H11_3 H 0.2317 0.4288 0.9007
C16_3 C 0.33757(17) 0.46204(14) 0.9362(5)
H12_3 H 0.3604 0.4225 0.9548
O9_3 O 0.11306(13) 0.58381(12) 0.8239(4)
C17_3 C 0.0430(2) 0.71698(15) 0.6679(6)
H13_3 H 0.072(2) 0.6911(19) 0.616(6)
H14_3 H 0.035(2) 0.559(2) 0.440(6)
C18_3 C 0.0441(2) 0.78196(14) 0.6632(6)
H16_3 H 0.0742 0.8029 0.6024
H6_3 H 0.965(2) 0.559(2) 0.060(6)
Ni1_5 Ni 1.0000 0.58877(2) 0.7500
C1_3 C 0.73036(17) 0.57638(14) 0.6152(5)
H1_3 H 0.7518 0.6165 0.6310
C2_3 C 0.77525(16) 0.52333(15) 0.6218(4)
C3_3 C 0.65332(17) 0.56873(14) 0.5847(5)
H2_3 H 0.6240 0.6046 0.5823
C4_3 C 0.85963(17) 0.52855(16) 0.6587(4)
O3_3 O 0.89766(13) 0.47887(12) 0.6707(4)
C5_3 C 0.74015(17) 0.46547(15) 0.5957(5)
H3_3 H 0.7683 0.4288 0.5993
C6_3 C 0.66243(17) 0.46204(14) 0.5638(5)
H4_3 H 0.6396 0.4225 0.5452
O4_3 O 0.88694(13) 0.58381(12) 0.6761(4)
N3_5 N 1.0000 0.89766(18) 0.2500
N4_5 N 1.0000 0.8437(2) 0.2500
C7_5 C 1.0000 0.88686(17) 0.7500
C8_5 C 1.0000 0.81574(17) 0.7500
N5_5 N 1.0000 0.68418(15) 0.7500
C9_3 C 0.9570(2) 0.71698(15) 0.8321(6)
H5_3 H 0.928(2) 0.6911(19) 0.884(6)
C10_3 C 0.9559(2) 0.78196(14) 0.8368(6)
H8_3 H 0.9258 0.8029 0.8976
O7_3 O 0.99904(16) 0.57892(12) 0.4791(4)
H15_3 H 0.967(2) 0.570(2) 0.408(6)
O2_4 O 0.50096(16) 0.07892(12) 0.0209(4)
H6_4 H 0.465(2) 0.059(2) 0.060(6)
H7_4 H 0.533(2) 0.070(2) 0.092(6)
Ni1_6 Ni 0.5000 0.08877(2) 0.7500
C1_4 C 0.23036(17) 0.07638(14) 0.6152(5)
H1_4 H 0.2518 0.1165 0.6310
C2_4 C 0.27525(16) 0.02333(15) 0.6218(4)
C3_4 C 0.15332(17) 0.06873(14) 0.5847(5)
H2_4 H 0.1240 0.1046 0.5823
C4_4 C 0.35963(17) 0.02855(16) 0.6587(4)
O4_4 O 0.38694(13) 0.08381(12) 0.6761(4)
N3_6 N 0.5000 0.39766(18) 0.2500
N4_6 N 0.5000 0.3437(2) 0.2500
C7_6 C 0.5000 0.38686(17) 0.7500
C8_6 C 0.5000 0.31574(17) 0.7500
N5_6 N 0.5000 0.18418(15) 0.7500
C9_4 C 0.4570(2) 0.21698(15) 0.8321(6)
H5_4 H 0.428(2) 0.1911(19) 0.884(6)
C10_4 C 0.4559(2) 0.28196(14) 0.8368(6)
H8_4 H 0.4258 0.3029 0.8976
C11_4 C 0.76964(17) 0.07638(14) 0.8848(5)
H9_4 H 0.7482 0.1165 0.8690
O7_4 O 0.49904(16) 0.07892(12) 0.4791(4)
C12_4 C 0.72475(16) 0.02333(15) 0.8782(4)
C13_4 C 0.84668(17) 0.06873(14) 0.9153(5)
H10_4 H 0.8760 0.1046 0.9177
C14_4 C 0.64037(17) 0.02855(16) 0.8413(4)
O9_4 O 0.61306(13) 0.08381(12) 0.8239(4)
C17_4 C 0.5430(2) 0.21698(15) 0.6679(6)
H13_4 H 0.572(2) 0.1911(19) 0.616(6)
H14_4 H 0.535(2) 0.059(2) 0.440(6)
H15_4 H 0.467(2) 0.070(2) 0.408(6)
C18_4 C 0.5441(2) 0.28196(14) 0.6632(6)
H16_4 H 0.5742 0.3029 0.6024
O3_4 O 0.39766(13) 0.97887(12) 0.6707(4)
C5_4 C 0.24015(17) 0.96547(15) 0.5957(5)
H3_4 H 0.2683 0.9288 0.5993
C6_4 C 0.16243(17) 0.96204(14) 0.5638(5)
H4_4 H 0.1396 0.9225 0.5452
O8_4 O 0.60234(13) 0.97887(12) 0.8293(4)
C15_4 C 0.75985(17) 0.96547(15) 0.9043(5)
H11_4 H 0.7317 0.9288 0.9007
C16_4 C 0.83757(17) 0.96204(14) 0.9362(5)
H12_4 H 0.8604 0.9225 0.9548
loop_
_geom_bond_atom_site_label_1
_geom_bond_atom_site_label_2
_geom_bond_site_symmetry_1
_geom_bond_site_symmetry_2
N1 C3 1_555 1_555
C1 H1 1_555 1_555
C2 C1 1_555 1_555
C3 C1 1_555 1_555
H2 C3 1_555 1_555
C4 C2 1_555 1_555
O3 C4 1_555 1_555
C5 C2 1_555 1_555
H3 C5 1_555 1_555
C6 N1 1_555 1_555
H4 C6 1_555 1_555
O4 Ni1 1_555 1_555
N2 Ni2 1_555 1_555
N3 N2 1_555 1_555
N4 N3 1_555 1_555
C7 C8 1_555 1_555
C8 C10 1_555 1_555
N5 Ni1 1_555 1_555
C9 N5 1_555 1_555
H5 C9 1_555 1_555
C10 C9 1_555 1_555
H8 C10 1_555 1_555
Ni3 N1 1_555 1_555
Ni4_2 N2 1_555 1_555
Ni4 O5 1_555 1_555
O5 C7 1_555 1_555
N8 Ni2 1_555 1_555
O7 Ni1 1_555 1_555
H15 O7 1_555 1_555
C4 O4 1_555 1_555
C5 C6 1_555 1_555
O6 Ni2_2 1_555 1_555
N9 Ni2_2 1_555 1_555
Ni4_3 N9 1_555 1_555
Ni2_3 O1 1_555 1_555
O1 C7_2 1_555 1_555
N2_2 Ni2_3 1_555 1_555
N3_2 N2_2 1_555 1_555
N4_2 N3_2 1_555 1_555
C7_2 C8_2 1_555 1_555
N5_2 Ni1_2 1_555 1_555
Ni4_6 N2_2 1_555 1_555
Ni6 N6 1_555 1_555
N6 C13 1_555 1_555
C11 H9 1_555 1_555
C12 C11 1_555 1_555
C13 C11 1_555 1_555
H10 C13 1_555 1_555
C14 C12 1_555 1_555
O8 C14 1_555 1_555
C15 C12 1_555 1_555
H11 C15 1_555 1_555
C16 N6 1_555 1_555
H12 C16 1_555 1_555
O9 Ni1_2 1_555 1_555
C17 N5_2 1_555 1_555
H13 C17 1_555 1_555
C18 C8_2 1_555 1_555
H16 C18 1_555 1_555
C14 O9 1_555 1_555
C15 C16 1_555 1_555
C17 C18 1_555 1_555
H7 O2 1_555 1_555
N7 Ni2_4 1_555 1_555
N9_2 Ni2_4 1_555 1_555
Ni4_7 N9_2 1_555 1_555
H3_2 C5_2 1_555 1_555
H4_2 C6_2 1_555 1_555
H11_2 C15_2 1_555 1_555
H12_2 C16_2 1_555 1_555
C5_2 C6_2 1_555 1_555
C15_2 C16_2 1_555 1_555
Ni3 O1_2 1_555 1_555
O1_2 C7_3 1_555 1_555
N7 C3_2 1_555 1_555
C1_2 H1_2 1_555 1_555
C2_2 C1_2 1_555 1_555
C3_2 C1_2 1_555 1_555
H2_2 C3_2 1_555 1_555
C4_2 C2_2 1_555 1_555
O4_2 Ni1_3 1_555 1_555
N2_3 Ni3 1_555 1_555
N3_3 N2_3 1_555 1_555
N4_3 N3_3 1_555 1_555
C7_3 C8_3 1_555 1_555
C8_3 C10_2 1_555 1_555
N5_3 Ni1_3 1_555 1_555
C9_2 N5_3 1_555 1_555
H5_2 C9_2 1_555 1_555
C10_2 C9_2 1_555 1_555
H8_2 C10_2 1_555 1_555
Ni6_2 N2_3 1_555 1_555
Ni6 O5_2 1_555 1_555
Ni4_3 N6_2 1_555 1_555
O5_2 C7_3 1_555 1_555
O6_2 Ni3 1_555 1_555
N6_2 C13_2 1_555 1_555
N8_2 Ni3 1_555 1_555
C11_2 H9_2 1_555 1_555
O7_2 Ni1_3 1_555 1_555
C12_2 C11_2 1_555 1_555
C13_2 C11_2 1_555 1_555
H10_2 C13_2 1_555 1_555
C14_2 C12_2 1_555 1_555
O9_2 Ni1_3 1_555 1_555
N9_3 Ni3 1_555 1_555
C17_2 N5_3 1_555 1_555
H13_2 C17_2 1_555 1_555
H14_2 O7_2 1_555 1_555
H15_2 O7_2 1_555 1_555
C18_2 C8_3 1_555 1_555
H16_2 C18_2 1_555 1_555
C4_2 O4_2 1_555 1_555
Ni6 N9_3 1_555 1_555
C14_2 O9_2 1_555 1_555
C17_2 C18_2 1_555 1_555
O2_2 H6_2 1_555 1_555
H7_2 O2_2 1_555 1_555
N8_3 Ni4_6 1_555 1_555
O6_3 Ni4_8 1_555 1_555
O6_4 Ni6_2 1_555 1_555
N8_4 Ni6_2 1_555 1_555
H7_3 O2_3 1_555 1_555
O6 C7_4 1_555 1_555
N3_4 N9 1_555 1_555
N4_4 N3_4 1_555 1_555
C7_4 C8_4 1_555 1_555
N5_4 Ni1_4 1_555 1_555
N8_4 C13_3 1_555 1_555
C11_3 H9_3 1_555 1_555
C12_3 C11_3 1_555 1_555
C13_3 C11_3 1_555 1_555
H10_3 C13_3 1_555 1_555
C14_3 C12_3 1_555 1_555
O8_3 C14_3 1_555 1_555
C15_3 C12_3 1_555 1_555
H11_3 C15_3 1_555 1_555
C16_3 N8_4 1_555 1_555
H12_3 C16_3 1_555 1_555
O9_3 Ni1_4 1_555 1_555
C17_3 N5_4 1_555 1_555
H13_3 C17_3 1_555 1_555
C18_3 C8_4 1_555 1_555
H16_3 C18_3 1_555 1_555
C14_3 O9_3 1_555 1_555
C15_3 C16_3 1_555 1_555
C17_3 C18_3 1_555 1_555
N8_2 C3_3 1_555 1_555
C1_3 H1_3 1_555 1_555
C2_3 C1_3 1_555 1_555
C3_3 C1_3 1_555 1_555
H2_3 C3_3 1_555 1_555
C4_3 C2_3 1_555 1_555
O3_3 C4_3 1_555 1_555
C5_3 C2_3 1_555 1_555
H3_3 C5_3 1_555 1_555
C6_3 N8_2 1_555 1_555
H4_3 C6_3 1_555 1_555
O4_3 Ni1_5 1_555 1_555
N3_5 N9_2 1_555 1_555
N4_5 N3_5 1_555 1_555
C7_5 C8_5 1_555 1_555
C8_5 C10_3 1_555 1_555
N5_5 Ni1_5 1_555 1_555
C9_3 N5_5 1_555 1_555
H5_3 C9_3 1_555 1_555
C10_3 C9_3 1_555 1_555
H8_3 C10_3 1_555 1_555
O6_3 C7_5 1_555 1_555
O7_3 Ni1_5 1_555 1_555
H15_3 O7_3 1_555 1_555
C4_3 O4_3 1_555 1_555
C5_3 C6_3 1_555 1_555
O2_4 H6_4 1_555 1_555
H7_4 O2_4 1_555 1_555
O6_2 C7_6 1_555 1_555
N8 C3_4 1_555 1_555
C1_4 H1_4 1_555 1_555
C2_4 C1_4 1_555 1_555
C3_4 C1_4 1_555 1_555
H2_4 C3_4 1_555 1_555
C4_4 C2_4 1_555 1_555
O4_4 Ni1_6 1_555 1_555
N3_6 N9_3 1_555 1_555
N4_6 N3_6 1_555 1_555
C7_6 C8_6 1_555 1_555
C8_6 C10_4 1_555 1_555
N5_6 Ni1_6 1_555 1_555
C9_4 N5_6 1_555 1_555
H5_4 C9_4 1_555 1_555
C10_4 C9_4 1_555 1_555
H8_4 C10_4 1_555 1_555
O6_4 C7_6 1_555 1_555
N8_3 C13_4 1_555 1_555
C11_4 H9_4 1_555 1_555
O7_4 Ni1_6 1_555 1_555
C12_4 C11_4 1_555 1_555
C13_4 C11_4 1_555 1_555
H10_4 C13_4 1_555 1_555
C14_4 C12_4 1_555 1_555
O9_4 Ni1_6 1_555 1_555
C17_4 N5_6 1_555 1_555
H13_4 C17_4 1_555 1_555
H14_4 O7_4 1_555 1_555
H15_4 O7_4 1_555 1_555
C18_4 C8_6 1_555 1_555
H16_4 C18_4 1_555 1_555
C4_4 O4_4 1_555 1_555
C14_4 O9_4 1_555 1_555
C17_4 C18_4 1_555 1_555
H3_4 C5_4 1_555 1_555
H4_4 C6_4 1_555 1_555
H11_4 C15_4 1_555 1_555
H12_4 C16_4 1_555 1_555
C5_4 C6_4 1_555 1_555
C15_4 C16_4 1_555 1_555

#END
