
###############################################################################
#
# This file contains modified crystal structure data generated from the
# MOF subset of the Cambridge Structural Database (CSD) v543 
# hosted by the Cambridge Crystallographic Data Centre (CCDC).
#
# This work is licensed under the Creative Commons
# Attribution-NonCommercial-ShareAlike 4.0 International License.
# To view a copy of this license, visit
# http://creativecommons.org/licenses/by-nc-sa/4.0/
# or send a letter to
# Creative Commons, PO Box 1866, Mountain View, CA 94042, USA.
#
# CIF created using the CSD Python API on 29 September 2022
# The structure has been converted into the P1 space group
# The structure has a 3D framework
# The original CSD entry ROGMEG is in the tetragonal crystal system
# The framework has been calculated to contain at least 10.0% void space
# The void calculation uses a probe of radius 1.32A, grid spacing 0.4
#
###############################################################################

data_ROGMEG
_chemical_formula_moiety         '(C288 H224 N16 O75 Zn16)n'
_symmetry_cell_setting           triclinic
_symmetry_space_group_name_H-M   'P 1'
_symmetry_Int_Tables_number      1
_space_group_name_Hall           'P 1'
loop_
_symmetry_equiv_pos_site_id
_symmetry_equiv_pos_as_xyz
1 x,y,z
_cell_length_a                   19.4506(7)
_cell_length_b                   19.4506(7)
_cell_length_c                   50.9176(12)
_cell_angle_alpha                90
_cell_angle_beta                 90
_cell_angle_gamma                90
_cell_volume                     19263.4
loop_
_atom_site_label
_atom_site_type_symbol
_atom_site_fract_x
_atom_site_fract_y
_atom_site_fract_z
C14 C 0.5580(10) 0.2087(7) 0.0102(4)
H11 H 0.5597 0.191 0.028
H12 H 0.5994 0.1944 0.0011
C15 C 0.4468(9) 0.2209(11) 0.0105(4)
H13 H 0.4029 0.2037 0.0043
H14 H 0.4505 0.2076 0.0288
C19 C 0.3134(4) 0.0577(4) 0.06110(13)
H15 H 0.3242 0.0996 0.0533
C20 C 0.2610(5) 0.0534(5) 0.08125(14)
H16 H 0.2342 0.0918 0.0851
O6 O 0.1478(4) 0.0262(5) 0.11438(12)
C32 C 0.4420(10) 0.2913(7) 0.0102(4)
H25 H 0.4403 0.309 0.028
H26 H 0.4006 0.3056 0.0011
C33 C 0.5532(9) 0.2791(11) 0.0105(4)
H27 H 0.5971 0.2963 0.0043
H28 H 0.5495 0.2924 0.0288
C34 C 0.4002(3) 0.0007(4) 0.03271(11)
O9 O 0.4160(2) 0.0594(2) 0.02286(6)
O10 O 0.5840(2) 0.4406(2) 0.02286(6)
O15 O 0.5590(2) 0.0589(2) 0.02937(6)
O16 O 0.4410(2) 0.4411(2) 0.02937(6)
C3 C 0.7492(4) 0.0061(5) 0.90552(13)
C4 C 0.7077(4) 0.0609(5) 0.91147(13)
H3 H 0.7107 0.1 0.901
C5 C 0.6636(3) 0.0613(3) 0.93122(11)
H4 H 0.6393 0.1011 0.9352
C6 C 0.7653(3) 0.1261(3) 0.81390(10)
C7 C 0.8320(4) 0.1120(4) 0.82370(11)
H5 H 0.8701 0.1274 0.8144
C8 C 0.8413(4) 0.0778(5) 0.84567(14)
H6 H 0.8858 0.0734 0.8522
C9 C 0.7903(4) 0.0493(4) 0.85901(14)
C10 C 0.7238(6) 0.0573(5) 0.84927(15)
H7 H 0.6868 0.0347 0.8569
C11 C 0.7146(3) 0.1011(4) 0.82718(12)
H8 H 0.67 0.1123 0.8221
C12 C 0.8039(6) 0.0129(5) 0.88548(19)
C13 C 0.5030(9) 0.2092(5) 0.97287(19)
H9 H 0.4669 0.1901 0.9619
H10 H 0.5468 0.196 0.9653
C17 C 0.6534(3) 0.0013(3) 0.94621(10)
C18 C 0.7539(3) 0.1712(3) 0.79022(9)
N1 N 0.49804(18) 0.18290(15) 0.99682(6)
O2 O 0.5735(2) 0.0549(2) 0.97270(6)
O4 O 0.69515(19) 0.1791(2) 0.78238(6)
O5 O 0.8089(2) 0.1910(2) 0.77937(6)
Zn1 Zn 0.49520(3) 0.07564(3) 0.997816(8)
C31 C 0.4970(9) 0.2908(5) 0.97287(19)
H23 H 0.5331 0.3099 0.9619
H24 H 0.4532 0.304 0.9653
N2 N 0.50196(18) 0.31710(15) 0.99682(6)
O8 O 0.4265(2) 0.4451(2) 0.97270(6)
O12 O 0.4291(2) 0.05485(19) 0.96762(6)
O13 O 0.5709(2) 0.44515(19) 0.96762(6)
Zn2 Zn 0.50480(3) 0.42436(3) 0.997816(8)
Zn4 Zn 0.67436(3) 0.24520(3) 0.752184(8)
Zn5 Zn 0.82564(3) 0.25480(3) 0.747816(8)
C21 C 0.2508(4) 0.9939(5) 0.09448(13)
C22 C 0.2923(4) 0.9391(5) 0.08853(13)
H17 H 0.2893 0.9 0.099
C23 C 0.3364(3) 0.9387(3) 0.06878(11)
H18 H 0.3607 0.8989 0.0648
C24 C 0.2347(3) 0.8739(3) 0.18610(10)
C25 C 0.1680(4) 0.8880(4) 0.17630(11)
H19 H 0.1299 0.8726 0.1856
C26 C 0.1587(4) 0.9222(5) 0.15433(14)
H20 H 0.1142 0.9266 0.1478
C27 C 0.2097(4) 0.9507(4) 0.14099(14)
C28 C 0.2762(6) 0.9427(5) 0.15073(15)
H21 H 0.3132 0.9653 0.1431
C29 C 0.2854(3) 0.8989(4) 0.17282(12)
H22 H 0.33 0.8877 0.1779
C30 C 0.1961(6) 0.9871(5) 0.11452(19)
C35 C 0.3466(3) 0.9987(3) 0.05379(10)
C36 C 0.2461(3) 0.8288(3) 0.20978(9)
O7 O 0.4265(2) 0.9451(2) 0.02730(6)
O11 O 0.30485(19) 0.8209(2) 0.21762(6)
O14 O 0.1911(2) 0.8090(2) 0.22063(6)
Zn3 Zn 0.50480(3) 0.92436(3) 0.002184(8)
Zn6 Zn 0.32564(3) 0.75480(3) 0.247816(8)
Zn7 Zn 0.17436(3) 0.74520(3) 0.252184(8)
C1 C 0.6866(4) 0.9423(4) 0.93890(13)
H1 H 0.6758 0.9004 0.9467
C2 C 0.7390(5) 0.9466(5) 0.91875(14)
H2 H 0.7658 0.9082 0.9149
O1 O 0.8522(4) 0.9738(5) 0.88562(12)
C16 C 0.5998(3) 0.9993(4) 0.96729(11)
O3 O 0.5840(2) 0.9406(2) 0.97714(6)
Zn7_2 Zn 0.00480(3) 0.42436(3) 0.502184(8)
H2_2 H 0.8418 0.0158 0.1649
C6_2 C 0.6239(3) 0.0153(3) 0.06390(10)
C7_2 C 0.6380(4) 0.0820(4) 0.07370(11)
H5_2 H 0.6226 0.1201 0.0644
C8_2 C 0.6722(5) 0.0913(4) 0.09567(14)
H6_2 H 0.6766 0.1358 0.1022
C9_2 C 0.7007(4) 0.0403(4) 0.10901(14)
C12_2 C 0.7371(5) 0.0539(6) 0.13548(19)
O1_2 O 0.7762(5) 0.1022(4) 0.13562(12)
C18_2 C 0.5788(3) 0.0039(3) 0.04022(9)
C1_2 C 0.8077(4) 0.9366(4) 0.18890(13)
H1_2 H 0.8496 0.9258 0.1967
C2_2 C 0.8034(5) 0.9890(5) 0.16875(14)
C3_2 C 0.7439(5) 0.9992(4) 0.15552(13)
C4_2 C 0.6891(5) 0.9577(4) 0.16147(13)
H3_2 H 0.65 0.9607 0.151
C5_2 C 0.6887(3) 0.9136(3) 0.18122(11)
H4_2 H 0.6489 0.8893 0.1852
C10_2 C 0.6927(5) 0.9738(6) 0.09927(15)
H7_2 H 0.7153 0.9368 0.1069
C11_2 C 0.6489(4) 0.9646(3) 0.07718(12)
H8_2 H 0.6377 0.92 0.0721
C13_2 C 0.5408(5) 0.7530(9) 0.22287(19)
H9_2 H 0.5599 0.7169 0.2119
H10_2 H 0.554 0.7968 0.2153
C14_2 C 0.5413(7) 0.8080(10) 0.2602(4)
H11_2 H 0.559 0.8097 0.278
H12_2 H 0.5556 0.8494 0.2511
C15_2 C 0.5291(11) 0.6968(9) 0.2605(4)
H13_2 H 0.5463 0.6529 0.2543
H14_2 H 0.5424 0.7005 0.2788
C16_2 C 0.7507(4) 0.8498(3) 0.21729(11)
C17_2 C 0.7487(3) 0.9034(3) 0.19621(10)
N1_2 N 0.56710(15) 0.74804(18) 0.24682(6)
O2_2 O 0.6951(2) 0.8235(2) 0.22270(6)
O3_2 O 0.8094(2) 0.8340(2) 0.22714(6)
O4_2 O 0.5709(2) 0.94515(19) 0.03238(6)
Zn1_2 Zn 0.67436(3) 0.74520(3) 0.247816(8)
C19_2 C 0.6923(4) 0.5634(4) 0.31110(13)
H15_2 H 0.6504 0.5742 0.3033
C20_2 C 0.6966(5) 0.5110(5) 0.33125(14)
H16_2 H 0.6582 0.4842 0.3351
C21_2 C 0.7561(5) 0.5008(4) 0.34448(13)
C22_2 C 0.8109(5) 0.5423(4) 0.33853(13)
H17_2 H 0.85 0.5393 0.349
C23_2 C 0.8113(3) 0.5864(3) 0.31878(11)
H18_2 H 0.8511 0.6107 0.3148
C24_2 C 0.8761(3) 0.4847(3) 0.43610(10)
C25_2 C 0.8620(4) 0.4180(4) 0.42630(11)
H19_2 H 0.8774 0.3799 0.4356
C26_2 C 0.8278(5) 0.4087(4) 0.40433(14)
H20_2 H 0.8234 0.3642 0.3978
C27_2 C 0.7993(4) 0.4597(4) 0.39099(14)
C28_2 C 0.8073(5) 0.5262(6) 0.40073(15)
H21_2 H 0.7847 0.5632 0.3931
C29_2 C 0.8511(4) 0.5354(3) 0.42282(12)
H22_2 H 0.8623 0.58 0.4279
C30_2 C 0.7629(5) 0.4461(6) 0.36452(19)
O6_2 O 0.7238(5) 0.3978(4) 0.36438(12)
C31_2 C 0.4592(5) 0.7470(9) 0.22287(19)
H23_2 H 0.4401 0.7831 0.2119
H24_2 H 0.446 0.7032 0.2153
C32_2 C 0.4587(7) 0.6920(10) 0.2602(4)
H25_2 H 0.441 0.6903 0.278
H26_2 H 0.4444 0.6506 0.2511
C33_2 C 0.4709(11) 0.8032(9) 0.2605(4)
H27_2 H 0.4537 0.8471 0.2543
H28_2 H 0.4576 0.7995 0.2788
C34_2 C 0.7493(4) 0.6502(3) 0.28271(11)
C35_2 C 0.7513(3) 0.5966(3) 0.30379(10)
C36_2 C 0.9212(3) 0.4961(3) 0.45978(9)
N2_2 N 0.43290(15) 0.75196(18) 0.24682(6)
O7_2 O 0.8049(2) 0.6765(2) 0.27730(6)
O8_2 O 0.3049(2) 0.6765(2) 0.22270(6)
O9_2 O 0.6906(2) 0.6660(2) 0.27286(6)
O10_2 O 0.3094(2) 0.8340(2) 0.27286(6)
O11_2 O 0.9291(2) 0.55485(19) 0.46762(6)
O12_2 O 0.69515(19) 0.6791(2) 0.21762(6)
O14_2 O 0.9410(2) 0.4411(2) 0.47063(6)
O15_2 O 0.6911(2) 0.8090(2) 0.27937(6)
O16_2 O 0.3089(2) 0.6910(2) 0.27937(6)
Zn3_2 Zn 0.82564(3) 0.75480(3) 0.252184(8)
Zn6_2 Zn 0.99520(3) 0.57564(3) 0.497816(8)
C1_3 C 0.1866(4) 0.4423(4) 0.43890(13)
H1_3 H 0.1758 0.4004 0.4467
C2_3 C 0.2390(5) 0.4466(5) 0.41875(14)
H2_3 H 0.2658 0.4082 0.4149
C3_3 C 0.2492(4) 0.5061(5) 0.40552(13)
C4_3 C 0.2077(4) 0.5609(5) 0.41147(13)
H3_3 H 0.2107 0.6 0.401
C5_3 C 0.1636(3) 0.5613(3) 0.43122(11)
H4_3 H 0.1393 0.6011 0.4352
C6_3 C 0.2653(3) 0.6261(3) 0.31390(10)
C7_3 C 0.3320(4) 0.6120(4) 0.32370(11)
H5_3 H 0.3701 0.6274 0.3144
C8_3 C 0.3413(4) 0.5778(5) 0.34567(14)
H6_3 H 0.3858 0.5734 0.3522
C9_3 C 0.2903(4) 0.5493(4) 0.35901(14)
C10_3 C 0.2238(6) 0.5573(5) 0.34927(15)
H7_3 H 0.1868 0.5347 0.3569
C11_3 C 0.2146(3) 0.6011(4) 0.32718(12)
H8_3 H 0.17 0.6123 0.3221
C12_3 C 0.3039(6) 0.5129(5) 0.38548(19)
O1_3 O 0.3522(4) 0.4738(5) 0.38562(12)
C13_3 C 0.0030(9) 0.7092(5) 0.47287(19)
H10_3 H 0.0468 0.696 0.4653
C14_3 C 0.0580(10) 0.7087(7) 0.5102(4)
H11_3 H 0.0597 0.691 0.528
H12_3 H 0.0994 0.6944 0.5011
C16_3 C 0.0998(3) 0.4993(4) 0.46729(11)
C17_3 C 0.1534(3) 0.5013(3) 0.44621(10)
C18_3 C 0.2539(3) 0.6712(3) 0.29022(9)
O2_3 O 0.0735(2) 0.5549(2) 0.47270(6)
O3_3 O 0.0840(2) 0.4406(2) 0.47714(6)
O4_3 O 0.19515(19) 0.6791(2) 0.28238(6)
H23_3 H 0.0331 0.8099 0.4619
C33_3 C 0.0532(9) 0.7791(11) 0.5105(4)
H27_3 H 0.0971 0.7963 0.5043
H28_3 H 0.0495 0.7924 0.5288
N2_3 N 0.00196(18) 0.81710(15) 0.49682(6)
O10_3 O 0.0840(2) 0.9406(2) 0.52286(6)
O13_2 O 0.0709(2) 0.94515(19) 0.46762(6)
O15_3 O 0.0590(2) 0.5589(2) 0.52937(6)
Zn2_2 Zn 0.00480(3) 0.92436(3) 0.497816(8)
H9_3 H 0.9669 0.6901 0.4619
C15_3 C 0.9468(9) 0.7209(11) 0.5105(4)
H13_3 H 0.9029 0.7037 0.5043
H14_3 H 0.9505 0.7076 0.5288
N1_3 N 0.99804(18) 0.68290(15) 0.49682(6)
C19_3 C 0.8134(4) 0.5577(4) 0.56110(13)
H15_3 H 0.8242 0.5996 0.5533
C20_3 C 0.7610(5) 0.5534(5) 0.58125(14)
H16_3 H 0.7342 0.5918 0.5851
C21_3 C 0.7508(4) 0.4939(5) 0.59448(13)
C22_3 C 0.7923(4) 0.4391(5) 0.58853(13)
H17_3 H 0.7893 0.4 0.599
C23_3 C 0.8364(3) 0.4387(3) 0.56878(11)
H18_3 H 0.8607 0.3989 0.5648
C24_3 C 0.7347(3) 0.3739(3) 0.68610(10)
C25_3 C 0.6680(4) 0.3880(4) 0.67630(11)
H19_3 H 0.6299 0.3726 0.6856
C26_3 C 0.6587(4) 0.4222(5) 0.65433(14)
H20_3 H 0.6142 0.4266 0.6478
C27_3 C 0.7097(4) 0.4507(4) 0.64099(14)
C28_3 C 0.7762(6) 0.4427(5) 0.65073(15)
H21_3 H 0.8132 0.4653 0.6431
C29_3 C 0.7854(3) 0.3989(4) 0.67282(12)
H22_3 H 0.83 0.3877 0.6779
C30_3 C 0.6961(6) 0.4871(5) 0.61452(19)
O6_3 O 0.6478(4) 0.5262(5) 0.61438(12)
C31_3 C 0.9970(9) 0.7908(5) 0.47287(19)
H24_3 H 0.9532 0.804 0.4653
C32_3 C 0.9420(10) 0.7913(7) 0.5102(4)
H25_3 H 0.9403 0.809 0.528
H26_3 H 0.9006 0.8056 0.5011
C34_3 C 0.9002(3) 0.5007(4) 0.53271(11)
C35_3 C 0.8466(3) 0.4987(3) 0.55379(10)
C36_3 C 0.7461(3) 0.3288(3) 0.70978(9)
O7_3 O 0.9265(2) 0.4451(2) 0.52730(6)
O8_3 O 0.9265(2) 0.9451(2) 0.47270(6)
O9_3 O 0.9160(2) 0.5594(2) 0.52286(6)
O11_3 O 0.80485(19) 0.3209(2) 0.71762(6)
O14_3 O 0.6911(2) 0.3090(2) 0.72063(6)
O16_3 O 0.9410(2) 0.9411(2) 0.52937(6)
C1_4 C 0.3077(4) 0.4366(4) 0.68890(13)
H1_4 H 0.3496 0.4258 0.6967
C2_4 C 0.3034(5) 0.4890(5) 0.66875(14)
H2_4 H 0.3418 0.5158 0.6649
C3_4 C 0.2439(5) 0.4992(4) 0.65552(13)
C4_4 C 0.1891(5) 0.4577(4) 0.66147(13)
H3_4 H 0.15 0.4607 0.651
C5_4 C 0.1887(3) 0.4136(3) 0.68122(11)
H4_4 H 0.1489 0.3893 0.6852
C6_4 C 0.1239(3) 0.5153(3) 0.56390(10)
C7_4 C 0.1380(4) 0.5820(4) 0.57370(11)
H5_4 H 0.1226 0.6201 0.5644
C8_4 C 0.1722(5) 0.5913(4) 0.59567(14)
H6_4 H 0.1766 0.6358 0.6022
C9_4 C 0.2007(4) 0.5403(4) 0.60901(14)
C10_4 C 0.1927(5) 0.4738(6) 0.59927(15)
H7_4 H 0.2153 0.4368 0.6069
C11_4 C 0.1489(4) 0.4646(3) 0.57718(12)
H8_4 H 0.1377 0.42 0.5721
C12_4 C 0.2371(5) 0.5539(6) 0.63548(19)
O1_4 O 0.2762(5) 0.6022(4) 0.63562(12)
C13_4 C 0.0408(5) 0.2530(9) 0.72287(19)
H9_4 H 0.0599 0.2169 0.7119
H10_4 H 0.054 0.2968 0.7153
C14_4 C 0.0413(7) 0.3080(10) 0.7602(4)
H11_4 H 0.059 0.3097 0.778
H12_4 H 0.0556 0.3494 0.7511
C15_4 C 0.0291(11) 0.1968(9) 0.7605(4)
H13_4 H 0.0463 0.1529 0.7543
H14_4 H 0.0424 0.2005 0.7788
C16_4 C 0.2507(4) 0.3498(3) 0.71729(11)
C17_4 C 0.2487(3) 0.4034(3) 0.69621(10)
C18_4 C 0.0788(3) 0.5039(3) 0.54022(9)
N1_4 N 0.06710(15) 0.24804(18) 0.74682(6)
O2_4 O 0.1951(2) 0.3235(2) 0.72270(6)
O3_4 O 0.3094(2) 0.3340(2) 0.72714(6)
O4_4 O 0.0709(2) 0.44515(19) 0.53238(6)
Zn1_3 Zn 0.17436(3) 0.24520(3) 0.747816(8)
C19_4 C 0.1923(4) 0.0634(4) 0.81110(13)
H15_4 H 0.1504 0.0742 0.8033
C20_4 C 0.1966(5) 0.0110(5) 0.83125(14)
C21_4 C 0.2561(5) 0.0008(4) 0.84448(13)
C22_4 C 0.3109(5) 0.0423(4) 0.83853(13)
H17_4 H 0.35 0.0393 0.849
C23_4 C 0.3113(3) 0.0864(3) 0.81878(11)
H18_4 H 0.3511 0.1107 0.8148
C28_4 C 0.3073(5) 0.0262(6) 0.90073(15)
H21_4 H 0.2847 0.0632 0.8931
C29_4 C 0.3511(4) 0.0354(3) 0.92282(12)
H22_4 H 0.3623 0.08 0.9279
C34_4 C 0.2493(4) 0.1502(3) 0.78271(11)
C35_4 C 0.2513(3) 0.0966(3) 0.80379(10)
O7_4 O 0.3049(2) 0.1765(2) 0.77730(6)
O9_4 O 0.1906(2) 0.1660(2) 0.77286(6)
O12_3 O 0.19515(19) 0.1791(2) 0.71762(6)
O15_4 O 0.1911(2) 0.3090(2) 0.77937(6)
Zn3_3 Zn 0.32564(3) 0.25480(3) 0.752184(8)
H16_4 H 0.1582 0.9842 0.8351
C24_4 C 0.3761(3) 0.9847(3) 0.93610(10)
C25_4 C 0.3620(4) 0.9180(4) 0.92630(11)
H19_4 H 0.3774 0.8799 0.9356
C26_4 C 0.3278(5) 0.9087(4) 0.90433(14)
H20_4 H 0.3234 0.8642 0.8978
C27_4 C 0.2993(4) 0.9597(4) 0.89099(14)
C30_4 C 0.2629(5) 0.9461(6) 0.86452(19)
O6_4 O 0.2238(5) 0.8978(4) 0.86438(12)
C36_4 C 0.4212(3) 0.9961(3) 0.95978(9)
O14_4 O 0.4410(2) 0.9411(2) 0.97063(6)
C31_4 C 0.9592(5) 0.2470(9) 0.72287(19)
H23_4 H 0.9401 0.2831 0.7119
H24_4 H 0.946 0.2032 0.7153
C32_4 C 0.9587(7) 0.1920(10) 0.7602(4)
H25_4 H 0.941 0.1903 0.778
H26_4 H 0.9444 0.1506 0.7511
C33_4 C 0.9709(11) 0.3032(9) 0.7605(4)
H27_4 H 0.9537 0.3471 0.7543
H28_4 H 0.9576 0.2995 0.7788
N2_4 N 0.93290(15) 0.25196(18) 0.74682(6)
O8_4 O 0.8049(2) 0.1765(2) 0.72270(6)
O10_4 O 0.8094(2) 0.3340(2) 0.77286(6)
H16_5 H 0.3418 0.0158 0.3351
C24_5 C 0.1239(3) 0.0153(3) 0.43610(10)
C25_5 C 0.1380(4) 0.0820(4) 0.42630(11)
H19_5 H 0.1226 0.1201 0.4356
C26_5 C 0.1722(5) 0.0913(4) 0.40433(14)
H20_5 H 0.1766 0.1358 0.3978
C27_5 C 0.2007(4) 0.0403(4) 0.39099(14)
C30_5 C 0.2371(5) 0.0539(6) 0.36452(19)
O6_5 O 0.2762(5) 0.1022(4) 0.36438(12)
C36_5 C 0.0788(3) 0.0039(3) 0.45978(9)
O14_5 O 0.0590(2) 0.0589(2) 0.47063(6)
C1_5 C 0.1923(4) 0.5634(4) 0.18890(13)
H1_5 H 0.1504 0.5742 0.1967
C2_5 C 0.1966(5) 0.5110(5) 0.16875(14)
H2_5 H 0.1582 0.4842 0.1649
C3_5 C 0.2561(5) 0.5008(4) 0.15552(13)
C4_5 C 0.3109(5) 0.5423(4) 0.16147(13)
H3_5 H 0.35 0.5393 0.151
C5_5 C 0.3113(3) 0.5864(3) 0.18122(11)
H4_5 H 0.3511 0.6107 0.1852
C6_5 C 0.3761(3) 0.4847(3) 0.06390(10)
C7_5 C 0.3620(4) 0.4180(4) 0.07370(11)
H5_5 H 0.3774 0.3799 0.0644
C8_5 C 0.3278(5) 0.4087(4) 0.09567(14)
H6_5 H 0.3234 0.3642 0.1022
C9_5 C 0.2993(4) 0.4597(4) 0.10901(14)
C10_5 C 0.3073(5) 0.5262(6) 0.09927(15)
H7_5 H 0.2847 0.5632 0.1069
C11_5 C 0.3511(4) 0.5354(3) 0.07718(12)
H8_5 H 0.3623 0.58 0.0721
C12_5 C 0.2629(5) 0.4461(6) 0.13548(19)
O1_5 O 0.2238(5) 0.3978(4) 0.13562(12)
C16_5 C 0.2493(4) 0.6502(3) 0.21729(11)
C17_5 C 0.2513(3) 0.5966(3) 0.19621(10)
C18_5 C 0.4212(3) 0.4961(3) 0.04022(9)
O3_5 O 0.1906(2) 0.6660(2) 0.22714(6)
O4_5 O 0.4291(2) 0.55485(19) 0.03238(6)
C19_5 C 0.3077(4) 0.9366(4) 0.31110(13)
H15_5 H 0.3496 0.9258 0.3033
C20_5 C 0.3034(5) 0.9890(5) 0.33125(14)
C21_5 C 0.2439(5) 0.9992(4) 0.34448(13)
C22_5 C 0.1891(5) 0.9577(4) 0.33853(13)
H17_5 H 0.15 0.9607 0.349
C23_5 C 0.1887(3) 0.9136(3) 0.31878(11)
H18_5 H 0.1489 0.8893 0.3148
C28_5 C 0.1927(5) 0.9738(6) 0.40073(15)
H21_5 H 0.2153 0.9368 0.3931
C29_5 C 0.1489(4) 0.9646(3) 0.42282(12)
H22_5 H 0.1377 0.92 0.4279
C34_5 C 0.2507(4) 0.8498(3) 0.28271(11)
C35_5 C 0.2487(3) 0.9034(3) 0.30379(10)
O7_5 O 0.1951(2) 0.8235(2) 0.27730(6)
Zn4_2 Zn 0.49520(3) 0.57564(3) 0.002184(8)
Zn7_3 Zn 0.99520(3) 0.07564(3) 0.502184(8)
C21_6 C 0.2492(4) 0.0061(5) 0.59448(13)
C22_6 C 0.2077(4) 0.0609(5) 0.58853(13)
H17_6 H 0.2107 0.1 0.599
C23_6 C 0.1636(3) 0.0613(3) 0.56878(11)
H18_6 H 0.1393 0.1011 0.5648
C24_6 C 0.2653(3) 0.1261(3) 0.68610(10)
C25_6 C 0.3320(4) 0.1120(4) 0.67630(11)
H19_6 H 0.3701 0.1274 0.6856
C26_6 C 0.3413(4) 0.0778(5) 0.65433(14)
H20_6 H 0.3858 0.0734 0.6478
C27_6 C 0.2903(4) 0.0493(4) 0.64099(14)
C28_6 C 0.2238(6) 0.0573(5) 0.65073(15)
H21_6 H 0.1868 0.0347 0.6431
C29_6 C 0.2146(3) 0.1011(4) 0.67282(12)
H22_6 H 0.17 0.1123 0.6779
C30_6 C 0.3039(6) 0.0129(5) 0.61452(19)
C35_6 C 0.1534(3) 0.0013(3) 0.55379(10)
C36_6 C 0.2539(3) 0.1712(3) 0.70978(9)
O7_6 O 0.0735(2) 0.0549(2) 0.52730(6)
O14_6 O 0.3089(2) 0.1910(2) 0.72063(6)
C19_6 C 0.1866(4) 0.9423(4) 0.56110(13)
H15_6 H 0.1758 0.9004 0.5533
C20_6 C 0.2390(5) 0.9466(5) 0.58125(14)
H16_6 H 0.2658 0.9082 0.5851
O6_6 O 0.3522(4) 0.9738(5) 0.61438(12)
C34_6 C 0.0998(3) 0.9993(4) 0.53271(11)
C1_6 C 0.8134(4) 0.0577(4) 0.43890(13)
H1_6 H 0.8242 0.0996 0.4467
C2_6 C 0.7610(5) 0.0534(5) 0.41875(14)
H2_6 H 0.7342 0.0918 0.4149
O1_6 O 0.6478(4) 0.0262(5) 0.38562(12)
C16_6 C 0.9002(3) 0.0007(4) 0.46729(11)
O3_6 O 0.9160(2) 0.0594(2) 0.47714(6)
C3_6 C 0.7508(4) 0.9939(5) 0.40552(13)
C4_6 C 0.7923(4) 0.9391(5) 0.41147(13)
H3_6 H 0.7893 0.9 0.401
C5_6 C 0.8364(3) 0.9387(3) 0.43122(11)
H4_6 H 0.8607 0.8989 0.4352
C6_6 C 0.7347(3) 0.8739(3) 0.31390(10)
C7_6 C 0.6680(4) 0.8880(4) 0.32370(11)
H5_6 H 0.6299 0.8726 0.3144
C8_6 C 0.6587(4) 0.9222(5) 0.34567(14)
H6_6 H 0.6142 0.9266 0.3522
C9_6 C 0.7097(4) 0.9507(4) 0.35901(14)
C10_6 C 0.7762(6) 0.9427(5) 0.34927(15)
H7_6 H 0.8132 0.9653 0.3569
C11_6 C 0.7854(3) 0.8989(4) 0.32718(12)
H8_6 H 0.83 0.8877 0.3221
C12_6 C 0.6961(6) 0.9871(5) 0.38548(19)
C17_6 C 0.8466(3) 0.9987(3) 0.44621(10)
C18_6 C 0.7461(3) 0.8288(3) 0.29022(9)
O4_6 O 0.80485(19) 0.8209(2) 0.28238(6)
C1_7 C 0.6923(4) 0.0634(4) 0.68890(13)
H1_7 H 0.6504 0.0742 0.6967
C2_7 C 0.6966(5) 0.0110(5) 0.66875(14)
C3_7 C 0.7561(5) 0.0008(4) 0.65552(13)
C4_7 C 0.8109(5) 0.0423(4) 0.66147(13)
H3_7 H 0.85 0.0393 0.651
C5_7 C 0.8113(3) 0.0864(3) 0.68122(11)
H4_7 H 0.8511 0.1107 0.6852
C10_7 C 0.8073(5) 0.0262(6) 0.59927(15)
H7_7 H 0.7847 0.0632 0.6069
C11_7 C 0.8511(4) 0.0354(3) 0.57718(12)
H8_7 H 0.8623 0.08 0.5721
C16_7 C 0.7493(4) 0.1502(3) 0.71729(11)
C17_7 C 0.7513(3) 0.0966(3) 0.69621(10)
O3_7 O 0.6906(2) 0.1660(2) 0.72714(6)
O4_7 O 0.9291(2) 0.05485(19) 0.53238(6)
C19_7 C 0.8077(4) 0.4366(4) 0.81110(13)
H15_7 H 0.8496 0.4258 0.8033
C20_7 C 0.8034(5) 0.4890(5) 0.83125(14)
H16_7 H 0.8418 0.5158 0.8351
C21_7 C 0.7439(5) 0.4992(4) 0.84448(13)
C22_7 C 0.6891(5) 0.4577(4) 0.83853(13)
H17_7 H 0.65 0.4607 0.849
C23_7 C 0.6887(3) 0.4136(3) 0.81878(11)
H18_7 H 0.6489 0.3893 0.8148
C24_7 C 0.6239(3) 0.5153(3) 0.93610(10)
C25_7 C 0.6380(4) 0.5820(4) 0.92630(11)
H19_7 H 0.6226 0.6201 0.9356
C26_7 C 0.6722(5) 0.5913(4) 0.90433(14)
H20_7 H 0.6766 0.6358 0.8978
C27_7 C 0.7007(4) 0.5403(4) 0.89099(14)
C28_7 C 0.6927(5) 0.4738(6) 0.90073(15)
H21_7 H 0.7153 0.4368 0.8931
C29_7 C 0.6489(4) 0.4646(3) 0.92282(12)
H22_7 H 0.6377 0.42 0.9279
C30_7 C 0.7371(5) 0.5539(6) 0.86452(19)
O6_7 O 0.7762(5) 0.6022(4) 0.86438(12)
C34_7 C 0.7507(4) 0.3498(3) 0.78271(11)
C35_7 C 0.7487(3) 0.4034(3) 0.80379(10)
C36_7 C 0.5788(3) 0.5039(3) 0.95978(9)
O7_7 O 0.6951(2) 0.3235(2) 0.77730(6)
O14_7 O 0.5590(2) 0.5589(2) 0.97063(6)
H2_7 H 0.6582 0.9842 0.6649
C6_7 C 0.8761(3) 0.9847(3) 0.56390(10)
C7_7 C 0.8620(4) 0.9180(4) 0.57370(11)
H5_7 H 0.8774 0.8799 0.5644
C8_7 C 0.8278(5) 0.9087(4) 0.59567(14)
H6_7 H 0.8234 0.8642 0.6022
C9_7 C 0.7993(4) 0.9597(4) 0.60901(14)
C12_7 C 0.7629(5) 0.9461(6) 0.63548(19)
O1_7 O 0.7238(5) 0.8978(4) 0.63562(12)
C18_7 C 0.9212(3) 0.9961(3) 0.54022(9)
C19_8 C 0.6866(4) 0.4423(4) 0.06110(13)
H15_8 H 0.6758 0.4004 0.0533
C20_8 C 0.7390(5) 0.4466(5) 0.08125(14)
H16_8 H 0.7658 0.4082 0.0851
C21_8 C 0.7492(4) 0.5061(5) 0.09448(13)
C22_8 C 0.7077(4) 0.5609(5) 0.08853(13)
H17_8 H 0.7107 0.6 0.099
C23_8 C 0.6636(3) 0.5613(3) 0.06878(11)
H18_8 H 0.6393 0.6011 0.0648
C24_8 C 0.7653(3) 0.6261(3) 0.18610(10)
C25_8 C 0.8320(4) 0.6120(4) 0.17630(11)
H19_8 H 0.8701 0.6274 0.1856
C26_8 C 0.8413(4) 0.5778(5) 0.15433(14)
H20_8 H 0.8858 0.5734 0.1478
C27_8 C 0.7903(4) 0.5493(4) 0.14099(14)
C28_8 C 0.7238(6) 0.5573(5) 0.15073(15)
H21_8 H 0.6868 0.5347 0.1431
C29_8 C 0.7146(3) 0.6011(4) 0.17282(12)
H22_8 H 0.67 0.6123 0.1779
C30_8 C 0.8039(6) 0.5129(5) 0.11452(19)
O6_8 O 0.8522(4) 0.4738(5) 0.11438(12)
C34_8 C 0.5998(3) 0.4993(4) 0.03271(11)
C35_8 C 0.6534(3) 0.5013(3) 0.05379(10)
C36_8 C 0.7539(3) 0.6712(3) 0.20978(9)
O7_8 O 0.5735(2) 0.5549(2) 0.02730(6)
O14_8 O 0.8089(2) 0.6910(2) 0.22063(6)
C1_8 C 0.3134(4) 0.5577(4) 0.93890(13)
H1_8 H 0.3242 0.5996 0.9467
C2_8 C 0.2610(5) 0.5534(5) 0.91875(14)
H2_8 H 0.2342 0.5918 0.9149
C3_8 C 0.2508(4) 0.4939(5) 0.90552(13)
C4_8 C 0.2923(4) 0.4391(5) 0.91147(13)
H3_8 H 0.2893 0.4 0.901
C5_8 C 0.3364(3) 0.4387(3) 0.93122(11)
H4_8 H 0.3607 0.3989 0.9352
C6_8 C 0.2347(3) 0.3739(3) 0.81390(10)
C7_8 C 0.1680(4) 0.3880(4) 0.82370(11)
H5_8 H 0.1299 0.3726 0.8144
C8_8 C 0.1587(4) 0.4222(5) 0.84567(14)
H6_8 H 0.1142 0.4266 0.8522
C9_8 C 0.2097(4) 0.4507(4) 0.85901(14)
C10_8 C 0.2762(6) 0.4427(5) 0.84927(15)
H7_8 H 0.3132 0.4653 0.8569
C11_8 C 0.2854(3) 0.3989(4) 0.82718(12)
H8_8 H 0.33 0.3877 0.8221
C12_8 C 0.1961(6) 0.4871(5) 0.88548(19)
O1_8 O 0.1478(4) 0.5262(5) 0.88562(12)
C16_8 C 0.4002(3) 0.5007(4) 0.96729(11)
C17_8 C 0.3466(3) 0.4987(3) 0.94621(10)
C18_8 C 0.2461(3) 0.3288(3) 0.79022(9)
O3_8 O 0.4160(2) 0.5594(2) 0.97714(6)
O4_8 O 0.30485(19) 0.3209(2) 0.78238(6)
C13_5 C 0.4970(9) 0.7908(5) 0.02713(19)
H9_5 H 0.5331 0.8099 0.0381
H10_5 H 0.4532 0.804 0.0347
N1_5 N 0.50196(18) 0.81710(15) 0.00318(6)
C31_5 C 0.5030(9) 0.7092(5) 0.02713(19)
H23_5 H 0.4669 0.6901 0.0381
H24_5 H 0.5468 0.696 0.0347
N2_5 N 0.49804(18) 0.68290(15) 0.00318(6)
C14_5 C 0.4420(10) 0.7913(7) 0.9898(4)
H11_5 H 0.4403 0.809 0.972
H12_5 H 0.4006 0.8056 0.9989
C15_5 C 0.5532(9) 0.7791(11) 0.9895(4)
H13_5 H 0.5971 0.7963 0.9957
H14_5 H 0.5495 0.7924 0.9712
C32_5 C 0.5580(10) 0.7087(7) 0.9898(4)
H25_5 H 0.5597 0.691 0.972
H26_5 H 0.5994 0.6944 0.9989
C33_5 C 0.4468(9) 0.7209(11) 0.9895(4)
H27_5 H 0.4029 0.7037 0.9957
H28_5 H 0.4505 0.7076 0.9712
C13_6 C 0.4592(5) 0.2470(9) 0.77713(19)
H9_6 H 0.4401 0.2831 0.7881
H10_6 H 0.446 0.2032 0.7847
C14_6 C 0.4587(7) 0.1920(10) 0.7398(4)
H11_6 H 0.441 0.1903 0.722
H12_6 H 0.4444 0.1506 0.7489
C15_6 C 0.4709(11) 0.3032(9) 0.7395(4)
H13_6 H 0.4537 0.3471 0.7457
H14_6 H 0.4576 0.2995 0.7212
N1_6 N 0.43290(15) 0.25196(18) 0.75318(6)
C31_6 C 0.5408(5) 0.2530(9) 0.77713(19)
H23_6 H 0.5599 0.2169 0.7881
H24_6 H 0.554 0.2968 0.7847
C32_6 C 0.5413(7) 0.3080(10) 0.7398(4)
H25_6 H 0.559 0.3097 0.722
H26_6 H 0.5556 0.3494 0.7489
C33_6 C 0.5291(11) 0.1968(9) 0.7395(4)
H27_6 H 0.5463 0.1529 0.7457
H28_6 H 0.5424 0.2005 0.7212
N2_6 N 0.56710(15) 0.24804(18) 0.75318(6)
H9_7 H 0.0331 0.3099 0.5381
C15_7 C 0.0532(9) 0.2791(11) 0.4895(4)
H13_7 H 0.0971 0.2963 0.4957
H14_7 H 0.0495 0.2924 0.4712
N1_7 N 0.00196(18) 0.31710(15) 0.50318(6)
C31_7 C 0.0030(9) 0.2092(5) 0.52713(19)
H24_7 H 0.0468 0.196 0.5347
C32_7 C 0.0580(10) 0.2087(7) 0.4898(4)
H25_7 H 0.0597 0.191 0.472
H26_7 H 0.0994 0.1944 0.4989
C13_7 C 0.9970(9) 0.2908(5) 0.52713(19)
H10_7 H 0.9532 0.304 0.5347
C14_7 C 0.9420(10) 0.2913(7) 0.4898(4)
H11_7 H 0.9403 0.309 0.472
H12_7 H 0.9006 0.3056 0.4989
H23_7 H 0.9669 0.1901 0.5381
C33_7 C 0.9468(9) 0.2209(11) 0.4895(4)
H27_7 H 0.9029 0.2037 0.4957
H28_7 H 0.9505 0.2076 0.4712
N2_7 N 0.99804(18) 0.18290(15) 0.50318(6)
C31_8 C 0.0408(5) 0.7530(9) 0.27713(19)
H23_8 H 0.0599 0.7169 0.2881
H24_8 H 0.054 0.7968 0.2847
C32_8 C 0.0413(7) 0.8080(10) 0.2398(4)
H25_8 H 0.059 0.8097 0.222
H26_8 H 0.0556 0.8494 0.2489
C33_8 C 0.0291(11) 0.6968(9) 0.2395(4)
H27_8 H 0.0463 0.6529 0.2457
H28_8 H 0.0424 0.7005 0.2212
N2_8 N 0.06710(15) 0.74804(18) 0.25318(6)
C13_8 C 0.9592(5) 0.7470(9) 0.27713(19)
H9_8 H 0.9401 0.7831 0.2881
H10_8 H 0.946 0.7032 0.2847
C14_8 C 0.9587(7) 0.6920(10) 0.2398(4)
H11_8 H 0.941 0.6903 0.222
H12_8 H 0.9444 0.6506 0.2489
C15_8 C 0.9709(11) 0.8032(9) 0.2395(4)
H13_8 H 0.9537 0.8471 0.2457
H14_8 H 0.9576 0.7995 0.2212
N1_8 N 0.93290(15) 0.75196(18) 0.25318(6)
loop_
_geom_bond_atom_site_label_1
_geom_bond_atom_site_label_2
_geom_bond_site_symmetry_1
_geom_bond_site_symmetry_2
C14 H11 1_555 1_555
H12 C14 1_555 1_555
C15 H13 1_555 1_555
H14 C15 1_555 1_555
C19 H15 1_555 1_555
C20 C19 1_555 1_555
H16 C20 1_555 1_555
C32 C15 1_555 1_555
H25 C32 1_555 1_555
H26 C32 1_555 1_555
C33 C14 1_555 1_555
H27 C33 1_555 1_555
H28 C33 1_555 1_555
C34 O9 1_555 1_555
C4 C3 1_555 1_555
H3 C4 1_555 1_555
C5 C4 1_555 1_555
H4 C5 1_555 1_555
C6 C7 1_555 1_555
C7 H5 1_555 1_555
C8 C7 1_555 1_555
H6 C8 1_555 1_555
C9 C8 1_555 1_555
C10 C9 1_555 1_555
H7 C10 1_555 1_555
C11 C6 1_555 1_555
H8 C11 1_555 1_555
C12 C3 1_555 1_555
C13 H9 1_555 1_555
H10 C13 1_555 1_555
C18 C6 1_555 1_555
N1 C13 1_555 1_555
O4 C18 1_555 1_555
O5 C18 1_555 1_555
Zn1 N1 1_555 1_555
C31 C13 1_555 1_555
H23 C31 1_555 1_555
H24 C31 1_555 1_555
N2 C31 1_555 1_555
O8 Zn2 1_555 1_555
O12 Zn1 1_555 1_555
O13 Zn2 1_555 1_555
Zn2 N2 1_555 1_555
Zn4 O4 1_555 1_555
Zn5 O5 1_555 1_555
C5 C17 1_555 1_555
C9 C12 1_555 1_555
C10 C11 1_555 1_555
O2 Zn1 1_555 1_555
C22 C21 1_555 1_555
H17 C22 1_555 1_555
C23 C22 1_555 1_555
H18 C23 1_555 1_555
C24 C25 1_555 1_555
C25 H19 1_555 1_555
C26 C25 1_555 1_555
H20 C26 1_555 1_555
C27 C26 1_555 1_555
C28 C27 1_555 1_555
H21 C28 1_555 1_555
C29 C24 1_555 1_555
H22 C29 1_555 1_555
C30 C21 1_555 1_555
C36 C24 1_555 1_555
O11 C36 1_555 1_555
O14 C36 1_555 1_555
Zn6 O11 1_555 1_555
Zn7 O14 1_555 1_555
C23 C35 1_555 1_555
C27 C30 1_555 1_555
C28 C29 1_555 1_555
O7 Zn3 1_555 1_555
C1 H1 1_555 1_555
C2 C1 1_555 1_555
H2 C2 1_555 1_555
O3 C16 1_555 1_555
C6_2 C7_2 1_555 1_555
C7_2 H5_2 1_555 1_555
C8_2 C7_2 1_555 1_555
H6_2 C8_2 1_555 1_555
C9_2 C8_2 1_555 1_555
O1_2 C12_2 1_555 1_555
C18_2 C6_2 1_555 1_555
O15 C18_2 1_555 1_555
C9_2 C12_2 1_555 1_555
C1_2 H1_2 1_555 1_555
C2_2 C1_2 1_555 1_555
C3_2 C2_2 1_555 1_555
C4_2 C3_2 1_555 1_555
H3_2 C4_2 1_555 1_555
C5_2 C4_2 1_555 1_555
H4_2 C5_2 1_555 1_555
H7_2 C10_2 1_555 1_555
H8_2 C11_2 1_555 1_555
C13_2 H9_2 1_555 1_555
H10_2 C13_2 1_555 1_555
C14_2 H11_2 1_555 1_555
H12_2 C14_2 1_555 1_555
C15_2 H13_2 1_555 1_555
H14_2 C15_2 1_555 1_555
C16_2 C17_2 1_555 1_555
C17_2 C1_2 1_555 1_555
N1_2 C13_2 1_555 1_555
O2_2 C16_2 1_555 1_555
O3_2 C16_2 1_555 1_555
Zn1_2 N1_2 1_555 1_555
C19_2 H15_2 1_555 1_555
C20_2 C19_2 1_555 1_555
H16_2 C20_2 1_555 1_555
C21_2 C20_2 1_555 1_555
C22_2 C21_2 1_555 1_555
H17_2 C22_2 1_555 1_555
C23_2 C22_2 1_555 1_555
H18_2 C23_2 1_555 1_555
C24_2 C25_2 1_555 1_555
C25_2 H19_2 1_555 1_555
C26_2 C25_2 1_555 1_555
H20_2 C26_2 1_555 1_555
C27_2 C26_2 1_555 1_555
C28_2 C27_2 1_555 1_555
H21_2 C28_2 1_555 1_555
C29_2 C24_2 1_555 1_555
H22_2 C29_2 1_555 1_555
C30_2 C21_2 1_555 1_555
O6_2 C30_2 1_555 1_555
C31_2 C13_2 1_555 1_555
H23_2 C31_2 1_555 1_555
H24_2 C31_2 1_555 1_555
C32_2 C15_2 1_555 1_555
H25_2 C32_2 1_555 1_555
H26_2 C32_2 1_555 1_555
C33_2 C14_2 1_555 1_555
H27_2 C33_2 1_555 1_555
H28_2 C33_2 1_555 1_555
C34_2 C35_2 1_555 1_555
C35_2 C19_2 1_555 1_555
C36_2 C24_2 1_555 1_555
N2_2 C31_2 1_555 1_555
O7_2 C34_2 1_555 1_555
O8_2 Zn6 1_555 1_555
O9_2 Zn1_2 1_555 1_555
O10_2 Zn6 1_555 1_555
O11_2 C36_2 1_555 1_555
O12_2 Zn1_2 1_555 1_555
O14_2 C36_2 1_555 1_555
O15_2 Zn1_2 1_555 1_555
O16_2 Zn6 1_555 1_555
Zn6 N2_2 1_555 1_555
Zn3_2 O3_2 1_555 1_555
Zn3 O4_2 1_555 1_555
Zn6_2 O11_2 1_555 1_555
C5_2 C17_2 1_555 1_555
C10_2 C11_2 1_555 1_555
C14_2 N1_2 1_555 1_555
C15_2 N1_2 1_555 1_555
O2_2 Zn1_2 1_555 1_555
C23_2 C35_2 1_555 1_555
C27_2 C30_2 1_555 1_555
C28_2 C29_2 1_555 1_555
C32_2 N2_2 1_555 1_555
C33_2 N2_2 1_555 1_555
C34_2 O9_2 1_555 1_555
O7_2 Zn3_2 1_555 1_555
C1_3 H1_3 1_555 1_555
C2_3 C1_3 1_555 1_555
H2_3 C2_3 1_555 1_555
C3_3 C2_3 1_555 1_555
C4_3 C3_3 1_555 1_555
H3_3 C4_3 1_555 1_555
C5_3 C4_3 1_555 1_555
H4_3 C5_3 1_555 1_555
C6_3 C7_3 1_555 1_555
C7_3 H5_3 1_555 1_555
C8_3 C7_3 1_555 1_555
H6_3 C8_3 1_555 1_555
C9_3 C8_3 1_555 1_555
C10_3 C9_3 1_555 1_555
H7_3 C10_3 1_555 1_555
C11_3 C6_3 1_555 1_555
H8_3 C11_3 1_555 1_555
C12_3 C3_3 1_555 1_555
O1_3 C12_3 1_555 1_555
H10_3 C13_3 1_555 1_555
C14_3 H11_3 1_555 1_555
H12_3 C14_3 1_555 1_555
C16_3 C17_3 1_555 1_555
C17_3 C1_3 1_555 1_555
C18_3 C6_3 1_555 1_555
O2_3 C16_3 1_555 1_555
O3_3 C16_3 1_555 1_555
O4_3 C18_3 1_555 1_555
O16_2 C18_3 1_555 1_555
C33_3 C14_3 1_555 1_555
H27_3 C33_3 1_555 1_555
H28_3 C33_3 1_555 1_555
O10_3 Zn2_2 1_555 1_555
O13_2 Zn2_2 1_555 1_555
Zn2_2 N2_3 1_555 1_555
Zn7_2 O3_3 1_555 1_555
Zn7 O4_3 1_555 1_555
C5_3 C17_3 1_555 1_555
C9_3 C12_3 1_555 1_555
C10_3 C11_3 1_555 1_555
C33_3 N2_3 1_555 1_555
C15_3 H13_3 1_555 1_555
H14_3 C15_3 1_555 1_555
Zn6_2 N1_3 1_555 1_555
C19_3 H15_3 1_555 1_555
C20_3 C19_3 1_555 1_555
H16_3 C20_3 1_555 1_555
C21_3 C20_3 1_555 1_555
C22_3 C21_3 1_555 1_555
H17_3 C22_3 1_555 1_555
C23_3 C22_3 1_555 1_555
H18_3 C23_3 1_555 1_555
C24_3 C25_3 1_555 1_555
C25_3 H19_3 1_555 1_555
C26_3 C25_3 1_555 1_555
H20_3 C26_3 1_555 1_555
C27_3 C26_3 1_555 1_555
C28_3 C27_3 1_555 1_555
H21_3 C28_3 1_555 1_555
C29_3 C24_3 1_555 1_555
H22_3 C29_3 1_555 1_555
C30_3 C21_3 1_555 1_555
O6_3 C30_3 1_555 1_555
H24_3 C31_3 1_555 1_555
C32_3 C15_3 1_555 1_555
H25_3 C32_3 1_555 1_555
H26_3 C32_3 1_555 1_555
C34_3 C35_3 1_555 1_555
C35_3 C19_3 1_555 1_555
C36_3 C24_3 1_555 1_555
O7_3 C34_3 1_555 1_555
O9_3 Zn6_2 1_555 1_555
O11_3 C36_3 1_555 1_555
O14_3 C36_3 1_555 1_555
Zn5 O11_3 1_555 1_555
Zn4 O14_3 1_555 1_555
C15_3 N1_3 1_555 1_555
C23_3 C35_3 1_555 1_555
C27_3 C30_3 1_555 1_555
C28_3 C29_3 1_555 1_555
C34_3 O9_3 1_555 1_555
C1_4 H1_4 1_555 1_555
C2_4 C1_4 1_555 1_555
H2_4 C2_4 1_555 1_555
C3_4 C2_4 1_555 1_555
C4_4 C3_4 1_555 1_555
H3_4 C4_4 1_555 1_555
C5_4 C4_4 1_555 1_555
H4_4 C5_4 1_555 1_555
C6_4 C7_4 1_555 1_555
C7_4 H5_4 1_555 1_555
C8_4 C7_4 1_555 1_555
H6_4 C8_4 1_555 1_555
C9_4 C8_4 1_555 1_555
C10_4 C9_4 1_555 1_555
H7_4 C10_4 1_555 1_555
C11_4 C6_4 1_555 1_555
H8_4 C11_4 1_555 1_555
C12_4 C3_4 1_555 1_555
O1_4 C12_4 1_555 1_555
C13_4 H9_4 1_555 1_555
H10_4 C13_4 1_555 1_555
C14_4 H11_4 1_555 1_555
H12_4 C14_4 1_555 1_555
C15_4 H13_4 1_555 1_555
H14_4 C15_4 1_555 1_555
C16_4 C17_4 1_555 1_555
C17_4 C1_4 1_555 1_555
C18_4 C6_4 1_555 1_555
N1_4 C13_4 1_555 1_555
O2_4 C16_4 1_555 1_555
O3_4 C16_4 1_555 1_555
O4_4 C18_4 1_555 1_555
O15_3 C18_4 1_555 1_555
Zn1_3 N1_4 1_555 1_555
C19_4 H15_4 1_555 1_555
C20_4 C19_4 1_555 1_555
C21_4 C20_4 1_555 1_555
C22_4 C21_4 1_555 1_555
H17_4 C22_4 1_555 1_555
C23_4 C22_4 1_555 1_555
H18_4 C23_4 1_555 1_555
H21_4 C28_4 1_555 1_555
H22_4 C29_4 1_555 1_555
C34_4 C35_4 1_555 1_555
C35_4 C19_4 1_555 1_555
O7_4 C34_4 1_555 1_555
O9_4 Zn1_3 1_555 1_555
O12_3 Zn1_3 1_555 1_555
O15_4 Zn1_3 1_555 1_555
Zn3_3 O3_4 1_555 1_555
Zn7_2 O4_4 1_555 1_555
C5_4 C17_4 1_555 1_555
C9_4 C12_4 1_555 1_555
C10_4 C11_4 1_555 1_555
C14_4 N1_4 1_555 1_555
C15_4 N1_4 1_555 1_555
O2_4 Zn1_3 1_555 1_555
C23_4 C35_4 1_555 1_555
C28_4 C29_4 1_555 1_555
C34_4 O9_4 1_555 1_555
O7_4 Zn3_3 1_555 1_555
C24_4 C25_4 1_555 1_555
C25_4 H19_4 1_555 1_555
C26_4 C25_4 1_555 1_555
H20_4 C26_4 1_555 1_555
C27_4 C26_4 1_555 1_555
O6_4 C30_4 1_555 1_555
C36_4 C24_4 1_555 1_555
O14_4 C36_4 1_555 1_555
C27_4 C30_4 1_555 1_555
H23_4 C31_4 1_555 1_555
H24_4 C31_4 1_555 1_555
H25_4 C32_4 1_555 1_555
H26_4 C32_4 1_555 1_555
H27_4 C33_4 1_555 1_555
H28_4 C33_4 1_555 1_555
N2_4 C31_4 1_555 1_555
O8_4 Zn5 1_555 1_555
O10_4 Zn5 1_555 1_555
Zn5 N2_4 1_555 1_555
C32_4 N2_4 1_555 1_555
C33_4 N2_4 1_555 1_555
C24_5 C25_5 1_555 1_555
C25_5 H19_5 1_555 1_555
C26_5 C25_5 1_555 1_555
H20_5 C26_5 1_555 1_555
C27_5 C26_5 1_555 1_555
O6_5 C30_5 1_555 1_555
C36_5 C24_5 1_555 1_555
O14_5 C36_5 1_555 1_555
C27_5 C30_5 1_555 1_555
C1_5 H1_5 1_555 1_555
C2_5 C1_5 1_555 1_555
H2_5 C2_5 1_555 1_555
C3_5 C2_5 1_555 1_555
C4_5 C3_5 1_555 1_555
H3_5 C4_5 1_555 1_555
C5_5 C4_5 1_555 1_555
H4_5 C5_5 1_555 1_555
C6_5 C7_5 1_555 1_555
C7_5 H5_5 1_555 1_555
C8_5 C7_5 1_555 1_555
H6_5 C8_5 1_555 1_555
C9_5 C8_5 1_555 1_555
C10_5 C9_5 1_555 1_555
H7_5 C10_5 1_555 1_555
C11_5 C6_5 1_555 1_555
H8_5 C11_5 1_555 1_555
C12_5 C3_5 1_555 1_555
O1_5 C12_5 1_555 1_555
C16_5 C17_5 1_555 1_555
C17_5 C1_5 1_555 1_555
C18_5 C6_5 1_555 1_555
O8_2 C16_5 1_555 1_555
O3_5 C16_5 1_555 1_555
O4_5 C18_5 1_555 1_555
O16 C18_5 1_555 1_555
C19_5 H15_5 1_555 1_555
C20_5 C19_5 1_555 1_555
C21_5 C20_5 1_555 1_555
C22_5 C21_5 1_555 1_555
H17_5 C22_5 1_555 1_555
C23_5 C22_5 1_555 1_555
H18_5 C23_5 1_555 1_555
H21_5 C28_5 1_555 1_555
H22_5 C29_5 1_555 1_555
C34_5 C35_5 1_555 1_555
C35_5 C19_5 1_555 1_555
O7_5 C34_5 1_555 1_555
Zn7 O3_5 1_555 1_555
Zn4_2 O4_5 1_555 1_555
C5_5 C17_5 1_555 1_555
C9_5 C12_5 1_555 1_555
C10_5 C11_5 1_555 1_555
C23_5 C35_5 1_555 1_555
C28_5 C29_5 1_555 1_555
C34_5 O10_2 1_555 1_555
O7_5 Zn7 1_555 1_555
C22_6 C21_6 1_555 1_555
H17_6 C22_6 1_555 1_555
C23_6 C22_6 1_555 1_555
H18_6 C23_6 1_555 1_555
C24_6 C25_6 1_555 1_555
C25_6 H19_6 1_555 1_555
C26_6 C25_6 1_555 1_555
H20_6 C26_6 1_555 1_555
C27_6 C26_6 1_555 1_555
C28_6 C27_6 1_555 1_555
H21_6 C28_6 1_555 1_555
C29_6 C24_6 1_555 1_555
H22_6 C29_6 1_555 1_555
C30_6 C21_6 1_555 1_555
C36_6 C24_6 1_555 1_555
O12_3 C36_6 1_555 1_555
O14_6 C36_6 1_555 1_555
Zn3_3 O14_6 1_555 1_555
C23_6 C35_6 1_555 1_555
C27_6 C30_6 1_555 1_555
C28_6 C29_6 1_555 1_555
C19_6 H15_6 1_555 1_555
C20_6 C19_6 1_555 1_555
H16_6 C20_6 1_555 1_555
C34_6 O10_3 1_555 1_555
C1_6 H1_6 1_555 1_555
C2_6 C1_6 1_555 1_555
H2_6 C2_6 1_555 1_555
O3_6 C16_6 1_555 1_555
Zn7_3 O3_6 1_555 1_555
C4_6 C3_6 1_555 1_555
H3_6 C4_6 1_555 1_555
C5_6 C4_6 1_555 1_555
H4_6 C5_6 1_555 1_555
C6_6 C7_6 1_555 1_555
C7_6 H5_6 1_555 1_555
C8_6 C7_6 1_555 1_555
H6_6 C8_6 1_555 1_555
C9_6 C8_6 1_555 1_555
C10_6 C9_6 1_555 1_555
H7_6 C10_6 1_555 1_555
C11_6 C6_6 1_555 1_555
H8_6 C11_6 1_555 1_555
C12_6 C3_6 1_555 1_555
C18_6 C6_6 1_555 1_555
O4_6 C18_6 1_555 1_555
O15_2 C18_6 1_555 1_555
Zn3_2 O4_6 1_555 1_555
C5_6 C17_6 1_555 1_555
C9_6 C12_6 1_555 1_555
C10_6 C11_6 1_555 1_555
C1_7 H1_7 1_555 1_555
C2_7 C1_7 1_555 1_555
C3_7 C2_7 1_555 1_555
C4_7 C3_7 1_555 1_555
H3_7 C4_7 1_555 1_555
C5_7 C4_7 1_555 1_555
H4_7 C5_7 1_555 1_555
H7_7 C10_7 1_555 1_555
H8_7 C11_7 1_555 1_555
C16_7 C17_7 1_555 1_555
C17_7 C1_7 1_555 1_555
O8_4 C16_7 1_555 1_555
O3_7 C16_7 1_555 1_555
C19_7 H15_7 1_555 1_555
C20_7 C19_7 1_555 1_555
H16_7 C20_7 1_555 1_555
C21_7 C20_7 1_555 1_555
C22_7 C21_7 1_555 1_555
H17_7 C22_7 1_555 1_555
C23_7 C22_7 1_555 1_555
H18_7 C23_7 1_555 1_555
C24_7 C25_7 1_555 1_555
C25_7 H19_7 1_555 1_555
C26_7 C25_7 1_555 1_555
H20_7 C26_7 1_555 1_555
C27_7 C26_7 1_555 1_555
C28_7 C27_7 1_555 1_555
H21_7 C28_7 1_555 1_555
C29_7 C24_7 1_555 1_555
H22_7 C29_7 1_555 1_555
C30_7 C21_7 1_555 1_555
O6_7 C30_7 1_555 1_555
C34_7 C35_7 1_555 1_555
C35_7 C19_7 1_555 1_555
C36_7 C24_7 1_555 1_555
O7_7 C34_7 1_555 1_555
O13 C36_7 1_555 1_555
O14_7 C36_7 1_555 1_555
Zn4 O3_7 1_555 1_555
Zn7_3 O4_7 1_555 1_555
C5_7 C17_7 1_555 1_555
C10_7 C11_7 1_555 1_555
C23_7 C35_7 1_555 1_555
C27_7 C30_7 1_555 1_555
C28_7 C29_7 1_555 1_555
C34_7 O10_4 1_555 1_555
O7_7 Zn4 1_555 1_555
C6_7 C7_7 1_555 1_555
C7_7 H5_7 1_555 1_555
C8_7 C7_7 1_555 1_555
H6_7 C8_7 1_555 1_555
C9_7 C8_7 1_555 1_555
O1_7 C12_7 1_555 1_555
C18_7 C6_7 1_555 1_555
O16_3 C18_7 1_555 1_555
C9_7 C12_7 1_555 1_555
C19_8 H15_8 1_555 1_555
C20_8 C19_8 1_555 1_555
H16_8 C20_8 1_555 1_555
C21_8 C20_8 1_555 1_555
C22_8 C21_8 1_555 1_555
H17_8 C22_8 1_555 1_555
C23_8 C22_8 1_555 1_555
H18_8 C23_8 1_555 1_555
C24_8 C25_8 1_555 1_555
C25_8 H19_8 1_555 1_555
C26_8 C25_8 1_555 1_555
H20_8 C26_8 1_555 1_555
C27_8 C26_8 1_555 1_555
C28_8 C27_8 1_555 1_555
H21_8 C28_8 1_555 1_555
C29_8 C24_8 1_555 1_555
H22_8 C29_8 1_555 1_555
C30_8 C21_8 1_555 1_555
O6_8 C30_8 1_555 1_555
C34_8 C35_8 1_555 1_555
C35_8 C19_8 1_555 1_555
C36_8 C24_8 1_555 1_555
O7_8 C34_8 1_555 1_555
O12_2 C36_8 1_555 1_555
O14_8 C36_8 1_555 1_555
Zn3_2 O14_8 1_555 1_555
C23_8 C35_8 1_555 1_555
C27_8 C30_8 1_555 1_555
C28_8 C29_8 1_555 1_555
C34_8 O10 1_555 1_555
O7_8 Zn4_2 1_555 1_555
C1_8 H1_8 1_555 1_555
C2_8 C1_8 1_555 1_555
H2_8 C2_8 1_555 1_555
C3_8 C2_8 1_555 1_555
C4_8 C3_8 1_555 1_555
H3_8 C4_8 1_555 1_555
C5_8 C4_8 1_555 1_555
H4_8 C5_8 1_555 1_555
C6_8 C7_8 1_555 1_555
C7_8 H5_8 1_555 1_555
C8_8 C7_8 1_555 1_555
H6_8 C8_8 1_555 1_555
C9_8 C8_8 1_555 1_555
C10_8 C9_8 1_555 1_555
H7_8 C10_8 1_555 1_555
C11_8 C6_8 1_555 1_555
H8_8 C11_8 1_555 1_555
C12_8 C3_8 1_555 1_555
O1_8 C12_8 1_555 1_555
C16_8 C17_8 1_555 1_555
C17_8 C1_8 1_555 1_555
C18_8 C6_8 1_555 1_555
O8 C16_8 1_555 1_555
O3_8 C16_8 1_555 1_555
O4_8 C18_8 1_555 1_555
O15_4 C18_8 1_555 1_555
Zn3_3 O4_8 1_555 1_555
C5_8 C17_8 1_555 1_555
C9_8 C12_8 1_555 1_555
C10_8 C11_8 1_555 1_555
C13_5 H9_5 1_555 1_555
H10_5 C13_5 1_555 1_555
N1_5 C13_5 1_555 1_555
Zn3 N1_5 1_555 1_555
C31_5 C13_5 1_555 1_555
H23_5 C31_5 1_555 1_555
H24_5 C31_5 1_555 1_555
N2_5 C31_5 1_555 1_555
Zn4_2 N2_5 1_555 1_555
C14_5 H11_5 1_555 1_555
H12_5 C14_5 1_555 1_555
C15_5 H13_5 1_555 1_555
H14_5 C15_5 1_555 1_555
C32_5 C15_5 1_555 1_555
H25_5 C32_5 1_555 1_555
H26_5 C32_5 1_555 1_555
C33_5 C14_5 1_555 1_555
H27_5 C33_5 1_555 1_555
H28_5 C33_5 1_555 1_555
C13_6 H9_6 1_555 1_555
H10_6 C13_6 1_555 1_555
C14_6 H11_6 1_555 1_555
H12_6 C14_6 1_555 1_555
C15_6 H13_6 1_555 1_555
H14_6 C15_6 1_555 1_555
N1_6 C13_6 1_555 1_555
Zn3_3 N1_6 1_555 1_555
C31_6 C13_6 1_555 1_555
H23_6 C31_6 1_555 1_555
H24_6 C31_6 1_555 1_555
C32_6 C15_6 1_555 1_555
H25_6 C32_6 1_555 1_555
H26_6 C32_6 1_555 1_555
C33_6 C14_6 1_555 1_555
H27_6 C33_6 1_555 1_555
H28_6 C33_6 1_555 1_555
N2_6 C31_6 1_555 1_555
Zn4 N2_6 1_555 1_555
C14_6 N1_6 1_555 1_555
C15_6 N1_6 1_555 1_555
C32_6 N2_6 1_555 1_555
C33_6 N2_6 1_555 1_555
C15_7 H13_7 1_555 1_555
H14_7 C15_7 1_555 1_555
Zn7_2 N1_7 1_555 1_555
H24_7 C31_7 1_555 1_555
C32_7 C15_7 1_555 1_555
H25_7 C32_7 1_555 1_555
H26_7 C32_7 1_555 1_555
C15_7 N1_7 1_555 1_555
H10_7 C13_7 1_555 1_555
C14_7 H11_7 1_555 1_555
H12_7 C14_7 1_555 1_555
C33_7 C14_7 1_555 1_555
H27_7 C33_7 1_555 1_555
H28_7 C33_7 1_555 1_555
Zn7_3 N2_7 1_555 1_555
C33_7 N2_7 1_555 1_555
H23_8 C31_8 1_555 1_555
H24_8 C31_8 1_555 1_555
H25_8 C32_8 1_555 1_555
H26_8 C32_8 1_555 1_555
H27_8 C33_8 1_555 1_555
H28_8 C33_8 1_555 1_555
N2_8 C31_8 1_555 1_555
Zn7 N2_8 1_555 1_555
C32_8 N2_8 1_555 1_555
C33_8 N2_8 1_555 1_555
C13_8 H9_8 1_555 1_555
H10_8 C13_8 1_555 1_555
C14_8 H11_8 1_555 1_555
H12_8 C14_8 1_555 1_555
C15_8 H13_8 1_555 1_555
H14_8 C15_8 1_555 1_555
N1_8 C13_8 1_555 1_555
Zn3_2 N1_8 1_555 1_555
C14_8 N1_8 1_555 1_555
C15_8 N1_8 1_555 1_555

#END
