
###############################################################################
#
# This file contains modified crystal structure data generated from the
# MOF subset of the Cambridge Structural Database (CSD) v543 
# hosted by the Cambridge Crystallographic Data Centre (CCDC).
#
# This work is licensed under the Creative Commons
# Attribution-NonCommercial-ShareAlike 4.0 International License.
# To view a copy of this license, visit
# http://creativecommons.org/licenses/by-nc-sa/4.0/
# or send a letter to
# Creative Commons, PO Box 1866, Mountain View, CA 94042, USA.
#
# CIF created using the CSD Python API on 29 September 2022
# The structure has been converted into the P1 space group
# The structure has a 3D framework
# The original CSD entry ROGRIP is in the triclinic crystal system
# The framework has been calculated to contain at least 10.0% void space
# The void calculation uses a probe of radius 1.32A, grid spacing 0.4
# H atom positions have been added when not included in the experimental data
#
###############################################################################

data_ROGRIP
_chemical_formula_moiety         '(C168 H144 Cd6 N24 O50)n'
_symmetry_cell_setting           triclinic
_symmetry_space_group_name_H-M   'P 1'
_symmetry_Int_Tables_number      1
_space_group_name_Hall           'P 1'
loop_
_symmetry_equiv_pos_site_id
_symmetry_equiv_pos_as_xyz
1 x,y,z
_cell_length_a                   13.9187(15)
_cell_length_b                   14.5613(15)
_cell_length_c                   22.182(2)
_cell_angle_alpha                93.236(2)
_cell_angle_beta                 91.339(2)
_cell_angle_gamma                91.661(2)
_cell_volume                     4485.26
loop_
_atom_site_label
_atom_site_type_symbol
_atom_site_fract_x
_atom_site_fract_y
_atom_site_fract_z
Cd1 Cd 0.28103(6) 0.10210(6) 0.30235(3)
O1 O 0.0274(5) 0.3444(5) 0.5062(3)
O3 O 0.0853(6) 0.4285(5) 0.3686(3)
O9 O 0.1325(6) 0.1595(6) 0.2937(4)
O10 O 0.1303(7) 0.0670(7) 0.3656(4)
O11 O 0.0225(6) 0.1113(5) 0.4903(3)
O13 O 0.4517(5) 0.0320(5) 0.0952(3)
O14 O 0.5871(5) 0.0908(6) 0.1375(3)
O18 O 0.3850(7) 0.4448(6) 0.0041(4)
O19 O 0.6255(6) 0.3848(6) 0.1701(4)
O20 O 0.6084(9) 0.4874(8) 0.1028(4)
O21 O 0.4641(6) 0.4830(6) 0.2461(4)
O22 O 0.4930(6) 0.3517(5) 0.2893(3)
O23 O 0.3167(6) 0.2025(6) 0.2269(3)
O24 O 0.4421(7) 0.1291(6) 0.2555(4)
O27 O 0.6444(5) 0.0106(5) 0.0115(3)
N3 N 0.2844(6) 0.1040(6) 0.8603(4)
N5 N 0.3336(7) 0.2162(7) 0.3729(4)
N6 N 0.4514(7) 0.5371(7) 0.6173(4)
H1 H 0.4641 0.5755 0.6487
H5 H 0.0614 0.2553 0.4122
H7 H 0.0314 0.3021 0.2897
C11 C 0.0898(9) 0.1180(9) 0.3308(5)
C13 C 0.4531(8) 0.1910(7) 0.1214(4)
H11 H 0.3825 0.1781 0.1152
C14 C 0.4871(8) 0.2475(8) 0.0690(4)
H12 H 0.5583 0.2581 0.0731
C15 C 0.4391(8) 0.3399(7) 0.0719(5)
H13 H 0.3687 0.3258 0.0747
C16 C 0.4680(8) 0.3970(8) 0.1302(4)
H14 H 0.4311 0.4550 0.1308
C17 C 0.4374(8) 0.3435(7) 0.1843(5)
H15 H 0.3655 0.3409 0.1829
C18 C 0.4688(9) 0.2429(8) 0.1856(5)
H16 H 0.5373 0.2402 0.1998
C19 C 0.5025(8) 0.0984(7) 0.1196(4)
C20 C 0.4639(9) 0.1922(8) 0.0094(5)
C21 C 0.4514(10) 0.3875(9) 0.0134(6)
C22 C 0.5756(10) 0.4241(9) 0.1332(5)
C23 C 0.4677(9) 0.3990(9) 0.2443(6)
C24 C 0.4029(9) 0.1882(8) 0.2252(5)
C35 C 0.2558(8) 0.0566(8) 0.8079(5)
C36 C 0.1932(8) 0.0946(8) 0.7666(5)
H26 H 0.1750 0.0601 0.7304
C37 C 0.1573(8) 0.1814(9) 0.7773(5)
C38 C 0.1855(9) 0.2268(9) 0.8318(5)
H27 H 0.1621 0.2860 0.8426
C39 C 0.2479(8) 0.1848(9) 0.8701(5)
H28 H 0.2660 0.2178 0.9069
C40 C 0.0937(7) 0.2246(8) 0.7329(5)
C41 C 0.0638(9) 0.1848(9) 0.6773(5)
H29 H 0.0796 0.1231 0.6666
C42 C 0.0116(9) 0.2337(9) 0.6373(5)
C43 C 0.0124(9) 0.3569(9) 0.7024(5)
C44 C 0.0637(9) 0.3155(9) 0.7458(5)
H32 H 0.0790 0.3468 0.7836
C45 C 0.4128(9) 0.2105(8) 0.4063(5)
H33 H 0.4522 0.1593 0.3979
C46 C 0.4425(8) 0.2728(9) 0.4524(5)
H34 H 0.5010 0.2653 0.4743
C47 C 0.3843(8) 0.3479(8) 0.4664(4)
C48 C 0.3043(8) 0.3571(8) 0.4308(5)
H35 H 0.2648 0.4087 0.4371
C49 C 0.2810(9) 0.2893(8) 0.3847(5)
H36 H 0.2245 0.2962 0.3607
C50 C 0.4088(7) 0.4143(8) 0.5184(5)
C51 C 0.4725(8) 0.3908(9) 0.5638(5)
H37 H 0.5026 0.3330 0.5619
C52 C 0.4910(9) 0.4550(8) 0.6122(5)
H38 H 0.5344 0.4390 0.6433
C53 C 0.3916(8) 0.5587(8) 0.5728(5)
H39 H 0.3642 0.6177 0.5748
C54 C 0.3680(8) 0.4991(8) 0.5240(5)
H40 H 0.3233 0.5166 0.4941
H41 H 0.3069 0.0275 0.1648
H51 H 0.0047 0.2808 0.0252
Cd5 Cd 0.07925(6) 0.58816(6) 0.42215(3)
Cd8 Cd 0.42319(6) 0.07147(5) 0.91206(3)
Cd9 Cd 0.77711(6) 0.43342(6) 0.18751(4)
O30 O 0.0510(5) 0.5198(5) 0.5984(3)
H67 H 0.660237 0.0746625 0.0270584
O15 O 0.5315(5) 0.1479(5) 0.9854(3)
O16 O 0.3814(6) 0.1922(5) 0.9878(3)
O17 O 0.5168(7) 0.3714(6) 0.9801(4)
C73 C 0.0124(10) 0.0764(9) 0.8994(5)
H55 H 0.0598 0.0916 0.8712
H56 H 0.0244 0.2021 0.9480
Cd3 Cd 0.57681(6) 0.92853(5) 0.08794(3)
O25 O 0.3663(8) 0.9948(6) 0.3564(4)
N7 N 0.2378(6) 0.9790(6) 0.2346(4)
N8 N 0.1783(9) 0.5781(8) 0.0410(5)
H2 H 0.1725 0.5275 0.0174
H25 H 0.2787 0.9965 0.7994
C55 C 0.2728(8) 0.9752(8) 0.1780(4)
C56 C 0.2611(8) 0.8995(7) 0.1395(5)
H42 H 0.2861 0.9005 0.1000
C57 C 0.2132(8) 0.8206(8) 0.1570(5)
C58 C 0.1740(7) 0.8247(7) 0.2147(5)
H43 H 0.1379 0.7740 0.2284
C59 C 0.1893(8) 0.9043(8) 0.2513(5)
H44 H 0.1637 0.9060 0.2907
C60 C 0.1990(8) 0.7377(8) 0.1153(5)
C61 C 0.2680(8) 0.7139(8) 0.0735(5)
H45 H 0.3237 0.7521 0.0693
C62 C 0.2535(10) 0.6329(10) 0.0380(6)
H46 H 0.3013 0.6164 0.0098
C63 C 0.1107(11) 0.5995(10) 0.0798(7)
H47 H 0.0550 0.5605 0.0815
C64 C 0.1202(10) 0.6800(9) 0.1191(6)
H48 H 0.0722 0.6936 0.1478
O31 O 0.4685(5) 0.8521(5) 0.0146(3)
O32 O 0.6186(6) 0.8078(5) 0.0122(3)
N13 N 0.5093(6) 0.8362(6) 0.1607(4)
N14 N 0.7156(6) 0.8960(6) 0.1397(4)
H71 H 0.336109 0.932549 0.348391
H72 H 0.434037 0.994416 0.343316
Cd2 Cd 0.92075(6) 0.41184(6) 0.57785(3)
O2 O 0.8800(6) 0.2877(6) 0.4956(3)
O4 O 0.9490(5) 0.4802(5) 0.4016(3)
O5 O 0.9297(6) 0.4180(5) 0.2418(3)
O6 O 0.8086(6) 0.3250(5) 0.2575(3)
O7 O 0.9918(6) 0.2150(5) 0.1879(3)
O8 O 0.9673(6) 0.0710(6) 0.2123(3)
O12 O 0.9342(7) 0.0095(6) 0.4327(4)
O26 O 0.8598(5) 0.5042(5) 0.5055(3)
O28 O 0.7772(10) 0.5509(9) 0.1262(6)
N1 N 0.7788(6) 0.3822(6) 0.6262(4)
N2 N 0.4907(6) 0.1638(6) 0.8393(4)
N4 N 0.9871(6) 0.3201(7) 0.6489(4)
N9 N 0.8318(6) 0.3238(6) 0.1175(4)
N11 N 0.7313(7) 0.5435(6) 0.2622(4)
N12 N 0.6749(11) 0.9121(9) 0.4737(6)
H4 H 0.6678 0.9599 0.4991
C1 C 0.9898(8) 0.2560(8) 0.4147(4)
C2 C 0.9512(8) 0.3226(7) 0.3681(4)
H6 H 0.8809 0.3293 0.3749
C3 C 0.9632(8) 0.2899(7) 0.3008(4)
C4 C 0.9391(9) 0.1879(7) 0.2884(5)
H8 H 0.8676 0.1796 0.2887
C5 C 0.9813(8) 0.1260(8) 0.3350(5)
H9 H 0.9523 0.0629 0.3260
C6 C 0.9493(9) 0.1585(8) 0.3993(4)
H10 H 0.8777 0.1622 0.3974
C7 C 0.9645(10) 0.2956(8) 0.4768(5)
C8 C 0.9997(9) 0.4178(8) 0.3793(4)
C9 C 0.8988(8) 0.3477(8) 0.2634(5)
C10 C 0.9720(8) 0.1578(9) 0.2252(5)
C12 C 0.9729(9) 0.0915(8) 0.4447(5)
C25 C 0.7268(8) 0.3059(8) 0.6121(5)
H17 H 0.7342 0.2766 0.5732
C26 C 0.6637(8) 0.2672(8) 0.6496(5)
H18 H 0.6260 0.2145 0.6357
C27 C 0.6539(8) 0.3041(7) 0.7084(5)
C28 C 0.7061(8) 0.3851(7) 0.7233(5)
H19 H 0.7003 0.4149 0.7622
C29 C 0.7662(8) 0.4227(8) 0.6822(5)
H20 H 0.8001 0.4789 0.6933
C30 C 0.5940(8) 0.2592(8) 0.7526(5)
C31 C 0.5709(8) 0.1638(8) 0.7464(5)
H21 H 0.5909 0.1288 0.7118
C32 C 0.5211(8) 0.1217(8) 0.7888(5)
H22 H 0.5067 0.0577 0.7822
C33 C 0.5096(8) 0.2542(8) 0.8463(5)
H23 H 0.4878 0.2863 0.8816
C34 C 0.5591(8) 0.3038(8) 0.8050(5)
H24 H 0.5696 0.3683 0.8122
H30 H 0.9921 0.2042 0.5995
H31 H 0.9931 0.4179 0.7119
C65 C 0.7824(8) 0.2457(8) 0.1077(5)
H49 H 0.7255 0.2362 0.1296
C66 C 0.8102(8) 0.1761(8) 0.0662(4)
H50 H 0.7719 0.1212 0.0601
C67 C 0.8939(8) 0.1870(8) 0.0340(5)
C68 C 0.9467(8) 0.2694(8) 0.0457(5)
C69 C 0.9133(8) 0.3340(8) 0.0876(5)
H52 H 0.9507 0.3892 0.0957
H53 H 0.8339 0.0150 0.0070
C75 C 0.7732(8) 0.5422(8) 0.3179(5)
H57 H 0.8114 0.4921 0.3280
C76 C 0.7598(9) 0.6154(8) 0.3606(5)
H58 H 0.7875 0.6122 0.3999
C77 C 0.7086(8) 0.6912(8) 0.3479(5)
C78 C 0.6657(8) 0.6902(8) 0.2896(5)
H59 H 0.6285 0.7403 0.2781
C79 C 0.6784(8) 0.6146(8) 0.2489(5)
H60 H 0.6480 0.6141 0.2101
C80 C 0.6983(9) 0.7665(9) 0.3918(6)
C81 C 0.7582(9) 0.7843(8) 0.4419(5)
H61 H 0.8078 0.7426 0.4495
C82 C 0.7495(10) 0.8584(10) 0.4806(6)
H62 H 0.7959 0.8719 0.5122
C83 C 0.6109(13) 0.8946(12) 0.4288(6)
H63 H 0.5560 0.9314 0.4250
C84 C 0.6259(13) 0.8214(11) 0.3875(7)
H64 H 0.5814 0.8106 0.3545
O29 O 0.9147(6) 0.5715(5) 0.6314(3)
H65 H 0.827448 0.541849 0.095555
H66 H 0.713295 0.553291 0.105586
H69 H 0.831245 0.464945 0.471235
H70 H 0.809548 0.54346 0.523508
Cd4 Cd 0.22289(6) 0.56658(6) 0.81249(4)
O2_2 O 0.1200(6) 0.7123(6) 0.5044(3)
O5_2 O 0.0703(6) 0.5820(5) 0.7582(3)
O6_2 O 0.1914(6) 0.6750(5) 0.7425(3)
O7_2 O 0.0082(6) 0.7850(5) 0.8121(3)
O8_2 O 0.0327(6) 0.9290(6) 0.7877(3)
O12_2 O 0.0658(7) 0.9905(6) 0.5673(4)
O26_2 O 0.1402(5) 0.4958(5) 0.4945(3)
O28_2 O 0.2228(10) 0.4491(9) 0.8738(6)
N1_2 N 0.2212(6) 0.6178(6) 0.3738(4)
N4_2 N 0.0129(6) 0.6799(7) 0.3511(4)
N9_2 N 0.1682(6) 0.6762(6) 0.8825(4)
N11_2 N 0.2687(7) 0.4565(6) 0.7378(4)
N12_2 N 0.3251(11) 0.0879(9) 0.5263(6)
H4_2 H 0.3322 0.0401 0.5009
C1_2 C 0.0102(8) 0.7440(8) 0.5853(4)
C2_2 C 0.0488(8) 0.6774(7) 0.6319(4)
H6_2 H 0.1191 0.6707 0.6251
C3_2 C 0.0368(8) 0.7101(7) 0.6992(4)
C4_2 C 0.0609(9) 0.8121(7) 0.7116(5)
H8_2 H 0.1324 0.8204 0.7113
C5_2 C 0.0187(8) 0.8740(8) 0.6650(5)
H9_2 H 0.0477 0.9371 0.6740
C6_2 C 0.0507(9) 0.8415(8) 0.6007(4)
H10_2 H 0.1223 0.8378 0.6026
C7_2 C 0.0355(10) 0.7044(8) 0.5232(5)
C8_2 C 0.0003(9) 0.5822(8) 0.6207(4)
C9_2 C 0.1012(8) 0.6523(8) 0.7366(5)
C10_2 C 0.0280(8) 0.8422(9) 0.7748(5)
C12_2 C 0.0271(9) 0.9085(8) 0.5553(5)
C25_2 C 0.2732(8) 0.6941(8) 0.3879(5)
H17_2 H 0.2658 0.7234 0.4268
C26_2 C 0.3363(8) 0.7328(8) 0.3504(5)
H18_2 H 0.3740 0.7855 0.3643
C27_2 C 0.3461(8) 0.6959(7) 0.2916(5)
C28_2 C 0.2939(8) 0.6149(7) 0.2767(5)
H19_2 H 0.2997 0.5851 0.2378
C29_2 C 0.2338(8) 0.5773(8) 0.3178(5)
H20_2 H 0.1999 0.5211 0.3067
C30_2 C 0.4060(8) 0.7408(8) 0.2474(5)
C31_2 C 0.4291(8) 0.8362(8) 0.2536(5)
H21_2 H 0.4091 0.8712 0.2882
C32_2 C 0.4789(8) 0.8783(8) 0.2112(5)
H22_2 H 0.4933 0.9423 0.2178
C33_2 C 0.4904(8) 0.7458(8) 0.1537(5)
H23_2 H 0.5122 0.7137 0.1184
C34_2 C 0.4409(8) 0.6962(8) 0.1950(5)
H24_2 H 0.4304 0.6317 0.1878
H30_2 H 0.0079 0.7958 0.4005
H31_2 H 0.0069 0.5821 0.2881
C65_2 C 0.2176(8) 0.7543(8) 0.8923(5)
H49_2 H 0.2745 0.7638 0.8704
C66_2 C 0.1898(8) 0.8239(8) 0.9338(4)
H50_2 H 0.2281 0.8788 0.9399
C67_2 C 0.1061(8) 0.8130(8) 0.9660(5)
C68_2 C 0.0533(8) 0.7306(8) 0.9543(5)
C69_2 C 0.0867(8) 0.6660(8) 0.9124(5)
H52_2 H 0.0493 0.6108 0.9043
H53_2 H 0.1661 0.9850 0.9930
C75_2 C 0.2268(8) 0.4578(8) 0.6821(5)
H57_2 H 0.1886 0.5079 0.6720
C76_2 C 0.2402(9) 0.3846(8) 0.6394(5)
H58_2 H 0.2125 0.3878 0.6001
C77_2 C 0.2914(8) 0.3088(8) 0.6521(5)
C78_2 C 0.3343(8) 0.3098(8) 0.7104(5)
H59_2 H 0.3715 0.2597 0.7219
C79_2 C 0.3216(8) 0.3854(8) 0.7511(5)
H60_2 H 0.3520 0.3859 0.7899
C80_2 C 0.3017(9) 0.2335(9) 0.6082(6)
C81_2 C 0.2418(9) 0.2157(8) 0.5581(5)
H61_2 H 0.1922 0.2574 0.5505
C82_2 C 0.2505(10) 0.1416(10) 0.5194(6)
H62_2 H 0.2041 0.1281 0.4878
C83_2 C 0.3891(13) 0.1054(12) 0.5712(6)
H63_2 H 0.4440 0.0686 0.5750
C84_2 C 0.3741(13) 0.1786(11) 0.6125(7)
H64_2 H 0.4186 0.1894 0.6455
O33 O 0.3745(6) 0.6152(6) 0.8299(4)
H65_2 H 0.172552 0.458151 0.904445
H66_2 H 0.286705 0.446709 0.894414
H69_2 H 0.168755 0.535055 0.528765
H70_2 H 0.190452 0.45654 0.476492
O25_2 O 0.6337(8) 0.0052(6) 0.6436(4)
N7_2 N 0.7622(6) 0.0210(6) 0.7654(4)
N8_2 N 0.8217(9) 0.4219(8) 0.9590(5)
H2_2 H 0.8275 0.4725 0.9826
H25_2 H 0.7213 0.0035 0.2006
C55_2 C 0.7272(8) 0.0248(8) 0.8220(4)
C56_2 C 0.7389(8) 0.1005(7) 0.8605(5)
H42_2 H 0.7139 0.0995 0.9000
C57_2 C 0.7868(8) 0.1794(8) 0.8430(5)
C58_2 C 0.8260(7) 0.1753(7) 0.7853(5)
H43_2 H 0.8621 0.2260 0.7716
C59_2 C 0.8107(8) 0.0957(8) 0.7487(5)
H44_2 H 0.8363 0.0940 0.7093
C60_2 C 0.8010(8) 0.2623(8) 0.8847(5)
C61_2 C 0.7320(8) 0.2861(8) 0.9265(5)
H45_2 H 0.6763 0.2479 0.9307
C62_2 C 0.7465(10) 0.3671(10) 0.9620(6)
H46_2 H 0.6987 0.3836 0.9902
C63_2 C 0.8893(11) 0.4005(10) 0.9202(7)
H47_2 H 0.9450 0.4395 0.9185
C64_2 C 0.8798(10) 0.3200(9) 0.8809(6)
H48_2 H 0.9278 0.3064 0.8522
H71_2 H 0.663891 0.0674508 0.651609
H72_2 H 0.565963 0.00558437 0.656684
O17_2 O 0.4832(7) 0.6286(6) 0.0199(4)
C73_2 C 0.9876(10) 0.9236(9) 0.1006(5)
H55_2 H 0.9402 0.9084 0.1288
H56_2 H 0.9756 0.7979 0.0520
Cd1_2 Cd 0.71897(6) 0.89790(6) 0.69765(3)
O1_2 O 0.9726(5) 0.6556(5) 0.4938(3)
O9_2 O 0.8675(6) 0.8405(6) 0.7063(4)
O10_2 O 0.8697(7) 0.9330(7) 0.6344(4)
O11_2 O 0.9775(6) 0.8887(5) 0.5097(3)
O13_2 O 0.5483(5) 0.9680(5) 0.9048(3)
O14_2 O 0.4129(5) 0.9092(6) 0.8625(3)
O18_2 O 0.6150(7) 0.5552(6) 0.9959(4)
O20_2 O 0.3916(9) 0.5126(8) 0.8972(4)
O21_2 O 0.5359(6) 0.5170(6) 0.7539(4)
O22_2 O 0.5070(6) 0.6483(5) 0.7107(3)
O23_2 O 0.6833(6) 0.7975(6) 0.7731(3)
O24_2 O 0.5579(7) 0.8709(6) 0.7445(4)
O27_2 O 0.3556(5) 0.9894(5) 0.9885(3)
N5_2 N 0.6664(7) 0.7838(7) 0.6271(4)
N6_2 N 0.5486(7) 0.4629(7) 0.3827(4)
H1_2 H 0.5359 0.4245 0.3513
H5_2 H 0.9386 0.7447 0.5878
H7_2 H 0.9686 0.6979 0.7103
C11_2 C 0.9102(9) 0.8820(9) 0.6692(5)
C13_2 C 0.5469(8) 0.8090(7) 0.8786(4)
H11_2 H 0.6175 0.8219 0.8848
C14_2 C 0.5129(8) 0.7525(8) 0.9310(4)
H12_2 H 0.4417 0.7419 0.9269
C15_2 C 0.5609(8) 0.6601(7) 0.9281(5)
H13_2 H 0.6313 0.6742 0.9253
C16_2 C 0.5320(8) 0.6030(8) 0.8698(4)
H14_2 H 0.5689 0.5450 0.8692
C17_2 C 0.5626(8) 0.6565(7) 0.8157(5)
H15_2 H 0.6345 0.6591 0.8171
C18_2 C 0.5312(9) 0.7571(8) 0.8144(5)
H16_2 H 0.4627 0.7598 0.8002
C19_2 C 0.4975(8) 0.9016(7) 0.8804(4)
C20_2 C 0.5361(9) 0.8078(8) 0.9906(5)
C21_2 C 0.5486(10) 0.6125(9) 0.9866(6)
C22_2 C 0.4244(10) 0.5759(9) 0.8668(5)
C23_2 C 0.5323(9) 0.6010(9) 0.7557(6)
C24_2 C 0.5971(9) 0.8118(8) 0.7748(5)
C35_2 C 0.7442(8) 0.9434(8) 0.1921(5)
C36_2 C 0.8068(8) 0.9054(8) 0.2334(5)
H26_2 H 0.8250 0.9399 0.2696
C37_2 C 0.8427(8) 0.8186(9) 0.2227(5)
C38_2 C 0.8145(9) 0.7732(9) 0.1682(5)
H27_2 H 0.8379 0.7140 0.1574
C39_2 C 0.7521(8) 0.8152(9) 0.1299(5)
H28_2 H 0.7340 0.7822 0.0931
C40_2 C 0.9063(7) 0.7754(8) 0.2671(5)
C41_2 C 0.9362(9) 0.8152(9) 0.3227(5)
H29_2 H 0.9204 0.8769 0.3334
C42_2 C 0.9884(9) 0.7663(9) 0.3627(5)
C43_2 C 0.9876(9) 0.6431(9) 0.2976(5)
C44_2 C 0.9363(9) 0.6845(9) 0.2542(5)
H32_2 H 0.9210 0.6532 0.2164
C45_2 C 0.5872(9) 0.7895(8) 0.5937(5)
H33_2 H 0.5478 0.8407 0.6021
C46_2 C 0.5575(8) 0.7272(9) 0.5476(5)
H34_2 H 0.4990 0.7347 0.5257
C47_2 C 0.6157(8) 0.6521(8) 0.5336(4)
C48_2 C 0.6957(8) 0.6429(8) 0.5692(5)
H35_2 H 0.7352 0.5913 0.5629
C49_2 C 0.7190(9) 0.7107(8) 0.6153(5)
H36_2 H 0.7755 0.7038 0.6393
C50_2 C 0.5912(7) 0.5857(8) 0.4816(5)
C51_2 C 0.5275(8) 0.6092(9) 0.4362(5)
H37_2 H 0.4974 0.6670 0.4381
C52_2 C 0.5090(9) 0.5450(8) 0.3878(5)
H38_2 H 0.4656 0.5610 0.3567
C53_2 C 0.6084(8) 0.4413(8) 0.4272(5)
H39_2 H 0.6358 0.3823 0.4252
C54_2 C 0.6320(8) 0.5009(8) 0.4760(5)
H40_2 H 0.6767 0.4834 0.5059
H41_2 H 0.6931 0.9725 0.8352
H51_2 H 0.9953 0.7192 0.9748
H67_2 H 0.339763 0.925338 0.972942
H68 H 0.70395 0.980642 0.997904
C70 C 0.9232(8) 0.1208(8) 0.9855(5)
C71 C 0.8805(8) 0.0329(8) 0.9790(5)
C74 C 0.9920(9) 0.1437(9) 0.9452(5)
N10 N 0.9714(7) 0.9957(7) 0.8930(4)
H3 H 0.9869 0.9572 0.8631
C72 C 0.9047(8) 0.9708(8) 0.9323(5)
H54 H 0.8745 0.9113 0.9283
N10_2 N 0.0286(7) 0.0043(7) 0.1070(4)
H3_2 H 0.0131 0.0428 0.1369
C72_2 C 0.0953(8) 0.0292(8) 0.0677(5)
H54_2 H 0.1255 0.0887 0.0717
C70_2 C 0.0768(8) 0.8792(8) 0.0145(5)
C71_2 C 0.1195(8) 0.9671(8) 0.0210(5)
C74_2 C 0.0080(9) 0.8563(9) 0.0548(5)
H68_2 H 0.29605 0.0193582 0.0020956
loop_
_geom_bond_atom_site_label_1
_geom_bond_atom_site_label_2
_geom_bond_site_symmetry_1
_geom_bond_site_symmetry_2
Cd1 O9 1_555 1_555
O9 C11 1_555 1_555
O10 Cd1 1_555 1_555
O13 C19 1_555 1_555
O18 C21 1_555 1_555
O19 C22 1_555 1_555
O20 C22 1_555 1_555
O21 C23 1_555 1_555
O22 C23 1_555 1_555
O23 Cd1 1_555 1_555
O24 Cd1 1_555 1_555
N3 C35 1_555 1_555
N5 Cd1 1_555 1_555
N6 H1 1_555 1_555
C11 O10 1_555 1_555
C13 H11 1_555 1_555
C14 C13 1_555 1_555
H12 C14 1_555 1_555
C15 C14 1_555 1_555
H13 C15 1_555 1_555
C16 C15 1_555 1_555
H14 C16 1_555 1_555
C17 C16 1_555 1_555
H15 C17 1_555 1_555
C18 C13 1_555 1_555
H16 C18 1_555 1_555
C19 O14 1_555 1_555
C20 C14 1_555 1_555
C21 C15 1_555 1_555
C22 C16 1_555 1_555
C23 C17 1_555 1_555
C24 O23 1_555 1_555
C36 C35 1_555 1_555
H26 C36 1_555 1_555
C37 C36 1_555 1_555
C38 C37 1_555 1_555
H27 C38 1_555 1_555
C39 N3 1_555 1_555
H28 C39 1_555 1_555
C40 C37 1_555 1_555
C41 C40 1_555 1_555
H29 C41 1_555 1_555
C44 C40 1_555 1_555
H32 C44 1_555 1_555
C45 N5 1_555 1_555
H33 C45 1_555 1_555
C46 C45 1_555 1_555
H34 C46 1_555 1_555
C47 C46 1_555 1_555
C48 C47 1_555 1_555
H35 C48 1_555 1_555
C49 N5 1_555 1_555
H36 C49 1_555 1_555
C50 C47 1_555 1_555
C51 C50 1_555 1_555
H37 C51 1_555 1_555
C52 N6 1_555 1_555
H38 C52 1_555 1_555
C53 N6 1_555 1_555
H39 C53 1_555 1_555
C54 C50 1_555 1_555
H40 C54 1_555 1_555
Cd5 O3 1_555 1_555
Cd8 N3 1_555 1_555
Cd9 O19 1_555 1_555
O24 C24 1_555 1_555
C13 C19 1_555 1_555
C17 C18 1_555 1_555
C18 C24 1_555 1_555
C38 C39 1_555 1_555
C41 C42 1_555 1_555
C43 C44 1_555 1_555
C48 C49 1_555 1_555
C51 C52 1_555 1_555
C53 C54 1_555 1_555
O27 H67 1_555 1_555
H55 C73 1_555 1_555
Cd8 O15 1_555 1_555
O16 Cd8 1_555 1_555
N8 H2 1_555 1_555
C55 N7 1_555 1_555
C56 C55 1_555 1_555
H42 C56 1_555 1_555
C57 C56 1_555 1_555
C58 C57 1_555 1_555
H43 C58 1_555 1_555
C59 N7 1_555 1_555
H44 C59 1_555 1_555
C60 C57 1_555 1_555
C61 C60 1_555 1_555
H45 C61 1_555 1_555
C62 N8 1_555 1_555
H46 C62 1_555 1_555
C63 N8 1_555 1_555
H47 C63 1_555 1_555
C64 C60 1_555 1_555
H48 C64 1_555 1_555
O31 Cd3 1_555 1_555
O32 Cd3 1_555 1_555
N13 Cd3 1_555 1_555
N14 Cd3 1_555 1_555
C58 C59 1_555 1_555
C61 C62 1_555 1_555
C63 C64 1_555 1_555
O25 H71 1_555 1_555
O25 H72 1_555 1_555
Cd9 O5 1_555 1_555
O2 Cd2 1_555 1_555
O4 C8 1_555 1_555
O5 C9 1_555 1_555
O6 Cd9 1_555 1_555
O7 C10 1_555 1_555
O8 C10 1_555 1_555
O12 C12 1_555 1_555
O26 Cd2 1_555 1_555
O28 Cd9 1_555 1_555
N1 Cd2 1_555 1_555
N2 C32 1_555 1_555
N4 Cd2 1_555 1_555
N9 Cd9 1_555 1_555
N11 Cd9 1_555 1_555
N12 H4 1_555 1_555
C2 C1 1_555 1_555
H6 C2 1_555 1_555
C3 C2 1_555 1_555
C4 C3 1_555 1_555
H8 C4 1_555 1_555
C5 C4 1_555 1_555
H9 C5 1_555 1_555
C6 C1 1_555 1_555
H10 C6 1_555 1_555
C7 O2 1_555 1_555
C8 C2 1_555 1_555
C9 O6 1_555 1_555
C10 C4 1_555 1_555
C12 C6 1_555 1_555
C25 N1 1_555 1_555
H17 C25 1_555 1_555
C26 C25 1_555 1_555
H18 C26 1_555 1_555
C27 C26 1_555 1_555
C28 C27 1_555 1_555
H19 C28 1_555 1_555
C29 N1 1_555 1_555
H20 C29 1_555 1_555
C30 C27 1_555 1_555
C31 C30 1_555 1_555
H21 C31 1_555 1_555
C32 C31 1_555 1_555
H22 C32 1_555 1_555
C33 N2 1_555 1_555
H23 C33 1_555 1_555
C34 C30 1_555 1_555
H24 C34 1_555 1_555
C65 N9 1_555 1_555
H49 C65 1_555 1_555
C66 C65 1_555 1_555
H50 C66 1_555 1_555
C67 C66 1_555 1_555
C68 C67 1_555 1_555
C69 N9 1_555 1_555
H52 C69 1_555 1_555
C75 N11 1_555 1_555
H57 C75 1_555 1_555
C76 C75 1_555 1_555
H58 C76 1_555 1_555
C77 C76 1_555 1_555
C78 C77 1_555 1_555
H59 C78 1_555 1_555
C79 N11 1_555 1_555
H60 C79 1_555 1_555
C80 C77 1_555 1_555
C81 C80 1_555 1_555
H61 C81 1_555 1_555
C82 N12 1_555 1_555
H62 C82 1_555 1_555
C83 N12 1_555 1_555
H63 C83 1_555 1_555
C84 C80 1_555 1_555
H64 C84 1_555 1_555
Cd8 N2 1_555 1_555
O29 Cd2 1_555 1_555
C1 C7 1_555 1_555
C3 C9 1_555 1_555
C5 C6 1_555 1_555
C28 C29 1_555 1_555
C33 C34 1_555 1_555
C68 C69 1_555 1_555
C78 C79 1_555 1_555
C81 C82 1_555 1_555
C83 C84 1_555 1_555
O28 H65 1_555 1_555
O28 H66 1_555 1_555
O26 H69 1_555 1_555
O26 H70 1_555 1_555
Cd4 O5_2 1_555 1_555
O2_2 Cd5 1_555 1_555
O30 C8_2 1_555 1_555
O5_2 C9_2 1_555 1_555
O6_2 Cd4 1_555 1_555
O7_2 C10_2 1_555 1_555
O8_2 C10_2 1_555 1_555
O12_2 C12_2 1_555 1_555
O26_2 Cd5 1_555 1_555
O28_2 Cd4 1_555 1_555
N1_2 Cd5 1_555 1_555
N13 C32_2 1_555 1_555
N4_2 Cd5 1_555 1_555
N9_2 Cd4 1_555 1_555
N11_2 Cd4 1_555 1_555
N12_2 H4_2 1_555 1_555
C2_2 C1_2 1_555 1_555
H6_2 C2_2 1_555 1_555
C3_2 C2_2 1_555 1_555
C4_2 C3_2 1_555 1_555
H8_2 C4_2 1_555 1_555
C5_2 C4_2 1_555 1_555
H9_2 C5_2 1_555 1_555
C6_2 C1_2 1_555 1_555
H10_2 C6_2 1_555 1_555
C7_2 O2_2 1_555 1_555
C8_2 C2_2 1_555 1_555
C9_2 O6_2 1_555 1_555
C10_2 C4_2 1_555 1_555
C12_2 C6_2 1_555 1_555
C25_2 N1_2 1_555 1_555
H17_2 C25_2 1_555 1_555
C26_2 C25_2 1_555 1_555
H18_2 C26_2 1_555 1_555
C27_2 C26_2 1_555 1_555
C28_2 C27_2 1_555 1_555
H19_2 C28_2 1_555 1_555
C29_2 N1_2 1_555 1_555
H20_2 C29_2 1_555 1_555
C30_2 C27_2 1_555 1_555
C31_2 C30_2 1_555 1_555
H21_2 C31_2 1_555 1_555
C32_2 C31_2 1_555 1_555
H22_2 C32_2 1_555 1_555
C33_2 N13 1_555 1_555
H23_2 C33_2 1_555 1_555
C34_2 C30_2 1_555 1_555
H24_2 C34_2 1_555 1_555
C65_2 N9_2 1_555 1_555
H49_2 C65_2 1_555 1_555
C66_2 C65_2 1_555 1_555
H50_2 C66_2 1_555 1_555
C67_2 C66_2 1_555 1_555
C68_2 C67_2 1_555 1_555
C69_2 N9_2 1_555 1_555
H52_2 C69_2 1_555 1_555
C75_2 N11_2 1_555 1_555
H57_2 C75_2 1_555 1_555
C76_2 C75_2 1_555 1_555
H58_2 C76_2 1_555 1_555
C77_2 C76_2 1_555 1_555
C78_2 C77_2 1_555 1_555
H59_2 C78_2 1_555 1_555
C79_2 N11_2 1_555 1_555
H60_2 C79_2 1_555 1_555
C80_2 C77_2 1_555 1_555
C81_2 C80_2 1_555 1_555
H61_2 C81_2 1_555 1_555
C82_2 N12_2 1_555 1_555
H62_2 C82_2 1_555 1_555
C83_2 N12_2 1_555 1_555
H63_2 C83_2 1_555 1_555
C84_2 C80_2 1_555 1_555
H64_2 C84_2 1_555 1_555
O33 Cd4 1_555 1_555
C1_2 C7_2 1_555 1_555
C3_2 C9_2 1_555 1_555
C5_2 C6_2 1_555 1_555
C28_2 C29_2 1_555 1_555
C33_2 C34_2 1_555 1_555
C68_2 C69_2 1_555 1_555
C78_2 C79_2 1_555 1_555
C81_2 C82_2 1_555 1_555
C83_2 C84_2 1_555 1_555
O28_2 H65_2 1_555 1_555
O28_2 H66_2 1_555 1_555
O26_2 H69_2 1_555 1_555
O26_2 H70_2 1_555 1_555
N8_2 H2_2 1_555 1_555
C55_2 N7_2 1_555 1_555
C56_2 C55_2 1_555 1_555
H42_2 C56_2 1_555 1_555
C57_2 C56_2 1_555 1_555
C58_2 C57_2 1_555 1_555
H43_2 C58_2 1_555 1_555
C59_2 N7_2 1_555 1_555
H44_2 C59_2 1_555 1_555
C60_2 C57_2 1_555 1_555
C61_2 C60_2 1_555 1_555
H45_2 C61_2 1_555 1_555
C62_2 N8_2 1_555 1_555
H46_2 C62_2 1_555 1_555
C63_2 N8_2 1_555 1_555
H47_2 C63_2 1_555 1_555
C64_2 C60_2 1_555 1_555
H48_2 C64_2 1_555 1_555
C58_2 C59_2 1_555 1_555
C61_2 C62_2 1_555 1_555
C63_2 C64_2 1_555 1_555
O25_2 H71_2 1_555 1_555
O25_2 H72_2 1_555 1_555
H55_2 C73_2 1_555 1_555
Cd1_2 O9_2 1_555 1_555
O9_2 C11_2 1_555 1_555
O10_2 Cd1_2 1_555 1_555
O13_2 C19_2 1_555 1_555
O18_2 C21_2 1_555 1_555
O33 C22_2 1_555 1_555
O20_2 C22_2 1_555 1_555
O21_2 C23_2 1_555 1_555
O22_2 C23_2 1_555 1_555
O23_2 Cd1_2 1_555 1_555
O24_2 Cd1_2 1_555 1_555
N14 C35_2 1_555 1_555
N5_2 Cd1_2 1_555 1_555
N6_2 H1_2 1_555 1_555
C11_2 O10_2 1_555 1_555
C13_2 H11_2 1_555 1_555
C14_2 C13_2 1_555 1_555
H12_2 C14_2 1_555 1_555
C15_2 C14_2 1_555 1_555
H13_2 C15_2 1_555 1_555
C16_2 C15_2 1_555 1_555
H14_2 C16_2 1_555 1_555
C17_2 C16_2 1_555 1_555
H15_2 C17_2 1_555 1_555
C18_2 C13_2 1_555 1_555
H16_2 C18_2 1_555 1_555
C19_2 O14_2 1_555 1_555
C20_2 C14_2 1_555 1_555
C21_2 C15_2 1_555 1_555
C22_2 C16_2 1_555 1_555
C23_2 C17_2 1_555 1_555
C24_2 O23_2 1_555 1_555
C36_2 C35_2 1_555 1_555
H26_2 C36_2 1_555 1_555
C37_2 C36_2 1_555 1_555
C38_2 C37_2 1_555 1_555
H27_2 C38_2 1_555 1_555
C39_2 N14 1_555 1_555
H28_2 C39_2 1_555 1_555
C40_2 C37_2 1_555 1_555
C41_2 C40_2 1_555 1_555
H29_2 C41_2 1_555 1_555
C44_2 C40_2 1_555 1_555
H32_2 C44_2 1_555 1_555
C45_2 N5_2 1_555 1_555
H33_2 C45_2 1_555 1_555
C46_2 C45_2 1_555 1_555
H34_2 C46_2 1_555 1_555
C47_2 C46_2 1_555 1_555
C48_2 C47_2 1_555 1_555
H35_2 C48_2 1_555 1_555
C49_2 N5_2 1_555 1_555
H36_2 C49_2 1_555 1_555
C50_2 C47_2 1_555 1_555
C51_2 C50_2 1_555 1_555
H37_2 C51_2 1_555 1_555
C52_2 N6_2 1_555 1_555
H38_2 C52_2 1_555 1_555
C53_2 N6_2 1_555 1_555
H39_2 C53_2 1_555 1_555
C54_2 C50_2 1_555 1_555
H40_2 C54_2 1_555 1_555
O24_2 C24_2 1_555 1_555
C13_2 C19_2 1_555 1_555
C17_2 C18_2 1_555 1_555
C18_2 C24_2 1_555 1_555
C38_2 C39_2 1_555 1_555
C41_2 C42_2 1_555 1_555
C43_2 C44_2 1_555 1_555
C48_2 C49_2 1_555 1_555
C51_2 C52_2 1_555 1_555
C53_2 C54_2 1_555 1_555
O27_2 H67_2 1_555 1_555
C71 C70 1_555 1_555
C74 C70 1_555 1_555
N10 H3 1_555 1_555
C72 N10 1_555 1_555
H54 C72 1_555 1_555
N10_2 H3_2 1_555 1_555
C72_2 N10_2 1_555 1_555
H54_2 C72_2 1_555 1_555
C71_2 C70_2 1_555 1_555
C74_2 C70_2 1_555 1_555

#END
