
###############################################################################
#
# This file contains modified crystal structure data generated from the
# MOF subset of the Cambridge Structural Database (CSD) v543 
# hosted by the Cambridge Crystallographic Data Centre (CCDC).
#
# This work is licensed under the Creative Commons
# Attribution-NonCommercial-ShareAlike 4.0 International License.
# To view a copy of this license, visit
# http://creativecommons.org/licenses/by-nc-sa/4.0/
# or send a letter to
# Creative Commons, PO Box 1866, Mountain View, CA 94042, USA.
#
# CIF created using the CSD Python API on 29 September 2022
# The structure has been converted into the P1 space group
# The structure has a 3D framework
# The original CSD entry ROHKOR is in the cubic crystal system
# The framework has been calculated to contain at least 10.0% void space
# The void calculation uses a probe of radius 1.32A, grid spacing 0.4
#
###############################################################################

data_ROHKOR
_chemical_formula_moiety         '(C1344 H768 O480 Th32)n'
_symmetry_cell_setting           triclinic
_symmetry_space_group_name_H-M   'P 1'
_symmetry_Int_Tables_number      1
_space_group_name_Hall           'P 1'
loop_
_symmetry_equiv_pos_site_id
_symmetry_equiv_pos_as_xyz
1 x,y,z
_cell_length_a                   32.274(2)
_cell_length_b                   32.274(2)
_cell_length_c                   32.274(2)
_cell_angle_alpha                90
_cell_angle_beta                 90
_cell_angle_gamma                90
_cell_volume                     33617
loop_
_atom_site_label
_atom_site_type_symbol
_atom_site_fract_x
_atom_site_fract_y
_atom_site_fract_z
C1 C 0.14946(10) 0.46713(10) 0.59272(10)
C2 C 0.15144(11) 0.50889(10) 0.57302(10)
C3 C 0.13109(11) 0.54230(10) 0.59128(11)
H1 H 0.115295 0.538157 0.615022
C4 C 0.13416(11) 0.58169(11) 0.57436(12)
H2 H 0.120449 0.603980 0.586423
C5 C 0.15804(11) 0.58714(11) 0.53920(12)
C6 C 0.17813(11) 0.55469(11) 0.52049(11)
H3 H 0.193930 0.559003 0.496782
C7 C 0.17454(11) 0.51523(11) 0.53751(11)
H4 H 0.187780 0.492961 0.524894
C8 C 0.04094(10) 0.70732(10) 0.42911(10)
C9 C 0.07176(10) 0.68605(10) 0.45588(10)
C10 C 0.10710(10) 0.70647(10) 0.46951(10)
H5 H 0.110645 0.734361 0.463172
C11 C 0.13698(10) 0.68622(10) 0.49221(10)
H6 H 0.160597 0.700226 0.500958
C12 C 0.13157(11) 0.64493(10) 0.50187(11)
C13 C 0.09612(11) 0.62405(11) 0.48961(11)
H7 H 0.092421 0.596322 0.496540
C14 C 0.06633(11) 0.64483(11) 0.46699(11)
H8 H 0.042301 0.631038 0.459078
O1 O 0.16901(7) 0.43798(7) 0.57575(7)
O2 O 0.12896(7) 0.46309(6) 0.62551(7)
O3 O 0.04766(7) 0.74497(7) 0.41991(7)
O4 O 0.01020(7) 0.68730(7) 0.41647(7)
O5 O 0.16376(7) 0.62694(7) 0.52348(8)
Th1 Th 0.19740(2) 0.375000 0.55260(2)
C15 C 0.09272(10) 0.35054(10) 0.53287(10)
C16 C 0.07302(10) 0.34856(11) 0.49111(10)
C17 C 0.09128(11) 0.36891(11) 0.45770(10)
H9 H 0.115022 0.384705 0.461843
C18 C 0.07436(12) 0.36584(11) 0.41831(11)
H10 H 0.086423 0.379551 0.396020
C19 C 0.03920(12) 0.34196(11) 0.41286(11)
C20 C 0.02049(11) 0.32187(11) 0.44531(11)
C21 C 0.03751(11) 0.32546(11) 0.48477(11)
H12 H 0.024894 0.312220 0.507039
H14 H 0.000958 0.339403 0.299774
C26 C 0.00187(11) 0.36843(11) 0.35507(10)
O6 O 0.07575(7) 0.33099(7) 0.56202(7)
O7 O 0.12551(7) 0.37104(7) 0.53691(6)
O10 O 0.02348(8) 0.33624(7) 0.37306(7)
O11 O 0.17425(7) 0.31202(7) 0.58099(7)
O12 O 0.21309(6) 0.37896(7) 0.62449(7)
O13 O 0.20234(7) 0.33009(7) 0.49497(7)
O14 O 0.25503(7) 0.41991(7) 0.54766(7)
O15 O 0.18730(7) 0.41647(7) 0.48980(7)
O16 O 0.26020(7) 0.33353(7) 0.56270(7)
Th2 Th 0.05260(2) 0.30260(2) 0.625000
Th3 Th 0.125000 0.44740(2) 0.69740(2)
Th6 Th 0.05260(2) 0.80260(2) 0.375000
H11 H 0.996782 0.306070 0.440997
C22 C 0.92911(10) 0.45906(10) 0.29268(10)
C23 C 0.95588(10) 0.42824(10) 0.31395(10)
C24 C 0.96951(10) 0.39290(10) 0.29353(10)
H13 H 0.963172 0.389355 0.265639
C25 C 0.99221(10) 0.36302(10) 0.31378(10)
C27 C 0.98961(11) 0.40388(11) 0.37595(11)
H15 H 0.996540 0.407579 0.403678
C28 C 0.96699(11) 0.43367(11) 0.35517(11)
H16 H 0.959078 0.457699 0.368962
O8 O 0.91991(7) 0.45234(7) 0.25503(7)
O9 O 0.91647(7) 0.48980(7) 0.31270(7)
Th4 Th 0.94740(2) 0.69740(2) 0.375000
Th5 Th 0.875000 0.55260(2) 0.30260(2)
Th7 Th 0.875000 0.44740(2) 0.19740(2)
C1_2 C 0.35054(10) 0.53287(10) 0.09272(10)
C2_2 C 0.34856(11) 0.49111(10) 0.07302(10)
C3_2 C 0.36891(11) 0.45770(10) 0.09128(11)
H1_2 H 0.384705 0.461843 0.115022
C4_2 C 0.36584(11) 0.41831(11) 0.07436(12)
H2_2 H 0.379551 0.396020 0.086423
C5_2 C 0.34196(11) 0.41286(11) 0.03920(12)
C6_2 C 0.32187(11) 0.44531(11) 0.02049(11)
C7_2 C 0.32546(11) 0.48477(11) 0.03751(11)
H4_2 H 0.312220 0.507039 0.024894
H6_2 H 0.339403 0.299774 0.000958
C12_2 C 0.36843(11) 0.35507(10) 0.00187(11)
O1_2 O 0.33099(7) 0.56202(7) 0.07575(7)
O2_2 O 0.37104(7) 0.53691(6) 0.12551(7)
O5_2 O 0.33624(7) 0.37306(7) 0.02348(8)
Th1_2 Th 0.30260(2) 0.625000 0.05260(2)
C15_2 C 0.40728(10) 0.64946(10) 0.03287(10)
H12_2 H 0.475106 0.687780 0.007039
O6_2 O 0.42425(7) 0.66901(7) 0.06202(7)
O7_2 O 0.37449(7) 0.62896(7) 0.03691(6)
O11_2 O 0.32575(7) 0.68798(7) 0.08099(7)
O12_2 O 0.28691(6) 0.62104(7) 0.12449(7)
O14_2 O 0.24497(7) 0.58009(7) 0.04766(7)
O16_2 O 0.23980(7) 0.66647(7) 0.06270(7)
Th2_2 Th 0.44740(2) 0.69740(2) 0.125000
Th3_2 Th 0.375000 0.55260(2) 0.19740(2)
H3_2 H 0.306070 0.440997 0.996782
C8_2 C 0.45906(10) 0.29268(10) 0.92911(10)
C9_2 C 0.42824(10) 0.31395(10) 0.95588(10)
C10_2 C 0.39290(10) 0.29353(10) 0.96951(10)
H5_2 H 0.389355 0.265639 0.963172
C11_2 C 0.36302(10) 0.31378(10) 0.99221(10)
C13_2 C 0.40388(11) 0.37595(11) 0.98961(11)
H7_2 H 0.407579 0.403678 0.996540
C14_2 C 0.43367(11) 0.35517(11) 0.96699(11)
H8_2 H 0.457699 0.368962 0.959078
O3_2 O 0.45234(7) 0.25503(7) 0.91991(7)
O4_2 O 0.48980(7) 0.31270(7) 0.91647(7)
C16_2 C 0.42698(10) 0.65144(11) 0.99111(10)
C17_2 C 0.40872(11) 0.63109(11) 0.95770(10)
H9_2 H 0.384978 0.615295 0.961843
C18_2 C 0.42564(12) 0.63416(11) 0.91831(11)
H10_2 H 0.413577 0.620449 0.896020
C19_2 C 0.46080(12) 0.65804(11) 0.91286(11)
C20_2 C 0.47951(11) 0.67813(11) 0.94531(11)
H11_2 H 0.503218 0.693930 0.940997
C21_2 C 0.46249(11) 0.67454(11) 0.98477(11)
C22_2 C 0.57089(10) 0.54094(10) 0.79268(10)
C23_2 C 0.54412(10) 0.57176(10) 0.81395(10)
C24_2 C 0.53049(10) 0.60710(10) 0.79353(10)
H13_2 H 0.536828 0.610645 0.765639
C25_2 C 0.50779(10) 0.63698(10) 0.81378(10)
H14_2 H 0.499042 0.660597 0.799774
C26_2 C 0.49813(11) 0.63157(11) 0.85507(10)
C27_2 C 0.51039(11) 0.59612(11) 0.87595(11)
H15_2 H 0.503460 0.592421 0.903678
C28_2 C 0.53301(11) 0.56633(11) 0.85517(11)
H16_2 H 0.540922 0.542301 0.868962
O8_2 O 0.58009(7) 0.54766(7) 0.75503(7)
O9_2 O 0.58353(7) 0.51020(7) 0.81270(7)
O10_2 O 0.47652(8) 0.66376(7) 0.87306(7)
O13_2 O 0.29766(7) 0.66991(7) 0.99497(7)
O15_2 O 0.31270(7) 0.58353(7) 0.98980(7)
Th4_2 Th 0.55260(2) 0.30260(2) 0.875000
Th5_2 Th 0.625000 0.44740(2) 0.80260(2)
Th6_2 Th 0.44740(2) 0.19740(2) 0.875000
Th7_2 Th 0.625000 0.55260(2) 0.69740(2)
Th4_3 Th 0.05260(2) 0.19740(2) 0.125000
Th5_3 Th 0.125000 0.05260(2) 0.19740(2)
H11_3 H 0.003218 0.806070 0.059003
C22_3 C 0.07089(10) 0.95906(10) 0.20732(10)
C23_3 C 0.04412(10) 0.92824(10) 0.18605(10)
C24_3 C 0.03049(10) 0.89290(10) 0.20647(10)
H13_3 H 0.036828 0.889355 0.234361
C25_3 C 0.00779(10) 0.86302(10) 0.18622(10)
C27_3 C 0.01039(11) 0.90388(11) 0.12405(11)
H15_3 H 0.003460 0.907579 0.096322
C28_3 C 0.03301(11) 0.93367(11) 0.14483(11)
H16_3 H 0.040922 0.957699 0.131038
O8_3 O 0.08009(7) 0.95234(7) 0.24497(7)
O9_3 O 0.08353(7) 0.98980(7) 0.18730(7)
Th7_3 Th 0.125000 0.94740(2) 0.30260(2)
H3_3 H 0.806070 0.059003 0.003218
C8_3 C 0.95906(10) 0.20732(10) 0.07089(10)
C9_3 C 0.92824(10) 0.18605(10) 0.04412(10)
C10_3 C 0.89290(10) 0.20647(10) 0.03049(10)
H5_3 H 0.889355 0.234361 0.036828
C11_3 C 0.86302(10) 0.18622(10) 0.00779(10)
C13_3 C 0.90388(11) 0.12405(11) 0.01039(11)
H7_3 H 0.907579 0.096322 0.003460
C14_3 C 0.93367(11) 0.14483(11) 0.03301(11)
H8_3 H 0.957699 0.131038 0.040922
O3_3 O 0.95234(7) 0.24497(7) 0.08009(7)
O4_3 O 0.98980(7) 0.18730(7) 0.08353(7)
Th6_3 Th 0.94740(2) 0.30260(2) 0.125000
C2_3 C 0.84856(11) 0.00889(10) 0.92698(10)
C3_3 C 0.86891(11) 0.04230(10) 0.90872(11)
H1_3 H 0.884705 0.038157 0.884978
C4_3 C 0.86584(11) 0.08169(11) 0.92564(12)
H2_3 H 0.879551 0.103980 0.913577
C5_3 C 0.84196(11) 0.08714(11) 0.96080(12)
C6_3 C 0.82187(11) 0.05469(11) 0.97951(11)
C7_3 C 0.82546(11) 0.01523(11) 0.96249(11)
H6_3 H 0.839403 0.200226 0.999042
C12_3 C 0.86843(11) 0.14493(10) 0.99813(11)
O5_3 O 0.83624(7) 0.12694(7) 0.97652(8)
C16_3 C 0.92698(10) 0.84856(11) 0.00889(10)
C17_3 C 0.90872(11) 0.86891(11) 0.04230(10)
H9_3 H 0.884978 0.884705 0.038157
C18_3 C 0.92564(12) 0.86584(11) 0.08169(11)
H10_3 H 0.913577 0.879551 0.103980
C19_3 C 0.96080(12) 0.84196(11) 0.08714(11)
C20_3 C 0.97951(11) 0.82187(11) 0.05469(11)
C21_3 C 0.96249(11) 0.82546(11) 0.01523(11)
H14_3 H 0.999042 0.839403 0.200226
C26_3 C 0.99813(11) 0.86843(11) 0.14493(10)
O10_3 O 0.97652(8) 0.83624(7) 0.12694(7)
O13_3 O 0.79766(7) 0.83009(7) 0.00503(7)
O15_3 O 0.81270(7) 0.91647(7) 0.01020(7)
C1_3 C 0.85054(10) 0.96713(10) 0.90728(10)
H4_3 H 0.812220 0.992961 0.975106
O1_3 O 0.83099(7) 0.93798(7) 0.92425(7)
O2_3 O 0.87104(7) 0.96309(6) 0.87449(7)
Th1_3 Th 0.80260(2) 0.875000 0.94740(2)
C15_3 C 0.90728(10) 0.85054(10) 0.96713(10)
H12_3 H 0.975106 0.812220 0.992961
O6_3 O 0.92425(7) 0.83099(7) 0.93798(7)
O7_3 O 0.87449(7) 0.87104(7) 0.96309(6)
O11_3 O 0.82575(7) 0.81202(7) 0.91901(7)
O12_3 O 0.78691(6) 0.87896(7) 0.87551(7)
O14_3 O 0.74497(7) 0.91991(7) 0.95234(7)
O16_3 O 0.73980(7) 0.83353(7) 0.93730(7)
Th2_3 Th 0.94740(2) 0.80260(2) 0.875000
Th3_3 Th 0.875000 0.94740(2) 0.80260(2)
C1_4 C 0.64946(10) 0.03287(10) 0.40728(10)
H4_4 H 0.687780 0.007039 0.475106
O1_4 O 0.66901(7) 0.06202(7) 0.42425(7)
O2_4 O 0.62896(7) 0.03691(6) 0.37449(7)
Th1_4 Th 0.69740(2) 0.125000 0.44740(2)
C15_4 C 0.59272(10) 0.14946(10) 0.46713(10)
C16_4 C 0.57302(10) 0.15144(11) 0.50889(10)
C17_4 C 0.59128(11) 0.13109(11) 0.54230(10)
H9_4 H 0.615022 0.115295 0.538157
C18_4 C 0.57436(12) 0.13416(11) 0.58169(11)
H10_4 H 0.586423 0.120449 0.603980
C19_4 C 0.53920(12) 0.15804(11) 0.58714(11)
C20_4 C 0.52049(11) 0.17813(11) 0.55469(11)
H11_4 H 0.496782 0.193930 0.559003
C21_4 C 0.53751(11) 0.17454(11) 0.51523(11)
H12_4 H 0.524894 0.187780 0.492961
C22_4 C 0.42911(10) 0.04094(10) 0.70732(10)
C23_4 C 0.45588(10) 0.07176(10) 0.68605(10)
C24_4 C 0.46951(10) 0.10710(10) 0.70647(10)
H13_4 H 0.463172 0.110645 0.734361
C25_4 C 0.49221(10) 0.13698(10) 0.68622(10)
H14_4 H 0.500958 0.160597 0.700226
C26_4 C 0.50187(11) 0.13157(11) 0.64493(10)
C27_4 C 0.48961(11) 0.09612(11) 0.62405(11)
H15_4 H 0.496540 0.092421 0.596322
C28_4 C 0.46699(11) 0.06633(11) 0.64483(11)
H16_4 H 0.459078 0.042301 0.631038
O6_4 O 0.57575(7) 0.16901(7) 0.43798(7)
O7_4 O 0.62551(7) 0.12896(7) 0.46309(6)
O8_4 O 0.41991(7) 0.04766(7) 0.74497(7)
O9_4 O 0.41647(7) 0.01020(7) 0.68730(7)
O10_4 O 0.52348(8) 0.16376(7) 0.62694(7)
O11_4 O 0.67425(7) 0.18798(7) 0.41901(7)
O12_4 O 0.71309(6) 0.12104(7) 0.37551(7)
O13_4 O 0.70234(7) 0.16991(7) 0.50503(7)
O14_4 O 0.75503(7) 0.08009(7) 0.45234(7)
O15_4 O 0.68730(7) 0.08353(7) 0.51020(7)
O16_4 O 0.76020(7) 0.16647(7) 0.43730(7)
Th2_4 Th 0.55260(2) 0.19740(2) 0.375000
Th3_4 Th 0.625000 0.05260(2) 0.30260(2)
Th7_4 Th 0.375000 0.05260(2) 0.80260(2)
C2_4 C 0.65144(11) 0.99111(10) 0.42698(10)
C3_4 C 0.63109(11) 0.95770(10) 0.40872(11)
H1_4 H 0.615295 0.961843 0.384978
C4_4 C 0.63416(11) 0.91831(11) 0.42564(12)
H2_4 H 0.620449 0.896020 0.413577
C5_4 C 0.65804(11) 0.91286(11) 0.46080(12)
C6_4 C 0.67813(11) 0.94531(11) 0.47951(11)
H3_4 H 0.693930 0.940997 0.503218
C7_4 C 0.67454(11) 0.98477(11) 0.46249(11)
C8_4 C 0.54094(10) 0.79268(10) 0.57089(10)
C9_4 C 0.57176(10) 0.81395(10) 0.54412(10)
C10_4 C 0.60710(10) 0.79353(10) 0.53049(10)
H5_4 H 0.610645 0.765639 0.536828
C11_4 C 0.63698(10) 0.81378(10) 0.50779(10)
H6_4 H 0.660597 0.799774 0.499042
C12_4 C 0.63157(11) 0.85507(10) 0.49813(11)
C13_4 C 0.59612(11) 0.87595(11) 0.51039(11)
H7_4 H 0.592421 0.903678 0.503460
C14_4 C 0.56633(11) 0.85517(11) 0.53301(11)
H8_4 H 0.542301 0.868962 0.540922
O3_4 O 0.54766(7) 0.75503(7) 0.58009(7)
O4_4 O 0.51020(7) 0.81270(7) 0.58353(7)
O5_4 O 0.66376(7) 0.87306(7) 0.47652(8)
Th4_4 Th 0.44740(2) 0.80260(2) 0.625000
Th5_4 Th 0.375000 0.94740(2) 0.69740(2)
Th6_4 Th 0.55260(2) 0.69740(2) 0.625000
C15_5 C 0.53287(10) 0.09272(10) 0.35054(10)
C16_5 C 0.49111(10) 0.07302(10) 0.34856(11)
C17_5 C 0.45770(10) 0.09128(11) 0.36891(11)
H9_5 H 0.461843 0.115022 0.384705
C18_5 C 0.41831(11) 0.07436(12) 0.36584(11)
H10_5 H 0.396020 0.086423 0.379551
C19_5 C 0.41286(11) 0.03920(12) 0.34196(11)
C20_5 C 0.44531(11) 0.02049(11) 0.32187(11)
C21_5 C 0.48477(11) 0.03751(11) 0.32546(11)
H12_5 H 0.507039 0.024894 0.312220
H14_5 H 0.299774 0.000958 0.339403
C26_5 C 0.35507(10) 0.00187(11) 0.36843(11)
O6_5 O 0.56202(7) 0.07575(7) 0.33099(7)
O7_5 O 0.53691(6) 0.12551(7) 0.37104(7)
O10_5 O 0.37306(7) 0.02348(8) 0.33624(7)
O11_5 O 0.58099(7) 0.17425(7) 0.31202(7)
O12_5 O 0.62449(7) 0.21309(6) 0.37896(7)
O13_5 O 0.49497(7) 0.20234(7) 0.33009(7)
O14_5 O 0.54766(7) 0.25503(7) 0.41991(7)
O15_5 O 0.48980(7) 0.18730(7) 0.41647(7)
O16_5 O 0.56270(7) 0.26020(7) 0.33353(7)
H11_5 H 0.440997 0.996782 0.306070
C22_5 C 0.29268(10) 0.92911(10) 0.45906(10)
C23_5 C 0.31395(10) 0.95588(10) 0.42824(10)
C24_5 C 0.29353(10) 0.96951(10) 0.39290(10)
H13_5 H 0.265639 0.963172 0.389355
C25_5 C 0.31378(10) 0.99221(10) 0.36302(10)
C27_5 C 0.37595(11) 0.98961(11) 0.40388(11)
H15_5 H 0.403678 0.996540 0.407579
C28_5 C 0.35517(11) 0.96699(11) 0.43367(11)
H16_5 H 0.368962 0.959078 0.457699
O8_5 O 0.25503(7) 0.91991(7) 0.45234(7)
O9_5 O 0.31270(7) 0.91647(7) 0.48980(7)
Th5_5 Th 0.30260(2) 0.875000 0.55260(2)
Th7_5 Th 0.19740(2) 0.875000 0.44740(2)
C15_6 C 0.03287(10) 0.40728(10) 0.64946(10)
H12_6 H 0.007039 0.475106 0.687780
O6_6 O 0.06202(7) 0.42425(7) 0.66901(7)
O7_6 O 0.03691(6) 0.37449(7) 0.62896(7)
O11_6 O 0.08099(7) 0.32575(7) 0.68798(7)
O12_6 O 0.12449(7) 0.28691(6) 0.62104(7)
O14_6 O 0.04766(7) 0.24497(7) 0.58009(7)
O16_6 O 0.06270(7) 0.23980(7) 0.66647(7)
C16_6 C 0.99111(10) 0.42698(10) 0.65144(11)
C17_6 C 0.95770(10) 0.40872(11) 0.63109(11)
H9_6 H 0.961843 0.384978 0.615295
C18_6 C 0.91831(11) 0.42564(12) 0.63416(11)
H10_6 H 0.896020 0.413577 0.620449
C19_6 C 0.91286(11) 0.46080(12) 0.65804(11)
C20_6 C 0.94531(11) 0.47951(11) 0.67813(11)
H11_6 H 0.940997 0.503218 0.693930
C21_6 C 0.98477(11) 0.46249(11) 0.67454(11)
C22_6 C 0.79268(10) 0.57089(10) 0.54094(10)
C23_6 C 0.81395(10) 0.54412(10) 0.57176(10)
C24_6 C 0.79353(10) 0.53049(10) 0.60710(10)
H13_6 H 0.765639 0.536828 0.610645
C25_6 C 0.81378(10) 0.50779(10) 0.63698(10)
H14_6 H 0.799774 0.499042 0.660597
C26_6 C 0.85507(10) 0.49813(11) 0.63157(11)
C27_6 C 0.87595(11) 0.51039(11) 0.59612(11)
H15_6 H 0.903678 0.503460 0.592421
C28_6 C 0.85517(11) 0.53301(11) 0.56633(11)
H16_6 H 0.868962 0.540922 0.542301
O8_6 O 0.75503(7) 0.58009(7) 0.54766(7)
O9_6 O 0.81270(7) 0.58353(7) 0.51020(7)
O10_6 O 0.87306(7) 0.47652(8) 0.66376(7)
O13_6 O 0.99497(7) 0.29766(7) 0.66991(7)
O15_6 O 0.98980(7) 0.31270(7) 0.58353(7)
Th5_6 Th 0.80260(2) 0.625000 0.44740(2)
Th7_6 Th 0.69740(2) 0.625000 0.55260(2)
Th5_7 Th 0.19740(2) 0.125000 0.05260(2)
H11_7 H 0.059003 0.003218 0.806070
C22_7 C 0.20732(10) 0.07089(10) 0.95906(10)
C23_7 C 0.18605(10) 0.04412(10) 0.92824(10)
C24_7 C 0.20647(10) 0.03049(10) 0.89290(10)
H13_7 H 0.234361 0.036828 0.889355
C25_7 C 0.18622(10) 0.00779(10) 0.86302(10)
C27_7 C 0.12405(11) 0.01039(11) 0.90388(11)
H15_7 H 0.096322 0.003460 0.907579
C28_7 C 0.14483(11) 0.03301(11) 0.93367(11)
H16_7 H 0.131038 0.040922 0.957699
O8_7 O 0.24497(7) 0.08009(7) 0.95234(7)
O9_7 O 0.18730(7) 0.08353(7) 0.98980(7)
Th7_7 Th 0.30260(2) 0.125000 0.94740(2)
C16_7 C 0.00889(10) 0.92698(10) 0.84856(11)
C17_7 C 0.04230(10) 0.90872(11) 0.86891(11)
H9_7 H 0.038157 0.884978 0.884705
C18_7 C 0.08169(11) 0.92564(12) 0.86584(11)
H10_7 H 0.103980 0.913577 0.879551
C19_7 C 0.08714(11) 0.96080(12) 0.84196(11)
C20_7 C 0.05469(11) 0.97951(11) 0.82187(11)
C21_7 C 0.01523(11) 0.96249(11) 0.82546(11)
H14_7 H 0.200226 0.999042 0.839403
C26_7 C 0.14493(10) 0.99813(11) 0.86843(11)
O10_7 O 0.12694(7) 0.97652(8) 0.83624(7)
O13_7 O 0.00503(7) 0.79766(7) 0.83009(7)
O15_7 O 0.01020(7) 0.81270(7) 0.91647(7)
C15_7 C 0.96713(10) 0.90728(10) 0.85054(10)
H12_7 H 0.992961 0.975106 0.812220
O6_7 O 0.93798(7) 0.92425(7) 0.83099(7)
O7_7 O 0.96309(6) 0.87449(7) 0.87104(7)
O11_7 O 0.91901(7) 0.82575(7) 0.81202(7)
O12_7 O 0.87551(7) 0.78691(6) 0.87896(7)
O14_7 O 0.95234(7) 0.74497(7) 0.91991(7)
O16_7 O 0.93730(7) 0.73980(7) 0.83353(7)
C15_8 C 0.46713(10) 0.59272(10) 0.14946(10)
C16_8 C 0.50889(10) 0.57302(10) 0.15144(11)
C17_8 C 0.54230(10) 0.59128(11) 0.13109(11)
H9_8 H 0.538157 0.615022 0.115295
C18_8 C 0.58169(11) 0.57436(12) 0.13416(11)
H10_8 H 0.603980 0.586423 0.120449
C19_8 C 0.58714(11) 0.53920(12) 0.15804(11)
C20_8 C 0.55469(11) 0.52049(11) 0.17813(11)
H11_8 H 0.559003 0.496782 0.193930
C21_8 C 0.51523(11) 0.53751(11) 0.17454(11)
H12_8 H 0.492961 0.524894 0.187780
C22_8 C 0.70732(10) 0.42911(10) 0.04094(10)
C23_8 C 0.68605(10) 0.45588(10) 0.07176(10)
C24_8 C 0.70647(10) 0.46951(10) 0.10710(10)
H13_8 H 0.734361 0.463172 0.110645
C25_8 C 0.68622(10) 0.49221(10) 0.13698(10)
H14_8 H 0.700226 0.500958 0.160597
C26_8 C 0.64493(10) 0.50187(11) 0.13157(11)
C27_8 C 0.62405(11) 0.48961(11) 0.09612(11)
H15_8 H 0.596322 0.496540 0.092421
C28_8 C 0.64483(11) 0.46699(11) 0.06633(11)
H16_8 H 0.631038 0.459078 0.042301
O6_8 O 0.43798(7) 0.57575(7) 0.16901(7)
O7_8 O 0.46309(6) 0.62551(7) 0.12896(7)
O8_8 O 0.74497(7) 0.41991(7) 0.04766(7)
O9_8 O 0.68730(7) 0.41647(7) 0.01020(7)
O10_8 O 0.62694(7) 0.52348(8) 0.16376(7)
O11_8 O 0.41901(7) 0.67425(7) 0.18798(7)
O12_8 O 0.37551(7) 0.71309(6) 0.12104(7)
O13_8 O 0.50503(7) 0.70234(7) 0.16991(7)
O14_8 O 0.45234(7) 0.75503(7) 0.08009(7)
O15_8 O 0.51020(7) 0.68730(7) 0.08353(7)
O16_8 O 0.43730(7) 0.76020(7) 0.16647(7)
Th7_8 Th 0.80260(2) 0.375000 0.05260(2)
Th5_8 Th 0.69740(2) 0.375000 0.94740(2)
O11_9 O 0.31202(7) 0.58099(7) 0.17425(7)
O12_9 O 0.37896(7) 0.62449(7) 0.21309(6)
O13_9 O 0.33009(7) 0.49497(7) 0.20234(7)
O14_9 O 0.41991(7) 0.54766(7) 0.25503(7)
O15_9 O 0.41647(7) 0.48980(7) 0.18730(7)
O16_9 O 0.33353(7) 0.56270(7) 0.26020(7)
O11_10 O 0.68798(7) 0.08099(7) 0.32575(7)
O12_10 O 0.62104(7) 0.12449(7) 0.28691(6)
O14_10 O 0.58009(7) 0.04766(7) 0.24497(7)
O16_10 O 0.66647(7) 0.06270(7) 0.23980(7)
O13_10 O 0.66991(7) 0.99497(7) 0.29766(7)
O15_10 O 0.58353(7) 0.98980(7) 0.31270(7)
O13_11 O 0.83009(7) 0.00503(7) 0.79766(7)
O15_11 O 0.91647(7) 0.01020(7) 0.81270(7)
O11_11 O 0.81202(7) 0.91901(7) 0.82575(7)
O12_11 O 0.87896(7) 0.87551(7) 0.78691(6)
O14_11 O 0.91991(7) 0.95234(7) 0.74497(7)
O16_11 O 0.83353(7) 0.93730(7) 0.73980(7)
O11_12 O 0.18798(7) 0.41901(7) 0.67425(7)
O12_12 O 0.12104(7) 0.37551(7) 0.71309(6)
O13_12 O 0.16991(7) 0.50503(7) 0.70234(7)
O14_12 O 0.08009(7) 0.45234(7) 0.75503(7)
O15_12 O 0.08353(7) 0.51020(7) 0.68730(7)
O16_12 O 0.16647(7) 0.43730(7) 0.76020(7)
C1_5 C 0.21713(10) 0.39946(10) 0.65728(10)
C2_5 C 0.25889(10) 0.40144(11) 0.67698(10)
C3_5 C 0.29230(10) 0.38109(11) 0.65872(11)
H1_5 H 0.288157 0.365295 0.634978
C4_5 C 0.33169(11) 0.38416(11) 0.67564(12)
H2_5 H 0.353980 0.370449 0.663577
C5_5 C 0.33714(11) 0.40804(11) 0.71080(12)
C6_5 C 0.30469(11) 0.42813(11) 0.72951(11)
H3_5 H 0.309003 0.443930 0.753218
C7_5 C 0.26523(11) 0.42454(11) 0.71249(11)
H4_5 H 0.242961 0.437780 0.725106
C8_5 C 0.45732(10) 0.29094(10) 0.82089(10)
C9_5 C 0.43605(10) 0.32176(10) 0.79412(10)
C10_5 C 0.45647(10) 0.35710(10) 0.78049(10)
H5_5 H 0.484361 0.360645 0.786828
C11_5 C 0.43622(10) 0.38698(10) 0.75779(10)
H6_5 H 0.450226 0.410597 0.749042
C12_5 C 0.39493(10) 0.38157(11) 0.74813(11)
C13_5 C 0.37405(11) 0.34612(11) 0.76039(11)
H7_5 H 0.346322 0.342421 0.753460
C14_5 C 0.39483(11) 0.31633(11) 0.78301(11)
H8_5 H 0.381038 0.292301 0.790922
O3_5 O 0.49497(7) 0.29766(7) 0.83009(7)
O4_5 O 0.43730(7) 0.26020(7) 0.83353(7)
O5_5 O 0.37694(7) 0.41376(7) 0.72652(8)
C15_9 C 0.10054(10) 0.34272(10) 0.71713(10)
C16_9 C 0.09856(11) 0.32302(10) 0.75889(10)
C17_9 C 0.11891(11) 0.34128(11) 0.79230(10)
H9_9 H 0.134705 0.365022 0.788157
C18_9 C 0.11584(11) 0.32436(12) 0.83169(11)
H10_9 H 0.129551 0.336423 0.853980
C19_9 C 0.09196(11) 0.28920(12) 0.83714(11)
C20_9 C 0.07187(11) 0.27049(11) 0.80469(11)
H11_9 H 0.056070 0.246782 0.809003
C21_9 C 0.07546(11) 0.28751(11) 0.76523(11)
H12_9 H 0.062220 0.274894 0.742961
C22_9 C 0.20906(10) 0.17911(10) 0.95732(10)
C23_9 C 0.17824(10) 0.20588(10) 0.93605(10)
C24_9 C 0.14290(10) 0.21951(10) 0.95647(10)
H13_9 H 0.139355 0.213172 0.984361
C25_9 C 0.11302(10) 0.24221(10) 0.93622(10)
H14_9 H 0.089403 0.250958 0.950226
C26_9 C 0.11843(11) 0.25187(11) 0.89493(10)
C27_9 C 0.15388(11) 0.23961(11) 0.87405(11)
H15_9 H 0.157579 0.246540 0.846322
C28_9 C 0.18367(11) 0.21699(11) 0.89483(11)
H16_9 H 0.207699 0.209078 0.881038
O8_9 O 0.20234(7) 0.16991(7) 0.99497(7)
O9_9 O 0.23980(7) 0.16647(7) 0.93730(7)
O10_9 O 0.08624(7) 0.27348(8) 0.87694(7)
C1_6 C 0.28287(10) 0.60054(10) 0.15728(10)
C2_6 C 0.24111(10) 0.59856(11) 0.17698(10)
C3_6 C 0.20770(10) 0.61891(11) 0.15872(11)
H1_6 H 0.211843 0.634705 0.134978
C4_6 C 0.16831(11) 0.61584(11) 0.17564(12)
H2_6 H 0.146020 0.629551 0.163577
C5_6 C 0.16286(11) 0.59196(11) 0.21080(12)
C6_6 C 0.19531(11) 0.57187(11) 0.22951(11)
H3_6 H 0.190997 0.556070 0.253218
C7_6 C 0.23477(11) 0.57546(11) 0.21249(11)
H4_6 H 0.257039 0.562220 0.225106
C8_6 C 0.04268(10) 0.70906(10) 0.32089(10)
C9_6 C 0.06395(10) 0.67824(10) 0.29412(10)
C10_6 C 0.04353(10) 0.64290(10) 0.28049(10)
H5_6 H 0.015639 0.639355 0.286828
C11_6 C 0.06378(10) 0.61302(10) 0.25779(10)
H6_6 H 0.049774 0.589403 0.249042
C12_6 C 0.10507(10) 0.61843(11) 0.24813(11)
C13_6 C 0.12595(11) 0.65388(11) 0.26039(11)
H7_6 H 0.153678 0.657579 0.253460
C14_6 C 0.10517(11) 0.68367(11) 0.28301(11)
H8_6 H 0.118962 0.707699 0.290922
O3_6 O 0.00503(7) 0.70234(7) 0.33009(7)
O4_6 O 0.06270(7) 0.73980(7) 0.33353(7)
O5_6 O 0.12306(7) 0.58624(7) 0.22652(8)
C15_10 C 0.39946(10) 0.65728(10) 0.21713(10)
C16_10 C 0.40144(11) 0.67698(10) 0.25889(10)
C17_10 C 0.38109(11) 0.65872(11) 0.29230(10)
H9_10 H 0.365295 0.634978 0.288157
C18_10 C 0.38416(11) 0.67564(12) 0.33169(11)
H10_10 H 0.370449 0.663577 0.353980
C19_10 C 0.40804(11) 0.71080(12) 0.33714(11)
C20_10 C 0.42813(11) 0.72951(11) 0.30469(11)
H11_10 H 0.443930 0.753218 0.309003
C21_10 C 0.42454(11) 0.71249(11) 0.26523(11)
H12_10 H 0.437780 0.725106 0.242961
C22_10 C 0.29094(10) 0.82089(10) 0.45732(10)
C23_10 C 0.32176(10) 0.79412(10) 0.43605(10)
C24_10 C 0.35710(10) 0.78049(10) 0.45647(10)
H13_10 H 0.360645 0.786828 0.484361
C25_10 C 0.38698(10) 0.75779(10) 0.43622(10)
H14_10 H 0.410597 0.749042 0.450226
C26_10 C 0.38157(11) 0.74813(11) 0.39493(10)
C27_10 C 0.34612(11) 0.76039(11) 0.37405(11)
H15_10 H 0.342421 0.753460 0.346322
C28_10 C 0.31633(11) 0.78301(11) 0.39483(11)
H16_10 H 0.292301 0.790922 0.381038
O8_10 O 0.29766(7) 0.83009(7) 0.49497(7)
O9_10 O 0.26020(7) 0.83353(7) 0.43730(7)
O10_10 O 0.41376(7) 0.72652(8) 0.37694(7)
C1_7 C 0.71713(10) 0.10054(10) 0.34272(10)
C2_7 C 0.75889(10) 0.09856(11) 0.32302(10)
C3_7 C 0.79230(10) 0.11891(11) 0.34128(11)
H1_7 H 0.788157 0.134705 0.365022
C4_7 C 0.83169(11) 0.11584(11) 0.32436(12)
H2_7 H 0.853980 0.129551 0.336423
C5_7 C 0.83714(11) 0.09196(11) 0.28920(12)
C6_7 C 0.80469(11) 0.07187(11) 0.27049(11)
H3_7 H 0.809003 0.056070 0.246782
C7_7 C 0.76523(11) 0.07546(11) 0.28751(11)
H4_7 H 0.742961 0.062220 0.274894
C8_7 C 0.95732(10) 0.20906(10) 0.17911(10)
C9_7 C 0.93605(10) 0.17824(10) 0.20588(10)
C10_7 C 0.95647(10) 0.14290(10) 0.21951(10)
H5_7 H 0.984361 0.139355 0.213172
C11_7 C 0.93622(10) 0.11302(10) 0.24221(10)
H6_7 H 0.950226 0.089403 0.250958
C12_7 C 0.89493(10) 0.11843(11) 0.25187(11)
C13_7 C 0.87405(11) 0.15388(11) 0.23961(11)
H7_7 H 0.846322 0.157579 0.246540
C14_7 C 0.89483(11) 0.18367(11) 0.21699(11)
H8_7 H 0.881038 0.207699 0.209078
O3_7 O 0.99497(7) 0.20234(7) 0.16991(7)
O4_7 O 0.93730(7) 0.23980(7) 0.16647(7)
O5_7 O 0.87694(7) 0.08624(7) 0.27348(8)
C15_11 C 0.60054(10) 0.15728(10) 0.28287(10)
C16_11 C 0.59856(11) 0.17698(10) 0.24111(10)
C17_11 C 0.61891(11) 0.15872(11) 0.20770(10)
H9_11 H 0.634705 0.134978 0.211843
C18_11 C 0.61584(11) 0.17564(12) 0.16831(11)
H10_11 H 0.629551 0.163577 0.146020
C19_11 C 0.59196(11) 0.21080(12) 0.16286(11)
C20_11 C 0.57187(11) 0.22951(11) 0.19531(11)
H11_11 H 0.556070 0.253218 0.190997
C21_11 C 0.57546(11) 0.21249(11) 0.23477(11)
H12_11 H 0.562220 0.225106 0.257039
C22_11 C 0.70906(10) 0.32089(10) 0.04268(10)
C23_11 C 0.67824(10) 0.29412(10) 0.06395(10)
C24_11 C 0.64290(10) 0.28049(10) 0.04353(10)
H13_11 H 0.639355 0.286828 0.015639
C25_11 C 0.61302(10) 0.25779(10) 0.06378(10)
H14_11 H 0.589403 0.249042 0.049774
C26_11 C 0.61843(11) 0.24813(11) 0.10507(10)
C27_11 C 0.65388(11) 0.26039(11) 0.12595(11)
H15_11 H 0.657579 0.253460 0.153678
C28_11 C 0.68367(11) 0.28301(11) 0.10517(11)
H16_11 H 0.707699 0.290922 0.118962
O8_11 O 0.70234(7) 0.33009(7) 0.00503(7)
O9_11 O 0.73980(7) 0.33353(7) 0.06270(7)
O10_11 O 0.58624(7) 0.22652(8) 0.12306(7)
C1_8 C 0.78287(10) 0.89946(10) 0.84272(10)
C2_8 C 0.74111(10) 0.90144(11) 0.82302(10)
C3_8 C 0.70770(10) 0.88109(11) 0.84128(11)
H1_8 H 0.711843 0.865295 0.865022
C4_8 C 0.66831(11) 0.88416(11) 0.82436(12)
H2_8 H 0.646020 0.870449 0.836423
C5_8 C 0.66286(11) 0.90804(11) 0.78920(12)
C6_8 C 0.69531(11) 0.92813(11) 0.77049(11)
H3_8 H 0.690997 0.943930 0.746782
C7_8 C 0.73477(11) 0.92454(11) 0.78751(11)
H4_8 H 0.757039 0.937780 0.774894
C8_8 C 0.54268(10) 0.79094(10) 0.67911(10)
C9_8 C 0.56395(10) 0.82176(10) 0.70588(10)
C10_8 C 0.54353(10) 0.85710(10) 0.71951(10)
H5_8 H 0.515639 0.860645 0.713172
C11_8 C 0.56378(10) 0.88698(10) 0.74221(10)
H6_8 H 0.549774 0.910597 0.750958
C12_8 C 0.60507(10) 0.88157(11) 0.75187(11)
C13_8 C 0.62595(11) 0.84612(11) 0.73961(11)
H7_8 H 0.653678 0.842421 0.746540
C14_8 C 0.60517(11) 0.81633(11) 0.71699(11)
H8_8 H 0.618962 0.792301 0.709078
O3_8 O 0.50503(7) 0.79766(7) 0.66991(7)
O4_8 O 0.56270(7) 0.76020(7) 0.66647(7)
O5_8 O 0.62306(7) 0.91376(7) 0.77348(8)
C15_12 C 0.89946(10) 0.84272(10) 0.78287(10)
C16_12 C 0.90144(11) 0.82302(10) 0.74111(10)
C17_12 C 0.88109(11) 0.84128(11) 0.70770(10)
H9_12 H 0.865295 0.865022 0.711843
C18_12 C 0.88416(11) 0.82436(12) 0.66831(11)
H10_12 H 0.870449 0.836423 0.646020
C19_12 C 0.90804(11) 0.78920(12) 0.66286(11)
C20_12 C 0.92813(11) 0.77049(11) 0.69531(11)
H11_12 H 0.943930 0.746782 0.690997
C21_12 C 0.92454(11) 0.78751(11) 0.73477(11)
H12_12 H 0.937780 0.774894 0.757039
C22_12 C 0.79094(10) 0.67911(10) 0.54268(10)
C23_12 C 0.82176(10) 0.70588(10) 0.56395(10)
C24_12 C 0.85710(10) 0.71951(10) 0.54353(10)
H13_12 H 0.860645 0.713172 0.515639
C25_12 C 0.88698(10) 0.74221(10) 0.56378(10)
H14_12 H 0.910597 0.750958 0.549774
C26_12 C 0.88157(11) 0.75187(11) 0.60507(10)
C27_12 C 0.84612(11) 0.73961(11) 0.62595(11)
H15_12 H 0.842421 0.746540 0.653678
C28_12 C 0.81633(11) 0.71699(11) 0.60517(11)
H16_12 H 0.792301 0.709078 0.618962
O8_12 O 0.79766(7) 0.66991(7) 0.50503(7)
O9_12 O 0.76020(7) 0.66647(7) 0.56270(7)
O10_12 O 0.91376(7) 0.77348(8) 0.62306(7)
C15_13 C 0.84272(10) 0.78287(10) 0.89946(10)
C16_13 C 0.82302(10) 0.74111(10) 0.90144(11)
C17_13 C 0.84128(11) 0.70770(10) 0.88109(11)
H9_13 H 0.865022 0.711843 0.865295
C18_13 C 0.82436(12) 0.66831(11) 0.88416(11)
H10_13 H 0.836423 0.646020 0.870449
C19_13 C 0.78920(12) 0.66286(11) 0.90804(11)
C20_13 C 0.77049(11) 0.69531(11) 0.92813(11)
H11_13 H 0.746782 0.690997 0.943930
C21_13 C 0.78751(11) 0.73477(11) 0.92454(11)
H12_13 H 0.774894 0.757039 0.937780
C22_13 C 0.67911(10) 0.54268(10) 0.79094(10)
C23_13 C 0.70588(10) 0.56395(10) 0.82176(10)
C24_13 C 0.71951(10) 0.54353(10) 0.85710(10)
H13_13 H 0.713172 0.515639 0.860645
C25_13 C 0.74221(10) 0.56378(10) 0.88698(10)
H14_13 H 0.750958 0.549774 0.910597
C26_13 C 0.75187(11) 0.60507(10) 0.88157(11)
C27_13 C 0.73961(11) 0.62595(11) 0.84612(11)
H15_13 H 0.746540 0.653678 0.842421
C28_13 C 0.71699(11) 0.60517(11) 0.81633(11)
H16_13 H 0.709078 0.618962 0.792301
O8_13 O 0.66991(7) 0.50503(7) 0.79766(7)
O9_13 O 0.66647(7) 0.56270(7) 0.76020(7)
O10_13 O 0.77348(8) 0.62306(7) 0.91376(7)
C15_14 C 0.15728(10) 0.28287(10) 0.60054(10)
C16_14 C 0.17698(10) 0.24111(10) 0.59856(11)
C17_14 C 0.15872(11) 0.20770(10) 0.61891(11)
H9_14 H 0.134978 0.211843 0.634705
C18_14 C 0.17564(12) 0.16831(11) 0.61584(11)
H10_14 H 0.163577 0.146020 0.629551
C19_14 C 0.21080(12) 0.16286(11) 0.59196(11)
C20_14 C 0.22951(11) 0.19531(11) 0.57187(11)
H11_14 H 0.253218 0.190997 0.556070
C21_14 C 0.21249(11) 0.23477(11) 0.57546(11)
H12_14 H 0.225106 0.257039 0.562220
C22_14 C 0.32089(10) 0.04268(10) 0.70906(10)
C23_14 C 0.29412(10) 0.06395(10) 0.67824(10)
C24_14 C 0.28049(10) 0.04353(10) 0.64290(10)
H13_14 H 0.286828 0.015639 0.639355
C25_14 C 0.25779(10) 0.06378(10) 0.61302(10)
H14_14 H 0.249042 0.049774 0.589403
C26_14 C 0.24813(11) 0.10507(10) 0.61843(11)
C27_14 C 0.26039(11) 0.12595(11) 0.65388(11)
H15_14 H 0.253460 0.153678 0.657579
C28_14 C 0.28301(11) 0.10517(11) 0.68367(11)
H16_14 H 0.290922 0.118962 0.707699
O8_14 O 0.33009(7) 0.00503(7) 0.70234(7)
O9_14 O 0.33353(7) 0.06270(7) 0.73980(7)
O10_14 O 0.22652(8) 0.12306(7) 0.58624(7)
C15_15 C 0.65728(10) 0.21713(10) 0.39946(10)
C16_15 C 0.67698(10) 0.25889(10) 0.40144(11)
C17_15 C 0.65872(11) 0.29230(10) 0.38109(11)
H9_15 H 0.634978 0.288157 0.365295
C18_15 C 0.67564(12) 0.33169(11) 0.38416(11)
H10_15 H 0.663577 0.353980 0.370449
C19_15 C 0.71080(12) 0.33714(11) 0.40804(11)
C20_15 C 0.72951(11) 0.30469(11) 0.42813(11)
H11_15 H 0.753218 0.309003 0.443930
C21_15 C 0.71249(11) 0.26523(11) 0.42454(11)
H12_15 H 0.725106 0.242961 0.437780
C22_15 C 0.82089(10) 0.45732(10) 0.29094(10)
C23_15 C 0.79412(10) 0.43605(10) 0.32176(10)
C24_15 C 0.78049(10) 0.45647(10) 0.35710(10)
H13_15 H 0.786828 0.484361 0.360645
C25_15 C 0.75779(10) 0.43622(10) 0.38698(10)
H14_15 H 0.749042 0.450226 0.410597
C26_15 C 0.74813(11) 0.39493(10) 0.38157(11)
C27_15 C 0.76039(11) 0.37405(11) 0.34612(11)
H15_15 H 0.753460 0.346322 0.342421
C28_15 C 0.78301(11) 0.39483(11) 0.31633(11)
H16_15 H 0.790922 0.381038 0.292301
O8_15 O 0.83009(7) 0.49497(7) 0.29766(7)
O9_15 O 0.83353(7) 0.43730(7) 0.26020(7)
O10_15 O 0.72652(8) 0.37694(7) 0.41376(7)
C15_16 C 0.34272(10) 0.71713(10) 0.10054(10)
C16_16 C 0.32302(10) 0.75889(10) 0.09856(11)
C17_16 C 0.34128(11) 0.79230(10) 0.11891(11)
H9_16 H 0.365022 0.788157 0.134705
C18_16 C 0.32436(12) 0.83169(11) 0.11584(11)
H10_16 H 0.336423 0.853980 0.129551
C19_16 C 0.28920(12) 0.83714(11) 0.09196(11)
C20_16 C 0.27049(11) 0.80469(11) 0.07187(11)
H11_16 H 0.246782 0.809003 0.056070
C21_16 C 0.28751(11) 0.76523(11) 0.07546(11)
H12_16 H 0.274894 0.742961 0.062220
C22_16 C 0.17911(10) 0.95732(10) 0.20906(10)
C23_16 C 0.20588(10) 0.93605(10) 0.17824(10)
C24_16 C 0.21951(10) 0.95647(10) 0.14290(10)
H13_16 H 0.213172 0.984361 0.139355
C25_16 C 0.24221(10) 0.93622(10) 0.11302(10)
H14_16 H 0.250958 0.950226 0.089403
C26_16 C 0.25187(11) 0.89493(10) 0.11843(11)
C27_16 C 0.23961(11) 0.87405(11) 0.15388(11)
H15_16 H 0.246540 0.846322 0.157579
C28_16 C 0.21699(11) 0.89483(11) 0.18367(11)
H16_16 H 0.209078 0.881038 0.207699
O8_16 O 0.16991(7) 0.99497(7) 0.20234(7)
O9_16 O 0.16647(7) 0.93730(7) 0.23980(7)
O10_16 O 0.27348(8) 0.87694(7) 0.08624(7)
C2_9 C 0.65144(11) 0.00889(10) 0.07302(10)
C3_9 C 0.63109(11) 0.04230(10) 0.09128(11)
H1_9 H 0.615295 0.038157 0.115022
C4_9 C 0.63416(11) 0.08169(11) 0.07436(12)
H2_9 H 0.620449 0.103980 0.086423
C5_9 C 0.65804(11) 0.08714(11) 0.03920(12)
C6_9 C 0.67813(11) 0.05469(11) 0.02049(11)
C7_9 C 0.67454(11) 0.01523(11) 0.03751(11)
H6_9 H 0.660597 0.200226 0.000958
C12_9 C 0.63157(11) 0.14493(10) 0.00187(11)
O5_9 O 0.66376(7) 0.12694(7) 0.02348(8)
H3_9 H 0.693930 0.059003 0.996782
C8_9 C 0.54094(10) 0.20732(10) 0.92911(10)
C9_9 C 0.57176(10) 0.18605(10) 0.95588(10)
C10_9 C 0.60710(10) 0.20647(10) 0.96951(10)
H5_9 H 0.610645 0.234361 0.963172
C11_9 C 0.63698(10) 0.18622(10) 0.99221(10)
C13_9 C 0.59612(11) 0.12405(11) 0.98961(11)
H7_9 H 0.592421 0.096322 0.996540
C14_9 C 0.56633(11) 0.14483(11) 0.96699(11)
H8_9 H 0.542301 0.131038 0.959078
O3_9 O 0.54766(7) 0.24497(7) 0.91991(7)
O4_9 O 0.51020(7) 0.18730(7) 0.91647(7)
C1_9 C 0.64946(10) 0.96713(10) 0.09272(10)
H4_9 H 0.687780 0.992961 0.024894
O1_5 O 0.66901(7) 0.93798(7) 0.07575(7)
O2_5 O 0.62896(7) 0.96309(6) 0.12551(7)
Th1_5 Th 0.69740(2) 0.875000 0.05260(2)
C15_17 C 0.59272(10) 0.85054(10) 0.03287(10)
H12_17 H 0.524894 0.812220 0.007039
O6_9 O 0.57575(7) 0.83099(7) 0.06202(7)
O7_9 O 0.62551(7) 0.87104(7) 0.03691(6)
O11_13 O 0.67425(7) 0.81202(7) 0.08099(7)
O12_13 O 0.71309(6) 0.87896(7) 0.12449(7)
O14_13 O 0.75503(7) 0.91991(7) 0.04766(7)
O16_13 O 0.76020(7) 0.83353(7) 0.06270(7)
Th2_5 Th 0.55260(2) 0.80260(2) 0.125000
Th3_5 Th 0.625000 0.94740(2) 0.19740(2)
C16_17 C 0.57302(10) 0.84856(11) 0.99111(10)
C17_17 C 0.59128(11) 0.86891(11) 0.95770(10)
H9_17 H 0.615022 0.884705 0.961843
C18_17 C 0.57436(12) 0.86584(11) 0.91831(11)
H10_17 H 0.586423 0.879551 0.896020
C19_17 C 0.53920(12) 0.84196(11) 0.91286(11)
C20_17 C 0.52049(11) 0.82187(11) 0.94531(11)
H11_17 H 0.496782 0.806070 0.940997
C21_17 C 0.53751(11) 0.82546(11) 0.98477(11)
C22_17 C 0.42911(10) 0.95906(10) 0.79268(10)
C23_17 C 0.45588(10) 0.92824(10) 0.81395(10)
C24_17 C 0.46951(10) 0.89290(10) 0.79353(10)
H13_17 H 0.463172 0.889355 0.765639
C25_17 C 0.49221(10) 0.86302(10) 0.81378(10)
H14_17 H 0.500958 0.839403 0.799774
C26_17 C 0.50187(11) 0.86843(11) 0.85507(10)
C27_17 C 0.48961(11) 0.90388(11) 0.87595(11)
H15_17 H 0.496540 0.907579 0.903678
C28_17 C 0.46699(11) 0.93367(11) 0.85517(11)
H16_17 H 0.459078 0.957699 0.868962
O8_17 O 0.41991(7) 0.95234(7) 0.75503(7)
O9_17 O 0.41647(7) 0.98980(7) 0.81270(7)
O10_17 O 0.52348(8) 0.83624(7) 0.87306(7)
O13_13 O 0.70234(7) 0.83009(7) 0.99497(7)
O15_13 O 0.68730(7) 0.91647(7) 0.98980(7)
H11_18 H 0.003218 0.193930 0.440997
C22_18 C 0.07089(10) 0.04094(10) 0.29268(10)
C23_18 C 0.04412(10) 0.07176(10) 0.31395(10)
C24_18 C 0.03049(10) 0.10710(10) 0.29353(10)
H13_18 H 0.036828 0.110645 0.265639
C25_18 C 0.00779(10) 0.13698(10) 0.31378(10)
C27_18 C 0.01039(11) 0.09612(11) 0.37595(11)
H15_18 H 0.003460 0.092421 0.403678
C28_18 C 0.03301(11) 0.06633(11) 0.35517(11)
H16_18 H 0.040922 0.042301 0.368962
O8_18 O 0.08009(7) 0.04766(7) 0.25503(7)
O9_18 O 0.08353(7) 0.01020(7) 0.31270(7)
C1_10 C 0.85054(10) 0.03287(10) 0.59272(10)
H4_10 H 0.812220 0.007039 0.524894
O1_6 O 0.83099(7) 0.06202(7) 0.57575(7)
O2_6 O 0.87104(7) 0.03691(6) 0.62551(7)
Th1_6 Th 0.80260(2) 0.125000 0.55260(2)
C15_18 C 0.90728(10) 0.14946(10) 0.53287(10)
C16_18 C 0.92698(10) 0.15144(11) 0.49111(10)
C17_18 C 0.90872(11) 0.13109(11) 0.45770(10)
H9_18 H 0.884978 0.115295 0.461843
C18_18 C 0.92564(12) 0.13416(11) 0.41831(11)
H10_18 H 0.913577 0.120449 0.396020
C19_18 C 0.96080(12) 0.15804(11) 0.41286(11)
C20_18 C 0.97951(11) 0.17813(11) 0.44531(11)
C21_18 C 0.96249(11) 0.17454(11) 0.48477(11)
H12_18 H 0.975106 0.187780 0.507039
H14_18 H 0.999042 0.160597 0.299774
C26_18 C 0.99813(11) 0.13157(11) 0.35507(10)
O6_10 O 0.92425(7) 0.16901(7) 0.56202(7)
O7_10 O 0.87449(7) 0.12896(7) 0.53691(6)
O10_18 O 0.97652(8) 0.16376(7) 0.37306(7)
O11_14 O 0.82575(7) 0.18798(7) 0.58099(7)
O12_14 O 0.78691(6) 0.12104(7) 0.62449(7)
O13_14 O 0.79766(7) 0.16991(7) 0.49497(7)
O14_14 O 0.74497(7) 0.08009(7) 0.54766(7)
O15_14 O 0.81270(7) 0.08353(7) 0.48980(7)
O16_14 O 0.73980(7) 0.16647(7) 0.56270(7)
Th2_6 Th 0.94740(2) 0.19740(2) 0.625000
Th3_6 Th 0.875000 0.05260(2) 0.69740(2)
C2_10 C 0.84856(11) 0.99111(10) 0.57302(10)
C3_10 C 0.86891(11) 0.95770(10) 0.59128(11)
H1_10 H 0.884705 0.961843 0.615022
C4_10 C 0.86584(11) 0.91831(11) 0.57436(12)
H2_10 H 0.879551 0.896020 0.586423
C5_10 C 0.84196(11) 0.91286(11) 0.53920(12)
C6_10 C 0.82187(11) 0.94531(11) 0.52049(11)
H3_10 H 0.806070 0.940997 0.496782
C7_10 C 0.82546(11) 0.98477(11) 0.53751(11)
C8_10 C 0.95906(10) 0.79268(10) 0.42911(10)
C9_10 C 0.92824(10) 0.81395(10) 0.45588(10)
C10_10 C 0.89290(10) 0.79353(10) 0.46951(10)
H5_10 H 0.889355 0.765639 0.463172
C11_10 C 0.86302(10) 0.81378(10) 0.49221(10)
H6_10 H 0.839403 0.799774 0.500958
C12_10 C 0.86843(11) 0.85507(10) 0.50187(11)
C13_10 C 0.90388(11) 0.87595(11) 0.48961(11)
H7_10 H 0.907579 0.903678 0.496540
C14_10 C 0.93367(11) 0.85517(11) 0.46699(11)
H8_10 H 0.957699 0.868962 0.459078
O3_10 O 0.95234(7) 0.75503(7) 0.41991(7)
O4_10 O 0.98980(7) 0.81270(7) 0.41647(7)
O5_10 O 0.83624(7) 0.87306(7) 0.52348(8)
C1_11 C 0.35054(10) 0.46713(10) 0.40728(10)
C2_11 C 0.34856(11) 0.50889(10) 0.42698(10)
C3_11 C 0.36891(11) 0.54230(10) 0.40872(11)
H1_11 H 0.384705 0.538157 0.384978
C4_11 C 0.36584(11) 0.58169(11) 0.42564(12)
H2_11 H 0.379551 0.603980 0.413577
C5_11 C 0.34196(11) 0.58714(11) 0.46080(12)
C6_11 C 0.32187(11) 0.55469(11) 0.47951(11)
H3_11 H 0.306070 0.559003 0.503218
C7_11 C 0.32546(11) 0.51523(11) 0.46249(11)
H4_11 H 0.312220 0.492961 0.475106
C8_11 C 0.45906(10) 0.70732(10) 0.57089(10)
C9_11 C 0.42824(10) 0.68605(10) 0.54412(10)
C10_11 C 0.39290(10) 0.70647(10) 0.53049(10)
H5_11 H 0.389355 0.734361 0.536828
C11_11 C 0.36302(10) 0.68622(10) 0.50779(10)
H6_11 H 0.339403 0.700226 0.499042
C12_11 C 0.36843(11) 0.64493(10) 0.49813(11)
C13_11 C 0.40388(11) 0.62405(11) 0.51039(11)
H7_11 H 0.407579 0.596322 0.503460
C14_11 C 0.43367(11) 0.64483(11) 0.53301(11)
H8_11 H 0.457699 0.631038 0.540922
O1_7 O 0.33099(7) 0.43798(7) 0.42425(7)
O2_7 O 0.37104(7) 0.46309(6) 0.37449(7)
O3_11 O 0.45234(7) 0.74497(7) 0.58009(7)
O4_11 O 0.48980(7) 0.68730(7) 0.58353(7)
O5_11 O 0.33624(7) 0.62694(7) 0.47652(8)
Th1_7 Th 0.30260(2) 0.375000 0.44740(2)
C15_19 C 0.40728(10) 0.35054(10) 0.46713(10)
C16_19 C 0.42698(10) 0.34856(11) 0.50889(10)
C17_19 C 0.40872(11) 0.36891(11) 0.54230(10)
H9_19 H 0.384978 0.384705 0.538157
C18_19 C 0.42564(12) 0.36584(11) 0.58169(11)
H10_19 H 0.413577 0.379551 0.603980
C19_19 C 0.46080(12) 0.34196(11) 0.58714(11)
C20_19 C 0.47951(11) 0.32187(11) 0.55469(11)
H11_19 H 0.503218 0.306070 0.559003
C21_19 C 0.46249(11) 0.32546(11) 0.51523(11)
H12_19 H 0.475106 0.312220 0.492961
C22_19 C 0.57089(10) 0.45906(10) 0.70732(10)
C23_19 C 0.54412(10) 0.42824(10) 0.68605(10)
C24_19 C 0.53049(10) 0.39290(10) 0.70647(10)
H13_19 H 0.536828 0.389355 0.734361
C25_19 C 0.50779(10) 0.36302(10) 0.68622(10)
H14_19 H 0.499042 0.339403 0.700226
C26_19 C 0.49813(11) 0.36843(11) 0.64493(10)
C27_19 C 0.51039(11) 0.40388(11) 0.62405(11)
H15_19 H 0.503460 0.407579 0.596322
C28_19 C 0.53301(11) 0.43367(11) 0.64483(11)
H16_19 H 0.540922 0.457699 0.631038
O6_11 O 0.42425(7) 0.33099(7) 0.43798(7)
O7_11 O 0.37449(7) 0.37104(7) 0.46309(6)
O8_19 O 0.58009(7) 0.45234(7) 0.74497(7)
O9_19 O 0.58353(7) 0.48980(7) 0.68730(7)
O10_19 O 0.47652(8) 0.33624(7) 0.62694(7)
O11_15 O 0.32575(7) 0.31202(7) 0.41901(7)
O12_15 O 0.28691(6) 0.37896(7) 0.37551(7)
O13_15 O 0.29766(7) 0.33009(7) 0.50503(7)
O14_15 O 0.24497(7) 0.41991(7) 0.45234(7)
O15_15 O 0.31270(7) 0.41647(7) 0.51020(7)
O16_15 O 0.23980(7) 0.33353(7) 0.43730(7)
Th2_7 Th 0.44740(2) 0.30260(2) 0.375000
Th3_7 Th 0.375000 0.44740(2) 0.30260(2)
H3_12 H 0.193930 0.440997 0.003218
C8_12 C 0.04094(10) 0.29268(10) 0.07089(10)
C9_12 C 0.07176(10) 0.31395(10) 0.04412(10)
C10_12 C 0.10710(10) 0.29353(10) 0.03049(10)
H5_12 H 0.110645 0.265639 0.036828
C11_12 C 0.13698(10) 0.31378(10) 0.00779(10)
C13_12 C 0.09612(11) 0.37595(11) 0.01039(11)
H7_12 H 0.092421 0.403678 0.003460
C14_12 C 0.06633(11) 0.35517(11) 0.03301(11)
H8_12 H 0.042301 0.368962 0.040922
O3_12 O 0.04766(7) 0.25503(7) 0.08009(7)
O4_12 O 0.01020(7) 0.31270(7) 0.08353(7)
C16_20 C 0.07302(10) 0.65144(11) 0.00889(10)
C17_20 C 0.09128(11) 0.63109(11) 0.04230(10)
H9_20 H 0.115022 0.615295 0.038157
C18_20 C 0.07436(12) 0.63416(11) 0.08169(11)
H10_20 H 0.086423 0.620449 0.103980
C19_20 C 0.03920(12) 0.65804(11) 0.08714(11)
C20_20 C 0.02049(11) 0.67813(11) 0.05469(11)
C21_20 C 0.03751(11) 0.67454(11) 0.01523(11)
H14_20 H 0.000958 0.660597 0.200226
C26_20 C 0.00187(11) 0.63157(11) 0.14493(10)
O10_20 O 0.02348(8) 0.66376(7) 0.12694(7)
O13_16 O 0.20234(7) 0.66991(7) 0.00503(7)
O15_16 O 0.18730(7) 0.58353(7) 0.01020(7)
C1_12 C 0.14946(10) 0.53287(10) 0.90728(10)
C2_12 C 0.15144(11) 0.49111(10) 0.92698(10)
C3_12 C 0.13109(11) 0.45770(10) 0.90872(11)
H1_12 H 0.115295 0.461843 0.884978
C4_12 C 0.13416(11) 0.41831(11) 0.92564(12)
H2_12 H 0.120449 0.396020 0.913577
C5_12 C 0.15804(11) 0.41286(11) 0.96080(12)
C6_12 C 0.17813(11) 0.44531(11) 0.97951(11)
C7_12 C 0.17454(11) 0.48477(11) 0.96249(11)
H4_12 H 0.187780 0.507039 0.975106
H6_12 H 0.160597 0.299774 0.999042
C12_12 C 0.13157(11) 0.35507(10) 0.99813(11)
O1_8 O 0.16901(7) 0.56202(7) 0.92425(7)
O2_8 O 0.12896(7) 0.53691(6) 0.87449(7)
O5_12 O 0.16376(7) 0.37306(7) 0.97652(8)
Th1_8 Th 0.19740(2) 0.625000 0.94740(2)
C15_20 C 0.09272(10) 0.64946(10) 0.96713(10)
H12_20 H 0.024894 0.687780 0.992961
O6_12 O 0.07575(7) 0.66901(7) 0.93798(7)
O7_12 O 0.12551(7) 0.62896(7) 0.96309(6)
O11_16 O 0.17425(7) 0.68798(7) 0.91901(7)
O12_16 O 0.21309(6) 0.62104(7) 0.87551(7)
O14_16 O 0.25503(7) 0.58009(7) 0.95234(7)
O16_16 O 0.26020(7) 0.66647(7) 0.93730(7)
Th2_8 Th 0.05260(2) 0.69740(2) 0.875000
Th3_8 Th 0.125000 0.55260(2) 0.80260(2)
H11_20 H 0.996782 0.693930 0.059003
C22_20 C 0.92911(10) 0.54094(10) 0.20732(10)
C23_20 C 0.95588(10) 0.57176(10) 0.18605(10)
C24_20 C 0.96951(10) 0.60710(10) 0.20647(10)
H13_20 H 0.963172 0.610645 0.234361
C25_20 C 0.99221(10) 0.63698(10) 0.18622(10)
C27_20 C 0.98961(11) 0.59612(11) 0.12405(11)
H15_20 H 0.996540 0.592421 0.096322
C28_20 C 0.96699(11) 0.56633(11) 0.14483(11)
H16_20 H 0.959078 0.542301 0.131038
O8_20 O 0.91991(7) 0.54766(7) 0.24497(7)
O9_20 O 0.91647(7) 0.51020(7) 0.18730(7)
C15_21 C 0.03287(10) 0.59272(10) 0.85054(10)
H12_21 H 0.007039 0.524894 0.812220
O6_13 O 0.06202(7) 0.57575(7) 0.83099(7)
O7_13 O 0.03691(6) 0.62551(7) 0.87104(7)
O11_17 O 0.08099(7) 0.67425(7) 0.81202(7)
O12_17 O 0.12449(7) 0.71309(6) 0.87896(7)
O14_17 O 0.04766(7) 0.75503(7) 0.91991(7)
O16_17 O 0.06270(7) 0.76020(7) 0.83353(7)
C16_21 C 0.99111(10) 0.57302(10) 0.84856(11)
C17_21 C 0.95770(10) 0.59128(11) 0.86891(11)
H9_21 H 0.961843 0.615022 0.884705
C18_21 C 0.91831(11) 0.57436(12) 0.86584(11)
H10_21 H 0.896020 0.586423 0.879551
C19_21 C 0.91286(11) 0.53920(12) 0.84196(11)
C20_21 C 0.94531(11) 0.52049(11) 0.82187(11)
H11_21 H 0.940997 0.496782 0.806070
C21_21 C 0.98477(11) 0.53751(11) 0.82546(11)
C22_21 C 0.79268(10) 0.42911(10) 0.95906(10)
C23_21 C 0.81395(10) 0.45588(10) 0.92824(10)
C24_21 C 0.79353(10) 0.46951(10) 0.89290(10)
H13_21 H 0.765639 0.463172 0.889355
C25_21 C 0.81378(10) 0.49221(10) 0.86302(10)
H14_21 H 0.799774 0.500958 0.839403
C26_21 C 0.85507(10) 0.50187(11) 0.86843(11)
C27_21 C 0.87595(11) 0.48961(11) 0.90388(11)
H15_21 H 0.903678 0.496540 0.907579
C28_21 C 0.85517(11) 0.46699(11) 0.93367(11)
H16_21 H 0.868962 0.459078 0.957699
O8_21 O 0.75503(7) 0.41991(7) 0.95234(7)
O9_21 O 0.81270(7) 0.41647(7) 0.98980(7)
O10_21 O 0.87306(7) 0.52348(8) 0.83624(7)
O13_17 O 0.99497(7) 0.70234(7) 0.83009(7)
O15_17 O 0.98980(7) 0.68730(7) 0.91647(7)
H11_22 H 0.440997 0.003218 0.193930
C22_22 C 0.29268(10) 0.07089(10) 0.04094(10)
C23_22 C 0.31395(10) 0.04412(10) 0.07176(10)
C24_22 C 0.29353(10) 0.03049(10) 0.10710(10)
H13_22 H 0.265639 0.036828 0.110645
C25_22 C 0.31378(10) 0.00779(10) 0.13698(10)
C27_22 C 0.37595(11) 0.01039(11) 0.09612(11)
H15_22 H 0.403678 0.003460 0.092421
C28_22 C 0.35517(11) 0.03301(11) 0.06633(11)
H16_22 H 0.368962 0.040922 0.042301
O8_22 O 0.25503(7) 0.08009(7) 0.04766(7)
O9_22 O 0.31270(7) 0.08353(7) 0.01020(7)
C15_22 C 0.53287(10) 0.90728(10) 0.14946(10)
C16_22 C 0.49111(10) 0.92698(10) 0.15144(11)
C17_22 C 0.45770(10) 0.90872(11) 0.13109(11)
H9_22 H 0.461843 0.884978 0.115295
C18_22 C 0.41831(11) 0.92564(12) 0.13416(11)
H10_22 H 0.396020 0.913577 0.120449
C19_22 C 0.41286(11) 0.96080(12) 0.15804(11)
C20_22 C 0.44531(11) 0.97951(11) 0.17813(11)
C21_22 C 0.48477(11) 0.96249(11) 0.17454(11)
H12_22 H 0.507039 0.975106 0.187780
H14_22 H 0.299774 0.999042 0.160597
C26_22 C 0.35507(10) 0.99813(11) 0.13157(11)
O6_14 O 0.56202(7) 0.92425(7) 0.16901(7)
O7_14 O 0.53691(6) 0.87449(7) 0.12896(7)
O10_22 O 0.37306(7) 0.97652(8) 0.16376(7)
O11_18 O 0.58099(7) 0.82575(7) 0.18798(7)
O12_18 O 0.62449(7) 0.78691(6) 0.12104(7)
O13_18 O 0.49497(7) 0.79766(7) 0.16991(7)
O14_18 O 0.54766(7) 0.74497(7) 0.08009(7)
O15_18 O 0.48980(7) 0.81270(7) 0.08353(7)
O16_18 O 0.56270(7) 0.73980(7) 0.16647(7)
C15_23 C 0.46713(10) 0.40728(10) 0.35054(10)
C16_23 C 0.50889(10) 0.42698(10) 0.34856(11)
C17_23 C 0.54230(10) 0.40872(11) 0.36891(11)
H9_23 H 0.538157 0.384978 0.384705
C18_23 C 0.58169(11) 0.42564(12) 0.36584(11)
H10_23 H 0.603980 0.413577 0.379551
C19_23 C 0.58714(11) 0.46080(12) 0.34196(11)
C20_23 C 0.55469(11) 0.47951(11) 0.32187(11)
H11_23 H 0.559003 0.503218 0.306070
C21_23 C 0.51523(11) 0.46249(11) 0.32546(11)
H12_23 H 0.492961 0.475106 0.312220
C22_23 C 0.70732(10) 0.57089(10) 0.45906(10)
C23_23 C 0.68605(10) 0.54412(10) 0.42824(10)
C24_23 C 0.70647(10) 0.53049(10) 0.39290(10)
H13_23 H 0.734361 0.536828 0.389355
C25_23 C 0.68622(10) 0.50779(10) 0.36302(10)
H14_23 H 0.700226 0.499042 0.339403
C26_23 C 0.64493(10) 0.49813(11) 0.36843(11)
C27_23 C 0.62405(11) 0.51039(11) 0.40388(11)
H15_23 H 0.596322 0.503460 0.407579
C28_23 C 0.64483(11) 0.53301(11) 0.43367(11)
H16_23 H 0.631038 0.540922 0.457699
O6_15 O 0.43798(7) 0.42425(7) 0.33099(7)
O7_15 O 0.46309(6) 0.37449(7) 0.37104(7)
O8_23 O 0.74497(7) 0.58009(7) 0.45234(7)
O9_23 O 0.68730(7) 0.58353(7) 0.48980(7)
O10_23 O 0.62694(7) 0.47652(8) 0.33624(7)
O11_19 O 0.41901(7) 0.32575(7) 0.31202(7)
O12_19 O 0.37551(7) 0.28691(6) 0.37896(7)
O13_19 O 0.50503(7) 0.29766(7) 0.33009(7)
O14_19 O 0.45234(7) 0.24497(7) 0.41991(7)
O15_19 O 0.51020(7) 0.31270(7) 0.41647(7)
O16_19 O 0.43730(7) 0.23980(7) 0.33353(7)
C16_24 C 0.00889(10) 0.07302(10) 0.65144(11)
C17_24 C 0.04230(10) 0.09128(11) 0.63109(11)
H9_24 H 0.038157 0.115022 0.615295
C18_24 C 0.08169(11) 0.07436(12) 0.63416(11)
H10_24 H 0.103980 0.086423 0.620449
C19_24 C 0.08714(11) 0.03920(12) 0.65804(11)
C20_24 C 0.05469(11) 0.02049(11) 0.67813(11)
C21_24 C 0.01523(11) 0.03751(11) 0.67454(11)
H14_24 H 0.200226 0.000958 0.660597
C26_24 C 0.14493(10) 0.00187(11) 0.63157(11)
O10_24 O 0.12694(7) 0.02348(8) 0.66376(7)
O13_20 O 0.00503(7) 0.20234(7) 0.66991(7)
O15_20 O 0.01020(7) 0.18730(7) 0.58353(7)
H11_24 H 0.059003 0.996782 0.693930
C22_24 C 0.20732(10) 0.92911(10) 0.54094(10)
C23_24 C 0.18605(10) 0.95588(10) 0.57176(10)
C24_24 C 0.20647(10) 0.96951(10) 0.60710(10)
H13_24 H 0.234361 0.963172 0.610645
C25_24 C 0.18622(10) 0.99221(10) 0.63698(10)
C27_24 C 0.12405(11) 0.98961(11) 0.59612(11)
H15_24 H 0.096322 0.996540 0.592421
C28_24 C 0.14483(11) 0.96699(11) 0.56633(11)
H16_24 H 0.131038 0.959078 0.542301
O8_24 O 0.24497(7) 0.91991(7) 0.54766(7)
O9_24 O 0.18730(7) 0.91647(7) 0.51020(7)
C15_24 C 0.96713(10) 0.09272(10) 0.64946(10)
H12_24 H 0.992961 0.024894 0.687780
O6_16 O 0.93798(7) 0.07575(7) 0.66901(7)
O7_16 O 0.96309(6) 0.12551(7) 0.62896(7)
O11_20 O 0.91901(7) 0.17425(7) 0.68798(7)
O12_20 O 0.87551(7) 0.21309(6) 0.62104(7)
O14_20 O 0.95234(7) 0.25503(7) 0.58009(7)
O16_20 O 0.93730(7) 0.26020(7) 0.66647(7)
O11_21 O 0.81202(7) 0.08099(7) 0.67425(7)
O12_21 O 0.87896(7) 0.12449(7) 0.71309(6)
O14_21 O 0.91991(7) 0.04766(7) 0.75503(7)
O16_21 O 0.83353(7) 0.06270(7) 0.76020(7)
O13_21 O 0.83009(7) 0.99497(7) 0.70234(7)
O15_21 O 0.91647(7) 0.98980(7) 0.68730(7)
O11_22 O 0.18798(7) 0.58099(7) 0.82575(7)
O12_22 O 0.12104(7) 0.62449(7) 0.78691(6)
O13_22 O 0.16991(7) 0.49497(7) 0.79766(7)
O14_22 O 0.08009(7) 0.54766(7) 0.74497(7)
O15_22 O 0.08353(7) 0.48980(7) 0.81270(7)
O16_22 O 0.16647(7) 0.56270(7) 0.73980(7)
O11_23 O 0.31202(7) 0.41901(7) 0.32575(7)
O12_23 O 0.37896(7) 0.37551(7) 0.28691(6)
O13_23 O 0.33009(7) 0.50503(7) 0.29766(7)
O14_23 O 0.41991(7) 0.45234(7) 0.24497(7)
O15_23 O 0.41647(7) 0.51020(7) 0.31270(7)
O16_23 O 0.33353(7) 0.43730(7) 0.23980(7)
O13_24 O 0.66991(7) 0.00503(7) 0.20234(7)
O15_24 O 0.58353(7) 0.01020(7) 0.18730(7)
O11_24 O 0.68798(7) 0.91901(7) 0.17425(7)
O12_24 O 0.62104(7) 0.87551(7) 0.21309(6)
O14_24 O 0.58009(7) 0.95234(7) 0.25503(7)
O16_24 O 0.66647(7) 0.93730(7) 0.26020(7)
C1_13 C 0.71713(10) 0.89946(10) 0.15728(10)
C2_13 C 0.75889(10) 0.90144(11) 0.17698(10)
C3_13 C 0.79230(10) 0.88109(11) 0.15872(11)
H1_13 H 0.788157 0.865295 0.134978
C4_13 C 0.83169(11) 0.88416(11) 0.17564(12)
H2_13 H 0.853980 0.870449 0.163577
C5_13 C 0.83714(11) 0.90804(11) 0.21080(12)
C6_13 C 0.80469(11) 0.92813(11) 0.22951(11)
H3_13 H 0.809003 0.943930 0.253218
C7_13 C 0.76523(11) 0.92454(11) 0.21249(11)
H4_13 H 0.742961 0.937780 0.225106
C8_13 C 0.95732(10) 0.79094(10) 0.32089(10)
C9_13 C 0.93605(10) 0.82176(10) 0.29412(10)
C10_13 C 0.95647(10) 0.85710(10) 0.28049(10)
H5_13 H 0.984361 0.860645 0.286828
C11_13 C 0.93622(10) 0.88698(10) 0.25779(10)
H6_13 H 0.950226 0.910597 0.249042
C12_13 C 0.89493(10) 0.88157(11) 0.24813(11)
C13_13 C 0.87405(11) 0.84612(11) 0.26039(11)
H7_13 H 0.846322 0.842421 0.253460
C14_13 C 0.89483(11) 0.81633(11) 0.28301(11)
H8_13 H 0.881038 0.792301 0.290922
O3_13 O 0.99497(7) 0.79766(7) 0.33009(7)
O4_13 O 0.93730(7) 0.76020(7) 0.33353(7)
O5_13 O 0.87694(7) 0.91376(7) 0.22652(8)
C15_25 C 0.60054(10) 0.84272(10) 0.21713(10)
C16_25 C 0.59856(11) 0.82302(10) 0.25889(10)
C17_25 C 0.61891(11) 0.84128(11) 0.29230(10)
H9_25 H 0.634705 0.865022 0.288157
C18_25 C 0.61584(11) 0.82436(12) 0.33169(11)
H10_25 H 0.629551 0.836423 0.353980
C19_25 C 0.59196(11) 0.78920(12) 0.33714(11)
C20_25 C 0.57187(11) 0.77049(11) 0.30469(11)
H11_25 H 0.556070 0.746782 0.309003
C21_25 C 0.57546(11) 0.78751(11) 0.26523(11)
H12_25 H 0.562220 0.774894 0.242961
C22_25 C 0.70906(10) 0.67911(10) 0.45732(10)
C23_25 C 0.67824(10) 0.70588(10) 0.43605(10)
C24_25 C 0.64290(10) 0.71951(10) 0.45647(10)
H13_25 H 0.639355 0.713172 0.484361
C25_25 C 0.61302(10) 0.74221(10) 0.43622(10)
H14_25 H 0.589403 0.750958 0.450226
C26_25 C 0.61843(11) 0.75187(11) 0.39493(10)
C27_25 C 0.65388(11) 0.73961(11) 0.37405(11)
H15_25 H 0.657579 0.746540 0.346322
C28_25 C 0.68367(11) 0.71699(11) 0.39483(11)
H16_25 H 0.707699 0.709078 0.381038
O8_25 O 0.70234(7) 0.66991(7) 0.49497(7)
O9_25 O 0.73980(7) 0.66647(7) 0.43730(7)
O10_25 O 0.58624(7) 0.77348(8) 0.37694(7)
C1_14 C 0.78287(10) 0.10054(10) 0.65728(10)
C2_14 C 0.74111(10) 0.09856(11) 0.67698(10)
C3_14 C 0.70770(10) 0.11891(11) 0.65872(11)
H1_14 H 0.711843 0.134705 0.634978
C4_14 C 0.66831(11) 0.11584(11) 0.67564(12)
H2_14 H 0.646020 0.129551 0.663577
C5_14 C 0.66286(11) 0.09196(11) 0.71080(12)
C6_14 C 0.69531(11) 0.07187(11) 0.72951(11)
H3_14 H 0.690997 0.056070 0.753218
C7_14 C 0.73477(11) 0.07546(11) 0.71249(11)
H4_14 H 0.757039 0.062220 0.725106
C8_14 C 0.54268(10) 0.20906(10) 0.82089(10)
C9_14 C 0.56395(10) 0.17824(10) 0.79412(10)
C10_14 C 0.54353(10) 0.14290(10) 0.78049(10)
H5_14 H 0.515639 0.139355 0.786828
C11_14 C 0.56378(10) 0.11302(10) 0.75779(10)
H6_14 H 0.549774 0.089403 0.749042
C12_14 C 0.60507(10) 0.11843(11) 0.74813(11)
C13_14 C 0.62595(11) 0.15388(11) 0.76039(11)
H7_14 H 0.653678 0.157579 0.753460
C14_14 C 0.60517(11) 0.18367(11) 0.78301(11)
H8_14 H 0.618962 0.207699 0.790922
O3_14 O 0.50503(7) 0.20234(7) 0.83009(7)
O4_14 O 0.56270(7) 0.23980(7) 0.83353(7)
O5_14 O 0.62306(7) 0.08624(7) 0.72652(8)
C15_26 C 0.89946(10) 0.15728(10) 0.71713(10)
C16_26 C 0.90144(11) 0.17698(10) 0.75889(10)
C17_26 C 0.88109(11) 0.15872(11) 0.79230(10)
H9_26 H 0.865295 0.134978 0.788157
C18_26 C 0.88416(11) 0.17564(12) 0.83169(11)
H10_26 H 0.870449 0.163577 0.853980
C19_26 C 0.90804(11) 0.21080(12) 0.83714(11)
C20_26 C 0.92813(11) 0.22951(11) 0.80469(11)
H11_26 H 0.943930 0.253218 0.809003
C21_26 C 0.92454(11) 0.21249(11) 0.76523(11)
H12_26 H 0.937780 0.225106 0.742961
C22_26 C 0.79094(10) 0.32089(10) 0.95732(10)
C23_26 C 0.82176(10) 0.29412(10) 0.93605(10)
C24_26 C 0.85710(10) 0.28049(10) 0.95647(10)
H13_26 H 0.860645 0.286828 0.984361
C25_26 C 0.88698(10) 0.25779(10) 0.93622(10)
H14_26 H 0.910597 0.249042 0.950226
C26_26 C 0.88157(11) 0.24813(11) 0.89493(10)
C27_26 C 0.84612(11) 0.26039(11) 0.87405(11)
H15_26 H 0.842421 0.253460 0.846322
C28_26 C 0.81633(11) 0.28301(11) 0.89483(11)
H16_26 H 0.792301 0.290922 0.881038
O8_26 O 0.79766(7) 0.33009(7) 0.99497(7)
O9_26 O 0.76020(7) 0.33353(7) 0.93730(7)
O10_26 O 0.91376(7) 0.22652(8) 0.87694(7)
C1_15 C 0.21713(10) 0.60054(10) 0.84272(10)
C2_15 C 0.25889(10) 0.59856(11) 0.82302(10)
C3_15 C 0.29230(10) 0.61891(11) 0.84128(11)
H1_15 H 0.288157 0.634705 0.865022
C4_15 C 0.33169(11) 0.61584(11) 0.82436(12)
H2_15 H 0.353980 0.629551 0.836423
C5_15 C 0.33714(11) 0.59196(11) 0.78920(12)
C6_15 C 0.30469(11) 0.57187(11) 0.77049(11)
H3_15 H 0.309003 0.556070 0.746782
C7_15 C 0.26523(11) 0.57546(11) 0.78751(11)
H4_15 H 0.242961 0.562220 0.774894
C8_15 C 0.45732(10) 0.70906(10) 0.67911(10)
C9_15 C 0.43605(10) 0.67824(10) 0.70588(10)
C10_15 C 0.45647(10) 0.64290(10) 0.71951(10)
H5_15 H 0.484361 0.639355 0.713172
C11_15 C 0.43622(10) 0.61302(10) 0.74221(10)
H6_15 H 0.450226 0.589403 0.750958
C12_15 C 0.39493(10) 0.61843(11) 0.75187(11)
C13_15 C 0.37405(11) 0.65388(11) 0.73961(11)
H7_15 H 0.346322 0.657579 0.746540
C14_15 C 0.39483(11) 0.68367(11) 0.71699(11)
H8_15 H 0.381038 0.707699 0.709078
O3_15 O 0.49497(7) 0.70234(7) 0.66991(7)
O4_15 O 0.43730(7) 0.73980(7) 0.66647(7)
O5_15 O 0.37694(7) 0.58624(7) 0.77348(8)
C15_27 C 0.10054(10) 0.65728(10) 0.78287(10)
C16_27 C 0.09856(11) 0.67698(10) 0.74111(10)
C17_27 C 0.11891(11) 0.65872(11) 0.70770(10)
H9_27 H 0.134705 0.634978 0.711843
C18_27 C 0.11584(11) 0.67564(12) 0.66831(11)
H10_27 H 0.129551 0.663577 0.646020
C19_27 C 0.09196(11) 0.71080(12) 0.66286(11)
C20_27 C 0.07187(11) 0.72951(11) 0.69531(11)
H11_27 H 0.056070 0.753218 0.690997
C21_27 C 0.07546(11) 0.71249(11) 0.73477(11)
H12_27 H 0.062220 0.725106 0.757039
C22_27 C 0.20906(10) 0.82089(10) 0.54268(10)
C23_27 C 0.17824(10) 0.79412(10) 0.56395(10)
C24_27 C 0.14290(10) 0.78049(10) 0.54353(10)
H13_27 H 0.139355 0.786828 0.515639
C25_27 C 0.11302(10) 0.75779(10) 0.56378(10)
H14_27 H 0.089403 0.749042 0.549774
C26_27 C 0.11843(11) 0.74813(11) 0.60507(10)
C27_27 C 0.15388(11) 0.76039(11) 0.62595(11)
H15_27 H 0.157579 0.753460 0.653678
C28_27 C 0.18367(11) 0.78301(11) 0.60517(11)
H16_27 H 0.207699 0.790922 0.618962
O8_27 O 0.20234(7) 0.83009(7) 0.50503(7)
O9_27 O 0.23980(7) 0.83353(7) 0.56270(7)
O10_27 O 0.08624(7) 0.72652(8) 0.62306(7)
C1_16 C 0.28287(10) 0.39946(10) 0.34272(10)
C2_16 C 0.24111(10) 0.40144(11) 0.32302(10)
C3_16 C 0.20770(10) 0.38109(11) 0.34128(11)
H1_16 H 0.211843 0.365295 0.365022
C4_16 C 0.16831(11) 0.38416(11) 0.32436(12)
H2_16 H 0.146020 0.370449 0.336423
C5_16 C 0.16286(11) 0.40804(11) 0.28920(12)
C6_16 C 0.19531(11) 0.42813(11) 0.27049(11)
H3_16 H 0.190997 0.443930 0.246782
C7_16 C 0.23477(11) 0.42454(11) 0.28751(11)
H4_16 H 0.257039 0.437780 0.274894
C8_16 C 0.04268(10) 0.29094(10) 0.17911(10)
C9_16 C 0.06395(10) 0.32176(10) 0.20588(10)
C10_16 C 0.04353(10) 0.35710(10) 0.21951(10)
H5_16 H 0.015639 0.360645 0.213172
C11_16 C 0.06378(10) 0.38698(10) 0.24221(10)
H6_16 H 0.049774 0.410597 0.250958
C12_16 C 0.10507(10) 0.38157(11) 0.25187(11)
C13_16 C 0.12595(11) 0.34612(11) 0.23961(11)
H7_16 H 0.153678 0.342421 0.246540
C14_16 C 0.10517(11) 0.31633(11) 0.21699(11)
H8_16 H 0.118962 0.292301 0.209078
O3_16 O 0.00503(7) 0.29766(7) 0.16991(7)
O4_16 O 0.06270(7) 0.26020(7) 0.16647(7)
O5_16 O 0.12306(7) 0.41376(7) 0.27348(8)
C15_28 C 0.39946(10) 0.34272(10) 0.28287(10)
C16_28 C 0.40144(11) 0.32302(10) 0.24111(10)
C17_28 C 0.38109(11) 0.34128(11) 0.20770(10)
H9_28 H 0.365295 0.365022 0.211843
C18_28 C 0.38416(11) 0.32436(12) 0.16831(11)
H10_28 H 0.370449 0.336423 0.146020
C19_28 C 0.40804(11) 0.28920(12) 0.16286(11)
C20_28 C 0.42813(11) 0.27049(11) 0.19531(11)
H11_28 H 0.443930 0.246782 0.190997
C21_28 C 0.42454(11) 0.28751(11) 0.23477(11)
H12_28 H 0.437780 0.274894 0.257039
C22_28 C 0.29094(10) 0.17911(10) 0.04268(10)
C23_28 C 0.32176(10) 0.20588(10) 0.06395(10)
C24_28 C 0.35710(10) 0.21951(10) 0.04353(10)
H13_28 H 0.360645 0.213172 0.015639
C25_28 C 0.38698(10) 0.24221(10) 0.06378(10)
H14_28 H 0.410597 0.250958 0.049774
C26_28 C 0.38157(11) 0.25187(11) 0.10507(10)
C27_28 C 0.34612(11) 0.23961(11) 0.12595(11)
H15_28 H 0.342421 0.246540 0.153678
C28_28 C 0.31633(11) 0.21699(11) 0.10517(11)
H16_28 H 0.292301 0.209078 0.118962
O8_28 O 0.29766(7) 0.16991(7) 0.00503(7)
O9_28 O 0.26020(7) 0.16647(7) 0.06270(7)
O10_28 O 0.41376(7) 0.27348(8) 0.12306(7)
C15_29 C 0.34272(10) 0.28287(10) 0.39946(10)
C16_29 C 0.32302(10) 0.24111(10) 0.40144(11)
C17_29 C 0.34128(11) 0.20770(10) 0.38109(11)
H9_29 H 0.365022 0.211843 0.365295
C18_29 C 0.32436(12) 0.16831(11) 0.38416(11)
H10_29 H 0.336423 0.146020 0.370449
C19_29 C 0.28920(12) 0.16286(11) 0.40804(11)
C20_29 C 0.27049(11) 0.19531(11) 0.42813(11)
H11_29 H 0.246782 0.190997 0.443930
C21_29 C 0.28751(11) 0.23477(11) 0.42454(11)
H12_29 H 0.274894 0.257039 0.437780
C22_29 C 0.17911(10) 0.04268(10) 0.29094(10)
C23_29 C 0.20588(10) 0.06395(10) 0.32176(10)
C24_29 C 0.21951(10) 0.04353(10) 0.35710(10)
H13_29 H 0.213172 0.015639 0.360645
C25_29 C 0.24221(10) 0.06378(10) 0.38698(10)
H14_29 H 0.250958 0.049774 0.410597
C26_29 C 0.25187(11) 0.10507(10) 0.38157(11)
C27_29 C 0.23961(11) 0.12595(11) 0.34612(11)
H15_29 H 0.246540 0.153678 0.342421
C28_29 C 0.21699(11) 0.10517(11) 0.31633(11)
H16_29 H 0.209078 0.118962 0.292301
O8_29 O 0.16991(7) 0.00503(7) 0.29766(7)
O9_29 O 0.16647(7) 0.06270(7) 0.26020(7)
O10_29 O 0.27348(8) 0.12306(7) 0.41376(7)
C15_30 C 0.65728(10) 0.78287(10) 0.10054(10)
C16_30 C 0.67698(10) 0.74111(10) 0.09856(11)
C17_30 C 0.65872(11) 0.70770(10) 0.11891(11)
H9_30 H 0.634978 0.711843 0.134705
C18_30 C 0.67564(12) 0.66831(11) 0.11584(11)
H10_30 H 0.663577 0.646020 0.129551
C19_30 C 0.71080(12) 0.66286(11) 0.09196(11)
C20_30 C 0.72951(11) 0.69531(11) 0.07187(11)
H11_30 H 0.753218 0.690997 0.056070
C21_30 C 0.71249(11) 0.73477(11) 0.07546(11)
H12_30 H 0.725106 0.757039 0.062220
C22_30 C 0.82089(10) 0.54268(10) 0.20906(10)
C23_30 C 0.79412(10) 0.56395(10) 0.17824(10)
C24_30 C 0.78049(10) 0.54353(10) 0.14290(10)
H13_30 H 0.786828 0.515639 0.139355
C25_30 C 0.75779(10) 0.56378(10) 0.11302(10)
H14_30 H 0.749042 0.549774 0.089403
C26_30 C 0.74813(11) 0.60507(10) 0.11843(11)
C27_30 C 0.76039(11) 0.62595(11) 0.15388(11)
H15_30 H 0.753460 0.653678 0.157579
C28_30 C 0.78301(11) 0.60517(11) 0.18367(11)
H16_30 H 0.790922 0.618962 0.207699
O8_30 O 0.83009(7) 0.50503(7) 0.20234(7)
O9_30 O 0.83353(7) 0.56270(7) 0.23980(7)
O10_30 O 0.72652(8) 0.62306(7) 0.08624(7)
C15_31 C 0.15728(10) 0.71713(10) 0.89946(10)
C16_31 C 0.17698(10) 0.75889(10) 0.90144(11)
C17_31 C 0.15872(11) 0.79230(10) 0.88109(11)
H9_31 H 0.134978 0.788157 0.865295
C18_31 C 0.17564(12) 0.83169(11) 0.88416(11)
H10_31 H 0.163577 0.853980 0.870449
C19_31 C 0.21080(12) 0.83714(11) 0.90804(11)
C20_31 C 0.22951(11) 0.80469(11) 0.92813(11)
H11_31 H 0.253218 0.809003 0.943930
C21_31 C 0.21249(11) 0.76523(11) 0.92454(11)
H12_31 H 0.225106 0.742961 0.937780
C22_31 C 0.32089(10) 0.95732(10) 0.79094(10)
C23_31 C 0.29412(10) 0.93605(10) 0.82176(10)
C24_31 C 0.28049(10) 0.95647(10) 0.85710(10)
H13_31 H 0.286828 0.984361 0.860645
C25_31 C 0.25779(10) 0.93622(10) 0.88698(10)
H14_31 H 0.249042 0.950226 0.910597
C26_31 C 0.24813(11) 0.89493(10) 0.88157(11)
C27_31 C 0.26039(11) 0.87405(11) 0.84612(11)
H15_31 H 0.253460 0.846322 0.842421
C28_31 C 0.28301(11) 0.89483(11) 0.81633(11)
H16_31 H 0.290922 0.881038 0.792301
O8_31 O 0.33009(7) 0.99497(7) 0.79766(7)
O9_31 O 0.33353(7) 0.93730(7) 0.76020(7)
O10_31 O 0.22652(8) 0.87694(7) 0.91376(7)
C15_32 C 0.84272(10) 0.21713(10) 0.60054(10)
C16_32 C 0.82302(10) 0.25889(10) 0.59856(11)
C17_32 C 0.84128(11) 0.29230(10) 0.61891(11)
H9_32 H 0.865022 0.288157 0.634705
C18_32 C 0.82436(12) 0.33169(11) 0.61584(11)
H10_32 H 0.836423 0.353980 0.629551
C19_32 C 0.78920(12) 0.33714(11) 0.59196(11)
C20_32 C 0.77049(11) 0.30469(11) 0.57187(11)
H11_32 H 0.746782 0.309003 0.556070
C21_32 C 0.78751(11) 0.26523(11) 0.57546(11)
H12_32 H 0.774894 0.242961 0.562220
C22_32 C 0.67911(10) 0.45732(10) 0.70906(10)
C23_32 C 0.70588(10) 0.43605(10) 0.67824(10)
C24_32 C 0.71951(10) 0.45647(10) 0.64290(10)
H13_32 H 0.713172 0.484361 0.639355
C25_32 C 0.74221(10) 0.43622(10) 0.61302(10)
H14_32 H 0.750958 0.450226 0.589403
C26_32 C 0.75187(11) 0.39493(10) 0.61843(11)
C27_32 C 0.73961(11) 0.37405(11) 0.65388(11)
H15_32 H 0.746540 0.346322 0.657579
C28_32 C 0.71699(11) 0.39483(11) 0.68367(11)
H16_32 H 0.709078 0.381038 0.707699
O8_32 O 0.66991(7) 0.49497(7) 0.70234(7)
O9_32 O 0.66647(7) 0.43730(7) 0.73980(7)
O10_32 O 0.77348(8) 0.37694(7) 0.58624(7)
H11_33 H 0.003218 0.693930 0.559003
C22_33 C 0.07089(10) 0.54094(10) 0.70732(10)
C23_33 C 0.04412(10) 0.57176(10) 0.68605(10)
C24_33 C 0.03049(10) 0.60710(10) 0.70647(10)
H13_33 H 0.036828 0.610645 0.734361
C25_33 C 0.00779(10) 0.63698(10) 0.68622(10)
C27_33 C 0.01039(11) 0.59612(11) 0.62405(11)
H15_33 H 0.003460 0.592421 0.596322
C28_33 C 0.03301(11) 0.56633(11) 0.64483(11)
H16_33 H 0.040922 0.542301 0.631038
C1_17 C 0.85054(10) 0.53287(10) 0.40728(10)
C2_17 C 0.84856(11) 0.49111(10) 0.42698(10)
C3_17 C 0.86891(11) 0.45770(10) 0.40872(11)
H1_17 H 0.884705 0.461843 0.384978
C4_17 C 0.86584(11) 0.41831(11) 0.42564(12)
H2_17 H 0.879551 0.396020 0.413577
C5_17 C 0.84196(11) 0.41286(11) 0.46080(12)
C6_17 C 0.82187(11) 0.44531(11) 0.47951(11)
H3_17 H 0.806070 0.440997 0.503218
C7_17 C 0.82546(11) 0.48477(11) 0.46249(11)
H4_17 H 0.812220 0.507039 0.475106
C8_17 C 0.95906(10) 0.29268(10) 0.57089(10)
C9_17 C 0.92824(10) 0.31395(10) 0.54412(10)
C10_17 C 0.89290(10) 0.29353(10) 0.53049(10)
H5_17 H 0.889355 0.265639 0.536828
C11_17 C 0.86302(10) 0.31378(10) 0.50779(10)
H6_17 H 0.839403 0.299774 0.499042
C12_17 C 0.86843(11) 0.35507(10) 0.49813(11)
C13_17 C 0.90388(11) 0.37595(11) 0.51039(11)
H7_17 H 0.907579 0.403678 0.503460
C14_17 C 0.93367(11) 0.35517(11) 0.53301(11)
H8_17 H 0.957699 0.368962 0.540922
O1_9 O 0.83099(7) 0.56202(7) 0.42425(7)
O2_9 O 0.87104(7) 0.53691(6) 0.37449(7)
O5_17 O 0.83624(7) 0.37306(7) 0.47652(8)
C15_33 C 0.90728(10) 0.64946(10) 0.46713(10)
C16_33 C 0.92698(10) 0.65144(11) 0.50889(10)
C17_33 C 0.90872(11) 0.63109(11) 0.54230(10)
H9_33 H 0.884978 0.615295 0.538157
C18_33 C 0.92564(12) 0.63416(11) 0.58169(11)
H10_33 H 0.913577 0.620449 0.603980
C19_33 C 0.96080(12) 0.65804(11) 0.58714(11)
C20_33 C 0.97951(11) 0.67813(11) 0.55469(11)
C21_33 C 0.96249(11) 0.67454(11) 0.51523(11)
H12_33 H 0.975106 0.687780 0.492961
H14_33 H 0.999042 0.660597 0.700226
C26_33 C 0.99813(11) 0.63157(11) 0.64493(10)
O6_17 O 0.92425(7) 0.66901(7) 0.43798(7)
O7_17 O 0.87449(7) 0.62896(7) 0.46309(6)
O10_33 O 0.97652(8) 0.66376(7) 0.62694(7)
O11_25 O 0.82575(7) 0.68798(7) 0.41901(7)
O12_25 O 0.78691(6) 0.62104(7) 0.37551(7)
H3_18 H 0.693930 0.559003 0.003218
C8_18 C 0.54094(10) 0.70732(10) 0.07089(10)
C9_18 C 0.57176(10) 0.68605(10) 0.04412(10)
C10_18 C 0.60710(10) 0.70647(10) 0.03049(10)
H5_18 H 0.610645 0.734361 0.036828
C11_18 C 0.63698(10) 0.68622(10) 0.00779(10)
C13_18 C 0.59612(11) 0.62405(11) 0.01039(11)
H7_18 H 0.592421 0.596322 0.003460
C14_18 C 0.56633(11) 0.64483(11) 0.03301(11)
H8_18 H 0.542301 0.631038 0.040922
C16_34 C 0.57302(10) 0.34856(11) 0.00889(10)
C17_34 C 0.59128(11) 0.36891(11) 0.04230(10)
H9_34 H 0.615022 0.384705 0.038157
C18_34 C 0.57436(12) 0.36584(11) 0.08169(11)
H10_34 H 0.586423 0.379551 0.103980
C19_34 C 0.53920(12) 0.34196(11) 0.08714(11)
C20_34 C 0.52049(11) 0.32187(11) 0.05469(11)
H11_34 H 0.496782 0.306070 0.059003
C21_34 C 0.53751(11) 0.32546(11) 0.01523(11)
C22_34 C 0.42911(10) 0.45906(10) 0.20732(10)
C23_34 C 0.45588(10) 0.42824(10) 0.18605(10)
C24_34 C 0.46951(10) 0.39290(10) 0.20647(10)
H13_34 H 0.463172 0.389355 0.234361
C25_34 C 0.49221(10) 0.36302(10) 0.18622(10)
H14_34 H 0.500958 0.339403 0.200226
C26_34 C 0.50187(11) 0.36843(11) 0.14493(10)
C27_34 C 0.48961(11) 0.40388(11) 0.12405(11)
H15_34 H 0.496540 0.407579 0.096322
C28_34 C 0.46699(11) 0.43367(11) 0.14483(11)
H16_34 H 0.459078 0.457699 0.131038
O10_34 O 0.52348(8) 0.33624(7) 0.12694(7)
C1_18 C 0.64946(10) 0.46713(10) 0.90728(10)
C2_18 C 0.65144(11) 0.50889(10) 0.92698(10)
C3_18 C 0.63109(11) 0.54230(10) 0.90872(11)
H1_18 H 0.615295 0.538157 0.884978
C4_18 C 0.63416(11) 0.58169(11) 0.92564(12)
H2_18 H 0.620449 0.603980 0.913577
C5_18 C 0.65804(11) 0.58714(11) 0.96080(12)
C6_18 C 0.67813(11) 0.55469(11) 0.97951(11)
C7_18 C 0.67454(11) 0.51523(11) 0.96249(11)
H4_18 H 0.687780 0.492961 0.975106
H6_18 H 0.660597 0.700226 0.999042
C12_18 C 0.63157(11) 0.64493(10) 0.99813(11)
O1_10 O 0.66901(7) 0.43798(7) 0.92425(7)
O2_10 O 0.62896(7) 0.46309(6) 0.87449(7)
O5_18 O 0.66376(7) 0.62694(7) 0.97652(8)
C15_34 C 0.59272(10) 0.35054(10) 0.96713(10)
H12_34 H 0.524894 0.312220 0.992961
O6_18 O 0.57575(7) 0.33099(7) 0.93798(7)
O7_18 O 0.62551(7) 0.37104(7) 0.96309(6)
O11_26 O 0.67425(7) 0.31202(7) 0.91901(7)
O12_26 O 0.71309(6) 0.37896(7) 0.87551(7)
C1_19 C 0.14946(10) 0.03287(10) 0.09272(10)
H4_19 H 0.187780 0.007039 0.024894
O1_11 O 0.16901(7) 0.06202(7) 0.07575(7)
O2_11 O 0.12896(7) 0.03691(6) 0.12551(7)
C15_35 C 0.09272(10) 0.14946(10) 0.03287(10)
H12_35 H 0.024894 0.187780 0.007039
O6_19 O 0.07575(7) 0.16901(7) 0.06202(7)
O7_19 O 0.12551(7) 0.12896(7) 0.03691(6)
O11_27 O 0.17425(7) 0.18798(7) 0.08099(7)
O12_27 O 0.21309(6) 0.12104(7) 0.12449(7)
C16_35 C 0.07302(10) 0.15144(11) 0.99111(10)
C17_35 C 0.09128(11) 0.13109(11) 0.95770(10)
H9_35 H 0.115022 0.115295 0.961843
C18_35 C 0.07436(12) 0.13416(11) 0.91831(11)
H10_35 H 0.086423 0.120449 0.896020
C19_35 C 0.03920(12) 0.15804(11) 0.91286(11)
C20_35 C 0.02049(11) 0.17813(11) 0.94531(11)
C21_35 C 0.03751(11) 0.17454(11) 0.98477(11)
H14_35 H 0.000958 0.160597 0.799774
C26_35 C 0.00187(11) 0.13157(11) 0.85507(10)
O10_35 O 0.02348(8) 0.16376(7) 0.87306(7)
C2_19 C 0.15144(11) 0.99111(10) 0.07302(10)
C3_19 C 0.13109(11) 0.95770(10) 0.09128(11)
H1_19 H 0.115295 0.961843 0.115022
C4_19 C 0.13416(11) 0.91831(11) 0.07436(12)
H2_19 H 0.120449 0.896020 0.086423
C5_19 C 0.15804(11) 0.91286(11) 0.03920(12)
C6_19 C 0.17813(11) 0.94531(11) 0.02049(11)
C7_19 C 0.17454(11) 0.98477(11) 0.03751(11)
H6_19 H 0.160597 0.799774 0.000958
C12_19 C 0.13157(11) 0.85507(10) 0.00187(11)
O5_19 O 0.16376(7) 0.87306(7) 0.02348(8)
H3_19 H 0.193930 0.940997 0.996782
C8_19 C 0.04094(10) 0.79268(10) 0.92911(10)
C9_19 C 0.07176(10) 0.81395(10) 0.95588(10)
C10_19 C 0.10710(10) 0.79353(10) 0.96951(10)
H5_19 H 0.110645 0.765639 0.963172
C11_19 C 0.13698(10) 0.81378(10) 0.99221(10)
C13_19 C 0.09612(11) 0.87595(11) 0.98961(11)
H7_19 H 0.092421 0.903678 0.996540
C14_19 C 0.06633(11) 0.85517(11) 0.96699(11)
H8_19 H 0.042301 0.868962 0.959078
H11_35 H 0.996782 0.193930 0.940997
C22_35 C 0.92911(10) 0.04094(10) 0.79268(10)
C23_35 C 0.95588(10) 0.07176(10) 0.81395(10)
C24_35 C 0.96951(10) 0.10710(10) 0.79353(10)
H13_35 H 0.963172 0.110645 0.765639
C25_35 C 0.99221(10) 0.13698(10) 0.81378(10)
C27_35 C 0.98961(11) 0.09612(11) 0.87595(11)
H15_35 H 0.996540 0.092421 0.903678
C28_35 C 0.96699(11) 0.06633(11) 0.85517(11)
H16_35 H 0.959078 0.042301 0.868962
C2_20 C 0.34856(11) 0.00889(10) 0.57302(10)
C3_20 C 0.36891(11) 0.04230(10) 0.59128(11)
H1_20 H 0.384705 0.038157 0.615022
C4_20 C 0.36584(11) 0.08169(11) 0.57436(12)
H2_20 H 0.379551 0.103980 0.586423
C5_20 C 0.34196(11) 0.08714(11) 0.53920(12)
C6_20 C 0.32187(11) 0.05469(11) 0.52049(11)
H3_20 H 0.306070 0.059003 0.496782
C7_20 C 0.32546(11) 0.01523(11) 0.53751(11)
C8_20 C 0.45906(10) 0.20732(10) 0.42911(10)
C9_20 C 0.42824(10) 0.18605(10) 0.45588(10)
C10_20 C 0.39290(10) 0.20647(10) 0.46951(10)
H5_20 H 0.389355 0.234361 0.463172
C11_20 C 0.36302(10) 0.18622(10) 0.49221(10)
H6_20 H 0.339403 0.200226 0.500958
C12_20 C 0.36843(11) 0.14493(10) 0.50187(11)
C13_20 C 0.40388(11) 0.12405(11) 0.48961(11)
H7_20 H 0.407579 0.096322 0.496540
C14_20 C 0.43367(11) 0.14483(11) 0.46699(11)
H8_20 H 0.457699 0.131038 0.459078
O5_20 O 0.33624(7) 0.12694(7) 0.52348(8)
C1_20 C 0.35054(10) 0.96713(10) 0.59272(10)
H4_20 H 0.312220 0.992961 0.524894
O1_12 O 0.33099(7) 0.93798(7) 0.57575(7)
O2_12 O 0.37104(7) 0.96309(6) 0.62551(7)
C15_36 C 0.40728(10) 0.85054(10) 0.53287(10)
C16_36 C 0.42698(10) 0.84856(11) 0.49111(10)
C17_36 C 0.40872(11) 0.86891(11) 0.45770(10)
H9_36 H 0.384978 0.884705 0.461843
C18_36 C 0.42564(12) 0.86584(11) 0.41831(11)
H10_36 H 0.413577 0.879551 0.396020
C19_36 C 0.46080(12) 0.84196(11) 0.41286(11)
C20_36 C 0.47951(11) 0.82187(11) 0.44531(11)
H11_36 H 0.503218 0.806070 0.440997
C21_36 C 0.46249(11) 0.82546(11) 0.48477(11)
H12_36 H 0.475106 0.812220 0.507039
C22_36 C 0.57089(10) 0.95906(10) 0.29268(10)
C23_36 C 0.54412(10) 0.92824(10) 0.31395(10)
C24_36 C 0.53049(10) 0.89290(10) 0.29353(10)
H13_36 H 0.536828 0.889355 0.265639
C25_36 C 0.50779(10) 0.86302(10) 0.31378(10)
H14_36 H 0.499042 0.839403 0.299774
C26_36 C 0.49813(11) 0.86843(11) 0.35507(10)
C27_36 C 0.51039(11) 0.90388(11) 0.37595(11)
H15_36 H 0.503460 0.907579 0.403678
C28_36 C 0.53301(11) 0.93367(11) 0.35517(11)
H16_36 H 0.540922 0.957699 0.368962
O6_20 O 0.42425(7) 0.83099(7) 0.56202(7)
O7_20 O 0.37449(7) 0.87104(7) 0.53691(6)
O10_36 O 0.47652(8) 0.83624(7) 0.37306(7)
O11_28 O 0.32575(7) 0.81202(7) 0.58099(7)
O12_28 O 0.28691(6) 0.87896(7) 0.62449(7)
H11_37 H 0.559003 0.003218 0.693930
C22_37 C 0.70732(10) 0.07089(10) 0.54094(10)
C23_37 C 0.68605(10) 0.04412(10) 0.57176(10)
C24_37 C 0.70647(10) 0.03049(10) 0.60710(10)
H13_37 H 0.734361 0.036828 0.610645
C25_37 C 0.68622(10) 0.00779(10) 0.63698(10)
C27_37 C 0.62405(11) 0.01039(11) 0.59612(11)
H15_37 H 0.596322 0.003460 0.592421
C28_37 C 0.64483(11) 0.03301(11) 0.56633(11)
H16_37 H 0.631038 0.040922 0.542301
C15_37 C 0.46713(10) 0.90728(10) 0.64946(10)
C16_37 C 0.50889(10) 0.92698(10) 0.65144(11)
C17_37 C 0.54230(10) 0.90872(11) 0.63109(11)
H9_37 H 0.538157 0.884978 0.615295
C18_37 C 0.58169(11) 0.92564(12) 0.63416(11)
H10_37 H 0.603980 0.913577 0.620449
C19_37 C 0.58714(11) 0.96080(12) 0.65804(11)
C20_37 C 0.55469(11) 0.97951(11) 0.67813(11)
C21_37 C 0.51523(11) 0.96249(11) 0.67454(11)
H12_37 H 0.492961 0.975106 0.687780
H14_37 H 0.700226 0.999042 0.660597
C26_37 C 0.64493(10) 0.99813(11) 0.63157(11)
O6_21 O 0.43798(7) 0.92425(7) 0.66901(7)
O7_21 O 0.46309(6) 0.87449(7) 0.62896(7)
O10_37 O 0.62694(7) 0.97652(8) 0.66376(7)
O11_29 O 0.41901(7) 0.82575(7) 0.68798(7)
O12_29 O 0.37551(7) 0.78691(6) 0.62104(7)
C16_38 C 0.00889(10) 0.57302(10) 0.34856(11)
C17_38 C 0.04230(10) 0.59128(11) 0.36891(11)
H9_38 H 0.038157 0.615022 0.384705
C18_38 C 0.08169(11) 0.57436(12) 0.36584(11)
H10_38 H 0.103980 0.586423 0.379551
C19_38 C 0.08714(11) 0.53920(12) 0.34196(11)
C20_38 C 0.05469(11) 0.52049(11) 0.32187(11)
H11_38 H 0.059003 0.496782 0.306070
C21_38 C 0.01523(11) 0.53751(11) 0.32546(11)
C22_38 C 0.20732(10) 0.42911(10) 0.45906(10)
C23_38 C 0.18605(10) 0.45588(10) 0.42824(10)
C24_38 C 0.20647(10) 0.46951(10) 0.39290(10)
H13_38 H 0.234361 0.463172 0.389355
C25_38 C 0.18622(10) 0.49221(10) 0.36302(10)
H14_38 H 0.200226 0.500958 0.339403
C26_38 C 0.14493(10) 0.50187(11) 0.36843(11)
C27_38 C 0.12405(11) 0.48961(11) 0.40388(11)
H15_38 H 0.096322 0.496540 0.407579
C28_38 C 0.14483(11) 0.46699(11) 0.43367(11)
H16_38 H 0.131038 0.459078 0.457699
O10_38 O 0.12694(7) 0.52348(8) 0.33624(7)
C15_38 C 0.96713(10) 0.59272(10) 0.35054(10)
H12_38 H 0.992961 0.524894 0.312220
O6_22 O 0.93798(7) 0.57575(7) 0.33099(7)
O7_22 O 0.96309(6) 0.62551(7) 0.37104(7)
O11_30 O 0.91901(7) 0.67425(7) 0.31202(7)
O12_30 O 0.87551(7) 0.71309(6) 0.37896(7)
C15_39 C 0.03287(10) 0.09272(10) 0.14946(10)
H12_39 H 0.007039 0.024894 0.187780
O6_23 O 0.06202(7) 0.07575(7) 0.16901(7)
O7_23 O 0.03691(6) 0.12551(7) 0.12896(7)
O11_31 O 0.08099(7) 0.17425(7) 0.18798(7)
O12_31 O 0.12449(7) 0.21309(6) 0.12104(7)
C16_39 C 0.99111(10) 0.07302(10) 0.15144(11)
C17_39 C 0.95770(10) 0.09128(11) 0.13109(11)
H9_39 H 0.961843 0.115022 0.115295
C18_39 C 0.91831(11) 0.07436(12) 0.13416(11)
H10_39 H 0.896020 0.086423 0.120449
C19_39 C 0.91286(11) 0.03920(12) 0.15804(11)
C20_39 C 0.94531(11) 0.02049(11) 0.17813(11)
C21_39 C 0.98477(11) 0.03751(11) 0.17454(11)
H14_39 H 0.799774 0.000958 0.160597
C26_39 C 0.85507(10) 0.00187(11) 0.13157(11)
O10_39 O 0.87306(7) 0.02348(8) 0.16376(7)
H11_39 H 0.940997 0.996782 0.193930
C22_39 C 0.79268(10) 0.92911(10) 0.04094(10)
C23_39 C 0.81395(10) 0.95588(10) 0.07176(10)
C24_39 C 0.79353(10) 0.96951(10) 0.10710(10)
H13_39 H 0.765639 0.963172 0.110645
C25_39 C 0.81378(10) 0.99221(10) 0.13698(10)
C27_39 C 0.87595(11) 0.98961(11) 0.09612(11)
H15_39 H 0.903678 0.996540 0.092421
C28_39 C 0.85517(11) 0.96699(11) 0.06633(11)
H16_39 H 0.868962 0.959078 0.042301
C15_40 C 0.53287(10) 0.40728(10) 0.85054(10)
C16_40 C 0.49111(10) 0.42698(10) 0.84856(11)
C17_40 C 0.45770(10) 0.40872(11) 0.86891(11)
H9_40 H 0.461843 0.384978 0.884705
C18_40 C 0.41831(11) 0.42564(12) 0.86584(11)
H10_40 H 0.396020 0.413577 0.879551
C19_40 C 0.41286(11) 0.46080(12) 0.84196(11)
C20_40 C 0.44531(11) 0.47951(11) 0.82187(11)
H11_40 H 0.440997 0.503218 0.806070
C21_40 C 0.48477(11) 0.46249(11) 0.82546(11)
H12_40 H 0.507039 0.475106 0.812220
C22_40 C 0.29268(10) 0.57089(10) 0.95906(10)
C23_40 C 0.31395(10) 0.54412(10) 0.92824(10)
C24_40 C 0.29353(10) 0.53049(10) 0.89290(10)
H13_40 H 0.265639 0.536828 0.889355
C25_40 C 0.31378(10) 0.50779(10) 0.86302(10)
H14_40 H 0.299774 0.499042 0.839403
C26_40 C 0.35507(10) 0.49813(11) 0.86843(11)
C27_40 C 0.37595(11) 0.51039(11) 0.90388(11)
H15_40 H 0.403678 0.503460 0.907579
C28_40 C 0.35517(11) 0.53301(11) 0.93367(11)
H16_40 H 0.368962 0.540922 0.957699
O6_24 O 0.56202(7) 0.42425(7) 0.83099(7)
O7_24 O 0.53691(6) 0.37449(7) 0.87104(7)
O10_40 O 0.37306(7) 0.47652(8) 0.83624(7)
O11_32 O 0.58099(7) 0.32575(7) 0.81202(7)
O12_32 O 0.62449(7) 0.28691(6) 0.87896(7)
O11_33 O 0.68798(7) 0.41901(7) 0.82575(7)
O12_33 O 0.62104(7) 0.37551(7) 0.78691(6)
O11_34 O 0.31202(7) 0.91901(7) 0.67425(7)
O12_34 O 0.37896(7) 0.87551(7) 0.71309(6)
O11_35 O 0.18798(7) 0.08099(7) 0.17425(7)
O12_35 O 0.12104(7) 0.12449(7) 0.21309(6)
O11_36 O 0.81202(7) 0.58099(7) 0.32575(7)
O12_36 O 0.87896(7) 0.62449(7) 0.28691(6)
C1_21 C 0.78287(10) 0.60054(10) 0.34272(10)
C2_21 C 0.74111(10) 0.59856(11) 0.32302(10)
C3_21 C 0.70770(10) 0.61891(11) 0.34128(11)
H1_21 H 0.711843 0.634705 0.365022
C4_21 C 0.66831(11) 0.61584(11) 0.32436(12)
H2_21 H 0.646020 0.629551 0.336423
C5_21 C 0.66286(11) 0.59196(11) 0.28920(12)
C6_21 C 0.69531(11) 0.57187(11) 0.27049(11)
H3_21 H 0.690997 0.556070 0.246782
C7_21 C 0.73477(11) 0.57546(11) 0.28751(11)
H4_21 H 0.757039 0.562220 0.274894
C8_21 C 0.54268(10) 0.70906(10) 0.17911(10)
C9_21 C 0.56395(10) 0.67824(10) 0.20588(10)
C10_21 C 0.54353(10) 0.64290(10) 0.21951(10)
H5_21 H 0.515639 0.639355 0.213172
C11_21 C 0.56378(10) 0.61302(10) 0.24221(10)
H6_21 H 0.549774 0.589403 0.250958
C12_21 C 0.60507(10) 0.61843(11) 0.25187(11)
C13_21 C 0.62595(11) 0.65388(11) 0.23961(11)
H7_21 H 0.653678 0.657579 0.246540
C14_21 C 0.60517(11) 0.68367(11) 0.21699(11)
H8_21 H 0.618962 0.707699 0.209078
O5_21 O 0.62306(7) 0.58624(7) 0.27348(8)
C15_41 C 0.89946(10) 0.65728(10) 0.28287(10)
C16_41 C 0.90144(11) 0.67698(10) 0.24111(10)
C17_41 C 0.88109(11) 0.65872(11) 0.20770(10)
H9_41 H 0.865295 0.634978 0.211843
C18_41 C 0.88416(11) 0.67564(12) 0.16831(11)
H10_41 H 0.870449 0.663577 0.146020
C19_41 C 0.90804(11) 0.71080(12) 0.16286(11)
C20_41 C 0.92813(11) 0.72951(11) 0.19531(11)
H11_41 H 0.943930 0.753218 0.190997
C21_41 C 0.92454(11) 0.71249(11) 0.23477(11)
H12_41 H 0.937780 0.725106 0.257039
C22_41 C 0.79094(10) 0.82089(10) 0.04268(10)
C23_41 C 0.82176(10) 0.79412(10) 0.06395(10)
C24_41 C 0.85710(10) 0.78049(10) 0.04353(10)
H13_41 H 0.860645 0.786828 0.015639
C25_41 C 0.88698(10) 0.75779(10) 0.06378(10)
H14_41 H 0.910597 0.749042 0.049774
C26_41 C 0.88157(11) 0.74813(11) 0.10507(10)
C27_41 C 0.84612(11) 0.76039(11) 0.12595(11)
H15_41 H 0.842421 0.753460 0.153678
C28_41 C 0.81633(11) 0.78301(11) 0.10517(11)
H16_41 H 0.792301 0.790922 0.118962
O10_41 O 0.91376(7) 0.72652(8) 0.12306(7)
C1_22 C 0.71713(10) 0.39946(10) 0.84272(10)
C2_22 C 0.75889(10) 0.40144(11) 0.82302(10)
C3_22 C 0.79230(10) 0.38109(11) 0.84128(11)
H1_22 H 0.788157 0.365295 0.865022
C4_22 C 0.83169(11) 0.38416(11) 0.82436(12)
H2_22 H 0.853980 0.370449 0.836423
C5_22 C 0.83714(11) 0.40804(11) 0.78920(12)
C6_22 C 0.80469(11) 0.42813(11) 0.77049(11)
H3_22 H 0.809003 0.443930 0.746782
C7_22 C 0.76523(11) 0.42454(11) 0.78751(11)
H4_22 H 0.742961 0.437780 0.774894
C8_22 C 0.95732(10) 0.29094(10) 0.67911(10)
C9_22 C 0.93605(10) 0.32176(10) 0.70588(10)
C10_22 C 0.95647(10) 0.35710(10) 0.71951(10)
H5_22 H 0.984361 0.360645 0.713172
C11_22 C 0.93622(10) 0.38698(10) 0.74221(10)
H6_22 H 0.950226 0.410597 0.750958
C12_22 C 0.89493(10) 0.38157(11) 0.75187(11)
C13_22 C 0.87405(11) 0.34612(11) 0.73961(11)
H7_22 H 0.846322 0.342421 0.746540
C14_22 C 0.89483(11) 0.31633(11) 0.71699(11)
H8_22 H 0.881038 0.292301 0.709078
O5_22 O 0.87694(7) 0.41376(7) 0.77348(8)
C15_42 C 0.60054(10) 0.34272(10) 0.78287(10)
C16_42 C 0.59856(11) 0.32302(10) 0.74111(10)
C17_42 C 0.61891(11) 0.34128(11) 0.70770(10)
H9_42 H 0.634705 0.365022 0.711843
C18_42 C 0.61584(11) 0.32436(12) 0.66831(11)
H10_42 H 0.629551 0.336423 0.646020
C19_42 C 0.59196(11) 0.28920(12) 0.66286(11)
C20_42 C 0.57187(11) 0.27049(11) 0.69531(11)
H11_42 H 0.556070 0.246782 0.690997
C21_42 C 0.57546(11) 0.28751(11) 0.73477(11)
H12_42 H 0.562220 0.274894 0.757039
C22_42 C 0.70906(10) 0.17911(10) 0.54268(10)
C23_42 C 0.67824(10) 0.20588(10) 0.56395(10)
C24_42 C 0.64290(10) 0.21951(10) 0.54353(10)
H13_42 H 0.639355 0.213172 0.515639
C25_42 C 0.61302(10) 0.24221(10) 0.56378(10)
H14_42 H 0.589403 0.250958 0.549774
C26_42 C 0.61843(11) 0.25187(11) 0.60507(10)
C27_42 C 0.65388(11) 0.23961(11) 0.62595(11)
H15_42 H 0.657579 0.246540 0.653678
C28_42 C 0.68367(11) 0.21699(11) 0.60517(11)
H16_42 H 0.707699 0.209078 0.618962
O10_42 O 0.58624(7) 0.27348(8) 0.62306(7)
C1_23 C 0.28287(10) 0.89946(10) 0.65728(10)
C2_23 C 0.24111(10) 0.90144(11) 0.67698(10)
C3_23 C 0.20770(10) 0.88109(11) 0.65872(11)
H1_23 H 0.211843 0.865295 0.634978
C4_23 C 0.16831(11) 0.88416(11) 0.67564(12)
H2_23 H 0.146020 0.870449 0.663577
C5_23 C 0.16286(11) 0.90804(11) 0.71080(12)
C6_23 C 0.19531(11) 0.92813(11) 0.72951(11)
H3_23 H 0.190997 0.943930 0.753218
C7_23 C 0.23477(11) 0.92454(11) 0.71249(11)
H4_23 H 0.257039 0.937780 0.725106
C8_23 C 0.04268(10) 0.79094(10) 0.82089(10)
C9_23 C 0.06395(10) 0.82176(10) 0.79412(10)
C10_23 C 0.04353(10) 0.85710(10) 0.78049(10)
H5_23 H 0.015639 0.860645 0.786828
C11_23 C 0.06378(10) 0.88698(10) 0.75779(10)
H6_23 H 0.049774 0.910597 0.749042
C12_23 C 0.10507(10) 0.88157(11) 0.74813(11)
C13_23 C 0.12595(11) 0.84612(11) 0.76039(11)
H7_23 H 0.153678 0.842421 0.753460
C14_23 C 0.10517(11) 0.81633(11) 0.78301(11)
H8_23 H 0.118962 0.792301 0.790922
O5_23 O 0.12306(7) 0.91376(7) 0.72652(8)
C15_43 C 0.39946(10) 0.84272(10) 0.71713(10)
C16_43 C 0.40144(11) 0.82302(10) 0.75889(10)
C17_43 C 0.38109(11) 0.84128(11) 0.79230(10)
H9_43 H 0.365295 0.865022 0.788157
C18_43 C 0.38416(11) 0.82436(12) 0.83169(11)
H10_43 H 0.370449 0.836423 0.853980
C19_43 C 0.40804(11) 0.78920(12) 0.83714(11)
C20_43 C 0.42813(11) 0.77049(11) 0.80469(11)
H11_43 H 0.443930 0.746782 0.809003
C21_43 C 0.42454(11) 0.78751(11) 0.76523(11)
H12_43 H 0.437780 0.774894 0.742961
C22_43 C 0.29094(10) 0.67911(10) 0.95732(10)
C23_43 C 0.32176(10) 0.70588(10) 0.93605(10)
C24_43 C 0.35710(10) 0.71951(10) 0.95647(10)
H13_43 H 0.360645 0.713172 0.984361
C25_43 C 0.38698(10) 0.74221(10) 0.93622(10)
H14_43 H 0.410597 0.750958 0.950226
C26_43 C 0.38157(11) 0.75187(11) 0.89493(10)
C27_43 C 0.34612(11) 0.73961(11) 0.87405(11)
H15_43 H 0.342421 0.746540 0.846322
C28_43 C 0.31633(11) 0.71699(11) 0.89483(11)
H16_43 H 0.292301 0.709078 0.881038
O10_43 O 0.41376(7) 0.77348(8) 0.87694(7)
C1_24 C 0.21713(10) 0.10054(10) 0.15728(10)
C2_24 C 0.25889(10) 0.09856(11) 0.17698(10)
C3_24 C 0.29230(10) 0.11891(11) 0.15872(11)
H1_24 H 0.288157 0.134705 0.134978
C4_24 C 0.33169(11) 0.11584(11) 0.17564(12)
H2_24 H 0.353980 0.129551 0.163577
C5_24 C 0.33714(11) 0.09196(11) 0.21080(12)
C6_24 C 0.30469(11) 0.07187(11) 0.22951(11)
H3_24 H 0.309003 0.056070 0.253218
C7_24 C 0.26523(11) 0.07546(11) 0.21249(11)
H4_24 H 0.242961 0.062220 0.225106
C8_24 C 0.45732(10) 0.20906(10) 0.32089(10)
C9_24 C 0.43605(10) 0.17824(10) 0.29412(10)
C10_24 C 0.45647(10) 0.14290(10) 0.28049(10)
H5_24 H 0.484361 0.139355 0.286828
C11_24 C 0.43622(10) 0.11302(10) 0.25779(10)
H6_24 H 0.450226 0.089403 0.249042
C12_24 C 0.39493(10) 0.11843(11) 0.24813(11)
C13_24 C 0.37405(11) 0.15388(11) 0.26039(11)
H7_24 H 0.346322 0.157579 0.253460
C14_24 C 0.39483(11) 0.18367(11) 0.28301(11)
H8_24 H 0.381038 0.207699 0.290922
O5_24 O 0.37694(7) 0.08624(7) 0.22652(8)
C15_44 C 0.10054(10) 0.15728(10) 0.21713(10)
C16_44 C 0.09856(11) 0.17698(10) 0.25889(10)
C17_44 C 0.11891(11) 0.15872(11) 0.29230(10)
H9_44 H 0.134705 0.134978 0.288157
C18_44 C 0.11584(11) 0.17564(12) 0.33169(11)
H10_44 H 0.129551 0.163577 0.353980
C19_44 C 0.09196(11) 0.21080(12) 0.33714(11)
C20_44 C 0.07187(11) 0.22951(11) 0.30469(11)
H11_44 H 0.056070 0.253218 0.309003
C21_44 C 0.07546(11) 0.21249(11) 0.26523(11)
H12_44 H 0.062220 0.225106 0.242961
C22_44 C 0.20906(10) 0.32089(10) 0.45732(10)
C23_44 C 0.17824(10) 0.29412(10) 0.43605(10)
C24_44 C 0.14290(10) 0.28049(10) 0.45647(10)
H13_44 H 0.139355 0.286828 0.484361
C25_44 C 0.11302(10) 0.25779(10) 0.43622(10)
H14_44 H 0.089403 0.249042 0.450226
C26_44 C 0.11843(11) 0.24813(11) 0.39493(10)
C27_44 C 0.15388(11) 0.26039(11) 0.37405(11)
H15_44 H 0.157579 0.253460 0.346322
C28_44 C 0.18367(11) 0.28301(11) 0.39483(11)
H16_44 H 0.207699 0.290922 0.381038
O10_44 O 0.08624(7) 0.22652(8) 0.37694(7)
C15_45 C 0.15728(10) 0.21713(10) 0.10054(10)
C16_45 C 0.17698(10) 0.25889(10) 0.09856(11)
C17_45 C 0.15872(11) 0.29230(10) 0.11891(11)
H9_45 H 0.134978 0.288157 0.134705
C18_45 C 0.17564(12) 0.33169(11) 0.11584(11)
H10_45 H 0.163577 0.353980 0.129551
C19_45 C 0.21080(12) 0.33714(11) 0.09196(11)
C20_45 C 0.22951(11) 0.30469(11) 0.07187(11)
H11_45 H 0.253218 0.309003 0.056070
C21_45 C 0.21249(11) 0.26523(11) 0.07546(11)
H12_45 H 0.225106 0.242961 0.062220
C22_45 C 0.32089(10) 0.45732(10) 0.20906(10)
C23_45 C 0.29412(10) 0.43605(10) 0.17824(10)
C24_45 C 0.28049(10) 0.45647(10) 0.14290(10)
H13_45 H 0.286828 0.484361 0.139355
C25_45 C 0.25779(10) 0.43622(10) 0.11302(10)
H14_45 H 0.249042 0.450226 0.089403
C26_45 C 0.24813(11) 0.39493(10) 0.11843(11)
C27_45 C 0.26039(11) 0.37405(11) 0.15388(11)
H15_45 H 0.253460 0.346322 0.157579
C28_45 C 0.28301(11) 0.39483(11) 0.18367(11)
H16_45 H 0.290922 0.381038 0.207699
O10_45 O 0.22652(8) 0.37694(7) 0.08624(7)
C15_46 C 0.84272(10) 0.71713(10) 0.39946(10)
C16_46 C 0.82302(10) 0.75889(10) 0.40144(11)
C17_46 C 0.84128(11) 0.79230(10) 0.38109(11)
H9_46 H 0.865022 0.788157 0.365295
C18_46 C 0.82436(12) 0.83169(11) 0.38416(11)
H10_46 H 0.836423 0.853980 0.370449
C19_46 C 0.78920(12) 0.83714(11) 0.40804(11)
C20_46 C 0.77049(11) 0.80469(11) 0.42813(11)
H11_46 H 0.746782 0.809003 0.443930
C21_46 C 0.78751(11) 0.76523(11) 0.42454(11)
H12_46 H 0.774894 0.742961 0.437780
C22_46 C 0.67911(10) 0.95732(10) 0.29094(10)
C23_46 C 0.70588(10) 0.93605(10) 0.32176(10)
C24_46 C 0.71951(10) 0.95647(10) 0.35710(10)
H13_46 H 0.713172 0.984361 0.360645
C25_46 C 0.74221(10) 0.93622(10) 0.38698(10)
H14_46 H 0.750958 0.950226 0.410597
C26_46 C 0.75187(11) 0.89493(10) 0.38157(11)
C27_46 C 0.73961(11) 0.87405(11) 0.34612(11)
H15_46 H 0.746540 0.846322 0.342421
C28_46 C 0.71699(11) 0.89483(11) 0.31633(11)
H16_46 H 0.709078 0.881038 0.292301
O10_46 O 0.77348(8) 0.87694(7) 0.41376(7)
C15_47 C 0.34272(10) 0.78287(10) 0.60054(10)
C16_47 C 0.32302(10) 0.74111(10) 0.59856(11)
C17_47 C 0.34128(11) 0.70770(10) 0.61891(11)
H9_47 H 0.365022 0.711843 0.634705
C18_47 C 0.32436(12) 0.66831(11) 0.61584(11)
H10_47 H 0.336423 0.646020 0.629551
C19_47 C 0.28920(12) 0.66286(11) 0.59196(11)
C20_47 C 0.27049(11) 0.69531(11) 0.57187(11)
H11_47 H 0.246782 0.690997 0.556070
C21_47 C 0.28751(11) 0.73477(11) 0.57546(11)
H12_47 H 0.274894 0.757039 0.562220
C22_47 C 0.17911(10) 0.54268(10) 0.70906(10)
C23_47 C 0.20588(10) 0.56395(10) 0.67824(10)
C24_47 C 0.21951(10) 0.54353(10) 0.64290(10)
H13_47 H 0.213172 0.515639 0.639355
C25_47 C 0.24221(10) 0.56378(10) 0.61302(10)
H14_47 H 0.250958 0.549774 0.589403
C26_47 C 0.25187(11) 0.60507(10) 0.61843(11)
C27_47 C 0.23961(11) 0.62595(11) 0.65388(11)
H15_47 H 0.246540 0.653678 0.657579
C28_47 C 0.21699(11) 0.60517(11) 0.68367(11)
H16_47 H 0.209078 0.618962 0.707699
O10_47 O 0.27348(8) 0.62306(7) 0.58624(7)
C15_48 C 0.65728(10) 0.28287(10) 0.89946(10)
C16_48 C 0.67698(10) 0.24111(10) 0.90144(11)
C17_48 C 0.65872(11) 0.20770(10) 0.88109(11)
H9_48 H 0.634978 0.211843 0.865295
C18_48 C 0.67564(12) 0.16831(11) 0.88416(11)
H10_48 H 0.663577 0.146020 0.870449
C19_48 C 0.71080(12) 0.16286(11) 0.90804(11)
C20_48 C 0.72951(11) 0.19531(11) 0.92813(11)
H11_48 H 0.753218 0.190997 0.943930
C21_48 C 0.71249(11) 0.23477(11) 0.92454(11)
H12_48 H 0.725106 0.257039 0.937780
C22_48 C 0.82089(10) 0.04268(10) 0.79094(10)
C23_48 C 0.79412(10) 0.06395(10) 0.82176(10)
C24_48 C 0.78049(10) 0.04353(10) 0.85710(10)
H13_48 H 0.786828 0.015639 0.860645
C25_48 C 0.75779(10) 0.06378(10) 0.88698(10)
H14_48 H 0.749042 0.049774 0.910597
C26_48 C 0.74813(11) 0.10507(10) 0.88157(11)
C27_48 C 0.76039(11) 0.12595(11) 0.84612(11)
H15_48 H 0.753460 0.153678 0.842421
C28_48 C 0.78301(11) 0.10517(11) 0.81633(11)
H16_48 H 0.790922 0.118962 0.792301
O10_48 O 0.72652(8) 0.12306(7) 0.91376(7)
C16_49 C 0.42698(10) 0.15144(11) 0.00889(10)
C17_49 C 0.40872(11) 0.13109(11) 0.04230(10)
H9_49 H 0.384978 0.115295 0.038157
C18_49 C 0.42564(12) 0.13416(11) 0.08169(11)
H10_49 H 0.413577 0.120449 0.103980
C19_49 C 0.46080(12) 0.15804(11) 0.08714(11)
C20_49 C 0.47951(11) 0.17813(11) 0.05469(11)
H11_49 H 0.503218 0.193930 0.059003
C21_49 C 0.46249(11) 0.17454(11) 0.01523(11)
C22_49 C 0.57089(10) 0.04094(10) 0.20732(10)
C23_49 C 0.54412(10) 0.07176(10) 0.18605(10)
C24_49 C 0.53049(10) 0.10710(10) 0.20647(10)
H13_49 H 0.536828 0.110645 0.234361
C25_49 C 0.50779(10) 0.13698(10) 0.18622(10)
H14_49 H 0.499042 0.160597 0.200226
C26_49 C 0.49813(11) 0.13157(11) 0.14493(10)
C27_49 C 0.51039(11) 0.09612(11) 0.12405(11)
H15_49 H 0.503460 0.092421 0.096322
C28_49 C 0.53301(11) 0.06633(11) 0.14483(11)
H16_49 H 0.540922 0.042301 0.131038
O10_49 O 0.47652(8) 0.16376(7) 0.12694(7)
C1_25 C 0.35054(10) 0.03287(10) 0.90728(10)
H4_25 H 0.312220 0.007039 0.975106
O1_13 O 0.33099(7) 0.06202(7) 0.92425(7)
O2_13 O 0.37104(7) 0.03691(6) 0.87449(7)
C15_49 C 0.40728(10) 0.14946(10) 0.96713(10)
H12_49 H 0.475106 0.187780 0.992961
O6_25 O 0.42425(7) 0.16901(7) 0.93798(7)
O7_25 O 0.37449(7) 0.12896(7) 0.96309(6)
O11_37 O 0.32575(7) 0.18798(7) 0.91901(7)
O12_37 O 0.28691(6) 0.12104(7) 0.87551(7)
H3_25 H 0.306070 0.940997 0.003218
C8_25 C 0.45906(10) 0.79268(10) 0.07089(10)
C9_25 C 0.42824(10) 0.81395(10) 0.04412(10)
C10_25 C 0.39290(10) 0.79353(10) 0.03049(10)
H5_25 H 0.389355 0.765639 0.036828
C11_25 C 0.36302(10) 0.81378(10) 0.00779(10)
C13_25 C 0.40388(11) 0.87595(11) 0.01039(11)
H7_25 H 0.407579 0.903678 0.003460
C14_25 C 0.43367(11) 0.85517(11) 0.03301(11)
H8_25 H 0.457699 0.868962 0.040922
C2_25 C 0.34856(11) 0.99111(10) 0.92698(10)
C3_25 C 0.36891(11) 0.95770(10) 0.90872(11)
H1_25 H 0.384705 0.961843 0.884978
C4_25 C 0.36584(11) 0.91831(11) 0.92564(12)
H2_25 H 0.379551 0.896020 0.913577
C5_25 C 0.34196(11) 0.91286(11) 0.96080(12)
C6_25 C 0.32187(11) 0.94531(11) 0.97951(11)
C7_25 C 0.32546(11) 0.98477(11) 0.96249(11)
H6_25 H 0.339403 0.799774 0.999042
C12_25 C 0.36843(11) 0.85507(10) 0.99813(11)
O5_25 O 0.33624(7) 0.87306(7) 0.97652(8)
C2_26 C 0.15144(11) 0.00889(10) 0.42698(10)
C3_26 C 0.13109(11) 0.04230(10) 0.40872(11)
H1_26 H 0.115295 0.038157 0.384978
C4_26 C 0.13416(11) 0.08169(11) 0.42564(12)
H2_26 H 0.120449 0.103980 0.413577
C5_26 C 0.15804(11) 0.08714(11) 0.46080(12)
C6_26 C 0.17813(11) 0.05469(11) 0.47951(11)
H3_26 H 0.193930 0.059003 0.503218
C7_26 C 0.17454(11) 0.01523(11) 0.46249(11)
C8_26 C 0.04094(10) 0.20732(10) 0.57089(10)
C9_26 C 0.07176(10) 0.18605(10) 0.54412(10)
C10_26 C 0.10710(10) 0.20647(10) 0.53049(10)
H5_26 H 0.110645 0.234361 0.536828
C11_26 C 0.13698(10) 0.18622(10) 0.50779(10)
H6_26 H 0.160597 0.200226 0.499042
C12_26 C 0.13157(11) 0.14493(10) 0.49813(11)
C13_26 C 0.09612(11) 0.12405(11) 0.51039(11)
H7_26 H 0.092421 0.096322 0.503460
C14_26 C 0.06633(11) 0.14483(11) 0.53301(11)
H8_26 H 0.042301 0.131038 0.540922
O5_26 O 0.16376(7) 0.12694(7) 0.47652(8)
C1_26 C 0.14946(10) 0.96713(10) 0.40728(10)
H4_26 H 0.187780 0.992961 0.475106
O1_14 O 0.16901(7) 0.93798(7) 0.42425(7)
O2_14 O 0.12896(7) 0.96309(6) 0.37449(7)
C15_50 C 0.09272(10) 0.85054(10) 0.46713(10)
C16_50 C 0.07302(10) 0.84856(11) 0.50889(10)
C17_50 C 0.09128(11) 0.86891(11) 0.54230(10)
H9_50 H 0.115022 0.884705 0.538157
C18_50 C 0.07436(12) 0.86584(11) 0.58169(11)
H10_50 H 0.086423 0.879551 0.603980
C19_50 C 0.03920(12) 0.84196(11) 0.58714(11)
C20_50 C 0.02049(11) 0.82187(11) 0.55469(11)
C21_50 C 0.03751(11) 0.82546(11) 0.51523(11)
H12_50 H 0.024894 0.812220 0.492961
H14_50 H 0.000958 0.839403 0.700226
C26_50 C 0.00187(11) 0.86843(11) 0.64493(10)
O6_26 O 0.07575(7) 0.83099(7) 0.43798(7)
O7_26 O 0.12551(7) 0.87104(7) 0.46309(6)
O10_50 O 0.02348(8) 0.83624(7) 0.62694(7)
O11_38 O 0.17425(7) 0.81202(7) 0.41901(7)
O12_38 O 0.21309(6) 0.87896(7) 0.37551(7)
H11_50 H 0.996782 0.806070 0.559003
C22_50 C 0.92911(10) 0.95906(10) 0.70732(10)
C23_50 C 0.95588(10) 0.92824(10) 0.68605(10)
C24_50 C 0.96951(10) 0.89290(10) 0.70647(10)
H13_50 H 0.963172 0.889355 0.734361
C25_50 C 0.99221(10) 0.86302(10) 0.68622(10)
C27_50 C 0.98961(11) 0.90388(11) 0.62405(11)
H15_50 H 0.996540 0.907579 0.596322
C28_50 C 0.96699(11) 0.93367(11) 0.64483(11)
H16_50 H 0.959078 0.957699 0.631038
C1_27 C 0.64946(10) 0.53287(10) 0.59272(10)
C2_27 C 0.65144(11) 0.49111(10) 0.57302(10)
C3_27 C 0.63109(11) 0.45770(10) 0.59128(11)
H1_27 H 0.615295 0.461843 0.615022
C4_27 C 0.63416(11) 0.41831(11) 0.57436(12)
H2_27 H 0.620449 0.396020 0.586423
C5_27 C 0.65804(11) 0.41286(11) 0.53920(12)
C6_27 C 0.67813(11) 0.44531(11) 0.52049(11)
H3_27 H 0.693930 0.440997 0.496782
C7_27 C 0.67454(11) 0.48477(11) 0.53751(11)
H4_27 H 0.687780 0.507039 0.524894
C8_27 C 0.54094(10) 0.29268(10) 0.42911(10)
C9_27 C 0.57176(10) 0.31395(10) 0.45588(10)
C10_27 C 0.60710(10) 0.29353(10) 0.46951(10)
H5_27 H 0.610645 0.265639 0.463172
C11_27 C 0.63698(10) 0.31378(10) 0.49221(10)
H6_27 H 0.660597 0.299774 0.500958
C12_27 C 0.63157(11) 0.35507(10) 0.50187(11)
C13_27 C 0.59612(11) 0.37595(11) 0.48961(11)
H7_27 H 0.592421 0.403678 0.496540
C14_27 C 0.56633(11) 0.35517(11) 0.46699(11)
H8_27 H 0.542301 0.368962 0.459078
O1_15 O 0.66901(7) 0.56202(7) 0.57575(7)
O2_15 O 0.62896(7) 0.53691(6) 0.62551(7)
O5_27 O 0.66376(7) 0.37306(7) 0.52348(8)
C15_51 C 0.59272(10) 0.64946(10) 0.53287(10)
C16_51 C 0.57302(10) 0.65144(11) 0.49111(10)
C17_51 C 0.59128(11) 0.63109(11) 0.45770(10)
H9_51 H 0.615022 0.615295 0.461843
C18_51 C 0.57436(12) 0.63416(11) 0.41831(11)
H10_51 H 0.586423 0.620449 0.396020
C19_51 C 0.53920(12) 0.65804(11) 0.41286(11)
C20_51 C 0.52049(11) 0.67813(11) 0.44531(11)
H11_51 H 0.496782 0.693930 0.440997
C21_51 C 0.53751(11) 0.67454(11) 0.48477(11)
H12_51 H 0.524894 0.687780 0.507039
C22_51 C 0.42911(10) 0.54094(10) 0.29268(10)
C23_51 C 0.45588(10) 0.57176(10) 0.31395(10)
C24_51 C 0.46951(10) 0.60710(10) 0.29353(10)
H13_51 H 0.463172 0.610645 0.265639
C25_51 C 0.49221(10) 0.63698(10) 0.31378(10)
H14_51 H 0.500958 0.660597 0.299774
C26_51 C 0.50187(11) 0.63157(11) 0.35507(10)
C27_51 C 0.48961(11) 0.59612(11) 0.37595(11)
H15_51 H 0.496540 0.592421 0.403678
C28_51 C 0.46699(11) 0.56633(11) 0.35517(11)
H16_51 H 0.459078 0.542301 0.368962
O6_27 O 0.57575(7) 0.66901(7) 0.56202(7)
O7_27 O 0.62551(7) 0.62896(7) 0.53691(6)
O10_51 O 0.52348(8) 0.66376(7) 0.37306(7)
O11_39 O 0.67425(7) 0.68798(7) 0.58099(7)
O12_39 O 0.71309(6) 0.62104(7) 0.62449(7)
H11_52 H 0.003218 0.306070 0.940997
C22_52 C 0.07089(10) 0.45906(10) 0.79268(10)
C23_52 C 0.04412(10) 0.42824(10) 0.81395(10)
C24_52 C 0.03049(10) 0.39290(10) 0.79353(10)
H13_52 H 0.036828 0.389355 0.765639
C25_52 C 0.00779(10) 0.36302(10) 0.81378(10)
C27_52 C 0.01039(11) 0.40388(11) 0.87595(11)
H15_52 H 0.003460 0.407579 0.903678
C28_52 C 0.03301(11) 0.43367(11) 0.85517(11)
H16_52 H 0.040922 0.457699 0.868962
C1_28 C 0.85054(10) 0.46713(10) 0.09272(10)
C2_28 C 0.84856(11) 0.50889(10) 0.07302(10)
C3_28 C 0.86891(11) 0.54230(10) 0.09128(11)
H1_28 H 0.884705 0.538157 0.115022
C4_28 C 0.86584(11) 0.58169(11) 0.07436(12)
H2_28 H 0.879551 0.603980 0.086423
C5_28 C 0.84196(11) 0.58714(11) 0.03920(12)
C6_28 C 0.82187(11) 0.55469(11) 0.02049(11)
C7_28 C 0.82546(11) 0.51523(11) 0.03751(11)
H4_28 H 0.812220 0.492961 0.024894
H6_28 H 0.839403 0.700226 0.000958
C12_28 C 0.86843(11) 0.64493(10) 0.00187(11)
O1_16 O 0.83099(7) 0.43798(7) 0.07575(7)
O2_16 O 0.87104(7) 0.46309(6) 0.12551(7)
O5_28 O 0.83624(7) 0.62694(7) 0.02348(8)
C15_52 C 0.90728(10) 0.35054(10) 0.03287(10)
H12_52 H 0.975106 0.312220 0.007039
O6_28 O 0.92425(7) 0.33099(7) 0.06202(7)
O7_28 O 0.87449(7) 0.37104(7) 0.03691(6)
O11_40 O 0.82575(7) 0.31202(7) 0.08099(7)
O12_40 O 0.78691(6) 0.37896(7) 0.12449(7)
H3_28 H 0.806070 0.559003 0.996782
C8_28 C 0.95906(10) 0.70732(10) 0.92911(10)
C9_28 C 0.92824(10) 0.68605(10) 0.95588(10)
C10_28 C 0.89290(10) 0.70647(10) 0.96951(10)
H5_28 H 0.889355 0.734361 0.963172
C11_28 C 0.86302(10) 0.68622(10) 0.99221(10)
C13_28 C 0.90388(11) 0.62405(11) 0.98961(11)
H7_28 H 0.907579 0.596322 0.996540
C14_28 C 0.93367(11) 0.64483(11) 0.96699(11)
H8_28 H 0.957699 0.631038 0.959078
C16_52 C 0.92698(10) 0.34856(11) 0.99111(10)
C17_52 C 0.90872(11) 0.36891(11) 0.95770(10)
H9_52 H 0.884978 0.384705 0.961843
C18_52 C 0.92564(12) 0.36584(11) 0.91831(11)
H10_52 H 0.913577 0.379551 0.896020
C19_52 C 0.96080(12) 0.34196(11) 0.91286(11)
C20_52 C 0.97951(11) 0.32187(11) 0.94531(11)
C21_52 C 0.96249(11) 0.32546(11) 0.98477(11)
H14_52 H 0.999042 0.339403 0.799774
C26_52 C 0.99813(11) 0.36843(11) 0.85507(10)
O10_52 O 0.97652(8) 0.33624(7) 0.87306(7)
C16_53 C 0.00889(10) 0.42698(10) 0.15144(11)
C17_53 C 0.04230(10) 0.40872(11) 0.13109(11)
H9_53 H 0.038157 0.384978 0.115295
C18_53 C 0.08169(11) 0.42564(12) 0.13416(11)
H10_53 H 0.103980 0.413577 0.120449
C19_53 C 0.08714(11) 0.46080(12) 0.15804(11)
C20_53 C 0.05469(11) 0.47951(11) 0.17813(11)
H11_53 H 0.059003 0.503218 0.193930
C21_53 C 0.01523(11) 0.46249(11) 0.17454(11)
C22_53 C 0.20732(10) 0.57089(10) 0.04094(10)
C23_53 C 0.18605(10) 0.54412(10) 0.07176(10)
C24_53 C 0.20647(10) 0.53049(10) 0.10710(10)
H13_53 H 0.234361 0.536828 0.110645
C25_53 C 0.18622(10) 0.50779(10) 0.13698(10)
H14_53 H 0.200226 0.499042 0.160597
C26_53 C 0.14493(10) 0.49813(11) 0.13157(11)
C27_53 C 0.12405(11) 0.51039(11) 0.09612(11)
H15_53 H 0.096322 0.503460 0.092421
C28_53 C 0.14483(11) 0.53301(11) 0.06633(11)
H16_53 H 0.131038 0.540922 0.042301
O10_53 O 0.12694(7) 0.47652(8) 0.16376(7)
C15_53 C 0.96713(10) 0.40728(10) 0.14946(10)
H12_53 H 0.992961 0.475106 0.187780
O6_29 O 0.93798(7) 0.42425(7) 0.16901(7)
O7_29 O 0.96309(6) 0.37449(7) 0.12896(7)
O11_41 O 0.91901(7) 0.32575(7) 0.18798(7)
O12_41 O 0.87551(7) 0.28691(6) 0.12104(7)
C15_54 C 0.46713(10) 0.09272(10) 0.85054(10)
C16_54 C 0.50889(10) 0.07302(10) 0.84856(11)
C17_54 C 0.54230(10) 0.09128(11) 0.86891(11)
H9_54 H 0.538157 0.115022 0.884705
C18_54 C 0.58169(11) 0.07436(12) 0.86584(11)
H10_54 H 0.603980 0.086423 0.879551
C19_54 C 0.58714(11) 0.03920(12) 0.84196(11)
C20_54 C 0.55469(11) 0.02049(11) 0.82187(11)
C21_54 C 0.51523(11) 0.03751(11) 0.82546(11)
H12_54 H 0.492961 0.024894 0.812220
H14_54 H 0.700226 0.000958 0.839403
C26_54 C 0.64493(10) 0.00187(11) 0.86843(11)
O6_30 O 0.43798(7) 0.07575(7) 0.83099(7)
O7_30 O 0.46309(6) 0.12551(7) 0.87104(7)
O10_54 O 0.62694(7) 0.02348(8) 0.83624(7)
O11_42 O 0.41901(7) 0.17425(7) 0.81202(7)
O12_42 O 0.37551(7) 0.21309(6) 0.87896(7)
H11_54 H 0.559003 0.996782 0.806070
C22_54 C 0.70732(10) 0.92911(10) 0.95906(10)
C23_54 C 0.68605(10) 0.95588(10) 0.92824(10)
C24_54 C 0.70647(10) 0.96951(10) 0.89290(10)
H13_54 H 0.734361 0.963172 0.889355
C25_54 C 0.68622(10) 0.99221(10) 0.86302(10)
C27_54 C 0.62405(11) 0.98961(11) 0.90388(11)
H15_54 H 0.596322 0.996540 0.907579
C28_54 C 0.64483(11) 0.96699(11) 0.93367(11)
H16_54 H 0.631038 0.959078 0.957699
C15_55 C 0.53287(10) 0.59272(10) 0.64946(10)
C16_55 C 0.49111(10) 0.57302(10) 0.65144(11)
C17_55 C 0.45770(10) 0.59128(11) 0.63109(11)
H9_55 H 0.461843 0.615022 0.615295
C18_55 C 0.41831(11) 0.57436(12) 0.63416(11)
H10_55 H 0.396020 0.586423 0.620449
C19_55 C 0.41286(11) 0.53920(12) 0.65804(11)
C20_55 C 0.44531(11) 0.52049(11) 0.67813(11)
H11_55 H 0.440997 0.496782 0.693930
C21_55 C 0.48477(11) 0.53751(11) 0.67454(11)
H12_55 H 0.507039 0.524894 0.687780
C22_55 C 0.29268(10) 0.42911(10) 0.54094(10)
C23_55 C 0.31395(10) 0.45588(10) 0.57176(10)
C24_55 C 0.29353(10) 0.46951(10) 0.60710(10)
H13_55 H 0.265639 0.463172 0.610645
C25_55 C 0.31378(10) 0.49221(10) 0.63698(10)
H14_55 H 0.299774 0.500958 0.660597
C26_55 C 0.35507(10) 0.50187(11) 0.63157(11)
C27_55 C 0.37595(11) 0.48961(11) 0.59612(11)
H15_55 H 0.403678 0.496540 0.592421
C28_55 C 0.35517(11) 0.46699(11) 0.56633(11)
H16_55 H 0.368962 0.459078 0.542301
O6_31 O 0.56202(7) 0.57575(7) 0.66901(7)
O7_31 O 0.53691(6) 0.62551(7) 0.62896(7)
O10_55 O 0.37306(7) 0.52348(8) 0.66376(7)
O11_43 O 0.58099(7) 0.67425(7) 0.68798(7)
O12_43 O 0.62449(7) 0.71309(6) 0.62104(7)
C15_56 C 0.03287(10) 0.90728(10) 0.35054(10)
H12_56 H 0.007039 0.975106 0.312220
O6_32 O 0.06202(7) 0.92425(7) 0.33099(7)
O7_32 O 0.03691(6) 0.87449(7) 0.37104(7)
O11_44 O 0.08099(7) 0.82575(7) 0.31202(7)
O12_44 O 0.12449(7) 0.78691(6) 0.37896(7)
H11_56 H 0.940997 0.003218 0.306070
C22_56 C 0.79268(10) 0.07089(10) 0.45906(10)
C23_56 C 0.81395(10) 0.04412(10) 0.42824(10)
C24_56 C 0.79353(10) 0.03049(10) 0.39290(10)
H13_56 H 0.765639 0.036828 0.389355
C25_56 C 0.81378(10) 0.00779(10) 0.36302(10)
C27_56 C 0.87595(11) 0.01039(11) 0.40388(11)
H15_56 H 0.903678 0.003460 0.407579
C28_56 C 0.85517(11) 0.03301(11) 0.43367(11)
H16_56 H 0.868962 0.040922 0.457699
C16_56 C 0.99111(10) 0.92698(10) 0.34856(11)
C17_56 C 0.95770(10) 0.90872(11) 0.36891(11)
H9_56 H 0.961843 0.884978 0.384705
C18_56 C 0.91831(11) 0.92564(12) 0.36584(11)
H10_56 H 0.896020 0.913577 0.379551
C19_56 C 0.91286(11) 0.96080(12) 0.34196(11)
C20_56 C 0.94531(11) 0.97951(11) 0.32187(11)
C21_56 C 0.98477(11) 0.96249(11) 0.32546(11)
H14_56 H 0.799774 0.999042 0.339403
C26_56 C 0.85507(10) 0.99813(11) 0.36843(11)
O10_56 O 0.87306(7) 0.97652(8) 0.33624(7)
O11_45 O 0.18798(7) 0.91901(7) 0.32575(7)
O12_45 O 0.12104(7) 0.87551(7) 0.28691(6)
O11_46 O 0.81202(7) 0.41901(7) 0.17425(7)
O12_46 O 0.87896(7) 0.37551(7) 0.21309(6)
O11_47 O 0.68798(7) 0.58099(7) 0.67425(7)
O12_47 O 0.62104(7) 0.62449(7) 0.71309(6)
O11_48 O 0.31202(7) 0.08099(7) 0.82575(7)
O12_48 O 0.37896(7) 0.12449(7) 0.78691(6)
C1_29 C 0.28287(10) 0.10054(10) 0.84272(10)
C2_29 C 0.24111(10) 0.09856(11) 0.82302(10)
C3_29 C 0.20770(10) 0.11891(11) 0.84128(11)
H1_29 H 0.211843 0.134705 0.865022
C4_29 C 0.16831(11) 0.11584(11) 0.82436(12)
H2_29 H 0.146020 0.129551 0.836423
C5_29 C 0.16286(11) 0.09196(11) 0.78920(12)
C6_29 C 0.19531(11) 0.07187(11) 0.77049(11)
H3_29 H 0.190997 0.056070 0.746782
C7_29 C 0.23477(11) 0.07546(11) 0.78751(11)
H4_29 H 0.257039 0.062220 0.774894
C8_29 C 0.04268(10) 0.20906(10) 0.67911(10)
C9_29 C 0.06395(10) 0.17824(10) 0.70588(10)
C10_29 C 0.04353(10) 0.14290(10) 0.71951(10)
H5_29 H 0.015639 0.139355 0.713172
C11_29 C 0.06378(10) 0.11302(10) 0.74221(10)
H6_29 H 0.049774 0.089403 0.750958
C12_29 C 0.10507(10) 0.11843(11) 0.75187(11)
C13_29 C 0.12595(11) 0.15388(11) 0.73961(11)
H7_29 H 0.153678 0.157579 0.746540
C14_29 C 0.10517(11) 0.18367(11) 0.71699(11)
H8_29 H 0.118962 0.207699 0.709078
O5_29 O 0.12306(7) 0.08624(7) 0.77348(8)
C15_57 C 0.39946(10) 0.15728(10) 0.78287(10)
C16_57 C 0.40144(11) 0.17698(10) 0.74111(10)
C17_57 C 0.38109(11) 0.15872(11) 0.70770(10)
H9_57 H 0.365295 0.134978 0.711843
C18_57 C 0.38416(11) 0.17564(12) 0.66831(11)
H10_57 H 0.370449 0.163577 0.646020
C19_57 C 0.40804(11) 0.21080(12) 0.66286(11)
C20_57 C 0.42813(11) 0.22951(11) 0.69531(11)
H11_57 H 0.443930 0.253218 0.690997
C21_57 C 0.42454(11) 0.21249(11) 0.73477(11)
H12_57 H 0.437780 0.225106 0.757039
C22_57 C 0.29094(10) 0.32089(10) 0.54268(10)
C23_57 C 0.32176(10) 0.29412(10) 0.56395(10)
C24_57 C 0.35710(10) 0.28049(10) 0.54353(10)
H13_57 H 0.360645 0.286828 0.515639
C25_57 C 0.38698(10) 0.25779(10) 0.56378(10)
H14_57 H 0.410597 0.249042 0.549774
C26_57 C 0.38157(11) 0.24813(11) 0.60507(10)
C27_57 C 0.34612(11) 0.26039(11) 0.62595(11)
H15_57 H 0.342421 0.253460 0.653678
C28_57 C 0.31633(11) 0.28301(11) 0.60517(11)
H16_57 H 0.292301 0.290922 0.618962
O10_57 O 0.41376(7) 0.22652(8) 0.62306(7)
C1_30 C 0.21713(10) 0.89946(10) 0.34272(10)
C2_30 C 0.25889(10) 0.90144(11) 0.32302(10)
C3_30 C 0.29230(10) 0.88109(11) 0.34128(11)
H1_30 H 0.288157 0.865295 0.365022
C4_30 C 0.33169(11) 0.88416(11) 0.32436(12)
H2_30 H 0.353980 0.870449 0.336423
C5_30 C 0.33714(11) 0.90804(11) 0.28920(12)
C6_30 C 0.30469(11) 0.92813(11) 0.27049(11)
H3_30 H 0.309003 0.943930 0.246782
C7_30 C 0.26523(11) 0.92454(11) 0.28751(11)
H4_30 H 0.242961 0.937780 0.274894
C8_30 C 0.45732(10) 0.79094(10) 0.17911(10)
C9_30 C 0.43605(10) 0.82176(10) 0.20588(10)
C10_30 C 0.45647(10) 0.85710(10) 0.21951(10)
H5_30 H 0.484361 0.860645 0.213172
C11_30 C 0.43622(10) 0.88698(10) 0.24221(10)
H6_30 H 0.450226 0.910597 0.250958
C12_30 C 0.39493(10) 0.88157(11) 0.25187(11)
C13_30 C 0.37405(11) 0.84612(11) 0.23961(11)
H7_30 H 0.346322 0.842421 0.246540
C14_30 C 0.39483(11) 0.81633(11) 0.21699(11)
H8_30 H 0.381038 0.792301 0.209078
O5_30 O 0.37694(7) 0.91376(7) 0.27348(8)
C15_58 C 0.10054(10) 0.84272(10) 0.28287(10)
C16_58 C 0.09856(11) 0.82302(10) 0.24111(10)
C17_58 C 0.11891(11) 0.84128(11) 0.20770(10)
H9_58 H 0.134705 0.865022 0.211843
C18_58 C 0.11584(11) 0.82436(12) 0.16831(11)
H10_58 H 0.129551 0.836423 0.146020
C19_58 C 0.09196(11) 0.78920(12) 0.16286(11)
C20_58 C 0.07187(11) 0.77049(11) 0.19531(11)
H11_58 H 0.056070 0.746782 0.190997
C21_58 C 0.07546(11) 0.78751(11) 0.23477(11)
H12_58 H 0.062220 0.774894 0.257039
C22_58 C 0.20906(10) 0.67911(10) 0.04268(10)
C23_58 C 0.17824(10) 0.70588(10) 0.06395(10)
C24_58 C 0.14290(10) 0.71951(10) 0.04353(10)
H13_58 H 0.139355 0.713172 0.015639
C25_58 C 0.11302(10) 0.74221(10) 0.06378(10)
H14_58 H 0.089403 0.750958 0.049774
C26_58 C 0.11843(11) 0.75187(11) 0.10507(10)
C27_58 C 0.15388(11) 0.73961(11) 0.12595(11)
H15_58 H 0.157579 0.746540 0.153678
C28_58 C 0.18367(11) 0.71699(11) 0.10517(11)
H16_58 H 0.207699 0.709078 0.118962
O10_58 O 0.08624(7) 0.77348(8) 0.12306(7)
C1_31 C 0.78287(10) 0.39946(10) 0.15728(10)
C2_31 C 0.74111(10) 0.40144(11) 0.17698(10)
C3_31 C 0.70770(10) 0.38109(11) 0.15872(11)
H1_31 H 0.711843 0.365295 0.134978
C4_31 C 0.66831(11) 0.38416(11) 0.17564(12)
H2_31 H 0.646020 0.370449 0.163577
C5_31 C 0.66286(11) 0.40804(11) 0.21080(12)
C6_31 C 0.69531(11) 0.42813(11) 0.22951(11)
H3_31 H 0.690997 0.443930 0.253218
C7_31 C 0.73477(11) 0.42454(11) 0.21249(11)
H4_31 H 0.757039 0.437780 0.225106
C8_31 C 0.54268(10) 0.29094(10) 0.32089(10)
C9_31 C 0.56395(10) 0.32176(10) 0.29412(10)
C10_31 C 0.54353(10) 0.35710(10) 0.28049(10)
H5_31 H 0.515639 0.360645 0.286828
C11_31 C 0.56378(10) 0.38698(10) 0.25779(10)
H6_31 H 0.549774 0.410597 0.249042
C12_31 C 0.60507(10) 0.38157(11) 0.24813(11)
C13_31 C 0.62595(11) 0.34612(11) 0.26039(11)
H7_31 H 0.653678 0.342421 0.253460
C14_31 C 0.60517(11) 0.31633(11) 0.28301(11)
H8_31 H 0.618962 0.292301 0.290922
O5_31 O 0.62306(7) 0.41376(7) 0.22652(8)
C15_59 C 0.89946(10) 0.34272(10) 0.21713(10)
C16_59 C 0.90144(11) 0.32302(10) 0.25889(10)
C17_59 C 0.88109(11) 0.34128(11) 0.29230(10)
H9_59 H 0.865295 0.365022 0.288157
C18_59 C 0.88416(11) 0.32436(12) 0.33169(11)
H10_59 H 0.870449 0.336423 0.353980
C19_59 C 0.90804(11) 0.28920(12) 0.33714(11)
C20_59 C 0.92813(11) 0.27049(11) 0.30469(11)
H11_59 H 0.943930 0.246782 0.309003
C21_59 C 0.92454(11) 0.28751(11) 0.26523(11)
H12_59 H 0.937780 0.274894 0.242961
C22_59 C 0.79094(10) 0.17911(10) 0.45732(10)
C23_59 C 0.82176(10) 0.20588(10) 0.43605(10)
C24_59 C 0.85710(10) 0.21951(10) 0.45647(10)
H13_59 H 0.860645 0.213172 0.484361
C25_59 C 0.88698(10) 0.24221(10) 0.43622(10)
H14_59 H 0.910597 0.250958 0.450226
C26_59 C 0.88157(11) 0.25187(11) 0.39493(10)
C27_59 C 0.84612(11) 0.23961(11) 0.37405(11)
H15_59 H 0.842421 0.246540 0.346322
C28_59 C 0.81633(11) 0.21699(11) 0.39483(11)
H16_59 H 0.792301 0.209078 0.381038
O10_59 O 0.91376(7) 0.27348(8) 0.37694(7)
C1_32 C 0.71713(10) 0.60054(10) 0.65728(10)
C2_32 C 0.75889(10) 0.59856(11) 0.67698(10)
C3_32 C 0.79230(10) 0.61891(11) 0.65872(11)
H1_32 H 0.788157 0.634705 0.634978
C4_32 C 0.83169(11) 0.61584(11) 0.67564(12)
H2_32 H 0.853980 0.629551 0.663577
C5_32 C 0.83714(11) 0.59196(11) 0.71080(12)
C6_32 C 0.80469(11) 0.57187(11) 0.72951(11)
H3_32 H 0.809003 0.556070 0.753218
C7_32 C 0.76523(11) 0.57546(11) 0.71249(11)
H4_32 H 0.742961 0.562220 0.725106
C8_32 C 0.95732(10) 0.70906(10) 0.82089(10)
C9_32 C 0.93605(10) 0.67824(10) 0.79412(10)
C10_32 C 0.95647(10) 0.64290(10) 0.78049(10)
H5_32 H 0.984361 0.639355 0.786828
C11_32 C 0.93622(10) 0.61302(10) 0.75779(10)
H6_32 H 0.950226 0.589403 0.749042
C12_32 C 0.89493(10) 0.61843(11) 0.74813(11)
C13_32 C 0.87405(11) 0.65388(11) 0.76039(11)
H7_32 H 0.846322 0.657579 0.753460
C14_32 C 0.89483(11) 0.68367(11) 0.78301(11)
H8_32 H 0.881038 0.707699 0.790922
O5_32 O 0.87694(7) 0.58624(7) 0.72652(8)
C15_60 C 0.60054(10) 0.65728(10) 0.71713(10)
C16_60 C 0.59856(11) 0.67698(10) 0.75889(10)
C17_60 C 0.61891(11) 0.65872(11) 0.79230(10)
H9_60 H 0.634705 0.634978 0.788157
C18_60 C 0.61584(11) 0.67564(12) 0.83169(11)
H10_60 H 0.629551 0.663577 0.853980
C19_60 C 0.59196(11) 0.71080(12) 0.83714(11)
C20_60 C 0.57187(11) 0.72951(11) 0.80469(11)
H11_60 H 0.556070 0.753218 0.809003
C21_60 C 0.57546(11) 0.71249(11) 0.76523(11)
H12_60 H 0.562220 0.725106 0.742961
C22_60 C 0.70906(10) 0.82089(10) 0.95732(10)
C23_60 C 0.67824(10) 0.79412(10) 0.93605(10)
C24_60 C 0.64290(10) 0.78049(10) 0.95647(10)
H13_60 H 0.639355 0.786828 0.984361
C25_60 C 0.61302(10) 0.75779(10) 0.93622(10)
H14_60 H 0.589403 0.749042 0.950226
C26_60 C 0.61843(11) 0.74813(11) 0.89493(10)
C27_60 C 0.65388(11) 0.76039(11) 0.87405(11)
H15_60 H 0.657579 0.753460 0.846322
C28_60 C 0.68367(11) 0.78301(11) 0.89483(11)
H16_60 H 0.707699 0.790922 0.881038
O10_60 O 0.58624(7) 0.72652(8) 0.87694(7)
C15_61 C 0.65728(10) 0.71713(10) 0.60054(10)
C16_61 C 0.67698(10) 0.75889(10) 0.59856(11)
C17_61 C 0.65872(11) 0.79230(10) 0.61891(11)
H9_61 H 0.634978 0.788157 0.634705
C18_61 C 0.67564(12) 0.83169(11) 0.61584(11)
H10_61 H 0.663577 0.853980 0.629551
C19_61 C 0.71080(12) 0.83714(11) 0.59196(11)
C20_61 C 0.72951(11) 0.80469(11) 0.57187(11)
H11_61 H 0.753218 0.809003 0.556070
C21_61 C 0.71249(11) 0.76523(11) 0.57546(11)
H12_61 H 0.725106 0.742961 0.562220
C22_61 C 0.82089(10) 0.95732(10) 0.70906(10)
C23_61 C 0.79412(10) 0.93605(10) 0.67824(10)
C24_61 C 0.78049(10) 0.95647(10) 0.64290(10)
H13_61 H 0.786828 0.984361 0.639355
C25_61 C 0.75779(10) 0.93622(10) 0.61302(10)
H14_61 H 0.749042 0.950226 0.589403
C26_61 C 0.74813(11) 0.89493(10) 0.61843(11)
C27_61 C 0.76039(11) 0.87405(11) 0.65388(11)
H15_61 H 0.753460 0.846322 0.657579
C28_61 C 0.78301(11) 0.89483(11) 0.68367(11)
H16_61 H 0.790922 0.881038 0.707699
O10_61 O 0.72652(8) 0.87694(7) 0.58624(7)
C15_62 C 0.34272(10) 0.21713(10) 0.89946(10)
C16_62 C 0.32302(10) 0.25889(10) 0.90144(11)
C17_62 C 0.34128(11) 0.29230(10) 0.88109(11)
H9_62 H 0.365022 0.288157 0.865295
C18_62 C 0.32436(12) 0.33169(11) 0.88416(11)
H10_62 H 0.336423 0.353980 0.870449
C19_62 C 0.28920(12) 0.33714(11) 0.90804(11)
C20_62 C 0.27049(11) 0.30469(11) 0.92813(11)
H11_62 H 0.246782 0.309003 0.943930
C21_62 C 0.28751(11) 0.26523(11) 0.92454(11)
H12_62 H 0.274894 0.242961 0.937780
C22_62 C 0.17911(10) 0.45732(10) 0.79094(10)
C23_62 C 0.20588(10) 0.43605(10) 0.82176(10)
C24_62 C 0.21951(10) 0.45647(10) 0.85710(10)
H13_62 H 0.213172 0.484361 0.860645
C25_62 C 0.24221(10) 0.43622(10) 0.88698(10)
H14_62 H 0.250958 0.450226 0.910597
C26_62 C 0.25187(11) 0.39493(10) 0.88157(11)
C27_62 C 0.23961(11) 0.37405(11) 0.84612(11)
H15_62 H 0.246540 0.346322 0.842421
C28_62 C 0.21699(11) 0.39483(11) 0.81633(11)
H16_62 H 0.209078 0.381038 0.792301
O10_62 O 0.27348(8) 0.37694(7) 0.91376(7)
C15_63 C 0.84272(10) 0.28287(10) 0.10054(10)
C16_63 C 0.82302(10) 0.24111(10) 0.09856(11)
C17_63 C 0.84128(11) 0.20770(10) 0.11891(11)
H9_63 H 0.865022 0.211843 0.134705
C18_63 C 0.82436(12) 0.16831(11) 0.11584(11)
H10_63 H 0.836423 0.146020 0.129551
C19_63 C 0.78920(12) 0.16286(11) 0.09196(11)
C20_63 C 0.77049(11) 0.19531(11) 0.07187(11)
H11_63 H 0.746782 0.190997 0.056070
C21_63 C 0.78751(11) 0.23477(11) 0.07546(11)
H12_63 H 0.774894 0.257039 0.062220
C22_63 C 0.67911(10) 0.04268(10) 0.20906(10)
C23_63 C 0.70588(10) 0.06395(10) 0.17824(10)
C24_63 C 0.71951(10) 0.04353(10) 0.14290(10)
H13_63 H 0.713172 0.015639 0.139355
C25_63 C 0.74221(10) 0.06378(10) 0.11302(10)
H14_63 H 0.750958 0.049774 0.089403
C26_63 C 0.75187(11) 0.10507(10) 0.11843(11)
C27_63 C 0.73961(11) 0.12595(11) 0.15388(11)
H15_63 H 0.746540 0.153678 0.157579
C28_63 C 0.71699(11) 0.10517(11) 0.18367(11)
H16_63 H 0.709078 0.118962 0.207699
O10_63 O 0.77348(8) 0.12306(7) 0.08624(7)
C15_64 C 0.15728(10) 0.78287(10) 0.39946(10)
C16_64 C 0.17698(10) 0.74111(10) 0.40144(11)
C17_64 C 0.15872(11) 0.70770(10) 0.38109(11)
H9_64 H 0.134978 0.711843 0.365295
C18_64 C 0.17564(12) 0.66831(11) 0.38416(11)
H10_64 H 0.163577 0.646020 0.370449
C19_64 C 0.21080(12) 0.66286(11) 0.40804(11)
C20_64 C 0.22951(11) 0.69531(11) 0.42813(11)
H11_64 H 0.253218 0.690997 0.443930
C21_64 C 0.21249(11) 0.73477(11) 0.42454(11)
H12_64 H 0.225106 0.757039 0.437780
C22_64 C 0.32089(10) 0.54268(10) 0.29094(10)
C23_64 C 0.29412(10) 0.56395(10) 0.32176(10)
C24_64 C 0.28049(10) 0.54353(10) 0.35710(10)
H13_64 H 0.286828 0.515639 0.360645
C25_64 C 0.25779(10) 0.56378(10) 0.38698(10)
H14_64 H 0.249042 0.549774 0.410597
C26_64 C 0.24813(11) 0.60507(10) 0.38157(11)
C27_64 C 0.26039(11) 0.62595(11) 0.34612(11)
H15_64 H 0.253460 0.653678 0.342421
C28_64 C 0.28301(11) 0.60517(11) 0.31633(11)
H16_64 H 0.290922 0.618962 0.292301
O10_64 O 0.22652(8) 0.62306(7) 0.41376(7)
loop_
_geom_bond_atom_site_label_1
_geom_bond_atom_site_label_2
_geom_bond_site_symmetry_1
_geom_bond_site_symmetry_2
C1 C2 1_555 1_555
C2 C3 1_555 1_555
C3 H1 1_555 1_555
C4 C3 1_555 1_555
H2 C4 1_555 1_555
C5 C4 1_555 1_555
C6 C5 1_555 1_555
H3 C6 1_555 1_555
C7 C2 1_555 1_555
H4 C7 1_555 1_555
C8 C9 1_555 1_555
C9 C10 1_555 1_555
C10 H5 1_555 1_555
C11 C10 1_555 1_555
H6 C11 1_555 1_555
C12 C11 1_555 1_555
C13 C12 1_555 1_555
H7 C13 1_555 1_555
C14 C9 1_555 1_555
H8 C14 1_555 1_555
O1 C1 1_555 1_555
O2 C1 1_555 1_555
O3 C8 1_555 1_555
O4 C8 1_555 1_555
O5 C5 1_555 1_555
Th1 O1 1_555 1_555
C15 C16 1_555 1_555
C16 C17 1_555 1_555
C17 H9 1_555 1_555
C18 C17 1_555 1_555
H10 C18 1_555 1_555
C19 C18 1_555 1_555
C20 C19 1_555 1_555
C21 C16 1_555 1_555
H12 C21 1_555 1_555
O6 C15 1_555 1_555
O7 Th1 1_555 1_555
O10 C19 1_555 1_555
O11 Th1 1_555 1_555
O12 Th1 1_555 1_555
O13 Th1 1_555 1_555
O14 Th1 1_555 1_555
O15 Th1 1_555 1_555
O16 Th1 1_555 1_555
Th2 O6 1_555 1_555
Th3 O2 1_555 1_555
Th6 O3 1_555 1_555
C6 C7 1_555 1_555
C12 O5 1_555 1_555
C13 C14 1_555 1_555
C15 O7 1_555 1_555
C20 C21 1_555 1_555
C26 O10 1_555 1_555
C22 C23 1_555 1_555
C23 C24 1_555 1_555
C24 H13 1_555 1_555
C25 C24 1_555 1_555
H15 C27 1_555 1_555
C28 C23 1_555 1_555
H16 C28 1_555 1_555
O8 C22 1_555 1_555
O9 C22 1_555 1_555
Th5 O9 1_555 1_555
Th7 O8 1_555 1_555
C27 C28 1_555 1_555
C1_2 C2_2 1_555 1_555
C2_2 C3_2 1_555 1_555
C3_2 H1_2 1_555 1_555
C4_2 C3_2 1_555 1_555
H2_2 C4_2 1_555 1_555
C5_2 C4_2 1_555 1_555
C6_2 C5_2 1_555 1_555
C7_2 C2_2 1_555 1_555
H4_2 C7_2 1_555 1_555
O1_2 C1_2 1_555 1_555
O2_2 C1_2 1_555 1_555
O5_2 C5_2 1_555 1_555
Th1_2 O1_2 1_555 1_555
O6_2 C15_2 1_555 1_555
O7_2 Th1_2 1_555 1_555
O11_2 Th1_2 1_555 1_555
O12_2 Th1_2 1_555 1_555
O14_2 Th1_2 1_555 1_555
O16_2 Th1_2 1_555 1_555
Th2_2 O6_2 1_555 1_555
Th3_2 O2_2 1_555 1_555
C6_2 C7_2 1_555 1_555
C12_2 O5_2 1_555 1_555
C15_2 O7_2 1_555 1_555
C8_2 C9_2 1_555 1_555
C9_2 C10_2 1_555 1_555
C10_2 H5_2 1_555 1_555
C11_2 C10_2 1_555 1_555
H7_2 C13_2 1_555 1_555
C14_2 C9_2 1_555 1_555
H8_2 C14_2 1_555 1_555
O3_2 C8_2 1_555 1_555
O4_2 C8_2 1_555 1_555
C16_2 C17_2 1_555 1_555
C17_2 H9_2 1_555 1_555
C18_2 C17_2 1_555 1_555
H10_2 C18_2 1_555 1_555
C19_2 C18_2 1_555 1_555
C20_2 C19_2 1_555 1_555
H11_2 C20_2 1_555 1_555
C21_2 C16_2 1_555 1_555
C22_2 C23_2 1_555 1_555
C23_2 C24_2 1_555 1_555
C24_2 H13_2 1_555 1_555
C25_2 C24_2 1_555 1_555
H14_2 C25_2 1_555 1_555
C26_2 C25_2 1_555 1_555
C27_2 C26_2 1_555 1_555
H15_2 C27_2 1_555 1_555
C28_2 C23_2 1_555 1_555
H16_2 C28_2 1_555 1_555
O8_2 C22_2 1_555 1_555
O9_2 C22_2 1_555 1_555
O10_2 C19_2 1_555 1_555
Th4_2 O4_2 1_555 1_555
Th5_2 O9_2 1_555 1_555
Th6_2 O3_2 1_555 1_555
Th7_2 O8_2 1_555 1_555
C13_2 C14_2 1_555 1_555
C20_2 C21_2 1_555 1_555
C26_2 O10_2 1_555 1_555
C27_2 C28_2 1_555 1_555
C22_3 C23_3 1_555 1_555
C23_3 C24_3 1_555 1_555
C24_3 H13_3 1_555 1_555
C25_3 C24_3 1_555 1_555
H15_3 C27_3 1_555 1_555
C28_3 C23_3 1_555 1_555
H16_3 C28_3 1_555 1_555
O8_3 C22_3 1_555 1_555
O9_3 C22_3 1_555 1_555
Th7_3 O8_3 1_555 1_555
C27_3 C28_3 1_555 1_555
C8_3 C9_3 1_555 1_555
C9_3 C10_3 1_555 1_555
C10_3 H5_3 1_555 1_555
C11_3 C10_3 1_555 1_555
H7_3 C13_3 1_555 1_555
C14_3 C9_3 1_555 1_555
H8_3 C14_3 1_555 1_555
O3_3 C8_3 1_555 1_555
O4_3 C8_3 1_555 1_555
Th6_3 O3_3 1_555 1_555
C13_3 C14_3 1_555 1_555
C2_3 C3_3 1_555 1_555
C3_3 H1_3 1_555 1_555
C4_3 C3_3 1_555 1_555
H2_3 C4_3 1_555 1_555
C5_3 C4_3 1_555 1_555
C6_3 C5_3 1_555 1_555
C7_3 C2_3 1_555 1_555
O5_3 C5_3 1_555 1_555
C6_3 C7_3 1_555 1_555
C12_3 O5_3 1_555 1_555
C16_3 C17_3 1_555 1_555
C17_3 H9_3 1_555 1_555
C18_3 C17_3 1_555 1_555
H10_3 C18_3 1_555 1_555
C19_3 C18_3 1_555 1_555
C20_3 C19_3 1_555 1_555
C21_3 C16_3 1_555 1_555
O10_3 C19_3 1_555 1_555
C20_3 C21_3 1_555 1_555
C26_3 O10_3 1_555 1_555
O1_3 C1_3 1_555 1_555
O2_3 C1_3 1_555 1_555
Th1_3 O1_3 1_555 1_555
O6_3 C15_3 1_555 1_555
O7_3 Th1_3 1_555 1_555
O11_3 Th1_3 1_555 1_555
O12_3 Th1_3 1_555 1_555
O14_3 Th1_3 1_555 1_555
O16_3 Th1_3 1_555 1_555
Th2_3 O6_3 1_555 1_555
Th3_3 O2_3 1_555 1_555
C15_3 O7_3 1_555 1_555
O1_4 C1_4 1_555 1_555
O2_4 C1_4 1_555 1_555
Th1_4 O1_4 1_555 1_555
C15_4 C16_4 1_555 1_555
C16_4 C17_4 1_555 1_555
C17_4 H9_4 1_555 1_555
C18_4 C17_4 1_555 1_555
H10_4 C18_4 1_555 1_555
C19_4 C18_4 1_555 1_555
C20_4 C19_4 1_555 1_555
H11_4 C20_4 1_555 1_555
C21_4 C16_4 1_555 1_555
H12_4 C21_4 1_555 1_555
C22_4 C23_4 1_555 1_555
C23_4 C24_4 1_555 1_555
C24_4 H13_4 1_555 1_555
C25_4 C24_4 1_555 1_555
H14_4 C25_4 1_555 1_555
C26_4 C25_4 1_555 1_555
C27_4 C26_4 1_555 1_555
H15_4 C27_4 1_555 1_555
C28_4 C23_4 1_555 1_555
H16_4 C28_4 1_555 1_555
O6_4 C15_4 1_555 1_555
O7_4 Th1_4 1_555 1_555
O8_4 C22_4 1_555 1_555
O9_4 C22_4 1_555 1_555
O10_4 C19_4 1_555 1_555
O11_4 Th1_4 1_555 1_555
O12_4 Th1_4 1_555 1_555
O13_4 Th1_4 1_555 1_555
O14_4 Th1_4 1_555 1_555
O15_4 Th1_4 1_555 1_555
O16_4 Th1_4 1_555 1_555
Th2_4 O6_4 1_555 1_555
Th3_4 O2_4 1_555 1_555
Th7_4 O8_4 1_555 1_555
C15_4 O7_4 1_555 1_555
C20_4 C21_4 1_555 1_555
C26_4 O10_4 1_555 1_555
C27_4 C28_4 1_555 1_555
C2_4 C3_4 1_555 1_555
C3_4 H1_4 1_555 1_555
C4_4 C3_4 1_555 1_555
H2_4 C4_4 1_555 1_555
C5_4 C4_4 1_555 1_555
C6_4 C5_4 1_555 1_555
H3_4 C6_4 1_555 1_555
C7_4 C2_4 1_555 1_555
C8_4 C9_4 1_555 1_555
C9_4 C10_4 1_555 1_555
C10_4 H5_4 1_555 1_555
C11_4 C10_4 1_555 1_555
H6_4 C11_4 1_555 1_555
C12_4 C11_4 1_555 1_555
C13_4 C12_4 1_555 1_555
H7_4 C13_4 1_555 1_555
C14_4 C9_4 1_555 1_555
H8_4 C14_4 1_555 1_555
O3_4 C8_4 1_555 1_555
O4_4 C8_4 1_555 1_555
O5_4 C5_4 1_555 1_555
Th4_4 O4_4 1_555 1_555
Th6_4 O3_4 1_555 1_555
C6_4 C7_4 1_555 1_555
C12_4 O5_4 1_555 1_555
C13_4 C14_4 1_555 1_555
C15_5 C16_5 1_555 1_555
C16_5 C17_5 1_555 1_555
C17_5 H9_5 1_555 1_555
C18_5 C17_5 1_555 1_555
H10_5 C18_5 1_555 1_555
C19_5 C18_5 1_555 1_555
C20_5 C19_5 1_555 1_555
C21_5 C16_5 1_555 1_555
H12_5 C21_5 1_555 1_555
O6_5 C15_5 1_555 1_555
O7_5 Th2_4 1_555 1_555
O10_5 C19_5 1_555 1_555
O11_5 Th2_4 1_555 1_555
O12_5 Th2_4 1_555 1_555
O13_5 Th2_4 1_555 1_555
O14_5 Th2_4 1_555 1_555
O15_5 Th2_4 1_555 1_555
O16_5 Th2_4 1_555 1_555
Th3_4 O6_5 1_555 1_555
C15_5 O7_5 1_555 1_555
C20_5 C21_5 1_555 1_555
C26_5 O10_5 1_555 1_555
C22_5 C23_5 1_555 1_555
C23_5 C24_5 1_555 1_555
C24_5 H13_5 1_555 1_555
C25_5 C24_5 1_555 1_555
H15_5 C27_5 1_555 1_555
C28_5 C23_5 1_555 1_555
H16_5 C28_5 1_555 1_555
O8_5 C22_5 1_555 1_555
O9_5 C22_5 1_555 1_555
Th5_5 O9_5 1_555 1_555
Th7_5 O8_5 1_555 1_555
C27_5 C28_5 1_555 1_555
O6_6 C15_6 1_555 1_555
O7_6 Th2 1_555 1_555
O11_6 Th2 1_555 1_555
O12_6 Th2 1_555 1_555
O14_6 Th2 1_555 1_555
O16_6 Th2 1_555 1_555
Th3 O6_6 1_555 1_555
C15_6 O7_6 1_555 1_555
C16_6 C17_6 1_555 1_555
C17_6 H9_6 1_555 1_555
C18_6 C17_6 1_555 1_555
H10_6 C18_6 1_555 1_555
C19_6 C18_6 1_555 1_555
C20_6 C19_6 1_555 1_555
H11_6 C20_6 1_555 1_555
C21_6 C16_6 1_555 1_555
C22_6 C23_6 1_555 1_555
C23_6 C24_6 1_555 1_555
C24_6 H13_6 1_555 1_555
C25_6 C24_6 1_555 1_555
H14_6 C25_6 1_555 1_555
C26_6 C25_6 1_555 1_555
C27_6 C26_6 1_555 1_555
H15_6 C27_6 1_555 1_555
C28_6 C23_6 1_555 1_555
H16_6 C28_6 1_555 1_555
O8_6 C22_6 1_555 1_555
O9_6 C22_6 1_555 1_555
O10_6 C19_6 1_555 1_555
Th5_6 O9_6 1_555 1_555
Th7_6 O8_6 1_555 1_555
C20_6 C21_6 1_555 1_555
C26_6 O10_6 1_555 1_555
C27_6 C28_6 1_555 1_555
C22_7 C23_7 1_555 1_555
C23_7 C24_7 1_555 1_555
C24_7 H13_7 1_555 1_555
C25_7 C24_7 1_555 1_555
H15_7 C27_7 1_555 1_555
C28_7 C23_7 1_555 1_555
H16_7 C28_7 1_555 1_555
O8_7 C22_7 1_555 1_555
O9_7 C22_7 1_555 1_555
Th7_7 O8_7 1_555 1_555
C27_7 C28_7 1_555 1_555
C16_7 C17_7 1_555 1_555
C17_7 H9_7 1_555 1_555
C18_7 C17_7 1_555 1_555
H10_7 C18_7 1_555 1_555
C19_7 C18_7 1_555 1_555
C20_7 C19_7 1_555 1_555
C21_7 C16_7 1_555 1_555
O10_7 C19_7 1_555 1_555
C20_7 C21_7 1_555 1_555
C26_7 O10_7 1_555 1_555
O6_7 C15_7 1_555 1_555
O7_7 Th2_3 1_555 1_555
O11_7 Th2_3 1_555 1_555
O12_7 Th2_3 1_555 1_555
O14_7 Th2_3 1_555 1_555
O16_7 Th2_3 1_555 1_555
Th3_3 O6_7 1_555 1_555
C15_7 O7_7 1_555 1_555
C15_8 C16_8 1_555 1_555
C16_8 C17_8 1_555 1_555
C17_8 H9_8 1_555 1_555
C18_8 C17_8 1_555 1_555
H10_8 C18_8 1_555 1_555
C19_8 C18_8 1_555 1_555
C20_8 C19_8 1_555 1_555
H11_8 C20_8 1_555 1_555
C21_8 C16_8 1_555 1_555
H12_8 C21_8 1_555 1_555
C22_8 C23_8 1_555 1_555
C23_8 C24_8 1_555 1_555
C24_8 H13_8 1_555 1_555
C25_8 C24_8 1_555 1_555
H14_8 C25_8 1_555 1_555
C26_8 C25_8 1_555 1_555
C27_8 C26_8 1_555 1_555
H15_8 C27_8 1_555 1_555
C28_8 C23_8 1_555 1_555
H16_8 C28_8 1_555 1_555
O6_8 C15_8 1_555 1_555
O7_8 Th2_2 1_555 1_555
O8_8 C22_8 1_555 1_555
O9_8 C22_8 1_555 1_555
O10_8 C19_8 1_555 1_555
O11_8 Th2_2 1_555 1_555
O12_8 Th2_2 1_555 1_555
O13_8 Th2_2 1_555 1_555
O14_8 Th2_2 1_555 1_555
O15_8 Th2_2 1_555 1_555
O16_8 Th2_2 1_555 1_555
Th3_2 O6_8 1_555 1_555
Th7_8 O8_8 1_555 1_555
C15_8 O7_8 1_555 1_555
C20_8 C21_8 1_555 1_555
C26_8 O10_8 1_555 1_555
C27_8 C28_8 1_555 1_555
O11_9 Th3_2 1_555 1_555
O12_9 Th3_2 1_555 1_555
O13_9 Th3_2 1_555 1_555
O14_9 Th3_2 1_555 1_555
O15_9 Th3_2 1_555 1_555
O16_9 Th3_2 1_555 1_555
O11_10 Th3_4 1_555 1_555
O12_10 Th3_4 1_555 1_555
O14_10 Th3_4 1_555 1_555
O16_10 Th3_4 1_555 1_555
O11_11 Th3_3 1_555 1_555
O12_11 Th3_3 1_555 1_555
O14_11 Th3_3 1_555 1_555
O16_11 Th3_3 1_555 1_555
O11_12 Th3 1_555 1_555
O12_12 Th3 1_555 1_555
O13_12 Th3 1_555 1_555
O14_12 Th3 1_555 1_555
O15_12 Th3 1_555 1_555
O16_12 Th3 1_555 1_555
C1_5 C2_5 1_555 1_555
C2_5 C3_5 1_555 1_555
C3_5 H1_5 1_555 1_555
C4_5 C3_5 1_555 1_555
H2_5 C4_5 1_555 1_555
C5_5 C4_5 1_555 1_555
C6_5 C5_5 1_555 1_555
H3_5 C6_5 1_555 1_555
C7_5 C2_5 1_555 1_555
H4_5 C7_5 1_555 1_555
C8_5 C9_5 1_555 1_555
C9_5 C10_5 1_555 1_555
C10_5 H5_5 1_555 1_555
C11_5 C10_5 1_555 1_555
H6_5 C11_5 1_555 1_555
C12_5 C11_5 1_555 1_555
C13_5 C12_5 1_555 1_555
H7_5 C13_5 1_555 1_555
C14_5 C9_5 1_555 1_555
H8_5 C14_5 1_555 1_555
O11_12 C1_5 1_555 1_555
O12 C1_5 1_555 1_555
O3_5 C8_5 1_555 1_555
O4_5 C8_5 1_555 1_555
O5_5 C5_5 1_555 1_555
C15_9 C16_9 1_555 1_555
C16_9 C17_9 1_555 1_555
C17_9 H9_9 1_555 1_555
C18_9 C17_9 1_555 1_555
H10_9 C18_9 1_555 1_555
C19_9 C18_9 1_555 1_555
C20_9 C19_9 1_555 1_555
H11_9 C20_9 1_555 1_555
C21_9 C16_9 1_555 1_555
H12_9 C21_9 1_555 1_555
C22_9 C23_9 1_555 1_555
C23_9 C24_9 1_555 1_555
C24_9 H13_9 1_555 1_555
C25_9 C24_9 1_555 1_555
H14_9 C25_9 1_555 1_555
C26_9 C25_9 1_555 1_555
C27_9 C26_9 1_555 1_555
H15_9 C27_9 1_555 1_555
C28_9 C23_9 1_555 1_555
H16_9 C28_9 1_555 1_555
O11_6 C15_9 1_555 1_555
O8_9 C22_9 1_555 1_555
O9_9 C22_9 1_555 1_555
O10_9 C19_9 1_555 1_555
Th6_2 O4_5 1_555 1_555
Th7_7 O9_9 1_555 1_555
Th4_2 O3_5 1_555 1_555
C6_5 C7_5 1_555 1_555
C12_5 O5_5 1_555 1_555
C13_5 C14_5 1_555 1_555
C15_9 O12_12 1_555 1_555
C20_9 C21_9 1_555 1_555
C26_9 O10_9 1_555 1_555
C27_9 C28_9 1_555 1_555
C1_6 C2_6 1_555 1_555
C2_6 C3_6 1_555 1_555
C3_6 H1_6 1_555 1_555
C4_6 C3_6 1_555 1_555
H2_6 C4_6 1_555 1_555
C5_6 C4_6 1_555 1_555
C6_6 C5_6 1_555 1_555
H3_6 C6_6 1_555 1_555
C7_6 C2_6 1_555 1_555
H4_6 C7_6 1_555 1_555
C8_6 C9_6 1_555 1_555
C9_6 C10_6 1_555 1_555
C10_6 H5_6 1_555 1_555
C11_6 C10_6 1_555 1_555
H6_6 C11_6 1_555 1_555
C12_6 C11_6 1_555 1_555
C13_6 C12_6 1_555 1_555
H7_6 C13_6 1_555 1_555
C14_6 C9_6 1_555 1_555
H8_6 C14_6 1_555 1_555
O11_9 C1_6 1_555 1_555
O12_2 C1_6 1_555 1_555
O3_6 C8_6 1_555 1_555
O4_6 C8_6 1_555 1_555
O5_6 C5_6 1_555 1_555
C15_10 C16_10 1_555 1_555
C16_10 C17_10 1_555 1_555
C17_10 H9_10 1_555 1_555
C18_10 C17_10 1_555 1_555
H10_10 C18_10 1_555 1_555
C19_10 C18_10 1_555 1_555
C20_10 C19_10 1_555 1_555
H11_10 C20_10 1_555 1_555
C21_10 C16_10 1_555 1_555
H12_10 C21_10 1_555 1_555
C22_10 C23_10 1_555 1_555
C23_10 C24_10 1_555 1_555
C24_10 H13_10 1_555 1_555
C25_10 C24_10 1_555 1_555
H14_10 C25_10 1_555 1_555
C26_10 C25_10 1_555 1_555
C27_10 C26_10 1_555 1_555
H15_10 C27_10 1_555 1_555
C28_10 C23_10 1_555 1_555
H16_10 C28_10 1_555 1_555
O11_8 C15_10 1_555 1_555
O8_10 C22_10 1_555 1_555
O9_10 C22_10 1_555 1_555
O10_10 C19_10 1_555 1_555
Th6 O4_6 1_555 1_555
Th7_5 O9_10 1_555 1_555
Th5_5 O8_10 1_555 1_555
C6_6 C7_6 1_555 1_555
C12_6 O5_6 1_555 1_555
C13_6 C14_6 1_555 1_555
C15_10 O12_9 1_555 1_555
C20_10 C21_10 1_555 1_555
C26_10 O10_10 1_555 1_555
C27_10 C28_10 1_555 1_555
C1_7 C2_7 1_555 1_555
C2_7 C3_7 1_555 1_555
C3_7 H1_7 1_555 1_555
C4_7 C3_7 1_555 1_555
H2_7 C4_7 1_555 1_555
C5_7 C4_7 1_555 1_555
C6_7 C5_7 1_555 1_555
H3_7 C6_7 1_555 1_555
C7_7 C2_7 1_555 1_555
H4_7 C7_7 1_555 1_555
C8_7 C9_7 1_555 1_555
C9_7 C10_7 1_555 1_555
C10_7 H5_7 1_555 1_555
C11_7 C10_7 1_555 1_555
H6_7 C11_7 1_555 1_555
C12_7 C11_7 1_555 1_555
C13_7 C12_7 1_555 1_555
H7_7 C13_7 1_555 1_555
C14_7 C9_7 1_555 1_555
H8_7 C14_7 1_555 1_555
O11_10 C1_7 1_555 1_555
O12_4 C1_7 1_555 1_555
O3_7 C8_7 1_555 1_555
O4_7 C8_7 1_555 1_555
O5_7 C5_7 1_555 1_555
C15_11 C16_11 1_555 1_555
C16_11 C17_11 1_555 1_555
C17_11 H9_11 1_555 1_555
C18_11 C17_11 1_555 1_555
H10_11 C18_11 1_555 1_555
C19_11 C18_11 1_555 1_555
C20_11 C19_11 1_555 1_555
H11_11 C20_11 1_555 1_555
C21_11 C16_11 1_555 1_555
H12_11 C21_11 1_555 1_555
C22_11 C23_11 1_555 1_555
C23_11 C24_11 1_555 1_555
C24_11 H13_11 1_555 1_555
C25_11 C24_11 1_555 1_555
H14_11 C25_11 1_555 1_555
C26_11 C25_11 1_555 1_555
C27_11 C26_11 1_555 1_555
H15_11 C27_11 1_555 1_555
C28_11 C23_11 1_555 1_555
H16_11 C28_11 1_555 1_555
O11_5 C15_11 1_555 1_555
O8_11 C22_11 1_555 1_555
O9_11 C22_11 1_555 1_555
O10_11 C19_11 1_555 1_555
Th6_3 O4_7 1_555 1_555
Th7_8 O9_11 1_555 1_555
C6_7 C7_7 1_555 1_555
C12_7 O5_7 1_555 1_555
C13_7 C14_7 1_555 1_555
C15_11 O12_10 1_555 1_555
C20_11 C21_11 1_555 1_555
C26_11 O10_11 1_555 1_555
C27_11 C28_11 1_555 1_555
C1_8 C2_8 1_555 1_555
C2_8 C3_8 1_555 1_555
C3_8 H1_8 1_555 1_555
C4_8 C3_8 1_555 1_555
H2_8 C4_8 1_555 1_555
C5_8 C4_8 1_555 1_555
C6_8 C5_8 1_555 1_555
H3_8 C6_8 1_555 1_555
C7_8 C2_8 1_555 1_555
H4_8 C7_8 1_555 1_555
C8_8 C9_8 1_555 1_555
C9_8 C10_8 1_555 1_555
C10_8 H5_8 1_555 1_555
C11_8 C10_8 1_555 1_555
H6_8 C11_8 1_555 1_555
C12_8 C11_8 1_555 1_555
C13_8 C12_8 1_555 1_555
H7_8 C13_8 1_555 1_555
C14_8 C9_8 1_555 1_555
H8_8 C14_8 1_555 1_555
O11_11 C1_8 1_555 1_555
O12_3 C1_8 1_555 1_555
O3_8 C8_8 1_555 1_555
O4_8 C8_8 1_555 1_555
O5_8 C5_8 1_555 1_555
C15_12 C16_12 1_555 1_555
C16_12 C17_12 1_555 1_555
C17_12 H9_12 1_555 1_555
C18_12 C17_12 1_555 1_555
H10_12 C18_12 1_555 1_555
C19_12 C18_12 1_555 1_555
C20_12 C19_12 1_555 1_555
H11_12 C20_12 1_555 1_555
C21_12 C16_12 1_555 1_555
H12_12 C21_12 1_555 1_555
C22_12 C23_12 1_555 1_555
C23_12 C24_12 1_555 1_555
C24_12 H13_12 1_555 1_555
C25_12 C24_12 1_555 1_555
H14_12 C25_12 1_555 1_555
C26_12 C25_12 1_555 1_555
C27_12 C26_12 1_555 1_555
H15_12 C27_12 1_555 1_555
C28_12 C23_12 1_555 1_555
H16_12 C28_12 1_555 1_555
O11_7 C15_12 1_555 1_555
O8_12 C22_12 1_555 1_555
O9_12 C22_12 1_555 1_555
O10_12 C19_12 1_555 1_555
Th6_4 O4_8 1_555 1_555
Th7_6 O9_12 1_555 1_555
Th4_4 O3_8 1_555 1_555
Th5_6 O8_12 1_555 1_555
C6_8 C7_8 1_555 1_555
C12_8 O5_8 1_555 1_555
C13_8 C14_8 1_555 1_555
C15_12 O12_11 1_555 1_555
C20_12 C21_12 1_555 1_555
C26_12 O10_12 1_555 1_555
C27_12 C28_12 1_555 1_555
C15_13 C16_13 1_555 1_555
C16_13 C17_13 1_555 1_555
C17_13 H9_13 1_555 1_555
C18_13 C17_13 1_555 1_555
H10_13 C18_13 1_555 1_555
C19_13 C18_13 1_555 1_555
C20_13 C19_13 1_555 1_555
H11_13 C20_13 1_555 1_555
C21_13 C16_13 1_555 1_555
H12_13 C21_13 1_555 1_555
C22_13 C23_13 1_555 1_555
C23_13 C24_13 1_555 1_555
C24_13 H13_13 1_555 1_555
C25_13 C24_13 1_555 1_555
H14_13 C25_13 1_555 1_555
C26_13 C25_13 1_555 1_555
C27_13 C26_13 1_555 1_555
H15_13 C27_13 1_555 1_555
C28_13 C23_13 1_555 1_555
H16_13 C28_13 1_555 1_555
O11_3 C15_13 1_555 1_555
O8_13 C22_13 1_555 1_555
O9_13 C22_13 1_555 1_555
O10_13 C19_13 1_555 1_555
Th7_2 O9_13 1_555 1_555
Th5_2 O8_13 1_555 1_555
C15_13 O12_7 1_555 1_555
C20_13 C21_13 1_555 1_555
C26_13 O10_13 1_555 1_555
C27_13 C28_13 1_555 1_555
C15_14 C16_14 1_555 1_555
C16_14 C17_14 1_555 1_555
C17_14 H9_14 1_555 1_555
C18_14 C17_14 1_555 1_555
H10_14 C18_14 1_555 1_555
C19_14 C18_14 1_555 1_555
C20_14 C19_14 1_555 1_555
H11_14 C20_14 1_555 1_555
C21_14 C16_14 1_555 1_555
H12_14 C21_14 1_555 1_555
C22_14 C23_14 1_555 1_555
C23_14 C24_14 1_555 1_555
C24_14 H13_14 1_555 1_555
C25_14 C24_14 1_555 1_555
H14_14 C25_14 1_555 1_555
C26_14 C25_14 1_555 1_555
C27_14 C26_14 1_555 1_555
H15_14 C27_14 1_555 1_555
C28_14 C23_14 1_555 1_555
H16_14 C28_14 1_555 1_555
O11 C15_14 1_555 1_555
O8_14 C22_14 1_555 1_555
O9_14 C22_14 1_555 1_555
O10_14 C19_14 1_555 1_555
Th7_4 O9_14 1_555 1_555
C15_14 O12_6 1_555 1_555
C20_14 C21_14 1_555 1_555
C26_14 O10_14 1_555 1_555
C27_14 C28_14 1_555 1_555
C15_15 C16_15 1_555 1_555
C16_15 C17_15 1_555 1_555
C17_15 H9_15 1_555 1_555
C18_15 C17_15 1_555 1_555
H10_15 C18_15 1_555 1_555
C19_15 C18_15 1_555 1_555
C20_15 C19_15 1_555 1_555
H11_15 C20_15 1_555 1_555
C21_15 C16_15 1_555 1_555
H12_15 C21_15 1_555 1_555
C22_15 C23_15 1_555 1_555
C23_15 C24_15 1_555 1_555
C24_15 H13_15 1_555 1_555
C25_15 C24_15 1_555 1_555
H14_15 C25_15 1_555 1_555
C26_15 C25_15 1_555 1_555
C27_15 C26_15 1_555 1_555
H15_15 C27_15 1_555 1_555
C28_15 C23_15 1_555 1_555
H16_15 C28_15 1_555 1_555
O11_4 C15_15 1_555 1_555
O8_15 C22_15 1_555 1_555
O9_15 C22_15 1_555 1_555
O10_15 C19_15 1_555 1_555
Th7 O9_15 1_555 1_555
Th5 O8_15 1_555 1_555
C15_15 O12_5 1_555 1_555
C20_15 C21_15 1_555 1_555
C26_15 O10_15 1_555 1_555
C27_15 C28_15 1_555 1_555
C15_16 C16_16 1_555 1_555
C16_16 C17_16 1_555 1_555
C17_16 H9_16 1_555 1_555
C18_16 C17_16 1_555 1_555
H10_16 C18_16 1_555 1_555
C19_16 C18_16 1_555 1_555
C20_16 C19_16 1_555 1_555
H11_16 C20_16 1_555 1_555
C21_16 C16_16 1_555 1_555
H12_16 C21_16 1_555 1_555
C22_16 C23_16 1_555 1_555
C23_16 C24_16 1_555 1_555
C24_16 H13_16 1_555 1_555
C25_16 C24_16 1_555 1_555
H14_16 C25_16 1_555 1_555
C26_16 C25_16 1_555 1_555
C27_16 C26_16 1_555 1_555
H15_16 C27_16 1_555 1_555
C28_16 C23_16 1_555 1_555
H16_16 C28_16 1_555 1_555
O11_2 C15_16 1_555 1_555
O8_16 C22_16 1_555 1_555
O9_16 C22_16 1_555 1_555
O10_16 C19_16 1_555 1_555
Th7_3 O9_16 1_555 1_555
C15_16 O12_8 1_555 1_555
C20_16 C21_16 1_555 1_555
C26_16 O10_16 1_555 1_555
C27_16 C28_16 1_555 1_555
C2_9 C3_9 1_555 1_555
C3_9 H1_9 1_555 1_555
C4_9 C3_9 1_555 1_555
H2_9 C4_9 1_555 1_555
C5_9 C4_9 1_555 1_555
C6_9 C5_9 1_555 1_555
C7_9 C2_9 1_555 1_555
O5_9 C5_9 1_555 1_555
C6_9 C7_9 1_555 1_555
C12_9 O5_9 1_555 1_555
C8_9 C9_9 1_555 1_555
C9_9 C10_9 1_555 1_555
C10_9 H5_9 1_555 1_555
C11_9 C10_9 1_555 1_555
H7_9 C13_9 1_555 1_555
C14_9 C9_9 1_555 1_555
H8_9 C14_9 1_555 1_555
O3_9 C8_9 1_555 1_555
O4_9 C8_9 1_555 1_555
Th6_2 O4_9 1_555 1_555
Th4_2 O3_9 1_555 1_555
C13_9 C14_9 1_555 1_555
O1_5 C1_9 1_555 1_555
O2_5 C1_9 1_555 1_555
Th1_5 O1_5 1_555 1_555
O6_9 C15_17 1_555 1_555
O7_9 Th1_5 1_555 1_555
O11_13 Th1_5 1_555 1_555
O12_13 Th1_5 1_555 1_555
O14_13 Th1_5 1_555 1_555
O16_13 Th1_5 1_555 1_555
Th2_5 O6_9 1_555 1_555
Th3_5 O2_5 1_555 1_555
C15_17 O7_9 1_555 1_555
C16_17 C17_17 1_555 1_555
C17_17 H9_17 1_555 1_555
C18_17 C17_17 1_555 1_555
H10_17 C18_17 1_555 1_555
C19_17 C18_17 1_555 1_555
C20_17 C19_17 1_555 1_555
H11_17 C20_17 1_555 1_555
C21_17 C16_17 1_555 1_555
C22_17 C23_17 1_555 1_555
C23_17 C24_17 1_555 1_555
C24_17 H13_17 1_555 1_555
C25_17 C24_17 1_555 1_555
H14_17 C25_17 1_555 1_555
C26_17 C25_17 1_555 1_555
C27_17 C26_17 1_555 1_555
H15_17 C27_17 1_555 1_555
C28_17 C23_17 1_555 1_555
H16_17 C28_17 1_555 1_555
O8_17 C22_17 1_555 1_555
O9_17 C22_17 1_555 1_555
O10_17 C19_17 1_555 1_555
Th5_4 O8_17 1_555 1_555
C20_17 C21_17 1_555 1_555
C26_17 O10_17 1_555 1_555
C27_17 C28_17 1_555 1_555
C22_18 C23_18 1_555 1_555
C23_18 C24_18 1_555 1_555
C24_18 H13_18 1_555 1_555
C25_18 C24_18 1_555 1_555
H15_18 C27_18 1_555 1_555
C28_18 C23_18 1_555 1_555
H16_18 C28_18 1_555 1_555
O8_18 C22_18 1_555 1_555
O9_18 C22_18 1_555 1_555
Th5_3 O8_18 1_555 1_555
C27_18 C28_18 1_555 1_555
O1_6 C1_10 1_555 1_555
O2_6 C1_10 1_555 1_555
Th1_6 O1_6 1_555 1_555
C15_18 C16_18 1_555 1_555
C16_18 C17_18 1_555 1_555
C17_18 H9_18 1_555 1_555
C18_18 C17_18 1_555 1_555
H10_18 C18_18 1_555 1_555
C19_18 C18_18 1_555 1_555
C20_18 C19_18 1_555 1_555
C21_18 C16_18 1_555 1_555
H12_18 C21_18 1_555 1_555
O6_10 C15_18 1_555 1_555
O7_10 Th1_6 1_555 1_555
O10_18 C19_18 1_555 1_555
O11_14 Th1_6 1_555 1_555
O12_14 Th1_6 1_555 1_555
O13_14 Th1_6 1_555 1_555
O14_14 Th1_6 1_555 1_555
O15_14 Th1_6 1_555 1_555
O16_14 Th1_6 1_555 1_555
Th2_6 O6_10 1_555 1_555
Th3_6 O2_6 1_555 1_555
C15_18 O7_10 1_555 1_555
C20_18 C21_18 1_555 1_555
C26_18 O10_18 1_555 1_555
C2_10 C3_10 1_555 1_555
C3_10 H1_10 1_555 1_555
C4_10 C3_10 1_555 1_555
H2_10 C4_10 1_555 1_555
C5_10 C4_10 1_555 1_555
C6_10 C5_10 1_555 1_555
H3_10 C6_10 1_555 1_555
C7_10 C2_10 1_555 1_555
C8_10 C9_10 1_555 1_555
C9_10 C10_10 1_555 1_555
C10_10 H5_10 1_555 1_555
C11_10 C10_10 1_555 1_555
H6_10 C11_10 1_555 1_555
C12_10 C11_10 1_555 1_555
C13_10 C12_10 1_555 1_555
H7_10 C13_10 1_555 1_555
C14_10 C9_10 1_555 1_555
H8_10 C14_10 1_555 1_555
O3_10 C8_10 1_555 1_555
O4_10 C8_10 1_555 1_555
O5_10 C5_10 1_555 1_555
Th4 O3_10 1_555 1_555
C6_10 C7_10 1_555 1_555
C12_10 O5_10 1_555 1_555
C13_10 C14_10 1_555 1_555
C1_11 C2_11 1_555 1_555
C2_11 C3_11 1_555 1_555
C3_11 H1_11 1_555 1_555
C4_11 C3_11 1_555 1_555
H2_11 C4_11 1_555 1_555
C5_11 C4_11 1_555 1_555
C6_11 C5_11 1_555 1_555
H3_11 C6_11 1_555 1_555
C7_11 C2_11 1_555 1_555
H4_11 C7_11 1_555 1_555
C8_11 C9_11 1_555 1_555
C9_11 C10_11 1_555 1_555
C10_11 H5_11 1_555 1_555
C11_11 C10_11 1_555 1_555
H6_11 C11_11 1_555 1_555
C12_11 C11_11 1_555 1_555
C13_11 C12_11 1_555 1_555
H7_11 C13_11 1_555 1_555
C14_11 C9_11 1_555 1_555
H8_11 C14_11 1_555 1_555
O1_7 C1_11 1_555 1_555
O2_7 C1_11 1_555 1_555
O3_11 C8_11 1_555 1_555
O4_11 C8_11 1_555 1_555
O5_11 C5_11 1_555 1_555
Th1_7 O1_7 1_555 1_555
C15_19 C16_19 1_555 1_555
C16_19 C17_19 1_555 1_555
C17_19 H9_19 1_555 1_555
C18_19 C17_19 1_555 1_555
H10_19 C18_19 1_555 1_555
C19_19 C18_19 1_555 1_555
C20_19 C19_19 1_555 1_555
H11_19 C20_19 1_555 1_555
C21_19 C16_19 1_555 1_555
H12_19 C21_19 1_555 1_555
C22_19 C23_19 1_555 1_555
C23_19 C24_19 1_555 1_555
C24_19 H13_19 1_555 1_555
C25_19 C24_19 1_555 1_555
H14_19 C25_19 1_555 1_555
C26_19 C25_19 1_555 1_555
C27_19 C26_19 1_555 1_555
H15_19 C27_19 1_555 1_555
C28_19 C23_19 1_555 1_555
H16_19 C28_19 1_555 1_555
O6_11 C15_19 1_555 1_555
O7_11 Th1_7 1_555 1_555
O8_19 C22_19 1_555 1_555
O9_19 C22_19 1_555 1_555
O10_19 C19_19 1_555 1_555
O11_15 Th1_7 1_555 1_555
O12_15 Th1_7 1_555 1_555
O13_15 Th1_7 1_555 1_555
O14_15 Th1_7 1_555 1_555
O15_15 Th1_7 1_555 1_555
O16_15 Th1_7 1_555 1_555
Th2_7 O6_11 1_555 1_555
Th3_7 O2_7 1_555 1_555
Th6_4 O4_11 1_555 1_555
Th7_2 O9_19 1_555 1_555
Th4_4 O3_11 1_555 1_555
Th5_2 O8_19 1_555 1_555
C6_11 C7_11 1_555 1_555
C12_11 O5_11 1_555 1_555
C13_11 C14_11 1_555 1_555
C15_19 O7_11 1_555 1_555
C20_19 C21_19 1_555 1_555
C26_19 O10_19 1_555 1_555
C27_19 C28_19 1_555 1_555
C8_12 C9_12 1_555 1_555
C9_12 C10_12 1_555 1_555
C10_12 H5_12 1_555 1_555
C11_12 C10_12 1_555 1_555
H7_12 C13_12 1_555 1_555
C14_12 C9_12 1_555 1_555
H8_12 C14_12 1_555 1_555
O3_12 C8_12 1_555 1_555
O4_12 C8_12 1_555 1_555
C16_20 C17_20 1_555 1_555
C17_20 H9_20 1_555 1_555
C18_20 C17_20 1_555 1_555
H10_20 C18_20 1_555 1_555
C19_20 C18_20 1_555 1_555
C20_20 C19_20 1_555 1_555
C21_20 C16_20 1_555 1_555
O10_20 C19_20 1_555 1_555
Th4_3 O3_12 1_555 1_555
C13_12 C14_12 1_555 1_555
C20_20 C21_20 1_555 1_555
C26_20 O10_20 1_555 1_555
C1_12 C2_12 1_555 1_555
C2_12 C3_12 1_555 1_555
C3_12 H1_12 1_555 1_555
C4_12 C3_12 1_555 1_555
H2_12 C4_12 1_555 1_555
C5_12 C4_12 1_555 1_555
C6_12 C5_12 1_555 1_555
C7_12 C2_12 1_555 1_555
H4_12 C7_12 1_555 1_555
O1_8 C1_12 1_555 1_555
O2_8 C1_12 1_555 1_555
O5_12 C5_12 1_555 1_555
Th1_8 O1_8 1_555 1_555
O6_12 C15_20 1_555 1_555
O7_12 Th1_8 1_555 1_555
O11_16 Th1_8 1_555 1_555
O12_16 Th1_8 1_555 1_555
O14_16 Th1_8 1_555 1_555
O16_16 Th1_8 1_555 1_555
Th2_8 O6_12 1_555 1_555
Th3_8 O2_8 1_555 1_555
C6_12 C7_12 1_555 1_555
C12_12 O5_12 1_555 1_555
C15_20 O7_12 1_555 1_555
C22_20 C23_20 1_555 1_555
C23_20 C24_20 1_555 1_555
C24_20 H13_20 1_555 1_555
C25_20 C24_20 1_555 1_555
H15_20 C27_20 1_555 1_555
C28_20 C23_20 1_555 1_555
H16_20 C28_20 1_555 1_555
O8_20 C22_20 1_555 1_555
O9_20 C22_20 1_555 1_555
Th7 O9_20 1_555 1_555
Th5 O8_20 1_555 1_555
C27_20 C28_20 1_555 1_555
O6_13 C15_21 1_555 1_555
O7_13 Th2_8 1_555 1_555
O11_17 Th2_8 1_555 1_555
O12_17 Th2_8 1_555 1_555
O14_17 Th2_8 1_555 1_555
O16_17 Th2_8 1_555 1_555
Th3_8 O6_13 1_555 1_555
C15_21 O7_13 1_555 1_555
C16_21 C17_21 1_555 1_555
C17_21 H9_21 1_555 1_555
C18_21 C17_21 1_555 1_555
H10_21 C18_21 1_555 1_555
C19_21 C18_21 1_555 1_555
C20_21 C19_21 1_555 1_555
H11_21 C20_21 1_555 1_555
C21_21 C16_21 1_555 1_555
C22_21 C23_21 1_555 1_555
C23_21 C24_21 1_555 1_555
C24_21 H13_21 1_555 1_555
C25_21 C24_21 1_555 1_555
H14_21 C25_21 1_555 1_555
C26_21 C25_21 1_555 1_555
C27_21 C26_21 1_555 1_555
H15_21 C27_21 1_555 1_555
C28_21 C23_21 1_555 1_555
H16_21 C28_21 1_555 1_555
O8_21 C22_21 1_555 1_555
O9_21 C22_21 1_555 1_555
O10_21 C19_21 1_555 1_555
Th5_8 O8_21 1_555 1_555
C20_21 C21_21 1_555 1_555
C26_21 O10_21 1_555 1_555
C27_21 C28_21 1_555 1_555
C22_22 C23_22 1_555 1_555
C23_22 C24_22 1_555 1_555
C24_22 H13_22 1_555 1_555
C25_22 C24_22 1_555 1_555
H15_22 C27_22 1_555 1_555
C28_22 C23_22 1_555 1_555
H16_22 C28_22 1_555 1_555
O8_22 C22_22 1_555 1_555
O9_22 C22_22 1_555 1_555
Th5_7 O8_22 1_555 1_555
C27_22 C28_22 1_555 1_555
C15_22 C16_22 1_555 1_555
C16_22 C17_22 1_555 1_555
C17_22 H9_22 1_555 1_555
C18_22 C17_22 1_555 1_555
H10_22 C18_22 1_555 1_555
C19_22 C18_22 1_555 1_555
C20_22 C19_22 1_555 1_555
C21_22 C16_22 1_555 1_555
H12_22 C21_22 1_555 1_555
O6_14 C15_22 1_555 1_555
O7_14 Th2_5 1_555 1_555
O10_22 C19_22 1_555 1_555
O11_18 Th2_5 1_555 1_555
O12_18 Th2_5 1_555 1_555
O13_18 Th2_5 1_555 1_555
O14_18 Th2_5 1_555 1_555
O15_18 Th2_5 1_555 1_555
O16_18 Th2_5 1_555 1_555
Th3_5 O6_14 1_555 1_555
C15_22 O7_14 1_555 1_555
C20_22 C21_22 1_555 1_555
C26_22 O10_22 1_555 1_555
C15_23 C16_23 1_555 1_555
C16_23 C17_23 1_555 1_555
C17_23 H9_23 1_555 1_555
C18_23 C17_23 1_555 1_555
H10_23 C18_23 1_555 1_555
C19_23 C18_23 1_555 1_555
C20_23 C19_23 1_555 1_555
H11_23 C20_23 1_555 1_555
C21_23 C16_23 1_555 1_555
H12_23 C21_23 1_555 1_555
C22_23 C23_23 1_555 1_555
C23_23 C24_23 1_555 1_555
C24_23 H13_23 1_555 1_555
C25_23 C24_23 1_555 1_555
H14_23 C25_23 1_555 1_555
C26_23 C25_23 1_555 1_555
C27_23 C26_23 1_555 1_555
H15_23 C27_23 1_555 1_555
C28_23 C23_23 1_555 1_555
H16_23 C28_23 1_555 1_555
O6_15 C15_23 1_555 1_555
O7_15 Th2_7 1_555 1_555
O8_23 C22_23 1_555 1_555
O9_23 C22_23 1_555 1_555
O10_23 C19_23 1_555 1_555
O11_19 Th2_7 1_555 1_555
O12_19 Th2_7 1_555 1_555
O13_19 Th2_7 1_555 1_555
O14_19 Th2_7 1_555 1_555
O15_19 Th2_7 1_555 1_555
O16_19 Th2_7 1_555 1_555
Th3_7 O6_15 1_555 1_555
Th7_6 O9_23 1_555 1_555
Th5_6 O8_23 1_555 1_555
C15_23 O7_15 1_555 1_555
C20_23 C21_23 1_555 1_555
C26_23 O10_23 1_555 1_555
C27_23 C28_23 1_555 1_555
C16_24 C17_24 1_555 1_555
C17_24 H9_24 1_555 1_555
C18_24 C17_24 1_555 1_555
H10_24 C18_24 1_555 1_555
C19_24 C18_24 1_555 1_555
C20_24 C19_24 1_555 1_555
C21_24 C16_24 1_555 1_555
O10_24 C19_24 1_555 1_555
C20_24 C21_24 1_555 1_555
C26_24 O10_24 1_555 1_555
C22_24 C23_24 1_555 1_555
C23_24 C24_24 1_555 1_555
C24_24 H13_24 1_555 1_555
C25_24 C24_24 1_555 1_555
H15_24 C27_24 1_555 1_555
C28_24 C23_24 1_555 1_555
H16_24 C28_24 1_555 1_555
O8_24 C22_24 1_555 1_555
O9_24 C22_24 1_555 1_555
Th7_5 O9_24 1_555 1_555
Th5_5 O8_24 1_555 1_555
C27_24 C28_24 1_555 1_555
O6_16 C15_24 1_555 1_555
O7_16 Th2_6 1_555 1_555
O11_20 Th2_6 1_555 1_555
O12_20 Th2_6 1_555 1_555
O14_20 Th2_6 1_555 1_555
O16_20 Th2_6 1_555 1_555
Th3_6 O6_16 1_555 1_555
C15_24 O7_16 1_555 1_555
O11_21 Th3_6 1_555 1_555
O12_21 Th3_6 1_555 1_555
O14_21 Th3_6 1_555 1_555
O16_21 Th3_6 1_555 1_555
O11_22 Th3_8 1_555 1_555
O12_22 Th3_8 1_555 1_555
O13_22 Th3_8 1_555 1_555
O14_22 Th3_8 1_555 1_555
O15_22 Th3_8 1_555 1_555
O16_22 Th3_8 1_555 1_555
O11_23 Th3_7 1_555 1_555
O12_23 Th3_7 1_555 1_555
O13_23 Th3_7 1_555 1_555
O14_23 Th3_7 1_555 1_555
O15_23 Th3_7 1_555 1_555
O16_23 Th3_7 1_555 1_555
O11_24 Th3_5 1_555 1_555
O12_24 Th3_5 1_555 1_555
O14_24 Th3_5 1_555 1_555
O16_24 Th3_5 1_555 1_555
C1_13 C2_13 1_555 1_555
C2_13 C3_13 1_555 1_555
C3_13 H1_13 1_555 1_555
C4_13 C3_13 1_555 1_555
H2_13 C4_13 1_555 1_555
C5_13 C4_13 1_555 1_555
C6_13 C5_13 1_555 1_555
H3_13 C6_13 1_555 1_555
C7_13 C2_13 1_555 1_555
H4_13 C7_13 1_555 1_555
C8_13 C9_13 1_555 1_555
C9_13 C10_13 1_555 1_555
C10_13 H5_13 1_555 1_555
C11_13 C10_13 1_555 1_555
H6_13 C11_13 1_555 1_555
C12_13 C11_13 1_555 1_555
C13_13 C12_13 1_555 1_555
H7_13 C13_13 1_555 1_555
C14_13 C9_13 1_555 1_555
H8_13 C14_13 1_555 1_555
O11_24 C1_13 1_555 1_555
O12_13 C1_13 1_555 1_555
O3_13 C8_13 1_555 1_555
O4_13 C8_13 1_555 1_555
O5_13 C5_13 1_555 1_555
C15_25 C16_25 1_555 1_555
C16_25 C17_25 1_555 1_555
C17_25 H9_25 1_555 1_555
C18_25 C17_25 1_555 1_555
H10_25 C18_25 1_555 1_555
C19_25 C18_25 1_555 1_555
C20_25 C19_25 1_555 1_555
H11_25 C20_25 1_555 1_555
C21_25 C16_25 1_555 1_555
H12_25 C21_25 1_555 1_555
C22_25 C23_25 1_555 1_555
C23_25 C24_25 1_555 1_555
C24_25 H13_25 1_555 1_555
C25_25 C24_25 1_555 1_555
H14_25 C25_25 1_555 1_555
C26_25 C25_25 1_555 1_555
C27_25 C26_25 1_555 1_555
H15_25 C27_25 1_555 1_555
C28_25 C23_25 1_555 1_555
H16_25 C28_25 1_555 1_555
O11_18 C15_25 1_555 1_555
O8_25 C22_25 1_555 1_555
O9_25 C22_25 1_555 1_555
O10_25 C19_25 1_555 1_555
Th4 O4_13 1_555 1_555
Th5_6 O9_25 1_555 1_555
Th7_6 O8_25 1_555 1_555
C6_13 C7_13 1_555 1_555
C12_13 O5_13 1_555 1_555
C13_13 C14_13 1_555 1_555
C15_25 O12_24 1_555 1_555
C20_25 C21_25 1_555 1_555
C26_25 O10_25 1_555 1_555
C27_25 C28_25 1_555 1_555
C1_14 C2_14 1_555 1_555
C2_14 C3_14 1_555 1_555
C3_14 H1_14 1_555 1_555
C4_14 C3_14 1_555 1_555
H2_14 C4_14 1_555 1_555
C5_14 C4_14 1_555 1_555
C6_14 C5_14 1_555 1_555
H3_14 C6_14 1_555 1_555
C7_14 C2_14 1_555 1_555
H4_14 C7_14 1_555 1_555
C8_14 C9_14 1_555 1_555
C9_14 C10_14 1_555 1_555
C10_14 H5_14 1_555 1_555
C11_14 C10_14 1_555 1_555
H6_14 C11_14 1_555 1_555
C12_14 C11_14 1_555 1_555
C13_14 C12_14 1_555 1_555
H7_14 C13_14 1_555 1_555
C14_14 C9_14 1_555 1_555
H8_14 C14_14 1_555 1_555
O11_21 C1_14 1_555 1_555
O12_14 C1_14 1_555 1_555
O3_14 C8_14 1_555 1_555
O4_14 C8_14 1_555 1_555
O5_14 C5_14 1_555 1_555
C15_26 C16_26 1_555 1_555
C16_26 C17_26 1_555 1_555
C17_26 H9_26 1_555 1_555
C18_26 C17_26 1_555 1_555
H10_26 C18_26 1_555 1_555
C19_26 C18_26 1_555 1_555
C20_26 C19_26 1_555 1_555
H11_26 C20_26 1_555 1_555
C21_26 C16_26 1_555 1_555
H12_26 C21_26 1_555 1_555
C22_26 C23_26 1_555 1_555
C23_26 C24_26 1_555 1_555
C24_26 H13_26 1_555 1_555
C25_26 C24_26 1_555 1_555
H14_26 C25_26 1_555 1_555
C26_26 C25_26 1_555 1_555
C27_26 C26_26 1_555 1_555
H15_26 C27_26 1_555 1_555
C28_26 C23_26 1_555 1_555
H16_26 C28_26 1_555 1_555
O11_20 C15_26 1_555 1_555
O8_26 C22_26 1_555 1_555
O9_26 C22_26 1_555 1_555
O10_26 C19_26 1_555 1_555
Th4_2 O4_14 1_555 1_555
Th5_8 O9_26 1_555 1_555
Th6_2 O3_14 1_555 1_555
C6_14 C7_14 1_555 1_555
C12_14 O5_14 1_555 1_555
C13_14 C14_14 1_555 1_555
C15_26 O12_21 1_555 1_555
C20_26 C21_26 1_555 1_555
C26_26 O10_26 1_555 1_555
C27_26 C28_26 1_555 1_555
C1_15 C2_15 1_555 1_555
C2_15 C3_15 1_555 1_555
C3_15 H1_15 1_555 1_555
C4_15 C3_15 1_555 1_555
H2_15 C4_15 1_555 1_555
C5_15 C4_15 1_555 1_555
C6_15 C5_15 1_555 1_555
H3_15 C6_15 1_555 1_555
C7_15 C2_15 1_555 1_555
H4_15 C7_15 1_555 1_555
C8_15 C9_15 1_555 1_555
C9_15 C10_15 1_555 1_555
C10_15 H5_15 1_555 1_555
C11_15 C10_15 1_555 1_555
H6_15 C11_15 1_555 1_555
C12_15 C11_15 1_555 1_555
C13_15 C12_15 1_555 1_555
H7_15 C13_15 1_555 1_555
C14_15 C9_15 1_555 1_555
H8_15 C14_15 1_555 1_555
O11_22 C1_15 1_555 1_555
O12_16 C1_15 1_555 1_555
O3_15 C8_15 1_555 1_555
O4_15 C8_15 1_555 1_555
O5_15 C5_15 1_555 1_555
C15_27 C16_27 1_555 1_555
C16_27 C17_27 1_555 1_555
C17_27 H9_27 1_555 1_555
C18_27 C17_27 1_555 1_555
H10_27 C18_27 1_555 1_555
C19_27 C18_27 1_555 1_555
C20_27 C19_27 1_555 1_555
H11_27 C20_27 1_555 1_555
C21_27 C16_27 1_555 1_555
H12_27 C21_27 1_555 1_555
C22_27 C23_27 1_555 1_555
C23_27 C24_27 1_555 1_555
C24_27 H13_27 1_555 1_555
C25_27 C24_27 1_555 1_555
H14_27 C25_27 1_555 1_555
C26_27 C25_27 1_555 1_555
C27_27 C26_27 1_555 1_555
H15_27 C27_27 1_555 1_555
C28_27 C23_27 1_555 1_555
H16_27 C28_27 1_555 1_555
O11_17 C15_27 1_555 1_555
O8_27 C22_27 1_555 1_555
O9_27 C22_27 1_555 1_555
O10_27 C19_27 1_555 1_555
Th4_4 O4_15 1_555 1_555
Th5_5 O9_27 1_555 1_555
Th6_4 O3_15 1_555 1_555
Th7_5 O8_27 1_555 1_555
C6_15 C7_15 1_555 1_555
C12_15 O5_15 1_555 1_555
C13_15 C14_15 1_555 1_555
C15_27 O12_22 1_555 1_555
C20_27 C21_27 1_555 1_555
C26_27 O10_27 1_555 1_555
C27_27 C28_27 1_555 1_555
C1_16 C2_16 1_555 1_555
C2_16 C3_16 1_555 1_555
C3_16 H1_16 1_555 1_555
C4_16 C3_16 1_555 1_555
H2_16 C4_16 1_555 1_555
C5_16 C4_16 1_555 1_555
C6_16 C5_16 1_555 1_555
H3_16 C6_16 1_555 1_555
C7_16 C2_16 1_555 1_555
H4_16 C7_16 1_555 1_555
C8_16 C9_16 1_555 1_555
C9_16 C10_16 1_555 1_555
C10_16 H5_16 1_555 1_555
C11_16 C10_16 1_555 1_555
H6_16 C11_16 1_555 1_555
C12_16 C11_16 1_555 1_555
C13_16 C12_16 1_555 1_555
H7_16 C13_16 1_555 1_555
C14_16 C9_16 1_555 1_555
H8_16 C14_16 1_555 1_555
O11_23 C1_16 1_555 1_555
O12_15 C1_16 1_555 1_555
O3_16 C8_16 1_555 1_555
O4_16 C8_16 1_555 1_555
O5_16 C5_16 1_555 1_555
C15_28 C16_28 1_555 1_555
C16_28 C17_28 1_555 1_555
C17_28 H9_28 1_555 1_555
C18_28 C17_28 1_555 1_555
H10_28 C18_28 1_555 1_555
C19_28 C18_28 1_555 1_555
C20_28 C19_28 1_555 1_555
H11_28 C20_28 1_555 1_555
C21_28 C16_28 1_555 1_555
H12_28 C21_28 1_555 1_555
C22_28 C23_28 1_555 1_555
C23_28 C24_28 1_555 1_555
C24_28 H13_28 1_555 1_555
C25_28 C24_28 1_555 1_555
H14_28 C25_28 1_555 1_555
C26_28 C25_28 1_555 1_555
C27_28 C26_28 1_555 1_555
H15_28 C27_28 1_555 1_555
C28_28 C23_28 1_555 1_555
H16_28 C28_28 1_555 1_555
O11_19 C15_28 1_555 1_555
O8_28 C22_28 1_555 1_555
O9_28 C22_28 1_555 1_555
O10_28 C19_28 1_555 1_555
Th4_3 O4_16 1_555 1_555
Th5_7 O9_28 1_555 1_555
C6_16 C7_16 1_555 1_555
C12_16 O5_16 1_555 1_555
C13_16 C14_16 1_555 1_555
C15_28 O12_23 1_555 1_555
C20_28 C21_28 1_555 1_555
C26_28 O10_28 1_555 1_555
C27_28 C28_28 1_555 1_555
C15_29 C16_29 1_555 1_555
C16_29 C17_29 1_555 1_555
C17_29 H9_29 1_555 1_555
C18_29 C17_29 1_555 1_555
H10_29 C18_29 1_555 1_555
C19_29 C18_29 1_555 1_555
C20_29 C19_29 1_555 1_555
H11_29 C20_29 1_555 1_555
C21_29 C16_29 1_555 1_555
H12_29 C21_29 1_555 1_555
C22_29 C23_29 1_555 1_555
C23_29 C24_29 1_555 1_555
C24_29 H13_29 1_555 1_555
C25_29 C24_29 1_555 1_555
H14_29 C25_29 1_555 1_555
C26_29 C25_29 1_555 1_555
C27_29 C26_29 1_555 1_555
H15_29 C27_29 1_555 1_555
C28_29 C23_29 1_555 1_555
H16_29 C28_29 1_555 1_555
O11_15 C15_29 1_555 1_555
O8_29 C22_29 1_555 1_555
O9_29 C22_29 1_555 1_555
O10_29 C19_29 1_555 1_555
Th5_3 O9_29 1_555 1_555
C15_29 O12_19 1_555 1_555
C20_29 C21_29 1_555 1_555
C26_29 O10_29 1_555 1_555
C27_29 C28_29 1_555 1_555
C15_30 C16_30 1_555 1_555
C16_30 C17_30 1_555 1_555
C17_30 H9_30 1_555 1_555
C18_30 C17_30 1_555 1_555
H10_30 C18_30 1_555 1_555
C19_30 C18_30 1_555 1_555
C20_30 C19_30 1_555 1_555
H11_30 C20_30 1_555 1_555
C21_30 C16_30 1_555 1_555
H12_30 C21_30 1_555 1_555
C22_30 C23_30 1_555 1_555
C23_30 C24_30 1_555 1_555
C24_30 H13_30 1_555 1_555
C25_30 C24_30 1_555 1_555
H14_30 C25_30 1_555 1_555
C26_30 C25_30 1_555 1_555
C27_30 C26_30 1_555 1_555
H15_30 C27_30 1_555 1_555
C28_30 C23_30 1_555 1_555
H16_30 C28_30 1_555 1_555
O11_13 C15_30 1_555 1_555
O8_30 C22_30 1_555 1_555
O9_30 C22_30 1_555 1_555
O10_30 C19_30 1_555 1_555
Th5 O9_30 1_555 1_555
Th7 O8_30 1_555 1_555
C15_30 O12_18 1_555 1_555
C20_30 C21_30 1_555 1_555
C26_30 O10_30 1_555 1_555
C27_30 C28_30 1_555 1_555
C15_31 C16_31 1_555 1_555
C16_31 C17_31 1_555 1_555
C17_31 H9_31 1_555 1_555
C18_31 C17_31 1_555 1_555
H10_31 C18_31 1_555 1_555
C19_31 C18_31 1_555 1_555
C20_31 C19_31 1_555 1_555
H11_31 C20_31 1_555 1_555
C21_31 C16_31 1_555 1_555
H12_31 C21_31 1_555 1_555
C22_31 C23_31 1_555 1_555
C23_31 C24_31 1_555 1_555
C24_31 H13_31 1_555 1_555
C25_31 C24_31 1_555 1_555
H14_31 C25_31 1_555 1_555
C26_31 C25_31 1_555 1_555
C27_31 C26_31 1_555 1_555
H15_31 C27_31 1_555 1_555
C28_31 C23_31 1_555 1_555
H16_31 C28_31 1_555 1_555
O11_16 C15_31 1_555 1_555
O8_31 C22_31 1_555 1_555
O9_31 C22_31 1_555 1_555
O10_31 C19_31 1_555 1_555
Th5_4 O9_31 1_555 1_555
C15_31 O12_17 1_555 1_555
C20_31 C21_31 1_555 1_555
C26_31 O10_31 1_555 1_555
C27_31 C28_31 1_555 1_555
C15_32 C16_32 1_555 1_555
C16_32 C17_32 1_555 1_555
C17_32 H9_32 1_555 1_555
C18_32 C17_32 1_555 1_555
H10_32 C18_32 1_555 1_555
C19_32 C18_32 1_555 1_555
C20_32 C19_32 1_555 1_555
H11_32 C20_32 1_555 1_555
C21_32 C16_32 1_555 1_555
H12_32 C21_32 1_555 1_555
C22_32 C23_32 1_555 1_555
C23_32 C24_32 1_555 1_555
C24_32 H13_32 1_555 1_555
C25_32 C24_32 1_555 1_555
H14_32 C25_32 1_555 1_555
C26_32 C25_32 1_555 1_555
C27_32 C26_32 1_555 1_555
H15_32 C27_32 1_555 1_555
C28_32 C23_32 1_555 1_555
H16_32 C28_32 1_555 1_555
O11_14 C15_32 1_555 1_555
O8_32 C22_32 1_555 1_555
O9_32 C22_32 1_555 1_555
O10_32 C19_32 1_555 1_555
Th5_2 O9_32 1_555 1_555
Th7_2 O8_32 1_555 1_555
C15_32 O12_20 1_555 1_555
C20_32 C21_32 1_555 1_555
C26_32 O10_32 1_555 1_555
C27_32 C28_32 1_555 1_555
C22_33 C23_33 1_555 1_555
C23_33 C24_33 1_555 1_555
C24_33 H13_33 1_555 1_555
C25_33 C24_33 1_555 1_555
H15_33 C27_33 1_555 1_555
C28_33 C23_33 1_555 1_555
H16_33 C28_33 1_555 1_555
O14_22 C22_33 1_555 1_555
O15_12 C22_33 1_555 1_555
C27_33 C28_33 1_555 1_555
C1_17 C2_17 1_555 1_555
C2_17 C3_17 1_555 1_555
C3_17 H1_17 1_555 1_555
C4_17 C3_17 1_555 1_555
H2_17 C4_17 1_555 1_555
C5_17 C4_17 1_555 1_555
C6_17 C5_17 1_555 1_555
H3_17 C6_17 1_555 1_555
C7_17 C2_17 1_555 1_555
H4_17 C7_17 1_555 1_555
C8_17 C9_17 1_555 1_555
C9_17 C10_17 1_555 1_555
C10_17 H5_17 1_555 1_555
C11_17 C10_17 1_555 1_555
H6_17 C11_17 1_555 1_555
C12_17 C11_17 1_555 1_555
C13_17 C12_17 1_555 1_555
H7_17 C13_17 1_555 1_555
C14_17 C9_17 1_555 1_555
H8_17 C14_17 1_555 1_555
O1_9 C1_17 1_555 1_555
O2_9 C1_17 1_555 1_555
O14_20 C8_17 1_555 1_555
O15_6 C8_17 1_555 1_555
O5_17 C5_17 1_555 1_555
Th5_6 O1_9 1_555 1_555
C15_33 C16_33 1_555 1_555
C16_33 C17_33 1_555 1_555
C17_33 H9_33 1_555 1_555
C18_33 C17_33 1_555 1_555
H10_33 C18_33 1_555 1_555
C19_33 C18_33 1_555 1_555
C20_33 C19_33 1_555 1_555
C21_33 C16_33 1_555 1_555
H12_33 C21_33 1_555 1_555
O6_17 C15_33 1_555 1_555
O7_17 Th5_6 1_555 1_555
O10_33 C19_33 1_555 1_555
O11_25 Th5_6 1_555 1_555
O12_25 Th5_6 1_555 1_555
Th4 O6_17 1_555 1_555
Th5 O2_9 1_555 1_555
C6_17 C7_17 1_555 1_555
C12_17 O5_17 1_555 1_555
C13_17 C14_17 1_555 1_555
C15_33 O7_17 1_555 1_555
C20_33 C21_33 1_555 1_555
C26_33 O10_33 1_555 1_555
C8_18 C9_18 1_555 1_555
C9_18 C10_18 1_555 1_555
C10_18 H5_18 1_555 1_555
C11_18 C10_18 1_555 1_555
H7_18 C13_18 1_555 1_555
C14_18 C9_18 1_555 1_555
H8_18 C14_18 1_555 1_555
O14_18 C8_18 1_555 1_555
O15_8 C8_18 1_555 1_555
C16_34 C17_34 1_555 1_555
C17_34 H9_34 1_555 1_555
C18_34 C17_34 1_555 1_555
H10_34 C18_34 1_555 1_555
C19_34 C18_34 1_555 1_555
C20_34 C19_34 1_555 1_555
H11_34 C20_34 1_555 1_555
C21_34 C16_34 1_555 1_555
C22_34 C23_34 1_555 1_555
C23_34 C24_34 1_555 1_555
C24_34 H13_34 1_555 1_555
C25_34 C24_34 1_555 1_555
H14_34 C25_34 1_555 1_555
C26_34 C25_34 1_555 1_555
C27_34 C26_34 1_555 1_555
H15_34 C27_34 1_555 1_555
C28_34 C23_34 1_555 1_555
H16_34 C28_34 1_555 1_555
O14_23 C22_34 1_555 1_555
O15_9 C22_34 1_555 1_555
O10_34 C19_34 1_555 1_555
C13_18 C14_18 1_555 1_555
C20_34 C21_34 1_555 1_555
C26_34 O10_34 1_555 1_555
C27_34 C28_34 1_555 1_555
C1_18 C2_18 1_555 1_555
C2_18 C3_18 1_555 1_555
C3_18 H1_18 1_555 1_555
C4_18 C3_18 1_555 1_555
H2_18 C4_18 1_555 1_555
C5_18 C4_18 1_555 1_555
C6_18 C5_18 1_555 1_555
C7_18 C2_18 1_555 1_555
H4_18 C7_18 1_555 1_555
O1_10 C1_18 1_555 1_555
O2_10 C1_18 1_555 1_555
O5_18 C5_18 1_555 1_555
Th5_8 O1_10 1_555 1_555
O6_18 C15_34 1_555 1_555
O7_18 Th5_8 1_555 1_555
O11_26 Th5_8 1_555 1_555
O12_26 Th5_8 1_555 1_555
Th4_2 O6_18 1_555 1_555
Th5_2 O2_10 1_555 1_555
C6_18 C7_18 1_555 1_555
C12_18 O5_18 1_555 1_555
C15_34 O7_18 1_555 1_555
O1_11 C1_19 1_555 1_555
O2_11 C1_19 1_555 1_555
Th5_7 O1_11 1_555 1_555
O6_19 C15_35 1_555 1_555
O7_19 Th5_7 1_555 1_555
O11_27 Th5_7 1_555 1_555
O12_27 Th5_7 1_555 1_555
Th4_3 O6_19 1_555 1_555
Th5_3 O2_11 1_555 1_555
C15_35 O7_19 1_555 1_555
C16_35 C17_35 1_555 1_555
C17_35 H9_35 1_555 1_555
C18_35 C17_35 1_555 1_555
H10_35 C18_35 1_555 1_555
C19_35 C18_35 1_555 1_555
C20_35 C19_35 1_555 1_555
C21_35 C16_35 1_555 1_555
O10_35 C19_35 1_555 1_555
C20_35 C21_35 1_555 1_555
C26_35 O10_35 1_555 1_555
C2_19 C3_19 1_555 1_555
C3_19 H1_19 1_555 1_555
C4_19 C3_19 1_555 1_555
H2_19 C4_19 1_555 1_555
C5_19 C4_19 1_555 1_555
C6_19 C5_19 1_555 1_555
C7_19 C2_19 1_555 1_555
O5_19 C5_19 1_555 1_555
C6_19 C7_19 1_555 1_555
C12_19 O5_19 1_555 1_555
C8_19 C9_19 1_555 1_555
C9_19 C10_19 1_555 1_555
C10_19 H5_19 1_555 1_555
C11_19 C10_19 1_555 1_555
H7_19 C13_19 1_555 1_555
C14_19 C9_19 1_555 1_555
H8_19 C14_19 1_555 1_555
O14_17 C8_19 1_555 1_555
O15_7 C8_19 1_555 1_555
C13_19 C14_19 1_555 1_555
C22_35 C23_35 1_555 1_555
C23_35 C24_35 1_555 1_555
C24_35 H13_35 1_555 1_555
C25_35 C24_35 1_555 1_555
H15_35 C27_35 1_555 1_555
C28_35 C23_35 1_555 1_555
H16_35 C28_35 1_555 1_555
O14_21 C22_35 1_555 1_555
O15_11 C22_35 1_555 1_555
C27_35 C28_35 1_555 1_555
C2_20 C3_20 1_555 1_555
C3_20 H1_20 1_555 1_555
C4_20 C3_20 1_555 1_555
H2_20 C4_20 1_555 1_555
C5_20 C4_20 1_555 1_555
C6_20 C5_20 1_555 1_555
H3_20 C6_20 1_555 1_555
C7_20 C2_20 1_555 1_555
C8_20 C9_20 1_555 1_555
C9_20 C10_20 1_555 1_555
C10_20 H5_20 1_555 1_555
C11_20 C10_20 1_555 1_555
H6_20 C11_20 1_555 1_555
C12_20 C11_20 1_555 1_555
C13_20 C12_20 1_555 1_555
H7_20 C13_20 1_555 1_555
C14_20 C9_20 1_555 1_555
H8_20 C14_20 1_555 1_555
O14_19 C8_20 1_555 1_555
O15_5 C8_20 1_555 1_555
O5_20 C5_20 1_555 1_555
C6_20 C7_20 1_555 1_555
C12_20 O5_20 1_555 1_555
C13_20 C14_20 1_555 1_555
O1_12 C1_20 1_555 1_555
O2_12 C1_20 1_555 1_555
Th5_5 O1_12 1_555 1_555
C15_36 C16_36 1_555 1_555
C16_36 C17_36 1_555 1_555
C17_36 H9_36 1_555 1_555
C18_36 C17_36 1_555 1_555
H10_36 C18_36 1_555 1_555
C19_36 C18_36 1_555 1_555
C20_36 C19_36 1_555 1_555
H11_36 C20_36 1_555 1_555
C21_36 C16_36 1_555 1_555
H12_36 C21_36 1_555 1_555
C22_36 C23_36 1_555 1_555
C23_36 C24_36 1_555 1_555
C24_36 H13_36 1_555 1_555
C25_36 C24_36 1_555 1_555
H14_36 C25_36 1_555 1_555
C26_36 C25_36 1_555 1_555
C27_36 C26_36 1_555 1_555
H15_36 C27_36 1_555 1_555
C28_36 C23_36 1_555 1_555
H16_36 C28_36 1_555 1_555
O6_20 C15_36 1_555 1_555
O7_20 Th5_5 1_555 1_555
O14_24 C22_36 1_555 1_555
O15_10 C22_36 1_555 1_555
O10_36 C19_36 1_555 1_555
O11_28 Th5_5 1_555 1_555
O12_28 Th5_5 1_555 1_555
Th4_4 O6_20 1_555 1_555
Th5_4 O2_12 1_555 1_555
C15_36 O7_20 1_555 1_555
C20_36 C21_36 1_555 1_555
C26_36 O10_36 1_555 1_555
C27_36 C28_36 1_555 1_555
C22_37 C23_37 1_555 1_555
C23_37 C24_37 1_555 1_555
C24_37 H13_37 1_555 1_555
C25_37 C24_37 1_555 1_555
H15_37 C27_37 1_555 1_555
C28_37 C23_37 1_555 1_555
H16_37 C28_37 1_555 1_555
O14_14 C22_37 1_555 1_555
O15_4 C22_37 1_555 1_555
C27_37 C28_37 1_555 1_555
C15_37 C16_37 1_555 1_555
C16_37 C17_37 1_555 1_555
C17_37 H9_37 1_555 1_555
C18_37 C17_37 1_555 1_555
H10_37 C18_37 1_555 1_555
C19_37 C18_37 1_555 1_555
C20_37 C19_37 1_555 1_555
C21_37 C16_37 1_555 1_555
H12_37 C21_37 1_555 1_555
O6_21 C15_37 1_555 1_555
O7_21 Th4_4 1_555 1_555
O10_37 C19_37 1_555 1_555
O11_29 Th4_4 1_555 1_555
O12_29 Th4_4 1_555 1_555
Th5_4 O6_21 1_555 1_555
C15_37 O7_21 1_555 1_555
C20_37 C21_37 1_555 1_555
C26_37 O10_37 1_555 1_555
C16_38 C17_38 1_555 1_555
C17_38 H9_38 1_555 1_555
C18_38 C17_38 1_555 1_555
H10_38 C18_38 1_555 1_555
C19_38 C18_38 1_555 1_555
C20_38 C19_38 1_555 1_555
H11_38 C20_38 1_555 1_555
C21_38 C16_38 1_555 1_555
C22_38 C23_38 1_555 1_555
C23_38 C24_38 1_555 1_555
C24_38 H13_38 1_555 1_555
C25_38 C24_38 1_555 1_555
H14_38 C25_38 1_555 1_555
C26_38 C25_38 1_555 1_555
C27_38 C26_38 1_555 1_555
H15_38 C27_38 1_555 1_555
C28_38 C23_38 1_555 1_555
H16_38 C28_38 1_555 1_555
O14_15 C22_38 1_555 1_555
O15 C22_38 1_555 1_555
O10_38 C19_38 1_555 1_555
C20_38 C21_38 1_555 1_555
C26_38 O10_38 1_555 1_555
C27_38 C28_38 1_555 1_555
O6_22 C15_38 1_555 1_555
O7_22 Th4 1_555 1_555
O11_30 Th4 1_555 1_555
O12_30 Th4 1_555 1_555
Th5 O6_22 1_555 1_555
C15_38 O7_22 1_555 1_555
O6_23 C15_39 1_555 1_555
O7_23 Th4_3 1_555 1_555
O11_31 Th4_3 1_555 1_555
O12_31 Th4_3 1_555 1_555
Th5_3 O6_23 1_555 1_555
C15_39 O7_23 1_555 1_555
C16_39 C17_39 1_555 1_555
C17_39 H9_39 1_555 1_555
C18_39 C17_39 1_555 1_555
H10_39 C18_39 1_555 1_555
C19_39 C18_39 1_555 1_555
C20_39 C19_39 1_555 1_555
C21_39 C16_39 1_555 1_555
O10_39 C19_39 1_555 1_555
C20_39 C21_39 1_555 1_555
C26_39 O10_39 1_555 1_555
C22_39 C23_39 1_555 1_555
C23_39 C24_39 1_555 1_555
C24_39 H13_39 1_555 1_555
C25_39 C24_39 1_555 1_555
H15_39 C27_39 1_555 1_555
C28_39 C23_39 1_555 1_555
H16_39 C28_39 1_555 1_555
O14_13 C22_39 1_555 1_555
O15_3 C22_39 1_555 1_555
C27_39 C28_39 1_555 1_555
C15_40 C16_40 1_555 1_555
C16_40 C17_40 1_555 1_555
C17_40 H9_40 1_555 1_555
C18_40 C17_40 1_555 1_555
H10_40 C18_40 1_555 1_555
C19_40 C18_40 1_555 1_555
C20_40 C19_40 1_555 1_555
H11_40 C20_40 1_555 1_555
C21_40 C16_40 1_555 1_555
H12_40 C21_40 1_555 1_555
C22_40 C23_40 1_555 1_555
C23_40 C24_40 1_555 1_555
C24_40 H13_40 1_555 1_555
C25_40 C24_40 1_555 1_555
H14_40 C25_40 1_555 1_555
C26_40 C25_40 1_555 1_555
C27_40 C26_40 1_555 1_555
H15_40 C27_40 1_555 1_555
C28_40 C23_40 1_555 1_555
H16_40 C28_40 1_555 1_555
O6_24 C15_40 1_555 1_555
O7_24 Th4_2 1_555 1_555
O14_16 C22_40 1_555 1_555
O15_2 C22_40 1_555 1_555
O10_40 C19_40 1_555 1_555
O11_32 Th4_2 1_555 1_555
O12_32 Th4_2 1_555 1_555
Th5_2 O6_24 1_555 1_555
C15_40 O7_24 1_555 1_555
C20_40 C21_40 1_555 1_555
C26_40 O10_40 1_555 1_555
C27_40 C28_40 1_555 1_555
O11_33 Th5_2 1_555 1_555
O12_33 Th5_2 1_555 1_555
O11_34 Th5_4 1_555 1_555
O12_34 Th5_4 1_555 1_555
O11_35 Th5_3 1_555 1_555
O12_35 Th5_3 1_555 1_555
O11_36 Th5 1_555 1_555
O12_36 Th5 1_555 1_555
C1_21 C2_21 1_555 1_555
C2_21 C3_21 1_555 1_555
C3_21 H1_21 1_555 1_555
C4_21 C3_21 1_555 1_555
H2_21 C4_21 1_555 1_555
C5_21 C4_21 1_555 1_555
C6_21 C5_21 1_555 1_555
H3_21 C6_21 1_555 1_555
C7_21 C2_21 1_555 1_555
H4_21 C7_21 1_555 1_555
C8_21 C9_21 1_555 1_555
C9_21 C10_21 1_555 1_555
C10_21 H5_21 1_555 1_555
C11_21 C10_21 1_555 1_555
H6_21 C11_21 1_555 1_555
C12_21 C11_21 1_555 1_555
C13_21 C12_21 1_555 1_555
H7_21 C13_21 1_555 1_555
C14_21 C9_21 1_555 1_555
H8_21 C14_21 1_555 1_555
O11_36 C1_21 1_555 1_555
O12_25 C1_21 1_555 1_555
O13_8 C8_21 1_555 1_555
O16_18 C8_21 1_555 1_555
O5_21 C5_21 1_555 1_555
C15_41 C16_41 1_555 1_555
C16_41 C17_41 1_555 1_555
C17_41 H9_41 1_555 1_555
C18_41 C17_41 1_555 1_555
H10_41 C18_41 1_555 1_555
C19_41 C18_41 1_555 1_555
C20_41 C19_41 1_555 1_555
H11_41 C20_41 1_555 1_555
C21_41 C16_41 1_555 1_555
H12_41 C21_41 1_555 1_555
C22_41 C23_41 1_555 1_555
C23_41 C24_41 1_555 1_555
C24_41 H13_41 1_555 1_555
C25_41 C24_41 1_555 1_555
H14_41 C25_41 1_555 1_555
C26_41 C25_41 1_555 1_555
C27_41 C26_41 1_555 1_555
H15_41 C27_41 1_555 1_555
C28_41 C23_41 1_555 1_555
H16_41 C28_41 1_555 1_555
O11_30 C15_41 1_555 1_555
O13_3 C22_41 1_555 1_555
O16_13 C22_41 1_555 1_555
O10_41 C19_41 1_555 1_555
C6_21 C7_21 1_555 1_555
C12_21 O5_21 1_555 1_555
C13_21 C14_21 1_555 1_555
C15_41 O12_36 1_555 1_555
C20_41 C21_41 1_555 1_555
C26_41 O10_41 1_555 1_555
C27_41 C28_41 1_555 1_555
C1_22 C2_22 1_555 1_555
C2_22 C3_22 1_555 1_555
C3_22 H1_22 1_555 1_555
C4_22 C3_22 1_555 1_555
H2_22 C4_22 1_555 1_555
C5_22 C4_22 1_555 1_555
C6_22 C5_22 1_555 1_555
H3_22 C6_22 1_555 1_555
C7_22 C2_22 1_555 1_555
H4_22 C7_22 1_555 1_555
C8_22 C9_22 1_555 1_555
C9_22 C10_22 1_555 1_555
C10_22 H5_22 1_555 1_555
C11_22 C10_22 1_555 1_555
H6_22 C11_22 1_555 1_555
C12_22 C11_22 1_555 1_555
C13_22 C12_22 1_555 1_555
H7_22 C13_22 1_555 1_555
C14_22 C9_22 1_555 1_555
H8_22 C14_22 1_555 1_555
O11_33 C1_22 1_555 1_555
O12_26 C1_22 1_555 1_555
O13_6 C8_22 1_555 1_555
O16_20 C8_22 1_555 1_555
O5_22 C5_22 1_555 1_555
C15_42 C16_42 1_555 1_555
C16_42 C17_42 1_555 1_555
C17_42 H9_42 1_555 1_555
C18_42 C17_42 1_555 1_555
H10_42 C18_42 1_555 1_555
C19_42 C18_42 1_555 1_555
C20_42 C19_42 1_555 1_555
H11_42 C20_42 1_555 1_555
C21_42 C16_42 1_555 1_555
H12_42 C21_42 1_555 1_555
C22_42 C23_42 1_555 1_555
C23_42 C24_42 1_555 1_555
C24_42 H13_42 1_555 1_555
C25_42 C24_42 1_555 1_555
H14_42 C25_42 1_555 1_555
C26_42 C25_42 1_555 1_555
C27_42 C26_42 1_555 1_555
H15_42 C27_42 1_555 1_555
C28_42 C23_42 1_555 1_555
H16_42 C28_42 1_555 1_555
O11_32 C15_42 1_555 1_555
O13_4 C22_42 1_555 1_555
O16_14 C22_42 1_555 1_555
O10_42 C19_42 1_555 1_555
C6_22 C7_22 1_555 1_555
C12_22 O5_22 1_555 1_555
C13_22 C14_22 1_555 1_555
C15_42 O12_33 1_555 1_555
C20_42 C21_42 1_555 1_555
C26_42 O10_42 1_555 1_555
C27_42 C28_42 1_555 1_555
C1_23 C2_23 1_555 1_555
C2_23 C3_23 1_555 1_555
C3_23 H1_23 1_555 1_555
C4_23 C3_23 1_555 1_555
H2_23 C4_23 1_555 1_555
C5_23 C4_23 1_555 1_555
C6_23 C5_23 1_555 1_555
H3_23 C6_23 1_555 1_555
C7_23 C2_23 1_555 1_555
H4_23 C7_23 1_555 1_555
C8_23 C9_23 1_555 1_555
C9_23 C10_23 1_555 1_555
C10_23 H5_23 1_555 1_555
C11_23 C10_23 1_555 1_555
H6_23 C11_23 1_555 1_555
C12_23 C11_23 1_555 1_555
C13_23 C12_23 1_555 1_555
H7_23 C13_23 1_555 1_555
C14_23 C9_23 1_555 1_555
H8_23 C14_23 1_555 1_555
O11_34 C1_23 1_555 1_555
O12_28 C1_23 1_555 1_555
O13_7 C8_23 1_555 1_555
O16_17 C8_23 1_555 1_555
O5_23 C5_23 1_555 1_555
C15_43 C16_43 1_555 1_555
C16_43 C17_43 1_555 1_555
C17_43 H9_43 1_555 1_555
C18_43 C17_43 1_555 1_555
H10_43 C18_43 1_555 1_555
C19_43 C18_43 1_555 1_555
C20_43 C19_43 1_555 1_555
H11_43 C20_43 1_555 1_555
C21_43 C16_43 1_555 1_555
H12_43 C21_43 1_555 1_555
C22_43 C23_43 1_555 1_555
C23_43 C24_43 1_555 1_555
C24_43 H13_43 1_555 1_555
C25_43 C24_43 1_555 1_555
H14_43 C25_43 1_555 1_555
C26_43 C25_43 1_555 1_555
C27_43 C26_43 1_555 1_555
H15_43 C27_43 1_555 1_555
C28_43 C23_43 1_555 1_555
H16_43 C28_43 1_555 1_555
O11_29 C15_43 1_555 1_555
O13_2 C22_43 1_555 1_555
O16_16 C22_43 1_555 1_555
O10_43 C19_43 1_555 1_555
C6_23 C7_23 1_555 1_555
C12_23 O5_23 1_555 1_555
C13_23 C14_23 1_555 1_555
C15_43 O12_34 1_555 1_555
C20_43 C21_43 1_555 1_555
C26_43 O10_43 1_555 1_555
C27_43 C28_43 1_555 1_555
C1_24 C2_24 1_555 1_555
C2_24 C3_24 1_555 1_555
C3_24 H1_24 1_555 1_555
C4_24 C3_24 1_555 1_555
H2_24 C4_24 1_555 1_555
C5_24 C4_24 1_555 1_555
C6_24 C5_24 1_555 1_555
H3_24 C6_24 1_555 1_555
C7_24 C2_24 1_555 1_555
H4_24 C7_24 1_555 1_555
C8_24 C9_24 1_555 1_555
C9_24 C10_24 1_555 1_555
C10_24 H5_24 1_555 1_555
C11_24 C10_24 1_555 1_555
H6_24 C11_24 1_555 1_555
C12_24 C11_24 1_555 1_555
C13_24 C12_24 1_555 1_555
H7_24 C13_24 1_555 1_555
C14_24 C9_24 1_555 1_555
H8_24 C14_24 1_555 1_555
O11_35 C1_24 1_555 1_555
O12_27 C1_24 1_555 1_555
O13_5 C8_24 1_555 1_555
O16_19 C8_24 1_555 1_555
O5_24 C5_24 1_555 1_555
C15_44 C16_44 1_555 1_555
C16_44 C17_44 1_555 1_555
C17_44 H9_44 1_555 1_555
C18_44 C17_44 1_555 1_555
H10_44 C18_44 1_555 1_555
C19_44 C18_44 1_555 1_555
C20_44 C19_44 1_555 1_555
H11_44 C20_44 1_555 1_555
C21_44 C16_44 1_555 1_555
H12_44 C21_44 1_555 1_555
C22_44 C23_44 1_555 1_555
C23_44 C24_44 1_555 1_555
C24_44 H13_44 1_555 1_555
C25_44 C24_44 1_555 1_555
H14_44 C25_44 1_555 1_555
C26_44 C25_44 1_555 1_555
C27_44 C26_44 1_555 1_555
H15_44 C27_44 1_555 1_555
C28_44 C23_44 1_555 1_555
H16_44 C28_44 1_555 1_555
O11_31 C15_44 1_555 1_555
O13 C22_44 1_555 1_555
O16_15 C22_44 1_555 1_555
O10_44 C19_44 1_555 1_555
C6_24 C7_24 1_555 1_555
C12_24 O5_24 1_555 1_555
C13_24 C14_24 1_555 1_555
C15_44 O12_35 1_555 1_555
C20_44 C21_44 1_555 1_555
C26_44 O10_44 1_555 1_555
C27_44 C28_44 1_555 1_555
C15_45 C16_45 1_555 1_555
C16_45 C17_45 1_555 1_555
C17_45 H9_45 1_555 1_555
C18_45 C17_45 1_555 1_555
H10_45 C18_45 1_555 1_555
C19_45 C18_45 1_555 1_555
C20_45 C19_45 1_555 1_555
H11_45 C20_45 1_555 1_555
C21_45 C16_45 1_555 1_555
H12_45 C21_45 1_555 1_555
C22_45 C23_45 1_555 1_555
C23_45 C24_45 1_555 1_555
C24_45 H13_45 1_555 1_555
C25_45 C24_45 1_555 1_555
H14_45 C25_45 1_555 1_555
C26_45 C25_45 1_555 1_555
C27_45 C26_45 1_555 1_555
H15_45 C27_45 1_555 1_555
C28_45 C23_45 1_555 1_555
H16_45 C28_45 1_555 1_555
O11_27 C15_45 1_555 1_555
O13_9 C22_45 1_555 1_555
O16_23 C22_45 1_555 1_555
O10_45 C19_45 1_555 1_555
C15_45 O12_31 1_555 1_555
C20_45 C21_45 1_555 1_555
C26_45 O10_45 1_555 1_555
C27_45 C28_45 1_555 1_555
C15_46 C16_46 1_555 1_555
C16_46 C17_46 1_555 1_555
C17_46 H9_46 1_555 1_555
C18_46 C17_46 1_555 1_555
H10_46 C18_46 1_555 1_555
C19_46 C18_46 1_555 1_555
C20_46 C19_46 1_555 1_555
H11_46 C20_46 1_555 1_555
C21_46 C16_46 1_555 1_555
H12_46 C21_46 1_555 1_555
C22_46 C23_46 1_555 1_555
C23_46 C24_46 1_555 1_555
C24_46 H13_46 1_555 1_555
C25_46 C24_46 1_555 1_555
H14_46 C25_46 1_555 1_555
C26_46 C25_46 1_555 1_555
C27_46 C26_46 1_555 1_555
H15_46 C27_46 1_555 1_555
C28_46 C23_46 1_555 1_555
H16_46 C28_46 1_555 1_555
O11_25 C15_46 1_555 1_555
O13_10 C22_46 1_555 1_555
O16_24 C22_46 1_555 1_555
O10_46 C19_46 1_555 1_555
C15_46 O12_30 1_555 1_555
C20_46 C21_46 1_555 1_555
C26_46 O10_46 1_555 1_555
C27_46 C28_46 1_555 1_555
C15_47 C16_47 1_555 1_555
C16_47 C17_47 1_555 1_555
C17_47 H9_47 1_555 1_555
C18_47 C17_47 1_555 1_555
H10_47 C18_47 1_555 1_555
C19_47 C18_47 1_555 1_555
C20_47 C19_47 1_555 1_555
H11_47 C20_47 1_555 1_555
C21_47 C16_47 1_555 1_555
H12_47 C21_47 1_555 1_555
C22_47 C23_47 1_555 1_555
C23_47 C24_47 1_555 1_555
C24_47 H13_47 1_555 1_555
C25_47 C24_47 1_555 1_555
H14_47 C25_47 1_555 1_555
C26_47 C25_47 1_555 1_555
C27_47 C26_47 1_555 1_555
H15_47 C27_47 1_555 1_555
C28_47 C23_47 1_555 1_555
H16_47 C28_47 1_555 1_555
O11_28 C15_47 1_555 1_555
O13_12 C22_47 1_555 1_555
O16_22 C22_47 1_555 1_555
O10_47 C19_47 1_555 1_555
C15_47 O12_29 1_555 1_555
C20_47 C21_47 1_555 1_555
C26_47 O10_47 1_555 1_555
C27_47 C28_47 1_555 1_555
C15_48 C16_48 1_555 1_555
C16_48 C17_48 1_555 1_555
C17_48 H9_48 1_555 1_555
C18_48 C17_48 1_555 1_555
H10_48 C18_48 1_555 1_555
C19_48 C18_48 1_555 1_555
C20_48 C19_48 1_555 1_555
H11_48 C20_48 1_555 1_555
C21_48 C16_48 1_555 1_555
H12_48 C21_48 1_555 1_555
C22_48 C23_48 1_555 1_555
C23_48 C24_48 1_555 1_555
C24_48 H13_48 1_555 1_555
C25_48 C24_48 1_555 1_555
H14_48 C25_48 1_555 1_555
C26_48 C25_48 1_555 1_555
C27_48 C26_48 1_555 1_555
H15_48 C27_48 1_555 1_555
C28_48 C23_48 1_555 1_555
H16_48 C28_48 1_555 1_555
O11_26 C15_48 1_555 1_555
O13_11 C22_48 1_555 1_555
O16_21 C22_48 1_555 1_555
O10_48 C19_48 1_555 1_555
C15_48 O12_32 1_555 1_555
C20_48 C21_48 1_555 1_555
C26_48 O10_48 1_555 1_555
C27_48 C28_48 1_555 1_555
C16_49 C17_49 1_555 1_555
C17_49 H9_49 1_555 1_555
C18_49 C17_49 1_555 1_555
H10_49 C18_49 1_555 1_555
C19_49 C18_49 1_555 1_555
C20_49 C19_49 1_555 1_555
H11_49 C20_49 1_555 1_555
C21_49 C16_49 1_555 1_555
C22_49 C23_49 1_555 1_555
C23_49 C24_49 1_555 1_555
C24_49 H13_49 1_555 1_555
C25_49 C24_49 1_555 1_555
H14_49 C25_49 1_555 1_555
C26_49 C25_49 1_555 1_555
C27_49 C26_49 1_555 1_555
H15_49 C27_49 1_555 1_555
C28_49 C23_49 1_555 1_555
H16_49 C28_49 1_555 1_555
O14_10 C22_49 1_555 1_555
O15_24 C22_49 1_555 1_555
O10_49 C19_49 1_555 1_555
C20_49 C21_49 1_555 1_555
C26_49 O10_49 1_555 1_555
C27_49 C28_49 1_555 1_555
O1_13 C1_25 1_555 1_555
O2_13 C1_25 1_555 1_555
Th7_7 O1_13 1_555 1_555
O6_25 C15_49 1_555 1_555
O7_25 Th7_7 1_555 1_555
O11_37 Th7_7 1_555 1_555
O12_37 Th7_7 1_555 1_555
Th6_2 O6_25 1_555 1_555
Th7_4 O2_13 1_555 1_555
C15_49 O7_25 1_555 1_555
C8_25 C9_25 1_555 1_555
C9_25 C10_25 1_555 1_555
C10_25 H5_25 1_555 1_555
C11_25 C10_25 1_555 1_555
H7_25 C13_25 1_555 1_555
C14_25 C9_25 1_555 1_555
H8_25 C14_25 1_555 1_555
O14_8 C8_25 1_555 1_555
O15_18 C8_25 1_555 1_555
C13_25 C14_25 1_555 1_555
C2_25 C3_25 1_555 1_555
C3_25 H1_25 1_555 1_555
C4_25 C3_25 1_555 1_555
H2_25 C4_25 1_555 1_555
C5_25 C4_25 1_555 1_555
C6_25 C5_25 1_555 1_555
C7_25 C2_25 1_555 1_555
O5_25 C5_25 1_555 1_555
C6_25 C7_25 1_555 1_555
C12_25 O5_25 1_555 1_555
C2_26 C3_26 1_555 1_555
C3_26 H1_26 1_555 1_555
C4_26 C3_26 1_555 1_555
H2_26 C4_26 1_555 1_555
C5_26 C4_26 1_555 1_555
C6_26 C5_26 1_555 1_555
H3_26 C6_26 1_555 1_555
C7_26 C2_26 1_555 1_555
C8_26 C9_26 1_555 1_555
C9_26 C10_26 1_555 1_555
C10_26 H5_26 1_555 1_555
C11_26 C10_26 1_555 1_555
H6_26 C11_26 1_555 1_555
C12_26 C11_26 1_555 1_555
C13_26 C12_26 1_555 1_555
H7_26 C13_26 1_555 1_555
C14_26 C9_26 1_555 1_555
H8_26 C14_26 1_555 1_555
O14_6 C8_26 1_555 1_555
O15_20 C8_26 1_555 1_555
O5_26 C5_26 1_555 1_555
C6_26 C7_26 1_555 1_555
C12_26 O5_26 1_555 1_555
C13_26 C14_26 1_555 1_555
O1_14 C1_26 1_555 1_555
O2_14 C1_26 1_555 1_555
Th7_5 O1_14 1_555 1_555
C15_50 C16_50 1_555 1_555
C16_50 C17_50 1_555 1_555
C17_50 H9_50 1_555 1_555
C18_50 C17_50 1_555 1_555
H10_50 C18_50 1_555 1_555
C19_50 C18_50 1_555 1_555
C20_50 C19_50 1_555 1_555
C21_50 C16_50 1_555 1_555
H12_50 C21_50 1_555 1_555
O6_26 C15_50 1_555 1_555
O7_26 Th7_5 1_555 1_555
O10_50 C19_50 1_555 1_555
O11_38 Th7_5 1_555 1_555
O12_38 Th7_5 1_555 1_555
Th6 O6_26 1_555 1_555
Th7_3 O2_14 1_555 1_555
C15_50 O7_26 1_555 1_555
C20_50 C21_50 1_555 1_555
C26_50 O10_50 1_555 1_555
C22_50 C23_50 1_555 1_555
C23_50 C24_50 1_555 1_555
C24_50 H13_50 1_555 1_555
C25_50 C24_50 1_555 1_555
H15_50 C27_50 1_555 1_555
C28_50 C23_50 1_555 1_555
H16_50 C28_50 1_555 1_555
O14_11 C22_50 1_555 1_555
O15_21 C22_50 1_555 1_555
C27_50 C28_50 1_555 1_555
C1_27 C2_27 1_555 1_555
C2_27 C3_27 1_555 1_555
C3_27 H1_27 1_555 1_555
C4_27 C3_27 1_555 1_555
H2_27 C4_27 1_555 1_555
C5_27 C4_27 1_555 1_555
C6_27 C5_27 1_555 1_555
H3_27 C6_27 1_555 1_555
C7_27 C2_27 1_555 1_555
H4_27 C7_27 1_555 1_555
C8_27 C9_27 1_555 1_555
C9_27 C10_27 1_555 1_555
C10_27 H5_27 1_555 1_555
C11_27 C10_27 1_555 1_555
H6_27 C11_27 1_555 1_555
C12_27 C11_27 1_555 1_555
C13_27 C12_27 1_555 1_555
H7_27 C13_27 1_555 1_555
C14_27 C9_27 1_555 1_555
H8_27 C14_27 1_555 1_555
O1_15 C1_27 1_555 1_555
O2_15 C1_27 1_555 1_555
O14_5 C8_27 1_555 1_555
O15_19 C8_27 1_555 1_555
O5_27 C5_27 1_555 1_555
Th7_6 O1_15 1_555 1_555
C15_51 C16_51 1_555 1_555
C16_51 C17_51 1_555 1_555
C17_51 H9_51 1_555 1_555
C18_51 C17_51 1_555 1_555
H10_51 C18_51 1_555 1_555
C19_51 C18_51 1_555 1_555
C20_51 C19_51 1_555 1_555
H11_51 C20_51 1_555 1_555
C21_51 C16_51 1_555 1_555
H12_51 C21_51 1_555 1_555
C22_51 C23_51 1_555 1_555
C23_51 C24_51 1_555 1_555
C24_51 H13_51 1_555 1_555
C25_51 C24_51 1_555 1_555
H14_51 C25_51 1_555 1_555
C26_51 C25_51 1_555 1_555
C27_51 C26_51 1_555 1_555
H15_51 C27_51 1_555 1_555
C28_51 C23_51 1_555 1_555
H16_51 C28_51 1_555 1_555
O6_27 C15_51 1_555 1_555
O7_27 Th7_6 1_555 1_555
O14_9 C22_51 1_555 1_555
O15_23 C22_51 1_555 1_555
O10_51 C19_51 1_555 1_555
O11_39 Th7_6 1_555 1_555
O12_39 Th7_6 1_555 1_555
Th6_4 O6_27 1_555 1_555
Th7_2 O2_15 1_555 1_555
C6_27 C7_27 1_555 1_555
C12_27 O5_27 1_555 1_555
C13_27 C14_27 1_555 1_555
C15_51 O7_27 1_555 1_555
C20_51 C21_51 1_555 1_555
C26_51 O10_51 1_555 1_555
C27_51 C28_51 1_555 1_555
C22_52 C23_52 1_555 1_555
C23_52 C24_52 1_555 1_555
C24_52 H13_52 1_555 1_555
C25_52 C24_52 1_555 1_555
H15_52 C27_52 1_555 1_555
C28_52 C23_52 1_555 1_555
H16_52 C28_52 1_555 1_555
O14_12 C22_52 1_555 1_555
O15_22 C22_52 1_555 1_555
C27_52 C28_52 1_555 1_555
C1_28 C2_28 1_555 1_555
C2_28 C3_28 1_555 1_555
C3_28 H1_28 1_555 1_555
C4_28 C3_28 1_555 1_555
H2_28 C4_28 1_555 1_555
C5_28 C4_28 1_555 1_555
C6_28 C5_28 1_555 1_555
C7_28 C2_28 1_555 1_555
H4_28 C7_28 1_555 1_555
O1_16 C1_28 1_555 1_555
O2_16 C1_28 1_555 1_555
O5_28 C5_28 1_555 1_555
Th7_8 O1_16 1_555 1_555
O6_28 C15_52 1_555 1_555
O7_28 Th7_8 1_555 1_555
O11_40 Th7_8 1_555 1_555
O12_40 Th7_8 1_555 1_555
Th6_3 O6_28 1_555 1_555
Th7 O2_16 1_555 1_555
C6_28 C7_28 1_555 1_555
C12_28 O5_28 1_555 1_555
C15_52 O7_28 1_555 1_555
C8_28 C9_28 1_555 1_555
C9_28 C10_28 1_555 1_555
C10_28 H5_28 1_555 1_555
C11_28 C10_28 1_555 1_555
H7_28 C13_28 1_555 1_555
C14_28 C9_28 1_555 1_555
H8_28 C14_28 1_555 1_555
O14_7 C8_28 1_555 1_555
O15_17 C8_28 1_555 1_555
C16_52 C17_52 1_555 1_555
C17_52 H9_52 1_555 1_555
C18_52 C17_52 1_555 1_555
H10_52 C18_52 1_555 1_555
C19_52 C18_52 1_555 1_555
C20_52 C19_52 1_555 1_555
C21_52 C16_52 1_555 1_555
O10_52 C19_52 1_555 1_555
C13_28 C14_28 1_555 1_555
C20_52 C21_52 1_555 1_555
C26_52 O10_52 1_555 1_555
C16_53 C17_53 1_555 1_555
C17_53 H9_53 1_555 1_555
C18_53 C17_53 1_555 1_555
H10_53 C18_53 1_555 1_555
C19_53 C18_53 1_555 1_555
C20_53 C19_53 1_555 1_555
H11_53 C20_53 1_555 1_555
C21_53 C16_53 1_555 1_555
C22_53 C23_53 1_555 1_555
C23_53 C24_53 1_555 1_555
C24_53 H13_53 1_555 1_555
C25_53 C24_53 1_555 1_555
H14_53 C25_53 1_555 1_555
C26_53 C25_53 1_555 1_555
C27_53 C26_53 1_555 1_555
H15_53 C27_53 1_555 1_555
C28_53 C23_53 1_555 1_555
H16_53 C28_53 1_555 1_555
O14_2 C22_53 1_555 1_555
O15_16 C22_53 1_555 1_555
O10_53 C19_53 1_555 1_555
C20_53 C21_53 1_555 1_555
C26_53 O10_53 1_555 1_555
C27_53 C28_53 1_555 1_555
O6_29 C15_53 1_555 1_555
O7_29 Th6_3 1_555 1_555
O11_41 Th6_3 1_555 1_555
O12_41 Th6_3 1_555 1_555
Th7 O6_29 1_555 1_555
C15_53 O7_29 1_555 1_555
C15_54 C16_54 1_555 1_555
C16_54 C17_54 1_555 1_555
C17_54 H9_54 1_555 1_555
C18_54 C17_54 1_555 1_555
H10_54 C18_54 1_555 1_555
C19_54 C18_54 1_555 1_555
C20_54 C19_54 1_555 1_555
C21_54 C16_54 1_555 1_555
H12_54 C21_54 1_555 1_555
O6_30 C15_54 1_555 1_555
O7_30 Th6_2 1_555 1_555
O10_54 C19_54 1_555 1_555
O11_42 Th6_2 1_555 1_555
O12_42 Th6_2 1_555 1_555
Th7_4 O6_30 1_555 1_555
C15_54 O7_30 1_555 1_555
C20_54 C21_54 1_555 1_555
C26_54 O10_54 1_555 1_555
C22_54 C23_54 1_555 1_555
C23_54 C24_54 1_555 1_555
C24_54 H13_54 1_555 1_555
C25_54 C24_54 1_555 1_555
H15_54 C27_54 1_555 1_555
C28_54 C23_54 1_555 1_555
H16_54 C28_54 1_555 1_555
O14_3 C22_54 1_555 1_555
O15_13 C22_54 1_555 1_555
C27_54 C28_54 1_555 1_555
C15_55 C16_55 1_555 1_555
C16_55 C17_55 1_555 1_555
C17_55 H9_55 1_555 1_555
C18_55 C17_55 1_555 1_555
H10_55 C18_55 1_555 1_555
C19_55 C18_55 1_555 1_555
C20_55 C19_55 1_555 1_555
H11_55 C20_55 1_555 1_555
C21_55 C16_55 1_555 1_555
H12_55 C21_55 1_555 1_555
C22_55 C23_55 1_555 1_555
C23_55 C24_55 1_555 1_555
C24_55 H13_55 1_555 1_555
C25_55 C24_55 1_555 1_555
H14_55 C25_55 1_555 1_555
C26_55 C25_55 1_555 1_555
C27_55 C26_55 1_555 1_555
H15_55 C27_55 1_555 1_555
C28_55 C23_55 1_555 1_555
H16_55 C28_55 1_555 1_555
O6_31 C15_55 1_555 1_555
O7_31 Th6_4 1_555 1_555
O14 C22_55 1_555 1_555
O15_15 C22_55 1_555 1_555
O10_55 C19_55 1_555 1_555
O11_43 Th6_4 1_555 1_555
O12_43 Th6_4 1_555 1_555
Th7_2 O6_31 1_555 1_555
C15_55 O7_31 1_555 1_555
C20_55 C21_55 1_555 1_555
C26_55 O10_55 1_555 1_555
C27_55 C28_55 1_555 1_555
O6_32 C15_56 1_555 1_555
O7_32 Th6 1_555 1_555
O11_44 Th6 1_555 1_555
O12_44 Th6 1_555 1_555
Th7_3 O6_32 1_555 1_555
C15_56 O7_32 1_555 1_555
C22_56 C23_56 1_555 1_555
C23_56 C24_56 1_555 1_555
C24_56 H13_56 1_555 1_555
C25_56 C24_56 1_555 1_555
H15_56 C27_56 1_555 1_555
C28_56 C23_56 1_555 1_555
H16_56 C28_56 1_555 1_555
O14_4 C22_56 1_555 1_555
O15_14 C22_56 1_555 1_555
C27_56 C28_56 1_555 1_555
C16_56 C17_56 1_555 1_555
C17_56 H9_56 1_555 1_555
C18_56 C17_56 1_555 1_555
H10_56 C18_56 1_555 1_555
C19_56 C18_56 1_555 1_555
C20_56 C19_56 1_555 1_555
C21_56 C16_56 1_555 1_555
O10_56 C19_56 1_555 1_555
C20_56 C21_56 1_555 1_555
C26_56 O10_56 1_555 1_555
O11_45 Th7_3 1_555 1_555
O12_45 Th7_3 1_555 1_555
O11_46 Th7 1_555 1_555
O12_46 Th7 1_555 1_555
O11_47 Th7_2 1_555 1_555
O12_47 Th7_2 1_555 1_555
O11_48 Th7_4 1_555 1_555
O12_48 Th7_4 1_555 1_555
C1_29 C2_29 1_555 1_555
C2_29 C3_29 1_555 1_555
C3_29 H1_29 1_555 1_555
C4_29 C3_29 1_555 1_555
H2_29 C4_29 1_555 1_555
C5_29 C4_29 1_555 1_555
C6_29 C5_29 1_555 1_555
H3_29 C6_29 1_555 1_555
C7_29 C2_29 1_555 1_555
H4_29 C7_29 1_555 1_555
C8_29 C9_29 1_555 1_555
C9_29 C10_29 1_555 1_555
C10_29 H5_29 1_555 1_555
C11_29 C10_29 1_555 1_555
H6_29 C11_29 1_555 1_555
C12_29 C11_29 1_555 1_555
C13_29 C12_29 1_555 1_555
H7_29 C13_29 1_555 1_555
C14_29 C9_29 1_555 1_555
H8_29 C14_29 1_555 1_555
O11_48 C1_29 1_555 1_555
O12_37 C1_29 1_555 1_555
O13_20 C8_29 1_555 1_555
O16_6 C8_29 1_555 1_555
O5_29 C5_29 1_555 1_555
C15_57 C16_57 1_555 1_555
C16_57 C17_57 1_555 1_555
C17_57 H9_57 1_555 1_555
C18_57 C17_57 1_555 1_555
H10_57 C18_57 1_555 1_555
C19_57 C18_57 1_555 1_555
C20_57 C19_57 1_555 1_555
H11_57 C20_57 1_555 1_555
C21_57 C16_57 1_555 1_555
H12_57 C21_57 1_555 1_555
C22_57 C23_57 1_555 1_555
C23_57 C24_57 1_555 1_555
C24_57 H13_57 1_555 1_555
C25_57 C24_57 1_555 1_555
H14_57 C25_57 1_555 1_555
C26_57 C25_57 1_555 1_555
C27_57 C26_57 1_555 1_555
H15_57 C27_57 1_555 1_555
C28_57 C23_57 1_555 1_555
H16_57 C28_57 1_555 1_555
O11_42 C15_57 1_555 1_555
O13_15 C22_57 1_555 1_555
O16 C22_57 1_555 1_555
O10_57 C19_57 1_555 1_555
C6_29 C7_29 1_555 1_555
C12_29 O5_29 1_555 1_555
C13_29 C14_29 1_555 1_555
C15_57 O12_48 1_555 1_555
C20_57 C21_57 1_555 1_555
C26_57 O10_57 1_555 1_555
C27_57 C28_57 1_555 1_555
C1_30 C2_30 1_555 1_555
C2_30 C3_30 1_555 1_555
C3_30 H1_30 1_555 1_555
C4_30 C3_30 1_555 1_555
H2_30 C4_30 1_555 1_555
C5_30 C4_30 1_555 1_555
C6_30 C5_30 1_555 1_555
H3_30 C6_30 1_555 1_555
C7_30 C2_30 1_555 1_555
H4_30 C7_30 1_555 1_555
C8_30 C9_30 1_555 1_555
C9_30 C10_30 1_555 1_555
C10_30 H5_30 1_555 1_555
C11_30 C10_30 1_555 1_555
H6_30 C11_30 1_555 1_555
C12_30 C11_30 1_555 1_555
C13_30 C12_30 1_555 1_555
H7_30 C13_30 1_555 1_555
C14_30 C9_30 1_555 1_555
H8_30 C14_30 1_555 1_555
O11_45 C1_30 1_555 1_555
O12_38 C1_30 1_555 1_555
O13_18 C8_30 1_555 1_555
O16_8 C8_30 1_555 1_555
O5_30 C5_30 1_555 1_555
C15_58 C16_58 1_555 1_555
C16_58 C17_58 1_555 1_555
C17_58 H9_58 1_555 1_555
C18_58 C17_58 1_555 1_555
H10_58 C18_58 1_555 1_555
C19_58 C18_58 1_555 1_555
C20_58 C19_58 1_555 1_555
H11_58 C20_58 1_555 1_555
C21_58 C16_58 1_555 1_555
H12_58 C21_58 1_555 1_555
C22_58 C23_58 1_555 1_555
C23_58 C24_58 1_555 1_555
C24_58 H13_58 1_555 1_555
C25_58 C24_58 1_555 1_555
H14_58 C25_58 1_555 1_555
C26_58 C25_58 1_555 1_555
C27_58 C26_58 1_555 1_555
H15_58 C27_58 1_555 1_555
C28_58 C23_58 1_555 1_555
H16_58 C28_58 1_555 1_555
O11_44 C15_58 1_555 1_555
O13_16 C22_58 1_555 1_555
O16_2 C22_58 1_555 1_555
O10_58 C19_58 1_555 1_555
C6_30 C7_30 1_555 1_555
C12_30 O5_30 1_555 1_555
C13_30 C14_30 1_555 1_555
C15_58 O12_45 1_555 1_555
C20_58 C21_58 1_555 1_555
C26_58 O10_58 1_555 1_555
C27_58 C28_58 1_555 1_555
C1_31 C2_31 1_555 1_555
C2_31 C3_31 1_555 1_555
C3_31 H1_31 1_555 1_555
C4_31 C3_31 1_555 1_555
H2_31 C4_31 1_555 1_555
C5_31 C4_31 1_555 1_555
C6_31 C5_31 1_555 1_555
H3_31 C6_31 1_555 1_555
C7_31 C2_31 1_555 1_555
H4_31 C7_31 1_555 1_555
C8_31 C9_31 1_555 1_555
C9_31 C10_31 1_555 1_555
C10_31 H5_31 1_555 1_555
C11_31 C10_31 1_555 1_555
H6_31 C11_31 1_555 1_555
C12_31 C11_31 1_555 1_555
C13_31 C12_31 1_555 1_555
H7_31 C13_31 1_555 1_555
C14_31 C9_31 1_555 1_555
H8_31 C14_31 1_555 1_555
O11_46 C1_31 1_555 1_555
O12_40 C1_31 1_555 1_555
O13_19 C8_31 1_555 1_555
O16_5 C8_31 1_555 1_555
O5_31 C5_31 1_555 1_555
C15_59 C16_59 1_555 1_555
C16_59 C17_59 1_555 1_555
C17_59 H9_59 1_555 1_555
C18_59 C17_59 1_555 1_555
H10_59 C18_59 1_555 1_555
C19_59 C18_59 1_555 1_555
C20_59 C19_59 1_555 1_555
H11_59 C20_59 1_555 1_555
C21_59 C16_59 1_555 1_555
H12_59 C21_59 1_555 1_555
C22_59 C23_59 1_555 1_555
C23_59 C24_59 1_555 1_555
C24_59 H13_59 1_555 1_555
C25_59 C24_59 1_555 1_555
H14_59 C25_59 1_555 1_555
C26_59 C25_59 1_555 1_555
C27_59 C26_59 1_555 1_555
H15_59 C27_59 1_555 1_555
C28_59 C23_59 1_555 1_555
H16_59 C28_59 1_555 1_555
O11_41 C15_59 1_555 1_555
O13_14 C22_59 1_555 1_555
O16_4 C22_59 1_555 1_555
O10_59 C19_59 1_555 1_555
C6_31 C7_31 1_555 1_555
C12_31 O5_31 1_555 1_555
C13_31 C14_31 1_555 1_555
C15_59 O12_46 1_555 1_555
C20_59 C21_59 1_555 1_555
C26_59 O10_59 1_555 1_555
C27_59 C28_59 1_555 1_555
C1_32 C2_32 1_555 1_555
C2_32 C3_32 1_555 1_555
C3_32 H1_32 1_555 1_555
C4_32 C3_32 1_555 1_555
H2_32 C4_32 1_555 1_555
C5_32 C4_32 1_555 1_555
C6_32 C5_32 1_555 1_555
H3_32 C6_32 1_555 1_555
C7_32 C2_32 1_555 1_555
H4_32 C7_32 1_555 1_555
C8_32 C9_32 1_555 1_555
C9_32 C10_32 1_555 1_555
C10_32 H5_32 1_555 1_555
C11_32 C10_32 1_555 1_555
H6_32 C11_32 1_555 1_555
C12_32 C11_32 1_555 1_555
C13_32 C12_32 1_555 1_555
H7_32 C13_32 1_555 1_555
C14_32 C9_32 1_555 1_555
H8_32 C14_32 1_555 1_555
O11_47 C1_32 1_555 1_555
O12_39 C1_32 1_555 1_555
O13_17 C8_32 1_555 1_555
O16_7 C8_32 1_555 1_555
O5_32 C5_32 1_555 1_555
C15_60 C16_60 1_555 1_555
C16_60 C17_60 1_555 1_555
C17_60 H9_60 1_555 1_555
C18_60 C17_60 1_555 1_555
H10_60 C18_60 1_555 1_555
C19_60 C18_60 1_555 1_555
C20_60 C19_60 1_555 1_555
H11_60 C20_60 1_555 1_555
C21_60 C16_60 1_555 1_555
H12_60 C21_60 1_555 1_555
C22_60 C23_60 1_555 1_555
C23_60 C24_60 1_555 1_555
C24_60 H13_60 1_555 1_555
C25_60 C24_60 1_555 1_555
H14_60 C25_60 1_555 1_555
C26_60 C25_60 1_555 1_555
C27_60 C26_60 1_555 1_555
H15_60 C27_60 1_555 1_555
C28_60 C23_60 1_555 1_555
H16_60 C28_60 1_555 1_555
O11_43 C15_60 1_555 1_555
O13_13 C22_60 1_555 1_555
O16_3 C22_60 1_555 1_555
O10_60 C19_60 1_555 1_555
C6_32 C7_32 1_555 1_555
C12_32 O5_32 1_555 1_555
C13_32 C14_32 1_555 1_555
C15_60 O12_47 1_555 1_555
C20_60 C21_60 1_555 1_555
C26_60 O10_60 1_555 1_555
C27_60 C28_60 1_555 1_555
C15_61 C16_61 1_555 1_555
C16_61 C17_61 1_555 1_555
C17_61 H9_61 1_555 1_555
C18_61 C17_61 1_555 1_555
H10_61 C18_61 1_555 1_555
C19_61 C18_61 1_555 1_555
C20_61 C19_61 1_555 1_555
H11_61 C20_61 1_555 1_555
C21_61 C16_61 1_555 1_555
H12_61 C21_61 1_555 1_555
C22_61 C23_61 1_555 1_555
C23_61 C24_61 1_555 1_555
C24_61 H13_61 1_555 1_555
C25_61 C24_61 1_555 1_555
H14_61 C25_61 1_555 1_555
C26_61 C25_61 1_555 1_555
C27_61 C26_61 1_555 1_555
H15_61 C27_61 1_555 1_555
C28_61 C23_61 1_555 1_555
H16_61 C28_61 1_555 1_555
O11_39 C15_61 1_555 1_555
O13_21 C22_61 1_555 1_555
O16_11 C22_61 1_555 1_555
O10_61 C19_61 1_555 1_555
C15_61 O12_43 1_555 1_555
C20_61 C21_61 1_555 1_555
C26_61 O10_61 1_555 1_555
C27_61 C28_61 1_555 1_555
C15_62 C16_62 1_555 1_555
C16_62 C17_62 1_555 1_555
C17_62 H9_62 1_555 1_555
C18_62 C17_62 1_555 1_555
H10_62 C18_62 1_555 1_555
C19_62 C18_62 1_555 1_555
C20_62 C19_62 1_555 1_555
H11_62 C20_62 1_555 1_555
C21_62 C16_62 1_555 1_555
H12_62 C21_62 1_555 1_555
C22_62 C23_62 1_555 1_555
C23_62 C24_62 1_555 1_555
C24_62 H13_62 1_555 1_555
C25_62 C24_62 1_555 1_555
H14_62 C25_62 1_555 1_555
C26_62 C25_62 1_555 1_555
C27_62 C26_62 1_555 1_555
H15_62 C27_62 1_555 1_555
C28_62 C23_62 1_555 1_555
H16_62 C28_62 1_555 1_555
O11_37 C15_62 1_555 1_555
O13_22 C22_62 1_555 1_555
O16_12 C22_62 1_555 1_555
O10_62 C19_62 1_555 1_555
C15_62 O12_42 1_555 1_555
C20_62 C21_62 1_555 1_555
C26_62 O10_62 1_555 1_555
C27_62 C28_62 1_555 1_555
C15_63 C16_63 1_555 1_555
C16_63 C17_63 1_555 1_555
C17_63 H9_63 1_555 1_555
C18_63 C17_63 1_555 1_555
H10_63 C18_63 1_555 1_555
C19_63 C18_63 1_555 1_555
C20_63 C19_63 1_555 1_555
H11_63 C20_63 1_555 1_555
C21_63 C16_63 1_555 1_555
H12_63 C21_63 1_555 1_555
C22_63 C23_63 1_555 1_555
C23_63 C24_63 1_555 1_555
C24_63 H13_63 1_555 1_555
C25_63 C24_63 1_555 1_555
H14_63 C25_63 1_555 1_555
C26_63 C25_63 1_555 1_555
C27_63 C26_63 1_555 1_555
H15_63 C27_63 1_555 1_555
C28_63 C23_63 1_555 1_555
H16_63 C28_63 1_555 1_555
O11_40 C15_63 1_555 1_555
O13_24 C22_63 1_555 1_555
O16_10 C22_63 1_555 1_555
O10_63 C19_63 1_555 1_555
C15_63 O12_41 1_555 1_555
C20_63 C21_63 1_555 1_555
C26_63 O10_63 1_555 1_555
C27_63 C28_63 1_555 1_555
C15_64 C16_64 1_555 1_555
C16_64 C17_64 1_555 1_555
C17_64 H9_64 1_555 1_555
C18_64 C17_64 1_555 1_555
H10_64 C18_64 1_555 1_555
C19_64 C18_64 1_555 1_555
C20_64 C19_64 1_555 1_555
H11_64 C20_64 1_555 1_555
C21_64 C16_64 1_555 1_555
H12_64 C21_64 1_555 1_555
C22_64 C23_64 1_555 1_555
C23_64 C24_64 1_555 1_555
C24_64 H13_64 1_555 1_555
C25_64 C24_64 1_555 1_555
H14_64 C25_64 1_555 1_555
C26_64 C25_64 1_555 1_555
C27_64 C26_64 1_555 1_555
H15_64 C27_64 1_555 1_555
C28_64 C23_64 1_555 1_555
H16_64 C28_64 1_555 1_555
O11_38 C15_64 1_555 1_555
O13_23 C22_64 1_555 1_555
O16_9 C22_64 1_555 1_555
O10_64 C19_64 1_555 1_555
C15_64 O12_44 1_555 1_555
C20_64 C21_64 1_555 1_555
C26_64 O10_64 1_555 1_555
C27_64 C28_64 1_555 1_555

#END
