
###############################################################################
#
# This file contains modified crystal structure data generated from the
# MOF subset of the Cambridge Structural Database (CSD) v543 
# hosted by the Cambridge Crystallographic Data Centre (CCDC).
#
# This work is licensed under the Creative Commons
# Attribution-NonCommercial-ShareAlike 4.0 International License.
# To view a copy of this license, visit
# http://creativecommons.org/licenses/by-nc-sa/4.0/
# or send a letter to
# Creative Commons, PO Box 1866, Mountain View, CA 94042, USA.
#
# CIF created using the CSD Python API on 29 September 2022
# The structure has been converted into the P1 space group
# The structure has a 3D framework
# The original CSD entry ROHWOC is in the orthorhombic crystal system
# The original CSD entry ROHWOC is in a Sohncke space group
# The framework has been calculated to contain at least 10.0% void space
# The void calculation uses a probe of radius 1.32A, grid spacing 0.4
#
###############################################################################

data_ROHWOC
_chemical_formula_moiety         '(C108 H100 Cu4 N16 O24 S4)n'
_symmetry_cell_setting           triclinic
_symmetry_space_group_name_H-M   'P 1'
_symmetry_Int_Tables_number      1
_space_group_name_Hall           'P 1'
loop_
_symmetry_equiv_pos_site_id
_symmetry_equiv_pos_as_xyz
1 x,y,z
_cell_length_a                   14.845(2)
_cell_length_b                   18.355(3)
_cell_length_c                   11.1608(19)
_cell_angle_alpha                90
_cell_angle_beta                 90
_cell_angle_gamma                90
_cell_volume                     3041.09
loop_
_atom_site_label
_atom_site_type_symbol
_atom_site_fract_x
_atom_site_fract_y
_atom_site_fract_z
O12 O 0.1048(3) 0.0027(2) 0.6922(4)
C42 C 0.0517(4) 0.8878(3) 0.0592(5)
H38 H 0.0401 0.8472 0.1125
H39 H 0.0054 0.9241 0.0727
C43 C 0.1441(4) 0.9209(3) 0.0893(6)
H40 H 0.1580 0.9578 0.0299
H41 H 0.1398 0.9451 0.1664
C44 C 0.2221(4) 0.8672(3) 0.0941(5)
O9 O 0.2977(3) 0.8900(2) 0.0974(5)
O10 O 0.1995(2) 0.79911(18) 0.0960(4)
Cu5 Cu 0.28897(4) 0.72080(3) 0.10047(6)
N10 N 0.7964(3) 0.7795(3) 0.0832(4)
H14 H 0.3624 0.9609 0.8478
C28 C 0.6912(4) 0.9411(3) 0.8712(6)
H26 H 0.7491 0.9557 0.8500
C29 C 0.6246(4) 0.9915(3) 0.8706(6)
C30 C 0.5371(4) 0.9733(3) 0.9035(6)
C31 C 0.5240(4) 0.9022(3) 0.9350(5)
H28 H 0.4668 0.8869 0.9578
C32 C 0.5940(4) 0.8526(3) 0.9337(5)
H29 H 0.5825 0.8048 0.9564
N5 N 0.6780(3) 0.8711(2) 0.9009(5)
C41 C 0.9613(4) 0.8147(3) 0.9149(5)
C45 C 0.7963(5) 0.7138(3) 0.6513(5)
H42 H 0.7883 0.6696 0.6908
C46 C 0.8013(5) 0.7131(4) 0.5299(5)
H43 H 0.7982 0.6690 0.4891
C47 C 0.8109(4) 0.7765(4) 0.4667(5)
C48 C 0.8202(5) 0.8387(4) 0.5339(6)
H44 H 0.8295 0.8832 0.4962
C49 C 0.8159(5) 0.8351(3) 0.6563(5)
H45 H 0.8230 0.8782 0.6993
C50 C 0.8097(4) 0.7774(3) 0.3347(5)
C51 C 0.8235(4) 0.7166(4) 0.2660(5)
H46 H 0.8380 0.6728 0.3031
C52 C 0.8161(4) 0.7192(4) 0.1436(5)
H47 H 0.8254 0.6764 0.1006
C53 C 0.7841(5) 0.8402(4) 0.1478(5)
H48 H 0.7715 0.8836 0.1080
C54 C 0.7894(5) 0.8408(3) 0.2704(5)
H49 H 0.7793 0.8840 0.3116
Cu2 Cu 0.78897(4) 0.77920(3) 0.89953(6)
N6 N 0.8023(3) 0.7743(3) 0.7172(4)
O7 O 0.9661(3) 0.7483(2) 0.9172(5)
O8 O 0.8887(2) 0.85111(18) 0.9022(4)
H50 H 0.9926 0.9412 0.8263
O13 O 0.6995(2) 0.70089(18) 0.9040(4)
C1 C 0.5738(5) 0.6083(5) 0.4888(7)
H1 H 0.5731 0.5587 0.5057
C2 C 0.5590(5) 0.6579(6) 0.5783(7)
H2 H 0.5479 0.6414 0.6557
C3 C 0.5602(4) 0.7321(6) 0.5564(8)
C4 C 0.5737(5) 0.7542(4) 0.4417(7)
H3 H 0.5716 0.8037 0.4237
C5 C 0.5899(5) 0.7056(4) 0.3530(6)
H4 H 0.6016 0.7221 0.2758
C6 C 0.5893(4) 0.6316(4) 0.3763(6)
C7 C 0.5501(6) 0.7853(6) 0.6569(9)
H5 H 0.6082 0.8042 0.6784
H6 H 0.5239 0.7612 0.7248
H7 H 0.5118 0.8246 0.6321
C8 C 0.5466(4) 0.6383(3) 0.0693(5)
H8 H 0.5997 0.6683 0.0864
C9 C 0.4613(4) 0.6853(3) 0.0851(5)
C13 C 0.1912(4) 0.5589(3) 0.1288(6)
H13 H 0.2491 0.5443 0.1500
C14 C 0.1246(4) 0.5085(3) 0.1294(6)
H14_2 H 0.1376 0.4609 0.1522
C15 C 0.0371(4) 0.5267(3) 0.0965(6)
C16 C 0.0240(4) 0.5978(3) 0.0650(5)
C17 C 0.0940(4) 0.6474(3) 0.0663(5)
H16 H 0.0825 0.6952 0.0436
C18 C 0.2963(5) 0.7862(3) 0.3487(5)
H17 H 0.2883 0.8304 0.3092
C19 C 0.3013(5) 0.7869(4) 0.4701(5)
H18 H 0.2982 0.8310 0.5109
C20 C 0.3109(4) 0.7235(4) 0.5333(5)
C21 C 0.3202(5) 0.6613(4) 0.4661(6)
H19 H 0.3295 0.6168 0.5038
C22 C 0.3159(5) 0.6649(3) 0.3437(5)
H20 H 0.3230 0.6218 0.3007
C23 C 0.3097(4) 0.7226(3) 0.6653(5)
C24 C 0.3235(4) 0.7834(4) 0.7340(5)
H21 H 0.3380 0.8272 0.6969
C25 C 0.3161(4) 0.7808(4) 0.8564(5)
H22 H 0.3254 0.8236 0.8994
C26 C 0.2841(5) 0.6598(4) 0.8522(5)
H23 H 0.2715 0.6164 0.8920
C27 C 0.2894(5) 0.6592(3) 0.7296(5)
H24 H 0.2793 0.6160 0.6884
N1 N 0.3023(3) 0.7257(3) 0.2828(4)
N2 N 0.2964(3) 0.7205(3) 0.9168(4)
N3 N 0.1780(3) 0.6289(2) 0.0991(5)
N4 N 0.5447(3) 0.5774(3) 0.1530(4)
O1 O 0.4661(3) 0.7517(2) 0.0828(5)
O2 O 0.3887(2) 0.64889(18) 0.0978(4)
H25 H 0.4926 0.5588 0.1737
O5 O 0.7011(3) 0.5900(2) 0.2135(4)
O6 O 0.6048(3) 0.4973(2) 0.3078(4)
S1 S 0.61610(10) 0.56944(8) 0.26159(15)
H28_2 H 0.0332 0.3869 0.0422
C10 C 0.5517(4) 0.6122(3) 0.9408(5)
H9 H 0.5401 0.6528 0.8875
H10 H 0.5054 0.5759 0.9273
C11 C 0.6441(4) 0.5791(3) 0.9107(6)
H11 H 0.6580 0.5422 0.9701
H12 H 0.6398 0.5549 0.8336
C12 C 0.7221(4) 0.6328(3) 0.9059(5)
O3 O 0.7977(3) 0.6100(2) 0.9026(5)
C33 C 0.0738(5) 0.8917(5) 0.5112(7)
H30 H 0.0731 0.9413 0.4943
C34 C 0.0590(5) 0.8421(6) 0.4217(7)
H31 H 0.0479 0.8586 0.3443
C35 C 0.0602(4) 0.7679(6) 0.4436(8)
C36 C 0.0737(5) 0.7458(4) 0.5583(7)
H32 H 0.0716 0.6963 0.5763
C37 C 0.0899(5) 0.7944(4) 0.6470(6)
H33 H 0.1016 0.7779 0.7242
C38 C 0.0893(4) 0.8684(4) 0.6237(6)
C39 C 0.0501(6) 0.7147(6) 0.3431(9)
H34 H 0.1082 0.6958 0.3216
H35 H 0.0239 0.7388 0.2752
H36 H 0.0118 0.6754 0.3679
C40 C 0.0466(4) 0.8617(3) 0.9307(5)
H37 H 0.0997 0.8317 0.9136
N8 N 0.0447(3) 0.9226(3) 0.8470(4)
O11 O 0.2011(3) 0.9100(2) 0.7865(4)
S2 S 0.11610(10) 0.93056(8) 0.73841(15)
N9 N 0.2036(3) 0.2205(3) 0.0832(4)
C9_2 C 0.0387(4) 0.1853(3) 0.9149(5)
C13_2 C 0.3088(4) 0.0589(3) 0.8712(6)
H13_2 H 0.2509 0.0443 0.8500
C14_2 C 0.3754(4) 0.0085(3) 0.8706(6)
C15_2 C 0.4629(4) 0.0267(3) 0.9035(6)
C16_2 C 0.4760(4) 0.0978(3) 0.9350(5)
H15 H 0.5332 0.1131 0.9578
C17_2 C 0.4060(4) 0.1474(3) 0.9337(5)
H16_2 H 0.4175 0.1952 0.9564
C18_2 C 0.2037(5) 0.2862(3) 0.6513(5)
H17_2 H 0.2117 0.3304 0.6908
C19_2 C 0.1987(5) 0.2869(4) 0.5299(5)
H18_2 H 0.2018 0.3310 0.4891
C20_2 C 0.1891(4) 0.2235(4) 0.4667(5)
C21_2 C 0.1798(5) 0.1613(4) 0.5339(6)
H19_2 H 0.1705 0.1168 0.4962
C22_2 C 0.1841(5) 0.1649(3) 0.6563(5)
H20_2 H 0.1770 0.1218 0.6993
C23_2 C 0.1903(4) 0.2226(3) 0.3347(5)
C24_2 C 0.1765(4) 0.2834(4) 0.2660(5)
H21_2 H 0.1620 0.3272 0.3031
C25_2 C 0.1839(4) 0.2808(4) 0.1436(5)
H22_2 H 0.1746 0.3236 0.1006
C26_2 C 0.2159(5) 0.1598(4) 0.1478(5)
H23_2 H 0.2285 0.1164 0.1080
C27_2 C 0.2106(5) 0.1592(3) 0.2704(5)
H24_2 H 0.2207 0.1160 0.3116
Cu1 Cu 0.21103(4) 0.22080(3) 0.89953(6)
N1_2 N 0.1977(3) 0.2257(3) 0.7172(4)
N3_2 N 0.3220(3) 0.1289(2) 0.9009(5)
O1_2 O 0.0339(3) 0.2517(2) 0.9172(5)
O2_2 O 0.1113(2) 0.14889(18) 0.9022(4)
H25_2 H 0.0074 0.0588 0.8263
H27 H 0.6376 0.0391 0.8478
O14 O 0.3005(2) 0.29911(18) 0.9040(4)
C10_2 C 0.9483(4) 0.1122(3) 0.0592(5)
H9_2 H 0.9599 0.1528 0.1125
H10_2 H 0.9946 0.0759 0.0727
C11_2 C 0.8559(4) 0.0791(3) 0.0893(6)
H11_2 H 0.8420 0.0422 0.0299
H12_2 H 0.8602 0.0549 0.1664
C12_2 C 0.7779(4) 0.1328(3) 0.0941(5)
O3_2 O 0.7023(3) 0.1100(2) 0.0974(5)
O4 O 0.8005(2) 0.20089(18) 0.0960(4)
Cu6 Cu 0.71103(4) 0.27920(3) 0.10047(6)
H15_2 H 0.9668 0.6131 0.0422
C28_2 C 0.8088(4) 0.4411(3) 0.1288(6)
H26_2 H 0.7509 0.4557 0.1500
C29_2 C 0.8754(4) 0.4915(3) 0.1294(6)
H27_2 H 0.8624 0.5391 0.1522
C30_2 C 0.9629(4) 0.4733(3) 0.0965(6)
C31_2 C 0.9760(4) 0.4022(3) 0.0650(5)
C32_2 C 0.9060(4) 0.3526(3) 0.0663(5)
H29_2 H 0.9175 0.3048 0.0436
N5_2 N 0.8220(3) 0.3711(2) 0.0991(5)
C33_2 C 0.4262(5) 0.3917(5) 0.4888(7)
H30_2 H 0.4269 0.4413 0.5057
C34_2 C 0.4410(5) 0.3421(6) 0.5783(7)
H31_2 H 0.4521 0.3586 0.6557
C35_2 C 0.4398(4) 0.2679(6) 0.5564(8)
C36_2 C 0.4263(5) 0.2458(4) 0.4417(7)
H32_2 H 0.4284 0.1963 0.4237
C37_2 C 0.4101(5) 0.2944(4) 0.3530(6)
H33_2 H 0.3984 0.2779 0.2758
C38_2 C 0.4107(4) 0.3684(4) 0.3763(6)
C39_2 C 0.4499(6) 0.2147(6) 0.6569(9)
H34_2 H 0.3918 0.1958 0.6784
H35_2 H 0.4761 0.2388 0.7248
H36_2 H 0.4882 0.1754 0.6321
C40_2 C 0.4534(4) 0.3617(3) 0.0693(5)
H37_2 H 0.4003 0.3317 0.0864
C41_2 C 0.5387(4) 0.3147(3) 0.0851(5)
C45_2 C 0.7037(5) 0.2138(3) 0.3487(5)
H42_2 H 0.7117 0.1696 0.3092
C46_2 C 0.6987(5) 0.2131(4) 0.4701(5)
H43_2 H 0.7018 0.1690 0.5109
C47_2 C 0.6891(4) 0.2765(4) 0.5333(5)
C48_2 C 0.6798(5) 0.3387(4) 0.4661(6)
H44_2 H 0.6705 0.3832 0.5038
C49_2 C 0.6841(5) 0.3351(3) 0.3437(5)
H45_2 H 0.6770 0.3782 0.3007
C50_2 C 0.6903(4) 0.2774(3) 0.6653(5)
C51_2 C 0.6765(4) 0.2166(4) 0.7340(5)
H46_2 H 0.6620 0.1728 0.6969
C52_2 C 0.6839(4) 0.2192(4) 0.8564(5)
H47_2 H 0.6746 0.1764 0.8994
C53_2 C 0.7159(5) 0.3402(4) 0.8522(5)
H48_2 H 0.7285 0.3836 0.8920
C54_2 C 0.7106(5) 0.3408(3) 0.7296(5)
H49_2 H 0.7207 0.3840 0.6884
N6_2 N 0.6977(3) 0.2743(3) 0.2828(4)
N7 N 0.7036(3) 0.2795(3) 0.9168(4)
N8_2 N 0.4553(3) 0.4226(3) 0.1530(4)
O7_2 O 0.5339(3) 0.2483(2) 0.0828(5)
O8_2 O 0.6113(2) 0.35111(18) 0.0978(4)
H50_2 H 0.5074 0.4412 0.1737
O11_2 O 0.2989(3) 0.4100(2) 0.2135(4)
O12_2 O 0.3952(3) 0.5027(2) 0.3078(4)
S2_2 S 0.38390(10) 0.43056(8) 0.26159(15)
C42_2 C 0.4483(4) 0.3878(3) 0.9408(5)
H38_2 H 0.4599 0.3472 0.8875
H39_2 H 0.4946 0.4241 0.9273
C43_2 C 0.3559(4) 0.4209(3) 0.9107(6)
H40_2 H 0.3420 0.4578 0.9701
H41_2 H 0.3602 0.4451 0.8336
C44_2 C 0.2779(4) 0.3672(3) 0.9059(5)
O9_2 O 0.2023(3) 0.3900(2) 0.9026(5)
C1_2 C 0.9262(5) 0.1083(5) 0.5112(7)
H1_2 H 0.9269 0.0587 0.4943
C2_2 C 0.9410(5) 0.1579(6) 0.4217(7)
H2_2 H 0.9521 0.1414 0.3443
C3_2 C 0.9398(4) 0.2321(6) 0.4436(8)
C4_2 C 0.9263(5) 0.2542(4) 0.5583(7)
H3_2 H 0.9284 0.3037 0.5763
C5_2 C 0.9101(5) 0.2056(4) 0.6470(6)
H4_2 H 0.8984 0.2221 0.7242
C6_2 C 0.9107(4) 0.1316(4) 0.6237(6)
C7_2 C 0.9499(6) 0.2853(6) 0.3431(9)
H5_2 H 0.8918 0.3042 0.3216
H6_2 H 0.9761 0.2612 0.2752
H7_2 H 0.9882 0.3246 0.3679
C8_2 C 0.9534(4) 0.1383(3) 0.9307(5)
H8_2 H 0.9003 0.1683 0.9136
N4_2 N 0.9553(3) 0.0774(3) 0.8470(4)
O5_2 O 0.7989(3) 0.0900(2) 0.7865(4)
S1_2 S 0.88390(10) 0.06944(8) 0.73841(15)
O6_2 O 0.8952(3) 0.9973(2) 0.6922(4)
loop_
_geom_bond_atom_site_label_1
_geom_bond_atom_site_label_2
_geom_bond_site_symmetry_1
_geom_bond_site_symmetry_2
H38 C42 1_555 1_555
H39 C42 1_555 1_555
C43 C42 1_555 1_555
H40 C43 1_555 1_555
H41 C43 1_555 1_555
C44 C43 1_555 1_555
O9 C44 1_555 1_555
O10 C44 1_555 1_555
Cu5 O10 1_555 1_555
C28 H26 1_555 1_555
C29 C28 1_555 1_555
C31 C30 1_555 1_555
H28 C31 1_555 1_555
C32 C31 1_555 1_555
H29 C32 1_555 1_555
N5 C28 1_555 1_555
C45 H42 1_555 1_555
C46 C45 1_555 1_555
H43 C46 1_555 1_555
C47 C46 1_555 1_555
C48 C47 1_555 1_555
H44 C48 1_555 1_555
C49 C48 1_555 1_555
H45 C49 1_555 1_555
C50 C47 1_555 1_555
C51 C50 1_555 1_555
H46 C51 1_555 1_555
C52 C51 1_555 1_555
H47 C52 1_555 1_555
C53 H48 1_555 1_555
C54 C50 1_555 1_555
H49 C54 1_555 1_555
Cu2 N5 1_555 1_555
N6 C45 1_555 1_555
N10 C52 1_555 1_555
O7 C41 1_555 1_555
O8 C41 1_555 1_555
O13 Cu2 1_555 1_555
C29 C30 1_555 1_555
C32 N5 1_555 1_555
C49 N6 1_555 1_555
C53 C54 1_555 1_555
C53 N10 1_555 1_555
Cu2 N6 1_555 1_555
Cu2 O7 1_555 1_555
Cu2 O8 1_555 1_555
C1 H1 1_555 1_555
C2 C1 1_555 1_555
H2 C2 1_555 1_555
C3 C2 1_555 1_555
C4 C3 1_555 1_555
H3 C4 1_555 1_555
C5 C4 1_555 1_555
H4 C5 1_555 1_555
C6 C1 1_555 1_555
C7 C3 1_555 1_555
H5 C7 1_555 1_555
H6 C7 1_555 1_555
H7 C7 1_555 1_555
C8 H8 1_555 1_555
C9 C8 1_555 1_555
C13 H13 1_555 1_555
C14 C13 1_555 1_555
H14_2 C14 1_555 1_555
C15 C14 1_555 1_555
C16 C15 1_555 1_555
C17 C16 1_555 1_555
H16 C17 1_555 1_555
C18 H17 1_555 1_555
C19 C18 1_555 1_555
H18 C19 1_555 1_555
C20 C19 1_555 1_555
C21 C20 1_555 1_555
H19 C21 1_555 1_555
C22 C21 1_555 1_555
H20 C22 1_555 1_555
C23 C20 1_555 1_555
C24 C23 1_555 1_555
H21 C24 1_555 1_555
C25 C24 1_555 1_555
H22 C25 1_555 1_555
C26 H23 1_555 1_555
C27 C23 1_555 1_555
H24 C27 1_555 1_555
Cu5 N1 1_555 1_555
N1 C18 1_555 1_555
N2 C25 1_555 1_555
N3 C13 1_555 1_555
N4 C8 1_555 1_555
O1 C9 1_555 1_555
O2 C9 1_555 1_555
H25 N4 1_555 1_555
O5 S1 1_555 1_555
O6 S1 1_555 1_555
S1 C6 1_555 1_555
C5 C6 1_555 1_555
C17 N3 1_555 1_555
C22 N1 1_555 1_555
C26 C27 1_555 1_555
C26 N2 1_555 1_555
Cu5 N3 1_555 1_555
Cu5 O1 1_555 1_555
Cu5 O2 1_555 1_555
N4 S1 1_555 1_555
H9 C10 1_555 1_555
H10 C10 1_555 1_555
C11 C10 1_555 1_555
H11 C11 1_555 1_555
H12 C11 1_555 1_555
C12 C11 1_555 1_555
O3 C12 1_555 1_555
O13 C12 1_555 1_555
C33 H30 1_555 1_555
C34 C33 1_555 1_555
H31 C34 1_555 1_555
C35 C34 1_555 1_555
C36 C35 1_555 1_555
H32 C36 1_555 1_555
C37 C36 1_555 1_555
H33 C37 1_555 1_555
C38 C33 1_555 1_555
C39 C35 1_555 1_555
H34 C39 1_555 1_555
H35 C39 1_555 1_555
H36 C39 1_555 1_555
C40 H37 1_555 1_555
N8 C40 1_555 1_555
O11 S2 1_555 1_555
S2 C38 1_555 1_555
C37 C38 1_555 1_555
N8 S2 1_555 1_555
C13_2 H13_2 1_555 1_555
C14_2 C13_2 1_555 1_555
C15_2 C14_2 1_555 1_555
C16_2 C15_2 1_555 1_555
H15 C16_2 1_555 1_555
C17_2 C16_2 1_555 1_555
H16_2 C17_2 1_555 1_555
C18_2 H17_2 1_555 1_555
C19_2 C18_2 1_555 1_555
H18_2 C19_2 1_555 1_555
C20_2 C19_2 1_555 1_555
C21_2 C20_2 1_555 1_555
H19_2 C21_2 1_555 1_555
C22_2 C21_2 1_555 1_555
H20_2 C22_2 1_555 1_555
C23_2 C20_2 1_555 1_555
C24_2 C23_2 1_555 1_555
H21_2 C24_2 1_555 1_555
C25_2 C24_2 1_555 1_555
H22_2 C25_2 1_555 1_555
C26_2 H23_2 1_555 1_555
C27_2 C23_2 1_555 1_555
H24_2 C27_2 1_555 1_555
Cu1 N1_2 1_555 1_555
N1_2 C18_2 1_555 1_555
N9 C25_2 1_555 1_555
N3_2 C13_2 1_555 1_555
O1_2 C9_2 1_555 1_555
O2_2 C9_2 1_555 1_555
O14 Cu1 1_555 1_555
C17_2 N3_2 1_555 1_555
C22_2 N1_2 1_555 1_555
C26_2 C27_2 1_555 1_555
C26_2 N9 1_555 1_555
Cu1 N3_2 1_555 1_555
Cu1 O1_2 1_555 1_555
Cu1 O2_2 1_555 1_555
H9_2 C10_2 1_555 1_555
H10_2 C10_2 1_555 1_555
C11_2 C10_2 1_555 1_555
H11_2 C11_2 1_555 1_555
H12_2 C11_2 1_555 1_555
C12_2 C11_2 1_555 1_555
O3_2 C12_2 1_555 1_555
O4 C12_2 1_555 1_555
Cu6 O4 1_555 1_555
C28_2 H26_2 1_555 1_555
C29_2 C28_2 1_555 1_555
H27_2 C29_2 1_555 1_555
C31_2 C30_2 1_555 1_555
C32_2 C31_2 1_555 1_555
H29_2 C32_2 1_555 1_555
N5_2 C28_2 1_555 1_555
C33_2 H30_2 1_555 1_555
C34_2 C33_2 1_555 1_555
H31_2 C34_2 1_555 1_555
C35_2 C34_2 1_555 1_555
C36_2 C35_2 1_555 1_555
H32_2 C36_2 1_555 1_555
C37_2 C36_2 1_555 1_555
H33_2 C37_2 1_555 1_555
C38_2 C33_2 1_555 1_555
C39_2 C35_2 1_555 1_555
H34_2 C39_2 1_555 1_555
H35_2 C39_2 1_555 1_555
H36_2 C39_2 1_555 1_555
C40_2 H37_2 1_555 1_555
C41_2 C40_2 1_555 1_555
C45_2 H42_2 1_555 1_555
C46_2 C45_2 1_555 1_555
H43_2 C46_2 1_555 1_555
C47_2 C46_2 1_555 1_555
C48_2 C47_2 1_555 1_555
H44_2 C48_2 1_555 1_555
C49_2 C48_2 1_555 1_555
H45_2 C49_2 1_555 1_555
C50_2 C47_2 1_555 1_555
C51_2 C50_2 1_555 1_555
H46_2 C51_2 1_555 1_555
C52_2 C51_2 1_555 1_555
H47_2 C52_2 1_555 1_555
C53_2 H48_2 1_555 1_555
C54_2 C50_2 1_555 1_555
H49_2 C54_2 1_555 1_555
Cu6 N5_2 1_555 1_555
N6_2 C45_2 1_555 1_555
N7 C52_2 1_555 1_555
N8_2 C40_2 1_555 1_555
O7_2 C41_2 1_555 1_555
O8_2 C41_2 1_555 1_555
H50_2 N8_2 1_555 1_555
O11_2 S2_2 1_555 1_555
O12_2 S2_2 1_555 1_555
S2_2 C38_2 1_555 1_555
C29_2 C30_2 1_555 1_555
C32_2 N5_2 1_555 1_555
C37_2 C38_2 1_555 1_555
C49_2 N6_2 1_555 1_555
C53_2 C54_2 1_555 1_555
C53_2 N7 1_555 1_555
Cu6 N6_2 1_555 1_555
Cu6 O7_2 1_555 1_555
Cu6 O8_2 1_555 1_555
N8_2 S2_2 1_555 1_555
H38_2 C42_2 1_555 1_555
H39_2 C42_2 1_555 1_555
C43_2 C42_2 1_555 1_555
H40_2 C43_2 1_555 1_555
H41_2 C43_2 1_555 1_555
C44_2 C43_2 1_555 1_555
O9_2 C44_2 1_555 1_555
O14 C44_2 1_555 1_555
C1_2 H1_2 1_555 1_555
C2_2 C1_2 1_555 1_555
H2_2 C2_2 1_555 1_555
C3_2 C2_2 1_555 1_555
C4_2 C3_2 1_555 1_555
H3_2 C4_2 1_555 1_555
C5_2 C4_2 1_555 1_555
H4_2 C5_2 1_555 1_555
C6_2 C1_2 1_555 1_555
C7_2 C3_2 1_555 1_555
H5_2 C7_2 1_555 1_555
H6_2 C7_2 1_555 1_555
H7_2 C7_2 1_555 1_555
C8_2 H8_2 1_555 1_555
N4_2 C8_2 1_555 1_555
O5_2 S1_2 1_555 1_555
S1_2 C6_2 1_555 1_555
C5_2 C6_2 1_555 1_555
N4_2 S1_2 1_555 1_555

#END
