
###############################################################################
#
# This file contains modified crystal structure data generated from the
# MOF subset of the Cambridge Structural Database (CSD) v543 
# hosted by the Cambridge Crystallographic Data Centre (CCDC).
#
# This work is licensed under the Creative Commons
# Attribution-NonCommercial-ShareAlike 4.0 International License.
# To view a copy of this license, visit
# http://creativecommons.org/licenses/by-nc-sa/4.0/
# or send a letter to
# Creative Commons, PO Box 1866, Mountain View, CA 94042, USA.
#
# CIF created using the CSD Python API on 29 September 2022
# The structure has been converted into the P1 space group
# The structure has a 3D framework
# The original CSD entry ROJNEJ is in the tetragonal crystal system
# The framework has been calculated to contain at least 10.0% void space
# The void calculation uses a probe of radius 1.32A, grid spacing 0.4
#
###############################################################################

data_ROJNEJ
_chemical_formula_moiety         '(C16 H4 O20 V4)n'
_symmetry_cell_setting           triclinic
_symmetry_space_group_name_H-M   'P 1'
_symmetry_Int_Tables_number      1
_space_group_name_Hall           'P 1'
loop_
_symmetry_equiv_pos_site_id
_symmetry_equiv_pos_as_xyz
1 x,y,z
_cell_length_a                   9.959(10)
_cell_length_b                   9.959(10)
_cell_length_c                   7.113(2)
_cell_angle_alpha                90
_cell_angle_beta                 90
_cell_angle_gamma                90
_cell_volume                     705.479
loop_
_atom_site_label
_atom_site_type_symbol
_atom_site_fract_x
_atom_site_fract_y
_atom_site_fract_z
C8 C 0.4484(3) 0.0516(3) 0.1010(7)
O14 O 0.3825(2) 0.1175(2) 0.2203(4)
V6 V 0.3909(1) 0.1091(1) 0.5000
O1 O 0.3701(3) 0.3121(3) 0.5000
O2 O 0.3825(2) 0.1175(2) 0.7797(4)
C2 C 0.4484(3) 0.0516(3) 0.8990(7)
H1 H 0.6437 0.1437 0.5000
O4 O 0.1879(3) 0.1299(3) 0.5000
O11 O 0.5862(3) 0.0862(3) 0.5000
C7 C 0.5516(3) 0.9484(3) 0.1010(7)
O15 O 0.6175(2) 0.8825(2) 0.2203(4)
V7 V 0.6091(1) 0.8909(1) 0.5000
O3 O 0.4138(3) 0.9138(3) 0.5000
C1 C 0.5578(5) 0.5856(5) 0.5000
C3 C 0.5516(3) 0.9484(3) 0.8990(7)
O5 O 0.6175(2) 0.8825(2) 0.7797(4)
O6 O 0.6299(3) 0.6879(3) 0.5000
C4 C 0.5856(5) 0.4422(5) 0.5000
O7 O 0.6879(3) 0.3701(3) 0.5000
V3 V 0.8909(1) 0.3909(1) 0.5000
C5 C 0.4422(5) 0.4144(5) 0.5000
C6 C 0.4144(5) 0.5578(5) 0.5000
O8 O 0.8121(3) 0.8701(3) 0.5000
H2 H 0.3563 0.8563 0.5000
O12 O 0.3121(3) 0.6299(3) 0.5000
V4 V 0.1091(1) 0.6091(1) 0.5000
C7_2 C 0.0516(3) 0.5516(3) 0.1010(7)
O15_2 O 0.1175(2) 0.6175(2) 0.2203(4)
O3_2 O 0.0862(3) 0.4138(3) 0.5000
C3_2 C 0.0516(3) 0.5516(3) 0.8990(7)
O5_2 O 0.1175(2) 0.6175(2) 0.7797(4)
O8_2 O 0.1299(3) 0.8121(3) 0.5000
H2_2 H 0.1437 0.3563 0.5000
C8_2 C 0.9484(3) 0.4484(3) 0.1010(7)
O14_2 O 0.8825(2) 0.3825(2) 0.2203(4)
O2_2 O 0.8825(2) 0.3825(2) 0.7797(4)
C2_2 C 0.9484(3) 0.4484(3) 0.8990(7)
H1_2 H 0.8563 0.6437 0.5000
O4_2 O 0.8701(3) 0.1879(3) 0.5000
O11_2 O 0.9138(3) 0.5862(3) 0.5000
C4_2 C 0.0856(5) 0.0578(5) 0.5000
C1_2 C 0.0578(5) 0.9144(5) 0.5000
C5_2 C 0.9422(5) 0.0856(5) 0.5000
C6_2 C 0.9144(5) 0.9422(5) 0.5000
loop_
_geom_bond_atom_site_label_1
_geom_bond_atom_site_label_2
_geom_bond_site_symmetry_1
_geom_bond_site_symmetry_2
O14 C8 1_555 1_555
V6 O14 1_555 1_555
V6 O1 1_555 1_555
O2 V6 1_555 1_555
C2 O2 1_555 1_555
H1 O11 1_555 1_555
O4 V6 1_555 1_555
O11 V6 1_555 1_555
O15 C7 1_555 1_555
V7 O15 1_555 1_555
C1 O6 1_555 1_555
O5 C3 1_555 1_555
V7 O3 1_555 1_555
O6 V7 1_555 1_555
C4 C1 1_555 1_555
O7 C4 1_555 1_555
V3 O7 1_555 1_555
C5 C4 1_555 1_555
C6 C1 1_555 1_555
O8 V7 1_555 1_555
H2 O3 1_555 1_555
O12 C6 1_555 1_555
V4 O12 1_555 1_555
O1 C5 1_555 1_555
O5 V7 1_555 1_555
C5 C6 1_555 1_555
O15_2 C7_2 1_555 1_555
V4 O15_2 1_555 1_555
O5_2 C3_2 1_555 1_555
V4 O3_2 1_555 1_555
O8_2 V4 1_555 1_555
H2_2 O3_2 1_555 1_555
O5_2 V4 1_555 1_555
O14_2 C8_2 1_555 1_555
V3 O14_2 1_555 1_555
O2_2 V3 1_555 1_555
C2_2 O2_2 1_555 1_555
H1_2 O11_2 1_555 1_555
O4_2 V3 1_555 1_555
O11_2 V3 1_555 1_555
O4 C4_2 1_555 1_555
C1_2 O8_2 1_555 1_555
O4_2 C5_2 1_555 1_555
O8 C6_2 1_555 1_555

#END
