
###############################################################################
#
# This file contains modified crystal structure data generated from the
# MOF subset of the Cambridge Structural Database (CSD) v543 
# hosted by the Cambridge Crystallographic Data Centre (CCDC).
#
# This work is licensed under the Creative Commons
# Attribution-NonCommercial-ShareAlike 4.0 International License.
# To view a copy of this license, visit
# http://creativecommons.org/licenses/by-nc-sa/4.0/
# or send a letter to
# Creative Commons, PO Box 1866, Mountain View, CA 94042, USA.
#
# CIF created using the CSD Python API on 29 September 2022
# The structure has been converted into the P1 space group
# The structure has a 3D framework
# The original CSD entry ROKRER is in the monoclinic crystal system
# The framework has been calculated to contain at least 10.0% void space
# The void calculation uses a probe of radius 1.32A, grid spacing 0.4
# The framework is charged, counterions have been retained in the structure
#
###############################################################################

data_ROKRER
_chemical_formula_moiety         '(C96 H32 Cd6 O41 4-)n'
_symmetry_cell_setting           triclinic
_symmetry_space_group_name_H-M   'P 1'
_symmetry_Int_Tables_number      1
_space_group_name_Hall           'P 1'
loop_
_symmetry_equiv_pos_site_id
_symmetry_equiv_pos_as_xyz
1 x,y,z
_cell_length_a                   12.8345(12)
_cell_length_b                   15.0989(14)
_cell_length_c                   18.261(2)
_cell_angle_alpha                90
_cell_angle_beta                 121.521(8)
_cell_angle_gamma                90
_cell_volume                     3016.6
loop_
_atom_site_label
_atom_site_type_symbol
_atom_site_fract_x
_atom_site_fract_y
_atom_site_fract_z
Cd1 Cd 0.66703(2) 0.45565(2) 0.09027(2)
O1 O 0.5593(3) 0.3347(2) 0.08537(18)
O4 O 0.7928(3) 0.05279(19) 0.01357(19)
O6 O 0.6663(4) 0.0310(3) 0.2985(2)
C1 C 0.4560(3) 0.3507(2) 0.0211(3)
C2 C 0.3503(3) 0.2949(2) 0.0066(2)
C4 C 0.3610(3) 0.2043(2) 0.02673(19)
C5 C 0.4740(3) 0.1519(2) 0.0552(2)
C6 C 0.5298(3) 0.1492(2) 0.0074(2)
C7 C 0.6342(3) 0.0987(2) 0.0344(2)
C9 C 0.6837(4) 0.0516(3) 0.1109(3)
H3 H 0.7553 0.0171 0.1300
C10 C 0.6301(4) 0.0544(2) 0.1595(2)
C11 C 0.5235(3) 0.1034(2) 0.1305(2)
H4 H 0.4845 0.1035 0.1627
C12 C 0.6916(4) 0.0118(3) 0.2464(3)
O8 O 0.0614(3) 0.0866(2) 0.0277(3)
C15 C 0.2601(3) 0.1616(2) 0.0199(2)
H5 H 0.2664 0.1004 0.0337
H6 H 0.0038 0.3176 0.0443
O14 O 0.5614(3) 0.5866(2) 0.0277(3)
O16 O 0.8537(3) 0.3688(2) 0.08861(19)
O17 O 0.2928(3) 0.55279(19) 0.01357(19)
O19 O 0.7209(7) 0.4622(4) 0.2314(3)
O21 O 0.8337(4) 0.5310(3) 0.2015(2)
O2 O 0.4386(3) 0.4134(2) 0.9723(3)
O3 O 0.6463(3) 0.1312(2) 0.91139(19)
C3 C 0.2399(3) 0.3384(2) 0.9801(2)
H1 H 0.2336 0.3996 0.9663
H2 H 0.4962 0.1824 0.9557
C8 C 0.6931(3) 0.0951(2) 0.9816(2)
C13 C 0.0440(3) 0.1493(2) 0.9789(3)
C14 C 0.1497(3) 0.2051(2) 0.9934(2)
C16 C 0.1390(3) 0.2957(2) 0.97327(19)
C17 C 0.0260(3) 0.3481(2) 0.9448(2)
H8 H 0.0155 0.3965 0.8373
Cd2 Cd 0.33297(2) 0.54435(2) 0.90973(2)
Cd8 Cd 0.83297(2) 0.04435(2) 0.90973(2)
O13 O 0.4407(3) 0.6653(2) 0.91463(18)
O15 O 0.1463(3) 0.6312(2) 0.91139(19)
O18 O 0.7072(3) 0.44721(19) 0.98643(19)
O20 O 0.2791(7) 0.5378(4) 0.7686(3)
O22 O 0.1663(4) 0.4690(3) 0.7985(2)
O5 O 0.7791(7) 0.9622(4) 0.2686(3)
Cd4 Cd 0.16703(2) 0.95565(2) 0.09027(2)
Cd5 Cd 0.83297(2) 0.95565(2) 0.40973(2)
C20 C 0.8069(3) 0.4049(2) 0.0184(2)
O7 O 0.9407(3) 0.1653(2) 0.91463(18)
O11 O 0.7209(7) 0.5378(4) 0.7314(3)
O12 O 0.8337(4) 0.4690(3) 0.7015(2)
C18 C 0.9702(3) 0.3508(2) 0.9926(2)
C19 C 0.8658(3) 0.4013(2) 0.9656(2)
C21 C 0.8163(4) 0.4484(3) 0.8891(3)
H7 H 0.7447 0.4829 0.8700
C22 C 0.8699(4) 0.4456(2) 0.8405(2)
C23 C 0.9765(3) 0.3966(2) 0.8695(2)
C24 C 0.8084(4) 0.4882(3) 0.7536(3)
Cd6 Cd 0.66703(2) 0.54435(2) 0.59027(2)
O7_2 O 0.0593(3) 0.1653(2) 0.58537(18)
O9 O 0.1463(3) 0.3688(2) 0.41139(19)
O10 O 0.2928(3) 0.44721(19) 0.51357(19)
C18_2 C 0.0298(3) 0.3508(2) 0.5074(2)
C19_2 C 0.1342(3) 0.4013(2) 0.5344(2)
C20_2 C 0.1931(3) 0.4049(2) 0.4816(2)
C21_2 C 0.1837(4) 0.4484(3) 0.6109(3)
H7_2 H 0.2553 0.4829 0.6300
C22_2 C 0.1301(4) 0.4456(2) 0.6595(2)
C23_2 C 0.0235(3) 0.3966(2) 0.6305(2)
C24_2 C 0.1916(4) 0.4882(3) 0.7464(3)
Cd3 Cd 0.33297(2) 0.45565(2) 0.40973(2)
Cd7 Cd 0.16703(2) 0.04435(2) 0.59027(2)
O1_2 O 0.4407(3) 0.3347(2) 0.41463(18)
O2_2 O 0.5614(3) 0.4134(2) 0.5277(3)
O3_2 O 0.3537(3) 0.1312(2) 0.58861(19)
O4_2 O 0.2072(3) 0.05279(19) 0.48643(19)
O6_2 O 0.3337(4) 0.0310(3) 0.2015(2)
C1_2 C 0.5440(3) 0.3507(2) 0.4789(3)
C2_2 C 0.6497(3) 0.2949(2) 0.4934(2)
C3_2 C 0.7601(3) 0.3384(2) 0.5199(2)
H1_2 H 0.7664 0.3996 0.5337
C4_2 C 0.6390(3) 0.2043(2) 0.47327(19)
C5_2 C 0.5260(3) 0.1519(2) 0.4448(2)
C6_2 C 0.4702(3) 0.1492(2) 0.4926(2)
H2_2 H 0.5038 0.1824 0.5443
C7_2 C 0.3658(3) 0.0987(2) 0.4656(2)
C8_2 C 0.3069(3) 0.0951(2) 0.5184(2)
C9_2 C 0.3163(4) 0.0516(3) 0.3891(3)
H3_2 H 0.2447 0.0171 0.3700
C10_2 C 0.3699(4) 0.0544(2) 0.3405(2)
C11_2 C 0.4765(3) 0.1034(2) 0.3695(2)
H4_2 H 0.5155 0.1035 0.3373
C12_2 C 0.3084(4) 0.0118(3) 0.2536(3)
O8_2 O 0.9386(3) 0.0866(2) 0.4723(3)
C13_2 C 0.9560(3) 0.1493(2) 0.5211(3)
C14_2 C 0.8503(3) 0.2051(2) 0.5066(2)
C15_2 C 0.7399(3) 0.1616(2) 0.4801(2)
H5_2 H 0.7336 0.1004 0.4663
C16_2 C 0.8610(3) 0.2957(2) 0.52673(19)
C17_2 C 0.9740(3) 0.3481(2) 0.5552(2)
H6_2 H 0.9962 0.3176 0.4557
H8_2 H 0.9845 0.3965 0.6627
O13_2 O 0.5593(3) 0.6653(2) 0.58537(18)
O14_2 O 0.4386(3) 0.5866(2) 0.4723(3)
O15_2 O 0.8537(3) 0.6312(2) 0.58861(19)
O17_2 O 0.7072(3) 0.55279(19) 0.48643(19)
O19_2 O 0.2791(7) 0.4622(4) 0.2686(3)
O21_2 O 0.1663(4) 0.5310(3) 0.2985(2)
O5_2 O 0.2209(7) 0.9622(4) 0.2314(3)
O1_3 O 0.0593(3) 0.8347(2) 0.08537(18)
C6_3 C 0.0298(3) 0.6492(2) 0.0074(2)
C7_3 C 0.1342(3) 0.5987(2) 0.0344(2)
C9_3 C 0.1837(4) 0.5516(3) 0.1109(3)
H3_3 H 0.2553 0.5171 0.1300
C10_3 C 0.1301(4) 0.5544(2) 0.1595(2)
C11_3 C 0.0235(3) 0.6034(2) 0.1305(2)
C12_3 C 0.1916(4) 0.5118(3) 0.2464(3)
O16_2 O 0.3537(3) 0.8688(2) 0.08861(19)
C8_3 C 0.1931(3) 0.5951(2) 0.9816(2)
O18_2 O 0.2072(3) 0.94721(19) 0.98643(19)
O11_2 O 0.2209(7) 0.0378(4) 0.7314(3)
O20_2 O 0.7791(7) 0.0378(4) 0.7686(3)
C1_3 C 0.9560(3) 0.8507(2) 0.0211(3)
C2_3 C 0.8503(3) 0.7949(2) 0.0066(2)
C4_3 C 0.8610(3) 0.7043(2) 0.02673(19)
C5_3 C 0.9740(3) 0.6519(2) 0.0552(2)
H4_3 H 0.9845 0.6035 0.1627
C15_3 C 0.7601(3) 0.6616(2) 0.0199(2)
H5_3 H 0.7664 0.6004 0.0337
H6_3 H 0.5038 0.8176 0.0443
C20_3 C 0.3069(3) 0.9049(2) 0.0184(2)
O2_3 O 0.9386(3) 0.9134(2) 0.9723(3)
C3_3 C 0.7399(3) 0.8384(2) 0.9801(2)
H1_3 H 0.7336 0.8996 0.9663
H2_3 H 0.9962 0.6824 0.9557
O12_2 O 0.3337(4) 0.9690(3) 0.7015(2)
C13_3 C 0.5440(3) 0.6493(2) 0.9789(3)
C14_3 C 0.6497(3) 0.7051(2) 0.9934(2)
C16_3 C 0.6390(3) 0.7957(2) 0.97327(19)
C17_3 C 0.5260(3) 0.8481(2) 0.9448(2)
C18_3 C 0.4702(3) 0.8508(2) 0.9926(2)
C19_3 C 0.3658(3) 0.9013(2) 0.9656(2)
C21_3 C 0.3163(4) 0.9484(3) 0.8891(3)
H7_3 H 0.2447 0.9829 0.8700
C22_3 C 0.3699(4) 0.9456(2) 0.8405(2)
C23_3 C 0.4765(3) 0.8966(2) 0.8695(2)
H8_3 H 0.5155 0.8965 0.8373
C24_3 C 0.3084(4) 0.9882(3) 0.7536(3)
O22_2 O 0.6663(4) 0.9690(3) 0.7985(2)
O2_4 O 0.0614(3) 0.9134(2) 0.5277(3)
C1_4 C 0.0440(3) 0.8507(2) 0.4789(3)
C2_4 C 0.1497(3) 0.7949(2) 0.4934(2)
C3_4 C 0.2601(3) 0.8384(2) 0.5199(2)
H1_4 H 0.2664 0.8996 0.5337
C4_4 C 0.1390(3) 0.7043(2) 0.47327(19)
C5_4 C 0.0260(3) 0.6519(2) 0.4448(2)
H2_4 H 0.0038 0.6824 0.5443
H4_4 H 0.0155 0.6035 0.3373
O9_2 O 0.6463(3) 0.8688(2) 0.41139(19)
O10_2 O 0.7928(3) 0.94721(19) 0.51357(19)
C13_4 C 0.4560(3) 0.6493(2) 0.5211(3)
C14_4 C 0.3503(3) 0.7051(2) 0.5066(2)
C15_4 C 0.2399(3) 0.6616(2) 0.4801(2)
H5_4 H 0.2336 0.6004 0.4663
C16_4 C 0.3610(3) 0.7957(2) 0.52673(19)
C17_4 C 0.4740(3) 0.8481(2) 0.5552(2)
C18_4 C 0.5298(3) 0.8508(2) 0.5074(2)
H6_4 H 0.4962 0.8176 0.4557
C19_4 C 0.6342(3) 0.9013(2) 0.5344(2)
C20_4 C 0.6931(3) 0.9049(2) 0.4816(2)
C21_4 C 0.6837(4) 0.9484(3) 0.6109(3)
H7_4 H 0.7553 0.9829 0.6300
C22_4 C 0.6301(4) 0.9456(2) 0.6595(2)
C23_4 C 0.5235(3) 0.8966(2) 0.6305(2)
H8_4 H 0.4845 0.8965 0.6627
C24_4 C 0.6916(4) 0.9882(3) 0.7464(3)
O1_4 O 0.9407(3) 0.8347(2) 0.41463(18)
C6_4 C 0.9702(3) 0.6492(2) 0.4926(2)
C7_4 C 0.8658(3) 0.5987(2) 0.4656(2)
C8_4 C 0.8069(3) 0.5951(2) 0.5184(2)
C9_4 C 0.8163(4) 0.5516(3) 0.3891(3)
H3_4 H 0.7447 0.5171 0.3700
C10_4 C 0.8699(4) 0.5544(2) 0.3405(2)
C11_4 C 0.9765(3) 0.6034(2) 0.3695(2)
C12_4 C 0.8084(4) 0.5118(3) 0.2536(3)
loop_
_geom_bond_atom_site_label_1
_geom_bond_atom_site_label_2
_geom_bond_site_symmetry_1
_geom_bond_site_symmetry_2
Cd1 O1 1_555 1_555
O1 C1 1_555 1_555
O6 C12 1_555 1_555
C2 C1 1_555 1_555
C4 C2 1_555 1_555
C5 C4 1_555 1_555
C6 C5 1_555 1_555
C7 C6 1_555 1_555
C9 C7 1_555 1_555
H3 C9 1_555 1_555
C10 C9 1_555 1_555
C11 C5 1_555 1_555
H4 C11 1_555 1_555
C12 C10 1_555 1_555
C15 C4 1_555 1_555
H5 C15 1_555 1_555
O14 Cd1 1_555 1_555
O16 Cd1 1_555 1_555
O19 Cd1 1_555 1_555
O21 Cd1 1_555 1_555
C10 C11 1_555 1_555
O3 C8 1_555 1_555
H1 C3 1_555 1_555
C13 C14 1_555 1_555
C16 C3 1_555 1_555
C17 C16 1_555 1_555
Cd2 O2 1_555 1_555
Cd8 O3 1_555 1_555
O13 Cd2 1_555 1_555
O15 Cd2 1_555 1_555
O20 Cd2 1_555 1_555
O22 Cd2 1_555 1_555
C14 C16 1_555 1_555
Cd5 O5 1_555 1_555
O16 C20 1_555 1_555
O11 C24 1_555 1_555
O12 C24 1_555 1_555
C19 C18 1_555 1_555
C21 C19 1_555 1_555
H7 C21 1_555 1_555
C22 C21 1_555 1_555
C24 C22 1_555 1_555
Cd6 O11 1_555 1_555
Cd8 O7 1_555 1_555
O12 Cd6 1_555 1_555
C22 C23 1_555 1_555
O9 C20_2 1_555 1_555
O10 C20_2 1_555 1_555
O20 C24_2 1_555 1_555
O22 C24_2 1_555 1_555
C19_2 C18_2 1_555 1_555
C20_2 C19_2 1_555 1_555
C21_2 C19_2 1_555 1_555
H7_2 C21_2 1_555 1_555
C22_2 C21_2 1_555 1_555
C24_2 C22_2 1_555 1_555
Cd3 O9 1_555 1_555
Cd7 O7_2 1_555 1_555
O10 Cd3 1_555 1_555
C22_2 C23_2 1_555 1_555
Cd3 O1_2 1_555 1_555
O1_2 C1_2 1_555 1_555
O2_2 Cd3 1_555 1_555
O3_2 C8_2 1_555 1_555
O4_2 C8_2 1_555 1_555
O6_2 C12_2 1_555 1_555
C1_2 O2_2 1_555 1_555
C2_2 C1_2 1_555 1_555
C3_2 C2_2 1_555 1_555
H1_2 C3_2 1_555 1_555
C4_2 C2_2 1_555 1_555
C5_2 C4_2 1_555 1_555
C6_2 C5_2 1_555 1_555
H2_2 C6_2 1_555 1_555
C7_2 C6_2 1_555 1_555
C8_2 C7_2 1_555 1_555
C9_2 C7_2 1_555 1_555
H3_2 C9_2 1_555 1_555
C10_2 C9_2 1_555 1_555
C11_2 C5_2 1_555 1_555
H4_2 C11_2 1_555 1_555
C12_2 C10_2 1_555 1_555
O8_2 C13_2 1_555 1_555
C13_2 C14_2 1_555 1_555
C14_2 C15_2 1_555 1_555
C15_2 C4_2 1_555 1_555
H5_2 C15_2 1_555 1_555
C16_2 C3_2 1_555 1_555
C17_2 C16_2 1_555 1_555
Cd6 O2_2 1_555 1_555
Cd7 O3_2 1_555 1_555
O13_2 Cd6 1_555 1_555
O14_2 Cd3 1_555 1_555
O15_2 Cd6 1_555 1_555
O17_2 Cd6 1_555 1_555
O19_2 Cd3 1_555 1_555
O21_2 Cd3 1_555 1_555
O4_2 Cd7 1_555 1_555
C10_2 C11_2 1_555 1_555
C14_2 C16_2 1_555 1_555
Cd6 O14_2 1_555 1_555
Cd4 O5_2 1_555 1_555
Cd4 O1_3 1_555 1_555
O19_2 C12_3 1_555 1_555
O21_2 C12_3 1_555 1_555
C7_3 C6_3 1_555 1_555
C9_3 C7_3 1_555 1_555
H3_3 C9_3 1_555 1_555
C10_3 C9_3 1_555 1_555
C12_3 C10_3 1_555 1_555
O16_2 Cd4 1_555 1_555
C10_3 C11_3 1_555 1_555
O15 C8_3 1_555 1_555
Cd7 O11_2 1_555 1_555
O20_2 Cd8 1_555 1_555
C2_3 C1_3 1_555 1_555
C4_3 C2_3 1_555 1_555
C5_3 C4_3 1_555 1_555
O16_2 C20_3 1_555 1_555
C15_3 C4_3 1_555 1_555
H5_3 C15_3 1_555 1_555
H1_3 C3_3 1_555 1_555
O13 C13_3 1_555 1_555
O12_2 C24_3 1_555 1_555
C13_3 C14_3 1_555 1_555
C16_3 C3_3 1_555 1_555
C17_3 C16_3 1_555 1_555
C18_3 C17_3 1_555 1_555
C19_3 C18_3 1_555 1_555
C21_3 C19_3 1_555 1_555
H7_3 C21_3 1_555 1_555
C22_3 C21_3 1_555 1_555
C23_3 C17_3 1_555 1_555
H8_3 C23_3 1_555 1_555
C24_3 C22_3 1_555 1_555
C14_3 C16_3 1_555 1_555
C22_3 C23_3 1_555 1_555
C1_4 O2_4 1_555 1_555
C2_4 C1_4 1_555 1_555
C3_4 C2_4 1_555 1_555
H1_4 C3_4 1_555 1_555
C4_4 C2_4 1_555 1_555
C5_4 C4_4 1_555 1_555
O13_2 C13_4 1_555 1_555
O14_2 C13_4 1_555 1_555
O9_2 C20_4 1_555 1_555
O10_2 C20_4 1_555 1_555
O22_2 C24_4 1_555 1_555
C13_4 C14_4 1_555 1_555
C14_4 C15_4 1_555 1_555
C15_4 C4_4 1_555 1_555
H5_4 C15_4 1_555 1_555
C16_4 C3_4 1_555 1_555
C17_4 C16_4 1_555 1_555
C18_4 C17_4 1_555 1_555
H6_4 C18_4 1_555 1_555
C19_4 C18_4 1_555 1_555
C20_4 C19_4 1_555 1_555
C21_4 C19_4 1_555 1_555
H7_4 C21_4 1_555 1_555
C22_4 C21_4 1_555 1_555
C23_4 C17_4 1_555 1_555
H8_4 C23_4 1_555 1_555
C24_4 C22_4 1_555 1_555
Cd5 O9_2 1_555 1_555
O10_2 Cd5 1_555 1_555
C14_4 C16_4 1_555 1_555
C22_4 C23_4 1_555 1_555
Cd5 O1_4 1_555 1_555
O15_2 C8_4 1_555 1_555
O17_2 C8_4 1_555 1_555
O19 C12_4 1_555 1_555
O21 C12_4 1_555 1_555
C7_4 C6_4 1_555 1_555
C8_4 C7_4 1_555 1_555
C9_4 C7_4 1_555 1_555
H3_4 C9_4 1_555 1_555
C10_4 C9_4 1_555 1_555
C12_4 C10_4 1_555 1_555
C10_4 C11_4 1_555 1_555

#END
