
###############################################################################
#
# This file contains modified crystal structure data generated from the
# MOF subset of the Cambridge Structural Database (CSD) v543 
# hosted by the Cambridge Crystallographic Data Centre (CCDC).
#
# This work is licensed under the Creative Commons
# Attribution-NonCommercial-ShareAlike 4.0 International License.
# To view a copy of this license, visit
# http://creativecommons.org/licenses/by-nc-sa/4.0/
# or send a letter to
# Creative Commons, PO Box 1866, Mountain View, CA 94042, USA.
#
# CIF created using the CSD Python API on 29 September 2022
# The structure has been converted into the P1 space group
# The structure has a 3D framework
# The original CSD entry ROKRUH is in the monoclinic crystal system
# The framework has been calculated to contain at least 10.0% void space
# The void calculation uses a probe of radius 1.32A, grid spacing 0.4
# The framework is charged, counterions have been retained in the structure
#
###############################################################################

data_ROKRUH
_chemical_formula_moiety         '(C96 H32 Ni8 O50 6-)n'
_symmetry_cell_setting           triclinic
_symmetry_space_group_name_H-M   'P 1'
_symmetry_Int_Tables_number      1
_space_group_name_Hall           'P 1'
loop_
_symmetry_equiv_pos_site_id
_symmetry_equiv_pos_as_xyz
1 x,y,z
_cell_length_a                   18.3204(4)
_cell_length_b                   8.7086(2)
_cell_length_c                   23.3404(5)
_cell_angle_alpha                90
_cell_angle_beta                 100.601(2)
_cell_angle_gamma                90
_cell_volume                     3660.29
loop_
_atom_site_label
_atom_site_type_symbol
_atom_site_fract_x
_atom_site_fract_y
_atom_site_fract_z
O8 O 0.43423(11) 0.1725(3) 0.62363(8)
O9 O 0.17930(10) 0.1148(2) 0.35497(9)
O10 O 0.40278(11) 0.5551(3) 0.25928(9)
O11 O 0.17247(10) 0.3205(2) 0.29865(9)
O12 O 0.53733(13) 0.0463(3) 0.66106(9)
O13 O 0.50557(11) 0.5416(3) 0.32830(9)
C13 C 0.41161(15) 0.1761(3) 0.40658(11)
C14 C 0.33431(15) 0.1575(3) 0.39262(12)
H5 H 0.3107 0.0814 0.4120
C15 C 0.44532(15) 0.2903(3) 0.37882(12)
H6 H 0.4975 0.3045 0.3886
C16 C 0.32703(15) 0.3639(3) 0.32269(13)
H7 H 0.2983 0.4274 0.2940
C17 C 0.49438(15) 0.0348(3) 0.55787(12)
C18 C 0.45184(15) 0.1113(3) 0.51089(12)
H8 H 0.4179 0.1876 0.5186
C19 C 0.40346(15) 0.3836(3) 0.33696(12)
C20 C 0.29235(15) 0.2500(3) 0.35069(12)
C21 C 0.44049(15) 0.5044(3) 0.30587(12)
C22 C 0.45676(14) 0.0811(3) 0.45303(12)
C23 C 0.48863(15) 0.0865(3) 0.61921(12)
C24 C 0.21064(15) 0.2274(3) 0.33411(12)
Ni3 Ni 0.57624(2) 0.69726(5) 0.30526(2)
Ni4 Ni 0.42376(2) 0.69726(5) 0.19474(2)
Ni5 Ni 0.07624(2) 0.19726(5) 0.30526(2)
Ni7 Ni 0.42376(2) 0.30274(5) 0.69474(2)
O1 O 0.5000 0.8263(3) 0.2500
O2 O 0.56577(11) 0.8275(3) 0.37637(8)
O3 O 0.82070(10) 0.8852(2) 0.64503(9)
O4 O 0.59722(11) 0.4449(3) 0.74072(9)
O5 O 0.82753(10) 0.6795(2) 0.70135(9)
O6 O 0.46267(13) 0.9537(3) 0.33894(9)
O7 O 0.49443(11) 0.4584(3) 0.67170(9)
C1 C 0.58839(15) 0.8239(3) 0.59342(11)
C2 C 0.66569(15) 0.8425(3) 0.60738(12)
H1 H 0.6893 0.9186 0.5880
C3 C 0.55468(15) 0.7097(3) 0.62118(12)
H2 H 0.5025 0.6955 0.6114
C4 C 0.67297(15) 0.6361(3) 0.67731(13)
H3 H 0.7017 0.5726 0.7060
C5 C 0.50562(15) 0.9652(3) 0.44213(12)
C6 C 0.54816(15) 0.8887(3) 0.48911(12)
H4 H 0.5821 0.8124 0.4814
C7 C 0.59654(15) 0.6164(3) 0.66304(12)
C8 C 0.70765(15) 0.7500(3) 0.64931(12)
C9 C 0.55951(15) 0.4956(3) 0.69413(12)
C10 C 0.54324(14) 0.9189(3) 0.54697(12)
C11 C 0.51137(15) 0.9135(3) 0.38079(12)
C12 C 0.78936(15) 0.7726(3) 0.66589(12)
Ni8 Ni 0.57624(2) 0.30274(5) 0.80526(2)
Ni9 Ni 0.92376(2) 0.80274(5) 0.69474(2)
O14 O 0.43423(11) 0.8275(3) 0.12363(8)
O15 O 0.67930(10) 0.6148(2) 0.35497(9)
O16 O 0.32070(10) 0.6148(2) 0.14503(9)
O18 O 0.59722(11) 0.5551(3) 0.24072(9)
O19 O 0.67247(10) 0.8205(2) 0.29865(9)
O20 O 0.32753(10) 0.8205(2) 0.20135(9)
O22 O 0.49443(11) 0.5416(3) 0.17170(9)
O9_2 O 0.82070(10) 0.1148(2) 0.14503(9)
O11_2 O 0.82753(10) 0.3205(2) 0.20135(9)
C13_2 C 0.58839(15) 0.1761(3) 0.09342(11)
C14_2 C 0.66569(15) 0.1575(3) 0.10738(12)
H5_2 H 0.6893 0.0814 0.0880
C15_2 C 0.55468(15) 0.2903(3) 0.12118(12)
H6_2 H 0.5025 0.3045 0.1114
C16_2 C 0.67297(15) 0.3639(3) 0.17731(13)
H7_2 H 0.7017 0.4274 0.2060
C19_2 C 0.59654(15) 0.3836(3) 0.16304(12)
C20_2 C 0.70765(15) 0.2500(3) 0.14931(12)
C21_2 C 0.55951(15) 0.5044(3) 0.19413(12)
C22_2 C 0.54324(14) 0.0811(3) 0.04697(12)
C24_2 C 0.78936(15) 0.2274(3) 0.16589(12)
Ni5_2 Ni 0.92376(2) 0.19726(5) 0.19474(2)
O8_2 O 0.56577(11) 0.1725(3) 0.87637(8)
O12_2 O 0.46267(13) 0.0463(3) 0.83894(9)
C17_2 C 0.50562(15) 0.0348(3) 0.94213(12)
C18_2 C 0.54816(15) 0.1113(3) 0.98911(12)
H8_2 H 0.5821 0.1876 0.9814
C23_2 C 0.51137(15) 0.0865(3) 0.88079(12)
O6_2 O 0.53733(13) 0.9537(3) 0.16106(9)
C5_2 C 0.49438(15) 0.9652(3) 0.05787(12)
C6_2 C 0.45184(15) 0.8887(3) 0.01089(12)
H4_2 H 0.4179 0.8124 0.0186
C11_2 C 0.48863(15) 0.9135(3) 0.11921(12)
O3_2 O 0.17930(10) 0.8852(2) 0.85497(9)
O4_2 O 0.40278(11) 0.4449(3) 0.75928(9)
O5_2 O 0.17247(10) 0.6795(2) 0.79865(9)
O7_2 O 0.50557(11) 0.4584(3) 0.82830(9)
C1_2 C 0.41161(15) 0.8239(3) 0.90658(11)
C2_2 C 0.33431(15) 0.8425(3) 0.89262(12)
H1_2 H 0.3107 0.9186 0.9120
C3_2 C 0.44532(15) 0.7097(3) 0.87882(12)
H2_2 H 0.4975 0.6955 0.8886
C4_2 C 0.32703(15) 0.6361(3) 0.82269(13)
H3_2 H 0.2983 0.5726 0.7940
C7_2 C 0.40346(15) 0.6164(3) 0.83696(12)
C8_2 C 0.29235(15) 0.7500(3) 0.85069(12)
C9_2 C 0.44049(15) 0.4956(3) 0.80587(12)
C10_2 C 0.45676(14) 0.9189(3) 0.95303(12)
C12_2 C 0.21064(15) 0.7726(3) 0.83411(12)
Ni9_2 Ni 0.07624(2) 0.80274(5) 0.80526(2)
O13_2 O 0.00557(11) 0.0416(3) 0.32830(9)
O1_2 O 0.0000 0.3263(3) 0.2500
O2_2 O 0.06577(11) 0.3275(3) 0.37637(8)
O3_3 O 0.32070(10) 0.3852(2) 0.64503(9)
O5_3 O 0.32753(10) 0.1795(2) 0.70135(9)
C1_3 C 0.08839(15) 0.3239(3) 0.59342(11)
C2_3 C 0.16569(15) 0.3425(3) 0.60738(12)
H1_3 H 0.1893 0.4186 0.5880
C3_3 C 0.05468(15) 0.2097(3) 0.62118(12)
H2_3 H 0.0025 0.1955 0.6114
C4_3 C 0.17297(15) 0.1361(3) 0.67731(13)
H3_3 H 0.2017 0.0726 0.7060
C5_3 C 0.00562(15) 0.4652(3) 0.44213(12)
C6_3 C 0.04816(15) 0.3887(3) 0.48911(12)
H4_3 H 0.0821 0.3124 0.4814
C7_3 C 0.09654(15) 0.1164(3) 0.66304(12)
C8_3 C 0.20765(15) 0.2500(3) 0.64931(12)
C10_3 C 0.04324(14) 0.4189(3) 0.54697(12)
C11_3 C 0.01137(15) 0.4135(3) 0.38079(12)
C12_3 C 0.28936(15) 0.2726(3) 0.66589(12)
O12_3 O 0.03733(13) 0.5463(3) 0.66106(9)
O18_2 O 0.09722(11) 0.0551(3) 0.24072(9)
O4_3 O 0.09722(11) 0.9449(3) 0.74072(9)
C9_3 C 0.05951(15) 0.9956(3) 0.69413(12)
O10_2 O 0.90278(11) 0.0551(3) 0.25928(9)
C21_3 C 0.94049(15) 0.0044(3) 0.30587(12)
O1_3 O 1.0000 0.3263(3) 0.2500
O6_3 O 0.96267(13) 0.4537(3) 0.33894(9)
O8_3 O 0.93423(11) 0.6725(3) 0.62363(8)
C13_3 C 0.91161(15) 0.6761(3) 0.40658(11)
C14_3 C 0.83431(15) 0.6575(3) 0.39262(12)
H5_3 H 0.8107 0.5814 0.4120
C15_3 C 0.94532(15) 0.7903(3) 0.37882(12)
H6_3 H 0.9975 0.8045 0.3886
C16_3 C 0.82703(15) 0.8639(3) 0.32269(13)
H7_3 H 0.7983 0.9274 0.2940
C17_3 C 0.99438(15) 0.5348(3) 0.55787(12)
C18_3 C 0.95184(15) 0.6113(3) 0.51089(12)
H8_3 H 0.9179 0.6876 0.5186
C19_3 C 0.90346(15) 0.8836(3) 0.33696(12)
C20_3 C 0.79235(15) 0.7500(3) 0.35069(12)
C22_3 C 0.95676(14) 0.5811(3) 0.45303(12)
C23_3 C 0.98863(15) 0.5865(3) 0.61921(12)
C24_3 C 0.71064(15) 0.7274(3) 0.33411(12)
O14_2 O 0.93423(11) 0.3275(3) 0.12363(8)
O22_2 O 0.99443(11) 0.0416(3) 0.17170(9)
O7_3 O 0.99443(11) 0.9584(3) 0.67170(9)
C21_4 C 0.05951(15) 0.0044(3) 0.19413(12)
O6_4 O 0.03733(13) 0.4537(3) 0.16106(9)
C13_4 C 0.08839(15) 0.6761(3) 0.09342(11)
C14_4 C 0.16569(15) 0.6575(3) 0.10738(12)
H5_4 H 0.1893 0.5814 0.0880
C15_4 C 0.05468(15) 0.7903(3) 0.12118(12)
H6_4 H 0.0025 0.8045 0.1114
C16_4 C 0.17297(15) 0.8639(3) 0.17731(13)
H7_4 H 0.2017 0.9274 0.2060
C19_4 C 0.09654(15) 0.8836(3) 0.16304(12)
C20_4 C 0.20765(15) 0.7500(3) 0.14931(12)
C22_4 C 0.04324(14) 0.5811(3) 0.04697(12)
C24_4 C 0.28936(15) 0.7274(3) 0.16589(12)
O8_4 O 0.06577(11) 0.6725(3) 0.87637(8)
C17_4 C 0.00562(15) 0.5348(3) 0.94213(12)
C18_4 C 0.04816(15) 0.6113(3) 0.98911(12)
H8_4 H 0.0821 0.6876 0.9814
C23_4 C 0.01137(15) 0.5865(3) 0.88079(12)
O7_4 O 0.00557(11) 0.9584(3) 0.82830(9)
C5_4 C 0.99438(15) 0.4652(3) 0.05787(12)
C6_4 C 0.95184(15) 0.3887(3) 0.01089(12)
H4_4 H 0.9179 0.3124 0.0186
C11_4 C 0.98863(15) 0.4135(3) 0.11921(12)
O3_4 O 0.67930(10) 0.3852(2) 0.85497(9)
O5_4 O 0.67247(10) 0.1795(2) 0.79865(9)
C1_4 C 0.91161(15) 0.3239(3) 0.90658(11)
C2_4 C 0.83431(15) 0.3425(3) 0.89262(12)
H1_4 H 0.8107 0.4186 0.9120
C3_4 C 0.94532(15) 0.2097(3) 0.87882(12)
H2_4 H 0.9975 0.1955 0.8886
C4_4 C 0.82703(15) 0.1361(3) 0.82269(13)
H3_4 H 0.7983 0.0726 0.7940
C7_4 C 0.90346(15) 0.1164(3) 0.83696(12)
C8_4 C 0.79235(15) 0.2500(3) 0.85069(12)
C10_4 C 0.95676(14) 0.4189(3) 0.95303(12)
C12_4 C 0.71064(15) 0.2726(3) 0.83411(12)
O12_4 O 0.96267(13) 0.5463(3) 0.83894(9)
O4_4 O 0.90278(11) 0.9449(3) 0.75928(9)
C9_4 C 0.94049(15) 0.9956(3) 0.80587(12)
O1_4 O 0.5000 0.1737(3) 0.7500
O1_5 O 0.0000 0.6737(3) 0.7500
O1_6 O 1.0000 0.6737(3) 0.7500
loop_
_geom_bond_atom_site_label_1
_geom_bond_atom_site_label_2
_geom_bond_site_symmetry_1
_geom_bond_site_symmetry_2
O8 C23 1_555 1_555
O9 C24 1_555 1_555
O10 C21 1_555 1_555
O11 C24 1_555 1_555
O12 C23 1_555 1_555
O13 C21 1_555 1_555
C13 C14 1_555 1_555
C14 H5 1_555 1_555
C15 C13 1_555 1_555
H6 C15 1_555 1_555
C16 H7 1_555 1_555
C18 C17 1_555 1_555
H8 C18 1_555 1_555
C19 C15 1_555 1_555
C20 C14 1_555 1_555
C21 C19 1_555 1_555
C23 C17 1_555 1_555
C24 C20 1_555 1_555
Ni3 O13 1_555 1_555
Ni4 O10 1_555 1_555
Ni5 O9 1_555 1_555
Ni7 O8 1_555 1_555
O11 Ni5 1_555 1_555
C13 C22 1_555 1_555
C16 C19 1_555 1_555
C16 C20 1_555 1_555
C18 C22 1_555 1_555
Ni3 O1 1_555 1_555
O1 Ni4 1_555 1_555
O2 Ni3 1_555 1_555
O3 C12 1_555 1_555
O4 C9 1_555 1_555
O5 C12 1_555 1_555
O6 C11 1_555 1_555
O7 C9 1_555 1_555
C1 C2 1_555 1_555
C2 H1 1_555 1_555
C3 C1 1_555 1_555
H2 C3 1_555 1_555
C4 H3 1_555 1_555
C5 C6 1_555 1_555
C6 H4 1_555 1_555
C7 C3 1_555 1_555
C8 C2 1_555 1_555
C9 C7 1_555 1_555
C10 C1 1_555 1_555
C11 O2 1_555 1_555
C12 C8 1_555 1_555
Ni4 O14 1_555 1_555
Ni7 O7 1_555 1_555
Ni8 O4 1_555 1_555
Ni9 O3 1_555 1_555
O15 Ni3 1_555 1_555
O16 Ni4 1_555 1_555
O18 Ni3 1_555 1_555
O19 Ni3 1_555 1_555
O20 Ni4 1_555 1_555
O22 Ni4 1_555 1_555
O5 Ni9 1_555 1_555
C4 C7 1_555 1_555
C4 C8 1_555 1_555
C5 C11 1_555 1_555
C6 C10 1_555 1_555
O9_2 C24_2 1_555 1_555
O18 C21_2 1_555 1_555
O11_2 C24_2 1_555 1_555
O22 C21_2 1_555 1_555
C13_2 C14_2 1_555 1_555
C14_2 H5_2 1_555 1_555
C15_2 C13_2 1_555 1_555
H6_2 C15_2 1_555 1_555
C16_2 H7_2 1_555 1_555
C19_2 C15_2 1_555 1_555
C20_2 C14_2 1_555 1_555
C21_2 C19_2 1_555 1_555
C24_2 C20_2 1_555 1_555
Ni5_2 O9_2 1_555 1_555
O11_2 Ni5_2 1_555 1_555
C13_2 C22_2 1_555 1_555
C16_2 C19_2 1_555 1_555
C16_2 C20_2 1_555 1_555
O8_2 C23_2 1_555 1_555
O12_2 C23_2 1_555 1_555
C18_2 C17_2 1_555 1_555
H8_2 C18_2 1_555 1_555
C23_2 C17_2 1_555 1_555
Ni8 O8_2 1_555 1_555
O6_2 C11_2 1_555 1_555
C5_2 C6_2 1_555 1_555
C6_2 H4_2 1_555 1_555
C11_2 O14 1_555 1_555
C5_2 C11_2 1_555 1_555
O3_2 C12_2 1_555 1_555
O4_2 C9_2 1_555 1_555
O5_2 C12_2 1_555 1_555
O7_2 C9_2 1_555 1_555
C1_2 C2_2 1_555 1_555
C2_2 H1_2 1_555 1_555
C3_2 C1_2 1_555 1_555
H2_2 C3_2 1_555 1_555
C4_2 H3_2 1_555 1_555
C7_2 C3_2 1_555 1_555
C8_2 C2_2 1_555 1_555
C9_2 C7_2 1_555 1_555
C10_2 C1_2 1_555 1_555
C12_2 C8_2 1_555 1_555
Ni8 O7_2 1_555 1_555
Ni7 O4_2 1_555 1_555
Ni9_2 O3_2 1_555 1_555
O5_2 Ni9_2 1_555 1_555
C4_2 C7_2 1_555 1_555
C4_2 C8_2 1_555 1_555
Ni5 O13_2 1_555 1_555
Ni5 O1_2 1_555 1_555
O2_2 Ni5 1_555 1_555
O3_3 C12_3 1_555 1_555
O5_3 C12_3 1_555 1_555
C1_3 C2_3 1_555 1_555
C2_3 H1_3 1_555 1_555
C3_3 C1_3 1_555 1_555
H2_3 C3_3 1_555 1_555
C4_3 H3_3 1_555 1_555
C5_3 C6_3 1_555 1_555
C6_3 H4_3 1_555 1_555
C7_3 C3_3 1_555 1_555
C8_3 C2_3 1_555 1_555
C10_3 C1_3 1_555 1_555
C11_3 O2_2 1_555 1_555
C12_3 C8_3 1_555 1_555
Ni7 O3_3 1_555 1_555
O18_2 Ni5 1_555 1_555
O5_3 Ni7 1_555 1_555
C4_3 C7_3 1_555 1_555
C4_3 C8_3 1_555 1_555
C5_3 C11_3 1_555 1_555
C6_3 C10_3 1_555 1_555
O4_3 C9_3 1_555 1_555
Ni9_2 O4_3 1_555 1_555
O10_2 C21_3 1_555 1_555
Ni5_2 O10_2 1_555 1_555
O1_3 Ni5_2 1_555 1_555
O8_3 C23_3 1_555 1_555
O15 C24_3 1_555 1_555
O19 C24_3 1_555 1_555
C13_3 C14_3 1_555 1_555
C14_3 H5_3 1_555 1_555
C15_3 C13_3 1_555 1_555
H6_3 C15_3 1_555 1_555
C16_3 H7_3 1_555 1_555
C18_3 C17_3 1_555 1_555
H8_3 C18_3 1_555 1_555
C19_3 C15_3 1_555 1_555
C20_3 C14_3 1_555 1_555
C23_3 C17_3 1_555 1_555
C24_3 C20_3 1_555 1_555
Ni5_2 O14_2 1_555 1_555
Ni9 O8_3 1_555 1_555
O22_2 Ni5_2 1_555 1_555
C13_3 C22_3 1_555 1_555
C16_3 C19_3 1_555 1_555
C16_3 C20_3 1_555 1_555
C18_3 C22_3 1_555 1_555
Ni9 O7_3 1_555 1_555
O18_2 C21_4 1_555 1_555
O16 C24_4 1_555 1_555
O20 C24_4 1_555 1_555
C13_4 C14_4 1_555 1_555
C14_4 H5_4 1_555 1_555
C15_4 C13_4 1_555 1_555
H6_4 C15_4 1_555 1_555
C16_4 H7_4 1_555 1_555
C19_4 C15_4 1_555 1_555
C20_4 C14_4 1_555 1_555
C24_4 C20_4 1_555 1_555
C13_4 C22_4 1_555 1_555
C16_4 C19_4 1_555 1_555
C16_4 C20_4 1_555 1_555
O8_4 C23_4 1_555 1_555
C18_4 C17_4 1_555 1_555
H8_4 C18_4 1_555 1_555
C23_4 C17_4 1_555 1_555
Ni9_2 O8_4 1_555 1_555
Ni9_2 O7_4 1_555 1_555
C5_4 C6_4 1_555 1_555
C6_4 H4_4 1_555 1_555
C11_4 O14_2 1_555 1_555
C5_4 C11_4 1_555 1_555
O3_4 C12_4 1_555 1_555
O5_4 C12_4 1_555 1_555
C1_4 C2_4 1_555 1_555
C2_4 H1_4 1_555 1_555
C3_4 C1_4 1_555 1_555
H2_4 C3_4 1_555 1_555
C4_4 H3_4 1_555 1_555
C7_4 C3_4 1_555 1_555
C8_4 C2_4 1_555 1_555
C10_4 C1_4 1_555 1_555
C12_4 C8_4 1_555 1_555
Ni8 O3_4 1_555 1_555
O5_4 Ni8 1_555 1_555
C4_4 C7_4 1_555 1_555
C4_4 C8_4 1_555 1_555
O4_4 C9_4 1_555 1_555
Ni9 O4_4 1_555 1_555
Ni7 O1_4 1_555 1_555
O1_4 Ni8 1_555 1_555
O1_5 Ni9_2 1_555 1_555
Ni9 O1_6 1_555 1_555

#END
