
###############################################################################
#
# This file contains modified crystal structure data generated from the
# MOF subset of the Cambridge Structural Database (CSD) v543 
# hosted by the Cambridge Crystallographic Data Centre (CCDC).
#
# This work is licensed under the Creative Commons
# Attribution-NonCommercial-ShareAlike 4.0 International License.
# To view a copy of this license, visit
# http://creativecommons.org/licenses/by-nc-sa/4.0/
# or send a letter to
# Creative Commons, PO Box 1866, Mountain View, CA 94042, USA.
#
# CIF created using the CSD Python API on 29 September 2022
# The structure has been converted into the P1 space group
# The structure has a 3D framework
# The original CSD entry ROKROB is in the monoclinic crystal system
# The framework has been calculated to contain at least 10.0% void space
# The void calculation uses a probe of radius 1.32A, grid spacing 0.4
# The framework is charged, counterions have been retained in the structure
#
###############################################################################

data_ROKROB
_chemical_formula_moiety         '(C96 H32 Co8 O50 6-)n'
_symmetry_cell_setting           triclinic
_symmetry_space_group_name_H-M   'P 1'
_symmetry_Int_Tables_number      1
_space_group_name_Hall           'P 1'
loop_
_symmetry_equiv_pos_site_id
_symmetry_equiv_pos_as_xyz
1 x,y,z
_cell_length_a                   18.6308(4)
_cell_length_b                   8.5630(2)
_cell_length_c                   23.3991(6)
_cell_angle_alpha                90
_cell_angle_beta                 101.995(3)
_cell_angle_gamma                90
_cell_volume                     3651.48
loop_
_atom_site_label
_atom_site_type_symbol
_atom_site_fract_x
_atom_site_fract_y
_atom_site_fract_z
O10 O 0.50541(14) 0.0605(4) 0.33101(13)
O11 O 0.40485(15) 0.0693(4) 0.25932(12)
C21 C 0.44087(19) 0.0202(5) 0.30723(17)
Co7 Co 0.57752(3) 0.21354(7) 0.30585(2)
Co8 Co 0.42248(3) 0.21354(7) 0.19415(2)
Co1 Co 0.42248(3) 0.78646(7) 0.69415(2)
O1 O 0.5000 0.6506(4) 0.7500
O2 O 0.43063(14) 0.6426(3) 0.62470(11)
O3 O 0.82467(14) 0.1639(3) 0.70230(12)
C1 C 0.70538(19) 0.2317(5) 0.64800(15)
O6 O 0.53921(17) 0.5342(5) 0.66096(12)
C2 C 0.5875(2) 0.3116(5) 0.59167(15)
C3 C 0.5547(2) 0.1959(5) 0.61954(16)
H1 H 0.5029 0.1828 0.6094
C4 C 0.6632(2) 0.3274(5) 0.60509(15)
H2 H 0.6864 0.4028 0.5853
C5 C 0.6716(2) 0.1204(5) 0.67599(15)
H3 H 0.7004 0.0570 0.7054
C6 C 0.48790(19) 0.5683(5) 0.61930(15)
C7 C 0.78703(19) 0.2539(5) 0.66426(15)
C8 C 0.4512(2) 0.6099(5) 0.51160(17)
H4 H 0.4168 0.6844 0.5198
C10 C 0.54259(19) 0.4121(5) 0.54563(16)
C11 C 0.49358(19) 0.5265(5) 0.55793(15)
O7 O 0.81750(13) 0.3620(3) 0.64184(11)
C12 C 0.5955(2) 0.0999(5) 0.66148(16)
O8 O 0.56937(14) 0.3574(3) 0.37530(11)
O9 O 0.17533(14) 0.8361(3) 0.29770(12)
C13 C 0.29462(19) 0.7683(5) 0.35200(15)
O12 O 0.46079(17) 0.4658(5) 0.33904(12)
C14 C 0.4125(2) 0.6884(5) 0.40833(15)
C15 C 0.4453(2) 0.8041(5) 0.38046(16)
H5 H 0.4971 0.8172 0.3906
C16 C 0.3368(2) 0.6726(5) 0.39491(15)
H6 H 0.3136 0.5972 0.4147
C17 C 0.3284(2) 0.8796(5) 0.32401(15)
H7 H 0.2996 0.9430 0.2946
C18 C 0.51210(19) 0.4317(5) 0.38070(15)
C19 C 0.21297(19) 0.7461(5) 0.33574(15)
C20 C 0.5488(2) 0.3901(5) 0.48840(17)
H8 H 0.5832 0.3156 0.4802
C22 C 0.45741(19) 0.5879(5) 0.45437(16)
C23 C 0.50642(19) 0.4735(5) 0.44207(15)
O13 O 0.18250(13) 0.6380(3) 0.35816(11)
C24 C 0.4045(2) 0.9001(5) 0.33852(16)
Co2 Co 0.57752(3) 0.78646(7) 0.80585(2)
Co5 Co 0.92248(3) 0.28646(7) 0.69415(2)
Co9 Co 0.07752(3) 0.71354(7) 0.30585(2)
O14 O 0.56937(14) 0.6426(3) 0.87530(11)
O15 O 0.32467(14) 0.6639(3) 0.70230(12)
O16 O 0.67533(14) 0.6639(3) 0.79770(12)
O17 O 0.49459(14) 0.9395(4) 0.66899(13)
O18 O 0.50541(14) 0.9395(4) 0.83101(13)
O19 O 0.59515(15) 0.9307(4) 0.74068(12)
O20 O 0.40485(15) 0.9307(4) 0.75932(12)
O21 O 0.31750(13) 0.8620(3) 0.64184(11)
O22 O 0.68250(13) 0.8620(3) 0.85816(11)
C9 C 0.55913(19) 0.9798(5) 0.69277(17)
O10_2 O 0.49459(14) 0.0605(4) 0.16899(13)
O11_2 O 0.59515(15) 0.0693(4) 0.24068(12)
C21_2 C 0.55913(19) 0.0202(5) 0.19277(17)
O8_2 O 0.43063(14) 0.3574(3) 0.12470(11)
O9_2 O 0.82467(14) 0.8361(3) 0.20230(12)
C13_2 C 0.70538(19) 0.7683(5) 0.14800(15)
O12_2 O 0.53921(17) 0.4658(5) 0.16096(12)
C14_2 C 0.5875(2) 0.6884(5) 0.09167(15)
C15_2 C 0.5547(2) 0.8041(5) 0.11954(16)
H5_2 H 0.5029 0.8172 0.1094
C16_2 C 0.6632(2) 0.6726(5) 0.10509(15)
H6_2 H 0.6864 0.5972 0.0853
C17_2 C 0.6716(2) 0.8796(5) 0.17599(15)
H7_2 H 0.7004 0.9430 0.2054
C18_2 C 0.48790(19) 0.4317(5) 0.11930(15)
C19_2 C 0.78703(19) 0.7461(5) 0.16426(15)
C20_2 C 0.4512(2) 0.3901(5) 0.01160(17)
H8_2 H 0.4168 0.3156 0.0198
C22_2 C 0.54259(19) 0.5879(5) 0.04563(16)
C23_2 C 0.49358(19) 0.4735(5) 0.05793(15)
O13_2 O 0.81750(13) 0.6380(3) 0.14184(11)
C24_2 C 0.5955(2) 0.9001(5) 0.16148(16)
Co9_2 Co 0.92248(3) 0.71354(7) 0.19415(2)
O3_2 O 0.17533(14) 0.1639(3) 0.79770(12)
C1_2 C 0.29462(19) 0.2317(5) 0.85200(15)
O6_2 O 0.46079(17) 0.5342(5) 0.83904(12)
C2_2 C 0.4125(2) 0.3116(5) 0.90833(15)
C3_2 C 0.4453(2) 0.1959(5) 0.88046(16)
H1_2 H 0.4971 0.1828 0.8906
C4_2 C 0.3368(2) 0.3274(5) 0.89491(15)
H2_2 H 0.3136 0.4028 0.9147
C5_2 C 0.3284(2) 0.1204(5) 0.82401(15)
H3_2 H 0.2996 0.0570 0.7946
C6_2 C 0.51210(19) 0.5683(5) 0.88070(15)
C7_2 C 0.21297(19) 0.2539(5) 0.83574(15)
C8_2 C 0.5488(2) 0.6099(5) 0.98840(17)
H4_2 H 0.5832 0.6844 0.9802
C10_2 C 0.45741(19) 0.4121(5) 0.95437(16)
C11_2 C 0.50642(19) 0.5265(5) 0.94207(15)
O7_2 O 0.18250(13) 0.3620(3) 0.85816(11)
C12_2 C 0.4045(2) 0.0999(5) 0.83852(16)
Co5_2 Co 0.07752(3) 0.28646(7) 0.80585(2)
C9_2 C 0.44087(19) 0.9798(5) 0.80723(17)
O1_2 O 0.0000 0.1506(4) 0.7500
O6_3 O 0.03921(17) 0.0342(5) 0.66096(12)
O10_3 O 0.00541(14) 0.5605(4) 0.33101(13)
O14_2 O 0.06937(14) 0.1426(3) 0.87530(11)
O18_2 O 0.00541(14) 0.4395(4) 0.83101(13)
O19_2 O 0.09515(15) 0.4307(4) 0.74068(12)
C1_3 C 0.20538(19) 0.7317(5) 0.64800(15)
C2_3 C 0.0875(2) 0.8116(5) 0.59167(15)
C3_3 C 0.0547(2) 0.6959(5) 0.61954(16)
H1_3 H 0.0029 0.6828 0.6094
C4_3 C 0.1632(2) 0.8274(5) 0.60509(15)
H2_3 H 0.1864 0.9028 0.5853
C5_3 C 0.1716(2) 0.6204(5) 0.67599(15)
H3_3 H 0.2004 0.5570 0.7054
C7_3 C 0.28703(19) 0.7539(5) 0.66426(15)
C9_3 C 0.05913(19) 0.4798(5) 0.69277(17)
C10_3 C 0.04259(19) 0.9121(5) 0.54563(16)
C12_3 C 0.0955(2) 0.5999(5) 0.66148(16)
O8_3 O 0.06937(14) 0.8574(3) 0.37530(11)
C18_3 C 0.01210(19) 0.9317(5) 0.38070(15)
C20_3 C 0.0488(2) 0.8901(5) 0.48840(17)
H8_3 H 0.0832 0.8156 0.4802
C23_3 C 0.00642(19) 0.9735(5) 0.44207(15)
O1_3 O 1.0000 0.1506(4) 0.7500
O2_2 O 0.93063(14) 0.1426(3) 0.62470(11)
C6_3 C 0.98790(19) 0.0683(5) 0.61930(15)
C8_3 C 0.9512(2) 0.1099(5) 0.51160(17)
H4_3 H 0.9168 0.1844 0.5198
C11_3 C 0.99358(19) 0.0265(5) 0.55793(15)
O9_3 O 0.67533(14) 0.3361(3) 0.29770(12)
O11_3 O 0.90485(15) 0.5693(4) 0.25932(12)
C13_3 C 0.79462(19) 0.2683(5) 0.35200(15)
C14_3 C 0.9125(2) 0.1884(5) 0.40833(15)
C15_3 C 0.9453(2) 0.3041(5) 0.38046(16)
H5_3 H 0.9971 0.3172 0.3906
C16_3 C 0.8368(2) 0.1726(5) 0.39491(15)
H6_3 H 0.8136 0.0972 0.4147
C17_3 C 0.8284(2) 0.3796(5) 0.32401(15)
H7_3 H 0.7996 0.4430 0.2946
C19_3 C 0.71297(19) 0.2461(5) 0.33574(15)
C21_3 C 0.94087(19) 0.5202(5) 0.30723(17)
C22_3 C 0.95741(19) 0.0879(5) 0.45437(16)
O13_3 O 0.68250(13) 0.1380(3) 0.35816(11)
C24_3 C 0.9045(2) 0.4001(5) 0.33852(16)
O17_2 O 0.99459(14) 0.4395(4) 0.66899(13)
O20_2 O 0.90485(15) 0.4307(4) 0.75932(12)
O12_3 O 0.96079(17) 0.9658(5) 0.33904(12)
O9_4 O 0.32467(14) 0.3361(3) 0.20230(12)
O11_4 O 0.09515(15) 0.5693(4) 0.24068(12)
C13_4 C 0.20538(19) 0.2683(5) 0.14800(15)
C14_4 C 0.0875(2) 0.1884(5) 0.09167(15)
C15_4 C 0.0547(2) 0.3041(5) 0.11954(16)
H5_4 H 0.0029 0.3172 0.1094
C16_4 C 0.1632(2) 0.1726(5) 0.10509(15)
H6_4 H 0.1864 0.0972 0.0853
C17_4 C 0.1716(2) 0.3796(5) 0.17599(15)
H7_4 H 0.2004 0.4430 0.2054
C19_4 C 0.28703(19) 0.2461(5) 0.16426(15)
C21_4 C 0.05913(19) 0.5202(5) 0.19277(17)
C22_4 C 0.04259(19) 0.0879(5) 0.04563(16)
O13_4 O 0.31750(13) 0.1380(3) 0.14184(11)
C24_4 C 0.0955(2) 0.4001(5) 0.16148(16)
C6_4 C 0.01210(19) 0.0683(5) 0.88070(15)
C8_4 C 0.0488(2) 0.1099(5) 0.98840(17)
H4_4 H 0.0832 0.1844 0.9802
C11_4 C 0.00642(19) 0.0265(5) 0.94207(15)
O12_4 O 0.03921(17) 0.9658(5) 0.16096(12)
O10_4 O 0.99459(14) 0.5605(4) 0.16899(13)
O6_4 O 0.96079(17) 0.0342(5) 0.83904(12)
O8_4 O 0.93063(14) 0.8574(3) 0.12470(11)
C18_4 C 0.98790(19) 0.9317(5) 0.11930(15)
C20_4 C 0.9512(2) 0.8901(5) 0.01160(17)
H8_4 H 0.9168 0.8156 0.0198
C23_4 C 0.99358(19) 0.9735(5) 0.05793(15)
C1_4 C 0.79462(19) 0.7317(5) 0.85200(15)
C2_4 C 0.9125(2) 0.8116(5) 0.90833(15)
C3_4 C 0.9453(2) 0.6959(5) 0.88046(16)
H1_4 H 0.9971 0.6828 0.8906
C4_4 C 0.8368(2) 0.8274(5) 0.89491(15)
H2_4 H 0.8136 0.9028 0.9147
C5_4 C 0.8284(2) 0.6204(5) 0.82401(15)
H3_4 H 0.7996 0.5570 0.7946
C7_4 C 0.71297(19) 0.7539(5) 0.83574(15)
C9_4 C 0.94087(19) 0.4798(5) 0.80723(17)
C10_4 C 0.95741(19) 0.9121(5) 0.95437(16)
C12_4 C 0.9045(2) 0.5999(5) 0.83852(16)
O1_4 O 0.5000 0.3494(4) 0.2500
O1_5 O -0.0000 0.8494(4) 0.2500
O1_6 O 1.0000 0.8494(4) 0.2500
loop_
_geom_bond_atom_site_label_1
_geom_bond_atom_site_label_2
_geom_bond_site_symmetry_1
_geom_bond_site_symmetry_2
O10 C21 1_555 1_555
O11 C21 1_555 1_555
Co7 O10 1_555 1_555
Co8 O11 1_555 1_555
Co1 O1 1_555 1_555
O1 Co2 1_555 1_555
O2 Co1 1_555 1_555
O3 C7 1_555 1_555
C1 C4 1_555 1_555
O6 C6 1_555 1_555
C2 C3 1_555 1_555
C3 H1 1_555 1_555
C4 C2 1_555 1_555
H2 C4 1_555 1_555
C5 C1 1_555 1_555
H3 C5 1_555 1_555
C6 O2 1_555 1_555
C7 C1 1_555 1_555
C8 H4 1_555 1_555
C10 C2 1_555 1_555
C11 C6 1_555 1_555
O7 C7 1_555 1_555
C12 C3 1_555 1_555
O8 C18 1_555 1_555
O9 C19 1_555 1_555
C13 C16 1_555 1_555
O12 C18 1_555 1_555
C14 C15 1_555 1_555
C15 H5 1_555 1_555
C16 C14 1_555 1_555
H6 C16 1_555 1_555
C17 C13 1_555 1_555
H7 C17 1_555 1_555
C18 C23 1_555 1_555
C19 C13 1_555 1_555
C20 C10 1_555 1_555
H8 C20 1_555 1_555
C22 C8 1_555 1_555
C23 C20 1_555 1_555
O13 C19 1_555 1_555
C24 C15 1_555 1_555
Co2 O14 1_555 1_555
Co5 O3 1_555 1_555
Co7 O8 1_555 1_555
Co9 O9 1_555 1_555
O15 Co1 1_555 1_555
O16 Co2 1_555 1_555
O17 Co1 1_555 1_555
O18 Co2 1_555 1_555
O19 Co2 1_555 1_555
O20 Co1 1_555 1_555
O21 Co1 1_555 1_555
O22 Co2 1_555 1_555
C5 C12 1_555 1_555
C8 C11 1_555 1_555
C10 C11 1_555 1_555
O7 Co5 1_555 1_555
C14 C22 1_555 1_555
C17 C24 1_555 1_555
C22 C23 1_555 1_555
O13 Co9 1_555 1_555
O17 C9 1_555 1_555
O19 C9 1_555 1_555
O10_2 C21_2 1_555 1_555
O11_2 C21_2 1_555 1_555
Co8 O10_2 1_555 1_555
Co7 O11_2 1_555 1_555
O8_2 C18_2 1_555 1_555
O9_2 C19_2 1_555 1_555
C13_2 C16_2 1_555 1_555
O12_2 C18_2 1_555 1_555
C14_2 C15_2 1_555 1_555
C15_2 H5_2 1_555 1_555
C16_2 C14_2 1_555 1_555
H6_2 C16_2 1_555 1_555
C17_2 C13_2 1_555 1_555
H7_2 C17_2 1_555 1_555
C18_2 C23_2 1_555 1_555
C19_2 C13_2 1_555 1_555
H8_2 C20_2 1_555 1_555
C23_2 C20_2 1_555 1_555
O13_2 C19_2 1_555 1_555
C24_2 C15_2 1_555 1_555
Co8 O8_2 1_555 1_555
Co9_2 O9_2 1_555 1_555
C14_2 C22_2 1_555 1_555
C17_2 C24_2 1_555 1_555
C22_2 C23_2 1_555 1_555
O13_2 Co9_2 1_555 1_555
O3_2 C7_2 1_555 1_555
C1_2 C4_2 1_555 1_555
O6_2 C6_2 1_555 1_555
C2_2 C3_2 1_555 1_555
C3_2 H1_2 1_555 1_555
C4_2 C2_2 1_555 1_555
H2_2 C4_2 1_555 1_555
C5_2 C1_2 1_555 1_555
H3_2 C5_2 1_555 1_555
C6_2 O14 1_555 1_555
C7_2 C1_2 1_555 1_555
C8_2 H4_2 1_555 1_555
C10_2 C2_2 1_555 1_555
C11_2 C6_2 1_555 1_555
O7_2 C7_2 1_555 1_555
C12_2 C3_2 1_555 1_555
Co5_2 O3_2 1_555 1_555
C5_2 C12_2 1_555 1_555
C8_2 C11_2 1_555 1_555
C10_2 C11_2 1_555 1_555
O7_2 Co5_2 1_555 1_555
O18 C9_2 1_555 1_555
O20 C9_2 1_555 1_555
O1_2 Co5_2 1_555 1_555
Co5_2 O14_2 1_555 1_555
Co9 O10_3 1_555 1_555
O18_2 Co5_2 1_555 1_555
O19_2 Co5_2 1_555 1_555
O15 C7_3 1_555 1_555
O19_2 C9_3 1_555 1_555
C1_3 C4_3 1_555 1_555
C2_3 C3_3 1_555 1_555
C3_3 H1_3 1_555 1_555
C4_3 C2_3 1_555 1_555
H2_3 C4_3 1_555 1_555
C5_3 C1_3 1_555 1_555
H3_3 C5_3 1_555 1_555
C7_3 C1_3 1_555 1_555
C9_3 C12_3 1_555 1_555
C10_3 C2_3 1_555 1_555
O21 C7_3 1_555 1_555
C12_3 C3_3 1_555 1_555
O8_3 C18_3 1_555 1_555
C18_3 C23_3 1_555 1_555
C20_3 C10_3 1_555 1_555
H8_3 C20_3 1_555 1_555
C23_3 C20_3 1_555 1_555
Co9 O8_3 1_555 1_555
C5_3 C12_3 1_555 1_555
Co5 O1_3 1_555 1_555
O2_2 Co5 1_555 1_555
C6_3 O2_2 1_555 1_555
C8_3 H4_3 1_555 1_555
C11_3 C6_3 1_555 1_555
O9_3 C19_3 1_555 1_555
O11_3 C21_3 1_555 1_555
C13_3 C16_3 1_555 1_555
C14_3 C15_3 1_555 1_555
C15_3 H5_3 1_555 1_555
C16_3 C14_3 1_555 1_555
H6_3 C16_3 1_555 1_555
C17_3 C13_3 1_555 1_555
H7_3 C17_3 1_555 1_555
C19_3 C13_3 1_555 1_555
C21_3 C24_3 1_555 1_555
C22_3 C8_3 1_555 1_555
O13_3 C19_3 1_555 1_555
C24_3 C15_3 1_555 1_555
Co9_2 O11_3 1_555 1_555
Co7 O9_3 1_555 1_555
O17_2 Co5 1_555 1_555
O20_2 Co5 1_555 1_555
C8_3 C11_3 1_555 1_555
C14_3 C22_3 1_555 1_555
C17_3 C24_3 1_555 1_555
O13_3 Co7 1_555 1_555
O9_4 C19_4 1_555 1_555
O11_4 C21_4 1_555 1_555
C13_4 C16_4 1_555 1_555
C14_4 C15_4 1_555 1_555
C15_4 H5_4 1_555 1_555
C16_4 C14_4 1_555 1_555
H6_4 C16_4 1_555 1_555
C17_4 C13_4 1_555 1_555
H7_4 C17_4 1_555 1_555
C19_4 C13_4 1_555 1_555
C21_4 C24_4 1_555 1_555
O13_4 C19_4 1_555 1_555
C24_4 C15_4 1_555 1_555
Co9 O11_4 1_555 1_555
Co8 O9_4 1_555 1_555
C14_4 C22_4 1_555 1_555
C17_4 C24_4 1_555 1_555
O13_4 Co8 1_555 1_555
C6_4 O14_2 1_555 1_555
C8_4 H4_4 1_555 1_555
C11_4 C6_4 1_555 1_555
C8_4 C11_4 1_555 1_555
Co9_2 O10_4 1_555 1_555
O8_4 C18_4 1_555 1_555
C18_4 C23_4 1_555 1_555
H8_4 C20_4 1_555 1_555
C23_4 C20_4 1_555 1_555
Co9_2 O8_4 1_555 1_555
O16 C7_4 1_555 1_555
O20_2 C9_4 1_555 1_555
C1_4 C4_4 1_555 1_555
C2_4 C3_4 1_555 1_555
C3_4 H1_4 1_555 1_555
C4_4 C2_4 1_555 1_555
H2_4 C4_4 1_555 1_555
C5_4 C1_4 1_555 1_555
H3_4 C5_4 1_555 1_555
C7_4 C1_4 1_555 1_555
C9_4 C12_4 1_555 1_555
C10_4 C2_4 1_555 1_555
O22 C7_4 1_555 1_555
C12_4 C3_4 1_555 1_555
C5_4 C12_4 1_555 1_555
Co7 O1_4 1_555 1_555
O1_4 Co8 1_555 1_555
Co9 O1_5 1_555 1_555
O1_6 Co9_2 1_555 1_555

#END
