
###############################################################################
#
# This file contains modified crystal structure data generated from the
# MOF subset of the Cambridge Structural Database (CSD) v543 
# hosted by the Cambridge Crystallographic Data Centre (CCDC).
#
# This work is licensed under the Creative Commons
# Attribution-NonCommercial-ShareAlike 4.0 International License.
# To view a copy of this license, visit
# http://creativecommons.org/licenses/by-nc-sa/4.0/
# or send a letter to
# Creative Commons, PO Box 1866, Mountain View, CA 94042, USA.
#
# CIF created using the CSD Python API on 29 September 2022
# The structure has been converted into the P1 space group
# The structure has a 3D framework
# The original CSD entry ROKSAO is in the monoclinic crystal system
# The framework has been calculated to contain at least 10.0% void space
# The void calculation uses a probe of radius 1.32A, grid spacing 0.4
# The framework is charged, counterions have been retained in the structure
#
###############################################################################

data_ROKSAO
_chemical_formula_moiety         '(C96 H32 Mn8 O50 8-)n'
_symmetry_cell_setting           triclinic
_symmetry_space_group_name_H-M   'P 1'
_symmetry_Int_Tables_number      1
_space_group_name_Hall           'P 1'
loop_
_symmetry_equiv_pos_site_id
_symmetry_equiv_pos_as_xyz
1 x,y,z
_cell_length_a                   18.8352(5)
_cell_length_b                   8.7481(2)
_cell_length_c                   23.6669(5)
_cell_angle_alpha                90
_cell_angle_beta                 101.763(2)
_cell_angle_gamma                90
_cell_volume                     3817.75
loop_
_atom_site_label
_atom_site_type_symbol
_atom_site_fract_x
_atom_site_fract_y
_atom_site_fract_z
O1 O -0.0000 0.6508(2) 0.7500
Mn2 Mn 0.07789(2) 0.80040(3) 0.80652(2)
O14 O 0.18709(7) 0.87291(17) 0.85665(6)
O16 O 0.06676(9) 0.6555(2) 0.87819(6)
O18 O 0.00732(9) 0.9660(2) 0.82938(8)
O19 O 0.09443(8) 0.9379(2) 0.73589(7)
O21 O 0.17932(8) 0.67023(19) 0.80109(7)
O3 O 0.53348(11) 0.0339(3) 0.65940(6)
O4 O 0.43324(9) 0.1555(2) 0.62181(6)
C4 C 0.49310(10) 0.0294(2) 0.55696(7)
C5 C 0.48632(10) 0.0762(2) 0.61770(8)
C8 C 0.45159(10) 0.1081(2) 0.51063(8)
H1 H 0.4176 0.1819 0.5181
O8 O 0.18709(7) 0.12709(17) 0.35665(6)
O11 O 0.50732(9) 0.5340(2) 0.32938(8)
O12 O 0.40557(8) 0.5621(2) 0.26411(7)
O13 O 0.17932(8) 0.32977(19) 0.30109(7)
C13 C 0.21640(10) 0.2367(2) 0.33601(8)
C14 C 0.29743(10) 0.2570(2) 0.35227(8)
C15 C 0.45802(10) 0.0828(2) 0.45386(8)
C18 C 0.40606(11) 0.3840(2) 0.33829(8)
C19 C 0.41377(10) 0.1792(2) 0.40763(8)
C21 C 0.44270(11) 0.5031(3) 0.30858(8)
C22 C 0.33081(10) 0.3679(2) 0.32462(8)
H6 H 0.3025 0.4326 0.2965
C23 C 0.44664(10) 0.2900(2) 0.37969(8)
H7 H 0.4978 0.3016 0.3892
C24 C 0.33873(10) 0.1642(2) 0.39435(8)
H8 H 0.3156 0.0907 0.4140
Mn4 Mn 0.42211(2) 0.30040(3) 0.69348(2)
Mn6 Mn 0.07789(2) 0.19960(3) 0.30652(2)
Mn8 Mn 0.57789(2) 0.69960(3) 0.30652(2)
Mn9 Mn 0.42211(2) 0.69960(3) 0.19348(2)
Mn1 Mn 0.92211(2) 0.80040(3) 0.69348(2)
O1_2 O 1.0000 0.6508(2) 0.7500
O2 O 0.81291(7) 0.87291(17) 0.64335(6)
O5 O 0.49268(9) 0.4660(2) 0.67062(8)
O6 O 0.59443(8) 0.4379(2) 0.73589(7)
O7 O 0.82068(8) 0.67023(19) 0.69891(7)
C1 C 0.78360(10) 0.7633(2) 0.66399(8)
C2 C 0.70257(10) 0.7430(2) 0.64773(8)
C3 C 0.54198(10) 0.9172(2) 0.54614(8)
C6 C 0.59394(11) 0.6160(2) 0.66171(8)
C7 C 0.58623(10) 0.8208(2) 0.59237(8)
C9 C 0.55730(11) 0.4969(3) 0.69142(8)
C10 C 0.66919(10) 0.6321(2) 0.67538(8)
H2 H 0.6975 0.5674 0.7035
C11 C 0.55336(10) 0.7100(2) 0.62031(8)
H3 H 0.5022 0.6984 0.6108
C12 C 0.66127(10) 0.8358(2) 0.60565(8)
H4 H 0.6844 0.9093 0.5860
O9 O 0.46652(11) 0.9661(3) 0.34060(6)
O10 O 0.56676(9) 0.8445(2) 0.37819(6)
C16 C 0.50690(10) 0.9706(2) 0.44304(7)
C17 C 0.51368(10) 0.9238(2) 0.38230(8)
C20 C 0.54841(10) 0.8919(2) 0.48937(8)
H5 H 0.5824 0.8181 0.4819
Mn5 Mn 0.57789(2) 0.30040(3) 0.80652(2)
O15 O 0.93324(9) 0.6555(2) 0.62181(6)
O17 O 0.99268(9) 0.9660(2) 0.67062(8)
O20 O 0.90557(8) 0.9379(2) 0.76411(7)
O8_2 O 0.81291(7) 0.12709(17) 0.14335(6)
O11_2 O 0.49268(9) 0.5340(2) 0.17062(8)
O12_2 O 0.59443(8) 0.5621(2) 0.23589(7)
O13_2 O 0.82068(8) 0.32977(19) 0.19891(7)
C13_2 C 0.78360(10) 0.2367(2) 0.16399(8)
C14_2 C 0.70257(10) 0.2570(2) 0.14773(8)
C15_2 C 0.54198(10) 0.0828(2) 0.04614(8)
C18_2 C 0.59394(11) 0.3840(2) 0.16171(8)
C19_2 C 0.58623(10) 0.1792(2) 0.09237(8)
C21_2 C 0.55730(11) 0.5031(3) 0.19142(8)
C22_2 C 0.66919(10) 0.3679(2) 0.17538(8)
H6_2 H 0.6975 0.4326 0.2035
C23_2 C 0.55336(10) 0.2900(2) 0.12031(8)
H7_2 H 0.5022 0.3016 0.1108
C24_2 C 0.66127(10) 0.1642(2) 0.10565(8)
H8_2 H 0.6844 0.0907 0.0860
Mn6_2 Mn 0.92211(2) 0.19960(3) 0.19348(2)
O3_2 O 0.46652(11) 0.0339(3) 0.84060(6)
O4_2 O 0.56676(9) 0.1555(2) 0.87819(6)
C4_2 C 0.50690(10) 0.0294(2) 0.94304(7)
C5_2 C 0.51368(10) 0.0762(2) 0.88230(8)
C8_2 C 0.54841(10) 0.1081(2) 0.98937(8)
H1_2 H 0.5824 0.1819 0.9819
O9_2 O 0.53348(11) 0.9661(3) 0.15940(6)
O10_2 O 0.43324(9) 0.8445(2) 0.12181(6)
C16_2 C 0.49310(10) 0.9706(2) 0.05696(7)
C17_2 C 0.48632(10) 0.9238(2) 0.11770(8)
C20_2 C 0.45159(10) 0.8919(2) 0.01063(8)
H5_2 H 0.4176 0.8181 0.0181
O5_2 O 0.50732(9) 0.4660(2) 0.82938(8)
O6_2 O 0.40557(8) 0.4379(2) 0.76411(7)
C1_2 C 0.21640(10) 0.7633(2) 0.83601(8)
C2_2 C 0.29743(10) 0.7430(2) 0.85227(8)
C3_2 C 0.45802(10) 0.9172(2) 0.95386(8)
C6_2 C 0.40606(11) 0.6160(2) 0.83829(8)
C7_2 C 0.41377(10) 0.8208(2) 0.90763(8)
C9_2 C 0.44270(11) 0.4969(3) 0.80858(8)
C10_2 C 0.33081(10) 0.6321(2) 0.82462(8)
H2_2 H 0.3025 0.5674 0.7965
C11_2 C 0.44664(10) 0.7100(2) 0.87969(8)
H3_2 H 0.4978 0.6984 0.8892
C12_2 C 0.33873(10) 0.8358(2) 0.89435(8)
H4_2 H 0.3156 0.9093 0.9140
O11_3 O 0.00732(9) 0.0340(2) 0.32938(8)
O1_3 O 0.5000 0.1508(2) 0.7500
O2_2 O 0.31291(7) 0.37291(17) 0.64335(6)
O3_3 O 0.03348(11) 0.5339(3) 0.65940(6)
O7_2 O 0.32068(8) 0.17023(19) 0.69891(7)
C1_3 C 0.28360(10) 0.2633(2) 0.66399(8)
C2_3 C 0.20257(10) 0.2430(2) 0.64773(8)
C3_3 C 0.04198(10) 0.4172(2) 0.54614(8)
C6_3 C 0.09394(11) 0.1160(2) 0.66171(8)
C7_3 C 0.08623(10) 0.3208(2) 0.59237(8)
C10_3 C 0.16919(10) 0.1321(2) 0.67538(8)
H2_3 H 0.1975 0.0674 0.7035
C11_3 C 0.05336(10) 0.2100(2) 0.62031(8)
H3_3 H 0.0022 0.1984 0.6108
C12_3 C 0.16127(10) 0.3358(2) 0.60565(8)
H4_3 H 0.1844 0.4093 0.5860
O10_3 O 0.06676(9) 0.3445(2) 0.37819(6)
C16_3 C 0.00690(10) 0.4706(2) 0.44304(7)
C17_3 C 0.01368(10) 0.4238(2) 0.38230(8)
C20_3 C 0.04841(10) 0.3919(2) 0.48937(8)
H5_3 H 0.0824 0.3181 0.4819
O14_2 O 0.68709(7) 0.37291(17) 0.85665(6)
O21_2 O 0.67932(8) 0.17023(19) 0.80109(7)
C9_3 C 0.05730(11) 0.9969(3) 0.69142(8)
O12_3 O 0.90557(8) 0.0621(2) 0.26411(7)
C21_3 C 0.94270(11) 0.0031(3) 0.30858(8)
C4_3 C 0.99310(10) 0.5294(2) 0.55696(7)
C5_3 C 0.98632(10) 0.5762(2) 0.61770(8)
C8_3 C 0.95159(10) 0.6081(2) 0.51063(8)
H1_3 H 0.9176 0.6819 0.5181
O8_3 O 0.68709(7) 0.62709(17) 0.35665(6)
O9_3 O 0.96652(11) 0.4661(3) 0.34060(6)
O13_3 O 0.67932(8) 0.82977(19) 0.30109(7)
C13_3 C 0.71640(10) 0.7367(2) 0.33601(8)
C14_3 C 0.79743(10) 0.7570(2) 0.35227(8)
C15_3 C 0.95802(10) 0.5828(2) 0.45386(8)
C18_3 C 0.90606(11) 0.8840(2) 0.33829(8)
C19_3 C 0.91377(10) 0.6792(2) 0.40763(8)
C22_3 C 0.83081(10) 0.8679(2) 0.32462(8)
H6_3 H 0.8025 0.9326 0.2965
C23_3 C 0.94664(10) 0.7900(2) 0.37969(8)
H7_3 H 0.9978 0.8016 0.3892
C24_3 C 0.83873(10) 0.6642(2) 0.39435(8)
H8_3 H 0.8156 0.5907 0.4140
O12_4 O 0.09443(8) 0.0621(2) 0.23589(7)
C21_4 C 0.05730(11) 0.0031(3) 0.19142(8)
O8_4 O 0.31291(7) 0.62709(17) 0.14335(6)
O9_4 O 0.03348(11) 0.4661(3) 0.15940(6)
O13_4 O 0.32068(8) 0.82977(19) 0.19891(7)
C13_4 C 0.28360(10) 0.7367(2) 0.16399(8)
C14_4 C 0.20257(10) 0.7570(2) 0.14773(8)
C15_4 C 0.04198(10) 0.5828(2) 0.04614(8)
C18_4 C 0.09394(11) 0.8840(2) 0.16171(8)
C19_4 C 0.08623(10) 0.6792(2) 0.09237(8)
C22_4 C 0.16919(10) 0.8679(2) 0.17538(8)
H6_4 H 0.1975 0.9326 0.2035
C23_4 C 0.05336(10) 0.7900(2) 0.12031(8)
H7_4 H 0.0022 0.8016 0.1108
C24_4 C 0.16127(10) 0.6642(2) 0.10565(8)
H8_4 H 0.1844 0.5907 0.0860
C4_4 C 0.00690(10) 0.5294(2) 0.94304(7)
C5_4 C 0.01368(10) 0.5762(2) 0.88230(8)
C8_4 C 0.04841(10) 0.6081(2) 0.98937(8)
H1_4 H 0.0824 0.6819 0.9819
O11_4 O 0.99268(9) 0.0340(2) 0.17062(8)
O10_4 O 0.93324(9) 0.3445(2) 0.12181(6)
C16_4 C 0.99310(10) 0.4706(2) 0.05696(7)
C17_4 C 0.98632(10) 0.4238(2) 0.11770(8)
C20_4 C 0.95159(10) 0.3919(2) 0.01063(8)
H5_4 H 0.9176 0.3181 0.0181
O3_4 O 0.96652(11) 0.5339(3) 0.84060(6)
C1_4 C 0.71640(10) 0.2633(2) 0.83601(8)
C2_4 C 0.79743(10) 0.2430(2) 0.85227(8)
C3_4 C 0.95802(10) 0.4172(2) 0.95386(8)
C6_4 C 0.90606(11) 0.1160(2) 0.83829(8)
C7_4 C 0.91377(10) 0.3208(2) 0.90763(8)
C10_4 C 0.83081(10) 0.1321(2) 0.82462(8)
H2_4 H 0.8025 0.0674 0.7965
C11_4 C 0.94664(10) 0.2100(2) 0.87969(8)
H3_4 H 0.9978 0.1984 0.8892
C12_4 C 0.83873(10) 0.3358(2) 0.89435(8)
H4_4 H 0.8156 0.4093 0.9140
C9_4 C 0.94270(11) 0.9969(3) 0.80858(8)
O1_4 O 0.0000 0.3492(2) 0.2500
O1_5 O 1.0000 0.3492(2) 0.2500
O1_6 O 0.5000 0.8492(2) 0.2500
loop_
_geom_bond_atom_site_label_1
_geom_bond_atom_site_label_2
_geom_bond_site_symmetry_1
_geom_bond_site_symmetry_2
O1 Mn2 1_555 1_555
Mn2 O14 1_555 1_555
O16 Mn2 1_555 1_555
O18 Mn2 1_555 1_555
O19 Mn2 1_555 1_555
O21 Mn2 1_555 1_555
O3 C5 1_555 1_555
O4 C5 1_555 1_555
C4 C5 1_555 1_555
C8 C4 1_555 1_555
H1 C8 1_555 1_555
O8 C13 1_555 1_555
O11 C21 1_555 1_555
O12 C21 1_555 1_555
O13 C13 1_555 1_555
C13 C14 1_555 1_555
C14 C22 1_555 1_555
C15 C8 1_555 1_555
C18 C21 1_555 1_555
C19 C15 1_555 1_555
C22 C18 1_555 1_555
H6 C22 1_555 1_555
C23 C18 1_555 1_555
H7 C23 1_555 1_555
C24 C14 1_555 1_555
H8 C24 1_555 1_555
Mn4 O4 1_555 1_555
Mn6 O8 1_555 1_555
Mn8 O11 1_555 1_555
Mn9 O12 1_555 1_555
O13 Mn6 1_555 1_555
C19 C23 1_555 1_555
C19 C24 1_555 1_555
Mn1 O1_2 1_555 1_555
O2 Mn1 1_555 1_555
O5 C9 1_555 1_555
O6 C9 1_555 1_555
O7 Mn1 1_555 1_555
C1 O2 1_555 1_555
C2 C1 1_555 1_555
C6 C9 1_555 1_555
C7 C3 1_555 1_555
C10 C2 1_555 1_555
H2 C10 1_555 1_555
C11 C6 1_555 1_555
H3 C11 1_555 1_555
C12 C2 1_555 1_555
H4 C12 1_555 1_555
O9 C17 1_555 1_555
O10 C17 1_555 1_555
C17 C16 1_555 1_555
C20 C3 1_555 1_555
H5 C20 1_555 1_555
Mn4 O5 1_555 1_555
Mn5 O6 1_555 1_555
Mn8 O10 1_555 1_555
O15 Mn1 1_555 1_555
O17 Mn1 1_555 1_555
O20 Mn1 1_555 1_555
O7 C1 1_555 1_555
C6 C10 1_555 1_555
C7 C11 1_555 1_555
C7 C12 1_555 1_555
C16 C20 1_555 1_555
O8_2 C13_2 1_555 1_555
O11_2 C21_2 1_555 1_555
O12_2 C21_2 1_555 1_555
O13_2 C13_2 1_555 1_555
C13_2 C14_2 1_555 1_555
C14_2 C22_2 1_555 1_555
C18_2 C21_2 1_555 1_555
C19_2 C15_2 1_555 1_555
C22_2 C18_2 1_555 1_555
H6_2 C22_2 1_555 1_555
C23_2 C18_2 1_555 1_555
H7_2 C23_2 1_555 1_555
C24_2 C14_2 1_555 1_555
H8_2 C24_2 1_555 1_555
Mn6_2 O8_2 1_555 1_555
Mn9 O11_2 1_555 1_555
Mn8 O12_2 1_555 1_555
O13_2 Mn6_2 1_555 1_555
C19_2 C23_2 1_555 1_555
C19_2 C24_2 1_555 1_555
O3_2 C5_2 1_555 1_555
O4_2 C5_2 1_555 1_555
C4_2 C5_2 1_555 1_555
C8_2 C4_2 1_555 1_555
H1_2 C8_2 1_555 1_555
Mn5 O4_2 1_555 1_555
O9_2 C17_2 1_555 1_555
O10_2 C17_2 1_555 1_555
C17_2 C16_2 1_555 1_555
H5_2 C20_2 1_555 1_555
Mn9 O10_2 1_555 1_555
C16_2 C20_2 1_555 1_555
O5_2 C9_2 1_555 1_555
O6_2 C9_2 1_555 1_555
C1_2 O14 1_555 1_555
C2_2 C1_2 1_555 1_555
C6_2 C9_2 1_555 1_555
C7_2 C3_2 1_555 1_555
C10_2 C2_2 1_555 1_555
H2_2 C10_2 1_555 1_555
C11_2 C6_2 1_555 1_555
H3_2 C11_2 1_555 1_555
C12_2 C2_2 1_555 1_555
H4_2 C12_2 1_555 1_555
Mn5 O5_2 1_555 1_555
Mn4 O6_2 1_555 1_555
O21 C1_2 1_555 1_555
C6_2 C10_2 1_555 1_555
C7_2 C11_2 1_555 1_555
C7_2 C12_2 1_555 1_555
Mn6 O11_3 1_555 1_555
Mn4 O1_3 1_555 1_555
O1_3 Mn5 1_555 1_555
O2_2 Mn4 1_555 1_555
O7_2 Mn4 1_555 1_555
C1_3 O2_2 1_555 1_555
C2_3 C1_3 1_555 1_555
C7_3 C3_3 1_555 1_555
C10_3 C2_3 1_555 1_555
H2_3 C10_3 1_555 1_555
C11_3 C6_3 1_555 1_555
H3_3 C11_3 1_555 1_555
C12_3 C2_3 1_555 1_555
H4_3 C12_3 1_555 1_555
O10_3 C17_3 1_555 1_555
C17_3 C16_3 1_555 1_555
C20_3 C3_3 1_555 1_555
H5_3 C20_3 1_555 1_555
Mn5 O14_2 1_555 1_555
Mn6 O10_3 1_555 1_555
O21_2 Mn5 1_555 1_555
O7_2 C1_3 1_555 1_555
C6_3 C10_3 1_555 1_555
C7_3 C11_3 1_555 1_555
C7_3 C12_3 1_555 1_555
C16_3 C20_3 1_555 1_555
O19 C9_3 1_555 1_555
O12_3 C21_3 1_555 1_555
Mn6_2 O12_3 1_555 1_555
O15 C5_3 1_555 1_555
C4_3 C5_3 1_555 1_555
C8_3 C4_3 1_555 1_555
H1_3 C8_3 1_555 1_555
O8_3 C13_3 1_555 1_555
O13_3 C13_3 1_555 1_555
C13_3 C14_3 1_555 1_555
C14_3 C22_3 1_555 1_555
C15_3 C8_3 1_555 1_555
C19_3 C15_3 1_555 1_555
C22_3 C18_3 1_555 1_555
H6_3 C22_3 1_555 1_555
C23_3 C18_3 1_555 1_555
H7_3 C23_3 1_555 1_555
C24_3 C14_3 1_555 1_555
H8_3 C24_3 1_555 1_555
Mn8 O8_3 1_555 1_555
O13_3 Mn8 1_555 1_555
C19_3 C23_3 1_555 1_555
C19_3 C24_3 1_555 1_555
O12_4 C21_4 1_555 1_555
Mn6 O12_4 1_555 1_555
O8_4 C13_4 1_555 1_555
O13_4 C13_4 1_555 1_555
C13_4 C14_4 1_555 1_555
C14_4 C22_4 1_555 1_555
C19_4 C15_4 1_555 1_555
C22_4 C18_4 1_555 1_555
H6_4 C22_4 1_555 1_555
C23_4 C18_4 1_555 1_555
H7_4 C23_4 1_555 1_555
C24_4 C14_4 1_555 1_555
H8_4 C24_4 1_555 1_555
Mn9 O8_4 1_555 1_555
O13_4 Mn9 1_555 1_555
C19_4 C23_4 1_555 1_555
C19_4 C24_4 1_555 1_555
O16 C5_4 1_555 1_555
C4_4 C5_4 1_555 1_555
C8_4 C4_4 1_555 1_555
H1_4 C8_4 1_555 1_555
Mn6_2 O11_4 1_555 1_555
O10_4 C17_4 1_555 1_555
C17_4 C16_4 1_555 1_555
H5_4 C20_4 1_555 1_555
Mn6_2 O10_4 1_555 1_555
C16_4 C20_4 1_555 1_555
C1_4 O14_2 1_555 1_555
C2_4 C1_4 1_555 1_555
C7_4 C3_4 1_555 1_555
C10_4 C2_4 1_555 1_555
H2_4 C10_4 1_555 1_555
C11_4 C6_4 1_555 1_555
H3_4 C11_4 1_555 1_555
C12_4 C2_4 1_555 1_555
H4_4 C12_4 1_555 1_555
O21_2 C1_4 1_555 1_555
C6_4 C10_4 1_555 1_555
C7_4 C11_4 1_555 1_555
C7_4 C12_4 1_555 1_555
O20 C9_4 1_555 1_555
Mn6 O1_4 1_555 1_555
O1_5 Mn6_2 1_555 1_555
Mn8 O1_6 1_555 1_555
O1_6 Mn9 1_555 1_555

#END
