
###############################################################################
#
# This file contains modified crystal structure data generated from the
# MOF subset of the Cambridge Structural Database (CSD) v543 
# hosted by the Cambridge Crystallographic Data Centre (CCDC).
#
# This work is licensed under the Creative Commons
# Attribution-NonCommercial-ShareAlike 4.0 International License.
# To view a copy of this license, visit
# http://creativecommons.org/licenses/by-nc-sa/4.0/
# or send a letter to
# Creative Commons, PO Box 1866, Mountain View, CA 94042, USA.
#
# CIF created using the CSD Python API on 29 September 2022
# The structure has been converted into the P1 space group
# The structure has a 3D framework
# The original CSD entry ROLKEL is in the triclinic crystal system
# The framework has been calculated to contain at least 10.0% void space
# The void calculation uses a probe of radius 1.32A, grid spacing 0.4
# The framework is charged, counterions have been retained in the structure
#
###############################################################################

data_ROLKEL
_chemical_formula_moiety         '(C40 H28 N2 Na2 O24 Zn4)n'
_symmetry_cell_setting           triclinic
_symmetry_space_group_name_H-M   'P 1'
_symmetry_Int_Tables_number      1
_space_group_name_Hall           'P 1'
loop_
_symmetry_equiv_pos_site_id
_symmetry_equiv_pos_as_xyz
1 x,y,z
_cell_length_a                   9.1447(4)
_cell_length_b                   11.2988(7)
_cell_length_c                   13.5967(8)
_cell_angle_alpha                92.285(5)
_cell_angle_beta                 100.380(4)
_cell_angle_gamma                97.856(5)
_cell_volume                     1365.9
loop_
_atom_site_label
_atom_site_type_symbol
_atom_site_fract_x
_atom_site_fract_y
_atom_site_fract_z
H9 H 0.0112 0.1403 0.4166
H10 H 0.0319 0.0056 0.4027
C20 C 0.0142(8) 0.0577(9) 0.2217(7)
H14 H 0.0933 0.1244 0.2395
H13 H 0.0560 0.9843 0.2285
Zn5 Zn 0.19430(5) 0.71935(4) 0.35938(4)
Zn1 Zn 0.44710(5) 0.06848(4) 0.24403(3)
N1 N 0.9052(5) 0.0620(5) 0.2882(4)
O12 O 0.6655(3) 0.0681(3) 0.3042(3)
C18 C 0.7643(5) 0.0630(5) 0.2525(4)
H8 H 0.7345 0.0596 0.1832
C19 C 0.9616(8) 0.0617(10) 0.3915(6)
H11 H 0.8802 0.0389 0.4259
H12 H 0.9649 0.0616 0.1536
O14 O 0.4893(4) 0.1235(3) 0.1116(2)
O16 O 0.3862(4) 0.2000(3) 0.3195(2)
O17 O 0.4032(5) 0.0589(3) 0.4225(3)
C1 C 0.4008(4) 0.8035(4) 0.2387(3)
C2 C 0.5358(4) 0.7965(4) 0.1910(3)
C3 C 0.6648(4) 0.7533(4) 0.2402(3)
C4 C 0.7821(5) 0.7477(4) 0.1876(3)
C5 C 0.9298(5) 0.7100(5) 0.2332(4)
C6 C 0.7705(5) 0.7835(4) 0.0903(3)
H1 H 0.8492 0.7778 0.0563
C7 C 0.6441(5) 0.8274(4) 0.0430(3)
C9 C 0.5264(4) 0.8333(4) 0.0939(3)
H2 H 0.4403 0.8621 0.0628
C10 C 0.6754(4) 0.7158(4) 0.3447(3)
C11 C 0.6465(4) 0.7917(4) 0.4190(3)
H3 H 0.6224 0.8670 0.4037
C12 C 0.6532(5) 0.7564(4) 0.5165(3)
C13 C 0.6199(5) 0.8386(4) 0.5955(3)
C14 C 0.6899(5) 0.6440(4) 0.5388(3)
H4 H 0.6934 0.6195 0.6036
C15 C 0.7212(5) 0.5684(4) 0.4657(3)
C16 C 0.7606(6) 0.4467(4) 0.4914(4)
C17 C 0.7134(5) 0.6044(4) 0.3688(3)
H5 H 0.7340 0.5533 0.3194
O1 O 0.3484(3) 0.9003(3) 0.2405(2)
O2 O 0.3431(3) 0.7104(3) 0.2717(2)
O3 O 0.9791(5) 0.6316(5) 0.1892(4)
O4 O 0.9979(4) 0.7651(3) 0.3136(3)
O7 O 0.7557(6) 0.3675(4) 0.4263(3)
O8 O 0.7979(4) 0.4350(3) 0.5854(3)
O9 O 0.6138(4) 0.8000(3) 0.6805(2)
O10 O 0.5968(5) 0.9411(3) 0.5775(3)
O11 O 0.2830(5) 0.8450(4) 0.4674(3)
H6 H 0.2733 0.8179 0.5237
H7 H 0.2315 0.9023 0.4621
O15 O 0.2021(4) 0.5650(3) 0.4146(3)
Zn4 Zn 0.55290(5) 0.93152(4) 0.75597(3)
Zn6 Zn 0.80570(5) 0.28065(4) 0.64062(4)
C8 C 0.6377(6) 0.8701(4) 0.9400(3)
O5 O 0.5107(4) 0.8765(3) 0.8884(2)
O6 O 0.7540(5) 0.8986(5) 0.9079(3)
O13 O 0.0021(4) 0.2349(3) 0.6864(3)
C8_2 C 0.3623(6) 0.1299(4) 0.0600(3)
O6_2 O 0.2460(5) 0.1014(5) 0.0921(3)
C1_2 C 0.5992(4) 0.1965(4) 0.7613(3)
C2_2 C 0.4642(4) 0.2035(4) 0.8090(3)
C3_2 C 0.3352(4) 0.2467(4) 0.7598(3)
C4_2 C 0.2179(5) 0.2523(4) 0.8124(3)
C5_2 C 0.0702(5) 0.2900(5) 0.7668(4)
C6_2 C 0.2295(5) 0.2165(4) 0.9097(3)
H1_2 H 0.1508 0.2222 0.9437
C7_2 C 0.3559(5) 0.1726(4) 0.9570(3)
C9_2 C 0.4736(4) 0.1667(4) 0.9061(3)
H2_2 H 0.5597 0.1379 0.9372
C10_2 C 0.3246(4) 0.2842(4) 0.6553(3)
C11_2 C 0.3535(4) 0.2083(4) 0.5810(3)
H3_2 H 0.3776 0.1330 0.5963
C12_2 C 0.3468(5) 0.2436(4) 0.4835(3)
C13_2 C 0.3801(5) 0.1614(4) 0.4045(3)
C14_2 C 0.3101(5) 0.3560(4) 0.4612(3)
H4_2 H 0.3066 0.3805 0.3964
C15_2 C 0.2788(5) 0.4316(4) 0.5343(3)
C16_2 C 0.2394(6) 0.5533(4) 0.5086(4)
C17_2 C 0.2866(5) 0.3956(4) 0.6312(3)
H5_2 H 0.2660 0.4467 0.6806
O1_2 O 0.6516(3) 0.0997(3) 0.7595(2)
O2_2 O 0.6569(3) 0.2896(3) 0.7283(2)
O3_2 O 0.0209(5) 0.3684(5) 0.8108(4)
O7_2 O 0.2443(6) 0.6325(4) 0.5737(3)
O11_2 O 0.7170(5) 0.1550(4) 0.5326(3)
H6_2 H 0.7267 0.1821 0.4763
H7_2 H 0.7685 0.0977 0.5379
N1_2 N 0.0948(5) 0.9380(5) 0.7118(4)
O12_2 O 0.3345(3) 0.9319(3) 0.6958(3)
C18_2 C 0.2357(5) 0.9370(5) 0.7475(4)
H8_2 H 0.2655 0.9404 0.8168
C19_2 C 0.0384(8) 0.9383(10) 0.6085(6)
H11_2 H 0.1198 0.9611 0.5741
H12_2 H 0.0351 0.9384 0.8464
H13_2 H 0.9440 0.0157 0.7715
H9_2 H 0.9888 0.8597 0.5834
H10_2 H 0.9681 0.9944 0.5973
C20_2 C 0.9858(8) 0.9423(9) 0.7783(7)
H14_2 H 0.9067 0.8756 0.7605
Na1 Na 0.8790(4) 0.4276(3) 0.1400(2)
Na1_2 Na 0.1210(4) 0.5724(3) 0.8600(2)
loop_
_geom_bond_atom_site_label_1
_geom_bond_atom_site_label_2
_geom_bond_site_symmetry_1
_geom_bond_site_symmetry_2
H14 C20 1_555 1_555
N1 C18 1_555 1_555
O12 Zn1 1_555 1_555
C18 O12 1_555 1_555
H8 C18 1_555 1_555
C19 N1 1_555 1_555
H11 C19 1_555 1_555
O14 Zn1 1_555 1_555
O16 Zn1 1_555 1_555
O17 Zn1 1_555 1_555
C1 C2 1_555 1_555
C2 C3 1_555 1_555
C3 C4 1_555 1_555
C4 C5 1_555 1_555
C5 O3 1_555 1_555
C6 C4 1_555 1_555
H1 C6 1_555 1_555
C7 C6 1_555 1_555
C9 C2 1_555 1_555
H2 C9 1_555 1_555
C10 C3 1_555 1_555
C11 C10 1_555 1_555
H3 C11 1_555 1_555
C12 C11 1_555 1_555
C13 C12 1_555 1_555
C14 C12 1_555 1_555
H4 C14 1_555 1_555
C15 C14 1_555 1_555
C16 C15 1_555 1_555
C17 C10 1_555 1_555
H5 C17 1_555 1_555
O1 C1 1_555 1_555
O2 C1 1_555 1_555
O4 C5 1_555 1_555
O7 C16 1_555 1_555
O8 C16 1_555 1_555
O9 C13 1_555 1_555
O10 C13 1_555 1_555
Zn5 O2 1_555 1_555
O11 Zn5 1_555 1_555
H6 O11 1_555 1_555
H7 O11 1_555 1_555
O15 Zn5 1_555 1_555
Zn4 O9 1_555 1_555
Zn6 O8 1_555 1_555
C7 C9 1_555 1_555
C15 C17 1_555 1_555
O10 Zn4 1_555 1_555
O5 C8 1_555 1_555
O6 C8 1_555 1_555
Zn4 O5 1_555 1_555
O14 C8_2 1_555 1_555
O6_2 C8_2 1_555 1_555
C1_2 C2_2 1_555 1_555
C2_2 C3_2 1_555 1_555
C3_2 C4_2 1_555 1_555
C4_2 C5_2 1_555 1_555
C5_2 O3_2 1_555 1_555
C6_2 C4_2 1_555 1_555
H1_2 C6_2 1_555 1_555
C7_2 C6_2 1_555 1_555
C9_2 C2_2 1_555 1_555
H2_2 C9_2 1_555 1_555
C10_2 C3_2 1_555 1_555
C11_2 C10_2 1_555 1_555
H3_2 C11_2 1_555 1_555
C12_2 C11_2 1_555 1_555
C13_2 C12_2 1_555 1_555
C14_2 C12_2 1_555 1_555
H4_2 C14_2 1_555 1_555
C15_2 C14_2 1_555 1_555
C16_2 C15_2 1_555 1_555
C17_2 C10_2 1_555 1_555
H5_2 C17_2 1_555 1_555
O1_2 C1_2 1_555 1_555
O2_2 C1_2 1_555 1_555
O13 C5_2 1_555 1_555
O7_2 C16_2 1_555 1_555
O15 C16_2 1_555 1_555
O16 C13_2 1_555 1_555
O17 C13_2 1_555 1_555
Zn6 O2_2 1_555 1_555
O11_2 Zn6 1_555 1_555
H6_2 O11_2 1_555 1_555
H7_2 O11_2 1_555 1_555
C7_2 C9_2 1_555 1_555
C15_2 C17_2 1_555 1_555
N1_2 C18_2 1_555 1_555
O12_2 Zn4 1_555 1_555
C18_2 O12_2 1_555 1_555
H8_2 C18_2 1_555 1_555
C19_2 N1_2 1_555 1_555
H11_2 C19_2 1_555 1_555
H14_2 C20_2 1_555 1_555

#END
