
###############################################################################
#
# This file contains modified crystal structure data generated from the
# MOF subset of the Cambridge Structural Database (CSD) v543 
# hosted by the Cambridge Crystallographic Data Centre (CCDC).
#
# This work is licensed under the Creative Commons
# Attribution-NonCommercial-ShareAlike 4.0 International License.
# To view a copy of this license, visit
# http://creativecommons.org/licenses/by-nc-sa/4.0/
# or send a letter to
# Creative Commons, PO Box 1866, Mountain View, CA 94042, USA.
#
# CIF created using the CSD Python API on 29 September 2022
# The structure has been converted into the P1 space group
# The structure has a 3D framework
# The original CSD entry ROLKIP is in the orthorhombic crystal system
# The framework has been calculated to contain at least 10.0% void space
# The void calculation uses a probe of radius 1.32A, grid spacing 0.4
# The framework is charged, counterions have been retained in the structure
# H atom positions have been added when not included in the experimental data
#
###############################################################################

data_ROLKIP
_chemical_formula_moiety         '(C192 H160 N80 O8 Zn8 16+)n'
_symmetry_cell_setting           triclinic
_symmetry_space_group_name_H-M   'P 1'
_symmetry_Int_Tables_number      1
_space_group_name_Hall           'P 1'
loop_
_symmetry_equiv_pos_site_id
_symmetry_equiv_pos_as_xyz
1 x,y,z
_cell_length_a                   28.580(6)
_cell_length_b                   27.790(6)
_cell_length_c                   9.6693(19)
_cell_angle_alpha                90
_cell_angle_beta                 90
_cell_angle_gamma                90
_cell_volume                     7679.73
loop_
_atom_site_label
_atom_site_type_symbol
_atom_site_fract_x
_atom_site_fract_y
_atom_site_fract_z
O1 O 0.1696(3) 0.5051(3) 0.0717(8)
H19 H 0.19967 0.522432 0.0588417
H20 H 0.152618 0.51892 0.152008
C1 C 0.20174(8) 0.46223(10) 0.7271(3)
H1 H 0.221436 0.455715 0.801355
C2 C 0.17366(11) 0.46466(15) 0.5176(3)
H2 H 0.169659 0.461135 0.422649
C3 C 0.25055(8) 0.42272(9) 0.5473(3)
C4 C 0.26316(11) 0.42543(12) 0.4097(3)
H3 H 0.246307 0.444822 0.349195
C5 C 0.30107(10) 0.39908(11) 0.3623(3)
H4 H 0.309142 0.400463 0.269169
C6 C 0.32689(8) 0.37097(9) 0.4506(3)
C7 C 0.31409(9) 0.36921(11) 0.5884(3)
H5 H 0.331650 0.350846 0.649776
C8 C 0.27583(9) 0.39417(11) 0.6361(3)
H6 H 0.267055 0.391735 0.728459
C9 C 0.37327(8) 0.29703(9) 0.4560(3)
C10 C 0.41677(8) 0.28289(8) 0.5058(2)
H7 H 0.441699 0.304382 0.503555
C11 C 0.42327(9) 0.23718(9) 0.5584(2)
H8 H 0.452626 0.227413 0.588990
C12 C 0.38518(9) 0.20589(9) 0.5651(3)
C13 C 0.34228(9) 0.21970(10) 0.5184(3)
H9 H 0.316909 0.198863 0.524852
C14 C 0.33677(9) 0.26482(10) 0.4617(3)
H10 H 0.307745 0.273698 0.426441
C15 C 0.42656(9) 0.14286(10) 0.7084(3)
H11 H 0.448093 0.162485 0.753317
C16 C 0.36999(8) 0.11797(10) 0.5730(3)
H12 H 0.345740 0.117817 0.508813
C17 C 0.40106(7) 0.36635(8) 0.3211(2)
C18 C 0.42860(8) 0.33903(9) 0.2314(2)
H13 H 0.422837 0.306265 0.221730
C19 C 0.46402(8) 0.35999(9) 0.1575(2)
H14 H 0.482666 0.341176 0.100133
C20 C 0.47219(8) 0.40818(9) 0.1673(2)
C21 C 0.44468(9) 0.43652(9) 0.2519(3)
H15 H 0.449529 0.469577 0.256399
C22 C 0.40967(9) 0.41502(9) 0.3301(3)
H16 H 0.391758 0.433802 0.389574
C24 C 0.54048(9) 0.46251(10) 0.1480(3)
H18 H 0.537566 0.476034 0.235574
N1 N 0.16185(8) 0.48548(7) 0.7373(3)
N2 N 0.14376(12) 0.48660(14) 0.6071(3)
N3 N 0.21062(7) 0.44888(8) 0.5942(2)
N4 N 0.36629(7) 0.34401(8) 0.4024(2)
N5 N 0.39271(7) 0.15753(7) 0.6157(2)
N6 N 0.42257(9) 0.09516(9) 0.7215(3)
N7 N 0.38679(7) 0.07943(7) 0.6345(2)
N8 N 0.51130(7) 0.42963(8) 0.09538(19)
N9 N 0.57387(7) 0.47319(8) 0.0593(2)
Zn1 Zn 0.13221(2) 0.51179(2) 0.90881(3)
N11 N 0.11321(7) 0.57943(7) 0.8655(2)
N12 N 0.07387(7) 0.47319(8) 0.9407(2)
Zn2 Zn 0.36779(2) 0.01179(2) 0.59119(3)
Zn3 Zn 0.63221(2) 0.51179(2) 0.09119(3)
O1_2 O 0.3304(3) 0.0051(3) 0.4283(8)
H19_2 H 0.30033 0.0224324 0.441158
H20_2 H 0.347382 0.0189195 0.347992
C1_2 C 0.29826(8) 0.96223(10) 0.7729(3)
H1_2 H 0.278564 0.955715 0.698645
C2_2 C 0.32634(11) 0.96466(15) 0.9824(3)
C3_2 C 0.24945(8) 0.92272(9) 0.9527(3)
C7_2 C 0.18591(9) 0.86921(11) 0.9116(3)
H5_2 H 0.168350 0.850846 0.850224
C8_2 C 0.22417(9) 0.89417(11) 0.8639(3)
H6_2 H 0.232945 0.891735 0.771541
C10_2 C 0.08323(8) 0.78289(8) 0.9942(2)
H7_2 H 0.058301 0.804382 0.996445
C11_2 C 0.07673(9) 0.73718(9) 0.9416(2)
H8_2 H 0.047374 0.727413 0.911010
C12_2 C 0.11482(9) 0.70589(9) 0.9349(3)
C13_2 C 0.15772(9) 0.71970(10) 0.9816(3)
H9_2 H 0.183091 0.698863 0.975148
C15_2 C 0.07344(9) 0.64286(10) 0.7916(3)
H11_2 H 0.051907 0.662485 0.746683
C16_2 C 0.13001(8) 0.61797(10) 0.9270(3)
H12_2 H 0.154260 0.617817 0.991187
N1_2 N 0.33815(8) 0.98548(7) 0.7627(3)
N2_2 N 0.35624(12) 0.98660(14) 0.8929(3)
N3_2 N 0.28938(7) 0.94888(8) 0.9058(2)
N5_2 N 0.10729(7) 0.65753(7) 0.8843(2)
N6_2 N 0.07743(9) 0.59516(9) 0.7785(3)
N12_2 N 0.42613(7) 0.97319(8) 0.5593(2)
Zn3_2 Zn 0.86779(2) 0.01179(2) 0.40881(3)
C23 C 0.97339(10) 0.91888(13) 0.5339(3)
H17 H 0.987184 0.897349 0.595274
C24_2 C 0.95952(9) 0.96251(10) 0.3520(3)
H18_2 H 0.962434 0.976034 0.264426
N8_2 N 0.98870(7) 0.92963(8) 0.40462(19)
N9_2 N 0.92613(7) 0.97319(8) 0.4407(2)
N10 N 0.93425(10) 0.94534(12) 0.5572(3)
C24_3 C 0.04048(9) 0.46251(10) 0.8520(3)
H18_3 H 0.037566 0.476034 0.764426
N8_3 N 0.01130(7) 0.42963(8) 0.90462(19)
C1_3 C 0.70174(8) 0.46223(10) 0.2729(3)
H1_3 H 0.721436 0.455715 0.198645
C2_3 C 0.67366(11) 0.46466(15) 0.4824(3)
H2_2 H 0.669659 0.461135 0.577351
C3_3 C 0.75055(8) 0.42272(9) 0.4527(3)
C4_2 C 0.76316(11) 0.42543(12) 0.5903(3)
H3_2 H 0.746307 0.444822 0.650805
C5_2 C 0.80107(10) 0.39908(11) 0.6377(3)
H4_2 H 0.809142 0.400463 0.730831
C6_2 C 0.82689(8) 0.37097(9) 0.5494(3)
C7_3 C 0.81409(9) 0.36921(11) 0.4116(3)
H5_3 H 0.831650 0.350846 0.350224
C8_3 C 0.77583(9) 0.39417(11) 0.3639(3)
H6_3 H 0.767055 0.391735 0.271541
C9_2 C 0.87327(8) 0.29703(9) 0.5440(3)
C10_3 C 0.91677(8) 0.28289(8) 0.4942(2)
H7_3 H 0.941699 0.304382 0.496445
C11_3 C 0.92327(9) 0.23718(9) 0.4416(2)
H8_3 H 0.952626 0.227413 0.411010
C12_3 C 0.88518(9) 0.20589(9) 0.4349(3)
C13_3 C 0.84228(9) 0.21970(10) 0.4816(3)
H9_3 H 0.816909 0.198863 0.475148
C14_2 C 0.83677(9) 0.26482(10) 0.5383(3)
H10_2 H 0.807745 0.273698 0.573559
C15_3 C 0.92656(9) 0.14286(10) 0.2916(3)
H11_3 H 0.948093 0.162485 0.246683
C16_3 C 0.86999(8) 0.11797(10) 0.4270(3)
H12_3 H 0.845740 0.117817 0.491187
C17_2 C 0.90106(7) 0.36635(8) 0.6789(2)
C18_2 C 0.92860(8) 0.33903(9) 0.7686(2)
H13_2 H 0.922837 0.306265 0.778270
C19_2 C 0.96402(8) 0.35999(9) 0.8425(2)
H14_2 H 0.982666 0.341176 0.899867
C20_2 C 0.97219(8) 0.40818(9) 0.8327(2)
C21_2 C 0.94468(9) 0.43652(9) 0.7481(3)
H15_2 H 0.949529 0.469577 0.743601
C22_2 C 0.90967(9) 0.41502(9) 0.6699(3)
H16_2 H 0.891758 0.433802 0.610426
N1_3 N 0.66185(8) 0.48548(7) 0.2627(3)
N2_3 N 0.64376(12) 0.48660(14) 0.3929(3)
N3_3 N 0.71062(7) 0.44888(8) 0.4058(2)
N4_2 N 0.86629(7) 0.34401(8) 0.5976(2)
N5_3 N 0.89271(7) 0.15753(7) 0.3843(2)
N6_3 N 0.92257(9) 0.09516(9) 0.2785(3)
N7_2 N 0.88679(7) 0.07943(7) 0.3655(2)
N11_2 N 0.61321(7) 0.57943(7) 0.1345(2)
O1_3 O 0.8304(3) 0.0051(3) 0.5717(8)
H19_3 H 0.80033 0.0224324 0.558842
H20_3 H 0.847382 0.0189195 0.652008
C1_4 C 0.79826(8) 0.96223(10) 0.2271(3)
H1_4 H 0.778564 0.955715 0.301355
C2_4 C 0.82634(11) 0.96466(15) 0.0176(3)
C3_4 C 0.74945(8) 0.92272(9) 0.0473(3)
C7_4 C 0.68591(9) 0.86921(11) 0.0884(3)
H5_4 H 0.668350 0.850846 0.149776
C8_4 C 0.72417(9) 0.89417(11) 0.1361(3)
H6_4 H 0.732945 0.891735 0.228459
C10_4 C 0.58323(8) 0.78289(8) 0.0058(2)
H7_4 H 0.558301 0.804382 0.003555
C11_4 C 0.57673(9) 0.73718(9) 0.0584(2)
H8_4 H 0.547374 0.727413 0.088990
C12_4 C 0.61482(9) 0.70589(9) 0.0651(3)
C13_4 C 0.65772(9) 0.71970(10) 0.0184(3)
H9_4 H 0.683091 0.698863 0.024852
C15_4 C 0.57344(9) 0.64286(10) 0.2084(3)
H11_4 H 0.551907 0.662485 0.253317
C16_4 C 0.63001(8) 0.61797(10) 0.0730(3)
H12_4 H 0.654260 0.617817 0.008813
N1_4 N 0.83815(8) 0.98548(7) 0.2373(3)
N2_4 N 0.85624(12) 0.98660(14) 0.1071(3)
N3_4 N 0.78938(7) 0.94888(8) 0.0942(2)
N5_4 N 0.60729(7) 0.65753(7) 0.1157(2)
N6_4 N 0.57743(9) 0.59516(9) 0.2215(3)
H2_3 H 0.830341 0.961135 0.922649
C4_3 C 0.73684(11) 0.92543(12) 0.9097(3)
H3_3 H 0.753693 0.944822 0.849195
C5_3 C 0.69893(10) 0.89908(11) 0.8623(3)
H4_3 H 0.690858 0.900463 0.769169
C6_3 C 0.67311(8) 0.87097(9) 0.9506(3)
C9_3 C 0.62673(8) 0.79703(9) 0.9560(3)
C14_3 C 0.66323(9) 0.76482(10) 0.9617(3)
H10_3 H 0.692255 0.773698 0.926441
C17_3 C 0.59894(7) 0.86635(8) 0.8211(2)
C18_3 C 0.57140(8) 0.83903(9) 0.7314(2)
H13_3 H 0.577163 0.806265 0.721730
C19_3 C 0.53598(8) 0.85999(9) 0.6575(2)
H14_3 H 0.517334 0.841176 0.600133
C20_3 C 0.52781(8) 0.90818(9) 0.6673(2)
C21_3 C 0.55532(9) 0.93652(9) 0.7519(3)
H15_3 H 0.550471 0.969577 0.756399
C22_3 C 0.59033(9) 0.91502(9) 0.8301(3)
H16_3 H 0.608242 0.933802 0.889574
C23_2 C 0.47339(10) 0.91888(13) 0.4661(3)
H17_2 H 0.487184 0.897349 0.404726
C24_4 C 0.45952(9) 0.96251(10) 0.6480(3)
H18_4 H 0.462434 0.976034 0.735574
N4_3 N 0.63371(7) 0.84401(8) 0.9024(2)
N8_4 N 0.48870(7) 0.92963(8) 0.59538(19)
N10_2 N 0.43425(10) 0.94534(12) 0.4428(3)
C23_3 C 0.52661(10) 0.41888(13) 0.9661(3)
H17_3 H 0.512816 0.397349 0.904726
N10_3 N 0.56575(10) 0.44534(12) 0.9428(3)
O1_4 O 0.3304(3) 0.4949(3) 0.0717(8)
H19_4 H 0.30033 0.477568 0.0588417
H20_4 H 0.347382 0.48108 0.152008
C1_5 C 0.29826(8) 0.53777(10) 0.7271(3)
H1_5 H 0.278564 0.544285 0.801355
C2_5 C 0.32634(11) 0.53534(15) 0.5176(3)
H2_4 H 0.330341 0.538865 0.422649
C3_5 C 0.24945(8) 0.57728(9) 0.5473(3)
C4_4 C 0.23684(11) 0.57457(12) 0.4097(3)
H3_4 H 0.253693 0.555178 0.349195
C5_4 C 0.19893(10) 0.60092(11) 0.3623(3)
H4_4 H 0.190858 0.599537 0.269169
C6_4 C 0.17311(8) 0.62903(9) 0.4506(3)
C7_5 C 0.18591(9) 0.63079(11) 0.5884(3)
H5_5 H 0.168350 0.649154 0.649776
C8_5 C 0.22417(9) 0.60583(11) 0.6361(3)
H6_5 H 0.232945 0.608265 0.728459
C9_4 C 0.12673(8) 0.70297(9) 0.4560(3)
C10_5 C 0.08323(8) 0.71711(8) 0.5058(2)
H7_5 H 0.058301 0.695618 0.503555
C11_5 C 0.07673(9) 0.76282(9) 0.5584(2)
H8_5 H 0.047374 0.772587 0.588990
C12_5 C 0.11482(9) 0.79411(9) 0.5651(3)
C13_5 C 0.15772(9) 0.78030(10) 0.5184(3)
H9_5 H 0.183091 0.801137 0.524852
C14_4 C 0.16323(9) 0.73518(10) 0.4617(3)
H10_4 H 0.192255 0.726302 0.426441
C15_5 C 0.07344(9) 0.85714(10) 0.7084(3)
H11_5 H 0.051907 0.837515 0.753317
C16_5 C 0.13001(8) 0.88203(10) 0.5730(3)
H12_5 H 0.154260 0.882183 0.508813
C17_4 C 0.09894(7) 0.63365(8) 0.3211(2)
C18_4 C 0.07140(8) 0.66097(9) 0.2314(2)
H13_4 H 0.077163 0.693735 0.221730
C19_4 C 0.03598(8) 0.64001(9) 0.1575(2)
H14_4 H 0.017334 0.658824 0.100133
C20_4 C 0.02781(8) 0.59182(9) 0.1673(2)
C21_4 C 0.05532(9) 0.56348(9) 0.2519(3)
H15_4 H 0.050471 0.530423 0.256399
C22_4 C 0.09033(9) 0.58498(9) 0.3301(3)
H16_4 H 0.108242 0.566198 0.389574
N1_5 N 0.33815(8) 0.51452(7) 0.7373(3)
N2_5 N 0.35624(12) 0.51340(14) 0.6071(3)
N3_5 N 0.28938(7) 0.55112(8) 0.5942(2)
N4_4 N 0.13371(7) 0.65599(8) 0.4024(2)
N5_5 N 0.10729(7) 0.84247(7) 0.6157(2)
N6_5 N 0.07743(9) 0.90484(9) 0.7215(3)
N7_3 N 0.11321(7) 0.92057(7) 0.6345(2)
Zn1_2 Zn 0.36779(2) 0.48821(2) 0.90881(3)
N11_3 N 0.38679(7) 0.42057(7) 0.8655(2)
N12_3 N 0.42613(7) 0.52681(8) 0.9407(2)
Zn2_2 Zn 0.13221(2) 0.98821(2) 0.59119(3)
C24_5 C 0.95952(9) 0.53749(10) 0.1480(3)
H18_5 H 0.962434 0.523966 0.235574
N8_5 N 0.98870(7) 0.57037(8) 0.09538(19)
N9_3 N 0.92613(7) 0.52681(8) 0.0593(2)
Zn3_3 Zn 0.86779(2) 0.48821(2) 0.09119(3)
H2_5 H 0.169659 0.038865 0.077351
C4_5 C 0.26316(11) 0.07457(12) 0.0903(3)
H3_5 H 0.246307 0.055178 0.150805
C5_5 C 0.30107(10) 0.10092(11) 0.1377(3)
H4_5 H 0.309142 0.099537 0.230831
C6_5 C 0.32689(8) 0.12903(9) 0.0494(3)
C9_5 C 0.37327(8) 0.20297(9) 0.0440(3)
C14_5 C 0.33677(9) 0.23518(10) 0.0383(3)
H10_5 H 0.307745 0.226302 0.073559
C17_5 C 0.40106(7) 0.13365(8) 0.1789(2)
C18_5 C 0.42860(8) 0.16097(9) 0.2686(2)
H13_5 H 0.422837 0.193735 0.278270
C19_5 C 0.46402(8) 0.14001(9) 0.3425(2)
H14_5 H 0.482666 0.158824 0.399867
C20_5 C 0.47219(8) 0.09182(9) 0.3327(2)
C21_5 C 0.44468(9) 0.06348(9) 0.2481(3)
H15_5 H 0.449529 0.030423 0.243601
C22_5 C 0.40967(9) 0.08498(9) 0.1699(3)
H16_5 H 0.391758 0.066198 0.110426
C23_4 C 0.52661(10) 0.08112(13) 0.5339(3)
H17_4 H 0.512816 0.102651 0.595274
C24_6 C 0.54048(9) 0.03749(10) 0.3520(3)
H18_6 H 0.537566 0.023966 0.264426
N4_5 N 0.36629(7) 0.15599(8) 0.0976(2)
N8_6 N 0.51130(7) 0.07037(8) 0.40462(19)
N9_4 N 0.57387(7) 0.02681(8) 0.4407(2)
N10_4 N 0.56575(10) 0.05466(12) 0.5572(3)
C1_6 C 0.20174(8) 0.03777(10) 0.7729(3)
H1_6 H 0.221436 0.044285 0.698645
C2_6 C 0.17366(11) 0.03534(15) 0.9824(3)
C3_6 C 0.25055(8) 0.07728(9) 0.9527(3)
C7_6 C 0.31409(9) 0.13079(11) 0.9116(3)
H5_6 H 0.331650 0.149154 0.850224
C8_6 C 0.27583(9) 0.10583(11) 0.8639(3)
H6_6 H 0.267055 0.108265 0.771541
C10_6 C 0.41677(8) 0.21711(8) 0.9942(2)
H7_6 H 0.441699 0.195618 0.996445
C11_6 C 0.42327(9) 0.26282(9) 0.9416(2)
H8_6 H 0.452626 0.272587 0.911010
C12_6 C 0.38518(9) 0.29411(9) 0.9349(3)
C13_6 C 0.34228(9) 0.28030(10) 0.9816(3)
H9_6 H 0.316909 0.301137 0.975148
C15_6 C 0.42656(9) 0.35714(10) 0.7916(3)
H11_6 H 0.448093 0.337515 0.746683
C16_6 C 0.36999(8) 0.38203(10) 0.9270(3)
H12_6 H 0.345740 0.382183 0.991187
N1_6 N 0.16185(8) 0.01452(7) 0.7627(3)
N2_6 N 0.14376(12) 0.01340(14) 0.8929(3)
N3_6 N 0.21062(7) 0.05112(8) 0.9058(2)
N5_6 N 0.39271(7) 0.34247(7) 0.8843(2)
N6_6 N 0.42257(9) 0.40484(9) 0.7785(3)
N12_4 N 0.07387(7) 0.02681(8) 0.5593(2)
Zn3_4 Zn 0.63221(2) 0.98821(2) 0.40881(3)
O1_5 O 0.1696(3) 0.9949(3) 0.4283(8)
H19_5 H 0.19967 0.977568 0.441158
H20_5 H 0.152618 0.98108 0.347992
C1_7 C 0.79826(8) 0.53777(10) 0.2729(3)
H1_7 H 0.778564 0.544285 0.198645
C2_7 C 0.82634(11) 0.53534(15) 0.4824(3)
H2_6 H 0.830341 0.538865 0.577351
C3_7 C 0.74945(8) 0.57728(9) 0.4527(3)
C4_6 C 0.73684(11) 0.57457(12) 0.5903(3)
H3_6 H 0.753693 0.555178 0.650805
C5_6 C 0.69893(10) 0.60092(11) 0.6377(3)
H4_6 H 0.690858 0.599537 0.730831
C6_6 C 0.67311(8) 0.62903(9) 0.5494(3)
C7_7 C 0.68591(9) 0.63079(11) 0.4116(3)
H5_7 H 0.668350 0.649154 0.350224
C8_7 C 0.72417(9) 0.60583(11) 0.3639(3)
H6_7 H 0.732945 0.608265 0.271541
C9_6 C 0.62673(8) 0.70297(9) 0.5440(3)
C10_7 C 0.58323(8) 0.71711(8) 0.4942(2)
H7_7 H 0.558301 0.695618 0.496445
C11_7 C 0.57673(9) 0.76282(9) 0.4416(2)
H8_7 H 0.547374 0.772587 0.411010
C12_7 C 0.61482(9) 0.79411(9) 0.4349(3)
C13_7 C 0.65772(9) 0.78030(10) 0.4816(3)
H9_7 H 0.683091 0.801137 0.475148
C14_6 C 0.66323(9) 0.73518(10) 0.5383(3)
H10_6 H 0.692255 0.726302 0.573559
C15_7 C 0.57344(9) 0.85714(10) 0.2916(3)
H11_7 H 0.551907 0.837515 0.246683
C16_7 C 0.63001(8) 0.88203(10) 0.4270(3)
H12_7 H 0.654260 0.882183 0.491187
C17_6 C 0.59894(7) 0.63365(8) 0.6789(2)
C18_6 C 0.57140(8) 0.66097(9) 0.7686(2)
H13_6 H 0.577163 0.693735 0.778270
C19_6 C 0.53598(8) 0.64001(9) 0.8425(2)
H14_6 H 0.517334 0.658824 0.899867
C20_6 C 0.52781(8) 0.59182(9) 0.8327(2)
C21_6 C 0.55532(9) 0.56348(9) 0.7481(3)
H15_6 H 0.550471 0.530423 0.743601
C22_6 C 0.59033(9) 0.58498(9) 0.6699(3)
H16_6 H 0.608242 0.566198 0.610426
C24_7 C 0.45952(9) 0.53749(10) 0.8520(3)
H18_7 H 0.462434 0.523966 0.764426
N1_7 N 0.83815(8) 0.51452(7) 0.2627(3)
N2_7 N 0.85624(12) 0.51340(14) 0.3929(3)
N3_7 N 0.78938(7) 0.55112(8) 0.4058(2)
N4_6 N 0.63371(7) 0.65599(8) 0.5976(2)
N5_7 N 0.60729(7) 0.84247(7) 0.3843(2)
N6_7 N 0.57743(9) 0.90484(9) 0.2785(3)
N7_4 N 0.61321(7) 0.92057(7) 0.3655(2)
N8_7 N 0.48870(7) 0.57037(8) 0.90462(19)
N11_4 N 0.88679(7) 0.42057(7) 0.1345(2)
C23_5 C 0.02661(10) 0.08112(13) 0.4661(3)
H17_5 H 0.012816 0.102651 0.404726
C24_8 C 0.04048(9) 0.03749(10) 0.6480(3)
H18_8 H 0.037566 0.023966 0.735574
N8_8 N 0.01130(7) 0.07037(8) 0.59538(19)
N10_5 N 0.06575(10) 0.05466(12) 0.4428(3)
C1_8 C 0.70174(8) 0.03777(10) 0.2271(3)
H1_8 H 0.721436 0.044285 0.301355
C2_8 C 0.67366(11) 0.03534(15) 0.0176(3)
C3_8 C 0.75055(8) 0.07728(9) 0.0473(3)
C7_8 C 0.81409(9) 0.13079(11) 0.0884(3)
H5_8 H 0.831650 0.149154 0.149776
C8_8 C 0.77583(9) 0.10583(11) 0.1361(3)
H6_8 H 0.767055 0.108265 0.228459
C10_8 C 0.91677(8) 0.21711(8) 0.0058(2)
H7_8 H 0.941699 0.195618 0.003555
C11_8 C 0.92327(9) 0.26282(9) 0.0584(2)
H8_8 H 0.952626 0.272587 0.088990
C12_8 C 0.88518(9) 0.29411(9) 0.0651(3)
C13_8 C 0.84228(9) 0.28030(10) 0.0184(3)
H9_8 H 0.816909 0.301137 0.024852
C15_8 C 0.92656(9) 0.35714(10) 0.2084(3)
H11_8 H 0.948093 0.337515 0.253317
C16_8 C 0.86999(8) 0.38203(10) 0.0730(3)
H12_8 H 0.845740 0.382183 0.008813
N1_8 N 0.66185(8) 0.01452(7) 0.2373(3)
N2_8 N 0.64376(12) 0.01340(14) 0.1071(3)
N3_8 N 0.71062(7) 0.05112(8) 0.0942(2)
N5_8 N 0.89271(7) 0.34247(7) 0.1157(2)
N6_8 N 0.92257(9) 0.40484(9) 0.2215(3)
O1_6 O 0.6696(3) 0.9949(3) 0.5717(8)
H19_6 H 0.69967 0.977568 0.558842
H20_6 H 0.652618 0.98108 0.652008
C23_6 C 0.97339(10) 0.58112(13) 0.9661(3)
H17_6 H 0.987184 0.602651 0.904726
N10_6 N 0.93425(10) 0.55466(12) 0.9428(3)
H2_7 H 0.330341 0.961135 0.077351
C4_7 C 0.23684(11) 0.92543(12) 0.0903(3)
H3_7 H 0.253693 0.944822 0.150805
C5_7 C 0.19893(10) 0.89908(11) 0.1377(3)
H4_7 H 0.190858 0.900463 0.230831
C6_7 C 0.17311(8) 0.87097(9) 0.0494(3)
C9_7 C 0.12673(8) 0.79703(9) 0.0440(3)
C14_7 C 0.16323(9) 0.76482(10) 0.0383(3)
H10_7 H 0.192255 0.773698 0.073559
C17_7 C 0.09894(7) 0.86635(8) 0.1789(2)
C18_7 C 0.07140(8) 0.83903(9) 0.2686(2)
H13_7 H 0.077163 0.806265 0.278270
C19_7 C 0.03598(8) 0.85999(9) 0.3425(2)
H14_7 H 0.017334 0.841176 0.399867
C20_7 C 0.02781(8) 0.90818(9) 0.3327(2)
C21_7 C 0.05532(9) 0.93652(9) 0.2481(3)
H15_7 H 0.050471 0.969577 0.243601
C22_7 C 0.09033(9) 0.91502(9) 0.1699(3)
H16_7 H 0.108242 0.933802 0.110426
N4_7 N 0.13371(7) 0.84401(8) 0.0976(2)
C23_7 C 0.47339(10) 0.58112(13) 0.0339(3)
H17_7 H 0.487184 0.602651 0.095274
N10_7 N 0.43425(10) 0.55466(12) 0.0572(3)
O1_7 O 0.8304(3) 0.4949(3) 0.9283(8)
H19_7 H 0.80033 0.477568 0.941158
H20_7 H 0.847382 0.48108 0.847992
C23_8 C 0.02661(10) 0.41888(13) 0.0339(3)
H17_8 H 0.012816 0.397349 0.095274
N10_8 N 0.06575(10) 0.44534(12) 0.0572(3)
O1_8 O 0.6696(3) 0.5051(3) 0.9283(8)
H19_8 H 0.69967 0.522432 0.941158
H20_8 H 0.652618 0.51892 0.847992
H2_8 H 0.669659 0.038865 0.922649
C4_8 C 0.76316(11) 0.07457(12) 0.9097(3)
H3_8 H 0.746307 0.055178 0.849195
C5_8 C 0.80107(10) 0.10092(11) 0.8623(3)
H4_8 H 0.809142 0.099537 0.769169
C6_8 C 0.82689(8) 0.12903(9) 0.9506(3)
C9_8 C 0.87327(8) 0.20297(9) 0.9560(3)
C14_8 C 0.83677(9) 0.23518(10) 0.9617(3)
H10_8 H 0.807745 0.226302 0.926441
C17_8 C 0.90106(7) 0.13365(8) 0.8211(2)
C18_8 C 0.92860(8) 0.16097(9) 0.7314(2)
H13_8 H 0.922837 0.193735 0.721730
C19_8 C 0.96402(8) 0.14001(9) 0.6575(2)
H14_8 H 0.982666 0.158824 0.600133
C20_8 C 0.97219(8) 0.09182(9) 0.6673(2)
C21_8 C 0.94468(9) 0.06348(9) 0.7519(3)
H15_8 H 0.949529 0.030423 0.756399
C22_8 C 0.90967(9) 0.08498(9) 0.8301(3)
H16_8 H 0.891758 0.066198 0.889574
N4_8 N 0.86629(7) 0.15599(8) 0.9024(2)
loop_
_geom_bond_atom_site_label_1
_geom_bond_atom_site_label_2
_geom_bond_site_symmetry_1
_geom_bond_site_symmetry_2
O1 H19 1_555 1_555
O1 H20 1_555 1_555
C1 H1 1_555 1_555
C2 H2 1_555 1_555
C3 C4 1_555 1_555
C4 H3 1_555 1_555
C5 C4 1_555 1_555
H4 C5 1_555 1_555
C6 C5 1_555 1_555
C7 C6 1_555 1_555
H5 C7 1_555 1_555
C8 C3 1_555 1_555
H6 C8 1_555 1_555
C9 C10 1_555 1_555
C10 H7 1_555 1_555
C11 C10 1_555 1_555
H8 C11 1_555 1_555
C12 C11 1_555 1_555
C13 C12 1_555 1_555
H9 C13 1_555 1_555
C14 C9 1_555 1_555
H10 C14 1_555 1_555
C15 H11 1_555 1_555
C16 H12 1_555 1_555
C17 C18 1_555 1_555
C18 H13 1_555 1_555
C19 C18 1_555 1_555
H14 C19 1_555 1_555
C20 C19 1_555 1_555
C21 C20 1_555 1_555
H15 C21 1_555 1_555
C22 C17 1_555 1_555
H16 C22 1_555 1_555
C24 H18 1_555 1_555
N1 C1 1_555 1_555
N2 C2 1_555 1_555
N3 C1 1_555 1_555
N4 C6 1_555 1_555
N5 C12 1_555 1_555
N6 C15 1_555 1_555
N7 C16 1_555 1_555
N8 C20 1_555 1_555
N9 C24 1_555 1_555
Zn1 N1 1_555 1_555
N11 Zn1 1_555 1_555
N12 Zn1 1_555 1_555
Zn2 N7 1_555 1_555
Zn3 N9 1_555 1_555
C2 N3 1_555 1_555
C3 N3 1_555 1_555
C7 C8 1_555 1_555
C9 N4 1_555 1_555
C13 C14 1_555 1_555
C15 N5 1_555 1_555
C16 N5 1_555 1_555
C17 N4 1_555 1_555
C21 C22 1_555 1_555
C24 N8 1_555 1_555
N1 N2 1_555 1_555
N6 N7 1_555 1_555
O1_2 Zn2 1_555 1_555
O1_2 H19_2 1_555 1_555
O1_2 H20_2 1_555 1_555
C1_2 H1_2 1_555 1_555
H5_2 C7_2 1_555 1_555
C8_2 C3_2 1_555 1_555
H6_2 C8_2 1_555 1_555
C10_2 H7_2 1_555 1_555
C11_2 C10_2 1_555 1_555
H8_2 C11_2 1_555 1_555
C12_2 C11_2 1_555 1_555
C13_2 C12_2 1_555 1_555
H9_2 C13_2 1_555 1_555
C15_2 H11_2 1_555 1_555
C16_2 H12_2 1_555 1_555
N1_2 C1_2 1_555 1_555
N2_2 C2_2 1_555 1_555
N3_2 C1_2 1_555 1_555
N5_2 C12_2 1_555 1_555
N6_2 C15_2 1_555 1_555
N11 C16_2 1_555 1_555
C2_2 N3_2 1_555 1_555
C3_2 N3_2 1_555 1_555
C7_2 C8_2 1_555 1_555
C15_2 N5_2 1_555 1_555
C16_2 N5_2 1_555 1_555
N1_2 N2_2 1_555 1_555
N6_2 N11 1_555 1_555
C23 H17 1_555 1_555
C24_2 H18_2 1_555 1_555
N9_2 C24_2 1_555 1_555
N10 C23 1_555 1_555
C23 N8_2 1_555 1_555
C24_2 N8_2 1_555 1_555
N9_2 N10 1_555 1_555
C24_3 H18_3 1_555 1_555
N12 C24_3 1_555 1_555
C24_3 N8_3 1_555 1_555
C1_3 H1_3 1_555 1_555
C2_3 H2_2 1_555 1_555
C3_3 C4_2 1_555 1_555
C4_2 H3_2 1_555 1_555
C5_2 C4_2 1_555 1_555
H4_2 C5_2 1_555 1_555
C6_2 C5_2 1_555 1_555
C7_3 C6_2 1_555 1_555
H5_3 C7_3 1_555 1_555
C8_3 C3_3 1_555 1_555
H6_3 C8_3 1_555 1_555
C9_2 C10_3 1_555 1_555
C10_3 H7_3 1_555 1_555
C11_3 C10_3 1_555 1_555
H8_3 C11_3 1_555 1_555
C12_3 C11_3 1_555 1_555
C13_3 C12_3 1_555 1_555
H9_3 C13_3 1_555 1_555
C14_2 C9_2 1_555 1_555
H10_2 C14_2 1_555 1_555
C15_3 H11_3 1_555 1_555
C16_3 H12_3 1_555 1_555
C17_2 C18_2 1_555 1_555
C18_2 H13_2 1_555 1_555
C19_2 C18_2 1_555 1_555
H14_2 C19_2 1_555 1_555
C20_2 C19_2 1_555 1_555
C21_2 C20_2 1_555 1_555
H15_2 C21_2 1_555 1_555
C22_2 C17_2 1_555 1_555
H16_2 C22_2 1_555 1_555
N1_3 C1_3 1_555 1_555
N2_3 C2_3 1_555 1_555
N3_3 C1_3 1_555 1_555
N4_2 C6_2 1_555 1_555
N5_3 C12_3 1_555 1_555
N6_3 C15_3 1_555 1_555
N7_2 C16_3 1_555 1_555
Zn3 N1_3 1_555 1_555
N11_2 Zn3 1_555 1_555
Zn3_2 N7_2 1_555 1_555
C2_3 N3_3 1_555 1_555
C3_3 N3_3 1_555 1_555
C7_3 C8_3 1_555 1_555
C9_2 N4_2 1_555 1_555
C13_3 C14_2 1_555 1_555
C15_3 N5_3 1_555 1_555
C16_3 N5_3 1_555 1_555
C17_2 N4_2 1_555 1_555
C21_2 C22_2 1_555 1_555
N1_3 N2_3 1_555 1_555
N6_3 N7_2 1_555 1_555
O1_3 Zn3_2 1_555 1_555
O1_3 H19_3 1_555 1_555
O1_3 H20_3 1_555 1_555
C1_4 H1_4 1_555 1_555
H5_4 C7_4 1_555 1_555
C8_4 C3_4 1_555 1_555
H6_4 C8_4 1_555 1_555
C10_4 H7_4 1_555 1_555
C11_4 C10_4 1_555 1_555
H8_4 C11_4 1_555 1_555
C12_4 C11_4 1_555 1_555
C13_4 C12_4 1_555 1_555
H9_4 C13_4 1_555 1_555
C15_4 H11_4 1_555 1_555
C16_4 H12_4 1_555 1_555
N1_4 C1_4 1_555 1_555
N2_4 C2_4 1_555 1_555
N3_4 C1_4 1_555 1_555
N5_4 C12_4 1_555 1_555
N6_4 C15_4 1_555 1_555
N11_2 C16_4 1_555 1_555
C2_4 N3_4 1_555 1_555
C3_4 N3_4 1_555 1_555
C7_4 C8_4 1_555 1_555
C15_4 N5_4 1_555 1_555
C16_4 N5_4 1_555 1_555
N1_4 N2_4 1_555 1_555
N6_4 N11_2 1_555 1_555
C4_3 H3_3 1_555 1_555
C5_3 C4_3 1_555 1_555
H4_3 C5_3 1_555 1_555
C6_3 C5_3 1_555 1_555
C14_3 C9_3 1_555 1_555
H10_3 C14_3 1_555 1_555
C17_3 C18_3 1_555 1_555
C18_3 H13_3 1_555 1_555
C19_3 C18_3 1_555 1_555
H14_3 C19_3 1_555 1_555
C20_3 C19_3 1_555 1_555
C21_3 C20_3 1_555 1_555
H15_3 C21_3 1_555 1_555
C22_3 C17_3 1_555 1_555
H16_3 C22_3 1_555 1_555
C23_2 H17_2 1_555 1_555
C24_4 H18_4 1_555 1_555
N4_3 C6_3 1_555 1_555
N8_4 C20_3 1_555 1_555
N12_2 C24_4 1_555 1_555
N10_2 C23_2 1_555 1_555
C9_3 N4_3 1_555 1_555
C17_3 N4_3 1_555 1_555
C21_3 C22_3 1_555 1_555
C23_2 N8_4 1_555 1_555
C24_4 N8_4 1_555 1_555
N12_2 N10_2 1_555 1_555
C23_3 H17_3 1_555 1_555
N10_3 C23_3 1_555 1_555
O1_4 H19_4 1_555 1_555
O1_4 H20_4 1_555 1_555
C1_5 H1_5 1_555 1_555
C2_5 H2_4 1_555 1_555
C3_5 C4_4 1_555 1_555
C4_4 H3_4 1_555 1_555
C5_4 C4_4 1_555 1_555
H4_4 C5_4 1_555 1_555
C6_4 C5_4 1_555 1_555
C7_5 C6_4 1_555 1_555
H5_5 C7_5 1_555 1_555
C8_5 C3_5 1_555 1_555
H6_5 C8_5 1_555 1_555
C9_4 C10_5 1_555 1_555
C10_5 H7_5 1_555 1_555
C11_5 C10_5 1_555 1_555
H8_5 C11_5 1_555 1_555
C12_5 C11_5 1_555 1_555
C13_5 C12_5 1_555 1_555
H9_5 C13_5 1_555 1_555
C14_4 C9_4 1_555 1_555
H10_4 C14_4 1_555 1_555
C15_5 H11_5 1_555 1_555
C16_5 H12_5 1_555 1_555
C17_4 C18_4 1_555 1_555
C18_4 H13_4 1_555 1_555
C19_4 C18_4 1_555 1_555
H14_4 C19_4 1_555 1_555
C20_4 C19_4 1_555 1_555
C21_4 C20_4 1_555 1_555
H15_4 C21_4 1_555 1_555
C22_4 C17_4 1_555 1_555
H16_4 C22_4 1_555 1_555
N1_5 C1_5 1_555 1_555
N2_5 C2_5 1_555 1_555
N3_5 C1_5 1_555 1_555
N4_4 C6_4 1_555 1_555
N5_5 C12_5 1_555 1_555
N6_5 C15_5 1_555 1_555
N7_3 C16_5 1_555 1_555
Zn1_2 N1_5 1_555 1_555
N11_3 Zn1_2 1_555 1_555
N12_3 Zn1_2 1_555 1_555
Zn2_2 N7_3 1_555 1_555
C2_5 N3_5 1_555 1_555
C3_5 N3_5 1_555 1_555
C7_5 C8_5 1_555 1_555
C9_4 N4_4 1_555 1_555
C13_5 C14_4 1_555 1_555
C15_5 N5_5 1_555 1_555
C16_5 N5_5 1_555 1_555
C17_4 N4_4 1_555 1_555
C21_4 C22_4 1_555 1_555
N1_5 N2_5 1_555 1_555
N6_5 N7_3 1_555 1_555
C24_5 H18_5 1_555 1_555
N9_3 C24_5 1_555 1_555
Zn3_3 N9_3 1_555 1_555
C24_5 N8_5 1_555 1_555
C4_5 H3_5 1_555 1_555
C5_5 C4_5 1_555 1_555
H4_5 C5_5 1_555 1_555
C6_5 C5_5 1_555 1_555
C14_5 C9_5 1_555 1_555
H10_5 C14_5 1_555 1_555
C17_5 C18_5 1_555 1_555
C18_5 H13_5 1_555 1_555
C19_5 C18_5 1_555 1_555
H14_5 C19_5 1_555 1_555
C20_5 C19_5 1_555 1_555
C21_5 C20_5 1_555 1_555
H15_5 C21_5 1_555 1_555
C22_5 C17_5 1_555 1_555
H16_5 C22_5 1_555 1_555
C23_4 H17_4 1_555 1_555
C24_6 H18_6 1_555 1_555
N4_5 C6_5 1_555 1_555
N8_6 C20_5 1_555 1_555
N9_4 C24_6 1_555 1_555
N10_4 C23_4 1_555 1_555
C9_5 N4_5 1_555 1_555
C17_5 N4_5 1_555 1_555
C21_5 C22_5 1_555 1_555
C23_4 N8_6 1_555 1_555
C24_6 N8_6 1_555 1_555
N9_4 N10_4 1_555 1_555
C1_6 H1_6 1_555 1_555
H5_6 C7_6 1_555 1_555
C8_6 C3_6 1_555 1_555
H6_6 C8_6 1_555 1_555
C10_6 H7_6 1_555 1_555
C11_6 C10_6 1_555 1_555
H8_6 C11_6 1_555 1_555
C12_6 C11_6 1_555 1_555
C13_6 C12_6 1_555 1_555
H9_6 C13_6 1_555 1_555
C15_6 H11_6 1_555 1_555
C16_6 H12_6 1_555 1_555
N1_6 C1_6 1_555 1_555
N2_6 C2_6 1_555 1_555
N3_6 C1_6 1_555 1_555
N5_6 C12_6 1_555 1_555
N6_6 C15_6 1_555 1_555
N11_3 C16_6 1_555 1_555
C2_6 N3_6 1_555 1_555
C3_6 N3_6 1_555 1_555
C7_6 C8_6 1_555 1_555
C15_6 N5_6 1_555 1_555
C16_6 N5_6 1_555 1_555
N1_6 N2_6 1_555 1_555
N6_6 N11_3 1_555 1_555
O1_5 Zn2_2 1_555 1_555
O1_5 H19_5 1_555 1_555
O1_5 H20_5 1_555 1_555
C1_7 H1_7 1_555 1_555
C2_7 H2_6 1_555 1_555
C3_7 C4_6 1_555 1_555
C4_6 H3_6 1_555 1_555
C5_6 C4_6 1_555 1_555
H4_6 C5_6 1_555 1_555
C6_6 C5_6 1_555 1_555
C7_7 C6_6 1_555 1_555
H5_7 C7_7 1_555 1_555
C8_7 C3_7 1_555 1_555
H6_7 C8_7 1_555 1_555
C9_6 C10_7 1_555 1_555
C10_7 H7_7 1_555 1_555
C11_7 C10_7 1_555 1_555
H8_7 C11_7 1_555 1_555
C12_7 C11_7 1_555 1_555
C13_7 C12_7 1_555 1_555
H9_7 C13_7 1_555 1_555
C14_6 C9_6 1_555 1_555
H10_6 C14_6 1_555 1_555
C15_7 H11_7 1_555 1_555
C16_7 H12_7 1_555 1_555
C17_6 C18_6 1_555 1_555
C18_6 H13_6 1_555 1_555
C19_6 C18_6 1_555 1_555
H14_6 C19_6 1_555 1_555
C20_6 C19_6 1_555 1_555
C21_6 C20_6 1_555 1_555
H15_6 C21_6 1_555 1_555
C22_6 C17_6 1_555 1_555
H16_6 C22_6 1_555 1_555
C24_7 H18_7 1_555 1_555
N1_7 C1_7 1_555 1_555
N2_7 C2_7 1_555 1_555
N3_7 C1_7 1_555 1_555
N4_6 C6_6 1_555 1_555
N5_7 C12_7 1_555 1_555
N6_7 C15_7 1_555 1_555
N7_4 C16_7 1_555 1_555
N8_7 C20_6 1_555 1_555
N12_3 C24_7 1_555 1_555
Zn3_3 N1_7 1_555 1_555
N11_4 Zn3_3 1_555 1_555
Zn3_4 N7_4 1_555 1_555
C2_7 N3_7 1_555 1_555
C3_7 N3_7 1_555 1_555
C7_7 C8_7 1_555 1_555
C9_6 N4_6 1_555 1_555
C13_7 C14_6 1_555 1_555
C15_7 N5_7 1_555 1_555
C16_7 N5_7 1_555 1_555
C17_6 N4_6 1_555 1_555
C21_6 C22_6 1_555 1_555
C24_7 N8_7 1_555 1_555
N1_7 N2_7 1_555 1_555
N6_7 N7_4 1_555 1_555
C23_5 H17_5 1_555 1_555
C24_8 H18_8 1_555 1_555
N12_4 C24_8 1_555 1_555
N10_5 C23_5 1_555 1_555
C23_5 N8_8 1_555 1_555
C24_8 N8_8 1_555 1_555
N12_4 N10_5 1_555 1_555
C1_8 H1_8 1_555 1_555
H5_8 C7_8 1_555 1_555
C8_8 C3_8 1_555 1_555
H6_8 C8_8 1_555 1_555
C10_8 H7_8 1_555 1_555
C11_8 C10_8 1_555 1_555
H8_8 C11_8 1_555 1_555
C12_8 C11_8 1_555 1_555
C13_8 C12_8 1_555 1_555
H9_8 C13_8 1_555 1_555
C15_8 H11_8 1_555 1_555
C16_8 H12_8 1_555 1_555
N1_8 C1_8 1_555 1_555
N2_8 C2_8 1_555 1_555
N3_8 C1_8 1_555 1_555
N5_8 C12_8 1_555 1_555
N6_8 C15_8 1_555 1_555
N11_4 C16_8 1_555 1_555
C2_8 N3_8 1_555 1_555
C3_8 N3_8 1_555 1_555
C7_8 C8_8 1_555 1_555
C15_8 N5_8 1_555 1_555
C16_8 N5_8 1_555 1_555
N1_8 N2_8 1_555 1_555
N6_8 N11_4 1_555 1_555
O1_6 Zn3_4 1_555 1_555
O1_6 H19_6 1_555 1_555
O1_6 H20_6 1_555 1_555
C23_6 H17_6 1_555 1_555
N10_6 C23_6 1_555 1_555
C4_7 H3_7 1_555 1_555
C5_7 C4_7 1_555 1_555
H4_7 C5_7 1_555 1_555
C6_7 C5_7 1_555 1_555
C14_7 C9_7 1_555 1_555
H10_7 C14_7 1_555 1_555
C17_7 C18_7 1_555 1_555
C18_7 H13_7 1_555 1_555
C19_7 C18_7 1_555 1_555
H14_7 C19_7 1_555 1_555
C20_7 C19_7 1_555 1_555
C21_7 C20_7 1_555 1_555
H15_7 C21_7 1_555 1_555
C22_7 C17_7 1_555 1_555
H16_7 C22_7 1_555 1_555
N4_7 C6_7 1_555 1_555
C9_7 N4_7 1_555 1_555
C17_7 N4_7 1_555 1_555
C21_7 C22_7 1_555 1_555
C23_7 H17_7 1_555 1_555
N10_7 C23_7 1_555 1_555
O1_7 H19_7 1_555 1_555
O1_7 H20_7 1_555 1_555
C23_8 H17_8 1_555 1_555
N10_8 C23_8 1_555 1_555
O1_8 H19_8 1_555 1_555
O1_8 H20_8 1_555 1_555
C4_8 H3_8 1_555 1_555
C5_8 C4_8 1_555 1_555
H4_8 C5_8 1_555 1_555
C6_8 C5_8 1_555 1_555
C14_8 C9_8 1_555 1_555
H10_8 C14_8 1_555 1_555
C17_8 C18_8 1_555 1_555
C18_8 H13_8 1_555 1_555
C19_8 C18_8 1_555 1_555
H14_8 C19_8 1_555 1_555
C20_8 C19_8 1_555 1_555
C21_8 C20_8 1_555 1_555
H15_8 C21_8 1_555 1_555
C22_8 C17_8 1_555 1_555
H16_8 C22_8 1_555 1_555
N4_8 C6_8 1_555 1_555
C9_8 N4_8 1_555 1_555
C17_8 N4_8 1_555 1_555
C21_8 C22_8 1_555 1_555

#END
