
###############################################################################
#
# This file contains modified crystal structure data generated from the
# MOF subset of the Cambridge Structural Database (CSD) v543 
# hosted by the Cambridge Crystallographic Data Centre (CCDC).
#
# This work is licensed under the Creative Commons
# Attribution-NonCommercial-ShareAlike 4.0 International License.
# To view a copy of this license, visit
# http://creativecommons.org/licenses/by-nc-sa/4.0/
# or send a letter to
# Creative Commons, PO Box 1866, Mountain View, CA 94042, USA.
#
# CIF created using the CSD Python API on 29 September 2022
# The structure has been converted into the P1 space group
# The structure has a 3D framework
# The original CSD entry ROLKUB is in the monoclinic crystal system
# The framework has been calculated to contain at least 10.0% void space
# The void calculation uses a probe of radius 1.32A, grid spacing 0.4
# H atom positions have been added when not included in the experimental data
#
###############################################################################

data_ROLKUB
_chemical_formula_moiety         '(C168 H112 Gd8 N24 O54)n'
_symmetry_cell_setting           triclinic
_symmetry_space_group_name_H-M   'P 1'
_symmetry_Int_Tables_number      1
_space_group_name_Hall           'P 1'
loop_
_symmetry_equiv_pos_site_id
_symmetry_equiv_pos_as_xyz
1 x,y,z
_cell_length_a                   30.479(7)
_cell_length_b                   14.746(3)
_cell_length_c                   16.850(3)
_cell_angle_alpha                90
_cell_angle_beta                 101.343(4)
_cell_angle_gamma                90
_cell_volume                     7425.2
loop_
_atom_site_label
_atom_site_type_symbol
_atom_site_fract_x
_atom_site_fract_y
_atom_site_fract_z
_atom_site_U_iso_or_equiv
_atom_site_thermal_displace_type
Gd6 Gd 0.74196(4) 0.07189(11) 0.49019(7) 0.0609 Uani
C8 C 0.3091(12) 0.631(2) 0.517(2) 0.0750 Uiso
C9 C 0.3563(7) 0.6587(17) 0.5262(16) 0.0780 Uiso
C10 C 0.3882(9) 0.6559(19) 0.5975(13) 0.1350 Uiso
H5 H 0.3807 0.6333 0.6446 0.1620 Uiso
C11 C 0.4314(8) 0.6870(19) 0.5985(15) 0.0930 Uiso
H6 H 0.4527 0.6852 0.6462 0.1120 Uiso
C12 C 0.4426(8) 0.721(2) 0.5281(19) 0.1180 Uiso
C13 C 0.4107(11) 0.724(2) 0.4568(15) 0.1700 Uiso
H7 H 0.4182 0.7462 0.4097 0.2060 Uiso
C14 C 0.3675(9) 0.693(2) 0.4558(13) 0.1160 Uiso
H8 H 0.3462 0.6944 0.4081 0.1400 Uiso
C15 C 0.6701(10) 0.9233(18) 0.5092(18) 0.0570 Uiso
C16 C 0.6315(8) 0.861(2) 0.495(2) 0.1160 Uiso
C17 C 0.5974(10) 0.8801(18) 0.4288(17) 0.1020 Uiso
H9 H 0.6025 0.9195 0.3886 0.1230 Uiso
C18 C 0.5556(9) 0.840(2) 0.4232(16) 0.1110 Uiso
H10 H 0.5328 0.8526 0.3792 0.1330 Uiso
C19 C 0.5479(10) 0.781(2) 0.483(2) 0.1060 Uiso
C20 C 0.5820(13) 0.762(2) 0.5491(19) 0.3000 Uiso
H11 H 0.5769 0.7225 0.5893 0.3620 Uiso
C21 C 0.6238(11) 0.802(3) 0.5547(19) 0.1800 Uiso
H12 H 0.6466 0.7895 0.5987 0.2120 Uiso
C22 C 0.1662(8) 0.3784(17) 0.6463(14) 0.0560 Uiso
C23 C 0.1164(7) 0.3648(17) 0.6406(16) 0.0750 Uiso
C24 C 0.0792(9) 0.3915(18) 0.5836(14) 0.1340 Uiso
H13 H 0.0829 0.4260 0.5392 0.1600 Uiso
C25 C 0.0365(8) 0.367(2) 0.5929(16) 0.1160 Uiso
H14 H 0.0117 0.3846 0.5548 0.1390 Uiso
C26 C 0.0310(7) 0.315(2) 0.6593(19) 0.1230 Uiso
C27 C 0.0681(10) 0.2884(18) 0.7163(15) 0.1090 Uiso
H15 H 0.0644 0.2539 0.7608 0.1310 Uiso
C28 C 0.1108(8) 0.3133(18) 0.7070(14) 0.1270 Uiso
H16 H 0.1357 0.2954 0.7451 0.1520 Uiso
C50 C 0.1755(10) 0.467(3) 0.3483(19) 0.0950 Uiso
C51 C 0.1343(7) 0.4002(17) 0.3263(16) 0.0750 Uiso
C52 C 0.1044(10) 0.389(2) 0.2532(13) 0.1600 Uiso
H29 H 0.1118 0.4092 0.2054 0.1870 Uiso
C53 C 0.0633(9) 0.347(2) 0.2517(13) 0.1560 Uiso
H30 H 0.0433 0.3395 0.2028 0.1870 Uiso
C54 C 0.0522(7) 0.3166(18) 0.3233(16) 0.0980 Uiso
C55 C 0.0821(8) 0.3279(16) 0.3963(13) 0.0800 Uiso
H31 H 0.0746 0.3076 0.4442 0.0960 Uiso
C56 C 0.1231(7) 0.3697(17) 0.3979(12) 0.1060 Uiso
H32 H 0.1431 0.3773 0.4467 0.1270 Uiso
N1 N 0.497(2) 0.705(4) 0.540(4) 0.2000 Uiso
Gd2 Gd 0.24042(6) 0.48374(9) 0.54905(10) 0.0665 Uiso
N2 N 0.5019(12) 0.734(2) 0.471(2) 0.1080 Uiso
N6 N 0.0083(10) 0.2658(17) 0.3070(16) 0.0790 Uiso
O13 O 0.1947(12) 0.463(2) 0.4245(17) 0.1420 Uiso
O14 O 0.1933(13) 0.498(3) 0.2971(18) 0.1490 Uiso
O15 O 0.1923(8) 0.3482(16) 0.7035(13) 0.0870 Uiso
O16 O 0.1694(7) 0.4376(13) 0.5908(12) 0.0690 Uiso
O19 O 0.2968(7) 0.5995(13) 0.5709(12) 0.0650 Uiso
O20 O 0.2812(7) 0.6299(13) 0.4502(12) 0.0700 Uiso
O21 O 0.6764(10) 0.970(2) 0.4504(19) 0.1100 Uiso
O24 O 0.7056(10) 0.9278(17) 0.5688(16) 0.1010 Uiso
O28 O 0.2903(8) 0.4322(14) 0.4656(14) 0.0780 Uiso
Gd11 Gd 0.23825(6) 0.61722(11) 0.32512(10) 0.0733 Uani
Gd12 Gd 0.23825(6) 0.38278(11) 0.82512(10) 0.0733 Uani
Gd15 Gd 0.74070(4) 0.92606(10) 0.71251(7) 0.0581 Uani
O35 O 0.1895(5) 0.6118(10) 0.5243(9) 0.0420 Uiso
O38 O 0.2963(12) 0.431(2) 0.668(2) 0.1390 Uiso
H55 H 0.289635 0.475212 0.420035 . .
H56 H 0.32116 0.428804 0.498227 . .
O1 O 0.307(4) 0.496(10) 0.420(3) 0.8500 Uiso
C29 C 0.8137(9) 0.0744(15) 0.6870(15) 0.0450 Uiso
C30 C 0.8541(6) 0.1214(14) 0.7017(13) 0.0730 Uiso
C31 C 0.8870(7) 0.1074(14) 0.7705(11) 0.0870 Uiso
H17 H 0.8811 0.0708 0.8121 0.1040 Uiso
C32 C 0.9287(7) 0.1481(17) 0.7771(12) 0.0900 Uiso
H18 H 0.9507 0.1387 0.8231 0.1070 Uiso
C33 C 0.9375(6) 0.2028(17) 0.7149(16) 0.0950 Uiso
C34 C 0.9046(8) 0.2168(16) 0.6461(13) 0.1510 Uiso
H19 H 0.9106 0.2534 0.6045 0.1810 Uiso
C35 C 0.8629(7) 0.1761(15) 0.6395(11) 0.0710 Uiso
H20 H 0.8410 0.1855 0.5935 0.0850 Uiso
C36 C 0.1703(7) 0.6466(15) 0.4689(13) 0.0410 Uiso
C37 C 0.1193(6) 0.6810(15) 0.4734(14) 0.0600 Uiso
C38 C 0.0959(7) 0.6406(14) 0.5270(14) 0.1370 Uiso
H21 H 0.1080 0.5908 0.5575 0.1640 Uiso
C39 C 0.0545(7) 0.6747(16) 0.5351(14) 0.0970 Uiso
H22 H 0.0389 0.6477 0.5711 0.1160 Uiso
C40 C 0.0364(6) 0.7491(15) 0.4896(13) 0.0650 Uiso
C41 C 0.0598(8) 0.7895(14) 0.4359(14) 0.1110 Uiso
H23 H 0.0477 0.8393 0.4054 0.1330 Uiso
C42 C 0.1012(7) 0.7554(16) 0.4278(14) 0.1380 Uiso
H24 H 0.1168 0.7824 0.3919 0.1650 Uiso
C43 C 0.8163(7) 0.1423(14) 0.3763(12) 0.0370 Uiso
C44 C 0.8647(5) 0.1631(14) 0.3732(11) 0.0640 Uiso
C45 C 0.8978(6) 0.1503(14) 0.4417(9) 0.0780 Uiso
H25 H 0.8907 0.1249 0.4881 0.0940 Uiso
C46 C 0.9417(6) 0.1756(14) 0.4410(10) 0.0750 Uiso
H26 H 0.9639 0.1671 0.4868 0.0900 Uiso
C47 C 0.9524(5) 0.2137(15) 0.3717(13) 0.0730 Uiso
C48 C 0.9192(7) 0.2264(15) 0.3032(10) 0.1040 Uiso
H27 H 0.9263 0.2518 0.2568 0.1250 Uiso
C49 C 0.8753(6) 0.2011(14) 0.3039(9) 0.0700 Uiso
H28 H 0.8531 0.2096 0.2581 0.0840 Uiso
C70 C 0.6603(9) 0.1536(17) 0.3224(15) 0.0520 Uiso
C71 C 0.6172(10) 0.174(2) 0.319(2) 0.1410 Uiso
C72 C 0.5834(13) 0.175(2) 0.2499(17) 0.1180 Uiso
H41 H 0.5887 0.1523 0.2013 0.1420 Uiso
C73 C 0.5417(11) 0.211(3) 0.254(2) 0.1700 Uiso
H42 H 0.5191 0.2119 0.2080 0.2000 Uiso
C74 C 0.5338(12) 0.246(3) 0.327(3) 0.2300 Uiso
C75 C 0.5676(17) 0.245(3) 0.395(2) 0.1800 Uiso
H43 H 0.5623 0.2679 0.4438 0.2130 Uiso
C76 C 0.6093(14) 0.209(3) 0.3912(18) 0.1390 Uiso
H44 H 0.6320 0.2083 0.4371 0.1670 Uiso
C77 C 0.3083(13) 0.471(3) 0.352(2) 0.1150 Uiso
C78 C 0.357(2) 0.384(5) 0.301(4) 0.2900 Uiso
H45 H 0.3394 0.4038 0.2523 0.3520 Uiso
C79 C 0.3422(16) 0.401(4) 0.373(5) 0.2500 Uiso
C80 C 0.368(2) 0.372(4) 0.446(4) 0.4700 Uiso
H46 H 0.3582 0.3830 0.4944 0.5670 Uiso
C81 C 0.4079(16) 0.326(3) 0.447(3) 0.1800 Uiso
H47 H 0.4250 0.3069 0.4962 0.2200 Uiso
C82 C 0.4223(14) 0.310(3) 0.375(3) 0.1490 Uiso
C83 C 0.397(2) 0.339(5) 0.302(3) 1.4000 Uiso
H48 H 0.4062 0.3277 0.2541 1.6410 Uiso
Gd4 Gd 0.74070(4) 0.07394(10) 0.21251(7) 0.0581 Uani
N3 N 0.9883(11) 0.271(2) 0.6606(19) 0.0900 Uiso
N4 N 0.9893(12) 0.216(2) 0.713(2) 0.1100 Uiso
N5 N 0.9990(10) 0.2508(19) 0.3838(18) 0.0840 Uiso
N9 N 0.4907(19) 0.273(4) 0.312(3) 0.1750 Uiso
N10 N 0.4725(10) 0.287(2) 0.3803(18) 0.0870 Uiso
O5 O 0.2785(14) 0.497(2) 0.290(2) 0.2100 Uiso
O7 O 0.6908(7) 0.1425(14) 0.3854(12) 0.0740 Uiso
O8 O 0.6690(11) 0.101(2) 0.2584(19) 0.1140 Uiso
O9 O 0.7853(8) 0.0687(15) 0.6235(14) 0.0830 Uiso
O10 O 0.8045(7) 0.0294(13) 0.7476(12) 0.0670 Uiso
O11 O 0.8070(9) 0.1165(18) 0.4422(16) 0.0990 Uiso
O12 O 0.7895(9) 0.1541(17) 0.3075(14) 0.0930 Uiso
O17 O 0.1773(9) 0.6652(17) 0.3929(15) 0.0970 Uiso
O22 O 0.2482(7) 0.7811(12) 0.3358(12) 0.0680 Uiso
O26 O 0.744(2) 0.187(4) 0.514(4) 0.2600 Uiso
O27 O 0.726(4) 0.2259(18) 0.191(7) 0.4300 Uiso
O30 O 0.7920(8) 0.1310(16) 0.1282(14) 0.0870 Uiso
O31 O 0.6882(6) 0.1278(12) 0.5636(11) 0.0560 Uiso
O34 O 0.1923(8) 0.6518(16) 0.2035(13) 0.0870 Uiso
O40 O 0.7056(10) 0.0722(17) 0.0688(16) 0.1010 Uiso
O41 O 0.2935(11) 0.669(2) 0.2604(19) 0.1280 Uiso
H49 H 0.250781 0.8062 0.282225 . .
H50 H 0.222029 0.808728 0.353581 . .
H51 H 0.70337 0.245488 0.222551 . .
H52 H 0.753981 0.261134 0.208669 . .
H53 H 0.713901 0.207745 0.520435 . .
H54 H 0.765806 0.197042 0.565348 . .
O4 O 0.6882(6) 0.8722(12) 0.0636(11) 0.0560 Uiso
C57 C 0.6757(9) 0.8980(18) 0.1357(16) 0.0530 Uiso
C58 C 0.6319(7) 0.8547(16) 0.1395(15) 0.0810 Uiso
C59 C 0.6104(9) 0.9007(15) 0.1928(15) 0.0960 Uiso
H33 H 0.6230 0.9532 0.2182 0.1160 Uiso
C60 C 0.5701(9) 0.8683(19) 0.2082(16) 0.1390 Uiso
H34 H 0.5557 0.8991 0.2439 0.1670 Uiso
C61 C 0.5513(7) 0.790(2) 0.1702(18) 0.1020 Uiso
C62 C 0.5728(9) 0.7438(16) 0.1169(17) 0.1350 Uiso
H35 H 0.5602 0.6913 0.0914 0.1620 Uiso
C63 C 0.6131(9) 0.7762(16) 0.1015(15) 0.1040 Uiso
H36 H 0.6276 0.7454 0.0658 0.1250 Uiso
C64 C 0.4491(10) 0.704(3) 0.190(2) 0.1220 Uiso
C65 C 0.4307(11) 0.620(3) 0.165(2) 0.1800 Uiso
H37 H 0.4475 0.5770 0.1431 0.2110 Uiso
C66 C 0.3873(12) 0.599(2) 0.173(2) 0.1400 Uiso
H38 H 0.3750 0.5430 0.1565 0.1680 Uiso
C67 C 0.3623(9) 0.663(2) 0.206(2) 0.0950 Uiso
C68 C 0.3807(14) 0.747(2) 0.230(3) 0.4800 Uiso
H39 H 0.3639 0.7896 0.2520 0.5780 Uiso
C69 C 0.4241(15) 0.767(2) 0.222(3) 0.3900 Uiso
H40 H 0.4364 0.8236 0.2387 0.4620 Uiso
N7 N 0.526(2) 0.708(3) 0.177(5) 0.2900 Uiso
N8 N 0.4924(14) 0.747(4) 0.186(4) 0.2100 Uiso
O6 O 0.7001(7) 0.9360(12) 0.1931(12) 0.0650 Uiso
O23 O 0.2963(12) 0.569(2) 0.168(2) 0.1390 Uiso
C84 C 0.3174(10) 0.630(2) 0.2028(18) 0.0660 Uiso
O29 O 0.7848(9) 0.9345(16) 0.5089(15) 0.0860 Uiso
Gd9 Gd 0.24042(6) 0.51626(9) 0.04905(10) 0.0665 Uiso
O32 O 0.8045(7) 0.9706(13) 0.2476(12) 0.0670 Uiso
Gd7 Gd 0.74196(4) 0.92811(11) 0.99019(7) 0.0609 Uani
C1 C 0.8707(10) 0.8934(17) 0.5093(17) 0.1030 Uiso
H1 H 0.8591 0.9466 0.4838 0.1240 Uiso
C2 C 0.9127(10) 0.863(3) 0.501(2) 0.1490 Uiso
H2 H 0.9292 0.8958 0.4699 0.1790 Uiso
C3 C 0.9301(9) 0.784(3) 0.539(3) 0.2300 Uiso
C4 C 0.9054(13) 0.735(2) 0.586(3) 0.2600 Uiso
H3 H 0.9171 0.6814 0.6111 0.3130 Uiso
C5 C 0.8634(11) 0.7649(18) 0.5939(17) 0.1160 Uiso
H4 H 0.8469 0.7321 0.6250 0.1390 Uiso
C6 C 0.8460(7) 0.8443(18) 0.5557(16) 0.0860 Uiso
C7 C 0.8022(7) 0.8800(19) 0.5616(18) 0.0620 Uiso
O3 O 0.7920(8) 0.8690(16) 0.6282(14) 0.0870 Uiso
N11 N 0.9915(7) 0.782(2) 0.491(2) 0.1070 Uiso
N12 N 0.9679(13) 0.727(3) 0.531(3) 0.1690 Uiso
C8_2 C 0.3091(12) 0.369(2) 0.017(2) 0.0750 Uiso
C9_2 C 0.3563(7) 0.3413(17) 0.0262(16) 0.0780 Uiso
C10_2 C 0.3882(9) 0.3441(19) 0.0975(13) 0.1350 Uiso
H5_2 H 0.3807 0.3667 0.1446 0.1620 Uiso
C11_2 C 0.4314(8) 0.3130(19) 0.0985(15) 0.0930 Uiso
H6_2 H 0.4527 0.3148 0.1462 0.1120 Uiso
C12_2 C 0.4426(8) 0.279(2) 0.0281(19) 0.1180 Uiso
C15_2 C 0.6701(10) 0.0767(18) 0.0092(18) 0.0570 Uiso
C20_2 C 0.5820(13) 0.238(2) 0.0491(19) 0.3000 Uiso
H11_2 H 0.5769 0.2775 0.0893 0.3620 Uiso
C21_2 C 0.6238(11) 0.198(3) 0.0547(19) 0.1800 Uiso
H12_2 H 0.6466 0.2105 0.0987 0.2120 Uiso
C22_2 C 0.1662(8) 0.6216(17) 0.1463(14) 0.0560 Uiso
C23_2 C 0.1164(7) 0.6352(17) 0.1406(16) 0.0750 Uiso
C24_2 C 0.0792(9) 0.6085(18) 0.0836(14) 0.1340 Uiso
H13_2 H 0.0829 0.5740 0.0392 0.1600 Uiso
C25_2 C 0.0365(8) 0.633(2) 0.0929(16) 0.1160 Uiso
H14_2 H 0.0117 0.6154 0.0548 0.1390 Uiso
C26_2 C 0.0310(7) 0.685(2) 0.1593(19) 0.1230 Uiso
C27_2 C 0.0681(10) 0.7116(18) 0.2163(15) 0.1090 Uiso
H15_2 H 0.0644 0.7461 0.2608 0.1310 Uiso
C28_2 C 0.1108(8) 0.6867(18) 0.2070(14) 0.1270 Uiso
H16_2 H 0.1357 0.7046 0.2451 0.1520 Uiso
N1_2 N 0.497(2) 0.295(4) 0.040(4) 0.2000 Uiso
O16_2 O 0.1694(7) 0.5624(13) 0.0908(12) 0.0690 Uiso
O19_2 O 0.2968(7) 0.4005(13) 0.0709(12) 0.0650 Uiso
O35_2 O 0.1895(5) 0.3882(10) 0.0243(9) 0.0420 Uiso
C13_2 C 0.4107(11) 0.276(2) 0.9568(15) 0.1700 Uiso
H7_2 H 0.4182 0.2538 0.9097 0.2060 Uiso
C14_2 C 0.3675(9) 0.307(2) 0.9558(13) 0.1160 Uiso
H8_2 H 0.3462 0.3056 0.9081 0.1400 Uiso
C16_2 C 0.6315(8) 0.139(2) 0.995(2) 0.1160 Uiso
C17_2 C 0.5974(10) 0.1199(18) 0.9288(17) 0.1020 Uiso
H9_2 H 0.6025 0.0805 0.8886 0.1230 Uiso
C18_2 C 0.5556(9) 0.160(2) 0.9232(16) 0.1110 Uiso
H10_2 H 0.5328 0.1474 0.8792 0.1330 Uiso
C19_2 C 0.5479(10) 0.219(2) 0.983(2) 0.1060 Uiso
C50_2 C 0.1755(10) 0.533(3) 0.8483(19) 0.0950 Uiso
C51_2 C 0.1343(7) 0.5998(17) 0.8263(16) 0.0750 Uiso
C52_2 C 0.1044(10) 0.611(2) 0.7532(13) 0.1600 Uiso
H29_2 H 0.1118 0.5908 0.7054 0.1870 Uiso
C53_2 C 0.0633(9) 0.653(2) 0.7517(13) 0.1560 Uiso
H30_2 H 0.0433 0.6605 0.7028 0.1870 Uiso
C54_2 C 0.0522(7) 0.6834(18) 0.8233(16) 0.0980 Uiso
C55_2 C 0.0821(8) 0.6721(16) 0.8963(13) 0.0800 Uiso
H31_2 H 0.0746 0.6924 0.9442 0.0960 Uiso
C56_2 C 0.1231(7) 0.6303(17) 0.8979(12) 0.1060 Uiso
H32_2 H 0.1431 0.6227 0.9467 0.1270 Uiso
N2_2 N 0.5019(12) 0.266(2) 0.971(2) 0.1080 Uiso
N6_2 N 0.0083(10) 0.7342(17) 0.8070(16) 0.0790 Uiso
O13_2 O 0.1947(12) 0.537(2) 0.9245(17) 0.1420 Uiso
O14_2 O 0.1933(13) 0.502(3) 0.7971(18) 0.1490 Uiso
O20_2 O 0.2812(7) 0.3701(13) 0.9502(12) 0.0700 Uiso
O21_2 O 0.6764(10) 0.030(2) 0.9504(19) 0.1100 Uiso
O28_2 O 0.2903(8) 0.5678(14) 0.9656(14) 0.0780 Uiso
H55_2 H 0.289635 0.524788 0.920035 . .
H56_2 H 0.32116 0.571196 0.998227 . .
O29_2 O 0.7848(9) 0.0655(16) 0.0089(15) 0.0860 Uiso
C57_2 C 0.6757(9) 0.1020(18) 0.6357(16) 0.0530 Uiso
C58_2 C 0.6319(7) 0.1453(16) 0.6395(15) 0.0810 Uiso
C59_2 C 0.6104(9) 0.0993(15) 0.6928(15) 0.0960 Uiso
H33_2 H 0.6230 0.0468 0.7182 0.1160 Uiso
C60_2 C 0.5701(9) 0.1317(19) 0.7082(16) 0.1390 Uiso
H34_2 H 0.5557 0.1009 0.7439 0.1670 Uiso
C61_2 C 0.5513(7) 0.210(2) 0.6702(18) 0.1020 Uiso
C62_2 C 0.5728(9) 0.2562(16) 0.6169(17) 0.1350 Uiso
H35_2 H 0.5602 0.3087 0.5914 0.1620 Uiso
C63_2 C 0.6131(9) 0.2238(16) 0.6015(15) 0.1040 Uiso
H36_2 H 0.6276 0.2546 0.5658 0.1250 Uiso
C64_2 C 0.4491(10) 0.296(3) 0.690(2) 0.1220 Uiso
C65_2 C 0.4307(11) 0.380(3) 0.665(2) 0.1800 Uiso
H37_2 H 0.4475 0.4230 0.6431 0.2110 Uiso
C66_2 C 0.3873(12) 0.401(2) 0.673(2) 0.1400 Uiso
H38_2 H 0.3750 0.4570 0.6565 0.1680 Uiso
C67_2 C 0.3623(9) 0.337(2) 0.706(2) 0.0950 Uiso
C68_2 C 0.3807(14) 0.253(2) 0.730(3) 0.4800 Uiso
H39_2 H 0.3639 0.2104 0.7520 0.5780 Uiso
C69_2 C 0.4241(15) 0.233(2) 0.722(3) 0.3900 Uiso
H40_2 H 0.4364 0.1764 0.7387 0.4620 Uiso
N7_2 N 0.526(2) 0.292(3) 0.677(5) 0.2900 Uiso
N8_2 N 0.4924(14) 0.253(4) 0.686(4) 0.2100 Uiso
O6_2 O 0.7001(7) 0.0640(12) 0.6931(12) 0.0650 Uiso
C84_2 C 0.3174(10) 0.370(2) 0.7028(18) 0.0660 Uiso
O25 O 0.2935(11) 0.331(2) 0.7604(19) 0.1280 Uiso
C29_2 C 0.8137(9) 0.9256(15) 0.1870(15) 0.0450 Uiso
C30_2 C 0.8541(6) 0.8786(14) 0.2017(13) 0.0730 Uiso
C31_2 C 0.8870(7) 0.8926(14) 0.2705(11) 0.0870 Uiso
H17_2 H 0.8811 0.9292 0.3121 0.1040 Uiso
C32_2 C 0.9287(7) 0.8519(17) 0.2771(12) 0.0900 Uiso
H18_2 H 0.9507 0.8613 0.3231 0.1070 Uiso
C33_2 C 0.9375(6) 0.7972(17) 0.2149(16) 0.0950 Uiso
C34_2 C 0.9046(8) 0.7832(16) 0.1461(13) 0.1510 Uiso
H19_2 H 0.9106 0.7466 0.1045 0.1810 Uiso
C35_2 C 0.8629(7) 0.8239(15) 0.1395(11) 0.0710 Uiso
H20_2 H 0.8410 0.8145 0.0935 0.0850 Uiso
C38_2 C 0.0959(7) 0.3594(14) 0.0270(14) 0.1370 Uiso
H21_2 H 0.1080 0.4092 0.0575 0.1640 Uiso
C39_2 C 0.0545(7) 0.3253(16) 0.0351(14) 0.0970 Uiso
H22_2 H 0.0389 0.3523 0.0711 0.1160 Uiso
N3_2 N 0.9883(11) 0.729(2) 0.1606(19) 0.0900 Uiso
N4_2 N 0.9893(12) 0.784(2) 0.213(2) 0.1100 Uiso
O9_2 O 0.7853(8) 0.9313(15) 0.1235(14) 0.0830 Uiso
O26_2 O 0.744(2) 0.813(4) 0.014(4) 0.2600 Uiso
H53_2 H 0.713901 0.792255 0.0204348 . .
H54_2 H 0.765806 0.802958 0.0653476 . .
O1_2 O 0.307(4) 0.504(10) 0.920(3) 0.8500 Uiso
C36_2 C 0.1703(7) 0.3534(15) 0.9689(13) 0.0410 Uiso
C37_2 C 0.1193(6) 0.3190(15) 0.9734(14) 0.0600 Uiso
C40_2 C 0.0364(6) 0.2509(15) 0.9896(13) 0.0650 Uiso
C41_2 C 0.0598(8) 0.2105(14) 0.9359(14) 0.1110 Uiso
H23_2 H 0.0477 0.1607 0.9054 0.1330 Uiso
C42_2 C 0.1012(7) 0.2446(16) 0.9278(14) 0.1380 Uiso
H24_2 H 0.1168 0.2176 0.8919 0.1650 Uiso
C43_2 C 0.8163(7) 0.8577(14) 0.8763(12) 0.0370 Uiso
C44_2 C 0.8647(5) 0.8369(14) 0.8732(11) 0.0640 Uiso
C45_2 C 0.8978(6) 0.8497(14) 0.9417(9) 0.0780 Uiso
H25_2 H 0.8907 0.8751 0.9881 0.0940 Uiso
C46_2 C 0.9417(6) 0.8244(14) 0.9410(10) 0.0750 Uiso
H26_2 H 0.9639 0.8329 0.9868 0.0900 Uiso
C47_2 C 0.9524(5) 0.7863(15) 0.8717(13) 0.0730 Uiso
C48_2 C 0.9192(7) 0.7736(15) 0.8032(10) 0.1040 Uiso
H27_2 H 0.9263 0.7482 0.7568 0.1250 Uiso
C49_2 C 0.8753(6) 0.7989(14) 0.8039(9) 0.0700 Uiso
H28_2 H 0.8531 0.7904 0.7581 0.0840 Uiso
C70_2 C 0.6603(9) 0.8464(17) 0.8224(15) 0.0520 Uiso
C71_2 C 0.6172(10) 0.826(2) 0.819(2) 0.1410 Uiso
C72_2 C 0.5834(13) 0.825(2) 0.7499(17) 0.1180 Uiso
H41_2 H 0.5887 0.8477 0.7013 0.1420 Uiso
C73_2 C 0.5417(11) 0.789(3) 0.754(2) 0.1700 Uiso
H42_2 H 0.5191 0.7881 0.7080 0.2000 Uiso
C74_2 C 0.5338(12) 0.754(3) 0.827(3) 0.2300 Uiso
C75_2 C 0.5676(17) 0.755(3) 0.895(2) 0.1800 Uiso
H43_2 H 0.5623 0.7321 0.9438 0.2130 Uiso
C76_2 C 0.6093(14) 0.791(3) 0.8912(18) 0.1390 Uiso
H44_2 H 0.6320 0.7917 0.9371 0.1670 Uiso
C77_2 C 0.3083(13) 0.529(3) 0.852(2) 0.1150 Uiso
C78_2 C 0.357(2) 0.616(5) 0.801(4) 0.2900 Uiso
H45_2 H 0.3394 0.5962 0.7523 0.3520 Uiso
C79_2 C 0.3422(16) 0.599(4) 0.873(5) 0.2500 Uiso
C80_2 C 0.368(2) 0.628(4) 0.946(4) 0.4700 Uiso
H46_2 H 0.3582 0.6170 0.9944 0.5670 Uiso
C81_2 C 0.4079(16) 0.674(3) 0.947(3) 0.1800 Uiso
H47_2 H 0.4250 0.6931 0.9962 0.2200 Uiso
C82_2 C 0.4223(14) 0.690(3) 0.875(3) 0.1490 Uiso
C83_2 C 0.397(2) 0.661(5) 0.802(3) 1.4000 Uiso
H48_2 H 0.4062 0.6723 0.7541 1.6410 Uiso
N5_2 N 0.9990(10) 0.7492(19) 0.8838(18) 0.0840 Uiso
N9_2 N 0.4907(19) 0.727(4) 0.812(3) 0.1750 Uiso
N10_2 N 0.4725(10) 0.713(2) 0.8803(18) 0.0870 Uiso
O5_2 O 0.2785(14) 0.503(2) 0.790(2) 0.2100 Uiso
O7_2 O 0.6908(7) 0.8575(14) 0.8854(12) 0.0740 Uiso
O8_2 O 0.6690(11) 0.899(2) 0.7584(19) 0.1140 Uiso
O11_2 O 0.8070(9) 0.8835(18) 0.9422(16) 0.0990 Uiso
O12_2 O 0.7895(9) 0.8459(17) 0.8075(14) 0.0930 Uiso
O17_2 O 0.1773(9) 0.3348(17) 0.8929(15) 0.0970 Uiso
O22_2 O 0.2482(7) 0.2189(12) 0.8358(12) 0.0680 Uiso
O27_2 O 0.726(4) 0.7741(18) 0.691(7) 0.4300 Uiso
H49_2 H 0.250781 0.1938 0.782225 . .
H50_2 H 0.222029 0.191272 0.853581 . .
H51_2 H 0.70337 0.754512 0.722551 . .
H52_2 H 0.753981 0.738866 0.708669 . .
C1_2 C 0.8707(10) 0.1066(17) 0.0093(17) 0.1030 Uiso
C2_2 C 0.9127(10) 0.137(3) 0.001(2) 0.1490 Uiso
C3_2 C 0.9301(9) 0.216(3) 0.039(3) 0.2300 Uiso
C4_2 C 0.9054(13) 0.265(2) 0.086(3) 0.2600 Uiso
H3_2 H 0.9171 0.3186 0.1111 0.3130 Uiso
C5_2 C 0.8634(11) 0.2351(18) 0.0939(17) 0.1160 Uiso
H4_2 H 0.8469 0.2679 0.1250 0.1390 Uiso
C6_2 C 0.8460(7) 0.1557(18) 0.0557(16) 0.0860 Uiso
C7_2 C 0.8022(7) 0.1200(19) 0.0616(18) 0.0620 Uiso
N12_2 N 0.9679(13) 0.273(3) 0.031(3) 0.1690 Uiso
H1_2 H 0.8591 0.0534 0.9838 0.1240 Uiso
H2_2 H 0.9292 0.1042 0.9699 0.1790 Uiso
N11_2 N 0.9915(7) 0.218(2) 0.991(2) 0.1070 Uiso
loop_
_atom_site_aniso_label
_atom_site_aniso_U_11
_atom_site_aniso_U_22
_atom_site_aniso_U_33
_atom_site_aniso_U_23
_atom_site_aniso_U_13
_atom_site_aniso_U_12
Gd6 0.0224 0.113 0.0478 0.0067 0.008 0.0006
Gd11 0.0526 0.0879 0.0862 -0.0068 0.0306 -0.0052
Gd12 0.0526 0.0879 0.0862 0.0068 0.0306 0.0052
Gd15 0.0256 0.1004 0.0484 0.0088 0.0073 0.0017
Gd4 0.0256 0.1004 0.0484 -0.0088 0.0073 -0.0017
Gd7 0.0224 0.113 0.0478 -0.0067 0.008 -0.0006
loop_
_geom_bond_atom_site_label_1
_geom_bond_atom_site_label_2
_geom_bond_site_symmetry_1
_geom_bond_site_symmetry_2
C8 C9 1_555 1_555
C9 C10 1_555 1_555
C10 H5 1_555 1_555
C11 C10 1_555 1_555
H6 C11 1_555 1_555
C12 C11 1_555 1_555
C13 C12 1_555 1_555
H7 C13 1_555 1_555
C14 C9 1_555 1_555
H8 C14 1_555 1_555
C15 C16 1_555 1_555
C16 C17 1_555 1_555
C17 H9 1_555 1_555
C18 C17 1_555 1_555
H10 C18 1_555 1_555
C19 C18 1_555 1_555
C20 C19 1_555 1_555
H11 C20 1_555 1_555
C21 C16 1_555 1_555
H12 C21 1_555 1_555
C22 C23 1_555 1_555
C23 C24 1_555 1_555
C24 H13 1_555 1_555
C25 C24 1_555 1_555
H14 C25 1_555 1_555
C26 C25 1_555 1_555
C27 C26 1_555 1_555
H15 C27 1_555 1_555
C28 C23 1_555 1_555
H16 C28 1_555 1_555
C50 C51 1_555 1_555
C51 C52 1_555 1_555
C52 H29 1_555 1_555
C53 C52 1_555 1_555
H30 C53 1_555 1_555
C54 C53 1_555 1_555
C55 C54 1_555 1_555
H31 C55 1_555 1_555
C56 C51 1_555 1_555
H32 C56 1_555 1_555
N1 C12 1_555 1_555
Gd2 O13 1_555 1_555
N2 C19 1_555 1_555
N6 C54 1_555 1_555
O13 C50 1_555 1_555
O14 C50 1_555 1_555
O15 C22 1_555 1_555
O16 C22 1_555 1_555
O19 C8 1_555 1_555
O20 C8 1_555 1_555
O21 C15 1_555 1_555
O24 C15 1_555 1_555
O28 Gd2 1_555 1_555
Gd11 O14 1_555 1_555
Gd12 O15 1_555 1_555
Gd15 O24 1_555 1_555
O35 Gd2 1_555 1_555
O38 Gd2 1_555 1_555
C13 C14 1_555 1_555
C20 C21 1_555 1_555
C27 C28 1_555 1_555
C55 C56 1_555 1_555
N1 N2 1_555 1_555
Gd2 O16 1_555 1_555
Gd2 O19 1_555 1_555
O20 Gd11 1_555 1_555
O28 H55 1_555 1_555
O28 H56 1_555 1_555
O1 C77 1_555 1_555
C29 C30 1_555 1_555
C30 C31 1_555 1_555
C31 H17 1_555 1_555
C32 C31 1_555 1_555
H18 C32 1_555 1_555
C33 C32 1_555 1_555
C34 C33 1_555 1_555
H19 C34 1_555 1_555
C35 C30 1_555 1_555
H20 C35 1_555 1_555
C36 C37 1_555 1_555
C37 C38 1_555 1_555
C38 H21 1_555 1_555
C39 C38 1_555 1_555
H22 C39 1_555 1_555
C40 C39 1_555 1_555
C41 C40 1_555 1_555
H23 C41 1_555 1_555
C42 C37 1_555 1_555
H24 C42 1_555 1_555
C43 C44 1_555 1_555
C44 C45 1_555 1_555
C45 H25 1_555 1_555
C46 C45 1_555 1_555
H26 C46 1_555 1_555
C47 C46 1_555 1_555
C48 C47 1_555 1_555
H27 C48 1_555 1_555
C49 C44 1_555 1_555
H28 C49 1_555 1_555
C70 C71 1_555 1_555
C71 C72 1_555 1_555
C72 H41 1_555 1_555
C73 C72 1_555 1_555
H42 C73 1_555 1_555
C74 C73 1_555 1_555
C75 C74 1_555 1_555
H43 C75 1_555 1_555
C76 C71 1_555 1_555
H44 C76 1_555 1_555
C77 C79 1_555 1_555
C78 H45 1_555 1_555
C79 C78 1_555 1_555
C80 C79 1_555 1_555
H46 C80 1_555 1_555
C81 C80 1_555 1_555
H47 C81 1_555 1_555
C82 C81 1_555 1_555
C83 C78 1_555 1_555
H48 C83 1_555 1_555
Gd6 O7 1_555 1_555
Gd11 O5 1_555 1_555
N4 C33 1_555 1_555
N5 C47 1_555 1_555
N9 C74 1_555 1_555
N10 C82 1_555 1_555
O5 C77 1_555 1_555
O7 C70 1_555 1_555
O8 C70 1_555 1_555
O9 C29 1_555 1_555
O10 C29 1_555 1_555
O11 C43 1_555 1_555
O12 C43 1_555 1_555
O17 C36 1_555 1_555
O35 C36 1_555 1_555
O22 Gd11 1_555 1_555
O26 Gd6 1_555 1_555
O27 Gd4 1_555 1_555
O30 Gd4 1_555 1_555
O31 Gd6 1_555 1_555
O34 Gd11 1_555 1_555
O40 Gd4 1_555 1_555
O41 Gd11 1_555 1_555
C34 C35 1_555 1_555
C41 C42 1_555 1_555
C48 C49 1_555 1_555
C75 C76 1_555 1_555
C82 C83 1_555 1_555
Gd6 O9 1_555 1_555
Gd6 O11 1_555 1_555
Gd11 O17 1_555 1_555
Gd4 O8 1_555 1_555
Gd4 O12 1_555 1_555
N3 N4 1_555 1_555
N9 N10 1_555 1_555
O22 H49 1_555 1_555
O22 H50 1_555 1_555
O27 H51 1_555 1_555
O27 H52 1_555 1_555
O26 H53 1_555 1_555
O26 H54 1_555 1_555
O4 C57 1_555 1_555
C57 C58 1_555 1_555
C58 C59 1_555 1_555
C59 H33 1_555 1_555
C60 C59 1_555 1_555
H34 C60 1_555 1_555
C61 C60 1_555 1_555
C62 C61 1_555 1_555
H35 C62 1_555 1_555
C63 C58 1_555 1_555
H36 C63 1_555 1_555
C64 C65 1_555 1_555
C65 H37 1_555 1_555
C66 C65 1_555 1_555
H38 C66 1_555 1_555
C67 C66 1_555 1_555
C68 C67 1_555 1_555
H39 C68 1_555 1_555
C69 C64 1_555 1_555
H40 C69 1_555 1_555
N7 C61 1_555 1_555
N8 C64 1_555 1_555
O6 C57 1_555 1_555
O23 C84 1_555 1_555
C84 C67 1_555 1_555
O41 C84 1_555 1_555
Gd9 O23 1_555 1_555
C62 C63 1_555 1_555
C68 C69 1_555 1_555
N7 N8 1_555 1_555
C1 H1 1_555 1_555
C2 C1 1_555 1_555
H2 C2 1_555 1_555
C3 C2 1_555 1_555
C4 C3 1_555 1_555
H3 C4 1_555 1_555
C5 C4 1_555 1_555
H4 C5 1_555 1_555
C6 C1 1_555 1_555
O29 C7 1_555 1_555
C7 C6 1_555 1_555
O3 C7 1_555 1_555
N12 C3 1_555 1_555
Gd15 O3 1_555 1_555
C5 C6 1_555 1_555
N11 N12 1_555 1_555
C8_2 C9_2 1_555 1_555
C9_2 C10_2 1_555 1_555
C10_2 H5_2 1_555 1_555
C11_2 C10_2 1_555 1_555
H6_2 C11_2 1_555 1_555
C12_2 C11_2 1_555 1_555
H11_2 C20_2 1_555 1_555
H12_2 C21_2 1_555 1_555
C22_2 C23_2 1_555 1_555
C23_2 C24_2 1_555 1_555
C24_2 H13_2 1_555 1_555
C25_2 C24_2 1_555 1_555
H14_2 C25_2 1_555 1_555
C26_2 C25_2 1_555 1_555
C27_2 C26_2 1_555 1_555
H15_2 C27_2 1_555 1_555
C28_2 C23_2 1_555 1_555
H16_2 C28_2 1_555 1_555
N1_2 C12_2 1_555 1_555
O34 C22_2 1_555 1_555
O16_2 C22_2 1_555 1_555
O19_2 C8_2 1_555 1_555
O40 C15_2 1_555 1_555
O35_2 Gd9 1_555 1_555
C20_2 C21_2 1_555 1_555
C27_2 C28_2 1_555 1_555
Gd9 O16_2 1_555 1_555
Gd9 O19_2 1_555 1_555
H7_2 C13_2 1_555 1_555
H8_2 C14_2 1_555 1_555
C16_2 C17_2 1_555 1_555
C17_2 H9_2 1_555 1_555
C18_2 C17_2 1_555 1_555
H10_2 C18_2 1_555 1_555
C19_2 C18_2 1_555 1_555
C50_2 C51_2 1_555 1_555
C51_2 C52_2 1_555 1_555
C52_2 H29_2 1_555 1_555
C53_2 C52_2 1_555 1_555
H30_2 C53_2 1_555 1_555
C54_2 C53_2 1_555 1_555
C55_2 C54_2 1_555 1_555
H31_2 C55_2 1_555 1_555
C56_2 C51_2 1_555 1_555
H32_2 C56_2 1_555 1_555
N2_2 C19_2 1_555 1_555
N6_2 C54_2 1_555 1_555
O13_2 C50_2 1_555 1_555
O14_2 C50_2 1_555 1_555
Gd12 O14_2 1_555 1_555
C13_2 C14_2 1_555 1_555
C55_2 C56_2 1_555 1_555
O20_2 Gd12 1_555 1_555
O28_2 H55_2 1_555 1_555
O28_2 H56_2 1_555 1_555
O31 C57_2 1_555 1_555
C57_2 C58_2 1_555 1_555
C58_2 C59_2 1_555 1_555
C59_2 H33_2 1_555 1_555
C60_2 C59_2 1_555 1_555
H34_2 C60_2 1_555 1_555
C61_2 C60_2 1_555 1_555
C62_2 C61_2 1_555 1_555
H35_2 C62_2 1_555 1_555
C63_2 C58_2 1_555 1_555
H36_2 C63_2 1_555 1_555
C64_2 C65_2 1_555 1_555
C65_2 H37_2 1_555 1_555
C66_2 C65_2 1_555 1_555
H38_2 C66_2 1_555 1_555
C67_2 C66_2 1_555 1_555
C68_2 C67_2 1_555 1_555
H39_2 C68_2 1_555 1_555
C69_2 C64_2 1_555 1_555
H40_2 C69_2 1_555 1_555
N7_2 C61_2 1_555 1_555
N8_2 C64_2 1_555 1_555
O6_2 C57_2 1_555 1_555
O38 C84_2 1_555 1_555
C84_2 C67_2 1_555 1_555
O25 C84_2 1_555 1_555
Gd12 O25 1_555 1_555
C62_2 C63_2 1_555 1_555
C68_2 C69_2 1_555 1_555
N7_2 N8_2 1_555 1_555
C29_2 C30_2 1_555 1_555
C30_2 C31_2 1_555 1_555
C31_2 H17_2 1_555 1_555
C32_2 C31_2 1_555 1_555
H18_2 C32_2 1_555 1_555
C33_2 C32_2 1_555 1_555
C34_2 C33_2 1_555 1_555
H19_2 C34_2 1_555 1_555
C35_2 C30_2 1_555 1_555
H20_2 C35_2 1_555 1_555
C38_2 H21_2 1_555 1_555
C39_2 C38_2 1_555 1_555
H22_2 C39_2 1_555 1_555
N4_2 C33_2 1_555 1_555
O9_2 C29_2 1_555 1_555
O32 C29_2 1_555 1_555
C34_2 C35_2 1_555 1_555
N3_2 N4_2 1_555 1_555
O26_2 H53_2 1_555 1_555
O26_2 H54_2 1_555 1_555
O1_2 C77_2 1_555 1_555
C36_2 C37_2 1_555 1_555
C41_2 C40_2 1_555 1_555
H23_2 C41_2 1_555 1_555
C42_2 C37_2 1_555 1_555
H24_2 C42_2 1_555 1_555
C43_2 C44_2 1_555 1_555
C44_2 C45_2 1_555 1_555
C45_2 H25_2 1_555 1_555
C46_2 C45_2 1_555 1_555
H26_2 C46_2 1_555 1_555
C47_2 C46_2 1_555 1_555
C48_2 C47_2 1_555 1_555
H27_2 C48_2 1_555 1_555
C49_2 C44_2 1_555 1_555
H28_2 C49_2 1_555 1_555
C70_2 C71_2 1_555 1_555
C71_2 C72_2 1_555 1_555
C72_2 H41_2 1_555 1_555
C73_2 C72_2 1_555 1_555
H42_2 C73_2 1_555 1_555
C74_2 C73_2 1_555 1_555
C75_2 C74_2 1_555 1_555
H43_2 C75_2 1_555 1_555
C76_2 C71_2 1_555 1_555
H44_2 C76_2 1_555 1_555
C77_2 C79_2 1_555 1_555
C78_2 H45_2 1_555 1_555
C79_2 C78_2 1_555 1_555
C80_2 C79_2 1_555 1_555
H46_2 C80_2 1_555 1_555
C81_2 C80_2 1_555 1_555
H47_2 C81_2 1_555 1_555
C82_2 C81_2 1_555 1_555
C83_2 C78_2 1_555 1_555
H48_2 C83_2 1_555 1_555
Gd7 O7_2 1_555 1_555
Gd12 O5_2 1_555 1_555
N5_2 C47_2 1_555 1_555
N9_2 C74_2 1_555 1_555
N10_2 C82_2 1_555 1_555
O5_2 C77_2 1_555 1_555
O7_2 C70_2 1_555 1_555
O8_2 C70_2 1_555 1_555
O11_2 C43_2 1_555 1_555
O12_2 C43_2 1_555 1_555
O17_2 C36_2 1_555 1_555
O22_2 Gd12 1_555 1_555
O27_2 Gd15 1_555 1_555
C41_2 C42_2 1_555 1_555
C48_2 C49_2 1_555 1_555
C75_2 C76_2 1_555 1_555
C82_2 C83_2 1_555 1_555
Gd7 O11_2 1_555 1_555
Gd12 O17_2 1_555 1_555
Gd15 O8_2 1_555 1_555
Gd15 O12_2 1_555 1_555
N9_2 N10_2 1_555 1_555
O22_2 H49_2 1_555 1_555
O22_2 H50_2 1_555 1_555
O27_2 H51_2 1_555 1_555
O27_2 H52_2 1_555 1_555
C2_2 C1_2 1_555 1_555
C3_2 C2_2 1_555 1_555
C4_2 C3_2 1_555 1_555
H3_2 C4_2 1_555 1_555
C5_2 C4_2 1_555 1_555
H4_2 C5_2 1_555 1_555
C6_2 C1_2 1_555 1_555
O29_2 C7_2 1_555 1_555
C7_2 C6_2 1_555 1_555
O30 C7_2 1_555 1_555
N12_2 C3_2 1_555 1_555
C5_2 C6_2 1_555 1_555

#END
