
###############################################################################
#
# This file contains modified crystal structure data generated from the
# MOF subset of the Cambridge Structural Database (CSD) v543 
# hosted by the Cambridge Crystallographic Data Centre (CCDC).
#
# This work is licensed under the Creative Commons
# Attribution-NonCommercial-ShareAlike 4.0 International License.
# To view a copy of this license, visit
# http://creativecommons.org/licenses/by-nc-sa/4.0/
# or send a letter to
# Creative Commons, PO Box 1866, Mountain View, CA 94042, USA.
#
# CIF created using the CSD Python API on 29 September 2022
# The structure has been converted into the P1 space group
# The structure has a 3D framework
# The original CSD entry ROLLAI is in the triclinic crystal system
# The framework has been calculated to contain at least 10.0% void space
# The void calculation uses a probe of radius 1.32A, grid spacing 0.4
#
###############################################################################

data_ROLLAI
_chemical_formula_moiety         '(C102 H90 La4 N18 O25)n'
_symmetry_cell_setting           triclinic
_symmetry_space_group_name_H-M   'P 1'
_symmetry_Int_Tables_number      1
_space_group_name_Hall           'P 1'
loop_
_symmetry_equiv_pos_site_id
_symmetry_equiv_pos_as_xyz
1 x,y,z
_cell_length_a                   15.670(3)
_cell_length_b                   16.328(3)
_cell_length_c                   17.245(3)
_cell_angle_alpha                101.922(9)
_cell_angle_beta                 91.966(9)
_cell_angle_gamma                114.781(9)
_cell_volume                     3883.12
loop_
_atom_site_label
_atom_site_type_symbol
_atom_site_fract_x
_atom_site_fract_y
_atom_site_fract_z
_atom_site_U_iso_or_equiv
_atom_site_thermal_displace_type
La16 La 0.02681(4) 0.55253(4) 0.13370(3) 0.0188 Uani
C66 C 0.0810(8) 0.3711(8) 0.2167(7) 0.0332 Uani
C67 C 0.0323(9) 0.2718(8) 0.0778(8) 0.0385 Uani
H54 H 0.0243 0.3193 0.0617 0.0460 Uiso
C68 C 0.0626(10) 0.2827(9) 0.1543(8) 0.0415 Uani
C69 C 0.0124(11) 0.1870(9) 0.0210(8) 0.0492 Uani
C70 C 0.0587(13) 0.1302(10) 0.1250(9) 0.0642 Uani
H56 H 0.0683 0.0832 0.1408 0.0770 Uiso
C71 C 0.0240(11) 0.1180(9) 0.0470(8) 0.0481 Uani
C72 C 0.0789(12) 0.2126(10) 0.1792(10) 0.0593 Uani
H57 H 0.1032 0.2222 0.2320 0.0710 Uiso
O20 O 0.0631(5) 0.4322(5) 0.1957(5) 0.0293 Uani
O21 O 0.1084(8) 0.3768(7) 0.2863(5) 0.0494 Uani
La8 La 0.04399(4) 0.49213(4) 0.34935(4) 0.0232 Uani
C4 C 0.8594(7) 0.5493(7) 0.0139(7) 0.0263 Uani
C16 C 0.7250(9) 0.5939(9) 0.0292(9) 0.0456 Uani
H8 H 0.7495 0.6223 0.0827 0.0550 Uiso
H11 H 0.6104 0.6224 0.0308 0.0630 Uiso
H12 H 0.0081 0.8213 0.0325 0.0600 Uiso
N3 N 0.0023(10) 0.9682(8) 0.0130(8) 0.0571 Uani
O7 O 0.8855(5) 0.5802(6) 0.0873(5) 0.0328 Uani
C2 C 0.1309(8) 0.4909(9) 0.7071(6) 0.0329 Uani
C7 C 0.7703(8) 0.5521(8) 0.9823(7) 0.0301 Uani
C8 C 0.2245(8) 0.4997(9) 0.7390(7) 0.0368 Uani
C11 C 0.2602(8) 0.5426(9) 0.8180(7) 0.0374 Uani
H5 H 0.2260 0.5655 0.8517 0.0450 Uiso
C12 C 0.7352(8) 0.5138(9) 0.9009(7) 0.0392 Uani
H6 H 0.7669 0.4871 0.8675 0.0470 Uiso
C13 C 0.3478(8) 0.5514(10) 0.8468(8) 0.0405 Uani
H7 H 0.3744 0.5834 0.8994 0.0490 Uiso
C17 C 0.3966(9) 0.5123(10) 0.7973(8) 0.0460 Uani
C19 C 0.6062(9) 0.5549(10) 0.9191(9) 0.0467 Uani
C20 C 0.6539(10) 0.5156(12) 0.8703(9) 0.0592 Uani
H10 H 0.6309 0.4901 0.8162 0.0710 Uiso
C21 C 0.6416(10) 0.5947(11) 0.9978(8) 0.0530 Uani
C24 C 0.0303(13) 0.2360(10) 0.4303(9) 0.0585 Uani
H14 H 0.0520 0.2686 0.3912 0.0700 Uiso
C26 C 0.2741(10) 0.4635(14) 0.6884(9) 0.0704 Uani
H16 H 0.2502 0.4365 0.6345 0.0840 Uiso
C34 C 0.3593(12) 0.4678(17) 0.7186(9) 0.0954 Uani
H22 H 0.3911 0.4407 0.6859 0.1140 Uiso
C38 C 0.0366(16) 0.1537(12) 0.4263(13) 0.0863 Uani
H25 H 0.0578 0.1279 0.3823 0.1030 Uiso
C39 C 0.011(2) 0.1093(15) 0.4879(17) 0.1226 Uani
C46 C 0.008(3) 0.095(3) 0.781(3) 0.2276 Uani
H33 H 0.0065 0.0808 0.8325 0.3440 Uiso
H34 H 0.0722 0.1337 0.7753 0.3440 Uiso
C48 C 0.167(3) 0.723(2) 0.684(4) 0.3511 Uani
H38 H 0.2099 0.7013 0.6621 0.4240 Uiso
C49 C 0.158(5) 0.856(3) 0.765(3) 0.3270 Uani
H39 H 0.1150 0.8060 0.7853 0.4850 Uiso
H40 H 0.1277 0.8936 0.7543 0.4850 Uiso
H41 H 0.2133 0.8938 0.8042 0.4850 Uiso
C50 C 0.270(3) 0.868(2) 0.656(4) 0.3281 Uani
H42 H 0.3234 0.9018 0.6972 0.4880 Uiso
H43 H 0.2592 0.9100 0.6304 0.4880 Uiso
H44 H 0.2816 0.8236 0.6176 0.4880 Uiso
N1 N 0.5182(8) 0.5566(9) 0.8932(7) 0.0492 Uani
N4 N 0.4855(8) 0.5128(10) 0.8217(8) 0.0602 Uani
N5 N 0.015(2) 0.0194(14) 0.4712(16) 0.1449 Uani
N8 N 0.186(3) 0.819(3) 0.692(2) 0.2380 Uani
O5 O 0.9017(5) 0.5142(5) 0.9672(5) 0.0265 Uani
O8 O 0.0258(7) 0.4087(6) 0.4519(5) 0.0437 Uani
O9 O 0.1140(7) 0.4909(10) 0.6348(5) 0.0755 Uani
O10 O 0.0705(5) 0.4917(5) 0.7559(4) 0.0282 Uani
O11 O 0.0972(9) 0.6704(9) 0.7044(9) 0.0838 Uani
H45 H 0.0646 0.2694 0.8116 0.1330 Uiso
La11 La 0.97319(4) 0.44747(4) 0.86630(3) 0.0188 Uani
O35 O 0.1025(5) 0.6053(5) 0.9246(5) 0.0282 Uani
O37 O 0.1145(5) 0.4198(6) 0.9127(5) 0.0328 Uani
C73 C 0.0206(10) 0.6427(8) 0.5051(7) 0.0397 Uani
C75 C 0.0345(18) 0.7740(11) 0.4466(12) 0.0972 Uani
H59 H 0.0545 0.7472 0.4024 0.1140 Uiso
C76 C 0.0078(13) 0.7303(10) 0.5080(9) 0.0568 Uani
C77 C 0.031(3) 0.8575(19) 0.4512(18) 0.1621 Uani
H60 H 0.0567 0.8917 0.4140 0.1960 Uiso
O23 O 0.0746(7) 0.6260(6) 0.4587(5) 0.0411 Uani
H55 H 0.9919 0.1787 0.9675 0.0600 Uiso
N12 N 0.9977(10) 0.0318(8) 0.9870(8) 0.0571 Uani
C3 C 0.8696(7) 0.3322(7) 0.0110(6) 0.0250 Uani
C30 C 0.7493(10) 0.2281(10) 0.0797(11) 0.0650 Uani
H18 H 0.7839 0.2674 0.1284 0.0780 Uiso
C40 C 0.7820(8) 0.2502(8) 0.0096(8) 0.0382 Uani
C41 C 0.6682(12) 0.1509(11) 0.0802(14) 0.0887 Uani
H26 H 0.6482 0.1365 0.1279 0.1060 Uiso
C43 C 0.6169(10) 0.0949(11) 0.0068(19) 0.0955 Uani
N6 N 0.5250(15) 0.0179(15) 0.0279(13) 0.1096 Uani
O6 O 0.8975(5) 0.3947(5) 0.0754(5) 0.0282 Uani
C1 C 0.634(4) 0.351(4) 0.422(2) 0.2898 Uani
H1 H 0.5938 0.3768 0.4044 0.4320 Uiso
H2 H 0.6016 0.2840 0.4038 0.4320 Uiso
H3 H 0.6920 0.3733 0.3994 0.4320 Uiso
C5 C 0.7969(8) 0.3274(7) 0.7402(7) 0.0263 Uani
C6 C 0.9190(8) 0.6289(8) 0.7833(7) 0.0332 Uani
C9 C 0.7161(8) 0.2459(8) 0.6833(7) 0.0341 Uani
C10 C 0.9677(9) 0.7282(8) 0.9222(8) 0.0385 Uani
H4 H 0.9757 0.6807 0.9383 0.0460 Uiso
C14 C 0.9794(10) 0.3573(8) 0.4949(7) 0.0397 Uani
C15 C 0.9374(10) 0.7173(9) 0.8457(8) 0.0415 Uani
C18 C 0.6361(9) 0.1924(10) 0.7133(9) 0.0510 Uani
H9 H 0.6312 0.2071 0.7675 0.0610 Uiso
C22 C 0.9876(11) 0.8130(9) 0.9790(8) 0.0492 Uani
C23 C 0.7246(10) 0.2217(10) 0.6041(8) 0.0533 Uani
H13 H 0.7799 0.2562 0.5849 0.0640 Uiso
C25 C 0.7285(10) 0.1884(9) 0.9399(10) 0.0567 Uani
H15 H 0.7498 0.1981 0.8914 0.0680 Uiso
C27 C 0.5723(10) 0.0927(11) 0.5818(9) 0.0614 Uani
C28 C 0.9413(13) 0.8698(10) 0.8750(9) 0.0642 Uani
H17 H 0.9317 0.9168 0.8592 0.0770 Uiso
C29 C 0.9760(11) 0.8820(9) 0.9530(8) 0.0481 Uani
C31 C 0.6525(11) 0.1471(11) 0.5531(9) 0.0721 Uani
H19 H 0.6576 0.1330 0.4989 0.0860 Uiso
C32 C 0.9211(12) 0.7874(10) 0.8208(10) 0.0593 Uani
H20 H 0.8968 0.7778 0.7680 0.0710 Uiso
C33 C 0.5652(9) 0.1183(11) 0.6626(10) 0.0618 Uani
H21 H 0.5103 0.0837 0.6823 0.0740 Uiso
C35 C 0.9655(18) 0.2260(11) 0.5534(12) 0.0972 Uani
H23 H 0.9455 0.2528 0.5976 0.1140 Uiso
C36 C 0.9922(13) 0.2697(10) 0.4920(9) 0.0568 Uani
C37 C 0.969(3) 0.1425(19) 0.5488(18) 0.1621 Uani
H24 H 0.9433 0.1083 0.5860 0.1960 Uiso
C42 C 0.6476(13) 0.1152(12) 0.9393(16) 0.0890 Uani
H27 H 0.6116 0.0775 0.8907 0.1050 Uiso
C44 C 0.7538(16) 0.438(3) 0.5241(13) 0.2061 Uani
H28 H 0.7895 0.4681 0.4877 0.2460 Uiso
C45 C 0.847(2) 0.092(3) 0.752(3) 0.2393 Uani
H29 H 0.8196 0.1360 0.7580 0.3620 Uiso
H30 H 0.8205 0.0510 0.7861 0.3620 Uiso
H31 H 0.8319 0.0571 0.6972 0.3620 Uiso
H32 H 0.9845 0.0377 0.7400 0.3440 Uiso
C47 C 0.5901(19) 0.364(3) 0.569(3) 0.3014 Uani
H35 H 0.5601 0.2988 0.5687 0.4510 Uiso
H36 H 0.5426 0.3835 0.5572 0.4510 Uiso
H37 H 0.6258 0.3992 0.6203 0.4510 Uiso
La1 La 0.95601(4) 0.50787(4) 0.65065(4) 0.0232 Uani
N2 N 0.4932(10) 0.0103(10) 0.5351(7) 0.0703 Uani
N7 N 0.9491(19) 0.1423(15) 0.7735(18) 0.1633 Uani
N9 N 0.6534(15) 0.377(3) 0.508(2) 0.3236 Uani
O1 O 0.9085(5) 0.3356(5) 0.9493(5) 0.0286 Uani
O2 O 0.9616(6) 0.2902(6) 0.7873(5) 0.0428 Uani
O3 O 0.7910(5) 0.3427(5) 0.8130(5) 0.0346 Uani
O4 O 0.8705(5) 0.3777(5) 0.7119(4) 0.0252 Uani
O12 O 0.9369(5) 0.5678(5) 0.8043(5) 0.0293 Uani
O13 O 0.8916(8) 0.6232(7) 0.7137(5) 0.0494 Uani
O14 O 0.9254(7) 0.3740(6) 0.5413(5) 0.0411 Uani
C51 C 0.9999(18) 0.2419(14) 0.7934(14) 0.1114 Uani
O15 O 0.7845(7) 0.4448(7) 0.5909(6) 0.0567 Uani
O39 O 0.9742(7) 0.5913(6) 0.5481(5) 0.0437 Uani
C53 C 0.2715(10) 0.8116(9) 0.0601(10) 0.0567 Uani
H46 H 0.2502 0.8019 0.1086 0.0680 Uiso
C57 C 0.3524(13) 0.8848(12) 0.0607(16) 0.0890 Uani
H49 H 0.3884 0.9225 0.1093 0.1050 Uiso
O16 O 0.0915(5) 0.6644(5) 0.0507(5) 0.0286 Uani
C52 C 0.1304(7) 0.6678(7) 0.9890(6) 0.0250 Uani
C54 C 0.2507(10) 0.7719(10) 0.9203(11) 0.0650 Uani
H47 H 0.2161 0.7326 0.8716 0.0780 Uiso
C55 C 0.2180(8) 0.7498(8) 0.9904(8) 0.0382 Uani
C56 C 0.3318(12) 0.8491(11) 0.9198(14) 0.0887 Uani
H48 H 0.3518 0.8635 0.8721 0.1060 Uiso
C58 C 0.3831(10) 0.9051(11) 0.9932(19) 0.0955 Uani
N10 N 0.4750(15) 0.9821(15) 0.9721(13) 0.1096 Uani
C59 C 0.2031(8) 0.6726(7) 0.2598(7) 0.0263 Uani
C60 C 0.2839(8) 0.7541(8) 0.3167(7) 0.0341 Uani
C61 C 0.3639(9) 0.8076(10) 0.2867(9) 0.0510 Uani
H50 H 0.3688 0.7929 0.2325 0.0610 Uiso
C62 C 0.2754(10) 0.7783(10) 0.3959(8) 0.0533 Uani
H51 H 0.2201 0.7438 0.4151 0.0640 Uiso
C63 C 0.4277(10) 0.9073(11) 0.4182(9) 0.0614 Uani
C64 C 0.3475(11) 0.8529(11) 0.4469(9) 0.0721 Uani
H52 H 0.3424 0.8670 0.5011 0.0860 Uiso
C65 C 0.4348(9) 0.8817(11) 0.3374(10) 0.0618 Uani
H53 H 0.4897 0.9163 0.3177 0.0740 Uiso
N11 N 0.5068(10) 0.9897(10) 0.4649(7) 0.0703 Uani
O18 O 0.2090(5) 0.6573(5) 0.1870(5) 0.0346 Uani
O19 O 0.1295(5) 0.6223(5) 0.2881(4) 0.0252 Uani
C74 C 0.9697(13) 0.7640(10) 0.5697(9) 0.0585 Uani
H58 H 0.9480 0.7314 0.6088 0.0700 Uiso
C78 C 0.9634(16) 0.8463(12) 0.5737(13) 0.0863 Uani
H61 H 0.9422 0.8721 0.6177 0.1030 Uiso
C79 C 0.989(2) 0.8907(15) 0.5121(17) 0.1226 Uani
N13 N 0.985(2) 0.9806(14) 0.5288(16) 0.1449 Uani
C80 C 0.366(4) 0.649(4) 0.578(2) 0.2898 Uani
H62 H 0.4062 0.6232 0.5956 0.4320 Uiso
H63 H 0.3984 0.7160 0.5962 0.4320 Uiso
H64 H 0.3080 0.6267 0.6006 0.4320 Uiso
C95 C 0.2462(16) 0.562(3) 0.4759(13) 0.2061 Uani
H73 H 0.2105 0.5319 0.5123 0.2460 Uiso
C96 C 0.153(2) 0.908(3) 0.248(3) 0.2393 Uani
H74 H 0.1804 0.8640 0.2420 0.3620 Uiso
H75 H 0.1795 0.9490 0.2139 0.3620 Uiso
H76 H 0.1681 0.9429 0.3028 0.3620 Uiso
H77 H 0.0155 0.9623 0.2600 0.3440 Uiso
C98 C 0.4099(19) 0.636(3) 0.431(3) 0.3014 Uani
H80 H 0.4399 0.7012 0.4313 0.4510 Uiso
H81 H 0.4574 0.6165 0.4428 0.4510 Uiso
H82 H 0.3742 0.6008 0.3797 0.4510 Uiso
N16 N 0.0509(19) 0.8577(15) 0.2265(18) 0.1633 Uani
N18 N 0.3466(15) 0.623(3) 0.492(2) 0.3236 Uani
O24 O 0.0384(6) 0.7098(6) 0.2127(5) 0.0428 Uani
C102 C 0.0001(18) 0.7581(14) 0.2066(14) 0.1114 Uani
O30 O 0.2155(7) 0.5552(7) 0.4091(6) 0.0567 Uani
O33 O 0.0983(5) 0.4858(5) 0.0328(5) 0.0265 Uani
C81 C 0.8691(8) 0.5091(9) 0.2929(6) 0.0329 Uani
C83 C 0.2297(8) 0.4479(8) 0.0177(7) 0.0301 Uani
C84 C 0.7755(8) 0.5003(9) 0.2610(7) 0.0368 Uani
C85 C 0.7398(8) 0.4574(9) 0.1820(7) 0.0374 Uani
H65 H 0.7740 0.4345 0.1483 0.0450 Uiso
C86 C 0.2648(8) 0.4862(9) 0.0991(7) 0.0392 Uani
H66 H 0.2331 0.5129 0.1325 0.0470 Uiso
C87 C 0.6522(8) 0.4486(10) 0.1532(8) 0.0405 Uani
H67 H 0.6256 0.4166 0.1006 0.0490 Uiso
C89 C 0.6034(9) 0.4877(10) 0.2027(8) 0.0460 Uani
C90 C 0.3938(9) 0.4451(10) 0.0809(9) 0.0467 Uani
C91 C 0.3461(10) 0.4844(12) 0.1297(9) 0.0592 Uani
H69 H 0.3691 0.5099 0.1838 0.0710 Uiso
C92 C 0.3584(10) 0.4053(11) 0.0022(8) 0.0530 Uani
C93 C 0.7259(10) 0.5365(14) 0.3116(9) 0.0704 Uani
H71 H 0.7498 0.5635 0.3655 0.0840 Uiso
C94 C 0.6407(12) 0.5322(17) 0.2814(9) 0.0954 Uani
H72 H 0.6089 0.5593 0.3141 0.1140 Uiso
C97 C 0.992(3) 0.905(3) 0.219(3) 0.2276 Uani
H78 H 0.9935 0.9192 0.1675 0.3440 Uiso
H79 H 0.9278 0.8663 0.2247 0.3440 Uiso
C99 C 0.833(3) 0.277(2) 0.316(4) 0.3511 Uani
H83 H 0.7901 0.2987 0.3379 0.4240 Uiso
C100 C 0.842(5) 0.144(3) 0.235(3) 0.3270 Uani
H84 H 0.8850 0.1940 0.2147 0.4850 Uiso
H85 H 0.8723 0.1064 0.2457 0.4850 Uiso
H86 H 0.7867 0.1062 0.1958 0.4850 Uiso
C101 C 0.730(3) 0.132(2) 0.344(4) 0.3281 Uani
H87 H 0.6766 0.0982 0.3028 0.4880 Uiso
H88 H 0.7408 0.0900 0.3696 0.4880 Uiso
H89 H 0.7184 0.1764 0.3824 0.4880 Uiso
N14 N 0.4818(8) 0.4434(9) 0.1068(7) 0.0492 Uani
N15 N 0.5145(8) 0.4872(10) 0.1783(8) 0.0602 Uani
N17 N 0.814(3) 0.181(3) 0.308(2) 0.2380 Uani
O27 O 0.8860(7) 0.5091(10) 0.3652(5) 0.0755 Uani
O28 O 0.9295(5) 0.5083(5) 0.2441(4) 0.0282 Uani
O29 O 0.9028(9) 0.3296(9) 0.2956(9) 0.0838 Uani
H90 H 0.9354 0.7306 0.1884 0.1330 Uiso
C82 C 0.1406(7) 0.4507(7) 0.9861(7) 0.0263 Uani
C88 C 0.2750(9) 0.4061(9) 0.9708(9) 0.0456 Uani
H68 H 0.2505 0.3777 0.9173 0.0550 Uiso
H70 H 0.3896 0.3776 0.9692 0.0630 Uiso
loop_
_atom_site_aniso_label
_atom_site_aniso_U_11
_atom_site_aniso_U_22
_atom_site_aniso_U_33
_atom_site_aniso_U_23
_atom_site_aniso_U_13
_atom_site_aniso_U_12
La16 0.0141 0.018 0.0212 0.0024 -0.0004 0.0055
C66 0.037 0.031 0.039 0.007 -0.002 0.023
C67 0.041 0.035 0.047 0.01 0.001 0.024
C68 0.055 0.034 0.04 0 0.004 0.028
C69 0.065 0.042 0.038 -0.008 -0.02 0.031
C70 0.108 0.04 0.059 0.001 -0.005 0.052
C71 0.078 0.037 0.044 -0.003 0.005 0.045
C72 0.083 0.045 0.051 0.006 -0.009 0.033
O20 0.025 0.022 0.035 -0.002 -0.001 0.009
O21 0.083 0.062 0.025 -0.002 0.006 0.058
La8 0.0229 0.0215 0.0247 0.0057 -0.0009 0.0094
C4 0.016 0.022 0.036 0.007 -0.002 0.004
C16 0.026 0.051 0.055 0.001 -0.011 0.019
N3 0.081 0.041 0.053 -0.002 0 0.037
O7 0.022 0.053 0.037 0.017 0.009 0.026
C2 0.021 0.054 0.019 0.006 0.007 0.013
C7 0.024 0.035 0.035 0.003 0.002 0.019
C8 0.023 0.053 0.035 0.01 -0.005 0.018
C11 0.027 0.051 0.035 0.003 -0.006 0.022
C12 0.03 0.054 0.034 -0.013 -0.001 0.03
C13 0.019 0.058 0.045 0.013 0.004 0.017
C17 0.028 0.067 0.046 -0.001 -0.006 0.031
C19 0.025 0.06 0.062 0.006 -0.007 0.03
C20 0.039 0.09 0.049 0 -0.016 0.038
C21 0.047 0.088 0.042 -0.004 0.001 0.056
C24 0.104 0.046 0.06 0.023 0.035 0.059
C26 0.032 0.137 0.045 -0.006 -0.004 0.053
C34 0.057 0.19 0.036 -0.034 -0.022 0.081
C38 0.12 0.059 0.115 0.029 0.064 0.065
C39 0.19 0.081 0.18 0.099 0.12 0.1
C46 0.35 0.3 0.24 0.15 0.16 0.29
C48 0.36 0.35 0.35 0.089 0.038 0.16
C49 0.32 0.33 0.33 0.082 0.043 0.14
C50 0.33 0.33 0.32 0.078 0.05 0.14
N1 0.034 0.078 0.048 0.01 -0.001 0.039
N4 0.029 0.096 0.056 -0.003 -0.014 0.039
N5 0.23 0.101 0.22 0.112 0.16 0.139
N8 0.23 0.24 0.24 0.055 0.02 0.101
O5 0.014 0.029 0.039 0.009 0.01 0.011
O8 0.071 0.041 0.038 0.02 0.027 0.036
O9 0.048 0.17 0.024 0.021 0.011 0.063
O10 0.018 0.031 0.029 0.006 -0.011 0.006
O11 0.052 0.083 0.107 0.05 -0.001 0.009
La11 0.0141 0.018 0.0212 0.0024 -0.0004 0.0055
O35 0.02 0.026 0.039 0.015 0.005 0.007
O37 0.022 0.053 0.037 0.017 0.009 0.026
C73 0.059 0.031 0.031 0.018 0.003 0.017
C75 0.19 0.053 0.113 0.063 0.104 0.088
C76 0.096 0.042 0.061 0.026 0.037 0.049
C77 0.33 0.14 0.16 0.12 0.17 0.19
O23 0.051 0.036 0.045 0.015 0.016 0.024
N12 0.081 0.041 0.053 -0.002 0 0.037
C3 0.015 0.014 0.03 -0.003 -0.011 -0.004
C30 0.034 0.032 0.086 -0.005 0.018 -0.018
C40 0.017 0.03 0.059 0.002 0.02 0.005
C41 0.049 0.039 0.138 0.013 0.054 -0.018
C43 0.01 0.034 0.21 0.012 -0.013 -0.011
N6 0.11 0.098 0.125 0.014 -0.007 0.057
O6 0.02 0.026 0.039 0.015 0.005 0.007
C1 0.29 0.29 0.29 0.068 0.04 0.128
C5 0.026 0.018 0.031 0.009 -0.004 0.005
C6 0.037 0.031 0.039 0.007 -0.002 0.023
C9 0.026 0.03 0.042 0.005 0.002 0.01
C10 0.041 0.035 0.047 0.01 0.001 0.024
C14 0.059 0.031 0.031 0.018 0.003 0.017
C15 0.055 0.034 0.04 0 0.004 0.028
C18 0.033 0.054 0.043 -0.004 -0.003 0.005
C22 0.065 0.042 0.038 -0.008 -0.02 0.031
C23 0.042 0.048 0.031 -0.005 -0.001 -0.01
C25 0.04 0.034 0.073 0.008 -0.01 -0.002
C27 0.039 0.054 0.051 0.004 -0.015 -0.012
C28 0.108 0.04 0.059 0.001 -0.005 0.052
C29 0.078 0.037 0.044 -0.003 0.005 0.045
C31 0.055 0.062 0.033 -0.007 -0.002 -0.028
C32 0.083 0.045 0.051 0.006 -0.009 0.033
C33 0.023 0.053 0.063 0.004 -0.002 -0.022
C35 0.19 0.053 0.113 0.063 0.104 0.088
C36 0.096 0.042 0.061 0.026 0.037 0.049
C37 0.33 0.14 0.16 0.12 0.17 0.19
C42 0.042 0.042 0.14 -0.002 -0.017 -0.009
C44 0.062 0.3 0.19 0.17 -0.041 -0.03
C45 0.24 0.24 0.24 0.056 0.041 0.107
C47 0.037 0.43 0.47 0.36 0.01 0.02
La1 0.0229 0.0215 0.0247 0.0057 -0.0009 0.0094
N2 0.056 0.066 0.042 -0.002 -0.004 -0.01
N7 0.174 0.162 0.163 0.032 0.015 0.086
N9 0.09 0.47 0.32 0.22 -0.11 -0.01
O1 0.025 0.027 0.031 0.008 0.008 0.008
O2 0.049 0.034 0.039 -0.004 -0.007 0.019
O3 0.027 0.03 0.029 0.001 -0.005 -0.001
O4 0.015 0.02 0.034 0.005 0.005 0.002
O12 0.025 0.022 0.035 -0.002 -0.001 0.009
O13 0.083 0.062 0.025 -0.002 0.006 0.058
O14 0.051 0.036 0.045 0.015 0.016 0.024
C51 0.17 0.079 0.089 0.001 -0.041 0.071
O15 0.048 0.067 0.061 0.009 -0.01 0.035
O39 0.071 0.041 0.038 0.02 0.027 0.036
C53 0.04 0.034 0.073 0.008 -0.01 -0.002
C57 0.042 0.042 0.14 -0.002 -0.017 -0.009
O16 0.025 0.027 0.031 0.008 0.008 0.008
C52 0.015 0.014 0.03 -0.003 -0.011 -0.004
C54 0.034 0.032 0.086 -0.005 0.018 -0.018
C55 0.017 0.03 0.059 0.002 0.02 0.005
C56 0.049 0.039 0.138 0.013 0.054 -0.018
C58 0.01 0.034 0.21 0.012 -0.013 -0.011
N10 0.11 0.098 0.125 0.014 -0.007 0.057
C59 0.026 0.018 0.031 0.009 -0.004 0.005
C60 0.026 0.03 0.042 0.005 0.002 0.01
C61 0.033 0.054 0.043 -0.004 -0.003 0.005
C62 0.042 0.048 0.031 -0.005 -0.001 -0.01
C63 0.039 0.054 0.051 0.004 -0.015 -0.012
C64 0.055 0.062 0.033 -0.007 -0.002 -0.028
C65 0.023 0.053 0.063 0.004 -0.002 -0.022
N11 0.056 0.066 0.042 -0.002 -0.004 -0.01
O18 0.027 0.03 0.029 0.001 -0.005 -0.001
O19 0.015 0.02 0.034 0.005 0.005 0.002
C74 0.104 0.046 0.06 0.023 0.035 0.059
C78 0.12 0.059 0.115 0.029 0.064 0.065
C79 0.19 0.081 0.18 0.099 0.12 0.1
N13 0.23 0.101 0.22 0.112 0.16 0.139
C80 0.29 0.29 0.29 0.068 0.04 0.128
C95 0.062 0.3 0.19 0.17 -0.041 -0.03
C96 0.24 0.24 0.24 0.056 0.041 0.107
C98 0.037 0.43 0.47 0.36 0.01 0.02
N16 0.174 0.162 0.163 0.032 0.015 0.086
N18 0.09 0.47 0.32 0.22 -0.11 -0.01
O24 0.049 0.034 0.039 -0.004 -0.007 0.019
C102 0.17 0.079 0.089 0.001 -0.041 0.071
O30 0.048 0.067 0.061 0.009 -0.01 0.035
O33 0.014 0.029 0.039 0.009 0.01 0.011
C81 0.021 0.054 0.019 0.006 0.007 0.013
C83 0.024 0.035 0.035 0.003 0.002 0.019
C84 0.023 0.053 0.035 0.01 -0.005 0.018
C85 0.027 0.051 0.035 0.003 -0.006 0.022
C86 0.03 0.054 0.034 -0.013 -0.001 0.03
C87 0.019 0.058 0.045 0.013 0.004 0.017
C89 0.028 0.067 0.046 -0.001 -0.006 0.031
C90 0.025 0.06 0.062 0.006 -0.007 0.03
C91 0.039 0.09 0.049 0 -0.016 0.038
C92 0.047 0.088 0.042 -0.004 0.001 0.056
C93 0.032 0.137 0.045 -0.006 -0.004 0.053
C94 0.057 0.19 0.036 -0.034 -0.022 0.081
C97 0.35 0.3 0.24 0.15 0.16 0.29
C99 0.36 0.35 0.35 0.089 0.038 0.16
C100 0.32 0.33 0.33 0.082 0.043 0.14
C101 0.33 0.33 0.32 0.078 0.05 0.14
N14 0.034 0.078 0.048 0.01 -0.001 0.039
N15 0.029 0.096 0.056 -0.003 -0.014 0.039
N17 0.23 0.24 0.24 0.055 0.02 0.101
O27 0.048 0.17 0.024 0.021 0.011 0.063
O28 0.018 0.031 0.029 0.006 -0.011 0.006
O29 0.052 0.083 0.107 0.05 -0.001 0.009
C82 0.016 0.022 0.036 0.007 -0.002 0.004
C88 0.026 0.051 0.055 0.001 -0.011 0.019
loop_
_geom_bond_atom_site_label_1
_geom_bond_atom_site_label_2
_geom_bond_site_symmetry_1
_geom_bond_site_symmetry_2
C66 C68 1_555 1_555
C67 H54 1_555 1_555
C68 C67 1_555 1_555
C69 C67 1_555 1_555
C70 H56 1_555 1_555
C71 C69 1_555 1_555
C72 C68 1_555 1_555
H57 C72 1_555 1_555
O20 C66 1_555 1_555
O21 C66 1_555 1_555
La8 O20 1_555 1_555
La16 O20 1_555 1_555
C70 C71 1_555 1_555
C70 C72 1_555 1_555
O21 La8 1_555 1_555
H8 C16 1_555 1_555
O7 C4 1_555 1_555
C2 C8 1_555 1_555
C7 C12 1_555 1_555
C8 C11 1_555 1_555
C11 H5 1_555 1_555
C12 H6 1_555 1_555
C13 C11 1_555 1_555
H7 C13 1_555 1_555
C17 C13 1_555 1_555
C19 C20 1_555 1_555
C20 C12 1_555 1_555
H10 C20 1_555 1_555
C24 H14 1_555 1_555
C26 C8 1_555 1_555
H16 C26 1_555 1_555
C34 C17 1_555 1_555
H22 C34 1_555 1_555
C38 C24 1_555 1_555
H25 C38 1_555 1_555
H33 C46 1_555 1_555
H34 C46 1_555 1_555
C48 H38 1_555 1_555
C49 H39 1_555 1_555
H40 C49 1_555 1_555
H41 C49 1_555 1_555
C50 H42 1_555 1_555
H43 C50 1_555 1_555
H44 C50 1_555 1_555
N1 C19 1_555 1_555
N4 C17 1_555 1_555
N5 C39 1_555 1_555
N8 C48 1_555 1_555
O9 C2 1_555 1_555
O10 C2 1_555 1_555
O11 C48 1_555 1_555
La8 O8 1_555 1_555
La11 O5 1_555 1_555
C19 C21 1_555 1_555
C26 C34 1_555 1_555
C38 C39 1_555 1_555
C49 N8 1_555 1_555
C50 N8 1_555 1_555
N1 N4 1_555 1_555
C73 C76 1_555 1_555
C75 H59 1_555 1_555
C77 C75 1_555 1_555
H60 C77 1_555 1_555
O23 C73 1_555 1_555
La8 O23 1_555 1_555
C75 C76 1_555 1_555
C3 C40 1_555 1_555
C30 H18 1_555 1_555
C41 C30 1_555 1_555
H26 C41 1_555 1_555
C43 C41 1_555 1_555
N6 C43 1_555 1_555
O6 C3 1_555 1_555
C30 C40 1_555 1_555
C1 H1 1_555 1_555
H2 C1 1_555 1_555
H3 C1 1_555 1_555
C5 C9 1_555 1_555
C6 C15 1_555 1_555
C9 C18 1_555 1_555
C10 H4 1_555 1_555
C14 C36 1_555 1_555
C15 C10 1_555 1_555
C18 H9 1_555 1_555
C22 C10 1_555 1_555
C23 C9 1_555 1_555
H13 C23 1_555 1_555
C25 H15 1_555 1_555
C27 C31 1_555 1_555
C28 H17 1_555 1_555
C29 C22 1_555 1_555
C31 C23 1_555 1_555
H19 C31 1_555 1_555
C32 C15 1_555 1_555
H20 C32 1_555 1_555
C33 C18 1_555 1_555
H21 C33 1_555 1_555
C35 H23 1_555 1_555
C37 C35 1_555 1_555
H24 C37 1_555 1_555
C42 C25 1_555 1_555
H27 C42 1_555 1_555
C44 H28 1_555 1_555
C45 H29 1_555 1_555
H30 C45 1_555 1_555
H31 C45 1_555 1_555
C47 H35 1_555 1_555
H36 C47 1_555 1_555
H37 C47 1_555 1_555
La1 O4 1_555 1_555
La11 O1 1_555 1_555
N2 C27 1_555 1_555
N7 C45 1_555 1_555
N9 C1 1_555 1_555
O2 La11 1_555 1_555
O3 C5 1_555 1_555
O4 C5 1_555 1_555
O12 C6 1_555 1_555
O13 C6 1_555 1_555
O14 C14 1_555 1_555
C51 N7 1_555 1_555
O15 C44 1_555 1_555
O39 La1 1_555 1_555
C27 C33 1_555 1_555
C28 C29 1_555 1_555
C28 C32 1_555 1_555
C35 C36 1_555 1_555
C44 N9 1_555 1_555
C47 N9 1_555 1_555
La1 O12 1_555 1_555
La1 O13 1_555 1_555
La1 O14 1_555 1_555
La1 O15 1_555 1_555
La11 O3 1_555 1_555
La11 O4 1_555 1_555
La11 O12 1_555 1_555
O2 C51 1_555 1_555
C53 H46 1_555 1_555
C57 C53 1_555 1_555
H49 C57 1_555 1_555
La16 O16 1_555 1_555
C52 C55 1_555 1_555
C54 H47 1_555 1_555
C56 C54 1_555 1_555
H48 C56 1_555 1_555
C58 C56 1_555 1_555
O35 C52 1_555 1_555
C59 C60 1_555 1_555
C60 C61 1_555 1_555
C61 H50 1_555 1_555
C62 C60 1_555 1_555
H51 C62 1_555 1_555
C63 C64 1_555 1_555
C64 C62 1_555 1_555
H52 C64 1_555 1_555
C65 C61 1_555 1_555
H53 C65 1_555 1_555
O18 C59 1_555 1_555
O19 C59 1_555 1_555
C74 H58 1_555 1_555
C78 C74 1_555 1_555
H61 C78 1_555 1_555
C80 H62 1_555 1_555
H63 C80 1_555 1_555
H64 C80 1_555 1_555
C95 H73 1_555 1_555
C96 H74 1_555 1_555
H75 C96 1_555 1_555
H76 C96 1_555 1_555
C98 H80 1_555 1_555
H81 C98 1_555 1_555
H82 C98 1_555 1_555
La8 O19 1_555 1_555
La16 O18 1_555 1_555
N16 C96 1_555 1_555
N18 C80 1_555 1_555
O24 La16 1_555 1_555
C102 N16 1_555 1_555
O30 C95 1_555 1_555
O33 La16 1_555 1_555
C54 C55 1_555 1_555
C58 N10 1_555 1_555
C63 C65 1_555 1_555
C63 N11 1_555 1_555
O19 La16 1_555 1_555
C78 C79 1_555 1_555
C79 N13 1_555 1_555
C95 N18 1_555 1_555
C98 N18 1_555 1_555
La8 O30 1_555 1_555
O24 C102 1_555 1_555
C81 C84 1_555 1_555
C83 C86 1_555 1_555
C84 C85 1_555 1_555
C85 H65 1_555 1_555
C86 H66 1_555 1_555
C87 C85 1_555 1_555
H67 C87 1_555 1_555
C89 C87 1_555 1_555
C90 C91 1_555 1_555
C91 C86 1_555 1_555
H69 C91 1_555 1_555
C93 C84 1_555 1_555
H71 C93 1_555 1_555
C94 C89 1_555 1_555
H72 C94 1_555 1_555
H78 C97 1_555 1_555
H79 C97 1_555 1_555
C99 H83 1_555 1_555
C100 H84 1_555 1_555
H85 C100 1_555 1_555
H86 C100 1_555 1_555
C101 H87 1_555 1_555
H88 C101 1_555 1_555
H89 C101 1_555 1_555
N14 C90 1_555 1_555
N15 C89 1_555 1_555
N17 C99 1_555 1_555
O27 C81 1_555 1_555
O28 C81 1_555 1_555
O29 C99 1_555 1_555
C90 C92 1_555 1_555
C93 C94 1_555 1_555
C100 N17 1_555 1_555
C101 N17 1_555 1_555
N14 N15 1_555 1_555
H68 C88 1_555 1_555
O37 C82 1_555 1_555

#END
