
###############################################################################
#
# This file contains modified crystal structure data generated from the
# MOF subset of the Cambridge Structural Database (CSD) v543 
# hosted by the Cambridge Crystallographic Data Centre (CCDC).
#
# This work is licensed under the Creative Commons
# Attribution-NonCommercial-ShareAlike 4.0 International License.
# To view a copy of this license, visit
# http://creativecommons.org/licenses/by-nc-sa/4.0/
# or send a letter to
# Creative Commons, PO Box 1866, Mountain View, CA 94042, USA.
#
# CIF created using the CSD Python API on 29 September 2022
# The structure has been converted into the P1 space group
# The structure has a 3D framework
# The original CSD entry ROLRES is in the monoclinic crystal system
# The framework has been calculated to contain at least 10.0% void space
# The void calculation uses a probe of radius 1.32A, grid spacing 0.4
# The framework is charged, counterions have been retained in the structure
#
###############################################################################

data_ROLRES
_chemical_formula_moiety         '(C228 H120 In8 O64 6-)n'
_symmetry_cell_setting           triclinic
_symmetry_space_group_name_H-M   'P 1'
_symmetry_Int_Tables_number      1
_space_group_name_Hall           'P 1'
loop_
_symmetry_equiv_pos_site_id
_symmetry_equiv_pos_as_xyz
1 x,y,z
_cell_length_a                   17.5673(3)
_cell_length_b                   25.7031(5)
_cell_length_c                   24.4991(4)
_cell_angle_alpha                90
_cell_angle_beta                 91.1550(10)
_cell_angle_gamma                90
_cell_volume                     11059.9
loop_
_atom_site_label
_atom_site_type_symbol
_atom_site_fract_x
_atom_site_fract_y
_atom_site_fract_z
O1 O 0.11289(17) 0.40086(16) 0.12383(12)
O3 O 0.16913(13) 0.35463(11) 0.18832(11)
C1 C 0.1092(2) 0.37277(17) 0.16650(14)
C4 C 0.0347(2) 0.36130(15) 0.19002(14)
C12 C 0.0301(2) 0.3515(2) 0.24585(17)
H3 H 0.0753 0.3514 0.2679
O11 O 0.11289(17) 0.59914(16) 0.12383(12)
O13 O 0.16913(13) 0.64537(11) 0.18832(11)
C30 C 0.1092(2) 0.62723(17) 0.16650(14)
C33 C 0.0347(2) 0.63870(15) 0.19002(14)
C39 C 0.0301(2) 0.6485(2) 0.24585(17)
H18 H 0.0753 0.6486 0.2679
In3 In 0.246381(11) 0.388794(9) 0.126456(8)
In5 In 0.246381(11) 0.611206(9) 0.126456(8)
O2 O 0.38069(16) 0.41802(14) 0.13501(14)
O4 O 0.33403(14) 0.34910(12) 0.17379(12)
O5 O 0.23842(14) 0.45738(10) 0.07322(9)
O6 O 0.24210(13) 0.45668(10) 0.18308(9)
C2 C 0.3897(2) 0.37933(19) 0.16444(18)
C3 C 0.6073(2) 0.34044(19) 0.23507(18)
O7 O 0.7083(3) 0.1796(3) 0.57401(17)
C5 C 0.2404(2) 0.5000 0.09649(17)
C6 C 0.4661(2) 0.36451(19) 0.18777(17)
C7 C 0.8940(2) 0.33811(17) 0.23696(15)
C8 C 0.6827(2) 0.2998(2) 0.31109(19)
H1 H 0.6360 0.2916 0.3280
C9 C 0.8195(2) 0.29710(19) 0.31074(17)
H2 H 0.8663 0.2856 0.3267
O8 O 0.8057(4) 0.1383(2) 0.54765(16)
C10 C 0.2423(2) 0.5000 0.16036(17)
C11 C 0.6814(2) 0.32658(19) 0.26152(17)
C13 C 0.7507(2) 0.33956(18) 0.23781(17)
H4 H 0.7504 0.3581 0.2042
C14 C 0.8205(2) 0.32593(19) 0.26232(17)
C15 C 0.7514(2) 0.2554(2) 0.38821(19)
C16 C 0.9598(2) 0.3417(2) 0.26997(19)
H5 H 0.9568 0.3376 0.3084
C17 C 0.5281(3) 0.3978(2) 0.1826(2)
H6 H 0.5223 0.4292 0.1625
C18 C 0.7509(2) 0.2848(2) 0.33625(18)
C19 C 0.5974(3) 0.3860(2) 0.2062(2)
H7 H 0.6389 0.4093 0.2025
C20 C 0.8997(2) 0.3455(3) 0.18182(19)
H8 H 0.8552 0.3433 0.1592
C21 C 0.9692(2) 0.3560(2) 0.15846(18)
H9 H 0.9718 0.3597 0.1200
C22 C 0.4763(2) 0.3189(2) 0.2155(2)
H10 H 0.4347 0.2956 0.2192
C23 C 0.7530(3) 0.2016(2) 0.48725(19)
C24 C 0.7562(3) 0.1707(3) 0.5390(2)
C25 C 0.5467(2) 0.3064(2) 0.2385(2)
H11 H 0.5533 0.2740 0.2567
C26 C 0.8079(3) 0.1898(3) 0.4477(2)
H12 H 0.8459 0.1643 0.4550
C27 C 0.8057(3) 0.2160(3) 0.3975(2)
H13 H 0.8408 0.2073 0.3700
C28 C 0.7012(3) 0.2385(3) 0.4764(2)
H14 H 0.6640 0.2456 0.5030
C29 C 0.6993(3) 0.2665(4) 0.4285(2)
H15 H 0.6627 0.2932 0.4231
O9 O 0.23842(14) 0.54262(10) 0.07322(9)
O10 O 0.24210(13) 0.54332(10) 0.18308(9)
O12 O 0.38069(16) 0.58198(14) 0.13501(14)
O14 O 0.33403(14) 0.65090(12) 0.17379(12)
C31 C 0.3897(2) 0.62067(19) 0.16444(18)
C32 C 0.6073(2) 0.65956(19) 0.23507(18)
O15 O 0.7083(3) 0.8204(3) 0.57401(17)
C34 C 0.4661(2) 0.63549(19) 0.18777(17)
C35 C 0.8940(2) 0.66189(17) 0.23696(15)
C36 C 0.6827(2) 0.7002(2) 0.31109(19)
H16 H 0.6360 0.7084 0.3280
C37 C 0.8195(2) 0.70290(19) 0.31074(17)
H17 H 0.8663 0.7144 0.3267
O16 O 0.8057(4) 0.8617(2) 0.54765(16)
C38 C 0.6814(2) 0.67342(19) 0.26152(17)
C40 C 0.7507(2) 0.66044(18) 0.23781(17)
H19 H 0.7504 0.6419 0.2042
C41 C 0.8205(2) 0.67407(19) 0.26232(17)
C42 C 0.7514(2) 0.7446(2) 0.38821(19)
C43 C 0.9598(2) 0.6583(2) 0.26997(19)
H20 H 0.9568 0.6624 0.3084
C44 C 0.5281(3) 0.6022(2) 0.1826(2)
H21 H 0.5223 0.5708 0.1625
C45 C 0.7509(2) 0.7152(2) 0.33625(18)
C46 C 0.5974(3) 0.6140(2) 0.2062(2)
H22 H 0.6389 0.5907 0.2025
C47 C 0.8997(2) 0.6545(3) 0.18182(19)
H23 H 0.8552 0.6567 0.1592
C48 C 0.9692(2) 0.6440(2) 0.15846(18)
H24 H 0.9718 0.6403 0.1200
C49 C 0.4763(2) 0.6811(2) 0.2155(2)
H25 H 0.4347 0.7044 0.2192
C50 C 0.7530(3) 0.7984(2) 0.48725(19)
C51 C 0.7562(3) 0.8293(3) 0.5390(2)
C52 C 0.5467(2) 0.6936(2) 0.2385(2)
H26 H 0.5533 0.7260 0.2567
C53 C 0.8079(3) 0.8102(3) 0.4477(2)
H27 H 0.8459 0.8357 0.4550
C54 C 0.8057(3) 0.7840(3) 0.3975(2)
H28 H 0.8408 0.7927 0.3700
C55 C 0.7012(3) 0.7615(3) 0.4764(2)
H29 H 0.6640 0.7544 0.5030
C56 C 0.6993(3) 0.7335(4) 0.4285(2)
H30 H 0.6627 0.7068 0.4231
In4 In 0.746381(11) 0.888794(9) 0.626456(8)
In6 In 0.746381(11) 0.111206(9) 0.626456(8)
O21 O 0.2083(3) 0.6796(3) 0.07401(17)
O22 O 0.2083(3) 0.3204(3) 0.07401(17)
O23 O 0.3057(4) 0.6383(2) 0.04765(16)
O24 O 0.3057(4) 0.3617(2) 0.04765(16)
C51_2 C 0.2562(3) 0.3293(3) 0.0390(2)
H29_2 H 0.1640 0.2544 0.0030
O11_2 O 0.61289(17) 0.09914(16) 0.62383(12)
O13_2 O 0.66913(13) 0.14537(11) 0.68832(11)
C30_2 C 0.6092(2) 0.12723(17) 0.66650(14)
C32_2 C 0.1073(2) 0.15956(19) 0.73507(18)
C33_2 C 0.5347(2) 0.13870(15) 0.69002(14)
C35_2 C 0.3940(2) 0.16189(17) 0.73696(15)
C36_2 C 0.1827(2) 0.2002(2) 0.81109(19)
H16_2 H 0.1360 0.2084 0.8280
C37_2 C 0.3195(2) 0.20290(19) 0.81074(17)
H17_2 H 0.3663 0.2144 0.8267
C38_2 C 0.1814(2) 0.17342(19) 0.76152(17)
C39_2 C 0.5301(2) 0.1485(2) 0.74585(17)
H18_2 H 0.5753 0.1486 0.7679
C40_2 C 0.2507(2) 0.16044(18) 0.73781(17)
H19_2 H 0.2504 0.1419 0.7042
C41_2 C 0.3205(2) 0.17407(19) 0.76232(17)
C42_2 C 0.2514(2) 0.2446(2) 0.88821(19)
C43_2 C 0.4598(2) 0.1583(2) 0.76997(19)
H20_2 H 0.4568 0.1624 0.8084
C44_2 C 0.0281(3) 0.1022(2) 0.6826(2)
H21_2 H 0.0223 0.0708 0.6625
C45_2 C 0.2509(2) 0.2152(2) 0.83625(18)
C46_2 C 0.0974(3) 0.1140(2) 0.7062(2)
H22_2 H 0.1389 0.0907 0.7025
C47_2 C 0.3997(2) 0.1545(3) 0.68182(19)
H23_2 H 0.3552 0.1567 0.6592
C48_2 C 0.4692(2) 0.1440(2) 0.65846(18)
H24_2 H 0.4718 0.1403 0.6200
C50_2 C 0.2530(3) 0.2984(2) 0.98725(19)
C52_2 C 0.0467(2) 0.1936(2) 0.7385(2)
H26_2 H 0.0533 0.2260 0.7567
C53_2 C 0.3079(3) 0.3102(3) 0.9477(2)
H27_2 H 0.3459 0.3357 0.9550
C54_2 C 0.3057(3) 0.2840(3) 0.8975(2)
H28_2 H 0.3408 0.2927 0.8700
C55_2 C 0.2012(3) 0.2615(3) 0.9764(2)
C56_2 C 0.1993(3) 0.2335(4) 0.9285(2)
H30_2 H 0.1627 0.2068 0.9231
C24_2 C 0.2562(3) 0.6707(3) 0.0390(2)
H14_2 H 0.1640 0.7456 0.0030
O1_2 O 0.61289(17) 0.90086(16) 0.62383(12)
O3_2 O 0.66913(13) 0.85463(11) 0.68832(11)
C1_2 C 0.6092(2) 0.87277(17) 0.66650(14)
C3_2 C 0.1073(2) 0.84044(19) 0.73507(18)
C4_2 C 0.5347(2) 0.86130(15) 0.69002(14)
C7_2 C 0.3940(2) 0.83811(17) 0.73696(15)
C8_2 C 0.1827(2) 0.7998(2) 0.81109(19)
H1_2 H 0.1360 0.7916 0.8280
C9_2 C 0.3195(2) 0.79710(19) 0.81074(17)
H2_2 H 0.3663 0.7856 0.8267
C11_2 C 0.1814(2) 0.82658(19) 0.76152(17)
C12_2 C 0.5301(2) 0.8515(2) 0.74585(17)
H3_2 H 0.5753 0.8514 0.7679
C13_2 C 0.2507(2) 0.83956(18) 0.73781(17)
H4_2 H 0.2504 0.8581 0.7042
C14_2 C 0.3205(2) 0.82593(19) 0.76232(17)
C15_2 C 0.2514(2) 0.7554(2) 0.88821(19)
C16_2 C 0.4598(2) 0.8417(2) 0.76997(19)
H5_2 H 0.4568 0.8376 0.8084
C17_2 C 0.0281(3) 0.8978(2) 0.6826(2)
H6_2 H 0.0223 0.9292 0.6625
C18_2 C 0.2509(2) 0.7848(2) 0.83625(18)
C19_2 C 0.0974(3) 0.8860(2) 0.7062(2)
H7_2 H 0.1389 0.9093 0.7025
C20_2 C 0.3997(2) 0.8455(3) 0.68182(19)
H8_2 H 0.3552 0.8433 0.6592
C21_2 C 0.4692(2) 0.8560(2) 0.65846(18)
H9_2 H 0.4718 0.8597 0.6200
C23_2 C 0.2530(3) 0.7016(2) 0.98725(19)
C25_2 C 0.0467(2) 0.8064(2) 0.7385(2)
H11_2 H 0.0533 0.7740 0.7567
C26_2 C 0.3079(3) 0.6898(3) 0.9477(2)
H12_2 H 0.3459 0.6643 0.9550
C27_2 C 0.3057(3) 0.7160(3) 0.8975(2)
H13_2 H 0.3408 0.7073 0.8700
C28_2 C 0.2012(3) 0.7385(3) 0.9764(2)
C29_2 C 0.1993(3) 0.7665(4) 0.9285(2)
H15_2 H 0.1627 0.7932 0.9231
C5_2 C 0.7404(2) -0.0000 0.59649(17)
C10_2 C 0.7423(2) -0.0000 0.66036(17)
O9_2 O 0.73842(14) 0.04262(10) 0.57322(9)
O10_2 O 0.74210(13) 0.04332(10) 0.68308(9)
O12_2 O 0.88069(16) 0.08198(14) 0.63501(14)
O14_2 O 0.83403(14) 0.15090(12) 0.67379(12)
C31_2 C 0.8897(2) 0.12067(19) 0.66444(18)
C34_2 C 0.9661(2) 0.13549(19) 0.68777(17)
C49_2 C 0.9763(2) 0.1811(2) 0.7155(2)
H25_2 H 0.9347 0.2044 0.7192
O2_2 O 0.88069(16) 0.91802(14) 0.63501(14)
O4_2 O 0.83403(14) 0.84910(12) 0.67379(12)
O5_2 O 0.73842(14) 0.95738(10) 0.57322(9)
O6_2 O 0.74210(13) 0.95668(10) 0.68308(9)
C2_2 C 0.8897(2) 0.87933(19) 0.66444(18)
C5_3 C 0.7404(2) 1.0000 0.59649(17)
C6_2 C 0.9661(2) 0.86451(19) 0.68777(17)
C10_3 C 0.7423(2) 1.0000 0.66036(17)
C22_2 C 0.9763(2) 0.8189(2) 0.7155(2)
H10_2 H 0.9347 0.7956 0.7192
In1 In 0.753619(11) 0.388794(9) 0.873544(8)
O2_3 O 0.61931(16) 0.41802(14) 0.86499(14)
O4_3 O 0.66597(14) 0.34910(12) 0.82621(12)
O5_3 O 0.76158(14) 0.45738(10) 0.92678(9)
O6_3 O 0.75790(13) 0.45668(10) 0.81692(9)
C2_3 C 0.6103(2) 0.37933(19) 0.83556(18)
C3_3 C 0.3927(2) 0.34044(19) 0.76493(18)
O7_2 O 0.2917(3) 0.1796(3) 0.42599(17)
C5_4 C 0.7596(2) 0.5000 0.90351(17)
C6_3 C 0.5339(2) 0.36451(19) 0.81223(17)
C7_3 C 0.1060(2) 0.33811(17) 0.76304(15)
C8_3 C 0.3173(2) 0.2998(2) 0.68891(19)
H1_3 H 0.3640 0.2916 0.6720
C9_3 C 0.1805(2) 0.29710(19) 0.68926(17)
H2_3 H 0.1337 0.2856 0.6733
O8_2 O 0.1943(4) 0.1383(2) 0.45235(16)
C10_4 C 0.7577(2) 0.5000 0.83964(17)
C11_3 C 0.3186(2) 0.32658(19) 0.73848(17)
C13_3 C 0.2493(2) 0.33956(18) 0.76219(17)
H4_3 H 0.2496 0.3581 0.7958
C14_3 C 0.1795(2) 0.32593(19) 0.73768(17)
C15_3 C 0.2486(2) 0.2554(2) 0.61179(19)
C16_3 C 0.0402(2) 0.3417(2) 0.73003(19)
H5_3 H 0.0432 0.3376 0.6916
C17_3 C 0.4719(3) 0.3978(2) 0.8174(2)
H6_3 H 0.4777 0.4292 0.8375
C18_3 C 0.2491(2) 0.2848(2) 0.66375(18)
C19_3 C 0.4026(3) 0.3860(2) 0.7938(2)
H7_3 H 0.3611 0.4093 0.7975
C20_3 C 0.1003(2) 0.3455(3) 0.81818(19)
H8_3 H 0.1448 0.3433 0.8408
C21_3 C 0.0308(2) 0.3560(2) 0.84154(18)
H9_3 H 0.0282 0.3597 0.8800
C22_3 C 0.5237(2) 0.3189(2) 0.7845(2)
H10_3 H 0.5653 0.2956 0.7808
C23_3 C 0.2470(3) 0.2016(2) 0.51275(19)
C24_3 C 0.2438(3) 0.1707(3) 0.4610(2)
C25_3 C 0.4533(2) 0.3064(2) 0.7615(2)
H11_3 H 0.4467 0.2740 0.7433
C26_3 C 0.1921(3) 0.1898(3) 0.5523(2)
H12_3 H 0.1541 0.1643 0.5450
C27_3 C 0.1943(3) 0.2160(3) 0.6025(2)
H13_3 H 0.1592 0.2073 0.6300
C28_3 C 0.2988(3) 0.2385(3) 0.5236(2)
H14_3 H 0.3360 0.2456 0.4970
C29_3 C 0.3007(3) 0.2665(4) 0.5715(2)
H15_3 H 0.3373 0.2932 0.5769
O9_3 O 0.76158(14) 0.54262(10) 0.92678(9)
O10_3 O 0.75790(13) 0.54332(10) 0.81692(9)
In2 In 0.753619(11) 0.611206(9) 0.873544(8)
O12_3 O 0.61931(16) 0.58198(14) 0.86499(14)
O14_3 O 0.66597(14) 0.65090(12) 0.82621(12)
C31_3 C 0.6103(2) 0.62067(19) 0.83556(18)
C32_3 C 0.3927(2) 0.65956(19) 0.76493(18)
O15_2 O 0.2917(3) 0.8204(3) 0.42599(17)
C34_3 C 0.5339(2) 0.63549(19) 0.81223(17)
C35_3 C 0.1060(2) 0.66189(17) 0.76304(15)
C36_3 C 0.3173(2) 0.7002(2) 0.68891(19)
H16_3 H 0.3640 0.7084 0.6720
C37_3 C 0.1805(2) 0.70290(19) 0.68926(17)
H17_3 H 0.1337 0.7144 0.6733
O16_2 O 0.1943(4) 0.8617(2) 0.45235(16)
C38_3 C 0.3186(2) 0.67342(19) 0.73848(17)
C40_3 C 0.2493(2) 0.66044(18) 0.76219(17)
H19_3 H 0.2496 0.6419 0.7958
C41_3 C 0.1795(2) 0.67407(19) 0.73768(17)
C42_3 C 0.2486(2) 0.7446(2) 0.61179(19)
C43_3 C 0.0402(2) 0.6583(2) 0.73003(19)
H20_3 H 0.0432 0.6624 0.6916
C44_3 C 0.4719(3) 0.6022(2) 0.8174(2)
H21_3 H 0.4777 0.5708 0.8375
C45_3 C 0.2491(2) 0.7152(2) 0.66375(18)
C46_3 C 0.4026(3) 0.6140(2) 0.7938(2)
H22_3 H 0.3611 0.5907 0.7975
C47_3 C 0.1003(2) 0.6545(3) 0.81818(19)
H23_3 H 0.1448 0.6567 0.8408
C48_3 C 0.0308(2) 0.6440(2) 0.84154(18)
H24_3 H 0.0282 0.6403 0.8800
C49_3 C 0.5237(2) 0.6811(2) 0.7845(2)
H25_3 H 0.5653 0.7044 0.7808
C50_3 C 0.2470(3) 0.7984(2) 0.51275(19)
C51_3 C 0.2438(3) 0.8293(3) 0.4610(2)
C52_3 C 0.4533(2) 0.6936(2) 0.7615(2)
H26_3 H 0.4467 0.7260 0.7433
C53_3 C 0.1921(3) 0.8102(3) 0.5523(2)
H27_3 H 0.1541 0.8357 0.5450
C54_3 C 0.1943(3) 0.7840(3) 0.6025(2)
H28_3 H 0.1592 0.7927 0.6300
C55_3 C 0.2988(3) 0.7615(3) 0.5236(2)
H29_3 H 0.3360 0.7544 0.4970
C56_3 C 0.3007(3) 0.7335(4) 0.5715(2)
H30_3 H 0.3373 0.7068 0.5769
In4_2 In 0.253619(11) 0.888794(9) 0.373544(8)
In6_2 In 0.253619(11) 0.111206(9) 0.373544(8)
O17 O 0.88711(17) 0.40086(16) 0.87617(12)
O18 O 0.88711(17) 0.59914(16) 0.87617(12)
O19 O 0.83087(13) 0.35463(11) 0.81168(11)
O20 O 0.83087(13) 0.64537(11) 0.81168(11)
O21_2 O 0.7917(3) 0.6796(3) 0.92599(17)
O22_2 O 0.7917(3) 0.3204(3) 0.92599(17)
O23_2 O 0.6943(4) 0.6383(2) 0.95235(16)
O24_2 O 0.6943(4) 0.3617(2) 0.95235(16)
C1_3 C 0.8908(2) 0.37277(17) 0.83350(14)
C4_3 C 0.9653(2) 0.36130(15) 0.80998(14)
C12_3 C 0.9699(2) 0.3515(2) 0.75415(17)
H3_3 H 0.9247 0.3514 0.7321
C30_3 C 0.8908(2) 0.62723(17) 0.83350(14)
C33_3 C 0.9653(2) 0.63870(15) 0.80998(14)
C39_3 C 0.9699(2) 0.6485(2) 0.75415(17)
H18_3 H 0.9247 0.6486 0.7321
C5_5 C 0.2596(2) -0.0000 0.40351(17)
C10_5 C 0.2577(2) -0.0000 0.33964(17)
O9_4 O 0.26158(14) 0.04262(10) 0.42678(9)
O10_4 O 0.25790(13) 0.04332(10) 0.31692(9)
O12_4 O 0.11931(16) 0.08198(14) 0.36499(14)
O14_4 O 0.16597(14) 0.15090(12) 0.32621(12)
C31_4 C 0.1103(2) 0.12067(19) 0.33556(18)
C34_4 C 0.0339(2) 0.13549(19) 0.31223(17)
C49_4 C 0.0237(2) 0.1811(2) 0.2845(2)
H25_4 H 0.0653 0.2044 0.2808
O18_2 O 0.38711(17) 0.09914(16) 0.37617(12)
O20_2 O 0.33087(13) 0.14537(11) 0.31168(11)
O2_4 O 0.11931(16) 0.91802(14) 0.36499(14)
O4_4 O 0.16597(14) 0.84910(12) 0.32621(12)
O5_4 O 0.26158(14) 0.95738(10) 0.42678(9)
O6_4 O 0.25790(13) 0.95668(10) 0.31692(9)
C2_4 C 0.1103(2) 0.87933(19) 0.33556(18)
C5_6 C 0.2596(2) 1.0000 0.40351(17)
C6_4 C 0.0339(2) 0.86451(19) 0.31223(17)
C10_6 C 0.2577(2) 1.0000 0.33964(17)
C22_4 C 0.0237(2) 0.8189(2) 0.2845(2)
H10_4 H 0.0653 0.7956 0.2808
O17_2 O 0.38711(17) 0.90086(16) 0.37617(12)
O19_2 O 0.33087(13) 0.85463(11) 0.31168(11)
C30_4 C 0.3908(2) 0.12723(17) 0.33350(14)
C32_4 C 0.8927(2) 0.15956(19) 0.26493(18)
C33_4 C 0.4653(2) 0.13870(15) 0.30998(14)
C35_4 C 0.6060(2) 0.16189(17) 0.26304(15)
C36_4 C 0.8173(2) 0.2002(2) 0.18891(19)
H16_4 H 0.8640 0.2084 0.1720
C37_4 C 0.6805(2) 0.20290(19) 0.18926(17)
H17_4 H 0.6337 0.2144 0.1733
C38_4 C 0.8186(2) 0.17342(19) 0.23848(17)
C39_4 C 0.4699(2) 0.1485(2) 0.25415(17)
H18_4 H 0.4247 0.1486 0.2321
C40_4 C 0.7493(2) 0.16044(18) 0.26219(17)
H19_4 H 0.7496 0.1419 0.2958
C41_4 C 0.6795(2) 0.17407(19) 0.23768(17)
C42_4 C 0.7486(2) 0.2446(2) 0.11179(19)
C43_4 C 0.5402(2) 0.1583(2) 0.23003(19)
H20_4 H 0.5432 0.1624 0.1916
C44_4 C 0.9719(3) 0.1022(2) 0.3174(2)
H21_4 H 0.9777 0.0708 0.3375
C45_4 C 0.7491(2) 0.2152(2) 0.16375(18)
C46_4 C 0.9026(3) 0.1140(2) 0.2938(2)
H22_4 H 0.8611 0.0907 0.2975
C47_4 C 0.6003(2) 0.1545(3) 0.31818(19)
H23_4 H 0.6448 0.1567 0.3408
C48_4 C 0.5308(2) 0.1440(2) 0.34154(18)
H24_4 H 0.5282 0.1403 0.3800
C50_4 C 0.7470(3) 0.2984(2) 0.01275(19)
C52_4 C 0.9533(2) 0.1936(2) 0.2615(2)
H26_4 H 0.9467 0.2260 0.2433
C53_4 C 0.6921(3) 0.3102(3) 0.0523(2)
H27_4 H 0.6541 0.3357 0.0450
C54_4 C 0.6943(3) 0.2840(3) 0.1025(2)
H28_4 H 0.6592 0.2927 0.1300
C55_4 C 0.7988(3) 0.2615(3) 0.0236(2)
C56_4 C 0.8007(3) 0.2335(4) 0.0715(2)
H30_4 H 0.8373 0.2068 0.0769
C51_4 C 0.7438(3) 0.3293(3) 0.9610(2)
H29_4 H 0.8360 0.2544 0.9970
C1_4 C 0.3908(2) 0.87277(17) 0.33350(14)
C3_4 C 0.8927(2) 0.84044(19) 0.26493(18)
C4_4 C 0.4653(2) 0.86130(15) 0.30998(14)
C7_4 C 0.6060(2) 0.83811(17) 0.26304(15)
C8_4 C 0.8173(2) 0.7998(2) 0.18891(19)
H1_4 H 0.8640 0.7916 0.1720
C9_4 C 0.6805(2) 0.79710(19) 0.18926(17)
H2_4 H 0.6337 0.7856 0.1733
C11_4 C 0.8186(2) 0.82658(19) 0.23848(17)
C12_4 C 0.4699(2) 0.8515(2) 0.25415(17)
H3_4 H 0.4247 0.8514 0.2321
C13_4 C 0.7493(2) 0.83956(18) 0.26219(17)
H4_4 H 0.7496 0.8581 0.2958
C14_4 C 0.6795(2) 0.82593(19) 0.23768(17)
C15_4 C 0.7486(2) 0.7554(2) 0.11179(19)
C16_4 C 0.5402(2) 0.8417(2) 0.23003(19)
H5_4 H 0.5432 0.8376 0.1916
C17_4 C 0.9719(3) 0.8978(2) 0.3174(2)
H6_4 H 0.9777 0.9292 0.3375
C18_4 C 0.7491(2) 0.7848(2) 0.16375(18)
C19_4 C 0.9026(3) 0.8860(2) 0.2938(2)
H7_4 H 0.8611 0.9093 0.2975
C20_4 C 0.6003(2) 0.8455(3) 0.31818(19)
H8_4 H 0.6448 0.8433 0.3408
C21_4 C 0.5308(2) 0.8560(2) 0.34154(18)
H9_4 H 0.5282 0.8597 0.3800
C23_4 C 0.7470(3) 0.7016(2) 0.01275(19)
C25_4 C 0.9533(2) 0.8064(2) 0.2615(2)
H11_4 H 0.9467 0.7740 0.2433
C26_4 C 0.6921(3) 0.6898(3) 0.0523(2)
H12_4 H 0.6541 0.6643 0.0450
C27_4 C 0.6943(3) 0.7160(3) 0.1025(2)
H13_4 H 0.6592 0.7073 0.1300
C28_4 C 0.7988(3) 0.7385(3) 0.0236(2)
C29_4 C 0.8007(3) 0.7665(4) 0.0715(2)
H15_4 H 0.8373 0.7932 0.0769
C24_4 C 0.7438(3) 0.6707(3) 0.9610(2)
H14_4 H 0.8360 0.7456 0.9970
loop_
_geom_bond_atom_site_label_1
_geom_bond_atom_site_label_2
_geom_bond_site_symmetry_1
_geom_bond_site_symmetry_2
O1 C1 1_555 1_555
O3 C1 1_555 1_555
C1 C4 1_555 1_555
C4 C12 1_555 1_555
C12 H3 1_555 1_555
O11 C30 1_555 1_555
O13 C30 1_555 1_555
C30 C33 1_555 1_555
C33 C39 1_555 1_555
C39 H18 1_555 1_555
In3 O1 1_555 1_555
In5 O11 1_555 1_555
O3 In3 1_555 1_555
O13 In5 1_555 1_555
In3 O2 1_555 1_555
O2 C2 1_555 1_555
O4 In3 1_555 1_555
O5 In3 1_555 1_555
O6 In3 1_555 1_555
C2 O4 1_555 1_555
C3 C11 1_555 1_555
O7 C24 1_555 1_555
C5 O5 1_555 1_555
C6 C2 1_555 1_555
C7 C14 1_555 1_555
C8 H1 1_555 1_555
C9 H2 1_555 1_555
O8 C24 1_555 1_555
C10 O6 1_555 1_555
C11 C8 1_555 1_555
C13 C11 1_555 1_555
H4 C13 1_555 1_555
C14 C9 1_555 1_555
C15 C18 1_555 1_555
C16 C7 1_555 1_555
H5 C16 1_555 1_555
C17 C6 1_555 1_555
H6 C17 1_555 1_555
C18 C8 1_555 1_555
C19 C3 1_555 1_555
H7 C19 1_555 1_555
C20 C7 1_555 1_555
H8 C20 1_555 1_555
H9 C21 1_555 1_555
C22 C6 1_555 1_555
H10 C22 1_555 1_555
C23 C24 1_555 1_555
C25 C3 1_555 1_555
H11 C25 1_555 1_555
C26 C23 1_555 1_555
H12 C26 1_555 1_555
C27 C15 1_555 1_555
H13 C27 1_555 1_555
C28 C23 1_555 1_555
H14 C28 1_555 1_555
C29 C15 1_555 1_555
H15 C29 1_555 1_555
O9 C5 1_555 1_555
O10 C10 1_555 1_555
In5 O9 1_555 1_555
O12 In5 1_555 1_555
O14 In5 1_555 1_555
C31 O12 1_555 1_555
C32 C38 1_555 1_555
O15 C51 1_555 1_555
C34 C31 1_555 1_555
C35 C41 1_555 1_555
C36 H16 1_555 1_555
C37 H17 1_555 1_555
O16 C51 1_555 1_555
C38 C36 1_555 1_555
C40 C38 1_555 1_555
H19 C40 1_555 1_555
C41 C37 1_555 1_555
C42 C45 1_555 1_555
C43 C35 1_555 1_555
H20 C43 1_555 1_555
C44 C34 1_555 1_555
H21 C44 1_555 1_555
C45 C36 1_555 1_555
C46 C32 1_555 1_555
H22 C46 1_555 1_555
C47 C35 1_555 1_555
H23 C47 1_555 1_555
H24 C48 1_555 1_555
C49 C34 1_555 1_555
H25 C49 1_555 1_555
C50 C51 1_555 1_555
C52 C32 1_555 1_555
H26 C52 1_555 1_555
C53 C50 1_555 1_555
H27 C53 1_555 1_555
C54 C42 1_555 1_555
H28 C54 1_555 1_555
C55 C50 1_555 1_555
H29 C55 1_555 1_555
C56 C42 1_555 1_555
H30 C56 1_555 1_555
In4 O15 1_555 1_555
In6 O7 1_555 1_555
O21 In5 1_555 1_555
O22 In3 1_555 1_555
O23 In5 1_555 1_555
O24 In3 1_555 1_555
C5 C10 1_555 1_555
C9 C18 1_555 1_555
O8 In6 1_555 1_555
C13 C14 1_555 1_555
C17 C19 1_555 1_555
C20 C21 1_555 1_555
C22 C25 1_555 1_555
C26 C27 1_555 1_555
C28 C29 1_555 1_555
O10 In5 1_555 1_555
O14 C31 1_555 1_555
C37 C45 1_555 1_555
O16 In4 1_555 1_555
C40 C41 1_555 1_555
C44 C46 1_555 1_555
C47 C48 1_555 1_555
C49 C52 1_555 1_555
C53 C54 1_555 1_555
C55 C56 1_555 1_555
O22 C51_2 1_555 1_555
O24 C51_2 1_555 1_555
O11_2 C30_2 1_555 1_555
O13_2 C30_2 1_555 1_555
C30_2 C33_2 1_555 1_555
C32_2 C38_2 1_555 1_555
C33_2 C39_2 1_555 1_555
C35_2 C41_2 1_555 1_555
C36_2 H16_2 1_555 1_555
C37_2 H17_2 1_555 1_555
C38_2 C36_2 1_555 1_555
C39_2 H18_2 1_555 1_555
C40_2 C38_2 1_555 1_555
H19_2 C40_2 1_555 1_555
C41_2 C37_2 1_555 1_555
C42_2 C45_2 1_555 1_555
C43_2 C35_2 1_555 1_555
H20_2 C43_2 1_555 1_555
H21_2 C44_2 1_555 1_555
C45_2 C36_2 1_555 1_555
C46_2 C32_2 1_555 1_555
H22_2 C46_2 1_555 1_555
C47_2 C35_2 1_555 1_555
H23_2 C47_2 1_555 1_555
C48_2 C33_2 1_555 1_555
H24_2 C48_2 1_555 1_555
C52_2 C32_2 1_555 1_555
H26_2 C52_2 1_555 1_555
C53_2 C50_2 1_555 1_555
H27_2 C53_2 1_555 1_555
C54_2 C42_2 1_555 1_555
H28_2 C54_2 1_555 1_555
C55_2 C50_2 1_555 1_555
C56_2 C42_2 1_555 1_555
H30_2 C56_2 1_555 1_555
In6 O11_2 1_555 1_555
O13_2 In6 1_555 1_555
C37_2 C45_2 1_555 1_555
C39_2 C43_2 1_555 1_555
C40_2 C41_2 1_555 1_555
C44_2 C46_2 1_555 1_555
C47_2 C48_2 1_555 1_555
C53_2 C54_2 1_555 1_555
C55_2 C56_2 1_555 1_555
O21 C24_2 1_555 1_555
O23 C24_2 1_555 1_555
O1_2 C1_2 1_555 1_555
O3_2 C1_2 1_555 1_555
C1_2 C4_2 1_555 1_555
C3_2 C11_2 1_555 1_555
C4_2 C12_2 1_555 1_555
C7_2 C14_2 1_555 1_555
C8_2 H1_2 1_555 1_555
C9_2 H2_2 1_555 1_555
C11_2 C8_2 1_555 1_555
C12_2 H3_2 1_555 1_555
C13_2 C11_2 1_555 1_555
H4_2 C13_2 1_555 1_555
C14_2 C9_2 1_555 1_555
C15_2 C18_2 1_555 1_555
C16_2 C7_2 1_555 1_555
H5_2 C16_2 1_555 1_555
H6_2 C17_2 1_555 1_555
C18_2 C8_2 1_555 1_555
C19_2 C3_2 1_555 1_555
H7_2 C19_2 1_555 1_555
C20_2 C7_2 1_555 1_555
H8_2 C20_2 1_555 1_555
C21_2 C4_2 1_555 1_555
H9_2 C21_2 1_555 1_555
C25_2 C3_2 1_555 1_555
H11_2 C25_2 1_555 1_555
C26_2 C23_2 1_555 1_555
H12_2 C26_2 1_555 1_555
C27_2 C15_2 1_555 1_555
H13_2 C27_2 1_555 1_555
C28_2 C23_2 1_555 1_555
C29_2 C15_2 1_555 1_555
H15_2 C29_2 1_555 1_555
In4 O1_2 1_555 1_555
O3_2 In4 1_555 1_555
C9_2 C18_2 1_555 1_555
C12_2 C16_2 1_555 1_555
C13_2 C14_2 1_555 1_555
C17_2 C19_2 1_555 1_555
C20_2 C21_2 1_555 1_555
C26_2 C27_2 1_555 1_555
C28_2 C29_2 1_555 1_555
O9_2 C5_2 1_555 1_555
O10_2 C10_2 1_555 1_555
In6 O9_2 1_555 1_555
O12_2 In6 1_555 1_555
O14_2 In6 1_555 1_555
C31_2 O12_2 1_555 1_555
C34_2 C31_2 1_555 1_555
C49_2 C34_2 1_555 1_555
H25_2 C49_2 1_555 1_555
C5_2 C10_2 1_555 1_555
O10_2 In6 1_555 1_555
O14_2 C31_2 1_555 1_555
In4 O2_2 1_555 1_555
O2_2 C2_2 1_555 1_555
O4_2 In4 1_555 1_555
O5_2 In4 1_555 1_555
O6_2 In4 1_555 1_555
C2_2 O4_2 1_555 1_555
C5_3 O5_2 1_555 1_555
C6_2 C2_2 1_555 1_555
C10_3 O6_2 1_555 1_555
C22_2 C6_2 1_555 1_555
H10_2 C22_2 1_555 1_555
C5_3 C10_3 1_555 1_555
In1 O2_3 1_555 1_555
O2_3 C2_3 1_555 1_555
O4_3 In1 1_555 1_555
O5_3 In1 1_555 1_555
O6_3 In1 1_555 1_555
C2_3 O4_3 1_555 1_555
C3_3 C11_3 1_555 1_555
O7_2 C24_3 1_555 1_555
C5_4 O5_3 1_555 1_555
C6_3 C2_3 1_555 1_555
C7_3 C14_3 1_555 1_555
C8_3 H1_3 1_555 1_555
C9_3 H2_3 1_555 1_555
O8_2 C24_3 1_555 1_555
C10_4 O6_3 1_555 1_555
C11_3 C8_3 1_555 1_555
C13_3 C11_3 1_555 1_555
H4_3 C13_3 1_555 1_555
C14_3 C9_3 1_555 1_555
C15_3 C18_3 1_555 1_555
C16_3 C7_3 1_555 1_555
H5_3 C16_3 1_555 1_555
C17_3 C6_3 1_555 1_555
H6_3 C17_3 1_555 1_555
C18_3 C8_3 1_555 1_555
C19_3 C3_3 1_555 1_555
H7_3 C19_3 1_555 1_555
C20_3 C7_3 1_555 1_555
H8_3 C20_3 1_555 1_555
H9_3 C21_3 1_555 1_555
C22_3 C6_3 1_555 1_555
H10_3 C22_3 1_555 1_555
C23_3 C24_3 1_555 1_555
C25_3 C3_3 1_555 1_555
H11_3 C25_3 1_555 1_555
C26_3 C23_3 1_555 1_555
H12_3 C26_3 1_555 1_555
C27_3 C15_3 1_555 1_555
H13_3 C27_3 1_555 1_555
C28_3 C23_3 1_555 1_555
H14_3 C28_3 1_555 1_555
C29_3 C15_3 1_555 1_555
H15_3 C29_3 1_555 1_555
O9_3 C5_4 1_555 1_555
O10_3 C10_4 1_555 1_555
In2 O9_3 1_555 1_555
O12_3 In2 1_555 1_555
O14_3 In2 1_555 1_555
C31_3 O12_3 1_555 1_555
C32_3 C38_3 1_555 1_555
O15_2 C51_3 1_555 1_555
C34_3 C31_3 1_555 1_555
C35_3 C41_3 1_555 1_555
C36_3 H16_3 1_555 1_555
C37_3 H17_3 1_555 1_555
O16_2 C51_3 1_555 1_555
C38_3 C36_3 1_555 1_555
C40_3 C38_3 1_555 1_555
H19_3 C40_3 1_555 1_555
C41_3 C37_3 1_555 1_555
C42_3 C45_3 1_555 1_555
C43_3 C35_3 1_555 1_555
H20_3 C43_3 1_555 1_555
C44_3 C34_3 1_555 1_555
H21_3 C44_3 1_555 1_555
C45_3 C36_3 1_555 1_555
C46_3 C32_3 1_555 1_555
H22_3 C46_3 1_555 1_555
C47_3 C35_3 1_555 1_555
H23_3 C47_3 1_555 1_555
H24_3 C48_3 1_555 1_555
C49_3 C34_3 1_555 1_555
H25_3 C49_3 1_555 1_555
C50_3 C51_3 1_555 1_555
C52_3 C32_3 1_555 1_555
H26_3 C52_3 1_555 1_555
C53_3 C50_3 1_555 1_555
H27_3 C53_3 1_555 1_555
C54_3 C42_3 1_555 1_555
H28_3 C54_3 1_555 1_555
C55_3 C50_3 1_555 1_555
H29_3 C55_3 1_555 1_555
C56_3 C42_3 1_555 1_555
H30_3 C56_3 1_555 1_555
In4_2 O15_2 1_555 1_555
In6_2 O7_2 1_555 1_555
O17 In1 1_555 1_555
O18 In2 1_555 1_555
O19 In1 1_555 1_555
O20 In2 1_555 1_555
O21_2 In2 1_555 1_555
O22_2 In1 1_555 1_555
O23_2 In2 1_555 1_555
O24_2 In1 1_555 1_555
C5_4 C10_4 1_555 1_555
C9_3 C18_3 1_555 1_555
O8_2 In6_2 1_555 1_555
C13_3 C14_3 1_555 1_555
C17_3 C19_3 1_555 1_555
C20_3 C21_3 1_555 1_555
C22_3 C25_3 1_555 1_555
C26_3 C27_3 1_555 1_555
C28_3 C29_3 1_555 1_555
O10_3 In2 1_555 1_555
O14_3 C31_3 1_555 1_555
C37_3 C45_3 1_555 1_555
O16_2 In4_2 1_555 1_555
C40_3 C41_3 1_555 1_555
C44_3 C46_3 1_555 1_555
C47_3 C48_3 1_555 1_555
C49_3 C52_3 1_555 1_555
C53_3 C54_3 1_555 1_555
C55_3 C56_3 1_555 1_555
O17 C1_3 1_555 1_555
O19 C1_3 1_555 1_555
C1_3 C4_3 1_555 1_555
C4_3 C12_3 1_555 1_555
C12_3 H3_3 1_555 1_555
O18 C30_3 1_555 1_555
O20 C30_3 1_555 1_555
C30_3 C33_3 1_555 1_555
C33_3 C39_3 1_555 1_555
C39_3 H18_3 1_555 1_555
O9_4 C5_5 1_555 1_555
O10_4 C10_5 1_555 1_555
In6_2 O9_4 1_555 1_555
O12_4 In6_2 1_555 1_555
O14_4 In6_2 1_555 1_555
C31_4 O12_4 1_555 1_555
C34_4 C31_4 1_555 1_555
C49_4 C34_4 1_555 1_555
H25_4 C49_4 1_555 1_555
O18_2 In6_2 1_555 1_555
O20_2 In6_2 1_555 1_555
C5_5 C10_5 1_555 1_555
O10_4 In6_2 1_555 1_555
O14_4 C31_4 1_555 1_555
In4_2 O2_4 1_555 1_555
O2_4 C2_4 1_555 1_555
O4_4 In4_2 1_555 1_555
O5_4 In4_2 1_555 1_555
O6_4 In4_2 1_555 1_555
C2_4 O4_4 1_555 1_555
C5_6 O5_4 1_555 1_555
C6_4 C2_4 1_555 1_555
C10_6 O6_4 1_555 1_555
C22_4 C6_4 1_555 1_555
H10_4 C22_4 1_555 1_555
O17_2 In4_2 1_555 1_555
O19_2 In4_2 1_555 1_555
C5_6 C10_6 1_555 1_555
O18_2 C30_4 1_555 1_555
O20_2 C30_4 1_555 1_555
C30_4 C33_4 1_555 1_555
C32_4 C38_4 1_555 1_555
C33_4 C39_4 1_555 1_555
C35_4 C41_4 1_555 1_555
C36_4 H16_4 1_555 1_555
C37_4 H17_4 1_555 1_555
C38_4 C36_4 1_555 1_555
C39_4 H18_4 1_555 1_555
C40_4 C38_4 1_555 1_555
H19_4 C40_4 1_555 1_555
C41_4 C37_4 1_555 1_555
C42_4 C45_4 1_555 1_555
C43_4 C35_4 1_555 1_555
H20_4 C43_4 1_555 1_555
H21_4 C44_4 1_555 1_555
C45_4 C36_4 1_555 1_555
C46_4 C32_4 1_555 1_555
H22_4 C46_4 1_555 1_555
C47_4 C35_4 1_555 1_555
H23_4 C47_4 1_555 1_555
C48_4 C33_4 1_555 1_555
H24_4 C48_4 1_555 1_555
C52_4 C32_4 1_555 1_555
H26_4 C52_4 1_555 1_555
C53_4 C50_4 1_555 1_555
H27_4 C53_4 1_555 1_555
C54_4 C42_4 1_555 1_555
H28_4 C54_4 1_555 1_555
C55_4 C50_4 1_555 1_555
C56_4 C42_4 1_555 1_555
H30_4 C56_4 1_555 1_555
C37_4 C45_4 1_555 1_555
C39_4 C43_4 1_555 1_555
C40_4 C41_4 1_555 1_555
C44_4 C46_4 1_555 1_555
C47_4 C48_4 1_555 1_555
C53_4 C54_4 1_555 1_555
C55_4 C56_4 1_555 1_555
O22_2 C51_4 1_555 1_555
O24_2 C51_4 1_555 1_555
O17_2 C1_4 1_555 1_555
O19_2 C1_4 1_555 1_555
C1_4 C4_4 1_555 1_555
C3_4 C11_4 1_555 1_555
C4_4 C12_4 1_555 1_555
C7_4 C14_4 1_555 1_555
C8_4 H1_4 1_555 1_555
C9_4 H2_4 1_555 1_555
C11_4 C8_4 1_555 1_555
C12_4 H3_4 1_555 1_555
C13_4 C11_4 1_555 1_555
H4_4 C13_4 1_555 1_555
C14_4 C9_4 1_555 1_555
C15_4 C18_4 1_555 1_555
C16_4 C7_4 1_555 1_555
H5_4 C16_4 1_555 1_555
H6_4 C17_4 1_555 1_555
C18_4 C8_4 1_555 1_555
C19_4 C3_4 1_555 1_555
H7_4 C19_4 1_555 1_555
C20_4 C7_4 1_555 1_555
H8_4 C20_4 1_555 1_555
C21_4 C4_4 1_555 1_555
H9_4 C21_4 1_555 1_555
C25_4 C3_4 1_555 1_555
H11_4 C25_4 1_555 1_555
C26_4 C23_4 1_555 1_555
H12_4 C26_4 1_555 1_555
C27_4 C15_4 1_555 1_555
H13_4 C27_4 1_555 1_555
C28_4 C23_4 1_555 1_555
C29_4 C15_4 1_555 1_555
H15_4 C29_4 1_555 1_555
C9_4 C18_4 1_555 1_555
C12_4 C16_4 1_555 1_555
C13_4 C14_4 1_555 1_555
C17_4 C19_4 1_555 1_555
C20_4 C21_4 1_555 1_555
C26_4 C27_4 1_555 1_555
C28_4 C29_4 1_555 1_555
O21_2 C24_4 1_555 1_555
O23_2 C24_4 1_555 1_555

#END
