
###############################################################################
#
# This file contains modified crystal structure data generated from the
# MOF subset of the Cambridge Structural Database (CSD) v543 
# hosted by the Cambridge Crystallographic Data Centre (CCDC).
#
# This work is licensed under the Creative Commons
# Attribution-NonCommercial-ShareAlike 4.0 International License.
# To view a copy of this license, visit
# http://creativecommons.org/licenses/by-nc-sa/4.0/
# or send a letter to
# Creative Commons, PO Box 1866, Mountain View, CA 94042, USA.
#
# CIF created using the CSD Python API on 29 September 2022
# The structure has been converted into the P1 space group
# The structure has a 3D framework
# The original CSD entry ROLZEZ is in the triclinic crystal system
# The framework has been calculated to contain at least 10.0% void space
# The void calculation uses a probe of radius 1.32A, grid spacing 0.4
# The framework is charged, counterions have been retained in the structure
# H atom positions have been added when not included in the experimental data
#
###############################################################################

data_ROLZEZ
_chemical_formula_moiety         '(C60 H62 Eu2 N8 O20 2+)n'
_symmetry_cell_setting           triclinic
_symmetry_space_group_name_H-M   'P 1'
_symmetry_Int_Tables_number      1
_space_group_name_Hall           'P 1'
loop_
_symmetry_equiv_pos_site_id
_symmetry_equiv_pos_as_xyz
1 x,y,z
_cell_length_a                   9.5782(19)
_cell_length_b                   12.778(3)
_cell_length_c                   18.945(4)
_cell_angle_alpha                107.49(3)
_cell_angle_beta                 99.21(3)
_cell_angle_gamma                97.89(3)
_cell_volume                     2140.25
loop_
_atom_site_label
_atom_site_type_symbol
_atom_site_fract_x
_atom_site_fract_y
_atom_site_fract_z
Eu3 Eu 0.23569(3) 0.01276(3) 0.502495(17)
C8 C 0.1133(8) 0.3810(7) 0.1615(5)
H4 H 0.1019 0.3730 0.2092
H5 H 0.1425 0.4588 0.1679
H6 H 0.1855 0.3411 0.1435
H11 H 0.0653 0.5287 0.0951
C11 C 0.0692(8) 0.6626(7) 0.2234(5)
H12 H 0.1590 0.6592 0.2111
C12 C 0.0605(8) 0.7361(7) 0.2918(4)
H13 H 0.1431 0.7823 0.3255
C24 C 0.0012(8) 0.1447(6) 0.1053(4)
H22 H 0.1007 0.1695 0.1039
C28 C 0.1087(7) 0.1196(7) 0.2965(4)
H26 H 0.1926 0.1165 0.3275
C29 C 0.1131(8) 0.1301(7) 0.2268(4)
H27 H 0.1987 0.1296 0.2096
O2 O 0.0264(5) 0.8853(4) 0.4238(3)
O6 O 0.0964(5) 0.1097(4) 0.4380(3)
C1 C 0.8949(7) 0.4037(6) 0.0752(4)
C2 C 0.9692(7) 0.3329(6) 0.1036(3)
C3 C 0.9127(7) 0.2188(6) 0.0800(3)
C4 C 0.7798(7) 0.1743(6) 0.0305(3)
C5 C 0.7021(7) 0.2456(6) 0.0032(3)
C6 C 0.7609(8) 0.3594(6) 0.0239(4)
H2 H 0.7296 0.5097 0.0107
H3 H 0.5840 0.4300 0.0028
C9 C 0.7196(9) 0.0502(7) 0.0066(5)
H7 H 0.7863 0.0152 0.0306
H9 H 0.6291 0.0386 0.0216
C10 C 0.9638(9) 0.5237(6) 0.0964(4)
H10 H 0.9203 0.5537 0.0588
C13 C 0.9257(7) 0.7396(6) 0.3095(4)
C14 C 0.8064(8) 0.6676(6) 0.2594(4)
H14 H 0.7160 0.6689 0.2712
C15 C 0.8192(8) 0.5921(7) 0.1906(4)
H15 H 0.7393 0.5413 0.1577
C16 C 0.9118(8) 0.8236(6) 0.3808(4)
H23 H 0.9689 0.0693 0.0696
C25 C 0.8698(7) 0.1385(7) 0.2071(4)
H24 H 0.7888 0.1467 0.1764
C26 C 0.8589(7) 0.1242(6) 0.2746(4)
H25 H 0.7710 0.1216 0.2896
C27 C 0.9801(7) 0.1135(6) 0.3207(4)
C30 C 0.9775(8) 0.0957(6) 0.3959(4)
N1 N 0.9506(7) 0.5956(5) 0.1739(3)
N3 N 0.9956(6) 0.1411(5) 0.1840(3)
O1 O 0.7890(5) 0.8299(4) 0.3924(2)
O5 O 0.8558(5) 0.0646(4) 0.4069(3)
Eu6 Eu 0.76431(3) 0.98724(3) 0.497505(17)
C7 C 0.6774(10) 0.4338(8) 0.9902(5)
H1 H 0.6662 0.4081 0.9362
H8 H 0.7053 0.0180 0.9526
C17 C 0.5556(7) 0.2000(7) 0.9504(3)
H16 H 0.5070 0.1378 0.9623
H17 H 0.4982 0.2578 0.9590
C18 C 0.4401(7) 0.1423(6) 0.8165(4)
H18 H 0.3549 0.1541 0.8324
C19 C 0.4394(7) 0.1062(6) 0.7412(3)
H19 H 0.3539 0.0943 0.7062
C20 C 0.5648(6) 0.0869(5) 0.7161(3)
C21 C 0.6878(7) 0.1042(6) 0.7700(4)
H20 H 0.7730 0.0902 0.7548
C22 C 0.6873(7) 0.1419(6) 0.8457(4)
H21 H 0.7718 0.1542 0.8815
C23 C 0.5689(7) 0.0477(6) 0.6330(3)
N2 N 0.5631(5) 0.1611(4) 0.8681(3)
O3 O 0.4532(5) 0.0345(4) 0.5870(2)
O4 O 0.6856(5) 0.0307(4) 0.6157(2)
O7 O 0.4002(5) 0.1839(5) 0.5067(3)
H28 H 0.4620 0.2478 0.5084
O9 O 0.2110(5) 0.1701(4) 0.6076(2)
H30 H 0.329677 0.229971 0.525146
O8 O 0.2946(5) 0.8268(4) 0.4799(3)
H29 H 0.3170 0.7561 0.4713
O11 O 0.3144(5) 0.9693(4) 0.3843(2)
O12 O 0.1442(5) 0.9354(4) 0.5931(3)
H31 H 0.200931 0.79918 0.490669
O8_2 O 0.7054(5) 0.1732(4) 0.5201(3)
H29_2 H 0.6830 0.2439 0.5287
O10 O 0.9736(5) 0.1147(4) 0.5762(3)
H31_2 H 0.799069 0.20082 0.509331
C7_2 C 0.3226(10) 0.5662(8) 0.0098(5)
H1_2 H 0.3338 0.5919 0.0638
H8_2 H 0.2947 0.9820 0.0474
C17_2 C 0.4444(7) 0.8000(7) 0.0496(3)
H16_2 H 0.4930 0.8622 0.0377
H17_2 H 0.5018 0.7422 0.0410
C18_2 C 0.5599(7) 0.8577(6) 0.1835(4)
H18_2 H 0.6451 0.8459 0.1676
C19_2 C 0.5606(7) 0.8938(6) 0.2588(3)
H19_2 H 0.6461 0.9057 0.2938
C20_2 C 0.4352(6) 0.9131(5) 0.2839(3)
C21_2 C 0.3122(7) 0.8958(6) 0.2300(4)
H20_2 H 0.2270 0.9098 0.2452
C22_2 C 0.3127(7) 0.8581(6) 0.1543(4)
H21_2 H 0.2282 0.8458 0.1185
C23_2 C 0.4311(7) 0.9523(6) 0.3670(3)
N2_2 N 0.4369(5) 0.8389(4) 0.1319(3)
O3_2 O 0.5468(5) 0.9655(4) 0.4130(2)
O7_2 O 0.5998(5) 0.8161(5) 0.4933(3)
H28_2 H 0.5380 0.7522 0.4916
O13 O 0.9036(5) 0.8903(4) 0.5620(3)
H30_2 H 0.670323 0.770029 0.474854
C1_2 C 0.1051(7) 0.5963(6) 0.9248(4)
C2_2 C 0.0308(7) 0.6671(6) 0.8964(3)
C3_2 C 0.0873(7) 0.7812(6) 0.9200(3)
C4_2 C 0.2202(7) 0.8257(6) 0.9695(3)
C5_2 C 0.2979(7) 0.7544(6) 0.9968(3)
C6_2 C 0.2391(8) 0.6406(6) 0.9761(4)
H2_2 H 0.2704 0.4903 0.9893
H3_2 H 0.4160 0.5700 0.9972
C9_2 C 0.2804(9) 0.9498(7) 0.9934(5)
H7_2 H 0.2137 0.9848 0.9694
H9_2 H 0.3709 0.9614 0.9784
C10_2 C 0.0362(9) 0.4763(6) 0.9036(4)
H10_2 H 0.0797 0.4463 0.9412
C13_2 C 0.0743(7) 0.2604(6) 0.6905(4)
C14_2 C 0.1936(8) 0.3324(6) 0.7406(4)
H14_2 H 0.2840 0.3311 0.7288
C15_2 C 0.1808(8) 0.4079(7) 0.8094(4)
H15_2 H 0.2607 0.4587 0.8423
C16_2 C 0.0882(8) 0.1764(6) 0.6192(4)
H23_2 H 0.0311 0.9307 0.9304
C25_2 C 0.1302(7) 0.8615(7) 0.7929(4)
H24_2 H 0.2112 0.8533 0.8236
C26_2 C 0.1411(7) 0.8758(6) 0.7254(4)
H25_2 H 0.2290 0.8784 0.7104
C27_2 C 0.0199(7) 0.8865(6) 0.6793(4)
C30_2 C 0.0225(8) 0.9043(6) 0.6041(4)
N1_2 N 0.0494(7) 0.4044(5) 0.8261(3)
N3_2 N 0.0044(6) 0.8589(5) 0.8160(3)
C8_2 C 0.8867(8) 0.6190(7) 0.8385(5)
H4_2 H 0.8981 0.6270 0.7908
H5_2 H 0.8575 0.5412 0.8321
H6_2 H 0.8145 0.6589 0.8565
H11_2 H 0.9347 0.4713 0.9049
C11_2 C 0.9308(8) 0.3374(7) 0.7766(5)
H12_2 H 0.8410 0.3408 0.7889
C12_2 C 0.9395(8) 0.2639(7) 0.7082(4)
H13_2 H 0.8569 0.2177 0.6745
C24_2 C 0.9988(8) 0.8553(6) 0.8947(4)
H22_2 H 0.8993 0.8305 0.8961
C28_2 C 0.8913(7) 0.8804(7) 0.7035(4)
H26_2 H 0.8074 0.8835 0.6725
C29_2 C 0.8869(8) 0.8699(7) 0.7732(4)
H27_2 H 0.8013 0.8704 0.7904
N4 N 0.4829(8) 0.1675(8) 0.1698(5)
O14 O 0.5038(13) 0.1078(11) 0.1896(9)
O15 O 0.3813(10) 0.2062(10) 0.1626(7)
O16 O 0.5752(13) 0.2065(17) 0.1459(10)
N4_2 N 0.5171(8) 0.8325(8) 0.8302(5)
O14_2 O 0.4962(13) 0.8922(11) 0.8104(9)
O15_2 O 0.6187(10) 0.7938(10) 0.8374(7)
O16_2 O 0.4248(13) 0.7935(17) 0.8541(10)
loop_
_geom_bond_atom_site_label_1
_geom_bond_atom_site_label_2
_geom_bond_site_symmetry_1
_geom_bond_site_symmetry_2
H4 C8 1_555 1_555
H5 C8 1_555 1_555
H6 C8 1_555 1_555
C11 H12 1_555 1_555
C12 C11 1_555 1_555
H13 C12 1_555 1_555
H22 C24 1_555 1_555
H26 C28 1_555 1_555
C29 C28 1_555 1_555
H27 C29 1_555 1_555
Eu3 O6 1_555 1_555
C1 C2 1_555 1_555
C2 C3 1_555 1_555
C3 C4 1_555 1_555
C4 C5 1_555 1_555
C5 C6 1_555 1_555
C6 C1 1_555 1_555
C9 C4 1_555 1_555
H7 C9 1_555 1_555
H9 C9 1_555 1_555
C10 C1 1_555 1_555
H10 C10 1_555 1_555
C14 C13 1_555 1_555
H14 C14 1_555 1_555
C15 C14 1_555 1_555
H15 C15 1_555 1_555
C16 C13 1_555 1_555
C25 H24 1_555 1_555
C26 C25 1_555 1_555
H25 C26 1_555 1_555
C27 C26 1_555 1_555
C30 C27 1_555 1_555
N1 C10 1_555 1_555
O1 C16 1_555 1_555
O5 C30 1_555 1_555
Eu6 O1 1_555 1_555
C15 N1 1_555 1_555
C25 N3 1_555 1_555
H1 C7 1_555 1_555
H16 C17 1_555 1_555
H17 C17 1_555 1_555
C18 H18 1_555 1_555
C19 C18 1_555 1_555
H19 C19 1_555 1_555
C20 C19 1_555 1_555
C21 C20 1_555 1_555
H20 C21 1_555 1_555
C22 C21 1_555 1_555
H21 C22 1_555 1_555
C23 C20 1_555 1_555
Eu3 O3 1_555 1_555
N2 C17 1_555 1_555
O3 C23 1_555 1_555
O4 C23 1_555 1_555
O7 Eu3 1_555 1_555
H28 O7 1_555 1_555
O9 Eu3 1_555 1_555
C18 N2 1_555 1_555
C22 N2 1_555 1_555
O7 H30 1_555 1_555
H29 O8 1_555 1_555
O8 H31 1_555 1_555
H29_2 O8_2 1_555 1_555
O8_2 H31_2 1_555 1_555
H1_2 C7_2 1_555 1_555
H16_2 C17_2 1_555 1_555
H17_2 C17_2 1_555 1_555
C18_2 H18_2 1_555 1_555
C19_2 C18_2 1_555 1_555
H19_2 C19_2 1_555 1_555
C20_2 C19_2 1_555 1_555
C21_2 C20_2 1_555 1_555
H20_2 C21_2 1_555 1_555
C22_2 C21_2 1_555 1_555
H21_2 C22_2 1_555 1_555
C23_2 C20_2 1_555 1_555
Eu6 O3_2 1_555 1_555
N2_2 C17_2 1_555 1_555
O3_2 C23_2 1_555 1_555
O11 C23_2 1_555 1_555
O7_2 Eu6 1_555 1_555
H28_2 O7_2 1_555 1_555
O13 Eu6 1_555 1_555
C18_2 N2_2 1_555 1_555
C22_2 N2_2 1_555 1_555
O7_2 H30_2 1_555 1_555
C1_2 C2_2 1_555 1_555
C2_2 C3_2 1_555 1_555
C3_2 C4_2 1_555 1_555
C4_2 C5_2 1_555 1_555
C5_2 C6_2 1_555 1_555
C6_2 C1_2 1_555 1_555
C9_2 C4_2 1_555 1_555
H7_2 C9_2 1_555 1_555
H9_2 C9_2 1_555 1_555
C10_2 C1_2 1_555 1_555
H10_2 C10_2 1_555 1_555
C14_2 C13_2 1_555 1_555
H14_2 C14_2 1_555 1_555
C15_2 C14_2 1_555 1_555
H15_2 C15_2 1_555 1_555
C16_2 C13_2 1_555 1_555
C25_2 H24_2 1_555 1_555
C26_2 C25_2 1_555 1_555
H25_2 C26_2 1_555 1_555
C27_2 C26_2 1_555 1_555
C30_2 C27_2 1_555 1_555
N1_2 C10_2 1_555 1_555
O9 C16_2 1_555 1_555
O12 C30_2 1_555 1_555
C15_2 N1_2 1_555 1_555
C25_2 N3_2 1_555 1_555
H4_2 C8_2 1_555 1_555
H5_2 C8_2 1_555 1_555
H6_2 C8_2 1_555 1_555
C11_2 H12_2 1_555 1_555
C12_2 C11_2 1_555 1_555
H13_2 C12_2 1_555 1_555
H22_2 C24_2 1_555 1_555
H26_2 C28_2 1_555 1_555
C29_2 C28_2 1_555 1_555
H27_2 C29_2 1_555 1_555
N4 O14 1_555 1_555
O15 N4 1_555 1_555
O16 N4 1_555 1_555
N4_2 O14_2 1_555 1_555
O15_2 N4_2 1_555 1_555
O16_2 N4_2 1_555 1_555

#END
