
###############################################################################
#
# This file contains modified crystal structure data generated from the
# MOF subset of the Cambridge Structural Database (CSD) v543 
# hosted by the Cambridge Crystallographic Data Centre (CCDC).
#
# This work is licensed under the Creative Commons
# Attribution-NonCommercial-ShareAlike 4.0 International License.
# To view a copy of this license, visit
# http://creativecommons.org/licenses/by-nc-sa/4.0/
# or send a letter to
# Creative Commons, PO Box 1866, Mountain View, CA 94042, USA.
#
# CIF created using the CSD Python API on 29 September 2022
# The structure has been converted into the P1 space group
# The structure has a 3D framework
# The original CSD entry ROLZAV is in the cubic crystal system
# The framework has been calculated to contain at least 10.0% void space
# The void calculation uses a probe of radius 1.32A, grid spacing 0.4
#
###############################################################################

data_ROLZAV
_chemical_formula_moiety         '(C300 H228 B8 O90 Zn18)n'
_symmetry_cell_setting           triclinic
_symmetry_space_group_name_H-M   'P 1'
_symmetry_Int_Tables_number      1
_space_group_name_Hall           'P 1'
loop_
_symmetry_equiv_pos_site_id
_symmetry_equiv_pos_as_xyz
1 x,y,z
_cell_length_a                   26.510(3)
_cell_length_b                   26.510(3)
_cell_length_c                   26.510(3)
_cell_angle_alpha                90
_cell_angle_beta                 90
_cell_angle_gamma                90
_cell_volume                     18630.7
loop_
_atom_site_label
_atom_site_type_symbol
_atom_site_fract_x
_atom_site_fract_y
_atom_site_fract_z
Zn1 Zn -0.0000 0.20408(12) 0.44130(6)
O1 O 0.0621(4) 0.2148(5) 0.4023(4)
O2 O -0.0000 0.1279(6) 0.4616(4)
O3 O -0.0000 0.2500 0.5000
B1 B 0.2500 0.2500 0.2500
C1 C 0.0942(7) 0.2500 0.4058(7)
C2 C 0.1347(4) 0.2500 0.3653(4)
C3 C 0.1634(6) 0.2930(4) 0.3579(6)
H1 H 0.1586 0.3212 0.3782
C4 C 0.1994(5) 0.2936(5) 0.3199(5)
C5 C 0.2087(4) 0.2500 0.2913(4)
C6 C 0.2263(6) 0.3441(6) 0.3114(7)
H2 H 0.2510 0.3404 0.2853
H3 H 0.2426 0.3544 0.3421
H4 H 0.2020 0.3692 0.3016
C7 C -0.0000 0.1042(8) 0.5000
C8 C -0.0000 0.0500(5) 0.5000
C9 C -0.0000 0.0257(4) 0.4570(4)
H5 H -0.0000 0.0434 0.4267
O4 O 0.4023(4) 0.0621(4) 0.2148(5)
C10 C 0.4058(7) 0.0942(7) 0.2500
C11 C 0.3653(4) 0.1347(4) 0.2500
C12 C 0.3579(6) 0.1634(6) 0.2930(4)
H6 H 0.3782 0.1586 0.3212
C13 C 0.3199(5) 0.1994(5) 0.2936(5)
C14 C 0.2913(4) 0.2087(4) 0.2500
C15 C 0.3114(7) 0.2263(6) 0.3441(6)
H7 H 0.2853 0.2510 0.3404
H8 H 0.3421 0.2426 0.3544
H9 H 0.3016 0.2020 0.3692
O5 O 0.2148(5) 0.4023(4) 0.0621(4)
C16 C 0.2500 0.4058(7) 0.0942(7)
C17 C 0.2500 0.3653(4) 0.1347(4)
C18 C 0.2930(4) 0.3579(6) 0.1634(6)
H10 H 0.3212 0.3782 0.1586
C19 C 0.2936(5) 0.3199(5) 0.1994(5)
C20 C 0.2500 0.2913(4) 0.2087(4)
C21 C 0.3441(6) 0.3114(7) 0.2263(6)
H11 H 0.3404 0.2853 0.2510
H12 H 0.3544 0.3421 0.2426
H13 H 0.3692 0.3016 0.2020
O6 O 0.2852(5) 0.4379(4) 0.0977(4)
C22 C 0.2070(4) 0.3366(6) 0.1421(6)
H14 H 0.1788 0.3414 0.1218
C23 C 0.2064(5) 0.3006(5) 0.1801(5)
C24 C 0.1559(6) 0.2737(6) 0.1886(7)
H15 H 0.1596 0.2490 0.2147
H16 H 0.1456 0.2574 0.1579
H17 H 0.1308 0.2980 0.1984
O7 O 0.4379(4) 0.0977(4) 0.2852(5)
C25 C 0.3366(6) 0.1421(6) 0.2070(4)
H18 H 0.3414 0.1218 0.1788
C26 C 0.3006(5) 0.1801(5) 0.2064(5)
C27 C 0.2737(6) 0.1886(7) 0.1559(6)
H19 H 0.2490 0.2147 0.1596
H20 H 0.2574 0.1579 0.1456
H21 H 0.2980 0.1984 0.1308
O8 O 0.0977(4) 0.2852(5) 0.4379(4)
C28 C 0.1421(6) 0.2070(4) 0.3366(6)
H22 H 0.1218 0.1788 0.3414
C29 C 0.1801(5) 0.2064(5) 0.3006(5)
C30 C 0.1886(7) 0.1559(6) 0.2737(6)
H23 H 0.2147 0.1596 0.2490
H24 H 0.1579 0.1456 0.2574
H25 H 0.1984 0.1308 0.2980
O10 O -0.0000 0.1279(6) 0.5384(4)
C34 C -0.0000 0.0257(4) 0.5430(4)
H27 H -0.0000 0.0434 0.5733
Zn3 Zn -0.0000 0.20408(12) 0.55870(6)
Zn5 Zn 0.44130(6) 0.0000 0.20408(12)
O31 O 0.4616(4) -0.0000 0.1279(6)
O32 O 0.5000 -0.0000 0.2500
C117 C 0.5000 -0.0000 0.1042(8)
C118 C 0.5000 -0.0000 0.0500(5)
C119 C 0.4570(4) -0.0000 0.0257(4)
H101 H 0.4267 -0.0000 0.0434
O34 O 0.5384(4) -0.0000 0.1279(6)
C123 C 0.5430(4) -0.0000 0.0257(4)
H103 H 0.5733 -0.0000 0.0434
Zn8 Zn 0.20408(12) 0.44130(6) 0.0000
Zn10 Zn 0.29592(12) 0.5000 0.05870(6)
Zn12 Zn 0.05870(6) 0.29592(12) 0.5000
Zn15 Zn 0.44130(6) -0.0000 0.79592(12)
Zn16 Zn 0.55870(6) 0.0000 0.20408(12)
Zn28 Zn 0.5000 0.05870(6) 0.29592(12)
O42 O 0.0621(4) 0.2148(5) 0.5977(4)
O50 O 0.2852(5) 0.5621(4) 0.0977(4)
O51 O 0.0977(4) 0.2852(5) 0.5621(4)
O53 O 0.1279(6) 0.4616(4) 0.0000
O55 O 0.3721(6) 0.5000 0.0384(4)
O57 O 0.0384(4) 0.3721(6) 0.5000
O60 O 0.2500 0.5000 0.0000
O33 O 0.4616(4) -0.0000 0.8721(6)
C120 C 0.5000 -0.0000 0.8958(8)
C121 C 0.5000 0.0000 0.9500(5)
C122 C 0.4570(4) 0.0000 0.9743(4)
H102 H 0.4267 0.0000 0.9566
O35 O 0.5384(4) -0.0000 0.8721(6)
C124 C 0.5430(4) 0.0000 0.9743(4)
H104 H 0.5733 0.0000 0.9566
Zn8_2 Zn 0.20408(12) 0.44130(6) 1.0000
Zn19 Zn 0.55870(6) -0.0000 0.79592(12)
O46 O 0.4023(4) 0.0621(4) 0.7852(5)
O49 O 0.2148(5) 0.4023(4) 0.9379(4)
O53_2 O 0.1279(6) 0.4616(4) 1.0000
O59 O 0.5000 0.0000 0.7500
O60_2 O 0.2500 0.5000 1.0000
Zn21 Zn 0.20408(12) 0.55870(6) -0.0000
O9 O -0.0000 0.8721(6) 0.4616(4)
C31 C -0.0000 0.8958(8) 0.5000
C32 C 0.0000 0.9500(5) 0.5000
C33 C -0.0000 0.9743(4) 0.4570(4)
H26 H -0.0000 0.9566 0.4267
O11 O -0.0000 0.8721(6) 0.5384(4)
C35 C -0.0000 0.9743(4) 0.5430(4)
H28 H -0.0000 0.9566 0.5733
Zn2 Zn -0.0000 0.79592(12) 0.44130(6)
O13 O 0.0000 0.7500 0.5000
Zn4 Zn -0.0000 0.79592(12) 0.55870(6)
O25 O 0.0621(4) 0.7852(5) 0.5977(4)
B4 B 0.2500 0.7500 0.7500
C90 C 0.0942(7) 0.7500 0.5942(7)
C91 C 0.1347(4) 0.7500 0.6347(4)
C92 C 0.1634(6) 0.7070(4) 0.6421(6)
H77 H 0.1586 0.6788 0.6218
C93 C 0.1994(5) 0.7064(5) 0.6801(5)
C94 C 0.2087(4) 0.7500 0.7087(4)
C95 C 0.2263(6) 0.6559(6) 0.6886(7)
H78 H 0.2510 0.6596 0.7147
H79 H 0.2426 0.6456 0.6579
H80 H 0.2020 0.6308 0.6984
O26 O 0.4023(4) 0.9379(4) 0.7852(5)
C96 C 0.4058(7) 0.9058(7) 0.7500
C97 C 0.3653(4) 0.8653(4) 0.7500
C98 C 0.3579(6) 0.8366(6) 0.7070(4)
H81 H 0.3782 0.8414 0.6788
C99 C 0.3199(5) 0.8006(5) 0.7064(5)
C100 C 0.2913(4) 0.7913(4) 0.7500
C101 C 0.3114(7) 0.7737(6) 0.6559(6)
H82 H 0.2853 0.7490 0.6596
H83 H 0.3421 0.7574 0.6456
H84 H 0.3016 0.7980 0.6308
O27 O 0.2148(5) 0.5977(4) 0.9379(4)
C102 C 0.2500 0.5942(7) 0.9058(7)
C103 C 0.2500 0.6347(4) 0.8653(4)
C104 C 0.2930(4) 0.6421(6) 0.8366(6)
H85 H 0.3212 0.6218 0.8414
C105 C 0.2936(5) 0.6801(5) 0.8006(5)
C106 C 0.2500 0.7087(4) 0.7913(4)
C107 C 0.3441(6) 0.6886(7) 0.7737(6)
H86 H 0.3404 0.7147 0.7490
H87 H 0.3544 0.6579 0.7574
H88 H 0.3692 0.6984 0.7980
O28 O 0.2852(5) 0.5621(4) 0.9023(4)
C108 C 0.2070(4) 0.6634(6) 0.8579(6)
H89 H 0.1788 0.6586 0.8782
C109 C 0.2064(5) 0.6994(5) 0.8199(5)
C110 C 0.1559(6) 0.7263(6) 0.8114(7)
H90 H 0.1596 0.7510 0.7853
H91 H 0.1456 0.7426 0.8421
H92 H 0.1308 0.7020 0.8016
O29 O 0.4379(4) 0.9023(4) 0.7148(5)
C111 C 0.3366(6) 0.8579(6) 0.7930(4)
H93 H 0.3414 0.8782 0.8212
C112 C 0.3006(5) 0.8199(5) 0.7936(5)
C113 C 0.2737(6) 0.8114(7) 0.8441(6)
H94 H 0.2490 0.7853 0.8404
H95 H 0.2574 0.8421 0.8544
H96 H 0.2980 0.8016 0.8692
O30 O 0.0977(4) 0.7148(5) 0.5621(4)
C114 C 0.1421(6) 0.7930(4) 0.6634(6)
H97 H 0.1218 0.8212 0.6586
C115 C 0.1801(5) 0.7936(5) 0.6994(5)
C116 C 0.1886(7) 0.8441(6) 0.7263(6)
H98 H 0.2147 0.8404 0.7510
H99 H 0.1579 0.8544 0.7426
H100 H 0.1984 0.8692 0.7020
Zn5_2 Zn 0.44130(6) 1.0000 0.20408(12)
O31_2 O 0.4616(4) 1.0000 0.1279(6)
O32_2 O 0.5000 1.0000 0.2500
C117_2 C 0.5000 1.0000 0.1042(8)
C118_2 C 0.5000 1.0000 0.0500(5)
C119_2 C 0.4570(4) 1.0000 0.0257(4)
H101_2 H 0.4267 1.0000 0.0434
O34_2 O 0.5384(4) 1.0000 0.1279(6)
C123_2 C 0.5430(4) 1.0000 0.0257(4)
H103_2 H 0.5733 1.0000 0.0434
Zn15_2 Zn 0.44130(6) 1.0000 0.79592(12)
Zn16_2 Zn 0.55870(6) 1.0000 0.20408(12)
Zn21_2 Zn 0.20408(12) 0.55870(6) 1.0000
Zn24 Zn 0.29592(12) 0.5000 0.94130(6)
Zn26 Zn 0.5000 0.94130(6) 0.29592(12)
Zn27 Zn 0.5000 0.94130(6) 0.70408(12)
Zn31 Zn 0.05870(6) 0.70408(12) 0.5000
O43 O 0.0621(4) 0.7852(5) 0.4023(4)
O47 O 0.4023(4) 0.9379(4) 0.2148(5)
O33_2 O 0.4616(4) 1.0000 0.8721(6)
C120_2 C 0.5000 1.0000 0.8958(8)
C121_2 C 0.5000 1.0000 0.9500(5)
C122_2 C 0.4570(4) 1.0000 0.9743(4)
H102_2 H 0.4267 1.0000 0.9566
O35_2 O 0.5384(4) 1.0000 0.8721(6)
C124_2 C 0.5430(4) 1.0000 0.9743(4)
H104_2 H 0.5733 1.0000 0.9566
Zn19_2 Zn 0.55870(6) 1.0000 0.79592(12)
O59_2 O 0.5000 1.0000 0.7500
Zn20 Zn 0.79592(12) 0.44130(6) -0.0000
Zn1_2 Zn 1.0000 0.20408(12) 0.44130(6)
O2_2 O 1.0000 0.1279(6) 0.4616(4)
O3_2 O 1.0000 0.2500 0.5000
C7_2 C 1.0000 0.1042(8) 0.5000
C8_2 C 1.0000 0.0500(5) 0.5000
C9_2 C 1.0000 0.0257(4) 0.4570(4)
H5_2 H 1.0000 0.0434 0.4267
O10_2 O 1.0000 0.1279(6) 0.5384(4)
C34_2 C 1.0000 0.0257(4) 0.5430(4)
H27_2 H 1.0000 0.0434 0.5733
Zn3_2 Zn 1.0000 0.20408(12) 0.55870(6)
O19 O 0.9379(4) 0.2148(5) 0.5977(4)
B3 B 0.7500 0.2500 0.7500
C63 C 0.9058(7) 0.2500 0.5942(7)
C64 C 0.8653(4) 0.2500 0.6347(4)
C65 C 0.8366(6) 0.2930(4) 0.6421(6)
H53 H 0.8414 0.3212 0.6218
C66 C 0.8006(5) 0.2936(5) 0.6801(5)
C67 C 0.7913(4) 0.2500 0.7087(4)
C68 C 0.7737(6) 0.3441(6) 0.6886(7)
H54 H 0.7490 0.3404 0.7147
H55 H 0.7574 0.3544 0.6579
H56 H 0.7980 0.3692 0.6984
O20 O 0.5977(4) 0.0621(4) 0.7852(5)
C69 C 0.5942(7) 0.0942(7) 0.7500
C70 C 0.6347(4) 0.1347(4) 0.7500
C71 C 0.6421(6) 0.1634(6) 0.7070(4)
H57 H 0.6218 0.1586 0.6788
C72 C 0.6801(5) 0.1994(5) 0.7064(5)
C73 C 0.7087(4) 0.2087(4) 0.7500
C74 C 0.6886(7) 0.2263(6) 0.6559(6)
H58 H 0.7147 0.2510 0.6596
H59 H 0.6579 0.2426 0.6456
H60 H 0.6984 0.2020 0.6308
O21 O 0.7852(5) 0.4023(4) 0.9379(4)
C75 C 0.7500 0.4058(7) 0.9058(7)
C76 C 0.7500 0.3653(4) 0.8653(4)
C77 C 0.7070(4) 0.3579(6) 0.8366(6)
H61 H 0.6788 0.3782 0.8414
C78 C 0.7064(5) 0.3199(5) 0.8006(5)
C79 C 0.7500 0.2913(4) 0.7913(4)
C80 C 0.6559(6) 0.3114(7) 0.7737(6)
H62 H 0.6596 0.2853 0.7490
H63 H 0.6456 0.3421 0.7574
H64 H 0.6308 0.3016 0.7980
O22 O 0.7148(5) 0.4379(4) 0.9023(4)
C81 C 0.7930(4) 0.3366(6) 0.8579(6)
H65 H 0.8212 0.3414 0.8782
C82 C 0.7936(5) 0.3006(5) 0.8199(5)
C83 C 0.8441(6) 0.2737(6) 0.8114(7)
H66 H 0.8404 0.2490 0.7853
H67 H 0.8544 0.2574 0.8421
H68 H 0.8692 0.2980 0.8016
O23 O 0.5621(4) 0.0977(4) 0.7148(5)
C84 C 0.6634(6) 0.1421(6) 0.7930(4)
H69 H 0.6586 0.1218 0.8212
C85 C 0.6994(5) 0.1801(5) 0.7936(5)
C86 C 0.7263(6) 0.1886(7) 0.8441(6)
H70 H 0.7510 0.2147 0.8404
H71 H 0.7426 0.1579 0.8544
H72 H 0.7020 0.1984 0.8692
O24 O 0.9023(4) 0.2852(5) 0.5621(4)
C87 C 0.8579(6) 0.2070(4) 0.6634(6)
H73 H 0.8782 0.1788 0.6586
C88 C 0.8199(5) 0.2064(5) 0.6994(5)
C89 C 0.8114(7) 0.1559(6) 0.7263(6)
H74 H 0.7853 0.1596 0.7510
H75 H 0.8421 0.1456 0.7426
H76 H 0.8016 0.1308 0.7020
Zn11 Zn 0.94130(6) 0.29592(12) 0.5000
Zn20_2 Zn 0.79592(12) 0.44130(6) 1.0000
Zn23 Zn 0.70408(12) 0.5000 0.94130(6)
Zn29 Zn 0.5000 0.05870(6) 0.70408(12)
O44 O 0.9379(4) 0.2148(5) 0.4023(4)
O45 O 0.5977(4) 0.0621(4) 0.2148(5)
O52 O 0.9023(4) 0.2852(5) 0.4379(4)
O56 O 0.9616(4) 0.3721(6) 0.5000
O9_2 O 1.0000 0.8721(6) 0.4616(4)
C31_2 C 1.0000 0.8958(8) 0.5000
C32_2 C 1.0000 0.9500(5) 0.5000
C33_2 C 1.0000 0.9743(4) 0.4570(4)
H26_2 H 1.0000 0.9566 0.4267
O11_2 O 1.0000 0.8721(6) 0.5384(4)
C35_2 C 1.0000 0.9743(4) 0.5430(4)
H28_2 H 1.0000 0.9566 0.5733
Zn2_2 Zn 1.0000 0.79592(12) 0.44130(6)
O12 O 0.9379(4) 0.7852(5) 0.4023(4)
O13_2 O 1.0000 0.7500 0.5000
B2 B 0.7500 0.7500 0.2500
C36 C 0.9058(7) 0.7500 0.4058(7)
C37 C 0.8653(4) 0.7500 0.3653(4)
C38 C 0.8366(6) 0.7070(4) 0.3579(6)
H29 H 0.8414 0.6788 0.3782
C39 C 0.8006(5) 0.7064(5) 0.3199(5)
C40 C 0.7913(4) 0.7500 0.2913(4)
C41 C 0.7737(6) 0.6559(6) 0.3114(7)
H30 H 0.7490 0.6596 0.2853
H31 H 0.7574 0.6456 0.3421
H32 H 0.7980 0.6308 0.3016
O14 O 0.5977(4) 0.9379(4) 0.2148(5)
C42 C 0.5942(7) 0.9058(7) 0.2500
C43 C 0.6347(4) 0.8653(4) 0.2500
C44 C 0.6421(6) 0.8366(6) 0.2930(4)
H33 H 0.6218 0.8414 0.3212
C45 C 0.6801(5) 0.8006(5) 0.2936(5)
C46 C 0.7087(4) 0.7913(4) 0.2500
C47 C 0.6886(7) 0.7737(6) 0.3441(6)
H34 H 0.7147 0.7490 0.3404
H35 H 0.6579 0.7574 0.3544
H36 H 0.6984 0.7980 0.3692
O15 O 0.7852(5) 0.5977(4) 0.0621(4)
C48 C 0.7500 0.5942(7) 0.0942(7)
C49 C 0.7500 0.6347(4) 0.1347(4)
C50 C 0.7070(4) 0.6421(6) 0.1634(6)
H37 H 0.6788 0.6218 0.1586
C51 C 0.7064(5) 0.6801(5) 0.1994(5)
C52 C 0.7500 0.7087(4) 0.2087(4)
C53 C 0.6559(6) 0.6886(7) 0.2263(6)
H38 H 0.6596 0.7147 0.2510
H39 H 0.6456 0.6579 0.2426
H40 H 0.6308 0.6984 0.2020
O16 O 0.7148(5) 0.5621(4) 0.0977(4)
C54 C 0.7930(4) 0.6634(6) 0.1421(6)
H41 H 0.8212 0.6586 0.1218
C55 C 0.7936(5) 0.6994(5) 0.1801(5)
C56 C 0.8441(6) 0.7263(6) 0.1886(7)
H42 H 0.8404 0.7510 0.2147
H43 H 0.8544 0.7426 0.1579
H44 H 0.8692 0.7020 0.1984
O17 O 0.5621(4) 0.9023(4) 0.2852(5)
C57 C 0.6634(6) 0.8579(6) 0.2070(4)
H45 H 0.6586 0.8782 0.1788
C58 C 0.6994(5) 0.8199(5) 0.2064(5)
C59 C 0.7263(6) 0.8114(7) 0.1559(6)
H46 H 0.7510 0.7853 0.1596
H47 H 0.7426 0.8421 0.1456
H48 H 0.7020 0.8016 0.1308
O18 O 0.9023(4) 0.7148(5) 0.4379(4)
C60 C 0.8579(6) 0.7930(4) 0.3366(6)
H49 H 0.8782 0.8212 0.3414
C61 C 0.8199(5) 0.7936(5) 0.3006(5)
C62 C 0.8114(7) 0.8441(6) 0.2737(6)
H50 H 0.7853 0.8404 0.2490
H51 H 0.8421 0.8544 0.2574
H52 H 0.8016 0.8692 0.2980
Zn4_2 Zn 1.0000 0.79592(12) 0.55870(6)
Zn9 Zn 0.79592(12) 0.55870(6) 0.0000
Zn22 Zn 0.70408(12) 0.5000 0.05870(6)
Zn30 Zn 0.94130(6) 0.70408(12) 0.5000
O41 O 0.9379(4) 0.7852(5) 0.5977(4)
O54 O 0.8721(6) 0.5384(4) 0.0000
O61 O 0.7500 0.5000 0.0000
Zn9_2 Zn 0.79592(12) 0.55870(6) 1.0000
O48 O 0.7852(5) 0.5977(4) 0.9379(4)
O54_2 O 0.8721(6) 0.5384(4) 1.0000
O61_2 O 0.7500 0.5000 1.0000
O52_2 O 0.0977(4) 0.7148(5) 0.4379(4)
O56_2 O 0.0384(4) 0.6279(6) 0.5000
O50_2 O 0.7148(5) 0.4379(4) 0.0977(4)
O51_2 O 0.9023(4) 0.7148(5) 0.5621(4)
O55_2 O 0.6279(6) 0.5000 0.0384(4)
O57_2 O 0.9616(4) 0.6279(6) 0.5000
O46_2 O 0.5977(4) 0.9379(4) 0.7852(5)
O48_2 O 0.2148(5) 0.5977(4) 0.0621(4)
O54_3 O 0.1279(6) 0.5384(4) 0.0000
O54_4 O 0.1279(6) 0.5384(4) 1.0000
O49_2 O 0.7852(5) 0.4023(4) 0.0621(4)
O53_3 O 0.8721(6) 0.4616(4) 0.0000
O50_3 O 0.7148(5) 0.5621(4) 0.9023(4)
O53_4 O 0.8721(6) 0.4616(4) 1.0000
O55_3 O 0.6279(6) 0.5000 0.9616(4)
O50_4 O 0.2852(5) 0.4379(4) 0.9023(4)
O55_4 O 0.3721(6) 0.5000 0.9616(4)
C117_3 C 0.1042(8) 0.5000 -0.0000
C118_3 C 0.0500(5) 0.5000 -0.0000
C119_3 C 0.0257(4) 0.4570(4) -0.0000
H101_3 H 0.0434 0.4267 -0.0000
C123_3 C 0.0257(4) 0.5430(4) -0.0000
H103_3 H 0.0434 0.5733 -0.0000
O51_3 O 0.5621(4) 0.0977(4) 0.2852(5)
O57_3 O 0.5000 0.0384(4) 0.3721(6)
C117_4 C 0.1042(8) 0.5000 1.0000
C118_4 C 0.0500(5) 0.5000 1.0000
C119_4 C 0.0257(4) 0.4570(4) 1.0000
H101_4 H 0.0434 0.4267 1.0000
C123_4 C 0.0257(4) 0.5430(4) 1.0000
H103_4 H 0.0434 0.5733 1.0000
O52_3 O 0.4379(4) 0.9023(4) 0.2852(5)
O56_3 O 0.5000 0.9616(4) 0.3721(6)
C120_3 C 0.8958(8) 0.5000 0.0000
C121_3 C 0.9500(5) 0.5000 0.0000
C122_3 C 0.9743(4) 0.4570(4) 0.0000
H102_3 H 0.9566 0.4267 0.0000
C124_3 C 0.9743(4) 0.5430(4) 0.0000
H104_3 H 0.9566 0.5733 0.0000
C120_4 C 0.8958(8) 0.5000 1.0000
C121_4 C 0.9500(5) 0.5000 1.0000
C122_4 C 0.9743(4) 0.4570(4) 1.0000
H102_4 H 0.9566 0.4267 1.0000
C124_4 C 0.9743(4) 0.5430(4) 1.0000
H104_4 H 0.9566 0.5733 1.0000
O52_4 O 0.4379(4) 0.0977(4) 0.7148(5)
O56_4 O 0.5000 0.0384(4) 0.6279(6)
O51_4 O 0.5621(4) 0.9023(4) 0.7148(5)
O57_4 O 0.5000 0.9616(4) 0.6279(6)
C117_5 C 0.5000 -0.0000 0.3958(8)
C118_5 C 0.5000 -0.0000 0.4500(5)
C120_5 C 0.5000 -0.0000 0.6042(8)
C121_5 C 0.5000 -0.0000 0.5500(5)
C123_5 C 0.5000 0.0430(4) 0.4743(4)
H103_5 H 0.5000 0.0733 0.4566
C124_5 C 0.5000 0.0430(4) 0.5257(4)
H104_5 H 0.5000 0.0733 0.5434
C7_3 C 0.6042(8) 0.5000 0.0000
C8_3 C 0.5500(5) 0.5000 0.0000
C9_3 C 0.5257(4) 0.5000 0.0430(4)
H5_3 H 0.5434 0.5000 0.0733
C31_3 C 0.3958(8) 0.5000 0.0000
C32_3 C 0.4500(5) 0.5000 0.0000
C33_3 C 0.4743(4) 0.5000 0.0430(4)
H26_3 H 0.4566 0.5000 0.0733
C117_6 C 0.5000 1.0000 0.3958(8)
C118_6 C 0.5000 1.0000 0.4500(5)
C119_5 C 0.5000 0.9570(4) 0.4743(4)
H101_5 H 0.5000 0.9267 0.4566
C120_6 C 0.5000 1.0000 0.6042(8)
C121_6 C 0.5000 1.0000 0.5500(5)
C122_5 C 0.5000 0.9570(4) 0.5257(4)
H102_5 H 0.5000 0.9267 0.5434
C7_4 C 0.6042(8) 0.5000 1.0000
C8_4 C 0.5500(5) 0.5000 1.0000
C31_4 C 0.3958(8) 0.5000 1.0000
C32_4 C 0.4500(5) 0.5000 1.0000
C34_3 C 0.5257(4) 0.5000 0.9570(4)
H27_3 H 0.5434 0.5000 0.9267
C35_3 C 0.4743(4) 0.5000 0.9570(4)
H28_3 H 0.4566 0.5000 0.9267
C117_7 C -0.0000 0.6042(8) 0.5000
C118_7 C -0.0000 0.5500(5) 0.5000
C120_7 C -0.0000 0.3958(8) 0.5000
C121_7 C -0.0000 0.4500(5) 0.5000
C123_6 C 0.0430(4) 0.5257(4) 0.5000
H103_6 H 0.0733 0.5434 0.5000
C124_6 C 0.0430(4) 0.4743(4) 0.5000
H104_6 H 0.0733 0.4566 0.5000
C117_8 C 1.0000 0.6042(8) 0.5000
C118_8 C 1.0000 0.5500(5) 0.5000
C119_6 C 0.9570(4) 0.5257(4) 0.5000
H101_6 H 0.9267 0.5434 0.5000
C120_8 C 1.0000 0.3958(8) 0.5000
C121_8 C 1.0000 0.4500(5) 0.5000
C122_6 C 0.9570(4) 0.4743(4) 0.5000
H102_6 H 0.9267 0.4566 0.5000
B2_2 B 0.2500 0.2500 0.7500
C36_2 C 0.0942(7) 0.2500 0.5942(7)
C37_2 C 0.1347(4) 0.2500 0.6347(4)
C38_2 C 0.1634(6) 0.2930(4) 0.6421(6)
H29_2 H 0.1586 0.3212 0.6218
C39_2 C 0.1994(5) 0.2936(5) 0.6801(5)
C40_2 C 0.2087(4) 0.2500 0.7087(4)
C41_2 C 0.2263(6) 0.3441(6) 0.6886(7)
H30_2 H 0.2510 0.3404 0.7147
H31_2 H 0.2426 0.3544 0.6579
H32_2 H 0.2020 0.3692 0.6984
C42_2 C 0.4058(7) 0.0942(7) 0.7500
C43_2 C 0.3653(4) 0.1347(4) 0.7500
C44_2 C 0.3579(6) 0.1634(6) 0.7070(4)
H33_2 H 0.3782 0.1586 0.6788
C45_2 C 0.3199(5) 0.1994(5) 0.7064(5)
C46_2 C 0.2913(4) 0.2087(4) 0.7500
C47_2 C 0.3114(7) 0.2263(6) 0.6559(6)
H34_2 H 0.2853 0.2510 0.6596
H35_2 H 0.3421 0.2426 0.6456
H36_2 H 0.3016 0.2020 0.6308
C48_2 C 0.2500 0.4058(7) 0.9058(7)
C49_2 C 0.2500 0.3653(4) 0.8653(4)
C50_2 C 0.2930(4) 0.3579(6) 0.8366(6)
H37_2 H 0.3212 0.3782 0.8414
C51_2 C 0.2936(5) 0.3199(5) 0.8006(5)
C52_2 C 0.2500 0.2913(4) 0.7913(4)
C53_2 C 0.3441(6) 0.3114(7) 0.7737(6)
H38_2 H 0.3404 0.2853 0.7490
H39_2 H 0.3544 0.3421 0.7574
H40_2 H 0.3692 0.3016 0.7980
C54_2 C 0.2070(4) 0.3366(6) 0.8579(6)
H41_2 H 0.1788 0.3414 0.8782
C55_2 C 0.2064(5) 0.3006(5) 0.8199(5)
C56_2 C 0.1559(6) 0.2737(6) 0.8114(7)
H42_2 H 0.1596 0.2490 0.7853
H43_2 H 0.1456 0.2574 0.8421
H44_2 H 0.1308 0.2980 0.8016
C57_2 C 0.3366(6) 0.1421(6) 0.7930(4)
H45_2 H 0.3414 0.1218 0.8212
C58_2 C 0.3006(5) 0.1801(5) 0.7936(5)
C59_2 C 0.2737(6) 0.1886(7) 0.8441(6)
H46_2 H 0.2490 0.2147 0.8404
H47_2 H 0.2574 0.1579 0.8544
H48_2 H 0.2980 0.1984 0.8692
C60_2 C 0.1421(6) 0.2070(4) 0.6634(6)
H49_2 H 0.1218 0.1788 0.6586
C61_2 C 0.1801(5) 0.2064(5) 0.6994(5)
C62_2 C 0.1886(7) 0.1559(6) 0.7263(6)
H50_2 H 0.2147 0.1596 0.7510
H51_2 H 0.1579 0.1456 0.7426
H52_2 H 0.1984 0.1308 0.7020
B3_2 B 0.2500 0.7500 0.2500
C63_2 C 0.0942(7) 0.7500 0.4058(7)
C64_2 C 0.1347(4) 0.7500 0.3653(4)
C65_2 C 0.1634(6) 0.7070(4) 0.3579(6)
H53_2 H 0.1586 0.6788 0.3782
C66_2 C 0.1994(5) 0.7064(5) 0.3199(5)
C67_2 C 0.2087(4) 0.7500 0.2913(4)
C68_2 C 0.2263(6) 0.6559(6) 0.3114(7)
H54_2 H 0.2510 0.6596 0.2853
H55_2 H 0.2426 0.6456 0.3421
H56_2 H 0.2020 0.6308 0.3016
C69_2 C 0.4058(7) 0.9058(7) 0.2500
C70_2 C 0.3653(4) 0.8653(4) 0.2500
C71_2 C 0.3579(6) 0.8366(6) 0.2930(4)
H57_2 H 0.3782 0.8414 0.3212
C72_2 C 0.3199(5) 0.8006(5) 0.2936(5)
C73_2 C 0.2913(4) 0.7913(4) 0.2500
C74_2 C 0.3114(7) 0.7737(6) 0.3441(6)
H58_2 H 0.2853 0.7490 0.3404
H59_2 H 0.3421 0.7574 0.3544
H60_2 H 0.3016 0.7980 0.3692
C75_2 C 0.2500 0.5942(7) 0.0942(7)
C76_2 C 0.2500 0.6347(4) 0.1347(4)
C77_2 C 0.2930(4) 0.6421(6) 0.1634(6)
H61_2 H 0.3212 0.6218 0.1586
C78_2 C 0.2936(5) 0.6801(5) 0.1994(5)
C79_2 C 0.2500 0.7087(4) 0.2087(4)
C80_2 C 0.3441(6) 0.6886(7) 0.2263(6)
H62_2 H 0.3404 0.7147 0.2510
H63_2 H 0.3544 0.6579 0.2426
H64_2 H 0.3692 0.6984 0.2020
C81_2 C 0.2070(4) 0.6634(6) 0.1421(6)
H65_2 H 0.1788 0.6586 0.1218
C82_2 C 0.2064(5) 0.6994(5) 0.1801(5)
C83_2 C 0.1559(6) 0.7263(6) 0.1886(7)
H66_2 H 0.1596 0.7510 0.2147
H67_2 H 0.1456 0.7426 0.1579
H68_2 H 0.1308 0.7020 0.1984
C84_2 C 0.3366(6) 0.8579(6) 0.2070(4)
H69_2 H 0.3414 0.8782 0.1788
C85_2 C 0.3006(5) 0.8199(5) 0.2064(5)
C86_2 C 0.2737(6) 0.8114(7) 0.1559(6)
H70_2 H 0.2490 0.7853 0.1596
H71_2 H 0.2574 0.8421 0.1456
H72_2 H 0.2980 0.8016 0.1308
C87_2 C 0.1421(6) 0.7930(4) 0.3366(6)
H73_2 H 0.1218 0.8212 0.3414
C88_2 C 0.1801(5) 0.7936(5) 0.3006(5)
C89_2 C 0.1886(7) 0.8441(6) 0.2737(6)
H74_2 H 0.2147 0.8404 0.2490
H75_2 H 0.1579 0.8544 0.2574
H76_2 H 0.1984 0.8692 0.2980
B4_2 B 0.7500 0.2500 0.2500
C90_2 C 0.9058(7) 0.2500 0.4058(7)
C91_2 C 0.8653(4) 0.2500 0.3653(4)
C92_2 C 0.8366(6) 0.2930(4) 0.3579(6)
H77_2 H 0.8414 0.3212 0.3782
C93_2 C 0.8006(5) 0.2936(5) 0.3199(5)
C94_2 C 0.7913(4) 0.2500 0.2913(4)
C95_2 C 0.7737(6) 0.3441(6) 0.3114(7)
H78_2 H 0.7490 0.3404 0.2853
H79_2 H 0.7574 0.3544 0.3421
H80_2 H 0.7980 0.3692 0.3016
C96_2 C 0.5942(7) 0.0942(7) 0.2500
C97_2 C 0.6347(4) 0.1347(4) 0.2500
C98_2 C 0.6421(6) 0.1634(6) 0.2930(4)
H81_2 H 0.6218 0.1586 0.3212
C99_2 C 0.6801(5) 0.1994(5) 0.2936(5)
C100_2 C 0.7087(4) 0.2087(4) 0.2500
C101_2 C 0.6886(7) 0.2263(6) 0.3441(6)
H82_2 H 0.7147 0.2510 0.3404
H83_2 H 0.6579 0.2426 0.3544
H84_2 H 0.6984 0.2020 0.3692
C102_2 C 0.7500 0.4058(7) 0.0942(7)
C103_2 C 0.7500 0.3653(4) 0.1347(4)
C104_2 C 0.7070(4) 0.3579(6) 0.1634(6)
H85_2 H 0.6788 0.3782 0.1586
C105_2 C 0.7064(5) 0.3199(5) 0.1994(5)
C106_2 C 0.7500 0.2913(4) 0.2087(4)
C107_2 C 0.6559(6) 0.3114(7) 0.2263(6)
H86_2 H 0.6596 0.2853 0.2510
H87_2 H 0.6456 0.3421 0.2426
H88_2 H 0.6308 0.3016 0.2020
C108_2 C 0.7930(4) 0.3366(6) 0.1421(6)
H89_2 H 0.8212 0.3414 0.1218
C109_2 C 0.7936(5) 0.3006(5) 0.1801(5)
C110_2 C 0.8441(6) 0.2737(6) 0.1886(7)
H90_2 H 0.8404 0.2490 0.2147
H91_2 H 0.8544 0.2574 0.1579
H92_2 H 0.8692 0.2980 0.1984
C111_2 C 0.6634(6) 0.1421(6) 0.2070(4)
H93_2 H 0.6586 0.1218 0.1788
C112_2 C 0.6994(5) 0.1801(5) 0.2064(5)
C113_2 C 0.7263(6) 0.1886(7) 0.1559(6)
H94_2 H 0.7510 0.2147 0.1596
H95_2 H 0.7426 0.1579 0.1456
H96_2 H 0.7020 0.1984 0.1308
C114_2 C 0.8579(6) 0.2070(4) 0.3366(6)
H97_2 H 0.8782 0.1788 0.3414
C115_2 C 0.8199(5) 0.2064(5) 0.3006(5)
C116_2 C 0.8114(7) 0.1559(6) 0.2737(6)
H98_2 H 0.7853 0.1596 0.2490
H99_2 H 0.8421 0.1456 0.2574
H100_2 H 0.8016 0.1308 0.2980
B1_2 B 0.7500 0.7500 0.7500
C1_2 C 0.9058(7) 0.7500 0.5942(7)
C2_2 C 0.8653(4) 0.7500 0.6347(4)
C3_2 C 0.8366(6) 0.7070(4) 0.6421(6)
H1_2 H 0.8414 0.6788 0.6218
C4_2 C 0.8006(5) 0.7064(5) 0.6801(5)
C5_2 C 0.7913(4) 0.7500 0.7087(4)
C6_2 C 0.7737(6) 0.6559(6) 0.6886(7)
H2_2 H 0.7490 0.6596 0.7147
H3_2 H 0.7574 0.6456 0.6579
H4_2 H 0.7980 0.6308 0.6984
C10_2 C 0.5942(7) 0.9058(7) 0.7500
C11_2 C 0.6347(4) 0.8653(4) 0.7500
C12_2 C 0.6421(6) 0.8366(6) 0.7070(4)
H6_2 H 0.6218 0.8414 0.6788
C13_2 C 0.6801(5) 0.8006(5) 0.7064(5)
C14_2 C 0.7087(4) 0.7913(4) 0.7500
C15_2 C 0.6886(7) 0.7737(6) 0.6559(6)
H7_2 H 0.7147 0.7490 0.6596
H8_2 H 0.6579 0.7574 0.6456
H9_2 H 0.6984 0.7980 0.6308
C16_2 C 0.7500 0.5942(7) 0.9058(7)
C17_2 C 0.7500 0.6347(4) 0.8653(4)
C18_2 C 0.7070(4) 0.6421(6) 0.8366(6)
H10_2 H 0.6788 0.6218 0.8414
C19_2 C 0.7064(5) 0.6801(5) 0.8006(5)
C20_2 C 0.7500 0.7087(4) 0.7913(4)
C21_2 C 0.6559(6) 0.6886(7) 0.7737(6)
H11_2 H 0.6596 0.7147 0.7490
H12_2 H 0.6456 0.6579 0.7574
H13_2 H 0.6308 0.6984 0.7980
C22_2 C 0.7930(4) 0.6634(6) 0.8579(6)
H14_2 H 0.8212 0.6586 0.8782
C23_2 C 0.7936(5) 0.6994(5) 0.8199(5)
C24_2 C 0.8441(6) 0.7263(6) 0.8114(7)
H15_2 H 0.8404 0.7510 0.7853
H16_2 H 0.8544 0.7426 0.8421
H17_2 H 0.8692 0.7020 0.8016
C25_2 C 0.6634(6) 0.8579(6) 0.7930(4)
H18_2 H 0.6586 0.8782 0.8212
C26_2 C 0.6994(5) 0.8199(5) 0.7936(5)
C27_2 C 0.7263(6) 0.8114(7) 0.8441(6)
H19_2 H 0.7510 0.7853 0.8404
H20_2 H 0.7426 0.8421 0.8544
H21_2 H 0.7020 0.8016 0.8692
C28_2 C 0.8579(6) 0.7930(4) 0.6634(6)
H22_2 H 0.8782 0.8212 0.6586
C29_2 C 0.8199(5) 0.7936(5) 0.6994(5)
C30_2 C 0.8114(7) 0.8441(6) 0.7263(6)
H23_2 H 0.7853 0.8404 0.7510
H24_2 H 0.8421 0.8544 0.7426
H25_2 H 0.8016 0.8692 0.7020
loop_
_geom_bond_atom_site_label_1
_geom_bond_atom_site_label_2
_geom_bond_site_symmetry_1
_geom_bond_site_symmetry_2
Zn1 O1 1_555 1_555
O1 C1 1_555 1_555
O2 Zn1 1_555 1_555
O3 Zn1 1_555 1_555
B1 C5 1_555 1_555
C1 C2 1_555 1_555
C2 C3 1_555 1_555
C3 H1 1_555 1_555
C4 C3 1_555 1_555
C5 C4 1_555 1_555
C6 C4 1_555 1_555
H2 C6 1_555 1_555
H3 C6 1_555 1_555
H4 C6 1_555 1_555
C7 O2 1_555 1_555
C8 C7 1_555 1_555
C9 C8 1_555 1_555
H5 C9 1_555 1_555
O4 C10 1_555 1_555
C10 C11 1_555 1_555
C11 C12 1_555 1_555
C12 H6 1_555 1_555
C13 C12 1_555 1_555
C14 B1 1_555 1_555
C15 C13 1_555 1_555
H7 C15 1_555 1_555
H8 C15 1_555 1_555
H9 C15 1_555 1_555
O5 C16 1_555 1_555
C16 C17 1_555 1_555
C17 C18 1_555 1_555
C18 H10 1_555 1_555
C19 C18 1_555 1_555
C20 B1 1_555 1_555
C21 C19 1_555 1_555
H11 C21 1_555 1_555
H12 C21 1_555 1_555
H13 C21 1_555 1_555
O6 C16 1_555 1_555
C22 C17 1_555 1_555
H14 C22 1_555 1_555
C23 C20 1_555 1_555
C24 C23 1_555 1_555
H15 C24 1_555 1_555
H16 C24 1_555 1_555
H17 C24 1_555 1_555
O7 C10 1_555 1_555
C25 C11 1_555 1_555
H18 C25 1_555 1_555
C26 C14 1_555 1_555
C27 C26 1_555 1_555
H19 C27 1_555 1_555
H20 C27 1_555 1_555
H21 C27 1_555 1_555
O8 C1 1_555 1_555
C28 C2 1_555 1_555
H22 C28 1_555 1_555
C29 C5 1_555 1_555
C30 C29 1_555 1_555
H23 C30 1_555 1_555
H24 C30 1_555 1_555
H25 C30 1_555 1_555
O10 C7 1_555 1_555
C34 C8 1_555 1_555
H27 C34 1_555 1_555
Zn3 O3 1_555 1_555
Zn5 O4 1_555 1_555
O31 Zn5 1_555 1_555
O32 Zn5 1_555 1_555
C117 O31 1_555 1_555
C118 C117 1_555 1_555
C119 C118 1_555 1_555
H101 C119 1_555 1_555
O34 C117 1_555 1_555
C123 C118 1_555 1_555
H103 C123 1_555 1_555
Zn8 O5 1_555 1_555
Zn10 O6 1_555 1_555
Zn12 O3 1_555 1_555
Zn16 O32 1_555 1_555
Zn28 O7 1_555 1_555
O42 Zn3 1_555 1_555
O50 Zn10 1_555 1_555
O51 Zn12 1_555 1_555
O53 Zn8 1_555 1_555
O55 Zn10 1_555 1_555
O57 Zn12 1_555 1_555
O60 Zn8 1_555 1_555
C13 C14 1_555 1_555
C19 C20 1_555 1_555
C22 C23 1_555 1_555
C25 C26 1_555 1_555
O8 Zn12 1_555 1_555
C28 C29 1_555 1_555
O10 Zn3 1_555 1_555
O32 Zn28 1_555 1_555
O34 Zn16 1_555 1_555
Zn10 O60 1_555 1_555
O33 C120 1_555 1_555
C120 C121 1_555 1_555
C121 C122 1_555 1_555
H102 C122 1_555 1_555
O35 C120 1_555 1_555
C124 C121 1_555 1_555
H104 C124 1_555 1_555
Zn15 O33 1_555 1_555
Zn19 O35 1_555 1_555
O46 Zn15 1_555 1_555
O49 Zn8_2 1_555 1_555
O53_2 Zn8_2 1_555 1_555
O59 Zn15 1_555 1_555
O60_2 Zn8_2 1_555 1_555
Zn19 O59 1_555 1_555
O9 C31 1_555 1_555
C31 C32 1_555 1_555
C32 C33 1_555 1_555
H26 C33 1_555 1_555
O11 C31 1_555 1_555
C35 C32 1_555 1_555
H28 C35 1_555 1_555
Zn2 O9 1_555 1_555
O13 Zn2 1_555 1_555
Zn4 O11 1_555 1_555
O25 Zn4 1_555 1_555
B4 C94 1_555 1_555
C90 O25 1_555 1_555
C91 C90 1_555 1_555
C92 C91 1_555 1_555
H77 C92 1_555 1_555
C93 C92 1_555 1_555
C94 C93 1_555 1_555
C95 C93 1_555 1_555
H78 C95 1_555 1_555
H79 C95 1_555 1_555
H80 C95 1_555 1_555
O26 C96 1_555 1_555
C96 C97 1_555 1_555
C97 C98 1_555 1_555
C98 H81 1_555 1_555
C99 C98 1_555 1_555
C100 B4 1_555 1_555
C101 C99 1_555 1_555
H82 C101 1_555 1_555
H83 C101 1_555 1_555
H84 C101 1_555 1_555
O27 C102 1_555 1_555
C102 C103 1_555 1_555
C103 C104 1_555 1_555
C104 H85 1_555 1_555
C105 C104 1_555 1_555
C106 B4 1_555 1_555
C107 C105 1_555 1_555
H86 C107 1_555 1_555
H87 C107 1_555 1_555
H88 C107 1_555 1_555
O28 C102 1_555 1_555
C108 C103 1_555 1_555
H89 C108 1_555 1_555
C109 C106 1_555 1_555
C110 C109 1_555 1_555
H90 C110 1_555 1_555
H91 C110 1_555 1_555
H92 C110 1_555 1_555
O29 C96 1_555 1_555
C111 C97 1_555 1_555
H93 C111 1_555 1_555
C112 C100 1_555 1_555
C113 C112 1_555 1_555
H94 C113 1_555 1_555
H95 C113 1_555 1_555
H96 C113 1_555 1_555
O30 C90 1_555 1_555
C114 C91 1_555 1_555
H97 C114 1_555 1_555
C115 C94 1_555 1_555
C116 C115 1_555 1_555
H98 C116 1_555 1_555
H99 C116 1_555 1_555
H100 C116 1_555 1_555
O31_2 Zn5_2 1_555 1_555
O32_2 Zn5_2 1_555 1_555
C117_2 O31_2 1_555 1_555
C118_2 C117_2 1_555 1_555
C119_2 C118_2 1_555 1_555
H101_2 C119_2 1_555 1_555
O34_2 C117_2 1_555 1_555
C123_2 C118_2 1_555 1_555
H103_2 C123_2 1_555 1_555
Zn15_2 O26 1_555 1_555
Zn16_2 O32_2 1_555 1_555
Zn21_2 O27 1_555 1_555
Zn24 O28 1_555 1_555
Zn26 O32_2 1_555 1_555
Zn27 O29 1_555 1_555
Zn31 O13 1_555 1_555
O43 Zn2 1_555 1_555
O47 Zn5_2 1_555 1_555
O13 Zn4 1_555 1_555
C99 C100 1_555 1_555
C105 C106 1_555 1_555
C108 C109 1_555 1_555
C111 C112 1_555 1_555
O30 Zn31 1_555 1_555
C114 C115 1_555 1_555
O34_2 Zn16_2 1_555 1_555
O33_2 C120_2 1_555 1_555
C120_2 C121_2 1_555 1_555
C121_2 C122_2 1_555 1_555
H102_2 C122_2 1_555 1_555
O35_2 C120_2 1_555 1_555
C124_2 C121_2 1_555 1_555
H104_2 C124_2 1_555 1_555
Zn15_2 O33_2 1_555 1_555
Zn19_2 O35_2 1_555 1_555
O59_2 Zn15_2 1_555 1_555
Zn19_2 O59_2 1_555 1_555
O2_2 Zn1_2 1_555 1_555
O3_2 Zn1_2 1_555 1_555
C7_2 O2_2 1_555 1_555
C8_2 C7_2 1_555 1_555
C9_2 C8_2 1_555 1_555
H5_2 C9_2 1_555 1_555
O10_2 C7_2 1_555 1_555
C34_2 C8_2 1_555 1_555
H27_2 C34_2 1_555 1_555
Zn3_2 O3_2 1_555 1_555
O19 Zn3_2 1_555 1_555
B3 C67 1_555 1_555
C63 O19 1_555 1_555
C64 C63 1_555 1_555
C65 C64 1_555 1_555
H53 C65 1_555 1_555
C66 C65 1_555 1_555
C67 C66 1_555 1_555
C68 C66 1_555 1_555
H54 C68 1_555 1_555
H55 C68 1_555 1_555
H56 C68 1_555 1_555
O20 C69 1_555 1_555
C69 C70 1_555 1_555
C70 C71 1_555 1_555
C71 H57 1_555 1_555
C72 C71 1_555 1_555
C73 B3 1_555 1_555
C74 C72 1_555 1_555
H58 C74 1_555 1_555
H59 C74 1_555 1_555
H60 C74 1_555 1_555
O21 C75 1_555 1_555
C75 C76 1_555 1_555
C76 C77 1_555 1_555
C77 H61 1_555 1_555
C78 C77 1_555 1_555
C79 B3 1_555 1_555
C80 C78 1_555 1_555
H62 C80 1_555 1_555
H63 C80 1_555 1_555
H64 C80 1_555 1_555
O22 C75 1_555 1_555
C81 C76 1_555 1_555
H65 C81 1_555 1_555
C82 C79 1_555 1_555
C83 C82 1_555 1_555
H66 C83 1_555 1_555
H67 C83 1_555 1_555
H68 C83 1_555 1_555
O23 C69 1_555 1_555
C84 C70 1_555 1_555
H69 C84 1_555 1_555
C85 C73 1_555 1_555
C86 C85 1_555 1_555
H70 C86 1_555 1_555
H71 C86 1_555 1_555
H72 C86 1_555 1_555
O24 C63 1_555 1_555
C87 C64 1_555 1_555
H73 C87 1_555 1_555
C88 C67 1_555 1_555
C89 C88 1_555 1_555
H74 C89 1_555 1_555
H75 C89 1_555 1_555
H76 C89 1_555 1_555
Zn11 O3_2 1_555 1_555
Zn19 O20 1_555 1_555
Zn20_2 O21 1_555 1_555
Zn23 O22 1_555 1_555
Zn29 O23 1_555 1_555
O44 Zn1_2 1_555 1_555
O45 Zn16 1_555 1_555
O52 Zn11 1_555 1_555
O56 Zn11 1_555 1_555
O10_2 Zn3_2 1_555 1_555
C72 C73 1_555 1_555
C78 C79 1_555 1_555
C81 C82 1_555 1_555
C84 C85 1_555 1_555
O24 Zn11 1_555 1_555
C87 C88 1_555 1_555
O9_2 C31_2 1_555 1_555
C31_2 C32_2 1_555 1_555
C32_2 C33_2 1_555 1_555
H26_2 C33_2 1_555 1_555
O11_2 C31_2 1_555 1_555
C35_2 C32_2 1_555 1_555
H28_2 C35_2 1_555 1_555
Zn2_2 O9_2 1_555 1_555
O12 Zn2_2 1_555 1_555
O13_2 Zn2_2 1_555 1_555
B2 C40 1_555 1_555
C36 O12 1_555 1_555
C37 C36 1_555 1_555
C38 C37 1_555 1_555
H29 C38 1_555 1_555
C39 C38 1_555 1_555
C40 C39 1_555 1_555
C41 C39 1_555 1_555
H30 C41 1_555 1_555
H31 C41 1_555 1_555
H32 C41 1_555 1_555
O14 C42 1_555 1_555
C42 C43 1_555 1_555
C43 C44 1_555 1_555
C44 H33 1_555 1_555
C45 C44 1_555 1_555
C46 B2 1_555 1_555
C47 C45 1_555 1_555
H34 C47 1_555 1_555
H35 C47 1_555 1_555
H36 C47 1_555 1_555
O15 C48 1_555 1_555
C48 C49 1_555 1_555
C49 C50 1_555 1_555
C50 H37 1_555 1_555
C51 C50 1_555 1_555
C52 B2 1_555 1_555
C53 C51 1_555 1_555
H38 C53 1_555 1_555
H39 C53 1_555 1_555
H40 C53 1_555 1_555
O16 C48 1_555 1_555
C54 C49 1_555 1_555
H41 C54 1_555 1_555
C55 C52 1_555 1_555
C56 C55 1_555 1_555
H42 C56 1_555 1_555
H43 C56 1_555 1_555
H44 C56 1_555 1_555
O17 C42 1_555 1_555
C57 C43 1_555 1_555
H45 C57 1_555 1_555
C58 C46 1_555 1_555
C59 C58 1_555 1_555
H46 C59 1_555 1_555
H47 C59 1_555 1_555
H48 C59 1_555 1_555
O18 C36 1_555 1_555
C60 C37 1_555 1_555
H49 C60 1_555 1_555
C61 C40 1_555 1_555
C62 C61 1_555 1_555
H50 C62 1_555 1_555
H51 C62 1_555 1_555
H52 C62 1_555 1_555
Zn4_2 O11_2 1_555 1_555
Zn16_2 O14 1_555 1_555
Zn9 O15 1_555 1_555
Zn22 O16 1_555 1_555
Zn26 O17 1_555 1_555
Zn30 O13_2 1_555 1_555
O41 Zn4_2 1_555 1_555
O54 Zn9 1_555 1_555
O61 Zn9 1_555 1_555
O13_2 Zn4_2 1_555 1_555
C45 C46 1_555 1_555
C51 C52 1_555 1_555
C54 C55 1_555 1_555
C57 C58 1_555 1_555
O18 Zn30 1_555 1_555
C60 C61 1_555 1_555
Zn22 O61 1_555 1_555
O48 Zn9_2 1_555 1_555
O54_2 Zn9_2 1_555 1_555
O61_2 Zn9_2 1_555 1_555
O52_2 Zn31 1_555 1_555
O56_2 Zn31 1_555 1_555
O50_2 Zn22 1_555 1_555
O51_2 Zn30 1_555 1_555
O55_2 Zn22 1_555 1_555
O57_2 Zn30 1_555 1_555
O46_2 Zn19_2 1_555 1_555
O48_2 Zn21 1_555 1_555
O54_3 Zn21 1_555 1_555
O60 Zn21 1_555 1_555
O54_4 Zn21_2 1_555 1_555
O60_2 Zn21_2 1_555 1_555
Zn24 O60_2 1_555 1_555
Zn27 O59_2 1_555 1_555
O49_2 Zn20 1_555 1_555
O53_3 Zn20 1_555 1_555
O61 Zn20 1_555 1_555
O50_3 Zn23 1_555 1_555
O53_4 Zn20_2 1_555 1_555
O55_3 Zn23 1_555 1_555
O61_2 Zn20_2 1_555 1_555
O59 Zn29 1_555 1_555
Zn23 O61_2 1_555 1_555
O50_4 Zn24 1_555 1_555
O55_4 Zn24 1_555 1_555
C117_3 O53 1_555 1_555
C118_3 C117_3 1_555 1_555
C119_3 C118_3 1_555 1_555
H101_3 C119_3 1_555 1_555
O54_3 C117_3 1_555 1_555
C123_3 C118_3 1_555 1_555
H103_3 C123_3 1_555 1_555
O51_3 Zn28 1_555 1_555
O57_3 Zn28 1_555 1_555
C117_4 O53_2 1_555 1_555
C118_4 C117_4 1_555 1_555
C119_4 C118_4 1_555 1_555
H101_4 C119_4 1_555 1_555
O54_4 C117_4 1_555 1_555
C123_4 C118_4 1_555 1_555
H103_4 C123_4 1_555 1_555
O52_3 Zn26 1_555 1_555
O56_3 Zn26 1_555 1_555
O53_3 C120_3 1_555 1_555
C120_3 C121_3 1_555 1_555
C121_3 C122_3 1_555 1_555
H102_3 C122_3 1_555 1_555
O54 C120_3 1_555 1_555
C124_3 C121_3 1_555 1_555
H104_3 C124_3 1_555 1_555
O53_4 C120_4 1_555 1_555
C120_4 C121_4 1_555 1_555
C121_4 C122_4 1_555 1_555
H102_4 C122_4 1_555 1_555
O54_2 C120_4 1_555 1_555
C124_4 C121_4 1_555 1_555
H104_4 C124_4 1_555 1_555
O52_4 Zn29 1_555 1_555
O56_4 Zn29 1_555 1_555
O51_4 Zn27 1_555 1_555
O57_4 Zn27 1_555 1_555
C118_5 C117_5 1_555 1_555
C120_5 C121_5 1_555 1_555
O57_3 C117_5 1_555 1_555
C123_5 C118_5 1_555 1_555
H103_5 C123_5 1_555 1_555
O56_4 C120_5 1_555 1_555
C124_5 C121_5 1_555 1_555
H104_5 C124_5 1_555 1_555
C123_5 C124_5 1_555 1_555
C7_3 O55_2 1_555 1_555
C8_3 C7_3 1_555 1_555
C9_3 C8_3 1_555 1_555
H5_3 C9_3 1_555 1_555
O55 C31_3 1_555 1_555
C31_3 C32_3 1_555 1_555
C32_3 C33_3 1_555 1_555
C33_3 C9_3 1_555 1_555
H26_3 C33_3 1_555 1_555
C117_6 O56_3 1_555 1_555
C118_6 C117_6 1_555 1_555
C119_5 C118_6 1_555 1_555
H101_5 C119_5 1_555 1_555
O57_4 C120_6 1_555 1_555
C120_6 C121_6 1_555 1_555
C121_6 C122_5 1_555 1_555
C122_5 C119_5 1_555 1_555
H102_5 C122_5 1_555 1_555
C8_4 C7_4 1_555 1_555
C31_4 C32_4 1_555 1_555
O55_3 C7_4 1_555 1_555
C34_3 C8_4 1_555 1_555
H27_3 C34_3 1_555 1_555
O55_4 C31_4 1_555 1_555
C35_3 C32_4 1_555 1_555
H28_3 C35_3 1_555 1_555
C34_3 C35_3 1_555 1_555
C118_7 C117_7 1_555 1_555
C120_7 C121_7 1_555 1_555
O56_2 C117_7 1_555 1_555
C123_6 C118_7 1_555 1_555
H103_6 C123_6 1_555 1_555
O57 C120_7 1_555 1_555
C124_6 C121_7 1_555 1_555
H104_6 C124_6 1_555 1_555
C123_6 C124_6 1_555 1_555
C117_8 O57_2 1_555 1_555
C118_8 C117_8 1_555 1_555
C119_6 C118_8 1_555 1_555
H101_6 C119_6 1_555 1_555
O56 C120_8 1_555 1_555
C120_8 C121_8 1_555 1_555
C121_8 C122_6 1_555 1_555
C122_6 C119_6 1_555 1_555
H102_6 C122_6 1_555 1_555
B2_2 C40_2 1_555 1_555
C36_2 O42 1_555 1_555
C37_2 C36_2 1_555 1_555
C38_2 C37_2 1_555 1_555
H29_2 C38_2 1_555 1_555
C39_2 C38_2 1_555 1_555
C40_2 C39_2 1_555 1_555
C41_2 C39_2 1_555 1_555
H30_2 C41_2 1_555 1_555
H31_2 C41_2 1_555 1_555
H32_2 C41_2 1_555 1_555
O46 C42_2 1_555 1_555
C42_2 C43_2 1_555 1_555
C43_2 C44_2 1_555 1_555
C44_2 H33_2 1_555 1_555
C45_2 C44_2 1_555 1_555
C46_2 B2_2 1_555 1_555
C47_2 C45_2 1_555 1_555
H34_2 C47_2 1_555 1_555
H35_2 C47_2 1_555 1_555
H36_2 C47_2 1_555 1_555
O49 C48_2 1_555 1_555
C48_2 C49_2 1_555 1_555
C49_2 C50_2 1_555 1_555
C50_2 H37_2 1_555 1_555
C51_2 C50_2 1_555 1_555
C52_2 B2_2 1_555 1_555
C53_2 C51_2 1_555 1_555
H38_2 C53_2 1_555 1_555
H39_2 C53_2 1_555 1_555
H40_2 C53_2 1_555 1_555
O50_4 C48_2 1_555 1_555
C54_2 C49_2 1_555 1_555
H41_2 C54_2 1_555 1_555
C55_2 C52_2 1_555 1_555
C56_2 C55_2 1_555 1_555
H42_2 C56_2 1_555 1_555
H43_2 C56_2 1_555 1_555
H44_2 C56_2 1_555 1_555
O52_4 C42_2 1_555 1_555
C57_2 C43_2 1_555 1_555
H45_2 C57_2 1_555 1_555
C58_2 C46_2 1_555 1_555
C59_2 C58_2 1_555 1_555
H46_2 C59_2 1_555 1_555
H47_2 C59_2 1_555 1_555
H48_2 C59_2 1_555 1_555
O51 C36_2 1_555 1_555
C60_2 C37_2 1_555 1_555
H49_2 C60_2 1_555 1_555
C61_2 C40_2 1_555 1_555
C62_2 C61_2 1_555 1_555
H50_2 C62_2 1_555 1_555
H51_2 C62_2 1_555 1_555
H52_2 C62_2 1_555 1_555
C45_2 C46_2 1_555 1_555
C51_2 C52_2 1_555 1_555
C54_2 C55_2 1_555 1_555
C57_2 C58_2 1_555 1_555
C60_2 C61_2 1_555 1_555
B3_2 C67_2 1_555 1_555
C63_2 O43 1_555 1_555
C64_2 C63_2 1_555 1_555
C65_2 C64_2 1_555 1_555
H53_2 C65_2 1_555 1_555
C66_2 C65_2 1_555 1_555
C67_2 C66_2 1_555 1_555
C68_2 C66_2 1_555 1_555
H54_2 C68_2 1_555 1_555
H55_2 C68_2 1_555 1_555
H56_2 C68_2 1_555 1_555
O47 C69_2 1_555 1_555
C69_2 C70_2 1_555 1_555
C70_2 C71_2 1_555 1_555
C71_2 H57_2 1_555 1_555
C72_2 C71_2 1_555 1_555
C73_2 B3_2 1_555 1_555
C74_2 C72_2 1_555 1_555
H58_2 C74_2 1_555 1_555
H59_2 C74_2 1_555 1_555
H60_2 C74_2 1_555 1_555
O48_2 C75_2 1_555 1_555
C75_2 C76_2 1_555 1_555
C76_2 C77_2 1_555 1_555
C77_2 H61_2 1_555 1_555
C78_2 C77_2 1_555 1_555
C79_2 B3_2 1_555 1_555
C80_2 C78_2 1_555 1_555
H62_2 C80_2 1_555 1_555
H63_2 C80_2 1_555 1_555
H64_2 C80_2 1_555 1_555
O50 C75_2 1_555 1_555
C81_2 C76_2 1_555 1_555
H65_2 C81_2 1_555 1_555
C82_2 C79_2 1_555 1_555
C83_2 C82_2 1_555 1_555
H66_2 C83_2 1_555 1_555
H67_2 C83_2 1_555 1_555
H68_2 C83_2 1_555 1_555
O52_3 C69_2 1_555 1_555
C84_2 C70_2 1_555 1_555
H69_2 C84_2 1_555 1_555
C85_2 C73_2 1_555 1_555
C86_2 C85_2 1_555 1_555
H70_2 C86_2 1_555 1_555
H71_2 C86_2 1_555 1_555
H72_2 C86_2 1_555 1_555
O52_2 C63_2 1_555 1_555
C87_2 C64_2 1_555 1_555
H73_2 C87_2 1_555 1_555
C88_2 C67_2 1_555 1_555
C89_2 C88_2 1_555 1_555
H74_2 C89_2 1_555 1_555
H75_2 C89_2 1_555 1_555
H76_2 C89_2 1_555 1_555
C72_2 C73_2 1_555 1_555
C78_2 C79_2 1_555 1_555
C81_2 C82_2 1_555 1_555
C84_2 C85_2 1_555 1_555
C87_2 C88_2 1_555 1_555
B4_2 C94_2 1_555 1_555
C90_2 O44 1_555 1_555
C91_2 C90_2 1_555 1_555
C92_2 C91_2 1_555 1_555
H77_2 C92_2 1_555 1_555
C93_2 C92_2 1_555 1_555
C94_2 C93_2 1_555 1_555
C95_2 C93_2 1_555 1_555
H78_2 C95_2 1_555 1_555
H79_2 C95_2 1_555 1_555
H80_2 C95_2 1_555 1_555
O45 C96_2 1_555 1_555
C96_2 C97_2 1_555 1_555
C97_2 C98_2 1_555 1_555
C98_2 H81_2 1_555 1_555
C99_2 C98_2 1_555 1_555
C100_2 B4_2 1_555 1_555
C101_2 C99_2 1_555 1_555
H82_2 C101_2 1_555 1_555
H83_2 C101_2 1_555 1_555
H84_2 C101_2 1_555 1_555
O49_2 C102_2 1_555 1_555
C102_2 C103_2 1_555 1_555
C103_2 C104_2 1_555 1_555
C104_2 H85_2 1_555 1_555
C105_2 C104_2 1_555 1_555
C106_2 B4_2 1_555 1_555
C107_2 C105_2 1_555 1_555
H86_2 C107_2 1_555 1_555
H87_2 C107_2 1_555 1_555
H88_2 C107_2 1_555 1_555
O50_2 C102_2 1_555 1_555
C108_2 C103_2 1_555 1_555
H89_2 C108_2 1_555 1_555
C109_2 C106_2 1_555 1_555
C110_2 C109_2 1_555 1_555
H90_2 C110_2 1_555 1_555
H91_2 C110_2 1_555 1_555
H92_2 C110_2 1_555 1_555
O51_3 C96_2 1_555 1_555
C111_2 C97_2 1_555 1_555
H93_2 C111_2 1_555 1_555
C112_2 C100_2 1_555 1_555
C113_2 C112_2 1_555 1_555
H94_2 C113_2 1_555 1_555
H95_2 C113_2 1_555 1_555
H96_2 C113_2 1_555 1_555
O52 C90_2 1_555 1_555
C114_2 C91_2 1_555 1_555
H97_2 C114_2 1_555 1_555
C115_2 C94_2 1_555 1_555
C116_2 C115_2 1_555 1_555
H98_2 C116_2 1_555 1_555
H99_2 C116_2 1_555 1_555
H100_2 C116_2 1_555 1_555
C99_2 C100_2 1_555 1_555
C105_2 C106_2 1_555 1_555
C108_2 C109_2 1_555 1_555
C111_2 C112_2 1_555 1_555
C114_2 C115_2 1_555 1_555
O41 C1_2 1_555 1_555
B1_2 C5_2 1_555 1_555
C1_2 C2_2 1_555 1_555
C2_2 C3_2 1_555 1_555
C3_2 H1_2 1_555 1_555
C4_2 C3_2 1_555 1_555
C5_2 C4_2 1_555 1_555
C6_2 C4_2 1_555 1_555
H2_2 C6_2 1_555 1_555
H3_2 C6_2 1_555 1_555
H4_2 C6_2 1_555 1_555
O46_2 C10_2 1_555 1_555
C10_2 C11_2 1_555 1_555
C11_2 C12_2 1_555 1_555
C12_2 H6_2 1_555 1_555
C13_2 C12_2 1_555 1_555
C14_2 B1_2 1_555 1_555
C15_2 C13_2 1_555 1_555
H7_2 C15_2 1_555 1_555
H8_2 C15_2 1_555 1_555
H9_2 C15_2 1_555 1_555
O48 C16_2 1_555 1_555
C16_2 C17_2 1_555 1_555
C17_2 C18_2 1_555 1_555
C18_2 H10_2 1_555 1_555
C19_2 C18_2 1_555 1_555
C20_2 B1_2 1_555 1_555
C21_2 C19_2 1_555 1_555
H11_2 C21_2 1_555 1_555
H12_2 C21_2 1_555 1_555
H13_2 C21_2 1_555 1_555
O50_3 C16_2 1_555 1_555
C22_2 C17_2 1_555 1_555
H14_2 C22_2 1_555 1_555
C23_2 C20_2 1_555 1_555
C24_2 C23_2 1_555 1_555
H15_2 C24_2 1_555 1_555
H16_2 C24_2 1_555 1_555
H17_2 C24_2 1_555 1_555
O51_4 C10_2 1_555 1_555
C25_2 C11_2 1_555 1_555
H18_2 C25_2 1_555 1_555
C26_2 C14_2 1_555 1_555
C27_2 C26_2 1_555 1_555
H19_2 C27_2 1_555 1_555
H20_2 C27_2 1_555 1_555
H21_2 C27_2 1_555 1_555
O51_2 C1_2 1_555 1_555
C28_2 C2_2 1_555 1_555
H22_2 C28_2 1_555 1_555
C29_2 C5_2 1_555 1_555
C30_2 C29_2 1_555 1_555
H23_2 C30_2 1_555 1_555
H24_2 C30_2 1_555 1_555
H25_2 C30_2 1_555 1_555
C13_2 C14_2 1_555 1_555
C19_2 C20_2 1_555 1_555
C22_2 C23_2 1_555 1_555
C25_2 C26_2 1_555 1_555
C28_2 C29_2 1_555 1_555

#END
