
###############################################################################
#
# This file contains modified crystal structure data generated from the
# MOF subset of the Cambridge Structural Database (CSD) v543 
# hosted by the Cambridge Crystallographic Data Centre (CCDC).
#
# This work is licensed under the Creative Commons
# Attribution-NonCommercial-ShareAlike 4.0 International License.
# To view a copy of this license, visit
# http://creativecommons.org/licenses/by-nc-sa/4.0/
# or send a letter to
# Creative Commons, PO Box 1866, Mountain View, CA 94042, USA.
#
# CIF created using the CSD Python API on 29 September 2022
# The structure has been converted into the P1 space group
# The structure has a 3D framework
# The original CSD entry ROMQER is in the monoclinic crystal system
# The framework has been calculated to contain at least 10.0% void space
# The void calculation uses a probe of radius 1.32A, grid spacing 0.4
# H atom positions have been added when not included in the experimental data
#
###############################################################################

data_ROMQER
_chemical_formula_moiety         '(C168 H144 O100 Zn20)n'
_symmetry_cell_setting           triclinic
_symmetry_space_group_name_H-M   'P 1'
_symmetry_Int_Tables_number      1
_space_group_name_Hall           'P 1'
loop_
_symmetry_equiv_pos_site_id
_symmetry_equiv_pos_as_xyz
1 x,y,z
_cell_length_a                   15.519(3)
_cell_length_b                   22.982(5)
_cell_length_c                   16.102(3)
_cell_angle_alpha                90
_cell_angle_beta                 100.20(3)
_cell_angle_gamma                90
_cell_volume                     5652.14
loop_
_atom_site_label
_atom_site_type_symbol
_atom_site_fract_x
_atom_site_fract_y
_atom_site_fract_z
O34 O 0.35088(18) 0.07021(12) 0.3257(2)
O35 O 0.23096(18) 0.02752(11) 0.3391(2)
O21 O 0.26527(16) 0.21417(11) 0.7914(2)
O22 O 0.35088(18) 0.42979(12) 0.8257(2)
O23 O 0.23096(18) 0.47248(11) 0.8391(2)
C30 C 0.3801(3) 0.01799(16) 0.9457(3)
H20 H 0.4260 0.0322 0.9899
H21 H 0.3240 0.0237 0.9633
C31 C 0.3826(3) 0.04978(17) 0.8627(3)
H22 H 0.3353 0.0358 0.8197
H23 H 0.4375 0.0416 0.8443
C32 C 0.3731(3) 0.11622(18) 0.8739(3)
H24 H 0.4179 0.1298 0.9196
H25 H 0.3164 0.1247 0.8885
C33 C 0.3819(3) 0.14772(17) 0.7935(3)
H26 H 0.4418 0.1445 0.7842
H27 H 0.3442 0.1294 0.7463
C34 C 0.3577(3) 0.21176(18) 0.7968(3)
H28 H 0.3868 0.2291 0.8492
H29 H 0.3750 0.2327 0.7501
C35 C 0.2268(2) 0.26681(16) 0.7991(2)
C36 C 0.2707(2) 0.31957(16) 0.8114(3)
H30 H 0.3312 0.3210 0.8154
C37 C 0.2238(2) 0.37009(15) 0.8177(2)
C38 C 0.1357(2) 0.36775(16) 0.8163(3)
H31 H 0.1049 0.4016 0.8236
C39 C 0.0920(2) 0.31492(14) 0.8042(2)
C40 C 0.1375(2) 0.26451(16) 0.7973(3)
H32 H 0.1084 0.2290 0.7914
C41 C 0.2720(2) 0.42712(16) 0.8287(2)
Zn7 Zn 0.33625(3) 0.528073(17) 0.84899(3)
Zn1 Zn 0.33625(3) 0.971927(17) 0.34899(3)
Zn2 Zn 0.35240(3) 0.837168(17) 0.38302(3)
Zn3 Zn 0.15664(3) 0.877496(19) 0.35394(3)
Zn4 Zn 0.16814(3) 0.623485(18) 0.18942(3)
Zn5 Zn 0.17458(3) 0.748977(18) 0.25332(3)
O5 O 0.1278(2) 0.05214(12) 0.0117(2)
O6 O 0.19658(17) 0.34131(10) 0.0393(2)
O7 O 0.52682(16) 0.37354(11) 0.06696(17)
O8 O 0.54041(15) 0.46780(10) 0.09719(18)
O9 O 0.27546(17) 0.59292(10) 0.07342(18)
O10 O 0.17156(16) 0.54909(11) 0.12863(18)
O11 O 0.23202(16) 0.69517(11) 0.18531(19)
O12 O 0.21669(15) 0.79840(10) 0.35045(16)
O13 O 0.0666(3) 0.8449(2) 0.4151(3)
O14 O 0.10158(18) 0.95832(12) 0.3788(2)
O15 O 0.27995(15) 0.90668(10) 0.40366(15)
O16 O 0.36433(18) 0.84994(11) 0.26275(16)
O17 O 0.34564(17) 0.94483(11) 0.23467(16)
O18 O 0.34343(17) 0.71377(11) 0.02116(17)
C9 C 0.1022(3) 0.08206(18) 0.0780(3)
H4 H 0.1469 0.0781 0.1281
H5 H 0.0484 0.0653 0.0902
C10 C 0.0880(3) 0.14480(19) 0.0575(4)
H6 H 0.0586 0.1622 0.0998
H7 H 0.0487 0.1478 0.0037
C11 C 0.1684(3) 0.18005(17) 0.0527(3)
H8 H 0.2112 0.1741 0.1036
H9 H 0.1939 0.1669 0.0052
C12 C 0.1472(3) 0.24434(16) 0.0426(3)
H10 H 0.1174 0.2564 0.0878
C13 C 0.2265(3) 0.28256(15) 0.0435(3)
H12 H 0.2686 0.2763 0.0949
C14 C 0.2556(2) 0.38635(15) 0.0509(3)
C15 C 0.2204(2) 0.43984(16) 0.0637(2)
H14 H 0.1608 0.4430 0.0646
C16 C 0.2728(2) 0.48917(15) 0.0753(2)
C17 C 0.3629(2) 0.48333(15) 0.0751(2)
H15 H 0.3990 0.5159 0.0813
C18 C 0.3975(2) 0.42885(15) 0.0656(2)
C19 C 0.3451(2) 0.37994(15) 0.0523(2)
H16 H 0.3689 0.3437 0.0445
C20 C 0.4957(2) 0.42253(15) 0.0778(2)
C21 C 0.2378(2) 0.54770(16) 0.0930(2)
C22 C 0.3599(2) 0.89298(15) 0.2140(2)
C23 C 0.3715(2) 0.88228(14) 0.1246(2)
C24 C 0.3716(2) 0.82627(15) 0.0956(2)
H17 H 0.3662 0.7957 0.1321
C25 C 0.3794(2) 0.81432(15) 0.0141(2)
C28 C 0.3776(2) 0.92763(14) 0.0715(2)
H19 H 0.3753 0.9657 0.0907
Zn6 Zn 0.66375(3) 0.471927(17) 0.15101(3)
Zn8 Zn 0.64760(3) 0.337168(17) 0.11698(3)
O26 O 0.1356(2) 0.89328(12) 0.2317(2)
O27 O 0.16019(19) 0.81237(11) 0.16397(18)
O28 O 0.1773(2) 0.67868(12) 0.35981(19)
O29 O 0.1894(2) 0.59144(12) 0.30226(19)
O30 O 0.47318(16) 0.87354(11) 0.43304(17)
O31 O 0.45959(15) 0.96780(10) 0.40281(18)
O32 O 0.34343(17) 0.78623(11) 0.52116(17)
O33 O 0.39470(17) 0.75570(10) 0.40823(17)
O36 O 0.04119(16) 0.64306(12) 0.17113(19)
O37 O 0.04534(15) 0.73183(11) 0.2299(2)
H33 H 0.148613 0.984734 0.406612
H34 H 0.0720175 0.97596 0.32494
H35 H 0.0958061 0.828214 0.469768
H36 H 0.0259559 0.876321 0.425642
O19 O 0.39470(17) 0.74430(10) 0.90823(17)
O20 O 0.3931(2) 0.95889(11) 0.92919(17)
H11 H 0.1072 0.2502 0.9897
H13 H 0.2543 0.2737 0.9956
C26 C 0.3885(2) 0.86054(15) 0.9601(2)
H18 H 0.3955 0.8531 0.9049
C27 C 0.3872(2) 0.91697(15) 0.9882(2)
C29 C 0.3736(2) 0.75314(15) 0.9797(3)
Zn9 Zn 0.35240(3) 0.662832(17) 0.88302(3)
C1 C 0.1478(2) 0.86652(17) 0.1668(2)
C2 C 0.1465(2) 0.90110(16) 0.0880(3)
C3 C 0.1365(3) 0.95996(18) 0.0895(3)
H1 H 0.1283 0.9783 0.1390
C4 C 0.1384(3) 0.99278(18) 0.0172(3)
C7 C 0.1610(2) 0.87350(17) 0.0151(2)
H3 H 0.1701 0.8335 0.0150
O3 O 0.1773(2) 0.82132(12) 0.85981(19)
O4 O 0.1894(2) 0.90856(12) 0.80226(19)
C5 C 0.1515(3) 0.96526(18) 0.9443(3)
H2 H 0.1534 0.9870 0.8959
C6 C 0.1619(3) 0.90546(17) 0.9429(3)
C8 C 0.1761(2) 0.87569(17) 0.8631(3)
Zn12 Zn 0.16814(3) 0.876515(18) 0.68942(3)
Zn15 Zn 0.17458(3) 0.751023(18) 0.75332(3)
O24 O 0.95881(16) 0.35694(12) 0.82887(19)
O25 O 0.95466(15) 0.26817(11) 0.7701(2)
C42 C 0.9944(2) 0.31253(16) 0.8019(3)
Zn11 Zn 0.83186(3) 0.376515(18) 0.81058(3)
Zn14 Zn 0.82542(3) 0.251023(18) 0.74668(3)
O24_2 O 0.04119(16) 0.85694(12) 0.67113(19)
O25_2 O 0.04534(15) 0.76817(11) 0.7299(2)
C42_2 C 0.0056(2) 0.81253(16) 0.6981(3)
Zn7_2 Zn 0.66375(3) 0.028073(17) 0.65101(3)
Zn3_2 Zn 0.84336(3) 0.377496(19) 0.14606(3)
Zn4_2 Zn 0.83186(3) 0.123485(18) 0.31058(3)
Zn5_2 Zn 0.82542(3) 0.248977(18) 0.24668(3)
O9_2 O 0.72454(17) 0.09292(10) 0.42658(18)
O10_2 O 0.82844(16) 0.04909(11) 0.37137(18)
O11_2 O 0.76798(16) 0.19517(11) 0.31469(19)
O12_2 O 0.78331(15) 0.29840(10) 0.14955(16)
O13_2 O 0.9334(3) 0.3449(2) 0.0849(3)
O14_2 O 0.89842(18) 0.45832(12) 0.1212(2)
O15_2 O 0.72005(15) 0.40668(10) 0.09634(15)
O16_2 O 0.63567(18) 0.34994(11) 0.23725(16)
O17_2 O 0.65436(17) 0.44483(11) 0.26533(16)
O18_2 O 0.65657(17) 0.21377(11) 0.47884(17)
O19_2 O 0.60530(17) 0.24430(10) 0.59177(17)
O20_2 O 0.6069(2) 0.45889(11) 0.57081(17)
O21_2 O 0.73473(16) 0.71417(11) 0.7086(2)
O22_2 O 0.64912(18) 0.92979(12) 0.6743(2)
O23_2 O 0.76904(18) 0.97248(11) 0.6609(2)
H15_2 H 0.6010 0.0159 0.4187
C21_2 C 0.7622(2) 0.04770(16) 0.4070(2)
C22_2 C 0.6401(2) 0.39298(15) 0.2860(2)
C23_2 C 0.6285(2) 0.38228(14) 0.3754(2)
C24_2 C 0.6284(2) 0.32627(15) 0.4044(2)
H17_2 H 0.6338 0.2957 0.3679
C25_2 C 0.6206(2) 0.31432(15) 0.4859(2)
C26_2 C 0.6115(2) 0.36054(15) 0.5399(2)
H18_2 H 0.6045 0.3531 0.5951
C27_2 C 0.6128(2) 0.41697(15) 0.5118(2)
C28_2 C 0.6224(2) 0.42763(14) 0.4285(2)
H19_2 H 0.6247 0.4657 0.4093
C29_2 C 0.6264(2) 0.25314(15) 0.5203(3)
C30_2 C 0.6199(3) 0.51799(16) 0.5543(3)
H20_2 H 0.5740 0.5322 0.5101
H21_2 H 0.6760 0.5237 0.5367
C31_2 C 0.6174(3) 0.54978(17) 0.6373(3)
H22_2 H 0.6647 0.5358 0.6803
H23_2 H 0.5625 0.5416 0.6557
C32_2 C 0.6269(3) 0.61622(18) 0.6261(3)
H24_2 H 0.5821 0.6298 0.5804
H25_2 H 0.6836 0.6247 0.6115
C33_2 C 0.6181(3) 0.64772(17) 0.7065(3)
H26_2 H 0.5582 0.6445 0.7158
H27_2 H 0.6558 0.6294 0.7537
C34_2 C 0.6423(3) 0.71176(18) 0.7032(3)
H28_2 H 0.6132 0.7291 0.6508
H29_2 H 0.6250 0.7327 0.7499
C35_2 C 0.7732(2) 0.76681(16) 0.7009(2)
C36_2 C 0.7293(2) 0.81957(16) 0.6886(3)
H30_2 H 0.6688 0.8210 0.6846
C37_2 C 0.7762(2) 0.87009(15) 0.6823(2)
C38_2 C 0.8643(2) 0.86775(16) 0.6837(3)
H31_2 H 0.8951 0.9016 0.6764
C39_2 C 0.9080(2) 0.81492(14) 0.6958(2)
C40_2 C 0.8625(2) 0.76451(16) 0.7027(3)
H32_2 H 0.8916 0.7290 0.7086
C41_2 C 0.7280(2) 0.92712(16) 0.6713(2)
Zn9_2 Zn 0.64760(3) 0.162832(17) 0.61698(3)
O26_2 O 0.8644(2) 0.39328(12) 0.2683(2)
O27_2 O 0.83981(19) 0.31237(11) 0.33603(18)
O28_2 O 0.8227(2) 0.17868(12) 0.14019(19)
O29_2 O 0.8106(2) 0.09144(12) 0.19774(19)
O33_2 O 0.60530(17) 0.25570(10) 0.09177(17)
O34_2 O 0.64912(18) 0.57021(12) 0.1743(2)
O35_2 O 0.76904(18) 0.52752(11) 0.1609(2)
O36_2 O 0.95881(16) 0.14306(12) 0.32887(19)
O37_2 O 0.95466(15) 0.23183(11) 0.2701(2)
H33_2 H 0.851387 0.484734 0.0933878
H34_2 H 0.927983 0.47596 0.17506
H35_2 H 0.904194 0.328214 0.0302319
H36_2 H 0.974044 0.376321 0.0743579
O32_2 O 0.65657(17) 0.28623(11) 0.97884(17)
O3_2 O 0.8227(2) 0.32132(12) 0.64019(19)
O4_2 O 0.8106(2) 0.40856(12) 0.69774(19)
O5_2 O 0.8722(2) 0.55214(12) 0.4883(2)
O6_2 O 0.80342(17) 0.84131(10) 0.4607(2)
C1_2 C 0.8522(2) 0.36652(17) 0.3332(2)
C2_2 C 0.8535(2) 0.40110(16) 0.4120(3)
C3_2 C 0.8635(3) 0.45996(18) 0.4105(3)
H1_2 H 0.8717 0.4783 0.3610
C4_2 C 0.8616(3) 0.49278(18) 0.4828(3)
C5_2 C 0.8485(3) 0.46526(18) 0.5557(3)
H2_2 H 0.8466 0.4870 0.6041
C6_2 C 0.8381(3) 0.40546(17) 0.5571(3)
C7_2 C 0.8390(2) 0.37350(17) 0.4849(2)
H3_2 H 0.8299 0.3335 0.4850
C8_2 C 0.8239(2) 0.37569(17) 0.6369(3)
C9_2 C 0.8978(3) 0.58206(18) 0.4220(3)
H4_2 H 0.8531 0.5781 0.3719
H5_2 H 0.9516 0.5653 0.4098
C10_2 C 0.9120(3) 0.64480(19) 0.4425(4)
H6_2 H 0.9414 0.6622 0.4002
H7_2 H 0.9513 0.6478 0.4963
C11_2 C 0.8316(3) 0.68005(17) 0.4473(3)
H8_2 H 0.7888 0.6741 0.3964
H9_2 H 0.8061 0.6669 0.4948
C12_2 C 0.8528(3) 0.74434(16) 0.4574(3)
H10_2 H 0.8826 0.7564 0.4122
H11_2 H 0.8928 0.7502 0.5103
C13_2 C 0.7735(3) 0.78256(15) 0.4565(3)
H12_2 H 0.7314 0.7763 0.4051
H13_2 H 0.7457 0.7737 0.5044
C14_2 C 0.7444(2) 0.88635(15) 0.4491(3)
C15_2 C 0.7796(2) 0.93984(16) 0.4363(2)
H14_2 H 0.8392 0.9430 0.4354
C16_2 C 0.7272(2) 0.98917(15) 0.4247(2)
C17_2 C 0.6371(2) 0.98333(15) 0.4249(2)
C18_2 C 0.6025(2) 0.92885(15) 0.4344(2)
C19_2 C 0.6549(2) 0.87994(15) 0.4477(2)
H16_2 H 0.6311 0.8437 0.4555
C20_2 C 0.5043(2) 0.92253(15) 0.4222(2)
C42_3 C 0.0056(2) 0.68747(16) 0.1981(3)
C5_3 C 0.8485(3) 0.03474(18) 0.0557(3)
H2_3 H 0.8466 0.0130 0.1041
C6_3 C 0.8381(3) 0.09454(17) 0.0571(3)
C8_3 C 0.8239(2) 0.12431(17) 0.1369(3)
O1 O 0.8644(2) 0.10672(12) 0.7683(2)
O2 O 0.83981(19) 0.18763(11) 0.83603(18)
C1_3 C 0.8522(2) 0.13348(17) 0.8332(2)
C2_3 C 0.8535(2) 0.09890(16) 0.9120(3)
C3_3 C 0.8635(3) 0.04004(18) 0.9105(3)
H1_3 H 0.8717 0.0217 0.8610
C4_3 C 0.8616(3) 0.00722(18) 0.9828(3)
C7_3 C 0.8390(2) 0.12650(17) 0.9849(2)
H3_3 H 0.8299 0.1665 0.9850
Zn10 Zn 0.84336(3) 0.122504(19) 0.64606(3)
O20_3 O 0.6069(2) 0.04111(11) 0.07081(17)
H11_3 H 0.8928 0.7498 0.0103
H13_3 H 0.7457 0.7263 0.0044
C26_3 C 0.6115(2) 0.13946(15) 0.0399(2)
H18_3 H 0.6045 0.1469 0.0951
C27_3 C 0.6128(2) 0.08303(15) 0.0118(2)
C29_3 C 0.6264(2) 0.24686(15) 0.0203(3)
O5_3 O 0.8722(2) 0.94786(12) 0.9883(2)
O6_3 O 0.80342(17) 0.65869(10) 0.9607(2)
O7_2 O 0.47318(16) 0.62646(11) 0.93304(17)
O8_2 O 0.45959(15) 0.53220(10) 0.90281(18)
O9_3 O 0.72454(17) 0.40708(10) 0.92658(18)
O10_3 O 0.82844(16) 0.45091(11) 0.87137(18)
O11_3 O 0.76798(16) 0.30483(11) 0.81469(19)
O12_3 O 0.78331(15) 0.20160(10) 0.64955(16)
O13_3 O 0.9334(3) 0.1551(2) 0.5849(3)
O14_3 O 0.89842(18) 0.04168(12) 0.6212(2)
O15_3 O 0.72005(15) 0.09332(10) 0.59634(15)
O16_3 O 0.63567(18) 0.15006(11) 0.73725(16)
O17_3 O 0.65436(17) 0.05517(11) 0.76533(16)
C9_3 C 0.8978(3) 0.91794(18) 0.9220(3)
H4_3 H 0.8531 0.9219 0.8719
H5_3 H 0.9516 0.9347 0.9098
C10_3 C 0.9120(3) 0.85520(19) 0.9425(4)
H6_3 H 0.9414 0.8378 0.9002
H7_3 H 0.9513 0.8522 0.9963
C11_3 C 0.8316(3) 0.81995(17) 0.9473(3)
H8_3 H 0.7888 0.8259 0.8964
H9_3 H 0.8061 0.8331 0.9948
C12_3 C 0.8528(3) 0.75566(16) 0.9574(3)
H10_3 H 0.8826 0.7436 0.9122
C13_3 C 0.7735(3) 0.71744(15) 0.9565(3)
H12_3 H 0.7314 0.7237 0.9051
C14_3 C 0.7444(2) 0.61365(15) 0.9491(3)
C15_3 C 0.7796(2) 0.56016(16) 0.9363(2)
H14_3 H 0.8392 0.5570 0.9354
C16_3 C 0.7272(2) 0.51083(15) 0.9247(2)
C17_3 C 0.6371(2) 0.51667(15) 0.9249(2)
H15_3 H 0.6010 0.4841 0.9187
C18_3 C 0.6025(2) 0.57115(15) 0.9344(2)
C19_3 C 0.6549(2) 0.62006(15) 0.9477(2)
H16_3 H 0.6311 0.6563 0.9555
C20_3 C 0.5043(2) 0.57747(15) 0.9222(2)
C21_3 C 0.7622(2) 0.45230(16) 0.9070(2)
C22_3 C 0.6401(2) 0.10702(15) 0.7860(2)
C23_3 C 0.6285(2) 0.11772(14) 0.8754(2)
C24_3 C 0.6284(2) 0.17373(15) 0.9044(2)
H17_3 H 0.6338 0.2043 0.8679
C25_3 C 0.6206(2) 0.18568(15) 0.9859(2)
C28_3 C 0.6224(2) 0.07237(14) 0.9285(2)
H19_3 H 0.6247 0.0343 0.9093
O30_2 O 0.52682(16) 0.12646(11) 0.56696(17)
O31_2 O 0.54041(15) 0.03220(10) 0.59719(18)
H33_3 H 0.851387 0.0152663 0.593388
H34_3 H 0.927983 0.0240403 0.67506
H35_3 H 0.904194 0.171786 0.530232
H36_3 H 0.974044 0.123679 0.574358
O21_3 O 0.73473(16) 0.78583(11) 0.2086(2)
C30_3 C 0.6199(3) 0.98201(16) 0.0543(3)
H20_3 H 0.5740 0.9678 0.0101
H21_3 H 0.6760 0.9763 0.0367
C31_3 C 0.6174(3) 0.95022(17) 0.1373(3)
H22_3 H 0.6647 0.9642 0.1803
H23_3 H 0.5625 0.9584 0.1557
C32_3 C 0.6269(3) 0.88378(18) 0.1261(3)
H24_3 H 0.5821 0.8702 0.0804
H25_3 H 0.6836 0.8753 0.1115
C33_3 C 0.6181(3) 0.85228(17) 0.2065(3)
H26_3 H 0.5582 0.8555 0.2158
H27_3 H 0.6558 0.8706 0.2537
C34_3 C 0.6423(3) 0.78824(18) 0.2032(3)
H28_3 H 0.6132 0.7709 0.1508
H29_3 H 0.6250 0.7673 0.2499
C35_3 C 0.7732(2) 0.73319(16) 0.2009(2)
C36_3 C 0.7293(2) 0.68043(16) 0.1886(3)
H30_3 H 0.6688 0.6790 0.1846
C37_3 C 0.7762(2) 0.62991(15) 0.1823(2)
C38_3 C 0.8643(2) 0.63225(16) 0.1837(3)
H31_3 H 0.8951 0.5984 0.1764
C39_3 C 0.9080(2) 0.68508(14) 0.1958(2)
C40_3 C 0.8625(2) 0.73549(16) 0.2027(3)
H32_3 H 0.8916 0.7710 0.2086
C41_3 C 0.7280(2) 0.57288(16) 0.1713(2)
O1_2 O 0.1356(2) 0.60672(12) 0.7317(2)
O2_2 O 0.16019(19) 0.68763(11) 0.66397(18)
O5_4 O 0.1278(2) 0.44786(12) 0.5117(2)
O6_4 O 0.19658(17) 0.15869(10) 0.5393(2)
C1_4 C 0.1478(2) 0.63348(17) 0.6668(2)
C2_4 C 0.1465(2) 0.59890(16) 0.5880(3)
C3_4 C 0.1365(3) 0.54004(18) 0.5895(3)
H1_4 H 0.1283 0.5217 0.6390
C4_4 C 0.1384(3) 0.50722(18) 0.5172(3)
C5_4 C 0.1515(3) 0.53474(18) 0.4443(3)
H2_4 H 0.1534 0.5130 0.3959
C6_4 C 0.1619(3) 0.59454(17) 0.4429(3)
C7_4 C 0.1610(2) 0.62650(17) 0.5151(2)
H3_4 H 0.1701 0.6665 0.5150
C8_4 C 0.1761(2) 0.62431(17) 0.3631(3)
C9_4 C 0.1022(3) 0.41794(18) 0.5780(3)
H4_4 H 0.1469 0.4219 0.6281
H5_4 H 0.0484 0.4347 0.5902
C10_4 C 0.0880(3) 0.35520(19) 0.5575(4)
H6_4 H 0.0586 0.3378 0.5998
H7_4 H 0.0487 0.3522 0.5037
C11_4 C 0.1684(3) 0.31995(17) 0.5527(3)
H8_4 H 0.2112 0.3259 0.6036
H9_4 H 0.1939 0.3331 0.5052
C12_4 C 0.1472(3) 0.25566(16) 0.5426(3)
H10_4 H 0.1174 0.2436 0.5878
H11_4 H 0.1072 0.2498 0.4897
C13_4 C 0.2265(3) 0.21744(15) 0.5435(3)
H12_4 H 0.2686 0.2237 0.5949
H13_4 H 0.2543 0.2263 0.4956
C14_4 C 0.2556(2) 0.11365(15) 0.5509(3)
C15_4 C 0.2204(2) 0.06016(16) 0.5637(2)
H14_4 H 0.1608 0.0570 0.5646
C16_4 C 0.2728(2) 0.01083(15) 0.5753(2)
C17_4 C 0.3629(2) 0.01667(15) 0.5751(2)
C18_4 C 0.3975(2) 0.07115(15) 0.5656(2)
C19_4 C 0.3451(2) 0.12006(15) 0.5523(2)
H16_4 H 0.3689 0.1563 0.5445
C20_4 C 0.4957(2) 0.07747(15) 0.5778(2)
Zn10_2 Zn 0.15664(3) 0.622504(19) 0.85394(3)
O9_4 O 0.27546(17) 0.90708(10) 0.57342(18)
O10_4 O 0.17156(16) 0.95091(11) 0.62863(18)
O11_4 O 0.23202(16) 0.80483(11) 0.68531(19)
O12_4 O 0.21669(15) 0.70160(10) 0.85045(16)
O13_4 O 0.0666(3) 0.6551(2) 0.9151(3)
O14_4 O 0.10158(18) 0.54168(12) 0.8788(2)
O15_4 O 0.27995(15) 0.59332(10) 0.90366(15)
O16_4 O 0.36433(18) 0.65006(11) 0.76275(16)
O17_4 O 0.34564(17) 0.55517(11) 0.73467(16)
O20_4 O 0.3931(2) 0.54111(11) 0.42919(17)
O21_4 O 0.26527(16) 0.28583(11) 0.2914(2)
H15_4 H 0.3990 0.9841 0.5813
C21_4 C 0.2378(2) 0.95230(16) 0.5930(2)
C22_4 C 0.3599(2) 0.60702(15) 0.7140(2)
C23_4 C 0.3715(2) 0.61772(14) 0.6246(2)
C24_4 C 0.3716(2) 0.67373(15) 0.5956(2)
H17_4 H 0.3662 0.7043 0.6321
C25_4 C 0.3794(2) 0.68568(15) 0.5141(2)
C26_4 C 0.3885(2) 0.63946(15) 0.4601(2)
H18_4 H 0.3955 0.6469 0.4049
C27_4 C 0.3872(2) 0.58303(15) 0.4882(2)
C28_4 C 0.3776(2) 0.57237(14) 0.5715(2)
H19_4 H 0.3753 0.5343 0.5907
C29_4 C 0.3736(2) 0.74686(15) 0.4797(3)
C30_4 C 0.3801(3) 0.48201(16) 0.4457(3)
H20_4 H 0.4260 0.4678 0.4899
H21_4 H 0.3240 0.4763 0.4633
C31_4 C 0.3826(3) 0.45022(17) 0.3627(3)
H22_4 H 0.3353 0.4642 0.3197
H23_4 H 0.4375 0.4584 0.3443
C32_4 C 0.3731(3) 0.38378(18) 0.3739(3)
H24_4 H 0.4179 0.3702 0.4196
H25_4 H 0.3164 0.3753 0.3885
C33_4 C 0.3819(3) 0.35228(17) 0.2935(3)
H26_4 H 0.4418 0.3555 0.2842
H27_4 H 0.3442 0.3706 0.2463
C34_4 C 0.3577(3) 0.28824(18) 0.2968(3)
H28_4 H 0.3868 0.2709 0.3492
H29_4 H 0.3750 0.2673 0.2501
C35_4 C 0.2268(2) 0.23319(16) 0.2991(2)
C36_4 C 0.2707(2) 0.18043(16) 0.3114(3)
H30_4 H 0.3312 0.1790 0.3154
C37_4 C 0.2238(2) 0.12991(15) 0.3177(2)
C38_4 C 0.1357(2) 0.13225(16) 0.3163(3)
H31_4 H 0.1049 0.0984 0.3236
C39_4 C 0.0920(2) 0.18508(14) 0.3042(2)
C40_4 C 0.1375(2) 0.23549(16) 0.2973(3)
H32_4 H 0.1084 0.2710 0.2914
C41_4 C 0.2720(2) 0.07288(16) 0.3287(2)
H33_4 H 0.148613 0.515266 0.906612
H34_4 H 0.0720175 0.52404 0.82494
H35_4 H 0.0958061 0.671786 0.969768
H36_4 H 0.0259559 0.623679 0.925642
C42_4 C 0.9944(2) 0.18747(16) 0.3019(3)
loop_
_geom_bond_atom_site_label_1
_geom_bond_atom_site_label_2
_geom_bond_site_symmetry_1
_geom_bond_site_symmetry_2
O21 C34 1_555 1_555
O22 C41 1_555 1_555
O23 C41 1_555 1_555
H20 C30 1_555 1_555
H21 C30 1_555 1_555
C31 C30 1_555 1_555
H22 C31 1_555 1_555
H23 C31 1_555 1_555
C32 C31 1_555 1_555
H24 C32 1_555 1_555
H25 C32 1_555 1_555
C33 C32 1_555 1_555
H26 C33 1_555 1_555
H27 C33 1_555 1_555
C34 C33 1_555 1_555
H28 C34 1_555 1_555
H29 C34 1_555 1_555
C35 O21 1_555 1_555
C36 C35 1_555 1_555
H30 C36 1_555 1_555
C37 C36 1_555 1_555
C38 C37 1_555 1_555
H31 C38 1_555 1_555
C39 C38 1_555 1_555
C40 C35 1_555 1_555
H32 C40 1_555 1_555
C41 C37 1_555 1_555
Zn7 O22 1_555 1_555
O23 Zn7 1_555 1_555
C39 C40 1_555 1_555
Zn1 O15 1_555 1_555
Zn2 O12 1_555 1_555
Zn3 O12 1_555 1_555
Zn4 O10 1_555 1_555
Zn5 O11 1_555 1_555
O6 C13 1_555 1_555
O7 C20 1_555 1_555
O8 C20 1_555 1_555
O9 C21 1_555 1_555
O10 C21 1_555 1_555
O11 Zn4 1_555 1_555
O12 Zn5 1_555 1_555
O13 Zn3 1_555 1_555
O14 Zn3 1_555 1_555
O15 Zn2 1_555 1_555
O16 Zn2 1_555 1_555
O17 Zn1 1_555 1_555
C9 O5 1_555 1_555
H4 C9 1_555 1_555
H5 C9 1_555 1_555
C10 C9 1_555 1_555
H6 C10 1_555 1_555
H7 C10 1_555 1_555
C11 C10 1_555 1_555
H8 C11 1_555 1_555
H9 C11 1_555 1_555
C12 C11 1_555 1_555
H10 C12 1_555 1_555
C13 C12 1_555 1_555
H12 C13 1_555 1_555
C14 O6 1_555 1_555
C15 C14 1_555 1_555
H14 C15 1_555 1_555
C16 C15 1_555 1_555
C17 C16 1_555 1_555
H15 C17 1_555 1_555
C18 C17 1_555 1_555
C19 C14 1_555 1_555
H16 C19 1_555 1_555
C20 C18 1_555 1_555
C21 C16 1_555 1_555
C22 O16 1_555 1_555
C23 C22 1_555 1_555
C24 C23 1_555 1_555
H17 C24 1_555 1_555
C25 C24 1_555 1_555
C28 C23 1_555 1_555
H19 C28 1_555 1_555
Zn6 O8 1_555 1_555
Zn8 O7 1_555 1_555
O26 Zn3 1_555 1_555
O27 Zn5 1_555 1_555
O28 Zn5 1_555 1_555
O29 Zn4 1_555 1_555
O30 Zn2 1_555 1_555
O31 Zn1 1_555 1_555
O32 Zn2 1_555 1_555
O33 Zn2 1_555 1_555
O36 Zn4 1_555 1_555
O37 Zn5 1_555 1_555
Zn3 O15 1_555 1_555
O17 C22 1_555 1_555
C18 C19 1_555 1_555
O14 H33 1_555 1_555
O14 H34 1_555 1_555
O13 H35 1_555 1_555
O13 H36 1_555 1_555
O19 C29 1_555 1_555
O20 C27 1_555 1_555
H18 C26 1_555 1_555
C27 C26 1_555 1_555
O19 Zn9 1_555 1_555
O26 C1 1_555 1_555
O27 C1 1_555 1_555
C1 C2 1_555 1_555
C2 C3 1_555 1_555
C3 H1 1_555 1_555
C4 C3 1_555 1_555
C7 C2 1_555 1_555
H3 C7 1_555 1_555
O3 C8 1_555 1_555
O4 C8 1_555 1_555
H2 C5 1_555 1_555
C6 C5 1_555 1_555
C8 C6 1_555 1_555
Zn12 O4 1_555 1_555
Zn15 O3 1_555 1_555
O24 C42 1_555 1_555
O25 C42 1_555 1_555
Zn11 O24 1_555 1_555
Zn14 O25 1_555 1_555
O24_2 C42_2 1_555 1_555
O25_2 C42_2 1_555 1_555
Zn12 O24_2 1_555 1_555
Zn15 O25_2 1_555 1_555
Zn6 O15_2 1_555 1_555
Zn8 O12_2 1_555 1_555
Zn3_2 O12_2 1_555 1_555
Zn4_2 O10_2 1_555 1_555
Zn5_2 O11_2 1_555 1_555
O9_2 C21_2 1_555 1_555
O10_2 C21_2 1_555 1_555
O11_2 Zn4_2 1_555 1_555
O12_2 Zn5_2 1_555 1_555
O13_2 Zn3_2 1_555 1_555
O14_2 Zn3_2 1_555 1_555
O15_2 Zn8 1_555 1_555
O16_2 Zn8 1_555 1_555
O17_2 Zn6 1_555 1_555
O18_2 C29_2 1_555 1_555
O19_2 C29_2 1_555 1_555
O20_2 C27_2 1_555 1_555
O21_2 C34_2 1_555 1_555
O22_2 C41_2 1_555 1_555
O23_2 C41_2 1_555 1_555
C22_2 O16_2 1_555 1_555
C23_2 C22_2 1_555 1_555
C24_2 C23_2 1_555 1_555
H17_2 C24_2 1_555 1_555
C25_2 C24_2 1_555 1_555
C26_2 C25_2 1_555 1_555
H18_2 C26_2 1_555 1_555
C27_2 C26_2 1_555 1_555
C28_2 C23_2 1_555 1_555
H19_2 C28_2 1_555 1_555
C29_2 C25_2 1_555 1_555
C30_2 O20_2 1_555 1_555
H20_2 C30_2 1_555 1_555
H21_2 C30_2 1_555 1_555
C31_2 C30_2 1_555 1_555
H22_2 C31_2 1_555 1_555
H23_2 C31_2 1_555 1_555
C32_2 C31_2 1_555 1_555
H24_2 C32_2 1_555 1_555
H25_2 C32_2 1_555 1_555
C33_2 C32_2 1_555 1_555
H26_2 C33_2 1_555 1_555
H27_2 C33_2 1_555 1_555
C34_2 C33_2 1_555 1_555
H28_2 C34_2 1_555 1_555
H29_2 C34_2 1_555 1_555
C35_2 O21_2 1_555 1_555
C36_2 C35_2 1_555 1_555
H30_2 C36_2 1_555 1_555
C37_2 C36_2 1_555 1_555
C38_2 C37_2 1_555 1_555
H31_2 C38_2 1_555 1_555
C39_2 C38_2 1_555 1_555
C40_2 C35_2 1_555 1_555
H32_2 C40_2 1_555 1_555
C41_2 C37_2 1_555 1_555
Zn9_2 O18_2 1_555 1_555
O26_2 Zn3_2 1_555 1_555
O27_2 Zn5_2 1_555 1_555
O28_2 Zn5_2 1_555 1_555
O29_2 Zn4_2 1_555 1_555
O33_2 Zn8 1_555 1_555
O34_2 Zn6 1_555 1_555
O35_2 Zn6 1_555 1_555
O36_2 Zn4_2 1_555 1_555
O37_2 Zn5_2 1_555 1_555
Zn3_2 O15_2 1_555 1_555
O17_2 C22_2 1_555 1_555
O19_2 Zn9_2 1_555 1_555
C27_2 C28_2 1_555 1_555
C39_2 C40_2 1_555 1_555
O14_2 H33_2 1_555 1_555
O14_2 H34_2 1_555 1_555
O13_2 H35_2 1_555 1_555
O13_2 H36_2 1_555 1_555
O26_2 C1_2 1_555 1_555
O27_2 C1_2 1_555 1_555
O3_2 C8_2 1_555 1_555
O4_2 C8_2 1_555 1_555
O5_2 C4_2 1_555 1_555
O6_2 C13_2 1_555 1_555
O30 C20_2 1_555 1_555
O31 C20_2 1_555 1_555
C1_2 C2_2 1_555 1_555
C2_2 C3_2 1_555 1_555
C3_2 H1_2 1_555 1_555
C4_2 C3_2 1_555 1_555
C5_2 C4_2 1_555 1_555
H2_2 C5_2 1_555 1_555
C6_2 C5_2 1_555 1_555
C7_2 C2_2 1_555 1_555
H3_2 C7_2 1_555 1_555
C8_2 C6_2 1_555 1_555
C9_2 O5_2 1_555 1_555
H4_2 C9_2 1_555 1_555
H5_2 C9_2 1_555 1_555
C10_2 C9_2 1_555 1_555
H6_2 C10_2 1_555 1_555
H7_2 C10_2 1_555 1_555
C11_2 C10_2 1_555 1_555
H8_2 C11_2 1_555 1_555
H9_2 C11_2 1_555 1_555
C12_2 C11_2 1_555 1_555
H10_2 C12_2 1_555 1_555
H11_2 C12_2 1_555 1_555
C13_2 C12_2 1_555 1_555
H12_2 C13_2 1_555 1_555
H13_2 C13_2 1_555 1_555
C14_2 O6_2 1_555 1_555
C15_2 C14_2 1_555 1_555
H14_2 C15_2 1_555 1_555
C16_2 C15_2 1_555 1_555
C17_2 C16_2 1_555 1_555
C18_2 C17_2 1_555 1_555
C19_2 C14_2 1_555 1_555
H16_2 C19_2 1_555 1_555
C20_2 C18_2 1_555 1_555
Zn11 O4_2 1_555 1_555
Zn14 O3_2 1_555 1_555
C6_2 C7_2 1_555 1_555
C18_2 C19_2 1_555 1_555
O36 C42_3 1_555 1_555
O37 C42_3 1_555 1_555
O28_2 C8_3 1_555 1_555
O29_2 C8_3 1_555 1_555
H2_3 C5_3 1_555 1_555
C6_3 C5_3 1_555 1_555
C8_3 C6_3 1_555 1_555
O1 C1_3 1_555 1_555
O2 C1_3 1_555 1_555
C1_3 C2_3 1_555 1_555
C2_3 C3_3 1_555 1_555
C3_3 H1_3 1_555 1_555
C4_3 C3_3 1_555 1_555
C7_3 C2_3 1_555 1_555
H3_3 C7_3 1_555 1_555
Zn10 O1 1_555 1_555
Zn14 O2 1_555 1_555
O33_2 C29_3 1_555 1_555
O20_3 C27_3 1_555 1_555
H18_3 C26_3 1_555 1_555
C27_3 C26_3 1_555 1_555
Zn7_2 O15_3 1_555 1_555
Zn9_2 O12_3 1_555 1_555
Zn10 O12_3 1_555 1_555
Zn11 O10_3 1_555 1_555
Zn14 O11_3 1_555 1_555
O6_3 C13_3 1_555 1_555
O7_2 C20_3 1_555 1_555
O8_2 C20_3 1_555 1_555
O9_3 C21_3 1_555 1_555
O10_3 C21_3 1_555 1_555
O11_3 Zn11 1_555 1_555
O12_3 Zn14 1_555 1_555
O13_3 Zn10 1_555 1_555
O14_3 Zn10 1_555 1_555
O15_3 Zn9_2 1_555 1_555
O16_3 Zn9_2 1_555 1_555
O17_3 Zn7_2 1_555 1_555
C9_3 O5_3 1_555 1_555
H4_3 C9_3 1_555 1_555
H5_3 C9_3 1_555 1_555
C10_3 C9_3 1_555 1_555
H6_3 C10_3 1_555 1_555
H7_3 C10_3 1_555 1_555
C11_3 C10_3 1_555 1_555
H8_3 C11_3 1_555 1_555
H9_3 C11_3 1_555 1_555
C12_3 C11_3 1_555 1_555
H10_3 C12_3 1_555 1_555
C13_3 C12_3 1_555 1_555
H12_3 C13_3 1_555 1_555
C14_3 O6_3 1_555 1_555
C15_3 C14_3 1_555 1_555
H14_3 C15_3 1_555 1_555
C16_3 C15_3 1_555 1_555
C17_3 C16_3 1_555 1_555
H15_3 C17_3 1_555 1_555
C18_3 C17_3 1_555 1_555
C19_3 C14_3 1_555 1_555
H16_3 C19_3 1_555 1_555
C20_3 C18_3 1_555 1_555
C21_3 C16_3 1_555 1_555
C22_3 O16_3 1_555 1_555
C23_3 C22_3 1_555 1_555
C24_3 C23_3 1_555 1_555
H17_3 C24_3 1_555 1_555
C25_3 C24_3 1_555 1_555
C28_3 C23_3 1_555 1_555
H19_3 C28_3 1_555 1_555
Zn7 O8_2 1_555 1_555
Zn9 O7_2 1_555 1_555
O30_2 Zn9_2 1_555 1_555
O31_2 Zn7_2 1_555 1_555
Zn10 O15_3 1_555 1_555
O17_3 C22_3 1_555 1_555
C18_3 C19_3 1_555 1_555
O14_3 H33_3 1_555 1_555
O14_3 H34_3 1_555 1_555
O13_3 H35_3 1_555 1_555
O13_3 H36_3 1_555 1_555
O21_3 C34_3 1_555 1_555
O34_2 C41_3 1_555 1_555
O35_2 C41_3 1_555 1_555
H20_3 C30_3 1_555 1_555
H21_3 C30_3 1_555 1_555
C31_3 C30_3 1_555 1_555
H22_3 C31_3 1_555 1_555
H23_3 C31_3 1_555 1_555
C32_3 C31_3 1_555 1_555
H24_3 C32_3 1_555 1_555
H25_3 C32_3 1_555 1_555
C33_3 C32_3 1_555 1_555
H26_3 C33_3 1_555 1_555
H27_3 C33_3 1_555 1_555
C34_3 C33_3 1_555 1_555
H28_3 C34_3 1_555 1_555
H29_3 C34_3 1_555 1_555
C35_3 O21_3 1_555 1_555
C36_3 C35_3 1_555 1_555
H30_3 C36_3 1_555 1_555
C37_3 C36_3 1_555 1_555
C38_3 C37_3 1_555 1_555
H31_3 C38_3 1_555 1_555
C39_3 C38_3 1_555 1_555
C40_3 C35_3 1_555 1_555
H32_3 C40_3 1_555 1_555
C41_3 C37_3 1_555 1_555
C39_3 C40_3 1_555 1_555
O1_2 C1_4 1_555 1_555
O2_2 C1_4 1_555 1_555
O28 C8_4 1_555 1_555
O29 C8_4 1_555 1_555
O5_4 C4_4 1_555 1_555
O6_4 C13_4 1_555 1_555
O30_2 C20_4 1_555 1_555
O31_2 C20_4 1_555 1_555
C1_4 C2_4 1_555 1_555
C2_4 C3_4 1_555 1_555
C3_4 H1_4 1_555 1_555
C4_4 C3_4 1_555 1_555
C5_4 C4_4 1_555 1_555
H2_4 C5_4 1_555 1_555
C6_4 C5_4 1_555 1_555
C7_4 C2_4 1_555 1_555
H3_4 C7_4 1_555 1_555
C8_4 C6_4 1_555 1_555
C9_4 O5_4 1_555 1_555
H4_4 C9_4 1_555 1_555
H5_4 C9_4 1_555 1_555
C10_4 C9_4 1_555 1_555
H6_4 C10_4 1_555 1_555
H7_4 C10_4 1_555 1_555
C11_4 C10_4 1_555 1_555
H8_4 C11_4 1_555 1_555
H9_4 C11_4 1_555 1_555
C12_4 C11_4 1_555 1_555
H10_4 C12_4 1_555 1_555
H11_4 C12_4 1_555 1_555
C13_4 C12_4 1_555 1_555
H12_4 C13_4 1_555 1_555
H13_4 C13_4 1_555 1_555
C14_4 O6_4 1_555 1_555
C15_4 C14_4 1_555 1_555
H14_4 C15_4 1_555 1_555
C16_4 C15_4 1_555 1_555
C17_4 C16_4 1_555 1_555
C18_4 C17_4 1_555 1_555
C19_4 C14_4 1_555 1_555
H16_4 C19_4 1_555 1_555
C20_4 C18_4 1_555 1_555
Zn10_2 O1_2 1_555 1_555
Zn15 O2_2 1_555 1_555
C6_4 C7_4 1_555 1_555
C18_4 C19_4 1_555 1_555
Zn7 O15_4 1_555 1_555
Zn9 O12_4 1_555 1_555
Zn10_2 O12_4 1_555 1_555
Zn12 O10_4 1_555 1_555
Zn15 O11_4 1_555 1_555
O9_4 C21_4 1_555 1_555
O10_4 C21_4 1_555 1_555
O11_4 Zn12 1_555 1_555
O12_4 Zn15 1_555 1_555
O13_4 Zn10_2 1_555 1_555
O14_4 Zn10_2 1_555 1_555
O15_4 Zn9 1_555 1_555
O16_4 Zn9 1_555 1_555
O17_4 Zn7 1_555 1_555
O32 C29_4 1_555 1_555
O33 C29_4 1_555 1_555
O20_4 C27_4 1_555 1_555
O21_4 C34_4 1_555 1_555
O34 C41_4 1_555 1_555
O35 C41_4 1_555 1_555
C22_4 O16_4 1_555 1_555
C23_4 C22_4 1_555 1_555
C24_4 C23_4 1_555 1_555
H17_4 C24_4 1_555 1_555
C25_4 C24_4 1_555 1_555
C26_4 C25_4 1_555 1_555
H18_4 C26_4 1_555 1_555
C27_4 C26_4 1_555 1_555
C28_4 C23_4 1_555 1_555
H19_4 C28_4 1_555 1_555
C29_4 C25_4 1_555 1_555
C30_4 O20_4 1_555 1_555
H20_4 C30_4 1_555 1_555
H21_4 C30_4 1_555 1_555
C31_4 C30_4 1_555 1_555
H22_4 C31_4 1_555 1_555
H23_4 C31_4 1_555 1_555
C32_4 C31_4 1_555 1_555
H24_4 C32_4 1_555 1_555
H25_4 C32_4 1_555 1_555
C33_4 C32_4 1_555 1_555
H26_4 C33_4 1_555 1_555
H27_4 C33_4 1_555 1_555
C34_4 C33_4 1_555 1_555
H28_4 C34_4 1_555 1_555
H29_4 C34_4 1_555 1_555
C35_4 O21_4 1_555 1_555
C36_4 C35_4 1_555 1_555
H30_4 C36_4 1_555 1_555
C37_4 C36_4 1_555 1_555
C38_4 C37_4 1_555 1_555
H31_4 C38_4 1_555 1_555
C39_4 C38_4 1_555 1_555
C40_4 C35_4 1_555 1_555
H32_4 C40_4 1_555 1_555
C41_4 C37_4 1_555 1_555
Zn10_2 O15_4 1_555 1_555
O17_4 C22_4 1_555 1_555
C27_4 C28_4 1_555 1_555
C39_4 C40_4 1_555 1_555
O14_4 H33_4 1_555 1_555
O14_4 H34_4 1_555 1_555
O13_4 H35_4 1_555 1_555
O13_4 H36_4 1_555 1_555
O36_2 C42_4 1_555 1_555
O37_2 C42_4 1_555 1_555

#END
