
###############################################################################
#
# This file contains modified crystal structure data generated from the
# MOF subset of the Cambridge Structural Database (CSD) v543 
# hosted by the Cambridge Crystallographic Data Centre (CCDC).
#
# This work is licensed under the Creative Commons
# Attribution-NonCommercial-ShareAlike 4.0 International License.
# To view a copy of this license, visit
# http://creativecommons.org/licenses/by-nc-sa/4.0/
# or send a letter to
# Creative Commons, PO Box 1866, Mountain View, CA 94042, USA.
#
# CIF created using the CSD Python API on 29 September 2022
# The structure has been converted into the P1 space group
# The structure has a 3D framework
# The original CSD entry RONCIG is in the hexagonal crystal system
# The framework has been calculated to contain at least 10.0% void space
# The void calculation uses a probe of radius 1.32A, grid spacing 0.4
# H atom positions have been added when not included in the experimental data
# Generated hydrogen atom positions removed from atoms on special positions
#
###############################################################################

data_RONCIG
_chemical_formula_moiety         '(C48 H144 Cu15 Gd12 O78)n'
_symmetry_cell_setting           triclinic
_symmetry_space_group_name_H-M   'P 1'
_symmetry_Int_Tables_number      1
_space_group_name_Hall           'P 1'
loop_
_symmetry_equiv_pos_site_id
_symmetry_equiv_pos_as_xyz
1 x,y,z
_cell_length_a                   15.126(3)
_cell_length_b                   15.126(3)
_cell_length_c                   14.690(8)
_cell_angle_alpha                90
_cell_angle_beta                 90
_cell_angle_gamma                120
_cell_volume                     2910.72
loop_
_atom_site_label
_atom_site_type_symbol
_atom_site_fract_x
_atom_site_fract_y
_atom_site_fract_z
Cu2 Cu 0.0000 0.5000 0.0000
Cu4 Cu -0.0000 0.5000 0.5000
O35 O 0.0493(2) 0.4429(3) 0.4067(2)
O36 O 0.0493(2) 0.4429(3) 0.5933(2)
O39 O 0.1538(3) 0.6774(4) 0.5000
Cu2_2 Cu -0.0000 0.5000 1.0000
O1 O 0.7629(1) 0.237 0.2500
O2 O 0.6146(2) 0.1930(2) 0.3584(2)
O3 O 0.6064(2) 0.0493(2) 0.4067(2)
O4 O 0.4764(3) 0.1538(3) 0.5000
C1 C 0.7316(3) 0.1463(3) 0.2995(3)
C2 C 0.6434(3) 0.1297(3) 0.3604(3)
Gd1 Gd 0.667 0.333 0.2500
Cu1 Cu 0.5000 -0.0000 0.5000
C3 C 0.8537(3) 0.2684(3) 0.2005(3)
C4 C 0.8703(3) 0.3566(3) 0.1396(3)
O5 O 0.8070(2) 0.3854(2) 0.1416(2)
O6 O 0.9507(2) 0.3936(2) 0.0933(2)
O13 O 0.763 0.5259(1) 0.2500
O14 O 0.4741(1) 0.2371(1) 0.2500
O15 O 0.8070(2) 0.4216(3) 0.3584(2)
O16 O 0.6146(2) 0.4216(3) 0.1416(2)
O17 O 0.5784(3) 0.3854(2) 0.3584(2)
O18 O 0.5784(3) 0.1930(2) 0.1416(2)
O20 O 0.6064(2) 0.0493(2) 0.5933(2)
Cu2_3 Cu 1.0000 0.5000 0.0000
C9 C 0.8537(3) 0.5853(4) 0.2995(3)
C10 C 0.7316(3) 0.5853(4) 0.2005(3)
C11 C 0.4147(4) 0.2684(3) 0.2995(3)
C12 C 0.4147(4) 0.1463(3) 0.2005(3)
C13 C 0.8703(3) 0.5137(4) 0.3604(3)
C14 C 0.6434(3) 0.5137(4) 0.1396(3)
C15 C 0.4863(4) 0.3566(3) 0.3604(3)
C16 C 0.4863(4) 0.1297(3) 0.1396(3)
O27 O 0.9507(2) 0.5571(3) 0.4067(2)
O28 O 0.6064(2) 0.5571(3) 0.0933(2)
O29 O 0.4429(3) 0.3936(2) 0.4067(2)
O30 O 0.4429(3) 0.0493(2) 0.0933(2)
Cu4_2 Cu 1.0000 0.5000 0.5000
Cu5 Cu 0.5000 0.5000 0.0000
Cu6 Cu 0.5000 0.5000 0.5000
Cu7 Cu 0.5000 0.0000 0.0000
O37 O 0.9507(2) 0.5571(3) 0.5933(2)
O38 O 0.8462(3) 0.3226(4) 0.5000
O43 O 0.6774(4) 0.1538(3) 0.0000
H1 H 0.35881 0.205418 0.340853
H2 H 0.375394 0.293168 0.252863
H3 H 0.794554 0.641226 0.159144
H4 H 0.706811 0.624562 0.247167
H5 H 0.846608 0.64119 0.340853
H6 H 0.917773 0.624606 0.252863
H7 H 0.358774 0.153328 0.159144
H8 H 0.375438 0.0822494 0.247167
H29 H 0.846672 0.205446 0.159144
H30 H 0.917751 0.293189 0.247167
H31 H 0.794582 0.153392 0.340853
H32 H 0.706832 0.0822268 0.252863
Cu2_4 Cu 1.0000 0.5000 1.0000
Cu5_2 Cu 0.5000 0.5000 1.0000
Cu7_2 Cu 0.5000 -0.0000 1.0000
O40 O 0.4429(3) 0.0493(2) 0.9067(2)
O43_2 O 0.6774(4) 0.1538(3) 1.0000
Cu1_2 Cu 0.5000 1.0000 0.5000
O7 O 0.2371(1) 0.763 0.2500
O8 O 0.3854(2) 0.8070(2) 0.3584(2)
O9 O 0.3936(2) 0.9507(2) 0.4067(2)
C5 C 0.2684(3) 0.8537(3) 0.2995(3)
C6 C 0.3566(3) 0.8703(3) 0.3604(3)
C7 C 0.1463(3) 0.7316(3) 0.2005(3)
C8 C 0.1297(3) 0.6434(3) 0.1396(3)
O10 O 0.1930(2) 0.6146(2) 0.1416(2)
O11 O 0.0493(2) 0.6064(2) 0.0933(2)
O12 O 0.5236(3) 0.8462(3) 0.5000
Gd2 Gd 0.333 0.667 0.2500
O19 O 0.3936(2) 0.9507(2) 0.5933(2)
O21 O 0.5259(1) 0.7629(1) 0.2500
O22 O 0.237 0.4741(1) 0.2500
O23 O 0.4216(3) 0.6146(2) 0.3584(2)
O24 O 0.4216(3) 0.8070(2) 0.1416(2)
O25 O 0.1930(2) 0.5784(3) 0.3584(2)
O26 O 0.3854(2) 0.5784(3) 0.1416(2)
C17 C 0.5853(4) 0.7316(3) 0.2995(3)
C18 C 0.5853(4) 0.8537(3) 0.2005(3)
C19 C 0.1463(3) 0.4147(4) 0.2995(3)
C20 C 0.2684(3) 0.4147(4) 0.2005(3)
C21 C 0.5137(4) 0.6434(3) 0.3604(3)
C22 C 0.5137(4) 0.8703(3) 0.1396(3)
C23 C 0.1297(3) 0.4863(4) 0.3604(3)
C24 C 0.3566(3) 0.4863(4) 0.1396(3)
O31 O 0.5571(3) 0.6064(2) 0.4067(2)
O32 O 0.5571(3) 0.9507(2) 0.0933(2)
O34 O 0.3936(2) 0.4429(3) 0.0933(2)
Cu7_3 Cu 0.5000 1.0000 0.0000
O42 O 0.3226(4) 0.8462(3) 0.0000
H17 H 0.641226 0.846672 0.159144
H18 H 0.624562 0.917751 0.247167
H19 H 0.205446 0.358774 0.159144
H20 H 0.293189 0.375438 0.247167
H21 H 0.64119 0.794582 0.340853
H22 H 0.624606 0.706832 0.252863
H23 H 0.153392 0.35881 0.340853
H24 H 0.0822268 0.375394 0.252863
H27 H 0.205418 0.846608 0.340853
H28 H 0.293168 0.917773 0.252863
H33 H 0.153328 0.794554 0.159144
H34 H 0.0822494 0.706811 0.247167
Cu7_4 Cu 0.5000 1.0000 1.0000
O41 O 0.5571(3) 0.9507(2) 0.9067(2)
O42_2 O 0.3226(4) 0.8462(3) 1.0000
O4_2 O 0.3226(4) 0.4764(3) 0.5000
Gd1_2 Gd 0.334 0.667 0.2500
O12_2 O 0.6774(4) 0.5236(3) 0.5000
Gd2_2 Gd 0.666 0.333 0.2500
O19_2 O 0.4429(3) 0.3936(2) 0.5933(2)
O20_2 O 0.5571(3) 0.6064(2) 0.5933(2)
O42_3 O 0.4764(5) 0.3226(4) 0.0000
O43_3 O 0.5236(5) 0.6774(4) 0.0000
O40_2 O 0.3936(4) 0.4429(3) 0.9067(2)
O41_2 O 0.6064(4) 0.5571(3) 0.9067(2)
O42_4 O 0.4764(5) 0.3226(4) 1.0000
O43_4 O 0.5236(5) 0.6774(4) 1.0000
O12_3 O 0.1538(3) 0.4764(3) 0.0000
O12_4 O 0.1538(3) 0.4764(3) 1.0000
O19_3 O 0.0493(2) 0.6064(2) 0.9067(2)
O4_3 O 0.8462(3) 0.5236(3) 0.0000
O4_4 O 0.8462(3) 0.5236(3) 1.0000
O20_3 O 0.9507(2) 0.3936(2) 0.9067(2)
Gd2_3 Gd 0.333 0.666 0.2500
Gd1_3 Gd 0.667 0.334 0.2500
O7_2 O 0.7629(1) 0.237 0.7500
O8_2 O 0.6146(2) 0.1930(2) 0.6416(2)
C5_2 C 0.7316(3) 0.1463(3) 0.7005(3)
C6_2 C 0.6434(3) 0.1297(3) 0.6396(3)
C7_2 C 0.8537(3) 0.2684(3) 0.7995(3)
C8_2 C 0.8703(3) 0.3566(3) 0.8604(3)
O10_2 O 0.8070(2) 0.3854(2) 0.8584(2)
Gd2_4 Gd 0.667 0.333 0.7500
O21_2 O 0.4741(1) 0.2371(1) 0.7500
O22_2 O 0.763 0.5259(1) 0.7500
O23_2 O 0.5784(3) 0.3854(2) 0.6416(2)
O24_2 O 0.5784(3) 0.1930(2) 0.8584(2)
O25_2 O 0.8070(2) 0.4216(3) 0.6416(2)
O26_2 O 0.6146(2) 0.4216(3) 0.8584(2)
C17_2 C 0.4147(4) 0.2684(3) 0.7005(3)
C18_2 C 0.4147(4) 0.1463(3) 0.7995(3)
C19_2 C 0.8537(3) 0.5853(4) 0.7005(3)
C20_2 C 0.7316(3) 0.5853(4) 0.7995(3)
C21_2 C 0.4863(4) 0.3566(3) 0.6396(3)
C22_2 C 0.4863(4) 0.1297(3) 0.8604(3)
C23_2 C 0.8703(3) 0.5137(4) 0.6396(3)
C24_2 C 0.6434(3) 0.5137(4) 0.8604(3)
H17_2 H 0.358774 0.153328 0.840856
H18_2 H 0.375438 0.0822494 0.752833
H19_2 H 0.794554 0.641226 0.840856
H20_2 H 0.706811 0.624562 0.752833
H21_2 H 0.35881 0.205418 0.659147
H22_2 H 0.375394 0.293168 0.747137
H23_2 H 0.846608 0.64119 0.659147
H24_2 H 0.917773 0.624606 0.747137
H27_2 H 0.794582 0.153392 0.659147
H28_2 H 0.706832 0.0822268 0.747137
H33_2 H 0.846672 0.205446 0.840856
H34_2 H 0.917751 0.293189 0.752833
O1_2 O 0.2371(1) 0.763 0.7500
O2_2 O 0.3854(2) 0.8070(2) 0.6416(2)
C1_2 C 0.2684(3) 0.8537(3) 0.7005(3)
C2_2 C 0.3566(3) 0.8703(3) 0.6396(3)
Gd1_4 Gd 0.333 0.667 0.7500
C3_2 C 0.1463(3) 0.7316(3) 0.7995(3)
C4_2 C 0.1297(3) 0.6434(3) 0.8604(3)
O5_2 O 0.1930(2) 0.6146(2) 0.8584(2)
O13_2 O 0.237 0.4741(1) 0.7500
O14_2 O 0.5259(1) 0.7629(1) 0.7500
O15_2 O 0.1930(2) 0.5784(3) 0.6416(2)
O16_2 O 0.3854(2) 0.5784(3) 0.8584(2)
O17_2 O 0.4216(3) 0.6146(2) 0.6416(2)
O18_2 O 0.4216(3) 0.8070(2) 0.8584(2)
C9_2 C 0.1463(3) 0.4147(4) 0.7005(3)
C10_2 C 0.2684(3) 0.4147(4) 0.7995(3)
C11_2 C 0.5853(4) 0.7316(3) 0.7005(3)
C12_2 C 0.5853(4) 0.8537(3) 0.7995(3)
C13_2 C 0.1297(3) 0.4863(4) 0.6396(3)
C14_2 C 0.3566(3) 0.4863(4) 0.8604(3)
C15_2 C 0.5137(4) 0.6434(3) 0.6396(3)
C16_2 C 0.5137(4) 0.8703(3) 0.8604(3)
H1_2 H 0.64119 0.794582 0.659147
H2_2 H 0.624606 0.706832 0.747137
H3_2 H 0.205446 0.358774 0.840856
H4_2 H 0.293189 0.375438 0.752833
H5_2 H 0.153392 0.35881 0.659147
H6_2 H 0.0822268 0.375394 0.747137
H7_2 H 0.641226 0.846672 0.840856
H8_2 H 0.624562 0.917751 0.752833
H29_2 H 0.153328 0.794554 0.840856
H30_2 H 0.0822494 0.706811 0.752833
H31_2 H 0.205418 0.846608 0.659147
H32_2 H 0.293168 0.917773 0.747137
Gd1_5 Gd 0.666 0.333 0.7500
Gd2_5 Gd 0.334 0.667 0.7500
Gd1_6 Gd 0.333 0.666 0.7500
Gd2_6 Gd 0.667 0.334 0.7500
loop_
_geom_bond_atom_site_label_1
_geom_bond_atom_site_label_2
_geom_bond_site_symmetry_1
_geom_bond_site_symmetry_2
O35 Cu4 1_555 1_555
O36 Cu4 1_555 1_555
O39 Cu4 1_555 1_555
O1 C1 1_555 1_555
O2 C2 1_555 1_555
O3 C2 1_555 1_555
O4 Cu1 1_555 1_555
C1 C2 1_555 1_555
Gd1 O1 1_555 1_555
Cu1 O3 1_555 1_555
C3 O1 1_555 1_555
C4 C3 1_555 1_555
O5 Gd1 1_555 1_555
O6 C4 1_555 1_555
O13 Gd1 1_555 1_555
O14 Gd1 1_555 1_555
O15 Gd1 1_555 1_555
O16 Gd1 1_555 1_555
O17 Gd1 1_555 1_555
O18 Gd1 1_555 1_555
O20 Cu1 1_555 1_555
Cu2_3 O6 1_555 1_555
C9 O13 1_555 1_555
C10 O13 1_555 1_555
C11 O14 1_555 1_555
C12 O14 1_555 1_555
C13 O15 1_555 1_555
C14 O16 1_555 1_555
C15 O17 1_555 1_555
C16 O18 1_555 1_555
O27 C13 1_555 1_555
O28 C14 1_555 1_555
O29 C15 1_555 1_555
O30 C16 1_555 1_555
Cu4_2 O27 1_555 1_555
Cu5 O28 1_555 1_555
Cu6 O29 1_555 1_555
Cu7 O30 1_555 1_555
O37 Cu4_2 1_555 1_555
O38 Cu4_2 1_555 1_555
O43 Cu7 1_555 1_555
O2 Gd1 1_555 1_555
C4 O5 1_555 1_555
C9 C13 1_555 1_555
C10 C14 1_555 1_555
C11 C15 1_555 1_555
C12 C16 1_555 1_555
C11 H1 1_555 1_555
C11 H2 1_555 1_555
C10 H3 1_555 1_555
C10 H4 1_555 1_555
C9 H5 1_555 1_555
C9 H6 1_555 1_555
C12 H7 1_555 1_555
C12 H8 1_555 1_555
C3 H29 1_555 1_555
C3 H30 1_555 1_555
C1 H31 1_555 1_555
C1 H32 1_555 1_555
O40 Cu7_2 1_555 1_555
O43_2 Cu7_2 1_555 1_555
O7 C5 1_555 1_555
O8 C6 1_555 1_555
O9 Cu1_2 1_555 1_555
C5 C6 1_555 1_555
C6 O9 1_555 1_555
C7 O7 1_555 1_555
C8 C7 1_555 1_555
O10 C8 1_555 1_555
O11 C8 1_555 1_555
O12 Cu1_2 1_555 1_555
Gd2 O7 1_555 1_555
O19 Cu1_2 1_555 1_555
Cu2 O11 1_555 1_555
O21 Gd2 1_555 1_555
O22 Gd2 1_555 1_555
O23 Gd2 1_555 1_555
O24 Gd2 1_555 1_555
O25 Gd2 1_555 1_555
O26 Gd2 1_555 1_555
C17 O21 1_555 1_555
C18 O21 1_555 1_555
C19 O22 1_555 1_555
C20 O22 1_555 1_555
C21 O23 1_555 1_555
C22 O24 1_555 1_555
C23 O25 1_555 1_555
C24 O26 1_555 1_555
O31 C21 1_555 1_555
O32 C22 1_555 1_555
O35 C23 1_555 1_555
O34 C24 1_555 1_555
Cu6 O31 1_555 1_555
Cu5 O34 1_555 1_555
O42 Cu7_3 1_555 1_555
O8 Gd2 1_555 1_555
O10 Gd2 1_555 1_555
C17 C21 1_555 1_555
C18 C22 1_555 1_555
C19 C23 1_555 1_555
C20 C24 1_555 1_555
O32 Cu7_3 1_555 1_555
C18 H17 1_555 1_555
C18 H18 1_555 1_555
C20 H19 1_555 1_555
C20 H20 1_555 1_555
C17 H21 1_555 1_555
C17 H22 1_555 1_555
C19 H23 1_555 1_555
C19 H24 1_555 1_555
C5 H27 1_555 1_555
C5 H28 1_555 1_555
C7 H33 1_555 1_555
C7 H34 1_555 1_555
O41 Cu7_4 1_555 1_555
O42_2 Cu7_4 1_555 1_555
O4_2 Cu6 1_555 1_555
Gd1_2 O21 1_555 1_555
O24 Gd1_2 1_555 1_555
O12_2 Cu6 1_555 1_555
Gd2_2 O14 1_555 1_555
O7 Gd1_2 1_555 1_555
O22 Gd1_2 1_555 1_555
O8 Gd1_2 1_555 1_555
O10 Gd1_2 1_555 1_555
O25 Gd1_2 1_555 1_555
O26 Gd1_2 1_555 1_555
O19_2 Cu6 1_555 1_555
O20_2 Cu6 1_555 1_555
O13 Gd2_2 1_555 1_555
O1 Gd2_2 1_555 1_555
O15 Gd2_2 1_555 1_555
O16 Gd2_2 1_555 1_555
O2 Gd2_2 1_555 1_555
O5 Gd2_2 1_555 1_555
O42_3 Cu5 1_555 1_555
O43_3 Cu5 1_555 1_555
O23 Gd1_2 1_555 1_555
O17 Gd2_2 1_555 1_555
O18 Gd2_2 1_555 1_555
O40_2 Cu5_2 1_555 1_555
O41_2 Cu5_2 1_555 1_555
O42_4 Cu5_2 1_555 1_555
O43_4 Cu5_2 1_555 1_555
O12_3 Cu2 1_555 1_555
O12_4 Cu2_2 1_555 1_555
O19_3 Cu2_2 1_555 1_555
O4_3 Cu2_3 1_555 1_555
O4_4 Cu2_4 1_555 1_555
O20_3 Cu2_4 1_555 1_555
Gd2_3 O22 1_555 1_555
O7 Gd2_3 1_555 1_555
O21 Gd2_3 1_555 1_555
O8 Gd2_3 1_555 1_555
O10 Gd2_3 1_555 1_555
O23 Gd2_3 1_555 1_555
O24 Gd2_3 1_555 1_555
O25 Gd2_3 1_555 1_555
O26 Gd2_3 1_555 1_555
Gd1_3 O13 1_555 1_555
O16 Gd1_3 1_555 1_555
O14 Gd1_3 1_555 1_555
O1 Gd1_3 1_555 1_555
O17 Gd1_3 1_555 1_555
O18 Gd1_3 1_555 1_555
O2 Gd1_3 1_555 1_555
O5 Gd1_3 1_555 1_555
O15 Gd1_3 1_555 1_555
O7_2 C5_2 1_555 1_555
O8_2 C6_2 1_555 1_555
C5_2 C6_2 1_555 1_555
C6_2 O20 1_555 1_555
C7_2 O7_2 1_555 1_555
C8_2 C7_2 1_555 1_555
O10_2 C8_2 1_555 1_555
O20_3 C8_2 1_555 1_555
Gd2_4 O7_2 1_555 1_555
O21_2 Gd2_4 1_555 1_555
O22_2 Gd2_4 1_555 1_555
O23_2 Gd2_4 1_555 1_555
O24_2 Gd2_4 1_555 1_555
O25_2 Gd2_4 1_555 1_555
O26_2 Gd2_4 1_555 1_555
C17_2 O21_2 1_555 1_555
C18_2 O21_2 1_555 1_555
C19_2 O22_2 1_555 1_555
C20_2 O22_2 1_555 1_555
C21_2 O23_2 1_555 1_555
C22_2 O24_2 1_555 1_555
C23_2 O25_2 1_555 1_555
C24_2 O26_2 1_555 1_555
O19_2 C21_2 1_555 1_555
O40 C22_2 1_555 1_555
O37 C23_2 1_555 1_555
O41_2 C24_2 1_555 1_555
O8_2 Gd2_4 1_555 1_555
O10_2 Gd2_4 1_555 1_555
C17_2 C21_2 1_555 1_555
C18_2 C22_2 1_555 1_555
C19_2 C23_2 1_555 1_555
C20_2 C24_2 1_555 1_555
C18_2 H17_2 1_555 1_555
C18_2 H18_2 1_555 1_555
C20_2 H19_2 1_555 1_555
C20_2 H20_2 1_555 1_555
C17_2 H21_2 1_555 1_555
C17_2 H22_2 1_555 1_555
C19_2 H23_2 1_555 1_555
C19_2 H24_2 1_555 1_555
C5_2 H27_2 1_555 1_555
C5_2 H28_2 1_555 1_555
C7_2 H33_2 1_555 1_555
C7_2 H34_2 1_555 1_555
O1_2 C1_2 1_555 1_555
O2_2 C2_2 1_555 1_555
O19 C2_2 1_555 1_555
C1_2 C2_2 1_555 1_555
Gd1_4 O1_2 1_555 1_555
C3_2 O1_2 1_555 1_555
C4_2 C3_2 1_555 1_555
O5_2 Gd1_4 1_555 1_555
O19_3 C4_2 1_555 1_555
O13_2 Gd1_4 1_555 1_555
O14_2 Gd1_4 1_555 1_555
O15_2 Gd1_4 1_555 1_555
O16_2 Gd1_4 1_555 1_555
O17_2 Gd1_4 1_555 1_555
O18_2 Gd1_4 1_555 1_555
C9_2 O13_2 1_555 1_555
C10_2 O13_2 1_555 1_555
C11_2 O14_2 1_555 1_555
C12_2 O14_2 1_555 1_555
C13_2 O15_2 1_555 1_555
C14_2 O16_2 1_555 1_555
C15_2 O17_2 1_555 1_555
C16_2 O18_2 1_555 1_555
O36 C13_2 1_555 1_555
O40_2 C14_2 1_555 1_555
O20_2 C15_2 1_555 1_555
O41 C16_2 1_555 1_555
O2_2 Gd1_4 1_555 1_555
C4_2 O5_2 1_555 1_555
C9_2 C13_2 1_555 1_555
C10_2 C14_2 1_555 1_555
C11_2 C15_2 1_555 1_555
C12_2 C16_2 1_555 1_555
C11_2 H1_2 1_555 1_555
C11_2 H2_2 1_555 1_555
C10_2 H3_2 1_555 1_555
C10_2 H4_2 1_555 1_555
C9_2 H5_2 1_555 1_555
C9_2 H6_2 1_555 1_555
C12_2 H7_2 1_555 1_555
C12_2 H8_2 1_555 1_555
C3_2 H29_2 1_555 1_555
C3_2 H30_2 1_555 1_555
C1_2 H31_2 1_555 1_555
C1_2 H32_2 1_555 1_555
Gd1_5 O21_2 1_555 1_555
O24_2 Gd1_5 1_555 1_555
Gd2_5 O14_2 1_555 1_555
O7_2 Gd1_5 1_555 1_555
O22_2 Gd1_5 1_555 1_555
O8_2 Gd1_5 1_555 1_555
O10_2 Gd1_5 1_555 1_555
O25_2 Gd1_5 1_555 1_555
O26_2 Gd1_5 1_555 1_555
O13_2 Gd2_5 1_555 1_555
O1_2 Gd2_5 1_555 1_555
O15_2 Gd2_5 1_555 1_555
O16_2 Gd2_5 1_555 1_555
O2_2 Gd2_5 1_555 1_555
O5_2 Gd2_5 1_555 1_555
O23_2 Gd1_5 1_555 1_555
O17_2 Gd2_5 1_555 1_555
O18_2 Gd2_5 1_555 1_555
Gd1_6 O13_2 1_555 1_555
O16_2 Gd1_6 1_555 1_555
O14_2 Gd1_6 1_555 1_555
O1_2 Gd1_6 1_555 1_555
O17_2 Gd1_6 1_555 1_555
O18_2 Gd1_6 1_555 1_555
O2_2 Gd1_6 1_555 1_555
O5_2 Gd1_6 1_555 1_555
O15_2 Gd1_6 1_555 1_555
Gd2_6 O22_2 1_555 1_555
O7_2 Gd2_6 1_555 1_555
O21_2 Gd2_6 1_555 1_555
O8_2 Gd2_6 1_555 1_555
O10_2 Gd2_6 1_555 1_555
O23_2 Gd2_6 1_555 1_555
O24_2 Gd2_6 1_555 1_555
O25_2 Gd2_6 1_555 1_555
O26_2 Gd2_6 1_555 1_555

#END
