
###############################################################################
#
# This file contains modified crystal structure data generated from the
# MOF subset of the Cambridge Structural Database (CSD) v543 
# hosted by the Cambridge Crystallographic Data Centre (CCDC).
#
# This work is licensed under the Creative Commons
# Attribution-NonCommercial-ShareAlike 4.0 International License.
# To view a copy of this license, visit
# http://creativecommons.org/licenses/by-nc-sa/4.0/
# or send a letter to
# Creative Commons, PO Box 1866, Mountain View, CA 94042, USA.
#
# CIF created using the CSD Python API on 29 September 2022
# The structure has been converted into the P1 space group
# The structure has a 3D framework
# The original CSD entry RONSUK01 is in the rhombohedral crystal system
# The framework has been calculated to contain at least 10.0% void space
# The void calculation uses a probe of radius 1.32A, grid spacing 0.4
# The framework is charged, counterions have been retained in the structure
#
###############################################################################

data_RONSUK01
_chemical_formula_moiety         '(C18 H18 Fe4 Na9 O33 6-)n'
_symmetry_cell_setting           triclinic
_symmetry_space_group_name_H-M   'P 1'
_symmetry_Int_Tables_number      1
_space_group_name_Hall           'P 1'
loop_
_symmetry_equiv_pos_site_id
_symmetry_equiv_pos_as_xyz
1 x,y,z
_cell_length_a                   8.3570(12)
_cell_length_b                   8.3570(12)
_cell_length_c                   23.136(5)
_cell_angle_alpha                90
_cell_angle_beta                 90
_cell_angle_gamma                120
_cell_volume                     1399.33
loop_
_atom_site_label
_atom_site_type_symbol
_atom_site_fract_x
_atom_site_fract_y
_atom_site_fract_z
Fe5 Fe 0.0000 -0.0000 0.5000
Fe5_2 Fe 0.0000 1.0000 0.5000
O9 O 0.20552(3) 0.01583(3) 0.549440(12)
Fe5_3 Fe 1.0000 -0.0000 0.5000
Na1 Na 0.3333 0.6667 0.6667
Fe1 Fe 0.6667 0.3333 0.8333
O1 O 0.46115(3) 0.31750(3) 0.783893(12)
O2 O 0.32529(4) 0.42806(4) 0.727524(15)
C1 C 0.45383(5) 0.44576(5) 0.756988(18)
H1 H 0.5596(7) 0.5687(7) 0.7625(2)
O3 O 0.68250(3) 0.14365(4) 0.783893(12)
C2 C 0.55424(5) 0.00807(7) 0.756988(18)
O6 O 0.10277(6) 0.67471(4) 0.727524(15)
H3 H 0.0091(10) 0.4404(7) 0.7625(2)
O8 O 0.09473(4) 0.43610(6) 0.605809(15)
C4 C 0.11243(5) 0.32526(7) 0.576345(18)
H4 H 0.2354(7) 0.3424(10) 0.5708(2)
O10 O 0.34138(4) 0.90527(4) 0.605809(15)
C5 C 0.21284(5) 0.88757(5) 0.576345(18)
H5 H 0.1071(7) 0.7646(7) 0.5708(2)
O11 O 0.81032(4) 0.79448(3) 0.549440(12)
O12 O 0.56390(6) 0.65862(4) 0.605809(15)
C6 C 0.67474(7) 0.78716(5) 0.576345(18)
H6 H 0.6576(10) 0.8929(7) 0.5708(2)
Fe5_4 Fe 1.0000 1.0000 0.5000
O13 O 0.85635(4) 0.53885(3) 0.783893(12)
O14 O 0.87218(3) 0.34917(3) 0.882774(12)
O15 O 0.65083(3) 0.52302(4) 0.882774(12)
O16 O 0.47698(4) 0.12782(3) 0.882774(12)
O17 O 0.57194(4) 0.89723(6) 0.727524(15)
H2 H 0.4313(7) 0.9909(10) 0.7625(2)
C3 C 0.99193(7) 0.54617(5) 0.756988(18)
O7 O 0.98417(3) 0.18968(4) 0.549440(12)
Na1_2 Na -0.0000 0.0000 0.0000
O17_2 O 0.23861(4) 0.23056(6) 0.060857(15)
Na1_3 Na -0.0000 0.0000 1.0000
O10_2 O 0.00804(4) 0.23861(4) 0.939143(15)
C6_2 C 0.34140(7) 0.12050(5) 0.909679(18)
H6_2 H 0.3242(10) 0.2263(7) 0.9042(2)
Na1_4 Na -0.0000 1.0000 0.0000
Fe1_2 Fe 0.3334 0.6666 0.1666
O1_2 O 0.12782(3) 0.65083(3) 0.117226(12)
C1_2 C 0.12050(5) 0.77909(5) 0.090321(18)
H1_2 H 0.2263(7) 0.9020(7) 0.0958(2)
O3_2 O 0.34917(3) 0.47698(4) 0.117226(12)
C2_2 C 0.22091(5) 0.34140(7) 0.090321(18)
H2_2 H 0.0980(7) 0.3242(10) 0.0958(2)
O13_2 O 0.52302(4) 0.87218(3) 0.117226(12)
O14_2 O 0.53885(3) 0.68250(3) 0.216107(12)
O15_2 O 0.31750(3) 0.85635(4) 0.216107(12)
O16_2 O 0.14365(4) 0.46115(3) 0.216107(12)
Na1_5 Na -0.0000 1.0000 1.0000
O12_2 O 0.23056(6) 0.99196(4) 0.939143(15)
Na1_6 Na 1.0000 0.0000 0.0000
O6_2 O 0.76944(6) 0.00804(4) 0.060857(15)
Na1_7 Na 1.0000 0.0000 1.0000
C5_2 C 0.87950(5) 0.22091(5) 0.909679(18)
H5_2 H 0.7737(7) 0.0980(7) 0.9042(2)
Na1_8 Na 1.0000 1.0000 0.0000
O2_2 O 0.99196(4) 0.76139(4) 0.060857(15)
C3_2 C 0.65860(7) 0.87950(5) 0.090321(18)
H3_2 H 0.6758(10) 0.7737(7) 0.0958(2)
Na1_9 Na 1.0000 1.0000 1.0000
O8_2 O 0.76139(4) 0.76944(6) 0.939143(15)
C4_2 C 0.77909(5) 0.65860(7) 0.909679(18)
H4_2 H 0.9020(7) 0.6758(10) 0.9042(2)
C6_3 C 0.00807(7) 0.45383(5) 0.243012(18)
O13_3 O 0.18968(4) 0.20552(3) 0.450560(12)
O3_3 O 0.01583(3) 0.81032(4) 0.450560(12)
Na1_10 Na 0.6666 0.3334 0.3334
O2_3 O 0.65862(4) 0.09473(4) 0.394191(15)
C1_3 C 0.78716(5) 0.11243(5) 0.423655(18)
H1_3 H 0.8929(7) 0.2354(7) 0.4292(2)
O6_3 O 0.43610(6) 0.34138(4) 0.394191(15)
C3_3 C 0.32526(7) 0.21284(5) 0.423655(18)
H3_3 H 0.3424(10) 0.1071(7) 0.4292(2)
O8_3 O 0.42806(4) 0.10277(6) 0.272476(15)
H4_3 H 0.5687(7) 0.0091(10) 0.2375(2)
O10_3 O 0.67471(4) 0.57194(4) 0.272476(15)
C5_3 C 0.54617(5) 0.55424(5) 0.243012(18)
H5_3 H 0.4404(7) 0.4313(7) 0.2375(2)
O12_3 O 0.89723(6) 0.32529(4) 0.272476(15)
H6_3 H 0.9909(10) 0.5596(7) 0.2375(2)
O17_3 O 0.90527(4) 0.56390(6) 0.394191(15)
O1_3 O 0.79448(3) 0.98417(3) 0.450560(12)
C2_3 C 0.88757(5) 0.67474(7) 0.423655(18)
H2_3 H 0.7646(7) 0.6576(10) 0.4292(2)
C4_3 C 0.44576(5) 0.99193(7) 0.243012(18)
loop_
_geom_bond_atom_site_label_1
_geom_bond_atom_site_label_2
_geom_bond_site_symmetry_1
_geom_bond_site_symmetry_2
Fe5 O9 1_555 1_555
Na1 O2 1_555 1_555
Fe1 O1 1_555 1_555
O1 C1 1_555 1_555
O2 C1 1_555 1_555
C1 H1 1_555 1_555
O3 Fe1 1_555 1_555
C2 O3 1_555 1_555
O6 Na1 1_555 1_555
O8 Na1 1_555 1_555
C4 O8 1_555 1_555
H4 C4 1_555 1_555
O10 Na1 1_555 1_555
C5 O10 1_555 1_555
H5 C5 1_555 1_555
O11 C6 1_555 1_555
O12 Na1 1_555 1_555
C6 O12 1_555 1_555
H6 C6 1_555 1_555
Fe5_4 O11 1_555 1_555
O13 Fe1 1_555 1_555
O14 Fe1 1_555 1_555
O15 Fe1 1_555 1_555
O16 Fe1 1_555 1_555
O17 Na1 1_555 1_555
O13 C3 1_555 1_555
Fe5_3 O7 1_555 1_555
O17_2 Na1_2 1_555 1_555
O10_2 Na1_3 1_555 1_555
O16 C6_2 1_555 1_555
H6_2 C6_2 1_555 1_555
Fe1_2 O1_2 1_555 1_555
O1_2 C1_2 1_555 1_555
C1_2 H1_2 1_555 1_555
O3_2 Fe1_2 1_555 1_555
O17_2 C2_2 1_555 1_555
C2_2 O3_2 1_555 1_555
H2_2 C2_2 1_555 1_555
O13_2 Fe1_2 1_555 1_555
O14_2 Fe1_2 1_555 1_555
O15_2 Fe1_2 1_555 1_555
O16_2 Fe1_2 1_555 1_555
O12_2 Na1_5 1_555 1_555
O6_2 Na1_6 1_555 1_555
O14 C5_2 1_555 1_555
H5_2 C5_2 1_555 1_555
Na1_8 O2_2 1_555 1_555
O13_2 C3_2 1_555 1_555
H3_2 C3_2 1_555 1_555
O15 C4_2 1_555 1_555
O8_2 Na1_9 1_555 1_555
C4_2 O8_2 1_555 1_555
H4_2 C4_2 1_555 1_555
O16_2 C6_3 1_555 1_555
O13_3 Fe5 1_555 1_555
O3_3 Fe5_2 1_555 1_555
Na1_10 O2_3 1_555 1_555
O2_3 C1_3 1_555 1_555
C1_3 H1_3 1_555 1_555
O13_3 C3_3 1_555 1_555
O6_3 Na1_10 1_555 1_555
C3_3 O6_3 1_555 1_555
H3_3 C3_3 1_555 1_555
O8_3 Na1_10 1_555 1_555
O14_2 C5_3 1_555 1_555
O10_3 Na1_10 1_555 1_555
C5_3 O10_3 1_555 1_555
H5_3 C5_3 1_555 1_555
O12_3 Na1_10 1_555 1_555
O17_3 Na1_10 1_555 1_555
Fe5_4 O1_3 1_555 1_555
O17_3 C2_3 1_555 1_555
H2_3 C2_3 1_555 1_555
O15_2 C4_3 1_555 1_555

#END
