
###############################################################################
#
# This file contains modified crystal structure data generated from the
# MOF subset of the Cambridge Structural Database (CSD) v543 
# hosted by the Cambridge Crystallographic Data Centre (CCDC).
#
# This work is licensed under the Creative Commons
# Attribution-NonCommercial-ShareAlike 4.0 International License.
# To view a copy of this license, visit
# http://creativecommons.org/licenses/by-nc-sa/4.0/
# or send a letter to
# Creative Commons, PO Box 1866, Mountain View, CA 94042, USA.
#
# CIF created using the CSD Python API on 29 September 2022
# The structure has been converted into the P1 space group
# The structure has a 3D framework
# The original CSD entry RONSIY is in the monoclinic crystal system
# The framework has been calculated to contain at least 10.0% void space
# The void calculation uses a probe of radius 1.32A, grid spacing 0.4
#
###############################################################################

data_RONSIY
_chemical_formula_moiety         '(C100 H80 Cu4 N8 O20)n'
_symmetry_cell_setting           triclinic
_symmetry_space_group_name_H-M   'P 1'
_symmetry_Int_Tables_number      1
_space_group_name_Hall           'P 1'
loop_
_symmetry_equiv_pos_site_id
_symmetry_equiv_pos_as_xyz
1 x,y,z
_cell_length_a                   13.7894(11)
_cell_length_b                   17.4839(14)
_cell_length_c                   10.8445(9)
_cell_angle_alpha                90
_cell_angle_beta                 100.4290(10)
_cell_angle_gamma                90
_cell_volume                     2571.34
loop_
_atom_site_label
_atom_site_type_symbol
_atom_site_fract_x
_atom_site_fract_y
_atom_site_fract_z
H17 H 0.0448 0.4034 0.1346
N4 N 0.16012(13) 0.65973(10) 0.01874(17)
C31 C 0.18169(16) 0.59969(13) 0.0939(2)
H25 H 0.2403 0.6003 0.1519
C32 C 0.12151(17) 0.53671(13) 0.0901(2)
H26 H 0.1395 0.4963 0.1452
C33 C 0.03369(15) 0.53349(12) 0.0040(2)
Cu4 Cu 0.25266(2) 0.75204(2) 0.03977(3)
N3 N 0.34441(13) 0.84180(10) 0.02585(18)
C26 C 0.42611(18) 0.85364(14) 0.1094(3)
H21 H 0.4421 0.8194 0.1756
C27 C 0.48841(18) 0.91473(15) 0.1021(3)
H22 H 0.5446 0.9210 0.1632
C28 C 0.46788(16) 0.96648(12) 0.0050(2)
O6 O 0.36522(11) 0.68612(9) 0.08540(18)
C36 C 0.41910(18) 0.66357(15) 0.0091(3)
C37 C 0.50926(17) 0.62095(14) 0.0673(2)
C39 C 0.6480(2) 0.5421(2) 0.0489(3)
C40 C 0.67337(17) 0.53431(14) 0.1760(3)
C41 C 0.6161(2) 0.57182(17) 0.2481(3)
H31 H 0.6326 0.5683 0.3349
C42 C 0.53536(19) 0.61443(16) 0.1958(3)
H32 H 0.4981 0.6390 0.2473
C43 C 0.75936(16) 0.48564(15) 0.2365(3)
H33 H 0.7361 0.4474 0.2891
H34 H 0.7862 0.4591 0.1717
C44 C 0.84019(17) 0.53207(14) 0.3151(3)
C45 C 0.90616(19) 0.57278(16) 0.2599(3)
H35 H 0.9000 0.5721 0.1731
C46 C 0.98146(18) 0.61472(15) 0.3306(3)
C47 C 0.99171(16) 0.61776(14) 0.4590(2)
C48 C 0.92492(19) 0.57777(16) 0.5150(3)
H37 H 0.9298 0.5795 0.6016
C49 C 0.85088(19) 0.53520(17) 0.4437(3)
H38 H 0.8073 0.5081 0.4834
O10 O 0.24434(11) 0.75788(9) 0.25139(18)
H39 H 0.2880 0.7851 0.2945
H40 H 0.1952 0.7855 0.2244
O4 O 0.07305(15) 0.82721(14) 0.14832(19)
C15 C 0.07450(17) 0.83955(14) 0.0375(3)
C34 C 0.01276(17) 0.59587(13) 0.9253(2)
C35 C 0.07654(17) 0.65677(13) 0.9353(2)
H28 H 0.0606 0.6979 0.8811
C29 C 0.38247(18) 0.95312(14) 0.9184(2)
H23 H 0.3646 0.9862 0.8510
C30 C 0.32420(17) 0.89117(13) 0.9323(2)
H24 H 0.2675 0.8835 0.8726
O7 O 0.40145(16) 0.67476(15) 0.8959(2)
C38 C 0.5670(2) 0.5848(2) 0.9950(3)
H29 H 0.5514 0.5890 0.9082
H30 H 0.6861 0.5183 0.9975
O11 O 0.14230(11) 0.81817(8) 0.97970(16)
H8 H 0.0256 0.8589 0.7908
C8 C 0.75936(16) 0.01436(15) 0.7365(3)
H5 H 0.7361 0.0526 0.7891
H6 H 0.7862 0.0409 0.6717
H16 H 0.1395 0.0037 0.6452
H27 H 0.0448 0.0966 0.6346
O8 O 0.14230(11) 0.68183(8) 0.47970(16)
O9 O 0.07305(15) 0.67279(14) 0.64832(19)
H36 H 0.0256 0.6411 0.2908
C50 C 0.07450(17) 0.66045(14) 0.5375(3)
Cu3 Cu 0.25266(2) 0.74796(2) 0.53977(3)
O3 O 0.85770(11) 0.31817(8) 0.52030(16)
O4_2 O 0.92695(15) 0.32721(14) 0.35168(19)
H8_2 H 0.9744 0.3589 0.7092
C15_2 C 0.92550(17) 0.33955(14) 0.4625(3)
Cu5 Cu 0.74734(2) 0.25204(2) 0.46023(3)
O1 O 0.36522(11) 0.81388(9) 0.58540(18)
O2 O 0.40145(16) 0.82524(15) 0.3959(2)
N1 N 0.34441(13) 0.65820(10) 0.52585(18)
N2 N 0.16012(13) 0.84027(10) 0.51874(17)
C1 C 0.41910(18) 0.83643(15) 0.5091(3)
C2 C 0.50926(17) 0.87905(14) 0.5673(2)
C3 C 0.5670(2) 0.9152(2) 0.4950(3)
H1 H 0.5514 0.9110 0.4082
C4 C 0.6480(2) 0.9579(2) 0.5489(3)
H2 H 0.6861 0.9817 0.4975
C5 C 0.67337(17) 0.96569(14) 0.6760(3)
C6 C 0.6161(2) 0.92818(17) 0.7481(3)
H3 H 0.6326 0.9317 0.8349
C7 C 0.53536(19) 0.88557(16) 0.6958(3)
H4 H 0.4981 0.8610 0.7473
C9 C 0.84019(17) 0.96793(14) 0.8151(3)
C10 C 0.90616(19) 0.92722(16) 0.7599(3)
H7 H 0.9000 0.9279 0.6731
C11 C 0.98146(18) 0.88528(15) 0.8306(3)
C12 C 0.99171(16) 0.88224(14) 0.9590(2)
C14 C 0.85088(19) 0.96480(17) 0.9437(3)
H10 H 0.8073 0.9919 0.9834
C16 C 0.42611(18) 0.64636(14) 0.6094(3)
H11 H 0.4421 0.6806 0.6756
C17 C 0.48841(18) 0.58527(15) 0.6021(3)
H12 H 0.5446 0.5790 0.6632
C18 C 0.46788(16) 0.53352(12) 0.5050(2)
C19 C 0.38247(18) 0.54688(14) 0.4184(2)
H13 H 0.3646 0.5138 0.3510
C20 C 0.32420(17) 0.60883(13) 0.4323(2)
H14 H 0.2675 0.6165 0.3726
C21 C 0.18169(16) 0.90031(13) 0.5939(2)
H15 H 0.2403 0.8997 0.6519
C22 C 0.12151(17) 0.96329(13) 0.5901(2)
C23 C 0.03369(15) 0.96651(12) 0.5040(2)
C24 C 0.01276(17) 0.90413(13) 0.4253(2)
C25 C 0.07654(17) 0.84323(13) 0.4353(2)
H18 H 0.0606 0.8021 0.3811
O5 O 0.24434(11) 0.74212(9) 0.75139(18)
H19 H 0.2880 0.7149 0.7945
H20 H 0.1952 0.7145 0.7244
N3_2 N 0.65559(13) 0.34180(10) 0.47415(18)
C26_2 C 0.57389(18) 0.35364(14) 0.3906(3)
H21_2 H 0.5579 0.3194 0.3244
C27_2 C 0.51159(18) 0.41473(15) 0.3979(3)
H22_2 H 0.4554 0.4210 0.3368
C28_2 C 0.53212(16) 0.46648(12) 0.4950(2)
C29_2 C 0.61753(18) 0.45312(14) 0.5816(2)
H23_2 H 0.6354 0.4862 0.6490
C30_2 C 0.67580(17) 0.39117(13) 0.5677(2)
H24_2 H 0.7325 0.3835 0.6274
O6_2 O 0.63478(11) 0.18612(9) 0.41460(18)
O7_2 O 0.59855(16) 0.17476(15) 0.6041(2)
C36_2 C 0.58090(18) 0.16357(15) 0.4909(3)
C37_2 C 0.49074(17) 0.12095(14) 0.4327(2)
C38_2 C 0.4330(2) 0.0848(2) 0.5050(3)
H29_2 H 0.4486 0.0890 0.5918
C39_2 C 0.3520(2) 0.0421(2) 0.4511(3)
H30_2 H 0.3139 0.0183 0.5025
C40_2 C 0.32663(17) 0.03431(14) 0.3240(3)
C41_2 C 0.3839(2) 0.07182(17) 0.2519(3)
H31_2 H 0.3674 0.0683 0.1651
C42_2 C 0.46464(19) 0.11443(16) 0.3042(3)
H32_2 H 0.5019 0.1390 0.2527
C44_2 C 0.15981(17) 0.03207(14) 0.1849(3)
C45_2 C 0.09384(19) 0.07278(16) 0.2401(3)
H35_2 H 0.1000 0.0721 0.3269
C46_2 C 0.01854(18) 0.11472(15) 0.1694(3)
C47_2 C 0.00829(16) 0.11776(14) 0.0410(2)
C49_2 C 0.14912(19) 0.03520(17) 0.0563(3)
H38_2 H 0.1927 0.0081 0.0166
O10_2 O 0.75566(11) 0.25788(9) 0.24861(18)
H39_2 H 0.7120 0.2851 0.2055
H40_2 H 0.8048 0.2855 0.2756
N5 N 0.83988(13) 0.15973(10) 0.48126(17)
C31_2 C 0.81831(16) 0.09969(13) 0.4061(2)
H25_2 H 0.7597 0.1003 0.3481
C32_2 C 0.87849(17) 0.03671(13) 0.4099(2)
C33_2 C 0.96631(15) 0.03349(12) 0.4960(2)
C34_2 C 0.98724(17) 0.09587(13) 0.5747(2)
C35_2 C 0.92346(17) 0.15677(13) 0.5647(2)
H28_2 H 0.9394 0.1979 0.6189
O2_2 O 0.59855(16) 0.32524(15) 0.1041(2)
C3_2 C 0.4330(2) 0.4152(2) 0.0050(3)
H1_2 H 0.4486 0.4110 0.0918
H2_2 H 0.3139 0.4817 0.0025
C19_2 C 0.61753(18) 0.04688(14) 0.0816(2)
H13_2 H 0.6354 0.0138 0.1490
C20_2 C 0.67580(17) 0.10883(13) 0.0677(2)
H14_2 H 0.7325 0.1165 0.1274
C24_2 C 0.98724(17) 0.40413(13) 0.0747(2)
C25_2 C 0.92346(17) 0.34323(13) 0.0647(2)
H18_2 H 0.9394 0.3021 0.1189
O12 O 0.85770(11) 0.18183(8) 0.02030(16)
C43_2 C 0.24064(16) 0.98564(15) 0.2635(3)
H33_2 H 0.2639 0.9474 0.2109
H34_2 H 0.2138 0.9591 0.3283
H17_2 H 0.9552 0.9034 0.3654
H26_2 H 0.8605 0.9963 0.3548
H36_2 H 0.9744 0.1411 0.2092
Cu1 Cu 0.74734(2) 0.24796(2) 0.96023(3)
O1_2 O 0.63478(11) 0.31388(9) 0.91460(18)
N1_2 N 0.65559(13) 0.15820(10) 0.97415(18)
N2_2 N 0.83988(13) 0.34027(10) 0.98126(17)
C1_2 C 0.58090(18) 0.33643(15) 0.9909(3)
C2_2 C 0.49074(17) 0.37905(14) 0.9327(2)
C4_2 C 0.3520(2) 0.4579(2) 0.9511(3)
C5_2 C 0.32663(17) 0.46569(14) 0.8240(3)
C6_2 C 0.3839(2) 0.42818(17) 0.7519(3)
H3_2 H 0.3674 0.4317 0.6651
C7_2 C 0.46464(19) 0.38557(16) 0.8042(3)
H4_2 H 0.5019 0.3610 0.7527
C8_2 C 0.24064(16) 0.51436(15) 0.7635(3)
H5_2 H 0.2639 0.5526 0.7109
H6_2 H 0.2138 0.5409 0.8283
C9_2 C 0.15981(17) 0.46793(14) 0.6849(3)
C10_2 C 0.09384(19) 0.42722(16) 0.7401(3)
H7_2 H 0.1000 0.4279 0.8269
C11_2 C 0.01854(18) 0.38528(15) 0.6694(3)
C12_2 C 0.00829(16) 0.38224(14) 0.5410(2)
C13 C 0.07508(19) 0.42223(16) 0.4850(3)
H9 H 0.0702 0.4205 0.3984
C14_2 C 0.14912(19) 0.46480(17) 0.5563(3)
H10_2 H 0.1927 0.4919 0.5166
C16_2 C 0.57389(18) 0.14636(14) 0.8906(3)
H11_2 H 0.5579 0.1806 0.8244
C17_2 C 0.51159(18) 0.08527(15) 0.8979(3)
H12_2 H 0.4554 0.0790 0.8368
C18_2 C 0.53212(16) 0.03352(12) 0.9950(2)
C21_2 C 0.81831(16) 0.40031(13) 0.9061(2)
H15_2 H 0.7597 0.3997 0.8481
C22_2 C 0.87849(17) 0.46329(13) 0.9099(2)
H16_2 H 0.8605 0.5037 0.8548
C23_2 C 0.96631(15) 0.46651(12) 0.9960(2)
O5_2 O 0.75566(11) 0.24212(9) 0.74861(18)
H19_2 H 0.7120 0.2149 0.7055
H20_2 H 0.8048 0.2145 0.7756
H27_2 H 0.9552 0.5966 0.8654
O9_2 O 0.92695(15) 0.17279(14) 0.85168(19)
C50_2 C 0.92550(17) 0.16045(14) 0.9625(3)
C13_2 C 0.92492(19) 0.92223(16) 0.0150(3)
H9_2 H 0.9298 0.9205 0.1016
C48_2 C 0.07508(19) 0.07777(16) 0.9850(3)
H37_2 H 0.0702 0.0795 0.8984
loop_
_geom_bond_atom_site_label_1
_geom_bond_atom_site_label_2
_geom_bond_site_symmetry_1
_geom_bond_site_symmetry_2
N4 C31 1_555 1_555
C31 H25 1_555 1_555
C32 C31 1_555 1_555
H26 C32 1_555 1_555
Cu4 N4 1_555 1_555
C32 C33 1_555 1_555
N3 C26 1_555 1_555
C26 H21 1_555 1_555
C27 C26 1_555 1_555
H22 C27 1_555 1_555
Cu4 N3 1_555 1_555
O6 Cu4 1_555 1_555
C36 O6 1_555 1_555
C37 C36 1_555 1_555
C40 C39 1_555 1_555
C41 C40 1_555 1_555
H31 C41 1_555 1_555
C42 C37 1_555 1_555
H32 C42 1_555 1_555
C43 C40 1_555 1_555
H33 C43 1_555 1_555
H34 C43 1_555 1_555
C44 C43 1_555 1_555
C45 C44 1_555 1_555
H35 C45 1_555 1_555
C46 C45 1_555 1_555
C47 C46 1_555 1_555
C48 C47 1_555 1_555
H37 C48 1_555 1_555
C49 C44 1_555 1_555
H38 C49 1_555 1_555
O10 Cu4 1_555 1_555
H39 O10 1_555 1_555
H40 O10 1_555 1_555
C27 C28 1_555 1_555
C41 C42 1_555 1_555
C48 C49 1_555 1_555
O4 C15 1_555 1_555
H28 C35 1_555 1_555
C34 C35 1_555 1_555
H23 C29 1_555 1_555
H24 C30 1_555 1_555
H29 C38 1_555 1_555
C29 C30 1_555 1_555
H5 C8 1_555 1_555
H6 C8 1_555 1_555
O8 C50 1_555 1_555
O9 C50 1_555 1_555
Cu3 O8 1_555 1_555
O3 C15_2 1_555 1_555
O4_2 C15_2 1_555 1_555
Cu5 O3 1_555 1_555
Cu3 O1 1_555 1_555
O1 C1 1_555 1_555
O2 C1 1_555 1_555
N1 Cu3 1_555 1_555
N2 Cu3 1_555 1_555
C1 C2 1_555 1_555
C2 C3 1_555 1_555
C3 H1 1_555 1_555
C4 C3 1_555 1_555
H2 C4 1_555 1_555
C5 C4 1_555 1_555
C6 C5 1_555 1_555
H3 C6 1_555 1_555
C7 C2 1_555 1_555
H4 C7 1_555 1_555
C10 C9 1_555 1_555
H7 C10 1_555 1_555
C11 C10 1_555 1_555
C12 C11 1_555 1_555
C14 C9 1_555 1_555
H10 C14 1_555 1_555
C16 N1 1_555 1_555
H11 C16 1_555 1_555
C17 C16 1_555 1_555
H12 C17 1_555 1_555
C18 C17 1_555 1_555
C19 C18 1_555 1_555
H13 C19 1_555 1_555
C20 N1 1_555 1_555
H14 C20 1_555 1_555
C21 N2 1_555 1_555
H15 C21 1_555 1_555
C22 C21 1_555 1_555
C23 C22 1_555 1_555
C24 C23 1_555 1_555
C25 N2 1_555 1_555
H18 C25 1_555 1_555
O5 Cu3 1_555 1_555
H19 O5 1_555 1_555
H20 O5 1_555 1_555
N3_2 C26_2 1_555 1_555
C26_2 H21_2 1_555 1_555
C27_2 C26_2 1_555 1_555
H22_2 C27_2 1_555 1_555
C28_2 C18 1_555 1_555
C29_2 C28_2 1_555 1_555
H23_2 C29_2 1_555 1_555
C30_2 N3_2 1_555 1_555
H24_2 C30_2 1_555 1_555
Cu5 N3_2 1_555 1_555
O6_2 Cu5 1_555 1_555
O7_2 C36_2 1_555 1_555
C36_2 O6_2 1_555 1_555
C37_2 C36_2 1_555 1_555
C38_2 C37_2 1_555 1_555
H29_2 C38_2 1_555 1_555
C39_2 C38_2 1_555 1_555
H30_2 C39_2 1_555 1_555
C40_2 C39_2 1_555 1_555
C41_2 C40_2 1_555 1_555
H31_2 C41_2 1_555 1_555
C42_2 C37_2 1_555 1_555
H32_2 C42_2 1_555 1_555
C45_2 C44_2 1_555 1_555
H35_2 C45_2 1_555 1_555
C46_2 C45_2 1_555 1_555
C47_2 C46_2 1_555 1_555
C49_2 C44_2 1_555 1_555
H38_2 C49_2 1_555 1_555
O10_2 Cu5 1_555 1_555
H39_2 O10_2 1_555 1_555
H40_2 O10_2 1_555 1_555
N5 Cu5 1_555 1_555
C6 C7 1_555 1_555
C19 C20 1_555 1_555
C24 C25 1_555 1_555
C27_2 C28_2 1_555 1_555
C29_2 C30_2 1_555 1_555
C41_2 C42_2 1_555 1_555
N5 C31_2 1_555 1_555
C31_2 H25_2 1_555 1_555
C32_2 C31_2 1_555 1_555
C34_2 C33_2 1_555 1_555
C35_2 N5 1_555 1_555
H28_2 C35_2 1_555 1_555
C32_2 C33_2 1_555 1_555
C34_2 C35_2 1_555 1_555
C3_2 H1_2 1_555 1_555
H13_2 C19_2 1_555 1_555
H14_2 C20_2 1_555 1_555
H18_2 C25_2 1_555 1_555
C19_2 C20_2 1_555 1_555
C24_2 C25_2 1_555 1_555
H33_2 C43_2 1_555 1_555
H34_2 C43_2 1_555 1_555
Cu1 O1_2 1_555 1_555
O1_2 C1_2 1_555 1_555
N1_2 Cu1 1_555 1_555
N2_2 Cu1 1_555 1_555
C1_2 C2_2 1_555 1_555
C5_2 C4_2 1_555 1_555
C6_2 C5_2 1_555 1_555
H3_2 C6_2 1_555 1_555
C7_2 C2_2 1_555 1_555
H4_2 C7_2 1_555 1_555
C8_2 C5_2 1_555 1_555
H5_2 C8_2 1_555 1_555
H6_2 C8_2 1_555 1_555
C9_2 C8_2 1_555 1_555
C10_2 C9_2 1_555 1_555
H7_2 C10_2 1_555 1_555
C11_2 C10_2 1_555 1_555
C12_2 C11_2 1_555 1_555
C13 C12_2 1_555 1_555
H9 C13 1_555 1_555
C14_2 C9_2 1_555 1_555
H10_2 C14_2 1_555 1_555
C16_2 N1_2 1_555 1_555
H11_2 C16_2 1_555 1_555
C17_2 C16_2 1_555 1_555
H12_2 C17_2 1_555 1_555
C18_2 C17_2 1_555 1_555
C21_2 N2_2 1_555 1_555
H15_2 C21_2 1_555 1_555
C22_2 C21_2 1_555 1_555
H16_2 C22_2 1_555 1_555
C23_2 C22_2 1_555 1_555
O5_2 Cu1 1_555 1_555
H19_2 O5_2 1_555 1_555
H20_2 O5_2 1_555 1_555
C6_2 C7_2 1_555 1_555
C13 C14_2 1_555 1_555
O9_2 C50_2 1_555 1_555
H9_2 C13_2 1_555 1_555
H37_2 C48_2 1_555 1_555

#END
