
###############################################################################
#
# This file contains modified crystal structure data generated from the
# MOF subset of the Cambridge Structural Database (CSD) v543 
# hosted by the Cambridge Crystallographic Data Centre (CCDC).
#
# This work is licensed under the Creative Commons
# Attribution-NonCommercial-ShareAlike 4.0 International License.
# To view a copy of this license, visit
# http://creativecommons.org/licenses/by-nc-sa/4.0/
# or send a letter to
# Creative Commons, PO Box 1866, Mountain View, CA 94042, USA.
#
# CIF created using the CSD Python API on 29 September 2022
# The structure has been converted into the P1 space group
# The structure has a 3D framework
# The original CSD entry RONYUR is in the cubic crystal system
# The original CSD entry RONYUR is in a Sohncke space group
# The framework has been calculated to contain at least 10.0% void space
# The void calculation uses a probe of radius 1.32A, grid spacing 0.4
# The framework is charged, counterions have been retained in the structure
#
###############################################################################

data_RONYUR
_chemical_formula_moiety         '(C240 H120 N72 O146 Zn45 8-)n'
_symmetry_cell_setting           triclinic
_symmetry_space_group_name_H-M   'P 1'
_symmetry_Int_Tables_number      1
_space_group_name_Hall           'P 1'
loop_
_symmetry_equiv_pos_site_id
_symmetry_equiv_pos_as_xyz
1 x,y,z
_cell_length_a                   26.471(12)
_cell_length_b                   26.471(12)
_cell_length_c                   26.471(12)
_cell_angle_alpha                90
_cell_angle_beta                 90
_cell_angle_gamma                90
_cell_volume                     18548.6
loop_
_atom_site_label
_atom_site_type_symbol
_atom_site_fract_x
_atom_site_fract_y
_atom_site_fract_z
Zn1 Zn 0.46852(4) 0.63175(4) 0.08937(4)
C1 C 0.6793(5) 0.5998(5) 0.0629(5)
C2 C 0.4361(4) 0.7711(4) 0.0175(4)
C3 C 0.4078(4) 0.7790(4) 0.0605(4)
H2 H 0.389560 0.808023 0.068020
C4 C 0.7070(6) 0.6670(4) 0.0066(5)
N1 N 0.4112(3) 0.7371(3) 0.0902(3)
O1 O 0.5292(2) 0.6436(2) 0.0423(2)
O2 O 0.5688(2) 0.5190(3) 0.1390(3)
C5 C 0.5521(5) 0.5545(5) 0.1111(4)
O4 O 0.4023(2) 0.5977(2) 0.0977(2)
C6 C 0.6398(4) 0.5738(4) 0.0907(4)
H3 H 0.648382 0.548848 0.113891
O5 O 0.5060(3) 0.5652(2) 0.1082(3)
C7 C 0.5758(4) 0.6293(4) 0.0506(4)
N2 N 0.4418(3) 0.7046(3) 0.0656(3)
N3 N 0.4570(3) 0.7247(3) 0.0228(3)
O6 O 0.7278(3) 0.5863(4) 0.0765(4)
H4 H 0.747822 0.596974 0.055413
O7 O 0.7529(3) 0.6596(3) 0.0151(4)
C8 C 0.6658(4) 0.6400(4) 0.0330(4)
C9 C 0.6156(4) 0.6528(4) 0.0268(4)
H5 H 0.608104 0.679169 0.004823
C10 C 0.5877(4) 0.5865(4) 0.0828(4)
Zn3 Zn 0.41063(4) 0.53148(4) 0.13175(4)
C11 C 0.4371(5) 0.3207(5) 0.0998(5)
C12 C 0.4825(4) 0.5639(4) 0.2711(4)
H6 H 0.509604 0.560020 0.293090
C13 C 0.4395(4) 0.5922(4) 0.2790(4)
H7 H 0.431980 0.610440 0.308023
Zn4 Zn 0.51686(4) 0.49297(4) 0.18346(5)
C14 C 0.4934(5) 0.2930(6) 0.1670(4)
N4 N 0.4098(3) 0.5888(3) 0.2371(3)
O8 O 0.4577(2) 0.4708(2) 0.1436(2)
O9 O 0.3610(3) 0.4312(2) 0.0190(3)
C15 C 0.3889(4) 0.4479(5) 0.0545(5)
O10 O 0.5270(3) 0.3080(2) 0.1995(3)
C16 C 0.4093(4) 0.3602(4) 0.0738(4)
H8 H 0.386109 0.351618 0.048848
O11 O 0.3918(3) 0.4940(3) 0.0652(2)
C17 C 0.4494(4) 0.4242(4) 0.1293(4)
N5 N 0.4344(3) 0.5582(3) 0.2046(3)
N6 N 0.4772(3) 0.5430(3) 0.2247(3)
O12 O 0.4235(4) 0.2722(3) 0.0863(4)
H9 H 0.444587 0.252178 0.096974
O13 O 0.4849(4) 0.2471(3) 0.1596(3)
C18 C 0.4670(4) 0.3342(4) 0.1400(4)
C19 C 0.4732(4) 0.3844(4) 0.1528(4)
H10 H 0.495177 0.391896 0.179169
C20 C 0.4172(4) 0.4123(4) 0.0865(4)
Zn5 Zn 0.36825(4) 0.58937(4) 0.03148(4)
C22 C 0.2289(4) 0.5175(4) 0.0639(4)
H11 H 0.206910 0.490396 0.060020
C23 C 0.2210(4) 0.5605(4) 0.0922(4)
H12 H 0.191977 0.568020 0.110440
N7 N 0.2629(3) 0.5902(3) 0.0888(3)
N8 N 0.2954(3) 0.5656(3) 0.0582(3)
N9 N 0.2753(3) 0.5228(3) 0.0430(3)
Zn7 Zn 0.38175(4) 0.71852(4) 0.16063(4)
Zn8 Zn 0.28148(4) 0.66063(4) 0.11825(4)
Zn9 Zn 0.33937(4) 0.61825(4) 0.21852(4)
Zn10 Zn 0.56654(5) 0.25703(4) 0.23314(4)
N10 N 0.4871(3) 0.6612(3) 0.1598(3)
N11 N 0.3388(3) 0.6598(3) 0.0129(3)
N12 N 0.3402(3) 0.5129(3) 0.1612(3)
O20 O 0.5505(3) 0.4420(2) 0.2230(3)
H1 H 0.439980 0.793090 0.990396
Zn2 Zn 0.50703(4) 0.68346(5) 0.98314(4)
O3 O 0.6920(2) 0.6995(3) 0.9730(3)
C21 C 0.4002(5) 0.5629(5) 0.8207(5)
Zn6 Zn 0.31654(5) 0.48314(4) 0.99297(4)
C24 C 0.3330(4) 0.5066(5) 0.7930(6)
O14 O 0.3564(2) 0.5423(2) 0.9708(2)
O15 O 0.4810(3) 0.6390(3) 0.9312(2)
C25 C 0.4455(5) 0.6111(4) 0.9479(5)
O16 O 0.3005(3) 0.4730(3) 0.8080(2)
C26 C 0.4262(4) 0.5907(4) 0.8602(4)
H13 H 0.451152 0.613891 0.851618
O17 O 0.4348(2) 0.6082(3) 0.9940(3)
C27 C 0.3707(4) 0.5506(4) 0.9242(4)
O18 O 0.4137(4) 0.5765(4) 0.7722(3)
H14 H 0.403026 0.555413 0.752178
O19 O 0.3404(3) 0.5151(4) 0.7471(3)
C28 C 0.3600(4) 0.5330(4) 0.8342(4)
C29 C 0.3472(4) 0.5268(4) 0.8844(4)
H15 H 0.320831 0.504823 0.891896
C30 C 0.4135(4) 0.5828(4) 0.9123(4)
Zn11 Zn 0.74297(4) 0.73314(4) 0.93346(5)
Zn12 Zn 0.26686(4) 0.43346(5) 0.75703(4)
O21 O 0.5580(2) 0.7230(3) 0.9495(3)
O22 O 0.2770(3) 0.4495(3) 0.9420(2)
Zn1_2 Zn 0.03148(4) 0.36825(4) 0.58937(4)
C2_2 C 0.0639(4) 0.2289(4) 0.5175(4)
H1_2 H 0.060020 0.206910 0.490396
C3_2 C 0.0922(4) 0.2210(4) 0.5605(4)
H2_2 H 0.110440 0.191977 0.568020
N1_2 N 0.0888(3) 0.2629(3) 0.5902(3)
O4_2 O 0.0977(2) 0.4023(2) 0.5977(2)
N2_2 N 0.0582(3) 0.2954(3) 0.5656(3)
N3_2 N 0.0430(3) 0.2753(3) 0.5228(3)
Zn3_2 Zn 0.08937(4) 0.46852(4) 0.63175(4)
C11_2 C 0.0629(5) 0.6793(5) 0.5998(5)
C12_2 C 0.0175(4) 0.4361(4) 0.7711(4)
C13_2 C 0.0605(4) 0.4078(4) 0.7790(4)
H7_2 H 0.068020 0.389560 0.808023
C14_2 C 0.0066(5) 0.7070(6) 0.6670(4)
N4_2 N 0.0902(3) 0.4112(3) 0.7371(3)
O8_2 O 0.0423(2) 0.5292(2) 0.6436(2)
O9_2 O 0.1390(3) 0.5688(2) 0.5190(3)
C15_2 C 0.1111(4) 0.5521(5) 0.5545(5)
C16_2 C 0.0907(4) 0.6398(4) 0.5738(4)
H8_2 H 0.113891 0.648382 0.548848
O11_2 O 0.1082(3) 0.5060(3) 0.5652(2)
C17_2 C 0.0506(4) 0.5758(4) 0.6293(4)
N5_2 N 0.0656(3) 0.4418(3) 0.7046(3)
N6_2 N 0.0228(3) 0.4570(3) 0.7247(3)
O12_2 O 0.0765(4) 0.7278(3) 0.5863(4)
H9_2 H 0.055413 0.747822 0.596974
O13_2 O 0.0151(4) 0.7529(3) 0.6596(3)
C18_2 C 0.0330(4) 0.6658(4) 0.6400(4)
C19_2 C 0.0268(4) 0.6156(4) 0.6528(4)
H10_2 H 0.004823 0.608104 0.679169
C20_2 C 0.0828(4) 0.5877(4) 0.5865(4)
Zn5_2 Zn 0.13175(4) 0.41063(4) 0.53148(4)
C21_2 C 0.0998(5) 0.4371(5) 0.3207(5)
C22_2 C 0.2711(4) 0.4825(4) 0.5639(4)
H11_2 H 0.293090 0.509604 0.560020
C23_2 C 0.2790(4) 0.4395(4) 0.5922(4)
H12_2 H 0.308023 0.431980 0.610440
Zn6_2 Zn 0.18346(5) 0.51686(4) 0.49297(4)
C24_2 C 0.1670(4) 0.4934(5) 0.2930(6)
N7_2 N 0.2371(3) 0.4098(3) 0.5888(3)
O14_2 O 0.1436(2) 0.4577(2) 0.4708(2)
O15_2 O 0.0190(3) 0.3610(3) 0.4312(2)
C25_2 C 0.0545(5) 0.3889(4) 0.4479(5)
O16_2 O 0.1995(3) 0.5270(3) 0.3080(2)
C26_2 C 0.0738(4) 0.4093(4) 0.3602(4)
H13_2 H 0.048848 0.386109 0.351618
O17_2 O 0.0652(2) 0.3918(3) 0.4940(3)
C27_2 C 0.1293(4) 0.4494(4) 0.4242(4)
N8_2 N 0.2046(3) 0.4344(3) 0.5582(3)
N9_2 N 0.2247(3) 0.4772(3) 0.5430(3)
O18_2 O 0.0863(4) 0.4235(4) 0.2722(3)
H14_2 H 0.096974 0.444587 0.252178
O19_2 O 0.1596(3) 0.4849(4) 0.2471(3)
C28_2 C 0.1400(4) 0.4670(4) 0.3342(4)
C29_2 C 0.1528(4) 0.4732(4) 0.3844(4)
H15_2 H 0.179169 0.495177 0.391896
C30_2 C 0.0865(4) 0.4172(4) 0.4123(4)
Zn7_2 Zn 0.11825(4) 0.28148(4) 0.66063(4)
Zn8_2 Zn 0.21852(4) 0.33937(4) 0.61825(4)
Zn9_2 Zn 0.16063(4) 0.38175(4) 0.71852(4)
Zn12_2 Zn 0.23314(4) 0.56654(5) 0.25703(4)
N10_2 N 0.0129(3) 0.3388(3) 0.6598(3)
N11_2 N 0.1612(3) 0.3402(3) 0.5129(3)
N12_2 N 0.1598(3) 0.4871(3) 0.6612(3)
O22_2 O 0.2230(3) 0.5505(3) 0.4420(2)
C1_2 C 0.8207(5) 0.4002(5) 0.5629(5)
Zn2_2 Zn 0.99297(4) 0.31654(5) 0.48314(4)
C4_2 C 0.7930(6) 0.3330(4) 0.5066(5)
O1_2 O 0.9708(2) 0.3564(2) 0.5423(2)
O2_2 O 0.9312(2) 0.4810(3) 0.6390(3)
C5_2 C 0.9479(5) 0.4455(5) 0.6111(4)
O3_2 O 0.8080(2) 0.3005(3) 0.4730(3)
C6_2 C 0.8602(4) 0.4262(4) 0.5907(4)
H3_2 H 0.851618 0.451152 0.613891
O5_2 O 0.9940(3) 0.4348(2) 0.6082(3)
C7_2 C 0.9242(4) 0.3707(4) 0.5506(4)
O6_2 O 0.7722(3) 0.4137(4) 0.5765(4)
H4_2 H 0.752178 0.403026 0.555413
O7_2 O 0.7471(3) 0.3404(3) 0.5151(4)
C8_2 C 0.8342(4) 0.3600(4) 0.5330(4)
C9_2 C 0.8844(4) 0.3472(4) 0.5268(4)
H5_2 H 0.891896 0.320831 0.504823
C10_2 C 0.9123(4) 0.4135(4) 0.5828(4)
H6_2 H 0.990396 0.439980 0.793090
Zn4_2 Zn 0.98314(4) 0.50703(4) 0.68346(5)
O10_2 O 0.9730(3) 0.6920(2) 0.6995(3)
Zn10_2 Zn 0.93346(5) 0.74297(4) 0.73314(4)
Zn11_2 Zn 0.75703(4) 0.26686(4) 0.43346(5)
O20_2 O 0.9495(3) 0.5580(2) 0.7230(3)
O21_2 O 0.9420(2) 0.2770(3) 0.4495(3)
Zn1_3 Zn 0.53148(4) 0.13175(4) 0.41063(4)
C1_3 C 0.3207(5) 0.0998(5) 0.4371(5)
C2_3 C 0.5639(4) 0.2711(4) 0.4825(4)
H1_3 H 0.560020 0.293090 0.509604
C3_3 C 0.5922(4) 0.2790(4) 0.4395(4)
H2_3 H 0.610440 0.308023 0.431980
Zn2_3 Zn 0.49297(4) 0.18346(5) 0.51686(4)
C4_3 C 0.2930(6) 0.1670(4) 0.4934(5)
N1_3 N 0.5888(3) 0.2371(3) 0.4098(3)
O1_3 O 0.4708(2) 0.1436(2) 0.4577(2)
O2_3 O 0.4312(2) 0.0190(3) 0.3610(3)
C5_3 C 0.4479(5) 0.0545(5) 0.3889(4)
O3_3 O 0.3080(2) 0.1995(3) 0.5270(3)
O4_3 O 0.5977(2) 0.0977(2) 0.4023(2)
C6_3 C 0.3602(4) 0.0738(4) 0.4093(4)
H3_3 H 0.351618 0.048848 0.386109
O5_3 O 0.4940(3) 0.0652(2) 0.3918(3)
C7_3 C 0.4242(4) 0.1293(4) 0.4494(4)
N2_3 N 0.5582(3) 0.2046(3) 0.4344(3)
N3_3 N 0.5430(3) 0.2247(3) 0.4772(3)
O6_3 O 0.2722(3) 0.0863(4) 0.4235(4)
H4_3 H 0.252178 0.096974 0.444587
O7_3 O 0.2471(3) 0.1596(3) 0.4849(4)
C8_3 C 0.3342(4) 0.1400(4) 0.4670(4)
C9_3 C 0.3844(4) 0.1528(4) 0.4732(4)
H5_3 H 0.391896 0.179169 0.495177
C10_3 C 0.4123(4) 0.0865(4) 0.4172(4)
Zn3_3 Zn 0.58937(4) 0.03148(4) 0.36825(4)
C12_3 C 0.5175(4) 0.0639(4) 0.2289(4)
H6_3 H 0.490396 0.060020 0.206910
C13_3 C 0.5605(4) 0.0922(4) 0.2210(4)
H7_3 H 0.568020 0.110440 0.191977
N4_3 N 0.5902(3) 0.0888(3) 0.2629(3)
N5_3 N 0.5656(3) 0.0582(3) 0.2954(3)
N6_3 N 0.5228(3) 0.0430(3) 0.2753(3)
Zn5_3 Zn 0.63175(4) 0.08937(4) 0.46852(4)
C21_3 C 0.5998(5) 0.0629(5) 0.6793(5)
C22_3 C 0.7711(4) 0.0175(4) 0.4361(4)
C23_3 C 0.7790(4) 0.0605(4) 0.4078(4)
H12_3 H 0.808023 0.068020 0.389560
C24_3 C 0.6670(4) 0.0066(5) 0.7070(6)
N7_3 N 0.7371(3) 0.0902(3) 0.4112(3)
O14_3 O 0.6436(2) 0.0423(2) 0.5292(2)
O15_3 O 0.5190(3) 0.1390(3) 0.5688(2)
C25_3 C 0.5545(5) 0.1111(4) 0.5521(5)
C26_3 C 0.5738(4) 0.0907(4) 0.6398(4)
H13_3 H 0.548848 0.113891 0.648382
O17_3 O 0.5652(2) 0.1082(3) 0.5060(3)
C27_3 C 0.6293(4) 0.0506(4) 0.5758(4)
N8_3 N 0.7046(3) 0.0656(3) 0.4418(3)
N9_3 N 0.7247(3) 0.0228(3) 0.4570(3)
O18_3 O 0.5863(4) 0.0765(4) 0.7278(3)
H14_3 H 0.596974 0.055413 0.747822
O19_3 O 0.6596(3) 0.0151(4) 0.7529(3)
C28_3 C 0.6400(4) 0.0330(4) 0.6658(4)
C29_3 C 0.6528(4) 0.0268(4) 0.6156(4)
H15_3 H 0.679169 0.004823 0.608104
C30_3 C 0.5865(4) 0.0828(4) 0.5877(4)
Zn7_3 Zn 0.61825(4) 0.21852(4) 0.33937(4)
Zn8_3 Zn 0.71852(4) 0.16063(4) 0.38175(4)
Zn9_3 Zn 0.66063(4) 0.11825(4) 0.28148(4)
Zn11_3 Zn 0.25703(4) 0.23314(4) 0.56654(5)
N10_3 N 0.5129(3) 0.1612(3) 0.3402(3)
N11_3 N 0.6612(3) 0.1598(3) 0.4871(3)
N12_3 N 0.6598(3) 0.0129(3) 0.3388(3)
O21_3 O 0.4420(2) 0.2230(3) 0.5505(3)
C11_3 C 0.5629(5) 0.8207(5) 0.4002(5)
Zn4_3 Zn 0.48314(4) 0.99297(4) 0.31654(5)
C14_3 C 0.5066(5) 0.7930(6) 0.3330(4)
O8_3 O 0.5423(2) 0.9708(2) 0.3564(2)
O9_3 O 0.6390(3) 0.9312(2) 0.4810(3)
C15_3 C 0.6111(4) 0.9479(5) 0.4455(5)
O10_3 O 0.4730(3) 0.8080(2) 0.3005(3)
C16_3 C 0.5907(4) 0.8602(4) 0.4262(4)
H8_3 H 0.613891 0.851618 0.451152
O11_3 O 0.6082(3) 0.9940(3) 0.4348(2)
C17_3 C 0.5506(4) 0.9242(4) 0.3707(4)
O12_3 O 0.5765(4) 0.7722(3) 0.4137(4)
H9_3 H 0.555413 0.752178 0.403026
O13_3 O 0.5151(4) 0.7471(3) 0.3404(3)
C18_3 C 0.5330(4) 0.8342(4) 0.3600(4)
C19_3 C 0.5268(4) 0.8844(4) 0.3472(4)
H10_3 H 0.504823 0.891896 0.320831
C20_3 C 0.5828(4) 0.9123(4) 0.4135(4)
H11_3 H 0.793090 0.990396 0.439980
Zn6_3 Zn 0.68346(5) 0.98314(4) 0.50703(4)
O16_3 O 0.6995(3) 0.9730(3) 0.6920(2)
Zn10_3 Zn 0.43346(5) 0.75703(4) 0.26686(4)
Zn12_3 Zn 0.73314(4) 0.93346(5) 0.74297(4)
O20_3 O 0.4495(3) 0.9420(2) 0.2770(3)
O22_3 O 0.7230(3) 0.9495(3) 0.5580(2)
Zn4_4 Zn 0.01686(4) 0.00703(4) 0.81654(5)
O10_4 O 0.0270(3) 0.1920(2) 0.8005(3)
Zn10_4 Zn 0.06654(5) 0.24297(4) 0.76686(4)
O20_4 O 0.0505(3) 0.0580(2) 0.7770(3)
Zn2_4 Zn 0.00703(4) 0.81654(5) 0.01686(4)
O3_4 O 0.1920(2) 0.8005(3) 0.0270(3)
Zn11_4 Zn 0.24297(4) 0.76686(4) 0.06654(5)
O21_4 O 0.0580(2) 0.7770(3) 0.0505(3)
Zn6_4 Zn 0.81654(5) 0.01686(4) 0.00703(4)
O16_4 O 0.8005(3) 0.0270(3) 0.1920(2)
Zn12_4 Zn 0.76686(4) 0.06654(5) 0.24297(4)
O22_4 O 0.7770(3) 0.0505(3) 0.0580(2)
Zn1_4 Zn 0.96852(4) 0.86825(4) 0.91063(4)
C2_4 C 0.9361(4) 0.7289(4) 0.9825(4)
C3_4 C 0.9078(4) 0.7210(4) 0.9395(4)
H2_4 H 0.889560 0.691977 0.931980
N1_4 N 0.9112(3) 0.7629(3) 0.9098(3)
O4_4 O 0.9023(2) 0.9023(2) 0.9023(2)
N2_4 N 0.9418(3) 0.7954(3) 0.9344(3)
N3_4 N 0.9570(3) 0.7753(3) 0.9772(3)
Zn3_4 Zn 0.91063(4) 0.96852(4) 0.86825(4)
C12_4 C 0.9825(4) 0.9361(4) 0.7289(4)
C13_4 C 0.9395(4) 0.9078(4) 0.7210(4)
H7_4 H 0.931980 0.889560 0.691977
N4_4 N 0.9098(3) 0.9112(3) 0.7629(3)
N5_4 N 0.9344(3) 0.9418(3) 0.7954(3)
N6_4 N 0.9772(3) 0.9570(3) 0.7753(3)
Zn5_4 Zn 0.86825(4) 0.91063(4) 0.96852(4)
C22_4 C 0.7289(4) 0.9825(4) 0.9361(4)
C23_4 C 0.7210(4) 0.9395(4) 0.9078(4)
H12_4 H 0.691977 0.931980 0.889560
N7_4 N 0.7629(3) 0.9098(3) 0.9112(3)
N8_4 N 0.7954(3) 0.9344(3) 0.9418(3)
N9_4 N 0.7753(3) 0.9772(3) 0.9570(3)
Zn7_4 Zn 0.88175(4) 0.78148(4) 0.83937(4)
Zn8_4 Zn 0.78148(4) 0.83937(4) 0.88175(4)
Zn9_4 Zn 0.83937(4) 0.88175(4) 0.78148(4)
N10_4 N 0.9871(3) 0.8388(3) 0.8402(3)
N11_4 N 0.8388(3) 0.8402(3) 0.9871(3)
N12_4 N 0.8402(3) 0.9871(3) 0.8388(3)
C1_4 C 0.3498(5) 0.9293(5) 0.1871(5)
C2_5 C 0.5211(4) 0.6861(4) 0.2325(4)
H1_4 H 0.543090 0.689980 0.259604
C3_5 C 0.5290(4) 0.6578(4) 0.1895(4)
H2_5 H 0.558023 0.639560 0.181980
C4_4 C 0.4170(4) 0.9570(6) 0.2434(5)
O1_4 O 0.3936(2) 0.7792(2) 0.2077(2)
O2_4 O 0.2690(3) 0.8188(2) 0.1110(3)
C5_4 C 0.3045(5) 0.8021(5) 0.1389(4)
O4_5 O 0.3477(2) 0.6523(2) 0.1523(2)
C6_4 C 0.3238(4) 0.8898(4) 0.1593(4)
H3_4 H 0.298848 0.898382 0.136109
O5_4 O 0.3152(2) 0.7560(3) 0.1418(3)
C7_4 C 0.3793(4) 0.8258(4) 0.1994(4)
N2_5 N 0.4546(3) 0.6918(3) 0.1844(3)
N3_5 N 0.4747(3) 0.7070(3) 0.2272(3)
O6_4 O 0.3363(4) 0.9778(3) 0.1735(4)
H4_4 H 0.346974 0.997822 0.194587
C8_4 C 0.3900(4) 0.9158(4) 0.2170(4)
C9_4 C 0.4028(4) 0.8656(4) 0.2232(4)
H5_4 H 0.429169 0.858104 0.245177
C10_4 C 0.3365(4) 0.8377(4) 0.1672(4)
C11_4 C 0.0707(5) 0.6871(5) 0.1502(5)
C14_4 C 0.0430(6) 0.7434(5) 0.0830(4)
O8_4 O 0.2208(2) 0.7077(2) 0.1064(2)
O9_4 O 0.1812(2) 0.6110(3) 0.2310(3)
C15_4 C 0.1979(5) 0.6389(4) 0.1955(5)
C16_4 C 0.1102(4) 0.6593(4) 0.1762(4)
H8_4 H 0.101618 0.636109 0.201152
O11_4 O 0.2440(3) 0.6418(3) 0.1848(2)
C17_4 C 0.1742(4) 0.6994(4) 0.1207(4)
N5_5 N 0.3082(3) 0.6844(3) 0.0454(3)
N6_5 N 0.2930(3) 0.7272(3) 0.0253(3)
O12_4 O 0.0222(3) 0.6735(4) 0.1637(4)
H9_4 H 0.002178 0.694587 0.153026
C18_4 C 0.0842(4) 0.7170(4) 0.1100(4)
C19_4 C 0.1344(4) 0.7232(4) 0.0972(4)
H10_4 H 0.141896 0.745177 0.070831
C20_4 C 0.1623(4) 0.6672(4) 0.1635(4)
C21_4 C 0.3129(5) 0.6502(5) 0.4293(5)
C22_5 C 0.2675(4) 0.4789(4) 0.1861(4)
H11_4 H 0.240396 0.456910 0.189980
C23_5 C 0.3105(4) 0.4710(4) 0.1578(4)
H12_5 H 0.318020 0.441977 0.139560
C24_4 C 0.2566(5) 0.5830(4) 0.4570(6)
O14_4 O 0.2923(2) 0.6064(2) 0.2792(2)
O15_4 O 0.3890(3) 0.7310(3) 0.3188(2)
C25_4 C 0.3611(4) 0.6955(5) 0.3021(5)
C26_4 C 0.3407(4) 0.6762(4) 0.3898(4)
H13_4 H 0.363891 0.701152 0.398382
O17_4 O 0.3582(3) 0.6848(2) 0.2560(3)
C27_4 C 0.3006(4) 0.6207(4) 0.3258(4)
N8_5 N 0.3156(3) 0.5454(3) 0.1918(3)
N9_5 N 0.2728(3) 0.5253(3) 0.2070(3)
O18_4 O 0.3265(4) 0.6637(4) 0.4778(3)
H14_4 H 0.305413 0.653026 0.497822
O19_4 O 0.2651(4) 0.5904(3) 0.5029(3)
C28_4 C 0.2830(4) 0.6100(4) 0.4158(4)
C29_4 C 0.2768(4) 0.5972(4) 0.3656(4)
H15_4 H 0.254823 0.570831 0.358104
C30_4 C 0.3328(4) 0.6635(4) 0.3377(4)
C1_5 C 0.1502(5) 0.0707(5) 0.6871(5)
C4_5 C 0.0830(4) 0.0430(6) 0.7434(5)
O1_5 O 0.1064(2) 0.2208(2) 0.7077(2)
O2_5 O 0.2310(3) 0.1812(2) 0.6110(3)
C5_5 C 0.1955(5) 0.1979(5) 0.6389(4)
O4_6 O 0.1523(2) 0.3477(2) 0.6523(2)
C6_5 C 0.1762(4) 0.1102(4) 0.6593(4)
H3_5 H 0.201152 0.101618 0.636109
O5_5 O 0.1848(2) 0.2440(3) 0.6418(3)
C7_5 C 0.1207(4) 0.1742(4) 0.6994(4)
N2_6 N 0.0454(3) 0.3082(3) 0.6844(3)
N3_6 N 0.0253(3) 0.2930(3) 0.7272(3)
O6_5 O 0.1637(4) 0.0222(3) 0.6735(4)
H4_5 H 0.153026 0.002178 0.694587
C8_5 C 0.1100(4) 0.0842(4) 0.7170(4)
C9_5 C 0.0972(4) 0.1344(4) 0.7232(4)
H5_5 H 0.070831 0.141896 0.745177
C10_5 C 0.1635(4) 0.1623(4) 0.6672(4)
C11_5 C 0.4293(5) 0.3129(5) 0.6502(5)
C12_5 C 0.1861(4) 0.2675(4) 0.4789(4)
H6_4 H 0.189980 0.240396 0.456910
C13_5 C 0.1578(4) 0.3105(4) 0.4710(4)
H7_5 H 0.139560 0.318020 0.441977
C14_5 C 0.4570(6) 0.2566(5) 0.5830(4)
O8_5 O 0.2792(2) 0.2923(2) 0.6064(2)
O9_5 O 0.3188(2) 0.3890(3) 0.7310(3)
C15_5 C 0.3021(5) 0.3611(4) 0.6955(5)
C16_5 C 0.3898(4) 0.3407(4) 0.6762(4)
H8_5 H 0.398382 0.363891 0.701152
O11_5 O 0.2560(3) 0.3582(3) 0.6848(2)
C17_5 C 0.3258(4) 0.3006(4) 0.6207(4)
N5_6 N 0.1918(3) 0.3156(3) 0.5454(3)
N6_6 N 0.2070(3) 0.2728(3) 0.5253(3)
O12_5 O 0.4778(3) 0.3265(4) 0.6637(4)
H9_5 H 0.497822 0.305413 0.653026
O13_4 O 0.5029(3) 0.2651(4) 0.5904(3)
C18_5 C 0.4158(4) 0.2830(4) 0.6100(4)
C19_5 C 0.3656(4) 0.2768(4) 0.5972(4)
H10_5 H 0.358104 0.254823 0.570831
C20_5 C 0.3377(4) 0.3328(4) 0.6635(4)
C21_5 C 0.1871(5) 0.3498(5) 0.9293(5)
C22_6 C 0.2325(4) 0.5211(4) 0.6861(4)
H11_5 H 0.259604 0.543090 0.689980
C23_6 C 0.1895(4) 0.5290(4) 0.6578(4)
H12_6 H 0.181980 0.558023 0.639560
C24_5 C 0.2434(5) 0.4170(4) 0.9570(6)
O14_5 O 0.2077(2) 0.3936(2) 0.7792(2)
O15_5 O 0.1110(3) 0.2690(3) 0.8188(2)
C25_5 C 0.1389(4) 0.3045(5) 0.8021(5)
C26_5 C 0.1593(4) 0.3238(4) 0.8898(4)
H13_5 H 0.136109 0.298848 0.898382
O17_5 O 0.1418(3) 0.3152(2) 0.7560(3)
C27_5 C 0.1994(4) 0.3793(4) 0.8258(4)
N8_6 N 0.1844(3) 0.4546(3) 0.6918(3)
N9_6 N 0.2272(3) 0.4747(3) 0.7070(3)
O18_5 O 0.1735(4) 0.3363(4) 0.9778(3)
H14_5 H 0.194587 0.346974 0.997822
C28_5 C 0.2170(4) 0.3900(4) 0.9158(4)
C29_5 C 0.2232(4) 0.4028(4) 0.8656(4)
H15_5 H 0.245177 0.429169 0.858104
C30_5 C 0.1672(4) 0.3365(4) 0.8377(4)
C1_6 C 0.8498(5) 0.5707(5) 0.8129(5)
C4_6 C 0.9170(4) 0.5430(6) 0.7566(5)
O1_6 O 0.8936(2) 0.7208(2) 0.7923(2)
O2_6 O 0.7690(3) 0.6812(2) 0.8890(3)
C5_6 C 0.8045(5) 0.6979(5) 0.8611(4)
O4_7 O 0.8477(2) 0.8477(2) 0.8477(2)
C6_6 C 0.8238(4) 0.6102(4) 0.8407(4)
H3_6 H 0.798848 0.601618 0.863891
O5_6 O 0.8152(2) 0.7440(3) 0.8582(3)
C7_6 C 0.8793(4) 0.6742(4) 0.8006(4)
N2_7 N 0.9546(3) 0.8082(3) 0.8156(3)
N3_7 N 0.9747(3) 0.7930(3) 0.7728(3)
O6_6 O 0.8363(4) 0.5222(3) 0.8265(4)
H4_6 H 0.846974 0.502178 0.805413
O7_4 O 0.9096(3) 0.4971(3) 0.7651(4)
C8_6 C 0.8900(4) 0.5842(4) 0.7830(4)
C9_6 C 0.9028(4) 0.6344(4) 0.7768(4)
H5_6 H 0.929169 0.641896 0.754823
C10_6 C 0.8365(4) 0.6623(4) 0.8328(4)
C11_6 C 0.5707(5) 0.8129(5) 0.8498(5)
C14_6 C 0.5430(6) 0.7566(5) 0.9170(4)
O8_6 O 0.7208(2) 0.7923(2) 0.8936(2)
O9_6 O 0.6812(2) 0.8890(3) 0.7690(3)
C15_6 C 0.6979(5) 0.8611(4) 0.8045(5)
C16_6 C 0.6102(4) 0.8407(4) 0.8238(4)
H8_6 H 0.601618 0.863891 0.798848
O11_6 O 0.7440(3) 0.8582(3) 0.8152(2)
C17_6 C 0.6742(4) 0.8006(4) 0.8793(4)
N5_7 N 0.8082(3) 0.8156(3) 0.9546(3)
N6_7 N 0.7930(3) 0.7728(3) 0.9747(3)
O12_6 O 0.5222(3) 0.8265(4) 0.8363(4)
H9_6 H 0.502178 0.805413 0.846974
O13_5 O 0.4971(3) 0.7651(4) 0.9096(3)
C18_6 C 0.5842(4) 0.7830(4) 0.8900(4)
C19_6 C 0.6344(4) 0.7768(4) 0.9028(4)
H10_6 H 0.641896 0.754823 0.929169
C20_6 C 0.6623(4) 0.8328(4) 0.8365(4)
C21_6 C 0.8129(5) 0.8498(5) 0.5707(5)
C24_6 C 0.7566(5) 0.9170(4) 0.5430(6)
O14_6 O 0.7923(2) 0.8936(2) 0.7208(2)
O15_6 O 0.8890(3) 0.7690(3) 0.6812(2)
C25_6 C 0.8611(4) 0.8045(5) 0.6979(5)
C26_6 C 0.8407(4) 0.8238(4) 0.6102(4)
H13_6 H 0.863891 0.798848 0.601618
O17_6 O 0.8582(3) 0.8152(2) 0.7440(3)
C27_6 C 0.8006(4) 0.8793(4) 0.6742(4)
N8_7 N 0.8156(3) 0.9546(3) 0.8082(3)
N9_7 N 0.7728(3) 0.9747(3) 0.7930(3)
O18_6 O 0.8265(4) 0.8363(4) 0.5222(3)
H14_6 H 0.805413 0.846974 0.502178
O19_5 O 0.7651(4) 0.9096(3) 0.4971(3)
C28_6 C 0.7830(4) 0.8900(4) 0.5842(4)
C29_6 C 0.7768(4) 0.9028(4) 0.6344(4)
H15_6 H 0.754823 0.929169 0.641896
C30_6 C 0.8328(4) 0.8365(4) 0.6623(4)
C1_7 C 0.6502(5) 0.4293(5) 0.3129(5)
C2_6 C 0.4789(4) 0.1861(4) 0.2675(4)
H1_5 H 0.456910 0.189980 0.240396
C3_6 C 0.4710(4) 0.1578(4) 0.3105(4)
H2_6 H 0.441977 0.139560 0.318020
C4_7 C 0.5830(4) 0.4570(6) 0.2566(5)
O1_7 O 0.6064(2) 0.2792(2) 0.2923(2)
O2_7 O 0.7310(3) 0.3188(2) 0.3890(3)
C5_7 C 0.6955(5) 0.3021(5) 0.3611(4)
O4_8 O 0.6523(2) 0.1523(2) 0.3477(2)
C6_7 C 0.6762(4) 0.3898(4) 0.3407(4)
H3_7 H 0.701152 0.398382 0.363891
O5_7 O 0.6848(2) 0.2560(3) 0.3582(3)
C7_7 C 0.6207(4) 0.3258(4) 0.3006(4)
N2_8 N 0.5454(3) 0.1918(3) 0.3156(3)
N3_8 N 0.5253(3) 0.2070(3) 0.2728(3)
O6_7 O 0.6637(4) 0.4778(3) 0.3265(4)
H4_7 H 0.653026 0.497822 0.305413
O7_5 O 0.5904(3) 0.5029(3) 0.2651(4)
C8_7 C 0.6100(4) 0.4158(4) 0.2830(4)
C9_7 C 0.5972(4) 0.3656(4) 0.2768(4)
H5_7 H 0.570831 0.358104 0.254823
C10_7 C 0.6635(4) 0.3377(4) 0.3328(4)
C11_7 C 0.9293(5) 0.1871(5) 0.3498(5)
C12_6 C 0.6861(4) 0.2325(4) 0.5211(4)
H6_5 H 0.689980 0.259604 0.543090
C13_6 C 0.6578(4) 0.1895(4) 0.5290(4)
H7_6 H 0.639560 0.181980 0.558023
C14_7 C 0.9570(6) 0.2434(5) 0.4170(4)
O8_7 O 0.7792(2) 0.2077(2) 0.3936(2)
O9_7 O 0.8188(2) 0.1110(3) 0.2690(3)
C15_7 C 0.8021(5) 0.1389(4) 0.3045(5)
C16_7 C 0.8898(4) 0.1593(4) 0.3238(4)
H8_7 H 0.898382 0.136109 0.298848
O11_7 O 0.7560(3) 0.1418(3) 0.3152(2)
C17_7 C 0.8258(4) 0.1994(4) 0.3793(4)
N5_8 N 0.6918(3) 0.1844(3) 0.4546(3)
N6_8 N 0.7070(3) 0.2272(3) 0.4747(3)
O12_7 O 0.9778(3) 0.1735(4) 0.3363(4)
H9_7 H 0.997822 0.194587 0.346974
C18_7 C 0.9158(4) 0.2170(4) 0.3900(4)
C19_7 C 0.8656(4) 0.2232(4) 0.4028(4)
H10_7 H 0.858104 0.245177 0.429169
C20_7 C 0.8377(4) 0.1672(4) 0.3365(4)
C21_7 C 0.6871(5) 0.1502(5) 0.0707(5)
C24_7 C 0.7434(5) 0.0830(4) 0.0430(6)
O14_7 O 0.7077(2) 0.1064(2) 0.2208(2)
O15_7 O 0.6110(3) 0.2310(3) 0.1812(2)
C25_7 C 0.6389(4) 0.1955(5) 0.1979(5)
C26_7 C 0.6593(4) 0.1762(4) 0.1102(4)
H13_7 H 0.636109 0.201152 0.101618
O17_7 O 0.6418(3) 0.1848(2) 0.2440(3)
C27_7 C 0.6994(4) 0.1207(4) 0.1742(4)
N8_8 N 0.6844(3) 0.0454(3) 0.3082(3)
N9_8 N 0.7272(3) 0.0253(3) 0.2930(3)
O18_7 O 0.6735(4) 0.1637(4) 0.0222(3)
H14_7 H 0.694587 0.153026 0.002178
C28_7 C 0.7170(4) 0.1100(4) 0.0842(4)
C29_7 C 0.7232(4) 0.0972(4) 0.1344(4)
H15_7 H 0.745177 0.070831 0.141896
C30_7 C 0.6672(4) 0.1635(4) 0.1623(4)
C1_8 C 0.1793(5) 0.9002(5) 0.9371(5)
C4_8 C 0.2070(6) 0.8330(4) 0.9934(5)
O1_8 O 0.0292(2) 0.8564(2) 0.9577(2)
O2_8 O 0.0688(2) 0.9810(3) 0.8610(3)
C5_8 C 0.0521(5) 0.9455(5) 0.8889(4)
C6_8 C 0.1398(4) 0.9262(4) 0.9093(4)
H3_8 H 0.148382 0.951152 0.886109
O5_8 O 0.0060(3) 0.9348(2) 0.8918(3)
C7_8 C 0.0758(4) 0.8707(4) 0.9494(4)
O6_8 O 0.2278(3) 0.9137(4) 0.9235(4)
H4_8 H 0.247822 0.903026 0.944587
O7_6 O 0.2529(3) 0.8404(3) 0.9849(4)
C8_8 C 0.1658(4) 0.8600(4) 0.9670(4)
C9_8 C 0.1156(4) 0.8472(4) 0.9732(4)
H5_8 H 0.108104 0.820831 0.995177
C10_8 C 0.0877(4) 0.9135(4) 0.9172(4)
H6_6 H 0.009604 0.939980 0.706910
C11_8 C 0.9371(5) 0.1793(5) 0.9002(5)
C14_8 C 0.9934(5) 0.2070(6) 0.8330(4)
O8_8 O 0.9577(2) 0.0292(2) 0.8564(2)
O9_8 O 0.8610(3) 0.0688(2) 0.9810(3)
C15_8 C 0.8889(4) 0.0521(5) 0.9455(5)
C16_8 C 0.9093(4) 0.1398(4) 0.9262(4)
H8_8 H 0.886109 0.148382 0.951152
O11_8 O 0.8918(3) 0.0060(3) 0.9348(2)
C17_8 C 0.9494(4) 0.0758(4) 0.8707(4)
O12_8 O 0.9235(4) 0.2278(3) 0.9137(4)
H9_8 H 0.944587 0.247822 0.903026
O13_6 O 0.9849(4) 0.2529(3) 0.8404(3)
C18_8 C 0.9670(4) 0.1658(4) 0.8600(4)
C19_8 C 0.9732(4) 0.1156(4) 0.8472(4)
H10_8 H 0.995177 0.108104 0.820831
C20_8 C 0.9172(4) 0.0877(4) 0.9135(4)
H11_6 H 0.706910 0.009604 0.939980
H1_6 H 0.939980 0.706910 0.009604
C21_8 C 0.9002(5) 0.9371(5) 0.1793(5)
C24_8 C 0.8330(4) 0.9934(5) 0.2070(6)
O14_8 O 0.8564(2) 0.9577(2) 0.0292(2)
O15_8 O 0.9810(3) 0.8610(3) 0.0688(2)
C25_8 C 0.9455(5) 0.8889(4) 0.0521(5)
C26_8 C 0.9262(4) 0.9093(4) 0.1398(4)
H13_8 H 0.951152 0.886109 0.148382
O17_8 O 0.9348(2) 0.8918(3) 0.0060(3)
C27_8 C 0.8707(4) 0.9494(4) 0.0758(4)
O18_8 O 0.9137(4) 0.9235(4) 0.2278(3)
H14_8 H 0.903026 0.944587 0.247822
O19_6 O 0.8404(3) 0.9849(4) 0.2529(3)
C28_8 C 0.8600(4) 0.9670(4) 0.1658(4)
C29_8 C 0.8472(4) 0.9732(4) 0.1156(4)
H15_8 H 0.820831 0.995177 0.108104
C30_8 C 0.9135(4) 0.9172(4) 0.0877(4)
O7_7 O 0.4096(3) 0.0029(3) 0.2349(4)
C12_7 C 0.3139(4) 0.7325(4) 0.9789(4)
H6_7 H 0.310020 0.759604 0.956910
C13_7 C 0.3422(4) 0.6895(4) 0.9710(4)
H7_7 H 0.360440 0.681980 0.941977
O13_7 O 0.9971(3) 0.7349(4) 0.0904(3)
O19_7 O 0.2349(4) 0.4096(3) 0.0029(3)
O7_8 O 0.0904(3) 0.9971(3) 0.7349(4)
C2_7 C 0.9789(4) 0.3139(4) 0.7325(4)
H1_7 H 0.956910 0.310020 0.759604
C3_7 C 0.9710(4) 0.3422(4) 0.6895(4)
H2_7 H 0.941977 0.360440 0.681980
C2_8 C 0.0211(4) 0.8139(4) 0.7675(4)
H1_8 H 0.043090 0.810020 0.740396
C3_8 C 0.0290(4) 0.8422(4) 0.8105(4)
H2_8 H 0.058023 0.860440 0.818020
C22_7 C 0.7675(4) 0.0211(4) 0.8139(4)
H11_7 H 0.740396 0.043090 0.810020
C23_7 C 0.8105(4) 0.0290(4) 0.8422(4)
H12_7 H 0.818020 0.058023 0.860440
C12_8 C 0.8139(4) 0.7675(4) 0.0211(4)
H6_8 H 0.810020 0.740396 0.043090
C13_8 C 0.8422(4) 0.8105(4) 0.0290(4)
H7_8 H 0.860440 0.818020 0.058023
O13_8 O 0.0029(3) 0.2349(4) 0.4096(3)
O19_8 O 0.7349(4) 0.0904(3) 0.9971(3)
C22_8 C 0.7325(4) 0.9789(4) 0.3139(4)
H11_8 H 0.759604 0.956910 0.310020
C23_8 C 0.6895(4) 0.9710(4) 0.3422(4)
H12_8 H 0.681980 0.941977 0.360440
loop_
_geom_bond_atom_site_label_1
_geom_bond_atom_site_label_2
_geom_bond_site_symmetry_1
_geom_bond_site_symmetry_2
Zn1 O1 1_555 1_555
C1 C6 1_555 1_555
C3 C2 1_555 1_555
H2 C3 1_555 1_555
N1 C3 1_555 1_555
O1 C7 1_555 1_555
O2 C5 1_555 1_555
C5 O5 1_555 1_555
O4 Zn1 1_555 1_555
C6 H3 1_555 1_555
O5 Zn1 1_555 1_555
C7 C9 1_555 1_555
N2 Zn1 1_555 1_555
N3 C2 1_555 1_555
O6 C1 1_555 1_555
H4 O6 1_555 1_555
O7 C4 1_555 1_555
C8 C1 1_555 1_555
C9 C8 1_555 1_555
H5 C9 1_555 1_555
C10 C5 1_555 1_555
Zn3 O4 1_555 1_555
C11 C16 1_555 1_555
C12 H6 1_555 1_555
C13 C12 1_555 1_555
H7 C13 1_555 1_555
Zn4 O2 1_555 1_555
C14 O10 1_555 1_555
N4 C13 1_555 1_555
O8 Zn3 1_555 1_555
O9 C15 1_555 1_555
C15 O11 1_555 1_555
O10 Zn10 1_555 1_555
C16 H8 1_555 1_555
O11 Zn3 1_555 1_555
C17 O8 1_555 1_555
N5 Zn3 1_555 1_555
N6 C12 1_555 1_555
O12 C11 1_555 1_555
H9 O12 1_555 1_555
O13 C14 1_555 1_555
C18 C11 1_555 1_555
C19 C17 1_555 1_555
H10 C19 1_555 1_555
C20 C15 1_555 1_555
Zn5 O4 1_555 1_555
C22 H11 1_555 1_555
C23 C22 1_555 1_555
H12 C23 1_555 1_555
N7 C23 1_555 1_555
N8 Zn5 1_555 1_555
N9 C22 1_555 1_555
Zn7 N1 1_555 1_555
Zn8 N7 1_555 1_555
Zn9 N4 1_555 1_555
N10 Zn1 1_555 1_555
N11 Zn5 1_555 1_555
N12 Zn3 1_555 1_555
O20 Zn4 1_555 1_555
C4 C8 1_555 1_555
N1 N2 1_555 1_555
C6 C10 1_555 1_555
C7 C10 1_555 1_555
N2 N3 1_555 1_555
Zn4 O8 1_555 1_555
Zn4 N6 1_555 1_555
C14 C18 1_555 1_555
N4 N5 1_555 1_555
C16 C20 1_555 1_555
C17 C20 1_555 1_555
N5 N6 1_555 1_555
C18 C19 1_555 1_555
N7 N8 1_555 1_555
N8 N9 1_555 1_555
O3 Zn11 1_555 1_555
C21 C26 1_555 1_555
C24 O16 1_555 1_555
O15 Zn2 1_555 1_555
C25 O15 1_555 1_555
O16 Zn12 1_555 1_555
C26 H13 1_555 1_555
C27 O14 1_555 1_555
O18 C21 1_555 1_555
H14 O18 1_555 1_555
O19 C24 1_555 1_555
C28 C21 1_555 1_555
C29 C27 1_555 1_555
H15 C29 1_555 1_555
C30 C25 1_555 1_555
O21 Zn2 1_555 1_555
O22 Zn6 1_555 1_555
Zn6 O14 1_555 1_555
C24 C28 1_555 1_555
C25 O17 1_555 1_555
C26 C30 1_555 1_555
C27 C30 1_555 1_555
C28 C29 1_555 1_555
C2_2 H1_2 1_555 1_555
C3_2 C2_2 1_555 1_555
H2_2 C3_2 1_555 1_555
N1_2 C3_2 1_555 1_555
O4_2 Zn1_2 1_555 1_555
N2_2 Zn1_2 1_555 1_555
N3_2 C2_2 1_555 1_555
Zn3_2 O4_2 1_555 1_555
C11_2 C16_2 1_555 1_555
C13_2 C12_2 1_555 1_555
H7_2 C13_2 1_555 1_555
N4_2 C13_2 1_555 1_555
O8_2 Zn3_2 1_555 1_555
O9_2 C15_2 1_555 1_555
C15_2 O11_2 1_555 1_555
C16_2 H8_2 1_555 1_555
O11_2 Zn3_2 1_555 1_555
C17_2 O8_2 1_555 1_555
N5_2 Zn3_2 1_555 1_555
N6_2 C12_2 1_555 1_555
O12_2 C11_2 1_555 1_555
H9_2 O12_2 1_555 1_555
O13_2 C14_2 1_555 1_555
C18_2 C11_2 1_555 1_555
C19_2 C17_2 1_555 1_555
H10_2 C19_2 1_555 1_555
C20_2 C15_2 1_555 1_555
Zn5_2 O4_2 1_555 1_555
C21_2 C26_2 1_555 1_555
C22_2 H11_2 1_555 1_555
C23_2 C22_2 1_555 1_555
H12_2 C23_2 1_555 1_555
Zn6_2 O9_2 1_555 1_555
C24_2 O16_2 1_555 1_555
N7_2 C23_2 1_555 1_555
O14_2 Zn5_2 1_555 1_555
C25_2 O15_2 1_555 1_555
O16_2 Zn12_2 1_555 1_555
C26_2 H13_2 1_555 1_555
O17_2 Zn5_2 1_555 1_555
C27_2 O14_2 1_555 1_555
N8_2 Zn5_2 1_555 1_555
N9_2 C22_2 1_555 1_555
O18_2 C21_2 1_555 1_555
H14_2 O18_2 1_555 1_555
O19_2 C24_2 1_555 1_555
C28_2 C21_2 1_555 1_555
C29_2 C27_2 1_555 1_555
H15_2 C29_2 1_555 1_555
C30_2 C25_2 1_555 1_555
Zn7_2 N1_2 1_555 1_555
Zn8_2 N7_2 1_555 1_555
Zn9_2 N4_2 1_555 1_555
N10_2 Zn1_2 1_555 1_555
N11_2 Zn5_2 1_555 1_555
N12_2 Zn3_2 1_555 1_555
O22_2 Zn6_2 1_555 1_555
N1_2 N2_2 1_555 1_555
N2_2 N3_2 1_555 1_555
C14_2 C18_2 1_555 1_555
N4_2 N5_2 1_555 1_555
C16_2 C20_2 1_555 1_555
C17_2 C20_2 1_555 1_555
N5_2 N6_2 1_555 1_555
C18_2 C19_2 1_555 1_555
Zn6_2 O14_2 1_555 1_555
Zn6_2 N9_2 1_555 1_555
C24_2 C28_2 1_555 1_555
N7_2 N8_2 1_555 1_555
C25_2 O17_2 1_555 1_555
C26_2 C30_2 1_555 1_555
C27_2 C30_2 1_555 1_555
N8_2 N9_2 1_555 1_555
C28_2 C29_2 1_555 1_555
C1_2 C6_2 1_555 1_555
Zn2_2 O1_2 1_555 1_555
C4_2 O3_2 1_555 1_555
O1_2 C7_2 1_555 1_555
O2_2 C5_2 1_555 1_555
C5_2 O5_2 1_555 1_555
O3_2 Zn11_2 1_555 1_555
C6_2 H3_2 1_555 1_555
C7_2 C9_2 1_555 1_555
O6_2 C1_2 1_555 1_555
H4_2 O6_2 1_555 1_555
O7_2 C4_2 1_555 1_555
C8_2 C1_2 1_555 1_555
C9_2 C8_2 1_555 1_555
H5_2 C9_2 1_555 1_555
C10_2 C5_2 1_555 1_555
Zn4_2 O2_2 1_555 1_555
O10_2 Zn10_2 1_555 1_555
O20_2 Zn4_2 1_555 1_555
O21_2 Zn2_2 1_555 1_555
C4_2 C8_2 1_555 1_555
C6_2 C10_2 1_555 1_555
C7_2 C10_2 1_555 1_555
Zn1_3 O1_3 1_555 1_555
C1_3 C6_3 1_555 1_555
C2_3 H1_3 1_555 1_555
C3_3 C2_3 1_555 1_555
H2_3 C3_3 1_555 1_555
Zn2_3 O1_3 1_555 1_555
C4_3 O3_3 1_555 1_555
N1_3 C3_3 1_555 1_555
O1_3 C7_3 1_555 1_555
O2_3 C5_3 1_555 1_555
C5_3 O5_3 1_555 1_555
O3_3 Zn11_3 1_555 1_555
O4_3 Zn1_3 1_555 1_555
C6_3 H3_3 1_555 1_555
O5_3 Zn1_3 1_555 1_555
C7_3 C9_3 1_555 1_555
N2_3 Zn1_3 1_555 1_555
N3_3 C2_3 1_555 1_555
O6_3 C1_3 1_555 1_555
H4_3 O6_3 1_555 1_555
O7_3 C4_3 1_555 1_555
C8_3 C1_3 1_555 1_555
C9_3 C8_3 1_555 1_555
H5_3 C9_3 1_555 1_555
C10_3 C5_3 1_555 1_555
Zn3_3 O4_3 1_555 1_555
C12_3 H6_3 1_555 1_555
C13_3 C12_3 1_555 1_555
H7_3 C13_3 1_555 1_555
N4_3 C13_3 1_555 1_555
N5_3 Zn3_3 1_555 1_555
N6_3 C12_3 1_555 1_555
Zn5_3 O4_3 1_555 1_555
C21_3 C26_3 1_555 1_555
C23_3 C22_3 1_555 1_555
H12_3 C23_3 1_555 1_555
N7_3 C23_3 1_555 1_555
O14_3 Zn5_3 1_555 1_555
O15_3 Zn2_3 1_555 1_555
C25_3 O15_3 1_555 1_555
C26_3 H13_3 1_555 1_555
O17_3 Zn5_3 1_555 1_555
C27_3 O14_3 1_555 1_555
N8_3 Zn5_3 1_555 1_555
N9_3 C22_3 1_555 1_555
O18_3 C21_3 1_555 1_555
H14_3 O18_3 1_555 1_555
O19_3 C24_3 1_555 1_555
C28_3 C21_3 1_555 1_555
C29_3 C27_3 1_555 1_555
H15_3 C29_3 1_555 1_555
C30_3 C25_3 1_555 1_555
Zn7_3 N1_3 1_555 1_555
Zn8_3 N7_3 1_555 1_555
Zn9_3 N4_3 1_555 1_555
N10_3 Zn1_3 1_555 1_555
N11_3 Zn5_3 1_555 1_555
N12_3 Zn3_3 1_555 1_555
O21_3 Zn2_3 1_555 1_555
Zn2_3 N3_3 1_555 1_555
C4_3 C8_3 1_555 1_555
N1_3 N2_3 1_555 1_555
C6_3 C10_3 1_555 1_555
C7_3 C10_3 1_555 1_555
N2_3 N3_3 1_555 1_555
N4_3 N5_3 1_555 1_555
N5_3 N6_3 1_555 1_555
C24_3 C28_3 1_555 1_555
N7_3 N8_3 1_555 1_555
C25_3 O17_3 1_555 1_555
C26_3 C30_3 1_555 1_555
C27_3 C30_3 1_555 1_555
N8_3 N9_3 1_555 1_555
C28_3 C29_3 1_555 1_555
C11_3 C16_3 1_555 1_555
C14_3 O10_3 1_555 1_555
O9_3 C15_3 1_555 1_555
C15_3 O11_3 1_555 1_555
O10_3 Zn10_3 1_555 1_555
C16_3 H8_3 1_555 1_555
C17_3 O8_3 1_555 1_555
O12_3 C11_3 1_555 1_555
H9_3 O12_3 1_555 1_555
O13_3 C14_3 1_555 1_555
C18_3 C11_3 1_555 1_555
C19_3 C17_3 1_555 1_555
H10_3 C19_3 1_555 1_555
C20_3 C15_3 1_555 1_555
Zn6_3 O9_3 1_555 1_555
O16_3 Zn12_3 1_555 1_555
O20_3 Zn4_3 1_555 1_555
O22_3 Zn6_3 1_555 1_555
Zn4_3 O8_3 1_555 1_555
C14_3 C18_3 1_555 1_555
C16_3 C20_3 1_555 1_555
C17_3 C20_3 1_555 1_555
C18_3 C19_3 1_555 1_555
O10_4 Zn10_4 1_555 1_555
O20_4 Zn4_4 1_555 1_555
O3_4 Zn11_4 1_555 1_555
O21_4 Zn2_4 1_555 1_555
O16_4 Zn12_4 1_555 1_555
O22_4 Zn6_4 1_555 1_555
C3_4 C2_4 1_555 1_555
H2_4 C3_4 1_555 1_555
N1_4 C3_4 1_555 1_555
O4_4 Zn1_4 1_555 1_555
N2_4 Zn1_4 1_555 1_555
N3_4 C2_4 1_555 1_555
Zn3_4 O4_4 1_555 1_555
C13_4 C12_4 1_555 1_555
H7_4 C13_4 1_555 1_555
N4_4 C13_4 1_555 1_555
N5_4 Zn3_4 1_555 1_555
N6_4 C12_4 1_555 1_555
Zn5_4 O4_4 1_555 1_555
C23_4 C22_4 1_555 1_555
H12_4 C23_4 1_555 1_555
N7_4 C23_4 1_555 1_555
N8_4 Zn5_4 1_555 1_555
N9_4 C22_4 1_555 1_555
Zn7_4 N1_4 1_555 1_555
Zn8_4 N7_4 1_555 1_555
Zn9_4 N4_4 1_555 1_555
N10_4 Zn1_4 1_555 1_555
N11_4 Zn5_4 1_555 1_555
N12_4 Zn3_4 1_555 1_555
N1_4 N2_4 1_555 1_555
N2_4 N3_4 1_555 1_555
N4_4 N5_4 1_555 1_555
N5_4 N6_4 1_555 1_555
N7_4 N8_4 1_555 1_555
N8_4 N9_4 1_555 1_555
Zn7 O1_4 1_555 1_555
C1_4 C6_4 1_555 1_555
C2_5 H1_4 1_555 1_555
C3_5 C2_5 1_555 1_555
H2_5 C3_5 1_555 1_555
Zn10_3 O1_4 1_555 1_555
C4_4 O20_3 1_555 1_555
N10 C3_5 1_555 1_555
O1_4 C7_4 1_555 1_555
O2_4 C5_4 1_555 1_555
C5_4 O5_4 1_555 1_555
O4_5 Zn7 1_555 1_555
C6_4 H3_4 1_555 1_555
O5_4 Zn7 1_555 1_555
C7_4 C9_4 1_555 1_555
N2_5 Zn7 1_555 1_555
N3_5 C2_5 1_555 1_555
O6_4 C1_4 1_555 1_555
H4_4 O6_4 1_555 1_555
C8_4 C1_4 1_555 1_555
C9_4 C8_4 1_555 1_555
H5_4 C9_4 1_555 1_555
C10_4 C5_4 1_555 1_555
Zn8 O4_5 1_555 1_555
C11_4 C16_4 1_555 1_555
Zn11_4 O2_4 1_555 1_555
C14_4 O21_4 1_555 1_555
O8_4 Zn8 1_555 1_555
O9_4 C15_4 1_555 1_555
C15_4 O11_4 1_555 1_555
C16_4 H8_4 1_555 1_555
O11_4 Zn8 1_555 1_555
C17_4 O8_4 1_555 1_555
N5_5 Zn8 1_555 1_555
O12_4 C11_4 1_555 1_555
H9_4 O12_4 1_555 1_555
C18_4 C11_4 1_555 1_555
C19_4 C17_4 1_555 1_555
H10_4 C19_4 1_555 1_555
C20_4 C15_4 1_555 1_555
Zn9 O4_5 1_555 1_555
C21_4 C26_4 1_555 1_555
C22_5 H11_4 1_555 1_555
C23_5 C22_5 1_555 1_555
H12_5 C23_5 1_555 1_555
Zn12_2 O9_4 1_555 1_555
C24_4 O22_2 1_555 1_555
N12 C23_5 1_555 1_555
O14_4 Zn9 1_555 1_555
O15_4 Zn10_3 1_555 1_555
C25_4 O15_4 1_555 1_555
C26_4 H13_4 1_555 1_555
O17_4 Zn9 1_555 1_555
C27_4 O14_4 1_555 1_555
N8_5 Zn9 1_555 1_555
N9_5 C22_5 1_555 1_555
O18_4 C21_4 1_555 1_555
H14_4 O18_4 1_555 1_555
O19_4 C24_4 1_555 1_555
C28_4 C21_4 1_555 1_555
C29_4 C27_4 1_555 1_555
H15_4 C29_4 1_555 1_555
C30_4 C25_4 1_555 1_555
Zn10_3 N3_5 1_555 1_555
C4_4 C8_4 1_555 1_555
N10 N2_5 1_555 1_555
C6_4 C10_4 1_555 1_555
C7_4 C10_4 1_555 1_555
N2_5 N3_5 1_555 1_555
Zn11_4 O8_4 1_555 1_555
Zn11_4 N6_5 1_555 1_555
C14_4 C18_4 1_555 1_555
N11 N5_5 1_555 1_555
C16_4 C20_4 1_555 1_555
C17_4 C20_4 1_555 1_555
N5_5 N6_5 1_555 1_555
C18_4 C19_4 1_555 1_555
Zn12_2 O14_4 1_555 1_555
Zn12_2 N9_5 1_555 1_555
C24_4 C28_4 1_555 1_555
N12 N8_5 1_555 1_555
C25_4 O17_4 1_555 1_555
C26_4 C30_4 1_555 1_555
C27_4 C30_4 1_555 1_555
N8_5 N9_5 1_555 1_555
C28_4 C29_4 1_555 1_555
Zn7_2 O1_5 1_555 1_555
C1_5 C6_5 1_555 1_555
Zn10_4 O1_5 1_555 1_555
C4_5 O20_4 1_555 1_555
O1_5 C7_5 1_555 1_555
O2_5 C5_5 1_555 1_555
C5_5 O5_5 1_555 1_555
O4_6 Zn7_2 1_555 1_555
C6_5 H3_5 1_555 1_555
O5_5 Zn7_2 1_555 1_555
C7_5 C9_5 1_555 1_555
N2_6 Zn7_2 1_555 1_555
O6_5 C1_5 1_555 1_555
H4_5 O6_5 1_555 1_555
C8_5 C1_5 1_555 1_555
C9_5 C8_5 1_555 1_555
H5_5 C9_5 1_555 1_555
C10_5 C5_5 1_555 1_555
Zn8_2 O4_6 1_555 1_555
C11_5 C16_5 1_555 1_555
C12_5 H6_4 1_555 1_555
C13_5 C12_5 1_555 1_555
H7_5 C13_5 1_555 1_555
Zn11_3 O2_5 1_555 1_555
C14_5 O21_3 1_555 1_555
N11_2 C13_5 1_555 1_555
O8_5 Zn8_2 1_555 1_555
O9_5 C15_5 1_555 1_555
C15_5 O11_5 1_555 1_555
C16_5 H8_5 1_555 1_555
O11_5 Zn8_2 1_555 1_555
C17_5 O8_5 1_555 1_555
N5_6 Zn8_2 1_555 1_555
N6_6 C12_5 1_555 1_555
O12_5 C11_5 1_555 1_555
H9_5 O12_5 1_555 1_555
O13_4 C14_5 1_555 1_555
C18_5 C11_5 1_555 1_555
C19_5 C17_5 1_555 1_555
H10_5 C19_5 1_555 1_555
C20_5 C15_5 1_555 1_555
Zn9_2 O4_6 1_555 1_555
C21_5 C26_5 1_555 1_555
C22_6 H11_5 1_555 1_555
C23_6 C22_6 1_555 1_555
H12_6 C23_6 1_555 1_555
Zn12 O9_5 1_555 1_555
C24_5 O22 1_555 1_555
N12_2 C23_6 1_555 1_555
O14_5 Zn9_2 1_555 1_555
O15_5 Zn10_4 1_555 1_555
C25_5 O15_5 1_555 1_555
C26_5 H13_5 1_555 1_555
O17_5 Zn9_2 1_555 1_555
C27_5 O14_5 1_555 1_555
N8_6 Zn9_2 1_555 1_555
N9_6 C22_6 1_555 1_555
O18_5 C21_5 1_555 1_555
H14_5 O18_5 1_555 1_555
C28_5 C21_5 1_555 1_555
C29_5 C27_5 1_555 1_555
H15_5 C29_5 1_555 1_555
C30_5 C25_5 1_555 1_555
Zn10_4 N3_6 1_555 1_555
C4_5 C8_5 1_555 1_555
N10_2 N2_6 1_555 1_555
C6_5 C10_5 1_555 1_555
C7_5 C10_5 1_555 1_555
N2_6 N3_6 1_555 1_555
Zn11_3 O8_5 1_555 1_555
Zn11_3 N6_6 1_555 1_555
C14_5 C18_5 1_555 1_555
N11_2 N5_6 1_555 1_555
C16_5 C20_5 1_555 1_555
C17_5 C20_5 1_555 1_555
N5_6 N6_6 1_555 1_555
C18_5 C19_5 1_555 1_555
Zn12 O14_5 1_555 1_555
Zn12 N9_6 1_555 1_555
C24_5 C28_5 1_555 1_555
N12_2 N8_6 1_555 1_555
C25_5 O17_5 1_555 1_555
C26_5 C30_5 1_555 1_555
C27_5 C30_5 1_555 1_555
N8_6 N9_6 1_555 1_555
C28_5 C29_5 1_555 1_555
Zn7_4 O1_6 1_555 1_555
C1_6 C6_6 1_555 1_555
Zn10_2 O1_6 1_555 1_555
C4_6 O20_2 1_555 1_555
O1_6 C7_6 1_555 1_555
O2_6 C5_6 1_555 1_555
C5_6 O5_6 1_555 1_555
O4_7 Zn7_4 1_555 1_555
C6_6 H3_6 1_555 1_555
O5_6 Zn7_4 1_555 1_555
C7_6 C9_6 1_555 1_555
N2_7 Zn7_4 1_555 1_555
O6_6 C1_6 1_555 1_555
H4_6 O6_6 1_555 1_555
O7_4 C4_6 1_555 1_555
C8_6 C1_6 1_555 1_555
C9_6 C8_6 1_555 1_555
H5_6 C9_6 1_555 1_555
C10_6 C5_6 1_555 1_555
Zn8_4 O4_7 1_555 1_555
C11_6 C16_6 1_555 1_555
Zn11 O2_6 1_555 1_555
C14_6 O21 1_555 1_555
O8_6 Zn8_4 1_555 1_555
O9_6 C15_6 1_555 1_555
C15_6 O11_6 1_555 1_555
C16_6 H8_6 1_555 1_555
O11_6 Zn8_4 1_555 1_555
C17_6 O8_6 1_555 1_555
N5_7 Zn8_4 1_555 1_555
O12_6 C11_6 1_555 1_555
H9_6 O12_6 1_555 1_555
O13_5 C14_6 1_555 1_555
C18_6 C11_6 1_555 1_555
C19_6 C17_6 1_555 1_555
H10_6 C19_6 1_555 1_555
C20_6 C15_6 1_555 1_555
Zn9_4 O4_7 1_555 1_555
C21_6 C26_6 1_555 1_555
Zn12_3 O9_6 1_555 1_555
C24_6 O22_3 1_555 1_555
O14_6 Zn9_4 1_555 1_555
O15_6 Zn10_2 1_555 1_555
C25_6 O15_6 1_555 1_555
C26_6 H13_6 1_555 1_555
O17_6 Zn9_4 1_555 1_555
C27_6 O14_6 1_555 1_555
N8_7 Zn9_4 1_555 1_555
O18_6 C21_6 1_555 1_555
H14_6 O18_6 1_555 1_555
O19_5 C24_6 1_555 1_555
C28_6 C21_6 1_555 1_555
C29_6 C27_6 1_555 1_555
H15_6 C29_6 1_555 1_555
C30_6 C25_6 1_555 1_555
Zn10_2 N3_7 1_555 1_555
C4_6 C8_6 1_555 1_555
N10_4 N2_7 1_555 1_555
C6_6 C10_6 1_555 1_555
C7_6 C10_6 1_555 1_555
N2_7 N3_7 1_555 1_555
Zn11 O8_6 1_555 1_555
Zn11 N6_7 1_555 1_555
C14_6 C18_6 1_555 1_555
N11_4 N5_7 1_555 1_555
C16_6 C20_6 1_555 1_555
C17_6 C20_6 1_555 1_555
N5_7 N6_7 1_555 1_555
C18_6 C19_6 1_555 1_555
Zn12_3 O14_6 1_555 1_555
Zn12_3 N9_7 1_555 1_555
C24_6 C28_6 1_555 1_555
N12_4 N8_7 1_555 1_555
C25_6 O17_6 1_555 1_555
C26_6 C30_6 1_555 1_555
C27_6 C30_6 1_555 1_555
N8_7 N9_7 1_555 1_555
C28_6 C29_6 1_555 1_555
Zn7_3 O1_7 1_555 1_555
C1_7 C6_7 1_555 1_555
C2_6 H1_5 1_555 1_555
C3_6 C2_6 1_555 1_555
H2_6 C3_6 1_555 1_555
Zn10 O1_7 1_555 1_555
C4_7 O20 1_555 1_555
N10_3 C3_6 1_555 1_555
O1_7 C7_7 1_555 1_555
O2_7 C5_7 1_555 1_555
C5_7 O5_7 1_555 1_555
O4_8 Zn7_3 1_555 1_555
C6_7 H3_7 1_555 1_555
O5_7 Zn7_3 1_555 1_555
C7_7 C9_7 1_555 1_555
N2_8 Zn7_3 1_555 1_555
N3_8 C2_6 1_555 1_555
O6_7 C1_7 1_555 1_555
H4_7 O6_7 1_555 1_555
O7_5 C4_7 1_555 1_555
C8_7 C1_7 1_555 1_555
C9_7 C8_7 1_555 1_555
H5_7 C9_7 1_555 1_555
C10_7 C5_7 1_555 1_555
Zn8_3 O4_8 1_555 1_555
C11_7 C16_7 1_555 1_555
C12_6 H6_5 1_555 1_555
C13_6 C12_6 1_555 1_555
H7_6 C13_6 1_555 1_555
Zn11_2 O2_7 1_555 1_555
C14_7 O21_2 1_555 1_555
N11_3 C13_6 1_555 1_555
O8_7 Zn8_3 1_555 1_555
O9_7 C15_7 1_555 1_555
C15_7 O11_7 1_555 1_555
C16_7 H8_7 1_555 1_555
O11_7 Zn8_3 1_555 1_555
C17_7 O8_7 1_555 1_555
N5_8 Zn8_3 1_555 1_555
N6_8 C12_6 1_555 1_555
O12_7 C11_7 1_555 1_555
H9_7 O12_7 1_555 1_555
C18_7 C11_7 1_555 1_555
C19_7 C17_7 1_555 1_555
H10_7 C19_7 1_555 1_555
C20_7 C15_7 1_555 1_555
Zn9_3 O4_8 1_555 1_555
C21_7 C26_7 1_555 1_555
Zn12_4 O9_7 1_555 1_555
C24_7 O22_4 1_555 1_555
O14_7 Zn9_3 1_555 1_555
O15_7 Zn10 1_555 1_555
C25_7 O15_7 1_555 1_555
C26_7 H13_7 1_555 1_555
O17_7 Zn9_3 1_555 1_555
C27_7 O14_7 1_555 1_555
N8_8 Zn9_3 1_555 1_555
O18_7 C21_7 1_555 1_555
H14_7 O18_7 1_555 1_555
C28_7 C21_7 1_555 1_555
C29_7 C27_7 1_555 1_555
H15_7 C29_7 1_555 1_555
C30_7 C25_7 1_555 1_555
Zn10 N3_8 1_555 1_555
C4_7 C8_7 1_555 1_555
N10_3 N2_8 1_555 1_555
C6_7 C10_7 1_555 1_555
C7_7 C10_7 1_555 1_555
N2_8 N3_8 1_555 1_555
Zn11_2 O8_7 1_555 1_555
Zn11_2 N6_8 1_555 1_555
C14_7 C18_7 1_555 1_555
N11_3 N5_8 1_555 1_555
C16_7 C20_7 1_555 1_555
C17_7 C20_7 1_555 1_555
N5_8 N6_8 1_555 1_555
C18_7 C19_7 1_555 1_555
Zn12_4 O14_7 1_555 1_555
Zn12_4 N9_8 1_555 1_555
C24_7 C28_7 1_555 1_555
N12_3 N8_8 1_555 1_555
C25_7 O17_7 1_555 1_555
C26_7 C30_7 1_555 1_555
C27_7 C30_7 1_555 1_555
N8_8 N9_8 1_555 1_555
C28_7 C29_7 1_555 1_555
C1_8 C6_8 1_555 1_555
O1_8 C7_8 1_555 1_555
O2_8 C5_8 1_555 1_555
C5_8 O5_8 1_555 1_555
C6_8 H3_8 1_555 1_555
C7_8 C9_8 1_555 1_555
O6_8 C1_8 1_555 1_555
H4_8 O6_8 1_555 1_555
O7_6 C4_8 1_555 1_555
C8_8 C1_8 1_555 1_555
C9_8 C8_8 1_555 1_555
H5_8 C9_8 1_555 1_555
C10_8 C5_8 1_555 1_555
C4_8 C8_8 1_555 1_555
C6_8 C10_8 1_555 1_555
C7_8 C10_8 1_555 1_555
C11_8 C16_8 1_555 1_555
O9_8 C15_8 1_555 1_555
C15_8 O11_8 1_555 1_555
C16_8 H8_8 1_555 1_555
C17_8 O8_8 1_555 1_555
O12_8 C11_8 1_555 1_555
H9_8 O12_8 1_555 1_555
O13_6 C14_8 1_555 1_555
C18_8 C11_8 1_555 1_555
C19_8 C17_8 1_555 1_555
H10_8 C19_8 1_555 1_555
C20_8 C15_8 1_555 1_555
C14_8 C18_8 1_555 1_555
C16_8 C20_8 1_555 1_555
C17_8 C20_8 1_555 1_555
C18_8 C19_8 1_555 1_555
C21_8 C26_8 1_555 1_555
C25_8 O15_8 1_555 1_555
C26_8 H13_8 1_555 1_555
C27_8 O14_8 1_555 1_555
O18_8 C21_8 1_555 1_555
H14_8 O18_8 1_555 1_555
O19_6 C24_8 1_555 1_555
C28_8 C21_8 1_555 1_555
C29_8 C27_8 1_555 1_555
H15_8 C29_8 1_555 1_555
C30_8 C25_8 1_555 1_555
C24_8 C28_8 1_555 1_555
C25_8 O17_8 1_555 1_555
C26_8 C30_8 1_555 1_555
C27_8 C30_8 1_555 1_555
C28_8 C29_8 1_555 1_555
C12_7 H6_7 1_555 1_555
C13_7 C12_7 1_555 1_555
H7_7 C13_7 1_555 1_555
C2_7 H1_7 1_555 1_555
C3_7 C2_7 1_555 1_555
H2_7 C3_7 1_555 1_555
C2_8 H1_8 1_555 1_555
C3_8 C2_8 1_555 1_555
H2_8 C3_8 1_555 1_555
C22_7 H11_7 1_555 1_555
C23_7 C22_7 1_555 1_555
H12_7 C23_7 1_555 1_555
C12_8 H6_8 1_555 1_555
C13_8 C12_8 1_555 1_555
H7_8 C13_8 1_555 1_555
C22_8 H11_8 1_555 1_555
C23_8 C22_8 1_555 1_555
H12_8 C23_8 1_555 1_555

#END
