
###############################################################################
#
# This file contains modified crystal structure data generated from the
# MOF subset of the Cambridge Structural Database (CSD) v543 
# hosted by the Cambridge Crystallographic Data Centre (CCDC).
#
# This work is licensed under the Creative Commons
# Attribution-NonCommercial-ShareAlike 4.0 International License.
# To view a copy of this license, visit
# http://creativecommons.org/licenses/by-nc-sa/4.0/
# or send a letter to
# Creative Commons, PO Box 1866, Mountain View, CA 94042, USA.
#
# CIF created using the CSD Python API on 29 September 2022
# The structure has been converted into the P1 space group
# The structure has a 3D framework
# The original CSD entry RONZAY is in the cubic crystal system
# The original CSD entry RONZAY is in a Sohncke space group
# The framework has been calculated to contain at least 10.0% void space
# The void calculation uses a probe of radius 1.32A, grid spacing 0.4
# The framework is charged, counterions have been retained in the structure
#
###############################################################################

data_RONZAY
_chemical_formula_moiety         '(C240 H120 N72 O128 Zn48 8-)n'
_symmetry_cell_setting           triclinic
_symmetry_space_group_name_H-M   'P 1'
_symmetry_Int_Tables_number      1
_space_group_name_Hall           'P 1'
loop_
_symmetry_equiv_pos_site_id
_symmetry_equiv_pos_as_xyz
1 x,y,z
_cell_length_a                   26.449(7)
_cell_length_b                   26.449(7)
_cell_length_c                   26.449(7)
_cell_angle_alpha                90
_cell_angle_beta                 90
_cell_angle_gamma                90
_cell_volume                     18502.4
loop_
_atom_site_label
_atom_site_type_symbol
_atom_site_fract_x
_atom_site_fract_y
_atom_site_fract_z
Zn2 Zn 0.25721(9) 0.26712(9) 0.06602(9)
O5 O 0.3076(5) 0.3032(6) 0.0250(6)
Zn5 Zn 0.13186(9) 0.08908(9) 0.03166(9)
N7 N 0.1617(6) 0.1594(6) 0.0126(6)
N8 N 0.1908(6) 0.1836(7) 0.0444(6)
N9 N 0.2071(6) 0.2254(6) 0.0251(6)
Zn10 Zn 0.21834(9) 0.16092(9) 0.11814(9)
O18 O 0.0977(4) 0.0977(4) 0.0977(4)
Zn14 Zn 0.49279(9) 0.31602(9) 0.01712(9)
O19 O 0.2282(6) 0.3170(5) 0.1140(5)
O23 O 0.2804(5) 0.2064(5) 0.1073(4)
N11 N 0.2056(6) 0.0664(7) 0.0592(6)
Zn1 Zn 0.53166(9) 0.36814(9) 0.91092(9)
O1 O 0.5977(4) 0.4023(4) 0.9023(4)
C1 C 0.2944(10) 0.3352(9) 0.9882(9)
O2 O 0.4330(5) 0.4782(6) 0.8640(5)
O3 O 0.4949(6) 0.4343(5) 0.8929(5)
O4 O 0.4696(5) 0.3573(4) 0.9564(5)
N1 N 0.5126(6) 0.3383(6) 0.8406(6)
N2 N 0.5444(6) 0.3092(6) 0.8164(7)
N3 N 0.5251(6) 0.2929(6) 0.7746(6)
C2 C 0.4211(8) 0.3743(8) 0.9480(7)
C3 C 0.3819(7) 0.3497(7) 0.9721(7)
H1 H 0.389215 0.322822 0.993490
C4 C 0.4124(8) 0.4134(8) 0.9172(8)
C5 C 0.3349(8) 0.3630(8) 0.9657(8)
C6 C 0.4489(10) 0.4403(9) 0.8936(9)
C7 C 0.4726(9) 0.3430(8) 0.8127(8)
H2 H 0.444556 0.362517 0.821011
C8 C 0.4774(8) 0.3159(8) 0.7704(9)
H3 H 0.454253 0.312921 0.744074
C9 C 0.3243(8) 0.4014(8) 0.9359(8)
H4 H 0.290795 0.410625 0.930724
C10 C 0.3608(8) 0.4270(8) 0.9130(8)
H5 H 0.352195 0.454988 0.893543
O6 O 0.2486(6) 0.3399(6) 0.9823(7)
Zn4 Zn 0.56602(9) 0.24279(9) 0.73288(9)
C11 C 0.4882(9) 0.2056(10) 0.6648(9)
O7 O 0.3640(5) 0.0670(5) 0.5218(6)
O8 O 0.3929(5) 0.0051(6) 0.5657(5)
O9 O 0.4564(5) 0.0304(5) 0.6427(4)
O10 O 0.5250(6) 0.1924(5) 0.6968(6)
C12 C 0.4480(7) 0.0789(8) 0.6257(8)
C13 C 0.4721(7) 0.1181(7) 0.6503(7)
H6 H 0.493490 0.110785 0.677178
C14 C 0.4172(8) 0.0876(8) 0.5866(8)
C15 C 0.4657(8) 0.1651(8) 0.6370(8)
C16 C 0.3936(9) 0.0511(10) 0.5597(9)
C17 C 0.3127(8) 0.0274(9) 0.6570(8)
H7 H 0.321011 0.055444 0.637483
C18 C 0.2704(9) 0.0226(8) 0.6841(8)
H8 H 0.244074 0.045747 0.687079
C19 C 0.4359(8) 0.1757(8) 0.5986(8)
H9 H 0.430724 0.209205 0.589375
C20 C 0.4130(8) 0.1392(8) 0.5730(8)
H10 H 0.393543 0.147805 0.545012
O11 O 0.4823(7) 0.2514(6) 0.6601(6)
C21 C 0.1648(9) 0.0118(9) 0.7944(10)
O12 O 0.0218(6) 0.1360(5) 0.9330(5)
O13 O 0.0657(5) 0.1071(5) 0.9949(6)
O14 O 0.1427(4) 0.0436(5) 0.9696(5)
C22 C 0.1257(8) 0.0520(7) 0.9211(8)
C23 C 0.1503(7) 0.0279(7) 0.8819(7)
H11 H 0.177178 0.006510 0.889215
C24 C 0.0866(8) 0.0828(8) 0.9124(8)
C25 C 0.1370(8) 0.0343(8) 0.8349(8)
C26 C 0.0597(9) 0.1064(9) 0.9489(10)
C27 C 0.1570(8) 0.1873(8) 0.9726(9)
H12 H 0.137483 0.178989 0.944556
C28 C 0.1841(8) 0.2296(9) 0.9774(8)
H13 H 0.187079 0.255926 0.954253
C29 C 0.0986(8) 0.0641(8) 0.8243(8)
H14 H 0.089375 0.069276 0.790795
C30 C 0.0730(8) 0.0870(8) 0.8608(8)
H15 H 0.045012 0.106457 0.852195
O16 O 0.1601(6) 0.0177(7) 0.7486(6)
Zn7 Zn 0.58908(9) 0.46834(9) 0.86814(9)
Zn8 Zn 0.63186(9) 0.41092(9) 0.96834(9)
Zn9 Zn 0.61814(9) 0.28166(9) 0.83908(9)
Zn12 Zn 0.51712(9) 0.00721(9) 0.68398(9)
Zn13 Zn 0.48288(9) 0.50721(9) 0.81602(9)
Zn16 Zn 0.31602(9) 0.01712(9) 0.49279(9)
O21 O 0.6140(5) 0.2718(6) 0.6830(5)
O22 O 0.6073(4) 0.2196(5) 0.7936(5)
N10 N 0.5592(6) 0.2944(6) 0.9336(7)
Zn3 Zn 0.41092(9) 0.96834(9) 0.63186(9)
N4 N 0.3406(6) 0.9874(6) 0.6617(6)
N5 N 0.3164(7) 0.9556(6) 0.6908(6)
N6 N 0.2746(6) 0.9749(6) 0.7071(6)
Zn6 Zn 0.23288(9) 0.93398(9) 0.75721(9)
O15 O 0.1968(6) 0.9750(6) 0.8076(5)
Zn11 Zn 0.33908(9) 0.88186(9) 0.71834(9)
O17 O 0.4023(4) 0.9023(4) 0.5977(4)
Zn17 Zn 0.18398(9) 0.98288(9) 0.99279(9)
O20 O 0.1830(5) 0.8860(5) 0.7282(6)
O24 O 0.2936(5) 0.8927(4) 0.7804(5)
N12 N 0.4336(7) 0.9408(6) 0.7056(6)
Zn15 Zn 0.99279(9) 0.18398(9) 0.98288(9)
Zn3_2 Zn 0.08908(9) 0.03166(9) 0.13186(9)
N4_2 N 0.1594(6) 0.0126(6) 0.1617(6)
N5_2 N 0.1836(7) 0.0444(6) 0.1908(6)
N6_2 N 0.2254(6) 0.0251(6) 0.2071(6)
Zn6_2 Zn 0.26712(9) 0.06602(9) 0.25721(9)
O15_2 O 0.3032(6) 0.0250(6) 0.3076(5)
Zn11_2 Zn 0.16092(9) 0.11814(9) 0.21834(9)
O20_2 O 0.3170(5) 0.1140(5) 0.2282(6)
O24_2 O 0.2064(5) 0.1073(4) 0.2804(5)
N12_2 N 0.0664(7) 0.0592(6) 0.2056(6)
Zn2_2 Zn 0.24279(9) 0.73288(9) 0.56602(9)
C1_2 C 0.2056(10) 0.6648(9) 0.4882(9)
O2_2 O 0.0670(5) 0.5218(6) 0.3640(5)
O3_2 O 0.0051(6) 0.5657(5) 0.3929(5)
O4_2 O 0.0304(5) 0.6427(4) 0.4564(5)
O5_2 O 0.1924(5) 0.6968(6) 0.5250(6)
C2_2 C 0.0789(8) 0.6257(8) 0.4480(7)
C3_2 C 0.1181(7) 0.6503(7) 0.4721(7)
H1_2 H 0.110785 0.677178 0.493490
C4_2 C 0.0876(8) 0.5866(8) 0.4172(8)
C5_2 C 0.1651(8) 0.6370(8) 0.4657(8)
C6_2 C 0.0511(10) 0.5597(9) 0.3936(9)
C7_2 C 0.0274(9) 0.6570(8) 0.3127(8)
H2_2 H 0.055444 0.637483 0.321011
C8_2 C 0.0226(8) 0.6841(8) 0.2704(9)
H3_2 H 0.045747 0.687079 0.244074
C9_2 C 0.1757(8) 0.5986(8) 0.4359(8)
H4_2 H 0.209205 0.589375 0.430724
C10_2 C 0.1392(8) 0.5730(8) 0.4130(8)
H5_2 H 0.147805 0.545012 0.393543
O6_2 O 0.2514(6) 0.6601(6) 0.4823(7)
C11_2 C 0.0118(9) 0.7944(10) 0.1648(9)
O7_2 O 0.1360(5) 0.9330(5) 0.0218(6)
O8_2 O 0.1071(5) 0.9949(6) 0.0657(5)
O9_2 O 0.0436(5) 0.9696(5) 0.1427(4)
C12_2 C 0.0520(7) 0.9211(8) 0.1257(8)
C13_2 C 0.0279(7) 0.8819(7) 0.1503(7)
H6_2 H 0.006510 0.889215 0.177178
C14_2 C 0.0828(8) 0.9124(8) 0.0866(8)
C15_2 C 0.0343(8) 0.8349(8) 0.1370(8)
C16_2 C 0.1064(9) 0.9489(10) 0.0597(9)
C17_2 C 0.1873(8) 0.9726(9) 0.1570(8)
H7_2 H 0.178989 0.944556 0.137483
C18_2 C 0.2296(9) 0.9774(8) 0.1841(8)
H8_2 H 0.255926 0.954253 0.187079
C19_2 C 0.0641(8) 0.8243(8) 0.0986(8)
H9_2 H 0.069276 0.790795 0.089375
C20_2 C 0.0870(8) 0.8608(8) 0.0730(8)
H10_2 H 0.106457 0.852195 0.045012
O11_2 O 0.0177(7) 0.7486(6) 0.1601(6)
Zn5_2 Zn 0.36814(9) 0.91092(9) 0.53166(9)
C21_2 C 0.3352(9) 0.9882(9) 0.2944(10)
O12_2 O 0.4782(6) 0.8640(5) 0.4330(5)
O13_2 O 0.4343(5) 0.8929(5) 0.4949(6)
O14_2 O 0.3573(4) 0.9564(5) 0.4696(5)
N7_2 N 0.3383(6) 0.8406(6) 0.5126(6)
N8_2 N 0.3092(6) 0.8164(7) 0.5444(6)
N9_2 N 0.2929(6) 0.7746(6) 0.5251(6)
C22_2 C 0.3743(8) 0.9480(7) 0.4211(8)
C23_2 C 0.3497(7) 0.9721(7) 0.3819(7)
H11_2 H 0.322822 0.993490 0.389215
C24_2 C 0.4134(8) 0.9172(8) 0.4124(8)
C25_2 C 0.3630(8) 0.9657(8) 0.3349(8)
C26_2 C 0.4403(9) 0.8936(9) 0.4489(10)
C27_2 C 0.3430(8) 0.8127(8) 0.4726(9)
H12_2 H 0.362517 0.821011 0.444556
C28_2 C 0.3159(8) 0.7704(9) 0.4774(8)
H13_2 H 0.312921 0.744074 0.454253
C29_2 C 0.4014(8) 0.9359(8) 0.3243(8)
H14_2 H 0.410625 0.930724 0.290795
C30_2 C 0.4270(8) 0.9130(8) 0.3608(8)
H15_2 H 0.454988 0.893543 0.352195
O16_2 O 0.3399(6) 0.9823(7) 0.2486(6)
Zn10_2 Zn 0.28166(9) 0.83908(9) 0.61814(9)
Zn13_2 Zn 0.01712(9) 0.49279(9) 0.31602(9)
Zn14_2 Zn 0.00721(9) 0.68398(9) 0.51712(9)
Zn15_2 Zn 0.50721(9) 0.81602(9) 0.48288(9)
O19_2 O 0.2718(6) 0.6830(5) 0.6140(5)
O23_2 O 0.2196(5) 0.7936(5) 0.6073(4)
N11_2 N 0.2944(6) 0.9336(7) 0.5592(6)
Zn1_2 Zn 0.96834(9) 0.63186(9) 0.41092(9)
O1_2 O 0.9023(4) 0.5977(4) 0.4023(4)
N1_2 N 0.9874(6) 0.6617(6) 0.3406(6)
N2_2 N 0.9556(6) 0.6908(6) 0.3164(7)
N3_2 N 0.9749(6) 0.7071(6) 0.2746(6)
Zn4_2 Zn 0.93398(9) 0.75721(9) 0.23288(9)
O10_2 O 0.9750(6) 0.8076(5) 0.1968(6)
Zn7_2 Zn 0.91092(9) 0.53166(9) 0.36814(9)
Zn8_2 Zn 0.86814(9) 0.58908(9) 0.46834(9)
Zn9_2 Zn 0.88186(9) 0.71834(9) 0.33908(9)
Zn12_2 Zn 0.98288(9) 0.99279(9) 0.18398(9)
O21_2 O 0.8860(5) 0.7282(6) 0.1830(5)
O22_2 O 0.8927(4) 0.7804(5) 0.2936(5)
N10_2 N 0.9408(6) 0.7056(6) 0.4336(7)
Zn16_2 Zn 0.68398(9) 0.51712(9) 0.00721(9)
Zn1_3 Zn 0.46834(9) 0.86814(9) 0.58908(9)
Zn2_3 Zn 0.74279(9) 0.76712(9) 0.43398(9)
C1_3 C 0.7056(10) 0.8352(9) 0.5118(9)
O2_3 O 0.5670(5) 0.9782(6) 0.6360(5)
O3_3 O 0.5051(6) 0.9343(5) 0.6071(5)
O4_3 O 0.5304(5) 0.8573(4) 0.5436(5)
O5_3 O 0.6924(5) 0.8032(6) 0.4750(6)
N1_3 N 0.4874(6) 0.8383(6) 0.6594(6)
N2_3 N 0.4556(6) 0.8092(6) 0.6836(7)
N3_3 N 0.4749(6) 0.7929(6) 0.7254(6)
C2_3 C 0.5789(8) 0.8743(8) 0.5520(7)
C3_3 C 0.6181(7) 0.8497(7) 0.5279(7)
H1_3 H 0.610785 0.822822 0.506510
C4_3 C 0.5876(8) 0.9134(8) 0.5828(8)
C5_3 C 0.6651(8) 0.8630(8) 0.5343(8)
C6_3 C 0.5511(10) 0.9403(9) 0.6064(9)
C7_3 C 0.5274(9) 0.8430(8) 0.6873(8)
H2_3 H 0.555444 0.862517 0.678989
C8_3 C 0.5226(8) 0.8159(8) 0.7296(9)
H3_3 H 0.545747 0.812921 0.755926
C9_3 C 0.6757(8) 0.9014(8) 0.5641(8)
H4_3 H 0.709205 0.910625 0.569276
C10_3 C 0.6392(8) 0.9270(8) 0.5870(8)
H5_3 H 0.647805 0.954988 0.606457
O6_3 O 0.7514(6) 0.8399(6) 0.5177(7)
Zn4_3 Zn 0.43398(9) 0.74279(9) 0.76712(9)
C11_3 C 0.5118(9) 0.7056(10) 0.8352(9)
O7_3 O 0.6360(5) 0.5670(5) 0.9782(6)
O8_3 O 0.6071(5) 0.5051(6) 0.9343(5)
O9_3 O 0.5436(5) 0.5304(5) 0.8573(4)
O10_3 O 0.4750(6) 0.6924(5) 0.8032(6)
N4_3 N 0.6594(6) 0.4874(6) 0.8383(6)
N5_3 N 0.6836(7) 0.4556(6) 0.8092(6)
N6_3 N 0.7254(6) 0.4749(6) 0.7929(6)
C12_3 C 0.5520(7) 0.5789(8) 0.8743(8)
C13_3 C 0.5279(7) 0.6181(7) 0.8497(7)
H6_3 H 0.506510 0.610785 0.822822
C14_3 C 0.5828(8) 0.5876(8) 0.9134(8)
C15_3 C 0.5343(8) 0.6651(8) 0.8630(8)
C16_3 C 0.6064(9) 0.5511(10) 0.9403(9)
C17_3 C 0.6873(8) 0.5274(9) 0.8430(8)
H7_3 H 0.678989 0.555444 0.862517
C18_3 C 0.7296(9) 0.5226(8) 0.8159(8)
H8_3 H 0.755926 0.545747 0.812921
C19_3 C 0.5641(8) 0.6757(8) 0.9014(8)
H9_3 H 0.569276 0.709205 0.910625
C20_3 C 0.5870(8) 0.6392(8) 0.9270(8)
H10_3 H 0.606457 0.647805 0.954988
O11_3 O 0.5177(7) 0.7514(6) 0.8399(6)
Zn6_3 Zn 0.76712(9) 0.43398(9) 0.74279(9)
C21_3 C 0.8352(9) 0.5118(9) 0.7056(10)
O12_3 O 0.9782(6) 0.6360(5) 0.5670(5)
O13_3 O 0.9343(5) 0.6071(5) 0.5051(6)
O14_3 O 0.8573(4) 0.5436(5) 0.5304(5)
O15_3 O 0.8032(6) 0.4750(6) 0.6924(5)
N7_3 N 0.8383(6) 0.6594(6) 0.4874(6)
N8_3 N 0.8092(6) 0.6836(7) 0.4556(6)
N9_3 N 0.7929(6) 0.7254(6) 0.4749(6)
C22_3 C 0.8743(8) 0.5520(7) 0.5789(8)
C23_3 C 0.8497(7) 0.5279(7) 0.6181(7)
H11_3 H 0.822822 0.506510 0.610785
C24_3 C 0.9134(8) 0.5828(8) 0.5876(8)
C25_3 C 0.8630(8) 0.5343(8) 0.6651(8)
C26_3 C 0.9403(9) 0.6064(9) 0.5511(10)
C27_3 C 0.8430(8) 0.6873(8) 0.5274(9)
H12_3 H 0.862517 0.678989 0.555444
C28_3 C 0.8159(8) 0.7296(9) 0.5226(8)
H13_3 H 0.812921 0.755926 0.545747
C29_3 C 0.9014(8) 0.5641(8) 0.6757(8)
H14_3 H 0.910625 0.569276 0.709205
C30_3 C 0.9270(8) 0.5870(8) 0.6392(8)
H15_3 H 0.954988 0.606457 0.647805
O16_3 O 0.8399(6) 0.5177(7) 0.7514(6)
Zn9_3 Zn 0.38186(9) 0.78166(9) 0.66092(9)
Zn10_3 Zn 0.78166(9) 0.66092(9) 0.38186(9)
Zn11_3 Zn 0.66092(9) 0.38186(9) 0.78166(9)
Zn17_2 Zn 0.81602(9) 0.48288(9) 0.50721(9)
O19_3 O 0.7718(6) 0.8170(5) 0.3860(5)
O20_3 O 0.8170(5) 0.3860(5) 0.7718(6)
O21_3 O 0.3860(5) 0.7718(6) 0.8170(5)
O22_3 O 0.3927(4) 0.7196(5) 0.7064(5)
O23_3 O 0.7196(5) 0.7064(5) 0.3927(4)
O24_3 O 0.7064(5) 0.3927(4) 0.7196(5)
N10_3 N 0.4408(6) 0.7944(6) 0.5664(7)
N11_3 N 0.7944(6) 0.5664(7) 0.4408(6)
N12_3 N 0.5664(7) 0.4408(6) 0.7944(6)
Zn1_4 Zn 0.03166(9) 0.13186(9) 0.08908(9)
N1_4 N 0.0126(6) 0.1617(6) 0.1594(6)
N2_4 N 0.0444(6) 0.1908(6) 0.1836(7)
N3_4 N 0.0251(6) 0.2071(6) 0.2254(6)
Zn4_4 Zn 0.06602(9) 0.25721(9) 0.26712(9)
O10_4 O 0.0250(6) 0.3076(5) 0.3032(6)
Zn9_4 Zn 0.11814(9) 0.21834(9) 0.16092(9)
O21_4 O 0.1140(5) 0.2282(6) 0.3170(5)
O22_4 O 0.1073(4) 0.2804(5) 0.2064(5)
N10_4 N 0.0592(6) 0.2056(6) 0.0664(7)
C1_4 C 0.7944(10) 0.1648(9) 0.0118(9)
O2_4 O 0.9330(5) 0.0218(6) 0.1360(5)
O3_4 O 0.9949(6) 0.0657(5) 0.1071(5)
O4_4 O 0.9696(5) 0.1427(4) 0.0436(5)
C2_4 C 0.9211(8) 0.1257(8) 0.0520(7)
C3_4 C 0.8819(7) 0.1503(7) 0.0279(7)
H1_4 H 0.889215 0.177178 0.006510
C4_4 C 0.9124(8) 0.0866(8) 0.0828(8)
C5_4 C 0.8349(8) 0.1370(8) 0.0343(8)
C6_4 C 0.9489(10) 0.0597(9) 0.1064(9)
C7_4 C 0.9726(9) 0.1570(8) 0.1873(8)
H2_4 H 0.944556 0.137483 0.178989
C8_4 C 0.9774(8) 0.1841(8) 0.2296(9)
H3_4 H 0.954253 0.187079 0.255926
C9_4 C 0.8243(8) 0.0986(8) 0.0641(8)
H4_4 H 0.790795 0.089375 0.069276
C10_4 C 0.8608(8) 0.0730(8) 0.0870(8)
H5_4 H 0.852195 0.045012 0.106457
O6_4 O 0.7486(6) 0.1601(6) 0.0177(7)
C11_4 C 0.9882(9) 0.2944(10) 0.3352(9)
O7_4 O 0.8640(5) 0.4330(5) 0.4782(6)
O8_4 O 0.8929(5) 0.4949(6) 0.4343(5)
O9_4 O 0.9564(5) 0.4696(5) 0.3573(4)
N4_4 N 0.8406(6) 0.5126(6) 0.3383(6)
N5_4 N 0.8164(7) 0.5444(6) 0.3092(6)
N6_4 N 0.7746(6) 0.5251(6) 0.2929(6)
C12_4 C 0.9480(7) 0.4211(8) 0.3743(8)
C13_4 C 0.9721(7) 0.3819(7) 0.3497(7)
H6_4 H 0.993490 0.389215 0.322822
C14_4 C 0.9172(8) 0.4124(8) 0.4134(8)
C15_4 C 0.9657(8) 0.3349(8) 0.3630(8)
C16_4 C 0.8936(9) 0.4489(10) 0.4403(9)
C17_4 C 0.8127(8) 0.4726(9) 0.3430(8)
H7_4 H 0.821011 0.444556 0.362517
C18_4 C 0.7704(9) 0.4774(8) 0.3159(8)
H8_4 H 0.744074 0.454253 0.312921
C19_4 C 0.9359(8) 0.3243(8) 0.4014(8)
H9_4 H 0.930724 0.290795 0.410625
C20_4 C 0.9130(8) 0.3608(8) 0.4270(8)
H10_4 H 0.893543 0.352195 0.454988
O11_4 O 0.9823(7) 0.2486(6) 0.3399(6)
Zn6_4 Zn 0.73288(9) 0.56602(9) 0.24279(9)
C21_4 C 0.6648(9) 0.4882(9) 0.2056(10)
O12_4 O 0.5218(6) 0.3640(5) 0.0670(5)
O13_4 O 0.5657(5) 0.3929(5) 0.0051(6)
O14_4 O 0.6427(4) 0.4564(5) 0.0304(5)
O15_4 O 0.6968(6) 0.5250(6) 0.1924(5)
C22_4 C 0.6257(8) 0.4480(7) 0.0789(8)
C23_4 C 0.6503(7) 0.4721(7) 0.1181(7)
H11_4 H 0.677178 0.493490 0.110785
C24_4 C 0.5866(8) 0.4172(8) 0.0876(8)
C25_4 C 0.6370(8) 0.4657(8) 0.1651(8)
C26_4 C 0.5597(9) 0.3936(9) 0.0511(10)
C27_4 C 0.6570(8) 0.3127(8) 0.0274(9)
H12_4 H 0.637483 0.321011 0.055444
C28_4 C 0.6841(8) 0.2704(9) 0.0226(8)
H13_4 H 0.687079 0.244074 0.045747
C29_4 C 0.5986(8) 0.4359(8) 0.1757(8)
H14_4 H 0.589375 0.430724 0.209205
C30_4 C 0.5730(8) 0.4130(8) 0.1392(8)
H15_4 H 0.545012 0.393543 0.147805
O16_4 O 0.6601(6) 0.4823(7) 0.2514(6)
Zn11_4 Zn 0.83908(9) 0.61814(9) 0.28166(9)
O20_4 O 0.6830(5) 0.6140(5) 0.2718(6)
O24_4 O 0.7936(5) 0.6073(4) 0.2196(5)
N12_4 N 0.9336(7) 0.5592(6) 0.2944(6)
Zn2_4 Zn 0.75721(9) 0.23288(9) 0.93398(9)
O5_4 O 0.8076(5) 0.1968(6) 0.9750(6)
N7_4 N 0.6617(6) 0.3406(6) 0.9874(6)
N8_4 N 0.6908(6) 0.3164(7) 0.9556(6)
N9_4 N 0.7071(6) 0.2746(6) 0.9749(6)
Zn10_4 Zn 0.71834(9) 0.33908(9) 0.88186(9)
O19_4 O 0.7282(6) 0.1830(5) 0.8860(5)
O23_4 O 0.7804(5) 0.2936(5) 0.8927(4)
N11_4 N 0.7056(6) 0.4336(7) 0.9408(6)
H3_5 H 0.562921 0.204253 0.005926
C11_5 C 0.4556(10) 0.2382(9) 0.0852(9)
O8_5 O 0.2551(6) 0.1429(5) 0.1843(5)
O10_5 O 0.4424(5) 0.2750(6) 0.0532(6)
N4_5 N 0.2374(6) 0.0906(6) 0.0883(6)
N6_5 N 0.2249(6) 0.0246(6) 0.0429(6)
C12_5 C 0.3289(8) 0.1980(7) 0.1243(8)
C13_5 C 0.3681(7) 0.2221(7) 0.0997(7)
H6_5 H 0.360785 0.243490 0.072822
C14_5 C 0.3376(8) 0.1672(8) 0.1634(8)
C15_5 C 0.4151(8) 0.2157(8) 0.1130(8)
C16_5 C 0.3011(10) 0.1436(9) 0.1903(9)
C17_5 C 0.2774(9) 0.0627(8) 0.0930(8)
H7_5 H 0.305444 0.071011 0.112517
C18_5 C 0.2726(8) 0.0204(9) 0.0659(8)
C19_5 C 0.4257(8) 0.1859(8) 0.1514(8)
H9_5 H 0.459205 0.180724 0.160625
C20_5 C 0.3892(8) 0.1630(8) 0.1770(8)
H10_5 H 0.397805 0.143543 0.204988
O11_5 O 0.5014(6) 0.2323(7) 0.0899(6)
O17_2 O 0.1523(4) 0.1523(4) 0.1523(4)
O1_3 O 0.6523(4) 0.3477(4) 0.8477(4)
C1_5 C 0.5852(9) 0.0444(10) 0.7618(9)
O3_5 O 0.6843(5) 0.2449(6) 0.8571(5)
O5_5 O 0.5532(6) 0.0576(5) 0.7250(6)
N1_5 N 0.5883(6) 0.2626(6) 0.9094(6)
N3_5 N 0.5429(6) 0.2751(6) 0.9754(6)
C2_5 C 0.6243(8) 0.1711(8) 0.8020(7)
C3_5 C 0.5997(7) 0.1319(7) 0.7779(7)
H1_5 H 0.572822 0.139215 0.756510
C4_5 C 0.6634(8) 0.1624(8) 0.8328(8)
C5_5 C 0.6130(8) 0.0849(8) 0.7843(8)
C6_5 C 0.6903(9) 0.1989(10) 0.8564(9)
C7_5 C 0.5930(8) 0.2226(9) 0.9373(8)
H2_5 H 0.612517 0.194556 0.928989
C8_5 C 0.5659(8) 0.2274(8) 0.9796(9)
C9_5 C 0.6514(8) 0.0743(8) 0.8141(8)
H4_5 H 0.660625 0.040795 0.819276
C10_5 C 0.6770(8) 0.1108(8) 0.8370(8)
H5_5 H 0.704988 0.102195 0.856457
H8_5 H 0.295747 0.994074 0.062921
O16_5 O 0.2677(7) 0.9101(6) 0.0014(6)
O6_5 O 0.5899(6) 0.9986(6) 0.7677(7)
C21_5 C 0.2618(9) 0.9148(9) 0.9556(10)
O13_5 O 0.3571(5) 0.8157(5) 0.7551(6)
O15_5 O 0.2250(6) 0.9468(6) 0.9424(5)
N7_5 N 0.4094(6) 0.9117(6) 0.7374(6)
N9_5 N 0.4754(6) 0.9571(6) 0.7249(6)
C22_5 C 0.3020(7) 0.8757(8) 0.8289(8)
C23_5 C 0.2779(7) 0.9003(7) 0.8681(7)
H11_5 H 0.256510 0.927178 0.860785
C24_5 C 0.3328(8) 0.8366(8) 0.8376(8)
C25_5 C 0.2843(8) 0.8870(8) 0.9151(8)
C26_5 C 0.3564(9) 0.8097(9) 0.8011(10)
C27_5 C 0.4373(8) 0.9070(8) 0.7774(9)
H12_5 H 0.428989 0.887483 0.805444
C28_5 C 0.4796(9) 0.9341(8) 0.7726(8)
H13_5 H 0.505926 0.937079 0.795747
C29_5 C 0.3141(8) 0.8486(8) 0.9257(8)
H14_5 H 0.319276 0.839375 0.959205
C30_5 C 0.3370(8) 0.8230(8) 0.8892(8)
H15_5 H 0.356457 0.795012 0.897805
O18_2 O 0.3477(4) 0.8477(4) 0.6523(4)
H8_6 H 0.204253 0.005926 0.562921
C21_6 C 0.2382(9) 0.0852(9) 0.4556(10)
O13_6 O 0.1429(5) 0.1843(5) 0.2551(6)
O15_6 O 0.2750(6) 0.0532(6) 0.4424(5)
N7_6 N 0.0906(6) 0.0883(6) 0.2374(6)
N9_6 N 0.0246(6) 0.0429(6) 0.2249(6)
C22_6 C 0.1980(7) 0.1243(8) 0.3289(8)
C23_6 C 0.2221(7) 0.0997(7) 0.3681(7)
H11_6 H 0.243490 0.072822 0.360785
C24_6 C 0.1672(8) 0.1634(8) 0.3376(8)
C25_6 C 0.2157(8) 0.1130(8) 0.4151(8)
C26_6 C 0.1436(9) 0.1903(9) 0.3011(10)
C27_6 C 0.0627(8) 0.0930(8) 0.2774(9)
H12_6 H 0.071011 0.112517 0.305444
C28_6 C 0.0204(9) 0.0659(8) 0.2726(8)
C29_6 C 0.1859(8) 0.1514(8) 0.4257(8)
H14_6 H 0.180724 0.160625 0.459205
C30_6 C 0.1630(8) 0.1770(8) 0.3892(8)
H15_6 H 0.143543 0.204988 0.397805
O16_6 O 0.2323(7) 0.0899(6) 0.5014(6)
C11_6 C 0.0444(10) 0.7618(9) 0.5852(9)
O8_6 O 0.2449(6) 0.8571(5) 0.6843(5)
O10_6 O 0.0576(5) 0.7250(6) 0.5532(6)
N4_6 N 0.2626(6) 0.9094(6) 0.5883(6)
N6_6 N 0.2751(6) 0.9754(6) 0.5429(6)
C12_6 C 0.1711(8) 0.8020(7) 0.6243(8)
C13_6 C 0.1319(7) 0.7779(7) 0.5997(7)
H6_6 H 0.139215 0.756510 0.572822
C14_6 C 0.1624(8) 0.8328(8) 0.6634(8)
C15_6 C 0.0849(8) 0.7843(8) 0.6130(8)
C16_6 C 0.1989(10) 0.8564(9) 0.6903(9)
C17_6 C 0.2226(9) 0.9373(8) 0.5930(8)
H7_6 H 0.194556 0.928989 0.612517
C18_6 C 0.2274(8) 0.9796(9) 0.5659(8)
C19_6 C 0.0743(8) 0.8141(8) 0.6514(8)
H9_6 H 0.040795 0.819276 0.660625
C20_6 C 0.1108(8) 0.8370(8) 0.6770(8)
H10_6 H 0.102195 0.856457 0.704988
O6_6 O 0.9101(6) 0.0014(6) 0.2677(7)
H13_6 H 0.994074 0.062921 0.295747
O1_4 O 0.8477(4) 0.6523(4) 0.3477(4)
C1_6 C 0.9148(9) 0.9556(10) 0.2618(9)
O3_6 O 0.8157(5) 0.7551(6) 0.3571(5)
O5_6 O 0.9468(6) 0.9424(5) 0.2250(6)
N1_6 N 0.9117(6) 0.7374(6) 0.4094(6)
N3_6 N 0.9571(6) 0.7249(6) 0.4754(6)
C2_6 C 0.8757(8) 0.8289(8) 0.3020(7)
C3_6 C 0.9003(7) 0.8681(7) 0.2779(7)
H1_6 H 0.927178 0.860785 0.256510
C4_6 C 0.8366(8) 0.8376(8) 0.3328(8)
C5_6 C 0.8870(8) 0.9151(8) 0.2843(8)
C6_6 C 0.8097(9) 0.8011(10) 0.3564(9)
C7_6 C 0.9070(8) 0.7774(9) 0.4373(8)
H2_6 H 0.887483 0.805444 0.428989
C8_6 C 0.9341(8) 0.7726(8) 0.4796(9)
H3_6 H 0.937079 0.795747 0.505926
C9_6 C 0.8486(8) 0.9257(8) 0.3141(8)
H4_6 H 0.839375 0.959205 0.319276
C10_6 C 0.8230(8) 0.8892(8) 0.3370(8)
H5_6 H 0.795012 0.897805 0.356457
O11_6 O 0.9986(6) 0.7677(7) 0.5899(6)
C1_7 C 0.0852(9) 0.4556(10) 0.2382(9)
O3_7 O 0.1843(5) 0.2551(6) 0.1429(5)
O5_7 O 0.0532(6) 0.4424(5) 0.2750(6)
N1_7 N 0.0883(6) 0.2374(6) 0.0906(6)
N3_7 N 0.0429(6) 0.2249(6) 0.0246(6)
C2_7 C 0.1243(8) 0.3289(8) 0.1980(7)
C3_7 C 0.0997(7) 0.3681(7) 0.2221(7)
H1_7 H 0.072822 0.360785 0.243490
C4_7 C 0.1634(8) 0.3376(8) 0.1672(8)
C5_7 C 0.1130(8) 0.4151(8) 0.2157(8)
C6_7 C 0.1903(9) 0.3011(10) 0.1436(9)
C7_7 C 0.0930(8) 0.2774(9) 0.0627(8)
H2_7 H 0.112517 0.305444 0.071011
C8_7 C 0.0659(8) 0.2726(8) 0.0204(9)
C9_7 C 0.1514(8) 0.4257(8) 0.1859(8)
H4_7 H 0.160625 0.459205 0.180724
C10_7 C 0.1770(8) 0.3892(8) 0.1630(8)
H5_7 H 0.204988 0.397805 0.143543
O6_7 O 0.0899(6) 0.5014(6) 0.2323(7)
H13_7 H 0.005926 0.562921 0.204253
H3_7 H 0.062921 0.295747 0.994074
O11_7 O 0.0014(6) 0.2677(7) 0.9101(6)
C21_7 C 0.7618(9) 0.5852(9) 0.0444(10)
O13_7 O 0.8571(5) 0.6843(5) 0.2449(6)
O15_7 O 0.7250(6) 0.5532(6) 0.0576(5)
N7_7 N 0.9094(6) 0.5883(6) 0.2626(6)
N9_7 N 0.9754(6) 0.5429(6) 0.2751(6)
C22_7 C 0.8020(7) 0.6243(8) 0.1711(8)
C23_7 C 0.7779(7) 0.5997(7) 0.1319(7)
H11_7 H 0.756510 0.572822 0.139215
C24_7 C 0.8328(8) 0.6634(8) 0.1624(8)
C25_7 C 0.7843(8) 0.6130(8) 0.0849(8)
C26_7 C 0.8564(9) 0.6903(9) 0.1989(10)
C27_7 C 0.9373(8) 0.5930(8) 0.2226(9)
H12_7 H 0.928989 0.612517 0.194556
C28_7 C 0.9796(9) 0.5659(8) 0.2274(8)
C29_7 C 0.8141(8) 0.6514(8) 0.0743(8)
H14_7 H 0.819276 0.660625 0.040795
C30_7 C 0.8370(8) 0.6770(8) 0.1108(8)
H15_7 H 0.856457 0.704988 0.102195
C11_7 C 0.9556(10) 0.2618(9) 0.9148(9)
O8_7 O 0.7551(6) 0.3571(5) 0.8157(5)
O10_7 O 0.9424(5) 0.2250(6) 0.9468(6)
N4_7 N 0.7374(6) 0.4094(6) 0.9117(6)
N6_7 N 0.7249(6) 0.4754(6) 0.9571(6)
C12_7 C 0.8289(8) 0.3020(7) 0.8757(8)
C13_7 C 0.8681(7) 0.2779(7) 0.9003(7)
H6_7 H 0.860785 0.256510 0.927178
C14_7 C 0.8376(8) 0.3328(8) 0.8366(8)
C15_7 C 0.9151(8) 0.2843(8) 0.8870(8)
C16_7 C 0.8011(10) 0.3564(9) 0.8097(9)
C17_7 C 0.7774(9) 0.4373(8) 0.9070(8)
H7_7 H 0.805444 0.428989 0.887483
C18_7 C 0.7726(8) 0.4796(9) 0.9341(8)
H8_7 H 0.795747 0.505926 0.937079
C19_7 C 0.9257(8) 0.3141(8) 0.8486(8)
H9_7 H 0.959205 0.319276 0.839375
C20_7 C 0.8892(8) 0.3370(8) 0.8230(8)
H10_7 H 0.897805 0.356457 0.795012
O16_7 O 0.7677(7) 0.5899(6) 0.9986(6)
C1_8 C 0.4148(9) 0.5444(10) 0.7382(9)
O3_8 O 0.3157(5) 0.7449(6) 0.6429(5)
O5_8 O 0.4468(6) 0.5576(5) 0.7750(6)
N1_8 N 0.4117(6) 0.7626(6) 0.5906(6)
N3_8 N 0.4571(6) 0.7751(6) 0.5246(6)
C2_8 C 0.3757(8) 0.6711(8) 0.6980(7)
C3_8 C 0.4003(7) 0.6319(7) 0.7221(7)
H1_8 H 0.427178 0.639215 0.743490
C4_8 C 0.3366(8) 0.6624(8) 0.6672(8)
C5_8 C 0.3870(8) 0.5849(8) 0.7157(8)
C6_8 C 0.3097(9) 0.6989(10) 0.6436(9)
C7_8 C 0.4070(8) 0.7226(9) 0.5627(8)
H2_8 H 0.387483 0.694556 0.571011
C8_8 C 0.4341(8) 0.7274(8) 0.5204(9)
H3_8 H 0.437079 0.704253 0.494074
C9_8 C 0.3486(8) 0.5743(8) 0.6859(8)
H4_8 H 0.339375 0.540795 0.680724
C10_8 C 0.3230(8) 0.6108(8) 0.6630(8)
H5_8 H 0.295012 0.602195 0.643543
O6_8 O 0.4101(6) 0.4986(6) 0.7323(7)
C11_8 C 0.5444(10) 0.7382(9) 0.4148(9)
O8_8 O 0.7449(6) 0.6429(5) 0.3157(5)
O10_8 O 0.5576(5) 0.7750(6) 0.4468(6)
N4_8 N 0.7626(6) 0.5906(6) 0.4117(6)
N6_8 N 0.7751(6) 0.5246(6) 0.4571(6)
C12_8 C 0.6711(8) 0.6980(7) 0.3757(8)
C13_8 C 0.6319(7) 0.7221(7) 0.4003(7)
H6_8 H 0.639215 0.743490 0.427178
C14_8 C 0.6624(8) 0.6672(8) 0.3366(8)
C15_8 C 0.5849(8) 0.7157(8) 0.3870(8)
C16_8 C 0.6989(10) 0.6436(9) 0.3097(9)
C17_8 C 0.7226(9) 0.5627(8) 0.4070(8)
H7_8 H 0.694556 0.571011 0.387483
C18_8 C 0.7274(8) 0.5204(9) 0.4341(8)
H8_8 H 0.704253 0.494074 0.437079
C19_8 C 0.5743(8) 0.6859(8) 0.3486(8)
H9_8 H 0.540795 0.680724 0.339375
C20_8 C 0.6108(8) 0.6630(8) 0.3230(8)
H10_8 H 0.602195 0.643543 0.295012
O11_8 O 0.4986(6) 0.7323(7) 0.4101(6)
C21_8 C 0.7382(9) 0.4148(9) 0.5444(10)
O13_8 O 0.6429(5) 0.3157(5) 0.7449(6)
O15_8 O 0.7750(6) 0.4468(6) 0.5576(5)
N7_8 N 0.5906(6) 0.4117(6) 0.7626(6)
N9_8 N 0.5246(6) 0.4571(6) 0.7751(6)
C22_8 C 0.6980(7) 0.3757(8) 0.6711(8)
C23_8 C 0.7221(7) 0.4003(7) 0.6319(7)
H11_8 H 0.743490 0.427178 0.639215
C24_8 C 0.6672(8) 0.3366(8) 0.6624(8)
C25_8 C 0.7157(8) 0.3870(8) 0.5849(8)
C26_8 C 0.6436(9) 0.3097(9) 0.6989(10)
C27_8 C 0.5627(8) 0.4070(8) 0.7226(9)
H12_8 H 0.571011 0.387483 0.694556
C28_8 C 0.5204(9) 0.4341(8) 0.7274(8)
H13_8 H 0.494074 0.437079 0.704253
C29_8 C 0.6859(8) 0.3486(8) 0.5743(8)
H14_8 H 0.680724 0.339375 0.540795
C30_8 C 0.6630(8) 0.3230(8) 0.6108(8)
H15_8 H 0.643543 0.295012 0.602195
O16_8 O 0.7323(7) 0.4101(6) 0.4986(6)
loop_
_geom_bond_atom_site_label_1
_geom_bond_atom_site_label_2
_geom_bond_site_symmetry_1
_geom_bond_site_symmetry_2
Zn2 O5 1_555 1_555
N7 Zn5 1_555 1_555
N8 N7 1_555 1_555
N9 Zn2 1_555 1_555
Zn10 N8 1_555 1_555
O18 Zn5 1_555 1_555
O19 Zn2 1_555 1_555
O23 Zn2 1_555 1_555
N11 Zn5 1_555 1_555
N8 N9 1_555 1_555
Zn10 O23 1_555 1_555
Zn1 O1 1_555 1_555
O1 Zn7 1_555 1_555
O2 C6 1_555 1_555
O3 Zn1 1_555 1_555
O4 Zn1 1_555 1_555
N1 Zn1 1_555 1_555
N2 N1 1_555 1_555
N3 N2 1_555 1_555
C2 O4 1_555 1_555
C3 C2 1_555 1_555
H1 C3 1_555 1_555
C4 C2 1_555 1_555
C5 C1 1_555 1_555
C6 O3 1_555 1_555
C7 N1 1_555 1_555
H2 C7 1_555 1_555
C8 N3 1_555 1_555
H3 C8 1_555 1_555
C9 C5 1_555 1_555
H4 C9 1_555 1_555
C10 C4 1_555 1_555
H5 C10 1_555 1_555
O6 C1 1_555 1_555
Zn4 N3 1_555 1_555
C11 O10 1_555 1_555
O7 C16 1_555 1_555
O8 C16 1_555 1_555
O10 Zn4 1_555 1_555
C12 O9 1_555 1_555
C13 C12 1_555 1_555
H6 C13 1_555 1_555
C14 C12 1_555 1_555
C15 C11 1_555 1_555
C16 C14 1_555 1_555
H7 C17 1_555 1_555
H8 C18 1_555 1_555
C19 C15 1_555 1_555
H9 C19 1_555 1_555
C20 C14 1_555 1_555
H10 C20 1_555 1_555
O11 C11 1_555 1_555
O12 C26 1_555 1_555
O13 C26 1_555 1_555
C22 O14 1_555 1_555
C23 C22 1_555 1_555
H11 C23 1_555 1_555
C24 C22 1_555 1_555
C25 C21 1_555 1_555
C26 C24 1_555 1_555
H12 C27 1_555 1_555
H13 C28 1_555 1_555
C29 C25 1_555 1_555
H14 C29 1_555 1_555
C30 C24 1_555 1_555
H15 C30 1_555 1_555
O16 C21 1_555 1_555
Zn8 O1 1_555 1_555
Zn9 N2 1_555 1_555
Zn12 O9 1_555 1_555
Zn13 O2 1_555 1_555
Zn16 O7 1_555 1_555
O21 Zn4 1_555 1_555
O22 Zn4 1_555 1_555
N10 Zn1 1_555 1_555
C3 C5 1_555 1_555
C4 C6 1_555 1_555
C7 C8 1_555 1_555
C9 C10 1_555 1_555
C13 C15 1_555 1_555
C17 C18 1_555 1_555
C19 C20 1_555 1_555
C23 C25 1_555 1_555
C27 C28 1_555 1_555
C29 C30 1_555 1_555
Zn9 O22 1_555 1_555
N4 Zn3 1_555 1_555
N5 N4 1_555 1_555
N6 N5 1_555 1_555
Zn6 N6 1_555 1_555
O15 Zn6 1_555 1_555
Zn11 N5 1_555 1_555
O17 Zn3 1_555 1_555
O20 Zn6 1_555 1_555
O24 Zn6 1_555 1_555
N12 Zn3 1_555 1_555
Zn11 O24 1_555 1_555
N4_2 Zn3_2 1_555 1_555
N5_2 N4_2 1_555 1_555
N6_2 N5_2 1_555 1_555
Zn6_2 N6_2 1_555 1_555
O15_2 Zn6_2 1_555 1_555
Zn11_2 N5_2 1_555 1_555
O18 Zn3_2 1_555 1_555
O20_2 Zn6_2 1_555 1_555
O24_2 Zn6_2 1_555 1_555
N12_2 Zn3_2 1_555 1_555
Zn11_2 O24_2 1_555 1_555
Zn2_2 O5_2 1_555 1_555
C1_2 O5_2 1_555 1_555
O2_2 C6_2 1_555 1_555
C2_2 O4_2 1_555 1_555
C3_2 C2_2 1_555 1_555
H1_2 C3_2 1_555 1_555
C4_2 C2_2 1_555 1_555
C5_2 C1_2 1_555 1_555
C6_2 O3_2 1_555 1_555
H2_2 C7_2 1_555 1_555
H3_2 C8_2 1_555 1_555
C9_2 C5_2 1_555 1_555
H4_2 C9_2 1_555 1_555
C10_2 C4_2 1_555 1_555
H5_2 C10_2 1_555 1_555
O6_2 C1_2 1_555 1_555
O7_2 C16_2 1_555 1_555
O8_2 C16_2 1_555 1_555
C12_2 O9_2 1_555 1_555
C13_2 C12_2 1_555 1_555
H6_2 C13_2 1_555 1_555
C14_2 C12_2 1_555 1_555
C15_2 C11_2 1_555 1_555
C16_2 C14_2 1_555 1_555
H7_2 C17_2 1_555 1_555
H8_2 C18_2 1_555 1_555
C19_2 C15_2 1_555 1_555
H9_2 C19_2 1_555 1_555
C20_2 C14_2 1_555 1_555
H10_2 C20_2 1_555 1_555
O11_2 C11_2 1_555 1_555
Zn5_2 O13_2 1_555 1_555
O12_2 C26_2 1_555 1_555
O13_2 C26_2 1_555 1_555
O14_2 Zn5_2 1_555 1_555
N7_2 Zn5_2 1_555 1_555
N8_2 N7_2 1_555 1_555
N9_2 Zn2_2 1_555 1_555
C22_2 O14_2 1_555 1_555
C23_2 C22_2 1_555 1_555
H11_2 C23_2 1_555 1_555
C24_2 C22_2 1_555 1_555
C25_2 C21_2 1_555 1_555
C26_2 C24_2 1_555 1_555
C27_2 N7_2 1_555 1_555
H12_2 C27_2 1_555 1_555
C28_2 N9_2 1_555 1_555
H13_2 C28_2 1_555 1_555
C29_2 C25_2 1_555 1_555
H14_2 C29_2 1_555 1_555
C30_2 C24_2 1_555 1_555
H15_2 C30_2 1_555 1_555
O16_2 C21_2 1_555 1_555
Zn10_2 N8_2 1_555 1_555
O17 Zn5_2 1_555 1_555
Zn13_2 O2_2 1_555 1_555
Zn14_2 O4_2 1_555 1_555
Zn15_2 O12_2 1_555 1_555
O19_2 Zn2_2 1_555 1_555
O23_2 Zn2_2 1_555 1_555
N11_2 Zn5_2 1_555 1_555
C3_2 C5_2 1_555 1_555
C4_2 C6_2 1_555 1_555
C7_2 C8_2 1_555 1_555
C9_2 C10_2 1_555 1_555
C13_2 C15_2 1_555 1_555
C17_2 C18_2 1_555 1_555
C19_2 C20_2 1_555 1_555
N8_2 N9_2 1_555 1_555
C23_2 C25_2 1_555 1_555
C27_2 C28_2 1_555 1_555
C29_2 C30_2 1_555 1_555
Zn10_2 O23_2 1_555 1_555
Zn1_2 O1_2 1_555 1_555
O1_2 Zn7_2 1_555 1_555
N1_2 Zn1_2 1_555 1_555
N2_2 N1_2 1_555 1_555
N3_2 N2_2 1_555 1_555
Zn4_2 N3_2 1_555 1_555
O10_2 Zn4_2 1_555 1_555
Zn8_2 O1_2 1_555 1_555
Zn9_2 N2_2 1_555 1_555
O21_2 Zn4_2 1_555 1_555
O22_2 Zn4_2 1_555 1_555
N10_2 Zn1_2 1_555 1_555
Zn9_2 O22_2 1_555 1_555
Zn1_3 O17 1_555 1_555
Zn2_3 O5_3 1_555 1_555
C1_3 O5_3 1_555 1_555
O2_3 C6_3 1_555 1_555
O3_3 Zn1_3 1_555 1_555
O4_3 Zn1_3 1_555 1_555
N1_3 Zn1_3 1_555 1_555
N2_3 N1_3 1_555 1_555
N3_3 N2_3 1_555 1_555
C2_3 O4_3 1_555 1_555
C3_3 C2_3 1_555 1_555
H1_3 C3_3 1_555 1_555
C4_3 C2_3 1_555 1_555
C5_3 C1_3 1_555 1_555
C6_3 O3_3 1_555 1_555
C7_3 N1_3 1_555 1_555
H2_3 C7_3 1_555 1_555
C8_3 N3_3 1_555 1_555
H3_3 C8_3 1_555 1_555
C9_3 C5_3 1_555 1_555
H4_3 C9_3 1_555 1_555
C10_3 C4_3 1_555 1_555
H5_3 C10_3 1_555 1_555
O6_3 C1_3 1_555 1_555
Zn7 O8_3 1_555 1_555
Zn4_3 N3_3 1_555 1_555
C11_3 O10_3 1_555 1_555
O7_3 C16_3 1_555 1_555
O8_3 C16_3 1_555 1_555
O9_3 Zn7 1_555 1_555
O10_3 Zn4_3 1_555 1_555
N4_3 Zn7 1_555 1_555
N5_3 N4_3 1_555 1_555
N6_3 N5_3 1_555 1_555
C12_3 O9_3 1_555 1_555
C13_3 C12_3 1_555 1_555
H6_3 C13_3 1_555 1_555
C14_3 C12_3 1_555 1_555
C15_3 C11_3 1_555 1_555
C16_3 C14_3 1_555 1_555
C17_3 N4_3 1_555 1_555
H7_3 C17_3 1_555 1_555
C18_3 N6_3 1_555 1_555
H8_3 C18_3 1_555 1_555
C19_3 C15_3 1_555 1_555
H9_3 C19_3 1_555 1_555
C20_3 C14_3 1_555 1_555
H10_3 C20_3 1_555 1_555
O11_3 C11_3 1_555 1_555
Zn8_2 O13_3 1_555 1_555
Zn6_3 N6_3 1_555 1_555
C21_3 O15_3 1_555 1_555
O12_3 C26_3 1_555 1_555
O13_3 C26_3 1_555 1_555
O14_3 Zn8_2 1_555 1_555
O15_3 Zn6_3 1_555 1_555
N7_3 Zn8_2 1_555 1_555
N8_3 N7_3 1_555 1_555
N9_3 Zn2_3 1_555 1_555
C22_3 O14_3 1_555 1_555
C23_3 C22_3 1_555 1_555
H11_3 C23_3 1_555 1_555
C24_3 C22_3 1_555 1_555
C25_3 C21_3 1_555 1_555
C26_3 C24_3 1_555 1_555
C27_3 N7_3 1_555 1_555
H12_3 C27_3 1_555 1_555
C28_3 N9_3 1_555 1_555
H13_3 C28_3 1_555 1_555
C29_3 C25_3 1_555 1_555
H14_3 C29_3 1_555 1_555
C30_3 C24_3 1_555 1_555
H15_3 C30_3 1_555 1_555
O16_3 C21_3 1_555 1_555
Zn9_3 N2_3 1_555 1_555
Zn10_3 N8_3 1_555 1_555
Zn11_3 N5_3 1_555 1_555
Zn13 O9_3 1_555 1_555
Zn15_2 O4_3 1_555 1_555
Zn17_2 O14_3 1_555 1_555
O19_3 Zn2_3 1_555 1_555
O20_3 Zn6_3 1_555 1_555
O21_3 Zn4_3 1_555 1_555
O22_3 Zn4_3 1_555 1_555
O23_3 Zn2_3 1_555 1_555
O24_3 Zn6_3 1_555 1_555
N10_3 Zn1_3 1_555 1_555
N11_3 Zn8_2 1_555 1_555
N12_3 Zn7 1_555 1_555
C3_3 C5_3 1_555 1_555
C4_3 C6_3 1_555 1_555
C7_3 C8_3 1_555 1_555
C9_3 C10_3 1_555 1_555
C13_3 C15_3 1_555 1_555
C17_3 C18_3 1_555 1_555
C19_3 C20_3 1_555 1_555
N8_3 N9_3 1_555 1_555
C23_3 C25_3 1_555 1_555
C27_3 C28_3 1_555 1_555
C29_3 C30_3 1_555 1_555
Zn9_3 O22_3 1_555 1_555
Zn10_3 O23_3 1_555 1_555
Zn11_3 O24_3 1_555 1_555
Zn1_4 O18 1_555 1_555
N1_4 Zn1_4 1_555 1_555
N2_4 N1_4 1_555 1_555
N3_4 N2_4 1_555 1_555
Zn4_4 N3_4 1_555 1_555
O10_4 Zn4_4 1_555 1_555
Zn9_4 N2_4 1_555 1_555
O21_4 Zn4_4 1_555 1_555
O22_4 Zn4_4 1_555 1_555
N10_4 Zn1_4 1_555 1_555
Zn9_4 O22_4 1_555 1_555
O2_4 C6_4 1_555 1_555
C2_4 O4_4 1_555 1_555
C3_4 C2_4 1_555 1_555
H1_4 C3_4 1_555 1_555
C4_4 C2_4 1_555 1_555
C5_4 C1_4 1_555 1_555
C6_4 O3_4 1_555 1_555
H2_4 C7_4 1_555 1_555
H3_4 C8_4 1_555 1_555
C9_4 C5_4 1_555 1_555
H4_4 C9_4 1_555 1_555
C10_4 C4_4 1_555 1_555
H5_4 C10_4 1_555 1_555
O6_4 C1_4 1_555 1_555
Zn7_2 O8_4 1_555 1_555
O7_4 C16_4 1_555 1_555
O8_4 C16_4 1_555 1_555
O9_4 Zn7_2 1_555 1_555
N4_4 Zn7_2 1_555 1_555
N5_4 N4_4 1_555 1_555
N6_4 N5_4 1_555 1_555
C12_4 O9_4 1_555 1_555
C13_4 C12_4 1_555 1_555
H6_4 C13_4 1_555 1_555
C14_4 C12_4 1_555 1_555
C15_4 C11_4 1_555 1_555
C16_4 C14_4 1_555 1_555
C17_4 N4_4 1_555 1_555
H7_4 C17_4 1_555 1_555
C18_4 N6_4 1_555 1_555
H8_4 C18_4 1_555 1_555
C19_4 C15_4 1_555 1_555
H9_4 C19_4 1_555 1_555
C20_4 C14_4 1_555 1_555
H10_4 C20_4 1_555 1_555
O11_4 C11_4 1_555 1_555
Zn6_4 N6_4 1_555 1_555
C21_4 O15_4 1_555 1_555
O12_4 C26_4 1_555 1_555
O13_4 C26_4 1_555 1_555
O15_4 Zn6_4 1_555 1_555
C22_4 O14_4 1_555 1_555
C23_4 C22_4 1_555 1_555
H11_4 C23_4 1_555 1_555
C24_4 C22_4 1_555 1_555
C25_4 C21_4 1_555 1_555
C26_4 C24_4 1_555 1_555
H12_4 C27_4 1_555 1_555
H13_4 C28_4 1_555 1_555
C29_4 C25_4 1_555 1_555
H14_4 C29_4 1_555 1_555
C30_4 C24_4 1_555 1_555
H15_4 C30_4 1_555 1_555
O16_4 C21_4 1_555 1_555
Zn11_4 N5_4 1_555 1_555
Zn14 O12_4 1_555 1_555
Zn17_2 O7_4 1_555 1_555
Zn16_2 O14_4 1_555 1_555
O20_4 Zn6_4 1_555 1_555
O24_4 Zn6_4 1_555 1_555
N12_4 Zn7_2 1_555 1_555
C3_4 C5_4 1_555 1_555
C4_4 C6_4 1_555 1_555
C7_4 C8_4 1_555 1_555
C9_4 C10_4 1_555 1_555
C13_4 C15_4 1_555 1_555
C17_4 C18_4 1_555 1_555
C19_4 C20_4 1_555 1_555
C23_4 C25_4 1_555 1_555
C27_4 C28_4 1_555 1_555
C29_4 C30_4 1_555 1_555
Zn11_4 O24_4 1_555 1_555
Zn2_4 O5_4 1_555 1_555
N7_4 Zn8 1_555 1_555
N8_4 N7_4 1_555 1_555
N9_4 Zn2_4 1_555 1_555
Zn10_4 N8_4 1_555 1_555
O19_4 Zn2_4 1_555 1_555
O23_4 Zn2_4 1_555 1_555
N11_4 Zn8 1_555 1_555
N8_4 N9_4 1_555 1_555
Zn10_4 O23_4 1_555 1_555
Zn10 O8_5 1_555 1_555
C11_5 O10_5 1_555 1_555
O20_2 C16_5 1_555 1_555
O8_5 C16_5 1_555 1_555
O10_5 Zn14 1_555 1_555
N4_5 Zn10 1_555 1_555
N11 N4_5 1_555 1_555
N6_5 N11 1_555 1_555
C12_5 O23 1_555 1_555
C13_5 C12_5 1_555 1_555
H6_5 C13_5 1_555 1_555
C14_5 C12_5 1_555 1_555
C15_5 C11_5 1_555 1_555
C16_5 C14_5 1_555 1_555
C17_5 N4_5 1_555 1_555
H7_5 C17_5 1_555 1_555
C18_5 N6_5 1_555 1_555
C19_5 C15_5 1_555 1_555
H9_5 C19_5 1_555 1_555
C20_5 C14_5 1_555 1_555
H10_5 C20_5 1_555 1_555
O11_5 C11_5 1_555 1_555
O17_2 Zn10 1_555 1_555
C13_5 C15_5 1_555 1_555
C17_5 C18_5 1_555 1_555
C19_5 C20_5 1_555 1_555
Zn9 O1_3 1_555 1_555
O1_3 Zn10_4 1_555 1_555
Zn12 O5_5 1_555 1_555
C1_5 O5_5 1_555 1_555
O19_4 C6_5 1_555 1_555
O3_5 Zn9 1_555 1_555
N1_5 Zn9 1_555 1_555
N10 N1_5 1_555 1_555
N3_5 N10 1_555 1_555
C2_5 O22 1_555 1_555
C3_5 C2_5 1_555 1_555
H1_5 C3_5 1_555 1_555
C4_5 C2_5 1_555 1_555
C5_5 C1_5 1_555 1_555
C6_5 O3_5 1_555 1_555
C7_5 N1_5 1_555 1_555
H2_5 C7_5 1_555 1_555
C8_5 N3_5 1_555 1_555
C9_5 C5_5 1_555 1_555
H4_5 C9_5 1_555 1_555
C10_5 C4_5 1_555 1_555
H5_5 C10_5 1_555 1_555
Zn11_3 O1_3 1_555 1_555
C3_5 C5_5 1_555 1_555
C4_5 C6_5 1_555 1_555
C7_5 C8_5 1_555 1_555
C9_5 C10_5 1_555 1_555
Zn11 O13_5 1_555 1_555
C21_5 O15_5 1_555 1_555
O21_3 C26_5 1_555 1_555
O13_5 C26_5 1_555 1_555
O15_5 Zn17 1_555 1_555
N7_5 Zn11 1_555 1_555
N12 N7_5 1_555 1_555
C22_5 O24 1_555 1_555
C23_5 C22_5 1_555 1_555
H11_5 C23_5 1_555 1_555
C24_5 C22_5 1_555 1_555
C25_5 C21_5 1_555 1_555
C26_5 C24_5 1_555 1_555
C27_5 N7_5 1_555 1_555
H12_5 C27_5 1_555 1_555
C28_5 N9_5 1_555 1_555
H13_5 C28_5 1_555 1_555
C29_5 C25_5 1_555 1_555
H14_5 C29_5 1_555 1_555
C30_5 C24_5 1_555 1_555
H15_5 C30_5 1_555 1_555
O18_2 Zn11 1_555 1_555
N12 N9_5 1_555 1_555
C23_5 C25_5 1_555 1_555
C27_5 C28_5 1_555 1_555
C29_5 C30_5 1_555 1_555
Zn11_2 O13_6 1_555 1_555
C21_6 O15_6 1_555 1_555
O21_4 C26_6 1_555 1_555
O13_6 C26_6 1_555 1_555
O15_6 Zn16 1_555 1_555
N7_6 Zn11_2 1_555 1_555
N12_2 N7_6 1_555 1_555
C22_6 O24_2 1_555 1_555
C23_6 C22_6 1_555 1_555
H11_6 C23_6 1_555 1_555
C24_6 C22_6 1_555 1_555
C25_6 C21_6 1_555 1_555
C26_6 C24_6 1_555 1_555
C27_6 N7_6 1_555 1_555
H12_6 C27_6 1_555 1_555
C28_6 N9_6 1_555 1_555
C29_6 C25_6 1_555 1_555
H14_6 C29_6 1_555 1_555
C30_6 C24_6 1_555 1_555
H15_6 C30_6 1_555 1_555
O16_6 C21_6 1_555 1_555
O17_2 Zn11_2 1_555 1_555
N12_2 N9_6 1_555 1_555
C23_6 C25_6 1_555 1_555
C27_6 C28_6 1_555 1_555
C29_6 C30_6 1_555 1_555
Zn10_2 O8_6 1_555 1_555
C11_6 O10_6 1_555 1_555
O20 C16_6 1_555 1_555
O8_6 C16_6 1_555 1_555
O10_6 Zn14_2 1_555 1_555
N4_6 Zn10_2 1_555 1_555
N11_2 N4_6 1_555 1_555
N6_6 N11_2 1_555 1_555
C12_6 O23_2 1_555 1_555
C13_6 C12_6 1_555 1_555
H6_6 C13_6 1_555 1_555
C14_6 C12_6 1_555 1_555
C15_6 C11_6 1_555 1_555
C16_6 C14_6 1_555 1_555
C17_6 N4_6 1_555 1_555
H7_6 C17_6 1_555 1_555
C18_6 N6_6 1_555 1_555
C19_6 C15_6 1_555 1_555
H9_6 C19_6 1_555 1_555
C20_6 C14_6 1_555 1_555
H10_6 C20_6 1_555 1_555
O18_2 Zn10_2 1_555 1_555
C13_6 C15_6 1_555 1_555
C17_6 C18_6 1_555 1_555
C19_6 C20_6 1_555 1_555
Zn9_2 O1_4 1_555 1_555
O1_4 Zn10_3 1_555 1_555
Zn12_2 O5_6 1_555 1_555
C1_6 O5_6 1_555 1_555
O19_3 C6_6 1_555 1_555
O3_6 Zn9_2 1_555 1_555
N1_6 Zn9_2 1_555 1_555
N10_2 N1_6 1_555 1_555
N3_6 N10_2 1_555 1_555
C2_6 O22_2 1_555 1_555
C3_6 C2_6 1_555 1_555
H1_6 C3_6 1_555 1_555
C4_6 C2_6 1_555 1_555
C5_6 C1_6 1_555 1_555
C6_6 O3_6 1_555 1_555
C7_6 N1_6 1_555 1_555
H2_6 C7_6 1_555 1_555
C8_6 N3_6 1_555 1_555
H3_6 C8_6 1_555 1_555
C9_6 C5_6 1_555 1_555
H4_6 C9_6 1_555 1_555
C10_6 C4_6 1_555 1_555
H5_6 C10_6 1_555 1_555
Zn11_4 O1_4 1_555 1_555
C3_6 C5_6 1_555 1_555
C4_6 C6_6 1_555 1_555
C7_6 C8_6 1_555 1_555
C9_6 C10_6 1_555 1_555
Zn9_4 O17_2 1_555 1_555
Zn13_2 O5_7 1_555 1_555
C1_7 O5_7 1_555 1_555
O19 C6_7 1_555 1_555
O3_7 Zn9_4 1_555 1_555
N1_7 Zn9_4 1_555 1_555
N10_4 N1_7 1_555 1_555
N3_7 N10_4 1_555 1_555
C2_7 O22_4 1_555 1_555
C3_7 C2_7 1_555 1_555
H1_7 C3_7 1_555 1_555
C4_7 C2_7 1_555 1_555
C5_7 C1_7 1_555 1_555
C6_7 O3_7 1_555 1_555
C7_7 N1_7 1_555 1_555
H2_7 C7_7 1_555 1_555
C8_7 N3_7 1_555 1_555
C9_7 C5_7 1_555 1_555
H4_7 C9_7 1_555 1_555
C10_7 C4_7 1_555 1_555
H5_7 C10_7 1_555 1_555
O6_7 C1_7 1_555 1_555
C3_7 C5_7 1_555 1_555
C4_7 C6_7 1_555 1_555
C7_7 C8_7 1_555 1_555
C9_7 C10_7 1_555 1_555
Zn11_4 O13_7 1_555 1_555
C21_7 O15_7 1_555 1_555
O21_2 C26_7 1_555 1_555
O13_7 C26_7 1_555 1_555
O15_7 Zn16_2 1_555 1_555
N7_7 Zn11_4 1_555 1_555
N12_4 N7_7 1_555 1_555
C22_7 O24_4 1_555 1_555
C23_7 C22_7 1_555 1_555
H11_7 C23_7 1_555 1_555
C24_7 C22_7 1_555 1_555
C25_7 C21_7 1_555 1_555
C26_7 C24_7 1_555 1_555
C27_7 N7_7 1_555 1_555
H12_7 C27_7 1_555 1_555
C28_7 N9_7 1_555 1_555
C29_7 C25_7 1_555 1_555
H14_7 C29_7 1_555 1_555
C30_7 C24_7 1_555 1_555
H15_7 C30_7 1_555 1_555
N12_4 N9_7 1_555 1_555
C23_7 C25_7 1_555 1_555
C27_7 C28_7 1_555 1_555
C29_7 C30_7 1_555 1_555
Zn10_4 O8_7 1_555 1_555
C11_7 O10_7 1_555 1_555
O20_3 C16_7 1_555 1_555
O8_7 C16_7 1_555 1_555
O10_7 Zn15 1_555 1_555
N4_7 Zn10_4 1_555 1_555
N11_4 N4_7 1_555 1_555
N6_7 N11_4 1_555 1_555
C12_7 O23_4 1_555 1_555
C13_7 C12_7 1_555 1_555
H6_7 C13_7 1_555 1_555
C14_7 C12_7 1_555 1_555
C15_7 C11_7 1_555 1_555
C16_7 C14_7 1_555 1_555
C17_7 N4_7 1_555 1_555
H7_7 C17_7 1_555 1_555
C18_7 N6_7 1_555 1_555
H8_7 C18_7 1_555 1_555
C19_7 C15_7 1_555 1_555
H9_7 C19_7 1_555 1_555
C20_7 C14_7 1_555 1_555
H10_7 C20_7 1_555 1_555
C13_7 C15_7 1_555 1_555
C17_7 C18_7 1_555 1_555
C19_7 C20_7 1_555 1_555
Zn9_3 O18_2 1_555 1_555
Zn13 O5_8 1_555 1_555
C1_8 O5_8 1_555 1_555
O19_2 C6_8 1_555 1_555
O3_8 Zn9_3 1_555 1_555
N1_8 Zn9_3 1_555 1_555
N10_3 N1_8 1_555 1_555
N3_8 N10_3 1_555 1_555
C2_8 O22_3 1_555 1_555
C3_8 C2_8 1_555 1_555
H1_8 C3_8 1_555 1_555
C4_8 C2_8 1_555 1_555
C5_8 C1_8 1_555 1_555
C6_8 O3_8 1_555 1_555
C7_8 N1_8 1_555 1_555
H2_8 C7_8 1_555 1_555
C8_8 N3_8 1_555 1_555
H3_8 C8_8 1_555 1_555
C9_8 C5_8 1_555 1_555
H4_8 C9_8 1_555 1_555
C10_8 C4_8 1_555 1_555
H5_8 C10_8 1_555 1_555
O6_8 C1_8 1_555 1_555
Zn10_3 O8_8 1_555 1_555
Zn15_2 N3_8 1_555 1_555
C11_8 O10_8 1_555 1_555
O20_4 C16_8 1_555 1_555
O8_8 C16_8 1_555 1_555
O10_8 Zn15_2 1_555 1_555
N4_8 Zn10_3 1_555 1_555
N11_3 N4_8 1_555 1_555
N6_8 N11_3 1_555 1_555
C12_8 O23_3 1_555 1_555
C13_8 C12_8 1_555 1_555
H6_8 C13_8 1_555 1_555
C14_8 C12_8 1_555 1_555
C15_8 C11_8 1_555 1_555
C16_8 C14_8 1_555 1_555
C17_8 N4_8 1_555 1_555
H7_8 C17_8 1_555 1_555
C18_8 N6_8 1_555 1_555
H8_8 C18_8 1_555 1_555
C19_8 C15_8 1_555 1_555
H9_8 C19_8 1_555 1_555
C20_8 C14_8 1_555 1_555
H10_8 C20_8 1_555 1_555
O11_8 C11_8 1_555 1_555
Zn11_3 O13_8 1_555 1_555
Zn17_2 N6_8 1_555 1_555
C21_8 O15_8 1_555 1_555
O21 C26_8 1_555 1_555
O13_8 C26_8 1_555 1_555
O15_8 Zn17_2 1_555 1_555
N7_8 Zn11_3 1_555 1_555
N12_3 N7_8 1_555 1_555
N9_8 Zn13 1_555 1_555
C22_8 O24_3 1_555 1_555
C23_8 C22_8 1_555 1_555
H11_8 C23_8 1_555 1_555
C24_8 C22_8 1_555 1_555
C25_8 C21_8 1_555 1_555
C26_8 C24_8 1_555 1_555
C27_8 N7_8 1_555 1_555
H12_8 C27_8 1_555 1_555
C28_8 N9_8 1_555 1_555
H13_8 C28_8 1_555 1_555
C29_8 C25_8 1_555 1_555
H14_8 C29_8 1_555 1_555
C30_8 C24_8 1_555 1_555
H15_8 C30_8 1_555 1_555
O16_8 C21_8 1_555 1_555
C3_8 C5_8 1_555 1_555
C4_8 C6_8 1_555 1_555
C7_8 C8_8 1_555 1_555
C9_8 C10_8 1_555 1_555
C13_8 C15_8 1_555 1_555
C17_8 C18_8 1_555 1_555
C19_8 C20_8 1_555 1_555
N12_3 N9_8 1_555 1_555
C23_8 C25_8 1_555 1_555
C27_8 C28_8 1_555 1_555
C29_8 C30_8 1_555 1_555

#END
