
###############################################################################
#
# This file contains modified crystal structure data generated from the
# MOF subset of the Cambridge Structural Database (CSD) v543 
# hosted by the Cambridge Crystallographic Data Centre (CCDC).
#
# This work is licensed under the Creative Commons
# Attribution-NonCommercial-ShareAlike 4.0 International License.
# To view a copy of this license, visit
# http://creativecommons.org/licenses/by-nc-sa/4.0/
# or send a letter to
# Creative Commons, PO Box 1866, Mountain View, CA 94042, USA.
#
# CIF created using the CSD Python API on 29 September 2022
# The structure has been converted into the P1 space group
# The structure has a 3D framework
# The original CSD entry ROPLEQ is in the monoclinic crystal system
# The framework has been calculated to contain at least 10.0% void space
# The void calculation uses a probe of radius 1.32A, grid spacing 0.4
# The framework is charged, counterions have been retained in the structure
#
###############################################################################

data_ROPLEQ
_chemical_formula_moiety         '(C196 H100 Gd2 N16 O40 Zn4 8-)n'
_symmetry_cell_setting           triclinic
_symmetry_space_group_name_H-M   'P 1'
_symmetry_Int_Tables_number      1
_space_group_name_Hall           'P 1'
loop_
_symmetry_equiv_pos_site_id
_symmetry_equiv_pos_as_xyz
1 x,y,z
_cell_length_a                   17.903(3)
_cell_length_b                   16.7851(16)
_cell_length_c                   21.149(2)
_cell_angle_alpha                90
_cell_angle_beta                 96.467(4)
_cell_angle_gamma                90
_cell_volume                     6314.91
loop_
_atom_site_label
_atom_site_type_symbol
_atom_site_fract_x
_atom_site_fract_y
_atom_site_fract_z
Gd9 Gd 0.22052(5) 0.05715(4) 0.58634(3)
Gd7 Gd 0.27948(5) 0.05715(4) 0.91366(3)
Zn1 Zn 0.41359(8) 0.50360(7) 0.29163(6)
N1 N 0.4723(5) 0.4885(5) 0.2136(4)
N2 N 0.4028(5) 0.6235(5) 0.2687(4)
N3 N 0.3867(6) 0.5305(5) 0.3818(4)
N4 N 0.4574(5) 0.3973(5) 0.3264(4)
C1 C 0.5007(7) 0.4190(6) 0.1949(5)
C2 C 0.5243(8) 0.4292(7) 0.1320(5)
H1 H 0.547538 0.390076 0.108313
C3 C 0.5071(7) 0.5041(7) 0.1136(6)
H2 H 0.513997 0.528095 0.074049
C4 C 0.4767(7) 0.5395(6) 0.1652(5)
C5 C 0.4522(7) 0.6227(7) 0.1655(5)
C6 C 0.4226(7) 0.6595(6) 0.2161(5)
C7 C 0.4037(8) 0.7435(7) 0.2159(6)
H3 H 0.409122 0.780973 0.183032
C8 C 0.3768(9) 0.7574(7) 0.2716(6)
H4 H 0.360771 0.807296 0.286449
C9 C 0.3769(8) 0.6822(6) 0.3049(5)
C10 C 0.3506(8) 0.6723(7) 0.3655(6)
C11 C 0.3560(7) 0.6009(7) 0.4001(5)
C12 C 0.3325(8) 0.5919(7) 0.4627(6)
H5 H 0.309232 0.631087 0.486207
C13 C 0.3505(7) 0.5155(7) 0.4814(6)
H6 H 0.341406 0.491266 0.520434
C14 C 0.3854(7) 0.4791(6) 0.4313(5)
C15 C 0.4154(7) 0.4014(6) 0.4329(5)
C16 C 0.4517(7) 0.3654(7) 0.3851(5)
C17 C 0.4840(8) 0.2853(7) 0.3886(6)
H7 H 0.484123 0.249815 0.423590
C18 C 0.5129(8) 0.2704(8) 0.3348(6)
H8 H 0.540436 0.224719 0.324552
C19 C 0.4926(7) 0.3421(7) 0.2938(6)
C20 C 0.5132(7) 0.3528(6) 0.2315(6)
C21 C 0.4666(9) 0.6713(7) 0.1094(6)
C22 C 0.5220(9) 0.7225(7) 0.1108(6)
H9 H 0.556596 0.725391 0.148228
C23 C 0.5329(10) 0.7737(7) 0.0594(6)
C24 C 0.4879(11) 0.7687(9) 0.0059(7)
C25 C 0.4271(12) 0.7198(10) 0.0021(7)
C26 C 0.4139(11) 0.6680(8) 0.0509(7)
H12 H 0.372534 0.632186 0.046688
C27 C 0.6015(11) 0.8300(7) 0.0682(7)
O1 O 0.6100(7) 0.8815(6) 0.0241(4)
O2 O 0.6492(7) 0.8285(6) 0.1151(5)
C28 C 0.3288(10) 0.7421(7) 0.3995(6)
C29 C 0.3747(14) 0.7831(13) 0.4437(11)
H13 H 0.425539 0.765757 0.449698
C30 C 0.3580(14) 0.8445(12) 0.4800(11)
H14 H 0.392186 0.861946 0.514862
C31 C 0.2946(13) 0.8788(11) 0.4662(8)
C32 C 0.2401(14) 0.8471(14) 0.4215(10)
H15 H 0.191630 0.870339 0.413447
C33 C 0.2612(14) 0.7747(14) 0.3868(10)
H16 H 0.225840 0.751614 0.355155
C34 C 0.2685(13) 0.9549(11) 0.5019(9)
O3 O 0.2087(7) 0.9833(7) 0.4883(5)
O4 O 0.3214(8) 0.9839(8) 0.5441(6)
C35 C 0.4136(8) 0.3574(7) 0.4943(6)
C36 C 0.3668(8) 0.2893(6) 0.4981(6)
H17 H 0.338114 0.268674 0.461218
C37 C 0.3642(8) 0.2532(7) 0.5584(6)
C38 C 0.4093(10) 0.2829(9) 0.6105(6)
H18 H 0.409820 0.257834 0.650780
C39 C 0.4534(9) 0.3485(9) 0.6040(7)
H19 H 0.483035 0.368599 0.640545
C40 C 0.4563(8) 0.3849(9) 0.5489(6)
H20 H 0.487722 0.430207 0.546664
C41 C 0.3174(10) 0.1838(8) 0.5639(7)
O5 O 0.2748(7) 0.1586(5) 0.5180(4)
O6 O 0.3205(7) 0.1483(6) 0.6178(4)
C42 C 0.5491(9) 0.2800(7) 0.2041(6)
C43 C 0.5029(9) 0.2136(7) 0.1824(6)
H21 H 0.450343 0.214566 0.185234
C44 C 0.5353(9) 0.1492(8) 0.1576(6)
H22 H 0.506101 0.104336 0.142685
C45 C 0.6152(10) 0.1512(8) 0.1547(6)
C46 C 0.6576(10) 0.2137(8) 0.1744(7)
H23 H 0.710118 0.213244 0.171476
C47 C 0.6232(10) 0.2810(9) 0.1998(7)
H24 H 0.652490 0.326215 0.213613
C48 C 0.6503(11) 0.0779(10) 0.1258(8)
O7 O 0.6123(6) 0.0220(6) 0.1082(5)
O8 O 0.7217(7) 0.0814(6) 0.1235(6)
H25 H 0.750001 0.023479 0.249999
C50 C 0.250000 0.4909(8) 0.250000
H26 H 0.250000 0.547507 0.250000
O10 O 0.3120(4) 0.4548(4) 0.2588(3)
O12 O 0.1880(4) 0.4548(4) 0.2412(3)
Zn2 Zn 0.08641(8) 0.50360(7) 0.20837(6)
N5 N 0.0277(5) 0.4885(5) 0.2864(4)
N6 N 0.0972(5) 0.6235(5) 0.2313(4)
N7 N 0.1133(6) 0.5305(5) 0.1182(4)
N8 N 0.0426(5) 0.3973(5) 0.1736(4)
C54 C 0.0233(7) 0.5395(6) 0.3348(5)
C55 C 0.0478(7) 0.6227(7) 0.3345(5)
C56 C 0.0774(7) 0.6595(6) 0.2839(5)
C57 C 0.0963(8) 0.7435(7) 0.2841(6)
H29 H 0.090878 0.780973 0.316968
C58 C 0.1232(9) 0.7574(7) 0.2284(6)
H30 H 0.139229 0.807296 0.213551
C59 C 0.1231(8) 0.6822(6) 0.1951(5)
C60 C 0.1494(8) 0.6723(7) 0.1345(6)
C61 C 0.1440(7) 0.6009(7) 0.0999(5)
C62 C 0.1675(8) 0.5919(7) 0.0373(6)
H31 H 0.190768 0.631087 0.013793
C63 C 0.1495(7) 0.5155(7) 0.0186(6)
C64 C 0.1146(7) 0.4791(6) 0.0687(5)
C65 C 0.0846(7) 0.4014(6) 0.0671(5)
C66 C 0.0483(7) 0.3654(7) 0.1149(5)
C67 C 0.0160(8) 0.2853(7) 0.1114(6)
H33 H 0.015877 0.249815 0.076410
C69 C 0.0074(7) 0.3421(7) 0.2062(6)
C71 C 0.0334(9) 0.6713(7) 0.3906(6)
C74 C 0.0121(11) 0.7687(9) 0.4941(7)
H36 H 0.002050 0.799314 0.529996
C75 C 0.0729(12) 0.7198(10) 0.4979(7)
H37 H 0.107591 0.721060 0.535332
C76 C 0.0861(11) 0.6680(8) 0.4491(7)
H38 H 0.127466 0.632186 0.453312
C78 C 0.1712(10) 0.7421(7) 0.1005(6)
C79 C 0.1253(14) 0.7831(13) 0.0563(11)
H39 H 0.074461 0.765757 0.050302
C80 C 0.1420(14) 0.8445(12) 0.0200(11)
C81 C 0.2054(13) 0.8788(11) 0.0338(8)
C82 C 0.2599(14) 0.8471(14) 0.0785(10)
H41 H 0.308370 0.870339 0.086553
C83 C 0.2388(14) 0.7747(14) 0.1132(10)
H42 H 0.274160 0.751614 0.144845
O15 O 0.2913(7) 0.9833(7) 0.0117(5)
C85 C 0.0864(8) 0.3574(7) 0.0057(6)
C86 C 0.1332(8) 0.2893(6) 0.0019(6)
H43 H 0.161886 0.268674 0.038782
H47 H 0.049657 0.214566 0.314766
Gd3 Gd 0.72052(5) 0.94285(4) 0.08634(3)
O28 O 0.8214(8) 0.0161(8) 0.0441(6)
H10 H 0.497950 0.799314 0.970004
H11 H 0.392409 0.721060 0.964668
H32 H 0.158594 0.491266 0.979566
H40 H 0.107814 0.861946 0.985138
C84 C 0.2315(13) 0.9549(11) 0.9981(9)
O16 O 0.1786(8) 0.9839(8) 0.9559(6)
C87 C 0.1358(8) 0.2532(7) 0.9416(6)
C88 C 0.0907(10) 0.2829(9) 0.8895(6)
H44 H 0.090180 0.257834 0.849220
C89 C 0.0466(9) 0.3485(9) 0.8960(7)
H45 H 0.016965 0.368599 0.859455
C90 C 0.0437(8) 0.3849(9) 0.9511(6)
H46 H 0.012278 0.430207 0.953336
C91 C 0.1826(10) 0.1838(8) 0.9361(7)
O17 O 0.2252(7) 0.1586(5) 0.9820(4)
O18 O 0.1795(7) 0.1483(6) 0.8822(4)
O26 O 0.7087(7) 0.0167(7) 0.9883(5)
C49 C 0.750000 0.9669(16) 0.250000
O9 O 0.7397(7) 0.9377(6) 0.1973(5)
O11 O 0.7603(7) 0.9377(6) 0.3027(5)
Gd5 Gd 0.77948(5) 0.94285(4) 0.41366(3)
O30 O 0.7748(7) 0.8414(5) 0.0180(4)
O32 O 0.8205(7) 0.8517(6) 0.1178(4)
C51 C 0.9993(7) 0.4190(6) 0.3051(5)
C52 C 0.9757(8) 0.4292(7) 0.3680(5)
H27 H 0.952462 0.390076 0.391687
C53 C 0.9929(7) 0.5041(7) 0.3864(6)
H28 H 0.986003 0.528095 0.425951
C68 C 0.9871(8) 0.2704(8) 0.1652(6)
H34 H 0.959564 0.224719 0.175448
C70 C 0.9868(7) 0.3528(6) 0.2685(6)
C72 C 0.9780(9) 0.7225(7) 0.3892(6)
H35 H 0.943404 0.725391 0.351772
C73 C 0.9671(10) 0.7737(7) 0.4406(6)
C77 C 0.8985(11) 0.8300(7) 0.4318(7)
O13 O 0.8900(7) 0.8815(6) 0.4759(4)
O14 O 0.8508(7) 0.8285(6) 0.3849(5)
C92 C 0.9509(9) 0.2800(7) 0.2959(6)
C93 C 0.9971(9) 0.2136(7) 0.3176(6)
C94 C 0.9647(9) 0.1492(8) 0.3424(6)
H48 H 0.993899 0.104336 0.357315
C95 C 0.8848(10) 0.1512(8) 0.3453(6)
C96 C 0.8424(10) 0.2137(8) 0.3256(7)
H49 H 0.789882 0.213244 0.328524
C97 C 0.8768(10) 0.2810(9) 0.3002(7)
H50 H 0.847510 0.326215 0.286387
C98 C 0.8497(11) 0.0779(10) 0.3742(8)
O19 O 0.8877(6) 0.0220(6) 0.3918(5)
O20 O 0.7783(7) 0.0814(6) 0.3765(6)
O25 O 0.7913(7) 0.0167(7) 0.5117(5)
O27 O 0.6786(8) 0.0161(8) 0.4559(6)
O29 O 0.7252(7) 0.8414(5) 0.4820(4)
O31 O 0.6795(7) 0.8517(6) 0.3822(4)
O22 O 0.1100(7) 0.1185(6) 0.5241(4)
O24 O 0.1492(7) 0.1715(6) 0.6151(5)
O33 O 0.2397(7) 0.0623(6) 0.6973(5)
C51_2 C 0.0007(7) 0.5810(6) 0.6949(5)
C52_2 C 0.0243(8) 0.5708(7) 0.6320(5)
H27_2 H 0.047538 0.609924 0.608313
C53_2 C 0.0071(7) 0.4959(7) 0.6136(6)
H28_2 H 0.013997 0.471905 0.574049
C68_2 C 0.0129(8) 0.7296(8) 0.8348(6)
H34_2 H 0.040436 0.775281 0.824552
C70_2 C 0.0132(7) 0.6472(6) 0.7315(6)
C72_2 C 0.0220(9) 0.2775(7) 0.6108(6)
H35_2 H 0.056596 0.274609 0.648228
C73_2 C 0.0329(10) 0.2263(7) 0.5594(6)
C77_2 C 0.1015(11) 0.1700(7) 0.5682(7)
C92_2 C 0.0491(9) 0.7200(7) 0.7041(6)
C93_2 C 0.0029(9) 0.7864(7) 0.6824(6)
C94_2 C 0.0353(9) 0.8508(8) 0.6576(6)
H48_2 H 0.006101 0.895664 0.642685
C95_2 C 0.1152(10) 0.8488(8) 0.6547(6)
C96_2 C 0.1576(10) 0.7863(8) 0.6744(7)
H49_2 H 0.210118 0.786756 0.671476
C97_2 C 0.1232(10) 0.7190(9) 0.6998(7)
H50_2 H 0.152490 0.673785 0.713613
C98_2 C 0.1503(11) 0.9221(10) 0.6258(8)
O19_2 O 0.1123(6) 0.9780(6) 0.6082(5)
O20_2 O 0.2217(7) 0.9186(6) 0.6235(6)
C49_2 C 0.250000 0.0331(16) 0.750000
O9_2 O 0.2603(7) 0.0623(6) 0.8027(5)
O21 O 0.3900(7) 0.1185(6) 0.9759(4)
O23 O 0.3508(7) 0.1715(6) 0.8849(5)
H10_2 H 0.502050 0.200686 0.029996
H11_2 H 0.607591 0.278940 0.035332
H32_2 H 0.841406 0.508734 0.020434
H40_2 H 0.892186 0.138054 0.014862
C84_2 C 0.7685(13) 0.0451(11) 0.0019(9)
C87_2 C 0.8642(8) 0.7468(7) 0.0584(6)
C88_2 C 0.9093(10) 0.7171(9) 0.1105(6)
H44_2 H 0.909820 0.742166 0.150780
C89_2 C 0.9534(9) 0.6515(9) 0.1040(7)
H45_2 H 0.983035 0.631401 0.140545
C90_2 C 0.9563(8) 0.6151(9) 0.0489(6)
H46_2 H 0.987722 0.569793 0.046664
C91_2 C 0.8174(10) 0.8162(8) 0.0639(7)
Zn1_2 Zn 0.58641(8) 0.49640(7) 0.70837(6)
N1_2 N 0.5277(5) 0.5115(5) 0.7864(4)
N2_2 N 0.5972(5) 0.3765(5) 0.7313(4)
N3_2 N 0.6133(6) 0.4695(5) 0.6182(4)
N4_2 N 0.5426(5) 0.6027(5) 0.6736(4)
C1_2 C 0.4993(7) 0.5810(6) 0.8051(5)
C2_2 C 0.4757(8) 0.5708(7) 0.8680(5)
H1_2 H 0.452462 0.609924 0.891687
C3_2 C 0.4929(7) 0.4959(7) 0.8864(6)
H2_2 H 0.486003 0.471905 0.925951
C4_2 C 0.5233(7) 0.4605(6) 0.8348(5)
C5_2 C 0.5478(7) 0.3773(7) 0.8345(5)
C6_2 C 0.5774(7) 0.3405(6) 0.7839(5)
C7_2 C 0.5963(8) 0.2565(7) 0.7841(6)
H3_2 H 0.590878 0.219027 0.816968
C8_2 C 0.6232(9) 0.2426(7) 0.7284(6)
H4_2 H 0.639229 0.192704 0.713551
C9_2 C 0.6231(8) 0.3178(6) 0.6951(5)
C10_2 C 0.6494(8) 0.3277(7) 0.6345(6)
C11_2 C 0.6440(7) 0.3991(7) 0.5999(5)
C12_2 C 0.6675(8) 0.4081(7) 0.5373(6)
H5_2 H 0.690768 0.368913 0.513793
C13_2 C 0.6495(7) 0.4845(7) 0.5186(6)
H6_2 H 0.658594 0.508734 0.479566
C14_2 C 0.6146(7) 0.5209(6) 0.5687(5)
C15_2 C 0.5846(7) 0.5986(6) 0.5671(5)
C16_2 C 0.5483(7) 0.6346(7) 0.6149(5)
C17_2 C 0.5160(8) 0.7147(7) 0.6114(6)
H7_2 H 0.515877 0.750185 0.576410
C18_2 C 0.4871(8) 0.7296(8) 0.6652(6)
H8_2 H 0.459564 0.775281 0.675448
C19_2 C 0.5074(7) 0.6579(7) 0.7062(6)
C20_2 C 0.4868(7) 0.6472(6) 0.7685(6)
C21_2 C 0.5334(9) 0.3287(7) 0.8906(6)
C22_2 C 0.4780(9) 0.2775(7) 0.8892(6)
H9_2 H 0.443404 0.274609 0.851772
C23_2 C 0.4671(10) 0.2263(7) 0.9406(6)
C24_2 C 0.5121(11) 0.2313(9) 0.9941(7)
C25_2 C 0.5729(12) 0.2802(10) 0.9979(7)
C26_2 C 0.5861(11) 0.3320(8) 0.9491(7)
H12_2 H 0.627466 0.367814 0.953312
C27_2 C 0.3985(11) 0.1700(7) 0.9318(7)
C28_2 C 0.6712(10) 0.2579(7) 0.6005(6)
C29_2 C 0.6253(14) 0.2169(13) 0.5563(11)
H13_2 H 0.574461 0.234243 0.550302
C30_2 C 0.6420(14) 0.1555(12) 0.5200(11)
H14_2 H 0.607814 0.138054 0.485138
C31_2 C 0.7054(13) 0.1212(11) 0.5338(8)
C32_2 C 0.7599(14) 0.1529(14) 0.5785(10)
H15_2 H 0.808370 0.129661 0.586553
C33_2 C 0.7388(14) 0.2253(14) 0.6132(10)
H16_2 H 0.774160 0.248386 0.644845
C34_2 C 0.7315(13) 0.0451(11) 0.4981(9)
C35_2 C 0.5864(8) 0.6426(7) 0.5057(6)
C36_2 C 0.6332(8) 0.7107(6) 0.5019(6)
H17_2 H 0.661886 0.731326 0.538782
C37_2 C 0.6358(8) 0.7468(7) 0.4416(6)
C38_2 C 0.5907(10) 0.7171(9) 0.3895(6)
H18_2 H 0.590180 0.742166 0.349220
C39_2 C 0.5466(9) 0.6515(9) 0.3960(7)
H19_2 H 0.516965 0.631401 0.359455
C40_2 C 0.5437(8) 0.6151(9) 0.4511(6)
H20_2 H 0.512278 0.569793 0.453336
C41_2 C 0.6826(10) 0.8162(8) 0.4361(7)
C42_2 C 0.4509(9) 0.7200(7) 0.7959(6)
C43_2 C 0.4971(9) 0.7864(7) 0.8176(6)
H21_2 H 0.549657 0.785434 0.814766
C44_2 C 0.4647(9) 0.8508(8) 0.8424(6)
H22_2 H 0.493899 0.895664 0.857315
C45_2 C 0.3848(10) 0.8488(8) 0.8453(6)
C46_2 C 0.3424(10) 0.7863(8) 0.8256(7)
H23_2 H 0.289882 0.786756 0.828524
C47_2 C 0.3768(10) 0.7190(9) 0.8002(7)
H24_2 H 0.347510 0.673785 0.786387
C48_2 C 0.3497(11) 0.9221(10) 0.8742(8)
O7_2 O 0.3877(6) 0.9780(6) 0.8918(5)
O8_2 O 0.2783(7) 0.9186(6) 0.8765(6)
H25_2 H 0.249999 0.976521 0.750001
C50_2 C 0.750000 0.5091(8) 0.750000
H26_2 H 0.750000 0.452493 0.750000
O10_2 O 0.6880(4) 0.5452(4) 0.7412(3)
O12_2 O 0.8120(4) 0.5452(4) 0.7588(3)
Zn2_2 Zn 0.91359(8) 0.49640(7) 0.79163(6)
N5_2 N 0.9723(5) 0.5115(5) 0.7136(4)
N6_2 N 0.9028(5) 0.3765(5) 0.7687(4)
N7_2 N 0.8867(6) 0.4695(5) 0.8818(4)
N8_2 N 0.9574(5) 0.6027(5) 0.8264(4)
C54_2 C 0.9767(7) 0.4605(6) 0.6652(5)
C55_2 C 0.9522(7) 0.3773(7) 0.6655(5)
C56_2 C 0.9226(7) 0.3405(6) 0.7161(5)
C57_2 C 0.9037(8) 0.2565(7) 0.7159(6)
H29_2 H 0.909122 0.219027 0.683032
C58_2 C 0.8768(9) 0.2426(7) 0.7716(6)
H30_2 H 0.860771 0.192704 0.786449
C59_2 C 0.8769(8) 0.3178(6) 0.8049(5)
C60_2 C 0.8506(8) 0.3277(7) 0.8655(6)
C61_2 C 0.8560(7) 0.3991(7) 0.9001(5)
C62_2 C 0.8325(8) 0.4081(7) 0.9627(6)
H31_2 H 0.809232 0.368913 0.986207
C63_2 C 0.8505(7) 0.4845(7) 0.9814(6)
C64_2 C 0.8854(7) 0.5209(6) 0.9313(5)
C65_2 C 0.9154(7) 0.5986(6) 0.9329(5)
C66_2 C 0.9517(7) 0.6346(7) 0.8851(5)
C67_2 C 0.9840(8) 0.7147(7) 0.8886(6)
H33_2 H 0.984123 0.750185 0.923590
C69_2 C 0.9926(7) 0.6579(7) 0.7938(6)
C71_2 C 0.9666(9) 0.3287(7) 0.6094(6)
C74_2 C 0.9879(11) 0.2313(9) 0.5059(7)
H36_2 H 0.997950 0.200686 0.470004
C75_2 C 0.9271(12) 0.2802(10) 0.5021(7)
H37_2 H 0.892409 0.278940 0.464668
C76_2 C 0.9139(11) 0.3320(8) 0.5509(7)
H38_2 H 0.872534 0.367814 0.546688
C78_2 C 0.8288(10) 0.2579(7) 0.8995(6)
C79_2 C 0.8747(14) 0.2169(13) 0.9437(11)
H39_2 H 0.925539 0.234243 0.949698
C80_2 C 0.8580(14) 0.1555(12) 0.9800(11)
C81_2 C 0.7946(13) 0.1212(11) 0.9662(8)
C82_2 C 0.7401(14) 0.1529(14) 0.9215(10)
H41_2 H 0.691630 0.129661 0.913447
C83_2 C 0.7612(14) 0.2253(14) 0.8868(10)
H42_2 H 0.725840 0.248386 0.855155
C85_2 C 0.9136(8) 0.6426(7) 0.9943(6)
C86_2 C 0.8668(8) 0.7107(6) 0.9981(6)
H43_2 H 0.838114 0.731326 0.961218
H47_2 H 0.950343 0.785434 0.685234
loop_
_geom_bond_atom_site_label_1
_geom_bond_atom_site_label_2
_geom_bond_site_symmetry_1
_geom_bond_site_symmetry_2
Zn1 N1 1_555 1_555
N1 C1 1_555 1_555
N2 Zn1 1_555 1_555
N3 Zn1 1_555 1_555
N4 Zn1 1_555 1_555
C1 C2 1_555 1_555
C2 H1 1_555 1_555
C3 C2 1_555 1_555
H2 C3 1_555 1_555
C4 N1 1_555 1_555
C5 C4 1_555 1_555
C6 N2 1_555 1_555
C7 C6 1_555 1_555
H3 C7 1_555 1_555
C8 C7 1_555 1_555
H4 C8 1_555 1_555
C9 N2 1_555 1_555
C10 C9 1_555 1_555
C11 N3 1_555 1_555
C12 C11 1_555 1_555
H5 C12 1_555 1_555
C13 C12 1_555 1_555
H6 C13 1_555 1_555
C14 N3 1_555 1_555
C15 C14 1_555 1_555
C16 N4 1_555 1_555
C17 C16 1_555 1_555
H7 C17 1_555 1_555
C18 C17 1_555 1_555
H8 C18 1_555 1_555
C19 N4 1_555 1_555
C20 C1 1_555 1_555
C21 C5 1_555 1_555
C22 C21 1_555 1_555
H9 C22 1_555 1_555
C23 C22 1_555 1_555
C24 C23 1_555 1_555
C25 C24 1_555 1_555
C26 C21 1_555 1_555
H12 C26 1_555 1_555
C27 C23 1_555 1_555
O1 C27 1_555 1_555
O2 C27 1_555 1_555
C28 C10 1_555 1_555
C29 C28 1_555 1_555
H13 C29 1_555 1_555
C30 C29 1_555 1_555
H14 C30 1_555 1_555
C31 C30 1_555 1_555
C32 C31 1_555 1_555
H15 C32 1_555 1_555
C33 C28 1_555 1_555
H16 C33 1_555 1_555
C34 C31 1_555 1_555
O3 C34 1_555 1_555
O4 C34 1_555 1_555
C35 C15 1_555 1_555
C36 C35 1_555 1_555
H17 C36 1_555 1_555
C37 C36 1_555 1_555
C38 C37 1_555 1_555
H18 C38 1_555 1_555
C39 C38 1_555 1_555
H19 C39 1_555 1_555
C40 C35 1_555 1_555
H20 C40 1_555 1_555
C41 C37 1_555 1_555
O5 C41 1_555 1_555
O6 C41 1_555 1_555
C42 C20 1_555 1_555
C43 C42 1_555 1_555
H21 C43 1_555 1_555
C44 C43 1_555 1_555
H22 C44 1_555 1_555
C45 C44 1_555 1_555
C46 C45 1_555 1_555
H23 C46 1_555 1_555
C47 C42 1_555 1_555
H24 C47 1_555 1_555
C48 C45 1_555 1_555
O7 C48 1_555 1_555
C50 H26 1_555 1_555
O10 Zn1 1_555 1_555
O12 C50 1_555 1_555
Zn2 O12 1_555 1_555
N5 Zn2 1_555 1_555
N6 Zn2 1_555 1_555
N7 Zn2 1_555 1_555
N8 Zn2 1_555 1_555
C54 N5 1_555 1_555
C55 C54 1_555 1_555
C56 N6 1_555 1_555
C57 C56 1_555 1_555
H29 C57 1_555 1_555
C58 C57 1_555 1_555
H30 C58 1_555 1_555
C59 N6 1_555 1_555
C60 C59 1_555 1_555
C61 N7 1_555 1_555
C62 C61 1_555 1_555
H31 C62 1_555 1_555
C63 C62 1_555 1_555
C64 N7 1_555 1_555
C65 C64 1_555 1_555
C66 N8 1_555 1_555
C67 C66 1_555 1_555
H33 C67 1_555 1_555
C69 N8 1_555 1_555
C71 C55 1_555 1_555
H36 C74 1_555 1_555
C75 C74 1_555 1_555
H37 C75 1_555 1_555
C76 C71 1_555 1_555
H38 C76 1_555 1_555
C78 C60 1_555 1_555
C79 C78 1_555 1_555
H39 C79 1_555 1_555
C80 C79 1_555 1_555
C81 C80 1_555 1_555
C82 C81 1_555 1_555
H41 C82 1_555 1_555
C83 C78 1_555 1_555
H42 C83 1_555 1_555
C85 C65 1_555 1_555
C86 C85 1_555 1_555
H43 C86 1_555 1_555
Gd3 O1 1_555 1_555
Gd9 O5 1_555 1_555
C3 C4 1_555 1_555
C5 C6 1_555 1_555
C8 C9 1_555 1_555
C10 C11 1_555 1_555
C13 C14 1_555 1_555
C15 C16 1_555 1_555
C18 C19 1_555 1_555
C19 C20 1_555 1_555
C25 C26 1_555 1_555
O2 Gd3 1_555 1_555
C32 C33 1_555 1_555
C39 C40 1_555 1_555
O6 Gd9 1_555 1_555
C46 C47 1_555 1_555
C48 O8 1_555 1_555
C50 O10 1_555 1_555
C55 C56 1_555 1_555
C58 C59 1_555 1_555
C60 C61 1_555 1_555
C63 C64 1_555 1_555
C65 C66 1_555 1_555
C75 C76 1_555 1_555
C82 C83 1_555 1_555
O16 C84 1_555 1_555
C88 C87 1_555 1_555
H44 C88 1_555 1_555
C89 C88 1_555 1_555
H45 C89 1_555 1_555
H46 C90 1_555 1_555
C91 C87 1_555 1_555
O17 C91 1_555 1_555
O18 C91 1_555 1_555
Gd7 O17 1_555 1_555
C89 C90 1_555 1_555
O18 Gd7 1_555 1_555
O9 Gd3 1_555 1_555
O11 C49 1_555 1_555
Gd5 O11 1_555 1_555
O30 Gd3 1_555 1_555
O32 Gd3 1_555 1_555
C49 O9 1_555 1_555
C52 C51 1_555 1_555
H27 C52 1_555 1_555
C53 C52 1_555 1_555
H28 C53 1_555 1_555
H34 C68 1_555 1_555
C70 C51 1_555 1_555
H35 C72 1_555 1_555
C73 C72 1_555 1_555
C77 C73 1_555 1_555
O13 C77 1_555 1_555
O14 C77 1_555 1_555
C92 C70 1_555 1_555
C93 C92 1_555 1_555
C94 C93 1_555 1_555
H48 C94 1_555 1_555
C95 C94 1_555 1_555
C96 C95 1_555 1_555
H49 C96 1_555 1_555
C97 C92 1_555 1_555
H50 C97 1_555 1_555
C98 C95 1_555 1_555
O19 C98 1_555 1_555
Gd5 O13 1_555 1_555
O14 Gd5 1_555 1_555
C96 C97 1_555 1_555
C98 O20 1_555 1_555
O29 Gd5 1_555 1_555
O31 Gd5 1_555 1_555
O22 Gd9 1_555 1_555
O24 Gd9 1_555 1_555
O33 Gd9 1_555 1_555
C52_2 C51_2 1_555 1_555
H27_2 C52_2 1_555 1_555
C53_2 C52_2 1_555 1_555
H28_2 C53_2 1_555 1_555
H34_2 C68_2 1_555 1_555
C70_2 C51_2 1_555 1_555
H35_2 C72_2 1_555 1_555
C73_2 C72_2 1_555 1_555
C77_2 C73_2 1_555 1_555
O22 C77_2 1_555 1_555
O24 C77_2 1_555 1_555
C92_2 C70_2 1_555 1_555
C93_2 C92_2 1_555 1_555
C94_2 C93_2 1_555 1_555
H48_2 C94_2 1_555 1_555
C95_2 C94_2 1_555 1_555
C96_2 C95_2 1_555 1_555
H49_2 C96_2 1_555 1_555
C97_2 C92_2 1_555 1_555
H50_2 C97_2 1_555 1_555
C98_2 C95_2 1_555 1_555
O19_2 C98_2 1_555 1_555
C96_2 C97_2 1_555 1_555
C98_2 O20_2 1_555 1_555
O9_2 Gd7 1_555 1_555
O33 C49_2 1_555 1_555
O21 Gd7 1_555 1_555
O23 Gd7 1_555 1_555
C49_2 O9_2 1_555 1_555
O28 C84_2 1_555 1_555
C88_2 C87_2 1_555 1_555
H44_2 C88_2 1_555 1_555
C89_2 C88_2 1_555 1_555
H45_2 C89_2 1_555 1_555
H46_2 C90_2 1_555 1_555
C91_2 C87_2 1_555 1_555
O30 C91_2 1_555 1_555
O32 C91_2 1_555 1_555
C89_2 C90_2 1_555 1_555
Zn1_2 N1_2 1_555 1_555
N1_2 C1_2 1_555 1_555
N2_2 Zn1_2 1_555 1_555
N3_2 Zn1_2 1_555 1_555
N4_2 Zn1_2 1_555 1_555
C1_2 C2_2 1_555 1_555
C2_2 H1_2 1_555 1_555
C3_2 C2_2 1_555 1_555
H2_2 C3_2 1_555 1_555
C4_2 N1_2 1_555 1_555
C5_2 C4_2 1_555 1_555
C6_2 N2_2 1_555 1_555
C7_2 C6_2 1_555 1_555
H3_2 C7_2 1_555 1_555
C8_2 C7_2 1_555 1_555
H4_2 C8_2 1_555 1_555
C9_2 N2_2 1_555 1_555
C10_2 C9_2 1_555 1_555
C11_2 N3_2 1_555 1_555
C12_2 C11_2 1_555 1_555
H5_2 C12_2 1_555 1_555
C13_2 C12_2 1_555 1_555
H6_2 C13_2 1_555 1_555
C14_2 N3_2 1_555 1_555
C15_2 C14_2 1_555 1_555
C16_2 N4_2 1_555 1_555
C17_2 C16_2 1_555 1_555
H7_2 C17_2 1_555 1_555
C18_2 C17_2 1_555 1_555
H8_2 C18_2 1_555 1_555
C19_2 N4_2 1_555 1_555
C20_2 C1_2 1_555 1_555
C21_2 C5_2 1_555 1_555
C22_2 C21_2 1_555 1_555
H9_2 C22_2 1_555 1_555
C23_2 C22_2 1_555 1_555
C24_2 C23_2 1_555 1_555
C25_2 C24_2 1_555 1_555
C26_2 C21_2 1_555 1_555
H12_2 C26_2 1_555 1_555
C27_2 C23_2 1_555 1_555
O21 C27_2 1_555 1_555
O23 C27_2 1_555 1_555
C28_2 C10_2 1_555 1_555
C29_2 C28_2 1_555 1_555
H13_2 C29_2 1_555 1_555
C30_2 C29_2 1_555 1_555
H14_2 C30_2 1_555 1_555
C31_2 C30_2 1_555 1_555
C32_2 C31_2 1_555 1_555
H15_2 C32_2 1_555 1_555
C33_2 C28_2 1_555 1_555
H16_2 C33_2 1_555 1_555
C34_2 C31_2 1_555 1_555
O25 C34_2 1_555 1_555
O27 C34_2 1_555 1_555
C35_2 C15_2 1_555 1_555
C36_2 C35_2 1_555 1_555
H17_2 C36_2 1_555 1_555
C37_2 C36_2 1_555 1_555
C38_2 C37_2 1_555 1_555
H18_2 C38_2 1_555 1_555
C39_2 C38_2 1_555 1_555
H19_2 C39_2 1_555 1_555
C40_2 C35_2 1_555 1_555
H20_2 C40_2 1_555 1_555
C41_2 C37_2 1_555 1_555
O29 C41_2 1_555 1_555
O31 C41_2 1_555 1_555
C42_2 C20_2 1_555 1_555
C43_2 C42_2 1_555 1_555
H21_2 C43_2 1_555 1_555
C44_2 C43_2 1_555 1_555
H22_2 C44_2 1_555 1_555
C45_2 C44_2 1_555 1_555
C46_2 C45_2 1_555 1_555
H23_2 C46_2 1_555 1_555
C47_2 C42_2 1_555 1_555
H24_2 C47_2 1_555 1_555
C48_2 C45_2 1_555 1_555
O7_2 C48_2 1_555 1_555
C50_2 H26_2 1_555 1_555
O10_2 Zn1_2 1_555 1_555
O12_2 C50_2 1_555 1_555
Zn2_2 O12_2 1_555 1_555
N5_2 Zn2_2 1_555 1_555
N6_2 Zn2_2 1_555 1_555
N7_2 Zn2_2 1_555 1_555
N8_2 Zn2_2 1_555 1_555
C54_2 N5_2 1_555 1_555
C55_2 C54_2 1_555 1_555
C56_2 N6_2 1_555 1_555
C57_2 C56_2 1_555 1_555
H29_2 C57_2 1_555 1_555
C58_2 C57_2 1_555 1_555
H30_2 C58_2 1_555 1_555
C59_2 N6_2 1_555 1_555
C60_2 C59_2 1_555 1_555
C61_2 N7_2 1_555 1_555
C62_2 C61_2 1_555 1_555
H31_2 C62_2 1_555 1_555
C63_2 C62_2 1_555 1_555
C64_2 N7_2 1_555 1_555
C65_2 C64_2 1_555 1_555
C66_2 N8_2 1_555 1_555
C67_2 C66_2 1_555 1_555
H33_2 C67_2 1_555 1_555
C69_2 N8_2 1_555 1_555
C71_2 C55_2 1_555 1_555
H36_2 C74_2 1_555 1_555
C75_2 C74_2 1_555 1_555
H37_2 C75_2 1_555 1_555
C76_2 C71_2 1_555 1_555
H38_2 C76_2 1_555 1_555
C78_2 C60_2 1_555 1_555
C79_2 C78_2 1_555 1_555
H39_2 C79_2 1_555 1_555
C80_2 C79_2 1_555 1_555
C81_2 C80_2 1_555 1_555
C82_2 C81_2 1_555 1_555
H41_2 C82_2 1_555 1_555
C83_2 C78_2 1_555 1_555
H42_2 C83_2 1_555 1_555
C85_2 C65_2 1_555 1_555
C86_2 C85_2 1_555 1_555
H43_2 C86_2 1_555 1_555
C3_2 C4_2 1_555 1_555
C5_2 C6_2 1_555 1_555
C8_2 C9_2 1_555 1_555
C10_2 C11_2 1_555 1_555
C13_2 C14_2 1_555 1_555
C15_2 C16_2 1_555 1_555
C18_2 C19_2 1_555 1_555
C19_2 C20_2 1_555 1_555
C25_2 C26_2 1_555 1_555
C32_2 C33_2 1_555 1_555
C39_2 C40_2 1_555 1_555
C46_2 C47_2 1_555 1_555
C48_2 O8_2 1_555 1_555
C50_2 O10_2 1_555 1_555
C55_2 C56_2 1_555 1_555
C58_2 C59_2 1_555 1_555
C60_2 C61_2 1_555 1_555
C63_2 C64_2 1_555 1_555
C65_2 C66_2 1_555 1_555
C75_2 C76_2 1_555 1_555
C82_2 C83_2 1_555 1_555

#END
