
###############################################################################
#
# This file contains modified crystal structure data generated from the
# MOF subset of the Cambridge Structural Database (CSD) v543 
# hosted by the Cambridge Crystallographic Data Centre (CCDC).
#
# This work is licensed under the Creative Commons
# Attribution-NonCommercial-ShareAlike 4.0 International License.
# To view a copy of this license, visit
# http://creativecommons.org/licenses/by-nc-sa/4.0/
# or send a letter to
# Creative Commons, PO Box 1866, Mountain View, CA 94042, USA.
#
# CIF created using the CSD Python API on 29 September 2022
# The structure has been converted into the P1 space group
# The structure has a 3D framework
# The original CSD entry ROQVIE is in the monoclinic crystal system
# The framework has been calculated to contain at least 10.0% void space
# The void calculation uses a probe of radius 1.32A, grid spacing 0.4
#
###############################################################################

data_ROQVIE
_chemical_formula_moiety         '(C40 H24 N24 Zn2)n'
_symmetry_cell_setting           triclinic
_symmetry_space_group_name_H-M   'P 1'
_symmetry_Int_Tables_number      1
_space_group_name_Hall           'P 1'
loop_
_symmetry_equiv_pos_site_id
_symmetry_equiv_pos_as_xyz
1 x,y,z
_cell_length_a                   7.2259(2)
_cell_length_b                   18.6983(6)
_cell_length_c                   15.1420(6)
_cell_angle_alpha                90
_cell_angle_beta                 93.144(3)
_cell_angle_gamma                90
_cell_volume                     2042.79
loop_
_atom_site_label
_atom_site_type_symbol
_atom_site_fract_x
_atom_site_fract_y
_atom_site_fract_z
Zn1 Zn 0.36247(4) 0.579672(17) 0.48077(2)
N3 N 0.3204(4) 0.66093(15) 0.5675(2)
N4 N 0.2232(3) 0.88536(15) 0.87211(18)
N5 N 0.3226(3) 0.84339(16) 0.8182(2)
N6 N 0.0186(4) 0.83319(16) 0.7782(2)
C3 C 0.2400(4) 0.7617(2) 0.6953(3)
C4 C 0.0439(4) 0.87808(17) 0.8459(2)
C5 C 0.1521(5) 0.6890(3) 0.5719(3)
H2 H 0.0597 0.6744 0.5305
C7 C 0.1963(4) 0.81378(19) 0.7640(2)
C8 C 0.1076(5) 0.7385(3) 0.6346(3)
C9 C 0.4496(5) 0.6842(3) 0.6265(3)
H5 H 0.5689 0.6658 0.6246
C10 C 0.4154(5) 0.7340(3) 0.6900(3)
H6 H 0.5107 0.7490 0.7294
Zn4 Zn 0.36247(4) 0.920328(17) 0.98077(2)
N7 N 0.6275(3) 0.57039(13) 0.4558(2)
N8 N 0.2803(3) 0.49328(14) 0.54344(17)
N9 N 0.2232(3) 0.61464(15) 0.37211(18)
Zn2 Zn 0.63753(4) 0.079672(17) 0.01923(2)
N1 N 0.6275(3) 0.92961(13) 0.9558(2)
N2 N 0.7197(3) 0.99328(14) 0.95656(17)
C1 C 0.8919(4) 0.91325(17) 0.8897(2)
C2 C 0.8779(4) 0.98346(18) 0.9171(2)
C6 C 0.7298(4) 0.88220(18) 0.9150(2)
H3 H 0.6969 0.8347 0.9050
H4 H 0.9874 0.7561 0.6354
N1_2 N 0.3725(3) 0.42961(13) 0.5442(2)
C1_2 C 0.1081(4) 0.41325(17) 0.6103(2)
C2_2 C 0.1221(4) 0.48346(18) 0.5829(2)
H1 H 0.0338 0.5187 0.5909
C6_2 C 0.2702(4) 0.38220(18) 0.5850(2)
H3_2 H 0.3031 0.3347 0.5950
H4_2 H 0.0126 0.2561 0.8646
Zn3 Zn 0.63753(4) 0.420328(17) 0.51923(2)
N7_2 N 0.3725(3) 0.07039(13) 0.0442(2)
N9_2 N 0.7768(3) 0.11464(15) 0.12789(18)
N3_2 N 0.6796(4) 0.16093(15) 0.9325(2)
N4_2 N 0.7768(3) 0.38536(15) 0.62789(18)
N5_2 N 0.6774(3) 0.34339(16) 0.6818(2)
N6_2 N 0.9814(4) 0.33319(16) 0.7218(2)
C3_2 C 0.7600(4) 0.2617(2) 0.8047(3)
C4_2 C 0.9561(4) 0.37808(17) 0.6541(2)
C5_2 C 0.8479(5) 0.1890(3) 0.9281(3)
H2_2 H 0.9403 0.1744 0.9695
C7_2 C 0.8037(4) 0.31378(19) 0.7360(2)
C8_2 C 0.8924(5) 0.2385(3) 0.8654(3)
C9_2 C 0.5504(5) 0.1842(3) 0.8735(3)
H5_2 H 0.4311 0.1658 0.8754
C10_2 C 0.5846(5) 0.2340(3) 0.8100(3)
H6_2 H 0.4893 0.2490 0.7706
N2_2 N 0.2803(3) 0.00672(14) 0.04344(17)
C1_3 C 0.1081(4) 0.08675(17) 0.1103(2)
C2_3 C 0.1221(4) 0.01654(18) 0.0829(2)
C6_3 C 0.2702(4) 0.11780(18) 0.0850(2)
H3_3 H 0.3031 0.1653 0.0950
H4_3 H 0.0126 0.2439 0.3646
N3_3 N 0.6796(4) 0.33907(15) 0.4325(2)
N5_3 N 0.6774(3) 0.15661(16) 0.1818(2)
N6_3 N 0.9814(4) 0.16681(16) 0.2218(2)
C3_3 C 0.7600(4) 0.2383(2) 0.3047(3)
C4_3 C 0.9561(4) 0.12192(17) 0.1541(2)
C5_3 C 0.8479(5) 0.3110(3) 0.4281(3)
H2_3 H 0.9403 0.3256 0.4695
C7_3 C 0.8037(4) 0.18622(19) 0.2360(2)
C8_3 C 0.8924(5) 0.2615(3) 0.3654(3)
C9_3 C 0.5504(5) 0.3158(3) 0.3735(3)
H5_3 H 0.4311 0.3342 0.3754
C10_3 C 0.5846(5) 0.2660(3) 0.3100(3)
H6_3 H 0.4893 0.2510 0.2706
N8_2 N 0.7197(3) 0.50672(14) 0.45656(17)
N3_4 N 0.3204(4) 0.83907(15) 0.0675(2)
N5_4 N 0.3226(3) 0.65661(16) 0.3182(2)
N6_4 N 0.0186(4) 0.66681(16) 0.2782(2)
C3_4 C 0.2400(4) 0.7383(2) 0.1953(3)
C4_4 C 0.0439(4) 0.62192(17) 0.3459(2)
C5_4 C 0.1521(5) 0.8110(3) 0.0719(3)
H2_4 H 0.0597 0.8256 0.0305
C7_4 C 0.1963(4) 0.68622(19) 0.2640(2)
C8_4 C 0.1076(5) 0.7615(3) 0.1346(3)
C9_4 C 0.4496(5) 0.8158(3) 0.1265(3)
H5_4 H 0.5689 0.8342 0.1246
C10_4 C 0.4154(5) 0.7660(3) 0.1900(3)
H6_4 H 0.5107 0.7510 0.2294
C1_4 C 0.8919(4) 0.58675(17) 0.3897(2)
C2_4 C 0.8779(4) 0.51654(18) 0.4171(2)
H1_2 H 0.9662 0.4813 0.4091
C6_4 C 0.7298(4) 0.61780(18) 0.4150(2)
H3_4 H 0.6969 0.6653 0.4050
H4_4 H 0.9874 0.7439 0.1354
H1_3 H 0.9662 0.0187 0.9091
H1_4 H 0.0338 0.9813 0.0909
loop_
_geom_bond_atom_site_label_1
_geom_bond_atom_site_label_2
_geom_bond_site_symmetry_1
_geom_bond_site_symmetry_2
Zn1 N3 1_555 1_555
N3 C5 1_555 1_555
N4 N5 1_555 1_555
N5 C7 1_555 1_555
N6 C4 1_555 1_555
C3 C7 1_555 1_555
C5 H2 1_555 1_555
C7 N6 1_555 1_555
C8 C3 1_555 1_555
C9 N3 1_555 1_555
H5 C9 1_555 1_555
C10 C3 1_555 1_555
H6 C10 1_555 1_555
Zn4 N4 1_555 1_555
N7 Zn1 1_555 1_555
N8 Zn1 1_555 1_555
N9 Zn1 1_555 1_555
N4 C4 1_555 1_555
C5 C8 1_555 1_555
C9 C10 1_555 1_555
N1 N2 1_555 1_555
N2 C2 1_555 1_555
C1 C2 1_555 1_555
C6 N1 1_555 1_555
H3 C6 1_555 1_555
Zn4 N1 1_555 1_555
C1 C6 1_555 1_555
N1_2 N8 1_555 1_555
N8 C2_2 1_555 1_555
C1_2 C2_2 1_555 1_555
C2_2 H1 1_555 1_555
C6_2 N1_2 1_555 1_555
H3_2 C6_2 1_555 1_555
Zn3 N1_2 1_555 1_555
C1_2 C6_2 1_555 1_555
N7_2 Zn2 1_555 1_555
N9_2 Zn2 1_555 1_555
N3_2 C5_2 1_555 1_555
N4_2 N5_2 1_555 1_555
N5_2 C7_2 1_555 1_555
N6_2 C4_2 1_555 1_555
C3_2 C7_2 1_555 1_555
C5_2 H2_2 1_555 1_555
C7_2 N6_2 1_555 1_555
C8_2 C3_2 1_555 1_555
C9_2 N3_2 1_555 1_555
H5_2 C9_2 1_555 1_555
C10_2 C3_2 1_555 1_555
H6_2 C10_2 1_555 1_555
Zn3 N4_2 1_555 1_555
N4_2 C4_2 1_555 1_555
C5_2 C8_2 1_555 1_555
C9_2 C10_2 1_555 1_555
N7_2 N2_2 1_555 1_555
N2_2 C2_3 1_555 1_555
C1_3 C2_3 1_555 1_555
C6_3 N7_2 1_555 1_555
H3_3 C6_3 1_555 1_555
C1_3 C6_3 1_555 1_555
Zn3 N3_3 1_555 1_555
N3_3 C5_3 1_555 1_555
N9_2 N5_3 1_555 1_555
N5_3 C7_3 1_555 1_555
N6_3 C4_3 1_555 1_555
C3_3 C7_3 1_555 1_555
C5_3 H2_3 1_555 1_555
C7_3 N6_3 1_555 1_555
C8_3 C3_3 1_555 1_555
C9_3 N3_3 1_555 1_555
H5_3 C9_3 1_555 1_555
C10_3 C3_3 1_555 1_555
H6_3 C10_3 1_555 1_555
N8_2 Zn3 1_555 1_555
N9_2 C4_3 1_555 1_555
C5_3 C8_3 1_555 1_555
C9_3 C10_3 1_555 1_555
N3_4 C5_4 1_555 1_555
N9 N5_4 1_555 1_555
N5_4 C7_4 1_555 1_555
N6_4 C4_4 1_555 1_555
C3_4 C7_4 1_555 1_555
C5_4 H2_4 1_555 1_555
C7_4 N6_4 1_555 1_555
C8_4 C3_4 1_555 1_555
C9_4 N3_4 1_555 1_555
H5_4 C9_4 1_555 1_555
C10_4 C3_4 1_555 1_555
H6_4 C10_4 1_555 1_555
N9 C4_4 1_555 1_555
C5_4 C8_4 1_555 1_555
C9_4 C10_4 1_555 1_555
N7 N8_2 1_555 1_555
N8_2 C2_4 1_555 1_555
C1_4 C2_4 1_555 1_555
C2_4 H1_2 1_555 1_555
C6_4 N7 1_555 1_555
H3_4 C6_4 1_555 1_555
C1_4 C6_4 1_555 1_555

#END
