
###############################################################################
#
# This file contains modified crystal structure data generated from the
# MOF subset of the Cambridge Structural Database (CSD) v543 
# hosted by the Cambridge Crystallographic Data Centre (CCDC).
#
# This work is licensed under the Creative Commons
# Attribution-NonCommercial-ShareAlike 4.0 International License.
# To view a copy of this license, visit
# http://creativecommons.org/licenses/by-nc-sa/4.0/
# or send a letter to
# Creative Commons, PO Box 1866, Mountain View, CA 94042, USA.
#
# CIF created using the CSD Python API on 29 September 2022
# The structure has been converted into the P1 space group
# The structure has a 3D framework
# The original CSD entry ROQZOP is in the orthorhombic crystal system
# The framework has been calculated to contain at least 10.0% void space
# The void calculation uses a probe of radius 1.32A, grid spacing 0.4
# H atom positions have been added when not included in the experimental data
# Generated hydrogen atom positions removed from atoms on special positions
#
###############################################################################

data_ROQZOP
_chemical_formula_moiety         '(C440 H384 O136 Zr28)n'
_symmetry_cell_setting           triclinic
_symmetry_space_group_name_H-M   'P 1'
_symmetry_Int_Tables_number      1
_space_group_name_Hall           'P 1'
loop_
_symmetry_equiv_pos_site_id
_symmetry_equiv_pos_as_xyz
1 x,y,z
_cell_length_a                   22.0159(12)
_cell_length_b                   42.2419(14)
_cell_length_c                   17.8711(5)
_cell_angle_alpha                90
_cell_angle_beta                 90
_cell_angle_gamma                90
_cell_volume                     16620
loop_
_atom_site_label
_atom_site_type_symbol
_atom_site_fract_x
_atom_site_fract_y
_atom_site_fract_z
O3 O 0.05975(14) 0.16514(7) 0.15282(16)
O4 O 0.11141(17) 0.20180(7) 0.0875(2)
C24 C 0.0896(3) 0.11918(13) 0.0484(3)
H14 H 0.0583 0.1146 0.0832
C25 C 0.1166(2) 0.14863(11) 0.0480(3)
C28 C 0.0947(2) 0.17362(11) 0.1005(3)
Zr4 Zr -0.0000 0.19191(2) 0.22840(2)
Zr9 Zr 0.08082(2) 0.2500 0.12946(3)
Zr2 Zr 0.08070(2) 0.2500 0.32758(3)
O1 O 0.06028(15) 0.16534(7) 0.30342(16)
O2 O 0.11045(18) 0.20235(7) 0.36978(19)
O5 O -0.0000 0.22137(13) 0.1288(4)
O6 O -0.0000 0.22162(13) 0.3280(4)
O7 O 0.0736(3) 0.2500 0.4513(2)
O8 O 0.1804(2) 0.2500 0.3225(3)
O9 O 0.0737(2) 0.2500 0.0065(3)
O10 O 0.1796(2) 0.2500 0.1317(3)
O11 O 0.0809(2) 0.22197(9) 0.22831(17)
C1 C 0.0938(2) 0.17433(11) 0.3569(3)
C2 C 0.1154(3) 0.14877(11) 0.4092(3)
C3 C 0.0976(3) 0.11814(13) 0.3999(4)
H1 H 0.0711 0.1128 0.3599
C4 C 0.1174(4) 0.09478(14) 0.4476(4)
H2 H 0.1051 0.0735 0.4395
C5 C 0.1553(3) 0.10202(12) 0.5074(3)
C6 C 0.1710(4) 0.13288(13) 0.5175(4)
H3 H 0.1956 0.1385 0.5591
C7 C 0.1521(3) 0.15597(13) 0.4690(3)
H4 H 0.1645 0.1773 0.4768
C8 C 0.1785(3) 0.07606(13) 0.5572(3)
C9 C 0.1589(5) 0.04558(15) 0.5499(4)
H5 H 0.1274 0.0408 0.5153
C10 C 0.1841(5) 0.02166(15) 0.5922(4)
H6 H 0.1718 0.0005 0.5829
C11 C 0.2254(3) 0.02711(12) 0.6462(3)
C12 C 0.2449(4) 0.05727(14) 0.6540(3)
H7 H 0.2751 0.0620 0.6903
C13 C 0.2215(3) 0.08165(15) 0.6101(3)
H8 H 0.2359 0.1026 0.6173
C14 C 0.2500 -0.0000 0.6914(4)
C15 C 0.2500 0.0000 0.7670(3)
C16 C 0.2239(3) 0.02665(13) 0.8122(3)
C17 C 0.2618(3) 0.04486(15) 0.8563(3)
H9 H 0.3039 0.0400 0.8581
C18 C 0.2399(3) 0.06976(15) 0.8974(3)
H10 H 0.2674 0.0827 0.9247
C19 C 0.1797(3) 0.07619(13) 0.8997(3)
C20 C 0.1410(3) 0.05776(15) 0.8567(4)
H11 H 0.0985 0.0618 0.8577
C21 C 0.1635(3) 0.03328(15) 0.8122(3)
H12 H 0.1366 0.0213 0.7818
C22 C 0.1559(3) 0.10171(13) 0.9494(3)
C23 C 0.1084(3) 0.09632(13) 0.9979(4)
H13 H 0.0880 0.0765 0.9966
C26 C 0.1631(3) 0.15454(13) 0.9988(3)
H15 H 0.1817 0.1748 0.9982
C27 C 0.1829(3) 0.13139(14) 0.9504(3)
H16 H 0.2155 0.1358 0.9173
O18 O 0.11045(18) 0.29765(7) 0.36978(19)
O22 O 0.11141(17) 0.29820(7) 0.0875(2)
O23 O -0.0000 0.27863(13) 0.1288(4)
O24 O -0.0000 0.27838(13) 0.3280(4)
O25 O 0.0809(2) 0.27803(9) 0.22831(17)
O14 O 0.44025(14) 0.83486(7) 0.15282(16)
O15 O 0.38859(17) 0.79820(7) 0.0875(2)
C50 C 0.4104(3) 0.88082(13) 0.0484(3)
H30 H 0.4417 0.8854 0.0832
C51 C 0.3834(2) 0.85137(11) 0.0480(3)
C54 C 0.4053(2) 0.82638(11) 0.1005(3)
Zr6 Zr 0.5000 0.80809(2) 0.22840(2)
Zr11 Zr 0.41918(2) 0.7500 0.12946(3)
C14_2 C 0.2500 1.0000 0.6914(4)
C15_2 C 0.2500 1.0000 0.7670(3)
O12 O 0.43972(15) 0.83466(7) 0.30342(16)
O13 O 0.38955(18) 0.79765(7) 0.36978(19)
C29 C 0.4062(2) 0.82567(11) 0.3569(3)
C30 C 0.3846(3) 0.85123(11) 0.4092(3)
C31 C 0.4024(3) 0.88186(13) 0.3999(4)
H17 H 0.4289 0.8872 0.3599
C32 C 0.3826(4) 0.90522(14) 0.4476(4)
H18 H 0.3949 0.9265 0.4395
C33 C 0.3447(3) 0.89798(12) 0.5074(3)
C34 C 0.3290(4) 0.86712(13) 0.5175(4)
H19 H 0.3044 0.8615 0.5591
C35 C 0.3479(3) 0.84403(13) 0.4690(3)
H20 H 0.3355 0.8227 0.4768
C36 C 0.3215(3) 0.92394(13) 0.5572(3)
C37 C 0.3411(5) 0.95442(15) 0.5499(4)
H21 H 0.3726 0.9592 0.5153
C38 C 0.3159(5) 0.97834(15) 0.5922(4)
H22 H 0.3282 0.9995 0.5829
C39 C 0.2746(3) 0.97289(12) 0.6462(3)
C40 C 0.2551(4) 0.94273(14) 0.6540(3)
H23 H 0.2249 0.9380 0.6903
C41 C 0.2785(3) 0.91835(15) 0.6101(3)
H24 H 0.2641 0.8974 0.6173
C42 C 0.2761(3) 0.97335(13) 0.8122(3)
C43 C 0.2382(3) 0.95514(15) 0.8563(3)
H25 H 0.1961 0.9600 0.8581
C44 C 0.2601(3) 0.93024(15) 0.8974(3)
H26 H 0.2326 0.9173 0.9247
C45 C 0.3203(3) 0.92381(13) 0.8997(3)
C46 C 0.3590(3) 0.94224(15) 0.8567(4)
H27 H 0.4015 0.9382 0.8577
C47 C 0.3365(3) 0.96672(15) 0.8122(3)
H28 H 0.3634 0.9787 0.7818
C48 C 0.3441(3) 0.89829(13) 0.9494(3)
C49 C 0.3916(3) 0.90368(13) 0.9979(4)
H29 H 0.4120 0.9235 0.9966
C52 C 0.3369(3) 0.84546(13) 0.9988(3)
H31 H 0.3183 0.8252 0.9982
C53 C 0.3171(3) 0.86861(14) 0.9504(3)
H32 H 0.2845 0.8642 0.9173
Zr8 Zr 0.41930(2) 0.7500 0.32758(3)
Zr4_2 Zr 1.0000 0.19191(2) 0.22840(2)
O5_2 O 1.0000 0.22137(13) 0.1288(4)
O6_2 O 1.0000 0.22162(13) 0.3280(4)
O16 O 0.9191(2) 0.22197(9) 0.22831(17)
Zr7 Zr 0.91930(2) 0.2500 0.32758(3)
Zr10 Zr 0.91918(2) 0.2500 0.12946(3)
O17 O 0.93972(15) 0.16534(7) 0.30342(16)
O20 O 0.94025(14) 0.16514(7) 0.15282(16)
O23_2 O 1.0000 0.27863(13) 0.1288(4)
O24_2 O 1.0000 0.27838(13) 0.3280(4)
Zr4_3 Zr -0.0000 0.30809(2) 0.22840(2)
O17_2 O 0.06028(15) 0.33466(7) 0.30342(16)
O20_2 O 0.05975(14) 0.33486(7) 0.15282(16)
O3_2 O 0.94025(14) 0.33486(7) 0.15282(16)
O4_2 O 0.88859(17) 0.29820(7) 0.0875(2)
C24_2 C 0.9104(3) 0.38082(13) 0.0484(3)
H14_2 H 0.9417 0.3854 0.0832
C25_2 C 0.8834(2) 0.35137(11) 0.0480(3)
C28_2 C 0.9053(2) 0.32638(11) 0.1005(3)
O14_2 O 0.55975(14) 0.66514(7) 0.15282(16)
O15_2 O 0.61141(17) 0.70180(7) 0.0875(2)
C50_2 C 0.5896(3) 0.61918(13) 0.0484(3)
H30_2 H 0.5583 0.6146 0.0832
C51_2 C 0.6166(2) 0.64863(11) 0.0480(3)
C54_2 C 0.5947(2) 0.67362(11) 0.1005(3)
Zr4_4 Zr 1.0000 0.30809(2) 0.22840(2)
Zr6_2 Zr 0.5000 0.69191(2) 0.22840(2)
Zr11_2 Zr 0.58082(2) 0.7500 0.12946(3)
O1_2 O 0.93972(15) 0.33466(7) 0.30342(16)
O2_2 O 0.88955(18) 0.29765(7) 0.36978(19)
O7_2 O 0.9264(3) 0.2500 0.4513(2)
O8_2 O 0.8196(2) 0.2500 0.3225(3)
O9_2 O 0.9263(2) 0.2500 0.0065(3)
O10_2 O 0.8204(2) 0.2500 0.1317(3)
O11_2 O 0.9191(2) 0.27803(9) 0.22831(17)
C1_2 C 0.9062(2) 0.32567(11) 0.3569(3)
C2_2 C 0.8846(3) 0.35123(11) 0.4092(3)
C3_2 C 0.9024(3) 0.38186(13) 0.3999(4)
H1_2 H 0.9289 0.3872 0.3599
C4_2 C 0.8826(4) 0.40522(14) 0.4476(4)
H2_2 H 0.8949 0.4265 0.4395
C5_2 C 0.8447(3) 0.39798(12) 0.5074(3)
C6_2 C 0.8290(4) 0.36712(13) 0.5175(4)
H3_2 H 0.8044 0.3615 0.5591
C7_2 C 0.8479(3) 0.34403(13) 0.4690(3)
H4_2 H 0.8355 0.3227 0.4768
C8_2 C 0.8215(3) 0.42394(13) 0.5572(3)
C9_2 C 0.8411(5) 0.45442(15) 0.5499(4)
H5_2 H 0.8726 0.4592 0.5153
C10_2 C 0.8159(5) 0.47834(15) 0.5922(4)
H6_2 H 0.8282 0.4995 0.5829
C11_2 C 0.7746(3) 0.47289(12) 0.6462(3)
C12_2 C 0.7551(4) 0.44273(14) 0.6540(3)
H7_2 H 0.7249 0.4380 0.6903
C13_2 C 0.7785(3) 0.41835(15) 0.6101(3)
H8_2 H 0.7641 0.3974 0.6173
C14_3 C 0.7500 0.5000 0.6914(4)
C15_3 C 0.7500 0.5000 0.7670(3)
C16_2 C 0.7761(3) 0.47335(13) 0.8122(3)
C17_2 C 0.7382(3) 0.45514(15) 0.8563(3)
H9_2 H 0.6961 0.4600 0.8581
C18_2 C 0.7601(3) 0.43024(15) 0.8974(3)
H10_2 H 0.7326 0.4173 0.9247
C19_2 C 0.8203(3) 0.42381(13) 0.8997(3)
C20_2 C 0.8590(3) 0.44224(15) 0.8567(4)
H11_2 H 0.9015 0.4382 0.8577
C21_2 C 0.8365(3) 0.46672(15) 0.8122(3)
H12_2 H 0.8634 0.4787 0.7818
C22_2 C 0.8441(3) 0.39829(13) 0.9494(3)
C23_2 C 0.8916(3) 0.40368(13) 0.9979(4)
H13_2 H 0.9120 0.4235 0.9966
C26_2 C 0.8369(3) 0.34546(13) 0.9988(3)
H15_2 H 0.8183 0.3252 0.9982
C27_2 C 0.8171(3) 0.36861(14) 0.9504(3)
H16_2 H 0.7845 0.3642 0.9173
O12_2 O 0.56028(15) 0.66534(7) 0.30342(16)
O13_2 O 0.61045(18) 0.70235(7) 0.36978(19)
C29_2 C 0.5938(2) 0.67433(11) 0.3569(3)
C30_2 C 0.6154(3) 0.64877(11) 0.4092(3)
C31_2 C 0.5976(3) 0.61814(13) 0.3999(4)
H17_2 H 0.5711 0.6128 0.3599
C32_2 C 0.6174(4) 0.59478(14) 0.4476(4)
H18_2 H 0.6051 0.5735 0.4395
C33_2 C 0.6553(3) 0.60202(12) 0.5074(3)
C34_2 C 0.6710(4) 0.63288(13) 0.5175(4)
H19_2 H 0.6956 0.6385 0.5591
C35_2 C 0.6521(3) 0.65597(13) 0.4690(3)
H20_2 H 0.6645 0.6773 0.4768
C36_2 C 0.6785(3) 0.57606(13) 0.5572(3)
C37_2 C 0.6589(5) 0.54558(15) 0.5499(4)
H21_2 H 0.6274 0.5408 0.5153
C38_2 C 0.6841(5) 0.52166(15) 0.5922(4)
H22_2 H 0.6718 0.5005 0.5829
C39_2 C 0.7254(3) 0.52711(12) 0.6462(3)
C40_2 C 0.7449(4) 0.55727(14) 0.6540(3)
H23_2 H 0.7751 0.5620 0.6903
C41_2 C 0.7215(3) 0.58165(15) 0.6101(3)
H24_2 H 0.7359 0.6026 0.6173
C42_2 C 0.7239(3) 0.52665(13) 0.8122(3)
C43_2 C 0.7618(3) 0.54486(15) 0.8563(3)
H25_2 H 0.8039 0.5400 0.8581
C44_2 C 0.7399(3) 0.56976(15) 0.8974(3)
H26_2 H 0.7674 0.5827 0.9247
C45_2 C 0.6797(3) 0.57619(13) 0.8997(3)
C46_2 C 0.6410(3) 0.55776(15) 0.8567(4)
H27_2 H 0.5985 0.5618 0.8577
C47_2 C 0.6635(3) 0.53328(15) 0.8122(3)
H28_2 H 0.6366 0.5213 0.7818
C48_2 C 0.6559(3) 0.60171(13) 0.9494(3)
C49_2 C 0.6084(3) 0.59632(13) 0.9979(4)
H29_2 H 0.5880 0.5765 0.9966
C52_2 C 0.6631(3) 0.65454(13) 0.9988(3)
H31_2 H 0.6817 0.6748 0.9982
C53_2 C 0.6829(3) 0.63139(14) 0.9504(3)
H32_2 H 0.7155 0.6358 0.9173
Zr8_2 Zr 0.58070(2) 0.7500 0.32758(3)
O18_2 O 0.88955(18) 0.20235(7) 0.36978(19)
O22_2 O 0.88859(17) 0.20180(7) 0.0875(2)
O5_3 O 0.5000 0.72137(13) 0.1288(4)
O6_3 O 0.5000 0.72162(13) 0.3280(4)
O7_3 O 0.5736(3) 0.7500 0.4513(2)
O8_3 O 0.6804(2) 0.7500 0.3225(3)
O9_3 O 0.5737(2) 0.7500 0.0065(3)
O10_3 O 0.6796(2) 0.7500 0.1317(3)
O11_3 O 0.5809(2) 0.72197(9) 0.22831(17)
O16_2 O 0.4191(2) 0.72197(9) 0.22831(17)
O17_3 O 0.43972(15) 0.66534(7) 0.30342(16)
O18_3 O 0.61045(18) 0.79765(7) 0.36978(19)
O20_3 O 0.44025(14) 0.66514(7) 0.15282(16)
O22_3 O 0.61141(17) 0.79820(7) 0.0875(2)
O23_3 O 0.5000 0.77863(13) 0.1288(4)
O24_3 O 0.5000 0.77838(13) 0.3280(4)
O25_2 O 0.5809(2) 0.77803(9) 0.22831(17)
O7_4 O 0.4264(3) 0.7500 0.4513(2)
O8_4 O 0.3196(2) 0.7500 0.3225(3)
O9_4 O 0.4263(2) 0.7500 0.0065(3)
O10_4 O 0.3204(2) 0.7500 0.1317(3)
O11_4 O 0.4191(2) 0.77803(9) 0.22831(17)
O17_4 O 0.56028(15) 0.83466(7) 0.30342(16)
O18_4 O 0.38955(18) 0.70235(7) 0.36978(19)
O20_4 O 0.55975(14) 0.83486(7) 0.15282(16)
O22_4 O 0.38859(17) 0.70180(7) 0.0875(2)
C24_3 C 0.9104(3) 0.11918(13) 0.0484(3)
H14_3 H 0.9417 0.1146 0.0832
C25_3 C 0.8834(2) 0.14863(11) 0.0480(3)
C28_3 C 0.9053(2) 0.17362(11) 0.1005(3)
C1_3 C 0.9062(2) 0.17433(11) 0.3569(3)
C2_3 C 0.8846(3) 0.14877(11) 0.4092(3)
C3_3 C 0.9024(3) 0.11814(13) 0.3999(4)
H1_3 H 0.9289 0.1128 0.3599
C4_3 C 0.8826(4) 0.09478(14) 0.4476(4)
H2_3 H 0.8949 0.0735 0.4395
C5_3 C 0.8447(3) 0.10202(12) 0.5074(3)
C6_3 C 0.8290(4) 0.13288(13) 0.5175(4)
H3_3 H 0.8044 0.1385 0.5591
C7_3 C 0.8479(3) 0.15597(13) 0.4690(3)
H4_3 H 0.8355 0.1773 0.4768
C8_3 C 0.8215(3) 0.07606(13) 0.5572(3)
C9_3 C 0.8411(5) 0.04558(15) 0.5499(4)
H5_3 H 0.8726 0.0408 0.5153
C10_3 C 0.8159(5) 0.02166(15) 0.5922(4)
H6_3 H 0.8282 0.0005 0.5829
C11_3 C 0.7746(3) 0.02711(12) 0.6462(3)
C12_3 C 0.7551(4) 0.05727(14) 0.6540(3)
H7_3 H 0.7249 0.0620 0.6903
C13_3 C 0.7785(3) 0.08165(15) 0.6101(3)
H8_3 H 0.7641 0.1026 0.6173
C14_4 C 0.7500 -0.0000 0.6914(4)
C15_4 C 0.7500 0.0000 0.7670(3)
C16_3 C 0.7761(3) 0.02665(13) 0.8122(3)
C17_3 C 0.7382(3) 0.04486(15) 0.8563(3)
H9_3 H 0.6961 0.0400 0.8581
C18_3 C 0.7601(3) 0.06976(15) 0.8974(3)
H10_3 H 0.7326 0.0827 0.9247
C19_3 C 0.8203(3) 0.07619(13) 0.8997(3)
C20_3 C 0.8590(3) 0.05776(15) 0.8567(4)
H11_3 H 0.9015 0.0618 0.8577
C21_3 C 0.8365(3) 0.03328(15) 0.8122(3)
H12_3 H 0.8634 0.0213 0.7818
C22_3 C 0.8441(3) 0.10171(13) 0.9494(3)
C23_3 C 0.8916(3) 0.09632(13) 0.9979(4)
H13_3 H 0.9120 0.0765 0.9966
C26_3 C 0.8369(3) 0.15454(13) 0.9988(3)
H15_3 H 0.8183 0.1748 0.9982
C27_3 C 0.8171(3) 0.13139(14) 0.9504(3)
H16_3 H 0.7845 0.1358 0.9173
C50_3 C 0.5896(3) 0.88082(13) 0.0484(3)
H30_3 H 0.5583 0.8854 0.0832
C51_3 C 0.6166(2) 0.85137(11) 0.0480(3)
C54_3 C 0.5947(2) 0.82638(11) 0.1005(3)
C14_5 C 0.7500 1.0000 0.6914(4)
C15_5 C 0.7500 1.0000 0.7670(3)
C29_3 C 0.5938(2) 0.82567(11) 0.3569(3)
C30_3 C 0.6154(3) 0.85123(11) 0.4092(3)
C31_3 C 0.5976(3) 0.88186(13) 0.3999(4)
H17_3 H 0.5711 0.8872 0.3599
C32_3 C 0.6174(4) 0.90522(14) 0.4476(4)
H18_3 H 0.6051 0.9265 0.4395
C33_3 C 0.6553(3) 0.89798(12) 0.5074(3)
C34_3 C 0.6710(4) 0.86712(13) 0.5175(4)
H19_3 H 0.6956 0.8615 0.5591
C35_3 C 0.6521(3) 0.84403(13) 0.4690(3)
H20_3 H 0.6645 0.8227 0.4768
C36_3 C 0.6785(3) 0.92394(13) 0.5572(3)
C37_3 C 0.6589(5) 0.95442(15) 0.5499(4)
H21_3 H 0.6274 0.9592 0.5153
C38_3 C 0.6841(5) 0.97834(15) 0.5922(4)
H22_3 H 0.6718 0.9995 0.5829
C39_3 C 0.7254(3) 0.97289(12) 0.6462(3)
C40_3 C 0.7449(4) 0.94273(14) 0.6540(3)
H23_3 H 0.7751 0.9380 0.6903
C41_3 C 0.7215(3) 0.91835(15) 0.6101(3)
H24_3 H 0.7359 0.8974 0.6173
C42_3 C 0.7239(3) 0.97335(13) 0.8122(3)
C43_3 C 0.7618(3) 0.95514(15) 0.8563(3)
H25_3 H 0.8039 0.9600 0.8581
C44_3 C 0.7399(3) 0.93024(15) 0.8974(3)
H26_3 H 0.7674 0.9173 0.9247
C45_3 C 0.6797(3) 0.92381(13) 0.8997(3)
C46_3 C 0.6410(3) 0.94224(15) 0.8567(4)
H27_3 H 0.5985 0.9382 0.8577
C47_3 C 0.6635(3) 0.96672(15) 0.8122(3)
H28_3 H 0.6366 0.9787 0.7818
C48_3 C 0.6559(3) 0.89829(13) 0.9494(3)
C49_3 C 0.6084(3) 0.90368(13) 0.9979(4)
H29_3 H 0.5880 0.9235 0.9966
C52_3 C 0.6631(3) 0.84546(13) 0.9988(3)
H31_3 H 0.6817 0.8252 0.9982
C53_3 C 0.6829(3) 0.86861(14) 0.9504(3)
H32_3 H 0.7155 0.8642 0.9173
C24_4 C 0.0896(3) 0.38082(13) 0.0484(3)
H14_4 H 0.0583 0.3854 0.0832
C25_4 C 0.1166(2) 0.35137(11) 0.0480(3)
C28_4 C 0.0947(2) 0.32638(11) 0.1005(3)
C50_4 C 0.4104(3) 0.61918(13) 0.0484(3)
H30_4 H 0.4417 0.6146 0.0832
C51_4 C 0.3834(2) 0.64863(11) 0.0480(3)
C54_4 C 0.4053(2) 0.67362(11) 0.1005(3)
C1_4 C 0.0938(2) 0.32567(11) 0.3569(3)
C2_4 C 0.1154(3) 0.35123(11) 0.4092(3)
C3_4 C 0.0976(3) 0.38186(13) 0.3999(4)
H1_4 H 0.0711 0.3872 0.3599
C4_4 C 0.1174(4) 0.40522(14) 0.4476(4)
H2_4 H 0.1051 0.4265 0.4395
C5_4 C 0.1553(3) 0.39798(12) 0.5074(3)
C6_4 C 0.1710(4) 0.36712(13) 0.5175(4)
H3_4 H 0.1956 0.3615 0.5591
C7_4 C 0.1521(3) 0.34403(13) 0.4690(3)
H4_4 H 0.1645 0.3227 0.4768
C8_4 C 0.1785(3) 0.42394(13) 0.5572(3)
C9_4 C 0.1589(5) 0.45442(15) 0.5499(4)
H5_4 H 0.1274 0.4592 0.5153
C10_4 C 0.1841(5) 0.47834(15) 0.5922(4)
H6_4 H 0.1718 0.4995 0.5829
C11_4 C 0.2254(3) 0.47289(12) 0.6462(3)
C12_4 C 0.2449(4) 0.44273(14) 0.6540(3)
H7_4 H 0.2751 0.4380 0.6903
C13_4 C 0.2215(3) 0.41835(15) 0.6101(3)
H8_4 H 0.2359 0.3974 0.6173
C14_6 C 0.2500 0.5000 0.6914(4)
C15_6 C 0.2500 0.5000 0.7670(3)
C16_4 C 0.2239(3) 0.47335(13) 0.8122(3)
C17_4 C 0.2618(3) 0.45514(15) 0.8563(3)
H9_4 H 0.3039 0.4600 0.8581
C18_4 C 0.2399(3) 0.43024(15) 0.8974(3)
H10_4 H 0.2674 0.4173 0.9247
C19_4 C 0.1797(3) 0.42381(13) 0.8997(3)
C20_4 C 0.1410(3) 0.44224(15) 0.8567(4)
H11_4 H 0.0985 0.4382 0.8577
C21_4 C 0.1635(3) 0.46672(15) 0.8122(3)
H12_4 H 0.1366 0.4787 0.7818
C22_4 C 0.1559(3) 0.39829(13) 0.9494(3)
C23_4 C 0.1084(3) 0.40368(13) 0.9979(4)
H13_4 H 0.0880 0.4235 0.9966
C26_4 C 0.1631(3) 0.34546(13) 0.9988(3)
H15_4 H 0.1817 0.3252 0.9982
C27_4 C 0.1829(3) 0.36861(14) 0.9504(3)
H16_4 H 0.2155 0.3642 0.9173
C29_4 C 0.4062(2) 0.67433(11) 0.3569(3)
C30_4 C 0.3846(3) 0.64877(11) 0.4092(3)
C31_4 C 0.4024(3) 0.61814(13) 0.3999(4)
H17_4 H 0.4289 0.6128 0.3599
C32_4 C 0.3826(4) 0.59478(14) 0.4476(4)
H18_4 H 0.3949 0.5735 0.4395
C33_4 C 0.3447(3) 0.60202(12) 0.5074(3)
C34_4 C 0.3290(4) 0.63288(13) 0.5175(4)
H19_4 H 0.3044 0.6385 0.5591
C35_4 C 0.3479(3) 0.65597(13) 0.4690(3)
H20_4 H 0.3355 0.6773 0.4768
C36_4 C 0.3215(3) 0.57606(13) 0.5572(3)
C37_4 C 0.3411(5) 0.54558(15) 0.5499(4)
H21_4 H 0.3726 0.5408 0.5153
C38_4 C 0.3159(5) 0.52166(15) 0.5922(4)
H22_4 H 0.3282 0.5005 0.5829
C39_4 C 0.2746(3) 0.52711(12) 0.6462(3)
C40_4 C 0.2551(4) 0.55727(14) 0.6540(3)
H23_4 H 0.2249 0.5620 0.6903
C41_4 C 0.2785(3) 0.58165(15) 0.6101(3)
H24_4 H 0.2641 0.6026 0.6173
C42_4 C 0.2761(3) 0.52665(13) 0.8122(3)
C43_4 C 0.2382(3) 0.54486(15) 0.8563(3)
H25_4 H 0.1961 0.5400 0.8581
C44_4 C 0.2601(3) 0.56976(15) 0.8974(3)
H26_4 H 0.2326 0.5827 0.9247
C45_4 C 0.3203(3) 0.57619(13) 0.8997(3)
C46_4 C 0.3590(3) 0.55776(15) 0.8567(4)
H27_4 H 0.4015 0.5618 0.8577
C47_4 C 0.3365(3) 0.53328(15) 0.8122(3)
H28_4 H 0.3634 0.5213 0.7818
C48_4 C 0.3441(3) 0.60171(13) 0.9494(3)
C49_4 C 0.3916(3) 0.59632(13) 0.9979(4)
H29_4 H 0.4120 0.5765 0.9966
C52_4 C 0.3369(3) 0.65454(13) 0.9988(3)
H31_4 H 0.3183 0.6748 0.9982
C53_4 C 0.3171(3) 0.63139(14) 0.9504(3)
H32_4 H 0.2845 0.6358 0.9173
H39 H 0.034415 0.259617 0.991384
H40 H 0.107677 0.262484 0.984946
H39_2 H 0.965585 0.240383 0.991384
H40_2 H 0.892323 0.237516 0.984946
C14_7 C 0.2500 -0.0000 0.3086(4)
C15_7 C 0.2500 -0.0000 0.2330(3)
O12_3 O 0.43972(15) 0.16534(7) 0.69658(16)
O13_3 O 0.38955(18) 0.20235(7) 0.63022(19)
C29_5 C 0.4062(2) 0.17433(11) 0.6431(3)
C30_5 C 0.3846(3) 0.14877(11) 0.5908(3)
C31_5 C 0.4024(3) 0.11814(13) 0.6001(4)
H17_5 H 0.4289 0.1128 0.6401
C32_5 C 0.3826(4) 0.09478(14) 0.5524(4)
H18_5 H 0.3949 0.0735 0.5605
C33_5 C 0.3447(3) 0.10202(12) 0.4926(3)
C34_5 C 0.3290(4) 0.13288(13) 0.4825(4)
H19_5 H 0.3044 0.1385 0.4409
C35_5 C 0.3479(3) 0.15597(13) 0.5310(3)
H20_5 H 0.3355 0.1773 0.5232
C36_5 C 0.3215(3) 0.07606(13) 0.4428(3)
C37_5 C 0.3411(5) 0.04558(15) 0.4501(4)
H21_5 H 0.3726 0.0408 0.4847
C38_5 C 0.3159(5) 0.02166(15) 0.4078(4)
H22_5 H 0.3282 0.0005 0.4171
C39_5 C 0.2746(3) 0.02711(12) 0.3538(3)
C40_5 C 0.2551(4) 0.05727(14) 0.3460(3)
H23_5 H 0.2249 0.0620 0.3097
C41_5 C 0.2785(3) 0.08165(15) 0.3899(3)
H24_5 H 0.2641 0.1026 0.3827
C42_5 C 0.2761(3) 0.02665(13) 0.1878(3)
C43_5 C 0.2382(3) 0.04486(15) 0.1437(3)
H25_5 H 0.1961 0.0400 0.1419
C44_5 C 0.2601(3) 0.06976(15) 0.1026(3)
H26_5 H 0.2326 0.0827 0.0753
C45_5 C 0.3203(3) 0.07619(13) 0.1003(3)
C46_5 C 0.3590(3) 0.05776(15) 0.1433(4)
H27_5 H 0.4015 0.0618 0.1423
C47_5 C 0.3365(3) 0.03328(15) 0.1878(3)
H28_5 H 0.3634 0.0213 0.2182
C48_5 C 0.3441(3) 0.10171(13) 0.0506(3)
C49_5 C 0.3916(3) 0.09632(13) 0.0021(4)
H29_5 H 0.4120 0.0765 0.0034
C52_5 C 0.3369(3) 0.15454(13) 0.0012(3)
H31_5 H 0.3183 0.1748 0.0018
C53_5 C 0.3171(3) 0.13139(14) 0.0496(3)
H32_5 H 0.2845 0.1358 0.0827
Zr5 Zr 0.5000 0.19191(2) 0.77160(2)
Zr8_3 Zr 0.41930(2) 0.2500 0.67242(3)
O14_3 O 0.44025(14) 0.16514(7) 0.84718(16)
O15_3 O 0.38859(17) 0.20180(7) 0.9125(2)
C50_5 C 0.4104(3) 0.11918(13) 0.9516(3)
H30_5 H 0.4417 0.1146 0.9168
C51_5 C 0.3834(2) 0.14863(11) 0.9520(3)
C54_5 C 0.4053(2) 0.17362(11) 0.8995(3)
Zr11_3 Zr 0.41918(2) 0.2500 0.87054(3)
Zr1 Zr 0.0000 0.80809(2) 0.77160(2)
Zr2_2 Zr 0.08070(2) 0.7500 0.67242(3)
Zr3 Zr 0.08082(2) 0.7500 0.87054(3)
O1_3 O 0.06028(15) 0.83466(7) 0.69658(16)
O2_3 O 0.11045(18) 0.79765(7) 0.63022(19)
O5_4 O -0.0000 0.77863(13) 0.8712(4)
O6_4 O -0.0000 0.77838(13) 0.6720(4)
O7_5 O 0.0736(3) 0.7500 0.5487(2)
O8_5 O 0.1804(2) 0.7500 0.6775(3)
O9_5 O 0.0737(2) 0.7500 0.9935(3)
O10_5 O 0.1796(2) 0.7500 0.8683(3)
O11_5 O 0.0809(2) 0.77803(9) 0.77169(17)
C1_5 C 0.0938(2) 0.82567(11) 0.6431(3)
C2_5 C 0.1154(3) 0.85123(11) 0.5908(3)
C3_5 C 0.0976(3) 0.88186(13) 0.6001(4)
H1_5 H 0.0711 0.8872 0.6401
C4_5 C 0.1174(4) 0.90522(14) 0.5524(4)
H2_5 H 0.1051 0.9265 0.5605
C5_5 C 0.1553(3) 0.89798(12) 0.4926(3)
C6_5 C 0.1710(4) 0.86712(13) 0.4825(4)
H3_5 H 0.1956 0.8615 0.4409
C7_5 C 0.1521(3) 0.84403(13) 0.5310(3)
H4_5 H 0.1645 0.8227 0.5232
C8_5 C 0.1785(3) 0.92394(13) 0.4428(3)
C9_5 C 0.1589(5) 0.95442(15) 0.4501(4)
H5_5 H 0.1274 0.9592 0.4847
C10_5 C 0.1841(5) 0.97834(15) 0.4078(4)
H6_5 H 0.1718 0.9995 0.4171
C11_5 C 0.2254(3) 0.97289(12) 0.3538(3)
C12_5 C 0.2449(4) 0.94273(14) 0.3460(3)
H7_5 H 0.2751 0.9380 0.3097
C13_5 C 0.2215(3) 0.91835(15) 0.3899(3)
H8_5 H 0.2359 0.8974 0.3827
C14_8 C 0.2500 1.0000 0.3086(4)
C15_8 C 0.2500 1.0000 0.2330(3)
C16_5 C 0.2239(3) 0.97335(13) 0.1878(3)
C17_5 C 0.2618(3) 0.95514(15) 0.1437(3)
H9_5 H 0.3039 0.9600 0.1419
C18_5 C 0.2399(3) 0.93024(15) 0.1026(3)
H10_5 H 0.2674 0.9173 0.0753
C19_5 C 0.1797(3) 0.92381(13) 0.1003(3)
C20_5 C 0.1410(3) 0.94224(15) 0.1433(4)
H11_5 H 0.0985 0.9382 0.1423
C21_5 C 0.1635(3) 0.96672(15) 0.1878(3)
H12_5 H 0.1366 0.9787 0.2182
C22_5 C 0.1559(3) 0.89829(13) 0.0506(3)
C23_5 C 0.1084(3) 0.90368(13) 0.0021(4)
H13_5 H 0.0880 0.9235 0.0034
C26_5 C 0.1631(3) 0.84546(13) 0.0012(3)
H15_5 H 0.1817 0.8252 0.0018
C27_5 C 0.1829(3) 0.86861(14) 0.0496(3)
H16_5 H 0.2155 0.8642 0.0827
O18_5 O 0.11045(18) 0.70235(7) 0.63022(19)
O19 O 0.05975(14) 0.83486(7) 0.84718(16)
O21 O 0.11141(17) 0.79820(7) 0.9125(2)
O22_5 O 0.11141(17) 0.70180(7) 0.9125(2)
O23_4 O 0.0000 0.72137(13) 0.8712(4)
O24_4 O -0.0000 0.72162(13) 0.6720(4)
O25_3 O 0.0809(2) 0.72197(9) 0.77169(17)
C24_5 C 0.0896(3) 0.88082(13) 0.9516(3)
H14_5 H 0.0583 0.8854 0.9168
C25_5 C 0.1166(2) 0.85137(11) 0.9520(3)
C28_5 C 0.0947(2) 0.82638(11) 0.8995(3)
Zr1_2 Zr 1.0000 0.80809(2) 0.77160(2)
O5_5 O 1.0000 0.77863(13) 0.8712(4)
O6_5 O 1.0000 0.77838(13) 0.6720(4)
O16_3 O 0.9191(2) 0.77803(9) 0.77169(17)
Zr7_2 Zr 0.91930(2) 0.7500 0.67242(3)
Zr10_2 Zr 0.91918(2) 0.7500 0.87054(3)
O17_5 O 0.93972(15) 0.83466(7) 0.69658(16)
O20_5 O 0.94025(14) 0.83486(7) 0.84718(16)
O23_5 O 1.0000 0.72137(13) 0.8712(4)
O24_5 O 1.0000 0.72162(13) 0.6720(4)
Zr1_3 Zr -0.0000 0.69191(2) 0.77160(2)
O17_6 O 0.06028(15) 0.66534(7) 0.69658(16)
O20_6 O 0.05975(14) 0.66514(7) 0.84718(16)
Zr1_4 Zr 1.0000 0.69191(2) 0.77160(2)
O1_4 O 0.93972(15) 0.66534(7) 0.69658(16)
O2_4 O 0.88955(18) 0.70235(7) 0.63022(19)
O7_6 O 0.9264(3) 0.7500 0.5487(2)
O8_6 O 0.8196(2) 0.7500 0.6775(3)
O9_6 O 0.9263(2) 0.7500 0.9935(3)
O10_6 O 0.8204(2) 0.7500 0.8683(3)
O11_6 O 0.9191(2) 0.72197(9) 0.77169(17)
C1_6 C 0.9062(2) 0.67433(11) 0.6431(3)
C2_6 C 0.8846(3) 0.64877(11) 0.5908(3)
C3_6 C 0.9024(3) 0.61814(13) 0.6001(4)
H1_6 H 0.9289 0.6128 0.6401
C4_6 C 0.8826(4) 0.59478(14) 0.5524(4)
H2_6 H 0.8949 0.5735 0.5605
C5_6 C 0.8447(3) 0.60202(12) 0.4926(3)
C6_6 C 0.8290(4) 0.63288(13) 0.4825(4)
H3_6 H 0.8044 0.6385 0.4409
C7_6 C 0.8479(3) 0.65597(13) 0.5310(3)
H4_6 H 0.8355 0.6773 0.5232
C8_6 C 0.8215(3) 0.57606(13) 0.4428(3)
C9_6 C 0.8411(5) 0.54558(15) 0.4501(4)
H5_6 H 0.8726 0.5408 0.4847
C10_6 C 0.8159(5) 0.52166(15) 0.4078(4)
H6_6 H 0.8282 0.5005 0.4171
C11_6 C 0.7746(3) 0.52711(12) 0.3538(3)
C12_6 C 0.7551(4) 0.55727(14) 0.3460(3)
H7_6 H 0.7249 0.5620 0.3097
C13_6 C 0.7785(3) 0.58165(15) 0.3899(3)
H8_6 H 0.7641 0.6026 0.3827
C14_9 C 0.7500 0.5000 0.3086(4)
C15_9 C 0.7500 0.5000 0.2330(3)
C16_6 C 0.7761(3) 0.52665(13) 0.1878(3)
C17_6 C 0.7382(3) 0.54486(15) 0.1437(3)
H9_6 H 0.6961 0.5400 0.1419
C18_6 C 0.7601(3) 0.56976(15) 0.1026(3)
H10_6 H 0.7326 0.5827 0.0753
C19_6 C 0.8203(3) 0.57619(13) 0.1003(3)
C20_6 C 0.8590(3) 0.55776(15) 0.1433(4)
H11_6 H 0.9015 0.5618 0.1423
C21_6 C 0.8365(3) 0.53328(15) 0.1878(3)
H12_6 H 0.8634 0.5213 0.2182
C22_6 C 0.8441(3) 0.60171(13) 0.0506(3)
C23_6 C 0.8916(3) 0.59632(13) 0.0021(4)
H13_6 H 0.9120 0.5765 0.0034
C26_6 C 0.8369(3) 0.65454(13) 0.0012(3)
H15_6 H 0.8183 0.6748 0.0018
C27_6 C 0.8171(3) 0.63139(14) 0.0496(3)
H16_6 H 0.7845 0.6358 0.0827
O12_4 O 0.56028(15) 0.33466(7) 0.69658(16)
O13_4 O 0.61045(18) 0.29765(7) 0.63022(19)
C29_6 C 0.5938(2) 0.32567(11) 0.6431(3)
C30_6 C 0.6154(3) 0.35123(11) 0.5908(3)
C31_6 C 0.5976(3) 0.38186(13) 0.6001(4)
H17_6 H 0.5711 0.3872 0.6401
C32_6 C 0.6174(4) 0.40522(14) 0.5524(4)
H18_6 H 0.6051 0.4265 0.5605
C33_6 C 0.6553(3) 0.39798(12) 0.4926(3)
C34_6 C 0.6710(4) 0.36712(13) 0.4825(4)
H19_6 H 0.6956 0.3615 0.4409
C35_6 C 0.6521(3) 0.34403(13) 0.5310(3)
H20_6 H 0.6645 0.3227 0.5232
C36_6 C 0.6785(3) 0.42394(13) 0.4428(3)
C37_6 C 0.6589(5) 0.45442(15) 0.4501(4)
H21_6 H 0.6274 0.4592 0.4847
C38_6 C 0.6841(5) 0.47834(15) 0.4078(4)
H22_6 H 0.6718 0.4995 0.4171
C39_6 C 0.7254(3) 0.47289(12) 0.3538(3)
C40_6 C 0.7449(4) 0.44273(14) 0.3460(3)
H23_6 H 0.7751 0.4380 0.3097
C41_6 C 0.7215(3) 0.41835(15) 0.3899(3)
H24_6 H 0.7359 0.3974 0.3827
C42_6 C 0.7239(3) 0.47335(13) 0.1878(3)
C43_6 C 0.7618(3) 0.45514(15) 0.1437(3)
H25_6 H 0.8039 0.4600 0.1419
C44_6 C 0.7399(3) 0.43024(15) 0.1026(3)
H26_6 H 0.7674 0.4173 0.0753
C45_6 C 0.6797(3) 0.42381(13) 0.1003(3)
C46_6 C 0.6410(3) 0.44224(15) 0.1433(4)
H27_6 H 0.5985 0.4382 0.1423
C47_6 C 0.6635(3) 0.46672(15) 0.1878(3)
H28_6 H 0.6366 0.4787 0.2182
C48_6 C 0.6559(3) 0.39829(13) 0.0506(3)
C49_6 C 0.6084(3) 0.40368(13) 0.0021(4)
H29_6 H 0.5880 0.4235 0.0034
C52_6 C 0.6631(3) 0.34546(13) 0.0012(3)
H31_6 H 0.6817 0.3252 0.0018
C53_6 C 0.6829(3) 0.36861(14) 0.0496(3)
H32_6 H 0.7155 0.3642 0.0827
Zr5_2 Zr 0.5000 0.30809(2) 0.77160(2)
Zr8_4 Zr 0.58070(2) 0.2500 0.67242(3)
O18_6 O 0.88955(18) 0.79765(7) 0.63022(19)
O19_2 O 0.94025(14) 0.66514(7) 0.84718(16)
O21_2 O 0.88859(17) 0.70180(7) 0.9125(2)
O22_6 O 0.88859(17) 0.79820(7) 0.9125(2)
C24_6 C 0.9104(3) 0.61918(13) 0.9516(3)
H14_6 H 0.9417 0.6146 0.9168
C25_6 C 0.8834(2) 0.64863(11) 0.9520(3)
C28_6 C 0.9053(2) 0.67362(11) 0.8995(3)
O14_4 O 0.55975(14) 0.33486(7) 0.84718(16)
O15_4 O 0.61141(17) 0.29820(7) 0.9125(2)
C50_6 C 0.5896(3) 0.38082(13) 0.9516(3)
H30_6 H 0.5583 0.3854 0.9168
C51_6 C 0.6166(2) 0.35137(11) 0.9520(3)
C54_6 C 0.5947(2) 0.32638(11) 0.8995(3)
Zr11_4 Zr 0.58082(2) 0.2500 0.87054(3)
O5_6 O 0.5000 0.27863(13) 0.8712(4)
O6_6 O 0.5000 0.27838(13) 0.6720(4)
O7_7 O 0.5736(3) 0.2500 0.5487(2)
O8_7 O 0.6804(2) 0.2500 0.6775(3)
O9_7 O 0.5737(2) 0.2500 0.9935(3)
O10_7 O 0.6796(2) 0.2500 0.8683(3)
O11_7 O 0.5809(2) 0.27803(9) 0.77169(17)
O16_4 O 0.4191(2) 0.27803(9) 0.77169(17)
O17_7 O 0.43972(15) 0.33466(7) 0.69658(16)
O18_7 O 0.61045(18) 0.20235(7) 0.63022(19)
O20_7 O 0.44025(14) 0.33486(7) 0.84718(16)
O22_7 O 0.61141(17) 0.20180(7) 0.9125(2)
O23_6 O 0.5000 0.22137(13) 0.8712(4)
O24_6 O 0.5000 0.22162(13) 0.6720(4)
O25_4 O 0.5809(2) 0.22197(9) 0.77169(17)
O7_8 O 0.4264(3) 0.2500 0.5487(2)
O8_8 O 0.3196(2) 0.2500 0.6775(3)
O9_8 O 0.4263(2) 0.2500 0.9935(3)
O10_8 O 0.3204(2) 0.2500 0.8683(3)
O11_8 O 0.4191(2) 0.22197(9) 0.77169(17)
O17_8 O 0.56028(15) 0.16534(7) 0.69658(16)
O18_8 O 0.38955(18) 0.29765(7) 0.63022(19)
O20_8 O 0.55975(14) 0.16514(7) 0.84718(16)
O22_8 O 0.38859(17) 0.29820(7) 0.9125(2)
C14_10 C 0.7500 -0.0000 0.3086(4)
C15_10 C 0.7500 -0.0000 0.2330(3)
C29_7 C 0.5938(2) 0.17433(11) 0.6431(3)
C30_7 C 0.6154(3) 0.14877(11) 0.5908(3)
C31_7 C 0.5976(3) 0.11814(13) 0.6001(4)
H17_7 H 0.5711 0.1128 0.6401
C32_7 C 0.6174(4) 0.09478(14) 0.5524(4)
H18_7 H 0.6051 0.0735 0.5605
C33_7 C 0.6553(3) 0.10202(12) 0.4926(3)
C34_7 C 0.6710(4) 0.13288(13) 0.4825(4)
H19_7 H 0.6956 0.1385 0.4409
C35_7 C 0.6521(3) 0.15597(13) 0.5310(3)
H20_7 H 0.6645 0.1773 0.5232
C36_7 C 0.6785(3) 0.07606(13) 0.4428(3)
C37_7 C 0.6589(5) 0.04558(15) 0.4501(4)
H21_7 H 0.6274 0.0408 0.4847
C38_7 C 0.6841(5) 0.02166(15) 0.4078(4)
H22_7 H 0.6718 0.0005 0.4171
C39_7 C 0.7254(3) 0.02711(12) 0.3538(3)
C40_7 C 0.7449(4) 0.05727(14) 0.3460(3)
H23_7 H 0.7751 0.0620 0.3097
C41_7 C 0.7215(3) 0.08165(15) 0.3899(3)
H24_7 H 0.7359 0.1026 0.3827
C42_7 C 0.7239(3) 0.02665(13) 0.1878(3)
C43_7 C 0.7618(3) 0.04486(15) 0.1437(3)
H25_7 H 0.8039 0.0400 0.1419
C44_7 C 0.7399(3) 0.06976(15) 0.1026(3)
H26_7 H 0.7674 0.0827 0.0753
C45_7 C 0.6797(3) 0.07619(13) 0.1003(3)
C46_7 C 0.6410(3) 0.05776(15) 0.1433(4)
H27_7 H 0.5985 0.0618 0.1423
C47_7 C 0.6635(3) 0.03328(15) 0.1878(3)
H28_7 H 0.6366 0.0213 0.2182
C48_7 C 0.6559(3) 0.10171(13) 0.0506(3)
C49_7 C 0.6084(3) 0.09632(13) 0.0021(4)
H29_7 H 0.5880 0.0765 0.0034
C52_7 C 0.6631(3) 0.15454(13) 0.0012(3)
H31_7 H 0.6817 0.1748 0.0018
C53_7 C 0.6829(3) 0.13139(14) 0.0496(3)
H32_7 H 0.7155 0.1358 0.0827
C50_7 C 0.5896(3) 0.11918(13) 0.9516(3)
H30_7 H 0.5583 0.1146 0.9168
C51_7 C 0.6166(2) 0.14863(11) 0.9520(3)
C54_7 C 0.5947(2) 0.17362(11) 0.8995(3)
C1_7 C 0.9062(2) 0.82567(11) 0.6431(3)
C2_7 C 0.8846(3) 0.85123(11) 0.5908(3)
C3_7 C 0.9024(3) 0.88186(13) 0.6001(4)
H1_7 H 0.9289 0.8872 0.6401
C4_7 C 0.8826(4) 0.90522(14) 0.5524(4)
H2_7 H 0.8949 0.9265 0.5605
C5_7 C 0.8447(3) 0.89798(12) 0.4926(3)
C6_7 C 0.8290(4) 0.86712(13) 0.4825(4)
H3_7 H 0.8044 0.8615 0.4409
C7_7 C 0.8479(3) 0.84403(13) 0.5310(3)
H4_7 H 0.8355 0.8227 0.5232
C8_7 C 0.8215(3) 0.92394(13) 0.4428(3)
C9_7 C 0.8411(5) 0.95442(15) 0.4501(4)
H5_7 H 0.8726 0.9592 0.4847
C10_7 C 0.8159(5) 0.97834(15) 0.4078(4)
H6_7 H 0.8282 0.9995 0.4171
C11_7 C 0.7746(3) 0.97289(12) 0.3538(3)
C12_7 C 0.7551(4) 0.94273(14) 0.3460(3)
H7_7 H 0.7249 0.9380 0.3097
C13_7 C 0.7785(3) 0.91835(15) 0.3899(3)
H8_7 H 0.7641 0.8974 0.3827
C14_11 C 0.7500 1.0000 0.3086(4)
C15_11 C 0.7500 1.0000 0.2330(3)
C16_7 C 0.7761(3) 0.97335(13) 0.1878(3)
C17_7 C 0.7382(3) 0.95514(15) 0.1437(3)
H9_7 H 0.6961 0.9600 0.1419
C18_7 C 0.7601(3) 0.93024(15) 0.1026(3)
H10_7 H 0.7326 0.9173 0.0753
C19_7 C 0.8203(3) 0.92381(13) 0.1003(3)
C20_7 C 0.8590(3) 0.94224(15) 0.1433(4)
H11_7 H 0.9015 0.9382 0.1423
C21_7 C 0.8365(3) 0.96672(15) 0.1878(3)
H12_7 H 0.8634 0.9787 0.2182
C22_7 C 0.8441(3) 0.89829(13) 0.0506(3)
C23_7 C 0.8916(3) 0.90368(13) 0.0021(4)
H13_7 H 0.9120 0.9235 0.0034
C26_7 C 0.8369(3) 0.84546(13) 0.0012(3)
H15_7 H 0.8183 0.8252 0.0018
C27_7 C 0.8171(3) 0.86861(14) 0.0496(3)
H16_7 H 0.7845 0.8642 0.0827
C24_7 C 0.9104(3) 0.88082(13) 0.9516(3)
H14_7 H 0.9417 0.8854 0.9168
C25_7 C 0.8834(2) 0.85137(11) 0.9520(3)
C28_7 C 0.9053(2) 0.82638(11) 0.8995(3)
C1_8 C 0.0938(2) 0.67433(11) 0.6431(3)
C2_8 C 0.1154(3) 0.64877(11) 0.5908(3)
C3_8 C 0.0976(3) 0.61814(13) 0.6001(4)
H1_8 H 0.0711 0.6128 0.6401
C4_8 C 0.1174(4) 0.59478(14) 0.5524(4)
H2_8 H 0.1051 0.5735 0.5605
C5_8 C 0.1553(3) 0.60202(12) 0.4926(3)
C6_8 C 0.1710(4) 0.63288(13) 0.4825(4)
H3_8 H 0.1956 0.6385 0.4409
C7_8 C 0.1521(3) 0.65597(13) 0.5310(3)
H4_8 H 0.1645 0.6773 0.5232
C8_8 C 0.1785(3) 0.57606(13) 0.4428(3)
C9_8 C 0.1589(5) 0.54558(15) 0.4501(4)
H5_8 H 0.1274 0.5408 0.4847
C10_8 C 0.1841(5) 0.52166(15) 0.4078(4)
H6_8 H 0.1718 0.5005 0.4171
C11_8 C 0.2254(3) 0.52711(12) 0.3538(3)
C12_8 C 0.2449(4) 0.55727(14) 0.3460(3)
H7_8 H 0.2751 0.5620 0.3097
C13_8 C 0.2215(3) 0.58165(15) 0.3899(3)
H8_8 H 0.2359 0.6026 0.3827
C14_12 C 0.2500 0.5000 0.3086(4)
C15_12 C 0.2500 0.5000 0.2330(3)
C16_8 C 0.2239(3) 0.52665(13) 0.1878(3)
C17_8 C 0.2618(3) 0.54486(15) 0.1437(3)
H9_8 H 0.3039 0.5400 0.1419
C18_8 C 0.2399(3) 0.56976(15) 0.1026(3)
H10_8 H 0.2674 0.5827 0.0753
C19_8 C 0.1797(3) 0.57619(13) 0.1003(3)
C20_8 C 0.1410(3) 0.55776(15) 0.1433(4)
H11_8 H 0.0985 0.5618 0.1423
C21_8 C 0.1635(3) 0.53328(15) 0.1878(3)
H12_8 H 0.1366 0.5213 0.2182
C22_8 C 0.1559(3) 0.60171(13) 0.0506(3)
C23_8 C 0.1084(3) 0.59632(13) 0.0021(4)
H13_8 H 0.0880 0.5765 0.0034
C26_8 C 0.1631(3) 0.65454(13) 0.0012(3)
H15_8 H 0.1817 0.6748 0.0018
C27_8 C 0.1829(3) 0.63139(14) 0.0496(3)
H16_8 H 0.2155 0.6358 0.0827
C29_8 C 0.4062(2) 0.32567(11) 0.6431(3)
C30_8 C 0.3846(3) 0.35123(11) 0.5908(3)
C31_8 C 0.4024(3) 0.38186(13) 0.6001(4)
H17_8 H 0.4289 0.3872 0.6401
C32_8 C 0.3826(4) 0.40522(14) 0.5524(4)
H18_8 H 0.3949 0.4265 0.5605
C33_8 C 0.3447(3) 0.39798(12) 0.4926(3)
C34_8 C 0.3290(4) 0.36712(13) 0.4825(4)
H19_8 H 0.3044 0.3615 0.4409
C35_8 C 0.3479(3) 0.34403(13) 0.5310(3)
H20_8 H 0.3355 0.3227 0.5232
C36_8 C 0.3215(3) 0.42394(13) 0.4428(3)
C37_8 C 0.3411(5) 0.45442(15) 0.4501(4)
H21_8 H 0.3726 0.4592 0.4847
C38_8 C 0.3159(5) 0.47834(15) 0.4078(4)
H22_8 H 0.3282 0.4995 0.4171
C39_8 C 0.2746(3) 0.47289(12) 0.3538(3)
C40_8 C 0.2551(4) 0.44273(14) 0.3460(3)
H23_8 H 0.2249 0.4380 0.3097
C41_8 C 0.2785(3) 0.41835(15) 0.3899(3)
H24_8 H 0.2641 0.3974 0.3827
C42_8 C 0.2761(3) 0.47335(13) 0.1878(3)
C43_8 C 0.2382(3) 0.45514(15) 0.1437(3)
H25_8 H 0.1961 0.4600 0.1419
C44_8 C 0.2601(3) 0.43024(15) 0.1026(3)
H26_8 H 0.2326 0.4173 0.0753
C45_8 C 0.3203(3) 0.42381(13) 0.1003(3)
C46_8 C 0.3590(3) 0.44224(15) 0.1433(4)
H27_8 H 0.4015 0.4382 0.1423
C47_8 C 0.3365(3) 0.46672(15) 0.1878(3)
H28_8 H 0.3634 0.4787 0.2182
C48_8 C 0.3441(3) 0.39829(13) 0.0506(3)
C49_8 C 0.3916(3) 0.40368(13) 0.0021(4)
H29_8 H 0.4120 0.4235 0.0034
C52_8 C 0.3369(3) 0.34546(13) 0.0012(3)
H31_8 H 0.3183 0.3252 0.0018
C53_8 C 0.3171(3) 0.36861(14) 0.0496(3)
H32_8 H 0.2845 0.3642 0.0827
C24_8 C 0.0896(3) 0.61918(13) 0.9516(3)
H14_8 H 0.0583 0.6146 0.9168
C25_8 C 0.1166(2) 0.64863(11) 0.9520(3)
C28_8 C 0.0947(2) 0.67362(11) 0.8995(3)
C50_8 C 0.4104(3) 0.38082(13) 0.9516(3)
H30_8 H 0.4417 0.3854 0.9168
C51_8 C 0.3834(2) 0.35137(11) 0.9520(3)
C54_8 C 0.4053(2) 0.32638(11) 0.8995(3)
H39_3 H 0.034415 0.740383 0.00861625
H40_3 H 0.107677 0.737516 0.0150545
H39_4 H 0.965585 0.759617 0.00861625
H40_4 H 0.892323 0.762484 0.0150545
H39_5 H 0.534415 0.759617 0.991384
H40_5 H 0.607677 0.762484 0.984946
H39_6 H 0.465585 0.740383 0.991384
H40_6 H 0.392323 0.737516 0.984946
H39_7 H 0.534415 0.240383 0.00861625
H40_7 H 0.607677 0.237516 0.0150545
H39_8 H 0.465585 0.259617 0.00861625
H40_8 H 0.392323 0.262484 0.0150545
H39_9 H 0.965585 0.740383 0.00861625
H40_9 H 0.892323 0.737516 0.0150545
H39_10 H 0.034415 0.759617 0.00861625
H40_10 H 0.107677 0.762484 0.0150545
H39_11 H 0.965585 0.259617 0.991384
H40_11 H 0.892323 0.262484 0.984946
H39_12 H 0.034415 0.240383 0.991384
H40_12 H 0.107677 0.237516 0.984946
H39_13 H 0.465585 0.240383 0.00861625
H40_13 H 0.392323 0.237516 0.0150545
H39_14 H 0.534415 0.259617 0.00861625
H40_14 H 0.607677 0.262484 0.0150545
H39_15 H 0.465585 0.759617 0.991384
H40_15 H 0.392323 0.762484 0.984946
H39_16 H 0.534415 0.740383 0.991384
H40_16 H 0.607677 0.737516 0.984946
loop_
_geom_bond_atom_site_label_1
_geom_bond_atom_site_label_2
_geom_bond_site_symmetry_1
_geom_bond_site_symmetry_2
O3 C28 1_555 1_555
O4 C28 1_555 1_555
H14 C24 1_555 1_555
C25 C24 1_555 1_555
C28 C25 1_555 1_555
Zr4 O3 1_555 1_555
Zr9 O4 1_555 1_555
Zr4 O1 1_555 1_555
Zr2 O2 1_555 1_555
Zr9 O5 1_555 1_555
O1 C1 1_555 1_555
O2 C1 1_555 1_555
O5 Zr4 1_555 1_555
O6 Zr4 1_555 1_555
O7 Zr2 1_555 1_555
O8 Zr2 1_555 1_555
O9 Zr9 1_555 1_555
O10 Zr9 1_555 1_555
O11 Zr4 1_555 1_555
C1 C2 1_555 1_555
C2 C3 1_555 1_555
C3 H1 1_555 1_555
C4 C3 1_555 1_555
H2 C4 1_555 1_555
C5 C4 1_555 1_555
C6 C5 1_555 1_555
H3 C6 1_555 1_555
C7 C2 1_555 1_555
H4 C7 1_555 1_555
C8 C5 1_555 1_555
C9 C8 1_555 1_555
H5 C9 1_555 1_555
C10 C9 1_555 1_555
H6 C10 1_555 1_555
C11 C10 1_555 1_555
C12 C11 1_555 1_555
H7 C12 1_555 1_555
C13 C8 1_555 1_555
H8 C13 1_555 1_555
C14 C11 1_555 1_555
C15 C14 1_555 1_555
C16 C15 1_555 1_555
C17 C16 1_555 1_555
H9 C17 1_555 1_555
C18 C17 1_555 1_555
H10 C18 1_555 1_555
C19 C18 1_555 1_555
C20 C19 1_555 1_555
H11 C20 1_555 1_555
C21 C16 1_555 1_555
H12 C21 1_555 1_555
C22 C19 1_555 1_555
C23 C22 1_555 1_555
H13 C23 1_555 1_555
H15 C26 1_555 1_555
C27 C22 1_555 1_555
H16 C27 1_555 1_555
O18 Zr2 1_555 1_555
O22 Zr9 1_555 1_555
O23 Zr9 1_555 1_555
O24 Zr2 1_555 1_555
O25 Zr2 1_555 1_555
Zr2 O6 1_555 1_555
Zr2 O11 1_555 1_555
Zr9 O11 1_555 1_555
Zr9 O25 1_555 1_555
C6 C7 1_555 1_555
C12 C13 1_555 1_555
C20 C21 1_555 1_555
C26 C27 1_555 1_555
O14 C54 1_555 1_555
O15 C54 1_555 1_555
H30 C50 1_555 1_555
C51 C50 1_555 1_555
C54 C51 1_555 1_555
Zr6 O14 1_555 1_555
Zr11 O15 1_555 1_555
C15_2 C14_2 1_555 1_555
O12 C29 1_555 1_555
O13 C29 1_555 1_555
C29 C30 1_555 1_555
C30 C31 1_555 1_555
C31 H17 1_555 1_555
C32 C31 1_555 1_555
H18 C32 1_555 1_555
C33 C32 1_555 1_555
C34 C33 1_555 1_555
H19 C34 1_555 1_555
C35 C30 1_555 1_555
H20 C35 1_555 1_555
C36 C33 1_555 1_555
C37 C36 1_555 1_555
H21 C37 1_555 1_555
C38 C37 1_555 1_555
H22 C38 1_555 1_555
C39 C14_2 1_555 1_555
C40 C39 1_555 1_555
H23 C40 1_555 1_555
C41 C36 1_555 1_555
H24 C41 1_555 1_555
C42 C15_2 1_555 1_555
C43 C42 1_555 1_555
H25 C43 1_555 1_555
C44 C43 1_555 1_555
H26 C44 1_555 1_555
C45 C44 1_555 1_555
C46 C45 1_555 1_555
H27 C46 1_555 1_555
C47 C42 1_555 1_555
H28 C47 1_555 1_555
C48 C45 1_555 1_555
C49 C48 1_555 1_555
H29 C49 1_555 1_555
H31 C52 1_555 1_555
C53 C48 1_555 1_555
H32 C53 1_555 1_555
Zr6 O12 1_555 1_555
Zr8 O13 1_555 1_555
C34 C35 1_555 1_555
C38 C39 1_555 1_555
C40 C41 1_555 1_555
C46 C47 1_555 1_555
C52 C53 1_555 1_555
O5_2 Zr4_2 1_555 1_555
O6_2 Zr4_2 1_555 1_555
O16 Zr4_2 1_555 1_555
Zr7 O6_2 1_555 1_555
Zr10 O5_2 1_555 1_555
O17 Zr4_2 1_555 1_555
O20 Zr4_2 1_555 1_555
O16 Zr7 1_555 1_555
O16 Zr10 1_555 1_555
Zr7 O24_2 1_555 1_555
Zr10 O23_2 1_555 1_555
O23 Zr4_3 1_555 1_555
O24 Zr4_3 1_555 1_555
O25 Zr4_3 1_555 1_555
O17_2 Zr4_3 1_555 1_555
O20_2 Zr4_3 1_555 1_555
O3_2 C28_2 1_555 1_555
O4_2 C28_2 1_555 1_555
H14_2 C24_2 1_555 1_555
C25_2 C24_2 1_555 1_555
C28_2 C25_2 1_555 1_555
O14_2 C54_2 1_555 1_555
O15_2 C54_2 1_555 1_555
H30_2 C50_2 1_555 1_555
C51_2 C50_2 1_555 1_555
C54_2 C51_2 1_555 1_555
Zr4_4 O3_2 1_555 1_555
Zr6_2 O14_2 1_555 1_555
Zr10 O4_2 1_555 1_555
Zr11_2 O15_2 1_555 1_555
Zr4_4 O1_2 1_555 1_555
Zr7 O2_2 1_555 1_555
O1_2 C1_2 1_555 1_555
O2_2 C1_2 1_555 1_555
O23_2 Zr4_4 1_555 1_555
O24_2 Zr4_4 1_555 1_555
O7_2 Zr7 1_555 1_555
O8_2 Zr7 1_555 1_555
O9_2 Zr10 1_555 1_555
O10_2 Zr10 1_555 1_555
O11_2 Zr4_4 1_555 1_555
C1_2 C2_2 1_555 1_555
C2_2 C3_2 1_555 1_555
C3_2 H1_2 1_555 1_555
C4_2 C3_2 1_555 1_555
H2_2 C4_2 1_555 1_555
C5_2 C4_2 1_555 1_555
C6_2 C5_2 1_555 1_555
H3_2 C6_2 1_555 1_555
C7_2 C2_2 1_555 1_555
H4_2 C7_2 1_555 1_555
C8_2 C5_2 1_555 1_555
C9_2 C8_2 1_555 1_555
H5_2 C9_2 1_555 1_555
C10_2 C9_2 1_555 1_555
H6_2 C10_2 1_555 1_555
C11_2 C10_2 1_555 1_555
C12_2 C11_2 1_555 1_555
H7_2 C12_2 1_555 1_555
C13_2 C8_2 1_555 1_555
H8_2 C13_2 1_555 1_555
C14_3 C11_2 1_555 1_555
C15_3 C14_3 1_555 1_555
C16_2 C15_3 1_555 1_555
C17_2 C16_2 1_555 1_555
H9_2 C17_2 1_555 1_555
C18_2 C17_2 1_555 1_555
H10_2 C18_2 1_555 1_555
C19_2 C18_2 1_555 1_555
C20_2 C19_2 1_555 1_555
H11_2 C20_2 1_555 1_555
C21_2 C16_2 1_555 1_555
H12_2 C21_2 1_555 1_555
C22_2 C19_2 1_555 1_555
C23_2 C22_2 1_555 1_555
H13_2 C23_2 1_555 1_555
H15_2 C26_2 1_555 1_555
C27_2 C22_2 1_555 1_555
H16_2 C27_2 1_555 1_555
O12_2 C29_2 1_555 1_555
O13_2 C29_2 1_555 1_555
C29_2 C30_2 1_555 1_555
C30_2 C31_2 1_555 1_555
C31_2 H17_2 1_555 1_555
C32_2 C31_2 1_555 1_555
H18_2 C32_2 1_555 1_555
C33_2 C32_2 1_555 1_555
C34_2 C33_2 1_555 1_555
H19_2 C34_2 1_555 1_555
C35_2 C30_2 1_555 1_555
H20_2 C35_2 1_555 1_555
C36_2 C33_2 1_555 1_555
C37_2 C36_2 1_555 1_555
H21_2 C37_2 1_555 1_555
C38_2 C37_2 1_555 1_555
H22_2 C38_2 1_555 1_555
C39_2 C14_3 1_555 1_555
C40_2 C39_2 1_555 1_555
H23_2 C40_2 1_555 1_555
C41_2 C36_2 1_555 1_555
H24_2 C41_2 1_555 1_555
C42_2 C15_3 1_555 1_555
C43_2 C42_2 1_555 1_555
H25_2 C43_2 1_555 1_555
C44_2 C43_2 1_555 1_555
H26_2 C44_2 1_555 1_555
C45_2 C44_2 1_555 1_555
C46_2 C45_2 1_555 1_555
H27_2 C46_2 1_555 1_555
C47_2 C42_2 1_555 1_555
H28_2 C47_2 1_555 1_555
C48_2 C45_2 1_555 1_555
C49_2 C48_2 1_555 1_555
H29_2 C49_2 1_555 1_555
H31_2 C52_2 1_555 1_555
C53_2 C48_2 1_555 1_555
H32_2 C53_2 1_555 1_555
Zr6_2 O12_2 1_555 1_555
Zr8_2 O13_2 1_555 1_555
O18_2 Zr7 1_555 1_555
O22_2 Zr10 1_555 1_555
Zr7 O11_2 1_555 1_555
Zr10 O11_2 1_555 1_555
C6_2 C7_2 1_555 1_555
C12_2 C13_2 1_555 1_555
C20_2 C21_2 1_555 1_555
C26_2 C27_2 1_555 1_555
C34_2 C35_2 1_555 1_555
C38_2 C39_2 1_555 1_555
C40_2 C41_2 1_555 1_555
C46_2 C47_2 1_555 1_555
C52_2 C53_2 1_555 1_555
Zr11_2 O5_3 1_555 1_555
O5_3 Zr6_2 1_555 1_555
O6_3 Zr6_2 1_555 1_555
O7_3 Zr8_2 1_555 1_555
O8_3 Zr8_2 1_555 1_555
O9_3 Zr11_2 1_555 1_555
O10_3 Zr11_2 1_555 1_555
O11_3 Zr6_2 1_555 1_555
O16_2 Zr6_2 1_555 1_555
Zr8 O6_3 1_555 1_555
Zr11 O5_3 1_555 1_555
O17_3 Zr6_2 1_555 1_555
O18_3 Zr8_2 1_555 1_555
O20_3 Zr6_2 1_555 1_555
O22_3 Zr11_2 1_555 1_555
O23_3 Zr11_2 1_555 1_555
O24_3 Zr8_2 1_555 1_555
O25_2 Zr8_2 1_555 1_555
Zr8_2 O6_3 1_555 1_555
Zr8_2 O11_3 1_555 1_555
Zr11_2 O11_3 1_555 1_555
Zr11_2 O25_2 1_555 1_555
O16_2 Zr8 1_555 1_555
O16_2 Zr11 1_555 1_555
Zr8 O24_3 1_555 1_555
Zr11 O23_3 1_555 1_555
O23_3 Zr6 1_555 1_555
O24_3 Zr6 1_555 1_555
O7_4 Zr8 1_555 1_555
O8_4 Zr8 1_555 1_555
O9_4 Zr11 1_555 1_555
O10_4 Zr11 1_555 1_555
O11_4 Zr6 1_555 1_555
O25_2 Zr6 1_555 1_555
O17_4 Zr6 1_555 1_555
O18_4 Zr8 1_555 1_555
O20_4 Zr6 1_555 1_555
O22_4 Zr11 1_555 1_555
Zr8 O11_4 1_555 1_555
Zr11 O11_4 1_555 1_555
O20 C28_3 1_555 1_555
O22_2 C28_3 1_555 1_555
H14_3 C24_3 1_555 1_555
C25_3 C24_3 1_555 1_555
C28_3 C25_3 1_555 1_555
O17 C1_3 1_555 1_555
O18_2 C1_3 1_555 1_555
C1_3 C2_3 1_555 1_555
C2_3 C3_3 1_555 1_555
C3_3 H1_3 1_555 1_555
C4_3 C3_3 1_555 1_555
H2_3 C4_3 1_555 1_555
C5_3 C4_3 1_555 1_555
C6_3 C5_3 1_555 1_555
H3_3 C6_3 1_555 1_555
C7_3 C2_3 1_555 1_555
H4_3 C7_3 1_555 1_555
C8_3 C5_3 1_555 1_555
C9_3 C8_3 1_555 1_555
H5_3 C9_3 1_555 1_555
C10_3 C9_3 1_555 1_555
H6_3 C10_3 1_555 1_555
C11_3 C10_3 1_555 1_555
C12_3 C11_3 1_555 1_555
H7_3 C12_3 1_555 1_555
C13_3 C8_3 1_555 1_555
H8_3 C13_3 1_555 1_555
C14_4 C11_3 1_555 1_555
C15_4 C14_4 1_555 1_555
C16_3 C15_4 1_555 1_555
C17_3 C16_3 1_555 1_555
H9_3 C17_3 1_555 1_555
C18_3 C17_3 1_555 1_555
H10_3 C18_3 1_555 1_555
C19_3 C18_3 1_555 1_555
C20_3 C19_3 1_555 1_555
H11_3 C20_3 1_555 1_555
C21_3 C16_3 1_555 1_555
H12_3 C21_3 1_555 1_555
C22_3 C19_3 1_555 1_555
C23_3 C22_3 1_555 1_555
H13_3 C23_3 1_555 1_555
H15_3 C26_3 1_555 1_555
C27_3 C22_3 1_555 1_555
H16_3 C27_3 1_555 1_555
C6_3 C7_3 1_555 1_555
C12_3 C13_3 1_555 1_555
C20_3 C21_3 1_555 1_555
C26_3 C27_3 1_555 1_555
O20_4 C54_3 1_555 1_555
O22_3 C54_3 1_555 1_555
H30_3 C50_3 1_555 1_555
C51_3 C50_3 1_555 1_555
C54_3 C51_3 1_555 1_555
C15_5 C14_5 1_555 1_555
O17_4 C29_3 1_555 1_555
O18_3 C29_3 1_555 1_555
C29_3 C30_3 1_555 1_555
C30_3 C31_3 1_555 1_555
C31_3 H17_3 1_555 1_555
C32_3 C31_3 1_555 1_555
H18_3 C32_3 1_555 1_555
C33_3 C32_3 1_555 1_555
C34_3 C33_3 1_555 1_555
H19_3 C34_3 1_555 1_555
C35_3 C30_3 1_555 1_555
H20_3 C35_3 1_555 1_555
C36_3 C33_3 1_555 1_555
C37_3 C36_3 1_555 1_555
H21_3 C37_3 1_555 1_555
C38_3 C37_3 1_555 1_555
H22_3 C38_3 1_555 1_555
C39_3 C14_5 1_555 1_555
C40_3 C39_3 1_555 1_555
H23_3 C40_3 1_555 1_555
C41_3 C36_3 1_555 1_555
H24_3 C41_3 1_555 1_555
C42_3 C15_5 1_555 1_555
C43_3 C42_3 1_555 1_555
H25_3 C43_3 1_555 1_555
C44_3 C43_3 1_555 1_555
H26_3 C44_3 1_555 1_555
C45_3 C44_3 1_555 1_555
C46_3 C45_3 1_555 1_555
H27_3 C46_3 1_555 1_555
C47_3 C42_3 1_555 1_555
H28_3 C47_3 1_555 1_555
C48_3 C45_3 1_555 1_555
C49_3 C48_3 1_555 1_555
H29_3 C49_3 1_555 1_555
H31_3 C52_3 1_555 1_555
C53_3 C48_3 1_555 1_555
H32_3 C53_3 1_555 1_555
C34_3 C35_3 1_555 1_555
C38_3 C39_3 1_555 1_555
C40_3 C41_3 1_555 1_555
C46_3 C47_3 1_555 1_555
C52_3 C53_3 1_555 1_555
O20_2 C28_4 1_555 1_555
O22 C28_4 1_555 1_555
H14_4 C24_4 1_555 1_555
C25_4 C24_4 1_555 1_555
C28_4 C25_4 1_555 1_555
O20_3 C54_4 1_555 1_555
O22_4 C54_4 1_555 1_555
H30_4 C50_4 1_555 1_555
C51_4 C50_4 1_555 1_555
C54_4 C51_4 1_555 1_555
O17_2 C1_4 1_555 1_555
O18 C1_4 1_555 1_555
C1_4 C2_4 1_555 1_555
C2_4 C3_4 1_555 1_555
C3_4 H1_4 1_555 1_555
C4_4 C3_4 1_555 1_555
H2_4 C4_4 1_555 1_555
C5_4 C4_4 1_555 1_555
C6_4 C5_4 1_555 1_555
H3_4 C6_4 1_555 1_555
C7_4 C2_4 1_555 1_555
H4_4 C7_4 1_555 1_555
C8_4 C5_4 1_555 1_555
C9_4 C8_4 1_555 1_555
H5_4 C9_4 1_555 1_555
C10_4 C9_4 1_555 1_555
H6_4 C10_4 1_555 1_555
C11_4 C10_4 1_555 1_555
C12_4 C11_4 1_555 1_555
H7_4 C12_4 1_555 1_555
C13_4 C8_4 1_555 1_555
H8_4 C13_4 1_555 1_555
C14_6 C11_4 1_555 1_555
C15_6 C14_6 1_555 1_555
C16_4 C15_6 1_555 1_555
C17_4 C16_4 1_555 1_555
H9_4 C17_4 1_555 1_555
C18_4 C17_4 1_555 1_555
H10_4 C18_4 1_555 1_555
C19_4 C18_4 1_555 1_555
C20_4 C19_4 1_555 1_555
H11_4 C20_4 1_555 1_555
C21_4 C16_4 1_555 1_555
H12_4 C21_4 1_555 1_555
C22_4 C19_4 1_555 1_555
C23_4 C22_4 1_555 1_555
H13_4 C23_4 1_555 1_555
H15_4 C26_4 1_555 1_555
C27_4 C22_4 1_555 1_555
H16_4 C27_4 1_555 1_555
O17_3 C29_4 1_555 1_555
O18_4 C29_4 1_555 1_555
C29_4 C30_4 1_555 1_555
C30_4 C31_4 1_555 1_555
C31_4 H17_4 1_555 1_555
C32_4 C31_4 1_555 1_555
H18_4 C32_4 1_555 1_555
C33_4 C32_4 1_555 1_555
C34_4 C33_4 1_555 1_555
H19_4 C34_4 1_555 1_555
C35_4 C30_4 1_555 1_555
H20_4 C35_4 1_555 1_555
C36_4 C33_4 1_555 1_555
C37_4 C36_4 1_555 1_555
H21_4 C37_4 1_555 1_555
C38_4 C37_4 1_555 1_555
H22_4 C38_4 1_555 1_555
C39_4 C14_6 1_555 1_555
C40_4 C39_4 1_555 1_555
H23_4 C40_4 1_555 1_555
C41_4 C36_4 1_555 1_555
H24_4 C41_4 1_555 1_555
C42_4 C15_6 1_555 1_555
C43_4 C42_4 1_555 1_555
H25_4 C43_4 1_555 1_555
C44_4 C43_4 1_555 1_555
H26_4 C44_4 1_555 1_555
C45_4 C44_4 1_555 1_555
C46_4 C45_4 1_555 1_555
H27_4 C46_4 1_555 1_555
C47_4 C42_4 1_555 1_555
H28_4 C47_4 1_555 1_555
C48_4 C45_4 1_555 1_555
C49_4 C48_4 1_555 1_555
H29_4 C49_4 1_555 1_555
H31_4 C52_4 1_555 1_555
C53_4 C48_4 1_555 1_555
H32_4 C53_4 1_555 1_555
C6_4 C7_4 1_555 1_555
C12_4 C13_4 1_555 1_555
C20_4 C21_4 1_555 1_555
C26_4 C27_4 1_555 1_555
C34_4 C35_4 1_555 1_555
C38_4 C39_4 1_555 1_555
C40_4 C41_4 1_555 1_555
C46_4 C47_4 1_555 1_555
C52_4 C53_4 1_555 1_555
C15_7 C14_7 1_555 1_555
O12_3 C29_5 1_555 1_555
O13_3 C29_5 1_555 1_555
C29_5 C30_5 1_555 1_555
C30_5 C31_5 1_555 1_555
C31_5 H17_5 1_555 1_555
C32_5 C31_5 1_555 1_555
H18_5 C32_5 1_555 1_555
C33_5 C32_5 1_555 1_555
C34_5 C33_5 1_555 1_555
H19_5 C34_5 1_555 1_555
C35_5 C30_5 1_555 1_555
H20_5 C35_5 1_555 1_555
C36_5 C33_5 1_555 1_555
C37_5 C36_5 1_555 1_555
H21_5 C37_5 1_555 1_555
C38_5 C37_5 1_555 1_555
H22_5 C38_5 1_555 1_555
C39_5 C14_7 1_555 1_555
C40_5 C39_5 1_555 1_555
H23_5 C40_5 1_555 1_555
C41_5 C36_5 1_555 1_555
H24_5 C41_5 1_555 1_555
C42_5 C15_7 1_555 1_555
C43_5 C42_5 1_555 1_555
H25_5 C43_5 1_555 1_555
C44_5 C43_5 1_555 1_555
H26_5 C44_5 1_555 1_555
C45_5 C44_5 1_555 1_555
C46_5 C45_5 1_555 1_555
H27_5 C46_5 1_555 1_555
C47_5 C42_5 1_555 1_555
H28_5 C47_5 1_555 1_555
C48_5 C45_5 1_555 1_555
C49_5 C48_5 1_555 1_555
H29_5 C49_5 1_555 1_555
H31_5 C52_5 1_555 1_555
C53_5 C48_5 1_555 1_555
H32_5 C53_5 1_555 1_555
Zr5 O12_3 1_555 1_555
Zr8_3 O13_3 1_555 1_555
C34_5 C35_5 1_555 1_555
C38_5 C39_5 1_555 1_555
C40_5 C41_5 1_555 1_555
C46_5 C47_5 1_555 1_555
C52_5 C53_5 1_555 1_555
O14_3 C54_5 1_555 1_555
O15_3 C54_5 1_555 1_555
H30_5 C50_5 1_555 1_555
C51_5 C50_5 1_555 1_555
C54_5 C51_5 1_555 1_555
Zr5 O14_3 1_555 1_555
Zr11_3 O15_3 1_555 1_555
Zr1 O1_3 1_555 1_555
Zr2_2 O2_3 1_555 1_555
Zr3 O5_4 1_555 1_555
O1_3 C1_5 1_555 1_555
O2_3 C1_5 1_555 1_555
O5_4 Zr1 1_555 1_555
O6_4 Zr1 1_555 1_555
O7_5 Zr2_2 1_555 1_555
O8_5 Zr2_2 1_555 1_555
O9_5 Zr3 1_555 1_555
O10_5 Zr3 1_555 1_555
O11_5 Zr1 1_555 1_555
C1_5 C2_5 1_555 1_555
C2_5 C3_5 1_555 1_555
C3_5 H1_5 1_555 1_555
C4_5 C3_5 1_555 1_555
H2_5 C4_5 1_555 1_555
C5_5 C4_5 1_555 1_555
C6_5 C5_5 1_555 1_555
H3_5 C6_5 1_555 1_555
C7_5 C2_5 1_555 1_555
H4_5 C7_5 1_555 1_555
C8_5 C5_5 1_555 1_555
C9_5 C8_5 1_555 1_555
H5_5 C9_5 1_555 1_555
C10_5 C9_5 1_555 1_555
H6_5 C10_5 1_555 1_555
C11_5 C10_5 1_555 1_555
C12_5 C11_5 1_555 1_555
H7_5 C12_5 1_555 1_555
C13_5 C8_5 1_555 1_555
H8_5 C13_5 1_555 1_555
C14_8 C11_5 1_555 1_555
C15_8 C14_8 1_555 1_555
C16_5 C15_8 1_555 1_555
C17_5 C16_5 1_555 1_555
H9_5 C17_5 1_555 1_555
C18_5 C17_5 1_555 1_555
H10_5 C18_5 1_555 1_555
C19_5 C18_5 1_555 1_555
C20_5 C19_5 1_555 1_555
H11_5 C20_5 1_555 1_555
C21_5 C16_5 1_555 1_555
H12_5 C21_5 1_555 1_555
C22_5 C19_5 1_555 1_555
C23_5 C22_5 1_555 1_555
H13_5 C23_5 1_555 1_555
H15_5 C26_5 1_555 1_555
C27_5 C22_5 1_555 1_555
H16_5 C27_5 1_555 1_555
O18_5 Zr2_2 1_555 1_555
O19 Zr1 1_555 1_555
O21 Zr3 1_555 1_555
O22_5 Zr3 1_555 1_555
O23_4 Zr3 1_555 1_555
O24_4 Zr2_2 1_555 1_555
O25_3 Zr2_2 1_555 1_555
Zr2_2 O6_4 1_555 1_555
Zr2_2 O11_5 1_555 1_555
Zr3 O11_5 1_555 1_555
Zr3 O25_3 1_555 1_555
C6_5 C7_5 1_555 1_555
C12_5 C13_5 1_555 1_555
C20_5 C21_5 1_555 1_555
C26_5 C27_5 1_555 1_555
O19 C28_5 1_555 1_555
O21 C28_5 1_555 1_555
H14_5 C24_5 1_555 1_555
C25_5 C24_5 1_555 1_555
C28_5 C25_5 1_555 1_555
O5_5 Zr1_2 1_555 1_555
O6_5 Zr1_2 1_555 1_555
O16_3 Zr1_2 1_555 1_555
Zr7_2 O6_5 1_555 1_555
Zr10_2 O5_5 1_555 1_555
O17_5 Zr1_2 1_555 1_555
O20_5 Zr1_2 1_555 1_555
O16_3 Zr7_2 1_555 1_555
O16_3 Zr10_2 1_555 1_555
Zr7_2 O24_5 1_555 1_555
Zr10_2 O23_5 1_555 1_555
O23_4 Zr1_3 1_555 1_555
O24_4 Zr1_3 1_555 1_555
O25_3 Zr1_3 1_555 1_555
O17_6 Zr1_3 1_555 1_555
O20_6 Zr1_3 1_555 1_555
Zr1_4 O1_4 1_555 1_555
Zr7_2 O2_4 1_555 1_555
O1_4 C1_6 1_555 1_555
O2_4 C1_6 1_555 1_555
O23_5 Zr1_4 1_555 1_555
O24_5 Zr1_4 1_555 1_555
O7_6 Zr7_2 1_555 1_555
O8_6 Zr7_2 1_555 1_555
O9_6 Zr10_2 1_555 1_555
O10_6 Zr10_2 1_555 1_555
O11_6 Zr1_4 1_555 1_555
C1_6 C2_6 1_555 1_555
C2_6 C3_6 1_555 1_555
C3_6 H1_6 1_555 1_555
C4_6 C3_6 1_555 1_555
H2_6 C4_6 1_555 1_555
C5_6 C4_6 1_555 1_555
C6_6 C5_6 1_555 1_555
H3_6 C6_6 1_555 1_555
C7_6 C2_6 1_555 1_555
H4_6 C7_6 1_555 1_555
C8_6 C5_6 1_555 1_555
C9_6 C8_6 1_555 1_555
H5_6 C9_6 1_555 1_555
C10_6 C9_6 1_555 1_555
H6_6 C10_6 1_555 1_555
C11_6 C10_6 1_555 1_555
C12_6 C11_6 1_555 1_555
H7_6 C12_6 1_555 1_555
C13_6 C8_6 1_555 1_555
H8_6 C13_6 1_555 1_555
C14_9 C11_6 1_555 1_555
C15_9 C14_9 1_555 1_555
C16_6 C15_9 1_555 1_555
C17_6 C16_6 1_555 1_555
H9_6 C17_6 1_555 1_555
C18_6 C17_6 1_555 1_555
H10_6 C18_6 1_555 1_555
C19_6 C18_6 1_555 1_555
C20_6 C19_6 1_555 1_555
H11_6 C20_6 1_555 1_555
C21_6 C16_6 1_555 1_555
H12_6 C21_6 1_555 1_555
C22_6 C19_6 1_555 1_555
C23_6 C22_6 1_555 1_555
H13_6 C23_6 1_555 1_555
H15_6 C26_6 1_555 1_555
C27_6 C22_6 1_555 1_555
H16_6 C27_6 1_555 1_555
O12_4 C29_6 1_555 1_555
O13_4 C29_6 1_555 1_555
C29_6 C30_6 1_555 1_555
C30_6 C31_6 1_555 1_555
C31_6 H17_6 1_555 1_555
C32_6 C31_6 1_555 1_555
H18_6 C32_6 1_555 1_555
C33_6 C32_6 1_555 1_555
C34_6 C33_6 1_555 1_555
H19_6 C34_6 1_555 1_555
C35_6 C30_6 1_555 1_555
H20_6 C35_6 1_555 1_555
C36_6 C33_6 1_555 1_555
C37_6 C36_6 1_555 1_555
H21_6 C37_6 1_555 1_555
C38_6 C37_6 1_555 1_555
H22_6 C38_6 1_555 1_555
C39_6 C14_9 1_555 1_555
C40_6 C39_6 1_555 1_555
H23_6 C40_6 1_555 1_555
C41_6 C36_6 1_555 1_555
H24_6 C41_6 1_555 1_555
C42_6 C15_9 1_555 1_555
C43_6 C42_6 1_555 1_555
H25_6 C43_6 1_555 1_555
C44_6 C43_6 1_555 1_555
H26_6 C44_6 1_555 1_555
C45_6 C44_6 1_555 1_555
C46_6 C45_6 1_555 1_555
H27_6 C46_6 1_555 1_555
C47_6 C42_6 1_555 1_555
H28_6 C47_6 1_555 1_555
C48_6 C45_6 1_555 1_555
C49_6 C48_6 1_555 1_555
H29_6 C49_6 1_555 1_555
H31_6 C52_6 1_555 1_555
C53_6 C48_6 1_555 1_555
H32_6 C53_6 1_555 1_555
Zr5_2 O12_4 1_555 1_555
Zr8_4 O13_4 1_555 1_555
O18_6 Zr7_2 1_555 1_555
O19_2 Zr1_4 1_555 1_555
O21_2 Zr10_2 1_555 1_555
O22_6 Zr10_2 1_555 1_555
Zr7_2 O11_6 1_555 1_555
Zr10_2 O11_6 1_555 1_555
C6_6 C7_6 1_555 1_555
C12_6 C13_6 1_555 1_555
C20_6 C21_6 1_555 1_555
C26_6 C27_6 1_555 1_555
C34_6 C35_6 1_555 1_555
C38_6 C39_6 1_555 1_555
C40_6 C41_6 1_555 1_555
C46_6 C47_6 1_555 1_555
C52_6 C53_6 1_555 1_555
O19_2 C28_6 1_555 1_555
O21_2 C28_6 1_555 1_555
H14_6 C24_6 1_555 1_555
C25_6 C24_6 1_555 1_555
C28_6 C25_6 1_555 1_555
O14_4 C54_6 1_555 1_555
O15_4 C54_6 1_555 1_555
H30_6 C50_6 1_555 1_555
C51_6 C50_6 1_555 1_555
C54_6 C51_6 1_555 1_555
Zr5_2 O14_4 1_555 1_555
Zr11_4 O15_4 1_555 1_555
Zr11_4 O5_6 1_555 1_555
O5_6 Zr5_2 1_555 1_555
O6_6 Zr5_2 1_555 1_555
O7_7 Zr8_4 1_555 1_555
O8_7 Zr8_4 1_555 1_555
O9_7 Zr11_4 1_555 1_555
O10_7 Zr11_4 1_555 1_555
O11_7 Zr5_2 1_555 1_555
O16_4 Zr5_2 1_555 1_555
Zr8_3 O6_6 1_555 1_555
Zr11_3 O5_6 1_555 1_555
O17_7 Zr5_2 1_555 1_555
O18_7 Zr8_4 1_555 1_555
O20_7 Zr5_2 1_555 1_555
O22_7 Zr11_4 1_555 1_555
O23_6 Zr11_4 1_555 1_555
O24_6 Zr8_4 1_555 1_555
O25_4 Zr8_4 1_555 1_555
Zr8_4 O6_6 1_555 1_555
Zr8_4 O11_7 1_555 1_555
Zr11_4 O11_7 1_555 1_555
Zr11_4 O25_4 1_555 1_555
O16_4 Zr8_3 1_555 1_555
O16_4 Zr11_3 1_555 1_555
Zr8_3 O24_6 1_555 1_555
Zr11_3 O23_6 1_555 1_555
O23_6 Zr5 1_555 1_555
O24_6 Zr5 1_555 1_555
O7_8 Zr8_3 1_555 1_555
O8_8 Zr8_3 1_555 1_555
O9_8 Zr11_3 1_555 1_555
O10_8 Zr11_3 1_555 1_555
O11_8 Zr5 1_555 1_555
O25_4 Zr5 1_555 1_555
O17_8 Zr5 1_555 1_555
O18_8 Zr8_3 1_555 1_555
O20_8 Zr5 1_555 1_555
O22_8 Zr11_3 1_555 1_555
Zr8_3 O11_8 1_555 1_555
Zr11_3 O11_8 1_555 1_555
C15_10 C14_10 1_555 1_555
O17_8 C29_7 1_555 1_555
O18_7 C29_7 1_555 1_555
C29_7 C30_7 1_555 1_555
C30_7 C31_7 1_555 1_555
C31_7 H17_7 1_555 1_555
C32_7 C31_7 1_555 1_555
H18_7 C32_7 1_555 1_555
C33_7 C32_7 1_555 1_555
C34_7 C33_7 1_555 1_555
H19_7 C34_7 1_555 1_555
C35_7 C30_7 1_555 1_555
H20_7 C35_7 1_555 1_555
C36_7 C33_7 1_555 1_555
C37_7 C36_7 1_555 1_555
H21_7 C37_7 1_555 1_555
C38_7 C37_7 1_555 1_555
H22_7 C38_7 1_555 1_555
C39_7 C14_10 1_555 1_555
C40_7 C39_7 1_555 1_555
H23_7 C40_7 1_555 1_555
C41_7 C36_7 1_555 1_555
H24_7 C41_7 1_555 1_555
C42_7 C15_10 1_555 1_555
C43_7 C42_7 1_555 1_555
H25_7 C43_7 1_555 1_555
C44_7 C43_7 1_555 1_555
H26_7 C44_7 1_555 1_555
C45_7 C44_7 1_555 1_555
C46_7 C45_7 1_555 1_555
H27_7 C46_7 1_555 1_555
C47_7 C42_7 1_555 1_555
H28_7 C47_7 1_555 1_555
C48_7 C45_7 1_555 1_555
C49_7 C48_7 1_555 1_555
H29_7 C49_7 1_555 1_555
H31_7 C52_7 1_555 1_555
C53_7 C48_7 1_555 1_555
H32_7 C53_7 1_555 1_555
C34_7 C35_7 1_555 1_555
C38_7 C39_7 1_555 1_555
C40_7 C41_7 1_555 1_555
C46_7 C47_7 1_555 1_555
C52_7 C53_7 1_555 1_555
O20_8 C54_7 1_555 1_555
O22_7 C54_7 1_555 1_555
H30_7 C50_7 1_555 1_555
C51_7 C50_7 1_555 1_555
C54_7 C51_7 1_555 1_555
O17_5 C1_7 1_555 1_555
O18_6 C1_7 1_555 1_555
C1_7 C2_7 1_555 1_555
C2_7 C3_7 1_555 1_555
C3_7 H1_7 1_555 1_555
C4_7 C3_7 1_555 1_555
H2_7 C4_7 1_555 1_555
C5_7 C4_7 1_555 1_555
C6_7 C5_7 1_555 1_555
H3_7 C6_7 1_555 1_555
C7_7 C2_7 1_555 1_555
H4_7 C7_7 1_555 1_555
C8_7 C5_7 1_555 1_555
C9_7 C8_7 1_555 1_555
H5_7 C9_7 1_555 1_555
C10_7 C9_7 1_555 1_555
H6_7 C10_7 1_555 1_555
C11_7 C10_7 1_555 1_555
C12_7 C11_7 1_555 1_555
H7_7 C12_7 1_555 1_555
C13_7 C8_7 1_555 1_555
H8_7 C13_7 1_555 1_555
C14_11 C11_7 1_555 1_555
C15_11 C14_11 1_555 1_555
C16_7 C15_11 1_555 1_555
C17_7 C16_7 1_555 1_555
H9_7 C17_7 1_555 1_555
C18_7 C17_7 1_555 1_555
H10_7 C18_7 1_555 1_555
C19_7 C18_7 1_555 1_555
C20_7 C19_7 1_555 1_555
H11_7 C20_7 1_555 1_555
C21_7 C16_7 1_555 1_555
H12_7 C21_7 1_555 1_555
C22_7 C19_7 1_555 1_555
C23_7 C22_7 1_555 1_555
H13_7 C23_7 1_555 1_555
H15_7 C26_7 1_555 1_555
C27_7 C22_7 1_555 1_555
H16_7 C27_7 1_555 1_555
C6_7 C7_7 1_555 1_555
C12_7 C13_7 1_555 1_555
C20_7 C21_7 1_555 1_555
C26_7 C27_7 1_555 1_555
O20_5 C28_7 1_555 1_555
O22_6 C28_7 1_555 1_555
H14_7 C24_7 1_555 1_555
C25_7 C24_7 1_555 1_555
C28_7 C25_7 1_555 1_555
O17_6 C1_8 1_555 1_555
O18_5 C1_8 1_555 1_555
C1_8 C2_8 1_555 1_555
C2_8 C3_8 1_555 1_555
C3_8 H1_8 1_555 1_555
C4_8 C3_8 1_555 1_555
H2_8 C4_8 1_555 1_555
C5_8 C4_8 1_555 1_555
C6_8 C5_8 1_555 1_555
H3_8 C6_8 1_555 1_555
C7_8 C2_8 1_555 1_555
H4_8 C7_8 1_555 1_555
C8_8 C5_8 1_555 1_555
C9_8 C8_8 1_555 1_555
H5_8 C9_8 1_555 1_555
C10_8 C9_8 1_555 1_555
H6_8 C10_8 1_555 1_555
C11_8 C10_8 1_555 1_555
C12_8 C11_8 1_555 1_555
H7_8 C12_8 1_555 1_555
C13_8 C8_8 1_555 1_555
H8_8 C13_8 1_555 1_555
C14_12 C11_8 1_555 1_555
C15_12 C14_12 1_555 1_555
C16_8 C15_12 1_555 1_555
C17_8 C16_8 1_555 1_555
H9_8 C17_8 1_555 1_555
C18_8 C17_8 1_555 1_555
H10_8 C18_8 1_555 1_555
C19_8 C18_8 1_555 1_555
C20_8 C19_8 1_555 1_555
H11_8 C20_8 1_555 1_555
C21_8 C16_8 1_555 1_555
H12_8 C21_8 1_555 1_555
C22_8 C19_8 1_555 1_555
C23_8 C22_8 1_555 1_555
H13_8 C23_8 1_555 1_555
H15_8 C26_8 1_555 1_555
C27_8 C22_8 1_555 1_555
H16_8 C27_8 1_555 1_555
O17_7 C29_8 1_555 1_555
O18_8 C29_8 1_555 1_555
C29_8 C30_8 1_555 1_555
C30_8 C31_8 1_555 1_555
C31_8 H17_8 1_555 1_555
C32_8 C31_8 1_555 1_555
H18_8 C32_8 1_555 1_555
C33_8 C32_8 1_555 1_555
C34_8 C33_8 1_555 1_555
H19_8 C34_8 1_555 1_555
C35_8 C30_8 1_555 1_555
H20_8 C35_8 1_555 1_555
C36_8 C33_8 1_555 1_555
C37_8 C36_8 1_555 1_555
H21_8 C37_8 1_555 1_555
C38_8 C37_8 1_555 1_555
H22_8 C38_8 1_555 1_555
C39_8 C14_12 1_555 1_555
C40_8 C39_8 1_555 1_555
H23_8 C40_8 1_555 1_555
C41_8 C36_8 1_555 1_555
H24_8 C41_8 1_555 1_555
C42_8 C15_12 1_555 1_555
C43_8 C42_8 1_555 1_555
H25_8 C43_8 1_555 1_555
C44_8 C43_8 1_555 1_555
H26_8 C44_8 1_555 1_555
C45_8 C44_8 1_555 1_555
C46_8 C45_8 1_555 1_555
H27_8 C46_8 1_555 1_555
C47_8 C42_8 1_555 1_555
H28_8 C47_8 1_555 1_555
C48_8 C45_8 1_555 1_555
C49_8 C48_8 1_555 1_555
H29_8 C49_8 1_555 1_555
H31_8 C52_8 1_555 1_555
C53_8 C48_8 1_555 1_555
H32_8 C53_8 1_555 1_555
C6_8 C7_8 1_555 1_555
C12_8 C13_8 1_555 1_555
C20_8 C21_8 1_555 1_555
C26_8 C27_8 1_555 1_555
C34_8 C35_8 1_555 1_555
C38_8 C39_8 1_555 1_555
C40_8 C41_8 1_555 1_555
C46_8 C47_8 1_555 1_555
C52_8 C53_8 1_555 1_555
O20_6 C28_8 1_555 1_555
O22_5 C28_8 1_555 1_555
H14_8 C24_8 1_555 1_555
C25_8 C24_8 1_555 1_555
C28_8 C25_8 1_555 1_555
O20_7 C54_8 1_555 1_555
O22_8 C54_8 1_555 1_555
H30_8 C50_8 1_555 1_555
C51_8 C50_8 1_555 1_555
C54_8 C51_8 1_555 1_555

#END
