
###############################################################################
#
# This file contains modified crystal structure data generated from the
# MOF subset of the Cambridge Structural Database (CSD) v543 
# hosted by the Cambridge Crystallographic Data Centre (CCDC).
#
# This work is licensed under the Creative Commons
# Attribution-NonCommercial-ShareAlike 4.0 International License.
# To view a copy of this license, visit
# http://creativecommons.org/licenses/by-nc-sa/4.0/
# or send a letter to
# Creative Commons, PO Box 1866, Mountain View, CA 94042, USA.
#
# CIF created using the CSD Python API on 29 September 2022
# The structure has been converted into the P1 space group
# The structure has a 3D framework
# The original CSD entry RORBAE01 is in the orthorhombic crystal system
# The framework has been calculated to contain at least 10.0% void space
# The void calculation uses a probe of radius 1.32A, grid spacing 0.4
# H atom positions have been added when not included in the experimental data
# Generated hydrogen atom positions removed from atoms on special positions
#
###############################################################################

data_RORBAE01
_chemical_formula_moiety         '(C440 H384 O136 Zr28)n'
_symmetry_cell_setting           triclinic
_symmetry_space_group_name_H-M   'P 1'
_symmetry_Int_Tables_number      1
_space_group_name_Hall           'P 1'
loop_
_symmetry_equiv_pos_site_id
_symmetry_equiv_pos_as_xyz
1 x,y,z
_cell_length_a                   21.8356(8)
_cell_length_b                   42.279(2)
_cell_length_c                   17.9114(3)
_cell_angle_alpha                90
_cell_angle_beta                 90
_cell_angle_gamma                90
_cell_volume                     16535.6
loop_
_atom_site_label
_atom_site_type_symbol
_atom_site_fract_x
_atom_site_fract_y
_atom_site_fract_z
O3 O 0.43930(16) 0.66531(7) 0.15235(17)
O4 O 0.3880(2) 0.70175(8) 0.0870(2)
C25 C 0.3831(3) 0.64877(11) 0.0477(3)
C26 C 0.4115(3) 0.61933(13) 0.0477(3)
H15 H 0.4440 0.6151 0.0814
C28 C 0.4046(3) 0.67400(11) 0.0995(3)
O14 O 0.06070(16) 0.33469(7) 0.15235(17)
O15 O 0.1120(2) 0.29825(8) 0.0870(2)
C51 C 0.1169(3) 0.35123(11) 0.0477(3)
C52 C 0.0885(3) 0.38067(13) 0.0477(3)
H31 H 0.0560 0.3849 0.0814
C54 C 0.0954(3) 0.32600(11) 0.0995(3)
Zr4 Zr -0.0000 0.30799(2) 0.22695(2)
Zr6 Zr 0.5000 0.69201(2) 0.22695(2)
Zr7 Zr 0.08088(3) 0.2500 0.12796(3)
Zr9 Zr 0.41912(3) 0.7500 0.12796(3)
Zr3 Zr 0.08109(3) 0.2500 0.32587(3)
O1 O 0.06046(16) 0.33474(7) 0.30131(17)
O2 O 0.1113(2) 0.29802(8) 0.3671(2)
O5 O 0.0000 0.27801(13) 0.1288(4)
O6 O 0.0000 0.27810(14) 0.3260(4)
O7 O 0.0814(3) 0.27816(10) 0.22665(18)
O8 O 0.0743(3) 0.2500 0.0064(3)
O9 O 0.1813(2) 0.2500 0.1293(4)
O10 O 0.0746(3) 0.2500 0.4503(3)
O11 O 0.1819(3) 0.2500 0.3234(4)
C1 C 0.0944(3) 0.32602(11) 0.3548(3)
C2 C 0.1149(3) 0.35118(12) 0.4076(3)
C3 C 0.1514(4) 0.34409(14) 0.4688(4)
H1 H 0.1631 0.3228 0.4775
C4 C 0.1709(4) 0.36712(14) 0.5168(4)
H2 H 0.1958 0.3616 0.5583
C5 C 0.1547(3) 0.39871(13) 0.5055(3)
C6 C 0.1165(4) 0.40555(14) 0.4459(3)
H3 H 0.1040 0.4268 0.4375
C7 C 0.0960(3) 0.38189(13) 0.3980(3)
H4 H 0.0688 0.3870 0.3584
C8 C 0.1777(3) 0.42437(13) 0.5557(3)
C9 C 0.2228(4) 0.41892(14) 0.6069(3)
H5 H 0.2382 0.3981 0.6129
C10 C 0.2469(4) 0.44328(14) 0.6505(4)
H6 H 0.2790 0.4388 0.6847
C11 C 0.2254(3) 0.47313(12) 0.6451(3)
C12 C 0.1804(4) 0.47847(16) 0.5940(4)
H7 H 0.1659 0.4995 0.5872
C13 C 0.1551(5) 0.45456(16) 0.5518(4)
H8 H 0.1217 0.4591 0.5195
C14 C 0.2500 0.5000 0.6905(4)
C15 C 0.2500 0.5000 0.7649(4)
C16 C 0.2758(3) 0.52694(13) 0.8106(3)
C17 C 0.2365(3) 0.54482(16) 0.8542(3)
H9 H 0.1939 0.5403 0.8547
C18 C 0.2597(3) 0.56940(16) 0.8970(4)
H10 H 0.2322 0.5821 0.9251
C19 C 0.3209(3) 0.57590(13) 0.9000(3)
C20 C 0.3597(3) 0.55733(15) 0.8580(4)
H11 H 0.4026 0.5608 0.8603
C21 C 0.3365(4) 0.53346(15) 0.8121(4)
H12 H 0.3637 0.5216 0.7815
C22 C 0.3443(3) 0.60146(12) 0.9494(3)
C23 C 0.3156(3) 0.63091(14) 0.9509(4)
H13 H 0.2818 0.6348 0.9188
C24 C 0.3355(3) 0.65441(14) 0.9980(4)
H14 H 0.3166 0.6746 0.9966
C27 C 0.3919(3) 0.59617(13) 0.9979(4)
H16 H 0.4119 0.5762 0.9975
O12 O 0.43954(16) 0.66526(7) 0.30131(17)
O13 O 0.3887(2) 0.70198(8) 0.3671(2)
C29 C 0.4056(3) 0.67398(11) 0.3548(3)
C30 C 0.3851(3) 0.64882(12) 0.4076(3)
C31 C 0.3486(4) 0.65591(14) 0.4688(4)
H17 H 0.3369 0.6772 0.4775
C32 C 0.3291(4) 0.63288(14) 0.5168(4)
H18 H 0.3042 0.6384 0.5583
C33 C 0.3453(3) 0.60129(13) 0.5055(3)
C34 C 0.3835(4) 0.59445(14) 0.4459(3)
H19 H 0.3960 0.5732 0.4375
C35 C 0.4040(3) 0.61811(13) 0.3980(3)
H20 H 0.4312 0.6130 0.3584
C36 C 0.3223(3) 0.57563(13) 0.5557(3)
C37 C 0.2772(4) 0.58108(14) 0.6069(3)
H21 H 0.2618 0.6019 0.6129
C38 C 0.2531(4) 0.55672(14) 0.6505(4)
H22 H 0.2210 0.5612 0.6847
C39 C 0.2746(3) 0.52687(12) 0.6451(3)
C40 C 0.3196(4) 0.52153(16) 0.5940(4)
H23 H 0.3341 0.5005 0.5872
C41 C 0.3449(5) 0.54544(16) 0.5518(4)
H24 H 0.3783 0.5409 0.5195
C42 C 0.2242(3) 0.47306(13) 0.8106(3)
C43 C 0.2635(3) 0.45518(16) 0.8542(3)
H25 H 0.3061 0.4597 0.8547
C44 C 0.2403(3) 0.43060(16) 0.8970(4)
H26 H 0.2678 0.4179 0.9251
C45 C 0.1791(3) 0.42410(13) 0.9000(3)
C46 C 0.1403(3) 0.44267(15) 0.8580(4)
H27 H 0.0974 0.4392 0.8603
C47 C 0.1635(4) 0.46654(15) 0.8121(4)
H28 H 0.1363 0.4784 0.7815
C48 C 0.1557(3) 0.39854(12) 0.9494(3)
C49 C 0.1844(3) 0.36909(14) 0.9509(4)
H29 H 0.2182 0.3652 0.9188
C50 C 0.1645(3) 0.34559(14) 0.9980(4)
H30 H 0.1834 0.3254 0.9966
C53 C 0.1081(3) 0.40383(13) 0.9979(4)
H32 H 0.0881 0.4238 0.9975
Zr11 Zr 0.41891(3) 0.7500 0.32587(3)
O18 O 0.1113(2) 0.20198(8) 0.3671(2)
O22 O 0.1120(2) 0.20175(8) 0.0870(2)
O23 O 0.0000 0.22199(13) 0.1288(4)
O24 O 0.0000 0.22190(14) 0.3260(4)
O25 O 0.0814(3) 0.22184(10) 0.22665(18)
Zr4_2 Zr 1.0000 0.30799(2) 0.22695(2)
O5_2 O 1.0000 0.27801(13) 0.1288(4)
O6_2 O 1.0000 0.27810(14) 0.3260(4)
O16 O 0.9186(3) 0.27816(10) 0.22665(18)
Zr8 Zr 0.91912(3) 0.2500 0.12796(3)
Zr10 Zr 0.91891(3) 0.2500 0.32587(3)
O17 O 0.93954(16) 0.33474(7) 0.30131(17)
O20 O 0.93930(16) 0.33469(7) 0.15235(17)
O23_2 O 1.0000 0.22199(13) 0.1288(4)
O24_2 O 1.0000 0.22190(14) 0.3260(4)
Zr4_3 Zr 0.0000 0.19201(2) 0.22695(2)
O17_2 O 0.06046(16) 0.16526(7) 0.30131(17)
O20_2 O 0.06070(16) 0.16531(7) 0.15235(17)
O14_2 O 0.93930(16) 0.16531(7) 0.15235(17)
O15_2 O 0.8880(2) 0.20175(8) 0.0870(2)
C51_2 C 0.8831(3) 0.14877(11) 0.0477(3)
C52_2 C 0.9115(3) 0.11933(13) 0.0477(3)
H31_2 H 0.9440 0.1151 0.0814
C54_2 C 0.9046(3) 0.17400(11) 0.0995(3)
Zr4_4 Zr 1.0000 0.19201(2) 0.22695(2)
O1_2 O 0.93954(16) 0.16526(7) 0.30131(17)
O2_2 O 0.8887(2) 0.20198(8) 0.3671(2)
O7_2 O 0.9186(3) 0.22184(10) 0.22665(18)
O8_2 O 0.9257(3) 0.2500 0.0064(3)
O9_2 O 0.8187(2) 0.2500 0.1293(4)
O10_2 O 0.9254(3) 0.2500 0.4503(3)
O11_2 O 0.8181(3) 0.2500 0.3234(4)
C1_2 C 0.9056(3) 0.17398(11) 0.3548(3)
C2_2 C 0.8851(3) 0.14882(12) 0.4076(3)
C3_2 C 0.8486(4) 0.15591(14) 0.4688(4)
H1_2 H 0.8369 0.1772 0.4775
C4_2 C 0.8291(4) 0.13288(14) 0.5168(4)
H2_2 H 0.8042 0.1384 0.5583
C5_2 C 0.8453(3) 0.10129(13) 0.5055(3)
C6_2 C 0.8835(4) 0.09445(14) 0.4459(3)
H3_2 H 0.8960 0.0732 0.4375
C7_2 C 0.9040(3) 0.11811(13) 0.3980(3)
H4_2 H 0.9312 0.1130 0.3584
C8_2 C 0.8223(3) 0.07563(13) 0.5557(3)
C9_2 C 0.7772(4) 0.08108(14) 0.6069(3)
H5_2 H 0.7618 0.1019 0.6129
C10_2 C 0.7531(4) 0.05672(14) 0.6505(4)
H6_2 H 0.7210 0.0612 0.6847
C11_2 C 0.7746(3) 0.02687(12) 0.6451(3)
C12_2 C 0.8196(4) 0.02153(16) 0.5940(4)
H7_2 H 0.8341 0.0005 0.5872
C13_2 C 0.8449(5) 0.04544(16) 0.5518(4)
H8_2 H 0.8783 0.0409 0.5195
C14_2 C 0.7500 0.0000 0.6905(4)
C15_2 C 0.7500 0.0000 0.7649(4)
C42_2 C 0.7758(3) 0.02694(13) 0.8106(3)
C43_2 C 0.7365(3) 0.04482(16) 0.8542(3)
H25_2 H 0.6939 0.0403 0.8547
C44_2 C 0.7597(3) 0.06940(16) 0.8970(4)
H26_2 H 0.7322 0.0821 0.9251
C45_2 C 0.8209(3) 0.07590(13) 0.9000(3)
C46_2 C 0.8597(3) 0.05733(15) 0.8580(4)
H27_2 H 0.9026 0.0608 0.8603
C47_2 C 0.8365(4) 0.03346(15) 0.8121(4)
H28_2 H 0.8637 0.0216 0.7815
C48_2 C 0.8443(3) 0.10146(12) 0.9494(3)
C49_2 C 0.8156(3) 0.13091(14) 0.9509(4)
H29_2 H 0.7818 0.1348 0.9188
C50_2 C 0.8355(3) 0.15441(14) 0.9980(4)
H30_2 H 0.8166 0.1746 0.9966
C53_2 C 0.8919(3) 0.09617(13) 0.9979(4)
H32_2 H 0.9119 0.0762 0.9975
O18_2 O 0.8887(2) 0.29802(8) 0.3671(2)
O22_2 O 0.8880(2) 0.29825(8) 0.0870(2)
O3_2 O 0.56070(16) 0.83469(7) 0.15235(17)
O4_2 O 0.6120(2) 0.79825(8) 0.0870(2)
C25_2 C 0.6169(3) 0.85123(11) 0.0477(3)
C26_2 C 0.5885(3) 0.88067(13) 0.0477(3)
H15_2 H 0.5560 0.8849 0.0814
C28_2 C 0.5954(3) 0.82600(11) 0.0995(3)
Zr6_2 Zr 0.5000 0.80799(2) 0.22695(2)
Zr9_2 Zr 0.58088(3) 0.7500 0.12796(3)
C14_3 C 0.7500 1.0000 0.6905(4)
C15_3 C 0.7500 1.0000 0.7649(4)
C16_2 C 0.7242(3) 0.97306(13) 0.8106(3)
C17_2 C 0.7635(3) 0.95518(16) 0.8542(3)
H9_2 H 0.8061 0.9597 0.8547
C18_2 C 0.7403(3) 0.93060(16) 0.8970(4)
H10_2 H 0.7678 0.9179 0.9251
C19_2 C 0.6791(3) 0.92410(13) 0.9000(3)
C20_2 C 0.6403(3) 0.94267(15) 0.8580(4)
H11_2 H 0.5974 0.9392 0.8603
C21_2 C 0.6635(4) 0.96654(15) 0.8121(4)
H12_2 H 0.6363 0.9784 0.7815
C22_2 C 0.6557(3) 0.89854(12) 0.9494(3)
C23_2 C 0.6844(3) 0.86909(14) 0.9509(4)
H13_2 H 0.7182 0.8652 0.9188
C24_2 C 0.6645(3) 0.84559(14) 0.9980(4)
H14_2 H 0.6834 0.8254 0.9966
C27_2 C 0.6081(3) 0.90383(13) 0.9979(4)
H16_2 H 0.5881 0.9238 0.9975
O12_2 O 0.56046(16) 0.83474(7) 0.30131(17)
O13_2 O 0.6113(2) 0.79802(8) 0.3671(2)
C29_2 C 0.5944(3) 0.82602(11) 0.3548(3)
C30_2 C 0.6149(3) 0.85118(12) 0.4076(3)
C31_2 C 0.6514(4) 0.84409(14) 0.4688(4)
H17_2 H 0.6631 0.8228 0.4775
C32_2 C 0.6709(4) 0.86712(14) 0.5168(4)
H18_2 H 0.6958 0.8616 0.5583
C33_2 C 0.6547(3) 0.89871(13) 0.5055(3)
C34_2 C 0.6165(4) 0.90555(14) 0.4459(3)
H19_2 H 0.6040 0.9268 0.4375
C35_2 C 0.5960(3) 0.88189(13) 0.3980(3)
H20_2 H 0.5688 0.8870 0.3584
C36_2 C 0.6777(3) 0.92437(13) 0.5557(3)
C37_2 C 0.7228(4) 0.91892(14) 0.6069(3)
H21_2 H 0.7382 0.8981 0.6129
C38_2 C 0.7469(4) 0.94328(14) 0.6505(4)
H22_2 H 0.7790 0.9388 0.6847
C39_2 C 0.7254(3) 0.97313(12) 0.6451(3)
C40_2 C 0.6804(4) 0.97847(16) 0.5940(4)
H23_2 H 0.6659 0.9995 0.5872
C41_2 C 0.6551(5) 0.95456(16) 0.5518(4)
H24_2 H 0.6217 0.9591 0.5195
Zr11_2 Zr 0.58109(3) 0.7500 0.32587(3)
O5_3 O 0.5000 0.77801(13) 0.1288(4)
O6_3 O 0.5000 0.77810(14) 0.3260(4)
O7_3 O 0.5814(3) 0.77816(10) 0.22665(18)
O8_3 O 0.5743(3) 0.7500 0.0064(3)
O9_3 O 0.6813(2) 0.7500 0.1293(4)
O10_3 O 0.5746(3) 0.7500 0.4503(3)
O11_3 O 0.6819(3) 0.7500 0.3234(4)
O16_2 O 0.4186(3) 0.77816(10) 0.22665(18)
O17_3 O 0.43954(16) 0.83474(7) 0.30131(17)
O18_3 O 0.6113(2) 0.70198(8) 0.3671(2)
O20_3 O 0.43930(16) 0.83469(7) 0.15235(17)
O22_3 O 0.6120(2) 0.70175(8) 0.0870(2)
O23_3 O 0.5000 0.72199(13) 0.1288(4)
O24_3 O 0.5000 0.72190(14) 0.3260(4)
O25_2 O 0.5814(3) 0.72184(10) 0.22665(18)
O7_4 O 0.4186(3) 0.72184(10) 0.22665(18)
O8_4 O 0.4257(3) 0.7500 0.0064(3)
O9_4 O 0.3187(2) 0.7500 0.1293(4)
O10_4 O 0.4254(3) 0.7500 0.4503(3)
O11_4 O 0.3181(3) 0.7500 0.3234(4)
O17_4 O 0.56046(16) 0.66526(7) 0.30131(17)
O18_4 O 0.3887(2) 0.79802(8) 0.3671(2)
O20_4 O 0.56070(16) 0.66531(7) 0.15235(17)
O22_4 O 0.3880(2) 0.79825(8) 0.0870(2)
C25_3 C 0.6169(3) 0.64877(11) 0.0477(3)
C26_3 C 0.5885(3) 0.61933(13) 0.0477(3)
H15_3 H 0.5560 0.6151 0.0814
C28_3 C 0.5954(3) 0.67400(11) 0.0995(3)
C51_3 C 0.8831(3) 0.35123(11) 0.0477(3)
C52_3 C 0.9115(3) 0.38067(13) 0.0477(3)
H31_3 H 0.9440 0.3849 0.0814
C54_3 C 0.9046(3) 0.32600(11) 0.0995(3)
C1_3 C 0.9056(3) 0.32602(11) 0.3548(3)
C2_3 C 0.8851(3) 0.35118(12) 0.4076(3)
C3_3 C 0.8486(4) 0.34409(14) 0.4688(4)
H1_3 H 0.8369 0.3228 0.4775
C4_3 C 0.8291(4) 0.36712(14) 0.5168(4)
H2_3 H 0.8042 0.3616 0.5583
C5_3 C 0.8453(3) 0.39871(13) 0.5055(3)
C6_3 C 0.8835(4) 0.40555(14) 0.4459(3)
H3_3 H 0.8960 0.4268 0.4375
C7_3 C 0.9040(3) 0.38189(13) 0.3980(3)
H4_3 H 0.9312 0.3870 0.3584
C8_3 C 0.8223(3) 0.42437(13) 0.5557(3)
C9_3 C 0.7772(4) 0.41892(14) 0.6069(3)
H5_3 H 0.7618 0.3981 0.6129
C10_3 C 0.7531(4) 0.44328(14) 0.6505(4)
H6_3 H 0.7210 0.4388 0.6847
C11_3 C 0.7746(3) 0.47313(12) 0.6451(3)
C12_3 C 0.8196(4) 0.47847(16) 0.5940(4)
H7_3 H 0.8341 0.4995 0.5872
C13_3 C 0.8449(5) 0.45456(16) 0.5518(4)
H8_3 H 0.8783 0.4591 0.5195
C14_4 C 0.7500 0.5000 0.6905(4)
C15_4 C 0.7500 0.5000 0.7649(4)
C16_3 C 0.7242(3) 0.52694(13) 0.8106(3)
C17_3 C 0.7635(3) 0.54482(16) 0.8542(3)
H9_3 H 0.8061 0.5403 0.8547
C18_3 C 0.7403(3) 0.56940(16) 0.8970(4)
H10_3 H 0.7678 0.5821 0.9251
C19_3 C 0.6791(3) 0.57590(13) 0.9000(3)
C20_3 C 0.6403(3) 0.55733(15) 0.8580(4)
H11_3 H 0.5974 0.5608 0.8603
C21_3 C 0.6635(4) 0.53346(15) 0.8121(4)
H12_3 H 0.6363 0.5216 0.7815
C22_3 C 0.6557(3) 0.60146(12) 0.9494(3)
C23_3 C 0.6844(3) 0.63091(14) 0.9509(4)
H13_3 H 0.7182 0.6348 0.9188
C24_3 C 0.6645(3) 0.65441(14) 0.9980(4)
H14_3 H 0.6834 0.6746 0.9966
C27_3 C 0.6081(3) 0.59617(13) 0.9979(4)
H16_3 H 0.5881 0.5762 0.9975
C29_3 C 0.5944(3) 0.67398(11) 0.3548(3)
C30_3 C 0.6149(3) 0.64882(12) 0.4076(3)
C31_3 C 0.6514(4) 0.65591(14) 0.4688(4)
H17_3 H 0.6631 0.6772 0.4775
C32_3 C 0.6709(4) 0.63288(14) 0.5168(4)
H18_3 H 0.6958 0.6384 0.5583
C33_3 C 0.6547(3) 0.60129(13) 0.5055(3)
C34_3 C 0.6165(4) 0.59445(14) 0.4459(3)
H19_3 H 0.6040 0.5732 0.4375
C35_3 C 0.5960(3) 0.61811(13) 0.3980(3)
H20_3 H 0.5688 0.6130 0.3584
C36_3 C 0.6777(3) 0.57563(13) 0.5557(3)
C37_3 C 0.7228(4) 0.58108(14) 0.6069(3)
H21_3 H 0.7382 0.6019 0.6129
C38_3 C 0.7469(4) 0.55672(14) 0.6505(4)
H22_3 H 0.7790 0.5612 0.6847
C39_3 C 0.7254(3) 0.52687(12) 0.6451(3)
C40_3 C 0.6804(4) 0.52153(16) 0.5940(4)
H23_3 H 0.6659 0.5005 0.5872
C41_3 C 0.6551(5) 0.54544(16) 0.5518(4)
H24_3 H 0.6217 0.5409 0.5195
C42_3 C 0.7758(3) 0.47306(13) 0.8106(3)
C43_3 C 0.7365(3) 0.45518(16) 0.8542(3)
H25_3 H 0.6939 0.4597 0.8547
C44_3 C 0.7597(3) 0.43060(16) 0.8970(4)
H26_3 H 0.7322 0.4179 0.9251
C45_3 C 0.8209(3) 0.42410(13) 0.9000(3)
C46_3 C 0.8597(3) 0.44267(15) 0.8580(4)
H27_3 H 0.9026 0.4392 0.8603
C47_3 C 0.8365(4) 0.46654(15) 0.8121(4)
H28_3 H 0.8637 0.4784 0.7815
C48_3 C 0.8443(3) 0.39854(12) 0.9494(3)
C49_3 C 0.8156(3) 0.36909(14) 0.9509(4)
H29_3 H 0.7818 0.3652 0.9188
C50_3 C 0.8355(3) 0.34559(14) 0.9980(4)
H30_3 H 0.8166 0.3254 0.9966
C53_3 C 0.8919(3) 0.40383(13) 0.9979(4)
H32_3 H 0.9119 0.4238 0.9975
C51_4 C 0.1169(3) 0.14877(11) 0.0477(3)
C52_4 C 0.0885(3) 0.11933(13) 0.0477(3)
H31_4 H 0.0560 0.1151 0.0814
C54_4 C 0.0954(3) 0.17400(11) 0.0995(3)
C1_4 C 0.0944(3) 0.17398(11) 0.3548(3)
C2_4 C 0.1149(3) 0.14882(12) 0.4076(3)
C3_4 C 0.1514(4) 0.15591(14) 0.4688(4)
H1_4 H 0.1631 0.1772 0.4775
C4_4 C 0.1709(4) 0.13288(14) 0.5168(4)
H2_4 H 0.1958 0.1384 0.5583
C5_4 C 0.1547(3) 0.10129(13) 0.5055(3)
C6_4 C 0.1165(4) 0.09445(14) 0.4459(3)
H3_4 H 0.1040 0.0732 0.4375
C7_4 C 0.0960(3) 0.11811(13) 0.3980(3)
H4_4 H 0.0688 0.1130 0.3584
C8_4 C 0.1777(3) 0.07563(13) 0.5557(3)
C9_4 C 0.2228(4) 0.08108(14) 0.6069(3)
H5_4 H 0.2382 0.1019 0.6129
C10_4 C 0.2469(4) 0.05672(14) 0.6505(4)
H6_4 H 0.2790 0.0612 0.6847
C11_4 C 0.2254(3) 0.02687(12) 0.6451(3)
C12_4 C 0.1804(4) 0.02153(16) 0.5940(4)
H7_4 H 0.1659 0.0005 0.5872
C13_4 C 0.1551(5) 0.04544(16) 0.5518(4)
H8_4 H 0.1217 0.0409 0.5195
C14_5 C 0.2500 0.0000 0.6905(4)
C15_5 C 0.2500 0.0000 0.7649(4)
C42_4 C 0.2242(3) 0.02694(13) 0.8106(3)
C43_4 C 0.2635(3) 0.04482(16) 0.8542(3)
H25_4 H 0.3061 0.0403 0.8547
C44_4 C 0.2403(3) 0.06940(16) 0.8970(4)
H26_4 H 0.2678 0.0821 0.9251
C45_4 C 0.1791(3) 0.07590(13) 0.9000(3)
C46_4 C 0.1403(3) 0.05733(15) 0.8580(4)
H27_4 H 0.0974 0.0608 0.8603
C47_4 C 0.1635(4) 0.03346(15) 0.8121(4)
H28_4 H 0.1363 0.0216 0.7815
C48_4 C 0.1557(3) 0.10146(12) 0.9494(3)
C49_4 C 0.1844(3) 0.13091(14) 0.9509(4)
H29_4 H 0.2182 0.1348 0.9188
C50_4 C 0.1645(3) 0.15441(14) 0.9980(4)
H30_4 H 0.1834 0.1746 0.9966
C53_4 C 0.1081(3) 0.09617(13) 0.9979(4)
H32_4 H 0.0881 0.0762 0.9975
C25_4 C 0.3831(3) 0.85123(11) 0.0477(3)
C26_4 C 0.4115(3) 0.88067(13) 0.0477(3)
H15_4 H 0.4440 0.8849 0.0814
C28_4 C 0.4046(3) 0.82600(11) 0.0995(3)
C14_6 C 0.2500 1.0000 0.6905(4)
C15_6 C 0.2500 1.0000 0.7649(4)
C16_4 C 0.2758(3) 0.97306(13) 0.8106(3)
C17_4 C 0.2365(3) 0.95518(16) 0.8542(3)
H9_4 H 0.1939 0.9597 0.8547
C18_4 C 0.2597(3) 0.93060(16) 0.8970(4)
H10_4 H 0.2322 0.9179 0.9251
C19_4 C 0.3209(3) 0.92410(13) 0.9000(3)
C20_4 C 0.3597(3) 0.94267(15) 0.8580(4)
H11_4 H 0.4026 0.9392 0.8603
C21_4 C 0.3365(4) 0.96654(15) 0.8121(4)
H12_4 H 0.3637 0.9784 0.7815
C22_4 C 0.3443(3) 0.89854(12) 0.9494(3)
C23_4 C 0.3156(3) 0.86909(14) 0.9509(4)
H13_4 H 0.2818 0.8652 0.9188
C24_4 C 0.3355(3) 0.84559(14) 0.9980(4)
H14_4 H 0.3166 0.8254 0.9966
C27_4 C 0.3919(3) 0.90383(13) 0.9979(4)
H16_4 H 0.4119 0.9238 0.9975
C29_4 C 0.4056(3) 0.82602(11) 0.3548(3)
C30_4 C 0.3851(3) 0.85118(12) 0.4076(3)
C31_4 C 0.3486(4) 0.84409(14) 0.4688(4)
H17_4 H 0.3369 0.8228 0.4775
C32_4 C 0.3291(4) 0.86712(14) 0.5168(4)
H18_4 H 0.3042 0.8616 0.5583
C33_4 C 0.3453(3) 0.89871(13) 0.5055(3)
C34_4 C 0.3835(4) 0.90555(14) 0.4459(3)
H19_4 H 0.3960 0.9268 0.4375
C35_4 C 0.4040(3) 0.88189(13) 0.3980(3)
H20_4 H 0.4312 0.8870 0.3584
C36_4 C 0.3223(3) 0.92437(13) 0.5557(3)
C37_4 C 0.2772(4) 0.91892(14) 0.6069(3)
H21_4 H 0.2618 0.8981 0.6129
C38_4 C 0.2531(4) 0.94328(14) 0.6505(4)
H22_4 H 0.2210 0.9388 0.6847
C39_4 C 0.2746(3) 0.97313(12) 0.6451(3)
C40_4 C 0.3196(4) 0.97847(16) 0.5940(4)
H23_4 H 0.3341 0.9995 0.5872
C41_4 C 0.3449(5) 0.95456(16) 0.5518(4)
H24_4 H 0.3783 0.9591 0.5195
H39 H 0.0762017 0.272093 0.987727
H40 H 0.108817 0.237654 0.985103
H39_2 H 0.923798 0.227907 0.987727
H40_2 H 0.891183 0.262346 0.985103
H39_3 H 0.0762017 0.727907 0.012273
H40_3 H 0.108817 0.762346 0.0148968
Zr1 Zr -0.0000 0.69201(2) 0.77305(2)
Zr2 Zr 0.08088(3) 0.7500 0.87204(3)
Zr3_2 Zr 0.08109(3) 0.7500 0.67413(3)
O1_3 O 0.06046(16) 0.66526(7) 0.69869(17)
O2_3 O 0.1113(2) 0.70198(8) 0.6329(2)
O5_4 O -0.0000 0.72199(13) 0.8712(4)
O6_4 O 0.0000 0.72190(14) 0.6740(4)
O7_5 O 0.0814(3) 0.72184(10) 0.77335(18)
O8_5 O 0.0743(3) 0.7500 0.9936(3)
O9_5 O 0.1813(2) 0.7500 0.8707(4)
O10_5 O 0.0746(3) 0.7500 0.5497(3)
O11_5 O 0.1819(3) 0.7500 0.6766(4)
C1_5 C 0.0944(3) 0.67398(11) 0.6452(3)
C2_5 C 0.1149(3) 0.64882(12) 0.5924(3)
C3_5 C 0.1514(4) 0.65591(14) 0.5312(4)
H1_5 H 0.1631 0.6772 0.5225
C4_5 C 0.1709(4) 0.63288(14) 0.4832(4)
H2_5 H 0.1958 0.6384 0.4417
C5_5 C 0.1547(3) 0.60129(13) 0.4945(3)
C6_5 C 0.1165(4) 0.59445(14) 0.5541(3)
H3_5 H 0.1040 0.5732 0.5625
C7_5 C 0.0960(3) 0.61811(13) 0.6020(3)
H4_5 H 0.0688 0.6130 0.6416
C8_5 C 0.1777(3) 0.57563(13) 0.4443(3)
C9_5 C 0.2228(4) 0.58108(14) 0.3931(3)
H5_5 H 0.2382 0.6019 0.3871
C10_5 C 0.2469(4) 0.55672(14) 0.3495(4)
H6_5 H 0.2790 0.5612 0.3153
C11_5 C 0.2254(3) 0.52687(12) 0.3549(3)
C12_5 C 0.1804(4) 0.52153(16) 0.4060(4)
H7_5 H 0.1659 0.5005 0.4128
C13_5 C 0.1551(5) 0.54544(16) 0.4482(4)
H8_5 H 0.1217 0.5409 0.4805
C14_7 C 0.2500 0.5000 0.3095(4)
C15_7 C 0.2500 0.5000 0.2351(4)
C16_5 C 0.2758(3) 0.47306(13) 0.1894(3)
C17_5 C 0.2365(3) 0.45518(16) 0.1458(3)
H9_5 H 0.1939 0.4597 0.1453
C18_5 C 0.2597(3) 0.43060(16) 0.1030(4)
H10_5 H 0.2322 0.4179 0.0749
C19_5 C 0.3209(3) 0.42410(13) 0.1000(3)
C20_5 C 0.3597(3) 0.44267(15) 0.1420(4)
H11_5 H 0.4026 0.4392 0.1397
C21_5 C 0.3365(4) 0.46654(15) 0.1879(4)
H12_5 H 0.3637 0.4784 0.2185
C22_5 C 0.3443(3) 0.39854(12) 0.0506(3)
C23_5 C 0.3156(3) 0.36909(14) 0.0491(4)
H13_5 H 0.2818 0.3652 0.0812
C24_5 C 0.3355(3) 0.34559(14) 0.0020(4)
H14_5 H 0.3166 0.3254 0.0034
C27_5 C 0.3919(3) 0.40383(13) 0.0021(4)
H16_5 H 0.4119 0.4238 0.0025
O12_3 O 0.43954(16) 0.33474(7) 0.69869(17)
O13_3 O 0.3887(2) 0.29802(8) 0.6329(2)
C29_5 C 0.4056(3) 0.32602(11) 0.6452(3)
C30_5 C 0.3851(3) 0.35118(12) 0.5924(3)
C31_5 C 0.3486(4) 0.34409(14) 0.5312(4)
H17_5 H 0.3369 0.3228 0.5225
C32_5 C 0.3291(4) 0.36712(14) 0.4832(4)
H18_5 H 0.3042 0.3616 0.4417
C33_5 C 0.3453(3) 0.39871(13) 0.4945(3)
C34_5 C 0.3835(4) 0.40555(14) 0.5541(3)
H19_5 H 0.3960 0.4268 0.5625
C35_5 C 0.4040(3) 0.38189(13) 0.6020(3)
H20_5 H 0.4312 0.3870 0.6416
C36_5 C 0.3223(3) 0.42437(13) 0.4443(3)
C37_5 C 0.2772(4) 0.41892(14) 0.3931(3)
H21_5 H 0.2618 0.3981 0.3871
C38_5 C 0.2531(4) 0.44328(14) 0.3495(4)
H22_5 H 0.2210 0.4388 0.3153
C39_5 C 0.2746(3) 0.47313(12) 0.3549(3)
C40_5 C 0.3196(4) 0.47847(16) 0.4060(4)
H23_5 H 0.3341 0.4995 0.4128
C41_5 C 0.3449(5) 0.45456(16) 0.4482(4)
H24_5 H 0.3783 0.4591 0.4805
C42_5 C 0.2242(3) 0.52694(13) 0.1894(3)
C43_5 C 0.2635(3) 0.54482(16) 0.1458(3)
H25_5 H 0.3061 0.5403 0.1453
C44_5 C 0.2403(3) 0.56940(16) 0.1030(4)
H26_5 H 0.2678 0.5821 0.0749
C45_5 C 0.1791(3) 0.57590(13) 0.1000(3)
C46_5 C 0.1403(3) 0.55733(15) 0.1420(4)
H27_5 H 0.0974 0.5608 0.1397
C47_5 C 0.1635(4) 0.53346(15) 0.1879(4)
H28_5 H 0.1363 0.5216 0.2185
C48_5 C 0.1557(3) 0.60146(12) 0.0506(3)
C49_5 C 0.1844(3) 0.63091(14) 0.0491(4)
H29_5 H 0.2182 0.6348 0.0812
C50_5 C 0.1645(3) 0.65441(14) 0.0020(4)
H30_5 H 0.1834 0.6746 0.0034
C53_5 C 0.1081(3) 0.59617(13) 0.0021(4)
H32_5 H 0.0881 0.5762 0.0025
Zr5 Zr 0.5000 0.30799(2) 0.77305(2)
Zr11_3 Zr 0.41891(3) 0.2500 0.67413(3)
O18_5 O 0.1113(2) 0.79802(8) 0.6329(2)
O19 O 0.06070(16) 0.66531(7) 0.84765(17)
O21 O 0.1120(2) 0.70175(8) 0.9130(2)
O22_5 O 0.1120(2) 0.79825(8) 0.9130(2)
O23_4 O -0.0000 0.77801(13) 0.8712(4)
O24_4 O 0.0000 0.77810(14) 0.6740(4)
O25_3 O 0.0814(3) 0.77816(10) 0.77335(18)
O3_3 O 0.43930(16) 0.33469(7) 0.84765(17)
O4_3 O 0.3880(2) 0.29825(8) 0.9130(2)
C25_5 C 0.3831(3) 0.35123(11) 0.9523(3)
C26_5 C 0.4115(3) 0.38067(13) 0.9523(3)
H15_5 H 0.4440 0.3849 0.9186
C28_5 C 0.4046(3) 0.32600(11) 0.9005(3)
C51_5 C 0.1169(3) 0.64877(11) 0.9523(3)
C52_5 C 0.0885(3) 0.61933(13) 0.9523(3)
H31_5 H 0.0560 0.6151 0.9186
C54_5 C 0.0954(3) 0.67400(11) 0.9005(3)
Zr9_3 Zr 0.41912(3) 0.2500 0.87204(3)
Zr1_2 Zr 1.0000 0.69201(2) 0.77305(2)
O5_5 O 1.0000 0.72199(13) 0.8712(4)
O6_5 O 1.0000 0.72190(14) 0.6740(4)
O16_3 O 0.9186(3) 0.72184(10) 0.77335(18)
Zr8_2 Zr 0.91912(3) 0.7500 0.87204(3)
Zr10_2 Zr 0.91891(3) 0.7500 0.67413(3)
O17_5 O 0.93954(16) 0.66526(7) 0.69869(17)
O20_5 O 0.93930(16) 0.66531(7) 0.84765(17)
O23_5 O 1.0000 0.77801(13) 0.8712(4)
O24_5 O 1.0000 0.77810(14) 0.6740(4)
Zr1_3 Zr 0.0000 0.80799(2) 0.77305(2)
O17_6 O 0.06046(16) 0.83474(7) 0.69869(17)
O20_6 O 0.06070(16) 0.83469(7) 0.84765(17)
C14_8 C 0.7500 0.0000 0.3095(4)
C15_8 C 0.7500 0.0000 0.2351(4)
C16_6 C 0.7242(3) 0.02694(13) 0.1894(3)
C17_6 C 0.7635(3) 0.04482(16) 0.1458(3)
H9_6 H 0.8061 0.0403 0.1453
C18_6 C 0.7403(3) 0.06940(16) 0.1030(4)
H10_6 H 0.7678 0.0821 0.0749
C19_6 C 0.6791(3) 0.07590(13) 0.1000(3)
C20_6 C 0.6403(3) 0.05733(15) 0.1420(4)
H11_6 H 0.5974 0.0608 0.1397
C21_6 C 0.6635(4) 0.03346(15) 0.1879(4)
H12_6 H 0.6363 0.0216 0.2185
C22_6 C 0.6557(3) 0.10146(12) 0.0506(3)
C23_6 C 0.6844(3) 0.13091(14) 0.0491(4)
H13_6 H 0.7182 0.1348 0.0812
C24_6 C 0.6645(3) 0.15441(14) 0.0020(4)
H14_6 H 0.6834 0.1746 0.0034
C27_6 C 0.6081(3) 0.09617(13) 0.0021(4)
H16_6 H 0.5881 0.0762 0.0025
O12_4 O 0.56046(16) 0.16526(7) 0.69869(17)
O13_4 O 0.6113(2) 0.20198(8) 0.6329(2)
C29_6 C 0.5944(3) 0.17398(11) 0.6452(3)
C30_6 C 0.6149(3) 0.14882(12) 0.5924(3)
C31_6 C 0.6514(4) 0.15591(14) 0.5312(4)
H17_6 H 0.6631 0.1772 0.5225
C32_6 C 0.6709(4) 0.13288(14) 0.4832(4)
H18_6 H 0.6958 0.1384 0.4417
C33_6 C 0.6547(3) 0.10129(13) 0.4945(3)
C34_6 C 0.6165(4) 0.09445(14) 0.5541(3)
H19_6 H 0.6040 0.0732 0.5625
C35_6 C 0.5960(3) 0.11811(13) 0.6020(3)
H20_6 H 0.5688 0.1130 0.6416
C36_6 C 0.6777(3) 0.07563(13) 0.4443(3)
C37_6 C 0.7228(4) 0.08108(14) 0.3931(3)
H21_6 H 0.7382 0.1019 0.3871
C38_6 C 0.7469(4) 0.05672(14) 0.3495(4)
H22_6 H 0.7790 0.0612 0.3153
C39_6 C 0.7254(3) 0.02687(12) 0.3549(3)
C40_6 C 0.6804(4) 0.02153(16) 0.4060(4)
H23_6 H 0.6659 0.0005 0.4128
C41_6 C 0.6551(5) 0.04544(16) 0.4482(4)
H24_6 H 0.6217 0.0409 0.4805
Zr5_2 Zr 0.5000 0.19201(2) 0.77305(2)
Zr11_4 Zr 0.58109(3) 0.2500 0.67413(3)
O3_4 O 0.56070(16) 0.16531(7) 0.84765(17)
O4_4 O 0.6120(2) 0.20175(8) 0.9130(2)
C25_6 C 0.6169(3) 0.14877(11) 0.9523(3)
C26_6 C 0.5885(3) 0.11933(13) 0.9523(3)
H15_6 H 0.5560 0.1151 0.9186
C28_6 C 0.5954(3) 0.17400(11) 0.9005(3)
Zr9_4 Zr 0.58088(3) 0.2500 0.87204(3)
Zr1_4 Zr 1.0000 0.80799(2) 0.77305(2)
O1_4 O 0.93954(16) 0.83474(7) 0.69869(17)
O2_4 O 0.8887(2) 0.79802(8) 0.6329(2)
O7_6 O 0.9186(3) 0.77816(10) 0.77335(18)
O8_6 O 0.9257(3) 0.7500 0.9936(3)
O9_6 O 0.8187(2) 0.7500 0.8707(4)
O10_6 O 0.9254(3) 0.7500 0.5497(3)
O11_6 O 0.8181(3) 0.7500 0.6766(4)
C1_6 C 0.9056(3) 0.82602(11) 0.6452(3)
C2_6 C 0.8851(3) 0.85118(12) 0.5924(3)
C3_6 C 0.8486(4) 0.84409(14) 0.5312(4)
H1_6 H 0.8369 0.8228 0.5225
C4_6 C 0.8291(4) 0.86712(14) 0.4832(4)
H2_6 H 0.8042 0.8616 0.4417
C5_6 C 0.8453(3) 0.89871(13) 0.4945(3)
C6_6 C 0.8835(4) 0.90555(14) 0.5541(3)
H3_6 H 0.8960 0.9268 0.5625
C7_6 C 0.9040(3) 0.88189(13) 0.6020(3)
H4_6 H 0.9312 0.8870 0.6416
C8_6 C 0.8223(3) 0.92437(13) 0.4443(3)
C9_6 C 0.7772(4) 0.91892(14) 0.3931(3)
H5_6 H 0.7618 0.8981 0.3871
C10_6 C 0.7531(4) 0.94328(14) 0.3495(4)
H6_6 H 0.7210 0.9388 0.3153
C11_6 C 0.7746(3) 0.97313(12) 0.3549(3)
C12_6 C 0.8196(4) 0.97847(16) 0.4060(4)
H7_6 H 0.8341 0.9995 0.4128
C13_6 C 0.8449(5) 0.95456(16) 0.4482(4)
H8_6 H 0.8783 0.9591 0.4805
C14_9 C 0.7500 1.0000 0.3095(4)
C15_9 C 0.7500 1.0000 0.2351(4)
C42_6 C 0.7758(3) 0.97306(13) 0.1894(3)
C43_6 C 0.7365(3) 0.95518(16) 0.1458(3)
H25_6 H 0.6939 0.9597 0.1453
C44_6 C 0.7597(3) 0.93060(16) 0.1030(4)
H26_6 H 0.7322 0.9179 0.0749
C45_6 C 0.8209(3) 0.92410(13) 0.1000(3)
C46_6 C 0.8597(3) 0.94267(15) 0.1420(4)
H27_6 H 0.9026 0.9392 0.1397
C47_6 C 0.8365(4) 0.96654(15) 0.1879(4)
H28_6 H 0.8637 0.9784 0.2185
C48_6 C 0.8443(3) 0.89854(12) 0.0506(3)
C49_6 C 0.8156(3) 0.86909(14) 0.0491(4)
H29_6 H 0.7818 0.8652 0.0812
C50_6 C 0.8355(3) 0.84559(14) 0.0020(4)
H30_6 H 0.8166 0.8254 0.0034
C53_6 C 0.8919(3) 0.90383(13) 0.0021(4)
H32_6 H 0.9119 0.9238 0.0025
O18_6 O 0.8887(2) 0.70198(8) 0.6329(2)
O19_2 O 0.93930(16) 0.83469(7) 0.84765(17)
O21_2 O 0.8880(2) 0.79825(8) 0.9130(2)
O22_6 O 0.8880(2) 0.70175(8) 0.9130(2)
C51_6 C 0.8831(3) 0.85123(11) 0.9523(3)
C52_6 C 0.9115(3) 0.88067(13) 0.9523(3)
H31_6 H 0.9440 0.8849 0.9186
C54_6 C 0.9046(3) 0.82600(11) 0.9005(3)
O5_6 O 0.5000 0.22199(13) 0.8712(4)
O6_6 O 0.5000 0.22190(14) 0.6740(4)
O7_7 O 0.5814(3) 0.22184(10) 0.77335(18)
O8_7 O 0.5743(3) 0.2500 0.9936(3)
O9_7 O 0.6813(2) 0.2500 0.8707(4)
O10_7 O 0.5746(3) 0.2500 0.5497(3)
O11_7 O 0.6819(3) 0.2500 0.6766(4)
O16_4 O 0.4186(3) 0.22184(10) 0.77335(18)
O17_7 O 0.43954(16) 0.16526(7) 0.69869(17)
O18_7 O 0.6113(2) 0.29802(8) 0.6329(2)
O20_7 O 0.43930(16) 0.16531(7) 0.84765(17)
O22_7 O 0.6120(2) 0.29825(8) 0.9130(2)
O23_6 O 0.5000 0.27801(13) 0.8712(4)
O24_6 O 0.5000 0.27810(14) 0.6740(4)
O25_4 O 0.5814(3) 0.27816(10) 0.77335(18)
O7_8 O 0.4186(3) 0.27816(10) 0.77335(18)
O8_8 O 0.4257(3) 0.2500 0.9936(3)
O9_8 O 0.3187(2) 0.2500 0.8707(4)
O10_8 O 0.4254(3) 0.2500 0.5497(3)
O11_8 O 0.3181(3) 0.2500 0.6766(4)
O17_8 O 0.56046(16) 0.33474(7) 0.69869(17)
O18_8 O 0.3887(2) 0.20198(8) 0.6329(2)
O20_8 O 0.56070(16) 0.33469(7) 0.84765(17)
O22_8 O 0.3880(2) 0.20175(8) 0.9130(2)
C1_7 C 0.9056(3) 0.67398(11) 0.6452(3)
C2_7 C 0.8851(3) 0.64882(12) 0.5924(3)
C3_7 C 0.8486(4) 0.65591(14) 0.5312(4)
H1_7 H 0.8369 0.6772 0.5225
C4_7 C 0.8291(4) 0.63288(14) 0.4832(4)
H2_7 H 0.8042 0.6384 0.4417
C5_7 C 0.8453(3) 0.60129(13) 0.4945(3)
C6_7 C 0.8835(4) 0.59445(14) 0.5541(3)
H3_7 H 0.8960 0.5732 0.5625
C7_7 C 0.9040(3) 0.61811(13) 0.6020(3)
H4_7 H 0.9312 0.6130 0.6416
C8_7 C 0.8223(3) 0.57563(13) 0.4443(3)
C9_7 C 0.7772(4) 0.58108(14) 0.3931(3)
H5_7 H 0.7618 0.6019 0.3871
C10_7 C 0.7531(4) 0.55672(14) 0.3495(4)
H6_7 H 0.7210 0.5612 0.3153
C11_7 C 0.7746(3) 0.52687(12) 0.3549(3)
C12_7 C 0.8196(4) 0.52153(16) 0.4060(4)
H7_7 H 0.8341 0.5005 0.4128
C13_7 C 0.8449(5) 0.54544(16) 0.4482(4)
H8_7 H 0.8783 0.5409 0.4805
C14_10 C 0.7500 0.5000 0.3095(4)
C15_10 C 0.7500 0.5000 0.2351(4)
C16_7 C 0.7242(3) 0.47306(13) 0.1894(3)
C17_7 C 0.7635(3) 0.45518(16) 0.1458(3)
H9_7 H 0.8061 0.4597 0.1453
C18_7 C 0.7403(3) 0.43060(16) 0.1030(4)
H10_7 H 0.7678 0.4179 0.0749
C19_7 C 0.6791(3) 0.42410(13) 0.1000(3)
C20_7 C 0.6403(3) 0.44267(15) 0.1420(4)
H11_7 H 0.5974 0.4392 0.1397
C21_7 C 0.6635(4) 0.46654(15) 0.1879(4)
H12_7 H 0.6363 0.4784 0.2185
C22_7 C 0.6557(3) 0.39854(12) 0.0506(3)
C23_7 C 0.6844(3) 0.36909(14) 0.0491(4)
H13_7 H 0.7182 0.3652 0.0812
C24_7 C 0.6645(3) 0.34559(14) 0.0020(4)
H14_7 H 0.6834 0.3254 0.0034
C27_7 C 0.6081(3) 0.40383(13) 0.0021(4)
H16_7 H 0.5881 0.4238 0.0025
C29_7 C 0.5944(3) 0.32602(11) 0.6452(3)
C30_7 C 0.6149(3) 0.35118(12) 0.5924(3)
C31_7 C 0.6514(4) 0.34409(14) 0.5312(4)
H17_7 H 0.6631 0.3228 0.5225
C32_7 C 0.6709(4) 0.36712(14) 0.4832(4)
H18_7 H 0.6958 0.3616 0.4417
C33_7 C 0.6547(3) 0.39871(13) 0.4945(3)
C34_7 C 0.6165(4) 0.40555(14) 0.5541(3)
H19_7 H 0.6040 0.4268 0.5625
C35_7 C 0.5960(3) 0.38189(13) 0.6020(3)
H20_7 H 0.5688 0.3870 0.6416
C36_7 C 0.6777(3) 0.42437(13) 0.4443(3)
C37_7 C 0.7228(4) 0.41892(14) 0.3931(3)
H21_7 H 0.7382 0.3981 0.3871
C38_7 C 0.7469(4) 0.44328(14) 0.3495(4)
H22_7 H 0.7790 0.4388 0.3153
C39_7 C 0.7254(3) 0.47313(12) 0.3549(3)
C40_7 C 0.6804(4) 0.47847(16) 0.4060(4)
H23_7 H 0.6659 0.4995 0.4128
C41_7 C 0.6551(5) 0.45456(16) 0.4482(4)
H24_7 H 0.6217 0.4591 0.4805
C42_7 C 0.7758(3) 0.52694(13) 0.1894(3)
C43_7 C 0.7365(3) 0.54482(16) 0.1458(3)
H25_7 H 0.6939 0.5403 0.1453
C44_7 C 0.7597(3) 0.56940(16) 0.1030(4)
H26_7 H 0.7322 0.5821 0.0749
C45_7 C 0.8209(3) 0.57590(13) 0.1000(3)
C46_7 C 0.8597(3) 0.55733(15) 0.1420(4)
H27_7 H 0.9026 0.5608 0.1397
C47_7 C 0.8365(4) 0.53346(15) 0.1879(4)
H28_7 H 0.8637 0.5216 0.2185
C48_7 C 0.8443(3) 0.60146(12) 0.0506(3)
C49_7 C 0.8156(3) 0.63091(14) 0.0491(4)
H29_7 H 0.7818 0.6348 0.0812
C50_7 C 0.8355(3) 0.65441(14) 0.0020(4)
H30_7 H 0.8166 0.6746 0.0034
C53_7 C 0.8919(3) 0.59617(13) 0.0021(4)
H32_7 H 0.9119 0.5762 0.0025
C25_7 C 0.6169(3) 0.35123(11) 0.9523(3)
C26_7 C 0.5885(3) 0.38067(13) 0.9523(3)
H15_7 H 0.5560 0.3849 0.9186
C28_7 C 0.5954(3) 0.32600(11) 0.9005(3)
C51_7 C 0.8831(3) 0.64877(11) 0.9523(3)
C52_7 C 0.9115(3) 0.61933(13) 0.9523(3)
H31_7 H 0.9440 0.6151 0.9186
C54_7 C 0.9046(3) 0.67400(11) 0.9005(3)
C14_11 C 0.2500 0.0000 0.3095(4)
C15_11 C 0.2500 0.0000 0.2351(4)
C16_8 C 0.2758(3) 0.02694(13) 0.1894(3)
C17_8 C 0.2365(3) 0.04482(16) 0.1458(3)
H9_8 H 0.1939 0.0403 0.1453
C18_8 C 0.2597(3) 0.06940(16) 0.1030(4)
H10_8 H 0.2322 0.0821 0.0749
C19_8 C 0.3209(3) 0.07590(13) 0.1000(3)
C20_8 C 0.3597(3) 0.05733(15) 0.1420(4)
H11_8 H 0.4026 0.0608 0.1397
C21_8 C 0.3365(4) 0.03346(15) 0.1879(4)
H12_8 H 0.3637 0.0216 0.2185
C22_8 C 0.3443(3) 0.10146(12) 0.0506(3)
C23_8 C 0.3156(3) 0.13091(14) 0.0491(4)
H13_8 H 0.2818 0.1348 0.0812
C24_8 C 0.3355(3) 0.15441(14) 0.0020(4)
H14_8 H 0.3166 0.1746 0.0034
C27_8 C 0.3919(3) 0.09617(13) 0.0021(4)
H16_8 H 0.4119 0.0762 0.0025
C29_8 C 0.4056(3) 0.17398(11) 0.6452(3)
C30_8 C 0.3851(3) 0.14882(12) 0.5924(3)
C31_8 C 0.3486(4) 0.15591(14) 0.5312(4)
H17_8 H 0.3369 0.1772 0.5225
C32_8 C 0.3291(4) 0.13288(14) 0.4832(4)
H18_8 H 0.3042 0.1384 0.4417
C33_8 C 0.3453(3) 0.10129(13) 0.4945(3)
C34_8 C 0.3835(4) 0.09445(14) 0.5541(3)
H19_8 H 0.3960 0.0732 0.5625
C35_8 C 0.4040(3) 0.11811(13) 0.6020(3)
H20_8 H 0.4312 0.1130 0.6416
C36_8 C 0.3223(3) 0.07563(13) 0.4443(3)
C37_8 C 0.2772(4) 0.08108(14) 0.3931(3)
H21_8 H 0.2618 0.1019 0.3871
C38_8 C 0.2531(4) 0.05672(14) 0.3495(4)
H22_8 H 0.2210 0.0612 0.3153
C39_8 C 0.2746(3) 0.02687(12) 0.3549(3)
C40_8 C 0.3196(4) 0.02153(16) 0.4060(4)
H23_8 H 0.3341 0.0005 0.4128
C41_8 C 0.3449(5) 0.04544(16) 0.4482(4)
H24_8 H 0.3783 0.0409 0.4805
C25_8 C 0.3831(3) 0.14877(11) 0.9523(3)
C26_8 C 0.4115(3) 0.11933(13) 0.9523(3)
H15_8 H 0.4440 0.1151 0.9186
C28_8 C 0.4046(3) 0.17400(11) 0.9005(3)
C1_8 C 0.0944(3) 0.82602(11) 0.6452(3)
C2_8 C 0.1149(3) 0.85118(12) 0.5924(3)
C3_8 C 0.1514(4) 0.84409(14) 0.5312(4)
H1_8 H 0.1631 0.8228 0.5225
C4_8 C 0.1709(4) 0.86712(14) 0.4832(4)
H2_8 H 0.1958 0.8616 0.4417
C5_8 C 0.1547(3) 0.89871(13) 0.4945(3)
C6_8 C 0.1165(4) 0.90555(14) 0.5541(3)
H3_8 H 0.1040 0.9268 0.5625
C7_8 C 0.0960(3) 0.88189(13) 0.6020(3)
H4_8 H 0.0688 0.8870 0.6416
C8_8 C 0.1777(3) 0.92437(13) 0.4443(3)
C9_8 C 0.2228(4) 0.91892(14) 0.3931(3)
H5_8 H 0.2382 0.8981 0.3871
C10_8 C 0.2469(4) 0.94328(14) 0.3495(4)
H6_8 H 0.2790 0.9388 0.3153
C11_8 C 0.2254(3) 0.97313(12) 0.3549(3)
C12_8 C 0.1804(4) 0.97847(16) 0.4060(4)
H7_8 H 0.1659 0.9995 0.4128
C13_8 C 0.1551(5) 0.95456(16) 0.4482(4)
H8_8 H 0.1217 0.9591 0.4805
C14_12 C 0.2500 1.0000 0.3095(4)
C15_12 C 0.2500 1.0000 0.2351(4)
C42_8 C 0.2242(3) 0.97306(13) 0.1894(3)
C43_8 C 0.2635(3) 0.95518(16) 0.1458(3)
H25_8 H 0.3061 0.9597 0.1453
C44_8 C 0.2403(3) 0.93060(16) 0.1030(4)
H26_8 H 0.2678 0.9179 0.0749
C45_8 C 0.1791(3) 0.92410(13) 0.1000(3)
C46_8 C 0.1403(3) 0.94267(15) 0.1420(4)
H27_8 H 0.0974 0.9392 0.1397
C47_8 C 0.1635(4) 0.96654(15) 0.1879(4)
H28_8 H 0.1363 0.9784 0.2185
C48_8 C 0.1557(3) 0.89854(12) 0.0506(3)
C49_8 C 0.1844(3) 0.86909(14) 0.0491(4)
H29_8 H 0.2182 0.8652 0.0812
C50_8 C 0.1645(3) 0.84559(14) 0.0020(4)
H30_8 H 0.1834 0.8254 0.0034
C53_8 C 0.1081(3) 0.90383(13) 0.0021(4)
H32_8 H 0.0881 0.9238 0.0025
C51_8 C 0.1169(3) 0.85123(11) 0.9523(3)
C52_8 C 0.0885(3) 0.88067(13) 0.9523(3)
H31_8 H 0.0560 0.8849 0.9186
C54_8 C 0.0954(3) 0.82600(11) 0.9005(3)
H39_4 H 0.923798 0.772093 0.012273
H40_4 H 0.891183 0.737654 0.0148968
H39_5 H 0.576202 0.772093 0.987727
H40_5 H 0.608817 0.737654 0.985103
H39_6 H 0.423798 0.727907 0.987727
H40_6 H 0.391183 0.762346 0.985103
H39_7 H 0.576202 0.227907 0.012273
H40_7 H 0.608817 0.262346 0.0148968
H39_8 H 0.423798 0.272093 0.012273
H40_8 H 0.391183 0.237654 0.0148968
H39_9 H 0.923798 0.727907 0.012273
H40_9 H 0.891183 0.762346 0.0148968
H39_10 H 0.0762017 0.772093 0.012273
H40_10 H 0.108817 0.737654 0.0148968
H39_11 H 0.923798 0.272093 0.987727
H40_11 H 0.891183 0.237654 0.985103
H39_12 H 0.0762017 0.227907 0.987727
H40_12 H 0.108817 0.262346 0.985103
H39_13 H 0.423798 0.227907 0.012273
H40_13 H 0.391183 0.262346 0.0148968
H39_14 H 0.576202 0.272093 0.012273
H40_14 H 0.608817 0.237654 0.0148968
H39_15 H 0.423798 0.772093 0.987727
H40_15 H 0.391183 0.737654 0.985103
H39_16 H 0.576202 0.727907 0.987727
H40_16 H 0.608817 0.762346 0.985103
loop_
_geom_bond_atom_site_label_1
_geom_bond_atom_site_label_2
_geom_bond_site_symmetry_1
_geom_bond_site_symmetry_2
O3 C28 1_555 1_555
O4 C28 1_555 1_555
C26 C25 1_555 1_555
H15 C26 1_555 1_555
C28 C25 1_555 1_555
O14 C54 1_555 1_555
O15 C54 1_555 1_555
C52 C51 1_555 1_555
H31 C52 1_555 1_555
C54 C51 1_555 1_555
Zr4 O14 1_555 1_555
Zr6 O3 1_555 1_555
Zr7 O15 1_555 1_555
Zr9 O4 1_555 1_555
Zr4 O1 1_555 1_555
Zr7 O5 1_555 1_555
Zr3 O2 1_555 1_555
O1 C1 1_555 1_555
O2 C1 1_555 1_555
O5 Zr4 1_555 1_555
O6 Zr4 1_555 1_555
O7 Zr4 1_555 1_555
O8 Zr7 1_555 1_555
O9 Zr7 1_555 1_555
O10 Zr3 1_555 1_555
O11 Zr3 1_555 1_555
C1 C2 1_555 1_555
C2 C3 1_555 1_555
C3 H1 1_555 1_555
C4 C3 1_555 1_555
H2 C4 1_555 1_555
C5 C4 1_555 1_555
C6 C5 1_555 1_555
H3 C6 1_555 1_555
C7 C2 1_555 1_555
H4 C7 1_555 1_555
C8 C5 1_555 1_555
C9 C8 1_555 1_555
H5 C9 1_555 1_555
C10 C9 1_555 1_555
H6 C10 1_555 1_555
C11 C10 1_555 1_555
C12 C11 1_555 1_555
H7 C12 1_555 1_555
C13 C8 1_555 1_555
H8 C13 1_555 1_555
C14 C11 1_555 1_555
C15 C14 1_555 1_555
C16 C15 1_555 1_555
C17 C16 1_555 1_555
H9 C17 1_555 1_555
C18 C17 1_555 1_555
H10 C18 1_555 1_555
C19 C18 1_555 1_555
C20 C19 1_555 1_555
H11 C20 1_555 1_555
C21 C16 1_555 1_555
H12 C21 1_555 1_555
C22 C19 1_555 1_555
C23 C22 1_555 1_555
H13 C23 1_555 1_555
C24 C23 1_555 1_555
H14 C24 1_555 1_555
C27 C22 1_555 1_555
H16 C27 1_555 1_555
O12 C29 1_555 1_555
O13 C29 1_555 1_555
C29 C30 1_555 1_555
C30 C31 1_555 1_555
C31 H17 1_555 1_555
C32 C31 1_555 1_555
H18 C32 1_555 1_555
C33 C32 1_555 1_555
C34 C33 1_555 1_555
H19 C34 1_555 1_555
C35 C30 1_555 1_555
H20 C35 1_555 1_555
C36 C33 1_555 1_555
C37 C36 1_555 1_555
H21 C37 1_555 1_555
C38 C37 1_555 1_555
H22 C38 1_555 1_555
C39 C14 1_555 1_555
C40 C39 1_555 1_555
H23 C40 1_555 1_555
C41 C36 1_555 1_555
H24 C41 1_555 1_555
C42 C15 1_555 1_555
C43 C42 1_555 1_555
H25 C43 1_555 1_555
C44 C43 1_555 1_555
H26 C44 1_555 1_555
C45 C44 1_555 1_555
C46 C45 1_555 1_555
H27 C46 1_555 1_555
C47 C42 1_555 1_555
H28 C47 1_555 1_555
C48 C45 1_555 1_555
C49 C48 1_555 1_555
H29 C49 1_555 1_555
C50 C49 1_555 1_555
H30 C50 1_555 1_555
C53 C48 1_555 1_555
H32 C53 1_555 1_555
Zr6 O12 1_555 1_555
Zr11 O13 1_555 1_555
O18 Zr3 1_555 1_555
O22 Zr7 1_555 1_555
O23 Zr7 1_555 1_555
O24 Zr3 1_555 1_555
O25 Zr7 1_555 1_555
Zr7 O7 1_555 1_555
Zr3 O6 1_555 1_555
Zr3 O7 1_555 1_555
Zr3 O25 1_555 1_555
C6 C7 1_555 1_555
C12 C13 1_555 1_555
C20 C21 1_555 1_555
C34 C35 1_555 1_555
C38 C39 1_555 1_555
C40 C41 1_555 1_555
C46 C47 1_555 1_555
O5_2 Zr4_2 1_555 1_555
O6_2 Zr4_2 1_555 1_555
O16 Zr4_2 1_555 1_555
Zr8 O5_2 1_555 1_555
Zr10 O6_2 1_555 1_555
O17 Zr4_2 1_555 1_555
O20 Zr4_2 1_555 1_555
O16 Zr8 1_555 1_555
O16 Zr10 1_555 1_555
Zr8 O23_2 1_555 1_555
Zr10 O24_2 1_555 1_555
O23 Zr4_3 1_555 1_555
O24 Zr4_3 1_555 1_555
O25 Zr4_3 1_555 1_555
O17_2 Zr4_3 1_555 1_555
O20_2 Zr4_3 1_555 1_555
O14_2 C54_2 1_555 1_555
O15_2 C54_2 1_555 1_555
C52_2 C51_2 1_555 1_555
H31_2 C52_2 1_555 1_555
C54_2 C51_2 1_555 1_555
Zr4_4 O14_2 1_555 1_555
Zr8 O15_2 1_555 1_555
Zr4_4 O1_2 1_555 1_555
Zr10 O2_2 1_555 1_555
O1_2 C1_2 1_555 1_555
O2_2 C1_2 1_555 1_555
O23_2 Zr4_4 1_555 1_555
O24_2 Zr4_4 1_555 1_555
O7_2 Zr4_4 1_555 1_555
O8_2 Zr8 1_555 1_555
O9_2 Zr8 1_555 1_555
O10_2 Zr10 1_555 1_555
O11_2 Zr10 1_555 1_555
C1_2 C2_2 1_555 1_555
C2_2 C3_2 1_555 1_555
C3_2 H1_2 1_555 1_555
C4_2 C3_2 1_555 1_555
H2_2 C4_2 1_555 1_555
C5_2 C4_2 1_555 1_555
C6_2 C5_2 1_555 1_555
H3_2 C6_2 1_555 1_555
C7_2 C2_2 1_555 1_555
H4_2 C7_2 1_555 1_555
C8_2 C5_2 1_555 1_555
C9_2 C8_2 1_555 1_555
H5_2 C9_2 1_555 1_555
C10_2 C9_2 1_555 1_555
H6_2 C10_2 1_555 1_555
C11_2 C10_2 1_555 1_555
C12_2 C11_2 1_555 1_555
H7_2 C12_2 1_555 1_555
C13_2 C8_2 1_555 1_555
H8_2 C13_2 1_555 1_555
C14_2 C11_2 1_555 1_555
C15_2 C14_2 1_555 1_555
C42_2 C15_2 1_555 1_555
C43_2 C42_2 1_555 1_555
H25_2 C43_2 1_555 1_555
C44_2 C43_2 1_555 1_555
H26_2 C44_2 1_555 1_555
C45_2 C44_2 1_555 1_555
C46_2 C45_2 1_555 1_555
H27_2 C46_2 1_555 1_555
C47_2 C42_2 1_555 1_555
H28_2 C47_2 1_555 1_555
C48_2 C45_2 1_555 1_555
C49_2 C48_2 1_555 1_555
H29_2 C49_2 1_555 1_555
C50_2 C49_2 1_555 1_555
H30_2 C50_2 1_555 1_555
C53_2 C48_2 1_555 1_555
H32_2 C53_2 1_555 1_555
O18_2 Zr10 1_555 1_555
O22_2 Zr8 1_555 1_555
Zr8 O7_2 1_555 1_555
Zr10 O7_2 1_555 1_555
C6_2 C7_2 1_555 1_555
C12_2 C13_2 1_555 1_555
C46_2 C47_2 1_555 1_555
O3_2 C28_2 1_555 1_555
O4_2 C28_2 1_555 1_555
C26_2 C25_2 1_555 1_555
H15_2 C26_2 1_555 1_555
C28_2 C25_2 1_555 1_555
Zr6_2 O3_2 1_555 1_555
Zr9_2 O4_2 1_555 1_555
C15_3 C14_3 1_555 1_555
C16_2 C15_3 1_555 1_555
C17_2 C16_2 1_555 1_555
H9_2 C17_2 1_555 1_555
C18_2 C17_2 1_555 1_555
H10_2 C18_2 1_555 1_555
C19_2 C18_2 1_555 1_555
C20_2 C19_2 1_555 1_555
H11_2 C20_2 1_555 1_555
C21_2 C16_2 1_555 1_555
H12_2 C21_2 1_555 1_555
C22_2 C19_2 1_555 1_555
C23_2 C22_2 1_555 1_555
H13_2 C23_2 1_555 1_555
C24_2 C23_2 1_555 1_555
H14_2 C24_2 1_555 1_555
C27_2 C22_2 1_555 1_555
H16_2 C27_2 1_555 1_555
O12_2 C29_2 1_555 1_555
O13_2 C29_2 1_555 1_555
C29_2 C30_2 1_555 1_555
C30_2 C31_2 1_555 1_555
C31_2 H17_2 1_555 1_555
C32_2 C31_2 1_555 1_555
H18_2 C32_2 1_555 1_555
C33_2 C32_2 1_555 1_555
C34_2 C33_2 1_555 1_555
H19_2 C34_2 1_555 1_555
C35_2 C30_2 1_555 1_555
H20_2 C35_2 1_555 1_555
C36_2 C33_2 1_555 1_555
C37_2 C36_2 1_555 1_555
H21_2 C37_2 1_555 1_555
C38_2 C37_2 1_555 1_555
H22_2 C38_2 1_555 1_555
C39_2 C14_3 1_555 1_555
C40_2 C39_2 1_555 1_555
H23_2 C40_2 1_555 1_555
C41_2 C36_2 1_555 1_555
H24_2 C41_2 1_555 1_555
Zr6_2 O12_2 1_555 1_555
Zr11_2 O13_2 1_555 1_555
C20_2 C21_2 1_555 1_555
C34_2 C35_2 1_555 1_555
C38_2 C39_2 1_555 1_555
C40_2 C41_2 1_555 1_555
Zr9_2 O5_3 1_555 1_555
O5_3 Zr6_2 1_555 1_555
O6_3 Zr6_2 1_555 1_555
O7_3 Zr6_2 1_555 1_555
O8_3 Zr9_2 1_555 1_555
O9_3 Zr9_2 1_555 1_555
O10_3 Zr11_2 1_555 1_555
O11_3 Zr11_2 1_555 1_555
O16_2 Zr6_2 1_555 1_555
Zr9 O5_3 1_555 1_555
Zr11 O6_3 1_555 1_555
O17_3 Zr6_2 1_555 1_555
O18_3 Zr11_2 1_555 1_555
O20_3 Zr6_2 1_555 1_555
O22_3 Zr9_2 1_555 1_555
O23_3 Zr9_2 1_555 1_555
O24_3 Zr11_2 1_555 1_555
O25_2 Zr9_2 1_555 1_555
Zr9_2 O7_3 1_555 1_555
Zr11_2 O6_3 1_555 1_555
Zr11_2 O7_3 1_555 1_555
Zr11_2 O25_2 1_555 1_555
O16_2 Zr9 1_555 1_555
O16_2 Zr11 1_555 1_555
Zr9 O23_3 1_555 1_555
Zr11 O24_3 1_555 1_555
O23_3 Zr6 1_555 1_555
O24_3 Zr6 1_555 1_555
O7_4 Zr6 1_555 1_555
O8_4 Zr9 1_555 1_555
O9_4 Zr9 1_555 1_555
O10_4 Zr11 1_555 1_555
O11_4 Zr11 1_555 1_555
O25_2 Zr6 1_555 1_555
O17_4 Zr6 1_555 1_555
O18_4 Zr11 1_555 1_555
O20_4 Zr6 1_555 1_555
O22_4 Zr9 1_555 1_555
Zr9 O7_4 1_555 1_555
Zr11 O7_4 1_555 1_555
O20_4 C28_3 1_555 1_555
O22_3 C28_3 1_555 1_555
C26_3 C25_3 1_555 1_555
H15_3 C26_3 1_555 1_555
C28_3 C25_3 1_555 1_555
O20 C54_3 1_555 1_555
O22_2 C54_3 1_555 1_555
C52_3 C51_3 1_555 1_555
H31_3 C52_3 1_555 1_555
C54_3 C51_3 1_555 1_555
O17 C1_3 1_555 1_555
O18_2 C1_3 1_555 1_555
C1_3 C2_3 1_555 1_555
C2_3 C3_3 1_555 1_555
C3_3 H1_3 1_555 1_555
C4_3 C3_3 1_555 1_555
H2_3 C4_3 1_555 1_555
C5_3 C4_3 1_555 1_555
C6_3 C5_3 1_555 1_555
H3_3 C6_3 1_555 1_555
C7_3 C2_3 1_555 1_555
H4_3 C7_3 1_555 1_555
C8_3 C5_3 1_555 1_555
C9_3 C8_3 1_555 1_555
H5_3 C9_3 1_555 1_555
C10_3 C9_3 1_555 1_555
H6_3 C10_3 1_555 1_555
C11_3 C10_3 1_555 1_555
C12_3 C11_3 1_555 1_555
H7_3 C12_3 1_555 1_555
C13_3 C8_3 1_555 1_555
H8_3 C13_3 1_555 1_555
C14_4 C11_3 1_555 1_555
C15_4 C14_4 1_555 1_555
C16_3 C15_4 1_555 1_555
C17_3 C16_3 1_555 1_555
H9_3 C17_3 1_555 1_555
C18_3 C17_3 1_555 1_555
H10_3 C18_3 1_555 1_555
C19_3 C18_3 1_555 1_555
C20_3 C19_3 1_555 1_555
H11_3 C20_3 1_555 1_555
C21_3 C16_3 1_555 1_555
H12_3 C21_3 1_555 1_555
C22_3 C19_3 1_555 1_555
C23_3 C22_3 1_555 1_555
H13_3 C23_3 1_555 1_555
C24_3 C23_3 1_555 1_555
H14_3 C24_3 1_555 1_555
C27_3 C22_3 1_555 1_555
H16_3 C27_3 1_555 1_555
O17_4 C29_3 1_555 1_555
O18_3 C29_3 1_555 1_555
C29_3 C30_3 1_555 1_555
C30_3 C31_3 1_555 1_555
C31_3 H17_3 1_555 1_555
C32_3 C31_3 1_555 1_555
H18_3 C32_3 1_555 1_555
C33_3 C32_3 1_555 1_555
C34_3 C33_3 1_555 1_555
H19_3 C34_3 1_555 1_555
C35_3 C30_3 1_555 1_555
H20_3 C35_3 1_555 1_555
C36_3 C33_3 1_555 1_555
C37_3 C36_3 1_555 1_555
H21_3 C37_3 1_555 1_555
C38_3 C37_3 1_555 1_555
H22_3 C38_3 1_555 1_555
C39_3 C14_4 1_555 1_555
C40_3 C39_3 1_555 1_555
H23_3 C40_3 1_555 1_555
C41_3 C36_3 1_555 1_555
H24_3 C41_3 1_555 1_555
C42_3 C15_4 1_555 1_555
C43_3 C42_3 1_555 1_555
H25_3 C43_3 1_555 1_555
C44_3 C43_3 1_555 1_555
H26_3 C44_3 1_555 1_555
C45_3 C44_3 1_555 1_555
C46_3 C45_3 1_555 1_555
H27_3 C46_3 1_555 1_555
C47_3 C42_3 1_555 1_555
H28_3 C47_3 1_555 1_555
C48_3 C45_3 1_555 1_555
C49_3 C48_3 1_555 1_555
H29_3 C49_3 1_555 1_555
C50_3 C49_3 1_555 1_555
H30_3 C50_3 1_555 1_555
C53_3 C48_3 1_555 1_555
H32_3 C53_3 1_555 1_555
C6_3 C7_3 1_555 1_555
C12_3 C13_3 1_555 1_555
C20_3 C21_3 1_555 1_555
C34_3 C35_3 1_555 1_555
C38_3 C39_3 1_555 1_555
C40_3 C41_3 1_555 1_555
C46_3 C47_3 1_555 1_555
O20_2 C54_4 1_555 1_555
O22 C54_4 1_555 1_555
C52_4 C51_4 1_555 1_555
H31_4 C52_4 1_555 1_555
C54_4 C51_4 1_555 1_555
O17_2 C1_4 1_555 1_555
O18 C1_4 1_555 1_555
C1_4 C2_4 1_555 1_555
C2_4 C3_4 1_555 1_555
C3_4 H1_4 1_555 1_555
C4_4 C3_4 1_555 1_555
H2_4 C4_4 1_555 1_555
C5_4 C4_4 1_555 1_555
C6_4 C5_4 1_555 1_555
H3_4 C6_4 1_555 1_555
C7_4 C2_4 1_555 1_555
H4_4 C7_4 1_555 1_555
C8_4 C5_4 1_555 1_555
C9_4 C8_4 1_555 1_555
H5_4 C9_4 1_555 1_555
C10_4 C9_4 1_555 1_555
H6_4 C10_4 1_555 1_555
C11_4 C10_4 1_555 1_555
C12_4 C11_4 1_555 1_555
H7_4 C12_4 1_555 1_555
C13_4 C8_4 1_555 1_555
H8_4 C13_4 1_555 1_555
C14_5 C11_4 1_555 1_555
C15_5 C14_5 1_555 1_555
C42_4 C15_5 1_555 1_555
C43_4 C42_4 1_555 1_555
H25_4 C43_4 1_555 1_555
C44_4 C43_4 1_555 1_555
H26_4 C44_4 1_555 1_555
C45_4 C44_4 1_555 1_555
C46_4 C45_4 1_555 1_555
H27_4 C46_4 1_555 1_555
C47_4 C42_4 1_555 1_555
H28_4 C47_4 1_555 1_555
C48_4 C45_4 1_555 1_555
C49_4 C48_4 1_555 1_555
H29_4 C49_4 1_555 1_555
C50_4 C49_4 1_555 1_555
H30_4 C50_4 1_555 1_555
C53_4 C48_4 1_555 1_555
H32_4 C53_4 1_555 1_555
C6_4 C7_4 1_555 1_555
C12_4 C13_4 1_555 1_555
C46_4 C47_4 1_555 1_555
O20_3 C28_4 1_555 1_555
O22_4 C28_4 1_555 1_555
C26_4 C25_4 1_555 1_555
H15_4 C26_4 1_555 1_555
C28_4 C25_4 1_555 1_555
C15_6 C14_6 1_555 1_555
C16_4 C15_6 1_555 1_555
C17_4 C16_4 1_555 1_555
H9_4 C17_4 1_555 1_555
C18_4 C17_4 1_555 1_555
H10_4 C18_4 1_555 1_555
C19_4 C18_4 1_555 1_555
C20_4 C19_4 1_555 1_555
H11_4 C20_4 1_555 1_555
C21_4 C16_4 1_555 1_555
H12_4 C21_4 1_555 1_555
C22_4 C19_4 1_555 1_555
C23_4 C22_4 1_555 1_555
H13_4 C23_4 1_555 1_555
C24_4 C23_4 1_555 1_555
H14_4 C24_4 1_555 1_555
C27_4 C22_4 1_555 1_555
H16_4 C27_4 1_555 1_555
O17_3 C29_4 1_555 1_555
O18_4 C29_4 1_555 1_555
C29_4 C30_4 1_555 1_555
C30_4 C31_4 1_555 1_555
C31_4 H17_4 1_555 1_555
C32_4 C31_4 1_555 1_555
H18_4 C32_4 1_555 1_555
C33_4 C32_4 1_555 1_555
C34_4 C33_4 1_555 1_555
H19_4 C34_4 1_555 1_555
C35_4 C30_4 1_555 1_555
H20_4 C35_4 1_555 1_555
C36_4 C33_4 1_555 1_555
C37_4 C36_4 1_555 1_555
H21_4 C37_4 1_555 1_555
C38_4 C37_4 1_555 1_555
H22_4 C38_4 1_555 1_555
C39_4 C14_6 1_555 1_555
C40_4 C39_4 1_555 1_555
H23_4 C40_4 1_555 1_555
C41_4 C36_4 1_555 1_555
H24_4 C41_4 1_555 1_555
C20_4 C21_4 1_555 1_555
C34_4 C35_4 1_555 1_555
C38_4 C39_4 1_555 1_555
C40_4 C41_4 1_555 1_555
Zr1 O1_3 1_555 1_555
Zr2 O5_4 1_555 1_555
Zr3_2 O2_3 1_555 1_555
O1_3 C1_5 1_555 1_555
O2_3 C1_5 1_555 1_555
O5_4 Zr1 1_555 1_555
O6_4 Zr1 1_555 1_555
O7_5 Zr1 1_555 1_555
O8_5 Zr2 1_555 1_555
O9_5 Zr2 1_555 1_555
O10_5 Zr3_2 1_555 1_555
O11_5 Zr3_2 1_555 1_555
C1_5 C2_5 1_555 1_555
C2_5 C3_5 1_555 1_555
C3_5 H1_5 1_555 1_555
C4_5 C3_5 1_555 1_555
H2_5 C4_5 1_555 1_555
C5_5 C4_5 1_555 1_555
C6_5 C5_5 1_555 1_555
H3_5 C6_5 1_555 1_555
C7_5 C2_5 1_555 1_555
H4_5 C7_5 1_555 1_555
C8_5 C5_5 1_555 1_555
C9_5 C8_5 1_555 1_555
H5_5 C9_5 1_555 1_555
C10_5 C9_5 1_555 1_555
H6_5 C10_5 1_555 1_555
C11_5 C10_5 1_555 1_555
C12_5 C11_5 1_555 1_555
H7_5 C12_5 1_555 1_555
C13_5 C8_5 1_555 1_555
H8_5 C13_5 1_555 1_555
C14_7 C11_5 1_555 1_555
C15_7 C14_7 1_555 1_555
C16_5 C15_7 1_555 1_555
C17_5 C16_5 1_555 1_555
H9_5 C17_5 1_555 1_555
C18_5 C17_5 1_555 1_555
H10_5 C18_5 1_555 1_555
C19_5 C18_5 1_555 1_555
C20_5 C19_5 1_555 1_555
H11_5 C20_5 1_555 1_555
C21_5 C16_5 1_555 1_555
H12_5 C21_5 1_555 1_555
C22_5 C19_5 1_555 1_555
C23_5 C22_5 1_555 1_555
H13_5 C23_5 1_555 1_555
C24_5 C23_5 1_555 1_555
H14_5 C24_5 1_555 1_555
C27_5 C22_5 1_555 1_555
H16_5 C27_5 1_555 1_555
O12_3 C29_5 1_555 1_555
O13_3 C29_5 1_555 1_555
C29_5 C30_5 1_555 1_555
C30_5 C31_5 1_555 1_555
C31_5 H17_5 1_555 1_555
C32_5 C31_5 1_555 1_555
H18_5 C32_5 1_555 1_555
C33_5 C32_5 1_555 1_555
C34_5 C33_5 1_555 1_555
H19_5 C34_5 1_555 1_555
C35_5 C30_5 1_555 1_555
H20_5 C35_5 1_555 1_555
C36_5 C33_5 1_555 1_555
C37_5 C36_5 1_555 1_555
H21_5 C37_5 1_555 1_555
C38_5 C37_5 1_555 1_555
H22_5 C38_5 1_555 1_555
C39_5 C14_7 1_555 1_555
C40_5 C39_5 1_555 1_555
H23_5 C40_5 1_555 1_555
C41_5 C36_5 1_555 1_555
H24_5 C41_5 1_555 1_555
C42_5 C15_7 1_555 1_555
C43_5 C42_5 1_555 1_555
H25_5 C43_5 1_555 1_555
C44_5 C43_5 1_555 1_555
H26_5 C44_5 1_555 1_555
C45_5 C44_5 1_555 1_555
C46_5 C45_5 1_555 1_555
H27_5 C46_5 1_555 1_555
C47_5 C42_5 1_555 1_555
H28_5 C47_5 1_555 1_555
C48_5 C45_5 1_555 1_555
C49_5 C48_5 1_555 1_555
H29_5 C49_5 1_555 1_555
C50_5 C49_5 1_555 1_555
H30_5 C50_5 1_555 1_555
C53_5 C48_5 1_555 1_555
H32_5 C53_5 1_555 1_555
Zr5 O12_3 1_555 1_555
Zr11_3 O13_3 1_555 1_555
O18_5 Zr3_2 1_555 1_555
O19 Zr1 1_555 1_555
O21 Zr2 1_555 1_555
O22_5 Zr2 1_555 1_555
O23_4 Zr2 1_555 1_555
O24_4 Zr3_2 1_555 1_555
O25_3 Zr2 1_555 1_555
Zr2 O7_5 1_555 1_555
Zr3_2 O6_4 1_555 1_555
Zr3_2 O7_5 1_555 1_555
Zr3_2 O25_3 1_555 1_555
C6_5 C7_5 1_555 1_555
C12_5 C13_5 1_555 1_555
C20_5 C21_5 1_555 1_555
C34_5 C35_5 1_555 1_555
C38_5 C39_5 1_555 1_555
C40_5 C41_5 1_555 1_555
C46_5 C47_5 1_555 1_555
O3_3 C28_5 1_555 1_555
O4_3 C28_5 1_555 1_555
C26_5 C25_5 1_555 1_555
H15_5 C26_5 1_555 1_555
C28_5 C25_5 1_555 1_555
O19 C54_5 1_555 1_555
O21 C54_5 1_555 1_555
C52_5 C51_5 1_555 1_555
H31_5 C52_5 1_555 1_555
C54_5 C51_5 1_555 1_555
Zr5 O3_3 1_555 1_555
Zr9_3 O4_3 1_555 1_555
O5_5 Zr1_2 1_555 1_555
O6_5 Zr1_2 1_555 1_555
O16_3 Zr1_2 1_555 1_555
Zr8_2 O5_5 1_555 1_555
Zr10_2 O6_5 1_555 1_555
O17_5 Zr1_2 1_555 1_555
O20_5 Zr1_2 1_555 1_555
O16_3 Zr8_2 1_555 1_555
O16_3 Zr10_2 1_555 1_555
Zr8_2 O23_5 1_555 1_555
Zr10_2 O24_5 1_555 1_555
O23_4 Zr1_3 1_555 1_555
O24_4 Zr1_3 1_555 1_555
O25_3 Zr1_3 1_555 1_555
O17_6 Zr1_3 1_555 1_555
O20_6 Zr1_3 1_555 1_555
C15_8 C14_8 1_555 1_555
C16_6 C15_8 1_555 1_555
C17_6 C16_6 1_555 1_555
H9_6 C17_6 1_555 1_555
C18_6 C17_6 1_555 1_555
H10_6 C18_6 1_555 1_555
C19_6 C18_6 1_555 1_555
C20_6 C19_6 1_555 1_555
H11_6 C20_6 1_555 1_555
C21_6 C16_6 1_555 1_555
H12_6 C21_6 1_555 1_555
C22_6 C19_6 1_555 1_555
C23_6 C22_6 1_555 1_555
H13_6 C23_6 1_555 1_555
C24_6 C23_6 1_555 1_555
H14_6 C24_6 1_555 1_555
C27_6 C22_6 1_555 1_555
H16_6 C27_6 1_555 1_555
O12_4 C29_6 1_555 1_555
O13_4 C29_6 1_555 1_555
C29_6 C30_6 1_555 1_555
C30_6 C31_6 1_555 1_555
C31_6 H17_6 1_555 1_555
C32_6 C31_6 1_555 1_555
H18_6 C32_6 1_555 1_555
C33_6 C32_6 1_555 1_555
C34_6 C33_6 1_555 1_555
H19_6 C34_6 1_555 1_555
C35_6 C30_6 1_555 1_555
H20_6 C35_6 1_555 1_555
C36_6 C33_6 1_555 1_555
C37_6 C36_6 1_555 1_555
H21_6 C37_6 1_555 1_555
C38_6 C37_6 1_555 1_555
H22_6 C38_6 1_555 1_555
C39_6 C14_8 1_555 1_555
C40_6 C39_6 1_555 1_555
H23_6 C40_6 1_555 1_555
C41_6 C36_6 1_555 1_555
H24_6 C41_6 1_555 1_555
Zr5_2 O12_4 1_555 1_555
Zr11_4 O13_4 1_555 1_555
C20_6 C21_6 1_555 1_555
C34_6 C35_6 1_555 1_555
C38_6 C39_6 1_555 1_555
C40_6 C41_6 1_555 1_555
O3_4 C28_6 1_555 1_555
O4_4 C28_6 1_555 1_555
C26_6 C25_6 1_555 1_555
H15_6 C26_6 1_555 1_555
C28_6 C25_6 1_555 1_555
Zr5_2 O3_4 1_555 1_555
Zr9_4 O4_4 1_555 1_555
Zr1_4 O1_4 1_555 1_555
Zr10_2 O2_4 1_555 1_555
O1_4 C1_6 1_555 1_555
O2_4 C1_6 1_555 1_555
O23_5 Zr1_4 1_555 1_555
O24_5 Zr1_4 1_555 1_555
O7_6 Zr1_4 1_555 1_555
O8_6 Zr8_2 1_555 1_555
O9_6 Zr8_2 1_555 1_555
O10_6 Zr10_2 1_555 1_555
O11_6 Zr10_2 1_555 1_555
C1_6 C2_6 1_555 1_555
C2_6 C3_6 1_555 1_555
C3_6 H1_6 1_555 1_555
C4_6 C3_6 1_555 1_555
H2_6 C4_6 1_555 1_555
C5_6 C4_6 1_555 1_555
C6_6 C5_6 1_555 1_555
H3_6 C6_6 1_555 1_555
C7_6 C2_6 1_555 1_555
H4_6 C7_6 1_555 1_555
C8_6 C5_6 1_555 1_555
C9_6 C8_6 1_555 1_555
H5_6 C9_6 1_555 1_555
C10_6 C9_6 1_555 1_555
H6_6 C10_6 1_555 1_555
C11_6 C10_6 1_555 1_555
C12_6 C11_6 1_555 1_555
H7_6 C12_6 1_555 1_555
C13_6 C8_6 1_555 1_555
H8_6 C13_6 1_555 1_555
C14_9 C11_6 1_555 1_555
C15_9 C14_9 1_555 1_555
C42_6 C15_9 1_555 1_555
C43_6 C42_6 1_555 1_555
H25_6 C43_6 1_555 1_555
C44_6 C43_6 1_555 1_555
H26_6 C44_6 1_555 1_555
C45_6 C44_6 1_555 1_555
C46_6 C45_6 1_555 1_555
H27_6 C46_6 1_555 1_555
C47_6 C42_6 1_555 1_555
H28_6 C47_6 1_555 1_555
C48_6 C45_6 1_555 1_555
C49_6 C48_6 1_555 1_555
H29_6 C49_6 1_555 1_555
C50_6 C49_6 1_555 1_555
H30_6 C50_6 1_555 1_555
C53_6 C48_6 1_555 1_555
H32_6 C53_6 1_555 1_555
O18_6 Zr10_2 1_555 1_555
O19_2 Zr1_4 1_555 1_555
O21_2 Zr8_2 1_555 1_555
O22_6 Zr8_2 1_555 1_555
Zr8_2 O7_6 1_555 1_555
Zr10_2 O7_6 1_555 1_555
C6_6 C7_6 1_555 1_555
C12_6 C13_6 1_555 1_555
C46_6 C47_6 1_555 1_555
O19_2 C54_6 1_555 1_555
O21_2 C54_6 1_555 1_555
C52_6 C51_6 1_555 1_555
H31_6 C52_6 1_555 1_555
C54_6 C51_6 1_555 1_555
Zr9_4 O5_6 1_555 1_555
O5_6 Zr5_2 1_555 1_555
O6_6 Zr5_2 1_555 1_555
O7_7 Zr5_2 1_555 1_555
O8_7 Zr9_4 1_555 1_555
O9_7 Zr9_4 1_555 1_555
O10_7 Zr11_4 1_555 1_555
O11_7 Zr11_4 1_555 1_555
O16_4 Zr5_2 1_555 1_555
Zr9_3 O5_6 1_555 1_555
Zr11_3 O6_6 1_555 1_555
O17_7 Zr5_2 1_555 1_555
O18_7 Zr11_4 1_555 1_555
O20_7 Zr5_2 1_555 1_555
O22_7 Zr9_4 1_555 1_555
O23_6 Zr9_4 1_555 1_555
O24_6 Zr11_4 1_555 1_555
O25_4 Zr9_4 1_555 1_555
Zr9_4 O7_7 1_555 1_555
Zr11_4 O6_6 1_555 1_555
Zr11_4 O7_7 1_555 1_555
Zr11_4 O25_4 1_555 1_555
O16_4 Zr9_3 1_555 1_555
O16_4 Zr11_3 1_555 1_555
Zr9_3 O23_6 1_555 1_555
Zr11_3 O24_6 1_555 1_555
O23_6 Zr5 1_555 1_555
O24_6 Zr5 1_555 1_555
O7_8 Zr5 1_555 1_555
O8_8 Zr9_3 1_555 1_555
O9_8 Zr9_3 1_555 1_555
O10_8 Zr11_3 1_555 1_555
O11_8 Zr11_3 1_555 1_555
O25_4 Zr5 1_555 1_555
O17_8 Zr5 1_555 1_555
O18_8 Zr11_3 1_555 1_555
O20_8 Zr5 1_555 1_555
O22_8 Zr9_3 1_555 1_555
Zr9_3 O7_8 1_555 1_555
Zr11_3 O7_8 1_555 1_555
O17_5 C1_7 1_555 1_555
O18_6 C1_7 1_555 1_555
C1_7 C2_7 1_555 1_555
C2_7 C3_7 1_555 1_555
C3_7 H1_7 1_555 1_555
C4_7 C3_7 1_555 1_555
H2_7 C4_7 1_555 1_555
C5_7 C4_7 1_555 1_555
C6_7 C5_7 1_555 1_555
H3_7 C6_7 1_555 1_555
C7_7 C2_7 1_555 1_555
H4_7 C7_7 1_555 1_555
C8_7 C5_7 1_555 1_555
C9_7 C8_7 1_555 1_555
H5_7 C9_7 1_555 1_555
C10_7 C9_7 1_555 1_555
H6_7 C10_7 1_555 1_555
C11_7 C10_7 1_555 1_555
C12_7 C11_7 1_555 1_555
H7_7 C12_7 1_555 1_555
C13_7 C8_7 1_555 1_555
H8_7 C13_7 1_555 1_555
C14_10 C11_7 1_555 1_555
C15_10 C14_10 1_555 1_555
C16_7 C15_10 1_555 1_555
C17_7 C16_7 1_555 1_555
H9_7 C17_7 1_555 1_555
C18_7 C17_7 1_555 1_555
H10_7 C18_7 1_555 1_555
C19_7 C18_7 1_555 1_555
C20_7 C19_7 1_555 1_555
H11_7 C20_7 1_555 1_555
C21_7 C16_7 1_555 1_555
H12_7 C21_7 1_555 1_555
C22_7 C19_7 1_555 1_555
C23_7 C22_7 1_555 1_555
H13_7 C23_7 1_555 1_555
C24_7 C23_7 1_555 1_555
H14_7 C24_7 1_555 1_555
C27_7 C22_7 1_555 1_555
H16_7 C27_7 1_555 1_555
O17_8 C29_7 1_555 1_555
O18_7 C29_7 1_555 1_555
C29_7 C30_7 1_555 1_555
C30_7 C31_7 1_555 1_555
C31_7 H17_7 1_555 1_555
C32_7 C31_7 1_555 1_555
H18_7 C32_7 1_555 1_555
C33_7 C32_7 1_555 1_555
C34_7 C33_7 1_555 1_555
H19_7 C34_7 1_555 1_555
C35_7 C30_7 1_555 1_555
H20_7 C35_7 1_555 1_555
C36_7 C33_7 1_555 1_555
C37_7 C36_7 1_555 1_555
H21_7 C37_7 1_555 1_555
C38_7 C37_7 1_555 1_555
H22_7 C38_7 1_555 1_555
C39_7 C14_10 1_555 1_555
C40_7 C39_7 1_555 1_555
H23_7 C40_7 1_555 1_555
C41_7 C36_7 1_555 1_555
H24_7 C41_7 1_555 1_555
C42_7 C15_10 1_555 1_555
C43_7 C42_7 1_555 1_555
H25_7 C43_7 1_555 1_555
C44_7 C43_7 1_555 1_555
H26_7 C44_7 1_555 1_555
C45_7 C44_7 1_555 1_555
C46_7 C45_7 1_555 1_555
H27_7 C46_7 1_555 1_555
C47_7 C42_7 1_555 1_555
H28_7 C47_7 1_555 1_555
C48_7 C45_7 1_555 1_555
C49_7 C48_7 1_555 1_555
H29_7 C49_7 1_555 1_555
C50_7 C49_7 1_555 1_555
H30_7 C50_7 1_555 1_555
C53_7 C48_7 1_555 1_555
H32_7 C53_7 1_555 1_555
C6_7 C7_7 1_555 1_555
C12_7 C13_7 1_555 1_555
C20_7 C21_7 1_555 1_555
C34_7 C35_7 1_555 1_555
C38_7 C39_7 1_555 1_555
C40_7 C41_7 1_555 1_555
C46_7 C47_7 1_555 1_555
O20_8 C28_7 1_555 1_555
O22_7 C28_7 1_555 1_555
C26_7 C25_7 1_555 1_555
H15_7 C26_7 1_555 1_555
C28_7 C25_7 1_555 1_555
O20_5 C54_7 1_555 1_555
O22_6 C54_7 1_555 1_555
C52_7 C51_7 1_555 1_555
H31_7 C52_7 1_555 1_555
C54_7 C51_7 1_555 1_555
C15_11 C14_11 1_555 1_555
C16_8 C15_11 1_555 1_555
C17_8 C16_8 1_555 1_555
H9_8 C17_8 1_555 1_555
C18_8 C17_8 1_555 1_555
H10_8 C18_8 1_555 1_555
C19_8 C18_8 1_555 1_555
C20_8 C19_8 1_555 1_555
H11_8 C20_8 1_555 1_555
C21_8 C16_8 1_555 1_555
H12_8 C21_8 1_555 1_555
C22_8 C19_8 1_555 1_555
C23_8 C22_8 1_555 1_555
H13_8 C23_8 1_555 1_555
C24_8 C23_8 1_555 1_555
H14_8 C24_8 1_555 1_555
C27_8 C22_8 1_555 1_555
H16_8 C27_8 1_555 1_555
O17_7 C29_8 1_555 1_555
O18_8 C29_8 1_555 1_555
C29_8 C30_8 1_555 1_555
C30_8 C31_8 1_555 1_555
C31_8 H17_8 1_555 1_555
C32_8 C31_8 1_555 1_555
H18_8 C32_8 1_555 1_555
C33_8 C32_8 1_555 1_555
C34_8 C33_8 1_555 1_555
H19_8 C34_8 1_555 1_555
C35_8 C30_8 1_555 1_555
H20_8 C35_8 1_555 1_555
C36_8 C33_8 1_555 1_555
C37_8 C36_8 1_555 1_555
H21_8 C37_8 1_555 1_555
C38_8 C37_8 1_555 1_555
H22_8 C38_8 1_555 1_555
C39_8 C14_11 1_555 1_555
C40_8 C39_8 1_555 1_555
H23_8 C40_8 1_555 1_555
C41_8 C36_8 1_555 1_555
H24_8 C41_8 1_555 1_555
C20_8 C21_8 1_555 1_555
C34_8 C35_8 1_555 1_555
C38_8 C39_8 1_555 1_555
C40_8 C41_8 1_555 1_555
O20_7 C28_8 1_555 1_555
O22_8 C28_8 1_555 1_555
C26_8 C25_8 1_555 1_555
H15_8 C26_8 1_555 1_555
C28_8 C25_8 1_555 1_555
O17_6 C1_8 1_555 1_555
O18_5 C1_8 1_555 1_555
C1_8 C2_8 1_555 1_555
C2_8 C3_8 1_555 1_555
C3_8 H1_8 1_555 1_555
C4_8 C3_8 1_555 1_555
H2_8 C4_8 1_555 1_555
C5_8 C4_8 1_555 1_555
C6_8 C5_8 1_555 1_555
H3_8 C6_8 1_555 1_555
C7_8 C2_8 1_555 1_555
H4_8 C7_8 1_555 1_555
C8_8 C5_8 1_555 1_555
C9_8 C8_8 1_555 1_555
H5_8 C9_8 1_555 1_555
C10_8 C9_8 1_555 1_555
H6_8 C10_8 1_555 1_555
C11_8 C10_8 1_555 1_555
C12_8 C11_8 1_555 1_555
H7_8 C12_8 1_555 1_555
C13_8 C8_8 1_555 1_555
H8_8 C13_8 1_555 1_555
C14_12 C11_8 1_555 1_555
C15_12 C14_12 1_555 1_555
C42_8 C15_12 1_555 1_555
C43_8 C42_8 1_555 1_555
H25_8 C43_8 1_555 1_555
C44_8 C43_8 1_555 1_555
H26_8 C44_8 1_555 1_555
C45_8 C44_8 1_555 1_555
C46_8 C45_8 1_555 1_555
H27_8 C46_8 1_555 1_555
C47_8 C42_8 1_555 1_555
H28_8 C47_8 1_555 1_555
C48_8 C45_8 1_555 1_555
C49_8 C48_8 1_555 1_555
H29_8 C49_8 1_555 1_555
C50_8 C49_8 1_555 1_555
H30_8 C50_8 1_555 1_555
C53_8 C48_8 1_555 1_555
H32_8 C53_8 1_555 1_555
C6_8 C7_8 1_555 1_555
C12_8 C13_8 1_555 1_555
C46_8 C47_8 1_555 1_555
O20_6 C54_8 1_555 1_555
O22_5 C54_8 1_555 1_555
C52_8 C51_8 1_555 1_555
H31_8 C52_8 1_555 1_555
C54_8 C51_8 1_555 1_555

#END
