
###############################################################################
#
# This file contains modified crystal structure data generated from the
# MOF subset of the Cambridge Structural Database (CSD) v543 
# hosted by the Cambridge Crystallographic Data Centre (CCDC).
#
# This work is licensed under the Creative Commons
# Attribution-NonCommercial-ShareAlike 4.0 International License.
# To view a copy of this license, visit
# http://creativecommons.org/licenses/by-nc-sa/4.0/
# or send a letter to
# Creative Commons, PO Box 1866, Mountain View, CA 94042, USA.
#
# CIF created using the CSD Python API on 29 September 2022
# The structure has been converted into the P1 space group
# The structure has a 3D framework
# The original CSD entry RORRIC03 is in the trigonal crystal system
# The original CSD entry RORRIC03 is in a Sohncke space group
# The framework has been calculated to contain at least 10.0% void space
# The void calculation uses a probe of radius 1.32A, grid spacing 0.4
# H atom positions have been added when not included in the experimental data
# Generated hydrogen atom positions removed from atoms on special positions
#
###############################################################################

data_RORRIC03
_chemical_formula_moiety         '(C42 H60 Cu6 N18 O24)n'
_symmetry_cell_setting           triclinic
_symmetry_space_group_name_H-M   'P 1'
_symmetry_Int_Tables_number      1
_space_group_name_Hall           'P 1'
loop_
_symmetry_equiv_pos_site_id
_symmetry_equiv_pos_as_xyz
1 x,y,z
_cell_length_a                   10.6489(3)
_cell_length_b                   10.6489(3)
_cell_length_c                   16.8523(5)
_cell_angle_alpha                90
_cell_angle_beta                 90
_cell_angle_gamma                120
_cell_volume                     1655.01
loop_
_atom_site_label
_atom_site_type_symbol
_atom_site_fract_x
_atom_site_fract_y
_atom_site_fract_z
H16 H 0.0286276 0.225168 0.484534
Cu1 Cu 0.71192(5) 0.13479(5) 0.46983(2)
N2 N 0.6716(4) 0.0704(4) 0.58052(12)
N3 N 0.6210(4) 0.0525(4) 0.70609(14)
H1 H 0.6062 0.0750 0.7541
C3 C 0.6603(5) 0.1402(4) 0.64275(16)
H2 H 0.6773 0.2367 0.6425
O4 O 0.9480(7) 0.1302(9) 0.4663(3)
N4 N 0.6765(4) 0.0655(3) 0.23606(11)
O5 O 0.7253(4) 0.1866(3) 0.35626(11)
C8 C 0.6719(6) 0.0721(4) 0.31320(14)
C11 C 0.7056(6) 0.0641(4) 0.06147(15)
C12 C 0.8203(6) 0.1673(4) 0.11553(16)
H10 H 0.8812 0.2594 0.0868
H11 H 0.8831 0.1272 0.1307
C13 C 0.7604(6) 0.1999(4) 0.19216(13)
H12 H 0.8445 0.2681 0.2258
O6 O 0.5370(4) 0.1970(3) 0.16825(12)
O7 O 0.7445(4) 0.4072(3) 0.15549(14)
C14 C 0.6735(6) 0.2737(4) 0.17061(13)
Cu3 Cu 0.42287(7) 0.28808(5) 0.13650(2)
O10 O 0.8030(3) 0.3400(3) 0.50158(12)
H15 H 0.967401 0.11144 0.411202
N1 N 0.6110(3) 0.9345(3) 0.43061(11)
O1 O 0.3400(3) 0.8030(3) 0.49842(12)
O2 O 0.5387(3) 0.8134(3) 0.31041(11)
O3 O 0.3373(3) 0.5928(3) 0.51118(14)
C1 C 0.3998(4) 0.7263(4) 0.49606(13)
C2 C 0.5998(4) 0.9279(4) 0.35347(14)
C4 C 0.6076(5) 0.9228(5) 0.68453(16)
H3 H 0.5806 0.8408 0.7174
C5 C 0.6415(4) 0.9359(4) 0.60520(15)
C6 C 0.6530(4) 0.8327(4) 0.55114(16)
H4 H 0.6218 0.7406 0.5799
H5 H 0.7559 0.8728 0.5360
C7 C 0.5605(4) 0.8001(4) 0.47451(13)
H6 H 0.5764 0.7319 0.4409
N5 N 0.6012(6) 0.9296(4) 0.08615(12)
C9 C 0.5201(6) 0.8598(4) 0.02392(16)
H8 H 0.4406 0.7633 0.0242
Cu2 Cu 0.57713(7) 0.86521(5) 0.19684(2)
O8 O 0.8178(11) 0.8698(9) 0.2004(3)
Cu4 Cu 0.13479(5) 0.71192(5) 0.53017(2)
O9 O 0.4630(4) 0.6600(3) 0.16509(12)
N1_2 N 0.0655(3) 0.6765(4) 0.76394(11)
O1_2 O 0.1970(3) 0.5370(4) 0.83175(12)
O2_2 O 0.1866(3) 0.7253(4) 0.64374(11)
O3_2 O 0.4072(3) 0.7445(4) 0.84451(14)
C1_2 C 0.2737(4) 0.6735(6) 0.82939(13)
C2_2 C 0.0721(4) 0.6719(6) 0.68680(14)
C5_2 C 0.0641(4) 0.7056(6) 0.93853(15)
C6_2 C 0.1673(4) 0.8203(6) 0.88447(16)
H4_2 H 0.2594 0.8812 0.9132
H5_2 H 0.1272 0.8831 0.8693
C7_2 C 0.1999(4) 0.7604(6) 0.80784(13)
H6_2 H 0.2681 0.8445 0.7742
N5_2 N 0.0704(4) 0.6716(7) 0.41948(12)
N6 N 0.0525(4) 0.6210(7) 0.29391(14)
H7 H 0.0750 0.6062 0.2459
C9_2 C 0.1402(4) 0.6603(7) 0.35725(16)
H8_2 H 0.2367 0.6773 0.3575
O8_2 O 0.1302(9) 0.9480(14) 0.5337(3)
Cu4_2 Cu 0.28808(5) 0.42287(7) 0.86350(2)
H14 H 0.105123 0.968177 0.480256
Cu1_2 Cu 0.86521(5) 0.57713(7) 0.80316(2)
N2_2 N 0.9296(4) 0.6012(6) 0.91385(12)
C3_2 C 0.8598(4) 0.5201(6) 0.97608(16)
H2_2 H 0.7633 0.4406 0.9758
O4_2 O 0.8698(9) 0.8178(11) 0.7996(3)
N4_2 N 0.9345(3) 0.6110(5) 0.56939(11)
O5_2 O 0.8134(3) 0.5387(5) 0.68959(11)
C8_2 C 0.9279(4) 0.5998(7) 0.64653(14)
C10 C 0.9228(5) 0.6076(9) 0.31547(16)
H9 H 0.8408 0.5806 0.2826
C11_2 C 0.9359(4) 0.6415(7) 0.39480(15)
C12_2 C 0.8327(4) 0.6530(7) 0.44886(16)
H10_2 H 0.7406 0.6218 0.4201
H11_2 H 0.8728 0.7559 0.4640
C13_2 C 0.8001(4) 0.5605(7) 0.52549(13)
H12_2 H 0.7319 0.5764 0.5591
O7_2 O 0.5928(3) 0.3373(5) 0.48882(14)
C14_2 C 0.7263(4) 0.3998(7) 0.50394(13)
O10_2 O 0.6600(3) 0.4630(4) 0.83491(12)
N1_3 N 0.3235(4) 0.3890(3) 0.09728(11)
N2_3 N 0.3988(6) 0.3284(4) 0.24719(12)
N3_2 N 0.4315(6) 0.3790(4) 0.37276(14)
H1_2 H 0.4688 0.3938 0.4208
O3_3 O 0.2555(4) 0.6627(3) 0.17785(14)
C1_3 C 0.3265(6) 0.6002(4) 0.16273(13)
C2_3 C 0.3281(6) 0.4002(4) 0.02014(14)
C3_3 C 0.4799(6) 0.3397(5) 0.30942(16)
H2_3 H 0.5594 0.3227 0.3092
C4_2 C 0.3152(7) 0.3924(5) 0.35120(16)
H3_2 H 0.2602 0.4194 0.3841
C5_3 C 0.2944(6) 0.3585(4) 0.27187(15)
C6_3 C 0.1797(6) 0.3470(4) 0.21781(16)
H4_3 H 0.1188 0.3782 0.2466
H5_3 H 0.1169 0.2441 0.2027
C7_3 C 0.2396(6) 0.4395(4) 0.14118(13)
H6_3 H 0.1555 0.4236 0.1076
O4_3 O 0.1822(11) 0.0520(7) 0.1330(3)
O5_3 O 0.4613(5) 0.2747(4) 0.02292(11)
H15_2 H 0.144038 0.0325985 0.0778682
O2_3 O 0.2747(4) 0.4613(3) 0.97708(11)
N4_3 N 0.3890(5) 0.3235(4) 0.90272(11)
N5_3 N 0.3284(7) 0.3988(6) 0.75281(12)
N6_2 N 0.3790(7) 0.4315(6) 0.62724(14)
H7_2 H 0.3938 0.4688 0.5792
C8_3 C 0.4002(7) 0.3281(6) 0.97986(14)
C9_3 C 0.3397(7) 0.4799(6) 0.69058(16)
H8_3 H 0.3227 0.5594 0.6908
C10_2 C 0.3924(9) 0.3152(7) 0.64880(16)
H9_2 H 0.4194 0.2602 0.6159
C11_3 C 0.3585(7) 0.2944(6) 0.72813(15)
C12_3 C 0.3470(7) 0.1797(6) 0.78219(16)
H10_3 H 0.3782 0.1188 0.7534
H11_3 H 0.2441 0.1169 0.7973
C13_3 C 0.4395(7) 0.2396(6) 0.85882(13)
H12_3 H 0.4236 0.1555 0.8924
O7_3 O 0.6627(5) 0.2555(4) 0.82215(14)
C14_3 C 0.6002(7) 0.3265(6) 0.83727(13)
O8_3 O 0.0520(14) 0.1822(11) 0.8670(3)
H14_2 H 0.0318226 0.136946 0.813589
H15_3 H 0.11144 0.967401 0.588798
H14_3 H 0.968177 0.105123 0.519744
H14_4 H 0.136946 0.0318226 0.186411
H15_4 H 0.0325985 0.144038 0.922132
C10_3 C 0.6848(7) 0.0772(5) 0.98214(16)
H9_3 H 0.7398 0.1592 0.9493
N6_3 N 0.5685(6) 0.9475(4) 0.96058(14)
H7_3 H 0.5312 0.9250 0.9126
H13 H 0.22715 0.028384 0.549531
C4_3 C 0.0772(5) 0.6848(7) 0.01786(16)
H3_3 H 0.1592 0.7398 0.0507
N3_3 N 0.9475(4) 0.5685(6) 0.03942(14)
H1_3 H 0.9250 0.5312 0.0874
H16_2 H 0.19654 0.971372 0.151201
H13_2 H 0.971616 0.198766 0.882865
H16_3 H 0.225168 0.0286276 0.515466
H13_3 H 0.028384 0.22715 0.450469
H13_4 H 0.198766 0.971616 0.117135
H16_4 H 0.971372 0.19654 0.848799
loop_
_geom_bond_atom_site_label_1
_geom_bond_atom_site_label_2
_geom_bond_site_symmetry_1
_geom_bond_site_symmetry_2
N2 Cu1 1_555 1_555
N3 H1 1_555 1_555
C3 N2 1_555 1_555
H2 C3 1_555 1_555
O4 Cu1 1_555 1_555
N4 C8 1_555 1_555
O5 Cu1 1_555 1_555
C8 O5 1_555 1_555
C12 C11 1_555 1_555
H10 C12 1_555 1_555
H11 C12 1_555 1_555
C13 N4 1_555 1_555
H12 C13 1_555 1_555
O6 C14 1_555 1_555
O7 C14 1_555 1_555
C14 C13 1_555 1_555
Cu3 O6 1_555 1_555
O10 Cu1 1_555 1_555
N3 C3 1_555 1_555
C12 C13 1_555 1_555
O4 H15 1_555 1_555
N1 C2 1_555 1_555
O1 C1 1_555 1_555
O2 C2 1_555 1_555
O3 C1 1_555 1_555
C1 C7 1_555 1_555
H3 C4 1_555 1_555
C6 C5 1_555 1_555
H4 C6 1_555 1_555
H5 C6 1_555 1_555
C7 N1 1_555 1_555
H6 C7 1_555 1_555
N5 C9 1_555 1_555
H8 C9 1_555 1_555
Cu2 O2 1_555 1_555
O8 Cu2 1_555 1_555
Cu4 O1 1_555 1_555
O9 Cu2 1_555 1_555
C4 C5 1_555 1_555
C6 C7 1_555 1_555
N5 Cu2 1_555 1_555
N1_2 C2_2 1_555 1_555
O1_2 C1_2 1_555 1_555
O2_2 C2_2 1_555 1_555
O3_2 C1_2 1_555 1_555
C1_2 C7_2 1_555 1_555
C6_2 C5_2 1_555 1_555
H4_2 C6_2 1_555 1_555
H5_2 C6_2 1_555 1_555
C7_2 N1_2 1_555 1_555
H6_2 C7_2 1_555 1_555
N5_2 C9_2 1_555 1_555
N6 H7 1_555 1_555
C9_2 N6 1_555 1_555
H8_2 C9_2 1_555 1_555
Cu4 O2_2 1_555 1_555
O8_2 Cu4 1_555 1_555
Cu4_2 O1_2 1_555 1_555
C6_2 C7_2 1_555 1_555
N5_2 Cu4 1_555 1_555
O8_2 H14 1_555 1_555
N2_2 Cu1_2 1_555 1_555
C3_2 N2_2 1_555 1_555
H2_2 C3_2 1_555 1_555
O4_2 Cu1_2 1_555 1_555
N4_2 C8_2 1_555 1_555
O5_2 Cu1_2 1_555 1_555
C8_2 O5_2 1_555 1_555
H9 C10 1_555 1_555
C12_2 C11_2 1_555 1_555
H10_2 C12_2 1_555 1_555
H11_2 C12_2 1_555 1_555
C13_2 N4_2 1_555 1_555
H12_2 C13_2 1_555 1_555
O10 C14_2 1_555 1_555
O7_2 C14_2 1_555 1_555
C14_2 C13_2 1_555 1_555
O10_2 Cu1_2 1_555 1_555
C10 C11_2 1_555 1_555
C12_2 C13_2 1_555 1_555
Cu3 N1_3 1_555 1_555
N1_3 C2_3 1_555 1_555
N2_3 Cu3 1_555 1_555
N3_2 H1_2 1_555 1_555
O9 C1_3 1_555 1_555
O3_3 C1_3 1_555 1_555
C1_3 C7_3 1_555 1_555
C3_3 N2_3 1_555 1_555
H2_3 C3_3 1_555 1_555
C4_2 N3_2 1_555 1_555
H3_2 C4_2 1_555 1_555
C5_3 N2_3 1_555 1_555
C6_3 C5_3 1_555 1_555
H4_3 C6_3 1_555 1_555
H5_3 C6_3 1_555 1_555
C7_3 N1_3 1_555 1_555
H6_3 C7_3 1_555 1_555
O4_3 Cu3 1_555 1_555
O5_3 Cu3 1_555 1_555
N3_2 C3_3 1_555 1_555
C4_2 C5_3 1_555 1_555
C6_3 C7_3 1_555 1_555
O4_3 H15_2 1_555 1_555
N4_3 C8_3 1_555 1_555
N5_3 C9_3 1_555 1_555
N6_2 H7_2 1_555 1_555
C9_3 N6_2 1_555 1_555
H8_3 C9_3 1_555 1_555
C10_2 N6_2 1_555 1_555
H9_2 C10_2 1_555 1_555
C11_3 N5_3 1_555 1_555
C12_3 C11_3 1_555 1_555
H10_3 C12_3 1_555 1_555
H11_3 C12_3 1_555 1_555
C13_3 N4_3 1_555 1_555
H12_3 C13_3 1_555 1_555
O10_2 C14_3 1_555 1_555
O7_3 C14_3 1_555 1_555
C14_3 C13_3 1_555 1_555
Cu4_2 O2_3 1_555 1_555
O8_3 Cu4_2 1_555 1_555
N4_3 Cu4_2 1_555 1_555
N5_3 Cu4_2 1_555 1_555
C10_2 C11_3 1_555 1_555
C12_3 C13_3 1_555 1_555
O8_3 H14_2 1_555 1_555
O8_2 H15_3 1_555 1_555
O4 H14_3 1_555 1_555
O4_3 H14_4 1_555 1_555
O8_3 H15_4 1_555 1_555
H9_3 C10_3 1_555 1_555
N6_3 H7_3 1_555 1_555
H3_3 C4_3 1_555 1_555
N3_3 H1_3 1_555 1_555

#END
