
###############################################################################
#
# This file contains modified crystal structure data generated from the
# MOF subset of the Cambridge Structural Database (CSD) v543 
# hosted by the Cambridge Crystallographic Data Centre (CCDC).
#
# This work is licensed under the Creative Commons
# Attribution-NonCommercial-ShareAlike 4.0 International License.
# To view a copy of this license, visit
# http://creativecommons.org/licenses/by-nc-sa/4.0/
# or send a letter to
# Creative Commons, PO Box 1866, Mountain View, CA 94042, USA.
#
# CIF created using the CSD Python API on 29 September 2022
# The structure has been converted into the P1 space group
# The structure has a 3D framework
# The original CSD entry RORRIC02 is in the trigonal crystal system
# The original CSD entry RORRIC02 is in a Sohncke space group
# The framework has been calculated to contain at least 10.0% void space
# The void calculation uses a probe of radius 1.32A, grid spacing 0.4
# H atom positions have been added when not included in the experimental data
# Generated hydrogen atom positions removed from atoms on special positions
#
###############################################################################

data_RORRIC02
_chemical_formula_moiety         '(C42 H60 Cu6 N18 O24)n'
_symmetry_cell_setting           triclinic
_symmetry_space_group_name_H-M   'P 1'
_symmetry_Int_Tables_number      1
_space_group_name_Hall           'P 1'
loop_
_symmetry_equiv_pos_site_id
_symmetry_equiv_pos_as_xyz
1 x,y,z
_cell_length_a                   10.5958(2)
_cell_length_b                   10.5958(2)
_cell_length_c                   16.8456(4)
_cell_angle_alpha                90
_cell_angle_beta                 90
_cell_angle_gamma                120
_cell_volume                     1637.89
loop_
_atom_site_label
_atom_site_type_symbol
_atom_site_fract_x
_atom_site_fract_y
_atom_site_fract_z
N2 N 0.3873(3) 0.0658(3) 0.43054(10)
O1 O 0.6597(3) 0.1967(3) 0.49845(11)
O2 O 0.6631(3) 0.4087(3) 0.51109(13)
O3 O 0.4595(4) 0.1875(3) 0.31029(10)
C1 C 0.6004(4) 0.2745(4) 0.49595(12)
C3 C 0.3917(4) 0.0780(4) 0.68468(14)
H3 H 0.4176 0.1600 0.7177
C4 C 0.3595(4) 0.0655(4) 0.60562(13)
C5 C 0.3472(4) 0.1692(4) 0.55133(14)
H4 H 0.3792 0.2621 0.5798
H5 H 0.2436 0.1289 0.5367
C6 C 0.4387(4) 0.2008(3) 0.47449(12)
H6 H 0.4229 0.2697 0.4410
C7 C 0.3992(3) 0.0728(3) 0.35339(13)
N4 N 0.3982(4) 0.0700(3) 0.08617(11)
C8 C 0.4799(6) 0.1399(4) 0.02379(14)
H8 H 0.5601 0.2367 0.0241
Cu2 Cu 0.42218(6) 0.13495(4) 0.19666(2)
O8 O 0.1845(11) 0.1365(9) 0.2001(3)
Cu4 Cu 0.86505(4) 0.28723(5) 0.52999(2)
O9 O 0.5370(4) 0.3403(3) 0.16512(11)
Cu1 Cu 0.28723(5) 0.86505(4) 0.47001(2)
N1 N 0.3282(3) 0.9300(3) 0.58050(11)
N3 N 0.3790(4) 0.9479(4) 0.70640(13)
H1 H 0.3940 0.9253 0.7544
C2 C 0.3400(4) 0.8601(4) 0.64288(14)
H2 H 0.3234 0.7633 0.6426
O4 O 0.0480(7) 0.8635(9) 0.4666(3)
N5 N 0.3215(4) 0.9342(3) 0.23613(10)
C10 C 0.2940(6) 0.9345(4) 0.06105(13)
C11 C 0.1780(6) 0.8308(4) 0.11534(14)
H10 H 0.1171 0.7379 0.0869
H11 H 0.1147 0.8711 0.1300
C12 C 0.2379(5) 0.7992(3) 0.19218(12)
H12 H 0.1532 0.7303 0.2257
C13 C 0.3264(4) 0.9272(3) 0.31328(13)
O5 O 0.4630(4) 0.8033(3) 0.16822(11)
O6 O 0.2544(4) 0.5913(3) 0.15558(13)
C14 C 0.3259(6) 0.7255(4) 0.17072(12)
O7 O 0.2720(5) 0.8125(3) 0.35638(10)
Cu3 Cu 0.57782(6) 0.71277(5) 0.13668(2)
O10 O 0.1967(3) 0.6597(3) 0.50155(11)
Cu1_2 Cu 0.13495(4) 0.42218(6) 0.80334(2)
N1_2 N 0.0700(3) 0.3982(4) 0.91383(11)
C2_2 C 0.1399(4) 0.4799(6) 0.97621(14)
H2_2 H 0.2367 0.5601 0.9759
O4_2 O 0.1365(9) 0.1845(11) 0.7999(3)
N5_2 N 0.0658(3) 0.3873(5) 0.56946(10)
C9 C 0.0780(4) 0.3917(7) 0.31532(14)
H9 H 0.1600 0.4176 0.2823
C10_2 C 0.0655(4) 0.3595(7) 0.39438(13)
C11_2 C 0.1692(4) 0.3472(7) 0.44867(14)
H10_2 H 0.2621 0.3792 0.4202
H11_2 H 0.1289 0.2436 0.4633
C12_2 C 0.2008(3) 0.4387(6) 0.52551(12)
H12_2 H 0.2697 0.4229 0.5590
C13_2 C 0.0728(3) 0.3992(5) 0.64661(13)
O6_2 O 0.4087(3) 0.6631(5) 0.48891(13)
C14_2 C 0.2745(4) 0.6004(7) 0.50405(12)
O7_2 O 0.1875(3) 0.4595(6) 0.68971(10)
O10_2 O 0.3403(3) 0.5370(4) 0.83488(11)
N2_2 N 0.9342(3) 0.3215(4) 0.76387(10)
O1_2 O 0.8033(3) 0.4630(4) 0.83178(11)
O2_2 O 0.5913(3) 0.2544(4) 0.84442(13)
O3_2 O 0.8125(3) 0.2720(5) 0.64362(10)
C1_2 C 0.7255(4) 0.3259(6) 0.82928(12)
C4_2 C 0.9345(4) 0.2940(6) 0.93895(13)
C5_2 C 0.8308(4) 0.1780(6) 0.88466(14)
H4_2 H 0.7379 0.1171 0.9131
H5_2 H 0.8711 0.1147 0.8700
C6_2 C 0.7992(3) 0.2379(5) 0.80782(12)
H6_2 H 0.7303 0.1532 0.7743
C7_2 C 0.9272(3) 0.3264(4) 0.68672(13)
N4_2 N 0.9300(3) 0.3282(5) 0.41950(11)
N6 N 0.9479(4) 0.3790(7) 0.29360(13)
H7 H 0.9253 0.3940 0.2456
C8_2 C 0.8601(4) 0.3400(7) 0.35712(14)
H8_2 H 0.7633 0.3234 0.3574
O8_2 O 0.8635(9) 0.0480(14) 0.5334(3)
Cu4_2 Cu 0.71277(5) 0.57782(6) 0.86332(2)
N1_3 N 0.6018(4) 0.6718(3) 0.24717(11)
N2_3 N 0.6785(4) 0.6127(3) 0.09721(10)
N3_2 N 0.5689(6) 0.6210(4) 0.37307(13)
H1_2 H 0.5313 0.6060 0.4211
O2_3 O 0.7456(4) 0.3369(3) 0.17776(13)
C1_3 C 0.6741(6) 0.3996(4) 0.16262(12)
C2_3 C 0.5201(6) 0.6600(4) 0.30955(14)
H2_3 H 0.4399 0.6766 0.3093
C3_2 C 0.6863(6) 0.6083(4) 0.35135(14)
H3_2 H 0.7424 0.5824 0.3844
C4_3 C 0.7060(6) 0.6405(4) 0.27229(13)
C5_3 C 0.8220(6) 0.6528(4) 0.21800(14)
H4_3 H 0.8829 0.6208 0.2465
H5_3 H 0.8853 0.7564 0.2034
C6_3 C 0.7621(5) 0.5613(4) 0.14116(12)
H6_3 H 0.8468 0.5771 0.1077
C7_3 C 0.6736(4) 0.6008(3) 0.02006(13)
O4_3 O 0.8155(11) 0.9520(7) 0.1333(3)
O7_3 O 0.5405(6) 0.7280(5) 0.02304(10)
O3_3 O 0.7280(5) 0.5405(4) 0.97696(10)
N4_3 N 0.6718(5) 0.6018(4) 0.75283(11)
N5_3 N 0.6127(5) 0.6785(4) 0.90279(10)
N6_2 N 0.6210(7) 0.5689(6) 0.62693(13)
H7_2 H 0.6060 0.5313 0.5789
C8_3 C 0.6600(7) 0.5201(6) 0.69045(14)
H8_3 H 0.6766 0.4399 0.6907
C9_2 C 0.6083(7) 0.6863(6) 0.64865(14)
H9_2 H 0.5824 0.7424 0.6156
C10_3 C 0.6405(7) 0.7060(6) 0.72771(13)
C11_3 C 0.6528(7) 0.8220(6) 0.78200(14)
H10_3 H 0.6208 0.8829 0.7535
H11_3 H 0.7564 0.8853 0.7966
C12_3 C 0.5613(6) 0.7621(5) 0.85884(12)
H12_3 H 0.5771 0.8468 0.8923
C13_3 C 0.6008(5) 0.6736(4) 0.97994(13)
O6_3 O 0.3369(5) 0.7456(4) 0.82224(13)
C14_3 C 0.3996(7) 0.6741(6) 0.83738(12)
O8_3 O 0.9520(14) 0.8155(11) 0.8667(3)
N6_3 N 0.4311(6) 0.0521(4) 0.96027(13)
H7_3 H 0.4687 0.0747 0.9123
C9_3 C 0.3137(6) 0.9220(4) 0.98199(14)
H9_3 H 0.2576 0.8400 0.9490
N3_3 N 0.0521(4) 0.4311(6) 0.03973(13)
H1_3 H 0.0747 0.4687 0.0877
C3_3 C 0.9220(4) 0.3137(6) 0.01801(14)
H3_3 H 0.8400 0.2576 0.0510
H13 H 0.765159 0.968627 0.549028
H13_2 H 0.0313734 0.796533 0.882362
H13_3 H 0.968627 0.765159 0.450972
H13_4 H 0.796533 0.0313734 0.117638
loop_
_geom_bond_atom_site_label_1
_geom_bond_atom_site_label_2
_geom_bond_site_symmetry_1
_geom_bond_site_symmetry_2
O1 C1 1_555 1_555
O2 C1 1_555 1_555
O3 C7 1_555 1_555
C1 C6 1_555 1_555
H3 C3 1_555 1_555
C5 C4 1_555 1_555
H4 C5 1_555 1_555
H5 C5 1_555 1_555
C6 N2 1_555 1_555
H6 C6 1_555 1_555
C7 N2 1_555 1_555
N4 C8 1_555 1_555
H8 C8 1_555 1_555
Cu2 O3 1_555 1_555
O8 Cu2 1_555 1_555
Cu4 O1 1_555 1_555
O9 Cu2 1_555 1_555
C3 C4 1_555 1_555
C5 C6 1_555 1_555
N4 Cu2 1_555 1_555
Cu1 N1 1_555 1_555
N1 C2 1_555 1_555
N3 H1 1_555 1_555
C2 N3 1_555 1_555
H2 C2 1_555 1_555
O4 Cu1 1_555 1_555
N5 C12 1_555 1_555
C11 C10 1_555 1_555
H10 C11 1_555 1_555
H11 C11 1_555 1_555
C12 C11 1_555 1_555
H12 C12 1_555 1_555
O5 C14 1_555 1_555
O6 C14 1_555 1_555
C14 C12 1_555 1_555
O7 Cu1 1_555 1_555
Cu3 O5 1_555 1_555
O10 Cu1 1_555 1_555
N5 C13 1_555 1_555
C13 O7 1_555 1_555
Cu1_2 N1_2 1_555 1_555
N1_2 C2_2 1_555 1_555
H2_2 C2_2 1_555 1_555
O4_2 Cu1_2 1_555 1_555
N5_2 C12_2 1_555 1_555
H9 C9 1_555 1_555
C11_2 C10_2 1_555 1_555
H10_2 C11_2 1_555 1_555
H11_2 C11_2 1_555 1_555
C12_2 C11_2 1_555 1_555
H12_2 C12_2 1_555 1_555
O10 C14_2 1_555 1_555
O6_2 C14_2 1_555 1_555
C14_2 C12_2 1_555 1_555
O7_2 Cu1_2 1_555 1_555
O10_2 Cu1_2 1_555 1_555
N5_2 C13_2 1_555 1_555
C9 C10_2 1_555 1_555
C13_2 O7_2 1_555 1_555
O1_2 C1_2 1_555 1_555
O2_2 C1_2 1_555 1_555
O3_2 C7_2 1_555 1_555
C1_2 C6_2 1_555 1_555
C5_2 C4_2 1_555 1_555
H4_2 C5_2 1_555 1_555
H5_2 C5_2 1_555 1_555
C6_2 N2_2 1_555 1_555
H6_2 C6_2 1_555 1_555
C7_2 N2_2 1_555 1_555
N4_2 C8_2 1_555 1_555
N6 H7 1_555 1_555
C8_2 N6 1_555 1_555
H8_2 C8_2 1_555 1_555
Cu4 O3_2 1_555 1_555
O8_2 Cu4 1_555 1_555
Cu4_2 O1_2 1_555 1_555
C5_2 C6_2 1_555 1_555
N4_2 Cu4 1_555 1_555
Cu3 N1_3 1_555 1_555
N1_3 C2_3 1_555 1_555
N2_3 Cu3 1_555 1_555
N3_2 H1_2 1_555 1_555
O9 C1_3 1_555 1_555
O2_3 C1_3 1_555 1_555
C1_3 C6_3 1_555 1_555
C2_3 N3_2 1_555 1_555
H2_3 C2_3 1_555 1_555
C3_2 N3_2 1_555 1_555
H3_2 C3_2 1_555 1_555
C4_3 N1_3 1_555 1_555
C5_3 C4_3 1_555 1_555
H4_3 C5_3 1_555 1_555
H5_3 C5_3 1_555 1_555
C6_3 N2_3 1_555 1_555
H6_3 C6_3 1_555 1_555
C7_3 N2_3 1_555 1_555
O4_3 Cu3 1_555 1_555
O7_3 Cu3 1_555 1_555
C3_2 C4_3 1_555 1_555
C5_3 C6_3 1_555 1_555
N4_3 C8_3 1_555 1_555
N5_3 C12_3 1_555 1_555
N6_2 H7_2 1_555 1_555
C8_3 N6_2 1_555 1_555
H8_3 C8_3 1_555 1_555
C9_2 N6_2 1_555 1_555
H9_2 C9_2 1_555 1_555
C10_3 N4_3 1_555 1_555
C11_3 C10_3 1_555 1_555
H10_3 C11_3 1_555 1_555
H11_3 C11_3 1_555 1_555
C12_3 C11_3 1_555 1_555
H12_3 C12_3 1_555 1_555
O10_2 C14_3 1_555 1_555
O6_3 C14_3 1_555 1_555
C14_3 C12_3 1_555 1_555
Cu4_2 O3_3 1_555 1_555
O8_3 Cu4_2 1_555 1_555
N4_3 Cu4_2 1_555 1_555
N5_3 C13_3 1_555 1_555
N5_3 Cu4_2 1_555 1_555
C9_2 C10_3 1_555 1_555
N6_3 H7_3 1_555 1_555
H9_3 C9_3 1_555 1_555
N3_3 H1_3 1_555 1_555
H3_3 C3_3 1_555 1_555

#END
