
###############################################################################
#
# This file contains modified crystal structure data generated from the
# MOF subset of the Cambridge Structural Database (CSD) v543 
# hosted by the Cambridge Crystallographic Data Centre (CCDC).
#
# This work is licensed under the Creative Commons
# Attribution-NonCommercial-ShareAlike 4.0 International License.
# To view a copy of this license, visit
# http://creativecommons.org/licenses/by-nc-sa/4.0/
# or send a letter to
# Creative Commons, PO Box 1866, Mountain View, CA 94042, USA.
#
# CIF created using the CSD Python API on 29 September 2022
# The structure has been converted into the P1 space group
# The structure has a 3D framework
# The original CSD entry RORTAV is in the cubic crystal system
# The framework has been calculated to contain at least 10.0% void space
# The void calculation uses a probe of radius 1.32A, grid spacing 0.4
# The framework is charged, counterions have been retained in the structure
#
###############################################################################

data_RORTAV
_chemical_formula_moiety         '(C240 H192 Cu8 N48 O48 16+)n'
_symmetry_cell_setting           triclinic
_symmetry_space_group_name_H-M   'P 1'
_symmetry_Int_Tables_number      1
_space_group_name_Hall           'P 1'
loop_
_symmetry_equiv_pos_site_id
_symmetry_equiv_pos_as_xyz
1 x,y,z
_cell_length_a                   23.1885(2)
_cell_length_b                   23.1885(2)
_cell_length_c                   23.1885(2)
_cell_angle_alpha                90
_cell_angle_beta                 90
_cell_angle_gamma                90
_cell_volume                     12468.6
loop_
_atom_site_label
_atom_site_type_symbol
_atom_site_fract_x
_atom_site_fract_y
_atom_site_fract_z
Cu1 Cu 0.2500 0.2500 0.2500
O1 O 0.3240(3) 0.2232(3) 0.2919(3)
N1 N 0.3240(4) 0.2210(4) 0.3492(4)
C1 C 0.3620(5) 0.2528(5) 0.3781(5)
H1 H 0.3876 0.2761 0.3578
C2 C 0.3641(5) 0.2520(5) 0.4359(5)
H2 H 0.3907 0.2751 0.4549
C3 C 0.3267(4) 0.2166(4) 0.4684(4)
C4 C 0.2898(5) 0.1828(4) 0.4369(4)
H3 H 0.2649 0.1582 0.4564
C5 C 0.2881(5) 0.1839(4) 0.3760(4)
H4 H 0.2633 0.1601 0.3554
O2 O 0.3240(3) 0.2232(3) 0.7081(3)
N2 N 0.3240(4) 0.2210(4) 0.6508(4)
C6 C 0.3620(5) 0.2528(5) 0.6219(5)
H5 H 0.3876 0.2761 0.6422
C7 C 0.3641(5) 0.2520(5) 0.5641(5)
H6 H 0.3907 0.2751 0.5451
C8 C 0.3267(4) 0.2166(4) 0.5316(4)
C9 C 0.2898(5) 0.1828(4) 0.5631(4)
H7 H 0.2649 0.1582 0.5436
C10 C 0.2881(5) 0.1839(4) 0.6240(4)
H8 H 0.2633 0.1601 0.6446
O3 O 0.2919(3) 0.3240(3) 0.2232(3)
N3 N 0.3492(4) 0.3240(4) 0.2210(4)
C11 C 0.3781(5) 0.3620(5) 0.2528(5)
H9 H 0.3578 0.3876 0.2761
C12 C 0.4359(5) 0.3641(5) 0.2520(5)
H10 H 0.4549 0.3907 0.2751
C13 C 0.4684(4) 0.3267(4) 0.2166(4)
C14 C 0.4369(4) 0.2898(5) 0.1828(4)
H11 H 0.4564 0.2649 0.1582
C15 C 0.3760(4) 0.2881(5) 0.1839(4)
H12 H 0.3554 0.2633 0.1601
O4 O 0.7081(3) 0.3240(3) 0.2232(3)
N4 N 0.6508(4) 0.3240(4) 0.2210(4)
C16 C 0.6219(5) 0.3620(5) 0.2528(5)
H13 H 0.6422 0.3876 0.2761
C17 C 0.5641(5) 0.3641(5) 0.2520(5)
H14 H 0.5451 0.3907 0.2751
C18 C 0.5316(4) 0.3267(4) 0.2166(4)
C19 C 0.5631(4) 0.2898(5) 0.1828(4)
H15 H 0.5436 0.2649 0.1582
C20 C 0.6240(4) 0.2881(5) 0.1839(4)
H16 H 0.6446 0.2633 0.1601
O5 O 0.2232(3) 0.2919(3) 0.3240(3)
N5 N 0.2210(4) 0.3492(4) 0.3240(4)
C21 C 0.2528(5) 0.3781(5) 0.3620(5)
H17 H 0.2761 0.3578 0.3876
C22 C 0.2520(5) 0.4359(5) 0.3641(5)
H18 H 0.2751 0.4549 0.3907
C23 C 0.2166(4) 0.4684(4) 0.3267(4)
C24 C 0.1828(4) 0.4369(4) 0.2898(5)
H19 H 0.1582 0.4564 0.2649
C25 C 0.1839(4) 0.3760(4) 0.2881(5)
H20 H 0.1601 0.3554 0.2633
O6 O 0.2232(3) 0.7081(3) 0.3240(3)
N6 N 0.2210(4) 0.6508(4) 0.3240(4)
C26 C 0.2528(5) 0.6219(5) 0.3620(5)
H21 H 0.2761 0.6422 0.3876
C27 C 0.2520(5) 0.5641(5) 0.3641(5)
H22 H 0.2751 0.5451 0.3907
C28 C 0.2166(4) 0.5316(4) 0.3267(4)
C29 C 0.1828(4) 0.5631(4) 0.2898(5)
H23 H 0.1582 0.5436 0.2649
C30 C 0.1839(4) 0.6240(4) 0.2881(5)
H24 H 0.1601 0.6446 0.2633
Cu2 Cu 0.2500 0.2500 0.7500
Cu3 Cu 0.2500 0.7500 0.2500
Cu4 Cu 0.7500 0.2500 0.2500
O7 O 0.1760(3) 0.2768(3) 0.2081(3)
O8 O 0.2081(3) 0.1760(3) 0.2768(3)
O9 O 0.2768(3) 0.2081(3) 0.1760(3)
Cu1_2 Cu 0.7500 0.7500 0.2500
O1_2 O 0.6760(3) 0.7768(3) 0.2919(3)
N1_2 N 0.6760(4) 0.7790(4) 0.3492(4)
C1_2 C 0.6380(5) 0.7472(5) 0.3781(5)
H1_2 H 0.6124 0.7239 0.3578
C2_2 C 0.6359(5) 0.7480(5) 0.4359(5)
H2_2 H 0.6093 0.7249 0.4549
C3_2 C 0.6733(4) 0.7834(4) 0.4684(4)
C4_2 C 0.7102(5) 0.8172(4) 0.4369(4)
H3_2 H 0.7351 0.8418 0.4564
C5_2 C 0.7119(5) 0.8161(4) 0.3760(4)
H4_2 H 0.7367 0.8399 0.3554
O2_2 O 0.6760(3) 0.7768(3) 0.7081(3)
N2_2 N 0.6760(4) 0.7790(4) 0.6508(4)
C6_2 C 0.6380(5) 0.7472(5) 0.6219(5)
H5_2 H 0.6124 0.7239 0.6422
C7_2 C 0.6359(5) 0.7480(5) 0.5641(5)
H6_2 H 0.6093 0.7249 0.5451
C8_2 C 0.6733(4) 0.7834(4) 0.5316(4)
C9_2 C 0.7102(5) 0.8172(4) 0.5631(4)
H7_2 H 0.7351 0.8418 0.5436
C10_2 C 0.7119(5) 0.8161(4) 0.6240(4)
H8_2 H 0.7367 0.8399 0.6446
O3_2 O 0.7081(3) 0.6760(3) 0.2232(3)
N3_2 N 0.6508(4) 0.6760(4) 0.2210(4)
C11_2 C 0.6219(5) 0.6380(5) 0.2528(5)
H9_2 H 0.6422 0.6124 0.2761
C12_2 C 0.5641(5) 0.6359(5) 0.2520(5)
H10_2 H 0.5451 0.6093 0.2751
C13_2 C 0.5316(4) 0.6733(4) 0.2166(4)
C14_2 C 0.5631(4) 0.7102(5) 0.1828(4)
H11_2 H 0.5436 0.7351 0.1582
C15_2 C 0.6240(4) 0.7119(5) 0.1839(4)
H12_2 H 0.6446 0.7367 0.1601
O4_2 O 0.2919(3) 0.6760(3) 0.2232(3)
N4_2 N 0.3492(4) 0.6760(4) 0.2210(4)
C16_2 C 0.3781(5) 0.6380(5) 0.2528(5)
H13_2 H 0.3578 0.6124 0.2761
C17_2 C 0.4359(5) 0.6359(5) 0.2520(5)
H14_2 H 0.4549 0.6093 0.2751
C18_2 C 0.4684(4) 0.6733(4) 0.2166(4)
C19_2 C 0.4369(4) 0.7102(5) 0.1828(4)
H15_2 H 0.4564 0.7351 0.1582
C20_2 C 0.3760(4) 0.7119(5) 0.1839(4)
H16_2 H 0.3554 0.7367 0.1601
O5_2 O 0.7768(3) 0.7081(3) 0.3240(3)
N5_2 N 0.7790(4) 0.6508(4) 0.3240(4)
C21_2 C 0.7472(5) 0.6219(5) 0.3620(5)
H17_2 H 0.7239 0.6422 0.3876
C22_2 C 0.7480(5) 0.5641(5) 0.3641(5)
H18_2 H 0.7249 0.5451 0.3907
C23_2 C 0.7834(4) 0.5316(4) 0.3267(4)
C24_2 C 0.8172(4) 0.5631(4) 0.2898(5)
H19_2 H 0.8418 0.5436 0.2649
C25_2 C 0.8161(4) 0.6240(4) 0.2881(5)
H20_2 H 0.8399 0.6446 0.2633
O6_2 O 0.7768(3) 0.2919(3) 0.3240(3)
N6_2 N 0.7790(4) 0.3492(4) 0.3240(4)
C26_2 C 0.7472(5) 0.3781(5) 0.3620(5)
H21_2 H 0.7239 0.3578 0.3876
C27_2 C 0.7480(5) 0.4359(5) 0.3641(5)
H22_2 H 0.7249 0.4549 0.3907
C28_2 C 0.7834(4) 0.4684(4) 0.3267(4)
C29_2 C 0.8172(4) 0.4369(4) 0.2898(5)
H23_2 H 0.8418 0.4564 0.2649
C30_2 C 0.8161(4) 0.3760(4) 0.2881(5)
H24_2 H 0.8399 0.3554 0.2633
Cu2_2 Cu 0.7500 0.7500 0.7500
O7_2 O 0.8240(3) 0.7232(3) 0.2081(3)
O8_2 O 0.7919(3) 0.8240(3) 0.2768(3)
O9_2 O 0.7232(3) 0.7919(3) 0.1760(3)
Cu1_3 Cu 0.7500 0.2500 0.7500
O1_3 O 0.6760(3) 0.2232(3) 0.7081(3)
N1_3 N 0.6760(4) 0.2210(4) 0.6508(4)
C1_3 C 0.6380(5) 0.2528(5) 0.6219(5)
H1_3 H 0.6124 0.2761 0.6422
C2_3 C 0.6359(5) 0.2520(5) 0.5641(5)
H2_3 H 0.6093 0.2751 0.5451
C3_3 C 0.6733(4) 0.2166(4) 0.5316(4)
C4_3 C 0.7102(5) 0.1828(4) 0.5631(4)
H3_3 H 0.7351 0.1582 0.5436
C5_3 C 0.7119(5) 0.1839(4) 0.6240(4)
H4_3 H 0.7367 0.1601 0.6446
O2_3 O 0.6760(3) 0.2232(3) 0.2919(3)
N2_3 N 0.6760(4) 0.2210(4) 0.3492(4)
C6_3 C 0.6380(5) 0.2528(5) 0.3781(5)
H5_3 H 0.6124 0.2761 0.3578
C7_3 C 0.6359(5) 0.2520(5) 0.4359(5)
H6_3 H 0.6093 0.2751 0.4549
C8_3 C 0.6733(4) 0.2166(4) 0.4684(4)
C9_3 C 0.7102(5) 0.1828(4) 0.4369(4)
H7_3 H 0.7351 0.1582 0.4564
C10_3 C 0.7119(5) 0.1839(4) 0.3760(4)
H8_3 H 0.7367 0.1601 0.3554
O3_3 O 0.7081(3) 0.3240(3) 0.7768(3)
N3_3 N 0.6508(4) 0.3240(4) 0.7790(4)
C11_3 C 0.6219(5) 0.3620(5) 0.7472(5)
H9_3 H 0.6422 0.3876 0.7239
C12_3 C 0.5641(5) 0.3641(5) 0.7480(5)
H10_3 H 0.5451 0.3907 0.7249
C13_3 C 0.5316(4) 0.3267(4) 0.7834(4)
C14_3 C 0.5631(4) 0.2898(5) 0.8172(4)
H11_3 H 0.5436 0.2649 0.8418
C15_3 C 0.6240(4) 0.2881(5) 0.8161(4)
H12_3 H 0.6446 0.2633 0.8399
O4_3 O 0.2919(3) 0.3240(3) 0.7768(3)
N4_3 N 0.3492(4) 0.3240(4) 0.7790(4)
C16_3 C 0.3781(5) 0.3620(5) 0.7472(5)
H13_3 H 0.3578 0.3876 0.7239
C17_3 C 0.4359(5) 0.3641(5) 0.7480(5)
H14_3 H 0.4549 0.3907 0.7249
C18_3 C 0.4684(4) 0.3267(4) 0.7834(4)
C19_3 C 0.4369(4) 0.2898(5) 0.8172(4)
H15_3 H 0.4564 0.2649 0.8418
C20_3 C 0.3760(4) 0.2881(5) 0.8161(4)
H16_3 H 0.3554 0.2633 0.8399
O5_3 O 0.7768(3) 0.2919(3) 0.6760(3)
N5_3 N 0.7790(4) 0.3492(4) 0.6760(4)
C21_3 C 0.7472(5) 0.3781(5) 0.6380(5)
H17_3 H 0.7239 0.3578 0.6124
C22_3 C 0.7480(5) 0.4359(5) 0.6359(5)
H18_3 H 0.7249 0.4549 0.6093
C23_3 C 0.7834(4) 0.4684(4) 0.6733(4)
C24_3 C 0.8172(4) 0.4369(4) 0.7102(5)
H19_3 H 0.8418 0.4564 0.7351
C25_3 C 0.8161(4) 0.3760(4) 0.7119(5)
H20_3 H 0.8399 0.3554 0.7367
O6_3 O 0.7768(3) 0.7081(3) 0.6760(3)
N6_3 N 0.7790(4) 0.6508(4) 0.6760(4)
C26_3 C 0.7472(5) 0.6219(5) 0.6380(5)
H21_3 H 0.7239 0.6422 0.6124
C27_3 C 0.7480(5) 0.5641(5) 0.6359(5)
H22_3 H 0.7249 0.5451 0.6093
C28_3 C 0.7834(4) 0.5316(4) 0.6733(4)
C29_3 C 0.8172(4) 0.5631(4) 0.7102(5)
H23_3 H 0.8418 0.5436 0.7351
C30_3 C 0.8161(4) 0.6240(4) 0.7119(5)
H24_3 H 0.8399 0.6446 0.7367
O7_3 O 0.8240(3) 0.2768(3) 0.7919(3)
O8_3 O 0.7919(3) 0.1760(3) 0.7232(3)
O9_3 O 0.7232(3) 0.2081(3) 0.8240(3)
Cu1_4 Cu 0.2500 0.7500 0.7500
O1_4 O 0.3240(3) 0.7768(3) 0.7081(3)
N1_4 N 0.3240(4) 0.7790(4) 0.6508(4)
C1_4 C 0.3620(5) 0.7472(5) 0.6219(5)
H1_4 H 0.3876 0.7239 0.6422
C2_4 C 0.3641(5) 0.7480(5) 0.5641(5)
H2_4 H 0.3907 0.7249 0.5451
C3_4 C 0.3267(4) 0.7834(4) 0.5316(4)
C4_4 C 0.2898(5) 0.8172(4) 0.5631(4)
H3_4 H 0.2649 0.8418 0.5436
C5_4 C 0.2881(5) 0.8161(4) 0.6240(4)
H4_4 H 0.2633 0.8399 0.6446
O2_4 O 0.3240(3) 0.7768(3) 0.2919(3)
N2_4 N 0.3240(4) 0.7790(4) 0.3492(4)
C6_4 C 0.3620(5) 0.7472(5) 0.3781(5)
H5_4 H 0.3876 0.7239 0.3578
C7_4 C 0.3641(5) 0.7480(5) 0.4359(5)
H6_4 H 0.3907 0.7249 0.4549
C8_4 C 0.3267(4) 0.7834(4) 0.4684(4)
C9_4 C 0.2898(5) 0.8172(4) 0.4369(4)
H7_4 H 0.2649 0.8418 0.4564
C10_4 C 0.2881(5) 0.8161(4) 0.3760(4)
H8_4 H 0.2633 0.8399 0.3554
O3_4 O 0.2919(3) 0.6760(3) 0.7768(3)
N3_4 N 0.3492(4) 0.6760(4) 0.7790(4)
C11_4 C 0.3781(5) 0.6380(5) 0.7472(5)
H9_4 H 0.3578 0.6124 0.7239
C12_4 C 0.4359(5) 0.6359(5) 0.7480(5)
H10_4 H 0.4549 0.6093 0.7249
C13_4 C 0.4684(4) 0.6733(4) 0.7834(4)
C14_4 C 0.4369(4) 0.7102(5) 0.8172(4)
H11_4 H 0.4564 0.7351 0.8418
C15_4 C 0.3760(4) 0.7119(5) 0.8161(4)
H12_4 H 0.3554 0.7367 0.8399
O4_4 O 0.7081(3) 0.6760(3) 0.7768(3)
N4_4 N 0.6508(4) 0.6760(4) 0.7790(4)
C16_4 C 0.6219(5) 0.6380(5) 0.7472(5)
H13_4 H 0.6422 0.6124 0.7239
C17_4 C 0.5641(5) 0.6359(5) 0.7480(5)
H14_4 H 0.5451 0.6093 0.7249
C18_4 C 0.5316(4) 0.6733(4) 0.7834(4)
C19_4 C 0.5631(4) 0.7102(5) 0.8172(4)
H15_4 H 0.5436 0.7351 0.8418
C20_4 C 0.6240(4) 0.7119(5) 0.8161(4)
H16_4 H 0.6446 0.7367 0.8399
O5_4 O 0.2232(3) 0.7081(3) 0.6760(3)
N5_4 N 0.2210(4) 0.6508(4) 0.6760(4)
C21_4 C 0.2528(5) 0.6219(5) 0.6380(5)
H17_4 H 0.2761 0.6422 0.6124
C22_4 C 0.2520(5) 0.5641(5) 0.6359(5)
H18_4 H 0.2751 0.5451 0.6093
C23_4 C 0.2166(4) 0.5316(4) 0.6733(4)
C24_4 C 0.1828(4) 0.5631(4) 0.7102(5)
H19_4 H 0.1582 0.5436 0.7351
C25_4 C 0.1839(4) 0.6240(4) 0.7119(5)
H20_4 H 0.1601 0.6446 0.7367
O6_4 O 0.2232(3) 0.2919(3) 0.6760(3)
N6_4 N 0.2210(4) 0.3492(4) 0.6760(4)
C26_4 C 0.2528(5) 0.3781(5) 0.6380(5)
H21_4 H 0.2761 0.3578 0.6124
C27_4 C 0.2520(5) 0.4359(5) 0.6359(5)
H22_4 H 0.2751 0.4549 0.6093
C28_4 C 0.2166(4) 0.4684(4) 0.6733(4)
C29_4 C 0.1828(4) 0.4369(4) 0.7102(5)
H23_4 H 0.1582 0.4564 0.7351
C30_4 C 0.1839(4) 0.3760(4) 0.7119(5)
H24_4 H 0.1601 0.3554 0.7367
O7_4 O 0.1760(3) 0.7232(3) 0.7919(3)
O8_4 O 0.2081(3) 0.8240(3) 0.7232(3)
O9_4 O 0.2768(3) 0.7919(3) 0.8240(3)
N4_5 N 0.1508(4) 0.8240(4) 0.7210(4)
C16_5 C 0.1219(5) 0.8620(5) 0.7528(5)
H13_5 H 0.1422 0.8876 0.7761
C17_5 C 0.0641(5) 0.8641(5) 0.7520(5)
H14_5 H 0.0451 0.8907 0.7751
C18_5 C 0.0316(4) 0.8267(4) 0.7166(4)
C19_5 C 0.0631(4) 0.7898(5) 0.6828(4)
H15_5 H 0.0436 0.7649 0.6582
C20_5 C 0.1240(4) 0.7881(5) 0.6839(4)
H16_5 H 0.1446 0.7633 0.6601
N6_5 N 0.7210(4) 0.1508(4) 0.8240(4)
C26_5 C 0.7528(5) 0.1219(5) 0.8620(5)
H21_5 H 0.7761 0.1422 0.8876
C27_5 C 0.7520(5) 0.0641(5) 0.8641(5)
H22_5 H 0.7751 0.0451 0.8907
C28_5 C 0.7166(4) 0.0316(4) 0.8267(4)
C29_5 C 0.6828(4) 0.0631(4) 0.7898(5)
H23_5 H 0.6582 0.0436 0.7649
C30_5 C 0.6839(4) 0.1240(4) 0.7881(5)
H24_5 H 0.6601 0.1446 0.7633
N2_5 N 0.8240(4) 0.7210(4) 0.1508(4)
C6_5 C 0.8620(5) 0.7528(5) 0.1219(5)
H5_5 H 0.8876 0.7761 0.1422
C7_5 C 0.8641(5) 0.7520(5) 0.0641(5)
H6_5 H 0.8907 0.7751 0.0451
C8_5 C 0.8267(4) 0.7166(4) 0.0316(4)
C9_5 C 0.7898(5) 0.6828(4) 0.0631(4)
H7_5 H 0.7649 0.6582 0.0436
C10_5 C 0.7881(5) 0.6839(4) 0.1240(4)
H8_5 H 0.7633 0.6601 0.1446
O1_5 O 0.8240(3) 0.7232(3) 0.7919(3)
N1_5 N 0.8240(4) 0.7210(4) 0.8492(4)
C1_5 C 0.8620(5) 0.7528(5) 0.8781(5)
H1_5 H 0.8876 0.7761 0.8578
C2_5 C 0.8641(5) 0.7520(5) 0.9359(5)
H2_5 H 0.8907 0.7751 0.9549
C3_5 C 0.8267(4) 0.7166(4) 0.9684(4)
C4_5 C 0.7898(5) 0.6828(4) 0.9369(4)
H3_5 H 0.7649 0.6582 0.9564
C5_5 C 0.7881(5) 0.6839(4) 0.8760(4)
H4_5 H 0.7633 0.6601 0.8554
O3_5 O 0.7919(3) 0.8240(3) 0.7232(3)
N3_5 N 0.8492(4) 0.8240(4) 0.7210(4)
C11_5 C 0.8781(5) 0.8620(5) 0.7528(5)
H9_5 H 0.8578 0.8876 0.7761
C12_5 C 0.9359(5) 0.8641(5) 0.7520(5)
H10_5 H 0.9549 0.8907 0.7751
C13_5 C 0.9684(4) 0.8267(4) 0.7166(4)
C14_5 C 0.9369(4) 0.7898(5) 0.6828(4)
H11_5 H 0.9564 0.7649 0.6582
C15_5 C 0.8760(4) 0.7881(5) 0.6839(4)
H12_5 H 0.8554 0.7633 0.6601
O5_5 O 0.7232(3) 0.7919(3) 0.8240(3)
N5_5 N 0.7210(4) 0.8492(4) 0.8240(4)
C21_5 C 0.7528(5) 0.8781(5) 0.8620(5)
H17_5 H 0.7761 0.8578 0.8876
C22_5 C 0.7520(5) 0.9359(5) 0.8641(5)
H18_5 H 0.7751 0.9549 0.8907
C23_5 C 0.7166(4) 0.9684(4) 0.8267(4)
C24_5 C 0.6828(4) 0.9369(4) 0.7898(5)
H19_5 H 0.6582 0.9564 0.7649
C25_5 C 0.6839(4) 0.8760(4) 0.7881(5)
H20_5 H 0.6601 0.8554 0.7633
N2_6 N 0.1760(4) 0.2790(4) 0.1508(4)
C6_6 C 0.1380(5) 0.2472(5) 0.1219(5)
H5_6 H 0.1124 0.2239 0.1422
C7_6 C 0.1359(5) 0.2480(5) 0.0641(5)
H6_6 H 0.1093 0.2249 0.0451
C8_6 C 0.1733(4) 0.2834(4) 0.0316(4)
C9_6 C 0.2102(5) 0.3172(4) 0.0631(4)
H7_6 H 0.2351 0.3418 0.0436
C10_6 C 0.2119(5) 0.3161(4) 0.1240(4)
H8_6 H 0.2367 0.3399 0.1446
O1_6 O 0.1760(3) 0.2768(3) 0.7919(3)
N1_6 N 0.1760(4) 0.2790(4) 0.8492(4)
C1_6 C 0.1380(5) 0.2472(5) 0.8781(5)
H1_6 H 0.1124 0.2239 0.8578
C2_6 C 0.1359(5) 0.2480(5) 0.9359(5)
H2_6 H 0.1093 0.2249 0.9549
C3_6 C 0.1733(4) 0.2834(4) 0.9684(4)
C4_6 C 0.2102(5) 0.3172(4) 0.9369(4)
H3_6 H 0.2351 0.3418 0.9564
C5_6 C 0.2119(5) 0.3161(4) 0.8760(4)
H4_6 H 0.2367 0.3399 0.8554
O3_6 O 0.2081(3) 0.1760(3) 0.7232(3)
N3_6 N 0.1508(4) 0.1760(4) 0.7210(4)
C11_6 C 0.1219(5) 0.1380(5) 0.7528(5)
H9_6 H 0.1422 0.1124 0.7761
C12_6 C 0.0641(5) 0.1359(5) 0.7520(5)
H10_6 H 0.0451 0.1093 0.7751
C13_6 C 0.0316(4) 0.1733(4) 0.7166(4)
C14_6 C 0.0631(4) 0.2102(5) 0.6828(4)
H11_6 H 0.0436 0.2351 0.6582
C15_6 C 0.1240(4) 0.2119(5) 0.6839(4)
H12_6 H 0.1446 0.2367 0.6601
O5_6 O 0.2768(3) 0.2081(3) 0.8240(3)
N5_6 N 0.2790(4) 0.1508(4) 0.8240(4)
C21_6 C 0.2472(5) 0.1219(5) 0.8620(5)
H17_6 H 0.2239 0.1422 0.8876
C22_6 C 0.2480(5) 0.0641(5) 0.8641(5)
H18_6 H 0.2249 0.0451 0.8907
C23_6 C 0.2834(4) 0.0316(4) 0.8267(4)
C24_6 C 0.3172(4) 0.0631(4) 0.7898(5)
H19_6 H 0.3418 0.0436 0.7649
C25_6 C 0.3161(4) 0.1240(4) 0.7881(5)
H20_6 H 0.3399 0.1446 0.7633
N6_6 N 0.2790(4) 0.8492(4) 0.8240(4)
C26_6 C 0.2472(5) 0.8781(5) 0.8620(5)
H21_6 H 0.2239 0.8578 0.8876
C27_6 C 0.2480(5) 0.9359(5) 0.8641(5)
H22_6 H 0.2249 0.9549 0.8907
C28_6 C 0.2834(4) 0.9684(4) 0.8267(4)
C29_6 C 0.3172(4) 0.9369(4) 0.7898(5)
H23_6 H 0.3418 0.9564 0.7649
C30_6 C 0.3161(4) 0.8760(4) 0.7881(5)
H24_6 H 0.3399 0.8554 0.7633
N4_6 N 0.8492(4) 0.1760(4) 0.7210(4)
C16_6 C 0.8781(5) 0.1380(5) 0.7528(5)
H13_6 H 0.8578 0.1124 0.7761
C17_6 C 0.9359(5) 0.1359(5) 0.7520(5)
H14_6 H 0.9549 0.1093 0.7751
C18_6 C 0.9684(4) 0.1733(4) 0.7166(4)
C19_6 C 0.9369(4) 0.2102(5) 0.6828(4)
H15_6 H 0.9564 0.2351 0.6582
C20_6 C 0.8760(4) 0.2119(5) 0.6839(4)
H16_6 H 0.8554 0.2367 0.6601
N6_7 N 0.2790(4) 0.1508(4) 0.1760(4)
C26_7 C 0.2472(5) 0.1219(5) 0.1380(5)
H21_7 H 0.2239 0.1422 0.1124
C27_7 C 0.2480(5) 0.0641(5) 0.1359(5)
H22_7 H 0.2249 0.0451 0.1093
C28_7 C 0.2834(4) 0.0316(4) 0.1733(4)
C29_7 C 0.3172(4) 0.0631(4) 0.2102(5)
H23_7 H 0.3418 0.0436 0.2351
C30_7 C 0.3161(4) 0.1240(4) 0.2119(5)
H24_7 H 0.3399 0.1446 0.2367
O1_7 O 0.1760(3) 0.7232(3) 0.2081(3)
N1_7 N 0.1760(4) 0.7210(4) 0.1508(4)
C1_7 C 0.1380(5) 0.7528(5) 0.1219(5)
H1_7 H 0.1124 0.7761 0.1422
C2_7 C 0.1359(5) 0.7520(5) 0.0641(5)
H2_7 H 0.1093 0.7751 0.0451
C3_7 C 0.1733(4) 0.7166(4) 0.0316(4)
C4_7 C 0.2102(5) 0.6828(4) 0.0631(4)
H3_7 H 0.2351 0.6582 0.0436
C5_7 C 0.2119(5) 0.6839(4) 0.1240(4)
H4_7 H 0.2367 0.6601 0.1446
O3_7 O 0.2081(3) 0.8240(3) 0.2768(3)
N3_7 N 0.1508(4) 0.8240(4) 0.2790(4)
C11_7 C 0.1219(5) 0.8620(5) 0.2472(5)
H9_7 H 0.1422 0.8876 0.2239
C12_7 C 0.0641(5) 0.8641(5) 0.2480(5)
H10_7 H 0.0451 0.8907 0.2249
C13_7 C 0.0316(4) 0.8267(4) 0.2834(4)
C14_7 C 0.0631(4) 0.7898(5) 0.3172(4)
H11_7 H 0.0436 0.7649 0.3418
C15_7 C 0.1240(4) 0.7881(5) 0.3161(4)
H12_7 H 0.1446 0.7633 0.3399
O5_7 O 0.2768(3) 0.7919(3) 0.1760(3)
N5_7 N 0.2790(4) 0.8492(4) 0.1760(4)
C21_7 C 0.2472(5) 0.8781(5) 0.1380(5)
H17_7 H 0.2239 0.8578 0.1124
C22_7 C 0.2480(5) 0.9359(5) 0.1359(5)
H18_7 H 0.2249 0.9549 0.1093
C23_7 C 0.2834(4) 0.9684(4) 0.1733(4)
C24_7 C 0.3172(4) 0.9369(4) 0.2102(5)
H19_7 H 0.3418 0.9564 0.2351
C25_7 C 0.3161(4) 0.8760(4) 0.2119(5)
H20_7 H 0.3399 0.8554 0.2367
N2_7 N 0.1760(4) 0.7210(4) 0.8492(4)
C6_7 C 0.1380(5) 0.7528(5) 0.8781(5)
H5_7 H 0.1124 0.7761 0.8578
C7_7 C 0.1359(5) 0.7520(5) 0.9359(5)
H6_7 H 0.1093 0.7751 0.9549
C8_7 C 0.1733(4) 0.7166(4) 0.9684(4)
C9_7 C 0.2102(5) 0.6828(4) 0.9369(4)
H7_7 H 0.2351 0.6582 0.9564
C10_7 C 0.2119(5) 0.6839(4) 0.8760(4)
H8_7 H 0.2367 0.6601 0.8554
N4_7 N 0.8492(4) 0.8240(4) 0.2790(4)
C16_7 C 0.8781(5) 0.8620(5) 0.2472(5)
H13_7 H 0.8578 0.8876 0.2239
C17_7 C 0.9359(5) 0.8641(5) 0.2480(5)
H14_7 H 0.9549 0.8907 0.2249
C18_7 C 0.9684(4) 0.8267(4) 0.2834(4)
C19_7 C 0.9369(4) 0.7898(5) 0.3172(4)
H15_7 H 0.9564 0.7649 0.3418
C20_7 C 0.8760(4) 0.7881(5) 0.3161(4)
H16_7 H 0.8554 0.7633 0.3399
N4_8 N 0.1508(4) 0.1760(4) 0.2790(4)
C16_8 C 0.1219(5) 0.1380(5) 0.2472(5)
H13_8 H 0.1422 0.1124 0.2239
C17_8 C 0.0641(5) 0.1359(5) 0.2480(5)
H14_8 H 0.0451 0.1093 0.2249
C18_8 C 0.0316(4) 0.1733(4) 0.2834(4)
C19_8 C 0.0631(4) 0.2102(5) 0.3172(4)
H15_8 H 0.0436 0.2351 0.3418
C20_8 C 0.1240(4) 0.2119(5) 0.3161(4)
H16_8 H 0.1446 0.2367 0.3399
O1_8 O 0.8240(3) 0.2768(3) 0.2081(3)
N1_8 N 0.8240(4) 0.2790(4) 0.1508(4)
C1_8 C 0.8620(5) 0.2472(5) 0.1219(5)
H1_8 H 0.8876 0.2239 0.1422
C2_8 C 0.8641(5) 0.2480(5) 0.0641(5)
H2_8 H 0.8907 0.2249 0.0451
C3_8 C 0.8267(4) 0.2834(4) 0.0316(4)
C4_8 C 0.7898(5) 0.3172(4) 0.0631(4)
H3_8 H 0.7649 0.3418 0.0436
C5_8 C 0.7881(5) 0.3161(4) 0.1240(4)
H4_8 H 0.7633 0.3399 0.1446
O3_8 O 0.7919(3) 0.1760(3) 0.2768(3)
N3_8 N 0.8492(4) 0.1760(4) 0.2790(4)
C11_8 C 0.8781(5) 0.1380(5) 0.2472(5)
H9_8 H 0.8578 0.1124 0.2239
C12_8 C 0.9359(5) 0.1359(5) 0.2480(5)
H10_8 H 0.9549 0.1093 0.2249
C13_8 C 0.9684(4) 0.1733(4) 0.2834(4)
C14_8 C 0.9369(4) 0.2102(5) 0.3172(4)
H11_8 H 0.9564 0.2351 0.3418
C15_8 C 0.8760(4) 0.2119(5) 0.3161(4)
H12_8 H 0.8554 0.2367 0.3399
O5_8 O 0.7232(3) 0.2081(3) 0.1760(3)
N5_8 N 0.7210(4) 0.1508(4) 0.1760(4)
C21_8 C 0.7528(5) 0.1219(5) 0.1380(5)
H17_8 H 0.7761 0.1422 0.1124
C22_8 C 0.7520(5) 0.0641(5) 0.1359(5)
H18_8 H 0.7751 0.0451 0.1093
C23_8 C 0.7166(4) 0.0316(4) 0.1733(4)
C24_8 C 0.6828(4) 0.0631(4) 0.2102(5)
H19_8 H 0.6582 0.0436 0.2351
C25_8 C 0.6839(4) 0.1240(4) 0.2119(5)
H20_8 H 0.6601 0.1446 0.2367
N2_8 N 0.8240(4) 0.2790(4) 0.8492(4)
C6_8 C 0.8620(5) 0.2472(5) 0.8781(5)
H5_8 H 0.8876 0.2239 0.8578
C7_8 C 0.8641(5) 0.2480(5) 0.9359(5)
H6_8 H 0.8907 0.2249 0.9549
C8_8 C 0.8267(4) 0.2834(4) 0.9684(4)
C9_8 C 0.7898(5) 0.3172(4) 0.9369(4)
H7_8 H 0.7649 0.3418 0.9564
C10_8 C 0.7881(5) 0.3161(4) 0.8760(4)
H8_8 H 0.7633 0.3399 0.8554
N6_8 N 0.7210(4) 0.8492(4) 0.1760(4)
C26_8 C 0.7528(5) 0.8781(5) 0.1380(5)
H21_8 H 0.7761 0.8578 0.1124
C27_8 C 0.7520(5) 0.9359(5) 0.1359(5)
H22_8 H 0.7751 0.9549 0.1093
C28_8 C 0.7166(4) 0.9684(4) 0.1733(4)
C29_8 C 0.6828(4) 0.9369(4) 0.2102(5)
H23_8 H 0.6582 0.9564 0.2351
C30_8 C 0.6839(4) 0.8760(4) 0.2119(5)
H24_8 H 0.6601 0.8554 0.2367
loop_
_geom_bond_atom_site_label_1
_geom_bond_atom_site_label_2
_geom_bond_site_symmetry_1
_geom_bond_site_symmetry_2
Cu1 O1 1_555 1_555
O1 N1 1_555 1_555
N1 C1 1_555 1_555
C1 H1 1_555 1_555
C2 C1 1_555 1_555
H2 C2 1_555 1_555
C3 C2 1_555 1_555
C4 C3 1_555 1_555
H3 C4 1_555 1_555
C5 N1 1_555 1_555
H4 C5 1_555 1_555
O2 N2 1_555 1_555
N2 C6 1_555 1_555
C6 H5 1_555 1_555
C7 C6 1_555 1_555
H6 C7 1_555 1_555
C8 C3 1_555 1_555
C9 C8 1_555 1_555
H7 C9 1_555 1_555
C10 N2 1_555 1_555
H8 C10 1_555 1_555
O3 Cu1 1_555 1_555
N3 O3 1_555 1_555
C11 N3 1_555 1_555
H9 C11 1_555 1_555
C12 C11 1_555 1_555
H10 C12 1_555 1_555
C13 C12 1_555 1_555
C14 C13 1_555 1_555
H11 C14 1_555 1_555
C15 N3 1_555 1_555
H12 C15 1_555 1_555
O4 N4 1_555 1_555
N4 C16 1_555 1_555
C16 H13 1_555 1_555
C17 C16 1_555 1_555
H14 C17 1_555 1_555
C18 C13 1_555 1_555
C19 C18 1_555 1_555
H15 C19 1_555 1_555
C20 N4 1_555 1_555
H16 C20 1_555 1_555
O5 Cu1 1_555 1_555
N5 O5 1_555 1_555
C21 N5 1_555 1_555
H17 C21 1_555 1_555
C22 C21 1_555 1_555
H18 C22 1_555 1_555
C23 C22 1_555 1_555
C24 C23 1_555 1_555
H19 C24 1_555 1_555
C25 N5 1_555 1_555
H20 C25 1_555 1_555
O6 N6 1_555 1_555
N6 C26 1_555 1_555
C26 H21 1_555 1_555
C27 C26 1_555 1_555
H22 C27 1_555 1_555
C28 C23 1_555 1_555
C29 C28 1_555 1_555
H23 C29 1_555 1_555
C30 N6 1_555 1_555
H24 C30 1_555 1_555
Cu2 O2 1_555 1_555
Cu3 O6 1_555 1_555
Cu4 O4 1_555 1_555
O7 Cu1 1_555 1_555
O8 Cu1 1_555 1_555
O9 Cu1 1_555 1_555
C4 C5 1_555 1_555
C7 C8 1_555 1_555
C9 C10 1_555 1_555
C14 C15 1_555 1_555
C17 C18 1_555 1_555
C19 C20 1_555 1_555
C24 C25 1_555 1_555
C27 C28 1_555 1_555
C29 C30 1_555 1_555
Cu1_2 O1_2 1_555 1_555
O1_2 N1_2 1_555 1_555
N1_2 C1_2 1_555 1_555
C1_2 H1_2 1_555 1_555
C2_2 C1_2 1_555 1_555
H2_2 C2_2 1_555 1_555
C3_2 C2_2 1_555 1_555
C4_2 C3_2 1_555 1_555
H3_2 C4_2 1_555 1_555
C5_2 N1_2 1_555 1_555
H4_2 C5_2 1_555 1_555
O2_2 N2_2 1_555 1_555
N2_2 C6_2 1_555 1_555
C6_2 H5_2 1_555 1_555
C7_2 C6_2 1_555 1_555
H6_2 C7_2 1_555 1_555
C8_2 C3_2 1_555 1_555
C9_2 C8_2 1_555 1_555
H7_2 C9_2 1_555 1_555
C10_2 N2_2 1_555 1_555
H8_2 C10_2 1_555 1_555
O3_2 Cu1_2 1_555 1_555
N3_2 O3_2 1_555 1_555
C11_2 N3_2 1_555 1_555
H9_2 C11_2 1_555 1_555
C12_2 C11_2 1_555 1_555
H10_2 C12_2 1_555 1_555
C13_2 C12_2 1_555 1_555
C14_2 C13_2 1_555 1_555
H11_2 C14_2 1_555 1_555
C15_2 N3_2 1_555 1_555
H12_2 C15_2 1_555 1_555
O4_2 N4_2 1_555 1_555
N4_2 C16_2 1_555 1_555
C16_2 H13_2 1_555 1_555
C17_2 C16_2 1_555 1_555
H14_2 C17_2 1_555 1_555
C18_2 C13_2 1_555 1_555
C19_2 C18_2 1_555 1_555
H15_2 C19_2 1_555 1_555
C20_2 N4_2 1_555 1_555
H16_2 C20_2 1_555 1_555
O5_2 Cu1_2 1_555 1_555
N5_2 O5_2 1_555 1_555
C21_2 N5_2 1_555 1_555
H17_2 C21_2 1_555 1_555
C22_2 C21_2 1_555 1_555
H18_2 C22_2 1_555 1_555
C23_2 C22_2 1_555 1_555
C24_2 C23_2 1_555 1_555
H19_2 C24_2 1_555 1_555
C25_2 N5_2 1_555 1_555
H20_2 C25_2 1_555 1_555
O6_2 N6_2 1_555 1_555
N6_2 C26_2 1_555 1_555
C26_2 H21_2 1_555 1_555
C27_2 C26_2 1_555 1_555
H22_2 C27_2 1_555 1_555
C28_2 C23_2 1_555 1_555
C29_2 C28_2 1_555 1_555
H23_2 C29_2 1_555 1_555
C30_2 N6_2 1_555 1_555
H24_2 C30_2 1_555 1_555
Cu2_2 O2_2 1_555 1_555
Cu4 O6_2 1_555 1_555
Cu3 O4_2 1_555 1_555
O7_2 Cu1_2 1_555 1_555
O8_2 Cu1_2 1_555 1_555
O9_2 Cu1_2 1_555 1_555
C4_2 C5_2 1_555 1_555
C7_2 C8_2 1_555 1_555
C9_2 C10_2 1_555 1_555
C14_2 C15_2 1_555 1_555
C17_2 C18_2 1_555 1_555
C19_2 C20_2 1_555 1_555
C24_2 C25_2 1_555 1_555
C27_2 C28_2 1_555 1_555
C29_2 C30_2 1_555 1_555
Cu1_3 O1_3 1_555 1_555
O1_3 N1_3 1_555 1_555
N1_3 C1_3 1_555 1_555
C1_3 H1_3 1_555 1_555
C2_3 C1_3 1_555 1_555
H2_3 C2_3 1_555 1_555
C3_3 C2_3 1_555 1_555
C4_3 C3_3 1_555 1_555
H3_3 C4_3 1_555 1_555
C5_3 N1_3 1_555 1_555
H4_3 C5_3 1_555 1_555
O2_3 N2_3 1_555 1_555
N2_3 C6_3 1_555 1_555
C6_3 H5_3 1_555 1_555
C7_3 C6_3 1_555 1_555
H6_3 C7_3 1_555 1_555
C8_3 C3_3 1_555 1_555
C9_3 C8_3 1_555 1_555
H7_3 C9_3 1_555 1_555
C10_3 N2_3 1_555 1_555
H8_3 C10_3 1_555 1_555
O3_3 Cu1_3 1_555 1_555
N3_3 O3_3 1_555 1_555
C11_3 N3_3 1_555 1_555
H9_3 C11_3 1_555 1_555
C12_3 C11_3 1_555 1_555
H10_3 C12_3 1_555 1_555
C13_3 C12_3 1_555 1_555
C14_3 C13_3 1_555 1_555
H11_3 C14_3 1_555 1_555
C15_3 N3_3 1_555 1_555
H12_3 C15_3 1_555 1_555
O4_3 N4_3 1_555 1_555
N4_3 C16_3 1_555 1_555
C16_3 H13_3 1_555 1_555
C17_3 C16_3 1_555 1_555
H14_3 C17_3 1_555 1_555
C18_3 C13_3 1_555 1_555
C19_3 C18_3 1_555 1_555
H15_3 C19_3 1_555 1_555
C20_3 N4_3 1_555 1_555
H16_3 C20_3 1_555 1_555
O5_3 Cu1_3 1_555 1_555
N5_3 O5_3 1_555 1_555
C21_3 N5_3 1_555 1_555
H17_3 C21_3 1_555 1_555
C22_3 C21_3 1_555 1_555
H18_3 C22_3 1_555 1_555
C23_3 C22_3 1_555 1_555
C24_3 C23_3 1_555 1_555
H19_3 C24_3 1_555 1_555
C25_3 N5_3 1_555 1_555
H20_3 C25_3 1_555 1_555
O6_3 N6_3 1_555 1_555
N6_3 C26_3 1_555 1_555
C26_3 H21_3 1_555 1_555
C27_3 C26_3 1_555 1_555
H22_3 C27_3 1_555 1_555
C28_3 C23_3 1_555 1_555
C29_3 C28_3 1_555 1_555
H23_3 C29_3 1_555 1_555
C30_3 N6_3 1_555 1_555
H24_3 C30_3 1_555 1_555
Cu4 O2_3 1_555 1_555
Cu2_2 O6_3 1_555 1_555
Cu2 O4_3 1_555 1_555
O7_3 Cu1_3 1_555 1_555
O8_3 Cu1_3 1_555 1_555
O9_3 Cu1_3 1_555 1_555
C4_3 C5_3 1_555 1_555
C7_3 C8_3 1_555 1_555
C9_3 C10_3 1_555 1_555
C14_3 C15_3 1_555 1_555
C17_3 C18_3 1_555 1_555
C19_3 C20_3 1_555 1_555
C24_3 C25_3 1_555 1_555
C27_3 C28_3 1_555 1_555
C29_3 C30_3 1_555 1_555
Cu1_4 O1_4 1_555 1_555
O1_4 N1_4 1_555 1_555
N1_4 C1_4 1_555 1_555
C1_4 H1_4 1_555 1_555
C2_4 C1_4 1_555 1_555
H2_4 C2_4 1_555 1_555
C3_4 C2_4 1_555 1_555
C4_4 C3_4 1_555 1_555
H3_4 C4_4 1_555 1_555
C5_4 N1_4 1_555 1_555
H4_4 C5_4 1_555 1_555
O2_4 N2_4 1_555 1_555
N2_4 C6_4 1_555 1_555
C6_4 H5_4 1_555 1_555
C7_4 C6_4 1_555 1_555
H6_4 C7_4 1_555 1_555
C8_4 C3_4 1_555 1_555
C9_4 C8_4 1_555 1_555
H7_4 C9_4 1_555 1_555
C10_4 N2_4 1_555 1_555
H8_4 C10_4 1_555 1_555
O3_4 Cu1_4 1_555 1_555
N3_4 O3_4 1_555 1_555
C11_4 N3_4 1_555 1_555
H9_4 C11_4 1_555 1_555
C12_4 C11_4 1_555 1_555
H10_4 C12_4 1_555 1_555
C13_4 C12_4 1_555 1_555
C14_4 C13_4 1_555 1_555
H11_4 C14_4 1_555 1_555
C15_4 N3_4 1_555 1_555
H12_4 C15_4 1_555 1_555
O4_4 N4_4 1_555 1_555
N4_4 C16_4 1_555 1_555
C16_4 H13_4 1_555 1_555
C17_4 C16_4 1_555 1_555
H14_4 C17_4 1_555 1_555
C18_4 C13_4 1_555 1_555
C19_4 C18_4 1_555 1_555
H15_4 C19_4 1_555 1_555
C20_4 N4_4 1_555 1_555
H16_4 C20_4 1_555 1_555
O5_4 Cu1_4 1_555 1_555
N5_4 O5_4 1_555 1_555
C21_4 N5_4 1_555 1_555
H17_4 C21_4 1_555 1_555
C22_4 C21_4 1_555 1_555
H18_4 C22_4 1_555 1_555
C23_4 C22_4 1_555 1_555
C24_4 C23_4 1_555 1_555
H19_4 C24_4 1_555 1_555
C25_4 N5_4 1_555 1_555
H20_4 C25_4 1_555 1_555
O6_4 N6_4 1_555 1_555
N6_4 C26_4 1_555 1_555
C26_4 H21_4 1_555 1_555
C27_4 C26_4 1_555 1_555
H22_4 C27_4 1_555 1_555
C28_4 C23_4 1_555 1_555
C29_4 C28_4 1_555 1_555
H23_4 C29_4 1_555 1_555
C30_4 N6_4 1_555 1_555
H24_4 C30_4 1_555 1_555
Cu3 O2_4 1_555 1_555
Cu2 O6_4 1_555 1_555
Cu2_2 O4_4 1_555 1_555
O7_4 Cu1_4 1_555 1_555
O8_4 Cu1_4 1_555 1_555
O9_4 Cu1_4 1_555 1_555
C4_4 C5_4 1_555 1_555
C7_4 C8_4 1_555 1_555
C9_4 C10_4 1_555 1_555
C14_4 C15_4 1_555 1_555
C17_4 C18_4 1_555 1_555
C19_4 C20_4 1_555 1_555
C24_4 C25_4 1_555 1_555
C27_4 C28_4 1_555 1_555
C29_4 C30_4 1_555 1_555
O8_4 N4_5 1_555 1_555
N4_5 C16_5 1_555 1_555
C16_5 H13_5 1_555 1_555
C17_5 C16_5 1_555 1_555
H14_5 C17_5 1_555 1_555
C19_5 C18_5 1_555 1_555
H15_5 C19_5 1_555 1_555
C20_5 N4_5 1_555 1_555
H16_5 C20_5 1_555 1_555
C17_5 C18_5 1_555 1_555
C19_5 C20_5 1_555 1_555
O9_3 N6_5 1_555 1_555
N6_5 C26_5 1_555 1_555
C26_5 H21_5 1_555 1_555
C27_5 C26_5 1_555 1_555
H22_5 C27_5 1_555 1_555
C29_5 C28_5 1_555 1_555
H23_5 C29_5 1_555 1_555
C30_5 N6_5 1_555 1_555
H24_5 C30_5 1_555 1_555
C27_5 C28_5 1_555 1_555
C29_5 C30_5 1_555 1_555
O7_2 N2_5 1_555 1_555
N2_5 C6_5 1_555 1_555
C6_5 H5_5 1_555 1_555
C7_5 C6_5 1_555 1_555
H6_5 C7_5 1_555 1_555
C9_5 C8_5 1_555 1_555
H7_5 C9_5 1_555 1_555
C10_5 N2_5 1_555 1_555
H8_5 C10_5 1_555 1_555
C7_5 C8_5 1_555 1_555
C9_5 C10_5 1_555 1_555
Cu2_2 O1_5 1_555 1_555
O1_5 N1_5 1_555 1_555
N1_5 C1_5 1_555 1_555
C1_5 H1_5 1_555 1_555
C2_5 C1_5 1_555 1_555
H2_5 C2_5 1_555 1_555
C3_5 C2_5 1_555 1_555
C4_5 C3_5 1_555 1_555
H3_5 C4_5 1_555 1_555
C5_5 N1_5 1_555 1_555
H4_5 C5_5 1_555 1_555
O3_5 Cu2_2 1_555 1_555
N3_5 O3_5 1_555 1_555
C11_5 N3_5 1_555 1_555
H9_5 C11_5 1_555 1_555
C12_5 C11_5 1_555 1_555
H10_5 C12_5 1_555 1_555
C13_5 C12_5 1_555 1_555
C14_5 C13_5 1_555 1_555
H11_5 C14_5 1_555 1_555
C15_5 N3_5 1_555 1_555
H12_5 C15_5 1_555 1_555
O5_5 Cu2_2 1_555 1_555
N5_5 O5_5 1_555 1_555
C21_5 N5_5 1_555 1_555
H17_5 C21_5 1_555 1_555
C22_5 C21_5 1_555 1_555
H18_5 C22_5 1_555 1_555
C23_5 C22_5 1_555 1_555
C24_5 C23_5 1_555 1_555
H19_5 C24_5 1_555 1_555
C25_5 N5_5 1_555 1_555
H20_5 C25_5 1_555 1_555
C4_5 C5_5 1_555 1_555
C14_5 C15_5 1_555 1_555
C24_5 C25_5 1_555 1_555
O7 N2_6 1_555 1_555
N2_6 C6_6 1_555 1_555
C6_6 H5_6 1_555 1_555
C7_6 C6_6 1_555 1_555
H6_6 C7_6 1_555 1_555
C9_6 C8_6 1_555 1_555
H7_6 C9_6 1_555 1_555
C10_6 N2_6 1_555 1_555
H8_6 C10_6 1_555 1_555
C7_6 C8_6 1_555 1_555
C9_6 C10_6 1_555 1_555
Cu2 O1_6 1_555 1_555
O1_6 N1_6 1_555 1_555
N1_6 C1_6 1_555 1_555
C1_6 H1_6 1_555 1_555
C2_6 C1_6 1_555 1_555
H2_6 C2_6 1_555 1_555
C3_6 C2_6 1_555 1_555
C4_6 C3_6 1_555 1_555
H3_6 C4_6 1_555 1_555
C5_6 N1_6 1_555 1_555
H4_6 C5_6 1_555 1_555
O3_6 Cu2 1_555 1_555
N3_6 O3_6 1_555 1_555
C11_6 N3_6 1_555 1_555
H9_6 C11_6 1_555 1_555
C12_6 C11_6 1_555 1_555
H10_6 C12_6 1_555 1_555
C13_6 C12_6 1_555 1_555
C14_6 C13_6 1_555 1_555
H11_6 C14_6 1_555 1_555
C15_6 N3_6 1_555 1_555
H12_6 C15_6 1_555 1_555
O5_6 Cu2 1_555 1_555
N5_6 O5_6 1_555 1_555
C21_6 N5_6 1_555 1_555
H17_6 C21_6 1_555 1_555
C22_6 C21_6 1_555 1_555
H18_6 C22_6 1_555 1_555
C23_6 C22_6 1_555 1_555
C24_6 C23_6 1_555 1_555
H19_6 C24_6 1_555 1_555
C25_6 N5_6 1_555 1_555
H20_6 C25_6 1_555 1_555
C4_6 C5_6 1_555 1_555
C14_6 C15_6 1_555 1_555
C24_6 C25_6 1_555 1_555
O9_4 N6_6 1_555 1_555
N6_6 C26_6 1_555 1_555
C26_6 H21_6 1_555 1_555
C27_6 C26_6 1_555 1_555
H22_6 C27_6 1_555 1_555
C29_6 C28_6 1_555 1_555
H23_6 C29_6 1_555 1_555
C30_6 N6_6 1_555 1_555
H24_6 C30_6 1_555 1_555
C27_6 C28_6 1_555 1_555
C29_6 C30_6 1_555 1_555
O8_3 N4_6 1_555 1_555
N4_6 C16_6 1_555 1_555
C16_6 H13_6 1_555 1_555
C17_6 C16_6 1_555 1_555
H14_6 C17_6 1_555 1_555
C19_6 C18_6 1_555 1_555
H15_6 C19_6 1_555 1_555
C20_6 N4_6 1_555 1_555
H16_6 C20_6 1_555 1_555
C17_6 C18_6 1_555 1_555
C19_6 C20_6 1_555 1_555
O9 N6_7 1_555 1_555
N6_7 C26_7 1_555 1_555
C26_7 H21_7 1_555 1_555
C27_7 C26_7 1_555 1_555
H22_7 C27_7 1_555 1_555
C29_7 C28_7 1_555 1_555
H23_7 C29_7 1_555 1_555
C30_7 N6_7 1_555 1_555
H24_7 C30_7 1_555 1_555
C27_7 C28_7 1_555 1_555
C29_7 C30_7 1_555 1_555
Cu3 O1_7 1_555 1_555
O1_7 N1_7 1_555 1_555
N1_7 C1_7 1_555 1_555
C1_7 H1_7 1_555 1_555
C2_7 C1_7 1_555 1_555
H2_7 C2_7 1_555 1_555
C3_7 C2_7 1_555 1_555
C4_7 C3_7 1_555 1_555
H3_7 C4_7 1_555 1_555
C5_7 N1_7 1_555 1_555
H4_7 C5_7 1_555 1_555
O3_7 Cu3 1_555 1_555
N3_7 O3_7 1_555 1_555
C11_7 N3_7 1_555 1_555
H9_7 C11_7 1_555 1_555
C12_7 C11_7 1_555 1_555
H10_7 C12_7 1_555 1_555
C13_7 C12_7 1_555 1_555
C14_7 C13_7 1_555 1_555
H11_7 C14_7 1_555 1_555
C15_7 N3_7 1_555 1_555
H12_7 C15_7 1_555 1_555
O5_7 Cu3 1_555 1_555
N5_7 O5_7 1_555 1_555
C21_7 N5_7 1_555 1_555
H17_7 C21_7 1_555 1_555
C22_7 C21_7 1_555 1_555
H18_7 C22_7 1_555 1_555
C23_7 C22_7 1_555 1_555
C24_7 C23_7 1_555 1_555
H19_7 C24_7 1_555 1_555
C25_7 N5_7 1_555 1_555
H20_7 C25_7 1_555 1_555
C4_7 C5_7 1_555 1_555
C14_7 C15_7 1_555 1_555
C24_7 C25_7 1_555 1_555
O7_4 N2_7 1_555 1_555
N2_7 C6_7 1_555 1_555
C6_7 H5_7 1_555 1_555
C7_7 C6_7 1_555 1_555
H6_7 C7_7 1_555 1_555
C9_7 C8_7 1_555 1_555
H7_7 C9_7 1_555 1_555
C10_7 N2_7 1_555 1_555
H8_7 C10_7 1_555 1_555
C7_7 C8_7 1_555 1_555
C9_7 C10_7 1_555 1_555
O8_2 N4_7 1_555 1_555
N4_7 C16_7 1_555 1_555
C16_7 H13_7 1_555 1_555
C17_7 C16_7 1_555 1_555
H14_7 C17_7 1_555 1_555
C19_7 C18_7 1_555 1_555
H15_7 C19_7 1_555 1_555
C20_7 N4_7 1_555 1_555
H16_7 C20_7 1_555 1_555
C17_7 C18_7 1_555 1_555
C19_7 C20_7 1_555 1_555
O8 N4_8 1_555 1_555
N4_8 C16_8 1_555 1_555
C16_8 H13_8 1_555 1_555
C17_8 C16_8 1_555 1_555
H14_8 C17_8 1_555 1_555
C19_8 C18_8 1_555 1_555
H15_8 C19_8 1_555 1_555
C20_8 N4_8 1_555 1_555
H16_8 C20_8 1_555 1_555
C17_8 C18_8 1_555 1_555
C19_8 C20_8 1_555 1_555
Cu4 O1_8 1_555 1_555
O1_8 N1_8 1_555 1_555
N1_8 C1_8 1_555 1_555
C1_8 H1_8 1_555 1_555
C2_8 C1_8 1_555 1_555
H2_8 C2_8 1_555 1_555
C3_8 C2_8 1_555 1_555
C4_8 C3_8 1_555 1_555
H3_8 C4_8 1_555 1_555
C5_8 N1_8 1_555 1_555
H4_8 C5_8 1_555 1_555
O3_8 Cu4 1_555 1_555
N3_8 O3_8 1_555 1_555
C11_8 N3_8 1_555 1_555
H9_8 C11_8 1_555 1_555
C12_8 C11_8 1_555 1_555
H10_8 C12_8 1_555 1_555
C13_8 C12_8 1_555 1_555
C14_8 C13_8 1_555 1_555
H11_8 C14_8 1_555 1_555
C15_8 N3_8 1_555 1_555
H12_8 C15_8 1_555 1_555
O5_8 Cu4 1_555 1_555
N5_8 O5_8 1_555 1_555
C21_8 N5_8 1_555 1_555
H17_8 C21_8 1_555 1_555
C22_8 C21_8 1_555 1_555
H18_8 C22_8 1_555 1_555
C23_8 C22_8 1_555 1_555
C24_8 C23_8 1_555 1_555
H19_8 C24_8 1_555 1_555
C25_8 N5_8 1_555 1_555
H20_8 C25_8 1_555 1_555
C4_8 C5_8 1_555 1_555
C14_8 C15_8 1_555 1_555
C24_8 C25_8 1_555 1_555
O7_3 N2_8 1_555 1_555
N2_8 C6_8 1_555 1_555
C6_8 H5_8 1_555 1_555
C7_8 C6_8 1_555 1_555
H6_8 C7_8 1_555 1_555
C9_8 C8_8 1_555 1_555
H7_8 C9_8 1_555 1_555
C10_8 N2_8 1_555 1_555
H8_8 C10_8 1_555 1_555
C7_8 C8_8 1_555 1_555
C9_8 C10_8 1_555 1_555
O9_2 N6_8 1_555 1_555
N6_8 C26_8 1_555 1_555
C26_8 H21_8 1_555 1_555
C27_8 C26_8 1_555 1_555
H22_8 C27_8 1_555 1_555
C29_8 C28_8 1_555 1_555
H23_8 C29_8 1_555 1_555
C30_8 N6_8 1_555 1_555
H24_8 C30_8 1_555 1_555
C27_8 C28_8 1_555 1_555
C29_8 C30_8 1_555 1_555

#END
