
###############################################################################
#
# This file contains modified crystal structure data generated from the
# MOF subset of the Cambridge Structural Database (CSD) v543 
# hosted by the Cambridge Crystallographic Data Centre (CCDC).
#
# This work is licensed under the Creative Commons
# Attribution-NonCommercial-ShareAlike 4.0 International License.
# To view a copy of this license, visit
# http://creativecommons.org/licenses/by-nc-sa/4.0/
# or send a letter to
# Creative Commons, PO Box 1866, Mountain View, CA 94042, USA.
#
# CIF created using the CSD Python API on 29 September 2022
# The structure has been converted into the P1 space group
# The structure has a 3D framework
# The original CSD entry RORVOM is in the trigonal crystal system
# The original CSD entry RORVOM is in a Sohncke space group
# The framework has been calculated to contain at least 10.0% void space
# The void calculation uses a probe of radius 1.32A, grid spacing 0.4
#
###############################################################################

data_RORVOM
_chemical_formula_moiety         '(C48 H36 Cu6 N18 O30)n'
_symmetry_cell_setting           triclinic
_symmetry_space_group_name_H-M   'P 1'
_symmetry_Int_Tables_number      1
_space_group_name_Hall           'P 1'
loop_
_symmetry_equiv_pos_site_id
_symmetry_equiv_pos_as_xyz
1 x,y,z
_cell_length_a                   10.7877(17)
_cell_length_b                   10.7877(17)
_cell_length_c                   17.088(3)
_cell_angle_alpha                90
_cell_angle_beta                 90
_cell_angle_gamma                120
_cell_volume                     1722.18
loop_
_atom_site_label
_atom_site_type_symbol
_atom_site_fract_x
_atom_site_fract_y
_atom_site_fract_z
C5 C 0.078(3) 0.383(3) 0.0335(15)
O4 O 0.061(6) 0.393(6) 0.101(2)
O1 O 0.005(7) 0.302(7) 0.981(3)
N1 N 0.6708(10) 0.0705(10) 0.0814(4)
O3 O 0.8016(9) 0.3383(8) 0.0012(4)
C1 C 0.6597(14) 0.1386(13) 0.1422(6)
N3 N 0.6206(13) 0.0532(13) 0.2056(5)
H1 H 0.6765 0.2320 0.1416
H3 H 0.6072 0.0754 0.2519
Cu1 Cu 0.70854(15) 0.13502(12) 0.96971(6)
O2 O 0.7225(13) 0.1842(7) 0.8560(3)
C9 C 0.6675(14) 0.0695(10) 0.8141(4)
N4 N 0.6752(12) 0.0662(8) 0.7363(4)
C10 C 0.7603(15) 0.2005(10) 0.6930(5)
C11 C 0.8193(17) 0.1676(12) 0.6163(5)
H7 H 0.8417 0.2662 0.7256
C12 C 0.6740(17) 0.2754(12) 0.6702(5)
C14 C 0.7043(16) 0.0649(12) 0.5611(5)
H8 H 0.8790 0.2569 0.5889
H9 H 0.8793 0.1280 0.6308
O10 O 0.5367(12) 0.1984(9) 0.6679(4)
O11 O 0.7451(13) 0.4072(9) 0.6553(5)
C16 C 0.6835(19) 0.0779(14) 0.4839(5)
Cu4 Cu 0.42648(19) 0.29146(15) 0.63638(6)
H12 H 0.7360 0.1579 0.4524
C2 C 0.6394(11) 0.9351(12) 0.1056(5)
C6 C 0.6056(13) 0.9221(14) 0.1828(5)
C7 C 0.6517(12) 0.8324(12) 0.0504(5)
H4 H 0.5781 0.8421 0.2143
H5 H 0.6221 0.7431 0.0778
H6 H 0.7513 0.8720 0.0359
O5 O 0.3379(10) 0.5928(9) 0.0114(5)
Cu3 Cu 0.13502(12) 0.70854(15) 0.03029(6)
N2 N 0.6090(9) 0.9338(8) 0.9304(4)
C3 C 0.5980(10) 0.9305(10) 0.8526(4)
C4 C 0.5598(11) 0.7995(10) 0.9737(5)
C8 C 0.3986(12) 0.7246(12) 0.9965(5)
H2 H 0.5755 0.7338 0.9411
O6 O 0.5383(15) 0.8158(7) 0.8107(3)
Cu2 Cu 0.57352(19) 0.86498(12) 0.69696(6)
O7 O 0.3383(8) 0.8016(9) 0.9988(4)
N5 N 0.6003(14) 0.9295(10) 0.5853(4)
O8 O 0.703(10) 0.698(7) 0.686(3)
O9 O 0.4633(12) 0.6617(8) 0.6655(4)
C13 C 0.5211(19) 0.8614(13) 0.5245(6)
C15 C 0.695(4) 0.617(3) 0.6332(15)
N6 N 0.5674(18) 0.9468(13) 0.4611(5)
H10 H 0.4445 0.7680 0.5251
O12 O 0.668(8) 0.607(6) 0.566(2)
H11 H 0.5318 0.9246 0.4148
N2_2 N 0.0662(8) 0.6752(12) 0.2637(4)
C2_2 C 0.0649(12) 0.7043(16) 0.4389(5)
C3_2 C 0.0695(10) 0.6675(14) 0.1859(4)
C4_2 C 0.2005(10) 0.7603(15) 0.3070(5)
C6_2 C 0.0779(14) 0.6835(19) 0.5161(5)
C7_2 C 0.1676(12) 0.8193(17) 0.3837(5)
C8_2 C 0.2754(12) 0.6740(17) 0.3298(5)
H2_2 H 0.2662 0.8417 0.2744
H4_2 H 0.1579 0.7360 0.5476
H5_2 H 0.2569 0.8790 0.4111
H6_2 H 0.1280 0.8793 0.3692
O5_2 O 0.4072(9) 0.7451(13) 0.3447(5)
O6_2 O 0.1842(7) 0.7225(17) 0.1440(3)
O7_2 O 0.1984(9) 0.5367(12) 0.3321(4)
Cu3_2 Cu 0.29146(15) 0.42648(19) 0.36362(6)
N5_2 N 0.0705(10) 0.6708(17) 0.9186(4)
C13_2 C 0.1386(13) 0.6597(23) 0.8578(6)
N6_2 N 0.0532(13) 0.6206(22) 0.7944(5)
H10_2 H 0.2320 0.6765 0.8584
H11_2 H 0.0754 0.6072 0.7481
Cu1_2 Cu 0.86498(12) 0.57352(19) 0.30304(6)
N1_2 N 0.9295(10) 0.6003(14) 0.4147(4)
O1_2 O 0.698(7) 0.703(10) 0.314(3)
O2_2 O 0.8158(7) 0.5383(15) 0.1893(3)
O3_2 O 0.6617(8) 0.4633(12) 0.3345(4)
C1_2 C 0.8614(13) 0.5211(19) 0.4755(6)
C5_2 C 0.617(3) 0.695(4) 0.3668(15)
N3_2 N 0.9468(13) 0.5674(18) 0.5389(5)
H1_2 H 0.7680 0.4445 0.4749
O4_2 O 0.607(6) 0.668(8) 0.434(2)
H3_2 H 0.9246 0.5318 0.5852
C9_2 C 0.9305(10) 0.5980(17) 0.1474(4)
N4_2 N 0.9338(8) 0.6090(14) 0.0696(4)
C10_2 C 0.7995(10) 0.5598(18) 0.0263(5)
H7_2 H 0.7338 0.5755 0.0589
C12_2 C 0.7246(12) 0.3986(21) 0.0035(5)
C11_2 C 0.8324(12) 0.6517(21) 0.9496(5)
C14_2 C 0.9351(12) 0.6394(20) 0.8944(5)
H8_2 H 0.7431 0.6221 0.9222
H9_2 H 0.8720 0.7513 0.9641
O11_2 O 0.5928(9) 0.3379(16) 0.9886(5)
C16_2 C 0.9221(14) 0.6056(24) 0.8172(5)
H12_2 H 0.8421 0.5781 0.7857
N1_3 N 0.3997(14) 0.3292(10) 0.7481(4)
N2_3 N 0.3248(12) 0.3910(9) 0.5971(4)
O2_3 O 0.4617(15) 0.2775(13) 0.5227(3)
C1_3 C 0.4789(19) 0.3403(14) 0.8089(6)
C2_3 C 0.2957(16) 0.3606(11) 0.7723(5)
C3_3 C 0.3325(14) 0.4020(10) 0.5193(4)
C4_3 C 0.2397(15) 0.4402(11) 0.6404(5)
N3_3 N 0.4326(18) 0.3794(13) 0.8723(5)
H1_3 H 0.5555 0.3235 0.8083
C6_3 C 0.3165(19) 0.3944(13) 0.8495(5)
C7_3 C 0.1807(17) 0.3483(12) 0.7171(5)
C8_3 C 0.3260(17) 0.6014(12) 0.6632(5)
H2_3 H 0.1583 0.4245 0.6078
H3_3 H 0.4682 0.3928 0.9186
H4_3 H 0.2640 0.4219 0.8810
H5_3 H 0.1210 0.3779 0.7445
H6_3 H 0.1207 0.2487 0.7026
O5_3 O 0.2549(13) 0.6621(10) 0.6781(5)
C9_3 C 0.4020(17) 0.3325(14) 0.4807(4)
O6_3 O 0.2775(17) 0.4617(15) 0.4773(3)
N4_3 N 0.3910(14) 0.3248(12) 0.4029(4)
C10_3 C 0.4402(18) 0.2397(15) 0.3596(5)
N5_3 N 0.3292(17) 0.3997(14) 0.2519(4)
C11_3 C 0.3483(21) 0.1807(17) 0.2829(5)
H7_3 H 0.4245 0.1583 0.3922
C12_3 C 0.6014(21) 0.3260(17) 0.3368(5)
C13_3 C 0.3403(23) 0.4789(19) 0.1911(6)
C14_3 C 0.3606(20) 0.2957(16) 0.2277(5)
H8_3 H 0.3779 0.1210 0.2555
H9_3 H 0.2487 0.1207 0.2974
O11_3 O 0.6621(16) 0.2549(13) 0.3219(5)
N6_3 N 0.3794(22) 0.4326(18) 0.1277(5)
H10_3 H 0.3235 0.5555 0.1917
C16_3 C 0.3944(24) 0.3165(19) 0.1505(5)
H11_3 H 0.3928 0.4682 0.0814
H12_3 H 0.4219 0.2640 0.1190
O8_2 O 0.302(7) 0.005(12) 0.019(3)
C15_2 C 0.383(3) 0.078(5) 0.9665(15)
O12_2 O 0.393(6) 0.061(10) 0.899(2)
O1_3 O 0.297(10) 0.995(7) 0.648(3)
C5_3 C 0.305(4) 0.922(3) 0.7002(15)
O4_3 O 0.332(8) 0.939(6) 0.768(2)
O8_3 O 0.995(12) 0.297(10) 0.352(3)
C15_3 C 0.922(5) 0.305(4) 0.2998(15)
O12_3 O 0.939(10) 0.332(8) 0.232(2)
loop_
_geom_bond_atom_site_label_1
_geom_bond_atom_site_label_2
_geom_bond_site_symmetry_1
_geom_bond_site_symmetry_2
O4 C5 1_555 1_555
N1 C1 1_555 1_555
C1 N3 1_555 1_555
H1 C1 1_555 1_555
H3 N3 1_555 1_555
O2 Cu1 1_555 1_555
C9 O2 1_555 1_555
N4 C9 1_555 1_555
C10 N4 1_555 1_555
C11 C10 1_555 1_555
H7 C10 1_555 1_555
C12 C10 1_555 1_555
H8 C11 1_555 1_555
H9 C11 1_555 1_555
O10 C12 1_555 1_555
O11 C12 1_555 1_555
C16 C14 1_555 1_555
Cu4 O10 1_555 1_555
H12 C16 1_555 1_555
C11 C14 1_555 1_555
C6 C2 1_555 1_555
C7 C2 1_555 1_555
H4 C6 1_555 1_555
H5 C7 1_555 1_555
H6 C7 1_555 1_555
C3 N2 1_555 1_555
C4 N2 1_555 1_555
C8 C4 1_555 1_555
H2 C4 1_555 1_555
O6 C3 1_555 1_555
Cu2 O6 1_555 1_555
O7 C8 1_555 1_555
N5 Cu2 1_555 1_555
O8 Cu2 1_555 1_555
O9 Cu2 1_555 1_555
C13 N5 1_555 1_555
C15 O8 1_555 1_555
N6 C13 1_555 1_555
H10 C13 1_555 1_555
O12 C15 1_555 1_555
H11 N6 1_555 1_555
C3_2 N2_2 1_555 1_555
C4_2 N2_2 1_555 1_555
C6_2 C2_2 1_555 1_555
C7_2 C2_2 1_555 1_555
C8_2 C4_2 1_555 1_555
H2_2 C4_2 1_555 1_555
H4_2 C6_2 1_555 1_555
H5_2 C7_2 1_555 1_555
H6_2 C7_2 1_555 1_555
O5_2 C8_2 1_555 1_555
O6_2 C3_2 1_555 1_555
Cu3 O6_2 1_555 1_555
O7_2 C8_2 1_555 1_555
Cu3_2 O7_2 1_555 1_555
C4_2 C7_2 1_555 1_555
C13_2 N5_2 1_555 1_555
N6_2 C13_2 1_555 1_555
H10_2 C13_2 1_555 1_555
H11_2 N6_2 1_555 1_555
Cu1_2 N1_2 1_555 1_555
N1_2 C1_2 1_555 1_555
O1_2 Cu1_2 1_555 1_555
O2_2 Cu1_2 1_555 1_555
O3_2 Cu1_2 1_555 1_555
C1_2 N3_2 1_555 1_555
C5_2 O1_2 1_555 1_555
H1_2 C1_2 1_555 1_555
O4_2 C5_2 1_555 1_555
H3_2 N3_2 1_555 1_555
C9_2 O2_2 1_555 1_555
N4_2 C9_2 1_555 1_555
C10_2 N4_2 1_555 1_555
H7_2 C10_2 1_555 1_555
C12_2 C10_2 1_555 1_555
O3 C12_2 1_555 1_555
H8_2 C11_2 1_555 1_555
H9_2 C11_2 1_555 1_555
C16_2 C14_2 1_555 1_555
H12_2 C16_2 1_555 1_555
C11_2 C14_2 1_555 1_555
Cu4 N1_3 1_555 1_555
N1_3 C1_3 1_555 1_555
N2_3 Cu4 1_555 1_555
O2_3 Cu4 1_555 1_555
C1_3 N3_3 1_555 1_555
C2_3 N1_3 1_555 1_555
C3_3 N2_3 1_555 1_555
C4_3 N2_3 1_555 1_555
N3_3 C6_3 1_555 1_555
H1_3 C1_3 1_555 1_555
C6_3 C2_3 1_555 1_555
C7_3 C2_3 1_555 1_555
C8_3 C4_3 1_555 1_555
H2_3 C4_3 1_555 1_555
H3_3 N3_3 1_555 1_555
H4_3 C6_3 1_555 1_555
H5_3 C7_3 1_555 1_555
H6_3 C7_3 1_555 1_555
O5_3 C8_3 1_555 1_555
C9_3 O2_3 1_555 1_555
O6_3 C3_3 1_555 1_555
N4_3 C9_3 1_555 1_555
Cu3_2 O6_3 1_555 1_555
O9 C8_3 1_555 1_555
C10_3 N4_3 1_555 1_555
N5_3 Cu3_2 1_555 1_555
C11_3 C10_3 1_555 1_555
H7_3 C10_3 1_555 1_555
C12_3 C10_3 1_555 1_555
C13_3 N5_3 1_555 1_555
C14_3 N5_3 1_555 1_555
H8_3 C11_3 1_555 1_555
H9_3 C11_3 1_555 1_555
O3_2 C12_3 1_555 1_555
O11_3 C12_3 1_555 1_555
N6_3 C13_3 1_555 1_555
H10_3 C13_3 1_555 1_555
C16_3 C14_3 1_555 1_555
H11_3 N6_3 1_555 1_555
H12_3 C16_3 1_555 1_555
C3_3 C9_3 1_555 1_555
C4_3 C7_3 1_555 1_555
N4_3 Cu3_2 1_555 1_555
C11_3 C14_3 1_555 1_555
N6_3 C16_3 1_555 1_555
O12_2 C15_2 1_555 1_555
C5_3 O1_3 1_555 1_555
O4_3 C5_3 1_555 1_555
C15_3 O8_3 1_555 1_555
O12_3 C15_3 1_555 1_555

#END
