
###############################################################################
#
# This file contains modified crystal structure data generated from the
# MOF subset of the Cambridge Structural Database (CSD) v543 
# hosted by the Cambridge Crystallographic Data Centre (CCDC).
#
# This work is licensed under the Creative Commons
# Attribution-NonCommercial-ShareAlike 4.0 International License.
# To view a copy of this license, visit
# http://creativecommons.org/licenses/by-nc-sa/4.0/
# or send a letter to
# Creative Commons, PO Box 1866, Mountain View, CA 94042, USA.
#
# CIF created using the CSD Python API on 29 September 2022
# The structure has been converted into the P1 space group
# The structure has a 3D framework
# The original CSD entry RORVAX is in the trigonal crystal system
# The original CSD entry RORVAX is in a Sohncke space group
# The framework has been calculated to contain at least 10.0% void space
# The void calculation uses a probe of radius 1.32A, grid spacing 0.4
#
###############################################################################

data_RORVAX
_chemical_formula_moiety         '(C60 H66 Co6 N6 O24)n'
_symmetry_cell_setting           triclinic
_symmetry_space_group_name_H-M   'P 1'
_symmetry_Int_Tables_number      1
_space_group_name_Hall           'P 1'
loop_
_symmetry_equiv_pos_site_id
_symmetry_equiv_pos_as_xyz
1 x,y,z
_cell_length_a                   17.3720(4)
_cell_length_b                   17.3720(4)
_cell_length_c                   8.6547(6)
_cell_angle_alpha                90
_cell_angle_beta                 90
_cell_angle_gamma                120
_cell_volume                     2261.95
loop_
_atom_site_label
_atom_site_type_symbol
_atom_site_fract_x
_atom_site_fract_y
_atom_site_fract_z
Co3 Co -0.00000(4) 0.53031(3) 0.3333
Co2 Co 0.53031(3) -0.00000(4) 0.6667
Co1 Co 0.46969(3) 0.46969(3) 0.0000
O2 O 0.51970(12) 0.59706(12) 0.1026(2)
C4 C 0.56511(19) 0.67215(16) 0.0154(4)
O5 O 0.91800(13) 0.57181(13) 0.2409(3)
O7 O 0.81329(12) 0.44321(13) 0.1381(3)
H12 H 0.8465 0.4249 0.1724
C11 C 0.79672(18) 0.57093(19) 0.1187(4)
C12 C 0.70142(19) 0.65440(19) 0.0256(4)
C13 C 0.71945(18) 0.52474(18) 0.0314(4)
H13 H 0.6990 0.4647 0.0036
C15 C 0.82721(19) 0.65925(19) 0.1576(5)
H14 H 0.8804 0.6919 0.2154
C16 C 0.84698(18) 0.52634(18) 0.1711(4)
C17 C 0.7793(2) 0.6987(2) 0.1112(5)
H15 H 0.8004 0.7589 0.1391
O8 O 0.51589(16) 0.43408(15) 0.2008(3)
N2 N 0.6167(2) 0.4669(2) 0.3948(4)
C18 C 0.5721(3) 0.4879(3) 0.2968(5)
H16 H 0.5829 0.5471 0.2981
C19 C 0.6085(3) 0.3807(3) 0.3927(6)
H17 H 0.5712 0.3466 0.3052
H18 H 0.5811 0.3496 0.4893
H19 H 0.6675 0.3870 0.3821
C20 C 0.6825(3) 0.5327(3) 0.4958(5)
H20 H 0.6869 0.5904 0.4766
H21 H 0.7402 0.5374 0.4761
H22 H 0.6652 0.5153 0.6035
Co3_2 Co 1.00000(4) 0.53031(3) 0.3333
O9 O 0.34619(18) 0.42819(13) 0.0924(3)
Co1_2 Co 0.46969(3) 0.46969(3) 1.0000
O1 O 0.57181(13) 0.91800(13) 0.7591(3)
O3 O 0.44321(13) 0.81329(12) 0.8619(3)
H1 H 0.4249 0.8465 0.8276
C1 C 0.57093(19) 0.79672(18) 0.8813(4)
C2 C 0.65440(19) 0.70142(19) 0.9744(4)
O4 O 0.43408(15) 0.51589(16) 0.7992(3)
C3 C 0.52474(18) 0.71945(18) 0.9686(4)
H2 H 0.4647 0.6990 0.9964
C5 C 0.65925(19) 0.82721(19) 0.8424(5)
H3 H 0.6919 0.8804 0.7846
C6 C 0.52634(18) 0.84698(18) 0.8289(4)
N1 N 0.4669(2) 0.6167(2) 0.6052(4)
C7 C 0.4879(3) 0.5721(3) 0.7032(5)
H4 H 0.5471 0.5829 0.7019
C8 C 0.6987(2) 0.7793(2) 0.8888(5)
H5 H 0.7589 0.8004 0.8609
C9 C 0.3807(3) 0.6085(3) 0.6073(6)
H6 H 0.3466 0.5712 0.6948
H7 H 0.3496 0.5811 0.5107
H8 H 0.3870 0.6675 0.6179
C10 C 0.5327(3) 0.6825(3) 0.5042(5)
H9 H 0.5904 0.6869 0.5234
H10 H 0.5374 0.7402 0.5239
H11 H 0.5153 0.6652 0.3965
O6 O 0.59706(12) 0.51970(12) 0.8974(2)
C14 C 0.67215(16) 0.56511(19) 0.9846(4)
Co2_2 Co 0.53031(3) 1.00000(4) 0.6667
O10 O 0.42819(13) 0.34619(18) 0.9076(3)
N2_2 N 0.5331(2) 0.1498(3) 0.0615(4)
C19_2 C 0.6193(3) 0.2278(4) 0.0594(6)
H18_2 H 0.6504 0.2315 0.1560
H19_2 H 0.6130 0.2805 0.0488
C20_2 C 0.4673(3) 0.1498(4) 0.1625(5)
H20_2 H 0.4096 0.0965 0.1433
H21_2 H 0.4626 0.2028 0.1428
H22_2 H 0.4847 0.1499 0.2702
O6_2 O 0.48030(12) 0.07736(17) 0.5641(2)
O7_2 O 0.55679(13) 0.37008(18) 0.8048(3)
H12_2 H 0.5751 0.4216 0.8391
C11_2 C 0.42907(19) 0.22579(26) 0.7854(4)
C12_2 C 0.34560(19) 0.04702(27) 0.6923(4)
C13_2 C 0.47526(18) 0.19471(25) 0.6981(4)
H13_2 H 0.5353 0.2343 0.6703
C14_2 C 0.43489(19) 0.10704(25) 0.6513(4)
C15_2 C 0.34075(19) 0.16796(27) 0.8243(5)
H14_2 H 0.3081 0.1885 0.8821
C16_2 C 0.47366(18) 0.32064(25) 0.8378(4)
C17_2 C 0.3013(2) 0.0806(3) 0.7779(5)
H15_2 H 0.2411 0.0415 0.8058
O8_2 O 0.56592(15) 0.08181(22) 0.8675(3)
C18_2 C 0.5121(3) 0.0842(4) 0.9635(5)
H16_2 H 0.4529 0.0358 0.9648
H17_2 H 0.6534 0.2246 0.9719
O10_2 O 0.65381(18) 0.08200(22) 0.5742(3)
O1_2 O 0.08200(13) 0.65381(18) 0.4258(3)
O2_2 O 0.40294(12) 0.92264(17) 0.7693(2)
O3_2 O 0.18671(12) 0.62992(18) 0.5286(3)
H1_2 H 0.1535 0.5784 0.4943
C1_2 C 0.20328(18) 0.77421(26) 0.5480(4)
C2_2 C 0.29858(19) 0.95298(27) 0.6411(4)
O4_2 O 0.48411(16) 0.91819(22) 0.4659(3)
C3_2 C 0.28055(18) 0.80529(25) 0.6353(4)
H2_2 H 0.3010 0.7657 0.6631
C4_2 C 0.32785(16) 0.89296(25) 0.6821(4)
C5_2 C 0.17279(19) 0.83204(27) 0.5091(5)
H3_2 H 0.1196 0.8115 0.4513
C6_2 C 0.15302(18) 0.67936(25) 0.4956(4)
N1_2 N 0.3833(2) 0.8502(3) 0.2719(4)
C7_2 C 0.4279(3) 0.9158(4) 0.3699(5)
H4_2 H 0.4171 0.9642 0.3686
C8_2 C 0.2207(2) 0.9194(3) 0.5555(5)
H5_2 H 0.1996 0.9585 0.5276
C9_2 C 0.3915(3) 0.7722(4) 0.2740(6)
H6_2 H 0.4288 0.7754 0.3615
H7_2 H 0.4189 0.7685 0.1774
H8_2 H 0.3325 0.7195 0.2846
C10_2 C 0.3175(3) 0.8502(4) 0.1709(5)
H9_2 H 0.3131 0.9035 0.1901
H10_2 H 0.2598 0.7972 0.1906
H11_2 H 0.3348 0.8501 0.0632
O2_3 O 0.07736(17) 0.48030(12) 0.4359(2)
O3_3 O 0.37008(18) 0.55679(13) 0.1952(3)
H1_3 H 0.4216 0.5751 0.1609
C1_3 C 0.22579(26) 0.42907(19) 0.2146(4)
C2_3 C 0.04702(27) 0.34560(19) 0.3077(4)
O4_3 O 0.08181(22) 0.56592(15) 0.1325(3)
C3_3 C 0.19471(25) 0.47526(18) 0.3019(4)
H2_3 H 0.2343 0.5353 0.3297
C4_3 C 0.10704(25) 0.43489(19) 0.3487(4)
C5_3 C 0.16796(27) 0.34075(19) 0.1757(5)
H3_3 H 0.1885 0.3081 0.1179
C6_3 C 0.32064(25) 0.47366(18) 0.1622(4)
C7_3 C 0.0842(4) 0.5121(3) 0.0365(5)
H4_3 H 0.0358 0.4529 0.0352
C8_3 C 0.0806(3) 0.3013(2) 0.2221(5)
H5_3 H 0.0415 0.2411 0.1942
H6_3 H 0.2246 0.6534 0.0281
N1_3 N 0.1498(3) 0.5331(2) 0.9385(4)
C9_3 C 0.2278(4) 0.6193(3) 0.9406(6)
H7_3 H 0.2315 0.6504 0.8440
H8_3 H 0.2805 0.6130 0.9512
C10_3 C 0.1498(4) 0.4673(3) 0.8375(5)
H9_3 H 0.0965 0.4096 0.8567
H10_3 H 0.2028 0.4626 0.8572
H11_3 H 0.1499 0.4847 0.7298
O6_3 O 0.92264(17) 0.40294(12) 0.2307(2)
O7_3 O 0.62992(18) 0.18671(12) 0.4714(3)
H12_3 H 0.5784 0.1535 0.5057
C11_3 C 0.77421(26) 0.20328(18) 0.4520(4)
C12_3 C 0.95298(27) 0.29858(19) 0.3589(4)
C13_3 C 0.80529(25) 0.28055(18) 0.3647(4)
H13_3 H 0.7657 0.3010 0.3369
C14_3 C 0.89296(25) 0.32785(16) 0.3179(4)
C15_3 C 0.83204(27) 0.17279(19) 0.4909(5)
H14_3 H 0.8115 0.1196 0.5487
C16_3 C 0.67936(25) 0.15302(18) 0.5044(4)
C17_3 C 0.9194(3) 0.2207(2) 0.4445(5)
H15_3 H 0.9585 0.1996 0.4724
O8_3 O 0.91819(22) 0.48411(16) 0.5341(3)
N2_3 N 0.8502(3) 0.3833(2) 0.7281(4)
C18_3 C 0.9158(4) 0.4279(3) 0.6301(5)
H16_3 H 0.9642 0.4171 0.6314
C19_3 C 0.7722(4) 0.3915(3) 0.7260(6)
H17_3 H 0.7754 0.4288 0.6385
H18_3 H 0.7685 0.4189 0.8226
H19_3 H 0.7195 0.3325 0.7154
C20_3 C 0.8502(4) 0.3175(3) 0.8291(5)
H20_3 H 0.9035 0.3131 0.8099
H21_3 H 0.7972 0.2598 0.8094
H22_3 H 0.8501 0.3348 0.9368
loop_
_geom_bond_atom_site_label_1
_geom_bond_atom_site_label_2
_geom_bond_site_symmetry_1
_geom_bond_site_symmetry_2
Co1 O2 1_555 1_555
O2 C4 1_555 1_555
O5 C16 1_555 1_555
O7 H12 1_555 1_555
C11 C13 1_555 1_555
C13 H13 1_555 1_555
C15 C11 1_555 1_555
H14 C15 1_555 1_555
C16 O7 1_555 1_555
C17 C12 1_555 1_555
H15 C17 1_555 1_555
O8 Co1 1_555 1_555
N2 C18 1_555 1_555
C18 O8 1_555 1_555
H16 C18 1_555 1_555
C19 N2 1_555 1_555
H17 C19 1_555 1_555
H18 C19 1_555 1_555
H19 C19 1_555 1_555
C20 N2 1_555 1_555
H20 C20 1_555 1_555
H21 C20 1_555 1_555
H22 C20 1_555 1_555
Co3_2 O5 1_555 1_555
O9 Co1 1_555 1_555
C11 C16 1_555 1_555
C15 C17 1_555 1_555
O1 C6 1_555 1_555
O3 H1 1_555 1_555
C1 C3 1_555 1_555
O4 Co1_2 1_555 1_555
C3 H2 1_555 1_555
C5 C1 1_555 1_555
H3 C5 1_555 1_555
C6 O3 1_555 1_555
N1 C7 1_555 1_555
C7 O4 1_555 1_555
H4 C7 1_555 1_555
C8 C2 1_555 1_555
H5 C8 1_555 1_555
C9 N1 1_555 1_555
H6 C9 1_555 1_555
H7 C9 1_555 1_555
H8 C9 1_555 1_555
C10 N1 1_555 1_555
H9 C10 1_555 1_555
H10 C10 1_555 1_555
H11 C10 1_555 1_555
O6 Co1_2 1_555 1_555
C14 O6 1_555 1_555
Co2_2 O1 1_555 1_555
O10 Co1_2 1_555 1_555
C1 C6 1_555 1_555
C5 C8 1_555 1_555
C19_2 N2_2 1_555 1_555
H18_2 C19_2 1_555 1_555
H19_2 C19_2 1_555 1_555
C20_2 N2_2 1_555 1_555
H20_2 C20_2 1_555 1_555
H21_2 C20_2 1_555 1_555
H22_2 C20_2 1_555 1_555
O10 C16_2 1_555 1_555
O6_2 Co2 1_555 1_555
O7_2 H12_2 1_555 1_555
C11_2 C13_2 1_555 1_555
C13_2 H13_2 1_555 1_555
C14_2 O6_2 1_555 1_555
C15_2 C11_2 1_555 1_555
H14_2 C15_2 1_555 1_555
C16_2 O7_2 1_555 1_555
C17_2 C12_2 1_555 1_555
H15_2 C17_2 1_555 1_555
O8_2 Co2 1_555 1_555
C18_2 O8_2 1_555 1_555
H16_2 C18_2 1_555 1_555
O10_2 Co2 1_555 1_555
C11_2 C16_2 1_555 1_555
C12_2 C14_2 1_555 1_555
C13_2 C14_2 1_555 1_555
C15_2 C17_2 1_555 1_555
Co2_2 O2_2 1_555 1_555
O1_2 C6_2 1_555 1_555
O2_2 C4_2 1_555 1_555
O3_2 H1_2 1_555 1_555
C1_2 C3_2 1_555 1_555
C2_2 C4_2 1_555 1_555
O4_2 Co2_2 1_555 1_555
C3_2 H2_2 1_555 1_555
C4_2 C3_2 1_555 1_555
C5_2 C1_2 1_555 1_555
H3_2 C5_2 1_555 1_555
C6_2 O3_2 1_555 1_555
N1_2 C7_2 1_555 1_555
C7_2 O4_2 1_555 1_555
H4_2 C7_2 1_555 1_555
C8_2 C2_2 1_555 1_555
H5_2 C8_2 1_555 1_555
C9_2 N1_2 1_555 1_555
H6_2 C9_2 1_555 1_555
H7_2 C9_2 1_555 1_555
H8_2 C9_2 1_555 1_555
C10_2 N1_2 1_555 1_555
H9_2 C10_2 1_555 1_555
H10_2 C10_2 1_555 1_555
H11_2 C10_2 1_555 1_555
Co3 O1_2 1_555 1_555
C1_2 C6_2 1_555 1_555
C5_2 C8_2 1_555 1_555
Co3 O2_3 1_555 1_555
O9 C6_3 1_555 1_555
O2_3 C4_3 1_555 1_555
O3_3 H1_3 1_555 1_555
C1_3 C3_3 1_555 1_555
C2_3 C4_3 1_555 1_555
O4_3 Co3 1_555 1_555
C3_3 H2_3 1_555 1_555
C4_3 C3_3 1_555 1_555
C5_3 C1_3 1_555 1_555
H3_3 C5_3 1_555 1_555
C6_3 O3_3 1_555 1_555
C7_3 O4_3 1_555 1_555
H4_3 C7_3 1_555 1_555
C8_3 C2_3 1_555 1_555
H5_3 C8_3 1_555 1_555
C1_3 C6_3 1_555 1_555
C5_3 C8_3 1_555 1_555
C9_3 N1_3 1_555 1_555
H7_3 C9_3 1_555 1_555
H8_3 C9_3 1_555 1_555
C10_3 N1_3 1_555 1_555
H9_3 C10_3 1_555 1_555
H10_3 C10_3 1_555 1_555
H11_3 C10_3 1_555 1_555
O10_2 C16_3 1_555 1_555
O6_3 Co3_2 1_555 1_555
O7_3 H12_3 1_555 1_555
C11_3 C13_3 1_555 1_555
C13_3 H13_3 1_555 1_555
C14_3 O6_3 1_555 1_555
C15_3 C11_3 1_555 1_555
H14_3 C15_3 1_555 1_555
C16_3 O7_3 1_555 1_555
C17_3 C12_3 1_555 1_555
H15_3 C17_3 1_555 1_555
O8_3 Co3_2 1_555 1_555
N2_3 C18_3 1_555 1_555
C18_3 O8_3 1_555 1_555
H16_3 C18_3 1_555 1_555
C19_3 N2_3 1_555 1_555
H17_3 C19_3 1_555 1_555
H18_3 C19_3 1_555 1_555
H19_3 C19_3 1_555 1_555
C20_3 N2_3 1_555 1_555
H20_3 C20_3 1_555 1_555
H21_3 C20_3 1_555 1_555
H22_3 C20_3 1_555 1_555
C11_3 C16_3 1_555 1_555
C12_3 C14_3 1_555 1_555
C13_3 C14_3 1_555 1_555
C15_3 C17_3 1_555 1_555

#END
