
###############################################################################
#
# This file contains modified crystal structure data generated from the
# MOF subset of the Cambridge Structural Database (CSD) v543 
# hosted by the Cambridge Crystallographic Data Centre (CCDC).
#
# This work is licensed under the Creative Commons
# Attribution-NonCommercial-ShareAlike 4.0 International License.
# To view a copy of this license, visit
# http://creativecommons.org/licenses/by-nc-sa/4.0/
# or send a letter to
# Creative Commons, PO Box 1866, Mountain View, CA 94042, USA.
#
# CIF created using the CSD Python API on 29 September 2022
# The structure has been converted into the P1 space group
# The structure has a 3D framework
# The original CSD entry ROSKER is in the orthorhombic crystal system
# The framework has been calculated to contain at least 10.0% void space
# The void calculation uses a probe of radius 1.32A, grid spacing 0.4
# H atom positions have been added when not included in the experimental data
# Generated hydrogen atom positions removed from atoms on special positions
#
###############################################################################

data_ROSKER
_chemical_formula_moiety         '(C48 H80 Mn8 N36 O24 W4)n'
_symmetry_cell_setting           triclinic
_symmetry_space_group_name_H-M   'P 1'
_symmetry_Int_Tables_number      1
_space_group_name_Hall           'P 1'
loop_
_symmetry_equiv_pos_site_id
_symmetry_equiv_pos_as_xyz
1 x,y,z
_cell_length_a                   11.3416(1)
_cell_length_b                   15.1979(1)
_cell_length_c                   14.7404(1)
_cell_angle_alpha                90
_cell_angle_beta                 90
_cell_angle_gamma                90
_cell_volume                     2540.78
loop_
_atom_site_label
_atom_site_type_symbol
_atom_site_fract_x
_atom_site_fract_y
_atom_site_fract_z
Mn6 Mn 0.30608(3) 0.02249(2) 0.19358(2)
O5 O 0.3226(2) 0.07160(14) 0.75058(17)
O6 O 0.0631(2) 0.03071(19) 0.78736(17)
N14 N 0.1661(2) 0.07799(15) 0.58818(16)
H11 H 0.0874601 0.0905526 0.806853
N1 N 0.0865(3) 0.75000 0.0172(3)
C3 C 0.5081(3) 0.75000 0.0522(2)
N3 N 0.5825(4) 0.75000 0.1050(3)
C5 C 0.3436(2) 0.63804(15) 0.04080(14)
N5 N 0.3339(2) 0.57799(15) 0.08818(16)
C12 C 0.3436(2) 0.86196(15) 0.04080(14)
N10 N 0.3339(2) 0.92201(15) 0.08818(16)
Mn3 Mn 0.30608(3) 0.47751(2) 0.19358(2)
W1 W 0.367282(9) 0.75000 0.952999(6)
C1 C 0.1834(3) 0.75000 0.9941(2)
C2 C 0.2853(2) 0.66404(14) 0.85443(14)
N2 N 0.2444(2) 0.61824(14) 0.80034(15)
C4 C 0.49900(19) 0.66360(14) 0.89594(14)
N4 N 0.5693(2) 0.61669(14) 0.86688(15)
Mn1 Mn 0.19392(3) 0.52249(2) 0.69358(2)
O1 O 0.3488(2) 0.57490(13) 0.61481(17)
N6 N 0.35884(18) 0.66052(15) 0.60812(17)
C6 C 0.4313(2) 0.70502(18) 0.66517(18)
H1 H 0.4809 0.6744 0.7042
C7 C 0.2952(3) 0.70470(19) 0.54571(17)
H2 H 0.2514 0.674 0.5027
O2 O 0.3226(2) 0.42840(14) 0.75058(17)
O3 O 0.0631(2) 0.46929(19) 0.78736(17)
O4 O 0.3488(2) 0.92510(13) 0.61481(17)
N7 N 0.35884(18) 0.83948(15) 0.60812(17)
C8 C 0.4313(2) 0.79498(18) 0.66517(18)
H3 H 0.4809 0.8256 0.7042
C9 C 0.2952(3) 0.79530(19) 0.54571(17)
H4 H 0.2514 0.826 0.5027
C10 C 0.2853(2) 0.83596(14) 0.85443(14)
N8 N 0.2444(2) 0.88176(14) 0.80034(15)
C11 C 0.49900(19) 0.83640(14) 0.89594(14)
N9 N 0.5693(2) 0.88331(14) 0.86688(15)
Mn2 Mn 0.19392(3) 0.97751(2) 0.69358(2)
N11 N 0.0693(2) 0.88331(14) 0.63312(15)
N12 N 0.0693(2) 0.61669(14) 0.63312(15)
N13 N 0.1661(2) 0.42201(15) 0.58818(16)
Mn4 Mn 0.69392(3) 0.97751(2) 0.80642(2)
Mn5 Mn 0.69392(3) 0.52249(2) 0.80642(2)
W1_2 W 0.132718(9) 0.25000 0.452999(6)
C1_2 C 0.3166(3) 0.25000 0.4941(2)
N1_2 N 0.4135(3) 0.25000 0.5172(3)
C2_2 C 0.2147(2) 0.33596(14) 0.35443(14)
N2_2 N 0.2556(2) 0.38176(14) 0.30034(15)
C4_2 C 0.00100(19) 0.33640(14) 0.39594(14)
C5_2 C 0.1564(2) 0.36196(15) 0.54080(14)
O1_2 O 0.1512(2) 0.42510(13) 0.11481(17)
N6_2 N 0.14116(18) 0.33948(15) 0.10812(17)
C6_2 C 0.0687(2) 0.29498(18) 0.16517(18)
H1_2 H 0.0191 0.3256 0.2042
C7_2 C 0.2048(3) 0.29530(19) 0.04571(17)
H2_2 H 0.2486 0.326 0.0027
O2_2 O 0.1774(2) 0.57160(14) 0.25058(17)
O3_2 O 0.4369(2) 0.53071(19) 0.28736(17)
O4_2 O 0.1512(2) 0.07490(13) 0.11481(17)
N7_2 N 0.14116(18) 0.16052(15) 0.10812(17)
C8_2 C 0.0687(2) 0.20502(18) 0.16517(18)
H3_2 H 0.0191 0.1744 0.2042
C9_2 C 0.2048(3) 0.20470(19) 0.04571(17)
H4_2 H 0.2486 0.174 0.0027
C10_2 C 0.2147(2) 0.16404(14) 0.35443(14)
N8_2 N 0.2556(2) 0.11824(14) 0.30034(15)
C11_2 C 0.00100(19) 0.16360(14) 0.39594(14)
C12_2 C 0.1564(2) 0.13804(15) 0.54080(14)
N11_2 N 0.4307(2) 0.11669(14) 0.13312(15)
N12_2 N 0.4307(2) 0.38331(14) 0.13312(15)
O5_2 O 0.1774(2) 0.92840(14) 0.25058(17)
O6_2 O 0.4369(2) 0.96929(19) 0.28736(17)
C3_2 C 0.9919(3) 0.25000 0.5522(2)
N3_2 N 0.9175(4) 0.25000 0.6050(3)
N4_2 N 0.9307(2) 0.38331(14) 0.36688(15)
N9_2 N 0.9307(2) 0.11669(14) 0.36688(15)
Mn4_2 Mn 0.80608(3) 0.02249(2) 0.30642(2)
Mn5_2 Mn 0.80608(3) 0.47751(2) 0.30642(2)
C3_3 C 0.0081(3) 0.75000 0.4478(2)
N3_3 N 0.0825(4) 0.75000 0.3950(3)
O2_3 O 0.8226(2) 0.07160(14) 0.74942(17)
O3_3 O 0.5631(2) 0.03071(19) 0.71264(17)
N13_2 N 0.6661(2) 0.07799(15) 0.91182(16)
W1_3 W 0.867282(9) 0.75000 0.547001(6)
C1_3 C 0.6834(3) 0.75000 0.5059(2)
N1_3 N 0.5865(3) 0.75000 0.4828(3)
C2_3 C 0.7853(2) 0.83596(14) 0.64557(14)
N2_3 N 0.7444(2) 0.88176(14) 0.69966(15)
C4_3 C 0.99900(19) 0.83640(14) 0.60406(14)
C5_3 C 0.8436(2) 0.86196(15) 0.45920(14)
N5_2 N 0.8339(2) 0.92201(15) 0.41182(16)
O1_3 O 0.8488(2) 0.92510(13) 0.88519(17)
N6_3 N 0.85884(18) 0.83948(15) 0.89188(17)
C6_3 C 0.9313(2) 0.79498(18) 0.83483(18)
H1_3 H 0.9809 0.8256 0.7958
C7_3 C 0.7952(3) 0.79530(19) 0.95429(17)
H2_3 H 0.7514 0.826 0.9973
O4_3 O 0.8488(2) 0.57490(13) 0.88519(17)
N7_3 N 0.85884(18) 0.66052(15) 0.89188(17)
C8_3 C 0.9313(2) 0.70502(18) 0.83483(18)
H3_3 H 0.9809 0.6744 0.7958
C9_3 C 0.7952(3) 0.70470(19) 0.95429(17)
H4_3 H 0.7514 0.674 0.9973
C10_3 C 0.7853(2) 0.66404(14) 0.64557(14)
N8_3 N 0.7444(2) 0.61824(14) 0.69966(15)
C11_3 C 0.99900(19) 0.66360(14) 0.60406(14)
C12_3 C 0.8436(2) 0.63804(15) 0.45920(14)
N10_2 N 0.8339(2) 0.57799(15) 0.41182(16)
O5_3 O 0.8226(2) 0.42840(14) 0.74942(17)
O6_3 O 0.5631(2) 0.46929(19) 0.71264(17)
N14_2 N 0.6661(2) 0.42201(15) 0.91182(16)
H7 H 0.506293 0.983759 0.695777
W1_4 W 0.632718(9) 0.25000 0.047001(6)
C1_4 C 0.8166(3) 0.25000 0.0059(2)
C2_4 C 0.7147(2) 0.16404(14) 0.14557(14)
N2_4 N 0.7556(2) 0.11824(14) 0.19966(15)
C4_4 C 0.50100(19) 0.16360(14) 0.10406(14)
O1_4 O 0.6512(2) 0.07490(13) 0.38519(17)
N6_4 N 0.64116(18) 0.16052(15) 0.39188(17)
C6_4 C 0.5687(2) 0.20502(18) 0.33483(18)
H1_4 H 0.5191 0.1744 0.2958
C7_4 C 0.7048(3) 0.20470(19) 0.45429(17)
H2_4 H 0.7486 0.174 0.4973
O4_4 O 0.6512(2) 0.42510(13) 0.38519(17)
N7_4 N 0.64116(18) 0.33948(15) 0.39188(17)
C8_4 C 0.5687(2) 0.29498(18) 0.33483(18)
H3_4 H 0.5191 0.3256 0.2958
C9_4 C 0.7048(3) 0.29530(19) 0.45429(17)
H4_4 H 0.7486 0.326 0.4973
C10_4 C 0.7147(2) 0.33596(14) 0.14557(14)
N8_4 N 0.7556(2) 0.38176(14) 0.19966(15)
C11_4 C 0.50100(19) 0.33640(14) 0.10406(14)
O5_4 O 0.6774(2) 0.57160(14) 0.24942(17)
O6_4 O 0.9369(2) 0.53071(19) 0.21264(17)
H7_2 H 0.993707 0.0162408 0.195777
N1_4 N 0.9135(3) 0.25000 0.9828(3)
C3_4 C 0.4919(3) 0.25000 0.9478(2)
N3_4 N 0.4175(4) 0.25000 0.8950(3)
C5_4 C 0.6564(2) 0.13804(15) 0.95920(14)
C12_4 C 0.6564(2) 0.36196(15) 0.95920(14)
O2_4 O 0.6774(2) 0.92840(14) 0.24942(17)
O3_4 O 0.9369(2) 0.96929(19) 0.21264(17)
H8 H 0.979778 0.920095 0.242254
H11_2 H 0.91254 0.909447 0.193147
H7_3 H 0.493707 0.0162408 0.304223
H8_2 H 0.020222 0.0799053 0.757746
H7_4 H 0.00629256 0.983759 0.804223
H12 H 0.98532 0.0339841 0.756615
H12_2 H 0.0146801 0.533984 0.243385
H12_3 H 0.0146801 0.966016 0.243385
H12_4 H 0.98532 0.466016 0.756615
loop_
_geom_bond_atom_site_label_1
_geom_bond_atom_site_label_2
_geom_bond_site_symmetry_1
_geom_bond_site_symmetry_2
O6 H11 1_555 1_555
N3 C3 1_555 1_555
N5 C5 1_555 1_555
N10 C12 1_555 1_555
Mn3 N5 1_555 1_555
W1 C1 1_555 1_555
C2 W1 1_555 1_555
N2 C2 1_555 1_555
C4 W1 1_555 1_555
N4 C4 1_555 1_555
Mn1 N2 1_555 1_555
O1 Mn1 1_555 1_555
N6 O1 1_555 1_555
C6 N6 1_555 1_555
H1 C6 1_555 1_555
C7 N6 1_555 1_555
H2 C7 1_555 1_555
O2 Mn1 1_555 1_555
O3 Mn1 1_555 1_555
O4 N7 1_555 1_555
N7 C8 1_555 1_555
C8 C6 1_555 1_555
H3 C8 1_555 1_555
C9 C7 1_555 1_555
H4 C9 1_555 1_555
C10 W1 1_555 1_555
N8 C10 1_555 1_555
C11 W1 1_555 1_555
N9 C11 1_555 1_555
Mn2 O4 1_555 1_555
N11 Mn2 1_555 1_555
N12 Mn1 1_555 1_555
N13 Mn1 1_555 1_555
Mn4 N9 1_555 1_555
Mn5 N4 1_555 1_555
N7 C9 1_555 1_555
N8 Mn2 1_555 1_555
W1_2 C1_2 1_555 1_555
C1_2 N1_2 1_555 1_555
C2_2 W1_2 1_555 1_555
N2_2 C2_2 1_555 1_555
C4_2 W1_2 1_555 1_555
C5_2 W1_2 1_555 1_555
N13 C5_2 1_555 1_555
Mn3 N2_2 1_555 1_555
O1_2 Mn3 1_555 1_555
N6_2 O1_2 1_555 1_555
C6_2 N6_2 1_555 1_555
H1_2 C6_2 1_555 1_555
C7_2 N6_2 1_555 1_555
H2_2 C7_2 1_555 1_555
O2_2 Mn3 1_555 1_555
O3_2 Mn3 1_555 1_555
O4_2 N7_2 1_555 1_555
N7_2 C8_2 1_555 1_555
C8_2 C6_2 1_555 1_555
H3_2 C8_2 1_555 1_555
C9_2 C7_2 1_555 1_555
H4_2 C9_2 1_555 1_555
C10_2 W1_2 1_555 1_555
N8_2 C10_2 1_555 1_555
C11_2 W1_2 1_555 1_555
C12_2 W1_2 1_555 1_555
N14 C12_2 1_555 1_555
Mn6 O4_2 1_555 1_555
N11_2 Mn6 1_555 1_555
N12_2 Mn3 1_555 1_555
N7_2 C9_2 1_555 1_555
N8_2 Mn6 1_555 1_555
N3_2 C3_2 1_555 1_555
Mn4_2 N9_2 1_555 1_555
Mn5_2 N4_2 1_555 1_555
N3_3 C3_3 1_555 1_555
W1_3 C1_3 1_555 1_555
C1_3 N1_3 1_555 1_555
C2_3 W1_3 1_555 1_555
N2_3 C2_3 1_555 1_555
C4_3 W1_3 1_555 1_555
C5_3 W1_3 1_555 1_555
N5_2 C5_3 1_555 1_555
Mn4 N2_3 1_555 1_555
O1_3 Mn4 1_555 1_555
N6_3 O1_3 1_555 1_555
C6_3 N6_3 1_555 1_555
H1_3 C6_3 1_555 1_555
C7_3 N6_3 1_555 1_555
H2_3 C7_3 1_555 1_555
O4_3 N7_3 1_555 1_555
N7_3 C8_3 1_555 1_555
C8_3 C6_3 1_555 1_555
H3_3 C8_3 1_555 1_555
C9_3 C7_3 1_555 1_555
H4_3 C9_3 1_555 1_555
C10_3 W1_3 1_555 1_555
N8_3 C10_3 1_555 1_555
C11_3 W1_3 1_555 1_555
C12_3 W1_3 1_555 1_555
N10_2 C12_3 1_555 1_555
Mn5 O4_3 1_555 1_555
O5_3 Mn5 1_555 1_555
O6_3 Mn5 1_555 1_555
N14_2 Mn5 1_555 1_555
Mn5_2 N10_2 1_555 1_555
N7_3 C9_3 1_555 1_555
N8_3 Mn5 1_555 1_555
W1_4 C1_4 1_555 1_555
C2_4 W1_4 1_555 1_555
N2_4 C2_4 1_555 1_555
C4_4 W1_4 1_555 1_555
N11_2 C4_4 1_555 1_555
Mn4_2 N2_4 1_555 1_555
O1_4 Mn4_2 1_555 1_555
N6_4 O1_4 1_555 1_555
C6_4 N6_4 1_555 1_555
H1_4 C6_4 1_555 1_555
C7_4 N6_4 1_555 1_555
H2_4 C7_4 1_555 1_555
O4_4 N7_4 1_555 1_555
N7_4 C8_4 1_555 1_555
C8_4 C6_4 1_555 1_555
H3_4 C8_4 1_555 1_555
C9_4 C7_4 1_555 1_555
H4_4 C9_4 1_555 1_555
C10_4 W1_4 1_555 1_555
N8_4 C10_4 1_555 1_555
C11_4 W1_4 1_555 1_555
N12_2 C11_4 1_555 1_555
Mn5_2 O4_4 1_555 1_555
O5_4 Mn5_2 1_555 1_555
O6_4 Mn5_2 1_555 1_555
N7_4 C9_4 1_555 1_555
N8_4 Mn5_2 1_555 1_555
N3_4 C3_4 1_555 1_555
N13_2 C5_4 1_555 1_555
N14_2 C12_4 1_555 1_555
O3_4 H8 1_555 1_555
O3_4 H11_2 1_555 1_555
O6 H8_2 1_555 1_555

#END
