
###############################################################################
#
# This file contains modified crystal structure data generated from the
# MOF subset of the Cambridge Structural Database (CSD) v543 
# hosted by the Cambridge Crystallographic Data Centre (CCDC).
#
# This work is licensed under the Creative Commons
# Attribution-NonCommercial-ShareAlike 4.0 International License.
# To view a copy of this license, visit
# http://creativecommons.org/licenses/by-nc-sa/4.0/
# or send a letter to
# Creative Commons, PO Box 1866, Mountain View, CA 94042, USA.
#
# CIF created using the CSD Python API on 29 September 2022
# The structure has been converted into the P1 space group
# The structure has a 3D framework
# The original CSD entry ROSZOR is in the monoclinic crystal system
# The framework has been calculated to contain at least 10.0% void space
# The void calculation uses a probe of radius 1.32A, grid spacing 0.4
# The framework is charged, counterions have been retained in the structure
# H atom positions have been added when not included in the experimental data
# Generated hydrogen atom positions removed from atoms on special positions
#
###############################################################################

data_ROSZOR
_chemical_formula_moiety         '(C40 H88 N4 O42 P8 Zn8)n'
_symmetry_cell_setting           triclinic
_symmetry_space_group_name_H-M   'P 1'
_symmetry_Int_Tables_number      1
_space_group_name_Hall           'P 1'
loop_
_symmetry_equiv_pos_site_id
_symmetry_equiv_pos_as_xyz
1 x,y,z
_cell_length_a                   6.4394(6)
_cell_length_b                   28.798(3)
_cell_length_c                   11.7113(11)
_cell_angle_alpha                90
_cell_angle_beta                 104.643(8)
_cell_angle_gamma                90
_cell_volume                     2101.23
loop_
_atom_site_label
_atom_site_type_symbol
_atom_site_fract_x
_atom_site_fract_y
_atom_site_fract_z
C1 C 0.4811(4) 0.10599(7) 0.67567(18)
H1 H 0.581151 0.119666 0.637077
H2 H 0.354855 0.096361 0.617531
H3 H 0.546010 0.079536 0.720687
N1 N 0.4212(2) 0.14067(5) 0.75572(12)
H4 H 0.537569 0.148870 0.811114
H5 H 0.325064 0.128311 0.789615
H6 H 0.365198 0.165611 0.714372
C1_2 C 0.5189(4) 0.60599(7) 0.82433(18)
H1_2 H 0.418849 0.619666 0.862923
H2_2 H 0.645145 0.596361 0.882469
H3_2 H 0.453990 0.579536 0.779313
N1_2 N 0.5788(2) 0.64067(5) 0.74428(12)
H4_2 H 0.462431 0.648870 0.688886
H5_2 H 0.674936 0.628311 0.710385
H6_2 H 0.634802 0.665611 0.785628
C1_3 C 0.5189(4) 0.89401(7) 0.32433(18)
H1_3 H 0.418849 0.880334 0.362923
H2_3 H 0.645145 0.903639 0.382469
H3_3 H 0.453990 0.920464 0.279313
N1_3 N 0.5788(2) 0.85933(5) 0.24428(12)
H4_3 H 0.462431 0.851130 0.188886
H5_3 H 0.674936 0.871689 0.210385
H6_3 H 0.634802 0.834389 0.285628
C1_4 C 0.4811(4) 0.39401(7) 0.17567(18)
H1_4 H 0.581151 0.380334 0.137077
H2_4 H 0.354855 0.403639 0.117531
H3_4 H 0.546010 0.420464 0.220687
N1_4 N 0.4212(2) 0.35933(5) 0.25572(12)
H4_4 H 0.537569 0.351130 0.311114
H5_4 H 0.325064 0.371689 0.289615
H6_4 H 0.365198 0.334389 0.214372
C2 C 0.1918(2) 0.30661(5) 0.55024(11)
C3 C 0.2337(3) 0.35594(5) 0.58936(13)
H7 H 0.380677 0.359179 0.633152
H8 H 0.141006 0.364407 0.638524
H9 H 0.206496 0.375875 0.521495
H13 H 0.011924 0.072380 0.550529
O1 O 0.22762(15) 0.21821(3) 0.62468(7)
O2 O 0.51136(14) 0.27408(4) 0.73358(8)
O3 O 0.14288(14) 0.27897(3) 0.76200(7)
O7 O 0.31470(16) 0.29231(4) 0.46589(8)
H14 H 0.450689 0.288347 0.503624
O8 O 0.50623(15) 0.19454(4) 0.45838(8)
O10 O 0.06404(15) 0.14832(3) 0.45161(9)
P1 P 0.27643(5) 0.26702(2) 0.67615(3)
Zn1 Zn 0.19368(2) 0.21062(2) 0.44284(2)
O26 O 0.14288(14) 0.22103(3) 0.26200(7)
Zn6 Zn 0.19368(2) 0.28938(2) 0.94284(2)
Zn10 Zn 0.81243(2) 0.27780(2) 0.72501(2)
C4 C 0.8980(2) 0.13432(5) 0.38004(12)
C5 C 0.7867(2) 0.09276(5) 0.41193(13)
C6 C 0.5840(4) 0.08280(8) 0.3538(2)
H10 H 0.517034 0.100540 0.288545
C7 C 0.4726(4) 0.04677(8) 0.3888(2)
H11 H 0.330783 0.041629 0.347825
C8 C 0.5624(3) 0.01874(5) 0.48048(13)
C9 C 0.7643(3) 0.02984(6) 0.54147(16)
H12 H 0.830504 0.012655 0.607955
C10 C 0.8730(3) 0.06601(6) 0.50682(15)
O4 O 0.91027(14) 0.24818(3) 0.41240(7)
O5 O 0.84701(16) 0.33420(3) 0.37519(8)
O6 O 0.76843(14) 0.29794(3) 0.55420(7)
O9 O 0.82325(15) 0.29496(3) 0.16648(8)
O11 O 0.81162(16) 0.15369(3) 0.28259(8)
P2 P 0.90850(6) 0.29609(2) 0.46763(3)
Zn2 Zn 0.81243(2) 0.22220(2) 0.22501(2)
O24 O 0.51136(14) 0.22592(4) 0.23358(8)
O28 O 0.76843(14) 0.20206(3) 0.05420(7)
C11 C 0.1020(2) 0.86568(5) 0.61996(12)
C12 C 0.2133(2) 0.90724(5) 0.58807(13)
C13 C 0.4160(4) 0.91720(8) 0.6462(2)
H15 H 0.482966 0.899460 0.711455
C14 C 0.5274(4) 0.95323(8) 0.6112(2)
H16 H 0.669217 0.958371 0.652175
C15 C 0.4376(3) 0.98126(5) 0.51952(13)
C16 C 0.2357(3) 0.97016(6) 0.45853(16)
H17 H 0.169496 0.987345 0.392045
C17 C 0.1270(3) 0.93399(6) 0.49318(15)
O13 O 0.18838(16) 0.84631(3) 0.71741(8)
O17 O 0.08973(14) 0.75182(3) 0.58760(7)
O18 O 0.15299(16) 0.66580(3) 0.62481(8)
O19 O 0.23157(14) 0.70206(3) 0.44580(7)
O22 O 0.17675(15) 0.70504(3) 0.83352(8)
P4 P 0.09150(6) 0.70391(2) 0.53237(3)
Zn4 Zn 0.18757(2) 0.77780(2) 0.77499(2)
O23 O 0.48864(14) 0.77408(4) 0.76642(8)
O27 O 0.23157(14) 0.79794(3) 0.94580(7)
Zn8 Zn 0.18757(2) 0.72220(2) 0.27499(2)
H18 H 0.988076 0.927620 0.449471
O12 O 0.93596(15) 0.85168(3) 0.54839(9)
C18 C 0.8082(2) 0.69339(5) 0.44976(11)
C19 C 0.7663(3) 0.64406(5) 0.41064(13)
H19 H 0.619323 0.640821 0.366848
H20 H 0.858994 0.635593 0.361476
H21 H 0.793504 0.624125 0.478505
O14 O 0.77238(15) 0.78179(3) 0.37532(7)
O15 O 0.48864(14) 0.72592(4) 0.26642(8)
O16 O 0.85712(14) 0.72103(3) 0.23800(7)
O20 O 0.68530(16) 0.70769(4) 0.53411(8)
H22 H 0.549311 0.711653 0.496376
O21 O 0.49377(15) 0.80546(4) 0.54162(8)
P3 P 0.72357(5) 0.73298(2) 0.32385(3)
Zn3 Zn 0.80632(2) 0.78938(2) 0.55716(2)
O25 O 0.85712(14) 0.77897(3) 0.73800(7)
Zn5 Zn 0.80632(2) 0.71062(2) 0.05716(2)
H18_2 H 0.011924 0.427620 0.050529
C18_2 C 0.1918(2) 0.19339(5) 0.05024(11)
C19_2 C 0.2337(3) 0.14406(5) 0.08936(13)
H19_2 H 0.380677 0.140821 0.133152
H20_2 H 0.141006 0.135593 0.138524
H21_2 H 0.206496 0.124125 0.021495
O14_2 O 0.22762(15) 0.28179(3) 0.12468(7)
H22_2 H 0.450689 0.211653 0.003624
P3_2 P 0.27643(5) 0.23298(2) 0.17615(3)
H29 H 0.565607 0.321373 0.0349005
O12_2 O 0.06404(15) 0.35168(3) 0.95161(9)
O20_2 O 0.31470(16) 0.20769(4) 0.96589(8)
O21_2 O 0.50623(15) 0.30546(4) 0.95838(8)
H30 H 0.588698 0.276563 0.955169
C4_2 C 0.1020(2) 0.63432(5) 0.11996(12)
C5_2 C 0.2133(2) 0.59276(5) 0.08807(13)
C6_2 C 0.4160(4) 0.58280(8) 0.1462(2)
H10_2 H 0.482966 0.600540 0.211455
C7_2 C 0.5274(4) 0.54677(8) 0.1112(2)
H11_2 H 0.669217 0.541629 0.152175
C8_2 C 0.4376(3) 0.51874(5) 0.01952(13)
O4_2 O 0.08973(14) 0.74818(3) 0.08760(7)
O5_2 O 0.15299(16) 0.83420(3) 0.12481(8)
O9_2 O 0.17675(15) 0.79496(3) 0.33352(8)
O11_2 O 0.18838(16) 0.65369(3) 0.21741(8)
P2_2 P 0.09150(6) 0.79609(2) 0.03237(3)
C16_2 C 0.7643(3) 0.47016(6) 0.04147(16)
H17_2 H 0.830504 0.487345 0.107955
C17_2 C 0.8730(3) 0.43399(6) 0.00682(15)
C9_2 C 0.2357(3) 0.52984(6) 0.95853(16)
H12_2 H 0.169496 0.512655 0.892045
C10_2 C 0.1270(3) 0.56601(6) 0.99318(15)
C11_2 C 0.8980(2) 0.36568(5) 0.88004(12)
C12_2 C 0.7867(2) 0.40724(5) 0.91193(13)
C13_2 C 0.5840(4) 0.41720(8) 0.8538(2)
H15_2 H 0.517034 0.399460 0.788545
C14_2 C 0.4726(4) 0.45323(8) 0.8888(2)
H16_2 H 0.330783 0.458371 0.847825
C15_2 C 0.5624(3) 0.48126(5) 0.98048(13)
O13_2 O 0.81162(16) 0.34631(3) 0.78259(8)
O17_2 O 0.91027(14) 0.25182(3) 0.91240(7)
O18_2 O 0.84701(16) 0.16580(3) 0.87519(8)
O22_2 O 0.82325(15) 0.20504(3) 0.66648(8)
P4_2 P 0.90850(6) 0.20391(2) 0.96763(3)
O7_2 O 0.68530(16) 0.79231(4) 0.03411(8)
O8_2 O 0.49377(15) 0.69454(4) 0.04162(8)
O10_2 O 0.93596(15) 0.64832(3) 0.04839(9)
H24 H 0.470484 0.689157 0.121212
C2_2 C 0.8082(2) 0.80661(5) 0.94976(11)
C3_2 C 0.7663(3) 0.85594(5) 0.91064(13)
H7_2 H 0.619323 0.859179 0.866848
H8_2 H 0.858994 0.864407 0.861476
H9_2 H 0.793504 0.875875 0.978505
H13_2 H 0.988076 0.572380 0.949471
O1_2 O 0.77238(15) 0.71821(3) 0.87532(7)
H14_2 H 0.549311 0.788347 0.996376
P1_2 P 0.72357(5) 0.76702(2) 0.82385(3)
H23 H 0.456212 0.665989 0.99326
H23_2 H 0.543788 0.334011 0.00674033
H24_2 H 0.529516 0.310843 0.878788
H30_2 H 0.411302 0.723437 0.0448309
H29_2 H 0.434393 0.678627 0.9651
loop_
_geom_bond_atom_site_label_1
_geom_bond_atom_site_label_2
_geom_bond_site_symmetry_1
_geom_bond_site_symmetry_2
C1 H1 1_555 1_555
H2 C1 1_555 1_555
H3 C1 1_555 1_555
N1 C1 1_555 1_555
H4 N1 1_555 1_555
H5 N1 1_555 1_555
H6 N1 1_555 1_555
C1_2 H1_2 1_555 1_555
H2_2 C1_2 1_555 1_555
H3_2 C1_2 1_555 1_555
N1_2 C1_2 1_555 1_555
H4_2 N1_2 1_555 1_555
H5_2 N1_2 1_555 1_555
H6_2 N1_2 1_555 1_555
C1_3 H1_3 1_555 1_555
H2_3 C1_3 1_555 1_555
H3_3 C1_3 1_555 1_555
N1_3 C1_3 1_555 1_555
H4_3 N1_3 1_555 1_555
H5_3 N1_3 1_555 1_555
H6_3 N1_3 1_555 1_555
C1_4 H1_4 1_555 1_555
H2_4 C1_4 1_555 1_555
H3_4 C1_4 1_555 1_555
N1_4 C1_4 1_555 1_555
H4_4 N1_4 1_555 1_555
H5_4 N1_4 1_555 1_555
H6_4 N1_4 1_555 1_555
C2 C3 1_555 1_555
C3 H7 1_555 1_555
H8 C3 1_555 1_555
H9 C3 1_555 1_555
O1 P1 1_555 1_555
O2 P1 1_555 1_555
O3 P1 1_555 1_555
O7 C2 1_555 1_555
H14 O7 1_555 1_555
O8 Zn1 1_555 1_555
P1 C2 1_555 1_555
Zn1 O1 1_555 1_555
O26 Zn1 1_555 1_555
Zn6 O3 1_555 1_555
Zn10 O2 1_555 1_555
O7 Zn1 1_555 1_555
O10 Zn1 1_555 1_555
C4 C5 1_555 1_555
C5 C6 1_555 1_555
C6 H10 1_555 1_555
C7 C6 1_555 1_555
H11 C7 1_555 1_555
C8 C7 1_555 1_555
C9 C8 1_555 1_555
H12 C9 1_555 1_555
C10 C5 1_555 1_555
O4 P2 1_555 1_555
O5 P2 1_555 1_555
O6 P2 1_555 1_555
O9 Zn2 1_555 1_555
O11 C4 1_555 1_555
Zn2 O4 1_555 1_555
O24 Zn2 1_555 1_555
O28 Zn2 1_555 1_555
C9 C10 1_555 1_555
O6 Zn10 1_555 1_555
O11 Zn2 1_555 1_555
C11 C12 1_555 1_555
C12 C13 1_555 1_555
C13 H15 1_555 1_555
C14 C13 1_555 1_555
H16 C14 1_555 1_555
C16 C15 1_555 1_555
H17 C16 1_555 1_555
C17 C12 1_555 1_555
O13 C11 1_555 1_555
O17 P4 1_555 1_555
O18 P4 1_555 1_555
O19 P4 1_555 1_555
O22 Zn4 1_555 1_555
Zn4 O13 1_555 1_555
O23 Zn4 1_555 1_555
O27 Zn4 1_555 1_555
C14 C15 1_555 1_555
C16 C17 1_555 1_555
O17 Zn4 1_555 1_555
O19 Zn8 1_555 1_555
C18 C19 1_555 1_555
C19 H19 1_555 1_555
H20 C19 1_555 1_555
H21 C19 1_555 1_555
O14 P3 1_555 1_555
O15 P3 1_555 1_555
O16 P3 1_555 1_555
O20 C18 1_555 1_555
H22 O20 1_555 1_555
O21 Zn3 1_555 1_555
P3 C18 1_555 1_555
Zn3 O12 1_555 1_555
O25 Zn3 1_555 1_555
Zn5 O16 1_555 1_555
Zn8 O15 1_555 1_555
O14 Zn3 1_555 1_555
O20 Zn3 1_555 1_555
C18_2 C19_2 1_555 1_555
C19_2 H19_2 1_555 1_555
H20_2 C19_2 1_555 1_555
H21_2 C19_2 1_555 1_555
O14_2 P3_2 1_555 1_555
O24 P3_2 1_555 1_555
O26 P3_2 1_555 1_555
P3_2 C18_2 1_555 1_555
O21_2 Zn6 1_555 1_555
Zn6 O12_2 1_555 1_555
O20_2 Zn6 1_555 1_555
O21_2 H30 1_555 1_555
C4_2 C5_2 1_555 1_555
C5_2 C6_2 1_555 1_555
C6_2 H10_2 1_555 1_555
C7_2 C6_2 1_555 1_555
H11_2 C7_2 1_555 1_555
C8_2 C7_2 1_555 1_555
O4_2 P2_2 1_555 1_555
O5_2 P2_2 1_555 1_555
O9_2 Zn8 1_555 1_555
O11_2 C4_2 1_555 1_555
Zn8 O4_2 1_555 1_555
H17_2 C16_2 1_555 1_555
O11_2 Zn8 1_555 1_555
C16_2 C17_2 1_555 1_555
H12_2 C9_2 1_555 1_555
C11_2 C12_2 1_555 1_555
C12_2 C13_2 1_555 1_555
C13_2 H15_2 1_555 1_555
C14_2 C13_2 1_555 1_555
H16_2 C14_2 1_555 1_555
O13_2 C11_2 1_555 1_555
O17_2 P4_2 1_555 1_555
O18_2 P4_2 1_555 1_555
O22_2 Zn10 1_555 1_555
Zn10 O13_2 1_555 1_555
C9_2 C10_2 1_555 1_555
C14_2 C15_2 1_555 1_555
O17_2 Zn10 1_555 1_555
O8_2 Zn5 1_555 1_555
O7_2 Zn5 1_555 1_555
O10_2 Zn5 1_555 1_555
O8_2 H24 1_555 1_555
C2_2 C3_2 1_555 1_555
C3_2 H7_2 1_555 1_555
H8_2 C3_2 1_555 1_555
H9_2 C3_2 1_555 1_555
O1_2 P1_2 1_555 1_555
O23 P1_2 1_555 1_555
O25 P1_2 1_555 1_555
P1_2 C2_2 1_555 1_555
O21_2 H24_2 1_555 1_555
O8_2 H30_2 1_555 1_555

#END
