
###############################################################################
#
# This file contains modified crystal structure data generated from the
# MOF subset of the Cambridge Structural Database (CSD) v543 
# hosted by the Cambridge Crystallographic Data Centre (CCDC).
#
# This work is licensed under the Creative Commons
# Attribution-NonCommercial-ShareAlike 4.0 International License.
# To view a copy of this license, visit
# http://creativecommons.org/licenses/by-nc-sa/4.0/
# or send a letter to
# Creative Commons, PO Box 1866, Mountain View, CA 94042, USA.
#
# CIF created using the CSD Python API on 29 September 2022
# The structure has been converted into the P1 space group
# The structure has a 3D framework
# The original CSD entry ROTNUM01 is in the orthorhombic crystal system
# The framework has been calculated to contain at least 10.0% void space
# The void calculation uses a probe of radius 1.32A, grid spacing 0.4
# H atom positions have been added when not included in the experimental data
# Generated hydrogen atom positions removed from atoms on special positions
#
###############################################################################

data_ROTNUM01
_chemical_formula_moiety         '(C128 H144 N32 O55 Zr11)n'
_symmetry_cell_setting           triclinic
_symmetry_space_group_name_H-M   'P 1'
_symmetry_Int_Tables_number      1
_space_group_name_Hall           'P 1'
loop_
_symmetry_equiv_pos_site_id
_symmetry_equiv_pos_as_xyz
1 x,y,z
_cell_length_a                   31.368(3)
_cell_length_b                   19.7030(16)
_cell_length_c                   22.4548(19)
_cell_angle_alpha                90
_cell_angle_beta                 90
_cell_angle_gamma                90
_cell_volume                     13878
loop_
_atom_site_label
_atom_site_type_symbol
_atom_site_fract_x
_atom_site_fract_y
_atom_site_fract_z
O4 O 0.0147(3) 0.3940(6) 0.0000
Zr4 Zr 0.07305(3) 0.45602(7) 0.0000
O18 O 0.0567(4) 0.5647(6) 0.0000
O4_2 O 0.0147(3) 0.3940(6) 1.0000
Zr3 Zr 0.01999(3) 0.58325(6) 0.92129(4)
O10 O 0.12199(18) 0.4986(4) 0.9405(3)
O11 O 0.0364(2) 0.4783(4) 0.9212(4)
O12 O 0.4084(2) 0.8734(4) 0.5604(3)
O13 O 0.0885(2) 0.5795(5) 0.8889(4)
O14 O 0.4684(2) 0.8459(5) 0.6114(4)
C17 C 0.1215(3) 0.5445(6) 0.9038(4)
C18 C 0.4280(4) 0.8395(5) 0.6009(5)
C19 C 0.4033(4) 0.7921(6) 0.6359(5)
N5 N 0.2893(3) 0.6597(6) 0.7561(4)
C20 C 0.1604(4) 0.5614(6) 0.8748(6)
C21 C 0.3611(6) 0.7861(8) 0.6308(7)
H9 H 0.3472 0.8156 0.6036
C22 C 0.1986(5) 0.5294(7) 0.8904(7)
H10 H 0.1981 0.4969 0.9217
C23 C 0.1621(6) 0.6072(8) 0.8297(7)
H11 H 0.1363 0.6292 0.8187
C24 C 0.3520(5) 0.6926(7) 0.7044(6)
C25 C 0.3368(6) 0.7419(8) 0.6608(7)
H12 H 0.3070 0.7426 0.6529
C26 C 0.2377(6) 0.5429(8) 0.8621(8)
H13 H 0.2627 0.5201 0.8754
C27 C 0.4223(6) 0.7506(8) 0.6741(7)
H14 H 0.4523 0.7527 0.6800
C28 C 0.2410(5) 0.5912(6) 0.8127(6)
C29 C 0.2010(7) 0.6252(10) 0.7964(9)
H15 H 0.2003 0.6579 0.7653
N6 N 0.2682(4) 0.7124(7) 0.7508(7)
C30 C 0.3966(7) 0.7018(9) 0.7070(8)
H16 H 0.4116 0.6726 0.7333
C31 C 0.2769(4) 0.6037(6) 0.7844(4)
C32 C 0.3289(3) 0.6500(7) 0.7342(4)
N7 N 0.3412(4) 0.5867(8) 0.7489(7)
N8 N 0.3084(5) 0.5571(6) 0.7802(7)
O15 O 0.0169(3) 0.5713(7) 0.8257(4)
O16 O 0.0446(3) 0.6889(5) 0.9251(5)
Zr4_2 Zr 0.07305(3) 0.45602(7) 1.0000
Zr6 Zr 0.42695(3) 0.95602(7) 0.5000
Zr7 Zr 0.51999(3) 0.91675(6) 0.57871(4)
O18_2 O 0.0567(4) 0.5647(6) 1.0000
O24 O 0.0316(2) 0.3459(5) 0.8886(4)
H20 H 0.0100478 0.408598 0.810621
H21 H 0.261499 0.731408 0.791756
H22 H 0.285201 0.747031 0.727224
H24 H 0.0410319 0.595955 0.806961
Zr1 Zr 0.92695(3) 0.54398(7) 0.0000
O2 O 0.9433(4) 0.4353(6) 0.0000
Zr9 Zr 0.98001(3) 0.41675(6) 0.07871(4)
O17 O 0.87801(18) 0.5014(4) 0.0595(3)
O19 O 0.9636(2) 0.5217(4) 0.0788(4)
O20 O 0.9853(3) 0.6060(6) 0.0000
O22 O 0.9084(2) 0.6266(4) 0.0604(3)
Zr1_2 Zr 0.92695(3) 0.54398(7) 1.0000
Zr2 Zr 0.98001(3) 0.41675(6) 0.92129(4)
O1 O 0.87801(18) 0.5014(4) 0.9405(3)
O2_2 O 0.9433(4) 0.4353(6) 1.0000
O3 O 0.9636(2) 0.5217(4) 0.9212(4)
O5 O 0.5916(2) 0.1266(4) 0.5604(3)
O6 O 0.9115(2) 0.4205(5) 0.8889(4)
O7 O 0.5316(2) 0.1541(5) 0.6114(4)
C1 C 0.8785(3) 0.4555(6) 0.9038(4)
C2 C 0.5720(4) 0.1605(5) 0.6009(5)
C3 C 0.5967(4) 0.2079(6) 0.6359(5)
N1 N 0.7107(3) 0.3403(6) 0.7561(4)
C4 C 0.8396(4) 0.4386(6) 0.8748(6)
C5 C 0.6389(6) 0.2139(8) 0.6308(7)
H1 H 0.6528 0.1844 0.6036
C6 C 0.8014(5) 0.4706(7) 0.8904(7)
H2 H 0.8019 0.5031 0.9217
C7 C 0.8379(6) 0.3928(8) 0.8297(7)
H3 H 0.8637 0.3708 0.8187
C8 C 0.6480(5) 0.3074(7) 0.7044(6)
C9 C 0.6632(6) 0.2581(8) 0.6608(7)
H4 H 0.6930 0.2574 0.6529
C10 C 0.7623(6) 0.4571(8) 0.8621(8)
H5 H 0.7373 0.4799 0.8754
C11 C 0.5777(6) 0.2494(8) 0.6741(7)
H6 H 0.5477 0.2473 0.6800
C12 C 0.7590(5) 0.4088(6) 0.8127(6)
C13 C 0.7990(7) 0.3748(10) 0.7964(9)
H7 H 0.7997 0.3421 0.7653
N2 N 0.7318(4) 0.2876(7) 0.7508(7)
C14 C 0.6034(7) 0.2982(9) 0.7070(8)
H8 H 0.5884 0.3274 0.7333
C15 C 0.7231(4) 0.3963(6) 0.7844(4)
C16 C 0.6711(3) 0.3500(7) 0.7342(4)
N3 N 0.6588(4) 0.4133(8) 0.7489(7)
N4 N 0.6916(5) 0.4429(6) 0.7802(7)
O8 O 0.9831(3) 0.4287(7) 0.8257(4)
O9 O 0.9554(3) 0.3111(5) 0.9251(5)
Zr5 Zr 0.57305(3) 0.04398(7) 0.5000
Zr8 Zr 0.48001(3) 0.08325(6) 0.57871(4)
O20_2 O 0.9853(3) 0.6060(6) 1.0000
O21 O 0.9084(2) 0.6266(4) 0.9396(3)
O23 O 0.9684(2) 0.6541(5) 0.8886(4)
H17 H 0.738501 0.268592 0.791756
H18 H 0.714799 0.252969 0.727224
H19 H 0.982213 0.477724 0.815519
H23 H 0.98954 0.590097 0.810773
Zr9_2 Zr 0.01999(3) 0.58325(6) 0.07871(4)
O17_2 O 0.12199(18) 0.4986(4) 0.0595(3)
O19_2 O 0.0364(2) 0.4783(4) 0.0788(4)
O22_2 O 0.0916(2) 0.3734(4) 0.0604(3)
O21_2 O 0.0916(2) 0.3734(4) 0.9396(3)
H19_2 H 0.017787 0.522276 0.815519
H23_2 H 0.0104595 0.409903 0.810773
H20_2 H 0.989952 0.591402 0.810621
H24_2 H 0.958968 0.404045 0.806961
O1_2 O 0.62199(18) 0.0014(4) 0.5595(3)
O3_2 O 0.5364(2) 0.0217(4) 0.5788(4)
H2_2 H 0.6981 0.0031 0.5783
O13_2 O 0.4115(2) 0.0795(5) 0.6111(4)
C17_2 C 0.3785(3) 0.0445(6) 0.5962(4)
C18_2 C 0.0720(4) 0.3395(5) 0.8991(5)
C19_2 C 0.0967(4) 0.2921(6) 0.8641(5)
N5_2 N 0.2107(3) 0.1597(6) 0.7439(4)
C20_2 C 0.3396(4) 0.0614(6) 0.6252(6)
C21_2 C 0.1389(6) 0.2861(8) 0.8692(7)
H9_2 H 0.1528 0.3156 0.8964
C22_2 C 0.3014(5) 0.0294(7) 0.6096(7)
C23_2 C 0.3379(6) 0.1072(8) 0.6703(7)
H11_2 H 0.3637 0.1292 0.6813
C24_2 C 0.1480(5) 0.1926(7) 0.7956(6)
C25_2 C 0.1632(6) 0.2419(8) 0.8392(7)
H12_2 H 0.1930 0.2426 0.8471
C26_2 C 0.2623(6) 0.0429(8) 0.6379(8)
H13_2 H 0.2373 0.0201 0.6246
C27_2 C 0.0777(6) 0.2506(8) 0.8259(7)
H14_2 H 0.0477 0.2527 0.8200
C28_2 C 0.2590(5) 0.0912(6) 0.6873(6)
C29_2 C 0.2990(7) 0.1252(10) 0.7036(9)
H15_2 H 0.2997 0.1579 0.7347
N6_2 N 0.2318(4) 0.2124(7) 0.7492(7)
C30_2 C 0.1034(7) 0.2018(9) 0.7930(8)
H16_2 H 0.0884 0.1726 0.7667
C31_2 C 0.2231(4) 0.1037(6) 0.7156(4)
C32_2 C 0.1711(3) 0.1500(7) 0.7658(4)
N7_2 N 0.1588(4) 0.0867(8) 0.7511(7)
N8_2 N 0.1916(5) 0.0571(6) 0.7198(7)
O15_2 O 0.4831(3) 0.0713(7) 0.6743(4)
O16_2 O 0.4554(3) 0.1889(5) 0.5749(5)
O17_3 O 0.62199(18) 0.0014(4) 0.4405(3)
O18_3 O 0.4433(4) 0.0647(6) 0.5000
O19_3 O 0.5364(2) 0.0217(4) 0.4212(4)
O20_3 O 0.5147(3) 0.1060(6) 0.5000
O22_3 O 0.5916(2) 0.1266(4) 0.4396(3)
H21_2 H 0.238501 0.231408 0.708244
H22_2 H 0.214799 0.247031 0.772776
O2_3 O 0.5567(4) 0.9353(6) 0.5000
O4_3 O 0.4853(3) 0.8940(6) 0.5000
O6_2 O 0.5885(2) 0.9205(5) 0.6111(4)
C1_2 C 0.6215(3) 0.9555(6) 0.5962(4)
C2_2 C 0.9280(4) 0.6605(5) 0.8991(5)
C3_2 C 0.9033(4) 0.7079(6) 0.8641(5)
N1_2 N 0.7893(3) 0.8403(6) 0.7439(4)
C4_2 C 0.6604(4) 0.9386(6) 0.6252(6)
C5_2 C 0.8611(6) 0.7139(8) 0.8692(7)
H1_2 H 0.8472 0.6844 0.8964
C6_2 C 0.6986(5) 0.9706(7) 0.6096(7)
C7_2 C 0.6621(6) 0.8928(8) 0.6703(7)
H3_2 H 0.6363 0.8708 0.6813
C8_2 C 0.8520(5) 0.8074(7) 0.7956(6)
C9_2 C 0.8368(6) 0.7581(8) 0.8392(7)
H4_2 H 0.8070 0.7574 0.8471
C10_2 C 0.7377(6) 0.9571(8) 0.6379(8)
H5_2 H 0.7627 0.9799 0.6246
C11_2 C 0.9223(6) 0.7494(8) 0.8259(7)
H6_2 H 0.9523 0.7473 0.8200
C12_2 C 0.7410(5) 0.9088(6) 0.6873(6)
C13_2 C 0.7010(7) 0.8748(10) 0.7036(9)
H7_2 H 0.7003 0.8421 0.7347
N2_2 N 0.7682(4) 0.7876(7) 0.7492(7)
C14_2 C 0.8966(7) 0.7982(9) 0.7930(8)
H8_2 H 0.9116 0.8274 0.7667
C15_2 C 0.7769(4) 0.8963(6) 0.7156(4)
C16_2 C 0.8289(3) 0.8500(7) 0.7658(4)
N3_2 N 0.8412(4) 0.9133(8) 0.7511(7)
N4_2 N 0.8084(5) 0.9429(6) 0.7198(7)
O8_2 O 0.5169(3) 0.9287(7) 0.6743(4)
O9_2 O 0.5446(3) 0.8111(5) 0.5749(5)
O10_2 O 0.37801(18) 0.9986(4) 0.5595(3)
O11_2 O 0.4636(2) 0.9783(4) 0.5788(4)
H10_2 H 0.3019 0.9969 0.5783
Zr9_3 Zr 0.51999(3) 0.91675(6) 0.42129(4)
H17_2 H 0.761499 0.768592 0.708244
H18_2 H 0.785201 0.752969 0.772776
Zr9_4 Zr 0.48001(3) 0.08325(6) 0.42129(4)
O17_4 O 0.37801(18) 0.9986(4) 0.4405(3)
O19_4 O 0.4636(2) 0.9783(4) 0.4212(4)
O22_4 O 0.4084(2) 0.8734(4) 0.4396(3)
O6_3 O 0.0885(2) 0.5795(5) 0.1111(4)
O7_2 O 0.4684(2) 0.8459(5) 0.3886(4)
C1_3 C 0.1215(3) 0.5445(6) 0.0962(4)
C2_3 C 0.4280(4) 0.8395(5) 0.3991(5)
C3_3 C 0.4033(4) 0.7921(6) 0.3641(5)
N1_3 N 0.2893(3) 0.6597(6) 0.2439(4)
C4_3 C 0.1604(4) 0.5614(6) 0.1252(6)
C5_3 C 0.3611(6) 0.7861(8) 0.3692(7)
H1_3 H 0.3472 0.8156 0.3964
C6_3 C 0.1986(5) 0.5294(7) 0.1096(7)
H2_3 H 0.1981 0.4969 0.0783
C7_3 C 0.1621(6) 0.6072(8) 0.1703(7)
H3_3 H 0.1363 0.6292 0.1813
C8_3 C 0.3520(5) 0.6926(7) 0.2956(6)
C9_3 C 0.3368(6) 0.7419(8) 0.3392(7)
H4_3 H 0.3070 0.7426 0.3471
C10_3 C 0.2377(6) 0.5429(8) 0.1379(8)
H5_3 H 0.2627 0.5201 0.1246
C11_3 C 0.4223(6) 0.7506(8) 0.3259(7)
H6_3 H 0.4523 0.7527 0.3200
C12_3 C 0.2410(5) 0.5912(6) 0.1873(6)
C13_3 C 0.2010(7) 0.6252(10) 0.2036(9)
H7_3 H 0.2003 0.6579 0.2347
N2_3 N 0.2682(4) 0.7124(7) 0.2492(7)
C14_3 C 0.3966(7) 0.7018(9) 0.2930(8)
H8_3 H 0.4116 0.6726 0.2667
C15_3 C 0.2769(4) 0.6037(6) 0.2156(4)
C16_3 C 0.3289(3) 0.6500(7) 0.2658(4)
N3_3 N 0.3412(4) 0.5867(8) 0.2511(7)
N4_3 N 0.3084(5) 0.5571(6) 0.2198(7)
O8_3 O 0.0169(3) 0.5713(7) 0.1743(4)
O9_3 O 0.0446(3) 0.6889(5) 0.0749(5)
O23_2 O 0.0316(2) 0.3459(5) 0.1114(4)
H17_3 H 0.261499 0.731408 0.208244
H18_3 H 0.285201 0.747031 0.272776
H19_3 H 0.017787 0.522276 0.184481
H23_3 H 0.0104595 0.409903 0.189227
O13_3 O 0.9115(2) 0.4205(5) 0.1111(4)
O14_2 O 0.5316(2) 0.1541(5) 0.3886(4)
C17_3 C 0.8785(3) 0.4555(6) 0.0962(4)
C18_3 C 0.5720(4) 0.1605(5) 0.3991(5)
C19_3 C 0.5967(4) 0.2079(6) 0.3641(5)
N5_3 N 0.7107(3) 0.3403(6) 0.2439(4)
C20_3 C 0.8396(4) 0.4386(6) 0.1252(6)
C21_3 C 0.6389(6) 0.2139(8) 0.3692(7)
H9_3 H 0.6528 0.1844 0.3964
C22_3 C 0.8014(5) 0.4706(7) 0.1096(7)
H10_3 H 0.8019 0.5031 0.0783
C23_3 C 0.8379(6) 0.3928(8) 0.1703(7)
H11_3 H 0.8637 0.3708 0.1813
C24_3 C 0.6480(5) 0.3074(7) 0.2956(6)
C25_3 C 0.6632(6) 0.2581(8) 0.3392(7)
H12_3 H 0.6930 0.2574 0.3471
C26_3 C 0.7623(6) 0.4571(8) 0.1379(8)
H13_3 H 0.7373 0.4799 0.1246
C27_3 C 0.5777(6) 0.2494(8) 0.3259(7)
H14_3 H 0.5477 0.2473 0.3200
C28_3 C 0.7590(5) 0.4088(6) 0.1873(6)
C29_3 C 0.7990(7) 0.3748(10) 0.2036(9)
H15_3 H 0.7997 0.3421 0.2347
N6_3 N 0.7318(4) 0.2876(7) 0.2492(7)
C30_3 C 0.6034(7) 0.2982(9) 0.2930(8)
H16_3 H 0.5884 0.3274 0.2667
C31_3 C 0.7231(4) 0.3963(6) 0.2156(4)
C32_3 C 0.6711(3) 0.3500(7) 0.2658(4)
N7_3 N 0.6588(4) 0.4133(8) 0.2511(7)
N8_3 N 0.6916(5) 0.4429(6) 0.2198(7)
O15_3 O 0.9831(3) 0.4287(7) 0.1743(4)
O16_3 O 0.9554(3) 0.3111(5) 0.0749(5)
O24_2 O 0.9684(2) 0.6541(5) 0.1114(4)
H20_3 H 0.989952 0.591402 0.189379
H21_3 H 0.738501 0.268592 0.208244
H22_3 H 0.714799 0.252969 0.272776
H24_3 H 0.958968 0.404045 0.193039
H20_4 H 0.0100478 0.408598 0.189379
H24_4 H 0.0410319 0.595955 0.193039
H19_4 H 0.982213 0.477724 0.184481
H23_4 H 0.98954 0.590097 0.189227
O6_4 O 0.4115(2) 0.0795(5) 0.3889(4)
C1_4 C 0.3785(3) 0.0445(6) 0.4038(4)
C2_4 C 0.0720(4) 0.3395(5) 0.1009(5)
C3_4 C 0.0967(4) 0.2921(6) 0.1359(5)
N1_4 N 0.2107(3) 0.1597(6) 0.2561(4)
C4_4 C 0.3396(4) 0.0614(6) 0.3748(6)
C5_4 C 0.1389(6) 0.2861(8) 0.1308(7)
H1_4 H 0.1528 0.3156 0.1036
C6_4 C 0.3014(5) 0.0294(7) 0.3904(7)
C7_4 C 0.3379(6) 0.1072(8) 0.3297(7)
H3_4 H 0.3637 0.1292 0.3187
C8_4 C 0.1480(5) 0.1926(7) 0.2044(6)
C9_4 C 0.1632(6) 0.2419(8) 0.1608(7)
H4_4 H 0.1930 0.2426 0.1529
C10_4 C 0.2623(6) 0.0429(8) 0.3621(8)
H5_4 H 0.2373 0.0201 0.3754
C11_4 C 0.0777(6) 0.2506(8) 0.1741(7)
H6_4 H 0.0477 0.2527 0.1800
C12_4 C 0.2590(5) 0.0912(6) 0.3127(6)
C13_4 C 0.2990(7) 0.1252(10) 0.2964(9)
H7_4 H 0.2997 0.1579 0.2653
N2_4 N 0.2318(4) 0.2124(7) 0.2508(7)
C14_4 C 0.1034(7) 0.2018(9) 0.2070(8)
H8_4 H 0.0884 0.1726 0.2333
C15_4 C 0.2231(4) 0.1037(6) 0.2844(4)
C16_4 C 0.1711(3) 0.1500(7) 0.2342(4)
N3_4 N 0.1588(4) 0.0867(8) 0.2489(7)
N4_4 N 0.1916(5) 0.0571(6) 0.2802(7)
O8_4 O 0.4831(3) 0.0713(7) 0.3257(4)
O9_4 O 0.4554(3) 0.1889(5) 0.4251(5)
H10_4 H 0.6981 0.0031 0.4217
H17_4 H 0.238501 0.231408 0.291756
H18_4 H 0.214799 0.247031 0.227224
H2_4 H 0.3019 0.9969 0.4217
O13_4 O 0.5885(2) 0.9205(5) 0.3889(4)
C17_4 C 0.6215(3) 0.9555(6) 0.4038(4)
C18_4 C 0.9280(4) 0.6605(5) 0.1009(5)
C19_4 C 0.9033(4) 0.7079(6) 0.1359(5)
N5_4 N 0.7893(3) 0.8403(6) 0.2561(4)
C20_4 C 0.6604(4) 0.9386(6) 0.3748(6)
C21_4 C 0.8611(6) 0.7139(8) 0.1308(7)
H9_4 H 0.8472 0.6844 0.1036
C22_4 C 0.6986(5) 0.9706(7) 0.3904(7)
C23_4 C 0.6621(6) 0.8928(8) 0.3297(7)
H11_4 H 0.6363 0.8708 0.3187
C24_4 C 0.8520(5) 0.8074(7) 0.2044(6)
C25_4 C 0.8368(6) 0.7581(8) 0.1608(7)
H12_4 H 0.8070 0.7574 0.1529
C26_4 C 0.7377(6) 0.9571(8) 0.3621(8)
H13_4 H 0.7627 0.9799 0.3754
C27_4 C 0.9223(6) 0.7494(8) 0.1741(7)
H14_4 H 0.9523 0.7473 0.1800
C28_4 C 0.7410(5) 0.9088(6) 0.3127(6)
C29_4 C 0.7010(7) 0.8748(10) 0.2964(9)
H15_4 H 0.7003 0.8421 0.2653
N6_4 N 0.7682(4) 0.7876(7) 0.2508(7)
C30_4 C 0.8966(7) 0.7982(9) 0.2070(8)
H16_4 H 0.9116 0.8274 0.2333
C31_4 C 0.7769(4) 0.8963(6) 0.2844(4)
C32_4 C 0.8289(3) 0.8500(7) 0.2342(4)
N7_4 N 0.8412(4) 0.9133(8) 0.2489(7)
N8_4 N 0.8084(5) 0.9429(6) 0.2802(7)
O15_4 O 0.5169(3) 0.9287(7) 0.3257(4)
O16_4 O 0.5446(3) 0.8111(5) 0.4251(5)
H21_4 H 0.761499 0.768592 0.291756
H22_4 H 0.785201 0.752969 0.227224
loop_
_geom_bond_atom_site_label_1
_geom_bond_atom_site_label_2
_geom_bond_site_symmetry_1
_geom_bond_site_symmetry_2
Zr4 O4 1_555 1_555
Zr4 O18 1_555 1_555
O10 C17 1_555 1_555
O12 C18 1_555 1_555
O13 Zr3 1_555 1_555
O14 C18 1_555 1_555
C17 O13 1_555 1_555
C18 C19 1_555 1_555
C19 C21 1_555 1_555
N5 N6 1_555 1_555
C20 C17 1_555 1_555
C21 H9 1_555 1_555
C22 C20 1_555 1_555
H10 C22 1_555 1_555
C23 C20 1_555 1_555
H11 C23 1_555 1_555
C24 C25 1_555 1_555
C25 C21 1_555 1_555
H12 C25 1_555 1_555
C26 C22 1_555 1_555
H13 C26 1_555 1_555
C27 C19 1_555 1_555
H14 C27 1_555 1_555
C28 C26 1_555 1_555
C29 C23 1_555 1_555
H15 C29 1_555 1_555
C30 C24 1_555 1_555
H16 C30 1_555 1_555
C31 N5 1_555 1_555
C32 N5 1_555 1_555
N7 C32 1_555 1_555
N8 C31 1_555 1_555
O15 Zr3 1_555 1_555
O16 Zr3 1_555 1_555
Zr4_2 O4_2 1_555 1_555
Zr6 O12 1_555 1_555
Zr7 O14 1_555 1_555
O18_2 Zr3 1_555 1_555
Zr3 O11 1_555 1_555
O10 Zr4_2 1_555 1_555
O11 Zr4_2 1_555 1_555
C24 C32 1_555 1_555
C27 C30 1_555 1_555
C28 C29 1_555 1_555
C28 C31 1_555 1_555
N7 N8 1_555 1_555
Zr4_2 O18_2 1_555 1_555
N6 H21 1_555 1_555
N6 H22 1_555 1_555
O15 H24 1_555 1_555
O2 Zr1 1_555 1_555
Zr9 O2 1_555 1_555
O17 Zr1 1_555 1_555
O19 Zr1 1_555 1_555
O20 Zr1 1_555 1_555
O22 Zr1 1_555 1_555
Zr9 O19 1_555 1_555
Zr1_2 O1 1_555 1_555
Zr2 O2_2 1_555 1_555
O1 C1 1_555 1_555
O2_2 Zr1_2 1_555 1_555
O3 Zr1_2 1_555 1_555
O5 C2 1_555 1_555
O6 Zr2 1_555 1_555
O7 C2 1_555 1_555
C1 O6 1_555 1_555
C2 C3 1_555 1_555
C3 C5 1_555 1_555
N1 N2 1_555 1_555
C4 C1 1_555 1_555
C5 H1 1_555 1_555
C6 C4 1_555 1_555
H2 C6 1_555 1_555
C7 C4 1_555 1_555
H3 C7 1_555 1_555
C8 C9 1_555 1_555
C9 C5 1_555 1_555
H4 C9 1_555 1_555
C10 C6 1_555 1_555
H5 C10 1_555 1_555
C11 C3 1_555 1_555
H6 C11 1_555 1_555
C12 C10 1_555 1_555
C13 C7 1_555 1_555
H7 C13 1_555 1_555
C14 C8 1_555 1_555
H8 C14 1_555 1_555
C15 N1 1_555 1_555
C16 N1 1_555 1_555
N3 C16 1_555 1_555
N4 C15 1_555 1_555
O8 Zr2 1_555 1_555
O9 Zr2 1_555 1_555
Zr5 O5 1_555 1_555
Zr8 O7 1_555 1_555
O20_2 Zr1_2 1_555 1_555
O21 Zr1_2 1_555 1_555
Zr2 O3 1_555 1_555
C8 C16 1_555 1_555
C11 C14 1_555 1_555
C12 C13 1_555 1_555
C12 C15 1_555 1_555
N3 N4 1_555 1_555
N2 H17 1_555 1_555
N2 H18 1_555 1_555
O8 H19 1_555 1_555
Zr9_2 O18 1_555 1_555
O17_2 Zr4 1_555 1_555
O19_2 Zr4 1_555 1_555
O22_2 Zr4 1_555 1_555
Zr9_2 O19_2 1_555 1_555
O21_2 Zr4_2 1_555 1_555
O15 H19_2 1_555 1_555
O8 H24_2 1_555 1_555
Zr5 O1_2 1_555 1_555
O3_2 Zr5 1_555 1_555
Zr8 O3_2 1_555 1_555
O21_2 C18_2 1_555 1_555
O13_2 Zr8 1_555 1_555
O24 C18_2 1_555 1_555
C17_2 O13_2 1_555 1_555
C18_2 C19_2 1_555 1_555
C19_2 C21_2 1_555 1_555
N5_2 N6_2 1_555 1_555
C20_2 C17_2 1_555 1_555
C21_2 H9_2 1_555 1_555
C22_2 C20_2 1_555 1_555
C23_2 C20_2 1_555 1_555
H11_2 C23_2 1_555 1_555
C24_2 C25_2 1_555 1_555
C25_2 C21_2 1_555 1_555
H12_2 C25_2 1_555 1_555
C26_2 C22_2 1_555 1_555
H13_2 C26_2 1_555 1_555
C27_2 C19_2 1_555 1_555
H14_2 C27_2 1_555 1_555
C28_2 C26_2 1_555 1_555
C29_2 C23_2 1_555 1_555
H15_2 C29_2 1_555 1_555
C30_2 C24_2 1_555 1_555
H16_2 C30_2 1_555 1_555
C31_2 N5_2 1_555 1_555
C32_2 N5_2 1_555 1_555
N7_2 C32_2 1_555 1_555
N8_2 C31_2 1_555 1_555
O15_2 Zr8 1_555 1_555
O16_2 Zr8 1_555 1_555
O17_3 Zr5 1_555 1_555
O18_3 Zr8 1_555 1_555
O19_3 Zr5 1_555 1_555
O20_3 Zr5 1_555 1_555
O22_3 Zr5 1_555 1_555
Zr8 O20_3 1_555 1_555
C24_2 C32_2 1_555 1_555
C27_2 C30_2 1_555 1_555
C28_2 C29_2 1_555 1_555
C28_2 C31_2 1_555 1_555
N7_2 N8_2 1_555 1_555
N6_2 H21_2 1_555 1_555
N6_2 H22_2 1_555 1_555
Zr7 O2_3 1_555 1_555
O4_3 Zr7 1_555 1_555
O21 C2_2 1_555 1_555
O6_2 Zr7 1_555 1_555
O23 C2_2 1_555 1_555
C1_2 O6_2 1_555 1_555
C2_2 C3_2 1_555 1_555
C3_2 C5_2 1_555 1_555
N1_2 N2_2 1_555 1_555
C4_2 C1_2 1_555 1_555
C5_2 H1_2 1_555 1_555
C6_2 C4_2 1_555 1_555
C7_2 C4_2 1_555 1_555
H3_2 C7_2 1_555 1_555
C8_2 C9_2 1_555 1_555
C9_2 C5_2 1_555 1_555
H4_2 C9_2 1_555 1_555
C10_2 C6_2 1_555 1_555
H5_2 C10_2 1_555 1_555
C11_2 C3_2 1_555 1_555
H6_2 C11_2 1_555 1_555
C12_2 C10_2 1_555 1_555
C13_2 C7_2 1_555 1_555
H7_2 C13_2 1_555 1_555
C14_2 C8_2 1_555 1_555
H8_2 C14_2 1_555 1_555
C15_2 N1_2 1_555 1_555
C16_2 N1_2 1_555 1_555
N3_2 C16_2 1_555 1_555
N4_2 C15_2 1_555 1_555
O8_2 Zr7 1_555 1_555
O9_2 Zr7 1_555 1_555
O11_2 Zr7 1_555 1_555
Zr6 O4_3 1_555 1_555
Zr9_3 O2_3 1_555 1_555
O4_3 Zr9_3 1_555 1_555
C8_2 C16_2 1_555 1_555
C11_2 C14_2 1_555 1_555
C12_2 C13_2 1_555 1_555
C12_2 C15_2 1_555 1_555
N3_2 N4_2 1_555 1_555
O10_2 Zr6 1_555 1_555
O11_2 Zr6 1_555 1_555
N2_2 H17_2 1_555 1_555
N2_2 H18_2 1_555 1_555
Zr9_4 O18_3 1_555 1_555
O20_3 Zr9_4 1_555 1_555
O17_4 Zr6 1_555 1_555
O19_4 Zr6 1_555 1_555
O22_4 Zr6 1_555 1_555
O17_2 C1_3 1_555 1_555
O22_4 C2_3 1_555 1_555
O6_3 Zr9_2 1_555 1_555
O7_2 C2_3 1_555 1_555
C1_3 O6_3 1_555 1_555
C2_3 C3_3 1_555 1_555
C3_3 C5_3 1_555 1_555
N1_3 N2_3 1_555 1_555
C4_3 C1_3 1_555 1_555
C5_3 H1_3 1_555 1_555
C6_3 C4_3 1_555 1_555
H2_3 C6_3 1_555 1_555
C7_3 C4_3 1_555 1_555
H3_3 C7_3 1_555 1_555
C8_3 C9_3 1_555 1_555
C9_3 C5_3 1_555 1_555
H4_3 C9_3 1_555 1_555
C10_3 C6_3 1_555 1_555
H5_3 C10_3 1_555 1_555
C11_3 C3_3 1_555 1_555
H6_3 C11_3 1_555 1_555
C12_3 C10_3 1_555 1_555
C13_3 C7_3 1_555 1_555
H7_3 C13_3 1_555 1_555
C14_3 C8_3 1_555 1_555
H8_3 C14_3 1_555 1_555
C15_3 N1_3 1_555 1_555
C16_3 N1_3 1_555 1_555
N3_3 C16_3 1_555 1_555
N4_3 C15_3 1_555 1_555
O8_3 Zr9_2 1_555 1_555
O9_3 Zr9_2 1_555 1_555
Zr9_3 O7_2 1_555 1_555
C8_3 C16_3 1_555 1_555
C11_3 C14_3 1_555 1_555
C12_3 C13_3 1_555 1_555
C12_3 C15_3 1_555 1_555
N3_3 N4_3 1_555 1_555
N2_3 H17_3 1_555 1_555
N2_3 H18_3 1_555 1_555
O8_3 H19_3 1_555 1_555
O17 C17_3 1_555 1_555
O22_3 C18_3 1_555 1_555
O13_3 Zr9 1_555 1_555
O14_2 C18_3 1_555 1_555
C17_3 O13_3 1_555 1_555
C18_3 C19_3 1_555 1_555
C19_3 C21_3 1_555 1_555
N5_3 N6_3 1_555 1_555
C20_3 C17_3 1_555 1_555
C21_3 H9_3 1_555 1_555
C22_3 C20_3 1_555 1_555
H10_3 C22_3 1_555 1_555
C23_3 C20_3 1_555 1_555
H11_3 C23_3 1_555 1_555
C24_3 C25_3 1_555 1_555
C25_3 C21_3 1_555 1_555
H12_3 C25_3 1_555 1_555
C26_3 C22_3 1_555 1_555
H13_3 C26_3 1_555 1_555
C27_3 C19_3 1_555 1_555
H14_3 C27_3 1_555 1_555
C28_3 C26_3 1_555 1_555
C29_3 C23_3 1_555 1_555
H15_3 C29_3 1_555 1_555
C30_3 C24_3 1_555 1_555
H16_3 C30_3 1_555 1_555
C31_3 N5_3 1_555 1_555
C32_3 N5_3 1_555 1_555
N7_3 C32_3 1_555 1_555
N8_3 C31_3 1_555 1_555
O15_3 Zr9 1_555 1_555
O16_3 Zr9 1_555 1_555
Zr9_4 O14_2 1_555 1_555
C24_3 C32_3 1_555 1_555
C27_3 C30_3 1_555 1_555
C28_3 C29_3 1_555 1_555
C28_3 C31_3 1_555 1_555
N7_3 N8_3 1_555 1_555
N6_3 H21_3 1_555 1_555
N6_3 H22_3 1_555 1_555
O15_3 H24_3 1_555 1_555
O8_3 H24_4 1_555 1_555
O15_3 H19_4 1_555 1_555
O22_2 C2_4 1_555 1_555
O6_4 Zr9_4 1_555 1_555
O23_2 C2_4 1_555 1_555
C1_4 O6_4 1_555 1_555
C2_4 C3_4 1_555 1_555
C3_4 C5_4 1_555 1_555
N1_4 N2_4 1_555 1_555
C4_4 C1_4 1_555 1_555
C5_4 H1_4 1_555 1_555
C6_4 C4_4 1_555 1_555
C7_4 C4_4 1_555 1_555
H3_4 C7_4 1_555 1_555
C8_4 C9_4 1_555 1_555
C9_4 C5_4 1_555 1_555
H4_4 C9_4 1_555 1_555
C10_4 C6_4 1_555 1_555
H5_4 C10_4 1_555 1_555
C11_4 C3_4 1_555 1_555
H6_4 C11_4 1_555 1_555
C12_4 C10_4 1_555 1_555
C13_4 C7_4 1_555 1_555
H7_4 C13_4 1_555 1_555
C14_4 C8_4 1_555 1_555
H8_4 C14_4 1_555 1_555
C15_4 N1_4 1_555 1_555
C16_4 N1_4 1_555 1_555
N3_4 C16_4 1_555 1_555
N4_4 C15_4 1_555 1_555
O8_4 Zr9_4 1_555 1_555
O9_4 Zr9_4 1_555 1_555
O19_3 Zr9_4 1_555 1_555
C8_4 C16_4 1_555 1_555
C11_4 C14_4 1_555 1_555
C12_4 C13_4 1_555 1_555
C12_4 C15_4 1_555 1_555
N3_4 N4_4 1_555 1_555
N2_4 H17_4 1_555 1_555
N2_4 H18_4 1_555 1_555
Zr9_3 O19_4 1_555 1_555
O22 C18_4 1_555 1_555
O13_4 Zr9_3 1_555 1_555
O24_2 C18_4 1_555 1_555
C17_4 O13_4 1_555 1_555
C18_4 C19_4 1_555 1_555
C19_4 C21_4 1_555 1_555
N5_4 N6_4 1_555 1_555
C20_4 C17_4 1_555 1_555
C21_4 H9_4 1_555 1_555
C22_4 C20_4 1_555 1_555
C23_4 C20_4 1_555 1_555
H11_4 C23_4 1_555 1_555
C24_4 C25_4 1_555 1_555
C25_4 C21_4 1_555 1_555
H12_4 C25_4 1_555 1_555
C26_4 C22_4 1_555 1_555
H13_4 C26_4 1_555 1_555
C27_4 C19_4 1_555 1_555
H14_4 C27_4 1_555 1_555
C28_4 C26_4 1_555 1_555
C29_4 C23_4 1_555 1_555
H15_4 C29_4 1_555 1_555
C30_4 C24_4 1_555 1_555
H16_4 C30_4 1_555 1_555
C31_4 N5_4 1_555 1_555
C32_4 N5_4 1_555 1_555
N7_4 C32_4 1_555 1_555
N8_4 C31_4 1_555 1_555
O15_4 Zr9_3 1_555 1_555
O16_4 Zr9_3 1_555 1_555
C24_4 C32_4 1_555 1_555
C27_4 C30_4 1_555 1_555
C28_4 C29_4 1_555 1_555
C28_4 C31_4 1_555 1_555
N7_4 N8_4 1_555 1_555
N6_4 H21_4 1_555 1_555
N6_4 H22_4 1_555 1_555

#END
