
###############################################################################
#
# This file contains modified crystal structure data generated from the
# MOF subset of the Cambridge Structural Database (CSD) v543 
# hosted by the Cambridge Crystallographic Data Centre (CCDC).
#
# This work is licensed under the Creative Commons
# Attribution-NonCommercial-ShareAlike 4.0 International License.
# To view a copy of this license, visit
# http://creativecommons.org/licenses/by-nc-sa/4.0/
# or send a letter to
# Creative Commons, PO Box 1866, Mountain View, CA 94042, USA.
#
# CIF created using the CSD Python API on 29 September 2022
# The structure has been converted into the P1 space group
# The structure has a 3D framework
# The original CSD entry ROTNUM is in the orthorhombic crystal system
# The framework has been calculated to contain at least 10.0% void space
# The void calculation uses a probe of radius 1.32A, grid spacing 0.4
# H atom positions have been added when not included in the experimental data
# Generated hydrogen atom positions removed from atoms on special positions
#
###############################################################################

data_ROTNUM
_chemical_formula_moiety         '(C128 H144 N32 O54 Zr11)n'
_symmetry_cell_setting           triclinic
_symmetry_space_group_name_H-M   'P 1'
_symmetry_Int_Tables_number      1
_space_group_name_Hall           'P 1'
loop_
_symmetry_equiv_pos_site_id
_symmetry_equiv_pos_as_xyz
1 x,y,z
_cell_length_a                   30.977(9)
_cell_length_b                   20.520(6)
_cell_length_c                   22.213(6)
_cell_angle_alpha                90
_cell_angle_beta                 90
_cell_angle_gamma                90
_cell_volume                     14119.6
loop_
_atom_site_label
_atom_site_type_symbol
_atom_site_fract_x
_atom_site_fract_y
_atom_site_fract_z
Zr6 Zr 0.92543(14) 0.0407(3) 0.0000
O10 O 0.8756(6) 0.0005(11) 0.9399(10)
Zr6_2 Zr 0.92543(14) 0.0407(3) 1.0000
Zr1 Zr 0.42543(14) 0.4593(3) 0.5000
Zr2 Zr 0.51950(11) 0.4189(3) 0.57877(19)
O2 O 0.0880(7) 0.0747(12) 0.8885(13)
O3 O 0.4675(8) 0.4930(15) 0.5763(13)
O4 O 0.4073(7) 0.3778(13) 0.5615(10)
O5 O 0.5562(14) 0.4264(19) 0.5000
O6 O 0.5418(10) 0.3188(16) 0.5652(19)
O7 O 0.4848(10) 0.4019(16) 0.5000
O8 O 0.5156(8) 0.441(2) 0.6761(13)
C1 C 0.1242(6) 0.0456(10) 0.8993(8)
O9 O 0.4678(7) 0.3510(18) 0.6113(14)
C2 C 0.4264(8) 0.3420(10) 0.6027(10)
C3 C 0.1637(6) 0.0627(8) 0.8680(8)
N1 N 0.2884(8) 0.1648(13) 0.7511(12)
C4 C 0.4014(8) 0.2948(9) 0.6367(8)
C5 C 0.3558(8) 0.2959(14) 0.6310(14)
H1 H 0.3423 0.3270 0.6056
C6 C 0.3304(7) 0.2500(17) 0.6636(16)
H2 H 0.2998 0.2504 0.6599
C7 C 0.2027(7) 0.0321(13) 0.8858(12)
H3 H 0.2027 0.0010 0.9175
C8 C 0.3966(11) 0.2027(12) 0.7073(12)
H4 H 0.4101 0.1717 0.7328
C9 C 0.3509(10) 0.2036(12) 0.7017(11)
C10 C 0.1632(7) 0.1090(12) 0.8208(11)
H5 H 0.1369 0.1292 0.8092
C11 C 0.2024(8) 0.1252(13) 0.7907(12)
H6 H 0.2021 0.1563 0.7590
C12 C 0.2419(6) 0.0482(15) 0.8559(14)
H7 H 0.2682 0.0279 0.8678
C13 C 0.4221(8) 0.2488(12) 0.6744(12)
H8 H 0.4526 0.2485 0.6780
C14 C 0.3298(8) 0.1604(14) 0.7329(14)
C15 C 0.2419(7) 0.0949(13) 0.8081(12)
N2 N 0.3136(10) 0.0706(15) 0.781(2)
C16 C 0.2791(7) 0.1098(13) 0.7808(11)
N3 N 0.3459(8) 0.1028(16) 0.7504(19)
N4 N 0.266(2) 0.204(4) 0.744(3)
Zr3 Zr 0.48050(11) 0.5811(3) 0.57877(19)
O11 O 0.9120(7) 0.9253(12) 0.8885(13)
O12 O 0.5325(8) 0.5070(15) 0.5763(13)
O13 O 0.5927(7) 0.6222(13) 0.5615(10)
O14 O 0.4582(10) 0.6812(16) 0.5652(19)
O15 O 0.4844(8) 0.559(2) 0.6761(13)
C17 C 0.8758(6) 0.9544(10) 0.8993(8)
O16 O 0.5322(7) 0.6490(18) 0.6113(14)
C18 C 0.5736(8) 0.6580(10) 0.6027(10)
C19 C 0.8363(6) 0.9373(8) 0.8680(8)
N5 N 0.7116(8) 0.8352(13) 0.7511(12)
C20 C 0.5986(8) 0.7052(9) 0.6367(8)
C21 C 0.6442(8) 0.7041(14) 0.6310(14)
H9 H 0.6577 0.6730 0.6056
C22 C 0.6696(7) 0.7500(17) 0.6636(16)
H10 H 0.7002 0.7496 0.6599
C23 C 0.7973(7) 0.9679(13) 0.8858(12)
H11 H 0.7973 0.9990 0.9175
C24 C 0.6034(11) 0.7973(12) 0.7073(12)
H12 H 0.5899 0.8283 0.7328
C25 C 0.6491(10) 0.7964(12) 0.7017(11)
C26 C 0.8368(7) 0.8910(12) 0.8208(11)
H13 H 0.8631 0.8708 0.8092
C27 C 0.7976(8) 0.8748(13) 0.7907(12)
H14 H 0.7979 0.8437 0.7590
C28 C 0.7581(6) 0.9518(15) 0.8559(14)
H15 H 0.7318 0.9721 0.8678
C29 C 0.5779(8) 0.7512(12) 0.6744(12)
H16 H 0.5474 0.7515 0.6780
C30 C 0.6702(8) 0.8396(14) 0.7329(14)
C31 C 0.7581(7) 0.9051(13) 0.8081(12)
N6 N 0.6864(10) 0.9294(15) 0.781(2)
C32 C 0.7209(7) 0.8902(13) 0.7808(11)
N7 N 0.6541(8) 0.8972(16) 0.7504(19)
N8 N 0.734(2) 0.796(4) 0.744(3)
Zr4 Zr 0.57457(14) 0.5407(3) 0.5000
Zr7 Zr 0.98050(11) 0.9189(3) 0.92123(19)
Zr8 Zr 0.01950(11) 0.0811(3) 0.92123(19)
Zr9 Zr 0.51950(11) 0.4189(3) 0.42123(19)
O17 O 0.3756(6) 0.4995(11) 0.5601(10)
O18 O 0.3756(6) 0.4995(11) 0.4399(10)
O19 O 0.4120(7) 0.5747(12) 0.6115(13)
O20 O 0.5880(7) 0.4253(12) 0.6115(13)
O21 O 0.4675(8) 0.4930(15) 0.4237(13)
O22 O 0.4073(7) 0.3778(13) 0.4385(10)
O23 O 0.4438(14) 0.5736(19) 0.5000
O24 O 0.5152(10) 0.5981(16) 0.5000
H21 H 0.261785 0.211005 0.69915
H22 H 0.237252 0.192665 0.763262
H27 H 0.738215 0.788995 0.69915
H28 H 0.762748 0.807335 0.763262
Zr5 Zr 0.07457(14) 0.9593(3) 0.0000
O1 O 0.1244(6) 0.9995(11) 0.9399(10)
Zr5_2 Zr 0.07457(14) 0.9593(3) 1.0000
Zr9_2 Zr 0.48050(11) 0.5811(3) 0.42123(19)
O17_2 O 0.6244(6) 0.5005(11) 0.5601(10)
O18_2 O 0.6244(6) 0.5005(11) 0.4399(10)
O21_2 O 0.5325(8) 0.5070(15) 0.4237(13)
O22_2 O 0.5927(7) 0.6222(13) 0.4385(10)
O23_2 O 0.0562(14) 0.0736(19) 0.0000
O14_2 O 0.0418(10) 0.1812(16) 0.9348(19)
O15_2 O 0.0156(8) 0.059(2) 0.8239(13)
O23_3 O 0.0562(14) 0.0736(19) 1.0000
H26 H 0.0080972 0.0992737 0.801433
O7_2 O 0.0152(10) 0.9019(16) 0.0000
O18_3 O 0.1244(6) 0.9995(11) 0.0601(10)
O21_3 O 0.0325(8) 0.9930(15) 0.0763(13)
O22_3 O 0.0927(7) 0.8778(13) 0.0615(10)
O3_2 O 0.0325(8) 0.9930(15) 0.9237(13)
O4_2 O 0.0927(7) 0.8778(13) 0.9385(10)
O7_3 O 0.0152(10) 0.9019(16) 1.0000
C1_2 C 0.3758(6) 0.5456(10) 0.6007(8)
O9_2 O 0.0322(7) 0.8510(18) 0.8887(14)
C2_2 C 0.0736(8) 0.8420(10) 0.8973(10)
C3_2 C 0.3363(6) 0.5627(8) 0.6320(8)
N1_2 N 0.2116(8) 0.6648(13) 0.7489(12)
C4_2 C 0.0986(8) 0.7948(9) 0.8633(8)
C5_2 C 0.1442(8) 0.7959(14) 0.8690(14)
H1_2 H 0.1577 0.8270 0.8944
C6_2 C 0.1696(7) 0.7500(17) 0.8364(16)
H2_2 H 0.2002 0.7504 0.8401
C7_2 C 0.2973(7) 0.5321(13) 0.6142(12)
H3_2 H 0.2973 0.5010 0.5825
C8_2 C 0.1034(11) 0.7027(12) 0.7927(12)
H4_2 H 0.0899 0.6717 0.7672
C9_2 C 0.1491(10) 0.7036(12) 0.7983(11)
C10_2 C 0.3368(7) 0.6090(12) 0.6792(11)
H5_2 H 0.3631 0.6292 0.6908
C11_2 C 0.2976(8) 0.6252(13) 0.7093(12)
H6_2 H 0.2979 0.6563 0.7410
C12_2 C 0.2581(6) 0.5482(15) 0.6441(14)
H7_2 H 0.2318 0.5279 0.6322
C13_2 C 0.0779(8) 0.7488(12) 0.8256(12)
H8_2 H 0.0474 0.7485 0.8220
C14_2 C 0.1702(8) 0.6604(14) 0.7671(14)
C15_2 C 0.2581(7) 0.5949(13) 0.6919(12)
N2_2 N 0.1864(10) 0.5706(15) 0.719(2)
C16_2 C 0.2209(7) 0.6098(13) 0.7192(11)
N3_2 N 0.1541(8) 0.6028(16) 0.7496(19)
N4_2 N 0.234(2) 0.704(4) 0.756(3)
H19 H 0.0138797 0.930943 0.809
H21_2 H 0.238215 0.711005 0.80085
H22_2 H 0.262748 0.692665 0.736738
O24_2 O 0.9848(10) 0.0981(16) 0.0000
O12_2 O 0.9675(8) 0.0070(15) 0.9237(13)
O13_2 O 0.9073(7) 0.1222(13) 0.9385(10)
C17_2 C 0.6242(6) 0.4544(10) 0.6007(8)
O16_2 O 0.9678(7) 0.1490(18) 0.8887(14)
C18_2 C 0.9264(8) 0.1580(10) 0.8973(10)
C19_2 C 0.6637(6) 0.4373(8) 0.6320(8)
N5_2 N 0.7884(8) 0.3352(13) 0.7489(12)
C20_2 C 0.9014(8) 0.2052(9) 0.8633(8)
C21_2 C 0.8558(8) 0.2041(14) 0.8690(14)
H9_2 H 0.8423 0.1730 0.8944
C22_2 C 0.8304(7) 0.2500(17) 0.8364(16)
H10_2 H 0.7998 0.2496 0.8401
C23_2 C 0.7027(7) 0.4679(13) 0.6142(12)
H11_2 H 0.7027 0.4990 0.5825
C24_2 C 0.8966(11) 0.2973(12) 0.7927(12)
H12_2 H 0.9101 0.3283 0.7672
C25_2 C 0.8509(10) 0.2964(12) 0.7983(11)
C26_2 C 0.6632(7) 0.3910(12) 0.6792(11)
H13_2 H 0.6369 0.3708 0.6908
C27_2 C 0.7024(8) 0.3748(13) 0.7093(12)
H14_2 H 0.7021 0.3437 0.7410
C28_2 C 0.7419(6) 0.4518(15) 0.6441(14)
H15_2 H 0.7682 0.4721 0.6322
C29_2 C 0.9221(8) 0.2512(12) 0.8256(12)
H16_2 H 0.9526 0.2515 0.8220
C30_2 C 0.8298(8) 0.3396(14) 0.7671(14)
C31_2 C 0.7419(7) 0.4051(13) 0.6919(12)
N6_2 N 0.8136(10) 0.4294(15) 0.719(2)
C32_2 C 0.7791(7) 0.3902(13) 0.7192(11)
N7_2 N 0.8459(8) 0.3972(16) 0.7496(19)
N8_2 N 0.766(2) 0.296(4) 0.756(3)
O24_3 O 0.9848(10) 0.0981(16) 1.0000
H25 H 0.993038 0.025468 0.816907
H27_2 H 0.761785 0.288995 0.80085
H28_2 H 0.737252 0.307335 0.736738
O5_2 O 0.9438(14) 0.9264(19) 0.0000
Zr9_3 Zr 0.98050(11) 0.9189(3) 0.07877(19)
O5_3 O 0.9438(14) 0.9264(19) 1.0000
O6_2 O 0.9582(10) 0.8188(16) 0.9348(19)
O8_2 O 0.9844(8) 0.941(2) 0.8239(13)
H20 H 0.963001 0.914088 0.801769
Zr9_4 Zr 0.01950(11) 0.0811(3) 0.07877(19)
H20_2 H 0.0369994 0.0859123 0.801769
H25_2 H 0.00696219 0.974532 0.816907
O18_4 O 0.8756(6) 0.0005(11) 0.0601(10)
O21_4 O 0.9675(8) 0.0070(15) 0.0763(13)
O22_4 O 0.9073(7) 0.1222(13) 0.0615(10)
H19_2 H 0.98612 0.0690568 0.809
H26_2 H 0.991903 0.900726 0.801433
O2_2 O 0.9120(7) 0.9253(12) 0.1115(13)
O6_3 O 0.4582(10) 0.6812(16) 0.4348(19)
O8_3 O 0.4844(8) 0.559(2) 0.3239(13)
C1_3 C 0.8758(6) 0.9544(10) 0.1007(8)
O9_3 O 0.5322(7) 0.6490(18) 0.3887(14)
C2_3 C 0.5736(8) 0.6580(10) 0.3973(10)
C3_3 C 0.8363(6) 0.9373(8) 0.1320(8)
N1_3 N 0.7116(8) 0.8352(13) 0.2489(12)
C4_3 C 0.5986(8) 0.7052(9) 0.3633(8)
C5_3 C 0.6442(8) 0.7041(14) 0.3690(14)
H1_3 H 0.6577 0.6730 0.3944
C6_3 C 0.6696(7) 0.7500(17) 0.3364(16)
H2_3 H 0.7002 0.7496 0.3401
C7_3 C 0.7973(7) 0.9679(13) 0.1142(12)
H3_3 H 0.7973 0.9990 0.0825
C8_3 C 0.6034(11) 0.7973(12) 0.2927(12)
H4_3 H 0.5899 0.8283 0.2672
C9_3 C 0.6491(10) 0.7964(12) 0.2983(11)
C10_3 C 0.8368(7) 0.8910(12) 0.1792(11)
H5_3 H 0.8631 0.8708 0.1908
C11_3 C 0.7976(8) 0.8748(13) 0.2093(12)
H6_3 H 0.7979 0.8437 0.2410
C12_3 C 0.7581(6) 0.9518(15) 0.1441(14)
H7_3 H 0.7318 0.9721 0.1322
C13_3 C 0.5779(8) 0.7512(12) 0.3256(12)
H8_3 H 0.5474 0.7515 0.3220
C14_3 C 0.6702(8) 0.8396(14) 0.2671(14)
C15_3 C 0.7581(7) 0.9051(13) 0.1919(12)
N2_3 N 0.6864(10) 0.9294(15) 0.219(2)
C16_3 C 0.7209(7) 0.8902(13) 0.2192(11)
N3_3 N 0.6541(8) 0.8972(16) 0.2496(19)
N4_3 N 0.734(2) 0.796(4) 0.256(3)
O11_2 O 0.0880(7) 0.0747(12) 0.1115(13)
O14_3 O 0.5418(10) 0.3188(16) 0.4348(19)
O15_3 O 0.5156(8) 0.441(2) 0.3239(13)
C17_3 C 0.1242(6) 0.0456(10) 0.1007(8)
O16_3 O 0.4678(7) 0.3510(18) 0.3887(14)
C18_3 C 0.4264(8) 0.3420(10) 0.3973(10)
C19_3 C 0.1637(6) 0.0627(8) 0.1320(8)
N5_3 N 0.2884(8) 0.1648(13) 0.2489(12)
C20_3 C 0.4014(8) 0.2948(9) 0.3633(8)
C21_3 C 0.3558(8) 0.2959(14) 0.3690(14)
H9_3 H 0.3423 0.3270 0.3944
C22_3 C 0.3304(7) 0.2500(17) 0.3364(16)
H10_3 H 0.2998 0.2504 0.3401
C23_3 C 0.2027(7) 0.0321(13) 0.1142(12)
H11_3 H 0.2027 0.0010 0.0825
C24_3 C 0.3966(11) 0.2027(12) 0.2927(12)
H12_3 H 0.4101 0.1717 0.2672
C25_3 C 0.3509(10) 0.2036(12) 0.2983(11)
C26_3 C 0.1632(7) 0.1090(12) 0.1792(11)
H13_3 H 0.1369 0.1292 0.1908
C27_3 C 0.2024(8) 0.1252(13) 0.2093(12)
H14_3 H 0.2021 0.1563 0.2410
C28_3 C 0.2419(6) 0.0482(15) 0.1441(14)
H15_3 H 0.2682 0.0279 0.1322
C29_3 C 0.4221(8) 0.2488(12) 0.3256(12)
H16_3 H 0.4526 0.2485 0.3220
C30_3 C 0.3298(8) 0.1604(14) 0.2671(14)
C31_3 C 0.2419(7) 0.0949(13) 0.1919(12)
N6_3 N 0.3136(10) 0.0706(15) 0.219(2)
C32_3 C 0.2791(7) 0.1098(13) 0.2192(11)
N7_3 N 0.3459(8) 0.1028(16) 0.2496(19)
N8_3 N 0.266(2) 0.204(4) 0.256(3)
O19_2 O 0.5880(7) 0.4253(12) 0.3885(13)
O20_2 O 0.4120(7) 0.5747(12) 0.3885(13)
H21_3 H 0.738215 0.788995 0.30085
H22_3 H 0.762748 0.807335 0.236738
H27_3 H 0.261785 0.211005 0.30085
H28_3 H 0.237252 0.192665 0.236738
O6_4 O 0.0418(10) 0.1812(16) 0.0652(19)
O8_4 O 0.0156(8) 0.059(2) 0.1761(13)
H20_3 H 0.0369994 0.0859123 0.198231
C17_4 C 0.3758(6) 0.5456(10) 0.3993(8)
O16_4 O 0.0322(7) 0.8510(18) 0.1113(14)
C18_4 C 0.0736(8) 0.8420(10) 0.1027(10)
C19_4 C 0.3363(6) 0.5627(8) 0.3680(8)
N5_4 N 0.2116(8) 0.6648(13) 0.2511(12)
C20_4 C 0.0986(8) 0.7948(9) 0.1367(8)
C21_4 C 0.1442(8) 0.7959(14) 0.1310(14)
H9_4 H 0.1577 0.8270 0.1056
C22_4 C 0.1696(7) 0.7500(17) 0.1636(16)
H10_4 H 0.2002 0.7504 0.1599
C23_4 C 0.2973(7) 0.5321(13) 0.3858(12)
H11_4 H 0.2973 0.5010 0.4175
C24_4 C 0.1034(11) 0.7027(12) 0.2073(12)
H12_4 H 0.0899 0.6717 0.2328
C25_4 C 0.1491(10) 0.7036(12) 0.2017(11)
C26_4 C 0.3368(7) 0.6090(12) 0.3208(11)
H13_4 H 0.3631 0.6292 0.3092
C27_4 C 0.2976(8) 0.6252(13) 0.2907(12)
H14_4 H 0.2979 0.6563 0.2590
C28_4 C 0.2581(6) 0.5482(15) 0.3559(14)
H15_4 H 0.2318 0.5279 0.3678
C29_4 C 0.0779(8) 0.7488(12) 0.1744(12)
H16_4 H 0.0474 0.7485 0.1780
C30_4 C 0.1702(8) 0.6604(14) 0.2329(14)
C31_4 C 0.2581(7) 0.5949(13) 0.3081(12)
N6_4 N 0.1864(10) 0.5706(15) 0.281(2)
C32_4 C 0.2209(7) 0.6098(13) 0.2808(11)
N7_4 N 0.1541(8) 0.6028(16) 0.2504(19)
N8_4 N 0.234(2) 0.704(4) 0.244(3)
H25_3 H 0.00696219 0.974532 0.183093
H27_4 H 0.238215 0.711005 0.19915
H28_4 H 0.262748 0.692665 0.263262
C1_4 C 0.6242(6) 0.4544(10) 0.3993(8)
O9_4 O 0.9678(7) 0.1490(18) 0.1113(14)
C2_4 C 0.9264(8) 0.1580(10) 0.1027(10)
C3_4 C 0.6637(6) 0.4373(8) 0.3680(8)
N1_4 N 0.7884(8) 0.3352(13) 0.2511(12)
C4_4 C 0.9014(8) 0.2052(9) 0.1367(8)
C5_4 C 0.8558(8) 0.2041(14) 0.1310(14)
H1_4 H 0.8423 0.1730 0.1056
C6_4 C 0.8304(7) 0.2500(17) 0.1636(16)
H2_4 H 0.7998 0.2496 0.1599
C7_4 C 0.7027(7) 0.4679(13) 0.3858(12)
H3_4 H 0.7027 0.4990 0.4175
C8_4 C 0.8966(11) 0.2973(12) 0.2073(12)
H4_4 H 0.9101 0.3283 0.2328
C9_4 C 0.8509(10) 0.2964(12) 0.2017(11)
C10_4 C 0.6632(7) 0.3910(12) 0.3208(11)
H5_4 H 0.6369 0.3708 0.3092
C11_4 C 0.7024(8) 0.3748(13) 0.2907(12)
H6_4 H 0.7021 0.3437 0.2590
C12_4 C 0.7419(6) 0.4518(15) 0.3559(14)
H7_4 H 0.7682 0.4721 0.3678
C13_4 C 0.9221(8) 0.2512(12) 0.1744(12)
H8_4 H 0.9526 0.2515 0.1780
C14_4 C 0.8298(8) 0.3396(14) 0.2329(14)
C15_4 C 0.7419(7) 0.4051(13) 0.3081(12)
N2_4 N 0.8136(10) 0.4294(15) 0.281(2)
C16_4 C 0.7791(7) 0.3902(13) 0.2808(11)
N3_4 N 0.8459(8) 0.3972(16) 0.2504(19)
N4_4 N 0.766(2) 0.296(4) 0.244(3)
H19_3 H 0.98612 0.0690568 0.191
H21_4 H 0.761785 0.288995 0.19915
H22_4 H 0.737252 0.307335 0.263262
O14_4 O 0.9582(10) 0.8188(16) 0.0652(19)
O15_4 O 0.9844(8) 0.941(2) 0.1761(13)
H26_3 H 0.991903 0.900726 0.198567
H26_4 H 0.0080972 0.0992737 0.198567
H19_4 H 0.0138797 0.930943 0.191
H25_4 H 0.993038 0.025468 0.183093
H20_4 H 0.963001 0.914088 0.198231
loop_
_geom_bond_atom_site_label_1
_geom_bond_atom_site_label_2
_geom_bond_site_symmetry_1
_geom_bond_site_symmetry_2
Zr6_2 O10 1_555 1_555
Zr1 O3 1_555 1_555
Zr2 O3 1_555 1_555
O2 C1 1_555 1_555
O3 Zr3 1_555 1_555
O4 Zr1 1_555 1_555
O5 Zr2 1_555 1_555
O6 Zr2 1_555 1_555
O7 Zr1 1_555 1_555
O8 Zr2 1_555 1_555
C1 C3 1_555 1_555
O9 Zr2 1_555 1_555
C2 O4 1_555 1_555
C3 C7 1_555 1_555
N1 C14 1_555 1_555
C4 C2 1_555 1_555
C5 C4 1_555 1_555
H1 C5 1_555 1_555
C6 C5 1_555 1_555
H2 C6 1_555 1_555
C7 H3 1_555 1_555
C8 H4 1_555 1_555
C9 C6 1_555 1_555
C10 C3 1_555 1_555
H5 C10 1_555 1_555
C11 C10 1_555 1_555
H6 C11 1_555 1_555
C12 C7 1_555 1_555
H7 C12 1_555 1_555
C13 C4 1_555 1_555
H8 C13 1_555 1_555
C14 C9 1_555 1_555
C15 C11 1_555 1_555
N2 C16 1_555 1_555
C16 N1 1_555 1_555
N3 C14 1_555 1_555
N4 N1 1_555 1_555
Zr3 O12 1_555 1_555
O11 C17 1_555 1_555
O12 Zr2 1_555 1_555
O13 C18 1_555 1_555
O14 Zr3 1_555 1_555
O15 Zr3 1_555 1_555
C17 C19 1_555 1_555
O16 Zr3 1_555 1_555
C18 O16 1_555 1_555
C19 C23 1_555 1_555
N5 C30 1_555 1_555
C20 C18 1_555 1_555
C21 C20 1_555 1_555
H9 C21 1_555 1_555
C22 C21 1_555 1_555
H10 C22 1_555 1_555
C23 H11 1_555 1_555
C24 H12 1_555 1_555
C25 C22 1_555 1_555
C26 C19 1_555 1_555
H13 C26 1_555 1_555
C27 C26 1_555 1_555
H14 C27 1_555 1_555
C28 C23 1_555 1_555
H15 C28 1_555 1_555
C29 C20 1_555 1_555
H16 C29 1_555 1_555
C30 C25 1_555 1_555
C31 C27 1_555 1_555
N6 C32 1_555 1_555
C32 N5 1_555 1_555
N7 C30 1_555 1_555
N8 N5 1_555 1_555
Zr4 O5 1_555 1_555
Zr7 O11 1_555 1_555
Zr8 O2 1_555 1_555
Zr9 O5 1_555 1_555
O17 Zr1 1_555 1_555
O18 Zr1 1_555 1_555
O19 Zr3 1_555 1_555
O20 Zr2 1_555 1_555
O21 Zr1 1_555 1_555
O22 Zr1 1_555 1_555
O23 Zr1 1_555 1_555
O24 Zr3 1_555 1_555
Zr2 O7 1_555 1_555
O7 Zr9 1_555 1_555
O9 C2 1_555 1_555
C8 C9 1_555 1_555
C8 C13 1_555 1_555
C12 C15 1_555 1_555
C15 C16 1_555 1_555
N2 N3 1_555 1_555
Zr3 O23 1_555 1_555
O12 Zr4 1_555 1_555
O13 Zr4 1_555 1_555
C24 C25 1_555 1_555
C24 C29 1_555 1_555
C28 C31 1_555 1_555
C31 C32 1_555 1_555
N6 N7 1_555 1_555
Zr4 O24 1_555 1_555
Zr9 O21 1_555 1_555
N4 H21 1_555 1_555
N4 H22 1_555 1_555
N8 H27 1_555 1_555
N8 H28 1_555 1_555
Zr5_2 O1 1_555 1_555
Zr9_2 O23 1_555 1_555
O17_2 Zr4 1_555 1_555
O18_2 Zr4 1_555 1_555
O21_2 Zr4 1_555 1_555
O22_2 Zr4 1_555 1_555
O24 Zr9_2 1_555 1_555
Zr9_2 O21_2 1_555 1_555
O14_2 Zr8 1_555 1_555
O15_2 Zr8 1_555 1_555
Zr8 O23_3 1_555 1_555
O15_2 H26 1_555 1_555
O7_2 Zr5 1_555 1_555
O18_3 Zr5 1_555 1_555
O21_3 Zr5 1_555 1_555
O22_3 Zr5 1_555 1_555
Zr5_2 O3_2 1_555 1_555
O17 C1_2 1_555 1_555
O19 C1_2 1_555 1_555
O4_2 Zr5_2 1_555 1_555
O7_3 Zr5_2 1_555 1_555
C1_2 C3_2 1_555 1_555
C2_2 O4_2 1_555 1_555
C3_2 C7_2 1_555 1_555
N1_2 C14_2 1_555 1_555
C4_2 C2_2 1_555 1_555
C5_2 C4_2 1_555 1_555
H1_2 C5_2 1_555 1_555
C6_2 C5_2 1_555 1_555
H2_2 C6_2 1_555 1_555
C7_2 H3_2 1_555 1_555
C8_2 H4_2 1_555 1_555
C9_2 C6_2 1_555 1_555
C10_2 C3_2 1_555 1_555
H5_2 C10_2 1_555 1_555
C11_2 C10_2 1_555 1_555
H6_2 C11_2 1_555 1_555
C12_2 C7_2 1_555 1_555
H7_2 C12_2 1_555 1_555
C13_2 C4_2 1_555 1_555
H8_2 C13_2 1_555 1_555
C14_2 C9_2 1_555 1_555
C15_2 C11_2 1_555 1_555
N2_2 C16_2 1_555 1_555
C16_2 N1_2 1_555 1_555
N3_2 C14_2 1_555 1_555
N4_2 N1_2 1_555 1_555
O9_2 C2_2 1_555 1_555
C8_2 C9_2 1_555 1_555
C8_2 C13_2 1_555 1_555
C12_2 C15_2 1_555 1_555
C15_2 C16_2 1_555 1_555
N2_2 N3_2 1_555 1_555
N4_2 H21_2 1_555 1_555
N4_2 H22_2 1_555 1_555
Zr6 O24_2 1_555 1_555
O17_2 C17_2 1_555 1_555
O20 C17_2 1_555 1_555
O13_2 C18_2 1_555 1_555
C17_2 C19_2 1_555 1_555
C18_2 O16_2 1_555 1_555
C19_2 C23_2 1_555 1_555
N5_2 C30_2 1_555 1_555
C20_2 C18_2 1_555 1_555
C21_2 C20_2 1_555 1_555
H9_2 C21_2 1_555 1_555
C22_2 C21_2 1_555 1_555
H10_2 C22_2 1_555 1_555
C23_2 H11_2 1_555 1_555
C24_2 H12_2 1_555 1_555
C25_2 C22_2 1_555 1_555
C26_2 C19_2 1_555 1_555
H13_2 C26_2 1_555 1_555
C27_2 C26_2 1_555 1_555
H14_2 C27_2 1_555 1_555
C28_2 C23_2 1_555 1_555
H15_2 C28_2 1_555 1_555
C29_2 C20_2 1_555 1_555
H16_2 C29_2 1_555 1_555
C30_2 C25_2 1_555 1_555
C31_2 C27_2 1_555 1_555
N6_2 C32_2 1_555 1_555
C32_2 N5_2 1_555 1_555
N7_2 C30_2 1_555 1_555
N8_2 N5_2 1_555 1_555
O12_2 Zr6_2 1_555 1_555
O13_2 Zr6_2 1_555 1_555
C24_2 C25_2 1_555 1_555
C24_2 C29_2 1_555 1_555
C28_2 C31_2 1_555 1_555
C31_2 C32_2 1_555 1_555
N6_2 N7_2 1_555 1_555
Zr6_2 O24_3 1_555 1_555
N8_2 H27_2 1_555 1_555
N8_2 H28_2 1_555 1_555
Zr9_3 O5_2 1_555 1_555
O5_3 Zr7 1_555 1_555
O6_2 Zr7 1_555 1_555
O8_2 Zr7 1_555 1_555
O8_2 H20 1_555 1_555
Zr9_4 O23_2 1_555 1_555
O15_2 H20_2 1_555 1_555
O18_4 Zr6 1_555 1_555
O21_4 Zr6 1_555 1_555
O22_4 Zr6 1_555 1_555
O8_2 H26_2 1_555 1_555
O2_2 C1_3 1_555 1_555
O21_2 Zr9 1_555 1_555
O6_3 Zr9_2 1_555 1_555
O8_3 Zr9_2 1_555 1_555
C1_3 C3_3 1_555 1_555
O9_3 Zr9_2 1_555 1_555
C2_3 O22_2 1_555 1_555
C3_3 C7_3 1_555 1_555
N1_3 C14_3 1_555 1_555
C4_3 C2_3 1_555 1_555
C5_3 C4_3 1_555 1_555
H1_3 C5_3 1_555 1_555
C6_3 C5_3 1_555 1_555
H2_3 C6_3 1_555 1_555
C7_3 H3_3 1_555 1_555
C8_3 H4_3 1_555 1_555
C9_3 C6_3 1_555 1_555
C10_3 C3_3 1_555 1_555
H5_3 C10_3 1_555 1_555
C11_3 C10_3 1_555 1_555
H6_3 C11_3 1_555 1_555
C12_3 C7_3 1_555 1_555
H7_3 C12_3 1_555 1_555
C13_3 C4_3 1_555 1_555
H8_3 C13_3 1_555 1_555
C14_3 C9_3 1_555 1_555
C15_3 C11_3 1_555 1_555
N2_3 C16_3 1_555 1_555
C16_3 N1_3 1_555 1_555
N3_3 C14_3 1_555 1_555
N4_3 N1_3 1_555 1_555
O11_2 C17_3 1_555 1_555
O21 Zr9_2 1_555 1_555
O22 C18_3 1_555 1_555
O14_3 Zr9 1_555 1_555
O15_3 Zr9 1_555 1_555
C17_3 C19_3 1_555 1_555
O16_3 Zr9 1_555 1_555
C18_3 O16_3 1_555 1_555
C19_3 C23_3 1_555 1_555
N5_3 C30_3 1_555 1_555
C20_3 C18_3 1_555 1_555
C21_3 C20_3 1_555 1_555
H9_3 C21_3 1_555 1_555
C22_3 C21_3 1_555 1_555
H10_3 C22_3 1_555 1_555
C23_3 H11_3 1_555 1_555
C24_3 H12_3 1_555 1_555
C25_3 C22_3 1_555 1_555
C26_3 C19_3 1_555 1_555
H13_3 C26_3 1_555 1_555
C27_3 C26_3 1_555 1_555
H14_3 C27_3 1_555 1_555
C28_3 C23_3 1_555 1_555
H15_3 C28_3 1_555 1_555
C29_3 C20_3 1_555 1_555
H16_3 C29_3 1_555 1_555
C30_3 C25_3 1_555 1_555
C31_3 C27_3 1_555 1_555
N6_3 C32_3 1_555 1_555
C32_3 N5_3 1_555 1_555
N7_3 C30_3 1_555 1_555
N8_3 N5_3 1_555 1_555
Zr9_4 O11_2 1_555 1_555
Zr9_3 O2_2 1_555 1_555
O19_2 Zr9 1_555 1_555
O20_2 Zr9_2 1_555 1_555
O9_3 C2_3 1_555 1_555
C8_3 C9_3 1_555 1_555
C8_3 C13_3 1_555 1_555
C12_3 C15_3 1_555 1_555
C15_3 C16_3 1_555 1_555
N2_3 N3_3 1_555 1_555
C24_3 C25_3 1_555 1_555
C24_3 C29_3 1_555 1_555
C28_3 C31_3 1_555 1_555
C31_3 C32_3 1_555 1_555
N6_3 N7_3 1_555 1_555
N4_3 H21_3 1_555 1_555
N4_3 H22_3 1_555 1_555
N8_3 H27_3 1_555 1_555
N8_3 H28_3 1_555 1_555
O6_4 Zr9_4 1_555 1_555
O8_4 Zr9_4 1_555 1_555
O8_4 H20_3 1_555 1_555
O18 C17_4 1_555 1_555
O20_2 C17_4 1_555 1_555
O22_3 C18_4 1_555 1_555
C17_4 C19_4 1_555 1_555
C18_4 O16_4 1_555 1_555
C19_4 C23_4 1_555 1_555
N5_4 C30_4 1_555 1_555
C20_4 C18_4 1_555 1_555
C21_4 C20_4 1_555 1_555
H9_4 C21_4 1_555 1_555
C22_4 C21_4 1_555 1_555
H10_4 C22_4 1_555 1_555
C23_4 H11_4 1_555 1_555
C24_4 H12_4 1_555 1_555
C25_4 C22_4 1_555 1_555
C26_4 C19_4 1_555 1_555
H13_4 C26_4 1_555 1_555
C27_4 C26_4 1_555 1_555
H14_4 C27_4 1_555 1_555
C28_4 C23_4 1_555 1_555
H15_4 C28_4 1_555 1_555
C29_4 C20_4 1_555 1_555
H16_4 C29_4 1_555 1_555
C30_4 C25_4 1_555 1_555
C31_4 C27_4 1_555 1_555
N6_4 C32_4 1_555 1_555
C32_4 N5_4 1_555 1_555
N7_4 C30_4 1_555 1_555
N8_4 N5_4 1_555 1_555
C24_4 C25_4 1_555 1_555
C24_4 C29_4 1_555 1_555
C28_4 C31_4 1_555 1_555
C31_4 C32_4 1_555 1_555
N6_4 N7_4 1_555 1_555
N8_4 H27_4 1_555 1_555
N8_4 H28_4 1_555 1_555
O18_2 C1_4 1_555 1_555
O19_2 C1_4 1_555 1_555
C1_4 C3_4 1_555 1_555
C2_4 O22_4 1_555 1_555
C3_4 C7_4 1_555 1_555
N1_4 C14_4 1_555 1_555
C4_4 C2_4 1_555 1_555
C5_4 C4_4 1_555 1_555
H1_4 C5_4 1_555 1_555
C6_4 C5_4 1_555 1_555
H2_4 C6_4 1_555 1_555
C7_4 H3_4 1_555 1_555
C8_4 H4_4 1_555 1_555
C9_4 C6_4 1_555 1_555
C10_4 C3_4 1_555 1_555
H5_4 C10_4 1_555 1_555
C11_4 C10_4 1_555 1_555
H6_4 C11_4 1_555 1_555
C12_4 C7_4 1_555 1_555
H7_4 C12_4 1_555 1_555
C13_4 C4_4 1_555 1_555
H8_4 C13_4 1_555 1_555
C14_4 C9_4 1_555 1_555
C15_4 C11_4 1_555 1_555
N2_4 C16_4 1_555 1_555
C16_4 N1_4 1_555 1_555
N3_4 C14_4 1_555 1_555
N4_4 N1_4 1_555 1_555
O9_4 C2_4 1_555 1_555
C8_4 C9_4 1_555 1_555
C8_4 C13_4 1_555 1_555
C12_4 C15_4 1_555 1_555
C15_4 C16_4 1_555 1_555
N2_4 N3_4 1_555 1_555
N4_4 H21_4 1_555 1_555
N4_4 H22_4 1_555 1_555
O14_4 Zr9_3 1_555 1_555
O15_4 Zr9_3 1_555 1_555
O15_4 H26_3 1_555 1_555
O8_4 H26_4 1_555 1_555
O15_4 H20_4 1_555 1_555

#END
