
###############################################################################
#
# This file contains modified crystal structure data generated from the
# MOF subset of the Cambridge Structural Database (CSD) v543 
# hosted by the Cambridge Crystallographic Data Centre (CCDC).
#
# This work is licensed under the Creative Commons
# Attribution-NonCommercial-ShareAlike 4.0 International License.
# To view a copy of this license, visit
# http://creativecommons.org/licenses/by-nc-sa/4.0/
# or send a letter to
# Creative Commons, PO Box 1866, Mountain View, CA 94042, USA.
#
# CIF created using the CSD Python API on 29 September 2022
# The structure has been converted into the P1 space group
# The structure has a 3D framework
# The original CSD entry ROTTOL is in the monoclinic crystal system
# The framework has been calculated to contain at least 10.0% void space
# The void calculation uses a probe of radius 1.32A, grid spacing 0.4
# H atom positions have been added when not included in the experimental data
#
###############################################################################

data_ROTTOL
_chemical_formula_moiety         '(C84 H56 N8 O16 Zn4)n'
_symmetry_cell_setting           triclinic
_symmetry_space_group_name_H-M   'P 1'
_symmetry_Int_Tables_number      1
_space_group_name_Hall           'P 1'
loop_
_symmetry_equiv_pos_site_id
_symmetry_equiv_pos_as_xyz
1 x,y,z
_cell_length_a                   11.361(5)
_cell_length_b                   15.532(5)
_cell_length_c                   16.269(5)
_cell_angle_alpha                90
_cell_angle_beta                 94.661(5)
_cell_angle_gamma                90
_cell_volume                     2861.32
loop_
_atom_site_label
_atom_site_type_symbol
_atom_site_fract_x
_atom_site_fract_y
_atom_site_fract_z
Zn1 Zn 0.02421(4) 0.12599(3) 0.03811(3)
O1 O 0.0302(3) 0.19925(18) 0.16157(18)
O2 O 0.0115(3) 0.26194(19) 0.04080(17)
C1 C 0.0010(4) 0.3518(3) 0.1582(3)
C4 C 0.0160(4) 0.2653(3) 0.1180(3)
C6 C 0.0031(4) 0.3574(3) 0.2433(3)
O4 O 0.0126(3) 0.37595(17) 0.41308(17)
H2 H 0.018(4) 0.314(3) 0.277(3)
Zn4 Zn 0.02421(4) 0.37401(3) 0.53811(3)
N3 N 0.2128(3) 0.1290(2) 0.0390(2)
O7 O 0.0474(3) 0.01194(18) 0.09754(17)
O6 O 0.0126(3) 0.12405(17) 0.91308(17)
O3 O 0.9495(4) 0.5716(2) 0.09436(19)
N1 N 0.8360(3) 0.1184(2) 0.0407(2)
C2 C 0.9840(3) 0.4360(2) 0.2803(2)
C3 C 0.4592(4) 0.1249(3) 0.0399(3)
C5 C 0.5897(4) 0.1221(3) 0.0402(3)
C7 C 0.9819(4) 0.4240(3) 0.1097(3)
C8 C 0.9640(5) 0.5036(3) 0.1470(3)
C9 C 0.9626(4) 0.5097(3) 0.2325(3)
C10 C 0.6580(4) 0.0791(4) 0.0994(3)
C12 C 0.7793(4) 0.0786(4) 0.0977(3)
C15 C 0.4026(5) 0.1106(6) 0.1105(4)
C16 C 0.2804(4) 0.1137(5) 0.1074(3)
C18 C 0.9241(7) 0.6537(3) 0.1290(3)
C19 C 0.8008(8) 0.6589(4) 0.1507(4)
O5 O 0.9526(3) 0.51194(18) 0.40246(17)
C20 C 0.9830(3) 0.4422(2) 0.3720(2)
C21 C 0.7004(11) 0.6665(8) 0.1669(6)
H1 H 0.986(4) 0.422(3) 0.050(3)
H3 H 0.946(4) 0.565(3) 0.254(3)
H4 H 0.621(7) 0.026(5) 0.134(5)
H6 H 0.436(8) 0.099(6) 0.166(6)
H7 H 0.232(6) 0.117(4) 0.157(4)
H8 H 0.828(7) 0.041(5) 0.140(5)
H12 H 0.629(6) 0.681(8) 0.198(6)
Zn3 Zn 0.97579(4) 0.62599(3) 0.46189(3)
H13 H 0.939064 0.703756 0.0841501
H14 H 0.982877 0.663806 0.18443
O3_2 O 0.0505(4) 0.0716(2) 0.40564(19)
C8_2 C 0.0360(5) 0.0036(3) 0.3530(3)
C9_2 C 0.0374(4) 0.0097(3) 0.2675(3)
C18_2 C 0.0759(7) 0.1537(3) 0.3710(3)
C19_2 C 0.1992(8) 0.1589(4) 0.3493(4)
C21_2 C 0.2996(11) 0.1665(8) 0.3331(6)
H3_2 H 0.054(4) 0.065(3) 0.246(3)
H12_2 H 0.371(6) 0.181(8) 0.302(6)
H13_2 H 0.0609363 0.203756 0.41585
H14_2 H 0.0171226 0.163806 0.31557
N1_2 N 0.1640(3) 0.6184(2) 0.4593(2)
N2 N 0.7872(3) 0.6290(2) 0.4610(2)
C2_2 C 0.0160(3) 0.9360(2) 0.2197(2)
C3_2 C 0.5408(4) 0.6249(3) 0.4601(3)
C5_2 C 0.4103(4) 0.6221(3) 0.4598(3)
C7_2 C 0.0181(4) 0.9240(3) 0.3903(3)
C10_2 C 0.3420(4) 0.5791(4) 0.4006(3)
C11 C 0.6107(4) 0.6465(4) 0.5295(3)
C12_2 C 0.2207(4) 0.5786(4) 0.4023(3)
C13 C 0.7324(4) 0.6474(3) 0.5278(3)
C14 C 0.3513(5) 0.6670(6) 0.5179(4)
C15_2 C 0.5974(5) 0.6106(6) 0.3895(4)
C16_2 C 0.7196(4) 0.6137(5) 0.3926(3)
C17 C 0.2295(5) 0.6648(5) 0.5147(4)
C20_2 C 0.0170(3) 0.9422(2) 0.1280(2)
H1_2 H 0.014(4) 0.922(3) 0.450(3)
H4_2 H 0.379(7) 0.526(5) 0.366(5)
H5 H 0.777(5) 0.664(4) 0.572(4)
H6_2 H 0.564(8) 0.599(6) 0.334(6)
H7_2 H 0.768(6) 0.617(4) 0.343(4)
H8_2 H 0.172(7) 0.541(5) 0.360(5)
H9 H 0.582(7) 0.653(5) 0.577(5)
H10 H 0.394(7) 0.704(5) 0.553(5)
H11 H 0.184(7) 0.711(5) 0.550(5)
O1_2 O 0.9698(3) 0.69925(18) 0.33843(18)
O2_2 O 0.9885(3) 0.76194(19) 0.45920(17)
C1_2 C 0.9990(4) 0.8518(3) 0.3418(3)
C4_2 C 0.9840(4) 0.7653(3) 0.3820(3)
C6_2 C 0.9969(4) 0.8574(3) 0.2567(3)
O4_2 O 0.9874(3) 0.87595(17) 0.08692(17)
H2_2 H 0.982(4) 0.814(3) 0.223(3)
O6_2 O 0.9874(3) 0.62405(17) 0.58692(17)
Zn4_2 Zn 0.97579(4) 0.87401(3) 0.96189(3)
O3_3 O 0.0505(4) 0.4284(2) 0.90564(19)
N1_3 N 0.1640(3) 0.8816(2) 0.9593(2)
N2_2 N 0.7872(3) 0.8710(2) 0.9610(2)
C2_3 C 0.0160(3) 0.5640(2) 0.7197(2)
C3_3 C 0.5408(4) 0.8751(3) 0.9601(3)
C5_3 C 0.4103(4) 0.8779(3) 0.9598(3)
C7_3 C 0.0181(4) 0.5760(3) 0.8903(3)
C8_3 C 0.0360(5) 0.4964(3) 0.8530(3)
C9_3 C 0.0374(4) 0.4903(3) 0.7675(3)
C10_3 C 0.3420(4) 0.9209(4) 0.9006(3)
C12_3 C 0.2207(4) 0.9214(4) 0.9023(3)
C15_3 C 0.5974(5) 0.8894(6) 0.8895(4)
C16_3 C 0.7196(4) 0.8863(5) 0.8926(3)
C18_3 C 0.0759(7) 0.3463(3) 0.8710(3)
C19_3 C 0.1992(8) 0.3411(4) 0.8493(4)
O5_2 O 0.0474(3) 0.48806(18) 0.59754(17)
C20_3 C 0.0170(3) 0.5578(2) 0.6280(2)
C21_3 C 0.2996(11) 0.3335(8) 0.8331(6)
H1_3 H 0.014(4) 0.578(3) 0.950(3)
H3_3 H 0.054(4) 0.435(3) 0.746(3)
H4_3 H 0.379(7) 0.974(5) 0.866(5)
H6_3 H 0.564(8) 0.901(6) 0.834(6)
H7_3 H 0.768(6) 0.883(4) 0.843(4)
H8_3 H 0.172(7) 0.959(5) 0.860(5)
H12_3 H 0.371(6) 0.319(8) 0.802(6)
H13_3 H 0.0609363 0.296244 0.91585
H14_3 H 0.0171226 0.336194 0.81557
O1_3 O 0.9698(3) 0.80075(18) 0.83843(18)
O2_3 O 0.9885(3) 0.73806(19) 0.95920(17)
C1_3 C 0.9990(4) 0.6482(3) 0.8418(3)
C4_3 C 0.9840(4) 0.7347(3) 0.8820(3)
C6_3 C 0.9969(4) 0.6426(3) 0.7567(3)
H2_3 H 0.982(4) 0.686(3) 0.723(3)
O7_2 O 0.9526(3) 0.98806(18) 0.90246(17)
O1_4 O 0.0302(3) 0.30075(18) 0.66157(18)
O2_4 O 0.0115(3) 0.23806(19) 0.54080(17)
C1_4 C 0.0010(4) 0.1482(3) 0.6582(3)
C4_4 C 0.0160(4) 0.2347(3) 0.6180(3)
C6_4 C 0.0031(4) 0.1426(3) 0.7433(3)
H2_4 H 0.018(4) 0.186(3) 0.777(3)
N3_2 N 0.2128(3) 0.3710(2) 0.5390(2)
N1_4 N 0.8360(3) 0.3816(2) 0.5407(2)
C2_4 C 0.9840(3) 0.0640(2) 0.7803(2)
C3_4 C 0.4592(4) 0.3751(3) 0.5399(3)
C5_4 C 0.5897(4) 0.3779(3) 0.5402(3)
C7_4 C 0.9819(4) 0.0760(3) 0.6097(3)
C10_4 C 0.6580(4) 0.4209(4) 0.5994(3)
C11_2 C 0.3893(4) 0.3535(4) 0.4705(3)
C12_4 C 0.7793(4) 0.4214(4) 0.5977(3)
C13_2 C 0.2676(4) 0.3526(3) 0.4722(3)
C14_2 C 0.6487(5) 0.3330(6) 0.4821(4)
C15_4 C 0.4026(5) 0.3894(6) 0.6105(4)
C16_4 C 0.2804(4) 0.3863(5) 0.6074(3)
C17_2 C 0.7705(5) 0.3352(5) 0.4853(4)
C20_4 C 0.9830(3) 0.0578(2) 0.8720(2)
H1_4 H 0.986(4) 0.078(3) 0.550(3)
H4_4 H 0.621(7) 0.474(5) 0.634(5)
H5_2 H 0.223(5) 0.336(4) 0.428(4)
H6_4 H 0.436(8) 0.401(6) 0.666(6)
H7_4 H 0.232(6) 0.383(4) 0.657(4)
H8_4 H 0.828(7) 0.459(5) 0.640(5)
H9_2 H 0.418(7) 0.347(5) 0.423(5)
H10_2 H 0.606(7) 0.296(5) 0.447(5)
H11_2 H 0.816(7) 0.289(5) 0.450(5)
O3_4 O 0.9495(4) 0.9284(2) 0.59436(19)
C8_4 C 0.9640(5) 0.9964(3) 0.6470(3)
C9_4 C 0.9626(4) 0.9903(3) 0.7325(3)
C18_4 C 0.9241(7) 0.8463(3) 0.6290(3)
C19_4 C 0.8008(8) 0.8411(4) 0.6507(4)
C21_4 C 0.7004(11) 0.8335(8) 0.6669(6)
H3_4 H 0.946(4) 0.935(3) 0.754(3)
H12_4 H 0.629(6) 0.819(8) 0.698(6)
H13_4 H 0.939064 0.796244 0.58415
H14_4 H 0.982877 0.836194 0.68443
C11_3 C 0.3893(4) 0.1465(4) 0.9705(3)
C13_3 C 0.2676(4) 0.1474(3) 0.9722(3)
C14_3 C 0.6487(5) 0.1670(6) 0.9821(4)
C17_3 C 0.7705(5) 0.1648(5) 0.9853(4)
H5_3 H 0.223(5) 0.164(4) 0.928(4)
H9_3 H 0.418(7) 0.153(5) 0.923(5)
H10_3 H 0.606(7) 0.204(5) 0.947(5)
H11_3 H 0.816(7) 0.211(5) 0.950(5)
C11_4 C 0.6107(4) 0.8535(4) 0.0295(3)
C13_4 C 0.7324(4) 0.8526(3) 0.0278(3)
C14_4 C 0.3513(5) 0.8330(6) 0.0179(4)
C17_4 C 0.2295(5) 0.8352(5) 0.0147(4)
H5_4 H 0.777(5) 0.836(4) 0.072(4)
H9_4 H 0.582(7) 0.847(5) 0.077(5)
H10_4 H 0.394(7) 0.796(5) 0.053(5)
H11_4 H 0.184(7) 0.789(5) 0.050(5)
loop_
_geom_bond_atom_site_label_1
_geom_bond_atom_site_label_2
_geom_bond_site_symmetry_1
_geom_bond_site_symmetry_2
Zn1 O1 1_555 1_555
O1 C4 1_555 1_555
O2 Zn1 1_555 1_555
C1 C4 1_555 1_555
C4 O2 1_555 1_555
C6 C1 1_555 1_555
H2 C6 1_555 1_555
Zn4 O4 1_555 1_555
N3 Zn1 1_555 1_555
O7 Zn1 1_555 1_555
O3 C8 1_555 1_555
C3 C5 1_555 1_555
C5 C10 1_555 1_555
C8 C7 1_555 1_555
C9 C2 1_555 1_555
C10 C12 1_555 1_555
C12 N1 1_555 1_555
C15 C3 1_555 1_555
C16 N3 1_555 1_555
C18 O3 1_555 1_555
C19 C18 1_555 1_555
O5 C20 1_555 1_555
C20 C2 1_555 1_555
C21 C19 1_555 1_555
H1 C7 1_555 1_555
H3 C9 1_555 1_555
H4 C10 1_555 1_555
H6 C15 1_555 1_555
H7 C16 1_555 1_555
H8 C12 1_555 1_555
H12 C21 1_555 1_555
Zn3 O5 1_555 1_555
C8 C9 1_555 1_555
C15 C16 1_555 1_555
C18 H13 1_555 1_555
C18 H14 1_555 1_555
O3_2 C8_2 1_555 1_555
C18_2 O3_2 1_555 1_555
C19_2 C18_2 1_555 1_555
C21_2 C19_2 1_555 1_555
H3_2 C9_2 1_555 1_555
H12_2 C21_2 1_555 1_555
C8_2 C9_2 1_555 1_555
C18_2 H13_2 1_555 1_555
C18_2 H14_2 1_555 1_555
N2 C13 1_555 1_555
C3_2 C5_2 1_555 1_555
C5_2 C10_2 1_555 1_555
C10_2 C12_2 1_555 1_555
C11 C3_2 1_555 1_555
C12_2 N1_2 1_555 1_555
C13 C11 1_555 1_555
C14 C5_2 1_555 1_555
C15_2 C3_2 1_555 1_555
C16_2 N2 1_555 1_555
C17 N1_2 1_555 1_555
C20_2 C2_2 1_555 1_555
H1_2 C7_2 1_555 1_555
H4_2 C10_2 1_555 1_555
H5 C13 1_555 1_555
H6_2 C15_2 1_555 1_555
H7_2 C16_2 1_555 1_555
H8_2 C12_2 1_555 1_555
H9 C11 1_555 1_555
H10 C14 1_555 1_555
H11 C17 1_555 1_555
Zn3 N2 1_555 1_555
C14 C17 1_555 1_555
C15_2 C16_2 1_555 1_555
Zn3 O1_2 1_555 1_555
O1_2 C4_2 1_555 1_555
O2_2 Zn3 1_555 1_555
C1_2 C4_2 1_555 1_555
C4_2 O2_2 1_555 1_555
C6_2 C1_2 1_555 1_555
H2_2 C6_2 1_555 1_555
O6_2 Zn3 1_555 1_555
O3_3 C8_3 1_555 1_555
C3_3 C5_3 1_555 1_555
C5_3 C10_3 1_555 1_555
C8_3 C7_3 1_555 1_555
C9_3 C2_3 1_555 1_555
C10_3 C12_3 1_555 1_555
C12_3 N1_3 1_555 1_555
C15_3 C3_3 1_555 1_555
C16_3 N2_2 1_555 1_555
C18_3 O3_3 1_555 1_555
C19_3 C18_3 1_555 1_555
O5_2 C20_3 1_555 1_555
C20_3 C2_3 1_555 1_555
C21_3 C19_3 1_555 1_555
H1_3 C7_3 1_555 1_555
H3_3 C9_3 1_555 1_555
H4_3 C10_3 1_555 1_555
H6_3 C15_3 1_555 1_555
H7_3 C16_3 1_555 1_555
H8_3 C12_3 1_555 1_555
H12_3 C21_3 1_555 1_555
Zn4_2 N2_2 1_555 1_555
Zn4 O5_2 1_555 1_555
C8_3 C9_3 1_555 1_555
C15_3 C16_3 1_555 1_555
C18_3 H13_3 1_555 1_555
C18_3 H14_3 1_555 1_555
Zn4_2 O1_3 1_555 1_555
O1_3 C4_3 1_555 1_555
O2_3 Zn4_2 1_555 1_555
C1_3 C4_3 1_555 1_555
C4_3 O2_3 1_555 1_555
C6_3 C1_3 1_555 1_555
H2_3 C6_3 1_555 1_555
O7_2 Zn4_2 1_555 1_555
Zn4 O1_4 1_555 1_555
O1_4 C4_4 1_555 1_555
O2_4 Zn4 1_555 1_555
C1_4 C4_4 1_555 1_555
C4_4 O2_4 1_555 1_555
C6_4 C1_4 1_555 1_555
H2_4 C6_4 1_555 1_555
N3_2 Zn4 1_555 1_555
N3_2 C13_2 1_555 1_555
C3_4 C5_4 1_555 1_555
C5_4 C10_4 1_555 1_555
C10_4 C12_4 1_555 1_555
C11_2 C3_4 1_555 1_555
C12_4 N1_4 1_555 1_555
C13_2 C11_2 1_555 1_555
C14_2 C5_4 1_555 1_555
C15_4 C3_4 1_555 1_555
C16_4 N3_2 1_555 1_555
C17_2 N1_4 1_555 1_555
C20_4 C2_4 1_555 1_555
H1_4 C7_4 1_555 1_555
H4_4 C10_4 1_555 1_555
H5_2 C13_2 1_555 1_555
H6_4 C15_4 1_555 1_555
H7_4 C16_4 1_555 1_555
H8_4 C12_4 1_555 1_555
H9_2 C11_2 1_555 1_555
H10_2 C14_2 1_555 1_555
H11_2 C17_2 1_555 1_555
C14_2 C17_2 1_555 1_555
C15_4 C16_4 1_555 1_555
O3_4 C8_4 1_555 1_555
C18_4 O3_4 1_555 1_555
C19_4 C18_4 1_555 1_555
C21_4 C19_4 1_555 1_555
H3_4 C9_4 1_555 1_555
H12_4 C21_4 1_555 1_555
C8_4 C9_4 1_555 1_555
C18_4 H13_4 1_555 1_555
C18_4 H14_4 1_555 1_555
C13_3 C11_3 1_555 1_555
H5_3 C13_3 1_555 1_555
H9_3 C11_3 1_555 1_555
H10_3 C14_3 1_555 1_555
H11_3 C17_3 1_555 1_555
C14_3 C17_3 1_555 1_555
C13_4 C11_4 1_555 1_555
H5_4 C13_4 1_555 1_555
H9_4 C11_4 1_555 1_555
H10_4 C14_4 1_555 1_555
H11_4 C17_4 1_555 1_555
C14_4 C17_4 1_555 1_555

#END
