
###############################################################################
#
# This file contains modified crystal structure data generated from the
# MOF subset of the Cambridge Structural Database (CSD) v543 
# hosted by the Cambridge Crystallographic Data Centre (CCDC).
#
# This work is licensed under the Creative Commons
# Attribution-NonCommercial-ShareAlike 4.0 International License.
# To view a copy of this license, visit
# http://creativecommons.org/licenses/by-nc-sa/4.0/
# or send a letter to
# Creative Commons, PO Box 1866, Mountain View, CA 94042, USA.
#
# CIF created using the CSD Python API on 29 September 2022
# The structure has been converted into the P1 space group
# The structure has a 3D framework
# The original CSD entry ROVBOW is in the monoclinic crystal system
# The framework has been calculated to contain at least 10.0% void space
# The void calculation uses a probe of radius 1.32A, grid spacing 0.4
#
###############################################################################

data_ROVBOW
_chemical_formula_moiety         '(C188 H224 Cd8 N28 Na3 O53)n'
_symmetry_cell_setting           triclinic
_symmetry_space_group_name_H-M   'P 1'
_symmetry_Int_Tables_number      1
_space_group_name_Hall           'P 1'
loop_
_symmetry_equiv_pos_site_id
_symmetry_equiv_pos_as_xyz
1 x,y,z
_cell_length_a                   16.8360(14)
_cell_length_b                   24.094(2)
_cell_length_c                   17.7653(15)
_cell_angle_alpha                90
_cell_angle_beta                 117.791(3)
_cell_angle_gamma                90
_cell_volume                     6375.2
loop_
_atom_site_label
_atom_site_type_symbol
_atom_site_fract_x
_atom_site_fract_y
_atom_site_fract_z
O14 O 0.1111(5) 0.5941(3) 0.0452(4)
N5 N 0.1606(7) 0.5913(6) 0.1884(5)
C40 C 0.1685(7) 0.6036(6) 0.1186(6)
H35 H 0.221382 0.620490 0.126320
C41 C 0.2252(10) 0.6047(9) 0.2724(7)
H36 H 0.283980 0.604305 0.276200
H37 H 0.222558 0.577874 0.311110
H38 H 0.212866 0.640950 0.286758
C42 C 0.0817(10) 0.5626(8) 0.1793(10)
H39 H 0.050005 0.585467 0.200667
H40 H 0.098918 0.528482 0.210779
H41 H 0.043392 0.554658 0.120218
O22 O 0.2838(4) 0.5624(2) 0.0373(3)
Cd2 Cd 0.15036(3) 0.60436(2) 0.93701(3)
O11 O 0.0513(4) 0.5777(3) 0.7491(4)
O12 O 0.0105(3) 0.6024(3) 0.8462(3)
C45 C 0.0005(8) 0.9210(6) 0.9119(10)
H46 H 0.049097 0.923121 0.898010
H48 H 0.017364 0.939205 0.965249
Na3 Na 0.21091(19) 0.58156(13) 0.78117(17)
O16 O 0.2255(4) 0.6577(2) 0.8732(3)
O18 O 0.2045(3) 0.6936(2) 0.9762(3)
O23 O 0.2258(3) 0.5329(2) 0.9052(3)
O24 O 0.3323(4) 0.0073(3) 0.0502(3)
Na1 Na 0.78909(19) 0.08156(13) 0.71883(17)
O7 O 0.7162(4) 0.0624(2) 0.4627(3)
O8 O 0.7742(3) 0.0329(2) 0.5948(3)
H21 H 0.567661 0.017121 0.371736
C27 C 0.7132(5) 0.0315(3) 0.5193(5)
O15 O 0.8026(4) 0.0032(3) 0.8161(4)
Cd5 Cd 0.70575(3) 0.05653(2) 0.86324(3)
Cd7 Cd 0.84964(3) 0.10436(2) 0.56299(3)
O17 O 0.7745(4) 0.1577(2) 0.6268(3)
O20 O 0.6439(3) 0.0786(2) 0.7149(3)
O26 O 0.9487(4) 0.0777(3) 0.7509(4)
O27 O 0.8115(4) 0.1204(3) 0.8619(4)
Cd1 Cd 0.29425(3) 0.94347(2) 0.13676(3)
O3 O 0.3593(4) 0.8730(2) 0.1047(4)
O4 O 0.4775(4) 0.8987(2) 0.0874(4)
H16 H 0.294798 0.784624 0.027719
C15 C 0.3908(5) 0.8206(3) 0.0086(4)
C18 C 0.4103(5) 0.8680(3) 0.0726(5)
O13 O 0.1885(4) 0.8796(3) 0.1381(4)
N4 N 0.1303(7) 0.7957(4) 0.1285(8)
C37 C 0.1883(8) 0.8335(4) 0.1254(8)
H28 H 0.231832 0.820384 0.111664
C38 C 0.1615(10) 0.7467(4) 0.1119(11)
H29 H 0.125247 0.716412 0.113459
H30 H 0.222691 0.740947 0.154153
H31 H 0.158423 0.748593 0.056645
C39 C 0.0508(9) 0.8108(7) 0.1339(12)
H32 H 0.002564 0.786458 0.098462
H33 H 0.034847 0.848365 0.114916
H34 H 0.061660 0.807582 0.191741
Na5 Na 0.21091(19) 0.91844(13) 0.28117(17)
O19 O 0.3561(3) 0.9214(2) 0.2851(3)
O21 O 0.4228(3) 0.9858(2) 0.2459(3)
O25 O 0.1949(4) 0.9797(3) 0.0069(4)
O28 O 0.1974(4) 0.9968(3) 0.1839(4)
O9 O 0.6677(4) 0.5073(3) 0.4498(3)
O10 O 0.8051(4) 0.4797(3) 0.4931(4)
N1 N 0.4681(4) 0.7709(3) 0.8584(4)
H1 H 0.518554 0.788032 0.877071
N2 N 0.5632(4) 0.8844(3) 0.5953(4)
H2 H 0.600084 0.889091 0.648296
N3 N 0.6772(4) 0.6382(3) 0.6745(4)
H3 H 0.621526 0.629399 0.645193
C1 C 0.4956(4) 0.7461(3) 0.7397(4)
C2 C 0.4756(5) 0.7909(3) 0.6829(4)
C3 C 0.5264(5) 0.7960(3) 0.6385(4)
C4 C 0.5975(5) 0.7600(3) 0.6541(4)
C5 C 0.6204(5) 0.7187(3) 0.7166(4)
C6 C 0.5682(5) 0.7102(3) 0.7580(4)
C7 C 0.4022(5) 0.8307(3) 0.6689(5)
H4 H 0.393737 0.831816 0.718708
H5 H 0.347608 0.818777 0.621005
H6 H 0.417965 0.866973 0.657994
C8 C 0.6489(6) 0.7655(4) 0.6037(5)
H7 H 0.678386 0.731001 0.605596
H8 H 0.692867 0.794368 0.627913
H9 H 0.608003 0.774479 0.545724
C9 C 0.5854(6) 0.6633(3) 0.8185(6)
H10 H 0.530819 0.642916 0.802090
H11 H 0.606194 0.677726 0.874952
H12 H 0.630184 0.639221 0.817323
C10 C 0.4363(5) 0.7377(3) 0.7823(4)
H13 H 0.375075 0.748084 0.743197
H14 H 0.436657 0.698860 0.796709
C11 C 0.4182(5) 0.7756(3) 0.9018(4)
C12 C 0.3509(4) 0.7375(3) 0.8897(4)
H15 H 0.336389 0.709848 0.848876
C13 C 0.3061(4) 0.7402(3) 0.9365(4)
C14 C 0.3259(5) 0.7824(3) 0.9962(4)
C16 C 0.4368(5) 0.8171(3) 0.9622(4)
H17 H 0.481377 0.842940 0.971331
C17 C 0.2404(5) 0.6950(3) 0.9264(5)
C19 C 0.4999(5) 0.8392(3) 0.5681(5)
H18 H 0.497887 0.821970 0.517937
H19 H 0.440395 0.853299 0.553229
C20 C 0.5633(5) 0.9202(3) 0.5344(4)
C21 C 0.4941(4) 0.9203(3) 0.4496(4)
H20 H 0.446869 0.895334 0.433666
C22 C 0.4948(4) 0.9563(3) 0.3903(4)
C23 C 0.5663(4) 0.9932(3) 0.4122(4)
C24 C 0.6351(4) 0.9935(3) 0.4951(4)
C25 C 0.6323(5) 0.9574(3) 0.5544(4)
H22 H 0.678716 0.958415 0.609845
C26 C 0.4198(5) 0.9546(3) 0.3021(4)
C28 C 0.7020(5) 0.6833(3) 0.7353(5)
H23 H 0.747889 0.705966 0.731881
H24 H 0.726485 0.668460 0.792512
C29 C 0.7409(4) 0.6091(3) 0.6629(4)
C30 C 0.7164(5) 0.5737(3) 0.5935(4)
H25 H 0.655826 0.569692 0.555245
C31 C 0.7790(5) 0.5443(3) 0.5793(4)
C32 C 0.8691(5) 0.5495(3) 0.6360(4)
H26 H 0.911756 0.530423 0.626691
C33 C 0.8958(5) 0.5833(3) 0.7065(5)
C34 C 0.8330(5) 0.6121(3) 0.7210(5)
H27 H 0.851903 0.633701 0.769723
C35 C 0.7475(5) 0.5080(3) 0.5026(5)
C36 C 0.9948(5) 0.5886(3) 0.7716(5)
N6 N 0.9230(6) 0.9476(4) 0.8467(6)
C43 C 0.8704(6) 0.9800(4) 0.8679(7)
H42 H 0.887057 0.984728 0.925306
C44 C 0.8993(10) 0.9383(6) 0.7594(8)
H43 H 0.949665 0.946846 0.749978
H44 H 0.849578 0.961708 0.724180
H45 H 0.882702 0.900137 0.745328
H47 H 0.986902 0.882771 0.916061
Cd4 Cd 0.70575(3) 0.44347(2) 0.36324(3)
O5 O 0.6439(3) 0.4214(2) 0.2149(3)
O6 O 0.5772(3) 0.4858(2) 0.2541(3)
C21_2 C 0.5059(4) 0.4203(3) 0.0504(4)
H20_2 H 0.553131 0.395334 0.066334
C22_2 C 0.5052(4) 0.4563(3) 0.1097(4)
C23_2 C 0.4337(4) 0.4932(3) 0.0878(4)
H21_2 H 0.432339 0.517121 0.128264
C24_2 C 0.3649(4) 0.4935(3) 0.0049(4)
C26_2 C 0.5802(5) 0.4546(3) 0.1979(4)
Na4 Na 0.78909(19) 0.41844(13) 0.21883(17)
O2 O 0.7955(3) 0.1936(2) 0.5238(3)
O3_2 O 0.6407(4) 0.3730(2) 0.3953(4)
O4_2 O 0.5225(4) 0.3987(2) 0.4126(4)
N1_2 N 0.5319(4) 0.2709(3) 0.6416(4)
H1_2 H 0.481446 0.288032 0.622929
N2_2 N 0.4368(4) 0.3844(3) 0.9047(4)
H2_2 H 0.399916 0.389091 0.851704
N3_2 N 0.3228(4) 0.1382(3) 0.8255(4)
H3_2 H 0.378474 0.129399 0.854807
C1_2 C 0.5044(4) 0.2461(3) 0.7603(4)
C2_2 C 0.5244(5) 0.2909(3) 0.8171(4)
C3_2 C 0.4736(5) 0.2960(3) 0.8615(4)
C4_2 C 0.4025(5) 0.2600(3) 0.8459(4)
C5_2 C 0.3796(5) 0.2187(3) 0.7834(4)
C6_2 C 0.4318(5) 0.2102(3) 0.7420(4)
C7_2 C 0.5978(5) 0.3307(3) 0.8311(5)
H4_2 H 0.606263 0.331816 0.781292
H5_2 H 0.652392 0.318777 0.878995
H6_2 H 0.582035 0.366973 0.842006
C8_2 C 0.3511(6) 0.2655(4) 0.8963(5)
H7_2 H 0.321614 0.231001 0.894404
H8_2 H 0.307133 0.294368 0.872087
H9_2 H 0.391997 0.274479 0.954276
C9_2 C 0.4146(6) 0.1633(3) 0.6815(6)
H10_2 H 0.469181 0.142916 0.697910
H11_2 H 0.393806 0.177726 0.625048
H12_2 H 0.369816 0.139221 0.682677
C10_2 C 0.5637(5) 0.2377(3) 0.7177(4)
H13_2 H 0.624925 0.248084 0.756803
H14_2 H 0.563343 0.198860 0.703291
C11_2 C 0.5818(5) 0.2756(3) 0.5982(4)
C12_2 C 0.6491(4) 0.2375(3) 0.6103(4)
H15_2 H 0.663611 0.209848 0.651124
C13_2 C 0.6939(4) 0.2402(3) 0.5635(4)
C14_2 C 0.6741(5) 0.2824(3) 0.5038(4)
H16_2 H 0.705202 0.284624 0.472281
C15_2 C 0.6092(5) 0.3206(3) 0.4914(4)
C16_2 C 0.5632(5) 0.3171(3) 0.5378(4)
H17_2 H 0.518623 0.342940 0.528669
C17_2 C 0.7596(5) 0.1950(3) 0.5736(5)
C18_2 C 0.5897(5) 0.3680(3) 0.4274(5)
C19_2 C 0.5001(5) 0.3392(3) 0.9319(5)
H18_2 H 0.502113 0.321970 0.982063
H19_2 H 0.559605 0.353299 0.946771
C20_2 C 0.4367(5) 0.4202(3) 0.9656(4)
C25_2 C 0.3677(5) 0.4574(3) 0.9456(4)
H22_2 H 0.321284 0.458415 0.890155
C27_2 C 0.2868(5) 0.5315(3) 0.9807(5)
C28_2 C 0.2980(5) 0.1833(3) 0.7647(5)
H23_2 H 0.252111 0.205966 0.768119
H24_2 H 0.273515 0.168460 0.707488
C29_2 C 0.2591(4) 0.1091(3) 0.8371(4)
C30_2 C 0.2836(5) 0.0737(3) 0.9065(4)
H25_2 H 0.344174 0.069692 0.944755
C31_2 C 0.2210(5) 0.0443(3) 0.9207(4)
C32_2 C 0.1309(5) 0.0495(3) 0.8640(4)
H26_2 H 0.088244 0.030423 0.873309
C33_2 C 0.1042(5) 0.0833(3) 0.7935(5)
C34_2 C 0.1670(5) 0.1121(3) 0.7790(5)
H27_2 H 0.148097 0.133701 0.730277
C35_2 C 0.2525(5) 0.0080(3) 0.9974(5)
C36_2 C 0.0052(5) 0.0886(3) 0.7284(5)
O13_2 O 0.8115(4) 0.3796(3) 0.3619(4)
N4_2 N 0.8697(7) 0.2957(4) 0.3715(8)
C37_2 C 0.8117(8) 0.3335(4) 0.3746(8)
H28_2 H 0.768168 0.320384 0.388336
C38_2 C 0.8385(10) 0.2467(4) 0.3881(11)
H29_2 H 0.874753 0.216412 0.386541
H30_2 H 0.777309 0.240947 0.345847
H31_2 H 0.841577 0.248593 0.443355
C39_2 C 0.9492(9) 0.3108(7) 0.3661(12)
H32_2 H 0.997436 0.286458 0.401538
H33_2 H 0.965153 0.348365 0.385084
H34_2 H 0.938340 0.307582 0.308259
O15_2 O 0.1974(4) 0.5032(3) 0.6839(4)
N6_2 N 0.0770(6) 0.4476(4) 0.6533(6)
C43_2 C 0.1296(6) 0.4800(4) 0.6321(7)
H42_2 H 0.112943 0.484728 0.574694
C44_2 C 0.1007(10) 0.4383(6) 0.7406(8)
H43_2 H 0.050335 0.446846 0.750022
H44_2 H 0.150422 0.461708 0.775820
H45_2 H 0.117298 0.400137 0.754672
H47_2 H 0.013098 0.382771 0.583939
Cd5_2 Cd 0.29425(3) 0.55653(2) 0.63676(3)
O20_2 O 0.3561(3) 0.5786(2) 0.7851(3)
O27_2 O 0.1885(4) 0.6204(3) 0.6381(4)
O28_2 O 0.8026(4) 0.4968(3) 0.3161(4)
O12_2 O 0.9895(3) 0.1024(3) 0.6538(3)
O14_2 O 0.8889(5) 0.0941(3) 0.4548(4)
N5_2 N 0.8394(7) 0.0913(6) 0.3116(5)
C40_2 C 0.8315(7) 0.1036(6) 0.3814(6)
H35_2 H 0.778618 0.120490 0.373680
C41_2 C 0.7748(10) 0.1047(9) 0.2276(7)
H36_2 H 0.716020 0.104305 0.223800
H37_2 H 0.777442 0.077874 0.188890
H38_2 H 0.787134 0.140950 0.213242
C42_2 C 0.9183(10) 0.0626(8) 0.3207(10)
H39_2 H 0.949995 0.085467 0.299333
H40_2 H 0.901082 0.028482 0.289221
H41_2 H 0.956608 0.054658 0.379782
C45_2 C 0.9995(8) 0.4210(6) 0.5881(10)
H46_2 H 0.950903 0.423121 0.601990
H48_2 H 0.982636 0.439205 0.534751
O1 O 0.7745(4) 0.3423(2) 0.1268(3)
O2_2 O 0.7955(3) 0.3064(2) 0.0238(3)
O6_2 O 0.5772(3) 0.0142(2) 0.7541(3)
O9_2 O 0.3323(4) 0.4927(3) 0.5502(3)
O10_2 O 0.1949(4) 0.5203(3) 0.5069(4)
N1_3 N 0.5319(4) 0.2291(3) 0.1416(4)
H1_3 H 0.481446 0.211968 0.122929
N2_3 N 0.4368(4) 0.1156(3) 0.4047(4)
H2_3 H 0.399916 0.110909 0.351704
N3_3 N 0.3228(4) 0.3618(3) 0.3255(4)
H3_3 H 0.378474 0.370601 0.354807
C1_3 C 0.5044(4) 0.2539(3) 0.2603(4)
C2_3 C 0.5244(5) 0.2091(3) 0.3171(4)
C3_3 C 0.4736(5) 0.2040(3) 0.3615(4)
C4_3 C 0.4025(5) 0.2400(3) 0.3459(4)
C5_3 C 0.3796(5) 0.2813(3) 0.2834(4)
C6_3 C 0.4318(5) 0.2898(3) 0.2420(4)
C7_3 C 0.5978(5) 0.1693(3) 0.3311(5)
H4_3 H 0.606263 0.168184 0.281292
H5_3 H 0.652392 0.181223 0.378995
H6_3 H 0.582035 0.133027 0.342006
C8_3 C 0.3511(6) 0.2345(4) 0.3963(5)
H7_3 H 0.321614 0.268999 0.394404
H8_3 H 0.307133 0.205632 0.372087
H9_3 H 0.391997 0.225521 0.454276
C9_3 C 0.4146(6) 0.3367(3) 0.1815(6)
H10_3 H 0.469181 0.357084 0.197910
H11_3 H 0.393806 0.322274 0.125048
H12_3 H 0.369816 0.360779 0.182677
C10_3 C 0.5637(5) 0.2623(3) 0.2177(4)
H13_3 H 0.624925 0.251916 0.256803
H14_3 H 0.563343 0.301140 0.203291
C11_3 C 0.5818(5) 0.2244(3) 0.0982(4)
C12_3 C 0.6491(4) 0.2625(3) 0.1103(4)
H15_3 H 0.663611 0.290152 0.151124
C13_3 C 0.6939(4) 0.2598(3) 0.0635(4)
C14_3 C 0.6741(5) 0.2176(3) 0.0038(4)
C16_3 C 0.5632(5) 0.1829(3) 0.0378(4)
H17_3 H 0.518623 0.157060 0.028669
C17_3 C 0.7596(5) 0.3050(3) 0.0736(5)
C19_3 C 0.5001(5) 0.1608(3) 0.4319(5)
H18_3 H 0.502113 0.178030 0.482063
H19_3 H 0.559605 0.146701 0.446771
C20_3 C 0.4367(5) 0.0798(3) 0.4656(4)
C21_3 C 0.5059(4) 0.0797(3) 0.5504(4)
H20_3 H 0.553131 0.104666 0.566334
C22_3 C 0.5052(4) 0.0437(3) 0.6097(4)
C23_3 C 0.4337(4) 0.0068(3) 0.5878(4)
C24_3 C 0.3649(4) 0.0065(3) 0.5049(4)
C25_3 C 0.3677(5) 0.0426(3) 0.4456(4)
H22_3 H 0.321284 0.041585 0.390155
C26_3 C 0.5802(5) 0.0454(3) 0.6979(4)
C28_3 C 0.2980(5) 0.3167(3) 0.2647(5)
H23_3 H 0.252111 0.294034 0.268119
H24_3 H 0.273515 0.331540 0.207488
C29_3 C 0.2591(4) 0.3909(3) 0.3371(4)
C30_3 C 0.2836(5) 0.4263(3) 0.4065(4)
H25_3 H 0.344174 0.430308 0.444755
C31_3 C 0.2210(5) 0.4557(3) 0.4207(4)
C32_3 C 0.1309(5) 0.4505(3) 0.3640(4)
H26_3 H 0.088244 0.469577 0.373309
C33_3 C 0.1042(5) 0.4167(3) 0.2935(5)
C34_3 C 0.1670(5) 0.3879(3) 0.2790(5)
H27_3 H 0.148097 0.366299 0.230277
C35_3 C 0.2525(5) 0.4920(3) 0.4974(5)
C36_3 C 0.0052(5) 0.4114(3) 0.2284(5)
N6_3 N 0.0770(6) 0.0524(4) 0.1533(6)
C43_3 C 0.1296(6) 0.0200(4) 0.1321(7)
H42_3 H 0.112943 0.015272 0.074694
C44_3 C 0.1007(10) 0.0617(6) 0.2406(8)
H43_3 H 0.050335 0.053154 0.250022
H44_3 H 0.150422 0.038292 0.275820
H45_3 H 0.117298 0.099863 0.254672
H47_3 H 0.013098 0.117229 0.083939
Cd6 Cd 0.84964(3) 0.39564(2) 0.06299(3)
O3_3 O 0.6407(4) 0.1270(2) 0.8953(4)
O4_3 O 0.5225(4) 0.1013(2) 0.9126(4)
H16_3 H 0.705202 0.215376 0.972281
C15_3 C 0.6092(5) 0.1794(3) 0.9914(4)
C18_3 C 0.5897(5) 0.1320(3) 0.9274(5)
N4_3 N 0.8697(7) 0.2043(4) 0.8715(8)
C37_3 C 0.8117(8) 0.1665(4) 0.8746(8)
H28_3 H 0.768168 0.179616 0.888336
C38_3 C 0.8385(10) 0.2533(4) 0.8881(11)
H29_3 H 0.874753 0.283588 0.886541
H30_3 H 0.777309 0.259053 0.845847
H31_3 H 0.841577 0.251407 0.943355
C39_3 C 0.9492(9) 0.1892(7) 0.8661(12)
H32_3 H 0.997436 0.213542 0.901538
H33_3 H 0.965153 0.151635 0.885084
H34_3 H 0.938340 0.192418 0.808259
O25_2 O 0.8051(4) 0.0203(3) 0.9931(4)
O7_2 O 0.2838(4) 0.9376(2) 0.5373(3)
O8_2 O 0.2258(3) 0.9671(2) 0.4052(3)
H21_3 H 0.432339 0.982879 0.628264
C27_3 C 0.2868(5) 0.9685(3) 0.4807(5)
Cd7_2 Cd 0.15036(3) 0.89564(2) 0.43701(3)
O17_2 O 0.2255(4) 0.8423(2) 0.3732(3)
O26_2 O 0.0513(4) 0.9223(3) 0.2491(4)
O24_2 O 0.6677(4) 0.9927(3) 0.9498(3)
O11_2 O 0.9487(4) 0.4223(3) 0.2509(4)
O12_3 O 0.9895(3) 0.3976(3) 0.1538(3)
C45_3 C 0.9995(8) 0.0790(6) 0.0881(10)
H46_3 H 0.950903 0.076879 0.101990
H48_3 H 0.982636 0.060795 0.034751
O23_2 O 0.7742(3) 0.4671(2) 0.0948(3)
O14_3 O 0.8889(5) 0.4059(3) 0.9548(4)
N5_3 N 0.8394(7) 0.4087(6) 0.8116(5)
C40_3 C 0.8315(7) 0.3964(6) 0.8814(6)
H35_3 H 0.778618 0.379510 0.873680
C41_3 C 0.7748(10) 0.3953(9) 0.7276(7)
H36_3 H 0.716020 0.395695 0.723800
H37_3 H 0.777442 0.422126 0.688890
H38_3 H 0.787134 0.359050 0.713242
C42_3 C 0.9183(10) 0.4374(8) 0.8207(10)
H39_3 H 0.949995 0.414533 0.799333
H40_3 H 0.901082 0.471518 0.789221
H41_3 H 0.956608 0.445342 0.879782
O22_2 O 0.7162(4) 0.4376(2) 0.9627(3)
O12_4 O 0.0105(3) 0.8976(3) 0.3462(3)
O14_4 O 0.1111(5) 0.9059(3) 0.5452(4)
N5_4 N 0.1606(7) 0.9087(6) 0.6884(5)
C40_4 C 0.1685(7) 0.8964(6) 0.6186(6)
H35_4 H 0.221382 0.879510 0.626320
C41_4 C 0.2252(10) 0.8953(9) 0.7724(7)
H36_4 H 0.283980 0.895695 0.776200
H37_4 H 0.222558 0.922126 0.811110
H38_4 H 0.212866 0.859050 0.786758
C42_4 C 0.0817(10) 0.9374(8) 0.6793(10)
H39_4 H 0.050005 0.914533 0.700667
H40_4 H 0.098918 0.971518 0.710779
H41_4 H 0.043392 0.945342 0.620218
C45_4 C 0.0005(8) 0.5790(6) 0.4119(10)
H46_4 H 0.049097 0.576879 0.398010
H48_4 H 0.017364 0.560795 0.465249
O18_2 O 0.2045(3) 0.8064(2) 0.4762(3)
O3_4 O 0.3593(4) 0.6270(2) 0.6047(4)
O4_4 O 0.4775(4) 0.6013(2) 0.5874(4)
N1_4 N 0.4681(4) 0.7291(3) 0.3584(4)
H1_4 H 0.518554 0.711968 0.377071
N2_4 N 0.5632(4) 0.6156(3) 0.0953(4)
H2_4 H 0.600084 0.610909 0.148296
N3_4 N 0.6772(4) 0.8618(3) 0.1745(4)
H3_4 H 0.621526 0.870601 0.145193
C1_4 C 0.4956(4) 0.7539(3) 0.2397(4)
C2_4 C 0.4756(5) 0.7091(3) 0.1829(4)
C3_4 C 0.5264(5) 0.7040(3) 0.1385(4)
C4_4 C 0.5975(5) 0.7400(3) 0.1541(4)
C5_4 C 0.6204(5) 0.7813(3) 0.2166(4)
C6_4 C 0.5682(5) 0.7898(3) 0.2580(4)
C7_4 C 0.4022(5) 0.6693(3) 0.1689(5)
H4_4 H 0.393737 0.668184 0.218708
H5_4 H 0.347608 0.681223 0.121005
H6_4 H 0.417965 0.633027 0.157994
C8_4 C 0.6489(6) 0.7345(4) 0.1037(5)
H7_4 H 0.678386 0.768999 0.105596
H8_4 H 0.692867 0.705632 0.127913
H9_4 H 0.608003 0.725521 0.045724
C9_4 C 0.5854(6) 0.8367(3) 0.3185(6)
H10_4 H 0.530819 0.857084 0.302090
H11_4 H 0.606194 0.822274 0.374952
H12_4 H 0.630184 0.860779 0.317323
C10_4 C 0.4363(5) 0.7623(3) 0.2823(4)
H13_4 H 0.375075 0.751916 0.243197
H14_4 H 0.436657 0.801140 0.296709
C11_4 C 0.4182(5) 0.7244(3) 0.4018(4)
C12_4 C 0.3509(4) 0.7625(3) 0.3897(4)
H15_4 H 0.336389 0.790152 0.348876
C13_4 C 0.3061(4) 0.7598(3) 0.4365(4)
C14_4 C 0.3259(5) 0.7176(3) 0.4962(4)
H16_4 H 0.294798 0.715376 0.527719
C15_4 C 0.3908(5) 0.6794(3) 0.5086(4)
C16_4 C 0.4368(5) 0.6829(3) 0.4622(4)
H17_4 H 0.481377 0.657060 0.471331
C17_4 C 0.2404(5) 0.8050(3) 0.4264(5)
C18_4 C 0.4103(5) 0.6320(3) 0.5726(5)
C19_4 C 0.4999(5) 0.6608(3) 0.0681(5)
H18_4 H 0.497887 0.678030 0.017937
H19_4 H 0.440395 0.646701 0.053229
C20_4 C 0.5633(5) 0.5798(3) 0.0344(4)
C25_4 C 0.6323(5) 0.5426(3) 0.0544(4)
H22_4 H 0.678716 0.541585 0.109845
C27_4 C 0.7132(5) 0.4685(3) 0.0193(5)
C28_4 C 0.7020(5) 0.8167(3) 0.2353(5)
H23_4 H 0.747889 0.794034 0.231881
H24_4 H 0.726485 0.831540 0.292512
C29_4 C 0.7409(4) 0.8909(3) 0.1629(4)
C30_4 C 0.7164(5) 0.9263(3) 0.0935(4)
H25_4 H 0.655826 0.930308 0.055245
C31_4 C 0.7790(5) 0.9557(3) 0.0793(4)
C32_4 C 0.8691(5) 0.9505(3) 0.1360(4)
H26_4 H 0.911756 0.969577 0.126691
C33_4 C 0.8958(5) 0.9167(3) 0.2065(5)
C34_4 C 0.8330(5) 0.8879(3) 0.2210(5)
H27_4 H 0.851903 0.866299 0.269723
C35_4 C 0.7475(5) 0.9920(3) 0.0026(5)
C36_4 C 0.9948(5) 0.9114(3) 0.2716(5)
N4_4 N 0.1303(7) 0.7043(4) 0.6285(8)
C37_4 C 0.1883(8) 0.6665(4) 0.6254(8)
H28_4 H 0.231832 0.679616 0.611664
C38_4 C 0.1615(10) 0.7533(4) 0.6119(11)
H29_4 H 0.125247 0.783588 0.613459
H30_4 H 0.222691 0.759053 0.654153
H31_4 H 0.158423 0.751407 0.556645
C39_4 C 0.0508(9) 0.6892(7) 0.6339(12)
H32_4 H 0.002564 0.713542 0.598462
H33_4 H 0.034847 0.651635 0.614916
H34_4 H 0.061660 0.692418 0.691741
N6_4 N 0.9230(6) 0.5524(4) 0.3467(6)
C43_4 C 0.8704(6) 0.5200(4) 0.3679(7)
H42_4 H 0.887057 0.515272 0.425306
C44_4 C 0.8993(10) 0.5617(6) 0.2594(8)
H43_4 H 0.949665 0.553154 0.249978
H44_4 H 0.849578 0.538292 0.224180
H45_4 H 0.882702 0.599863 0.245328
H47_4 H 0.986902 0.617229 0.416061
O21_2 O 0.4228(3) 0.5142(2) 0.7459(3)
C21_4 C 0.4941(4) 0.5797(3) 0.9496(4)
H20_4 H 0.446869 0.604666 0.933666
C22_4 C 0.4948(4) 0.5437(3) 0.8903(4)
C23_4 C 0.5663(4) 0.5068(3) 0.9122(4)
H21_4 H 0.567661 0.482879 0.871736
C24_4 C 0.6351(4) 0.5065(3) 0.9951(4)
C26_4 C 0.4198(5) 0.5454(3) 0.8021(4)
N7 N 0.5279(6) 0.0005(4) 0.1591(6)
H49 H 0.489275 0.017422 0.172566
H52 H 0.637147 0.025116 0.262476
C47 C 0.5426(9) 0.0352(5) 0.0981(8)
H54 H 0.487255 0.038671 0.046333
H55 H 0.586984 0.018100 0.086179
H56 H 0.562963 0.071293 0.122221
H50 H 0.503906 0.968215 0.134710
C46 C 0.6113(8) 0.9904(5) 0.2360(7)
H51 H 0.599447 0.968168 0.274497
H53 H 0.652404 0.971089 0.221738
N7_2 N 0.4721(6) 0.5005(4) 0.3409(6)
H49_2 H 0.510725 0.517422 0.327434
H50_2 H 0.496094 0.468215 0.365290
C46_2 C 0.3887(8) 0.4904(5) 0.2640(7)
H51_2 H 0.400553 0.468168 0.225503
H52_2 H 0.362853 0.525116 0.237524
H53_2 H 0.347596 0.471089 0.278262
C47_2 C 0.4574(9) 0.5352(5) 0.4019(8)
H54_2 H 0.512745 0.538671 0.453667
H55_2 H 0.413016 0.518100 0.413821
H56_2 H 0.437037 0.571293 0.377779
H50_3 H 0.496094 0.031785 0.865290
C46_3 C 0.3887(8) 0.0096(5) 0.7640(7)
H51_3 H 0.400553 0.031832 0.725503
H53_3 H 0.347596 0.028911 0.778262
N7_3 N 0.4721(6) 0.9995(4) 0.8409(6)
H49_3 H 0.510725 0.982578 0.827434
H52_3 H 0.362853 0.974884 0.737524
C47_3 C 0.4574(9) 0.9648(5) 0.9019(8)
H54_3 H 0.512745 0.961329 0.953667
H55_3 H 0.413016 0.981900 0.913821
H56_3 H 0.437037 0.928707 0.877779
N7_4 N 0.5279(6) 0.4995(4) 0.6591(6)
H49_4 H 0.489275 0.482578 0.672566
H50_4 H 0.503906 0.531785 0.634710
C46_4 C 0.6113(8) 0.5096(5) 0.7360(7)
H51_4 H 0.599447 0.531832 0.774497
H52_4 H 0.637147 0.474884 0.762476
H53_4 H 0.652404 0.528911 0.721738
C47_4 C 0.5426(9) 0.4648(5) 0.5981(8)
H54_4 H 0.487255 0.461329 0.546333
H55_4 H 0.586984 0.481900 0.586179
H56_4 H 0.562963 0.428707 0.622221
loop_
_geom_bond_atom_site_label_1
_geom_bond_atom_site_label_2
_geom_bond_site_symmetry_1
_geom_bond_site_symmetry_2
N5 C40 1_555 1_555
C40 O14 1_555 1_555
H35 C40 1_555 1_555
C41 N5 1_555 1_555
H36 C41 1_555 1_555
H37 C41 1_555 1_555
H38 C41 1_555 1_555
C42 N5 1_555 1_555
H39 C42 1_555 1_555
H40 C42 1_555 1_555
H41 C42 1_555 1_555
Cd2 O12 1_555 1_555
H46 C45 1_555 1_555
H48 C45 1_555 1_555
Na3 O11 1_555 1_555
O16 Cd2 1_555 1_555
O18 Cd2 1_555 1_555
O23 Cd2 1_555 1_555
Na3 O16 1_555 1_555
Na3 O23 1_555 1_555
Na1 O8 1_555 1_555
O7 C27 1_555 1_555
O8 C27 1_555 1_555
O15 Na1 1_555 1_555
Cd5 O15 1_555 1_555
Cd7 O7 1_555 1_555
O17 Na1 1_555 1_555
O20 Na1 1_555 1_555
O26 Na1 1_555 1_555
O27 Na1 1_555 1_555
O8 Cd7 1_555 1_555
Cd5 O20 1_555 1_555
Cd5 O27 1_555 1_555
Cd7 O17 1_555 1_555
Cd1 O3 1_555 1_555
O3 C18 1_555 1_555
O4 C18 1_555 1_555
C18 C15 1_555 1_555
O13 Cd1 1_555 1_555
N4 C37 1_555 1_555
C37 O13 1_555 1_555
H28 C37 1_555 1_555
C38 N4 1_555 1_555
H29 C38 1_555 1_555
H30 C38 1_555 1_555
H31 C38 1_555 1_555
C39 N4 1_555 1_555
H32 C39 1_555 1_555
H33 C39 1_555 1_555
H34 C39 1_555 1_555
Na5 O13 1_555 1_555
O19 Cd1 1_555 1_555
O21 Cd1 1_555 1_555
O25 Cd1 1_555 1_555
O28 Cd1 1_555 1_555
Na5 O19 1_555 1_555
Na5 O28 1_555 1_555
O16 C17 1_555 1_555
O18 C17 1_555 1_555
O19 C26 1_555 1_555
O21 C26 1_555 1_555
O9 C35 1_555 1_555
O10 C35 1_555 1_555
N1 H1 1_555 1_555
N2 H2 1_555 1_555
N3 H3 1_555 1_555
C1 C2 1_555 1_555
C2 C3 1_555 1_555
C3 C4 1_555 1_555
C4 C5 1_555 1_555
C5 C6 1_555 1_555
C6 C1 1_555 1_555
C7 C2 1_555 1_555
H4 C7 1_555 1_555
H5 C7 1_555 1_555
H6 C7 1_555 1_555
C8 C4 1_555 1_555
H7 C8 1_555 1_555
H8 C8 1_555 1_555
H9 C8 1_555 1_555
C9 C6 1_555 1_555
H10 C9 1_555 1_555
H11 C9 1_555 1_555
H12 C9 1_555 1_555
C10 N1 1_555 1_555
H13 C10 1_555 1_555
H14 C10 1_555 1_555
C11 N1 1_555 1_555
C12 C11 1_555 1_555
H15 C12 1_555 1_555
C13 C12 1_555 1_555
C14 C13 1_555 1_555
C16 C11 1_555 1_555
H17 C16 1_555 1_555
C17 C13 1_555 1_555
C19 N2 1_555 1_555
H18 C19 1_555 1_555
H19 C19 1_555 1_555
C20 N2 1_555 1_555
C21 C20 1_555 1_555
H20 C21 1_555 1_555
C22 C21 1_555 1_555
C23 C22 1_555 1_555
C24 C23 1_555 1_555
C25 C20 1_555 1_555
H22 C25 1_555 1_555
C26 C22 1_555 1_555
C28 N3 1_555 1_555
H23 C28 1_555 1_555
H24 C28 1_555 1_555
C29 N3 1_555 1_555
C30 C29 1_555 1_555
H25 C30 1_555 1_555
C31 C30 1_555 1_555
C32 C31 1_555 1_555
H26 C32 1_555 1_555
C33 C32 1_555 1_555
C34 C29 1_555 1_555
H27 C34 1_555 1_555
C35 C31 1_555 1_555
C36 C33 1_555 1_555
N6 C43 1_555 1_555
H42 C43 1_555 1_555
C44 N6 1_555 1_555
H43 C44 1_555 1_555
H44 C44 1_555 1_555
H45 C44 1_555 1_555
Cd4 O9 1_555 1_555
O10 Cd4 1_555 1_555
C1 C10 1_555 1_555
C3 C19 1_555 1_555
C5 C28 1_555 1_555
C24 C25 1_555 1_555
C33 C34 1_555 1_555
O5 C26_2 1_555 1_555
O6 C26_2 1_555 1_555
H20_2 C21_2 1_555 1_555
C22_2 C21_2 1_555 1_555
C23_2 C22_2 1_555 1_555
H21_2 C23_2 1_555 1_555
C24_2 C23_2 1_555 1_555
C26_2 C22_2 1_555 1_555
Cd4 O5 1_555 1_555
Na4 O5 1_555 1_555
O6 Cd4 1_555 1_555
Cd4 O3_2 1_555 1_555
O17 C17_2 1_555 1_555
O2 C17_2 1_555 1_555
O3_2 C18_2 1_555 1_555
O4_2 C18_2 1_555 1_555
O23 C27_2 1_555 1_555
N1_2 H1_2 1_555 1_555
N2_2 H2_2 1_555 1_555
N3_2 H3_2 1_555 1_555
C1_2 C2_2 1_555 1_555
C2_2 C3_2 1_555 1_555
C3_2 C4_2 1_555 1_555
C4_2 C5_2 1_555 1_555
C5_2 C6_2 1_555 1_555
C6_2 C1_2 1_555 1_555
C7_2 C2_2 1_555 1_555
H4_2 C7_2 1_555 1_555
H5_2 C7_2 1_555 1_555
H6_2 C7_2 1_555 1_555
C8_2 C4_2 1_555 1_555
H7_2 C8_2 1_555 1_555
H8_2 C8_2 1_555 1_555
H9_2 C8_2 1_555 1_555
C9_2 C6_2 1_555 1_555
H10_2 C9_2 1_555 1_555
H11_2 C9_2 1_555 1_555
H12_2 C9_2 1_555 1_555
C10_2 N1_2 1_555 1_555
H13_2 C10_2 1_555 1_555
H14_2 C10_2 1_555 1_555
C11_2 N1_2 1_555 1_555
C12_2 C11_2 1_555 1_555
H15_2 C12_2 1_555 1_555
C13_2 C12_2 1_555 1_555
C14_2 C13_2 1_555 1_555
H16_2 C14_2 1_555 1_555
C15_2 C14_2 1_555 1_555
C16_2 C11_2 1_555 1_555
H17_2 C16_2 1_555 1_555
C17_2 C13_2 1_555 1_555
C18_2 C15_2 1_555 1_555
C19_2 N2_2 1_555 1_555
H18_2 C19_2 1_555 1_555
H19_2 C19_2 1_555 1_555
C20_2 N2_2 1_555 1_555
C25_2 C20_2 1_555 1_555
H22_2 C25_2 1_555 1_555
C28_2 N3_2 1_555 1_555
H23_2 C28_2 1_555 1_555
H24_2 C28_2 1_555 1_555
C29_2 N3_2 1_555 1_555
C30_2 C29_2 1_555 1_555
H25_2 C30_2 1_555 1_555
C31_2 C30_2 1_555 1_555
C32_2 C31_2 1_555 1_555
H26_2 C32_2 1_555 1_555
C33_2 C32_2 1_555 1_555
C34_2 C29_2 1_555 1_555
H27_2 C34_2 1_555 1_555
C35_2 C31_2 1_555 1_555
C36_2 C33_2 1_555 1_555
O13_2 Cd4 1_555 1_555
N4_2 C37_2 1_555 1_555
C37_2 O13_2 1_555 1_555
H28_2 C37_2 1_555 1_555
C38_2 N4_2 1_555 1_555
H29_2 C38_2 1_555 1_555
H30_2 C38_2 1_555 1_555
H31_2 C38_2 1_555 1_555
C39_2 N4_2 1_555 1_555
H32_2 C39_2 1_555 1_555
H33_2 C39_2 1_555 1_555
H34_2 C39_2 1_555 1_555
O15_2 Na3 1_555 1_555
N6_2 C43_2 1_555 1_555
C43_2 O15_2 1_555 1_555
H42_2 C43_2 1_555 1_555
C44_2 N6_2 1_555 1_555
H43_2 C44_2 1_555 1_555
H44_2 C44_2 1_555 1_555
H45_2 C44_2 1_555 1_555
Cd5_2 O15_2 1_555 1_555
Na4 O13_2 1_555 1_555
O20_2 Na3 1_555 1_555
O27_2 Na3 1_555 1_555
O28_2 Cd4 1_555 1_555
O2 Cd7 1_555 1_555
C1_2 C10_2 1_555 1_555
C3_2 C19_2 1_555 1_555
C5_2 C28_2 1_555 1_555
C15_2 C16_2 1_555 1_555
C33_2 C34_2 1_555 1_555
Cd5_2 O20_2 1_555 1_555
Cd5_2 O27_2 1_555 1_555
Na4 O28_2 1_555 1_555
Cd7 O12_2 1_555 1_555
O14_2 Cd7 1_555 1_555
N5_2 C40_2 1_555 1_555
C40_2 O14_2 1_555 1_555
H35_2 C40_2 1_555 1_555
C41_2 N5_2 1_555 1_555
H36_2 C41_2 1_555 1_555
H37_2 C41_2 1_555 1_555
H38_2 C41_2 1_555 1_555
C42_2 N5_2 1_555 1_555
H39_2 C42_2 1_555 1_555
H40_2 C42_2 1_555 1_555
H41_2 C42_2 1_555 1_555
H46_2 C45_2 1_555 1_555
H48_2 C45_2 1_555 1_555
O1 C17_3 1_555 1_555
O2_2 C17_3 1_555 1_555
O20 C26_3 1_555 1_555
O6_2 C26_3 1_555 1_555
O9_2 C35_3 1_555 1_555
O10_2 C35_3 1_555 1_555
N1_3 H1_3 1_555 1_555
N2_3 H2_3 1_555 1_555
N3_3 H3_3 1_555 1_555
C1_3 C2_3 1_555 1_555
C2_3 C3_3 1_555 1_555
C3_3 C4_3 1_555 1_555
C4_3 C5_3 1_555 1_555
C5_3 C6_3 1_555 1_555
C6_3 C1_3 1_555 1_555
C7_3 C2_3 1_555 1_555
H4_3 C7_3 1_555 1_555
H5_3 C7_3 1_555 1_555
H6_3 C7_3 1_555 1_555
C8_3 C4_3 1_555 1_555
H7_3 C8_3 1_555 1_555
H8_3 C8_3 1_555 1_555
H9_3 C8_3 1_555 1_555
C9_3 C6_3 1_555 1_555
H10_3 C9_3 1_555 1_555
H11_3 C9_3 1_555 1_555
H12_3 C9_3 1_555 1_555
C10_3 N1_3 1_555 1_555
H13_3 C10_3 1_555 1_555
H14_3 C10_3 1_555 1_555
C11_3 N1_3 1_555 1_555
C12_3 C11_3 1_555 1_555
H15_3 C12_3 1_555 1_555
C13_3 C12_3 1_555 1_555
C14_3 C13_3 1_555 1_555
C16_3 C11_3 1_555 1_555
H17_3 C16_3 1_555 1_555
C17_3 C13_3 1_555 1_555
C19_3 N2_3 1_555 1_555
H18_3 C19_3 1_555 1_555
H19_3 C19_3 1_555 1_555
C20_3 N2_3 1_555 1_555
C21_3 C20_3 1_555 1_555
H20_3 C21_3 1_555 1_555
C22_3 C21_3 1_555 1_555
C23_3 C22_3 1_555 1_555
C24_3 C23_3 1_555 1_555
C25_3 C20_3 1_555 1_555
H22_3 C25_3 1_555 1_555
C26_3 C22_3 1_555 1_555
C28_3 N3_3 1_555 1_555
H23_3 C28_3 1_555 1_555
H24_3 C28_3 1_555 1_555
C29_3 N3_3 1_555 1_555
C30_3 C29_3 1_555 1_555
H25_3 C30_3 1_555 1_555
C31_3 C30_3 1_555 1_555
C32_3 C31_3 1_555 1_555
H26_3 C32_3 1_555 1_555
C33_3 C32_3 1_555 1_555
C34_3 C29_3 1_555 1_555
H27_3 C34_3 1_555 1_555
C35_3 C31_3 1_555 1_555
C36_3 C33_3 1_555 1_555
N6_3 C43_3 1_555 1_555
H42_3 C43_3 1_555 1_555
C44_3 N6_3 1_555 1_555
H43_3 C44_3 1_555 1_555
H44_3 C44_3 1_555 1_555
H45_3 C44_3 1_555 1_555
Cd5_2 O9_2 1_555 1_555
Cd6 O1 1_555 1_555
Na4 O1 1_555 1_555
O2_2 Cd6 1_555 1_555
O6_2 Cd5 1_555 1_555
O10_2 Cd5_2 1_555 1_555
C1_3 C10_3 1_555 1_555
C3_3 C19_3 1_555 1_555
C5_3 C28_3 1_555 1_555
C24_3 C25_3 1_555 1_555
C33_3 C34_3 1_555 1_555
Cd5 O3_3 1_555 1_555
O3_3 C18_3 1_555 1_555
O4_3 C18_3 1_555 1_555
C18_3 C15_3 1_555 1_555
N4_3 C37_3 1_555 1_555
C37_3 O27 1_555 1_555
H28_3 C37_3 1_555 1_555
C38_3 N4_3 1_555 1_555
H29_3 C38_3 1_555 1_555
H30_3 C38_3 1_555 1_555
H31_3 C38_3 1_555 1_555
C39_3 N4_3 1_555 1_555
H32_3 C39_3 1_555 1_555
H33_3 C39_3 1_555 1_555
H34_3 C39_3 1_555 1_555
O25_2 Cd5 1_555 1_555
Na5 O8_2 1_555 1_555
O7_2 C27_3 1_555 1_555
O8_2 C27_3 1_555 1_555
Cd7_2 O7_2 1_555 1_555
O17_2 Na5 1_555 1_555
O26_2 Na5 1_555 1_555
O8_2 Cd7_2 1_555 1_555
Cd7_2 O17_2 1_555 1_555
Cd6 O12_3 1_555 1_555
H46_3 C45_3 1_555 1_555
H48_3 C45_3 1_555 1_555
Na4 O11_2 1_555 1_555
O23_2 Cd6 1_555 1_555
Na4 O23_2 1_555 1_555
N5_3 C40_3 1_555 1_555
C40_3 O14_3 1_555 1_555
H35_3 C40_3 1_555 1_555
C41_3 N5_3 1_555 1_555
H36_3 C41_3 1_555 1_555
H37_3 C41_3 1_555 1_555
H38_3 C41_3 1_555 1_555
C42_3 N5_3 1_555 1_555
H39_3 C42_3 1_555 1_555
H40_3 C42_3 1_555 1_555
H41_3 C42_3 1_555 1_555
Cd7_2 O12_4 1_555 1_555
O14_4 Cd7_2 1_555 1_555
N5_4 C40_4 1_555 1_555
C40_4 O14_4 1_555 1_555
H35_4 C40_4 1_555 1_555
C41_4 N5_4 1_555 1_555
H36_4 C41_4 1_555 1_555
H37_4 C41_4 1_555 1_555
H38_4 C41_4 1_555 1_555
C42_4 N5_4 1_555 1_555
H39_4 C42_4 1_555 1_555
H40_4 C42_4 1_555 1_555
H41_4 C42_4 1_555 1_555
H46_4 C45_4 1_555 1_555
H48_4 C45_4 1_555 1_555
O18_2 Cd7_2 1_555 1_555
Cd5_2 O3_4 1_555 1_555
O17_2 C17_4 1_555 1_555
O18_2 C17_4 1_555 1_555
O3_4 C18_4 1_555 1_555
O4_4 C18_4 1_555 1_555
O23_2 C27_4 1_555 1_555
N1_4 H1_4 1_555 1_555
N2_4 H2_4 1_555 1_555
N3_4 H3_4 1_555 1_555
C1_4 C2_4 1_555 1_555
C2_4 C3_4 1_555 1_555
C3_4 C4_4 1_555 1_555
C4_4 C5_4 1_555 1_555
C5_4 C6_4 1_555 1_555
C6_4 C1_4 1_555 1_555
C7_4 C2_4 1_555 1_555
H4_4 C7_4 1_555 1_555
H5_4 C7_4 1_555 1_555
H6_4 C7_4 1_555 1_555
C8_4 C4_4 1_555 1_555
H7_4 C8_4 1_555 1_555
H8_4 C8_4 1_555 1_555
H9_4 C8_4 1_555 1_555
C9_4 C6_4 1_555 1_555
H10_4 C9_4 1_555 1_555
H11_4 C9_4 1_555 1_555
H12_4 C9_4 1_555 1_555
C10_4 N1_4 1_555 1_555
H13_4 C10_4 1_555 1_555
H14_4 C10_4 1_555 1_555
C11_4 N1_4 1_555 1_555
C12_4 C11_4 1_555 1_555
H15_4 C12_4 1_555 1_555
C13_4 C12_4 1_555 1_555
C14_4 C13_4 1_555 1_555
H16_4 C14_4 1_555 1_555
C15_4 C14_4 1_555 1_555
C16_4 C11_4 1_555 1_555
H17_4 C16_4 1_555 1_555
C17_4 C13_4 1_555 1_555
C18_4 C15_4 1_555 1_555
C19_4 N2_4 1_555 1_555
H18_4 C19_4 1_555 1_555
H19_4 C19_4 1_555 1_555
C20_4 N2_4 1_555 1_555
C25_4 C20_4 1_555 1_555
H22_4 C25_4 1_555 1_555
C28_4 N3_4 1_555 1_555
H23_4 C28_4 1_555 1_555
H24_4 C28_4 1_555 1_555
C29_4 N3_4 1_555 1_555
C30_4 C29_4 1_555 1_555
H25_4 C30_4 1_555 1_555
C31_4 C30_4 1_555 1_555
C32_4 C31_4 1_555 1_555
H26_4 C32_4 1_555 1_555
C33_4 C32_4 1_555 1_555
C34_4 C29_4 1_555 1_555
H27_4 C34_4 1_555 1_555
C35_4 C31_4 1_555 1_555
C36_4 C33_4 1_555 1_555
N4_4 C37_4 1_555 1_555
C37_4 O27_2 1_555 1_555
H28_4 C37_4 1_555 1_555
C38_4 N4_4 1_555 1_555
H29_4 C38_4 1_555 1_555
H30_4 C38_4 1_555 1_555
H31_4 C38_4 1_555 1_555
C39_4 N4_4 1_555 1_555
H32_4 C39_4 1_555 1_555
H33_4 C39_4 1_555 1_555
H34_4 C39_4 1_555 1_555
N6_4 C43_4 1_555 1_555
C43_4 O28_2 1_555 1_555
H42_4 C43_4 1_555 1_555
C44_4 N6_4 1_555 1_555
H43_4 C44_4 1_555 1_555
H44_4 C44_4 1_555 1_555
H45_4 C44_4 1_555 1_555
O21_2 Cd5_2 1_555 1_555
C1_4 C10_4 1_555 1_555
C3_4 C19_4 1_555 1_555
C5_4 C28_4 1_555 1_555
C15_4 C16_4 1_555 1_555
C33_4 C34_4 1_555 1_555
O20_2 C26_4 1_555 1_555
O21_2 C26_4 1_555 1_555
H20_4 C21_4 1_555 1_555
C22_4 C21_4 1_555 1_555
C23_4 C22_4 1_555 1_555
H21_4 C23_4 1_555 1_555
C24_4 C23_4 1_555 1_555
C26_4 C22_4 1_555 1_555
N7 H49 1_555 1_555
C47 N7 1_555 1_555
H54 C47 1_555 1_555
H55 C47 1_555 1_555
H56 C47 1_555 1_555
H51 C46 1_555 1_555
H53 C46 1_555 1_555
N7_2 H49_2 1_555 1_555
H50_2 N7_2 1_555 1_555
C46_2 N7_2 1_555 1_555
H51_2 C46_2 1_555 1_555
H52_2 C46_2 1_555 1_555
H53_2 C46_2 1_555 1_555
C47_2 N7_2 1_555 1_555
H54_2 C47_2 1_555 1_555
H55_2 C47_2 1_555 1_555
H56_2 C47_2 1_555 1_555
H51_3 C46_3 1_555 1_555
H53_3 C46_3 1_555 1_555
N7_3 H49_3 1_555 1_555
C47_3 N7_3 1_555 1_555
H54_3 C47_3 1_555 1_555
H55_3 C47_3 1_555 1_555
H56_3 C47_3 1_555 1_555
N7_4 H49_4 1_555 1_555
H50_4 N7_4 1_555 1_555
C46_4 N7_4 1_555 1_555
H51_4 C46_4 1_555 1_555
H52_4 C46_4 1_555 1_555
H53_4 C46_4 1_555 1_555
C47_4 N7_4 1_555 1_555
H54_4 C47_4 1_555 1_555
H55_4 C47_4 1_555 1_555
H56_4 C47_4 1_555 1_555

#END
