
###############################################################################
#
# This file contains modified crystal structure data generated from the
# MOF subset of the Cambridge Structural Database (CSD) v543 
# hosted by the Cambridge Crystallographic Data Centre (CCDC).
#
# This work is licensed under the Creative Commons
# Attribution-NonCommercial-ShareAlike 4.0 International License.
# To view a copy of this license, visit
# http://creativecommons.org/licenses/by-nc-sa/4.0/
# or send a letter to
# Creative Commons, PO Box 1866, Mountain View, CA 94042, USA.
#
# CIF created using the CSD Python API on 29 September 2022
# The structure has been converted into the P1 space group
# The structure has a 3D framework
# The original CSD entry ROVPIE is in the monoclinic crystal system
# The framework has been calculated to contain at least 10.0% void space
# The void calculation uses a probe of radius 1.32A, grid spacing 0.4
# H atom positions have been added when not included in the experimental data
#
###############################################################################

data_ROVPIE
_chemical_formula_moiety         '(C160 H216 Cl24 Cu4 Fe28 I2 N24 O68)n'
_symmetry_cell_setting           triclinic
_symmetry_space_group_name_H-M   'P 1'
_symmetry_Int_Tables_number      1
_space_group_name_Hall           'P 1'
loop_
_symmetry_equiv_pos_site_id
_symmetry_equiv_pos_as_xyz
1 x,y,z
_cell_length_a                   11.4027(18)
_cell_length_b                   54.461(8)
_cell_length_c                   18.009(3)
_cell_angle_alpha                90
_cell_angle_beta                 112.514(8)
_cell_angle_gamma                90
_cell_volume                     10331.3
loop_
_atom_site_label
_atom_site_type_symbol
_atom_site_fract_x
_atom_site_fract_y
_atom_site_fract_z
N8 N 0.0426(7) 0.04562(15) 0.0932(4)
Cu1 Cu 0.98118(13) 0.02274(2) 0.99538(6)
Fe1 Fe 0.47017(12) 0.17506(2) 0.50077(7)
Fe2 Fe 0.68491(12) 0.13372(2) 0.55398(7)
Fe3 Fe 0.46837(12) 0.09234(2) 0.49566(7)
Fe4 Fe 0.46374(12) 0.13285(2) 0.62175(7)
Cl1 Cl 0.4714(2) 0.21680(4) 0.50390(14)
Cl2 Cl 0.8995(2) 0.13387(4) 0.60952(15)
Cl3 Cl 0.4667(3) 0.05062(4) 0.49270(14)
Cl4 Cl 0.4569(3) 0.13179(4) 0.74702(13)
O1 O 0.6537(4) 0.13281(8) 0.6565(3)
O2 O 0.6583(5) 0.09678(9) 0.5460(3)
O3 O 0.6591(6) 0.13507(9) 0.4380(3)
O4 O 0.6601(5) 0.17009(9) 0.5464(3)
O5 O 0.4747(5) 0.17069(9) 0.3919(3)
O6 O 0.4640(5) 0.09672(9) 0.6035(3)
O7 O 0.4707(5) 0.13336(8) 0.4972(3)
N1 N 0.9036(10) 0.04341(14) 0.8968(5)
N2 N 0.8965(7) 0.22718(15) 0.3189(5)
C1 C 0.7649(11) 0.07248(16) 0.7626(5)
C2 C 0.8549(10) 0.0559(2) 0.7612(6)
H1 H 0.8677 0.0530 0.7139
C3 C 0.9267(11) 0.0435(2) 0.8317(6)
H2 H 0.9964 0.0345 0.8321
C4 C 0.8153(13) 0.0598(3) 0.8965(6)
H3 H 0.7999 0.0614 0.9433
C5 C 0.7457(12) 0.0745(2) 0.8320(6)
H4 H 0.6865 0.0855 0.8363
C6 C 0.5497(10) 0.08278(16) 0.6692(5)
H5 H 0.5344 0.0654 0.6569
H6 H 0.5320 0.0861 0.7167
C7 C 0.7232(8) 0.11541(14) 0.7176(5)
H7 H 0.7040 0.1181 0.7650
H8 H 0.8135 0.1180 0.7325
C8 C 0.7292(9) 0.08266(16) 0.6165(5)
H9 H 0.8189 0.0862 0.6326
H10 H 0.7167 0.0653 0.6037
C9 C 0.6889(9) 0.08827(18) 0.6877(5)
C10 C 0.7754(8) 0.19573(14) 0.3883(5)
C11 C 0.7064(7) 0.17887(13) 0.4238(5)
C12 C 0.8079(13) 0.1884(2) 0.3274(8)
H11 H 0.7909 0.1724 0.3080
C13 C 0.8121(13) 0.2180(2) 0.4171(8)
H12 H 0.8030 0.2228 0.4642
C14 C 0.7384(8) 0.15121(14) 0.4152(5)
H13 H 0.7270 0.1480 0.3599
H14 H 0.8266 0.1481 0.4488
C15 C 0.7361(7) 0.18445(15) 0.5162(5)
H15 H 0.8249 0.1811 0.5476
H16 H 0.7209 0.2017 0.5224
C16 C 0.5628(7) 0.18505(14) 0.3718(5)
H17 H 0.5479 0.2023 0.3789
H18 H 0.5473 0.1825 0.3156
C17 C 0.8656(11) 0.2045(2) 0.2943(8)
H19 H 0.8845 0.1990 0.2513
C18 C 0.8632(12) 0.23408(19) 0.3792(7)
H20 H 0.8750 0.2504 0.3961
O8 O 0.2823(5) 0.17052(9) 0.4560(3)
O9 O 0.4659(5) 0.16949(9) 0.6099(3)
O10 O 0.2767(5) 0.13347(8) 0.5593(3)
N3 N 0.0427(8) 0.22531(14) 0.6887(5)
C19 C 0.1253(13) 0.21763(18) 0.5849(7)
H21 H 0.1403 0.2244 0.5419
C20 C 0.1631(9) 0.19400(18) 0.6096(5)
C21 C 0.1406(15) 0.1865(2) 0.6772(9)
H22 H 0.1660 0.1710 0.6991
C22 C 0.0602(13) 0.2323(2) 0.6275(8)
H23 H 0.0303 0.2477 0.6072
C23 C 0.0773(16) 0.2030(2) 0.7127(9)
H24 H 0.0600 0.1972 0.7561
C24 C 0.2390(8) 0.17738(13) 0.5780(5)
C25 C 0.3767(9) 0.18301(15) 0.6342(5)
H25 H 0.3890 0.1786 0.6889
H26 H 0.3926 0.2005 0.6331
C26 C 0.2108(7) 0.18491(14) 0.4912(4)
H27 H 0.2314 0.2021 0.4897
H28 H 0.1209 0.1829 0.4596
C27 C 0.2073(10) 0.15080(14) 0.5852(6)
H29 H 0.1175 0.1484 0.5540
H30 H 0.2222 0.1475 0.6410
Fe5 Fe 0.47504(12) 0.13438(2) 0.37490(7)
Fe6 Fe 0.25266(12) 0.13425(2) 0.44218(7)
Cl5 Cl 0.0391(2) 0.13506(5) 0.38683(16)
Cl6 Cl 0.4796(3) 0.13467(4) 0.24969(13)
O11 O 0.2905(6) 0.13466(9) 0.3432(3)
O12 O 0.2805(6) 0.09726(10) 0.4453(4)
O13 O 0.4740(6) 0.09781(9) 0.3878(3)
C28 C 0.1210(12) 0.06452(18) 0.0913(6)
H31 H 0.1291 0.0679 0.0429
C29 C 0.1882(12) 0.07871(18) 0.1568(6)
H32 H 0.2461 0.0903 0.1537
C30 C 0.1690(8) 0.07559(15) 0.2279(5)
C31 C 0.0808(13) 0.0578(2) 0.2265(6)
H33 H 0.0580 0.0565 0.2707
C32 C 0.2435(9) 0.09075(14) 0.3045(4)
C33 C 0.3900(9) 0.08488(16) 0.3234(5)
H34 H 0.4045 0.0674 0.3342
H35 H 0.4076 0.0886 0.2760
C34 C 0.2128(10) 0.11743(16) 0.2785(6)
H36 H 0.2295 0.1204 0.2303
H37 H 0.1234 0.1205 0.2658
C35 C 0.2084(10) 0.08394(17) 0.3730(4)
H38 H 0.1188 0.0872 0.3588
H39 H 0.2223 0.0665 0.3833
C36 C 0.0241(12) 0.0416(2) 0.1614(6)
Fe7 Fe 0.97201(14) 0.25117(2) 0.25348(8)
O14 O 0.8071(8) 0.24044(13) 0.1306(6)
O16 O 0.8578(6) 0.27955(11) 0.2675(4)
N6 N 0.7208(9) 0.31207(17) 0.2260(6)
H42 H 0.6610 0.3191 0.1868
C37 C 0.7734(13) 0.2917(2) 0.2114(7)
C38 C 0.7618(16) 0.3222(3) 0.3039(8)
H43 H 0.7180 0.3374 0.3020
H44 H 0.8515 0.3252 0.3236
H45 H 0.7436 0.3110 0.3391
H50 H 0.723929 0.244828 0.132744
H51 H 0.818292 0.249485 0.0858873
H52 H 0.743566 0.285189 0.149721
O15 O 0.1352(7) 0.23846(12) 0.8781(5)
O17 O 0.0848(6) 0.27693(11) 0.7364(4)
N5 N 0.2118(10) 0.30898(18) 0.7750(6)
H41 H 0.2619 0.3176 0.8143
C39 C 0.1637(13) 0.2885(2) 0.7894(7)
C40 C 0.181(2) 0.3174(3) 0.6957(11)
H46 H 0.2478 0.3280 0.6942
H47 H 0.1730 0.3036 0.6608
H48 H 0.1029 0.3263 0.6782
H49 H 0.195811 0.281732 0.850897
H53 H 0.183379 0.253476 0.903345
H54 H 0.193515 0.226382 0.868939
I1 I 0.19091(7) 0.00541(2) 0.98390(5)
O15_2 O 0.1352(7) 0.26154(12) 0.3781(5)
O17_2 O 0.0848(6) 0.22307(11) 0.2364(4)
N5_2 N 0.2118(10) 0.19102(18) 0.2750(6)
H41_2 H 0.2619 0.1824 0.3143
C39_2 C 0.1637(13) 0.2115(2) 0.2894(7)
C40_2 C 0.181(2) 0.1826(3) 0.1957(11)
H46_2 H 0.2478 0.1720 0.1942
H47_2 H 0.1730 0.1964 0.1608
H48_2 H 0.1029 0.1737 0.1782
N7 N 0.0427(8) 0.27469(14) 0.1887(5)
H49_2 H 0.195811 0.218268 0.350897
H53_2 H 0.183379 0.246524 0.403345
H54_2 H 0.193515 0.273618 0.368939
Fe3_2 Fe 0.53163(12) 0.59234(2) 0.00434(7)
Cl3_2 Cl 0.5333(3) 0.55062(4) 0.00730(14)
O3_2 O 0.3409(6) 0.63507(9) 0.0620(3)
O5_2 O 0.5253(5) 0.67069(9) 0.1081(3)
O7_2 O 0.5293(5) 0.63336(8) 0.0028(3)
N2_2 N 0.1035(7) 0.72718(15) 0.1811(5)
C10_2 C 0.2246(8) 0.69573(14) 0.1117(5)
C11_2 C 0.2936(7) 0.67887(13) 0.0762(5)
C12_2 C 0.1921(13) 0.6884(2) 0.1726(8)
H11_2 H 0.2091 0.6724 0.1920
C13_2 C 0.1879(13) 0.7180(2) 0.0829(8)
H12_2 H 0.1970 0.7228 0.0358
C14_2 C 0.2616(8) 0.65121(14) 0.0848(5)
H13_2 H 0.2730 0.6480 0.1401
H14_2 H 0.1734 0.6481 0.0512
C16_2 C 0.4372(7) 0.68505(14) 0.1282(5)
H17_2 H 0.4521 0.7023 0.1211
H18_2 H 0.4527 0.6825 0.1844
C17_2 C 0.1344(11) 0.7045(2) 0.2057(8)
H19_2 H 0.1155 0.6990 0.2487
C18_2 C 0.1368(12) 0.73408(19) 0.1208(7)
H20_2 H 0.1250 0.7504 0.1039
O8_2 O 0.7177(5) 0.67052(9) 0.0440(3)
C26_2 C 0.7892(7) 0.68491(14) 0.0088(4)
H27_2 H 0.7686 0.7021 0.0103
H28_2 H 0.8791 0.6829 0.0404
Fe5_2 Fe 0.52496(12) 0.63438(2) 0.12510(7)
Fe6_2 Fe 0.74734(12) 0.63425(2) 0.05782(7)
Cl5_2 Cl 0.9609(2) 0.63506(5) 0.11317(16)
Cl6_2 Cl 0.5204(3) 0.63467(4) 0.25031(13)
O11_2 O 0.7095(6) 0.63466(9) 0.1568(3)
O12_2 O 0.7195(6) 0.59726(10) 0.0547(4)
O13_2 O 0.5260(6) 0.59781(9) 0.1122(3)
N4 N 0.9574(7) 0.54562(15) 0.4068(4)
C28_2 C 0.8790(12) 0.56452(18) 0.4087(6)
H31_2 H 0.8709 0.5679 0.4571
C29_2 C 0.8118(12) 0.57871(18) 0.3432(6)
H32_2 H 0.7539 0.5903 0.3463
C30_2 C 0.8310(8) 0.57559(15) 0.2721(5)
C31_2 C 0.9192(13) 0.5578(2) 0.2735(6)
H33_2 H 0.9420 0.5565 0.2293
C32_2 C 0.7565(9) 0.59075(14) 0.1955(4)
C33_2 C 0.6100(9) 0.58488(16) 0.1766(5)
H34_2 H 0.5955 0.5674 0.1658
H35_2 H 0.5924 0.5886 0.2240
C34_2 C 0.7872(10) 0.61743(16) 0.2215(6)
H36_2 H 0.7705 0.6204 0.2697
H37_2 H 0.8766 0.6205 0.2342
C35_2 C 0.7916(10) 0.58394(17) 0.1270(4)
H38_2 H 0.8812 0.5872 0.1412
H39_2 H 0.7777 0.5665 0.1167
C36_2 C 0.9759(12) 0.5416(2) 0.3386(6)
Fe7_2 Fe 0.02799(14) 0.75117(2) 0.24652(8)
O14_2 O 0.1929(8) 0.74044(13) 0.3694(6)
O16_2 O 0.1422(6) 0.77955(11) 0.2325(4)
N6_2 N 0.2792(9) 0.81207(17) 0.2740(6)
H42_2 H 0.3390 0.8191 0.3132
C37_2 C 0.2266(13) 0.7917(2) 0.2886(7)
C38_2 C 0.2382(16) 0.8222(3) 0.1961(8)
H43_2 H 0.2820 0.8374 0.1980
H44_2 H 0.1485 0.8252 0.1764
H45_2 H 0.2564 0.8110 0.1609
H50_2 H 0.276071 0.744828 0.367256
H51_2 H 0.181708 0.749485 0.414113
H52_2 H 0.256434 0.785189 0.350279
I1_2 I 0.80909(7) 0.50541(2) 0.51610(5)
Cu3 Cu 0.98118(13) 0.47726(2) 0.49538(6)
H40 H 0.0249 0.9716 0.8344
Fe1_2 Fe 0.47017(12) 0.32494(2) 0.00077(7)
Fe2_2 Fe 0.68491(12) 0.36628(2) 0.05398(7)
Fe4_2 Fe 0.46374(12) 0.36715(2) 0.12175(7)
Cl1_2 Cl 0.4714(2) 0.28320(4) 0.00390(14)
Cl2_2 Cl 0.8995(2) 0.36613(4) 0.10952(15)
Cl4_2 Cl 0.4569(3) 0.36821(4) 0.24702(13)
O1_2 O 0.6537(4) 0.36719(8) 0.1565(3)
O2_2 O 0.6583(5) 0.40322(9) 0.0460(3)
O4_2 O 0.6601(5) 0.32991(9) 0.0464(3)
O6_2 O 0.4640(5) 0.40328(9) 0.1035(3)
N1_2 N 0.9036(10) 0.45659(14) 0.3968(5)
C1_2 C 0.7649(11) 0.42752(16) 0.2626(5)
C2_2 C 0.8549(10) 0.4441(2) 0.2612(6)
H1_2 H 0.8677 0.4470 0.2139
C3_2 C 0.9267(11) 0.4565(2) 0.3317(6)
H2_2 H 0.9964 0.4655 0.3321
C4_2 C 0.8153(13) 0.4402(3) 0.3965(6)
H3_2 H 0.7999 0.4386 0.4433
C5_2 C 0.7457(12) 0.4255(2) 0.3320(6)
H4_2 H 0.6865 0.4145 0.3363
C6_2 C 0.5497(10) 0.41722(16) 0.1692(5)
H5_2 H 0.5344 0.4346 0.1569
H6_2 H 0.5320 0.4139 0.2167
C7_2 C 0.7232(8) 0.38459(14) 0.2176(5)
H7_2 H 0.7040 0.3819 0.2650
H8_2 H 0.8135 0.3820 0.2325
C8_2 C 0.7292(9) 0.41734(16) 0.1165(5)
H9_2 H 0.8189 0.4138 0.1326
H10_2 H 0.7167 0.4347 0.1037
C9_2 C 0.6889(9) 0.41173(18) 0.1877(5)
C15_2 C 0.7361(7) 0.31555(15) 0.0162(5)
H15_2 H 0.8249 0.3189 0.0476
H16_2 H 0.7209 0.2983 0.0224
O9_2 O 0.4659(5) 0.33051(9) 0.1099(3)
O10_2 O 0.2767(5) 0.36653(8) 0.0593(3)
C19_2 C 0.1253(13) 0.28237(18) 0.0849(7)
H21_2 H 0.1403 0.2756 0.0419
C20_2 C 0.1631(9) 0.30600(18) 0.1096(5)
C21_2 C 0.1406(15) 0.3135(2) 0.1772(9)
H22_2 H 0.1660 0.3290 0.1991
C22_2 C 0.0602(13) 0.2677(2) 0.1275(8)
H23_2 H 0.0303 0.2523 0.1072
C23_2 C 0.0773(16) 0.2970(2) 0.2127(9)
H24_2 H 0.0600 0.3028 0.2561
C24_2 C 0.2390(8) 0.32262(13) 0.0780(5)
C25_2 C 0.3767(9) 0.31699(15) 0.1342(5)
H25_2 H 0.3890 0.3214 0.1889
H26_2 H 0.3926 0.2995 0.1331
C27_2 C 0.2073(10) 0.34920(14) 0.0852(6)
H29_2 H 0.1175 0.3516 0.0540
H30_2 H 0.2222 0.3525 0.1410
H40_2 H 0.9751 0.4716 0.6656
Cu3_2 Cu 0.01882(13) 0.97726(2) 0.00462(6)
Fe8 Fe 0.02799(14) 0.74883(2) 0.74652(8)
O15_3 O 0.8648(7) 0.76154(12) 0.1219(5)
O17_3 O 0.9152(6) 0.72307(11) 0.2636(4)
N5_3 N 0.7882(10) 0.69102(18) 0.2250(6)
H41_3 H 0.7381 0.6824 0.1857
C39_3 C 0.8363(13) 0.7115(2) 0.2106(7)
C40_3 C 0.819(2) 0.6826(3) 0.3043(11)
H46_3 H 0.7522 0.6720 0.3058
H47_3 H 0.8270 0.6964 0.3392
H48_3 H 0.8971 0.6737 0.3218
N7_2 N 0.9573(8) 0.77469(14) 0.3113(5)
H49_3 H 0.804189 0.718268 0.149103
H53_3 H 0.816621 0.746524 0.0966549
H54_3 H 0.806485 0.773618 0.131061
Fe1_3 Fe 0.52983(12) 0.82494(2) 0.49923(7)
Fe2_3 Fe 0.31509(12) 0.86628(2) 0.44602(7)
Fe3_3 Fe 0.53163(12) 0.90766(2) 0.50434(7)
Fe4_3 Fe 0.53626(12) 0.86715(2) 0.37825(7)
Cl1_3 Cl 0.5286(2) 0.78320(4) 0.49610(14)
Cl2_3 Cl 0.1005(2) 0.86613(4) 0.39048(15)
Cl3_3 Cl 0.5333(3) 0.94938(4) 0.50730(14)
Cl4_3 Cl 0.5431(3) 0.86821(4) 0.25298(13)
O1_3 O 0.3463(4) 0.86719(8) 0.3435(3)
O2_3 O 0.3417(5) 0.90322(9) 0.4540(3)
O3_3 O 0.3409(6) 0.86493(9) 0.5620(3)
O4_3 O 0.3399(5) 0.82991(9) 0.4536(3)
O5_3 O 0.5253(5) 0.82931(9) 0.6081(3)
O6_3 O 0.5360(5) 0.90328(9) 0.3965(3)
O7_3 O 0.5293(5) 0.86664(8) 0.5028(3)
N1_3 N 0.0964(10) 0.95659(14) 0.1032(5)
N2_3 N 0.1035(7) 0.77282(15) 0.6811(5)
C1_3 C 0.2351(11) 0.92752(16) 0.2374(5)
C2_3 C 0.1451(10) 0.9441(2) 0.2388(6)
H1_3 H 0.1323 0.9470 0.2861
C3_3 C 0.0733(11) 0.9565(2) 0.1683(6)
H2_3 H 0.0036 0.9655 0.1679
C4_3 C 0.1847(13) 0.9402(3) 0.1035(6)
H3_3 H 0.2001 0.9386 0.0567
C5_3 C 0.2543(12) 0.9255(2) 0.1680(6)
H4_3 H 0.3135 0.9145 0.1637
C6_3 C 0.4503(10) 0.91722(16) 0.3308(5)
H5_3 H 0.4656 0.9346 0.3431
H6_3 H 0.4680 0.9139 0.2833
C7_3 C 0.2768(8) 0.88459(14) 0.2824(5)
H7_3 H 0.2960 0.8819 0.2350
H8_3 H 0.1865 0.8820 0.2675
C8_3 C 0.2708(9) 0.91734(16) 0.3835(5)
H9_3 H 0.1811 0.9138 0.3674
H10_3 H 0.2833 0.9347 0.3963
C9_3 C 0.3111(9) 0.91173(18) 0.3123(5)
C10_3 C 0.2246(8) 0.80427(14) 0.6117(5)
C11_3 C 0.2936(7) 0.82113(13) 0.5762(5)
C12_3 C 0.1921(13) 0.8116(2) 0.6726(8)
H11_3 H 0.2091 0.8276 0.6920
C13_3 C 0.1879(13) 0.7820(2) 0.5829(8)
H12_3 H 0.1970 0.7772 0.5358
C14_3 C 0.2616(8) 0.84879(14) 0.5848(5)
H13_3 H 0.2730 0.8520 0.6401
H14_3 H 0.1734 0.8519 0.5512
C15_3 C 0.2639(7) 0.81555(15) 0.4838(5)
H15_3 H 0.1751 0.8189 0.4524
H16_3 H 0.2791 0.7983 0.4776
C16_3 C 0.4372(7) 0.81495(14) 0.6282(5)
H17_3 H 0.4521 0.7977 0.6211
H18_3 H 0.4527 0.8175 0.6844
C17_3 C 0.1344(11) 0.7955(2) 0.7057(8)
H19_3 H 0.1155 0.8010 0.7487
C18_3 C 0.1368(12) 0.76592(19) 0.6208(7)
H20_3 H 0.1250 0.7496 0.6039
O8_3 O 0.7177(5) 0.82948(9) 0.5440(3)
O9_3 O 0.5341(5) 0.83051(9) 0.3901(3)
O10_3 O 0.7233(5) 0.86653(8) 0.4407(3)
C19_3 C 0.8747(13) 0.78237(18) 0.4151(7)
H21_3 H 0.8597 0.7756 0.4581
C20_3 C 0.8369(9) 0.80600(18) 0.3904(5)
C21_3 C 0.8594(15) 0.8135(2) 0.3228(9)
H22_3 H 0.8340 0.8290 0.3009
C22_3 C 0.9398(13) 0.7677(2) 0.3725(8)
H23_3 H 0.9697 0.7523 0.3928
C23_3 C 0.9227(16) 0.7970(2) 0.2873(9)
H24_3 H 0.9400 0.8028 0.2439
C24_3 C 0.7610(8) 0.82262(13) 0.4220(5)
C25_3 C 0.6233(9) 0.81699(15) 0.3658(5)
H25_3 H 0.6110 0.8214 0.3111
H26_3 H 0.6074 0.7995 0.3669
C26_3 C 0.7892(7) 0.81509(14) 0.5088(4)
H27_3 H 0.7686 0.7979 0.5103
H28_3 H 0.8791 0.8171 0.5404
C27_3 C 0.7927(10) 0.84920(14) 0.4148(6)
H29_3 H 0.8825 0.8516 0.4460
H30_3 H 0.7778 0.8525 0.3590
Fe5_3 Fe 0.52496(12) 0.86562(2) 0.62510(7)
Fe6_3 Fe 0.74734(12) 0.86575(2) 0.55782(7)
Cl5_3 Cl 0.9609(2) 0.86494(5) 0.61317(16)
Cl6_3 Cl 0.5204(3) 0.86533(4) 0.75031(13)
O11_3 O 0.7095(6) 0.86534(9) 0.6568(3)
O12_3 O 0.7195(6) 0.90274(10) 0.5547(4)
O13_3 O 0.5260(6) 0.90219(9) 0.6122(3)
N4_2 N 0.9574(7) 0.95438(15) 0.9068(4)
C28_3 C 0.8790(12) 0.93548(18) 0.9087(6)
H31_3 H 0.8709 0.9321 0.9571
C29_3 C 0.8118(12) 0.92129(18) 0.8432(6)
H32_3 H 0.7539 0.9097 0.8463
C30_3 C 0.8310(8) 0.92441(15) 0.7721(5)
C31_3 C 0.9192(13) 0.9422(2) 0.7735(6)
H33_3 H 0.9420 0.9435 0.7293
C32_3 C 0.7565(9) 0.90925(14) 0.6955(4)
C33_3 C 0.6100(9) 0.91512(16) 0.6766(5)
H34_3 H 0.5955 0.9326 0.6658
H35_3 H 0.5924 0.9114 0.7240
C34_3 C 0.7872(10) 0.88257(16) 0.7215(6)
H36_3 H 0.7705 0.8796 0.7697
H37_3 H 0.8766 0.8795 0.7342
C35_3 C 0.7916(10) 0.91606(17) 0.6270(4)
H38_3 H 0.8812 0.9128 0.6412
H39_3 H 0.7777 0.9335 0.6167
C36_3 C 0.9759(12) 0.9584(2) 0.8386(6)
O14_3 O 0.1929(8) 0.75956(13) 0.8694(6)
O16_3 O 0.1422(6) 0.72045(11) 0.7325(4)
N6_3 N 0.2792(9) 0.68793(17) 0.7740(6)
H42_3 H 0.3390 0.6809 0.8132
C37_3 C 0.2266(13) 0.7083(2) 0.7886(7)
C38_3 C 0.2382(16) 0.6778(3) 0.6961(8)
H43_3 H 0.2820 0.6626 0.6980
H44_3 H 0.1485 0.6748 0.6764
H45_3 H 0.2564 0.6890 0.6609
H50_3 H 0.276071 0.755172 0.867256
H51_3 H 0.181708 0.750515 0.914113
H52_3 H 0.256434 0.714811 0.850279
I2 I 0.80909(7) 0.99459(2) 0.01610(5)
H40_3 H 0.9751 0.0284 0.1656
Fe8_2 Fe 0.97201(14) 0.24883(2) 0.75348(8)
H40_4 H 0.0249 0.5284 0.3344
Cu2 Cu 0.01882(13) 0.52274(2) 0.50462(6)
Fe1_4 Fe 0.52983(12) 0.67506(2) 0.99923(7)
Fe2_4 Fe 0.31509(12) 0.63372(2) 0.94602(7)
Fe4_4 Fe 0.53626(12) 0.63285(2) 0.87825(7)
Cl1_4 Cl 0.5286(2) 0.71680(4) 0.99610(14)
Cl2_4 Cl 0.1005(2) 0.63387(4) 0.89048(15)
Cl4_4 Cl 0.5431(3) 0.63179(4) 0.75298(13)
O1_4 O 0.3463(4) 0.63281(8) 0.8435(3)
O2_4 O 0.3417(5) 0.59678(9) 0.9540(3)
O4_4 O 0.3399(5) 0.67009(9) 0.9536(3)
O6_4 O 0.5360(5) 0.59672(9) 0.8965(3)
N1_4 N 0.0964(10) 0.54341(14) 0.6032(5)
C1_4 C 0.2351(11) 0.57248(16) 0.7374(5)
C2_4 C 0.1451(10) 0.5559(2) 0.7388(6)
H1_4 H 0.1323 0.5530 0.7861
C3_4 C 0.0733(11) 0.5435(2) 0.6683(6)
H2_4 H 0.0036 0.5345 0.6679
C4_4 C 0.1847(13) 0.5598(3) 0.6035(6)
H3_4 H 0.2001 0.5614 0.5567
C5_4 C 0.2543(12) 0.5745(2) 0.6680(6)
H4_4 H 0.3135 0.5855 0.6637
C6_4 C 0.4503(10) 0.58278(16) 0.8308(5)
H5_4 H 0.4656 0.5654 0.8431
H6_4 H 0.4680 0.5861 0.7833
C7_4 C 0.2768(8) 0.61541(14) 0.7824(5)
H7_4 H 0.2960 0.6181 0.7350
H8_4 H 0.1865 0.6180 0.7675
C8_4 C 0.2708(9) 0.58266(16) 0.8835(5)
H9_4 H 0.1811 0.5862 0.8674
H10_4 H 0.2833 0.5653 0.8963
C9_4 C 0.3111(9) 0.58827(18) 0.8123(5)
C15_4 C 0.2639(7) 0.68445(15) 0.9838(5)
H15_4 H 0.1751 0.6811 0.9524
H16_4 H 0.2791 0.7017 0.9776
O9_4 O 0.5341(5) 0.66949(9) 0.8901(3)
O10_4 O 0.7233(5) 0.63347(8) 0.9407(3)
N3_2 N 0.9573(8) 0.72531(14) 0.8113(5)
C19_4 C 0.8747(13) 0.71763(18) 0.9151(7)
H21_4 H 0.8597 0.7244 0.9581
C20_4 C 0.8369(9) 0.69400(18) 0.8904(5)
C21_4 C 0.8594(15) 0.6865(2) 0.8228(9)
H22_4 H 0.8340 0.6710 0.8009
C22_4 C 0.9398(13) 0.7323(2) 0.8725(8)
H23_4 H 0.9697 0.7477 0.8928
C23_4 C 0.9227(16) 0.7030(2) 0.7873(9)
H24_4 H 0.9400 0.6972 0.7439
C24_4 C 0.7610(8) 0.67738(13) 0.9220(5)
C25_4 C 0.6233(9) 0.68301(15) 0.8658(5)
H25_4 H 0.6110 0.6786 0.8111
H26_4 H 0.6074 0.7005 0.8669
C27_4 C 0.7927(10) 0.65080(14) 0.9148(6)
H29_4 H 0.8825 0.6484 0.9460
H30_4 H 0.7778 0.6475 0.8590
I2_2 I 0.19091(7) 0.49459(2) 0.48390(5)
O15_4 O 0.8648(7) 0.73846(12) 0.6219(5)
O17_4 O 0.9152(6) 0.77693(11) 0.7636(4)
N5_4 N 0.7882(10) 0.80898(18) 0.7250(6)
H41_4 H 0.7381 0.8176 0.6857
C39_4 C 0.8363(13) 0.7885(2) 0.7106(7)
C40_4 C 0.819(2) 0.8174(3) 0.8043(11)
H46_4 H 0.7522 0.8280 0.8058
H47_4 H 0.8270 0.8036 0.8392
H48_4 H 0.8971 0.8263 0.8218
H49_4 H 0.804189 0.781732 0.649103
H53_4 H 0.816621 0.753476 0.596655
H54_4 H 0.806485 0.726382 0.631061
N8_2 N 0.0426(7) 0.45438(15) 0.5932(4)
Fe3_4 Fe 0.46837(12) 0.40766(2) 0.99566(7)
Cl3_4 Cl 0.4667(3) 0.44938(4) 0.99270(14)
O3_4 O 0.6591(6) 0.36493(9) 0.9380(3)
O5_4 O 0.4747(5) 0.32931(9) 0.8919(3)
O7_4 O 0.4707(5) 0.36664(8) 0.9972(3)
N2_4 N 0.8965(7) 0.27282(15) 0.8189(5)
C10_4 C 0.7754(8) 0.30427(14) 0.8883(5)
C11_4 C 0.7064(7) 0.32113(13) 0.9238(5)
C12_4 C 0.8079(13) 0.3116(2) 0.8274(8)
H11_4 H 0.7909 0.3276 0.8080
C13_4 C 0.8121(13) 0.2820(2) 0.9171(8)
H12_4 H 0.8030 0.2772 0.9642
C14_4 C 0.7384(8) 0.34879(14) 0.9152(5)
H13_4 H 0.7270 0.3520 0.8599
H14_4 H 0.8266 0.3519 0.9488
C16_4 C 0.5628(7) 0.31495(14) 0.8718(5)
H17_4 H 0.5479 0.2977 0.8789
H18_4 H 0.5473 0.3175 0.8156
C17_4 C 0.8656(11) 0.2955(2) 0.7943(8)
H19_4 H 0.8845 0.3010 0.7513
C18_4 C 0.8632(12) 0.26592(19) 0.8792(7)
H20_4 H 0.8750 0.2496 0.8961
O8_4 O 0.2823(5) 0.32948(9) 0.9560(3)
C26_4 C 0.2108(7) 0.31509(14) 0.9912(4)
H27_4 H 0.2314 0.2979 0.9897
H28_4 H 0.1209 0.3171 0.9596
Fe5_4 Fe 0.47504(12) 0.36562(2) 0.87490(7)
Fe6_4 Fe 0.25266(12) 0.36575(2) 0.94218(7)
Cl5_4 Cl 0.0391(2) 0.36494(5) 0.88683(16)
Cl6_4 Cl 0.4796(3) 0.36533(4) 0.74969(13)
O11_4 O 0.2905(6) 0.36534(9) 0.8432(3)
O12_4 O 0.2805(6) 0.40274(10) 0.9453(4)
O13_4 O 0.4740(6) 0.40219(9) 0.8878(3)
C28_4 C 0.1210(12) 0.43548(18) 0.5913(6)
H31_4 H 0.1291 0.4321 0.5429
C29_4 C 0.1882(12) 0.42129(18) 0.6568(6)
H32_4 H 0.2461 0.4097 0.6537
C30_4 C 0.1690(8) 0.42441(15) 0.7279(5)
C31_4 C 0.0808(13) 0.4422(2) 0.7265(6)
H33_4 H 0.0580 0.4435 0.7707
C32_4 C 0.2435(9) 0.40925(14) 0.8045(4)
C33_4 C 0.3900(9) 0.41512(16) 0.8234(5)
H34_4 H 0.4045 0.4326 0.8342
H35_4 H 0.4076 0.4114 0.7760
C34_4 C 0.2128(10) 0.38257(16) 0.7785(6)
H36_4 H 0.2295 0.3796 0.7303
H37_4 H 0.1234 0.3795 0.7658
C35_4 C 0.2084(10) 0.41606(17) 0.8730(4)
H38_4 H 0.1188 0.4128 0.8588
H39_4 H 0.2223 0.4335 0.8833
C36_4 C 0.0241(12) 0.4584(2) 0.6614(6)
O14_4 O 0.8071(8) 0.25956(13) 0.6306(6)
O16_4 O 0.8578(6) 0.22045(11) 0.7675(4)
N6_4 N 0.7208(9) 0.18793(17) 0.7260(6)
H42_4 H 0.6610 0.1809 0.6868
C37_4 C 0.7734(13) 0.2083(2) 0.7114(7)
C38_4 C 0.7618(16) 0.1778(3) 0.8039(8)
H43_4 H 0.7180 0.1626 0.8020
H44_4 H 0.8515 0.1748 0.8236
H45_4 H 0.7436 0.1890 0.8391
H50_4 H 0.723929 0.255172 0.632744
H51_4 H 0.818292 0.250515 0.585887
H52_4 H 0.743566 0.214811 0.649721
loop_
_geom_bond_atom_site_label_1
_geom_bond_atom_site_label_2
_geom_bond_site_symmetry_1
_geom_bond_site_symmetry_2
Cu1 N1 1_555 1_555
Fe1 Cl1 1_555 1_555
Fe2 Cl2 1_555 1_555
Fe3 Cl3 1_555 1_555
Fe4 Cl4 1_555 1_555
O1 Fe2 1_555 1_555
O2 Fe2 1_555 1_555
O3 Fe2 1_555 1_555
O4 Fe1 1_555 1_555
O5 Fe1 1_555 1_555
O6 Fe3 1_555 1_555
O7 Fe1 1_555 1_555
N1 C3 1_555 1_555
N2 C17 1_555 1_555
C1 C2 1_555 1_555
C2 H1 1_555 1_555
C3 C2 1_555 1_555
H2 C3 1_555 1_555
C4 N1 1_555 1_555
H3 C4 1_555 1_555
C5 C1 1_555 1_555
H4 C5 1_555 1_555
C6 O6 1_555 1_555
H5 C6 1_555 1_555
H6 C6 1_555 1_555
C7 O1 1_555 1_555
H7 C7 1_555 1_555
H8 C7 1_555 1_555
C8 O2 1_555 1_555
H9 C8 1_555 1_555
H10 C8 1_555 1_555
C9 C1 1_555 1_555
C10 C11 1_555 1_555
C11 C14 1_555 1_555
C12 C10 1_555 1_555
H11 C12 1_555 1_555
C13 C10 1_555 1_555
H12 C13 1_555 1_555
C14 O3 1_555 1_555
H13 C14 1_555 1_555
H14 C14 1_555 1_555
C15 O4 1_555 1_555
H15 C15 1_555 1_555
H16 C15 1_555 1_555
C16 O5 1_555 1_555
H17 C16 1_555 1_555
H18 C16 1_555 1_555
C17 C12 1_555 1_555
H19 C17 1_555 1_555
C18 N2 1_555 1_555
H20 C18 1_555 1_555
O8 Fe1 1_555 1_555
O9 Fe1 1_555 1_555
O10 Fe4 1_555 1_555
N3 C22 1_555 1_555
C19 H21 1_555 1_555
C20 C19 1_555 1_555
C21 C20 1_555 1_555
H22 C21 1_555 1_555
C22 C19 1_555 1_555
H23 C22 1_555 1_555
C23 N3 1_555 1_555
H24 C23 1_555 1_555
C24 C20 1_555 1_555
C25 O9 1_555 1_555
H25 C25 1_555 1_555
H26 C25 1_555 1_555
C26 O8 1_555 1_555
H27 C26 1_555 1_555
H28 C26 1_555 1_555
C27 O10 1_555 1_555
H29 C27 1_555 1_555
H30 C27 1_555 1_555
Fe5 O3 1_555 1_555
Fe6 O7 1_555 1_555
Cl5 Fe6 1_555 1_555
Cl6 Fe5 1_555 1_555
O11 Fe5 1_555 1_555
O12 Fe3 1_555 1_555
O13 Fe3 1_555 1_555
N8 C28 1_555 1_555
C28 H31 1_555 1_555
C29 C28 1_555 1_555
H32 C29 1_555 1_555
C30 C29 1_555 1_555
C31 C30 1_555 1_555
H33 C31 1_555 1_555
C32 C30 1_555 1_555
C33 O13 1_555 1_555
H34 C33 1_555 1_555
H35 C33 1_555 1_555
C34 O11 1_555 1_555
H36 C34 1_555 1_555
H37 C34 1_555 1_555
C35 O12 1_555 1_555
H38 C35 1_555 1_555
H39 C35 1_555 1_555
C36 N8 1_555 1_555
Fe7 N2 1_555 1_555
O14 Fe7 1_555 1_555
O16 Fe7 1_555 1_555
N6 H42 1_555 1_555
C37 O16 1_555 1_555
C38 N6 1_555 1_555
H43 C38 1_555 1_555
H44 C38 1_555 1_555
H45 C38 1_555 1_555
Fe2 O4 1_555 1_555
Fe2 O7 1_555 1_555
Fe3 O2 1_555 1_555
Fe3 O7 1_555 1_555
Fe4 O1 1_555 1_555
Fe4 O6 1_555 1_555
Fe4 O7 1_555 1_555
Fe4 O9 1_555 1_555
O5 Fe5 1_555 1_555
O7 Fe5 1_555 1_555
C4 C5 1_555 1_555
C6 C9 1_555 1_555
C7 C9 1_555 1_555
C8 C9 1_555 1_555
C11 C15 1_555 1_555
C11 C16 1_555 1_555
C13 C18 1_555 1_555
O8 Fe6 1_555 1_555
O10 Fe6 1_555 1_555
C21 C23 1_555 1_555
C24 C25 1_555 1_555
C24 C26 1_555 1_555
C24 C27 1_555 1_555
Fe5 O13 1_555 1_555
Fe6 O11 1_555 1_555
Fe6 O12 1_555 1_555
C31 C36 1_555 1_555
C32 C33 1_555 1_555
C32 C34 1_555 1_555
C32 C35 1_555 1_555
N6 C37 1_555 1_555
O14 H50 1_555 1_555
O14 H51 1_555 1_555
C37 H52 1_555 1_555
N5 H41 1_555 1_555
C39 O17 1_555 1_555
C40 N5 1_555 1_555
H46 C40 1_555 1_555
H47 C40 1_555 1_555
H48 C40 1_555 1_555
N5 C39 1_555 1_555
C39 H49 1_555 1_555
O15 H53 1_555 1_555
O15 H54 1_555 1_555
N5_2 H41_2 1_555 1_555
C39_2 O17_2 1_555 1_555
C40_2 N5_2 1_555 1_555
H46_2 C40_2 1_555 1_555
H47_2 C40_2 1_555 1_555
H48_2 C40_2 1_555 1_555
N5_2 C39_2 1_555 1_555
C39_2 H49_2 1_555 1_555
O15_2 H53_2 1_555 1_555
O15_2 H54_2 1_555 1_555
Fe3_2 Cl3_2 1_555 1_555
N2_2 C17_2 1_555 1_555
C10_2 C11_2 1_555 1_555
C11_2 C14_2 1_555 1_555
C12_2 C10_2 1_555 1_555
H11_2 C12_2 1_555 1_555
C13_2 C10_2 1_555 1_555
H12_2 C13_2 1_555 1_555
C14_2 O3_2 1_555 1_555
H13_2 C14_2 1_555 1_555
H14_2 C14_2 1_555 1_555
C16_2 O5_2 1_555 1_555
H17_2 C16_2 1_555 1_555
H18_2 C16_2 1_555 1_555
C17_2 C12_2 1_555 1_555
H19_2 C17_2 1_555 1_555
C18_2 N2_2 1_555 1_555
H20_2 C18_2 1_555 1_555
C26_2 O8_2 1_555 1_555
H27_2 C26_2 1_555 1_555
H28_2 C26_2 1_555 1_555
Fe5_2 O3_2 1_555 1_555
Fe6_2 O7_2 1_555 1_555
Cl5_2 Fe6_2 1_555 1_555
Cl6_2 Fe5_2 1_555 1_555
O11_2 Fe5_2 1_555 1_555
O12_2 Fe3_2 1_555 1_555
O13_2 Fe3_2 1_555 1_555
N4 C28_2 1_555 1_555
C28_2 H31_2 1_555 1_555
C29_2 C28_2 1_555 1_555
H32_2 C29_2 1_555 1_555
C30_2 C29_2 1_555 1_555
C31_2 C30_2 1_555 1_555
H33_2 C31_2 1_555 1_555
C32_2 C30_2 1_555 1_555
C33_2 O13_2 1_555 1_555
H34_2 C33_2 1_555 1_555
H35_2 C33_2 1_555 1_555
C34_2 O11_2 1_555 1_555
H36_2 C34_2 1_555 1_555
H37_2 C34_2 1_555 1_555
C35_2 O12_2 1_555 1_555
H38_2 C35_2 1_555 1_555
H39_2 C35_2 1_555 1_555
C36_2 N4 1_555 1_555
Fe7_2 N2_2 1_555 1_555
O14_2 Fe7_2 1_555 1_555
O16_2 Fe7_2 1_555 1_555
N6_2 H42_2 1_555 1_555
C37_2 O16_2 1_555 1_555
C38_2 N6_2 1_555 1_555
H43_2 C38_2 1_555 1_555
H44_2 C38_2 1_555 1_555
H45_2 C38_2 1_555 1_555
Fe3_2 O7_2 1_555 1_555
O5_2 Fe5_2 1_555 1_555
O7_2 Fe5_2 1_555 1_555
C11_2 C16_2 1_555 1_555
C13_2 C18_2 1_555 1_555
O8_2 Fe6_2 1_555 1_555
Fe5_2 O13_2 1_555 1_555
Fe6_2 O11_2 1_555 1_555
Fe6_2 O12_2 1_555 1_555
C31_2 C36_2 1_555 1_555
C32_2 C33_2 1_555 1_555
C32_2 C34_2 1_555 1_555
C32_2 C35_2 1_555 1_555
N6_2 C37_2 1_555 1_555
O14_2 H50_2 1_555 1_555
O14_2 H51_2 1_555 1_555
C37_2 H52_2 1_555 1_555
Cu3 I1_2 1_555 1_555
Cu3 N1_2 1_555 1_555
Fe1_2 Cl1_2 1_555 1_555
Fe2_2 Cl2_2 1_555 1_555
Fe4_2 Cl4_2 1_555 1_555
O1_2 Fe2_2 1_555 1_555
O2_2 Fe2_2 1_555 1_555
O4_2 Fe1_2 1_555 1_555
N1_2 C3_2 1_555 1_555
C1_2 C2_2 1_555 1_555
C2_2 H1_2 1_555 1_555
C3_2 C2_2 1_555 1_555
H2_2 C3_2 1_555 1_555
C4_2 N1_2 1_555 1_555
H3_2 C4_2 1_555 1_555
C5_2 C1_2 1_555 1_555
H4_2 C5_2 1_555 1_555
C6_2 O6_2 1_555 1_555
H5_2 C6_2 1_555 1_555
H6_2 C6_2 1_555 1_555
C7_2 O1_2 1_555 1_555
H7_2 C7_2 1_555 1_555
H8_2 C7_2 1_555 1_555
C8_2 O2_2 1_555 1_555
H9_2 C8_2 1_555 1_555
H10_2 C8_2 1_555 1_555
C9_2 C1_2 1_555 1_555
C15_2 O4_2 1_555 1_555
H15_2 C15_2 1_555 1_555
H16_2 C15_2 1_555 1_555
O9_2 Fe1_2 1_555 1_555
O10_2 Fe4_2 1_555 1_555
N7 C22_2 1_555 1_555
C19_2 H21_2 1_555 1_555
C20_2 C19_2 1_555 1_555
C21_2 C20_2 1_555 1_555
H22_2 C21_2 1_555 1_555
C22_2 C19_2 1_555 1_555
H23_2 C22_2 1_555 1_555
C23_2 N7 1_555 1_555
H24_2 C23_2 1_555 1_555
C24_2 C20_2 1_555 1_555
C25_2 O9_2 1_555 1_555
H25_2 C25_2 1_555 1_555
H26_2 C25_2 1_555 1_555
C27_2 O10_2 1_555 1_555
H29_2 C27_2 1_555 1_555
H30_2 C27_2 1_555 1_555
Fe2_2 O4_2 1_555 1_555
Fe4_2 O1_2 1_555 1_555
Fe4_2 O6_2 1_555 1_555
Fe4_2 O9_2 1_555 1_555
C4_2 C5_2 1_555 1_555
C6_2 C9_2 1_555 1_555
C7_2 C9_2 1_555 1_555
C8_2 C9_2 1_555 1_555
C21_2 C23_2 1_555 1_555
C24_2 C25_2 1_555 1_555
C24_2 C27_2 1_555 1_555
N5_3 H41_3 1_555 1_555
C39_3 O17_3 1_555 1_555
C40_3 N5_3 1_555 1_555
H46_3 C40_3 1_555 1_555
H47_3 C40_3 1_555 1_555
H48_3 C40_3 1_555 1_555
N5_3 C39_3 1_555 1_555
C39_3 H49_3 1_555 1_555
O15_3 H53_3 1_555 1_555
O15_3 H54_3 1_555 1_555
Cu3_2 N1_3 1_555 1_555
Fe1_3 Cl1_3 1_555 1_555
Fe2_3 Cl2_3 1_555 1_555
Fe3_3 Cl3_3 1_555 1_555
Fe4_3 Cl4_3 1_555 1_555
O1_3 Fe2_3 1_555 1_555
O2_3 Fe2_3 1_555 1_555
O3_3 Fe2_3 1_555 1_555
O4_3 Fe1_3 1_555 1_555
O5_3 Fe1_3 1_555 1_555
O6_3 Fe3_3 1_555 1_555
O7_3 Fe1_3 1_555 1_555
N1_3 C3_3 1_555 1_555
N2_3 C17_3 1_555 1_555
C1_3 C2_3 1_555 1_555
C2_3 H1_3 1_555 1_555
C3_3 C2_3 1_555 1_555
H2_3 C3_3 1_555 1_555
C4_3 N1_3 1_555 1_555
H3_3 C4_3 1_555 1_555
C5_3 C1_3 1_555 1_555
H4_3 C5_3 1_555 1_555
C6_3 O6_3 1_555 1_555
H5_3 C6_3 1_555 1_555
H6_3 C6_3 1_555 1_555
C7_3 O1_3 1_555 1_555
H7_3 C7_3 1_555 1_555
H8_3 C7_3 1_555 1_555
C8_3 O2_3 1_555 1_555
H9_3 C8_3 1_555 1_555
H10_3 C8_3 1_555 1_555
C9_3 C1_3 1_555 1_555
C10_3 C11_3 1_555 1_555
C11_3 C14_3 1_555 1_555
C12_3 C10_3 1_555 1_555
H11_3 C12_3 1_555 1_555
C13_3 C10_3 1_555 1_555
H12_3 C13_3 1_555 1_555
C14_3 O3_3 1_555 1_555
H13_3 C14_3 1_555 1_555
H14_3 C14_3 1_555 1_555
C15_3 O4_3 1_555 1_555
H15_3 C15_3 1_555 1_555
H16_3 C15_3 1_555 1_555
C16_3 O5_3 1_555 1_555
H17_3 C16_3 1_555 1_555
H18_3 C16_3 1_555 1_555
C17_3 C12_3 1_555 1_555
H19_3 C17_3 1_555 1_555
C18_3 N2_3 1_555 1_555
H20_3 C18_3 1_555 1_555
O8_3 Fe1_3 1_555 1_555
O9_3 Fe1_3 1_555 1_555
O10_3 Fe4_3 1_555 1_555
N7_2 C22_3 1_555 1_555
C19_3 H21_3 1_555 1_555
C20_3 C19_3 1_555 1_555
C21_3 C20_3 1_555 1_555
H22_3 C21_3 1_555 1_555
C22_3 C19_3 1_555 1_555
H23_3 C22_3 1_555 1_555
C23_3 N7_2 1_555 1_555
H24_3 C23_3 1_555 1_555
C24_3 C20_3 1_555 1_555
C25_3 O9_3 1_555 1_555
H25_3 C25_3 1_555 1_555
H26_3 C25_3 1_555 1_555
C26_3 O8_3 1_555 1_555
H27_3 C26_3 1_555 1_555
H28_3 C26_3 1_555 1_555
C27_3 O10_3 1_555 1_555
H29_3 C27_3 1_555 1_555
H30_3 C27_3 1_555 1_555
Fe5_3 O3_3 1_555 1_555
Fe6_3 O7_3 1_555 1_555
Cl5_3 Fe6_3 1_555 1_555
Cl6_3 Fe5_3 1_555 1_555
O11_3 Fe5_3 1_555 1_555
O12_3 Fe3_3 1_555 1_555
O13_3 Fe3_3 1_555 1_555
N4_2 C28_3 1_555 1_555
C28_3 H31_3 1_555 1_555
C29_3 C28_3 1_555 1_555
H32_3 C29_3 1_555 1_555
C30_3 C29_3 1_555 1_555
C31_3 C30_3 1_555 1_555
H33_3 C31_3 1_555 1_555
C32_3 C30_3 1_555 1_555
C33_3 O13_3 1_555 1_555
H34_3 C33_3 1_555 1_555
H35_3 C33_3 1_555 1_555
C34_3 O11_3 1_555 1_555
H36_3 C34_3 1_555 1_555
H37_3 C34_3 1_555 1_555
C35_3 O12_3 1_555 1_555
H38_3 C35_3 1_555 1_555
H39_3 C35_3 1_555 1_555
C36_3 N4_2 1_555 1_555
Fe8 N2_3 1_555 1_555
O14_3 Fe8 1_555 1_555
O16_3 Fe8 1_555 1_555
N6_3 H42_3 1_555 1_555
C37_3 O16_3 1_555 1_555
C38_3 N6_3 1_555 1_555
H43_3 C38_3 1_555 1_555
H44_3 C38_3 1_555 1_555
H45_3 C38_3 1_555 1_555
Fe2_3 O4_3 1_555 1_555
Fe2_3 O7_3 1_555 1_555
Fe3_3 O2_3 1_555 1_555
Fe3_3 O7_3 1_555 1_555
Fe4_3 O1_3 1_555 1_555
Fe4_3 O6_3 1_555 1_555
Fe4_3 O7_3 1_555 1_555
Fe4_3 O9_3 1_555 1_555
O5_3 Fe5_3 1_555 1_555
O7_3 Fe5_3 1_555 1_555
C4_3 C5_3 1_555 1_555
C6_3 C9_3 1_555 1_555
C7_3 C9_3 1_555 1_555
C8_3 C9_3 1_555 1_555
C11_3 C15_3 1_555 1_555
C11_3 C16_3 1_555 1_555
C13_3 C18_3 1_555 1_555
O8_3 Fe6_3 1_555 1_555
O10_3 Fe6_3 1_555 1_555
C21_3 C23_3 1_555 1_555
C24_3 C25_3 1_555 1_555
C24_3 C26_3 1_555 1_555
C24_3 C27_3 1_555 1_555
Fe5_3 O13_3 1_555 1_555
Fe6_3 O11_3 1_555 1_555
Fe6_3 O12_3 1_555 1_555
C31_3 C36_3 1_555 1_555
C32_3 C33_3 1_555 1_555
C32_3 C34_3 1_555 1_555
C32_3 C35_3 1_555 1_555
N6_3 C37_3 1_555 1_555
O14_3 H50_3 1_555 1_555
O14_3 H51_3 1_555 1_555
C37_3 H52_3 1_555 1_555
Cu2 N1_4 1_555 1_555
Fe1_4 Cl1_4 1_555 1_555
Fe2_4 Cl2_4 1_555 1_555
Fe4_4 Cl4_4 1_555 1_555
O1_4 Fe2_4 1_555 1_555
O2_4 Fe2_4 1_555 1_555
O4_4 Fe1_4 1_555 1_555
N1_4 C3_4 1_555 1_555
C1_4 C2_4 1_555 1_555
C2_4 H1_4 1_555 1_555
C3_4 C2_4 1_555 1_555
H2_4 C3_4 1_555 1_555
C4_4 N1_4 1_555 1_555
H3_4 C4_4 1_555 1_555
C5_4 C1_4 1_555 1_555
H4_4 C5_4 1_555 1_555
C6_4 O6_4 1_555 1_555
H5_4 C6_4 1_555 1_555
H6_4 C6_4 1_555 1_555
C7_4 O1_4 1_555 1_555
H7_4 C7_4 1_555 1_555
H8_4 C7_4 1_555 1_555
C8_4 O2_4 1_555 1_555
H9_4 C8_4 1_555 1_555
H10_4 C8_4 1_555 1_555
C9_4 C1_4 1_555 1_555
C15_4 O4_4 1_555 1_555
H15_4 C15_4 1_555 1_555
H16_4 C15_4 1_555 1_555
O9_4 Fe1_4 1_555 1_555
O10_4 Fe4_4 1_555 1_555
N3_2 C22_4 1_555 1_555
C19_4 H21_4 1_555 1_555
C20_4 C19_4 1_555 1_555
C21_4 C20_4 1_555 1_555
H22_4 C21_4 1_555 1_555
C22_4 C19_4 1_555 1_555
H23_4 C22_4 1_555 1_555
C23_4 N3_2 1_555 1_555
H24_4 C23_4 1_555 1_555
C24_4 C20_4 1_555 1_555
C25_4 O9_4 1_555 1_555
H25_4 C25_4 1_555 1_555
H26_4 C25_4 1_555 1_555
C27_4 O10_4 1_555 1_555
H29_4 C27_4 1_555 1_555
H30_4 C27_4 1_555 1_555
I2_2 Cu2 1_555 1_555
Fe2_4 O4_4 1_555 1_555
Fe4_4 O1_4 1_555 1_555
Fe4_4 O6_4 1_555 1_555
Fe4_4 O9_4 1_555 1_555
C4_4 C5_4 1_555 1_555
C6_4 C9_4 1_555 1_555
C7_4 C9_4 1_555 1_555
C8_4 C9_4 1_555 1_555
C21_4 C23_4 1_555 1_555
C24_4 C25_4 1_555 1_555
C24_4 C27_4 1_555 1_555
N5_4 H41_4 1_555 1_555
C39_4 O17_4 1_555 1_555
C40_4 N5_4 1_555 1_555
H46_4 C40_4 1_555 1_555
H47_4 C40_4 1_555 1_555
H48_4 C40_4 1_555 1_555
N5_4 C39_4 1_555 1_555
C39_4 H49_4 1_555 1_555
O15_4 H53_4 1_555 1_555
O15_4 H54_4 1_555 1_555
Fe3_4 Cl3_4 1_555 1_555
N2_4 C17_4 1_555 1_555
C10_4 C11_4 1_555 1_555
C11_4 C14_4 1_555 1_555
C12_4 C10_4 1_555 1_555
H11_4 C12_4 1_555 1_555
C13_4 C10_4 1_555 1_555
H12_4 C13_4 1_555 1_555
C14_4 O3_4 1_555 1_555
H13_4 C14_4 1_555 1_555
H14_4 C14_4 1_555 1_555
C16_4 O5_4 1_555 1_555
H17_4 C16_4 1_555 1_555
H18_4 C16_4 1_555 1_555
C17_4 C12_4 1_555 1_555
H19_4 C17_4 1_555 1_555
C18_4 N2_4 1_555 1_555
H20_4 C18_4 1_555 1_555
C26_4 O8_4 1_555 1_555
H27_4 C26_4 1_555 1_555
H28_4 C26_4 1_555 1_555
Fe5_4 O3_4 1_555 1_555
Fe6_4 O7_4 1_555 1_555
Cl5_4 Fe6_4 1_555 1_555
Cl6_4 Fe5_4 1_555 1_555
O11_4 Fe5_4 1_555 1_555
O12_4 Fe3_4 1_555 1_555
O13_4 Fe3_4 1_555 1_555
N8_2 C28_4 1_555 1_555
C28_4 H31_4 1_555 1_555
C29_4 C28_4 1_555 1_555
H32_4 C29_4 1_555 1_555
C30_4 C29_4 1_555 1_555
C31_4 C30_4 1_555 1_555
H33_4 C31_4 1_555 1_555
C32_4 C30_4 1_555 1_555
C33_4 O13_4 1_555 1_555
H34_4 C33_4 1_555 1_555
H35_4 C33_4 1_555 1_555
C34_4 O11_4 1_555 1_555
H36_4 C34_4 1_555 1_555
H37_4 C34_4 1_555 1_555
C35_4 O12_4 1_555 1_555
H38_4 C35_4 1_555 1_555
H39_4 C35_4 1_555 1_555
C36_4 N8_2 1_555 1_555
Fe8_2 N2_4 1_555 1_555
O14_4 Fe8_2 1_555 1_555
O16_4 Fe8_2 1_555 1_555
N6_4 H42_4 1_555 1_555
C37_4 O16_4 1_555 1_555
C38_4 N6_4 1_555 1_555
H43_4 C38_4 1_555 1_555
H44_4 C38_4 1_555 1_555
H45_4 C38_4 1_555 1_555
Fe3_4 O7_4 1_555 1_555
O5_4 Fe5_4 1_555 1_555
O7_4 Fe5_4 1_555 1_555
C11_4 C16_4 1_555 1_555
C13_4 C18_4 1_555 1_555
O8_4 Fe6_4 1_555 1_555
Fe5_4 O13_4 1_555 1_555
Fe6_4 O11_4 1_555 1_555
Fe6_4 O12_4 1_555 1_555
C31_4 C36_4 1_555 1_555
C32_4 C33_4 1_555 1_555
C32_4 C34_4 1_555 1_555
C32_4 C35_4 1_555 1_555
N6_4 C37_4 1_555 1_555
O14_4 H50_4 1_555 1_555
O14_4 H51_4 1_555 1_555
C37_4 H52_4 1_555 1_555

#END
