
###############################################################################
#
# This file contains modified crystal structure data generated from the
# MOF subset of the Cambridge Structural Database (CSD) v543 
# hosted by the Cambridge Crystallographic Data Centre (CCDC).
#
# This work is licensed under the Creative Commons
# Attribution-NonCommercial-ShareAlike 4.0 International License.
# To view a copy of this license, visit
# http://creativecommons.org/licenses/by-nc-sa/4.0/
# or send a letter to
# Creative Commons, PO Box 1866, Mountain View, CA 94042, USA.
#
# CIF created using the CSD Python API on 29 September 2022
# The structure has been converted into the P1 space group
# The structure has a 3D framework
# The original CSD entry ROVPOK is in the orthorhombic crystal system
# The framework has been calculated to contain at least 10.0% void space
# The void calculation uses a probe of radius 1.32A, grid spacing 0.4
# H atom positions have been added when not included in the experimental data
#
###############################################################################

data_ROVPOK
_chemical_formula_moiety         '(C320 H400 Cl56 Fe68 N48 O124)n'
_symmetry_cell_setting           triclinic
_symmetry_space_group_name_H-M   'P 1'
_symmetry_Int_Tables_number      1
_space_group_name_Hall           'P 1'
loop_
_symmetry_equiv_pos_site_id
_symmetry_equiv_pos_as_xyz
1 x,y,z
_cell_length_a                   22.375(2)
_cell_length_b                   23.965(2)
_cell_length_c                   27.502(3)
_cell_angle_alpha                90
_cell_angle_beta                 90
_cell_angle_gamma                90
_cell_volume                     14747
loop_
_atom_site_label
_atom_site_type_symbol
_atom_site_fract_x
_atom_site_fract_y
_atom_site_fract_z
Fe1 Fe 0.35155(2) 0.00668(2) 0.18261(2)
Cl1 Cl 0.45274(4) 0.01289(4) 0.18169(3)
O1 O 0.33253(10) 0.08885(9) 0.18142(7)
O3 O 0.33792(10) 0.00665(9) 0.11090(7)
O4 O 0.2500 0.0000 0.18305(10)
O5 O 0.33832(10) 0.00446(9) 0.25400(8)
Fe2 Fe 0.24341(2) 0.09424(2) 0.18372(2)
C1 C 0.36362(16) 0.12340(14) 0.14649(12)
Fe3 Fe 0.2500 0.0000 0.10198(2)
C3 C 0.36853(15) 0.04761(13) 0.08246(11)
Fe4 Fe 0.2500 0.0000 0.26431(2)
Cl2 Cl 0.23292(5) 0.18904(4) 0.18341(3)
O6 O 0.24386(9) 0.08240(9) 0.11202(7)
O7 O 0.24388(10) 0.08198(9) 0.25477(8)
C5 C 0.34888(15) 0.10818(14) 0.09352(12)
H1 H 0.4063 0.1196 0.1516
H2 H 0.3531 0.1621 0.1521
Cl3 Cl 0.2500 0.0000 0.01884(4)
H5 H 0.3616 0.0399 0.0483
H6 H 0.4111 0.0443 0.0884
Cl4 Cl 0.2500 -0.0000 0.34676(4)
C7 C 0.28235(15) 0.11697(14) 0.08309(12)
C8 C 0.20022(15) 0.11118(14) 0.28298(11)
C9 C 0.38543(16) 0.14464(14) 0.05882(12)
H9 H 0.2724 0.1558 0.0890
H10 H 0.2749 0.1093 0.0490
H11 H 0.2079 0.1044 0.3172
H12 H 0.2045 0.1509 0.2772
C11 C 0.35857(19) 0.1742(2) 0.02117(17)
C12 C 0.44675(18) 0.14838(19) 0.06112(15)
H13 H 0.3171 0.1753 0.0186
C16 C 0.47800(17) 0.17734(18) 0.02615(15)
H14 H 0.4672 0.1312 0.0865
H18 H 0.5194 0.1784 0.0287
O9 O 0.15536(10) 0.07694(9) 0.18414(7)
C21 C 0.11858(16) 0.10663(14) 0.21802(11)
C26 C 0.12467(15) 0.03174(14) 0.28251(12)
C27 C 0.13538(15) 0.09393(13) 0.27137(11)
H25 H 0.1226 0.1464 0.2122
H26 H 0.0771 0.0966 0.2127
H35 H 0.1324 0.0250 0.3167
H36 H 0.0831 0.0229 0.2763
C29 C 0.09689(15) 0.13010(14) 0.30500(11)
C31 C 0.09975(18) 0.18786(15) 0.30299(13)
C32 C 0.06123(17) 0.10806(15) 0.34165(14)
C35 C 0.07076(18) 0.21987(15) 0.33745(13)
H37 H 0.1213 0.2051 0.2783
C36 C 0.03491(17) 0.14302(15) 0.37502(14)
H38 H 0.0552 0.0697 0.3436
H41 H 0.0731 0.2585 0.3348
N4 N 0.03991(13) 0.19863(11) 0.37401(9)
H42 H 0.0123 0.1271 0.3997
Fe9 Fe 0.0000 0.2500 0.43229(2)
C15 C 0.3935(2) 0.2019(2) 0.98768(16)
H17 H 0.3745 0.2205 0.9623
N1 N 0.45302(12) 0.20355(11) 0.98952(10)
Fe5 Fe 0.5000 0.2500 0.93229(2)
N5 N 0.54698(12) 0.29645(11) 0.98952(10)
O2 O 0.34464(10) 0.92306(9) 0.18414(7)
O4_2 O 0.2500 1.0000 0.18305(10)
C2 C 0.38142(16) 0.89337(14) 0.21802(11)
Fe3_2 Fe 0.2500 1.0000 0.10198(2)
Fe4_2 Fe 0.2500 1.0000 0.26431(2)
C4 C 0.37533(15) 0.96826(14) 0.28251(12)
C6 C 0.36462(15) 0.90607(13) 0.27137(11)
H3 H 0.4229 0.9034 0.2127
H4 H 0.3774 0.8536 0.2122
Cl3_2 Cl 0.2500 1.0000 0.01884(4)
Cl4_2 Cl 0.2500 1.0000 0.34676(4)
H7 H 0.3676 0.9750 0.3167
H8 H 0.4169 0.9771 0.2763
C10 C 0.40311(15) 0.86990(14) 0.30500(11)
C13 C 0.40025(18) 0.81214(15) 0.30299(13)
C14 C 0.43877(17) 0.89194(15) 0.34165(14)
C17 C 0.42924(18) 0.78013(15) 0.33745(13)
H15 H 0.3787 0.7949 0.2783
C18 C 0.46509(17) 0.85698(15) 0.37502(14)
H16 H 0.4448 0.9303 0.3436
H19 H 0.4269 0.7415 0.3348
N2 N 0.46009(13) 0.80137(11) 0.37401(9)
H20 H 0.4877 0.8729 0.3997
Fe6 Fe 0.25659(2) 0.90576(2) 0.18372(2)
Fe7 Fe 0.14845(2) 0.99332(2) 0.18261(2)
O10 O 0.25612(10) 0.91802(9) 0.25477(8)
O11 O 0.25614(9) 0.91760(9) 0.11202(7)
Cl5 Cl 0.26708(5) 0.81096(4) 0.18341(3)
O12 O 0.16747(10) 0.91115(9) 0.18142(7)
O13 O 0.16208(10) 0.99335(9) 0.11090(7)
O14 O 0.16168(10) 0.99554(9) 0.25400(8)
Cl6 Cl 0.04726(4) 0.98711(4) 0.18169(3)
C22 C 0.29978(15) 0.88882(14) 0.28298(11)
C23 C 0.21765(15) 0.88303(14) 0.08309(12)
C24 C 0.13638(16) 0.87660(14) 0.14649(12)
C25 C 0.13147(15) 0.95239(13) 0.08246(11)
H27 H 0.2955 0.8491 0.2772
H28 H 0.2921 0.8956 0.3172
H29 H 0.2251 0.8907 0.0490
C28 C 0.15112(15) 0.89182(14) 0.09352(12)
H30 H 0.2276 0.8442 0.0890
H31 H 0.0937 0.8804 0.1516
H32 H 0.1469 0.8379 0.1521
H33 H 0.0889 0.9557 0.0884
H34 H 0.1384 0.9601 0.0483
C30 C 0.11457(16) 0.85536(14) 0.05882(12)
C33 C 0.14143(19) 0.8258(2) 0.02117(17)
C34 C 0.05325(18) 0.85162(19) 0.06112(15)
Fe8 Fe 0.5000 0.7500 0.43229(2)
H39 H 0.1829 0.8247 0.0186
H40 H 0.0328 0.8688 0.0865
C38 C 0.02200(17) 0.82266(18) 0.02615(15)
C37 C 0.1065(2) 0.7981(2) 0.98768(16)
N6 N 0.04698(12) 0.79645(11) 0.98952(10)
H43 H 0.1255 0.7795 0.9623
Fe10 Fe 0.0000 0.7500 0.93229(2)
O15 O 0.07064(11) 0.69256(10) 0.93452(8)
C39 C 0.1091(2) 0.6660(2) 0.91462(16)
N8 N 0.12592(17) 0.61619(16) 0.92551(13)
C40 C 0.1008(4) 0.5853(3) 0.9626(3)
H45 H 0.1543 0.6014 0.9088
H46 H 0.1200 0.5495 0.9644
H47 H 0.0589 0.5802 0.9564
H48 H 0.1059 0.6046 0.9929
H50 H 0.131982 0.686086 0.884371
Fe9_2 Fe 1.0000 0.2500 0.43229(2)
O8 O 0.92936(11) 0.80744(10) 0.93452(8)
C19 C 0.8909(2) 0.8340(2) 0.91462(16)
N3 N 0.87408(17) 0.88381(16) 0.92551(13)
C20 C 0.8992(4) 0.9147(3) 0.9626(3)
H21 H 0.8457 0.8986 0.9088
H22 H 0.8941 0.8954 0.9929
H23 H 0.8800 0.9505 0.9644
H24 H 0.9411 0.9198 0.9564
Fe10_2 Fe 1.0000 0.7500 0.93229(2)
N7 N 0.95302(12) 0.70355(11) 0.98952(10)
H49 H 0.868018 0.813914 0.884371
H44 H 0.0194 0.6784 0.0287
Fe1_2 Fe 0.64845(2) 0.49332(2) 0.18261(2)
Cl1_2 Cl 0.54726(4) 0.48711(4) 0.18169(3)
O1_2 O 0.66747(10) 0.41115(9) 0.18142(7)
O2_2 O 0.65536(10) 0.57694(9) 0.18414(7)
O3_2 O 0.66208(10) 0.49335(9) 0.11090(7)
O4_3 O 0.7500 0.5000 0.18305(10)
O5_2 O 0.66168(10) 0.49554(9) 0.25400(8)
Fe2_2 Fe 0.75659(2) 0.40576(2) 0.18372(2)
C1_2 C 0.63638(16) 0.37660(14) 0.14649(12)
C2_2 C 0.61858(16) 0.60663(14) 0.21802(11)
Fe3_3 Fe 0.7500 0.5000 0.10198(2)
C3_2 C 0.63147(15) 0.45239(13) 0.08246(11)
Fe4_3 Fe 0.7500 0.5000 0.26431(2)
C4_2 C 0.62467(15) 0.53174(14) 0.28251(12)
Cl2_2 Cl 0.76708(5) 0.31096(4) 0.18341(3)
O6_2 O 0.75614(9) 0.41760(9) 0.11202(7)
O7_2 O 0.75612(10) 0.41802(9) 0.25477(8)
C5_2 C 0.65112(15) 0.39182(14) 0.09352(12)
H1_2 H 0.5937 0.3804 0.1516
H2_2 H 0.6469 0.3379 0.1521
C6_2 C 0.63538(15) 0.59393(13) 0.27137(11)
H3_2 H 0.5771 0.5966 0.2127
H4_2 H 0.6226 0.6464 0.2122
Cl3_3 Cl 0.7500 0.5000 0.01884(4)
H5_2 H 0.6384 0.4601 0.0483
H6_2 H 0.5889 0.4557 0.0884
Cl4_3 Cl 0.7500 0.5000 0.34676(4)
H7_2 H 0.6324 0.5250 0.3167
H8_2 H 0.5831 0.5229 0.2763
C7_2 C 0.71765(15) 0.38303(14) 0.08309(12)
C8_2 C 0.79978(15) 0.38882(14) 0.28298(11)
C9_2 C 0.61457(16) 0.35536(14) 0.05882(12)
C10_2 C 0.59689(15) 0.63010(14) 0.30500(11)
H9_2 H 0.7276 0.3442 0.0890
H10_2 H 0.7251 0.3907 0.0490
H11_2 H 0.7921 0.3956 0.3172
H12_2 H 0.7955 0.3491 0.2772
C11_2 C 0.64143(19) 0.3258(2) 0.02117(17)
C12_2 C 0.55325(18) 0.35162(19) 0.06112(15)
C13_2 C 0.59975(18) 0.68786(15) 0.30299(13)
C14_2 C 0.56123(17) 0.60806(15) 0.34165(14)
H13_2 H 0.6829 0.3247 0.0186
C16_2 C 0.52200(17) 0.32266(18) 0.02615(15)
H14_2 H 0.5328 0.3688 0.0865
C17_2 C 0.57076(18) 0.71987(15) 0.33745(13)
H15_2 H 0.6213 0.7051 0.2783
C18_2 C 0.53491(17) 0.64302(15) 0.37502(14)
H16_2 H 0.5552 0.5697 0.3436
H18_2 H 0.4806 0.3216 0.0287
H19_2 H 0.5731 0.7585 0.3348
N2_2 N 0.53991(13) 0.69863(11) 0.37401(9)
H20_2 H 0.5123 0.6271 0.3997
Fe6_2 Fe 0.74341(2) 0.59424(2) 0.18372(2)
Fe7_2 Fe 0.85155(2) 0.50668(2) 0.18261(2)
O9_2 O 0.84464(10) 0.42306(9) 0.18414(7)
O10_2 O 0.74388(10) 0.58198(9) 0.25477(8)
O11_2 O 0.74386(9) 0.58240(9) 0.11202(7)
Cl5_2 Cl 0.73292(5) 0.68904(4) 0.18341(3)
O12_2 O 0.83253(10) 0.58885(9) 0.18142(7)
O13_2 O 0.83792(10) 0.50665(9) 0.11090(7)
O14_2 O 0.83832(10) 0.50446(9) 0.25400(8)
Cl6_2 Cl 0.95274(4) 0.51289(4) 0.18169(3)
C21_2 C 0.88142(16) 0.39337(14) 0.21802(11)
C22_2 C 0.70022(15) 0.61118(14) 0.28298(11)
C23_2 C 0.78235(15) 0.61697(14) 0.08309(12)
C24_2 C 0.86362(16) 0.62340(14) 0.14649(12)
C25_2 C 0.86853(15) 0.54761(13) 0.08246(11)
C26_2 C 0.87533(15) 0.46826(14) 0.28251(12)
C27_2 C 0.86462(15) 0.40607(13) 0.27137(11)
H25_2 H 0.8774 0.3536 0.2122
H26_2 H 0.9229 0.4034 0.2127
H27_2 H 0.7045 0.6509 0.2772
H28_2 H 0.7079 0.6044 0.3172
H29_2 H 0.7749 0.6093 0.0490
C28_2 C 0.84888(15) 0.60818(14) 0.09352(12)
H30_2 H 0.7724 0.6558 0.0890
H31_2 H 0.9063 0.6196 0.1516
H32_2 H 0.8531 0.6621 0.1521
H33_2 H 0.9111 0.5443 0.0884
H34_2 H 0.8616 0.5399 0.0483
H35_2 H 0.8676 0.4750 0.3167
H36_2 H 0.9169 0.4771 0.2763
C29_2 C 0.90311(15) 0.36990(14) 0.30500(11)
C30_2 C 0.88543(16) 0.64464(14) 0.05882(12)
C31_2 C 0.90025(18) 0.31214(15) 0.30299(13)
C32_2 C 0.93877(17) 0.39194(15) 0.34165(14)
C33_2 C 0.85857(19) 0.6742(2) 0.02117(17)
C34_2 C 0.94675(18) 0.64838(19) 0.06112(15)
C35_2 C 0.92924(18) 0.28013(15) 0.33745(13)
H37_2 H 0.8787 0.2949 0.2783
C36_2 C 0.96509(17) 0.35698(15) 0.37502(14)
H38_2 H 0.9448 0.4303 0.3436
H39_2 H 0.8171 0.6753 0.0186
H40_2 H 0.9672 0.6312 0.0865
C38_2 C 0.97800(17) 0.67734(18) 0.02615(15)
H41_2 H 0.9269 0.2415 0.3348
N4_2 N 0.96009(13) 0.30137(11) 0.37401(9)
H42_2 H 0.9877 0.3729 0.3997
C15_2 C 0.6065(2) 0.2981(2) 0.98768(16)
H17_2 H 0.6255 0.2795 0.9623
C37_2 C 0.8935(2) 0.7019(2) 0.98768(16)
H43_2 H 0.8745 0.7205 0.9623
O8_2 O 0.42936(11) 0.30744(10) 0.93452(8)
C19_2 C 0.3909(2) 0.3340(2) 0.91462(16)
N3_2 N 0.37408(17) 0.38381(16) 0.92551(13)
C20_2 C 0.3992(4) 0.4147(3) 0.9626(3)
H21_2 H 0.3457 0.3986 0.9088
H22_2 H 0.3941 0.3954 0.9929
H23_2 H 0.3800 0.4505 0.9644
H24_2 H 0.4411 0.4198 0.9564
O15_2 O 0.57064(11) 0.19256(10) 0.93452(8)
C39_2 C 0.6091(2) 0.1660(2) 0.91462(16)
N8_2 N 0.62592(17) 0.11619(16) 0.92551(13)
C40_2 C 0.6008(4) 0.0853(3) 0.9626(3)
H45_2 H 0.6543 0.1014 0.9088
H46_2 H 0.6200 0.0495 0.9644
H47_2 H 0.5589 0.0802 0.9564
H48_2 H 0.6059 0.1046 0.9929
H49_2 H 0.368018 0.313914 0.884371
H50_2 H 0.631982 0.186086 0.884371
O8_3 O 0.07064(11) 0.30744(10) 0.43452(8)
C19_3 C 0.1091(2) 0.3340(2) 0.41462(16)
N3_3 N 0.12592(17) 0.38381(16) 0.42551(13)
C20_3 C 0.1008(4) 0.4147(3) 0.4626(3)
H21_3 H 0.1543 0.3986 0.4088
H22_3 H 0.1059 0.3954 0.4929
H23_3 H 0.1200 0.4505 0.4644
H24_3 H 0.0589 0.4198 0.4564
H44_2 H 0.0194 0.3216 0.5287
N7_2 N 0.04698(12) 0.20355(11) 0.48952(10)
H49_3 H 0.131982 0.313914 0.384371
Fe1_3 Fe 0.64845(2) 0.50668(2) 0.68261(2)
Cl1_3 Cl 0.54726(4) 0.51289(4) 0.68169(3)
O1_3 O 0.66747(10) 0.58885(9) 0.68142(7)
O2_3 O 0.65536(10) 0.42306(9) 0.68414(7)
O3_3 O 0.66208(10) 0.50665(9) 0.61090(7)
O4_4 O 0.7500 0.5000 0.68305(10)
O5_3 O 0.66168(10) 0.50446(9) 0.75400(8)
Fe2_3 Fe 0.75659(2) 0.59424(2) 0.68372(2)
C1_3 C 0.63638(16) 0.62340(14) 0.64649(12)
C2_3 C 0.61858(16) 0.39337(14) 0.71802(11)
Fe3_4 Fe 0.7500 0.5000 0.60198(2)
C3_3 C 0.63147(15) 0.54761(13) 0.58246(11)
Fe4_4 Fe 0.7500 0.5000 0.76431(2)
C4_3 C 0.62467(15) 0.46826(14) 0.78251(12)
Cl2_3 Cl 0.76708(5) 0.68904(4) 0.68341(3)
O6_3 O 0.75614(9) 0.58240(9) 0.61202(7)
O7_3 O 0.75612(10) 0.58198(9) 0.75477(8)
C5_3 C 0.65112(15) 0.60818(14) 0.59352(12)
H1_3 H 0.5937 0.6196 0.6516
H2_3 H 0.6469 0.6621 0.6521
C6_3 C 0.63538(15) 0.40607(13) 0.77137(11)
H3_3 H 0.5771 0.4034 0.7127
H4_3 H 0.6226 0.3536 0.7122
Cl3_4 Cl 0.7500 0.5000 0.51884(4)
H5_3 H 0.6384 0.5399 0.5483
H6_3 H 0.5889 0.5443 0.5884
Cl4_4 Cl 0.7500 0.5000 0.84676(4)
H7_3 H 0.6324 0.4750 0.8167
H8_3 H 0.5831 0.4771 0.7763
C7_3 C 0.71765(15) 0.61697(14) 0.58309(12)
C8_3 C 0.79978(15) 0.61118(14) 0.78298(11)
C9_3 C 0.61457(16) 0.64464(14) 0.55882(12)
C10_3 C 0.59689(15) 0.36990(14) 0.80500(11)
H9_3 H 0.7276 0.6558 0.5890
H10_3 H 0.7251 0.6093 0.5490
H11_3 H 0.7921 0.6044 0.8172
H12_3 H 0.7955 0.6509 0.7772
C11_3 C 0.64143(19) 0.6742(2) 0.52117(17)
C12_3 C 0.55325(18) 0.64838(19) 0.56112(15)
C13_3 C 0.59975(18) 0.31214(15) 0.80299(13)
C14_3 C 0.56123(17) 0.39194(15) 0.84165(14)
C15_3 C 0.6065(2) 0.7019(2) 0.48768(16)
H13_3 H 0.6829 0.6753 0.5186
C16_3 C 0.52200(17) 0.67734(18) 0.52615(15)
H14_3 H 0.5328 0.6312 0.5865
C17_3 C 0.57076(18) 0.28013(15) 0.83745(13)
H15_3 H 0.6213 0.2949 0.7783
C18_3 C 0.53491(17) 0.35698(15) 0.87502(14)
H16_3 H 0.5552 0.4303 0.8436
H17_3 H 0.6255 0.7205 0.4623
N1_2 N 0.54698(12) 0.70355(11) 0.48952(10)
H18_3 H 0.4806 0.6784 0.5287
H19_3 H 0.5731 0.2415 0.8348
N2_3 N 0.53991(13) 0.30137(11) 0.87401(9)
H20_3 H 0.5123 0.3729 0.8997
Fe6_3 Fe 0.74341(2) 0.40576(2) 0.68372(2)
Fe7_3 Fe 0.85155(2) 0.49332(2) 0.68261(2)
O9_3 O 0.84464(10) 0.57694(9) 0.68414(7)
O10_3 O 0.74388(10) 0.41802(9) 0.75477(8)
O11_3 O 0.74386(9) 0.41760(9) 0.61202(7)
Cl5_3 Cl 0.73292(5) 0.31096(4) 0.68341(3)
O12_3 O 0.83253(10) 0.41115(9) 0.68142(7)
O13_3 O 0.83792(10) 0.49335(9) 0.61090(7)
O14_3 O 0.83832(10) 0.49554(9) 0.75400(8)
Cl6_3 Cl 0.95274(4) 0.48711(4) 0.68169(3)
C21_3 C 0.88142(16) 0.60663(14) 0.71802(11)
C22_3 C 0.70022(15) 0.38882(14) 0.78298(11)
C23_3 C 0.78235(15) 0.38303(14) 0.58309(12)
C24_3 C 0.86362(16) 0.37660(14) 0.64649(12)
C25_3 C 0.86853(15) 0.45239(13) 0.58246(11)
C26_3 C 0.87533(15) 0.53174(14) 0.78251(12)
C27_3 C 0.86462(15) 0.59393(13) 0.77137(11)
H25_3 H 0.8774 0.6464 0.7122
H26_3 H 0.9229 0.5966 0.7127
H27_3 H 0.7045 0.3491 0.7772
H28_3 H 0.7079 0.3956 0.8172
H29_3 H 0.7749 0.3907 0.5490
C28_3 C 0.84888(15) 0.39182(14) 0.59352(12)
H30_3 H 0.7724 0.3442 0.5890
H31_3 H 0.9063 0.3804 0.6516
H32_3 H 0.8531 0.3379 0.6521
H33_3 H 0.9111 0.4557 0.5884
H34_3 H 0.8616 0.4601 0.5483
H35_3 H 0.8676 0.5250 0.8167
H36_3 H 0.9169 0.5229 0.7763
C29_3 C 0.90311(15) 0.63010(14) 0.80500(11)
C30_3 C 0.88543(16) 0.35536(14) 0.55882(12)
C31_3 C 0.90025(18) 0.68786(15) 0.80299(13)
C32_3 C 0.93877(17) 0.60806(15) 0.84165(14)
C33_3 C 0.85857(19) 0.3258(2) 0.52117(17)
C34_3 C 0.94675(18) 0.35162(19) 0.56112(15)
C35_3 C 0.92924(18) 0.71987(15) 0.83745(13)
H37_3 H 0.8787 0.7051 0.7783
C36_3 C 0.96509(17) 0.64302(15) 0.87502(14)
H38_3 H 0.9448 0.5697 0.8436
C37_3 C 0.8935(2) 0.2981(2) 0.48768(16)
H39_3 H 0.8171 0.3247 0.5186
H40_3 H 0.9672 0.3688 0.5865
C38_3 C 0.97800(17) 0.32266(18) 0.52615(15)
H41_3 H 0.9269 0.7585 0.8348
N4_3 N 0.96009(13) 0.69863(11) 0.87401(9)
H42_3 H 0.9877 0.6271 0.8997
N5_2 N 0.45302(12) 0.79645(11) 0.48952(10)
N6_2 N 0.95302(12) 0.29645(11) 0.48952(10)
H43_3 H 0.8745 0.2795 0.4623
O15_3 O 0.92936(11) 0.19256(10) 0.43452(8)
C39_3 C 0.8909(2) 0.1660(2) 0.41462(16)
N8_3 N 0.87408(17) 0.11619(16) 0.42551(13)
C40_3 C 0.8992(4) 0.0853(3) 0.4626(3)
H45_3 H 0.8457 0.1014 0.4088
H46_3 H 0.8800 0.0495 0.4644
H47_3 H 0.9411 0.0802 0.4564
H48_3 H 0.8941 0.1046 0.4929
H50_3 H 0.868018 0.186086 0.384371
O2_4 O 0.34464(10) 0.07694(9) 0.68414(7)
O4_5 O 0.2500 0.0000 0.68305(10)
C2_4 C 0.38142(16) 0.10663(14) 0.71802(11)
Fe3_5 Fe 0.2500 0.0000 0.60198(2)
Fe4_5 Fe 0.2500 0.0000 0.76431(2)
C4_4 C 0.37533(15) 0.03174(14) 0.78251(12)
C6_4 C 0.36462(15) 0.09393(13) 0.77137(11)
H3_4 H 0.4229 0.0966 0.7127
H4_4 H 0.3774 0.1464 0.7122
Cl3_5 Cl 0.2500 0.0000 0.51884(4)
Cl4_5 Cl 0.2500 0.0000 0.84676(4)
H7_4 H 0.3676 0.0250 0.8167
H8_4 H 0.4169 0.0229 0.7763
C10_4 C 0.40311(15) 0.13010(14) 0.80500(11)
C13_4 C 0.40025(18) 0.18786(15) 0.80299(13)
C14_4 C 0.43877(17) 0.10806(15) 0.84165(14)
C17_4 C 0.42924(18) 0.21987(15) 0.83745(13)
H15_4 H 0.3787 0.2051 0.7783
C18_4 C 0.46509(17) 0.14302(15) 0.87502(14)
H16_4 H 0.4448 0.0697 0.8436
H19_4 H 0.4269 0.2585 0.8348
N2_4 N 0.46009(13) 0.19863(11) 0.87401(9)
H20_4 H 0.4877 0.1271 0.8997
Fe6_4 Fe 0.25659(2) 0.09424(2) 0.68372(2)
Fe7_4 Fe 0.14845(2) 0.00668(2) 0.68261(2)
O10_4 O 0.25612(10) 0.08198(9) 0.75477(8)
O11_4 O 0.25614(9) 0.08240(9) 0.61202(7)
Cl5_4 Cl 0.26708(5) 0.18904(4) 0.68341(3)
O12_4 O 0.16747(10) 0.08885(9) 0.68142(7)
O13_4 O 0.16208(10) 0.00665(9) 0.61090(7)
O14_4 O 0.16168(10) 0.00446(9) 0.75400(8)
Cl6_4 Cl 0.04726(4) 0.01289(4) 0.68169(3)
C22_4 C 0.29978(15) 0.11118(14) 0.78298(11)
C23_4 C 0.21765(15) 0.11697(14) 0.58309(12)
C24_4 C 0.13638(16) 0.12340(14) 0.64649(12)
C25_4 C 0.13147(15) 0.04761(13) 0.58246(11)
H27_4 H 0.2955 0.1509 0.7772
H28_4 H 0.2921 0.1044 0.8172
H29_4 H 0.2251 0.1093 0.5490
C28_4 C 0.15112(15) 0.10818(14) 0.59352(12)
H30_4 H 0.2276 0.1558 0.5890
H31_4 H 0.0937 0.1196 0.6516
H32_4 H 0.1469 0.1621 0.6521
H33_4 H 0.0889 0.0443 0.5884
H34_4 H 0.1384 0.0399 0.5483
C30_4 C 0.11457(16) 0.14464(14) 0.55882(12)
C33_4 C 0.14143(19) 0.1742(2) 0.52117(17)
C34_4 C 0.05325(18) 0.14838(19) 0.56112(15)
C37_4 C 0.1065(2) 0.2019(2) 0.48768(16)
H39_4 H 0.1829 0.1753 0.5186
H40_4 H 0.0328 0.1312 0.5865
C38_4 C 0.02200(17) 0.17734(18) 0.52615(15)
H43_4 H 0.1255 0.2205 0.4623
Fe1_4 Fe 0.35155(2) 0.99332(2) 0.68261(2)
Cl1_4 Cl 0.45274(4) 0.98711(4) 0.68169(3)
O1_4 O 0.33253(10) 0.91115(9) 0.68142(7)
O3_4 O 0.33792(10) 0.99335(9) 0.61090(7)
O4_6 O 0.2500 1.0000 0.68305(10)
O5_4 O 0.33832(10) 0.99554(9) 0.75400(8)
Fe2_4 Fe 0.24341(2) 0.90576(2) 0.68372(2)
C1_4 C 0.36362(16) 0.87660(14) 0.64649(12)
Fe3_6 Fe 0.2500 1.0000 0.60198(2)
C3_4 C 0.36853(15) 0.95239(13) 0.58246(11)
Fe4_6 Fe 0.2500 1.0000 0.76431(2)
Cl2_4 Cl 0.23292(5) 0.81096(4) 0.68341(3)
O6_4 O 0.24386(9) 0.91760(9) 0.61202(7)
O7_4 O 0.24388(10) 0.91802(9) 0.75477(8)
C5_4 C 0.34888(15) 0.89182(14) 0.59352(12)
H1_4 H 0.4063 0.8804 0.6516
H2_4 H 0.3531 0.8379 0.6521
Cl3_6 Cl 0.2500 1.0000 0.51884(4)
H5_4 H 0.3616 0.9601 0.5483
H6_4 H 0.4111 0.9557 0.5884
Cl4_6 Cl 0.2500 1.0000 0.84676(4)
C7_4 C 0.28235(15) 0.88303(14) 0.58309(12)
C8_4 C 0.20022(15) 0.88882(14) 0.78298(11)
C9_4 C 0.38543(16) 0.85536(14) 0.55882(12)
H9_4 H 0.2724 0.8442 0.5890
H10_4 H 0.2749 0.8907 0.5490
H11_4 H 0.2079 0.8956 0.8172
H12_4 H 0.2045 0.8491 0.7772
C11_4 C 0.35857(19) 0.8258(2) 0.52117(17)
C12_4 C 0.44675(18) 0.85162(19) 0.56112(15)
C15_4 C 0.3935(2) 0.7981(2) 0.48768(16)
H13_4 H 0.3171 0.8247 0.5186
C16_4 C 0.47800(17) 0.82266(18) 0.52615(15)
H14_4 H 0.4672 0.8688 0.5865
H17_4 H 0.3745 0.7795 0.4623
H18_4 H 0.5194 0.8216 0.5287
O9_4 O 0.15536(10) 0.92306(9) 0.68414(7)
C21_4 C 0.11858(16) 0.89337(14) 0.71802(11)
C26_4 C 0.12467(15) 0.96826(14) 0.78251(12)
C27_4 C 0.13538(15) 0.90607(13) 0.77137(11)
H25_4 H 0.1226 0.8536 0.7122
H26_4 H 0.0771 0.9034 0.7127
H35_4 H 0.1324 0.9750 0.8167
H36_4 H 0.0831 0.9771 0.7763
C29_4 C 0.09689(15) 0.86990(14) 0.80500(11)
C31_4 C 0.09975(18) 0.81214(15) 0.80299(13)
C32_4 C 0.06123(17) 0.89194(15) 0.84165(14)
C35_4 C 0.07076(18) 0.78013(15) 0.83745(13)
H37_4 H 0.1213 0.7949 0.7783
C36_4 C 0.03491(17) 0.85698(15) 0.87502(14)
H38_4 H 0.0552 0.9303 0.8436
H41_4 H 0.0731 0.7415 0.8348
N4_4 N 0.03991(13) 0.80137(11) 0.87401(9)
H42_4 H 0.0123 0.8729 0.8997
H44_3 H 0.9806 0.1784 0.5287
O8_4 O 0.57064(11) 0.80744(10) 0.43452(8)
C19_4 C 0.6091(2) 0.8340(2) 0.41462(16)
N3_4 N 0.62592(17) 0.88381(16) 0.42551(13)
C20_4 C 0.6008(4) 0.9147(3) 0.4626(3)
H21_4 H 0.6543 0.8986 0.4088
H22_4 H 0.6059 0.8954 0.4929
H23_4 H 0.6200 0.9505 0.4644
H24_4 H 0.5589 0.9198 0.4564
O15_4 O 0.42936(11) 0.69256(10) 0.43452(8)
C39_4 C 0.3909(2) 0.6660(2) 0.41462(16)
N8_4 N 0.37408(17) 0.61619(16) 0.42551(13)
C40_4 C 0.3992(4) 0.5853(3) 0.4626(3)
H45_4 H 0.3457 0.6014 0.4088
H46_4 H 0.3800 0.5495 0.4644
H47_4 H 0.4411 0.5802 0.4564
H48_4 H 0.3941 0.6046 0.4929
H49_4 H 0.631982 0.813914 0.384371
H50_4 H 0.368018 0.686086 0.384371
H44_4 H 0.9806 0.8216 0.0287
Fe1_5 Fe 0.35155(2) 0.49332(2) 0.31739(2)
Cl1_5 Cl 0.45274(4) 0.48711(4) 0.31831(3)
O1_5 O 0.33253(10) 0.41115(9) 0.31858(7)
O2_5 O 0.34464(10) 0.57694(9) 0.31586(7)
O3_5 O 0.33792(10) 0.49335(9) 0.38910(7)
O4_7 O 0.2500 0.5000 0.31695(10)
O5_5 O 0.33832(10) 0.49554(9) 0.24600(8)
Fe2_5 Fe 0.24341(2) 0.40576(2) 0.31628(2)
C1_5 C 0.36362(16) 0.37660(14) 0.35351(12)
C2_5 C 0.38142(16) 0.60663(14) 0.28198(11)
Fe3_7 Fe 0.2500 0.5000 0.39802(2)
C3_5 C 0.36853(15) 0.45239(13) 0.41754(11)
Fe4_7 Fe 0.2500 0.5000 0.23569(2)
C4_5 C 0.37533(15) 0.53174(14) 0.21749(12)
Cl2_5 Cl 0.23292(5) 0.31096(4) 0.31659(3)
O6_5 O 0.24386(9) 0.41760(9) 0.38798(7)
O7_5 O 0.24388(10) 0.41802(9) 0.24523(8)
C5_5 C 0.34888(15) 0.39182(14) 0.40648(12)
H1_5 H 0.4063 0.3804 0.3484
H2_5 H 0.3531 0.3379 0.3479
C6_5 C 0.36462(15) 0.59393(13) 0.22863(11)
H3_5 H 0.4229 0.5966 0.2873
H4_5 H 0.3774 0.6464 0.2878
Cl3_7 Cl 0.2500 0.5000 0.48116(4)
H5_5 H 0.3616 0.4601 0.4517
H6_5 H 0.4111 0.4557 0.4116
Cl4_7 Cl 0.2500 0.5000 0.15324(4)
H7_5 H 0.3676 0.5250 0.1833
H8_5 H 0.4169 0.5229 0.2237
C7_5 C 0.28235(15) 0.38303(14) 0.41691(12)
C8_5 C 0.20022(15) 0.38882(14) 0.21702(11)
C9_5 C 0.38543(16) 0.35536(14) 0.44118(12)
C10_5 C 0.40311(15) 0.63010(14) 0.19500(11)
H9_5 H 0.2724 0.3442 0.4110
H10_5 H 0.2749 0.3907 0.4510
H11_5 H 0.2079 0.3956 0.1828
H12_5 H 0.2045 0.3491 0.2228
C11_5 C 0.35857(19) 0.3258(2) 0.47883(17)
C12_5 C 0.44675(18) 0.35162(19) 0.43888(15)
C13_5 C 0.40025(18) 0.68786(15) 0.19701(13)
C14_5 C 0.43877(17) 0.60806(15) 0.15835(14)
C15_5 C 0.3935(2) 0.2981(2) 0.51232(16)
H13_5 H 0.3171 0.3247 0.4814
C16_5 C 0.47800(17) 0.32266(18) 0.47385(15)
H14_5 H 0.4672 0.3688 0.4135
C17_5 C 0.42924(18) 0.71987(15) 0.16255(13)
H15_5 H 0.3787 0.7051 0.2217
C18_5 C 0.46509(17) 0.64302(15) 0.12498(14)
H16_5 H 0.4448 0.5697 0.1564
H17_5 H 0.3745 0.2795 0.5377
N1_3 N 0.45302(12) 0.29645(11) 0.51048(10)
H18_5 H 0.5194 0.3216 0.4713
H19_5 H 0.4269 0.7585 0.1652
N2_5 N 0.46009(13) 0.69863(11) 0.12599(9)
H20_5 H 0.4877 0.6271 0.1003
Fe5_2 Fe 0.5000 0.2500 0.56771(2)
Fe6_5 Fe 0.25659(2) 0.59424(2) 0.31628(2)
Fe7_5 Fe 0.14845(2) 0.50668(2) 0.31739(2)
O9_5 O 0.15536(10) 0.42306(9) 0.31586(7)
O10_5 O 0.25612(10) 0.58198(9) 0.24523(8)
O11_5 O 0.25614(9) 0.58240(9) 0.38798(7)
Cl5_5 Cl 0.26708(5) 0.68904(4) 0.31659(3)
O12_5 O 0.16747(10) 0.58885(9) 0.31858(7)
O13_5 O 0.16208(10) 0.50665(9) 0.38910(7)
O14_5 O 0.16168(10) 0.50446(9) 0.24600(8)
Cl6_5 Cl 0.04726(4) 0.51289(4) 0.31831(3)
C21_5 C 0.11858(16) 0.39337(14) 0.28198(11)
C22_5 C 0.29978(15) 0.61118(14) 0.21702(11)
C23_5 C 0.21765(15) 0.61697(14) 0.41691(12)
C24_5 C 0.13638(16) 0.62340(14) 0.35351(12)
C25_5 C 0.13147(15) 0.54761(13) 0.41754(11)
C26_5 C 0.12467(15) 0.46826(14) 0.21749(12)
C27_5 C 0.13538(15) 0.40607(13) 0.22863(11)
H25_5 H 0.1226 0.3536 0.2878
H26_5 H 0.0771 0.4034 0.2873
H27_5 H 0.2955 0.6509 0.2228
H28_5 H 0.2921 0.6044 0.1828
H29_5 H 0.2251 0.6093 0.4510
C28_5 C 0.15112(15) 0.60818(14) 0.40648(12)
H30_5 H 0.2276 0.6558 0.4110
H31_5 H 0.0937 0.6196 0.3484
H32_5 H 0.1469 0.6621 0.3479
H33_5 H 0.0889 0.5443 0.4116
H34_5 H 0.1384 0.5399 0.4517
H35_5 H 0.1324 0.4750 0.1833
H36_5 H 0.0831 0.4771 0.2237
C29_5 C 0.09689(15) 0.36990(14) 0.19500(11)
C30_5 C 0.11457(16) 0.64464(14) 0.44118(12)
C31_5 C 0.09975(18) 0.31214(15) 0.19701(13)
C32_5 C 0.06123(17) 0.39194(15) 0.15835(14)
C33_5 C 0.14143(19) 0.6742(2) 0.47883(17)
C34_5 C 0.05325(18) 0.64838(19) 0.43888(15)
C35_5 C 0.07076(18) 0.28013(15) 0.16255(13)
H37_5 H 0.1213 0.2949 0.2217
C36_5 C 0.03491(17) 0.35698(15) 0.12498(14)
H38_5 H 0.0552 0.4303 0.1564
Fe8_2 Fe 0.5000 0.7500 0.06771(2)
C37_5 C 0.1065(2) 0.7019(2) 0.51232(16)
H39_5 H 0.1829 0.6753 0.4814
H40_5 H 0.0328 0.6312 0.4135
C38_5 C 0.02200(17) 0.67734(18) 0.47385(15)
H41_5 H 0.0731 0.2415 0.1652
N4_5 N 0.03991(13) 0.30137(11) 0.12599(9)
H42_5 H 0.0123 0.3729 0.1003
N5_3 N 0.54698(12) 0.20355(11) 0.51048(10)
N6_3 N 0.04698(12) 0.70355(11) 0.51048(10)
H43_5 H 0.1255 0.7205 0.5377
Fe9_3 Fe 0.0000 0.2500 0.06771(2)
Fe10_3 Fe 0.0000 0.7500 0.56771(2)
O15_5 O 0.07064(11) 0.80744(10) 0.56548(8)
C39_5 C 0.1091(2) 0.8340(2) 0.58538(16)
N8_5 N 0.12592(17) 0.88381(16) 0.57449(13)
C40_5 C 0.1008(4) 0.9147(3) 0.5374(3)
H45_5 H 0.1543 0.8986 0.5912
H46_5 H 0.1200 0.9505 0.5356
H47_5 H 0.0589 0.9198 0.5436
H48_5 H 0.1059 0.8954 0.5071
H50_5 H 0.131982 0.813914 0.615629
O8_5 O 0.92936(11) 0.69256(10) 0.56548(8)
C19_5 C 0.8909(2) 0.6660(2) 0.58538(16)
N3_5 N 0.87408(17) 0.61619(16) 0.57449(13)
C20_5 C 0.8992(4) 0.5853(3) 0.5374(3)
H21_5 H 0.8457 0.6014 0.5912
H22_5 H 0.8941 0.6046 0.5071
H23_5 H 0.8800 0.5495 0.5356
H24_5 H 0.9411 0.5802 0.5436
H44_5 H 0.9806 0.6784 0.4713
Fe9_4 Fe 1.0000 0.2500 0.06771(2)
Fe10_4 Fe 1.0000 0.7500 0.56771(2)
N7_3 N 0.95302(12) 0.79645(11) 0.51048(10)
H49_5 H 0.868018 0.686086 0.615629
H44_6 H 0.0194 0.8216 0.4713
Fe1_6 Fe 0.64845(2) 0.00668(2) 0.31739(2)
Cl1_6 Cl 0.54726(4) 0.01289(4) 0.31831(3)
O1_6 O 0.66747(10) 0.08885(9) 0.31858(7)
O3_6 O 0.66208(10) 0.00665(9) 0.38910(7)
O4_8 O 0.7500 0.0000 0.31695(10)
O5_6 O 0.66168(10) 0.00446(9) 0.24600(8)
Fe2_6 Fe 0.75659(2) 0.09424(2) 0.31628(2)
C1_6 C 0.63638(16) 0.12340(14) 0.35351(12)
Fe3_8 Fe 0.7500 0.0000 0.39802(2)
C3_6 C 0.63147(15) 0.04761(13) 0.41754(11)
Fe4_8 Fe 0.7500 0.0000 0.23569(2)
Cl2_6 Cl 0.76708(5) 0.18904(4) 0.31659(3)
O6_6 O 0.75614(9) 0.08240(9) 0.38798(7)
O7_6 O 0.75612(10) 0.08198(9) 0.24523(8)
C5_6 C 0.65112(15) 0.10818(14) 0.40648(12)
H1_6 H 0.5937 0.1196 0.3484
H2_6 H 0.6469 0.1621 0.3479
Cl3_8 Cl 0.7500 0.0000 0.48116(4)
H5_6 H 0.6384 0.0399 0.4517
H6_6 H 0.5889 0.0443 0.4116
Cl4_8 Cl 0.7500 -0.0000 0.15324(4)
C7_6 C 0.71765(15) 0.11697(14) 0.41691(12)
C8_6 C 0.79978(15) 0.11118(14) 0.21702(11)
C9_6 C 0.61457(16) 0.14464(14) 0.44118(12)
H9_6 H 0.7276 0.1558 0.4110
H10_6 H 0.7251 0.1093 0.4510
H11_6 H 0.7921 0.1044 0.1828
H12_6 H 0.7955 0.1509 0.2228
C11_6 C 0.64143(19) 0.1742(2) 0.47883(17)
C12_6 C 0.55325(18) 0.14838(19) 0.43888(15)
C15_6 C 0.6065(2) 0.2019(2) 0.51232(16)
H13_6 H 0.6829 0.1753 0.4814
C16_6 C 0.52200(17) 0.17734(18) 0.47385(15)
H14_6 H 0.5328 0.1312 0.4135
H17_6 H 0.6255 0.2205 0.5377
H18_6 H 0.4806 0.1784 0.4713
O9_6 O 0.84464(10) 0.07694(9) 0.31586(7)
C21_6 C 0.88142(16) 0.10663(14) 0.28198(11)
C26_6 C 0.87533(15) 0.03174(14) 0.21749(12)
C27_6 C 0.86462(15) 0.09393(13) 0.22863(11)
H25_6 H 0.8774 0.1464 0.2878
H26_6 H 0.9229 0.0966 0.2873
H35_6 H 0.8676 0.0250 0.1833
H36_6 H 0.9169 0.0229 0.2237
C29_6 C 0.90311(15) 0.13010(14) 0.19500(11)
C31_6 C 0.90025(18) 0.18786(15) 0.19701(13)
C32_6 C 0.93877(17) 0.10806(15) 0.15835(14)
C35_6 C 0.92924(18) 0.21987(15) 0.16255(13)
H37_6 H 0.8787 0.2051 0.2217
C36_6 C 0.96509(17) 0.14302(15) 0.12498(14)
H38_6 H 0.9448 0.0697 0.1564
H41_6 H 0.9269 0.2585 0.1652
N4_6 N 0.96009(13) 0.19863(11) 0.12599(9)
H42_6 H 0.9877 0.1271 0.1003
O2_6 O 0.65536(10) 0.92306(9) 0.31586(7)
O4_9 O 0.7500 1.0000 0.31695(10)
C2_6 C 0.61858(16) 0.89337(14) 0.28198(11)
Fe3_9 Fe 0.7500 1.0000 0.39802(2)
Fe4_9 Fe 0.7500 1.0000 0.23569(2)
C4_6 C 0.62467(15) 0.96826(14) 0.21749(12)
C6_6 C 0.63538(15) 0.90607(13) 0.22863(11)
H3_6 H 0.5771 0.9034 0.2873
H4_6 H 0.6226 0.8536 0.2878
Cl3_9 Cl 0.7500 1.0000 0.48116(4)
Cl4_9 Cl 0.7500 1.0000 0.15324(4)
H7_6 H 0.6324 0.9750 0.1833
H8_6 H 0.5831 0.9771 0.2237
C10_6 C 0.59689(15) 0.86990(14) 0.19500(11)
C13_6 C 0.59975(18) 0.81214(15) 0.19701(13)
C14_6 C 0.56123(17) 0.89194(15) 0.15835(14)
C17_6 C 0.57076(18) 0.78013(15) 0.16255(13)
H15_6 H 0.6213 0.7949 0.2217
C18_6 C 0.53491(17) 0.85698(15) 0.12498(14)
H16_6 H 0.5552 0.9303 0.1564
H19_6 H 0.5731 0.7415 0.1652
N2_6 N 0.53991(13) 0.80137(11) 0.12599(9)
H20_6 H 0.5123 0.8729 0.1003
Fe6_6 Fe 0.74341(2) 0.90576(2) 0.31628(2)
Fe7_6 Fe 0.85155(2) 0.99332(2) 0.31739(2)
O10_6 O 0.74388(10) 0.91802(9) 0.24523(8)
O11_6 O 0.74386(9) 0.91760(9) 0.38798(7)
Cl5_6 Cl 0.73292(5) 0.81096(4) 0.31659(3)
O12_6 O 0.83253(10) 0.91115(9) 0.31858(7)
O13_6 O 0.83792(10) 0.99335(9) 0.38910(7)
O14_6 O 0.83832(10) 0.99554(9) 0.24600(8)
Cl6_6 Cl 0.95274(4) 0.98711(4) 0.31831(3)
C22_6 C 0.70022(15) 0.88882(14) 0.21702(11)
C23_6 C 0.78235(15) 0.88303(14) 0.41691(12)
C24_6 C 0.86362(16) 0.87660(14) 0.35351(12)
C25_6 C 0.86853(15) 0.95239(13) 0.41754(11)
H27_6 H 0.7045 0.8491 0.2228
H28_6 H 0.7079 0.8956 0.1828
H29_6 H 0.7749 0.8907 0.4510
C28_6 C 0.84888(15) 0.89182(14) 0.40648(12)
H30_6 H 0.7724 0.8442 0.4110
H31_6 H 0.9063 0.8804 0.3484
H32_6 H 0.8531 0.8379 0.3479
H33_6 H 0.9111 0.9557 0.4116
H34_6 H 0.8616 0.9601 0.4517
C30_6 C 0.88543(16) 0.85536(14) 0.44118(12)
C33_6 C 0.85857(19) 0.8258(2) 0.47883(17)
C34_6 C 0.94675(18) 0.85162(19) 0.43888(15)
C37_6 C 0.8935(2) 0.7981(2) 0.51232(16)
H39_6 H 0.8171 0.8247 0.4814
H40_6 H 0.9672 0.8688 0.4135
C38_6 C 0.97800(17) 0.82266(18) 0.47385(15)
H43_6 H 0.8745 0.7795 0.5377
O8_6 O 0.42936(11) 0.19256(10) 0.56548(8)
C19_6 C 0.3909(2) 0.1660(2) 0.58538(16)
N3_6 N 0.37408(17) 0.11619(16) 0.57449(13)
C20_6 C 0.3992(4) 0.0853(3) 0.5374(3)
H21_6 H 0.3457 0.1014 0.5912
H22_6 H 0.3941 0.1046 0.5071
H23_6 H 0.3800 0.0495 0.5356
H24_6 H 0.4411 0.0802 0.5436
O15_6 O 0.57064(11) 0.30744(10) 0.56548(8)
C39_6 C 0.6091(2) 0.3340(2) 0.58538(16)
N8_6 N 0.62592(17) 0.38381(16) 0.57449(13)
C40_6 C 0.6008(4) 0.4147(3) 0.5374(3)
H45_6 H 0.6543 0.3986 0.5912
H46_6 H 0.6200 0.4505 0.5356
H47_6 H 0.5589 0.4198 0.5436
H48_6 H 0.6059 0.3954 0.5071
H49_6 H 0.368018 0.186086 0.615629
H50_6 H 0.631982 0.313914 0.615629
O8_7 O 0.07064(11) 0.19256(10) 0.06548(8)
C19_7 C 0.1091(2) 0.1660(2) 0.08538(16)
N3_7 N 0.12592(17) 0.11619(16) 0.07449(13)
C20_7 C 0.1008(4) 0.0853(3) 0.0374(3)
H21_7 H 0.1543 0.1014 0.0912
H22_7 H 0.1059 0.1046 0.0071
H23_7 H 0.1200 0.0495 0.0356
H24_7 H 0.0589 0.0802 0.0436
N7_4 N 0.04698(12) 0.29645(11) 0.01048(10)
H49_7 H 0.131982 0.186086 0.115629
C37_7 C 0.8935(2) 0.2019(2) 0.01232(16)
N6_4 N 0.95302(12) 0.20355(11) 0.01048(10)
H43_7 H 0.8745 0.2205 0.0377
O15_7 O 0.92936(11) 0.30744(10) 0.06548(8)
C39_7 C 0.8909(2) 0.3340(2) 0.08538(16)
N8_7 N 0.87408(17) 0.38381(16) 0.07449(13)
C40_7 C 0.8992(4) 0.4147(3) 0.0374(3)
H45_7 H 0.8457 0.3986 0.0912
H46_7 H 0.8800 0.4505 0.0356
H47_7 H 0.9411 0.4198 0.0436
H48_7 H 0.8941 0.3954 0.0071
H50_7 H 0.868018 0.313914 0.115629
O2_7 O 0.65536(10) 0.07694(9) 0.81586(7)
O4_10 O 0.7500 0.0000 0.81695(10)
C2_7 C 0.61858(16) 0.10663(14) 0.78198(11)
Fe3_10 Fe 0.7500 0.0000 0.89802(2)
Fe4_10 Fe 0.7500 0.0000 0.73569(2)
C4_7 C 0.62467(15) 0.03174(14) 0.71749(12)
C6_7 C 0.63538(15) 0.09393(13) 0.72863(11)
H3_7 H 0.5771 0.0966 0.7873
H4_7 H 0.6226 0.1464 0.7878
Cl3_10 Cl 0.7500 0.0000 0.98116(4)
Cl4_10 Cl 0.7500 0.0000 0.65324(4)
H7_7 H 0.6324 0.0250 0.6833
H8_7 H 0.5831 0.0229 0.7237
C10_7 C 0.59689(15) 0.13010(14) 0.69500(11)
C13_7 C 0.59975(18) 0.18786(15) 0.69701(13)
C14_7 C 0.56123(17) 0.10806(15) 0.65835(14)
C17_7 C 0.57076(18) 0.21987(15) 0.66255(13)
H15_7 H 0.6213 0.2051 0.7217
C18_7 C 0.53491(17) 0.14302(15) 0.62498(14)
H16_7 H 0.5552 0.0697 0.6564
H19_7 H 0.5731 0.2585 0.6652
N2_7 N 0.53991(13) 0.19863(11) 0.62599(9)
H20_7 H 0.5123 0.1271 0.6003
Fe6_7 Fe 0.74341(2) 0.09424(2) 0.81628(2)
Fe7_7 Fe 0.85155(2) 0.00668(2) 0.81739(2)
O10_7 O 0.74388(10) 0.08198(9) 0.74523(8)
O11_7 O 0.74386(9) 0.08240(9) 0.88798(7)
Cl5_7 Cl 0.73292(5) 0.18904(4) 0.81659(3)
O12_7 O 0.83253(10) 0.08885(9) 0.81858(7)
O13_7 O 0.83792(10) 0.00665(9) 0.88910(7)
O14_7 O 0.83832(10) 0.00446(9) 0.74600(8)
Cl6_7 Cl 0.95274(4) 0.01289(4) 0.81831(3)
C22_7 C 0.70022(15) 0.11118(14) 0.71702(11)
C23_7 C 0.78235(15) 0.11697(14) 0.91691(12)
C24_7 C 0.86362(16) 0.12340(14) 0.85351(12)
C25_7 C 0.86853(15) 0.04761(13) 0.91754(11)
H27_7 H 0.7045 0.1509 0.7228
H28_7 H 0.7079 0.1044 0.6828
H29_7 H 0.7749 0.1093 0.9510
C28_7 C 0.84888(15) 0.10818(14) 0.90648(12)
H30_7 H 0.7724 0.1558 0.9110
H31_7 H 0.9063 0.1196 0.8484
H32_7 H 0.8531 0.1621 0.8479
H33_7 H 0.9111 0.0443 0.9116
H34_7 H 0.8616 0.0399 0.9517
C30_7 C 0.88543(16) 0.14464(14) 0.94118(12)
C33_7 C 0.85857(19) 0.1742(2) 0.97883(17)
C34_7 C 0.94675(18) 0.14838(19) 0.93888(15)
H39_7 H 0.8171 0.1753 0.9814
H40_7 H 0.9672 0.1312 0.9135
C38_7 C 0.97800(17) 0.17734(18) 0.97385(15)
C15_7 C 0.6065(2) 0.7981(2) 0.01232(16)
H17_7 H 0.6255 0.7795 0.0377
N1_4 N 0.54698(12) 0.79645(11) 0.01048(10)
N5_4 N 0.45302(12) 0.70355(11) 0.01048(10)
Fe1_7 Fe 0.64845(2) 0.99332(2) 0.81739(2)
Cl1_7 Cl 0.54726(4) 0.98711(4) 0.81831(3)
O1_7 O 0.66747(10) 0.91115(9) 0.81858(7)
O3_7 O 0.66208(10) 0.99335(9) 0.88910(7)
O4_11 O 0.7500 1.0000 0.81695(10)
O5_7 O 0.66168(10) 0.99554(9) 0.74600(8)
Fe2_7 Fe 0.75659(2) 0.90576(2) 0.81628(2)
C1_7 C 0.63638(16) 0.87660(14) 0.85351(12)
Fe3_11 Fe 0.7500 1.0000 0.89802(2)
C3_7 C 0.63147(15) 0.95239(13) 0.91754(11)
Fe4_11 Fe 0.7500 1.0000 0.73569(2)
Cl2_7 Cl 0.76708(5) 0.81096(4) 0.81659(3)
O6_7 O 0.75614(9) 0.91760(9) 0.88798(7)
O7_7 O 0.75612(10) 0.91802(9) 0.74523(8)
C5_7 C 0.65112(15) 0.89182(14) 0.90648(12)
H1_7 H 0.5937 0.8804 0.8484
H2_7 H 0.6469 0.8379 0.8479
Cl3_11 Cl 0.7500 1.0000 0.98116(4)
H5_7 H 0.6384 0.9601 0.9517
H6_7 H 0.5889 0.9557 0.9116
Cl4_11 Cl 0.7500 1.0000 0.65324(4)
C7_7 C 0.71765(15) 0.88303(14) 0.91691(12)
C8_7 C 0.79978(15) 0.88882(14) 0.71702(11)
C9_7 C 0.61457(16) 0.85536(14) 0.94118(12)
H9_7 H 0.7276 0.8442 0.9110
H10_7 H 0.7251 0.8907 0.9510
H11_7 H 0.7921 0.8956 0.6828
H12_7 H 0.7955 0.8491 0.7228
C11_7 C 0.64143(19) 0.8258(2) 0.97883(17)
C12_7 C 0.55325(18) 0.85162(19) 0.93888(15)
H13_7 H 0.6829 0.8247 0.9814
C16_7 C 0.52200(17) 0.82266(18) 0.97385(15)
H14_7 H 0.5328 0.8688 0.9135
H18_7 H 0.4806 0.8216 0.9713
O9_7 O 0.84464(10) 0.92306(9) 0.81586(7)
C21_7 C 0.88142(16) 0.89337(14) 0.78198(11)
C26_7 C 0.87533(15) 0.96826(14) 0.71749(12)
C27_7 C 0.86462(15) 0.90607(13) 0.72863(11)
H25_7 H 0.8774 0.8536 0.7878
H26_7 H 0.9229 0.9034 0.7873
H35_7 H 0.8676 0.9750 0.6833
H36_7 H 0.9169 0.9771 0.7237
C29_7 C 0.90311(15) 0.86990(14) 0.69500(11)
C31_7 C 0.90025(18) 0.81214(15) 0.69701(13)
C32_7 C 0.93877(17) 0.89194(15) 0.65835(14)
C35_7 C 0.92924(18) 0.78013(15) 0.66255(13)
H37_7 H 0.8787 0.7949 0.7217
C36_7 C 0.96509(17) 0.85698(15) 0.62498(14)
H38_7 H 0.9448 0.9303 0.6564
H41_7 H 0.9269 0.7415 0.6652
N4_7 N 0.96009(13) 0.80137(11) 0.62599(9)
H42_7 H 0.9877 0.8729 0.6003
C15_8 C 0.3935(2) 0.7019(2) 0.01232(16)
H17_8 H 0.3745 0.7205 0.0377
C37_8 C 0.1065(2) 0.2981(2) 0.01232(16)
H43_8 H 0.1255 0.2795 0.0377
Fe1_8 Fe 0.35155(2) 0.50668(2) 0.81739(2)
Cl1_8 Cl 0.45274(4) 0.51289(4) 0.81831(3)
O1_8 O 0.33253(10) 0.58885(9) 0.81858(7)
O2_8 O 0.34464(10) 0.42306(9) 0.81586(7)
O3_8 O 0.33792(10) 0.50665(9) 0.88910(7)
O4_12 O 0.2500 0.5000 0.81695(10)
O5_8 O 0.33832(10) 0.50446(9) 0.74600(8)
Fe2_8 Fe 0.24341(2) 0.59424(2) 0.81628(2)
C1_8 C 0.36362(16) 0.62340(14) 0.85351(12)
C2_8 C 0.38142(16) 0.39337(14) 0.78198(11)
Fe3_12 Fe 0.2500 0.5000 0.89802(2)
C3_8 C 0.36853(15) 0.54761(13) 0.91754(11)
Fe4_12 Fe 0.2500 0.5000 0.73569(2)
C4_8 C 0.37533(15) 0.46826(14) 0.71749(12)
Cl2_8 Cl 0.23292(5) 0.68904(4) 0.81659(3)
O6_8 O 0.24386(9) 0.58240(9) 0.88798(7)
O7_8 O 0.24388(10) 0.58198(9) 0.74523(8)
C5_8 C 0.34888(15) 0.60818(14) 0.90648(12)
H1_8 H 0.4063 0.6196 0.8484
H2_8 H 0.3531 0.6621 0.8479
C6_8 C 0.36462(15) 0.40607(13) 0.72863(11)
H3_8 H 0.4229 0.4034 0.7873
H4_8 H 0.3774 0.3536 0.7878
Cl3_12 Cl 0.2500 0.5000 0.98116(4)
H5_8 H 0.3616 0.5399 0.9517
H6_8 H 0.4111 0.5443 0.9116
Cl4_12 Cl 0.2500 0.5000 0.65324(4)
H7_8 H 0.3676 0.4750 0.6833
H8_8 H 0.4169 0.4771 0.7237
C7_8 C 0.28235(15) 0.61697(14) 0.91691(12)
C8_8 C 0.20022(15) 0.61118(14) 0.71702(11)
C9_8 C 0.38543(16) 0.64464(14) 0.94118(12)
C10_8 C 0.40311(15) 0.36990(14) 0.69500(11)
H9_8 H 0.2724 0.6558 0.9110
H10_8 H 0.2749 0.6093 0.9510
H11_8 H 0.2079 0.6044 0.6828
H12_8 H 0.2045 0.6509 0.7228
C11_8 C 0.35857(19) 0.6742(2) 0.97883(17)
C12_8 C 0.44675(18) 0.64838(19) 0.93888(15)
C13_8 C 0.40025(18) 0.31214(15) 0.69701(13)
C14_8 C 0.43877(17) 0.39194(15) 0.65835(14)
H13_8 H 0.3171 0.6753 0.9814
C16_8 C 0.47800(17) 0.67734(18) 0.97385(15)
H14_8 H 0.4672 0.6312 0.9135
C17_8 C 0.42924(18) 0.28013(15) 0.66255(13)
H15_8 H 0.3787 0.2949 0.7217
C18_8 C 0.46509(17) 0.35698(15) 0.62498(14)
H16_8 H 0.4448 0.4303 0.6564
H18_8 H 0.5194 0.6784 0.9713
H19_8 H 0.4269 0.2415 0.6652
N2_8 N 0.46009(13) 0.30137(11) 0.62599(9)
H20_8 H 0.4877 0.3729 0.6003
Fe6_8 Fe 0.25659(2) 0.40576(2) 0.81628(2)
Fe7_8 Fe 0.14845(2) 0.49332(2) 0.81739(2)
O9_8 O 0.15536(10) 0.57694(9) 0.81586(7)
O10_8 O 0.25612(10) 0.41802(9) 0.74523(8)
O11_8 O 0.25614(9) 0.41760(9) 0.88798(7)
Cl5_8 Cl 0.26708(5) 0.31096(4) 0.81659(3)
O12_8 O 0.16747(10) 0.41115(9) 0.81858(7)
O13_8 O 0.16208(10) 0.49335(9) 0.88910(7)
O14_8 O 0.16168(10) 0.49554(9) 0.74600(8)
Cl6_8 Cl 0.04726(4) 0.48711(4) 0.81831(3)
C21_8 C 0.11858(16) 0.60663(14) 0.78198(11)
C22_8 C 0.29978(15) 0.38882(14) 0.71702(11)
C23_8 C 0.21765(15) 0.38303(14) 0.91691(12)
C24_8 C 0.13638(16) 0.37660(14) 0.85351(12)
C25_8 C 0.13147(15) 0.45239(13) 0.91754(11)
C26_8 C 0.12467(15) 0.53174(14) 0.71749(12)
C27_8 C 0.13538(15) 0.59393(13) 0.72863(11)
H25_8 H 0.1226 0.6464 0.7878
H26_8 H 0.0771 0.5966 0.7873
H27_8 H 0.2955 0.3491 0.7228
H28_8 H 0.2921 0.3956 0.6828
H29_8 H 0.2251 0.3907 0.9510
C28_8 C 0.15112(15) 0.39182(14) 0.90648(12)
H30_8 H 0.2276 0.3442 0.9110
H31_8 H 0.0937 0.3804 0.8484
H32_8 H 0.1469 0.3379 0.8479
H33_8 H 0.0889 0.4557 0.9116
H34_8 H 0.1384 0.4601 0.9517
H35_8 H 0.1324 0.5250 0.6833
H36_8 H 0.0831 0.5229 0.7237
C29_8 C 0.09689(15) 0.63010(14) 0.69500(11)
C30_8 C 0.11457(16) 0.35536(14) 0.94118(12)
C31_8 C 0.09975(18) 0.68786(15) 0.69701(13)
C32_8 C 0.06123(17) 0.60806(15) 0.65835(14)
C33_8 C 0.14143(19) 0.3258(2) 0.97883(17)
C34_8 C 0.05325(18) 0.35162(19) 0.93888(15)
C35_8 C 0.07076(18) 0.71987(15) 0.66255(13)
H37_8 H 0.1213 0.7051 0.7217
C36_8 C 0.03491(17) 0.64302(15) 0.62498(14)
H38_8 H 0.0552 0.5697 0.6564
H39_8 H 0.1829 0.3247 0.9814
H40_8 H 0.0328 0.3688 0.9135
C38_8 C 0.02200(17) 0.32266(18) 0.97385(15)
H41_8 H 0.0731 0.7585 0.6652
N4_8 N 0.03991(13) 0.69863(11) 0.62599(9)
H42_8 H 0.0123 0.6271 0.6003
H44_7 H 0.9806 0.3216 0.9713
O8_8 O 0.57064(11) 0.69256(10) 0.06548(8)
C19_8 C 0.6091(2) 0.6660(2) 0.08538(16)
N3_8 N 0.62592(17) 0.61619(16) 0.07449(13)
C20_8 C 0.6008(4) 0.5853(3) 0.0374(3)
H21_8 H 0.6543 0.6014 0.0912
H22_8 H 0.6059 0.6046 0.0071
H23_8 H 0.6200 0.5495 0.0356
H24_8 H 0.5589 0.5802 0.0436
O15_8 O 0.42936(11) 0.80744(10) 0.06548(8)
C39_8 C 0.3909(2) 0.8340(2) 0.08538(16)
N8_8 N 0.37408(17) 0.88381(16) 0.07449(13)
C40_8 C 0.3992(4) 0.9147(3) 0.0374(3)
H45_8 H 0.3457 0.8986 0.0912
H46_8 H 0.3800 0.9505 0.0356
H47_8 H 0.4411 0.9198 0.0436
H48_8 H 0.3941 0.8954 0.0071
H49_8 H 0.631982 0.686086 0.115629
H50_8 H 0.368018 0.813914 0.115629
H44_8 H 0.0194 0.1784 0.9713
loop_
_geom_bond_atom_site_label_1
_geom_bond_atom_site_label_2
_geom_bond_site_symmetry_1
_geom_bond_site_symmetry_2
Fe1 Cl1 1_555 1_555
O1 Fe1 1_555 1_555
O3 Fe1 1_555 1_555
O4 Fe1 1_555 1_555
O5 Fe1 1_555 1_555
Fe2 O1 1_555 1_555
C1 O1 1_555 1_555
Fe3 O3 1_555 1_555
C3 O3 1_555 1_555
Fe4 O4 1_555 1_555
Cl2 Fe2 1_555 1_555
O6 Fe2 1_555 1_555
O7 Fe2 1_555 1_555
C5 C1 1_555 1_555
H1 C1 1_555 1_555
H2 C1 1_555 1_555
Cl3 Fe3 1_555 1_555
H5 C3 1_555 1_555
H6 C3 1_555 1_555
Cl4 Fe4 1_555 1_555
C7 O6 1_555 1_555
C8 O7 1_555 1_555
C9 C5 1_555 1_555
H9 C7 1_555 1_555
H10 C7 1_555 1_555
H11 C8 1_555 1_555
H12 C8 1_555 1_555
C11 C9 1_555 1_555
C12 C9 1_555 1_555
H13 C11 1_555 1_555
C16 C12 1_555 1_555
H14 C12 1_555 1_555
H18 C16 1_555 1_555
O9 Fe2 1_555 1_555
C21 O9 1_555 1_555
C27 C8 1_555 1_555
H25 C21 1_555 1_555
H26 C21 1_555 1_555
H35 C26 1_555 1_555
H36 C26 1_555 1_555
C29 C27 1_555 1_555
C31 C29 1_555 1_555
C32 C29 1_555 1_555
C35 C31 1_555 1_555
H37 C31 1_555 1_555
C36 C32 1_555 1_555
H38 C32 1_555 1_555
H41 C35 1_555 1_555
N4 C35 1_555 1_555
H42 C36 1_555 1_555
Fe9 N4 1_555 1_555
O4 Fe2 1_555 1_555
O4 Fe3 1_555 1_555
O5 Fe4 1_555 1_555
Fe3 O6 1_555 1_555
C3 C5 1_555 1_555
Fe4 O7 1_555 1_555
C5 C7 1_555 1_555
C21 C27 1_555 1_555
C26 C27 1_555 1_555
C36 N4 1_555 1_555
H17 C15 1_555 1_555
N1 C15 1_555 1_555
Fe5 N1 1_555 1_555
N5 Fe5 1_555 1_555
C2 O2 1_555 1_555
Fe4_2 O4_2 1_555 1_555
C6 C2 1_555 1_555
H3 C2 1_555 1_555
H4 C2 1_555 1_555
Cl3_2 Fe3_2 1_555 1_555
Cl4_2 Fe4_2 1_555 1_555
H7 C4 1_555 1_555
H8 C4 1_555 1_555
C10 C6 1_555 1_555
C13 C10 1_555 1_555
C14 C10 1_555 1_555
C17 C13 1_555 1_555
H15 C13 1_555 1_555
C18 C14 1_555 1_555
H16 C14 1_555 1_555
H19 C17 1_555 1_555
N2 C17 1_555 1_555
H20 C18 1_555 1_555
Fe6 O2 1_555 1_555
Fe7 O4_2 1_555 1_555
O10 Fe4_2 1_555 1_555
O11 Fe3_2 1_555 1_555
Cl5 Fe6 1_555 1_555
O12 Fe6 1_555 1_555
O13 Fe3_2 1_555 1_555
O14 Fe4_2 1_555 1_555
Cl6 Fe7 1_555 1_555
C22 C6 1_555 1_555
C23 O11 1_555 1_555
C24 O12 1_555 1_555
C25 O13 1_555 1_555
H27 C22 1_555 1_555
H28 C22 1_555 1_555
H29 C23 1_555 1_555
C28 C23 1_555 1_555
H30 C23 1_555 1_555
H31 C24 1_555 1_555
H32 C24 1_555 1_555
H33 C25 1_555 1_555
H34 C25 1_555 1_555
C30 C28 1_555 1_555
C33 C30 1_555 1_555
C34 C30 1_555 1_555
Fe8 N2 1_555 1_555
H39 C33 1_555 1_555
H40 C34 1_555 1_555
C38 C34 1_555 1_555
O4_2 Fe3_2 1_555 1_555
O4_2 Fe6 1_555 1_555
C4 C6 1_555 1_555
C18 N2 1_555 1_555
Fe6 O10 1_555 1_555
Fe6 O11 1_555 1_555
Fe7 O12 1_555 1_555
Fe7 O13 1_555 1_555
Fe7 O14 1_555 1_555
O10 C22 1_555 1_555
C24 C28 1_555 1_555
C25 C28 1_555 1_555
N6 C37 1_555 1_555
H43 C37 1_555 1_555
O15 Fe10 1_555 1_555
C39 O15 1_555 1_555
N8 C39 1_555 1_555
C40 N8 1_555 1_555
H45 N8 1_555 1_555
H46 C40 1_555 1_555
H47 C40 1_555 1_555
H48 C40 1_555 1_555
N6 Fe10 1_555 1_555
C39 H50 1_555 1_555
O8 C19 1_555 1_555
C19 N3 1_555 1_555
N3 C20 1_555 1_555
C20 H22 1_555 1_555
H21 N3 1_555 1_555
H23 C20 1_555 1_555
H24 C20 1_555 1_555
Fe10_2 O8 1_555 1_555
N7 Fe10_2 1_555 1_555
C19 H49 1_555 1_555
Fe1_2 Cl1_2 1_555 1_555
O1_2 Fe1_2 1_555 1_555
O2_2 Fe1_2 1_555 1_555
O3_2 Fe1_2 1_555 1_555
O4_3 Fe1_2 1_555 1_555
O5_2 Fe1_2 1_555 1_555
Fe2_2 O1_2 1_555 1_555
C1_2 O1_2 1_555 1_555
C2_2 O2_2 1_555 1_555
Fe3_3 O3_2 1_555 1_555
C3_2 O3_2 1_555 1_555
Fe4_3 O4_3 1_555 1_555
C4_2 O5_2 1_555 1_555
Cl2_2 Fe2_2 1_555 1_555
O6_2 Fe2_2 1_555 1_555
O7_2 Fe2_2 1_555 1_555
C5_2 C1_2 1_555 1_555
H1_2 C1_2 1_555 1_555
H2_2 C1_2 1_555 1_555
C6_2 C2_2 1_555 1_555
H3_2 C2_2 1_555 1_555
H4_2 C2_2 1_555 1_555
Cl3_3 Fe3_3 1_555 1_555
H5_2 C3_2 1_555 1_555
H6_2 C3_2 1_555 1_555
Cl4_3 Fe4_3 1_555 1_555
H7_2 C4_2 1_555 1_555
H8_2 C4_2 1_555 1_555
C7_2 O6_2 1_555 1_555
C8_2 O7_2 1_555 1_555
C9_2 C5_2 1_555 1_555
C10_2 C6_2 1_555 1_555
H9_2 C7_2 1_555 1_555
H10_2 C7_2 1_555 1_555
H11_2 C8_2 1_555 1_555
H12_2 C8_2 1_555 1_555
C11_2 C9_2 1_555 1_555
C12_2 C9_2 1_555 1_555
C13_2 C10_2 1_555 1_555
C14_2 C10_2 1_555 1_555
H13_2 C11_2 1_555 1_555
C16_2 C12_2 1_555 1_555
H14_2 C12_2 1_555 1_555
C17_2 C13_2 1_555 1_555
H15_2 C13_2 1_555 1_555
C18_2 C14_2 1_555 1_555
H16_2 C14_2 1_555 1_555
H18_2 C16_2 1_555 1_555
H19_2 C17_2 1_555 1_555
N2_2 C17_2 1_555 1_555
H20_2 C18_2 1_555 1_555
Fe6_2 O2_2 1_555 1_555
Fe7_2 O4_3 1_555 1_555
O9_2 Fe2_2 1_555 1_555
O10_2 Fe4_3 1_555 1_555
O11_2 Fe3_3 1_555 1_555
Cl5_2 Fe6_2 1_555 1_555
O12_2 Fe6_2 1_555 1_555
O13_2 Fe3_3 1_555 1_555
O14_2 Fe4_3 1_555 1_555
Cl6_2 Fe7_2 1_555 1_555
C21_2 O9_2 1_555 1_555
C22_2 C6_2 1_555 1_555
C23_2 O11_2 1_555 1_555
C24_2 O12_2 1_555 1_555
C25_2 O13_2 1_555 1_555
C26_2 O14_2 1_555 1_555
C27_2 C8_2 1_555 1_555
H25_2 C21_2 1_555 1_555
H26_2 C21_2 1_555 1_555
H27_2 C22_2 1_555 1_555
H28_2 C22_2 1_555 1_555
H29_2 C23_2 1_555 1_555
C28_2 C23_2 1_555 1_555
H30_2 C23_2 1_555 1_555
H31_2 C24_2 1_555 1_555
H32_2 C24_2 1_555 1_555
H33_2 C25_2 1_555 1_555
H34_2 C25_2 1_555 1_555
H35_2 C26_2 1_555 1_555
H36_2 C26_2 1_555 1_555
C29_2 C27_2 1_555 1_555
C30_2 C28_2 1_555 1_555
C31_2 C29_2 1_555 1_555
C32_2 C29_2 1_555 1_555
C33_2 C30_2 1_555 1_555
C34_2 C30_2 1_555 1_555
C35_2 C31_2 1_555 1_555
H37_2 C31_2 1_555 1_555
C36_2 C32_2 1_555 1_555
H38_2 C32_2 1_555 1_555
Fe8 N2_2 1_555 1_555
H39_2 C33_2 1_555 1_555
H40_2 C34_2 1_555 1_555
C38_2 C34_2 1_555 1_555
H41_2 C35_2 1_555 1_555
N4_2 C35_2 1_555 1_555
H42_2 C36_2 1_555 1_555
Fe9_2 N4_2 1_555 1_555
O4_3 Fe2_2 1_555 1_555
O4_3 Fe3_3 1_555 1_555
O4_3 Fe6_2 1_555 1_555
O5_2 Fe4_3 1_555 1_555
Fe3_3 O6_2 1_555 1_555
C3_2 C5_2 1_555 1_555
Fe4_3 O7_2 1_555 1_555
C4_2 C6_2 1_555 1_555
C5_2 C7_2 1_555 1_555
C18_2 N2_2 1_555 1_555
Fe6_2 O10_2 1_555 1_555
Fe6_2 O11_2 1_555 1_555
Fe7_2 O9_2 1_555 1_555
Fe7_2 O12_2 1_555 1_555
Fe7_2 O13_2 1_555 1_555
Fe7_2 O14_2 1_555 1_555
O10_2 C22_2 1_555 1_555
C21_2 C27_2 1_555 1_555
C24_2 C28_2 1_555 1_555
C25_2 C28_2 1_555 1_555
C26_2 C27_2 1_555 1_555
C36_2 N4_2 1_555 1_555
H17_2 C15_2 1_555 1_555
N5 C15_2 1_555 1_555
N7 C37_2 1_555 1_555
H43_2 C37_2 1_555 1_555
O8_2 C19_2 1_555 1_555
C19_2 N3_2 1_555 1_555
N3_2 C20_2 1_555 1_555
C20_2 H22_2 1_555 1_555
H21_2 N3_2 1_555 1_555
H23_2 C20_2 1_555 1_555
H24_2 C20_2 1_555 1_555
Fe5 O8_2 1_555 1_555
O15_2 Fe5 1_555 1_555
C39_2 O15_2 1_555 1_555
N8_2 C39_2 1_555 1_555
C40_2 N8_2 1_555 1_555
H45_2 N8_2 1_555 1_555
H46_2 C40_2 1_555 1_555
H47_2 C40_2 1_555 1_555
H48_2 C40_2 1_555 1_555
C19_2 H49_2 1_555 1_555
C39_2 H50_2 1_555 1_555
O8_3 C19_3 1_555 1_555
C19_3 N3_3 1_555 1_555
N3_3 C20_3 1_555 1_555
C20_3 H22_3 1_555 1_555
H21_3 N3_3 1_555 1_555
H23_3 C20_3 1_555 1_555
H24_3 C20_3 1_555 1_555
Fe9 O8_3 1_555 1_555
N7_2 Fe9 1_555 1_555
C19_3 H49_3 1_555 1_555
Fe1_3 Cl1_3 1_555 1_555
O1_3 Fe1_3 1_555 1_555
O2_3 Fe1_3 1_555 1_555
O3_3 Fe1_3 1_555 1_555
O4_4 Fe1_3 1_555 1_555
O5_3 Fe1_3 1_555 1_555
Fe2_3 O1_3 1_555 1_555
C1_3 O1_3 1_555 1_555
C2_3 O2_3 1_555 1_555
Fe3_4 O3_3 1_555 1_555
C3_3 O3_3 1_555 1_555
Fe4_4 O4_4 1_555 1_555
C4_3 O5_3 1_555 1_555
Cl2_3 Fe2_3 1_555 1_555
O6_3 Fe2_3 1_555 1_555
O7_3 Fe2_3 1_555 1_555
C5_3 C1_3 1_555 1_555
H1_3 C1_3 1_555 1_555
H2_3 C1_3 1_555 1_555
C6_3 C2_3 1_555 1_555
H3_3 C2_3 1_555 1_555
H4_3 C2_3 1_555 1_555
Cl3_4 Fe3_4 1_555 1_555
H5_3 C3_3 1_555 1_555
H6_3 C3_3 1_555 1_555
Cl4_4 Fe4_4 1_555 1_555
H7_3 C4_3 1_555 1_555
H8_3 C4_3 1_555 1_555
C7_3 O6_3 1_555 1_555
C8_3 O7_3 1_555 1_555
C9_3 C5_3 1_555 1_555
C10_3 C6_3 1_555 1_555
H9_3 C7_3 1_555 1_555
H10_3 C7_3 1_555 1_555
H11_3 C8_3 1_555 1_555
H12_3 C8_3 1_555 1_555
C11_3 C9_3 1_555 1_555
C12_3 C9_3 1_555 1_555
C13_3 C10_3 1_555 1_555
C14_3 C10_3 1_555 1_555
C15_3 C11_3 1_555 1_555
H13_3 C11_3 1_555 1_555
C16_3 C12_3 1_555 1_555
H14_3 C12_3 1_555 1_555
C17_3 C13_3 1_555 1_555
H15_3 C13_3 1_555 1_555
C18_3 C14_3 1_555 1_555
H16_3 C14_3 1_555 1_555
H17_3 C15_3 1_555 1_555
N1_2 C15_3 1_555 1_555
H18_3 C16_3 1_555 1_555
H19_3 C17_3 1_555 1_555
N2_3 C17_3 1_555 1_555
H20_3 C18_3 1_555 1_555
Fe8 N1_2 1_555 1_555
Fe6_3 O2_3 1_555 1_555
Fe7_3 O4_4 1_555 1_555
O9_3 Fe2_3 1_555 1_555
O10_3 Fe4_4 1_555 1_555
O11_3 Fe3_4 1_555 1_555
Cl5_3 Fe6_3 1_555 1_555
O12_3 Fe6_3 1_555 1_555
O13_3 Fe3_4 1_555 1_555
O14_3 Fe4_4 1_555 1_555
Cl6_3 Fe7_3 1_555 1_555
C21_3 O9_3 1_555 1_555
C22_3 C6_3 1_555 1_555
C23_3 O11_3 1_555 1_555
C24_3 O12_3 1_555 1_555
C25_3 O13_3 1_555 1_555
C26_3 O14_3 1_555 1_555
C27_3 C8_3 1_555 1_555
H25_3 C21_3 1_555 1_555
H26_3 C21_3 1_555 1_555
H27_3 C22_3 1_555 1_555
H28_3 C22_3 1_555 1_555
H29_3 C23_3 1_555 1_555
C28_3 C23_3 1_555 1_555
H30_3 C23_3 1_555 1_555
H31_3 C24_3 1_555 1_555
H32_3 C24_3 1_555 1_555
H33_3 C25_3 1_555 1_555
H34_3 C25_3 1_555 1_555
H35_3 C26_3 1_555 1_555
H36_3 C26_3 1_555 1_555
C29_3 C27_3 1_555 1_555
C30_3 C28_3 1_555 1_555
C31_3 C29_3 1_555 1_555
C32_3 C29_3 1_555 1_555
C33_3 C30_3 1_555 1_555
C34_3 C30_3 1_555 1_555
C35_3 C31_3 1_555 1_555
H37_3 C31_3 1_555 1_555
C36_3 C32_3 1_555 1_555
H38_3 C32_3 1_555 1_555
Fe5 N2_3 1_555 1_555
C37_3 C33_3 1_555 1_555
H39_3 C33_3 1_555 1_555
H40_3 C34_3 1_555 1_555
C38_3 C34_3 1_555 1_555
H41_3 C35_3 1_555 1_555
N4_3 C35_3 1_555 1_555
H42_3 C36_3 1_555 1_555
N5_2 Fe8 1_555 1_555
N6_2 C37_3 1_555 1_555
H43_3 C37_3 1_555 1_555
Fe10_2 N4_3 1_555 1_555
O15_3 Fe9_2 1_555 1_555
C39_3 O15_3 1_555 1_555
N8_3 C39_3 1_555 1_555
C40_3 N8_3 1_555 1_555
H45_3 N8_3 1_555 1_555
H46_3 C40_3 1_555 1_555
H47_3 C40_3 1_555 1_555
H48_3 C40_3 1_555 1_555
O4_4 Fe2_3 1_555 1_555
O4_4 Fe3_4 1_555 1_555
O4_4 Fe6_3 1_555 1_555
O5_3 Fe4_4 1_555 1_555
Fe3_4 O6_3 1_555 1_555
C3_3 C5_3 1_555 1_555
Fe4_4 O7_3 1_555 1_555
C4_3 C6_3 1_555 1_555
C5_3 C7_3 1_555 1_555
C16_3 N1_2 1_555 1_555
C18_3 N2_3 1_555 1_555
Fe6_3 O10_3 1_555 1_555
Fe6_3 O11_3 1_555 1_555
Fe7_3 O9_3 1_555 1_555
Fe7_3 O12_3 1_555 1_555
Fe7_3 O13_3 1_555 1_555
Fe7_3 O14_3 1_555 1_555
O10_3 C22_3 1_555 1_555
C21_3 C27_3 1_555 1_555
C24_3 C28_3 1_555 1_555
C25_3 C28_3 1_555 1_555
C26_3 C27_3 1_555 1_555
C36_3 N4_3 1_555 1_555
C38_3 N6_2 1_555 1_555
N6_2 Fe9_2 1_555 1_555
C39_3 H50_3 1_555 1_555
C2_4 O2_4 1_555 1_555
Fe4_5 O4_5 1_555 1_555
C6_4 C2_4 1_555 1_555
H3_4 C2_4 1_555 1_555
H4_4 C2_4 1_555 1_555
Cl3_5 Fe3_5 1_555 1_555
Cl4_5 Fe4_5 1_555 1_555
H7_4 C4_4 1_555 1_555
H8_4 C4_4 1_555 1_555
C10_4 C6_4 1_555 1_555
C13_4 C10_4 1_555 1_555
C14_4 C10_4 1_555 1_555
C17_4 C13_4 1_555 1_555
H15_4 C13_4 1_555 1_555
C18_4 C14_4 1_555 1_555
H16_4 C14_4 1_555 1_555
H19_4 C17_4 1_555 1_555
N2_4 C17_4 1_555 1_555
H20_4 C18_4 1_555 1_555
Fe6_4 O2_4 1_555 1_555
Fe7_4 O4_5 1_555 1_555
O10_4 Fe4_5 1_555 1_555
O11_4 Fe3_5 1_555 1_555
Cl5_4 Fe6_4 1_555 1_555
O12_4 Fe6_4 1_555 1_555
O13_4 Fe3_5 1_555 1_555
O14_4 Fe4_5 1_555 1_555
Cl6_4 Fe7_4 1_555 1_555
C22_4 C6_4 1_555 1_555
C23_4 O11_4 1_555 1_555
C24_4 O12_4 1_555 1_555
C25_4 O13_4 1_555 1_555
H27_4 C22_4 1_555 1_555
H28_4 C22_4 1_555 1_555
H29_4 C23_4 1_555 1_555
C28_4 C23_4 1_555 1_555
H30_4 C23_4 1_555 1_555
H31_4 C24_4 1_555 1_555
H32_4 C24_4 1_555 1_555
H33_4 C25_4 1_555 1_555
H34_4 C25_4 1_555 1_555
C30_4 C28_4 1_555 1_555
C33_4 C30_4 1_555 1_555
C34_4 C30_4 1_555 1_555
Fe5 N2_4 1_555 1_555
C37_4 C33_4 1_555 1_555
H39_4 C33_4 1_555 1_555
H40_4 C34_4 1_555 1_555
C38_4 C34_4 1_555 1_555
N7_2 C37_4 1_555 1_555
H43_4 C37_4 1_555 1_555
O4_5 Fe3_5 1_555 1_555
O4_5 Fe6_4 1_555 1_555
C4_4 C6_4 1_555 1_555
C18_4 N2_4 1_555 1_555
Fe6_4 O10_4 1_555 1_555
Fe6_4 O11_4 1_555 1_555
Fe7_4 O12_4 1_555 1_555
Fe7_4 O13_4 1_555 1_555
Fe7_4 O14_4 1_555 1_555
O10_4 C22_4 1_555 1_555
C24_4 C28_4 1_555 1_555
C25_4 C28_4 1_555 1_555
C38_4 N7_2 1_555 1_555
Fe1_4 Cl1_4 1_555 1_555
O1_4 Fe1_4 1_555 1_555
O3_4 Fe1_4 1_555 1_555
O4_6 Fe1_4 1_555 1_555
O5_4 Fe1_4 1_555 1_555
Fe2_4 O1_4 1_555 1_555
C1_4 O1_4 1_555 1_555
Fe3_6 O3_4 1_555 1_555
C3_4 O3_4 1_555 1_555
Fe4_6 O4_6 1_555 1_555
Cl2_4 Fe2_4 1_555 1_555
O6_4 Fe2_4 1_555 1_555
O7_4 Fe2_4 1_555 1_555
C5_4 C1_4 1_555 1_555
H1_4 C1_4 1_555 1_555
H2_4 C1_4 1_555 1_555
Cl3_6 Fe3_6 1_555 1_555
H5_4 C3_4 1_555 1_555
H6_4 C3_4 1_555 1_555
Cl4_6 Fe4_6 1_555 1_555
C7_4 O6_4 1_555 1_555
C8_4 O7_4 1_555 1_555
C9_4 C5_4 1_555 1_555
H9_4 C7_4 1_555 1_555
H10_4 C7_4 1_555 1_555
H11_4 C8_4 1_555 1_555
H12_4 C8_4 1_555 1_555
C11_4 C9_4 1_555 1_555
C12_4 C9_4 1_555 1_555
C15_4 C11_4 1_555 1_555
H13_4 C11_4 1_555 1_555
C16_4 C12_4 1_555 1_555
H14_4 C12_4 1_555 1_555
H17_4 C15_4 1_555 1_555
N5_2 C15_4 1_555 1_555
H18_4 C16_4 1_555 1_555
O9_4 Fe2_4 1_555 1_555
C21_4 O9_4 1_555 1_555
C27_4 C8_4 1_555 1_555
H25_4 C21_4 1_555 1_555
H26_4 C21_4 1_555 1_555
H35_4 C26_4 1_555 1_555
H36_4 C26_4 1_555 1_555
C29_4 C27_4 1_555 1_555
C31_4 C29_4 1_555 1_555
C32_4 C29_4 1_555 1_555
C35_4 C31_4 1_555 1_555
H37_4 C31_4 1_555 1_555
C36_4 C32_4 1_555 1_555
H38_4 C32_4 1_555 1_555
H41_4 C35_4 1_555 1_555
N4_4 C35_4 1_555 1_555
H42_4 C36_4 1_555 1_555
Fe10 N4_4 1_555 1_555
O4_6 Fe2_4 1_555 1_555
O4_6 Fe3_6 1_555 1_555
O5_4 Fe4_6 1_555 1_555
Fe3_6 O6_4 1_555 1_555
C3_4 C5_4 1_555 1_555
Fe4_6 O7_4 1_555 1_555
C5_4 C7_4 1_555 1_555
C16_4 N5_2 1_555 1_555
C21_4 C27_4 1_555 1_555
C26_4 C27_4 1_555 1_555
C36_4 N4_4 1_555 1_555
O8_4 C19_4 1_555 1_555
C19_4 N3_4 1_555 1_555
N3_4 C20_4 1_555 1_555
C20_4 H22_4 1_555 1_555
H21_4 N3_4 1_555 1_555
H23_4 C20_4 1_555 1_555
H24_4 C20_4 1_555 1_555
Fe8 O8_4 1_555 1_555
O15_4 Fe8 1_555 1_555
C39_4 O15_4 1_555 1_555
N8_4 C39_4 1_555 1_555
C40_4 N8_4 1_555 1_555
H45_4 N8_4 1_555 1_555
H46_4 C40_4 1_555 1_555
H47_4 C40_4 1_555 1_555
H48_4 C40_4 1_555 1_555
C19_4 H49_4 1_555 1_555
C39_4 H50_4 1_555 1_555
Fe1_5 Cl1_5 1_555 1_555
O1_5 Fe1_5 1_555 1_555
O2_5 Fe1_5 1_555 1_555
O3_5 Fe1_5 1_555 1_555
O4_7 Fe1_5 1_555 1_555
O5_5 Fe1_5 1_555 1_555
Fe2_5 O1_5 1_555 1_555
C1_5 O1_5 1_555 1_555
C2_5 O2_5 1_555 1_555
Fe3_7 O3_5 1_555 1_555
C3_5 O3_5 1_555 1_555
Fe4_7 O4_7 1_555 1_555
C4_5 O5_5 1_555 1_555
Cl2_5 Fe2_5 1_555 1_555
O6_5 Fe2_5 1_555 1_555
O7_5 Fe2_5 1_555 1_555
C5_5 C1_5 1_555 1_555
H1_5 C1_5 1_555 1_555
H2_5 C1_5 1_555 1_555
C6_5 C2_5 1_555 1_555
H3_5 C2_5 1_555 1_555
H4_5 C2_5 1_555 1_555
Cl3_7 Fe3_7 1_555 1_555
H5_5 C3_5 1_555 1_555
H6_5 C3_5 1_555 1_555
Cl4_7 Fe4_7 1_555 1_555
H7_5 C4_5 1_555 1_555
H8_5 C4_5 1_555 1_555
C7_5 O6_5 1_555 1_555
C8_5 O7_5 1_555 1_555
C9_5 C5_5 1_555 1_555
C10_5 C6_5 1_555 1_555
H9_5 C7_5 1_555 1_555
H10_5 C7_5 1_555 1_555
H11_5 C8_5 1_555 1_555
H12_5 C8_5 1_555 1_555
C11_5 C9_5 1_555 1_555
C12_5 C9_5 1_555 1_555
C13_5 C10_5 1_555 1_555
C14_5 C10_5 1_555 1_555
C15_5 C11_5 1_555 1_555
H13_5 C11_5 1_555 1_555
C16_5 C12_5 1_555 1_555
H14_5 C12_5 1_555 1_555
C17_5 C13_5 1_555 1_555
H15_5 C13_5 1_555 1_555
C18_5 C14_5 1_555 1_555
H16_5 C14_5 1_555 1_555
H17_5 C15_5 1_555 1_555
N1_3 C15_5 1_555 1_555
H18_5 C16_5 1_555 1_555
H19_5 C17_5 1_555 1_555
N2_5 C17_5 1_555 1_555
H20_5 C18_5 1_555 1_555
Fe5_2 N1_3 1_555 1_555
Fe6_5 O2_5 1_555 1_555
Fe7_5 O4_7 1_555 1_555
O9_5 Fe2_5 1_555 1_555
O10_5 Fe4_7 1_555 1_555
O11_5 Fe3_7 1_555 1_555
Cl5_5 Fe6_5 1_555 1_555
O12_5 Fe6_5 1_555 1_555
O13_5 Fe3_7 1_555 1_555
O14_5 Fe4_7 1_555 1_555
Cl6_5 Fe7_5 1_555 1_555
C21_5 O9_5 1_555 1_555
C22_5 C6_5 1_555 1_555
C23_5 O11_5 1_555 1_555
C24_5 O12_5 1_555 1_555
C25_5 O13_5 1_555 1_555
C26_5 O14_5 1_555 1_555
C27_5 C8_5 1_555 1_555
H25_5 C21_5 1_555 1_555
H26_5 C21_5 1_555 1_555
H27_5 C22_5 1_555 1_555
H28_5 C22_5 1_555 1_555
H29_5 C23_5 1_555 1_555
C28_5 C23_5 1_555 1_555
H30_5 C23_5 1_555 1_555
H31_5 C24_5 1_555 1_555
H32_5 C24_5 1_555 1_555
H33_5 C25_5 1_555 1_555
H34_5 C25_5 1_555 1_555
H35_5 C26_5 1_555 1_555
H36_5 C26_5 1_555 1_555
C29_5 C27_5 1_555 1_555
C30_5 C28_5 1_555 1_555
C31_5 C29_5 1_555 1_555
C32_5 C29_5 1_555 1_555
C33_5 C30_5 1_555 1_555
C34_5 C30_5 1_555 1_555
C35_5 C31_5 1_555 1_555
H37_5 C31_5 1_555 1_555
C36_5 C32_5 1_555 1_555
H38_5 C32_5 1_555 1_555
Fe8_2 N2_5 1_555 1_555
C37_5 C33_5 1_555 1_555
H39_5 C33_5 1_555 1_555
H40_5 C34_5 1_555 1_555
C38_5 C34_5 1_555 1_555
H41_5 C35_5 1_555 1_555
N4_5 C35_5 1_555 1_555
H42_5 C36_5 1_555 1_555
N5_3 Fe5_2 1_555 1_555
N6_3 C37_5 1_555 1_555
H43_5 C37_5 1_555 1_555
Fe9_3 N4_5 1_555 1_555
O15_5 Fe10_3 1_555 1_555
C39_5 O15_5 1_555 1_555
N8_5 C39_5 1_555 1_555
C40_5 N8_5 1_555 1_555
H45_5 N8_5 1_555 1_555
H46_5 C40_5 1_555 1_555
H47_5 C40_5 1_555 1_555
H48_5 C40_5 1_555 1_555
O4_7 Fe2_5 1_555 1_555
O4_7 Fe3_7 1_555 1_555
O4_7 Fe6_5 1_555 1_555
O5_5 Fe4_7 1_555 1_555
Fe3_7 O6_5 1_555 1_555
C3_5 C5_5 1_555 1_555
Fe4_7 O7_5 1_555 1_555
C4_5 C6_5 1_555 1_555
C5_5 C7_5 1_555 1_555
C16_5 N1_3 1_555 1_555
C18_5 N2_5 1_555 1_555
Fe6_5 O10_5 1_555 1_555
Fe6_5 O11_5 1_555 1_555
Fe7_5 O9_5 1_555 1_555
Fe7_5 O12_5 1_555 1_555
Fe7_5 O13_5 1_555 1_555
Fe7_5 O14_5 1_555 1_555
O10_5 C22_5 1_555 1_555
C21_5 C27_5 1_555 1_555
C24_5 C28_5 1_555 1_555
C25_5 C28_5 1_555 1_555
C26_5 C27_5 1_555 1_555
C36_5 N4_5 1_555 1_555
C38_5 N6_3 1_555 1_555
N6_3 Fe10_3 1_555 1_555
C39_5 H50_5 1_555 1_555
O8_5 C19_5 1_555 1_555
C19_5 N3_5 1_555 1_555
N3_5 C20_5 1_555 1_555
C20_5 H22_5 1_555 1_555
H21_5 N3_5 1_555 1_555
H23_5 C20_5 1_555 1_555
H24_5 C20_5 1_555 1_555
Fe10_4 O8_5 1_555 1_555
N7_3 Fe10_4 1_555 1_555
C19_5 H49_5 1_555 1_555
Fe1_6 Cl1_6 1_555 1_555
O1_6 Fe1_6 1_555 1_555
O3_6 Fe1_6 1_555 1_555
O4_8 Fe1_6 1_555 1_555
O5_6 Fe1_6 1_555 1_555
Fe2_6 O1_6 1_555 1_555
C1_6 O1_6 1_555 1_555
Fe3_8 O3_6 1_555 1_555
C3_6 O3_6 1_555 1_555
Fe4_8 O4_8 1_555 1_555
Cl2_6 Fe2_6 1_555 1_555
O6_6 Fe2_6 1_555 1_555
O7_6 Fe2_6 1_555 1_555
C5_6 C1_6 1_555 1_555
H1_6 C1_6 1_555 1_555
H2_6 C1_6 1_555 1_555
Cl3_8 Fe3_8 1_555 1_555
H5_6 C3_6 1_555 1_555
H6_6 C3_6 1_555 1_555
Cl4_8 Fe4_8 1_555 1_555
C7_6 O6_6 1_555 1_555
C8_6 O7_6 1_555 1_555
C9_6 C5_6 1_555 1_555
H9_6 C7_6 1_555 1_555
H10_6 C7_6 1_555 1_555
H11_6 C8_6 1_555 1_555
H12_6 C8_6 1_555 1_555
C11_6 C9_6 1_555 1_555
C12_6 C9_6 1_555 1_555
C15_6 C11_6 1_555 1_555
H13_6 C11_6 1_555 1_555
C16_6 C12_6 1_555 1_555
H14_6 C12_6 1_555 1_555
H17_6 C15_6 1_555 1_555
N5_3 C15_6 1_555 1_555
H18_6 C16_6 1_555 1_555
O9_6 Fe2_6 1_555 1_555
C21_6 O9_6 1_555 1_555
C27_6 C8_6 1_555 1_555
H25_6 C21_6 1_555 1_555
H26_6 C21_6 1_555 1_555
H35_6 C26_6 1_555 1_555
H36_6 C26_6 1_555 1_555
C29_6 C27_6 1_555 1_555
C31_6 C29_6 1_555 1_555
C32_6 C29_6 1_555 1_555
C35_6 C31_6 1_555 1_555
H37_6 C31_6 1_555 1_555
C36_6 C32_6 1_555 1_555
H38_6 C32_6 1_555 1_555
H41_6 C35_6 1_555 1_555
N4_6 C35_6 1_555 1_555
H42_6 C36_6 1_555 1_555
Fe9_4 N4_6 1_555 1_555
O4_8 Fe2_6 1_555 1_555
O4_8 Fe3_8 1_555 1_555
O5_6 Fe4_8 1_555 1_555
Fe3_8 O6_6 1_555 1_555
C3_6 C5_6 1_555 1_555
Fe4_8 O7_6 1_555 1_555
C5_6 C7_6 1_555 1_555
C16_6 N5_3 1_555 1_555
C21_6 C27_6 1_555 1_555
C26_6 C27_6 1_555 1_555
C36_6 N4_6 1_555 1_555
C2_6 O2_6 1_555 1_555
Fe4_9 O4_9 1_555 1_555
C6_6 C2_6 1_555 1_555
H3_6 C2_6 1_555 1_555
H4_6 C2_6 1_555 1_555
Cl3_9 Fe3_9 1_555 1_555
Cl4_9 Fe4_9 1_555 1_555
H7_6 C4_6 1_555 1_555
H8_6 C4_6 1_555 1_555
C10_6 C6_6 1_555 1_555
C13_6 C10_6 1_555 1_555
C14_6 C10_6 1_555 1_555
C17_6 C13_6 1_555 1_555
H15_6 C13_6 1_555 1_555
C18_6 C14_6 1_555 1_555
H16_6 C14_6 1_555 1_555
H19_6 C17_6 1_555 1_555
N2_6 C17_6 1_555 1_555
H20_6 C18_6 1_555 1_555
Fe6_6 O2_6 1_555 1_555
Fe7_6 O4_9 1_555 1_555
O10_6 Fe4_9 1_555 1_555
O11_6 Fe3_9 1_555 1_555
Cl5_6 Fe6_6 1_555 1_555
O12_6 Fe6_6 1_555 1_555
O13_6 Fe3_9 1_555 1_555
O14_6 Fe4_9 1_555 1_555
Cl6_6 Fe7_6 1_555 1_555
C22_6 C6_6 1_555 1_555
C23_6 O11_6 1_555 1_555
C24_6 O12_6 1_555 1_555
C25_6 O13_6 1_555 1_555
H27_6 C22_6 1_555 1_555
H28_6 C22_6 1_555 1_555
H29_6 C23_6 1_555 1_555
C28_6 C23_6 1_555 1_555
H30_6 C23_6 1_555 1_555
H31_6 C24_6 1_555 1_555
H32_6 C24_6 1_555 1_555
H33_6 C25_6 1_555 1_555
H34_6 C25_6 1_555 1_555
C30_6 C28_6 1_555 1_555
C33_6 C30_6 1_555 1_555
C34_6 C30_6 1_555 1_555
Fe8_2 N2_6 1_555 1_555
C37_6 C33_6 1_555 1_555
H39_6 C33_6 1_555 1_555
H40_6 C34_6 1_555 1_555
C38_6 C34_6 1_555 1_555
N7_3 C37_6 1_555 1_555
H43_6 C37_6 1_555 1_555
O4_9 Fe3_9 1_555 1_555
O4_9 Fe6_6 1_555 1_555
C4_6 C6_6 1_555 1_555
C18_6 N2_6 1_555 1_555
Fe6_6 O10_6 1_555 1_555
Fe6_6 O11_6 1_555 1_555
Fe7_6 O12_6 1_555 1_555
Fe7_6 O13_6 1_555 1_555
Fe7_6 O14_6 1_555 1_555
O10_6 C22_6 1_555 1_555
C24_6 C28_6 1_555 1_555
C25_6 C28_6 1_555 1_555
C38_6 N7_3 1_555 1_555
O8_6 C19_6 1_555 1_555
C19_6 N3_6 1_555 1_555
N3_6 C20_6 1_555 1_555
C20_6 H22_6 1_555 1_555
H21_6 N3_6 1_555 1_555
H23_6 C20_6 1_555 1_555
H24_6 C20_6 1_555 1_555
Fe5_2 O8_6 1_555 1_555
O15_6 Fe5_2 1_555 1_555
C39_6 O15_6 1_555 1_555
N8_6 C39_6 1_555 1_555
C40_6 N8_6 1_555 1_555
H45_6 N8_6 1_555 1_555
H46_6 C40_6 1_555 1_555
H47_6 C40_6 1_555 1_555
H48_6 C40_6 1_555 1_555
C19_6 H49_6 1_555 1_555
C39_6 H50_6 1_555 1_555
O8_7 C19_7 1_555 1_555
C19_7 N3_7 1_555 1_555
N3_7 C20_7 1_555 1_555
C20_7 H22_7 1_555 1_555
H21_7 N3_7 1_555 1_555
H23_7 C20_7 1_555 1_555
H24_7 C20_7 1_555 1_555
Fe9_3 O8_7 1_555 1_555
N7_4 Fe9_3 1_555 1_555
C19_7 H49_7 1_555 1_555
N6_4 C37_7 1_555 1_555
H43_7 C37_7 1_555 1_555
O15_7 Fe9_4 1_555 1_555
C39_7 O15_7 1_555 1_555
N8_7 C39_7 1_555 1_555
C40_7 N8_7 1_555 1_555
H45_7 N8_7 1_555 1_555
H46_7 C40_7 1_555 1_555
H47_7 C40_7 1_555 1_555
H48_7 C40_7 1_555 1_555
N6_4 Fe9_4 1_555 1_555
C39_7 H50_7 1_555 1_555
C2_7 O2_7 1_555 1_555
Fe4_10 O4_10 1_555 1_555
C6_7 C2_7 1_555 1_555
H3_7 C2_7 1_555 1_555
H4_7 C2_7 1_555 1_555
Cl3_10 Fe3_10 1_555 1_555
Cl4_10 Fe4_10 1_555 1_555
H7_7 C4_7 1_555 1_555
H8_7 C4_7 1_555 1_555
C10_7 C6_7 1_555 1_555
C13_7 C10_7 1_555 1_555
C14_7 C10_7 1_555 1_555
C17_7 C13_7 1_555 1_555
H15_7 C13_7 1_555 1_555
C18_7 C14_7 1_555 1_555
H16_7 C14_7 1_555 1_555
H19_7 C17_7 1_555 1_555
N2_7 C17_7 1_555 1_555
H20_7 C18_7 1_555 1_555
Fe6_7 O2_7 1_555 1_555
Fe7_7 O4_10 1_555 1_555
O10_7 Fe4_10 1_555 1_555
O11_7 Fe3_10 1_555 1_555
Cl5_7 Fe6_7 1_555 1_555
O12_7 Fe6_7 1_555 1_555
O13_7 Fe3_10 1_555 1_555
O14_7 Fe4_10 1_555 1_555
Cl6_7 Fe7_7 1_555 1_555
C22_7 C6_7 1_555 1_555
C23_7 O11_7 1_555 1_555
C24_7 O12_7 1_555 1_555
C25_7 O13_7 1_555 1_555
H27_7 C22_7 1_555 1_555
H28_7 C22_7 1_555 1_555
H29_7 C23_7 1_555 1_555
C28_7 C23_7 1_555 1_555
H30_7 C23_7 1_555 1_555
H31_7 C24_7 1_555 1_555
H32_7 C24_7 1_555 1_555
H33_7 C25_7 1_555 1_555
H34_7 C25_7 1_555 1_555
C30_7 C28_7 1_555 1_555
C33_7 C30_7 1_555 1_555
C34_7 C30_7 1_555 1_555
Fe5_2 N2_7 1_555 1_555
H39_7 C33_7 1_555 1_555
H40_7 C34_7 1_555 1_555
C38_7 C34_7 1_555 1_555
O4_10 Fe3_10 1_555 1_555
O4_10 Fe6_7 1_555 1_555
C4_7 C6_7 1_555 1_555
C18_7 N2_7 1_555 1_555
Fe6_7 O10_7 1_555 1_555
Fe6_7 O11_7 1_555 1_555
Fe7_7 O12_7 1_555 1_555
Fe7_7 O13_7 1_555 1_555
Fe7_7 O14_7 1_555 1_555
O10_7 C22_7 1_555 1_555
C24_7 C28_7 1_555 1_555
C25_7 C28_7 1_555 1_555
H17_7 C15_7 1_555 1_555
N1_4 C15_7 1_555 1_555
Fe8_2 N1_4 1_555 1_555
N5_4 Fe8_2 1_555 1_555
Fe1_7 Cl1_7 1_555 1_555
O1_7 Fe1_7 1_555 1_555
O3_7 Fe1_7 1_555 1_555
O4_11 Fe1_7 1_555 1_555
O5_7 Fe1_7 1_555 1_555
Fe2_7 O1_7 1_555 1_555
C1_7 O1_7 1_555 1_555
Fe3_11 O3_7 1_555 1_555
C3_7 O3_7 1_555 1_555
Fe4_11 O4_11 1_555 1_555
Cl2_7 Fe2_7 1_555 1_555
O6_7 Fe2_7 1_555 1_555
O7_7 Fe2_7 1_555 1_555
C5_7 C1_7 1_555 1_555
H1_7 C1_7 1_555 1_555
H2_7 C1_7 1_555 1_555
Cl3_11 Fe3_11 1_555 1_555
H5_7 C3_7 1_555 1_555
H6_7 C3_7 1_555 1_555
Cl4_11 Fe4_11 1_555 1_555
C7_7 O6_7 1_555 1_555
C8_7 O7_7 1_555 1_555
C9_7 C5_7 1_555 1_555
H9_7 C7_7 1_555 1_555
H10_7 C7_7 1_555 1_555
H11_7 C8_7 1_555 1_555
H12_7 C8_7 1_555 1_555
C11_7 C9_7 1_555 1_555
C12_7 C9_7 1_555 1_555
H13_7 C11_7 1_555 1_555
C16_7 C12_7 1_555 1_555
H14_7 C12_7 1_555 1_555
H18_7 C16_7 1_555 1_555
O9_7 Fe2_7 1_555 1_555
C21_7 O9_7 1_555 1_555
C27_7 C8_7 1_555 1_555
H25_7 C21_7 1_555 1_555
H26_7 C21_7 1_555 1_555
H35_7 C26_7 1_555 1_555
H36_7 C26_7 1_555 1_555
C29_7 C27_7 1_555 1_555
C31_7 C29_7 1_555 1_555
C32_7 C29_7 1_555 1_555
C35_7 C31_7 1_555 1_555
H37_7 C31_7 1_555 1_555
C36_7 C32_7 1_555 1_555
H38_7 C32_7 1_555 1_555
H41_7 C35_7 1_555 1_555
N4_7 C35_7 1_555 1_555
H42_7 C36_7 1_555 1_555
Fe10_4 N4_7 1_555 1_555
O4_11 Fe2_7 1_555 1_555
O4_11 Fe3_11 1_555 1_555
O5_7 Fe4_11 1_555 1_555
Fe3_11 O6_7 1_555 1_555
C3_7 C5_7 1_555 1_555
Fe4_11 O7_7 1_555 1_555
C5_7 C7_7 1_555 1_555
C21_7 C27_7 1_555 1_555
C26_7 C27_7 1_555 1_555
C36_7 N4_7 1_555 1_555
H17_8 C15_8 1_555 1_555
N5_4 C15_8 1_555 1_555
N7_4 C37_8 1_555 1_555
H43_8 C37_8 1_555 1_555
Fe1_8 Cl1_8 1_555 1_555
O1_8 Fe1_8 1_555 1_555
O2_8 Fe1_8 1_555 1_555
O3_8 Fe1_8 1_555 1_555
O4_12 Fe1_8 1_555 1_555
O5_8 Fe1_8 1_555 1_555
Fe2_8 O1_8 1_555 1_555
C1_8 O1_8 1_555 1_555
C2_8 O2_8 1_555 1_555
Fe3_12 O3_8 1_555 1_555
C3_8 O3_8 1_555 1_555
Fe4_12 O4_12 1_555 1_555
C4_8 O5_8 1_555 1_555
Cl2_8 Fe2_8 1_555 1_555
O6_8 Fe2_8 1_555 1_555
O7_8 Fe2_8 1_555 1_555
C5_8 C1_8 1_555 1_555
H1_8 C1_8 1_555 1_555
H2_8 C1_8 1_555 1_555
C6_8 C2_8 1_555 1_555
H3_8 C2_8 1_555 1_555
H4_8 C2_8 1_555 1_555
Cl3_12 Fe3_12 1_555 1_555
H5_8 C3_8 1_555 1_555
H6_8 C3_8 1_555 1_555
Cl4_12 Fe4_12 1_555 1_555
H7_8 C4_8 1_555 1_555
H8_8 C4_8 1_555 1_555
C7_8 O6_8 1_555 1_555
C8_8 O7_8 1_555 1_555
C9_8 C5_8 1_555 1_555
C10_8 C6_8 1_555 1_555
H9_8 C7_8 1_555 1_555
H10_8 C7_8 1_555 1_555
H11_8 C8_8 1_555 1_555
H12_8 C8_8 1_555 1_555
C11_8 C9_8 1_555 1_555
C12_8 C9_8 1_555 1_555
C13_8 C10_8 1_555 1_555
C14_8 C10_8 1_555 1_555
H13_8 C11_8 1_555 1_555
C16_8 C12_8 1_555 1_555
H14_8 C12_8 1_555 1_555
C17_8 C13_8 1_555 1_555
H15_8 C13_8 1_555 1_555
C18_8 C14_8 1_555 1_555
H16_8 C14_8 1_555 1_555
H18_8 C16_8 1_555 1_555
H19_8 C17_8 1_555 1_555
N2_8 C17_8 1_555 1_555
H20_8 C18_8 1_555 1_555
Fe6_8 O2_8 1_555 1_555
Fe7_8 O4_12 1_555 1_555
O9_8 Fe2_8 1_555 1_555
O10_8 Fe4_12 1_555 1_555
O11_8 Fe3_12 1_555 1_555
Cl5_8 Fe6_8 1_555 1_555
O12_8 Fe6_8 1_555 1_555
O13_8 Fe3_12 1_555 1_555
O14_8 Fe4_12 1_555 1_555
Cl6_8 Fe7_8 1_555 1_555
C21_8 O9_8 1_555 1_555
C22_8 C6_8 1_555 1_555
C23_8 O11_8 1_555 1_555
C24_8 O12_8 1_555 1_555
C25_8 O13_8 1_555 1_555
C26_8 O14_8 1_555 1_555
C27_8 C8_8 1_555 1_555
H25_8 C21_8 1_555 1_555
H26_8 C21_8 1_555 1_555
H27_8 C22_8 1_555 1_555
H28_8 C22_8 1_555 1_555
H29_8 C23_8 1_555 1_555
C28_8 C23_8 1_555 1_555
H30_8 C23_8 1_555 1_555
H31_8 C24_8 1_555 1_555
H32_8 C24_8 1_555 1_555
H33_8 C25_8 1_555 1_555
H34_8 C25_8 1_555 1_555
H35_8 C26_8 1_555 1_555
H36_8 C26_8 1_555 1_555
C29_8 C27_8 1_555 1_555
C30_8 C28_8 1_555 1_555
C31_8 C29_8 1_555 1_555
C32_8 C29_8 1_555 1_555
C33_8 C30_8 1_555 1_555
C34_8 C30_8 1_555 1_555
C35_8 C31_8 1_555 1_555
H37_8 C31_8 1_555 1_555
C36_8 C32_8 1_555 1_555
H38_8 C32_8 1_555 1_555
Fe5_2 N2_8 1_555 1_555
H39_8 C33_8 1_555 1_555
H40_8 C34_8 1_555 1_555
C38_8 C34_8 1_555 1_555
H41_8 C35_8 1_555 1_555
N4_8 C35_8 1_555 1_555
H42_8 C36_8 1_555 1_555
Fe10_3 N4_8 1_555 1_555
O4_12 Fe2_8 1_555 1_555
O4_12 Fe3_12 1_555 1_555
O4_12 Fe6_8 1_555 1_555
O5_8 Fe4_12 1_555 1_555
Fe3_12 O6_8 1_555 1_555
C3_8 C5_8 1_555 1_555
Fe4_12 O7_8 1_555 1_555
C4_8 C6_8 1_555 1_555
C5_8 C7_8 1_555 1_555
C18_8 N2_8 1_555 1_555
Fe6_8 O10_8 1_555 1_555
Fe6_8 O11_8 1_555 1_555
Fe7_8 O9_8 1_555 1_555
Fe7_8 O12_8 1_555 1_555
Fe7_8 O13_8 1_555 1_555
Fe7_8 O14_8 1_555 1_555
O10_8 C22_8 1_555 1_555
C21_8 C27_8 1_555 1_555
C24_8 C28_8 1_555 1_555
C25_8 C28_8 1_555 1_555
C26_8 C27_8 1_555 1_555
C36_8 N4_8 1_555 1_555
O8_8 C19_8 1_555 1_555
C19_8 N3_8 1_555 1_555
N3_8 C20_8 1_555 1_555
C20_8 H22_8 1_555 1_555
H21_8 N3_8 1_555 1_555
H23_8 C20_8 1_555 1_555
H24_8 C20_8 1_555 1_555
Fe8_2 O8_8 1_555 1_555
O15_8 Fe8_2 1_555 1_555
C39_8 O15_8 1_555 1_555
N8_8 C39_8 1_555 1_555
C40_8 N8_8 1_555 1_555
H45_8 N8_8 1_555 1_555
H46_8 C40_8 1_555 1_555
H47_8 C40_8 1_555 1_555
H48_8 C40_8 1_555 1_555
C19_8 H49_8 1_555 1_555
C39_8 H50_8 1_555 1_555

#END
