
###############################################################################
#
# This file contains modified crystal structure data generated from the
# MOF subset of the Cambridge Structural Database (CSD) v543 
# hosted by the Cambridge Crystallographic Data Centre (CCDC).
#
# This work is licensed under the Creative Commons
# Attribution-NonCommercial-ShareAlike 4.0 International License.
# To view a copy of this license, visit
# http://creativecommons.org/licenses/by-nc-sa/4.0/
# or send a letter to
# Creative Commons, PO Box 1866, Mountain View, CA 94042, USA.
#
# CIF created using the CSD Python API on 29 September 2022
# The structure has been converted into the P1 space group
# The structure has a 3D framework
# The original CSD entry ROWVUW is in the monoclinic crystal system
# The framework has been calculated to contain at least 10.0% void space
# The void calculation uses a probe of radius 1.32A, grid spacing 0.4
#
###############################################################################

data_ROWVUW
_chemical_formula_moiety         '(C160 H104 Co8 N40 O30)n'
_symmetry_cell_setting           triclinic
_symmetry_space_group_name_H-M   'P 1'
_symmetry_Int_Tables_number      1
_space_group_name_Hall           'P 1'
loop_
_symmetry_equiv_pos_site_id
_symmetry_equiv_pos_as_xyz
1 x,y,z
_cell_length_a                   17.497(4)
_cell_length_b                   10.171(2)
_cell_length_c                   23.344(5)
_cell_angle_alpha                90
_cell_angle_beta                 90.54(3)
_cell_angle_gamma                90
_cell_volume                     4154.16
loop_
_atom_site_label
_atom_site_type_symbol
_atom_site_fract_x
_atom_site_fract_y
_atom_site_fract_z
Co5 Co 0.02251(3) 0.73292(5) 0.63453(2)
C2 C 0.4403(2) 0.1163(4) 0.20632(16)
C3 C 0.4837(2) 0.1723(4) 0.16333(18)
H1 H 0.5038 0.1198 0.1345
C4 C 0.4972(2) 0.3063(4) 0.16333(17)
H2 H 0.5259 0.3439 0.1343
C5 C 0.4679(2) 0.3853(4) 0.20666(16)
C6 C 0.4258(2) 0.3286(4) 0.24969(17)
H3 H 0.4069 0.3805 0.2791
C7 C 0.4115(2) 0.1949(4) 0.24932(17)
H4 H 0.3823 0.1576 0.2782
C8 C 0.4783(2) 0.5314(4) 0.20441(17)
H10 H 0.6773 0.0446 0.2690
H13 H 0.8657 0.0201 0.5041
H25 H 0.8286 0.0751 0.4162
N2 N 0.7621(2) 0.0165(4) 0.35580(16)
N3 N 0.8048(2) 0.0056(4) 0.40384(15)
O3 O 0.50845(17) 0.5779(3) 0.16050(11)
O4 O 0.45595(16) 0.5972(3) 0.24633(12)
Co3 Co 0.52251(3) 0.76708(5) 0.13453(2)
Co6 Co 0.38478(3) 0.73637(5) 0.26946(2)
C1 C 0.4262(2) 0.9712(4) 0.20670(17)
C9 C 0.3179(3) 0.6115(5) 0.36487(19)
C10 C 0.2633(3) 0.6199(4) 0.41428(18)
C11 C 0.1955(3) 0.6870(5) 0.40862(18)
H5 H 0.1816 0.7222 0.3733
C12 C 0.1479(3) 0.7024(5) 0.45482(19)
H6 H 0.1024 0.7492 0.4508
C13 C 0.1680(2) 0.6479(4) 0.50745(17)
C14 C 0.2346(3) 0.5791(5) 0.51297(18)
H7 H 0.2477 0.5406 0.5479
C15 C 0.2825(3) 0.5666(5) 0.4667(2)
H8 H 0.3285 0.5216 0.4710
C16 C 0.1164(2) 0.6694(4) 0.55675(17)
C17 C 0.6229(3) 0.9238(4) 0.2138(2)
H9 H 0.6047 0.9910 0.1904
C18 C 0.6673(3) 0.9568(5) 0.2607(2)
C19 C 0.6969(3) 0.8588(4) 0.29507(19)
C20 C 0.6804(3) 0.7311(4) 0.28047(19)
H11 H 0.6998 0.6620 0.3022
C21 C 0.6350(3) 0.7064(4) 0.23352(18)
H12 H 0.6246 0.6193 0.2242
C22 C 0.7440(3) 0.8922(4) 0.34537(18)
C23 C 0.8108(2) 0.8800(4) 0.41960(18)
C24 C 0.8549(2) 0.8400(4) 0.47019(18)
C25 C 0.8787(3) 0.9322(5) 0.5091(2)
C26 C 0.9220(3) 0.8946(5) 0.5557(2)
H14 H 0.9386 0.9596 0.5809
C27 C 0.9158(3) 0.6828(4) 0.5300(2)
H15 H 0.9268 0.5949 0.5373
C28 C 0.8737(3) 0.7127(4) 0.4814(2)
H16 H 0.8582 0.6462 0.4564
C29 C 0.2800(3) 0.7740(4) 0.16107(19)
H17 H 0.2914 0.8624 0.1670
C30 C 0.2376(3) 0.7411(4) 0.11374(19)
H18 H 0.2206 0.8059 0.0886
C31 C 0.2202(2) 0.6114(4) 0.10373(18)
C32 C 0.2440(2) 0.5197(4) 0.14377(18)
H19 H 0.2318 0.4312 0.1393
C33 C 0.2859(2) 0.5615(4) 0.19031(18)
H20 H 0.3011 0.4990 0.2171
C34 C 0.1777(3) 0.5703(4) 0.05168(18)
N1 N 0.6049(2) 0.8000(3) 0.20053(14)
N4 N 0.7725(2) 0.8043(4) 0.38326(15)
N5 N 0.94158(19) 0.7717(3) 0.56672(14)
N6 N 0.30632(19) 0.6864(3) 0.19950(14)
N7 N 0.1384(2) 0.6558(4) 0.01765(15)
N9 N 0.1752(2) 0.4476(4) 0.03432(17)
O1 O 0.45423(17) 0.9028(3) 0.16786(13)
O2 O 0.38661(17) 0.9256(3) 0.24658(12)
O5 O 0.30596(18) 0.6941(3) 0.32496(13)
O6 O 0.3691(2) 0.5285(4) 0.36536(16)
O7 O 0.10480(17) 0.7874(3) 0.57268(12)
O8 O 0.08317(18) 0.5781(3) 0.58114(12)
N11 N 0.44158(19) 0.7283(3) 0.06672(14)
N12 N 0.4665(2) 0.7964(3) 0.33873(15)
O11 O 0.60480(17) 0.7126(3) 0.07268(12)
O12 O 0.58317(18) 0.9219(3) 0.08114(12)
C39 C 0.9678(3) 0.5796(4) 0.8567(2)
H23 H 0.9360 0.5192 0.8384
N10 N 0.9665(2) 0.7036(3) 0.83873(15)
Co7 Co 0.88478(3) 0.76363(5) 0.76946(2)
C25_2 C 0.3787(3) 0.5678(5) 0.0091(2)
H13_2 H 0.3657 0.4799 0.0041
C26_2 C 0.4220(3) 0.6054(5) 0.0557(2)
H14_2 H 0.4386 0.5404 0.0809
C27_2 C 0.4158(3) 0.8172(4) 0.0300(2)
H15_2 H 0.4268 0.9051 0.0373
H1_2 H 0.0038 0.3802 0.6345
H2_2 H 0.0259 0.1561 0.6343
C17_2 C 0.1229(3) 0.5762(4) 0.7138(2)
H9_2 H 0.1047 0.5090 0.6904
C18_2 C 0.1673(3) 0.5432(5) 0.7607(2)
H10_2 H 0.1773 0.4554 0.7690
C19_2 C 0.1969(3) 0.6412(4) 0.79507(19)
C20_2 C 0.1804(3) 0.7689(4) 0.78047(19)
H11_2 H 0.1998 0.8380 0.8022
C21_2 C 0.1350(3) 0.7936(4) 0.73352(18)
H12_2 H 0.1246 0.8807 0.7242
C22_2 C 0.2440(3) 0.6078(4) 0.84537(18)
C23_2 C 0.3108(2) 0.6200(4) 0.91960(18)
C24_2 C 0.3549(2) 0.6600(4) 0.97019(18)
C28_2 C 0.3737(3) 0.7873(4) 0.9814(2)
H16_2 H 0.3582 0.8538 0.9564
H25_2 H 0.3286 0.4249 0.9162
N1_2 N 0.1049(2) 0.7000(3) 0.70053(14)
N2_2 N 0.2621(2) 0.4835(4) 0.85580(16)
N3_2 N 0.3048(2) 0.4944(4) 0.90384(15)
N4_2 N 0.2725(2) 0.6957(4) 0.88326(15)
O9 O 0.00845(17) 0.9221(3) 0.66050(11)
C13_2 C 0.6680(2) 0.8521(4) 0.00745(17)
C14_2 C 0.7346(3) 0.9209(5) 0.01297(18)
H7_2 H 0.7477 0.9594 0.0479
C16_2 C 0.6164(2) 0.8306(4) 0.05675(17)
C1_2 C 0.9262(2) 0.5288(4) 0.70670(17)
C2_2 C 0.9403(2) 0.3837(4) 0.70632(16)
C3_2 C 0.9837(2) 0.3277(4) 0.66333(18)
C4_2 C 0.9972(2) 0.1937(4) 0.66333(17)
C5_2 C 0.9679(2) 0.1147(4) 0.70666(16)
C6_2 C 0.9258(2) 0.1714(4) 0.74969(17)
H3_2 H 0.9069 0.1195 0.7791
C7_2 C 0.9115(2) 0.3051(4) 0.74932(17)
H4_2 H 0.8823 0.3424 0.7782
C9_2 C 0.8179(3) 0.8885(5) 0.86487(19)
C10_2 C 0.7633(3) 0.8801(4) 0.91428(18)
C11_2 C 0.6955(3) 0.8130(5) 0.90862(18)
H5_2 H 0.6816 0.7778 0.8733
C12_2 C 0.6479(3) 0.7976(5) 0.95482(19)
H6_2 H 0.6024 0.7508 0.9508
C15_2 C 0.7825(3) 0.9334(5) 0.9667(2)
H8_2 H 0.8285 0.9784 0.9710
C29_2 C 0.7800(3) 0.7260(4) 0.66107(19)
H17_2 H 0.7914 0.6376 0.6670
C30_2 C 0.7376(3) 0.7589(4) 0.61374(19)
H18_2 H 0.7206 0.6941 0.5886
C31_2 C 0.7202(2) 0.8886(4) 0.60373(18)
C32_2 C 0.7440(2) 0.9803(4) 0.64377(18)
C33_2 C 0.7859(2) 0.9385(4) 0.69031(18)
C34_2 C 0.6777(3) 0.9297(4) 0.55168(18)
C35 C 0.6100(3) 0.9202(4) 0.47708(19)
C36 C 0.5608(3) 0.8784(4) 0.42907(18)
C37 C 0.5589(3) 0.7488(5) 0.4113(2)
H21 H 0.5891 0.6861 0.4297
C38 C 0.5121(3) 0.7134(4) 0.3664(2)
H22 H 0.5124 0.6260 0.3546
C39_2 C 0.4678(3) 0.9204(4) 0.3567(2)
H23_2 H 0.4360 0.9808 0.3384
C40 C 0.5138(3) 0.9644(4) 0.4010(2)
N6_2 N 0.80632(19) 0.8136(3) 0.69950(14)
N7_2 N 0.6384(2) 0.8442(4) 0.51765(15)
O1_2 O 0.95423(17) 0.5972(3) 0.66786(13)
O2_2 O 0.88661(17) 0.5744(3) 0.74658(12)
O5_2 O 0.80596(18) 0.8059(3) 0.82496(13)
O6_2 O 0.8691(2) 0.9715(4) 0.86536(16)
O10 O 0.95595(16) 0.9028(3) 0.74633(12)
C8_2 C 0.9783(2) 0.9686(4) 0.70441(17)
C35_2 C 0.1100(3) 0.5798(4) 0.97708(19)
C36_2 C 0.0608(3) 0.6216(4) 0.92907(18)
C37_2 C 0.0589(3) 0.7512(5) 0.9113(2)
H21_2 H 0.0891 0.8139 0.9297
C38_2 C 0.0121(3) 0.7866(4) 0.8664(2)
H22_2 H 0.0124 0.8740 0.8546
C40_2 C 0.0138(3) 0.5356(4) 0.9010(2)
H24 H 0.0128 0.4475 0.9117
H26 H 0.1288 0.3845 0.9646
N8 N 0.1310(2) 0.4556(4) 0.98655(17)
C8_3 C 0.0217(2) 0.0314(4) 0.29559(17)
O4_2 O 0.04405(16) 0.0972(3) 0.25367(12)
Co6_2 Co 0.11522(3) 0.23637(5) 0.23054(2)
C1_3 C 0.0738(2) 0.4712(4) 0.29330(17)
C2_3 C 0.0597(2) 0.6163(4) 0.29368(16)
C3_3 C 0.0163(2) 0.6723(4) 0.33667(18)
C4_3 C 0.0028(2) 0.8063(4) 0.33667(17)
C5_3 C 0.0321(2) 0.8853(4) 0.29334(16)
C6_3 C 0.0742(2) 0.8286(4) 0.25031(17)
H3_3 H 0.0931 0.8805 0.2209
C7_3 C 0.0885(2) 0.6949(4) 0.25068(17)
H4_3 H 0.1177 0.6576 0.2218
C9_3 C 0.1821(3) 0.1115(5) 0.13513(19)
C10_3 C 0.2367(3) 0.1199(4) 0.08572(18)
C11_3 C 0.3045(3) 0.1870(5) 0.09138(18)
H5_3 H 0.3184 0.2222 0.1267
C12_3 C 0.3521(3) 0.2024(5) 0.04518(19)
H6_3 H 0.3976 0.2492 0.0492
C15_3 C 0.2175(3) 0.0666(5) 0.0333(2)
H8_3 H 0.1715 0.0216 0.0290
C29_3 C 0.2200(3) 0.2740(4) 0.33893(19)
H17_3 H 0.2086 0.3624 0.3330
C30_3 C 0.2624(3) 0.2411(4) 0.38626(19)
H18_3 H 0.2794 0.3059 0.4114
C31_3 C 0.2798(2) 0.1114(4) 0.39627(18)
C32_3 C 0.2560(2) 0.0197(4) 0.35623(18)
C33_3 C 0.2141(2) 0.0615(4) 0.30969(18)
C34_3 C 0.3223(3) 0.0703(4) 0.44832(18)
C35_3 C 0.3900(3) 0.0798(4) 0.52292(19)
C36_3 C 0.4392(3) 0.1216(4) 0.57093(18)
C37_3 C 0.4411(3) 0.2512(5) 0.5887(2)
H21_3 H 0.4109 0.3139 0.5703
C38_3 C 0.4879(3) 0.2866(4) 0.6336(2)
H22_3 H 0.4876 0.3740 0.6454
C39_3 C 0.5322(3) 0.0796(4) 0.6433(2)
H23_3 H 0.5640 0.0192 0.6616
C40_3 C 0.4862(3) 0.0356(4) 0.5990(2)
N6_3 N 0.19368(19) 0.1864(3) 0.30050(14)
N7_3 N 0.3616(2) 0.1558(4) 0.48235(15)
N10_2 N 0.5335(2) 0.2036(3) 0.66127(15)
O1_3 O 0.04577(17) 0.4028(3) 0.33214(13)
O2_3 O 0.11339(17) 0.4256(3) 0.25342(12)
O5_3 O 0.19404(18) 0.1941(3) 0.17504(13)
O6_3 O 0.1309(2) 0.0285(4) 0.13464(16)
Co7_2 Co 0.61522(3) 0.26363(5) 0.73054(2)
N11_2 N 0.05842(19) 0.2283(3) 0.43328(14)
N12_2 N 0.0335(2) 0.2964(3) 0.16127(15)
C13_3 C 0.3320(2) 0.1479(4) 0.99255(17)
C14_3 C 0.2654(3) 0.0791(5) 0.98703(18)
H7_3 H 0.2523 0.0406 0.9521
C16_3 C 0.3836(2) 0.1694(4) 0.94325(17)
O7_2 O 0.39520(17) 0.2874(3) 0.92732(12)
O8_2 O 0.41683(18) 0.0781(3) 0.91886(12)
Co4 Co 0.47749(3) 0.23292(5) 0.86547(2)
O3_2 O 0.99155(17) 0.0779(3) 0.33950(11)
Co3_2 Co 0.97749(3) 0.26708(5) 0.36547(2)
H1_3 H 0.9962 0.6198 0.3655
H2_3 H 0.9741 0.8439 0.3657
C17_3 C 0.8771(3) 0.4238(4) 0.2862(2)
H9_3 H 0.8953 0.4910 0.3096
C18_3 C 0.8327(3) 0.4568(5) 0.2393(2)
H10_3 H 0.8227 0.5446 0.2310
C19_3 C 0.8031(3) 0.3588(4) 0.20493(19)
C20_3 C 0.8196(3) 0.2311(4) 0.21953(19)
H11_3 H 0.8002 0.1620 0.1978
C21_3 C 0.8650(3) 0.2064(4) 0.26648(18)
H12_3 H 0.8754 0.1193 0.2758
C22_3 C 0.7560(3) 0.3922(4) 0.15463(18)
C23_3 C 0.6892(2) 0.3800(4) 0.08040(18)
C24_3 C 0.6451(2) 0.3400(4) 0.02981(18)
C28_3 C 0.6263(3) 0.2127(4) 0.0186(2)
H16_3 H 0.6418 0.1462 0.0436
H25_3 H 0.6714 0.5751 0.0838
N1_3 N 0.8951(2) 0.3000(3) 0.29947(14)
N2_3 N 0.7379(2) 0.5165(4) 0.14420(16)
N3_3 N 0.6952(2) 0.5056(4) 0.09616(15)
N4_3 N 0.7275(2) 0.3043(4) 0.11674(15)
O11_2 O 0.89520(17) 0.2126(3) 0.42732(12)
O12_2 O 0.91683(18) 0.4219(3) 0.41886(12)
C25_3 C 0.6213(3) 0.4322(5) 0.9909(2)
H13_3 H 0.6343 0.5201 0.9959
C26_3 C 0.5780(3) 0.3946(5) 0.9443(2)
H14_3 H 0.5614 0.4596 0.9191
C27_3 C 0.5842(3) 0.1828(4) 0.9700(2)
H15_3 H 0.5732 0.0949 0.9627
N5_2 N 0.55842(19) 0.2717(3) 0.93328(14)
C39_4 C 0.0322(3) 0.4204(4) 0.1433(2)
H23_4 H 0.0640 0.4808 0.1616
C1_4 C 0.5738(2) 0.0288(4) 0.79330(17)
C9_4 C 0.6821(3) 0.3885(5) 0.63513(19)
C10_4 C 0.7367(3) 0.3801(4) 0.58572(18)
C11_4 C 0.8045(3) 0.3130(5) 0.59138(18)
H5_4 H 0.8184 0.2778 0.6267
C12_4 C 0.8521(3) 0.2976(5) 0.54518(19)
H6_4 H 0.8976 0.2508 0.5492
C13_4 C 0.8320(2) 0.3521(4) 0.49255(17)
C14_4 C 0.7654(3) 0.4209(5) 0.48703(18)
H7_4 H 0.7523 0.4594 0.4521
C15_4 C 0.7175(3) 0.4334(5) 0.5333(2)
H8_4 H 0.6715 0.4784 0.5290
C16_4 C 0.8836(2) 0.3306(4) 0.44325(17)
C17_4 C 0.3771(3) 0.0762(4) 0.7862(2)
H9_4 H 0.3953 0.0090 0.8096
C18_4 C 0.3327(3) 0.0432(5) 0.7393(2)
C19_4 C 0.3031(3) 0.1412(4) 0.70493(19)
C20_4 C 0.3196(3) 0.2689(4) 0.71953(19)
H11_4 H 0.3002 0.3380 0.6978
C21_4 C 0.3650(3) 0.2936(4) 0.76648(18)
H12_4 H 0.3754 0.3807 0.7758
C22_4 C 0.2560(3) 0.1078(4) 0.65463(18)
C23_4 C 0.1892(2) 0.1200(4) 0.58040(18)
C24_4 C 0.1451(2) 0.1600(4) 0.52981(18)
C25_4 C 0.1213(3) 0.0678(5) 0.4909(2)
C26_4 C 0.0780(3) 0.1054(5) 0.4443(2)
H14_4 H 0.0614 0.0404 0.4191
C27_4 C 0.0842(3) 0.3172(4) 0.4700(2)
H15_4 H 0.0732 0.4051 0.4627
C28_4 C 0.1263(3) 0.2873(4) 0.5186(2)
H16_4 H 0.1418 0.3538 0.5436
C29_4 C 0.7200(3) 0.2260(4) 0.83893(19)
H17_4 H 0.7086 0.1376 0.8330
C30_4 C 0.7624(3) 0.2589(4) 0.88626(19)
H18_4 H 0.7794 0.1941 0.9114
C31_4 C 0.7798(2) 0.3886(4) 0.89627(18)
C32_4 C 0.7560(2) 0.4803(4) 0.85623(18)
H19_2 H 0.7682 0.5688 0.8607
C33_4 C 0.7141(2) 0.4385(4) 0.80969(18)
H20_2 H 0.6989 0.5010 0.7829
C34_4 C 0.8223(3) 0.4297(4) 0.94832(18)
N1_4 N 0.3951(2) 0.2000(3) 0.79947(14)
N4_4 N 0.2275(2) 0.1957(4) 0.61674(15)
N6_4 N 0.69368(19) 0.3136(3) 0.80050(14)
N7_4 N 0.8616(2) 0.3442(4) 0.98235(15)
N9_2 N 0.8248(2) 0.5524(4) 0.96568(17)
O1_4 O 0.54577(17) 0.0972(3) 0.83214(13)
O2_4 O 0.61339(17) 0.0744(3) 0.75342(12)
O5_4 O 0.69404(18) 0.3059(3) 0.67504(13)
O6_4 O 0.6309(2) 0.4715(4) 0.63464(16)
O9_2 O 0.49155(17) 0.4221(3) 0.83950(11)
O10_2 O 0.54405(16) 0.4028(3) 0.75367(12)
C2_4 C 0.5597(2) 0.8837(4) 0.79368(16)
C3_4 C 0.5163(2) 0.8277(4) 0.83667(18)
H1_4 H 0.4962 0.8802 0.8655
C4_4 C 0.5028(2) 0.6937(4) 0.83667(17)
H2_4 H 0.4741 0.6561 0.8657
C5_4 C 0.5321(2) 0.6147(4) 0.79334(16)
C6_4 C 0.5742(2) 0.6714(4) 0.75031(17)
H3_4 H 0.5931 0.6195 0.7209
C7_4 C 0.5885(2) 0.8051(4) 0.75068(17)
H4_4 H 0.6177 0.8424 0.7218
C8_4 C 0.5217(2) 0.4686(4) 0.79559(17)
H10_4 H 0.3227 0.9554 0.7310
H13_4 H 0.1343 0.9799 0.4959
H25_4 H 0.1714 0.9249 0.5838
N2_4 N 0.2379(2) 0.9835(4) 0.64420(16)
N3_4 N 0.1952(2) 0.9944(4) 0.59616(15)
H19_3 H 0.2682 0.9312 0.3607
H20_3 H 0.1989 0.9990 0.2829
H24_2 H 0.4872 0.9475 0.5883
H26_2 H 0.3712 0.8845 0.5354
N8_2 N 0.3690(2) 0.9556(4) 0.51345(17)
N9_3 N 0.3248(2) 0.9476(4) 0.46568(17)
C35_4 C 0.8900(3) 0.4202(4) 0.02292(19)
C36_4 C 0.9392(3) 0.3784(4) 0.07093(18)
C37_4 C 0.9411(3) 0.2488(5) 0.0887(2)
H21_4 H 0.9109 0.1861 0.0703
C38_4 C 0.9879(3) 0.2134(4) 0.1336(2)
H22_4 H 0.9876 0.1260 0.1454
C40_4 C 0.9862(3) 0.4644(4) 0.0990(2)
H24_3 H 0.9872 0.5525 0.0883
H26_3 H 0.8712 0.6155 0.0354
N8_3 N 0.8690(2) 0.5444(4) 0.01345(17)
H19_4 H 0.7318 0.0688 0.6393
H20_4 H 0.8011 0.0010 0.7171
H24_4 H 0.5128 0.0525 0.4117
H26_4 H 0.6288 0.1155 0.4646
N8_4 N 0.6310(2) 0.0444(4) 0.48655(17)
N9_4 N 0.6752(2) 0.0524(4) 0.53432(17)
loop_
_geom_bond_atom_site_label_1
_geom_bond_atom_site_label_2
_geom_bond_site_symmetry_1
_geom_bond_site_symmetry_2
C2 C3 1_555 1_555
C3 H1 1_555 1_555
C4 C3 1_555 1_555
H2 C4 1_555 1_555
C5 C4 1_555 1_555
C6 C5 1_555 1_555
H3 C6 1_555 1_555
C7 C2 1_555 1_555
H4 C7 1_555 1_555
C8 C5 1_555 1_555
H25 N3 1_555 1_555
O3 C8 1_555 1_555
O4 C8 1_555 1_555
Co3 O3 1_555 1_555
Co6 O4 1_555 1_555
C6 C7 1_555 1_555
N2 N3 1_555 1_555
Co3 N1 1_555 1_555
Co6 N6 1_555 1_555
C9 C10 1_555 1_555
C10 C11 1_555 1_555
C11 H5 1_555 1_555
C12 C11 1_555 1_555
H6 C12 1_555 1_555
C13 C12 1_555 1_555
C14 C13 1_555 1_555
H7 C14 1_555 1_555
C15 C10 1_555 1_555
H8 C15 1_555 1_555
C16 C13 1_555 1_555
C17 H9 1_555 1_555
C18 C17 1_555 1_555
C19 C18 1_555 1_555
C20 C19 1_555 1_555
H11 C20 1_555 1_555
C21 C20 1_555 1_555
H12 C21 1_555 1_555
C22 C19 1_555 1_555
C23 C24 1_555 1_555
C24 C25 1_555 1_555
C26 C25 1_555 1_555
H14 C26 1_555 1_555
C27 H15 1_555 1_555
C28 C24 1_555 1_555
H16 C28 1_555 1_555
C29 H17 1_555 1_555
C30 C29 1_555 1_555
H18 C30 1_555 1_555
C31 C30 1_555 1_555
C32 C31 1_555 1_555
H19 C32 1_555 1_555
C33 C32 1_555 1_555
H20 C33 1_555 1_555
C34 C31 1_555 1_555
N1 C17 1_555 1_555
N4 C22 1_555 1_555
N5 C26 1_555 1_555
N6 C29 1_555 1_555
N7 C34 1_555 1_555
N9 C34 1_555 1_555
O1 Co3 1_555 1_555
O2 Co6 1_555 1_555
O5 Co6 1_555 1_555
O6 C9 1_555 1_555
O7 C16 1_555 1_555
O8 C16 1_555 1_555
Co5 O7 1_555 1_555
N11 Co3 1_555 1_555
N12 Co6 1_555 1_555
O11 Co3 1_555 1_555
O12 Co3 1_555 1_555
C1 O1 1_555 1_555
C1 O2 1_555 1_555
C9 O5 1_555 1_555
C14 C15 1_555 1_555
C21 N1 1_555 1_555
C23 N4 1_555 1_555
C27 C28 1_555 1_555
C27 N5 1_555 1_555
C33 N6 1_555 1_555
O8 Co5 1_555 1_555
C39 H23 1_555 1_555
Co7 N10 1_555 1_555
C39 N10 1_555 1_555
C25_2 H13_2 1_555 1_555
C26_2 C25_2 1_555 1_555
H14_2 C26_2 1_555 1_555
C27_2 H15_2 1_555 1_555
N11 C26_2 1_555 1_555
C27_2 N11 1_555 1_555
Co5 N1_2 1_555 1_555
C17_2 H9_2 1_555 1_555
C18_2 C17_2 1_555 1_555
H10_2 C18_2 1_555 1_555
C19_2 C18_2 1_555 1_555
C20_2 C19_2 1_555 1_555
H11_2 C20_2 1_555 1_555
C21_2 C20_2 1_555 1_555
H12_2 C21_2 1_555 1_555
C22_2 C19_2 1_555 1_555
C23_2 C24_2 1_555 1_555
C28_2 C24_2 1_555 1_555
H16_2 C28_2 1_555 1_555
H25_2 N3_2 1_555 1_555
N1_2 C17_2 1_555 1_555
N2_2 C22_2 1_555 1_555
N3_2 C23_2 1_555 1_555
N4_2 C22_2 1_555 1_555
O9 Co5 1_555 1_555
C21_2 N1_2 1_555 1_555
C23_2 N4_2 1_555 1_555
N2_2 N3_2 1_555 1_555
C14_2 C13_2 1_555 1_555
H7_2 C14_2 1_555 1_555
C16_2 C13_2 1_555 1_555
O11 C16_2 1_555 1_555
O12 C16_2 1_555 1_555
Co7 N6_2 1_555 1_555
C1_2 C2_2 1_555 1_555
C2_2 C3_2 1_555 1_555
C4_2 C3_2 1_555 1_555
C5_2 C4_2 1_555 1_555
C6_2 C5_2 1_555 1_555
H3_2 C6_2 1_555 1_555
C7_2 C2_2 1_555 1_555
H4_2 C7_2 1_555 1_555
C9_2 C10_2 1_555 1_555
C10_2 C11_2 1_555 1_555
C11_2 H5_2 1_555 1_555
C12_2 C11_2 1_555 1_555
H6_2 C12_2 1_555 1_555
C15_2 C10_2 1_555 1_555
H8_2 C15_2 1_555 1_555
C29_2 H17_2 1_555 1_555
C30_2 C29_2 1_555 1_555
H18_2 C30_2 1_555 1_555
C31_2 C30_2 1_555 1_555
C32_2 C31_2 1_555 1_555
C33_2 C32_2 1_555 1_555
C34_2 C31_2 1_555 1_555
C35 C36 1_555 1_555
C36 C37 1_555 1_555
C37 H21 1_555 1_555
C38 C37 1_555 1_555
H22 C38 1_555 1_555
C39_2 H23_2 1_555 1_555
C40 C36 1_555 1_555
N6_2 C29_2 1_555 1_555
N7_2 C34_2 1_555 1_555
N12 C38 1_555 1_555
O2_2 Co7 1_555 1_555
O5_2 Co7 1_555 1_555
O6_2 C9_2 1_555 1_555
O10 Co7 1_555 1_555
C1_2 O1_2 1_555 1_555
C1_2 O2_2 1_555 1_555
C6_2 C7_2 1_555 1_555
C9_2 O5_2 1_555 1_555
C33_2 N6_2 1_555 1_555
C35 N7_2 1_555 1_555
C39_2 C40 1_555 1_555
C39_2 N12 1_555 1_555
O10 C8_2 1_555 1_555
C35_2 C36_2 1_555 1_555
C36_2 C37_2 1_555 1_555
C37_2 H21_2 1_555 1_555
C38_2 C37_2 1_555 1_555
H22_2 C38_2 1_555 1_555
C40_2 C36_2 1_555 1_555
H24 C40_2 1_555 1_555
H26 N8 1_555 1_555
N8 C35_2 1_555 1_555
O4_2 C8_3 1_555 1_555
Co6_2 O4_2 1_555 1_555
Co6_2 N6_3 1_555 1_555
C1_3 C2_3 1_555 1_555
C2_3 C3_3 1_555 1_555
C4_3 C3_3 1_555 1_555
C5_3 C4_3 1_555 1_555
C6_3 C5_3 1_555 1_555
H3_3 C6_3 1_555 1_555
C7_3 C2_3 1_555 1_555
H4_3 C7_3 1_555 1_555
C9_3 C10_3 1_555 1_555
C10_3 C11_3 1_555 1_555
C11_3 H5_3 1_555 1_555
C12_3 C11_3 1_555 1_555
H6_3 C12_3 1_555 1_555
C15_3 C10_3 1_555 1_555
H8_3 C15_3 1_555 1_555
C29_3 H17_3 1_555 1_555
C30_3 C29_3 1_555 1_555
H18_3 C30_3 1_555 1_555
C31_3 C30_3 1_555 1_555
C32_3 C31_3 1_555 1_555
C33_3 C32_3 1_555 1_555
C34_3 C31_3 1_555 1_555
C35_3 C36_3 1_555 1_555
C36_3 C37_3 1_555 1_555
C37_3 H21_3 1_555 1_555
C38_3 C37_3 1_555 1_555
H22_3 C38_3 1_555 1_555
C39_3 H23_3 1_555 1_555
C40_3 C36_3 1_555 1_555
N6_3 C29_3 1_555 1_555
N7_3 C34_3 1_555 1_555
N10_2 C38_3 1_555 1_555
O2_3 Co6_2 1_555 1_555
O5_3 Co6_2 1_555 1_555
O6_3 C9_3 1_555 1_555
Co7_2 N10_2 1_555 1_555
N12_2 Co6_2 1_555 1_555
C1_3 O1_3 1_555 1_555
C1_3 O2_3 1_555 1_555
C6_3 C7_3 1_555 1_555
C9_3 O5_3 1_555 1_555
C33_3 N6_3 1_555 1_555
C35_3 N7_3 1_555 1_555
C39_3 C40_3 1_555 1_555
C39_3 N10_2 1_555 1_555
C14_3 C13_3 1_555 1_555
H7_3 C14_3 1_555 1_555
C16_3 C13_3 1_555 1_555
O7_2 C16_3 1_555 1_555
O8_2 C16_3 1_555 1_555
Co4 O7_2 1_555 1_555
O8_2 Co4 1_555 1_555
Co3_2 O3_2 1_555 1_555
Co3_2 N1_3 1_555 1_555
C17_3 H9_3 1_555 1_555
C18_3 C17_3 1_555 1_555
H10_3 C18_3 1_555 1_555
C19_3 C18_3 1_555 1_555
C20_3 C19_3 1_555 1_555
H11_3 C20_3 1_555 1_555
C21_3 C20_3 1_555 1_555
H12_3 C21_3 1_555 1_555
C22_3 C19_3 1_555 1_555
C23_3 C24_3 1_555 1_555
C28_3 C24_3 1_555 1_555
H16_3 C28_3 1_555 1_555
H25_3 N3_3 1_555 1_555
N1_3 C17_3 1_555 1_555
N2_3 C22_3 1_555 1_555
N3_3 C23_3 1_555 1_555
N4_3 C22_3 1_555 1_555
O11_2 Co3_2 1_555 1_555
O12_2 Co3_2 1_555 1_555
C21_3 N1_3 1_555 1_555
C23_3 N4_3 1_555 1_555
N2_3 N3_3 1_555 1_555
C25_3 H13_3 1_555 1_555
C26_3 C25_3 1_555 1_555
H14_3 C26_3 1_555 1_555
C27_3 H15_3 1_555 1_555
N5_2 C26_3 1_555 1_555
Co4 N5_2 1_555 1_555
C27_3 N5_2 1_555 1_555
C39_4 H23_4 1_555 1_555
C39_4 N12_2 1_555 1_555
Co4 N1_4 1_555 1_555
Co7_2 N6_4 1_555 1_555
C9_4 C10_4 1_555 1_555
C10_4 C11_4 1_555 1_555
C11_4 H5_4 1_555 1_555
C12_4 C11_4 1_555 1_555
H6_4 C12_4 1_555 1_555
C13_4 C12_4 1_555 1_555
C14_4 C13_4 1_555 1_555
H7_4 C14_4 1_555 1_555
C15_4 C10_4 1_555 1_555
H8_4 C15_4 1_555 1_555
C16_4 C13_4 1_555 1_555
C17_4 H9_4 1_555 1_555
C18_4 C17_4 1_555 1_555
C19_4 C18_4 1_555 1_555
C20_4 C19_4 1_555 1_555
H11_4 C20_4 1_555 1_555
C21_4 C20_4 1_555 1_555
H12_4 C21_4 1_555 1_555
C22_4 C19_4 1_555 1_555
C23_4 C24_4 1_555 1_555
C24_4 C25_4 1_555 1_555
C26_4 C25_4 1_555 1_555
H14_4 C26_4 1_555 1_555
C27_4 H15_4 1_555 1_555
C28_4 C24_4 1_555 1_555
H16_4 C28_4 1_555 1_555
C29_4 H17_4 1_555 1_555
C30_4 C29_4 1_555 1_555
H18_4 C30_4 1_555 1_555
C31_4 C30_4 1_555 1_555
C32_4 C31_4 1_555 1_555
H19_2 C32_4 1_555 1_555
C33_4 C32_4 1_555 1_555
H20_2 C33_4 1_555 1_555
C34_4 C31_4 1_555 1_555
N1_4 C17_4 1_555 1_555
N4_4 C22_4 1_555 1_555
N11_2 C26_4 1_555 1_555
N6_4 C29_4 1_555 1_555
N7_4 C34_4 1_555 1_555
N9_2 C34_4 1_555 1_555
O1_4 Co4 1_555 1_555
O2_4 Co7_2 1_555 1_555
O5_4 Co7_2 1_555 1_555
O6_4 C9_4 1_555 1_555
O11_2 C16_4 1_555 1_555
O12_2 C16_4 1_555 1_555
O9_2 Co4 1_555 1_555
O10_2 Co7_2 1_555 1_555
C1_4 O1_4 1_555 1_555
C1_4 O2_4 1_555 1_555
C9_4 O5_4 1_555 1_555
C14_4 C15_4 1_555 1_555
C21_4 N1_4 1_555 1_555
C23_4 N4_4 1_555 1_555
C27_4 C28_4 1_555 1_555
C27_4 N11_2 1_555 1_555
C33_4 N6_4 1_555 1_555
C2_4 C3_4 1_555 1_555
C3_4 H1_4 1_555 1_555
C4_4 C3_4 1_555 1_555
H2_4 C4_4 1_555 1_555
C5_4 C4_4 1_555 1_555
C6_4 C5_4 1_555 1_555
H3_4 C6_4 1_555 1_555
C7_4 C2_4 1_555 1_555
H4_4 C7_4 1_555 1_555
C8_4 C5_4 1_555 1_555
H25_4 N3_4 1_555 1_555
O9_2 C8_4 1_555 1_555
O10_2 C8_4 1_555 1_555
C6_4 C7_4 1_555 1_555
N2_4 N3_4 1_555 1_555
H26_2 N8_2 1_555 1_555
N8_2 N9_3 1_555 1_555
C35_4 C36_4 1_555 1_555
C36_4 C37_4 1_555 1_555
C37_4 H21_4 1_555 1_555
C38_4 C37_4 1_555 1_555
H22_4 C38_4 1_555 1_555
C40_4 C36_4 1_555 1_555
H24_3 C40_4 1_555 1_555
H26_3 N8_3 1_555 1_555
N8_3 C35_4 1_555 1_555
H26_4 N8_4 1_555 1_555
N8_4 N9_4 1_555 1_555

#END
