
###############################################################################
#
# This file contains modified crystal structure data generated from the
# MOF subset of the Cambridge Structural Database (CSD) v543 
# hosted by the Cambridge Crystallographic Data Centre (CCDC).
#
# This work is licensed under the Creative Commons
# Attribution-NonCommercial-ShareAlike 4.0 International License.
# To view a copy of this license, visit
# http://creativecommons.org/licenses/by-nc-sa/4.0/
# or send a letter to
# Creative Commons, PO Box 1866, Mountain View, CA 94042, USA.
#
# CIF created using the CSD Python API on 29 September 2022
# The structure has been converted into the P1 space group
# The structure has a 3D framework
# The original CSD entry ROWVOQ is in the orthorhombic crystal system
# The framework has been calculated to contain at least 10.0% void space
# The void calculation uses a probe of radius 1.32A, grid spacing 0.4
#
###############################################################################

data_ROWVOQ
_chemical_formula_moiety         '(C160 H104 Co8 N40 O30)n'
_symmetry_cell_setting           triclinic
_symmetry_space_group_name_H-M   'P 1'
_symmetry_Int_Tables_number      1
_space_group_name_Hall           'P 1'
loop_
_symmetry_equiv_pos_site_id
_symmetry_equiv_pos_as_xyz
1 x,y,z
_cell_length_a                   29.144(6)
_cell_length_b                   10.411(2)
_cell_length_c                   14.792(3)
_cell_angle_alpha                90
_cell_angle_beta                 90
_cell_angle_gamma                90
_cell_volume                     4488.16
loop_
_atom_site_label
_atom_site_type_symbol
_atom_site_fract_x
_atom_site_fract_y
_atom_site_fract_z
C29 C 0.0177(4) 0.6185(11) 0.6839(13)
C30 C 0.0618(4) 0.5806(12) 0.6936(12)
H18 H 0.0689 0.4936 0.6899
C31 C 0.0969(4) 0.6692(13) 0.7091(12)
C32 C 0.0837(4) 0.7965(12) 0.7158(11)
H19 H 0.1053 0.8612 0.7238
C33 C 0.0367(4) 0.8248(12) 0.7100(11)
H20 H 0.0281 0.9098 0.7196
C34 C 0.1446(4) 0.6260(11) 0.7159(10)
C35 C 0.2168(4) 0.6053(12) 0.7175(11)
C36 C 0.2662(4) 0.6302(12) 0.7066(11)
C37 C 0.2979(4) 0.5332(12) 0.7256(11)
H21 H 0.2884 0.4524 0.7447
C38 C 0.3426(4) 0.5608(12) 0.7155(12)
H22 H 0.3635 0.4974 0.7312
C39 C 0.3285(4) 0.7634(11) 0.6692(12)
H23 H 0.3392 0.8444 0.6530
C40 C 0.2819(4) 0.7482(12) 0.6754(13)
H24 H 0.2617 0.8136 0.6596
N6 N 0.0040(3) 0.7430(8) 0.6924(9)
N7 N 0.1833(3) 0.6958(10) 0.7003(10)
N8 N 0.1555(3) 0.5057(10) 0.7427(9)
N9 N 0.2016(3) 0.4904(10) 0.7423(8)
N10 N 0.3597(3) 0.6740(9) 0.6841(10)
H26 H 0.1377 0.4386 0.7489
Co7 Co 0.43281(5) 0.71015(14) 0.6850(2)
C9 C 0.9291(4) 0.0055(10) 0.5538(10)
C10 C 0.9227(5) 0.1513(10) 0.5530(10)
C11 C 0.9128(4) 0.2163(12) 0.4749(10)
H5 H 0.9084 0.1697 0.4220
C12 C 0.9090(4) 0.3504(12) 0.4718(10)
H6 H 0.9029 0.3926 0.4176
C13 C 0.9143(4) 0.4183(9) 0.5513(10)
C14 C 0.9117(4) 0.5621(9) 0.5474(9)
C15 C 0.9236(4) 0.3547(12) 0.6305(10)
H7 H 0.9264 0.4014 0.6838
C16 C 0.9289(4) 0.2216(12) 0.6327(10)
H8 H 0.9364 0.1802 0.6864
H11 H 0.7599 0.0367 0.3657
H16 H 0.5448 0.0012 0.3734
N4 N 0.6778(3) 0.0044(13) 0.3605(7)
O7 O 0.8968(3) 0.6122(7) 0.4767(7)
O8 O 0.9233(3) 0.6206(8) 0.6183(7)
H25 H 0.6074 0.0284 0.3307
Co3 Co 0.90764(5) 0.78629(14) 0.4152(2)
Co6 Co 0.93281(5) 0.78985(14) 0.6850(2)
C1 C 0.9114(4) 0.8004(15) 0.2443(11)
C2 C 0.9145(5) 0.7983(14) 0.1446(11)
C3 C 0.8819(5) 0.7428(15) 0.0926(10)
H1 H 0.8563 0.7051 0.1192
C7 C 0.9556(5) 0.8539(15) 0.0092(10)
C8 C 0.9525(5) 0.8509(14) 0.1032(10)
H4 H 0.9762 0.8844 0.1382
C17 C 0.8061(4) 0.7250(14) 0.4219(14)
H9 H 0.8169 0.6435 0.4364
C18 C 0.7587(4) 0.7420(12) 0.4124(13)
H10 H 0.7392 0.6717 0.4185
C19 C 0.7407(4) 0.8587(14) 0.3946(13)
C20 C 0.7703(5) 0.9552(14) 0.3813(12)
C21 C 0.8190(4) 0.9295(13) 0.3917(14)
H12 H 0.8395 0.9971 0.3839
C22 C 0.6925(4) 0.8874(13) 0.3816(11)
C23 C 0.6198(4) 0.8716(13) 0.3854(10)
C24 C 0.5721(4) 0.8267(13) 0.3960(12)
C25 C 0.5598(5) 0.7050(14) 0.4061(14)
H13 H 0.5820 0.6411 0.4092
C26 C 0.5134(4) 0.6729(14) 0.4123(13)
H14 H 0.5054 0.5866 0.4169
C27 C 0.4927(4) 0.8773(13) 0.3960(11)
H15 H 0.4697 0.9390 0.3909
C28 C 0.5378(4) 0.9160(13) 0.3863(10)
H17 H 0.9957 0.5567 0.6707
N1 N 0.8357(3) 0.8159(9) 0.4117(10)
N2 N 0.6574(4) 0.8003(10) 0.4040(10)
N3 N 0.6308(3) 0.9837(10) 0.3535(6)
N5 N 0.4807(3) 0.7588(10) 0.4118(10)
O1 O 0.8987(3) 0.6969(8) 0.2833(7)
O2 O 0.9209(3) 0.8944(9) 0.2908(7)
O5 O 0.9151(3) 0.9491(8) 0.4847(8)
O6 O 0.9450(2) 0.9559(7) 0.6230(7)
Co4 Co 0.40764(5) 0.71371(14) 0.4152(2)
N11 N 0.9807(3) 0.7412(10) 0.4118(10)
N12 N 0.8597(3) 0.8260(9) 0.6841(10)
O9 O 0.9189(3) 0.6929(8) 0.8124(6)
O10 O 0.9422(3) 0.8919(8) 0.8174(7)
C4 C 0.8870(5) 0.7427(15) 0.9981(11)
H2 H 0.8641 0.7061 0.9627
C5 C 0.9240(4) 0.7937(13) 0.9574(11)
C6 C 0.9289(4) 0.7929(14) 0.8570(10)
H3 H 0.9797 0.8977 0.9819
C1_2 C 0.4114(4) 0.6996(15) 0.2443(11)
C2_2 C 0.4145(5) 0.7017(14) 0.1446(11)
C3_2 C 0.3819(5) 0.7572(15) 0.0926(10)
H1_2 H 0.3563 0.7949 0.1192
C7_2 C 0.4556(5) 0.6461(15) 0.0092(10)
C8_2 C 0.4525(5) 0.6491(14) 0.1032(10)
H4_2 H 0.4762 0.6156 0.1382
C9_2 C 0.4291(4) 0.4945(10) 0.5538(10)
C10_2 C 0.4227(5) 0.3487(10) 0.5530(10)
C11_2 C 0.4128(4) 0.2837(12) 0.4749(10)
H5_2 H 0.4084 0.3303 0.4220
C12_2 C 0.4090(4) 0.1496(12) 0.4718(10)
H6_2 H 0.4029 0.1074 0.4176
C13_2 C 0.4143(4) 0.0817(9) 0.5513(10)
C15_2 C 0.4236(4) 0.1453(12) 0.6305(10)
H7_2 H 0.4264 0.0986 0.6838
C16_2 C 0.4289(4) 0.2784(12) 0.6327(10)
H8_2 H 0.4364 0.3198 0.6864
C17_2 C 0.3061(4) 0.7750(14) 0.4219(14)
H9_2 H 0.3169 0.8565 0.4364
C18_2 C 0.2587(4) 0.7580(12) 0.4124(13)
H10_2 H 0.2392 0.8283 0.4185
C19_2 C 0.2407(4) 0.6413(14) 0.3946(13)
C20_2 C 0.2703(5) 0.5448(14) 0.3813(12)
H11_2 H 0.2599 0.4633 0.3657
C21_2 C 0.3190(4) 0.5705(13) 0.3917(14)
H12_2 H 0.3395 0.5029 0.3839
C22_2 C 0.1925(4) 0.6126(13) 0.3816(11)
C23_2 C 0.1198(4) 0.6284(13) 0.3854(10)
C24_2 C 0.0721(4) 0.6733(13) 0.3960(12)
C25_2 C 0.0598(5) 0.7950(14) 0.4061(14)
H13_2 H 0.0820 0.8589 0.4092
C26_2 C 0.0134(4) 0.8271(14) 0.4123(13)
H14_2 H 0.0054 0.9134 0.4169
C28_2 C 0.0378(4) 0.5840(13) 0.3863(10)
H16_2 H 0.0448 0.4988 0.3734
C29_2 C 0.5177(4) 0.8815(11) 0.6839(13)
H17_2 H 0.4957 0.9433 0.6707
C30_2 C 0.5618(4) 0.9194(12) 0.6936(12)
C31_2 C 0.5969(4) 0.8308(13) 0.7091(12)
C32_2 C 0.5837(4) 0.7035(12) 0.7158(11)
H19_2 H 0.6053 0.6388 0.7238
C33_2 C 0.5367(4) 0.6752(12) 0.7100(11)
H20_2 H 0.5281 0.5902 0.7196
C34_2 C 0.6446(4) 0.8740(11) 0.7159(10)
C35_2 C 0.7168(4) 0.8947(12) 0.7175(11)
C36_2 C 0.7662(4) 0.8698(12) 0.7066(11)
C37_2 C 0.7979(4) 0.9668(12) 0.7256(11)
C38_2 C 0.8426(4) 0.9392(12) 0.7155(12)
C39_2 C 0.8285(4) 0.7366(11) 0.6692(12)
H23_2 H 0.8392 0.6556 0.6530
C40_2 C 0.7819(4) 0.7518(12) 0.6754(13)
H24_2 H 0.7617 0.6864 0.6596
N1_2 N 0.3357(3) 0.6841(9) 0.4117(10)
N2_2 N 0.1574(4) 0.6997(10) 0.4040(10)
N3_2 N 0.1308(3) 0.5163(10) 0.3535(6)
N4_2 N 0.1778(3) 0.4956(13) 0.3605(7)
N6_2 N 0.5040(3) 0.7570(8) 0.6924(9)
N7_2 N 0.6833(3) 0.8042(10) 0.7003(10)
N8_2 N 0.6555(3) 0.9943(10) 0.7427(9)
O1_2 O 0.3987(3) 0.8031(8) 0.2833(7)
O2_2 O 0.4209(3) 0.6056(9) 0.2908(7)
O5_2 O 0.4151(3) 0.5509(8) 0.4847(8)
O6_2 O 0.4450(2) 0.5441(7) 0.6230(7)
H25_2 H 0.1074 0.4716 0.3307
O9_2 O 0.4189(3) 0.8071(8) 0.8124(6)
O10_2 O 0.4422(3) 0.6081(8) 0.8174(7)
O11 O 0.3968(3) 0.8878(7) 0.4767(7)
O12 O 0.4233(3) 0.8794(8) 0.6183(7)
C4_2 C 0.3870(5) 0.7573(15) 0.9981(11)
H2_2 H 0.3641 0.7939 0.9627
C5_2 C 0.4240(4) 0.7063(13) 0.9574(11)
C6_2 C 0.4289(4) 0.7071(14) 0.8570(10)
H3_2 H 0.4797 0.6023 0.9819
C14_2 C 0.4117(4) 0.9379(9) 0.5474(9)
C27_2 C 0.9927(4) 0.6227(13) 0.3960(11)
H15_2 H 0.9697 0.5610 0.3909
Co2 Co 0.06719(5) 0.21015(14) 0.1850(2)
H17_3 H 0.0043 0.4433 0.1707
O6_3 O 0.0550(2) 0.0441(7) 0.1230(7)
N12_2 N 0.1403(3) 0.1740(9) 0.1841(10)
O9_3 O 0.0811(3) 0.3071(8) 0.3124(6)
O10_3 O 0.0578(3) 0.1081(8) 0.3174(7)
O12_2 O 0.0767(3) 0.3794(8) 0.1183(7)
Co1 Co 0.09236(5) 0.21371(14) 0.9152(2)
C1_3 C 0.0886(4) 0.1996(15) 0.7443(11)
C2_3 C 0.0855(5) 0.2017(14) 0.6446(11)
C3_3 C 0.1181(5) 0.2572(15) 0.5926(10)
H1_3 H 0.1437 0.2949 0.6192
C4_3 C 0.1130(5) 0.2573(15) 0.4981(11)
H2_3 H 0.1359 0.2939 0.4627
C5_3 C 0.0760(4) 0.2063(13) 0.4574(11)
C6_3 C 0.0711(4) 0.2071(14) 0.3570(10)
C7_3 C 0.0444(5) 0.1461(15) 0.5092(10)
H3_3 H 0.0203 0.1023 0.4819
C8_3 C 0.0475(5) 0.1491(14) 0.6032(10)
H4_3 H 0.0238 0.1156 0.6382
C17_3 C 0.1939(4) 0.2750(14) 0.9219(14)
H9_3 H 0.1831 0.3565 0.9364
C18_3 C 0.2413(4) 0.2580(12) 0.9124(13)
H10_3 H 0.2608 0.3283 0.9185
C19_3 C 0.2593(4) 0.1413(14) 0.8946(13)
C20_3 C 0.2297(5) 0.0448(14) 0.8813(12)
C21_3 C 0.1810(4) 0.0705(13) 0.8917(14)
H12_3 H 0.1605 0.0029 0.8839
C22_3 C 0.3075(4) 0.1126(13) 0.8816(11)
C23_3 C 0.3802(4) 0.1284(13) 0.8854(10)
C24_3 C 0.4279(4) 0.1733(13) 0.8960(12)
C25_3 C 0.4402(5) 0.2950(14) 0.9061(14)
H13_3 H 0.4180 0.3589 0.9092
C26_3 C 0.4866(4) 0.3271(14) 0.9123(13)
H14_3 H 0.4946 0.4134 0.9169
C27_3 C 0.5073(4) 0.1227(13) 0.8960(11)
H15_3 H 0.5303 0.0610 0.8909
C28_3 C 0.4622(4) 0.0840(13) 0.8863(10)
N1_3 N 0.1643(3) 0.1841(9) 0.9117(10)
N2_3 N 0.3426(4) 0.1997(10) 0.9040(10)
N3_3 N 0.3692(3) 0.0163(10) 0.8535(6)
N5_2 N 0.5193(3) 0.2412(10) 0.9118(10)
O1_3 O 0.1013(3) 0.3031(8) 0.7833(7)
O2_3 O 0.0791(3) 0.1056(9) 0.7908(7)
O5_3 O 0.0849(3) 0.0509(8) 0.9847(8)
Co4_2 Co 0.59236(5) 0.28629(14) 0.9152(2)
N11_2 N 0.0193(3) 0.2588(10) 0.9118(10)
O11_2 O 0.1032(3) 0.3878(7) 0.9767(7)
C9_3 C 0.0709(4) 0.9945(10) 0.0538(10)
C10_3 C 0.0773(5) 0.8487(10) 0.0530(10)
C13_3 C 0.0857(4) 0.5817(9) 0.0513(10)
C14_3 C 0.0883(4) 0.4379(9) 0.0474(9)
C15_3 C 0.0764(4) 0.6453(12) 0.1305(10)
H7_3 H 0.0736 0.5986 0.1838
C16_3 C 0.0711(4) 0.7784(12) 0.1327(10)
H8_3 H 0.0636 0.8198 0.1864
C11_3 C 0.0872(4) 0.7837(12) 0.9749(10)
H5_3 H 0.0916 0.8303 0.9220
C12_3 C 0.0910(4) 0.6496(12) 0.9718(10)
H6_3 H 0.0971 0.6074 0.9176
H11_3 H 0.2401 0.9633 0.8657
H16_3 H 0.4552 0.9988 0.8734
N4_3 N 0.3222(3) 0.9956(13) 0.8605(7)
H25_3 H 0.3926 0.9716 0.8307
C29_3 C 0.9823(4) 0.3815(11) 0.1839(13)
C30_3 C 0.9382(4) 0.4194(12) 0.1936(12)
H18_2 H 0.9311 0.5064 0.1899
C31_3 C 0.9031(4) 0.3308(13) 0.2091(12)
C32_3 C 0.9163(4) 0.2035(12) 0.2158(11)
H19_3 H 0.8947 0.1388 0.2238
C33_3 C 0.9633(4) 0.1752(12) 0.2100(11)
H20_3 H 0.9719 0.0902 0.2196
C34_3 C 0.8554(4) 0.3740(11) 0.2159(10)
C35_3 C 0.7832(4) 0.3947(12) 0.2175(11)
C36_3 C 0.7338(4) 0.3698(12) 0.2066(11)
C37_3 C 0.7021(4) 0.4668(12) 0.2256(11)
H21_2 H 0.7116 0.5476 0.2447
C38_3 C 0.6574(4) 0.4392(12) 0.2155(12)
H22_2 H 0.6365 0.5026 0.2312
C39_3 C 0.6715(4) 0.2366(11) 0.1692(12)
H23_3 H 0.6608 0.1556 0.1530
C40_3 C 0.7181(4) 0.2518(12) 0.1754(13)
H24_3 H 0.7383 0.1864 0.1596
N6_3 N 0.9960(3) 0.2570(8) 0.1924(9)
N7_3 N 0.8167(3) 0.3042(10) 0.2003(10)
N8_3 N 0.8445(3) 0.4943(10) 0.2427(9)
N9_2 N 0.7984(3) 0.5096(10) 0.2423(8)
N10_2 N 0.6403(3) 0.3260(9) 0.1841(10)
H26_2 H 0.8623 0.5614 0.2489
Co7_2 Co 0.56719(5) 0.28985(14) 0.1850(2)
C27_4 C 0.0073(4) 0.3773(13) 0.8960(11)
H15_4 H 0.0303 0.4390 0.8909
C14_4 C 0.5883(4) 0.0621(9) 0.0474(9)
O8_2 O 0.5767(3) 0.1206(8) 0.1183(7)
O7_2 O 0.6032(3) 0.1122(7) 0.9767(7)
C9_4 C 0.5709(4) 0.5055(10) 0.0538(10)
C10_4 C 0.5773(5) 0.6513(10) 0.0530(10)
C13_4 C 0.5857(4) 0.9183(9) 0.0513(10)
C15_4 C 0.5764(4) 0.8547(12) 0.1305(10)
H7_4 H 0.5736 0.9014 0.1838
C16_4 C 0.5711(4) 0.7216(12) 0.1327(10)
H8_4 H 0.5636 0.6802 0.1864
C29_4 C 0.4823(4) 0.1185(11) 0.1839(13)
H17_4 H 0.5043 0.0567 0.1707
C30_4 C 0.4382(4) 0.0806(12) 0.1936(12)
C31_4 C 0.4031(4) 0.1692(13) 0.2091(12)
C32_4 C 0.4163(4) 0.2965(12) 0.2158(11)
H19_4 H 0.3947 0.3612 0.2238
C33_4 C 0.4633(4) 0.3248(12) 0.2100(11)
H20_4 H 0.4719 0.4098 0.2196
C34_4 C 0.3554(4) 0.1260(11) 0.2159(10)
C35_4 C 0.2832(4) 0.1053(12) 0.2175(11)
C36_4 C 0.2338(4) 0.1302(12) 0.2066(11)
C37_4 C 0.2021(4) 0.0332(12) 0.2256(11)
C38_4 C 0.1574(4) 0.0608(12) 0.2155(12)
C39_4 C 0.1715(4) 0.2634(11) 0.1692(12)
H23_4 H 0.1608 0.3444 0.1530
C40_4 C 0.2181(4) 0.2482(12) 0.1754(13)
H24_4 H 0.2383 0.3136 0.1596
N6_4 N 0.4960(3) 0.2430(8) 0.1924(9)
N7_4 N 0.3167(3) 0.1958(10) 0.2003(10)
N8_4 N 0.3445(3) 0.0057(10) 0.2427(9)
O6_4 O 0.5550(2) 0.4559(7) 0.1230(7)
O9_4 O 0.5811(3) 0.1929(8) 0.3124(6)
O10_4 O 0.5578(3) 0.3919(8) 0.3174(7)
C1_4 C 0.5886(4) 0.3004(15) 0.7443(11)
C2_4 C 0.5855(5) 0.2983(14) 0.6446(11)
C3_4 C 0.6181(5) 0.2428(15) 0.5926(10)
H1_4 H 0.6437 0.2051 0.6192
C4_4 C 0.6130(5) 0.2427(15) 0.4981(11)
H2_4 H 0.6359 0.2061 0.4627
C5_4 C 0.5760(4) 0.2937(13) 0.4574(11)
C6_4 C 0.5711(4) 0.2929(14) 0.3570(10)
C7_4 C 0.5444(5) 0.3539(15) 0.5092(10)
H3_4 H 0.5203 0.3977 0.4819
C8_4 C 0.5475(5) 0.3509(14) 0.6032(10)
H4_4 H 0.5238 0.3844 0.6382
C11_4 C 0.5872(4) 0.7163(12) 0.9749(10)
H5_4 H 0.5916 0.6697 0.9220
C12_4 C 0.5910(4) 0.8504(12) 0.9718(10)
H6_4 H 0.5971 0.8926 0.9176
C17_4 C 0.6939(4) 0.2250(14) 0.9219(14)
H9_4 H 0.6831 0.1435 0.9364
C18_4 C 0.7413(4) 0.2420(12) 0.9124(13)
H10_4 H 0.7608 0.1717 0.9185
C19_4 C 0.7593(4) 0.3587(14) 0.8946(13)
C20_4 C 0.7297(5) 0.4552(14) 0.8813(12)
H11_4 H 0.7401 0.5367 0.8657
C21_4 C 0.6810(4) 0.4295(13) 0.8917(14)
H12_4 H 0.6605 0.4971 0.8839
C22_4 C 0.8075(4) 0.3874(13) 0.8816(11)
C23_4 C 0.8802(4) 0.3716(13) 0.8854(10)
C24_4 C 0.9279(4) 0.3267(13) 0.8960(12)
C25_4 C 0.9402(5) 0.2050(14) 0.9061(14)
H13_4 H 0.9180 0.1411 0.9092
C26_4 C 0.9866(4) 0.1729(14) 0.9123(13)
H14_4 H 0.9946 0.0866 0.9169
C28_4 C 0.9622(4) 0.4160(13) 0.8863(10)
H16_4 H 0.9552 0.5012 0.8734
N1_4 N 0.6643(3) 0.3159(9) 0.9117(10)
N2_4 N 0.8426(4) 0.3003(10) 0.9040(10)
N3_4 N 0.8692(3) 0.4837(10) 0.8535(6)
N4_4 N 0.8222(3) 0.5044(13) 0.8605(7)
O1_4 O 0.6013(3) 0.1969(8) 0.7833(7)
O2_4 O 0.5791(3) 0.3944(9) 0.7908(7)
O5_4 O 0.5849(3) 0.4491(8) 0.9847(8)
H25_4 H 0.8926 0.5284 0.8307
H18_3 H 0.5689 0.0064 0.6899
H21_3 H 0.7884 0.0476 0.7447
H22_3 H 0.8635 0.0026 0.7312
N9_3 N 0.7016(3) 0.0096(10) 0.7423(8)
H26_3 H 0.6377 0.0614 0.7489
H18_4 H 0.4311 0.9936 0.1899
H21_4 H 0.2116 0.9524 0.2447
H22_4 H 0.1365 0.9974 0.2312
N9_4 N 0.2984(3) 0.9904(10) 0.2423(8)
H26_4 H 0.3623 0.9386 0.2489
loop_
_geom_bond_atom_site_label_1
_geom_bond_atom_site_label_2
_geom_bond_site_symmetry_1
_geom_bond_site_symmetry_2
C30 C29 1_555 1_555
H18 C30 1_555 1_555
C31 C30 1_555 1_555
C32 C31 1_555 1_555
H19 C32 1_555 1_555
C33 C32 1_555 1_555
H20 C33 1_555 1_555
C34 C31 1_555 1_555
C35 C36 1_555 1_555
C36 C37 1_555 1_555
C37 H21 1_555 1_555
C38 C37 1_555 1_555
H22 C38 1_555 1_555
C39 H23 1_555 1_555
C40 C36 1_555 1_555
H24 C40 1_555 1_555
N6 C29 1_555 1_555
N7 C34 1_555 1_555
N8 C34 1_555 1_555
N9 C35 1_555 1_555
N10 C38 1_555 1_555
H26 N8 1_555 1_555
Co7 N10 1_555 1_555
C33 N6 1_555 1_555
C35 N7 1_555 1_555
C39 C40 1_555 1_555
C39 N10 1_555 1_555
N8 N9 1_555 1_555
C9 C10 1_555 1_555
C10 C11 1_555 1_555
C11 H5 1_555 1_555
C12 C11 1_555 1_555
H6 C12 1_555 1_555
C13 C12 1_555 1_555
C14 C13 1_555 1_555
C15 C13 1_555 1_555
H7 C15 1_555 1_555
C16 C10 1_555 1_555
H8 C16 1_555 1_555
O7 C14 1_555 1_555
O8 C14 1_555 1_555
Co3 O7 1_555 1_555
Co6 O8 1_555 1_555
C15 C16 1_555 1_555
Co3 N1 1_555 1_555
C1 C2 1_555 1_555
C2 C3 1_555 1_555
C3 H1 1_555 1_555
C8 C2 1_555 1_555
H4 C8 1_555 1_555
C17 H9 1_555 1_555
C18 C17 1_555 1_555
H10 C18 1_555 1_555
C19 C18 1_555 1_555
C20 C19 1_555 1_555
C21 C20 1_555 1_555
H12 C21 1_555 1_555
C22 C19 1_555 1_555
C23 C24 1_555 1_555
C24 C25 1_555 1_555
C25 H13 1_555 1_555
C26 C25 1_555 1_555
H14 C26 1_555 1_555
C27 H15 1_555 1_555
C28 C24 1_555 1_555
N1 C17 1_555 1_555
N2 C22 1_555 1_555
N3 C23 1_555 1_555
N5 C26 1_555 1_555
O1 Co3 1_555 1_555
O2 Co3 1_555 1_555
O5 Co3 1_555 1_555
O6 Co6 1_555 1_555
Co4 N5 1_555 1_555
N11 Co3 1_555 1_555
N12 Co6 1_555 1_555
O9 Co6 1_555 1_555
O10 Co6 1_555 1_555
C1 O1 1_555 1_555
C1 O2 1_555 1_555
C7 C8 1_555 1_555
C21 N1 1_555 1_555
C23 N2 1_555 1_555
C27 C28 1_555 1_555
C27 N5 1_555 1_555
H2 C4 1_555 1_555
C5 C4 1_555 1_555
C6 C5 1_555 1_555
O9 C6 1_555 1_555
O10 C6 1_555 1_555
Co4 N1_2 1_555 1_555
Co7 N6_2 1_555 1_555
C1_2 C2_2 1_555 1_555
C2_2 C3_2 1_555 1_555
C3_2 H1_2 1_555 1_555
C8_2 C2_2 1_555 1_555
H4_2 C8_2 1_555 1_555
C9_2 C10_2 1_555 1_555
C10_2 C11_2 1_555 1_555
C11_2 H5_2 1_555 1_555
C12_2 C11_2 1_555 1_555
H6_2 C12_2 1_555 1_555
C13_2 C12_2 1_555 1_555
C15_2 C13_2 1_555 1_555
H7_2 C15_2 1_555 1_555
C16_2 C10_2 1_555 1_555
H8_2 C16_2 1_555 1_555
C17_2 H9_2 1_555 1_555
C18_2 C17_2 1_555 1_555
H10_2 C18_2 1_555 1_555
C19_2 C18_2 1_555 1_555
C20_2 C19_2 1_555 1_555
H11_2 C20_2 1_555 1_555
C21_2 C20_2 1_555 1_555
H12_2 C21_2 1_555 1_555
C22_2 C19_2 1_555 1_555
C23_2 C24_2 1_555 1_555
C24_2 C25_2 1_555 1_555
C25_2 H13_2 1_555 1_555
C26_2 C25_2 1_555 1_555
H14_2 C26_2 1_555 1_555
C28_2 C24_2 1_555 1_555
H16_2 C28_2 1_555 1_555
C29_2 H17_2 1_555 1_555
C30_2 C29_2 1_555 1_555
C31_2 C30_2 1_555 1_555
C32_2 C31_2 1_555 1_555
H19_2 C32_2 1_555 1_555
C33_2 C32_2 1_555 1_555
H20_2 C33_2 1_555 1_555
C34_2 C31_2 1_555 1_555
C35_2 C36_2 1_555 1_555
C36_2 C37_2 1_555 1_555
C38_2 C37_2 1_555 1_555
C39_2 H23_2 1_555 1_555
C40_2 C36_2 1_555 1_555
H24_2 C40_2 1_555 1_555
N1_2 C17_2 1_555 1_555
N2_2 C22_2 1_555 1_555
N3_2 C23_2 1_555 1_555
N4_2 C22_2 1_555 1_555
N6_2 C29_2 1_555 1_555
N7_2 C34_2 1_555 1_555
N8_2 C34_2 1_555 1_555
N12 C38_2 1_555 1_555
O1_2 Co4 1_555 1_555
O2_2 Co4 1_555 1_555
O5_2 Co4 1_555 1_555
O6_2 Co7 1_555 1_555
H25_2 N3_2 1_555 1_555
O9_2 Co7 1_555 1_555
O10_2 Co7 1_555 1_555
O11 Co4 1_555 1_555
O12 Co7 1_555 1_555
C1_2 O1_2 1_555 1_555
C1_2 O2_2 1_555 1_555
C7_2 C8_2 1_555 1_555
C9_2 O5_2 1_555 1_555
C9_2 O6_2 1_555 1_555
C15_2 C16_2 1_555 1_555
C21_2 N1_2 1_555 1_555
C23_2 N2_2 1_555 1_555
C33_2 N6_2 1_555 1_555
C35_2 N7_2 1_555 1_555
C39_2 C40_2 1_555 1_555
C39_2 N12 1_555 1_555
N3_2 N4_2 1_555 1_555
H2_2 C4_2 1_555 1_555
C5_2 C4_2 1_555 1_555
C6_2 C5_2 1_555 1_555
O9_2 C6_2 1_555 1_555
O10_2 C6_2 1_555 1_555
O11 C14_2 1_555 1_555
O12 C14_2 1_555 1_555
C27_2 H15_2 1_555 1_555
C27_2 N11 1_555 1_555
O6_3 Co2 1_555 1_555
N12_2 Co2 1_555 1_555
O9_3 Co2 1_555 1_555
O10_3 Co2 1_555 1_555
O12_2 Co2 1_555 1_555
Co1 N1_3 1_555 1_555
C1_3 C2_3 1_555 1_555
C2_3 C3_3 1_555 1_555
C3_3 H1_3 1_555 1_555
C4_3 C3_3 1_555 1_555
H2_3 C4_3 1_555 1_555
C5_3 C4_3 1_555 1_555
C6_3 C5_3 1_555 1_555
C7_3 C5_3 1_555 1_555
H3_3 C7_3 1_555 1_555
C8_3 C2_3 1_555 1_555
H4_3 C8_3 1_555 1_555
C17_3 H9_3 1_555 1_555
C18_3 C17_3 1_555 1_555
H10_3 C18_3 1_555 1_555
C19_3 C18_3 1_555 1_555
C20_3 C19_3 1_555 1_555
C21_3 C20_3 1_555 1_555
H12_3 C21_3 1_555 1_555
C22_3 C19_3 1_555 1_555
C23_3 C24_3 1_555 1_555
C24_3 C25_3 1_555 1_555
C25_3 H13_3 1_555 1_555
C26_3 C25_3 1_555 1_555
H14_3 C26_3 1_555 1_555
C27_3 H15_3 1_555 1_555
C28_3 C24_3 1_555 1_555
N1_3 C17_3 1_555 1_555
N2_3 C22_3 1_555 1_555
N3_3 C23_3 1_555 1_555
N5_2 C26_3 1_555 1_555
O1_3 Co1 1_555 1_555
O2_3 Co1 1_555 1_555
O9_3 C6_3 1_555 1_555
O10_3 C6_3 1_555 1_555
O5_3 Co1 1_555 1_555
Co4_2 N5_2 1_555 1_555
N11_2 Co1 1_555 1_555
O11_2 Co1 1_555 1_555
C1_3 O1_3 1_555 1_555
C1_3 O2_3 1_555 1_555
C7_3 C8_3 1_555 1_555
C21_3 N1_3 1_555 1_555
C23_3 N2_3 1_555 1_555
C27_3 C28_3 1_555 1_555
C27_3 N5_2 1_555 1_555
C9_3 C10_3 1_555 1_555
C14_3 C13_3 1_555 1_555
C15_3 C13_3 1_555 1_555
H7_3 C15_3 1_555 1_555
C16_3 C10_3 1_555 1_555
H8_3 C16_3 1_555 1_555
O12_2 C14_3 1_555 1_555
C15_3 C16_3 1_555 1_555
C11_3 H5_3 1_555 1_555
C12_3 C11_3 1_555 1_555
H6_3 C12_3 1_555 1_555
C30_3 C29_3 1_555 1_555
H18_2 C30_3 1_555 1_555
C31_3 C30_3 1_555 1_555
C32_3 C31_3 1_555 1_555
H19_3 C32_3 1_555 1_555
C33_3 C32_3 1_555 1_555
H20_3 C33_3 1_555 1_555
C34_3 C31_3 1_555 1_555
C35_3 C36_3 1_555 1_555
C36_3 C37_3 1_555 1_555
C37_3 H21_2 1_555 1_555
C38_3 C37_3 1_555 1_555
H22_2 C38_3 1_555 1_555
C39_3 H23_3 1_555 1_555
C40_3 C36_3 1_555 1_555
H24_3 C40_3 1_555 1_555
N6_3 C29_3 1_555 1_555
N7_3 C34_3 1_555 1_555
N8_3 C34_3 1_555 1_555
N9_2 C35_3 1_555 1_555
N10_2 C38_3 1_555 1_555
H26_2 N8_3 1_555 1_555
Co7_2 N10_2 1_555 1_555
C33_3 N6_3 1_555 1_555
C35_3 N7_3 1_555 1_555
C39_3 C40_3 1_555 1_555
C39_3 N10_2 1_555 1_555
N8_3 N9_2 1_555 1_555
C27_4 H15_4 1_555 1_555
C27_4 N11_2 1_555 1_555
O8_2 C14_4 1_555 1_555
Co7_2 O8_2 1_555 1_555
Co4_2 O7_2 1_555 1_555
Co7_2 N6_4 1_555 1_555
C9_4 C10_4 1_555 1_555
C15_4 C13_4 1_555 1_555
H7_4 C15_4 1_555 1_555
C16_4 C10_4 1_555 1_555
H8_4 C16_4 1_555 1_555
C29_4 H17_4 1_555 1_555
C30_4 C29_4 1_555 1_555
C31_4 C30_4 1_555 1_555
C32_4 C31_4 1_555 1_555
H19_4 C32_4 1_555 1_555
C33_4 C32_4 1_555 1_555
H20_4 C33_4 1_555 1_555
C34_4 C31_4 1_555 1_555
C35_4 C36_4 1_555 1_555
C36_4 C37_4 1_555 1_555
C38_4 C37_4 1_555 1_555
C39_4 H23_4 1_555 1_555
C40_4 C36_4 1_555 1_555
H24_4 C40_4 1_555 1_555
N6_4 C29_4 1_555 1_555
N7_4 C34_4 1_555 1_555
N8_4 C34_4 1_555 1_555
N12_2 C38_4 1_555 1_555
O6_4 Co7_2 1_555 1_555
O9_4 Co7_2 1_555 1_555
O10_4 Co7_2 1_555 1_555
C9_4 O6_4 1_555 1_555
C15_4 C16_4 1_555 1_555
C33_4 N6_4 1_555 1_555
C35_4 N7_4 1_555 1_555
C39_4 C40_4 1_555 1_555
C39_4 N12_2 1_555 1_555
Co4_2 N1_4 1_555 1_555
C1_4 C2_4 1_555 1_555
C2_4 C3_4 1_555 1_555
C3_4 H1_4 1_555 1_555
C4_4 C3_4 1_555 1_555
H2_4 C4_4 1_555 1_555
C5_4 C4_4 1_555 1_555
C6_4 C5_4 1_555 1_555
C7_4 C5_4 1_555 1_555
H3_4 C7_4 1_555 1_555
C8_4 C2_4 1_555 1_555
H4_4 C8_4 1_555 1_555
C11_4 H5_4 1_555 1_555
C12_4 C11_4 1_555 1_555
H6_4 C12_4 1_555 1_555
C17_4 H9_4 1_555 1_555
C18_4 C17_4 1_555 1_555
H10_4 C18_4 1_555 1_555
C19_4 C18_4 1_555 1_555
C20_4 C19_4 1_555 1_555
H11_4 C20_4 1_555 1_555
C21_4 C20_4 1_555 1_555
H12_4 C21_4 1_555 1_555
C22_4 C19_4 1_555 1_555
C23_4 C24_4 1_555 1_555
C24_4 C25_4 1_555 1_555
C25_4 H13_4 1_555 1_555
C26_4 C25_4 1_555 1_555
H14_4 C26_4 1_555 1_555
C28_4 C24_4 1_555 1_555
H16_4 C28_4 1_555 1_555
N1_4 C17_4 1_555 1_555
N2_4 C22_4 1_555 1_555
N3_4 C23_4 1_555 1_555
N4_4 C22_4 1_555 1_555
O1_4 Co4_2 1_555 1_555
O2_4 Co4_2 1_555 1_555
O9_4 C6_4 1_555 1_555
O10_4 C6_4 1_555 1_555
O5_4 Co4_2 1_555 1_555
H25_4 N3_4 1_555 1_555
C1_4 O1_4 1_555 1_555
C1_4 O2_4 1_555 1_555
C7_4 C8_4 1_555 1_555
C21_4 N1_4 1_555 1_555
C23_4 N2_4 1_555 1_555
N3_4 N4_4 1_555 1_555

#END
