
###############################################################################
#
# This file contains modified crystal structure data generated from the
# MOF subset of the Cambridge Structural Database (CSD) v543 
# hosted by the Cambridge Crystallographic Data Centre (CCDC).
#
# This work is licensed under the Creative Commons
# Attribution-NonCommercial-ShareAlike 4.0 International License.
# To view a copy of this license, visit
# http://creativecommons.org/licenses/by-nc-sa/4.0/
# or send a letter to
# Creative Commons, PO Box 1866, Mountain View, CA 94042, USA.
#
# CIF created using the CSD Python API on 29 September 2022
# The structure has been converted into the P1 space group
# The structure has a 3D framework
# The original CSD entry ROYDOB is in the orthorhombic crystal system
# The framework has been calculated to contain at least 10.0% void space
# The void calculation uses a probe of radius 1.32A, grid spacing 0.4
#
###############################################################################

data_ROYDOB
_chemical_formula_moiety         '(C384 H224 Co11 N48 O32)n'
_symmetry_cell_setting           triclinic
_symmetry_space_group_name_H-M   'P 1'
_symmetry_Int_Tables_number      1
_space_group_name_Hall           'P 1'
loop_
_symmetry_equiv_pos_site_id
_symmetry_equiv_pos_as_xyz
1 x,y,z
_cell_length_a                   51.7838(17)
_cell_length_b                   28.8494(13)
_cell_length_c                   6.2810(2)
_cell_angle_alpha                90
_cell_angle_beta                 90
_cell_angle_gamma                90
_cell_volume                     9383.38
loop_
_atom_site_label
_atom_site_type_symbol
_atom_site_fract_x
_atom_site_fract_y
_atom_site_fract_z
O1 O 0.48206(7) 0.45810(13) 0.0749(7)
O2 O 0.47212(8) 0.42866(16) 0.3897(7)
C3 C 0.45065(9) 0.39803(16) 0.0852(9)
C10 C 0.46944(9) 0.43011(17) 0.1946(10)
C13 C 0.42980(10) 0.38138(19) 0.2006(9)
H6 H 0.4279 0.3896 0.3428
C14 C 0.41182(10) 0.3526(2) 0.1057(9)
H7 H 0.3978 0.3420 0.1843
C20 C 0.31416(11) 0.3098(2) 0.0102(11)
H11 H 0.3264 0.3196 0.1092
C22 C 0.28829(10) 0.3108(2) 0.0587(11)
H13 H 0.2829 0.3212 0.1917
O3 O 0.01794(7) 0.04190(13) 0.0749(7)
O4 O 0.02788(8) 0.07134(16) 0.3897(7)
C27 C 0.04935(9) 0.10197(16) 0.0852(9)
C34 C 0.03056(9) 0.06989(17) 0.1946(10)
C37 C 0.07020(10) 0.11862(19) 0.2006(9)
H20 H 0.0721 0.1104 0.3428
C38 C 0.08818(10) 0.1474(2) 0.1057(9)
H21 H 0.1022 0.1580 0.1843
C44 C 0.18584(11) 0.1902(2) 0.0102(11)
H25 H 0.1736 0.1804 0.1092
C46 C 0.21171(10) 0.1892(2) 0.0587(11)
H27 H 0.2171 0.1788 0.1917
Co2 Co 0.5000 0.5000 0.27877(19)
Co3 Co -0.0000 0.0000 0.27877(19)
Co3_2 Co -0.0000 1.0000 0.27877(19)
Co3_3 Co 1.0000 0.0000 0.27877(19)
Co3_4 Co 1.0000 1.0000 0.27877(19)
O1_2 O 0.51794(7) 0.54190(13) 0.0749(7)
O2_2 O 0.52788(8) 0.57134(16) 0.3897(7)
C3_2 C 0.54935(9) 0.60197(16) 0.0852(9)
C10_2 C 0.53056(9) 0.56989(17) 0.1946(10)
C13_2 C 0.57020(10) 0.61862(19) 0.2006(9)
H6_2 H 0.5721 0.6104 0.3428
C14_2 C 0.58818(10) 0.6474(2) 0.1057(9)
H7_2 H 0.6022 0.6580 0.1843
C20_2 C 0.68584(11) 0.6902(2) 0.0102(11)
H11_2 H 0.6736 0.6804 0.1092
C22_2 C 0.71171(10) 0.6892(2) 0.0587(11)
H13_2 H 0.7171 0.6788 0.1917
O3_2 O 0.98206(7) 0.95810(13) 0.0749(7)
O4_2 O 0.97212(8) 0.92866(16) 0.3897(7)
C27_2 C 0.95065(9) 0.89803(16) 0.0852(9)
C34_2 C 0.96944(9) 0.93011(17) 0.1946(10)
C37_2 C 0.92980(10) 0.88138(19) 0.2006(9)
H20_2 H 0.9279 0.8896 0.3428
C38_2 C 0.91182(10) 0.8526(2) 0.1057(9)
H21_2 H 0.8978 0.8420 0.1843
C44_2 C 0.81416(11) 0.8098(2) 0.0102(11)
H25_2 H 0.8264 0.8196 0.1092
C46_2 C 0.78829(10) 0.8108(2) 0.0587(11)
H27_2 H 0.7829 0.8212 0.1917
C5 C 0.38352(9) 0.73147(16) 0.8156(9)
C6 C 0.36303(10) 0.71842(18) 0.6864(11)
H1 H 0.3464 0.7273 0.7230
C17 C 0.39171(12) 0.67772(19) 0.4524(10)
N3 N 0.39907(16) 0.6275(2) 0.1173(12)
C18 C 0.36691(12) 0.69260(19) 0.5054(10)
H9 H 0.3530 0.6851 0.4183
C21 C 0.40822(11) 0.7159(3) 0.7659(13)
H12 H 0.4221 0.7233 0.8538
C23 C 0.39584(15) 0.6499(2) 0.2633(12)
C24 C 0.41208(13) 0.6890(3) 0.5811(14)
H14 H 0.4286 0.6788 0.5466
C29 C 0.11648(9) 0.76853(16) 0.8156(9)
C30 C 0.13697(10) 0.78158(18) 0.6864(11)
H15 H 0.1536 0.7727 0.7230
C41 C 0.10829(12) 0.82228(19) 0.4524(10)
N6 N 0.10093(16) 0.8725(2) 0.1173(12)
C42 C 0.13309(12) 0.80740(19) 0.5054(10)
H23 H 0.1470 0.8149 0.4183
C45 C 0.09178(11) 0.7841(3) 0.7659(13)
H26 H 0.0779 0.7767 0.8538
C47 C 0.10416(15) 0.8501(2) 0.2633(12)
C48 C 0.08792(13) 0.8110(3) 0.5811(14)
H28 H 0.0714 0.8212 0.5466
O5 O 0.23206(7) 0.79190(13) 0.8249(7)
O6 O 0.26794(7) 0.70810(13) 0.8249(7)
C5_2 C 0.61648(9) 0.26853(16) 0.8156(9)
C6_2 C 0.63697(10) 0.28158(18) 0.6864(11)
H1_2 H 0.6536 0.2727 0.7230
C17_2 C 0.60829(12) 0.32228(19) 0.4524(10)
N3_2 N 0.60093(16) 0.3725(2) 0.1173(12)
C18_2 C 0.63309(12) 0.30740(19) 0.5054(10)
H9_2 H 0.6470 0.3149 0.4183
C21_2 C 0.59178(11) 0.2841(3) 0.7659(13)
H12_2 H 0.5779 0.2767 0.8538
C23_2 C 0.60416(15) 0.3501(2) 0.2633(12)
C24_2 C 0.58792(13) 0.3110(3) 0.5811(14)
H14_2 H 0.5714 0.3212 0.5466
C29_2 C 0.88352(9) 0.23147(16) 0.8156(9)
C30_2 C 0.86303(10) 0.21842(18) 0.6864(11)
H15_2 H 0.8464 0.2273 0.7230
C41_2 C 0.89171(12) 0.17772(19) 0.4524(10)
N6_2 N 0.89907(16) 0.1275(2) 0.1173(12)
C42_2 C 0.86691(12) 0.19260(19) 0.5054(10)
H23_2 H 0.8530 0.1851 0.4183
C45_2 C 0.90822(11) 0.2159(3) 0.7659(13)
H26_2 H 0.9221 0.2233 0.8538
C47_2 C 0.89584(15) 0.1499(2) 0.2633(12)
C48_2 C 0.91208(13) 0.1890(3) 0.5811(14)
H28_2 H 0.9286 0.1788 0.5466
O5_2 O 0.76794(7) 0.20810(13) 0.8249(7)
O6_2 O 0.73206(7) 0.29190(13) 0.8249(7)
N1 N 0.60447(7) 0.48541(14) 0.3223(7)
N2 N 0.52728(7) 0.46983(15) 0.4709(8)
C1 C 0.59940(9) 0.45951(16) 0.4904(8)
C2 C 0.57190(9) 0.45623(17) 0.5592(9)
C3_3 C 0.70065(9) 0.35197(16) 0.8352(9)
C4 C 0.62906(9) 0.48922(15) 0.2582(9)
C5_3 C 0.63352(9) 0.51853(16) 0.0656(9)
C7 C 0.61854(9) 0.43523(16) 0.6031(9)
H2 H 0.6142 0.4173 0.7208
C8 C 0.55261(9) 0.47100(16) 0.4205(9)
H3 H 0.5574 0.4822 0.2873
C9 C 0.64408(8) 0.43849(14) 0.5354(9)
C10_3 C 0.71944(9) 0.31989(17) 0.9446(10)
C11 C 0.64930(9) 0.46656(16) 0.3603(9)
H4 H 0.6662 0.4701 0.3119
C12 C 0.70332(10) 0.36459(19) 0.6242(10)
H5 H 0.7170 0.3529 0.5450
C13_3 C 0.67980(10) 0.36862(19) 0.9506(9)
C14_3 C 0.66182(10) 0.3974(2) 0.8557(9)
H7_3 H 0.6478 0.4080 0.9343
C15 C 0.66448(9) 0.41069(16) 0.6448(9)
C16 C 0.52047(10) 0.4533(2) 0.6612(10)
H8 H 0.5030 0.4514 0.6949
C19 C 0.68574(10) 0.39459(18) 0.5289(10)
H10 H 0.6881 0.4039 0.3886
C20_3 C 0.56416(11) 0.4402(2) 0.7602(11)
H11_3 H 0.5764 0.4304 0.8592
C21_3 C 0.65822(11) 0.5341(3) 0.0159(13)
H12_3 H 0.6721 0.5267 0.1038
C22_3 C 0.53829(10) 0.4392(2) 0.8087(11)
H13_3 H 0.5329 0.4288 0.9417
N4 N 0.39553(7) 0.51459(14) 0.3223(7)
N5 N 0.47272(7) 0.53017(15) 0.4709(8)
C25 C 0.40060(9) 0.54049(16) 0.4904(8)
C26 C 0.42810(9) 0.54377(17) 0.5592(9)
C27_3 C 0.29935(9) 0.64803(16) 0.8352(9)
C28 C 0.37094(9) 0.51078(15) 0.2582(9)
C29_3 C 0.36648(9) 0.48147(16) 0.0656(9)
C31 C 0.38146(9) 0.56477(16) 0.6031(9)
H16 H 0.3858 0.5827 0.7208
C32 C 0.44739(9) 0.52900(16) 0.4205(9)
H17 H 0.4426 0.5178 0.2873
C33 C 0.35592(8) 0.56151(14) 0.5354(9)
C34_3 C 0.28056(9) 0.68011(17) 0.9446(10)
C35 C 0.35070(9) 0.53344(16) 0.3603(9)
H18 H 0.3338 0.5299 0.3119
C36 C 0.29668(10) 0.63541(19) 0.6242(10)
H19 H 0.2830 0.6471 0.5450
C37_3 C 0.32020(10) 0.63138(19) 0.9506(9)
C38_3 C 0.33818(10) 0.6026(2) 0.8557(9)
H21_3 H 0.3522 0.5920 0.9343
C39 C 0.33552(9) 0.58931(16) 0.6448(9)
C40 C 0.47953(10) 0.5467(2) 0.6612(10)
H22 H 0.4970 0.5486 0.6949
C43 C 0.31426(10) 0.60541(18) 0.5289(10)
H24 H 0.3119 0.5961 0.3886
C44_3 C 0.43584(11) 0.5598(2) 0.7602(11)
H25_3 H 0.4236 0.5696 0.8592
C45_3 C 0.34178(11) 0.4659(3) 0.0159(13)
H26_3 H 0.3279 0.4733 0.1038
C46_3 C 0.46171(10) 0.5608(2) 0.8087(11)
H27_3 H 0.4671 0.5712 0.9417
C29_4 C 0.13352(9) 0.01853(16) 0.0656(9)
C45_4 C 0.15822(11) 0.0341(3) 0.0159(13)
H26_4 H 0.1721 0.0267 0.1038
N4_2 N 0.10447(7) 0.98541(14) 0.3223(7)
N5_2 N 0.02728(7) 0.96983(15) 0.4709(8)
C25_2 C 0.09940(9) 0.95951(16) 0.4904(8)
C26_2 C 0.07190(9) 0.95623(17) 0.5592(9)
C27_4 C 0.20065(9) 0.85197(16) 0.8352(9)
C28_2 C 0.12906(9) 0.98922(15) 0.2582(9)
C31_2 C 0.11854(9) 0.93523(16) 0.6031(9)
H16_2 H 0.1142 0.9173 0.7208
C32_2 C 0.05261(9) 0.97100(16) 0.4205(9)
H17_2 H 0.0574 0.9822 0.2873
C33_2 C 0.14408(8) 0.93849(14) 0.5354(9)
C34_4 C 0.21944(9) 0.81989(17) 0.9446(10)
C35_2 C 0.14930(9) 0.96656(16) 0.3603(9)
H18_2 H 0.1662 0.9701 0.3119
C36_2 C 0.20332(10) 0.86459(19) 0.6242(10)
H19_2 H 0.2170 0.8529 0.5450
C37_4 C 0.17980(10) 0.86862(19) 0.9506(9)
C38_4 C 0.16182(10) 0.8974(2) 0.8557(9)
H21_4 H 0.1478 0.9080 0.9343
C39_2 C 0.16448(9) 0.91069(16) 0.6448(9)
C40_2 C 0.02047(10) 0.9533(2) 0.6612(10)
H22_2 H 0.0030 0.9514 0.6949
C43_2 C 0.18574(10) 0.89459(18) 0.5289(10)
H24_2 H 0.1881 0.9039 0.3886
C44_4 C 0.06416(11) 0.9402(2) 0.7602(11)
H25_4 H 0.0764 0.9304 0.8592
C46_4 C 0.03829(10) 0.9392(2) 0.8087(11)
H27_4 H 0.0329 0.9288 0.9417
N1_2 N 0.89553(7) 0.01459(14) 0.3223(7)
N2_2 N 0.97272(7) 0.03017(15) 0.4709(8)
C1_2 C 0.90060(9) 0.04049(16) 0.4904(8)
C2_2 C 0.92810(9) 0.04377(17) 0.5592(9)
C3_4 C 0.79935(9) 0.14803(16) 0.8352(9)
C4_2 C 0.87094(9) 0.01078(15) 0.2582(9)
C7_2 C 0.88146(9) 0.06477(16) 0.6031(9)
H2_2 H 0.8858 0.0827 0.7208
C8_2 C 0.94739(9) 0.02900(16) 0.4205(9)
H3_2 H 0.9426 0.0178 0.2873
C9_2 C 0.85592(8) 0.06151(14) 0.5354(9)
C10_4 C 0.78056(9) 0.18011(17) 0.9446(10)
C11_2 C 0.85070(9) 0.03344(16) 0.3603(9)
H4_2 H 0.8338 0.0299 0.3119
C12_2 C 0.79668(10) 0.13541(19) 0.6242(10)
H5_2 H 0.7830 0.1471 0.5450
C13_4 C 0.82020(10) 0.13138(19) 0.9506(9)
C14_4 C 0.83818(10) 0.1026(2) 0.8557(9)
H7_4 H 0.8522 0.0920 0.9343
C15_2 C 0.83552(9) 0.08931(16) 0.6448(9)
C16_2 C 0.97953(10) 0.0467(2) 0.6612(10)
H8_2 H 0.9970 0.0486 0.6949
C19_2 C 0.81426(10) 0.10541(18) 0.5289(10)
H10_2 H 0.8119 0.0961 0.3886
C20_4 C 0.93584(11) 0.0598(2) 0.7602(11)
H11_4 H 0.9236 0.0696 0.8592
C22_4 C 0.96171(10) 0.0608(2) 0.8087(11)
H13_4 H 0.9671 0.0712 0.9417
C5_4 C 0.86648(9) 0.98147(16) 0.0656(9)
C21_4 C 0.84178(11) 0.9659(3) 0.0159(13)
H12_4 H 0.8279 0.9733 0.1038
Co1 Co 0.2500 0.2500 0.52877(19)
N1_3 N 0.35447(7) 0.26459(14) 0.5723(7)
N2_3 N 0.27728(7) 0.28017(15) 0.7209(8)
C1_3 C 0.34940(9) 0.29049(16) 0.7404(8)
C2_3 C 0.32190(9) 0.29377(17) 0.8092(9)
C4_3 C 0.37906(9) 0.26078(15) 0.5082(9)
C5_5 C 0.38352(9) 0.23147(16) 0.3156(9)
C6_3 C 0.36303(10) 0.21842(18) 0.1864(11)
H1_3 H 0.3464 0.2273 0.2230
C7_3 C 0.36854(9) 0.31477(16) 0.8531(9)
H2_3 H 0.3642 0.3327 0.9708
C8_3 C 0.30261(9) 0.27900(16) 0.6705(9)
H3_3 H 0.3074 0.2678 0.5373
C9_3 C 0.39408(8) 0.31151(14) 0.7854(9)
C11_3 C 0.39930(9) 0.28344(16) 0.6103(9)
H4_3 H 0.4162 0.2799 0.5619
C12_3 C 0.45332(10) 0.38541(19) 0.8742(10)
H5_3 H 0.4670 0.3971 0.7950
C15_3 C 0.41448(9) 0.33931(16) 0.8948(9)
C16_3 C 0.27047(10) 0.2967(2) 0.9112(10)
H8_3 H 0.2530 0.2986 0.9449
C18_3 C 0.36691(12) 0.19260(19) 0.0054(10)
C19_3 C 0.43574(10) 0.35541(18) 0.7789(10)
H10_3 H 0.4381 0.3461 0.6386
C21_5 C 0.40822(11) 0.2159(3) 0.2659(13)
H12_5 H 0.4221 0.2233 0.3538
C24_3 C 0.41208(13) 0.1890(3) 0.0811(14)
H14_3 H 0.4286 0.1788 0.0466
N4_3 N 0.14553(7) 0.23541(14) 0.5723(7)
N5_3 N 0.22272(7) 0.21983(15) 0.7209(8)
C25_3 C 0.15060(9) 0.20951(16) 0.7404(8)
C26_3 C 0.17810(9) 0.20623(17) 0.8092(9)
C28_3 C 0.12094(9) 0.23922(15) 0.5082(9)
C29_5 C 0.11648(9) 0.26853(16) 0.3156(9)
C30_3 C 0.13697(10) 0.28158(18) 0.1864(11)
H15_3 H 0.1536 0.2727 0.2230
C31_3 C 0.13146(9) 0.18523(16) 0.8531(9)
H16_3 H 0.1358 0.1673 0.9708
C32_3 C 0.19739(9) 0.22100(16) 0.6705(9)
H17_3 H 0.1926 0.2322 0.5373
C33_3 C 0.10592(8) 0.18849(14) 0.7854(9)
C35_3 C 0.10070(9) 0.21656(16) 0.6103(9)
H18_3 H 0.0838 0.2201 0.5619
C36_3 C 0.04668(10) 0.11459(19) 0.8742(10)
H19_3 H 0.0330 0.1029 0.7950
C39_3 C 0.08552(9) 0.16069(16) 0.8948(9)
C40_3 C 0.22953(10) 0.2033(2) 0.9112(10)
H22_3 H 0.2470 0.2014 0.9449
C42_3 C 0.13309(12) 0.30740(19) 0.0054(10)
C43_3 C 0.06426(10) 0.14459(18) 0.7789(10)
H24_3 H 0.0619 0.1539 0.6386
C45_5 C 0.09178(11) 0.2841(3) 0.2659(13)
H26_5 H 0.0779 0.2767 0.3538
C48_3 C 0.08792(13) 0.3110(3) 0.0811(14)
H28_3 H 0.0714 0.3212 0.0466
O5_3 O 0.23206(7) 0.29190(13) 0.3249(7)
O6_3 O 0.26794(7) 0.20810(13) 0.3249(7)
O4_3 O 0.27788(8) 0.17866(16) 0.6397(7)
C26_4 C 0.42810(9) 0.04377(17) 0.0592(9)
C27_5 C 0.29935(9) 0.14803(16) 0.3352(9)
C31_4 C 0.38146(9) 0.06477(16) 0.1031(9)
H16_4 H 0.3858 0.0827 0.2208
C33_4 C 0.35592(8) 0.06151(14) 0.0354(9)
C34_5 C 0.28056(9) 0.18011(17) 0.4446(10)
C36_4 C 0.29668(10) 0.13541(19) 0.1242(10)
H19_4 H 0.2830 0.1471 0.0450
C37_5 C 0.32020(10) 0.13138(19) 0.4506(9)
H20_3 H 0.3221 0.1396 0.5928
C38_5 C 0.33818(10) 0.1026(2) 0.3557(9)
H21_5 H 0.3522 0.0920 0.4343
C39_4 C 0.33552(9) 0.08931(16) 0.1448(9)
C40_4 C 0.47953(10) 0.0467(2) 0.1612(10)
H22_4 H 0.4970 0.0486 0.1949
C43_4 C 0.31426(10) 0.10541(18) 0.0289(10)
C44_5 C 0.43584(11) 0.0598(2) 0.2602(11)
H25_5 H 0.4236 0.0696 0.3592
C46_5 C 0.46171(10) 0.0608(2) 0.3087(11)
H27_5 H 0.4671 0.0712 0.4417
O4_4 O 0.22212(8) 0.32134(16) 0.6397(7)
C26_5 C 0.07190(9) 0.45623(17) 0.0592(9)
C27_6 C 0.20065(9) 0.35197(16) 0.3352(9)
C31_5 C 0.11854(9) 0.43523(16) 0.1031(9)
H16_5 H 0.1142 0.4173 0.2208
C33_5 C 0.14408(8) 0.43849(14) 0.0354(9)
C34_6 C 0.21944(9) 0.31989(17) 0.4446(10)
C36_5 C 0.20332(10) 0.36459(19) 0.1242(10)
H19_5 H 0.2170 0.3529 0.0450
C37_6 C 0.17980(10) 0.36862(19) 0.4506(9)
H20_4 H 0.1779 0.3604 0.5928
C38_6 C 0.16182(10) 0.3974(2) 0.3557(9)
H21_6 H 0.1478 0.4080 0.4343
C39_5 C 0.16448(9) 0.41069(16) 0.1448(9)
C40_5 C 0.02047(10) 0.4533(2) 0.1612(10)
H22_5 H 0.0030 0.4514 0.1949
C43_5 C 0.18574(10) 0.39459(18) 0.0289(10)
C44_6 C 0.06416(11) 0.4402(2) 0.2602(11)
H25_6 H 0.0764 0.4304 0.3592
C46_6 C 0.03829(10) 0.4392(2) 0.3087(11)
H27_6 H 0.0329 0.4288 0.4417
C17_3 C 0.39171(12) 0.17772(19) 0.9524(10)
N3_3 N 0.39907(16) 0.1275(2) 0.6173(12)
H9_3 H 0.3530 0.1851 0.9183
C23_3 C 0.39584(15) 0.1499(2) 0.7633(12)
C41_3 C 0.10829(12) 0.32228(19) 0.9524(10)
N6_3 N 0.10093(16) 0.3725(2) 0.6173(12)
H23_3 H 0.1470 0.3149 0.9183
C47_3 C 0.10416(15) 0.3501(2) 0.7633(12)
Co1_2 Co 0.7500 0.7500 0.52877(19)
N1_4 N 0.64553(7) 0.73541(14) 0.5723(7)
N2_4 N 0.72272(7) 0.71983(15) 0.7209(8)
C1_4 C 0.65060(9) 0.70951(16) 0.7404(8)
C2_4 C 0.67810(9) 0.70623(17) 0.8092(9)
C4_4 C 0.62094(9) 0.73922(15) 0.5082(9)
C5_6 C 0.61648(9) 0.76853(16) 0.3156(9)
C6_4 C 0.63697(10) 0.78158(18) 0.1864(11)
H1_4 H 0.6536 0.7727 0.2230
C7_4 C 0.63146(9) 0.68523(16) 0.8531(9)
H2_4 H 0.6358 0.6673 0.9708
C8_4 C 0.69739(9) 0.72100(16) 0.6705(9)
H3_4 H 0.6926 0.7322 0.5373
C9_4 C 0.60592(8) 0.68849(14) 0.7854(9)
C11_4 C 0.60070(9) 0.71656(16) 0.6103(9)
H4_4 H 0.5838 0.7201 0.5619
C12_4 C 0.54668(10) 0.61459(19) 0.8742(10)
H5_4 H 0.5330 0.6029 0.7950
C15_4 C 0.58552(9) 0.66069(16) 0.8948(9)
C16_4 C 0.72953(10) 0.7033(2) 0.9112(10)
H8_4 H 0.7470 0.7014 0.9449
C18_4 C 0.63309(12) 0.80740(19) 0.0054(10)
C19_4 C 0.56426(10) 0.64459(18) 0.7789(10)
H10_4 H 0.5619 0.6539 0.6386
C21_6 C 0.59178(11) 0.7841(3) 0.2659(13)
H12_6 H 0.5779 0.7767 0.3538
C24_4 C 0.58792(13) 0.8110(3) 0.0811(14)
H14_4 H 0.5714 0.8212 0.0466
N4_4 N 0.85447(7) 0.76459(14) 0.5723(7)
N5_4 N 0.77728(7) 0.78017(15) 0.7209(8)
C25_4 C 0.84940(9) 0.79049(16) 0.7404(8)
C26_6 C 0.82190(9) 0.79377(17) 0.8092(9)
C28_4 C 0.87906(9) 0.76078(15) 0.5082(9)
C29_6 C 0.88352(9) 0.73147(16) 0.3156(9)
C30_4 C 0.86303(10) 0.71842(18) 0.1864(11)
H15_4 H 0.8464 0.7273 0.2230
C31_6 C 0.86854(9) 0.81477(16) 0.8531(9)
H16_6 H 0.8642 0.8327 0.9708
C32_4 C 0.80261(9) 0.77900(16) 0.6705(9)
H17_4 H 0.8074 0.7678 0.5373
C33_6 C 0.89408(8) 0.81151(14) 0.7854(9)
C35_4 C 0.89930(9) 0.78344(16) 0.6103(9)
H18_4 H 0.9162 0.7799 0.5619
C36_6 C 0.95332(10) 0.88541(19) 0.8742(10)
H19_6 H 0.9670 0.8971 0.7950
C39_6 C 0.91448(9) 0.83931(16) 0.8948(9)
C40_6 C 0.77047(10) 0.7967(2) 0.9112(10)
H22_6 H 0.7530 0.7986 0.9449
C42_4 C 0.86691(12) 0.69260(19) 0.0054(10)
C43_6 C 0.93574(10) 0.85541(18) 0.7789(10)
H24_4 H 0.9381 0.8461 0.6386
C45_6 C 0.90822(11) 0.7159(3) 0.2659(13)
H26_6 H 0.9221 0.7233 0.3538
C48_4 C 0.91208(13) 0.6890(3) 0.0811(14)
H28_4 H 0.9286 0.6788 0.0466
O5_4 O 0.76794(7) 0.70810(13) 0.3249(7)
O6_4 O 0.73206(7) 0.79190(13) 0.3249(7)
O2_3 O 0.72212(8) 0.82134(16) 0.6397(7)
C2_5 C 0.57190(9) 0.95623(17) 0.0592(9)
C3_5 C 0.70065(9) 0.85197(16) 0.3352(9)
C7_5 C 0.61854(9) 0.93523(16) 0.1031(9)
H2_5 H 0.6142 0.9173 0.2208
C9_5 C 0.64408(8) 0.93849(14) 0.0354(9)
C10_5 C 0.71944(9) 0.81989(17) 0.4446(10)
C12_5 C 0.70332(10) 0.86459(19) 0.1242(10)
H5_5 H 0.7170 0.8529 0.0450
C13_5 C 0.67980(10) 0.86862(19) 0.4506(9)
H6_3 H 0.6779 0.8604 0.5928
C14_5 C 0.66182(10) 0.8974(2) 0.3557(9)
H7_5 H 0.6478 0.9080 0.4343
C15_5 C 0.66448(9) 0.91069(16) 0.1448(9)
C16_5 C 0.52047(10) 0.9533(2) 0.1612(10)
H8_5 H 0.5030 0.9514 0.1949
C19_5 C 0.68574(10) 0.89459(18) 0.0289(10)
C20_5 C 0.56416(11) 0.9402(2) 0.2602(11)
H11_5 H 0.5764 0.9304 0.3592
C22_5 C 0.53829(10) 0.9392(2) 0.3087(11)
H13_5 H 0.5329 0.9288 0.4417
O2_4 O 0.77788(8) 0.67866(16) 0.6397(7)
C2_6 C 0.92810(9) 0.54377(17) 0.0592(9)
C3_6 C 0.79935(9) 0.64803(16) 0.3352(9)
C7_6 C 0.88146(9) 0.56477(16) 0.1031(9)
H2_6 H 0.8858 0.5827 0.2208
C9_6 C 0.85592(8) 0.56151(14) 0.0354(9)
C10_6 C 0.78056(9) 0.68011(17) 0.4446(10)
C12_6 C 0.79668(10) 0.63541(19) 0.1242(10)
H5_6 H 0.7830 0.6471 0.0450
C13_6 C 0.82020(10) 0.63138(19) 0.4506(9)
H6_4 H 0.8221 0.6396 0.5928
C14_6 C 0.83818(10) 0.6026(2) 0.3557(9)
H7_6 H 0.8522 0.5920 0.4343
C15_6 C 0.83552(9) 0.58931(16) 0.1448(9)
C16_6 C 0.97953(10) 0.5467(2) 0.1612(10)
H8_6 H 0.9970 0.5486 0.1949
C19_6 C 0.81426(10) 0.60541(18) 0.0289(10)
C20_6 C 0.93584(11) 0.5598(2) 0.2602(11)
H11_6 H 0.9236 0.5696 0.3592
C22_6 C 0.96171(10) 0.5608(2) 0.3087(11)
H13_6 H 0.9671 0.5712 0.4417
C17_4 C 0.60829(12) 0.82228(19) 0.9524(10)
N3_4 N 0.60093(16) 0.8725(2) 0.6173(12)
H9_4 H 0.6470 0.8149 0.9183
C23_4 C 0.60416(15) 0.8501(2) 0.7633(12)
C41_4 C 0.89171(12) 0.67772(19) 0.9524(10)
N6_4 N 0.89907(16) 0.6275(2) 0.6173(12)
H23_4 H 0.8530 0.6851 0.9183
C47_4 C 0.89584(15) 0.6499(2) 0.7633(12)
Co1_3 Co 0.5000 0.0000 0.77877(19)
C5_7 C 0.63352(9) 0.01853(16) 0.5656(9)
C6_5 C 0.61303(10) 0.03158(18) 0.4364(11)
H1_5 H 0.5964 0.0227 0.4730
C17_5 C 0.64171(12) 0.07228(19) 0.2024(10)
C18_5 C 0.61691(12) 0.05740(19) 0.2554(10)
H9_5 H 0.6030 0.0649 0.1683
C21_7 C 0.65822(11) 0.0341(3) 0.5159(13)
H12_7 H 0.6721 0.0267 0.6038
C23_5 C 0.64584(15) 0.1001(2) 0.0133(12)
C24_5 C 0.66208(13) 0.0610(3) 0.3311(14)
H14_5 H 0.6786 0.0712 0.2966
N4_5 N 0.39553(7) 0.01459(14) 0.8223(7)
N5_5 N 0.47272(7) 0.03017(15) 0.9709(8)
C25_5 C 0.40060(9) 0.04049(16) 0.9904(8)
C28_5 C 0.37094(9) 0.01078(15) 0.7582(9)
C32_5 C 0.44739(9) 0.02900(16) 0.9205(9)
H17_5 H 0.4426 0.0178 0.7873
C35_5 C 0.35070(9) 0.03344(16) 0.8603(9)
H18_5 H 0.3338 0.0299 0.8119
H24_5 H 0.3119 0.0961 0.8886
O6_5 O 0.51794(7) 0.04190(13) 0.5749(7)
Co1_4 Co 0.5000 1.0000 0.77877(19)
N1_5 N 0.60447(7) 0.98541(14) 0.8223(7)
N2_5 N 0.52728(7) 0.96983(15) 0.9709(8)
C1_5 C 0.59940(9) 0.95951(16) 0.9904(8)
C4_5 C 0.62906(9) 0.98922(15) 0.7582(9)
C8_5 C 0.55261(9) 0.97100(16) 0.9205(9)
H3_5 H 0.5574 0.9822 0.7873
C11_5 C 0.64930(9) 0.96656(16) 0.8603(9)
H4_5 H 0.6662 0.9701 0.8119
H10_5 H 0.6881 0.9039 0.8886
C29_7 C 0.36648(9) 0.98147(16) 0.5656(9)
C30_5 C 0.38697(10) 0.96842(18) 0.4364(11)
H15_5 H 0.4036 0.9773 0.4730
C41_5 C 0.35829(12) 0.92772(19) 0.2024(10)
C42_5 C 0.38309(12) 0.94260(19) 0.2554(10)
H23_5 H 0.3970 0.9351 0.1683
C45_7 C 0.34178(11) 0.9659(3) 0.5159(13)
H26_7 H 0.3279 0.9733 0.6038
C47_5 C 0.35416(15) 0.8999(2) 0.0133(12)
C48_5 C 0.33792(13) 0.9390(3) 0.3311(14)
H28_5 H 0.3214 0.9288 0.2966
O5_5 O 0.48206(7) 0.95810(13) 0.5749(7)
Co1_5 Co 0.0000 0.5000 0.77877(19)
N4_6 N 0.10447(7) 0.48541(14) 0.8223(7)
N5_6 N 0.02728(7) 0.46983(15) 0.9709(8)
C25_6 C 0.09940(9) 0.45951(16) 0.9904(8)
C28_6 C 0.12906(9) 0.48922(15) 0.7582(9)
C29_8 C 0.13352(9) 0.51853(16) 0.5656(9)
C30_6 C 0.11303(10) 0.53158(18) 0.4364(11)
H15_6 H 0.0964 0.5227 0.4730
C32_6 C 0.05261(9) 0.47100(16) 0.9205(9)
H17_6 H 0.0574 0.4822 0.7873
C35_6 C 0.14930(9) 0.46656(16) 0.8603(9)
H18_6 H 0.1662 0.4701 0.8119
C41_6 C 0.14171(12) 0.57228(19) 0.2024(10)
C42_6 C 0.11691(12) 0.55740(19) 0.2554(10)
H23_6 H 0.1030 0.5649 0.1683
H24_6 H 0.1881 0.4039 0.8886
C45_8 C 0.15822(11) 0.5341(3) 0.5159(13)
H26_8 H 0.1721 0.5267 0.6038
C47_6 C 0.14584(15) 0.6001(2) 0.0133(12)
C48_6 C 0.16208(13) 0.5610(3) 0.3311(14)
H28_6 H 0.1786 0.5712 0.2966
O5_6 O 0.01794(7) 0.54190(13) 0.5749(7)
Co1_6 Co 1.0000 0.5000 0.77877(19)
N1_6 N 0.89553(7) 0.51459(14) 0.8223(7)
N2_6 N 0.97272(7) 0.53017(15) 0.9709(8)
C1_6 C 0.90060(9) 0.54049(16) 0.9904(8)
C4_6 C 0.87094(9) 0.51078(15) 0.7582(9)
C5_8 C 0.86648(9) 0.48147(16) 0.5656(9)
C6_6 C 0.88697(10) 0.46842(18) 0.4364(11)
H1_6 H 0.9036 0.4773 0.4730
C8_6 C 0.94739(9) 0.52900(16) 0.9205(9)
H3_6 H 0.9426 0.5178 0.7873
C11_6 C 0.85070(9) 0.53344(16) 0.8603(9)
H4_6 H 0.8338 0.5299 0.8119
C17_6 C 0.85829(12) 0.42772(19) 0.2024(10)
C18_6 C 0.88309(12) 0.44260(19) 0.2554(10)
H9_6 H 0.8970 0.4351 0.1683
H10_6 H 0.8119 0.5961 0.8886
C21_8 C 0.84178(11) 0.4659(3) 0.5159(13)
H12_8 H 0.8279 0.4733 0.6038
C23_6 C 0.85416(15) 0.3999(2) 0.0133(12)
C24_6 C 0.83792(13) 0.4390(3) 0.3311(14)
H14_6 H 0.8214 0.4288 0.2966
O6_6 O 0.98206(7) 0.45810(13) 0.5749(7)
Co1_7 Co 0.2500 0.7500 0.02877(19)
N1_7 N 0.35447(7) 0.76459(14) 0.0723(7)
O2_5 O 0.47212(8) 0.92866(16) 0.8897(7)
N2_7 N 0.27728(7) 0.78017(15) 0.2209(8)
C1_7 C 0.34940(9) 0.79049(16) 0.2404(8)
C2_7 C 0.32190(9) 0.79377(17) 0.3092(9)
C3_7 C 0.45065(9) 0.89803(16) 0.5852(9)
C4_7 C 0.37906(9) 0.76078(15) 0.0082(9)
C7_7 C 0.36854(9) 0.81477(16) 0.3531(9)
H2_7 H 0.3642 0.8327 0.4708
C8_7 C 0.30261(9) 0.77900(16) 0.1705(9)
H3_7 H 0.3074 0.7678 0.0373
C9_7 C 0.39408(8) 0.81151(14) 0.2854(9)
C10_7 C 0.46944(9) 0.93011(17) 0.6946(10)
C11_7 C 0.39930(9) 0.78344(16) 0.1103(9)
H4_7 H 0.4162 0.7799 0.0619
C12_7 C 0.45332(10) 0.88541(19) 0.3742(10)
H5_7 H 0.4670 0.8971 0.2950
C13_7 C 0.42980(10) 0.88138(19) 0.7006(9)
H6_5 H 0.4279 0.8896 0.8428
C14_7 C 0.41182(10) 0.8526(2) 0.6057(9)
H7_7 H 0.3978 0.8420 0.6843
C15_7 C 0.41448(9) 0.83931(16) 0.3948(9)
C16_7 C 0.27047(10) 0.7967(2) 0.4112(10)
H8_7 H 0.2530 0.7986 0.4449
C19_7 C 0.43574(10) 0.85541(18) 0.2789(10)
H10_7 H 0.4381 0.8461 0.1386
C20_7 C 0.31416(11) 0.8098(2) 0.5102(11)
H11_7 H 0.3264 0.8196 0.6092
C22_7 C 0.28829(10) 0.8108(2) 0.5587(11)
H13_7 H 0.2829 0.8212 0.6917
N4_7 N 0.14553(7) 0.73541(14) 0.0723(7)
O4_5 O 0.02788(8) 0.57134(16) 0.8897(7)
N5_7 N 0.22272(7) 0.71983(15) 0.2209(8)
C25_7 C 0.15060(9) 0.70951(16) 0.2404(8)
C26_7 C 0.17810(9) 0.70623(17) 0.3092(9)
C27_7 C 0.04935(9) 0.60197(16) 0.5852(9)
C28_7 C 0.12094(9) 0.73922(15) 0.0082(9)
C31_7 C 0.13146(9) 0.68523(16) 0.3531(9)
H16_7 H 0.1358 0.6673 0.4708
C32_7 C 0.19739(9) 0.72100(16) 0.1705(9)
H17_7 H 0.1926 0.7322 0.0373
C33_7 C 0.10592(8) 0.68849(14) 0.2854(9)
C34_7 C 0.03056(9) 0.56989(17) 0.6946(10)
C35_7 C 0.10070(9) 0.71656(16) 0.1103(9)
H18_7 H 0.0838 0.7201 0.0619
C36_7 C 0.04668(10) 0.61459(19) 0.3742(10)
H19_7 H 0.0330 0.6029 0.2950
C37_7 C 0.07020(10) 0.61862(19) 0.7006(9)
H20_5 H 0.0721 0.6104 0.8428
C38_7 C 0.08818(10) 0.6474(2) 0.6057(9)
H21_7 H 0.1022 0.6580 0.6843
C39_7 C 0.08552(9) 0.66069(16) 0.3948(9)
C40_7 C 0.22953(10) 0.7033(2) 0.4112(10)
H22_7 H 0.2470 0.7014 0.4449
C43_7 C 0.06426(10) 0.64459(18) 0.2789(10)
H24_7 H 0.0619 0.6539 0.1386
C44_7 C 0.18584(11) 0.6902(2) 0.5102(11)
H25_7 H 0.1736 0.6804 0.6092
C46_7 C 0.21171(10) 0.6892(2) 0.5587(11)
H27_7 H 0.2171 0.6788 0.6917
Co1_8 Co 0.7500 0.2500 0.02877(19)
N1_8 N 0.64553(7) 0.23541(14) 0.0723(7)
O2_6 O 0.52788(8) 0.07134(16) 0.8897(7)
N2_8 N 0.72272(7) 0.21983(15) 0.2209(8)
C1_8 C 0.65060(9) 0.20951(16) 0.2404(8)
C2_8 C 0.67810(9) 0.20623(17) 0.3092(9)
C3_8 C 0.54935(9) 0.10197(16) 0.5852(9)
C4_8 C 0.62094(9) 0.23922(15) 0.0082(9)
C7_8 C 0.63146(9) 0.18523(16) 0.3531(9)
H2_8 H 0.6358 0.1673 0.4708
C8_8 C 0.69739(9) 0.22100(16) 0.1705(9)
H3_8 H 0.6926 0.2322 0.0373
C9_8 C 0.60592(8) 0.18849(14) 0.2854(9)
C10_8 C 0.53056(9) 0.06989(17) 0.6946(10)
C11_8 C 0.60070(9) 0.21656(16) 0.1103(9)
H4_8 H 0.5838 0.2201 0.0619
C12_8 C 0.54668(10) 0.11459(19) 0.3742(10)
H5_8 H 0.5330 0.1029 0.2950
C13_8 C 0.57020(10) 0.11862(19) 0.7006(9)
H6_6 H 0.5721 0.1104 0.8428
C14_8 C 0.58818(10) 0.1474(2) 0.6057(9)
H7_8 H 0.6022 0.1580 0.6843
C15_8 C 0.58552(9) 0.16069(16) 0.3948(9)
C16_8 C 0.72953(10) 0.2033(2) 0.4112(10)
H8_8 H 0.7470 0.2014 0.4449
C19_8 C 0.56426(10) 0.14459(18) 0.2789(10)
H10_8 H 0.5619 0.1539 0.1386
C20_8 C 0.68584(11) 0.1902(2) 0.5102(11)
H11_8 H 0.6736 0.1804 0.6092
C22_8 C 0.71171(10) 0.1892(2) 0.5587(11)
H13_8 H 0.7171 0.1788 0.6917
N4_8 N 0.85447(7) 0.26459(14) 0.0723(7)
O4_6 O 0.97212(8) 0.42866(16) 0.8897(7)
N5_8 N 0.77728(7) 0.28017(15) 0.2209(8)
C25_8 C 0.84940(9) 0.29049(16) 0.2404(8)
C26_8 C 0.82190(9) 0.29377(17) 0.3092(9)
C27_8 C 0.95065(9) 0.39803(16) 0.5852(9)
C28_8 C 0.87906(9) 0.26078(15) 0.0082(9)
C31_8 C 0.86854(9) 0.31477(16) 0.3531(9)
H16_8 H 0.8642 0.3327 0.4708
C32_8 C 0.80261(9) 0.27900(16) 0.1705(9)
H17_8 H 0.8074 0.2678 0.0373
C33_8 C 0.89408(8) 0.31151(14) 0.2854(9)
C34_8 C 0.96944(9) 0.43011(17) 0.6946(10)
C35_8 C 0.89930(9) 0.28344(16) 0.1103(9)
H18_8 H 0.9162 0.2799 0.0619
C36_8 C 0.95332(10) 0.38541(19) 0.3742(10)
H19_8 H 0.9670 0.3971 0.2950
C37_8 C 0.92980(10) 0.38138(19) 0.7006(9)
H20_6 H 0.9279 0.3896 0.8428
C38_8 C 0.91182(10) 0.3526(2) 0.6057(9)
H21_8 H 0.8978 0.3420 0.6843
C39_8 C 0.91448(9) 0.33931(16) 0.3948(9)
C40_8 C 0.77047(10) 0.2967(2) 0.4112(10)
H22_8 H 0.7530 0.2986 0.4449
C43_8 C 0.93574(10) 0.35541(18) 0.2789(10)
H24_8 H 0.9381 0.3461 0.1386
C44_8 C 0.81416(11) 0.3098(2) 0.5102(11)
H25_8 H 0.8264 0.3196 0.6092
C46_8 C 0.78829(10) 0.3108(2) 0.5587(11)
H27_8 H 0.7829 0.3212 0.6917
O2_7 O 0.72212(8) 0.32134(16) 0.1397(7)
H6_7 H 0.6779 0.3604 0.0928
O4_7 O 0.27788(8) 0.67866(16) 0.1397(7)
H20_7 H 0.3221 0.6396 0.0928
O4_8 O 0.22212(8) 0.82134(16) 0.1397(7)
H20_8 H 0.1779 0.8604 0.0928
O2_8 O 0.77788(8) 0.17866(16) 0.1397(7)
H6_8 H 0.8221 0.1396 0.0928
N3_5 N 0.64907(16) 0.1225(2) 0.8673(12)
N6_5 N 0.35093(16) 0.8775(2) 0.8673(12)
N6_6 N 0.14907(16) 0.6225(2) 0.8673(12)
N3_6 N 0.85093(16) 0.3775(2) 0.8673(12)
C6_7 C 0.61303(10) 0.53158(18) 0.9364(11)
H1_7 H 0.5964 0.5227 0.9730
C17_7 C 0.64171(12) 0.57228(19) 0.7024(10)
N3_7 N 0.64907(16) 0.6225(2) 0.3673(12)
C18_7 C 0.61691(12) 0.55740(19) 0.7554(10)
H9_7 H 0.6030 0.5649 0.6683
C23_7 C 0.64584(15) 0.6001(2) 0.5133(12)
C24_7 C 0.66208(13) 0.5610(3) 0.8311(14)
H14_7 H 0.6786 0.5712 0.7966
C30_7 C 0.38697(10) 0.46842(18) 0.9364(11)
H15_7 H 0.4036 0.4773 0.9730
C41_7 C 0.35829(12) 0.42772(19) 0.7024(10)
N6_7 N 0.35093(16) 0.3775(2) 0.3673(12)
C42_7 C 0.38309(12) 0.44260(19) 0.7554(10)
H23_7 H 0.3970 0.4351 0.6683
C47_7 C 0.35416(15) 0.3999(2) 0.5133(12)
C48_7 C 0.33792(13) 0.4390(3) 0.8311(14)
H28_7 H 0.3214 0.4288 0.7966
C30_8 C 0.11303(10) 0.03158(18) 0.9364(11)
H15_8 H 0.0964 0.0227 0.9730
C41_8 C 0.14171(12) 0.07228(19) 0.7024(10)
N6_8 N 0.14907(16) 0.1225(2) 0.3673(12)
C42_8 C 0.11691(12) 0.05740(19) 0.7554(10)
H23_8 H 0.1030 0.0649 0.6683
C47_8 C 0.14584(15) 0.1001(2) 0.5133(12)
C48_8 C 0.16208(13) 0.0610(3) 0.8311(14)
H28_8 H 0.1786 0.0712 0.7966
C6_8 C 0.88697(10) 0.96842(18) 0.9364(11)
H1_8 H 0.9036 0.9773 0.9730
C17_8 C 0.85829(12) 0.92772(19) 0.7024(10)
N3_8 N 0.85093(16) 0.8775(2) 0.3673(12)
C18_8 C 0.88309(12) 0.94260(19) 0.7554(10)
H9_8 H 0.8970 0.9351 0.6683
C23_8 C 0.85416(15) 0.8999(2) 0.5133(12)
C24_8 C 0.83792(13) 0.9390(3) 0.8311(14)
H14_8 H 0.8214 0.9288 0.7966
loop_
_geom_bond_atom_site_label_1
_geom_bond_atom_site_label_2
_geom_bond_site_symmetry_1
_geom_bond_site_symmetry_2
O1 C10 1_555 1_555
O2 C10 1_555 1_555
C3 C10 1_555 1_555
C13 C3 1_555 1_555
H6 C13 1_555 1_555
C14 C13 1_555 1_555
H7 C14 1_555 1_555
H11 C20 1_555 1_555
H13 C22 1_555 1_555
O3 C34 1_555 1_555
O4 C34 1_555 1_555
C27 C34 1_555 1_555
C37 C27 1_555 1_555
H20 C37 1_555 1_555
C38 C37 1_555 1_555
H21 C38 1_555 1_555
H25 C44 1_555 1_555
H27 C46 1_555 1_555
Co2 O1 1_555 1_555
Co3 O3 1_555 1_555
C20 C22 1_555 1_555
C44 C46 1_555 1_555
O1_2 C10_2 1_555 1_555
O2_2 C10_2 1_555 1_555
C3_2 C10_2 1_555 1_555
C13_2 C3_2 1_555 1_555
H6_2 C13_2 1_555 1_555
C14_2 C13_2 1_555 1_555
H7_2 C14_2 1_555 1_555
H11_2 C20_2 1_555 1_555
H13_2 C22_2 1_555 1_555
O3_2 C34_2 1_555 1_555
O4_2 C34_2 1_555 1_555
C27_2 C34_2 1_555 1_555
C37_2 C27_2 1_555 1_555
H20_2 C37_2 1_555 1_555
C38_2 C37_2 1_555 1_555
H21_2 C38_2 1_555 1_555
H25_2 C44_2 1_555 1_555
H27_2 C46_2 1_555 1_555
Co2 O1_2 1_555 1_555
Co3_4 O3_2 1_555 1_555
C20_2 C22_2 1_555 1_555
C44_2 C46_2 1_555 1_555
C6 C5 1_555 1_555
H1 C6 1_555 1_555
C17 C18 1_555 1_555
N3 C23 1_555 1_555
C18 C6 1_555 1_555
H9 C18 1_555 1_555
C21 C5 1_555 1_555
H12 C21 1_555 1_555
C23 C17 1_555 1_555
C24 C17 1_555 1_555
H14 C24 1_555 1_555
C30 C29 1_555 1_555
H15 C30 1_555 1_555
C41 C42 1_555 1_555
N6 C47 1_555 1_555
C42 C30 1_555 1_555
H23 C42 1_555 1_555
C45 C29 1_555 1_555
H26 C45 1_555 1_555
C47 C41 1_555 1_555
C48 C41 1_555 1_555
H28 C48 1_555 1_555
C21 C24 1_555 1_555
C45 C48 1_555 1_555
C6_2 C5_2 1_555 1_555
H1_2 C6_2 1_555 1_555
C17_2 C18_2 1_555 1_555
N3_2 C23_2 1_555 1_555
C18_2 C6_2 1_555 1_555
H9_2 C18_2 1_555 1_555
C21_2 C5_2 1_555 1_555
H12_2 C21_2 1_555 1_555
C23_2 C17_2 1_555 1_555
C24_2 C17_2 1_555 1_555
H14_2 C24_2 1_555 1_555
C30_2 C29_2 1_555 1_555
H15_2 C30_2 1_555 1_555
C41_2 C42_2 1_555 1_555
N6_2 C47_2 1_555 1_555
C42_2 C30_2 1_555 1_555
H23_2 C42_2 1_555 1_555
C45_2 C29_2 1_555 1_555
H26_2 C45_2 1_555 1_555
C47_2 C41_2 1_555 1_555
C48_2 C41_2 1_555 1_555
H28_2 C48_2 1_555 1_555
C21_2 C24_2 1_555 1_555
C45_2 C48_2 1_555 1_555
Co2 N2 1_555 1_555
O6_2 C10_3 1_555 1_555
N1 C1 1_555 1_555
N2 C8 1_555 1_555
C1 C2 1_555 1_555
C2 C8 1_555 1_555
C3_3 C10_3 1_555 1_555
C4 N1 1_555 1_555
C5_3 C4 1_555 1_555
C7 C1 1_555 1_555
H2 C7 1_555 1_555
C8 H3 1_555 1_555
C9 C7 1_555 1_555
C11 C4 1_555 1_555
H4 C11 1_555 1_555
C12 C3_3 1_555 1_555
H5 C12 1_555 1_555
C13_3 C3_3 1_555 1_555
C14_3 C13_3 1_555 1_555
H7_3 C14_3 1_555 1_555
C15 C9 1_555 1_555
C16 N2 1_555 1_555
H8 C16 1_555 1_555
C19 C12 1_555 1_555
H10 C19 1_555 1_555
C20_3 C2 1_555 1_555
H11_3 C20_3 1_555 1_555
C21_3 C5_3 1_555 1_555
H12_3 C21_3 1_555 1_555
C22_3 C16 1_555 1_555
H13_3 C22_3 1_555 1_555
O6 C34_3 1_555 1_555
N4 C25 1_555 1_555
N5 Co2 1_555 1_555
C25 C26 1_555 1_555
C26 C32 1_555 1_555
C27_3 C34_3 1_555 1_555
C28 N4 1_555 1_555
C29_3 C28 1_555 1_555
C31 C25 1_555 1_555
H16 C31 1_555 1_555
C32 N5 1_555 1_555
H17 C32 1_555 1_555
C33 C31 1_555 1_555
C35 C28 1_555 1_555
H18 C35 1_555 1_555
C36 C27_3 1_555 1_555
H19 C36 1_555 1_555
C37_3 C27_3 1_555 1_555
C38_3 C37_3 1_555 1_555
H21_3 C38_3 1_555 1_555
C39 C33 1_555 1_555
C40 N5 1_555 1_555
H22 C40 1_555 1_555
C43 C36 1_555 1_555
H24 C43 1_555 1_555
C44_3 C26 1_555 1_555
H25_3 C44_3 1_555 1_555
C45_3 C29_3 1_555 1_555
H26_3 C45_3 1_555 1_555
C46_3 C40 1_555 1_555
H27_3 C46_3 1_555 1_555
C9 C11 1_555 1_555
C14_3 C15 1_555 1_555
C15 C19 1_555 1_555
C20_3 C22_3 1_555 1_555
C33 C35 1_555 1_555
C38_3 C39 1_555 1_555
C39 C43 1_555 1_555
C44_3 C46_3 1_555 1_555
C45_4 C29_4 1_555 1_555
H26_4 C45_4 1_555 1_555
O5 C34_4 1_555 1_555
N4_2 C25_2 1_555 1_555
N5_2 Co3_2 1_555 1_555
C25_2 C26_2 1_555 1_555
C26_2 C32_2 1_555 1_555
C27_4 C34_4 1_555 1_555
C28_2 N4_2 1_555 1_555
C31_2 C25_2 1_555 1_555
H16_2 C31_2 1_555 1_555
C32_2 N5_2 1_555 1_555
H17_2 C32_2 1_555 1_555
C33_2 C31_2 1_555 1_555
C35_2 C28_2 1_555 1_555
H18_2 C35_2 1_555 1_555
C36_2 C27_4 1_555 1_555
H19_2 C36_2 1_555 1_555
C37_4 C27_4 1_555 1_555
C38_4 C37_4 1_555 1_555
H21_4 C38_4 1_555 1_555
C39_2 C33_2 1_555 1_555
C40_2 N5_2 1_555 1_555
H22_2 C40_2 1_555 1_555
C43_2 C36_2 1_555 1_555
H24_2 C43_2 1_555 1_555
C44_4 C26_2 1_555 1_555
H25_4 C44_4 1_555 1_555
C46_4 C40_2 1_555 1_555
H27_4 C46_4 1_555 1_555
C33_2 C35_2 1_555 1_555
C38_4 C39_2 1_555 1_555
C39_2 C43_2 1_555 1_555
C44_4 C46_4 1_555 1_555
Co3_3 N2_2 1_555 1_555
O5_2 C10_4 1_555 1_555
N1_2 C1_2 1_555 1_555
N2_2 C8_2 1_555 1_555
C1_2 C2_2 1_555 1_555
C2_2 C8_2 1_555 1_555
C3_4 C10_4 1_555 1_555
C4_2 N1_2 1_555 1_555
C7_2 C1_2 1_555 1_555
H2_2 C7_2 1_555 1_555
C8_2 H3_2 1_555 1_555
C9_2 C7_2 1_555 1_555
C11_2 C4_2 1_555 1_555
H4_2 C11_2 1_555 1_555
C12_2 C3_4 1_555 1_555
H5_2 C12_2 1_555 1_555
C13_4 C3_4 1_555 1_555
C14_4 C13_4 1_555 1_555
H7_4 C14_4 1_555 1_555
C15_2 C9_2 1_555 1_555
C16_2 N2_2 1_555 1_555
H8_2 C16_2 1_555 1_555
C19_2 C12_2 1_555 1_555
H10_2 C19_2 1_555 1_555
C20_4 C2_2 1_555 1_555
H11_4 C20_4 1_555 1_555
C22_4 C16_2 1_555 1_555
H13_4 C22_4 1_555 1_555
C9_2 C11_2 1_555 1_555
C14_4 C15_2 1_555 1_555
C15_2 C19_2 1_555 1_555
C20_4 C22_4 1_555 1_555
C21_4 C5_4 1_555 1_555
H12_4 C21_4 1_555 1_555
Co1 N2_3 1_555 1_555
N1_3 C1_3 1_555 1_555
N2_3 C8_3 1_555 1_555
C1_3 C2_3 1_555 1_555
C2_3 C8_3 1_555 1_555
C4_3 N1_3 1_555 1_555
C5_5 C4_3 1_555 1_555
C6_3 C5_5 1_555 1_555
H1_3 C6_3 1_555 1_555
C7_3 C1_3 1_555 1_555
H2_3 C7_3 1_555 1_555
C8_3 H3_3 1_555 1_555
C9_3 C7_3 1_555 1_555
C11_3 C4_3 1_555 1_555
H4_3 C11_3 1_555 1_555
H5_3 C12_3 1_555 1_555
C15_3 C9_3 1_555 1_555
C16_3 N2_3 1_555 1_555
H8_3 C16_3 1_555 1_555
C18_3 C6_3 1_555 1_555
C19_3 C12_3 1_555 1_555
H10_3 C19_3 1_555 1_555
C21_5 C5_5 1_555 1_555
H12_5 C21_5 1_555 1_555
H14_3 C24_3 1_555 1_555
N4_3 C25_3 1_555 1_555
N5_3 Co1 1_555 1_555
C25_3 C26_3 1_555 1_555
C26_3 C32_3 1_555 1_555
C28_3 N4_3 1_555 1_555
C29_5 C28_3 1_555 1_555
C30_3 C29_5 1_555 1_555
H15_3 C30_3 1_555 1_555
C31_3 C25_3 1_555 1_555
H16_3 C31_3 1_555 1_555
C32_3 N5_3 1_555 1_555
H17_3 C32_3 1_555 1_555
C33_3 C31_3 1_555 1_555
C35_3 C28_3 1_555 1_555
H18_3 C35_3 1_555 1_555
H19_3 C36_3 1_555 1_555
C39_3 C33_3 1_555 1_555
C40_3 N5_3 1_555 1_555
H22_3 C40_3 1_555 1_555
C42_3 C30_3 1_555 1_555
C43_3 C36_3 1_555 1_555
H24_3 C43_3 1_555 1_555
C45_5 C29_5 1_555 1_555
H26_5 C45_5 1_555 1_555
H28_3 C48_3 1_555 1_555
O5_3 Co1 1_555 1_555
O6_3 Co1 1_555 1_555
C9_3 C11_3 1_555 1_555
C15_3 C19_3 1_555 1_555
C21_5 C24_3 1_555 1_555
C33_3 C35_3 1_555 1_555
C39_3 C43_3 1_555 1_555
C45_5 C48_3 1_555 1_555
O6_3 C34_5 1_555 1_555
O4_3 C34_5 1_555 1_555
C27_5 C34_5 1_555 1_555
H16_4 C31_4 1_555 1_555
C33_4 C31_4 1_555 1_555
C36_4 C27_5 1_555 1_555
H19_4 C36_4 1_555 1_555
C37_5 C27_5 1_555 1_555
H20_3 C37_5 1_555 1_555
C38_5 C37_5 1_555 1_555
H21_5 C38_5 1_555 1_555
C39_4 C33_4 1_555 1_555
H22_4 C40_4 1_555 1_555
C43_4 C36_4 1_555 1_555
C44_5 C26_4 1_555 1_555
H25_5 C44_5 1_555 1_555
C46_5 C40_4 1_555 1_555
H27_5 C46_5 1_555 1_555
C38_5 C39_4 1_555 1_555
C39_4 C43_4 1_555 1_555
C44_5 C46_5 1_555 1_555
O5_3 C34_6 1_555 1_555
O4_4 C34_6 1_555 1_555
C27_6 C34_6 1_555 1_555
H16_5 C31_5 1_555 1_555
C33_5 C31_5 1_555 1_555
C36_5 C27_6 1_555 1_555
H19_5 C36_5 1_555 1_555
C37_6 C27_6 1_555 1_555
H20_4 C37_6 1_555 1_555
C38_6 C37_6 1_555 1_555
H21_6 C38_6 1_555 1_555
C39_5 C33_5 1_555 1_555
H22_5 C40_5 1_555 1_555
C43_5 C36_5 1_555 1_555
C44_6 C26_5 1_555 1_555
H25_6 C44_6 1_555 1_555
C46_6 C40_5 1_555 1_555
H27_6 C46_6 1_555 1_555
C38_6 C39_5 1_555 1_555
C39_5 C43_5 1_555 1_555
C44_6 C46_6 1_555 1_555
N3_3 C23_3 1_555 1_555
C23_3 C17_3 1_555 1_555
N6_3 C47_3 1_555 1_555
C47_3 C41_3 1_555 1_555
Co1_2 N2_4 1_555 1_555
N1_4 C1_4 1_555 1_555
N2_4 C8_4 1_555 1_555
C1_4 C2_4 1_555 1_555
C2_4 C8_4 1_555 1_555
C4_4 N1_4 1_555 1_555
C5_6 C4_4 1_555 1_555
C6_4 C5_6 1_555 1_555
H1_4 C6_4 1_555 1_555
C7_4 C1_4 1_555 1_555
H2_4 C7_4 1_555 1_555
C8_4 H3_4 1_555 1_555
C9_4 C7_4 1_555 1_555
C11_4 C4_4 1_555 1_555
H4_4 C11_4 1_555 1_555
H5_4 C12_4 1_555 1_555
C15_4 C9_4 1_555 1_555
C16_4 N2_4 1_555 1_555
H8_4 C16_4 1_555 1_555
C18_4 C6_4 1_555 1_555
C19_4 C12_4 1_555 1_555
H10_4 C19_4 1_555 1_555
C21_6 C5_6 1_555 1_555
H12_6 C21_6 1_555 1_555
H14_4 C24_4 1_555 1_555
N4_4 C25_4 1_555 1_555
N5_4 Co1_2 1_555 1_555
C25_4 C26_6 1_555 1_555
C26_6 C32_4 1_555 1_555
C28_4 N4_4 1_555 1_555
C29_6 C28_4 1_555 1_555
C30_4 C29_6 1_555 1_555
H15_4 C30_4 1_555 1_555
C31_6 C25_4 1_555 1_555
H16_6 C31_6 1_555 1_555
C32_4 N5_4 1_555 1_555
H17_4 C32_4 1_555 1_555
C33_6 C31_6 1_555 1_555
C35_4 C28_4 1_555 1_555
H18_4 C35_4 1_555 1_555
H19_6 C36_6 1_555 1_555
C39_6 C33_6 1_555 1_555
C40_6 N5_4 1_555 1_555
H22_6 C40_6 1_555 1_555
C42_4 C30_4 1_555 1_555
C43_6 C36_6 1_555 1_555
H24_4 C43_6 1_555 1_555
C45_6 C29_6 1_555 1_555
H26_6 C45_6 1_555 1_555
H28_4 C48_4 1_555 1_555
O5_4 Co1_2 1_555 1_555
O6_4 Co1_2 1_555 1_555
C9_4 C11_4 1_555 1_555
C15_4 C19_4 1_555 1_555
C21_6 C24_4 1_555 1_555
C33_6 C35_4 1_555 1_555
C39_6 C43_6 1_555 1_555
C45_6 C48_4 1_555 1_555
O6_4 C10_5 1_555 1_555
O2_3 C10_5 1_555 1_555
C3_5 C10_5 1_555 1_555
H2_5 C7_5 1_555 1_555
C9_5 C7_5 1_555 1_555
C12_5 C3_5 1_555 1_555
H5_5 C12_5 1_555 1_555
C13_5 C3_5 1_555 1_555
H6_3 C13_5 1_555 1_555
C14_5 C13_5 1_555 1_555
H7_5 C14_5 1_555 1_555
C15_5 C9_5 1_555 1_555
H8_5 C16_5 1_555 1_555
C19_5 C12_5 1_555 1_555
C20_5 C2_5 1_555 1_555
H11_5 C20_5 1_555 1_555
C22_5 C16_5 1_555 1_555
H13_5 C22_5 1_555 1_555
C14_5 C15_5 1_555 1_555
C15_5 C19_5 1_555 1_555
C20_5 C22_5 1_555 1_555
O5_4 C10_6 1_555 1_555
O2_4 C10_6 1_555 1_555
C3_6 C10_6 1_555 1_555
H2_6 C7_6 1_555 1_555
C9_6 C7_6 1_555 1_555
C12_6 C3_6 1_555 1_555
H5_6 C12_6 1_555 1_555
C13_6 C3_6 1_555 1_555
H6_4 C13_6 1_555 1_555
C14_6 C13_6 1_555 1_555
H7_6 C14_6 1_555 1_555
C15_6 C9_6 1_555 1_555
H8_6 C16_6 1_555 1_555
C19_6 C12_6 1_555 1_555
C20_6 C2_6 1_555 1_555
H11_6 C20_6 1_555 1_555
C22_6 C16_6 1_555 1_555
H13_6 C22_6 1_555 1_555
C14_6 C15_6 1_555 1_555
C15_6 C19_6 1_555 1_555
C20_6 C22_6 1_555 1_555
N3_4 C23_4 1_555 1_555
C23_4 C17_4 1_555 1_555
N6_4 C47_4 1_555 1_555
C47_4 C41_4 1_555 1_555
C6_5 C5_7 1_555 1_555
H1_5 C6_5 1_555 1_555
C17_5 C18_5 1_555 1_555
C18_5 C6_5 1_555 1_555
H9_5 C18_5 1_555 1_555
C21_7 C5_7 1_555 1_555
H12_7 C21_7 1_555 1_555
C23_5 C17_5 1_555 1_555
C24_5 C17_5 1_555 1_555
H14_5 C24_5 1_555 1_555
N4_5 C25_5 1_555 1_555
N5_5 Co1_3 1_555 1_555
C28_5 N4_5 1_555 1_555
C32_5 N5_5 1_555 1_555
H17_5 C32_5 1_555 1_555
C35_5 C28_5 1_555 1_555
H18_5 C35_5 1_555 1_555
O6_5 Co1_3 1_555 1_555
C21_7 C24_5 1_555 1_555
Co1_4 N2_5 1_555 1_555
N1_5 C1_5 1_555 1_555
N2_5 C8_5 1_555 1_555
C4_5 N1_5 1_555 1_555
C8_5 H3_5 1_555 1_555
C11_5 C4_5 1_555 1_555
H4_5 C11_5 1_555 1_555
C30_5 C29_7 1_555 1_555
H15_5 C30_5 1_555 1_555
C41_5 C42_5 1_555 1_555
C42_5 C30_5 1_555 1_555
H23_5 C42_5 1_555 1_555
C45_7 C29_7 1_555 1_555
H26_7 C45_7 1_555 1_555
C47_5 C41_5 1_555 1_555
C48_5 C41_5 1_555 1_555
H28_5 C48_5 1_555 1_555
O5_5 Co1_4 1_555 1_555
C45_7 C48_5 1_555 1_555
N4_6 C25_6 1_555 1_555
N5_6 Co1_5 1_555 1_555
C28_6 N4_6 1_555 1_555
C29_8 C28_6 1_555 1_555
C30_6 C29_8 1_555 1_555
H15_6 C30_6 1_555 1_555
C32_6 N5_6 1_555 1_555
H17_6 C32_6 1_555 1_555
C35_6 C28_6 1_555 1_555
H18_6 C35_6 1_555 1_555
C41_6 C42_6 1_555 1_555
C42_6 C30_6 1_555 1_555
H23_6 C42_6 1_555 1_555
C45_8 C29_8 1_555 1_555
H26_8 C45_8 1_555 1_555
C47_6 C41_6 1_555 1_555
C48_6 C41_6 1_555 1_555
H28_6 C48_6 1_555 1_555
O5_6 Co1_5 1_555 1_555
C45_8 C48_6 1_555 1_555
Co1_6 N2_6 1_555 1_555
N1_6 C1_6 1_555 1_555
N2_6 C8_6 1_555 1_555
C4_6 N1_6 1_555 1_555
C5_8 C4_6 1_555 1_555
C6_6 C5_8 1_555 1_555
H1_6 C6_6 1_555 1_555
C8_6 H3_6 1_555 1_555
C11_6 C4_6 1_555 1_555
H4_6 C11_6 1_555 1_555
C17_6 C18_6 1_555 1_555
C18_6 C6_6 1_555 1_555
H9_6 C18_6 1_555 1_555
C21_8 C5_8 1_555 1_555
H12_8 C21_8 1_555 1_555
C23_6 C17_6 1_555 1_555
C24_6 C17_6 1_555 1_555
H14_6 C24_6 1_555 1_555
O6_6 Co1_6 1_555 1_555
C21_8 C24_6 1_555 1_555
Co1_7 N2_7 1_555 1_555
O5_5 C10_7 1_555 1_555
N1_7 C1_7 1_555 1_555
O2_5 C10_7 1_555 1_555
N2_7 C8_7 1_555 1_555
C1_7 C2_7 1_555 1_555
C2_7 C8_7 1_555 1_555
C3_7 C10_7 1_555 1_555
C4_7 N1_7 1_555 1_555
C7_7 C1_7 1_555 1_555
H2_7 C7_7 1_555 1_555
C8_7 H3_7 1_555 1_555
C9_7 C7_7 1_555 1_555
C11_7 C4_7 1_555 1_555
H4_7 C11_7 1_555 1_555
C12_7 C3_7 1_555 1_555
H5_7 C12_7 1_555 1_555
C13_7 C3_7 1_555 1_555
H6_5 C13_7 1_555 1_555
C14_7 C13_7 1_555 1_555
H7_7 C14_7 1_555 1_555
C15_7 C9_7 1_555 1_555
C16_7 N2_7 1_555 1_555
H8_7 C16_7 1_555 1_555
C19_7 C12_7 1_555 1_555
H10_7 C19_7 1_555 1_555
C20_7 C2_7 1_555 1_555
H11_7 C20_7 1_555 1_555
C22_7 C16_7 1_555 1_555
H13_7 C22_7 1_555 1_555
O5_6 C34_7 1_555 1_555
N4_7 C25_7 1_555 1_555
O4_5 C34_7 1_555 1_555
N5_7 Co1_7 1_555 1_555
C25_7 C26_7 1_555 1_555
C26_7 C32_7 1_555 1_555
C27_7 C34_7 1_555 1_555
C28_7 N4_7 1_555 1_555
C31_7 C25_7 1_555 1_555
H16_7 C31_7 1_555 1_555
C32_7 N5_7 1_555 1_555
H17_7 C32_7 1_555 1_555
C33_7 C31_7 1_555 1_555
C35_7 C28_7 1_555 1_555
H18_7 C35_7 1_555 1_555
C36_7 C27_7 1_555 1_555
H19_7 C36_7 1_555 1_555
C37_7 C27_7 1_555 1_555
H20_5 C37_7 1_555 1_555
C38_7 C37_7 1_555 1_555
H21_7 C38_7 1_555 1_555
C39_7 C33_7 1_555 1_555
C40_7 N5_7 1_555 1_555
H22_7 C40_7 1_555 1_555
C43_7 C36_7 1_555 1_555
H24_7 C43_7 1_555 1_555
C44_7 C26_7 1_555 1_555
H25_7 C44_7 1_555 1_555
C46_7 C40_7 1_555 1_555
H27_7 C46_7 1_555 1_555
C9_7 C11_7 1_555 1_555
C14_7 C15_7 1_555 1_555
C15_7 C19_7 1_555 1_555
C20_7 C22_7 1_555 1_555
C33_7 C35_7 1_555 1_555
C38_7 C39_7 1_555 1_555
C39_7 C43_7 1_555 1_555
C44_7 C46_7 1_555 1_555
Co1_8 N2_8 1_555 1_555
O6_5 C10_8 1_555 1_555
N1_8 C1_8 1_555 1_555
O2_6 C10_8 1_555 1_555
N2_8 C8_8 1_555 1_555
C1_8 C2_8 1_555 1_555
C2_8 C8_8 1_555 1_555
C3_8 C10_8 1_555 1_555
C4_8 N1_8 1_555 1_555
C7_8 C1_8 1_555 1_555
H2_8 C7_8 1_555 1_555
C8_8 H3_8 1_555 1_555
C9_8 C7_8 1_555 1_555
C11_8 C4_8 1_555 1_555
H4_8 C11_8 1_555 1_555
C12_8 C3_8 1_555 1_555
H5_8 C12_8 1_555 1_555
C13_8 C3_8 1_555 1_555
H6_6 C13_8 1_555 1_555
C14_8 C13_8 1_555 1_555
H7_8 C14_8 1_555 1_555
C15_8 C9_8 1_555 1_555
C16_8 N2_8 1_555 1_555
H8_8 C16_8 1_555 1_555
C19_8 C12_8 1_555 1_555
H10_8 C19_8 1_555 1_555
C20_8 C2_8 1_555 1_555
H11_8 C20_8 1_555 1_555
C22_8 C16_8 1_555 1_555
H13_8 C22_8 1_555 1_555
O6_6 C34_8 1_555 1_555
N4_8 C25_8 1_555 1_555
O4_6 C34_8 1_555 1_555
N5_8 Co1_8 1_555 1_555
C25_8 C26_8 1_555 1_555
C26_8 C32_8 1_555 1_555
C27_8 C34_8 1_555 1_555
C28_8 N4_8 1_555 1_555
C31_8 C25_8 1_555 1_555
H16_8 C31_8 1_555 1_555
C32_8 N5_8 1_555 1_555
H17_8 C32_8 1_555 1_555
C33_8 C31_8 1_555 1_555
C35_8 C28_8 1_555 1_555
H18_8 C35_8 1_555 1_555
C36_8 C27_8 1_555 1_555
H19_8 C36_8 1_555 1_555
C37_8 C27_8 1_555 1_555
H20_6 C37_8 1_555 1_555
C38_8 C37_8 1_555 1_555
H21_8 C38_8 1_555 1_555
C39_8 C33_8 1_555 1_555
C40_8 N5_8 1_555 1_555
H22_8 C40_8 1_555 1_555
C43_8 C36_8 1_555 1_555
H24_8 C43_8 1_555 1_555
C44_8 C26_8 1_555 1_555
H25_8 C44_8 1_555 1_555
C46_8 C40_8 1_555 1_555
H27_8 C46_8 1_555 1_555
C9_8 C11_8 1_555 1_555
C14_8 C15_8 1_555 1_555
C15_8 C19_8 1_555 1_555
C20_8 C22_8 1_555 1_555
C33_8 C35_8 1_555 1_555
C38_8 C39_8 1_555 1_555
C39_8 C43_8 1_555 1_555
C44_8 C46_8 1_555 1_555
H1_7 C6_7 1_555 1_555
C17_7 C18_7 1_555 1_555
N3_7 C23_7 1_555 1_555
C18_7 C6_7 1_555 1_555
H9_7 C18_7 1_555 1_555
C23_7 C17_7 1_555 1_555
C24_7 C17_7 1_555 1_555
H14_7 C24_7 1_555 1_555
H15_7 C30_7 1_555 1_555
C41_7 C42_7 1_555 1_555
N6_7 C47_7 1_555 1_555
C42_7 C30_7 1_555 1_555
H23_7 C42_7 1_555 1_555
C47_7 C41_7 1_555 1_555
C48_7 C41_7 1_555 1_555
H28_7 C48_7 1_555 1_555
H15_8 C30_8 1_555 1_555
C41_8 C42_8 1_555 1_555
N6_8 C47_8 1_555 1_555
C42_8 C30_8 1_555 1_555
H23_8 C42_8 1_555 1_555
C47_8 C41_8 1_555 1_555
C48_8 C41_8 1_555 1_555
H28_8 C48_8 1_555 1_555
H1_8 C6_8 1_555 1_555
C17_8 C18_8 1_555 1_555
N3_8 C23_8 1_555 1_555
C18_8 C6_8 1_555 1_555
H9_8 C18_8 1_555 1_555
C23_8 C17_8 1_555 1_555
C24_8 C17_8 1_555 1_555
H14_8 C24_8 1_555 1_555

#END
