
###############################################################################
#
# This file contains modified crystal structure data generated from the
# MOF subset of the Cambridge Structural Database (CSD) v543 
# hosted by the Cambridge Crystallographic Data Centre (CCDC).
#
# This work is licensed under the Creative Commons
# Attribution-NonCommercial-ShareAlike 4.0 International License.
# To view a copy of this license, visit
# http://creativecommons.org/licenses/by-nc-sa/4.0/
# or send a letter to
# Creative Commons, PO Box 1866, Mountain View, CA 94042, USA.
#
# CIF created using the CSD Python API on 29 September 2022
# The structure has been converted into the P1 space group
# The structure has a 3D framework
# The original CSD entry ROYDUH is in the orthorhombic crystal system
# The framework has been calculated to contain at least 10.0% void space
# The void calculation uses a probe of radius 1.32A, grid spacing 0.4
#
###############################################################################

data_ROYDUH
_chemical_formula_moiety         '(C384 H224 N48 O32 Zn7)n'
_symmetry_cell_setting           triclinic
_symmetry_space_group_name_H-M   'P 1'
_symmetry_Int_Tables_number      1
_space_group_name_Hall           'P 1'
loop_
_symmetry_equiv_pos_site_id
_symmetry_equiv_pos_as_xyz
1 x,y,z
_cell_length_a                   51.726(5)
_cell_length_b                   29.1071(11)
_cell_length_c                   6.2678(3)
_cell_angle_alpha                90
_cell_angle_beta                 90
_cell_angle_gamma                90
_cell_volume                     9436.76
loop_
_atom_site_label
_atom_site_type_symbol
_atom_site_fract_x
_atom_site_fract_y
_atom_site_fract_z
C32 C 0.13368(12) 0.0195(2) 0.3135(12)
C39 C 0.11343(13) 0.0318(2) 0.1786(14)
H21 H 0.0968 0.0222 0.2115
C45 C 0.15838(14) 0.0355(3) 0.2672(16)
H26 H 0.1722 0.0285 0.3568
C48 C 0.16236(16) 0.0625(3) 0.0843(16)
H28 H 0.1789 0.0732 0.0532
Zn3 Zn 0.0000 -0.0000 0.5154(2)
O3 O 0.01869(9) 0.04236(16) 0.3244(9)
O4 O 0.02866(10) 0.07340(19) 0.6364(10)
C26 C 0.05014(12) 0.1019(2) 0.3295(13)
C27 C 0.17835(12) 0.2074(2) 0.0508(12)
C28 C 0.07085(13) 0.1189(3) 0.4456(13)
H15 H 0.0726 0.1112 0.5888
C29 C 0.03109(12) 0.0710(2) 0.4416(12)
C34 C 0.08596(11) 0.16086(19) 0.1403(12)
C35 C 0.08893(13) 0.1473(3) 0.3505(13)
H18 H 0.1032 0.1573 0.4282
C36 C 0.13202(12) 0.1862(2) 0.0920(12)
H19 H 0.1366 0.1684 0.2093
C37 C 0.10622(11) 0.1885(2) 0.0293(12)
C38 C 0.04723(12) 0.1148(2) 0.1189(13)
H20 H 0.0333 0.1035 0.0409
C41 C 0.06479(12) 0.1447(2) 0.0206(13)
C42 C 0.22981(13) 0.2047(3) 0.1535(14)
H23 H 0.2473 0.2032 0.1869
C44 C 0.18624(13) 0.1907(3) 0.2506(14)
H25 H 0.1741 0.1799 0.3474
C46 C 0.21217(14) 0.1905(2) 0.3028(14)
H27 H 0.2176 0.1808 0.4370
C40 C 0.14213(15) 0.0734(2) 0.9502(13)
N6 N 0.1494(2) 0.1240(3) 0.6195(14)
C43 C 0.11733(16) 0.0578(2) 0.9982(14)
H24 H 0.1035 0.0650 0.9091
C47 C 0.1463(2) 0.1015(3) 0.7605(17)
Zn1 Zn 0.2500 0.7500 0.2654(2)
O1 O 0.26869(9) 0.70764(16) 0.0744(9)
O2 O 0.27866(10) 0.67660(19) 0.3864(10)
C2 C 0.30014(12) 0.6481(2) 0.0795(13)
C4 C 0.32085(13) 0.6311(3) 0.1956(13)
H1 H 0.3226 0.6388 0.3388
C5 C 0.28109(12) 0.6790(2) 0.1916(12)
C11 C 0.33893(13) 0.6027(3) 0.1005(13)
H4 H 0.3532 0.5927 0.1782
C20 C 0.43624(13) 0.5593(3) 0.0006(14)
H11 H 0.4241 0.5701 0.0974
C22 C 0.46217(14) 0.5595(2) 0.0528(14)
H13 H 0.4676 0.5692 0.1870
O3_2 O 0.23131(9) 0.79236(16) 0.0744(9)
O4_2 O 0.22134(10) 0.82340(19) 0.3864(10)
C26_2 C 0.19986(12) 0.8519(2) 0.0795(13)
C28_2 C 0.17915(13) 0.8689(3) 0.1956(13)
H15_2 H 0.1774 0.8612 0.3388
C29_2 C 0.21891(12) 0.8210(2) 0.1916(12)
C35_2 C 0.16107(13) 0.8973(3) 0.1005(13)
H18_2 H 0.1468 0.9073 0.1782
C44_2 C 0.06376(13) 0.9407(3) 0.0006(14)
H25_2 H 0.0759 0.9299 0.0974
C46_2 C 0.03783(14) 0.9405(2) 0.0528(14)
H27_2 H 0.0324 0.9308 0.1870
N7 N 0.22285(9) 0.72050(18) 0.4624(10)
N8 N 0.27715(9) 0.77950(18) 0.4624(10)
O3_3 O 0.48131(9) 0.95764(16) 0.8244(9)
N4 N 0.35448(10) 0.76323(19) 0.3176(10)
C25 C 0.34919(12) 0.7901(2) 0.4831(11)
C26_3 C 0.44986(12) 0.8981(2) 0.8295(13)
C27_2 C 0.32165(12) 0.7926(2) 0.5508(12)
C28_3 C 0.42915(13) 0.8811(3) 0.9456(13)
C29_3 C 0.46891(12) 0.9290(2) 0.9416(12)
C30 C 0.37887(12) 0.7598(2) 0.2542(14)
C31 C 0.39895(12) 0.7834(2) 0.3551(13)
H16 H 0.4158 0.7803 0.3056
C32_2 C 0.38368(12) 0.7305(2) 0.0635(12)
C33 C 0.30220(11) 0.7783(2) 0.4128(12)
H17 H 0.3069 0.7674 0.2789
C34_2 C 0.41404(11) 0.83914(19) 0.6403(12)
C35_3 C 0.41107(13) 0.8527(3) 0.8505(13)
H18_3 H 0.3968 0.8427 0.9282
C36_2 C 0.36798(12) 0.8138(2) 0.5920(12)
H19_2 H 0.3634 0.8316 0.7093
C37_2 C 0.39378(11) 0.8115(2) 0.5293(12)
C38_2 C 0.45277(12) 0.8852(2) 0.6189(13)
H20_2 H 0.4667 0.8965 0.5409
C41_2 C 0.43521(12) 0.8553(2) 0.5206(13)
H22 H 0.4375 0.8464 0.3793
C42_2 C 0.27019(13) 0.7953(3) 0.6535(14)
H23_2 H 0.2527 0.7968 0.6869
C44_3 C 0.31376(13) 0.8093(3) 0.7506(14)
H25_3 H 0.3259 0.8201 0.8474
C45_2 C 0.40838(14) 0.7145(3) 0.0172(16)
H26_2 H 0.4222 0.7215 0.1068
C46_3 C 0.28783(14) 0.8095(2) 0.8028(14)
H27_3 H 0.2824 0.8192 0.9370
O3_4 O 0.01869(9) 0.54236(16) 0.8244(9)
N4_2 N 0.14552(10) 0.73677(19) 0.3176(10)
C25_2 C 0.15081(12) 0.7099(2) 0.4831(11)
C26_4 C 0.05014(12) 0.6019(2) 0.8295(13)
C27_3 C 0.17835(12) 0.7074(2) 0.5508(12)
C28_4 C 0.07085(13) 0.6189(3) 0.9456(13)
C29_4 C 0.03109(12) 0.5710(2) 0.9416(12)
C30_2 C 0.12113(12) 0.7402(2) 0.2542(14)
C31_2 C 0.10105(12) 0.7166(2) 0.3551(13)
H16_2 H 0.0842 0.7197 0.3056
C32_3 C 0.11632(12) 0.7695(2) 0.0635(12)
C33_2 C 0.19780(11) 0.7217(2) 0.4128(12)
H17_2 H 0.1931 0.7326 0.2789
C34_3 C 0.08596(11) 0.66086(19) 0.6403(12)
C35_4 C 0.08893(13) 0.6473(3) 0.8505(13)
H18_4 H 0.1032 0.6573 0.9282
C36_3 C 0.13202(12) 0.6862(2) 0.5920(12)
H19_3 H 0.1366 0.6684 0.7093
C37_3 C 0.10622(11) 0.6885(2) 0.5293(12)
C38_3 C 0.04723(12) 0.6148(2) 0.6189(13)
H20_3 H 0.0333 0.6035 0.5409
C41_3 C 0.06479(12) 0.6447(2) 0.5206(13)
H22_2 H 0.0625 0.6536 0.3793
C42_3 C 0.22981(13) 0.7047(3) 0.6535(14)
H23_3 H 0.2473 0.7032 0.6869
C44_4 C 0.18624(13) 0.6907(3) 0.7506(14)
H25_4 H 0.1741 0.6799 0.8474
C45_3 C 0.09162(14) 0.7855(3) 0.0172(16)
H26_3 H 0.0778 0.7785 0.1068
C46_4 C 0.21217(14) 0.6905(2) 0.8028(14)
H27_4 H 0.2176 0.6808 0.9370
N1 N 0.39552(10) 0.51323(19) 0.5676(10)
N2 N 0.47285(9) 0.52950(18) 0.7124(10)
C1 C 0.40081(12) 0.5401(2) 0.7331(11)
C3 C 0.42835(12) 0.5426(2) 0.8008(12)
C6 C 0.37113(12) 0.5098(2) 0.5042(14)
C7 C 0.35105(12) 0.5334(2) 0.6051(13)
H2 H 0.3342 0.5303 0.5556
C8 C 0.36632(12) 0.4805(2) 0.3135(12)
C9 C 0.44780(11) 0.5283(2) 0.6628(12)
H3 H 0.4431 0.5174 0.5289
C10 C 0.33596(11) 0.58914(19) 0.8903(12)
C12 C 0.38202(12) 0.5638(2) 0.8420(12)
H5 H 0.3866 0.5816 0.9593
C13 C 0.35622(11) 0.5615(2) 0.7793(12)
C14 C 0.29723(12) 0.6352(2) 0.8689(13)
H6 H 0.2833 0.6465 0.7909
C15 C 0.38657(13) 0.4682(2) 0.1786(14)
H7 H 0.4032 0.4778 0.2115
C17 C 0.31479(12) 0.6053(2) 0.7706(13)
H8 H 0.3125 0.5964 0.6293
C18 C 0.47981(13) 0.5453(3) 0.9035(14)
H9 H 0.4973 0.5468 0.9369
C21 C 0.34162(14) 0.4645(3) 0.2672(16)
H12 H 0.3278 0.4715 0.3568
C24 C 0.33764(16) 0.4375(3) 0.0843(16)
H14 H 0.3211 0.4268 0.0532
N4_3 N 0.10448(10) 0.98677(19) 0.5676(10)
N5 N 0.02715(9) 0.97050(18) 0.7124(10)
C25_3 C 0.09919(12) 0.9599(2) 0.7331(11)
C27_4 C 0.07165(12) 0.9574(2) 0.8008(12)
C30_3 C 0.12887(12) 0.9902(2) 0.5042(14)
C31_3 C 0.14895(12) 0.9666(2) 0.6051(13)
H16_3 H 0.1658 0.9697 0.5556
C33_3 C 0.05220(11) 0.9717(2) 0.6628(12)
H17_3 H 0.0569 0.9826 0.5289
C34_4 C 0.16404(11) 0.91086(19) 0.8903(12)
C36_4 C 0.11798(12) 0.9362(2) 0.8420(12)
H19_4 H 0.1134 0.9184 0.9593
C37_4 C 0.14378(11) 0.9385(2) 0.7793(12)
C38_4 C 0.20277(12) 0.8648(2) 0.8689(13)
H20_4 H 0.2167 0.8535 0.7909
C41_4 C 0.18521(12) 0.8947(2) 0.7706(13)
H22_3 H 0.1875 0.9036 0.6293
C42_4 C 0.02019(13) 0.9547(3) 0.9035(14)
H23_4 H 0.0027 0.9532 0.9369
Zn2 Zn 0.5000 0.5000 0.5154(2)
Zn3_2 Zn 0.0000 1.0000 0.5154(2)
Zn3_3 Zn 1.0000 -0.0000 0.5154(2)
N1_2 N 0.60448(10) 0.48677(19) 0.5676(10)
N2_2 N 0.52715(9) 0.47050(18) 0.7124(10)
C1_2 C 0.59919(12) 0.4599(2) 0.7331(11)
C3_2 C 0.57165(12) 0.4574(2) 0.8008(12)
C6_2 C 0.62887(12) 0.4902(2) 0.5042(14)
C7_2 C 0.64895(12) 0.4666(2) 0.6051(13)
H2_2 H 0.6658 0.4697 0.5556
C8_2 C 0.63368(12) 0.5195(2) 0.3135(12)
C9_2 C 0.55220(11) 0.4717(2) 0.6628(12)
H3_2 H 0.5569 0.4826 0.5289
C10_2 C 0.66404(11) 0.41086(19) 0.8903(12)
C12_2 C 0.61798(12) 0.4362(2) 0.8420(12)
H5_2 H 0.6134 0.4184 0.9593
C13_2 C 0.64378(11) 0.4385(2) 0.7793(12)
C14_2 C 0.70277(12) 0.3648(2) 0.8689(13)
H6_2 H 0.7167 0.3535 0.7909
C15_2 C 0.61343(13) 0.5318(2) 0.1786(14)
H7_2 H 0.5968 0.5222 0.2115
C17_2 C 0.68521(12) 0.3947(2) 0.7706(13)
H8_2 H 0.6875 0.4036 0.6293
C18_2 C 0.52019(13) 0.4547(3) 0.9035(14)
H9_2 H 0.5027 0.4532 0.9369
C21_2 C 0.65838(14) 0.5355(3) 0.2672(16)
H12_2 H 0.6722 0.5285 0.3568
C24_2 C 0.66236(16) 0.5625(3) 0.0843(16)
H14_2 H 0.6789 0.5732 0.0532
N4_4 N 0.89552(10) 0.01323(19) 0.5676(10)
N5_2 N 0.97285(9) 0.02950(18) 0.7124(10)
C25_4 C 0.90081(12) 0.0401(2) 0.7331(11)
C27_5 C 0.92835(12) 0.0426(2) 0.8008(12)
C30_4 C 0.87113(12) 0.0098(2) 0.5042(14)
C31_4 C 0.85105(12) 0.0334(2) 0.6051(13)
H16_4 H 0.8342 0.0303 0.5556
C33_4 C 0.94780(11) 0.0283(2) 0.6628(12)
H17_4 H 0.9431 0.0174 0.5289
C34_5 C 0.83596(11) 0.08914(19) 0.8903(12)
C36_5 C 0.88202(12) 0.0638(2) 0.8420(12)
H19_5 H 0.8866 0.0816 0.9593
C37_5 C 0.85622(11) 0.0615(2) 0.7793(12)
C38_5 C 0.79723(12) 0.1352(2) 0.8689(13)
H20_5 H 0.7833 0.1465 0.7909
C41_5 C 0.81479(12) 0.1053(2) 0.7706(13)
H22_4 H 0.8125 0.0964 0.6293
C42_5 C 0.97981(13) 0.0453(3) 0.9035(14)
H23_5 H 0.9973 0.0468 0.9369
O1_2 O 0.51869(9) 0.54236(16) 0.3244(9)
O2_2 O 0.52866(10) 0.57340(19) 0.6364(10)
C2_2 C 0.55014(12) 0.6019(2) 0.3295(13)
C3_3 C 0.67835(12) 0.7074(2) 0.0508(12)
C4_2 C 0.57085(13) 0.6189(3) 0.4456(13)
H1_2 H 0.5726 0.6112 0.5888
C5_2 C 0.53109(12) 0.5710(2) 0.4416(12)
C10_3 C 0.58596(11) 0.66086(19) 0.1403(12)
C11_2 C 0.58893(13) 0.6473(3) 0.3505(13)
H4_2 H 0.6032 0.6573 0.4282
C12_3 C 0.63202(12) 0.6862(2) 0.0920(12)
H5_3 H 0.6366 0.6684 0.2093
C13_3 C 0.60622(11) 0.6885(2) 0.0293(12)
C14_3 C 0.54723(12) 0.6148(2) 0.1189(13)
H6_3 H 0.5333 0.6035 0.0409
C17_3 C 0.56479(12) 0.6447(2) 0.0206(13)
C18_3 C 0.72981(13) 0.7047(3) 0.1535(14)
H9_3 H 0.7473 0.7032 0.1869
C20_2 C 0.68624(13) 0.6907(3) 0.2506(14)
H11_2 H 0.6741 0.6799 0.3474
C22_2 C 0.71217(14) 0.6905(2) 0.3028(14)
H13_2 H 0.7176 0.6808 0.4370
O3_5 O 0.48131(9) 0.45764(16) 0.3244(9)
O4_3 O 0.47134(10) 0.42660(19) 0.6364(10)
C26_5 C 0.44986(12) 0.3981(2) 0.3295(13)
C27_6 C 0.32165(12) 0.2926(2) 0.0508(12)
C28_5 C 0.42915(13) 0.3811(3) 0.4456(13)
H15_3 H 0.4274 0.3888 0.5888
C29_5 C 0.46891(12) 0.4290(2) 0.4416(12)
C34_6 C 0.41404(11) 0.33914(19) 0.1403(12)
C35_5 C 0.41107(13) 0.3527(3) 0.3505(13)
H18_5 H 0.3968 0.3427 0.4282
C36_6 C 0.36798(12) 0.3138(2) 0.0920(12)
H19_6 H 0.3634 0.3316 0.2093
C37_6 C 0.39378(11) 0.3115(2) 0.0293(12)
C38_6 C 0.45277(12) 0.3852(2) 0.1189(13)
H20_6 H 0.4667 0.3965 0.0409
C41_6 C 0.43521(12) 0.3553(2) 0.0206(13)
C42_6 C 0.27019(13) 0.2953(3) 0.1535(14)
H23_6 H 0.2527 0.2968 0.1869
C44_5 C 0.31376(13) 0.3093(3) 0.2506(14)
H25_5 H 0.3259 0.3201 0.3474
C46_5 C 0.28783(14) 0.3095(2) 0.3028(14)
H27_5 H 0.2824 0.3192 0.4370
C16 C 0.35787(15) 0.4266(2) 0.9502(13)
N3 N 0.3506(2) 0.3760(3) 0.6195(14)
C19 C 0.38267(16) 0.4422(2) 0.9982(14)
H10 H 0.3965 0.4350 0.9091
C23 C 0.3537(2) 0.3985(3) 0.7605(17)
Zn3_4 Zn 1.0000 1.0000 0.5154(2)
C32_4 C 0.86632(12) 0.9805(2) 0.3135(12)
C39_2 C 0.88657(13) 0.9682(2) 0.1786(14)
H21_2 H 0.9032 0.9778 0.2115
C45_4 C 0.84162(14) 0.9645(3) 0.2672(16)
H26_4 H 0.8278 0.9715 0.3568
C48_2 C 0.83764(16) 0.9375(3) 0.0843(16)
H28_2 H 0.8211 0.9268 0.0532
O1_3 O 0.98131(9) 0.95764(16) 0.3244(9)
O2_3 O 0.97134(10) 0.92660(19) 0.6364(10)
C2_3 C 0.94986(12) 0.8981(2) 0.3295(13)
C3_4 C 0.82165(12) 0.7926(2) 0.0508(12)
C4_3 C 0.92915(13) 0.8811(3) 0.4456(13)
H1_3 H 0.9274 0.8888 0.5888
C5_3 C 0.96891(12) 0.9290(2) 0.4416(12)
C10_4 C 0.91404(11) 0.83914(19) 0.1403(12)
C11_3 C 0.91107(13) 0.8527(3) 0.3505(13)
H4_3 H 0.8968 0.8427 0.4282
C12_4 C 0.86798(12) 0.8138(2) 0.0920(12)
H5_4 H 0.8634 0.8316 0.2093
C13_4 C 0.89378(11) 0.8115(2) 0.0293(12)
C14_4 C 0.95277(12) 0.8852(2) 0.1189(13)
H6_4 H 0.9667 0.8965 0.0409
C17_4 C 0.93521(12) 0.8553(2) 0.0206(13)
C18_4 C 0.77019(13) 0.7953(3) 0.1535(14)
H9_4 H 0.7527 0.7968 0.1869
C20_3 C 0.81376(13) 0.8093(3) 0.2506(14)
H11_3 H 0.8259 0.8201 0.3474
C22_3 C 0.78783(14) 0.8095(2) 0.3028(14)
H13_3 H 0.7824 0.8192 0.4370
Zn1_2 Zn 0.7500 0.2500 0.2654(2)
O1_4 O 0.73131(9) 0.29236(16) 0.0744(9)
O2_4 O 0.72134(10) 0.32340(19) 0.3864(10)
C2_4 C 0.69986(12) 0.3519(2) 0.0795(13)
C4_4 C 0.67915(13) 0.3689(3) 0.1956(13)
H1_4 H 0.6774 0.3612 0.3388
C5_4 C 0.71891(12) 0.3210(2) 0.1916(12)
C11_4 C 0.66107(13) 0.3973(3) 0.1005(13)
H4_4 H 0.6468 0.4073 0.1782
C20_4 C 0.56376(13) 0.4407(3) 0.0006(14)
H11_4 H 0.5759 0.4299 0.0974
C22_4 C 0.53783(14) 0.4405(2) 0.0528(14)
H13_4 H 0.5324 0.4308 0.1870
O3_6 O 0.76869(9) 0.20764(16) 0.0744(9)
O4_4 O 0.77866(10) 0.17660(19) 0.3864(10)
C26_6 C 0.80014(12) 0.1481(2) 0.0795(13)
C28_6 C 0.82085(13) 0.1311(3) 0.1956(13)
H15_4 H 0.8226 0.1388 0.3388
C29_6 C 0.78109(12) 0.1790(2) 0.1916(12)
C35_6 C 0.83893(13) 0.1027(3) 0.1005(13)
H18_6 H 0.8532 0.0927 0.1782
C44_6 C 0.93624(13) 0.0593(3) 0.0006(14)
H25_6 H 0.9241 0.0701 0.0974
C46_6 C 0.96217(14) 0.0595(2) 0.0528(14)
H27_6 H 0.9676 0.0692 0.1870
N7_2 N 0.77715(9) 0.27950(18) 0.4624(10)
N8_2 N 0.72285(9) 0.22050(18) 0.4624(10)
O1_5 O 0.51869(9) 0.04236(16) 0.8244(9)
N1_3 N 0.64552(10) 0.23677(19) 0.3176(10)
C1_3 C 0.65081(12) 0.2099(2) 0.4831(11)
C2_5 C 0.55014(12) 0.1019(2) 0.8295(13)
C3_5 C 0.67835(12) 0.2074(2) 0.5508(12)
C4_5 C 0.57085(13) 0.1189(3) 0.9456(13)
C5_5 C 0.53109(12) 0.0710(2) 0.9416(12)
C6_3 C 0.62113(12) 0.2402(2) 0.2542(14)
C7_3 C 0.60105(12) 0.2166(2) 0.3551(13)
H2_3 H 0.5842 0.2197 0.3056
C8_3 C 0.61632(12) 0.2695(2) 0.0635(12)
C9_3 C 0.69780(11) 0.2217(2) 0.4128(12)
H3_3 H 0.6931 0.2326 0.2789
C10_5 C 0.58596(11) 0.16086(19) 0.6403(12)
C11_5 C 0.58893(13) 0.1473(3) 0.8505(13)
H4_5 H 0.6032 0.1573 0.9282
C12_5 C 0.63202(12) 0.1862(2) 0.5920(12)
H5_5 H 0.6366 0.1684 0.7093
C13_5 C 0.60622(11) 0.1885(2) 0.5293(12)
C14_5 C 0.54723(12) 0.1148(2) 0.6189(13)
H6_5 H 0.5333 0.1035 0.5409
C17_5 C 0.56479(12) 0.1447(2) 0.5206(13)
H8_3 H 0.5625 0.1536 0.3793
C18_5 C 0.72981(13) 0.2047(3) 0.6535(14)
H9_5 H 0.7473 0.2032 0.6869
C20_5 C 0.68624(13) 0.1907(3) 0.7506(14)
H11_5 H 0.6741 0.1799 0.8474
C21_3 C 0.59162(14) 0.2855(3) 0.0172(16)
H12_3 H 0.5778 0.2785 0.1068
C22_5 C 0.71217(14) 0.1905(2) 0.8028(14)
H13_5 H 0.7176 0.1808 0.9370
O1_6 O 0.98131(9) 0.45764(16) 0.8244(9)
N1_4 N 0.85448(10) 0.26323(19) 0.3176(10)
C1_4 C 0.84919(12) 0.2901(2) 0.4831(11)
C2_6 C 0.94986(12) 0.3981(2) 0.8295(13)
C3_6 C 0.82165(12) 0.2926(2) 0.5508(12)
C4_6 C 0.92915(13) 0.3811(3) 0.9456(13)
C5_6 C 0.96891(12) 0.4290(2) 0.9416(12)
C6_4 C 0.87887(12) 0.2598(2) 0.2542(14)
C7_4 C 0.89895(12) 0.2834(2) 0.3551(13)
H2_4 H 0.9158 0.2803 0.3056
C8_4 C 0.88368(12) 0.2305(2) 0.0635(12)
C9_4 C 0.80220(11) 0.2783(2) 0.4128(12)
H3_4 H 0.8069 0.2674 0.2789
C10_6 C 0.91404(11) 0.33914(19) 0.6403(12)
C11_6 C 0.91107(13) 0.3527(3) 0.8505(13)
H4_6 H 0.8968 0.3427 0.9282
C12_6 C 0.86798(12) 0.3138(2) 0.5920(12)
H5_6 H 0.8634 0.3316 0.7093
C13_6 C 0.89378(11) 0.3115(2) 0.5293(12)
C14_6 C 0.95277(12) 0.3852(2) 0.6189(13)
H6_6 H 0.9667 0.3965 0.5409
C17_6 C 0.93521(12) 0.3553(2) 0.5206(13)
H8_4 H 0.9375 0.3464 0.3793
C18_6 C 0.77019(13) 0.2953(3) 0.6535(14)
H9_6 H 0.7527 0.2968 0.6869
C20_6 C 0.81376(13) 0.3093(3) 0.7506(14)
H11_6 H 0.8259 0.3201 0.8474
C21_4 C 0.90838(14) 0.2145(3) 0.0172(16)
H12_4 H 0.9222 0.2215 0.1068
C22_6 C 0.78783(14) 0.3095(2) 0.8028(14)
H13_6 H 0.7824 0.3192 0.9370
C16_2 C 0.64213(15) 0.5734(2) 0.9502(13)
N3_2 N 0.6494(2) 0.6240(3) 0.6195(14)
C19_2 C 0.61733(16) 0.5578(2) 0.9982(14)
H10_2 H 0.6035 0.5650 0.9091
C23_2 C 0.6463(2) 0.6015(3) 0.7605(17)
C40_2 C 0.85787(15) 0.9266(2) 0.9502(13)
N6_2 N 0.8506(2) 0.8760(3) 0.6195(14)
C43_2 C 0.88267(16) 0.9422(2) 0.9982(14)
H24_2 H 0.8965 0.9350 0.9091
C47_2 C 0.8537(2) 0.8985(3) 0.7605(17)
N1_5 N 0.64552(10) 0.73677(19) 0.8176(10)
N2_3 N 0.72285(9) 0.72050(18) 0.9624(10)
C1_5 C 0.65081(12) 0.7099(2) 0.9831(11)
C6_5 C 0.62113(12) 0.7402(2) 0.7542(14)
C7_5 C 0.60105(12) 0.7166(2) 0.8551(13)
H2_5 H 0.5842 0.7197 0.8056
C8_5 C 0.61632(12) 0.7695(2) 0.5635(12)
C9_5 C 0.69780(11) 0.7217(2) 0.9128(12)
H3_5 H 0.6931 0.7326 0.7789
C15_3 C 0.63657(13) 0.7818(2) 0.4286(14)
H7_3 H 0.6532 0.7722 0.4615
C16_3 C 0.60787(15) 0.8234(2) 0.2002(13)
H8_5 H 0.5625 0.6536 0.8793
C19_3 C 0.63267(16) 0.8078(2) 0.2482(14)
H10_3 H 0.6465 0.8150 0.1591
C21_5 C 0.59162(14) 0.7855(3) 0.5172(16)
H12_5 H 0.5778 0.7785 0.6068
C23_3 C 0.6037(2) 0.8515(3) 0.0105(17)
C24_3 C 0.58764(16) 0.8125(3) 0.3343(16)
H14_3 H 0.5711 0.8232 0.3032
N4_5 N 0.35448(10) 0.26323(19) 0.8176(10)
N5_3 N 0.27715(9) 0.27950(18) 0.9624(10)
C25_5 C 0.34919(12) 0.2901(2) 0.9831(11)
C30_5 C 0.37887(12) 0.2598(2) 0.7542(14)
C31_5 C 0.39895(12) 0.2834(2) 0.8551(13)
H16_5 H 0.4158 0.2803 0.8056
C32_5 C 0.38368(12) 0.2305(2) 0.5635(12)
C33_5 C 0.30220(11) 0.2783(2) 0.9128(12)
H17_5 H 0.3069 0.2674 0.7789
C39_3 C 0.36343(13) 0.2182(2) 0.4286(14)
H21_3 H 0.3468 0.2278 0.4615
C40_3 C 0.39213(15) 0.1766(2) 0.2002(13)
H22_5 H 0.4375 0.3464 0.8793
C43_3 C 0.36733(16) 0.1922(2) 0.2482(14)
H24_3 H 0.3535 0.1850 0.1591
C45_5 C 0.40838(14) 0.2145(3) 0.5172(16)
H26_5 H 0.4222 0.2215 0.6068
C47_3 C 0.3963(2) 0.1485(3) 0.0105(17)
C48_3 C 0.41236(16) 0.1875(3) 0.3343(16)
H28_3 H 0.4289 0.1768 0.3032
Zn2_2 Zn 0.7500 0.7500 0.7654(2)
Zn3_5 Zn 0.2500 0.2500 0.7654(2)
N4_6 N 0.14552(10) 0.23677(19) 0.8176(10)
N5_4 N 0.22285(9) 0.22050(18) 0.9624(10)
C25_6 C 0.15081(12) 0.2099(2) 0.9831(11)
C30_6 C 0.12113(12) 0.2402(2) 0.7542(14)
C31_6 C 0.10105(12) 0.2166(2) 0.8551(13)
H16_6 H 0.0842 0.2197 0.8056
C32_6 C 0.11632(12) 0.2695(2) 0.5635(12)
C33_6 C 0.19780(11) 0.2217(2) 0.9128(12)
H17_6 H 0.1931 0.2326 0.7789
C39_4 C 0.13657(13) 0.2818(2) 0.4286(14)
H21_4 H 0.1532 0.2722 0.4615
C40_4 C 0.10787(15) 0.3234(2) 0.2002(13)
H22_6 H 0.0625 0.1536 0.8793
C43_4 C 0.13267(16) 0.3078(2) 0.2482(14)
H24_4 H 0.1465 0.3150 0.1591
C45_6 C 0.09162(14) 0.2855(3) 0.5172(16)
H26_6 H 0.0778 0.2785 0.6068
C47_4 C 0.1037(2) 0.3515(3) 0.0105(17)
C48_4 C 0.08764(16) 0.3125(3) 0.3343(16)
H28_4 H 0.0711 0.3232 0.3032
N1_6 N 0.85448(10) 0.76323(19) 0.8176(10)
N2_4 N 0.77715(9) 0.77950(18) 0.9624(10)
C1_6 C 0.84919(12) 0.7901(2) 0.9831(11)
C6_6 C 0.87887(12) 0.7598(2) 0.7542(14)
C7_6 C 0.89895(12) 0.7834(2) 0.8551(13)
H2_6 H 0.9158 0.7803 0.8056
C8_6 C 0.88368(12) 0.7305(2) 0.5635(12)
C9_6 C 0.80220(11) 0.7783(2) 0.9128(12)
H3_6 H 0.8069 0.7674 0.7789
C15_4 C 0.86343(13) 0.7182(2) 0.4286(14)
H7_4 H 0.8468 0.7278 0.4615
C16_4 C 0.89213(15) 0.6766(2) 0.2002(13)
H8_6 H 0.9375 0.8464 0.8793
C19_4 C 0.86733(16) 0.6922(2) 0.2482(14)
H10_4 H 0.8535 0.6850 0.1591
C21_6 C 0.90838(14) 0.7145(3) 0.5172(16)
H12_6 H 0.9222 0.7215 0.6068
C23_4 C 0.8963(2) 0.6485(3) 0.0105(17)
C24_4 C 0.91236(16) 0.6875(3) 0.3343(16)
H14_4 H 0.9289 0.6768 0.3032
O1_7 O 0.26869(9) 0.20764(16) 0.5744(9)
N1_7 N 0.39552(10) 0.01323(19) 0.0676(10)
O2_5 O 0.27866(10) 0.17660(19) 0.8864(10)
N2_5 N 0.47285(9) 0.02950(18) 0.2124(10)
C1_7 C 0.40081(12) 0.0401(2) 0.2331(11)
C2_7 C 0.30014(12) 0.1481(2) 0.5795(13)
C3_7 C 0.42835(12) 0.0426(2) 0.3008(12)
C4_7 C 0.32085(13) 0.1311(3) 0.6956(13)
H1_5 H 0.3226 0.1388 0.8388
C5_7 C 0.28109(12) 0.1790(2) 0.6916(12)
C6_7 C 0.37113(12) 0.0098(2) 0.0042(14)
C7_7 C 0.35105(12) 0.0334(2) 0.1051(13)
H2_7 H 0.3342 0.0303 0.0556
C9_7 C 0.44780(11) 0.0283(2) 0.1628(12)
H3_7 H 0.4431 0.0174 0.0289
C10_7 C 0.33596(11) 0.08914(19) 0.3903(12)
C11_7 C 0.33893(13) 0.1027(3) 0.6005(13)
H4_7 H 0.3532 0.0927 0.6782
C12_7 C 0.38202(12) 0.0638(2) 0.3420(12)
H5_7 H 0.3866 0.0816 0.4593
C13_7 C 0.35622(11) 0.0615(2) 0.2793(12)
C14_7 C 0.29723(12) 0.1352(2) 0.3689(13)
H6_7 H 0.2833 0.1465 0.2909
C17_7 C 0.31479(12) 0.1053(2) 0.2706(13)
H8_7 H 0.3125 0.0964 0.1293
C18_7 C 0.47981(13) 0.0453(3) 0.4035(14)
H9_7 H 0.4973 0.0468 0.4369
C20_7 C 0.43624(13) 0.0593(3) 0.5006(14)
H11_7 H 0.4241 0.0701 0.5974
C22_7 C 0.46217(14) 0.0595(2) 0.5528(14)
H13_7 H 0.4676 0.0692 0.6870
O3_7 O 0.23131(9) 0.29236(16) 0.5744(9)
N4_7 N 0.10448(10) 0.48677(19) 0.0676(10)
O4_5 O 0.22134(10) 0.32340(19) 0.8864(10)
N5_5 N 0.02715(9) 0.47050(18) 0.2124(10)
C25_7 C 0.09919(12) 0.4599(2) 0.2331(11)
C26_7 C 0.19986(12) 0.3519(2) 0.5795(13)
C27_7 C 0.07165(12) 0.4574(2) 0.3008(12)
C28_7 C 0.17915(13) 0.3689(3) 0.6956(13)
H15_5 H 0.1774 0.3612 0.8388
C29_7 C 0.21891(12) 0.3210(2) 0.6916(12)
C30_7 C 0.12887(12) 0.4902(2) 0.0042(14)
C31_7 C 0.14895(12) 0.4666(2) 0.1051(13)
H16_7 H 0.1658 0.4697 0.0556
C33_7 C 0.05220(11) 0.4717(2) 0.1628(12)
H17_7 H 0.0569 0.4826 0.0289
C34_7 C 0.16404(11) 0.41086(19) 0.3903(12)
C35_7 C 0.16107(13) 0.3973(3) 0.6005(13)
H18_7 H 0.1468 0.4073 0.6782
C36_7 C 0.11798(12) 0.4362(2) 0.3420(12)
H19_7 H 0.1134 0.4184 0.4593
C37_7 C 0.14378(11) 0.4385(2) 0.2793(12)
C38_7 C 0.20277(12) 0.3648(2) 0.3689(13)
H20_7 H 0.2167 0.3535 0.2909
C41_7 C 0.18521(12) 0.3947(2) 0.2706(13)
H22_7 H 0.1875 0.4036 0.1293
C42_7 C 0.02019(13) 0.4547(3) 0.4035(14)
H23_7 H 0.0027 0.4532 0.4369
C44_7 C 0.06376(13) 0.4407(3) 0.5006(14)
H25_7 H 0.0759 0.4299 0.5974
C46_7 C 0.03783(14) 0.4405(2) 0.5528(14)
H27_7 H 0.0324 0.4308 0.6870
Zn2_3 Zn 0.5000 -0.0000 0.0154(2)
Zn3_6 Zn 0.0000 0.5000 0.0154(2)
Zn2_4 Zn 0.5000 1.0000 0.0154(2)
Zn3_7 Zn 1.0000 0.5000 0.0154(2)
O1_8 O 0.73131(9) 0.79236(16) 0.5744(9)
N1_8 N 0.60448(10) 0.98677(19) 0.0676(10)
O2_6 O 0.72134(10) 0.82340(19) 0.8864(10)
N2_6 N 0.52715(9) 0.97050(18) 0.2124(10)
C1_8 C 0.59919(12) 0.9599(2) 0.2331(11)
C2_8 C 0.69986(12) 0.8519(2) 0.5795(13)
C3_8 C 0.57165(12) 0.9574(2) 0.3008(12)
C4_8 C 0.67915(13) 0.8689(3) 0.6956(13)
H1_6 H 0.6774 0.8612 0.8388
C5_8 C 0.71891(12) 0.8210(2) 0.6916(12)
C6_8 C 0.62887(12) 0.9902(2) 0.0042(14)
C7_8 C 0.64895(12) 0.9666(2) 0.1051(13)
H2_8 H 0.6658 0.9697 0.0556
C9_8 C 0.55220(11) 0.9717(2) 0.1628(12)
H3_8 H 0.5569 0.9826 0.0289
C10_8 C 0.66404(11) 0.91086(19) 0.3903(12)
C11_8 C 0.66107(13) 0.8973(3) 0.6005(13)
H4_8 H 0.6468 0.9073 0.6782
C12_8 C 0.61798(12) 0.9362(2) 0.3420(12)
H5_8 H 0.6134 0.9184 0.4593
C13_8 C 0.64378(11) 0.9385(2) 0.2793(12)
C14_8 C 0.70277(12) 0.8648(2) 0.3689(13)
H6_8 H 0.7167 0.8535 0.2909
C17_8 C 0.68521(12) 0.8947(2) 0.2706(13)
H8_8 H 0.6875 0.9036 0.1293
C18_8 C 0.52019(13) 0.9547(3) 0.4035(14)
H9_8 H 0.5027 0.9532 0.4369
C20_8 C 0.56376(13) 0.9407(3) 0.5006(14)
H11_8 H 0.5759 0.9299 0.5974
C22_8 C 0.53783(14) 0.9405(2) 0.5528(14)
H13_8 H 0.5324 0.9308 0.6870
O3_8 O 0.76869(9) 0.70764(16) 0.5744(9)
N4_8 N 0.89552(10) 0.51323(19) 0.0676(10)
O4_6 O 0.77866(10) 0.67660(19) 0.8864(10)
N5_6 N 0.97285(9) 0.52950(18) 0.2124(10)
C25_8 C 0.90081(12) 0.5401(2) 0.2331(11)
C26_8 C 0.80014(12) 0.6481(2) 0.5795(13)
C27_8 C 0.92835(12) 0.5426(2) 0.3008(12)
C28_8 C 0.82085(13) 0.6311(3) 0.6956(13)
H15_6 H 0.8226 0.6388 0.8388
C29_8 C 0.78109(12) 0.6790(2) 0.6916(12)
C30_8 C 0.87113(12) 0.5098(2) 0.0042(14)
C31_8 C 0.85105(12) 0.5334(2) 0.1051(13)
H16_8 H 0.8342 0.5303 0.0556
C33_8 C 0.94780(11) 0.5283(2) 0.1628(12)
H17_8 H 0.9431 0.5174 0.0289
C34_8 C 0.83596(11) 0.58914(19) 0.3903(12)
C35_8 C 0.83893(13) 0.6027(3) 0.6005(13)
H18_8 H 0.8532 0.5927 0.6782
C36_8 C 0.88202(12) 0.5638(2) 0.3420(12)
H19_8 H 0.8866 0.5816 0.4593
C37_8 C 0.85622(11) 0.5615(2) 0.2793(12)
C38_8 C 0.79723(12) 0.6352(2) 0.3689(13)
H20_8 H 0.7833 0.6465 0.2909
C41_8 C 0.81479(12) 0.6053(2) 0.2706(13)
H22_8 H 0.8125 0.5964 0.1293
C42_8 C 0.97981(13) 0.5453(3) 0.4035(14)
H23_8 H 0.9973 0.5468 0.4369
C44_8 C 0.93624(13) 0.5593(3) 0.5006(14)
H25_8 H 0.9241 0.5701 0.5974
C46_8 C 0.96217(14) 0.5595(2) 0.5528(14)
H27_8 H 0.9676 0.5692 0.6870
O2_7 O 0.52866(10) 0.07340(19) 0.1364(10)
H1_7 H 0.5726 0.1112 0.0888
O4_7 O 0.47134(10) 0.92660(19) 0.1364(10)
H15_7 H 0.4274 0.8888 0.0888
O4_8 O 0.02866(10) 0.57340(19) 0.1364(10)
H15_8 H 0.0726 0.6112 0.0888
O2_8 O 0.97134(10) 0.42660(19) 0.1364(10)
H1_8 H 0.9274 0.3888 0.0888
N3_3 N 0.6006(2) 0.8740(3) 0.8695(14)
N6_3 N 0.3994(2) 0.1260(3) 0.8695(14)
N6_4 N 0.1006(2) 0.3740(3) 0.8695(14)
N3_4 N 0.8994(2) 0.6260(3) 0.8695(14)
C32_7 C 0.13368(12) 0.5195(2) 0.8135(12)
C39_5 C 0.11343(13) 0.5318(2) 0.6786(14)
H21_5 H 0.0968 0.5222 0.7115
C40_5 C 0.14213(15) 0.5734(2) 0.4502(13)
N6_5 N 0.1494(2) 0.6240(3) 0.1195(14)
C43_5 C 0.11733(16) 0.5578(2) 0.4982(14)
H24_5 H 0.1035 0.5650 0.4091
C45_7 C 0.15838(14) 0.5355(3) 0.7672(16)
H26_7 H 0.1722 0.5285 0.8568
C47_5 C 0.1463(2) 0.6015(3) 0.2605(17)
C48_5 C 0.16236(16) 0.5625(3) 0.5843(16)
H28_5 H 0.1789 0.5732 0.5532
C8_7 C 0.36632(12) 0.9805(2) 0.8135(12)
C15_5 C 0.38657(13) 0.9682(2) 0.6786(14)
H7_5 H 0.4032 0.9778 0.7115
C16_5 C 0.35787(15) 0.9266(2) 0.4502(13)
N3_5 N 0.3506(2) 0.8760(3) 0.1195(14)
C19_5 C 0.38267(16) 0.9422(2) 0.4982(14)
H10_5 H 0.3965 0.9350 0.4091
C21_7 C 0.34162(14) 0.9645(3) 0.7672(16)
H12_7 H 0.3278 0.9715 0.8568
C23_5 C 0.3537(2) 0.8985(3) 0.2605(17)
C24_5 C 0.33764(16) 0.9375(3) 0.5843(16)
H14_5 H 0.3211 0.9268 0.5532
C8_8 C 0.63368(12) 0.0195(2) 0.8135(12)
C15_6 C 0.61343(13) 0.0318(2) 0.6786(14)
H7_6 H 0.5968 0.0222 0.7115
C16_6 C 0.64213(15) 0.0734(2) 0.4502(13)
N3_6 N 0.6494(2) 0.1240(3) 0.1195(14)
C19_6 C 0.61733(16) 0.0578(2) 0.4982(14)
H10_6 H 0.6035 0.0650 0.4091
C21_8 C 0.65838(14) 0.0355(3) 0.7672(16)
H12_8 H 0.6722 0.0285 0.8568
C23_6 C 0.6463(2) 0.1015(3) 0.2605(17)
C24_6 C 0.66236(16) 0.0625(3) 0.5843(16)
H14_6 H 0.6789 0.0732 0.5532
C32_8 C 0.86632(12) 0.4805(2) 0.8135(12)
C39_6 C 0.88657(13) 0.4682(2) 0.6786(14)
H21_6 H 0.9032 0.4778 0.7115
C40_6 C 0.85787(15) 0.4266(2) 0.4502(13)
N6_6 N 0.8506(2) 0.3760(3) 0.1195(14)
C43_6 C 0.88267(16) 0.4422(2) 0.4982(14)
H24_6 H 0.8965 0.4350 0.4091
C45_8 C 0.84162(14) 0.4645(3) 0.7672(16)
H26_8 H 0.8278 0.4715 0.8568
C47_6 C 0.8537(2) 0.3985(3) 0.2605(17)
C48_6 C 0.83764(16) 0.4375(3) 0.5843(16)
H28_6 H 0.8211 0.4268 0.5532
C15_7 C 0.63657(13) 0.2818(2) 0.9286(14)
H7_7 H 0.6532 0.2722 0.9615
C16_7 C 0.60787(15) 0.3234(2) 0.7002(13)
N3_7 N 0.6006(2) 0.3740(3) 0.3695(14)
C19_7 C 0.63267(16) 0.3078(2) 0.7482(14)
H10_7 H 0.6465 0.3150 0.6591
C23_7 C 0.6037(2) 0.3515(3) 0.5105(17)
C24_7 C 0.58764(16) 0.3125(3) 0.8343(16)
H14_7 H 0.5711 0.3232 0.8032
C39_7 C 0.36343(13) 0.7182(2) 0.9286(14)
H21_7 H 0.3468 0.7278 0.9615
C40_7 C 0.39213(15) 0.6766(2) 0.7002(13)
N6_7 N 0.3994(2) 0.6260(3) 0.3695(14)
C43_7 C 0.36733(16) 0.6922(2) 0.7482(14)
H24_7 H 0.3535 0.6850 0.6591
C47_7 C 0.3963(2) 0.6485(3) 0.5105(17)
C48_7 C 0.41236(16) 0.6875(3) 0.8343(16)
H28_7 H 0.4289 0.6768 0.8032
C39_8 C 0.13657(13) 0.7818(2) 0.9286(14)
H21_8 H 0.1532 0.7722 0.9615
C40_8 C 0.10787(15) 0.8234(2) 0.7002(13)
N6_8 N 0.1006(2) 0.8740(3) 0.3695(14)
C43_8 C 0.13267(16) 0.8078(2) 0.7482(14)
H24_8 H 0.1465 0.8150 0.6591
C47_8 C 0.1037(2) 0.8515(3) 0.5105(17)
C48_8 C 0.08764(16) 0.8125(3) 0.8343(16)
H28_8 H 0.0711 0.8232 0.8032
C15_8 C 0.86343(13) 0.2182(2) 0.9286(14)
H7_8 H 0.8468 0.2278 0.9615
C16_8 C 0.89213(15) 0.1766(2) 0.7002(13)
N3_8 N 0.8994(2) 0.1260(3) 0.3695(14)
C19_8 C 0.86733(16) 0.1922(2) 0.7482(14)
H10_8 H 0.8535 0.1850 0.6591
C23_8 C 0.8963(2) 0.1485(3) 0.5105(17)
C24_8 C 0.91236(16) 0.1875(3) 0.8343(16)
H14_8 H 0.9289 0.1768 0.8032
loop_
_geom_bond_atom_site_label_1
_geom_bond_atom_site_label_2
_geom_bond_site_symmetry_1
_geom_bond_site_symmetry_2
C39 C32 1_555 1_555
H21 C39 1_555 1_555
C45 C32 1_555 1_555
H26 C45 1_555 1_555
H28 C48 1_555 1_555
C45 C48 1_555 1_555
O3 Zn3 1_555 1_555
O4 C29 1_555 1_555
C26 C28 1_555 1_555
C28 H15 1_555 1_555
C29 O3 1_555 1_555
C34 C35 1_555 1_555
C35 C28 1_555 1_555
H18 C35 1_555 1_555
H19 C36 1_555 1_555
C38 C26 1_555 1_555
H20 C38 1_555 1_555
C41 C34 1_555 1_555
H23 C42 1_555 1_555
C44 C27 1_555 1_555
H25 C44 1_555 1_555
C46 C42 1_555 1_555
H27 C46 1_555 1_555
C26 C29 1_555 1_555
C34 C37 1_555 1_555
C36 C37 1_555 1_555
C38 C41 1_555 1_555
C44 C46 1_555 1_555
C40 C43 1_555 1_555
N6 C47 1_555 1_555
H24 C43 1_555 1_555
C47 C40 1_555 1_555
Zn1 O1 1_555 1_555
O1 C5 1_555 1_555
O2 C5 1_555 1_555
C2 C4 1_555 1_555
C4 H1 1_555 1_555
C5 C2 1_555 1_555
C11 C4 1_555 1_555
H4 C11 1_555 1_555
H11 C20 1_555 1_555
H13 C22 1_555 1_555
O3_2 Zn1 1_555 1_555
O4_2 C29_2 1_555 1_555
C26_2 C28_2 1_555 1_555
C28_2 H15_2 1_555 1_555
C29_2 O3_2 1_555 1_555
C35_2 C28_2 1_555 1_555
H18_2 C35_2 1_555 1_555
H25_2 C44_2 1_555 1_555
H27_2 C46_2 1_555 1_555
N7 Zn1 1_555 1_555
N8 Zn1 1_555 1_555
C20 C22 1_555 1_555
C26_2 C29_2 1_555 1_555
C44_2 C46_2 1_555 1_555
N4 C25 1_555 1_555
N8 C33 1_555 1_555
C25 C27_2 1_555 1_555
C26_3 C28_3 1_555 1_555
C27_2 C33 1_555 1_555
C29_3 O3_3 1_555 1_555
C30 N4 1_555 1_555
C31 C30 1_555 1_555
H16 C31 1_555 1_555
C32_2 C30 1_555 1_555
C33 H17 1_555 1_555
C34_2 C35_3 1_555 1_555
C35_3 C28_3 1_555 1_555
H18_3 C35_3 1_555 1_555
C36_2 C25 1_555 1_555
H19_2 C36_2 1_555 1_555
C37_2 C31 1_555 1_555
C38_2 C26_3 1_555 1_555
H20_2 C38_2 1_555 1_555
C41_2 C34_2 1_555 1_555
H22 C41_2 1_555 1_555
C42_2 N8 1_555 1_555
H23_2 C42_2 1_555 1_555
C44_3 C27_2 1_555 1_555
H25_3 C44_3 1_555 1_555
C45_2 C32_2 1_555 1_555
H26_2 C45_2 1_555 1_555
C46_3 C42_2 1_555 1_555
H27_3 C46_3 1_555 1_555
C26_3 C29_3 1_555 1_555
C34_2 C37_2 1_555 1_555
C36_2 C37_2 1_555 1_555
C38_2 C41_2 1_555 1_555
C44_3 C46_3 1_555 1_555
N4_2 C25_2 1_555 1_555
N7 C33_2 1_555 1_555
C25_2 C27_3 1_555 1_555
C26_4 C28_4 1_555 1_555
C27_3 C33_2 1_555 1_555
C29_4 O3_4 1_555 1_555
C30_2 N4_2 1_555 1_555
C31_2 C30_2 1_555 1_555
H16_2 C31_2 1_555 1_555
C32_3 C30_2 1_555 1_555
C33_2 H17_2 1_555 1_555
C34_3 C35_4 1_555 1_555
C35_4 C28_4 1_555 1_555
H18_4 C35_4 1_555 1_555
C36_3 C25_2 1_555 1_555
H19_3 C36_3 1_555 1_555
C37_3 C31_2 1_555 1_555
C38_3 C26_4 1_555 1_555
H20_3 C38_3 1_555 1_555
C41_3 C34_3 1_555 1_555
H22_2 C41_3 1_555 1_555
C42_3 N7 1_555 1_555
H23_3 C42_3 1_555 1_555
C44_4 C27_3 1_555 1_555
H25_4 C44_4 1_555 1_555
C45_3 C32_3 1_555 1_555
H26_3 C45_3 1_555 1_555
C46_4 C42_3 1_555 1_555
H27_4 C46_4 1_555 1_555
C26_4 C29_4 1_555 1_555
C34_3 C37_3 1_555 1_555
C36_3 C37_3 1_555 1_555
C38_3 C41_3 1_555 1_555
C44_4 C46_4 1_555 1_555
N1 C1 1_555 1_555
N2 C9 1_555 1_555
C1 C3 1_555 1_555
C3 C9 1_555 1_555
C6 N1 1_555 1_555
C7 C6 1_555 1_555
H2 C7 1_555 1_555
C8 C6 1_555 1_555
C9 H3 1_555 1_555
C12 C1 1_555 1_555
H5 C12 1_555 1_555
C13 C7 1_555 1_555
H6 C14 1_555 1_555
C15 C8 1_555 1_555
H7 C15 1_555 1_555
C17 C10 1_555 1_555
H8 C17 1_555 1_555
C18 N2 1_555 1_555
H9 C18 1_555 1_555
C21 C8 1_555 1_555
H12 C21 1_555 1_555
H14 C24 1_555 1_555
N4_3 C25_3 1_555 1_555
N5 C33_3 1_555 1_555
C25_3 C27_4 1_555 1_555
C27_4 C33_3 1_555 1_555
C30_3 N4_3 1_555 1_555
C31_3 C30_3 1_555 1_555
H16_3 C31_3 1_555 1_555
C33_3 H17_3 1_555 1_555
C36_4 C25_3 1_555 1_555
H19_4 C36_4 1_555 1_555
C37_4 C31_3 1_555 1_555
H20_4 C38_4 1_555 1_555
C41_4 C34_4 1_555 1_555
H22_3 C41_4 1_555 1_555
C42_4 N5 1_555 1_555
H23_4 C42_4 1_555 1_555
Zn2 N2 1_555 1_555
Zn3_2 N5 1_555 1_555
C10 C13 1_555 1_555
C12 C13 1_555 1_555
C14 C17 1_555 1_555
C21 C24 1_555 1_555
C34_4 C37_4 1_555 1_555
C36_4 C37_4 1_555 1_555
C38_4 C41_4 1_555 1_555
N1_2 C1_2 1_555 1_555
N2_2 C9_2 1_555 1_555
C1_2 C3_2 1_555 1_555
C3_2 C9_2 1_555 1_555
C6_2 N1_2 1_555 1_555
C7_2 C6_2 1_555 1_555
H2_2 C7_2 1_555 1_555
C8_2 C6_2 1_555 1_555
C9_2 H3_2 1_555 1_555
C12_2 C1_2 1_555 1_555
H5_2 C12_2 1_555 1_555
C13_2 C7_2 1_555 1_555
H6_2 C14_2 1_555 1_555
C15_2 C8_2 1_555 1_555
H7_2 C15_2 1_555 1_555
C17_2 C10_2 1_555 1_555
H8_2 C17_2 1_555 1_555
C18_2 N2_2 1_555 1_555
H9_2 C18_2 1_555 1_555
C21_2 C8_2 1_555 1_555
H12_2 C21_2 1_555 1_555
H14_2 C24_2 1_555 1_555
N4_4 C25_4 1_555 1_555
N5_2 C33_4 1_555 1_555
C25_4 C27_5 1_555 1_555
C27_5 C33_4 1_555 1_555
C30_4 N4_4 1_555 1_555
C31_4 C30_4 1_555 1_555
H16_4 C31_4 1_555 1_555
C33_4 H17_4 1_555 1_555
C36_5 C25_4 1_555 1_555
H19_5 C36_5 1_555 1_555
C37_5 C31_4 1_555 1_555
H20_5 C38_5 1_555 1_555
C41_5 C34_5 1_555 1_555
H22_4 C41_5 1_555 1_555
C42_5 N5_2 1_555 1_555
H23_5 C42_5 1_555 1_555
Zn2 N2_2 1_555 1_555
Zn3_3 N5_2 1_555 1_555
C10_2 C13_2 1_555 1_555
C12_2 C13_2 1_555 1_555
C14_2 C17_2 1_555 1_555
C21_2 C24_2 1_555 1_555
C34_5 C37_5 1_555 1_555
C36_5 C37_5 1_555 1_555
C38_5 C41_5 1_555 1_555
Zn2 O1_2 1_555 1_555
O1_2 C5_2 1_555 1_555
O2_2 C5_2 1_555 1_555
C2_2 C4_2 1_555 1_555
C4_2 H1_2 1_555 1_555
C5_2 C2_2 1_555 1_555
C10_3 C11_2 1_555 1_555
C11_2 C4_2 1_555 1_555
H4_2 C11_2 1_555 1_555
H5_3 C12_3 1_555 1_555
C14_3 C2_2 1_555 1_555
H6_3 C14_3 1_555 1_555
C17_3 C10_3 1_555 1_555
H9_3 C18_3 1_555 1_555
C20_2 C3_3 1_555 1_555
H11_2 C20_2 1_555 1_555
C22_2 C18_3 1_555 1_555
H13_2 C22_2 1_555 1_555
O3_5 Zn2 1_555 1_555
O4_3 C29_5 1_555 1_555
C26_5 C28_5 1_555 1_555
C28_5 H15_3 1_555 1_555
C29_5 O3_5 1_555 1_555
C34_6 C35_5 1_555 1_555
C35_5 C28_5 1_555 1_555
H18_5 C35_5 1_555 1_555
H19_6 C36_6 1_555 1_555
C38_6 C26_5 1_555 1_555
H20_6 C38_6 1_555 1_555
C41_6 C34_6 1_555 1_555
H23_6 C42_6 1_555 1_555
C44_5 C27_6 1_555 1_555
H25_5 C44_5 1_555 1_555
C46_5 C42_6 1_555 1_555
H27_5 C46_5 1_555 1_555
C10_3 C13_3 1_555 1_555
C12_3 C13_3 1_555 1_555
C14_3 C17_3 1_555 1_555
C20_2 C22_2 1_555 1_555
C26_5 C29_5 1_555 1_555
C34_6 C37_6 1_555 1_555
C36_6 C37_6 1_555 1_555
C38_6 C41_6 1_555 1_555
C44_5 C46_5 1_555 1_555
C16 C19 1_555 1_555
N3 C23 1_555 1_555
H10 C19 1_555 1_555
C23 C16 1_555 1_555
C39_2 C32_4 1_555 1_555
H21_2 C39_2 1_555 1_555
C45_4 C32_4 1_555 1_555
H26_4 C45_4 1_555 1_555
H28_2 C48_2 1_555 1_555
C45_4 C48_2 1_555 1_555
Zn3_4 O1_3 1_555 1_555
O1_3 C5_3 1_555 1_555
O2_3 C5_3 1_555 1_555
C2_3 C4_3 1_555 1_555
C4_3 H1_3 1_555 1_555
C5_3 C2_3 1_555 1_555
C10_4 C11_3 1_555 1_555
C11_3 C4_3 1_555 1_555
H4_3 C11_3 1_555 1_555
H5_4 C12_4 1_555 1_555
C14_4 C2_3 1_555 1_555
H6_4 C14_4 1_555 1_555
C17_4 C10_4 1_555 1_555
H9_4 C18_4 1_555 1_555
C20_3 C3_4 1_555 1_555
H11_3 C20_3 1_555 1_555
C22_3 C18_4 1_555 1_555
H13_3 C22_3 1_555 1_555
C10_4 C13_4 1_555 1_555
C12_4 C13_4 1_555 1_555
C14_4 C17_4 1_555 1_555
C20_3 C22_3 1_555 1_555
Zn1_2 O1_4 1_555 1_555
O1_4 C5_4 1_555 1_555
O2_4 C5_4 1_555 1_555
C2_4 C4_4 1_555 1_555
C4_4 H1_4 1_555 1_555
C5_4 C2_4 1_555 1_555
C11_4 C4_4 1_555 1_555
H4_4 C11_4 1_555 1_555
H11_4 C20_4 1_555 1_555
H13_4 C22_4 1_555 1_555
O3_6 Zn1_2 1_555 1_555
O4_4 C29_6 1_555 1_555
C26_6 C28_6 1_555 1_555
C28_6 H15_4 1_555 1_555
C29_6 O3_6 1_555 1_555
C35_6 C28_6 1_555 1_555
H18_6 C35_6 1_555 1_555
H25_6 C44_6 1_555 1_555
H27_6 C46_6 1_555 1_555
N7_2 Zn1_2 1_555 1_555
N8_2 Zn1_2 1_555 1_555
C20_4 C22_4 1_555 1_555
C26_6 C29_6 1_555 1_555
C44_6 C46_6 1_555 1_555
O1_5 C5_5 1_555 1_555
N1_3 C1_3 1_555 1_555
N8_2 C9_3 1_555 1_555
C1_3 C3_5 1_555 1_555
C2_5 C4_5 1_555 1_555
C3_5 C9_3 1_555 1_555
C5_5 C2_5 1_555 1_555
C6_3 N1_3 1_555 1_555
C7_3 C6_3 1_555 1_555
H2_3 C7_3 1_555 1_555
C8_3 C6_3 1_555 1_555
C9_3 H3_3 1_555 1_555
C10_5 C11_5 1_555 1_555
C11_5 C4_5 1_555 1_555
H4_5 C11_5 1_555 1_555
C12_5 C1_3 1_555 1_555
H5_5 C12_5 1_555 1_555
C13_5 C7_3 1_555 1_555
C14_5 C2_5 1_555 1_555
H6_5 C14_5 1_555 1_555
C17_5 C10_5 1_555 1_555
H8_3 C17_5 1_555 1_555
C18_5 N8_2 1_555 1_555
H9_5 C18_5 1_555 1_555
C20_5 C3_5 1_555 1_555
H11_5 C20_5 1_555 1_555
C21_3 C8_3 1_555 1_555
H12_3 C21_3 1_555 1_555
C22_5 C18_5 1_555 1_555
H13_5 C22_5 1_555 1_555
C10_5 C13_5 1_555 1_555
C12_5 C13_5 1_555 1_555
C14_5 C17_5 1_555 1_555
C20_5 C22_5 1_555 1_555
O1_6 C5_6 1_555 1_555
N1_4 C1_4 1_555 1_555
N7_2 C9_4 1_555 1_555
C1_4 C3_6 1_555 1_555
C2_6 C4_6 1_555 1_555
C3_6 C9_4 1_555 1_555
C5_6 C2_6 1_555 1_555
C6_4 N1_4 1_555 1_555
C7_4 C6_4 1_555 1_555
H2_4 C7_4 1_555 1_555
C8_4 C6_4 1_555 1_555
C9_4 H3_4 1_555 1_555
C10_6 C11_6 1_555 1_555
C11_6 C4_6 1_555 1_555
H4_6 C11_6 1_555 1_555
C12_6 C1_4 1_555 1_555
H5_6 C12_6 1_555 1_555
C13_6 C7_4 1_555 1_555
C14_6 C2_6 1_555 1_555
H6_6 C14_6 1_555 1_555
C17_6 C10_6 1_555 1_555
H8_4 C17_6 1_555 1_555
C18_6 N7_2 1_555 1_555
H9_6 C18_6 1_555 1_555
C20_6 C3_6 1_555 1_555
H11_6 C20_6 1_555 1_555
C21_4 C8_4 1_555 1_555
H12_4 C21_4 1_555 1_555
C22_6 C18_6 1_555 1_555
H13_6 C22_6 1_555 1_555
C10_6 C13_6 1_555 1_555
C12_6 C13_6 1_555 1_555
C14_6 C17_6 1_555 1_555
C20_6 C22_6 1_555 1_555
C16_2 C19_2 1_555 1_555
N3_2 C23_2 1_555 1_555
H10_2 C19_2 1_555 1_555
C23_2 C16_2 1_555 1_555
C40_2 C43_2 1_555 1_555
N6_2 C47_2 1_555 1_555
H24_2 C43_2 1_555 1_555
C47_2 C40_2 1_555 1_555
N1_5 C1_5 1_555 1_555
N2_3 C9_5 1_555 1_555
C6_5 N1_5 1_555 1_555
C7_5 C6_5 1_555 1_555
H2_5 C7_5 1_555 1_555
C8_5 C6_5 1_555 1_555
C9_5 H3_5 1_555 1_555
C15_3 C8_5 1_555 1_555
H7_3 C15_3 1_555 1_555
C16_3 C19_3 1_555 1_555
C19_3 C15_3 1_555 1_555
H10_3 C19_3 1_555 1_555
C21_5 C8_5 1_555 1_555
H12_5 C21_5 1_555 1_555
C23_3 C16_3 1_555 1_555
C24_3 C16_3 1_555 1_555
H14_3 C24_3 1_555 1_555
N4_5 C25_5 1_555 1_555
N5_3 C33_5 1_555 1_555
C30_5 N4_5 1_555 1_555
C31_5 C30_5 1_555 1_555
H16_5 C31_5 1_555 1_555
C32_5 C30_5 1_555 1_555
C33_5 H17_5 1_555 1_555
C39_3 C32_5 1_555 1_555
H21_3 C39_3 1_555 1_555
C40_3 C43_3 1_555 1_555
C43_3 C39_3 1_555 1_555
H24_3 C43_3 1_555 1_555
C45_5 C32_5 1_555 1_555
H26_5 C45_5 1_555 1_555
C47_3 C40_3 1_555 1_555
C48_3 C40_3 1_555 1_555
H28_3 C48_3 1_555 1_555
Zn2_2 N2_3 1_555 1_555
Zn3_5 N5_3 1_555 1_555
C21_5 C24_3 1_555 1_555
C45_5 C48_3 1_555 1_555
N4_6 C25_6 1_555 1_555
N5_4 C33_6 1_555 1_555
C30_6 N4_6 1_555 1_555
C31_6 C30_6 1_555 1_555
H16_6 C31_6 1_555 1_555
C32_6 C30_6 1_555 1_555
C33_6 H17_6 1_555 1_555
C39_4 C32_6 1_555 1_555
H21_4 C39_4 1_555 1_555
C40_4 C43_4 1_555 1_555
C43_4 C39_4 1_555 1_555
H24_4 C43_4 1_555 1_555
C45_6 C32_6 1_555 1_555
H26_6 C45_6 1_555 1_555
C47_4 C40_4 1_555 1_555
C48_4 C40_4 1_555 1_555
H28_4 C48_4 1_555 1_555
Zn3_5 N5_4 1_555 1_555
C45_6 C48_4 1_555 1_555
N1_6 C1_6 1_555 1_555
N2_4 C9_6 1_555 1_555
C6_6 N1_6 1_555 1_555
C7_6 C6_6 1_555 1_555
H2_6 C7_6 1_555 1_555
C8_6 C6_6 1_555 1_555
C9_6 H3_6 1_555 1_555
C15_4 C8_6 1_555 1_555
H7_4 C15_4 1_555 1_555
C16_4 C19_4 1_555 1_555
C19_4 C15_4 1_555 1_555
H10_4 C19_4 1_555 1_555
C21_6 C8_6 1_555 1_555
H12_6 C21_6 1_555 1_555
C23_4 C16_4 1_555 1_555
C24_4 C16_4 1_555 1_555
H14_4 C24_4 1_555 1_555
Zn2_2 N2_4 1_555 1_555
C21_6 C24_4 1_555 1_555
Zn3_5 O1_7 1_555 1_555
O1_7 C5_7 1_555 1_555
N1_7 C1_7 1_555 1_555
O2_5 C5_7 1_555 1_555
N2_5 C9_7 1_555 1_555
C1_7 C3_7 1_555 1_555
C2_7 C4_7 1_555 1_555
C3_7 C9_7 1_555 1_555
C4_7 H1_5 1_555 1_555
C5_7 C2_7 1_555 1_555
C6_7 N1_7 1_555 1_555
C7_7 C6_7 1_555 1_555
H2_7 C7_7 1_555 1_555
C9_7 H3_7 1_555 1_555
C10_7 C11_7 1_555 1_555
C11_7 C4_7 1_555 1_555
H4_7 C11_7 1_555 1_555
C12_7 C1_7 1_555 1_555
H5_7 C12_7 1_555 1_555
C13_7 C7_7 1_555 1_555
C14_7 C2_7 1_555 1_555
H6_7 C14_7 1_555 1_555
C17_7 C10_7 1_555 1_555
H8_7 C17_7 1_555 1_555
C18_7 N2_5 1_555 1_555
H9_7 C18_7 1_555 1_555
C20_7 C3_7 1_555 1_555
H11_7 C20_7 1_555 1_555
C22_7 C18_7 1_555 1_555
H13_7 C22_7 1_555 1_555
O3_7 Zn3_5 1_555 1_555
N4_7 C25_7 1_555 1_555
O4_5 C29_7 1_555 1_555
N5_5 C33_7 1_555 1_555
C25_7 C27_7 1_555 1_555
C26_7 C28_7 1_555 1_555
C27_7 C33_7 1_555 1_555
C28_7 H15_5 1_555 1_555
C29_7 O3_7 1_555 1_555
C30_7 N4_7 1_555 1_555
C31_7 C30_7 1_555 1_555
H16_7 C31_7 1_555 1_555
C33_7 H17_7 1_555 1_555
C34_7 C35_7 1_555 1_555
C35_7 C28_7 1_555 1_555
H18_7 C35_7 1_555 1_555
C36_7 C25_7 1_555 1_555
H19_7 C36_7 1_555 1_555
C37_7 C31_7 1_555 1_555
C38_7 C26_7 1_555 1_555
H20_7 C38_7 1_555 1_555
C41_7 C34_7 1_555 1_555
H22_7 C41_7 1_555 1_555
C42_7 N5_5 1_555 1_555
H23_7 C42_7 1_555 1_555
C44_7 C27_7 1_555 1_555
H25_7 C44_7 1_555 1_555
C46_7 C42_7 1_555 1_555
H27_7 C46_7 1_555 1_555
Zn2_3 N2_5 1_555 1_555
Zn3_6 N5_5 1_555 1_555
C10_7 C13_7 1_555 1_555
C12_7 C13_7 1_555 1_555
C14_7 C17_7 1_555 1_555
C20_7 C22_7 1_555 1_555
C26_7 C29_7 1_555 1_555
C34_7 C37_7 1_555 1_555
C36_7 C37_7 1_555 1_555
C38_7 C41_7 1_555 1_555
C44_7 C46_7 1_555 1_555
Zn2_2 O1_8 1_555 1_555
O1_8 C5_8 1_555 1_555
N1_8 C1_8 1_555 1_555
O2_6 C5_8 1_555 1_555
N2_6 C9_8 1_555 1_555
C1_8 C3_8 1_555 1_555
C2_8 C4_8 1_555 1_555
C3_8 C9_8 1_555 1_555
C4_8 H1_6 1_555 1_555
C5_8 C2_8 1_555 1_555
C6_8 N1_8 1_555 1_555
C7_8 C6_8 1_555 1_555
H2_8 C7_8 1_555 1_555
C9_8 H3_8 1_555 1_555
C10_8 C11_8 1_555 1_555
C11_8 C4_8 1_555 1_555
H4_8 C11_8 1_555 1_555
C12_8 C1_8 1_555 1_555
H5_8 C12_8 1_555 1_555
C13_8 C7_8 1_555 1_555
C14_8 C2_8 1_555 1_555
H6_8 C14_8 1_555 1_555
C17_8 C10_8 1_555 1_555
H8_8 C17_8 1_555 1_555
C18_8 N2_6 1_555 1_555
H9_8 C18_8 1_555 1_555
C20_8 C3_8 1_555 1_555
H11_8 C20_8 1_555 1_555
C22_8 C18_8 1_555 1_555
H13_8 C22_8 1_555 1_555
O3_8 Zn2_2 1_555 1_555
N4_8 C25_8 1_555 1_555
O4_6 C29_8 1_555 1_555
N5_6 C33_8 1_555 1_555
C25_8 C27_8 1_555 1_555
C26_8 C28_8 1_555 1_555
C27_8 C33_8 1_555 1_555
C28_8 H15_6 1_555 1_555
C29_8 O3_8 1_555 1_555
C30_8 N4_8 1_555 1_555
C31_8 C30_8 1_555 1_555
H16_8 C31_8 1_555 1_555
C33_8 H17_8 1_555 1_555
C34_8 C35_8 1_555 1_555
C35_8 C28_8 1_555 1_555
H18_8 C35_8 1_555 1_555
C36_8 C25_8 1_555 1_555
H19_8 C36_8 1_555 1_555
C37_8 C31_8 1_555 1_555
C38_8 C26_8 1_555 1_555
H20_8 C38_8 1_555 1_555
C41_8 C34_8 1_555 1_555
H22_8 C41_8 1_555 1_555
C42_8 N5_6 1_555 1_555
H23_8 C42_8 1_555 1_555
C44_8 C27_8 1_555 1_555
H25_8 C44_8 1_555 1_555
C46_8 C42_8 1_555 1_555
H27_8 C46_8 1_555 1_555
Zn2_4 N2_6 1_555 1_555
Zn3_7 N5_6 1_555 1_555
C10_8 C13_8 1_555 1_555
C12_8 C13_8 1_555 1_555
C14_8 C17_8 1_555 1_555
C20_8 C22_8 1_555 1_555
C26_8 C29_8 1_555 1_555
C34_8 C37_8 1_555 1_555
C36_8 C37_8 1_555 1_555
C38_8 C41_8 1_555 1_555
C44_8 C46_8 1_555 1_555
C39_5 C32_7 1_555 1_555
H21_5 C39_5 1_555 1_555
C40_5 C43_5 1_555 1_555
N6_5 C47_5 1_555 1_555
C43_5 C39_5 1_555 1_555
H24_5 C43_5 1_555 1_555
C45_7 C32_7 1_555 1_555
H26_7 C45_7 1_555 1_555
C47_5 C40_5 1_555 1_555
C48_5 C40_5 1_555 1_555
H28_5 C48_5 1_555 1_555
C45_7 C48_5 1_555 1_555
C15_5 C8_7 1_555 1_555
H7_5 C15_5 1_555 1_555
C16_5 C19_5 1_555 1_555
N3_5 C23_5 1_555 1_555
C19_5 C15_5 1_555 1_555
H10_5 C19_5 1_555 1_555
C21_7 C8_7 1_555 1_555
H12_7 C21_7 1_555 1_555
C23_5 C16_5 1_555 1_555
C24_5 C16_5 1_555 1_555
H14_5 C24_5 1_555 1_555
C21_7 C24_5 1_555 1_555
C15_6 C8_8 1_555 1_555
H7_6 C15_6 1_555 1_555
C16_6 C19_6 1_555 1_555
N3_6 C23_6 1_555 1_555
C19_6 C15_6 1_555 1_555
H10_6 C19_6 1_555 1_555
C21_8 C8_8 1_555 1_555
H12_8 C21_8 1_555 1_555
C23_6 C16_6 1_555 1_555
C24_6 C16_6 1_555 1_555
H14_6 C24_6 1_555 1_555
C21_8 C24_6 1_555 1_555
C39_6 C32_8 1_555 1_555
H21_6 C39_6 1_555 1_555
C40_6 C43_6 1_555 1_555
N6_6 C47_6 1_555 1_555
C43_6 C39_6 1_555 1_555
H24_6 C43_6 1_555 1_555
C45_8 C32_8 1_555 1_555
H26_8 C45_8 1_555 1_555
C47_6 C40_6 1_555 1_555
C48_6 C40_6 1_555 1_555
H28_6 C48_6 1_555 1_555
C45_8 C48_6 1_555 1_555
H7_7 C15_7 1_555 1_555
C16_7 C19_7 1_555 1_555
N3_7 C23_7 1_555 1_555
C19_7 C15_7 1_555 1_555
H10_7 C19_7 1_555 1_555
C23_7 C16_7 1_555 1_555
C24_7 C16_7 1_555 1_555
H14_7 C24_7 1_555 1_555
H21_7 C39_7 1_555 1_555
C40_7 C43_7 1_555 1_555
N6_7 C47_7 1_555 1_555
C43_7 C39_7 1_555 1_555
H24_7 C43_7 1_555 1_555
C47_7 C40_7 1_555 1_555
C48_7 C40_7 1_555 1_555
H28_7 C48_7 1_555 1_555
H21_8 C39_8 1_555 1_555
C40_8 C43_8 1_555 1_555
N6_8 C47_8 1_555 1_555
C43_8 C39_8 1_555 1_555
H24_8 C43_8 1_555 1_555
C47_8 C40_8 1_555 1_555
C48_8 C40_8 1_555 1_555
H28_8 C48_8 1_555 1_555
H7_8 C15_8 1_555 1_555
C16_8 C19_8 1_555 1_555
N3_8 C23_8 1_555 1_555
C19_8 C15_8 1_555 1_555
H10_8 C19_8 1_555 1_555
C23_8 C16_8 1_555 1_555
C24_8 C16_8 1_555 1_555
H14_8 C24_8 1_555 1_555

#END
