
###############################################################################
#
# This file contains modified crystal structure data generated from the
# MOF subset of the Cambridge Structural Database (CSD) v543 
# hosted by the Cambridge Crystallographic Data Centre (CCDC).
#
# This work is licensed under the Creative Commons
# Attribution-NonCommercial-ShareAlike 4.0 International License.
# To view a copy of this license, visit
# http://creativecommons.org/licenses/by-nc-sa/4.0/
# or send a letter to
# Creative Commons, PO Box 1866, Mountain View, CA 94042, USA.
#
# CIF created using the CSD Python API on 29 September 2022
# The structure has been converted into the P1 space group
# The structure has a 3D framework
# The original CSD entry ROYFAP is in the monoclinic crystal system
# The framework has been calculated to contain at least 10.0% void space
# The void calculation uses a probe of radius 1.32A, grid spacing 0.4
#
###############################################################################

data_ROYFAP
_chemical_formula_moiety         '(C192 H120 Co8 N14 O36)n'
_symmetry_cell_setting           triclinic
_symmetry_space_group_name_H-M   'P 1'
_symmetry_Int_Tables_number      1
_space_group_name_Hall           'P 1'
loop_
_symmetry_equiv_pos_site_id
_symmetry_equiv_pos_as_xyz
1 x,y,z
_cell_length_a                   7.8353(2)
_cell_length_b                   29.6326(9)
_cell_length_c                   24.7561(9)
_cell_angle_alpha                90
_cell_angle_beta                 91.232(3)
_cell_angle_gamma                90
_cell_volume                     5746.55
loop_
_atom_site_label
_atom_site_type_symbol
_atom_site_fract_x
_atom_site_fract_y
_atom_site_fract_z
Co2 Co 0.20263(6) 0.92027(2) 0.81849(2)
O2 O 0.0703(3) 0.86907(8) 0.77809(11)
O7 O 0.4199(3) 0.92760(10) 0.77216(13)
H1 H 0.4175 0.9090 0.7449
H2 H 0.5103 0.9191 0.7906
O9 O 0.1903(5) 0.88103(11) 0.69959(15)
H5 H 0.0004 0.6445 0.7255
C35 C 0.0589(4) 0.80984(12) 0.71252(15)
C37 C 0.1099(5) 0.85616(13) 0.72953(17)
C38 C 0.0054(5) 0.73223(13) 0.73260(17)
H20 H 0.0058 0.7088 0.7577
C39 C 0.0543(5) 0.77525(13) 0.74885(17)
H21 H 0.0842 0.7806 0.7848
C40 C 0.0156(5) 0.80121(13) 0.65939(16)
H22 H 0.0227 0.8242 0.6340
C41 C 0.0112(6) 0.47799(15) 0.75949(19)
H23 H 0.0411 0.4510 0.7764
C45 C 0.0442(7) 0.55784(15) 0.7524(2)
H27 H 0.0946 0.5846 0.7642
C47 C 0.0808(8) 0.51831(17) 0.7784(2)
H29 H 0.1525 0.5183 0.8088
O12 O 0.3410(3) 0.94811(9) 0.88697(11)
O13 O 0.3280(3) 0.87576(9) 0.87182(12)
N6 N 0.0975(3) 0.97756(10) 0.78232(13)
Co1 Co 0.85392(6) 0.85567(2) 0.81920(2)
O1 O 0.0228(3) 0.41525(8) 0.63100(11)
O3 O 0.2796(3) 0.41365(9) 0.66578(11)
O4 O 0.3410(3) 0.55189(9) 0.38697(11)
O5 O 0.3280(3) 0.62424(9) 0.37182(12)
O6 O 0.6912(3) 0.81435(9) 0.78254(11)
N1 N 0.2283(4) 0.71204(10) 0.55087(12)
N2 N 0.7997(4) 0.59190(10) 0.62978(12)
C1 C 0.1440(4) 0.63607(10) 0.52918(13)
H3 H 0.0873 0.6164 0.5057
O8 O 0.6947(4) 0.86502(10) 0.71782(13)
N4 N 0.9025(3) 0.47756(10) 0.71768(13)
C2 C 0.2281(4) 0.61984(11) 0.57448(13)
C3 C 0.1444(4) 0.68161(11) 0.51884(13)
C4 C 0.7645(4) 0.62778(11) 0.59730(14)
C5 C 0.6740(4) 0.61843(11) 0.54489(15)
C6 C 0.8121(4) 0.67088(11) 0.61370(15)
H4 H 0.7835 0.6955 0.5920
C7 C 0.4896(4) 0.60053(12) 0.44938(15)
C8 C 0.3099(4) 0.69668(11) 0.59626(14)
C9 C 0.9012(4) 0.67774(11) 0.66164(14)
C10 C 0.9398(4) 0.64101(11) 0.69309(14)
C11 C 0.2219(4) 0.57170(11) 0.58771(14)
C12 C 0.1651(4) 0.43447(12) 0.63946(14)
C13 C 0.8661(4) 0.51648(11) 0.69334(14)
H6 H 0.7905 0.5157 0.6639
C14 C 0.0961(4) 0.54327(12) 0.56461(15)
H7 H 0.0226 0.5545 0.5378
C15 C 0.1919(4) 0.48065(11) 0.61909(14)
C16 C 0.3983(4) 0.72997(11) 0.63206(14)
C17 C 0.9562(4) 0.72375(12) 0.67958(15)
C18 C 0.8882(4) 0.59878(11) 0.67629(14)
C19 C 0.3102(4) 0.65096(12) 0.60875(14)
H8 H 0.3653 0.6410 0.6402
C20 C 0.3821(4) 0.59128(13) 0.40044(16)
C21 C 0.5621(4) 0.79379(12) 0.69943(15)
C22 C 0.0806(4) 0.49922(12) 0.58116(14)
C23 C 0.6365(4) 0.57456(12) 0.52958(16)
H10 H 0.6730 0.5506 0.5512
C24 C 0.5442(4) 0.56606(12) 0.48196(16)
H11 H 0.5195 0.5364 0.4722
C25 C 0.0031(4) 0.67211(11) 0.42776(13)
H12 H 0.0401 0.6423 0.4285
C26 C 0.3361(4) 0.55188(12) 0.62485(15)
H13 H 0.4238 0.5694 0.6398
C27 C 0.0468(5) 0.69940(12) 0.47135(14)
C28 C 0.9314(4) 0.55800(12) 0.70832(15)
C29 C 0.6217(5) 0.65332(12) 0.50993(16)
H14 H 0.6492 0.6830 0.5188
C30 C 0.9622(5) 0.75928(12) 0.64345(16)
H15 H 0.9292 0.7545 0.6076
C31 C 0.3232(4) 0.50749(12) 0.64003(15)
H16 H 0.4024 0.4953 0.6644
C32 C 0.4437(6) 0.72024(13) 0.68491(16)
H17 H 0.4193 0.6918 0.6987
C33 C 0.5316(4) 0.64476(12) 0.46336(16)
H18 H 0.4981 0.6685 0.4409
C34 C 0.6551(4) 0.82706(13) 0.73458(16)
C36 C 0.5242(5) 0.75153(13) 0.71778(16)
H19 H 0.5533 0.7437 0.7532
C42 C 0.5186(7) 0.80398(14) 0.64690(19)
H24 H 0.5440 0.8324 0.6332
C43 C 0.4370(7) 0.77235(15) 0.61390(18)
H25 H 0.4079 0.7802 0.5785
H28 H 0.0100 0.7626 0.4985
Co3 Co 0.14608(6) 0.35567(2) 0.68080(2)
Co6 Co 0.79737(6) 0.42027(2) 0.68151(2)
Co7 Co 0.20263(6) 0.57973(2) 0.31849(2)
O10 O 0.9772(3) 0.91525(8) 0.86900(11)
O11 O 0.7204(3) 0.91365(9) 0.83422(11)
N5 N 0.9121(4) 0.81423(10) 0.88508(12)
N3 N 0.9121(4) 0.68577(10) 0.38508(12)
H9 H 0.9932 0.4815 0.5665
C44 C 0.8579(7) 0.72829(15) 0.3840(2)
H26 H 0.7964 0.7384 0.3539
C46 C 0.9861(8) 0.74307(15) 0.4699(2)
C48 C 0.8895(10) 0.75790(17) 0.4259(2)
H30 H 0.8470 0.7872 0.4247
Co4 Co 0.85392(6) 0.64433(2) 0.31920(2)
N3_2 N 0.0879(4) 0.18577(10) 0.11492(12)
C44_2 C 0.1421(7) 0.22829(15) 0.1160(2)
H26_2 H 0.2036 0.2384 0.1461
C46_2 C 0.0139(8) 0.24307(15) 0.0301(2)
C48_2 C 0.1105(10) 0.25790(17) 0.0741(2)
H30_2 H 0.1530 0.2872 0.0753
Co4_2 Co 0.14608(6) 0.14433(2) 0.18080(2)
H9_2 H 0.0068 0.9815 0.9335
O4_2 O 0.6590(3) 0.05189(9) 0.11303(11)
O5_2 O 0.6720(3) 0.12424(9) 0.12818(12)
C7_2 C 0.5104(4) 0.10053(12) 0.05062(15)
C20_2 C 0.6179(4) 0.09128(13) 0.09956(16)
C24_2 C 0.4558(4) 0.06606(12) 0.01804(16)
H11_2 H 0.4805 0.0364 0.0278
C25_2 C 0.9969(4) 0.17211(11) 0.07224(13)
H12_2 H 0.9599 0.1423 0.0715
C27_2 C 0.9532(5) 0.19940(12) 0.02865(14)
C33_2 C 0.4684(4) 0.14476(12) 0.03664(16)
H18_2 H 0.5019 0.1685 0.0591
H28_2 H 0.9900 0.2626 0.0015
Co7_2 Co 0.79737(6) 0.07973(2) 0.18151(2)
O6_2 O 0.3088(3) 0.31435(9) 0.71746(11)
N1_2 N 0.7717(4) 0.21204(10) 0.94913(12)
N2_2 N 0.2003(4) 0.09190(10) 0.87022(12)
C1_2 C 0.8560(4) 0.13607(10) 0.97082(13)
H3_2 H 0.9127 0.1164 0.9943
O8_2 O 0.3053(4) 0.36502(10) 0.78218(13)
C2_2 C 0.7719(4) 0.11984(11) 0.92552(13)
C3_2 C 0.8556(4) 0.18161(11) 0.98116(13)
C4_2 C 0.2355(4) 0.12778(11) 0.90270(14)
C5_2 C 0.3260(4) 0.11843(11) 0.95511(15)
C6_2 C 0.1879(4) 0.17088(11) 0.88630(15)
H4_2 H 0.2165 0.1955 0.9080
C8_2 C 0.6901(4) 0.19668(11) 0.90374(14)
C9_2 C 0.0988(4) 0.17774(11) 0.83836(14)
C10_2 C 0.0602(4) 0.14101(11) 0.80691(14)
C11_2 C 0.7781(4) 0.07170(11) 0.91229(14)
C13_2 C 0.1339(4) 0.01648(11) 0.80666(14)
H6_2 H 0.2095 0.0157 0.8361
C14_2 C 0.9039(4) 0.04327(12) 0.93539(15)
H7_2 H 0.9774 0.0545 0.9622
C16_2 C 0.6017(4) 0.22997(11) 0.86794(14)
C17_2 C 0.0438(4) 0.22375(12) 0.82042(15)
C18_2 C 0.1118(4) 0.09878(11) 0.82371(14)
C19_2 C 0.6898(4) 0.15096(12) 0.89125(14)
H8_2 H 0.6347 0.1410 0.8598
C21_2 C 0.4379(4) 0.29379(12) 0.80057(15)
C23_2 C 0.3635(4) 0.07456(12) 0.97042(16)
H10_2 H 0.3270 0.0506 0.9488
C26_2 C 0.6639(4) 0.05188(12) 0.87515(15)
H13_2 H 0.5762 0.0694 0.8602
C28_2 C 0.0686(4) 0.05800(12) 0.79168(15)
C29_2 C 0.3783(5) 0.15332(12) 0.99007(16)
H14_2 H 0.3508 0.1830 0.9812
C30_2 C 0.0378(5) 0.25928(12) 0.85655(16)
H15_2 H 0.0708 0.2545 0.8924
C31_2 C 0.6768(4) 0.00749(12) 0.85997(15)
C32_2 C 0.5563(6) 0.22024(13) 0.81509(16)
H17_2 H 0.5807 0.1918 0.8013
C34_2 C 0.3449(4) 0.32706(13) 0.76542(16)
C36_2 C 0.4758(5) 0.25153(13) 0.78222(16)
H19_2 H 0.4467 0.2437 0.7468
C42_2 C 0.4814(7) 0.30398(14) 0.85310(19)
H24_2 H 0.4560 0.3324 0.8668
C43_2 C 0.5630(7) 0.27235(15) 0.88610(18)
H25_2 H 0.5921 0.2802 0.9215
N5_2 N 0.0879(4) 0.31423(10) 0.61492(12)
C12_2 C 0.8349(4) 0.93447(12) 0.86054(14)
C15_2 C 0.8081(4) 0.98065(11) 0.88091(14)
C22_2 C 0.9194(4) 0.99922(12) 0.91884(14)
H16_2 H 0.5976 0.9953 0.8356
O2_2 O 0.9297(3) 0.36907(8) 0.72191(11)
O7_2 O 0.5801(3) 0.42760(10) 0.72784(13)
H1_2 H 0.5825 0.4090 0.7551
H2_2 H 0.4897 0.4191 0.7094
O9_2 O 0.8097(5) 0.38103(11) 0.80041(15)
H5_2 H 0.9996 0.1445 0.7745
C35_2 C 0.9411(4) 0.30984(12) 0.78748(15)
C37_2 C 0.8901(5) 0.35616(13) 0.77047(17)
C38_2 C 0.9946(5) 0.23223(13) 0.76740(17)
H20_2 H 0.9942 0.2088 0.7423
C39_2 C 0.9457(5) 0.27525(13) 0.75115(17)
H21_2 H 0.9158 0.2806 0.7152
C40_2 C 0.9844(5) 0.30121(13) 0.84061(16)
H22_2 H 0.9773 0.3242 0.8660
C45_2 C 0.9558(7) 0.05784(15) 0.7476(2)
H27_2 H 0.9054 0.0846 0.7358
C47_2 C 0.9192(8) 0.01831(17) 0.7216(2)
H29_2 H 0.8475 0.0183 0.6912
O12_2 O 0.6590(3) 0.44811(9) 0.61303(11)
O13_2 O 0.6720(3) 0.37576(9) 0.62818(12)
H9_3 H 0.0068 0.5185 0.4335
C44_3 C 0.1421(7) 0.27171(15) 0.6160(2)
H26_3 H 0.2036 0.2616 0.6461
C46_3 C 0.0139(8) 0.25693(15) 0.5301(2)
C48_3 C 0.1105(10) 0.24210(17) 0.5741(2)
H30_3 H 0.1530 0.2128 0.5753
O1_2 O 0.9772(3) 0.58475(8) 0.36900(11)
O3_2 O 0.7204(3) 0.58635(9) 0.33422(11)
O6_3 O 0.3088(3) 0.18565(9) 0.21746(11)
N1_3 N 0.7717(4) 0.28796(10) 0.44913(12)
N2_3 N 0.2003(4) 0.40810(10) 0.37022(12)
C1_3 C 0.8560(4) 0.36393(10) 0.47082(13)
H3_3 H 0.9127 0.3836 0.4943
O8_3 O 0.3053(4) 0.13498(10) 0.28218(13)
N4_2 N 0.0975(3) 0.52244(10) 0.28232(13)
C2_3 C 0.7719(4) 0.38016(11) 0.42552(13)
C3_3 C 0.8556(4) 0.31839(11) 0.48116(13)
C4_3 C 0.2355(4) 0.37222(11) 0.40270(14)
C5_3 C 0.3260(4) 0.38157(11) 0.45511(15)
C6_3 C 0.1879(4) 0.32912(11) 0.38630(15)
H4_3 H 0.2165 0.3045 0.4080
C7_3 C 0.5104(4) 0.39947(12) 0.55062(15)
C8_3 C 0.6901(4) 0.30332(11) 0.40374(14)
C9_3 C 0.0988(4) 0.32226(11) 0.33836(14)
C10_3 C 0.0602(4) 0.35899(11) 0.30691(14)
C11_3 C 0.7781(4) 0.42830(11) 0.41229(14)
C12_3 C 0.8349(4) 0.56553(12) 0.36054(14)
C13_3 C 0.1339(4) 0.48352(11) 0.30666(14)
H6_3 H 0.2095 0.4843 0.3361
C14_3 C 0.9039(4) 0.45673(12) 0.43539(15)
H7_3 H 0.9774 0.4455 0.4622
C15_3 C 0.8081(4) 0.51935(11) 0.38091(14)
C16_3 C 0.6017(4) 0.27003(11) 0.36794(14)
C17_3 C 0.0438(4) 0.27625(12) 0.32042(15)
C18_3 C 0.1118(4) 0.40122(11) 0.32371(14)
C19_3 C 0.6898(4) 0.34904(12) 0.39125(14)
H8_3 H 0.6347 0.3590 0.3598
C20_3 C 0.6179(4) 0.40872(13) 0.59956(16)
C21_3 C 0.4379(4) 0.20621(12) 0.30057(15)
C22_3 C 0.9194(4) 0.50078(12) 0.41884(14)
C23_3 C 0.3635(4) 0.42544(12) 0.47042(16)
H10_3 H 0.3270 0.4494 0.4488
C24_3 C 0.4558(4) 0.43394(12) 0.51804(16)
H11_3 H 0.4805 0.4636 0.5278
C25_3 C 0.9969(4) 0.32789(11) 0.57224(13)
H12_3 H 0.9599 0.3577 0.5715
C26_3 C 0.6639(4) 0.44812(12) 0.37515(15)
H13_3 H 0.5762 0.4306 0.3602
C27_3 C 0.9532(5) 0.30060(12) 0.52865(14)
C28_3 C 0.0686(4) 0.44200(12) 0.29168(15)
C29_3 C 0.3783(5) 0.34668(12) 0.49007(16)
H14_3 H 0.3508 0.3170 0.4812
C30_3 C 0.0378(5) 0.24072(12) 0.35655(16)
H15_3 H 0.0708 0.2455 0.3924
C31_3 C 0.6768(4) 0.49251(12) 0.35997(15)
H16_3 H 0.5976 0.5047 0.3356
C32_3 C 0.5563(6) 0.27976(13) 0.31509(16)
H17_3 H 0.5807 0.3082 0.3013
C33_3 C 0.4684(4) 0.35524(12) 0.53664(16)
H18_3 H 0.5019 0.3315 0.5591
C34_3 C 0.3449(4) 0.17294(13) 0.26542(16)
C36_3 C 0.4758(5) 0.24847(13) 0.28222(16)
H19_3 H 0.4467 0.2563 0.2468
C42_3 C 0.4814(7) 0.19602(14) 0.35310(19)
H24_3 H 0.4560 0.1676 0.3668
C43_3 C 0.5630(7) 0.22765(15) 0.38610(18)
H25_3 H 0.5921 0.2198 0.4215
H28_3 H 0.9900 0.2374 0.5015
O10_2 O 0.0228(3) 0.08475(8) 0.13100(11)
O11_2 O 0.2796(3) 0.08635(9) 0.16578(11)
O2_3 O 0.9297(3) 0.13093(8) 0.22191(11)
O7_3 O 0.5801(3) 0.07240(10) 0.22784(13)
H1_3 H 0.5825 0.0910 0.2551
H2_3 H 0.4897 0.0809 0.2094
O9_3 O 0.8097(5) 0.11897(11) 0.30041(15)
H5_3 H 0.9996 0.3555 0.2745
C35_3 C 0.9411(4) 0.19016(12) 0.28748(15)
C37_3 C 0.8901(5) 0.14384(13) 0.27047(17)
C38_3 C 0.9946(5) 0.26777(13) 0.26740(17)
H20_3 H 0.9942 0.2912 0.2423
C39_3 C 0.9457(5) 0.22475(13) 0.25115(17)
H21_3 H 0.9158 0.2194 0.2152
C40_3 C 0.9844(5) 0.19879(13) 0.34061(16)
H22_3 H 0.9773 0.1758 0.3660
C41_2 C 0.9888(6) 0.52201(15) 0.24051(19)
H23_2 H 0.9589 0.5490 0.2236
C45_3 C 0.9558(7) 0.44216(15) 0.2476(2)
H27_3 H 0.9054 0.4154 0.2358
C47_3 C 0.9192(8) 0.48169(17) 0.2216(2)
H29_3 H 0.8475 0.4817 0.1912
N6_2 N 0.9025(3) 0.02244(10) 0.21768(13)
O2_4 O 0.0703(3) 0.63093(8) 0.27809(11)
O7_4 O 0.4199(3) 0.57240(10) 0.27216(13)
H1_4 H 0.4175 0.5910 0.2449
H2_4 H 0.5103 0.5809 0.2906
O9_4 O 0.1903(5) 0.61897(11) 0.19959(15)
H5_4 H 0.0004 0.8555 0.2255
C35_4 C 0.0589(4) 0.69016(12) 0.21252(15)
C37_4 C 0.1099(5) 0.64384(13) 0.22953(17)
C38_4 C 0.0054(5) 0.76777(13) 0.23260(17)
H20_4 H 0.0058 0.7912 0.2577
C39_4 C 0.0543(5) 0.72475(13) 0.24885(17)
H21_4 H 0.0842 0.7194 0.2848
C40_4 C 0.0156(5) 0.69879(13) 0.15939(16)
H22_4 H 0.0227 0.6758 0.1340
C45_4 C 0.0442(7) 0.94216(15) 0.2524(2)
H27_4 H 0.0946 0.9154 0.2642
C47_4 C 0.0808(8) 0.98169(17) 0.2784(2)
H29_4 H 0.1525 0.9817 0.3088
C12_4 C 0.1651(4) 0.06553(12) 0.13946(14)
C15_4 C 0.1919(4) 0.01935(11) 0.11909(14)
C22_4 C 0.0806(4) 0.00078(12) 0.08116(14)
H16_4 H 0.4024 0.0047 0.1644
O6_4 O 0.6912(3) 0.68565(9) 0.28254(11)
N1_4 N 0.2283(4) 0.78796(10) 0.05087(12)
N2_4 N 0.7997(4) 0.90810(10) 0.12978(12)
C1_4 C 0.1440(4) 0.86393(10) 0.02918(13)
H3_4 H 0.0873 0.8836 0.0057
O8_4 O 0.6947(4) 0.63498(10) 0.21782(13)
C2_4 C 0.2281(4) 0.88016(11) 0.07448(13)
C3_4 C 0.1444(4) 0.81839(11) 0.01884(13)
C4_4 C 0.7645(4) 0.87222(11) 0.09730(14)
C5_4 C 0.6740(4) 0.88157(11) 0.04489(15)
C6_4 C 0.8121(4) 0.82912(11) 0.11370(15)
H4_4 H 0.7835 0.8045 0.0920
C8_4 C 0.3099(4) 0.80332(11) 0.09626(14)
C9_4 C 0.9012(4) 0.82226(11) 0.16164(14)
C10_4 C 0.9398(4) 0.85899(11) 0.19309(14)
C11_4 C 0.2219(4) 0.92830(11) 0.08771(14)
C13_4 C 0.8661(4) 0.98352(11) 0.19334(14)
H6_4 H 0.7905 0.9843 0.1639
C14_4 C 0.0961(4) 0.95673(12) 0.06461(15)
H7_4 H 0.0226 0.9455 0.0378
C16_4 C 0.3983(4) 0.77003(11) 0.13206(14)
C17_4 C 0.9562(4) 0.77625(12) 0.17958(15)
C18_4 C 0.8882(4) 0.90122(11) 0.17629(14)
C19_4 C 0.3102(4) 0.84904(12) 0.10875(14)
H8_4 H 0.3653 0.8590 0.1402
C21_4 C 0.5621(4) 0.70621(12) 0.19943(15)
C23_4 C 0.6365(4) 0.92544(12) 0.02958(16)
H10_4 H 0.6730 0.9494 0.0512
C26_4 C 0.3361(4) 0.94812(12) 0.12485(15)
H13_4 H 0.4238 0.9306 0.1398
C28_4 C 0.9314(4) 0.94200(12) 0.20832(15)
C29_4 C 0.6217(5) 0.84668(12) 0.00993(16)
H14_4 H 0.6492 0.8170 0.0188
C30_4 C 0.9622(5) 0.74072(12) 0.14345(16)
H15_4 H 0.9292 0.7455 0.1076
C31_4 C 0.3232(4) 0.99251(12) 0.14003(15)
C32_4 C 0.4437(6) 0.77976(13) 0.18491(16)
H17_4 H 0.4193 0.8082 0.1987
C34_4 C 0.6551(4) 0.67294(13) 0.23458(16)
C36_4 C 0.5242(5) 0.74847(13) 0.21778(16)
H19_4 H 0.5533 0.7563 0.2532
C42_4 C 0.5186(7) 0.69602(14) 0.14690(19)
H24_4 H 0.5440 0.6676 0.1332
C43_4 C 0.4370(7) 0.72765(15) 0.11390(18)
H25_4 H 0.4079 0.7198 0.0785
C7_4 C 0.4896(4) 0.89947(12) 0.94938(15)
C20_4 C 0.3821(4) 0.90872(13) 0.90044(16)
C24_4 C 0.5442(4) 0.93394(12) 0.98196(16)
H11_4 H 0.5195 0.9636 0.9722
C25_4 C 0.0031(4) 0.82789(11) 0.92776(13)
H12_4 H 0.0401 0.8577 0.9285
C27_4 C 0.0468(5) 0.80060(12) 0.97135(14)
C33_4 C 0.5316(4) 0.85524(12) 0.96336(16)
H18_4 H 0.4981 0.8315 0.9409
H28_4 H 0.0100 0.7374 0.9985
H9_4 H 0.9932 0.0185 0.0665
C44_4 C 0.8579(7) 0.77171(15) 0.8840(2)
H26_4 H 0.7964 0.7616 0.8539
C46_4 C 0.9861(8) 0.75693(15) 0.9699(2)
C48_4 C 0.8895(10) 0.74210(17) 0.9259(2)
H30_4 H 0.8470 0.7128 0.9247
C41_3 C 0.9888(6) 0.97799(15) 0.74051(19)
H23_3 H 0.9589 0.9510 0.7236
C41_4 C 0.0112(6) 0.02201(15) 0.25949(19)
H23_4 H 0.0411 0.0490 0.2764
loop_
_geom_bond_atom_site_label_1
_geom_bond_atom_site_label_2
_geom_bond_site_symmetry_1
_geom_bond_site_symmetry_2
Co2 O2 1_555 1_555
O2 C37 1_555 1_555
O7 Co2 1_555 1_555
H1 O7 1_555 1_555
H2 O7 1_555 1_555
O9 C37 1_555 1_555
C35 C37 1_555 1_555
H20 C38 1_555 1_555
C39 C35 1_555 1_555
H21 C39 1_555 1_555
H22 C40 1_555 1_555
H23 C41 1_555 1_555
H27 C45 1_555 1_555
C47 C41 1_555 1_555
H29 C47 1_555 1_555
O12 Co2 1_555 1_555
O13 Co2 1_555 1_555
N6 Co2 1_555 1_555
C35 C40 1_555 1_555
C38 C39 1_555 1_555
C45 C47 1_555 1_555
O1 C12 1_555 1_555
O3 C12 1_555 1_555
O4 C20 1_555 1_555
O5 C20 1_555 1_555
O6 Co1 1_555 1_555
N1 C3 1_555 1_555
N2 C4 1_555 1_555
C1 H3 1_555 1_555
O8 C34 1_555 1_555
N4 C13 1_555 1_555
C2 C1 1_555 1_555
C3 C1 1_555 1_555
C4 C5 1_555 1_555
C5 C23 1_555 1_555
C6 C4 1_555 1_555
H4 C6 1_555 1_555
C7 C20 1_555 1_555
C8 N1 1_555 1_555
C9 C6 1_555 1_555
C10 C9 1_555 1_555
C11 C2 1_555 1_555
C12 C15 1_555 1_555
C13 H6 1_555 1_555
C14 C11 1_555 1_555
H7 C14 1_555 1_555
C15 C22 1_555 1_555
C16 C8 1_555 1_555
C17 C9 1_555 1_555
C18 N2 1_555 1_555
C19 C2 1_555 1_555
H8 C19 1_555 1_555
C21 C34 1_555 1_555
C22 C14 1_555 1_555
C23 H10 1_555 1_555
C24 C7 1_555 1_555
H11 C24 1_555 1_555
C25 H12 1_555 1_555
C26 C11 1_555 1_555
H13 C26 1_555 1_555
C27 C3 1_555 1_555
C28 C13 1_555 1_555
C29 C5 1_555 1_555
H14 C29 1_555 1_555
C30 C17 1_555 1_555
H15 C30 1_555 1_555
C31 C15 1_555 1_555
H16 C31 1_555 1_555
C32 C16 1_555 1_555
H17 C32 1_555 1_555
C33 C7 1_555 1_555
H18 C33 1_555 1_555
C34 O6 1_555 1_555
C36 C21 1_555 1_555
H19 C36 1_555 1_555
C42 C21 1_555 1_555
H24 C42 1_555 1_555
C43 C16 1_555 1_555
H25 C43 1_555 1_555
Co3 O1 1_555 1_555
Co6 N4 1_555 1_555
Co7 O4 1_555 1_555
O10 Co1 1_555 1_555
O11 Co1 1_555 1_555
N5 Co1 1_555 1_555
O3 Co3 1_555 1_555
O5 Co7 1_555 1_555
C8 C19 1_555 1_555
C10 C18 1_555 1_555
C18 C28 1_555 1_555
C23 C24 1_555 1_555
C25 C27 1_555 1_555
C26 C31 1_555 1_555
C29 C33 1_555 1_555
C32 C36 1_555 1_555
C42 C43 1_555 1_555
C44 N3 1_555 1_555
H26 C44 1_555 1_555
C48 C44 1_555 1_555
H30 C48 1_555 1_555
Co4 N3 1_555 1_555
C46 C48 1_555 1_555
C44_2 N3_2 1_555 1_555
H26_2 C44_2 1_555 1_555
C48_2 C44_2 1_555 1_555
H30_2 C48_2 1_555 1_555
Co4_2 N3_2 1_555 1_555
C46_2 C48_2 1_555 1_555
O4_2 C20_2 1_555 1_555
O5_2 C20_2 1_555 1_555
C7_2 C20_2 1_555 1_555
C24_2 C7_2 1_555 1_555
H11_2 C24_2 1_555 1_555
C25_2 H12_2 1_555 1_555
C33_2 C7_2 1_555 1_555
H18_2 C33_2 1_555 1_555
Co7_2 O4_2 1_555 1_555
O5_2 Co7_2 1_555 1_555
C25_2 C27_2 1_555 1_555
O6_2 Co3 1_555 1_555
N1_2 C3_2 1_555 1_555
N2_2 C4_2 1_555 1_555
C1_2 H3_2 1_555 1_555
O8_2 C34_2 1_555 1_555
C2_2 C1_2 1_555 1_555
C3_2 C1_2 1_555 1_555
C4_2 C5_2 1_555 1_555
C5_2 C23_2 1_555 1_555
C6_2 C4_2 1_555 1_555
H4_2 C6_2 1_555 1_555
C8_2 N1_2 1_555 1_555
C9_2 C6_2 1_555 1_555
C10_2 C9_2 1_555 1_555
C11_2 C2_2 1_555 1_555
C13_2 H6_2 1_555 1_555
C14_2 C11_2 1_555 1_555
H7_2 C14_2 1_555 1_555
C16_2 C8_2 1_555 1_555
C17_2 C9_2 1_555 1_555
C18_2 N2_2 1_555 1_555
C19_2 C2_2 1_555 1_555
H8_2 C19_2 1_555 1_555
C21_2 C34_2 1_555 1_555
C23_2 H10_2 1_555 1_555
C26_2 C11_2 1_555 1_555
H13_2 C26_2 1_555 1_555
C28_2 C13_2 1_555 1_555
C29_2 C5_2 1_555 1_555
H14_2 C29_2 1_555 1_555
C30_2 C17_2 1_555 1_555
H15_2 C30_2 1_555 1_555
C32_2 C16_2 1_555 1_555
H17_2 C32_2 1_555 1_555
C34_2 O6_2 1_555 1_555
C36_2 C21_2 1_555 1_555
H19_2 C36_2 1_555 1_555
C42_2 C21_2 1_555 1_555
H24_2 C42_2 1_555 1_555
C43_2 C16_2 1_555 1_555
H25_2 C43_2 1_555 1_555
N5_2 Co3 1_555 1_555
C8_2 C19_2 1_555 1_555
C10_2 C18_2 1_555 1_555
C18_2 C28_2 1_555 1_555
C26_2 C31_2 1_555 1_555
C32_2 C36_2 1_555 1_555
C42_2 C43_2 1_555 1_555
O10 C12_2 1_555 1_555
O11 C12_2 1_555 1_555
C12_2 C15_2 1_555 1_555
C15_2 C22_2 1_555 1_555
Co6 O2_2 1_555 1_555
O2_2 C37_2 1_555 1_555
O7_2 Co6 1_555 1_555
H1_2 O7_2 1_555 1_555
H2_2 O7_2 1_555 1_555
O9_2 C37_2 1_555 1_555
C35_2 C37_2 1_555 1_555
H20_2 C38_2 1_555 1_555
C39_2 C35_2 1_555 1_555
H21_2 C39_2 1_555 1_555
H22_2 C40_2 1_555 1_555
H27_2 C45_2 1_555 1_555
H29_2 C47_2 1_555 1_555
O12_2 Co6 1_555 1_555
O13_2 Co6 1_555 1_555
C35_2 C40_2 1_555 1_555
C38_2 C39_2 1_555 1_555
C45_2 C47_2 1_555 1_555
C44_3 N5_2 1_555 1_555
H26_3 C44_3 1_555 1_555
C48_3 C44_3 1_555 1_555
H30_3 C48_3 1_555 1_555
C46_3 C48_3 1_555 1_555
O1_2 C12_3 1_555 1_555
O3_2 C12_3 1_555 1_555
O12_2 C20_3 1_555 1_555
O13_2 C20_3 1_555 1_555
O6_3 Co4_2 1_555 1_555
N1_3 C3_3 1_555 1_555
N2_3 C4_3 1_555 1_555
C1_3 H3_3 1_555 1_555
O8_3 C34_3 1_555 1_555
N4_2 C13_3 1_555 1_555
C2_3 C1_3 1_555 1_555
C3_3 C1_3 1_555 1_555
C4_3 C5_3 1_555 1_555
C5_3 C23_3 1_555 1_555
C6_3 C4_3 1_555 1_555
H4_3 C6_3 1_555 1_555
C7_3 C20_3 1_555 1_555
C8_3 N1_3 1_555 1_555
C9_3 C6_3 1_555 1_555
C10_3 C9_3 1_555 1_555
C11_3 C2_3 1_555 1_555
C12_3 C15_3 1_555 1_555
C13_3 H6_3 1_555 1_555
C14_3 C11_3 1_555 1_555
H7_3 C14_3 1_555 1_555
C15_3 C22_3 1_555 1_555
C16_3 C8_3 1_555 1_555
C17_3 C9_3 1_555 1_555
C18_3 N2_3 1_555 1_555
C19_3 C2_3 1_555 1_555
H8_3 C19_3 1_555 1_555
C21_3 C34_3 1_555 1_555
C22_3 C14_3 1_555 1_555
C23_3 H10_3 1_555 1_555
C24_3 C7_3 1_555 1_555
H11_3 C24_3 1_555 1_555
C25_3 H12_3 1_555 1_555
C26_3 C11_3 1_555 1_555
H13_3 C26_3 1_555 1_555
C27_3 C3_3 1_555 1_555
C28_3 C13_3 1_555 1_555
C29_3 C5_3 1_555 1_555
H14_3 C29_3 1_555 1_555
C30_3 C17_3 1_555 1_555
H15_3 C30_3 1_555 1_555
C31_3 C15_3 1_555 1_555
H16_3 C31_3 1_555 1_555
C32_3 C16_3 1_555 1_555
H17_3 C32_3 1_555 1_555
C33_3 C7_3 1_555 1_555
H18_3 C33_3 1_555 1_555
C34_3 O6_3 1_555 1_555
C36_3 C21_3 1_555 1_555
H19_3 C36_3 1_555 1_555
C42_3 C21_3 1_555 1_555
H24_3 C42_3 1_555 1_555
C43_3 C16_3 1_555 1_555
H25_3 C43_3 1_555 1_555
Co4 O1_2 1_555 1_555
Co7 N4_2 1_555 1_555
O10_2 Co4_2 1_555 1_555
O11_2 Co4_2 1_555 1_555
O3_2 Co4 1_555 1_555
C8_3 C19_3 1_555 1_555
C10_3 C18_3 1_555 1_555
C18_3 C28_3 1_555 1_555
C23_3 C24_3 1_555 1_555
C25_3 C27_3 1_555 1_555
C26_3 C31_3 1_555 1_555
C29_3 C33_3 1_555 1_555
C32_3 C36_3 1_555 1_555
C42_3 C43_3 1_555 1_555
Co7_2 O2_3 1_555 1_555
O2_3 C37_3 1_555 1_555
O7_3 Co7_2 1_555 1_555
H1_3 O7_3 1_555 1_555
H2_3 O7_3 1_555 1_555
O9_3 C37_3 1_555 1_555
C35_3 C37_3 1_555 1_555
H20_3 C38_3 1_555 1_555
C39_3 C35_3 1_555 1_555
H21_3 C39_3 1_555 1_555
H22_3 C40_3 1_555 1_555
H23_2 C41_2 1_555 1_555
H27_3 C45_3 1_555 1_555
C47_3 C41_2 1_555 1_555
H29_3 C47_3 1_555 1_555
N6_2 Co7_2 1_555 1_555
C35_3 C40_3 1_555 1_555
C38_3 C39_3 1_555 1_555
C45_3 C47_3 1_555 1_555
Co7 O2_4 1_555 1_555
O2_4 C37_4 1_555 1_555
O7_4 Co7 1_555 1_555
H1_4 O7_4 1_555 1_555
H2_4 O7_4 1_555 1_555
O9_4 C37_4 1_555 1_555
C35_4 C37_4 1_555 1_555
H20_4 C38_4 1_555 1_555
C39_4 C35_4 1_555 1_555
H21_4 C39_4 1_555 1_555
H22_4 C40_4 1_555 1_555
H27_4 C45_4 1_555 1_555
H29_4 C47_4 1_555 1_555
C35_4 C40_4 1_555 1_555
C38_4 C39_4 1_555 1_555
C45_4 C47_4 1_555 1_555
O10_2 C12_4 1_555 1_555
O11_2 C12_4 1_555 1_555
C12_4 C15_4 1_555 1_555
C15_4 C22_4 1_555 1_555
O6_4 Co4 1_555 1_555
N1_4 C3_4 1_555 1_555
N2_4 C4_4 1_555 1_555
C1_4 H3_4 1_555 1_555
O8_4 C34_4 1_555 1_555
C2_4 C1_4 1_555 1_555
C3_4 C1_4 1_555 1_555
C4_4 C5_4 1_555 1_555
C5_4 C23_4 1_555 1_555
C6_4 C4_4 1_555 1_555
H4_4 C6_4 1_555 1_555
C8_4 N1_4 1_555 1_555
C9_4 C6_4 1_555 1_555
C10_4 C9_4 1_555 1_555
C11_4 C2_4 1_555 1_555
C13_4 H6_4 1_555 1_555
C14_4 C11_4 1_555 1_555
H7_4 C14_4 1_555 1_555
C16_4 C8_4 1_555 1_555
C17_4 C9_4 1_555 1_555
C18_4 N2_4 1_555 1_555
C19_4 C2_4 1_555 1_555
H8_4 C19_4 1_555 1_555
C21_4 C34_4 1_555 1_555
C23_4 H10_4 1_555 1_555
C26_4 C11_4 1_555 1_555
H13_4 C26_4 1_555 1_555
C28_4 C13_4 1_555 1_555
C29_4 C5_4 1_555 1_555
H14_4 C29_4 1_555 1_555
C30_4 C17_4 1_555 1_555
H15_4 C30_4 1_555 1_555
C32_4 C16_4 1_555 1_555
H17_4 C32_4 1_555 1_555
C34_4 O6_4 1_555 1_555
C36_4 C21_4 1_555 1_555
H19_4 C36_4 1_555 1_555
C42_4 C21_4 1_555 1_555
H24_4 C42_4 1_555 1_555
C43_4 C16_4 1_555 1_555
H25_4 C43_4 1_555 1_555
C8_4 C19_4 1_555 1_555
C10_4 C18_4 1_555 1_555
C18_4 C28_4 1_555 1_555
C26_4 C31_4 1_555 1_555
C32_4 C36_4 1_555 1_555
C42_4 C43_4 1_555 1_555
O12 C20_4 1_555 1_555
O13 C20_4 1_555 1_555
C7_4 C20_4 1_555 1_555
C24_4 C7_4 1_555 1_555
H11_4 C24_4 1_555 1_555
C25_4 H12_4 1_555 1_555
C33_4 C7_4 1_555 1_555
H18_4 C33_4 1_555 1_555
C25_4 C27_4 1_555 1_555
C44_4 N5 1_555 1_555
H26_4 C44_4 1_555 1_555
C48_4 C44_4 1_555 1_555
H30_4 C48_4 1_555 1_555
C46_4 C48_4 1_555 1_555
H23_3 C41_3 1_555 1_555
H23_4 C41_4 1_555 1_555

#END
