
###############################################################################
#
# This file contains modified crystal structure data generated from the
# MOF subset of the Cambridge Structural Database (CSD) v543 
# hosted by the Cambridge Crystallographic Data Centre (CCDC).
#
# This work is licensed under the Creative Commons
# Attribution-NonCommercial-ShareAlike 4.0 International License.
# To view a copy of this license, visit
# http://creativecommons.org/licenses/by-nc-sa/4.0/
# or send a letter to
# Creative Commons, PO Box 1866, Mountain View, CA 94042, USA.
#
# CIF created using the CSD Python API on 29 September 2022
# The structure has been converted into the P1 space group
# The structure has a 3D framework
# The original CSD entry ROYJIA is in the hexagonal crystal system
# The framework has been calculated to contain at least 10.0% void space
# The void calculation uses a probe of radius 1.32A, grid spacing 0.4
#
###############################################################################

data_ROYJIA
_chemical_formula_moiety         '(C84 H48 N12 Ni6 O25)n'
_symmetry_cell_setting           triclinic
_symmetry_space_group_name_H-M   'P 1'
_symmetry_Int_Tables_number      1
_space_group_name_Hall           'P 1'
loop_
_symmetry_equiv_pos_site_id
_symmetry_equiv_pos_as_xyz
1 x,y,z
_cell_length_a                   16.7775(12)
_cell_length_b                   16.7775(12)
_cell_length_c                   15.184(3)
_cell_angle_alpha                90
_cell_angle_beta                 90
_cell_angle_gamma                120
_cell_volume                     3701.45
loop_
_atom_site_label
_atom_site_type_symbol
_atom_site_fract_x
_atom_site_fract_y
_atom_site_fract_z
Ni1 Ni 0.264705(12) 0.52941(2) 0.7500
O1 O 0.3333 0.6667 0.7500
O2 O 0.17444(9) 0.52095(8) 0.65465(9)
N1 N 0.19175(9) 0.38350(18) 0.7500
C1 C 0.14638(16) 0.57319(8) 0.63025(15)
C2 C 0.06976(17) 0.53488(9) 0.56298(16)
C3 C 0.03496(17) 0.44815(14) 0.53126(17)
H1 H 0.0582 0.4115 0.5516
C4 C 0.23528(18) 0.33562(17) 0.7500
H2 H 0.2993 0.3678 0.7500
C5 C 0.19072(19) 0.24108(18) 0.7500
H3 H 0.2243 0.2107 0.7500
C6 C 0.09585(12) 0.1917(2) 0.7500
C7 C 0.04452(12) 0.0890(2) 0.7500
O5 O 0.17444(9) 0.65349(12) 0.65465(9)
C12 C 0.03496(17) 0.58681(22) 0.53126(17)
H6 H 0.0582 0.6467 0.5516
N6 N 0.09392(16) 0.04696(11) 0.7500
C23 C 0.10034(25) 0.33562(17) 0.7500
H13 H 0.0685 0.3678 0.7500
C24 C 0.05036(26) 0.24108(18) 0.7500
H16 H 0.2243 0.0136 0.7500
Ni5 Ni 0.47059(2) 0.735295(23) 0.7500
Ni7 Ni 0.264705(23) 0.735295(12) 0.7500
O16 O 0.34651(12) 0.52095(8) 0.84535(9)
O18 O 0.17444(9) 0.52095(8) 0.84535(9)
O21 O 0.34651(12) 0.52095(8) 0.65465(9)
N5 N 0.19175(20) 0.80825(9) 0.7500
C17 C 0.10034(25) 0.76472(18) 0.7500
H9 H 0.0685 0.7007 0.7500
C18 C 0.05036(26) 0.80928(19) 0.7500
C19 C 0.09585(23) 0.90415(12) 0.7500
C20 C 0.04448(23) 0.95548(12) 0.7500
C25 C 0.23528(18) 0.89966(25) 0.7500
H15 H 0.2993 0.9315 0.7500
C26 C 0.19072(19) 0.94964(26) 0.7500
N2 N 0.95304(11) 0.04696(11) 0.7500
O3 O 0.82556(9) 0.34651(12) 0.34535(9)
C8 C 0.85362(16) 0.42681(18) 0.36975(15)
C9 C 0.93024(17) 0.46512(19) 0.43702(16)
C10 C 0.96504(17) 0.41319(22) 0.46874(17)
H4 H 0.9418 0.3533 0.4484
O4 O 0.82556(9) 0.47905(8) 0.34535(9)
C11 C 0.96504(17) 0.55185(14) 0.46874(17)
H5 H 0.9418 0.5885 0.4484
H8 H 0.7893 0.0136 0.7500
H14 H 0.9864 0.2107 0.7500
O11 O 0.52095(8) 0.17444(9) 0.34535(9)
C38 C 0.57319(8) 0.14638(16) 0.36975(15)
C39 C 0.53488(9) 0.06976(17) 0.43702(16)
C40 C 0.44815(14) 0.03496(17) 0.46874(17)
H22 H 0.4115 0.0582 0.4484
O12 O 0.65349(12) 0.17444(9) 0.34535(9)
C41 C 0.58681(22) 0.03496(17) 0.46874(17)
H23 H 0.6467 0.0582 0.4484
Ni9 Ni 0.735295(12) 0.47059(2) 0.2500
Ni11 Ni 0.52941(2) 0.264705(23) 0.2500
Ni12 Ni 0.735295(23) 0.264705(12) 0.2500
N3 N 0.61650(18) 0.80825(20) 0.7500
N4 N 0.95304(11) 0.90608(16) 0.7500
C13 C 0.66438(17) 0.89966(25) 0.7500
H7 H 0.6322 0.9315 0.7500
C14 C 0.75892(18) 0.94964(26) 0.7500
C15 C 0.8083(2) 0.90415(23) 0.7500
C16 C 0.9110(2) 0.95552(23) 0.7500
H10 H 0.9864 0.7757 0.7500
C21 C 0.66438(17) 0.76472(18) 0.7500
H11 H 0.6322 0.7007 0.7500
C22 C 0.75892(18) 0.80928(19) 0.7500
H12 H 0.7893 0.7757 0.7500
O6 O 0.47905(8) 0.65349(12) 0.65465(9)
C27 C 0.42681(8) 0.57319(18) 0.63025(15)
C28 C 0.46512(9) 0.53488(19) 0.56298(16)
C29 C 0.55185(14) 0.58681(22) 0.53126(17)
H17 H 0.5885 0.6467 0.5516
O7 O 0.65349(12) 0.47905(8) 0.34535(9)
C30 C 0.57319(18) 0.42681(8) 0.36975(15)
C31 C 0.53488(19) 0.46512(9) 0.43702(16)
C32 C 0.58681(22) 0.55185(14) 0.46874(17)
H18 H 0.6467 0.5885 0.4484
O8 O 0.52095(8) 0.34651(12) 0.34535(9)
C33 C 0.44815(14) 0.41319(22) 0.46874(17)
H19 H 0.4115 0.3533 0.4484
C34 C 0.41319(22) 0.44815(14) 0.53126(17)
H20 H 0.3533 0.4115 0.5516
O10 O 0.34651(12) 0.82556(9) 0.65465(9)
C35 C 0.42681(18) 0.85362(16) 0.63025(15)
C36 C 0.46512(19) 0.93024(17) 0.56298(16)
C37 C 0.41319(22) 0.96504(17) 0.53126(17)
H21 H 0.3533 0.9418 0.5516
O13 O 0.47905(8) 0.82556(9) 0.65465(9)
C42 C 0.55185(14) 0.96504(17) 0.53126(17)
H24 H 0.5885 0.9418 0.5516
O15 O 0.47905(8) 0.82556(9) 0.84535(9)
O17 O 0.17444(9) 0.65349(12) 0.84535(9)
O19 O 0.47905(8) 0.65349(12) 0.84535(9)
O20 O 0.34651(12) 0.82556(9) 0.84535(9)
N3_2 N 0.38350(18) 0.19175(20) 0.2500
N4_2 N 0.04696(11) 0.09392(16) 0.2500
C13_2 C 0.33562(17) 0.10034(25) 0.2500
H7_2 H 0.3678 0.0685 0.2500
C14_2 C 0.24108(18) 0.05036(26) 0.2500
C15_2 C 0.1917(2) 0.09585(23) 0.2500
C16_2 C 0.0890(2) 0.04448(23) 0.2500
H10_2 H 0.0136 0.2243 0.2500
C21_2 C 0.33562(17) 0.23528(18) 0.2500
H11_2 H 0.3678 0.2993 0.2500
C22_2 C 0.24108(18) 0.19072(19) 0.2500
H12_2 H 0.2107 0.2243 0.2500
O6_2 O 0.52095(8) 0.34651(12) 0.15465(9)
C27_2 C 0.57319(8) 0.42681(18) 0.13025(15)
C28_2 C 0.53488(9) 0.46512(19) 0.06298(16)
C29_2 C 0.44815(14) 0.41319(22) 0.03126(17)
H17_2 H 0.4115 0.3533 0.0516
O9 O 0.65349(12) 0.47905(8) 0.15465(9)
C34_2 C 0.58681(22) 0.55185(14) 0.03126(17)
H20_2 H 0.6467 0.5885 0.0516
O10_2 O 0.65349(12) 0.17444(9) 0.15465(9)
C35_2 C 0.57319(18) 0.14638(16) 0.13025(15)
C36_2 C 0.53488(19) 0.06976(17) 0.06298(16)
C37_2 C 0.58681(22) 0.03496(17) 0.03126(17)
H21_2 H 0.6467 0.0582 0.0516
O13_2 O 0.52095(8) 0.17444(9) 0.15465(9)
C42_2 C 0.44815(14) 0.03496(17) 0.03126(17)
H24_2 H 0.4115 0.0582 0.0516
O14 O 0.6667 0.3333 0.2500
O22 O 0.82556(9) 0.34651(12) 0.15465(9)
N7 N 0.80825(20) 0.19175(9) 0.2500
C30_2 C 0.42681(18) 0.57319(8) 0.86975(15)
C31_2 C 0.46512(19) 0.53488(9) 0.93702(16)
C32_2 C 0.41319(22) 0.44815(14) 0.96874(17)
H18_2 H 0.3533 0.4115 0.9484
C33_2 C 0.55185(14) 0.58681(22) 0.96874(17)
H19_2 H 0.5885 0.6467 0.9484
N2_2 N 0.04696(11) 0.95304(11) 0.2500
H8_2 H 0.2107 0.9864 0.2500
H14_2 H 0.0136 0.7893 0.2500
C8_2 C 0.14638(16) 0.57319(18) 0.86975(15)
C9_2 C 0.06976(17) 0.53488(19) 0.93702(16)
C10_2 C 0.03496(17) 0.58681(22) 0.96874(17)
H4_2 H 0.0582 0.6467 0.9484
C11_2 C 0.03496(17) 0.44815(14) 0.96874(17)
H5_2 H 0.0582 0.4115 0.9484
C38_2 C 0.42681(8) 0.85362(16) 0.86975(15)
C39_2 C 0.46512(9) 0.93024(17) 0.93702(16)
C40_2 C 0.55185(14) 0.96504(17) 0.96874(17)
H22_2 H 0.5885 0.9418 0.9484
C41_2 C 0.41319(22) 0.96504(17) 0.96874(17)
H23_2 H 0.3533 0.9418 0.9484
C17_2 C 0.89966(25) 0.23528(18) 0.2500
H9_2 H 0.9315 0.2993 0.2500
C18_2 C 0.94964(26) 0.19072(19) 0.2500
C19_2 C 0.90415(23) 0.09585(12) 0.2500
C20_2 C 0.95552(23) 0.04452(12) 0.2500
C25_2 C 0.76472(18) 0.10034(25) 0.2500
H15_2 H 0.7007 0.0685 0.2500
C26_2 C 0.80928(19) 0.05036(26) 0.2500
O2_2 O 0.82556(9) 0.47905(8) 0.15465(9)
N1_2 N 0.80825(9) 0.61650(18) 0.2500
C1_2 C 0.85362(16) 0.42681(8) 0.13025(15)
C2_2 C 0.93024(17) 0.46512(9) 0.06298(16)
C3_2 C 0.96504(17) 0.55185(14) 0.03126(17)
H1_2 H 0.9418 0.5885 0.0516
C4_2 C 0.76472(18) 0.66438(17) 0.2500
H2_2 H 0.7007 0.6322 0.2500
C5_2 C 0.80928(19) 0.75892(18) 0.2500
H3_2 H 0.7757 0.7893 0.2500
C6_2 C 0.90415(12) 0.8083(2) 0.2500
C7_2 C 0.95548(12) 0.9110(2) 0.2500
C12_2 C 0.96504(17) 0.41319(22) 0.03126(17)
H6_2 H 0.9418 0.3533 0.0516
N6_2 N 0.90608(16) 0.95304(11) 0.2500
C23_2 C 0.89966(25) 0.66438(17) 0.2500
H13_2 H 0.9315 0.6322 0.2500
C24_2 C 0.94964(26) 0.75892(18) 0.2500
H16_2 H 0.7757 0.9864 0.2500
loop_
_geom_bond_atom_site_label_1
_geom_bond_atom_site_label_2
_geom_bond_site_symmetry_1
_geom_bond_site_symmetry_2
Ni1 O1 1_555 1_555
O1 Ni5 1_555 1_555
O2 Ni1 1_555 1_555
N1 Ni1 1_555 1_555
C1 O2 1_555 1_555
C2 C1 1_555 1_555
C3 C2 1_555 1_555
H1 C3 1_555 1_555
C4 N1 1_555 1_555
H2 C4 1_555 1_555
C5 C4 1_555 1_555
H3 C5 1_555 1_555
C6 C5 1_555 1_555
C7 C6 1_555 1_555
O5 C1 1_555 1_555
C12 C2 1_555 1_555
H6 C12 1_555 1_555
N6 C7 1_555 1_555
C23 N1 1_555 1_555
H13 C23 1_555 1_555
C24 C6 1_555 1_555
Ni7 O1 1_555 1_555
O16 Ni1 1_555 1_555
O18 Ni1 1_555 1_555
O21 Ni1 1_555 1_555
O5 Ni7 1_555 1_555
C23 C24 1_555 1_555
N5 C17 1_555 1_555
C17 H9 1_555 1_555
C18 C17 1_555 1_555
C19 C18 1_555 1_555
C25 N5 1_555 1_555
H15 C25 1_555 1_555
C26 C19 1_555 1_555
Ni7 N5 1_555 1_555
C19 C20 1_555 1_555
C25 C26 1_555 1_555
O3 C8 1_555 1_555
C8 C9 1_555 1_555
C9 C10 1_555 1_555
H4 C10 1_555 1_555
O4 C8 1_555 1_555
C11 C9 1_555 1_555
H5 C11 1_555 1_555
O11 C38 1_555 1_555
C38 C39 1_555 1_555
C39 C40 1_555 1_555
H22 C40 1_555 1_555
O12 C38 1_555 1_555
C41 C39 1_555 1_555
H23 C41 1_555 1_555
Ni9 O4 1_555 1_555
Ni11 O11 1_555 1_555
Ni12 O3 1_555 1_555
O12 Ni12 1_555 1_555
N3 C13 1_555 1_555
N4 C16 1_555 1_555
C13 H7 1_555 1_555
C14 C13 1_555 1_555
C15 C14 1_555 1_555
C21 N3 1_555 1_555
H11 C21 1_555 1_555
C22 C15 1_555 1_555
H12 C22 1_555 1_555
Ni5 N3 1_555 1_555
O6 Ni5 1_555 1_555
C27 O6 1_555 1_555
C28 C27 1_555 1_555
C29 C28 1_555 1_555
H17 C29 1_555 1_555
O7 C30 1_555 1_555
C30 C31 1_555 1_555
C31 C32 1_555 1_555
C32 C29 1_555 1_555
H18 C32 1_555 1_555
O8 C30 1_555 1_555
C33 C31 1_555 1_555
H19 C33 1_555 1_555
O21 C27 1_555 1_555
C34 C28 1_555 1_555
H20 C34 1_555 1_555
Ni7 O10 1_555 1_555
O10 C35 1_555 1_555
C35 C36 1_555 1_555
C36 C37 1_555 1_555
C37 H21 1_555 1_555
O13 Ni5 1_555 1_555
C42 C36 1_555 1_555
H24 C42 1_555 1_555
Ni9 O7 1_555 1_555
Ni11 O8 1_555 1_555
O15 Ni5 1_555 1_555
O17 Ni7 1_555 1_555
O19 Ni5 1_555 1_555
O20 Ni7 1_555 1_555
C15 C16 1_555 1_555
C21 C22 1_555 1_555
C33 C34 1_555 1_555
C35 O13 1_555 1_555
N3_2 C13_2 1_555 1_555
N4_2 C16_2 1_555 1_555
C13_2 H7_2 1_555 1_555
C14_2 C13_2 1_555 1_555
C15_2 C14_2 1_555 1_555
C21_2 N3_2 1_555 1_555
H11_2 C21_2 1_555 1_555
C22_2 C15_2 1_555 1_555
H12_2 C22_2 1_555 1_555
Ni11 N3_2 1_555 1_555
O6_2 Ni11 1_555 1_555
C27_2 O6_2 1_555 1_555
C28_2 C27_2 1_555 1_555
C29_2 C28_2 1_555 1_555
H17_2 C29_2 1_555 1_555
O9 C27_2 1_555 1_555
C34_2 C28_2 1_555 1_555
H20_2 C34_2 1_555 1_555
Ni12 O10_2 1_555 1_555
O10_2 C35_2 1_555 1_555
C35_2 C36_2 1_555 1_555
C36_2 C37_2 1_555 1_555
C37_2 H21_2 1_555 1_555
O13_2 Ni11 1_555 1_555
C42_2 C36_2 1_555 1_555
H24_2 C42_2 1_555 1_555
Ni9 O9 1_555 1_555
O14 Ni11 1_555 1_555
O22 Ni12 1_555 1_555
N7 Ni12 1_555 1_555
C15_2 C16_2 1_555 1_555
C21_2 C22_2 1_555 1_555
Ni12 O14 1_555 1_555
C35_2 O13_2 1_555 1_555
Ni9 O14 1_555 1_555
O16 C30_2 1_555 1_555
C30_2 C31_2 1_555 1_555
C31_2 C32_2 1_555 1_555
H18_2 C32_2 1_555 1_555
O19 C30_2 1_555 1_555
C33_2 C31_2 1_555 1_555
H19_2 C33_2 1_555 1_555
O17 C8_2 1_555 1_555
C8_2 C9_2 1_555 1_555
C9_2 C10_2 1_555 1_555
H4_2 C10_2 1_555 1_555
O18 C8_2 1_555 1_555
C11_2 C9_2 1_555 1_555
H5_2 C11_2 1_555 1_555
O15 C38_2 1_555 1_555
C38_2 C39_2 1_555 1_555
C39_2 C40_2 1_555 1_555
H22_2 C40_2 1_555 1_555
O20 C38_2 1_555 1_555
C41_2 C39_2 1_555 1_555
H23_2 C41_2 1_555 1_555
N7 C17_2 1_555 1_555
C17_2 H9_2 1_555 1_555
C18_2 C17_2 1_555 1_555
C19_2 C18_2 1_555 1_555
C25_2 N7 1_555 1_555
H15_2 C25_2 1_555 1_555
C26_2 C19_2 1_555 1_555
C19_2 C20_2 1_555 1_555
C25_2 C26_2 1_555 1_555
O2_2 Ni9 1_555 1_555
N1_2 Ni9 1_555 1_555
C1_2 O2_2 1_555 1_555
C2_2 C1_2 1_555 1_555
C3_2 C2_2 1_555 1_555
H1_2 C3_2 1_555 1_555
C4_2 N1_2 1_555 1_555
H2_2 C4_2 1_555 1_555
C5_2 C4_2 1_555 1_555
H3_2 C5_2 1_555 1_555
C6_2 C5_2 1_555 1_555
C7_2 C6_2 1_555 1_555
O22 C1_2 1_555 1_555
C12_2 C2_2 1_555 1_555
H6_2 C12_2 1_555 1_555
N6_2 C7_2 1_555 1_555
C23_2 N1_2 1_555 1_555
H13_2 C23_2 1_555 1_555
C24_2 C6_2 1_555 1_555
C23_2 C24_2 1_555 1_555

#END
