
###############################################################################
#
# This file contains modified crystal structure data generated from the
# MOF subset of the Cambridge Structural Database (CSD) v543 
# hosted by the Cambridge Crystallographic Data Centre (CCDC).
#
# This work is licensed under the Creative Commons
# Attribution-NonCommercial-ShareAlike 4.0 International License.
# To view a copy of this license, visit
# http://creativecommons.org/licenses/by-nc-sa/4.0/
# or send a letter to
# Creative Commons, PO Box 1866, Mountain View, CA 94042, USA.
#
# CIF created using the CSD Python API on 29 September 2022
# The structure has been converted into the P1 space group
# The structure has a 3D framework
# The original CSD entry ROYMID is in the hexagonal crystal system
# The original CSD entry ROYMID is in a Sohncke space group
# The framework has been calculated to contain at least 10.0% void space
# The void calculation uses a probe of radius 1.32A, grid spacing 0.4
#
###############################################################################

data_ROYMID
_chemical_formula_moiety         '(C204 H120 Co12 O59 S24)n'
_symmetry_cell_setting           triclinic
_symmetry_space_group_name_H-M   'P 1'
_symmetry_Int_Tables_number      1
_space_group_name_Hall           'P 1'
loop_
_symmetry_equiv_pos_site_id
_symmetry_equiv_pos_as_xyz
1 x,y,z
_cell_length_a                   19.3867(7)
_cell_length_b                   19.3867(7)
_cell_length_c                   20.8268(15)
_cell_angle_alpha                90
_cell_angle_beta                 90
_cell_angle_gamma                120
_cell_volume                     6778.93
loop_
_atom_site_label
_atom_site_type_symbol
_atom_site_fract_x
_atom_site_fract_y
_atom_site_fract_z
C28 C 0.1162(4) 0.3907(4) 0.1893(3)
C29 C 0.1197(4) 0.3360(4) 0.2304(3)
H13 H 0.1596 0.3535 0.2626
C30 C 0.0637(5) 0.2549(5) 0.2240(4)
H14 H 0.0658 0.2172 0.2518
C31 C 0.0049(4) 0.2293(4) 0.1769(3)
C32 C 0.0012(5) 0.2852(4) 0.1373(4)
C33 C 0.0558(4) 0.3653(4) 0.1439(4)
H16 H 0.0521 0.4031 0.1173
C34 C 0.1794(4) 0.4770(4) 0.1963(3)
O7 O 0.1793(3) 0.5275(3) 0.1588(2)
O8 O 0.2298(3) 0.4921(3) 0.2401(3)
Co5 Co 0.27354(5) 0.64155(8) 0.14389(6)
Co8 Co 0.28011(7) 0.56752(4) 0.31132(6)
C7 C 0.1255(4) 0.7462(4) 0.1014(3)
C8 C 0.0653(4) 0.7063(4) 0.1451(4)
H1 H 0.0625 0.6631 0.1687
C9 C 0.0080(4) 0.7289(4) 0.1551(3)
C10 C 0.0123(5) 0.7927(4) 0.1214(3)
C11 C 0.0759(5) 0.8348(4) 0.0789(3)
H3 H 0.0808 0.8799 0.0568
C12 C 0.1319(5) 0.8111(5) 0.0690(4)
H4 H 0.1746 0.8396 0.0398
C13 C 0.1853(4) 0.7193(4) 0.0888(4)
O1 O 0.2281(3) 0.7497(3) 0.0386(3)
O2 O 0.1873(3) 0.6712(3) 0.1270(3)
Co7 Co 0.28741(6) 0.71989(7) 0.97798(6)
C4 C 0.8690(4) 0.1027(4) 0.1674(4)
C6 C 0.9491(4) 0.1428(4) 0.1700(4)
S2 S 0.99710(11) 0.08637(11) 0.16427(10)
C21 C 0.7133(4) 0.1993(4) 0.1712(3)
C22 C 0.7775(4) 0.2286(4) 0.2129(4)
H9 H 0.7864 0.2698 0.2423
C23 C 0.8291(4) 0.1978(4) 0.2119(3)
H10 H 0.8734 0.2185 0.2402
C24 C 0.8157(4) 0.1367(4) 0.1693(4)
C25 C 0.7507(5) 0.1070(5) 0.1274(4)
H11 H 0.7412 0.0653 0.0984
C26 C 0.7000(5) 0.1380(5) 0.1280(4)
H12 H 0.6561 0.1179 0.0992
C27 C 0.6595(4) 0.2328(4) 0.1683(4)
O5 O 0.6624(3) 0.2818(3) 0.2101(2)
O6 O 0.6104(3) 0.2135(3) 0.1225(2)
H15 H 0.9607 0.2681 0.1056
Co1 Co 0.63199(6) 0.27354(5) 0.31056(6)
Co2 Co 0.56752(4) 0.28741(6) 0.14465(6)
O9 O 0.7509(3) 0.3623(4) 0.3244(3)
H17 H 0.769(5) 0.408(3) 0.306(4)
H18 H 0.775(5) 0.348(5) 0.350(3)
O10 O 0.6108(3) 0.3689(3) 0.2945(3)
H19 H 0.564(2) 0.351(5) 0.307(4)
H20 H 0.625(5) 0.385(5) 0.2562(19)
O11 O 0.4784(4) 0.2281(3) 0.2053(3)
O12 O 0.5161(4) 0.1873(3) 0.2937(3)
O13 O 0.6155(3) 0.4048(3) 0.1641(3)
O14 O 0.6070(3) 0.2805(4) 0.4094(3)
O15 O 0.6518(4) 0.1793(3) 0.3255(2)
O16 O 0.4921(3) 0.2623(4) 0.0734(3)
C1 C 0.9107(4) 0.9261(4) 0.1495(4)
C2 C 0.9096(4) 0.9941(4) 0.1555(3)
C3 C 0.8751(4) 0.7778(4) 0.1324(3)
C5 C 0.9548(4) 0.8208(4) 0.1308(3)
S1 S 0.82426(11) 0.83167(11) 0.14362(10)
S3 S 0.99963(10) 0.92351(10) 0.14391(9)
S4 S 0.82116(11) 0.99799(11) 0.15986(10)
H2 H 0.9661 0.7005 0.1850
C14 C 0.7197(5) 0.5242(4) 0.1208(4)
C15 C 0.7047(5) 0.5708(5) 0.1623(4)
H5 H 0.6596 0.5461 0.1897
C16 C 0.7538(5) 0.6526(5) 0.1648(4)
H6 H 0.7413 0.6834 0.1928
C17 C 0.8217(4) 0.6901(4) 0.1262(3)
C18 C 0.8373(4) 0.6438(4) 0.0843(4)
H7 H 0.8824 0.6687 0.0568
C19 C 0.7878(4) 0.5615(4) 0.0818(4)
H8 H 0.8000 0.5306 0.0536
C20 C 0.6668(4) 0.4367(4) 0.1199(3)
O4 O 0.6735(3) 0.3930(3) 0.0761(3)
Co3 Co 0.64155(8) 0.36801(6) 0.97723(6)
C3_2 C 0.2222(4) 0.0973(6) 0.4657(3)
C5_2 C 0.1792(4) 0.1340(6) 0.4641(3)
S3_2 S 0.07649(10) 0.07612(14) 0.47724(9)
C7_2 C 0.2538(4) 0.3793(6) 0.4347(3)
C8_2 C 0.2937(4) 0.3590(6) 0.4784(4)
H1_2 H 0.3369 0.3994 0.5020
C9_2 C 0.2711(4) 0.2791(6) 0.4884(3)
H2_2 H 0.2995 0.2656 0.5183
C10_2 C 0.2073(4) 0.2196(6) 0.4547(3)
C11_2 C 0.1652(4) 0.2411(6) 0.4122(3)
H3_2 H 0.1201 0.2009 0.3901
C12_2 C 0.1889(5) 0.3208(7) 0.4023(4)
H4_2 H 0.1604 0.3350 0.3731
C13_2 C 0.2807(4) 0.4660(6) 0.4221(4)
O1_2 O 0.2503(3) 0.4784(4) 0.3719(3)
O2_2 O 0.3288(3) 0.5161(4) 0.4603(3)
C14_2 C 0.4758(4) 0.1955(6) 0.4541(4)
C15_2 C 0.4292(5) 0.1339(7) 0.4956(4)
H5_2 H 0.4539 0.1135 0.5230
C16_2 C 0.3474(5) 0.1012(7) 0.4981(4)
H6_2 H 0.3166 0.0579 0.5261
C17_2 C 0.3099(4) 0.1316(6) 0.4595(3)
C18_2 C 0.3562(4) 0.1935(6) 0.4176(4)
H7_2 H 0.3313 0.2137 0.3901
C19_2 C 0.4385(4) 0.2263(6) 0.4151(4)
H8_2 H 0.4694 0.2694 0.3869
C20_2 C 0.5633(4) 0.2301(6) 0.4532(3)
O3 O 0.5952(3) 0.2107(4) 0.4974(3)
Co4 Co 0.35845(8) 0.63199(9) 0.47723(6)
Co6 Co 0.71259(6) 0.28011(7) 0.47798(6)
C4_2 C 0.8973(4) 0.7663(6) 0.5007(4)
C6_2 C 0.8572(4) 0.8063(6) 0.5033(4)
S2_2 S 0.91363(11) 0.91073(16) 0.49760(10)
C21_2 C 0.8007(4) 0.5140(6) 0.5045(3)
C22_2 C 0.7714(4) 0.5489(6) 0.5462(4)
H9_2 H 0.7302 0.5166 0.5756
C23_2 C 0.8022(4) 0.6313(6) 0.5452(3)
H10_2 H 0.7815 0.6549 0.5735
C24_2 C 0.8633(4) 0.6790(6) 0.5026(4)
C25_2 C 0.8930(5) 0.6437(7) 0.4607(4)
H11_2 H 0.9347 0.6759 0.4317
C26_2 C 0.8620(5) 0.5620(7) 0.4613(4)
H12_2 H 0.8821 0.5382 0.4325
C27_2 C 0.7672(4) 0.4267(6) 0.5016(4)
O5_2 O 0.7182(3) 0.3806(4) 0.5434(2)
O6_2 O 0.7865(3) 0.3969(4) 0.4558(2)
C28_2 C 0.6093(4) 0.7255(6) 0.5226(3)
C29_2 C 0.6640(4) 0.7837(6) 0.5637(3)
H13_2 H 0.6465 0.8061 0.5959
C30_2 C 0.7451(5) 0.8088(7) 0.5573(4)
H14_2 H 0.7828 0.8486 0.5851
C31_2 C 0.7707(4) 0.7756(6) 0.5102(3)
C32_2 C 0.7148(4) 0.7160(6) 0.4706(4)
H15_2 H 0.7319 0.6926 0.4389
C33_2 C 0.6347(4) 0.6905(6) 0.4772(4)
H16_2 H 0.5969 0.6490 0.4506
C34_2 C 0.5230(4) 0.7024(6) 0.5296(3)
O7_2 O 0.4725(3) 0.6518(4) 0.4921(2)
O8_2 O 0.5079(3) 0.7377(4) 0.5734(3)
Co1_2 Co 0.72646(5) 0.35845(8) 0.64389(6)
O9_2 O 0.6377(4) 0.3886(5) 0.6577(3)
H17_2 H 0.592(3) 0.361(6) 0.639(4)
H18_2 H 0.652(5) 0.427(7) 0.683(3)
O10_2 O 0.6311(3) 0.2419(4) 0.6278(3)
H19_2 H 0.649(5) 0.213(5) 0.640(4)
H20_2 H 0.615(5) 0.240(7) 0.5895(19)
O11_2 O 0.7719(3) 0.2503(5) 0.5386(3)
O12_2 O 0.8127(3) 0.3288(5) 0.6270(3)
O14_2 O 0.7195(4) 0.3265(5) 0.7428(3)
O15_2 O 0.8207(3) 0.4725(5) 0.6588(2)
O16_2 O 0.7377(4) 0.2298(5) 0.4068(3)
Co8_2 Co 0.43248(4) 0.71259(8) 0.64465(6)
H18_3 H 0.573(7) 0.225(5) 0.017(3)
C1_2 C 0.0154(6) 0.0893(4) 0.8162(4)
C2_2 C 0.0845(6) 0.0904(4) 0.8222(3)
C4_3 C 0.2337(6) 0.1310(4) 0.8341(4)
C6_3 C 0.1937(6) 0.0509(4) 0.8367(4)
S1_2 S 0.00741(16) 0.17574(11) 0.81029(10)
S2_3 S 0.08927(16) 0.00290(11) 0.83094(10)
S4_2 S 0.17683(16) 0.17884(11) 0.82653(10)
C21_3 C 0.4860(6) 0.2867(4) 0.8379(3)
C22_3 C 0.4511(6) 0.2225(4) 0.8796(4)
H9_3 H 0.4834 0.2136 0.9090
C23_3 C 0.3687(6) 0.1709(4) 0.8786(3)
H10_3 H 0.3451 0.1266 0.9069
C24_3 C 0.3210(6) 0.1843(4) 0.8360(4)
C25_3 C 0.3563(7) 0.2493(5) 0.7941(4)
H11_3 H 0.3241 0.2588 0.7651
C26_3 C 0.4380(7) 0.3000(5) 0.7947(4)
H12_3 H 0.4618 0.3439 0.7659
C27_3 C 0.5733(6) 0.3405(4) 0.8350(4)
O5_3 O 0.6194(4) 0.3376(3) 0.8768(2)
O6_3 O 0.6031(4) 0.3896(3) 0.7892(2)
H15_3 H 0.3074 0.0393 0.7723
Co2_2 Co 0.71989(7) 0.43248(4) 0.81132(6)
O9_3 O 0.6114(5) 0.2491(3) 0.9911(3)
H17_3 H 0.639(6) 0.231(5) 0.973(4)
O10_3 O 0.7581(4) 0.3892(3) 0.9612(3)
H19_3 H 0.787(5) 0.436(2) 0.974(4)
H20_3 H 0.760(7) 0.375(5) 0.9229(19)
O11_3 O 0.7497(5) 0.5216(4) 0.8719(3)
O12_3 O 0.6712(5) 0.4839(4) 0.9603(3)
O13_2 O 0.7893(4) 0.3845(3) 0.8308(3)
O15_3 O 0.5275(5) 0.3482(4) 0.9921(2)
O16_3 O 0.7702(5) 0.5079(3) 0.7401(3)
C28_3 C 0.2745(6) 0.8838(4) 0.8560(3)
C29_3 C 0.2163(6) 0.8803(4) 0.8971(3)
H13_3 H 0.1939 0.8404 0.9293
C30_3 C 0.1912(7) 0.9363(5) 0.8907(4)
H14_3 H 0.1514 0.9342 0.9185
C31_3 C 0.2244(6) 0.9951(4) 0.8436(3)
C32_3 C 0.2840(6) 0.9988(5) 0.8040(4)
C33_3 C 0.3095(6) 0.9442(4) 0.8106(4)
H16_3 H 0.3510 0.9479 0.7840
C34_3 C 0.2976(6) 0.8206(4) 0.8630(3)
O7_3 O 0.3482(4) 0.8207(3) 0.8255(2)
O8_3 O 0.2623(4) 0.7702(3) 0.9068(3)
Co5_2 Co 0.36801(9) 0.72646(5) 0.81056(6)
C3_3 C 0.9027(6) 0.1249(4) 0.7991(3)
C5_3 C 0.8660(6) 0.0452(4) 0.7975(3)
S3_3 S 0.92388(14) 0.00037(10) 0.81058(9)
H2_3 H 0.7344 0.0339 0.8517
C14_3 C 0.8045(6) 0.2803(5) 0.7875(4)
C15_3 C 0.8661(7) 0.2953(5) 0.8290(4)
H5_3 H 0.8865 0.3404 0.8564
C16_3 C 0.8988(7) 0.2462(5) 0.8315(4)
H6_3 H 0.9421 0.2587 0.8595
C17_3 C 0.8684(6) 0.1783(4) 0.7929(3)
C18_3 C 0.8065(6) 0.1627(4) 0.7510(4)
H7_3 H 0.7863 0.1176 0.7235
C19_3 C 0.7737(6) 0.2122(4) 0.7485(4)
H8_3 H 0.7306 0.2000 0.7203
C20_3 C 0.7699(6) 0.3332(4) 0.7866(3)
C7_3 C 0.6207(6) 0.8745(4) 0.7681(3)
C8_3 C 0.6410(6) 0.9347(4) 0.8118(4)
H1_3 H 0.6006 0.9375 0.8354
C9_3 C 0.7209(6) 0.9920(4) 0.8218(3)
C10_3 C 0.7804(6) 0.9877(5) 0.7881(3)
C11_3 C 0.7589(6) 0.9241(5) 0.7456(3)
H3_3 H 0.7991 0.9192 0.7235
C12_3 C 0.6792(7) 0.8681(5) 0.7357(4)
H4_3 H 0.6650 0.8254 0.7065
C13_3 C 0.5340(6) 0.8147(4) 0.7555(4)
O1_3 O 0.5216(4) 0.7719(3) 0.7053(3)
O2_3 O 0.4839(4) 0.8127(3) 0.7937(3)
C1_3 C 0.0893(4) 0.0739(4) 0.6495(4)
C2_3 C 0.0904(4) 0.0059(4) 0.6555(3)
C3_4 C 0.1249(4) 0.2222(4) 0.6324(3)
C5_4 C 0.0452(4) 0.1792(4) 0.6308(3)
S1_3 S 0.17574(11) 0.16833(11) 0.64362(10)
S3_4 S 0.00037(10) 0.07649(10) 0.64391(9)
S4_3 S 0.17884(11) 0.00201(11) 0.65986(10)
H2_4 H 0.0339 0.2995 0.6850
C14_4 C 0.2803(5) 0.4758(4) 0.6208(4)
C15_4 C 0.2953(5) 0.4292(5) 0.6623(4)
H5_4 H 0.3404 0.4539 0.6897
C16_4 C 0.2462(5) 0.3474(5) 0.6648(4)
H6_4 H 0.2587 0.3166 0.6928
C17_4 C 0.1783(4) 0.3099(4) 0.6262(3)
C18_4 C 0.1627(4) 0.3562(4) 0.5843(4)
H7_4 H 0.1176 0.3313 0.5568
C19_4 C 0.2122(4) 0.4385(4) 0.5818(4)
H8_4 H 0.2000 0.4694 0.5536
C20_4 C 0.3332(4) 0.5633(4) 0.6199(3)
O3_2 O 0.3845(3) 0.5952(3) 0.6641(3)
O4_2 O 0.3265(3) 0.6070(3) 0.5761(3)
C4_4 C 0.1310(4) 0.8973(4) 0.6674(4)
C6_4 C 0.0509(4) 0.8572(4) 0.6700(4)
S2_4 S 0.00290(11) 0.91363(11) 0.66427(10)
C21_4 C 0.2867(4) 0.8007(4) 0.6712(3)
C22_4 C 0.2225(4) 0.7714(4) 0.7129(4)
H9_4 H 0.2136 0.7302 0.7423
C23_4 C 0.1709(4) 0.8022(4) 0.7119(3)
H10_4 H 0.1266 0.7815 0.7402
C24_4 C 0.1843(4) 0.8633(4) 0.6693(4)
C25_4 C 0.2493(5) 0.8930(5) 0.6274(4)
H11_4 H 0.2588 0.9347 0.5984
C26_4 C 0.3000(5) 0.8620(5) 0.6280(4)
H12_4 H 0.3439 0.8821 0.5992
C27_4 C 0.3405(4) 0.7672(4) 0.6683(4)
O5_4 O 0.3376(3) 0.7182(3) 0.7101(2)
O6_4 O 0.3896(3) 0.7865(3) 0.6225(2)
H15_4 H 0.0393 0.7319 0.6056
O9_4 O 0.2491(3) 0.6377(4) 0.8244(3)
H17_4 H 0.231(5) 0.592(3) 0.806(4)
H18_4 H 0.225(5) 0.652(5) 0.850(3)
O10_4 O 0.3892(3) 0.6311(3) 0.7945(3)
H19_4 H 0.436(2) 0.649(5) 0.807(4)
H20_4 H 0.375(5) 0.615(5) 0.7562(19)
O14_3 O 0.3930(3) 0.7195(4) 0.9094(3)
C7_4 C 0.8745(4) 0.2538(4) 0.6014(3)
C8_4 C 0.9347(4) 0.2937(4) 0.6451(4)
H1_4 H 0.9375 0.3369 0.6687
C9_4 C 0.9920(4) 0.2711(4) 0.6551(3)
C10_4 C 0.9877(5) 0.2073(4) 0.6214(3)
C11_4 C 0.9241(5) 0.1652(4) 0.5789(3)
H3_4 H 0.9192 0.1201 0.5568
C12_4 C 0.8681(5) 0.1889(5) 0.5690(4)
H4_4 H 0.8254 0.1604 0.5398
C13_4 C 0.8147(4) 0.2807(4) 0.5888(4)
C28_4 C 0.8838(4) 0.6093(4) 0.6893(3)
C29_4 C 0.8803(4) 0.6640(4) 0.7304(3)
H13_4 H 0.8404 0.6465 0.7626
C30_4 C 0.9363(5) 0.7451(5) 0.7240(4)
H14_4 H 0.9342 0.7828 0.7518
C31_4 C 0.9951(4) 0.7707(4) 0.6769(3)
C32_4 C 0.9988(5) 0.7148(4) 0.6373(4)
C33_4 C 0.9442(4) 0.6347(4) 0.6439(4)
H16_4 H 0.9479 0.5969 0.6173
C34_4 C 0.8206(4) 0.5230(4) 0.6963(3)
C4_5 C 0.1027(4) 0.2337(6) 0.0007(4)
C6_5 C 0.1428(4) 0.1937(6) 0.0033(4)
C21_5 C 0.1993(4) 0.4860(6) 0.0045(3)
C22_5 C 0.2286(4) 0.4511(6) 0.0462(4)
H9_5 H 0.2698 0.4834 0.0756
C23_5 C 0.1978(4) 0.3687(6) 0.0452(3)
H10_5 H 0.2185 0.3451 0.0735
C24_5 C 0.1367(4) 0.3210(6) 0.0026(4)
C27_5 C 0.2328(4) 0.5733(6) 0.0016(4)
O5_5 O 0.2818(3) 0.6194(4) 0.0434(2)
C28_5 C 0.3907(4) 0.2745(6) 0.0226(3)
C29_5 C 0.3360(4) 0.2163(6) 0.0637(3)
H13_5 H 0.3535 0.1939 0.0959
C30_5 C 0.2549(5) 0.1912(7) 0.0573(4)
H14_5 H 0.2172 0.1514 0.0851
C31_5 C 0.2293(4) 0.2244(6) 0.0102(3)
C34_5 C 0.4770(4) 0.2976(6) 0.0296(3)
O9_5 O 0.3623(4) 0.6114(5) 0.1577(3)
H17_5 H 0.408(3) 0.639(6) 0.139(4)
H18_5 H 0.348(5) 0.573(7) 0.183(3)
O10_5 O 0.3689(3) 0.7581(4) 0.1278(3)
H19_5 H 0.351(5) 0.787(5) 0.140(4)
H20_5 H 0.385(5) 0.760(7) 0.0895(19)
O14_4 O 0.2805(4) 0.6735(5) 0.2428(3)
S2_5 S 0.08637(11) 0.08927(16) 0.99760(10)
C25_5 C 0.1070(5) 0.3563(7) 0.9607(4)
H11_5 H 0.0653 0.3241 0.9317
C26_5 C 0.1380(5) 0.4380(7) 0.9613(4)
H12_5 H 0.1179 0.4618 0.9325
O6_5 O 0.2135(3) 0.6031(4) 0.9558(2)
C32_5 C 0.2852(4) 0.2840(6) 0.9706(4)
H15_5 H 0.2681 0.3074 0.9389
C33_5 C 0.3653(4) 0.3095(6) 0.9772(4)
H16_5 H 0.4031 0.3510 0.9506
O13_3 O 0.4048(3) 0.7893(4) 0.9974(3)
C3_5 C 0.7778(4) 0.9027(6) 0.9657(3)
C5_5 C 0.8208(4) 0.8660(6) 0.9641(3)
S3_5 S 0.92351(10) 0.92388(14) 0.97724(9)
C7_5 C 0.7462(4) 0.6207(6) 0.9347(3)
C8_5 C 0.7063(4) 0.6410(6) 0.9784(4)
C9_5 C 0.7289(4) 0.7209(6) 0.9884(3)
C10_5 C 0.7927(4) 0.7804(6) 0.9547(3)
C11_5 C 0.8348(4) 0.7589(6) 0.9122(3)
H3_5 H 0.8799 0.7991 0.8901
C12_5 C 0.8111(5) 0.6792(7) 0.9023(4)
H4_5 H 0.8396 0.6650 0.8731
C13_5 C 0.7193(4) 0.5340(6) 0.9221(4)
C14_5 C 0.5242(4) 0.8045(6) 0.9541(4)
C15_5 C 0.5708(5) 0.8661(7) 0.9956(4)
C16_5 C 0.6526(5) 0.8988(7) 0.9981(4)
C17_5 C 0.6901(4) 0.8684(6) 0.9595(3)
C18_5 C 0.6438(4) 0.8065(6) 0.9176(4)
H7_5 H 0.6687 0.7863 0.8901
C19_5 C 0.5615(4) 0.7737(6) 0.9151(4)
H8_5 H 0.5306 0.7306 0.8869
C20_5 C 0.4367(4) 0.7699(6) 0.9532(3)
C7_6 C 0.3793(6) 0.1255(4) 0.2681(3)
C8_6 C 0.3590(6) 0.0653(4) 0.3118(4)
H1_5 H 0.3994 0.0625 0.3354
C9_6 C 0.2791(6) 0.0080(4) 0.3218(3)
C10_6 C 0.2196(6) 0.0123(5) 0.2881(3)
C11_6 C 0.2411(6) 0.0759(5) 0.2456(3)
H3_6 H 0.2009 0.0808 0.2235
C12_6 C 0.3208(7) 0.1319(5) 0.2357(4)
H4_6 H 0.3350 0.1746 0.2065
C13_6 C 0.4660(6) 0.1853(4) 0.2555(4)
C3_6 C 0.0973(6) 0.8751(4) 0.2991(3)
C5_6 C 0.1340(6) 0.9548(4) 0.2975(3)
S3_6 S 0.07612(14) 0.99963(10) 0.31058(9)
H2_5 H 0.2656 0.9661 0.3517
C14_6 C 0.1955(6) 0.7197(5) 0.2875(4)
C15_6 C 0.1339(7) 0.7047(5) 0.3290(4)
H5_5 H 0.1135 0.6596 0.3564
C16_6 C 0.1012(7) 0.7538(5) 0.3315(4)
H6_5 H 0.0579 0.7413 0.3595
C17_6 C 0.1316(6) 0.8217(4) 0.2929(3)
C18_6 C 0.1935(6) 0.8373(4) 0.2510(4)
H7_6 H 0.2137 0.8824 0.2235
C19_6 C 0.2263(6) 0.7878(4) 0.2485(4)
H8_6 H 0.2694 0.8000 0.2203
C20_6 C 0.2301(6) 0.6668(4) 0.2866(3)
O3_3 O 0.2107(4) 0.6155(3) 0.3308(3)
C28_6 C 0.7255(6) 0.1162(4) 0.3560(3)
C29_6 C 0.7837(6) 0.1197(4) 0.3971(3)
H13_6 H 0.8061 0.1596 0.4293
C30_6 C 0.8088(7) 0.0637(5) 0.3907(4)
H14_6 H 0.8486 0.0658 0.4185
C31_6 C 0.7756(6) 0.0049(4) 0.3436(3)
C32_6 C 0.7160(6) 0.0012(5) 0.3040(4)
C33_6 C 0.6905(6) 0.0558(4) 0.3106(4)
H16_6 H 0.6490 0.0521 0.2840
C34_6 C 0.7024(6) 0.1794(4) 0.3630(3)
C1_4 C 0.9846(6) 0.9107(4) 0.3162(4)
C2_4 C 0.9155(6) 0.9096(4) 0.3222(3)
C4_6 C 0.7663(6) 0.8690(4) 0.3341(4)
C6_6 C 0.8063(6) 0.9491(4) 0.3367(4)
S1_4 S 0.99259(16) 0.82426(11) 0.31029(10)
S2_6 S 0.91073(16) 0.99710(11) 0.33094(10)
S4_4 S 0.82317(16) 0.82116(11) 0.32653(10)
C21_6 C 0.5140(6) 0.7133(4) 0.3379(3)
C22_6 C 0.5489(6) 0.7775(4) 0.3796(4)
H9_6 H 0.5166 0.7864 0.4090
C23_6 C 0.6313(6) 0.8291(4) 0.3786(3)
H10_6 H 0.6549 0.8734 0.4069
C24_6 C 0.6790(6) 0.8157(4) 0.3360(4)
C25_6 C 0.6437(7) 0.7507(5) 0.2941(4)
H11_6 H 0.6759 0.7412 0.2651
C26_6 C 0.5620(7) 0.7000(5) 0.2947(4)
H12_6 H 0.5382 0.6561 0.2659
C27_6 C 0.4267(6) 0.6595(4) 0.3350(4)
O5_6 O 0.3806(4) 0.6624(3) 0.3768(2)
O6_6 O 0.3969(4) 0.6104(3) 0.2892(2)
H15_6 H 0.6926 0.9607 0.2723
O9_6 O 0.3886(5) 0.7509(3) 0.4911(3)
H17_6 H 0.361(6) 0.769(5) 0.473(4)
H18_6 H 0.427(7) 0.775(5) 0.517(3)
O10_6 O 0.2419(4) 0.6108(3) 0.4612(3)
H19_6 H 0.213(5) 0.564(2) 0.474(4)
H20_6 H 0.240(7) 0.625(5) 0.4229(19)
C1_5 C 0.0739(4) 0.9846(6) 0.4828(4)
C2_5 C 0.0059(4) 0.9155(6) 0.4888(3)
S1_5 S 0.16833(11) 0.99259(16) 0.47695(10)
S4_5 S 0.00201(11) 0.82317(16) 0.49319(10)
C1_6 C 0.9261(4) 0.0154(6) 0.9828(4)
C2_6 C 0.9941(4) 0.0845(6) 0.9888(3)
S1_6 S 0.83167(11) 0.00741(16) 0.97695(10)
S4_6 S 0.99799(11) 0.17683(16) 0.99319(10)
H1_6 H 0.6631 0.6006 0.0020
H2_6 H 0.7005 0.7344 0.0183
H5_6 H 0.5461 0.8865 0.0230
H6_6 H 0.6834 0.9421 0.0261
loop_
_geom_bond_atom_site_label_1
_geom_bond_atom_site_label_2
_geom_bond_site_symmetry_1
_geom_bond_site_symmetry_2
C28 C29 1_555 1_555
C29 H13 1_555 1_555
C30 C29 1_555 1_555
H14 C30 1_555 1_555
C32 C31 1_555 1_555
C33 C28 1_555 1_555
H16 C33 1_555 1_555
C34 C28 1_555 1_555
O7 C34 1_555 1_555
O8 C34 1_555 1_555
Co5 O7 1_555 1_555
Co8 O8 1_555 1_555
C30 C31 1_555 1_555
C32 C33 1_555 1_555
C7 C8 1_555 1_555
C8 H1 1_555 1_555
C9 C8 1_555 1_555
C11 C10 1_555 1_555
H3 C11 1_555 1_555
C12 C7 1_555 1_555
H4 C12 1_555 1_555
C13 C7 1_555 1_555
O1 C13 1_555 1_555
O2 C13 1_555 1_555
Co5 O2 1_555 1_555
C9 C10 1_555 1_555
C11 C12 1_555 1_555
C4 C6 1_555 1_555
C6 S2 1_555 1_555
C21 C22 1_555 1_555
C22 H9 1_555 1_555
C23 C22 1_555 1_555
H10 C23 1_555 1_555
C24 C4 1_555 1_555
C25 C24 1_555 1_555
H11 C25 1_555 1_555
C26 C21 1_555 1_555
H12 C26 1_555 1_555
C27 C21 1_555 1_555
O5 C27 1_555 1_555
O6 C27 1_555 1_555
Co1 O5 1_555 1_555
Co2 O5 1_555 1_555
O9 Co1 1_555 1_555
H17 O9 1_555 1_555
H18 O9 1_555 1_555
O10 Co1 1_555 1_555
H19 O10 1_555 1_555
H20 O10 1_555 1_555
O11 Co2 1_555 1_555
O12 Co1 1_555 1_555
O13 Co2 1_555 1_555
O14 Co1 1_555 1_555
O15 Co1 1_555 1_555
O16 Co2 1_555 1_555
C23 C24 1_555 1_555
C25 C26 1_555 1_555
O6 Co2 1_555 1_555
C1 C2 1_555 1_555
C3 C5 1_555 1_555
C5 S3 1_555 1_555
S1 C1 1_555 1_555
S3 C1 1_555 1_555
S4 C2 1_555 1_555
C14 C15 1_555 1_555
C15 H5 1_555 1_555
C16 C15 1_555 1_555
H6 C16 1_555 1_555
C17 C3 1_555 1_555
C18 C17 1_555 1_555
H7 C18 1_555 1_555
C19 C14 1_555 1_555
H8 C19 1_555 1_555
C20 C14 1_555 1_555
O13 C20 1_555 1_555
O4 C20 1_555 1_555
C3 S1 1_555 1_555
C16 C17 1_555 1_555
C18 C19 1_555 1_555
C3_2 C5_2 1_555 1_555
C5_2 S3_2 1_555 1_555
C7_2 C8_2 1_555 1_555
C8_2 H1_2 1_555 1_555
C9_2 C8_2 1_555 1_555
H2_2 C9_2 1_555 1_555
C10_2 C5_2 1_555 1_555
C11_2 C10_2 1_555 1_555
H3_2 C11_2 1_555 1_555
C12_2 C7_2 1_555 1_555
H4_2 C12_2 1_555 1_555
C13_2 C7_2 1_555 1_555
O1_2 C13_2 1_555 1_555
O2_2 C13_2 1_555 1_555
C14_2 C15_2 1_555 1_555
C15_2 H5_2 1_555 1_555
C16_2 C15_2 1_555 1_555
H6_2 C16_2 1_555 1_555
C17_2 C3_2 1_555 1_555
C18_2 C17_2 1_555 1_555
H7_2 C18_2 1_555 1_555
C19_2 C14_2 1_555 1_555
H8_2 C19_2 1_555 1_555
C20_2 C14_2 1_555 1_555
O3 C20_2 1_555 1_555
O14 C20_2 1_555 1_555
Co4 O2_2 1_555 1_555
Co6 O3 1_555 1_555
Co8 O1_2 1_555 1_555
C9_2 C10_2 1_555 1_555
C11_2 C12_2 1_555 1_555
C16_2 C17_2 1_555 1_555
C18_2 C19_2 1_555 1_555
C4_2 C6_2 1_555 1_555
C6_2 S2_2 1_555 1_555
C21_2 C22_2 1_555 1_555
C22_2 H9_2 1_555 1_555
C23_2 C22_2 1_555 1_555
H10_2 C23_2 1_555 1_555
C24_2 C4_2 1_555 1_555
C25_2 C24_2 1_555 1_555
H11_2 C25_2 1_555 1_555
C26_2 C21_2 1_555 1_555
H12_2 C26_2 1_555 1_555
C27_2 C21_2 1_555 1_555
O5_2 C27_2 1_555 1_555
O6_2 C27_2 1_555 1_555
C28_2 C29_2 1_555 1_555
C29_2 H13_2 1_555 1_555
C30_2 C29_2 1_555 1_555
H14_2 C30_2 1_555 1_555
C31_2 C6_2 1_555 1_555
C32_2 C31_2 1_555 1_555
H15_2 C32_2 1_555 1_555
C33_2 C28_2 1_555 1_555
H16_2 C33_2 1_555 1_555
C34_2 C28_2 1_555 1_555
O7_2 C34_2 1_555 1_555
O8_2 C34_2 1_555 1_555
Co1_2 O5_2 1_555 1_555
Co6 O5_2 1_555 1_555
O9_2 Co1_2 1_555 1_555
H17_2 O9_2 1_555 1_555
H18_2 O9_2 1_555 1_555
O10_2 Co1_2 1_555 1_555
H19_2 O10_2 1_555 1_555
H20_2 O10_2 1_555 1_555
O11_2 Co6 1_555 1_555
O12_2 Co1_2 1_555 1_555
O14_2 Co1_2 1_555 1_555
O15_2 Co1_2 1_555 1_555
O16_2 Co6 1_555 1_555
Co4 O7_2 1_555 1_555
Co8_2 O8_2 1_555 1_555
C23_2 C24_2 1_555 1_555
C25_2 C26_2 1_555 1_555
O6_2 Co6 1_555 1_555
C30_2 C31_2 1_555 1_555
C32_2 C33_2 1_555 1_555
C1_2 C2_2 1_555 1_555
C2_2 S2_3 1_555 1_555
C4_3 C6_3 1_555 1_555
C6_3 S2_3 1_555 1_555
S1_2 C1_2 1_555 1_555
S4_2 C2_2 1_555 1_555
C21_3 C22_3 1_555 1_555
C22_3 H9_3 1_555 1_555
C23_3 C22_3 1_555 1_555
H10_3 C23_3 1_555 1_555
C24_3 C4_3 1_555 1_555
C25_3 C24_3 1_555 1_555
H11_3 C25_3 1_555 1_555
C26_3 C21_3 1_555 1_555
H12_3 C26_3 1_555 1_555
C27_3 C21_3 1_555 1_555
O5_3 C27_3 1_555 1_555
O6_3 C27_3 1_555 1_555
Co3 O5_3 1_555 1_555
Co2_2 O5_3 1_555 1_555
O9_3 Co3 1_555 1_555
H17_3 O9_3 1_555 1_555
O10_3 Co3 1_555 1_555
H19_3 O10_3 1_555 1_555
H20_3 O10_3 1_555 1_555
O11_3 Co2_2 1_555 1_555
O12_3 Co3 1_555 1_555
O13_2 Co2_2 1_555 1_555
O15_3 Co3 1_555 1_555
O16_3 Co2_2 1_555 1_555
C4_3 S4_2 1_555 1_555
C23_3 C24_3 1_555 1_555
C25_3 C26_3 1_555 1_555
O6_3 Co2_2 1_555 1_555
C28_3 C29_3 1_555 1_555
C29_3 H13_3 1_555 1_555
C30_3 C29_3 1_555 1_555
H14_3 C30_3 1_555 1_555
C32_3 C31_3 1_555 1_555
C33_3 C28_3 1_555 1_555
H16_3 C33_3 1_555 1_555
C34_3 C28_3 1_555 1_555
O7_3 C34_3 1_555 1_555
O8_3 C34_3 1_555 1_555
Co5_2 O7_3 1_555 1_555
Co7 O8_3 1_555 1_555
C30_3 C31_3 1_555 1_555
C32_3 C33_3 1_555 1_555
C3_3 C5_3 1_555 1_555
C5_3 S3_3 1_555 1_555
C14_3 C15_3 1_555 1_555
C15_3 H5_3 1_555 1_555
C16_3 C15_3 1_555 1_555
H6_3 C16_3 1_555 1_555
C17_3 C3_3 1_555 1_555
C18_3 C17_3 1_555 1_555
H7_3 C18_3 1_555 1_555
C19_3 C14_3 1_555 1_555
H8_3 C19_3 1_555 1_555
C20_3 C14_3 1_555 1_555
O13_2 C20_3 1_555 1_555
O14_2 C20_3 1_555 1_555
C16_3 C17_3 1_555 1_555
C18_3 C19_3 1_555 1_555
C7_3 C8_3 1_555 1_555
C8_3 H1_3 1_555 1_555
C9_3 C8_3 1_555 1_555
C11_3 C10_3 1_555 1_555
H3_3 C11_3 1_555 1_555
C12_3 C7_3 1_555 1_555
H4_3 C12_3 1_555 1_555
C13_3 C7_3 1_555 1_555
O1_3 C13_3 1_555 1_555
O2_3 C13_3 1_555 1_555
Co5_2 O2_3 1_555 1_555
Co8_2 O1_3 1_555 1_555
C9_3 C10_3 1_555 1_555
C11_3 C12_3 1_555 1_555
C1_3 C2_3 1_555 1_555
C3_4 C5_4 1_555 1_555
C5_4 S3_4 1_555 1_555
S1_3 C1_3 1_555 1_555
S3_4 C1_3 1_555 1_555
S4_3 C2_3 1_555 1_555
C14_4 C15_4 1_555 1_555
C15_4 H5_4 1_555 1_555
C16_4 C15_4 1_555 1_555
H6_4 C16_4 1_555 1_555
C17_4 C3_4 1_555 1_555
C18_4 C17_4 1_555 1_555
H7_4 C18_4 1_555 1_555
C19_4 C14_4 1_555 1_555
H8_4 C19_4 1_555 1_555
C20_4 C14_4 1_555 1_555
O3_2 C20_4 1_555 1_555
O4_2 C20_4 1_555 1_555
Co4 O4_2 1_555 1_555
Co8_2 O3_2 1_555 1_555
C3_4 S1_3 1_555 1_555
C16_4 C17_4 1_555 1_555
C18_4 C19_4 1_555 1_555
C4_4 C6_4 1_555 1_555
C6_4 S2_4 1_555 1_555
C21_4 C22_4 1_555 1_555
C22_4 H9_4 1_555 1_555
C23_4 C22_4 1_555 1_555
H10_4 C23_4 1_555 1_555
C24_4 C4_4 1_555 1_555
C25_4 C24_4 1_555 1_555
H11_4 C25_4 1_555 1_555
C26_4 C21_4 1_555 1_555
H12_4 C26_4 1_555 1_555
C27_4 C21_4 1_555 1_555
O5_4 C27_4 1_555 1_555
O6_4 C27_4 1_555 1_555
Co5_2 O5_4 1_555 1_555
Co8_2 O5_4 1_555 1_555
O9_4 Co5_2 1_555 1_555
H17_4 O9_4 1_555 1_555
H18_4 O9_4 1_555 1_555
O10_4 Co5_2 1_555 1_555
H19_4 O10_4 1_555 1_555
H20_4 O10_4 1_555 1_555
O14_3 Co5_2 1_555 1_555
C23_4 C24_4 1_555 1_555
C25_4 C26_4 1_555 1_555
O6_4 Co8_2 1_555 1_555
C7_4 C8_4 1_555 1_555
C8_4 H1_4 1_555 1_555
C9_4 C8_4 1_555 1_555
C11_4 C10_4 1_555 1_555
H3_4 C11_4 1_555 1_555
C12_4 C7_4 1_555 1_555
H4_4 C12_4 1_555 1_555
C13_4 C7_4 1_555 1_555
O11_2 C13_4 1_555 1_555
O12_2 C13_4 1_555 1_555
C9_4 C10_4 1_555 1_555
C11_4 C12_4 1_555 1_555
C28_4 C29_4 1_555 1_555
C29_4 H13_4 1_555 1_555
C30_4 C29_4 1_555 1_555
H14_4 C30_4 1_555 1_555
C32_4 C31_4 1_555 1_555
C33_4 C28_4 1_555 1_555
H16_4 C33_4 1_555 1_555
C34_4 C28_4 1_555 1_555
O15_2 C34_4 1_555 1_555
O16_3 C34_4 1_555 1_555
C30_4 C31_4 1_555 1_555
C32_4 C33_4 1_555 1_555
C4_5 C6_5 1_555 1_555
C21_5 C22_5 1_555 1_555
C22_5 H9_5 1_555 1_555
C23_5 C22_5 1_555 1_555
H10_5 C23_5 1_555 1_555
C24_5 C4_5 1_555 1_555
C27_5 C21_5 1_555 1_555
O5_5 C27_5 1_555 1_555
C28_5 C29_5 1_555 1_555
C29_5 H13_5 1_555 1_555
C30_5 C29_5 1_555 1_555
H14_5 C30_5 1_555 1_555
C31_5 C6_5 1_555 1_555
C34_5 C28_5 1_555 1_555
O16 C34_5 1_555 1_555
Co5 O5_5 1_555 1_555
O9_5 Co5 1_555 1_555
H17_5 O9_5 1_555 1_555
H18_5 O9_5 1_555 1_555
O10_5 Co5 1_555 1_555
H19_5 O10_5 1_555 1_555
H20_5 O10_5 1_555 1_555
O14_4 Co5 1_555 1_555
C23_5 C24_5 1_555 1_555
C30_5 C31_5 1_555 1_555
H11_5 C25_5 1_555 1_555
H12_5 C26_5 1_555 1_555
H15_5 C32_5 1_555 1_555
H16_5 C33_5 1_555 1_555
O13_3 Co7 1_555 1_555
C25_5 C26_5 1_555 1_555
O6_5 Co7 1_555 1_555
C32_5 C33_5 1_555 1_555
C3_5 C5_5 1_555 1_555
C5_5 S3_5 1_555 1_555
C7_5 C8_5 1_555 1_555
C9_5 C8_5 1_555 1_555
C10_5 C5_5 1_555 1_555
C11_5 C10_5 1_555 1_555
H3_5 C11_5 1_555 1_555
C12_5 C7_5 1_555 1_555
H4_5 C12_5 1_555 1_555
C13_5 C7_5 1_555 1_555
O11_3 C13_5 1_555 1_555
O12_3 C13_5 1_555 1_555
C14_5 C15_5 1_555 1_555
C16_5 C15_5 1_555 1_555
C17_5 C3_5 1_555 1_555
C18_5 C17_5 1_555 1_555
H7_5 C18_5 1_555 1_555
C19_5 C14_5 1_555 1_555
H8_5 C19_5 1_555 1_555
C20_5 C14_5 1_555 1_555
O13_3 C20_5 1_555 1_555
O14_3 C20_5 1_555 1_555
C9_5 C10_5 1_555 1_555
C11_5 C12_5 1_555 1_555
C16_5 C17_5 1_555 1_555
C18_5 C19_5 1_555 1_555
C7_6 C8_6 1_555 1_555
C8_6 H1_5 1_555 1_555
C9_6 C8_6 1_555 1_555
C11_6 C10_6 1_555 1_555
H3_6 C11_6 1_555 1_555
C12_6 C7_6 1_555 1_555
H4_6 C12_6 1_555 1_555
C13_6 C7_6 1_555 1_555
O11 C13_6 1_555 1_555
O12 C13_6 1_555 1_555
C9_6 C10_6 1_555 1_555
C11_6 C12_6 1_555 1_555
C3_6 C5_6 1_555 1_555
C5_6 S3_6 1_555 1_555
C14_6 C15_6 1_555 1_555
C15_6 H5_5 1_555 1_555
C16_6 C15_6 1_555 1_555
H6_5 C16_6 1_555 1_555
C17_6 C3_6 1_555 1_555
C18_6 C17_6 1_555 1_555
H7_6 C18_6 1_555 1_555
C19_6 C14_6 1_555 1_555
H8_6 C19_6 1_555 1_555
C20_6 C14_6 1_555 1_555
O3_3 C20_6 1_555 1_555
O14_4 C20_6 1_555 1_555
Co8 O3_3 1_555 1_555
C16_6 C17_6 1_555 1_555
C18_6 C19_6 1_555 1_555
C28_6 C29_6 1_555 1_555
C29_6 H13_6 1_555 1_555
C30_6 C29_6 1_555 1_555
H14_6 C30_6 1_555 1_555
C32_6 C31_6 1_555 1_555
C33_6 C28_6 1_555 1_555
H16_6 C33_6 1_555 1_555
C34_6 C28_6 1_555 1_555
O15 C34_6 1_555 1_555
O16_2 C34_6 1_555 1_555
C30_6 C31_6 1_555 1_555
C32_6 C33_6 1_555 1_555
C1_4 C2_4 1_555 1_555
C2_4 S2_6 1_555 1_555
C4_6 C6_6 1_555 1_555
C6_6 S2_6 1_555 1_555
S1_4 C1_4 1_555 1_555
S4_4 C2_4 1_555 1_555
C21_6 C22_6 1_555 1_555
C22_6 H9_6 1_555 1_555
C23_6 C22_6 1_555 1_555
H10_6 C23_6 1_555 1_555
C24_6 C4_6 1_555 1_555
C25_6 C24_6 1_555 1_555
H11_6 C25_6 1_555 1_555
C26_6 C21_6 1_555 1_555
H12_6 C26_6 1_555 1_555
C27_6 C21_6 1_555 1_555
O5_6 C27_6 1_555 1_555
O6_6 C27_6 1_555 1_555
Co4 O5_6 1_555 1_555
Co8 O5_6 1_555 1_555
O9_6 Co4 1_555 1_555
H17_6 O9_6 1_555 1_555
H18_6 O9_6 1_555 1_555
O10_6 Co4 1_555 1_555
H19_6 O10_6 1_555 1_555
H20_6 O10_6 1_555 1_555
C4_6 S4_4 1_555 1_555
C23_6 C24_6 1_555 1_555
C25_6 C26_6 1_555 1_555
O6_6 Co8 1_555 1_555
C1_5 C2_5 1_555 1_555
S1_5 C1_5 1_555 1_555
S4_5 C2_5 1_555 1_555
C1_6 C2_6 1_555 1_555
S1_6 C1_6 1_555 1_555
S4_6 C2_6 1_555 1_555

#END
