
###############################################################################
#
# This file contains modified crystal structure data generated from the
# MOF subset of the Cambridge Structural Database (CSD) v543 
# hosted by the Cambridge Crystallographic Data Centre (CCDC).
#
# This work is licensed under the Creative Commons
# Attribution-NonCommercial-ShareAlike 4.0 International License.
# To view a copy of this license, visit
# http://creativecommons.org/licenses/by-nc-sa/4.0/
# or send a letter to
# Creative Commons, PO Box 1866, Mountain View, CA 94042, USA.
#
# CIF created using the CSD Python API on 29 September 2022
# The structure has been converted into the P1 space group
# The structure has a 3D framework
# The original CSD entry ROYMEZ is in the hexagonal crystal system
# The original CSD entry ROYMEZ is in a Sohncke space group
# The framework has been calculated to contain at least 10.0% void space
# The void calculation uses a probe of radius 1.32A, grid spacing 0.4
#
###############################################################################

data_ROYMEZ
_chemical_formula_moiety         '(C204 H120 Mn12 O59 S24)n'
_symmetry_cell_setting           triclinic
_symmetry_space_group_name_H-M   'P 1'
_symmetry_Int_Tables_number      1
_space_group_name_Hall           'P 1'
loop_
_symmetry_equiv_pos_site_id
_symmetry_equiv_pos_as_xyz
1 x,y,z
_cell_length_a                   19.4690(7)
_cell_length_b                   19.4690(7)
_cell_length_c                   20.6804(8)
_cell_angle_alpha                90
_cell_angle_beta                 90
_cell_angle_gamma                120
_cell_volume                     6788.55
loop_
_atom_site_label
_atom_site_type_symbol
_atom_site_fract_x
_atom_site_fract_y
_atom_site_fract_z
C19 C 0.04817(11) 0.36829(11) 0.02242(10)
H8 H 0.0438 0.4038 0.0514
O4 O 0.16752(8) 0.53065(8) 0.01405(7)
Mn1 Mn 0.269540(17) 0.647391(17) 0.024488(14)
O9 O 0.36611(10) 0.76973(9) 0.04197(8)
H17 H 0.3537(17) 0.8038(15) 0.0401(14)
H18 H 0.3940(16) 0.7731(17) 0.0733(11)
O10 O 0.36829(9) 0.62466(10) 0.01297(8)
H20 H 0.4150(12) 0.6646(13) 0.0239(14)
O13 O 0.28110(8) 0.62571(11) 0.12933(7)
O15 O 0.18527(9) 0.68245(9) 0.04907(7)
C14 C 0.10964(11) 0.39706(11) 0.97751(9)
C15 C 0.11471(12) 0.34544(12) 0.93393(10)
H5 H 0.1559 0.3652 0.9026
C16 C 0.05947(12) 0.26478(12) 0.93623(10)
H6 H 0.0630 0.2297 0.9063
C20 C 0.17327(11) 0.48258(11) 0.97719(10)
O3 O 0.23187(9) 0.50115(9) 0.94017(7)
H19 H 0.3724(18) 0.6117(18) 0.9753(10)
O17 O 0.27243(12) 0.67884(9) 0.92284(7)
Mn8 Mn 0.270353(24) 0.562543(17) 0.854606(15)
C21 C 0.12411(12) 0.75834(11) 0.06930(9)
C22 C 0.06398(11) 0.71637(11) 0.02459(10)
H9 H 0.0613 0.6720 0.0030
C23 C 0.00798(11) 0.73858(11) 0.01115(9)
C24 C 0.01166(12) 0.80356(11) 0.04243(9)
C25 C 0.07331(13) 0.84710(13) 0.08596(11)
H11 H 0.0773 0.8927 0.1063
C26 C 0.12872(13) 0.82434(13) 0.09961(10)
H12 H 0.1700 0.8539 0.1298
C27 C 0.18370(12) 0.73349(12) 0.08487(10)
O6 O 0.22699(9) 0.76508(9) 0.13382(7)
Mn7 Mn 0.292190(17) 0.729647(24) 0.187940(15)
C11 C 0.74887(13) 0.10899(13) 0.03780(11)
H3 H 0.7416 0.0674 0.0660
C12 C 0.69761(13) 0.13896(13) 0.04078(10)
H4 H 0.6556 0.1181 0.0714
C13 C 0.65170(11) 0.23051(11) 0.00370(9)
O1 O 0.60157(9) 0.20771(9) 0.04892(7)
C18 C 0.99302(11) 0.28734(11) 0.02488(10)
H7 H 0.9514 0.2679 0.0558
Mn6 Mn 0.562543(17) 0.292190(17) 0.021273(15)
C2 C 0.90800(12) 0.00031(12) 0.99727(10)
S1 S 0.81924(3) 0.00328(3) 0.99439(3)
S2 S 0.99376(3) 0.09281(3) 0.98572(3)
C3 C 0.86540(11) 0.10754(11) 0.99104(10)
C4 C 0.94497(11) 0.14817(11) 0.98659(9)
C7 C 0.70744(11) 0.19955(11) 0.99911(9)
C8 C 0.76927(11) 0.22999(11) 0.95447(9)
H1 H 0.7763 0.2713 0.9260
C9 C 0.82047(11) 0.20029(11) 0.95136(9)
H2 H 0.8622 0.2210 0.9205
C10 C 0.81115(11) 0.13996(11) 0.99335(10)
O2 O 0.65539(8) 0.28110(8) 0.96266(7)
C17 C 0.99864(11) 0.23493(11) 0.98234(10)
Mn5 Mn 0.622149(24) 0.269540(17) 0.857821(14)
C1 C 0.90969(11) 0.93340(12) 0.00555(10)
S3 S 0.99843(3) 0.93113(3) 0.01056(2)
S4 S 0.82391(3) 0.83990(3) 0.01225(3)
C5 C 0.95374(11) 0.82993(11) 0.02947(9)
C6 C 0.87376(11) 0.78713(11) 0.02841(9)
C28 C 0.72081(12) 0.53542(12) 0.04559(10)
C29 C 0.70287(13) 0.58010(12) 0.00331(11)
C31 C 0.82172(12) 0.70013(11) 0.03620(9)
C32 C 0.83854(12) 0.65527(12) 0.07933(9)
H15 H 0.8844 0.6807 0.1059
C33 C 0.78875(12) 0.57387(11) 0.08369(9)
H16 H 0.8011 0.5440 0.1130
C34 C 0.66726(12) 0.44740(12) 0.04831(10)
O7 O 0.61138(9) 0.41537(8) 0.00705(7)
O8 O 0.67884(9) 0.40641(8) 0.08951(7)
O14 O 0.50115(9) 0.26928(13) 0.10684(7)
Mn4 Mn 0.647391(17) 0.377851(24) 0.191155(14)
H10 H 0.9671 0.7094 0.9806
H13 H 0.6562 0.5547 0.9777
C30 C 0.75289(13) 0.66135(12) 0.99861(11)
H14 H 0.7403 0.6911 0.9695
O16 O 0.46191(13) 0.22699(9) 0.96715(7)
S3_2 S 0.06887(3) 0.06730(4) 0.67723(2)
C5_2 C 0.17007(11) 0.12381(16) 0.69614(9)
C6_2 C 0.21287(11) 0.08663(16) 0.69508(9)
C21_2 C 0.24166(11) 0.36577(16) 0.73597(9)
C22_2 C 0.28363(11) 0.34761(16) 0.69126(10)
H9_2 H 0.3280 0.3893 0.6697
C23_2 C 0.26142(11) 0.26940(16) 0.67782(9)
H10_2 H 0.2906 0.2577 0.6473
C24_2 C 0.19644(11) 0.20810(16) 0.70910(9)
C25_2 C 0.15290(13) 0.22621(18) 0.75263(11)
H11_2 H 0.1073 0.1846 0.7730
C26_2 C 0.17566(13) 0.30438(18) 0.76628(10)
H12_2 H 0.1461 0.3161 0.7965
C27_2 C 0.26651(12) 0.45021(17) 0.75154(10)
O5 O 0.31755(9) 0.50282(13) 0.71574(7)
O6_2 O 0.23492(9) 0.46191(13) 0.80049(7)
C28_2 C 0.46458(12) 0.18539(17) 0.71226(10)
C29_2 C 0.41990(12) 0.12277(18) 0.66998(11)
H13_2 H 0.4453 0.1015 0.6444
C30_2 C 0.33865(12) 0.09154(18) 0.66528(11)
H14_2 H 0.3089 0.0492 0.6362
C31_2 C 0.29987(11) 0.12159(16) 0.70287(9)
C32_2 C 0.34473(12) 0.18327(17) 0.74600(9)
H15_2 H 0.3193 0.2037 0.7726
C33_2 C 0.42613(11) 0.21488(16) 0.75036(9)
H16_2 H 0.4560 0.2571 0.7797
C34_2 C 0.55260(12) 0.21986(17) 0.71498(10)
O7_2 O 0.58463(8) 0.19601(12) 0.67372(7)
O8_2 O 0.59359(8) 0.27243(12) 0.75618(7)
Mn2 Mn 0.707810(17) 0.270353(24) 0.687940(15)
O11 O 0.79229(9) 0.39386(13) 0.71559(7)
O12 O 0.71890(8) 0.37429(11) 0.62933(7)
O14_2 O 0.73072(13) 0.23187(16) 0.77350(7)
O16_2 O 0.77301(9) 0.23492(16) 0.63382(7)
Mn3 Mn 0.352609(17) 0.622149(24) 0.691155(14)
C2_2 C 0.99969(12) 0.90769(17) 0.66394(10)
S1_2 S 0.99672(3) 0.81596(4) 0.66106(3)
S2_2 S 0.90719(3) 0.90095(4) 0.65239(3)
C3_2 C 0.89246(11) 0.75786(16) 0.65771(10)
C4_2 C 0.85183(11) 0.79680(16) 0.65326(9)
C7_2 C 0.80045(11) 0.50789(16) 0.66578(9)
C8_2 C 0.77001(11) 0.53928(16) 0.62114(9)
H1_2 H 0.7287 0.5050 0.5927
C9_2 C 0.79971(11) 0.62018(16) 0.61803(9)
H2_2 H 0.7790 0.6412 0.5872
C10_2 C 0.86004(11) 0.67119(16) 0.66002(10)
C11_2 C 0.89101(13) 0.63988(18) 0.70447(11)
H3_2 H 0.9326 0.6742 0.7327
C12_2 C 0.86104(13) 0.55865(18) 0.70745(10)
H4_2 H 0.8819 0.5375 0.7381
C13_2 C 0.76949(11) 0.42119(16) 0.67037(9)
C14_2 C 0.60294(11) 0.71258(16) 0.64418(9)
C15_2 C 0.65456(12) 0.76927(17) 0.60060(10)
H5_2 H 0.6348 0.7907 0.5693
C16_2 C 0.73522(12) 0.79469(17) 0.60290(10)
H6_2 H 0.7703 0.8333 0.5730
C17_2 C 0.76507(11) 0.76371(16) 0.64901(10)
C18_2 C 0.71266(11) 0.70568(16) 0.69155(10)
H7_2 H 0.7321 0.6835 0.7225
C19_2 C 0.63171(11) 0.67988(16) 0.68909(10)
H8_2 H 0.5962 0.6400 0.7181
C20_2 C 0.51742(11) 0.69069(16) 0.64386(10)
O3_2 O 0.49885(9) 0.73072(13) 0.60684(7)
O4_2 O 0.46935(8) 0.63687(11) 0.68072(7)
O9_2 O 0.23027(9) 0.59638(13) 0.70864(8)
H17_2 H 0.1962(15) 0.5499(23) 0.7068(14)
H18_2 H 0.2269(17) 0.6209(23) 0.7400(11)
O10_2 O 0.37534(10) 0.74363(13) 0.67964(8)
H19_2 H 0.3883(18) 0.7607(25) 0.6420(10)
H20_2 H 0.3354(13) 0.7504(18) 0.6906(14)
O13_2 O 0.37429(11) 0.65539(14) 0.79599(7)
O17_2 O 0.32116(9) 0.59359(15) 0.58951(7)
Mn5_2 Mn 0.730460(17) 0.352609(29) 0.524488(14)
Mn8_2 Mn 0.437457(17) 0.707810(29) 0.521273(15)
C1_2 C 0.02371(16) 0.09031(11) 0.33888(10)
C2_3 C 0.09231(17) 0.09200(12) 0.33060(10)
S1_3 S 0.18404(4) 0.18076(3) 0.32772(3)
S2_3 S 0.09905(4) 0.00624(3) 0.31905(3)
S4_2 S 0.01599(4) 0.17609(3) 0.34558(3)
C3_3 C 0.24214(16) 0.13460(11) 0.32437(10)
C4_3 C 0.20320(16) 0.05503(11) 0.31992(9)
C7_3 C 0.49211(16) 0.29256(11) 0.33244(9)
C8_3 C 0.46072(16) 0.23073(11) 0.28780(9)
H1_3 H 0.4950 0.2237 0.2593
C9_3 C 0.37982(16) 0.17953(11) 0.28469(9)
H2_3 H 0.3588 0.1378 0.2538
C10_3 C 0.32881(16) 0.18885(11) 0.32668(10)
C11_3 C 0.36012(18) 0.25113(13) 0.37113(11)
H3_3 H 0.3258 0.2584 0.3993
C12_3 C 0.44135(18) 0.30239(13) 0.37411(10)
H4_3 H 0.4625 0.3444 0.4047
C13_3 C 0.57881(16) 0.34830(11) 0.33703(9)
O1_2 O 0.60614(13) 0.39843(9) 0.38225(7)
O2_2 O 0.62571(11) 0.34461(8) 0.29599(7)
C17_3 C 0.23629(16) 0.00136(11) 0.31567(10)
C18_3 C 0.29432(16) 0.00698(11) 0.35821(10)
H7_3 H 0.3165 0.0486 0.3891
Mn6_2 Mn 0.729647(24) 0.437457(17) 0.354606(15)
C14_3 C 0.28742(16) 0.89036(11) 0.31084(9)
C15_3 C 0.23073(17) 0.88529(12) 0.26726(10)
H5_3 H 0.2093 0.8441 0.2359
C16_3 C 0.20531(17) 0.94053(12) 0.26956(10)
H6_3 H 0.1667 0.9370 0.2396
C19_3 C 0.32012(16) 0.95183(11) 0.35575(10)
H8_3 H 0.3600 0.9562 0.3847
C20_3 C 0.30931(16) 0.82673(11) 0.31052(10)
O3_3 O 0.26928(13) 0.76813(9) 0.27350(7)
O4_3 O 0.36313(11) 0.83248(8) 0.34738(7)
Mn1_2 Mn 0.377851(24) 0.730460(17) 0.357821(14)
O9_3 O 0.40362(13) 0.63389(10) 0.37530(8)
H17_3 H 0.4501(23) 0.6463(17) 0.3734(14)
H18_3 H 0.3791(23) 0.6060(16) 0.4066(11)
O10_3 O 0.25637(13) 0.63171(9) 0.34630(8)
H19_3 H 0.2393(25) 0.6276(18) 0.3086(10)
H20_3 H 0.2496(18) 0.5850(12) 0.3572(14)
O13_3 O 0.34461(14) 0.71890(8) 0.46266(7)
O15_2 O 0.49718(13) 0.81473(9) 0.38240(7)
O17_3 O 0.40641(15) 0.72757(12) 0.25618(7)
S3_3 S 0.93270(4) 0.00157(3) 0.34389(2)
C5_3 C 0.87619(16) 0.04626(11) 0.36280(9)
C6_3 C 0.91337(16) 0.12624(11) 0.36174(9)
H10_3 H 0.7423 0.0329 0.3139
C28_3 C 0.81461(17) 0.27919(12) 0.37892(10)
C29_3 C 0.87723(18) 0.29713(13) 0.33664(11)
H13_3 H 0.8985 0.3438 0.3110
C30_3 C 0.90846(18) 0.24711(13) 0.33194(11)
H14_3 H 0.9508 0.2597 0.3028
C31_3 C 0.87841(16) 0.17828(12) 0.36953(9)
C32_3 C 0.81673(17) 0.16146(12) 0.41266(9)
H15_3 H 0.7963 0.1156 0.4392
C33_3 C 0.78512(16) 0.21125(12) 0.41702(9)
H16_3 H 0.7429 0.1989 0.4463
C34_3 C 0.78014(17) 0.33274(12) 0.38164(10)
O7_3 O 0.80399(12) 0.38862(9) 0.34038(7)
O8_3 O 0.72757(12) 0.32116(9) 0.42284(7)
O14_3 O 0.76813(16) 0.49885(9) 0.44017(7)
O16_3 O 0.76508(16) 0.53809(13) 0.30049(7)
C21_3 C 0.63423(16) 0.87589(12) 0.40263(9)
C22_3 C 0.65239(16) 0.93602(11) 0.35792(10)
H9_3 H 0.6107 0.9387 0.3363
C23_3 C 0.73060(16) 0.99202(11) 0.34448(9)
C24_3 C 0.79190(16) 0.98834(12) 0.37576(9)
C25_3 C 0.77379(18) 0.92669(13) 0.41929(11)
H11_3 H 0.8154 0.9227 0.4396
C26_3 C 0.69562(18) 0.87128(13) 0.43294(10)
H12_3 H 0.6839 0.8300 0.4631
C27_3 C 0.54979(17) 0.81630(12) 0.41820(10)
O6_3 O 0.53809(13) 0.77301(9) 0.46715(7)
C1_3 C 0.09031(11) 0.06660(12) 0.50555(10)
S3_4 S 0.00157(3) 0.06887(3) 0.51056(2)
S4_3 S 0.17609(3) 0.16010(3) 0.51225(3)
C5_4 C 0.04626(11) 0.17007(11) 0.52947(9)
C6_4 C 0.12624(11) 0.21287(11) 0.52841(9)
H10_4 H 0.0329 0.2906 0.4806
C28_4 C 0.27919(12) 0.46458(12) 0.54559(10)
C29_4 C 0.29713(13) 0.41990(12) 0.50331(11)
H13_4 H 0.3438 0.4453 0.4777
C30_4 C 0.24711(13) 0.33865(12) 0.49861(11)
H14_4 H 0.2597 0.3089 0.4695
C31_4 C 0.17828(12) 0.29987(11) 0.53620(9)
C32_4 C 0.16146(12) 0.34473(12) 0.57933(9)
H15_4 H 0.1156 0.3193 0.6059
C33_4 C 0.21125(12) 0.42613(11) 0.58369(9)
H16_4 H 0.1989 0.4560 0.6130
C34_4 C 0.33274(12) 0.55260(12) 0.54831(10)
O7_4 O 0.38862(9) 0.58463(8) 0.50705(7)
O11_2 O 0.39843(9) 0.79229(9) 0.54892(7)
C2_4 C 0.09200(12) 0.99969(12) 0.49727(10)
S1_4 S 0.18076(3) 0.99672(3) 0.49439(3)
S2_4 S 0.00624(3) 0.90719(3) 0.48572(3)
C3_4 C 0.13460(11) 0.89246(11) 0.49104(10)
C4_4 C 0.05503(11) 0.85183(11) 0.48659(9)
C7_4 C 0.29256(11) 0.80045(11) 0.49911(9)
C8_4 C 0.23073(11) 0.77001(11) 0.45447(9)
H1_4 H 0.2237 0.7287 0.4260
C9_4 C 0.17953(11) 0.79971(11) 0.45136(9)
H2_4 H 0.1378 0.7790 0.4205
C10_4 C 0.18885(11) 0.86004(11) 0.49335(10)
C11_4 C 0.25113(13) 0.89101(13) 0.53780(11)
H3_4 H 0.2584 0.9326 0.5660
C12_4 C 0.30239(13) 0.86104(13) 0.54078(10)
H4_4 H 0.3444 0.8819 0.5714
C13_4 C 0.34830(11) 0.76949(11) 0.50370(9)
C17_4 C 0.00136(11) 0.76507(11) 0.48234(10)
C18_4 C 0.00698(11) 0.71266(11) 0.52488(10)
H7_4 H 0.0486 0.7321 0.5558
C21_4 C 0.87589(12) 0.24166(11) 0.56930(9)
C22_4 C 0.93602(11) 0.28363(11) 0.52459(10)
H9_4 H 0.9387 0.3280 0.5030
C23_4 C 0.99202(11) 0.26142(11) 0.51115(9)
C24_4 C 0.98834(12) 0.19644(11) 0.54243(9)
C25_4 C 0.92669(13) 0.15290(13) 0.58596(11)
H11_4 H 0.9227 0.1073 0.6063
C26_4 C 0.87128(13) 0.17566(13) 0.59961(10)
H12_4 H 0.8300 0.1461 0.6298
C27_4 C 0.81630(12) 0.26651(12) 0.58487(10)
O5_2 O 0.81473(9) 0.31755(9) 0.54907(7)
C14_4 C 0.89036(11) 0.60294(11) 0.47751(9)
C15_4 C 0.88529(12) 0.65456(12) 0.43393(10)
H5_4 H 0.8441 0.6348 0.4026
C16_4 C 0.94053(12) 0.73522(12) 0.43623(10)
H6_4 H 0.9370 0.7703 0.4063
C19_4 C 0.95183(11) 0.63171(11) 0.52242(10)
H8_4 H 0.9562 0.5962 0.5514
C20_4 C 0.82673(11) 0.51742(11) 0.47719(10)
O4_4 O 0.83248(8) 0.46935(8) 0.51405(7)
O9_4 O 0.63389(10) 0.23027(9) 0.54197(8)
H17_4 H 0.6463(17) 0.1962(15) 0.5401(14)
H18_4 H 0.6060(16) 0.2269(17) 0.5733(11)
O10_4 O 0.63171(9) 0.37534(10) 0.51297(8)
H19_4 H 0.6276(18) 0.3883(18) 0.4753(10)
H20_4 H 0.5850(12) 0.3354(13) 0.5239(14)
C2_5 C 0.00031(12) 0.09231(17) 0.16394(10)
S1_5 S 0.00328(3) 0.18404(4) 0.16106(3)
S2_5 S 0.09281(3) 0.09905(4) 0.15239(3)
C3_5 C 0.10754(11) 0.24214(16) 0.15771(10)
C4_5 C 0.14817(11) 0.20320(16) 0.15326(9)
C7_5 C 0.19955(11) 0.49211(16) 0.16578(9)
C8_5 C 0.22999(11) 0.46072(16) 0.12114(9)
H1_5 H 0.2713 0.4950 0.0927
C9_5 C 0.20029(11) 0.37982(16) 0.11803(9)
H2_5 H 0.2210 0.3588 0.0872
C10_5 C 0.13996(11) 0.32881(16) 0.16002(10)
C11_5 C 0.10899(13) 0.36012(18) 0.20447(11)
H3_5 H 0.0674 0.3258 0.2327
C12_5 C 0.13896(13) 0.44135(18) 0.20745(10)
H4_5 H 0.1181 0.4625 0.2381
C13_5 C 0.23051(11) 0.57881(16) 0.17037(9)
O1_3 O 0.20771(9) 0.60614(13) 0.21559(7)
C14_5 C 0.39706(11) 0.28742(16) 0.14418(9)
C15_5 C 0.34544(12) 0.23073(17) 0.10060(10)
H5_5 H 0.3652 0.2093 0.0693
C16_5 C 0.26478(12) 0.20531(17) 0.10290(10)
H6_5 H 0.2297 0.1667 0.0730
C17_5 C 0.23493(11) 0.23629(16) 0.14901(10)
C18_5 C 0.28734(11) 0.29432(16) 0.19155(10)
H7_5 H 0.2679 0.3165 0.2225
C19_5 C 0.36829(11) 0.32012(16) 0.18909(10)
H8_5 H 0.4038 0.3600 0.2181
C20_5 C 0.48258(11) 0.30931(16) 0.14386(10)
O4_5 O 0.53065(8) 0.36313(11) 0.18072(7)
O9_5 O 0.76973(9) 0.40362(13) 0.20864(8)
H17_5 H 0.8038(15) 0.4501(23) 0.2068(14)
H18_5 H 0.7731(17) 0.3791(23) 0.2400(11)
O10_5 O 0.62466(10) 0.25637(13) 0.17964(8)
H19_5 H 0.6117(18) 0.2393(25) 0.1420(10)
H20_5 H 0.6646(13) 0.2496(18) 0.1906(14)
O15_3 O 0.68245(9) 0.49718(13) 0.21574(7)
S3_5 S 0.93113(3) 0.93270(4) 0.17723(2)
C5_5 C 0.82993(11) 0.87619(16) 0.19614(9)
C6_5 C 0.78713(11) 0.91337(16) 0.19508(9)
C21_5 C 0.75834(11) 0.63423(16) 0.23597(9)
C22_5 C 0.71637(11) 0.65239(16) 0.19126(10)
H9_5 H 0.6720 0.6107 0.1697
C23_5 C 0.73858(11) 0.73060(16) 0.17782(9)
H10_5 H 0.7094 0.7423 0.1473
C24_5 C 0.80356(11) 0.79190(16) 0.20910(9)
C25_5 C 0.84710(13) 0.77379(18) 0.25263(11)
H11_5 H 0.8927 0.8154 0.2730
C26_5 C 0.82434(13) 0.69562(18) 0.26628(10)
H12_5 H 0.8539 0.6839 0.2965
C27_5 C 0.73349(12) 0.54979(17) 0.25154(10)
C28_5 C 0.53542(12) 0.81461(17) 0.21226(10)
C29_5 C 0.58010(12) 0.87723(18) 0.16998(11)
H13_5 H 0.5547 0.8985 0.1444
C30_5 C 0.66135(12) 0.90846(18) 0.16528(11)
H14_5 H 0.6911 0.9508 0.1362
C31_5 C 0.70013(11) 0.87841(16) 0.20287(9)
C32_5 C 0.65527(12) 0.81673(17) 0.24600(9)
H15_5 H 0.6807 0.7963 0.2726
C33_5 C 0.57387(11) 0.78512(16) 0.25036(9)
H16_5 H 0.5440 0.7429 0.2797
C34_5 C 0.44740(12) 0.78014(17) 0.21498(10)
O7_5 O 0.41537(8) 0.80399(12) 0.17372(7)
C21_6 C 0.36577(16) 0.12411(12) 0.90263(9)
C22_6 C 0.34761(16) 0.06398(11) 0.85792(10)
H9_6 H 0.3893 0.0613 0.8363
C23_6 C 0.26940(16) 0.00798(11) 0.84448(9)
C24_6 C 0.20810(16) 0.01166(12) 0.87576(9)
C25_6 C 0.22621(18) 0.07331(13) 0.91929(11)
H11_6 H 0.1846 0.0773 0.9396
C26_6 C 0.30438(18) 0.12872(13) 0.93294(10)
H12_6 H 0.3161 0.1700 0.9631
C27_6 C 0.45021(17) 0.18370(12) 0.91820(10)
O5_3 O 0.50282(13) 0.18527(9) 0.88240(7)
S3_6 S 0.06730(4) 0.99843(3) 0.84389(2)
C5_6 C 0.12381(16) 0.95374(11) 0.86280(9)
C6_6 C 0.08663(16) 0.87376(11) 0.86174(9)
H10_6 H 0.2577 0.9671 0.8139
C28_6 C 0.18539(17) 0.72081(12) 0.87892(10)
C29_6 C 0.12277(18) 0.70287(13) 0.83664(11)
H13_6 H 0.1015 0.6562 0.8110
C30_6 C 0.09154(18) 0.75289(13) 0.83194(11)
H14_6 H 0.0492 0.7403 0.8028
C31_6 C 0.12159(16) 0.82172(12) 0.86953(9)
C32_6 C 0.18327(17) 0.83854(12) 0.91266(9)
H15_6 H 0.2037 0.8844 0.9392
C33_6 C 0.21488(16) 0.78875(12) 0.91702(9)
H16_6 H 0.2571 0.8011 0.9463
C34_6 C 0.21986(17) 0.66726(12) 0.88164(10)
O7_6 O 0.19601(12) 0.61138(9) 0.84038(7)
O11_3 O 0.39386(13) 0.60157(9) 0.88225(7)
C14_6 C 0.71258(16) 0.10964(11) 0.81084(9)
C15_6 C 0.76927(17) 0.11471(12) 0.76726(10)
H5_6 H 0.7907 0.1559 0.7359
C16_6 C 0.79469(17) 0.05947(12) 0.76956(10)
H6_6 H 0.8333 0.0630 0.7396
C19_6 C 0.67988(16) 0.04817(11) 0.85575(10)
H8_6 H 0.6400 0.0438 0.8847
C20_6 C 0.69069(16) 0.17327(11) 0.81052(10)
O4_6 O 0.63687(11) 0.16752(8) 0.84738(7)
O9_6 O 0.59638(13) 0.36611(10) 0.87530(8)
H17_6 H 0.5499(23) 0.3537(17) 0.8734(14)
H18_6 H 0.6209(23) 0.3940(16) 0.9066(11)
O10_6 O 0.74363(13) 0.36829(9) 0.84630(8)
H19_6 H 0.7607(25) 0.3724(18) 0.8086(10)
H20_6 H 0.7504(18) 0.4150(12) 0.8572(14)
C1_4 C 0.97629(16) 0.90969(11) 0.83888(10)
C2_6 C 0.90769(17) 0.90800(12) 0.83060(10)
S1_6 S 0.81596(4) 0.81924(3) 0.82772(3)
S2_6 S 0.90095(4) 0.99376(3) 0.81905(3)
S4_4 S 0.98401(4) 0.82391(3) 0.84558(3)
C3_6 C 0.75786(16) 0.86540(11) 0.82437(10)
C4_6 C 0.79680(16) 0.94497(11) 0.81992(9)
C7_6 C 0.50789(16) 0.70744(11) 0.83244(9)
C8_6 C 0.53928(16) 0.76927(11) 0.78780(9)
H1_6 H 0.5050 0.7763 0.7593
C9_6 C 0.62018(16) 0.82047(11) 0.78469(9)
H2_6 H 0.6412 0.8622 0.7538
C10_6 C 0.67119(16) 0.81115(11) 0.82668(10)
C11_6 C 0.63988(18) 0.74887(13) 0.87113(11)
H3_6 H 0.6742 0.7416 0.8993
C12_6 C 0.55865(18) 0.69761(13) 0.87411(10)
H4_6 H 0.5375 0.6556 0.9047
C13_6 C 0.42119(16) 0.65170(11) 0.83703(9)
C17_6 C 0.76371(16) 0.99864(11) 0.81567(10)
C18_6 C 0.70568(16) 0.99302(11) 0.85821(10)
H7_6 H 0.6835 0.9514 0.8891
C1_5 C 0.06660(12) 0.97629(16) 0.67222(10)
S4_5 S 0.16010(3) 0.98401(4) 0.67892(3)
C1_6 C 0.93340(12) 0.02371(16) 0.17222(10)
S4_6 S 0.83990(3) 0.01599(4) 0.17892(3)
loop_
_geom_bond_atom_site_label_1
_geom_bond_atom_site_label_2
_geom_bond_site_symmetry_1
_geom_bond_site_symmetry_2
H8 C19 1_555 1_555
Mn1 O4 1_555 1_555
O9 Mn1 1_555 1_555
H17 O9 1_555 1_555
H18 O9 1_555 1_555
O10 Mn1 1_555 1_555
H20 O10 1_555 1_555
O13 Mn1 1_555 1_555
O15 Mn1 1_555 1_555
C14 C15 1_555 1_555
C15 H5 1_555 1_555
C16 C15 1_555 1_555
H6 C16 1_555 1_555
C20 C14 1_555 1_555
O3 C20 1_555 1_555
Mn8 O3 1_555 1_555
C21 C22 1_555 1_555
C22 H9 1_555 1_555
C23 C22 1_555 1_555
C25 C24 1_555 1_555
H11 C25 1_555 1_555
C26 C21 1_555 1_555
H12 C26 1_555 1_555
C27 C21 1_555 1_555
O15 C27 1_555 1_555
O6 C27 1_555 1_555
Mn7 O6 1_555 1_555
C23 C24 1_555 1_555
C25 C26 1_555 1_555
H3 C11 1_555 1_555
H4 C12 1_555 1_555
O1 C13 1_555 1_555
H7 C18 1_555 1_555
Mn6 O1 1_555 1_555
C11 C12 1_555 1_555
C2 S1 1_555 1_555
S1 C3 1_555 1_555
S2 C2 1_555 1_555
C3 C4 1_555 1_555
C4 S2 1_555 1_555
C7 C8 1_555 1_555
C8 H1 1_555 1_555
C9 C8 1_555 1_555
H2 C9 1_555 1_555
C10 C3 1_555 1_555
C17 C4 1_555 1_555
Mn5 O2 1_555 1_555
C9 C10 1_555 1_555
S3 C1 1_555 1_555
S4 C1 1_555 1_555
C5 S3 1_555 1_555
C6 S4 1_555 1_555
C28 C29 1_555 1_555
C31 C6 1_555 1_555
C32 C31 1_555 1_555
H15 C32 1_555 1_555
C33 C28 1_555 1_555
H16 C33 1_555 1_555
C34 C28 1_555 1_555
O7 C34 1_555 1_555
O8 C34 1_555 1_555
Mn6 O7 1_555 1_555
O14 Mn6 1_555 1_555
Mn4 O8 1_555 1_555
C5 C6 1_555 1_555
C32 C33 1_555 1_555
H14 C30 1_555 1_555
C5_2 S3_2 1_555 1_555
C21_2 C22_2 1_555 1_555
C22_2 H9_2 1_555 1_555
C23_2 C22_2 1_555 1_555
H10_2 C23_2 1_555 1_555
C24_2 C5_2 1_555 1_555
C25_2 C24_2 1_555 1_555
H11_2 C25_2 1_555 1_555
C26_2 C21_2 1_555 1_555
H12_2 C26_2 1_555 1_555
C27_2 C21_2 1_555 1_555
O5 C27_2 1_555 1_555
O6_2 C27_2 1_555 1_555
C28_2 C29_2 1_555 1_555
C29_2 H13_2 1_555 1_555
C30_2 C29_2 1_555 1_555
H14_2 C30_2 1_555 1_555
C31_2 C6_2 1_555 1_555
C32_2 C31_2 1_555 1_555
H15_2 C32_2 1_555 1_555
C33_2 C28_2 1_555 1_555
H16_2 C33_2 1_555 1_555
C34_2 C28_2 1_555 1_555
O7_2 C34_2 1_555 1_555
O8_2 C34_2 1_555 1_555
Mn2 O7_2 1_555 1_555
O11 Mn2 1_555 1_555
O12 Mn2 1_555 1_555
O14_2 Mn2 1_555 1_555
O16_2 Mn2 1_555 1_555
Mn3 O5 1_555 1_555
Mn5 O8_2 1_555 1_555
Mn8 O6_2 1_555 1_555
C5_2 C6_2 1_555 1_555
C23_2 C24_2 1_555 1_555
C25_2 C26_2 1_555 1_555
C30_2 C31_2 1_555 1_555
C32_2 C33_2 1_555 1_555
C2_2 S1_2 1_555 1_555
S1_2 C3_2 1_555 1_555
S2_2 C2_2 1_555 1_555
C3_2 C4_2 1_555 1_555
C4_2 S2_2 1_555 1_555
C7_2 C8_2 1_555 1_555
C8_2 H1_2 1_555 1_555
C9_2 C8_2 1_555 1_555
H2_2 C9_2 1_555 1_555
C10_2 C3_2 1_555 1_555
C11_2 C10_2 1_555 1_555
H3_2 C11_2 1_555 1_555
C12_2 C7_2 1_555 1_555
H4_2 C12_2 1_555 1_555
C13_2 C7_2 1_555 1_555
O11 C13_2 1_555 1_555
O12 C13_2 1_555 1_555
C14_2 C15_2 1_555 1_555
C15_2 H5_2 1_555 1_555
C16_2 C15_2 1_555 1_555
H6_2 C16_2 1_555 1_555
C17_2 C4_2 1_555 1_555
C18_2 C17_2 1_555 1_555
H7_2 C18_2 1_555 1_555
C19_2 C14_2 1_555 1_555
H8_2 C19_2 1_555 1_555
C20_2 C14_2 1_555 1_555
O3_2 C20_2 1_555 1_555
O4_2 C20_2 1_555 1_555
Mn3 O4_2 1_555 1_555
O9_2 Mn3 1_555 1_555
H17_2 O9_2 1_555 1_555
H18_2 O9_2 1_555 1_555
O10_2 Mn3 1_555 1_555
H19_2 O10_2 1_555 1_555
H20_2 O10_2 1_555 1_555
O13_2 Mn3 1_555 1_555
O17_2 Mn3 1_555 1_555
Mn5_2 O12 1_555 1_555
Mn8_2 O3_2 1_555 1_555
C9_2 C10_2 1_555 1_555
C11_2 C12_2 1_555 1_555
C16_2 C17_2 1_555 1_555
C18_2 C19_2 1_555 1_555
C1_2 C2_3 1_555 1_555
C2_3 S1_3 1_555 1_555
S1_3 C3_3 1_555 1_555
S2_3 C2_3 1_555 1_555
S4_2 C1_2 1_555 1_555
C3_3 C4_3 1_555 1_555
C4_3 S2_3 1_555 1_555
C7_3 C8_3 1_555 1_555
C8_3 H1_3 1_555 1_555
C9_3 C8_3 1_555 1_555
H2_3 C9_3 1_555 1_555
C10_3 C3_3 1_555 1_555
C11_3 C10_3 1_555 1_555
H3_3 C11_3 1_555 1_555
C12_3 C7_3 1_555 1_555
H4_3 C12_3 1_555 1_555
C13_3 C7_3 1_555 1_555
O1_2 C13_3 1_555 1_555
O2_2 C13_3 1_555 1_555
C17_3 C4_3 1_555 1_555
C18_3 C17_3 1_555 1_555
H7_3 C18_3 1_555 1_555
Mn4 O2_2 1_555 1_555
Mn6_2 O1_2 1_555 1_555
C9_3 C10_3 1_555 1_555
C11_3 C12_3 1_555 1_555
O2_2 Mn6_2 1_555 1_555
C14_3 C15_3 1_555 1_555
C15_3 H5_3 1_555 1_555
C16_3 C15_3 1_555 1_555
H6_3 C16_3 1_555 1_555
C19_3 C14_3 1_555 1_555
H8_3 C19_3 1_555 1_555
C20_3 C14_3 1_555 1_555
O3_3 C20_3 1_555 1_555
O4_3 C20_3 1_555 1_555
Mn1_2 O4_3 1_555 1_555
O9_3 Mn1_2 1_555 1_555
H17_3 O9_3 1_555 1_555
H18_3 O9_3 1_555 1_555
O10_3 Mn1_2 1_555 1_555
H19_3 O10_3 1_555 1_555
H20_3 O10_3 1_555 1_555
O13_3 Mn1_2 1_555 1_555
O15_2 Mn1_2 1_555 1_555
O17_3 Mn1_2 1_555 1_555
Mn7 O3_3 1_555 1_555
C5_3 S3_3 1_555 1_555
C28_3 C29_3 1_555 1_555
C29_3 H13_3 1_555 1_555
C30_3 C29_3 1_555 1_555
H14_3 C30_3 1_555 1_555
C31_3 C6_3 1_555 1_555
C32_3 C31_3 1_555 1_555
H15_3 C32_3 1_555 1_555
C33_3 C28_3 1_555 1_555
H16_3 C33_3 1_555 1_555
C34_3 C28_3 1_555 1_555
O7_3 C34_3 1_555 1_555
O8_3 C34_3 1_555 1_555
Mn6_2 O7_3 1_555 1_555
O14_3 Mn6_2 1_555 1_555
O16_3 Mn6_2 1_555 1_555
Mn5_2 O8_3 1_555 1_555
C5_3 C6_3 1_555 1_555
C30_3 C31_3 1_555 1_555
C32_3 C33_3 1_555 1_555
C21_3 C22_3 1_555 1_555
C22_3 H9_3 1_555 1_555
C23_3 C22_3 1_555 1_555
C25_3 C24_3 1_555 1_555
H11_3 C25_3 1_555 1_555
C26_3 C21_3 1_555 1_555
H12_3 C26_3 1_555 1_555
C27_3 C21_3 1_555 1_555
O15_2 C27_3 1_555 1_555
O6_3 C27_3 1_555 1_555
Mn8_2 O6_3 1_555 1_555
C23_3 C24_3 1_555 1_555
C25_3 C26_3 1_555 1_555
S3_4 C1_3 1_555 1_555
S4_3 C1_3 1_555 1_555
C5_4 S3_4 1_555 1_555
C6_4 S4_3 1_555 1_555
C28_4 C29_4 1_555 1_555
C29_4 H13_4 1_555 1_555
C30_4 C29_4 1_555 1_555
H14_4 C30_4 1_555 1_555
C31_4 C6_4 1_555 1_555
C32_4 C31_4 1_555 1_555
H15_4 C32_4 1_555 1_555
C33_4 C28_4 1_555 1_555
H16_4 C33_4 1_555 1_555
C34_4 C28_4 1_555 1_555
O7_4 C34_4 1_555 1_555
O17_2 C34_4 1_555 1_555
Mn8_2 O7_4 1_555 1_555
O11_2 Mn8_2 1_555 1_555
O13_3 Mn8_2 1_555 1_555
C5_4 C6_4 1_555 1_555
C30_4 C31_4 1_555 1_555
C32_4 C33_4 1_555 1_555
C2_4 S1_4 1_555 1_555
S1_4 C3_4 1_555 1_555
S2_4 C2_4 1_555 1_555
C3_4 C4_4 1_555 1_555
C4_4 S2_4 1_555 1_555
C7_4 C8_4 1_555 1_555
C8_4 H1_4 1_555 1_555
C9_4 C8_4 1_555 1_555
H2_4 C9_4 1_555 1_555
C10_4 C3_4 1_555 1_555
C11_4 C10_4 1_555 1_555
H3_4 C11_4 1_555 1_555
C12_4 C7_4 1_555 1_555
H4_4 C12_4 1_555 1_555
C13_4 C7_4 1_555 1_555
O11_2 C13_4 1_555 1_555
O13_3 C13_4 1_555 1_555
C17_4 C4_4 1_555 1_555
C18_4 C17_4 1_555 1_555
H7_4 C18_4 1_555 1_555
C9_4 C10_4 1_555 1_555
C11_4 C12_4 1_555 1_555
C21_4 C22_4 1_555 1_555
C22_4 H9_4 1_555 1_555
C23_4 C22_4 1_555 1_555
C25_4 C24_4 1_555 1_555
H11_4 C25_4 1_555 1_555
C26_4 C21_4 1_555 1_555
H12_4 C26_4 1_555 1_555
C27_4 C21_4 1_555 1_555
O5_2 C27_4 1_555 1_555
O16_2 C27_4 1_555 1_555
Mn5_2 O5_2 1_555 1_555
C23_4 C24_4 1_555 1_555
C25_4 C26_4 1_555 1_555
C14_4 C15_4 1_555 1_555
C15_4 H5_4 1_555 1_555
C16_4 C15_4 1_555 1_555
H6_4 C16_4 1_555 1_555
C19_4 C14_4 1_555 1_555
H8_4 C19_4 1_555 1_555
C20_4 C14_4 1_555 1_555
O14_3 C20_4 1_555 1_555
O4_4 C20_4 1_555 1_555
Mn5_2 O4_4 1_555 1_555
O9_4 Mn5_2 1_555 1_555
H17_4 O9_4 1_555 1_555
H18_4 O9_4 1_555 1_555
O10_4 Mn5_2 1_555 1_555
H19_4 O10_4 1_555 1_555
H20_4 O10_4 1_555 1_555
C2_5 S1_5 1_555 1_555
S1_5 C3_5 1_555 1_555
S2_5 C2_5 1_555 1_555
C3_5 C4_5 1_555 1_555
C4_5 S2_5 1_555 1_555
C7_5 C8_5 1_555 1_555
C8_5 H1_5 1_555 1_555
C9_5 C8_5 1_555 1_555
H2_5 C9_5 1_555 1_555
C10_5 C3_5 1_555 1_555
C11_5 C10_5 1_555 1_555
H3_5 C11_5 1_555 1_555
C12_5 C7_5 1_555 1_555
H4_5 C12_5 1_555 1_555
C13_5 C7_5 1_555 1_555
O1_3 C13_5 1_555 1_555
O13 C13_5 1_555 1_555
C14_5 C15_5 1_555 1_555
C15_5 H5_5 1_555 1_555
C16_5 C15_5 1_555 1_555
H6_5 C16_5 1_555 1_555
C17_5 C4_5 1_555 1_555
C18_5 C17_5 1_555 1_555
H7_5 C18_5 1_555 1_555
C19_5 C14_5 1_555 1_555
H8_5 C19_5 1_555 1_555
C20_5 C14_5 1_555 1_555
O14 C20_5 1_555 1_555
O4_5 C20_5 1_555 1_555
Mn4 O4_5 1_555 1_555
O9_5 Mn4 1_555 1_555
H17_5 O9_5 1_555 1_555
H18_5 O9_5 1_555 1_555
O10_5 Mn4 1_555 1_555
H19_5 O10_5 1_555 1_555
H20_5 O10_5 1_555 1_555
O15_3 Mn4 1_555 1_555
Mn7 O1_3 1_555 1_555
C9_5 C10_5 1_555 1_555
C11_5 C12_5 1_555 1_555
O13 Mn7 1_555 1_555
C16_5 C17_5 1_555 1_555
C18_5 C19_5 1_555 1_555
C5_5 S3_5 1_555 1_555
C21_5 C22_5 1_555 1_555
C22_5 H9_5 1_555 1_555
C23_5 C22_5 1_555 1_555
H10_5 C23_5 1_555 1_555
C24_5 C5_5 1_555 1_555
C25_5 C24_5 1_555 1_555
H11_5 C25_5 1_555 1_555
C26_5 C21_5 1_555 1_555
H12_5 C26_5 1_555 1_555
C27_5 C21_5 1_555 1_555
O15_3 C27_5 1_555 1_555
O16_3 C27_5 1_555 1_555
C28_5 C29_5 1_555 1_555
C29_5 H13_5 1_555 1_555
C30_5 C29_5 1_555 1_555
H14_5 C30_5 1_555 1_555
C31_5 C6_5 1_555 1_555
C32_5 C31_5 1_555 1_555
H15_5 C32_5 1_555 1_555
C33_5 C28_5 1_555 1_555
H16_5 C33_5 1_555 1_555
C34_5 C28_5 1_555 1_555
O7_5 C34_5 1_555 1_555
O17_3 C34_5 1_555 1_555
Mn7 O7_5 1_555 1_555
C5_5 C6_5 1_555 1_555
C23_5 C24_5 1_555 1_555
C25_5 C26_5 1_555 1_555
C30_5 C31_5 1_555 1_555
C32_5 C33_5 1_555 1_555
C21_6 C22_6 1_555 1_555
C22_6 H9_6 1_555 1_555
C23_6 C22_6 1_555 1_555
C25_6 C24_6 1_555 1_555
H11_6 C25_6 1_555 1_555
C26_6 C21_6 1_555 1_555
H12_6 C26_6 1_555 1_555
C27_6 C21_6 1_555 1_555
O5_3 C27_6 1_555 1_555
O16 C27_6 1_555 1_555
Mn5 O5_3 1_555 1_555
C23_6 C24_6 1_555 1_555
C25_6 C26_6 1_555 1_555
C5_6 S3_6 1_555 1_555
C28_6 C29_6 1_555 1_555
C29_6 H13_6 1_555 1_555
C30_6 C29_6 1_555 1_555
H14_6 C30_6 1_555 1_555
C31_6 C6_6 1_555 1_555
C32_6 C31_6 1_555 1_555
H15_6 C32_6 1_555 1_555
C33_6 C28_6 1_555 1_555
H16_6 C33_6 1_555 1_555
C34_6 C28_6 1_555 1_555
O7_6 C34_6 1_555 1_555
O17 C34_6 1_555 1_555
Mn8 O7_6 1_555 1_555
O11_3 Mn8 1_555 1_555
O13_2 Mn8 1_555 1_555
C5_6 C6_6 1_555 1_555
C30_6 C31_6 1_555 1_555
C32_6 C33_6 1_555 1_555
C14_6 C15_6 1_555 1_555
C15_6 H5_6 1_555 1_555
C16_6 C15_6 1_555 1_555
H6_6 C16_6 1_555 1_555
C19_6 C14_6 1_555 1_555
H8_6 C19_6 1_555 1_555
C20_6 C14_6 1_555 1_555
O14_2 C20_6 1_555 1_555
O4_6 C20_6 1_555 1_555
Mn5 O4_6 1_555 1_555
O9_6 Mn5 1_555 1_555
H17_6 O9_6 1_555 1_555
H18_6 O9_6 1_555 1_555
O10_6 Mn5 1_555 1_555
H19_6 O10_6 1_555 1_555
H20_6 O10_6 1_555 1_555
C1_4 C2_6 1_555 1_555
C2_6 S1_6 1_555 1_555
S1_6 C3_6 1_555 1_555
S2_6 C2_6 1_555 1_555
S4_4 C1_4 1_555 1_555
C3_6 C4_6 1_555 1_555
C4_6 S2_6 1_555 1_555
C7_6 C8_6 1_555 1_555
C8_6 H1_6 1_555 1_555
C9_6 C8_6 1_555 1_555
H2_6 C9_6 1_555 1_555
C10_6 C3_6 1_555 1_555
C11_6 C10_6 1_555 1_555
H3_6 C11_6 1_555 1_555
C12_6 C7_6 1_555 1_555
H4_6 C12_6 1_555 1_555
C13_6 C7_6 1_555 1_555
O11_3 C13_6 1_555 1_555
O13_2 C13_6 1_555 1_555
C17_6 C4_6 1_555 1_555
C18_6 C17_6 1_555 1_555
H7_6 C18_6 1_555 1_555
C9_6 C10_6 1_555 1_555
C11_6 C12_6 1_555 1_555
S4_5 C1_5 1_555 1_555
S4_6 C1_6 1_555 1_555

#END
