
###############################################################################
#
# This file contains modified crystal structure data generated from the
# MOF subset of the Cambridge Structural Database (CSD) v543 
# hosted by the Cambridge Crystallographic Data Centre (CCDC).
#
# This work is licensed under the Creative Commons
# Attribution-NonCommercial-ShareAlike 4.0 International License.
# To view a copy of this license, visit
# http://creativecommons.org/licenses/by-nc-sa/4.0/
# or send a letter to
# Creative Commons, PO Box 1866, Mountain View, CA 94042, USA.
#
# CIF created using the CSD Python API on 29 September 2022
# The structure has been converted into the P1 space group
# The structure has a 3D framework
# The original CSD entry ROYMOJ is in the hexagonal crystal system
# The original CSD entry ROYMOJ is in a Sohncke space group
# The framework has been calculated to contain at least 10.0% void space
# The void calculation uses a probe of radius 1.32A, grid spacing 0.4
#
###############################################################################

data_ROYMOJ
_chemical_formula_moiety         '(C204 H108 Cd11 O59 S24)n'
_symmetry_cell_setting           triclinic
_symmetry_space_group_name_H-M   'P 1'
_symmetry_Int_Tables_number      1
_space_group_name_Hall           'P 1'
loop_
_symmetry_equiv_pos_site_id
_symmetry_equiv_pos_as_xyz
1 x,y,z
_cell_length_a                   19.600(3)
_cell_length_b                   19.600(3)
_cell_length_c                   20.760(3)
_cell_angle_alpha                90
_cell_angle_beta                 90
_cell_angle_gamma                120
_cell_volume                     6906.69
loop_
_atom_site_label
_atom_site_type_symbol
_atom_site_fract_x
_atom_site_fract_y
_atom_site_fract_z
H7 H 0.1052 0.3046 0.0186
H8 H 0.1881 0.4402 0.0255
Cd8 Cd 0.34505(2) 0.61813(3) 0.09816(2)
S2 S 0.16712(8) 0.14514(7) 0.92768(8)
O3 O 0.3876(3) 0.5641(3) 0.9330(3)
O4 O 0.3031(3) 0.5764(3) 0.9960(2)
C1 C 0.0816(3) 0.0528(3) 0.9215(3)
C2 C 0.0398(4) 0.1571(3) 0.9459(3)
C3 C 0.1193(4) 0.1986(3) 0.9452(3)
H6 H 0.0268 0.2765 0.8961
C14 C 0.1718(4) 0.2838(3) 0.9544(3)
C15 C 0.1526(4) 0.3293(3) 0.9944(3)
C16 C 0.2023(4) 0.4099(3) 0.9988(3)
C17 C 0.2727(4) 0.4470(3) 0.9648(3)
C18 C 0.2939(4) 0.4022(3) 0.9272(4)
H9 H 0.3429 0.4267 0.9050
C19 C 0.2434(4) 0.3211(3) 0.9220(4)
H10 H 0.2583 0.2909 0.8959
C20 C 0.3250(4) 0.5349(4) 0.9655(3)
Cd6 Cd 0.43082(3) 0.69038(2) 0.92210(2)
S4 S 0.17123(8) 0.98412(8) 0.90838(7)
O7 O 0.3880(2) 0.7777(3) 0.9530(2)
O8 O 0.3277(2) 0.7027(2) 0.8697(2)
C4 C 0.0830(3) 0.9871(3) 0.9123(3)
C5 C 0.0472(3) 0.8409(3) 0.9007(3)
C6 C 0.1258(3) 0.8808(3) 0.9048(3)
H14 H 0.0393 0.7247 0.9735
C28 C 0.1797(3) 0.8483(3) 0.9049(3)
C29 C 0.1682(3) 0.7878(3) 0.8643(3)
H15 H 0.1250 0.7666 0.8352
C30 C 0.2188(3) 0.7574(3) 0.8653(3)
H16 H 0.2101 0.7158 0.8369
C31 C 0.2821(3) 0.7878(3) 0.9077(3)
C32 C 0.2957(4) 0.8500(4) 0.9478(3)
H17 H 0.3395 0.8718 0.9762
C33 C 0.2453(4) 0.8804(4) 0.9464(3)
H18 H 0.2552 0.9234 0.9736
C34 C 0.3361(3) 0.7547(3) 0.9103(3)
Cd9 Cd 0.38187(3) 0.72692(2) 0.76482(2)
O1 O 0.7722(4) 0.2264(4) 0.0508(3)
C8 C 0.9224(5) 0.1422(5) 0.0031(4)
H3 H 0.9177 0.0966 0.0234
C9 C 0.8685(5) 0.1668(5) 0.0170(4)
H4 H 0.8278 0.1386 0.0475
C13 C 0.8152(4) 0.2580(4) 0.0025(3)
Cd3 Cd 0.69038(2) 0.25956(2) 0.08877(2)
S1 S 0.99434(8) 0.05688(7) 0.92664(8)
O2 O 0.8145(3) 0.3092(3) 0.9668(2)
C7 C 0.9837(4) 0.1848(3) 0.9591(3)
C10 C 0.8742(4) 0.2321(4) 0.9864(3)
C11 C 0.9339(4) 0.2729(3) 0.9416(3)
H5 H 0.9379 0.3178 0.9206
C12 C 0.9872(3) 0.2490(3) 0.9276(3)
Cd7 Cd 0.72692(2) 0.34505(2) 0.93149(2)
O13 O 0.5641(3) 0.1765(4) 0.0997(3)
O15 O 0.7169(4) 0.2330(2) 0.1895(2)
O16 O 0.7777(3) 0.3897(4) 0.1197(2)
O17 O 0.7027(2) 0.3750(3) 0.0364(2)
S3 S 0.99829(8) 0.89515(8) 0.90031(8)
O5 O 0.7670(2) 0.4839(3) 0.8562(2)
O6 O 0.8345(2) 0.4634(2) 0.9322(2)
O9 O 0.6126(3) 0.3453(4) 0.9101(3)
H1 H 0.611(6) 0.362(5) 0.873(2)
H2 H 0.605(5) 0.375(4) 0.933(4)
O10 O 0.6398(3) 0.2191(3) 0.9723(3)
C21 C 0.9931(3) 0.7538(3) 0.8978(3)
C22 C 0.9347(4) 0.7235(4) 0.8511(3)
H11 H 0.9313 0.7576 0.8205
C23 C 0.8810(4) 0.6430(4) 0.8493(3)
H12 H 0.8410 0.6223 0.8173
C24 C 0.8857(3) 0.5930(3) 0.8936(3)
C25 C 0.9452(3) 0.6239(3) 0.9400(3)
H13 H 0.9491 0.5898 0.9704
C26 C 0.9987(3) 0.7040(3) 0.9419(3)
C27 C 0.8250(3) 0.5070(3) 0.8929(3)
Cd4 Cd 0.74044(2) 0.43082(3) 0.75544(2)
O14 O 0.7267(4) 0.3031(3) 0.8293(2)
Cd2 Cd 0.65495(2) 0.38187(3) 0.59816(2)
S3_2 S 0.10485(8) 0.10314(11) 0.56698(8)
S4_2 S 0.01588(8) 0.18711(11) 0.57505(7)
O5_2 O 0.5161(3) 0.2831(4) 0.5229(2)
O6_2 O 0.5366(2) 0.3711(3) 0.5989(2)
O7_2 O 0.2223(3) 0.6103(4) 0.6197(2)
O8_2 O 0.2973(2) 0.6250(3) 0.5364(2)
O9_2 O 0.6547(4) 0.2673(5) 0.5768(3)
H1_2 H 0.638(5) 0.249(8) 0.540(2)
H2_2 H 0.625(4) 0.230(6) 0.600(4)
O10_2 O 0.7809(3) 0.4207(4) 0.6390(3)
C4_2 C 0.0129(3) 0.0959(4) 0.5790(3)
C5_2 C 0.1591(3) 0.2063(4) 0.5674(3)
C6_2 C 0.1192(3) 0.2450(4) 0.5715(3)
C21_2 C 0.2462(3) 0.2393(4) 0.5645(3)
C22_2 C 0.2765(4) 0.2112(6) 0.5178(3)
H11_2 H 0.2424 0.1737 0.4872
C23_2 C 0.3570(4) 0.2380(6) 0.5160(3)
H12_2 H 0.3777 0.2187 0.4840
C24_2 C 0.4070(3) 0.2927(4) 0.5603(3)
C25_2 C 0.3761(3) 0.3213(4) 0.6067(3)
H13_2 H 0.4102 0.3593 0.6371
C26_2 C 0.2960(3) 0.2947(4) 0.6086(3)
H14_2 H 0.2753 0.3146 0.6402
C27_2 C 0.4930(3) 0.3180(4) 0.5596(3)
C28_2 C 0.1517(3) 0.3314(4) 0.5716(3)
C29_2 C 0.2122(3) 0.3804(4) 0.5310(3)
H15_2 H 0.2334 0.3584 0.5019
C30_2 C 0.2426(3) 0.4614(4) 0.5320(3)
H16_2 H 0.2842 0.4943 0.5036
C31_2 C 0.2122(3) 0.4943(4) 0.5744(3)
C32_2 C 0.1500(4) 0.4457(6) 0.6145(3)
H17_2 H 0.1282 0.4677 0.6429
C33_2 C 0.1196(4) 0.3649(6) 0.6131(3)
H18_2 H 0.0766 0.3318 0.6403
C34_2 C 0.2453(3) 0.5814(4) 0.5770(3)
Cd4_2 Cd 0.56918(3) 0.30962(4) 0.42210(2)
Cd5 Cd 0.30962(2) 0.74044(4) 0.58877(2)
Cd9_2 Cd 0.27308(2) 0.65495(4) 0.43149(2)
O11 O 0.7736(4) 0.5458(6) 0.7175(3)
O12 O 0.6908(3) 0.5053(4) 0.6335(2)
O13_2 O 0.8235(4) 0.3876(5) 0.7663(3)
O14_2 O 0.6969(3) 0.4236(5) 0.4960(2)
O16_2 O 0.6103(4) 0.3880(5) 0.7863(2)
O17_2 O 0.6250(3) 0.3277(4) 0.7030(2)
S1_2 S 0.94312(7) 0.93746(11) 0.59331(8)
O3_2 O 0.4359(3) 0.8235(4) 0.5997(3)
O4_2 O 0.4236(3) 0.7267(4) 0.6627(2)
C2_2 C 0.8429(3) 0.8827(5) 0.6126(3)
C3_2 C 0.8014(3) 0.9207(5) 0.6119(3)
C7_2 C 0.8152(3) 0.7989(5) 0.6258(3)
C8_2 C 0.8578(5) 0.7802(7) 0.6698(4)
H3_2 H 0.9034 0.8211 0.6901
C9_2 C 0.8332(5) 0.7017(7) 0.6837(4)
H4_2 H 0.8614 0.6892 0.7142
C10_2 C 0.7679(4) 0.6421(6) 0.6531(3)
C11_2 C 0.7271(3) 0.6610(5) 0.6083(3)
H5_2 H 0.6822 0.6201 0.5873
C12_2 C 0.7510(3) 0.7382(4) 0.5943(3)
H6_2 H 0.7235 0.7503 0.5628
C13_2 C 0.7420(4) 0.5572(6) 0.6692(3)
C14_2 C 0.7162(3) 0.8880(5) 0.6211(3)
C15_2 C 0.6707(3) 0.8233(5) 0.6611(3)
H7_2 H 0.6954 0.8006 0.6853
C16_2 C 0.5901(3) 0.7924(5) 0.6655(3)
H8_2 H 0.5598 0.7479 0.6922
C17_2 C 0.5530(3) 0.8257(5) 0.6315(3)
C18_2 C 0.5978(3) 0.8917(5) 0.5939(4)
H9_2 H 0.5733 0.9162 0.5717
C19_2 C 0.6789(3) 0.9223(5) 0.5887(4)
H10_2 H 0.7091 0.9674 0.5626
C20_2 C 0.4651(4) 0.7901(6) 0.6322(3)
S1_3 S 0.06254(11) 0.00566(8) 0.25997(8)
O1_2 O 0.4542(6) 0.2278(4) 0.3841(3)
O2_2 O 0.4947(4) 0.1855(3) 0.3001(2)
C7_3 C 0.2011(5) 0.0163(4) 0.2924(3)
C8_3 C 0.2198(7) 0.0776(5) 0.3364(4)
H3_3 H 0.1789 0.0823 0.3567
C9_3 C 0.2983(7) 0.1315(5) 0.3503(4)
H4_3 H 0.3108 0.1722 0.3808
C10_3 C 0.3579(6) 0.1258(4) 0.3197(3)
C11_3 C 0.3390(5) 0.0661(4) 0.2749(3)
H5_3 H 0.3799 0.0621 0.2539
C12_3 C 0.2618(4) 0.0128(3) 0.2609(3)
C13_3 C 0.4428(6) 0.1848(4) 0.3358(3)
Cd7_2 Cd 0.61813(3) 0.27308(2) 0.26482(2)
O3_3 O 0.1765(4) 0.6124(3) 0.2663(3)
O4_3 O 0.2733(4) 0.6969(3) 0.3293(2)
C2_3 C 0.1173(5) 0.9602(4) 0.2792(3)
C3_3 C 0.0793(5) 0.8807(4) 0.2785(3)
H6_3 H 0.2497 0.9732 0.2294
C14_3 C 0.1120(5) 0.8282(4) 0.2877(3)
C15_3 C 0.1767(5) 0.8474(4) 0.3277(3)
H7_3 H 0.1994 0.8948 0.3519
C16_3 C 0.2076(5) 0.7977(4) 0.3321(3)
H8_3 H 0.2521 0.8119 0.3588
C17_3 C 0.1743(5) 0.7273(4) 0.2981(3)
C18_3 C 0.1083(5) 0.7061(4) 0.2605(4)
H9_3 H 0.0838 0.6571 0.2383
C19_3 C 0.0777(5) 0.7566(4) 0.2553(4)
H10_3 H 0.0326 0.7417 0.2292
C20_3 C 0.2099(6) 0.6750(4) 0.2988(3)
Cd6_2 Cd 0.25956(4) 0.56918(3) 0.25544(2)
S3_3 S 0.89686(11) 0.00171(8) 0.23364(8)
O6_3 O 0.6289(3) 0.1655(2) 0.2655(2)
O9_3 O 0.7327(5) 0.3874(3) 0.2434(3)
H1_3 H 0.751(8) 0.389(6) 0.206(2)
H2_3 H 0.770(6) 0.395(5) 0.266(4)
O10_3 O 0.5793(4) 0.3602(3) 0.3056(3)
C21_3 C 0.7607(4) 0.0069(3) 0.2311(3)
C22_3 C 0.7888(6) 0.0653(4) 0.1844(3)
H11_3 H 0.8263 0.0687 0.1538
C23_3 C 0.7620(6) 0.1190(4) 0.1826(3)
H12_3 H 0.7813 0.1590 0.1506
C24_3 C 0.7073(4) 0.1143(3) 0.2269(3)
C25_3 C 0.6787(4) 0.0548(3) 0.2733(3)
H13_3 H 0.6407 0.0509 0.3037
C26_3 C 0.7053(4) 0.0013(3) 0.2752(3)
C27_3 C 0.6820(4) 0.1750(3) 0.2262(3)
O13_3 O 0.6124(5) 0.4359(3) 0.4330(3)
O14_3 O 0.5764(5) 0.2733(4) 0.1627(2)
O16_3 O 0.6120(5) 0.2223(3) 0.4530(2)
O17_3 O 0.6723(4) 0.2973(2) 0.3697(2)
S2_2 S 0.97802(11) 0.83288(8) 0.26101(8)
S4_3 S 0.81289(11) 0.82877(8) 0.24171(7)
O7_3 O 0.3897(4) 0.6120(2) 0.2863(2)
O8_3 O 0.3750(3) 0.6723(2) 0.2030(2)
C1_2 C 0.9712(4) 0.9184(3) 0.2548(3)
C4_3 C 0.9041(4) 0.9170(3) 0.2456(3)
C5_3 C 0.7937(4) 0.9528(3) 0.2340(3)
C6_3 C 0.7550(4) 0.8742(3) 0.2381(3)
H14_3 H 0.6854 0.9607 0.3068
C28_3 C 0.6686(4) 0.8203(3) 0.2382(3)
C29_3 C 0.6196(4) 0.8318(3) 0.1976(3)
H15_3 H 0.6416 0.8750 0.1685
C30_3 C 0.5386(4) 0.7812(3) 0.1986(3)
H16_3 H 0.5057 0.7899 0.1702
C31_3 C 0.5057(4) 0.7179(3) 0.2410(3)
C32_3 C 0.5543(6) 0.7043(4) 0.2811(3)
H17_3 H 0.5323 0.6605 0.3095
C33_3 C 0.6351(6) 0.7547(4) 0.2797(3)
H18_3 H 0.6682 0.7448 0.3069
C34_3 C 0.4186(4) 0.6639(3) 0.2436(3)
S3_4 S 0.00171(8) 0.10485(8) 0.40031(8)
O5_3 O 0.2330(2) 0.5161(3) 0.3562(2)
O6_4 O 0.1655(2) 0.5366(2) 0.4322(2)
O9_4 O 0.3874(3) 0.6547(4) 0.4101(3)
H1_4 H 0.389(6) 0.638(5) 0.373(2)
H2_4 H 0.395(5) 0.625(4) 0.433(4)
O10_4 O 0.3602(3) 0.7809(3) 0.4723(3)
C21_4 C 0.0069(3) 0.2462(3) 0.3978(3)
C22_4 C 0.0653(4) 0.2765(4) 0.3511(3)
H11_4 H 0.0687 0.2424 0.3205
C23_4 C 0.1190(4) 0.3570(4) 0.3493(3)
H12_4 H 0.1590 0.3777 0.3173
C24_4 C 0.1143(3) 0.4070(3) 0.3936(3)
C25_4 C 0.0548(3) 0.3761(3) 0.4400(3)
H13_4 H 0.0509 0.4102 0.4704
C26_4 C 0.0013(3) 0.2960(3) 0.4419(3)
C27_4 C 0.1750(3) 0.4930(3) 0.3929(3)
O11_2 O 0.2278(4) 0.7736(4) 0.5508(3)
O12_2 O 0.1855(3) 0.6908(3) 0.4668(2)
O15_2 O 0.2831(4) 0.7670(2) 0.6895(2)
S1_4 S 0.00566(8) 0.94312(7) 0.42664(8)
C7_4 C 0.0163(4) 0.8152(3) 0.4591(3)
C8_4 C 0.0776(5) 0.8578(5) 0.5031(4)
H3_4 H 0.0823 0.9034 0.5234
C9_4 C 0.1315(5) 0.8332(5) 0.5170(4)
H4_4 H 0.1722 0.8614 0.5475
C10_4 C 0.1258(4) 0.7679(4) 0.4864(3)
C11_4 C 0.0661(4) 0.7271(3) 0.4416(3)
H5_4 H 0.0621 0.6822 0.4206
C12_4 C 0.0128(3) 0.7510(3) 0.4276(3)
C13_4 C 0.1848(4) 0.7420(4) 0.5025(3)
S4_4 S 0.82877(8) 0.01588(8) 0.40838(7)
C4_4 C 0.9170(3) 0.0129(3) 0.4123(3)
C5_4 C 0.9528(3) 0.1591(3) 0.4007(3)
C6_4 C 0.8742(3) 0.1192(3) 0.4048(3)
H14_4 H 0.9607 0.2753 0.4735
C28_4 C 0.8203(3) 0.1517(3) 0.4049(3)
C29_4 C 0.8318(3) 0.2122(3) 0.3643(3)
H15_4 H 0.8750 0.2334 0.3352
C30_4 C 0.7812(3) 0.2426(3) 0.3653(3)
H16_4 H 0.7899 0.2842 0.3369
C31_4 C 0.7179(3) 0.2122(3) 0.4077(3)
C32_4 C 0.7043(4) 0.1500(4) 0.4478(3)
H17_4 H 0.6605 0.1282 0.4762
C33_4 C 0.7547(4) 0.1196(4) 0.4464(3)
H18_4 H 0.7448 0.0766 0.4736
C34_4 C 0.6639(3) 0.2453(3) 0.4103(3)
S2_3 S 0.83288(8) 0.85486(7) 0.42768(8)
C1_3 C 0.9184(3) 0.9472(3) 0.4215(3)
C2_4 C 0.9602(4) 0.8429(3) 0.4459(3)
C3_4 C 0.8807(4) 0.8014(3) 0.4452(3)
H6_4 H 0.9732 0.7235 0.3961
C14_4 C 0.8282(4) 0.7162(3) 0.4544(3)
C15_4 C 0.8474(4) 0.6707(3) 0.4944(3)
H7_4 H 0.8948 0.6954 0.5186
C16_4 C 0.7977(4) 0.5901(3) 0.4988(3)
H8_4 H 0.8119 0.5598 0.5255
C17_4 C 0.7273(4) 0.5530(3) 0.4648(3)
C18_4 C 0.7061(4) 0.5978(3) 0.4272(4)
H9_4 H 0.6571 0.5733 0.4050
C19_4 C 0.7566(4) 0.6789(3) 0.4220(4)
H10_4 H 0.7417 0.7091 0.3959
C20_4 C 0.6750(4) 0.4651(4) 0.4655(3)
S1_5 S 0.05688(7) 0.06254(11) 0.09331(8)
O1_3 O 0.2264(4) 0.4542(6) 0.2175(3)
O2_3 O 0.3092(3) 0.4947(4) 0.1335(2)
C2_5 C 0.1571(3) 0.1173(5) 0.1126(3)
C3_5 C 0.1986(3) 0.0793(5) 0.1119(3)
C7_5 C 0.1848(3) 0.2011(5) 0.1258(3)
C8_5 C 0.1422(5) 0.2198(7) 0.1698(4)
H3_5 H 0.0966 0.1789 0.1901
C9_5 C 0.1668(5) 0.2983(7) 0.1837(4)
H4_5 H 0.1386 0.3108 0.2142
C10_5 C 0.2321(4) 0.3579(6) 0.1531(3)
C11_5 C 0.2729(3) 0.3390(5) 0.1083(3)
H5_5 H 0.3178 0.3799 0.0873
C12_5 C 0.2490(3) 0.2618(4) 0.0943(3)
H6_5 H 0.2765 0.2497 0.0628
C13_5 C 0.2580(4) 0.4428(6) 0.1692(3)
C14_5 C 0.2838(3) 0.1120(5) 0.1211(3)
C15_5 C 0.3293(3) 0.1767(5) 0.1611(3)
H7_5 H 0.3046 0.1994 0.1853
C16_5 C 0.4099(3) 0.2076(5) 0.1655(3)
H8_5 H 0.4402 0.2521 0.1922
C17_5 C 0.4470(3) 0.1743(5) 0.1315(3)
C18_5 C 0.4022(3) 0.1083(5) 0.0939(4)
H9_5 H 0.4267 0.0838 0.0717
C19_5 C 0.3211(3) 0.0777(5) 0.0887(4)
H10_5 H 0.2909 0.0326 0.0626
C20_5 C 0.5349(4) 0.2099(6) 0.1322(3)
S3_5 S 0.89515(8) 0.89686(11) 0.06698(8)
S4_5 S 0.98412(8) 0.81289(11) 0.07505(7)
O5_4 O 0.4839(3) 0.7169(4) 0.0229(2)
O6_5 O 0.4634(2) 0.6289(3) 0.0989(2)
O9_5 O 0.3453(4) 0.7327(5) 0.0768(3)
H1_5 H 0.362(5) 0.751(8) 0.040(2)
H2_5 H 0.375(4) 0.770(6) 0.100(4)
O10_5 O 0.2191(3) 0.5793(4) 0.1390(3)
C4_5 C 0.9871(3) 0.9041(4) 0.0790(3)
C5_5 C 0.8409(3) 0.7937(4) 0.0674(3)
C6_5 C 0.8808(3) 0.7550(4) 0.0715(3)
C21_5 C 0.7538(3) 0.7607(4) 0.0645(3)
C22_5 C 0.7235(4) 0.7888(6) 0.0178(3)
C23_5 C 0.6430(4) 0.7620(6) 0.0160(3)
C24_5 C 0.5930(3) 0.7073(4) 0.0603(3)
C25_5 C 0.6239(3) 0.6787(4) 0.1067(3)
H13_5 H 0.5898 0.6407 0.1371
C26_5 C 0.7040(3) 0.7053(4) 0.1086(3)
H14_5 H 0.7247 0.6854 0.1402
C27_5 C 0.5070(3) 0.6820(4) 0.0596(3)
C28_5 C 0.8483(3) 0.6686(4) 0.0716(3)
C29_5 C 0.7878(3) 0.6196(4) 0.0310(3)
H15_5 H 0.7666 0.6416 0.0019
C30_5 C 0.7574(3) 0.5386(4) 0.0320(3)
H16_5 H 0.7158 0.5057 0.0036
C31_5 C 0.7878(3) 0.5057(4) 0.0744(3)
C32_5 C 0.8500(4) 0.5543(6) 0.1145(3)
H17_5 H 0.8718 0.5323 0.1429
C33_5 C 0.8804(4) 0.6351(6) 0.1131(3)
H18_5 H 0.9234 0.6682 0.1403
C34_5 C 0.7547(3) 0.4186(4) 0.0770(3)
H11_5 H 0.7576 0.8263 0.9872
H12_5 H 0.6223 0.7813 0.9840
S2_4 S 0.02198(11) 0.16712(8) 0.76101(8)
S4_6 S 0.18711(11) 0.17123(8) 0.74171(7)
C1_4 C 0.0288(4) 0.0816(3) 0.7548(3)
C4_6 C 0.0959(4) 0.0830(3) 0.7456(3)
C5_6 C 0.2063(4) 0.0472(3) 0.7340(3)
C6_6 C 0.2450(4) 0.1258(3) 0.7381(3)
H14_6 H 0.3146 0.0393 0.8068
C28_6 C 0.3314(4) 0.1797(3) 0.7382(3)
C29_6 C 0.3804(4) 0.1682(3) 0.6976(3)
H15_6 H 0.3584 0.1250 0.6685
C30_6 C 0.4614(4) 0.2188(3) 0.6986(3)
H16_6 H 0.4943 0.2101 0.6702
C31_6 C 0.4943(4) 0.2821(3) 0.7410(3)
C32_6 C 0.4457(6) 0.2957(4) 0.7811(3)
H17_6 H 0.4677 0.3395 0.8095
C33_6 C 0.3649(6) 0.2453(4) 0.7797(3)
H18_6 H 0.3318 0.2552 0.8069
C34_6 C 0.5814(4) 0.3361(3) 0.7436(3)
S3_6 S 0.10314(11) 0.99829(8) 0.73364(8)
O6_6 O 0.3711(3) 0.8345(2) 0.7655(2)
O9_6 O 0.2673(5) 0.6126(3) 0.7434(3)
H1_6 H 0.249(8) 0.611(6) 0.706(2)
H2_6 H 0.230(6) 0.605(5) 0.766(4)
O10_6 O 0.4207(4) 0.6398(3) 0.8056(3)
C21_6 C 0.2393(4) 0.9931(3) 0.7311(3)
C22_6 C 0.2112(6) 0.9347(4) 0.6844(3)
H11_6 H 0.1737 0.9313 0.6538
C23_6 C 0.2380(6) 0.8810(4) 0.6826(3)
H12_6 H 0.2187 0.8410 0.6506
C24_6 C 0.2927(4) 0.8857(3) 0.7269(3)
C25_6 C 0.3213(4) 0.9452(3) 0.7733(3)
H13_6 H 0.3593 0.9491 0.8037
C26_6 C 0.2947(4) 0.9987(3) 0.7752(3)
C27_6 C 0.3180(4) 0.8250(3) 0.7262(3)
O11_3 O 0.5458(6) 0.7722(4) 0.8841(3)
O12_3 O 0.5053(4) 0.8145(3) 0.8001(2)
C2_6 C 0.8827(5) 0.0398(4) 0.7792(3)
C3_6 C 0.9207(5) 0.1193(4) 0.7785(3)
H6_6 H 0.7503 0.0268 0.7294
C14_6 C 0.8880(5) 0.1718(4) 0.7877(3)
C15_6 C 0.8233(5) 0.1526(4) 0.8277(3)
H7_6 H 0.8006 0.1052 0.8519
C16_6 C 0.7924(5) 0.2023(4) 0.8321(3)
H8_6 H 0.7479 0.1881 0.8588
C17_6 C 0.8257(5) 0.2727(4) 0.7981(3)
C18_6 C 0.8917(5) 0.2939(4) 0.7605(4)
H9_6 H 0.9162 0.3429 0.7383
C19_6 C 0.9223(5) 0.2434(4) 0.7553(4)
H10_6 H 0.9674 0.2583 0.7292
C20_6 C 0.7901(6) 0.3250(4) 0.7988(3)
S1_6 S 0.93746(11) 0.99434(8) 0.75997(8)
C7_6 C 0.7989(5) 0.9837(4) 0.7924(3)
C8_6 C 0.7802(7) 0.9224(5) 0.8364(4)
H3_6 H 0.8211 0.9177 0.8567
C9_6 C 0.7017(7) 0.8685(5) 0.8503(4)
H4_6 H 0.6892 0.8278 0.8808
C10_6 C 0.6421(6) 0.8742(4) 0.8197(3)
C11_6 C 0.6610(5) 0.9339(4) 0.7749(3)
H5_6 H 0.6201 0.9379 0.7539
C12_6 C 0.7382(4) 0.9872(3) 0.7609(3)
C13_6 C 0.5572(6) 0.8152(4) 0.8358(3)
S2_5 S 0.85486(7) 0.02198(11) 0.59435(8)
C1_5 C 0.9472(3) 0.0288(4) 0.5882(3)
S2_6 S 0.14514(7) 0.97802(11) 0.09435(8)
C1_6 C 0.0528(3) 0.9712(4) 0.0882(3)
loop_
_geom_bond_atom_site_label_1
_geom_bond_atom_site_label_2
_geom_bond_site_symmetry_1
_geom_bond_site_symmetry_2
S2 C1 1_555 1_555
O3 C20 1_555 1_555
O4 C20 1_555 1_555
C3 S2 1_555 1_555
C14 C3 1_555 1_555
C15 C14 1_555 1_555
C16 C15 1_555 1_555
C17 C16 1_555 1_555
C18 C17 1_555 1_555
H9 C18 1_555 1_555
C19 C14 1_555 1_555
H10 C19 1_555 1_555
C20 C17 1_555 1_555
Cd6 O3 1_555 1_555
C2 C3 1_555 1_555
C18 C19 1_555 1_555
S4 C4 1_555 1_555
O7 C34 1_555 1_555
O8 C34 1_555 1_555
C6 S4 1_555 1_555
C28 C6 1_555 1_555
C29 C28 1_555 1_555
H15 C29 1_555 1_555
C30 C29 1_555 1_555
H16 C30 1_555 1_555
C31 C30 1_555 1_555
C32 C31 1_555 1_555
H17 C32 1_555 1_555
C33 C28 1_555 1_555
H18 C33 1_555 1_555
C34 C31 1_555 1_555
Cd6 O7 1_555 1_555
Cd9 O8 1_555 1_555
O8 Cd6 1_555 1_555
C5 C6 1_555 1_555
C32 C33 1_555 1_555
O1 C13 1_555 1_555
H3 C8 1_555 1_555
C9 C8 1_555 1_555
H4 C9 1_555 1_555
Cd3 O1 1_555 1_555
C11 C10 1_555 1_555
H5 C11 1_555 1_555
C12 C7 1_555 1_555
Cd7 O2 1_555 1_555
C11 C12 1_555 1_555
O13 Cd3 1_555 1_555
O15 Cd3 1_555 1_555
O16 Cd3 1_555 1_555
O17 Cd3 1_555 1_555
Cd7 O6 1_555 1_555
O5 C27 1_555 1_555
O6 C27 1_555 1_555
O9 Cd7 1_555 1_555
H1 O9 1_555 1_555
H2 O9 1_555 1_555
O10 Cd7 1_555 1_555
C22 C21 1_555 1_555
H11 C22 1_555 1_555
C23 C22 1_555 1_555
H12 C23 1_555 1_555
C24 C23 1_555 1_555
C25 C24 1_555 1_555
H13 C25 1_555 1_555
C26 C21 1_555 1_555
C27 C24 1_555 1_555
Cd4 O5 1_555 1_555
O14 Cd7 1_555 1_555
C25 C26 1_555 1_555
Cd4 O10_2 1_555 1_555
Cd2 O6_2 1_555 1_555
S3_2 C4_2 1_555 1_555
S4_2 C4_2 1_555 1_555
O5_2 C27_2 1_555 1_555
O6_2 C27_2 1_555 1_555
O7_2 C34_2 1_555 1_555
O8_2 C34_2 1_555 1_555
O9_2 Cd2 1_555 1_555
H1_2 O9_2 1_555 1_555
H2_2 O9_2 1_555 1_555
O10_2 Cd2 1_555 1_555
C5_2 S3_2 1_555 1_555
C6_2 S4_2 1_555 1_555
C21_2 C5_2 1_555 1_555
C22_2 C21_2 1_555 1_555
H11_2 C22_2 1_555 1_555
C23_2 C22_2 1_555 1_555
H12_2 C23_2 1_555 1_555
C24_2 C23_2 1_555 1_555
C25_2 C24_2 1_555 1_555
H13_2 C25_2 1_555 1_555
C26_2 C21_2 1_555 1_555
H14_2 C26_2 1_555 1_555
C27_2 C24_2 1_555 1_555
C28_2 C6_2 1_555 1_555
C29_2 C28_2 1_555 1_555
H15_2 C29_2 1_555 1_555
C30_2 C29_2 1_555 1_555
H16_2 C30_2 1_555 1_555
C31_2 C30_2 1_555 1_555
C32_2 C31_2 1_555 1_555
H17_2 C32_2 1_555 1_555
C33_2 C28_2 1_555 1_555
H18_2 C33_2 1_555 1_555
C34_2 C31_2 1_555 1_555
Cd4_2 O5_2 1_555 1_555
Cd5 O7_2 1_555 1_555
Cd9_2 O8_2 1_555 1_555
O11 Cd4 1_555 1_555
O12 Cd2 1_555 1_555
O13_2 Cd4 1_555 1_555
O14_2 Cd2 1_555 1_555
O16_2 Cd4 1_555 1_555
O17_2 Cd4 1_555 1_555
Cd2 O17_2 1_555 1_555
O8_2 Cd5 1_555 1_555
C5_2 C6_2 1_555 1_555
C25_2 C26_2 1_555 1_555
C32_2 C33_2 1_555 1_555
O11 C13_2 1_555 1_555
O12 C13_2 1_555 1_555
O3_2 C20_2 1_555 1_555
O4_2 C20_2 1_555 1_555
C2_2 S1_2 1_555 1_555
C7_2 C2_2 1_555 1_555
C8_2 C7_2 1_555 1_555
H3_2 C8_2 1_555 1_555
C9_2 C8_2 1_555 1_555
H4_2 C9_2 1_555 1_555
C10_2 C9_2 1_555 1_555
C11_2 C10_2 1_555 1_555
H5_2 C11_2 1_555 1_555
C12_2 C7_2 1_555 1_555
H6_2 C12_2 1_555 1_555
C13_2 C10_2 1_555 1_555
C14_2 C3_2 1_555 1_555
C15_2 C14_2 1_555 1_555
H7_2 C15_2 1_555 1_555
C16_2 C15_2 1_555 1_555
H8_2 C16_2 1_555 1_555
C17_2 C16_2 1_555 1_555
C18_2 C17_2 1_555 1_555
H9_2 C18_2 1_555 1_555
C19_2 C14_2 1_555 1_555
H10_2 C19_2 1_555 1_555
C20_2 C17_2 1_555 1_555
Cd5 O3_2 1_555 1_555
Cd9 O4_2 1_555 1_555
C2_2 C3_2 1_555 1_555
C11_2 C12_2 1_555 1_555
C18_2 C19_2 1_555 1_555
O1_2 C13_3 1_555 1_555
O2_2 C13_3 1_555 1_555
C8_3 C7_3 1_555 1_555
H3_3 C8_3 1_555 1_555
C9_3 C8_3 1_555 1_555
H4_3 C9_3 1_555 1_555
C10_3 C9_3 1_555 1_555
C11_3 C10_3 1_555 1_555
H5_3 C11_3 1_555 1_555
C12_3 C7_3 1_555 1_555
C13_3 C10_3 1_555 1_555
Cd4_2 O1_2 1_555 1_555
Cd7_2 O2_2 1_555 1_555
C11_3 C12_3 1_555 1_555
O3_3 C20_3 1_555 1_555
O4_3 C20_3 1_555 1_555
C14_3 C3_3 1_555 1_555
C15_3 C14_3 1_555 1_555
H7_3 C15_3 1_555 1_555
C16_3 C15_3 1_555 1_555
H8_3 C16_3 1_555 1_555
C17_3 C16_3 1_555 1_555
C18_3 C17_3 1_555 1_555
H9_3 C18_3 1_555 1_555
C19_3 C14_3 1_555 1_555
H10_3 C19_3 1_555 1_555
C20_3 C17_3 1_555 1_555
Cd6_2 O3_3 1_555 1_555
Cd9_2 O4_3 1_555 1_555
C2_3 C3_3 1_555 1_555
C18_3 C19_3 1_555 1_555
Cd4_2 O10_3 1_555 1_555
Cd7_2 O6_3 1_555 1_555
O15 C27_3 1_555 1_555
O6_3 C27_3 1_555 1_555
O9_3 Cd7_2 1_555 1_555
H1_3 O9_3 1_555 1_555
H2_3 O9_3 1_555 1_555
O10_3 Cd7_2 1_555 1_555
C22_3 C21_3 1_555 1_555
H11_3 C22_3 1_555 1_555
C23_3 C22_3 1_555 1_555
H12_3 C23_3 1_555 1_555
C24_3 C23_3 1_555 1_555
C25_3 C24_3 1_555 1_555
H13_3 C25_3 1_555 1_555
C26_3 C21_3 1_555 1_555
C27_3 C24_3 1_555 1_555
O13_3 Cd4_2 1_555 1_555
O14_3 Cd7_2 1_555 1_555
O16_3 Cd4_2 1_555 1_555
O17_3 Cd4_2 1_555 1_555
Cd7_2 O17_3 1_555 1_555
C25_3 C26_3 1_555 1_555
S2_2 C1_2 1_555 1_555
S4_3 C4_3 1_555 1_555
O7_3 C34_3 1_555 1_555
O8_3 C34_3 1_555 1_555
C1_2 C4_3 1_555 1_555
C6_3 S4_3 1_555 1_555
C28_3 C6_3 1_555 1_555
C29_3 C28_3 1_555 1_555
H15_3 C29_3 1_555 1_555
C30_3 C29_3 1_555 1_555
H16_3 C30_3 1_555 1_555
C31_3 C30_3 1_555 1_555
C32_3 C31_3 1_555 1_555
H17_3 C32_3 1_555 1_555
C33_3 C28_3 1_555 1_555
H18_3 C33_3 1_555 1_555
C34_3 C31_3 1_555 1_555
Cd6_2 O7_3 1_555 1_555
Cd8 O8_3 1_555 1_555
O8_3 Cd6_2 1_555 1_555
C5_3 C6_3 1_555 1_555
C32_3 C33_3 1_555 1_555
Cd5 O10_4 1_555 1_555
Cd9_2 O6_4 1_555 1_555
O5_3 C27_4 1_555 1_555
O6_4 C27_4 1_555 1_555
O9_4 Cd9_2 1_555 1_555
H1_4 O9_4 1_555 1_555
H2_4 O9_4 1_555 1_555
O10_4 Cd9_2 1_555 1_555
C22_4 C21_4 1_555 1_555
H11_4 C22_4 1_555 1_555
C23_4 C22_4 1_555 1_555
H12_4 C23_4 1_555 1_555
C24_4 C23_4 1_555 1_555
C25_4 C24_4 1_555 1_555
H13_4 C25_4 1_555 1_555
C26_4 C21_4 1_555 1_555
C27_4 C24_4 1_555 1_555
Cd6_2 O5_3 1_555 1_555
O11_2 Cd5 1_555 1_555
O12_2 Cd9_2 1_555 1_555
O15_2 Cd5 1_555 1_555
C25_4 C26_4 1_555 1_555
O11_2 C13_4 1_555 1_555
O12_2 C13_4 1_555 1_555
C8_4 C7_4 1_555 1_555
H3_4 C8_4 1_555 1_555
C9_4 C8_4 1_555 1_555
H4_4 C9_4 1_555 1_555
C10_4 C9_4 1_555 1_555
C11_4 C10_4 1_555 1_555
H5_4 C11_4 1_555 1_555
C12_4 C7_4 1_555 1_555
C13_4 C10_4 1_555 1_555
C11_4 C12_4 1_555 1_555
S4_4 C4_4 1_555 1_555
O16_3 C34_4 1_555 1_555
O17_3 C34_4 1_555 1_555
C6_4 S4_4 1_555 1_555
C28_4 C6_4 1_555 1_555
C29_4 C28_4 1_555 1_555
H15_4 C29_4 1_555 1_555
C30_4 C29_4 1_555 1_555
H16_4 C30_4 1_555 1_555
C31_4 C30_4 1_555 1_555
C32_4 C31_4 1_555 1_555
H17_4 C32_4 1_555 1_555
C33_4 C28_4 1_555 1_555
H18_4 C33_4 1_555 1_555
C34_4 C31_4 1_555 1_555
C5_4 C6_4 1_555 1_555
C32_4 C33_4 1_555 1_555
S2_3 C1_3 1_555 1_555
O13_3 C20_4 1_555 1_555
O14_2 C20_4 1_555 1_555
C3_4 S2_3 1_555 1_555
C14_4 C3_4 1_555 1_555
C15_4 C14_4 1_555 1_555
H7_4 C15_4 1_555 1_555
C16_4 C15_4 1_555 1_555
H8_4 C16_4 1_555 1_555
C17_4 C16_4 1_555 1_555
C18_4 C17_4 1_555 1_555
H9_4 C18_4 1_555 1_555
C19_4 C14_4 1_555 1_555
H10_4 C19_4 1_555 1_555
C20_4 C17_4 1_555 1_555
C2_4 C3_4 1_555 1_555
C18_4 C19_4 1_555 1_555
O1_3 C13_5 1_555 1_555
O2_3 C13_5 1_555 1_555
O13 C20_5 1_555 1_555
O14_3 C20_5 1_555 1_555
C2_5 S1_5 1_555 1_555
C7_5 C2_5 1_555 1_555
C8_5 C7_5 1_555 1_555
H3_5 C8_5 1_555 1_555
C9_5 C8_5 1_555 1_555
H4_5 C9_5 1_555 1_555
C10_5 C9_5 1_555 1_555
C11_5 C10_5 1_555 1_555
H5_5 C11_5 1_555 1_555
C12_5 C7_5 1_555 1_555
H6_5 C12_5 1_555 1_555
C13_5 C10_5 1_555 1_555
C14_5 C3_5 1_555 1_555
C15_5 C14_5 1_555 1_555
H7_5 C15_5 1_555 1_555
C16_5 C15_5 1_555 1_555
H8_5 C16_5 1_555 1_555
C17_5 C16_5 1_555 1_555
C18_5 C17_5 1_555 1_555
H9_5 C18_5 1_555 1_555
C19_5 C14_5 1_555 1_555
H10_5 C19_5 1_555 1_555
C20_5 C17_5 1_555 1_555
Cd6_2 O1_3 1_555 1_555
Cd8 O2_3 1_555 1_555
C2_5 C3_5 1_555 1_555
C11_5 C12_5 1_555 1_555
C18_5 C19_5 1_555 1_555
Cd6_2 O10_5 1_555 1_555
Cd8 O6_5 1_555 1_555
S3_5 C4_5 1_555 1_555
S4_5 C4_5 1_555 1_555
O5_4 C27_5 1_555 1_555
O6_5 C27_5 1_555 1_555
O16 C34_5 1_555 1_555
O17 C34_5 1_555 1_555
O9_5 Cd8 1_555 1_555
H1_5 O9_5 1_555 1_555
H2_5 O9_5 1_555 1_555
O10_5 Cd8 1_555 1_555
C5_5 S3_5 1_555 1_555
C6_5 S4_5 1_555 1_555
C21_5 C5_5 1_555 1_555
C22_5 C21_5 1_555 1_555
C23_5 C22_5 1_555 1_555
C24_5 C23_5 1_555 1_555
C25_5 C24_5 1_555 1_555
H13_5 C25_5 1_555 1_555
C26_5 C21_5 1_555 1_555
H14_5 C26_5 1_555 1_555
C27_5 C24_5 1_555 1_555
C28_5 C6_5 1_555 1_555
C29_5 C28_5 1_555 1_555
H15_5 C29_5 1_555 1_555
C30_5 C29_5 1_555 1_555
H16_5 C30_5 1_555 1_555
C31_5 C30_5 1_555 1_555
C32_5 C31_5 1_555 1_555
H17_5 C32_5 1_555 1_555
C33_5 C28_5 1_555 1_555
H18_5 C33_5 1_555 1_555
C34_5 C31_5 1_555 1_555
C5_5 C6_5 1_555 1_555
C25_5 C26_5 1_555 1_555
C32_5 C33_5 1_555 1_555
S2_4 C1_4 1_555 1_555
S4_6 C4_6 1_555 1_555
O16_2 C34_6 1_555 1_555
O17_2 C34_6 1_555 1_555
C1_4 C4_6 1_555 1_555
C6_6 S4_6 1_555 1_555
C28_6 C6_6 1_555 1_555
C29_6 C28_6 1_555 1_555
H15_6 C29_6 1_555 1_555
C30_6 C29_6 1_555 1_555
H16_6 C30_6 1_555 1_555
C31_6 C30_6 1_555 1_555
C32_6 C31_6 1_555 1_555
H17_6 C32_6 1_555 1_555
C33_6 C28_6 1_555 1_555
H18_6 C33_6 1_555 1_555
C34_6 C31_6 1_555 1_555
C5_6 C6_6 1_555 1_555
C32_6 C33_6 1_555 1_555
Cd6 O10_6 1_555 1_555
Cd9 O6_6 1_555 1_555
O15_2 C27_6 1_555 1_555
O6_6 C27_6 1_555 1_555
O9_6 Cd9 1_555 1_555
H1_6 O9_6 1_555 1_555
H2_6 O9_6 1_555 1_555
O10_6 Cd9 1_555 1_555
C22_6 C21_6 1_555 1_555
H11_6 C22_6 1_555 1_555
C23_6 C22_6 1_555 1_555
H12_6 C23_6 1_555 1_555
C24_6 C23_6 1_555 1_555
C25_6 C24_6 1_555 1_555
H13_6 C25_6 1_555 1_555
C26_6 C21_6 1_555 1_555
C27_6 C24_6 1_555 1_555
O11_3 Cd6 1_555 1_555
O12_3 Cd9 1_555 1_555
C25_6 C26_6 1_555 1_555
O13_2 C20_6 1_555 1_555
O14 C20_6 1_555 1_555
C14_6 C3_6 1_555 1_555
C15_6 C14_6 1_555 1_555
H7_6 C15_6 1_555 1_555
C16_6 C15_6 1_555 1_555
H8_6 C16_6 1_555 1_555
C17_6 C16_6 1_555 1_555
C18_6 C17_6 1_555 1_555
H9_6 C18_6 1_555 1_555
C19_6 C14_6 1_555 1_555
H10_6 C19_6 1_555 1_555
C20_6 C17_6 1_555 1_555
C2_6 C3_6 1_555 1_555
C18_6 C19_6 1_555 1_555
O11_3 C13_6 1_555 1_555
O12_3 C13_6 1_555 1_555
C8_6 C7_6 1_555 1_555
H3_6 C8_6 1_555 1_555
C9_6 C8_6 1_555 1_555
H4_6 C9_6 1_555 1_555
C10_6 C9_6 1_555 1_555
C11_6 C10_6 1_555 1_555
H5_6 C11_6 1_555 1_555
C12_6 C7_6 1_555 1_555
C13_6 C10_6 1_555 1_555
C11_6 C12_6 1_555 1_555
S2_5 C1_5 1_555 1_555
S2_6 C1_6 1_555 1_555

#END
