
###############################################################################
#
# This file contains modified crystal structure data generated from the
# MOF subset of the Cambridge Structural Database (CSD) v543 
# hosted by the Cambridge Crystallographic Data Centre (CCDC).
#
# This work is licensed under the Creative Commons
# Attribution-NonCommercial-ShareAlike 4.0 International License.
# To view a copy of this license, visit
# http://creativecommons.org/licenses/by-nc-sa/4.0/
# or send a letter to
# Creative Commons, PO Box 1866, Mountain View, CA 94042, USA.
#
# CIF created using the CSD Python API on 29 September 2022
# The structure has been converted into the P1 space group
# The structure has a 3D framework
# The original CSD entry ROYRUU is in the monoclinic crystal system
# The framework has been calculated to contain at least 10.0% void space
# The void calculation uses a probe of radius 1.32A, grid spacing 0.4
#
###############################################################################

data_ROYRUU
_chemical_formula_moiety         '(C300 H240 Ce8 N8 O88)n'
_symmetry_cell_setting           triclinic
_symmetry_space_group_name_H-M   'P 1'
_symmetry_Int_Tables_number      1
_space_group_name_Hall           'P 1'
loop_
_symmetry_equiv_pos_site_id
_symmetry_equiv_pos_as_xyz
1 x,y,z
_cell_length_a                   14.2831(2)
_cell_length_b                   29.8625(4)
_cell_length_c                   18.2631(3)
_cell_angle_alpha                90
_cell_angle_beta                 106.9678(17)
_cell_angle_gamma                90
_cell_volume                     7450.65
loop_
_atom_site_label
_atom_site_type_symbol
_atom_site_fract_x
_atom_site_fract_y
_atom_site_fract_z
O16 O 0.1493(2) 0.17749(13) 0.1224(2)
O17 O 0.0908(2) 0.21932(13) 0.1986(2)
H46 H 0.0154 0.1524 0.0104
C69 C 0.0798(3) 0.19621(16) 0.1385(3)
Ce4 Ce 0.187150(14) 0.242457(7) 0.325752(12)
Ce6 Ce 0.326315(14) 0.167898(7) 0.178417(13)
O16_2 O 0.8507(2) 0.67749(13) 0.3776(2)
O17_2 O 0.9092(2) 0.71932(13) 0.3014(2)
H46_2 H 0.9846 0.6524 0.4896
C69_2 C 0.9202(3) 0.69621(16) 0.3615(3)
Ce4_2 Ce 0.812850(14) 0.742457(7) 0.174248(12)
Ce6_2 Ce 0.673685(14) 0.667898(7) 0.321583(13)
O10 O 0.1972(2) 0.31806(10) 0.39123(19)
O11 O 0.0845(2) 0.31392(10) 0.27997(19)
N1 N 0.1361(3) 0.72934(18) 0.1658(3)
C28 C 0.0458(6) 0.5524(3) 0.0928(5)
H24 H 0.0551 0.5797 0.0714
C29 C 0.0996(7) 0.5160(3) 0.0840(5)
H25 H 0.1475 0.5190 0.0591
C30 C 0.0828(5) 0.4744(2) 0.1123(4)
H26 H 0.1176 0.4495 0.1043
C31 C 0.0165(4) 0.46997(16) 0.1510(3)
H27 H 0.0062 0.4419 0.1692
C37 C 0.0285(3) 0.46822(14) 0.3720(3)
C38 C 0.0010(4) 0.51249(15) 0.3876(3)
C39 C 0.0548(5) 0.53577(16) 0.4490(4)
H31 H 0.0371 0.5650 0.4563
C40 C 0.1369(4) 0.51675(18) 0.5020(4)
H32 H 0.1726 0.5332 0.5441
C41 C 0.1635(4) 0.47461(17) 0.4916(3)
H33 H 0.2165 0.4617 0.5277
C42 C 0.1116(3) 0.44940(15) 0.4260(3)
C43 C 0.1418(3) 0.40593(15) 0.4141(3)
H34 H 0.1960 0.3935 0.4497
C44 C 0.0930(3) 0.38150(13) 0.3512(3)
C45 C 0.0093(3) 0.40033(13) 0.2966(3)
C46 C 0.1271(3) 0.33566(13) 0.3404(3)
C70 C 0.0581(4) 0.7504(2) 0.1674(4)
H47 H 0.0642 0.7807 0.1794
C71 C 0.2317(5) 0.7505(3) 0.1844(5)
H48 H 0.2749 0.7363 0.2286
H49 H 0.2579 0.7476 0.1418
H50 H 0.2255 0.7817 0.1949
C72 C 0.1328(6) 0.6822(3) 0.1495(6)
H51 H 0.0793 0.6760 0.1047
H52 H 0.1931 0.6731 0.1407
H53 H 0.1238 0.6658 0.1922
O4 O 0.3404(2) 0.09644(10) 0.1121(2)
O5 O 0.4391(2) 0.10009(10) 0.22944(19)
O6 O 0.5508(3) 0.03403(10) 0.2877(2)
H2 H 0.521(3) 0.0577(10) 0.286(3)
C20 C 0.4180(3) 0.01329(15) 0.0869(3)
H22 H 0.3707 0.0268 0.0469
C21 C 0.4484(3) 0.03470(14) 0.1563(3)
C22 C 0.5210(3) 0.01373(14) 0.2177(3)
C23 C 0.4064(3) 0.07914(14) 0.1657(3)
O1 O 0.6717(3) 0.74796(11) 0.3336(2)
O2 O 0.7458(2) 0.78614(10) 0.2629(2)
O3 O 0.7420(2) 0.87285(10) 0.2716(2)
H1 H 0.756(4) 0.8475(8) 0.262(3)
O7 O 0.8197(3) 0.66090(11) 0.1714(2)
O8 O 0.7538(2) 0.62157(10) 0.2466(2)
O9 O 0.7769(3) 0.53666(11) 0.2577(3)
H3 H 0.7578 0.5615 0.2663
O12 O 0.9593(2) 0.37650(10) 0.2346(2)
H4 H 0.993(4) 0.3538(12) 0.239(3)
O13 O 0.6297(3) 0.69914(12) 0.1906(2)
O14 O 0.6353(2) 0.75069(14) 0.1077(2)
O15 O 0.4822(2) 0.77626(11) 0.0052(2)
H5 H 0.5392(14) 0.7769(18) 0.032(3)
O19 O 0.9753(3) 0.73351(14) 0.1543(3)
O20 O 0.7812(3) 0.72332(13) 0.0341(2)
O21 O 0.6935(3) 0.69230(11) 0.45946(19)
H7 H 0.6988 0.7215 0.4635
H8 H 0.716(5) 0.684(2) 0.5075(14)
O22 O 0.5054(3) 0.68371(15) 0.3382(3)
H9 H 0.5122 0.6964 0.3815
H10 H 0.450(3) 0.669(2) 0.321(4)
C1 C 0.6864(3) 0.78325(14) 0.3016(3)
C2 C 0.6295(3) 0.82384(14) 0.3087(3)
C3 C 0.5454(4) 0.81933(15) 0.3295(3)
H11 H 0.5269 0.7910 0.3411
C4 C 0.4861(4) 0.85608(16) 0.3340(3)
C5 C 0.3982(4) 0.8511(2) 0.3536(4)
H12 H 0.3778 0.8227 0.3631
C6 C 0.3427(4) 0.8874(2) 0.3587(4)
H13 H 0.2844 0.8835 0.3709
C7 C 0.3727(4) 0.9297(2) 0.3461(4)
H14 H 0.3352 0.9543 0.3512
C8 C 0.4564(4) 0.93614(17) 0.3262(3)
H15 H 0.4748 0.9651 0.3174
C9 C 0.5160(3) 0.89956(15) 0.3188(3)
C10 C 0.6033(3) 0.90471(14) 0.2961(3)
C11 C 0.6577(3) 0.86752(14) 0.2921(3)
C12 C 0.6349(3) 0.95056(14) 0.2753(3)
H16 H 0.6965 0.9473 0.2634
H17 H 0.6464 0.9700 0.3196
C13 C 0.5613(3) 0.97304(13) 0.2079(3)
C14 C 0.5320(3) 0.95225(14) 0.1349(3)
C15 C 0.5763(4) 0.91246(15) 0.1179(3)
H18 H 0.6288 0.9000 0.1550
C16 C 0.5429(4) 0.89236(17) 0.0480(4)
H19 H 0.5730 0.8663 0.0385
C18 C 0.4234(4) 0.94940(18) 0.0033(3)
C19 C 0.4563(4) 0.97143(15) 0.0745(3)
C24 C 0.8069(3) 0.62504(14) 0.2024(3)
C25 C 0.8579(3) 0.58385(14) 0.1875(3)
C26 C 0.9243(4) 0.58672(16) 0.1464(3)
H23 H 0.9350 0.6142 0.1264
C27 C 0.9764(4) 0.54915(17) 0.1339(4)
C32 C 0.9617(3) 0.50717(15) 0.1648(3)
C33 C 0.8951(3) 0.50401(14) 0.2087(3)
C34 C 0.8421(3) 0.54120(14) 0.2174(3)
C35 C 0.8839(3) 0.46042(14) 0.2484(3)
H28 H 0.8342 0.4646 0.2743
H29 H 0.8604 0.4376 0.2095
C36 C 0.9766(3) 0.44312(13) 0.3064(3)
H30 H 0.9452 0.5255 0.3549
C47 C 0.5896(3) 0.72108(16) 0.1312(3)
C48 C 0.4860(3) 0.71171(15) 0.0861(2)
C49 C 0.4399(4) 0.67418(16) 0.1010(3)
H35 H 0.4715 0.6559 0.1419
C50 C 0.3447(3) 0.66277(16) 0.0548(3)
C51 C 0.3029(5) 0.6207(2) 0.0618(4)
H36 H 0.3366 0.6009 0.0995
C52 C 0.2144(5) 0.6089(2) 0.0141(5)
H37 H 0.1887 0.5808 0.0183
C57 C 0.4352(3) 0.74091(14) 0.0250(3)
C60 C 0.2139(3) 0.82041(14) 0.0120(2)
C61 C 0.3087(3) 0.83122(15) 0.0602(3)
H42 H 0.3634 0.8187 0.0502
C62 C 0.3211(4) 0.85955(18) 0.1209(3)
H43 H 0.3841 0.8665 0.1509
C63 C 0.2414(4) 0.8782(2) 0.1389(3)
H44 H 0.2510 0.8966 0.1815
C64 C 0.1487(4) 0.86925(18) 0.0933(3)
H45 H 0.0955 0.8821 0.1051
C65 C 0.1321(3) 0.84097(15) 0.0290(3)
C73 C 0.8017(7) 0.6867(3) 0.0121(5)
H54 H 0.7711 0.6612 0.0234
O23 O 0.6596(2) 0.59644(10) 0.3879(2)
O24 O 0.5609(2) 0.60009(10) 0.27056(19)
O25 O 0.8028(2) 0.81806(10) 0.10877(19)
O26 O 0.9155(2) 0.81392(10) 0.22003(19)
O1_2 O 0.3283(3) 0.24796(11) 0.1664(2)
O2_2 O 0.2542(2) 0.28614(10) 0.2371(2)
O3_2 O 0.2580(2) 0.37285(10) 0.2284(2)
H1_2 H 0.244(4) 0.3475(8) 0.238(3)
O6_2 O 0.4492(3) 0.53403(10) 0.2123(2)
H2_2 H 0.479(3) 0.5577(10) 0.214(3)
O7_2 O 0.1803(3) 0.16090(11) 0.3286(2)
O8_2 O 0.2462(2) 0.12157(10) 0.2534(2)
O9_2 O 0.2231(3) 0.03666(11) 0.2423(3)
H3_2 H 0.2422 0.0615 0.2337
O13_2 O 0.3703(3) 0.19914(12) 0.3094(2)
O14_2 O 0.3647(2) 0.25069(14) 0.3923(2)
O15_2 O 0.5178(2) 0.27626(11) 0.4948(2)
H5_2 H 0.4608(14) 0.2769(18) 0.468(3)
O18 O 0.9094(2) 0.26113(15) 0.6645(2)
H6 H 0.9679 0.2602 0.6879
O19_2 O 0.0247(3) 0.23351(14) 0.3457(3)
O20_2 O 0.2188(3) 0.22332(13) 0.4659(2)
O21_2 O 0.3065(3) 0.19230(11) 0.04054(19)
H7_2 H 0.3012 0.2215 0.0365
O22_2 O 0.4946(3) 0.18371(15) 0.1618(3)
H9_2 H 0.4878 0.1964 0.1185
H10_2 H 0.550(3) 0.169(2) 0.179(4)
N2 N 0.1327(6) 0.1822(3) 0.5278(5)
C1_2 C 0.3136(3) 0.28325(14) 0.1984(3)
C2_2 C 0.3705(3) 0.32384(14) 0.1913(3)
C3_2 C 0.4546(4) 0.31933(15) 0.1705(3)
H11_2 H 0.4731 0.2910 0.1589
C4_2 C 0.5139(4) 0.35608(16) 0.1660(3)
C5_2 C 0.6018(4) 0.3511(2) 0.1464(4)
H12_2 H 0.6222 0.3227 0.1369
C6_2 C 0.6573(4) 0.3874(2) 0.1413(4)
H13_2 H 0.7156 0.3835 0.1291
C7_2 C 0.6273(4) 0.4297(2) 0.1539(4)
H14_2 H 0.6648 0.4543 0.1488
C8_2 C 0.5436(4) 0.43614(17) 0.1738(3)
H15_2 H 0.5252 0.4651 0.1826
C9_2 C 0.4840(3) 0.39956(15) 0.1812(3)
C10_2 C 0.3967(3) 0.40471(14) 0.2039(3)
C11_2 C 0.3423(3) 0.36752(14) 0.2079(3)
C12_2 C 0.3651(3) 0.45056(14) 0.2247(3)
H16_2 H 0.3035 0.4473 0.2366
H17_2 H 0.3536 0.4700 0.1804
C13_2 C 0.4387(3) 0.47304(13) 0.2921(3)
C14_2 C 0.4680(3) 0.45225(14) 0.3651(3)
C15_2 C 0.4237(4) 0.41246(15) 0.3821(3)
H18_2 H 0.3712 0.4000 0.3450
C16_2 C 0.4571(4) 0.39236(17) 0.4520(4)
H19_2 H 0.4270 0.3663 0.4615
C17 C 0.5353(5) 0.41001(19) 0.5092(4)
H20 H 0.5592 0.3951 0.5556
C18_2 C 0.5766(4) 0.44940(18) 0.4967(3)
H21 H 0.6272 0.4619 0.5356
C19_2 C 0.5437(4) 0.47143(15) 0.4255(3)
C20_2 C 0.5820(3) 0.51329(15) 0.4131(3)
H22_2 H 0.6293 0.5268 0.4531
C21_2 C 0.5516(3) 0.53470(14) 0.3437(3)
C22_2 C 0.4790(3) 0.51373(14) 0.2823(3)
C23_2 C 0.5936(3) 0.57914(14) 0.3343(3)
C24_2 C 0.1931(3) 0.12504(14) 0.2976(3)
C25_2 C 0.1421(3) 0.08385(14) 0.3125(3)
C26_2 C 0.0757(4) 0.08672(16) 0.3536(3)
H23_2 H 0.0650 0.1142 0.3736
C27_2 C 0.0236(4) 0.04915(17) 0.3661(4)
C32_2 C 0.0383(3) 0.00717(15) 0.3352(3)
C33_2 C 0.1049(3) 0.00401(14) 0.2913(3)
C34_2 C 0.1579(3) 0.04120(14) 0.2826(3)
H30_2 H 0.0548 0.0255 0.1451
C47_2 C 0.4104(3) 0.22108(16) 0.3688(3)
C48_2 C 0.5140(3) 0.21171(15) 0.4139(2)
C49_2 C 0.5601(4) 0.17418(16) 0.3990(3)
H35_2 H 0.5285 0.1559 0.3581
C50_2 C 0.6553(3) 0.16277(16) 0.4452(3)
C51_2 C 0.6971(5) 0.1207(2) 0.4382(4)
H36_2 H 0.6634 0.1009 0.4005
C52_2 C 0.7856(5) 0.1089(2) 0.4859(5)
H37_2 H 0.8113 0.0808 0.4817
C53 C 0.8383(4) 0.1390(2) 0.5412(4)
H38 H 0.8994 0.1307 0.5731
C54 C 0.8016(3) 0.18077(18) 0.5495(3)
H39 H 0.8382 0.2006 0.5860
C55 C 0.7071(3) 0.19350(16) 0.5017(3)
C56 C 0.6622(3) 0.23429(14) 0.5143(2)
C57_2 C 0.5648(3) 0.24091(14) 0.4750(3)
C58 C 0.7165(3) 0.26868(16) 0.5723(2)
H40 H 0.6704 0.2915 0.5772
H41 H 0.7413 0.2541 0.6216
C59 C 0.8020(3) 0.29147(14) 0.5523(2)
C60_2 C 0.7861(3) 0.32041(14) 0.4880(2)
C61_2 C 0.6913(3) 0.33122(15) 0.4398(3)
H42_2 H 0.6366 0.3187 0.4498
C62_2 C 0.6789(4) 0.35955(18) 0.3791(3)
H43_2 H 0.6159 0.3665 0.3491
C63_2 C 0.7586(4) 0.3782(2) 0.3611(3)
H44_2 H 0.7490 0.3966 0.3185
C64_2 C 0.8513(4) 0.36925(18) 0.4067(3)
H45_2 H 0.9045 0.3821 0.3949
C65_2 C 0.8679(3) 0.34097(15) 0.4710(3)
C66 C 0.9622(3) 0.33410(15) 0.5212(3)
C67 C 0.9782(3) 0.30831(15) 0.5853(3)
C68 C 0.8959(3) 0.28675(16) 0.6006(3)
C73_2 C 0.1983(7) 0.1867(3) 0.4879(5)
H54_2 H 0.2289 0.1612 0.4766
C74 C 0.0788(9) 0.2179(4) 0.5440(7)
H55 H 0.0103 0.2106 0.5274
H56 H 0.0987 0.2234 0.5982
H57 H 0.0902 0.2442 0.5177
C75 C 0.1119(9) 0.1387(4) 0.5543(7)
H58 H 0.1635 0.1182 0.5536
H59 H 0.1073 0.1412 0.6055
H60 H 0.0510 0.1277 0.5212
C30_2 C 0.9172(5) 0.9744(2) 0.3877(4)
H26_2 H 0.8824 0.9495 0.3957
C31_2 C 0.9835(4) 0.96997(16) 0.3490(3)
H27_2 H 0.9938 0.9419 0.3308
C37_2 C 0.9715(3) 0.96822(14) 0.1280(3)
C41_2 C 0.8365(4) 0.97461(17) 0.0084(3)
C42_2 C 0.8884(3) 0.94940(15) 0.0740(3)
C43_2 C 0.8582(3) 0.90593(15) 0.0859(3)
H34_2 H 0.8040 0.8935 0.0503
C44_2 C 0.9070(3) 0.88150(13) 0.1488(3)
C45_2 C 0.9907(3) 0.90033(13) 0.2034(3)
C46_2 C 0.8729(3) 0.83566(13) 0.1596(3)
O18_2 O 0.9094(2) 0.23887(15) 0.1645(2)
H6_2 H 0.9679 0.2398 0.1879
N2_2 N 0.1327(6) 0.3178(3) 0.0278(5)
C17_2 C 0.5353(5) 0.08999(19) 0.0092(4)
H20_2 H 0.5592 0.1049 0.0556
H21_2 H 0.6272 0.0381 0.0356
C53_2 C 0.8383(4) 0.3610(2) 0.0412(4)
H38_2 H 0.8994 0.3693 0.0731
C54_2 C 0.8016(3) 0.31923(18) 0.0495(3)
H39_2 H 0.8382 0.2994 0.0860
C55_2 C 0.7071(3) 0.30650(16) 0.0017(3)
C56_2 C 0.6622(3) 0.26571(14) 0.0143(2)
C58_2 C 0.7165(3) 0.23132(16) 0.0723(2)
H40_2 H 0.6704 0.2085 0.0772
H41_2 H 0.7413 0.2459 0.1216
C59_2 C 0.8020(3) 0.20853(14) 0.0523(2)
C66_2 C 0.9622(3) 0.16590(15) 0.0212(3)
C67_2 C 0.9782(3) 0.19169(15) 0.0853(3)
C68_2 C 0.8959(3) 0.21325(16) 0.1006(3)
C74_2 C 0.0788(9) 0.2821(4) 0.0440(7)
H55_2 H 0.0103 0.2894 0.0274
H56_2 H 0.0987 0.2766 0.0982
H57_2 H 0.0902 0.2558 0.0177
C75_2 C 0.1119(9) 0.3613(4) 0.0543(7)
H58_2 H 0.1635 0.3818 0.0536
H59_2 H 0.1073 0.3588 0.1055
H60_2 H 0.0510 0.3723 0.0212
Ce1 Ce 0.187150(14) 0.257543(7) 0.825752(12)
Ce2 Ce 0.326315(14) 0.332102(7) 0.678417(13)
O1_3 O 0.3283(3) 0.25204(11) 0.6664(2)
O2_3 O 0.2542(2) 0.21386(10) 0.7371(2)
O3_3 O 0.2580(2) 0.12715(10) 0.7284(2)
H1_3 H 0.244(4) 0.1525(8) 0.738(3)
O7_3 O 0.1803(3) 0.33910(11) 0.8286(2)
O8_3 O 0.2462(2) 0.37843(10) 0.7534(2)
O9_3 O 0.2231(3) 0.46334(11) 0.7423(3)
H3_3 H 0.2422 0.4385 0.7337
O12_2 O 0.0407(2) 0.62350(10) 0.7654(2)
H4_2 H 0.007(4) 0.6462(12) 0.761(3)
O13_3 O 0.3703(3) 0.30086(12) 0.8094(2)
O14_3 O 0.3647(2) 0.24931(14) 0.8923(2)
O15_3 O 0.5178(2) 0.22374(11) 0.9948(2)
H5_3 H 0.4608(14) 0.2231(18) 0.968(3)
O19_3 O 0.0247(3) 0.26649(14) 0.8457(3)
O20_3 O 0.2188(3) 0.27668(13) 0.9659(2)
O21_3 O 0.3065(3) 0.30770(11) 0.54054(19)
H7_3 H 0.3012 0.2785 0.5365
H8_2 H 0.284(5) 0.316(2) 0.4925(14)
O22_3 O 0.4946(3) 0.31629(15) 0.6618(3)
H9_3 H 0.4878 0.3036 0.6185
H10_3 H 0.550(3) 0.331(2) 0.679(4)
C1_3 C 0.3136(3) 0.21675(14) 0.6984(3)
C2_3 C 0.3705(3) 0.17616(14) 0.6913(3)
C3_3 C 0.4546(4) 0.18067(15) 0.6705(3)
H11_3 H 0.4731 0.2090 0.6589
C4_3 C 0.5139(4) 0.14392(16) 0.6660(3)
C5_3 C 0.6018(4) 0.1489(2) 0.6464(4)
H12_3 H 0.6222 0.1773 0.6369
C6_3 C 0.6573(4) 0.1126(2) 0.6413(4)
H13_3 H 0.7156 0.1165 0.6291
C7_3 C 0.6273(4) 0.0703(2) 0.6539(4)
H14_3 H 0.6648 0.0457 0.6488
C8_3 C 0.5436(4) 0.06386(17) 0.6738(3)
H15_3 H 0.5252 0.0349 0.6826
C9_3 C 0.4840(3) 0.10044(15) 0.6812(3)
C10_3 C 0.3967(3) 0.09529(14) 0.7039(3)
C11_3 C 0.3423(3) 0.13248(14) 0.7079(3)
C12_3 C 0.3651(3) 0.04944(14) 0.7247(3)
H16_3 H 0.3035 0.0527 0.7366
H17_3 H 0.3536 0.0300 0.6804
C13_3 C 0.4387(3) 0.02696(13) 0.7921(3)
C14_3 C 0.4680(3) 0.04775(14) 0.8651(3)
C15_3 C 0.4237(4) 0.08754(15) 0.8821(3)
H18_3 H 0.3712 0.1000 0.8450
C16_3 C 0.4571(4) 0.10764(17) 0.9520(4)
H19_3 H 0.4270 0.1337 0.9615
C18_3 C 0.5766(4) 0.05060(18) 0.9967(3)
C19_3 C 0.5437(4) 0.02857(15) 0.9255(3)
C24_3 C 0.1931(3) 0.37496(14) 0.7976(3)
C25_3 C 0.1421(3) 0.41615(14) 0.8125(3)
C26_3 C 0.0757(4) 0.41328(16) 0.8536(3)
H23_3 H 0.0650 0.3858 0.8736
C27_3 C 0.0236(4) 0.45085(17) 0.8661(4)
C32_3 C 0.0383(3) 0.49283(15) 0.8352(3)
C33_3 C 0.1049(3) 0.49599(14) 0.7913(3)
C34_3 C 0.1579(3) 0.45880(14) 0.7826(3)
C35_2 C 0.1161(3) 0.53958(14) 0.7516(3)
H28_2 H 0.1658 0.5354 0.7257
H29_2 H 0.1396 0.5624 0.7905
C36_2 C 0.0234(3) 0.55688(13) 0.6936(3)
H30_3 H 0.0548 0.4745 0.6451
C47_3 C 0.4104(3) 0.27892(16) 0.8688(3)
C48_3 C 0.5140(3) 0.28829(15) 0.9139(2)
C49_3 C 0.5601(4) 0.32582(16) 0.8990(3)
H35_3 H 0.5285 0.3441 0.8581
C50_3 C 0.6553(3) 0.33723(16) 0.9452(3)
C51_3 C 0.6971(5) 0.3793(2) 0.9382(4)
H36_3 H 0.6634 0.3991 0.9005
C52_3 C 0.7856(5) 0.3911(2) 0.9859(5)
H37_3 H 0.8113 0.4192 0.9817
C57_3 C 0.5648(3) 0.25909(14) 0.9750(3)
C60_3 C 0.7861(3) 0.17959(14) 0.9880(2)
C61_3 C 0.6913(3) 0.16878(15) 0.9398(3)
H42_3 H 0.6366 0.1813 0.9498
C62_3 C 0.6789(4) 0.14045(18) 0.8791(3)
H43_3 H 0.6159 0.1335 0.8491
C63_3 C 0.7586(4) 0.1218(2) 0.8611(3)
H44_3 H 0.7490 0.1034 0.8185
C64_3 C 0.8513(4) 0.13075(18) 0.9067(3)
H45_3 H 0.9045 0.1179 0.8949
C65_3 C 0.8679(3) 0.15903(15) 0.9710(3)
C73_3 C 0.1983(7) 0.3133(3) 0.9879(5)
H54_3 H 0.2289 0.3388 0.9766
O23_2 O 0.3404(2) 0.40356(10) 0.6121(2)
O24_2 O 0.4391(2) 0.39991(10) 0.72944(19)
O25_2 O 0.1972(2) 0.18194(10) 0.89123(19)
O26_2 O 0.0845(2) 0.18608(10) 0.77997(19)
O27 O 0.1493(2) 0.32251(13) 0.6224(2)
O28 O 0.0908(2) 0.28068(13) 0.6986(2)
O4_2 O 0.6596(2) 0.90356(10) 0.8879(2)
O5_2 O 0.5609(2) 0.89991(10) 0.77056(19)
O6_3 O 0.4492(3) 0.96597(10) 0.7123(2)
H2_3 H 0.479(3) 0.9423(10) 0.714(3)
C20_3 C 0.5820(3) 0.98671(15) 0.9131(3)
H22_3 H 0.6293 0.9732 0.9531
C21_3 C 0.5516(3) 0.96530(14) 0.8437(3)
C22_3 C 0.4790(3) 0.98627(14) 0.7823(3)
C23_3 C 0.5936(3) 0.92086(14) 0.8343(3)
Ce5 Ce 0.673685(14) 0.832102(7) 0.821583(13)
O10_2 O 0.8028(2) 0.68194(10) 0.60877(19)
O11_2 O 0.9155(2) 0.68608(10) 0.72003(19)
N1_2 N 0.8639(3) 0.27066(18) 0.8342(3)
C28_2 C 0.9542(6) 0.4476(3) 0.9072(5)
H24_2 H 0.9449 0.4203 0.9286
C29_2 C 0.9004(7) 0.4840(3) 0.9160(5)
H25_2 H 0.8525 0.4810 0.9409
C30_3 C 0.9172(5) 0.5256(2) 0.8877(4)
H26_3 H 0.8824 0.5505 0.8957
C31_3 C 0.9835(4) 0.53003(16) 0.8490(3)
H27_3 H 0.9938 0.5581 0.8308
C37_3 C 0.9715(3) 0.53178(14) 0.6280(3)
C38_2 C 0.9990(4) 0.48751(15) 0.6124(3)
C39_2 C 0.9452(5) 0.46423(16) 0.5510(4)
H31_2 H 0.9629 0.4350 0.5437
C40_2 C 0.8631(4) 0.48325(18) 0.4980(4)
H32_2 H 0.8274 0.4668 0.4559
C41_3 C 0.8365(4) 0.52539(17) 0.5084(3)
H33_2 H 0.7835 0.5383 0.4723
C42_3 C 0.8884(3) 0.55060(15) 0.5740(3)
C43_3 C 0.8582(3) 0.59407(15) 0.5859(3)
H34_3 H 0.8040 0.6065 0.5503
C44_3 C 0.9070(3) 0.61850(13) 0.6488(3)
C45_3 C 0.9907(3) 0.59967(13) 0.7034(3)
C46_3 C 0.8729(3) 0.66434(13) 0.6596(3)
C70_2 C 0.9419(4) 0.2496(2) 0.8326(4)
H47_2 H 0.9358 0.2193 0.8206
C71_2 C 0.7683(5) 0.2495(3) 0.8156(5)
H48_2 H 0.7251 0.2637 0.7714
H49_2 H 0.7421 0.2524 0.8582
H50_2 H 0.7745 0.2183 0.8051
C72_2 C 0.8672(6) 0.3178(3) 0.8505(6)
H51_2 H 0.9207 0.3240 0.8953
H52_2 H 0.8069 0.3269 0.8593
H53_2 H 0.8762 0.3342 0.8078
Ce3 Ce 0.812850(14) 0.757543(7) 0.674248(12)
C30_4 C 0.0828(5) 0.0256(2) 0.6123(4)
H26_4 H 0.1176 0.0505 0.6043
C31_4 C 0.0165(4) 0.03003(16) 0.6510(3)
H27_4 H 0.0062 0.0581 0.6692
C37_4 C 0.0285(3) 0.03178(14) 0.8720(3)
C41_4 C 0.1635(4) 0.02539(17) 0.9916(3)
C42_4 C 0.1116(3) 0.05060(15) 0.9260(3)
C43_4 C 0.1418(3) 0.09407(15) 0.9141(3)
H34_4 H 0.1960 0.1065 0.9497
C44_4 C 0.0930(3) 0.11850(13) 0.8512(3)
C45_4 C 0.0093(3) 0.09967(13) 0.7966(3)
C46_4 C 0.1271(3) 0.16434(13) 0.8404(3)
O1_4 O 0.6717(3) 0.75204(11) 0.8336(2)
O2_4 O 0.7458(2) 0.71386(10) 0.7629(2)
O3_4 O 0.7420(2) 0.62715(10) 0.7716(2)
H1_4 H 0.756(4) 0.6525(8) 0.762(3)
O6_4 O 0.5508(3) 0.46597(10) 0.7877(2)
H2_4 H 0.521(3) 0.4423(10) 0.786(3)
O7_4 O 0.8197(3) 0.83910(11) 0.6714(2)
O8_4 O 0.7538(2) 0.87843(10) 0.7466(2)
O9_4 O 0.7769(3) 0.96334(11) 0.7577(3)
H3_4 H 0.7578 0.9385 0.7663
O13_4 O 0.6297(3) 0.80086(12) 0.6906(2)
O14_4 O 0.6353(2) 0.74931(14) 0.6077(2)
O15_4 O 0.4822(2) 0.72374(11) 0.5052(2)
H5_4 H 0.5392(14) 0.7231(18) 0.532(3)
O18_3 O 0.0906(2) 0.73887(15) 0.3355(2)
H6_3 H 0.0321 0.7398 0.3121
O19_4 O 0.9753(3) 0.76649(14) 0.6543(3)
O20_4 O 0.7812(3) 0.77668(13) 0.5341(2)
O21_4 O 0.6935(3) 0.80770(11) 0.95946(19)
H7_4 H 0.6988 0.7785 0.9635
O22_4 O 0.5054(3) 0.81629(15) 0.8382(3)
H9_4 H 0.5122 0.8036 0.8815
H10_4 H 0.450(3) 0.831(2) 0.821(4)
N2_3 N 0.8673(6) 0.8178(3) 0.4722(5)
C1_4 C 0.6864(3) 0.71675(14) 0.8016(3)
C2_4 C 0.6295(3) 0.67616(14) 0.8087(3)
C3_4 C 0.5454(4) 0.68067(15) 0.8295(3)
H11_4 H 0.5269 0.7090 0.8411
C4_4 C 0.4861(4) 0.64392(16) 0.8340(3)
C5_4 C 0.3982(4) 0.6489(2) 0.8536(4)
H12_4 H 0.3778 0.6773 0.8631
C6_4 C 0.3427(4) 0.6126(2) 0.8587(4)
H13_4 H 0.2844 0.6165 0.8709
C7_4 C 0.3727(4) 0.5703(2) 0.8461(4)
H14_4 H 0.3352 0.5457 0.8512
C8_4 C 0.4564(4) 0.56386(17) 0.8262(3)
H15_4 H 0.4748 0.5349 0.8174
C9_4 C 0.5160(3) 0.60044(15) 0.8188(3)
C10_4 C 0.6033(3) 0.59529(14) 0.7961(3)
C11_4 C 0.6577(3) 0.63248(14) 0.7921(3)
C12_4 C 0.6349(3) 0.54944(14) 0.7753(3)
H16_4 H 0.6965 0.5527 0.7634
H17_4 H 0.6464 0.5300 0.8196
C13_4 C 0.5613(3) 0.52696(13) 0.7079(3)
C14_4 C 0.5320(3) 0.54775(14) 0.6349(3)
C15_4 C 0.5763(4) 0.58754(15) 0.6179(3)
H18_4 H 0.6288 0.6000 0.6550
C16_4 C 0.5429(4) 0.60764(17) 0.5480(4)
H19_4 H 0.5730 0.6337 0.5385
C17_3 C 0.4647(5) 0.58999(19) 0.4908(4)
H20_3 H 0.4408 0.6049 0.4444
C18_4 C 0.4234(4) 0.55060(18) 0.5033(3)
H21_3 H 0.3728 0.5381 0.4644
C19_4 C 0.4563(4) 0.52857(15) 0.5745(3)
C20_4 C 0.4180(3) 0.48671(15) 0.5869(3)
H22_4 H 0.3707 0.4732 0.5469
C21_4 C 0.4484(3) 0.46530(14) 0.6563(3)
C22_4 C 0.5210(3) 0.48627(14) 0.7177(3)
C23_4 C 0.4064(3) 0.42086(14) 0.6657(3)
C24_4 C 0.8069(3) 0.87496(14) 0.7024(3)
C25_4 C 0.8579(3) 0.91615(14) 0.6875(3)
C26_4 C 0.9243(4) 0.91328(16) 0.6464(3)
H23_4 H 0.9350 0.8858 0.6264
C27_4 C 0.9764(4) 0.95085(17) 0.6339(4)
C32_4 C 0.9617(3) 0.99283(15) 0.6648(3)
C33_4 C 0.8951(3) 0.99599(14) 0.7087(3)
C34_4 C 0.8421(3) 0.95880(14) 0.7174(3)
H30_4 H 0.9452 0.9745 0.8549
C47_4 C 0.5896(3) 0.77892(16) 0.6312(3)
C48_4 C 0.4860(3) 0.78829(15) 0.5861(2)
C49_4 C 0.4399(4) 0.82582(16) 0.6010(3)
H35_4 H 0.4715 0.8441 0.6419
C50_4 C 0.3447(3) 0.83723(16) 0.5548(3)
C51_4 C 0.3029(5) 0.8793(2) 0.5618(4)
H36_4 H 0.3366 0.8991 0.5995
C52_4 C 0.2144(5) 0.8911(2) 0.5141(5)
H37_4 H 0.1887 0.9192 0.5183
C53_3 C 0.1617(4) 0.8610(2) 0.4588(4)
H38_3 H 0.1006 0.8693 0.4269
C54_3 C 0.1984(3) 0.81923(18) 0.4505(3)
H39_3 H 0.1618 0.7994 0.4140
C55_3 C 0.2929(3) 0.80650(16) 0.4983(3)
C56_3 C 0.3378(3) 0.76571(14) 0.4857(2)
C57_4 C 0.4352(3) 0.75909(14) 0.5250(3)
C58_3 C 0.2835(3) 0.73132(16) 0.4277(2)
H40_3 H 0.3296 0.7085 0.4228
H41_3 H 0.2587 0.7459 0.3784
C59_3 C 0.1980(3) 0.70853(14) 0.4477(2)
C60_4 C 0.2139(3) 0.67959(14) 0.5120(2)
C61_4 C 0.3087(3) 0.66878(15) 0.5602(3)
H42_4 H 0.3634 0.6813 0.5502
C62_4 C 0.3211(4) 0.64045(18) 0.6209(3)
H43_4 H 0.3841 0.6335 0.6509
C63_4 C 0.2414(4) 0.6218(2) 0.6389(3)
H44_4 H 0.2510 0.6034 0.6815
C64_4 C 0.1487(4) 0.63075(18) 0.5933(3)
H45_4 H 0.0955 0.6179 0.6051
C65_4 C 0.1321(3) 0.65903(15) 0.5290(3)
C66_3 C 0.0378(3) 0.66590(15) 0.4788(3)
C67_3 C 0.0218(3) 0.69169(15) 0.4147(3)
C68_3 C 0.1041(3) 0.71325(16) 0.3994(3)
C73_4 C 0.8017(7) 0.8133(3) 0.5121(5)
H54_4 H 0.7711 0.8388 0.5234
C74_3 C 0.9212(9) 0.7821(4) 0.4560(7)
H55_3 H 0.9897 0.7894 0.4726
H56_3 H 0.9013 0.7766 0.4018
H57_3 H 0.9098 0.7558 0.4823
C75_3 C 0.8881(9) 0.8613(4) 0.4457(7)
H58_3 H 0.8365 0.8818 0.4464
H59_3 H 0.8927 0.8588 0.3945
H60_3 H 0.9490 0.8723 0.4788
O27_2 O 0.8507(2) 0.82251(13) 0.8776(2)
O28_2 O 0.9092(2) 0.78068(13) 0.8014(2)
H46_3 H 0.9846 0.8476 0.9896
C69_3 C 0.9202(3) 0.80379(16) 0.8615(3)
H46_4 H 0.0154 0.3476 0.5104
C69_4 C 0.0798(3) 0.30379(16) 0.6385(3)
H33_3 H 0.2165 0.0383 0.0277
C40_3 C 0.1369(4) 0.98325(18) 0.0020(4)
H32_3 H 0.1726 0.9668 0.0441
N1_3 N 0.1361(3) 0.77066(18) 0.6658(3)
C28_3 C 0.0458(6) 0.9476(3) 0.5928(5)
H24_3 H 0.0551 0.9203 0.5714
C29_3 C 0.0996(7) 0.9840(3) 0.5840(5)
H25_3 H 0.1475 0.9810 0.5591
C38_3 C 0.0010(4) 0.98751(15) 0.8876(3)
C39_3 C 0.0548(5) 0.96423(16) 0.9490(4)
H31_3 H 0.0371 0.9350 0.9563
C70_3 C 0.0581(4) 0.7496(2) 0.6674(4)
H47_3 H 0.0642 0.7193 0.6794
C71_3 C 0.2317(5) 0.7495(3) 0.6844(5)
H48_3 H 0.2749 0.7637 0.7286
H49_3 H 0.2579 0.7524 0.6418
H50_3 H 0.2255 0.7183 0.6949
C72_3 C 0.1328(6) 0.8178(3) 0.6495(6)
H51_3 H 0.0793 0.8240 0.6047
H52_3 H 0.1931 0.8269 0.6407
H53_3 H 0.1238 0.8342 0.6922
O12_3 O 0.9593(2) 0.12350(10) 0.7346(2)
H4_3 H 0.993(4) 0.1462(12) 0.739(3)
C35_3 C 0.8839(3) 0.03958(14) 0.7484(3)
H28_3 H 0.8342 0.0354 0.7743
H29_3 H 0.8604 0.0624 0.7095
C36_3 C 0.9766(3) 0.05688(13) 0.8064(3)
H8_3 H 0.716(5) 0.816(2) 0.0075(14)
O18_4 O 0.0906(2) 0.76113(15) 0.8355(2)
H6_4 H 0.0321 0.7602 0.8121
N2_4 N 0.8673(6) 0.6822(3) 0.9722(5)
C17_4 C 0.4647(5) 0.91001(19) 0.9908(4)
H20_4 H 0.4408 0.8951 0.9444
H21_4 H 0.3728 0.9619 0.9644
C53_4 C 0.1617(4) 0.6390(2) 0.9588(4)
H38_4 H 0.1006 0.6307 0.9269
C54_4 C 0.1984(3) 0.68077(18) 0.9505(3)
H39_4 H 0.1618 0.7006 0.9140
C55_4 C 0.2929(3) 0.69350(16) 0.9983(3)
C56_4 C 0.3378(3) 0.73429(14) 0.9857(2)
C58_4 C 0.2835(3) 0.76868(16) 0.9277(2)
H40_4 H 0.3296 0.7915 0.9228
H41_4 H 0.2587 0.7541 0.8784
C59_4 C 0.1980(3) 0.79147(14) 0.9477(2)
C66_4 C 0.0378(3) 0.83410(15) 0.9788(3)
C67_4 C 0.0218(3) 0.80831(15) 0.9147(3)
C68_4 C 0.1041(3) 0.78675(16) 0.8994(3)
C74_4 C 0.9212(9) 0.7179(4) 0.9560(7)
H55_4 H 0.9897 0.7106 0.9726
H56_4 H 0.9013 0.7234 0.9018
H57_4 H 0.9098 0.7442 0.9823
C75_4 C 0.8881(9) 0.6387(4) 0.9457(7)
H58_4 H 0.8365 0.6182 0.9464
H59_4 H 0.8927 0.6412 0.8945
H60_4 H 0.9490 0.6277 0.9788
H8_4 H 0.284(5) 0.184(2) 0.9925(14)
O12_4 O 0.0407(2) 0.87650(10) 0.2654(2)
H4_4 H 0.007(4) 0.8538(12) 0.261(3)
C35_4 C 0.1161(3) 0.96042(14) 0.2516(3)
H28_4 H 0.1658 0.9646 0.2257
H29_4 H 0.1396 0.9376 0.2905
C36_4 C 0.0234(3) 0.94312(13) 0.1936(3)
N1_4 N 0.8639(3) 0.22934(18) 0.3342(3)
C28_4 C 0.9542(6) 0.0524(3) 0.4072(5)
H24_4 H 0.9449 0.0797 0.4286
C29_4 C 0.9004(7) 0.0160(3) 0.4160(5)
H25_4 H 0.8525 0.0190 0.4409
C38_4 C 0.9990(4) 0.01249(15) 0.1124(3)
C39_4 C 0.9452(5) 0.03577(16) 0.0510(4)
H31_4 H 0.9629 0.0650 0.0437
C70_4 C 0.9419(4) 0.2504(2) 0.3326(4)
H47_4 H 0.9358 0.2807 0.3206
C71_4 C 0.7683(5) 0.2505(3) 0.3156(5)
H48_4 H 0.7251 0.2363 0.2714
H49_4 H 0.7421 0.2476 0.3582
H50_4 H 0.7745 0.2817 0.3051
C72_4 C 0.8672(6) 0.1822(3) 0.3505(6)
H51_4 H 0.9207 0.1760 0.3953
H52_4 H 0.8069 0.1731 0.3593
H53_4 H 0.8762 0.1658 0.3078
C40_4 C 0.8631(4) 0.01675(18) 0.9980(4)
H32_4 H 0.8274 0.0332 0.9559
H33_4 H 0.7835 0.9617 0.9723
loop_
_geom_bond_atom_site_label_1
_geom_bond_atom_site_label_2
_geom_bond_site_symmetry_1
_geom_bond_site_symmetry_2
O16 C69 1_555 1_555
O17 C69 1_555 1_555
Ce4 O17 1_555 1_555
Ce6 O16 1_555 1_555
O16_2 C69_2 1_555 1_555
O17_2 C69_2 1_555 1_555
Ce4_2 O17_2 1_555 1_555
Ce6_2 O16_2 1_555 1_555
O10 C46 1_555 1_555
O11 C46 1_555 1_555
N1 C70 1_555 1_555
H24 C28 1_555 1_555
C29 C28 1_555 1_555
H25 C29 1_555 1_555
C30 C29 1_555 1_555
H26 C30 1_555 1_555
C31 C30 1_555 1_555
H27 C31 1_555 1_555
C38 C37 1_555 1_555
C39 C38 1_555 1_555
H31 C39 1_555 1_555
C40 C39 1_555 1_555
H32 C40 1_555 1_555
C41 C40 1_555 1_555
H33 C41 1_555 1_555
C42 C37 1_555 1_555
C43 C42 1_555 1_555
H34 C43 1_555 1_555
C44 C43 1_555 1_555
C46 C44 1_555 1_555
H47 C70 1_555 1_555
C71 N1 1_555 1_555
H48 C71 1_555 1_555
H49 C71 1_555 1_555
H50 C71 1_555 1_555
C72 N1 1_555 1_555
H51 C72 1_555 1_555
H52 C72 1_555 1_555
H53 C72 1_555 1_555
Ce4 O10 1_555 1_555
O11 Ce4 1_555 1_555
C41 C42 1_555 1_555
C44 C45 1_555 1_555
O4 C23 1_555 1_555
O5 C23 1_555 1_555
O6 H2 1_555 1_555
H22 C20 1_555 1_555
C21 C20 1_555 1_555
C22 O6 1_555 1_555
C23 C21 1_555 1_555
Ce6 O4 1_555 1_555
O5 Ce6 1_555 1_555
C21 C22 1_555 1_555
Ce4_2 O2 1_555 1_555
Ce6_2 O1 1_555 1_555
O1 C1 1_555 1_555
O2 C1 1_555 1_555
O3 H1 1_555 1_555
O7 Ce4_2 1_555 1_555
O8 Ce6_2 1_555 1_555
O9 H3 1_555 1_555
O12 H4 1_555 1_555
O13 Ce6_2 1_555 1_555
O14 Ce4_2 1_555 1_555
O15 H5 1_555 1_555
O19 Ce4_2 1_555 1_555
O20 Ce4_2 1_555 1_555
O21 Ce6_2 1_555 1_555
H7 O21 1_555 1_555
H8 O21 1_555 1_555
O22 Ce6_2 1_555 1_555
H9 O22 1_555 1_555
H10 O22 1_555 1_555
C1 C2 1_555 1_555
C2 C3 1_555 1_555
C3 H11 1_555 1_555
C4 C3 1_555 1_555
C5 C4 1_555 1_555
H12 C5 1_555 1_555
C6 C5 1_555 1_555
H13 C6 1_555 1_555
C7 C6 1_555 1_555
H14 C7 1_555 1_555
C8 C7 1_555 1_555
H15 C8 1_555 1_555
C9 C4 1_555 1_555
C10 C9 1_555 1_555
C11 O3 1_555 1_555
C12 C10 1_555 1_555
H16 C12 1_555 1_555
H17 C12 1_555 1_555
C13 C12 1_555 1_555
C14 C13 1_555 1_555
C15 C14 1_555 1_555
H18 C15 1_555 1_555
C16 C15 1_555 1_555
H19 C16 1_555 1_555
C19 C14 1_555 1_555
C24 O7 1_555 1_555
C25 C24 1_555 1_555
C26 C25 1_555 1_555
H23 C26 1_555 1_555
C27 C26 1_555 1_555
C32 C27 1_555 1_555
C33 C32 1_555 1_555
C34 O9 1_555 1_555
C35 C33 1_555 1_555
H28 C35 1_555 1_555
H29 C35 1_555 1_555
C36 C35 1_555 1_555
C47 O13 1_555 1_555
C48 C47 1_555 1_555
C49 C48 1_555 1_555
H35 C49 1_555 1_555
C50 C49 1_555 1_555
C51 C50 1_555 1_555
H36 C51 1_555 1_555
C52 C51 1_555 1_555
H37 C52 1_555 1_555
C57 O15 1_555 1_555
C61 C60 1_555 1_555
H42 C61 1_555 1_555
C62 C61 1_555 1_555
H43 C62 1_555 1_555
C63 C62 1_555 1_555
H44 C63 1_555 1_555
C64 C63 1_555 1_555
H45 C64 1_555 1_555
C65 C60 1_555 1_555
C73 O20 1_555 1_555
H54 C73 1_555 1_555
O23 Ce6_2 1_555 1_555
O24 Ce6_2 1_555 1_555
O25 Ce4_2 1_555 1_555
O26 Ce4_2 1_555 1_555
O8 C24 1_555 1_555
O14 C47 1_555 1_555
C2 C11 1_555 1_555
C8 C9 1_555 1_555
C10 C11 1_555 1_555
C18 C19 1_555 1_555
C25 C34 1_555 1_555
C33 C34 1_555 1_555
C48 C57 1_555 1_555
C64 C65 1_555 1_555
Ce4 O2_2 1_555 1_555
Ce6 O1_2 1_555 1_555
O1_2 C1_2 1_555 1_555
O2_2 C1_2 1_555 1_555
O3_2 H1_2 1_555 1_555
O23 C23_2 1_555 1_555
O24 C23_2 1_555 1_555
O6_2 H2_2 1_555 1_555
O7_2 Ce4 1_555 1_555
O8_2 Ce6 1_555 1_555
O9_2 H3_2 1_555 1_555
O13_2 Ce6 1_555 1_555
O14_2 Ce4 1_555 1_555
O15_2 H5_2 1_555 1_555
O18 H6 1_555 1_555
O19_2 Ce4 1_555 1_555
O20_2 Ce4 1_555 1_555
O21_2 Ce6 1_555 1_555
H7_2 O21_2 1_555 1_555
O22_2 Ce6 1_555 1_555
H9_2 O22_2 1_555 1_555
H10_2 O22_2 1_555 1_555
N2 C73_2 1_555 1_555
C1_2 C2_2 1_555 1_555
C2_2 C3_2 1_555 1_555
C3_2 H11_2 1_555 1_555
C4_2 C3_2 1_555 1_555
C5_2 C4_2 1_555 1_555
H12_2 C5_2 1_555 1_555
C6_2 C5_2 1_555 1_555
H13_2 C6_2 1_555 1_555
C7_2 C6_2 1_555 1_555
H14_2 C7_2 1_555 1_555
C8_2 C7_2 1_555 1_555
H15_2 C8_2 1_555 1_555
C9_2 C4_2 1_555 1_555
C10_2 C9_2 1_555 1_555
C11_2 O3_2 1_555 1_555
C12_2 C10_2 1_555 1_555
H16_2 C12_2 1_555 1_555
H17_2 C12_2 1_555 1_555
C13_2 C12_2 1_555 1_555
C14_2 C13_2 1_555 1_555
C15_2 C14_2 1_555 1_555
H18_2 C15_2 1_555 1_555
C16_2 C15_2 1_555 1_555
H19_2 C16_2 1_555 1_555
C17 C16_2 1_555 1_555
H20 C17 1_555 1_555
C18_2 C17 1_555 1_555
H21 C18_2 1_555 1_555
C19_2 C14_2 1_555 1_555
C20_2 C19_2 1_555 1_555
H22_2 C20_2 1_555 1_555
C21_2 C20_2 1_555 1_555
C22_2 O6_2 1_555 1_555
C23_2 C21_2 1_555 1_555
C24_2 O7_2 1_555 1_555
C25_2 C24_2 1_555 1_555
C26_2 C25_2 1_555 1_555
H23_2 C26_2 1_555 1_555
C27_2 C26_2 1_555 1_555
C32_2 C27_2 1_555 1_555
C33_2 C32_2 1_555 1_555
C34_2 O9_2 1_555 1_555
C47_2 O13_2 1_555 1_555
C48_2 C47_2 1_555 1_555
C49_2 C48_2 1_555 1_555
H35_2 C49_2 1_555 1_555
C50_2 C49_2 1_555 1_555
C51_2 C50_2 1_555 1_555
H36_2 C51_2 1_555 1_555
C52_2 C51_2 1_555 1_555
H37_2 C52_2 1_555 1_555
C53 C52_2 1_555 1_555
H38 C53 1_555 1_555
C54 C53 1_555 1_555
H39 C54 1_555 1_555
C55 C50_2 1_555 1_555
C56 C55 1_555 1_555
C57_2 O15_2 1_555 1_555
C58 C56 1_555 1_555
H40 C58 1_555 1_555
H41 C58 1_555 1_555
C59 C58 1_555 1_555
C60_2 C59 1_555 1_555
C61_2 C60_2 1_555 1_555
H42_2 C61_2 1_555 1_555
C62_2 C61_2 1_555 1_555
H43_2 C62_2 1_555 1_555
C63_2 C62_2 1_555 1_555
H44_2 C63_2 1_555 1_555
C64_2 C63_2 1_555 1_555
H45_2 C64_2 1_555 1_555
C65_2 C60_2 1_555 1_555
C66 C65_2 1_555 1_555
C67 C66 1_555 1_555
C68 O18 1_555 1_555
C73_2 O20_2 1_555 1_555
H54_2 C73_2 1_555 1_555
C74 N2 1_555 1_555
H55 C74 1_555 1_555
H56 C74 1_555 1_555
H57 C74 1_555 1_555
C75 N2 1_555 1_555
H58 C75 1_555 1_555
H59 C75 1_555 1_555
H60 C75 1_555 1_555
O8_2 C24_2 1_555 1_555
O14_2 C47_2 1_555 1_555
C2_2 C11_2 1_555 1_555
C8_2 C9_2 1_555 1_555
C10_2 C11_2 1_555 1_555
C13_2 C22_2 1_555 1_555
C18_2 C19_2 1_555 1_555
C21_2 C22_2 1_555 1_555
C25_2 C34_2 1_555 1_555
C33_2 C34_2 1_555 1_555
C48_2 C57_2 1_555 1_555
C54 C55 1_555 1_555
C56 C57_2 1_555 1_555
C59 C68 1_555 1_555
C64_2 C65_2 1_555 1_555
C67 C68 1_555 1_555
O25 C46_2 1_555 1_555
O26 C46_2 1_555 1_555
H26_2 C30_2 1_555 1_555
C31_2 C30_2 1_555 1_555
H27_2 C31_2 1_555 1_555
C42_2 C37_2 1_555 1_555
C43_2 C42_2 1_555 1_555
H34_2 C43_2 1_555 1_555
C44_2 C43_2 1_555 1_555
C46_2 C44_2 1_555 1_555
C41_2 C42_2 1_555 1_555
C44_2 C45_2 1_555 1_555
O18_2 H6_2 1_555 1_555
H20_2 C17_2 1_555 1_555
H38_2 C53_2 1_555 1_555
C54_2 C53_2 1_555 1_555
H39_2 C54_2 1_555 1_555
C56_2 C55_2 1_555 1_555
C58_2 C56_2 1_555 1_555
H40_2 C58_2 1_555 1_555
H41_2 C58_2 1_555 1_555
C59_2 C58_2 1_555 1_555
C67_2 C66_2 1_555 1_555
C68_2 O18_2 1_555 1_555
C74_2 N2_2 1_555 1_555
H55_2 C74_2 1_555 1_555
H56_2 C74_2 1_555 1_555
H57_2 C74_2 1_555 1_555
C75_2 N2_2 1_555 1_555
H58_2 C75_2 1_555 1_555
H59_2 C75_2 1_555 1_555
H60_2 C75_2 1_555 1_555
C54_2 C55_2 1_555 1_555
C59_2 C68_2 1_555 1_555
C67_2 C68_2 1_555 1_555
Ce1 O2_3 1_555 1_555
Ce2 O1_3 1_555 1_555
O1_3 C1_3 1_555 1_555
O2_3 C1_3 1_555 1_555
O3_3 H1_3 1_555 1_555
O7_3 Ce1 1_555 1_555
O8_3 Ce2 1_555 1_555
O9_3 H3_3 1_555 1_555
O12_2 H4_2 1_555 1_555
O13_3 Ce2 1_555 1_555
O14_3 Ce1 1_555 1_555
O15_3 H5_3 1_555 1_555
O19_3 Ce1 1_555 1_555
O20_3 Ce1 1_555 1_555
O21_3 Ce2 1_555 1_555
H7_3 O21_3 1_555 1_555
H8_2 O21_3 1_555 1_555
O22_3 Ce2 1_555 1_555
H9_3 O22_3 1_555 1_555
H10_3 O22_3 1_555 1_555
C1_3 C2_3 1_555 1_555
C2_3 C3_3 1_555 1_555
C3_3 H11_3 1_555 1_555
C4_3 C3_3 1_555 1_555
C5_3 C4_3 1_555 1_555
H12_3 C5_3 1_555 1_555
C6_3 C5_3 1_555 1_555
H13_3 C6_3 1_555 1_555
C7_3 C6_3 1_555 1_555
H14_3 C7_3 1_555 1_555
C8_3 C7_3 1_555 1_555
H15_3 C8_3 1_555 1_555
C9_3 C4_3 1_555 1_555
C10_3 C9_3 1_555 1_555
C11_3 O3_3 1_555 1_555
C12_3 C10_3 1_555 1_555
H16_3 C12_3 1_555 1_555
H17_3 C12_3 1_555 1_555
C13_3 C12_3 1_555 1_555
C14_3 C13_3 1_555 1_555
C15_3 C14_3 1_555 1_555
H18_3 C15_3 1_555 1_555
C16_3 C15_3 1_555 1_555
H19_3 C16_3 1_555 1_555
C19_3 C14_3 1_555 1_555
C24_3 O7_3 1_555 1_555
C25_3 C24_3 1_555 1_555
C26_3 C25_3 1_555 1_555
H23_3 C26_3 1_555 1_555
C27_3 C26_3 1_555 1_555
C32_3 C27_3 1_555 1_555
C33_3 C32_3 1_555 1_555
C34_3 O9_3 1_555 1_555
C35_2 C33_3 1_555 1_555
H28_2 C35_2 1_555 1_555
H29_2 C35_2 1_555 1_555
C36_2 C35_2 1_555 1_555
C47_3 O13_3 1_555 1_555
C48_3 C47_3 1_555 1_555
C49_3 C48_3 1_555 1_555
H35_3 C49_3 1_555 1_555
C50_3 C49_3 1_555 1_555
C51_3 C50_3 1_555 1_555
H36_3 C51_3 1_555 1_555
C52_3 C51_3 1_555 1_555
H37_3 C52_3 1_555 1_555
C57_3 O15_3 1_555 1_555
C61_3 C60_3 1_555 1_555
H42_3 C61_3 1_555 1_555
C62_3 C61_3 1_555 1_555
H43_3 C62_3 1_555 1_555
C63_3 C62_3 1_555 1_555
H44_3 C63_3 1_555 1_555
C64_3 C63_3 1_555 1_555
H45_3 C64_3 1_555 1_555
C65_3 C60_3 1_555 1_555
C73_3 O20_3 1_555 1_555
H54_3 C73_3 1_555 1_555
O23_2 Ce2 1_555 1_555
O24_2 Ce2 1_555 1_555
O25_2 Ce1 1_555 1_555
O26_2 Ce1 1_555 1_555
O27 Ce2 1_555 1_555
O28 Ce1 1_555 1_555
O8_3 C24_3 1_555 1_555
O14_3 C47_3 1_555 1_555
C2_3 C11_3 1_555 1_555
C8_3 C9_3 1_555 1_555
C10_3 C11_3 1_555 1_555
C18_3 C19_3 1_555 1_555
C25_3 C34_3 1_555 1_555
C33_3 C34_3 1_555 1_555
C48_3 C57_3 1_555 1_555
C64_3 C65_3 1_555 1_555
O4_2 C23_3 1_555 1_555
O5_2 C23_3 1_555 1_555
O6_3 H2_3 1_555 1_555
H22_3 C20_3 1_555 1_555
C21_3 C20_3 1_555 1_555
C22_3 O6_3 1_555 1_555
C23_3 C21_3 1_555 1_555
Ce5 O4_2 1_555 1_555
O5_2 Ce5 1_555 1_555
C21_3 C22_3 1_555 1_555
O10_2 C46_3 1_555 1_555
O11_2 C46_3 1_555 1_555
N1_2 C70_2 1_555 1_555
H24_2 C28_2 1_555 1_555
C29_2 C28_2 1_555 1_555
H25_2 C29_2 1_555 1_555
C30_3 C29_2 1_555 1_555
H26_3 C30_3 1_555 1_555
C31_3 C30_3 1_555 1_555
H27_3 C31_3 1_555 1_555
C38_2 C37_3 1_555 1_555
C39_2 C38_2 1_555 1_555
H31_2 C39_2 1_555 1_555
C40_2 C39_2 1_555 1_555
H32_2 C40_2 1_555 1_555
C41_3 C40_2 1_555 1_555
H33_2 C41_3 1_555 1_555
C42_3 C37_3 1_555 1_555
C43_3 C42_3 1_555 1_555
H34_3 C43_3 1_555 1_555
C44_3 C43_3 1_555 1_555
C46_3 C44_3 1_555 1_555
H47_2 C70_2 1_555 1_555
C71_2 N1_2 1_555 1_555
H48_2 C71_2 1_555 1_555
H49_2 C71_2 1_555 1_555
H50_2 C71_2 1_555 1_555
C72_2 N1_2 1_555 1_555
H51_2 C72_2 1_555 1_555
H52_2 C72_2 1_555 1_555
H53_2 C72_2 1_555 1_555
Ce3 O10_2 1_555 1_555
O11_2 Ce3 1_555 1_555
C41_3 C42_3 1_555 1_555
C44_3 C45_3 1_555 1_555
O25_2 C46_4 1_555 1_555
O26_2 C46_4 1_555 1_555
H26_4 C30_4 1_555 1_555
C31_4 C30_4 1_555 1_555
H27_4 C31_4 1_555 1_555
C42_4 C37_4 1_555 1_555
C43_4 C42_4 1_555 1_555
H34_4 C43_4 1_555 1_555
C44_4 C43_4 1_555 1_555
C46_4 C44_4 1_555 1_555
C41_4 C42_4 1_555 1_555
C44_4 C45_4 1_555 1_555
Ce3 O2_4 1_555 1_555
Ce5 O1_4 1_555 1_555
O1_4 C1_4 1_555 1_555
O2_4 C1_4 1_555 1_555
O3_4 H1_4 1_555 1_555
O23_2 C23_4 1_555 1_555
O24_2 C23_4 1_555 1_555
O6_4 H2_4 1_555 1_555
O7_4 Ce3 1_555 1_555
O8_4 Ce5 1_555 1_555
O9_4 H3_4 1_555 1_555
O13_4 Ce5 1_555 1_555
O14_4 Ce3 1_555 1_555
O15_4 H5_4 1_555 1_555
O18_3 H6_3 1_555 1_555
O19_4 Ce3 1_555 1_555
O20_4 Ce3 1_555 1_555
O21_4 Ce5 1_555 1_555
H7_4 O21_4 1_555 1_555
O22_4 Ce5 1_555 1_555
H9_4 O22_4 1_555 1_555
H10_4 O22_4 1_555 1_555
N2_3 C73_4 1_555 1_555
C1_4 C2_4 1_555 1_555
C2_4 C3_4 1_555 1_555
C3_4 H11_4 1_555 1_555
C4_4 C3_4 1_555 1_555
C5_4 C4_4 1_555 1_555
H12_4 C5_4 1_555 1_555
C6_4 C5_4 1_555 1_555
H13_4 C6_4 1_555 1_555
C7_4 C6_4 1_555 1_555
H14_4 C7_4 1_555 1_555
C8_4 C7_4 1_555 1_555
H15_4 C8_4 1_555 1_555
C9_4 C4_4 1_555 1_555
C10_4 C9_4 1_555 1_555
C11_4 O3_4 1_555 1_555
C12_4 C10_4 1_555 1_555
H16_4 C12_4 1_555 1_555
H17_4 C12_4 1_555 1_555
C13_4 C12_4 1_555 1_555
C14_4 C13_4 1_555 1_555
C15_4 C14_4 1_555 1_555
H18_4 C15_4 1_555 1_555
C16_4 C15_4 1_555 1_555
H19_4 C16_4 1_555 1_555
C17_3 C16_4 1_555 1_555
H20_3 C17_3 1_555 1_555
C18_4 C17_3 1_555 1_555
H21_3 C18_4 1_555 1_555
C19_4 C14_4 1_555 1_555
C20_4 C19_4 1_555 1_555
H22_4 C20_4 1_555 1_555
C21_4 C20_4 1_555 1_555
C22_4 O6_4 1_555 1_555
C23_4 C21_4 1_555 1_555
C24_4 O7_4 1_555 1_555
C25_4 C24_4 1_555 1_555
C26_4 C25_4 1_555 1_555
H23_4 C26_4 1_555 1_555
C27_4 C26_4 1_555 1_555
C32_4 C27_4 1_555 1_555
C33_4 C32_4 1_555 1_555
C34_4 O9_4 1_555 1_555
C47_4 O13_4 1_555 1_555
C48_4 C47_4 1_555 1_555
C49_4 C48_4 1_555 1_555
H35_4 C49_4 1_555 1_555
C50_4 C49_4 1_555 1_555
C51_4 C50_4 1_555 1_555
H36_4 C51_4 1_555 1_555
C52_4 C51_4 1_555 1_555
H37_4 C52_4 1_555 1_555
C53_3 C52_4 1_555 1_555
H38_3 C53_3 1_555 1_555
C54_3 C53_3 1_555 1_555
H39_3 C54_3 1_555 1_555
C55_3 C50_4 1_555 1_555
C56_3 C55_3 1_555 1_555
C57_4 O15_4 1_555 1_555
C58_3 C56_3 1_555 1_555
H40_3 C58_3 1_555 1_555
H41_3 C58_3 1_555 1_555
C59_3 C58_3 1_555 1_555
C60_4 C59_3 1_555 1_555
C61_4 C60_4 1_555 1_555
H42_4 C61_4 1_555 1_555
C62_4 C61_4 1_555 1_555
H43_4 C62_4 1_555 1_555
C63_4 C62_4 1_555 1_555
H44_4 C63_4 1_555 1_555
C64_4 C63_4 1_555 1_555
H45_4 C64_4 1_555 1_555
C65_4 C60_4 1_555 1_555
C66_3 C65_4 1_555 1_555
C67_3 C66_3 1_555 1_555
C68_3 O18_3 1_555 1_555
C73_4 O20_4 1_555 1_555
H54_4 C73_4 1_555 1_555
C74_3 N2_3 1_555 1_555
H55_3 C74_3 1_555 1_555
H56_3 C74_3 1_555 1_555
H57_3 C74_3 1_555 1_555
C75_3 N2_3 1_555 1_555
H58_3 C75_3 1_555 1_555
H59_3 C75_3 1_555 1_555
H60_3 C75_3 1_555 1_555
O27_2 Ce5 1_555 1_555
O28_2 Ce3 1_555 1_555
O8_4 C24_4 1_555 1_555
O14_4 C47_4 1_555 1_555
C2_4 C11_4 1_555 1_555
C8_4 C9_4 1_555 1_555
C10_4 C11_4 1_555 1_555
C13_4 C22_4 1_555 1_555
C18_4 C19_4 1_555 1_555
C21_4 C22_4 1_555 1_555
C25_4 C34_4 1_555 1_555
C33_4 C34_4 1_555 1_555
C48_4 C57_4 1_555 1_555
C54_3 C55_3 1_555 1_555
C56_3 C57_4 1_555 1_555
C59_3 C68_3 1_555 1_555
C64_4 C65_4 1_555 1_555
C67_3 C68_3 1_555 1_555
O27_2 C69_3 1_555 1_555
O28_2 C69_3 1_555 1_555
O27 C69_4 1_555 1_555
O28 C69_4 1_555 1_555
H32_3 C40_3 1_555 1_555
N1_3 C70_3 1_555 1_555
H24_3 C28_3 1_555 1_555
C29_3 C28_3 1_555 1_555
H25_3 C29_3 1_555 1_555
C39_3 C38_3 1_555 1_555
H31_3 C39_3 1_555 1_555
H47_3 C70_3 1_555 1_555
C71_3 N1_3 1_555 1_555
H48_3 C71_3 1_555 1_555
H49_3 C71_3 1_555 1_555
H50_3 C71_3 1_555 1_555
C72_3 N1_3 1_555 1_555
H51_3 C72_3 1_555 1_555
H52_3 C72_3 1_555 1_555
H53_3 C72_3 1_555 1_555
O12_3 H4_3 1_555 1_555
H28_3 C35_3 1_555 1_555
H29_3 C35_3 1_555 1_555
C36_3 C35_3 1_555 1_555
O18_4 H6_4 1_555 1_555
H20_4 C17_4 1_555 1_555
H38_4 C53_4 1_555 1_555
C54_4 C53_4 1_555 1_555
H39_4 C54_4 1_555 1_555
C56_4 C55_4 1_555 1_555
C58_4 C56_4 1_555 1_555
H40_4 C58_4 1_555 1_555
H41_4 C58_4 1_555 1_555
C59_4 C58_4 1_555 1_555
C67_4 C66_4 1_555 1_555
C68_4 O18_4 1_555 1_555
C74_4 N2_4 1_555 1_555
H55_4 C74_4 1_555 1_555
H56_4 C74_4 1_555 1_555
H57_4 C74_4 1_555 1_555
C75_4 N2_4 1_555 1_555
H58_4 C75_4 1_555 1_555
H59_4 C75_4 1_555 1_555
H60_4 C75_4 1_555 1_555
C54_4 C55_4 1_555 1_555
C59_4 C68_4 1_555 1_555
C67_4 C68_4 1_555 1_555
O12_4 H4_4 1_555 1_555
H28_4 C35_4 1_555 1_555
H29_4 C35_4 1_555 1_555
C36_4 C35_4 1_555 1_555
N1_4 C70_4 1_555 1_555
H24_4 C28_4 1_555 1_555
C29_4 C28_4 1_555 1_555
H25_4 C29_4 1_555 1_555
C39_4 C38_4 1_555 1_555
H31_4 C39_4 1_555 1_555
H47_4 C70_4 1_555 1_555
C71_4 N1_4 1_555 1_555
H48_4 C71_4 1_555 1_555
H49_4 C71_4 1_555 1_555
H50_4 C71_4 1_555 1_555
C72_4 N1_4 1_555 1_555
H51_4 C72_4 1_555 1_555
H52_4 C72_4 1_555 1_555
H53_4 C72_4 1_555 1_555
H32_4 C40_4 1_555 1_555

#END
