
###############################################################################
#
# This file contains modified crystal structure data generated from the
# MOF subset of the Cambridge Structural Database (CSD) v543 
# hosted by the Cambridge Crystallographic Data Centre (CCDC).
#
# This work is licensed under the Creative Commons
# Attribution-NonCommercial-ShareAlike 4.0 International License.
# To view a copy of this license, visit
# http://creativecommons.org/licenses/by-nc-sa/4.0/
# or send a letter to
# Creative Commons, PO Box 1866, Mountain View, CA 94042, USA.
#
# CIF created using the CSD Python API on 29 September 2022
# The structure has been converted into the P1 space group
# The structure has a 3D framework
# The original CSD entry ROYROO is in the orthorhombic crystal system
# The framework has been calculated to contain at least 10.0% void space
# The void calculation uses a probe of radius 1.32A, grid spacing 0.4
#
###############################################################################

data_ROYROO
_chemical_formula_moiety         '(C300 H240 N8 O86 Yb8)n'
_symmetry_cell_setting           triclinic
_symmetry_space_group_name_H-M   'P 1'
_symmetry_Int_Tables_number      1
_space_group_name_Hall           'P 1'
loop_
_symmetry_equiv_pos_site_id
_symmetry_equiv_pos_as_xyz
1 x,y,z
_cell_length_a                   19.08923(19)
_cell_length_b                   14.38724(17)
_cell_length_c                   30.5462(4)
_cell_angle_alpha                90
_cell_angle_beta                 90
_cell_angle_gamma                90
_cell_volume                     8389.25
loop_
_atom_site_label
_atom_site_type_symbol
_atom_site_fract_x
_atom_site_fract_y
_atom_site_fract_z
C34 C 0.2473(3) 0.0387(4) 0.3466(2)
H25 H 0.2680 0.0597 0.4294
H26 H 0.2313 0.0018 0.4660
H34 H 0.2610 0.0873 0.3648
C43 C 0.2364(4) 0.0549(5) 0.3046(2)
H40 H 0.2403 0.1153 0.2941
C63 C 0.4138(4) 0.0054(6) 0.58136(18)
C64 C 0.2896(4) 0.0070(6) 0.5861(3)
H50 H 0.4574 0.0074 0.5948
C73 C 0.3546(4) 0.0111(6) 0.6065(2)
H51 H 0.2494 0.0101 0.6033
H52 H 0.4012 0.0126 0.1783
O22 O 0.3895(3) 0.0703(3) 0.10354(14)
H58 H 0.3578 0.0177 0.6367
O24 O 0.52943(17) 0.0005(3) 0.39746(11)
Yb4 Yb 0.641348(9) 0.037313(12) 0.370201(6)
Yb5 Yb 0.310893(9) 0.024192(12) 0.994440(7)
Yb1 Yb 0.141348(9) 0.462687(12) 0.370201(6)
O1 O 0.23722(16) 0.4693(2) 0.41451(12)
O2 O 0.2160(2) 0.3423(3) 0.34652(12)
O3 O 0.16678(18) 0.6161(2) 0.38426(11)
O4 O 0.0690(2) 0.3599(3) 0.33288(12)
O5 O 0.02943(17) 0.4995(3) 0.39746(11)
O6 O 0.19032(19) 0.5091(3) 0.30225(12)
O7 O 0.08231(18) 0.5531(3) 0.31451(11)
O8 O 0.12145(17) 0.3420(2) 0.41896(11)
Yb2 Yb 0.189107(9) 0.524192(12) 0.494440(7)
H1 H 0.2319 0.3082 0.3692
H2 H 0.1942 0.3026 0.3281
C1 C 0.1951(2) 0.6703(3) 0.41049(16)
C2 C 0.0086(4) 0.3658(6) 0.3241(2)
C3 C 0.1357(3) 0.5563(3) 0.29143(17)
C4 C 0.1366(2) 0.3183(3) 0.45722(16)
O9 O 0.1616(2) 0.4668(3) 0.56149(12)
O10 O 0.30208(18) 0.4779(3) 0.47338(12)
O11 O 0.1283(2) 0.6471(3) 0.52721(12)
O12 O 0.21057(18) 0.6485(2) 0.45031(11)
O13 O 0.2698(2) 0.5925(4) 0.53909(14)
O14 O 0.08936(17) 0.5211(2) 0.45781(13)
O15 O 0.16718(18) 0.3700(2) 0.48522(10)
C5 C 0.2119(2) 0.7660(3) 0.39520(16)
C6 C 0.1386(2) 0.6179(3) 0.25214(16)
C7 C 0.1168(2) 0.2220(3) 0.47132(15)
H4 H 0.0974 0.6686 0.5093
H5 H 0.1570 0.6912 0.5339
C8 C 0.2970(4) 0.6643(6) 0.5496(2)
C9 C 0.2333(2) 0.8380(3) 0.42473(17)
C10 C 0.2038(3) 0.7863(4) 0.35160(17)
C13 C 0.0820(3) 0.6731(4) 0.24328(17)
C14 C 0.1991(3) 0.6209(4) 0.22374(16)
C15 C 0.0959(2) 0.1523(3) 0.44195(15)
C16 C 0.1196(2) 0.2002(3) 0.51556(15)
N2 N 0.3543(4) 0.6767(5) 0.5701(3)
H6 H 0.2731 0.7180 0.5418
O16 O 0.2406(2) 0.8208(3) 0.46896(11)
C17 C 0.2481(2) 0.9271(3) 0.41073(17)
H7 H 0.1889 0.7401 0.3325
C18 C 0.2176(2) 0.8764(3) 0.33530(17)
H13 H 0.0275 0.2001 0.3282
C19 C 0.0824(3) 0.7348(4) 0.20673(18)
H14 H 0.0428 0.6704 0.2613
O17 O 0.2525(2) 0.5623(3) 0.23193(12)
C20 C 0.2035(3) 0.6840(4) 0.19017(15)
C21 C 0.0799(2) 0.0647(3) 0.45521(15)
O18 O 0.09097(19) 0.1707(2) 0.39825(10)
H15 H 0.1323 0.2458 0.5356
C22 C 0.1037(2) 0.1111(3) 0.53048(16)
C23 C 0.3924(6) 0.5955(8) 0.5844(4)
C24 C 0.3868(6) 0.7653(8) 0.5775(4)
H16 H 0.2580 0.7693 0.4725
C25 C 0.2384(2) 0.9476(3) 0.36493(19)
C26 C 0.2681(3) 0.9999(3) 0.44411(17)
C27 C 0.2081(3) 0.8943(4) 0.29045(18)
C28 C 0.0227(4) 0.7846(5) 0.1956(2)
C29 C 0.1435(3) 0.7389(4) 0.17974(17)
H17 H 0.2453 0.5349 0.2550
C30 C 0.2712(3) 0.6930(4) 0.16358(17)
C31 C 0.0854(2) 0.0400(3) 0.50026(18)
H18 H 0.0975 0.2263 0.3940
C33 C 0.1074(3) 0.0887(4) 0.57585(17)
H19 H 0.3607 0.5440 0.5871
H20 H 0.4136 0.6078 0.6123
H21 H 0.4281 0.5807 0.5635
H22 H 0.3996 0.7925 0.5500
H23 H 0.4280 0.7571 0.5951
H24 H 0.3546 0.8055 0.5925
C35 C 0.3367(3) 0.9906(3) 0.46767(18)
H27 H 0.1947 0.8470 0.2715
C36 C 0.2188(3) 0.9822(5) 0.2753(2)
C37 C 0.0215(4) 0.8407(5) 0.1593(2)
C38 C 0.1395(3) 0.7976(5) 0.14240(18)
C39 C 0.3099(3) 0.7831(4) 0.16891(16)
H29 H 0.2599 0.6851 0.1328
H30 H 0.3023 0.6427 0.1718
C42 C 0.0969(3) 0.0022(5) 0.5906(2)
H33 H 0.1174 0.1356 0.5958
C44 C 0.3988(2) 0.9897(3) 0.44395(16)
C45 C 0.3423(2) 0.9945(4) 0.51431(18)
H35 H 0.2145 0.9946 0.2455
C46 C 0.0805(4) 0.8470(5) 0.1339(2)
H37 H 0.1777 0.8021 0.1236
C47 C 0.3187(3) 0.8427(4) 0.13247(16)
C48 C 0.3402(3) 0.8115(4) 0.20833(17)
O19 O 0.39317(18) 0.9923(3) 0.39920(12)
C52 C 0.4659(3) 0.9892(3) 0.46441(17)
C53 C 0.4098(3) 0.9965(4) 0.53489(15)
C54 C 0.2825(3) 0.9987(5) 0.5430(2)
H41 H 0.0800 0.8867 0.1099
C55 C 0.3523(3) 0.9301(4) 0.13583(15)
O20 O 0.2916(2) 0.8142(3) 0.09310(11)
C56 C 0.3396(3) 0.7520(4) 0.24669(17)
C57 C 0.3745(3) 0.8992(4) 0.21289(16)
H43 H 0.4319 0.9844 0.3882
C61 C 0.5316(2) 0.9883(3) 0.43796(17)
C62 C 0.4687(3) 0.9931(4) 0.50935(16)
H44 H 0.2377 0.9956 0.5311
C65 C 0.3790(3) 0.9553(4) 0.17583(18)
C66 C 0.3615(4) 0.9958(4) 0.09818(18)
H45 H 0.2924 0.8577 0.0757
H46 H 0.3190 0.6935 0.2452
C67 C 0.3688(3) 0.7814(5) 0.2845(2)
C68 C 0.4034(4) 0.9257(5) 0.2540(2)
H49 H 0.5123 0.9935 0.5229
H53 H 0.3678 0.7417 0.3085
C74 C 0.4005(4) 0.8682(6) 0.2894(2)
H54 H 0.4248 0.9834 0.2567
H59 H 0.4191 0.8864 0.3162
O23 O 0.58936(17) 0.9789(2) 0.45781(13)
O25 O 0.3384(2) 0.9668(3) 0.06149(12)
Yb3 Yb 0.689107(9) 0.975808(12) 0.494440(7)
H3 H 0.9887 0.4236 0.3296
N1 N 0.9667(3) 0.3053(4) 0.3084(3)
C11 C 0.8922(4) 0.3165(9) 0.3003(4)
C12 C 0.9875(6) 0.2073(6) 0.3095(4)
H8 H 0.8740 0.3645 0.3190
H9 H 0.8685 0.2591 0.3064
H10 H 0.8848 0.3334 0.2703
H11 H 0.9992 0.1871 0.2804
H12 H 0.9495 0.1706 0.3205
H28 H 0.9829 0.7799 0.2131
C41 C 0.9889(2) 0.0018(3) 0.39840(17)
H36 H 0.9813 0.8739 0.1521
C50 C 0.9288(2) 0.0091(3) 0.42383(17)
O21 O 0.93662(19) 0.0076(3) 0.46778(12)
C58 C 0.8614(2) 0.0177(3) 0.40447(18)
C59 C 0.9135(3) 0.0017(4) 0.33355(18)
H47 H 0.8981 0.0111 0.4795
C69 C 0.8549(2) 0.0121(4) 0.35999(17)
C70 C 0.7973(2) 0.0259(3) 0.43186(19)
H55 H 0.8107 0.0154 0.3473
O26 O 0.73722(16) 0.0307(2) 0.41451(12)
O27 O 0.80208(18) 0.0221(3) 0.47338(12)
C51 C 0.9814(3) 0.9957(4) 0.35223(16)
C71 C 0.9058(3) 0.9940(5) 0.2862(2)
C75 C 0.9610(3) 0.9807(5) 0.2602(2)
H56 H 0.8614 0.9985 0.2739
H60 H 0.9549 0.9748 0.2301
C51_2 C 0.0186(3) 0.0043(4) 0.85223(16)
C71_2 C 0.0942(3) 0.0060(5) 0.7862(2)
C75_2 C 0.0390(3) 0.0193(5) 0.7602(2)
H56_2 H 0.1386 0.0015 0.7739
H60_2 H 0.0451 0.0252 0.7301
H3_2 H 0.0113 0.5764 0.8296
N1_2 N 0.0333(3) 0.6947(4) 0.8084(3)
C11_2 C 0.1078(4) 0.6835(9) 0.8003(4)
C12_2 C 0.0125(6) 0.7927(6) 0.8095(4)
H8_2 H 0.1260 0.6355 0.8190
H9_2 H 0.1315 0.7409 0.8064
H10_2 H 0.1152 0.6666 0.7703
H11_2 H 0.0008 0.8129 0.7804
H12_2 H 0.0505 0.8294 0.8205
H28_2 H 0.0171 0.2201 0.7131
C41_2 C 0.0111(2) 0.9982(3) 0.89840(17)
H36_2 H 0.0187 0.1261 0.6521
C50_2 C 0.0712(2) 0.9909(3) 0.92383(17)
O21_2 O 0.06338(19) 0.9924(3) 0.96778(12)
C58_2 C 0.1386(2) 0.9823(3) 0.90447(18)
C59_2 C 0.0865(3) 0.9983(4) 0.83355(18)
H47_2 H 0.1019 0.9889 0.9795
C69_2 C 0.1451(2) 0.9879(4) 0.85999(17)
C70_2 C 0.2027(2) 0.9741(3) 0.93186(19)
H55_2 H 0.1893 0.9846 0.8473
O26_2 O 0.26278(16) 0.9693(2) 0.91451(12)
O27_2 O 0.19792(18) 0.9779(3) 0.97338(12)
Yb7 Yb 0.358652(9) 0.962687(12) 0.870201(6)
O9_2 O 0.8384(2) 0.5332(3) 0.06149(12)
O11_2 O 0.8717(2) 0.3529(3) 0.02721(12)
O13_2 O 0.7302(2) 0.4075(4) 0.03909(14)
H4_2 H 0.9026 0.3314 0.0093
H5_2 H 0.8430 0.3088 0.0339
C8_2 C 0.7030(4) 0.3357(6) 0.0496(2)
C16_2 C 0.8804(2) 0.7998(3) 0.01556(15)
N2_2 N 0.6457(4) 0.3233(5) 0.0701(3)
H6_2 H 0.7269 0.2820 0.0418
H15_2 H 0.8677 0.7542 0.0356
C22_2 C 0.8963(2) 0.8889(3) 0.03048(16)
C23_2 C 0.6076(6) 0.4045(8) 0.0844(4)
C24_2 C 0.6132(6) 0.2347(8) 0.0775(4)
C31_2 C 0.9146(2) 0.9600(3) 0.00026(18)
C33_2 C 0.8926(3) 0.9113(4) 0.07585(17)
H19_2 H 0.6393 0.4560 0.0871
H20_2 H 0.5864 0.3922 0.1123
H21_2 H 0.5719 0.4193 0.0635
H22_2 H 0.6004 0.2075 0.0500
H23_2 H 0.5720 0.2429 0.0951
H24_2 H 0.6454 0.1945 0.0925
C42_2 C 0.9031(3) 0.9978(5) 0.0906(2)
H33_2 H 0.8826 0.8644 0.0958
C45_2 C 0.6577(2) 0.0055(4) 0.01431(18)
C53_2 C 0.5902(3) 0.0035(4) 0.03489(15)
C54_2 C 0.7175(3) 0.0013(5) 0.0430(2)
C62_2 C 0.5313(3) 0.0069(4) 0.00935(16)
H44_2 H 0.7623 0.0044 0.0311
H49_2 H 0.4877 0.0065 0.0229
Yb1_2 Yb 0.858652(9) 0.537313(12) 0.870201(6)
O1_2 O 0.76278(16) 0.5307(2) 0.91451(12)
O2_2 O 0.7840(2) 0.6577(3) 0.84652(12)
O3_2 O 0.83322(18) 0.3839(2) 0.88426(11)
O4_2 O 0.9310(2) 0.6401(3) 0.83288(12)
O5_2 O 0.97057(17) 0.5005(3) 0.89746(11)
O6_2 O 0.80968(19) 0.4909(3) 0.80225(12)
O7_2 O 0.91769(18) 0.4469(3) 0.81451(11)
O8_2 O 0.87855(17) 0.6580(2) 0.91896(11)
Yb2_2 Yb 0.810893(9) 0.475808(12) 0.994440(7)
H1_2 H 0.7681 0.6918 0.8692
H2_2 H 0.8058 0.6974 0.8281
C1_2 C 0.8049(2) 0.3297(3) 0.91049(16)
C2_2 C 0.9914(4) 0.6342(6) 0.8241(2)
C3_2 C 0.8643(3) 0.4437(3) 0.79143(17)
C4_2 C 0.8634(2) 0.6817(3) 0.95722(16)
O10_2 O 0.69792(18) 0.5221(3) 0.97338(12)
O12_2 O 0.78943(18) 0.3515(2) 0.95031(11)
O14_2 O 0.91064(17) 0.4789(2) 0.95781(13)
O15_2 O 0.83282(18) 0.6300(2) 0.98522(10)
C5_2 C 0.7881(2) 0.2340(3) 0.89520(16)
C6_2 C 0.8614(2) 0.3821(3) 0.75214(16)
C7_2 C 0.8832(2) 0.7780(3) 0.97132(15)
C9_2 C 0.7667(2) 0.1620(3) 0.92473(17)
C10_2 C 0.7962(3) 0.2137(4) 0.85160(17)
C13_2 C 0.9180(3) 0.3269(4) 0.74328(17)
C14_2 C 0.8009(3) 0.3791(4) 0.72374(16)
C15_2 C 0.9041(2) 0.8477(3) 0.94195(15)
O16_2 O 0.7594(2) 0.1792(3) 0.96896(11)
C17_2 C 0.7519(2) 0.0729(3) 0.91073(17)
H7_2 H 0.8111 0.2599 0.8325
C18_2 C 0.7824(2) 0.1236(3) 0.83530(17)
H13_2 H 0.9725 0.7999 0.8282
C19_2 C 0.9176(3) 0.2652(4) 0.70673(18)
H14_2 H 0.9572 0.3296 0.7613
O17_2 O 0.7475(2) 0.4377(3) 0.73193(12)
C20_2 C 0.7965(3) 0.3160(4) 0.69017(15)
C21_2 C 0.9201(2) 0.9353(3) 0.95521(15)
O18_2 O 0.90903(19) 0.8293(2) 0.89825(10)
H16_2 H 0.7420 0.2307 0.9725
C25_2 C 0.7616(2) 0.0524(3) 0.86493(19)
C26_2 C 0.7319(3) 0.0001(3) 0.94411(17)
C27_2 C 0.7919(3) 0.1057(4) 0.79045(18)
C28_2 C 0.9773(4) 0.2154(5) 0.6956(2)
C29_2 C 0.8565(3) 0.2611(4) 0.67974(17)
H17_2 H 0.7547 0.4651 0.7550
C30_2 C 0.7288(3) 0.3070(4) 0.66358(17)
H18_2 H 0.9025 0.7737 0.8940
C35_2 C 0.6633(3) 0.0094(3) 0.96767(18)
H27_2 H 0.8053 0.1530 0.7715
C36_2 C 0.7812(3) 0.0178(5) 0.7753(2)
C37_2 C 0.9785(4) 0.1593(5) 0.6593(2)
C38_2 C 0.8605(3) 0.2024(5) 0.64240(18)
C39_2 C 0.6901(3) 0.2169(4) 0.66891(16)
H29_2 H 0.7401 0.3149 0.6328
H30_2 H 0.6977 0.3573 0.6718
C44_2 C 0.6012(2) 0.0103(3) 0.94395(16)
H35_2 H 0.7855 0.0054 0.7455
C46_2 C 0.9195(4) 0.1530(5) 0.6339(2)
H37_2 H 0.8223 0.1979 0.6236
C47_2 C 0.6813(3) 0.1573(4) 0.63247(16)
C48_2 C 0.6598(3) 0.1885(4) 0.70833(17)
O19_2 O 0.60683(18) 0.0077(3) 0.89920(12)
C52_2 C 0.5341(3) 0.0108(3) 0.96441(17)
H41_2 H 0.9200 0.1133 0.6099
C55_2 C 0.6477(3) 0.0699(4) 0.63583(15)
O20_2 O 0.7084(2) 0.1858(3) 0.59310(11)
C56_2 C 0.6604(3) 0.2480(4) 0.74669(17)
C57_2 C 0.6255(3) 0.1008(4) 0.71289(16)
H43_2 H 0.5681 0.0156 0.8882
C61_2 C 0.4684(2) 0.0117(3) 0.93796(17)
C65_2 C 0.6210(3) 0.0447(4) 0.67583(18)
C66_2 C 0.6385(4) 0.0042(4) 0.59818(18)
H45_2 H 0.7076 0.1423 0.5757
H46_2 H 0.6810 0.3065 0.7452
C67_2 C 0.6312(3) 0.2186(5) 0.7845(2)
C68_2 C 0.5966(4) 0.0743(5) 0.7540(2)
H53_2 H 0.6322 0.2583 0.8085
C74_2 C 0.5995(4) 0.1318(6) 0.7894(2)
H54_2 H 0.5752 0.0166 0.7567
H59_2 H 0.5809 0.1136 0.8162
O23_2 O 0.41064(17) 0.0211(2) 0.95781(13)
O25_2 O 0.6616(2) 0.0332(3) 0.56149(12)
C34_2 C 0.7527(3) 0.9613(4) 0.8466(2)
H25_2 H 0.7320 0.9403 0.9294
H26_2 H 0.7687 0.9982 0.9660
H34_2 H 0.7390 0.9127 0.8648
C43_2 C 0.7636(4) 0.9451(5) 0.8046(2)
H40_2 H 0.7597 0.8847 0.7941
H52_2 H 0.5988 0.9874 0.6783
O22_2 O 0.6105(3) 0.9297(3) 0.60354(14)
O24_2 O 0.47057(17) 0.9995(3) 0.89746(11)
O3_3 O 0.33322(18) 0.1161(2) 0.88426(11)
O6_3 O 0.30968(19) 0.0091(3) 0.80225(12)
O7_3 O 0.41769(18) 0.0531(3) 0.81451(11)
C1_3 C 0.3049(2) 0.1703(3) 0.91049(16)
C3_3 C 0.3643(3) 0.0563(3) 0.79143(17)
O12_3 O 0.28943(18) 0.1485(2) 0.95031(11)
C5_3 C 0.2881(2) 0.2660(3) 0.89520(16)
C6_3 C 0.3614(2) 0.1179(3) 0.75214(16)
C9_3 C 0.2667(2) 0.3380(3) 0.92473(17)
C10_3 C 0.2962(3) 0.2863(4) 0.85160(17)
C13_3 C 0.4180(3) 0.1731(4) 0.74328(17)
C14_3 C 0.3009(3) 0.1209(4) 0.72374(16)
O16_3 O 0.2594(2) 0.3208(3) 0.96896(11)
C17_3 C 0.2519(2) 0.4271(3) 0.91073(17)
H7_3 H 0.3111 0.2401 0.8325
C18_3 C 0.2824(2) 0.3764(3) 0.83530(17)
C19_3 C 0.4176(3) 0.2348(4) 0.70673(18)
H14_3 H 0.4572 0.1704 0.7613
O17_3 O 0.2475(2) 0.0623(3) 0.73193(12)
C20_3 C 0.2965(3) 0.1840(4) 0.69017(15)
H16_3 H 0.2420 0.2693 0.9725
C25_3 C 0.2616(2) 0.4476(3) 0.86493(19)
C26_3 C 0.2319(3) 0.4999(3) 0.94411(17)
C27_3 C 0.2919(3) 0.3943(4) 0.79045(18)
C28_3 C 0.4773(4) 0.2846(5) 0.6956(2)
C29_3 C 0.3565(3) 0.2389(4) 0.67974(17)
H17_3 H 0.2547 0.0349 0.7550
C30_3 C 0.2288(3) 0.1930(4) 0.66358(17)
C34_3 C 0.2527(3) 0.5387(4) 0.8466(2)
C35_3 C 0.1633(3) 0.4906(3) 0.96767(18)
H25_3 H 0.2320 0.5597 0.9294
H26_3 H 0.2687 0.5018 0.9660
H27_3 H 0.3053 0.3470 0.7715
C36_3 C 0.2812(3) 0.4822(5) 0.7753(2)
C37_3 C 0.4785(4) 0.3407(5) 0.6593(2)
H28_3 H 0.5171 0.2799 0.7131
C38_3 C 0.3605(3) 0.2976(5) 0.64240(18)
C39_3 C 0.1901(3) 0.2831(4) 0.66891(16)
H29_3 H 0.2401 0.1851 0.6328
H30_3 H 0.1977 0.1427 0.6718
H34_3 H 0.2390 0.5873 0.8648
C43_3 C 0.2636(4) 0.5549(5) 0.8046(2)
C44_3 C 0.1012(2) 0.4897(3) 0.94395(16)
H35_3 H 0.2855 0.4946 0.7455
C46_3 C 0.4195(4) 0.3470(5) 0.6339(2)
H36_3 H 0.5187 0.3739 0.6521
H37_3 H 0.3223 0.3021 0.6236
C47_3 C 0.1813(3) 0.3427(4) 0.63247(16)
C48_3 C 0.1598(3) 0.3115(4) 0.70833(17)
H40_3 H 0.2597 0.6153 0.7941
O19_3 O 0.10683(18) 0.4923(3) 0.89920(12)
C52_3 C 0.0341(3) 0.4892(3) 0.96441(17)
H41_3 H 0.4200 0.3867 0.6099
C55_3 C 0.1477(3) 0.4301(4) 0.63583(15)
O20_3 O 0.2084(2) 0.3142(3) 0.59310(11)
C56_3 C 0.1604(3) 0.2520(4) 0.74669(17)
C57_3 C 0.1255(3) 0.3992(4) 0.71289(16)
H43_3 H 0.0681 0.4844 0.8882
C65_3 C 0.1210(3) 0.4553(4) 0.67583(18)
C66_3 C 0.1385(4) 0.4958(4) 0.59818(18)
H45_3 H 0.2076 0.3577 0.5757
H46_3 H 0.1810 0.1935 0.7452
C67_3 C 0.1312(3) 0.2814(5) 0.7845(2)
C68_3 C 0.0966(4) 0.4257(5) 0.7540(2)
H52_3 H 0.0988 0.5126 0.6783
O22_3 O 0.1105(3) 0.5703(3) 0.60354(14)
H53_3 H 0.1322 0.2417 0.8085
C74_3 C 0.0995(4) 0.3682(6) 0.7894(2)
H54_3 H 0.0752 0.4834 0.7567
H59_3 H 0.0809 0.3864 0.8162
C16_3 C 0.3804(2) 0.7002(3) 0.01556(15)
H15_3 H 0.3677 0.7458 0.0356
C22_3 C 0.3963(2) 0.6111(3) 0.03048(16)
C31_3 C 0.4146(2) 0.5400(3) 0.00026(18)
C33_3 C 0.3926(3) 0.5887(4) 0.07585(17)
C40 C 0.4242(3) 0.4480(4) 0.0165(2)
C42_3 C 0.4031(3) 0.5022(5) 0.0906(2)
H33_3 H 0.3826 0.6356 0.0958
C49 C 0.4180(3) 0.4310(4) 0.0604(2)
H39 H 0.4006 0.4893 0.1204
H42 H 0.4237 0.3706 0.0706
O2_3 O 0.2840(2) 0.8423(3) 0.84652(12)
O4_3 O 0.4310(2) 0.8599(3) 0.83288(12)
O8_3 O 0.37855(17) 0.8420(2) 0.91896(11)
H1_3 H 0.2681 0.8082 0.8692
H2_3 H 0.3058 0.8026 0.8281
C2_3 C 0.4914(4) 0.8658(6) 0.8241(2)
C4_3 C 0.3634(2) 0.8183(3) 0.95722(16)
O15_3 O 0.33282(18) 0.8700(2) 0.98522(10)
H3_3 H 0.5113 0.9236 0.8296
N1_3 N 0.5333(3) 0.8053(4) 0.8084(3)
C7_3 C 0.3832(2) 0.7220(3) 0.97132(15)
C11_3 C 0.6078(4) 0.8165(9) 0.8003(4)
C12_3 C 0.5125(6) 0.7073(6) 0.8095(4)
C15_3 C 0.4041(2) 0.6523(3) 0.94195(15)
H8_3 H 0.6260 0.8645 0.8190
H9_3 H 0.6315 0.7591 0.8064
H10_3 H 0.6152 0.8334 0.7703
H11_3 H 0.5008 0.6871 0.7804
H12_3 H 0.5505 0.6706 0.8205
H13_3 H 0.4725 0.7001 0.8282
C21_3 C 0.4201(2) 0.5647(3) 0.95521(15)
O18_3 O 0.40903(19) 0.6707(2) 0.89825(10)
C32 C 0.4390(2) 0.4906(3) 0.92019(17)
H18_3 H 0.4025 0.7263 0.8940
C41_3 C 0.5111(2) 0.5018(3) 0.89840(17)
H31 H 0.4035 0.4921 0.8975
H32 H 0.4371 0.4298 0.9338
H38 H 0.4346 0.3998 0.9973
C50_3 C 0.5712(2) 0.5091(3) 0.92383(17)
C51_3 C 0.5186(3) 0.4957(4) 0.85223(16)
O21_3 O 0.56338(19) 0.5076(3) 0.96778(12)
C58_3 C 0.6386(2) 0.5177(3) 0.90447(18)
C59_3 C 0.5865(3) 0.5017(4) 0.83355(18)
C60 C 0.4606(3) 0.4847(5) 0.8228(2)
H47_3 H 0.6019 0.5111 0.9795
C69_3 C 0.6451(2) 0.5121(4) 0.85999(17)
C70_3 C 0.7027(2) 0.5259(3) 0.93186(19)
C71_3 C 0.5942(3) 0.4940(5) 0.7862(2)
C72 C 0.4722(4) 0.4757(6) 0.7783(2)
H48 H 0.4151 0.4836 0.8337
H55_3 H 0.6893 0.5154 0.8473
C75_3 C 0.5390(3) 0.4807(5) 0.7602(2)
H56_3 H 0.6386 0.4985 0.7739
H57 H 0.4342 0.4659 0.7598
H60_3 H 0.5451 0.4748 0.7301
C61_3 C 0.9684(2) 0.4883(3) 0.93796(17)
C61_4 C 0.0316(2) 0.5117(3) 0.43796(17)
H49_3 H 0.0123 0.5065 0.5229
O2_4 O 0.7160(2) 0.1577(3) 0.34652(12)
O4_4 O 0.5690(2) 0.1401(3) 0.33288(12)
O8_4 O 0.62145(17) 0.1580(2) 0.41896(11)
H1_4 H 0.7319 0.1918 0.3692
H2_4 H 0.6942 0.1974 0.3281
C2_4 C 0.5086(4) 0.1342(6) 0.3241(2)
C4_4 C 0.6366(2) 0.1817(3) 0.45722(16)
O15_4 O 0.66718(18) 0.1300(2) 0.48522(10)
H3_4 H 0.4887 0.0764 0.3296
N1_4 N 0.4667(3) 0.1947(4) 0.3084(3)
C7_4 C 0.6168(2) 0.2780(3) 0.47132(15)
C11_4 C 0.3922(4) 0.1835(9) 0.3003(4)
C12_4 C 0.4875(6) 0.2927(6) 0.3095(4)
C15_4 C 0.5959(2) 0.3477(3) 0.44195(15)
C16_4 C 0.6196(2) 0.2998(3) 0.51556(15)
H8_4 H 0.3740 0.1355 0.3190
H9_4 H 0.3685 0.2409 0.3064
H10_4 H 0.3848 0.1666 0.2703
H11_4 H 0.4992 0.3129 0.2804
H12_4 H 0.4495 0.3294 0.3205
H13_4 H 0.5275 0.2999 0.3282
C21_4 C 0.5799(2) 0.4353(3) 0.45521(15)
O18_4 O 0.59097(19) 0.3293(2) 0.39825(10)
H15_4 H 0.6323 0.2542 0.5356
C22_4 C 0.6037(2) 0.3889(3) 0.53048(16)
C31_4 C 0.5854(2) 0.4600(3) 0.50026(18)
C32_2 C 0.5610(2) 0.5094(3) 0.42019(17)
H18_4 H 0.5975 0.2737 0.3940
C33_4 C 0.6074(3) 0.4113(4) 0.57585(17)
C40_2 C 0.5758(3) 0.5520(4) 0.5165(2)
C41_4 C 0.4889(2) 0.4982(3) 0.39840(17)
H31_2 H 0.5965 0.5079 0.3975
H32_2 H 0.5629 0.5702 0.4338
C42_4 C 0.5969(3) 0.4978(5) 0.5906(2)
H33_4 H 0.6174 0.3644 0.5958
C49_2 C 0.5820(3) 0.5690(4) 0.5604(2)
H38_2 H 0.5654 0.6002 0.4973
C50_4 C 0.4288(2) 0.4909(3) 0.42383(17)
C51_4 C 0.4814(3) 0.5043(4) 0.35223(16)
H39_2 H 0.5994 0.5107 0.6204
H42_2 H 0.5763 0.6294 0.5706
O21_4 O 0.43662(19) 0.4924(3) 0.46778(12)
C58_4 C 0.3614(2) 0.4823(3) 0.40447(18)
C59_4 C 0.4135(3) 0.4983(4) 0.33355(18)
C60_2 C 0.5394(3) 0.5153(5) 0.3228(2)
H47_4 H 0.3981 0.4889 0.4795
C69_4 C 0.3549(2) 0.4879(4) 0.35999(17)
C70_4 C 0.2973(2) 0.4741(3) 0.43186(19)
C71_4 C 0.4058(3) 0.5060(5) 0.2862(2)
C72_2 C 0.5278(4) 0.5243(6) 0.2783(2)
H48_2 H 0.5849 0.5164 0.3337
H55_4 H 0.3107 0.4846 0.3473
C75_4 C 0.4610(3) 0.5193(5) 0.2602(2)
H56_4 H 0.3614 0.5015 0.2739
H57_2 H 0.5658 0.5341 0.2598
H60_4 H 0.4549 0.5252 0.2301
O3_4 O 0.66678(18) 0.8839(2) 0.38426(11)
O6_4 O 0.69032(19) 0.9909(3) 0.30225(12)
O7_4 O 0.58231(18) 0.9469(3) 0.31451(11)
C1_4 C 0.6951(2) 0.8297(3) 0.41049(16)
C3_4 C 0.6357(3) 0.9437(3) 0.29143(17)
O11_3 O 0.6283(2) 0.8529(3) 0.52721(12)
O12_4 O 0.71057(18) 0.8515(2) 0.45031(11)
O13_3 O 0.7698(2) 0.9075(4) 0.53909(14)
C5_4 C 0.7119(2) 0.7340(3) 0.39520(16)
C6_4 C 0.6386(2) 0.8821(3) 0.25214(16)
H4_3 H 0.5974 0.8314 0.5093
H5_3 H 0.6570 0.8088 0.5339
C8_3 C 0.7970(4) 0.8357(6) 0.5496(2)
C9_4 C 0.7333(2) 0.6620(3) 0.42473(17)
C10_4 C 0.7038(3) 0.7137(4) 0.35160(17)
C13_4 C 0.5820(3) 0.8269(4) 0.24328(17)
C14_4 C 0.6991(3) 0.8791(4) 0.22374(16)
N2_3 N 0.8543(4) 0.8233(5) 0.5701(3)
H6_3 H 0.7731 0.7820 0.5418
O16_4 O 0.7406(2) 0.6792(3) 0.46896(11)
C17_4 C 0.7481(2) 0.5729(3) 0.41073(17)
H7_4 H 0.6889 0.7599 0.3325
C18_4 C 0.7176(2) 0.6236(3) 0.33530(17)
C19_4 C 0.5824(3) 0.7652(4) 0.20673(18)
H14_4 H 0.5428 0.8296 0.2613
O17_4 O 0.7525(2) 0.9377(3) 0.23193(12)
C20_4 C 0.7035(3) 0.8160(4) 0.19017(15)
C23_3 C 0.8924(6) 0.9045(8) 0.5844(4)
C24_3 C 0.8868(6) 0.7347(8) 0.5775(4)
H16_4 H 0.7580 0.7307 0.4725
C25_4 C 0.7384(2) 0.5524(3) 0.36493(19)
C26_4 C 0.7681(3) 0.5001(3) 0.44411(17)
C27_4 C 0.7081(3) 0.6057(4) 0.29045(18)
C28_4 C 0.5227(4) 0.7154(5) 0.1956(2)
C29_4 C 0.6435(3) 0.7611(4) 0.17974(17)
H17_4 H 0.7453 0.9651 0.2550
C30_4 C 0.7712(3) 0.8070(4) 0.16358(17)
H19_3 H 0.8607 0.9560 0.5871
H20_3 H 0.9136 0.8922 0.6123
H21_3 H 0.9281 0.9193 0.5635
H22_3 H 0.8996 0.7075 0.5500
H23_3 H 0.9280 0.7429 0.5951
H24_3 H 0.8546 0.6945 0.5925
C34_4 C 0.7473(3) 0.4613(4) 0.3466(2)
C35_4 C 0.8367(3) 0.5094(3) 0.46767(18)
H25_4 H 0.7680 0.4403 0.4294
H26_4 H 0.7313 0.4982 0.4660
H27_4 H 0.6947 0.6530 0.2715
C36_4 C 0.7188(3) 0.5178(5) 0.2753(2)
C37_4 C 0.5215(4) 0.6593(5) 0.1593(2)
H28_4 H 0.4829 0.7201 0.2131
C38_4 C 0.6395(3) 0.7024(5) 0.14240(18)
C39_4 C 0.8099(3) 0.7169(4) 0.16891(16)
H29_4 H 0.7599 0.8149 0.1328
H30_4 H 0.8023 0.8573 0.1718
H34_4 H 0.7610 0.4127 0.3648
C43_4 C 0.7364(4) 0.4451(5) 0.3046(2)
C44_4 C 0.8988(2) 0.5103(3) 0.44395(16)
C45_3 C 0.8423(2) 0.5055(4) 0.51431(18)
H35_4 H 0.7145 0.5054 0.2455
C46_4 C 0.5805(4) 0.6530(5) 0.1339(2)
H36_4 H 0.4813 0.6261 0.1521
H37_4 H 0.6777 0.6979 0.1236
C47_4 C 0.8187(3) 0.6573(4) 0.13247(16)
C48_4 C 0.8402(3) 0.6885(4) 0.20833(17)
H40_4 H 0.7403 0.3847 0.2941
O19_4 O 0.89317(18) 0.5077(3) 0.39920(12)
C52_4 C 0.9659(3) 0.5108(3) 0.46441(17)
C53_3 C 0.9098(3) 0.5035(4) 0.53489(15)
C54_3 C 0.7825(3) 0.5013(5) 0.5430(2)
H41_4 H 0.5800 0.6133 0.1099
C55_4 C 0.8523(3) 0.5699(4) 0.13583(15)
O20_4 O 0.7916(2) 0.6858(3) 0.09310(11)
C56_4 C 0.8396(3) 0.7480(4) 0.24669(17)
C57_4 C 0.8745(3) 0.6008(4) 0.21289(16)
H43_4 H 0.9319 0.5156 0.3882
C62_3 C 0.9687(3) 0.5069(4) 0.50935(16)
C63_2 C 0.9138(4) 0.4946(6) 0.58136(18)
H44_3 H 0.7377 0.5044 0.5311
C64_2 C 0.7896(4) 0.4930(6) 0.5861(3)
C65_4 C 0.8790(3) 0.5447(4) 0.17583(18)
C66_4 C 0.8615(4) 0.5042(4) 0.09818(18)
H45_4 H 0.7924 0.6423 0.0757
H46_4 H 0.8190 0.8065 0.2452
C67_4 C 0.8688(3) 0.7186(5) 0.2845(2)
C68_4 C 0.9034(4) 0.5743(5) 0.2540(2)
H50_2 H 0.9574 0.4926 0.5948
C73_2 C 0.8546(4) 0.4889(6) 0.6065(2)
H51_2 H 0.7494 0.4899 0.6033
H52_4 H 0.9012 0.4874 0.1783
O22_4 O 0.8895(3) 0.4297(3) 0.10354(14)
H53_4 H 0.8678 0.7583 0.3085
C74_4 C 0.9005(4) 0.6318(6) 0.2894(2)
H54_4 H 0.9248 0.5166 0.2567
H58_2 H 0.8578 0.4823 0.6367
H59_4 H 0.9191 0.6136 0.3162
C32_3 C 0.0610(2) 0.9906(3) 0.42019(17)
C40_3 C 0.0758(3) 0.9480(4) 0.5165(2)
H31_3 H 0.0965 0.9921 0.3975
H32_3 H 0.0629 0.9298 0.4338
C49_3 C 0.0820(3) 0.9310(4) 0.5604(2)
H38_3 H 0.0654 0.8998 0.4973
H39_3 H 0.0994 0.9893 0.6204
H42_3 H 0.0763 0.8706 0.5706
C60_3 C 0.0394(3) 0.9847(5) 0.3228(2)
C72_3 C 0.0278(4) 0.9757(6) 0.2783(2)
H48_3 H 0.0849 0.9836 0.3337
H57_3 H 0.0658 0.9659 0.2598
C40_4 C 0.9242(3) 0.0520(4) 0.0165(2)
C49_4 C 0.9180(3) 0.0690(4) 0.0604(2)
H39_4 H 0.9006 0.0107 0.1204
H42_4 H 0.9237 0.1294 0.0706
C32_4 C 0.9390(2) 0.0094(3) 0.92019(17)
H31_4 H 0.9035 0.0079 0.8975
H32_4 H 0.9371 0.0702 0.9338
H38_4 H 0.9346 0.1002 0.9973
C60_4 C 0.9606(3) 0.0153(5) 0.8228(2)
C72_4 C 0.9722(4) 0.0243(6) 0.7783(2)
H48_4 H 0.9151 0.0164 0.8337
H57_4 H 0.9342 0.0341 0.7598
C63_3 C 0.5862(4) 0.9946(6) 0.08136(18)
C64_3 C 0.7104(4) 0.9930(6) 0.0861(3)
H50_3 H 0.5426 0.9926 0.0948
C73_3 C 0.6454(4) 0.9889(6) 0.1065(2)
H51_3 H 0.7506 0.9899 0.1033
H58_3 H 0.6422 0.9823 0.1367
O11_4 O 0.3717(2) 0.1471(3) 0.02721(12)
O13_4 O 0.2302(2) 0.0925(4) 0.03909(14)
H4_4 H 0.4026 0.1686 0.0093
H5_4 H 0.3430 0.1912 0.0339
C8_4 C 0.2030(4) 0.1643(6) 0.0496(2)
N2_4 N 0.1457(4) 0.1767(5) 0.0701(3)
H6_4 H 0.2269 0.2180 0.0418
C23_4 C 0.1076(6) 0.0955(8) 0.0844(4)
C24_4 C 0.1132(6) 0.2653(8) 0.0775(4)
H19_4 H 0.1393 0.0440 0.0871
H20_4 H 0.0864 0.1078 0.1123
H21_4 H 0.0719 0.0807 0.0635
H22_4 H 0.1004 0.2925 0.0500
H23_4 H 0.0720 0.2571 0.0951
H24_4 H 0.1454 0.3055 0.0925
C45_4 C 0.1577(2) 0.4945(4) 0.01431(18)
C53_4 C 0.0902(3) 0.4965(4) 0.03489(15)
C54_4 C 0.2175(3) 0.4987(5) 0.0430(2)
C62_4 C 0.0313(3) 0.4931(4) 0.00935(16)
C63_4 C 0.0862(4) 0.5054(6) 0.08136(18)
H44_4 H 0.2623 0.4956 0.0311
C64_4 C 0.2104(4) 0.5070(6) 0.0861(3)
H50_4 H 0.0426 0.5074 0.0948
C73_4 C 0.1454(4) 0.5111(6) 0.1065(2)
H51_4 H 0.2506 0.5101 0.1033
H58_4 H 0.1422 0.5177 0.1367
H49_4 H 0.9877 0.4935 0.0229
loop_
_geom_bond_atom_site_label_1
_geom_bond_atom_site_label_2
_geom_bond_site_symmetry_1
_geom_bond_site_symmetry_2
H34 C34 1_555 1_555
C43 C34 1_555 1_555
H40 C43 1_555 1_555
H50 C63 1_555 1_555
C73 C63 1_555 1_555
H51 C64 1_555 1_555
H58 C73 1_555 1_555
Yb4 O24 1_555 1_555
C64 C73 1_555 1_555
Yb1 O1 1_555 1_555
O1 Yb2 1_555 1_555
O2 Yb1 1_555 1_555
O3 Yb1 1_555 1_555
O4 Yb1 1_555 1_555
O5 Yb1 1_555 1_555
O6 Yb1 1_555 1_555
O7 Yb1 1_555 1_555
O8 Yb1 1_555 1_555
Yb2 O9 1_555 1_555
H1 O2 1_555 1_555
H2 O2 1_555 1_555
C1 O3 1_555 1_555
C2 O4 1_555 1_555
C3 O6 1_555 1_555
C4 O8 1_555 1_555
O10 Yb2 1_555 1_555
O11 Yb2 1_555 1_555
O12 Yb2 1_555 1_555
O13 Yb2 1_555 1_555
O14 Yb2 1_555 1_555
O15 Yb2 1_555 1_555
C5 C1 1_555 1_555
C6 C3 1_555 1_555
C7 C4 1_555 1_555
H4 O11 1_555 1_555
H5 O11 1_555 1_555
C8 O13 1_555 1_555
C9 C5 1_555 1_555
C10 C5 1_555 1_555
C13 C6 1_555 1_555
C14 C6 1_555 1_555
C15 C7 1_555 1_555
C16 C7 1_555 1_555
N2 C8 1_555 1_555
H6 C8 1_555 1_555
O16 C9 1_555 1_555
C17 C9 1_555 1_555
H7 C10 1_555 1_555
C18 C10 1_555 1_555
C19 C13 1_555 1_555
H14 C13 1_555 1_555
O17 C14 1_555 1_555
C20 C14 1_555 1_555
C21 C15 1_555 1_555
O18 C15 1_555 1_555
H15 C16 1_555 1_555
C22 C16 1_555 1_555
C23 N2 1_555 1_555
C24 N2 1_555 1_555
H16 O16 1_555 1_555
C25 C17 1_555 1_555
C26 C17 1_555 1_555
C27 C18 1_555 1_555
C28 C19 1_555 1_555
C29 C19 1_555 1_555
H17 O17 1_555 1_555
C30 C20 1_555 1_555
C31 C21 1_555 1_555
H18 O18 1_555 1_555
C33 C22 1_555 1_555
H19 C23 1_555 1_555
H20 C23 1_555 1_555
H21 C23 1_555 1_555
H22 C24 1_555 1_555
H23 C24 1_555 1_555
H24 C24 1_555 1_555
C35 C26 1_555 1_555
H27 C27 1_555 1_555
C36 C27 1_555 1_555
C37 C28 1_555 1_555
C38 C29 1_555 1_555
C39 C30 1_555 1_555
H29 C30 1_555 1_555
H30 C30 1_555 1_555
C42 C33 1_555 1_555
H33 C33 1_555 1_555
C44 C35 1_555 1_555
C45 C35 1_555 1_555
H35 C36 1_555 1_555
C46 C37 1_555 1_555
H37 C38 1_555 1_555
C47 C39 1_555 1_555
C48 C39 1_555 1_555
O19 C44 1_555 1_555
C52 C44 1_555 1_555
C53 C45 1_555 1_555
C54 C45 1_555 1_555
H41 C46 1_555 1_555
C55 C47 1_555 1_555
O20 C47 1_555 1_555
C56 C48 1_555 1_555
C57 C48 1_555 1_555
H43 O19 1_555 1_555
C61 C52 1_555 1_555
C62 C52 1_555 1_555
H44 C54 1_555 1_555
C65 C55 1_555 1_555
C66 C55 1_555 1_555
H45 O20 1_555 1_555
H46 C56 1_555 1_555
C67 C56 1_555 1_555
C68 C57 1_555 1_555
H49 C62 1_555 1_555
H53 C67 1_555 1_555
C74 C67 1_555 1_555
H54 C68 1_555 1_555
H59 C74 1_555 1_555
O23 C61 1_555 1_555
O25 C66 1_555 1_555
Yb3 O23 1_555 1_555
O7 C3 1_555 1_555
C1 O12 1_555 1_555
C4 O15 1_555 1_555
C18 C25 1_555 1_555
C20 C29 1_555 1_555
C22 C31 1_555 1_555
C38 C46 1_555 1_555
C53 C62 1_555 1_555
C57 C65 1_555 1_555
C68 C74 1_555 1_555
C11 N1 1_555 1_555
C12 N1 1_555 1_555
H8 C11 1_555 1_555
H9 C11 1_555 1_555
H10 C11 1_555 1_555
H11 C12 1_555 1_555
H12 C12 1_555 1_555
C50 C41 1_555 1_555
O21 C50 1_555 1_555
C58 C50 1_555 1_555
H47 O21 1_555 1_555
C69 C58 1_555 1_555
C70 C58 1_555 1_555
H55 C69 1_555 1_555
O26 C70 1_555 1_555
O27 C70 1_555 1_555
Yb4 O26 1_555 1_555
C59 C69 1_555 1_555
C75 C71 1_555 1_555
H56 C71 1_555 1_555
H60 C75 1_555 1_555
C75_2 C71_2 1_555 1_555
H56_2 C71_2 1_555 1_555
H60_2 C75_2 1_555 1_555
C11_2 N1_2 1_555 1_555
C12_2 N1_2 1_555 1_555
H8_2 C11_2 1_555 1_555
H9_2 C11_2 1_555 1_555
H10_2 C11_2 1_555 1_555
H11_2 C12_2 1_555 1_555
H12_2 C12_2 1_555 1_555
C50_2 C41_2 1_555 1_555
O21_2 C50_2 1_555 1_555
C58_2 C50_2 1_555 1_555
H47_2 O21_2 1_555 1_555
C69_2 C58_2 1_555 1_555
C70_2 C58_2 1_555 1_555
H55_2 C69_2 1_555 1_555
O26_2 C70_2 1_555 1_555
O27_2 C70_2 1_555 1_555
Yb7 O26_2 1_555 1_555
C59_2 C69_2 1_555 1_555
H4_2 O11_2 1_555 1_555
H5_2 O11_2 1_555 1_555
C8_2 O13_2 1_555 1_555
N2_2 C8_2 1_555 1_555
H6_2 C8_2 1_555 1_555
H15_2 C16_2 1_555 1_555
C22_2 C16_2 1_555 1_555
C23_2 N2_2 1_555 1_555
C24_2 N2_2 1_555 1_555
C33_2 C22_2 1_555 1_555
H19_2 C23_2 1_555 1_555
H20_2 C23_2 1_555 1_555
H21_2 C23_2 1_555 1_555
H22_2 C24_2 1_555 1_555
H23_2 C24_2 1_555 1_555
H24_2 C24_2 1_555 1_555
C42_2 C33_2 1_555 1_555
H33_2 C33_2 1_555 1_555
C53_2 C45_2 1_555 1_555
C54_2 C45_2 1_555 1_555
H44_2 C54_2 1_555 1_555
H49_2 C62_2 1_555 1_555
C22_2 C31_2 1_555 1_555
C53_2 C62_2 1_555 1_555
Yb1_2 O1_2 1_555 1_555
O1_2 Yb2_2 1_555 1_555
O2_2 Yb1_2 1_555 1_555
O3_2 Yb1_2 1_555 1_555
O4_2 Yb1_2 1_555 1_555
O5_2 Yb1_2 1_555 1_555
O6_2 Yb1_2 1_555 1_555
O7_2 Yb1_2 1_555 1_555
O8_2 Yb1_2 1_555 1_555
H1_2 O2_2 1_555 1_555
H2_2 O2_2 1_555 1_555
C1_2 O3_2 1_555 1_555
C2_2 O4_2 1_555 1_555
C3_2 O6_2 1_555 1_555
C4_2 O8_2 1_555 1_555
O10_2 Yb2_2 1_555 1_555
O12_2 Yb2_2 1_555 1_555
O14_2 Yb2_2 1_555 1_555
O15_2 Yb2_2 1_555 1_555
C5_2 C1_2 1_555 1_555
C6_2 C3_2 1_555 1_555
C7_2 C4_2 1_555 1_555
C9_2 C5_2 1_555 1_555
C10_2 C5_2 1_555 1_555
C13_2 C6_2 1_555 1_555
C14_2 C6_2 1_555 1_555
C15_2 C7_2 1_555 1_555
O16_2 C9_2 1_555 1_555
C17_2 C9_2 1_555 1_555
H7_2 C10_2 1_555 1_555
C18_2 C10_2 1_555 1_555
C19_2 C13_2 1_555 1_555
H14_2 C13_2 1_555 1_555
O17_2 C14_2 1_555 1_555
C20_2 C14_2 1_555 1_555
C21_2 C15_2 1_555 1_555
O18_2 C15_2 1_555 1_555
H16_2 O16_2 1_555 1_555
C25_2 C17_2 1_555 1_555
C26_2 C17_2 1_555 1_555
C27_2 C18_2 1_555 1_555
C28_2 C19_2 1_555 1_555
C29_2 C19_2 1_555 1_555
H17_2 O17_2 1_555 1_555
C30_2 C20_2 1_555 1_555
H18_2 O18_2 1_555 1_555
C35_2 C26_2 1_555 1_555
H27_2 C27_2 1_555 1_555
C36_2 C27_2 1_555 1_555
C37_2 C28_2 1_555 1_555
C38_2 C29_2 1_555 1_555
C39_2 C30_2 1_555 1_555
H29_2 C30_2 1_555 1_555
H30_2 C30_2 1_555 1_555
C44_2 C35_2 1_555 1_555
H35_2 C36_2 1_555 1_555
C46_2 C37_2 1_555 1_555
H37_2 C38_2 1_555 1_555
C47_2 C39_2 1_555 1_555
C48_2 C39_2 1_555 1_555
O19_2 C44_2 1_555 1_555
C52_2 C44_2 1_555 1_555
H41_2 C46_2 1_555 1_555
C55_2 C47_2 1_555 1_555
O20_2 C47_2 1_555 1_555
C56_2 C48_2 1_555 1_555
C57_2 C48_2 1_555 1_555
H43_2 O19_2 1_555 1_555
C61_2 C52_2 1_555 1_555
C65_2 C55_2 1_555 1_555
C66_2 C55_2 1_555 1_555
H45_2 O20_2 1_555 1_555
H46_2 C56_2 1_555 1_555
C67_2 C56_2 1_555 1_555
C68_2 C57_2 1_555 1_555
H53_2 C67_2 1_555 1_555
C74_2 C67_2 1_555 1_555
H54_2 C68_2 1_555 1_555
H59_2 C74_2 1_555 1_555
O23_2 C61_2 1_555 1_555
O25_2 C66_2 1_555 1_555
Yb5 O23_2 1_555 1_555
O7_2 C3_2 1_555 1_555
C1_2 O12_2 1_555 1_555
C4_2 O15_2 1_555 1_555
C18_2 C25_2 1_555 1_555
C20_2 C29_2 1_555 1_555
C38_2 C46_2 1_555 1_555
C57_2 C65_2 1_555 1_555
C68_2 C74_2 1_555 1_555
H34_2 C34_2 1_555 1_555
C43_2 C34_2 1_555 1_555
H40_2 C43_2 1_555 1_555
Yb7 O24_2 1_555 1_555
C1_3 O3_3 1_555 1_555
C3_3 O6_3 1_555 1_555
O12_3 Yb5 1_555 1_555
C5_3 C1_3 1_555 1_555
C6_3 C3_3 1_555 1_555
C9_3 C5_3 1_555 1_555
C10_3 C5_3 1_555 1_555
C13_3 C6_3 1_555 1_555
C14_3 C6_3 1_555 1_555
O16_3 C9_3 1_555 1_555
C17_3 C9_3 1_555 1_555
H7_3 C10_3 1_555 1_555
C18_3 C10_3 1_555 1_555
C19_3 C13_3 1_555 1_555
H14_3 C13_3 1_555 1_555
O17_3 C14_3 1_555 1_555
C20_3 C14_3 1_555 1_555
H16_3 O16_3 1_555 1_555
C25_3 C17_3 1_555 1_555
C26_3 C17_3 1_555 1_555
C27_3 C18_3 1_555 1_555
C28_3 C19_3 1_555 1_555
C29_3 C19_3 1_555 1_555
H17_3 O17_3 1_555 1_555
C30_3 C20_3 1_555 1_555
C34_3 C25_3 1_555 1_555
C35_3 C26_3 1_555 1_555
H25_3 C26_3 1_555 1_555
H26_3 C26_3 1_555 1_555
H27_3 C27_3 1_555 1_555
C36_3 C27_3 1_555 1_555
C37_3 C28_3 1_555 1_555
H28_3 C28_3 1_555 1_555
C38_3 C29_3 1_555 1_555
C39_3 C30_3 1_555 1_555
H29_3 C30_3 1_555 1_555
H30_3 C30_3 1_555 1_555
H34_3 C34_3 1_555 1_555
C43_3 C34_3 1_555 1_555
C44_3 C35_3 1_555 1_555
H35_3 C36_3 1_555 1_555
C46_3 C37_3 1_555 1_555
H36_3 C37_3 1_555 1_555
H37_3 C38_3 1_555 1_555
C47_3 C39_3 1_555 1_555
C48_3 C39_3 1_555 1_555
H40_3 C43_3 1_555 1_555
O19_3 C44_3 1_555 1_555
C52_3 C44_3 1_555 1_555
H41_3 C46_3 1_555 1_555
C55_3 C47_3 1_555 1_555
O20_3 C47_3 1_555 1_555
C56_3 C48_3 1_555 1_555
C57_3 C48_3 1_555 1_555
H43_3 O19_3 1_555 1_555
C65_3 C55_3 1_555 1_555
C66_3 C55_3 1_555 1_555
H45_3 O20_3 1_555 1_555
H46_3 C56_3 1_555 1_555
C67_3 C56_3 1_555 1_555
C68_3 C57_3 1_555 1_555
H52_3 C65_3 1_555 1_555
O22_3 C66_3 1_555 1_555
H53_3 C67_3 1_555 1_555
C74_3 C67_3 1_555 1_555
H54_3 C68_3 1_555 1_555
H59_3 C74_3 1_555 1_555
O9 C66_3 1_555 1_555
O7_3 C3_3 1_555 1_555
C1_3 O12_3 1_555 1_555
C18_3 C25_3 1_555 1_555
C20_3 C29_3 1_555 1_555
C36_3 C43_3 1_555 1_555
C38_3 C46_3 1_555 1_555
C57_3 C65_3 1_555 1_555
C68_3 C74_3 1_555 1_555
H15_3 C16_3 1_555 1_555
C22_3 C16_3 1_555 1_555
C33_3 C22_3 1_555 1_555
C40 C31_3 1_555 1_555
C42_3 C33_3 1_555 1_555
H33_3 C33_3 1_555 1_555
C49 C40 1_555 1_555
H39 C42_3 1_555 1_555
H42 C49 1_555 1_555
C22_3 C31_3 1_555 1_555
C42_3 C49 1_555 1_555
O2_3 Yb7 1_555 1_555
O4_3 Yb7 1_555 1_555
O8_3 Yb7 1_555 1_555
H1_3 O2_3 1_555 1_555
H2_3 O2_3 1_555 1_555
C2_3 O4_3 1_555 1_555
C4_3 O8_3 1_555 1_555
H3_3 C2_3 1_555 1_555
N1_3 C2_3 1_555 1_555
C7_3 C4_3 1_555 1_555
C11_3 N1_3 1_555 1_555
C12_3 N1_3 1_555 1_555
C15_3 C7_3 1_555 1_555
H8_3 C11_3 1_555 1_555
H9_3 C11_3 1_555 1_555
H10_3 C11_3 1_555 1_555
H11_3 C12_3 1_555 1_555
H12_3 C12_3 1_555 1_555
H13_3 C12_3 1_555 1_555
C21_3 C15_3 1_555 1_555
O18_3 C15_3 1_555 1_555
C32 C21_3 1_555 1_555
H18_3 O18_3 1_555 1_555
C41_3 C32 1_555 1_555
H31 C32 1_555 1_555
H32 C32 1_555 1_555
C50_3 C41_3 1_555 1_555
C51_3 C41_3 1_555 1_555
O21_3 C50_3 1_555 1_555
C58_3 C50_3 1_555 1_555
C59_3 C51_3 1_555 1_555
C60 C51_3 1_555 1_555
H47_3 O21_3 1_555 1_555
C69_3 C58_3 1_555 1_555
C70_3 C58_3 1_555 1_555
C71_3 C59_3 1_555 1_555
C72 C60 1_555 1_555
H48 C60 1_555 1_555
H55_3 C69_3 1_555 1_555
C75_3 C71_3 1_555 1_555
H56_3 C71_3 1_555 1_555
H57 C72 1_555 1_555
H60_3 C75_3 1_555 1_555
O1_2 C70_3 1_555 1_555
O10_2 C70_3 1_555 1_555
C4_3 O15_3 1_555 1_555
C59_3 C69_3 1_555 1_555
C72 C75_3 1_555 1_555
O14_2 C61_3 1_555 1_555
O5_2 C61_3 1_555 1_555
O14 C61_4 1_555 1_555
O5 C61_4 1_555 1_555
O2_4 Yb4 1_555 1_555
O4_4 Yb4 1_555 1_555
O8_4 Yb4 1_555 1_555
H1_4 O2_4 1_555 1_555
H2_4 O2_4 1_555 1_555
C2_4 O4_4 1_555 1_555
C4_4 O8_4 1_555 1_555
H3_4 C2_4 1_555 1_555
N1_4 C2_4 1_555 1_555
C7_4 C4_4 1_555 1_555
C11_4 N1_4 1_555 1_555
C12_4 N1_4 1_555 1_555
C15_4 C7_4 1_555 1_555
C16_4 C7_4 1_555 1_555
H8_4 C11_4 1_555 1_555
H9_4 C11_4 1_555 1_555
H10_4 C11_4 1_555 1_555
H11_4 C12_4 1_555 1_555
H12_4 C12_4 1_555 1_555
H13_4 C12_4 1_555 1_555
C21_4 C15_4 1_555 1_555
O18_4 C15_4 1_555 1_555
H15_4 C16_4 1_555 1_555
C22_4 C16_4 1_555 1_555
C31_4 C21_4 1_555 1_555
C32_2 C21_4 1_555 1_555
H18_4 O18_4 1_555 1_555
C33_4 C22_4 1_555 1_555
C40_2 C31_4 1_555 1_555
C41_4 C32_2 1_555 1_555
H31_2 C32_2 1_555 1_555
H32_2 C32_2 1_555 1_555
C42_4 C33_4 1_555 1_555
H33_4 C33_4 1_555 1_555
C49_2 C40_2 1_555 1_555
H38_2 C40_2 1_555 1_555
C50_4 C41_4 1_555 1_555
C51_4 C41_4 1_555 1_555
H39_2 C42_4 1_555 1_555
H42_2 C49_2 1_555 1_555
O21_4 C50_4 1_555 1_555
C58_4 C50_4 1_555 1_555
C59_4 C51_4 1_555 1_555
C60_2 C51_4 1_555 1_555
H47_4 O21_4 1_555 1_555
C69_4 C58_4 1_555 1_555
C70_4 C58_4 1_555 1_555
C71_4 C59_4 1_555 1_555
C72_2 C60_2 1_555 1_555
H48_2 C60_2 1_555 1_555
H55_4 C69_4 1_555 1_555
C75_4 C71_4 1_555 1_555
H56_4 C71_4 1_555 1_555
H57_2 C72_2 1_555 1_555
H60_4 C75_4 1_555 1_555
O1 C70_4 1_555 1_555
O10 C70_4 1_555 1_555
C4_4 O15_4 1_555 1_555
C22_4 C31_4 1_555 1_555
C42_4 C49_2 1_555 1_555
C59_4 C69_4 1_555 1_555
C72_2 C75_4 1_555 1_555
C1_4 O3_4 1_555 1_555
C3_4 O6_4 1_555 1_555
O11_3 Yb3 1_555 1_555
O12_4 Yb3 1_555 1_555
O13_3 Yb3 1_555 1_555
C5_4 C1_4 1_555 1_555
C6_4 C3_4 1_555 1_555
H4_3 O11_3 1_555 1_555
H5_3 O11_3 1_555 1_555
C8_3 O13_3 1_555 1_555
C9_4 C5_4 1_555 1_555
C10_4 C5_4 1_555 1_555
C13_4 C6_4 1_555 1_555
C14_4 C6_4 1_555 1_555
N2_3 C8_3 1_555 1_555
H6_3 C8_3 1_555 1_555
O16_4 C9_4 1_555 1_555
C17_4 C9_4 1_555 1_555
H7_4 C10_4 1_555 1_555
C18_4 C10_4 1_555 1_555
C19_4 C13_4 1_555 1_555
H14_4 C13_4 1_555 1_555
O17_4 C14_4 1_555 1_555
C20_4 C14_4 1_555 1_555
C23_3 N2_3 1_555 1_555
C24_3 N2_3 1_555 1_555
H16_4 O16_4 1_555 1_555
C25_4 C17_4 1_555 1_555
C26_4 C17_4 1_555 1_555
C27_4 C18_4 1_555 1_555
C28_4 C19_4 1_555 1_555
C29_4 C19_4 1_555 1_555
H17_4 O17_4 1_555 1_555
C30_4 C20_4 1_555 1_555
H19_3 C23_3 1_555 1_555
H20_3 C23_3 1_555 1_555
H21_3 C23_3 1_555 1_555
H22_3 C24_3 1_555 1_555
H23_3 C24_3 1_555 1_555
H24_3 C24_3 1_555 1_555
C34_4 C25_4 1_555 1_555
C35_4 C26_4 1_555 1_555
H25_4 C26_4 1_555 1_555
H26_4 C26_4 1_555 1_555
H27_4 C27_4 1_555 1_555
C36_4 C27_4 1_555 1_555
C37_4 C28_4 1_555 1_555
H28_4 C28_4 1_555 1_555
C38_4 C29_4 1_555 1_555
C39_4 C30_4 1_555 1_555
H29_4 C30_4 1_555 1_555
H30_4 C30_4 1_555 1_555
H34_4 C34_4 1_555 1_555
C43_4 C34_4 1_555 1_555
C44_4 C35_4 1_555 1_555
C45_3 C35_4 1_555 1_555
H35_4 C36_4 1_555 1_555
C46_4 C37_4 1_555 1_555
H36_4 C37_4 1_555 1_555
H37_4 C38_4 1_555 1_555
C47_4 C39_4 1_555 1_555
C48_4 C39_4 1_555 1_555
H40_4 C43_4 1_555 1_555
O19_4 C44_4 1_555 1_555
C52_4 C44_4 1_555 1_555
C53_3 C45_3 1_555 1_555
C54_3 C45_3 1_555 1_555
H41_4 C46_4 1_555 1_555
C55_4 C47_4 1_555 1_555
O20_4 C47_4 1_555 1_555
C56_4 C48_4 1_555 1_555
C57_4 C48_4 1_555 1_555
H43_4 O19_4 1_555 1_555
C62_3 C52_4 1_555 1_555
C63_2 C53_3 1_555 1_555
H44_3 C54_3 1_555 1_555
C64_2 C54_3 1_555 1_555
C65_4 C55_4 1_555 1_555
C66_4 C55_4 1_555 1_555
H45_4 O20_4 1_555 1_555
H46_4 C56_4 1_555 1_555
C67_4 C56_4 1_555 1_555
C68_4 C57_4 1_555 1_555
H50_2 C63_2 1_555 1_555
C73_2 C63_2 1_555 1_555
H51_2 C64_2 1_555 1_555
H52_4 C65_4 1_555 1_555
O22_4 C66_4 1_555 1_555
H53_4 C67_4 1_555 1_555
C74_4 C67_4 1_555 1_555
H54_4 C68_4 1_555 1_555
H58_2 C73_2 1_555 1_555
H59_4 C74_4 1_555 1_555
O9_2 C66_4 1_555 1_555
O7_4 C3_4 1_555 1_555
C1_4 O12_4 1_555 1_555
C18_4 C25_4 1_555 1_555
C20_4 C29_4 1_555 1_555
C36_4 C43_4 1_555 1_555
C38_4 C46_4 1_555 1_555
C53_3 C62_3 1_555 1_555
C57_4 C65_4 1_555 1_555
C64_2 C73_2 1_555 1_555
C68_4 C74_4 1_555 1_555
H31_3 C32_3 1_555 1_555
H32_3 C32_3 1_555 1_555
C49_3 C40_3 1_555 1_555
H38_3 C40_3 1_555 1_555
H42_3 C49_3 1_555 1_555
C72_3 C60_3 1_555 1_555
H48_3 C60_3 1_555 1_555
H57_3 C72_3 1_555 1_555
C49_4 C40_4 1_555 1_555
H42_4 C49_4 1_555 1_555
H31_4 C32_4 1_555 1_555
H32_4 C32_4 1_555 1_555
C72_4 C60_4 1_555 1_555
H48_4 C60_4 1_555 1_555
H57_4 C72_4 1_555 1_555
H50_3 C63_3 1_555 1_555
C73_3 C63_3 1_555 1_555
H51_3 C64_3 1_555 1_555
H58_3 C73_3 1_555 1_555
C64_3 C73_3 1_555 1_555
H4_4 O11_4 1_555 1_555
H5_4 O11_4 1_555 1_555
C8_4 O13_4 1_555 1_555
N2_4 C8_4 1_555 1_555
H6_4 C8_4 1_555 1_555
C23_4 N2_4 1_555 1_555
C24_4 N2_4 1_555 1_555
H19_4 C23_4 1_555 1_555
H20_4 C23_4 1_555 1_555
H21_4 C23_4 1_555 1_555
H22_4 C24_4 1_555 1_555
H23_4 C24_4 1_555 1_555
H24_4 C24_4 1_555 1_555
C53_4 C45_4 1_555 1_555
C54_4 C45_4 1_555 1_555
C63_4 C53_4 1_555 1_555
H44_4 C54_4 1_555 1_555
C64_4 C54_4 1_555 1_555
H50_4 C63_4 1_555 1_555
C73_4 C63_4 1_555 1_555
H51_4 C64_4 1_555 1_555
H58_4 C73_4 1_555 1_555
C53_4 C62_4 1_555 1_555
C64_4 C73_4 1_555 1_555

#END
