
###############################################################################
#
# This file contains modified crystal structure data generated from the
# MOF subset of the Cambridge Structural Database (CSD) v543 
# hosted by the Cambridge Crystallographic Data Centre (CCDC).
#
# This work is licensed under the Creative Commons
# Attribution-NonCommercial-ShareAlike 4.0 International License.
# To view a copy of this license, visit
# http://creativecommons.org/licenses/by-nc-sa/4.0/
# or send a letter to
# Creative Commons, PO Box 1866, Mountain View, CA 94042, USA.
#
# CIF created using the CSD Python API on 29 September 2022
# The structure has been converted into the P1 space group
# The structure has a 3D framework
# The original CSD entry ROYRII is in the orthorhombic crystal system
# The framework has been calculated to contain at least 10.0% void space
# The void calculation uses a probe of radius 1.32A, grid spacing 0.4
#
###############################################################################

data_ROYRII
_chemical_formula_moiety         '(C300 H240 Er8 N8 O86)n'
_symmetry_cell_setting           triclinic
_symmetry_space_group_name_H-M   'P 1'
_symmetry_Int_Tables_number      1
_space_group_name_Hall           'P 1'
loop_
_symmetry_equiv_pos_site_id
_symmetry_equiv_pos_as_xyz
1 x,y,z
_cell_length_a                   19.0983(3)
_cell_length_b                   14.4221(3)
_cell_length_c                   30.5560(10)
_cell_angle_alpha                90
_cell_angle_beta                 90
_cell_angle_gamma                90
_cell_volume                     8416.27
loop_
_atom_site_label
_atom_site_type_symbol
_atom_site_fract_x
_atom_site_fract_y
_atom_site_fract_z
O18 O 0.3889(3) 0.0707(4) 0.01329(19)
Er5 Er 0.312153(12) 0.024188(15) 0.123267(10)
O8 O 0.52714(19) 0.0017(3) 0.72169(15)
C30 C 0.2665(3) 0.0005(4) 0.6739(2)
C42 C 0.2452(4) 0.0392(5) 0.7713(3)
H23 H 0.2657 0.0603 0.6884
H24 H 0.2297 0.0012 0.6521
H28 H 0.4010 0.0128 0.9387
C51 C 0.2343(4) 0.0553(6) 0.8132(3)
H38 H 0.2580 0.0880 0.7531
H43 H 0.2387 0.1156 0.8236
C69 C 0.2899(4) 0.0093(6) 0.5317(3)
C70 C 0.4144(4) 0.0067(6) 0.5382(3)
H55 H 0.2497 0.0134 0.5146
C75 C 0.3561(5) 0.0146(7) 0.5109(3)
H56 H 0.4587 0.0069 0.5256
H60 H 0.3604 0.0228 0.4808
Er4 Er 0.641263(11) 0.037798(15) 0.747513(9)
O11 O 0.3390(3) 0.9670(3) 0.05599(16)
C16 C 0.3623(4) 0.9952(5) 0.0191(3)
O19 O 0.2926(2) 0.8145(3) 0.02424(15)
H41 H 0.2838 0.8602 0.0392
H44 H 0.0794 0.8853 0.0091
Er1 Er 0.141263(11) 0.462202(15) 0.747513(9)
O1 O 0.12024(19) 0.3404(3) 0.69900(14)
O2 O 0.1678(2) 0.6167(3) 0.73385(14)
O3 O 0.2166(2) 0.3410(3) 0.77101(15)
O4 O 0.0694(2) 0.3580(3) 0.78526(16)
O5 O 0.08212(19) 0.5531(3) 0.80315(15)
O6 O 0.1906(2) 0.5082(3) 0.81640(16)
C1 C 0.1355(3) 0.3171(4) 0.6602(2)
C2 C 0.1936(3) 0.6706(4) 0.7077(2)
H1 H 0.2289 0.3001 0.7489
H2 H 0.2582 0.3629 0.7820
C3 C 0.0080(4) 0.3684(6) 0.7945(3)
C4 C 0.1351(3) 0.5564(4) 0.8270(2)
Er2 Er 0.187847(12) 0.524188(15) 0.623267(10)
O9 O 0.1659(2) 0.3689(2) 0.63210(14)
C5 C 0.1165(3) 0.2199(4) 0.6458(2)
O10 O 0.2085(2) 0.6503(3) 0.66744(15)
C6 C 0.2119(3) 0.7677(4) 0.7230(2)
C7 C 0.1385(3) 0.6170(4) 0.8659(2)
O12 O 0.1262(2) 0.6468(3) 0.59038(16)
O13 O 0.2683(2) 0.5941(4) 0.5781(2)
C8 C 0.1184(3) 0.1972(4) 0.6021(2)
C9 C 0.0954(3) 0.1506(4) 0.6762(2)
C10 C 0.2035(3) 0.7864(4) 0.7664(2)
C11 C 0.2329(3) 0.8394(4) 0.6927(2)
C14 C 0.0818(3) 0.6745(5) 0.8738(2)
C15 C 0.1990(3) 0.6211(4) 0.8942(2)
H4 H 0.0912 0.6678 0.6074
H5 H 0.1067 0.6288 0.5651
C17 C 0.2942(4) 0.6661(6) 0.5689(3)
H6 H 0.1302 0.2429 0.5820
C18 C 0.1034(3) 0.1100(4) 0.5872(2)
O15 O 0.0904(2) 0.1690(3) 0.71935(14)
C19 C 0.0797(3) 0.0620(4) 0.6619(2)
H7 H 0.1887 0.7399 0.7854
C20 C 0.2175(3) 0.8778(4) 0.7830(2)
O16 O 0.2391(2) 0.8222(3) 0.64908(15)
C21 C 0.2475(2) 0.9282(4) 0.7074(2)
H9 H 0.0225 0.2006 0.7875
H14 H 0.0438 0.6747 0.8549
C22 C 0.0823(3) 0.7337(4) 0.9116(2)
C23 C 0.2036(3) 0.6836(4) 0.9281(2)
O17 O 0.2522(2) 0.5615(3) 0.88661(17)
C24 C 0.3524(3) 0.9294(5) 0.9810(2)
N2 N 0.3534(4) 0.6788(5) 0.5482(3)
H15 H 0.2699 0.7192 0.5772
C25 C 0.1072(3) 0.0892(5) 0.5418(2)
C26 C 0.0857(3) 0.0391(3) 0.6177(2)
H16 H 0.0975 0.2244 0.7236
C28 C 0.2078(3) 0.8966(5) 0.8270(2)
C29 C 0.2377(3) 0.9486(4) 0.7534(2)
H17 H 0.2506 0.7681 0.6453
C31 C 0.1439(3) 0.7386(4) 0.9378(2)
C32 C 0.0238(4) 0.7870(5) 0.9220(3)
C33 C 0.2704(3) 0.6924(4) 0.9548(2)
H18 H 0.2417 0.5270 0.8663
C34 C 0.3791(4) 0.9555(5) 0.9413(2)
C35 C 0.3187(3) 0.8420(5) 0.9852(2)
C36 C 0.3876(6) 0.7712(8) 0.5414(4)
C37 C 0.3905(7) 0.5988(11) 0.5336(5)
H19 H 0.1172 0.1364 0.5220
C38 C 0.0967(4) 0.0032(5) 0.5270(3)
H22 H 0.1953 0.8490 0.8460
C41 C 0.2164(4) 0.9849(6) 0.8427(3)
C43 C 0.3365(3) 0.9924(4) 0.6497(2)
C44 C 0.1410(4) 0.7973(5) 0.9751(3)
C45 C 0.0240(4) 0.8440(6) 0.9577(3)
C46 C 0.3109(3) 0.7834(4) 0.9488(2)
H26 H 0.2586 0.6859 0.9855
H27 H 0.3012 0.6414 0.9472
C47 C 0.3741(3) 0.8971(5) 0.9040(2)
H29 H 0.3525 0.8188 0.5410
H30 H 0.4124 0.7710 0.5141
H31 H 0.4199 0.7829 0.5649
H32 H 0.4317 0.5905 0.5511
H33 H 0.4037 0.6068 0.5035
H34 H 0.3610 0.5452 0.5363
H37 H 0.2105 0.9978 0.8723
C52 C 0.3421(3) 0.9951(5) 0.6042(2)
C53 C 0.3981(3) 0.9917(4) 0.6740(2)
C54 C 0.0807(4) 0.8480(5) 0.9843(3)
H39 H 0.1797 0.8019 0.9934
C55 C 0.3397(3) 0.8102(5) 0.9087(2)
C56 C 0.4029(4) 0.9226(6) 0.8631(3)
C60 C 0.2831(4) 0.9985(6) 0.5749(3)
C61 C 0.4088(3) 0.9988(5) 0.5833(3)
O21 O 0.39151(19) 0.9941(3) 0.71860(15)
C62 C 0.4645(3) 0.9904(4) 0.6543(2)
C63 C 0.3399(3) 0.7514(5) 0.8710(2)
H45 H 0.4251 0.9797 0.8604
C64 C 0.3990(4) 0.8670(6) 0.8282(3)
H48 H 0.2383 0.9929 0.5866
C71 C 0.4685(3) 0.9941(4) 0.6097(2)
H49 H 0.4304 0.9995 0.7297
C72 C 0.5303(3) 0.9900(4) 0.6810(2)
C73 C 0.3683(3) 0.7807(6) 0.8329(3)
H50 H 0.3204 0.6924 0.8727
H51 H 0.4166 0.8859 0.8012
H57 H 0.5123 0.9934 0.5965
O22 O 0.58852(19) 0.9789(3) 0.66244(17)
H58 H 0.3671 0.7412 0.8088
O23 O 0.23660(18) 0.4702(3) 0.70156(15)
O24 O 0.02714(19) 0.4983(3) 0.72169(15)
Er7 Er 0.687847(12) 0.975812(15) 0.623267(10)
O25 O 0.1610(3) 0.4670(3) 0.55599(16)
O26 O 0.3027(2) 0.4790(3) 0.64316(15)
O27 O 0.08852(19) 0.5211(3) 0.66244(17)
O7 O 0.73660(18) 0.0298(3) 0.70156(15)
N1 N 0.9632(4) 0.3058(6) 0.80493(16)
H3 H 0.9914 0.4291 0.7940
O14 O 0.8027(2) 0.0210(3) 0.64316(15)
C12 C 0.9812(6) 0.2099(9) 0.8049(4)
C13 C 0.8924(5) 0.3238(10) 0.8158(3)
H8 H 0.9901 0.1899 0.8343
H10 H 0.9432 0.1745 0.7928
H11 H 0.8631 0.2762 0.8036
H12 H 0.8788 0.3829 0.8041
H13 H 0.8872 0.3246 0.8471
C40 C 0.9893(3) 0.0013(4) 0.7192(2)
H25 H 0.9841 0.7839 0.9044
C50 C 0.9291(3) 0.0085(4) 0.6925(2)
H40 H 0.9849 0.8802 0.9639
O20 O 0.9361(2) 0.0069(3) 0.64921(15)
C59 C 0.8605(3) 0.0173(4) 0.7123(2)
C67 C 0.8541(3) 0.0101(4) 0.7557(2)
H47 H 0.8974 0.0107 0.6377
C68 C 0.7980(3) 0.0248(4) 0.6849(2)
H54 H 0.8096 0.0125 0.7681
C49 C 0.9811(3) 0.9942(4) 0.7651(2)
C58 C 0.9129(3) 0.9991(5) 0.7834(2)
C66 C 0.9050(4) 0.9916(6) 0.8299(3)
C74 C 0.9602(4) 0.9795(6) 0.8563(3)
H53 H 0.8604 0.9952 0.8420
H59 H 0.9542 0.9735 0.8864
C49_2 C 0.0189(3) 0.0058(4) 0.2651(2)
C58_2 C 0.0871(3) 0.0009(5) 0.2834(2)
C66_2 C 0.0950(4) 0.0084(6) 0.3299(3)
C74_2 C 0.0398(4) 0.0205(6) 0.3563(3)
H53_2 H 0.1396 0.0048 0.3420
H59_2 H 0.0458 0.0265 0.3864
O7_2 O 0.26340(18) 0.9702(3) 0.20156(15)
N1_2 N 0.0368(4) 0.6942(6) 0.30493(16)
H3_2 H 0.0086 0.5709 0.2940
O14_2 O 0.1973(2) 0.9790(3) 0.14316(15)
C12_2 C 0.0188(6) 0.7901(9) 0.3049(4)
C13_2 C 0.1076(5) 0.6762(10) 0.3158(3)
H8_2 H 0.0099 0.8101 0.3343
H10_2 H 0.0568 0.8255 0.2928
H11_2 H 0.1369 0.7238 0.3036
H12_2 H 0.1212 0.6171 0.3041
H13_2 H 0.1128 0.6754 0.3471
C40_2 C 0.0107(3) 0.9987(4) 0.2192(2)
H25_2 H 0.0159 0.2161 0.4044
C50_2 C 0.0709(3) 0.9915(4) 0.1925(2)
H40_2 H 0.0151 0.1198 0.4639
O20_2 O 0.0639(2) 0.9931(3) 0.14921(15)
C59_2 C 0.1395(3) 0.9827(4) 0.2123(2)
C67_2 C 0.1459(3) 0.9899(4) 0.2557(2)
H47_2 H 0.1026 0.9893 0.1377
C68_2 C 0.2020(3) 0.9752(4) 0.1849(2)
H54_2 H 0.1904 0.9875 0.2681
Er3 Er 0.358737(11) 0.962202(15) 0.247513(9)
Er1_2 Er 0.858737(11) 0.537798(15) 0.247513(9)
O1_2 O 0.87976(19) 0.6596(3) 0.19900(14)
O2_2 O 0.8322(2) 0.3833(3) 0.23385(14)
O3_2 O 0.7834(2) 0.6590(3) 0.27101(15)
O4_2 O 0.9306(2) 0.6420(3) 0.28526(16)
O5_2 O 0.91788(19) 0.4469(3) 0.30315(15)
O6_2 O 0.8094(2) 0.4918(3) 0.31640(16)
C1_2 C 0.8645(3) 0.6829(4) 0.1602(2)
C2_2 C 0.8064(3) 0.3294(4) 0.2077(2)
H1_2 H 0.7711 0.6999 0.2489
H2_2 H 0.7418 0.6371 0.2820
C3_2 C 0.9920(4) 0.6316(6) 0.2945(3)
C4_2 C 0.8649(3) 0.4436(4) 0.3270(2)
Er2_2 Er 0.812153(12) 0.475812(15) 0.123267(10)
O9_2 O 0.8341(2) 0.6311(2) 0.13210(14)
C5_2 C 0.8835(3) 0.7801(4) 0.1458(2)
O10_2 O 0.7915(2) 0.3497(3) 0.16744(15)
C6_2 C 0.7881(3) 0.2323(4) 0.2230(2)
C7_2 C 0.8615(3) 0.3830(4) 0.3659(2)
O11_2 O 0.6610(3) 0.0330(3) 0.55599(16)
O12_2 O 0.8738(2) 0.3532(3) 0.09038(16)
O13_2 O 0.7317(2) 0.4059(4) 0.0781(2)
C8_2 C 0.8816(3) 0.8028(4) 0.1021(2)
C9_2 C 0.9046(3) 0.8494(4) 0.1762(2)
C10_2 C 0.7965(3) 0.2136(4) 0.2664(2)
C11_2 C 0.7671(3) 0.1606(4) 0.1927(2)
C14_2 C 0.9182(3) 0.3255(5) 0.3738(2)
C15_2 C 0.8010(3) 0.3789(4) 0.3942(2)
C16_2 C 0.6377(4) 0.0048(5) 0.5191(3)
H4_2 H 0.9088 0.3322 0.1074
H5_2 H 0.8933 0.3712 0.0651
C17_2 C 0.7058(4) 0.3339(6) 0.0689(3)
H6_2 H 0.8698 0.7571 0.0820
C18_2 C 0.8966(3) 0.8900(4) 0.0872(2)
O15_2 O 0.9096(2) 0.8310(3) 0.21935(14)
C19_2 C 0.9203(3) 0.9380(4) 0.1619(2)
H7_2 H 0.8113 0.2601 0.2854
C20_2 C 0.7825(3) 0.1222(4) 0.2830(2)
O16_2 O 0.7609(2) 0.1778(3) 0.14908(15)
C21_2 C 0.7525(2) 0.0718(4) 0.2074(2)
H9_2 H 0.9775 0.7994 0.2875
H14_2 H 0.9562 0.3253 0.3549
C22_2 C 0.9177(3) 0.2663(4) 0.4116(2)
C23_2 C 0.7964(3) 0.3164(4) 0.4281(2)
O17_2 O 0.7478(2) 0.4385(3) 0.38661(17)
C24_2 C 0.6476(3) 0.0706(5) 0.4810(2)
N2_2 N 0.6466(4) 0.3212(5) 0.0482(3)
H15_2 H 0.7301 0.2808 0.0772
C25_2 C 0.8928(3) 0.9108(5) 0.0418(2)
C26_2 C 0.9143(3) 0.9609(3) 0.1177(2)
H16_2 H 0.9025 0.7756 0.2236
C28_2 C 0.7922(3) 0.1034(5) 0.3270(2)
C29_2 C 0.7623(3) 0.0514(4) 0.2534(2)
H17_2 H 0.7494 0.2319 0.1453
C31_2 C 0.8561(3) 0.2614(4) 0.4378(2)
C32_2 C 0.9762(4) 0.2130(5) 0.4220(3)
C33_2 C 0.7296(3) 0.3076(4) 0.4548(2)
H18_2 H 0.7583 0.4730 0.3663
C34_2 C 0.6209(4) 0.0445(5) 0.4413(2)
C35_2 C 0.6813(3) 0.1580(5) 0.4852(2)
C36_2 C 0.6124(6) 0.2288(8) 0.0414(4)
C37_2 C 0.6095(7) 0.4012(11) 0.0336(5)
H19_2 H 0.8828 0.8636 0.0220
C38_2 C 0.9033(4) 0.9968(5) 0.0270(3)
H22_2 H 0.8047 0.1510 0.3460
C41_2 C 0.7836(4) 0.0151(6) 0.3427(3)
C43_2 C 0.6635(3) 0.0076(4) 0.1497(2)
C44_2 C 0.8590(4) 0.2027(5) 0.4751(3)
C45_2 C 0.9760(4) 0.1560(6) 0.4577(3)
C46_2 C 0.6891(3) 0.2166(4) 0.4488(2)
H26_2 H 0.7414 0.3141 0.4855
H27_2 H 0.6988 0.3586 0.4472
C47_2 C 0.6259(3) 0.1029(5) 0.4040(2)
O19_2 O 0.7074(2) 0.1855(3) 0.52424(15)
H29_2 H 0.6475 0.1812 0.0410
H30_2 H 0.5876 0.2290 0.0141
H31_2 H 0.5801 0.2171 0.0649
H32_2 H 0.5683 0.4095 0.0511
H33_2 H 0.5963 0.3932 0.0035
H34_2 H 0.6390 0.4548 0.0363
H37_2 H 0.7895 0.0022 0.3723
C52_2 C 0.6579(3) 0.0049(5) 0.1042(2)
C53_2 C 0.6019(3) 0.0083(4) 0.1740(2)
C54_2 C 0.9193(4) 0.1520(5) 0.4843(3)
H39_2 H 0.8203 0.1981 0.4934
C55_2 C 0.6603(3) 0.1898(5) 0.4087(2)
C56_2 C 0.5971(4) 0.0774(6) 0.3631(3)
H41_2 H 0.7162 0.1398 0.5392
C60_2 C 0.7169(4) 0.0015(6) 0.0749(3)
C61_2 C 0.5912(3) 0.0012(5) 0.0833(3)
O21_2 O 0.60849(19) 0.0059(3) 0.21860(15)
C62_2 C 0.5355(3) 0.0096(4) 0.1543(2)
H44_2 H 0.9206 0.1147 0.5091
C63_2 C 0.6601(3) 0.2486(5) 0.3710(2)
H45_2 H 0.5749 0.0203 0.3604
C64_2 C 0.6010(4) 0.1330(6) 0.3282(3)
H48_2 H 0.7617 0.0071 0.0866
C71_2 C 0.5315(3) 0.0059(4) 0.1097(2)
H49_2 H 0.5696 0.0005 0.2297
C72_2 C 0.4697(3) 0.0100(4) 0.1810(2)
C73_2 C 0.6317(3) 0.2193(6) 0.3329(3)
H50_2 H 0.6796 0.3076 0.3727
H51_2 H 0.5834 0.1141 0.3012
H57_2 H 0.4877 0.0066 0.0965
O22_2 O 0.41148(19) 0.0211(3) 0.16244(17)
H58_2 H 0.6329 0.2588 0.3088
O23_2 O 0.76340(18) 0.5298(3) 0.20156(15)
O24_2 O 0.97286(19) 0.5017(3) 0.22169(15)
O25_2 O 0.8390(3) 0.5330(3) 0.05599(16)
O26_2 O 0.6973(2) 0.5210(3) 0.14316(15)
O27_2 O 0.91148(19) 0.4789(3) 0.16244(17)
O8_2 O 0.47286(19) 0.9983(3) 0.22169(15)
O18_2 O 0.6111(3) 0.9293(4) 0.51329(19)
C30_2 C 0.7335(3) 0.9995(4) 0.1739(2)
C42_2 C 0.7548(4) 0.9608(5) 0.2713(3)
H23_2 H 0.7343 0.9397 0.1884
H24_2 H 0.7703 0.9988 0.1521
H28_2 H 0.5990 0.9872 0.4387
C51_2 C 0.7657(4) 0.9447(6) 0.3132(3)
H38_2 H 0.7420 0.9120 0.2531
H43_2 H 0.7613 0.8844 0.3236
C69_2 C 0.7101(4) 0.9907(6) 0.0317(3)
C70_2 C 0.5856(4) 0.9933(6) 0.0382(3)
H55_2 H 0.7503 0.9866 0.0146
C75_2 C 0.6439(5) 0.9854(7) 0.0109(3)
H56_2 H 0.5413 0.9931 0.0256
O2_3 O 0.3322(2) 0.1167(3) 0.23385(14)
O5_3 O 0.41788(19) 0.0531(3) 0.30315(15)
O6_3 O 0.3094(2) 0.0082(3) 0.31640(16)
C2_3 C 0.3064(3) 0.1706(4) 0.2077(2)
C4_3 C 0.3649(3) 0.0564(4) 0.3270(2)
O10_3 O 0.2915(2) 0.1503(3) 0.16744(15)
C6_3 C 0.2881(3) 0.2677(4) 0.2230(2)
C7_3 C 0.3615(3) 0.1170(4) 0.3659(2)
O12_3 O 0.3738(2) 0.1468(3) 0.09038(16)
O13_3 O 0.2317(2) 0.0941(4) 0.0781(2)
C10_3 C 0.2965(3) 0.2864(4) 0.2664(2)
C11_3 C 0.2671(3) 0.3394(4) 0.1927(2)
C14_3 C 0.4182(3) 0.1745(5) 0.3738(2)
C15_3 C 0.3010(3) 0.1211(4) 0.3942(2)
C16_3 C 0.1377(4) 0.4952(5) 0.5191(3)
H4_3 H 0.4088 0.1678 0.1074
H5_3 H 0.3933 0.1288 0.0651
C17_3 C 0.2058(4) 0.1661(6) 0.0689(3)
H7_3 H 0.3113 0.2399 0.2854
C20_3 C 0.2825(3) 0.3778(4) 0.2830(2)
O16_3 O 0.2609(2) 0.3222(3) 0.14908(15)
C21_3 C 0.2525(2) 0.4282(4) 0.2074(2)
H14_3 H 0.4562 0.1747 0.3549
C22_3 C 0.4177(3) 0.2337(4) 0.4116(2)
C23_3 C 0.2964(3) 0.1836(4) 0.4281(2)
O17_3 O 0.2478(2) 0.0615(3) 0.38661(17)
O18_3 O 0.1111(3) 0.5707(4) 0.51329(19)
C24_3 C 0.1476(3) 0.4294(5) 0.4810(2)
N2_3 N 0.1466(4) 0.1788(5) 0.0482(3)
H15_3 H 0.2301 0.2192 0.0772
C28_3 C 0.2922(3) 0.3966(5) 0.3270(2)
C29_3 C 0.2623(3) 0.4486(4) 0.2534(2)
H17_3 H 0.2494 0.2681 0.1453
C30_3 C 0.2335(3) 0.5005(4) 0.1739(2)
C31_3 C 0.3561(3) 0.2386(4) 0.4378(2)
C32_3 C 0.4762(4) 0.2870(5) 0.4220(3)
C33_3 C 0.2296(3) 0.1924(4) 0.4548(2)
H18_3 H 0.2583 0.0270 0.3663
C34_3 C 0.1209(4) 0.4555(5) 0.4413(2)
C35_3 C 0.1813(3) 0.3420(5) 0.4852(2)
C36_3 C 0.1124(6) 0.2712(8) 0.0414(4)
C37_3 C 0.1095(7) 0.0988(11) 0.0336(5)
H22_3 H 0.3047 0.3490 0.3460
C41_3 C 0.2836(4) 0.4849(6) 0.3427(3)
C42_3 C 0.2548(4) 0.5392(5) 0.2713(3)
H23_3 H 0.2343 0.5603 0.1884
H24_3 H 0.2703 0.5012 0.1521
C43_3 C 0.1635(3) 0.4924(4) 0.1497(2)
C44_3 C 0.3590(4) 0.2973(5) 0.4751(3)
C45_3 C 0.4760(4) 0.3440(6) 0.4577(3)
H25_3 H 0.5159 0.2839 0.4044
C46_3 C 0.1891(3) 0.2834(4) 0.4488(2)
H26_3 H 0.2414 0.1859 0.4855
H27_3 H 0.1988 0.1414 0.4472
H28_3 H 0.0990 0.5128 0.4387
C47_3 C 0.1259(3) 0.3971(5) 0.4040(2)
O19_3 O 0.2074(2) 0.3145(3) 0.52424(15)
H29_3 H 0.1475 0.3188 0.0410
H30_3 H 0.0876 0.2710 0.0141
H31_3 H 0.0801 0.2829 0.0649
H32_3 H 0.0683 0.0905 0.0511
H33_3 H 0.0963 0.1068 0.0035
H34_3 H 0.1390 0.0452 0.0363
H37_3 H 0.2895 0.4978 0.3723
C51_3 C 0.2657(4) 0.5553(6) 0.3132(3)
H38_3 H 0.2420 0.5880 0.2531
C52_3 C 0.1579(3) 0.4951(5) 0.1042(2)
C53_3 C 0.1019(3) 0.4917(4) 0.1740(2)
C54_3 C 0.4193(4) 0.3480(5) 0.4843(3)
H39_3 H 0.3203 0.3019 0.4934
H40_3 H 0.5151 0.3802 0.4639
C55_3 C 0.1603(3) 0.3102(5) 0.4087(2)
C56_3 C 0.0971(4) 0.4226(6) 0.3631(3)
H41_3 H 0.2162 0.3602 0.5392
H43_3 H 0.2613 0.6156 0.3236
C60_3 C 0.2169(4) 0.4985(6) 0.0749(3)
C61_3 C 0.0912(3) 0.4988(5) 0.0833(3)
O21_3 O 0.10849(19) 0.4941(3) 0.21860(15)
C62_3 C 0.0355(3) 0.4904(4) 0.1543(2)
H44_3 H 0.4206 0.3853 0.5091
C63_3 C 0.1601(3) 0.2514(5) 0.3710(2)
H45_3 H 0.0749 0.4797 0.3604
C64_3 C 0.1010(4) 0.3670(6) 0.3282(3)
H48_3 H 0.2617 0.4929 0.0866
C69_3 C 0.2101(4) 0.5093(6) 0.0317(3)
C70_3 C 0.0856(4) 0.5067(6) 0.0382(3)
C71_3 C 0.0315(3) 0.4941(4) 0.1097(2)
H49_3 H 0.0696 0.4995 0.2297
C73_3 C 0.1317(3) 0.2807(6) 0.3329(3)
H50_3 H 0.1796 0.1924 0.3727
H51_3 H 0.0834 0.3859 0.3012
H55_3 H 0.2503 0.5134 0.0146
C75_3 C 0.1439(5) 0.5146(7) 0.0109(3)
H56_3 H 0.0413 0.5069 0.0256
H58_3 H 0.1329 0.2412 0.3088
O1_3 O 0.37976(19) 0.8404(3) 0.19900(14)
O3_3 O 0.2834(2) 0.8410(3) 0.27101(15)
O4_3 O 0.4306(2) 0.8580(3) 0.28526(16)
C1_3 C 0.3645(3) 0.8171(4) 0.1602(2)
H1_3 H 0.2711 0.8001 0.2489
H2_3 H 0.2418 0.8629 0.2820
C3_3 C 0.4920(4) 0.8684(6) 0.2945(3)
O9_3 O 0.3341(2) 0.8689(2) 0.13210(14)
C5_3 C 0.3835(3) 0.7199(4) 0.1458(2)
N1_3 N 0.5368(4) 0.8058(6) 0.30493(16)
H3_3 H 0.5086 0.9291 0.2940
C8_3 C 0.3816(3) 0.6972(4) 0.1021(2)
C9_3 C 0.4046(3) 0.6506(4) 0.1762(2)
C12_3 C 0.5188(6) 0.7099(9) 0.3049(4)
C13_3 C 0.6076(5) 0.8238(10) 0.3158(3)
H6_3 H 0.3698 0.7429 0.0820
C18_3 C 0.3966(3) 0.6100(4) 0.0872(2)
O15_3 O 0.4096(2) 0.6690(3) 0.21935(14)
C19_3 C 0.4203(3) 0.5620(4) 0.1619(2)
H8_3 H 0.5099 0.6899 0.3343
H9_3 H 0.4775 0.7006 0.2875
H10_3 H 0.5568 0.6745 0.2928
H11_3 H 0.6369 0.7762 0.3036
H12_3 H 0.6212 0.8829 0.3041
H13_3 H 0.6128 0.8246 0.3471
C25_3 C 0.3928(3) 0.5892(5) 0.0418(2)
C26_3 C 0.4143(3) 0.5391(3) 0.1177(2)
H16_3 H 0.4025 0.7244 0.2236
C27 C 0.4407(3) 0.4900(4) 0.1969(2)
H19_3 H 0.3828 0.6364 0.0220
C38_3 C 0.4033(4) 0.5032(5) 0.0270(3)
C39 C 0.4243(3) 0.4484(5) 0.1004(3)
H20 H 0.4398 0.4293 0.1832
H21 H 0.4047 0.4903 0.2193
C40_3 C 0.5107(3) 0.5013(4) 0.2192(2)
C48 C 0.4176(3) 0.4303(5) 0.0575(3)
H36 H 0.4358 0.4003 0.1193
C49_3 C 0.5189(3) 0.4942(4) 0.2651(2)
C50_3 C 0.5709(3) 0.5085(4) 0.1925(2)
H42 H 0.4223 0.3698 0.0476
C57 C 0.4619(3) 0.4829(5) 0.2939(3)
C58_3 C 0.5871(3) 0.4991(5) 0.2834(2)
O20_3 O 0.5639(2) 0.5069(3) 0.14921(15)
C59_3 C 0.6395(3) 0.5173(4) 0.2123(2)
H46 H 0.4165 0.4802 0.2831
C65 C 0.4736(4) 0.4760(7) 0.3380(3)
C66_3 C 0.5950(4) 0.4916(6) 0.3299(3)
C67_3 C 0.6459(3) 0.5101(4) 0.2557(2)
H47_3 H 0.6026 0.5107 0.1377
C68_3 C 0.7020(3) 0.5248(4) 0.1849(2)
H52 H 0.4353 0.4687 0.3564
C74_3 C 0.5398(4) 0.4795(6) 0.3563(3)
H53_3 H 0.6396 0.4952 0.3420
H54_3 H 0.6904 0.5125 0.2681
H59_3 H 0.5458 0.4735 0.3864
C72_3 C 0.9697(3) 0.4900(4) 0.1810(2)
H57_3 H 0.9877 0.4934 0.0965
C72_4 C 0.0303(3) 0.5100(4) 0.6810(2)
H57_4 H 0.0123 0.5066 0.5965
O1_4 O 0.62024(19) 0.1596(3) 0.69900(14)
O3_4 O 0.7166(2) 0.1590(3) 0.77101(15)
O4_4 O 0.5694(2) 0.1420(3) 0.78526(16)
C1_4 C 0.6355(3) 0.1829(4) 0.6602(2)
H1_4 H 0.7289 0.1999 0.7489
H2_4 H 0.7582 0.1371 0.7820
C3_4 C 0.5080(4) 0.1316(6) 0.7945(3)
O9_4 O 0.6659(2) 0.1311(2) 0.63210(14)
C5_4 C 0.6165(3) 0.2801(4) 0.6458(2)
N1_4 N 0.4632(4) 0.1942(6) 0.80493(16)
H3_4 H 0.4914 0.0709 0.7940
C8_4 C 0.6184(3) 0.3028(4) 0.6021(2)
C9_4 C 0.5954(3) 0.3494(4) 0.6762(2)
C12_4 C 0.4812(6) 0.2901(9) 0.8049(4)
C13_4 C 0.3924(5) 0.1762(10) 0.8158(3)
H6_4 H 0.6302 0.2571 0.5820
C18_4 C 0.6034(3) 0.3900(4) 0.5872(2)
O15_4 O 0.5904(2) 0.3310(3) 0.71935(14)
C19_4 C 0.5797(3) 0.4380(4) 0.6619(2)
H8_4 H 0.4901 0.3101 0.8343
H9_4 H 0.5225 0.2994 0.7875
H10_4 H 0.4432 0.3255 0.7928
H11_4 H 0.3631 0.2238 0.8036
H12_4 H 0.3788 0.1171 0.8041
H13_4 H 0.3872 0.1754 0.8471
C25_4 C 0.6072(3) 0.4108(5) 0.5418(2)
C26_4 C 0.5857(3) 0.4609(3) 0.6177(2)
H16_4 H 0.5975 0.2756 0.7236
C27_2 C 0.5593(3) 0.5100(4) 0.6969(2)
H19_4 H 0.6172 0.3636 0.5220
C38_4 C 0.5967(4) 0.4968(5) 0.5270(3)
C39_2 C 0.5757(3) 0.5516(5) 0.6004(3)
H20_2 H 0.5602 0.5707 0.6832
H21_2 H 0.5953 0.5097 0.7193
C40_4 C 0.4893(3) 0.4987(4) 0.7192(2)
H35 H 0.5986 0.5092 0.4971
C48_2 C 0.5824(3) 0.5697(5) 0.5575(3)
H36_2 H 0.5642 0.5997 0.6193
C49_4 C 0.4811(3) 0.5058(4) 0.7651(2)
C50_4 C 0.4291(3) 0.4915(4) 0.6925(2)
H42_2 H 0.5777 0.6302 0.5476
C57_2 C 0.5381(3) 0.5171(5) 0.7939(3)
C58_4 C 0.4129(3) 0.5009(5) 0.7834(2)
O20_4 O 0.4361(2) 0.4931(3) 0.64921(15)
C59_4 C 0.3605(3) 0.4827(4) 0.7123(2)
H46_2 H 0.5835 0.5198 0.7831
C65_2 C 0.5264(4) 0.5240(7) 0.8380(3)
C66_4 C 0.4050(4) 0.5084(6) 0.8299(3)
C67_4 C 0.3541(3) 0.4899(4) 0.7557(2)
H47_4 H 0.3974 0.4893 0.6377
C68_4 C 0.2980(3) 0.4752(4) 0.6849(2)
H52_2 H 0.5647 0.5313 0.8564
C74_4 C 0.4602(4) 0.5205(6) 0.8563(3)
H53_4 H 0.3604 0.5048 0.8420
H54_4 H 0.3096 0.4875 0.7681
H59_4 H 0.4542 0.5265 0.8864
C16_4 C 0.8623(4) 0.5048(5) 0.0191(3)
O18_4 O 0.8889(3) 0.4293(4) 0.01329(19)
O19_4 O 0.7926(2) 0.6855(3) 0.02424(15)
H41_4 H 0.7838 0.6398 0.0392
H44_4 H 0.5794 0.6147 0.0091
O2_4 O 0.6678(2) 0.8833(3) 0.73385(14)
O5_4 O 0.58212(19) 0.9469(3) 0.80315(15)
O6_4 O 0.6906(2) 0.9918(3) 0.81640(16)
C2_4 C 0.6936(3) 0.8294(4) 0.7077(2)
C4_4 C 0.6351(3) 0.9436(4) 0.8270(2)
O10_4 O 0.7085(2) 0.8497(3) 0.66744(15)
C6_4 C 0.7119(3) 0.7323(4) 0.7230(2)
C7_4 C 0.6385(3) 0.8830(4) 0.8659(2)
O12_4 O 0.6262(2) 0.8532(3) 0.59038(16)
O13_4 O 0.7683(2) 0.9059(4) 0.5781(2)
C10_4 C 0.7035(3) 0.7136(4) 0.7664(2)
C11_4 C 0.7329(3) 0.6606(4) 0.6927(2)
C14_4 C 0.5818(3) 0.8255(5) 0.8738(2)
C15_4 C 0.6990(3) 0.8789(4) 0.8942(2)
H4_4 H 0.5912 0.8322 0.6074
H5_4 H 0.6067 0.8712 0.5651
C17_4 C 0.7942(4) 0.8339(6) 0.5689(3)
H7_4 H 0.6887 0.7601 0.7854
C20_4 C 0.7175(3) 0.6222(4) 0.7830(2)
O16_4 O 0.7391(2) 0.6778(3) 0.64908(15)
C21_4 C 0.7475(2) 0.5718(4) 0.7074(2)
H14_4 H 0.5438 0.8253 0.8549
C22_4 C 0.5823(3) 0.7663(4) 0.9116(2)
C23_4 C 0.7036(3) 0.8164(4) 0.9281(2)
O17_4 O 0.7522(2) 0.9385(3) 0.88661(17)
C24_4 C 0.8524(3) 0.5706(5) 0.9810(2)
N2_4 N 0.8534(4) 0.8212(5) 0.5482(3)
H15_4 H 0.7699 0.7808 0.5772
C28_4 C 0.7078(3) 0.6034(5) 0.8270(2)
C29_4 C 0.7377(3) 0.5514(4) 0.7534(2)
H17_4 H 0.7506 0.7319 0.6453
C30_4 C 0.7665(3) 0.4995(4) 0.6739(2)
C31_4 C 0.6439(3) 0.7614(4) 0.9378(2)
C32_4 C 0.5238(4) 0.7130(5) 0.9220(3)
C33_4 C 0.7704(3) 0.8076(4) 0.9548(2)
H18_4 H 0.7417 0.9730 0.8663
C34_4 C 0.8791(4) 0.5445(5) 0.9413(2)
C35_4 C 0.8187(3) 0.6580(5) 0.9852(2)
C36_4 C 0.8876(6) 0.7288(8) 0.5414(4)
C37_4 C 0.8905(7) 0.9012(11) 0.5336(5)
H22_4 H 0.6953 0.6510 0.8460
C41_4 C 0.7164(4) 0.5151(6) 0.8427(3)
C42_4 C 0.7452(4) 0.4608(5) 0.7713(3)
H23_4 H 0.7657 0.4397 0.6884
H24_4 H 0.7297 0.4988 0.6521
C43_4 C 0.8365(3) 0.5076(4) 0.6497(2)
C44_4 C 0.6410(4) 0.7027(5) 0.9751(3)
C45_4 C 0.5240(4) 0.6560(6) 0.9577(3)
H25_4 H 0.4841 0.7161 0.9044
C46_4 C 0.8109(3) 0.7166(4) 0.9488(2)
H26_4 H 0.7586 0.8141 0.9855
H27_4 H 0.8012 0.8586 0.9472
H28_4 H 0.9010 0.4872 0.9387
C47_4 C 0.8741(3) 0.6029(5) 0.9040(2)
H29_4 H 0.8525 0.6812 0.5410
H30_4 H 0.9124 0.7290 0.5141
H31_4 H 0.9199 0.7171 0.5649
H32_4 H 0.9317 0.9095 0.5511
H33_4 H 0.9037 0.8932 0.5035
H34_4 H 0.8610 0.9548 0.5363
H37_4 H 0.7105 0.5022 0.8723
C51_4 C 0.7343(4) 0.4447(6) 0.8132(3)
H38_4 H 0.7580 0.4120 0.7531
C52_4 C 0.8421(3) 0.5049(5) 0.6042(2)
C53_4 C 0.8981(3) 0.5083(4) 0.6740(2)
C54_4 C 0.5807(4) 0.6520(5) 0.9843(3)
H39_4 H 0.6797 0.6981 0.9934
H40_4 H 0.4849 0.6198 0.9639
C55_4 C 0.8397(3) 0.6898(5) 0.9087(2)
C56_4 C 0.9029(4) 0.5774(6) 0.8631(3)
H43_4 H 0.7387 0.3844 0.8236
C60_4 C 0.7831(4) 0.5015(6) 0.5749(3)
C61_4 C 0.9088(3) 0.5012(5) 0.5833(3)
O21_4 O 0.89151(19) 0.5059(3) 0.71860(15)
C62_4 C 0.9645(3) 0.5096(4) 0.6543(2)
C63_4 C 0.8399(3) 0.7486(5) 0.8710(2)
H45_4 H 0.9251 0.5203 0.8604
C64_4 C 0.8990(4) 0.6330(6) 0.8282(3)
H48_4 H 0.7383 0.5071 0.5866
C69_4 C 0.7899(4) 0.4907(6) 0.5317(3)
C70_4 C 0.9144(4) 0.4933(6) 0.5382(3)
C71_4 C 0.9685(3) 0.5059(4) 0.6097(2)
H49_4 H 0.9304 0.5005 0.7297
C73_4 C 0.8683(3) 0.7193(6) 0.8329(3)
H50_4 H 0.8204 0.8076 0.8727
H51_4 H 0.9166 0.6141 0.8012
H55_4 H 0.7497 0.4866 0.5146
C75_4 C 0.8561(5) 0.4854(7) 0.5109(3)
H56_4 H 0.9587 0.4931 0.5256
H58_4 H 0.8671 0.7588 0.8088
H60_2 H 0.8604 0.4772 0.4808
C27_3 C 0.0593(3) 0.9900(4) 0.6969(2)
C39_3 C 0.0757(3) 0.9484(5) 0.6004(3)
H20_3 H 0.0602 0.9293 0.6832
H21_3 H 0.0953 0.9903 0.7193
H35_2 H 0.0986 0.9908 0.4971
C48_3 C 0.0824(3) 0.9303(5) 0.5575(3)
H36_3 H 0.0642 0.9003 0.6193
H42_3 H 0.0777 0.8698 0.5476
C57_3 C 0.0381(3) 0.9829(5) 0.7939(3)
H46_3 H 0.0835 0.9802 0.7831
C65_3 C 0.0264(4) 0.9760(7) 0.8380(3)
H52_3 H 0.0647 0.9687 0.8564
C27_4 C 0.9407(3) 0.0100(4) 0.1969(2)
C39_4 C 0.9243(3) 0.0516(5) 0.1004(3)
H20_4 H 0.9398 0.0707 0.1832
H21_4 H 0.9047 0.0097 0.2193
C48_4 C 0.9176(3) 0.0697(5) 0.0575(3)
H36_4 H 0.9358 0.0997 0.1193
H42_4 H 0.9223 0.1302 0.0476
C57_4 C 0.9619(3) 0.0171(5) 0.2939(3)
H46_4 H 0.9165 0.0198 0.2831
C65_4 C 0.9736(4) 0.0240(7) 0.3380(3)
H52_4 H 0.9353 0.0313 0.3564
H35_3 H 0.9014 0.0092 0.9971
H60_3 H 0.6396 0.9772 0.9808
H60_4 H 0.1396 0.5228 0.9808
H35_4 H 0.4014 0.4908 0.9971
loop_
_geom_bond_atom_site_label_1
_geom_bond_atom_site_label_2
_geom_bond_site_symmetry_1
_geom_bond_site_symmetry_2
H23 C30 1_555 1_555
H24 C30 1_555 1_555
H38 C42 1_555 1_555
H43 C51 1_555 1_555
H55 C69 1_555 1_555
C75 C69 1_555 1_555
H56 C70 1_555 1_555
H60 C75 1_555 1_555
Er4 O8 1_555 1_555
C42 C51 1_555 1_555
C70 C75 1_555 1_555
O11 C16 1_555 1_555
H41 O19 1_555 1_555
Er1 O1 1_555 1_555
O1 C1 1_555 1_555
O2 Er1 1_555 1_555
O3 Er1 1_555 1_555
O4 Er1 1_555 1_555
O5 Er1 1_555 1_555
O6 Er1 1_555 1_555
C1 O9 1_555 1_555
C2 O2 1_555 1_555
H1 O3 1_555 1_555
H2 O3 1_555 1_555
C3 O4 1_555 1_555
C4 O5 1_555 1_555
Er2 O9 1_555 1_555
C5 C1 1_555 1_555
O10 C2 1_555 1_555
C6 C2 1_555 1_555
C7 C4 1_555 1_555
O12 Er2 1_555 1_555
O13 Er2 1_555 1_555
C8 C5 1_555 1_555
C9 C5 1_555 1_555
C10 C6 1_555 1_555
C11 C6 1_555 1_555
C14 C7 1_555 1_555
C15 C7 1_555 1_555
H4 O12 1_555 1_555
H5 O12 1_555 1_555
C17 O13 1_555 1_555
H6 C8 1_555 1_555
C18 C8 1_555 1_555
O15 C9 1_555 1_555
C19 C9 1_555 1_555
H7 C10 1_555 1_555
C20 C10 1_555 1_555
O16 C11 1_555 1_555
C21 C11 1_555 1_555
H14 C14 1_555 1_555
C22 C14 1_555 1_555
C23 C15 1_555 1_555
O17 C15 1_555 1_555
N2 C17 1_555 1_555
H15 C17 1_555 1_555
C25 C18 1_555 1_555
C26 C18 1_555 1_555
H16 O15 1_555 1_555
C28 C20 1_555 1_555
C29 C20 1_555 1_555
H17 O16 1_555 1_555
C31 C22 1_555 1_555
C32 C22 1_555 1_555
C33 C23 1_555 1_555
H18 O17 1_555 1_555
C34 C24 1_555 1_555
C35 C24 1_555 1_555
C36 N2 1_555 1_555
C37 N2 1_555 1_555
H19 C25 1_555 1_555
C38 C25 1_555 1_555
H22 C28 1_555 1_555
C41 C28 1_555 1_555
C44 C31 1_555 1_555
C45 C32 1_555 1_555
C46 C33 1_555 1_555
H26 C33 1_555 1_555
H27 C33 1_555 1_555
C47 C34 1_555 1_555
H29 C36 1_555 1_555
H30 C36 1_555 1_555
H31 C36 1_555 1_555
H32 C37 1_555 1_555
H33 C37 1_555 1_555
H34 C37 1_555 1_555
H37 C41 1_555 1_555
C52 C43 1_555 1_555
C53 C43 1_555 1_555
C54 C44 1_555 1_555
H39 C44 1_555 1_555
C55 C46 1_555 1_555
C56 C47 1_555 1_555
C60 C52 1_555 1_555
C61 C52 1_555 1_555
O21 C53 1_555 1_555
C62 C53 1_555 1_555
C63 C55 1_555 1_555
H45 C56 1_555 1_555
C64 C56 1_555 1_555
H48 C60 1_555 1_555
C71 C61 1_555 1_555
H49 O21 1_555 1_555
C72 C62 1_555 1_555
C73 C63 1_555 1_555
H50 C63 1_555 1_555
H51 C64 1_555 1_555
H57 C71 1_555 1_555
O22 C72 1_555 1_555
H58 C73 1_555 1_555
O23 Er1 1_555 1_555
O24 Er1 1_555 1_555
Er7 O22 1_555 1_555
O25 Er2 1_555 1_555
O26 Er2 1_555 1_555
O27 Er2 1_555 1_555
O6 C4 1_555 1_555
Er2 O10 1_555 1_555
Er2 O23 1_555 1_555
C19 C26 1_555 1_555
C21 C29 1_555 1_555
C23 C31 1_555 1_555
C35 C46 1_555 1_555
C45 C54 1_555 1_555
C47 C55 1_555 1_555
C62 C71 1_555 1_555
C64 C73 1_555 1_555
O7 C68 1_555 1_555
O14 C68 1_555 1_555
C12 N1 1_555 1_555
C13 N1 1_555 1_555
H8 C12 1_555 1_555
H10 C12 1_555 1_555
H11 C13 1_555 1_555
H12 C13 1_555 1_555
H13 C13 1_555 1_555
C50 C40 1_555 1_555
O20 C50 1_555 1_555
C59 C50 1_555 1_555
H47 O20 1_555 1_555
C68 C59 1_555 1_555
H54 C67 1_555 1_555
Er4 O7 1_555 1_555
C59 C67 1_555 1_555
C58 C49 1_555 1_555
C66 C58 1_555 1_555
H53 C66 1_555 1_555
H59 C74 1_555 1_555
C66 C74 1_555 1_555
C58_2 C49_2 1_555 1_555
C66_2 C58_2 1_555 1_555
H53_2 C66_2 1_555 1_555
H59_2 C74_2 1_555 1_555
C66_2 C74_2 1_555 1_555
O7_2 C68_2 1_555 1_555
O14_2 C68_2 1_555 1_555
C12_2 N1_2 1_555 1_555
C13_2 N1_2 1_555 1_555
H8_2 C12_2 1_555 1_555
H10_2 C12_2 1_555 1_555
H11_2 C13_2 1_555 1_555
H12_2 C13_2 1_555 1_555
H13_2 C13_2 1_555 1_555
C50_2 C40_2 1_555 1_555
O20_2 C50_2 1_555 1_555
C59_2 C50_2 1_555 1_555
H47_2 O20_2 1_555 1_555
C68_2 C59_2 1_555 1_555
H54_2 C67_2 1_555 1_555
Er3 O7_2 1_555 1_555
C59_2 C67_2 1_555 1_555
Er1_2 O1_2 1_555 1_555
O1_2 C1_2 1_555 1_555
O2_2 Er1_2 1_555 1_555
O3_2 Er1_2 1_555 1_555
O4_2 Er1_2 1_555 1_555
O5_2 Er1_2 1_555 1_555
O6_2 Er1_2 1_555 1_555
C1_2 O9_2 1_555 1_555
C2_2 O2_2 1_555 1_555
H1_2 O3_2 1_555 1_555
H2_2 O3_2 1_555 1_555
C3_2 O4_2 1_555 1_555
C4_2 O5_2 1_555 1_555
Er2_2 O9_2 1_555 1_555
C5_2 C1_2 1_555 1_555
O10_2 C2_2 1_555 1_555
C6_2 C2_2 1_555 1_555
C7_2 C4_2 1_555 1_555
O11_2 C16_2 1_555 1_555
O12_2 Er2_2 1_555 1_555
O13_2 Er2_2 1_555 1_555
C8_2 C5_2 1_555 1_555
C9_2 C5_2 1_555 1_555
C10_2 C6_2 1_555 1_555
C11_2 C6_2 1_555 1_555
C14_2 C7_2 1_555 1_555
C15_2 C7_2 1_555 1_555
H4_2 O12_2 1_555 1_555
H5_2 O12_2 1_555 1_555
C17_2 O13_2 1_555 1_555
H6_2 C8_2 1_555 1_555
C18_2 C8_2 1_555 1_555
O15_2 C9_2 1_555 1_555
C19_2 C9_2 1_555 1_555
H7_2 C10_2 1_555 1_555
C20_2 C10_2 1_555 1_555
O16_2 C11_2 1_555 1_555
C21_2 C11_2 1_555 1_555
H14_2 C14_2 1_555 1_555
C22_2 C14_2 1_555 1_555
C23_2 C15_2 1_555 1_555
O17_2 C15_2 1_555 1_555
C24_2 C16_2 1_555 1_555
N2_2 C17_2 1_555 1_555
H15_2 C17_2 1_555 1_555
C25_2 C18_2 1_555 1_555
C26_2 C18_2 1_555 1_555
H16_2 O15_2 1_555 1_555
C28_2 C20_2 1_555 1_555
C29_2 C20_2 1_555 1_555
H17_2 O16_2 1_555 1_555
C31_2 C22_2 1_555 1_555
C32_2 C22_2 1_555 1_555
C33_2 C23_2 1_555 1_555
H18_2 O17_2 1_555 1_555
C34_2 C24_2 1_555 1_555
C35_2 C24_2 1_555 1_555
C36_2 N2_2 1_555 1_555
C37_2 N2_2 1_555 1_555
H19_2 C25_2 1_555 1_555
C38_2 C25_2 1_555 1_555
H22_2 C28_2 1_555 1_555
C41_2 C28_2 1_555 1_555
C44_2 C31_2 1_555 1_555
C45_2 C32_2 1_555 1_555
C46_2 C33_2 1_555 1_555
H26_2 C33_2 1_555 1_555
H27_2 C33_2 1_555 1_555
C47_2 C34_2 1_555 1_555
O19_2 C35_2 1_555 1_555
H29_2 C36_2 1_555 1_555
H30_2 C36_2 1_555 1_555
H31_2 C36_2 1_555 1_555
H32_2 C37_2 1_555 1_555
H33_2 C37_2 1_555 1_555
H34_2 C37_2 1_555 1_555
H37_2 C41_2 1_555 1_555
C52_2 C43_2 1_555 1_555
C53_2 C43_2 1_555 1_555
C54_2 C44_2 1_555 1_555
H39_2 C44_2 1_555 1_555
C55_2 C46_2 1_555 1_555
C56_2 C47_2 1_555 1_555
H41_2 O19_2 1_555 1_555
C60_2 C52_2 1_555 1_555
C61_2 C52_2 1_555 1_555
O21_2 C53_2 1_555 1_555
C62_2 C53_2 1_555 1_555
H44_2 C54_2 1_555 1_555
C63_2 C55_2 1_555 1_555
H45_2 C56_2 1_555 1_555
C64_2 C56_2 1_555 1_555
H48_2 C60_2 1_555 1_555
C71_2 C61_2 1_555 1_555
H49_2 O21_2 1_555 1_555
C72_2 C62_2 1_555 1_555
C73_2 C63_2 1_555 1_555
H50_2 C63_2 1_555 1_555
H51_2 C64_2 1_555 1_555
H57_2 C71_2 1_555 1_555
O22_2 C72_2 1_555 1_555
H58_2 C73_2 1_555 1_555
O23_2 Er1_2 1_555 1_555
O24_2 Er1_2 1_555 1_555
Er5 O22_2 1_555 1_555
O25_2 Er2_2 1_555 1_555
O26_2 Er2_2 1_555 1_555
O27_2 Er2_2 1_555 1_555
O6_2 C4_2 1_555 1_555
Er2_2 O10_2 1_555 1_555
Er2_2 O23_2 1_555 1_555
C19_2 C26_2 1_555 1_555
C21_2 C29_2 1_555 1_555
C23_2 C31_2 1_555 1_555
C35_2 C46_2 1_555 1_555
C45_2 C54_2 1_555 1_555
C47_2 C55_2 1_555 1_555
C62_2 C71_2 1_555 1_555
C64_2 C73_2 1_555 1_555
H23_2 C30_2 1_555 1_555
H24_2 C30_2 1_555 1_555
H38_2 C42_2 1_555 1_555
H43_2 C51_2 1_555 1_555
H55_2 C69_2 1_555 1_555
C75_2 C69_2 1_555 1_555
H56_2 C70_2 1_555 1_555
Er3 O8_2 1_555 1_555
C42_2 C51_2 1_555 1_555
C70_2 C75_2 1_555 1_555
C2_3 O2_3 1_555 1_555
C4_3 O5_3 1_555 1_555
O10_3 C2_3 1_555 1_555
C6_3 C2_3 1_555 1_555
C7_3 C4_3 1_555 1_555
O25 C16_3 1_555 1_555
O12_3 Er5 1_555 1_555
O13_3 Er5 1_555 1_555
C10_3 C6_3 1_555 1_555
C11_3 C6_3 1_555 1_555
C14_3 C7_3 1_555 1_555
C15_3 C7_3 1_555 1_555
C16_3 O18_3 1_555 1_555
H4_3 O12_3 1_555 1_555
H5_3 O12_3 1_555 1_555
C17_3 O13_3 1_555 1_555
H7_3 C10_3 1_555 1_555
C20_3 C10_3 1_555 1_555
O16_3 C11_3 1_555 1_555
C21_3 C11_3 1_555 1_555
H14_3 C14_3 1_555 1_555
C22_3 C14_3 1_555 1_555
C23_3 C15_3 1_555 1_555
O17_3 C15_3 1_555 1_555
C24_3 C16_3 1_555 1_555
N2_3 C17_3 1_555 1_555
H15_3 C17_3 1_555 1_555
C28_3 C20_3 1_555 1_555
C29_3 C20_3 1_555 1_555
H17_3 O16_3 1_555 1_555
C30_3 C21_3 1_555 1_555
C31_3 C22_3 1_555 1_555
C32_3 C22_3 1_555 1_555
C33_3 C23_3 1_555 1_555
H18_3 O17_3 1_555 1_555
C34_3 C24_3 1_555 1_555
C35_3 C24_3 1_555 1_555
C36_3 N2_3 1_555 1_555
C37_3 N2_3 1_555 1_555
H22_3 C28_3 1_555 1_555
C41_3 C28_3 1_555 1_555
C42_3 C29_3 1_555 1_555
H23_3 C30_3 1_555 1_555
H24_3 C30_3 1_555 1_555
C43_3 C30_3 1_555 1_555
C44_3 C31_3 1_555 1_555
C45_3 C32_3 1_555 1_555
H25_3 C32_3 1_555 1_555
C46_3 C33_3 1_555 1_555
H26_3 C33_3 1_555 1_555
H27_3 C33_3 1_555 1_555
H28_3 C34_3 1_555 1_555
C47_3 C34_3 1_555 1_555
O19_3 C35_3 1_555 1_555
H29_3 C36_3 1_555 1_555
H30_3 C36_3 1_555 1_555
H31_3 C36_3 1_555 1_555
H32_3 C37_3 1_555 1_555
H33_3 C37_3 1_555 1_555
H34_3 C37_3 1_555 1_555
H37_3 C41_3 1_555 1_555
C51_3 C41_3 1_555 1_555
H38_3 C42_3 1_555 1_555
C52_3 C43_3 1_555 1_555
C53_3 C43_3 1_555 1_555
C54_3 C44_3 1_555 1_555
H39_3 C44_3 1_555 1_555
H40_3 C45_3 1_555 1_555
C55_3 C46_3 1_555 1_555
C56_3 C47_3 1_555 1_555
H41_3 O19_3 1_555 1_555
H43_3 C51_3 1_555 1_555
C60_3 C52_3 1_555 1_555
C61_3 C52_3 1_555 1_555
O21_3 C53_3 1_555 1_555
C62_3 C53_3 1_555 1_555
H44_3 C54_3 1_555 1_555
C63_3 C55_3 1_555 1_555
H45_3 C56_3 1_555 1_555
C64_3 C56_3 1_555 1_555
H48_3 C60_3 1_555 1_555
C69_3 C60_3 1_555 1_555
C70_3 C61_3 1_555 1_555
C71_3 C61_3 1_555 1_555
H49_3 O21_3 1_555 1_555
C73_3 C63_3 1_555 1_555
H50_3 C63_3 1_555 1_555
H51_3 C64_3 1_555 1_555
H55_3 C69_3 1_555 1_555
C75_3 C69_3 1_555 1_555
H56_3 C70_3 1_555 1_555
H58_3 C73_3 1_555 1_555
O6_3 C4_3 1_555 1_555
Er5 O10_3 1_555 1_555
C21_3 C29_3 1_555 1_555
C23_3 C31_3 1_555 1_555
C35_3 C46_3 1_555 1_555
C42_3 C51_3 1_555 1_555
C45_3 C54_3 1_555 1_555
C47_3 C55_3 1_555 1_555
C62_3 C71_3 1_555 1_555
C64_3 C73_3 1_555 1_555
C70_3 C75_3 1_555 1_555
Er3 O1_3 1_555 1_555
O1_3 C1_3 1_555 1_555
O3_3 Er3 1_555 1_555
O4_3 Er3 1_555 1_555
O23_2 C68_3 1_555 1_555
C1_3 O9_3 1_555 1_555
H1_3 O3_3 1_555 1_555
H2_3 O3_3 1_555 1_555
C3_3 O4_3 1_555 1_555
C5_3 C1_3 1_555 1_555
N1_3 C3_3 1_555 1_555
H3_3 C3_3 1_555 1_555
O26_2 C68_3 1_555 1_555
C8_3 C5_3 1_555 1_555
C9_3 C5_3 1_555 1_555
C12_3 N1_3 1_555 1_555
C13_3 N1_3 1_555 1_555
H6_3 C8_3 1_555 1_555
C18_3 C8_3 1_555 1_555
O15_3 C9_3 1_555 1_555
C19_3 C9_3 1_555 1_555
H8_3 C12_3 1_555 1_555
H9_3 C12_3 1_555 1_555
H10_3 C12_3 1_555 1_555
H11_3 C13_3 1_555 1_555
H12_3 C13_3 1_555 1_555
H13_3 C13_3 1_555 1_555
C25_3 C18_3 1_555 1_555
C26_3 C18_3 1_555 1_555
H16_3 O15_3 1_555 1_555
C27 C19_3 1_555 1_555
H19_3 C25_3 1_555 1_555
C38_3 C25_3 1_555 1_555
C39 C26_3 1_555 1_555
H20 C27 1_555 1_555
H21 C27 1_555 1_555
C40_3 C27 1_555 1_555
C48 C38_3 1_555 1_555
H36 C39 1_555 1_555
C49_3 C40_3 1_555 1_555
C50_3 C40_3 1_555 1_555
H42 C48 1_555 1_555
C57 C49_3 1_555 1_555
C58_3 C49_3 1_555 1_555
O20_3 C50_3 1_555 1_555
C59_3 C50_3 1_555 1_555
H46 C57 1_555 1_555
C65 C57 1_555 1_555
C66_3 C58_3 1_555 1_555
C67_3 C58_3 1_555 1_555
H47_3 O20_3 1_555 1_555
C68_3 C59_3 1_555 1_555
H52 C65 1_555 1_555
C74_3 C65 1_555 1_555
H53_3 C66_3 1_555 1_555
H54_3 C67_3 1_555 1_555
H59_3 C74_3 1_555 1_555
C19_3 C26_3 1_555 1_555
C39 C48 1_555 1_555
C59_3 C67_3 1_555 1_555
C66_3 C74_3 1_555 1_555
O24_2 C72_3 1_555 1_555
O27_2 C72_3 1_555 1_555
O24 C72_4 1_555 1_555
O27 C72_4 1_555 1_555
Er4 O1_4 1_555 1_555
O1_4 C1_4 1_555 1_555
O3_4 Er4 1_555 1_555
O4_4 Er4 1_555 1_555
O23 C68_4 1_555 1_555
C1_4 O9_4 1_555 1_555
H1_4 O3_4 1_555 1_555
H2_4 O3_4 1_555 1_555
C3_4 O4_4 1_555 1_555
C5_4 C1_4 1_555 1_555
N1_4 C3_4 1_555 1_555
H3_4 C3_4 1_555 1_555
O26 C68_4 1_555 1_555
C8_4 C5_4 1_555 1_555
C9_4 C5_4 1_555 1_555
C12_4 N1_4 1_555 1_555
C13_4 N1_4 1_555 1_555
H6_4 C8_4 1_555 1_555
C18_4 C8_4 1_555 1_555
O15_4 C9_4 1_555 1_555
C19_4 C9_4 1_555 1_555
H8_4 C12_4 1_555 1_555
H9_4 C12_4 1_555 1_555
H10_4 C12_4 1_555 1_555
H11_4 C13_4 1_555 1_555
H12_4 C13_4 1_555 1_555
H13_4 C13_4 1_555 1_555
C25_4 C18_4 1_555 1_555
C26_4 C18_4 1_555 1_555
H16_4 O15_4 1_555 1_555
C27_2 C19_4 1_555 1_555
H19_4 C25_4 1_555 1_555
C38_4 C25_4 1_555 1_555
C39_2 C26_4 1_555 1_555
H20_2 C27_2 1_555 1_555
H21_2 C27_2 1_555 1_555
C40_4 C27_2 1_555 1_555
H35 C38_4 1_555 1_555
C48_2 C38_4 1_555 1_555
H36_2 C39_2 1_555 1_555
C49_4 C40_4 1_555 1_555
C50_4 C40_4 1_555 1_555
H42_2 C48_2 1_555 1_555
C57_2 C49_4 1_555 1_555
C58_4 C49_4 1_555 1_555
O20_4 C50_4 1_555 1_555
C59_4 C50_4 1_555 1_555
H46_2 C57_2 1_555 1_555
C65_2 C57_2 1_555 1_555
C66_4 C58_4 1_555 1_555
C67_4 C58_4 1_555 1_555
H47_4 O20_4 1_555 1_555
C68_4 C59_4 1_555 1_555
H52_2 C65_2 1_555 1_555
C74_4 C65_2 1_555 1_555
H53_4 C66_4 1_555 1_555
H54_4 C67_4 1_555 1_555
H59_4 C74_4 1_555 1_555
C19_4 C26_4 1_555 1_555
C39_2 C48_2 1_555 1_555
C59_4 C67_4 1_555 1_555
C66_4 C74_4 1_555 1_555
O25_2 C16_4 1_555 1_555
C16_4 O18_4 1_555 1_555
H41_4 O19_4 1_555 1_555
C2_4 O2_4 1_555 1_555
C4_4 O5_4 1_555 1_555
O10_4 C2_4 1_555 1_555
C6_4 C2_4 1_555 1_555
C7_4 C4_4 1_555 1_555
O12_4 Er7 1_555 1_555
O13_4 Er7 1_555 1_555
C10_4 C6_4 1_555 1_555
C11_4 C6_4 1_555 1_555
C14_4 C7_4 1_555 1_555
C15_4 C7_4 1_555 1_555
H4_4 O12_4 1_555 1_555
H5_4 O12_4 1_555 1_555
C17_4 O13_4 1_555 1_555
H7_4 C10_4 1_555 1_555
C20_4 C10_4 1_555 1_555
O16_4 C11_4 1_555 1_555
C21_4 C11_4 1_555 1_555
H14_4 C14_4 1_555 1_555
C22_4 C14_4 1_555 1_555
C23_4 C15_4 1_555 1_555
O17_4 C15_4 1_555 1_555
N2_4 C17_4 1_555 1_555
H15_4 C17_4 1_555 1_555
C28_4 C20_4 1_555 1_555
C29_4 C20_4 1_555 1_555
H17_4 O16_4 1_555 1_555
C30_4 C21_4 1_555 1_555
C31_4 C22_4 1_555 1_555
C32_4 C22_4 1_555 1_555
C33_4 C23_4 1_555 1_555
H18_4 O17_4 1_555 1_555
C34_4 C24_4 1_555 1_555
C35_4 C24_4 1_555 1_555
C36_4 N2_4 1_555 1_555
C37_4 N2_4 1_555 1_555
H22_4 C28_4 1_555 1_555
C41_4 C28_4 1_555 1_555
C42_4 C29_4 1_555 1_555
H23_4 C30_4 1_555 1_555
H24_4 C30_4 1_555 1_555
C43_4 C30_4 1_555 1_555
C44_4 C31_4 1_555 1_555
C45_4 C32_4 1_555 1_555
H25_4 C32_4 1_555 1_555
C46_4 C33_4 1_555 1_555
H26_4 C33_4 1_555 1_555
H27_4 C33_4 1_555 1_555
H28_4 C34_4 1_555 1_555
C47_4 C34_4 1_555 1_555
H29_4 C36_4 1_555 1_555
H30_4 C36_4 1_555 1_555
H31_4 C36_4 1_555 1_555
H32_4 C37_4 1_555 1_555
H33_4 C37_4 1_555 1_555
H34_4 C37_4 1_555 1_555
H37_4 C41_4 1_555 1_555
C51_4 C41_4 1_555 1_555
H38_4 C42_4 1_555 1_555
C52_4 C43_4 1_555 1_555
C53_4 C43_4 1_555 1_555
C54_4 C44_4 1_555 1_555
H39_4 C44_4 1_555 1_555
H40_4 C45_4 1_555 1_555
C55_4 C46_4 1_555 1_555
C56_4 C47_4 1_555 1_555
H43_4 C51_4 1_555 1_555
C60_4 C52_4 1_555 1_555
C61_4 C52_4 1_555 1_555
O21_4 C53_4 1_555 1_555
C62_4 C53_4 1_555 1_555
C63_4 C55_4 1_555 1_555
H45_4 C56_4 1_555 1_555
C64_4 C56_4 1_555 1_555
H48_4 C60_4 1_555 1_555
C69_4 C60_4 1_555 1_555
C70_4 C61_4 1_555 1_555
C71_4 C61_4 1_555 1_555
H49_4 O21_4 1_555 1_555
C73_4 C63_4 1_555 1_555
H50_4 C63_4 1_555 1_555
H51_4 C64_4 1_555 1_555
H55_4 C69_4 1_555 1_555
C75_4 C69_4 1_555 1_555
H56_4 C70_4 1_555 1_555
H58_4 C73_4 1_555 1_555
H60_2 C75_4 1_555 1_555
O6_4 C4_4 1_555 1_555
Er7 O10_4 1_555 1_555
C21_4 C29_4 1_555 1_555
C23_4 C31_4 1_555 1_555
C35_4 C46_4 1_555 1_555
C42_4 C51_4 1_555 1_555
C45_4 C54_4 1_555 1_555
C47_4 C55_4 1_555 1_555
C62_4 C71_4 1_555 1_555
C64_4 C73_4 1_555 1_555
C70_4 C75_4 1_555 1_555
H20_3 C27_3 1_555 1_555
H21_3 C27_3 1_555 1_555
H36_3 C39_3 1_555 1_555
H42_3 C48_3 1_555 1_555
H46_3 C57_3 1_555 1_555
C65_3 C57_3 1_555 1_555
H52_3 C65_3 1_555 1_555
C39_3 C48_3 1_555 1_555
H20_4 C27_4 1_555 1_555
H21_4 C27_4 1_555 1_555
H36_4 C39_4 1_555 1_555
H42_4 C48_4 1_555 1_555
H46_4 C57_4 1_555 1_555
C65_4 C57_4 1_555 1_555
H52_4 C65_4 1_555 1_555
C39_4 C48_4 1_555 1_555

#END
