
###############################################################################
#
# This file contains modified crystal structure data generated from the
# MOF subset of the Cambridge Structural Database (CSD) v543 
# hosted by the Cambridge Crystallographic Data Centre (CCDC).
#
# This work is licensed under the Creative Commons
# Attribution-NonCommercial-ShareAlike 4.0 International License.
# To view a copy of this license, visit
# http://creativecommons.org/licenses/by-nc-sa/4.0/
# or send a letter to
# Creative Commons, PO Box 1866, Mountain View, CA 94042, USA.
#
# CIF created using the CSD Python API on 29 September 2022
# The structure has been converted into the P1 space group
# The structure has a 3D framework
# The original CSD entry RUBDUP is in the cubic crystal system
# The original CSD entry RUBDUP is in a Sohncke space group
# The framework has been calculated to contain at least 10.0% void space
# The void calculation uses a probe of radius 1.32A, grid spacing 0.4
# H atom positions have been added when not included in the experimental data
# Generated hydrogen atom positions removed from atoms on special positions
#
###############################################################################

data_RUBDUP
_chemical_formula_moiety         '(C408 H192 O56 Zn12)n'
_symmetry_cell_setting           triclinic
_symmetry_space_group_name_H-M   'P 1'
_symmetry_Int_Tables_number      1
_space_group_name_Hall           'P 1'
loop_
_symmetry_equiv_pos_site_id
_symmetry_equiv_pos_as_xyz
1 x,y,z
_cell_length_a                   33.261(4)
_cell_length_b                   33.261(4)
_cell_length_c                   33.261(4)
_cell_angle_alpha                90
_cell_angle_beta                 90
_cell_angle_gamma                90
_cell_volume                     36796.4
loop_
_atom_site_label
_atom_site_type_symbol
_atom_site_fract_x
_atom_site_fract_y
_atom_site_fract_z
Zn1 Zn 0.3750 0.6250 0.1250
Zn2 Zn 0.43692(3) 0.56308(3) 0.06308(3)
O1 O 0.37364(16) 0.62649(17) 0.06079(16)
O2 O 0.3944(2) 0.5744(2) 0.0263(2)
O3 O 0.47224(16) 0.52776(16) 0.02776(16)
C1 C 0.3184(2) 0.6514(2) 0.00701(18)
H1 H 0.3221 0.6679 0.0293
C2 C 0.34127(18) 0.6167(2) 0.0028(2)
C7 C 0.3737(3) 0.6022(4) 0.0317(4)
C12 C 0.1536(6) 0.8072(3) 0.0117(9)
H5 H 0.1359 0.8282 0.0170
C13 C 0.1846(8) 0.7987(7) 0.0384(4)
H6 H 0.1876 0.8140 0.0616
C14 C 0.2111(4) 0.7674(8) 0.0304(7)
H7 H 0.2318 0.7617 0.0483
Zn3 Zn 0.31308(3) 0.68692(3) 0.18692(3)
O8 O 0.27776(16) 0.72224(16) 0.22224(16)
O9 O 0.31079(16) 0.62351(17) 0.12364(16)
O10 O 0.2763(2) 0.6756(2) 0.1444(2)
C52 C 0.25701(18) 0.5986(2) 0.0684(2)
H22 H 0.2793 0.5821 0.0721
C53 C 0.2528(2) 0.6333(2) 0.09127(18)
C54 C 0.2195(3) 0.65799(19) 0.0858(2)
H23 H 0.2167 0.6812 0.1011
C55 C 0.1904(2) 0.6479(3) 0.0575(2)
C56 C 0.1946(2) 0.6132(3) 0.0347(2)
H24 H 0.1752 0.6064 0.0158
C57 C 0.2279(3) 0.5885(2) 0.0402(2)
C58 C 0.2817(4) 0.6478(4) 0.1237(3)
C59 C 0.2337(3) 0.5574(4) 0.0134(4)
C67 C 0.1278(5) 0.6967(5) 0.0496(6)
C68 C 0.1548(4) 0.6739(5) 0.0531(5)
C95 C 0.0744(8) 0.7189(4) 0.0031(6)
C96 C 0.1009(4) 0.7269(7) 0.0344(8)
C97 C 0.0964(6) 0.7617(9) 0.0572(3)
H40 H 0.1141 0.7670 0.0782
C98 C 0.0654(8) 0.7884(4) 0.0487(7)
H41 H 0.0624 0.8116 0.0640
C99 C 0.0389(4) 0.7804(7) 0.0174(8)
H42 H 0.0182 0.7983 0.0117
O15 O 0.43921(16) 0.62636(16) 0.12649(17)
O16 O 0.37351(17) 0.56079(16) 0.12636(16)
O17 O 0.37649(17) 0.62364(16) 0.18921(16)
O18 O 0.37636(16) 0.68921(16) 0.12351(17)
O19 O 0.4737(2) 0.6056(2) 0.0744(2)
O20 O 0.4256(2) 0.5263(2) 0.1056(2)
O21 O 0.3244(2) 0.6444(2) 0.2237(2)
O22 O 0.3556(2) 0.7237(2) 0.1756(2)
C3 C 0.3358(2) 0.59201(19) 0.9695(3)
H2 H 0.3511 0.5688 0.9667
C4 C 0.3075(2) 0.6021(3) 0.9404(2)
C5 C 0.2847(2) 0.6368(3) 0.9446(2)
H3 H 0.2658 0.6436 0.9252
C6 C 0.2902(2) 0.6615(2) 0.9779(3)
C8 C 0.2634(4) 0.6926(4) 0.9837(3)
C9 C 0.2401(3) 0.7197(4) 0.9858(4)
C10 C 0.1756(8) 0.7531(6) 0.9689(4)
H4 H 0.1726 0.7378 0.9457
C11 C 0.1491(4) 0.7844(8) 0.9769(7)
C15 C 0.2066(5) 0.7446(4) 0.9957(9)
C16 C 0.2996(6) 0.5533(5) 0.8778(5)
C17 C 0.3031(5) 0.5761(5) 0.9048(4)
C20 C 0.0305(3) 0.8358(2) 0.90799(19)
H9 H 0.0333 0.8511 0.9312
C21 C 0.0596(2) 0.8075(2) 0.8979(3)
C22 C 0.0554(2) 0.7847(2) 0.8632(3)
H10 H 0.0748 0.7658 0.8564
C23 C 0.0221(3) 0.7902(2) 0.8385(2)
C25 C 0.0163(3) 0.7634(4) 0.8074(4)
C26 C 0.0142(4) 0.7401(3) 0.7803(4)
C27 C 0.0311(4) 0.6756(8) 0.7469(6)
H11 H 0.0543 0.6726 0.7622
C28 C 0.0231(7) 0.6491(4) 0.7156(8)
C32 C 0.0043(9) 0.7066(5) 0.7554(4)
C33 C 0.1222(5) 0.7996(6) 0.9467(5)
C34 C 0.0952(4) 0.8031(5) 0.9239(5)
O6 O 0.12649(17) 0.43921(16) 0.62636(16)
O7 O 0.0744(2) 0.4737(2) 0.6056(2)
C35 C 0.1514(2) 0.49299(18) 0.6816(2)
H15 H 0.1679 0.4707 0.6779
C36 C 0.1167(2) 0.4972(2) 0.65873(18)
C37 C 0.09201(19) 0.5305(3) 0.6642(2)
H16 H 0.0688 0.5333 0.6489
C38 C 0.1021(3) 0.5596(2) 0.6925(2)
C39 C 0.1368(3) 0.5554(2) 0.7153(2)
H17 H 0.1436 0.5748 0.7342
C40 C 0.1615(2) 0.5221(3) 0.7098(2)
C41 C 0.1022(4) 0.4683(4) 0.6263(3)
C42 C 0.1926(4) 0.5163(3) 0.7366(4)
C43 C 0.2197(4) 0.5142(4) 0.7599(3)
C44 C 0.2531(6) 0.5311(4) 0.8244(8)
H18 H 0.2378 0.5543 0.8274
C45 C 0.2844(8) 0.5231(7) 0.8509(4)
C46 C 0.3072(3) 0.4883(9) 0.8464(6)
H19 H 0.3282 0.4830 0.8641
C47 C 0.2987(7) 0.4616(4) 0.8154(8)
H20 H 0.3140 0.4384 0.8124
C48 C 0.2674(8) 0.4696(7) 0.7889(4)
H21 H 0.2617 0.4517 0.7682
C49 C 0.2446(4) 0.5043(9) 0.7934(5)
C50 C 0.0533(5) 0.6222(5) 0.7004(6)
C51 C 0.0761(5) 0.5952(4) 0.6969(5)
C60 C 0.2358(4) 0.5303(4) 0.9901(3)
C61 C 0.2189(4) 0.4969(6) 0.9256(8)
H25 H 0.1957 0.5122 0.9226
C62 C 0.2269(7) 0.4656(8) 0.8991(4)
C63 C 0.2617(9) 0.4428(3) 0.9036(6)
H26 H 0.2670 0.4218 0.8859
C64 C 0.2884(4) 0.4513(7) 0.9346(8)
H27 H 0.3116 0.4360 0.9376
C65 C 0.2804(7) 0.4826(8) 0.9611(4)
H28 H 0.2983 0.4883 0.9818
C66 C 0.2457(9) 0.5054(4) 0.9566(5)
O11 O 0.12351(17) 0.37636(16) 0.68921(16)
O12 O 0.1756(2) 0.3556(2) 0.7237(2)
C69 C 0.0986(2) 0.4316(2) 0.74299(18)
H29 H 0.0821 0.4279 0.7207
C70 C 0.1333(2) 0.40873(18) 0.7472(2)
C71 C 0.15799(19) 0.4142(2) 0.7805(3)
H30 H 0.1812 0.3989 0.7833
C72 C 0.1479(3) 0.4425(2) 0.8096(2)
C73 C 0.1132(3) 0.4653(2) 0.8054(2)
H31 H 0.1064 0.4842 0.8248
C74 C 0.0885(2) 0.4598(2) 0.7721(3)
C75 C 0.1478(4) 0.3763(3) 0.7183(4)
C76 C 0.0574(4) 0.4866(4) 0.7663(3)
C77 C 0.0303(4) 0.5099(3) 0.7642(4)
H32 H 0.0122 0.5774 0.8043
C83 C 0.0054(4) 0.5434(5) 0.7543(9)
C84 C 0.1967(5) 0.4504(6) 0.8722(5)
C85 C 0.1739(5) 0.4469(5) 0.8452(4)
C94 C 0.0099(3) 0.7358(4) 0.9697(4)
H39 H 0.0774 0.6957 0.9878
C100 C 0.0434(5) 0.7457(9) 0.9946(4)
Zn4 Zn 0.1250 0.3750 0.6250
Zn6 Zn 0.06308(3) 0.43692(3) 0.56308(3)
Zn8 Zn 0.18692(3) 0.31308(3) 0.68692(3)
O1_2 O 0.12636(16) 0.37351(17) 0.56079(16)
O2_2 O 0.1056(2) 0.4256(2) 0.5263(2)
O3_2 O 0.02776(16) 0.47224(16) 0.52776(16)
C1_2 C 0.1816(2) 0.3486(2) 0.50701(18)
H1_2 H 0.1779 0.3321 0.5293
C2_2 C 0.15873(18) 0.3833(2) 0.5028(2)
C3_2 C 0.1642(2) 0.40799(19) 0.4695(3)
H2_2 H 0.1489 0.4312 0.4667
C4_2 C 0.1925(2) 0.3979(3) 0.4404(2)
C5_2 C 0.2153(2) 0.3632(3) 0.4446(2)
H3_2 H 0.2342 0.3564 0.4252
C6_2 C 0.2098(2) 0.3385(2) 0.4779(3)
C7_2 C 0.1263(3) 0.3978(4) 0.5317(4)
C8_2 C 0.2366(4) 0.3074(4) 0.4837(3)
C9_2 C 0.2599(3) 0.2803(4) 0.4858(4)
C10_2 C 0.3244(8) 0.2469(6) 0.4689(4)
H4_2 H 0.3274 0.2622 0.4457
C11_2 C 0.3509(4) 0.2156(8) 0.4769(7)
C12_2 C 0.3464(6) 0.1928(3) 0.5117(9)
H5_2 H 0.3641 0.1718 0.5170
C13_2 C 0.3154(8) 0.2013(7) 0.5384(4)
H6_2 H 0.3124 0.1860 0.5616
C14_2 C 0.2889(4) 0.2326(8) 0.5304(7)
H7_2 H 0.2682 0.2383 0.5483
C15_2 C 0.2934(5) 0.2554(4) 0.4957(9)
C16_2 C 0.2004(6) 0.4467(5) 0.3778(5)
C17_2 C 0.1969(5) 0.4239(5) 0.4048(4)
O4 O 0.56079(16) 0.12636(16) 0.37351(17)
O5 O 0.5263(2) 0.1056(2) 0.4256(2)
C18 C 0.50701(18) 0.1816(2) 0.3486(2)
H8 H 0.5293 0.1779 0.3321
C19 C 0.5028(2) 0.15873(18) 0.3833(2)
C20_2 C 0.4695(3) 0.1642(2) 0.40799(19)
H9_2 H 0.4667 0.1489 0.4312
C21_2 C 0.4404(2) 0.1925(2) 0.3979(3)
C22_2 C 0.4446(2) 0.2153(2) 0.3632(3)
H10_2 H 0.4252 0.2342 0.3564
C23_2 C 0.4779(3) 0.2098(2) 0.3385(2)
C24 C 0.5317(4) 0.1263(3) 0.3978(4)
C25_2 C 0.4837(3) 0.2366(4) 0.3074(4)
C26_2 C 0.4858(4) 0.2599(3) 0.2803(4)
C27_2 C 0.4689(4) 0.3244(8) 0.2469(6)
H11_2 H 0.4457 0.3274 0.2622
C28_2 C 0.4769(7) 0.3509(4) 0.2156(8)
C29 C 0.5117(9) 0.3464(6) 0.1928(3)
H12 H 0.5170 0.3641 0.1718
C30 C 0.5384(4) 0.3154(8) 0.2013(7)
H13 H 0.5616 0.3124 0.1860
C31 C 0.5304(7) 0.2889(4) 0.2326(8)
H14 H 0.5483 0.2682 0.2383
C32_2 C 0.4957(9) 0.2934(5) 0.2554(4)
C33_2 C 0.3778(5) 0.2004(6) 0.4467(5)
C34_2 C 0.4048(4) 0.1969(5) 0.4239(5)
C35_2 C 0.3486(2) 0.50701(18) 0.1816(2)
H15_2 H 0.3321 0.5293 0.1779
C36_2 C 0.3833(2) 0.5028(2) 0.15873(18)
C37_2 C 0.40799(19) 0.4695(3) 0.1642(2)
H16_2 H 0.4312 0.4667 0.1489
C38_2 C 0.3979(3) 0.4404(2) 0.1925(2)
C39_2 C 0.3632(3) 0.4446(2) 0.2153(2)
H17_2 H 0.3564 0.4252 0.2342
C40_2 C 0.3385(2) 0.4779(3) 0.2098(2)
C41_2 C 0.3978(4) 0.5317(4) 0.1263(3)
C42_2 C 0.3074(4) 0.4837(3) 0.2366(4)
C43_2 C 0.2803(4) 0.4858(4) 0.2599(3)
C44_2 C 0.2469(6) 0.4689(4) 0.3244(8)
H18_2 H 0.2622 0.4457 0.3274
C45_2 C 0.2156(8) 0.4769(7) 0.3509(4)
C46_2 C 0.1928(3) 0.5117(9) 0.3464(6)
H19_2 H 0.1718 0.5170 0.3641
C47_2 C 0.2013(7) 0.5384(4) 0.3154(8)
H20_2 H 0.1860 0.5616 0.3124
C48_2 C 0.2326(8) 0.5304(7) 0.2889(4)
H21_2 H 0.2383 0.5483 0.2682
C49_2 C 0.2554(4) 0.4957(9) 0.2934(5)
C50_2 C 0.4467(5) 0.3778(5) 0.2004(6)
C51_2 C 0.4239(5) 0.4048(4) 0.1969(5)
O8_2 O 0.22224(16) 0.27776(16) 0.72224(16)
O9_2 O 0.18921(16) 0.37649(17) 0.62364(16)
O10_2 O 0.2237(2) 0.3244(2) 0.6444(2)
C52_2 C 0.24299(18) 0.4014(2) 0.5684(2)
H22_2 H 0.2207 0.4179 0.5721
C53_2 C 0.2472(2) 0.3667(2) 0.59127(18)
C54_2 C 0.2805(3) 0.34201(19) 0.5858(2)
H23_2 H 0.2833 0.3188 0.6011
C55_2 C 0.3096(2) 0.3521(3) 0.5575(2)
C56_2 C 0.3054(2) 0.3868(3) 0.5347(2)
H24_2 H 0.3248 0.3936 0.5158
C57_2 C 0.2721(3) 0.4115(2) 0.5402(2)
C58_2 C 0.2183(4) 0.3522(4) 0.6237(3)
C59_2 C 0.2663(3) 0.4426(4) 0.5134(4)
C60_2 C 0.2642(4) 0.4697(4) 0.4901(3)
C61_2 C 0.2811(4) 0.5031(6) 0.4256(8)
H25_2 H 0.3043 0.4878 0.4226
C62_2 C 0.2731(7) 0.5344(8) 0.3991(4)
C63_2 C 0.2383(9) 0.5572(3) 0.4036(6)
H26_2 H 0.2330 0.5782 0.3859
C64_2 C 0.2116(4) 0.5487(7) 0.4346(8)
H27_2 H 0.1884 0.5640 0.4376
C65_2 C 0.2196(7) 0.5174(8) 0.4611(4)
H28_2 H 0.2017 0.5117 0.4818
C66_2 C 0.2543(9) 0.4946(4) 0.4566(5)
C67_2 C 0.3722(5) 0.3033(5) 0.5496(6)
C68_2 C 0.3452(4) 0.3261(5) 0.5531(5)
C69_2 C 0.4014(2) 0.5684(2) 0.24299(18)
H29_2 H 0.4179 0.5721 0.2207
C70_2 C 0.3667(2) 0.59127(18) 0.2472(2)
C71_2 C 0.34201(19) 0.5858(2) 0.2805(3)
H30_2 H 0.3188 0.6011 0.2833
C72_2 C 0.3521(3) 0.5575(2) 0.3096(2)
C73_2 C 0.3868(3) 0.5347(2) 0.3054(2)
H31_2 H 0.3936 0.5158 0.3248
C74_2 C 0.4115(2) 0.5402(2) 0.2721(3)
C75_2 C 0.3522(4) 0.6237(3) 0.2183(4)
C76_2 C 0.4426(4) 0.5134(4) 0.2663(3)
C77_2 C 0.4697(4) 0.4901(3) 0.2642(4)
C78 C 0.5031(6) 0.4256(8) 0.2811(4)
H32_2 H 0.4878 0.4226 0.3043
C79 C 0.5344(8) 0.3991(4) 0.2731(7)
C80 C 0.5572(3) 0.4036(6) 0.2383(9)
H33 H 0.5782 0.3859 0.2330
C81 C 0.5487(7) 0.4346(8) 0.2116(4)
H34 H 0.5640 0.4376 0.1884
C82 C 0.5174(8) 0.4611(4) 0.2196(7)
H35 H 0.5117 0.4818 0.2017
C83_2 C 0.4946(4) 0.4566(5) 0.2543(9)
C84_2 C 0.3033(5) 0.5496(6) 0.3722(5)
C85_2 C 0.3261(5) 0.5531(5) 0.3452(4)
O13 O 0.62364(16) 0.18921(16) 0.37649(17)
O14 O 0.6444(2) 0.2237(2) 0.3244(2)
C86 C 0.5684(2) 0.24299(18) 0.4014(2)
H36 H 0.5721 0.2207 0.4179
C87 C 0.59127(18) 0.2472(2) 0.3667(2)
C88 C 0.5858(2) 0.2805(3) 0.34201(19)
H37 H 0.6011 0.2833 0.3188
C89 C 0.5575(2) 0.3096(2) 0.3521(3)
C90 C 0.5347(2) 0.3054(2) 0.3868(3)
H38 H 0.5158 0.3248 0.3936
C91 C 0.5402(2) 0.2721(3) 0.4115(2)
C92 C 0.6237(3) 0.2183(4) 0.3522(4)
C93 C 0.5134(4) 0.2663(3) 0.4426(4)
C94_2 C 0.4901(3) 0.2642(4) 0.4697(4)
C95_2 C 0.4256(8) 0.2811(4) 0.5031(6)
H39_2 H 0.4226 0.3043 0.4878
C96_2 C 0.3991(4) 0.2731(7) 0.5344(8)
C97_2 C 0.4036(6) 0.2383(9) 0.5572(3)
H40_2 H 0.3859 0.2330 0.5782
C98_2 C 0.4346(8) 0.2116(4) 0.5487(7)
H41_2 H 0.4376 0.1884 0.5640
C99_2 C 0.4611(4) 0.2196(7) 0.5174(8)
H42_2 H 0.4818 0.2017 0.5117
C100_2 C 0.4566(5) 0.2543(9) 0.4946(4)
C101 C 0.5496(6) 0.3722(5) 0.3033(5)
C102 C 0.5531(5) 0.3452(4) 0.3261(5)
Zn5 Zn 0.6250 0.1250 0.3750
Zn7 Zn 0.56308(3) 0.06308(3) 0.43692(3)
Zn9 Zn 0.68692(3) 0.18692(3) 0.31308(3)
O15_2 O 0.06079(16) 0.37364(16) 0.62649(17)
O18_2 O 0.12364(16) 0.31079(16) 0.62351(17)
O19_2 O 0.0263(2) 0.3944(2) 0.5744(2)
O22_2 O 0.1444(2) 0.2763(2) 0.6756(2)
C18_2 C 0.00701(18) 0.3184(2) 0.6514(2)
H8_2 H 0.0293 0.3221 0.6679
C19_2 C 0.0028(2) 0.34127(18) 0.6167(2)
C24_2 C 0.0317(4) 0.3737(3) 0.6022(4)
C29_2 C 0.0117(9) 0.1536(6) 0.8072(3)
H12_2 H 0.0170 0.1359 0.8282
C30_2 C 0.0384(4) 0.1846(8) 0.7987(7)
H13_2 H 0.0616 0.1876 0.8140
C31_2 C 0.0304(7) 0.2111(4) 0.7674(8)
H14_2 H 0.0483 0.2318 0.7617
C78_2 C 0.0031(6) 0.0744(8) 0.7189(4)
C79_2 C 0.0344(8) 0.1009(4) 0.7269(7)
C80_2 C 0.0572(3) 0.0964(6) 0.7617(9)
H33_2 H 0.0782 0.1141 0.7670
C81_2 C 0.0487(7) 0.0654(8) 0.7884(4)
H34_2 H 0.0640 0.0624 0.8116
C82_2 C 0.0174(8) 0.0389(4) 0.7804(7)
H35_2 H 0.0117 0.0182 0.7983
C86_2 C 0.0684(2) 0.25701(18) 0.5986(2)
H36_2 H 0.0721 0.2793 0.5821
C87_2 C 0.09127(18) 0.2528(2) 0.6333(2)
C88_2 C 0.0858(2) 0.2195(3) 0.65799(19)
H37_2 H 0.1011 0.2167 0.6812
C89_2 C 0.0575(2) 0.1904(2) 0.6479(3)
C90_2 C 0.0347(2) 0.1946(2) 0.6132(3)
H38_2 H 0.0158 0.1752 0.6064
C91_2 C 0.0402(2) 0.2279(3) 0.5885(2)
C92_2 C 0.1237(3) 0.2817(4) 0.6478(4)
C93_2 C 0.0134(4) 0.2337(3) 0.5574(4)
C101_2 C 0.0496(6) 0.1278(5) 0.6967(5)
C102_2 C 0.0531(5) 0.1548(4) 0.6739(5)
O1_3 O 0.62636(16) 0.12649(17) 0.43921(16)
O2_3 O 0.6056(2) 0.0744(2) 0.4737(2)
O3_3 O 0.52776(16) 0.02776(16) 0.47224(16)
C1_3 C 0.6816(2) 0.1514(2) 0.49299(18)
H1_3 H 0.6779 0.1679 0.4707
C2_3 C 0.65873(18) 0.1167(2) 0.4972(2)
C3_3 C 0.6642(2) 0.09201(19) 0.5305(3)
H2_3 H 0.6489 0.0688 0.5333
C4_3 C 0.6925(2) 0.1021(3) 0.5596(2)
C5_3 C 0.7153(2) 0.1368(3) 0.5554(2)
H3_3 H 0.7342 0.1436 0.5748
C6_3 C 0.7098(2) 0.1615(2) 0.5221(3)
C7_3 C 0.6263(3) 0.1022(4) 0.4683(4)
C8_3 C 0.7366(4) 0.1926(4) 0.5163(3)
C9_3 C 0.7599(3) 0.2197(4) 0.5142(4)
C10_3 C 0.8244(8) 0.2531(6) 0.5311(4)
H4_3 H 0.8274 0.2378 0.5543
C11_3 C 0.8509(4) 0.2844(8) 0.5231(7)
C12_3 C 0.8464(6) 0.3072(3) 0.4883(9)
H5_3 H 0.8641 0.3282 0.4830
C13_3 C 0.8154(8) 0.2987(7) 0.4616(4)
H6_3 H 0.8124 0.3140 0.4384
C14_3 C 0.7889(4) 0.2674(8) 0.4696(7)
H7_3 H 0.7682 0.2617 0.4517
C15_3 C 0.7934(5) 0.2446(4) 0.5043(9)
C16_3 C 0.7004(6) 0.0533(5) 0.6222(5)
C17_3 C 0.6969(5) 0.0761(5) 0.5952(4)
C20_3 C 0.9695(3) 0.3358(2) 0.59201(19)
H9_3 H 0.9667 0.3511 0.5688
C21_3 C 0.9404(2) 0.3075(2) 0.6021(3)
C22_3 C 0.9446(2) 0.2847(2) 0.6368(3)
H10_3 H 0.9252 0.2658 0.6436
C23_3 C 0.9779(3) 0.2902(2) 0.6615(2)
C25_3 C 0.9837(3) 0.2634(4) 0.6926(4)
C26_3 C 0.9858(4) 0.2401(3) 0.7197(4)
C27_3 C 0.9689(4) 0.1756(8) 0.7531(6)
H11_3 H 0.9457 0.1726 0.7378
C28_3 C 0.9769(7) 0.1491(4) 0.7844(8)
C32_3 C 0.9957(9) 0.2066(5) 0.7446(4)
C33_3 C 0.8778(5) 0.2996(6) 0.5533(5)
C34_3 C 0.9048(4) 0.3031(5) 0.5761(5)
C37_3 C 0.90799(19) 0.0305(3) 0.8358(2)
H16_3 H 0.9312 0.0333 0.8511
C38_3 C 0.8979(3) 0.0596(2) 0.8075(2)
C39_3 C 0.8632(3) 0.0554(2) 0.7847(2)
H17_3 H 0.8564 0.0748 0.7658
C40_3 C 0.8385(2) 0.0221(3) 0.7902(2)
C42_3 C 0.8074(4) 0.0163(3) 0.7634(4)
C43_3 C 0.7803(4) 0.0142(4) 0.7401(3)
C44_3 C 0.7469(6) 0.0311(4) 0.6756(8)
H18_3 H 0.7622 0.0543 0.6726
C45_3 C 0.7156(8) 0.0231(7) 0.6491(4)
C49_3 C 0.7554(4) 0.0043(9) 0.7066(5)
C50_3 C 0.9467(5) 0.1222(5) 0.7996(6)
C51_3 C 0.9239(5) 0.0952(4) 0.8031(5)
O8_3 O 0.72224(16) 0.22224(16) 0.27776(16)
O9_3 O 0.68921(16) 0.12351(17) 0.37636(16)
O10_3 O 0.7237(2) 0.1756(2) 0.3556(2)
C52_3 C 0.74299(18) 0.0986(2) 0.4316(2)
H22_3 H 0.7207 0.0821 0.4279
C53_3 C 0.7472(2) 0.1333(2) 0.40873(18)
C54_3 C 0.7805(3) 0.15799(19) 0.4142(2)
H23_3 H 0.7833 0.1812 0.3989
C55_3 C 0.8096(2) 0.1479(3) 0.4425(2)
C56_3 C 0.8054(2) 0.1132(3) 0.4653(2)
H24_3 H 0.8248 0.1064 0.4842
C57_3 C 0.7721(3) 0.0885(2) 0.4598(2)
C58_3 C 0.7183(4) 0.1478(4) 0.3763(3)
C59_3 C 0.7663(3) 0.0574(4) 0.4866(4)
C60_3 C 0.7642(4) 0.0303(4) 0.5099(3)
H25_3 H 0.8043 0.0122 0.5774
C66_3 C 0.7543(9) 0.0054(4) 0.5434(5)
C67_3 C 0.8722(5) 0.1967(5) 0.4504(6)
C68_3 C 0.8452(4) 0.1739(5) 0.4469(5)
C77_3 C 0.9697(4) 0.0099(3) 0.7358(4)
H32_3 H 0.9878 0.0774 0.6957
C83_3 C 0.9946(4) 0.0434(5) 0.7457(9)
C94_3 C 0.9901(3) 0.2358(4) 0.5303(4)
C95_3 C 0.9256(8) 0.2189(4) 0.4969(6)
H39_3 H 0.9226 0.1957 0.5122
C96_3 C 0.8991(4) 0.2269(7) 0.4656(8)
C97_3 C 0.9036(6) 0.2617(9) 0.4428(3)
H40_3 H 0.8859 0.2670 0.4218
C98_3 C 0.9346(8) 0.2884(4) 0.4513(7)
H41_3 H 0.9376 0.3116 0.4360
C99_3 C 0.9611(4) 0.2804(7) 0.4826(8)
H42_3 H 0.9818 0.2983 0.4883
C100_3 C 0.9566(5) 0.2457(9) 0.5054(4)
O16_2 O 0.62649(17) 0.06079(16) 0.37364(16)
O17_2 O 0.62351(17) 0.12364(16) 0.31079(16)
O20_2 O 0.5744(2) 0.0263(2) 0.3944(2)
O21_2 O 0.6756(2) 0.1444(2) 0.2763(2)
C35_3 C 0.6514(2) 0.00701(18) 0.3184(2)
H15_3 H 0.6679 0.0293 0.3221
C36_3 C 0.6167(2) 0.0028(2) 0.34127(18)
C41_3 C 0.6022(4) 0.0317(4) 0.3737(3)
C46_3 C 0.8072(3) 0.0117(9) 0.1536(6)
H19_3 H 0.8282 0.0170 0.1359
C47_3 C 0.7987(7) 0.0384(4) 0.1846(8)
H20_3 H 0.8140 0.0616 0.1876
C48_3 C 0.7674(8) 0.0304(7) 0.2111(4)
H21_3 H 0.7617 0.0483 0.2318
C61_3 C 0.7189(4) 0.0031(6) 0.0744(8)
C62_3 C 0.7269(7) 0.0344(8) 0.1009(4)
C63_3 C 0.7617(9) 0.0572(3) 0.0964(6)
H26_3 H 0.7670 0.0782 0.1141
C64_3 C 0.7884(4) 0.0487(7) 0.0654(8)
H27_3 H 0.8116 0.0640 0.0624
C65_3 C 0.7804(7) 0.0174(8) 0.0389(4)
H28_3 H 0.7983 0.0117 0.0182
C69_3 C 0.5986(2) 0.0684(2) 0.25701(18)
H29_3 H 0.5821 0.0721 0.2793
C70_3 C 0.6333(2) 0.09127(18) 0.2528(2)
C71_3 C 0.65799(19) 0.0858(2) 0.2195(3)
H30_3 H 0.6812 0.1011 0.2167
C72_3 C 0.6479(3) 0.0575(2) 0.1904(2)
C73_3 C 0.6132(3) 0.0347(2) 0.1946(2)
H31_3 H 0.6064 0.0158 0.1752
C74_3 C 0.5885(2) 0.0402(2) 0.2279(3)
C75_3 C 0.6478(4) 0.1237(3) 0.2817(4)
C76_3 C 0.5574(4) 0.0134(4) 0.2337(3)
C84_3 C 0.6967(5) 0.0496(6) 0.1278(5)
C85_3 C 0.6739(5) 0.0531(5) 0.1548(4)
C3_4 C 0.8358(2) 0.90799(19) 0.0305(3)
H2_4 H 0.8511 0.9312 0.0333
C4_4 C 0.8075(2) 0.8979(3) 0.0596(2)
C5_4 C 0.7847(2) 0.8632(3) 0.0554(2)
H3_4 H 0.7658 0.8564 0.0748
C6_4 C 0.7902(2) 0.8385(2) 0.0221(3)
C8_4 C 0.7634(4) 0.8074(4) 0.0163(3)
C9_4 C 0.7401(3) 0.7803(4) 0.0142(4)
C10_4 C 0.6756(8) 0.7469(6) 0.0311(4)
H4_4 H 0.6726 0.7622 0.0543
C11_4 C 0.6491(4) 0.7156(8) 0.0231(7)
C15_4 C 0.7066(5) 0.7554(4) 0.0043(9)
C16_4 C 0.7996(6) 0.9467(5) 0.1222(5)
C17_4 C 0.8031(5) 0.9239(5) 0.0952(4)
C18_3 C 0.49299(18) 0.6816(2) 0.1514(2)
H8_3 H 0.4707 0.6779 0.1679
C19_3 C 0.4972(2) 0.65873(18) 0.1167(2)
C20_4 C 0.5305(3) 0.6642(2) 0.09201(19)
H9_4 H 0.5333 0.6489 0.0688
C21_4 C 0.5596(2) 0.6925(2) 0.1021(3)
C22_4 C 0.5554(2) 0.7153(2) 0.1368(3)
H10_4 H 0.5748 0.7342 0.1436
C23_4 C 0.5221(3) 0.7098(2) 0.1615(2)
C24_3 C 0.4683(4) 0.6263(3) 0.1022(4)
C25_4 C 0.5163(3) 0.7366(4) 0.1926(4)
C26_4 C 0.5142(4) 0.7599(3) 0.2197(4)
C27_4 C 0.5311(4) 0.8244(8) 0.2531(6)
H11_4 H 0.5543 0.8274 0.2378
C28_4 C 0.5231(7) 0.8509(4) 0.2844(8)
C29_3 C 0.4883(9) 0.8464(6) 0.3072(3)
H12_3 H 0.4830 0.8641 0.3282
C30_3 C 0.4616(4) 0.8154(8) 0.2987(7)
H13_3 H 0.4384 0.8124 0.3140
C31_3 C 0.4696(7) 0.7889(4) 0.2674(8)
H14_3 H 0.4517 0.7682 0.2617
C32_4 C 0.5043(9) 0.7934(5) 0.2446(4)
C33_4 C 0.6222(5) 0.7004(6) 0.0533(5)
C34_4 C 0.5952(4) 0.6969(5) 0.0761(5)
C37_4 C 0.59201(19) 0.9695(3) 0.3358(2)
H16_4 H 0.5688 0.9667 0.3511
C38_4 C 0.6021(3) 0.9404(2) 0.3075(2)
C39_4 C 0.6368(3) 0.9446(2) 0.2847(2)
H17_4 H 0.6436 0.9252 0.2658
C40_4 C 0.6615(2) 0.9779(3) 0.2902(2)
C42_4 C 0.6926(4) 0.9837(3) 0.2634(4)
C43_4 C 0.7197(4) 0.9858(4) 0.2401(3)
C44_4 C 0.7531(6) 0.9689(4) 0.1756(8)
H18_4 H 0.7378 0.9457 0.1726
C45_4 C 0.7844(8) 0.9769(7) 0.1491(4)
C49_4 C 0.7446(4) 0.9957(9) 0.2066(5)
C50_4 C 0.5533(5) 0.8778(5) 0.2996(6)
C51_4 C 0.5761(5) 0.9048(4) 0.3031(5)
C60_4 C 0.7358(4) 0.9697(4) 0.0099(3)
H25_4 H 0.6957 0.9878 0.0774
C66_4 C 0.7457(9) 0.9946(4) 0.0434(5)
C77_4 C 0.5303(4) 0.9901(3) 0.2358(4)
C78_3 C 0.4969(6) 0.9256(8) 0.2189(4)
H32_4 H 0.5122 0.9226 0.1957
C79_3 C 0.4656(8) 0.8991(4) 0.2269(7)
C80_3 C 0.4428(3) 0.9036(6) 0.2617(9)
H33_3 H 0.4218 0.8859 0.2670
C81_3 C 0.4513(7) 0.9346(8) 0.2884(4)
H34_3 H 0.4360 0.9376 0.3116
C82_3 C 0.4826(8) 0.9611(4) 0.2804(7)
H35_3 H 0.4883 0.9818 0.2983
C83_4 C 0.5054(4) 0.9566(5) 0.2457(9)
C86_3 C 0.4316(2) 0.74299(18) 0.0986(2)
H36_3 H 0.4279 0.7207 0.0821
C87_3 C 0.40873(18) 0.7472(2) 0.1333(2)
C88_3 C 0.4142(2) 0.7805(3) 0.15799(19)
H37_3 H 0.3989 0.7833 0.1812
C89_3 C 0.4425(2) 0.8096(2) 0.1479(3)
C90_3 C 0.4653(2) 0.8054(2) 0.1132(3)
H38_3 H 0.4842 0.8248 0.1064
C91_3 C 0.4598(2) 0.7721(3) 0.0885(2)
C92_3 C 0.3763(3) 0.7183(4) 0.1478(4)
C93_3 C 0.4866(4) 0.7663(3) 0.0574(4)
C94_4 C 0.5099(3) 0.7642(4) 0.0303(4)
H39_4 H 0.5774 0.8043 0.0122
C100_4 C 0.5434(5) 0.7543(9) 0.0054(4)
C101_3 C 0.4504(6) 0.8722(5) 0.1967(5)
C102_3 C 0.4469(5) 0.8452(4) 0.1739(5)
O4_2 O 0.93921(16) 0.87364(16) 0.87351(17)
O5_2 O 0.9737(2) 0.8944(2) 0.9256(2)
C18_4 C 0.99299(18) 0.8184(2) 0.8486(2)
H8_4 H 0.9707 0.8221 0.8321
C19_4 C 0.9972(2) 0.84127(18) 0.8833(2)
C24_4 C 0.9683(4) 0.8737(3) 0.8978(4)
C29_4 C 0.9883(9) 0.6536(6) 0.6928(3)
H12_4 H 0.9830 0.6359 0.6718
C30_4 C 0.9616(4) 0.6846(8) 0.7013(7)
H13_4 H 0.9384 0.6876 0.6860
C31_4 C 0.9696(7) 0.7111(4) 0.7326(8)
H14_4 H 0.9517 0.7318 0.7383
C78_4 C 0.9969(6) 0.5744(8) 0.7811(4)
C79_4 C 0.9656(8) 0.6009(4) 0.7731(7)
C80_4 C 0.9428(3) 0.5964(6) 0.7383(9)
H33_4 H 0.9218 0.6141 0.7330
C81_4 C 0.9513(7) 0.5654(8) 0.7116(4)
H34_4 H 0.9360 0.5624 0.6884
C82_4 C 0.9826(8) 0.5389(4) 0.7196(7)
H35_4 H 0.9883 0.5182 0.7017
O13_2 O 0.87636(16) 0.81079(16) 0.87649(17)
O14_2 O 0.8556(2) 0.7763(2) 0.8244(2)
C86_4 C 0.9316(2) 0.75701(18) 0.9014(2)
H36_4 H 0.9279 0.7793 0.9179
C87_4 C 0.90873(18) 0.7528(2) 0.8667(2)
C88_4 C 0.9142(2) 0.7195(3) 0.84201(19)
H37_4 H 0.8989 0.7167 0.8188
C89_4 C 0.9425(2) 0.6904(2) 0.8521(3)
C90_4 C 0.9653(2) 0.6946(2) 0.8868(3)
H38_4 H 0.9842 0.6752 0.8936
C91_4 C 0.9598(2) 0.7279(3) 0.9115(2)
C92_4 C 0.8763(3) 0.7817(4) 0.8522(4)
C93_4 C 0.9866(4) 0.7337(3) 0.9426(4)
C101_4 C 0.9504(6) 0.6278(5) 0.8033(5)
C102_4 C 0.9469(5) 0.6548(4) 0.8261(5)
Zn5_2 Zn 0.8750 0.8750 0.8750
Zn7_2 Zn 0.93692(3) 0.93692(3) 0.93692(3)
Zn9_2 Zn 0.81308(3) 0.81308(3) 0.81308(3)
O6_2 O 0.87351(17) 0.93921(16) 0.87364(16)
O7_2 O 0.9256(2) 0.9737(2) 0.8944(2)
C35_4 C 0.8486(2) 0.99299(18) 0.8184(2)
H15_4 H 0.8321 0.9707 0.8221
C36_4 C 0.8833(2) 0.9972(2) 0.84127(18)
C41_4 C 0.8978(4) 0.9683(4) 0.8737(3)
C46_4 C 0.6928(3) 0.9883(9) 0.6536(6)
H19_4 H 0.6718 0.9830 0.6359
C47_4 C 0.7013(7) 0.9616(4) 0.6846(8)
H20_4 H 0.6860 0.9384 0.6876
C48_4 C 0.7326(8) 0.9696(7) 0.7111(4)
H21_4 H 0.7383 0.9517 0.7318
C61_4 C 0.7811(4) 0.9969(6) 0.5744(8)
C62_4 C 0.7731(7) 0.9656(8) 0.6009(4)
C63_4 C 0.7383(9) 0.9428(3) 0.5964(6)
H26_4 H 0.7330 0.9218 0.6141
C64_4 C 0.7116(4) 0.9513(7) 0.5654(8)
H27_4 H 0.6884 0.9360 0.5624
C65_4 C 0.7196(7) 0.9826(8) 0.5389(4)
H28_4 H 0.7017 0.9883 0.5182
O11_2 O 0.87649(17) 0.87636(16) 0.81079(16)
O12_2 O 0.8244(2) 0.8556(2) 0.7763(2)
C69_4 C 0.9014(2) 0.9316(2) 0.75701(18)
H29_4 H 0.9179 0.9279 0.7793
C70_4 C 0.8667(2) 0.90873(18) 0.7528(2)
C71_4 C 0.84201(19) 0.9142(2) 0.7195(3)
H30_4 H 0.8188 0.8989 0.7167
C72_4 C 0.8521(3) 0.9425(2) 0.6904(2)
C73_4 C 0.8868(3) 0.9653(2) 0.6946(2)
H31_4 H 0.8936 0.9842 0.6752
C74_4 C 0.9115(2) 0.9598(2) 0.7279(3)
C75_4 C 0.8522(4) 0.8763(3) 0.7817(4)
C76_4 C 0.9426(4) 0.9866(4) 0.7337(3)
C84_4 C 0.8033(5) 0.9504(6) 0.6278(5)
C85_4 C 0.8261(5) 0.9469(5) 0.6548(4)
O1_4 O 0.87364(16) 0.87351(17) 0.93921(16)
O2_4 O 0.8944(2) 0.9256(2) 0.9737(2)
O3_4 O 0.97224(16) 0.97224(16) 0.97224(16)
C1_4 C 0.8184(2) 0.8486(2) 0.99299(18)
H1_4 H 0.8221 0.8321 0.9707
C2_4 C 0.84127(18) 0.8833(2) 0.9972(2)
C7_4 C 0.8737(3) 0.8978(4) 0.9683(4)
C12_4 C 0.6536(6) 0.6928(3) 0.9883(9)
H5_4 H 0.6359 0.6718 0.9830
C13_4 C 0.6846(8) 0.7013(7) 0.9616(4)
H6_4 H 0.6876 0.6860 0.9384
C14_4 C 0.7111(4) 0.7326(8) 0.9696(7)
H7_4 H 0.7318 0.7383 0.9517
O8_4 O 0.77776(16) 0.77776(16) 0.77776(16)
O9_4 O 0.81079(16) 0.87649(17) 0.87636(16)
O10_4 O 0.7763(2) 0.8244(2) 0.8556(2)
C52_4 C 0.75701(18) 0.9014(2) 0.9316(2)
H22_4 H 0.7793 0.9179 0.9279
C53_4 C 0.7528(2) 0.8667(2) 0.90873(18)
C54_4 C 0.7195(3) 0.84201(19) 0.9142(2)
H23_4 H 0.7167 0.8188 0.8989
C55_4 C 0.6904(2) 0.8521(3) 0.9425(2)
C56_4 C 0.6946(2) 0.8868(3) 0.9653(2)
H24_4 H 0.6752 0.8936 0.9842
C57_4 C 0.7279(3) 0.9115(2) 0.9598(2)
C58_4 C 0.7817(4) 0.8522(4) 0.8763(3)
C59_4 C 0.7337(3) 0.9426(4) 0.9866(4)
C67_4 C 0.6278(5) 0.8033(5) 0.9504(6)
C68_4 C 0.6548(4) 0.8261(5) 0.9469(5)
C95_4 C 0.5744(8) 0.7811(4) 0.9969(6)
C96_4 C 0.6009(4) 0.7731(7) 0.9656(8)
C97_4 C 0.5964(6) 0.7383(9) 0.9428(3)
H40_4 H 0.6141 0.7330 0.9218
C98_4 C 0.5654(8) 0.7116(4) 0.9513(7)
H41_4 H 0.5624 0.6884 0.9360
C99_4 C 0.5389(4) 0.7196(7) 0.9826(8)
H42_4 H 0.5182 0.7017 0.9883
loop_
_geom_bond_atom_site_label_1
_geom_bond_atom_site_label_2
_geom_bond_site_symmetry_1
_geom_bond_site_symmetry_2
Zn1 O1 1_555 1_555
Zn2 O2 1_555 1_555
O1 C7 1_555 1_555
O2 C7 1_555 1_555
O3 Zn2 1_555 1_555
C1 H1 1_555 1_555
C2 C1 1_555 1_555
C7 C2 1_555 1_555
H5 C12 1_555 1_555
C13 C12 1_555 1_555
H6 C13 1_555 1_555
C14 C13 1_555 1_555
H7 C14 1_555 1_555
Zn3 O8 1_555 1_555
O9 Zn1 1_555 1_555
O10 Zn3 1_555 1_555
C52 H22 1_555 1_555
C53 C52 1_555 1_555
C54 C53 1_555 1_555
H23 C54 1_555 1_555
C55 C54 1_555 1_555
C56 C55 1_555 1_555
H24 C56 1_555 1_555
C57 C52 1_555 1_555
C58 O9 1_555 1_555
C59 C57 1_555 1_555
C67 C68 1_555 1_555
C68 C55 1_555 1_555
C96 C67 1_555 1_555
C97 C96 1_555 1_555
H40 C97 1_555 1_555
C98 C97 1_555 1_555
H41 C98 1_555 1_555
C99 C98 1_555 1_555
H42 C99 1_555 1_555
O15 Zn1 1_555 1_555
O16 Zn1 1_555 1_555
O17 Zn1 1_555 1_555
O18 Zn1 1_555 1_555
O19 Zn2 1_555 1_555
O20 Zn2 1_555 1_555
O21 Zn3 1_555 1_555
O22 Zn3 1_555 1_555
O10 C58 1_555 1_555
C53 C58 1_555 1_555
C56 C57 1_555 1_555
C95 C96 1_555 1_555
H2 C3 1_555 1_555
C4 C3 1_555 1_555
C5 C4 1_555 1_555
H3 C5 1_555 1_555
C8 C6 1_555 1_555
C9 C8 1_555 1_555
C10 H4 1_555 1_555
C11 C10 1_555 1_555
C15 C9 1_555 1_555
C16 C17 1_555 1_555
C17 C4 1_555 1_555
H9 C20 1_555 1_555
C21 C20 1_555 1_555
C22 C21 1_555 1_555
H10 C22 1_555 1_555
C25 C23 1_555 1_555
C26 C25 1_555 1_555
C27 H11 1_555 1_555
C28 C27 1_555 1_555
C32 C26 1_555 1_555
C33 C11 1_555 1_555
C34 C21 1_555 1_555
O6 C41 1_555 1_555
O7 C41 1_555 1_555
C35 H15 1_555 1_555
C36 C35 1_555 1_555
C37 C36 1_555 1_555
H16 C37 1_555 1_555
C38 C37 1_555 1_555
C39 C38 1_555 1_555
H17 C39 1_555 1_555
C40 C35 1_555 1_555
C41 C36 1_555 1_555
C42 C40 1_555 1_555
C43 C42 1_555 1_555
C44 H18 1_555 1_555
C45 C16 1_555 1_555
C46 C45 1_555 1_555
H19 C46 1_555 1_555
C47 C46 1_555 1_555
H20 C47 1_555 1_555
C48 C47 1_555 1_555
H21 C48 1_555 1_555
C49 C43 1_555 1_555
C50 C28 1_555 1_555
C51 C38 1_555 1_555
C61 H25 1_555 1_555
C62 C61 1_555 1_555
C63 C62 1_555 1_555
H26 C63 1_555 1_555
C64 C63 1_555 1_555
H27 C64 1_555 1_555
C65 C64 1_555 1_555
H28 C65 1_555 1_555
C66 C60 1_555 1_555
O11 C75 1_555 1_555
O12 C75 1_555 1_555
C69 H29 1_555 1_555
C70 C69 1_555 1_555
C71 C70 1_555 1_555
H30 C71 1_555 1_555
C72 C71 1_555 1_555
C73 C72 1_555 1_555
H31 C73 1_555 1_555
C74 C69 1_555 1_555
C75 C70 1_555 1_555
C76 C74 1_555 1_555
C77 C76 1_555 1_555
C83 C77 1_555 1_555
C84 C62 1_555 1_555
C85 C72 1_555 1_555
C100 C94 1_555 1_555
Zn4 O6 1_555 1_555
Zn6 O7 1_555 1_555
Zn8 O12 1_555 1_555
C5 C6 1_555 1_555
C10 C15 1_555 1_555
C22 C23 1_555 1_555
C27 C32 1_555 1_555
C33 C34 1_555 1_555
C39 C40 1_555 1_555
C44 C45 1_555 1_555
C44 C49 1_555 1_555
C48 C49 1_555 1_555
C50 C51 1_555 1_555
C61 C66 1_555 1_555
C65 C66 1_555 1_555
O11 Zn4 1_555 1_555
C73 C74 1_555 1_555
C84 C85 1_555 1_555
Zn4 O1_2 1_555 1_555
Zn6 O2_2 1_555 1_555
O1_2 C7_2 1_555 1_555
O2_2 C7_2 1_555 1_555
O3_2 Zn6 1_555 1_555
C1_2 H1_2 1_555 1_555
C2_2 C1_2 1_555 1_555
C3_2 C2_2 1_555 1_555
H2_2 C3_2 1_555 1_555
C4_2 C3_2 1_555 1_555
C5_2 C4_2 1_555 1_555
H3_2 C5_2 1_555 1_555
C6_2 C1_2 1_555 1_555
C7_2 C2_2 1_555 1_555
C8_2 C6_2 1_555 1_555
C9_2 C8_2 1_555 1_555
C10_2 H4_2 1_555 1_555
C11_2 C10_2 1_555 1_555
C12_2 C11_2 1_555 1_555
H5_2 C12_2 1_555 1_555
C13_2 C12_2 1_555 1_555
H6_2 C13_2 1_555 1_555
C14_2 C13_2 1_555 1_555
H7_2 C14_2 1_555 1_555
C15_2 C9_2 1_555 1_555
C16_2 C17_2 1_555 1_555
C17_2 C4_2 1_555 1_555
O4 C24 1_555 1_555
O5 C24 1_555 1_555
C18 H8 1_555 1_555
C19 C18 1_555 1_555
C20_2 C19 1_555 1_555
H9_2 C20_2 1_555 1_555
C21_2 C20_2 1_555 1_555
C22_2 C21_2 1_555 1_555
H10_2 C22_2 1_555 1_555
C23_2 C18 1_555 1_555
C24 C19 1_555 1_555
C25_2 C23_2 1_555 1_555
C26_2 C25_2 1_555 1_555
C27_2 H11_2 1_555 1_555
C28_2 C27_2 1_555 1_555
C29 C28_2 1_555 1_555
H12 C29 1_555 1_555
C30 C29 1_555 1_555
H13 C30 1_555 1_555
C31 C30 1_555 1_555
H14 C31 1_555 1_555
C32_2 C26_2 1_555 1_555
C33_2 C11_2 1_555 1_555
C34_2 C21_2 1_555 1_555
O16 C41_2 1_555 1_555
O20 C41_2 1_555 1_555
C35_2 H15_2 1_555 1_555
C36_2 C35_2 1_555 1_555
C37_2 C36_2 1_555 1_555
H16_2 C37_2 1_555 1_555
C38_2 C37_2 1_555 1_555
C39_2 C38_2 1_555 1_555
H17_2 C39_2 1_555 1_555
C40_2 C35_2 1_555 1_555
C41_2 C36_2 1_555 1_555
C42_2 C40_2 1_555 1_555
C43_2 C42_2 1_555 1_555
C44_2 H18_2 1_555 1_555
C45_2 C16_2 1_555 1_555
C46_2 C45_2 1_555 1_555
H19_2 C46_2 1_555 1_555
C47_2 C46_2 1_555 1_555
H20_2 C47_2 1_555 1_555
C48_2 C47_2 1_555 1_555
H21_2 C48_2 1_555 1_555
C49_2 C43_2 1_555 1_555
C50_2 C28_2 1_555 1_555
C51_2 C38_2 1_555 1_555
Zn8 O8_2 1_555 1_555
O9_2 Zn4 1_555 1_555
O10_2 Zn8 1_555 1_555
C52_2 H22_2 1_555 1_555
C53_2 C52_2 1_555 1_555
C54_2 C53_2 1_555 1_555
H23_2 C54_2 1_555 1_555
C55_2 C54_2 1_555 1_555
C56_2 C55_2 1_555 1_555
H24_2 C56_2 1_555 1_555
C57_2 C52_2 1_555 1_555
C58_2 O9_2 1_555 1_555
C59_2 C57_2 1_555 1_555
C60_2 C59_2 1_555 1_555
C61_2 H25_2 1_555 1_555
C62_2 C61_2 1_555 1_555
C63_2 C62_2 1_555 1_555
H26_2 C63_2 1_555 1_555
C64_2 C63_2 1_555 1_555
H27_2 C64_2 1_555 1_555
C65_2 C64_2 1_555 1_555
H28_2 C65_2 1_555 1_555
C66_2 C60_2 1_555 1_555
C67_2 C68_2 1_555 1_555
C68_2 C55_2 1_555 1_555
O17 C75_2 1_555 1_555
O21 C75_2 1_555 1_555
C69_2 H29_2 1_555 1_555
C70_2 C69_2 1_555 1_555
C71_2 C70_2 1_555 1_555
H30_2 C71_2 1_555 1_555
C72_2 C71_2 1_555 1_555
C73_2 C72_2 1_555 1_555
H31_2 C73_2 1_555 1_555
C74_2 C69_2 1_555 1_555
C75_2 C70_2 1_555 1_555
C76_2 C74_2 1_555 1_555
C77_2 C76_2 1_555 1_555
C78 H32_2 1_555 1_555
C79 C78 1_555 1_555
C80 C79 1_555 1_555
H33 C80 1_555 1_555
C81 C80 1_555 1_555
H34 C81 1_555 1_555
C82 C81 1_555 1_555
H35 C82 1_555 1_555
C83_2 C77_2 1_555 1_555
C84_2 C62_2 1_555 1_555
C85_2 C72_2 1_555 1_555
O13 C92 1_555 1_555
O14 C92 1_555 1_555
C86 H36 1_555 1_555
C87 C86 1_555 1_555
C88 C87 1_555 1_555
H37 C88 1_555 1_555
C89 C88 1_555 1_555
C90 C89 1_555 1_555
H38 C90 1_555 1_555
C91 C86 1_555 1_555
C92 C87 1_555 1_555
C93 C91 1_555 1_555
C94_2 C93 1_555 1_555
C95_2 H39_2 1_555 1_555
C96_2 C67_2 1_555 1_555
C97_2 C96_2 1_555 1_555
H40_2 C97_2 1_555 1_555
C98_2 C97_2 1_555 1_555
H41_2 C98_2 1_555 1_555
C99_2 C98_2 1_555 1_555
H42_2 C99_2 1_555 1_555
C100_2 C94_2 1_555 1_555
C101 C79 1_555 1_555
C102 C89 1_555 1_555
Zn5 O4 1_555 1_555
Zn7 O5 1_555 1_555
Zn9 O14 1_555 1_555
O15_2 Zn4 1_555 1_555
O18_2 Zn4 1_555 1_555
O19_2 Zn6 1_555 1_555
O22_2 Zn8 1_555 1_555
C5_2 C6_2 1_555 1_555
C10_2 C15_2 1_555 1_555
C14_2 C15_2 1_555 1_555
C22_2 C23_2 1_555 1_555
C27_2 C32_2 1_555 1_555
C31 C32_2 1_555 1_555
C33_2 C34_2 1_555 1_555
C39_2 C40_2 1_555 1_555
C44_2 C45_2 1_555 1_555
C44_2 C49_2 1_555 1_555
C48_2 C49_2 1_555 1_555
C50_2 C51_2 1_555 1_555
O10_2 C58_2 1_555 1_555
C53_2 C58_2 1_555 1_555
C56_2 C57_2 1_555 1_555
C61_2 C66_2 1_555 1_555
C65_2 C66_2 1_555 1_555
C73_2 C74_2 1_555 1_555
C78 C83_2 1_555 1_555
C82 C83_2 1_555 1_555
C84_2 C85_2 1_555 1_555
O13 Zn5 1_555 1_555
C90 C91 1_555 1_555
C95_2 C96_2 1_555 1_555
C95_2 C100_2 1_555 1_555
C99_2 C100_2 1_555 1_555
C101 C102 1_555 1_555
O15_2 C24_2 1_555 1_555
O19_2 C24_2 1_555 1_555
C18_2 H8_2 1_555 1_555
C19_2 C18_2 1_555 1_555
C24_2 C19_2 1_555 1_555
H12_2 C29_2 1_555 1_555
C30_2 C29_2 1_555 1_555
H13_2 C30_2 1_555 1_555
C31_2 C30_2 1_555 1_555
H14_2 C31_2 1_555 1_555
C79_2 C78_2 1_555 1_555
C80_2 C79_2 1_555 1_555
H33_2 C80_2 1_555 1_555
C81_2 C80_2 1_555 1_555
H34_2 C81_2 1_555 1_555
C82_2 C81_2 1_555 1_555
H35_2 C82_2 1_555 1_555
O18_2 C92_2 1_555 1_555
O22_2 C92_2 1_555 1_555
C86_2 H36_2 1_555 1_555
C87_2 C86_2 1_555 1_555
C88_2 C87_2 1_555 1_555
H37_2 C88_2 1_555 1_555
C89_2 C88_2 1_555 1_555
C90_2 C89_2 1_555 1_555
H38_2 C90_2 1_555 1_555
C91_2 C86_2 1_555 1_555
C92_2 C87_2 1_555 1_555
C93_2 C91_2 1_555 1_555
C101_2 C79_2 1_555 1_555
C102_2 C89_2 1_555 1_555
C90_2 C91_2 1_555 1_555
C101_2 C102_2 1_555 1_555
Zn5 O1_3 1_555 1_555
Zn7 O2_3 1_555 1_555
O1_3 C7_3 1_555 1_555
O2_3 C7_3 1_555 1_555
O3_3 Zn7 1_555 1_555
C1_3 H1_3 1_555 1_555
C2_3 C1_3 1_555 1_555
C3_3 C2_3 1_555 1_555
H2_3 C3_3 1_555 1_555
C4_3 C3_3 1_555 1_555
C5_3 C4_3 1_555 1_555
H3_3 C5_3 1_555 1_555
C6_3 C1_3 1_555 1_555
C7_3 C2_3 1_555 1_555
C8_3 C6_3 1_555 1_555
C9_3 C8_3 1_555 1_555
C10_3 H4_3 1_555 1_555
C11_3 C10_3 1_555 1_555
C12_3 C11_3 1_555 1_555
H5_3 C12_3 1_555 1_555
C13_3 C12_3 1_555 1_555
H6_3 C13_3 1_555 1_555
C14_3 C13_3 1_555 1_555
H7_3 C14_3 1_555 1_555
C15_3 C9_3 1_555 1_555
C16_3 C17_3 1_555 1_555
C17_3 C4_3 1_555 1_555
H9_3 C20_3 1_555 1_555
C21_3 C20_3 1_555 1_555
C22_3 C21_3 1_555 1_555
H10_3 C22_3 1_555 1_555
C25_3 C23_3 1_555 1_555
C26_3 C25_3 1_555 1_555
C27_3 H11_3 1_555 1_555
C28_3 C27_3 1_555 1_555
C32_3 C26_3 1_555 1_555
C33_3 C11_3 1_555 1_555
C34_3 C21_3 1_555 1_555
H16_3 C37_3 1_555 1_555
C38_3 C37_3 1_555 1_555
C39_3 C38_3 1_555 1_555
H17_3 C39_3 1_555 1_555
C42_3 C40_3 1_555 1_555
C43_3 C42_3 1_555 1_555
C44_3 H18_3 1_555 1_555
C45_3 C16_3 1_555 1_555
C49_3 C43_3 1_555 1_555
C50_3 C28_3 1_555 1_555
C51_3 C38_3 1_555 1_555
Zn9 O8_3 1_555 1_555
O9_3 Zn5 1_555 1_555
O10_3 Zn9 1_555 1_555
C52_3 H22_3 1_555 1_555
C53_3 C52_3 1_555 1_555
C54_3 C53_3 1_555 1_555
H23_3 C54_3 1_555 1_555
C55_3 C54_3 1_555 1_555
C56_3 C55_3 1_555 1_555
H24_3 C56_3 1_555 1_555
C57_3 C52_3 1_555 1_555
C58_3 O9_3 1_555 1_555
C59_3 C57_3 1_555 1_555
C60_3 C59_3 1_555 1_555
C66_3 C60_3 1_555 1_555
C67_3 C68_3 1_555 1_555
C68_3 C55_3 1_555 1_555
C83_3 C77_3 1_555 1_555
C95_3 H39_3 1_555 1_555
C96_3 C67_3 1_555 1_555
C97_3 C96_3 1_555 1_555
H40_3 C97_3 1_555 1_555
C98_3 C97_3 1_555 1_555
H41_3 C98_3 1_555 1_555
C99_3 C98_3 1_555 1_555
H42_3 C99_3 1_555 1_555
C100_3 C94_3 1_555 1_555
O16_2 Zn5 1_555 1_555
O17_2 Zn5 1_555 1_555
O20_2 Zn7 1_555 1_555
O21_2 Zn9 1_555 1_555
C5_3 C6_3 1_555 1_555
C10_3 C15_3 1_555 1_555
C14_3 C15_3 1_555 1_555
C22_3 C23_3 1_555 1_555
C27_3 C32_3 1_555 1_555
C33_3 C34_3 1_555 1_555
C39_3 C40_3 1_555 1_555
C44_3 C45_3 1_555 1_555
C44_3 C49_3 1_555 1_555
C50_3 C51_3 1_555 1_555
O10_3 C58_3 1_555 1_555
C53_3 C58_3 1_555 1_555
C56_3 C57_3 1_555 1_555
C95_3 C96_3 1_555 1_555
C95_3 C100_3 1_555 1_555
C99_3 C100_3 1_555 1_555
O16_2 C41_3 1_555 1_555
O20_2 C41_3 1_555 1_555
C35_3 H15_3 1_555 1_555
C36_3 C35_3 1_555 1_555
C41_3 C36_3 1_555 1_555
H19_3 C46_3 1_555 1_555
C47_3 C46_3 1_555 1_555
H20_3 C47_3 1_555 1_555
C48_3 C47_3 1_555 1_555
H21_3 C48_3 1_555 1_555
C62_3 C61_3 1_555 1_555
C63_3 C62_3 1_555 1_555
H26_3 C63_3 1_555 1_555
C64_3 C63_3 1_555 1_555
H27_3 C64_3 1_555 1_555
C65_3 C64_3 1_555 1_555
H28_3 C65_3 1_555 1_555
O17_2 C75_3 1_555 1_555
O21_2 C75_3 1_555 1_555
C69_3 H29_3 1_555 1_555
C70_3 C69_3 1_555 1_555
C71_3 C70_3 1_555 1_555
H30_3 C71_3 1_555 1_555
C72_3 C71_3 1_555 1_555
C73_3 C72_3 1_555 1_555
H31_3 C73_3 1_555 1_555
C74_3 C69_3 1_555 1_555
C75_3 C70_3 1_555 1_555
C76_3 C74_3 1_555 1_555
C84_3 C62_3 1_555 1_555
C85_3 C72_3 1_555 1_555
C73_3 C74_3 1_555 1_555
C84_3 C85_3 1_555 1_555
H2_4 C3_4 1_555 1_555
C4_4 C3_4 1_555 1_555
C5_4 C4_4 1_555 1_555
H3_4 C5_4 1_555 1_555
C8_4 C6_4 1_555 1_555
C9_4 C8_4 1_555 1_555
C10_4 H4_4 1_555 1_555
C11_4 C10_4 1_555 1_555
C15_4 C9_4 1_555 1_555
C16_4 C17_4 1_555 1_555
C17_4 C4_4 1_555 1_555
O15 C24_3 1_555 1_555
O19 C24_3 1_555 1_555
C18_3 H8_3 1_555 1_555
C19_3 C18_3 1_555 1_555
C20_4 C19_3 1_555 1_555
H9_4 C20_4 1_555 1_555
C21_4 C20_4 1_555 1_555
C22_4 C21_4 1_555 1_555
H10_4 C22_4 1_555 1_555
C23_4 C18_3 1_555 1_555
C24_3 C19_3 1_555 1_555
C25_4 C23_4 1_555 1_555
C26_4 C25_4 1_555 1_555
C27_4 H11_4 1_555 1_555
C28_4 C27_4 1_555 1_555
C29_3 C28_4 1_555 1_555
H12_3 C29_3 1_555 1_555
C30_3 C29_3 1_555 1_555
H13_3 C30_3 1_555 1_555
C31_3 C30_3 1_555 1_555
H14_3 C31_3 1_555 1_555
C32_4 C26_4 1_555 1_555
C33_4 C11_4 1_555 1_555
C34_4 C21_4 1_555 1_555
H16_4 C37_4 1_555 1_555
C38_4 C37_4 1_555 1_555
C39_4 C38_4 1_555 1_555
H17_4 C39_4 1_555 1_555
C42_4 C40_4 1_555 1_555
C43_4 C42_4 1_555 1_555
C44_4 H18_4 1_555 1_555
C45_4 C16_4 1_555 1_555
C49_4 C43_4 1_555 1_555
C50_4 C28_4 1_555 1_555
C51_4 C38_4 1_555 1_555
C66_4 C60_4 1_555 1_555
C78_3 H32_4 1_555 1_555
C79_3 C78_3 1_555 1_555
C80_3 C79_3 1_555 1_555
H33_3 C80_3 1_555 1_555
C81_3 C80_3 1_555 1_555
H34_3 C81_3 1_555 1_555
C82_3 C81_3 1_555 1_555
H35_3 C82_3 1_555 1_555
C83_4 C77_4 1_555 1_555
O18 C92_3 1_555 1_555
O22 C92_3 1_555 1_555
C86_3 H36_3 1_555 1_555
C87_3 C86_3 1_555 1_555
C88_3 C87_3 1_555 1_555
H37_3 C88_3 1_555 1_555
C89_3 C88_3 1_555 1_555
C90_3 C89_3 1_555 1_555
H38_3 C90_3 1_555 1_555
C91_3 C86_3 1_555 1_555
C92_3 C87_3 1_555 1_555
C93_3 C91_3 1_555 1_555
C94_4 C93_3 1_555 1_555
C100_4 C94_4 1_555 1_555
C101_3 C79_3 1_555 1_555
C102_3 C89_3 1_555 1_555
C5_4 C6_4 1_555 1_555
C10_4 C15_4 1_555 1_555
C22_4 C23_4 1_555 1_555
C27_4 C32_4 1_555 1_555
C31_3 C32_4 1_555 1_555
C33_4 C34_4 1_555 1_555
C39_4 C40_4 1_555 1_555
C44_4 C45_4 1_555 1_555
C44_4 C49_4 1_555 1_555
C50_4 C51_4 1_555 1_555
C78_3 C83_4 1_555 1_555
C82_3 C83_4 1_555 1_555
C90_3 C91_3 1_555 1_555
C101_3 C102_3 1_555 1_555
O4_2 C24_4 1_555 1_555
O5_2 C24_4 1_555 1_555
C18_4 H8_4 1_555 1_555
C19_4 C18_4 1_555 1_555
C24_4 C19_4 1_555 1_555
H12_4 C29_4 1_555 1_555
C30_4 C29_4 1_555 1_555
H13_4 C30_4 1_555 1_555
C31_4 C30_4 1_555 1_555
H14_4 C31_4 1_555 1_555
C79_4 C78_4 1_555 1_555
C80_4 C79_4 1_555 1_555
H33_4 C80_4 1_555 1_555
C81_4 C80_4 1_555 1_555
H34_4 C81_4 1_555 1_555
C82_4 C81_4 1_555 1_555
H35_4 C82_4 1_555 1_555
O13_2 C92_4 1_555 1_555
O14_2 C92_4 1_555 1_555
C86_4 H36_4 1_555 1_555
C87_4 C86_4 1_555 1_555
C88_4 C87_4 1_555 1_555
H37_4 C88_4 1_555 1_555
C89_4 C88_4 1_555 1_555
C90_4 C89_4 1_555 1_555
H38_4 C90_4 1_555 1_555
C91_4 C86_4 1_555 1_555
C92_4 C87_4 1_555 1_555
C93_4 C91_4 1_555 1_555
C101_4 C79_4 1_555 1_555
C102_4 C89_4 1_555 1_555
Zn5_2 O4_2 1_555 1_555
Zn7_2 O5_2 1_555 1_555
Zn9_2 O14_2 1_555 1_555
O13_2 Zn5_2 1_555 1_555
C90_4 C91_4 1_555 1_555
C101_4 C102_4 1_555 1_555
O6_2 C41_4 1_555 1_555
O7_2 C41_4 1_555 1_555
C35_4 H15_4 1_555 1_555
C36_4 C35_4 1_555 1_555
C41_4 C36_4 1_555 1_555
H19_4 C46_4 1_555 1_555
C47_4 C46_4 1_555 1_555
H20_4 C47_4 1_555 1_555
C48_4 C47_4 1_555 1_555
H21_4 C48_4 1_555 1_555
C62_4 C61_4 1_555 1_555
C63_4 C62_4 1_555 1_555
H26_4 C63_4 1_555 1_555
C64_4 C63_4 1_555 1_555
H27_4 C64_4 1_555 1_555
C65_4 C64_4 1_555 1_555
H28_4 C65_4 1_555 1_555
O11_2 C75_4 1_555 1_555
O12_2 C75_4 1_555 1_555
C69_4 H29_4 1_555 1_555
C70_4 C69_4 1_555 1_555
C71_4 C70_4 1_555 1_555
H30_4 C71_4 1_555 1_555
C72_4 C71_4 1_555 1_555
C73_4 C72_4 1_555 1_555
H31_4 C73_4 1_555 1_555
C74_4 C69_4 1_555 1_555
C75_4 C70_4 1_555 1_555
C76_4 C74_4 1_555 1_555
C84_4 C62_4 1_555 1_555
C85_4 C72_4 1_555 1_555
Zn5_2 O6_2 1_555 1_555
Zn7_2 O7_2 1_555 1_555
Zn9_2 O12_2 1_555 1_555
O11_2 Zn5_2 1_555 1_555
C73_4 C74_4 1_555 1_555
C84_4 C85_4 1_555 1_555
Zn5_2 O1_4 1_555 1_555
Zn7_2 O2_4 1_555 1_555
O1_4 C7_4 1_555 1_555
O2_4 C7_4 1_555 1_555
O3_4 Zn7_2 1_555 1_555
C1_4 H1_4 1_555 1_555
C2_4 C1_4 1_555 1_555
C7_4 C2_4 1_555 1_555
H5_4 C12_4 1_555 1_555
C13_4 C12_4 1_555 1_555
H6_4 C13_4 1_555 1_555
C14_4 C13_4 1_555 1_555
H7_4 C14_4 1_555 1_555
Zn9_2 O8_4 1_555 1_555
O9_4 Zn5_2 1_555 1_555
O10_4 Zn9_2 1_555 1_555
C52_4 H22_4 1_555 1_555
C53_4 C52_4 1_555 1_555
C54_4 C53_4 1_555 1_555
H23_4 C54_4 1_555 1_555
C55_4 C54_4 1_555 1_555
C56_4 C55_4 1_555 1_555
H24_4 C56_4 1_555 1_555
C57_4 C52_4 1_555 1_555
C58_4 O9_4 1_555 1_555
C59_4 C57_4 1_555 1_555
C67_4 C68_4 1_555 1_555
C68_4 C55_4 1_555 1_555
C96_4 C67_4 1_555 1_555
C97_4 C96_4 1_555 1_555
H40_4 C97_4 1_555 1_555
C98_4 C97_4 1_555 1_555
H41_4 C98_4 1_555 1_555
C99_4 C98_4 1_555 1_555
H42_4 C99_4 1_555 1_555
O10_4 C58_4 1_555 1_555
C53_4 C58_4 1_555 1_555
C56_4 C57_4 1_555 1_555
C95_4 C96_4 1_555 1_555

#END
