
###############################################################################
#
# This file contains modified crystal structure data generated from the
# MOF subset of the Cambridge Structural Database (CSD) v543 
# hosted by the Cambridge Crystallographic Data Centre (CCDC).
#
# This work is licensed under the Creative Commons
# Attribution-NonCommercial-ShareAlike 4.0 International License.
# To view a copy of this license, visit
# http://creativecommons.org/licenses/by-nc-sa/4.0/
# or send a letter to
# Creative Commons, PO Box 1866, Mountain View, CA 94042, USA.
#
# CIF created using the CSD Python API on 29 September 2022
# The structure has been converted into the P1 space group
# The structure has a 3D framework
# The original CSD entry RUBHUS is in the monoclinic crystal system
# The framework has been calculated to contain at least 10.0% void space
# The void calculation uses a probe of radius 1.32A, grid spacing 0.4
#
###############################################################################

data_RUBHUS
_chemical_formula_moiety         '(C56 H32 Ag4 N8 O29 Tb4)n'
_symmetry_cell_setting           triclinic
_symmetry_space_group_name_H-M   'P 1'
_symmetry_Int_Tables_number      1
_space_group_name_Hall           'P 1'
loop_
_symmetry_equiv_pos_site_id
_symmetry_equiv_pos_as_xyz
1 x,y,z
_cell_length_a                   9.099(2)
_cell_length_b                   22.299(3)
_cell_length_c                   9.6732(13)
_cell_angle_alpha                90
_cell_angle_beta                 117.874(10)
_cell_angle_gamma                90
_cell_volume                     1734.96
loop_
_atom_site_label
_atom_site_type_symbol
_atom_site_fract_x
_atom_site_fract_y
_atom_site_fract_z
C7 C 0.1039(7) 0.1370(3) 0.6421(8)
H5 H 0.1834 0.1626 0.7144
C11 C 0.0148(6) 0.0807(2) 0.4040(7)
H8 H 0.0333 0.0672 0.3225
N2 N 0.1235(6) 0.1179(2) 0.5150(7)
Tb4 Tb 0.35588(2) 0.008529(10) 0.11751(3)
Ag3 Ag 0.32053(6) 0.14843(2) 0.48093(9)
O19 O 0.1171(4) 0.06369(16) 0.0484(5)
C14 C 0.0082(6) 0.9654(2) 0.0078(6)
O8 O 0.1436(4) 0.94409(17) 0.0764(5)
C8 C 0.9786(8) 0.1207(3) 0.6650(7)
H6 H 0.9673 0.1325 0.7517
C9 C 0.8646(7) 0.0842(3) 0.5480(7)
H7 H 0.7709 0.0721 0.5556
C10 C 0.8827(6) 0.0642(2) 0.4152(6)
C12 C 0.7569(6) 0.0268(2) 0.2803(6)
O3 O 0.7891(5) 0.00151(17) 0.1768(5)
O4 O 0.6294(4) 0.0250(2) 0.2822(5)
H12 H 0.3591 0.2176 0.0123
N6 N 0.1235(6) 0.3821(2) 0.0150(7)
O10 O 0.3911(5) 0.10909(17) 0.0544(5)
O15 O 0.3835(5) 0.05648(17) 0.3657(4)
Ag2 Ag 0.32053(6) 0.35157(2) 0.98093(9)
C15 C 0.5781(8) 0.2927(3) 0.9132(9)
H9 H 0.5988 0.3320 0.8953
C16 C 0.6666(9) 0.2479(4) 0.8954(10)
H10 H 0.7497 0.2568 0.8684
C17 C 0.6360(7) 0.1894(3) 0.9166(8)
H11 H 0.6940 0.1585 0.8991
C18 C 0.5213(6) 0.1772(2) 0.9630(7)
C19 C 0.4392(7) 0.2251(2) 0.9803(7)
C20 C 0.4817(6) 0.1148(2) 0.9922(6)
C27 C 0.4801(6) 0.0332(2) 0.5033(6)
C28 C 0.9918(6) 0.0346(2) 0.9922(6)
N3 N 0.4647(6) 0.2821(2) 0.9548(7)
O9 O 0.5414(5) 0.07209(17) 0.9549(5)
O16 O 0.3835(5) 0.44352(17) 0.8657(4)
O17 O 0.5427(4) 0.05910(17) 0.6390(4)
O21 O 0.8564(4) 0.05591(17) 0.9236(5)
Ag1 Ag 0.67947(6) 0.64843(2) 0.01907(9)
C1 C 0.4219(8) 0.7073(3) 0.0868(9)
H1 H 0.4012 0.6680 0.1047
C2 C 0.3334(9) 0.7521(4) 0.1046(10)
H2 H 0.2503 0.7432 0.1316
C3 C 0.3640(7) 0.8106(3) 0.0834(8)
H3 H 0.3060 0.8415 0.1009
C4 C 0.4787(6) 0.8228(2) 0.0370(7)
C5 C 0.5608(7) 0.7749(2) 0.0197(7)
C6 C 0.5183(6) 0.8852(2) 0.0078(6)
N1 N 0.5353(6) 0.7179(2) 0.0452(7)
O1 O 0.4586(5) 0.92791(17) 0.0451(5)
O14 O 0.6165(5) 0.55648(17) 0.1343(4)
O18 O 0.4573(4) 0.94090(17) 0.3610(4)
Tb1 Tb 0.64412(2) 0.991471(10) 0.88249(3)
H4 H 0.6409 0.7824 0.9877
C13 C 0.5199(6) 0.9668(2) 0.4967(6)
O2 O 0.6089(5) 0.89091(17) 0.9456(5)
O5 O 0.6165(5) 0.94352(17) 0.6343(4)
O7 O 0.8829(4) 0.93631(16) 0.9516(5)
Ag4 Ag 0.67947(6) 0.85157(2) 0.51907(9)
C22 C 0.0214(8) 0.8793(3) 0.3350(7)
H14 H 0.0327 0.8675 0.2483
C23 C 0.1354(7) 0.9158(3) 0.4520(7)
H15 H 0.2291 0.9279 0.4444
C24 C 0.1173(6) 0.9358(2) 0.5848(6)
C26 C 0.2431(6) 0.9732(2) 0.7197(6)
N5 N 0.8765(6) 0.6179(2) 0.9850(7)
O11 O 0.2109(5) 0.99849(17) 0.8232(5)
O12 O 0.3706(4) 0.9750(2) 0.7178(5)
C21 C 0.8961(7) 0.8630(3) 0.3579(8)
H13 H 0.8166 0.8374 0.2856
C25 C 0.9852(6) 0.9193(2) 0.5960(7)
H16 H 0.9667 0.9328 0.6775
N4 N 0.8765(6) 0.8821(2) 0.4850(7)
C21_2 C 0.1039(7) 0.3630(3) 0.1421(8)
H13_2 H 0.1834 0.3374 0.2144
C25_2 C 0.0148(6) 0.4193(2) 0.9040(7)
H16_2 H 0.0333 0.4328 0.8225
C13_2 C 0.4801(6) 0.4668(2) 0.0033(6)
O6 O 0.5427(4) 0.44090(17) 0.1390(4)
Tb3 Tb 0.64412(2) 0.508529(10) 0.38249(3)
C22_2 C 0.9786(8) 0.3793(3) 0.1650(7)
H14_2 H 0.9673 0.3675 0.2517
C23_2 C 0.8646(7) 0.4158(3) 0.0480(7)
H15_2 H 0.7709 0.4279 0.0556
Tb1_2 Tb 0.35588(2) 0.491471(10) 0.61751(3)
C1_2 C 0.5781(8) 0.2073(3) 0.4132(9)
H1_2 H 0.5988 0.1680 0.3953
C2_2 C 0.6666(9) 0.2521(4) 0.3954(10)
H2_2 H 0.7497 0.2432 0.3684
C3_2 C 0.6360(7) 0.3106(3) 0.4166(8)
H3_2 H 0.6940 0.3415 0.3991
C4_2 C 0.5213(6) 0.3228(2) 0.4630(7)
C5_2 C 0.4392(7) 0.2749(2) 0.4803(7)
H4_2 H 0.3591 0.2824 0.5123
C6_2 C 0.4817(6) 0.3852(2) 0.4922(6)
C10_2 C 0.1173(6) 0.5642(2) 0.0848(6)
C12_2 C 0.2431(6) 0.5268(2) 0.2197(6)
N1_2 N 0.4647(6) 0.2179(2) 0.4548(7)
O1_2 O 0.5414(5) 0.42791(17) 0.4549(5)
O2_2 O 0.3911(5) 0.39091(17) 0.5544(5)
O3_2 O 0.2109(5) 0.50151(17) 0.3232(5)
O4_2 O 0.3706(4) 0.5250(2) 0.2178(5)
O7_2 O 0.1171(4) 0.43631(16) 0.5484(5)
C15_2 C 0.4219(8) 0.7927(3) 0.5868(9)
H9_2 H 0.4012 0.8320 0.6047
C16_2 C 0.3334(9) 0.7479(4) 0.6046(10)
H10_2 H 0.2503 0.7568 0.6316
C17_2 C 0.3640(7) 0.6894(3) 0.5834(8)
H11_2 H 0.3060 0.6585 0.6009
C18_2 C 0.4787(6) 0.6772(2) 0.5370(7)
C19_2 C 0.5608(7) 0.7251(2) 0.5197(7)
H12_2 H 0.6409 0.7176 0.4877
C20_2 C 0.5183(6) 0.6148(2) 0.5078(6)
C24_2 C 0.8827(6) 0.4358(2) 0.9152(6)
C26_2 C 0.7569(6) 0.4732(2) 0.7803(6)
C27_2 C 0.5199(6) 0.5332(2) 0.9967(6)
C28_2 C 0.0082(6) 0.5346(2) 0.5078(6)
N3_2 N 0.5353(6) 0.7821(2) 0.5452(7)
O9_2 O 0.4586(5) 0.57209(17) 0.5451(5)
O10_2 O 0.6089(5) 0.60909(17) 0.4456(5)
O11_2 O 0.7891(5) 0.49849(17) 0.6768(5)
O12_2 O 0.6294(4) 0.4750(2) 0.7822(5)
O17_2 O 0.4573(4) 0.55910(17) 0.8610(4)
O20 O 0.8829(4) 0.56369(16) 0.4516(5)
O21_2 O 0.1436(4) 0.55591(17) 0.5764(5)
O22 O 0.8564(4) 0.44409(17) 0.4236(5)
C8_2 C 0.0214(8) 0.6207(3) 0.8350(7)
H6_2 H 0.0327 0.6325 0.7483
C9_2 C 0.1354(7) 0.5842(3) 0.9520(7)
H7_2 H 0.2291 0.5721 0.9444
C11_2 C 0.9852(6) 0.5807(2) 0.0960(7)
H8_2 H 0.9667 0.5672 0.1775
C14_2 C 0.9918(6) 0.4654(2) 0.4922(6)
C7_2 C 0.8961(7) 0.6370(3) 0.8579(8)
H5_2 H 0.8166 0.6626 0.7856
loop_
_geom_bond_atom_site_label_1
_geom_bond_atom_site_label_2
_geom_bond_site_symmetry_1
_geom_bond_site_symmetry_2
C7 H5 1_555 1_555
H8 C11 1_555 1_555
N2 C7 1_555 1_555
Ag3 N2 1_555 1_555
O19 Tb4 1_555 1_555
C11 N2 1_555 1_555
O8 C14 1_555 1_555
H6 C8 1_555 1_555
C9 C8 1_555 1_555
H7 C9 1_555 1_555
C10 C9 1_555 1_555
C12 C10 1_555 1_555
O4 C12 1_555 1_555
O10 Tb4 1_555 1_555
O15 Tb4 1_555 1_555
C12 O3 1_555 1_555
O4 Tb4 1_555 1_555
Ag2 N3 1_555 1_555
Ag3 O15 1_555 1_555
C15 H9 1_555 1_555
C16 C15 1_555 1_555
H10 C16 1_555 1_555
C17 C16 1_555 1_555
H11 C17 1_555 1_555
C18 C17 1_555 1_555
C19 C18 1_555 1_555
C20 C18 1_555 1_555
N3 C15 1_555 1_555
O16 Ag2 1_555 1_555
C19 N3 1_555 1_555
C20 O9 1_555 1_555
C27 O15 1_555 1_555
C27 O17 1_555 1_555
C28 O21 1_555 1_555
Ag1 N1 1_555 1_555
C1 H1 1_555 1_555
C2 C1 1_555 1_555
H2 C2 1_555 1_555
C3 C2 1_555 1_555
H3 C3 1_555 1_555
C4 C3 1_555 1_555
C5 C4 1_555 1_555
C6 C4 1_555 1_555
N1 C1 1_555 1_555
O1 C6 1_555 1_555
O14 Ag1 1_555 1_555
C5 N1 1_555 1_555
C13 O5 1_555 1_555
O2 Tb1 1_555 1_555
O5 Tb1 1_555 1_555
O18 C13 1_555 1_555
O7 Tb1 1_555 1_555
Ag4 O5 1_555 1_555
H14 C22 1_555 1_555
C23 C22 1_555 1_555
H15 C23 1_555 1_555
C24 C23 1_555 1_555
C26 C24 1_555 1_555
O12 Tb1 1_555 1_555
C26 O11 1_555 1_555
C26 O12 1_555 1_555
Ag4 N4 1_555 1_555
C21 H13 1_555 1_555
H16 C25 1_555 1_555
N4 C21 1_555 1_555
C25 N4 1_555 1_555
C21_2 H13_2 1_555 1_555
N6 C21_2 1_555 1_555
H16_2 C25_2 1_555 1_555
O6 C13_2 1_555 1_555
Tb3 O6 1_555 1_555
H14_2 C22_2 1_555 1_555
C23_2 C22_2 1_555 1_555
H15_2 C23_2 1_555 1_555
O14 Tb3 1_555 1_555
Tb1_2 O1_2 1_555 1_555
Ag3 N1_2 1_555 1_555
C1_2 H1_2 1_555 1_555
C2_2 C1_2 1_555 1_555
H2_2 C2_2 1_555 1_555
C3_2 C2_2 1_555 1_555
H3_2 C3_2 1_555 1_555
C4_2 C3_2 1_555 1_555
C5_2 C4_2 1_555 1_555
H4_2 C5_2 1_555 1_555
C6_2 C4_2 1_555 1_555
C12_2 C10_2 1_555 1_555
N1_2 C1_2 1_555 1_555
O1_2 C6_2 1_555 1_555
O2_2 Tb1_2 1_555 1_555
O3_2 Tb1_2 1_555 1_555
O4_2 C12_2 1_555 1_555
O16 Tb1_2 1_555 1_555
O7_2 Tb1_2 1_555 1_555
Tb3 O1_2 1_555 1_555
Ag4 N3_2 1_555 1_555
C15_2 H9_2 1_555 1_555
C16_2 C15_2 1_555 1_555
H10_2 C16_2 1_555 1_555
C17_2 C16_2 1_555 1_555
H11_2 C17_2 1_555 1_555
C18_2 C17_2 1_555 1_555
C19_2 C18_2 1_555 1_555
H12_2 C19_2 1_555 1_555
C20_2 C18_2 1_555 1_555
C26_2 C24_2 1_555 1_555
N3_2 C15_2 1_555 1_555
O9_2 Tb1_2 1_555 1_555
O10_2 Tb3 1_555 1_555
O11_2 Tb3 1_555 1_555
O12_2 Tb1_2 1_555 1_555
O17_2 Tb1_2 1_555 1_555
O20 Tb3 1_555 1_555
O21_2 Tb1_2 1_555 1_555
O22 Tb3 1_555 1_555
C5_2 N1_2 1_555 1_555
C6_2 O2_2 1_555 1_555
C12_2 O3_2 1_555 1_555
O4_2 Tb3 1_555 1_555
Tb3 O9_2 1_555 1_555
C19_2 N3_2 1_555 1_555
C20_2 O9_2 1_555 1_555
C20_2 O10_2 1_555 1_555
C26_2 O11_2 1_555 1_555
C26_2 O12_2 1_555 1_555
C27_2 O17_2 1_555 1_555
C28_2 O21_2 1_555 1_555
H6_2 C8_2 1_555 1_555
C9_2 C8_2 1_555 1_555
H7_2 C9_2 1_555 1_555
H8_2 C11_2 1_555 1_555
O22 C14_2 1_555 1_555
C7_2 H5_2 1_555 1_555
N5 C7_2 1_555 1_555

#END
