
###############################################################################
#
# This file contains modified crystal structure data generated from the
# MOF subset of the Cambridge Structural Database (CSD) v543 
# hosted by the Cambridge Crystallographic Data Centre (CCDC).
#
# This work is licensed under the Creative Commons
# Attribution-NonCommercial-ShareAlike 4.0 International License.
# To view a copy of this license, visit
# http://creativecommons.org/licenses/by-nc-sa/4.0/
# or send a letter to
# Creative Commons, PO Box 1866, Mountain View, CA 94042, USA.
#
# CIF created using the CSD Python API on 29 September 2022
# The structure has been converted into the P1 space group
# The structure has a 3D framework
# The original CSD entry RUBLAD03 is in the tetragonal crystal system
# The framework has been calculated to contain at least 10.0% void space
# The void calculation uses a probe of radius 1.32A, grid spacing 0.4
# H atom positions have been added when not included in the experimental data
# Generated hydrogen atom positions removed from atoms on special positions
#
###############################################################################

data_RUBLAD03
_chemical_formula_moiety         '(C128 H192 O61 Zr15)n'
_symmetry_cell_setting           triclinic
_symmetry_space_group_name_H-M   'P 1'
_symmetry_Int_Tables_number      1
_space_group_name_Hall           'P 1'
loop_
_symmetry_equiv_pos_site_id
_symmetry_equiv_pos_as_xyz
1 x,y,z
_cell_length_a                   24.4443(11)
_cell_length_b                   24.4443(11)
_cell_length_c                   14.3985(6)
_cell_angle_alpha                90
_cell_angle_beta                 90
_cell_angle_gamma                90
_cell_volume                     8603.45
loop_
_atom_site_label
_atom_site_type_symbol
_atom_site_fract_x
_atom_site_fract_y
_atom_site_fract_z
Zr10 Zr 0.39994(3) 0.000000 0.000000
Zr10_2 Zr 0.39994(3) 0.000000 1.000000
Zr1 Zr 0.07243(2) 0.500000 0.37775(5)
Zr2 Zr 0.000000 0.39994(3) 0.500000
O1 O 0.000000 0.45125(19) 0.3781(4)
O2 O 0.0734(2) 0.4498(2) 0.500000
O3 O 0.05452(11) 0.35335(11) 0.4094(2)
O4 O 0.10122(14) 0.41721(13) 0.3285(3)
O5 O 0.0686(3) 0.500000 0.2239(4)
O6 O 0.1617(2) 0.500000 0.3840(4)
C1 C 0.0919(2) 0.36771(19) 0.3564(4)
C2 C 0.1297(2) 0.3253(2) 0.3202(5)
C3 C 0.1273(2) 0.2744(2) 0.3567(5)
H1 H 0.100441 0.266583 0.402510
C4 C 0.1640(3) 0.2319(2) 0.3287(5)
C5 C 0.2029(2) 0.2449(2) 0.2657(5)
C6 C 0.2055(3) 0.2975(3) 0.2273(7)
H2 H 0.232947 0.306184 0.182971
C7 C 0.1677(3) 0.3368(3) 0.2546(6)
H3 H 0.168542 0.372095 0.226908
C8 C 0.1615(5) 0.1759(4) 0.3754(8)
H4 H 0.129587 0.174270 0.416477
H5 H 0.194860 0.170044 0.411761
H6 H 0.158455 0.147387 0.327772
O7 O 0.35335(11) 0.05452(11) 0.0906(2)
O8 O 0.41721(13) 0.10122(14) 0.1715(3)
C9 C 0.36771(19) 0.0919(2) 0.1436(4)
C10 C 0.3253(2) 0.1297(2) 0.1798(5)
C11 C 0.2744(2) 0.1273(2) 0.1433(5)
H7 H 0.266583 0.100441 0.097490
C12 C 0.2319(2) 0.1640(3) 0.1713(5)
C13 C 0.2449(2) 0.2029(2) 0.2343(5)
C14 C 0.2975(3) 0.2055(3) 0.2727(7)
H8 H 0.306184 0.232947 0.317029
C15 C 0.3368(3) 0.1677(3) 0.2454(6)
H9 H 0.372095 0.168542 0.273092
C16 C 0.1759(4) 0.1615(5) 0.1246(8)
H10 H 0.174270 0.129587 0.083523
H11 H 0.170044 0.194860 0.088239
H12 H 0.147387 0.158455 0.172228
O9 O 0.000000 0.54875(19) 0.3781(4)
O13 O 0.05452(11) 0.64665(11) 0.4094(2)
O14 O 0.10122(14) 0.58279(13) 0.3285(3)
C17 C 0.0919(2) 0.63229(19) 0.3564(4)
C18 C 0.1297(2) 0.6747(2) 0.3202(5)
C19 C 0.1273(2) 0.7256(2) 0.3567(5)
H13 H 0.100441 0.733417 0.402510
C20 C 0.1640(3) 0.7681(2) 0.3287(5)
C21 C 0.2029(2) 0.7551(2) 0.2657(5)
C22 C 0.2055(3) 0.7025(3) 0.2273(7)
H14 H 0.232947 0.693816 0.182971
C23 C 0.1677(3) 0.6632(3) 0.2546(6)
H15 H 0.168542 0.627905 0.226908
C24 C 0.1615(5) 0.8241(4) 0.3754(8)
H16 H 0.129587 0.825730 0.416477
H17 H 0.194860 0.829956 0.411761
H18 H 0.158455 0.852613 0.327772
O15 O 0.35335(11) 0.94548(11) 0.0906(2)
O16 O 0.41721(13) 0.89878(14) 0.1715(3)
C25 C 0.36771(19) 0.9081(2) 0.1436(4)
C26 C 0.3253(2) 0.8703(2) 0.1798(5)
C27 C 0.2744(2) 0.8727(2) 0.1433(5)
H19 H 0.266583 0.899559 0.097490
C28 C 0.2319(2) 0.8360(3) 0.1713(5)
C29 C 0.2449(2) 0.7971(2) 0.2343(5)
C30 C 0.2975(3) 0.7945(3) 0.2727(7)
H20 H 0.306184 0.767053 0.317029
C31 C 0.3368(3) 0.8323(3) 0.2454(6)
H21 H 0.372095 0.831458 0.273092
C32 C 0.1759(4) 0.8385(5) 0.1246(8)
H22 H 0.174270 0.870413 0.083523
H23 H 0.170044 0.805140 0.088239
H24 H 0.147387 0.841545 0.172228
Zr5 Zr 0.07243(2) 0.500000 0.62225(5)
Zr6 Zr 0.500000 0.07243(2) 0.12225(5)
Zr7 Zr 0.500000 0.92757(2) 0.12225(5)
Zr8 Zr 0.000000 0.60006(3) 0.500000
Zr10_3 Zr 0.39994(3) 1.000000 0.000000
O17 O 0.000000 0.45125(19) 0.6219(4)
O19 O 0.0734(2) 0.5502(2) 0.500000
O21 O 0.05452(11) 0.35335(11) 0.5906(2)
Zr10_4 Zr 0.39994(3) 1.000000 1.000000
Zr2_2 Zr 1.000000 0.39994(3) 0.500000
O1_2 O 1.000000 0.45125(19) 0.3781(4)
Zr3 Zr 0.92757(2) 0.500000 0.37775(5)
O9_2 O 1.000000 0.54875(19) 0.3781(4)
O10 O 0.9266(2) 0.5502(2) 0.500000
O11 O 0.9314(3) 0.500000 0.2239(4)
O12 O 0.8383(2) 0.500000 0.3840(4)
Zr4 Zr 0.92757(2) 0.500000 0.62225(5)
Zr8_2 Zr 1.000000 0.60006(3) 0.500000
O17_2 O 1.000000 0.45125(19) 0.6219(4)
O18 O 0.9266(2) 0.4498(2) 0.500000
O20 O 0.94548(11) 0.35335(11) 0.5906(2)
O22 O 0.94548(11) 0.35335(11) 0.4094(2)
O23 O 0.89878(14) 0.58279(13) 0.3285(3)
O24 O 0.89878(14) 0.41721(13) 0.3285(3)
O17_3 O 0.000000 0.54875(19) 0.6219(4)
O20_2 O 0.05452(11) 0.64665(11) 0.5906(2)
Zr9 Zr 0.60006(3) 0.000000 0.000000
Zr9_2 Zr 0.60006(3) 0.000000 1.000000
O3_2 O 0.94548(11) 0.64665(11) 0.4094(2)
C1_2 C 0.9081(2) 0.63229(19) 0.3564(4)
C2_2 C 0.8703(2) 0.6747(2) 0.3202(5)
C3_2 C 0.8727(2) 0.7256(2) 0.3567(5)
H1_2 H 0.899559 0.733417 0.402510
C4_2 C 0.8360(3) 0.7681(2) 0.3287(5)
C5_2 C 0.7971(2) 0.7551(2) 0.2657(5)
C6_2 C 0.7945(3) 0.7025(3) 0.2273(7)
H2_2 H 0.767053 0.693816 0.182971
C7_2 C 0.8323(3) 0.6632(3) 0.2546(6)
H3_2 H 0.831458 0.627905 0.226908
C8_2 C 0.8385(5) 0.8241(4) 0.3754(8)
H4_2 H 0.870413 0.825730 0.416477
H5_2 H 0.805140 0.829956 0.411761
H6_2 H 0.841545 0.852613 0.327772
O7_2 O 0.64665(11) 0.94548(11) 0.0906(2)
O8_2 O 0.58279(13) 0.89878(14) 0.1715(3)
C9_2 C 0.63229(19) 0.9081(2) 0.1436(4)
C10_2 C 0.6747(2) 0.8703(2) 0.1798(5)
C11_2 C 0.7256(2) 0.8727(2) 0.1433(5)
H7_2 H 0.733417 0.899559 0.097490
C12_2 C 0.7681(2) 0.8360(3) 0.1713(5)
C13_2 C 0.7551(2) 0.7971(2) 0.2343(5)
C14_2 C 0.7025(3) 0.7945(3) 0.2727(7)
H8_2 H 0.693816 0.767053 0.317029
C15_2 C 0.6632(3) 0.8323(3) 0.2454(6)
H9_2 H 0.627905 0.831458 0.273092
C16_2 C 0.8241(4) 0.8385(5) 0.1246(8)
H10_2 H 0.825730 0.870413 0.083523
H11_2 H 0.829956 0.805140 0.088239
H12_2 H 0.852613 0.841545 0.172228
C17_2 C 0.9081(2) 0.36771(19) 0.3564(4)
C18_2 C 0.8703(2) 0.3253(2) 0.3202(5)
C19_2 C 0.8727(2) 0.2744(2) 0.3567(5)
H13_2 H 0.899559 0.266583 0.402510
C20_2 C 0.8360(3) 0.2319(2) 0.3287(5)
C21_2 C 0.7971(2) 0.2449(2) 0.2657(5)
C22_2 C 0.7945(3) 0.2975(3) 0.2273(7)
H14_2 H 0.767053 0.306184 0.182971
C23_2 C 0.8323(3) 0.3368(3) 0.2546(6)
H15_2 H 0.831458 0.372095 0.226908
C24_2 C 0.8385(5) 0.1759(4) 0.3754(8)
H16_2 H 0.870413 0.174270 0.416477
H17_2 H 0.805140 0.170044 0.411761
H18_2 H 0.841545 0.147387 0.327772
O15_2 O 0.64665(11) 0.05452(11) 0.0906(2)
O16_2 O 0.58279(13) 0.10122(14) 0.1715(3)
C25_2 C 0.63229(19) 0.0919(2) 0.1436(4)
C26_2 C 0.6747(2) 0.1297(2) 0.1798(5)
C27_2 C 0.7256(2) 0.1273(2) 0.1433(5)
H19_2 H 0.733417 0.100441 0.097490
C28_2 C 0.7681(2) 0.1640(3) 0.1713(5)
C29_2 C 0.7551(2) 0.2029(2) 0.2343(5)
C30_2 C 0.7025(3) 0.2055(3) 0.2727(7)
H20_2 H 0.693816 0.232947 0.317029
C31_2 C 0.6632(3) 0.1677(3) 0.2454(6)
H21_2 H 0.627905 0.168542 0.273092
C32_2 C 0.8241(4) 0.1615(5) 0.1246(8)
H22_2 H 0.825730 0.129587 0.083523
H23_2 H 0.829956 0.194860 0.088239
H24_2 H 0.852613 0.158455 0.172228
Zr9_3 Zr 0.60006(3) 1.000000 0.000000
O17_4 O 1.000000 0.54875(19) 0.6219(4)
O21_2 O 0.94548(11) 0.64665(11) 0.5906(2)
Zr9_4 Zr 0.60006(3) 1.000000 1.000000
O2_2 O 0.5502(2) 0.0734(2) -0.000000
O17_5 O 0.54875(19) 0.000000 0.1219(4)
O19_2 O 0.4498(2) 0.0734(2) -0.000000
Zr1_2 Zr 0.500000 0.07243(2) 0.87775(5)
O1_3 O 0.54875(19) 0.000000 0.8781(4)
O2_3 O 0.5502(2) 0.0734(2) 1.000000
O3_3 O 0.64665(11) 0.05452(11) 0.9094(2)
O4_2 O 0.58279(13) 0.10122(14) 0.8285(3)
O5_2 O 0.500000 0.0686(3) 0.7239(4)
O6_2 O 0.500000 0.1617(2) 0.8840(4)
C1_3 C 0.63229(19) 0.0919(2) 0.8564(4)
C2_3 C 0.6747(2) 0.1297(2) 0.8202(5)
C3_3 C 0.7256(2) 0.1273(2) 0.8567(5)
H1_3 H 0.733417 0.100441 0.902510
C4_3 C 0.7681(2) 0.1640(3) 0.8287(5)
C5_3 C 0.7551(2) 0.2029(2) 0.7657(5)
C6_3 C 0.7025(3) 0.2055(3) 0.7273(7)
H2_3 H 0.693816 0.232947 0.682971
C7_3 C 0.6632(3) 0.1677(3) 0.7546(6)
H3_3 H 0.627905 0.168542 0.726908
C8_3 C 0.8241(4) 0.1615(5) 0.8754(8)
H4_3 H 0.825730 0.129587 0.916477
H5_3 H 0.829956 0.194860 0.911761
H6_3 H 0.852613 0.158455 0.827772
O8_3 O 0.89878(14) 0.41721(13) 0.6715(3)
C9_3 C 0.9081(2) 0.36771(19) 0.6436(4)
C10_3 C 0.8703(2) 0.3253(2) 0.6798(5)
C11_3 C 0.8727(2) 0.2744(2) 0.6433(5)
H7_3 H 0.899559 0.266583 0.597490
C12_3 C 0.8360(3) 0.2319(2) 0.6713(5)
C13_3 C 0.7971(2) 0.2449(2) 0.7343(5)
C14_3 C 0.7945(3) 0.2975(3) 0.7727(7)
H8_3 H 0.767053 0.306184 0.817029
C15_3 C 0.8323(3) 0.3368(3) 0.7454(6)
H9_3 H 0.831458 0.372095 0.773092
C16_3 C 0.8385(5) 0.1759(4) 0.6246(8)
H10_3 H 0.870413 0.174270 0.583523
H11_3 H 0.805140 0.170044 0.588239
H12_3 H 0.841545 0.147387 0.672228
O9_3 O 0.45125(19) 0.000000 0.8781(4)
O13_2 O 0.35335(11) 0.05452(11) 0.9094(2)
O14_2 O 0.41721(13) 0.10122(14) 0.8285(3)
C17_3 C 0.36771(19) 0.0919(2) 0.8564(4)
C18_3 C 0.3253(2) 0.1297(2) 0.8202(5)
C19_3 C 0.2744(2) 0.1273(2) 0.8567(5)
H13_3 H 0.266583 0.100441 0.902510
C20_3 C 0.2319(2) 0.1640(3) 0.8287(5)
C21_3 C 0.2449(2) 0.2029(2) 0.7657(5)
C22_3 C 0.2975(3) 0.2055(3) 0.7273(7)
H14_3 H 0.306184 0.232947 0.682971
C23_3 C 0.3368(3) 0.1677(3) 0.7546(6)
H15_3 H 0.372095 0.168542 0.726908
C24_3 C 0.1759(4) 0.1615(5) 0.8754(8)
H16_3 H 0.174270 0.129587 0.916477
H17_3 H 0.170044 0.194860 0.911761
H18_3 H 0.147387 0.158455 0.827772
O16_3 O 0.10122(14) 0.41721(13) 0.6715(3)
C25_3 C 0.0919(2) 0.36771(19) 0.6436(4)
C26_3 C 0.1297(2) 0.3253(2) 0.6798(5)
C27_3 C 0.1273(2) 0.2744(2) 0.6433(5)
H19_3 H 0.100441 0.266583 0.597490
C28_3 C 0.1640(3) 0.2319(2) 0.6713(5)
C29_3 C 0.2029(2) 0.2449(2) 0.7343(5)
C30_3 C 0.2055(3) 0.2975(3) 0.7727(7)
H20_3 H 0.232947 0.306184 0.817029
C31_3 C 0.1677(3) 0.3368(3) 0.7454(6)
H21_3 H 0.168542 0.372095 0.773092
C32_3 C 0.1615(5) 0.1759(4) 0.6246(8)
H22_3 H 0.129587 0.174270 0.583523
H23_3 H 0.194860 0.170044 0.588239
H24_3 H 0.158455 0.147387 0.672228
O19_3 O 0.4498(2) 0.0734(2) 1.000000
O10_2 O 0.4498(2) 0.9266(2) -0.000000
O17_6 O 0.54875(19) 1.000000 0.1219(4)
O18_2 O 0.5502(2) 0.9266(2) -0.000000
O1_4 O 0.54875(19) 1.000000 0.8781(4)
Zr3_2 Zr 0.500000 0.92757(2) 0.87775(5)
O9_4 O 0.45125(19) 1.000000 0.8781(4)
O10_3 O 0.4498(2) 0.9266(2) 1.000000
O11_2 O 0.500000 0.9314(3) 0.7239(4)
O12_2 O 0.500000 0.8383(2) 0.8840(4)
O18_3 O 0.5502(2) 0.9266(2) 1.000000
O22_2 O 0.64665(11) 0.94548(11) 0.9094(2)
O23_2 O 0.41721(13) 0.89878(14) 0.8285(3)
O24_2 O 0.58279(13) 0.89878(14) 0.8285(3)
O17_7 O 0.45125(19) -0.000000 0.1219(4)
O17_8 O 0.45125(19) 1.000000 0.1219(4)
O3_4 O 0.35335(11) 0.94548(11) 0.9094(2)
C1_4 C 0.36771(19) 0.9081(2) 0.8564(4)
C2_4 C 0.3253(2) 0.8703(2) 0.8202(5)
C3_4 C 0.2744(2) 0.8727(2) 0.8567(5)
H1_4 H 0.266583 0.899559 0.902510
C4_4 C 0.2319(2) 0.8360(3) 0.8287(5)
C5_4 C 0.2449(2) 0.7971(2) 0.7657(5)
C6_4 C 0.2975(3) 0.7945(3) 0.7273(7)
H2_4 H 0.306184 0.767053 0.682971
C7_4 C 0.3368(3) 0.8323(3) 0.7546(6)
H3_4 H 0.372095 0.831458 0.726908
C8_4 C 0.1759(4) 0.8385(5) 0.8754(8)
H4_4 H 0.174270 0.870413 0.916477
H5_4 H 0.170044 0.805140 0.911761
H6_4 H 0.147387 0.841545 0.827772
O8_4 O 0.10122(14) 0.58279(13) 0.6715(3)
C9_4 C 0.0919(2) 0.63229(19) 0.6436(4)
C10_4 C 0.1297(2) 0.6747(2) 0.6798(5)
C11_4 C 0.1273(2) 0.7256(2) 0.6433(5)
H7_4 H 0.100441 0.733417 0.597490
C12_4 C 0.1640(3) 0.7681(2) 0.6713(5)
C13_4 C 0.2029(2) 0.7551(2) 0.7343(5)
C14_4 C 0.2055(3) 0.7025(3) 0.7727(7)
H8_4 H 0.232947 0.693816 0.817029
C15_4 C 0.1677(3) 0.6632(3) 0.7454(6)
H9_4 H 0.168542 0.627905 0.773092
C16_4 C 0.1615(5) 0.8241(4) 0.6246(8)
H10_4 H 0.129587 0.825730 0.583523
H11_4 H 0.194860 0.829956 0.588239
H12_4 H 0.158455 0.852613 0.672228
C17_4 C 0.63229(19) 0.9081(2) 0.8564(4)
C18_4 C 0.6747(2) 0.8703(2) 0.8202(5)
C19_4 C 0.7256(2) 0.8727(2) 0.8567(5)
H13_4 H 0.733417 0.899559 0.902510
C20_4 C 0.7681(2) 0.8360(3) 0.8287(5)
C21_4 C 0.7551(2) 0.7971(2) 0.7657(5)
C22_4 C 0.7025(3) 0.7945(3) 0.7273(7)
H14_4 H 0.693816 0.767053 0.682971
C23_4 C 0.6632(3) 0.8323(3) 0.7546(6)
H15_4 H 0.627905 0.831458 0.726908
C24_4 C 0.8241(4) 0.8385(5) 0.8754(8)
H16_4 H 0.825730 0.870413 0.916477
H17_4 H 0.829956 0.805140 0.911761
H18_4 H 0.852613 0.841545 0.827772
O16_4 O 0.89878(14) 0.58279(13) 0.6715(3)
C25_4 C 0.9081(2) 0.63229(19) 0.6436(4)
C26_4 C 0.8703(2) 0.6747(2) 0.6798(5)
C27_4 C 0.8727(2) 0.7256(2) 0.6433(5)
H19_4 H 0.899559 0.733417 0.597490
C28_4 C 0.8360(3) 0.7681(2) 0.6713(5)
C29_4 C 0.7971(2) 0.7551(2) 0.7343(5)
C30_4 C 0.7945(3) 0.7025(3) 0.7727(7)
H20_4 H 0.767053 0.693816 0.817029
C31_4 C 0.8323(3) 0.6632(3) 0.7454(6)
H21_4 H 0.831458 0.627905 0.773092
C32_4 C 0.8385(5) 0.8241(4) 0.6246(8)
H22_4 H 0.870413 0.825730 0.583523
H23_4 H 0.805140 0.829956 0.588239
H24_4 H 0.841545 0.852613 0.672228
O11_3 O 0.0686(3) 0.500000 0.7761(4)
O12_3 O 0.1617(2) 0.500000 0.6160(4)
O5_3 O 0.9314(3) 0.500000 0.7761(4)
O6_3 O 0.8383(2) 0.500000 0.6160(4)
O5_4 O 0.500000 0.0686(3) 0.2761(4)
O6_4 O 0.500000 0.1617(2) 0.1160(4)
O11_4 O 0.500000 0.9314(3) 0.2761(4)
O12_4 O 0.500000 0.8383(2) 0.1160(4)
loop_
_geom_bond_atom_site_label_1
_geom_bond_atom_site_label_2
_geom_bond_site_symmetry_1
_geom_bond_site_symmetry_2
Zr1 O1 1_555 1_555
Zr2 O1 1_555 1_555
O2 Zr1 1_555 1_555
O3 Zr2 1_555 1_555
O4 Zr1 1_555 1_555
O5 Zr1 1_555 1_555
O6 Zr1 1_555 1_555
C1 O3 1_555 1_555
C2 C1 1_555 1_555
C3 C2 1_555 1_555
H1 C3 1_555 1_555
C4 C3 1_555 1_555
C5 C4 1_555 1_555
C6 C5 1_555 1_555
H2 C6 1_555 1_555
C7 C2 1_555 1_555
H3 C7 1_555 1_555
C8 C4 1_555 1_555
H4 C8 1_555 1_555
H5 C8 1_555 1_555
H6 C8 1_555 1_555
O7 C9 1_555 1_555
O8 C9 1_555 1_555
C9 C10 1_555 1_555
C10 C11 1_555 1_555
C11 H7 1_555 1_555
C12 C11 1_555 1_555
C13 C5 1_555 1_555
C14 C13 1_555 1_555
H8 C14 1_555 1_555
C15 C10 1_555 1_555
H9 C15 1_555 1_555
C16 C12 1_555 1_555
H10 C16 1_555 1_555
H11 C16 1_555 1_555
H12 C16 1_555 1_555
O9 Zr1 1_555 1_555
O13 C17 1_555 1_555
O14 Zr1 1_555 1_555
C17 O14 1_555 1_555
C18 C17 1_555 1_555
C19 C18 1_555 1_555
H13 C19 1_555 1_555
C20 C19 1_555 1_555
C21 C20 1_555 1_555
C22 C21 1_555 1_555
H14 C22 1_555 1_555
C23 C18 1_555 1_555
H15 C23 1_555 1_555
C24 C20 1_555 1_555
H16 C24 1_555 1_555
H17 C24 1_555 1_555
H18 C24 1_555 1_555
O15 C25 1_555 1_555
O16 C25 1_555 1_555
C25 C26 1_555 1_555
C26 C27 1_555 1_555
C27 H19 1_555 1_555
C28 C27 1_555 1_555
C29 C21 1_555 1_555
C30 C29 1_555 1_555
H20 C30 1_555 1_555
C31 C26 1_555 1_555
H21 C31 1_555 1_555
C32 C28 1_555 1_555
H22 C32 1_555 1_555
H23 C32 1_555 1_555
H24 C32 1_555 1_555
Zr5 O2 1_555 1_555
Zr6 O8 1_555 1_555
Zr7 O16 1_555 1_555
Zr8 O9 1_555 1_555
Zr10 O7 1_555 1_555
Zr10_3 O15 1_555 1_555
O17 Zr2 1_555 1_555
O19 Zr1 1_555 1_555
O21 Zr2 1_555 1_555
Zr2 O2 1_555 1_555
O4 C1 1_555 1_555
C6 C7 1_555 1_555
C12 C13 1_555 1_555
C14 C15 1_555 1_555
O13 Zr8 1_555 1_555
C22 C23 1_555 1_555
C28 C29 1_555 1_555
C30 C31 1_555 1_555
Zr5 O17 1_555 1_555
Zr5 O19 1_555 1_555
Zr8 O19 1_555 1_555
Zr2_2 O1_2 1_555 1_555
O1_2 Zr3 1_555 1_555
Zr3 O9_2 1_555 1_555
O10 Zr3 1_555 1_555
O11 Zr3 1_555 1_555
O12 Zr3 1_555 1_555
Zr4 O10 1_555 1_555
Zr8_2 O9_2 1_555 1_555
O17_2 Zr2_2 1_555 1_555
O18 Zr2_2 1_555 1_555
O20 Zr2_2 1_555 1_555
O22 Zr2_2 1_555 1_555
O23 Zr3 1_555 1_555
O24 Zr3 1_555 1_555
Zr3 O18 1_555 1_555
O10 Zr8_2 1_555 1_555
Zr4 O17_2 1_555 1_555
Zr4 O18 1_555 1_555
O17_3 Zr8 1_555 1_555
O20_2 Zr8 1_555 1_555
Zr5 O17_3 1_555 1_555
O3_2 Zr8_2 1_555 1_555
C1_2 O3_2 1_555 1_555
C2_2 C1_2 1_555 1_555
C3_2 C2_2 1_555 1_555
H1_2 C3_2 1_555 1_555
C4_2 C3_2 1_555 1_555
C5_2 C4_2 1_555 1_555
C6_2 C5_2 1_555 1_555
H2_2 C6_2 1_555 1_555
C7_2 C2_2 1_555 1_555
H3_2 C7_2 1_555 1_555
C8_2 C4_2 1_555 1_555
H4_2 C8_2 1_555 1_555
H5_2 C8_2 1_555 1_555
H6_2 C8_2 1_555 1_555
O7_2 C9_2 1_555 1_555
O8_2 C9_2 1_555 1_555
C9_2 C10_2 1_555 1_555
C10_2 C11_2 1_555 1_555
C11_2 H7_2 1_555 1_555
C12_2 C11_2 1_555 1_555
C13_2 C5_2 1_555 1_555
C14_2 C13_2 1_555 1_555
H8_2 C14_2 1_555 1_555
C15_2 C10_2 1_555 1_555
H9_2 C15_2 1_555 1_555
C16_2 C12_2 1_555 1_555
H10_2 C16_2 1_555 1_555
H11_2 C16_2 1_555 1_555
H12_2 C16_2 1_555 1_555
O22 C17_2 1_555 1_555
C17_2 O24 1_555 1_555
C18_2 C17_2 1_555 1_555
C19_2 C18_2 1_555 1_555
H13_2 C19_2 1_555 1_555
C20_2 C19_2 1_555 1_555
C21_2 C20_2 1_555 1_555
C22_2 C21_2 1_555 1_555
H14_2 C22_2 1_555 1_555
C23_2 C18_2 1_555 1_555
H15_2 C23_2 1_555 1_555
C24_2 C20_2 1_555 1_555
H16_2 C24_2 1_555 1_555
H17_2 C24_2 1_555 1_555
H18_2 C24_2 1_555 1_555
O15_2 C25_2 1_555 1_555
O16_2 C25_2 1_555 1_555
C25_2 C26_2 1_555 1_555
C26_2 C27_2 1_555 1_555
C27_2 H19_2 1_555 1_555
C28_2 C27_2 1_555 1_555
C29_2 C21_2 1_555 1_555
C30_2 C29_2 1_555 1_555
H20_2 C30_2 1_555 1_555
C31_2 C26_2 1_555 1_555
H21_2 C31_2 1_555 1_555
C32_2 C28_2 1_555 1_555
H22_2 C32_2 1_555 1_555
H23_2 C32_2 1_555 1_555
H24_2 C32_2 1_555 1_555
Zr7 O8_2 1_555 1_555
Zr6 O16_2 1_555 1_555
Zr9_3 O7_2 1_555 1_555
Zr9 O15_2 1_555 1_555
O17_4 Zr8_2 1_555 1_555
O21_2 Zr8_2 1_555 1_555
O23 C1_2 1_555 1_555
C6_2 C7_2 1_555 1_555
C12_2 C13_2 1_555 1_555
C14_2 C15_2 1_555 1_555
C22_2 C23_2 1_555 1_555
C28_2 C29_2 1_555 1_555
C30_2 C31_2 1_555 1_555
Zr4 O17_4 1_555 1_555
Zr6 O2_2 1_555 1_555
O17_5 Zr9 1_555 1_555
Zr9 O2_2 1_555 1_555
Zr6 O17_5 1_555 1_555
Zr6 O19_2 1_555 1_555
Zr10 O19_2 1_555 1_555
Zr1_2 O1_3 1_555 1_555
Zr9_2 O1_3 1_555 1_555
O2_3 Zr1_2 1_555 1_555
O3_3 Zr9_2 1_555 1_555
O4_2 Zr1_2 1_555 1_555
O5_2 Zr1_2 1_555 1_555
O6_2 Zr1_2 1_555 1_555
C1_3 O3_3 1_555 1_555
C2_3 C1_3 1_555 1_555
C3_3 C2_3 1_555 1_555
H1_3 C3_3 1_555 1_555
C4_3 C3_3 1_555 1_555
C5_3 C4_3 1_555 1_555
C6_3 C5_3 1_555 1_555
H2_3 C6_3 1_555 1_555
C7_3 C2_3 1_555 1_555
H3_3 C7_3 1_555 1_555
C8_3 C4_3 1_555 1_555
H4_3 C8_3 1_555 1_555
H5_3 C8_3 1_555 1_555
H6_3 C8_3 1_555 1_555
O20 C9_3 1_555 1_555
O8_3 C9_3 1_555 1_555
C9_3 C10_3 1_555 1_555
C10_3 C11_3 1_555 1_555
C11_3 H7_3 1_555 1_555
C12_3 C11_3 1_555 1_555
C13_3 C5_3 1_555 1_555
C14_3 C13_3 1_555 1_555
H8_3 C14_3 1_555 1_555
C15_3 C10_3 1_555 1_555
H9_3 C15_3 1_555 1_555
C16_3 C12_3 1_555 1_555
H10_3 C16_3 1_555 1_555
H11_3 C16_3 1_555 1_555
H12_3 C16_3 1_555 1_555
O9_3 Zr1_2 1_555 1_555
O13_2 C17_3 1_555 1_555
O14_2 Zr1_2 1_555 1_555
C17_3 O14_2 1_555 1_555
C18_3 C17_3 1_555 1_555
C19_3 C18_3 1_555 1_555
H13_3 C19_3 1_555 1_555
C20_3 C19_3 1_555 1_555
C21_3 C20_3 1_555 1_555
C22_3 C21_3 1_555 1_555
H14_3 C22_3 1_555 1_555
C23_3 C18_3 1_555 1_555
H15_3 C23_3 1_555 1_555
C24_3 C20_3 1_555 1_555
H16_3 C24_3 1_555 1_555
H17_3 C24_3 1_555 1_555
H18_3 C24_3 1_555 1_555
O21 C25_3 1_555 1_555
O16_3 C25_3 1_555 1_555
C25_3 C26_3 1_555 1_555
C26_3 C27_3 1_555 1_555
C27_3 H19_3 1_555 1_555
C28_3 C27_3 1_555 1_555
C29_3 C21_3 1_555 1_555
C30_3 C29_3 1_555 1_555
H20_3 C30_3 1_555 1_555
C31_3 C26_3 1_555 1_555
H21_3 C31_3 1_555 1_555
C32_3 C28_3 1_555 1_555
H22_3 C32_3 1_555 1_555
H23_3 C32_3 1_555 1_555
H24_3 C32_3 1_555 1_555
Zr4 O8_3 1_555 1_555
Zr5 O16_3 1_555 1_555
Zr10_2 O9_3 1_555 1_555
O19_3 Zr1_2 1_555 1_555
Zr9_2 O2_3 1_555 1_555
O4_2 C1_3 1_555 1_555
C6_3 C7_3 1_555 1_555
C12_3 C13_3 1_555 1_555
C14_3 C15_3 1_555 1_555
O13_2 Zr10_2 1_555 1_555
C22_3 C23_3 1_555 1_555
C28_3 C29_3 1_555 1_555
C30_3 C31_3 1_555 1_555
Zr10_2 O19_3 1_555 1_555
Zr7 O10_2 1_555 1_555
O17_6 Zr9_3 1_555 1_555
O18_2 Zr9_3 1_555 1_555
O10_2 Zr10_3 1_555 1_555
Zr7 O17_6 1_555 1_555
Zr7 O18_2 1_555 1_555
Zr9_4 O1_4 1_555 1_555
O1_4 Zr3_2 1_555 1_555
Zr3_2 O9_4 1_555 1_555
O10_3 Zr3_2 1_555 1_555
O11_2 Zr3_2 1_555 1_555
O12_2 Zr3_2 1_555 1_555
Zr10_4 O9_4 1_555 1_555
O18_3 Zr9_4 1_555 1_555
O22_2 Zr9_4 1_555 1_555
O23_2 Zr3_2 1_555 1_555
O24_2 Zr3_2 1_555 1_555
Zr3_2 O18_3 1_555 1_555
O10_3 Zr10_4 1_555 1_555
O17_7 Zr10 1_555 1_555
Zr6 O17_7 1_555 1_555
O17_8 Zr10_3 1_555 1_555
Zr7 O17_8 1_555 1_555
O3_4 Zr10_4 1_555 1_555
C1_4 O3_4 1_555 1_555
C2_4 C1_4 1_555 1_555
C3_4 C2_4 1_555 1_555
H1_4 C3_4 1_555 1_555
C4_4 C3_4 1_555 1_555
C5_4 C4_4 1_555 1_555
C6_4 C5_4 1_555 1_555
H2_4 C6_4 1_555 1_555
C7_4 C2_4 1_555 1_555
H3_4 C7_4 1_555 1_555
C8_4 C4_4 1_555 1_555
H4_4 C8_4 1_555 1_555
H5_4 C8_4 1_555 1_555
H6_4 C8_4 1_555 1_555
O20_2 C9_4 1_555 1_555
O8_4 C9_4 1_555 1_555
C9_4 C10_4 1_555 1_555
C10_4 C11_4 1_555 1_555
C11_4 H7_4 1_555 1_555
C12_4 C11_4 1_555 1_555
C13_4 C5_4 1_555 1_555
C14_4 C13_4 1_555 1_555
H8_4 C14_4 1_555 1_555
C15_4 C10_4 1_555 1_555
H9_4 C15_4 1_555 1_555
C16_4 C12_4 1_555 1_555
H10_4 C16_4 1_555 1_555
H11_4 C16_4 1_555 1_555
H12_4 C16_4 1_555 1_555
O22_2 C17_4 1_555 1_555
C17_4 O24_2 1_555 1_555
C18_4 C17_4 1_555 1_555
C19_4 C18_4 1_555 1_555
H13_4 C19_4 1_555 1_555
C20_4 C19_4 1_555 1_555
C21_4 C20_4 1_555 1_555
C22_4 C21_4 1_555 1_555
H14_4 C22_4 1_555 1_555
C23_4 C18_4 1_555 1_555
H15_4 C23_4 1_555 1_555
C24_4 C20_4 1_555 1_555
H16_4 C24_4 1_555 1_555
H17_4 C24_4 1_555 1_555
H18_4 C24_4 1_555 1_555
O21_2 C25_4 1_555 1_555
O16_4 C25_4 1_555 1_555
C25_4 C26_4 1_555 1_555
C26_4 C27_4 1_555 1_555
C27_4 H19_4 1_555 1_555
C28_4 C27_4 1_555 1_555
C29_4 C21_4 1_555 1_555
C30_4 C29_4 1_555 1_555
H20_4 C30_4 1_555 1_555
C31_4 C26_4 1_555 1_555
H21_4 C31_4 1_555 1_555
C32_4 C28_4 1_555 1_555
H22_4 C32_4 1_555 1_555
H23_4 C32_4 1_555 1_555
H24_4 C32_4 1_555 1_555
Zr5 O8_4 1_555 1_555
Zr4 O16_4 1_555 1_555
O23_2 C1_4 1_555 1_555
C6_4 C7_4 1_555 1_555
C12_4 C13_4 1_555 1_555
C14_4 C15_4 1_555 1_555
C22_4 C23_4 1_555 1_555
C28_4 C29_4 1_555 1_555
C30_4 C31_4 1_555 1_555
O11_3 Zr5 1_555 1_555
O12_3 Zr5 1_555 1_555
O5_3 Zr4 1_555 1_555
O6_3 Zr4 1_555 1_555
O5_4 Zr6 1_555 1_555
O6_4 Zr6 1_555 1_555
O11_4 Zr7 1_555 1_555
O12_4 Zr7 1_555 1_555

#END
