
###############################################################################
#
# This file contains modified crystal structure data generated from the
# MOF subset of the Cambridge Structural Database (CSD) v543 
# hosted by the Cambridge Crystallographic Data Centre (CCDC).
#
# This work is licensed under the Creative Commons
# Attribution-NonCommercial-ShareAlike 4.0 International License.
# To view a copy of this license, visit
# http://creativecommons.org/licenses/by-nc-sa/4.0/
# or send a letter to
# Creative Commons, PO Box 1866, Mountain View, CA 94042, USA.
#
# CIF created using the CSD Python API on 29 September 2022
# The structure has been converted into the P1 space group
# The structure has a 3D framework
# The original CSD entry RUBTAK01 is in the cubic crystal system
# The framework has been calculated to contain at least 10.0% void space
# The void calculation uses a probe of radius 1.32A, grid spacing 0.4
# H atom positions have been added when not included in the experimental data
#
###############################################################################

data_RUBTAK01
_chemical_formula_moiety         '(C288 H144 O160 Zr31)n'
_symmetry_cell_setting           triclinic
_symmetry_space_group_name_H-M   'P 1'
_symmetry_Int_Tables_number      1
_space_group_name_Hall           'P 1'
loop_
_symmetry_equiv_pos_site_id
_symmetry_equiv_pos_as_xyz
1 x,y,z
_cell_length_a                   20.9550(23)
_cell_length_b                   20.9550(23)
_cell_length_c                   20.9550(23)
_cell_angle_alpha                90
_cell_angle_beta                 90
_cell_angle_gamma                90
_cell_volume                     9201.59
loop_
_atom_site_label
_atom_site_type_symbol
_atom_site_fract_x
_atom_site_fract_y
_atom_site_fract_z
_atom_site_U_iso_or_equiv
_atom_site_thermal_displace_type
Zr1 Zr -0.0000 -0.0000 0.1237 0.0000 Uiso
O1 O 0.0712 0.0712 0.0712 0.0000 Uiso
O2 O 0.0988 -0.0000 0.1743 0.0000 Uiso
C1 C 0.1563 -0.0000 0.1563 0.0000 Uiso
C2 C 0.2033 -0.0000 0.2033 0.0000 Uiso
C3 C 0.2626 0.0000 0.1851 0.0000 Uiso
Zr4 Zr 0.1237 0.0000 0.0000 0.0000 Uiso
Zr5 Zr -0.0000 0.1237 0.0000 0.0000 Uiso
Zr6 Zr 0.3763 -0.0000 0.5000 0.0000 Uiso
Zr7 Zr 0.5000 -0.0000 0.3763 0.0000 Uiso
Zr10 Zr -0.0000 0.3763 0.5000 0.0000 Uiso
Zr11 Zr -0.0000 0.5000 0.3763 0.0000 Uiso
O10 O 0.4288 0.0712 0.4288 0.0000 Uiso
O12 O 0.4288 0.0712 0.5712 0.0000 Uiso
O14 O 0.1743 0.0000 0.0988 0.0000 Uiso
O15 O 0.3257 -0.0000 0.4012 0.0000 Uiso
O16 O 0.4012 0.0000 0.3257 0.0000 Uiso
O21 O -0.0000 0.0988 0.1743 0.0000 Uiso
O22 O -0.0000 0.1743 0.0988 0.0000 Uiso
O23 O -0.0000 0.3257 0.4012 0.0000 Uiso
O24 O 0.0000 0.4012 0.3257 0.0000 Uiso
O40 O 0.1743 0.0988 0.0000 0.0000 Uiso
O42 O 0.0988 0.1743 0.0000 0.0000 Uiso
O46 O 0.3257 0.0988 0.5000 0.0000 Uiso
O47 O 0.3257 0.0000 0.5988 0.0000 Uiso
C4 C 0.3437 -0.0000 0.3437 0.0000 Uiso
C7 C -0.0000 0.1563 0.1563 0.0000 Uiso
C8 C -0.0000 0.3437 0.3437 0.0000 Uiso
C15 C 0.2967 0.0000 0.2967 0.0000 Uiso
C18 C -0.0000 0.2033 0.2033 0.0000 Uiso
C19 C 0.0000 0.2967 0.2967 0.0000 Uiso
C26 C 0.3149 0.0000 0.2374 0.0000 Uiso
C27 C 0.2374 -0.0000 0.3149 0.0000 Uiso
C28 C 0.1851 -0.0000 0.2626 0.0000 Uiso
C33 C -0.0000 0.2626 0.1851 0.0000 Uiso
C34 C 0.0000 0.3149 0.2374 0.0000 Uiso
C35 C -0.0000 0.2374 0.3149 0.0000 Uiso
C36 C -0.0000 0.1851 0.2626 0.0000 Uiso
H9 H 0.224855 0 0.365332 . .
H11 H 3.08149e-33 0.224855 0.365332 . .
H13 H -1.2326e-32 0.134668 0.275145 . .
H19 H 0.365332 1.54074e-33 0.224855 . .
H20 H -1.2326e-32 0.275145 0.134668 . .
H21 H 0.134668 -3.08149e-33 0.275145 . .
H22 H 3.08149e-33 0.365332 0.224855 . .
H24 H 0.275145 -3.08149e-33 0.134668 . .
Zr4_2 Zr 0.1237 -0.0000 1.0000 0.0000 Uiso
Zr5_2 Zr 0.0000 0.1237 1.0000 0.0000 Uiso
Zr18 Zr -0.0000 -0.0000 0.8763 0.0000 Uiso
O9 O 0.0712 0.0712 0.9288 0.0000 Uiso
O40_2 O 0.1743 0.0988 1.0000 0.0000 Uiso
O41 O 0.1743 0.0000 0.9012 0.0000 Uiso
O42_2 O 0.0988 0.1743 1.0000 0.0000 Uiso
O44 O -0.0000 0.1743 0.9012 0.0000 Uiso
Zr1_2 Zr -0.0000 1.0000 0.1237 0.0000 Uiso
O2_2 O 0.0988 1.0000 0.1743 0.0000 Uiso
C1_2 C 0.1563 1.0000 0.1563 0.0000 Uiso
C2_2 C 0.2033 1.0000 0.2033 0.0000 Uiso
C3_2 C 0.2626 1.0000 0.1851 0.0000 Uiso
Zr2 Zr -0.0000 0.8763 0.0000 0.0000 Uiso
Zr4_3 Zr 0.1237 1.0000 0.0000 0.0000 Uiso
Zr6_2 Zr 0.3763 1.0000 0.5000 0.0000 Uiso
Zr7_2 Zr 0.5000 1.0000 0.3763 0.0000 Uiso
Zr8 Zr -0.0000 0.6237 0.5000 0.0000 Uiso
Zr16 Zr 0.3763 0.5000 0.0000 0.0000 Uiso
Zr17 Zr 0.5000 0.6237 0.0000 0.0000 Uiso
O3 O 0.0712 0.9288 0.0712 0.0000 Uiso
O11 O 0.4288 0.9288 0.4288 0.0000 Uiso
O13 O 0.4288 0.9288 0.5712 0.0000 Uiso
O14_2 O 0.1743 1.0000 0.0988 0.0000 Uiso
O15_2 O 0.3257 1.0000 0.4012 0.0000 Uiso
O16_2 O 0.4012 1.0000 0.3257 0.0000 Uiso
O17 O 0.0000 0.9012 0.1743 0.0000 Uiso
O18 O -0.0000 0.8257 0.0988 0.0000 Uiso
O19 O -0.0000 0.6743 0.4012 0.0000 Uiso
O20 O 0.0000 0.5988 0.3257 0.0000 Uiso
O33 O 0.0988 0.8257 0.0000 0.0000 Uiso
O34 O 0.1743 0.9012 0.0000 0.0000 Uiso
O35 O 0.3257 0.5988 0.0000 0.0000 Uiso
O36 O 0.4012 0.6743 0.0000 0.0000 Uiso
O45 O 0.3257 0.9012 0.5000 0.0000 Uiso
O47_2 O 0.3257 1.0000 0.5988 0.0000 Uiso
C4_2 C 0.3437 1.0000 0.3437 0.0000 Uiso
C5 C -0.0000 0.8437 0.1563 0.0000 Uiso
C6 C 0.0000 0.6563 0.3437 0.0000 Uiso
C13 C 0.1563 0.8437 0.0000 0.0000 Uiso
C14 C 0.3437 0.6563 0.0000 0.0000 Uiso
C15_2 C 0.2967 1.0000 0.2967 0.0000 Uiso
C16 C -0.0000 0.7967 0.2033 0.0000 Uiso
C17 C -0.0000 0.7033 0.2967 0.0000 Uiso
C24 C 0.2033 0.7967 0.0000 0.0000 Uiso
C25 C 0.2967 0.7033 0.0000 0.0000 Uiso
C26_2 C 0.3149 1.0000 0.2374 0.0000 Uiso
C27_2 C 0.2374 1.0000 0.3149 0.0000 Uiso
C28_2 C 0.1851 1.0000 0.2626 0.0000 Uiso
C29 C -0.0000 0.7374 0.1851 0.0000 Uiso
C30 C -0.0000 0.6851 0.2374 0.0000 Uiso
C31 C -0.0000 0.7626 0.3149 0.0000 Uiso
C32 C -0.0000 0.8149 0.2626 0.0000 Uiso
C45 C 0.2626 0.8149 0.0000 0.0000 Uiso
C46 C 0.3149 0.7626 0.0000 0.0000 Uiso
C47 C 0.2374 0.6851 0.0000 0.0000 Uiso
C48 C 0.1851 0.7374 0.0000 0.0000 Uiso
H1 H -6.16298e-33 0.865332 0.275145 . .
H2 H 3.08149e-33 0.724855 0.134668 . .
H8 H 0.275145 0.865332 0 . .
H9_2 H 0.224855 1 0.365332 . .
H10 H -3.08149e-33 0.634668 0.224855 . .
H15 H 0.365332 0.775145 0 . .
H16 H -3.08149e-33 0.775145 0.365332 . .
H18 H 0.224855 0.634668 0 . .
H19_2 H 0.365332 1 0.224855 . .
H21_2 H 0.134668 1 0.275145 . .
H23 H 0.134668 0.724855 0 . .
H24_2 H 0.275145 1 0.134668 . .
Zr2_2 Zr 0.0000 0.8763 1.0000 0.0000 Uiso
Zr4_4 Zr 0.1237 1.0000 1.0000 0.0000 Uiso
Zr16_2 Zr 0.3763 0.5000 1.0000 0.0000 Uiso
Zr17_2 Zr 0.5000 0.6237 1.0000 0.0000 Uiso
Zr18_2 Zr -0.0000 1.0000 0.8763 0.0000 Uiso
O6 O 0.0712 0.9288 0.9288 0.0000 Uiso
O33_2 O 0.0988 0.8257 1.0000 0.0000 Uiso
O34_2 O 0.1743 0.9012 1.0000 0.0000 Uiso
O35_2 O 0.3257 0.5988 1.0000 0.0000 Uiso
O36_2 O 0.4012 0.6743 1.0000 0.0000 Uiso
O37 O 0.0000 0.8257 0.9012 0.0000 Uiso
O41_2 O 0.1743 1.0000 0.9012 0.0000 Uiso
C13_2 C 0.1563 0.8437 1.0000 0.0000 Uiso
C14_2 C 0.3437 0.6563 1.0000 0.0000 Uiso
C24_2 C 0.2033 0.7967 1.0000 0.0000 Uiso
C25_2 C 0.2967 0.7033 1.0000 0.0000 Uiso
C45_2 C 0.2626 0.8149 1.0000 0.0000 Uiso
C46_2 C 0.3149 0.7626 1.0000 0.0000 Uiso
C47_2 C 0.2374 0.6851 1.0000 0.0000 Uiso
C48_2 C 0.1851 0.7374 1.0000 0.0000 Uiso
H8_2 H 0.275145 0.865332 1 . .
H15_2 H 0.365332 0.775145 1 . .
H18_2 H 0.224855 0.634668 1 . .
H23_2 H 0.134668 0.724855 1 . .
Zr1_3 Zr 1.0000 -0.0000 0.1237 0.0000 Uiso
Zr3 Zr 0.8763 0.0000 0.0000 0.0000 Uiso
Zr5_3 Zr 1.0000 0.1237 0.0000 0.0000 Uiso
Zr10_2 Zr 1.0000 0.3763 0.5000 0.0000 Uiso
Zr11_2 Zr 1.0000 0.5000 0.3763 0.0000 Uiso
Zr12 Zr 0.6237 -0.0000 0.5000 0.0000 Uiso
O4 O 0.9288 0.0712 0.0712 0.0000 Uiso
O21_2 O 1.0000 0.0988 0.1743 0.0000 Uiso
O22_2 O 1.0000 0.1743 0.0988 0.0000 Uiso
O23_2 O 1.0000 0.3257 0.4012 0.0000 Uiso
O24_2 O 1.0000 0.4012 0.3257 0.0000 Uiso
O25 O 0.9012 -0.0000 0.1743 0.0000 Uiso
O26 O 0.8257 0.0000 0.0988 0.0000 Uiso
O27 O 0.6743 -0.0000 0.4012 0.0000 Uiso
O28 O 0.5988 0.0000 0.3257 0.0000 Uiso
O38 O 0.8257 0.0988 0.0000 0.0000 Uiso
O43 O 0.9012 0.1743 0.0000 0.0000 Uiso
C7_2 C 1.0000 0.1563 0.1563 0.0000 Uiso
C8_2 C 1.0000 0.3437 0.3437 0.0000 Uiso
C9 C 0.8437 -0.0000 0.1563 0.0000 Uiso
C10 C 0.6563 -0.0000 0.3437 0.0000 Uiso
C18_2 C 1.0000 0.2033 0.2033 0.0000 Uiso
C19_2 C 1.0000 0.2967 0.2967 0.0000 Uiso
C20 C 0.7967 -0.0000 0.2033 0.0000 Uiso
C21 C 0.7033 0.0000 0.2967 0.0000 Uiso
C33_2 C 1.0000 0.2626 0.1851 0.0000 Uiso
C34_2 C 1.0000 0.3149 0.2374 0.0000 Uiso
C35_2 C 1.0000 0.2374 0.3149 0.0000 Uiso
C36_2 C 1.0000 0.1851 0.2626 0.0000 Uiso
C37 C 0.7374 0.0000 0.1851 0.0000 Uiso
C38 C 0.6851 0.0000 0.2374 0.0000 Uiso
C39 C 0.7626 -0.0000 0.3149 0.0000 Uiso
C40 C 0.8149 -0.0000 0.2626 0.0000 Uiso
H3 H 0.634668 1.54074e-33 0.224855 . .
H11_2 H 1 0.224855 0.365332 . .
H12 H 0.724855 -3.08149e-33 0.134668 . .
H13_2 H 1 0.134668 0.275145 . .
H14 H 0.865332 -9.24446e-33 0.275145 . .
H17 H 0.775145 0 0.365332 . .
H20_2 H 1 0.275145 0.134668 . .
H22_2 H 1 0.365332 0.224855 . .
Zr3_2 Zr 0.8763 -0.0000 1.0000 0.0000 Uiso
Zr5_4 Zr 1.0000 0.1237 1.0000 0.0000 Uiso
Zr18_3 Zr 1.0000 -0.0000 0.8763 0.0000 Uiso
O8 O 0.9288 0.0712 0.9288 0.0000 Uiso
O38_2 O 0.8257 0.0988 1.0000 0.0000 Uiso
O39 O 0.8257 0.0000 0.9012 0.0000 Uiso
O43_2 O 0.9012 0.1743 1.0000 0.0000 Uiso
O44_2 O 1.0000 0.1743 0.9012 0.0000 Uiso
Zr1_4 Zr 1.0000 1.0000 0.1237 0.0000 Uiso
Zr2_3 Zr 1.0000 0.8763 0.0000 0.0000 Uiso
Zr3_3 Zr 0.8763 1.0000 0.0000 0.0000 Uiso
Zr8_2 Zr 1.0000 0.6237 0.5000 0.0000 Uiso
Zr12_2 Zr 0.6237 1.0000 0.5000 0.0000 Uiso
Zr14 Zr 0.6237 0.5000 0.0000 0.0000 Uiso
O5 O 0.9288 0.9288 0.0712 0.0000 Uiso
O17_2 O 1.0000 0.9012 0.1743 0.0000 Uiso
O18_2 O 1.0000 0.8257 0.0988 0.0000 Uiso
O19_2 O 1.0000 0.6743 0.4012 0.0000 Uiso
O20_2 O 1.0000 0.5988 0.3257 0.0000 Uiso
O25_2 O 0.9012 1.0000 0.1743 0.0000 Uiso
O26_2 O 0.8257 1.0000 0.0988 0.0000 Uiso
O27_2 O 0.6743 1.0000 0.4012 0.0000 Uiso
O28_2 O 0.5988 1.0000 0.3257 0.0000 Uiso
O29 O 0.9012 0.8257 0.0000 0.0000 Uiso
O30 O 0.8257 0.9012 0.0000 0.0000 Uiso
O31 O 0.6743 0.5988 0.0000 0.0000 Uiso
O32 O 0.5988 0.6743 0.0000 0.0000 Uiso
C5_2 C 1.0000 0.8437 0.1563 0.0000 Uiso
C6_2 C 1.0000 0.6563 0.3437 0.0000 Uiso
C9_2 C 0.8437 1.0000 0.1563 0.0000 Uiso
C10_2 C 0.6563 1.0000 0.3437 0.0000 Uiso
C11 C 0.8437 0.8437 0.0000 0.0000 Uiso
C12 C 0.6563 0.6563 0.0000 0.0000 Uiso
C16_2 C 1.0000 0.7967 0.2033 0.0000 Uiso
C17_2 C 1.0000 0.7033 0.2967 0.0000 Uiso
C20_2 C 0.7967 1.0000 0.2033 0.0000 Uiso
C21_2 C 0.7033 1.0000 0.2967 0.0000 Uiso
C22 C 0.7967 0.7967 0.0000 0.0000 Uiso
C23 C 0.7033 0.7033 0.0000 0.0000 Uiso
C29_2 C 1.0000 0.7374 0.1851 0.0000 Uiso
C30_2 C 1.0000 0.6851 0.2374 0.0000 Uiso
C31_2 C 1.0000 0.7626 0.3149 0.0000 Uiso
C32_2 C 1.0000 0.8149 0.2626 0.0000 Uiso
C37_2 C 0.7374 1.0000 0.1851 0.0000 Uiso
C38_2 C 0.6851 1.0000 0.2374 0.0000 Uiso
C39_2 C 0.7626 1.0000 0.3149 0.0000 Uiso
C40_2 C 0.8149 1.0000 0.2626 0.0000 Uiso
C41 C 0.7374 0.8149 0.0000 0.0000 Uiso
C42 C 0.6851 0.7626 0.0000 0.0000 Uiso
C43 C 0.7626 0.6851 0.0000 0.0000 Uiso
C44 C 0.8149 0.7374 0.0000 0.0000 Uiso
H1_2 H 1 0.865332 0.275145 . .
H2_2 H 1 0.724855 0.134668 . .
H3_2 H 0.634668 1 0.224855 . .
H4 H 0.724855 0.865332 0 . .
H5 H 0.634668 0.775145 0 . .
H6 H 0.775145 0.634668 0 . .
H7 H 0.865332 0.724855 0 . .
H10_2 H 1 0.634668 0.224855 . .
H12_2 H 0.724855 1 0.134668 . .
H14_2 H 0.865332 1 0.275145 . .
H16_2 H 1 0.775145 0.365332 . .
H17_2 H 0.775145 1 0.365332 . .
Zr2_4 Zr 1.0000 0.8763 1.0000 0.0000 Uiso
Zr3_4 Zr 0.8763 1.0000 1.0000 0.0000 Uiso
Zr14_2 Zr 0.6237 0.5000 1.0000 0.0000 Uiso
Zr18_4 Zr 1.0000 1.0000 0.8763 0.0000 Uiso
O7 O 0.9288 0.9288 0.9288 0.0000 Uiso
O29_2 O 0.9012 0.8257 1.0000 0.0000 Uiso
O30_2 O 0.8257 0.9012 1.0000 0.0000 Uiso
O31_2 O 0.6743 0.5988 1.0000 0.0000 Uiso
O32_2 O 0.5988 0.6743 1.0000 0.0000 Uiso
O37_2 O 1.0000 0.8257 0.9012 0.0000 Uiso
O39_2 O 0.8257 1.0000 0.9012 0.0000 Uiso
C11_2 C 0.8437 0.8437 1.0000 0.0000 Uiso
C12_2 C 0.6563 0.6563 1.0000 0.0000 Uiso
C22_2 C 0.7967 0.7967 1.0000 0.0000 Uiso
C23_2 C 0.7033 0.7033 1.0000 0.0000 Uiso
C41_2 C 0.7374 0.8149 1.0000 0.0000 Uiso
C42_2 C 0.6851 0.7626 1.0000 0.0000 Uiso
C43_2 C 0.7626 0.6851 1.0000 0.0000 Uiso
C44_2 C 0.8149 0.7374 1.0000 0.0000 Uiso
H4_2 H 0.724855 0.865332 1 . .
H5_2 H 0.634668 0.775145 1 . .
H6_2 H 0.775145 0.634668 1 . .
H7_2 H 0.865332 0.724855 1 . .
C1_3 C 0.1563 0.1563 -0.0000 0.0000 Uiso
C2_3 C 0.2033 0.2033 -0.0000 0.0000 Uiso
C3_3 C 0.1851 0.2626 0.0000 0.0000 Uiso
Zr6_3 Zr 0.5000 0.3763 -0.0000 0.0000 Uiso
O10_2 O 0.4288 0.4288 0.0712 0.0000 Uiso
O12_2 O 0.5712 0.4288 0.0712 0.0000 Uiso
O15_3 O 0.4012 0.3257 -0.0000 0.0000 Uiso
O16_3 O 0.3257 0.4012 0.0000 0.0000 Uiso
O46_2 O 0.5000 0.3257 0.0988 0.0000 Uiso
O47_3 O 0.5988 0.3257 0.0000 0.0000 Uiso
C4_3 C 0.3437 0.3437 -0.0000 0.0000 Uiso
C15_3 C 0.2967 0.2967 0.0000 0.0000 Uiso
C26_3 C 0.2374 0.3149 0.0000 0.0000 Uiso
C27_3 C 0.3149 0.2374 -0.0000 0.0000 Uiso
C28_3 C 0.2626 0.1851 -0.0000 0.0000 Uiso
H9_3 H 0.365332 0.224855 0 . .
H19_3 H 0.224855 0.365332 1.54074e-33 . .
H21_3 H 0.275145 0.134668 -3.08149e-33 . .
H24_3 H 0.134668 0.275145 -1.54074e-33 . .
C1_4 C 0.1563 0.1563 1.0000 0.0000 Uiso
C2_4 C 0.2033 0.2033 1.0000 0.0000 Uiso
C3_4 C 0.1851 0.2626 1.0000 0.0000 Uiso
Zr6_4 Zr 0.5000 0.3763 1.0000 0.0000 Uiso
Zr8_3 Zr 0.5000 -0.0000 0.6237 0.0000 Uiso
Zr17_3 Zr -0.0000 0.5000 0.6237 0.0000 Uiso
O11_2 O 0.4288 0.4288 0.9288 0.0000 Uiso
O13_2 O 0.5712 0.4288 0.9288 0.0000 Uiso
O15_4 O 0.4012 0.3257 1.0000 0.0000 Uiso
O16_4 O 0.3257 0.4012 1.0000 0.0000 Uiso
O18_3 O 0.0988 -0.0000 0.8257 0.0000 Uiso
O19_3 O 0.4012 -0.0000 0.6743 0.0000 Uiso
O33_3 O -0.0000 0.0988 0.8257 0.0000 Uiso
O35_3 O 0.0000 0.3257 0.5988 0.0000 Uiso
O36_3 O -0.0000 0.4012 0.6743 0.0000 Uiso
O45_2 O 0.5000 0.3257 0.9012 0.0000 Uiso
O47_4 O 0.5988 0.3257 1.0000 0.0000 Uiso
C4_4 C 0.3437 0.3437 1.0000 0.0000 Uiso
C5_3 C 0.1563 -0.0000 0.8437 0.0000 Uiso
C6_3 C 0.3437 0.0000 0.6563 0.0000 Uiso
C13_3 C 0.0000 0.1563 0.8437 0.0000 Uiso
C14_3 C -0.0000 0.3437 0.6563 0.0000 Uiso
C15_4 C 0.2967 0.2967 1.0000 0.0000 Uiso
C16_3 C 0.2033 -0.0000 0.7967 0.0000 Uiso
C17_3 C 0.2967 -0.0000 0.7033 0.0000 Uiso
C24_3 C 0.0000 0.2033 0.7967 0.0000 Uiso
C25_3 C -0.0000 0.2967 0.7033 0.0000 Uiso
C26_4 C 0.2374 0.3149 1.0000 0.0000 Uiso
C27_4 C 0.3149 0.2374 1.0000 0.0000 Uiso
C28_4 C 0.2626 0.1851 1.0000 0.0000 Uiso
C29_3 C 0.1851 -0.0000 0.7374 0.0000 Uiso
C30_3 C 0.2374 -0.0000 0.6851 0.0000 Uiso
C31_3 C 0.3149 -0.0000 0.7626 0.0000 Uiso
C32_3 C 0.2626 -0.0000 0.8149 0.0000 Uiso
C45_3 C 0.0000 0.2626 0.8149 0.0000 Uiso
C46_3 C 0.0000 0.3149 0.7626 0.0000 Uiso
C47_3 C -0.0000 0.2374 0.6851 0.0000 Uiso
C48_3 C -0.0000 0.1851 0.7374 0.0000 Uiso
H1_3 H 0.275145 -1.2326e-32 0.865332 . .
H2_3 H 0.134668 0 0.724855 . .
H8_3 H 0 0.275145 0.865332 . .
H9_4 H 0.365332 0.224855 1 . .
H10_3 H 0.224855 0 0.634668 . .
H15_3 H -6.16298e-33 0.365332 0.775145 . .
H16_3 H 0.365332 -6.16298e-33 0.775145 . .
H18_3 H -6.16298e-33 0.224855 0.634668 . .
H19_4 H 0.224855 0.365332 1 . .
H21_4 H 0.275145 0.134668 1 . .
H23_3 H 6.16298e-33 0.134668 0.724855 . .
H24_4 H 0.134668 0.275145 1 . .
Zr8_4 Zr 0.5000 1.0000 0.6237 0.0000 Uiso
O18_4 O 0.0988 1.0000 0.8257 0.0000 Uiso
O19_4 O 0.4012 1.0000 0.6743 0.0000 Uiso
O29_3 O 0.0000 0.9012 0.8257 0.0000 Uiso
O31_3 O 0.0000 0.6743 0.5988 0.0000 Uiso
O32_3 O 0.0000 0.5988 0.6743 0.0000 Uiso
C5_4 C 0.1563 1.0000 0.8437 0.0000 Uiso
C6_4 C 0.3437 1.0000 0.6563 0.0000 Uiso
C11_3 C 0.0000 0.8437 0.8437 0.0000 Uiso
C12_3 C -0.0000 0.6563 0.6563 0.0000 Uiso
C16_4 C 0.2033 1.0000 0.7967 0.0000 Uiso
C17_4 C 0.2967 1.0000 0.7033 0.0000 Uiso
C22_3 C 0.0000 0.7967 0.7967 0.0000 Uiso
C23_3 C -0.0000 0.7033 0.7033 0.0000 Uiso
C29_4 C 0.1851 1.0000 0.7374 0.0000 Uiso
C30_4 C 0.2374 1.0000 0.6851 0.0000 Uiso
C31_4 C 0.3149 1.0000 0.7626 0.0000 Uiso
C32_4 C 0.2626 1.0000 0.8149 0.0000 Uiso
C41_3 C -0.0000 0.7374 0.8149 0.0000 Uiso
C42_3 C -0.0000 0.6851 0.7626 0.0000 Uiso
C43_3 C -0.0000 0.7626 0.6851 0.0000 Uiso
C44_3 C 0.0000 0.8149 0.7374 0.0000 Uiso
H1_4 H 0.275145 1 0.865332 . .
H2_4 H 0.134668 1 0.724855 . .
H4_3 H -1.2326e-32 0.724855 0.865332 . .
H5_3 H -6.16298e-33 0.634668 0.775145 . .
H6_3 H 0 0.775145 0.634668 . .
H7_3 H -6.16298e-33 0.865332 0.724855 . .
H10_4 H 0.224855 1 0.634668 . .
H16_4 H 0.365332 1 0.775145 . .
Zr17_4 Zr 1.0000 0.5000 0.6237 0.0000 Uiso
O33_4 O 1.0000 0.0988 0.8257 0.0000 Uiso
O35_4 O 1.0000 0.3257 0.5988 0.0000 Uiso
O36_4 O 1.0000 0.4012 0.6743 0.0000 Uiso
O37_3 O 0.9012 -0.0000 0.8257 0.0000 Uiso
C13_4 C 1.0000 0.1563 0.8437 0.0000 Uiso
C14_4 C 1.0000 0.3437 0.6563 0.0000 Uiso
C24_4 C 1.0000 0.2033 0.7967 0.0000 Uiso
C25_4 C 1.0000 0.2967 0.7033 0.0000 Uiso
C45_4 C 1.0000 0.2626 0.8149 0.0000 Uiso
C46_4 C 1.0000 0.3149 0.7626 0.0000 Uiso
C47_4 C 1.0000 0.2374 0.6851 0.0000 Uiso
C48_4 C 1.0000 0.1851 0.7374 0.0000 Uiso
H8_4 H 1 0.275145 0.865332 . .
H15_4 H 1 0.365332 0.775145 . .
H18_4 H 1 0.224855 0.634668 . .
H23_4 H 1 0.134668 0.724855 . .
O29_4 O 1.0000 0.9012 0.8257 0.0000 Uiso
O31_4 O 1.0000 0.6743 0.5988 0.0000 Uiso
O32_4 O 1.0000 0.5988 0.6743 0.0000 Uiso
O37_4 O 0.9012 1.0000 0.8257 0.0000 Uiso
C11_4 C 1.0000 0.8437 0.8437 0.0000 Uiso
C12_4 C 1.0000 0.6563 0.6563 0.0000 Uiso
C22_4 C 1.0000 0.7967 0.7967 0.0000 Uiso
C23_4 C 1.0000 0.7033 0.7033 0.0000 Uiso
C41_4 C 1.0000 0.7374 0.8149 0.0000 Uiso
C42_4 C 1.0000 0.6851 0.7626 0.0000 Uiso
C43_4 C 1.0000 0.7626 0.6851 0.0000 Uiso
C44_4 C 1.0000 0.8149 0.7374 0.0000 Uiso
H4_4 H 1 0.724855 0.865332 . .
H5_4 H 1 0.634668 0.775145 . .
H6_4 H 1 0.775145 0.634668 . .
H7_4 H 1 0.865332 0.724855 . .
O10_3 O 0.0712 0.4288 0.4288 0.0000 Uiso
O12_3 O 0.0712 0.5712 0.4288 0.0000 Uiso
O46_3 O 0.0988 0.5000 0.3257 0.0000 Uiso
O11_3 O 0.9288 0.4288 0.4288 0.0000 Uiso
O13_3 O 0.9288 0.5712 0.4288 0.0000 Uiso
O19_5 O 0.6743 0.4012 -0.0000 0.0000 Uiso
O45_3 O 0.9012 0.5000 0.3257 0.0000 Uiso
C5_5 C 0.8437 0.1563 0.0000 0.0000 Uiso
C6_5 C 0.6563 0.3437 0.0000 0.0000 Uiso
C16_5 C 0.7967 0.2033 0.0000 0.0000 Uiso
C17_5 C 0.7033 0.2967 0.0000 0.0000 Uiso
C29_5 C 0.7374 0.1851 0.0000 0.0000 Uiso
C30_5 C 0.6851 0.2374 0.0000 0.0000 Uiso
C31_5 C 0.7626 0.3149 0.0000 0.0000 Uiso
C32_5 C 0.8149 0.2626 -0.0000 0.0000 Uiso
H1_5 H 0.865332 0.275145 -3.08149e-33 . .
H2_5 H 0.724855 0.134668 3.08149e-33 . .
H10_5 H 0.634668 0.224855 3.08149e-33 . .
H16_5 H 0.775145 0.365332 3.08149e-33 . .
O19_6 O 0.6743 0.4012 1.0000 0.0000 Uiso
O31_5 O 0.5988 0.0000 0.6743 0.0000 Uiso
O32_5 O 0.6743 0.0000 0.5988 0.0000 Uiso
C5_6 C 0.8437 0.1563 1.0000 0.0000 Uiso
C6_6 C 0.6563 0.3437 1.0000 0.0000 Uiso
C11_5 C 0.8437 -0.0000 0.8437 0.0000 Uiso
C12_5 C 0.6563 -0.0000 0.6563 0.0000 Uiso
C16_6 C 0.7967 0.2033 1.0000 0.0000 Uiso
C17_6 C 0.7033 0.2967 1.0000 0.0000 Uiso
C22_5 C 0.7967 -0.0000 0.7967 0.0000 Uiso
C23_5 C 0.7033 -0.0000 0.7033 0.0000 Uiso
C29_6 C 0.7374 0.1851 1.0000 0.0000 Uiso
C30_6 C 0.6851 0.2374 1.0000 0.0000 Uiso
C31_6 C 0.7626 0.3149 1.0000 0.0000 Uiso
C32_6 C 0.8149 0.2626 1.0000 0.0000 Uiso
C41_5 C 0.8149 -0.0000 0.7374 0.0000 Uiso
C42_5 C 0.7626 -0.0000 0.6851 0.0000 Uiso
C43_5 C 0.6851 -0.0000 0.7626 0.0000 Uiso
C44_5 C 0.7374 -0.0000 0.8149 0.0000 Uiso
H1_6 H 0.865332 0.275145 1 . .
H2_6 H 0.724855 0.134668 1 . .
H4_5 H 0.865332 0 0.724855 . .
H5_5 H 0.775145 -6.16298e-33 0.634668 . .
H6_5 H 0.634668 -6.16298e-33 0.775145 . .
H7_5 H 0.724855 0 0.865332 . .
H10_6 H 0.634668 0.224855 1 . .
H16_6 H 0.775145 0.365332 1 . .
O31_6 O 0.5988 1.0000 0.6743 0.0000 Uiso
O32_6 O 0.6743 1.0000 0.5988 0.0000 Uiso
C11_6 C 0.8437 1.0000 0.8437 0.0000 Uiso
C12_6 C 0.6563 1.0000 0.6563 0.0000 Uiso
C22_6 C 0.7967 1.0000 0.7967 0.0000 Uiso
C23_6 C 0.7033 1.0000 0.7033 0.0000 Uiso
C41_6 C 0.8149 1.0000 0.7374 0.0000 Uiso
C42_6 C 0.7626 1.0000 0.6851 0.0000 Uiso
C43_6 C 0.6851 1.0000 0.7626 0.0000 Uiso
C44_6 C 0.7374 1.0000 0.8149 0.0000 Uiso
H4_6 H 0.865332 1 0.724855 . .
H5_6 H 0.775145 1 0.634668 . .
H6_6 H 0.634668 1 0.775145 . .
H7_6 H 0.724855 1 0.865332 . .
O10_4 O 0.0712 0.5712 0.5712 0.0000 Uiso
O12_4 O 0.0712 0.4288 0.5712 0.0000 Uiso
O46_4 O 0.0988 0.5000 0.6743 0.0000 Uiso
O11_4 O 0.9288 0.5712 0.5712 0.0000 Uiso
O13_4 O 0.9288 0.4288 0.5712 0.0000 Uiso
O45_4 O 0.9012 0.5000 0.6743 0.0000 Uiso
O10_5 O 0.5712 0.0712 0.5712 0.0000 Uiso
O12_5 O 0.5712 0.0712 0.4288 0.0000 Uiso
O46_5 O 0.6743 0.0988 0.5000 0.0000 Uiso
O11_5 O 0.5712 0.9288 0.5712 0.0000 Uiso
O13_5 O 0.5712 0.9288 0.4288 0.0000 Uiso
O45_5 O 0.6743 0.9012 0.5000 0.0000 Uiso
O10_6 O 0.5712 0.5712 0.0712 0.0000 Uiso
O12_6 O 0.4288 0.5712 0.0712 0.0000 Uiso
O46_6 O 0.5000 0.6743 0.0988 0.0000 Uiso
O11_6 O 0.5712 0.5712 0.9288 0.0000 Uiso
O13_6 O 0.4288 0.5712 0.9288 0.0000 Uiso
O45_6 O 0.5000 0.6743 0.9012 0.0000 Uiso
O46_7 O 0.0988 0.3257 0.5000 0.0000 Uiso
O45_7 O 0.9012 0.3257 0.5000 0.0000 Uiso
O46_8 O 0.5000 0.0988 0.3257 0.0000 Uiso
O45_8 O 0.5000 0.9012 0.3257 0.0000 Uiso
O46_9 O 0.3257 0.5000 0.0988 0.0000 Uiso
O45_9 O 0.3257 0.5000 0.9012 0.0000 Uiso
O45_10 O 0.0988 0.6743 0.5000 0.0000 Uiso
O46_10 O 0.9012 0.6743 0.5000 0.0000 Uiso
O45_11 O 0.5000 0.0988 0.6743 0.0000 Uiso
O46_11 O 0.5000 0.9012 0.6743 0.0000 Uiso
O45_12 O 0.6743 0.5000 0.0988 0.0000 Uiso
O46_12 O 0.6743 0.5000 0.9012 0.0000 Uiso
C1_5 C 0.1563 0.5000 0.6563 0.0000 Uiso
C2_5 C 0.2033 0.5000 0.7033 0.0000 Uiso
C3_5 C 0.2626 0.5000 0.6851 0.0000 Uiso
Zr4_5 Zr 0.1237 0.5000 0.5000 0.0000 Uiso
Zr7_3 Zr 0.5000 0.5000 0.8763 0.0000 Uiso
Zr17_5 Zr 0.5000 0.1237 0.5000 0.0000 Uiso
O14_3 O 0.1743 0.5000 0.5988 0.0000 Uiso
O16_5 O 0.4012 0.5000 0.8257 0.0000 Uiso
O34_3 O 0.1743 0.4012 0.5000 0.0000 Uiso
O36_5 O 0.4012 0.1743 0.5000 0.0000 Uiso
O40_3 O 0.1743 0.5988 0.5000 0.0000 Uiso
O41_3 O 0.1743 0.5000 0.4012 0.0000 Uiso
C4_5 C 0.3437 0.5000 0.8437 0.0000 Uiso
C13_5 C 0.1563 0.3437 0.5000 0.0000 Uiso
C14_5 C 0.3437 0.1563 0.5000 0.0000 Uiso
C15_5 C 0.2967 0.5000 0.7967 0.0000 Uiso
C24_5 C 0.2033 0.2967 0.5000 0.0000 Uiso
C25_5 C 0.2967 0.2033 0.5000 0.0000 Uiso
C26_5 C 0.3149 0.5000 0.7374 0.0000 Uiso
C27_5 C 0.2374 0.5000 0.8149 0.0000 Uiso
C28_5 C 0.1851 0.5000 0.7626 0.0000 Uiso
C45_5 C 0.2626 0.3149 0.5000 0.0000 Uiso
C46_5 C 0.3149 0.2626 0.5000 0.0000 Uiso
C47_5 C 0.2374 0.1851 0.5000 0.0000 Uiso
C48_5 C 0.1851 0.2374 0.5000 0.0000 Uiso
H8_5 H 0.275145 0.365332 0.5 . .
H9_5 H 0.224855 0.5 0.865332 . .
H15_5 H 0.365332 0.275145 0.5 . .
H18_5 H 0.224855 0.134668 0.5 . .
H19_5 H 0.365332 0.5 0.724855 . .
H21_5 H 0.134668 0.5 0.775145 . .
H23_5 H 0.134668 0.224855 0.5 . .
H24_5 H 0.275145 0.5 0.634668 . .
Zr3_5 Zr 0.8763 0.5000 0.5000 0.0000 Uiso
O26_3 O 0.8257 0.5000 0.5988 0.0000 Uiso
O28_3 O 0.5988 0.5000 0.8257 0.0000 Uiso
O30_3 O 0.8257 0.4012 0.5000 0.0000 Uiso
O32_7 O 0.5988 0.1743 0.5000 0.0000 Uiso
O38_3 O 0.8257 0.5988 0.5000 0.0000 Uiso
O39_3 O 0.8257 0.5000 0.4012 0.0000 Uiso
C9_3 C 0.8437 0.5000 0.6563 0.0000 Uiso
C10_3 C 0.6563 0.5000 0.8437 0.0000 Uiso
C11_7 C 0.8437 0.3437 0.5000 0.0000 Uiso
C12_7 C 0.6563 0.1563 0.5000 0.0000 Uiso
C20_3 C 0.7967 0.5000 0.7033 0.0000 Uiso
C21_3 C 0.7033 0.5000 0.7967 0.0000 Uiso
C22_7 C 0.7967 0.2967 0.5000 0.0000 Uiso
C23_7 C 0.7033 0.2033 0.5000 0.0000 Uiso
C37_3 C 0.7374 0.5000 0.6851 0.0000 Uiso
C38_3 C 0.6851 0.5000 0.7374 0.0000 Uiso
C39_3 C 0.7626 0.5000 0.8149 0.0000 Uiso
C40_3 C 0.8149 0.5000 0.7626 0.0000 Uiso
C41_7 C 0.7374 0.3149 0.5000 0.0000 Uiso
C42_7 C 0.6851 0.2626 0.5000 0.0000 Uiso
C43_7 C 0.7626 0.1851 0.5000 0.0000 Uiso
C44_7 C 0.8149 0.2374 0.5000 0.0000 Uiso
H3_3 H 0.634668 0.5 0.724855 . .
H4_7 H 0.724855 0.365332 0.5 . .
H5_7 H 0.634668 0.275145 0.5 . .
H6_7 H 0.775145 0.134668 0.5 . .
H7_7 H 0.865332 0.224855 0.5 . .
H12_3 H 0.724855 0.5 0.634668 . .
H14_3 H 0.865332 0.5 0.775145 . .
H17_3 H 0.775145 0.5 0.865332 . .
C1_6 C 0.1563 0.6563 0.5000 0.0000 Uiso
C2_6 C 0.2033 0.7033 0.5000 0.0000 Uiso
C3_6 C 0.1851 0.7626 0.5000 0.0000 Uiso
Zr6_5 Zr 0.5000 0.8763 0.5000 0.0000 Uiso
Zr8_5 Zr 0.5000 0.5000 0.1237 0.0000 Uiso
O15_5 O 0.4012 0.8257 0.5000 0.0000 Uiso
O19_7 O 0.4012 0.5000 0.1743 0.0000 Uiso
O45_13 O 0.5000 0.8257 0.4012 0.0000 Uiso
O46_13 O 0.5000 0.8257 0.5988 0.0000 Uiso
O47_5 O 0.5988 0.8257 0.5000 0.0000 Uiso
C4_6 C 0.3437 0.8437 0.5000 0.0000 Uiso
C5_7 C 0.1563 0.5000 0.3437 0.0000 Uiso
C6_7 C 0.3437 0.5000 0.1563 0.0000 Uiso
C15_6 C 0.2967 0.7967 0.5000 0.0000 Uiso
C16_7 C 0.2033 0.5000 0.2967 0.0000 Uiso
C17_7 C 0.2967 0.5000 0.2033 0.0000 Uiso
C26_6 C 0.2374 0.8149 0.5000 0.0000 Uiso
C27_6 C 0.3149 0.7374 0.5000 0.0000 Uiso
C28_6 C 0.2626 0.6851 0.5000 0.0000 Uiso
C29_7 C 0.1851 0.5000 0.2374 0.0000 Uiso
C30_7 C 0.2374 0.5000 0.1851 0.0000 Uiso
C31_7 C 0.3149 0.5000 0.2626 0.0000 Uiso
C32_7 C 0.2626 0.5000 0.3149 0.0000 Uiso
H1_7 H 0.275145 0.5 0.365332 . .
H2_7 H 0.134668 0.5 0.224855 . .
H9_6 H 0.365332 0.724855 0.5 . .
H10_7 H 0.224855 0.5 0.134668 . .
H16_7 H 0.365332 0.5 0.275145 . .
H19_6 H 0.224855 0.865332 0.5 . .
H21_6 H 0.275145 0.634668 0.5 . .
H24_6 H 0.134668 0.775145 0.5 . .
O31_7 O 0.5988 0.5000 0.1743 0.0000 Uiso
C5_8 C 0.8437 0.6563 0.5000 0.0000 Uiso
C6_8 C 0.6563 0.8437 0.5000 0.0000 Uiso
C11_8 C 0.8437 0.5000 0.3437 0.0000 Uiso
C12_8 C 0.6563 0.5000 0.1563 0.0000 Uiso
C16_8 C 0.7967 0.7033 0.5000 0.0000 Uiso
C17_8 C 0.7033 0.7967 0.5000 0.0000 Uiso
C22_8 C 0.7967 0.5000 0.2967 0.0000 Uiso
C23_8 C 0.7033 0.5000 0.2033 0.0000 Uiso
C29_8 C 0.7374 0.6851 0.5000 0.0000 Uiso
C30_8 C 0.6851 0.7374 0.5000 0.0000 Uiso
C31_8 C 0.7626 0.8149 0.5000 0.0000 Uiso
C32_8 C 0.8149 0.7626 0.5000 0.0000 Uiso
C41_8 C 0.8149 0.5000 0.2374 0.0000 Uiso
C42_8 C 0.7626 0.5000 0.1851 0.0000 Uiso
C43_8 C 0.6851 0.5000 0.2626 0.0000 Uiso
C44_8 C 0.7374 0.5000 0.3149 0.0000 Uiso
H1_8 H 0.865332 0.775145 0.5 . .
H2_8 H 0.724855 0.634668 0.5 . .
H4_8 H 0.865332 0.5 0.224855 . .
H5_8 H 0.775145 0.5 0.134668 . .
H6_8 H 0.634668 0.5 0.275145 . .
H7_8 H 0.724855 0.5 0.365332 . .
H10_8 H 0.634668 0.724855 0.5 . .
H16_8 H 0.775145 0.865332 0.5 . .
O45_14 O 0.5000 0.1743 0.4012 0.0000 Uiso
O46_14 O 0.5000 0.1743 0.5988 0.0000 Uiso
O45_15 O 0.5000 0.4012 0.8257 0.0000 Uiso
O46_15 O 0.5000 0.5988 0.8257 0.0000 Uiso
O45_16 O 0.5000 0.5988 0.1743 0.0000 Uiso
O46_16 O 0.5000 0.4012 0.1743 0.0000 Uiso
C7_3 C 0.5000 0.1563 0.6563 0.0000 Uiso
C8_3 C 0.5000 0.3437 0.8437 0.0000 Uiso
C18_3 C 0.5000 0.2033 0.7033 0.0000 Uiso
C19_3 C 0.5000 0.2967 0.7967 0.0000 Uiso
C33_3 C 0.5000 0.2626 0.6851 0.0000 Uiso
C34_3 C 0.5000 0.3149 0.7374 0.0000 Uiso
C35_3 C 0.5000 0.2374 0.8149 0.0000 Uiso
C36_3 C 0.5000 0.1851 0.7626 0.0000 Uiso
H11_3 H 0.5 0.224855 0.865332 . .
H13_3 H 0.5 0.134668 0.775145 . .
H20_3 H 0.5 0.275145 0.634668 . .
H22_3 H 0.5 0.365332 0.724855 . .
C5_9 C 0.5000 0.8437 0.6563 0.0000 Uiso
C6_9 C 0.5000 0.6563 0.8437 0.0000 Uiso
C16_9 C 0.5000 0.7967 0.7033 0.0000 Uiso
C17_9 C 0.5000 0.7033 0.7967 0.0000 Uiso
C29_9 C 0.5000 0.7374 0.6851 0.0000 Uiso
C30_9 C 0.5000 0.6851 0.7374 0.0000 Uiso
C31_9 C 0.5000 0.7626 0.8149 0.0000 Uiso
C32_9 C 0.5000 0.8149 0.7626 0.0000 Uiso
H1_9 H 0.5 0.865332 0.775145 . .
H2_9 H 0.5 0.724855 0.634668 . .
H10_9 H 0.5 0.634668 0.724855 . .
H16_9 H 0.5 0.775145 0.865332 . .
C13_6 C 0.5000 0.1563 0.3437 0.0000 Uiso
C14_6 C 0.5000 0.3437 0.1563 0.0000 Uiso
C24_6 C 0.5000 0.2033 0.2967 0.0000 Uiso
C25_6 C 0.5000 0.2967 0.2033 0.0000 Uiso
C45_6 C 0.5000 0.2626 0.3149 0.0000 Uiso
C46_6 C 0.5000 0.3149 0.2626 0.0000 Uiso
C47_6 C 0.5000 0.2374 0.1851 0.0000 Uiso
C48_6 C 0.5000 0.1851 0.2374 0.0000 Uiso
H8_6 H 0.5 0.275145 0.365332 . .
H15_6 H 0.5 0.365332 0.275145 . .
H18_6 H 0.5 0.224855 0.134668 . .
H23_6 H 0.5 0.134668 0.224855 . .
C11_9 C 0.5000 0.8437 0.3437 0.0000 Uiso
C12_9 C 0.5000 0.6563 0.1563 0.0000 Uiso
C22_9 C 0.5000 0.7967 0.2967 0.0000 Uiso
C23_9 C 0.5000 0.7033 0.2033 0.0000 Uiso
C41_9 C 0.5000 0.7374 0.3149 0.0000 Uiso
C42_9 C 0.5000 0.6851 0.2626 0.0000 Uiso
C43_9 C 0.5000 0.7626 0.1851 0.0000 Uiso
C44_9 C 0.5000 0.8149 0.2374 0.0000 Uiso
H4_9 H 0.5 0.724855 0.365332 . .
H5_9 H 0.5 0.634668 0.275145 . .
H6_9 H 0.5 0.775145 0.134668 . .
H7_9 H 0.5 0.865332 0.224855 . .
loop_
_geom_bond_atom_site_label_1
_geom_bond_atom_site_label_2
_geom_bond_site_symmetry_1
_geom_bond_site_symmetry_2
Zr1 O1 1_555 1_555
O1 Zr4 1_555 1_555
O2 Zr1 1_555 1_555
C1 O2 1_555 1_555
C2 C1 1_555 1_555
C3 C2 1_555 1_555
Zr5 O1 1_555 1_555
Zr6 O10 1_555 1_555
Zr7 O10 1_555 1_555
Zr10 O23 1_555 1_555
Zr11 O24 1_555 1_555
O12 Zr6 1_555 1_555
O14 C1 1_555 1_555
O15 Zr6 1_555 1_555
O16 Zr7 1_555 1_555
O21 Zr1 1_555 1_555
O22 Zr5 1_555 1_555
O23 C8 1_555 1_555
O24 C8 1_555 1_555
O40 Zr4 1_555 1_555
O42 Zr5 1_555 1_555
O46 Zr6 1_555 1_555
O47 Zr6 1_555 1_555
C4 O15 1_555 1_555
C7 O21 1_555 1_555
C8 C19 1_555 1_555
C15 C4 1_555 1_555
C18 C7 1_555 1_555
C19 C34 1_555 1_555
C26 C3 1_555 1_555
C27 C15 1_555 1_555
C28 C2 1_555 1_555
C33 C18 1_555 1_555
C34 C33 1_555 1_555
C35 C19 1_555 1_555
C36 C18 1_555 1_555
Zr4 O14 1_555 1_555
O16 C4 1_555 1_555
O22 C7 1_555 1_555
C15 C26 1_555 1_555
C27 C28 1_555 1_555
C35 C36 1_555 1_555
C27 H9 1_555 1_555
C35 H11 1_555 1_555
C36 H13 1_555 1_555
C26 H19 1_555 1_555
C33 H20 1_555 1_555
C28 H21 1_555 1_555
C34 H22 1_555 1_555
C3 H24 1_555 1_555
O9 Zr4_2 1_555 1_555
O40_2 Zr4_2 1_555 1_555
O41 Zr4_2 1_555 1_555
O42_2 Zr5_2 1_555 1_555
O44 Zr5_2 1_555 1_555
Zr5_2 O9 1_555 1_555
Zr18 O9 1_555 1_555
O2_2 Zr1_2 1_555 1_555
C1_2 O2_2 1_555 1_555
C2_2 C1_2 1_555 1_555
C3_2 C2_2 1_555 1_555
Zr2 O3 1_555 1_555
Zr4_3 O3 1_555 1_555
Zr8 O19 1_555 1_555
Zr11 O20 1_555 1_555
Zr16 O35 1_555 1_555
Zr17 O36 1_555 1_555
O3 Zr1_2 1_555 1_555
O11 Zr6_2 1_555 1_555
O13 Zr6_2 1_555 1_555
O14_2 C1_2 1_555 1_555
O15_2 Zr6_2 1_555 1_555
O16_2 Zr7_2 1_555 1_555
O17 Zr1_2 1_555 1_555
O18 Zr2 1_555 1_555
O19 C6 1_555 1_555
O20 C6 1_555 1_555
O33 Zr2 1_555 1_555
O34 Zr4_3 1_555 1_555
O35 C14 1_555 1_555
O36 C14 1_555 1_555
O45 Zr6_2 1_555 1_555
O47_2 Zr6_2 1_555 1_555
C4_2 O15_2 1_555 1_555
C5 O17 1_555 1_555
C6 C17 1_555 1_555
C13 O33 1_555 1_555
C14 C25 1_555 1_555
C15_2 C4_2 1_555 1_555
C16 C5 1_555 1_555
C17 C30 1_555 1_555
C24 C13 1_555 1_555
C25 C46 1_555 1_555
C26_2 C3_2 1_555 1_555
C27_2 C15_2 1_555 1_555
C28_2 C2_2 1_555 1_555
C29 C16 1_555 1_555
C30 C29 1_555 1_555
C31 C17 1_555 1_555
C32 C16 1_555 1_555
C45 C24 1_555 1_555
C46 C45 1_555 1_555
C47 C25 1_555 1_555
C48 C24 1_555 1_555
Zr4_3 O14_2 1_555 1_555
Zr7_2 O11 1_555 1_555
O16_2 C4_2 1_555 1_555
O18 C5 1_555 1_555
O34 C13 1_555 1_555
C15_2 C26_2 1_555 1_555
C27_2 C28_2 1_555 1_555
C31 C32 1_555 1_555
C47 C48 1_555 1_555
C32 H1 1_555 1_555
C29 H2 1_555 1_555
C45 H8 1_555 1_555
C27_2 H9_2 1_555 1_555
C30 H10 1_555 1_555
C46 H15 1_555 1_555
C31 H16 1_555 1_555
C47 H18 1_555 1_555
C26_2 H19_2 1_555 1_555
C28_2 H21_2 1_555 1_555
C48 H23 1_555 1_555
C3_2 H24_2 1_555 1_555
Zr16_2 O35_2 1_555 1_555
Zr17_2 O36_2 1_555 1_555
Zr18_2 O6 1_555 1_555
O6 Zr2_2 1_555 1_555
O33_2 Zr2_2 1_555 1_555
O34_2 Zr4_4 1_555 1_555
O35_2 C14_2 1_555 1_555
O36_2 C14_2 1_555 1_555
O37 Zr2_2 1_555 1_555
O41_2 Zr4_4 1_555 1_555
C13_2 O33_2 1_555 1_555
C14_2 C25_2 1_555 1_555
C24_2 C13_2 1_555 1_555
C25_2 C46_2 1_555 1_555
C45_2 C24_2 1_555 1_555
C46_2 C45_2 1_555 1_555
C47_2 C25_2 1_555 1_555
C48_2 C24_2 1_555 1_555
Zr4_4 O6 1_555 1_555
O34_2 C13_2 1_555 1_555
C47_2 C48_2 1_555 1_555
C45_2 H8_2 1_555 1_555
C46_2 H15_2 1_555 1_555
C47_2 H18_2 1_555 1_555
C48_2 H23_2 1_555 1_555
Zr3 O4 1_555 1_555
Zr10_2 O23_2 1_555 1_555
Zr11_2 O24_2 1_555 1_555
Zr12 O27 1_555 1_555
Zr7 O28 1_555 1_555
O4 Zr1_3 1_555 1_555
O21_2 Zr1_3 1_555 1_555
O22_2 Zr5_3 1_555 1_555
O23_2 C8_2 1_555 1_555
O24_2 C8_2 1_555 1_555
O25 Zr1_3 1_555 1_555
O26 Zr3 1_555 1_555
O27 C10 1_555 1_555
O28 C10 1_555 1_555
O38 Zr3 1_555 1_555
O43 Zr5_3 1_555 1_555
C7_2 O21_2 1_555 1_555
C8_2 C19_2 1_555 1_555
C9 O25 1_555 1_555
C10 C21 1_555 1_555
C18_2 C7_2 1_555 1_555
C19_2 C34_2 1_555 1_555
C20 C9 1_555 1_555
C21 C38 1_555 1_555
C33_2 C18_2 1_555 1_555
C34_2 C33_2 1_555 1_555
C35_2 C19_2 1_555 1_555
C36_2 C18_2 1_555 1_555
C37 C20 1_555 1_555
C38 C37 1_555 1_555
C39 C21 1_555 1_555
C40 C20 1_555 1_555
Zr5_3 O4 1_555 1_555
O22_2 C7_2 1_555 1_555
O26 C9 1_555 1_555
C35_2 C36_2 1_555 1_555
C39 C40 1_555 1_555
C38 H3 1_555 1_555
C35_2 H11_2 1_555 1_555
C37 H12 1_555 1_555
C36_2 H13_2 1_555 1_555
C40 H14 1_555 1_555
C39 H17 1_555 1_555
C33_2 H20_2 1_555 1_555
C34_2 H22_2 1_555 1_555
O8 Zr3_2 1_555 1_555
O38_2 Zr3_2 1_555 1_555
O39 Zr3_2 1_555 1_555
O43_2 Zr5_4 1_555 1_555
O44_2 Zr5_4 1_555 1_555
Zr5_4 O8 1_555 1_555
Zr18_3 O8 1_555 1_555
Zr8_2 O19_2 1_555 1_555
Zr11_2 O20_2 1_555 1_555
Zr12_2 O27_2 1_555 1_555
Zr7_2 O28_2 1_555 1_555
Zr14 O31 1_555 1_555
Zr17 O32 1_555 1_555
O5 Zr1_4 1_555 1_555
O17_2 Zr1_4 1_555 1_555
O18_2 Zr2_3 1_555 1_555
O19_2 C6_2 1_555 1_555
O20_2 C6_2 1_555 1_555
O25_2 Zr1_4 1_555 1_555
O26_2 Zr3_3 1_555 1_555
O27_2 C10_2 1_555 1_555
O28_2 C10_2 1_555 1_555
O29 Zr2_3 1_555 1_555
O30 Zr3_3 1_555 1_555
O31 C12 1_555 1_555
O32 C12 1_555 1_555
C5_2 O17_2 1_555 1_555
C6_2 C17_2 1_555 1_555
C9_2 O25_2 1_555 1_555
C10_2 C21_2 1_555 1_555
C11 O29 1_555 1_555
C12 C23 1_555 1_555
C16_2 C5_2 1_555 1_555
C17_2 C30_2 1_555 1_555
C20_2 C9_2 1_555 1_555
C21_2 C38_2 1_555 1_555
C22 C11 1_555 1_555
C23 C42 1_555 1_555
C29_2 C16_2 1_555 1_555
C30_2 C29_2 1_555 1_555
C31_2 C17_2 1_555 1_555
C32_2 C16_2 1_555 1_555
C37_2 C20_2 1_555 1_555
C38_2 C37_2 1_555 1_555
C39_2 C21_2 1_555 1_555
C40_2 C20_2 1_555 1_555
C41 C22 1_555 1_555
C42 C41 1_555 1_555
C43 C23 1_555 1_555
C44 C22 1_555 1_555
Zr2_3 O5 1_555 1_555
Zr3_3 O5 1_555 1_555
O18_2 C5_2 1_555 1_555
O26_2 C9_2 1_555 1_555
O30 C11 1_555 1_555
C31_2 C32_2 1_555 1_555
C39_2 C40_2 1_555 1_555
C43 C44 1_555 1_555
C32_2 H1_2 1_555 1_555
C29_2 H2_2 1_555 1_555
C38_2 H3_2 1_555 1_555
C41 H4 1_555 1_555
C42 H5 1_555 1_555
C43 H6 1_555 1_555
C44 H7 1_555 1_555
C30_2 H10_2 1_555 1_555
C37_2 H12_2 1_555 1_555
C40_2 H14_2 1_555 1_555
C31_2 H16_2 1_555 1_555
C39_2 H17_2 1_555 1_555
Zr14_2 O31_2 1_555 1_555
Zr17_2 O32_2 1_555 1_555
O7 Zr2_4 1_555 1_555
O29_2 Zr2_4 1_555 1_555
O30_2 Zr3_4 1_555 1_555
O31_2 C12_2 1_555 1_555
O32_2 C12_2 1_555 1_555
O37_2 Zr2_4 1_555 1_555
O39_2 Zr3_4 1_555 1_555
C11_2 O29_2 1_555 1_555
C12_2 C23_2 1_555 1_555
C22_2 C11_2 1_555 1_555
C23_2 C42_2 1_555 1_555
C41_2 C22_2 1_555 1_555
C42_2 C41_2 1_555 1_555
C43_2 C23_2 1_555 1_555
C44_2 C22_2 1_555 1_555
Zr3_4 O7 1_555 1_555
Zr18_4 O7 1_555 1_555
O30_2 C11_2 1_555 1_555
C43_2 C44_2 1_555 1_555
C41_2 H4_2 1_555 1_555
C42_2 H5_2 1_555 1_555
C43_2 H6_2 1_555 1_555
C44_2 H7_2 1_555 1_555
C1_3 O40 1_555 1_555
C2_3 C1_3 1_555 1_555
C3_3 C2_3 1_555 1_555
Zr6_3 O10_2 1_555 1_555
Zr16 O10_2 1_555 1_555
O12_2 Zr6_3 1_555 1_555
O42 C1_3 1_555 1_555
O15_3 Zr6_3 1_555 1_555
O16_3 Zr16 1_555 1_555
O46_2 Zr6_3 1_555 1_555
O47_3 Zr6_3 1_555 1_555
C4_3 O15_3 1_555 1_555
C15_3 C4_3 1_555 1_555
C26_3 C3_3 1_555 1_555
C27_3 C15_3 1_555 1_555
C28_3 C2_3 1_555 1_555
O16_3 C4_3 1_555 1_555
C15_3 C26_3 1_555 1_555
C27_3 C28_3 1_555 1_555
C27_3 H9_3 1_555 1_555
C26_3 H19_3 1_555 1_555
C28_3 H21_3 1_555 1_555
C3_3 H24_3 1_555 1_555
C1_4 O40_2 1_555 1_555
C2_4 C1_4 1_555 1_555
C3_4 C2_4 1_555 1_555
Zr8_3 O19_3 1_555 1_555
Zr10 O35_3 1_555 1_555
Zr17_3 O36_3 1_555 1_555
O11_2 Zr6_4 1_555 1_555
O13_2 Zr6_4 1_555 1_555
O42_2 C1_4 1_555 1_555
O15_4 Zr6_4 1_555 1_555
O16_4 Zr16_2 1_555 1_555
O18_3 Zr18 1_555 1_555
O19_3 C6_3 1_555 1_555
O47 C6_3 1_555 1_555
O33_3 Zr18 1_555 1_555
O35_3 C14_3 1_555 1_555
O36_3 C14_3 1_555 1_555
O45_2 Zr6_4 1_555 1_555
O47_4 Zr6_4 1_555 1_555
C4_4 O15_4 1_555 1_555
C5_3 O41 1_555 1_555
C6_3 C17_3 1_555 1_555
C13_3 O33_3 1_555 1_555
C14_3 C25_3 1_555 1_555
C15_4 C4_4 1_555 1_555
C16_3 C5_3 1_555 1_555
C17_3 C30_3 1_555 1_555
C24_3 C13_3 1_555 1_555
C25_3 C46_3 1_555 1_555
C26_4 C3_4 1_555 1_555
C27_4 C15_4 1_555 1_555
C28_4 C2_4 1_555 1_555
C29_3 C16_3 1_555 1_555
C30_3 C29_3 1_555 1_555
C31_3 C17_3 1_555 1_555
C32_3 C16_3 1_555 1_555
C45_3 C24_3 1_555 1_555
C46_3 C45_3 1_555 1_555
C47_3 C25_3 1_555 1_555
C48_3 C24_3 1_555 1_555
Zr16_2 O11_2 1_555 1_555
O16_4 C4_4 1_555 1_555
O18_3 C5_3 1_555 1_555
O44 C13_3 1_555 1_555
C15_4 C26_4 1_555 1_555
C27_4 C28_4 1_555 1_555
C31_3 C32_3 1_555 1_555
C47_3 C48_3 1_555 1_555
C32_3 H1_3 1_555 1_555
C29_3 H2_3 1_555 1_555
C45_3 H8_3 1_555 1_555
C27_4 H9_4 1_555 1_555
C30_3 H10_3 1_555 1_555
C46_3 H15_3 1_555 1_555
C31_3 H16_3 1_555 1_555
C47_3 H18_3 1_555 1_555
C26_4 H19_4 1_555 1_555
C28_4 H21_4 1_555 1_555
C48_3 H23_3 1_555 1_555
C3_4 H24_4 1_555 1_555
Zr8_4 O19_4 1_555 1_555
Zr8 O31_3 1_555 1_555
Zr17_3 O32_3 1_555 1_555
O18_4 Zr18_2 1_555 1_555
O19_4 C6_4 1_555 1_555
O47_2 C6_4 1_555 1_555
O29_3 Zr18_2 1_555 1_555
O31_3 C12_3 1_555 1_555
O32_3 C12_3 1_555 1_555
C5_4 O41_2 1_555 1_555
C6_4 C17_4 1_555 1_555
C11_3 O29_3 1_555 1_555
C12_3 C23_3 1_555 1_555
C16_4 C5_4 1_555 1_555
C17_4 C30_4 1_555 1_555
C22_3 C11_3 1_555 1_555
C23_3 C42_3 1_555 1_555
C29_4 C16_4 1_555 1_555
C30_4 C29_4 1_555 1_555
C31_4 C17_4 1_555 1_555
C32_4 C16_4 1_555 1_555
C41_3 C22_3 1_555 1_555
C42_3 C41_3 1_555 1_555
C43_3 C23_3 1_555 1_555
C44_3 C22_3 1_555 1_555
O18_4 C5_4 1_555 1_555
O37 C11_3 1_555 1_555
C31_4 C32_4 1_555 1_555
C43_3 C44_3 1_555 1_555
C32_4 H1_4 1_555 1_555
C29_4 H2_4 1_555 1_555
C41_3 H4_3 1_555 1_555
C42_3 H5_3 1_555 1_555
C43_3 H6_3 1_555 1_555
C44_3 H7_3 1_555 1_555
C30_4 H10_4 1_555 1_555
C31_4 H16_4 1_555 1_555
Zr10_2 O35_4 1_555 1_555
Zr17_4 O36_4 1_555 1_555
O33_4 Zr18_3 1_555 1_555
O35_4 C14_4 1_555 1_555
O36_4 C14_4 1_555 1_555
O37_3 Zr18_3 1_555 1_555
C13_4 O33_4 1_555 1_555
C14_4 C25_4 1_555 1_555
C24_4 C13_4 1_555 1_555
C25_4 C46_4 1_555 1_555
C45_4 C24_4 1_555 1_555
C46_4 C45_4 1_555 1_555
C47_4 C25_4 1_555 1_555
C48_4 C24_4 1_555 1_555
O44_2 C13_4 1_555 1_555
C47_4 C48_4 1_555 1_555
C45_4 H8_4 1_555 1_555
C46_4 H15_4 1_555 1_555
C47_4 H18_4 1_555 1_555
C48_4 H23_4 1_555 1_555
Zr8_2 O31_4 1_555 1_555
Zr17_4 O32_4 1_555 1_555
O29_4 Zr18_4 1_555 1_555
O31_4 C12_4 1_555 1_555
O32_4 C12_4 1_555 1_555
O37_4 Zr18_4 1_555 1_555
C11_4 O29_4 1_555 1_555
C12_4 C23_4 1_555 1_555
C22_4 C11_4 1_555 1_555
C23_4 C42_4 1_555 1_555
C41_4 C22_4 1_555 1_555
C42_4 C41_4 1_555 1_555
C43_4 C23_4 1_555 1_555
C44_4 C22_4 1_555 1_555
O37_2 C11_4 1_555 1_555
C43_4 C44_4 1_555 1_555
C41_4 H4_4 1_555 1_555
C42_4 H5_4 1_555 1_555
C43_4 H6_4 1_555 1_555
C44_4 H7_4 1_555 1_555
Zr11 O10_3 1_555 1_555
Zr10 O10_3 1_555 1_555
O12_3 Zr11 1_555 1_555
O46_3 Zr11 1_555 1_555
Zr14 O19_5 1_555 1_555
O11_3 Zr11_2 1_555 1_555
O13_3 Zr11_2 1_555 1_555
O19_5 C6_5 1_555 1_555
O47_3 C6_5 1_555 1_555
O45_3 Zr11_2 1_555 1_555
C5_5 O43 1_555 1_555
C6_5 C17_5 1_555 1_555
C16_5 C5_5 1_555 1_555
C17_5 C30_5 1_555 1_555
C29_5 C16_5 1_555 1_555
C30_5 C29_5 1_555 1_555
C31_5 C17_5 1_555 1_555
C32_5 C16_5 1_555 1_555
Zr10_2 O11_3 1_555 1_555
O38 C5_5 1_555 1_555
C31_5 C32_5 1_555 1_555
C32_5 H1_5 1_555 1_555
C29_5 H2_5 1_555 1_555
C30_5 H10_5 1_555 1_555
C31_5 H16_5 1_555 1_555
Zr14_2 O19_6 1_555 1_555
Zr8_3 O31_5 1_555 1_555
Zr12 O32_5 1_555 1_555
O19_6 C6_6 1_555 1_555
O47_4 C6_6 1_555 1_555
O31_5 C12_5 1_555 1_555
O32_5 C12_5 1_555 1_555
C5_6 O43_2 1_555 1_555
C6_6 C17_6 1_555 1_555
C11_5 O39 1_555 1_555
C12_5 C23_5 1_555 1_555
C16_6 C5_6 1_555 1_555
C17_6 C30_6 1_555 1_555
C22_5 C11_5 1_555 1_555
C23_5 C42_5 1_555 1_555
C29_6 C16_6 1_555 1_555
C30_6 C29_6 1_555 1_555
C31_6 C17_6 1_555 1_555
C32_6 C16_6 1_555 1_555
C41_5 C22_5 1_555 1_555
C42_5 C41_5 1_555 1_555
C43_5 C23_5 1_555 1_555
C44_5 C22_5 1_555 1_555
O38_2 C5_6 1_555 1_555
O37_3 C11_5 1_555 1_555
C31_6 C32_6 1_555 1_555
C43_5 C44_5 1_555 1_555
C32_6 H1_6 1_555 1_555
C29_6 H2_6 1_555 1_555
C41_5 H4_5 1_555 1_555
C42_5 H5_5 1_555 1_555
C43_5 H6_5 1_555 1_555
C44_5 H7_5 1_555 1_555
C30_6 H10_6 1_555 1_555
C31_6 H16_6 1_555 1_555
Zr8_4 O31_6 1_555 1_555
Zr12_2 O32_6 1_555 1_555
O31_6 C12_6 1_555 1_555
O32_6 C12_6 1_555 1_555
C11_6 O39_2 1_555 1_555
C12_6 C23_6 1_555 1_555
C22_6 C11_6 1_555 1_555
C23_6 C42_6 1_555 1_555
C41_6 C22_6 1_555 1_555
C42_6 C41_6 1_555 1_555
C43_6 C23_6 1_555 1_555
C44_6 C22_6 1_555 1_555
O37_4 C11_6 1_555 1_555
C43_6 C44_6 1_555 1_555
C41_6 H4_6 1_555 1_555
C42_6 H5_6 1_555 1_555
C43_6 H6_6 1_555 1_555
C44_6 H7_6 1_555 1_555
Zr14 O12_2 1_555 1_555
Zr14_2 O13_2 1_555 1_555
Zr8 O12_3 1_555 1_555
Zr8_2 O13_3 1_555 1_555
Zr17_3 O10_4 1_555 1_555
Zr8 O10_4 1_555 1_555
O12_4 Zr17_3 1_555 1_555
O46_4 Zr17_3 1_555 1_555
O11_4 Zr17_4 1_555 1_555
O13_4 Zr17_4 1_555 1_555
O45_4 Zr17_4 1_555 1_555
Zr8_2 O11_4 1_555 1_555
Zr12 O10_5 1_555 1_555
Zr8_3 O10_5 1_555 1_555
O12_5 Zr12 1_555 1_555
O46_5 Zr12 1_555 1_555
O11_5 Zr12_2 1_555 1_555
O13_5 Zr12_2 1_555 1_555
O45_5 Zr12_2 1_555 1_555
Zr8_4 O11_5 1_555 1_555
Zr17 O10_6 1_555 1_555
Zr14 O10_6 1_555 1_555
O12_6 Zr17 1_555 1_555
O46_6 Zr17 1_555 1_555
O11_6 Zr17_2 1_555 1_555
O13_6 Zr17_2 1_555 1_555
O45_6 Zr17_2 1_555 1_555
Zr14_2 O11_6 1_555 1_555
Zr8_3 O12 1_555 1_555
Zr8_4 O13 1_555 1_555
Zr10 O12_4 1_555 1_555
O46_7 Zr10 1_555 1_555
O13_4 Zr10_2 1_555 1_555
O45_7 Zr10_2 1_555 1_555
Zr7 O12_5 1_555 1_555
O46_8 Zr7 1_555 1_555
O13_5 Zr7_2 1_555 1_555
O45_8 Zr7_2 1_555 1_555
Zr16 O12_6 1_555 1_555
O46_9 Zr16 1_555 1_555
O13_6 Zr16_2 1_555 1_555
O45_9 Zr16_2 1_555 1_555
O45_10 Zr8 1_555 1_555
O46_10 Zr8_2 1_555 1_555
O45_11 Zr8_3 1_555 1_555
O46_11 Zr8_4 1_555 1_555
O45_12 Zr14 1_555 1_555
O46_12 Zr14_2 1_555 1_555
O10_4 Zr4_5 1_555 1_555
C1_5 O46_4 1_555 1_555
C2_5 C1_5 1_555 1_555
C3_5 C2_5 1_555 1_555
Zr4_5 O12_4 1_555 1_555
Zr7_3 O13_6 1_555 1_555
Zr17_5 O36_5 1_555 1_555
O12_3 Zr4_5 1_555 1_555
O14_3 C1_5 1_555 1_555
O16_5 Zr7_3 1_555 1_555
O34_3 Zr4_5 1_555 1_555
O46 C14_5 1_555 1_555
O36_5 C14_5 1_555 1_555
O40_3 Zr4_5 1_555 1_555
O41_3 Zr4_5 1_555 1_555
C4_5 O45_9 1_555 1_555
C13_5 O46_7 1_555 1_555
C14_5 C25_5 1_555 1_555
C15_5 C4_5 1_555 1_555
C24_5 C13_5 1_555 1_555
C25_5 C46_5 1_555 1_555
C26_5 C3_5 1_555 1_555
C27_5 C15_5 1_555 1_555
C28_5 C2_5 1_555 1_555
C45_5 C24_5 1_555 1_555
C46_5 C45_5 1_555 1_555
C47_5 C25_5 1_555 1_555
C48_5 C24_5 1_555 1_555
Zr4_5 O10_3 1_555 1_555
Zr4_5 O14_3 1_555 1_555
Zr7_3 O11_2 1_555 1_555
O16_5 C4_5 1_555 1_555
O34_3 C13_5 1_555 1_555
C15_5 C26_5 1_555 1_555
C27_5 C28_5 1_555 1_555
C47_5 C48_5 1_555 1_555
C45_5 H8_5 1_555 1_555
C27_5 H9_5 1_555 1_555
C46_5 H15_5 1_555 1_555
C47_5 H18_5 1_555 1_555
C26_5 H19_5 1_555 1_555
C28_5 H21_5 1_555 1_555
C48_5 H23_5 1_555 1_555
C3_5 H24_5 1_555 1_555
Zr3_5 O11_4 1_555 1_555
Zr7_3 O28_3 1_555 1_555
Zr17_5 O32_7 1_555 1_555
O13_3 Zr3_5 1_555 1_555
O26_3 Zr3_5 1_555 1_555
O46_12 C10_3 1_555 1_555
O28_3 C10_3 1_555 1_555
O30_3 Zr3_5 1_555 1_555
O46_5 C12_7 1_555 1_555
O32_7 C12_7 1_555 1_555
O38_3 Zr3_5 1_555 1_555
O39_3 Zr3_5 1_555 1_555
C9_3 O45_4 1_555 1_555
C10_3 C21_3 1_555 1_555
C11_7 O45_7 1_555 1_555
C12_7 C23_7 1_555 1_555
C20_3 C9_3 1_555 1_555
C21_3 C38_3 1_555 1_555
C22_7 C11_7 1_555 1_555
C23_7 C42_7 1_555 1_555
C37_3 C20_3 1_555 1_555
C38_3 C37_3 1_555 1_555
C39_3 C21_3 1_555 1_555
C40_3 C20_3 1_555 1_555
C41_7 C22_7 1_555 1_555
C42_7 C41_7 1_555 1_555
C43_7 C23_7 1_555 1_555
C44_7 C22_7 1_555 1_555
Zr3_5 O13_4 1_555 1_555
Zr3_5 O11_3 1_555 1_555
O26_3 C9_3 1_555 1_555
O30_3 C11_7 1_555 1_555
C39_3 C40_3 1_555 1_555
C43_7 C44_7 1_555 1_555
C38_3 H3_3 1_555 1_555
C41_7 H4_7 1_555 1_555
C42_7 H5_7 1_555 1_555
C43_7 H6_7 1_555 1_555
C44_7 H7_7 1_555 1_555
C37_3 H12_3 1_555 1_555
C40_3 H14_3 1_555 1_555
C39_3 H17_3 1_555 1_555
C1_6 O40_3 1_555 1_555
C2_6 C1_6 1_555 1_555
C3_6 C2_6 1_555 1_555
Zr6_5 O13 1_555 1_555
Zr8_5 O19_7 1_555 1_555
O11 Zr6_5 1_555 1_555
O11_5 Zr6_5 1_555 1_555
O13_5 Zr6_5 1_555 1_555
O45_10 C1_6 1_555 1_555
O15_5 Zr6_5 1_555 1_555
O19_7 C6_7 1_555 1_555
O46_9 C6_7 1_555 1_555
O45_13 Zr6_5 1_555 1_555
O46_13 Zr6_5 1_555 1_555
O47_5 Zr6_5 1_555 1_555
C4_6 O15_5 1_555 1_555
C5_7 O41_3 1_555 1_555
C6_7 C17_7 1_555 1_555
C15_6 C4_6 1_555 1_555
C16_7 C5_7 1_555 1_555
C17_7 C30_7 1_555 1_555
C26_6 C3_6 1_555 1_555
C27_6 C15_6 1_555 1_555
C28_6 C2_6 1_555 1_555
C29_7 C16_7 1_555 1_555
C30_7 C29_7 1_555 1_555
C31_7 C17_7 1_555 1_555
C32_7 C16_7 1_555 1_555
O45 C4_6 1_555 1_555
O46_3 C5_7 1_555 1_555
C15_6 C26_6 1_555 1_555
C27_6 C28_6 1_555 1_555
C31_7 C32_7 1_555 1_555
C32_7 H1_7 1_555 1_555
C29_7 H2_7 1_555 1_555
C27_6 H9_6 1_555 1_555
C30_7 H10_7 1_555 1_555
C31_7 H16_7 1_555 1_555
C26_6 H19_6 1_555 1_555
C28_6 H21_6 1_555 1_555
C3_6 H24_6 1_555 1_555
Zr8_5 O31_7 1_555 1_555
O45_5 C6_8 1_555 1_555
O47_5 C6_8 1_555 1_555
O31_7 C12_8 1_555 1_555
O45_12 C12_8 1_555 1_555
C5_8 O46_10 1_555 1_555
C6_8 C17_8 1_555 1_555
C11_8 O39_3 1_555 1_555
C12_8 C23_8 1_555 1_555
C16_8 C5_8 1_555 1_555
C17_8 C30_8 1_555 1_555
C22_8 C11_8 1_555 1_555
C23_8 C42_8 1_555 1_555
C29_8 C16_8 1_555 1_555
C30_8 C29_8 1_555 1_555
C31_8 C17_8 1_555 1_555
C32_8 C16_8 1_555 1_555
C41_8 C22_8 1_555 1_555
C42_8 C41_8 1_555 1_555
C43_8 C23_8 1_555 1_555
C44_8 C22_8 1_555 1_555
O38_3 C5_8 1_555 1_555
O45_3 C11_8 1_555 1_555
C31_8 C32_8 1_555 1_555
C43_8 C44_8 1_555 1_555
C32_8 H1_8 1_555 1_555
C29_8 H2_8 1_555 1_555
C41_8 H4_8 1_555 1_555
C42_8 H5_8 1_555 1_555
C43_8 H6_8 1_555 1_555
C44_8 H7_8 1_555 1_555
C30_8 H10_8 1_555 1_555
C31_8 H16_8 1_555 1_555
Zr8_5 O10_6 1_555 1_555
Zr8_5 O12_2 1_555 1_555
Zr17_5 O10_5 1_555 1_555
O12_5 Zr17_5 1_555 1_555
O12 Zr17_5 1_555 1_555
O10 Zr17_5 1_555 1_555
O45_14 Zr17_5 1_555 1_555
O46_14 Zr17_5 1_555 1_555
Zr8_5 O10_2 1_555 1_555
Zr8_5 O12_6 1_555 1_555
Zr7_3 O11_6 1_555 1_555
O13_2 Zr7_3 1_555 1_555
O45_15 Zr7_3 1_555 1_555
O46_15 Zr7_3 1_555 1_555
O45_16 Zr8_5 1_555 1_555
O46_16 Zr8_5 1_555 1_555
O45_2 C8_3 1_555 1_555
O45_15 C8_3 1_555 1_555
C7_3 O45_11 1_555 1_555
C8_3 C19_3 1_555 1_555
C18_3 C7_3 1_555 1_555
C19_3 C34_3 1_555 1_555
C33_3 C18_3 1_555 1_555
C34_3 C33_3 1_555 1_555
C35_3 C19_3 1_555 1_555
C36_3 C18_3 1_555 1_555
O46_14 C7_3 1_555 1_555
C35_3 C36_3 1_555 1_555
C35_3 H11_3 1_555 1_555
C36_3 H13_3 1_555 1_555
C33_3 H20_3 1_555 1_555
C34_3 H22_3 1_555 1_555
O45_6 C6_9 1_555 1_555
O46_15 C6_9 1_555 1_555
C5_9 O46_11 1_555 1_555
C6_9 C17_9 1_555 1_555
C16_9 C5_9 1_555 1_555
C17_9 C30_9 1_555 1_555
C29_9 C16_9 1_555 1_555
C30_9 C29_9 1_555 1_555
C31_9 C17_9 1_555 1_555
C32_9 C16_9 1_555 1_555
O46_13 C5_9 1_555 1_555
C31_9 C32_9 1_555 1_555
C32_9 H1_9 1_555 1_555
C29_9 H2_9 1_555 1_555
C30_9 H10_9 1_555 1_555
C31_9 H16_9 1_555 1_555
O46_2 C14_6 1_555 1_555
O46_16 C14_6 1_555 1_555
C13_6 O46_8 1_555 1_555
C14_6 C25_6 1_555 1_555
C24_6 C13_6 1_555 1_555
C25_6 C46_6 1_555 1_555
C45_6 C24_6 1_555 1_555
C46_6 C45_6 1_555 1_555
C47_6 C25_6 1_555 1_555
C48_6 C24_6 1_555 1_555
O45_14 C13_6 1_555 1_555
C47_6 C48_6 1_555 1_555
C45_6 H8_6 1_555 1_555
C46_6 H15_6 1_555 1_555
C47_6 H18_6 1_555 1_555
C48_6 H23_6 1_555 1_555
O46_6 C12_9 1_555 1_555
O45_16 C12_9 1_555 1_555
C11_9 O45_8 1_555 1_555
C12_9 C23_9 1_555 1_555
C22_9 C11_9 1_555 1_555
C23_9 C42_9 1_555 1_555
C41_9 C22_9 1_555 1_555
C42_9 C41_9 1_555 1_555
C43_9 C23_9 1_555 1_555
C44_9 C22_9 1_555 1_555
O45_13 C11_9 1_555 1_555
C43_9 C44_9 1_555 1_555
C41_9 H4_9 1_555 1_555
C42_9 H5_9 1_555 1_555
C43_9 H6_9 1_555 1_555
C44_9 H7_9 1_555 1_555

#END
