
###############################################################################
#
# This file contains modified crystal structure data generated from the
# MOF subset of the Cambridge Structural Database (CSD) v543 
# hosted by the Cambridge Crystallographic Data Centre (CCDC).
#
# This work is licensed under the Creative Commons
# Attribution-NonCommercial-ShareAlike 4.0 International License.
# To view a copy of this license, visit
# http://creativecommons.org/licenses/by-nc-sa/4.0/
# or send a letter to
# Creative Commons, PO Box 1866, Mountain View, CA 94042, USA.
#
# CIF created using the CSD Python API on 29 September 2022
# The structure has been converted into the P1 space group
# The structure has a 3D framework
# The original CSD entry RUBTAK02 is in the cubic crystal system
# The framework has been calculated to contain at least 10.0% void space
# The void calculation uses a probe of radius 1.32A, grid spacing 0.4
# H atom positions have been added when not included in the experimental data
#
###############################################################################

data_RUBTAK02
_chemical_formula_moiety         '(C288 H144 O159 Zr34)n'
_symmetry_cell_setting           triclinic
_symmetry_space_group_name_H-M   'P 1'
_symmetry_Int_Tables_number      1
_space_group_name_Hall           'P 1'
loop_
_symmetry_equiv_pos_site_id
_symmetry_equiv_pos_as_xyz
1 x,y,z
_cell_length_a                   20.7430
_cell_length_b                   20.7430
_cell_length_c                   20.7430
_cell_angle_alpha                90
_cell_angle_beta                 90
_cell_angle_gamma                90
_cell_volume                     8925.13
loop_
_atom_site_label
_atom_site_type_symbol
_atom_site_fract_x
_atom_site_fract_y
_atom_site_fract_z
Zr1 Zr 0.1204 0.0000 0.0000
O1 O 0.1726 0.0000 0.0960
C1 C 0.1473 0.0000 0.1473
C2 C 0.2019 -0.0000 0.2019
C3 C 0.2643 0.0000 0.1841
Zr2 Zr 0.0000 0.0000 0.1204
Zr3 Zr 0.5000 -0.0000 0.3796
Zr4 Zr 0.3796 0.0000 0.5000
Zr9 Zr 0.0000 0.1204 0.0000
Zr10 Zr 0.5000 0.3796 0.0000
Zr11 Zr 0.3796 0.5000 0.0000
Zr16 Zr 0.0000 0.3796 0.5000
Zr17 Zr 0.0000 0.5000 0.3796
Zr20 Zr 0.6204 0.0000 0.5000
Zr21 Zr 0.5000 0.1204 0.5000
O3 O 0.0960 0.0000 0.1726
O4 O 0.4040 -0.0000 0.3274
O5 O 0.3274 0.0000 0.4040
O10 O 0.1726 0.0960 0.0000
O11 O 0.0960 0.1726 0.0000
O12 O 0.4040 0.3274 0.0000
O13 O 0.3274 0.4040 0.0000
O22 O -0.0000 0.0960 0.1726
O23 O -0.0000 0.1726 0.0960
O24 O -0.0000 0.3274 0.4040
O25 O 0.0000 0.4040 0.3274
O28 O 0.5000 0.0960 0.3274
O29 O 0.5960 -0.0000 0.3274
O31 O 0.3274 0.0960 0.5000
O32 O 0.3274 0.0000 0.5960
O40 O 0.0561 0.0561 0.0561
O44 O 0.5561 0.0561 0.4439
O46 O 0.4439 0.0561 0.4439
O48 O 0.4439 0.0561 0.5561
C4 C 0.3527 -0.0000 0.3527
C7 C 0.1473 0.1473 0.0000
C8 C 0.3527 0.3527 0.0000
C13 C 0.0000 0.1473 0.1473
C14 C -0.0000 0.3527 0.3527
C15 C 0.2981 0.0000 0.2981
C18 C 0.2019 0.2019 0.0000
C19 C 0.2981 0.2981 0.0000
C24 C -0.0000 0.2019 0.2019
C25 C 0.0000 0.2981 0.2981
C26 C 0.3159 0.0000 0.2357
C27 C 0.2357 -0.0000 0.3159
C28 C 0.1841 0.0000 0.2643
C33 C 0.2643 0.1841 0.0000
C34 C 0.3159 0.2357 0.0000
C35 C 0.2357 0.3159 0.0000
C36 C 0.1841 0.2643 0.0000
C45 C -0.0000 0.1841 0.2643
C46 C 0.0000 0.2357 0.3159
C47 C 0.0000 0.3159 0.2357
C48 C -0.0000 0.2643 0.1841
H1 H 0.27748 -3.08149e-33 0.133282
H4 H -6.16298e-33 0.133282 0.27748
H8 H 6.16298e-33 0.22252 0.366718
H11 H 0.366718 0.22252 0
H13 H 0.366718 4.62223e-33 0.22252
H14 H 0.133282 0 0.27748
H15 H 0.22252 0.366718 0
H17 H 0.27748 0.133282 0
H19 H 7.70372e-33 0.366718 0.22252
H20 H -9.24446e-33 0.27748 0.133282
H21 H 0.133282 0.27748 0
H22 H 0.22252 0 0.366718
Zr1_2 Zr 0.1204 0.0000 1.0000
Zr7 Zr 0.0000 0.0000 0.8796
Zr9_2 Zr 0.0000 0.1204 1.0000
Zr10_2 Zr 0.5000 0.3796 1.0000
Zr11_2 Zr 0.3796 0.5000 1.0000
Zr12 Zr 0.5000 0.0000 0.6204
O10_2 O 0.1726 0.0960 1.0000
O11_2 O 0.0960 0.1726 1.0000
O12_2 O 0.4040 0.3274 1.0000
O13_2 O 0.3274 0.4040 1.0000
O14 O 0.1726 0.0000 0.9040
O15 O 0.0960 0.0000 0.8274
O16 O 0.4040 0.0000 0.6726
O38 O 0.0561 0.0561 0.9439
C7_2 C 0.1473 0.1473 1.0000
C8_2 C 0.3527 0.3527 1.0000
C9 C 0.1473 0.0000 0.8527
C10 C 0.3527 0.0000 0.6473
C18_2 C 0.2019 0.2019 1.0000
C19_2 C 0.2981 0.2981 1.0000
C20 C 0.2019 0.0000 0.7981
C21 C 0.2981 -0.0000 0.7019
C33_2 C 0.2643 0.1841 1.0000
C34_2 C 0.3159 0.2357 1.0000
C35_2 C 0.2357 0.3159 1.0000
C36_2 C 0.1841 0.2643 1.0000
C37 C 0.2643 0.0000 0.8159
C38 C 0.3159 0.0000 0.7643
C39 C 0.2357 0.0000 0.6841
C40 C 0.1841 0.0000 0.7357
H5 H 0.22252 0 0.633282
H11_2 H 0.366718 0.22252 1
H15_2 H 0.22252 0.366718 1
H17_2 H 0.27748 0.133282 1
H18 H 0.366718 0 0.77748
H21_2 H 0.133282 0.27748 1
H23 H 0.27748 6.16298e-33 0.866718
H24 H 0.133282 -6.16298e-33 0.72252
Zr1_3 Zr 0.1204 1.0000 0.0000
O1_2 O 0.1726 1.0000 0.0960
C1_2 C 0.1473 1.0000 0.1473
C2_2 C 0.2019 1.0000 0.2019
C3_2 C 0.2643 1.0000 0.1841
Zr2_2 Zr 0.0000 1.0000 0.1204
Zr3_2 Zr 0.5000 1.0000 0.3796
Zr4_2 Zr 0.3796 1.0000 0.5000
Zr5 Zr 0.0000 0.8796 0.0000
Zr6 Zr 0.5000 0.6204 0.0000
Zr14 Zr 0.0000 0.6204 0.5000
Zr19 Zr 0.5000 0.8796 0.5000
Zr20_2 Zr 0.6204 1.0000 0.5000
O3_2 O 0.0960 1.0000 0.1726
O4_2 O 0.4040 1.0000 0.3274
O5_2 O 0.3274 1.0000 0.4040
O6 O 0.1726 0.9040 0.0000
O7 O 0.0960 0.8274 0.0000
O8 O 0.4040 0.6726 0.0000
O9 O 0.3274 0.5960 0.0000
O18 O 0.0000 0.9040 0.1726
O19 O -0.0000 0.8274 0.0960
O20 O 0.0000 0.6726 0.4040
O21 O 0.0000 0.5960 0.3274
O27 O 0.5000 0.9040 0.3274
O29_2 O 0.5960 1.0000 0.3274
O30 O 0.3274 0.9040 0.5000
O32_2 O 0.3274 1.0000 0.5960
O36 O 0.5000 0.6726 0.0960
O37 O 0.5960 0.6726 0.0000
O39 O 0.0561 0.9439 0.0561
O43 O 0.5561 0.9439 0.4439
O45 O 0.4439 0.9439 0.4439
O47 O 0.4439 0.9439 0.5561
O51 O 0.5561 0.5561 0.0561
O53 O 0.4439 0.5561 0.0561
C4_2 C 0.3527 1.0000 0.3527
C5 C 0.1473 0.8527 0.0000
C6 C 0.3527 0.6473 0.0000
C11 C 0.0000 0.8527 0.1473
C12 C 0.0000 0.6473 0.3527
C15_2 C 0.2981 1.0000 0.2981
C16 C 0.2019 0.7981 0.0000
C17 C 0.2981 0.7019 0.0000
C22 C 0.0000 0.7981 0.2019
C23 C 0.0000 0.7019 0.2981
C26_2 C 0.3159 1.0000 0.2357
C27_2 C 0.2357 1.0000 0.3159
C28_2 C 0.1841 1.0000 0.2643
C29 C 0.2643 0.8159 0.0000
C30 C 0.3159 0.7643 0.0000
C31 C 0.2357 0.6841 0.0000
C32 C 0.1841 0.7357 0.0000
C41 C 0.0000 0.8159 0.2643
C42 C 0.0000 0.7643 0.3159
C43 C 0.0000 0.6841 0.2357
C44 C -0.0000 0.7357 0.1841
H1_2 H 0.27748 1 0.133282
H2 H 0.27748 0.866718 0
H3 H 1.54074e-32 0.866718 0.27748
H6 H 9.24446e-33 0.77748 0.366718
H7 H -6.16298e-33 0.72252 0.133282
H9 H 0.133282 0.72252 0
H10 H 7.70372e-33 0.633282 0.22252
H12 H 0.22252 0.633282 0
H13_2 H 0.366718 1 0.22252
H14_2 H 0.133282 1 0.27748
H16 H 0.366718 0.77748 0
H22_2 H 0.22252 1 0.366718
Zr1_4 Zr 0.1204 1.0000 1.0000
O2 O 0.0561 0.9439 0.9439
Zr5_2 Zr 0.0000 0.8796 1.0000
Zr6_2 Zr 0.5000 0.6204 1.0000
Zr7_2 Zr 0.0000 1.0000 0.8796
Zr12_2 Zr 0.5000 1.0000 0.6204
O6_2 O 0.1726 0.9040 1.0000
O7_2 O 0.0960 0.8274 1.0000
O8_2 O 0.4040 0.6726 1.0000
O9_2 O 0.3274 0.5960 1.0000
O14_2 O 0.1726 1.0000 0.9040
O15_2 O 0.0960 1.0000 0.8274
O16_2 O 0.4040 1.0000 0.6726
O33 O 0.0000 0.8274 0.9040
O35 O 0.5000 0.6726 0.9040
O37_2 O 0.5960 0.6726 1.0000
O50 O 0.5561 0.5561 0.9439
O52 O 0.4439 0.5561 0.9439
C5_2 C 0.1473 0.8527 1.0000
C6_2 C 0.3527 0.6473 1.0000
C9_2 C 0.1473 1.0000 0.8527
C10_2 C 0.3527 1.0000 0.6473
C16_2 C 0.2019 0.7981 1.0000
C17_2 C 0.2981 0.7019 1.0000
C20_2 C 0.2019 1.0000 0.7981
C21_2 C 0.2981 1.0000 0.7019
C29_2 C 0.2643 0.8159 1.0000
C30_2 C 0.3159 0.7643 1.0000
C31_2 C 0.2357 0.6841 1.0000
C32_2 C 0.1841 0.7357 1.0000
C37_2 C 0.2643 1.0000 0.8159
C38_2 C 0.3159 1.0000 0.7643
C39_2 C 0.2357 1.0000 0.6841
C40_2 C 0.1841 1.0000 0.7357
H2_2 H 0.27748 0.866718 1
H5_2 H 0.22252 1 0.633282
H9_2 H 0.133282 0.72252 1
H12_2 H 0.22252 0.633282 1
H16_2 H 0.366718 0.77748 1
H18_2 H 0.366718 1 0.77748
H23_2 H 0.27748 1 0.866718
H24_2 H 0.133282 1 0.72252
Zr2_3 Zr 1.0000 0.0000 0.1204
Zr9_3 Zr 1.0000 0.1204 0.0000
Zr16_2 Zr 1.0000 0.3796 0.5000
Zr17_2 Zr 1.0000 0.5000 0.3796
Zr18 Zr 0.8796 0.0000 0.0000
O22_2 O 1.0000 0.0960 0.1726
O23_2 O 1.0000 0.1726 0.0960
O24_2 O 1.0000 0.3274 0.4040
O25_2 O 1.0000 0.4040 0.3274
O26 O 0.9040 0.0000 0.1726
O42 O 0.9439 0.0561 0.0561
C13_2 C 1.0000 0.1473 0.1473
C14_2 C 1.0000 0.3527 0.3527
C24_2 C 1.0000 0.2019 0.2019
C25_2 C 1.0000 0.2981 0.2981
C45_2 C 1.0000 0.1841 0.2643
C46_2 C 1.0000 0.2357 0.3159
C47_2 C 1.0000 0.3159 0.2357
C48_2 C 1.0000 0.2643 0.1841
H4_2 H 1 0.133282 0.27748
H8_2 H 1 0.22252 0.366718
H19_2 H 1 0.366718 0.22252
H20_2 H 1 0.27748 0.133282
Zr7_3 Zr 1.0000 0.0000 0.8796
Zr9_4 Zr 1.0000 0.1204 1.0000
Zr18_2 Zr 0.8796 0.0000 1.0000
Zr2_4 Zr 1.0000 1.0000 0.1204
Zr5_3 Zr 1.0000 0.8796 0.0000
Zr14_2 Zr 1.0000 0.6204 0.5000
Zr18_3 Zr 0.8796 1.0000 0.0000
O18_2 O 1.0000 0.9040 0.1726
O19_2 O 1.0000 0.8274 0.0960
O20_2 O 1.0000 0.6726 0.4040
O21_2 O 1.0000 0.5960 0.3274
O26_2 O 0.9040 1.0000 0.1726
O34 O 0.9040 0.8274 0.0000
O41 O 0.9439 0.9439 0.0561
C11_2 C 1.0000 0.8527 0.1473
C12_2 C 1.0000 0.6473 0.3527
C22_2 C 1.0000 0.7981 0.2019
C23_2 C 1.0000 0.7019 0.2981
C41_2 C 1.0000 0.8159 0.2643
C42_2 C 1.0000 0.7643 0.3159
C43_2 C 1.0000 0.6841 0.2357
C44_2 C 1.0000 0.7357 0.1841
H3_2 H 1 0.866718 0.27748
H6_2 H 1 0.77748 0.366718
H7_2 H 1 0.72252 0.133282
H10_2 H 1 0.633282 0.22252
Zr5_4 Zr 1.0000 0.8796 1.0000
Zr7_4 Zr 1.0000 1.0000 0.8796
Zr18_4 Zr 0.8796 1.0000 1.0000
O33_2 O 1.0000 0.8274 0.9040
O34_2 O 0.9040 0.8274 1.0000
O49 O 0.9439 0.9439 0.9439
Zr19_2 Zr 0.1204 0.5000 0.5000
O27_2 O 0.0960 0.5000 0.3274
O30_2 O 0.0960 0.3274 0.5000
O32_3 O 0.0000 0.3274 0.5960
O36_2 O 0.3274 0.5000 0.0960
O43_2 O 0.0561 0.5561 0.4439
O45_2 O 0.0561 0.4439 0.4439
O47_2 O 0.0561 0.4439 0.5561
O53_2 O 0.4439 0.4439 0.0561
Zr12_3 Zr 0.0000 0.5000 0.6204
O14_3 O 0.0000 0.1726 0.9040
O15_3 O -0.0000 0.0960 0.8274
O16_3 O 0.0000 0.4040 0.6726
O35_2 O 0.3274 0.5000 0.9040
O52_2 O 0.4439 0.4439 0.9439
C9_3 C 0.0000 0.1473 0.8527
C10_3 C 0.0000 0.3527 0.6473
C20_3 C 0.0000 0.2019 0.7981
C21_3 C 0.0000 0.2981 0.7019
C37_3 C 0.0000 0.2643 0.8159
C38_3 C 0.0000 0.3159 0.7643
C39_3 C 0.0000 0.2357 0.6841
C40_3 C -0.0000 0.1841 0.7357
H5_3 H 0 0.22252 0.633282
H18_3 H 6.16298e-33 0.366718 0.77748
H23_3 H 1.2326e-32 0.27748 0.866718
H24_3 H 0 0.133282 0.72252
Zr10_3 Zr 0.6204 0.5000 0.0000
Zr21_2 Zr 0.8796 0.5000 0.5000
O10_3 O 0.9040 0.1726 0.0000
O11_3 O 0.8274 0.0960 0.0000
O12_3 O 0.6726 0.4040 0.0000
O13_3 O 0.5960 0.3274 0.0000
O23_3 O 0.8274 -0.0000 0.0960
O24_3 O 0.6726 0.0000 0.4040
O28_2 O 0.9040 0.5000 0.3274
O31_2 O 0.9040 0.3274 0.5000
O32_4 O 1.0000 0.3274 0.5960
O44_2 O 0.9439 0.5561 0.4439
O46_2 O 0.9439 0.4439 0.4439
O48_2 O 0.9439 0.4439 0.5561
C7_3 C 0.8527 0.1473 0.0000
C8_3 C 0.6473 0.3527 0.0000
C13_3 C 0.8527 0.0000 0.1473
C14_3 C 0.6473 -0.0000 0.3527
C18_3 C 0.7981 0.2019 0.0000
C19_3 C 0.7019 0.2981 0.0000
C24_3 C 0.7981 -0.0000 0.2019
C25_3 C 0.7019 0.0000 0.2981
C33_3 C 0.8159 0.2643 0.0000
C34_3 C 0.7643 0.3159 0.0000
C35_3 C 0.6841 0.2357 0.0000
C36_3 C 0.7357 0.1841 0.0000
C45_3 C 0.8159 -0.0000 0.2643
C46_3 C 0.7643 0.0000 0.3159
C47_3 C 0.6841 0.0000 0.2357
C48_3 C 0.7357 -0.0000 0.1841
H4_3 H 0.866718 -9.24446e-33 0.27748
H8_3 H 0.77748 9.24446e-33 0.366718
H11_3 H 0.77748 0.366718 0
H15_3 H 0.633282 0.22252 0
H17_3 H 0.866718 0.27748 0
H19_3 H 0.633282 6.16298e-33 0.22252
H20_3 H 0.72252 -9.24446e-33 0.133282
H21_3 H 0.72252 0.133282 0
Zr10_4 Zr 0.6204 0.5000 1.0000
Zr12_4 Zr 1.0000 0.5000 0.6204
O10_4 O 0.9040 0.1726 1.0000
O11_4 O 0.8274 0.0960 1.0000
O12_4 O 0.6726 0.4040 1.0000
O13_4 O 0.5960 0.3274 1.0000
O14_4 O 1.0000 0.1726 0.9040
O15_4 O 1.0000 0.0960 0.8274
O16_4 O 1.0000 0.4040 0.6726
O38_2 O 0.9439 0.0561 0.9439
C7_4 C 0.8527 0.1473 1.0000
C8_4 C 0.6473 0.3527 1.0000
C9_4 C 1.0000 0.1473 0.8527
C10_4 C 1.0000 0.3527 0.6473
C18_4 C 0.7981 0.2019 1.0000
C19_4 C 0.7019 0.2981 1.0000
C20_4 C 1.0000 0.2019 0.7981
C21_4 C 1.0000 0.2981 0.7019
C33_4 C 0.8159 0.2643 1.0000
C34_4 C 0.7643 0.3159 1.0000
C35_4 C 0.6841 0.2357 1.0000
C36_4 C 0.7357 0.1841 1.0000
C37_4 C 1.0000 0.2643 0.8159
C38_4 C 1.0000 0.3159 0.7643
C39_4 C 1.0000 0.2357 0.6841
C40_4 C 1.0000 0.1841 0.7357
H5_4 H 1 0.22252 0.633282
H11_4 H 0.77748 0.366718 1
H15_4 H 0.633282 0.22252 1
H17_4 H 0.866718 0.27748 1
H18_4 H 1 0.366718 0.77748
H21_4 H 0.72252 0.133282 1
H23_4 H 1 0.27748 0.866718
H24_4 H 1 0.133282 0.72252
O23_4 O 0.8274 1.0000 0.0960
O24_4 O 0.6726 1.0000 0.4040
C13_4 C 0.8527 1.0000 0.1473
C14_4 C 0.6473 1.0000 0.3527
C24_4 C 0.7981 1.0000 0.2019
C25_4 C 0.7019 1.0000 0.2981
C45_4 C 0.8159 1.0000 0.2643
C46_4 C 0.7643 1.0000 0.3159
C47_4 C 0.6841 1.0000 0.2357
C48_4 C 0.7357 1.0000 0.1841
H4_4 H 0.866718 1 0.27748
H8_4 H 0.77748 1 0.366718
H19_4 H 0.633282 1 0.22252
H20_4 H 0.72252 1 0.133282
O31_3 O 0.0960 0.6726 0.5000
O32_5 O 0.0000 0.6726 0.5960
O48_3 O 0.0561 0.5561 0.5561
O15_5 O 0.0000 0.9040 0.8274
O16_5 O 0.0000 0.5960 0.6726
C9_5 C 0.0000 0.8527 0.8527
C10_5 C 0.0000 0.6473 0.6473
C20_5 C 0.0000 0.7981 0.7981
C21_5 C -0.0000 0.7019 0.7019
C37_5 C 0.0000 0.7357 0.8159
C38_5 C -0.0000 0.6841 0.7643
C39_5 C 0.0000 0.7643 0.6841
C40_5 C 0.0000 0.8159 0.7357
H5_5 H 1.2326e-32 0.77748 0.633282
H18_5 H 6.16298e-33 0.633282 0.77748
H23_5 H 0 0.72252 0.866718
H24_5 H 0 0.866718 0.72252
O33_3 O 0.8274 0.0000 0.9040
O7_3 O 0.8274 0.9040 0.0000
O8_3 O 0.6726 0.5960 0.0000
O30_3 O 0.9040 0.6726 0.5000
O32_6 O 1.0000 0.6726 0.5960
O36_3 O 0.6726 0.5000 0.0960
O47_3 O 0.9439 0.5561 0.5561
O51_2 O 0.5561 0.4439 0.0561
C5_3 C 0.8527 0.8527 0.0000
C6_3 C 0.6473 0.6473 0.0000
C16_3 C 0.7981 0.7981 0.0000
C17_3 C 0.7019 0.7019 0.0000
C29_3 C 0.8159 0.7357 0.0000
C30_3 C 0.7643 0.6841 0.0000
C31_3 C 0.6841 0.7643 0.0000
C32_3 C 0.7357 0.8159 0.0000
H2_3 H 0.866718 0.72252 0
H9_3 H 0.72252 0.866718 0
H12_3 H 0.633282 0.77748 0
H16_3 H 0.77748 0.633282 0
O7_4 O 0.8274 0.9040 1.0000
O8_4 O 0.6726 0.5960 1.0000
O15_6 O 1.0000 0.9040 0.8274
O16_6 O 1.0000 0.5960 0.6726
O33_4 O 0.8274 1.0000 0.9040
O35_3 O 0.6726 0.5000 0.9040
O50_2 O 0.5561 0.4439 0.9439
C5_4 C 0.8527 0.8527 1.0000
C6_4 C 0.6473 0.6473 1.0000
C9_6 C 1.0000 0.8527 0.8527
C10_6 C 1.0000 0.6473 0.6473
C16_4 C 0.7981 0.7981 1.0000
C17_4 C 0.7019 0.7019 1.0000
C20_6 C 1.0000 0.7981 0.7981
C21_6 C 1.0000 0.7019 0.7019
C29_4 C 0.8159 0.7357 1.0000
C30_4 C 0.7643 0.6841 1.0000
C31_4 C 0.6841 0.7643 1.0000
C32_4 C 0.7357 0.8159 1.0000
C37_6 C 1.0000 0.7357 0.8159
C38_6 C 1.0000 0.6841 0.7643
C39_6 C 1.0000 0.7643 0.6841
C40_6 C 1.0000 0.8159 0.7357
H2_4 H 0.866718 0.72252 1
H5_6 H 1 0.77748 0.633282
H9_4 H 0.72252 0.866718 1
H12_4 H 0.633282 0.77748 1
H16_4 H 0.77748 0.633282 1
H18_6 H 1 0.633282 0.77748
H23_6 H 1 0.72252 0.866718
H24_6 H 1 0.866718 0.72252
O35_4 O 0.5000 0.0960 0.6726
O37_3 O 0.5960 0.0000 0.6726
O50_3 O 0.5561 0.0561 0.5561
Zr21_3 Zr 0.5000 0.5000 0.1204
Zr19_3 Zr 0.5000 0.5000 0.8796
O36_4 O 0.5000 0.9040 0.6726
O37_4 O 0.5960 1.0000 0.6726
O51_3 O 0.5561 0.9439 0.5561
O34_3 O 0.9040 0.0000 0.8274
O34_4 O 0.9040 1.0000 0.8274
O27_3 O 0.5000 0.3274 0.0960
O28_3 O 0.5000 0.3274 0.9040
O16_7 O 0.6726 0.0000 0.5960
C9_7 C 0.8527 0.0000 0.8527
C10_7 C 0.6473 0.0000 0.6473
C20_7 C 0.7981 0.0000 0.7981
C21_7 C 0.7019 -0.0000 0.7019
C37_7 C 0.8159 0.0000 0.7357
C38_7 C 0.7643 -0.0000 0.6841
C39_7 C 0.6841 0.0000 0.7643
C40_7 C 0.7357 0.0000 0.8159
H5_7 H 0.633282 0 0.77748
H18_7 H 0.77748 -6.16298e-33 0.633282
H23_7 H 0.866718 -6.16298e-33 0.72252
H24_7 H 0.72252 6.16298e-33 0.866718
O16_8 O 0.6726 1.0000 0.5960
C9_8 C 0.8527 1.0000 0.8527
C10_8 C 0.6473 1.0000 0.6473
C20_8 C 0.7981 1.0000 0.7981
C21_8 C 0.7019 1.0000 0.7019
C37_8 C 0.8159 1.0000 0.7357
C38_8 C 0.7643 1.0000 0.6841
C39_8 C 0.6841 1.0000 0.7643
C40_8 C 0.7357 1.0000 0.8159
H5_8 H 0.633282 1 0.77748
H18_8 H 0.77748 1 0.633282
H23_8 H 0.866718 1 0.72252
H24_8 H 0.72252 1 0.866718
O28_4 O 0.6726 0.0960 0.5000
O27_4 O 0.6726 0.9040 0.5000
O36_5 O 0.0960 0.5000 0.6726
O35_5 O 0.9040 0.5000 0.6726
O1_3 O 0.1726 0.5000 0.5960
C1_3 C 0.1473 0.5000 0.6473
C2_3 C 0.2019 0.5000 0.7019
C3_3 C 0.2643 0.5000 0.6841
O4_3 O 0.4040 0.5000 0.8274
O6_3 O 0.1726 0.4040 0.5000
O8_5 O 0.4040 0.1726 0.5000
O10_5 O 0.1726 0.5960 0.5000
O12_5 O 0.4040 0.8274 0.5000
O14_5 O 0.1726 0.5000 0.4040
O16_9 O 0.4040 0.5000 0.1726
O27_5 O 0.5000 0.4040 0.8274
O28_5 O 0.5000 0.5960 0.8274
O29_3 O 0.5960 0.5000 0.8274
O35_6 O 0.5000 0.1726 0.4040
O36_6 O 0.5000 0.1726 0.5960
O37_5 O 0.5960 0.1726 0.5000
C4_3 C 0.3527 0.5000 0.8527
C5_5 C 0.1473 0.3527 0.5000
C6_5 C 0.3527 0.1473 0.5000
C7_5 C 0.1473 0.6473 0.5000
C8_5 C 0.3527 0.8527 0.5000
C9_9 C 0.1473 0.5000 0.3527
C10_9 C 0.3527 0.5000 0.1473
C15_3 C 0.2981 0.5000 0.7981
C16_5 C 0.2019 0.2981 0.5000
C17_5 C 0.2981 0.2019 0.5000
C18_5 C 0.2019 0.7019 0.5000
C19_5 C 0.2981 0.7981 0.5000
C20_9 C 0.2019 0.5000 0.2981
C21_9 C 0.2981 0.5000 0.2019
C26_3 C 0.3159 0.5000 0.7357
C27_3 C 0.2357 0.5000 0.8159
C28_3 C 0.1841 0.5000 0.7643
C29_5 C 0.2643 0.3159 0.5000
C30_5 C 0.3159 0.2643 0.5000
C31_5 C 0.2357 0.1841 0.5000
C32_5 C 0.1841 0.2357 0.5000
C33_5 C 0.2643 0.6841 0.5000
C34_5 C 0.3159 0.7357 0.5000
C35_5 C 0.2357 0.8159 0.5000
C36_5 C 0.1841 0.7643 0.5000
C37_9 C 0.2643 0.5000 0.3159
C38_9 C 0.3159 0.5000 0.2643
C39_9 C 0.2357 0.5000 0.1841
C40_9 C 0.1841 0.5000 0.2357
H1_3 H 0.27748 0.5 0.633282
H2_5 H 0.27748 0.366718 0.5
H5_9 H 0.22252 0.5 0.133282
H9_5 H 0.133282 0.22252 0.5
H11_5 H 0.366718 0.72252 0.5
H12_5 H 0.22252 0.133282 0.5
H13_3 H 0.366718 0.5 0.72252
H14_3 H 0.133282 0.5 0.77748
H15_5 H 0.22252 0.866718 0.5
H16_5 H 0.366718 0.27748 0.5
H17_5 H 0.27748 0.633282 0.5
H18_9 H 0.366718 0.5 0.27748
H21_5 H 0.133282 0.77748 0.5
H22_3 H 0.22252 0.5 0.866718
H23_9 H 0.27748 0.5 0.366718
H24_9 H 0.133282 0.5 0.22252
O11_5 O 0.8274 0.5960 0.5000
O13_5 O 0.5960 0.8274 0.5000
O23_5 O 0.8274 0.5000 0.5960
C7_6 C 0.8527 0.6473 0.5000
C8_6 C 0.6473 0.8527 0.5000
C13_5 C 0.8527 0.5000 0.6473
C14_5 C 0.6473 0.5000 0.8527
C18_6 C 0.7981 0.7019 0.5000
C19_6 C 0.7019 0.7981 0.5000
C24_5 C 0.7981 0.5000 0.7019
C25_5 C 0.7019 0.5000 0.7981
C33_6 C 0.8159 0.7643 0.5000
C34_6 C 0.7643 0.8159 0.5000
C35_6 C 0.6841 0.7357 0.5000
C36_6 C 0.7357 0.6841 0.5000
C45_5 C 0.8159 0.5000 0.7643
C46_5 C 0.7643 0.5000 0.8159
C47_5 C 0.6841 0.5000 0.7357
C48_5 C 0.7357 0.5000 0.6841
H4_5 H 0.866718 0.5 0.77748
H8_5 H 0.77748 0.5 0.866718
H11_6 H 0.77748 0.866718 0.5
H15_6 H 0.633282 0.72252 0.5
H17_6 H 0.866718 0.77748 0.5
H19_5 H 0.633282 0.5 0.72252
H20_5 H 0.72252 0.5 0.633282
H21_6 H 0.72252 0.633282 0.5
O7_5 O 0.8274 0.4040 0.5000
O33_5 O 0.8274 0.5000 0.4040
C5_6 C 0.8527 0.3527 0.5000
C6_6 C 0.6473 0.1473 0.5000
C16_6 C 0.7981 0.2981 0.5000
C17_6 C 0.7019 0.2019 0.5000
C29_6 C 0.8159 0.2357 0.5000
C30_6 C 0.7643 0.1841 0.5000
C31_6 C 0.6841 0.2643 0.5000
C32_6 C 0.7357 0.3159 0.5000
H2_6 H 0.866718 0.22252 0.5
H9_6 H 0.72252 0.366718 0.5
H12_6 H 0.633282 0.27748 0.5
H16_6 H 0.77748 0.133282 0.5
O35_7 O 0.5000 0.5960 0.1726
O36_7 O 0.5000 0.4040 0.1726
O37_6 O 0.5960 0.5000 0.1726
O27_6 O 0.5000 0.8274 0.5960
O28_6 O 0.5000 0.8274 0.4040
C9_10 C 0.8527 0.5000 0.3527
C10_10 C 0.6473 0.5000 0.1473
C20_10 C 0.7981 0.5000 0.2981
C21_10 C 0.7019 0.5000 0.2019
C37_10 C 0.8159 0.5000 0.2357
C38_10 C 0.7643 0.5000 0.1841
C39_10 C 0.6841 0.5000 0.2643
C40_10 C 0.7357 0.5000 0.3159
H5_10 H 0.633282 0.5 0.27748
H18_10 H 0.77748 0.5 0.133282
H23_10 H 0.866718 0.5 0.22252
H24_10 H 0.72252 0.5 0.366718
C13_6 C 0.5000 0.1473 0.6473
C14_6 C 0.5000 0.3527 0.8527
C24_6 C 0.5000 0.2019 0.7019
C25_6 C 0.5000 0.2981 0.7981
C45_6 C 0.5000 0.1841 0.7643
C46_6 C 0.5000 0.2357 0.8159
C47_6 C 0.5000 0.3159 0.7357
C48_6 C 0.5000 0.2643 0.6841
H4_6 H 0.5 0.133282 0.77748
H8_6 H 0.5 0.22252 0.866718
H19_6 H 0.5 0.366718 0.72252
H20_6 H 0.5 0.27748 0.633282
C11_3 C 0.5000 0.8527 0.6473
C12_3 C 0.5000 0.6473 0.8527
C22_3 C 0.5000 0.7981 0.7019
C23_3 C 0.5000 0.7019 0.7981
C41_3 C 0.5000 0.8159 0.7643
C42_3 C 0.5000 0.7643 0.8159
C43_3 C 0.5000 0.6841 0.7357
C44_3 C 0.5000 0.7357 0.6841
H3_3 H 0.5 0.866718 0.77748
H6_3 H 0.5 0.77748 0.866718
H7_3 H 0.5 0.72252 0.633282
H10_3 H 0.5 0.633282 0.72252
C9_11 C 0.5000 0.1473 0.3527
C10_11 C 0.5000 0.3527 0.1473
C20_11 C 0.5000 0.2019 0.2981
C21_11 C 0.5000 0.2981 0.2019
C37_11 C 0.5000 0.2643 0.3159
C38_11 C 0.5000 0.3159 0.2643
C39_11 C 0.5000 0.2357 0.1841
C40_11 C 0.5000 0.1841 0.2357
H5_11 H 0.5 0.22252 0.133282
H18_11 H 0.5 0.366718 0.27748
H23_11 H 0.5 0.27748 0.366718
H24_11 H 0.5 0.133282 0.22252
C9_12 C 0.5000 0.8527 0.3527
C10_12 C 0.5000 0.6473 0.1473
C20_12 C 0.5000 0.7981 0.2981
C21_12 C 0.5000 0.7019 0.2019
C37_12 C 0.5000 0.7357 0.3159
C38_12 C 0.5000 0.6841 0.2643
C39_12 C 0.5000 0.7643 0.1841
C40_12 C 0.5000 0.8159 0.2357
H5_12 H 0.5 0.77748 0.133282
H18_12 H 0.5 0.633282 0.27748
H23_12 H 0.5 0.72252 0.366718
H24_12 H 0.5 0.866718 0.22252
loop_
_geom_bond_atom_site_label_1
_geom_bond_atom_site_label_2
_geom_bond_site_symmetry_1
_geom_bond_site_symmetry_2
Zr1 O1 1_555 1_555
O1 C1 1_555 1_555
C1 C2 1_555 1_555
C2 C3 1_555 1_555
C3 C26 1_555 1_555
Zr2 O3 1_555 1_555
Zr3 O4 1_555 1_555
Zr4 O5 1_555 1_555
Zr9 O11 1_555 1_555
Zr10 O12 1_555 1_555
Zr11 O13 1_555 1_555
Zr16 O24 1_555 1_555
Zr17 O25 1_555 1_555
Zr21 O44 1_555 1_555
O3 C1 1_555 1_555
O4 C4 1_555 1_555
O5 C4 1_555 1_555
O10 Zr1 1_555 1_555
O11 C7 1_555 1_555
O12 C8 1_555 1_555
O13 C8 1_555 1_555
O22 Zr2 1_555 1_555
O23 Zr9 1_555 1_555
O24 C14 1_555 1_555
O25 C14 1_555 1_555
O28 Zr3 1_555 1_555
O29 Zr3 1_555 1_555
O31 Zr4 1_555 1_555
O32 Zr4 1_555 1_555
O40 Zr1 1_555 1_555
O44 Zr3 1_555 1_555
O46 Zr3 1_555 1_555
O48 Zr4 1_555 1_555
C4 C15 1_555 1_555
C7 O10 1_555 1_555
C8 C19 1_555 1_555
C13 O22 1_555 1_555
C14 C25 1_555 1_555
C15 C26 1_555 1_555
C18 C7 1_555 1_555
C19 C34 1_555 1_555
C24 C13 1_555 1_555
C25 C46 1_555 1_555
C27 C15 1_555 1_555
C28 C2 1_555 1_555
C33 C18 1_555 1_555
C34 C33 1_555 1_555
C35 C19 1_555 1_555
C36 C18 1_555 1_555
C45 C24 1_555 1_555
C46 C45 1_555 1_555
C47 C25 1_555 1_555
C48 C24 1_555 1_555
Zr2 O40 1_555 1_555
Zr4 O46 1_555 1_555
Zr9 O40 1_555 1_555
Zr20 O44 1_555 1_555
Zr21 O46 1_555 1_555
Zr21 O48 1_555 1_555
O23 C13 1_555 1_555
C27 C28 1_555 1_555
C35 C36 1_555 1_555
C47 C48 1_555 1_555
C3 H1 1_555 1_555
C45 H4 1_555 1_555
C46 H8 1_555 1_555
C34 H11 1_555 1_555
C26 H13 1_555 1_555
C28 H14 1_555 1_555
C35 H15 1_555 1_555
C33 H17 1_555 1_555
C47 H19 1_555 1_555
C48 H20 1_555 1_555
C36 H21 1_555 1_555
C27 H22 1_555 1_555
Zr9_2 O11_2 1_555 1_555
Zr10_2 O12_2 1_555 1_555
Zr11_2 O13_2 1_555 1_555
Zr12 O16 1_555 1_555
O10_2 Zr1_2 1_555 1_555
O11_2 C7_2 1_555 1_555
O12_2 C8_2 1_555 1_555
O13_2 C8_2 1_555 1_555
O14 Zr1_2 1_555 1_555
O15 Zr7 1_555 1_555
O16 C10 1_555 1_555
O32 C10 1_555 1_555
O38 Zr1_2 1_555 1_555
C7_2 O10_2 1_555 1_555
C8_2 C19_2 1_555 1_555
C9 O14 1_555 1_555
C10 C21 1_555 1_555
C18_2 C7_2 1_555 1_555
C19_2 C34_2 1_555 1_555
C20 C9 1_555 1_555
C21 C38 1_555 1_555
C33_2 C18_2 1_555 1_555
C34_2 C33_2 1_555 1_555
C35_2 C19_2 1_555 1_555
C36_2 C18_2 1_555 1_555
C37 C20 1_555 1_555
C38 C37 1_555 1_555
C39 C21 1_555 1_555
C40 C20 1_555 1_555
Zr7 O38 1_555 1_555
Zr9_2 O38 1_555 1_555
O15 C9 1_555 1_555
C35_2 C36_2 1_555 1_555
C39 C40 1_555 1_555
C39 H5 1_555 1_555
C34_2 H11_2 1_555 1_555
C35_2 H15_2 1_555 1_555
C33_2 H17_2 1_555 1_555
C38 H18 1_555 1_555
C36_2 H21_2 1_555 1_555
C37 H23 1_555 1_555
C40 H24 1_555 1_555
Zr1_3 O1_2 1_555 1_555
O1_2 C1_2 1_555 1_555
C1_2 C2_2 1_555 1_555
C2_2 C3_2 1_555 1_555
C3_2 C26_2 1_555 1_555
Zr2_2 O3_2 1_555 1_555
Zr3_2 O4_2 1_555 1_555
Zr4_2 O5_2 1_555 1_555
Zr6 O8 1_555 1_555
Zr11 O9 1_555 1_555
Zr14 O20 1_555 1_555
Zr17 O21 1_555 1_555
Zr19 O43 1_555 1_555
Zr20_2 O43 1_555 1_555
O3_2 C1_2 1_555 1_555
O4_2 C4_2 1_555 1_555
O5_2 C4_2 1_555 1_555
O6 Zr1_3 1_555 1_555
O7 Zr5 1_555 1_555
O8 C6 1_555 1_555
O9 C6 1_555 1_555
O18 Zr2_2 1_555 1_555
O19 Zr5 1_555 1_555
O20 C12 1_555 1_555
O21 C12 1_555 1_555
O27 Zr3_2 1_555 1_555
O29_2 Zr3_2 1_555 1_555
O30 Zr4_2 1_555 1_555
O32_2 Zr4_2 1_555 1_555
O36 Zr6 1_555 1_555
O37 Zr6 1_555 1_555
O39 Zr1_3 1_555 1_555
O43 Zr3_2 1_555 1_555
O45 Zr3_2 1_555 1_555
O47 Zr4_2 1_555 1_555
O51 Zr6 1_555 1_555
O53 Zr6 1_555 1_555
C4_2 C15_2 1_555 1_555
C5 O6 1_555 1_555
C6 C17 1_555 1_555
C11 O18 1_555 1_555
C12 C23 1_555 1_555
C15_2 C26_2 1_555 1_555
C16 C5 1_555 1_555
C17 C30 1_555 1_555
C22 C11 1_555 1_555
C23 C42 1_555 1_555
C27_2 C15_2 1_555 1_555
C28_2 C2_2 1_555 1_555
C29 C16 1_555 1_555
C30 C29 1_555 1_555
C31 C17 1_555 1_555
C32 C16 1_555 1_555
C41 C22 1_555 1_555
C42 C41 1_555 1_555
C43 C23 1_555 1_555
C44 C22 1_555 1_555
Zr2_2 O39 1_555 1_555
Zr4_2 O45 1_555 1_555
Zr5 O39 1_555 1_555
Zr11 O53 1_555 1_555
Zr19 O45 1_555 1_555
Zr19 O47 1_555 1_555
O7 C5 1_555 1_555
O19 C11 1_555 1_555
C27_2 C28_2 1_555 1_555
C31 C32 1_555 1_555
C43 C44 1_555 1_555
C3_2 H1_2 1_555 1_555
C29 H2 1_555 1_555
C41 H3 1_555 1_555
C42 H6 1_555 1_555
C44 H7 1_555 1_555
C32 H9 1_555 1_555
C43 H10 1_555 1_555
C31 H12 1_555 1_555
C26_2 H13_2 1_555 1_555
C28_2 H14_2 1_555 1_555
C30 H16 1_555 1_555
C27_2 H22_2 1_555 1_555
O2 Zr1_4 1_555 1_555
Zr5_2 O2 1_555 1_555
Zr6_2 O8_2 1_555 1_555
Zr7_2 O2 1_555 1_555
Zr11_2 O9_2 1_555 1_555
Zr12_2 O16_2 1_555 1_555
O6_2 Zr1_4 1_555 1_555
O7_2 Zr5_2 1_555 1_555
O8_2 C6_2 1_555 1_555
O9_2 C6_2 1_555 1_555
O14_2 Zr1_4 1_555 1_555
O15_2 Zr7_2 1_555 1_555
O16_2 C10_2 1_555 1_555
O32_2 C10_2 1_555 1_555
O33 Zr5_2 1_555 1_555
O35 Zr6_2 1_555 1_555
O37_2 Zr6_2 1_555 1_555
O50 Zr6_2 1_555 1_555
O52 Zr6_2 1_555 1_555
C5_2 O6_2 1_555 1_555
C6_2 C17_2 1_555 1_555
C9_2 O14_2 1_555 1_555
C10_2 C21_2 1_555 1_555
C16_2 C5_2 1_555 1_555
C17_2 C30_2 1_555 1_555
C20_2 C9_2 1_555 1_555
C21_2 C38_2 1_555 1_555
C29_2 C16_2 1_555 1_555
C30_2 C29_2 1_555 1_555
C31_2 C17_2 1_555 1_555
C32_2 C16_2 1_555 1_555
C37_2 C20_2 1_555 1_555
C38_2 C37_2 1_555 1_555
C39_2 C21_2 1_555 1_555
C40_2 C20_2 1_555 1_555
Zr11_2 O52 1_555 1_555
O7_2 C5_2 1_555 1_555
O15_2 C9_2 1_555 1_555
C31_2 C32_2 1_555 1_555
C39_2 C40_2 1_555 1_555
C29_2 H2_2 1_555 1_555
C39_2 H5_2 1_555 1_555
C32_2 H9_2 1_555 1_555
C31_2 H12_2 1_555 1_555
C30_2 H16_2 1_555 1_555
C38_2 H18_2 1_555 1_555
C37_2 H23_2 1_555 1_555
C40_2 H24_2 1_555 1_555
Zr16_2 O24_2 1_555 1_555
Zr17_2 O25_2 1_555 1_555
O22_2 Zr2_3 1_555 1_555
O23_2 Zr9_3 1_555 1_555
O24_2 C14_2 1_555 1_555
O25_2 C14_2 1_555 1_555
O26 Zr2_3 1_555 1_555
O42 Zr2_3 1_555 1_555
C13_2 O22_2 1_555 1_555
C14_2 C25_2 1_555 1_555
C24_2 C13_2 1_555 1_555
C25_2 C46_2 1_555 1_555
C45_2 C24_2 1_555 1_555
C46_2 C45_2 1_555 1_555
C47_2 C25_2 1_555 1_555
C48_2 C24_2 1_555 1_555
Zr9_3 O42 1_555 1_555
Zr18 O42 1_555 1_555
O23_2 C13_2 1_555 1_555
C47_2 C48_2 1_555 1_555
C45_2 H4_2 1_555 1_555
C46_2 H8_2 1_555 1_555
C47_2 H19_2 1_555 1_555
C48_2 H20_2 1_555 1_555
Zr14_2 O20_2 1_555 1_555
Zr17_2 O21_2 1_555 1_555
Zr18_3 O41 1_555 1_555
O18_2 Zr2_4 1_555 1_555
O19_2 Zr5_3 1_555 1_555
O20_2 C12_2 1_555 1_555
O21_2 C12_2 1_555 1_555
O26_2 Zr2_4 1_555 1_555
O34 Zr5_3 1_555 1_555
O41 Zr2_4 1_555 1_555
C11_2 O18_2 1_555 1_555
C12_2 C23_2 1_555 1_555
C22_2 C11_2 1_555 1_555
C23_2 C42_2 1_555 1_555
C41_2 C22_2 1_555 1_555
C42_2 C41_2 1_555 1_555
C43_2 C23_2 1_555 1_555
C44_2 C22_2 1_555 1_555
Zr5_3 O41 1_555 1_555
O19_2 C11_2 1_555 1_555
C43_2 C44_2 1_555 1_555
C41_2 H3_2 1_555 1_555
C42_2 H6_2 1_555 1_555
C44_2 H7_2 1_555 1_555
C43_2 H10_2 1_555 1_555
O33_2 Zr5_4 1_555 1_555
O34_2 Zr5_4 1_555 1_555
O49 Zr5_4 1_555 1_555
Zr7_4 O49 1_555 1_555
Zr18_4 O49 1_555 1_555
Zr19_2 O43_2 1_555 1_555
Zr14 O43_2 1_555 1_555
O27_2 Zr17 1_555 1_555
O30_2 Zr16 1_555 1_555
O32_3 Zr16 1_555 1_555
O36_2 Zr11 1_555 1_555
O43_2 Zr17 1_555 1_555
O45_2 Zr17 1_555 1_555
O47_2 Zr16 1_555 1_555
O53_2 Zr11 1_555 1_555
Zr16 O45_2 1_555 1_555
Zr10 O53_2 1_555 1_555
Zr19_2 O45_2 1_555 1_555
Zr19_2 O47_2 1_555 1_555
Zr12_3 O16_3 1_555 1_555
O14_3 Zr9_2 1_555 1_555
O15_3 Zr7 1_555 1_555
O16_3 C10_3 1_555 1_555
O32_3 C10_3 1_555 1_555
O35_2 Zr11_2 1_555 1_555
O52_2 Zr11_2 1_555 1_555
C9_3 O14_3 1_555 1_555
C10_3 C21_3 1_555 1_555
C20_3 C9_3 1_555 1_555
C21_3 C38_3 1_555 1_555
C37_3 C20_3 1_555 1_555
C38_3 C37_3 1_555 1_555
C39_3 C21_3 1_555 1_555
C40_3 C20_3 1_555 1_555
Zr10_2 O52_2 1_555 1_555
O15_3 C9_3 1_555 1_555
C39_3 C40_3 1_555 1_555
C39_3 H5_3 1_555 1_555
C38_3 H18_3 1_555 1_555
C37_3 H23_3 1_555 1_555
C40_3 H24_3 1_555 1_555
Zr18 O11_3 1_555 1_555
Zr10_3 O12_3 1_555 1_555
Zr10 O13_3 1_555 1_555
Zr20 O24_3 1_555 1_555
Zr21_2 O44_2 1_555 1_555
O10_3 Zr9_3 1_555 1_555
O11_3 C7_3 1_555 1_555
O12_3 C8_3 1_555 1_555
O13_3 C8_3 1_555 1_555
O23_3 Zr18 1_555 1_555
O24_3 C14_3 1_555 1_555
O29 C14_3 1_555 1_555
O28_2 Zr17_2 1_555 1_555
O31_2 Zr16_2 1_555 1_555
O32_4 Zr16_2 1_555 1_555
O44_2 Zr17_2 1_555 1_555
O46_2 Zr17_2 1_555 1_555
O48_2 Zr16_2 1_555 1_555
C7_3 O10_3 1_555 1_555
C8_3 C19_3 1_555 1_555
C13_3 O26 1_555 1_555
C14_3 C25_3 1_555 1_555
C18_3 C7_3 1_555 1_555
C19_3 C34_3 1_555 1_555
C24_3 C13_3 1_555 1_555
C25_3 C46_3 1_555 1_555
C33_3 C18_3 1_555 1_555
C34_3 C33_3 1_555 1_555
C35_3 C19_3 1_555 1_555
C36_3 C18_3 1_555 1_555
C45_3 C24_3 1_555 1_555
C46_3 C45_3 1_555 1_555
C47_3 C25_3 1_555 1_555
C48_3 C24_3 1_555 1_555
Zr16_2 O46_2 1_555 1_555
Zr14_2 O44_2 1_555 1_555
Zr21_2 O46_2 1_555 1_555
Zr21_2 O48_2 1_555 1_555
O23_3 C13_3 1_555 1_555
C35_3 C36_3 1_555 1_555
C47_3 C48_3 1_555 1_555
C45_3 H4_3 1_555 1_555
C46_3 H8_3 1_555 1_555
C34_3 H11_3 1_555 1_555
C35_3 H15_3 1_555 1_555
C33_3 H17_3 1_555 1_555
C47_3 H19_3 1_555 1_555
C48_3 H20_3 1_555 1_555
C36_3 H21_3 1_555 1_555
Zr18_2 O11_4 1_555 1_555
Zr10_4 O12_4 1_555 1_555
Zr10_2 O13_4 1_555 1_555
Zr12_4 O16_4 1_555 1_555
O10_4 Zr9_4 1_555 1_555
O11_4 C7_4 1_555 1_555
O12_4 C8_4 1_555 1_555
O13_4 C8_4 1_555 1_555
O14_4 Zr9_4 1_555 1_555
O15_4 Zr7_3 1_555 1_555
O16_4 C10_4 1_555 1_555
O32_4 C10_4 1_555 1_555
O38_2 Zr9_4 1_555 1_555
C7_4 O10_4 1_555 1_555
C8_4 C19_4 1_555 1_555
C9_4 O14_4 1_555 1_555
C10_4 C21_4 1_555 1_555
C18_4 C7_4 1_555 1_555
C19_4 C34_4 1_555 1_555
C20_4 C9_4 1_555 1_555
C21_4 C38_4 1_555 1_555
C33_4 C18_4 1_555 1_555
C34_4 C33_4 1_555 1_555
C35_4 C19_4 1_555 1_555
C36_4 C18_4 1_555 1_555
C37_4 C20_4 1_555 1_555
C38_4 C37_4 1_555 1_555
C39_4 C21_4 1_555 1_555
C40_4 C20_4 1_555 1_555
Zr7_3 O38_2 1_555 1_555
Zr18_2 O38_2 1_555 1_555
O15_4 C9_4 1_555 1_555
C35_4 C36_4 1_555 1_555
C39_4 C40_4 1_555 1_555
C39_4 H5_4 1_555 1_555
C34_4 H11_4 1_555 1_555
C35_4 H15_4 1_555 1_555
C33_4 H17_4 1_555 1_555
C38_4 H18_4 1_555 1_555
C36_4 H21_4 1_555 1_555
C37_4 H23_4 1_555 1_555
C40_4 H24_4 1_555 1_555
Zr20_2 O24_4 1_555 1_555
O23_4 Zr18_3 1_555 1_555
O24_4 C14_4 1_555 1_555
O29_2 C14_4 1_555 1_555
C13_4 O26_2 1_555 1_555
C14_4 C25_4 1_555 1_555
C24_4 C13_4 1_555 1_555
C25_4 C46_4 1_555 1_555
C45_4 C24_4 1_555 1_555
C46_4 C45_4 1_555 1_555
C47_4 C25_4 1_555 1_555
C48_4 C24_4 1_555 1_555
O23_4 C13_4 1_555 1_555
C47_4 C48_4 1_555 1_555
C45_4 H4_4 1_555 1_555
C46_4 H8_4 1_555 1_555
C47_4 H19_4 1_555 1_555
C48_4 H20_4 1_555 1_555
O31_3 Zr14 1_555 1_555
O32_5 Zr14 1_555 1_555
O48_3 Zr14 1_555 1_555
Zr19_2 O48_3 1_555 1_555
Zr12_3 O16_5 1_555 1_555
O15_5 Zr7_2 1_555 1_555
O16_5 C10_5 1_555 1_555
O32_5 C10_5 1_555 1_555
C9_5 O33 1_555 1_555
C10_5 C21_5 1_555 1_555
C20_5 C9_5 1_555 1_555
C21_5 C38_5 1_555 1_555
C37_5 C20_5 1_555 1_555
C38_5 C37_5 1_555 1_555
C39_5 C21_5 1_555 1_555
C40_5 C20_5 1_555 1_555
O15_5 C9_5 1_555 1_555
C39_5 C40_5 1_555 1_555
C39_5 H5_5 1_555 1_555
C38_5 H18_5 1_555 1_555
C37_5 H23_5 1_555 1_555
C40_5 H24_5 1_555 1_555
O33_3 Zr18_2 1_555 1_555
Zr10_3 O8_3 1_555 1_555
O7_3 Zr18_3 1_555 1_555
O8_3 C6_3 1_555 1_555
O37 C6_3 1_555 1_555
O30_3 Zr14_2 1_555 1_555
O32_6 Zr14_2 1_555 1_555
O36_3 Zr10_3 1_555 1_555
O47_3 Zr14_2 1_555 1_555
O51_2 Zr10_3 1_555 1_555
O51 Zr10_3 1_555 1_555
C5_3 O34 1_555 1_555
C6_3 C17_3 1_555 1_555
C16_3 C5_3 1_555 1_555
C17_3 C30_3 1_555 1_555
C29_3 C16_3 1_555 1_555
C30_3 C29_3 1_555 1_555
C31_3 C17_3 1_555 1_555
C32_3 C16_3 1_555 1_555
Zr21_2 O47_3 1_555 1_555
O7_3 C5_3 1_555 1_555
C31_3 C32_3 1_555 1_555
C29_3 H2_3 1_555 1_555
C32_3 H9_3 1_555 1_555
C31_3 H12_3 1_555 1_555
C30_3 H16_3 1_555 1_555
Zr10_4 O8_4 1_555 1_555
Zr12_4 O16_6 1_555 1_555
O7_4 Zr18_4 1_555 1_555
O8_4 C6_4 1_555 1_555
O37_2 C6_4 1_555 1_555
O15_6 Zr7_4 1_555 1_555
O16_6 C10_6 1_555 1_555
O32_6 C10_6 1_555 1_555
O33_4 Zr18_4 1_555 1_555
O35_3 Zr10_4 1_555 1_555
O50_2 Zr10_4 1_555 1_555
O50 Zr10_4 1_555 1_555
C5_4 O34_2 1_555 1_555
C6_4 C17_4 1_555 1_555
C9_6 O33_2 1_555 1_555
C10_6 C21_6 1_555 1_555
C16_4 C5_4 1_555 1_555
C17_4 C30_4 1_555 1_555
C20_6 C9_6 1_555 1_555
C21_6 C38_6 1_555 1_555
C29_4 C16_4 1_555 1_555
C30_4 C29_4 1_555 1_555
C31_4 C17_4 1_555 1_555
C32_4 C16_4 1_555 1_555
C37_6 C20_6 1_555 1_555
C38_6 C37_6 1_555 1_555
C39_6 C21_6 1_555 1_555
C40_6 C20_6 1_555 1_555
O7_4 C5_4 1_555 1_555
O15_6 C9_6 1_555 1_555
C31_4 C32_4 1_555 1_555
C39_6 C40_6 1_555 1_555
C29_4 H2_4 1_555 1_555
C39_6 H5_6 1_555 1_555
C32_4 H9_4 1_555 1_555
C31_4 H12_4 1_555 1_555
C30_4 H16_4 1_555 1_555
C38_6 H18_6 1_555 1_555
C37_6 H23_6 1_555 1_555
C40_6 H24_6 1_555 1_555
O35_4 Zr12 1_555 1_555
O37_3 Zr12 1_555 1_555
O50_3 Zr12 1_555 1_555
O48 Zr12 1_555 1_555
Zr21_3 O51 1_555 1_555
Zr21_3 O53 1_555 1_555
Zr21_3 O53_2 1_555 1_555
Zr19_3 O50 1_555 1_555
O36_4 Zr12_2 1_555 1_555
O37_4 Zr12_2 1_555 1_555
O51_3 Zr12_2 1_555 1_555
O47 Zr12_2 1_555 1_555
Zr19_3 O52 1_555 1_555
Zr19_3 O52_2 1_555 1_555
O34_3 Zr7_3 1_555 1_555
O34_4 Zr7_4 1_555 1_555
Zr21_3 O51_2 1_555 1_555
O27_3 Zr10 1_555 1_555
O51_2 Zr10 1_555 1_555
Zr19_3 O50_2 1_555 1_555
O28_3 Zr10_2 1_555 1_555
O50_2 Zr10_2 1_555 1_555
Zr21 O50_3 1_555 1_555
Zr12_3 O48_3 1_555 1_555
Zr19 O51_3 1_555 1_555
Zr20 O16_7 1_555 1_555
O16_7 C10_7 1_555 1_555
O37_3 C10_7 1_555 1_555
C9_7 O34_3 1_555 1_555
C10_7 C21_7 1_555 1_555
C20_7 C9_7 1_555 1_555
C21_7 C38_7 1_555 1_555
C37_7 C20_7 1_555 1_555
C38_7 C37_7 1_555 1_555
C39_7 C21_7 1_555 1_555
C40_7 C20_7 1_555 1_555
O33_3 C9_7 1_555 1_555
C39_7 C40_7 1_555 1_555
C39_7 H5_7 1_555 1_555
C38_7 H18_7 1_555 1_555
C37_7 H23_7 1_555 1_555
C40_7 H24_7 1_555 1_555
Zr20_2 O16_8 1_555 1_555
O16_8 C10_8 1_555 1_555
O37_4 C10_8 1_555 1_555
C9_8 O34_4 1_555 1_555
C10_8 C21_8 1_555 1_555
C20_8 C9_8 1_555 1_555
C21_8 C38_8 1_555 1_555
C37_8 C20_8 1_555 1_555
C38_8 C37_8 1_555 1_555
C39_8 C21_8 1_555 1_555
C40_8 C20_8 1_555 1_555
Zr12_4 O47_3 1_555 1_555
O33_4 C9_8 1_555 1_555
C39_8 C40_8 1_555 1_555
C39_8 H5_8 1_555 1_555
C38_8 H18_8 1_555 1_555
C37_8 H23_8 1_555 1_555
C40_8 H24_8 1_555 1_555
O28_4 Zr20 1_555 1_555
O50_3 Zr20 1_555 1_555
O27_4 Zr20_2 1_555 1_555
O51_3 Zr20_2 1_555 1_555
O36_5 Zr12_3 1_555 1_555
O47_2 Zr12_3 1_555 1_555
O35_5 Zr12_4 1_555 1_555
O48_2 Zr12_4 1_555 1_555
Zr19_2 O1_3 1_555 1_555
O1_3 C1_3 1_555 1_555
C1_3 C2_3 1_555 1_555
C2_3 C3_3 1_555 1_555
C3_3 C26_3 1_555 1_555
Zr19_3 O4_3 1_555 1_555
Zr21 O8_5 1_555 1_555
Zr19 O12_5 1_555 1_555
Zr21_3 O16_9 1_555 1_555
O36_5 C1_3 1_555 1_555
O4_3 C4_3 1_555 1_555
O35_2 C4_3 1_555 1_555
O6_3 Zr19_2 1_555 1_555
O8_5 C6_5 1_555 1_555
O31 C6_5 1_555 1_555
O10_5 Zr19_2 1_555 1_555
O31_3 C7_5 1_555 1_555
O12_5 C8_5 1_555 1_555
O30 C8_5 1_555 1_555
O14_5 Zr19_2 1_555 1_555
O16_9 C10_9 1_555 1_555
O36_2 C10_9 1_555 1_555
O27_5 Zr19_3 1_555 1_555
O28_5 Zr19_3 1_555 1_555
O29_3 Zr19_3 1_555 1_555
O35_6 Zr21 1_555 1_555
O36_6 Zr21 1_555 1_555
O37_5 Zr21 1_555 1_555
C4_3 C15_3 1_555 1_555
C5_5 O6_3 1_555 1_555
C6_5 C17_5 1_555 1_555
C7_5 O10_5 1_555 1_555
C8_5 C19_5 1_555 1_555
C9_9 O14_5 1_555 1_555
C10_9 C21_9 1_555 1_555
C15_3 C26_3 1_555 1_555
C16_5 C5_5 1_555 1_555
C17_5 C30_5 1_555 1_555
C18_5 C7_5 1_555 1_555
C19_5 C34_5 1_555 1_555
C20_9 C9_9 1_555 1_555
C21_9 C38_9 1_555 1_555
C27_3 C15_3 1_555 1_555
C28_3 C2_3 1_555 1_555
C29_5 C16_5 1_555 1_555
C30_5 C29_5 1_555 1_555
C31_5 C17_5 1_555 1_555
C32_5 C16_5 1_555 1_555
C33_5 C18_5 1_555 1_555
C34_5 C33_5 1_555 1_555
C35_5 C19_5 1_555 1_555
C36_5 C18_5 1_555 1_555
C37_9 C20_9 1_555 1_555
C38_9 C37_9 1_555 1_555
C39_9 C21_9 1_555 1_555
C40_9 C20_9 1_555 1_555
O30_2 C5_5 1_555 1_555
O27_2 C9_9 1_555 1_555
C27_3 C28_3 1_555 1_555
C31_5 C32_5 1_555 1_555
C35_5 C36_5 1_555 1_555
C39_9 C40_9 1_555 1_555
C3_3 H1_3 1_555 1_555
C29_5 H2_5 1_555 1_555
C39_9 H5_9 1_555 1_555
C32_5 H9_5 1_555 1_555
C34_5 H11_5 1_555 1_555
C31_5 H12_5 1_555 1_555
C26_3 H13_3 1_555 1_555
C28_3 H14_3 1_555 1_555
C35_5 H15_5 1_555 1_555
C30_5 H16_5 1_555 1_555
C33_5 H17_5 1_555 1_555
C38_9 H18_9 1_555 1_555
C36_5 H21_5 1_555 1_555
C27_3 H22_3 1_555 1_555
C37_9 H23_9 1_555 1_555
C40_9 H24_9 1_555 1_555
Zr21_2 O11_5 1_555 1_555
Zr19 O13_5 1_555 1_555
O11_5 C7_6 1_555 1_555
O27_4 C8_6 1_555 1_555
O13_5 C8_6 1_555 1_555
O23_5 Zr21_2 1_555 1_555
O35_3 C14_5 1_555 1_555
O29_3 C14_5 1_555 1_555
C7_6 O30_3 1_555 1_555
C8_6 C19_6 1_555 1_555
C13_5 O35_5 1_555 1_555
C14_5 C25_5 1_555 1_555
C18_6 C7_6 1_555 1_555
C19_6 C34_6 1_555 1_555
C24_5 C13_5 1_555 1_555
C25_5 C46_5 1_555 1_555
C33_6 C18_6 1_555 1_555
C34_6 C33_6 1_555 1_555
C35_6 C19_6 1_555 1_555
C36_6 C18_6 1_555 1_555
C45_5 C24_5 1_555 1_555
C46_5 C45_5 1_555 1_555
C47_5 C25_5 1_555 1_555
C48_5 C24_5 1_555 1_555
O23_5 C13_5 1_555 1_555
C35_6 C36_6 1_555 1_555
C47_5 C48_5 1_555 1_555
C45_5 H4_5 1_555 1_555
C46_5 H8_5 1_555 1_555
C34_6 H11_6 1_555 1_555
C35_6 H15_6 1_555 1_555
C33_6 H17_6 1_555 1_555
C47_5 H19_5 1_555 1_555
C48_5 H20_5 1_555 1_555
C36_6 H21_6 1_555 1_555
O7_5 Zr21_2 1_555 1_555
O28_4 C6_6 1_555 1_555
O37_5 C6_6 1_555 1_555
O33_5 Zr21_2 1_555 1_555
C5_6 O31_2 1_555 1_555
C6_6 C17_6 1_555 1_555
C16_6 C5_6 1_555 1_555
C17_6 C30_6 1_555 1_555
C29_6 C16_6 1_555 1_555
C30_6 C29_6 1_555 1_555
C31_6 C17_6 1_555 1_555
C32_6 C16_6 1_555 1_555
O7_5 C5_6 1_555 1_555
C31_6 C32_6 1_555 1_555
C29_6 H2_6 1_555 1_555
C32_6 H9_6 1_555 1_555
C31_6 H12_6 1_555 1_555
C30_6 H16_6 1_555 1_555
O35_7 Zr21_3 1_555 1_555
O36_7 Zr21_3 1_555 1_555
O37_6 Zr21_3 1_555 1_555
O27_6 Zr19 1_555 1_555
O28_6 Zr19 1_555 1_555
O36_3 C10_10 1_555 1_555
O37_6 C10_10 1_555 1_555
C9_10 O28_2 1_555 1_555
C10_10 C21_10 1_555 1_555
C20_10 C9_10 1_555 1_555
C21_10 C38_10 1_555 1_555
C37_10 C20_10 1_555 1_555
C38_10 C37_10 1_555 1_555
C39_10 C21_10 1_555 1_555
C40_10 C20_10 1_555 1_555
O33_5 C9_10 1_555 1_555
C39_10 C40_10 1_555 1_555
C39_10 H5_10 1_555 1_555
C38_10 H18_10 1_555 1_555
C37_10 H23_10 1_555 1_555
C40_10 H24_10 1_555 1_555
O28_3 C14_6 1_555 1_555
O27_5 C14_6 1_555 1_555
C13_6 O35_4 1_555 1_555
C14_6 C25_6 1_555 1_555
C24_6 C13_6 1_555 1_555
C25_6 C46_6 1_555 1_555
C45_6 C24_6 1_555 1_555
C46_6 C45_6 1_555 1_555
C47_6 C25_6 1_555 1_555
C48_6 C24_6 1_555 1_555
O36_6 C13_6 1_555 1_555
C47_6 C48_6 1_555 1_555
C45_6 H4_6 1_555 1_555
C46_6 H8_6 1_555 1_555
C47_6 H19_6 1_555 1_555
C48_6 H20_6 1_555 1_555
O35 C12_3 1_555 1_555
O28_5 C12_3 1_555 1_555
C11_3 O36_4 1_555 1_555
C12_3 C23_3 1_555 1_555
C22_3 C11_3 1_555 1_555
C23_3 C42_3 1_555 1_555
C41_3 C22_3 1_555 1_555
C42_3 C41_3 1_555 1_555
C43_3 C23_3 1_555 1_555
C44_3 C22_3 1_555 1_555
O27_6 C11_3 1_555 1_555
C43_3 C44_3 1_555 1_555
C41_3 H3_3 1_555 1_555
C42_3 H6_3 1_555 1_555
C44_3 H7_3 1_555 1_555
C43_3 H10_3 1_555 1_555
O36_7 C10_11 1_555 1_555
O27_3 C10_11 1_555 1_555
C9_11 O35_6 1_555 1_555
C10_11 C21_11 1_555 1_555
C20_11 C9_11 1_555 1_555
C21_11 C38_11 1_555 1_555
C37_11 C20_11 1_555 1_555
C38_11 C37_11 1_555 1_555
C39_11 C21_11 1_555 1_555
C40_11 C20_11 1_555 1_555
O28 C9_11 1_555 1_555
C39_11 C40_11 1_555 1_555
C39_11 H5_11 1_555 1_555
C38_11 H18_11 1_555 1_555
C37_11 H23_11 1_555 1_555
C40_11 H24_11 1_555 1_555
O35_7 C10_12 1_555 1_555
O36 C10_12 1_555 1_555
C9_12 O28_6 1_555 1_555
C10_12 C21_12 1_555 1_555
C20_12 C9_12 1_555 1_555
C21_12 C38_12 1_555 1_555
C37_12 C20_12 1_555 1_555
C38_12 C37_12 1_555 1_555
C39_12 C21_12 1_555 1_555
C40_12 C20_12 1_555 1_555
O27 C9_12 1_555 1_555
C39_12 C40_12 1_555 1_555
C39_12 H5_12 1_555 1_555
C38_12 H18_12 1_555 1_555
C37_12 H23_12 1_555 1_555
C40_12 H24_12 1_555 1_555

#END
