
###############################################################################
#
# This file contains modified crystal structure data generated from the
# MOF subset of the Cambridge Structural Database (CSD) v543 
# hosted by the Cambridge Crystallographic Data Centre (CCDC).
#
# This work is licensed under the Creative Commons
# Attribution-NonCommercial-ShareAlike 4.0 International License.
# To view a copy of this license, visit
# http://creativecommons.org/licenses/by-nc-sa/4.0/
# or send a letter to
# Creative Commons, PO Box 1866, Mountain View, CA 94042, USA.
#
# CIF created using the CSD Python API on 29 September 2022
# The structure has been converted into the P1 space group
# The structure has a 3D framework
# The original CSD entry RUBTAK is in the cubic crystal system
# The framework has been calculated to contain at least 10.0% void space
# The void calculation uses a probe of radius 1.32A, grid spacing 0.4
# H atom positions have been added when not included in the experimental data
#
###############################################################################

data_RUBTAK
_chemical_formula_moiety         '(C288 H144 O156 Zr28)n'
_symmetry_cell_setting           triclinic
_symmetry_space_group_name_H-M   'P 1'
_symmetry_Int_Tables_number      1
_space_group_name_Hall           'P 1'
loop_
_symmetry_equiv_pos_site_id
_symmetry_equiv_pos_as_xyz
1 x,y,z
_cell_length_a                   20.7004(2)
_cell_length_b                   20.7004(2)
_cell_length_c                   20.7004(2)
_cell_angle_alpha                90
_cell_angle_beta                 90
_cell_angle_gamma                90
_cell_volume                     8870.26
loop_
_atom_site_label
_atom_site_type_symbol
_atom_site_fract_x
_atom_site_fract_y
_atom_site_fract_z
_atom_site_U_iso_or_equiv
_atom_site_thermal_displace_type
Zr1 Zr 0.11989(5) 0.0000 0.0000 1.2900 Uiso
O1 O 0.17047(8) 0.0000 0.0953(1) 1.9000 Uiso
C1 C 0.1536(1) 0.0000 0.1536(1) 5.4000 Uiso
C2 C 0.2050(2) 0.0000 0.2050(2) 5.4000 Uiso
C3 C 0.2675(1) 0.0000 0.1844(1) 5.4000 Uiso
Zr2 Zr 0.0000 0.0000 0.11989(5) 1.2900 Uiso
Zr3 Zr 0.5000 0.0000 0.38011(5) 1.2900 Uiso
Zr4 Zr 0.38011(5) 0.0000 0.5000 1.2900 Uiso
Zr11 Zr 0.0000 0.11989(5) 0.0000 1.2900 Uiso
Zr12 Zr 0.5000 0.38011(5) 0.0000 1.2900 Uiso
Zr13 Zr 0.38011(5) 0.5000 0.0000 1.2900 Uiso
Zr17 Zr 0.0000 0.38011(5) 0.5000 1.2900 Uiso
Zr18 Zr 0.0000 0.5000 0.38011(5) 1.2900 Uiso
Zr19 Zr 0.5000 0.11989(5) 0.5000 1.2900 Uiso
Zr20 Zr 0.61989(5) 0.0000 0.5000 1.2900 Uiso
O3 O 0.0953(1) 0.0000 0.17047(8) 1.9000 Uiso
O4 O 0.4047(1) 0.0000 0.32953(8) 1.9000 Uiso
O5 O 0.32953(8) 0.0000 0.4047(1) 1.9000 Uiso
O14 O 0.17047(8) 0.0953(1) 0.0000 1.9000 Uiso
O15 O 0.0953(1) 0.17047(8) 0.0000 1.9000 Uiso
O16 O 0.4047(1) 0.32953(8) 0.0000 1.9000 Uiso
O17 O 0.32953(8) 0.4047(1) 0.0000 1.9000 Uiso
O22 O 0.0000 0.0953(1) 0.17047(8) 1.9000 Uiso
O23 O 0.0000 0.17047(8) 0.0953(1) 1.9000 Uiso
O24 O 0.0000 0.32953(8) 0.4047(1) 1.9000 Uiso
O25 O 0.0000 0.4047(1) 0.32953(8) 1.9000 Uiso
O27 O 0.5953(1) 0.0000 0.32953(8) 1.9000 Uiso
O28 O 0.5000 0.0953(1) 0.32953(8) 1.9000 Uiso
O30 O 0.32953(8) 0.0000 0.5953(1) 1.9000 Uiso
O32 O 0.32953(8) 0.0953(1) 0.5000 1.9000 Uiso
O40 O 0.0561(1) 0.0561(1) 0.0561(1) 0.4000 Uiso
O44 O 0.5561(1) 0.0561(1) 0.4439(1) 0.4000 Uiso
O47 O 0.4439(1) 0.0561(1) 0.4439(1) 0.4000 Uiso
O49 O 0.4439(1) 0.0561(1) 0.5561(1) 0.4000 Uiso
C4 C 0.3464(1) 0.0000 0.3464(1) 5.4000 Uiso
C9 C 0.1536(1) 0.1536(1) 0.0000 5.4000 Uiso
C10 C 0.3464(1) 0.3464(1) 0.0000 5.4000 Uiso
C13 C 0.0000 0.1536(1) 0.1536(1) 5.4000 Uiso
C14 C 0.0000 0.3464(1) 0.3464(1) 5.4000 Uiso
C15 C 0.2950(2) 0.0000 0.2950(2) 5.4000 Uiso
C20 C 0.2050(2) 0.2050(2) 0.0000 5.4000 Uiso
C21 C 0.2950(2) 0.2950(2) 0.0000 5.4000 Uiso
C24 C 0.0000 0.2050(2) 0.2050(2) 5.4000 Uiso
C25 C 0.0000 0.2950(2) 0.2950(2) 5.4000 Uiso
C26 C 0.3156(1) 0.0000 0.2325(1) 5.4000 Uiso
C27 C 0.2325(1) 0.0000 0.3156(1) 5.4000 Uiso
C28 C 0.1844(1) 0.0000 0.2675(1) 5.4000 Uiso
C37 C 0.2675(1) 0.1844(1) 0.0000 5.4000 Uiso
C38 C 0.3156(1) 0.2325(1) 0.0000 5.4000 Uiso
C39 C 0.2325(1) 0.3156(1) 0.0000 5.4000 Uiso
C40 C 0.1844(1) 0.2675(1) 0.0000 5.4000 Uiso
C45 C 0.0000 0.1844(1) 0.2675(1) 5.4000 Uiso
C46 C 0.0000 0.2325(1) 0.3156(1) 5.4000 Uiso
C47 C 0.0000 0.3156(1) 0.2325(1) 5.4000 Uiso
C48 C 0.0000 0.2675(1) 0.1844(1) 5.4000 Uiso
H1 H 0.279673 1.54074e-33 0.13322 . .
H4 H 0.279673 0.13322 0 . .
H5 H 0.13322 9.24446e-33 0.279673 . .
H6 H 0.220327 0.36678 0 . .
H7 H 0.13322 0.279673 0 . .
H9 H 0.36678 4.62223e-33 0.220327 . .
H13 H 0.36678 0.220327 0 . .
H14 H 0.220327 9.24446e-33 0.36678 . .
H19 H 1.84889e-32 0.220327 0.36678 . .
H20 H 2.00297e-32 0.36678 0.220327 . .
H22 H 1.2326e-32 0.279673 0.13322 . .
H23 H 9.24446e-33 0.13322 0.279673 . .
Zr1_2 Zr 0.11989(5) 0.0000 1.0000 1.2900 Uiso
Zr5 Zr 0.0000 0.0000 0.88011(5) 1.2900 Uiso
Zr6 Zr 0.5000 0.0000 0.61989(5) 1.2900 Uiso
Zr11_2 Zr 0.0000 0.11989(5) 1.0000 1.2900 Uiso
Zr12_2 Zr 0.5000 0.38011(5) 1.0000 1.2900 Uiso
Zr13_2 Zr 0.38011(5) 0.5000 1.0000 1.2900 Uiso
O6 O 0.17047(8) 0.0000 0.9047(1) 1.9000 Uiso
O7 O 0.0953(1) 0.0000 0.82953(8) 1.9000 Uiso
O8 O 0.4047(1) 0.0000 0.67047(8) 1.9000 Uiso
O14_2 O 0.17047(8) 0.0953(1) 1.0000 1.9000 Uiso
O15_2 O 0.0953(1) 0.17047(8) 1.0000 1.9000 Uiso
O16_2 O 0.4047(1) 0.32953(8) 1.0000 1.9000 Uiso
O17_2 O 0.32953(8) 0.4047(1) 1.0000 1.9000 Uiso
O35 O 0.0000 0.0953(1) 0.82953(8) 1.9000 Uiso
O36 O 0.5953(1) 0.0000 0.67047(8) 1.9000 Uiso
O38 O 0.5000 0.0953(1) 0.67047(8) 1.9000 Uiso
O39 O 0.0561(1) 0.0561(1) 0.9439(1) 0.4000 Uiso
O53 O 0.5561(1) 0.0561(1) 0.5561(1) 0.4000 Uiso
C5 C 0.1536(1) 0.0000 0.8464(1) 5.4000 Uiso
C6 C 0.3464(1) 0.0000 0.6536(1) 5.4000 Uiso
C9_2 C 0.1536(1) 0.1536(1) 1.0000 5.4000 Uiso
C10_2 C 0.3464(1) 0.3464(1) 1.0000 5.4000 Uiso
C16 C 0.2050(2) 0.0000 0.7950(2) 5.4000 Uiso
C17 C 0.2950(2) 0.0000 0.7050(2) 5.4000 Uiso
C20_2 C 0.2050(2) 0.2050(2) 1.0000 5.4000 Uiso
C21_2 C 0.2950(2) 0.2950(2) 1.0000 5.4000 Uiso
C29 C 0.2675(1) 0.0000 0.8156(1) 5.4000 Uiso
C30 C 0.3156(1) 0.0000 0.7675(1) 5.4000 Uiso
C31 C 0.2325(1) 0.0000 0.6844(1) 5.4000 Uiso
C32 C 0.1844(1) 0.0000 0.7325(1) 5.4000 Uiso
C37_2 C 0.2675(1) 0.1844(1) 1.0000 5.4000 Uiso
C38_2 C 0.3156(1) 0.2325(1) 1.0000 5.4000 Uiso
C39_2 C 0.2325(1) 0.3156(1) 1.0000 5.4000 Uiso
C40_2 C 0.1844(1) 0.2675(1) 1.0000 5.4000 Uiso
H4_2 H 0.279673 0.13322 1 . .
H6_2 H 0.220327 0.36678 1 . .
H7_2 H 0.13322 0.279673 1 . .
H8 H 0.13322 1.2326e-32 0.720327 . .
H11 H 0.36678 6.16298e-33 0.779673 . .
H13_2 H 0.36678 0.220327 1 . .
H15 H 0.220327 0 0.63322 . .
H16 H 0.279673 1.84889e-32 0.86678 . .
Zr1_3 Zr 0.11989(5) 1.0000 0.0000 1.2900 Uiso
O1_2 O 0.17047(8) 1.0000 0.0953(1) 1.9000 Uiso
C1_2 C 0.1536(1) 1.0000 0.1536(1) 5.4000 Uiso
C2_2 C 0.2050(2) 1.0000 0.2050(2) 5.4000 Uiso
C3_2 C 0.2675(1) 1.0000 0.1844(1) 5.4000 Uiso
Zr2_2 Zr 0.0000 1.0000 0.11989(5) 1.2900 Uiso
Zr3_2 Zr 0.5000 1.0000 0.38011(5) 1.2900 Uiso
Zr4_2 Zr 0.38011(5) 1.0000 0.5000 1.2900 Uiso
Zr7 Zr 0.0000 0.88011(5) 0.0000 1.2900 Uiso
Zr9 Zr 0.5000 0.61989(5) 0.0000 1.2900 Uiso
Zr20_2 Zr 0.61989(5) 1.0000 0.5000 1.2900 Uiso
Zr21 Zr 0.5000 0.88011(5) 0.5000 1.2900 Uiso
O3_2 O 0.0953(1) 1.0000 0.17047(8) 1.9000 Uiso
O4_2 O 0.4047(1) 1.0000 0.32953(8) 1.9000 Uiso
O5_2 O 0.32953(8) 1.0000 0.4047(1) 1.9000 Uiso
O10 O 0.17047(8) 0.9047(1) 0.0000 1.9000 Uiso
O11 O 0.0953(1) 0.82953(8) 0.0000 1.9000 Uiso
O12 O 0.4047(1) 0.67047(8) 0.0000 1.9000 Uiso
O13 O 0.32953(8) 0.5953(1) 0.0000 1.9000 Uiso
O26 O 0.0000 0.9047(1) 0.17047(8) 1.9000 Uiso
O27_2 O 0.5953(1) 1.0000 0.32953(8) 1.9000 Uiso
O29 O 0.5000 0.9047(1) 0.32953(8) 1.9000 Uiso
O30_2 O 0.32953(8) 1.0000 0.5953(1) 1.9000 Uiso
O31 O 0.32953(8) 0.9047(1) 0.5000 1.9000 Uiso
O41 O 0.0561(1) 0.9439(1) 0.0561(1) 0.4000 Uiso
O45 O 0.5561(1) 0.9439(1) 0.4439(1) 0.4000 Uiso
O46 O 0.4439(1) 0.9439(1) 0.4439(1) 0.4000 Uiso
O48 O 0.4439(1) 0.9439(1) 0.5561(1) 0.4000 Uiso
C4_2 C 0.3464(1) 1.0000 0.3464(1) 5.4000 Uiso
C7 C 0.1536(1) 0.8464(1) 0.0000 5.4000 Uiso
C8 C 0.3464(1) 0.6536(1) 0.0000 5.4000 Uiso
C15_2 C 0.2950(2) 1.0000 0.2950(2) 5.4000 Uiso
C18 C 0.2050(2) 0.7950(2) 0.0000 5.4000 Uiso
C19 C 0.2950(2) 0.7050(2) 0.0000 5.4000 Uiso
C26_2 C 0.3156(1) 1.0000 0.2325(1) 5.4000 Uiso
C27_2 C 0.2325(1) 1.0000 0.3156(1) 5.4000 Uiso
C28_2 C 0.1844(1) 1.0000 0.2675(1) 5.4000 Uiso
C33 C 0.2675(1) 0.8156(1) 0.0000 5.4000 Uiso
C34 C 0.3156(1) 0.7675(1) 0.0000 5.4000 Uiso
C35 C 0.2325(1) 0.6844(1) 0.0000 5.4000 Uiso
C36 C 0.1844(1) 0.7325(1) 0.0000 5.4000 Uiso
H1_2 H 0.279673 1 0.13322 . .
H2 H 0.220327 0.63322 0 . .
H3 H 0.13322 0.720327 0 . .
H5_2 H 0.13322 1 0.279673 . .
H9_2 H 0.36678 1 0.220327 . .
H10 H 0.279673 0.86678 0 . .
H12 H 0.36678 0.779673 0 . .
H14_2 H 0.220327 1 0.36678 . .
Zr1_4 Zr 0.11989(5) 1.0000 1.0000 1.2900 Uiso
O2 O 0.0561(1) 0.9439(1) 0.9439(1) 0.4000 Uiso
Zr5_2 Zr 0.0000 1.0000 0.88011(5) 1.2900 Uiso
Zr6_2 Zr 0.5000 1.0000 0.61989(5) 1.2900 Uiso
Zr7_2 Zr 0.0000 0.88011(5) 1.0000 1.2900 Uiso
Zr9_2 Zr 0.5000 0.61989(5) 1.0000 1.2900 Uiso
O6_2 O 0.17047(8) 1.0000 0.9047(1) 1.9000 Uiso
O7_2 O 0.0953(1) 1.0000 0.82953(8) 1.9000 Uiso
O8_2 O 0.4047(1) 1.0000 0.67047(8) 1.9000 Uiso
O10_2 O 0.17047(8) 0.9047(1) 1.0000 1.9000 Uiso
O11_2 O 0.0953(1) 0.82953(8) 1.0000 1.9000 Uiso
O12_2 O 0.4047(1) 0.67047(8) 1.0000 1.9000 Uiso
O13_2 O 0.32953(8) 0.5953(1) 1.0000 1.9000 Uiso
O34 O 0.0000 0.9047(1) 0.82953(8) 1.9000 Uiso
O36_2 O 0.5953(1) 1.0000 0.67047(8) 1.9000 Uiso
O37 O 0.5000 0.9047(1) 0.67047(8) 1.9000 Uiso
O52 O 0.5561(1) 0.9439(1) 0.5561(1) 0.4000 Uiso
C5_2 C 0.1536(1) 1.0000 0.8464(1) 5.4000 Uiso
C6_2 C 0.3464(1) 1.0000 0.6536(1) 5.4000 Uiso
C7_2 C 0.1536(1) 0.8464(1) 1.0000 5.4000 Uiso
C8_2 C 0.3464(1) 0.6536(1) 1.0000 5.4000 Uiso
C16_2 C 0.2050(2) 1.0000 0.7950(2) 5.4000 Uiso
C17_2 C 0.2950(2) 1.0000 0.7050(2) 5.4000 Uiso
C18_2 C 0.2050(2) 0.7950(2) 1.0000 5.4000 Uiso
C19_2 C 0.2950(2) 0.7050(2) 1.0000 5.4000 Uiso
C29_2 C 0.2675(1) 1.0000 0.8156(1) 5.4000 Uiso
C30_2 C 0.3156(1) 1.0000 0.7675(1) 5.4000 Uiso
C31_2 C 0.2325(1) 1.0000 0.6844(1) 5.4000 Uiso
C32_2 C 0.1844(1) 1.0000 0.7325(1) 5.4000 Uiso
C33_2 C 0.2675(1) 0.8156(1) 1.0000 5.4000 Uiso
C34_2 C 0.3156(1) 0.7675(1) 1.0000 5.4000 Uiso
C35_2 C 0.2325(1) 0.6844(1) 1.0000 5.4000 Uiso
C36_2 C 0.1844(1) 0.7325(1) 1.0000 5.4000 Uiso
H2_2 H 0.220327 0.63322 1 . .
H3_2 H 0.13322 0.720327 1 . .
H8_2 H 0.13322 1 0.720327 . .
H10_2 H 0.279673 0.86678 1 . .
H11_2 H 0.36678 1 0.779673 . .
H12_2 H 0.36678 0.779673 1 . .
H15_2 H 0.220327 1 0.63322 . .
H16_2 H 0.279673 1 0.86678 . .
Zr2_3 Zr 1.0000 0.0000 0.11989(5) 1.2900 Uiso
Zr11_3 Zr 1.0000 0.11989(5) 0.0000 1.2900 Uiso
Zr14 Zr 0.88011(5) 0.0000 0.0000 1.2900 Uiso
Zr17_2 Zr 1.0000 0.38011(5) 0.5000 1.2900 Uiso
Zr18_2 Zr 1.0000 0.5000 0.38011(5) 1.2900 Uiso
O18 O 0.9047(1) 0.0000 0.17047(8) 1.9000 Uiso
O19 O 0.82953(8) 0.0000 0.0953(1) 1.9000 Uiso
O20 O 0.67047(8) 0.0000 0.4047(1) 1.9000 Uiso
O22_2 O 1.0000 0.0953(1) 0.17047(8) 1.9000 Uiso
O23_2 O 1.0000 0.17047(8) 0.0953(1) 1.9000 Uiso
O24_2 O 1.0000 0.32953(8) 0.4047(1) 1.9000 Uiso
O25_2 O 1.0000 0.4047(1) 0.32953(8) 1.9000 Uiso
O42 O 0.9439(1) 0.0561(1) 0.0561(1) 0.4000 Uiso
C11 C 0.8464(1) 0.0000 0.1536(1) 5.4000 Uiso
C12 C 0.6536(1) 0.0000 0.3464(1) 5.4000 Uiso
C13_2 C 1.0000 0.1536(1) 0.1536(1) 5.4000 Uiso
C14_2 C 1.0000 0.3464(1) 0.3464(1) 5.4000 Uiso
C22 C 0.7950(2) 0.0000 0.2050(2) 5.4000 Uiso
C23 C 0.7050(2) 0.0000 0.2950(2) 5.4000 Uiso
C24_2 C 1.0000 0.2050(2) 0.2050(2) 5.4000 Uiso
C25_2 C 1.0000 0.2950(2) 0.2950(2) 5.4000 Uiso
C41 C 0.8156(1) 0.0000 0.2675(1) 5.4000 Uiso
C42 C 0.7675(1) 0.0000 0.3156(1) 5.4000 Uiso
C43 C 0.6844(1) 0.0000 0.2325(1) 5.4000 Uiso
C44 C 0.7325(1) 0.0000 0.1844(1) 5.4000 Uiso
C45_2 C 1.0000 0.1844(1) 0.2675(1) 5.4000 Uiso
C46_2 C 1.0000 0.2325(1) 0.3156(1) 5.4000 Uiso
C47_2 C 1.0000 0.3156(1) 0.2325(1) 5.4000 Uiso
C48_2 C 1.0000 0.2675(1) 0.1844(1) 5.4000 Uiso
H17 H 0.63322 4.62223e-33 0.220327 . .
H18 H 0.720327 1.54074e-33 0.13322 . .
H19_2 H 1 0.220327 0.36678 . .
H20_2 H 1 0.36678 0.220327 . .
H21 H 0.779673 9.24446e-33 0.36678 . .
H22_2 H 1 0.279673 0.13322 . .
H23_2 H 1 0.13322 0.279673 . .
H24 H 0.86678 9.24446e-33 0.279673 . .
Zr5_3 Zr 1.0000 0.0000 0.88011(5) 1.2900 Uiso
Zr11_4 Zr 1.0000 0.11989(5) 1.0000 1.2900 Uiso
Zr14_2 Zr 0.88011(5) 0.0000 1.0000 1.2900 Uiso
O33 O 0.9047(1) 0.0000 0.82953(8) 1.9000 Uiso
O35_2 O 1.0000 0.0953(1) 0.82953(8) 1.9000 Uiso
O51 O 0.9439(1) 0.0561(1) 0.9439(1) 0.4000 Uiso
Zr2_4 Zr 1.0000 1.0000 0.11989(5) 1.2900 Uiso
Zr7_3 Zr 1.0000 0.88011(5) 0.0000 1.2900 Uiso
Zr14_3 Zr 0.88011(5) 1.0000 0.0000 1.2900 Uiso
O18_2 O 0.9047(1) 1.0000 0.17047(8) 1.9000 Uiso
O19_2 O 0.82953(8) 1.0000 0.0953(1) 1.9000 Uiso
O20_2 O 0.67047(8) 1.0000 0.4047(1) 1.9000 Uiso
O26_2 O 1.0000 0.9047(1) 0.17047(8) 1.9000 Uiso
O43 O 0.9439(1) 0.9439(1) 0.0561(1) 0.4000 Uiso
C11_2 C 0.8464(1) 1.0000 0.1536(1) 5.4000 Uiso
C12_2 C 0.6536(1) 1.0000 0.3464(1) 5.4000 Uiso
C22_2 C 0.7950(2) 1.0000 0.2050(2) 5.4000 Uiso
C23_2 C 0.7050(2) 1.0000 0.2950(2) 5.4000 Uiso
C41_2 C 0.8156(1) 1.0000 0.2675(1) 5.4000 Uiso
C42_2 C 0.7675(1) 1.0000 0.3156(1) 5.4000 Uiso
C43_2 C 0.6844(1) 1.0000 0.2325(1) 5.4000 Uiso
C44_2 C 0.7325(1) 1.0000 0.1844(1) 5.4000 Uiso
H17_2 H 0.63322 1 0.220327 . .
H18_2 H 0.720327 1 0.13322 . .
H21_2 H 0.779673 1 0.36678 . .
H24_2 H 0.86678 1 0.279673 . .
Zr5_4 Zr 1.0000 1.0000 0.88011(5) 1.2900 Uiso
Zr7_4 Zr 1.0000 0.88011(5) 1.0000 1.2900 Uiso
Zr14_4 Zr 0.88011(5) 1.0000 1.0000 1.2900 Uiso
O33_2 O 0.9047(1) 1.0000 0.82953(8) 1.9000 Uiso
O34_2 O 1.0000 0.9047(1) 0.82953(8) 1.9000 Uiso
O50 O 0.9439(1) 0.9439(1) 0.9439(1) 0.4000 Uiso
Zr20_3 Zr 0.0000 0.61989(5) 0.5000 1.2900 Uiso
Zr21_2 Zr 0.11989(5) 0.5000 0.5000 1.2900 Uiso
O27_3 O 0.0000 0.5953(1) 0.32953(8) 1.9000 Uiso
O29_2 O 0.0953(1) 0.5000 0.32953(8) 1.9000 Uiso
O30_3 O 0.0000 0.32953(8) 0.5953(1) 1.9000 Uiso
O31_2 O 0.0953(1) 0.32953(8) 0.5000 1.9000 Uiso
O45_2 O 0.0561(1) 0.5561(1) 0.4439(1) 0.4000 Uiso
O46_2 O 0.0561(1) 0.4439(1) 0.4439(1) 0.4000 Uiso
O48_2 O 0.0561(1) 0.4439(1) 0.5561(1) 0.4000 Uiso
Zr6_3 Zr 0.0000 0.5000 0.61989(5) 1.2900 Uiso
O6_3 O 0.0000 0.17047(8) 0.9047(1) 1.9000 Uiso
O8_3 O 0.0000 0.4047(1) 0.67047(8) 1.9000 Uiso
O36_3 O 0.0000 0.5953(1) 0.67047(8) 1.9000 Uiso
O37_2 O 0.0953(1) 0.5000 0.67047(8) 1.9000 Uiso
O52_2 O 0.0561(1) 0.5561(1) 0.5561(1) 0.4000 Uiso
C5_3 C 0.0000 0.1536(1) 0.8464(1) 5.4000 Uiso
C6_3 C 0.0000 0.3464(1) 0.6536(1) 5.4000 Uiso
C16_3 C 0.0000 0.2050(2) 0.7950(2) 5.4000 Uiso
C17_3 C 0.0000 0.2950(2) 0.7050(2) 5.4000 Uiso
C29_3 C 0.0000 0.2675(1) 0.8156(1) 5.4000 Uiso
C30_3 C 0.0000 0.3156(1) 0.7675(1) 5.4000 Uiso
C31_3 C 0.0000 0.2325(1) 0.6844(1) 5.4000 Uiso
C32_3 C 0.0000 0.1844(1) 0.7325(1) 5.4000 Uiso
H8_3 H 2.46519e-32 0.13322 0.720327 . .
H11_3 H 1.2326e-32 0.36678 0.779673 . .
H15_3 H 1.84889e-32 0.220327 0.63322 . .
H16_3 H 3.08149e-32 0.279673 0.86678 . .
O19_3 O 0.0000 0.82953(8) 0.0953(1) 1.9000 Uiso
O20_3 O 0.0000 0.67047(8) 0.4047(1) 1.9000 Uiso
C11_3 C 0.0000 0.8464(1) 0.1536(1) 5.4000 Uiso
C12_3 C 0.0000 0.6536(1) 0.3464(1) 5.4000 Uiso
C22_3 C 0.0000 0.7950(2) 0.2050(2) 5.4000 Uiso
C23_3 C 0.0000 0.7050(2) 0.2950(2) 5.4000 Uiso
C41_3 C 0.0000 0.8156(1) 0.2675(1) 5.4000 Uiso
C42_3 C -0.0000 0.7675(1) 0.3156(1) 5.4000 Uiso
C43_3 C 0.0000 0.6844(1) 0.2325(1) 5.4000 Uiso
C44_3 C 0.0000 0.7325(1) 0.1844(1) 5.4000 Uiso
H17_3 H 4.62223e-33 0.63322 0.220327 . .
H18_3 H 9.24446e-33 0.720327 0.13322 . .
H21_3 H 0 0.779673 0.36678 . .
H24_3 H 2.77334e-32 0.86678 0.279673 . .
Zr12_3 Zr 0.61989(5) 0.5000 0.0000 1.2900 Uiso
Zr19_2 Zr 0.88011(5) 0.5000 0.5000 1.2900 Uiso
Zr20_4 Zr 1.0000 0.61989(5) 0.5000 1.2900 Uiso
O14_3 O 0.9047(1) 0.17047(8) 0.0000 1.9000 Uiso
O15_3 O 0.82953(8) 0.0953(1) 0.0000 1.9000 Uiso
O16_3 O 0.67047(8) 0.4047(1) 0.0000 1.9000 Uiso
O17_3 O 0.5953(1) 0.32953(8) 0.0000 1.9000 Uiso
O27_4 O 1.0000 0.5953(1) 0.32953(8) 1.9000 Uiso
O28_2 O 0.9047(1) 0.5000 0.32953(8) 1.9000 Uiso
O30_4 O 1.0000 0.32953(8) 0.5953(1) 1.9000 Uiso
O32_2 O 0.9047(1) 0.32953(8) 0.5000 1.9000 Uiso
O44_2 O 0.9439(1) 0.5561(1) 0.4439(1) 0.4000 Uiso
O47_2 O 0.9439(1) 0.4439(1) 0.4439(1) 0.4000 Uiso
O49_2 O 0.9439(1) 0.4439(1) 0.5561(1) 0.4000 Uiso
C9_3 C 0.8464(1) 0.1536(1) 0.0000 5.4000 Uiso
C10_3 C 0.6536(1) 0.3464(1) 0.0000 5.4000 Uiso
C20_3 C 0.7950(2) 0.2050(2) 0.0000 5.4000 Uiso
C21_3 C 0.7050(2) 0.2950(2) 0.0000 5.4000 Uiso
C37_3 C 0.8156(1) 0.2675(1) 0.0000 5.4000 Uiso
C38_3 C 0.7675(1) 0.3156(1) 0.0000 5.4000 Uiso
C39_3 C 0.6844(1) 0.2325(1) 0.0000 5.4000 Uiso
C40_3 C 0.7325(1) 0.1844(1) 0.0000 5.4000 Uiso
H4_3 H 0.86678 0.279673 0 . .
H6_3 H 0.63322 0.220327 0 . .
H7_3 H 0.720327 0.13322 0 . .
H13_3 H 0.779673 0.36678 0 . .
Zr6_4 Zr 1.0000 0.5000 0.61989(5) 1.2900 Uiso
Zr12_4 Zr 0.61989(5) 0.5000 1.0000 1.2900 Uiso
O6_4 O 1.0000 0.17047(8) 0.9047(1) 1.9000 Uiso
O8_4 O 1.0000 0.4047(1) 0.67047(8) 1.9000 Uiso
O14_4 O 0.9047(1) 0.17047(8) 1.0000 1.9000 Uiso
O15_4 O 0.82953(8) 0.0953(1) 1.0000 1.9000 Uiso
O16_4 O 0.67047(8) 0.4047(1) 1.0000 1.9000 Uiso
O17_4 O 0.5953(1) 0.32953(8) 1.0000 1.9000 Uiso
O36_4 O 1.0000 0.5953(1) 0.67047(8) 1.9000 Uiso
O38_2 O 0.9047(1) 0.5000 0.67047(8) 1.9000 Uiso
O53_2 O 0.9439(1) 0.5561(1) 0.5561(1) 0.4000 Uiso
C5_4 C 1.0000 0.1536(1) 0.8464(1) 5.4000 Uiso
C6_4 C 1.0000 0.3464(1) 0.6536(1) 5.4000 Uiso
C9_4 C 0.8464(1) 0.1536(1) 1.0000 5.4000 Uiso
C10_4 C 0.6536(1) 0.3464(1) 1.0000 5.4000 Uiso
C16_4 C 1.0000 0.2050(2) 0.7950(2) 5.4000 Uiso
C17_4 C 1.0000 0.2950(2) 0.7050(2) 5.4000 Uiso
C20_4 C 0.7950(2) 0.2050(2) 1.0000 5.4000 Uiso
C21_4 C 0.7050(2) 0.2950(2) 1.0000 5.4000 Uiso
C29_4 C 1.0000 0.2675(1) 0.8156(1) 5.4000 Uiso
C30_4 C 1.0000 0.3156(1) 0.7675(1) 5.4000 Uiso
C31_4 C 1.0000 0.2325(1) 0.6844(1) 5.4000 Uiso
C32_4 C 1.0000 0.1844(1) 0.7325(1) 5.4000 Uiso
C37_4 C 0.8156(1) 0.2675(1) 1.0000 5.4000 Uiso
C38_4 C 0.7675(1) 0.3156(1) 1.0000 5.4000 Uiso
C39_4 C 0.6844(1) 0.2325(1) 1.0000 5.4000 Uiso
C40_4 C 0.7325(1) 0.1844(1) 1.0000 5.4000 Uiso
H4_4 H 0.86678 0.279673 1 . .
H6_4 H 0.63322 0.220327 1 . .
H7_4 H 0.720327 0.13322 1 . .
H8_4 H 1 0.13322 0.720327 . .
H11_4 H 1 0.36678 0.779673 . .
H13_4 H 0.779673 0.36678 1 . .
H15_4 H 1 0.220327 0.63322 . .
H16_4 H 1 0.279673 0.86678 . .
O19_4 O 1.0000 0.82953(8) 0.0953(1) 1.9000 Uiso
O20_4 O 1.0000 0.67047(8) 0.4047(1) 1.9000 Uiso
C11_4 C 1.0000 0.8464(1) 0.1536(1) 5.4000 Uiso
C12_4 C 1.0000 0.6536(1) 0.3464(1) 5.4000 Uiso
C22_4 C 1.0000 0.7950(2) 0.2050(2) 5.4000 Uiso
C23_4 C 1.0000 0.7050(2) 0.2950(2) 5.4000 Uiso
C41_4 C 1.0000 0.8156(1) 0.2675(1) 5.4000 Uiso
C42_4 C 1.0000 0.7675(1) 0.3156(1) 5.4000 Uiso
C43_4 C 1.0000 0.6844(1) 0.2325(1) 5.4000 Uiso
C44_4 C 1.0000 0.7325(1) 0.1844(1) 5.4000 Uiso
H17_4 H 1 0.63322 0.220327 . .
H18_4 H 1 0.720327 0.13322 . .
H21_4 H 1 0.779673 0.36678 . .
H24_4 H 1 0.86678 0.279673 . .
O23_3 O 0.0000 0.82953(8) 0.9047(1) 1.9000 Uiso
O24_3 O 0.0000 0.67047(8) 0.5953(1) 1.9000 Uiso
C13_3 C 0.0000 0.8464(1) 0.8464(1) 5.4000 Uiso
C14_3 C 0.0000 0.6536(1) 0.6536(1) 5.4000 Uiso
C24_3 C 0.0000 0.7950(2) 0.7950(2) 5.4000 Uiso
C25_3 C 0.0000 0.7050(2) 0.7050(2) 5.4000 Uiso
C45_3 C 0.0000 0.8156(1) 0.7325(1) 5.4000 Uiso
C46_3 C 0.0000 0.7675(1) 0.6844(1) 5.4000 Uiso
C47_3 C 0.0000 0.6844(1) 0.7675(1) 5.4000 Uiso
C48_3 C 0.0000 0.7325(1) 0.8156(1) 5.4000 Uiso
H19_3 H 3.69779e-32 0.779673 0.63322 . .
H20_3 H 2.46519e-32 0.63322 0.779673 . .
H22_3 H 2.46519e-32 0.720327 0.86678 . .
H23_3 H 3.08149e-32 0.86678 0.720327 . .
O19_5 O 0.82953(8) 0.0000 0.9047(1) 1.9000 Uiso
O20_5 O 0.67047(8) 0.0000 0.5953(1) 1.9000 Uiso
C11_5 C 0.8464(1) 0.0000 0.8464(1) 5.4000 Uiso
C12_5 C 0.6536(1) 0.0000 0.6536(1) 5.4000 Uiso
C22_5 C 0.7950(2) 0.0000 0.7950(2) 5.4000 Uiso
C23_5 C 0.7050(2) 0.0000 0.7050(2) 5.4000 Uiso
C41_5 C 0.8156(1) 0.0000 0.7325(1) 5.4000 Uiso
C42_5 C 0.7675(1) 0.0000 0.6844(1) 5.4000 Uiso
C43_5 C 0.6844(1) 0.0000 0.7675(1) 5.4000 Uiso
C44_5 C 0.7325(1) 0.0000 0.8156(1) 5.4000 Uiso
H17_5 H 0.63322 6.16298e-33 0.779673 . .
H18_5 H 0.720327 1.84889e-32 0.86678 . .
H21_5 H 0.779673 0 0.63322 . .
H24_5 H 0.86678 1.2326e-32 0.720327 . .
O19_6 O 0.82953(8) 1.0000 0.9047(1) 1.9000 Uiso
O20_6 O 0.67047(8) 1.0000 0.5953(1) 1.9000 Uiso
O23_4 O 1.0000 0.82953(8) 0.9047(1) 1.9000 Uiso
O24_4 O 1.0000 0.67047(8) 0.5953(1) 1.9000 Uiso
C11_6 C 0.8464(1) 1.0000 0.8464(1) 5.4000 Uiso
C12_6 C 0.6536(1) 1.0000 0.6536(1) 5.4000 Uiso
C13_4 C 1.0000 0.8464(1) 0.8464(1) 5.4000 Uiso
C14_4 C 1.0000 0.6536(1) 0.6536(1) 5.4000 Uiso
C22_6 C 0.7950(2) 1.0000 0.7950(2) 5.4000 Uiso
C23_6 C 0.7050(2) 1.0000 0.7050(2) 5.4000 Uiso
C24_4 C 1.0000 0.7950(2) 0.7950(2) 5.4000 Uiso
C25_4 C 1.0000 0.7050(2) 0.7050(2) 5.4000 Uiso
C41_6 C 0.8156(1) 1.0000 0.7325(1) 5.4000 Uiso
C42_6 C 0.7675(1) 1.0000 0.6844(1) 5.4000 Uiso
C43_6 C 0.6844(1) 1.0000 0.7675(1) 5.4000 Uiso
C44_6 C 0.7325(1) 1.0000 0.8156(1) 5.4000 Uiso
C45_4 C 1.0000 0.8156(1) 0.7325(1) 5.4000 Uiso
C46_4 C 1.0000 0.7675(1) 0.6844(1) 5.4000 Uiso
C47_4 C 1.0000 0.6844(1) 0.7675(1) 5.4000 Uiso
C48_4 C 1.0000 0.7325(1) 0.8156(1) 5.4000 Uiso
H17_6 H 0.63322 1 0.779673 . .
H18_6 H 0.720327 1 0.86678 . .
H19_4 H 1 0.779673 0.63322 . .
H20_4 H 1 0.63322 0.779673 . .
H21_6 H 0.779673 1 0.63322 . .
H22_4 H 1 0.720327 0.86678 . .
H23_4 H 1 0.86678 0.720327 . .
H24_6 H 0.86678 1 0.720327 . .
Zr19_3 Zr 0.5000 0.5000 0.11989(5) 1.2900 Uiso
O28_3 O 0.32953(8) 0.5000 0.0953(1) 1.9000 Uiso
O32_3 O 0.5000 0.32953(8) 0.0953(1) 1.9000 Uiso
O44_3 O 0.4439(1) 0.5561(1) 0.0561(1) 0.4000 Uiso
O47_3 O 0.4439(1) 0.4439(1) 0.0561(1) 0.4000 Uiso
O49_3 O 0.5561(1) 0.4439(1) 0.0561(1) 0.4000 Uiso
Zr21_3 Zr 0.5000 0.5000 0.88011(5) 1.2900 Uiso
O29_3 O 0.32953(8) 0.5000 0.9047(1) 1.9000 Uiso
O31_3 O 0.5000 0.32953(8) 0.9047(1) 1.9000 Uiso
O45_3 O 0.4439(1) 0.5561(1) 0.9439(1) 0.4000 Uiso
O46_3 O 0.4439(1) 0.4439(1) 0.9439(1) 0.4000 Uiso
O48_3 O 0.5561(1) 0.4439(1) 0.9439(1) 0.4000 Uiso
O36_5 O 0.67047(8) 0.5953(1) -0.0000 1.9000 Uiso
O38_3 O 0.67047(8) 0.5000 0.0953(1) 1.9000 Uiso
O53_3 O 0.5561(1) 0.5561(1) 0.0561(1) 0.4000 Uiso
O36_6 O 0.67047(8) 0.5953(1) 1.0000 1.9000 Uiso
O37_3 O 0.67047(8) 0.5000 0.9047(1) 1.9000 Uiso
O52_3 O 0.5561(1) 0.5561(1) 0.9439(1) 0.4000 Uiso
O33_3 O 0.82953(8) 0.9047(1) -0.0000 1.9000 Uiso
O33_4 O 0.82953(8) 0.9047(1) 1.0000 1.9000 Uiso
O31_4 O 0.67047(8) 0.0953(1) 0.5000 1.9000 Uiso
O15_5 O 0.9047(1) 0.82953(8) 0.0000 1.9000 Uiso
O16_5 O 0.5953(1) 0.67047(8) 0.0000 1.9000 Uiso
O32_4 O 0.67047(8) 0.9047(1) 0.5000 1.9000 Uiso
C9_5 C 0.8464(1) 0.8464(1) 0.0000 5.4000 Uiso
C10_5 C 0.6536(1) 0.6536(1) 0.0000 5.4000 Uiso
C20_5 C 0.7950(2) 0.7950(2) 0.0000 5.4000 Uiso
C21_5 C 0.7050(2) 0.7050(2) 0.0000 5.4000 Uiso
C37_5 C 0.7325(1) 0.8156(1) 0.0000 5.4000 Uiso
C38_5 C 0.6844(1) 0.7675(1) 0.0000 5.4000 Uiso
C39_5 C 0.7675(1) 0.6844(1) 0.0000 5.4000 Uiso
C40_5 C 0.8156(1) 0.7325(1) 0.0000 5.4000 Uiso
H4_5 H 0.720327 0.86678 0 . .
H6_5 H 0.779673 0.63322 0 . .
H7_5 H 0.86678 0.720327 0 . .
H13_5 H 0.63322 0.779673 0 . .
O15_6 O 0.9047(1) 0.82953(8) 1.0000 1.9000 Uiso
O16_6 O 0.5953(1) 0.67047(8) 1.0000 1.9000 Uiso
C9_6 C 0.8464(1) 0.8464(1) 1.0000 5.4000 Uiso
C10_6 C 0.6536(1) 0.6536(1) 1.0000 5.4000 Uiso
C20_6 C 0.7950(2) 0.7950(2) 1.0000 5.4000 Uiso
C21_6 C 0.7050(2) 0.7050(2) 1.0000 5.4000 Uiso
C37_6 C 0.7325(1) 0.8156(1) 1.0000 5.4000 Uiso
C38_6 C 0.6844(1) 0.7675(1) 1.0000 5.4000 Uiso
C39_6 C 0.7675(1) 0.6844(1) 1.0000 5.4000 Uiso
C40_6 C 0.8156(1) 0.7325(1) 1.0000 5.4000 Uiso
H4_6 H 0.720327 0.86678 1 . .
H6_6 H 0.779673 0.63322 1 . .
H7_6 H 0.86678 0.720327 1 . .
H13_6 H 0.63322 0.779673 1 . .
O38_4 O 0.5000 0.67047(8) 0.0953(1) 1.9000 Uiso
O37_4 O 0.5000 0.67047(8) 0.9047(1) 1.9000 Uiso
O32_5 O 0.0953(1) 0.67047(8) 0.5000 1.9000 Uiso
O31_5 O 0.9047(1) 0.67047(8) 0.5000 1.9000 Uiso
O1_3 O 0.17047(8) 0.5000 0.5953(1) 1.9000 Uiso
C1_3 C 0.1536(1) 0.5000 0.6536(1) 5.4000 Uiso
C2_3 C 0.2050(2) 0.5000 0.7050(2) 5.4000 Uiso
C3_3 C 0.2675(1) 0.5000 0.6844(1) 5.4000 Uiso
O4_3 O 0.4047(1) 0.5000 0.82953(8) 1.9000 Uiso
O6_5 O 0.17047(8) 0.5000 0.4047(1) 1.9000 Uiso
O8_5 O 0.4047(1) 0.5000 0.17047(8) 1.9000 Uiso
O10_3 O 0.17047(8) 0.4047(1) 0.5000 1.9000 Uiso
O12_3 O 0.4047(1) 0.17047(8) 0.5000 1.9000 Uiso
O14_5 O 0.17047(8) 0.5953(1) 0.5000 1.9000 Uiso
O16_7 O 0.4047(1) 0.82953(8) 0.5000 1.9000 Uiso
O27_5 O 0.5953(1) 0.5000 0.82953(8) 1.9000 Uiso
O28_4 O 0.5000 0.5953(1) 0.82953(8) 1.9000 Uiso
O29_4 O 0.5000 0.4047(1) 0.82953(8) 1.9000 Uiso
O36_7 O 0.5953(1) 0.5000 0.17047(8) 1.9000 Uiso
O37_5 O 0.5000 0.4047(1) 0.17047(8) 1.9000 Uiso
O38_5 O 0.5000 0.5953(1) 0.17047(8) 1.9000 Uiso
C4_3 C 0.3464(1) 0.5000 0.8464(1) 5.4000 Uiso
C5_5 C 0.1536(1) 0.5000 0.3464(1) 5.4000 Uiso
C6_5 C 0.3464(1) 0.5000 0.1536(1) 5.4000 Uiso
C7_3 C 0.1536(1) 0.3464(1) 0.5000 5.4000 Uiso
C8_3 C 0.3464(1) 0.1536(1) 0.5000 5.4000 Uiso
C9_7 C 0.1536(1) 0.6536(1) 0.5000 5.4000 Uiso
C10_7 C 0.3464(1) 0.8464(1) 0.5000 5.4000 Uiso
C15_3 C 0.2950(2) 0.5000 0.7950(2) 5.4000 Uiso
C16_5 C 0.2050(2) 0.5000 0.2950(2) 5.4000 Uiso
C17_5 C 0.2950(2) 0.5000 0.2050(2) 5.4000 Uiso
C18_3 C 0.2050(2) 0.2950(2) 0.5000 5.4000 Uiso
C19_3 C 0.2950(2) 0.2050(2) 0.5000 5.4000 Uiso
C20_7 C 0.2050(2) 0.7050(2) 0.5000 5.4000 Uiso
C21_7 C 0.2950(2) 0.7950(2) 0.5000 5.4000 Uiso
C26_3 C 0.3156(1) 0.5000 0.7325(1) 5.4000 Uiso
C27_3 C 0.2325(1) 0.5000 0.8156(1) 5.4000 Uiso
C28_3 C 0.1844(1) 0.5000 0.7675(1) 5.4000 Uiso
C29_5 C 0.2675(1) 0.5000 0.3156(1) 5.4000 Uiso
C30_5 C 0.3156(1) 0.5000 0.2675(1) 5.4000 Uiso
C31_5 C 0.2325(1) 0.5000 0.1844(1) 5.4000 Uiso
C32_5 C 0.1844(1) 0.5000 0.2325(1) 5.4000 Uiso
C33_3 C 0.2675(1) 0.3156(1) 0.5000 5.4000 Uiso
C34_3 C 0.3156(1) 0.2675(1) 0.5000 5.4000 Uiso
C35_3 C 0.2325(1) 0.1844(1) 0.5000 5.4000 Uiso
C36_3 C 0.1844(1) 0.2325(1) 0.5000 5.4000 Uiso
C37_7 C 0.2675(1) 0.6844(1) 0.5000 5.4000 Uiso
C38_7 C 0.3156(1) 0.7325(1) 0.5000 5.4000 Uiso
C39_7 C 0.2325(1) 0.8156(1) 0.5000 5.4000 Uiso
C40_7 C 0.1844(1) 0.7675(1) 0.5000 5.4000 Uiso
H1_3 H 0.279673 0.5 0.63322 . .
H2_3 H 0.220327 0.13322 0.5 . .
H3_3 H 0.13322 0.220327 0.5 . .
H4_7 H 0.279673 0.63322 0.5 . .
H5_3 H 0.13322 0.5 0.779673 . .
H6_7 H 0.220327 0.86678 0.5 . .
H7_7 H 0.13322 0.779673 0.5 . .
H8_5 H 0.13322 0.5 0.220327 . .
H9_3 H 0.36678 0.5 0.720327 . .
H10_3 H 0.279673 0.36678 0.5 . .
H11_5 H 0.36678 0.5 0.279673 . .
H12_3 H 0.36678 0.279673 0.5 . .
H13_7 H 0.36678 0.720327 0.5 . .
H14_3 H 0.220327 0.5 0.86678 . .
H15_5 H 0.220327 0.5 0.13322 . .
H16_5 H 0.279673 0.5 0.36678 . .
O19_7 O 0.82953(8) 0.5000 0.5953(1) 1.9000 Uiso
C11_7 C 0.8464(1) 0.5000 0.6536(1) 5.4000 Uiso
C12_7 C 0.6536(1) 0.5000 0.8464(1) 5.4000 Uiso
C22_7 C 0.7950(2) 0.5000 0.7050(2) 5.4000 Uiso
C23_7 C 0.7050(2) 0.5000 0.7950(2) 5.4000 Uiso
C41_7 C 0.8156(1) 0.5000 0.7675(1) 5.4000 Uiso
C42_7 C 0.7675(1) 0.5000 0.8156(1) 5.4000 Uiso
C43_7 C 0.6844(1) 0.5000 0.7325(1) 5.4000 Uiso
C44_7 C 0.7325(1) 0.5000 0.6844(1) 5.4000 Uiso
H17_7 H 0.63322 0.5 0.720327 . .
H18_7 H 0.720327 0.5 0.63322 . .
H21_7 H 0.779673 0.5 0.86678 . .
H24_7 H 0.86678 0.5 0.779673 . .
O15_7 O 0.82953(8) 0.5953(1) 0.5000 1.9000 Uiso
O17_5 O 0.5953(1) 0.82953(8) 0.5000 1.9000 Uiso
C9_8 C 0.8464(1) 0.6536(1) 0.5000 5.4000 Uiso
C10_8 C 0.6536(1) 0.8464(1) 0.5000 5.4000 Uiso
C20_8 C 0.7950(2) 0.7050(2) 0.5000 5.4000 Uiso
C21_8 C 0.7050(2) 0.7950(2) 0.5000 5.4000 Uiso
C37_8 C 0.8156(1) 0.7675(1) 0.5000 5.4000 Uiso
C38_8 C 0.7675(1) 0.8156(1) 0.5000 5.4000 Uiso
C39_8 C 0.6844(1) 0.7325(1) 0.5000 5.4000 Uiso
C40_8 C 0.7325(1) 0.6844(1) 0.5000 5.4000 Uiso
H4_8 H 0.86678 0.779673 0.5 . .
H6_8 H 0.63322 0.720327 0.5 . .
H7_8 H 0.720327 0.63322 0.5 . .
H13_8 H 0.779673 0.86678 0.5 . .
O19_8 O 0.82953(8) 0.5000 0.4047(1) 1.9000 Uiso
C11_8 C 0.8464(1) 0.5000 0.3464(1) 5.4000 Uiso
C12_8 C 0.6536(1) 0.5000 0.1536(1) 5.4000 Uiso
C22_8 C 0.7950(2) 0.5000 0.2950(2) 5.4000 Uiso
C23_8 C 0.7050(2) 0.5000 0.2050(2) 5.4000 Uiso
C41_8 C 0.8156(1) 0.5000 0.2325(1) 5.4000 Uiso
C42_8 C 0.7675(1) 0.5000 0.1844(1) 5.4000 Uiso
C43_8 C 0.6844(1) 0.5000 0.2675(1) 5.4000 Uiso
C44_8 C 0.7325(1) 0.5000 0.3156(1) 5.4000 Uiso
H17_8 H 0.63322 0.5 0.279673 . .
H18_8 H 0.720327 0.5 0.36678 . .
H21_8 H 0.779673 0.5 0.13322 . .
H24_8 H 0.86678 0.5 0.220327 . .
O31_6 O 0.5000 0.82953(8) 0.4047(1) 1.9000 Uiso
O32_6 O 0.5000 0.82953(8) 0.5953(1) 1.9000 Uiso
O33_5 O 0.82953(8) 0.4047(1) 0.5000 1.9000 Uiso
O16_8 O 0.5953(1) 0.17047(8) 0.5000 1.9000 Uiso
C9_9 C 0.8464(1) 0.3464(1) 0.5000 5.4000 Uiso
C10_9 C 0.6536(1) 0.1536(1) 0.5000 5.4000 Uiso
C20_9 C 0.7950(2) 0.2950(2) 0.5000 5.4000 Uiso
C21_9 C 0.7050(2) 0.2050(2) 0.5000 5.4000 Uiso
C37_9 C 0.7325(1) 0.3156(1) 0.5000 5.4000 Uiso
C38_9 C 0.6844(1) 0.2675(1) 0.5000 5.4000 Uiso
C39_9 C 0.7675(1) 0.1844(1) 0.5000 5.4000 Uiso
C40_9 C 0.8156(1) 0.2325(1) 0.5000 5.4000 Uiso
H4_9 H 0.720327 0.36678 0.5 . .
H6_9 H 0.779673 0.13322 0.5 . .
H7_9 H 0.86678 0.220327 0.5 . .
H13_9 H 0.63322 0.279673 0.5 . .
O37_6 O 0.5000 0.17047(8) 0.4047(1) 1.9000 Uiso
O38_6 O 0.5000 0.17047(8) 0.5953(1) 1.9000 Uiso
C13_5 C 0.5000 0.1536(1) 0.6536(1) 5.4000 Uiso
C14_5 C 0.5000 0.3464(1) 0.8464(1) 5.4000 Uiso
C24_5 C 0.5000 0.2050(2) 0.7050(2) 5.4000 Uiso
C25_5 C 0.5000 0.2950(2) 0.7950(2) 5.4000 Uiso
C45_5 C 0.5000 0.1844(1) 0.7675(1) 5.4000 Uiso
C46_5 C 0.5000 0.2325(1) 0.8156(1) 5.4000 Uiso
C47_5 C 0.5000 0.3156(1) 0.7325(1) 5.4000 Uiso
C48_5 C 0.5000 0.2675(1) 0.6844(1) 5.4000 Uiso
H19_5 H 0.5 0.220327 0.86678 . .
H20_5 H 0.5 0.36678 0.720327 . .
H22_5 H 0.5 0.279673 0.63322 . .
H23_5 H 0.5 0.13322 0.779673 . .
C5_6 C 0.5000 0.1536(1) 0.3464(1) 5.4000 Uiso
C6_6 C 0.5000 0.3464(1) 0.1536(1) 5.4000 Uiso
C16_6 C 0.5000 0.2050(2) 0.2950(2) 5.4000 Uiso
C17_6 C 0.5000 0.2950(2) 0.2050(2) 5.4000 Uiso
C29_6 C 0.5000 0.2675(1) 0.3156(1) 5.4000 Uiso
C30_6 C 0.5000 0.3156(1) 0.2675(1) 5.4000 Uiso
C31_6 C 0.5000 0.2325(1) 0.1844(1) 5.4000 Uiso
C32_6 C 0.5000 0.1844(1) 0.2325(1) 5.4000 Uiso
H8_6 H 0.5 0.13322 0.220327 . .
H11_6 H 0.5 0.36678 0.279673 . .
H15_6 H 0.5 0.220327 0.13322 . .
H16_6 H 0.5 0.279673 0.36678 . .
C11_9 C 0.5000 0.8464(1) 0.6536(1) 5.4000 Uiso
C12_9 C 0.5000 0.6536(1) 0.8464(1) 5.4000 Uiso
C22_9 C 0.5000 0.7950(2) 0.7050(2) 5.4000 Uiso
C23_9 C 0.5000 0.7050(2) 0.7950(2) 5.4000 Uiso
C41_9 C 0.5000 0.8156(1) 0.7675(1) 5.4000 Uiso
C42_9 C 0.5000 0.7675(1) 0.8156(1) 5.4000 Uiso
C43_9 C 0.5000 0.6844(1) 0.7325(1) 5.4000 Uiso
C44_9 C 0.5000 0.7325(1) 0.6844(1) 5.4000 Uiso
H17_9 H 0.5 0.63322 0.720327 . .
H18_9 H 0.5 0.720327 0.63322 . .
H21_9 H 0.5 0.779673 0.86678 . .
H24_9 H 0.5 0.86678 0.779673 . .
C13_6 C 0.5000 0.8464(1) 0.3464(1) 5.4000 Uiso
C14_6 C 0.5000 0.6536(1) 0.1536(1) 5.4000 Uiso
C24_6 C 0.5000 0.7950(2) 0.2950(2) 5.4000 Uiso
C25_6 C 0.5000 0.7050(2) 0.2050(2) 5.4000 Uiso
C45_6 C 0.5000 0.8156(1) 0.2325(1) 5.4000 Uiso
C46_6 C 0.5000 0.7675(1) 0.1844(1) 5.4000 Uiso
C47_6 C 0.5000 0.6844(1) 0.2675(1) 5.4000 Uiso
C48_6 C 0.5000 0.7325(1) 0.3156(1) 5.4000 Uiso
H19_6 H 0.5 0.779673 0.13322 . .
H20_6 H 0.5 0.63322 0.279673 . .
H22_6 H 0.5 0.720327 0.36678 . .
H23_6 H 0.5 0.86678 0.220327 . .
loop_
_geom_bond_atom_site_label_1
_geom_bond_atom_site_label_2
_geom_bond_site_symmetry_1
_geom_bond_site_symmetry_2
Zr1 O1 1_555 1_555
O1 C1 1_555 1_555
C1 C2 1_555 1_555
C2 C3 1_555 1_555
C3 C26 1_555 1_555
Zr2 O3 1_555 1_555
Zr3 O4 1_555 1_555
Zr4 O5 1_555 1_555
Zr11 O15 1_555 1_555
Zr12 O16 1_555 1_555
Zr13 O17 1_555 1_555
Zr17 O24 1_555 1_555
Zr18 O25 1_555 1_555
Zr19 O44 1_555 1_555
Zr20 O44 1_555 1_555
O3 C1 1_555 1_555
O4 C4 1_555 1_555
O5 C4 1_555 1_555
O14 Zr1 1_555 1_555
O15 C9 1_555 1_555
O16 C10 1_555 1_555
O17 C10 1_555 1_555
O22 Zr2 1_555 1_555
O23 Zr11 1_555 1_555
O24 C14 1_555 1_555
O25 C14 1_555 1_555
O27 Zr3 1_555 1_555
O28 Zr3 1_555 1_555
O30 Zr4 1_555 1_555
O32 Zr4 1_555 1_555
O40 Zr1 1_555 1_555
O44 Zr3 1_555 1_555
O47 Zr3 1_555 1_555
O49 Zr4 1_555 1_555
C4 C15 1_555 1_555
C9 O14 1_555 1_555
C10 C21 1_555 1_555
C13 O22 1_555 1_555
C14 C25 1_555 1_555
C15 C26 1_555 1_555
C20 C9 1_555 1_555
C21 C38 1_555 1_555
C24 C13 1_555 1_555
C25 C46 1_555 1_555
C27 C15 1_555 1_555
C28 C2 1_555 1_555
C37 C20 1_555 1_555
C38 C37 1_555 1_555
C39 C21 1_555 1_555
C40 C20 1_555 1_555
C45 C24 1_555 1_555
C46 C45 1_555 1_555
C47 C25 1_555 1_555
C48 C24 1_555 1_555
Zr2 O40 1_555 1_555
Zr4 O47 1_555 1_555
Zr11 O40 1_555 1_555
Zr19 O47 1_555 1_555
Zr19 O49 1_555 1_555
O23 C13 1_555 1_555
C27 C28 1_555 1_555
C39 C40 1_555 1_555
C47 C48 1_555 1_555
C3 H1 1_555 1_555
C37 H4 1_555 1_555
C28 H5 1_555 1_555
C39 H6 1_555 1_555
C40 H7 1_555 1_555
C26 H9 1_555 1_555
C38 H13 1_555 1_555
C27 H14 1_555 1_555
C46 H19 1_555 1_555
C47 H20 1_555 1_555
C48 H22 1_555 1_555
C45 H23 1_555 1_555
Zr6 O8 1_555 1_555
Zr11_2 O15_2 1_555 1_555
Zr12_2 O16_2 1_555 1_555
Zr13_2 O17_2 1_555 1_555
O6 Zr1_2 1_555 1_555
O7 Zr5 1_555 1_555
O8 C6 1_555 1_555
O30 C6 1_555 1_555
O14_2 Zr1_2 1_555 1_555
O15_2 C9_2 1_555 1_555
O16_2 C10_2 1_555 1_555
O17_2 C10_2 1_555 1_555
O35 Zr5 1_555 1_555
O36 Zr6 1_555 1_555
O38 Zr6 1_555 1_555
O39 Zr1_2 1_555 1_555
O53 Zr6 1_555 1_555
O49 Zr6 1_555 1_555
C5 O6 1_555 1_555
C6 C17 1_555 1_555
C9_2 O14_2 1_555 1_555
C10_2 C21_2 1_555 1_555
C16 C5 1_555 1_555
C17 C30 1_555 1_555
C20_2 C9_2 1_555 1_555
C21_2 C38_2 1_555 1_555
C29 C16 1_555 1_555
C30 C29 1_555 1_555
C31 C17 1_555 1_555
C32 C16 1_555 1_555
C37_2 C20_2 1_555 1_555
C38_2 C37_2 1_555 1_555
C39_2 C21_2 1_555 1_555
C40_2 C20_2 1_555 1_555
Zr5 O39 1_555 1_555
Zr11_2 O39 1_555 1_555
O7 C5 1_555 1_555
C31 C32 1_555 1_555
C39_2 C40_2 1_555 1_555
C37_2 H4_2 1_555 1_555
C39_2 H6_2 1_555 1_555
C40_2 H7_2 1_555 1_555
C32 H8 1_555 1_555
C30 H11 1_555 1_555
C38_2 H13_2 1_555 1_555
C31 H15 1_555 1_555
C29 H16 1_555 1_555
Zr1_3 O1_2 1_555 1_555
O1_2 C1_2 1_555 1_555
C1_2 C2_2 1_555 1_555
C2_2 C3_2 1_555 1_555
C3_2 C26_2 1_555 1_555
Zr2_2 O3_2 1_555 1_555
Zr3_2 O4_2 1_555 1_555
Zr4_2 O5_2 1_555 1_555
Zr9 O12 1_555 1_555
Zr13 O13 1_555 1_555
Zr21 O45 1_555 1_555
O3_2 C1_2 1_555 1_555
O4_2 C4_2 1_555 1_555
O5_2 C4_2 1_555 1_555
O10 Zr1_3 1_555 1_555
O11 Zr7 1_555 1_555
O12 C8 1_555 1_555
O13 C8 1_555 1_555
O26 Zr2_2 1_555 1_555
O27_2 Zr3_2 1_555 1_555
O29 Zr3_2 1_555 1_555
O30_2 Zr4_2 1_555 1_555
O31 Zr4_2 1_555 1_555
O41 Zr1_3 1_555 1_555
O45 Zr3_2 1_555 1_555
O46 Zr3_2 1_555 1_555
O48 Zr4_2 1_555 1_555
C4_2 C15_2 1_555 1_555
C7 O10 1_555 1_555
C8 C19 1_555 1_555
C15_2 C26_2 1_555 1_555
C18 C7 1_555 1_555
C19 C34 1_555 1_555
C27_2 C15_2 1_555 1_555
C28_2 C2_2 1_555 1_555
C33 C18 1_555 1_555
C34 C33 1_555 1_555
C35 C19 1_555 1_555
C36 C18 1_555 1_555
Zr2_2 O41 1_555 1_555
Zr4_2 O46 1_555 1_555
Zr7 O41 1_555 1_555
Zr20_2 O45 1_555 1_555
Zr21 O46 1_555 1_555
Zr21 O48 1_555 1_555
O11 C7 1_555 1_555
C27_2 C28_2 1_555 1_555
C35 C36 1_555 1_555
C3_2 H1_2 1_555 1_555
C35 H2 1_555 1_555
C36 H3 1_555 1_555
C28_2 H5_2 1_555 1_555
C26_2 H9_2 1_555 1_555
C33 H10 1_555 1_555
C34 H12 1_555 1_555
C27_2 H14_2 1_555 1_555
O2 Zr1_4 1_555 1_555
Zr5_2 O2 1_555 1_555
Zr6_2 O8_2 1_555 1_555
Zr7_2 O2 1_555 1_555
Zr9_2 O12_2 1_555 1_555
Zr13_2 O13_2 1_555 1_555
O6_2 Zr1_4 1_555 1_555
O7_2 Zr5_2 1_555 1_555
O8_2 C6_2 1_555 1_555
O30_2 C6_2 1_555 1_555
O10_2 Zr1_4 1_555 1_555
O11_2 Zr7_2 1_555 1_555
O12_2 C8_2 1_555 1_555
O13_2 C8_2 1_555 1_555
O34 Zr5_2 1_555 1_555
O36_2 Zr6_2 1_555 1_555
O37 Zr6_2 1_555 1_555
O52 Zr6_2 1_555 1_555
O48 Zr6_2 1_555 1_555
C5_2 O6_2 1_555 1_555
C6_2 C17_2 1_555 1_555
C7_2 O10_2 1_555 1_555
C8_2 C19_2 1_555 1_555
C16_2 C5_2 1_555 1_555
C17_2 C30_2 1_555 1_555
C18_2 C7_2 1_555 1_555
C19_2 C34_2 1_555 1_555
C29_2 C16_2 1_555 1_555
C30_2 C29_2 1_555 1_555
C31_2 C17_2 1_555 1_555
C32_2 C16_2 1_555 1_555
C33_2 C18_2 1_555 1_555
C34_2 C33_2 1_555 1_555
C35_2 C19_2 1_555 1_555
C36_2 C18_2 1_555 1_555
O7_2 C5_2 1_555 1_555
O11_2 C7_2 1_555 1_555
C31_2 C32_2 1_555 1_555
C35_2 C36_2 1_555 1_555
C35_2 H2_2 1_555 1_555
C36_2 H3_2 1_555 1_555
C32_2 H8_2 1_555 1_555
C33_2 H10_2 1_555 1_555
C30_2 H11_2 1_555 1_555
C34_2 H12_2 1_555 1_555
C31_2 H15_2 1_555 1_555
C29_2 H16_2 1_555 1_555
Zr14 O19 1_555 1_555
Zr20 O20 1_555 1_555
Zr17_2 O24_2 1_555 1_555
Zr18_2 O25_2 1_555 1_555
O18 Zr2_3 1_555 1_555
O19 C11 1_555 1_555
O20 C12 1_555 1_555
O27 C12 1_555 1_555
O22_2 Zr2_3 1_555 1_555
O23_2 Zr11_3 1_555 1_555
O24_2 C14_2 1_555 1_555
O25_2 C14_2 1_555 1_555
O42 Zr2_3 1_555 1_555
C11 O18 1_555 1_555
C12 C23 1_555 1_555
C13_2 O22_2 1_555 1_555
C14_2 C25_2 1_555 1_555
C22 C11 1_555 1_555
C23 C42 1_555 1_555
C24_2 C13_2 1_555 1_555
C25_2 C46_2 1_555 1_555
C41 C22 1_555 1_555
C42 C41 1_555 1_555
C43 C23 1_555 1_555
C44 C22 1_555 1_555
C45_2 C24_2 1_555 1_555
C46_2 C45_2 1_555 1_555
C47_2 C25_2 1_555 1_555
C48_2 C24_2 1_555 1_555
Zr11_3 O42 1_555 1_555
Zr14 O42 1_555 1_555
O23_2 C13_2 1_555 1_555
C43 C44 1_555 1_555
C47_2 C48_2 1_555 1_555
C43 H17 1_555 1_555
C44 H18 1_555 1_555
C46_2 H19_2 1_555 1_555
C47_2 H20_2 1_555 1_555
C42 H21 1_555 1_555
C48_2 H22_2 1_555 1_555
C45_2 H23_2 1_555 1_555
C41 H24 1_555 1_555
O33 Zr5_3 1_555 1_555
O35_2 Zr5_3 1_555 1_555
O51 Zr5_3 1_555 1_555
Zr11_4 O51 1_555 1_555
Zr14_2 O51 1_555 1_555
Zr14_3 O19_2 1_555 1_555
Zr20_2 O20_2 1_555 1_555
O18_2 Zr2_4 1_555 1_555
O19_2 C11_2 1_555 1_555
O20_2 C12_2 1_555 1_555
O27_2 C12_2 1_555 1_555
O26_2 Zr2_4 1_555 1_555
O43 Zr2_4 1_555 1_555
C11_2 O18_2 1_555 1_555
C12_2 C23_2 1_555 1_555
C22_2 C11_2 1_555 1_555
C23_2 C42_2 1_555 1_555
C41_2 C22_2 1_555 1_555
C42_2 C41_2 1_555 1_555
C43_2 C23_2 1_555 1_555
C44_2 C22_2 1_555 1_555
Zr7_3 O43 1_555 1_555
Zr14_3 O43 1_555 1_555
C43_2 C44_2 1_555 1_555
C43_2 H17_2 1_555 1_555
C44_2 H18_2 1_555 1_555
C42_2 H21_2 1_555 1_555
C41_2 H24_2 1_555 1_555
O33_2 Zr5_4 1_555 1_555
O34_2 Zr5_4 1_555 1_555
O50 Zr5_4 1_555 1_555
Zr7_4 O50 1_555 1_555
Zr14_4 O50 1_555 1_555
Zr21_2 O45_2 1_555 1_555
O27_3 Zr18 1_555 1_555
O29_2 Zr18 1_555 1_555
O30_3 Zr17 1_555 1_555
O31_2 Zr17 1_555 1_555
O45_2 Zr18 1_555 1_555
O46_2 Zr18 1_555 1_555
O48_2 Zr17 1_555 1_555
Zr17 O46_2 1_555 1_555
Zr20_3 O45_2 1_555 1_555
Zr21_2 O46_2 1_555 1_555
Zr21_2 O48_2 1_555 1_555
Zr6_3 O8_3 1_555 1_555
O6_3 Zr11_2 1_555 1_555
O8_3 C6_3 1_555 1_555
O30_3 C6_3 1_555 1_555
O36_3 Zr6_3 1_555 1_555
O37_2 Zr6_3 1_555 1_555
O52_2 Zr6_3 1_555 1_555
O48_2 Zr6_3 1_555 1_555
C5_3 O6_3 1_555 1_555
C6_3 C17_3 1_555 1_555
C16_3 C5_3 1_555 1_555
C17_3 C30_3 1_555 1_555
C29_3 C16_3 1_555 1_555
C30_3 C29_3 1_555 1_555
C31_3 C17_3 1_555 1_555
C32_3 C16_3 1_555 1_555
O35 C5_3 1_555 1_555
C31_3 C32_3 1_555 1_555
C32_3 H8_3 1_555 1_555
C30_3 H11_3 1_555 1_555
C31_3 H15_3 1_555 1_555
C29_3 H16_3 1_555 1_555
Zr7 O19_3 1_555 1_555
Zr20_3 O20_3 1_555 1_555
O19_3 C11_3 1_555 1_555
O20_3 C12_3 1_555 1_555
O27_3 C12_3 1_555 1_555
C11_3 O26 1_555 1_555
C12_3 C23_3 1_555 1_555
C22_3 C11_3 1_555 1_555
C23_3 C42_3 1_555 1_555
C41_3 C22_3 1_555 1_555
C42_3 C41_3 1_555 1_555
C43_3 C23_3 1_555 1_555
C44_3 C22_3 1_555 1_555
C43_3 C44_3 1_555 1_555
C43_3 H17_3 1_555 1_555
C44_3 H18_3 1_555 1_555
C42_3 H21_3 1_555 1_555
C41_3 H24_3 1_555 1_555
Zr14 O15_3 1_555 1_555
Zr12_3 O16_3 1_555 1_555
Zr12 O17_3 1_555 1_555
Zr19_2 O44_2 1_555 1_555
Zr20_4 O44_2 1_555 1_555
O14_3 Zr11_3 1_555 1_555
O15_3 C9_3 1_555 1_555
O16_3 C10_3 1_555 1_555
O17_3 C10_3 1_555 1_555
O27_4 Zr18_2 1_555 1_555
O28_2 Zr18_2 1_555 1_555
O30_4 Zr17_2 1_555 1_555
O32_2 Zr17_2 1_555 1_555
O44_2 Zr18_2 1_555 1_555
O47_2 Zr18_2 1_555 1_555
O49_2 Zr17_2 1_555 1_555
C9_3 O14_3 1_555 1_555
C10_3 C21_3 1_555 1_555
C20_3 C9_3 1_555 1_555
C21_3 C38_3 1_555 1_555
C37_3 C20_3 1_555 1_555
C38_3 C37_3 1_555 1_555
C39_3 C21_3 1_555 1_555
C40_3 C20_3 1_555 1_555
Zr17_2 O47_2 1_555 1_555
Zr19_2 O47_2 1_555 1_555
Zr19_2 O49_2 1_555 1_555
C39_3 C40_3 1_555 1_555
C37_3 H4_3 1_555 1_555
C39_3 H6_3 1_555 1_555
C40_3 H7_3 1_555 1_555
C38_3 H13_3 1_555 1_555
Zr6_4 O8_4 1_555 1_555
Zr14_2 O15_4 1_555 1_555
Zr12_4 O16_4 1_555 1_555
Zr12_2 O17_4 1_555 1_555
O6_4 Zr11_4 1_555 1_555
O8_4 C6_4 1_555 1_555
O30_4 C6_4 1_555 1_555
O14_4 Zr11_4 1_555 1_555
O15_4 C9_4 1_555 1_555
O16_4 C10_4 1_555 1_555
O17_4 C10_4 1_555 1_555
O36_4 Zr6_4 1_555 1_555
O38_2 Zr6_4 1_555 1_555
O53_2 Zr6_4 1_555 1_555
O49_2 Zr6_4 1_555 1_555
C5_4 O6_4 1_555 1_555
C6_4 C17_4 1_555 1_555
C9_4 O14_4 1_555 1_555
C10_4 C21_4 1_555 1_555
C16_4 C5_4 1_555 1_555
C17_4 C30_4 1_555 1_555
C20_4 C9_4 1_555 1_555
C21_4 C38_4 1_555 1_555
C29_4 C16_4 1_555 1_555
C30_4 C29_4 1_555 1_555
C31_4 C17_4 1_555 1_555
C32_4 C16_4 1_555 1_555
C37_4 C20_4 1_555 1_555
C38_4 C37_4 1_555 1_555
C39_4 C21_4 1_555 1_555
C40_4 C20_4 1_555 1_555
O35_2 C5_4 1_555 1_555
C31_4 C32_4 1_555 1_555
C39_4 C40_4 1_555 1_555
C37_4 H4_4 1_555 1_555
C39_4 H6_4 1_555 1_555
C40_4 H7_4 1_555 1_555
C32_4 H8_4 1_555 1_555
C30_4 H11_4 1_555 1_555
C38_4 H13_4 1_555 1_555
C31_4 H15_4 1_555 1_555
C29_4 H16_4 1_555 1_555
Zr7_3 O19_4 1_555 1_555
Zr20_4 O20_4 1_555 1_555
O19_4 C11_4 1_555 1_555
O20_4 C12_4 1_555 1_555
O27_4 C12_4 1_555 1_555
C11_4 O26_2 1_555 1_555
C12_4 C23_4 1_555 1_555
C22_4 C11_4 1_555 1_555
C23_4 C42_4 1_555 1_555
C41_4 C22_4 1_555 1_555
C42_4 C41_4 1_555 1_555
C43_4 C23_4 1_555 1_555
C44_4 C22_4 1_555 1_555
C43_4 C44_4 1_555 1_555
C43_4 H17_4 1_555 1_555
C44_4 H18_4 1_555 1_555
C42_4 H21_4 1_555 1_555
C41_4 H24_4 1_555 1_555
Zr19 O53 1_555 1_555
Zr20 O53 1_555 1_555
Zr20_3 O24_3 1_555 1_555
Zr21 O52 1_555 1_555
Zr20_2 O52 1_555 1_555
O23_3 Zr7_2 1_555 1_555
O24_3 C14_3 1_555 1_555
O36_3 C14_3 1_555 1_555
C13_3 O34 1_555 1_555
C14_3 C25_3 1_555 1_555
C24_3 C13_3 1_555 1_555
C25_3 C46_3 1_555 1_555
C45_3 C24_3 1_555 1_555
C46_3 C45_3 1_555 1_555
C47_3 C25_3 1_555 1_555
C48_3 C24_3 1_555 1_555
O23_3 C13_3 1_555 1_555
C47_3 C48_3 1_555 1_555
C46_3 H19_3 1_555 1_555
C47_3 H20_3 1_555 1_555
C48_3 H22_3 1_555 1_555
C45_3 H23_3 1_555 1_555
Zr14_2 O19_5 1_555 1_555
Zr20 O20_5 1_555 1_555
O19_5 C11_5 1_555 1_555
O20_5 C12_5 1_555 1_555
O36 C12_5 1_555 1_555
C11_5 O33 1_555 1_555
C12_5 C23_5 1_555 1_555
C22_5 C11_5 1_555 1_555
C23_5 C42_5 1_555 1_555
C41_5 C22_5 1_555 1_555
C42_5 C41_5 1_555 1_555
C43_5 C23_5 1_555 1_555
C44_5 C22_5 1_555 1_555
C43_5 C44_5 1_555 1_555
C43_5 H17_5 1_555 1_555
C44_5 H18_5 1_555 1_555
C42_5 H21_5 1_555 1_555
C41_5 H24_5 1_555 1_555
Zr14_4 O19_6 1_555 1_555
Zr20_2 O20_6 1_555 1_555
Zr20_4 O24_4 1_555 1_555
O19_6 C11_6 1_555 1_555
O20_6 C12_6 1_555 1_555
O36_2 C12_6 1_555 1_555
O23_4 Zr7_4 1_555 1_555
O24_4 C14_4 1_555 1_555
O36_4 C14_4 1_555 1_555
C11_6 O33_2 1_555 1_555
C12_6 C23_6 1_555 1_555
C13_4 O34_2 1_555 1_555
C14_4 C25_4 1_555 1_555
C22_6 C11_6 1_555 1_555
C23_6 C42_6 1_555 1_555
C24_4 C13_4 1_555 1_555
C25_4 C46_4 1_555 1_555
C41_6 C22_6 1_555 1_555
C42_6 C41_6 1_555 1_555
C43_6 C23_6 1_555 1_555
C44_6 C22_6 1_555 1_555
C45_4 C24_4 1_555 1_555
C46_4 C45_4 1_555 1_555
C47_4 C25_4 1_555 1_555
C48_4 C24_4 1_555 1_555
O23_4 C13_4 1_555 1_555
C43_6 C44_6 1_555 1_555
C47_4 C48_4 1_555 1_555
C43_6 H17_6 1_555 1_555
C44_6 H18_6 1_555 1_555
C46_4 H19_4 1_555 1_555
C47_4 H20_4 1_555 1_555
C42_6 H21_6 1_555 1_555
C48_4 H22_4 1_555 1_555
C45_4 H23_4 1_555 1_555
C41_6 H24_6 1_555 1_555
Zr19_3 O44_3 1_555 1_555
Zr9 O44_3 1_555 1_555
O28_3 Zr13 1_555 1_555
O32_3 Zr12 1_555 1_555
O44_3 Zr13 1_555 1_555
O47_3 Zr13 1_555 1_555
O49_3 Zr12 1_555 1_555
Zr12 O47_3 1_555 1_555
Zr19_3 O47_3 1_555 1_555
Zr19_3 O49_3 1_555 1_555
Zr21_3 O45_3 1_555 1_555
O29_3 Zr13_2 1_555 1_555
O31_3 Zr12_2 1_555 1_555
O45_3 Zr13_2 1_555 1_555
O46_3 Zr13_2 1_555 1_555
O48_3 Zr12_2 1_555 1_555
Zr12_2 O46_3 1_555 1_555
Zr9_2 O45_3 1_555 1_555
Zr21_3 O46_3 1_555 1_555
Zr21_3 O48_3 1_555 1_555
O36_5 Zr12_3 1_555 1_555
O38_3 Zr12_3 1_555 1_555
O53_3 Zr12_3 1_555 1_555
O49_3 Zr12_3 1_555 1_555
O36_6 Zr12_4 1_555 1_555
O37_3 Zr12_4 1_555 1_555
O52_3 Zr12_4 1_555 1_555
O48_3 Zr12_4 1_555 1_555
O33_3 Zr14_3 1_555 1_555
O33_4 Zr14_4 1_555 1_555
O31_4 Zr20 1_555 1_555
Zr7_3 O15_5 1_555 1_555
Zr9 O16_5 1_555 1_555
O15_5 C9_5 1_555 1_555
O16_5 C10_5 1_555 1_555
O36_5 C10_5 1_555 1_555
O32_4 Zr20_2 1_555 1_555
C9_5 O33_3 1_555 1_555
C10_5 C21_5 1_555 1_555
C20_5 C9_5 1_555 1_555
C21_5 C38_5 1_555 1_555
C37_5 C20_5 1_555 1_555
C38_5 C37_5 1_555 1_555
C39_5 C21_5 1_555 1_555
C40_5 C20_5 1_555 1_555
C39_5 C40_5 1_555 1_555
C37_5 H4_5 1_555 1_555
C39_5 H6_5 1_555 1_555
C40_5 H7_5 1_555 1_555
C38_5 H13_5 1_555 1_555
Zr7_4 O15_6 1_555 1_555
Zr9_2 O16_6 1_555 1_555
O15_6 C9_6 1_555 1_555
O16_6 C10_6 1_555 1_555
O36_6 C10_6 1_555 1_555
C9_6 O33_4 1_555 1_555
C10_6 C21_6 1_555 1_555
C20_6 C9_6 1_555 1_555
C21_6 C38_6 1_555 1_555
C37_6 C20_6 1_555 1_555
C38_6 C37_6 1_555 1_555
C39_6 C21_6 1_555 1_555
C40_6 C20_6 1_555 1_555
C39_6 C40_6 1_555 1_555
C37_6 H4_6 1_555 1_555
C39_6 H6_6 1_555 1_555
C40_6 H7_6 1_555 1_555
C38_6 H13_6 1_555 1_555
Zr21_2 O52_2 1_555 1_555
Zr20_3 O52_2 1_555 1_555
Zr19_2 O53_2 1_555 1_555
Zr20_4 O53_2 1_555 1_555
Zr19_3 O53_3 1_555 1_555
Zr21_3 O52_3 1_555 1_555
O38_4 Zr9 1_555 1_555
O53_3 Zr9 1_555 1_555
O37_4 Zr9_2 1_555 1_555
O52_3 Zr9_2 1_555 1_555
O32_5 Zr20_3 1_555 1_555
O31_5 Zr20_4 1_555 1_555
Zr21_2 O1_3 1_555 1_555
O1_3 C1_3 1_555 1_555
C1_3 C2_3 1_555 1_555
C2_3 C3_3 1_555 1_555
C3_3 C26_3 1_555 1_555
Zr21_3 O4_3 1_555 1_555
Zr19_3 O8_5 1_555 1_555
Zr19 O12_3 1_555 1_555
Zr21 O16_7 1_555 1_555
O37_2 C1_3 1_555 1_555
O4_3 C4_3 1_555 1_555
O29_3 C4_3 1_555 1_555
O6_5 Zr21_2 1_555 1_555
O8_5 C6_5 1_555 1_555
O28_3 C6_5 1_555 1_555
O10_3 Zr21_2 1_555 1_555
O12_3 C8_3 1_555 1_555
O32 C8_3 1_555 1_555
O14_5 Zr21_2 1_555 1_555
O32_5 C9_7 1_555 1_555
O16_7 C10_7 1_555 1_555
O31 C10_7 1_555 1_555
O27_5 Zr21_3 1_555 1_555
O28_4 Zr21_3 1_555 1_555
O29_4 Zr21_3 1_555 1_555
O36_7 Zr19_3 1_555 1_555
O37_5 Zr19_3 1_555 1_555
O38_5 Zr19_3 1_555 1_555
C4_3 C15_3 1_555 1_555
C5_5 O6_5 1_555 1_555
C6_5 C17_5 1_555 1_555
C7_3 O10_3 1_555 1_555
C8_3 C19_3 1_555 1_555
C9_7 O14_5 1_555 1_555
C10_7 C21_7 1_555 1_555
C15_3 C26_3 1_555 1_555
C16_5 C5_5 1_555 1_555
C17_5 C30_5 1_555 1_555
C18_3 C7_3 1_555 1_555
C19_3 C34_3 1_555 1_555
C20_7 C9_7 1_555 1_555
C21_7 C38_7 1_555 1_555
C27_3 C15_3 1_555 1_555
C28_3 C2_3 1_555 1_555
C29_5 C16_5 1_555 1_555
C30_5 C29_5 1_555 1_555
C31_5 C17_5 1_555 1_555
C32_5 C16_5 1_555 1_555
C33_3 C18_3 1_555 1_555
C34_3 C33_3 1_555 1_555
C35_3 C19_3 1_555 1_555
C36_3 C18_3 1_555 1_555
C37_7 C20_7 1_555 1_555
C38_7 C37_7 1_555 1_555
C39_7 C21_7 1_555 1_555
C40_7 C20_7 1_555 1_555
O29_2 C5_5 1_555 1_555
O31_2 C7_3 1_555 1_555
C27_3 C28_3 1_555 1_555
C31_5 C32_5 1_555 1_555
C35_3 C36_3 1_555 1_555
C39_7 C40_7 1_555 1_555
C3_3 H1_3 1_555 1_555
C35_3 H2_3 1_555 1_555
C36_3 H3_3 1_555 1_555
C37_7 H4_7 1_555 1_555
C28_3 H5_3 1_555 1_555
C39_7 H6_7 1_555 1_555
C40_7 H7_7 1_555 1_555
C32_5 H8_5 1_555 1_555
C26_3 H9_3 1_555 1_555
C33_3 H10_3 1_555 1_555
C30_5 H11_5 1_555 1_555
C34_3 H12_3 1_555 1_555
C38_7 H13_7 1_555 1_555
C27_3 H14_3 1_555 1_555
C31_5 H15_5 1_555 1_555
C29_5 H16_5 1_555 1_555
Zr19_2 O19_7 1_555 1_555
O19_7 C11_7 1_555 1_555
O37_3 C12_7 1_555 1_555
O27_5 C12_7 1_555 1_555
C11_7 O38_2 1_555 1_555
C12_7 C23_7 1_555 1_555
C22_7 C11_7 1_555 1_555
C23_7 C42_7 1_555 1_555
C41_7 C22_7 1_555 1_555
C42_7 C41_7 1_555 1_555
C43_7 C23_7 1_555 1_555
C44_7 C22_7 1_555 1_555
C43_7 C44_7 1_555 1_555
C43_7 H17_7 1_555 1_555
C44_7 H18_7 1_555 1_555
C42_7 H21_7 1_555 1_555
C41_7 H24_7 1_555 1_555
Zr19_2 O15_7 1_555 1_555
Zr21 O17_5 1_555 1_555
O15_7 C9_8 1_555 1_555
O32_4 C10_8 1_555 1_555
O17_5 C10_8 1_555 1_555
C9_8 O31_5 1_555 1_555
C10_8 C21_8 1_555 1_555
C20_8 C9_8 1_555 1_555
C21_8 C38_8 1_555 1_555
C37_8 C20_8 1_555 1_555
C38_8 C37_8 1_555 1_555
C39_8 C21_8 1_555 1_555
C40_8 C20_8 1_555 1_555
C39_8 C40_8 1_555 1_555
C37_8 H4_8 1_555 1_555
C39_8 H6_8 1_555 1_555
C40_8 H7_8 1_555 1_555
C38_8 H13_8 1_555 1_555
Zr19_2 O19_8 1_555 1_555
O19_8 C11_8 1_555 1_555
O38_3 C12_8 1_555 1_555
O36_7 C12_8 1_555 1_555
C11_8 O28_2 1_555 1_555
C12_8 C23_8 1_555 1_555
C22_8 C11_8 1_555 1_555
C23_8 C42_8 1_555 1_555
C41_8 C22_8 1_555 1_555
C42_8 C41_8 1_555 1_555
C43_8 C23_8 1_555 1_555
C44_8 C22_8 1_555 1_555
C43_8 C44_8 1_555 1_555
C43_8 H17_8 1_555 1_555
C44_8 H18_8 1_555 1_555
C42_8 H21_8 1_555 1_555
C41_8 H24_8 1_555 1_555
O31_6 Zr21 1_555 1_555
O32_6 Zr21 1_555 1_555
O33_5 Zr19_2 1_555 1_555
Zr19 O16_8 1_555 1_555
O32_2 C9_9 1_555 1_555
O16_8 C10_9 1_555 1_555
O31_4 C10_9 1_555 1_555
C9_9 O33_5 1_555 1_555
C10_9 C21_9 1_555 1_555
C20_9 C9_9 1_555 1_555
C21_9 C38_9 1_555 1_555
C37_9 C20_9 1_555 1_555
C38_9 C37_9 1_555 1_555
C39_9 C21_9 1_555 1_555
C40_9 C20_9 1_555 1_555
C39_9 C40_9 1_555 1_555
C37_9 H4_9 1_555 1_555
C39_9 H6_9 1_555 1_555
C40_9 H7_9 1_555 1_555
C38_9 H13_9 1_555 1_555
O37_6 Zr19 1_555 1_555
O38_6 Zr19 1_555 1_555
O31_3 C14_5 1_555 1_555
O29_4 C14_5 1_555 1_555
C13_5 O38 1_555 1_555
C14_5 C25_5 1_555 1_555
C24_5 C13_5 1_555 1_555
C25_5 C46_5 1_555 1_555
C45_5 C24_5 1_555 1_555
C46_5 C45_5 1_555 1_555
C47_5 C25_5 1_555 1_555
C48_5 C24_5 1_555 1_555
O38_6 C13_5 1_555 1_555
C47_5 C48_5 1_555 1_555
C46_5 H19_5 1_555 1_555
C47_5 H20_5 1_555 1_555
C48_5 H22_5 1_555 1_555
C45_5 H23_5 1_555 1_555
O37_5 C6_6 1_555 1_555
O32_3 C6_6 1_555 1_555
C5_6 O37_6 1_555 1_555
C6_6 C17_6 1_555 1_555
C16_6 C5_6 1_555 1_555
C17_6 C30_6 1_555 1_555
C29_6 C16_6 1_555 1_555
C30_6 C29_6 1_555 1_555
C31_6 C17_6 1_555 1_555
C32_6 C16_6 1_555 1_555
O28 C5_6 1_555 1_555
C31_6 C32_6 1_555 1_555
C32_6 H8_6 1_555 1_555
C30_6 H11_6 1_555 1_555
C31_6 H15_6 1_555 1_555
C29_6 H16_6 1_555 1_555
O32_6 C11_9 1_555 1_555
O37_4 C12_9 1_555 1_555
O28_4 C12_9 1_555 1_555
C11_9 O37 1_555 1_555
C12_9 C23_9 1_555 1_555
C22_9 C11_9 1_555 1_555
C23_9 C42_9 1_555 1_555
C41_9 C22_9 1_555 1_555
C42_9 C41_9 1_555 1_555
C43_9 C23_9 1_555 1_555
C44_9 C22_9 1_555 1_555
C43_9 C44_9 1_555 1_555
C43_9 H17_9 1_555 1_555
C44_9 H18_9 1_555 1_555
C42_9 H21_9 1_555 1_555
C41_9 H24_9 1_555 1_555
O38_4 C14_6 1_555 1_555
O38_5 C14_6 1_555 1_555
C13_6 O29 1_555 1_555
C14_6 C25_6 1_555 1_555
C24_6 C13_6 1_555 1_555
C25_6 C46_6 1_555 1_555
C45_6 C24_6 1_555 1_555
C46_6 C45_6 1_555 1_555
C47_6 C25_6 1_555 1_555
C48_6 C24_6 1_555 1_555
O31_6 C13_6 1_555 1_555
C47_6 C48_6 1_555 1_555
C46_6 H19_6 1_555 1_555
C47_6 H20_6 1_555 1_555
C48_6 H22_6 1_555 1_555
C45_6 H23_6 1_555 1_555

#END
