
###############################################################################
#
# This file contains modified crystal structure data generated from the
# MOF subset of the Cambridge Structural Database (CSD) v543 
# hosted by the Cambridge Crystallographic Data Centre (CCDC).
#
# This work is licensed under the Creative Commons
# Attribution-NonCommercial-ShareAlike 4.0 International License.
# To view a copy of this license, visit
# http://creativecommons.org/licenses/by-nc-sa/4.0/
# or send a letter to
# Creative Commons, PO Box 1866, Mountain View, CA 94042, USA.
#
# CIF created using the CSD Python API on 29 September 2022
# The structure has been converted into the P1 space group
# The structure has a 3D framework
# The original CSD entry RUBXOE is in the monoclinic crystal system
# The framework has been calculated to contain at least 10.0% void space
# The void calculation uses a probe of radius 1.32A, grid spacing 0.4
#
###############################################################################

data_RUBXOE
_chemical_formula_moiety         '(C296 H232 Co20 N56 O88 Si8)n'
_symmetry_cell_setting           triclinic
_symmetry_space_group_name_H-M   'P 1'
_symmetry_Int_Tables_number      1
_space_group_name_Hall           'P 1'
loop_
_symmetry_equiv_pos_site_id
_symmetry_equiv_pos_as_xyz
1 x,y,z
_cell_length_a                   23.5305(6)
_cell_length_b                   18.3481(5)
_cell_length_c                   22.9597(6)
_cell_angle_alpha                90
_cell_angle_beta                 110.0766(12)
_cell_angle_gamma                90
_cell_volume                     9310.28
loop_
_atom_site_label
_atom_site_type_symbol
_atom_site_fract_x
_atom_site_fract_y
_atom_site_fract_z
Co10 Co 0.2500 0.2500 0.0000
Co4 Co 0.37406(2) 0.42809(2) 0.45455(2)
O12 O 0.26949(8) 0.36099(9) 0.49266(9)
C39 C 0.06636(10) 0.47987(12) 0.38741(11)
C40 C 0.18858(10) 0.43913(12) 0.43436(11)
O13 O 0.28684(8) 0.44428(11) 0.43075(10)
H30 H 0.0071 0.5911 0.2575
C43 C 0.25285(10) 0.41249(13) 0.45490(11)
C46 C 0.16709(11) 0.48210(15) 0.38176(14)
H32 H 0.1934 0.4980 0.3621
C47 C 0.08920(11) 0.43858(14) 0.44134(12)
H33 H 0.0635 0.4245 0.4623
H35 H 0.0279 0.7208 0.4863
C52 C 0.14956(11) 0.41799(14) 0.46446(12)
H37 H 0.1638 0.3899 0.5003
C53 C 0.01191(12) 0.63107(15) 0.43282(11)
H38 H 0.0481 0.6078 0.4546
C63 C 0.10695(11) 0.50145(14) 0.35845(13)
H44 H 0.0931 0.5295 0.3226
O20 O 0.39866(11) 0.48056(12) 0.39224(11)
H46 H 0.4143 0.5010 0.4396
H47 H 0.3836 0.4594 0.3572
N8 N 0.09913(8) 0.22105(11) 0.83185(9)
C67 C 0.06687(10) 0.19577(13) 0.77045(10)
N9 N 0.05976(9) 0.11598(12) 0.68677(9)
C68 C 0.01140(10) 0.22731(13) 0.73826(10)
C69 C 0.15766(10) 0.21615(14) 0.86612(11)
H49 H 0.1870 0.1939 0.8535
C70 C 0.08968(11) 0.14102(14) 0.74372(11)
H50 H 0.1271 0.1209 0.7660
N11 N 0.16777(9) 0.24731(11) 0.92022(9)
N12 N 0.06910(10) 0.25696(13) 0.86456(10)
C72 C 0.00603(11) 0.14582(14) 0.65556(10)
C73 C 0.11249(11) 0.27169(15) 0.91679(12)
H53 H 0.1058 0.2969 0.9490
Co10_2 Co 0.2500 0.2500 1.0000
Co11 Co 0.2500 0.2500 0.5000
O25 O 0.41214(9) 0.43934(11) 0.54306(8)
O27 O 0.37742(10) 0.32523(10) 0.42824(11)
Co1 Co 0.12594(2) 0.42809(2) 0.04545(2)
Co2 Co 0.7500 0.2500 0.5000
Si1 Si 0.51568(3) 0.50482(3) 0.14560(3)
C1 C 0.52926(10) 0.59724(12) 0.11938(10)
N1 N 0.40087(8) 0.27895(11) 0.16815(9)
O1 O 0.23051(8) 0.36099(9) 0.00734(9)
C2 C 0.43364(10) 0.47987(12) 0.11259(11)
C3 C 0.31142(10) 0.43913(12) 0.06564(11)
C4 C 0.51896(10) 0.29896(13) 0.32065(10)
C5 C 0.56076(10) 0.43595(12) 0.12068(10)
O2 O 0.21316(8) 0.44428(11) 0.06925(10)
C6 C 0.52092(12) 0.55654(13) 0.26458(11)
H1 H 0.4929 0.5911 0.2425
C7 C 0.24715(10) 0.41249(13) 0.04510(11)
C8 C 0.43313(10) 0.30423(13) 0.22955(10)
N2 N 0.44024(9) 0.38402(12) 0.31323(9)
C9 C 0.48860(10) 0.27269(13) 0.26174(10)
H2 H 0.5046 0.2356 0.2445
C10 C 0.63256(11) 0.32907(14) 0.09227(11)
N3 N 0.57553(9) 0.26776(11) 0.35612(9)
C11 C 0.58252(11) 0.63425(13) 0.15048(12)
H3 H 0.6100 0.6137 0.1861
C12 C 0.33291(11) 0.48210(15) 0.11824(14)
H4 H 0.3066 0.4980 0.1379
O3 O 0.52579(12) 0.84537(12) 0.02683(11)
C13 C 0.41080(11) 0.43858(14) 0.05866(12)
H5 H 0.4365 0.4245 0.0377
C14 C 0.34234(10) 0.28385(14) 0.13388(11)
H6 H 0.3130 0.3061 0.1465
C15 C 0.54267(10) 0.50546(12) 0.23234(10)
C16 C 0.60462(11) 0.45472(14) 0.09517(12)
H7 H 0.6103 0.5035 0.0875
C17 C 0.50047(13) 0.69844(15) 0.04768(12)
H8 H 0.4721 0.7208 0.0137
C18 C 0.54017(12) 0.55695(14) 0.32878(11)
H9 H 0.5243 0.5908 0.3492
C19 C 0.41032(11) 0.35898(14) 0.25628(11)
H10 H 0.3729 0.3791 0.2340
C20 C 0.35044(11) 0.41799(14) 0.03554(12)
C21 C 0.48809(12) 0.63107(15) 0.06718(11)
H12 H 0.4519 0.6078 0.0454
C22 C 0.61647(11) 0.28959(14) 0.40980(11)
H13 H 0.6124 0.3303 0.4322
C23 C 0.60591(14) 0.45743(15) 0.33134(12)
H14 H 0.6352 0.4244 0.3538
C24 C 0.58600(12) 0.45598(14) 0.26726(11)
H15 H 0.6017 0.4216 0.2472
N4 N 0.33223(9) 0.25269(11) 0.07978(9)
C25 C 0.55339(12) 0.36170(14) 0.13039(12)
H16 H 0.5239 0.3474 0.1465
C26 C 0.59581(11) 0.70062(14) 0.12998(13)
H17 H 0.6324 0.7235 0.1510
C27 C 0.55484(12) 0.73301(13) 0.07832(12)
C28 C 0.56716(15) 0.80592(15) 0.05649(13)
O4 O 0.65621(13) 0.20700(12) 0.07671(14)
N5 N 0.43090(10) 0.24304(13) 0.13544(10)
N6 N 0.59476(12) 0.20530(16) 0.33756(13)
C29 C 0.49397(11) 0.35418(14) 0.34444(10)
H18 H 0.5154 0.3715 0.3840
C30 C 0.63991(12) 0.40197(15) 0.08112(12)
H19 H 0.6689 0.4156 0.0640
O5 O 0.63363(14) 0.45525(13) 0.46091(10)
N7 N 0.66308(9) 0.24546(12) 0.42623(10)
C31 C 0.60376(14) 0.50666(14) 0.43193(12)
C32 C 0.58270(12) 0.50746(13) 0.36236(11)
C33 C 0.38751(11) 0.22831(15) 0.08321(12)
H20 H 0.3942 0.2031 0.0510
C34 C 0.39305(11) 0.50145(14) 0.14155(13)
H21 H 0.4069 0.5295 0.1774
C35 C 0.67026(13) 0.27218(16) 0.07524(13)
C36 C 0.58864(13) 0.30949(14) 0.11670(12)
H22 H 0.5829 0.2606 0.1239
C37 C 0.64703(14) 0.1944(2) 0.38107(16)
H23 H 0.6714 0.1544 0.3810
O6 O 0.76951(8) 0.14400(10) 0.47152(9)
H24 H 0.7896 0.1174 0.5037
H25 H 0.7946 0.1474 0.4509
O7 O 0.71330(8) 0.29544(11) 0.05965(9)
O8 O 0.20508(8) 0.22825(11) 0.06333(9)
H26 H 0.2239 0.1947 0.0407
H27 H 0.1768 0.2600 0.0589
O9 O 0.58786(9) 0.56066(11) 0.45694(8)
O10 O 0.62258(10) 0.82523(10) 0.07176(11)
O11 O 0.10134(11) 0.48056(12) 0.10776(11)
H28 H 0.0857 0.5010 0.0604
H29 H 0.1164 0.4594 0.1428
Si2 Si 0.98432(3) 0.50482(3) 0.35440(3)
C38 C 0.97074(10) 0.59724(12) 0.38062(10)
C41 C 0.93924(10) 0.43595(12) 0.37932(10)
C42 C 0.97908(12) 0.55654(13) 0.23542(11)
C44 C 0.86744(11) 0.32907(14) 0.40773(11)
C45 C 0.91748(11) 0.63425(13) 0.34952(12)
H31 H 0.8900 0.6137 0.3139
O14 O 0.97421(12) 0.84537(12) 0.47317(11)
C48 C 0.95733(10) 0.50546(12) 0.26766(10)
C49 C 0.89538(11) 0.45472(14) 0.40483(12)
H34 H 0.8897 0.5035 0.4125
C50 C 0.99953(13) 0.69844(15) 0.45232(12)
C51 C 0.95983(12) 0.55695(14) 0.17122(11)
H36 H 0.9757 0.5908 0.1508
C54 C 0.89409(14) 0.45743(15) 0.16866(12)
H39 H 0.8648 0.4244 0.1462
C55 C 0.91400(12) 0.45598(14) 0.23274(11)
H40 H 0.8983 0.4216 0.2528
C56 C 0.94661(12) 0.36170(14) 0.36961(12)
H41 H 0.9761 0.3474 0.3535
C57 C 0.90419(11) 0.70062(14) 0.37002(13)
H42 H 0.8676 0.7235 0.3490
C58 C 0.94516(12) 0.73301(13) 0.42168(12)
C59 C 0.93284(15) 0.80592(15) 0.44351(13)
O15 O 0.84379(13) 0.20700(12) 0.42329(14)
C60 C 0.86009(12) 0.40197(15) 0.41888(12)
H43 H 0.8311 0.4156 0.4360
O16 O 0.86637(14) 0.45525(13) 0.03909(10)
C61 C 0.89624(14) 0.50666(14) 0.06807(12)
C62 C 0.91730(12) 0.50746(13) 0.13764(11)
C64 C 0.82974(13) 0.27218(16) 0.42476(13)
C65 C 0.91136(13) 0.30949(14) 0.38330(12)
H45 H 0.9171 0.2606 0.3761
O17 O 0.78670(8) 0.29544(11) 0.44035(9)
O18 O 0.91214(9) 0.56066(11) 0.04306(8)
O19 O 0.87742(10) 0.82523(10) 0.42824(11)
C66 C 0.98104(10) 0.20104(13) 0.67935(10)
H48 H 0.9954 0.2644 0.7555
N10 N 0.92447(9) 0.23224(11) 0.64388(9)
C71 C 0.88353(11) 0.21041(14) 0.59020(11)
H51 H 0.8876 0.1697 0.5678
N13 N 0.90524(12) 0.29470(16) 0.66244(13)
H52 H 0.9846 0.1285 0.6160
N14 N 0.83692(9) 0.25454(12) 0.57377(10)
C74 C 0.85297(14) 0.3056(2) 0.61893(16)
H54 H 0.8286 0.3456 0.6190
O21 O 0.73049(8) 0.35600(10) 0.52848(9)
H55 H 0.7104 0.3826 0.4963
H56 H 0.7054 0.3526 0.5491
Co5 Co 0.87406(2) 0.92809(2) 0.45455(2)
Co6 Co 0.62594(2) 0.92809(2) 0.04545(2)
Co8 Co 0.62594(2) 0.57191(2) 0.54545(2)
Co9 Co 0.7500 0.2500 0.0000
O24 O 0.71330(8) 0.20456(11) 0.55965(9)
O28 O 0.12258(10) 0.32523(10) 0.07176(11)
H11 H 0.3362 0.3899 0.9997
O22 O 0.29492(8) 0.27175(11) 0.93667(9)
H57 H 0.2761 0.3053 0.9593
H58 H 0.3232 0.2400 0.9411
Co7 Co 0.87406(2) 0.57191(2) 0.95455(2)
Co9_2 Co 0.7500 0.2500 1.0000
O23 O 0.26949(8) 0.13901(9) 0.99266(9)
O26 O 0.08786(9) 0.43934(11) 0.95694(8)
Si1_2 Si 0.48432(3) 0.00482(3) 0.35440(3)
C1_2 C 0.47074(10) 0.09724(12) 0.38062(10)
C6_2 C 0.47908(12) 0.05654(13) 0.23542(11)
H1_2 H 0.5071 0.0911 0.2575
C11_2 C 0.41748(11) 0.13425(13) 0.34952(12)
H3_2 H 0.3900 0.1137 0.3139
O3_2 O 0.47421(12) 0.34537(12) 0.47317(11)
C15_2 C 0.45733(10) 0.00546(12) 0.26766(10)
H7_2 H 0.3897 0.0035 0.4125
C17_2 C 0.49953(13) 0.19844(15) 0.45232(12)
H8_2 H 0.5279 0.2208 0.4863
C18_2 C 0.45983(12) 0.05695(14) 0.17122(11)
H9_2 H 0.4757 0.0908 0.1508
C21_2 C 0.51191(12) 0.13107(15) 0.43282(11)
H12_2 H 0.5481 0.1078 0.4546
C26_2 C 0.40419(11) 0.20062(14) 0.37002(13)
H17_2 H 0.3676 0.2235 0.3490
C27_2 C 0.44516(12) 0.23301(13) 0.42168(12)
C28_2 C 0.43284(15) 0.30592(15) 0.44351(13)
C31_2 C 0.39624(14) 0.00666(14) 0.06807(12)
C32_2 C 0.41730(12) 0.00746(13) 0.13764(11)
C34_2 C 0.60695(11) 0.00145(14) 0.35845(13)
H21_2 H 0.5931 0.0295 0.3226
O9_2 O 0.41214(9) 0.06066(11) 0.04306(8)
H28_2 H 0.9143 0.0010 0.4396
Si2_2 Si 0.01568(3) 0.00482(3) 0.14560(3)
C38_2 C 0.02926(10) 0.09724(12) 0.11938(10)
C42_2 C 0.02092(12) 0.05654(13) 0.26458(11)
C45_2 C 0.08252(11) 0.13425(13) 0.15048(12)
H31_2 H 0.1100 0.1137 0.1861
O14_2 O 0.02579(12) 0.34537(12) 0.02683(11)
C48_2 C 0.04267(10) 0.00546(12) 0.23234(10)
H34_2 H 0.1103 0.0035 0.0875
C50_2 C 0.00047(13) 0.19844(15) 0.04768(12)
C51_2 C 0.04017(12) 0.05695(14) 0.32878(11)
H36_2 H 0.0243 0.0908 0.3492
C57_2 C 0.09581(11) 0.20062(14) 0.12998(13)
H42_2 H 0.1324 0.2235 0.1510
C58_2 C 0.05484(12) 0.23301(13) 0.07832(12)
C59_2 C 0.06716(15) 0.30592(15) 0.05649(13)
C61_2 C 0.10376(14) 0.00666(14) 0.43193(12)
C62_2 C 0.08270(12) 0.00746(13) 0.36236(11)
O18_2 O 0.08786(9) 0.06066(11) 0.45694(8)
Co7_2 Co 0.12594(2) 0.07191(2) 0.54545(2)
Co8_2 Co 0.37406(2) 0.07191(2) 0.95455(2)
Co2_2 Co 0.2500 0.7500 0.0000
Co3 Co 0.7500 0.7500 0.5000
N1_2 N 0.59913(8) 0.77895(11) 0.33185(9)
O1_2 O 0.76949(8) 0.86099(9) 0.49266(9)
C2_2 C 0.56636(10) 0.97987(12) 0.38741(11)
C3_2 C 0.68858(10) 0.93913(12) 0.43436(11)
C4_2 C 0.48104(10) 0.79896(13) 0.17935(10)
C5_2 C 0.43924(10) 0.93595(12) 0.37932(10)
O2_2 O 0.78684(8) 0.94428(11) 0.43075(10)
C7_2 C 0.75285(10) 0.91249(13) 0.45490(11)
C8_2 C 0.56687(10) 0.80423(13) 0.27045(10)
N2_2 N 0.55976(9) 0.88402(12) 0.18677(9)
C9_2 C 0.51140(10) 0.77269(13) 0.23826(10)
H2_2 H 0.4954 0.7356 0.2555
C10_2 C 0.36744(11) 0.82907(14) 0.40773(11)
N3_2 N 0.42447(9) 0.76776(11) 0.14388(9)
C12_2 C 0.66709(11) 0.98210(15) 0.38176(14)
H4_2 H 0.6934 0.9980 0.3621
C13_2 C 0.58920(11) 0.93858(14) 0.44134(12)
H5_2 H 0.5635 0.9245 0.4623
C14_2 C 0.65766(10) 0.78385(14) 0.36612(11)
H6_2 H 0.6870 0.8061 0.3535
C16_2 C 0.39538(11) 0.95472(14) 0.40483(12)
C19_2 C 0.58968(11) 0.85898(14) 0.24372(11)
H10_2 H 0.6271 0.8791 0.2660
C20_2 C 0.64956(11) 0.91799(14) 0.46446(12)
H11_2 H 0.6638 0.8899 0.5003
C22_2 C 0.38353(11) 0.78959(14) 0.09020(11)
H13_2 H 0.3876 0.8303 0.0678
C23_2 C 0.39409(14) 0.95743(15) 0.16866(12)
H14_2 H 0.3648 0.9244 0.1462
C24_2 C 0.41400(12) 0.95598(14) 0.23274(11)
H15_2 H 0.3983 0.9216 0.2528
N4_2 N 0.66777(9) 0.75269(11) 0.42022(9)
C25_2 C 0.44661(12) 0.86170(14) 0.36961(12)
H16_2 H 0.4761 0.8474 0.3535
O4_2 O 0.34379(13) 0.70700(12) 0.42329(14)
N5_2 N 0.56910(10) 0.74304(13) 0.36456(10)
N6_2 N 0.40524(12) 0.70530(16) 0.16244(13)
C29_2 C 0.50603(11) 0.85418(14) 0.15556(10)
H18_2 H 0.4846 0.8715 0.1160
C30_2 C 0.36009(12) 0.90197(15) 0.41888(12)
H19_2 H 0.3311 0.9156 0.4360
O5_2 O 0.36637(14) 0.95525(13) 0.03909(10)
N7_2 N 0.33692(9) 0.74546(12) 0.07377(10)
C33_2 C 0.61249(11) 0.72831(15) 0.41679(12)
H20_2 H 0.6058 0.7031 0.4490
C35_2 C 0.32974(13) 0.77218(16) 0.42476(13)
C36_2 C 0.41136(13) 0.80949(14) 0.38330(12)
H22_2 H 0.4171 0.7606 0.3761
C37_2 C 0.35297(14) 0.6944(2) 0.11893(16)
H23_2 H 0.3286 0.6544 0.1190
O6_2 O 0.23049(8) 0.64400(10) 0.02848(9)
H25_2 H 0.2054 0.6474 0.0491
O7_2 O 0.28670(8) 0.79544(11) 0.44035(9)
O8_2 O 0.79492(8) 0.72825(11) 0.43667(9)
H26_2 H 0.7761 0.6947 0.4593
H27_2 H 0.8232 0.7600 0.4411
O11_2 O 0.89866(11) 0.98056(12) 0.39224(11)
H29_2 H 0.8836 0.9594 0.3572
C41_2 C 0.06076(10) 0.93595(12) 0.12068(10)
C44_2 C 0.13256(11) 0.82907(14) 0.09227(11)
C49_2 C 0.10462(11) 0.95472(14) 0.09517(12)
C54_2 C 0.10591(14) 0.95743(15) 0.33134(12)
H39_2 H 0.1352 0.9244 0.3538
C55_2 C 0.08600(12) 0.95598(14) 0.26726(11)
H40_2 H 0.1017 0.9216 0.2472
C56_2 C 0.05339(12) 0.86170(14) 0.13039(12)
H41_2 H 0.0239 0.8474 0.1465
O15_2 O 0.15621(13) 0.70700(12) 0.07671(14)
C60_2 C 0.13991(12) 0.90197(15) 0.08112(12)
H43_2 H 0.1689 0.9156 0.0640
O16_2 O 0.13363(14) 0.95525(13) 0.46091(10)
C64_2 C 0.17026(13) 0.77218(16) 0.07524(13)
C65_2 C 0.08864(13) 0.80949(14) 0.11670(12)
H45_2 H 0.0829 0.7606 0.1239
O17_2 O 0.21330(8) 0.79544(11) 0.05965(9)
H55_2 H 0.2896 0.8826 0.0037
O22_2 O 0.70508(8) 0.77175(11) 0.56333(9)
H57_2 H 0.7239 0.8053 0.5407
H58_2 H 0.6768 0.7400 0.5589
Co9_3 Co 0.2500 0.7500 0.5000
O23_2 O 0.73051(8) 0.63901(9) 0.50734(9)
N15 N 0.83223(9) 0.74731(11) 0.57978(9)
O26_2 O 0.91214(9) 0.93934(11) 0.54306(8)
Co2_3 Co 0.2500 0.7500 1.0000
H24_2 H 0.2104 0.6174 0.9963
C66_2 C 0.01896(10) 0.70104(13) 0.82065(10)
H48_2 H 0.0046 0.7644 0.7445
N10_2 N 0.07553(9) 0.73224(11) 0.85612(9)
C71_2 C 0.11647(11) 0.71041(14) 0.90980(11)
H51_2 H 0.1124 0.6697 0.9322
N13_2 N 0.09476(12) 0.79470(16) 0.83756(13)
H52_2 H 0.0154 0.6285 0.8840
N14_2 N 0.16308(9) 0.75454(12) 0.92623(10)
C74_2 C 0.14703(14) 0.8056(2) 0.88107(16)
H54_2 H 0.1714 0.8456 0.8810
O21_2 O 0.26951(8) 0.85600(10) 0.97152(9)
H56_2 H 0.2946 0.8526 0.9509
O24_2 O 0.28670(8) 0.70456(11) 0.94035(9)
O12_2 O 0.73051(8) 0.86099(9) 0.00734(9)
C39_2 C 0.93364(10) 0.97987(12) 0.11259(11)
C40_2 C 0.81142(10) 0.93913(12) 0.06564(11)
O13_2 O 0.71316(8) 0.94428(11) 0.06925(10)
C43_2 C 0.74715(10) 0.91249(13) 0.04510(11)
C46_2 C 0.83291(11) 0.98210(15) 0.11824(14)
H32_2 H 0.8066 0.9980 0.1379
C47_2 C 0.91080(11) 0.93858(14) 0.05866(12)
H33_2 H 0.9365 0.9245 0.0377
C52_2 C 0.85044(11) 0.91799(14) 0.03554(12)
O20_2 O 0.60134(11) 0.98056(12) 0.10776(11)
H47_2 H 0.6164 0.9594 0.1428
Co11_2 Co 0.7500 0.7500 0.0000
H37_2 H 0.8362 0.8899 0.9997
N8_2 N 0.90087(8) 0.72105(11) 0.66815(9)
C67_2 C 0.93313(10) 0.69577(13) 0.72955(10)
N9_2 N 0.94024(9) 0.61598(12) 0.81323(9)
C68_2 C 0.98860(10) 0.72731(13) 0.76174(10)
C69_2 C 0.84234(10) 0.71615(14) 0.63388(11)
H49_2 H 0.8130 0.6939 0.6465
C70_2 C 0.91032(11) 0.64102(14) 0.75628(11)
H50_2 H 0.8729 0.6209 0.7340
N12_2 N 0.93090(10) 0.75696(13) 0.63544(10)
C72_2 C 0.99397(11) 0.64582(14) 0.84444(10)
C73_2 C 0.88751(11) 0.77169(15) 0.58321(12)
H53_2 H 0.8942 0.7969 0.5510
Co11_3 Co 0.7500 0.7500 1.0000
O25_2 O 0.58786(9) 0.93934(11) 0.95694(8)
C4_3 C 0.01896(10) 0.79896(13) 0.32065(10)
H2_3 H 0.0046 0.7356 0.2445
N3_3 N 0.07553(9) 0.76776(11) 0.35612(9)
C22_3 C 0.11647(11) 0.78959(14) 0.40980(11)
H13_3 H 0.1124 0.8303 0.4322
N6_3 N 0.09476(12) 0.70530(16) 0.33756(13)
H18_3 H 0.0154 0.8715 0.3840
N7_3 N 0.16308(9) 0.74546(12) 0.42623(10)
C37_3 C 0.14703(14) 0.6944(2) 0.38107(16)
H23_3 H 0.1714 0.6544 0.3810
O6_3 O 0.26951(8) 0.64400(10) 0.47152(9)
H24_3 H 0.2896 0.6174 0.5037
H25_3 H 0.2946 0.6474 0.4509
N8_3 N 0.59913(8) 0.72105(11) 0.83185(9)
C66_3 C 0.48104(10) 0.70104(13) 0.67935(10)
C67_3 C 0.56687(10) 0.69577(13) 0.77045(10)
N9_3 N 0.55976(9) 0.61598(12) 0.68677(9)
C68_3 C 0.51140(10) 0.72731(13) 0.73826(10)
H48_3 H 0.4954 0.7644 0.7555
N10_3 N 0.42447(9) 0.73224(11) 0.64388(9)
C69_3 C 0.65766(10) 0.71615(14) 0.86612(11)
H49_3 H 0.6870 0.6939 0.8535
C70_3 C 0.58968(11) 0.64102(14) 0.74372(11)
H50_3 H 0.6271 0.6209 0.7660
C71_3 C 0.38353(11) 0.71041(14) 0.59020(11)
H51_3 H 0.3876 0.6697 0.5678
N11_2 N 0.66777(9) 0.74731(11) 0.92022(9)
N12_3 N 0.56910(10) 0.75696(13) 0.86456(10)
N13_3 N 0.40524(12) 0.79470(16) 0.66244(13)
C72_3 C 0.50603(11) 0.64582(14) 0.65556(10)
H52_3 H 0.4846 0.6285 0.6160
N14_3 N 0.33692(9) 0.75454(12) 0.57377(10)
C73_3 C 0.61249(11) 0.77169(15) 0.91679(12)
H53_3 H 0.6058 0.7969 0.9490
C74_3 C 0.35297(14) 0.8056(2) 0.61893(16)
H54_3 H 0.3286 0.8456 0.6190
O21_3 O 0.23049(8) 0.85600(10) 0.52848(9)
H55_3 H 0.2104 0.8826 0.4963
H56_3 H 0.2054 0.8526 0.5491
O24_3 O 0.21330(8) 0.70456(11) 0.55965(9)
N1_3 N 0.90087(8) 0.77895(11) 0.16815(9)
C8_3 C 0.93313(10) 0.80423(13) 0.22955(10)
N2_3 N 0.94024(9) 0.88402(12) 0.31323(9)
C9_3 C 0.98860(10) 0.77269(13) 0.26174(10)
C14_3 C 0.84234(10) 0.78385(14) 0.13388(11)
H6_3 H 0.8130 0.8061 0.1465
C19_3 C 0.91032(11) 0.85898(14) 0.25628(11)
H10_3 H 0.8729 0.8791 0.2340
N4_3 N 0.83223(9) 0.75269(11) 0.07978(9)
N5_3 N 0.93090(10) 0.74304(13) 0.13544(10)
C29_3 C 0.99397(11) 0.85418(14) 0.34444(10)
C33_3 C 0.88751(11) 0.72831(15) 0.08321(12)
H20_3 H 0.8942 0.7031 0.0510
O8_3 O 0.70508(8) 0.72825(11) 0.06333(9)
H26_3 H 0.7239 0.6947 0.0407
H27_3 H 0.6768 0.7600 0.0589
O22_3 O 0.79492(8) 0.77175(11) 0.93667(9)
H57_3 H 0.7761 0.8053 0.9593
H58_3 H 0.8232 0.7400 0.9411
O23_3 O 0.76949(8) 0.63901(9) 0.99266(9)
N1_4 N 0.09913(8) 0.27895(11) 0.33185(9)
C8_4 C 0.06687(10) 0.30423(13) 0.27045(10)
N2_4 N 0.05976(9) 0.38402(12) 0.18677(9)
C9_4 C 0.01140(10) 0.27269(13) 0.23826(10)
C14_4 C 0.15766(10) 0.28385(14) 0.36612(11)
H6_4 H 0.1870 0.3061 0.3535
C19_4 C 0.08968(11) 0.35898(14) 0.24372(11)
H10_4 H 0.1271 0.3791 0.2660
N4_4 N 0.16777(9) 0.25269(11) 0.42022(9)
N5_4 N 0.06910(10) 0.24304(13) 0.36456(10)
C29_4 C 0.00603(11) 0.35418(14) 0.15556(10)
C33_4 C 0.11249(11) 0.22831(15) 0.41679(12)
H20_4 H 0.1058 0.2031 0.4490
O8_4 O 0.29492(8) 0.22825(11) 0.43667(9)
H26_4 H 0.2761 0.1947 0.4593
H27_4 H 0.3232 0.2600 0.4411
O22_4 O 0.20508(8) 0.27175(11) 0.56333(9)
H57_4 H 0.2239 0.3053 0.5407
H58_4 H 0.1768 0.2400 0.5589
O23_4 O 0.23051(8) 0.13901(9) 0.50734(9)
N15_2 N 0.33223(9) 0.24731(11) 0.57978(9)
C4_4 C 0.98104(10) 0.29896(13) 0.17935(10)
H2_4 H 0.9954 0.2356 0.2555
N3_4 N 0.92447(9) 0.26776(11) 0.14388(9)
C22_4 C 0.88353(11) 0.28959(14) 0.09020(11)
H13_4 H 0.8876 0.3303 0.0678
N6_4 N 0.90524(12) 0.20530(16) 0.16244(13)
H18_4 H 0.9846 0.3715 0.1160
N7_4 N 0.83692(9) 0.24546(12) 0.07377(10)
C37_4 C 0.85297(14) 0.1944(2) 0.11893(16)
H23_4 H 0.8286 0.1544 0.1190
O6_4 O 0.73049(8) 0.14400(10) 0.02848(9)
H25_4 H 0.7054 0.1474 0.0491
H55_4 H 0.7896 0.3826 0.0037
H24_4 H 0.7104 0.1174 0.9963
N8_4 N 0.40087(8) 0.22105(11) 0.66815(9)
C66_4 C 0.51896(10) 0.20104(13) 0.82065(10)
C67_4 C 0.43313(10) 0.19577(13) 0.72955(10)
N9_4 N 0.44024(9) 0.11598(12) 0.81323(9)
C68_4 C 0.48860(10) 0.22731(13) 0.76174(10)
H48_4 H 0.5046 0.2644 0.7445
N10_4 N 0.57553(9) 0.23224(11) 0.85612(9)
C69_4 C 0.34234(10) 0.21615(14) 0.63388(11)
H49_4 H 0.3130 0.1939 0.6465
C70_4 C 0.41032(11) 0.14102(14) 0.75628(11)
H50_4 H 0.3729 0.1209 0.7340
C71_4 C 0.61647(11) 0.21041(14) 0.90980(11)
H51_4 H 0.6124 0.1697 0.9322
N12_4 N 0.43090(10) 0.25696(13) 0.63544(10)
N13_4 N 0.59476(12) 0.29470(16) 0.83756(13)
C72_4 C 0.49397(11) 0.14582(14) 0.84444(10)
H52_4 H 0.5154 0.1285 0.8840
N14_4 N 0.66308(9) 0.25454(12) 0.92623(10)
C73_4 C 0.38751(11) 0.27169(15) 0.58321(12)
H53_4 H 0.3942 0.2969 0.5510
C74_4 C 0.64703(14) 0.3056(2) 0.88107(16)
H54_4 H 0.6714 0.3456 0.8810
O21_4 O 0.76951(8) 0.35600(10) 0.97152(9)
H56_4 H 0.7946 0.3526 0.9509
O24_4 O 0.78670(8) 0.20456(11) 0.94035(9)
H11_3 H 0.6638 0.6101 0.0003
Si1_3 Si 0.48432(3) 0.49518(3) 0.85440(3)
C1_3 C 0.47074(10) 0.40276(12) 0.88062(10)
C2_3 C 0.56636(10) 0.52013(12) 0.88741(11)
C3_3 C 0.68858(10) 0.56087(12) 0.93436(11)
C5_3 C 0.43924(10) 0.56405(12) 0.87932(10)
O2_3 O 0.78684(8) 0.55572(11) 0.93075(10)
C6_3 C 0.47908(12) 0.44346(13) 0.73542(11)
H1_3 H 0.5071 0.4089 0.7575
C7_3 C 0.75285(10) 0.58751(13) 0.95490(11)
C10_3 C 0.36744(11) 0.67093(14) 0.90773(11)
C11_3 C 0.41748(11) 0.36575(13) 0.84952(12)
H3_3 H 0.3900 0.3863 0.8139
C12_3 C 0.66709(11) 0.51790(15) 0.88176(14)
H4_3 H 0.6934 0.5020 0.8621
O3_3 O 0.47421(12) 0.15463(12) 0.97317(11)
C13_3 C 0.58920(11) 0.56142(14) 0.94134(12)
H5_3 H 0.5635 0.5755 0.9623
C15_3 C 0.45733(10) 0.49454(12) 0.76766(10)
C16_3 C 0.39538(11) 0.54528(14) 0.90483(12)
H7_3 H 0.3897 0.4965 0.9125
C17_3 C 0.49953(13) 0.30156(15) 0.95232(12)
H8_3 H 0.5279 0.2792 0.9863
C18_3 C 0.45983(12) 0.44305(14) 0.67122(11)
H9_3 H 0.4757 0.4092 0.6508
C20_3 C 0.64956(11) 0.58201(14) 0.96446(12)
C21_3 C 0.51191(12) 0.36893(15) 0.93282(11)
H12_3 H 0.5481 0.3922 0.9546
C23_3 C 0.39409(14) 0.54257(15) 0.66866(12)
H14_3 H 0.3648 0.5756 0.6462
C24_3 C 0.41400(12) 0.54402(14) 0.73274(11)
H15_3 H 0.3983 0.5784 0.7528
C25_3 C 0.44661(12) 0.63830(14) 0.86961(12)
H16_3 H 0.4761 0.6526 0.8535
C26_3 C 0.40419(11) 0.29938(14) 0.87002(13)
H17_3 H 0.3676 0.2765 0.8490
C27_3 C 0.44516(12) 0.26699(13) 0.92168(12)
C28_3 C 0.43284(15) 0.19408(15) 0.94351(13)
O4_3 O 0.34379(13) 0.79300(12) 0.92329(14)
C30_3 C 0.36009(12) 0.59803(15) 0.91888(12)
H19_3 H 0.3311 0.5844 0.9360
O5_3 O 0.36637(14) 0.54475(13) 0.53909(10)
C31_3 C 0.39624(14) 0.49334(14) 0.56807(12)
C32_3 C 0.41730(12) 0.49254(13) 0.63764(11)
C34_3 C 0.60695(11) 0.49855(14) 0.85845(13)
H21_3 H 0.5931 0.4705 0.8226
C35_3 C 0.32974(13) 0.72782(16) 0.92476(13)
C36_3 C 0.41136(13) 0.69051(14) 0.88330(12)
H22_3 H 0.4171 0.7394 0.8761
O10_2 O 0.37742(10) 0.17477(10) 0.92824(11)
O11_3 O 0.89866(11) 0.51944(12) 0.89224(11)
H28_3 H 0.9143 0.4990 0.9396
H29_3 H 0.8836 0.5406 0.8572
Si2_3 Si 0.01568(3) 0.49518(3) 0.64560(3)
C38_3 C 0.02926(10) 0.40276(12) 0.61938(10)
C41_3 C 0.06076(10) 0.56405(12) 0.62068(10)
C42_3 C 0.02092(12) 0.44346(13) 0.76458(11)
C44_3 C 0.13256(11) 0.67093(14) 0.59227(11)
C45_3 C 0.08252(11) 0.36575(13) 0.65048(12)
H31_3 H 0.1100 0.3863 0.6861
O14_3 O 0.02579(12) 0.15463(12) 0.52683(11)
C48_3 C 0.04267(10) 0.49454(12) 0.73234(10)
C49_3 C 0.10462(11) 0.54528(14) 0.59517(12)
H34_3 H 0.1103 0.4965 0.5875
C50_3 C 0.00047(13) 0.30156(15) 0.54768(12)
C51_3 C 0.04017(12) 0.44305(14) 0.82878(11)
H36_3 H 0.0243 0.4092 0.8492
C54_3 C 0.10591(14) 0.54257(15) 0.83134(12)
H39_3 H 0.1352 0.5756 0.8538
C55_3 C 0.08600(12) 0.54402(14) 0.76726(11)
H40_3 H 0.1017 0.5784 0.7472
C56_3 C 0.05339(12) 0.63830(14) 0.63039(12)
H41_3 H 0.0239 0.6526 0.6465
C57_3 C 0.09581(11) 0.29938(14) 0.62998(13)
H42_3 H 0.1324 0.2765 0.6510
C58_3 C 0.05484(12) 0.26699(13) 0.57832(12)
C59_3 C 0.06716(15) 0.19408(15) 0.55649(13)
O15_3 O 0.15621(13) 0.79300(12) 0.57671(14)
C60_3 C 0.13991(12) 0.59803(15) 0.58112(12)
H43_3 H 0.1689 0.5844 0.5640
O16_3 O 0.13363(14) 0.54475(13) 0.96091(10)
C61_3 C 0.10376(14) 0.49334(14) 0.93193(12)
C62_3 C 0.08270(12) 0.49254(13) 0.86236(11)
C64_3 C 0.17026(13) 0.72782(16) 0.57524(13)
C65_3 C 0.08864(13) 0.69051(14) 0.61670(12)
H45_3 H 0.0829 0.7394 0.6239
O19_2 O 0.12258(10) 0.17477(10) 0.57176(11)
O28_2 O 0.87742(10) 0.67477(10) 0.92824(11)
C39_3 C 0.93364(10) 0.52013(12) 0.61259(11)
C40_3 C 0.81142(10) 0.56087(12) 0.56564(11)
O13_3 O 0.71316(8) 0.55572(11) 0.56925(10)
H30_2 H 0.9929 0.4089 0.7425
C43_3 C 0.74715(10) 0.58751(13) 0.54510(11)
C46_3 C 0.83291(11) 0.51790(15) 0.61824(14)
H32_3 H 0.8066 0.5020 0.6379
C47_3 C 0.91080(11) 0.56142(14) 0.55866(12)
H33_3 H 0.9365 0.5755 0.5377
H35_2 H 0.9721 0.2792 0.5137
C52_3 C 0.85044(11) 0.58201(14) 0.53554(12)
H37_3 H 0.8362 0.6101 0.4997
C53_2 C 0.98809(12) 0.36893(15) 0.56718(11)
H38_2 H 0.9519 0.3922 0.5454
C63_2 C 0.89305(11) 0.49855(14) 0.64155(13)
H44_2 H 0.9069 0.4705 0.6774
O20_3 O 0.60134(11) 0.51944(12) 0.60776(11)
H46_2 H 0.5857 0.4990 0.5604
H47_3 H 0.6164 0.5406 0.6428
O27_2 O 0.62258(10) 0.67477(10) 0.57176(11)
H37_4 H 0.1638 0.1101 0.0003
C39_4 C 0.06636(10) 0.02013(12) 0.88741(11)
C40_4 C 0.18858(10) 0.06087(12) 0.93436(11)
O13_4 O 0.28684(8) 0.05572(11) 0.93075(10)
C43_4 C 0.25285(10) 0.08751(13) 0.95490(11)
C46_4 C 0.16709(11) 0.01790(15) 0.88176(14)
H32_4 H 0.1934 0.0020 0.8621
C47_4 C 0.08920(11) 0.06142(14) 0.94134(12)
H33_4 H 0.0635 0.0755 0.9623
C52_4 C 0.14956(11) 0.08201(14) 0.96446(12)
O20_4 O 0.39866(11) 0.01944(12) 0.89224(11)
H47_4 H 0.3836 0.0406 0.8572
C2_4 C 0.43364(10) 0.02013(12) 0.61259(11)
C3_4 C 0.31142(10) 0.06087(12) 0.56564(11)
C5_4 C 0.56076(10) 0.06405(12) 0.62068(10)
O2_4 O 0.21316(8) 0.05572(11) 0.56925(10)
C7_4 C 0.24715(10) 0.08751(13) 0.54510(11)
C10_4 C 0.63256(11) 0.17093(14) 0.59227(11)
C12_4 C 0.33291(11) 0.01790(15) 0.61824(14)
H4_4 H 0.3066 0.0020 0.6379
C13_4 C 0.41080(11) 0.06142(14) 0.55866(12)
H5_4 H 0.4365 0.0755 0.5377
C16_4 C 0.60462(11) 0.04528(14) 0.59517(12)
C20_4 C 0.35044(11) 0.08201(14) 0.53554(12)
H11_4 H 0.3362 0.1101 0.4997
C23_4 C 0.60591(14) 0.04257(15) 0.83134(12)
H14_4 H 0.6352 0.0756 0.8538
C24_4 C 0.58600(12) 0.04402(14) 0.76726(11)
H15_4 H 0.6017 0.0784 0.7472
C25_4 C 0.55339(12) 0.13830(14) 0.63039(12)
H16_4 H 0.5239 0.1526 0.6465
O4_4 O 0.65621(13) 0.29300(12) 0.57671(14)
C30_4 C 0.63991(12) 0.09803(15) 0.58112(12)
H19_4 H 0.6689 0.0844 0.5640
O5_4 O 0.63363(14) 0.04475(13) 0.96091(10)
C35_4 C 0.67026(13) 0.22782(16) 0.57524(13)
C36_4 C 0.58864(13) 0.19051(14) 0.61670(12)
H22_4 H 0.5829 0.2394 0.6239
O11_4 O 0.10134(11) 0.01944(12) 0.60776(11)
H29_4 H 0.1164 0.0406 0.6428
C41_4 C 0.93924(10) 0.06405(12) 0.87932(10)
C44_4 C 0.86744(11) 0.17093(14) 0.90773(11)
C49_4 C 0.89538(11) 0.04528(14) 0.90483(12)
C54_4 C 0.89409(14) 0.04257(15) 0.66866(12)
H39_4 H 0.8648 0.0756 0.6462
C55_4 C 0.91400(12) 0.04402(14) 0.73274(11)
H40_4 H 0.8983 0.0784 0.7528
C56_4 C 0.94661(12) 0.13830(14) 0.86961(12)
H41_4 H 0.9761 0.1526 0.8535
O15_4 O 0.84379(13) 0.29300(12) 0.92329(14)
C60_4 C 0.86009(12) 0.09803(15) 0.91888(12)
H43_4 H 0.8311 0.0844 0.9360
O16_4 O 0.86637(14) 0.04475(13) 0.53909(10)
C64_4 C 0.82974(13) 0.22782(16) 0.92476(13)
C65_4 C 0.91136(13) 0.19051(14) 0.88330(12)
H45_4 H 0.9171 0.2394 0.8761
Si1_4 Si 0.51568(3) 0.99518(3) 0.64560(3)
C1_4 C 0.52926(10) 0.90276(12) 0.61938(10)
C6_4 C 0.52092(12) 0.94346(13) 0.76458(11)
H1_4 H 0.4929 0.9089 0.7425
C11_4 C 0.58252(11) 0.86575(13) 0.65048(12)
H3_4 H 0.6100 0.8863 0.6861
O3_4 O 0.52579(12) 0.65463(12) 0.52683(11)
C15_4 C 0.54267(10) 0.99454(12) 0.73234(10)
H7_4 H 0.6103 0.9965 0.5875
C17_4 C 0.50047(13) 0.80156(15) 0.54768(12)
H8_4 H 0.4721 0.7792 0.5137
C18_4 C 0.54017(12) 0.94305(14) 0.82878(11)
H9_4 H 0.5243 0.9092 0.8492
C21_4 C 0.48809(12) 0.86893(15) 0.56718(11)
H12_4 H 0.4519 0.8922 0.5454
C26_4 C 0.59581(11) 0.79938(14) 0.62998(13)
H17_4 H 0.6324 0.7765 0.6510
C27_4 C 0.55484(12) 0.76699(13) 0.57832(12)
C28_4 C 0.56716(15) 0.69408(15) 0.55649(13)
C31_4 C 0.60376(14) 0.99334(14) 0.93193(12)
C32_4 C 0.58270(12) 0.99254(13) 0.86236(11)
C34_4 C 0.39305(11) 0.99855(14) 0.64155(13)
H21_4 H 0.4069 0.9705 0.6774
H28_4 H 0.0857 0.9990 0.5604
Si2_4 Si 0.98432(3) 0.99518(3) 0.85440(3)
C38_4 C 0.97074(10) 0.90276(12) 0.88062(10)
C42_4 C 0.97908(12) 0.94346(13) 0.73542(11)
C45_4 C 0.91748(11) 0.86575(13) 0.84952(12)
H31_4 H 0.8900 0.8863 0.8139
O14_4 O 0.97421(12) 0.65463(12) 0.97317(11)
C48_4 C 0.95733(10) 0.99454(12) 0.76766(10)
H34_4 H 0.8897 0.9965 0.9125
C50_4 C 0.99953(13) 0.80156(15) 0.95232(12)
C51_4 C 0.95983(12) 0.94305(14) 0.67122(11)
H36_4 H 0.9757 0.9092 0.6508
C57_4 C 0.90419(11) 0.79938(14) 0.87002(13)
H42_4 H 0.8676 0.7765 0.8490
C58_4 C 0.94516(12) 0.76699(13) 0.92168(12)
C59_4 C 0.93284(15) 0.69408(15) 0.94351(13)
C61_4 C 0.89624(14) 0.99334(14) 0.56807(12)
C62_4 C 0.91730(12) 0.99254(13) 0.63764(11)
H30_3 H 0.9929 0.0911 0.2425
H35_3 H 0.9721 0.2208 0.0137
C53_3 C 0.98809(12) 0.13107(15) 0.06718(11)
H38_3 H 0.9519 0.1078 0.0454
C63_3 C 0.89305(11) 0.00145(14) 0.14155(13)
H44_3 H 0.9069 0.0295 0.1774
H46_3 H 0.5857 0.0010 0.0604
H30_4 H 0.0071 0.9089 0.7575
H35_4 H 0.0279 0.7792 0.9863
C53_4 C 0.01191(12) 0.86893(15) 0.93282(11)
H38_4 H 0.0481 0.8922 0.9546
C63_4 C 0.10695(11) 0.99855(14) 0.85845(13)
H44_4 H 0.0931 0.9705 0.8226
H46_4 H 0.4143 0.9990 0.9396
loop_
_geom_bond_atom_site_label_1
_geom_bond_atom_site_label_2
_geom_bond_site_symmetry_1
_geom_bond_site_symmetry_2
Co4 O13 1_555 1_555
O12 C43 1_555 1_555
C40 C43 1_555 1_555
O13 C43 1_555 1_555
C46 C40 1_555 1_555
H32 C46 1_555 1_555
C47 C39 1_555 1_555
H33 C47 1_555 1_555
C52 C40 1_555 1_555
H37 C52 1_555 1_555
H38 C53 1_555 1_555
C63 C39 1_555 1_555
H44 C63 1_555 1_555
O20 Co4 1_555 1_555
H46 O20 1_555 1_555
H47 O20 1_555 1_555
N8 C67 1_555 1_555
C67 C68 1_555 1_555
N9 C70 1_555 1_555
C69 N8 1_555 1_555
H49 C69 1_555 1_555
C70 C67 1_555 1_555
H50 C70 1_555 1_555
N11 C69 1_555 1_555
N12 N8 1_555 1_555
C73 N11 1_555 1_555
H53 C73 1_555 1_555
Co10_2 N11 1_555 1_555
Co11 O12 1_555 1_555
O25 Co4 1_555 1_555
O27 Co4 1_555 1_555
C46 C63 1_555 1_555
C47 C52 1_555 1_555
N9 C72 1_555 1_555
N12 C73 1_555 1_555
Co1 O2 1_555 1_555
Co2 N7 1_555 1_555
Co10 O1 1_555 1_555
Si1 C1 1_555 1_555
C1 C11 1_555 1_555
N1 C8 1_555 1_555
O1 C7 1_555 1_555
C2 Si1 1_555 1_555
C3 C7 1_555 1_555
C4 C9 1_555 1_555
C5 Si1 1_555 1_555
O2 C7 1_555 1_555
C6 H1 1_555 1_555
C8 C9 1_555 1_555
N2 C19 1_555 1_555
C9 H2 1_555 1_555
C10 C30 1_555 1_555
N3 C4 1_555 1_555
C11 H3 1_555 1_555
C12 C3 1_555 1_555
H4 C12 1_555 1_555
O3 C28 1_555 1_555
C13 C2 1_555 1_555
H5 C13 1_555 1_555
C14 N1 1_555 1_555
H6 C14 1_555 1_555
C15 Si1 1_555 1_555
C16 C5 1_555 1_555
H7 C16 1_555 1_555
C17 H8 1_555 1_555
C18 C6 1_555 1_555
H9 C18 1_555 1_555
C19 C8 1_555 1_555
H10 C19 1_555 1_555
C20 C3 1_555 1_555
C21 C1 1_555 1_555
H12 C21 1_555 1_555
C22 N3 1_555 1_555
H13 C22 1_555 1_555
C23 H14 1_555 1_555
C24 C15 1_555 1_555
H15 C24 1_555 1_555
N4 Co10 1_555 1_555
C25 C5 1_555 1_555
H16 C25 1_555 1_555
C26 C11 1_555 1_555
H17 C26 1_555 1_555
C27 C17 1_555 1_555
C28 C27 1_555 1_555
O4 C35 1_555 1_555
N5 N1 1_555 1_555
N6 N3 1_555 1_555
C29 C4 1_555 1_555
H18 C29 1_555 1_555
C30 C16 1_555 1_555
H19 C30 1_555 1_555
O5 C31 1_555 1_555
N7 C22 1_555 1_555
C31 C32 1_555 1_555
C32 C18 1_555 1_555
C33 N4 1_555 1_555
H20 C33 1_555 1_555
C34 C2 1_555 1_555
H21 C34 1_555 1_555
C35 C10 1_555 1_555
C36 C10 1_555 1_555
H22 C36 1_555 1_555
C37 N6 1_555 1_555
H23 C37 1_555 1_555
O6 Co2 1_555 1_555
H24 O6 1_555 1_555
H25 O6 1_555 1_555
O7 C35 1_555 1_555
O8 Co10 1_555 1_555
H26 O8 1_555 1_555
H27 O8 1_555 1_555
O9 C31 1_555 1_555
O10 C28 1_555 1_555
O11 Co1 1_555 1_555
H28 O11 1_555 1_555
H29 O11 1_555 1_555
Si2 C38 1_555 1_555
C38 C45 1_555 1_555
C41 Si2 1_555 1_555
C44 C60 1_555 1_555
C45 H31 1_555 1_555
O14 C59 1_555 1_555
C48 Si2 1_555 1_555
C49 C41 1_555 1_555
H34 C49 1_555 1_555
C51 C42 1_555 1_555
H36 C51 1_555 1_555
C54 H39 1_555 1_555
C55 C48 1_555 1_555
H40 C55 1_555 1_555
C56 C41 1_555 1_555
H41 C56 1_555 1_555
C57 C45 1_555 1_555
H42 C57 1_555 1_555
C58 C50 1_555 1_555
C59 C58 1_555 1_555
O15 C64 1_555 1_555
C60 C49 1_555 1_555
H43 C60 1_555 1_555
O16 C61 1_555 1_555
C61 C62 1_555 1_555
C62 C51 1_555 1_555
C64 C44 1_555 1_555
C65 C44 1_555 1_555
H45 C65 1_555 1_555
O17 Co2 1_555 1_555
O18 C61 1_555 1_555
O19 C59 1_555 1_555
N10 C66 1_555 1_555
C71 N10 1_555 1_555
H51 C71 1_555 1_555
N13 N10 1_555 1_555
N14 Co2 1_555 1_555
C74 N13 1_555 1_555
H54 C74 1_555 1_555
O21 Co2 1_555 1_555
H55 O21 1_555 1_555
H56 O21 1_555 1_555
Co5 O19 1_555 1_555
Co6 O10 1_555 1_555
Co8 O9 1_555 1_555
Co9 O7 1_555 1_555
O24 Co2 1_555 1_555
O28 Co1 1_555 1_555
C6 C15 1_555 1_555
N2 C29 1_555 1_555
C12 C34 1_555 1_555
C13 C20 1_555 1_555
C14 N4 1_555 1_555
C17 C21 1_555 1_555
C23 C24 1_555 1_555
C23 C32 1_555 1_555
C25 C36 1_555 1_555
C26 C27 1_555 1_555
N5 C33 1_555 1_555
N7 C37 1_555 1_555
C42 C48 1_555 1_555
C54 C55 1_555 1_555
C54 C62 1_555 1_555
C56 C65 1_555 1_555
C57 C58 1_555 1_555
C64 O17 1_555 1_555
C71 N14 1_555 1_555
N14 C74 1_555 1_555
O22 Co10_2 1_555 1_555
H57 O22 1_555 1_555
H58 O22 1_555 1_555
O23 Co10_2 1_555 1_555
Si1_2 C1_2 1_555 1_555
C1_2 C11_2 1_555 1_555
C6_2 H1_2 1_555 1_555
C11_2 H3_2 1_555 1_555
O3_2 C28_2 1_555 1_555
C15_2 Si1_2 1_555 1_555
C17_2 H8_2 1_555 1_555
C18_2 C6_2 1_555 1_555
H9_2 C18_2 1_555 1_555
C21_2 C1_2 1_555 1_555
H12_2 C21_2 1_555 1_555
C26_2 C11_2 1_555 1_555
H17_2 C26_2 1_555 1_555
C27_2 C17_2 1_555 1_555
C28_2 C27_2 1_555 1_555
C31_2 C32_2 1_555 1_555
C32_2 C18_2 1_555 1_555
H21_2 C34_2 1_555 1_555
O9_2 C31_2 1_555 1_555
O27 C28_2 1_555 1_555
Si2_2 C38_2 1_555 1_555
C38_2 C45_2 1_555 1_555
C45_2 H31_2 1_555 1_555
O14_2 C59_2 1_555 1_555
C48_2 Si2_2 1_555 1_555
C51_2 C42_2 1_555 1_555
H36_2 C51_2 1_555 1_555
C57_2 C45_2 1_555 1_555
H42_2 C57_2 1_555 1_555
C58_2 C50_2 1_555 1_555
C59_2 C58_2 1_555 1_555
C61_2 C62_2 1_555 1_555
C62_2 C51_2 1_555 1_555
O18_2 C61_2 1_555 1_555
O28 C59_2 1_555 1_555
Co7_2 O18_2 1_555 1_555
C6_2 C15_2 1_555 1_555
C17_2 C21_2 1_555 1_555
C26_2 C27_2 1_555 1_555
C42_2 C48_2 1_555 1_555
C57_2 C58_2 1_555 1_555
Co5 O2_2 1_555 1_555
Co2_2 N7_2 1_555 1_555
Co3 O1_2 1_555 1_555
N1_2 C8_2 1_555 1_555
O1_2 C7_2 1_555 1_555
C3_2 C7_2 1_555 1_555
C4_2 C9_2 1_555 1_555
O2_2 C7_2 1_555 1_555
C8_2 C9_2 1_555 1_555
N2_2 C19_2 1_555 1_555
C9_2 H2_2 1_555 1_555
C10_2 C30_2 1_555 1_555
N3_2 C4_2 1_555 1_555
C12_2 C3_2 1_555 1_555
H4_2 C12_2 1_555 1_555
C13_2 C2_2 1_555 1_555
H5_2 C13_2 1_555 1_555
C14_2 N1_2 1_555 1_555
H6_2 C14_2 1_555 1_555
C16_2 C5_2 1_555 1_555
C19_2 C8_2 1_555 1_555
H10_2 C19_2 1_555 1_555
C20_2 C3_2 1_555 1_555
H11_2 C20_2 1_555 1_555
C22_2 N3_2 1_555 1_555
H13_2 C22_2 1_555 1_555
C23_2 H14_2 1_555 1_555
H15_2 C24_2 1_555 1_555
N4_2 Co3 1_555 1_555
C25_2 C5_2 1_555 1_555
H16_2 C25_2 1_555 1_555
O4_2 C35_2 1_555 1_555
N5_2 N1_2 1_555 1_555
N6_2 N3_2 1_555 1_555
C29_2 C4_2 1_555 1_555
H18_2 C29_2 1_555 1_555
C30_2 C16_2 1_555 1_555
H19_2 C30_2 1_555 1_555
N7_2 C22_2 1_555 1_555
C33_2 N4_2 1_555 1_555
H20_2 C33_2 1_555 1_555
C35_2 C10_2 1_555 1_555
C36_2 C10_2 1_555 1_555
H22_2 C36_2 1_555 1_555
C37_2 N6_2 1_555 1_555
H23_2 C37_2 1_555 1_555
O6_2 Co2_2 1_555 1_555
H25_2 O6_2 1_555 1_555
O7_2 C35_2 1_555 1_555
O8_2 Co3 1_555 1_555
H26_2 O8_2 1_555 1_555
H27_2 O8_2 1_555 1_555
O11_2 Co5 1_555 1_555
H29_2 O11_2 1_555 1_555
C44_2 C60_2 1_555 1_555
C49_2 C41_2 1_555 1_555
C54_2 H39_2 1_555 1_555
H40_2 C55_2 1_555 1_555
C56_2 C41_2 1_555 1_555
H41_2 C56_2 1_555 1_555
O15_2 C64_2 1_555 1_555
C60_2 C49_2 1_555 1_555
H43_2 C60_2 1_555 1_555
C64_2 C44_2 1_555 1_555
C65_2 C44_2 1_555 1_555
H45_2 C65_2 1_555 1_555
O17_2 Co2_2 1_555 1_555
O22_2 Co3 1_555 1_555
H57_2 O22_2 1_555 1_555
H58_2 O22_2 1_555 1_555
Co9_3 O7_2 1_555 1_555
O23_2 Co3 1_555 1_555
N15 Co3 1_555 1_555
O26_2 Co5 1_555 1_555
N2_2 C29_2 1_555 1_555
C13_2 C20_2 1_555 1_555
C14_2 N4_2 1_555 1_555
C23_2 C24_2 1_555 1_555
C25_2 C36_2 1_555 1_555
N5_2 C33_2 1_555 1_555
N7_2 C37_2 1_555 1_555
C54_2 C55_2 1_555 1_555
C56_2 C65_2 1_555 1_555
C64_2 O17_2 1_555 1_555
N10_2 C66_2 1_555 1_555
C71_2 N10_2 1_555 1_555
H51_2 C71_2 1_555 1_555
N13_2 N10_2 1_555 1_555
N14_2 Co2_3 1_555 1_555
C74_2 N13_2 1_555 1_555
H54_2 C74_2 1_555 1_555
O21_2 Co2_3 1_555 1_555
H56_2 O21_2 1_555 1_555
O24_2 Co2_3 1_555 1_555
C71_2 N14_2 1_555 1_555
N14_2 C74_2 1_555 1_555
Co6 O13_2 1_555 1_555
O12_2 C43_2 1_555 1_555
C40_2 C43_2 1_555 1_555
O13_2 C43_2 1_555 1_555
C46_2 C40_2 1_555 1_555
H32_2 C46_2 1_555 1_555
C47_2 C39_2 1_555 1_555
H33_2 C47_2 1_555 1_555
C52_2 C40_2 1_555 1_555
O20_2 Co6 1_555 1_555
H47_2 O20_2 1_555 1_555
Co11_2 O12_2 1_555 1_555
C47_2 C52_2 1_555 1_555
N8_2 C67_2 1_555 1_555
C67_2 C68_2 1_555 1_555
N9_2 C70_2 1_555 1_555
C69_2 N8_2 1_555 1_555
H49_2 C69_2 1_555 1_555
C70_2 C67_2 1_555 1_555
H50_2 C70_2 1_555 1_555
N15 C69_2 1_555 1_555
N12_2 N8_2 1_555 1_555
C73_2 N15 1_555 1_555
H53_2 C73_2 1_555 1_555
N9_2 C72_2 1_555 1_555
N12_2 C73_2 1_555 1_555
Co9_3 N7_3 1_555 1_555
N3_3 C4_3 1_555 1_555
C22_3 N3_3 1_555 1_555
H13_3 C22_3 1_555 1_555
N6_3 N3_3 1_555 1_555
N7_3 C22_3 1_555 1_555
C37_3 N6_3 1_555 1_555
H23_3 C37_3 1_555 1_555
O6_3 Co9_3 1_555 1_555
H24_3 O6_3 1_555 1_555
H25_3 O6_3 1_555 1_555
N8_3 C67_3 1_555 1_555
C66_3 C68_3 1_555 1_555
C67_3 C68_3 1_555 1_555
N9_3 C70_3 1_555 1_555
C68_3 H48_3 1_555 1_555
N10_3 C66_3 1_555 1_555
C69_3 N8_3 1_555 1_555
H49_3 C69_3 1_555 1_555
C70_3 C67_3 1_555 1_555
H50_3 C70_3 1_555 1_555
C71_3 N10_3 1_555 1_555
H51_3 C71_3 1_555 1_555
N11_2 C69_3 1_555 1_555
N12_3 N8_3 1_555 1_555
N13_3 N10_3 1_555 1_555
C72_3 C66_3 1_555 1_555
H52_3 C72_3 1_555 1_555
N14_3 Co9_3 1_555 1_555
C73_3 N11_2 1_555 1_555
H53_3 C73_3 1_555 1_555
C74_3 N13_3 1_555 1_555
H54_3 C74_3 1_555 1_555
O21_3 Co9_3 1_555 1_555
H55_3 O21_3 1_555 1_555
H56_3 O21_3 1_555 1_555
Co11_3 N11_2 1_555 1_555
O24_3 Co9_3 1_555 1_555
N7_3 C37_3 1_555 1_555
N9_3 C72_3 1_555 1_555
C71_3 N14_3 1_555 1_555
N12_3 C73_3 1_555 1_555
N14_3 C74_3 1_555 1_555
N1_3 C8_3 1_555 1_555
C8_3 C9_3 1_555 1_555
N2_3 C19_3 1_555 1_555
C14_3 N1_3 1_555 1_555
H6_3 C14_3 1_555 1_555
C19_3 C8_3 1_555 1_555
H10_3 C19_3 1_555 1_555
N4_3 Co11_2 1_555 1_555
N5_3 N1_3 1_555 1_555
C33_3 N4_3 1_555 1_555
H20_3 C33_3 1_555 1_555
O8_3 Co11_2 1_555 1_555
H26_3 O8_3 1_555 1_555
H27_3 O8_3 1_555 1_555
N2_3 C29_3 1_555 1_555
C14_3 N4_3 1_555 1_555
N5_3 C33_3 1_555 1_555
O22_3 Co11_3 1_555 1_555
H57_3 O22_3 1_555 1_555
H58_3 O22_3 1_555 1_555
O23_3 Co11_3 1_555 1_555
N1_4 C8_4 1_555 1_555
C8_4 C9_4 1_555 1_555
N2_4 C19_4 1_555 1_555
C14_4 N1_4 1_555 1_555
H6_4 C14_4 1_555 1_555
C19_4 C8_4 1_555 1_555
H10_4 C19_4 1_555 1_555
N4_4 Co11 1_555 1_555
N5_4 N1_4 1_555 1_555
C33_4 N4_4 1_555 1_555
H20_4 C33_4 1_555 1_555
O8_4 Co11 1_555 1_555
H26_4 O8_4 1_555 1_555
H27_4 O8_4 1_555 1_555
O22_4 Co11 1_555 1_555
H57_4 O22_4 1_555 1_555
H58_4 O22_4 1_555 1_555
O23_4 Co11 1_555 1_555
N15_2 Co11 1_555 1_555
N2_4 C29_4 1_555 1_555
C14_4 N4_4 1_555 1_555
N5_4 C33_4 1_555 1_555
Co9 N7_4 1_555 1_555
N3_4 C4_4 1_555 1_555
C22_4 N3_4 1_555 1_555
H13_4 C22_4 1_555 1_555
N6_4 N3_4 1_555 1_555
N7_4 C22_4 1_555 1_555
C37_4 N6_4 1_555 1_555
H23_4 C37_4 1_555 1_555
O6_4 Co9 1_555 1_555
H25_4 O6_4 1_555 1_555
N7_4 C37_4 1_555 1_555
N8_4 C67_4 1_555 1_555
C66_4 C68_4 1_555 1_555
C67_4 C68_4 1_555 1_555
N9_4 C70_4 1_555 1_555
C68_4 H48_4 1_555 1_555
N10_4 C66_4 1_555 1_555
C69_4 N8_4 1_555 1_555
H49_4 C69_4 1_555 1_555
C70_4 C67_4 1_555 1_555
H50_4 C70_4 1_555 1_555
C71_4 N10_4 1_555 1_555
H51_4 C71_4 1_555 1_555
N15_2 C69_4 1_555 1_555
N12_4 N8_4 1_555 1_555
N13_4 N10_4 1_555 1_555
C72_4 C66_4 1_555 1_555
H52_4 C72_4 1_555 1_555
N14_4 Co9_2 1_555 1_555
C73_4 N15_2 1_555 1_555
H53_4 C73_4 1_555 1_555
C74_4 N13_4 1_555 1_555
H54_4 C74_4 1_555 1_555
O21_4 Co9_2 1_555 1_555
H56_4 O21_4 1_555 1_555
O24_4 Co9_2 1_555 1_555
N9_4 C72_4 1_555 1_555
C71_4 N14_4 1_555 1_555
N12_4 C73_4 1_555 1_555
N14_4 C74_4 1_555 1_555
Co7 O2_3 1_555 1_555
Si1_3 C1_3 1_555 1_555
C1_3 C11_3 1_555 1_555
O23_3 C7_3 1_555 1_555
C2_3 Si1_3 1_555 1_555
C3_3 C7_3 1_555 1_555
C5_3 Si1_3 1_555 1_555
O2_3 C7_3 1_555 1_555
C6_3 H1_3 1_555 1_555
C10_3 C30_3 1_555 1_555
C11_3 H3_3 1_555 1_555
C12_3 C3_3 1_555 1_555
H4_3 C12_3 1_555 1_555
O3_3 C28_3 1_555 1_555
C13_3 C2_3 1_555 1_555
H5_3 C13_3 1_555 1_555
C15_3 Si1_3 1_555 1_555
C16_3 C5_3 1_555 1_555
H7_3 C16_3 1_555 1_555
C17_3 H8_3 1_555 1_555
C18_3 C6_3 1_555 1_555
H9_3 C18_3 1_555 1_555
C20_3 C3_3 1_555 1_555
C21_3 C1_3 1_555 1_555
H12_3 C21_3 1_555 1_555
C23_3 H14_3 1_555 1_555
C24_3 C15_3 1_555 1_555
H15_3 C24_3 1_555 1_555
C25_3 C5_3 1_555 1_555
H16_3 C25_3 1_555 1_555
C26_3 C11_3 1_555 1_555
H17_3 C26_3 1_555 1_555
C27_3 C17_3 1_555 1_555
C28_3 C27_3 1_555 1_555
O4_3 C35_3 1_555 1_555
C30_3 C16_3 1_555 1_555
H19_3 C30_3 1_555 1_555
O5_3 C31_3 1_555 1_555
C31_3 C32_3 1_555 1_555
C32_3 C18_3 1_555 1_555
C34_3 C2_3 1_555 1_555
H21_3 C34_3 1_555 1_555
C35_3 C10_3 1_555 1_555
C36_3 C10_3 1_555 1_555
H22_3 C36_3 1_555 1_555
O24_2 C35_3 1_555 1_555
O25 C31_3 1_555 1_555
O10_2 C28_3 1_555 1_555
O11_3 Co7 1_555 1_555
H28_3 O11_3 1_555 1_555
H29_3 O11_3 1_555 1_555
Si2_3 C38_3 1_555 1_555
C38_3 C45_3 1_555 1_555
C41_3 Si2_3 1_555 1_555
C44_3 C60_3 1_555 1_555
C45_3 H31_3 1_555 1_555
O14_3 C59_3 1_555 1_555
C48_3 Si2_3 1_555 1_555
C49_3 C41_3 1_555 1_555
H34_3 C49_3 1_555 1_555
C51_3 C42_3 1_555 1_555
H36_3 C51_3 1_555 1_555
C54_3 H39_3 1_555 1_555
C55_3 C48_3 1_555 1_555
H40_3 C55_3 1_555 1_555
C56_3 C41_3 1_555 1_555
H41_3 C56_3 1_555 1_555
C57_3 C45_3 1_555 1_555
H42_3 C57_3 1_555 1_555
C58_3 C50_3 1_555 1_555
C59_3 C58_3 1_555 1_555
O15_3 C64_3 1_555 1_555
C60_3 C49_3 1_555 1_555
H43_3 C60_3 1_555 1_555
O16_3 C61_3 1_555 1_555
C61_3 C62_3 1_555 1_555
C62_3 C51_3 1_555 1_555
C64_3 C44_3 1_555 1_555
C65_3 C44_3 1_555 1_555
H45_3 C65_3 1_555 1_555
O26 C61_3 1_555 1_555
O19_2 C59_3 1_555 1_555
Co7_2 O19_2 1_555 1_555
Co8_2 O10_2 1_555 1_555
O28_2 Co7 1_555 1_555
C6_3 C15_3 1_555 1_555
C12_3 C34_3 1_555 1_555
C13_3 C20_3 1_555 1_555
C17_3 C21_3 1_555 1_555
C23_3 C24_3 1_555 1_555
C23_3 C32_3 1_555 1_555
C25_3 C36_3 1_555 1_555
C26_3 C27_3 1_555 1_555
C42_3 C48_3 1_555 1_555
C54_3 C55_3 1_555 1_555
C54_3 C62_3 1_555 1_555
C56_3 C65_3 1_555 1_555
C57_3 C58_3 1_555 1_555
C64_3 O24_3 1_555 1_555
Co8 O13_3 1_555 1_555
O23_2 C43_3 1_555 1_555
C40_3 C43_3 1_555 1_555
O13_3 C43_3 1_555 1_555
C46_3 C40_3 1_555 1_555
H32_3 C46_3 1_555 1_555
C47_3 C39_3 1_555 1_555
H33_3 C47_3 1_555 1_555
C52_3 C40_3 1_555 1_555
H37_3 C52_3 1_555 1_555
H38_2 C53_2 1_555 1_555
C63_2 C39_3 1_555 1_555
H44_2 C63_2 1_555 1_555
O20_3 Co8 1_555 1_555
H46_2 O20_3 1_555 1_555
H47_3 O20_3 1_555 1_555
O27_2 Co8 1_555 1_555
C46_3 C63_2 1_555 1_555
C47_3 C52_3 1_555 1_555
Co8_2 O13_4 1_555 1_555
O23 C43_4 1_555 1_555
C40_4 C43_4 1_555 1_555
O13_4 C43_4 1_555 1_555
C46_4 C40_4 1_555 1_555
H32_4 C46_4 1_555 1_555
C47_4 C39_4 1_555 1_555
H33_4 C47_4 1_555 1_555
C52_4 C40_4 1_555 1_555
O20_4 Co8_2 1_555 1_555
H47_4 O20_4 1_555 1_555
C47_4 C52_4 1_555 1_555
Co7_2 O2_4 1_555 1_555
O23_4 C7_4 1_555 1_555
C3_4 C7_4 1_555 1_555
O2_4 C7_4 1_555 1_555
C10_4 C30_4 1_555 1_555
C12_4 C3_4 1_555 1_555
H4_4 C12_4 1_555 1_555
C13_4 C2_4 1_555 1_555
H5_4 C13_4 1_555 1_555
C16_4 C5_4 1_555 1_555
C20_4 C3_4 1_555 1_555
H11_4 C20_4 1_555 1_555
C23_4 H14_4 1_555 1_555
H15_4 C24_4 1_555 1_555
C25_4 C5_4 1_555 1_555
H16_4 C25_4 1_555 1_555
O4_4 C35_4 1_555 1_555
C30_4 C16_4 1_555 1_555
H19_4 C30_4 1_555 1_555
C35_4 C10_4 1_555 1_555
C36_4 C10_4 1_555 1_555
H22_4 C36_4 1_555 1_555
O24 C35_4 1_555 1_555
O11_4 Co7_2 1_555 1_555
H29_4 O11_4 1_555 1_555
C44_4 C60_4 1_555 1_555
C49_4 C41_4 1_555 1_555
C54_4 H39_4 1_555 1_555
H40_4 C55_4 1_555 1_555
C56_4 C41_4 1_555 1_555
H41_4 C56_4 1_555 1_555
O15_4 C64_4 1_555 1_555
C60_4 C49_4 1_555 1_555
H43_4 C60_4 1_555 1_555
C64_4 C44_4 1_555 1_555
C65_4 C44_4 1_555 1_555
H45_4 C65_4 1_555 1_555
C13_4 C20_4 1_555 1_555
C23_4 C24_4 1_555 1_555
C25_4 C36_4 1_555 1_555
C54_4 C55_4 1_555 1_555
C56_4 C65_4 1_555 1_555
C64_4 O24_4 1_555 1_555
Si1_4 C1_4 1_555 1_555
C1_4 C11_4 1_555 1_555
C6_4 H1_4 1_555 1_555
C11_4 H3_4 1_555 1_555
O3_4 C28_4 1_555 1_555
C15_4 Si1_4 1_555 1_555
C17_4 H8_4 1_555 1_555
C18_4 C6_4 1_555 1_555
H9_4 C18_4 1_555 1_555
C21_4 C1_4 1_555 1_555
H12_4 C21_4 1_555 1_555
C26_4 C11_4 1_555 1_555
H17_4 C26_4 1_555 1_555
C27_4 C17_4 1_555 1_555
C28_4 C27_4 1_555 1_555
C31_4 C32_4 1_555 1_555
C32_4 C18_4 1_555 1_555
H21_4 C34_4 1_555 1_555
O25_2 C31_4 1_555 1_555
O27_2 C28_4 1_555 1_555
Si2_4 C38_4 1_555 1_555
C38_4 C45_4 1_555 1_555
C45_4 H31_4 1_555 1_555
O14_4 C59_4 1_555 1_555
C48_4 Si2_4 1_555 1_555
C51_4 C42_4 1_555 1_555
H36_4 C51_4 1_555 1_555
C57_4 C45_4 1_555 1_555
H42_4 C57_4 1_555 1_555
C58_4 C50_4 1_555 1_555
C59_4 C58_4 1_555 1_555
C61_4 C62_4 1_555 1_555
C62_4 C51_4 1_555 1_555
O26_2 C61_4 1_555 1_555
O28_2 C59_4 1_555 1_555
C6_4 C15_4 1_555 1_555
C17_4 C21_4 1_555 1_555
C26_4 C27_4 1_555 1_555
C42_4 C48_4 1_555 1_555
C57_4 C58_4 1_555 1_555
H38_3 C53_3 1_555 1_555
H44_3 C63_3 1_555 1_555
H38_4 C53_4 1_555 1_555
H44_4 C63_4 1_555 1_555

#END
