
###############################################################################
#
# This file contains modified crystal structure data generated from the
# MOF subset of the Cambridge Structural Database (CSD) v543 
# hosted by the Cambridge Crystallographic Data Centre (CCDC).
#
# This work is licensed under the Creative Commons
# Attribution-NonCommercial-ShareAlike 4.0 International License.
# To view a copy of this license, visit
# http://creativecommons.org/licenses/by-nc-sa/4.0/
# or send a letter to
# Creative Commons, PO Box 1866, Mountain View, CA 94042, USA.
#
# CIF created using the CSD Python API on 29 September 2022
# The structure has been converted into the P1 space group
# The structure has a 3D framework
# The original CSD entry RUCGOM is in the hexagonal crystal system
# The original CSD entry RUCGOM is in a Sohncke space group
# The framework has been calculated to contain at least 10.0% void space
# The void calculation uses a probe of radius 1.32A, grid spacing 0.4
# H atom positions have been added when not included in the experimental data
#
###############################################################################

data_RUCGOM
_chemical_formula_moiety         '(C60 H108 Au6 N6 O24 Pt5 S12 Zn16)n'
_symmetry_cell_setting           triclinic
_symmetry_space_group_name_H-M   'P 1'
_symmetry_Int_Tables_number      1
_space_group_name_Hall           'P 1'
loop_
_symmetry_equiv_pos_site_id
_symmetry_equiv_pos_as_xyz
1 x,y,z
_cell_length_a                   12.458(3)
_cell_length_b                   12.458(3)
_cell_length_c                   24.673(5)
_cell_angle_alpha                90
_cell_angle_beta                 90
_cell_angle_gamma                120
_cell_volume                     3316.27
loop_
_atom_site_label
_atom_site_type_symbol
_atom_site_fract_x
_atom_site_fract_y
_atom_site_fract_z
Zn1 Zn -0.0000 -0.0000 0.3333
Au2 Au 0.393107(16) 0.606893(16) 0.1667
Pt2 Pt 0.5000 0.5000 0.261660(15)
Pt3 Pt 0.5000 0.0000 0.405007(15)
S2 S 0.37051(16) 0.58209(15) 0.25890(7)
S7 S 0.41791(15) 0.62949(16) 0.07443(7)
S8 S 0.62949(16) 0.41791(15) 0.25890(7)
N2 N 0.3412(5) 0.3306(6) 0.2651(2)
N3 N 0.3412(5) 0.0106(8) 0.4016(2)
N6 N 0.6588(5) 0.6694(6) 0.2651(2)
H10 H 0.3522 0.2751 0.2447
H11 H 0.3522 0.0771 0.4220
H14 H 0.6478 0.7249 0.2447
H15 H 0.3283 0.3032 0.3004
H16 H 0.3283 0.0251 0.3663
H19 H 0.6717 0.6968 0.3004
O3 O 0.1244(4) 0.1524(5) 0.3006(2)
O6 O 0.0188(5) 0.1694(6) 0.2315(2)
C6 C 0.2183(7) 0.4382(6) 0.2708(2)
C9 C 0.2274(6) 0.3310(6) 0.2453(3)
H20 H 0.2330 0.3417 0.2050
C12 C 0.1181(7) 0.4552(8) 0.2445(4)
H23 H 0.1336 0.4679 0.2055
H26 H 0.1185 0.5276 0.2604
H29 H 0.0372 0.3812 0.2508
C15 C 0.2036(7) 0.4267(7) 0.3329(3)
H32 H 0.2071 0.5014 0.3476
H35 H 0.2708 0.4173 0.3485
H38 H 0.1237 0.3541 0.3420
C18 C 0.1124(7) 0.2060(6) 0.2590(3)
H42 H 0.732236 0.66326 0.251212
Zn1_2 Zn -0.0000 1.0000 0.3333
Au3 Au 0.393107(16) 0.786214(23) 0.5000
Pt3_2 Pt 0.5000 1.0000 0.405007(15)
S3 S 0.37051(16) 0.78842(22) 0.40777(7)
O4 O 0.1244(4) 0.9720(6) 0.3661(2)
O7 O 0.0188(5) 0.8494(8) 0.4352(2)
C7 C 0.2183(7) 0.7801(9) 0.3959(2)
C10 C 0.2274(6) 0.8964(8) 0.4214(3)
H21 H 0.2330 0.8913 0.4617
C13 C 0.1181(7) 0.6629(11) 0.4222(4)
H24 H 0.1336 0.6657 0.4612
H27 H 0.1185 0.5909 0.4063
H30 H 0.0372 0.6560 0.4159
C16 C 0.2036(7) 0.7769(10) 0.3338(3)
H33 H 0.2071 0.7057 0.3191
H36 H 0.2708 0.8535 0.3182
H39 H 0.1237 0.7696 0.3247
C19 C 0.1124(7) 0.9064(9) 0.4077(3)
Zn1_3 Zn 1.0000 -0.0000 0.3333
Au4 Au 0.606893(16) 0.213786(23) 0.5000
S4 S 0.62949(16) 0.21158(22) 0.40777(7)
O5 O 0.8756(4) 0.0280(6) 0.3661(2)
O8 O 0.9812(5) 0.1506(8) 0.4352(2)
C8 C 0.7817(7) 0.2199(9) 0.3959(2)
C11 C 0.7726(6) 0.1036(8) 0.4214(3)
H22 H 0.7670 0.1087 0.4617
C14 C 0.8819(7) 0.3371(11) 0.4222(4)
H25 H 0.8664 0.3343 0.4612
H28 H 0.8815 0.4091 0.4063
H31 H 0.9628 0.3440 0.4159
C17 C 0.7964(7) 0.2231(10) 0.3338(3)
H34 H 0.7929 0.2943 0.3191
H37 H 0.7292 0.1465 0.3182
H40 H 0.8763 0.2304 0.3247
C20 C 0.8876(7) 0.0936(9) 0.4077(3)
Au1 Au 0.606893(16) 0.393107(16) 0.1667
Zn1_4 Zn 1.0000 1.0000 0.3333
O1 O 0.8756(4) 0.8476(5) 0.3006(2)
O2 O 0.9812(5) 0.8306(6) 0.2315(2)
C1 C 0.7817(7) 0.5618(6) 0.2708(2)
C2 C 0.7726(6) 0.6690(6) 0.2453(3)
H3 H 0.7670 0.6583 0.2050
C3 C 0.8819(7) 0.5448(8) 0.2445(4)
H4 H 0.8664 0.5321 0.2055
H5 H 0.8815 0.4724 0.2604
H6 H 0.9628 0.6188 0.2508
C4 C 0.7964(7) 0.5733(7) 0.3329(3)
H7 H 0.7929 0.4986 0.3476
H8 H 0.7292 0.5827 0.3485
H9 H 0.8763 0.6459 0.3420
C5 C 0.8876(7) 0.7940(6) 0.2590(3)
S5 S 0.58209(15) 0.37051(16) 0.07443(7)
N4 N 0.6588(5) 0.9894(8) 0.4016(2)
H12 H 0.6478 0.9229 0.4220
H17 H 0.6717 0.9749 0.3663
H41 H 0.267764 0.33674 0.251212
Pt1 Pt 0.5000 -0.0000 0.594993(15)
Zn1_5 Zn 0.0000 0.0000 0.6666
S1 S 0.58209(15) 0.21158(22) 0.59223(7)
O1_2 O 0.1524(5) 0.0280(6) 0.6339(2)
O2_2 O 0.1694(6) 0.1506(8) 0.5648(2)
C1_2 C 0.4382(6) 0.2199(9) 0.6041(2)
C2_2 C 0.3310(6) 0.1036(8) 0.5786(3)
H3_2 H 0.3417 0.1087 0.5383
C3_2 C 0.4552(8) 0.3371(11) 0.5778(4)
H4_2 H 0.4679 0.3343 0.5388
H5_2 H 0.5276 0.4091 0.5937
H6_2 H 0.3812 0.3440 0.5841
C4_2 C 0.4267(7) 0.2231(10) 0.6662(3)
H7_2 H 0.5014 0.2943 0.6809
H8_2 H 0.4173 0.1465 0.6818
H9_2 H 0.3541 0.2304 0.6753
C5_2 C 0.2060(6) 0.0936(9) 0.5923(3)
Au3_2 Au 0.213786(23) 0.606893(28) 0.8333
Pt3_3 Pt -0.0000 0.5000 0.738340(15)
S3_2 S 0.21158(22) 0.58209(27) 0.74110(7)
N5 N 0.6694(6) 0.0106(8) 0.5984(2)
H13 H 0.7249 0.0771 0.5780
H18 H 0.6968 0.0251 0.6337
O4_2 O 0.0280(6) 0.1524(7) 0.6994(2)
O7_2 O 0.1506(8) 0.1694(9) 0.7685(2)
C7_2 C 0.2199(9) 0.4382(11) 0.7292(2)
C10_2 C 0.1036(8) 0.3310(10) 0.7547(3)
H21_2 H 0.1087 0.3417 0.7950
C13_2 C 0.3371(11) 0.4552(13) 0.7555(4)
H24_2 H 0.3343 0.4679 0.7945
H27_2 H 0.4091 0.5276 0.7396
H30_2 H 0.3440 0.3812 0.7492
C16_2 C 0.2231(10) 0.4267(12) 0.6671(3)
H33_2 H 0.2943 0.5014 0.6524
H36_2 H 0.1465 0.4173 0.6515
H39_2 H 0.2304 0.3541 0.6580
C19_2 C 0.0936(9) 0.2060(11) 0.7410(3)
Pt1_2 Pt 0.5000 1.0000 0.594993(15)
Zn1_6 Zn 0.0000 1.0000 0.6666
N1 N 0.3306(6) 0.9894(8) 0.5984(2)
H1 H 0.2751 0.9229 0.5780
H2 H 0.3032 0.9749 0.6337
S6 S 0.41791(15) 0.78842(22) 0.59223(7)
N4_2 N 0.0106(8) 0.6694(9) 0.7349(2)
H12_2 H 0.0771 0.7249 0.7553
H17_2 H 0.0251 0.6968 0.6996
H41_2 H 0.66326 0.931024 0.584545
Zn1_7 Zn 1.0000 0.0000 0.6666
Pt3_4 Pt 1.0000 0.5000 0.738340(15)
N3_2 N 0.9894(8) 0.3306(9) 0.7349(2)
H11_2 H 0.9229 0.2751 0.7553
H16_2 H 0.9749 0.3032 0.6996
H42_2 H 0.33674 0.0689757 0.584545
Zn1_8 Zn 1.0000 1.0000 0.6666
Au4_2 Au 0.786214(23) 0.393107(28) 0.8333
S4_2 S 0.78842(22) 0.41791(27) 0.74110(7)
O3_2 O 0.8476(5) 0.9720(6) 0.6339(2)
O5_2 O 0.9720(6) 0.8476(7) 0.6994(2)
O6_2 O 0.8306(6) 0.8494(8) 0.5648(2)
O8_2 O 0.8494(8) 0.8306(9) 0.7685(2)
C6_2 C 0.5618(6) 0.7801(9) 0.6041(2)
C8_2 C 0.7801(9) 0.5618(11) 0.7292(2)
C9_2 C 0.6690(6) 0.8964(8) 0.5786(3)
C11_2 C 0.8964(8) 0.6690(10) 0.7547(3)
H20_2 H 0.6583 0.8913 0.5383
H22_2 H 0.8913 0.6583 0.7950
C12_2 C 0.5448(8) 0.6629(11) 0.5778(4)
C14_2 C 0.6629(11) 0.5448(13) 0.7555(4)
H23_2 H 0.5321 0.6657 0.5388
H25_2 H 0.6657 0.5321 0.7945
H26_2 H 0.4724 0.5909 0.5937
H28_2 H 0.5909 0.4724 0.7396
H29_2 H 0.6188 0.6560 0.5841
H31_2 H 0.6560 0.6188 0.7492
C15_2 C 0.5733(7) 0.7769(10) 0.6662(3)
C17_2 C 0.7769(10) 0.5733(12) 0.6671(3)
H32_2 H 0.4986 0.7057 0.6809
H34_2 H 0.7057 0.4986 0.6524
H35_2 H 0.5827 0.8535 0.6818
H37_2 H 0.8535 0.5827 0.6515
H38_2 H 0.6459 0.7696 0.6753
H40_2 H 0.7696 0.6459 0.6580
C18_2 C 0.7940(6) 0.9064(9) 0.5923(3)
C20_2 C 0.9064(9) 0.7940(11) 0.7410(3)
Zn1_9 Zn 0.0000 0.0000 -0.0000
Pt4 Pt 0.5000 0.5000 0.071673(15)
N4_3 N 0.3306(9) 0.3412(5) 0.0682(2)
H12_3 H 0.2751 0.3522 0.0886
H17_3 H 0.3032 0.3283 0.0329
O5_3 O 0.1524(7) 0.1244(4) 0.0327(2)
O8_3 O 0.1694(9) 0.0188(5) 0.1018(2)
C8_3 C 0.4382(11) 0.2183(7) 0.0625(2)
C11_3 C 0.3310(10) 0.2274(6) 0.0880(3)
H22_3 H 0.3417 0.2330 0.1283
C14_3 C 0.4552(13) 0.1181(7) 0.0888(4)
H25_3 H 0.4679 0.1336 0.1278
H28_3 H 0.5276 0.1185 0.0729
H31_3 H 0.3812 0.0372 0.0825
C17_3 C 0.4267(12) 0.2036(7) 0.0004(3)
C20_3 C 0.2060(11) 0.1124(7) 0.0743(3)
Pt1_3 Pt 0.0000 0.5000 0.928327(15)
Zn1_10 Zn -0.0000 0.0000 1.0000
N1_2 N 0.0106(8) 0.3412(5) 0.9318(2)
H1_2 H 0.0771 0.3522 0.9114
H2_2 H 0.0251 0.3283 0.9671
S6_2 S 0.21158(22) 0.62949(16) 0.92557(7)
H34_3 H 0.5014 0.2071 0.9857
H37_3 H 0.4173 0.2708 0.9848
H40_3 H 0.3541 0.1237 0.9913
H41_3 H 0.0689757 0.732236 0.917879
Zn1_11 Zn 0.0000 1.0000 1.0000
O3_3 O 0.0280(6) 0.8756(4) 0.9673(2)
O6_3 O 0.1506(8) 0.9812(5) 0.8982(2)
C6_3 C 0.2199(9) 0.7817(7) 0.9375(2)
C9_3 C 0.1036(8) 0.7726(6) 0.9120(3)
H20_3 H 0.1087 0.7670 0.8717
C12_3 C 0.3371(11) 0.8819(7) 0.9112(4)
H23_3 H 0.3343 0.8664 0.8722
H26_3 H 0.4091 0.8815 0.9271
H29_3 H 0.3440 0.9628 0.9175
C15_3 C 0.2231(10) 0.7964(7) 0.9996(3)
C18_3 C 0.0936(9) 0.8876(7) 0.9257(3)
Pt1_4 Pt 1.0000 0.5000 0.928327(15)
Zn1_12 Zn 1.0000 0.0000 1.0000
S1_2 S 0.78842(22) 0.37051(16) 0.92557(7)
O1_3 O 0.9720(6) 0.1244(4) 0.9673(2)
O2_3 O 0.8494(8) 0.0188(5) 0.8982(2)
C1_3 C 0.7801(9) 0.2183(7) 0.9375(2)
C2_3 C 0.8964(8) 0.2274(6) 0.9120(3)
H3_3 H 0.8913 0.2330 0.8717
C3_3 C 0.6629(11) 0.1181(7) 0.9112(4)
H4_3 H 0.6657 0.1336 0.8722
H5_3 H 0.5909 0.1185 0.9271
H6_3 H 0.6560 0.0372 0.9175
C4_3 C 0.7769(10) 0.2036(7) 0.9996(3)
C5_3 C 0.9064(9) 0.1124(7) 0.9257(3)
N5_2 N 0.9894(8) 0.6588(5) 0.9318(2)
H13_2 H 0.9229 0.6478 0.9114
H18_2 H 0.9749 0.6717 0.9671
Zn1_13 Zn 1.0000 1.0000 -0.0000
N3_3 N 0.6694(9) 0.6588(5) 0.0682(2)
H11_3 H 0.7249 0.6478 0.0886
H16_3 H 0.6968 0.6717 0.0329
O4_3 O 0.8476(7) 0.8756(4) 0.0327(2)
O7_3 O 0.8306(9) 0.9812(5) 0.1018(2)
C7_3 C 0.5618(11) 0.7817(7) 0.0625(2)
C10_3 C 0.6690(10) 0.7726(6) 0.0880(3)
H21_3 H 0.6583 0.7670 0.1283
C13_3 C 0.5448(13) 0.8819(7) 0.0888(4)
H24_3 H 0.5321 0.8664 0.1278
H27_3 H 0.4724 0.8815 0.0729
H30_3 H 0.6188 0.9628 0.0825
C16_3 C 0.5733(12) 0.7964(7) 0.0004(3)
C19_3 C 0.7940(11) 0.8876(7) 0.0743(3)
Zn1_14 Zn 1.0000 1.0000 1.0000
H33_3 H 0.4986 0.7929 0.9857
H36_3 H 0.5827 0.7292 0.9848
H39_3 H 0.6459 0.8763 0.9913
H42_3 H 0.931024 0.267764 0.917879
H42_4 H 0.0689757 0.33674 0.748788
H41_4 H 0.931024 0.66326 0.748788
H41_5 H 0.732236 0.0689757 0.415455
H42_5 H 0.267764 0.931024 0.415455
H42_6 H 0.66326 0.732236 0.0821214
H41_6 H 0.33674 0.267764 0.0821214
Zn1_15 Zn 0.0000 1.0000 -0.0000
H32_3 H 0.2943 0.7929 0.0143
H35_3 H 0.1465 0.7292 0.0152
H38_3 H 0.2304 0.8763 0.0087
Zn1_16 Zn 1.0000 0.0000 -0.0000
H7_3 H 0.7057 0.2071 0.0143
H8_3 H 0.8535 0.2708 0.0152
H9_3 H 0.7696 0.1237 0.0087
loop_
_geom_bond_atom_site_label_1
_geom_bond_atom_site_label_2
_geom_bond_site_symmetry_1
_geom_bond_site_symmetry_2
Au2 S2 1_555 1_555
Pt2 S2 1_555 1_555
S2 C6 1_555 1_555
S7 Au2 1_555 1_555
S8 Pt2 1_555 1_555
N2 Pt2 1_555 1_555
N3 Pt3 1_555 1_555
N6 Pt2 1_555 1_555
H10 N2 1_555 1_555
H11 N3 1_555 1_555
H14 N6 1_555 1_555
H15 N2 1_555 1_555
H16 N3 1_555 1_555
H19 N6 1_555 1_555
O3 Zn1 1_555 1_555
O6 C18 1_555 1_555
C6 C9 1_555 1_555
C9 N2 1_555 1_555
H20 C9 1_555 1_555
C12 C6 1_555 1_555
H23 C12 1_555 1_555
H26 C12 1_555 1_555
H29 C12 1_555 1_555
C15 C6 1_555 1_555
H32 C15 1_555 1_555
H35 C15 1_555 1_555
H38 C15 1_555 1_555
C18 O3 1_555 1_555
C9 C18 1_555 1_555
N6 H42 1_555 1_555
Au3 S3 1_555 1_555
Pt3_2 S3 1_555 1_555
S3 C7 1_555 1_555
O4 Zn1_2 1_555 1_555
O7 C19 1_555 1_555
C7 C10 1_555 1_555
H21 C10 1_555 1_555
C13 C7 1_555 1_555
H24 C13 1_555 1_555
H27 C13 1_555 1_555
H30 C13 1_555 1_555
C16 C7 1_555 1_555
H33 C16 1_555 1_555
H36 C16 1_555 1_555
H39 C16 1_555 1_555
C19 O4 1_555 1_555
C10 C19 1_555 1_555
Au4 S4 1_555 1_555
Pt3 S4 1_555 1_555
S4 C8 1_555 1_555
O5 Zn1_3 1_555 1_555
O8 C20 1_555 1_555
C8 C11 1_555 1_555
H22 C11 1_555 1_555
C14 C8 1_555 1_555
H25 C14 1_555 1_555
H28 C14 1_555 1_555
H31 C14 1_555 1_555
C17 C8 1_555 1_555
H34 C17 1_555 1_555
H37 C17 1_555 1_555
H40 C17 1_555 1_555
C20 O5 1_555 1_555
C11 C20 1_555 1_555
Au1 S8 1_555 1_555
Zn1_4 O1 1_555 1_555
S8 C1 1_555 1_555
O1 C5 1_555 1_555
O2 C5 1_555 1_555
C1 C2 1_555 1_555
C2 N6 1_555 1_555
H3 C2 1_555 1_555
C3 C1 1_555 1_555
H4 C3 1_555 1_555
H5 C3 1_555 1_555
H6 C3 1_555 1_555
C4 C1 1_555 1_555
H7 C4 1_555 1_555
H8 C4 1_555 1_555
H9 C4 1_555 1_555
C5 C2 1_555 1_555
S5 Au1 1_555 1_555
N4 Pt3_2 1_555 1_555
H12 N4 1_555 1_555
H17 N4 1_555 1_555
N2 H41 1_555 1_555
Au4 S1 1_555 1_555
Pt1 S1 1_555 1_555
Zn1_5 O1_2 1_555 1_555
S1 C1_2 1_555 1_555
O1_2 C5_2 1_555 1_555
O2_2 C5_2 1_555 1_555
C1_2 C2_2 1_555 1_555
H3_2 C2_2 1_555 1_555
C3_2 C1_2 1_555 1_555
H4_2 C3_2 1_555 1_555
H5_2 C3_2 1_555 1_555
H6_2 C3_2 1_555 1_555
C4_2 C1_2 1_555 1_555
H7_2 C4_2 1_555 1_555
H8_2 C4_2 1_555 1_555
H9_2 C4_2 1_555 1_555
C5_2 C2_2 1_555 1_555
Au3_2 S3_2 1_555 1_555
Pt3_3 S3_2 1_555 1_555
S3_2 C7_2 1_555 1_555
N5 Pt1 1_555 1_555
H13 N5 1_555 1_555
H18 N5 1_555 1_555
O4_2 Zn1_5 1_555 1_555
O7_2 C19_2 1_555 1_555
C7_2 C10_2 1_555 1_555
H21_2 C10_2 1_555 1_555
C13_2 C7_2 1_555 1_555
H24_2 C13_2 1_555 1_555
H27_2 C13_2 1_555 1_555
H30_2 C13_2 1_555 1_555
C16_2 C7_2 1_555 1_555
H33_2 C16_2 1_555 1_555
H36_2 C16_2 1_555 1_555
H39_2 C16_2 1_555 1_555
C19_2 O4_2 1_555 1_555
C10_2 C19_2 1_555 1_555
N1 Pt1_2 1_555 1_555
H1 N1 1_555 1_555
H2 N1 1_555 1_555
S6 Pt1_2 1_555 1_555
N4_2 Pt3_3 1_555 1_555
H12_2 N4_2 1_555 1_555
H17_2 N4_2 1_555 1_555
N3_2 Pt3_4 1_555 1_555
H11_2 N3_2 1_555 1_555
H16_2 N3_2 1_555 1_555
Au3 S6 1_555 1_555
Au4_2 S4_2 1_555 1_555
Pt3_4 S4_2 1_555 1_555
S6 C6_2 1_555 1_555
S4_2 C8_2 1_555 1_555
O3_2 Zn1_8 1_555 1_555
O5_2 Zn1_8 1_555 1_555
O6_2 C18_2 1_555 1_555
O8_2 C20_2 1_555 1_555
C6_2 C9_2 1_555 1_555
C8_2 C11_2 1_555 1_555
H20_2 C9_2 1_555 1_555
H22_2 C11_2 1_555 1_555
C12_2 C6_2 1_555 1_555
C14_2 C8_2 1_555 1_555
H23_2 C12_2 1_555 1_555
H25_2 C14_2 1_555 1_555
H26_2 C12_2 1_555 1_555
H28_2 C14_2 1_555 1_555
H29_2 C12_2 1_555 1_555
H31_2 C14_2 1_555 1_555
C15_2 C6_2 1_555 1_555
C17_2 C8_2 1_555 1_555
H32_2 C15_2 1_555 1_555
H34_2 C17_2 1_555 1_555
H35_2 C15_2 1_555 1_555
H37_2 C17_2 1_555 1_555
H38_2 C15_2 1_555 1_555
H40_2 C17_2 1_555 1_555
C18_2 O3_2 1_555 1_555
C20_2 O5_2 1_555 1_555
C9_2 C18_2 1_555 1_555
C11_2 C20_2 1_555 1_555
Pt4 S5 1_555 1_555
S5 C8_3 1_555 1_555
N4_3 Pt4 1_555 1_555
H12_3 N4_3 1_555 1_555
H17_3 N4_3 1_555 1_555
O5_3 Zn1_9 1_555 1_555
O8_3 C20_3 1_555 1_555
C8_3 C11_3 1_555 1_555
C11_3 N4_3 1_555 1_555
H22_3 C11_3 1_555 1_555
C14_3 C8_3 1_555 1_555
H25_3 C14_3 1_555 1_555
H28_3 C14_3 1_555 1_555
H31_3 C14_3 1_555 1_555
C17_3 C8_3 1_555 1_555
C20_3 O5_3 1_555 1_555
C11_3 C20_3 1_555 1_555
N1_2 Pt1_3 1_555 1_555
H1_2 N1_2 1_555 1_555
H2_2 N1_2 1_555 1_555
S6_2 Pt1_3 1_555 1_555
Au3_2 S6_2 1_555 1_555
S6_2 C6_3 1_555 1_555
O3_3 Zn1_11 1_555 1_555
O6_3 C18_3 1_555 1_555
C6_3 C9_3 1_555 1_555
H20_3 C9_3 1_555 1_555
C12_3 C6_3 1_555 1_555
H23_3 C12_3 1_555 1_555
H26_3 C12_3 1_555 1_555
H29_3 C12_3 1_555 1_555
C15_3 C6_3 1_555 1_555
C18_3 O3_3 1_555 1_555
C9_3 C18_3 1_555 1_555
Au4_2 S1_2 1_555 1_555
Pt1_4 S1_2 1_555 1_555
Zn1_12 O1_3 1_555 1_555
S1_2 C1_3 1_555 1_555
O1_3 C5_3 1_555 1_555
O2_3 C5_3 1_555 1_555
C1_3 C2_3 1_555 1_555
H3_3 C2_3 1_555 1_555
C3_3 C1_3 1_555 1_555
H4_3 C3_3 1_555 1_555
H5_3 C3_3 1_555 1_555
H6_3 C3_3 1_555 1_555
C4_3 C1_3 1_555 1_555
C5_3 C2_3 1_555 1_555
N5_2 Pt1_4 1_555 1_555
H13_2 N5_2 1_555 1_555
H18_2 N5_2 1_555 1_555
Pt4 S7 1_555 1_555
S7 C7_3 1_555 1_555
N3_3 Pt4 1_555 1_555
H11_3 N3_3 1_555 1_555
H16_3 N3_3 1_555 1_555
O4_3 Zn1_13 1_555 1_555
O7_3 C19_3 1_555 1_555
C7_3 C10_3 1_555 1_555
C10_3 N3_3 1_555 1_555
H21_3 C10_3 1_555 1_555
C13_3 C7_3 1_555 1_555
H24_3 C13_3 1_555 1_555
H27_3 C13_3 1_555 1_555
H30_3 C13_3 1_555 1_555
C16_3 C7_3 1_555 1_555
C19_3 O4_3 1_555 1_555
C10_3 C19_3 1_555 1_555
N3_3 H42_6 1_555 1_555
N4_3 H41_6 1_555 1_555

#END
