
###############################################################################
#
# This file contains modified crystal structure data generated from the
# MOF subset of the Cambridge Structural Database (CSD) v543 
# hosted by the Cambridge Crystallographic Data Centre (CCDC).
#
# This work is licensed under the Creative Commons
# Attribution-NonCommercial-ShareAlike 4.0 International License.
# To view a copy of this license, visit
# http://creativecommons.org/licenses/by-nc-sa/4.0/
# or send a letter to
# Creative Commons, PO Box 1866, Mountain View, CA 94042, USA.
#
# CIF created using the CSD Python API on 29 September 2022
# The structure has been converted into the P1 space group
# The structure has a 3D framework
# The original CSD entry RUCSEP is in the monoclinic crystal system
# The framework has been calculated to contain at least 10.0% void space
# The void calculation uses a probe of radius 1.32A, grid spacing 0.4
#
###############################################################################

data_RUCSEP
_chemical_formula_moiety         '(C184 H128 N8 O106 P16 Zn24)n'
_symmetry_cell_setting           triclinic
_symmetry_space_group_name_H-M   'P 1'
_symmetry_Int_Tables_number      1
_space_group_name_Hall           'P 1'
loop_
_symmetry_equiv_pos_site_id
_symmetry_equiv_pos_as_xyz
1 x,y,z
_cell_length_a                   41.255(2)
_cell_length_b                   8.4745(5)
_cell_length_c                   20.7206(13)
_cell_angle_alpha                90
_cell_angle_beta                 96.0520(15)
_cell_angle_gamma                90
_cell_volume                     7203.87
loop_
_atom_site_label
_atom_site_type_symbol
_atom_site_fract_x
_atom_site_fract_y
_atom_site_fract_z
O6 O 0.13885(6) 0.0657(3) 0.25160(12)
O7 O 0.18892(6) 0.1481(3) 0.28646(11)
H4 H 0.2280 0.0203 0.2158
C5 C 0.18007(7) 0.0230(4) 0.18451(14)
H5 H 0.1355 0.0094 0.1334
C8 C 0.16828(8) 0.0838(4) 0.24600(14)
Zn9 Zn 0.18842(2) 0.21265(4) 0.37804(2)
Zn14 Zn 0.10942(2) 0.09584(4) 0.31798(2)
P1 P 0.14925(2) 0.03169(8) 0.94887(3)
O1 O 0.11985(5) 0.0127(3) 0.89852(10)
O3 O 0.15141(5) 0.1994(2) 0.97597(12)
Zn15 Zn 0.11468(2) 0.34106(4) 0.97724(2)
O4 O 0.26496(5) 0.7571(3) 0.09532(11)
O5 O 0.27919(6) 0.9635(3) 0.15635(14)
H1 H 0.2979 0.9256 0.1517
C1 C 0.16750(7) 0.9264(3) 0.07413(14)
C2 C 0.20028(7) 0.8892(3) 0.07318(14)
H3 H 0.2072 0.8412 0.0367
C3 C 0.22292(7) 0.9229(4) 0.12611(15)
C4 C 0.21279(8) 0.9933(4) 0.18123(15)
C6 C 0.15746(7) 0.9894(4) 0.13099(14)
C7 C 0.25828(7) 0.8825(4) 0.12617(14)
C9 C 0.14321(7) 0.9005(3) 0.01580(14)
H6 H 0.1214 0.9160 0.0282
H7 H 0.1448 0.7921 0.0014
C22 C 0.03595(9) 0.0912(5) 0.05033(18)
H15 H 0.0308 0.0670 0.0919
C23 C 0.06411(9) 0.1740(5) 0.04215(18)
H16 H 0.0773 0.2072 0.0788
Zn10 Zn 0.31158(2) 0.71265(4) 0.12196(2)
O38 O 0.11975(6) 0.4556(3) 0.05851(11)
Zn1 Zn 0.18842(2) 0.78735(4) 0.87804(2)
Zn2 Zn 0.10942(2) 0.90416(4) 0.81798(2)
P2 P 0.12741(2) 0.56383(8) 0.85938(3)
O2 O 0.18126(5) 0.9870(2) 0.92275(10)
O8 O 0.10414(6) 0.6792(3) 0.82220(12)
O9 O 0.15455(5) 0.6467(2) 0.90143(10)
O10 O 0.10745(6) 0.4534(3) 0.89730(10)
O11 O 0.11975(6) 0.5444(3) 0.55851(11)
O12 O 0.07256(8) 0.4235(4) 0.52988(13)
H2 H 0.0747 0.4713 0.4945
O13 O 0.03307(7) 0.0369(3) 0.69259(13)
C10 C 0.12299(7) 0.3815(4) 0.74769(14)
C11 C 0.12071(8) 0.4420(4) 0.68547(15)
H8 H 0.1343 0.5245 0.6762
C12 C 0.09838(8) 0.3817(4) 0.63621(15)
C13 C 0.07775(8) 0.2594(4) 0.64999(15)
H9 H 0.0624 0.2204 0.6179
C14 C 0.08027(7) 0.1953(3) 0.71249(14)
C15 C 0.10279(7) 0.2565(3) 0.76034(14)
H10 H 0.1044 0.2130 0.8018
C16 C 0.09614(9) 0.4523(4) 0.56934(16)
C17 C 0.05867(8) 0.0599(4) 0.72764(14)
C18 C 0.14674(8) 0.4485(4) 0.80080(15)
H11 H 0.1623 0.5144 0.7815
H12 H 0.1587 0.3624 0.8231
C19 C 0.05440(10) 0.1592(5) 0.93253(19)
H13 H 0.0610 0.1793 0.8918
C20 C 0.02514(11) 0.0783(6) 0.9356(2)
H14 H 0.0125 0.0478 0.8979
C21 C 0.01531(9) 0.0441(5) 0.99648(19)
N1 N 0.07319(6) 0.2085(3) 0.98346(14)
Zn18 Zn 0.11468(2) 0.65894(4) 0.47724(2)
O32 O 0.23504(5) 0.7429(3) 0.90468(11)
O34 O 0.13885(6) 0.9343(3) 0.75160(12)
O36 O 0.18892(6) 0.8519(3) 0.78646(11)
O39 O 0.06704(5) 0.9764(3) 0.77814(11)
O28 O 0.93296(5) 0.0236(3) 0.22186(11)
Zn13 Zn 0.89058(2) 0.09584(4) 0.18202(2)
C24 C 0.94560(10) 0.8408(5) 0.06747(19)
H17 H 0.9390 0.8207 0.1082
C25 C 0.97486(11) 0.9217(6) 0.0644(2)
H18 H 0.9875 0.9522 0.1021
C26 C 0.98469(9) 0.9559(5) 0.00352(19)
N2 N 0.92681(6) 0.7915(3) 0.01654(14)
Zn4 Zn 0.81158(2) 0.21265(4) 0.12196(2)
Zn6 Zn 0.88532(2) 0.65894(4) 0.02276(2)
P4 P 0.87259(2) 0.43617(8) 0.14062(3)
O16 O 0.81874(5) 0.0130(2) 0.07725(10)
O22 O 0.89586(6) 0.3208(3) 0.17780(12)
O23 O 0.84545(5) 0.3533(2) 0.09857(10)
O24 O 0.89255(6) 0.5466(3) 0.10270(10)
O25 O 0.88025(6) 0.4556(3) 0.44149(11)
O26 O 0.92744(8) 0.5765(4) 0.47012(13)
H22 H 0.9253 0.5287 0.5055
O27 O 0.96693(7) 0.9631(3) 0.30741(13)
C38 C 0.87701(7) 0.6185(4) 0.25231(14)
C39 C 0.87929(8) 0.5580(4) 0.31453(15)
H28 H 0.8657 0.4755 0.3238
C40 C 0.90162(8) 0.6183(4) 0.36379(15)
C41 C 0.92225(8) 0.7406(4) 0.35001(15)
H29 H 0.9376 0.7796 0.3821
C42 C 0.91973(7) 0.8047(3) 0.28751(14)
C43 C 0.89721(7) 0.7435(3) 0.23966(14)
H30 H 0.8956 0.7870 0.1982
C44 C 0.90386(9) 0.5477(4) 0.43066(16)
C45 C 0.94133(8) 0.9401(4) 0.27236(14)
C46 C 0.85326(8) 0.5515(4) 0.19920(15)
H31 H 0.8377 0.4856 0.2185
H32 H 0.8413 0.6376 0.1769
Zn16 Zn 0.88532(2) 0.34106(4) 0.52276(2)
O30 O 0.84859(5) 0.8006(2) 0.02403(12)
O31 O 0.76496(5) 0.2571(3) 0.09532(11)
O33 O 0.86115(6) 0.0657(3) 0.24840(12)
O35 O 0.81108(6) 0.1481(3) 0.21354(11)
C27 C 0.96405(9) 0.9088(5) 0.94967(18)
H19 H 0.9692 0.9330 0.9081
C28 C 0.93589(9) 0.8260(5) 0.95785(18)
H20 H 0.9227 0.7928 0.9212
O18 O 0.73504(5) 0.2429(3) 0.90468(11)
O19 O 0.72081(6) 0.0365(3) 0.84365(14)
H21 H 0.7021 0.0744 0.8483
C29 C 0.83250(7) 0.0736(3) 0.92587(14)
C30 C 0.79972(7) 0.1108(3) 0.92682(14)
H23 H 0.7928 0.1588 0.9633
C31 C 0.77708(7) 0.0771(4) 0.87389(15)
C32 C 0.78721(8) 0.0067(4) 0.81877(15)
C34 C 0.84254(7) 0.0106(4) 0.86901(14)
C35 C 0.74172(7) 0.1175(4) 0.87383(14)
C37 C 0.85679(7) 0.0995(3) 0.98420(14)
H26 H 0.8786 0.0840 0.9718
H27 H 0.8552 0.2079 0.9986
Zn8 Zn 0.68842(2) 0.28735(4) 0.87804(2)
O37 O 0.88025(6) 0.5444(3) 0.94149(11)
P3 P 0.85075(2) 0.96831(8) 0.05113(3)
O15 O 0.88015(5) 0.9873(3) 0.10148(10)
O20 O 0.86115(6) 0.9343(3) 0.74840(12)
O21 O 0.81108(6) 0.8519(3) 0.71354(11)
H24 H 0.7720 0.9797 0.7842
C33 C 0.81993(7) 0.9770(4) 0.81549(14)
H25 H 0.8645 0.9906 0.8666
C36 C 0.83172(8) 0.9162(4) 0.75400(14)
Zn7 Zn 0.81158(2) 0.78735(4) 0.62196(2)
Zn12 Zn 0.89058(2) 0.90416(4) 0.68202(2)
O28_2 O 0.06704(5) 0.0236(3) 0.27814(11)
C24_2 C 0.05440(10) 0.8408(5) 0.43253(19)
H17_2 H 0.0610 0.8207 0.3918
C25_2 C 0.02514(11) 0.9217(6) 0.4356(2)
H18_2 H 0.0125 0.9522 0.3979
C26_2 C 0.01531(9) 0.9559(5) 0.49648(19)
C27_2 C 0.03595(9) 0.9088(5) 0.55033(18)
H19_2 H 0.0308 0.9330 0.5919
C28_2 C 0.06411(9) 0.8260(5) 0.54215(18)
H20_2 H 0.0773 0.7928 0.5788
N2_2 N 0.07319(6) 0.7915(3) 0.48346(14)
P4_2 P 0.12741(2) 0.43617(8) 0.35938(3)
O16_2 O 0.18126(5) 0.0130(2) 0.42275(10)
O18_2 O 0.26496(5) 0.2429(3) 0.59532(11)
O19_2 O 0.27919(6) 0.0365(3) 0.65635(14)
H21_2 H 0.2979 0.0744 0.6517
O22_2 O 0.10414(6) 0.3208(3) 0.32220(12)
O23_2 O 0.15455(5) 0.3533(2) 0.40143(10)
O24_2 O 0.10745(6) 0.5466(3) 0.39730(10)
O26_2 O 0.07256(8) 0.5765(4) 0.02988(13)
O27_2 O 0.03307(7) 0.9631(3) 0.19259(13)
C29_2 C 0.16750(7) 0.0736(3) 0.57413(14)
C30_2 C 0.20028(7) 0.1108(3) 0.57318(14)
H23_2 H 0.2072 0.1588 0.5367
C31_2 C 0.22292(7) 0.0771(4) 0.62611(15)
C32_2 C 0.21279(8) 0.0067(4) 0.68123(15)
C34_2 C 0.15746(7) 0.0106(4) 0.63099(14)
C35_2 C 0.25828(7) 0.1175(4) 0.62617(14)
C37_2 C 0.14321(7) 0.0995(3) 0.51580(14)
H26_2 H 0.1214 0.0840 0.5282
H27_2 H 0.1448 0.2079 0.5014
C38_2 C 0.12299(7) 0.6185(4) 0.24769(14)
C39_2 C 0.12071(8) 0.5580(4) 0.18547(15)
H28_2 H 0.1343 0.4755 0.1762
C40_2 C 0.09838(8) 0.6183(4) 0.13621(15)
C41_2 C 0.07775(8) 0.7406(4) 0.14999(15)
H29_2 H 0.0624 0.7796 0.1179
C42_2 C 0.08027(7) 0.8047(3) 0.21249(14)
C43_2 C 0.10279(7) 0.7435(3) 0.26034(14)
H30_2 H 0.1044 0.7870 0.3018
C44_2 C 0.09614(9) 0.5477(4) 0.06934(16)
C45_2 C 0.05867(8) 0.9401(4) 0.22764(14)
C46_2 C 0.14674(8) 0.5515(4) 0.30080(15)
H31_2 H 0.1623 0.4856 0.2815
H32_2 H 0.1587 0.6376 0.3231
Zn8_2 Zn 0.31158(2) 0.28735(4) 0.62196(2)
O30_2 O 0.15141(5) 0.8006(2) 0.47597(12)
O31_2 O 0.23504(5) 0.2571(3) 0.40468(11)
H22_2 H 0.0747 0.5287 0.9945
P3_2 P 0.14925(2) 0.96831(8) 0.44887(3)
O15_2 O 0.11985(5) 0.9873(3) 0.39852(10)
H24_2 H 0.2280 0.9797 0.7158
C33_2 C 0.18007(7) 0.9770(4) 0.68451(14)
H25_2 H 0.1355 0.9906 0.6334
C36_2 C 0.16828(8) 0.9162(4) 0.74600(14)
P1_2 P 0.85075(2) 0.03169(8) 0.55113(3)
O1_2 O 0.88015(5) 0.0127(3) 0.60148(10)
O3_2 O 0.84859(5) 0.1994(2) 0.52403(12)
H4_2 H 0.7720 0.0203 0.2842
C5_2 C 0.81993(7) 0.0230(4) 0.31549(14)
H5_2 H 0.8645 0.0094 0.3666
C8_2 C 0.83172(8) 0.0838(4) 0.25400(14)
H2_2 H 0.9253 0.4713 0.0055
P2_2 P 0.87259(2) 0.56383(8) 0.64062(3)
O2_2 O 0.81874(5) 0.9870(2) 0.57725(10)
O4_2 O 0.73504(5) 0.7571(3) 0.40468(11)
O5_2 O 0.72081(6) 0.9635(3) 0.34365(14)
H1_2 H 0.7021 0.9256 0.3483
O8_2 O 0.89586(6) 0.6792(3) 0.67780(12)
O9_2 O 0.84545(5) 0.6467(2) 0.59857(10)
O10_2 O 0.89255(6) 0.4534(3) 0.60270(10)
O12_2 O 0.92744(8) 0.4235(4) 0.97012(13)
O13_2 O 0.96693(7) 0.0369(3) 0.80741(13)
C1_2 C 0.83250(7) 0.9264(3) 0.42587(14)
C2_2 C 0.79972(7) 0.8892(3) 0.42682(14)
H3_2 H 0.7928 0.8412 0.4633
C3_2 C 0.77708(7) 0.9229(4) 0.37389(15)
C4_2 C 0.78721(8) 0.9933(4) 0.31877(15)
C6_2 C 0.84254(7) 0.9894(4) 0.36901(14)
C7_2 C 0.74172(7) 0.8825(4) 0.37383(14)
C9_2 C 0.85679(7) 0.9005(3) 0.48420(14)
H6_2 H 0.8786 0.9160 0.4718
H7_2 H 0.8552 0.7921 0.4986
C10_2 C 0.87701(7) 0.3815(4) 0.75231(14)
C11_2 C 0.87929(8) 0.4420(4) 0.81453(15)
H8_2 H 0.8657 0.5245 0.8238
C12_2 C 0.90162(8) 0.3817(4) 0.86379(15)
C13_2 C 0.92225(8) 0.2594(4) 0.85001(15)
H9_2 H 0.9376 0.2204 0.8821
C14_2 C 0.91973(7) 0.1953(3) 0.78751(14)
C15_2 C 0.89721(7) 0.2565(3) 0.73966(14)
H10_2 H 0.8956 0.2130 0.6982
C16_2 C 0.90386(9) 0.4523(4) 0.93066(16)
C17_2 C 0.94133(8) 0.0599(4) 0.77236(14)
C18_2 C 0.85326(8) 0.4485(4) 0.69920(15)
H11_2 H 0.8377 0.5144 0.7185
H12_2 H 0.8413 0.3624 0.6769
C19_2 C 0.94560(10) 0.1592(5) 0.56747(19)
H13_2 H 0.9390 0.1793 0.6082
C20_2 C 0.97486(11) 0.0783(6) 0.5644(2)
H14_2 H 0.9875 0.0478 0.6021
C21_2 C 0.98469(9) 0.0441(5) 0.50352(19)
C22_2 C 0.96405(9) 0.0912(5) 0.44967(18)
H15_2 H 0.9692 0.0670 0.4081
C23_2 C 0.93589(9) 0.1740(5) 0.45785(18)
H16_2 H 0.9227 0.2072 0.4212
N1_2 N 0.92681(6) 0.2085(3) 0.51654(14)
Zn10_2 Zn 0.68842(2) 0.71265(4) 0.37804(2)
O32_2 O 0.76496(5) 0.7429(3) 0.59532(11)
O39_2 O 0.93296(5) 0.9764(3) 0.72186(11)
O5_3 O 0.77919(6) 0.4635(3) 0.15635(14)
H1_3 H 0.7979 0.4256 0.1517
O6_2 O 0.63885(6) 0.5657(3) 0.25160(12)
O7_2 O 0.68892(6) 0.6481(3) 0.28646(11)
C1_3 C 0.66750(7) 0.4264(3) 0.07413(14)
C2_3 C 0.70028(7) 0.3892(3) 0.07318(14)
H3_3 H 0.7072 0.3412 0.0367
C3_3 C 0.72292(7) 0.4229(4) 0.12611(15)
C4_3 C 0.71279(8) 0.4933(4) 0.18123(15)
H4_3 H 0.7280 0.5203 0.2158
C5_3 C 0.68007(7) 0.5230(4) 0.18451(14)
C6_3 C 0.65746(7) 0.4894(4) 0.13099(14)
H5_3 H 0.6355 0.5094 0.1334
C7_3 C 0.75828(7) 0.3825(4) 0.12617(14)
C8_3 C 0.66828(8) 0.5838(4) 0.24600(14)
C9_3 C 0.64321(7) 0.4005(3) 0.01580(14)
H6_3 H 0.6214 0.4160 0.0282
H7_3 H 0.6448 0.2921 0.0014
Zn14_2 Zn 0.60942(2) 0.59584(4) 0.31798(2)
Zn2_2 Zn 0.60942(2) 0.40416(4) 0.81798(2)
P1_3 P 0.64925(2) 0.53169(8) 0.94887(3)
P2_3 P 0.62741(2) 0.06383(8) 0.85938(3)
O1_3 O 0.61985(5) 0.5127(3) 0.89852(10)
O2_3 O 0.68126(5) 0.4870(2) 0.92275(10)
O3_3 O 0.65141(5) 0.6994(2) 0.97597(12)
O8_3 O 0.60414(6) 0.1792(3) 0.82220(12)
O9_3 O 0.65455(5) 0.1467(2) 0.90143(10)
O11_2 O 0.61975(6) 0.0444(3) 0.55851(11)
H8_3 H 0.6343 0.0245 0.6762
H11_3 H 0.6623 0.0144 0.7815
Zn15_2 Zn 0.61468(2) 0.84106(4) 0.97724(2)
Zn18_2 Zn 0.61468(2) 0.15894(4) 0.47724(2)
O34_2 O 0.63885(6) 0.4343(3) 0.75160(12)
O36_2 O 0.68892(6) 0.3519(3) 0.78646(11)
O39_3 O 0.56704(5) 0.4764(3) 0.77814(11)
C22_3 C 0.53595(9) 0.5912(5) 0.05033(18)
H15_3 H 0.5308 0.5670 0.0919
C23_3 C 0.56411(9) 0.6740(5) 0.04215(18)
H16_3 H 0.5773 0.7072 0.0788
C24_3 C 0.44560(10) 0.3408(5) 0.06747(19)
H17_3 H 0.4390 0.3207 0.1082
C25_3 C 0.47486(11) 0.4217(6) 0.0644(2)
H18_3 H 0.4875 0.4522 0.1021
C26_3 C 0.48469(9) 0.4559(5) 0.00352(19)
N2_3 N 0.42681(6) 0.2915(3) 0.01654(14)
Zn6_2 Zn 0.38532(2) 0.15894(4) 0.02276(2)
O24_3 O 0.39255(6) 0.0466(3) 0.10270(10)
O26_3 O 0.42744(8) 0.0765(4) 0.47012(13)
H22_3 H 0.4253 0.0287 0.5055
O27_3 O 0.46693(7) 0.4631(3) 0.30741(13)
O28_3 O 0.43296(5) 0.5236(3) 0.22186(11)
C38_3 C 0.37701(7) 0.1185(4) 0.25231(14)
C39_3 C 0.37929(8) 0.0580(4) 0.31453(15)
C40_3 C 0.40162(8) 0.1183(4) 0.36379(15)
C41_3 C 0.42225(8) 0.2406(4) 0.35001(15)
H29_3 H 0.4376 0.2796 0.3821
C42_3 C 0.41973(7) 0.3047(3) 0.28751(14)
C43_3 C 0.39721(7) 0.2435(3) 0.23966(14)
H30_3 H 0.3956 0.2870 0.1982
C44_3 C 0.40386(9) 0.0477(4) 0.43066(16)
C45_3 C 0.44133(8) 0.4401(4) 0.27236(14)
C46_3 C 0.35326(8) 0.0515(4) 0.19920(15)
H32_3 H 0.3413 0.1376 0.1769
Zn13_2 Zn 0.39058(2) 0.59584(4) 0.18202(2)
O30_3 O 0.34859(5) 0.3006(2) 0.02403(12)
O38_2 O 0.61975(6) 0.9556(3) 0.05851(11)
O10_3 O 0.60745(6) 0.9534(3) 0.89730(10)
O12_3 O 0.57256(8) 0.9235(4) 0.52988(13)
H2_3 H 0.5747 0.9713 0.4945
O13_3 O 0.53307(7) 0.5369(3) 0.69259(13)
C10_3 C 0.62299(7) 0.8815(4) 0.74769(14)
C11_3 C 0.62071(8) 0.9420(4) 0.68547(15)
C12_3 C 0.59838(8) 0.8817(4) 0.63621(15)
C13_3 C 0.57775(8) 0.7594(4) 0.64999(15)
H9_3 H 0.5624 0.7204 0.6179
C14_3 C 0.58027(7) 0.6953(3) 0.71249(14)
C15_3 C 0.60279(7) 0.7565(3) 0.76034(14)
H10_3 H 0.6044 0.7130 0.8018
C16_3 C 0.59614(9) 0.9523(4) 0.56934(16)
C17_3 C 0.55867(8) 0.5599(4) 0.72764(14)
C18_3 C 0.64674(8) 0.9485(4) 0.80080(15)
H12_3 H 0.6587 0.8624 0.8231
C19_3 C 0.55440(10) 0.6592(5) 0.93253(19)
H13_3 H 0.5610 0.6793 0.8918
C20_3 C 0.52514(11) 0.5783(6) 0.9356(2)
H14_3 H 0.5125 0.5478 0.8979
C21_3 C 0.51531(9) 0.5441(5) 0.99648(19)
N1_3 N 0.57319(6) 0.7085(3) 0.98346(14)
C27_3 C 0.46405(9) 0.4088(5) 0.94967(18)
H19_3 H 0.4692 0.4330 0.9081
C28_3 C 0.43589(9) 0.3260(5) 0.95785(18)
H20_3 H 0.4227 0.2928 0.9212
O37_2 O 0.38025(6) 0.0444(3) 0.94149(11)
P3_3 P 0.35075(2) 0.46831(8) 0.05113(3)
P4_3 P 0.37259(2) 0.93617(8) 0.14062(3)
O15_3 O 0.38015(5) 0.4873(3) 0.10148(10)
O16_3 O 0.31874(5) 0.5130(2) 0.07725(10)
O22_3 O 0.39586(6) 0.8208(3) 0.17780(12)
O23_3 O 0.34545(5) 0.8533(2) 0.09857(10)
O25_2 O 0.38025(6) 0.9556(3) 0.44149(11)
H28_3 H 0.3657 0.9755 0.3238
H31_3 H 0.3377 0.9856 0.2185
Zn16_2 Zn 0.38532(2) 0.84106(4) 0.52276(2)
O33_2 O 0.36115(6) 0.5657(3) 0.24840(12)
O35_2 O 0.31108(6) 0.6481(3) 0.21354(11)
O19_3 O 0.22081(6) 0.5365(3) 0.84365(14)
H21_3 H 0.2021 0.5744 0.8483
O20_2 O 0.36115(6) 0.4343(3) 0.74840(12)
O21_2 O 0.31108(6) 0.3519(3) 0.71354(11)
C29_3 C 0.33250(7) 0.5736(3) 0.92587(14)
C30_3 C 0.29972(7) 0.6108(3) 0.92682(14)
H23_3 H 0.2928 0.6588 0.9633
C31_3 C 0.27708(7) 0.5771(4) 0.87389(15)
C32_3 C 0.28721(8) 0.5067(4) 0.81877(15)
H24_3 H 0.2720 0.4797 0.7842
C33_3 C 0.31993(7) 0.4770(4) 0.81549(14)
C34_3 C 0.34254(7) 0.5106(4) 0.86901(14)
H25_3 H 0.3645 0.4906 0.8666
C35_3 C 0.24172(7) 0.6175(4) 0.87383(14)
C36_3 C 0.33172(8) 0.4162(4) 0.75400(14)
C37_3 C 0.35679(7) 0.5995(3) 0.98420(14)
H26_3 H 0.3786 0.5840 0.9718
H27_3 H 0.3552 0.7079 0.9986
Zn12_2 Zn 0.39058(2) 0.40416(4) 0.68202(2)
P1_4 P 0.35075(2) 0.53169(8) 0.55113(3)
P2_4 P 0.37259(2) 0.06383(8) 0.64062(3)
O1_4 O 0.38015(5) 0.5127(3) 0.60148(10)
O2_4 O 0.31874(5) 0.4870(2) 0.57725(10)
O3_4 O 0.34859(5) 0.6994(2) 0.52403(12)
O5_4 O 0.22081(6) 0.4635(3) 0.34365(14)
H1_4 H 0.2021 0.4256 0.3483
O8_4 O 0.39586(6) 0.1792(3) 0.67780(12)
O9_4 O 0.34545(5) 0.1467(2) 0.59857(10)
C1_4 C 0.33250(7) 0.4264(3) 0.42587(14)
C2_4 C 0.29972(7) 0.3892(3) 0.42682(14)
H3_4 H 0.2928 0.3412 0.4633
C3_4 C 0.27708(7) 0.4229(4) 0.37389(15)
C4_4 C 0.28721(8) 0.4933(4) 0.31877(15)
H4_4 H 0.2720 0.5203 0.2842
C5_4 C 0.31993(7) 0.5230(4) 0.31549(14)
C6_4 C 0.34254(7) 0.4894(4) 0.36901(14)
H5_4 H 0.3645 0.5094 0.3666
C7_4 C 0.24172(7) 0.3825(4) 0.37383(14)
C8_4 C 0.33172(8) 0.5838(4) 0.25400(14)
C9_4 C 0.35679(7) 0.4005(3) 0.48420(14)
H6_4 H 0.3786 0.4160 0.4718
H7_4 H 0.3552 0.2921 0.4986
H8_4 H 0.3657 0.0245 0.8238
H11_4 H 0.3377 0.0144 0.7185
O39_4 O 0.43296(5) 0.4764(3) 0.72186(11)
O10_4 O 0.39255(6) 0.9534(3) 0.60270(10)
O12_4 O 0.42744(8) 0.9235(4) 0.97012(13)
O13_4 O 0.46693(7) 0.5369(3) 0.80741(13)
C10_4 C 0.37701(7) 0.8815(4) 0.75231(14)
C11_4 C 0.37929(8) 0.9420(4) 0.81453(15)
C12_4 C 0.40162(8) 0.8817(4) 0.86379(15)
C13_4 C 0.42225(8) 0.7594(4) 0.85001(15)
H9_4 H 0.4376 0.7204 0.8821
C14_4 C 0.41973(7) 0.6953(3) 0.78751(14)
C15_4 C 0.39721(7) 0.7565(3) 0.73966(14)
H10_4 H 0.3956 0.7130 0.6982
C16_4 C 0.40386(9) 0.9523(4) 0.93066(16)
C17_4 C 0.44133(8) 0.5599(4) 0.77236(14)
C18_4 C 0.35326(8) 0.9485(4) 0.69920(15)
H12_4 H 0.3413 0.8624 0.6769
C19_4 C 0.44560(10) 0.6592(5) 0.56747(19)
H13_4 H 0.4390 0.6793 0.6082
C20_4 C 0.47486(11) 0.5783(6) 0.5644(2)
H14_4 H 0.4875 0.5478 0.6021
C21_4 C 0.48469(9) 0.5441(5) 0.50352(19)
C22_4 C 0.46405(9) 0.5912(5) 0.44967(18)
H15_4 H 0.4692 0.5670 0.4081
C23_4 C 0.43589(9) 0.6740(5) 0.45785(18)
H16_4 H 0.4227 0.7072 0.4212
N1_4 N 0.42681(6) 0.7085(3) 0.51654(14)
C24_4 C 0.55440(10) 0.3408(5) 0.43253(19)
H17_4 H 0.5610 0.3207 0.3918
C25_4 C 0.52514(11) 0.4217(6) 0.4356(2)
H18_4 H 0.5125 0.4522 0.3979
C26_4 C 0.51531(9) 0.4559(5) 0.49648(19)
C27_4 C 0.53595(9) 0.4088(5) 0.55033(18)
H19_4 H 0.5308 0.4330 0.5919
C28_4 C 0.56411(9) 0.3260(5) 0.54215(18)
H20_4 H 0.5773 0.2928 0.5788
N2_4 N 0.57319(6) 0.2915(3) 0.48346(14)
O24_4 O 0.60745(6) 0.0466(3) 0.39730(10)
O26_4 O 0.57256(8) 0.0765(4) 0.02988(13)
O27_4 O 0.53307(7) 0.4631(3) 0.19259(13)
O28_4 O 0.56704(5) 0.5236(3) 0.27814(11)
C38_4 C 0.62299(7) 0.1185(4) 0.24769(14)
C39_4 C 0.62071(8) 0.0580(4) 0.18547(15)
C40_4 C 0.59838(8) 0.1183(4) 0.13621(15)
C41_4 C 0.57775(8) 0.2406(4) 0.14999(15)
H29_4 H 0.5624 0.2796 0.1179
C42_4 C 0.58027(7) 0.3047(3) 0.21249(14)
C43_4 C 0.60279(7) 0.2435(3) 0.26034(14)
H30_4 H 0.6044 0.2870 0.3018
C44_4 C 0.59614(9) 0.0477(4) 0.06934(16)
C45_4 C 0.55867(8) 0.4401(4) 0.22764(14)
C46_4 C 0.64674(8) 0.0515(4) 0.30080(15)
H32_4 H 0.6587 0.1376 0.3231
O30_4 O 0.65141(5) 0.3006(2) 0.47597(12)
P3_4 P 0.64925(2) 0.46831(8) 0.44887(3)
P4_4 P 0.62741(2) 0.93617(8) 0.35938(3)
O15_4 O 0.61985(5) 0.4873(3) 0.39852(10)
O16_4 O 0.68126(5) 0.5130(2) 0.42275(10)
O19_4 O 0.77919(6) 0.5365(3) 0.65635(14)
H21_4 H 0.7979 0.5744 0.6517
O22_4 O 0.60414(6) 0.8208(3) 0.32220(12)
O23_4 O 0.65455(5) 0.8533(2) 0.40143(10)
C29_4 C 0.66750(7) 0.5736(3) 0.57413(14)
C30_4 C 0.70028(7) 0.6108(3) 0.57318(14)
H23_4 H 0.7072 0.6588 0.5367
C31_4 C 0.72292(7) 0.5771(4) 0.62611(15)
C32_4 C 0.71279(8) 0.5067(4) 0.68123(15)
H24_4 H 0.7280 0.4797 0.7158
C33_4 C 0.68007(7) 0.4770(4) 0.68451(14)
C34_4 C 0.65746(7) 0.5106(4) 0.63099(14)
H25_4 H 0.6355 0.4906 0.6334
C35_4 C 0.75828(7) 0.6175(4) 0.62617(14)
C36_4 C 0.66828(8) 0.4162(4) 0.74600(14)
C37_4 C 0.64321(7) 0.5995(3) 0.51580(14)
H26_4 H 0.6214 0.5840 0.5282
H27_4 H 0.6448 0.7079 0.5014
H28_4 H 0.6343 0.9755 0.1762
H31_4 H 0.6623 0.9856 0.2815
H2_4 H 0.4253 0.9713 0.0055
H22_4 H 0.5747 0.0287 0.9945
loop_
_geom_bond_atom_site_label_1
_geom_bond_atom_site_label_2
_geom_bond_site_symmetry_1
_geom_bond_site_symmetry_2
O6 C8 1_555 1_555
O7 C8 1_555 1_555
C8 C5 1_555 1_555
Zn9 O7 1_555 1_555
Zn14 O6 1_555 1_555
P1 O1 1_555 1_555
O3 P1 1_555 1_555
Zn15 O3 1_555 1_555
O4 C7 1_555 1_555
O5 H1 1_555 1_555
C1 C2 1_555 1_555
C2 H3 1_555 1_555
C3 C2 1_555 1_555
C4 C3 1_555 1_555
C6 C1 1_555 1_555
C7 O5 1_555 1_555
H6 C9 1_555 1_555
H7 C9 1_555 1_555
H15 C22 1_555 1_555
C23 C22 1_555 1_555
H16 C23 1_555 1_555
Zn10 O4 1_555 1_555
C1 C9 1_555 1_555
C3 C7 1_555 1_555
Zn1 O2 1_555 1_555
Zn15 O10 1_555 1_555
P2 O8 1_555 1_555
O8 Zn2 1_555 1_555
O9 Zn1 1_555 1_555
O10 P2 1_555 1_555
O11 C16 1_555 1_555
O12 H2 1_555 1_555
O13 C17 1_555 1_555
C10 C11 1_555 1_555
C11 H8 1_555 1_555
C12 C11 1_555 1_555
C13 C12 1_555 1_555
H9 C13 1_555 1_555
C14 C13 1_555 1_555
C15 C10 1_555 1_555
H10 C15 1_555 1_555
C16 O12 1_555 1_555
C17 C14 1_555 1_555
C18 P2 1_555 1_555
H11 C18 1_555 1_555
H12 C18 1_555 1_555
C19 H13 1_555 1_555
C20 C19 1_555 1_555
H14 C20 1_555 1_555
C21 C20 1_555 1_555
N1 Zn15 1_555 1_555
Zn18 O11 1_555 1_555
O32 Zn1 1_555 1_555
O34 Zn2 1_555 1_555
O36 Zn1 1_555 1_555
O39 Zn2 1_555 1_555
P2 O9 1_555 1_555
C10 C18 1_555 1_555
C12 C16 1_555 1_555
C14 C15 1_555 1_555
C19 N1 1_555 1_555
Zn13 O28 1_555 1_555
C24 H17 1_555 1_555
C25 C24 1_555 1_555
H18 C25 1_555 1_555
N2 C24 1_555 1_555
Zn4 O16 1_555 1_555
Zn6 N2 1_555 1_555
P4 O22 1_555 1_555
O22 Zn13 1_555 1_555
O23 Zn4 1_555 1_555
O24 Zn6 1_555 1_555
O25 C44 1_555 1_555
O26 H22 1_555 1_555
O27 C45 1_555 1_555
C38 C39 1_555 1_555
C39 H28 1_555 1_555
C40 C39 1_555 1_555
C41 C40 1_555 1_555
H29 C41 1_555 1_555
C42 C41 1_555 1_555
C43 C38 1_555 1_555
H30 C43 1_555 1_555
C44 O26 1_555 1_555
C45 C42 1_555 1_555
C46 P4 1_555 1_555
H31 C46 1_555 1_555
H32 C46 1_555 1_555
Zn16 O25 1_555 1_555
O30 Zn6 1_555 1_555
O31 Zn4 1_555 1_555
O33 Zn13 1_555 1_555
O35 Zn4 1_555 1_555
C25 C26 1_555 1_555
P4 O23 1_555 1_555
P4 O24 1_555 1_555
C38 C46 1_555 1_555
C40 C44 1_555 1_555
C42 C43 1_555 1_555
H19 C27 1_555 1_555
C28 C27 1_555 1_555
H20 C28 1_555 1_555
O18 C35 1_555 1_555
O19 H21 1_555 1_555
C29 C30 1_555 1_555
C30 H23 1_555 1_555
C31 C30 1_555 1_555
C32 C31 1_555 1_555
C34 C29 1_555 1_555
C35 O19 1_555 1_555
H26 C37 1_555 1_555
H27 C37 1_555 1_555
Zn8 O18 1_555 1_555
C29 C37 1_555 1_555
C31 C35 1_555 1_555
P3 O15 1_555 1_555
O30 P3 1_555 1_555
O20 C36 1_555 1_555
O21 C36 1_555 1_555
C36 C33 1_555 1_555
Zn7 O21 1_555 1_555
Zn12 O20 1_555 1_555
Zn14 O28_2 1_555 1_555
C24_2 H17_2 1_555 1_555
C25_2 C24_2 1_555 1_555
H18_2 C25_2 1_555 1_555
C27_2 C26_2 1_555 1_555
H19_2 C27_2 1_555 1_555
C28_2 C27_2 1_555 1_555
H20_2 C28_2 1_555 1_555
N2_2 C24_2 1_555 1_555
Zn9 O16_2 1_555 1_555
Zn18 N2_2 1_555 1_555
P4_2 O22_2 1_555 1_555
O18_2 C35_2 1_555 1_555
O19_2 H21_2 1_555 1_555
O22_2 Zn14 1_555 1_555
O23_2 Zn9 1_555 1_555
O24_2 Zn18 1_555 1_555
O38 C44_2 1_555 1_555
O27_2 C45_2 1_555 1_555
C29_2 C30_2 1_555 1_555
C30_2 H23_2 1_555 1_555
C31_2 C30_2 1_555 1_555
C32_2 C31_2 1_555 1_555
C34_2 C29_2 1_555 1_555
C35_2 O19_2 1_555 1_555
H26_2 C37_2 1_555 1_555
H27_2 C37_2 1_555 1_555
C38_2 C39_2 1_555 1_555
C39_2 H28_2 1_555 1_555
C40_2 C39_2 1_555 1_555
C41_2 C40_2 1_555 1_555
H29_2 C41_2 1_555 1_555
C42_2 C41_2 1_555 1_555
C43_2 C38_2 1_555 1_555
H30_2 C43_2 1_555 1_555
C44_2 O26_2 1_555 1_555
C45_2 C42_2 1_555 1_555
C46_2 P4_2 1_555 1_555
H31_2 C46_2 1_555 1_555
H32_2 C46_2 1_555 1_555
Zn8_2 O18_2 1_555 1_555
O30_2 Zn18 1_555 1_555
O31_2 Zn9 1_555 1_555
C25_2 C26_2 1_555 1_555
C28_2 N2_2 1_555 1_555
P4_2 O23_2 1_555 1_555
P4_2 O24_2 1_555 1_555
C29_2 C37_2 1_555 1_555
C31_2 C35_2 1_555 1_555
C38_2 C46_2 1_555 1_555
C40_2 C44_2 1_555 1_555
C42_2 C43_2 1_555 1_555
P3_2 O15_2 1_555 1_555
O30_2 P3_2 1_555 1_555
O34 C36_2 1_555 1_555
O36 C36_2 1_555 1_555
C36_2 C33_2 1_555 1_555
P1_2 O1_2 1_555 1_555
O3_2 P1_2 1_555 1_555
O33 C8_2 1_555 1_555
O35 C8_2 1_555 1_555
C8_2 C5_2 1_555 1_555
Zn16 O3_2 1_555 1_555
Zn7 O2_2 1_555 1_555
Zn16 O10_2 1_555 1_555
P2_2 O8_2 1_555 1_555
O4_2 C7_2 1_555 1_555
O5_2 H1_2 1_555 1_555
O8_2 Zn12 1_555 1_555
O9_2 Zn7 1_555 1_555
O10_2 P2_2 1_555 1_555
O37 C16_2 1_555 1_555
O13_2 C17_2 1_555 1_555
C1_2 C2_2 1_555 1_555
C2_2 H3_2 1_555 1_555
C3_2 C2_2 1_555 1_555
C4_2 C3_2 1_555 1_555
C6_2 C1_2 1_555 1_555
C7_2 O5_2 1_555 1_555
H6_2 C9_2 1_555 1_555
H7_2 C9_2 1_555 1_555
C10_2 C11_2 1_555 1_555
C11_2 H8_2 1_555 1_555
C12_2 C11_2 1_555 1_555
C13_2 C12_2 1_555 1_555
H9_2 C13_2 1_555 1_555
C14_2 C13_2 1_555 1_555
C15_2 C10_2 1_555 1_555
H10_2 C15_2 1_555 1_555
C16_2 O12_2 1_555 1_555
C17_2 C14_2 1_555 1_555
C18_2 P2_2 1_555 1_555
H11_2 C18_2 1_555 1_555
H12_2 C18_2 1_555 1_555
C19_2 H13_2 1_555 1_555
C20_2 C19_2 1_555 1_555
H14_2 C20_2 1_555 1_555
C21_2 C20_2 1_555 1_555
C22_2 C21_2 1_555 1_555
H15_2 C22_2 1_555 1_555
C23_2 C22_2 1_555 1_555
H16_2 C23_2 1_555 1_555
N1_2 Zn16 1_555 1_555
Zn10_2 O4_2 1_555 1_555
O32_2 Zn7 1_555 1_555
O39_2 Zn12 1_555 1_555
P2_2 O9_2 1_555 1_555
C1_2 C9_2 1_555 1_555
C3_2 C7_2 1_555 1_555
C10_2 C18_2 1_555 1_555
C12_2 C16_2 1_555 1_555
C14_2 C15_2 1_555 1_555
C19_2 N1_2 1_555 1_555
C23_2 N1_2 1_555 1_555
O31 C7_3 1_555 1_555
O5_3 H1_3 1_555 1_555
O6_2 C8_3 1_555 1_555
O7_2 C8_3 1_555 1_555
C1_3 C2_3 1_555 1_555
C2_3 H3_3 1_555 1_555
C3_3 C2_3 1_555 1_555
C4_3 C3_3 1_555 1_555
H4_3 C4_3 1_555 1_555
C5_3 C4_3 1_555 1_555
C6_3 C1_3 1_555 1_555
H5_3 C6_3 1_555 1_555
C7_3 O5_3 1_555 1_555
C8_3 C5_3 1_555 1_555
H6_3 C9_3 1_555 1_555
H7_3 C9_3 1_555 1_555
Zn10_2 O7_2 1_555 1_555
Zn14_2 O6_2 1_555 1_555
C1_3 C9_3 1_555 1_555
C3_3 C7_3 1_555 1_555
C5_3 C6_3 1_555 1_555
Zn8 O2_3 1_555 1_555
Zn2_2 O1_3 1_555 1_555
P1_3 O1_3 1_555 1_555
P2_3 O8_3 1_555 1_555
O2_3 P1_3 1_555 1_555
O3_3 P1_3 1_555 1_555
O8_3 Zn2_2 1_555 1_555
O9_3 Zn8 1_555 1_555
Zn15_2 O3_3 1_555 1_555
Zn18_2 O11_2 1_555 1_555
O34_2 Zn2_2 1_555 1_555
O36_2 Zn8 1_555 1_555
O39_3 Zn2_2 1_555 1_555
P2_3 O9_3 1_555 1_555
H15_3 C22_3 1_555 1_555
C23_3 C22_3 1_555 1_555
H16_3 C23_3 1_555 1_555
C24_3 H17_3 1_555 1_555
C25_3 C24_3 1_555 1_555
H18_3 C25_3 1_555 1_555
N2_3 C24_3 1_555 1_555
Zn6_2 N2_3 1_555 1_555
O24_3 Zn6_2 1_555 1_555
O26_3 H22_3 1_555 1_555
O27_3 C45_3 1_555 1_555
O28_3 C45_3 1_555 1_555
C38_3 C39_3 1_555 1_555
C40_3 C39_3 1_555 1_555
C41_3 C40_3 1_555 1_555
H29_3 C41_3 1_555 1_555
C42_3 C41_3 1_555 1_555
C43_3 C38_3 1_555 1_555
H30_3 C43_3 1_555 1_555
C44_3 O26_3 1_555 1_555
C45_3 C42_3 1_555 1_555
H32_3 C46_3 1_555 1_555
Zn13_2 O28_3 1_555 1_555
O30_3 Zn6_2 1_555 1_555
C25_3 C26_3 1_555 1_555
C38_3 C46_3 1_555 1_555
C40_3 C44_3 1_555 1_555
C42_3 C43_3 1_555 1_555
Zn15_2 O10_3 1_555 1_555
O12_3 H2_3 1_555 1_555
O13_3 C17_3 1_555 1_555
O39_3 C17_3 1_555 1_555
C10_3 C11_3 1_555 1_555
C12_3 C11_3 1_555 1_555
C13_3 C12_3 1_555 1_555
H9_3 C13_3 1_555 1_555
C14_3 C13_3 1_555 1_555
C15_3 C10_3 1_555 1_555
H10_3 C15_3 1_555 1_555
C16_3 O12_3 1_555 1_555
C17_3 C14_3 1_555 1_555
H12_3 C18_3 1_555 1_555
C19_3 H13_3 1_555 1_555
C20_3 C19_3 1_555 1_555
H14_3 C20_3 1_555 1_555
C21_3 C20_3 1_555 1_555
N1_3 Zn15_2 1_555 1_555
H19_3 C27_3 1_555 1_555
C28_3 C27_3 1_555 1_555
H20_3 C28_3 1_555 1_555
C10_3 C18_3 1_555 1_555
C12_3 C16_3 1_555 1_555
C14_3 C15_3 1_555 1_555
C19_3 N1_3 1_555 1_555
Zn10 O16_3 1_555 1_555
Zn13_2 O15_3 1_555 1_555
P3_3 O15_3 1_555 1_555
P4_3 O22_3 1_555 1_555
O16_3 P3_3 1_555 1_555
O30_3 P3_3 1_555 1_555
O22_3 Zn13_2 1_555 1_555
O23_3 Zn10 1_555 1_555
Zn16_2 O25_2 1_555 1_555
O33_2 Zn13_2 1_555 1_555
O35_2 Zn10 1_555 1_555
P4_3 O23_3 1_555 1_555
O32 C35_3 1_555 1_555
O19_3 H21_3 1_555 1_555
O20_2 C36_3 1_555 1_555
O21_2 C36_3 1_555 1_555
C29_3 C30_3 1_555 1_555
C30_3 H23_3 1_555 1_555
C31_3 C30_3 1_555 1_555
C32_3 C31_3 1_555 1_555
H24_3 C32_3 1_555 1_555
C33_3 C32_3 1_555 1_555
C34_3 C29_3 1_555 1_555
H25_3 C34_3 1_555 1_555
C35_3 O19_3 1_555 1_555
C36_3 C33_3 1_555 1_555
H26_3 C37_3 1_555 1_555
H27_3 C37_3 1_555 1_555
Zn8_2 O21_2 1_555 1_555
Zn12_2 O20_2 1_555 1_555
C29_3 C37_3 1_555 1_555
C31_3 C35_3 1_555 1_555
C33_3 C34_3 1_555 1_555
Zn8_2 O2_4 1_555 1_555
Zn12_2 O1_4 1_555 1_555
P1_4 O1_4 1_555 1_555
P2_4 O8_4 1_555 1_555
O2_4 P1_4 1_555 1_555
O3_4 P1_4 1_555 1_555
O31_2 C7_4 1_555 1_555
O5_4 H1_4 1_555 1_555
O33_2 C8_4 1_555 1_555
O35_2 C8_4 1_555 1_555
O8_4 Zn12_2 1_555 1_555
O9_4 Zn8_2 1_555 1_555
C1_4 C2_4 1_555 1_555
C2_4 H3_4 1_555 1_555
C3_4 C2_4 1_555 1_555
C4_4 C3_4 1_555 1_555
H4_4 C4_4 1_555 1_555
C5_4 C4_4 1_555 1_555
C6_4 C1_4 1_555 1_555
H5_4 C6_4 1_555 1_555
C7_4 O5_4 1_555 1_555
C8_4 C5_4 1_555 1_555
C9_4 P1_4 1_555 1_555
H6_4 C9_4 1_555 1_555
H7_4 C9_4 1_555 1_555
Zn16_2 O3_4 1_555 1_555
O39_4 Zn12_2 1_555 1_555
P2_4 O9_4 1_555 1_555
C1_4 C9_4 1_555 1_555
C3_4 C7_4 1_555 1_555
C5_4 C6_4 1_555 1_555
Zn16_2 O10_4 1_555 1_555
O13_4 C17_4 1_555 1_555
O39_4 C17_4 1_555 1_555
C10_4 C11_4 1_555 1_555
C12_4 C11_4 1_555 1_555
C13_4 C12_4 1_555 1_555
H9_4 C13_4 1_555 1_555
C14_4 C13_4 1_555 1_555
C15_4 C10_4 1_555 1_555
H10_4 C15_4 1_555 1_555
C16_4 O12_4 1_555 1_555
C17_4 C14_4 1_555 1_555
H12_4 C18_4 1_555 1_555
C19_4 H13_4 1_555 1_555
C20_4 C19_4 1_555 1_555
H14_4 C20_4 1_555 1_555
C21_4 C20_4 1_555 1_555
C22_4 C21_4 1_555 1_555
H15_4 C22_4 1_555 1_555
C23_4 C22_4 1_555 1_555
H16_4 C23_4 1_555 1_555
N1_4 Zn16_2 1_555 1_555
C24_4 H17_4 1_555 1_555
C25_4 C24_4 1_555 1_555
H18_4 C25_4 1_555 1_555
C26_4 C21_4 1_555 1_555
C27_4 C26_4 1_555 1_555
H19_4 C27_4 1_555 1_555
C28_4 C27_4 1_555 1_555
H20_4 C28_4 1_555 1_555
N2_4 C24_4 1_555 1_555
Zn18_2 N2_4 1_555 1_555
O24_4 Zn18_2 1_555 1_555
O27_4 C45_4 1_555 1_555
O28_4 C45_4 1_555 1_555
C38_4 C39_4 1_555 1_555
C40_4 C39_4 1_555 1_555
C41_4 C40_4 1_555 1_555
H29_4 C41_4 1_555 1_555
C42_4 C41_4 1_555 1_555
C43_4 C38_4 1_555 1_555
H30_4 C43_4 1_555 1_555
C44_4 O26_4 1_555 1_555
C45_4 C42_4 1_555 1_555
H32_4 C46_4 1_555 1_555
Zn14_2 O28_4 1_555 1_555
O30_4 Zn18_2 1_555 1_555
C10_4 C18_4 1_555 1_555
C12_4 C16_4 1_555 1_555
C14_4 C15_4 1_555 1_555
C19_4 N1_4 1_555 1_555
C23_4 N1_4 1_555 1_555
C25_4 C26_4 1_555 1_555
C28_4 N2_4 1_555 1_555
C38_4 C46_4 1_555 1_555
C40_4 C44_4 1_555 1_555
C42_4 C43_4 1_555 1_555
Zn10_2 O16_4 1_555 1_555
Zn14_2 O15_4 1_555 1_555
P3_4 O15_4 1_555 1_555
P4_4 O22_4 1_555 1_555
O16_4 P3_4 1_555 1_555
O30_4 P3_4 1_555 1_555
O32_2 C35_4 1_555 1_555
O19_4 H21_4 1_555 1_555
O34_2 C36_4 1_555 1_555
O36_2 C36_4 1_555 1_555
O22_4 Zn14_2 1_555 1_555
O23_4 Zn10_2 1_555 1_555
C29_4 C30_4 1_555 1_555
C30_4 H23_4 1_555 1_555
C31_4 C30_4 1_555 1_555
C32_4 C31_4 1_555 1_555
H24_4 C32_4 1_555 1_555
C33_4 C32_4 1_555 1_555
C34_4 C29_4 1_555 1_555
H25_4 C34_4 1_555 1_555
C35_4 O19_4 1_555 1_555
C36_4 C33_4 1_555 1_555
C37_4 P3_4 1_555 1_555
H26_4 C37_4 1_555 1_555
H27_4 C37_4 1_555 1_555
P4_4 O23_4 1_555 1_555
C29_4 C37_4 1_555 1_555
C31_4 C35_4 1_555 1_555
C33_4 C34_4 1_555 1_555

#END
