
###############################################################################
#
# This file contains modified crystal structure data generated from the
# MOF subset of the Cambridge Structural Database (CSD) v543 
# hosted by the Cambridge Crystallographic Data Centre (CCDC).
#
# This work is licensed under the Creative Commons
# Attribution-NonCommercial-ShareAlike 4.0 International License.
# To view a copy of this license, visit
# http://creativecommons.org/licenses/by-nc-sa/4.0/
# or send a letter to
# Creative Commons, PO Box 1866, Mountain View, CA 94042, USA.
#
# CIF created using the CSD Python API on 29 September 2022
# The structure has been converted into the P1 space group
# The structure has a 3D framework
# The original CSD entry RUDWAR is in the rhombohedral crystal system
# The framework has been calculated to contain at least 10.0% void space
# The void calculation uses a probe of radius 1.32A, grid spacing 0.4
#
###############################################################################

data_RUDWAR
_chemical_formula_moiety         '(C270 H154 Dy18 N144 O28)n'
_symmetry_cell_setting           triclinic
_symmetry_space_group_name_H-M   'P 1'
_symmetry_Int_Tables_number      1
_space_group_name_Hall           'P 1'
loop_
_symmetry_equiv_pos_site_id
_symmetry_equiv_pos_as_xyz
1 x,y,z
_cell_length_a                   28.2180(18)
_cell_length_b                   28.2180(18)
_cell_length_c                   12.7757(8)
_cell_angle_alpha                90
_cell_angle_beta                 90
_cell_angle_gamma                120
_cell_volume                     8809.84
loop_
_atom_site_label
_atom_site_type_symbol
_atom_site_fract_x
_atom_site_fract_y
_atom_site_fract_z
O1 O 0.6033(5) 0.7429(5) 0.1200(8)
O2 O 0.4919(4) 0.5321(4) 0.0591(8)
N5 N 0.6149(5) 0.6273(5) 0.0643(9)
N6 N 0.6617(6) 0.6999(5) 0.1646(10)
N7 N 0.6862(6) 0.6663(6) 0.1741(11)
N8 N 0.6303(5) 0.5399(4) 0.0301(10)
C8 C 0.5898(6) 0.7003(5) 0.0713(10)
C9 C 0.6222(6) 0.6731(6) 0.0997(10)
C10 C 0.6548(5) 0.6214(5) 0.1138(10)
C11 C 0.6623(6) 0.5758(7) 0.0964(12)
C12 C 0.7019(7) 0.5695(8) 0.1485(14)
H5 H 0.7248 0.5954 0.1971
C13 C 0.7069(8) 0.5236(9) 0.1268(17)
H6 H 0.7335 0.5188 0.1602
C14 C 0.6727(9) 0.4865(9) 0.0568(18)
H7 H 0.6749 0.4554 0.0415
C15 C 0.6333(8) 0.4960(7) 0.0071(16)
H9 H 0.489(4) 0.554(3) 0.102(7)
Dy2 Dy 0.66976(3) 0.77686(2) 0.26802(5)
Dy3 Dy 0.44353(2) 0.44044(2) 0.06531(5)
Dy1 Dy 0.55647(2) 0.55956(2) 0.93469(5)
N1 N 0.4885(5) 0.5470(6) 0.7933(10)
N2 N 0.5361(5) 0.6326(5) 0.9362(9)
N3 N 0.4796(6) 0.6665(6) 0.8952(11)
N4 N 0.5155(6) 0.6975(6) 0.9732(11)
C1 C 0.4670(9) 0.5061(9) 0.7309(16)
H1 H 0.4810 0.4825 0.7283
C2 C 0.4214(11) 0.4959(12) 0.664(2)
H2 H 0.4059 0.4666 0.6178
C3 C 0.4038(8) 0.5297(9) 0.6725(14)
H3 H 0.3740 0.5230 0.6311
C4 C 0.4257(8) 0.5768(9) 0.7395(15)
H4 H 0.4111 0.6000 0.7402
C5 C 0.4684(5) 0.5861(6) 0.8018(11)
C6 C 0.4959(5) 0.6268(6) 0.8770(9)
C7 C 0.5491(6) 0.6796(6) 0.9938(10)
H8 H 0.6095 0.4711 0.9580
O3 O 0.5904(5) 0.5271(7) 0.7867(8)
O4 O 0.5081(4) 0.4679(4) 0.9409(8)
N9 N 0.6334(5) 0.6285(8) 0.8313(10)
H8_2 H 0.5289 0.1384 0.9580
O3_2 O 0.4729(7) 0.0634(9) 0.7867(8)
O4_2 O 0.5321(4) 0.0402(6) 0.9409(8)
N9_2 N 0.3715(8) 0.0050(9) 0.8313(10)
O1_2 O 0.2571(5) 0.8604(7) 0.1200(8)
O2_2 O 0.4679(4) 0.9598(6) 0.0591(8)
N5_2 N 0.3727(5) 0.9876(7) 0.0643(9)
N6_2 N 0.3001(5) 0.9618(8) 0.1646(10)
C8_2 C 0.2997(5) 0.8895(8) 0.0713(10)
C9_2 C 0.3269(6) 0.9491(8) 0.0997(10)
H9_2 H 0.446(3) 0.935(5) 0.102(7)
Dy2_2 Dy 0.22314(2) 0.89289(4) 0.26802(5)
O1_3 O 0.1396(7) 0.3967(5) 0.1200(8)
O2_3 O 0.0402(6) 0.5081(4) 0.0591(8)
N5_3 N 0.0124(7) 0.3851(5) 0.0643(9)
N6_3 N 0.0382(8) 0.3383(6) 0.1646(10)
C8_3 C 0.1105(8) 0.4102(6) 0.0713(10)
C9_3 C 0.0509(8) 0.3778(6) 0.0997(10)
H9_3 H 0.065(5) 0.511(4) 0.102(7)
Dy2_3 Dy 0.10711(4) 0.33024(3) 0.26802(5)
H8_3 H 0.8616 0.3905 0.9580
O3_3 O 0.9366(9) 0.4096(5) 0.7867(8)
O4_3 O 0.9598(6) 0.4919(4) 0.9409(8)
N9_3 N 0.9950(9) 0.3666(5) 0.8313(10)
O1_4 O 0.2700(5) 0.0762(5) 0.4533(8)
N4_2 N 0.1822(6) 0.0308(6) 0.3065(11)
N6_4 N 0.3284(6) 0.0332(5) 0.4979(10)
C7_2 C 0.2158(6) 0.0129(6) 0.3271(10)
C8_4 C 0.2565(6) 0.0336(5) 0.4046(10)
C9_4 C 0.2889(6) 0.0064(6) 0.4330(10)
Dy2_4 Dy 0.33642(3) 0.11020(2) 0.60136(5)
O2_4 O 0.1586(4) 0.8654(4) 0.3924(8)
N1_2 N 0.1552(5) 0.8803(6) 0.1266(10)
N2_2 N 0.2028(5) 0.9659(5) 0.2695(9)
N3_2 N 0.1463(6) 0.9998(6) 0.2285(11)
N5_4 N 0.2816(5) 0.9606(5) 0.3976(9)
N7_2 N 0.3529(6) 0.9996(6) 0.5074(11)
N8_2 N 0.2970(5) 0.8732(4) 0.3634(10)
C1_2 C 0.1337(9) 0.8394(9) 0.0642(16)
H1_2 H 0.1477 0.8158 0.0616
C3_2 C 0.0705(8) 0.8630(9) 0.0058(14)
C4_2 C 0.0924(8) 0.9101(9) 0.0728(15)
H4_2 H 0.0778 0.9333 0.0735
C5_2 C 0.1351(5) 0.9194(6) 0.1351(11)
C6_2 C 0.1626(5) 0.9601(6) 0.2103(9)
C10_2 C 0.3215(5) 0.9547(5) 0.4471(10)
C11_2 C 0.3290(6) 0.9091(7) 0.4297(12)
C12_2 C 0.3686(7) 0.9028(8) 0.4818(14)
H5_2 H 0.3915 0.9287 0.5304
C13_2 C 0.3736(8) 0.8569(9) 0.4601(17)
H6_2 H 0.4002 0.8521 0.4935
C14_2 C 0.3394(9) 0.8198(9) 0.3901(18)
H7_2 H 0.3416 0.7887 0.3748
C15_2 C 0.3000(8) 0.8293(7) 0.3404(16)
H8_4 H 0.2762 0.8044 0.2913
H9_4 H 0.156(4) 0.887(3) 0.435(7)
Dy3_2 Dy 0.11020(2) 0.77377(2) 0.39864(5)
O4_4 O 0.1748(4) 0.8012(4) 0.2742(8)
O2_5 O 0.1346(4) 0.2931(6) 0.3924(8)
N1_3 N 0.1197(6) 0.2748(8) 0.1266(10)
N2_3 N 0.0341(5) 0.2368(7) 0.2695(9)
N3_3 N 0.0002(6) 0.1464(8) 0.2285(11)
N5_5 N 0.0394(5) 0.3209(7) 0.3976(9)
N7_3 N 0.0004(6) 0.3532(8) 0.5074(11)
N8_3 N 0.1268(4) 0.4237(6) 0.3634(10)
C1_3 C 0.1606(9) 0.2942(13) 0.0642(16)
H1_3 H 0.1842 0.3318 0.0616
C3_3 C 0.1370(9) 0.2074(12) 0.0058(14)
C4_3 C 0.0899(9) 0.1822(12) 0.0728(15)
H4_3 H 0.0667 0.1444 0.0735
C5_3 C 0.0806(6) 0.2156(8) 0.1351(11)
C6_3 C 0.0399(6) 0.2024(8) 0.2103(9)
C10_3 C 0.0453(5) 0.3667(7) 0.4471(10)
C11_3 C 0.0909(7) 0.4198(9) 0.4297(12)
C12_3 C 0.0972(8) 0.4657(11) 0.4818(14)
H5_3 H 0.0713 0.4627 0.5304
C13_3 C 0.1431(9) 0.5166(12) 0.4601(17)
H6_3 H 0.1479 0.5480 0.4935
C14_3 C 0.1802(9) 0.5195(13) 0.3901(18)
H7_3 H 0.2113 0.5528 0.3748
C15_3 C 0.1707(7) 0.4706(11) 0.3404(16)
H8_5 H 0.1956 0.4717 0.2913
H9_5 H 0.113(3) 0.268(5) 0.435(7)
Dy3_3 Dy 0.22623(2) 0.33642(3) 0.39864(5)
O4_5 O 0.1988(4) 0.3735(6) 0.2742(8)
O1_5 O 0.9238(5) 0.1937(7) 0.4533(8)
N4_3 N 0.9692(6) 0.1513(8) 0.3065(11)
N6_5 N 0.9668(5) 0.2951(8) 0.4979(10)
C7_3 C 0.9871(6) 0.2028(8) 0.3271(10)
C8_5 C 0.9664(5) 0.2228(8) 0.4046(10)
C9_5 C 0.9936(6) 0.2824(8) 0.4330(10)
Dy2_5 Dy 0.88980(2) 0.22623(4) 0.60136(5)
O1_6 O 0.8063(7) 0.7300(5) 0.4533(8)
O2_6 O 0.7069(6) 0.8414(4) 0.3924(8)
N1_4 N 0.7252(8) 0.8448(5) 0.1266(10)
N2_4 N 0.7632(7) 0.7972(5) 0.2695(9)
N3_4 N 0.8536(8) 0.8537(6) 0.2285(11)
N4_4 N 0.8487(8) 0.8178(6) 0.3065(11)
N5_6 N 0.6791(7) 0.7184(5) 0.3976(9)
N6_6 N 0.7049(8) 0.6716(6) 0.4979(10)
N7_4 N 0.6468(8) 0.6471(6) 0.5074(11)
N8_4 N 0.5763(6) 0.7030(5) 0.3634(10)
C1_4 C 0.7058(13) 0.8663(9) 0.0642(16)
H1_4 H 0.6682 0.8523 0.0616
C3_4 C 0.7926(12) 0.9295(8) 0.0058(14)
C4_4 C 0.8178(12) 0.9076(8) 0.0728(15)
H4_4 H 0.8556 0.9222 0.0735
C5_4 C 0.7844(8) 0.8649(5) 0.1351(11)
C6_4 C 0.7976(8) 0.8374(5) 0.2103(9)
C7_4 C 0.7972(8) 0.7842(6) 0.3271(10)
C8_6 C 0.7772(8) 0.7435(6) 0.4046(10)
C9_6 C 0.7176(8) 0.7111(6) 0.4330(10)
C10_4 C 0.6333(7) 0.6785(5) 0.4471(10)
C11_4 C 0.5802(9) 0.6710(6) 0.4297(12)
C12_4 C 0.5343(11) 0.6314(7) 0.4818(14)
H5_4 H 0.5373 0.6085 0.5304
C13_4 C 0.4834(12) 0.6264(8) 0.4601(17)
H6_4 H 0.4520 0.5998 0.4935
C14_4 C 0.4805(13) 0.6606(9) 0.3901(18)
H7_4 H 0.4472 0.6584 0.3748
C15_4 C 0.5294(11) 0.7000(8) 0.3404(16)
H8_6 H 0.5283 0.7238 0.2913
H9_6 H 0.732(5) 0.844(4) 0.435(7)
Dy2_6 Dy 0.77377(4) 0.66358(3) 0.60136(5)
Dy3_4 Dy 0.66358(3) 0.88980(2) 0.39864(5)
O4_6 O 0.6265(6) 0.8252(4) 0.2742(8)
O2_7 O 0.8252(4) 0.1988(4) 0.7258(8)
N1_5 N 0.8218(5) 0.2137(6) 0.4600(10)
N2_5 N 0.8694(5) 0.2993(5) 0.6029(9)
N3_5 N 0.8129(6) 0.3332(6) 0.5619(11)
N4_5 N 0.8488(6) 0.3642(6) 0.6399(11)
N5_7 N 0.9482(5) 0.2940(5) 0.7310(9)
N8_5 N 0.9636(5) 0.2066(4) 0.6968(10)
C1_5 C 0.8003(9) 0.1728(9) 0.3976(16)
H1_5 H 0.8143 0.1492 0.3950
C2_2 C 0.7547(11) 0.1626(12) 0.331(2)
H2_2 H 0.7392 0.1333 0.2845
C3_5 C 0.7371(8) 0.1964(9) 0.3392(14)
H3_2 H 0.7073 0.1897 0.2978
C4_5 C 0.7590(8) 0.2435(9) 0.4062(15)
H4_5 H 0.7444 0.2667 0.4069
C5_5 C 0.8017(5) 0.2528(6) 0.4685(11)
C6_5 C 0.8292(5) 0.2935(6) 0.5437(9)
C7_5 C 0.8824(6) 0.3463(6) 0.6605(10)
C8_7 C 0.9231(6) 0.3670(5) 0.7380(10)
C9_7 C 0.9555(6) 0.3398(6) 0.7664(10)
C10_5 C 0.9881(5) 0.2881(5) 0.7805(10)
C11_5 C 0.9956(6) 0.2425(7) 0.7631(12)
C15_5 C 0.9666(8) 0.1627(7) 0.6738(16)
H8_7 H 0.9428 0.1378 0.6247
H9_7 H 0.822(4) 0.221(3) 0.769(7)
Dy3_5 Dy 0.77686(2) 0.10711(2) 0.73198(5)
O4_7 O 0.8414(4) 0.1346(4) 0.6076(8)
O2_8 O 0.8012(4) 0.6265(6) 0.7258(8)
N1_6 N 0.7863(6) 0.6082(8) 0.4600(10)
N2_6 N 0.7007(5) 0.5702(7) 0.6029(9)
N3_6 N 0.6668(6) 0.4798(8) 0.5619(11)
N4_6 N 0.6358(6) 0.4847(8) 0.6399(11)
N5_8 N 0.7060(5) 0.6543(7) 0.7310(9)
N7_5 N 0.6670(6) 0.6866(8) 0.8408(11)
N8_6 N 0.7934(4) 0.7571(6) 0.6968(10)
C1_6 C 0.8272(9) 0.6276(13) 0.3976(16)
H1_6 H 0.8508 0.6652 0.3950
C2_3 C 0.8374(12) 0.5922(16) 0.331(2)
H2_3 H 0.8667 0.6060 0.2845
C3_6 C 0.8036(9) 0.5408(12) 0.3392(14)
H3_3 H 0.8103 0.5177 0.2978
C4_6 C 0.7565(9) 0.5156(12) 0.4062(15)
H4_6 H 0.7333 0.4778 0.4069
C5_6 C 0.7472(6) 0.5490(8) 0.4685(11)
C6_6 C 0.7065(6) 0.5358(8) 0.5437(9)
C7_6 C 0.6537(6) 0.5362(8) 0.6605(10)
C8_8 C 0.6330(5) 0.5562(8) 0.7380(10)
C9_8 C 0.6602(6) 0.6158(8) 0.7664(10)
C10_6 C 0.7119(5) 0.7001(7) 0.7805(10)
C11_6 C 0.7575(7) 0.7532(9) 0.7631(12)
C12_5 C 0.7638(8) 0.7991(11) 0.8152(14)
H5_5 H 0.7379 0.7961 0.8638
C13_5 C 0.8097(9) 0.8500(12) 0.7935(17)
H6_5 H 0.8145 0.8814 0.8269
C14_5 C 0.8468(9) 0.8529(13) 0.7235(18)
H7_5 H 0.8779 0.8862 0.7082
C15_6 C 0.8373(7) 0.8040(11) 0.6738(16)
H8_8 H 0.8622 0.8051 0.6247
H9_8 H 0.779(3) 0.602(5) 0.769(7)
Dy3_6 Dy 0.89289(2) 0.66976(3) 0.73198(5)
O4_8 O 0.8654(4) 0.7069(6) 0.6076(8)
O2_9 O 0.3735(6) 0.1748(4) 0.7258(8)
N1_7 N 0.3918(8) 0.1782(5) 0.4600(10)
N2_7 N 0.4298(7) 0.1306(5) 0.6029(9)
N3_7 N 0.5202(8) 0.1871(6) 0.5619(11)
N4_7 N 0.5153(8) 0.1512(6) 0.6399(11)
N5_9 N 0.3457(7) 0.0518(5) 0.7310(9)
N8_7 N 0.2429(6) 0.0364(5) 0.6968(10)
C1_7 C 0.3724(13) 0.1997(9) 0.3976(16)
H1_7 H 0.3348 0.1857 0.3950
C2_4 C 0.4078(16) 0.2453(11) 0.331(2)
H2_4 H 0.3940 0.2608 0.2845
C3_7 C 0.4592(12) 0.2629(8) 0.3392(14)
H3_4 H 0.4823 0.2927 0.2978
C4_7 C 0.4844(12) 0.2410(8) 0.4062(15)
H4_7 H 0.5222 0.2556 0.4069
C5_7 C 0.4510(8) 0.1983(5) 0.4685(11)
C6_7 C 0.4642(8) 0.1708(5) 0.5437(9)
C7_7 C 0.4638(8) 0.1176(6) 0.6605(10)
C8_9 C 0.4438(8) 0.0769(6) 0.7380(10)
C9_9 C 0.3842(8) 0.0445(6) 0.7664(10)
C10_7 C 0.2999(7) 0.0119(5) 0.7805(10)
C11_7 C 0.2468(9) 0.0044(6) 0.7631(12)
C15_7 C 0.1960(11) 0.0334(8) 0.6738(16)
H8_9 H 0.1949 0.0572 0.6247
H9_9 H 0.398(5) 0.178(4) 0.769(7)
Dy3_7 Dy 0.33024(3) 0.22314(2) 0.73198(5)
O4_9 O 0.2931(6) 0.1586(4) 0.6076(8)
N1_8 N 0.5115(5) 0.4530(6) 0.2067(10)
N2_8 N 0.4639(5) 0.3674(5) 0.0638(9)
N3_8 N 0.5204(6) 0.3335(6) 0.1048(11)
N4_8 N 0.4845(6) 0.3025(6) 0.0268(11)
C1_8 C 0.5330(9) 0.4939(9) 0.2691(16)
H1_8 H 0.5190 0.5175 0.2717
C2_5 C 0.5786(11) 0.5041(12) 0.336(2)
H2_5 H 0.5941 0.5334 0.3822
C3_8 C 0.5962(8) 0.4703(9) 0.3275(14)
H3_5 H 0.6260 0.4770 0.3689
C4_8 C 0.5743(8) 0.4232(9) 0.2605(15)
H4_8 H 0.5889 0.4000 0.2598
C5_8 C 0.5316(5) 0.4139(6) 0.1982(11)
C6_8 C 0.5041(5) 0.3732(6) 0.1230(9)
C7_8 C 0.4509(6) 0.3204(6) 0.0062(10)
H8_10 H 0.3905 0.5289 0.0420
O3_4 O 0.4096(5) 0.4729(7) 0.2133(8)
N9_4 N 0.3666(5) 0.3715(8) 0.1687(10)
O1_7 O 0.3967(5) 0.2571(5) 0.8800(8)
N5_10 N 0.3851(5) 0.3727(5) 0.9357(9)
N6_7 N 0.3383(6) 0.3001(5) 0.8354(10)
N7_6 N 0.3138(6) 0.3337(6) 0.8259(11)
N8_8 N 0.3697(5) 0.4601(4) 0.9699(10)
C8_10 C 0.4102(6) 0.2997(5) 0.9287(10)
C9_10 C 0.3778(6) 0.3269(6) 0.9003(10)
C10_8 C 0.3452(5) 0.3786(5) 0.8862(10)
C11_8 C 0.3377(6) 0.4242(7) 0.9036(12)
C12_6 C 0.2981(7) 0.4305(8) 0.8515(14)
H5_6 H 0.2752 0.4046 0.8029
C13_6 C 0.2931(8) 0.4764(9) 0.8732(17)
H6_6 H 0.2665 0.4812 0.8398
C14_6 C 0.3273(9) 0.5135(9) 0.9432(18)
H7_6 H 0.3251 0.5446 0.9585
C15_8 C 0.3667(8) 0.5040(7) 0.9929(16)
H9_10 H 0.511(4) 0.446(3) 0.898(7)
O1_8 O 0.7429(5) 0.1396(7) 0.8800(8)
N5_11 N 0.6273(5) 0.0124(7) 0.9357(9)
N6_8 N 0.6999(5) 0.0382(8) 0.8354(10)
C8_11 C 0.7003(5) 0.1105(8) 0.9287(10)
C9_11 C 0.6731(6) 0.0509(8) 0.9003(10)
H9_11 H 0.554(3) 0.065(5) 0.898(7)
H8_11 H 0.4711 0.8616 0.0420
O3_5 O 0.5271(7) 0.9366(9) 0.2133(8)
N9_5 N 0.6285(8) 0.9950(9) 0.1687(10)
H8_12 H 0.1384 0.6095 0.0420
O3_6 O 0.0634(9) 0.5904(5) 0.2133(8)
N9_6 N 0.0050(9) 0.6334(5) 0.1687(10)
O1_9 O 0.8604(7) 0.6033(5) 0.8800(8)
N5_12 N 0.9876(7) 0.6149(5) 0.9357(9)
N6_9 N 0.9618(8) 0.6617(6) 0.8354(10)
C8_12 C 0.8895(8) 0.5898(6) 0.9287(10)
C9_12 C 0.9491(8) 0.6222(6) 0.9003(10)
H9_12 H 0.935(5) 0.489(4) 0.898(7)
N1_9 N 0.8448(5) 0.1197(6) 0.8734(10)
N2_9 N 0.7972(5) 0.0341(5) 0.7305(9)
N3_9 N 0.8537(6) 0.0002(6) 0.7715(11)
N5_13 N 0.7184(5) 0.0394(5) 0.6024(9)
N7_7 N 0.6471(6) 0.0004(6) 0.4926(11)
N8_9 N 0.7030(5) 0.1268(4) 0.6366(10)
C1_9 C 0.8663(9) 0.1606(9) 0.9358(16)
H1_9 H 0.8523 0.1842 0.9384
C3_9 C 0.9295(8) 0.1370(9) 0.9942(14)
C4_9 C 0.9076(8) 0.0899(9) 0.9272(15)
H4_9 H 0.9222 0.0667 0.9265
C5_9 C 0.8649(5) 0.0806(6) 0.8649(11)
C6_9 C 0.8374(5) 0.0399(6) 0.7897(9)
C10_9 C 0.6785(5) 0.0453(5) 0.5529(10)
C11_9 C 0.6710(6) 0.0909(7) 0.5703(12)
C12_7 C 0.6314(7) 0.0972(8) 0.5182(14)
H5_7 H 0.6085 0.0713 0.4696
C13_7 C 0.6264(8) 0.1431(9) 0.5399(17)
H6_7 H 0.5998 0.1479 0.5065
C14_7 C 0.6606(9) 0.1802(9) 0.6099(18)
H7_7 H 0.6584 0.2113 0.6252
C15_9 C 0.7000(8) 0.1707(7) 0.6596(16)
H8_13 H 0.7238 0.1956 0.7087
H9_13 H 0.844(4) 0.113(3) 0.565(7)
O1_10 O 0.7300(5) 0.9238(5) 0.5467(8)
N4_9 N 0.8178(6) 0.9692(6) 0.6935(11)
N6_10 N 0.6716(6) 0.9668(5) 0.5021(10)
C7_9 C 0.7842(6) 0.9871(6) 0.6729(10)
C8_13 C 0.7435(6) 0.9664(5) 0.5954(10)
C9_13 C 0.7111(6) 0.9936(6) 0.5670(10)
O1_11 O 0.0762(5) 0.8063(7) 0.5467(8)
N4_10 N 0.0308(6) 0.8487(8) 0.6935(11)
N6_11 N 0.0332(5) 0.7049(8) 0.5021(10)
C7_10 C 0.0129(6) 0.7972(8) 0.6729(10)
C8_14 C 0.0336(5) 0.7772(8) 0.5954(10)
C9_14 C 0.0064(6) 0.7176(8) 0.5670(10)
N1_10 N 0.8803(6) 0.7252(8) 0.8734(10)
N2_10 N 0.9659(5) 0.7632(7) 0.7305(9)
N3_10 N 0.9998(6) 0.8536(8) 0.7715(11)
N5_14 N 0.9606(5) 0.6791(7) 0.6024(9)
N7_8 N 0.9996(6) 0.6468(8) 0.4926(11)
N8_10 N 0.8732(4) 0.5763(6) 0.6366(10)
C1_10 C 0.8394(9) 0.7058(13) 0.9358(16)
H1_10 H 0.8158 0.6682 0.9384
C3_10 C 0.8630(9) 0.7926(12) 0.9942(14)
C4_10 C 0.9101(9) 0.8178(12) 0.9272(15)
H4_10 H 0.9333 0.8556 0.9265
C5_10 C 0.9194(6) 0.7844(8) 0.8649(11)
C6_10 C 0.9601(6) 0.7976(8) 0.7897(9)
C10_10 C 0.9547(5) 0.6333(7) 0.5529(10)
C11_10 C 0.9091(7) 0.5802(9) 0.5703(12)
C12_8 C 0.9028(8) 0.5343(11) 0.5182(14)
H5_8 H 0.9287 0.5373 0.4696
C13_8 C 0.8569(9) 0.4834(12) 0.5399(17)
H6_8 H 0.8521 0.4520 0.5065
C14_8 C 0.8198(9) 0.4805(13) 0.6099(18)
H7_8 H 0.7887 0.4472 0.6252
C15_10 C 0.8293(7) 0.5294(11) 0.6596(16)
H8_14 H 0.8044 0.5283 0.7087
H9_14 H 0.887(3) 0.732(5) 0.565(7)
O1_12 O 0.1937(7) 0.2700(5) 0.5467(8)
N1_11 N 0.2748(8) 0.1552(5) 0.8734(10)
N2_11 N 0.2368(7) 0.2028(5) 0.7305(9)
N3_11 N 0.1464(8) 0.1463(6) 0.7715(11)
N4_11 N 0.1513(8) 0.1822(6) 0.6935(11)
N5_15 N 0.3209(7) 0.2816(5) 0.6024(9)
N6_12 N 0.2951(8) 0.3284(6) 0.5021(10)
N7_9 N 0.3532(8) 0.3529(6) 0.4926(11)
N8_11 N 0.4237(6) 0.2970(5) 0.6366(10)
C1_11 C 0.2942(13) 0.1337(9) 0.9358(16)
H1_11 H 0.3318 0.1477 0.9384
C3_11 C 0.2074(12) 0.0705(8) 0.9942(14)
C4_11 C 0.1822(12) 0.0924(8) 0.9272(15)
H4_11 H 0.1444 0.0778 0.9265
C5_11 C 0.2156(8) 0.1351(5) 0.8649(11)
C6_11 C 0.2024(8) 0.1626(5) 0.7897(9)
C7_11 C 0.2028(8) 0.2158(6) 0.6729(10)
C8_15 C 0.2228(8) 0.2565(6) 0.5954(10)
C9_15 C 0.2824(8) 0.2889(6) 0.5670(10)
C10_11 C 0.3667(7) 0.3215(5) 0.5529(10)
C11_11 C 0.4198(9) 0.3290(6) 0.5703(12)
C12_9 C 0.4657(11) 0.3686(7) 0.5182(14)
H5_9 H 0.4627 0.3915 0.4696
C13_9 C 0.5166(12) 0.3736(8) 0.5399(17)
H6_9 H 0.5480 0.4002 0.5065
C14_9 C 0.5195(13) 0.3394(9) 0.6099(18)
H7_9 H 0.5528 0.3416 0.6252
C15_11 C 0.4706(11) 0.3000(8) 0.6596(16)
H8_15 H 0.4717 0.2762 0.7087
H9_15 H 0.268(5) 0.156(4) 0.565(7)
N1_12 N 0.1782(5) 0.7863(6) 0.5400(10)
N2_12 N 0.1306(5) 0.7007(5) 0.3971(9)
N3_12 N 0.1871(6) 0.6668(6) 0.4381(11)
N4_12 N 0.1512(6) 0.6358(6) 0.3601(11)
N5_16 N 0.0518(5) 0.7060(5) 0.2690(9)
N8_12 N 0.0364(5) 0.7934(4) 0.3032(10)
C1_12 C 0.1997(9) 0.8272(9) 0.6024(16)
H1_12 H 0.1857 0.8508 0.6050
C2_6 C 0.2453(11) 0.8374(12) 0.669(2)
H2_6 H 0.2608 0.8667 0.7155
C3_12 C 0.2629(8) 0.8036(9) 0.6608(14)
H3_6 H 0.2927 0.8103 0.7022
C4_12 C 0.2410(8) 0.7565(9) 0.5938(15)
H4_12 H 0.2556 0.7333 0.5931
C5_12 C 0.1983(5) 0.7472(6) 0.5315(11)
C6_12 C 0.1708(5) 0.7065(6) 0.4563(9)
C7_12 C 0.1176(6) 0.6537(6) 0.3395(10)
C8_16 C 0.0769(6) 0.6330(5) 0.2620(10)
C9_16 C 0.0445(6) 0.6602(6) 0.2336(10)
C10_12 C 0.0119(5) 0.7119(5) 0.2195(10)
C11_12 C 0.0044(6) 0.7575(7) 0.2369(12)
C15_12 C 0.0334(8) 0.8373(7) 0.3262(16)
H8_16 H 0.0572 0.8622 0.3753
H9_16 H 0.178(4) 0.779(3) 0.231(7)
N1_13 N 0.2137(6) 0.3918(8) 0.5400(10)
N2_13 N 0.2993(5) 0.4298(7) 0.3971(9)
N3_13 N 0.3332(6) 0.5202(8) 0.4381(11)
N4_13 N 0.3642(6) 0.5153(8) 0.3601(11)
N5_17 N 0.2940(5) 0.3457(7) 0.2690(9)
N7_10 N 0.3330(6) 0.3134(8) 0.1592(11)
N8_13 N 0.2066(4) 0.2429(6) 0.3032(10)
C1_13 C 0.1728(9) 0.3724(13) 0.6024(16)
H1_13 H 0.1492 0.3348 0.6050
C2_7 C 0.1626(12) 0.4078(16) 0.669(2)
H2_7 H 0.1333 0.3940 0.7155
C3_13 C 0.1964(9) 0.4592(12) 0.6608(14)
H3_7 H 0.1897 0.4823 0.7022
C4_13 C 0.2435(9) 0.4844(12) 0.5938(15)
H4_13 H 0.2667 0.5222 0.5931
C5_13 C 0.2528(6) 0.4510(8) 0.5315(11)
C6_13 C 0.2935(6) 0.4642(8) 0.4563(9)
C7_13 C 0.3463(6) 0.4638(8) 0.3395(10)
C8_17 C 0.3670(5) 0.4438(8) 0.2620(10)
C9_17 C 0.3398(6) 0.3842(8) 0.2336(10)
C10_13 C 0.2881(5) 0.2999(7) 0.2195(10)
C11_13 C 0.2425(7) 0.2468(9) 0.2369(12)
C12_10 C 0.2362(8) 0.2009(11) 0.1848(14)
H5_10 H 0.2621 0.2039 0.1362
C13_10 C 0.1903(9) 0.1500(12) 0.2065(17)
H6_10 H 0.1855 0.1186 0.1731
C14_10 C 0.1532(9) 0.1471(13) 0.2765(18)
H7_10 H 0.1221 0.1138 0.2918
C15_13 C 0.1627(7) 0.1960(11) 0.3262(16)
H8_17 H 0.1378 0.1949 0.3753
H9_17 H 0.221(3) 0.398(5) 0.231(7)
N1_14 N 0.6082(8) 0.8218(5) 0.5400(10)
N2_14 N 0.5702(7) 0.8694(5) 0.3971(9)
N3_14 N 0.4798(8) 0.8129(6) 0.4381(11)
N4_14 N 0.4847(8) 0.8488(6) 0.3601(11)
N5_18 N 0.6543(7) 0.9482(5) 0.2690(9)
N8_14 N 0.7571(6) 0.9636(5) 0.3032(10)
C1_14 C 0.6276(13) 0.8003(9) 0.6024(16)
H1_14 H 0.6652 0.8143 0.6050
C2_8 C 0.5922(16) 0.7547(11) 0.669(2)
H2_8 H 0.6060 0.7392 0.7155
C3_14 C 0.5408(12) 0.7371(8) 0.6608(14)
H3_8 H 0.5177 0.7073 0.7022
C4_14 C 0.5156(12) 0.7590(8) 0.5938(15)
H4_14 H 0.4778 0.7444 0.5931
C5_14 C 0.5490(8) 0.8017(5) 0.5315(11)
C6_14 C 0.5358(8) 0.8292(5) 0.4563(9)
C7_14 C 0.5362(8) 0.8824(6) 0.3395(10)
C8_18 C 0.5562(8) 0.9231(6) 0.2620(10)
C9_18 C 0.6158(8) 0.9555(6) 0.2336(10)
C10_14 C 0.7001(7) 0.9881(5) 0.2195(10)
C11_14 C 0.7532(9) 0.9956(6) 0.2369(12)
C15_14 C 0.8040(11) 0.9666(8) 0.3262(16)
H8_18 H 0.8051 0.9428 0.3753
H9_18 H 0.602(5) 0.822(4) 0.231(7)
N7_11 N 0.3337(6) 0.0199(8) 0.1741(11)
N8_15 N 0.4601(4) 0.0904(6) 0.0301(10)
C10_15 C 0.3786(5) 0.0334(7) 0.1138(10)
C11_15 C 0.4242(7) 0.0865(9) 0.0964(12)
C12_11 C 0.4305(8) 0.1324(11) 0.1485(14)
H5_11 H 0.4046 0.1294 0.1971
C13_11 C 0.4764(9) 0.1833(12) 0.1268(17)
H6_11 H 0.4812 0.2147 0.1602
C14_11 C 0.5135(9) 0.1862(13) 0.0568(18)
H7_11 H 0.5446 0.2195 0.0415
C15_15 C 0.5040(7) 0.1373(11) 0.0071(16)
Dy3_8 Dy 0.55956(2) 0.00309(3) 0.06531(5)
N1_15 N 0.5470(6) 0.0585(8) 0.2067(10)
N2_15 N 0.6326(5) 0.0965(7) 0.0638(9)
N3_15 N 0.6665(6) 0.1869(8) 0.1048(11)
N4_15 N 0.6975(6) 0.1820(8) 0.0268(11)
C1_15 C 0.5061(9) 0.0391(13) 0.2691(16)
H1_15 H 0.4825 0.0015 0.2717
C2_9 C 0.4959(12) 0.0745(16) 0.336(2)
H2_9 H 0.4666 0.0607 0.3822
C3_15 C 0.5297(9) 0.1259(12) 0.3275(14)
H3_9 H 0.5230 0.1490 0.3689
C4_15 C 0.5768(9) 0.1511(12) 0.2605(15)
H4_15 H 0.6000 0.1889 0.2598
C5_15 C 0.5861(6) 0.1177(8) 0.1982(11)
C6_15 C 0.6268(6) 0.1309(8) 0.1230(9)
C7_15 C 0.6796(6) 0.1305(8) 0.0062(10)
N7_12 N 0.6866(8) 0.0195(6) 0.1592(11)
C12_12 C 0.7991(11) 0.0352(7) 0.1848(14)
H5_12 H 0.7961 0.0581 0.1362
C13_12 C 0.8500(12) 0.0402(8) 0.2065(17)
H6_12 H 0.8814 0.0668 0.1731
C14_12 C 0.8529(13) 0.0060(9) 0.2765(18)
H7_12 H 0.8862 0.0082 0.2918
Dy1_2 Dy 0.44044(2) 0.99691(3) 0.93469(5)
N1_16 N 0.4530(6) 0.9415(8) 0.7933(10)
N2_16 N 0.3674(5) 0.9035(7) 0.9362(9)
N3_16 N 0.3335(6) 0.8131(8) 0.8952(11)
N4_16 N 0.3025(6) 0.8180(8) 0.9732(11)
C1_16 C 0.4939(9) 0.9609(13) 0.7309(16)
H1_16 H 0.5175 0.9985 0.7283
C2_10 C 0.5041(12) 0.9255(16) 0.664(2)
H2_10 H 0.5334 0.9393 0.6178
C3_16 C 0.4703(9) 0.8741(12) 0.6725(14)
H3_10 H 0.4770 0.8510 0.6311
C4_16 C 0.4232(9) 0.8489(12) 0.7395(15)
H4_16 H 0.4000 0.8111 0.7402
C5_16 C 0.4139(6) 0.8823(8) 0.8018(11)
C6_16 C 0.3732(6) 0.8691(8) 0.8770(9)
C7_16 C 0.3204(6) 0.8695(8) 0.9938(10)
N7_13 N 0.3134(8) 0.9805(6) 0.8408(11)
C12_13 C 0.2009(11) 0.9648(7) 0.8152(14)
H5_13 H 0.2039 0.9419 0.8638
C13_13 C 0.1500(12) 0.9598(8) 0.7935(17)
H6_13 H 0.1186 0.9332 0.8269
C14_13 C 0.1471(13) 0.9940(9) 0.7235(18)
H7_13 H 0.1138 0.9918 0.7082
N7_14 N 0.6663(6) 0.9801(8) 0.8259(11)
N8_16 N 0.5399(4) 0.9096(6) 0.9699(10)
C10_16 C 0.6214(5) 0.9666(7) 0.8862(10)
C11_16 C 0.5758(7) 0.9135(9) 0.9036(12)
C12_14 C 0.5695(8) 0.8676(11) 0.8515(14)
H5_14 H 0.5954 0.8706 0.8029
C13_14 C 0.5236(9) 0.8167(12) 0.8732(17)
H6_14 H 0.5188 0.7853 0.8398
C14_14 C 0.4865(9) 0.8138(13) 0.9432(18)
H7_14 H 0.4554 0.7805 0.9585
C15_16 C 0.4960(7) 0.8627(11) 0.9929(16)
Dy1_3 Dy 0.00309(3) 0.44353(2) 0.93469(5)
N1_17 N 0.0585(8) 0.5115(5) 0.7933(10)
N2_17 N 0.0965(7) 0.4639(5) 0.9362(9)
N3_17 N 0.1869(8) 0.5204(6) 0.8952(11)
N4_17 N 0.1820(8) 0.4845(6) 0.9732(11)
C1_17 C 0.0391(13) 0.5330(9) 0.7309(16)
H1_17 H 0.0015 0.5190 0.7283
C2_11 C 0.0745(16) 0.5786(11) 0.664(2)
H2_11 H 0.0607 0.5941 0.6178
C3_17 C 0.1259(12) 0.5962(8) 0.6725(14)
H3_11 H 0.1490 0.6260 0.6311
C4_17 C 0.1511(12) 0.5743(8) 0.7395(15)
H4_17 H 0.1889 0.5889 0.7402
C5_17 C 0.1177(8) 0.5316(5) 0.8018(11)
C6_17 C 0.1309(8) 0.5041(5) 0.8770(9)
C7_17 C 0.1305(8) 0.4509(6) 0.9938(10)
N7_15 N 0.0195(6) 0.3330(6) 0.8408(11)
C12_15 C 0.0352(7) 0.2362(8) 0.8152(14)
H5_15 H 0.0581 0.2621 0.8638
C13_15 C 0.0402(8) 0.1903(9) 0.7935(17)
H6_15 H 0.0668 0.1855 0.8269
C14_15 C 0.0060(9) 0.1532(9) 0.7235(18)
H7_15 H 0.0082 0.1221 0.7082
N7_16 N 0.0199(8) 0.6862(6) 0.8259(11)
N8_17 N 0.0904(6) 0.6303(5) 0.9699(10)
C10_17 C 0.0334(7) 0.6548(5) 0.8862(10)
C11_17 C 0.0865(9) 0.6623(6) 0.9036(12)
C12_16 C 0.1324(11) 0.7019(7) 0.8515(14)
H5_16 H 0.1294 0.7248 0.8029
C13_16 C 0.1833(12) 0.7069(8) 0.8732(17)
H6_16 H 0.2147 0.7335 0.8398
C14_16 C 0.1862(13) 0.6727(9) 0.9432(18)
H7_16 H 0.2195 0.6749 0.9585
C15_17 C 0.1373(11) 0.6333(8) 0.9929(16)
N7_17 N 0.9801(8) 0.3138(6) 0.1741(11)
N8_18 N 0.9096(6) 0.3697(5) 0.0301(10)
C10_18 C 0.9666(7) 0.3452(5) 0.1138(10)
C11_18 C 0.9135(9) 0.3377(6) 0.0964(12)
C12_17 C 0.8676(11) 0.2981(7) 0.1485(14)
H5_17 H 0.8706 0.2752 0.1971
C13_17 C 0.8167(12) 0.2931(8) 0.1268(17)
H6_17 H 0.7853 0.2665 0.1602
C14_17 C 0.8138(13) 0.3273(9) 0.0568(18)
H7_17 H 0.7805 0.3251 0.0415
C15_18 C 0.8627(11) 0.3667(8) 0.0071(16)
Dy3_9 Dy 0.99691(3) 0.55647(2) 0.06531(5)
N1_18 N 0.9415(8) 0.4885(5) 0.2067(10)
N2_18 N 0.9035(7) 0.5361(5) 0.0638(9)
N3_18 N 0.8131(8) 0.4796(6) 0.1048(11)
N4_18 N 0.8180(8) 0.5155(6) 0.0268(11)
C1_18 C 0.9609(13) 0.4670(9) 0.2691(16)
H1_18 H 0.9985 0.4810 0.2717
C2_12 C 0.9255(16) 0.4214(11) 0.336(2)
H2_12 H 0.9393 0.4059 0.3822
C3_18 C 0.8741(12) 0.4038(8) 0.3275(14)
H3_12 H 0.8510 0.3740 0.3689
C4_18 C 0.8489(12) 0.4257(8) 0.2605(15)
H4_18 H 0.8111 0.4111 0.2598
C5_18 C 0.8823(8) 0.4684(5) 0.1982(11)
C6_18 C 0.8691(8) 0.4959(5) 0.1230(9)
C7_18 C 0.8695(8) 0.5491(6) 0.0062(10)
N7_18 N 0.9805(6) 0.6670(6) 0.1592(11)
C12_18 C 0.9648(7) 0.7638(8) 0.1848(14)
H5_18 H 0.9419 0.7379 0.1362
C13_18 C 0.9598(8) 0.8097(9) 0.2065(17)
H6_18 H 0.9332 0.8145 0.1731
C14_18 C 0.9940(9) 0.8468(9) 0.2765(18)
H7_18 H 0.9918 0.8779 0.2918
C2_13 C 0.0881(11) 0.8292(12) 0.997(2)
H2_13 H 0.0726 0.7999 0.9511
H3_13 H 0.0407 0.8563 0.9644
C2_14 C 0.1708(12) 0.2588(16) 0.997(2)
H2_14 H 0.2001 0.2726 0.9511
H3_14 H 0.1437 0.1843 0.9644
C2_15 C 0.7412(16) 0.9119(11) 0.997(2)
H2_15 H 0.7274 0.9274 0.9511
H3_15 H 0.8157 0.9593 0.9644
C2_16 C 0.9119(11) 0.1708(12) 0.003(2)
H2_16 H 0.9274 0.2001 0.0489
H3_16 H 0.9593 0.1437 0.0356
C2_17 C 0.8292(12) 0.7412(16) 0.003(2)
H2_17 H 0.7999 0.7274 0.0489
H3_17 H 0.8563 0.8157 0.0356
C2_18 C 0.2588(16) 0.0881(11) 0.003(2)
H2_18 H 0.2726 0.0726 0.0489
H3_18 H 0.1843 0.0407 0.0356
loop_
_geom_bond_atom_site_label_1
_geom_bond_atom_site_label_2
_geom_bond_site_symmetry_1
_geom_bond_site_symmetry_2
O1 C8 1_555 1_555
O2 H9 1_555 1_555
N6 N7 1_555 1_555
N7 C10 1_555 1_555
C9 N5 1_555 1_555
C10 N5 1_555 1_555
C11 N8 1_555 1_555
C12 C11 1_555 1_555
H5 C12 1_555 1_555
C13 C12 1_555 1_555
H6 C13 1_555 1_555
C14 C13 1_555 1_555
H7 C14 1_555 1_555
C15 N8 1_555 1_555
Dy2 O1 1_555 1_555
Dy3 O2 1_555 1_555
N6 C9 1_555 1_555
N6 Dy2 1_555 1_555
C8 C9 1_555 1_555
C10 C11 1_555 1_555
C14 C15 1_555 1_555
N1 Dy1 1_555 1_555
N2 Dy1 1_555 1_555
N3 N4 1_555 1_555
N4 C7 1_555 1_555
C1 N1 1_555 1_555
H1 C1 1_555 1_555
C2 C1 1_555 1_555
H2 C2 1_555 1_555
C3 C2 1_555 1_555
H3 C3 1_555 1_555
C4 C3 1_555 1_555
H4 C4 1_555 1_555
C5 N1 1_555 1_555
C6 N2 1_555 1_555
C7 N2 1_555 1_555
O3 Dy1 1_555 1_555
O4 Dy1 1_555 1_555
N9 Dy1 1_555 1_555
N3 C6 1_555 1_555
C4 C5 1_555 1_555
C5 C6 1_555 1_555
O1_2 C8_2 1_555 1_555
O2_2 H9_2 1_555 1_555
C9_2 N5_2 1_555 1_555
Dy2_2 O1_2 1_555 1_555
N6_2 C9_2 1_555 1_555
N6_2 Dy2_2 1_555 1_555
C8_2 C9_2 1_555 1_555
O1_3 C8_3 1_555 1_555
O2_3 H9_3 1_555 1_555
C9_3 N5_3 1_555 1_555
Dy2_3 O1_3 1_555 1_555
N6_3 C9_3 1_555 1_555
N6_3 Dy2_3 1_555 1_555
C8_3 C9_3 1_555 1_555
O1_4 C8_4 1_555 1_555
N4_2 C7_2 1_555 1_555
C8_4 C7_2 1_555 1_555
Dy2_4 O1_4 1_555 1_555
N6_4 C9_4 1_555 1_555
N6_4 Dy2_4 1_555 1_555
C8_4 C9_4 1_555 1_555
Dy2_2 O2_4 1_555 1_555
O2_4 H9_4 1_555 1_555
N1_2 Dy2_2 1_555 1_555
N2_2 Dy2_2 1_555 1_555
N5_4 Dy2_2 1_555 1_555
N7_2 C10_2 1_555 1_555
N8_2 Dy2_2 1_555 1_555
C1_2 N1_2 1_555 1_555
H1_2 C1_2 1_555 1_555
C4_2 C3_2 1_555 1_555
H4_2 C4_2 1_555 1_555
C5_2 N1_2 1_555 1_555
C6_2 N2_2 1_555 1_555
C10_2 N5_4 1_555 1_555
C11_2 N8_2 1_555 1_555
C12_2 C11_2 1_555 1_555
H5_2 C12_2 1_555 1_555
C13_2 C12_2 1_555 1_555
H6_2 C13_2 1_555 1_555
C14_2 C13_2 1_555 1_555
H7_2 C14_2 1_555 1_555
C15_2 N8_2 1_555 1_555
H8_4 C15_2 1_555 1_555
Dy3_2 O2_4 1_555 1_555
O4_4 Dy2_2 1_555 1_555
N3_2 C6_2 1_555 1_555
C4_2 C5_2 1_555 1_555
C5_2 C6_2 1_555 1_555
C10_2 C11_2 1_555 1_555
C14_2 C15_2 1_555 1_555
Dy3_2 O4_4 1_555 1_555
Dy2_3 O2_5 1_555 1_555
O2_5 H9_5 1_555 1_555
N1_3 Dy2_3 1_555 1_555
N2_3 Dy2_3 1_555 1_555
N5_5 Dy2_3 1_555 1_555
N7_3 C10_3 1_555 1_555
N8_3 Dy2_3 1_555 1_555
C1_3 N1_3 1_555 1_555
H1_3 C1_3 1_555 1_555
C4_3 C3_3 1_555 1_555
H4_3 C4_3 1_555 1_555
C5_3 N1_3 1_555 1_555
C6_3 N2_3 1_555 1_555
C10_3 N5_5 1_555 1_555
C11_3 N8_3 1_555 1_555
C12_3 C11_3 1_555 1_555
H5_3 C12_3 1_555 1_555
C13_3 C12_3 1_555 1_555
H6_3 C13_3 1_555 1_555
C14_3 C13_3 1_555 1_555
H7_3 C14_3 1_555 1_555
C15_3 N8_3 1_555 1_555
H8_5 C15_3 1_555 1_555
Dy3_3 O2_5 1_555 1_555
O4_5 Dy2_3 1_555 1_555
N3_3 C6_3 1_555 1_555
C4_3 C5_3 1_555 1_555
C5_3 C6_3 1_555 1_555
C10_3 C11_3 1_555 1_555
C14_3 C15_3 1_555 1_555
Dy3_3 O4_5 1_555 1_555
O1_5 C8_5 1_555 1_555
N4_3 C7_3 1_555 1_555
C8_5 C7_3 1_555 1_555
Dy2_5 O1_5 1_555 1_555
N6_5 C9_5 1_555 1_555
N6_5 Dy2_5 1_555 1_555
C8_5 C9_5 1_555 1_555
Dy2 O2_6 1_555 1_555
O1_6 C8_6 1_555 1_555
O2_6 H9_6 1_555 1_555
N1_4 Dy2 1_555 1_555
N2_4 Dy2 1_555 1_555
N3_4 N4_4 1_555 1_555
N4_4 C7_4 1_555 1_555
N5_6 Dy2 1_555 1_555
N6_6 N7_4 1_555 1_555
N7_4 C10_4 1_555 1_555
N8_4 Dy2 1_555 1_555
C1_4 N1_4 1_555 1_555
H1_4 C1_4 1_555 1_555
C4_4 C3_4 1_555 1_555
H4_4 C4_4 1_555 1_555
C5_4 N1_4 1_555 1_555
C6_4 N2_4 1_555 1_555
C7_4 N2_4 1_555 1_555
C8_6 C7_4 1_555 1_555
C9_6 N5_6 1_555 1_555
C10_4 N5_6 1_555 1_555
C11_4 N8_4 1_555 1_555
C12_4 C11_4 1_555 1_555
H5_4 C12_4 1_555 1_555
C13_4 C12_4 1_555 1_555
H6_4 C13_4 1_555 1_555
C14_4 C13_4 1_555 1_555
H7_4 C14_4 1_555 1_555
C15_4 N8_4 1_555 1_555
H8_6 C15_4 1_555 1_555
Dy2_6 O1_6 1_555 1_555
Dy3_4 O2_6 1_555 1_555
O4_6 Dy2 1_555 1_555
N3_4 C6_4 1_555 1_555
N6_6 C9_6 1_555 1_555
N6_6 Dy2_6 1_555 1_555
C4_4 C5_4 1_555 1_555
C5_4 C6_4 1_555 1_555
C8_6 C9_6 1_555 1_555
C10_4 C11_4 1_555 1_555
C14_4 C15_4 1_555 1_555
Dy3_4 O4_6 1_555 1_555
Dy2_5 O2_7 1_555 1_555
O3_3 C8_7 1_555 1_555
O2_7 H9_7 1_555 1_555
N1_5 Dy2_5 1_555 1_555
N2_5 Dy2_5 1_555 1_555
N3_5 N4_5 1_555 1_555
N4_5 C7_5 1_555 1_555
N5_7 Dy2_5 1_555 1_555
N8_5 Dy2_5 1_555 1_555
C1_5 N1_5 1_555 1_555
H1_5 C1_5 1_555 1_555
C2_2 C1_5 1_555 1_555
H2_2 C2_2 1_555 1_555
C3_5 C2_2 1_555 1_555
H3_2 C3_5 1_555 1_555
C4_5 C3_5 1_555 1_555
H4_5 C4_5 1_555 1_555
C5_5 N1_5 1_555 1_555
C6_5 N2_5 1_555 1_555
C7_5 N2_5 1_555 1_555
C8_7 C7_5 1_555 1_555
C9_7 N5_7 1_555 1_555
C10_5 N5_7 1_555 1_555
C11_5 N8_5 1_555 1_555
C15_5 N8_5 1_555 1_555
H8_7 C15_5 1_555 1_555
Dy3_5 O2_7 1_555 1_555
O4_7 Dy2_5 1_555 1_555
N3_5 C6_5 1_555 1_555
N9_3 C9_7 1_555 1_555
C4_5 C5_5 1_555 1_555
C5_5 C6_5 1_555 1_555
C8_7 C9_7 1_555 1_555
C10_5 C11_5 1_555 1_555
Dy3_5 O4_7 1_555 1_555
Dy2_6 O2_8 1_555 1_555
O3 C8_8 1_555 1_555
O2_8 H9_8 1_555 1_555
N1_6 Dy2_6 1_555 1_555
N2_6 Dy2_6 1_555 1_555
N3_6 N4_6 1_555 1_555
N4_6 C7_6 1_555 1_555
N5_8 Dy2_6 1_555 1_555
N9 N7_5 1_555 1_555
N7_5 C10_6 1_555 1_555
N8_6 Dy2_6 1_555 1_555
C1_6 N1_6 1_555 1_555
H1_6 C1_6 1_555 1_555
C2_3 C1_6 1_555 1_555
H2_3 C2_3 1_555 1_555
C3_6 C2_3 1_555 1_555
H3_3 C3_6 1_555 1_555
C4_6 C3_6 1_555 1_555
H4_6 C4_6 1_555 1_555
C5_6 N1_6 1_555 1_555
C6_6 N2_6 1_555 1_555
C7_6 N2_6 1_555 1_555
C8_8 C7_6 1_555 1_555
C9_8 N5_8 1_555 1_555
C10_6 N5_8 1_555 1_555
C11_6 N8_6 1_555 1_555
C12_5 C11_6 1_555 1_555
H5_5 C12_5 1_555 1_555
C13_5 C12_5 1_555 1_555
H6_5 C13_5 1_555 1_555
C14_5 C13_5 1_555 1_555
H7_5 C14_5 1_555 1_555
C15_6 N8_6 1_555 1_555
H8_8 C15_6 1_555 1_555
Dy3_6 O2_8 1_555 1_555
O4_8 Dy2_6 1_555 1_555
N3_6 C6_6 1_555 1_555
N9 C9_8 1_555 1_555
C4_6 C5_6 1_555 1_555
C5_6 C6_6 1_555 1_555
C8_8 C9_8 1_555 1_555
C10_6 C11_6 1_555 1_555
C14_5 C15_6 1_555 1_555
Dy3_6 O4_8 1_555 1_555
Dy2_4 O2_9 1_555 1_555
O3_2 C8_9 1_555 1_555
O2_9 H9_9 1_555 1_555
N1_7 Dy2_4 1_555 1_555
N2_7 Dy2_4 1_555 1_555
N3_7 N4_7 1_555 1_555
N4_7 C7_7 1_555 1_555
N5_9 Dy2_4 1_555 1_555
N8_7 Dy2_4 1_555 1_555
C1_7 N1_7 1_555 1_555
H1_7 C1_7 1_555 1_555
C2_4 C1_7 1_555 1_555
H2_4 C2_4 1_555 1_555
C3_7 C2_4 1_555 1_555
H3_4 C3_7 1_555 1_555
C4_7 C3_7 1_555 1_555
H4_7 C4_7 1_555 1_555
C5_7 N1_7 1_555 1_555
C6_7 N2_7 1_555 1_555
C7_7 N2_7 1_555 1_555
C8_9 C7_7 1_555 1_555
C9_9 N5_9 1_555 1_555
C10_7 N5_9 1_555 1_555
C11_7 N8_7 1_555 1_555
C15_7 N8_7 1_555 1_555
H8_9 C15_7 1_555 1_555
Dy3_7 O2_9 1_555 1_555
O4_9 Dy2_4 1_555 1_555
N3_7 C6_7 1_555 1_555
N9_2 C9_9 1_555 1_555
C4_7 C5_7 1_555 1_555
C5_7 C6_7 1_555 1_555
C8_9 C9_9 1_555 1_555
C10_7 C11_7 1_555 1_555
Dy3_7 O4_9 1_555 1_555
N1_8 Dy3 1_555 1_555
N2_8 Dy3 1_555 1_555
N3_8 N4_8 1_555 1_555
N4_8 C7_8 1_555 1_555
C1_8 N1_8 1_555 1_555
H1_8 C1_8 1_555 1_555
C2_5 C1_8 1_555 1_555
H2_5 C2_5 1_555 1_555
C3_8 C2_5 1_555 1_555
H3_5 C3_8 1_555 1_555
C4_8 C3_8 1_555 1_555
H4_8 C4_8 1_555 1_555
C5_8 N1_8 1_555 1_555
C6_8 N2_8 1_555 1_555
C7_8 N2_8 1_555 1_555
O3_4 Dy3 1_555 1_555
N9_4 Dy3 1_555 1_555
N3_8 C6_8 1_555 1_555
C4_8 C5_8 1_555 1_555
C5_8 C6_8 1_555 1_555
O1_7 C8_10 1_555 1_555
O4 H9_10 1_555 1_555
N6_7 N7_6 1_555 1_555
N7_6 C10_8 1_555 1_555
C9_10 N5_10 1_555 1_555
C10_8 N5_10 1_555 1_555
C11_8 N8_8 1_555 1_555
C12_6 C11_8 1_555 1_555
H5_6 C12_6 1_555 1_555
C13_6 C12_6 1_555 1_555
H6_6 C13_6 1_555 1_555
C14_6 C13_6 1_555 1_555
H7_6 C14_6 1_555 1_555
C15_8 N8_8 1_555 1_555
Dy3_7 O1_7 1_555 1_555
N6_7 C9_10 1_555 1_555
N6_7 Dy3_7 1_555 1_555
C8_10 C9_10 1_555 1_555
C10_8 C11_8 1_555 1_555
C14_6 C15_8 1_555 1_555
O1_8 C8_11 1_555 1_555
O4_2 H9_11 1_555 1_555
C9_11 N5_11 1_555 1_555
Dy3_5 O1_8 1_555 1_555
N6_8 C9_11 1_555 1_555
N6_8 Dy3_5 1_555 1_555
C8_11 C9_11 1_555 1_555
O1_9 C8_12 1_555 1_555
O4_3 H9_12 1_555 1_555
C9_12 N5_12 1_555 1_555
Dy3_6 O1_9 1_555 1_555
N6_9 C9_12 1_555 1_555
N6_9 Dy3_6 1_555 1_555
C8_12 C9_12 1_555 1_555
O4_7 H9_13 1_555 1_555
N1_9 Dy3_5 1_555 1_555
N2_9 Dy3_5 1_555 1_555
N5_13 Dy3_5 1_555 1_555
N7_7 C10_9 1_555 1_555
N8_9 Dy3_5 1_555 1_555
C1_9 N1_9 1_555 1_555
H1_9 C1_9 1_555 1_555
C4_9 C3_9 1_555 1_555
H4_9 C4_9 1_555 1_555
C5_9 N1_9 1_555 1_555
C6_9 N2_9 1_555 1_555
C10_9 N5_13 1_555 1_555
C11_9 N8_9 1_555 1_555
C12_7 C11_9 1_555 1_555
H5_7 C12_7 1_555 1_555
C13_7 C12_7 1_555 1_555
H6_7 C13_7 1_555 1_555
C14_7 C13_7 1_555 1_555
H7_7 C14_7 1_555 1_555
C15_9 N8_9 1_555 1_555
H8_13 C15_9 1_555 1_555
N3_9 C6_9 1_555 1_555
C4_9 C5_9 1_555 1_555
C5_9 C6_9 1_555 1_555
C10_9 C11_9 1_555 1_555
C14_7 C15_9 1_555 1_555
O1_10 C8_13 1_555 1_555
N4_9 C7_9 1_555 1_555
C8_13 C7_9 1_555 1_555
Dy3_4 O1_10 1_555 1_555
N6_10 C9_13 1_555 1_555
N6_10 Dy3_4 1_555 1_555
C8_13 C9_13 1_555 1_555
O1_11 C8_14 1_555 1_555
N4_10 C7_10 1_555 1_555
C8_14 C7_10 1_555 1_555
Dy3_2 O1_11 1_555 1_555
N6_11 C9_14 1_555 1_555
N6_11 Dy3_2 1_555 1_555
C8_14 C9_14 1_555 1_555
O4_8 H9_14 1_555 1_555
N1_10 Dy3_6 1_555 1_555
N2_10 Dy3_6 1_555 1_555
N5_14 Dy3_6 1_555 1_555
N7_8 C10_10 1_555 1_555
N8_10 Dy3_6 1_555 1_555
C1_10 N1_10 1_555 1_555
H1_10 C1_10 1_555 1_555
C4_10 C3_10 1_555 1_555
H4_10 C4_10 1_555 1_555
C5_10 N1_10 1_555 1_555
C6_10 N2_10 1_555 1_555
C10_10 N5_14 1_555 1_555
C11_10 N8_10 1_555 1_555
C12_8 C11_10 1_555 1_555
H5_8 C12_8 1_555 1_555
C13_8 C12_8 1_555 1_555
H6_8 C13_8 1_555 1_555
C14_8 C13_8 1_555 1_555
H7_8 C14_8 1_555 1_555
C15_10 N8_10 1_555 1_555
H8_14 C15_10 1_555 1_555
N3_10 C6_10 1_555 1_555
C4_10 C5_10 1_555 1_555
C5_10 C6_10 1_555 1_555
C10_10 C11_10 1_555 1_555
C14_8 C15_10 1_555 1_555
O1_12 C8_15 1_555 1_555
O4_9 H9_15 1_555 1_555
N1_11 Dy3_7 1_555 1_555
N2_11 Dy3_7 1_555 1_555
N3_11 N4_11 1_555 1_555
N4_11 C7_11 1_555 1_555
N5_15 Dy3_7 1_555 1_555
N6_12 N7_9 1_555 1_555
N7_9 C10_11 1_555 1_555
N8_11 Dy3_7 1_555 1_555
C1_11 N1_11 1_555 1_555
H1_11 C1_11 1_555 1_555
C4_11 C3_11 1_555 1_555
H4_11 C4_11 1_555 1_555
C5_11 N1_11 1_555 1_555
C6_11 N2_11 1_555 1_555
C7_11 N2_11 1_555 1_555
C8_15 C7_11 1_555 1_555
C9_15 N5_15 1_555 1_555
C10_11 N5_15 1_555 1_555
C11_11 N8_11 1_555 1_555
C12_9 C11_11 1_555 1_555
H5_9 C12_9 1_555 1_555
C13_9 C12_9 1_555 1_555
H6_9 C13_9 1_555 1_555
C14_9 C13_9 1_555 1_555
H7_9 C14_9 1_555 1_555
C15_11 N8_11 1_555 1_555
H8_15 C15_11 1_555 1_555
Dy3_3 O1_12 1_555 1_555
N3_11 C6_11 1_555 1_555
N6_12 C9_15 1_555 1_555
N6_12 Dy3_3 1_555 1_555
C4_11 C5_11 1_555 1_555
C5_11 C6_11 1_555 1_555
C8_15 C9_15 1_555 1_555
C10_11 C11_11 1_555 1_555
C14_9 C15_11 1_555 1_555
O3_6 C8_16 1_555 1_555
O4_4 H9_16 1_555 1_555
N1_12 Dy3_2 1_555 1_555
N2_12 Dy3_2 1_555 1_555
N3_12 N4_12 1_555 1_555
N4_12 C7_12 1_555 1_555
N5_16 Dy3_2 1_555 1_555
N8_12 Dy3_2 1_555 1_555
C1_12 N1_12 1_555 1_555
H1_12 C1_12 1_555 1_555
C2_6 C1_12 1_555 1_555
H2_6 C2_6 1_555 1_555
C3_12 C2_6 1_555 1_555
H3_6 C3_12 1_555 1_555
C4_12 C3_12 1_555 1_555
H4_12 C4_12 1_555 1_555
C5_12 N1_12 1_555 1_555
C6_12 N2_12 1_555 1_555
C7_12 N2_12 1_555 1_555
C8_16 C7_12 1_555 1_555
C9_16 N5_16 1_555 1_555
C10_12 N5_16 1_555 1_555
C11_12 N8_12 1_555 1_555
C15_12 N8_12 1_555 1_555
H8_16 C15_12 1_555 1_555
N3_12 C6_12 1_555 1_555
N9_6 C9_16 1_555 1_555
C4_12 C5_12 1_555 1_555
C5_12 C6_12 1_555 1_555
C8_16 C9_16 1_555 1_555
C10_12 C11_12 1_555 1_555
O3_4 C8_17 1_555 1_555
O4_5 H9_17 1_555 1_555
N1_13 Dy3_3 1_555 1_555
N2_13 Dy3_3 1_555 1_555
N3_13 N4_13 1_555 1_555
N4_13 C7_13 1_555 1_555
N5_17 Dy3_3 1_555 1_555
N9_4 N7_10 1_555 1_555
N7_10 C10_13 1_555 1_555
N8_13 Dy3_3 1_555 1_555
C1_13 N1_13 1_555 1_555
H1_13 C1_13 1_555 1_555
C2_7 C1_13 1_555 1_555
H2_7 C2_7 1_555 1_555
C3_13 C2_7 1_555 1_555
H3_7 C3_13 1_555 1_555
C4_13 C3_13 1_555 1_555
H4_13 C4_13 1_555 1_555
C5_13 N1_13 1_555 1_555
C6_13 N2_13 1_555 1_555
C7_13 N2_13 1_555 1_555
C8_17 C7_13 1_555 1_555
C9_17 N5_17 1_555 1_555
C10_13 N5_17 1_555 1_555
C11_13 N8_13 1_555 1_555
C12_10 C11_13 1_555 1_555
H5_10 C12_10 1_555 1_555
C13_10 C12_10 1_555 1_555
H6_10 C13_10 1_555 1_555
C14_10 C13_10 1_555 1_555
H7_10 C14_10 1_555 1_555
C15_13 N8_13 1_555 1_555
H8_17 C15_13 1_555 1_555
N3_13 C6_13 1_555 1_555
N9_4 C9_17 1_555 1_555
C4_13 C5_13 1_555 1_555
C5_13 C6_13 1_555 1_555
C8_17 C9_17 1_555 1_555
C10_13 C11_13 1_555 1_555
C14_10 C15_13 1_555 1_555
O3_5 C8_18 1_555 1_555
O4_6 H9_18 1_555 1_555
N1_14 Dy3_4 1_555 1_555
N2_14 Dy3_4 1_555 1_555
N3_14 N4_14 1_555 1_555
N4_14 C7_14 1_555 1_555
N5_18 Dy3_4 1_555 1_555
N8_14 Dy3_4 1_555 1_555
C1_14 N1_14 1_555 1_555
H1_14 C1_14 1_555 1_555
C2_8 C1_14 1_555 1_555
H2_8 C2_8 1_555 1_555
C3_14 C2_8 1_555 1_555
H3_8 C3_14 1_555 1_555
C4_14 C3_14 1_555 1_555
H4_14 C4_14 1_555 1_555
C5_14 N1_14 1_555 1_555
C6_14 N2_14 1_555 1_555
C7_14 N2_14 1_555 1_555
C8_18 C7_14 1_555 1_555
C9_18 N5_18 1_555 1_555
C10_14 N5_18 1_555 1_555
C11_14 N8_14 1_555 1_555
C15_14 N8_14 1_555 1_555
H8_18 C15_14 1_555 1_555
N3_14 C6_14 1_555 1_555
N9_5 C9_18 1_555 1_555
C4_14 C5_14 1_555 1_555
C5_14 C6_14 1_555 1_555
C8_18 C9_18 1_555 1_555
C10_14 C11_14 1_555 1_555
N7_11 C10_15 1_555 1_555
C11_15 N8_15 1_555 1_555
C12_11 C11_15 1_555 1_555
H5_11 C12_11 1_555 1_555
C13_11 C12_11 1_555 1_555
H6_11 C13_11 1_555 1_555
C14_11 C13_11 1_555 1_555
H7_11 C14_11 1_555 1_555
C15_15 N8_15 1_555 1_555
C10_15 C11_15 1_555 1_555
C14_11 C15_15 1_555 1_555
N1_15 Dy3_8 1_555 1_555
N2_15 Dy3_8 1_555 1_555
N3_15 N4_15 1_555 1_555
N4_15 C7_15 1_555 1_555
C1_15 N1_15 1_555 1_555
H1_15 C1_15 1_555 1_555
C2_9 C1_15 1_555 1_555
H2_9 C2_9 1_555 1_555
C3_15 C2_9 1_555 1_555
H3_9 C3_15 1_555 1_555
C4_15 C3_15 1_555 1_555
H4_15 C4_15 1_555 1_555
C5_15 N1_15 1_555 1_555
C6_15 N2_15 1_555 1_555
C7_15 N2_15 1_555 1_555
N3_15 C6_15 1_555 1_555
C4_15 C5_15 1_555 1_555
C5_15 C6_15 1_555 1_555
H5_12 C12_12 1_555 1_555
C13_12 C12_12 1_555 1_555
H6_12 C13_12 1_555 1_555
C14_12 C13_12 1_555 1_555
H7_12 C14_12 1_555 1_555
N1_16 Dy1_2 1_555 1_555
N2_16 Dy1_2 1_555 1_555
N3_16 N4_16 1_555 1_555
N4_16 C7_16 1_555 1_555
C1_16 N1_16 1_555 1_555
H1_16 C1_16 1_555 1_555
C2_10 C1_16 1_555 1_555
H2_10 C2_10 1_555 1_555
C3_16 C2_10 1_555 1_555
H3_10 C3_16 1_555 1_555
C4_16 C3_16 1_555 1_555
H4_16 C4_16 1_555 1_555
C5_16 N1_16 1_555 1_555
C6_16 N2_16 1_555 1_555
C7_16 N2_16 1_555 1_555
N3_16 C6_16 1_555 1_555
C4_16 C5_16 1_555 1_555
C5_16 C6_16 1_555 1_555
H5_13 C12_13 1_555 1_555
C13_13 C12_13 1_555 1_555
H6_13 C13_13 1_555 1_555
C14_13 C13_13 1_555 1_555
H7_13 C14_13 1_555 1_555
N7_14 C10_16 1_555 1_555
C11_16 N8_16 1_555 1_555
C12_14 C11_16 1_555 1_555
H5_14 C12_14 1_555 1_555
C13_14 C12_14 1_555 1_555
H6_14 C13_14 1_555 1_555
C14_14 C13_14 1_555 1_555
H7_14 C14_14 1_555 1_555
C15_16 N8_16 1_555 1_555
C10_16 C11_16 1_555 1_555
C14_14 C15_16 1_555 1_555
N1_17 Dy1_3 1_555 1_555
N2_17 Dy1_3 1_555 1_555
N3_17 N4_17 1_555 1_555
N4_17 C7_17 1_555 1_555
C1_17 N1_17 1_555 1_555
H1_17 C1_17 1_555 1_555
C2_11 C1_17 1_555 1_555
H2_11 C2_11 1_555 1_555
C3_17 C2_11 1_555 1_555
H3_11 C3_17 1_555 1_555
C4_17 C3_17 1_555 1_555
H4_17 C4_17 1_555 1_555
C5_17 N1_17 1_555 1_555
C6_17 N2_17 1_555 1_555
C7_17 N2_17 1_555 1_555
N3_17 C6_17 1_555 1_555
C4_17 C5_17 1_555 1_555
C5_17 C6_17 1_555 1_555
H5_15 C12_15 1_555 1_555
C13_15 C12_15 1_555 1_555
H6_15 C13_15 1_555 1_555
C14_15 C13_15 1_555 1_555
H7_15 C14_15 1_555 1_555
N7_16 C10_17 1_555 1_555
C11_17 N8_17 1_555 1_555
C12_16 C11_17 1_555 1_555
H5_16 C12_16 1_555 1_555
C13_16 C12_16 1_555 1_555
H6_16 C13_16 1_555 1_555
C14_16 C13_16 1_555 1_555
H7_16 C14_16 1_555 1_555
C15_17 N8_17 1_555 1_555
C10_17 C11_17 1_555 1_555
C14_16 C15_17 1_555 1_555
N7_17 C10_18 1_555 1_555
C11_18 N8_18 1_555 1_555
C12_17 C11_18 1_555 1_555
H5_17 C12_17 1_555 1_555
C13_17 C12_17 1_555 1_555
H6_17 C13_17 1_555 1_555
C14_17 C13_17 1_555 1_555
H7_17 C14_17 1_555 1_555
C15_18 N8_18 1_555 1_555
C10_18 C11_18 1_555 1_555
C14_17 C15_18 1_555 1_555
N1_18 Dy3_9 1_555 1_555
N2_18 Dy3_9 1_555 1_555
N3_18 N4_18 1_555 1_555
N4_18 C7_18 1_555 1_555
C1_18 N1_18 1_555 1_555
H1_18 C1_18 1_555 1_555
C2_12 C1_18 1_555 1_555
H2_12 C2_12 1_555 1_555
C3_18 C2_12 1_555 1_555
H3_12 C3_18 1_555 1_555
C4_18 C3_18 1_555 1_555
H4_18 C4_18 1_555 1_555
C5_18 N1_18 1_555 1_555
C6_18 N2_18 1_555 1_555
C7_18 N2_18 1_555 1_555
N3_18 C6_18 1_555 1_555
C4_18 C5_18 1_555 1_555
C5_18 C6_18 1_555 1_555
H5_18 C12_18 1_555 1_555
C13_18 C12_18 1_555 1_555
H6_18 C13_18 1_555 1_555
C14_18 C13_18 1_555 1_555
H7_18 C14_18 1_555 1_555
H2_13 C2_13 1_555 1_555
H2_14 C2_14 1_555 1_555
H2_15 C2_15 1_555 1_555
H2_16 C2_16 1_555 1_555
H2_17 C2_17 1_555 1_555
H2_18 C2_18 1_555 1_555

#END
