
###############################################################################
#
# This file contains modified crystal structure data generated from the
# MOF subset of the Cambridge Structural Database (CSD) v543 
# hosted by the Cambridge Crystallographic Data Centre (CCDC).
#
# This work is licensed under the Creative Commons
# Attribution-NonCommercial-ShareAlike 4.0 International License.
# To view a copy of this license, visit
# http://creativecommons.org/licenses/by-nc-sa/4.0/
# or send a letter to
# Creative Commons, PO Box 1866, Mountain View, CA 94042, USA.
#
# CIF created using the CSD Python API on 29 September 2022
# The structure has been converted into the P1 space group
# The structure has a 3D framework
# The original CSD entry RUDYEX is in the monoclinic crystal system
# The framework has been calculated to contain at least 10.0% void space
# The void calculation uses a probe of radius 1.32A, grid spacing 0.4
#
###############################################################################

data_RUDYEX
_chemical_formula_moiety         '(C168 H104 N24 O45 Zn6)n'
_symmetry_cell_setting           triclinic
_symmetry_space_group_name_H-M   'P 1'
_symmetry_Int_Tables_number      1
_space_group_name_Hall           'P 1'
loop_
_symmetry_equiv_pos_site_id
_symmetry_equiv_pos_as_xyz
1 x,y,z
_cell_length_a                   21.4739(4)
_cell_length_b                   10.90610(10)
_cell_length_c                   24.4137(4)
_cell_angle_alpha                90
_cell_angle_beta                 122.529(3)
_cell_angle_gamma                90
_cell_volume                     4820.62
loop_
_atom_site_label
_atom_site_type_symbol
_atom_site_fract_x
_atom_site_fract_y
_atom_site_fract_z
O1 O 0.28065(7) 0.73849(11) 0.05414(6)
O3 O 0.52675(8) 0.09699(13) 0.34737(6)
O6 O 0.28591(9) 0.10386(12) 0.05386(8)
C1 C 0.2500 0.6863(2) 0.0000
C2 C 0.50949(9) 0.01178(15) 0.53197(7)
C4 C 0.52488(9) 0.05575(15) 0.44206(8)
C5 C 0.2500 0.5486(2) 0.0000
C9 C 0.2500 0.1560(2) 0.0000
C10 C 0.2500 0.2939(2) 0.0000
C11 C 0.50323(9) 0.03568(16) 0.37385(8)
C12 C 0.56345(9) 0.10139(16) 0.56906(8)
C14 C 0.57802(10) 0.14174(16) 0.47942(8)
H1 H 0.6013 0.1862 0.4618
C15 C 0.59790(10) 0.16402(16) 0.54350(8)
H2 H 0.6352 0.2225 0.5693
C17 C 0.00111(10) 0.0143(2) 0.05662(9)
H4 H 0.0021 0.0242 0.0957
C18 C 0.29070(12) 0.48415(18) 0.05763(9)
H5 H 0.3192 0.5272 0.0975
C19 C 0.29010(12) 0.35763(18) 0.05749(10)
H6 H 0.3176 0.3142 0.0974
C21 C 0.31318(13) 0.0407(2) 0.21135(10)
H7 H 0.2918 0.0844 0.1699
H8 H 0.3349 0.1000 0.2471
O12 O 0.62654(8) 0.20775(14) 0.66912(6)
N4 N 0.63125(8) 0.09288(13) 0.83190(6)
N5 N 0.54580(8) 0.06151(14) 0.65914(7)
N6 N 0.57109(9) 0.16521(18) 0.80788(7)
C31 C 0.58237(10) 0.12987(17) 0.63572(8)
C32 C 0.62882(10) 0.04433(16) 0.78081(8)
C35 C 0.56614(10) 0.08727(16) 0.72427(8)
C38 C 0.53011(11) 0.1635(2) 0.74275(9)
H22 H 0.7256 0.0059 0.7882
C40 C 0.46019(17) 0.2341(4) 0.70416(11)
H23 H 0.4656 0.3138 0.7248
H24 H 0.4492 0.2467 0.6601
H25 H 0.4198 0.1883 0.7022
H26 H 0.5648(15) 0.209(3) 0.8324(14)
Zn3 Zn 0.29404(2) 0.92183(2) 0.07201(2)
Zn6 Zn 0.70596(2) 0.07817(2) 0.92799(2)
C1_2 C 0.2500 0.6863(2) 1.0000
C5_2 C 0.2500 0.5486(2) 1.0000
C9_2 C 0.2500 0.1560(2) 1.0000
C10_2 C 0.2500 0.2939(2) 1.0000
O7 O 0.21935(7) 0.73849(11) 0.94586(6)
O8 O 0.21409(9) 0.10386(12) 0.94614(8)
C23 C 0.20930(12) 0.48415(18) 0.94237(9)
H14 H 0.1808 0.5272 0.9025
C24 C 0.20990(12) 0.35763(18) 0.94251(10)
H15 H 0.1824 0.3142 0.9026
Zn4 Zn 0.20596(2) 0.92183(2) 0.92799(2)
O2 O 0.19298(7) 0.93417(13) 0.05960(6)
O5 O 0.37346(8) 0.79225(14) 0.33088(6)
N1 N 0.36875(8) 0.90712(13) 0.16810(6)
N2 N 0.45420(8) 0.93849(14) 0.34086(7)
N3 N 0.42891(9) 0.83479(18) 0.19212(7)
C3 C 0.13370(9) 0.93855(15) 0.00465(8)
C6 C 0.41763(10) 0.87013(17) 0.36428(8)
C7 C 0.37118(10) 0.95567(16) 0.21919(8)
C8 C 0.06446(9) 0.96939(16) 0.00267(8)
C13 C 0.43386(10) 0.91273(16) 0.27573(8)
C16 C 0.06510(10) 0.9836(2) 0.05925(9)
H3 H 0.1098 0.9722 0.1002
C20 C 0.46989(11) 0.8365(2) 0.25725(9)
H9 H 0.2744 0.9941 0.2118
C22 C 0.53981(17) 0.7659(4) 0.29584(11)
H10 H 0.5344 0.6862 0.2752
H11 H 0.5508 0.7533 0.3399
H12 H 0.5802 0.8117 0.2978
H13 H 0.4352(15) 0.791(3) 0.1676(14)
O11 O 0.47325(8) 0.90301(13) 0.65263(6)
C29 C 0.49051(9) 0.98822(15) 0.46803(7)
C30 C 0.47512(9) 0.94425(15) 0.55794(8)
C33 C 0.49677(9) 0.96432(16) 0.62615(8)
C34 C 0.43655(9) 0.89861(16) 0.43094(8)
C36 C 0.42198(10) 0.85826(16) 0.52058(8)
H18 H 0.3987 0.8138 0.5382
C37 C 0.40210(10) 0.83598(16) 0.45650(8)
H19 H 0.3648 0.7775 0.4307
C39 C 0.68682(13) 0.9593(2) 0.78865(10)
H20 H 0.7082 0.9156 0.8301
H21 H 0.6651 0.9000 0.7529
O16 O 0.37203(7) 0.91820(13) 0.04830(6)
O4 O 0.12797(7) 0.91820(13) 0.95170(6)
O15 O 0.30702(7) 0.93417(13) 0.94040(6)
N7 N 0.13125(8) 0.90712(13) 0.83190(6)
O10 O 0.87203(7) 0.08180(13) 0.04830(6)
Zn7 Zn 0.79404(2) 0.07817(2) 0.07201(2)
O9 O 0.80702(7) 0.06583(13) 0.94040(6)
C25 C 0.86630(9) 0.06145(15) 0.99535(8)
C26 C 0.93554(9) 0.03061(16) 0.99733(8)
C27 C 0.93490(10) 0.0164(2) 0.94075(9)
H16 H 0.8902 0.0278 0.8998
C28 C 0.99889(10) 0.9857(2) 0.94338(9)
H17 H 0.9979 0.9758 0.9043
O9_2 O 0.69298(7) 0.06583(13) 0.05960(6)
C25_2 C 0.63370(9) 0.06145(15) 0.00465(8)
C26_2 C 0.56446(9) 0.03061(16) 0.00267(8)
C27_2 C 0.56510(10) 0.0164(2) 0.05925(9)
H16_2 H 0.6098 0.0278 0.1002
C17_2 C 0.49889(10) 0.0143(2) 0.94338(9)
H4_2 H 0.4979 0.0242 0.9043
C21_2 C 0.18682(13) 0.0407(2) 0.78865(10)
H7_2 H 0.2082 0.0844 0.8301
H8_2 H 0.1651 0.1000 0.7529
O10_2 O 0.62797(7) 0.08180(13) 0.95170(6)
C40_2 C 0.03981(17) 0.2341(4) 0.29584(11)
H23_2 H 0.0344 0.3138 0.2752
H24_2 H 0.0508 0.2467 0.3399
H25_2 H 0.0802 0.1883 0.2978
C28_2 C 0.50111(10) 0.9857(2) 0.05662(9)
H17_2 H 0.5021 0.9758 0.0957
O5_2 O 0.12654(8) 0.79225(14) 0.66912(6)
N2_2 N 0.04580(8) 0.93849(14) 0.65914(7)
N3_2 N 0.07109(9) 0.83479(18) 0.80788(7)
C3_2 C 0.36630(9) 0.93855(15) 0.99535(8)
C6_2 C 0.08237(10) 0.87013(17) 0.63572(8)
C7_2 C 0.12882(10) 0.95567(16) 0.78081(8)
C8_2 C 0.43554(9) 0.96939(16) 0.99733(8)
C13_2 C 0.06614(10) 0.91273(16) 0.72427(8)
C16_2 C 0.43490(10) 0.9836(2) 0.94075(9)
H3_2 H 0.3902 0.9722 0.8998
C20_2 C 0.03011(11) 0.8365(2) 0.74275(9)
H9_2 H 0.2256 0.9941 0.7882
H13_2 H 0.0648(15) 0.791(3) 0.8324(14)
O11_2 O 0.02675(8) 0.90301(13) 0.34737(6)
C29_2 C 0.00949(9) 0.98822(15) 0.53197(7)
C30_2 C 0.02488(9) 0.94425(15) 0.44206(8)
C33_2 C 0.00323(9) 0.96432(16) 0.37385(8)
C34_2 C 0.06345(9) 0.89861(16) 0.56906(8)
C36_2 C 0.07802(10) 0.85826(16) 0.47942(8)
H18_2 H 0.1013 0.8138 0.4618
C37_2 C 0.09790(10) 0.83598(16) 0.54350(8)
H19_2 H 0.1352 0.7775 0.5693
O3_2 O 0.97325(8) 0.09699(13) 0.65263(6)
C2_2 C 0.99051(9) 0.01178(15) 0.46803(7)
C4_2 C 0.97512(9) 0.05575(15) 0.55794(8)
C11_2 C 0.99677(9) 0.03568(16) 0.62615(8)
C12_2 C 0.93655(9) 0.10139(16) 0.43094(8)
C14_2 C 0.92198(10) 0.14174(16) 0.52058(8)
H1_2 H 0.8987 0.1862 0.5382
C15_2 C 0.90210(10) 0.16402(16) 0.45650(8)
H2_2 H 0.8648 0.2225 0.4307
O12_2 O 0.87346(8) 0.20775(14) 0.33088(6)
N4_2 N 0.86875(8) 0.09288(13) 0.16810(6)
N5_2 N 0.95420(8) 0.06151(14) 0.34086(7)
N6_2 N 0.92891(9) 0.16521(18) 0.19212(7)
C31_2 C 0.91763(10) 0.12987(17) 0.36428(8)
C32_2 C 0.87118(10) 0.04433(16) 0.21919(8)
C35_2 C 0.93386(10) 0.08727(16) 0.27573(8)
C38_2 C 0.96989(11) 0.1635(2) 0.25725(9)
H22_2 H 0.7744 0.0059 0.2118
H26_2 H 0.9352(15) 0.209(3) 0.1676(14)
C22_2 C 0.96019(17) 0.7659(4) 0.70416(11)
H10_2 H 0.9656 0.6862 0.7248
H11_2 H 0.9492 0.7533 0.6601
H12_2 H 0.9198 0.8117 0.7022
C39_2 C 0.81318(13) 0.9593(2) 0.21135(10)
H20_2 H 0.7918 0.9156 0.1699
H21_2 H 0.8349 0.9000 0.2471
O14 O 0.78065(7) 0.26151(11) 0.05414(6)
O13 O 0.71935(7) 0.26151(11) 0.94586(6)
C1_3 C 0.7500 0.3137(2) 0.0000
C5_3 C 0.7500 0.4514(2) 0.0000
C9_3 C 0.7500 0.8440(2) 0.0000
C10_3 C 0.7500 0.7061(2) 0.0000
O8_2 O 0.78591(9) 0.89614(12) 0.05386(8)
C23_2 C 0.79070(12) 0.51585(18) 0.05763(9)
H14_2 H 0.8192 0.4728 0.0975
C24_2 C 0.79010(12) 0.64237(18) 0.05749(10)
H15_2 H 0.8176 0.6858 0.0974
O6_2 O 0.71409(9) 0.89614(12) 0.94614(8)
C1_4 C 0.7500 0.3137(2) 1.0000
C5_4 C 0.7500 0.4514(2) 1.0000
C9_4 C 0.7500 0.8440(2) 1.0000
C10_4 C 0.7500 0.7061(2) 1.0000
C18_2 C 0.70930(12) 0.51585(18) 0.94237(9)
H5_2 H 0.6808 0.4728 0.9025
C19_2 C 0.70990(12) 0.64237(18) 0.94251(10)
H6_2 H 0.6824 0.6858 0.9026
C2_3 C 0.00949(9) 0.51178(15) 0.03197(7)
C12_3 C 0.06345(9) 0.60139(16) 0.06906(8)
C15_3 C 0.09790(10) 0.66402(16) 0.04350(8)
H2_3 H 0.1352 0.7225 0.0693
O12_3 O 0.12654(8) 0.70775(14) 0.16912(6)
N4_3 N 0.13125(8) 0.59288(13) 0.33190(6)
N5_3 N 0.04580(8) 0.56151(14) 0.15914(7)
N6_3 N 0.07109(9) 0.66521(18) 0.30788(7)
C31_3 C 0.08237(10) 0.62987(17) 0.13572(8)
C32_3 C 0.12882(10) 0.54433(16) 0.28081(8)
C35_3 C 0.06614(10) 0.58727(16) 0.22427(8)
C38_3 C 0.03011(11) 0.6635(2) 0.24275(9)
C39_3 C 0.18682(13) 0.4593(2) 0.28865(10)
H20_3 H 0.2082 0.4156 0.3301
H21_3 H 0.1651 0.4000 0.2529
H22_3 H 0.2256 0.5059 0.2882
H26_3 H 0.0648(15) 0.709(3) 0.3324(14)
Zn6_2 Zn 0.20596(2) 0.57817(2) 0.42799(2)
O1_2 O 0.78065(7) 0.23849(11) 0.55414(6)
C1_5 C 0.7500 0.1863(2) 0.5000
C5_5 C 0.7500 0.0486(2) 0.5000
H5_3 H 0.8192 0.0272 0.5975
O7_2 O 0.71935(7) 0.23849(11) 0.44586(6)
H14_3 H 0.6808 0.0272 0.4025
Zn3_2 Zn 0.79404(2) 0.42183(2) 0.57201(2)
Zn4_2 Zn 0.70596(2) 0.42183(2) 0.42799(2)
O2_2 O 0.69298(7) 0.43417(13) 0.55960(6)
O4_2 O 0.62797(7) 0.41820(13) 0.45170(6)
O5_3 O 0.87346(8) 0.29225(14) 0.83088(6)
O6_3 O 0.78591(9) 0.60386(12) 0.55386(8)
N1_2 N 0.86875(8) 0.40712(13) 0.66810(6)
N2_3 N 0.95420(8) 0.43849(14) 0.84086(7)
N3_3 N 0.92891(9) 0.33479(18) 0.69212(7)
C3_3 C 0.63370(9) 0.43855(15) 0.50465(8)
C6_3 C 0.91763(10) 0.37013(17) 0.86428(8)
C7_3 C 0.87118(10) 0.45567(16) 0.71919(8)
C8_3 C 0.56446(9) 0.46939(16) 0.50267(8)
C9_5 C 0.7500 0.6560(2) 0.5000
C10_5 C 0.7500 0.7939(2) 0.5000
C13_3 C 0.93386(10) 0.41273(16) 0.77573(8)
C16_3 C 0.56510(10) 0.4836(2) 0.55925(9)
H3_3 H 0.6098 0.4722 0.6002
C17_3 C 0.50111(10) 0.5143(2) 0.55662(9)
H4_3 H 0.5021 0.5242 0.5957
C18_3 C 0.79070(12) 0.98415(18) 0.55763(9)
C19_3 C 0.79010(12) 0.85763(18) 0.55749(10)
H6_3 H 0.8176 0.8142 0.5974
C20_3 C 0.96989(11) 0.3365(2) 0.75725(9)
C21_3 C 0.81318(13) 0.5407(2) 0.71135(10)
H7_3 H 0.7918 0.5844 0.6699
H8_3 H 0.8349 0.6000 0.7471
H9_3 H 0.7744 0.4941 0.7118
H13_3 H 0.9352(15) 0.291(3) 0.6676(14)
O8_3 O 0.71409(9) 0.60386(12) 0.44614(8)
C23_3 C 0.70930(12) 0.98415(18) 0.44237(9)
C24_3 C 0.70990(12) 0.85763(18) 0.44251(10)
H15_3 H 0.6824 0.8142 0.4026
O9_3 O 0.30702(7) 0.56583(13) 0.44040(6)
O10_3 O 0.37203(7) 0.58180(13) 0.54830(6)
C25_3 C 0.36630(9) 0.56145(15) 0.49535(8)
C26_3 C 0.43554(9) 0.53061(16) 0.49733(8)
C27_3 C 0.43490(10) 0.5164(2) 0.44075(9)
H16_3 H 0.3902 0.5278 0.3998
C28_3 C 0.49889(10) 0.4857(2) 0.44338(9)
H17_3 H 0.4979 0.4758 0.4043
C29_3 C 0.99051(9) 0.48822(15) 0.96803(7)
C34_3 C 0.93655(9) 0.39861(16) 0.93094(8)
C37_3 C 0.90210(10) 0.33598(16) 0.95650(8)
H19_3 H 0.8648 0.2775 0.9307
Zn7_2 Zn 0.29404(2) 0.57817(2) 0.57201(2)
O15_2 O 0.80702(7) 0.43417(13) 0.44040(6)
O16_2 O 0.87203(7) 0.41820(13) 0.54830(6)
N7_2 N 0.63125(8) 0.40712(13) 0.33190(6)
O9_4 O 0.19298(7) 0.56583(13) 0.55960(6)
O10_4 O 0.12797(7) 0.58180(13) 0.45170(6)
C25_4 C 0.13370(9) 0.56145(15) 0.50465(8)
C26_4 C 0.06446(9) 0.53061(16) 0.50267(8)
C27_4 C 0.06510(10) 0.5164(2) 0.55925(9)
H16_4 H 0.1098 0.5278 0.6002
C28_4 C 0.00111(10) 0.4857(2) 0.55662(9)
H17_4 H 0.0021 0.4758 0.5957
O3_3 O 0.47325(8) 0.59699(13) 0.15263(6)
O5_4 O 0.62654(8) 0.29225(14) 0.16912(6)
N2_4 N 0.54580(8) 0.43849(14) 0.15914(7)
N3_4 N 0.57109(9) 0.33479(18) 0.30788(7)
C3_4 C 0.86630(9) 0.43855(15) 0.49535(8)
C4_3 C 0.47512(9) 0.55575(15) 0.05794(8)
C6_4 C 0.58237(10) 0.37013(17) 0.13572(8)
C7_4 C 0.62882(10) 0.45567(16) 0.28081(8)
C8_4 C 0.93554(9) 0.46939(16) 0.49733(8)
C11_3 C 0.49677(9) 0.53568(16) 0.12615(8)
C13_4 C 0.56614(10) 0.41273(16) 0.22427(8)
C14_3 C 0.42198(10) 0.64174(16) 0.02058(8)
H1_3 H 0.3987 0.6862 0.0382
C16_4 C 0.93490(10) 0.4836(2) 0.44075(9)
H3_4 H 0.8902 0.4722 0.3998
C17_4 C 0.99889(10) 0.5143(2) 0.44338(9)
H4_4 H 0.9979 0.5242 0.4043
C20_4 C 0.53011(11) 0.3365(2) 0.24275(9)
C21_4 C 0.68682(13) 0.5407(2) 0.28865(10)
H7_4 H 0.7082 0.5844 0.3301
H8_4 H 0.6651 0.6000 0.2529
H9_4 H 0.7256 0.4941 0.2882
C22_3 C 0.46019(17) 0.2659(4) 0.20416(11)
H10_3 H 0.4656 0.1862 0.2248
H11_3 H 0.4492 0.2533 0.1601
H12_3 H 0.4198 0.3117 0.2022
H13_4 H 0.5648(15) 0.291(3) 0.3324(14)
C29_4 C 0.50949(9) 0.48822(15) 0.03197(7)
C34_4 C 0.56345(9) 0.39861(16) 0.06906(8)
C37_4 C 0.59790(10) 0.33598(16) 0.04350(8)
H19_4 H 0.6352 0.2775 0.0693
C2_4 C 0.49051(9) 0.51178(15) 0.96803(7)
C12_4 C 0.43655(9) 0.60139(16) 0.93094(8)
C15_4 C 0.40210(10) 0.66402(16) 0.95650(8)
H2_4 H 0.3648 0.7225 0.9307
O11_3 O 0.52675(8) 0.40301(13) 0.84737(6)
O12_4 O 0.37346(8) 0.70775(14) 0.83088(6)
N4_4 N 0.36875(8) 0.59288(13) 0.66810(6)
N5_4 N 0.45420(8) 0.56151(14) 0.84086(7)
N6_4 N 0.42891(9) 0.66521(18) 0.69212(7)
C30_3 C 0.52488(9) 0.44425(15) 0.94206(8)
C31_4 C 0.41763(10) 0.62987(17) 0.86428(8)
C32_4 C 0.37118(10) 0.54433(16) 0.71919(8)
C33_3 C 0.50323(9) 0.46432(16) 0.87385(8)
C35_4 C 0.43386(10) 0.58727(16) 0.77573(8)
C36_3 C 0.57802(10) 0.35826(16) 0.97942(8)
H18_3 H 0.6013 0.3138 0.9618
C38_4 C 0.46989(11) 0.6635(2) 0.75725(9)
C39_4 C 0.31318(13) 0.4593(2) 0.71135(10)
H20_4 H 0.2918 0.4156 0.6699
H21_4 H 0.3349 0.4000 0.7471
H22_4 H 0.2744 0.5059 0.7118
C40_3 C 0.53981(17) 0.7341(4) 0.79584(11)
H23_3 H 0.5344 0.8138 0.7752
H24_3 H 0.5508 0.7467 0.8399
H25_3 H 0.5802 0.6883 0.7978
H26_4 H 0.4352(15) 0.709(3) 0.6676(14)
O6_4 O 0.21409(9) 0.39614(12) 0.44614(8)
C9_6 C 0.2500 0.3440(2) 0.5000
C10_6 C 0.2500 0.2061(2) 0.5000
C18_4 C 0.20930(12) 0.01585(18) 0.44237(9)
C19_4 C 0.20990(12) 0.14237(18) 0.44251(10)
H6_4 H 0.1824 0.1858 0.4026
O8_4 O 0.28591(9) 0.39614(12) 0.55386(8)
C23_4 C 0.29070(12) 0.01585(18) 0.55763(9)
C24_4 C 0.29010(12) 0.14237(18) 0.55749(10)
H15_4 H 0.3176 0.1858 0.5974
O13_2 O 0.21935(7) 0.76151(11) 0.44586(6)
O14_2 O 0.28065(7) 0.76151(11) 0.55414(6)
C1_6 C 0.2500 0.8137(2) 0.5000
C5_6 C 0.2500 0.9514(2) 0.5000
H5_4 H 0.1808 0.9728 0.4025
H14_4 H 0.3192 0.9728 0.5975
O3_4 O 0.02675(8) 0.59699(13) 0.84737(6)
C4_4 C 0.02488(9) 0.55575(15) 0.94206(8)
C11_4 C 0.00323(9) 0.53568(16) 0.87385(8)
C14_4 C 0.07802(10) 0.64174(16) 0.97942(8)
H1_4 H 0.1013 0.6862 0.9618
C22_4 C 0.03981(17) 0.2659(4) 0.79584(11)
H10_4 H 0.0344 0.1862 0.7752
H11_4 H 0.0508 0.2533 0.8399
H12_4 H 0.0802 0.3117 0.7978
O11_4 O 0.97325(8) 0.40301(13) 0.15263(6)
C30_4 C 0.97512(9) 0.44425(15) 0.05794(8)
C33_4 C 0.99677(9) 0.46432(16) 0.12615(8)
C36_4 C 0.92198(10) 0.35826(16) 0.02058(8)
H18_4 H 0.8987 0.3138 0.0382
C40_4 C 0.96019(17) 0.7341(4) 0.20416(11)
H23_4 H 0.9656 0.8138 0.2248
H24_4 H 0.9492 0.7467 0.1601
H25_4 H 0.9198 0.6883 0.2022
loop_
_geom_bond_atom_site_label_1
_geom_bond_atom_site_label_2
_geom_bond_site_symmetry_1
_geom_bond_site_symmetry_2
O1 C1 1_555 1_555
O3 C11 1_555 1_555
C1 C5 1_555 1_555
C2 C12 1_555 1_555
C4 C11 1_555 1_555
C5 C18 1_555 1_555
C9 O6 1_555 1_555
C10 C9 1_555 1_555
C12 C15 1_555 1_555
C14 C4 1_555 1_555
H1 C14 1_555 1_555
C15 C14 1_555 1_555
H2 C15 1_555 1_555
H4 C17 1_555 1_555
C18 H5 1_555 1_555
C19 C10 1_555 1_555
H6 C19 1_555 1_555
H7 C21 1_555 1_555
H8 C21 1_555 1_555
O12 C31 1_555 1_555
N4 N6 1_555 1_555
N5 C31 1_555 1_555
N6 C38 1_555 1_555
C31 C12 1_555 1_555
C32 N4 1_555 1_555
C35 N5 1_555 1_555
C38 C35 1_555 1_555
C40 C38 1_555 1_555
H23 C40 1_555 1_555
H24 C40 1_555 1_555
H25 C40 1_555 1_555
H26 N6 1_555 1_555
Zn3 O1 1_555 1_555
Zn6 N4 1_555 1_555
C18 C19 1_555 1_555
C32 C35 1_555 1_555
C1_2 C5_2 1_555 1_555
C10_2 C9_2 1_555 1_555
O7 C1_2 1_555 1_555
O8 C9_2 1_555 1_555
C23 C5_2 1_555 1_555
H14 C23 1_555 1_555
C24 C10_2 1_555 1_555
H15 C24 1_555 1_555
Zn4 O7 1_555 1_555
C23 C24 1_555 1_555
Zn3 O2 1_555 1_555
O2 C3 1_555 1_555
O5 C6 1_555 1_555
N1 Zn3 1_555 1_555
N2 C6 1_555 1_555
N3 N1 1_555 1_555
C3 C8 1_555 1_555
C6 C34 1_555 1_555
C7 N1 1_555 1_555
C8 C16 1_555 1_555
C13 N2 1_555 1_555
C16 H3 1_555 1_555
C20 N3 1_555 1_555
C22 C20 1_555 1_555
H10 C22 1_555 1_555
H11 C22 1_555 1_555
H12 C22 1_555 1_555
H13 N3 1_555 1_555
O11 C33 1_555 1_555
C34 C29 1_555 1_555
C36 C30 1_555 1_555
H18 C36 1_555 1_555
C37 C34 1_555 1_555
H19 C37 1_555 1_555
H20 C39 1_555 1_555
H21 C39 1_555 1_555
O16 Zn3 1_555 1_555
C7 C13 1_555 1_555
C13 C20 1_555 1_555
C30 C33 1_555 1_555
C36 C37 1_555 1_555
Zn4 O4 1_555 1_555
O15 Zn4 1_555 1_555
N7 Zn4 1_555 1_555
Zn7 O10 1_555 1_555
O9 C25 1_555 1_555
C25 C26 1_555 1_555
C27 C26 1_555 1_555
H16 C27 1_555 1_555
Zn6 O9 1_555 1_555
H17 C28 1_555 1_555
O9_2 C25_2 1_555 1_555
C25_2 C26_2 1_555 1_555
C27_2 C26_2 1_555 1_555
H16_2 C27_2 1_555 1_555
Zn7 O9_2 1_555 1_555
H4_2 C17_2 1_555 1_555
H7_2 C21_2 1_555 1_555
H8_2 C21_2 1_555 1_555
H23_2 C40_2 1_555 1_555
H24_2 C40_2 1_555 1_555
H25_2 C40_2 1_555 1_555
Zn6 O10_2 1_555 1_555
H17_2 C28_2 1_555 1_555
O15 C3_2 1_555 1_555
O5_2 C6_2 1_555 1_555
N2_2 C6_2 1_555 1_555
N3_2 N7 1_555 1_555
C3_2 C8_2 1_555 1_555
C6_2 C34_2 1_555 1_555
C7_2 N7 1_555 1_555
C8_2 C16_2 1_555 1_555
C13_2 N2_2 1_555 1_555
C16_2 H3_2 1_555 1_555
C20_2 N3_2 1_555 1_555
H13_2 N3_2 1_555 1_555
O11_2 C33_2 1_555 1_555
C34_2 C29_2 1_555 1_555
C36_2 C30_2 1_555 1_555
H18_2 C36_2 1_555 1_555
C37_2 C34_2 1_555 1_555
H19_2 C37_2 1_555 1_555
C7_2 C13_2 1_555 1_555
C13_2 C20_2 1_555 1_555
C30_2 C33_2 1_555 1_555
C36_2 C37_2 1_555 1_555
O3_2 C11_2 1_555 1_555
C2_2 C12_2 1_555 1_555
C4_2 C11_2 1_555 1_555
C12_2 C15_2 1_555 1_555
C14_2 C4_2 1_555 1_555
H1_2 C14_2 1_555 1_555
C15_2 C14_2 1_555 1_555
H2_2 C15_2 1_555 1_555
O12_2 C31_2 1_555 1_555
N4_2 N6_2 1_555 1_555
N5_2 C31_2 1_555 1_555
N6_2 C38_2 1_555 1_555
C31_2 C12_2 1_555 1_555
C32_2 N4_2 1_555 1_555
C35_2 N5_2 1_555 1_555
C38_2 C35_2 1_555 1_555
H26_2 N6_2 1_555 1_555
Zn7 N4_2 1_555 1_555
C32_2 C35_2 1_555 1_555
H10_2 C22_2 1_555 1_555
H11_2 C22_2 1_555 1_555
H12_2 C22_2 1_555 1_555
H20_2 C39_2 1_555 1_555
H21_2 C39_2 1_555 1_555
O14 Zn7 1_555 1_555
O13 Zn6 1_555 1_555
C1_3 C5_3 1_555 1_555
C10_3 C9_3 1_555 1_555
O14 C1_3 1_555 1_555
O8_2 C9_3 1_555 1_555
C23_2 C5_3 1_555 1_555
H14_2 C23_2 1_555 1_555
C24_2 C10_3 1_555 1_555
H15_2 C24_2 1_555 1_555
C23_2 C24_2 1_555 1_555
O13 C1_4 1_555 1_555
C1_4 C5_4 1_555 1_555
C5_4 C18_2 1_555 1_555
C9_4 O6_2 1_555 1_555
C10_4 C9_4 1_555 1_555
C18_2 H5_2 1_555 1_555
C19_2 C10_4 1_555 1_555
H6_2 C19_2 1_555 1_555
C18_2 C19_2 1_555 1_555
C2_3 C12_3 1_555 1_555
C12_3 C15_3 1_555 1_555
H2_3 C15_3 1_555 1_555
O12_3 C31_3 1_555 1_555
N4_3 N6_3 1_555 1_555
N5_3 C31_3 1_555 1_555
N6_3 C38_3 1_555 1_555
C31_3 C12_3 1_555 1_555
C32_3 N4_3 1_555 1_555
C35_3 N5_3 1_555 1_555
C38_3 C35_3 1_555 1_555
C39_3 C32_3 1_555 1_555
H20_3 C39_3 1_555 1_555
H21_3 C39_3 1_555 1_555
H22_3 C39_3 1_555 1_555
H26_3 N6_3 1_555 1_555
Zn6_2 N4_3 1_555 1_555
C32_3 C35_3 1_555 1_555
O1_2 C1_5 1_555 1_555
C1_5 C5_5 1_555 1_555
O7_2 C1_5 1_555 1_555
Zn3_2 O1_2 1_555 1_555
Zn4_2 O7_2 1_555 1_555
Zn3_2 O2_2 1_555 1_555
O2_2 C3_3 1_555 1_555
O4_2 C3_3 1_555 1_555
O5_3 C6_3 1_555 1_555
O6_3 Zn3_2 1_555 1_555
N1_2 Zn3_2 1_555 1_555
N2_3 C6_3 1_555 1_555
N3_3 N1_2 1_555 1_555
C3_3 C8_3 1_555 1_555
C6_3 C34_3 1_555 1_555
C7_3 N1_2 1_555 1_555
C8_3 C16_3 1_555 1_555
C9_5 O6_3 1_555 1_555
C10_5 C9_5 1_555 1_555
C13_3 N2_3 1_555 1_555
C16_3 H3_3 1_555 1_555
C17_3 C16_3 1_555 1_555
H4_3 C17_3 1_555 1_555
C19_3 C10_5 1_555 1_555
H6_3 C19_3 1_555 1_555
C20_3 N3_3 1_555 1_555
C21_3 C7_3 1_555 1_555
H7_3 C21_3 1_555 1_555
H8_3 C21_3 1_555 1_555
H9_3 C21_3 1_555 1_555
H13_3 N3_3 1_555 1_555
O8_3 C9_5 1_555 1_555
C24_3 C10_5 1_555 1_555
H15_3 C24_3 1_555 1_555
O9_3 C25_3 1_555 1_555
O10_3 C25_3 1_555 1_555
C25_3 C26_3 1_555 1_555
C26_3 C17_3 1_555 1_555
C27_3 C26_3 1_555 1_555
H16_3 C27_3 1_555 1_555
C28_3 C8_3 1_555 1_555
H17_3 C28_3 1_555 1_555
C34_3 C29_3 1_555 1_555
C37_3 C34_3 1_555 1_555
H19_3 C37_3 1_555 1_555
Zn4_2 O4_2 1_555 1_555
Zn6_2 O9_3 1_555 1_555
Zn7_2 O10_3 1_555 1_555
O15_2 Zn4_2 1_555 1_555
O16_2 Zn3_2 1_555 1_555
N7_2 Zn4_2 1_555 1_555
C7_3 C13_3 1_555 1_555
C13_3 C20_3 1_555 1_555
C18_3 C19_3 1_555 1_555
O8_3 Zn4_2 1_555 1_555
C23_3 C24_3 1_555 1_555
C27_3 C28_3 1_555 1_555
O9_4 C25_4 1_555 1_555
O10_4 C25_4 1_555 1_555
C25_4 C26_4 1_555 1_555
C27_4 C26_4 1_555 1_555
H16_4 C27_4 1_555 1_555
H17_4 C28_4 1_555 1_555
Zn7_2 O9_4 1_555 1_555
Zn6_2 O10_4 1_555 1_555
C27_4 C28_4 1_555 1_555
O15_2 C3_4 1_555 1_555
O3_3 C11_3 1_555 1_555
O16_2 C3_4 1_555 1_555
O5_4 C6_4 1_555 1_555
N2_4 C6_4 1_555 1_555
N3_4 N7_2 1_555 1_555
C3_4 C8_4 1_555 1_555
C4_3 C11_3 1_555 1_555
C6_4 C34_4 1_555 1_555
C7_4 N7_2 1_555 1_555
C8_4 C16_4 1_555 1_555
C11_3 N2_4 1_555 1_555
C13_4 N2_4 1_555 1_555
C14_3 C4_3 1_555 1_555
H1_3 C14_3 1_555 1_555
C16_4 H3_4 1_555 1_555
C17_4 C16_4 1_555 1_555
H4_4 C17_4 1_555 1_555
C20_4 N3_4 1_555 1_555
C21_4 C7_4 1_555 1_555
H7_4 C21_4 1_555 1_555
H8_4 C21_4 1_555 1_555
H9_4 C21_4 1_555 1_555
C22_3 C20_4 1_555 1_555
H10_3 C22_3 1_555 1_555
H11_3 C22_3 1_555 1_555
H12_3 C22_3 1_555 1_555
H13_4 N3_4 1_555 1_555
C34_4 C29_4 1_555 1_555
C37_4 C34_4 1_555 1_555
H19_4 C37_4 1_555 1_555
C4_3 C29_4 1_555 1_555
C7_4 C13_4 1_555 1_555
C13_4 C20_4 1_555 1_555
C2_4 C12_4 1_555 1_555
C12_4 C15_4 1_555 1_555
H2_4 C15_4 1_555 1_555
O11_3 C33_3 1_555 1_555
O12_4 C31_4 1_555 1_555
N4_4 N6_4 1_555 1_555
N5_4 C31_4 1_555 1_555
N6_4 C38_4 1_555 1_555
C30_3 C2_4 1_555 1_555
C31_4 C12_4 1_555 1_555
C32_4 N4_4 1_555 1_555
C33_3 N5_4 1_555 1_555
C35_4 N5_4 1_555 1_555
C36_3 C30_3 1_555 1_555
H18_3 C36_3 1_555 1_555
C38_4 C35_4 1_555 1_555
C39_4 C32_4 1_555 1_555
H20_4 C39_4 1_555 1_555
H21_4 C39_4 1_555 1_555
H22_4 C39_4 1_555 1_555
C40_3 C38_4 1_555 1_555
H23_3 C40_3 1_555 1_555
H24_3 C40_3 1_555 1_555
H25_3 C40_3 1_555 1_555
H26_4 N6_4 1_555 1_555
Zn7_2 N4_4 1_555 1_555
C30_3 C33_3 1_555 1_555
C32_4 C35_4 1_555 1_555
O6_4 Zn6_2 1_555 1_555
C9_6 O6_4 1_555 1_555
C10_6 C9_6 1_555 1_555
C19_4 C10_6 1_555 1_555
H6_4 C19_4 1_555 1_555
O8_4 C9_6 1_555 1_555
C24_4 C10_6 1_555 1_555
H15_4 C24_4 1_555 1_555
O13_2 Zn6_2 1_555 1_555
O14_2 Zn7_2 1_555 1_555
C18_4 C19_4 1_555 1_555
O8_4 Zn7_2 1_555 1_555
C23_4 C24_4 1_555 1_555
O13_2 C1_6 1_555 1_555
C1_6 C5_6 1_555 1_555
O14_2 C1_6 1_555 1_555
O3_4 C11_4 1_555 1_555
C4_4 C11_4 1_555 1_555
C14_4 C4_4 1_555 1_555
H1_4 C14_4 1_555 1_555
H10_4 C22_4 1_555 1_555
H11_4 C22_4 1_555 1_555
H12_4 C22_4 1_555 1_555
O11_4 C33_4 1_555 1_555
C36_4 C30_4 1_555 1_555
H18_4 C36_4 1_555 1_555
H23_4 C40_4 1_555 1_555
H24_4 C40_4 1_555 1_555
H25_4 C40_4 1_555 1_555
C30_4 C33_4 1_555 1_555

#END
