
###############################################################################
#
# This file contains modified crystal structure data generated from the
# MOF subset of the Cambridge Structural Database (CSD) v543 
# hosted by the Cambridge Crystallographic Data Centre (CCDC).
#
# This work is licensed under the Creative Commons
# Attribution-NonCommercial-ShareAlike 4.0 International License.
# To view a copy of this license, visit
# http://creativecommons.org/licenses/by-nc-sa/4.0/
# or send a letter to
# Creative Commons, PO Box 1866, Mountain View, CA 94042, USA.
#
# CIF created using the CSD Python API on 29 September 2022
# The structure has been converted into the P1 space group
# The structure has a 3D framework
# The original CSD entry RUFMUA01 is in the triclinic crystal system
# The framework has been calculated to contain at least 10.0% void space
# The void calculation uses a probe of radius 1.32A, grid spacing 0.4
#
###############################################################################

data_RUFMUA01
_chemical_formula_moiety         '(C18 H12 O14)n'
_symmetry_cell_setting           triclinic
_symmetry_space_group_name_H-M   'P 1'
_symmetry_Int_Tables_number      1
_space_group_name_Hall           'P 1'
loop_
_symmetry_equiv_pos_site_id
_symmetry_equiv_pos_as_xyz
1 x,y,z
_cell_length_a                   6.8656(11)
_cell_length_b                   9.1287(16)
_cell_length_c                   9.9209(14)
_cell_angle_alpha                101.341(13)
_cell_angle_beta                 99.683(12)
_cell_angle_gamma                111.950(16)
_cell_volume                     545.111
loop_
_atom_site_label
_atom_site_type_symbol
_atom_site_fract_x
_atom_site_fract_y
_atom_site_fract_z
Ca1 Ca 0.31318(6) 0.57803(5) 0.10836(4)
H6 H 0.3541 0.8832 0.0486
O8 O 0.3236(3) 0.54708(19) 0.35115(16)
O10 O 0.6422(2) 0.5410(2) 0.13354(16)
O11 O 0.5618(3) 0.84825(19) 0.27104(16)
O12 O 0.1111(3) 0.3271(2) 0.17544(16)
O2 O 0.0216(2) 0.3973(2) 0.87920(15)
O4 O 0.3578(2) 0.4590(2) 0.86646(16)
C1 C 0.0833(3) 0.3175(3) 0.4098(2)
C2 C 0.0732(3) 0.3147(3) 0.6512(2)
C6 C 0.1780(3) 0.4020(3) 0.3058(2)
C7 C 0.1561(3) 0.3952(3) 0.8088(2)
C8 C 0.1660(3) 0.3929(3) 0.5562(2)
H4 H 0.2835 0.4958 0.5904
O7 O 0.3178(3) 0.7895(3) 0.9863(2)
H5 H 0.1898 0.7611 0.9302
Ca4 Ca 0.68682(6) 0.42197(5) 0.89164(4)
O9 O 0.9784(2) 0.6027(2) 0.12080(15)
C3 C 0.9126(3) 0.1622(3) 0.3607(2)
H2 H 0.8587 0.1103 0.2633
C5 C 0.8999(3) 0.1605(3) 0.6009(2)
H3 H 0.8362 0.1088 0.6643
C9 C 0.8215(3) 0.0834(3) 0.4549(2)
O3 O 0.5818(3) 0.84635(19) 0.49765(16)
H1 H 0.4919 0.7508 0.4603
C4 C 0.6425(3) 0.9153(3) 0.3984(2)
O3_2 O 0.4182(3) 0.15365(19) 0.50235(16)
H1_2 H 0.5081 0.2492 0.5397
O5 O 0.4382(3) 0.15175(19) 0.72896(16)
C4_2 C 0.3575(3) 0.0847(3) 0.6016(2)
C3_2 C 0.0874(3) 0.8378(3) 0.6393(2)
H2_2 H 0.1413 0.8897 0.7367
C5_2 C 0.1001(3) 0.8395(3) 0.3991(2)
H3_2 H 0.1638 0.8912 0.3357
C9_2 C 0.1785(3) 0.9166(3) 0.5451(2)
O1 O 0.6764(3) 0.45292(19) 0.64885(16)
O6 O 0.8889(3) 0.6729(2) 0.82456(16)
C1_2 C 0.9167(3) 0.6825(3) 0.5902(2)
C2_2 C 0.9268(3) 0.6853(3) 0.3488(2)
C6_2 C 0.8220(3) 0.5980(3) 0.6942(2)
C7_2 C 0.8439(3) 0.6048(3) 0.1912(2)
C8_2 C 0.8340(3) 0.6071(3) 0.4438(2)
H4_2 H 0.7165 0.5042 0.4096
O7_2 O 0.6822(3) 0.2105(3) 0.0137(2)
H5_2 H 0.8102 0.2389 0.0698
H6_2 H 0.6459 0.1168 0.9514
loop_
_geom_bond_atom_site_label_1
_geom_bond_atom_site_label_2
_geom_bond_site_symmetry_1
_geom_bond_site_symmetry_2
O8 Ca1 1_555 1_555
O10 Ca1 1_555 1_555
O11 Ca1 1_555 1_555
O12 Ca1 1_555 1_555
O8 C6 1_555 1_555
O2 C7 1_555 1_555
O12 C6 1_555 1_555
C6 C1 1_555 1_555
C7 O4 1_555 1_555
C8 C1 1_555 1_555
H4 C8 1_555 1_555
H5 O7 1_555 1_555
Ca4 O4 1_555 1_555
C2 C7 1_555 1_555
C2 C8 1_555 1_555
C3 H2 1_555 1_555
C5 H3 1_555 1_555
C9 C3 1_555 1_555
C5 C9 1_555 1_555
O3 H1 1_555 1_555
O11 C4 1_555 1_555
C4 O3 1_555 1_555
O3_2 H1_2 1_555 1_555
O5 C4_2 1_555 1_555
C4_2 O3_2 1_555 1_555
Ca4 O5 1_555 1_555
C3_2 H2_2 1_555 1_555
C5_2 H3_2 1_555 1_555
C9_2 C3_2 1_555 1_555
C5_2 C9_2 1_555 1_555
O1 C6_2 1_555 1_555
O9 C7_2 1_555 1_555
O6 C6_2 1_555 1_555
C6_2 C1_2 1_555 1_555
C7_2 O10 1_555 1_555
C8_2 C1_2 1_555 1_555
H4_2 C8_2 1_555 1_555
H5_2 O7_2 1_555 1_555
Ca4 O1 1_555 1_555
O6 Ca4 1_555 1_555
C2_2 C7_2 1_555 1_555
C2_2 C8_2 1_555 1_555

#END
