
###############################################################################
#
# This file contains modified crystal structure data generated from the
# MOF subset of the Cambridge Structural Database (CSD) v543 
# hosted by the Cambridge Crystallographic Data Centre (CCDC).
#
# This work is licensed under the Creative Commons
# Attribution-NonCommercial-ShareAlike 4.0 International License.
# To view a copy of this license, visit
# http://creativecommons.org/licenses/by-nc-sa/4.0/
# or send a letter to
# Creative Commons, PO Box 1866, Mountain View, CA 94042, USA.
#
# CIF created using the CSD Python API on 29 September 2022
# The structure has been converted into the P1 space group
# The structure has a 3D framework
# The original CSD entry RUFRIV is in the triclinic crystal system
# The framework has been calculated to contain at least 10.0% void space
# The void calculation uses a probe of radius 1.32A, grid spacing 0.4
#
###############################################################################

data_RUFRIV
_chemical_formula_moiety         '(C72 H80 N4 O38 Zn10)n'
_symmetry_cell_setting           triclinic
_symmetry_space_group_name_H-M   'P 1'
_symmetry_Int_Tables_number      1
_space_group_name_Hall           'P 1'
loop_
_symmetry_equiv_pos_site_id
_symmetry_equiv_pos_as_xyz
1 x,y,z
_cell_length_a                   13.6546(18)
_cell_length_b                   14.2126(18)
_cell_length_c                   14.6377(19)
_cell_angle_alpha                76.057(11)
_cell_angle_beta                 86.390(11)
_cell_angle_gamma                67.910(12)
_cell_volume                     2553.41
loop_
_atom_site_label
_atom_site_type_symbol
_atom_site_fract_x
_atom_site_fract_y
_atom_site_fract_z
Zn1 Zn 0.66531(7) 0.14237(7) 0.22925(6)
Zn2 Zn 0.01581(7) 0.37062(7) 0.14125(6)
Zn3 Zn 0.85043(7) 0.24347(7) 0.22410(6)
Zn4 Zn 0.26143(7) 0.23310(7) 0.10812(6)
Zn5 Zn 0.51164(7) 0.05299(7) 0.12742(6)
O2 O 0.3618(4) 0.0773(4) 0.1002(4)
O4 O 0.1512(4) 0.3853(4) 0.0916(3)
O11 O 0.5931(4) 0.2925(4) 0.1980(4)
O12 O 0.1618(4) 0.2086(4) 0.0183(4)
O14 O 0.5526(4) 0.0901(4) 0.2414(3)
O15 O 0.8110(4) 0.1959(4) 0.3554(4)
O16 O 0.7260(4) 0.3487(4) 0.1527(4)
O18 O 0.7362(4) 0.0806(4) 0.3529(4)
C2 C 0.0670(7) 0.2268(6) 0.0163(5)
O19 O 0.3567(4) 0.2567(4) 0.2067(4)
H3 H 0.4234 0.2305 0.1943
H4 H 0.3480 0.2260 0.2639
N2 N 0.0265(5) 0.4590(5) 0.2380(4)
C3 C 0.5826(6) 0.5504(6) 0.0830(5)
H5 H 0.6545 0.5369 0.0761
C5 C 0.6299(7) 0.3615(7) 0.1625(6)
C6 C 0.1710(6) 0.4619(6) 0.1286(5)
H7 H 0.1325 0.5312 0.0904
H8 H 0.2458 0.4497 0.1259
H11 H 0.2618 0.0120 0.1577
C11 C 0.1363(6) 0.4559(7) 0.2304(6)
H13 H 0.1834 0.3917 0.2706
H14 H 0.1405 0.5141 0.2513
C14 C 0.5358(6) 0.0277(6) 0.3275(5)
H19 H 0.4627 0.0580 0.3446
H20 H 0.5803 0.0274 0.3767
C19 C 0.8266(6) 0.0634(6) 0.4928(5)
C20 C 0.5089(6) 0.6508(6) 0.0483(5)
C23 C 0.5500(6) 0.4725(6) 0.1266(5)
C24 C 0.8949(6) 0.0908(6) 0.5367(5)
H25 H 0.9148 0.1457 0.5054
C25 C 0.4028(6) 0.6715(6) 0.0603(6)
H26 H 0.3529 0.7380 0.0368
C26 C 0.9333(6) 0.0379(6) 0.6253(5)
H27 H 0.9807 0.0559 0.6537
C29 C 0.4440(6) 0.4927(6) 0.1398(6)
H31 H 0.4218 0.4391 0.1702
C33 C 0.7874(6) 0.1188(6) 0.3924(5)
C35 C 0.0059(6) 0.4018(6) 0.3314(5)
H39 H 0.0704 0.3439 0.3570
C36 C 0.3719(6) 0.5909(6) 0.1083(6)
H40 H 0.3006 0.6043 0.1192
O20 O 0.1827(4) 0.1815(4) 0.2239(3)
O21 O 0.3559(4) 0.2845(4) 0.0075(4)
O22 O 0.9397(4) 0.3118(4) 0.2464(3)
O23 O 0.5257(4) 0.1791(4) 0.0411(4)
O24 O 0.9064(4) 0.1154(4) 0.1798(4)
O25 O 0.7706(4) 0.0789(4) 0.1440(4)
O6 O 0.8976(4) 0.5114(4) 0.0817(4)
H1 H 0.867(4) 0.548(3) 0.0292(14)
O8 O 0.9954(4) 0.2881(4) 0.0596(4)
C13 C 0.9206(6) 0.3608(6) 0.3250(5)
H17 H 0.9202 0.3104 0.3829
H18 H 0.8521 0.4177 0.3163
C31 C 0.8555(7) 0.5731(7) 0.1508(6)
H34 H 0.8092 0.5458 0.1923
H35 H 0.8151 0.6451 0.1197
C32 C 0.9457(6) 0.5673(6) 0.2055(6)
H36 H 0.9190 0.5954 0.2602
H37 H 0.9800 0.6111 0.1670
H38 H 0.9849 0.4482 0.3741
C1 C 0.8681(6) 0.0615(6) 0.1496(5)
O5 O 0.2576(4) 0.1854(4) 0.3551(4)
O13 O 0.3763(4) 0.0592(4) 0.9288(3)
H2 H 0.363(4) 0.071(2) 0.9840(9)
N1 N 0.4922(5) 0.0812(5) 0.7676(4)
C4 C 0.2033(6) 0.0189(6) 0.4593(5)
H6 H 0.2475 0.0394 0.4890
C8 C 0.6627(6) 0.0106(6) 0.8523(6)
H10 H 0.6448 0.0603 0.8917
C9 C 0.0973(6) 0.0423(6) 0.3263(5)
H12 H 0.0707 0.0778 0.2655
C10 C 0.1669(6) 0.0697(6) 0.3679(5)
C12 C 0.3385(7) 0.1584(6) 0.8604(6)
H15 H 0.2870 0.1589 0.8174
H16 H 0.3046 0.2145 0.8922
C17 C 0.4400(7) 0.0825(7) 0.6792(5)
H22 H 0.4659 0.1191 0.6245
H23 H 0.3641 0.1188 0.6808
C21 C 0.2054(6) 0.1526(6) 0.3113(6)
C28 C 0.6035(6) 0.0645(6) 0.7574(5)
H29 H 0.6334 0.0217 0.7125
H30 H 0.6112 0.1311 0.7334
C30 C 0.4326(7) 0.1746(6) 0.8055(6)
H32 H 0.4786 0.1849 0.8468
H33 H 0.4074 0.2363 0.7542
C7 C 0.9053(6) 0.9122(6) 0.0707(5)
H9 H 0.8329 0.9323 0.0611
C15 C 0.9439(6) 0.9677(6) 0.1169(5)
C22 C 0.9745(6) 0.8283(6) 0.0398(5)
C34 C 0.4540(6) 0.2651(6) 0.0035(5)
O3 O 0.6441(4) 0.7155(4) 0.9925(4)
O9 O 0.4743(4) 0.8209(4) 0.9589(4)
C7_2 C 0.0947(6) 0.0878(6) 0.9293(5)
H9_2 H 0.1671 0.0677 0.9389
C15_2 C 0.0561(6) 0.0323(6) 0.8831(5)
C22_2 C 0.0255(6) 0.1717(6) 0.9602(5)
C34_2 C 0.5460(6) 0.7349(6) 0.9965(5)
Zn10 Zn 0.73857(7) 0.76690(7) 0.89188(6)
Zn11 Zn 0.48836(7) 0.94701(7) 0.87258(6)
O1 O 0.8173(4) 0.8185(4) 0.7761(3)
O5_2 O 0.7424(4) 0.8146(4) 0.6449(4)
O13_2 O 0.6237(4) 0.9408(4) 0.0712(3)
H2_2 H 0.637(4) 0.929(2) 0.0160(9)
N1_2 N 0.5078(5) 0.9188(5) 0.2324(4)
C4_2 C 0.7967(6) 0.9811(6) 0.5407(5)
H6_2 H 0.7525 0.9606 0.5110
C8_2 C 0.3373(6) 0.9894(6) 0.1477(6)
H10_2 H 0.3552 0.9397 0.1083
C9_2 C 0.9027(6) 0.9577(6) 0.6737(5)
H12_2 H 0.9293 0.9222 0.7345
C10_2 C 0.8331(6) 0.9303(6) 0.6321(5)
C12_2 C 0.6615(7) 0.8416(6) 0.1396(6)
H15_2 H 0.7130 0.8411 0.1826
H16_2 H 0.6954 0.7855 0.1078
C17_2 C 0.5600(7) 0.9175(7) 0.3208(5)
H22_2 H 0.5341 0.8809 0.3755
H23_2 H 0.6359 0.8812 0.3192
C21_2 C 0.7946(6) 0.8474(6) 0.6887(6)
C28_2 C 0.3965(6) 0.9355(6) 0.2426(5)
H29_2 H 0.3666 0.9783 0.2875
H30_2 H 0.3888 0.8689 0.2666
C30_2 C 0.5674(7) 0.8254(6) 0.1945(6)
H32_2 H 0.5214 0.8151 0.1532
H33_2 H 0.5926 0.7637 0.2458
O10 O 0.0936(4) 0.8846(4) 0.8202(4)
O17 O 0.2294(4) 0.9211(4) 0.8560(4)
C1_2 C 0.1319(6) 0.9385(6) 0.8504(5)
Zn6 Zn 0.33469(7) 0.85763(7) 0.77075(6)
Zn8 Zn 0.14957(7) 0.75653(7) 0.77590(6)
O6_2 O 0.1024(4) 0.4886(4) 0.9183(4)
H1_2 H 0.133(4) 0.452(3) 0.9708(14)
O7 O 0.0603(4) 0.6882(4) 0.7536(3)
O8_2 O 0.0046(4) 0.7119(4) 0.9404(4)
C13_2 C 0.0794(6) 0.6392(6) 0.6750(5)
H17_2 H 0.0798 0.6896 0.6171
H18_2 H 0.1479 0.5823 0.6837
C31_2 C 0.1445(7) 0.4269(7) 0.8492(6)
H34_2 H 0.1908 0.4542 0.8077
H35_2 H 0.1849 0.3549 0.8803
C32_2 C 0.0543(6) 0.4327(6) 0.7945(6)
H36_2 H 0.0810 0.4046 0.7398
H37_2 H 0.0200 0.3889 0.8330
H38_2 H 0.0151 0.5518 0.6259
Zn2_2 Zn 0.98419(7) 0.62938(7) 0.85875(6)
O2_2 O 0.6382(4) 0.9227(4) 0.8998(4)
O4_2 O 0.8488(4) 0.6147(4) 0.9084(3)
O11_2 O 0.4069(4) 0.7075(4) 0.8020(4)
O12_2 O 0.8382(4) 0.7914(4) 0.9817(4)
O14_2 O 0.4474(4) 0.9099(4) 0.7586(3)
O15_2 O 0.1890(4) 0.8041(4) 0.6446(4)
O16_2 O 0.2740(4) 0.6513(4) 0.8473(4)
O18_2 O 0.2638(4) 0.9194(4) 0.6471(4)
C2_2 C 0.9330(7) 0.7732(6) 0.9837(5)
O19_2 O 0.6433(4) 0.7433(4) 0.7933(4)
H3_2 H 0.5766 0.7695 0.8057
H4_2 H 0.6520 0.7740 0.7361
N2_2 N 0.9735(5) 0.5410(5) 0.7620(4)
C3_2 C 0.4174(6) 0.4496(6) 0.9170(5)
H5_2 H 0.3455 0.4631 0.9239
C5_2 C 0.3701(7) 0.6385(7) 0.8375(6)
C6_2 C 0.8290(6) 0.5381(6) 0.8714(5)
H7_2 H 0.8675 0.4688 0.9096
H8_2 H 0.7542 0.5503 0.8741
H11_2 H 0.7382 0.9880 0.8423
C11_2 C 0.8637(6) 0.5441(7) 0.7696(6)
H13_2 H 0.8166 0.6083 0.7294
H14_2 H 0.8595 0.4859 0.7487
C14_2 C 0.4642(6) 0.9723(6) 0.6725(5)
H19_2 H 0.5373 0.9420 0.6554
H20_2 H 0.4197 0.9726 0.6233
C19_2 C 0.1734(6) 0.9366(6) 0.5072(5)
C20_2 C 0.4911(6) 0.3492(6) 0.9517(5)
C23_2 C 0.4500(6) 0.5275(6) 0.8734(5)
C24_2 C 0.1051(6) 0.9092(6) 0.4633(5)
H25_2 H 0.0852 0.8543 0.4946
C25_2 C 0.5972(6) 0.3285(6) 0.9397(6)
H26_2 H 0.6471 0.2620 0.9632
C26_2 C 0.0667(6) 0.9621(6) 0.3747(5)
H27_2 H 0.0193 0.9441 0.3463
C29_2 C 0.5560(6) 0.5073(6) 0.8602(6)
H31_2 H 0.5782 0.5609 0.8298
C33_2 C 0.2126(6) 0.8812(6) 0.6076(5)
C35_2 C 0.9941(6) 0.5982(6) 0.6686(5)
H39_2 H 0.9296 0.6561 0.6430
C36_2 C 0.6281(6) 0.4091(6) 0.8917(6)
H40_2 H 0.6994 0.3957 0.8808
C16 C 0.8812(6) 0.1504(7) 0.8977(6)
H21 H 0.8090 0.1745 0.8841
C18 C 0.9178(6) 0.2010(6) 0.9445(5)
H24 H 0.8704 0.2567 0.9668
C27 C 0.9487(6) 0.0626(7) 0.8691(5)
H28 H 0.9221 0.0248 0.8409
C16_2 C 0.1188(6) 0.8496(7) 0.1023(6)
H21_2 H 0.1910 0.8255 0.1159
C18_2 C 0.0822(6) 0.7990(6) 0.0555(5)
H24_2 H 0.1296 0.7433 0.0332
C27_2 C 0.0513(6) 0.9374(7) 0.1309(5)
H28_2 H 0.0779 0.9752 0.1591
loop_
_geom_bond_atom_site_label_1
_geom_bond_atom_site_label_2
_geom_bond_site_symmetry_1
_geom_bond_site_symmetry_2
Zn1 O11 1_555 1_555
Zn2 O4 1_555 1_555
Zn3 O15 1_555 1_555
Zn4 O2 1_555 1_555
Zn5 O2 1_555 1_555
O4 Zn4 1_555 1_555
O11 C5 1_555 1_555
O12 Zn4 1_555 1_555
O14 Zn1 1_555 1_555
O15 C33 1_555 1_555
O16 Zn3 1_555 1_555
O18 Zn1 1_555 1_555
O19 Zn4 1_555 1_555
H3 O19 1_555 1_555
H4 O19 1_555 1_555
N2 Zn2 1_555 1_555
C3 H5 1_555 1_555
C5 O16 1_555 1_555
C6 O4 1_555 1_555
H7 C6 1_555 1_555
H8 C6 1_555 1_555
C11 N2 1_555 1_555
H13 C11 1_555 1_555
H14 C11 1_555 1_555
C14 O14 1_555 1_555
H19 C14 1_555 1_555
H20 C14 1_555 1_555
C20 C3 1_555 1_555
C23 C3 1_555 1_555
C24 C19 1_555 1_555
H25 C24 1_555 1_555
C25 C20 1_555 1_555
H26 C25 1_555 1_555
H27 C26 1_555 1_555
C29 C23 1_555 1_555
H31 C29 1_555 1_555
C33 O18 1_555 1_555
C35 N2 1_555 1_555
H39 C35 1_555 1_555
C36 C25 1_555 1_555
H40 C36 1_555 1_555
O20 Zn4 1_555 1_555
O21 Zn4 1_555 1_555
O22 Zn3 1_555 1_555
O23 Zn5 1_555 1_555
O24 Zn3 1_555 1_555
O25 Zn1 1_555 1_555
Zn5 O14 1_555 1_555
O12 C2 1_555 1_555
C5 C23 1_555 1_555
C6 C11 1_555 1_555
C19 C33 1_555 1_555
C24 C26 1_555 1_555
C29 C36 1_555 1_555
H1 O6 1_555 1_555
C13 O22 1_555 1_555
H17 C13 1_555 1_555
H18 C13 1_555 1_555
C31 O6 1_555 1_555
H34 C31 1_555 1_555
H35 C31 1_555 1_555
H36 C32 1_555 1_555
H37 C32 1_555 1_555
C31 C32 1_555 1_555
O24 C1 1_555 1_555
O25 C1 1_555 1_555
O20 C21 1_555 1_555
O5 C21 1_555 1_555
H2 O13 1_555 1_555
C4 H6 1_555 1_555
C8 H10 1_555 1_555
C9 H12 1_555 1_555
C10 C4 1_555 1_555
C12 O13 1_555 1_555
H15 C12 1_555 1_555
H16 C12 1_555 1_555
C17 N1 1_555 1_555
H22 C17 1_555 1_555
H23 C17 1_555 1_555
C21 C10 1_555 1_555
C28 N1 1_555 1_555
H29 C28 1_555 1_555
H30 C28 1_555 1_555
C30 N1 1_555 1_555
H32 C30 1_555 1_555
H33 C30 1_555 1_555
C8 C28 1_555 1_555
C9 C10 1_555 1_555
C12 C30 1_555 1_555
O21 C34 1_555 1_555
O23 C34 1_555 1_555
C7 H9 1_555 1_555
C15 C7 1_555 1_555
C7 C22 1_555 1_555
O3 C34_2 1_555 1_555
O9 C34_2 1_555 1_555
C7_2 H9_2 1_555 1_555
C15_2 C7_2 1_555 1_555
Zn10 O3 1_555 1_555
Zn11 O9 1_555 1_555
C7_2 C22_2 1_555 1_555
O1 C21_2 1_555 1_555
O5_2 C21_2 1_555 1_555
H2_2 O13_2 1_555 1_555
C4_2 H6_2 1_555 1_555
C8_2 H10_2 1_555 1_555
C9_2 H12_2 1_555 1_555
C10_2 C4_2 1_555 1_555
C12_2 O13_2 1_555 1_555
H15_2 C12_2 1_555 1_555
H16_2 C12_2 1_555 1_555
C17_2 N1_2 1_555 1_555
H22_2 C17_2 1_555 1_555
H23_2 C17_2 1_555 1_555
C21_2 C10_2 1_555 1_555
C28_2 N1_2 1_555 1_555
H29_2 C28_2 1_555 1_555
H30_2 C28_2 1_555 1_555
C30_2 N1_2 1_555 1_555
H32_2 C30_2 1_555 1_555
H33_2 C30_2 1_555 1_555
Zn10 O1 1_555 1_555
C8_2 C28_2 1_555 1_555
C9_2 C10_2 1_555 1_555
C12_2 C30_2 1_555 1_555
O10 C1_2 1_555 1_555
O17 C1_2 1_555 1_555
Zn6 O17 1_555 1_555
Zn8 O10 1_555 1_555
H1_2 O6_2 1_555 1_555
C13_2 O7 1_555 1_555
H17_2 C13_2 1_555 1_555
H18_2 C13_2 1_555 1_555
C31_2 O6_2 1_555 1_555
H34_2 C31_2 1_555 1_555
H35_2 C31_2 1_555 1_555
H36_2 C32_2 1_555 1_555
H37_2 C32_2 1_555 1_555
Zn8 O7 1_555 1_555
C31_2 C32_2 1_555 1_555
Zn6 O11_2 1_555 1_555
Zn2_2 O4_2 1_555 1_555
Zn8 O15_2 1_555 1_555
Zn10 O2_2 1_555 1_555
Zn11 O2_2 1_555 1_555
O4_2 Zn10 1_555 1_555
O11_2 C5_2 1_555 1_555
O12_2 Zn10 1_555 1_555
O14_2 Zn6 1_555 1_555
O15_2 C33_2 1_555 1_555
O16_2 Zn8 1_555 1_555
O18_2 Zn6 1_555 1_555
O19_2 Zn10 1_555 1_555
H3_2 O19_2 1_555 1_555
H4_2 O19_2 1_555 1_555
N2_2 Zn2_2 1_555 1_555
C3_2 H5_2 1_555 1_555
C5_2 O16_2 1_555 1_555
C6_2 O4_2 1_555 1_555
H7_2 C6_2 1_555 1_555
H8_2 C6_2 1_555 1_555
C11_2 N2_2 1_555 1_555
H13_2 C11_2 1_555 1_555
H14_2 C11_2 1_555 1_555
C14_2 O14_2 1_555 1_555
H19_2 C14_2 1_555 1_555
H20_2 C14_2 1_555 1_555
C20_2 C3_2 1_555 1_555
C23_2 C3_2 1_555 1_555
C24_2 C19_2 1_555 1_555
H25_2 C24_2 1_555 1_555
C25_2 C20_2 1_555 1_555
H26_2 C25_2 1_555 1_555
H27_2 C26_2 1_555 1_555
C29_2 C23_2 1_555 1_555
H31_2 C29_2 1_555 1_555
C33_2 O18_2 1_555 1_555
C35_2 N2_2 1_555 1_555
H39_2 C35_2 1_555 1_555
C36_2 C25_2 1_555 1_555
H40_2 C36_2 1_555 1_555
Zn11 O14_2 1_555 1_555
O12_2 C2_2 1_555 1_555
C5_2 C23_2 1_555 1_555
C6_2 C11_2 1_555 1_555
C19_2 C33_2 1_555 1_555
C24_2 C26_2 1_555 1_555
C29_2 C36_2 1_555 1_555
C16 H21 1_555 1_555
C18 C16 1_555 1_555
H24 C18 1_555 1_555
H28 C27 1_555 1_555
C16 C27 1_555 1_555
C16_2 H21_2 1_555 1_555
C18_2 C16_2 1_555 1_555
H24_2 C18_2 1_555 1_555
H28_2 C27_2 1_555 1_555
C16_2 C27_2 1_555 1_555

#END
