
###############################################################################
#
# This file contains modified crystal structure data generated from the
# MOF subset of the Cambridge Structural Database (CSD) v543 
# hosted by the Cambridge Crystallographic Data Centre (CCDC).
#
# This work is licensed under the Creative Commons
# Attribution-NonCommercial-ShareAlike 4.0 International License.
# To view a copy of this license, visit
# http://creativecommons.org/licenses/by-nc-sa/4.0/
# or send a letter to
# Creative Commons, PO Box 1866, Mountain View, CA 94042, USA.
#
# CIF created using the CSD Python API on 29 September 2022
# The structure has been converted into the P1 space group
# The structure has a 3D framework
# The original CSD entry RUFTET is in the triclinic crystal system
# The framework has been calculated to contain at least 10.0% void space
# The void calculation uses a probe of radius 1.32A, grid spacing 0.4
# The framework is charged, counterions have been retained in the structure
#
###############################################################################

data_RUFTET
_chemical_formula_moiety         '(C52 H32 Co11 N4 O17)n'
_symmetry_cell_setting           triclinic
_symmetry_space_group_name_H-M   'P 1'
_symmetry_Int_Tables_number      1
_space_group_name_Hall           'P 1'
loop_
_symmetry_equiv_pos_site_id
_symmetry_equiv_pos_as_xyz
1 x,y,z
_cell_length_a                   11.3407(5)
_cell_length_b                   11.3847(9)
_cell_length_c                   13.1908(7)
_cell_angle_alpha                88.868(6)
_cell_angle_beta                 69.339(5)
_cell_angle_gamma                85.726(5)
_cell_volume                     1589.07
loop_
_atom_site_label
_atom_site_type_symbol
_atom_site_fract_x
_atom_site_fract_y
_atom_site_fract_z
Co11 Co 0.0000 -0.0000 0.5000
Co14 Co -0.0000 -0.0000 -0.0000
O7 O 0.0510(5) 0.2413(5) 0.3255(4)
C19 C 0.0139(7) 0.2594(7) 0.4281(6)
C20 C 0.0065(7) 0.3854(6) 0.4639(5)
C21 C 0.0847(8) 0.4650(7) 0.3985(6)
H13 H 0.1416 0.4420 0.3284
C22 C 0.0797(9) 0.5798(7) 0.4361(6)
H14 H 0.1357 0.6341 0.3927
O16 O 0.0151(5) 0.8169(4) 0.5005(4)
C48 C 0.0681(8) 0.1935(6) 0.7359(6)
C49 C 0.1373(9) 0.2803(8) 0.6773(6)
H29 H 0.0990 0.3420 0.6473
C50 C 0.2654(10) 0.2772(8) 0.6619(7)
H30 H 0.3157 0.3376 0.6225
C51 C 0.3171(7) 0.1866(8) 0.7040(6)
H31 H 0.4047 0.1821 0.6934
C52 C 0.2416(8) 0.1001(8) 0.7628(6)
H32 H 0.2773 0.0372 0.7936
N4 N 0.1216(6) 0.1049(6) 0.7758(5)
O20 O 0.0515(5) 0.0200(4) 0.8322(3)
Co9 Co 0.00938(10) 0.88342(7) 0.74825(7)
Co11_2 Co 0.0000 1.0000 0.5000
Co14_2 Co -0.0000 -0.0000 1.0000
O27 O 0.1714(5) 0.1066(5) 0.1316(4)
O22 O 0.0013(5) 0.1822(4) 0.9989(4)
Co14_3 Co -0.0000 1.0000 -0.0000
O1 O 0.0455(5) 0.9768(4) 0.3330(4)
N1 N 0.1231(6) 0.8869(6) 0.2770(4)
C1 C 0.2478(8) 0.8865(8) 0.2612(6)
H1 H 0.2803 0.9469 0.2902
C2 C 0.3260(8) 0.7937(8) 0.2007(6)
H2 H 0.4140 0.7916 0.1879
C3 C 0.2817(9) 0.7067(8) 0.1597(6)
H3 H 0.3375 0.6442 0.1191
C4 C 0.1529(8) 0.7095(8) 0.1774(6)
H4 H 0.1204 0.6485 0.1492
C5 C 0.0716(8) 0.8018(7) 0.2366(6)
Co14_4 Co -0.0000 1.0000 1.0000
O23 O 0.0846(5) 0.7593(5) 0.8277(4)
O30 O 0.1859(5) 0.9967(5) 0.4849(4)
O31 O 0.1879(4) 0.8890(5) 0.6295(4)
C11 C 0.0333(7) 0.7412(6) 0.9280(5)
C12 C 0.0178(7) 0.6155(6) 0.9643(6)
C13 C 0.0849(8) 0.5226(7) 0.8975(6)
H9 H 0.1434 0.5372 0.8272
C30 C 0.0658(8) 0.4077(7) 0.9344(5)
H18 H 0.1116 0.3440 0.8885
O25 O 0.1835(5) 0.9930(5) 0.9904(4)
Co11_3 Co 1.0000 -0.0000 0.5000
Co14_5 Co 1.0000 -0.0000 -0.0000
Co1 Co 0.99062(10) 0.11658(7) 0.25175(7)
O5 O 0.8165(5) 0.0070(5) 0.0096(4)
C17 C 0.5587(7) 0.0562(7) 0.0597(6)
H11 H 0.5988 0.0949 0.1005
O8 O 0.9849(5) 0.1831(4) 0.4995(4)
O9 O 0.8141(5) 0.0033(5) 0.5151(4)
C23 C 0.7588(7) 0.0506(7) 0.4541(6)
O10 O 0.8121(4) 0.1110(5) 0.3705(4)
C24 C 0.6231(8) 0.0273(7) 0.4803(6)
C25 C 0.5549(7) 0.0844(7) 0.4246(6)
H15 H 0.5923 0.1425 0.3730
C31 C 0.2287(7) 0.0422(7) 0.0507(5)
C32 C 0.3694(7) 0.0230(7) 0.0227(5)
C34 C 0.4310(7) 0.0790(8) 0.0825(6)
H20 H 0.3839 0.1328 0.1389
O15 O 0.9490(5) 0.7587(5) 0.6745(4)
C35 C 0.9861(7) 0.7406(7) 0.5719(6)
C36 C 0.9935(7) 0.6146(6) 0.5361(5)
C37 C 0.9153(8) 0.5350(7) 0.6015(6)
H21 H 0.8584 0.5580 0.6716
C38 C 0.9203(9) 0.4202(7) 0.5639(6)
H22 H 0.8643 0.3659 0.6073
C42 C 0.4307(8) 0.0583(7) 0.4430(6)
H24 H 0.3835 0.0979 0.4040
O19 O 0.9545(5) 0.0232(4) 0.6670(4)
N3 N 0.8769(6) 0.1131(6) 0.7230(4)
C43 C 0.7522(8) 0.1135(8) 0.7388(6)
H25 H 0.7197 0.0531 0.7098
C44 C 0.6740(8) 0.2063(8) 0.7993(6)
H26 H 0.5860 0.2084 0.8121
C45 C 0.7183(9) 0.2933(8) 0.8403(6)
H27 H 0.6625 0.3558 0.8809
C46 C 0.8471(8) 0.2905(8) 0.8226(6)
H28 H 0.8796 0.3515 0.8508
C47 C 0.9284(8) 0.1982(7) 0.7634(6)
Co11_4 Co 1.0000 1.0000 0.5000
Co14_6 Co 1.0000 -0.0000 1.0000
O24 O 0.9154(5) 0.2407(5) 0.1723(4)
Co14_7 Co 1.0000 1.0000 -0.0000
C6 C 0.9319(8) 0.8065(6) 0.2641(6)
C7 C 0.8627(9) 0.7197(8) 0.3227(6)
H5 H 0.9010 0.6580 0.3527
C8 C 0.7346(10) 0.7228(8) 0.3381(7)
H6 H 0.6843 0.6624 0.3775
C9 C 0.6829(7) 0.8134(8) 0.2960(6)
H7 H 0.5953 0.8179 0.3066
C10 C 0.7584(8) 0.8999(8) 0.2372(6)
H8 H 0.7227 0.9628 0.2064
N2 N 0.8784(6) 0.8951(6) 0.2242(5)
O2 O 0.9485(5) 0.9800(4) 0.1678(3)
O3 O 0.9987(5) 0.8178(4) 0.0011(4)
C14 C 0.9342(8) 0.5923(7) 0.0656(5)
H10 H 0.8884 0.6560 0.1115
C26 C 0.5693(8) 0.9417(7) 0.5570(6)
H16 H 0.6165 0.9021 0.5960
C27 C 0.9667(7) 0.2588(6) 0.0720(5)
C28 C 0.9822(7) 0.3845(6) 0.0357(6)
C29 C 0.9151(8) 0.4774(7) 0.1025(6)
H17 H 0.8566 0.4628 0.1728
C39 C 0.2412(7) 0.9494(7) 0.5459(6)
C40 C 0.3769(8) 0.9727(7) 0.5197(6)
C41 C 0.4451(7) 0.9156(7) 0.5754(6)
H23 H 0.4077 0.8575 0.6270
Co14_8 Co 1.0000 1.0000 1.0000
O26 O 0.8286(5) 0.8934(5) 0.8684(4)
C15 C 0.7713(7) 0.9578(7) 0.9493(5)
C16 C 0.6306(7) 0.9770(7) 0.9773(5)
C18 C 0.5690(7) 0.9210(8) 0.9175(6)
H12 H 0.6161 0.8672 0.8611
C33 C 0.4413(7) 0.9438(7) 0.9403(6)
H19 H 0.4012 0.9051 0.8995
loop_
_geom_bond_atom_site_label_1
_geom_bond_atom_site_label_2
_geom_bond_site_symmetry_1
_geom_bond_site_symmetry_2
C19 O7 1_555 1_555
C20 C19 1_555 1_555
C21 C20 1_555 1_555
H13 C21 1_555 1_555
C22 C21 1_555 1_555
H14 C22 1_555 1_555
O16 Co11_2 1_555 1_555
C49 C48 1_555 1_555
H29 C49 1_555 1_555
C50 C49 1_555 1_555
H30 C50 1_555 1_555
C51 C50 1_555 1_555
H31 C51 1_555 1_555
C52 C51 1_555 1_555
H32 C52 1_555 1_555
N4 C48 1_555 1_555
Co14_2 O20 1_555 1_555
C52 N4 1_555 1_555
N4 O20 1_555 1_555
O22 Co14_2 1_555 1_555
O1 Co11_2 1_555 1_555
N1 O1 1_555 1_555
C1 N1 1_555 1_555
H1 C1 1_555 1_555
C2 C1 1_555 1_555
H2 C2 1_555 1_555
C3 C2 1_555 1_555
H3 C3 1_555 1_555
C4 C3 1_555 1_555
H4 C4 1_555 1_555
C5 N1 1_555 1_555
O23 Co9 1_555 1_555
O30 Co11_2 1_555 1_555
O31 Co9 1_555 1_555
C4 C5 1_555 1_555
O23 C11 1_555 1_555
C12 C11 1_555 1_555
C13 C12 1_555 1_555
H9 C13 1_555 1_555
C30 C13 1_555 1_555
H18 C30 1_555 1_555
O25 Co14_4 1_555 1_555
Co11_3 O8 1_555 1_555
O5 Co14_5 1_555 1_555
H11 C17 1_555 1_555
O9 Co11_3 1_555 1_555
C23 O9 1_555 1_555
O10 Co1 1_555 1_555
C24 C23 1_555 1_555
C25 C24 1_555 1_555
H15 C25 1_555 1_555
C31 C32 1_555 1_555
C34 C17 1_555 1_555
H20 C34 1_555 1_555
O27 C31 1_555 1_555
O15 C35 1_555 1_555
C37 C36 1_555 1_555
H21 C37 1_555 1_555
H22 C38 1_555 1_555
C42 C25 1_555 1_555
H24 C42 1_555 1_555
O19 Co11_3 1_555 1_555
N3 O19 1_555 1_555
C43 N3 1_555 1_555
H25 C43 1_555 1_555
C44 C43 1_555 1_555
H26 C44 1_555 1_555
C45 C44 1_555 1_555
H27 C45 1_555 1_555
C46 C45 1_555 1_555
H28 C46 1_555 1_555
C47 N3 1_555 1_555
O24 Co1 1_555 1_555
C23 O10 1_555 1_555
C32 C34 1_555 1_555
C35 C36 1_555 1_555
C37 C38 1_555 1_555
C46 C47 1_555 1_555
Co14_7 O2 1_555 1_555
C7 C6 1_555 1_555
H5 C7 1_555 1_555
C8 C7 1_555 1_555
H6 C8 1_555 1_555
C9 C8 1_555 1_555
H7 C9 1_555 1_555
C10 C9 1_555 1_555
H8 C10 1_555 1_555
N2 C6 1_555 1_555
O3 Co14_7 1_555 1_555
H10 C14 1_555 1_555
H16 C26 1_555 1_555
C27 C28 1_555 1_555
C28 C29 1_555 1_555
C29 C14 1_555 1_555
H17 C29 1_555 1_555
O24 C27 1_555 1_555
O30 C39 1_555 1_555
C39 O31 1_555 1_555
C40 C39 1_555 1_555
C41 C26 1_555 1_555
H23 C41 1_555 1_555
C10 N2 1_555 1_555
N2 O2 1_555 1_555
C40 C41 1_555 1_555
O26 C15 1_555 1_555
C16 C15 1_555 1_555
C18 C16 1_555 1_555
H12 C18 1_555 1_555
C33 C18 1_555 1_555
H19 C33 1_555 1_555

#END
