
###############################################################################
#
# This file contains modified crystal structure data generated from the
# MOF subset of the Cambridge Structural Database (CSD) v543 
# hosted by the Cambridge Crystallographic Data Centre (CCDC).
#
# This work is licensed under the Creative Commons
# Attribution-NonCommercial-ShareAlike 4.0 International License.
# To view a copy of this license, visit
# http://creativecommons.org/licenses/by-nc-sa/4.0/
# or send a letter to
# Creative Commons, PO Box 1866, Mountain View, CA 94042, USA.
#
# CIF created using the CSD Python API on 29 September 2022
# The structure has been converted into the P1 space group
# The structure has a 3D framework
# The original CSD entry RUFZID is in the monoclinic crystal system
# The framework has been calculated to contain at least 10.0% void space
# The void calculation uses a probe of radius 1.32A, grid spacing 0.4
#
###############################################################################

data_RUFZID
_chemical_formula_moiety         '(C144 H166 Cu24 N38 O74)n'
_symmetry_cell_setting           triclinic
_symmetry_space_group_name_H-M   'P 1'
_symmetry_Int_Tables_number      1
_space_group_name_Hall           'P 1'
loop_
_symmetry_equiv_pos_site_id
_symmetry_equiv_pos_as_xyz
1 x,y,z
_cell_length_a                   27.313(18)
_cell_length_b                   22.017(14)
_cell_length_c                   15.836(11)
_cell_angle_alpha                90
_cell_angle_beta                 103.218(10)
_cell_angle_gamma                90
_cell_volume                     9270.69
loop_
_atom_site_label
_atom_site_type_symbol
_atom_site_fract_x
_atom_site_fract_y
_atom_site_fract_z
Cu9 Cu 0.2500 0.2500 0.0000
O13 O 0.0668(4) 0.4384(4) 0.5445(6)
O14 O 0.0033(4) 0.4388(4) 0.6142(6)
O15 O 0.2154(4) 0.2950(4) 0.8957(6)
O16 O 0.1519(5) 0.2564(5) 0.9366(8)
C25 C 0.1690(7) 0.2869(8) 0.8874(11)
C26 C 0.1384(6) 0.3182(7) 0.8087(11)
C27 C 0.1575(6) 0.3406(8) 0.7445(13)
H28 H 0.1915 0.3349 0.7465
C28 C 0.0865(7) 0.3232(7) 0.8043(11)
H29 H 0.0716 0.3051 0.8452
C29 C 0.0470(7) 0.4226(6) 0.6031(10)
C30 C 0.0788(6) 0.3829(6) 0.6720(9)
C31 C 0.1268(6) 0.3734(8) 0.6720(11)
H30 H 0.1404 0.3874 0.6268
C32 C 0.0583(6) 0.3575(8) 0.7339(12)
H31 H 0.0240 0.3628 0.7301
Cu7 Cu 0.03818(8) 0.5000 0.45797(13)
Cu9_2 Cu 0.2500 0.2500 1.0000
O20 O 0.0033(4) 0.5612(4) 0.6142(6)
Cu4 Cu 0.7500 0.2500 0.0000
H7 H 0.7214 0.3842 0.0504
H35 H 0.7214 0.6158 0.0504
Cu10 Cu 0.7500 0.7500 0.0000
N10 N 0.7447(4) 0.1781(4) 0.0710(7)
O21 O 0.7846(4) 0.2950(4) 0.1043(6)
O23 O 0.8481(5) 0.2564(5) 0.0634(8)
Cu1 Cu 0.73927(10) 0.5000 0.84891(18)
Cu2 Cu 0.81065(6) 0.42414(6) 0.75286(10)
Cu3 Cu 0.96182(8) 0.5000 0.54203(13)
Cu4_2 Cu 0.7500 0.2500 1.0000
N1 N 0.7480(4) 0.4139(4) 0.8751(7)
N2 N 0.7774(4) 0.3819(4) 0.8329(6)
N3 N 0.7553(4) 0.3219(4) 0.9290(7)
N4 N 0.8477(4) 0.4685(4) 0.6823(6)
N5 N 0.9029(5) 0.5000 0.6062(10)
O1 O 0.8063(4) 0.5000 0.8183(7)
H1 H 0.8333 0.5000 0.8630
O2 O 0.7976(4) 0.3559(4) 0.6732(7)
O3 O 0.7257(5) 0.3948(5) 0.5996(9)
O4 O 0.9332(4) 0.4384(4) 0.4555(6)
O5 O 0.9967(4) 0.4388(4) 0.3858(6)
O8 O 0.6684(5) 0.5000 0.8469(11)
H2 H 0.6367 0.5000 0.8171
H3 H 0.6704 0.5000 0.9022
O9 O 0.8926(5) 0.3955(7) 0.8419(10)
H4 H 0.8904 0.3567 0.8631
H5 H 0.9148 0.4154 0.8809
C1 C 0.7036(6) 0.3930(7) 0.9921(11)
H6 H 0.6959 0.4356 0.9870
H8 H 0.6730 0.3700 0.9783
C2 C 0.7352(5) 0.3768(6) 0.9317(9)
C3 C 0.7807(5) 0.3261(6) 0.8649(9)
C4 C 0.8089(6) 0.2734(6) 0.8392(10)
H9 H 0.8357 0.2882 0.8150
H10 H 0.7864 0.2492 0.7969
H11 H 0.8225 0.2491 0.8894
C5 C 0.8810(5) 0.4517(5) 0.6372(9)
C6 C 0.8938(6) 0.3885(6) 0.6180(11)
H12 H 0.8802 0.3798 0.5578
H13 H 0.8799 0.3608 0.6530
H14 H 0.9297 0.3839 0.6307
C7 C 0.7579(8) 0.3561(7) 0.6126(12)
C8 C 0.7546(7) 0.2999(7) 0.5549(11)
C9 C 0.7167(7) 0.2938(7) 0.4865(14)
H15 H 0.6925 0.3243 0.4754
C10 C 0.7892(6) 0.2566(8) 0.5712(11)
H16 H 0.8164 0.2591 0.6186
C11 C 0.8310(7) 0.2869(8) 0.1126(11)
C12 C 0.8616(6) 0.3182(7) 0.1913(11)
C13 C 0.8425(6) 0.3406(8) 0.2555(13)
H17 H 0.8085 0.3349 0.2535
C14 C 0.9135(7) 0.3232(7) 0.1957(11)
H18 H 0.9284 0.3051 0.1548
C15 C 0.9530(7) 0.4226(6) 0.3969(10)
C16 C 0.9212(6) 0.3829(6) 0.3280(9)
C17 C 0.8732(6) 0.3734(8) 0.3280(11)
H19 H 0.8596 0.3874 0.3732
C18 C 0.9417(6) 0.3575(8) 0.2661(12)
H20 H 0.9760 0.3628 0.2699
O10 O 0.7191(5) 0.5000 0.6900(8)
H21 H 0.6888 0.5000 0.6591
H22 H 0.7399 0.5000 0.6565
N6 N 0.8477(4) 0.5315(4) 0.6823(6)
C19 C 0.8810(5) 0.5483(5) 0.6372(9)
C20 C 0.8938(6) 0.6115(6) 0.6180(11)
H23 H 0.8802 0.6202 0.5578
H24 H 0.8799 0.6392 0.6530
H25 H 0.9297 0.6161 0.6307
O11 O 0.7024(4) 0.1441(4) 0.3268(7)
O12 O 0.7743(5) 0.1052(5) 0.4004(9)
C21 C 0.7421(8) 0.1439(7) 0.3874(12)
C22 C 0.7454(7) 0.2001(7) 0.4451(11)
C23 C 0.7833(7) 0.2062(7) 0.5135(14)
H26 H 0.8075 0.1757 0.5246
C24 C 0.7108(6) 0.2434(8) 0.4288(11)
H27 H 0.6836 0.2409 0.3814
Cu5 Cu 0.81065(6) 0.57586(6) 0.75286(10)
N7 N 0.7480(4) 0.5861(4) 0.8751(7)
N8 N 0.7774(4) 0.6181(4) 0.8329(6)
N9 N 0.7553(4) 0.6781(4) 0.9290(7)
O17 O 0.8926(5) 0.6045(7) 0.8419(10)
H32 H 0.8904 0.6433 0.8631
H33 H 0.9148 0.5846 0.8809
C33 C 0.7036(6) 0.6070(7) 0.9921(11)
H34 H 0.6959 0.5644 0.9870
H36 H 0.6730 0.6300 0.9783
C34 C 0.7352(5) 0.6232(6) 0.9317(9)
C35 C 0.7807(5) 0.6739(6) 0.8649(9)
C36 C 0.8089(6) 0.7266(6) 0.8392(10)
H37 H 0.8357 0.7118 0.8150
H38 H 0.7864 0.7508 0.7969
H39 H 0.8225 0.7509 0.8894
Cu6 Cu 0.68935(6) 0.07586(6) 0.24714(10)
Cu10_2 Cu 0.7500 0.7500 1.0000
O18 O 0.7976(4) 0.6441(4) 0.6732(7)
O19 O 0.9332(4) 0.5616(4) 0.4555(6)
O22 O 0.7154(4) 0.2050(4) 0.8957(6)
O24 O 0.6519(5) 0.2436(5) 0.9366(8)
Cu1_2 Cu 0.26073(10) 0.5000 0.15109(18)
Cu2_2 Cu 0.18935(6) 0.42414(6) 0.24714(10)
N1_2 N 0.2520(4) 0.4139(4) 0.1249(7)
N2_2 N 0.2226(4) 0.3819(4) 0.1671(6)
N3_2 N 0.2447(4) 0.3219(4) 0.0710(7)
N4_2 N 0.1523(4) 0.4685(4) 0.3177(6)
N5_2 N 0.0971(5) 0.5000 0.3938(10)
O1_2 O 0.1937(4) 0.5000 0.1817(7)
H1_2 H 0.1667 0.5000 0.1370
O2_2 O 0.2024(4) 0.3559(4) 0.3268(7)
O3_2 O 0.2743(5) 0.3948(5) 0.4004(9)
O8_2 O 0.3316(5) 0.5000 0.1531(11)
H2_2 H 0.3633 0.5000 0.1829
H3_2 H 0.3296 0.5000 0.0978
O9_2 O 0.1074(5) 0.3955(7) 0.1581(10)
H4_2 H 0.1096 0.3567 0.1369
H5_2 H 0.0852 0.4154 0.1191
C1_2 C 0.2964(6) 0.3930(7) 0.0079(11)
H6_2 H 0.3041 0.4356 0.0130
H8_2 H 0.3270 0.3700 0.0217
C2_2 C 0.2648(5) 0.3768(6) 0.0683(9)
C3_2 C 0.2193(5) 0.3261(6) 0.1351(9)
C4_2 C 0.1911(6) 0.2734(6) 0.1608(10)
H9_2 H 0.1643 0.2882 0.1850
H10_2 H 0.2136 0.2492 0.2031
H11_2 H 0.1775 0.2491 0.1106
C5_2 C 0.1190(5) 0.4517(5) 0.3628(9)
C6_2 C 0.1062(6) 0.3885(6) 0.3820(11)
H12_2 H 0.1198 0.3798 0.4422
H13_2 H 0.1201 0.3608 0.3470
H14_2 H 0.0703 0.3839 0.3693
C7_2 C 0.2421(8) 0.3561(7) 0.3874(12)
C8_2 C 0.2454(7) 0.2999(7) 0.4451(11)
C9_2 C 0.2833(7) 0.2938(7) 0.5135(14)
H15_2 H 0.3075 0.3243 0.5246
C10_2 C 0.2108(6) 0.2566(8) 0.4288(11)
H16_2 H 0.1836 0.2591 0.3814
O10_2 O 0.2809(5) 0.5000 0.3100(8)
H21_2 H 0.3112 0.5000 0.3409
H22_2 H 0.2601 0.5000 0.3435
N6_2 N 0.1523(4) 0.5315(4) 0.3177(6)
C19_2 C 0.1190(5) 0.5483(5) 0.3628(9)
C20_2 C 0.1062(6) 0.6115(6) 0.3820(11)
H23_2 H 0.1198 0.6202 0.4422
H24_2 H 0.1201 0.6392 0.3470
H25_2 H 0.0703 0.6161 0.3693
O11_2 O 0.2976(4) 0.1441(4) 0.6732(7)
O12_2 O 0.2257(5) 0.1052(5) 0.5996(9)
C21_2 C 0.2579(8) 0.1439(7) 0.6126(12)
C22_2 C 0.2546(7) 0.2001(7) 0.5549(11)
C23_2 C 0.2167(7) 0.2062(7) 0.4865(14)
H26_2 H 0.1925 0.1757 0.4754
C24_2 C 0.2892(6) 0.2434(8) 0.5712(11)
H27_2 H 0.3164 0.2409 0.6186
Cu5_2 Cu 0.18935(6) 0.57586(6) 0.24714(10)
N7_2 N 0.2520(4) 0.5861(4) 0.1249(7)
N8_2 N 0.2226(4) 0.6181(4) 0.1671(6)
N9_2 N 0.2447(4) 0.6781(4) 0.0710(7)
O17_2 O 0.1074(5) 0.6045(7) 0.1581(10)
H32_2 H 0.1096 0.6433 0.1369
H33_2 H 0.0852 0.5846 0.1191
C33_2 C 0.2964(6) 0.6070(7) 0.0079(11)
H34_2 H 0.3041 0.5644 0.0130
H36_2 H 0.3270 0.6300 0.0217
C34_2 C 0.2648(5) 0.6232(6) 0.0683(9)
C35_2 C 0.2193(5) 0.6739(6) 0.1351(9)
C36_2 C 0.1911(6) 0.7266(6) 0.1608(10)
H37_2 H 0.1643 0.7118 0.1850
H38_2 H 0.2136 0.7508 0.2031
H39_2 H 0.1775 0.7509 0.1106
Cu6_2 Cu 0.31065(6) 0.07586(6) 0.75286(10)
Cu10_3 Cu 0.2500 0.7500 0.0000
O18_2 O 0.2024(4) 0.6441(4) 0.3268(7)
O19_2 O 0.0668(4) 0.5616(4) 0.5445(6)
O22_2 O 0.2846(4) 0.2050(4) 0.1043(6)
O24_2 O 0.3481(5) 0.2436(5) 0.0634(8)
H7_2 H 0.2786 0.3842 0.9496
H35_2 H 0.2786 0.6158 0.9496
Cu10_4 Cu 0.2500 0.7500 1.0000
N10_2 N 0.2553(4) 0.1781(4) 0.9290(7)
O20_2 O 0.9967(4) 0.5612(4) 0.3858(6)
H35_3 H 0.2214 0.1158 0.0504
Cu1_3 Cu 0.23927(10) 0.0000 0.84891(18)
Cu3_2 Cu 0.46182(8) -0.0000 0.54203(13)
N5_3 N 0.4029(5) -0.0000 0.6062(10)
O1_3 O 0.3063(4) 0.0000 0.8183(7)
H1_3 H 0.3333 0.0000 0.8630
O8_3 O 0.1684(5) 0.0000 0.8469(11)
H2_3 H 0.1367 0.0000 0.8171
H3_3 H 0.1704 0.0000 0.9022
O10_3 O 0.2191(5) -0.0000 0.6900(8)
H21_3 H 0.1888 -0.0000 0.6591
H22_3 H 0.2399 -0.0000 0.6565
N6_3 N 0.3477(4) 0.0315(4) 0.6823(6)
C19_3 C 0.3810(5) 0.0483(5) 0.6372(9)
C20_3 C 0.3938(6) 0.1115(6) 0.6180(11)
H23_3 H 0.3802 0.1202 0.5578
H24_3 H 0.3799 0.1392 0.6530
H25_3 H 0.4297 0.1161 0.6307
N7_3 N 0.2480(4) 0.0861(4) 0.8751(7)
N8_3 N 0.2774(4) 0.1181(4) 0.8329(6)
O17_3 O 0.3926(5) 0.1045(7) 0.8419(10)
H32_3 H 0.3904 0.1433 0.8631
H33_3 H 0.4148 0.0846 0.8809
C33_3 C 0.2036(6) 0.1070(7) 0.9921(11)
H34_3 H 0.1959 0.0644 0.9870
H36_3 H 0.1730 0.1300 0.9783
C34_3 C 0.2352(5) 0.1232(6) 0.9317(9)
C35_3 C 0.2807(5) 0.1739(6) 0.8649(9)
C36_3 C 0.3089(6) 0.2266(6) 0.8392(10)
H37_3 H 0.3357 0.2118 0.8150
H38_3 H 0.2864 0.2508 0.7969
H39_3 H 0.3225 0.2509 0.8894
Cu7_2 Cu 0.53818(8) 0.0000 0.45797(13)
O19_3 O 0.4332(4) 0.0616(4) 0.4555(6)
O20_3 O 0.5033(4) 0.0612(4) 0.6142(6)
H7_3 H 0.2214 0.8842 0.0504
O21_2 O 0.2846(4) 0.7950(4) 0.1043(6)
O23_2 O 0.3481(5) 0.7564(5) 0.0634(8)
Cu1_4 Cu 0.23927(10) 1.0000 0.84891(18)
Cu2_3 Cu 0.31065(6) 0.92414(6) 0.75286(10)
Cu3_3 Cu 0.46182(8) 1.0000 0.54203(13)
N1_3 N 0.2480(4) 0.9139(4) 0.8751(7)
N2_3 N 0.2774(4) 0.8819(4) 0.8329(6)
N3_3 N 0.2553(4) 0.8219(4) 0.9290(7)
N4_3 N 0.3477(4) 0.9685(4) 0.6823(6)
N5_4 N 0.4029(5) 1.0000 0.6062(10)
O1_4 O 0.3063(4) 1.0000 0.8183(7)
H1_4 H 0.3333 1.0000 0.8630
O2_3 O 0.2976(4) 0.8559(4) 0.6732(7)
O3_3 O 0.2257(5) 0.8948(5) 0.5996(9)
O4_2 O 0.4332(4) 0.9384(4) 0.4555(6)
O5_2 O 0.4967(4) 0.9388(4) 0.3858(6)
O8_4 O 0.1684(5) 1.0000 0.8469(11)
H2_4 H 0.1367 1.0000 0.8171
H3_4 H 0.1704 1.0000 0.9022
O9_3 O 0.3926(5) 0.8955(7) 0.8419(10)
H4_3 H 0.3904 0.8567 0.8631
H5_3 H 0.4148 0.9154 0.8809
C1_3 C 0.2036(6) 0.8930(7) 0.9921(11)
H6_3 H 0.1959 0.9356 0.9870
H8_3 H 0.1730 0.8700 0.9783
C2_3 C 0.2352(5) 0.8768(6) 0.9317(9)
C3_3 C 0.2807(5) 0.8261(6) 0.8649(9)
C4_3 C 0.3089(6) 0.7734(6) 0.8392(10)
H9_3 H 0.3357 0.7882 0.8150
H10_3 H 0.2864 0.7492 0.7969
H11_3 H 0.3225 0.7491 0.8894
C5_3 C 0.3810(5) 0.9517(5) 0.6372(9)
C6_3 C 0.3938(6) 0.8885(6) 0.6180(11)
H12_3 H 0.3802 0.8798 0.5578
H13_3 H 0.3799 0.8608 0.6530
H14_3 H 0.4297 0.8839 0.6307
C7_3 C 0.2579(8) 0.8561(7) 0.6126(12)
C8_3 C 0.2546(7) 0.7999(7) 0.5549(11)
C9_3 C 0.2167(7) 0.7938(7) 0.4865(14)
H15_3 H 0.1925 0.8243 0.4754
C10_3 C 0.2892(6) 0.7566(8) 0.5712(11)
H16_3 H 0.3164 0.7591 0.6186
C11_2 C 0.3310(7) 0.7869(8) 0.1126(11)
C12_2 C 0.3616(6) 0.8182(7) 0.1913(11)
C13_2 C 0.3425(6) 0.8406(8) 0.2555(13)
H17_2 H 0.3085 0.8349 0.2535
C14_2 C 0.4135(7) 0.8232(7) 0.1957(11)
H18_2 H 0.4284 0.8051 0.1548
C15_2 C 0.4530(7) 0.9226(6) 0.3969(10)
C16_2 C 0.4212(6) 0.8829(6) 0.3280(9)
C17_2 C 0.3732(6) 0.8734(8) 0.3280(11)
H19_2 H 0.3596 0.8874 0.3732
C18_2 C 0.4417(6) 0.8575(8) 0.2661(12)
H20_2 H 0.4760 0.8628 0.2699
O10_4 O 0.2191(5) 1.0000 0.6900(8)
H21_4 H 0.1888 1.0000 0.6591
H22_4 H 0.2399 1.0000 0.6565
O12_3 O 0.2743(5) 0.6052(5) 0.4004(9)
C21_3 C 0.2421(8) 0.6439(7) 0.3874(12)
C22_3 C 0.2454(7) 0.7001(7) 0.4451(11)
C23_3 C 0.2833(7) 0.7062(7) 0.5135(14)
H26_3 H 0.3075 0.6757 0.5246
C24_3 C 0.2108(6) 0.7434(8) 0.4288(11)
H27_3 H 0.1836 0.7409 0.3814
O13_2 O 0.5668(4) 0.9384(4) 0.5445(6)
O14_2 O 0.5033(4) 0.9388(4) 0.6142(6)
O15_2 O 0.7154(4) 0.7950(4) 0.8957(6)
O16_2 O 0.6519(5) 0.7564(5) 0.9366(8)
C25_2 C 0.6690(7) 0.7869(8) 0.8874(11)
C26_2 C 0.6384(6) 0.8182(7) 0.8087(11)
C27_2 C 0.6575(6) 0.8406(8) 0.7445(13)
H28_2 H 0.6915 0.8349 0.7465
C28_2 C 0.5865(7) 0.8232(7) 0.8043(11)
H29_2 H 0.5716 0.8051 0.8452
C29_2 C 0.5470(7) 0.9226(6) 0.6031(10)
C30_2 C 0.5788(6) 0.8829(6) 0.6720(9)
C31_2 C 0.6268(6) 0.8734(8) 0.6720(11)
H30_2 H 0.6404 0.8874 0.6268
C32_2 C 0.5583(6) 0.8575(8) 0.7339(12)
H31_2 H 0.5240 0.8628 0.7301
Cu7_3 Cu 0.53818(8) 1.0000 0.45797(13)
O22_3 O 0.2154(4) 0.7050(4) 0.8957(6)
O24_3 O 0.1519(5) 0.7436(5) 0.9366(8)
Cu1_5 Cu 0.76073(10) 0.0000 0.15109(18)
N5_5 N 0.5971(5) -0.0000 0.3938(10)
O1_5 O 0.6937(4) 0.0000 0.1817(7)
H1_5 H 0.6667 0.0000 0.1370
O8_5 O 0.8316(5) 0.0000 0.1531(11)
H2_5 H 0.8633 0.0000 0.1829
H3_5 H 0.8296 0.0000 0.0978
O10_5 O 0.7809(5) -0.0000 0.3100(8)
H21_5 H 0.8112 -0.0000 0.3409
H22_5 H 0.7601 -0.0000 0.3435
N6_4 N 0.6523(4) 0.0315(4) 0.3177(6)
C19_4 C 0.6190(5) 0.0483(5) 0.3628(9)
C20_4 C 0.6062(6) 0.1115(6) 0.3820(11)
H23_4 H 0.6198 0.1202 0.4422
H24_4 H 0.6201 0.1392 0.3470
H25_4 H 0.5703 0.1161 0.3693
N7_4 N 0.7520(4) 0.0861(4) 0.1249(7)
N8_4 N 0.7226(4) 0.1181(4) 0.1671(6)
O17_4 O 0.6074(5) 0.1045(7) 0.1581(10)
H32_4 H 0.6096 0.1433 0.1369
H33_4 H 0.5852 0.0846 0.1191
C33_4 C 0.7964(6) 0.1070(7) 0.0079(11)
H34_4 H 0.8041 0.0644 0.0130
H36_4 H 0.8270 0.1300 0.0217
C34_4 C 0.7648(5) 0.1232(6) 0.0683(9)
C35_4 C 0.7193(5) 0.1739(6) 0.1351(9)
C36_4 C 0.6911(6) 0.2266(6) 0.1608(10)
H37_4 H 0.6643 0.2118 0.1850
H38_4 H 0.7136 0.2508 0.2031
H39_4 H 0.6775 0.2509 0.1106
O19_4 O 0.5668(4) 0.0616(4) 0.5445(6)
O20_4 O 0.4967(4) 0.0612(4) 0.3858(6)
H35_4 H 0.7786 0.1158 0.9496
Cu1_6 Cu 0.76073(10) 1.0000 0.15109(18)
Cu2_4 Cu 0.68935(6) 0.92414(6) 0.24714(10)
N1_4 N 0.7520(4) 0.9139(4) 0.1249(7)
N2_4 N 0.7226(4) 0.8819(4) 0.1671(6)
N3_4 N 0.7447(4) 0.8219(4) 0.0710(7)
N4_4 N 0.6523(4) 0.9685(4) 0.3177(6)
N5_6 N 0.5971(5) 1.0000 0.3938(10)
O1_6 O 0.6937(4) 1.0000 0.1817(7)
H1_6 H 0.6667 1.0000 0.1370
O2_4 O 0.7024(4) 0.8559(4) 0.3268(7)
O3_4 O 0.7743(5) 0.8948(5) 0.4004(9)
O8_6 O 0.8316(5) 1.0000 0.1531(11)
H2_6 H 0.8633 1.0000 0.1829
H3_6 H 0.8296 1.0000 0.0978
O9_4 O 0.6074(5) 0.8955(7) 0.1581(10)
H4_4 H 0.6096 0.8567 0.1369
H5_4 H 0.5852 0.9154 0.1191
C1_4 C 0.7964(6) 0.8930(7) 0.0079(11)
H6_4 H 0.8041 0.9356 0.0130
H8_4 H 0.8270 0.8700 0.0217
C2_4 C 0.7648(5) 0.8768(6) 0.0683(9)
C3_4 C 0.7193(5) 0.8261(6) 0.1351(9)
C4_4 C 0.6911(6) 0.7734(6) 0.1608(10)
H9_4 H 0.6643 0.7882 0.1850
H10_4 H 0.7136 0.7492 0.2031
H11_4 H 0.6775 0.7491 0.1106
C5_4 C 0.6190(5) 0.9517(5) 0.3628(9)
C6_4 C 0.6062(6) 0.8885(6) 0.3820(11)
H12_4 H 0.6198 0.8798 0.4422
H13_4 H 0.6201 0.8608 0.3470
H14_4 H 0.5703 0.8839 0.3693
C7_4 C 0.7421(8) 0.8561(7) 0.3874(12)
C8_4 C 0.7454(7) 0.7999(7) 0.4451(11)
C9_4 C 0.7833(7) 0.7938(7) 0.5135(14)
H15_4 H 0.8075 0.8243 0.5246
C10_4 C 0.7108(6) 0.7566(8) 0.4288(11)
H16_4 H 0.6836 0.7591 0.3814
O10_6 O 0.7809(5) 1.0000 0.3100(8)
H21_6 H 0.8112 1.0000 0.3409
H22_6 H 0.7601 1.0000 0.3435
O12_4 O 0.7257(5) 0.6052(5) 0.5996(9)
C21_4 C 0.7579(8) 0.6439(7) 0.6126(12)
C22_4 C 0.7546(7) 0.7001(7) 0.5549(11)
C23_4 C 0.7167(7) 0.7062(7) 0.4865(14)
H26_4 H 0.6925 0.6757 0.4754
C24_4 C 0.7892(6) 0.7434(8) 0.5712(11)
H27_4 H 0.8164 0.7409 0.6186
O22_4 O 0.7846(4) 0.7050(4) 0.1043(6)
O24_4 O 0.8481(5) 0.7436(5) 0.0634(8)
H7_4 H 0.7786 0.8842 0.9496
C11_3 C 0.1690(7) 0.7131(8) 0.8874(11)
C12_3 C 0.1384(6) 0.6818(7) 0.8087(11)
C13_3 C 0.1575(6) 0.6594(8) 0.7445(13)
H17_3 H 0.1915 0.6651 0.7465
C14_3 C 0.0865(7) 0.6768(7) 0.8043(11)
H18_3 H 0.0716 0.6949 0.8452
C15_3 C 0.0470(7) 0.5774(6) 0.6031(10)
C16_3 C 0.0788(6) 0.6171(6) 0.6720(9)
C17_3 C 0.1268(6) 0.6266(8) 0.6720(11)
H19_3 H 0.1404 0.6126 0.6268
C18_3 C 0.0583(6) 0.6425(8) 0.7339(12)
H20_3 H 0.0240 0.6372 0.7301
C25_3 C 0.8310(7) 0.7131(8) 0.1126(11)
C26_3 C 0.8616(6) 0.6818(7) 0.1913(11)
C27_3 C 0.8425(6) 0.6594(8) 0.2555(13)
H28_3 H 0.8085 0.6651 0.2535
C28_3 C 0.9135(7) 0.6768(7) 0.1957(11)
H29_3 H 0.9284 0.6949 0.1548
C29_3 C 0.9530(7) 0.5774(6) 0.3969(10)
C30_3 C 0.9212(6) 0.6171(6) 0.3280(9)
C31_3 C 0.8732(6) 0.6266(8) 0.3280(11)
H30_3 H 0.8596 0.6126 0.3732
C32_3 C 0.9417(6) 0.6425(8) 0.2661(12)
H31_3 H 0.9760 0.6372 0.2699
C11_4 C 0.6690(7) 0.2131(8) 0.8874(11)
C12_4 C 0.6384(6) 0.1818(7) 0.8087(11)
C13_4 C 0.6575(6) 0.1594(8) 0.7445(13)
H17_4 H 0.6915 0.1651 0.7465
C14_4 C 0.5865(7) 0.1768(7) 0.8043(11)
H18_4 H 0.5716 0.1949 0.8452
C15_4 C 0.5470(7) 0.0774(6) 0.6031(10)
C16_4 C 0.5788(6) 0.1171(6) 0.6720(9)
C17_4 C 0.6268(6) 0.1266(8) 0.6720(11)
H19_4 H 0.6404 0.1126 0.6268
C18_4 C 0.5583(6) 0.1425(8) 0.7339(12)
H20_4 H 0.5240 0.1372 0.7301
C25_4 C 0.3310(7) 0.2131(8) 0.1126(11)
C26_4 C 0.3616(6) 0.1818(7) 0.1913(11)
C27_4 C 0.3425(6) 0.1594(8) 0.2555(13)
H28_4 H 0.3085 0.1651 0.2535
C28_4 C 0.4135(7) 0.1768(7) 0.1957(11)
H29_4 H 0.4284 0.1949 0.1548
C29_4 C 0.4530(7) 0.0774(6) 0.3969(10)
C30_4 C 0.4212(6) 0.1171(6) 0.3280(9)
C31_4 C 0.3732(6) 0.1266(8) 0.3280(11)
H30_4 H 0.3596 0.1126 0.3732
C32_4 C 0.4417(6) 0.1425(8) 0.2661(12)
H31_4 H 0.4760 0.1372 0.2699
loop_
_geom_bond_atom_site_label_1
_geom_bond_atom_site_label_2
_geom_bond_site_symmetry_1
_geom_bond_site_symmetry_2
O13 C29 1_555 1_555
O15 C25 1_555 1_555
O16 C25 1_555 1_555
C25 C26 1_555 1_555
C26 C27 1_555 1_555
C27 H28 1_555 1_555
C28 C26 1_555 1_555
H29 C28 1_555 1_555
C29 O14 1_555 1_555
C30 C29 1_555 1_555
C31 C27 1_555 1_555
H30 C31 1_555 1_555
C32 C28 1_555 1_555
H31 C32 1_555 1_555
Cu9_2 O15 1_555 1_555
O13 Cu7 1_555 1_555
O16 Cu9_2 1_555 1_555
C30 C31 1_555 1_555
C30 C32 1_555 1_555
N10 Cu4 1_555 1_555
O21 Cu4 1_555 1_555
O23 Cu4 1_555 1_555
Cu1 N1 1_555 1_555
Cu2 N2 1_555 1_555
Cu3 N5 1_555 1_555
Cu4_2 N3 1_555 1_555
N1 N2 1_555 1_555
N2 C3 1_555 1_555
N3 C2 1_555 1_555
N4 Cu2 1_555 1_555
N5 C5 1_555 1_555
O1 Cu1 1_555 1_555
H1 O1 1_555 1_555
O2 Cu2 1_555 1_555
O3 C7 1_555 1_555
O4 Cu3 1_555 1_555
O5 C15 1_555 1_555
O21 C11 1_555 1_555
O23 C11 1_555 1_555
O8 Cu1 1_555 1_555
H2 O8 1_555 1_555
H3 O8 1_555 1_555
O9 Cu2 1_555 1_555
H4 O9 1_555 1_555
H5 O9 1_555 1_555
C1 H6 1_555 1_555
H8 C1 1_555 1_555
C2 N1 1_555 1_555
C3 N3 1_555 1_555
C4 C3 1_555 1_555
H9 C4 1_555 1_555
H10 C4 1_555 1_555
H11 C4 1_555 1_555
C5 N4 1_555 1_555
C6 C5 1_555 1_555
H12 C6 1_555 1_555
H13 C6 1_555 1_555
H14 C6 1_555 1_555
C7 O2 1_555 1_555
C8 C7 1_555 1_555
C9 C8 1_555 1_555
H15 C9 1_555 1_555
C10 C8 1_555 1_555
H16 C10 1_555 1_555
C11 C12 1_555 1_555
C12 C13 1_555 1_555
C13 H17 1_555 1_555
C14 C12 1_555 1_555
H18 C14 1_555 1_555
C15 O4 1_555 1_555
C16 C15 1_555 1_555
C17 C13 1_555 1_555
H19 C17 1_555 1_555
C18 C14 1_555 1_555
H20 C18 1_555 1_555
O10 Cu1 1_555 1_555
H21 O10 1_555 1_555
H22 O10 1_555 1_555
N6 N4 1_555 1_555
C19 N5 1_555 1_555
C20 C19 1_555 1_555
H23 C20 1_555 1_555
H24 C20 1_555 1_555
H25 C20 1_555 1_555
O11 C21 1_555 1_555
O12 C21 1_555 1_555
C21 C22 1_555 1_555
C22 C23 1_555 1_555
C23 C10 1_555 1_555
H26 C23 1_555 1_555
C24 C9 1_555 1_555
H27 C24 1_555 1_555
Cu5 O1 1_555 1_555
N7 Cu1 1_555 1_555
N8 Cu5 1_555 1_555
N9 C34 1_555 1_555
O17 Cu5 1_555 1_555
H32 O17 1_555 1_555
H33 O17 1_555 1_555
C33 H34 1_555 1_555
H36 C33 1_555 1_555
C34 N7 1_555 1_555
C35 N8 1_555 1_555
C36 C35 1_555 1_555
H37 C36 1_555 1_555
H38 C36 1_555 1_555
H39 C36 1_555 1_555
Cu6 O11 1_555 1_555
Cu10_2 N9 1_555 1_555
O18 Cu5 1_555 1_555
O19 Cu3 1_555 1_555
O22 Cu4_2 1_555 1_555
O24 Cu4_2 1_555 1_555
Cu2 O1 1_555 1_555
C1 C2 1_555 1_555
C16 C17 1_555 1_555
C16 C18 1_555 1_555
N6 C19 1_555 1_555
N6 Cu5 1_555 1_555
C22 C24 1_555 1_555
N7 N8 1_555 1_555
N9 C35 1_555 1_555
C33 C34 1_555 1_555
Cu1_2 N1_2 1_555 1_555
Cu2_2 N2_2 1_555 1_555
Cu7 N5_2 1_555 1_555
Cu9 N3_2 1_555 1_555
N1_2 N2_2 1_555 1_555
N2_2 C3_2 1_555 1_555
N3_2 C2_2 1_555 1_555
N4_2 Cu2_2 1_555 1_555
N5_2 C5_2 1_555 1_555
O1_2 Cu1_2 1_555 1_555
H1_2 O1_2 1_555 1_555
O2_2 Cu2_2 1_555 1_555
O3_2 C7_2 1_555 1_555
O8_2 Cu1_2 1_555 1_555
H2_2 O8_2 1_555 1_555
H3_2 O8_2 1_555 1_555
O9_2 Cu2_2 1_555 1_555
H4_2 O9_2 1_555 1_555
H5_2 O9_2 1_555 1_555
C1_2 H6_2 1_555 1_555
H8_2 C1_2 1_555 1_555
C2_2 N1_2 1_555 1_555
C3_2 N3_2 1_555 1_555
C4_2 C3_2 1_555 1_555
H9_2 C4_2 1_555 1_555
H10_2 C4_2 1_555 1_555
H11_2 C4_2 1_555 1_555
C5_2 N4_2 1_555 1_555
C6_2 C5_2 1_555 1_555
H12_2 C6_2 1_555 1_555
H13_2 C6_2 1_555 1_555
H14_2 C6_2 1_555 1_555
C7_2 O2_2 1_555 1_555
C8_2 C7_2 1_555 1_555
C9_2 C8_2 1_555 1_555
H15_2 C9_2 1_555 1_555
C10_2 C8_2 1_555 1_555
H16_2 C10_2 1_555 1_555
O10_2 Cu1_2 1_555 1_555
H21_2 O10_2 1_555 1_555
H22_2 O10_2 1_555 1_555
N6_2 N4_2 1_555 1_555
C19_2 N5_2 1_555 1_555
C20_2 C19_2 1_555 1_555
H23_2 C20_2 1_555 1_555
H24_2 C20_2 1_555 1_555
H25_2 C20_2 1_555 1_555
O11_2 C21_2 1_555 1_555
O12_2 C21_2 1_555 1_555
C21_2 C22_2 1_555 1_555
C22_2 C23_2 1_555 1_555
C23_2 C10_2 1_555 1_555
H26_2 C23_2 1_555 1_555
C24_2 C9_2 1_555 1_555
H27_2 C24_2 1_555 1_555
Cu5_2 O1_2 1_555 1_555
N7_2 Cu1_2 1_555 1_555
N8_2 Cu5_2 1_555 1_555
N9_2 C34_2 1_555 1_555
O17_2 Cu5_2 1_555 1_555
H32_2 O17_2 1_555 1_555
H33_2 O17_2 1_555 1_555
C33_2 H34_2 1_555 1_555
H36_2 C33_2 1_555 1_555
C34_2 N7_2 1_555 1_555
C35_2 N8_2 1_555 1_555
C36_2 C35_2 1_555 1_555
H37_2 C36_2 1_555 1_555
H38_2 C36_2 1_555 1_555
H39_2 C36_2 1_555 1_555
Cu6_2 O11_2 1_555 1_555
Cu10_3 N9_2 1_555 1_555
O18_2 Cu5_2 1_555 1_555
O19_2 Cu7 1_555 1_555
O22_2 Cu9 1_555 1_555
O24_2 Cu9 1_555 1_555
Cu2_2 O1_2 1_555 1_555
C1_2 C2_2 1_555 1_555
N6_2 C19_2 1_555 1_555
N6_2 Cu5_2 1_555 1_555
C22_2 C24_2 1_555 1_555
N7_2 N8_2 1_555 1_555
N9_2 C35_2 1_555 1_555
C33_2 C34_2 1_555 1_555
N10_2 Cu9_2 1_555 1_555
Cu3_2 N5_3 1_555 1_555
O1_3 Cu1_3 1_555 1_555
H1_3 O1_3 1_555 1_555
O8_3 Cu1_3 1_555 1_555
H2_3 O8_3 1_555 1_555
H3_3 O8_3 1_555 1_555
O10_3 Cu1_3 1_555 1_555
H21_3 O10_3 1_555 1_555
H22_3 O10_3 1_555 1_555
C19_3 N5_3 1_555 1_555
C20_3 C19_3 1_555 1_555
H23_3 C20_3 1_555 1_555
H24_3 C20_3 1_555 1_555
H25_3 C20_3 1_555 1_555
Cu6_2 O1_3 1_555 1_555
N7_3 Cu1_3 1_555 1_555
N8_3 Cu6_2 1_555 1_555
N10_2 C34_3 1_555 1_555
O17_3 Cu6_2 1_555 1_555
H32_3 O17_3 1_555 1_555
H33_3 O17_3 1_555 1_555
C33_3 H34_3 1_555 1_555
H36_3 C33_3 1_555 1_555
C34_3 N7_3 1_555 1_555
C35_3 N8_3 1_555 1_555
C36_3 C35_3 1_555 1_555
H37_3 C36_3 1_555 1_555
H38_3 C36_3 1_555 1_555
H39_3 C36_3 1_555 1_555
Cu7_2 Cu3_2 1_555 1_555
O19_3 Cu3_2 1_555 1_555
O20_3 Cu3_2 1_555 1_555
N6_3 C19_3 1_555 1_555
N6_3 Cu6_2 1_555 1_555
N7_3 N8_3 1_555 1_555
N10_2 C35_3 1_555 1_555
C33_3 C34_3 1_555 1_555
O21_2 Cu10_3 1_555 1_555
O23_2 Cu10_3 1_555 1_555
Cu1_4 N1_3 1_555 1_555
Cu2_3 N2_3 1_555 1_555
Cu3_3 N5_4 1_555 1_555
Cu10_4 N3_3 1_555 1_555
N1_3 N2_3 1_555 1_555
N2_3 C3_3 1_555 1_555
N3_3 C2_3 1_555 1_555
N4_3 Cu2_3 1_555 1_555
N5_4 C5_3 1_555 1_555
O1_4 Cu1_4 1_555 1_555
H1_4 O1_4 1_555 1_555
O2_3 Cu2_3 1_555 1_555
O3_3 C7_3 1_555 1_555
O4_2 Cu3_3 1_555 1_555
O5_2 C15_2 1_555 1_555
O21_2 C11_2 1_555 1_555
O23_2 C11_2 1_555 1_555
O8_4 Cu1_4 1_555 1_555
H2_4 O8_4 1_555 1_555
H3_4 O8_4 1_555 1_555
O9_3 Cu2_3 1_555 1_555
H4_3 O9_3 1_555 1_555
H5_3 O9_3 1_555 1_555
C1_3 H6_3 1_555 1_555
H8_3 C1_3 1_555 1_555
C2_3 N1_3 1_555 1_555
C3_3 N3_3 1_555 1_555
C4_3 C3_3 1_555 1_555
H9_3 C4_3 1_555 1_555
H10_3 C4_3 1_555 1_555
H11_3 C4_3 1_555 1_555
C5_3 N4_3 1_555 1_555
C6_3 C5_3 1_555 1_555
H12_3 C6_3 1_555 1_555
H13_3 C6_3 1_555 1_555
H14_3 C6_3 1_555 1_555
C7_3 O2_3 1_555 1_555
C8_3 C7_3 1_555 1_555
C9_3 C8_3 1_555 1_555
H15_3 C9_3 1_555 1_555
C10_3 C8_3 1_555 1_555
H16_3 C10_3 1_555 1_555
C11_2 C12_2 1_555 1_555
C12_2 C13_2 1_555 1_555
C13_2 H17_2 1_555 1_555
C14_2 C12_2 1_555 1_555
H18_2 C14_2 1_555 1_555
C15_2 O4_2 1_555 1_555
C16_2 C15_2 1_555 1_555
C17_2 C13_2 1_555 1_555
H19_2 C17_2 1_555 1_555
C18_2 C14_2 1_555 1_555
H20_2 C18_2 1_555 1_555
O10_4 Cu1_4 1_555 1_555
H21_4 O10_4 1_555 1_555
H22_4 O10_4 1_555 1_555
O18_2 C21_3 1_555 1_555
O12_3 C21_3 1_555 1_555
C21_3 C22_3 1_555 1_555
C22_3 C23_3 1_555 1_555
C23_3 C10_3 1_555 1_555
H26_3 C23_3 1_555 1_555
C24_3 C9_3 1_555 1_555
H27_3 C24_3 1_555 1_555
O13_2 C29_2 1_555 1_555
O14_2 Cu3_3 1_555 1_555
O15_2 C25_2 1_555 1_555
O16_2 C25_2 1_555 1_555
C25_2 C26_2 1_555 1_555
C26_2 C27_2 1_555 1_555
C27_2 H28_2 1_555 1_555
C28_2 C26_2 1_555 1_555
H29_2 C28_2 1_555 1_555
C29_2 O14_2 1_555 1_555
C30_2 C29_2 1_555 1_555
C31_2 C27_2 1_555 1_555
H30_2 C31_2 1_555 1_555
C32_2 C28_2 1_555 1_555
H31_2 C32_2 1_555 1_555
Cu7_3 Cu3_3 1_555 1_555
Cu10_2 O15_2 1_555 1_555
O22_3 Cu10_4 1_555 1_555
O24_3 Cu10_4 1_555 1_555
Cu2_3 O1_4 1_555 1_555
O5_2 Cu7_3 1_555 1_555
C1_3 C2_3 1_555 1_555
C16_2 C17_2 1_555 1_555
C16_2 C18_2 1_555 1_555
C22_3 C24_3 1_555 1_555
O13_2 Cu7_3 1_555 1_555
O16_2 Cu10_2 1_555 1_555
C30_2 C31_2 1_555 1_555
C30_2 C32_2 1_555 1_555
Cu7_2 N5_5 1_555 1_555
O1_5 Cu1_5 1_555 1_555
H1_5 O1_5 1_555 1_555
O8_5 Cu1_5 1_555 1_555
H2_5 O8_5 1_555 1_555
H3_5 O8_5 1_555 1_555
O10_5 Cu1_5 1_555 1_555
H21_5 O10_5 1_555 1_555
H22_5 O10_5 1_555 1_555
C19_4 N5_5 1_555 1_555
C20_4 C19_4 1_555 1_555
H23_4 C20_4 1_555 1_555
H24_4 C20_4 1_555 1_555
H25_4 C20_4 1_555 1_555
Cu6 O1_5 1_555 1_555
N7_4 Cu1_5 1_555 1_555
N8_4 Cu6 1_555 1_555
N10 C34_4 1_555 1_555
O17_4 Cu6 1_555 1_555
H32_4 O17_4 1_555 1_555
H33_4 O17_4 1_555 1_555
C33_4 H34_4 1_555 1_555
H36_4 C33_4 1_555 1_555
C34_4 N7_4 1_555 1_555
C35_4 N8_4 1_555 1_555
C36_4 C35_4 1_555 1_555
H37_4 C36_4 1_555 1_555
H38_4 C36_4 1_555 1_555
H39_4 C36_4 1_555 1_555
O19_4 Cu7_2 1_555 1_555
O20_4 Cu7_2 1_555 1_555
N6_4 C19_4 1_555 1_555
N6_4 Cu6 1_555 1_555
N7_4 N8_4 1_555 1_555
N10 C35_4 1_555 1_555
C33_4 C34_4 1_555 1_555
Cu1_6 N1_4 1_555 1_555
Cu2_4 N2_4 1_555 1_555
Cu7_3 N5_6 1_555 1_555
Cu10 N3_4 1_555 1_555
N1_4 N2_4 1_555 1_555
N2_4 C3_4 1_555 1_555
N3_4 C2_4 1_555 1_555
N4_4 Cu2_4 1_555 1_555
N5_6 C5_4 1_555 1_555
O1_6 Cu1_6 1_555 1_555
H1_6 O1_6 1_555 1_555
O2_4 Cu2_4 1_555 1_555
O3_4 C7_4 1_555 1_555
O8_6 Cu1_6 1_555 1_555
H2_6 O8_6 1_555 1_555
H3_6 O8_6 1_555 1_555
O9_4 Cu2_4 1_555 1_555
H4_4 O9_4 1_555 1_555
H5_4 O9_4 1_555 1_555
C1_4 H6_4 1_555 1_555
H8_4 C1_4 1_555 1_555
C2_4 N1_4 1_555 1_555
C3_4 N3_4 1_555 1_555
C4_4 C3_4 1_555 1_555
H9_4 C4_4 1_555 1_555
H10_4 C4_4 1_555 1_555
H11_4 C4_4 1_555 1_555
C5_4 N4_4 1_555 1_555
C6_4 C5_4 1_555 1_555
H12_4 C6_4 1_555 1_555
H13_4 C6_4 1_555 1_555
H14_4 C6_4 1_555 1_555
C7_4 O2_4 1_555 1_555
C8_4 C7_4 1_555 1_555
C9_4 C8_4 1_555 1_555
H15_4 C9_4 1_555 1_555
C10_4 C8_4 1_555 1_555
H16_4 C10_4 1_555 1_555
O10_6 Cu1_6 1_555 1_555
H21_6 O10_6 1_555 1_555
H22_6 O10_6 1_555 1_555
O18 C21_4 1_555 1_555
O12_4 C21_4 1_555 1_555
C21_4 C22_4 1_555 1_555
C22_4 C23_4 1_555 1_555
C23_4 C10_4 1_555 1_555
H26_4 C23_4 1_555 1_555
C24_4 C9_4 1_555 1_555
H27_4 C24_4 1_555 1_555
O22_4 Cu10 1_555 1_555
O24_4 Cu10 1_555 1_555
Cu2_4 O1_6 1_555 1_555
C1_4 C2_4 1_555 1_555
C22_4 C24_4 1_555 1_555
O20 C15_3 1_555 1_555
O22_3 C11_3 1_555 1_555
O24_3 C11_3 1_555 1_555
C11_3 C12_3 1_555 1_555
C12_3 C13_3 1_555 1_555
C13_3 H17_3 1_555 1_555
C14_3 C12_3 1_555 1_555
H18_3 C14_3 1_555 1_555
C15_3 O19_2 1_555 1_555
C16_3 C15_3 1_555 1_555
C17_3 C13_3 1_555 1_555
H19_3 C17_3 1_555 1_555
C18_3 C14_3 1_555 1_555
H20_3 C18_3 1_555 1_555
C16_3 C17_3 1_555 1_555
C16_3 C18_3 1_555 1_555
O19 C29_3 1_555 1_555
O22_4 C25_3 1_555 1_555
O24_4 C25_3 1_555 1_555
C25_3 C26_3 1_555 1_555
C26_3 C27_3 1_555 1_555
C27_3 H28_3 1_555 1_555
C28_3 C26_3 1_555 1_555
H29_3 C28_3 1_555 1_555
C29_3 O20_2 1_555 1_555
C30_3 C29_3 1_555 1_555
C31_3 C27_3 1_555 1_555
H30_3 C31_3 1_555 1_555
C32_3 C28_3 1_555 1_555
H31_3 C32_3 1_555 1_555
C30_3 C31_3 1_555 1_555
C30_3 C32_3 1_555 1_555
O20_3 C15_4 1_555 1_555
O22 C11_4 1_555 1_555
O24 C11_4 1_555 1_555
C11_4 C12_4 1_555 1_555
C12_4 C13_4 1_555 1_555
C13_4 H17_4 1_555 1_555
C14_4 C12_4 1_555 1_555
H18_4 C14_4 1_555 1_555
C15_4 O19_4 1_555 1_555
C16_4 C15_4 1_555 1_555
C17_4 C13_4 1_555 1_555
H19_4 C17_4 1_555 1_555
C18_4 C14_4 1_555 1_555
H20_4 C18_4 1_555 1_555
O19_3 C29_4 1_555 1_555
O22_2 C25_4 1_555 1_555
O24_2 C25_4 1_555 1_555
C25_4 C26_4 1_555 1_555
C26_4 C27_4 1_555 1_555
C27_4 H28_4 1_555 1_555
C28_4 C26_4 1_555 1_555
H29_4 C28_4 1_555 1_555
C29_4 O20_4 1_555 1_555
C30_4 C29_4 1_555 1_555
C31_4 C27_4 1_555 1_555
H30_4 C31_4 1_555 1_555
C32_4 C28_4 1_555 1_555
H31_4 C32_4 1_555 1_555
C16_4 C17_4 1_555 1_555
C16_4 C18_4 1_555 1_555
C30_4 C31_4 1_555 1_555
C30_4 C32_4 1_555 1_555

#END
