
###############################################################################
#
# This file contains modified crystal structure data generated from the
# MOF subset of the Cambridge Structural Database (CSD) v543 
# hosted by the Cambridge Crystallographic Data Centre (CCDC).
#
# This work is licensed under the Creative Commons
# Attribution-NonCommercial-ShareAlike 4.0 International License.
# To view a copy of this license, visit
# http://creativecommons.org/licenses/by-nc-sa/4.0/
# or send a letter to
# Creative Commons, PO Box 1866, Mountain View, CA 94042, USA.
#
# CIF created using the CSD Python API on 29 September 2022
# The structure has been converted into the P1 space group
# The structure has a 3D framework
# The original CSD entry RUGKEL is in the monoclinic crystal system
# The framework has been calculated to contain at least 10.0% void space
# The void calculation uses a probe of radius 1.32A, grid spacing 0.4
# The framework is charged, counterions have been retained in the structure
#
###############################################################################

data_RUGKEL
_chemical_formula_moiety         '(C144 H80 Cr18 Mn18 N16 O182 1-)n'
_symmetry_cell_setting           triclinic
_symmetry_space_group_name_H-M   'P 1'
_symmetry_Int_Tables_number      1
_space_group_name_Hall           'P 1'
loop_
_symmetry_equiv_pos_site_id
_symmetry_equiv_pos_as_xyz
1 x,y,z
_cell_length_a                   24.8834(5)
_cell_length_b                   22.8378(5)
_cell_length_c                   24.3802(6)
_cell_angle_alpha                90
_cell_angle_beta                 105.497(7)
_cell_angle_gamma                90
_cell_volume                     13351.1
loop_
_atom_site_label
_atom_site_type_symbol
_atom_site_fract_x
_atom_site_fract_y
_atom_site_fract_z
Mn1 Mn 0.000 0.06284(7) 0.250
O5 O 0.0401(2) 0.1342(2) 0.2148(2)
O13 O 0.0158(2) 0.2001(2) 0.1448(2)
O23 O 0.0105(2) 0.1801(2) 0.0301(2)
C3 C 0.0090(3) 0.1534(3) 0.1702(3)
C8 C 0.0196(4) 0.2833(4) 0.0221(3)
C12 C 0.0332(4) 0.2202(4) 0.0078(3)
Cr6 Cr 0.04086(6) 0.21194(6) 0.42842(5)
O64 O 0.1772(3) 0.2971(3) 0.4246(2)
O65 O 0.0682(2) 0.1346(2) 0.40972(19)
O66 O 0.0562(2) 0.0748(2) 0.3352(2)
O69 O 0.0999(2) 0.2201(2) 0.5003(2)
O74 O 0.0098(3) 0.2879(2) 0.4432(2)
O77 O 0.1827(2) 0.2629(2) 0.5325(2)
O79 O 0.0947(2) 0.2520(3) 0.3951(2)
C32 C 0.0433(3) 0.1174(3) 0.3606(3)
C36 C 0.1414(4) 0.2486(4) 0.4946(3)
C43 C 0.1389(4) 0.2685(4) 0.4326(3)
Mn12 Mn 0.24232(5) 0.31544(6) 0.50284(4)
O34 O 0.0371(3) 0.3251(2) 0.9989(2)
O37 O 0.0650(3) 0.2127(3) 0.9773(2)
Mn10 Mn 0.08392(6) 0.29722(6) 0.94035(5)
Mn2 Mn 0.08392(6) 0.70278(6) 0.44035(5)
Mn3 Mn 0.500 0.05789(9) 0.750
Mn5 Mn 0.42994(7) 0.70298(9) 0.55409(7)
Cr3 Cr 0.44026(6) 0.20554(7) 0.57064(7)
Cr4 Cr 0.25627(5) 0.55188(6) 0.50019(4)
Cr5 Cr 0.000 0.82701(7) 0.250
O1 O 0.03772(19) 0.9895(2) 0.21840(19)
O2 O 0.2272(2) 0.4909(2) 0.5410(2)
O3 O 0.2798(2) 0.4845(2) 0.4624(2)
O4 O 0.0306(2) 0.8919(2) 0.21377(19)
O7 O 0.2253(2) 0.6169(2) 0.53586(19)
O8 O 0.2723(2) 0.3868(2) 0.4595(2)
O9 O 0.2215(2) 0.3937(2) 0.5447(2)
O10 O 0.1851(2) 0.5588(2) 0.44047(19)
O11 O 0.0716(2) 0.8193(2) 0.3092(2)
O12 O 0.5336(2) 0.1305(3) 0.7096(3)
O14 O 0.2904(2) 0.6118(3) 0.4612(2)
O19 O 0.3287(2) 0.5587(3) 0.5590(2)
O22 O 0.1126(2) 0.6194(3) 0.4146(2)
O24 O 0.3073(2) 0.2935(3) 0.5804(2)
O26 O 0.1586(2) 0.6842(3) 0.5088(2)
O29 O 0.0089(3) 0.7112(3) 0.3719(3)
O30 O 0.2955(3) 0.2545(3) 0.4724(2)
O32 O 0.4369(2) 0.0689(3) 0.6687(3)
O35 O 0.3772(3) 0.2100(3) 0.5023(3)
O36 O 0.3880(2) 0.2447(3) 0.6072(2)
O38 O 0.5014(2) 0.1963(3) 0.6405(3)
O39 O 0.1112(2) 0.7602(3) 0.3816(2)
O40 O 0.4171(2) 0.1280(3) 0.5932(3)
O41 O 0.4898(3) 0.1760(3) 0.5261(3)
O43 O 0.5458(3) 0.2113(3) 0.4758(3)
O44 O 0.4660(3) 0.2829(3) 0.5527(3)
O45 O 0.4020(3) 0.6186(4) 0.5824(3)
O46 O 0.5171(3) 0.3220(3) 0.4995(3)
O47 O 0.3579(3) 0.6791(3) 0.4848(3)
C1 C 0.2348(3) 0.4388(4) 0.5254(3)
C2 C 0.2651(3) 0.4351(4) 0.4777(3)
C5 C 0.1575(3) 0.6030(3) 0.4470(3)
C6 C 0.0707(3) 0.7786(4) 0.3440(3)
C9 C 0.1819(3) 0.6380(3) 0.5015(3)
C10 C 0.0130(3) 0.7492(4) 0.3373(3)
C13 C 0.4465(3) 0.1110(4) 0.6413(4)
C14 C 0.3380(4) 0.2407(4) 0.5087(4)
C15 C 0.3444(4) 0.2623(4) 0.5713(3)
C16 C 0.4988(3) 0.1492(4) 0.6664(4)
C17 C 0.3572(4) 0.6022(5) 0.5502(3)
C21 C 0.3334(4) 0.6350(4) 0.4939(3)
C22 C 0.4982(4) 0.2799(4) 0.5194(4)
C23 C 0.5130(4) 0.2166(5) 0.5056(5)
C24 C 0.0198(3) 0.9418(3) 0.2302(3)
O68 O 0.0249(2) 0.7673(2) 0.2041(2)
O93 O 0.5296(2) 0.7613(3) 0.7076(3)
O94 O 0.4328(2) 0.8154(3) 0.6859(2)
O95 O 0.5016(3) 0.7079(4) 0.6290(3)
O96 O 0.3988(3) 0.7587(4) 0.6095(3)
C47 C 0.4363(4) 0.7751(5) 0.6508(4)
C48 C 0.4946(4) 0.7446(5) 0.6627(4)
Mn15 Mn 0.57006(7) 0.29702(9) 0.44591(7)
Cr9 Cr 0.500 0.82108(10) 0.750
O97 O 0.4664(2) 0.1305(3) 0.7904(3)
O104 O 0.5631(2) 0.0689(3) 0.8313(3)
O106 O 0.0371(3) 0.6749(2) 0.4989(2)
O108 O 0.0650(3) 0.7873(3) 0.4773(2)
O110 O 0.4542(3) 0.7887(3) 0.5242(3)
O112 O 0.4829(3) 0.6780(3) 0.5005(3)
O6 O 0.4618(2) 0.9837(3) 0.7806(2)
O15 O 0.4665(2) 0.8857(3) 0.7835(2)
O25 O 0.4704(2) 0.7613(3) 0.7924(3)
O27 O 0.5672(2) 0.8154(3) 0.8141(2)
O42 O 0.4984(3) 0.7079(4) 0.8710(3)
O48 O 0.6012(3) 0.7587(4) 0.8905(3)
C4 C 0.4790(3) 0.9364(4) 0.7683(3)
C19 C 0.5637(4) 0.7751(5) 0.8492(4)
C20 C 0.5054(4) 0.7446(5) 0.8373(4)
O51 O 0.5382(2) 0.9837(3) 0.7194(2)
O52 O 0.5335(2) 0.8857(3) 0.7165(2)
C26 C 0.5210(3) 0.9364(4) 0.7317(3)
Mn14 Mn 0.57006(7) 0.70298(9) 0.94591(7)
Mn1_2 Mn 1.000 0.06284(7) 0.250
Cr2 Cr 0.95914(6) 0.21194(6) 0.07158(5)
O16 O 0.8228(3) 0.2971(3) 0.0754(2)
O17 O 0.9318(2) 0.1346(2) 0.09028(19)
O18 O 0.9438(2) 0.0748(2) 0.1648(2)
O28 O 0.9902(3) 0.2879(2) 0.0568(2)
O33 O 0.9053(2) 0.2520(3) 0.1049(2)
C7 C 0.9567(3) 0.1174(3) 0.1394(3)
C11 C 0.8586(4) 0.2486(4) 0.0054(3)
C18 C 0.8611(4) 0.2685(4) 0.0674(3)
O55 O 0.9599(2) 0.1342(2) 0.2852(2)
O62 O 0.9842(2) 0.2001(2) 0.3552(2)
O71 O 0.9895(2) 0.1801(2) 0.4699(2)
O80 O 0.9629(3) 0.3251(2) 0.5011(2)
O83 O 0.9350(3) 0.2127(3) 0.5227(2)
C29 C 0.9910(3) 0.1534(3) 0.3298(3)
C33 C 0.9804(4) 0.2833(4) 0.4779(3)
C37 C 0.9668(4) 0.2202(4) 0.4922(3)
Mn9 Mn 0.91608(6) 0.29722(6) 0.55965(5)
O21 O 0.9001(2) 0.2201(2) 0.9997(2)
O31 O 0.8173(2) 0.2629(2) 0.9675(2)
Mn13 Mn 0.75768(5) 0.31544(6) 0.99716(4)
Cr5_2 Cr 1.000 0.82701(7) 0.250
O20 O 0.9751(2) 0.7673(2) 0.2959(2)
O49 O 0.96228(19) 0.9895(2) 0.28160(19)
O50 O 0.9694(2) 0.8919(2) 0.28623(19)
C25 C 0.9802(3) 0.9418(3) 0.2698(3)
Mn6 Mn 0.91608(6) 0.70278(6) 0.05965(5)
O54 O 0.7202(2) 0.4845(2) 0.0376(2)
O57 O 0.7277(2) 0.3868(2) 0.0405(2)
O59 O 0.8149(2) 0.5588(2) 0.05953(19)
O60 O 0.9284(2) 0.8193(2) 0.1908(2)
O63 O 0.7096(2) 0.6118(3) 0.0388(2)
O70 O 0.8874(2) 0.6194(3) 0.0854(2)
O75 O 0.9911(3) 0.7112(3) 0.1281(3)
O76 O 0.7045(3) 0.2545(3) 0.0276(2)
O85 O 0.8888(2) 0.7602(3) 0.1184(2)
O88 O 0.4542(3) 0.2113(3) 0.0242(3)
O91 O 0.4829(3) 0.3220(3) 0.0005(3)
O92 O 0.6421(3) 0.6791(3) 0.0152(3)
C28 C 0.7349(3) 0.4351(4) 0.0223(3)
C30 C 0.8425(3) 0.6030(3) 0.0530(3)
C31 C 0.9293(3) 0.7786(4) 0.1560(3)
C35 C 0.9870(3) 0.7492(4) 0.1627(3)
C44 C 0.6666(4) 0.6350(4) 0.0061(3)
Mn16 Mn 0.42994(7) 0.29702(9) 0.05409(7)
O105 O 0.9629(3) 0.6749(2) 0.0011(2)
O107 O 0.9350(3) 0.7873(3) 0.0227(2)
Cr7 Cr 0.55974(6) 0.20554(7) 0.92936(7)
Cr8 Cr 0.74373(5) 0.55188(6) 0.99981(4)
O53 O 0.7728(2) 0.4909(2) 0.9590(2)
O56 O 0.7747(2) 0.6169(2) 0.96414(19)
O58 O 0.7785(2) 0.3937(2) 0.9553(2)
O67 O 0.6713(2) 0.5587(3) 0.9410(2)
O72 O 0.6927(2) 0.2935(3) 0.9196(2)
O73 O 0.8414(2) 0.6842(3) 0.9912(2)
O81 O 0.6228(3) 0.2100(3) 0.9977(3)
O82 O 0.6120(2) 0.2447(3) 0.8928(2)
O84 O 0.4986(2) 0.1963(3) 0.8595(3)
O86 O 0.5829(2) 0.1280(3) 0.9068(3)
O87 O 0.5102(3) 0.1760(3) 0.9739(3)
O89 O 0.5340(3) 0.2829(3) 0.9473(3)
O90 O 0.5980(3) 0.6186(4) 0.9176(3)
C27 C 0.7652(3) 0.4388(4) 0.9746(3)
C34 C 0.8181(3) 0.6380(3) 0.9985(3)
C38 C 0.5535(3) 0.1110(4) 0.8587(4)
C39 C 0.6620(4) 0.2407(4) 0.9913(4)
C40 C 0.6556(4) 0.2623(4) 0.9287(3)
C41 C 0.5012(3) 0.1492(4) 0.8336(4)
C42 C 0.6428(4) 0.6022(5) 0.9498(3)
C45 C 0.5018(4) 0.2799(4) 0.9806(4)
C46 C 0.4870(4) 0.2166(5) 0.9944(5)
O111 O 0.5458(3) 0.7887(3) 0.9758(3)
O113 O 0.5171(3) 0.6780(3) 0.9995(3)
Mn7 Mn 0.24232(5) 0.68456(6) 0.00284(4)
Cr7_2 Cr 0.44026(6) 0.79446(7) 0.07064(7)
Cr8_2 Cr 0.25627(5) 0.44812(6) 0.00019(4)
O53_2 O 0.2272(2) 0.5091(2) 0.0410(2)
O56_2 O 0.2253(2) 0.3831(2) 0.03586(19)
O58_2 O 0.2215(2) 0.6063(2) 0.0447(2)
O61 O 0.5336(2) 0.8695(3) 0.2096(3)
O67_2 O 0.3287(2) 0.4413(3) 0.0590(2)
O72_2 O 0.3073(2) 0.7065(3) 0.0804(2)
O73_2 O 0.1586(2) 0.3158(3) 0.0088(2)
O78 O 0.4369(2) 0.9311(3) 0.1687(3)
O81_2 O 0.3772(3) 0.7900(3) 0.0023(3)
O82_2 O 0.3880(2) 0.7553(3) 0.1072(2)
O84_2 O 0.5014(2) 0.8037(3) 0.1405(3)
O86_2 O 0.4171(2) 0.8720(3) 0.0932(3)
O87_2 O 0.4898(3) 0.8240(3) 0.0261(3)
O89_2 O 0.4660(3) 0.7171(3) 0.0527(3)
O90_2 O 0.4020(3) 0.3814(4) 0.0824(3)
C27_2 C 0.2348(3) 0.5612(4) 0.0254(3)
C34_2 C 0.1819(3) 0.3620(3) 0.0015(3)
C38_2 C 0.4465(3) 0.8890(4) 0.1413(4)
C39_2 C 0.3380(4) 0.7593(4) 0.0087(4)
C40_2 C 0.3444(4) 0.7377(4) 0.0713(3)
C41_2 C 0.4988(3) 0.8508(4) 0.1664(4)
C42_2 C 0.3572(4) 0.3978(5) 0.0502(3)
C45_2 C 0.4982(4) 0.7201(4) 0.0194(4)
C46_2 C 0.5130(4) 0.7834(5) 0.0056(5)
Mn11 Mn 0.500 0.94211(9) 0.250
O102 O 0.1827(2) 0.7371(2) 0.0325(2)
O109 O 0.5016(3) 0.2921(4) 0.1290(3)
O114 O 0.3988(3) 0.2413(4) 0.1095(3)
Cr5_3 Cr 0.000 0.17299(7) 0.750
O20_2 O 0.0249(2) 0.2327(2) 0.7041(2)
O49_2 O 0.03772(19) 0.0105(2) 0.71840(19)
O50_2 O 0.0306(2) 0.1081(2) 0.71377(19)
C25_2 C 0.0198(3) 0.0582(3) 0.7302(3)
O54_2 O 0.2798(2) 0.5155(2) 0.9624(2)
O57_2 O 0.2723(2) 0.6132(2) 0.9595(2)
O59_2 O 0.1851(2) 0.4412(2) 0.94047(19)
O60_2 O 0.0716(2) 0.1807(2) 0.8092(2)
O63_2 O 0.2904(2) 0.3882(3) 0.9612(2)
O70_2 O 0.1126(2) 0.3806(3) 0.9146(2)
O75_2 O 0.0089(3) 0.2888(3) 0.8719(3)
O76_2 O 0.2955(3) 0.7455(3) 0.9724(2)
O85_2 O 0.1112(2) 0.2398(3) 0.8816(2)
O92_2 O 0.3579(3) 0.3209(3) 0.9848(3)
C28_2 C 0.2651(3) 0.5649(4) 0.9777(3)
C30_2 C 0.1575(3) 0.3970(3) 0.9470(3)
C31_2 C 0.0707(3) 0.2214(4) 0.8440(3)
C35_2 C 0.0130(3) 0.2508(4) 0.8373(3)
C44_2 C 0.3334(4) 0.3650(4) 0.9939(3)
O98 O 0.1772(3) 0.7029(3) 0.9246(2)
O21_2 O 0.0999(2) 0.7799(2) 0.0003(2)
Mn1_3 Mn -0.000 0.93716(7) 0.750
Cr2_2 Cr 0.04086(6) 0.78806(6) 0.92842(5)
O17_2 O 0.0682(2) 0.8654(2) 0.90972(19)
O18_2 O 0.0562(2) 0.9252(2) 0.8352(2)
O28_2 O 0.0098(3) 0.7121(2) 0.9432(2)
O33_2 O 0.0947(2) 0.7480(3) 0.8951(2)
C7_2 C 0.0433(3) 0.8826(3) 0.8606(3)
C11_2 C 0.1414(4) 0.7514(4) 0.9946(3)
C18_2 C 0.1389(4) 0.7315(4) 0.9326(3)
O55_2 O 0.0401(2) 0.8658(2) 0.7148(2)
O62_2 O 0.0158(2) 0.7999(2) 0.6448(2)
O71_2 O 0.0105(2) 0.8199(2) 0.5301(2)
C29_2 C 0.0090(3) 0.8466(3) 0.6702(3)
C33_2 C 0.0196(4) 0.7167(4) 0.5221(3)
C37_2 C 0.0332(4) 0.7798(4) 0.5078(3)
Cr1 Cr 0.500 0.17892(10) 0.250
O6_2 O 0.5382(2) 0.0163(3) 0.2194(2)
O15_2 O 0.5335(2) 0.1143(3) 0.2165(2)
O25_2 O 0.5296(2) 0.2387(3) 0.2076(3)
O27_2 O 0.4328(2) 0.1846(3) 0.1859(2)
C4_2 C 0.5210(3) 0.0636(4) 0.2317(3)
C19_2 C 0.4363(4) 0.2249(5) 0.1508(4)
C20_2 C 0.4946(4) 0.2554(5) 0.1627(4)
O51_2 O 0.4618(2) 0.0163(3) 0.2806(2)
O52_2 O 0.4665(2) 0.1143(3) 0.2835(2)
C26_2 C 0.4790(3) 0.0636(4) 0.2683(3)
O100 O 0.4704(2) 0.2387(3) 0.2924(3)
O101 O 0.5672(2) 0.1846(3) 0.3141(2)
Mn4 Mn 0.75768(5) 0.68456(6) 0.49716(4)
Cr3_2 Cr 0.55974(6) 0.79446(7) 0.42936(7)
Cr4_2 Cr 0.74373(5) 0.44812(6) 0.49981(4)
Cr5_4 Cr 1.000 0.17299(7) 0.750
O1_2 O 0.96228(19) 0.0105(2) 0.78160(19)
O2_2 O 0.7728(2) 0.5091(2) 0.4590(2)
O3_2 O 0.7202(2) 0.5155(2) 0.5376(2)
O4_2 O 0.9694(2) 0.1081(2) 0.78623(19)
O7_2 O 0.7747(2) 0.3831(2) 0.46414(19)
O8_2 O 0.7277(2) 0.6132(2) 0.5405(2)
O9_2 O 0.7785(2) 0.6063(2) 0.4553(2)
O10_2 O 0.8149(2) 0.4412(2) 0.55953(19)
O11_2 O 0.9284(2) 0.1807(2) 0.6908(2)
O12_2 O 0.4664(2) 0.8695(3) 0.2904(3)
O14_2 O 0.7096(2) 0.3882(3) 0.5388(2)
O19_2 O 0.6713(2) 0.4413(3) 0.4410(2)
O22_2 O 0.8874(2) 0.3806(3) 0.5854(2)
O24_2 O 0.6927(2) 0.7065(3) 0.4196(2)
O26_2 O 0.8414(2) 0.3158(3) 0.4912(2)
O29_2 O 0.9911(3) 0.2888(3) 0.6281(3)
O30_2 O 0.7045(3) 0.7455(3) 0.5276(2)
O32_2 O 0.5631(2) 0.9311(3) 0.3313(3)
O35_2 O 0.6228(3) 0.7900(3) 0.4977(3)
O36_2 O 0.6120(2) 0.7553(3) 0.3928(2)
O38_2 O 0.4986(2) 0.8037(3) 0.3595(3)
O39_2 O 0.8888(2) 0.2398(3) 0.6184(2)
O40_2 O 0.5829(2) 0.8720(3) 0.4068(3)
O41_2 O 0.5102(3) 0.8240(3) 0.4739(3)
O44_2 O 0.5340(3) 0.7171(3) 0.4473(3)
O45_2 O 0.5980(3) 0.3814(4) 0.4176(3)
O47_2 O 0.6421(3) 0.3209(3) 0.5152(3)
C1_2 C 0.7652(3) 0.5612(4) 0.4746(3)
C2_2 C 0.7349(3) 0.5649(4) 0.5223(3)
C5_2 C 0.8425(3) 0.3970(3) 0.5530(3)
C6_2 C 0.9293(3) 0.2214(4) 0.6560(3)
C9_2 C 0.8181(3) 0.3620(3) 0.4985(3)
C10_2 C 0.9870(3) 0.2508(4) 0.6627(3)
C13_2 C 0.5535(3) 0.8890(4) 0.3587(4)
C14_2 C 0.6620(4) 0.7593(4) 0.4913(4)
C15_2 C 0.6556(4) 0.7377(4) 0.4287(3)
C16_2 C 0.5012(3) 0.8508(4) 0.3336(4)
C17_2 C 0.6428(4) 0.3978(5) 0.4498(3)
C21_2 C 0.6666(4) 0.3650(4) 0.5061(3)
C22_2 C 0.5018(4) 0.7201(4) 0.4806(4)
C23_2 C 0.4870(4) 0.7834(5) 0.4944(5)
C24_2 C 0.9802(3) 0.0582(3) 0.7698(3)
O68_2 O 0.9751(2) 0.2327(2) 0.7959(2)
O95_2 O 0.4984(3) 0.2921(4) 0.3710(3)
O96_2 O 0.6012(3) 0.2413(4) 0.3905(3)
C47_2 C 0.5637(4) 0.2249(5) 0.3492(4)
C48_2 C 0.5054(4) 0.2554(5) 0.3373(4)
O99 O 0.8228(3) 0.7029(3) 0.5754(2)
O103 O 0.8173(2) 0.7371(2) 0.4675(2)
Mn1_4 Mn 1.000 0.93716(7) 0.750
O5_2 O 0.9599(2) 0.8658(2) 0.7852(2)
O13_2 O 0.9842(2) 0.7999(2) 0.8552(2)
O23_2 O 0.9895(2) 0.8199(2) 0.9699(2)
C3_2 C 0.9910(3) 0.8466(3) 0.8298(3)
C8_2 C 0.9804(4) 0.7167(4) 0.9779(3)
C12_2 C 0.9668(4) 0.7798(4) 0.9922(3)
Cr6_2 Cr 0.95914(6) 0.78806(6) 0.57158(5)
O65_2 O 0.9318(2) 0.8654(2) 0.59028(19)
O66_2 O 0.9438(2) 0.9252(2) 0.6648(2)
O69_2 O 0.9001(2) 0.7799(2) 0.4997(2)
O74_2 O 0.9902(3) 0.7121(2) 0.5568(2)
O79_2 O 0.9053(2) 0.7480(3) 0.6049(2)
C32_2 C 0.9567(3) 0.8826(3) 0.6394(3)
C36_2 C 0.8586(4) 0.7514(4) 0.5054(3)
C43_2 C 0.8611(4) 0.7315(4) 0.5674(3)
H4 H 0.16983 0.0102 0.0083
H5 H 0.19624 0.01015 0.92231
N2 N 0.2227(3) 0.9719(3) 0.1086(2)
C49 C 0.2408(3) 0.9724(4) 0.0556(3)
C51 C 0.2918(3) 0.9512(4) 0.0553(3)
C52 C 0.3070(3) 0.9497(4) 0.0040(3)
C53 C 0.2049(4) 0.9947(4) 0.0071(3)
H1 H 0.18833 0.98863 0.10196
H2 H 0.24745 0.99259 0.13598
H3 H 0.22112 0.93436 0.12044
H6 H 0.34197 0.93396 0.00286
H7 H 0.31681 0.93757 0.08947
N1 N 0.2872(3) 0.9719(3) 0.9018(2)
C50 C 0.2712(3) 0.9709(4) 0.9561(3)
C54 C 0.2203(4) 0.9945(5) 0.9561(3)
H8 H 0.25887 0.98756 0.87395
H9 H 0.29408 0.93477 0.89197
H10 H 0.31841 0.9941 0.90594
H4_2 H 0.83017 0.0102 0.4917
H5_2 H 0.80376 0.01015 0.57769
N1_2 N 0.7128(3) 0.9719(3) 0.5982(2)
N2_2 N 0.7773(3) 0.9719(3) 0.3914(2)
C49_2 C 0.7592(3) 0.9724(4) 0.4444(3)
C50_2 C 0.7288(3) 0.9709(4) 0.5439(3)
C51_2 C 0.7082(3) 0.9512(4) 0.4447(3)
C52_2 C 0.6930(3) 0.9497(4) 0.4960(3)
C53_2 C 0.7951(4) 0.9947(4) 0.4929(3)
C54_2 C 0.7797(4) 0.9945(5) 0.5439(3)
H1_2 H 0.81167 0.98863 0.39804
H2_2 H 0.75255 0.99259 0.36402
H3_2 H 0.77888 0.93436 0.37956
H6_2 H 0.65803 0.93396 0.49714
H7_2 H 0.68319 0.93757 0.41053
H8_2 H 0.74113 0.98756 0.62605
H9_2 H 0.70592 0.93477 0.60803
H10_2 H 0.68159 0.9941 0.59406
N1_3 N 0.7128(3) 0.0281(3) 0.0982(2)
C50_3 C 0.7288(3) 0.0291(4) 0.0439(3)
C54_3 C 0.7797(4) 0.0055(5) 0.0439(3)
H8_3 H 0.74113 0.01244 0.12605
H9_3 H 0.70592 0.06523 0.10803
H10_3 H 0.68159 0.0059 0.09406
N2_3 N 0.7773(3) 0.0281(3) 0.8914(2)
C49_3 C 0.7592(3) 0.0276(4) 0.9444(3)
C51_3 C 0.7082(3) 0.0488(4) 0.9447(3)
C52_3 C 0.6930(3) 0.0503(4) 0.9960(3)
C53_3 C 0.7951(4) 0.0053(4) 0.9929(3)
H1_3 H 0.81167 0.01137 0.89804
H2_3 H 0.75255 0.00741 0.86402
H3_3 H 0.77888 0.06564 0.87956
H6_3 H 0.65803 0.06604 0.99714
H7_3 H 0.68319 0.06243 0.91053
H5_3 H 0.80376 0.98985 0.07769
H4_3 H 0.83017 0.9898 0.9917
N1_4 N 0.2872(3) 0.0281(3) 0.4018(2)
N2_4 N 0.2227(3) 0.0281(3) 0.6086(2)
C49_4 C 0.2408(3) 0.0276(4) 0.5556(3)
C50_4 C 0.2712(3) 0.0291(4) 0.4561(3)
C51_4 C 0.2918(3) 0.0488(4) 0.5553(3)
C52_4 C 0.3070(3) 0.0503(4) 0.5040(3)
C53_4 C 0.2049(4) 0.0053(4) 0.5071(3)
C54_4 C 0.2203(4) 0.0055(5) 0.4561(3)
H1_4 H 0.18833 0.01137 0.60196
H2_4 H 0.24745 0.00741 0.63598
H3_4 H 0.22112 0.06564 0.62044
H6_4 H 0.34197 0.06604 0.50286
H7_4 H 0.31681 0.06243 0.58947
H8_4 H 0.25887 0.01244 0.37395
H9_4 H 0.29408 0.06523 0.39197
H10_4 H 0.31841 0.0059 0.40594
H4_4 H 0.16983 0.9898 0.5083
H5_4 H 0.19624 0.98985 0.42231
N3 N 0.3980(3) 0.4692(4) 0.2831(3)
C55 C 0.4514(4) 0.4659(5) 0.2669(4)
C56 C 0.5018(5) 0.4659(7) 0.3058(4)
C57 C 0.4490(5) 0.4656(7) 0.2102(5)
H11 H 0.50327 0.4661 0.34512
H12 H 0.41406 0.46518 0.18232
H13 H 0.36905 0.47052 0.25115
H14 H 0.39779 0.50197 0.30425
H15 H 0.39451 0.437 0.30394
N4 N 0.6020(3) 0.4692(4) 0.2169(3)
C58 C 0.5486(4) 0.4659(5) 0.2331(4)
C59 C 0.4982(5) 0.4659(7) 0.1942(4)
C60 C 0.5510(5) 0.4656(7) 0.2898(5)
H16 H 0.49673 0.4661 0.15488
H17 H 0.58594 0.46518 0.31768
H18 H 0.63095 0.47052 0.24885
H19 H 0.60221 0.50197 0.19575
H20 H 0.60549 0.437 0.19606
N3_2 N 0.6020(3) 0.5308(4) 0.7169(3)
C55_2 C 0.5486(4) 0.5341(5) 0.7331(4)
C56_2 C 0.4982(5) 0.5341(7) 0.6942(4)
C57_2 C 0.5510(5) 0.5344(7) 0.7898(5)
H11_2 H 0.49673 0.5339 0.65488
H12_2 H 0.58594 0.53482 0.81768
H13_2 H 0.63095 0.52948 0.74885
H14_2 H 0.60221 0.49803 0.69575
H15_2 H 0.60549 0.563 0.69606
N4_2 N 0.3980(3) 0.5308(4) 0.7831(3)
C58_2 C 0.4514(4) 0.5341(5) 0.7669(4)
C59_2 C 0.5018(5) 0.5341(7) 0.8058(4)
C60_2 C 0.4490(5) 0.5344(7) 0.7102(5)
H16_2 H 0.50327 0.5339 0.84512
H17_2 H 0.41406 0.53482 0.68232
H18_2 H 0.36905 0.52948 0.75115
H19_2 H 0.39779 0.49803 0.80425
H20_2 H 0.39451 0.563 0.80394
N5 N 0.0976(3) 0.5381(3) 0.2107(3)
C61 C 0.0468(3) 0.5391(3) 0.2307(3)
C63 C 0.0519(4) 0.5406(5) 0.2885(3)
H22 H 0.08764 0.54099 0.31497
H23 H 0.12812 0.53619 0.24122
H24 H 0.09932 0.57131 0.19059
H25 H 0.09692 0.50632 0.18809
C65 C 0.0040(4) 0.5416(5) 0.3074(3)
H26 H 0.00683 0.5441 0.347
C62 C 0.9960(4) 0.5416(5) 0.1926(3)
H21 H 0.99317 0.5441 0.153
N6 N 0.9024(3) 0.5381(3) 0.2893(3)
C64 C 0.9532(3) 0.5391(3) 0.2693(3)
C66 C 0.9481(4) 0.5406(5) 0.2115(3)
H27 H 0.91236 0.54099 0.18503
H28 H 0.87188 0.53619 0.25878
H29 H 0.90068 0.57131 0.30941
H30 H 0.90308 0.50632 0.31191
C62_2 C 0.0040(4) 0.4584(5) 0.8074(3)
H21_2 H 0.00683 0.4559 0.847
N6_2 N 0.0976(3) 0.4619(3) 0.7107(3)
C64_2 C 0.0468(3) 0.4609(3) 0.7307(3)
C66_2 C 0.0519(4) 0.4594(5) 0.7885(3)
H27_2 H 0.08764 0.45901 0.81497
H28_2 H 0.12812 0.46381 0.74122
H29_2 H 0.09932 0.42869 0.69059
H30_2 H 0.09692 0.49368 0.68809
N5_2 N 0.9024(3) 0.4619(3) 0.7893(3)
C61_2 C 0.9532(3) 0.4609(3) 0.7693(3)
C63_2 C 0.9481(4) 0.4594(5) 0.7115(3)
H22_2 H 0.91236 0.45901 0.68503
H23_2 H 0.87188 0.46381 0.75878
H24_2 H 0.90068 0.42869 0.80941
H25_2 H 0.90308 0.49368 0.81191
C65_2 C 0.9960(4) 0.4584(5) 0.6926(3)
H26_2 H 0.99317 0.4559 0.653
loop_
_geom_bond_atom_site_label_1
_geom_bond_atom_site_label_2
_geom_bond_site_symmetry_1
_geom_bond_site_symmetry_2
O5 Mn1 1_555 1_555
O13 C3 1_555 1_555
C3 O5 1_555 1_555
C12 O23 1_555 1_555
O64 C43 1_555 1_555
O65 Cr6 1_555 1_555
O66 Mn1 1_555 1_555
O69 Cr6 1_555 1_555
O74 Cr6 1_555 1_555
O77 C36 1_555 1_555
O79 Cr6 1_555 1_555
C32 O65 1_555 1_555
C36 O69 1_555 1_555
C43 O79 1_555 1_555
Mn12 O64 1_555 1_555
C8 C12 1_555 1_555
O66 C32 1_555 1_555
O77 Mn12 1_555 1_555
C36 C43 1_555 1_555
Mn10 O34 1_555 1_555
O37 Mn10 1_555 1_555
Mn2 O22 1_555 1_555
Mn12 O8 1_555 1_555
Mn5 O45 1_555 1_555
Cr3 O35 1_555 1_555
Cr4 O2 1_555 1_555
Cr5 O4 1_555 1_555
O1 C24 1_555 1_555
O2 C1 1_555 1_555
O3 Cr4 1_555 1_555
O4 C24 1_555 1_555
O7 Cr4 1_555 1_555
O8 C2 1_555 1_555
O9 Mn12 1_555 1_555
O10 Cr4 1_555 1_555
O11 Cr5 1_555 1_555
O12 Mn3 1_555 1_555
O14 Cr4 1_555 1_555
O19 Cr4 1_555 1_555
O22 C5 1_555 1_555
O24 Mn12 1_555 1_555
O26 Mn2 1_555 1_555
O29 Mn2 1_555 1_555
O30 Mn12 1_555 1_555
O32 Mn3 1_555 1_555
O35 C14 1_555 1_555
O36 Cr3 1_555 1_555
O38 Cr3 1_555 1_555
O39 Mn2 1_555 1_555
O40 Cr3 1_555 1_555
O41 Cr3 1_555 1_555
O43 C23 1_555 1_555
O44 Cr3 1_555 1_555
O45 C17 1_555 1_555
O46 C22 1_555 1_555
O47 Mn5 1_555 1_555
C1 O9 1_555 1_555
C2 O3 1_555 1_555
C5 O10 1_555 1_555
C6 O11 1_555 1_555
C9 O7 1_555 1_555
C13 O32 1_555 1_555
C14 O30 1_555 1_555
C15 O24 1_555 1_555
C16 O12 1_555 1_555
C17 O19 1_555 1_555
C21 O14 1_555 1_555
C22 O44 1_555 1_555
C23 O41 1_555 1_555
O68 Cr5 1_555 1_555
O93 C48 1_555 1_555
O94 C47 1_555 1_555
O95 Mn5 1_555 1_555
O96 Mn5 1_555 1_555
C47 O96 1_555 1_555
C48 O95 1_555 1_555
Mn15 O43 1_555 1_555
Cr9 O93 1_555 1_555
O97 Mn3 1_555 1_555
O104 Mn3 1_555 1_555
O106 Mn2 1_555 1_555
O108 Mn2 1_555 1_555
O110 Mn5 1_555 1_555
O112 Mn5 1_555 1_555
O26 C9 1_555 1_555
O29 C10 1_555 1_555
O36 C15 1_555 1_555
O38 C16 1_555 1_555
O39 C6 1_555 1_555
O40 C13 1_555 1_555
O46 Mn15 1_555 1_555
O47 C21 1_555 1_555
C1 C2 1_555 1_555
C5 C9 1_555 1_555
C6 C10 1_555 1_555
C13 C16 1_555 1_555
C14 C15 1_555 1_555
C17 C21 1_555 1_555
C22 C23 1_555 1_555
O94 Cr9 1_555 1_555
C47 C48 1_555 1_555
Cr9 O15 1_555 1_555
O6 C4 1_555 1_555
O15 C4 1_555 1_555
O25 Cr9 1_555 1_555
O27 Cr9 1_555 1_555
O42 C20 1_555 1_555
O48 C19 1_555 1_555
C4 C26 1_555 1_555
C19 O27 1_555 1_555
C20 O25 1_555 1_555
O52 Cr9 1_555 1_555
C26 O51 1_555 1_555
Mn14 O42 1_555 1_555
O48 Mn14 1_555 1_555
C19 C20 1_555 1_555
O52 C26 1_555 1_555
O16 C18 1_555 1_555
O17 Cr2 1_555 1_555
O18 Mn1_2 1_555 1_555
O28 Cr2 1_555 1_555
O33 Cr2 1_555 1_555
C7 O17 1_555 1_555
C18 O33 1_555 1_555
O55 Mn1_2 1_555 1_555
O62 C29 1_555 1_555
O80 C33 1_555 1_555
O83 C37 1_555 1_555
C29 O55 1_555 1_555
C37 O71 1_555 1_555
Mn9 O80 1_555 1_555
O18 C7 1_555 1_555
C11 C18 1_555 1_555
O83 Mn9 1_555 1_555
C33 C37 1_555 1_555
O31 Mn13 1_555 1_555
O20 Cr5_2 1_555 1_555
O50 Cr5_2 1_555 1_555
C25 O49 1_555 1_555
Mn6 O70 1_555 1_555
O57 C28 1_555 1_555
O60 Cr5_2 1_555 1_555
O70 C30 1_555 1_555
O75 Mn6 1_555 1_555
O85 Mn6 1_555 1_555
C28 O54 1_555 1_555
C30 O59 1_555 1_555
C31 O60 1_555 1_555
C44 O63 1_555 1_555
Mn16 O88 1_555 1_555
O105 Mn6 1_555 1_555
O107 Mn6 1_555 1_555
O50 C25 1_555 1_555
O75 C35 1_555 1_555
O85 C31 1_555 1_555
O91 Mn16 1_555 1_555
O92 C44 1_555 1_555
C31 C35 1_555 1_555
Mn14 O90 1_555 1_555
Cr7 O81 1_555 1_555
Cr8 O53 1_555 1_555
O53 C27 1_555 1_555
O56 Cr8 1_555 1_555
O58 Mn13 1_555 1_555
O97 C41 1_555 1_555
O67 Cr8 1_555 1_555
O72 Mn13 1_555 1_555
O104 C38 1_555 1_555
O81 C39 1_555 1_555
O82 Cr7 1_555 1_555
O84 Cr7 1_555 1_555
O86 Cr7 1_555 1_555
O87 Cr7 1_555 1_555
O89 Cr7 1_555 1_555
O90 C42 1_555 1_555
C27 O58 1_555 1_555
C34 O56 1_555 1_555
C38 O86 1_555 1_555
C40 O72 1_555 1_555
C41 O84 1_555 1_555
C42 O67 1_555 1_555
C45 O89 1_555 1_555
C46 O87 1_555 1_555
O111 Mn14 1_555 1_555
O113 Mn14 1_555 1_555
O73 C34 1_555 1_555
O82 C40 1_555 1_555
C38 C41 1_555 1_555
C39 C40 1_555 1_555
C45 C46 1_555 1_555
Mn16 O90_2 1_555 1_555
Cr7_2 O81_2 1_555 1_555
Cr8_2 O53_2 1_555 1_555
O53_2 C27_2 1_555 1_555
O56_2 Cr8_2 1_555 1_555
O58_2 Mn7 1_555 1_555
O61 C41_2 1_555 1_555
O67_2 Cr8_2 1_555 1_555
O72_2 Mn7 1_555 1_555
O78 C38_2 1_555 1_555
O81_2 C39_2 1_555 1_555
O82_2 Cr7_2 1_555 1_555
O84_2 Cr7_2 1_555 1_555
O86_2 Cr7_2 1_555 1_555
O87_2 Cr7_2 1_555 1_555
O89_2 Cr7_2 1_555 1_555
O90_2 C42_2 1_555 1_555
C27_2 O58_2 1_555 1_555
C34_2 O56_2 1_555 1_555
C38_2 O86_2 1_555 1_555
C40_2 O72_2 1_555 1_555
C41_2 O84_2 1_555 1_555
C42_2 O67_2 1_555 1_555
C45_2 O89_2 1_555 1_555
C46_2 O87_2 1_555 1_555
Mn11 O61 1_555 1_555
O102 Mn7 1_555 1_555
O109 Mn16 1_555 1_555
O114 Mn16 1_555 1_555
O73_2 C34_2 1_555 1_555
O78 Mn11 1_555 1_555
O82_2 C40_2 1_555 1_555
C38_2 C41_2 1_555 1_555
C39_2 C40_2 1_555 1_555
C45_2 C46_2 1_555 1_555
O20_2 Cr5_3 1_555 1_555
O50_2 Cr5_3 1_555 1_555
C25_2 O49_2 1_555 1_555
Mn10 O70_2 1_555 1_555
O57_2 C28_2 1_555 1_555
O60_2 Cr5_3 1_555 1_555
O70_2 C30_2 1_555 1_555
O75_2 Mn10 1_555 1_555
O85_2 Mn10 1_555 1_555
C28_2 O54_2 1_555 1_555
C30_2 O59_2 1_555 1_555
C31_2 O60_2 1_555 1_555
C44_2 O63_2 1_555 1_555
O50_2 C25_2 1_555 1_555
O75_2 C35_2 1_555 1_555
O85_2 C31_2 1_555 1_555
O92_2 C44_2 1_555 1_555
C31_2 C35_2 1_555 1_555
O98 C18_2 1_555 1_555
O17_2 Cr2_2 1_555 1_555
O18_2 Mn1_3 1_555 1_555
O28_2 Cr2_2 1_555 1_555
O33_2 Cr2_2 1_555 1_555
C7_2 O17_2 1_555 1_555
C18_2 O33_2 1_555 1_555
O55_2 Mn1_3 1_555 1_555
O62_2 C29_2 1_555 1_555
O106 C33_2 1_555 1_555
O108 C37_2 1_555 1_555
C29_2 O55_2 1_555 1_555
C37_2 O71_2 1_555 1_555
O18_2 C7_2 1_555 1_555
C11_2 C18_2 1_555 1_555
C33_2 C37_2 1_555 1_555
Cr1 O15_2 1_555 1_555
O6_2 C4_2 1_555 1_555
O15_2 C4_2 1_555 1_555
O25_2 Cr1 1_555 1_555
O27_2 Cr1 1_555 1_555
O109 C20_2 1_555 1_555
O114 C19_2 1_555 1_555
C4_2 C26_2 1_555 1_555
C19_2 O27_2 1_555 1_555
C20_2 O25_2 1_555 1_555
O52_2 Cr1 1_555 1_555
C26_2 O51_2 1_555 1_555
O100 Cr1 1_555 1_555
O101 Cr1 1_555 1_555
C19_2 C20_2 1_555 1_555
O52_2 C26_2 1_555 1_555
Mn9 O22_2 1_555 1_555
Mn4 O8_2 1_555 1_555
Mn15 O45_2 1_555 1_555
Cr3_2 O35_2 1_555 1_555
Cr4_2 O2_2 1_555 1_555
Cr5_4 O4_2 1_555 1_555
O1_2 C24_2 1_555 1_555
O2_2 C1_2 1_555 1_555
O3_2 Cr4_2 1_555 1_555
O4_2 C24_2 1_555 1_555
O7_2 Cr4_2 1_555 1_555
O8_2 C2_2 1_555 1_555
O9_2 Mn4 1_555 1_555
O10_2 Cr4_2 1_555 1_555
O11_2 Cr5_4 1_555 1_555
O12_2 Mn11 1_555 1_555
O14_2 Cr4_2 1_555 1_555
O19_2 Cr4_2 1_555 1_555
O22_2 C5_2 1_555 1_555
O24_2 Mn4 1_555 1_555
O26_2 Mn9 1_555 1_555
O29_2 Mn9 1_555 1_555
O30_2 Mn4 1_555 1_555
O32_2 Mn11 1_555 1_555
O35_2 C14_2 1_555 1_555
O36_2 Cr3_2 1_555 1_555
O38_2 Cr3_2 1_555 1_555
O39_2 Mn9 1_555 1_555
O40_2 Cr3_2 1_555 1_555
O41_2 Cr3_2 1_555 1_555
O110 C23_2 1_555 1_555
O44_2 Cr3_2 1_555 1_555
O45_2 C17_2 1_555 1_555
O112 C22_2 1_555 1_555
O47_2 Mn15 1_555 1_555
C1_2 O9_2 1_555 1_555
C2_2 O3_2 1_555 1_555
C5_2 O10_2 1_555 1_555
C6_2 O11_2 1_555 1_555
C9_2 O7_2 1_555 1_555
C13_2 O32_2 1_555 1_555
C14_2 O30_2 1_555 1_555
C15_2 O24_2 1_555 1_555
C16_2 O12_2 1_555 1_555
C17_2 O19_2 1_555 1_555
C21_2 O14_2 1_555 1_555
C22_2 O44_2 1_555 1_555
C23_2 O41_2 1_555 1_555
O68_2 Cr5_4 1_555 1_555
O100 C48_2 1_555 1_555
O101 C47_2 1_555 1_555
O95_2 Mn15 1_555 1_555
O96_2 Mn15 1_555 1_555
C47_2 O96_2 1_555 1_555
C48_2 O95_2 1_555 1_555
O99 Mn4 1_555 1_555
O103 Mn4 1_555 1_555
O26_2 C9_2 1_555 1_555
O29_2 C10_2 1_555 1_555
O36_2 C15_2 1_555 1_555
O38_2 C16_2 1_555 1_555
O39_2 C6_2 1_555 1_555
O40_2 C13_2 1_555 1_555
O47_2 C21_2 1_555 1_555
C1_2 C2_2 1_555 1_555
C5_2 C9_2 1_555 1_555
C6_2 C10_2 1_555 1_555
C13_2 C16_2 1_555 1_555
C14_2 C15_2 1_555 1_555
C17_2 C21_2 1_555 1_555
C22_2 C23_2 1_555 1_555
C47_2 C48_2 1_555 1_555
O5_2 Mn1_4 1_555 1_555
O13_2 C3_2 1_555 1_555
C3_2 O5_2 1_555 1_555
C12_2 O23_2 1_555 1_555
O99 C43_2 1_555 1_555
O65_2 Cr6_2 1_555 1_555
O66_2 Mn1_4 1_555 1_555
O69_2 Cr6_2 1_555 1_555
O74_2 Cr6_2 1_555 1_555
O103 C36_2 1_555 1_555
O79_2 Cr6_2 1_555 1_555
C32_2 O65_2 1_555 1_555
C36_2 O69_2 1_555 1_555
C43_2 O79_2 1_555 1_555
C8_2 C12_2 1_555 1_555
O66_2 C32_2 1_555 1_555
C36_2 C43_2 1_555 1_555
N2 C49 1_555 1_555
C49 C51 1_555 1_555
C51 C52 1_555 1_555
C52 H6 1_555 1_555
C53 C49 1_555 1_555
H1 N2 1_555 1_555
H2 N2 1_555 1_555
H3 N2 1_555 1_555
H7 C51 1_555 1_555
N1 C50 1_555 1_555
C54 C50 1_555 1_555
H8 N1 1_555 1_555
H9 N1 1_555 1_555
H10 N1 1_555 1_555
N1_2 C50_2 1_555 1_555
N2_2 C49_2 1_555 1_555
C49_2 C51_2 1_555 1_555
C50_2 C52_2 1_555 1_555
C51_2 C52_2 1_555 1_555
C52_2 H6_2 1_555 1_555
C53_2 C49_2 1_555 1_555
C54_2 C50_2 1_555 1_555
H1_2 N2_2 1_555 1_555
H2_2 N2_2 1_555 1_555
H3_2 N2_2 1_555 1_555
H7_2 C51_2 1_555 1_555
H8_2 N1_2 1_555 1_555
H9_2 N1_2 1_555 1_555
H10_2 N1_2 1_555 1_555
C53_2 C54_2 1_555 1_555
N1_3 C50_3 1_555 1_555
C54_3 C50_3 1_555 1_555
H8_3 N1_3 1_555 1_555
H9_3 N1_3 1_555 1_555
H10_3 N1_3 1_555 1_555
N2_3 C49_3 1_555 1_555
C49_3 C51_3 1_555 1_555
C51_3 C52_3 1_555 1_555
C52_3 H6_3 1_555 1_555
C53_3 C49_3 1_555 1_555
H1_3 N2_3 1_555 1_555
H2_3 N2_3 1_555 1_555
H3_3 N2_3 1_555 1_555
H7_3 C51_3 1_555 1_555
N1_4 C50_4 1_555 1_555
N2_4 C49_4 1_555 1_555
C49_4 C51_4 1_555 1_555
C50_4 C52_4 1_555 1_555
C51_4 C52_4 1_555 1_555
C52_4 H6_4 1_555 1_555
C53_4 C49_4 1_555 1_555
C54_4 C50_4 1_555 1_555
H1_4 N2_4 1_555 1_555
H2_4 N2_4 1_555 1_555
H3_4 N2_4 1_555 1_555
H7_4 C51_4 1_555 1_555
H8_4 N1_4 1_555 1_555
H9_4 N1_4 1_555 1_555
H10_4 N1_4 1_555 1_555
C53_4 C54_4 1_555 1_555
N3 C55 1_555 1_555
C55 C56 1_555 1_555
C56 H11 1_555 1_555
C57 C55 1_555 1_555
H12 C57 1_555 1_555
H13 N3 1_555 1_555
H14 N3 1_555 1_555
H15 N3 1_555 1_555
N4 C58 1_555 1_555
C58 C59 1_555 1_555
C59 C57 1_555 1_555
C60 C56 1_555 1_555
H16 C59 1_555 1_555
H17 C60 1_555 1_555
H18 N4 1_555 1_555
H19 N4 1_555 1_555
H20 N4 1_555 1_555
C58 C60 1_555 1_555
N3_2 C55_2 1_555 1_555
C55_2 C56_2 1_555 1_555
C56_2 H11_2 1_555 1_555
C57_2 C55_2 1_555 1_555
H12_2 C57_2 1_555 1_555
H13_2 N3_2 1_555 1_555
H14_2 N3_2 1_555 1_555
H15_2 N3_2 1_555 1_555
N4_2 C58_2 1_555 1_555
C58_2 C59_2 1_555 1_555
C59_2 C57_2 1_555 1_555
C60_2 C56_2 1_555 1_555
H16_2 C59_2 1_555 1_555
H17_2 C60_2 1_555 1_555
H18_2 N4_2 1_555 1_555
H19_2 N4_2 1_555 1_555
H20_2 N4_2 1_555 1_555
C58_2 C60_2 1_555 1_555
N5 C61 1_555 1_555
C63 C61 1_555 1_555
H22 C63 1_555 1_555
H23 N5 1_555 1_555
H24 N5 1_555 1_555
H25 N5 1_555 1_555
C65 C63 1_555 1_555
H26 C65 1_555 1_555
C62 H21 1_555 1_555
N6 C64 1_555 1_555
C66 C62 1_555 1_555
H27 C66 1_555 1_555
H28 N6 1_555 1_555
H29 N6 1_555 1_555
H30 N6 1_555 1_555
C64 C66 1_555 1_555
C62_2 H21_2 1_555 1_555
N6_2 C64_2 1_555 1_555
C66_2 C62_2 1_555 1_555
H27_2 C66_2 1_555 1_555
H28_2 N6_2 1_555 1_555
H29_2 N6_2 1_555 1_555
H30_2 N6_2 1_555 1_555
C64_2 C66_2 1_555 1_555
N5_2 C61_2 1_555 1_555
C63_2 C61_2 1_555 1_555
H22_2 C63_2 1_555 1_555
H23_2 N5_2 1_555 1_555
H24_2 N5_2 1_555 1_555
H25_2 N5_2 1_555 1_555
C65_2 C63_2 1_555 1_555
H26_2 C65_2 1_555 1_555

#END
