
###############################################################################
#
# This file contains modified crystal structure data generated from the
# MOF subset of the Cambridge Structural Database (CSD) v543 
# hosted by the Cambridge Crystallographic Data Centre (CCDC).
#
# This work is licensed under the Creative Commons
# Attribution-NonCommercial-ShareAlike 4.0 International License.
# To view a copy of this license, visit
# http://creativecommons.org/licenses/by-nc-sa/4.0/
# or send a letter to
# Creative Commons, PO Box 1866, Mountain View, CA 94042, USA.
#
# CIF created using the CSD Python API on 29 September 2022
# The structure has been converted into the P1 space group
# The structure has a 3D framework
# The original CSD entry RUGKIP is in the monoclinic crystal system
# The framework has been calculated to contain at least 10.0% void space
# The void calculation uses a probe of radius 1.32A, grid spacing 0.4
#
###############################################################################

data_RUGKIP
_chemical_formula_moiety         '(C100 H68 Cr8 F8 Mn8 N8 O96)n'
_symmetry_cell_setting           triclinic
_symmetry_space_group_name_H-M   'P 1'
_symmetry_Int_Tables_number      1
_space_group_name_Hall           'P 1'
loop_
_symmetry_equiv_pos_site_id
_symmetry_equiv_pos_as_xyz
1 x,y,z
_cell_length_a                   16.8907(6)
_cell_length_b                   14.2315(4)
_cell_length_c                   32.9968(10)
_cell_angle_alpha                90
_cell_angle_beta                 91.3408(11)
_cell_angle_gamma                90
_cell_volume                     7929.6
loop_
_atom_site_label
_atom_site_type_symbol
_atom_site_fract_x
_atom_site_fract_y
_atom_site_fract_z
O24 O 0.49222(15) 0.02591(17) 0.32155(7)
Mn4 Mn 0.62019(3) 0.03493(4) 0.311210(16)
Cr2 Cr 0.37782(3) 0.78105(4) 0.317095(17)
O3 O 0.14834(14) 0.51571(17) 0.14008(7)
O4 O 0.24556(15) 0.52521(18) 0.07962(7)
O8 O 0.09455(15) 0.94160(17) 0.41477(7)
O11 O 0.12188(17) 0.64159(18) 0.42333(8)
O12 O 0.26204(15) 0.78720(19) 0.42089(7)
O13 O 0.15805(14) 0.79737(18) 0.35721(7)
O14 O 0.26060(14) 0.79374(17) 0.31529(7)
O15 O 0.36072(14) 0.77220(18) 0.37649(7)
O16 O 0.39330(14) 0.91961(17) 0.32199(7)
O17 O 0.49485(14) 0.78102(17) 0.32231(8)
O18 O 0.38411(15) 0.78360(17) 0.25733(7)
O19 O 0.37254(14) 0.64284(17) 0.30757(7)
O20 O 0.38549(16) 0.68488(18) 0.20363(7)
O21 O 0.37515(14) 0.53893(17) 0.25626(7)
O22 O 0.25033(15) 0.51880(18) 0.18517(7)
O23 O 0.35019(15) 0.53801(19) 0.12288(7)
O25 O 0.59657(14) 0.88181(18) 0.31473(8)
C2 C 0.0230(2) 0.9578(2) 0.41723(10)
C5 C 0.0587(3) 0.5878(3) 0.40409(15)
H1 H 0.0087 0.6016 0.4173
H2 H 0.0705 0.5206 0.4066
H3 H 0.0543 0.6047 0.3753
C6 C 0.2297(2) 0.7920(2) 0.35018(10)
C7 C 0.2887(2) 0.7825(3) 0.38640(11)
C8 C 0.4658(2) 0.9444(3) 0.32082(10)
C9 C 0.5256(2) 0.8628(3) 0.31879(11)
C10 C 0.3826(2) 0.7026(3) 0.24057(11)
C11 C 0.37588(19) 0.6197(3) 0.27014(10)
C12 C 0.2788(2) 0.5296(3) 0.11480(11)
C13 C 0.2213(2) 0.5211(2) 0.15023(11)
Mn1 Mn 0.12809(3) 0.79296(4) 0.421740(16)
Mn2 Mn 0.37981(3) 0.53493(4) 0.188790(16)
Cr3 Cr 0.12771(3) 0.53388(4) 0.080950(17)
O28 O 0.13342(17) 0.8003(2) 0.48504(8)
O29 O 0.50778(15) 0.52591(17) 0.17845(7)
O30 O 0.40343(14) 0.38181(18) 0.18527(8)
Cr1 Cr 0.87229(3) 0.03388(4) 0.419050(17)
O1 O 0.87244(19) 0.30335(19) 0.44453(8)
O2 O 0.86572(15) 0.16879(17) 0.41053(7)
O5 O 0.87809(15) 0.06955(18) 0.47723(7)
O6 O 0.98927(15) 0.03798(17) 0.41406(7)
O10 O 0.86658(17) 0.1997(2) 0.51496(8)
C1 C 0.8698(2) 0.2178(3) 0.44315(11)
C4 C 0.8714(2) 0.1584(3) 0.48228(10)
O26 O 0.85166(14) 0.01571(17) 0.35992(7)
O27 O 0.75444(15) 0.02521(18) 0.42038(7)
Mn3 Mn 0.87191(3) 0.20704(4) 0.578260(16)
O1_2 O 0.12756(19) 0.80335(19) 0.05547(8)
O2_2 O 0.13428(15) 0.66879(17) 0.08947(7)
O5_2 O 0.12191(15) 0.56955(18) 0.02277(7)
O6_2 O 0.01073(15) 0.53798(17) 0.08594(7)
O7 O 0.10655(14) 0.39705(17) 0.07274(7)
O9 O 0.00557(15) 0.29404(17) 0.07637(7)
C1_2 C 0.1302(2) 0.7178(3) 0.05685(11)
C3 C 0.0342(2) 0.3748(3) 0.07663(10)
C4_2 C 0.1286(2) 0.6584(3) 0.01772(10)
O10_2 O 0.13342(17) 0.6997(2) 0.98504(8)
Mn3_2 Mn 0.12809(3) 0.70704(4) 0.921740(16)
Cr2_2 Cr 0.62218(3) 0.28105(4) 0.182905(17)
O8_2 O 0.90545(15) 0.44160(17) 0.08523(7)
O11_2 O 0.87812(17) 0.14159(18) 0.07667(8)
O12_2 O 0.73796(15) 0.28720(19) 0.07911(7)
O13_2 O 0.84195(14) 0.29737(18) 0.14279(7)
O14_2 O 0.73940(14) 0.29374(17) 0.18471(7)
O15_2 O 0.63928(14) 0.27220(18) 0.12351(7)
O16_2 O 0.60670(14) 0.41961(17) 0.17801(7)
O17_2 O 0.50515(14) 0.28102(17) 0.17769(8)
O18_2 O 0.61589(15) 0.28360(17) 0.24267(7)
O19_2 O 0.62746(14) 0.14284(17) 0.19243(7)
O20_2 O 0.61451(16) 0.18488(18) 0.29637(7)
O21_2 O 0.62485(14) 0.03893(17) 0.24374(7)
O22_2 O 0.74967(15) 0.01880(18) 0.31483(7)
O23_2 O 0.64981(15) 0.03801(19) 0.37712(7)
C2_2 C 0.9770(2) 0.4578(2) 0.08277(10)
C5_2 C 0.9413(3) 0.0878(3) 0.09591(15)
H1_2 H 0.9913 0.1016 0.0827
H2_2 H 0.9295 0.0206 0.0934
H3_2 H 0.9457 0.1047 0.1247
C6_2 C 0.7703(2) 0.2920(2) 0.14982(10)
C7_2 C 0.7113(2) 0.2825(3) 0.11360(11)
C8_2 C 0.5342(2) 0.4444(3) 0.17918(10)
C9_2 C 0.4744(2) 0.3628(3) 0.18121(11)
C10_2 C 0.6174(2) 0.2026(3) 0.25943(11)
C11_2 C 0.62412(19) 0.1197(3) 0.22986(10)
C12_2 C 0.7212(2) 0.0296(3) 0.38520(11)
C13_2 C 0.7787(2) 0.0211(2) 0.34977(11)
Mn1_2 Mn 0.87191(3) 0.29296(4) 0.078260(16)
O28_2 O 0.86658(17) 0.3003(2) 0.01496(8)
Cr1_2 Cr 0.12771(3) 0.96612(4) 0.580950(17)
O1_3 O 0.12756(19) 0.69665(19) 0.55547(8)
O2_3 O 0.13428(15) 0.83121(17) 0.58947(7)
O5_3 O 0.12191(15) 0.93045(18) 0.52277(7)
O6_3 O 0.01073(15) 0.96202(17) 0.58594(7)
C1_3 C 0.1302(2) 0.7822(3) 0.55685(11)
C4_3 C 0.1286(2) 0.8416(3) 0.51772(10)
O26_2 O 0.14834(14) 0.98429(17) 0.64008(7)
O27_2 O 0.24556(15) 0.97479(18) 0.57962(7)
Cr2_3 Cr 0.62218(3) 0.21895(4) 0.682905(17)
O3_2 O 0.85166(14) 0.48429(17) 0.85992(7)
O4_2 O 0.75444(15) 0.47479(18) 0.92038(7)
O8_3 O 0.90545(15) 0.05840(17) 0.58523(7)
O11_3 O 0.87812(17) 0.35841(18) 0.57667(8)
O12_3 O 0.73796(15) 0.21280(19) 0.57911(7)
O13_3 O 0.84195(14) 0.20263(18) 0.64279(7)
O14_3 O 0.73940(14) 0.20626(17) 0.68471(7)
O15_3 O 0.63928(14) 0.22780(18) 0.62351(7)
O16_3 O 0.60670(14) 0.08039(17) 0.67801(7)
O17_3 O 0.50515(14) 0.21898(17) 0.67769(8)
O18_3 O 0.61589(15) 0.21640(17) 0.74267(7)
O19_3 O 0.62746(14) 0.35716(17) 0.69243(7)
O20_3 O 0.61451(16) 0.31512(18) 0.79637(7)
O21_3 O 0.62485(14) 0.46107(17) 0.74374(7)
O22_3 O 0.74967(15) 0.48120(18) 0.81483(7)
O23_3 O 0.64981(15) 0.46199(19) 0.87712(7)
O25_2 O 0.40343(14) 0.11819(18) 0.68527(8)
C2_3 C 0.9770(2) 0.0422(2) 0.58277(10)
C5_3 C 0.9413(3) 0.4122(3) 0.59591(15)
H1_3 H 0.9913 0.3984 0.5827
H2_3 H 0.9295 0.4794 0.5934
H3_3 H 0.9457 0.3953 0.6247
C6_3 C 0.7703(2) 0.2080(2) 0.64982(10)
C7_3 C 0.7113(2) 0.2175(3) 0.61360(11)
C8_3 C 0.5342(2) 0.0556(3) 0.67918(10)
C9_3 C 0.4744(2) 0.1372(3) 0.68121(11)
C10_3 C 0.6174(2) 0.2974(3) 0.75943(11)
C11_3 C 0.62412(19) 0.3803(3) 0.72986(10)
C12_3 C 0.7212(2) 0.4704(3) 0.88520(11)
C13_3 C 0.7787(2) 0.4789(2) 0.84977(11)
Mn2_2 Mn 0.62019(3) 0.46507(4) 0.811210(16)
Cr3_2 Cr 0.87229(3) 0.46612(4) 0.919050(17)
O29_2 O 0.49222(15) 0.47409(17) 0.82155(7)
O30_2 O 0.59657(14) 0.61819(18) 0.81473(8)
O24_2 O 0.50778(15) 0.97409(17) 0.67845(7)
Mn4_2 Mn 0.37981(3) 0.96507(4) 0.688790(16)
Cr2_4 Cr 0.37782(3) 0.71895(4) 0.817095(17)
O8_4 O 0.09455(15) 0.55840(17) 0.91477(7)
O11_4 O 0.12188(17) 0.85841(18) 0.92333(8)
O12_4 O 0.26204(15) 0.71280(19) 0.92089(7)
O13_4 O 0.15805(14) 0.70263(18) 0.85721(7)
O14_4 O 0.26060(14) 0.70626(17) 0.81529(7)
O15_4 O 0.36072(14) 0.72780(18) 0.87649(7)
O16_4 O 0.39330(14) 0.58039(17) 0.82199(7)
O17_4 O 0.49485(14) 0.71898(17) 0.82231(8)
O18_4 O 0.38411(15) 0.71640(17) 0.75733(7)
O19_4 O 0.37254(14) 0.85716(17) 0.80757(7)
O20_4 O 0.38549(16) 0.81512(18) 0.70363(7)
O21_4 O 0.37515(14) 0.96107(17) 0.75626(7)
O22_4 O 0.25033(15) 0.98120(18) 0.68517(7)
O23_4 O 0.35019(15) 0.96199(19) 0.62288(7)
C2_4 C 0.0230(2) 0.5422(2) 0.91723(10)
C5_4 C 0.0587(3) 0.9122(3) 0.90409(15)
H1_4 H 0.0087 0.8984 0.9173
H2_4 H 0.0705 0.9794 0.9066
H3_4 H 0.0543 0.8953 0.8753
C6_4 C 0.2297(2) 0.7080(2) 0.85018(10)
C7_4 C 0.2887(2) 0.7175(3) 0.88640(11)
C8_4 C 0.4658(2) 0.5556(3) 0.82082(10)
C9_4 C 0.5256(2) 0.6372(3) 0.81879(11)
C10_4 C 0.3826(2) 0.7974(3) 0.74057(11)
C11_4 C 0.37588(19) 0.8803(3) 0.77014(10)
C12_4 C 0.2788(2) 0.9704(3) 0.61480(11)
C13_4 C 0.2213(2) 0.9789(2) 0.65023(11)
O1_4 O 0.87244(19) 0.19665(19) 0.94453(8)
O2_4 O 0.86572(15) 0.33121(17) 0.91053(7)
O5_4 O 0.87809(15) 0.43045(18) 0.97723(7)
O6_4 O 0.98927(15) 0.46202(17) 0.91406(7)
O7_2 O 0.89345(14) 0.60295(17) 0.92726(7)
O9_2 O 0.99443(15) 0.70596(17) 0.92363(7)
C1_4 C 0.8698(2) 0.2822(3) 0.94315(11)
C3_2 C 0.9658(2) 0.6252(3) 0.92337(10)
C4_4 C 0.8714(2) 0.3416(3) 0.98228(10)
O7_3 O 0.89345(14) 0.89705(17) 0.42726(7)
O9_3 O 0.99443(15) 0.79404(17) 0.42363(7)
C3_3 C 0.9658(2) 0.8748(3) 0.42337(10)
O7_4 O 0.10655(14) 0.10295(17) 0.57274(7)
O9_4 O 0.00557(15) 0.20596(17) 0.57637(7)
C3_4 C 0.0342(2) 0.1252(3) 0.57663(10)
F1 F 0.07684(17) 0.00470(18) 0.14312(7)
N1 N 0.12591(17) 0.0586(2) 0.21815(9)
H8 H 0.1426 0.0644 0.2445
H9 H 0.0736 0.0733 0.2160
H10 H 0.1541 0.0982 0.2024
C14 C 0.1378(2) 0.9621(3) 0.20479(10)
C15 C 0.1130(2) 0.9375(3) 0.16630(12)
C16 C 0.1243(3) 0.8493(3) 0.15093(13)
H4 H 0.1066 0.8336 0.1242
C17 C 0.1624(3) 0.7835(3) 0.17548(13)
H5 H 0.1708 0.7216 0.1656
C18 C 0.1881(2) 0.8072(3) 0.21422(12)
H6 H 0.2144 0.7617 0.2308
C19 C 0.1759(2) 0.8967(3) 0.22907(11)
H7 H 0.1937 0.9129 0.2557
C14_2 C 0.8622(2) 0.4621(3) 0.29521(10)
C15_2 C 0.8870(2) 0.4375(3) 0.33370(12)
C16_2 C 0.8757(3) 0.3493(3) 0.34907(13)
H4_2 H 0.8934 0.3336 0.3758
C17_2 C 0.8376(3) 0.2835(3) 0.32452(13)
H5_2 H 0.8292 0.2216 0.3344
C18_2 C 0.8119(2) 0.3072(3) 0.28578(12)
H6_2 H 0.7856 0.2617 0.2692
C19_2 C 0.8241(2) 0.3967(3) 0.27093(11)
H7_2 H 0.8063 0.4129 0.2443
F1_2 F 0.92316(17) 0.50470(18) 0.35688(7)
N1_2 N 0.87409(17) 0.5586(2) 0.28185(9)
H8_2 H 0.8574 0.5644 0.2555
H9_2 H 0.9264 0.5733 0.2840
H10_2 H 0.8459 0.5982 0.2976
C14_3 C 0.8622(2) 0.0379(3) 0.79521(10)
C15_3 C 0.8870(2) 0.0625(3) 0.83370(12)
C16_3 C 0.8757(3) 0.1507(3) 0.84907(13)
H4_3 H 0.8934 0.1664 0.8758
C17_3 C 0.8376(3) 0.2165(3) 0.82452(13)
H5_3 H 0.8292 0.2784 0.8344
C18_3 C 0.8119(2) 0.1928(3) 0.78578(12)
H6_3 H 0.7856 0.2383 0.7692
C19_3 C 0.8241(2) 0.1033(3) 0.77093(11)
H7_3 H 0.8063 0.0871 0.7443
F1_3 F 0.92316(17) 0.99530(18) 0.85688(7)
N1_3 N 0.87409(17) 0.9414(2) 0.78185(9)
H8_3 H 0.8574 0.9356 0.7555
H9_3 H 0.9264 0.9267 0.7840
H10_3 H 0.8459 0.9018 0.7976
C14_4 C 0.1378(2) 0.5379(3) 0.70479(10)
C15_4 C 0.1130(2) 0.5625(3) 0.66630(12)
C16_4 C 0.1243(3) 0.6507(3) 0.65093(13)
H4_4 H 0.1066 0.6664 0.6242
C17_4 C 0.1624(3) 0.7165(3) 0.67548(13)
H5_4 H 0.1708 0.7784 0.6656
C18_4 C 0.1881(2) 0.6928(3) 0.71422(12)
H6_4 H 0.2144 0.7383 0.7308
C19_4 C 0.1759(2) 0.6033(3) 0.72907(11)
H7_4 H 0.1937 0.5871 0.7557
F1_4 F 0.07684(17) 0.49530(18) 0.64312(7)
N1_4 N 0.12591(17) 0.4414(2) 0.71815(9)
H8_4 H 0.1426 0.4356 0.7445
H9_4 H 0.0736 0.4267 0.7160
H10_4 H 0.1541 0.4018 0.7024
C20 C 0.3864(3) 0.3123(4) 0.42062(16)
C21 C 0.3651(3) 0.4014(4) 0.4189(2)
C22 C 0.3673(4) 0.4592(5) 0.3852(2)
H11 H 0.3515 0.5233 0.3860
C23 C 0.3930(4) 0.4186(5) 0.3515(3)
H12 H 0.3955 0.4552 0.3275
C24 C 0.4169(4) 0.3231(5) 0.35002(19)
H13 H 0.4335 0.2964 0.3252
C25 C 0.4159(3) 0.2702(4) 0.38425(13)
H14 H 0.4341 0.2071 0.3842
F2 F 0.3386(2) 0.4397(2) 0.45466(12)
N2 N 0.38425(19) 0.2587(2) 0.45821(10)
H15 H 0.4175 0.2854 0.4770
H16 H 0.3998 0.1985 0.4535
H17 H 0.3341 0.2587 0.4676
H11_2 H 0.6485 0.0233 0.1140
C20_2 C 0.6136(3) 0.8123(4) 0.07938(16)
C21_2 C 0.6349(3) 0.9014(4) 0.0811(2)
C22_2 C 0.6327(4) 0.9592(5) 0.1148(2)
C23_2 C 0.6070(4) 0.9186(5) 0.1485(3)
H12_2 H 0.6045 0.9552 0.1725
C24_2 C 0.5831(4) 0.8231(5) 0.14998(19)
H13_2 H 0.5665 0.7964 0.1748
C25_2 C 0.5841(3) 0.7702(4) 0.11575(13)
H14_2 H 0.5659 0.7071 0.1158
F2_2 F 0.6614(2) 0.9397(2) 0.04534(12)
N2_2 N 0.61575(19) 0.7587(2) 0.04179(10)
H15_2 H 0.5825 0.7854 0.0230
H16_2 H 0.6002 0.6985 0.0465
H17_2 H 0.6659 0.7587 0.0324
C20_3 C 0.6136(3) 0.6877(4) 0.57938(16)
C21_3 C 0.6349(3) 0.5986(4) 0.5811(2)
C22_3 C 0.6327(4) 0.5408(5) 0.6148(2)
H11_3 H 0.6485 0.4767 0.6140
C23_3 C 0.6070(4) 0.5814(5) 0.6485(3)
H12_3 H 0.6045 0.5448 0.6725
C24_3 C 0.5831(4) 0.6769(5) 0.64998(19)
H13_3 H 0.5665 0.7036 0.6748
C25_3 C 0.5841(3) 0.7298(4) 0.61575(13)
H14_3 H 0.5659 0.7929 0.6158
F2_3 F 0.6614(2) 0.5603(2) 0.54534(12)
N2_3 N 0.61575(19) 0.7413(2) 0.54179(10)
H15_3 H 0.5825 0.7146 0.5230
H16_3 H 0.6002 0.8015 0.5465
H17_3 H 0.6659 0.7413 0.5324
C20_4 C 0.3864(3) 0.1877(4) 0.92062(16)
C21_4 C 0.3651(3) 0.0986(4) 0.9189(2)
C22_4 C 0.3673(4) 0.0408(5) 0.8852(2)
C23_4 C 0.3930(4) 0.0814(5) 0.8515(3)
H12_4 H 0.3955 0.0448 0.8275
C24_4 C 0.4169(4) 0.1769(5) 0.85002(19)
H13_4 H 0.4335 0.2036 0.8252
C25_4 C 0.4159(3) 0.2298(4) 0.88425(13)
H14_4 H 0.4341 0.2929 0.8842
F2_4 F 0.3386(2) 0.0603(2) 0.95466(12)
N2_4 N 0.38425(19) 0.2413(2) 0.95821(10)
H15_4 H 0.4175 0.2146 0.9770
H16_4 H 0.3998 0.3015 0.9535
H17_4 H 0.3341 0.2413 0.9676
H11_4 H 0.3515 0.9767 0.8860
loop_
_geom_bond_atom_site_label_1
_geom_bond_atom_site_label_2
_geom_bond_site_symmetry_1
_geom_bond_site_symmetry_2
Mn4 O24 1_555 1_555
Cr2 O14 1_555 1_555
O3 C13 1_555 1_555
O4 C12 1_555 1_555
O8 C2 1_555 1_555
O11 C5 1_555 1_555
O12 C7 1_555 1_555
O13 C6 1_555 1_555
O14 C6 1_555 1_555
O15 Cr2 1_555 1_555
O16 Cr2 1_555 1_555
O17 Cr2 1_555 1_555
O18 Cr2 1_555 1_555
O19 Cr2 1_555 1_555
O20 C10 1_555 1_555
O21 C11 1_555 1_555
O22 C13 1_555 1_555
O23 C12 1_555 1_555
O25 C9 1_555 1_555
C5 H1 1_555 1_555
H2 C5 1_555 1_555
H3 C5 1_555 1_555
C6 C7 1_555 1_555
C7 O15 1_555 1_555
C8 O16 1_555 1_555
C9 O17 1_555 1_555
C10 O18 1_555 1_555
C11 O19 1_555 1_555
C12 C13 1_555 1_555
Mn1 O8 1_555 1_555
Mn2 O20 1_555 1_555
Cr3 O3 1_555 1_555
O28 Mn1 1_555 1_555
O29 Mn2 1_555 1_555
O30 Mn2 1_555 1_555
O4 Cr3 1_555 1_555
O11 Mn1 1_555 1_555
O12 Mn1 1_555 1_555
O13 Mn1 1_555 1_555
O21 Mn2 1_555 1_555
O22 Mn2 1_555 1_555
O23 Mn2 1_555 1_555
C8 C9 1_555 1_555
C10 C11 1_555 1_555
Cr1 O2 1_555 1_555
O1 C1 1_555 1_555
O2 C1 1_555 1_555
O5 Cr1 1_555 1_555
O6 Cr1 1_555 1_555
O10 C4 1_555 1_555
C1 C4 1_555 1_555
C4 O5 1_555 1_555
O26 Cr1 1_555 1_555
O27 Cr1 1_555 1_555
Mn3 O10 1_555 1_555
Cr3 O2_2 1_555 1_555
O1_2 C1_2 1_555 1_555
O2_2 C1_2 1_555 1_555
O5_2 Cr3 1_555 1_555
O6_2 Cr3 1_555 1_555
O7 Cr3 1_555 1_555
O9 C3 1_555 1_555
C1_2 C4_2 1_555 1_555
C3 O7 1_555 1_555
C4_2 O5_2 1_555 1_555
Mn3_2 O10_2 1_555 1_555
Cr2_2 O14_2 1_555 1_555
O26 C13_2 1_555 1_555
O27 C12_2 1_555 1_555
O8_2 C2_2 1_555 1_555
O11_2 C5_2 1_555 1_555
O12_2 C7_2 1_555 1_555
O13_2 C6_2 1_555 1_555
O14_2 C6_2 1_555 1_555
O15_2 Cr2_2 1_555 1_555
O16_2 Cr2_2 1_555 1_555
O17_2 Cr2_2 1_555 1_555
O18_2 Cr2_2 1_555 1_555
O19_2 Cr2_2 1_555 1_555
O20_2 C10_2 1_555 1_555
O21_2 C11_2 1_555 1_555
O22_2 C13_2 1_555 1_555
O23_2 C12_2 1_555 1_555
O29 C8_2 1_555 1_555
O30 C9_2 1_555 1_555
C5_2 H1_2 1_555 1_555
H2_2 C5_2 1_555 1_555
H3_2 C5_2 1_555 1_555
C6_2 C7_2 1_555 1_555
C7_2 O15_2 1_555 1_555
C8_2 O16_2 1_555 1_555
C9_2 O17_2 1_555 1_555
C10_2 O18_2 1_555 1_555
C11_2 O19_2 1_555 1_555
C12_2 C13_2 1_555 1_555
Mn1_2 O8_2 1_555 1_555
Mn4 O20_2 1_555 1_555
O28_2 Mn1_2 1_555 1_555
O11_2 Mn1_2 1_555 1_555
O12_2 Mn1_2 1_555 1_555
O13_2 Mn1_2 1_555 1_555
O21_2 Mn4 1_555 1_555
O22_2 Mn4 1_555 1_555
O23_2 Mn4 1_555 1_555
C8_2 C9_2 1_555 1_555
C10_2 C11_2 1_555 1_555
Cr1_2 O2_3 1_555 1_555
O1_3 C1_3 1_555 1_555
O2_3 C1_3 1_555 1_555
O5_3 Cr1_2 1_555 1_555
O6_3 Cr1_2 1_555 1_555
O28 C4_3 1_555 1_555
C1_3 C4_3 1_555 1_555
C4_3 O5_3 1_555 1_555
O26_2 Cr1_2 1_555 1_555
O27_2 Cr1_2 1_555 1_555
Cr2_3 O14_3 1_555 1_555
O3_2 C13_3 1_555 1_555
O4_2 C12_3 1_555 1_555
O8_3 C2_3 1_555 1_555
O11_3 C5_3 1_555 1_555
O12_3 C7_3 1_555 1_555
O13_3 C6_3 1_555 1_555
O14_3 C6_3 1_555 1_555
O15_3 Cr2_3 1_555 1_555
O16_3 Cr2_3 1_555 1_555
O17_3 Cr2_3 1_555 1_555
O18_3 Cr2_3 1_555 1_555
O19_3 Cr2_3 1_555 1_555
O20_3 C10_3 1_555 1_555
O21_3 C11_3 1_555 1_555
O22_3 C13_3 1_555 1_555
O23_3 C12_3 1_555 1_555
O25_2 C9_3 1_555 1_555
C5_3 H1_3 1_555 1_555
H2_3 C5_3 1_555 1_555
H3_3 C5_3 1_555 1_555
C6_3 C7_3 1_555 1_555
C7_3 O15_3 1_555 1_555
C8_3 O16_3 1_555 1_555
C9_3 O17_3 1_555 1_555
C10_3 O18_3 1_555 1_555
C11_3 O19_3 1_555 1_555
C12_3 C13_3 1_555 1_555
Mn3 O8_3 1_555 1_555
Mn2_2 O20_3 1_555 1_555
Cr3_2 O3_2 1_555 1_555
O29_2 Mn2_2 1_555 1_555
O30_2 Mn2_2 1_555 1_555
O4_2 Cr3_2 1_555 1_555
O11_3 Mn3 1_555 1_555
O12_3 Mn3 1_555 1_555
O13_3 Mn3 1_555 1_555
O21_3 Mn2_2 1_555 1_555
O22_3 Mn2_2 1_555 1_555
O23_3 Mn2_2 1_555 1_555
C8_3 C9_3 1_555 1_555
C10_3 C11_3 1_555 1_555
Mn4_2 O24_2 1_555 1_555
Cr2_4 O14_4 1_555 1_555
O26_2 C13_4 1_555 1_555
O27_2 C12_4 1_555 1_555
O8_4 C2_4 1_555 1_555
O11_4 C5_4 1_555 1_555
O12_4 C7_4 1_555 1_555
O13_4 C6_4 1_555 1_555
O14_4 C6_4 1_555 1_555
O15_4 Cr2_4 1_555 1_555
O16_4 Cr2_4 1_555 1_555
O17_4 Cr2_4 1_555 1_555
O18_4 Cr2_4 1_555 1_555
O19_4 Cr2_4 1_555 1_555
O20_4 C10_4 1_555 1_555
O21_4 C11_4 1_555 1_555
O22_4 C13_4 1_555 1_555
O23_4 C12_4 1_555 1_555
O29_2 C8_4 1_555 1_555
O30_2 C9_4 1_555 1_555
C5_4 H1_4 1_555 1_555
H2_4 C5_4 1_555 1_555
H3_4 C5_4 1_555 1_555
C6_4 C7_4 1_555 1_555
C7_4 O15_4 1_555 1_555
C8_4 O16_4 1_555 1_555
C9_4 O17_4 1_555 1_555
C10_4 O18_4 1_555 1_555
C11_4 O19_4 1_555 1_555
C12_4 C13_4 1_555 1_555
Mn3_2 O8_4 1_555 1_555
Mn4_2 O20_4 1_555 1_555
O11_4 Mn3_2 1_555 1_555
O12_4 Mn3_2 1_555 1_555
O13_4 Mn3_2 1_555 1_555
O21_4 Mn4_2 1_555 1_555
O22_4 Mn4_2 1_555 1_555
O23_4 Mn4_2 1_555 1_555
C8_4 C9_4 1_555 1_555
C10_4 C11_4 1_555 1_555
Cr3_2 O2_4 1_555 1_555
O1_4 C1_4 1_555 1_555
O2_4 C1_4 1_555 1_555
O5_4 Cr3_2 1_555 1_555
O6_4 Cr3_2 1_555 1_555
O7_2 Cr3_2 1_555 1_555
O9_2 C3_2 1_555 1_555
C1_4 C4_4 1_555 1_555
C3_2 O7_2 1_555 1_555
C4_4 O5_4 1_555 1_555
O9_3 C3_3 1_555 1_555
C3_3 O7_3 1_555 1_555
O9_4 C3_4 1_555 1_555
C3_4 O7_4 1_555 1_555
H8 N1 1_555 1_555
H9 N1 1_555 1_555
H10 N1 1_555 1_555
C14 C15 1_555 1_555
C15 C16 1_555 1_555
C16 H4 1_555 1_555
C17 C16 1_555 1_555
H5 C17 1_555 1_555
C18 C17 1_555 1_555
H6 C18 1_555 1_555
C19 C14 1_555 1_555
H7 C19 1_555 1_555
C18 C19 1_555 1_555
C14_2 C15_2 1_555 1_555
C15_2 C16_2 1_555 1_555
C16_2 H4_2 1_555 1_555
C17_2 C16_2 1_555 1_555
H5_2 C17_2 1_555 1_555
C18_2 C17_2 1_555 1_555
H6_2 C18_2 1_555 1_555
C19_2 C14_2 1_555 1_555
H7_2 C19_2 1_555 1_555
F1_2 C15_2 1_555 1_555
N1_2 C14_2 1_555 1_555
H8_2 N1_2 1_555 1_555
H9_2 N1_2 1_555 1_555
H10_2 N1_2 1_555 1_555
C18_2 C19_2 1_555 1_555
C14_3 C15_3 1_555 1_555
C15_3 C16_3 1_555 1_555
C16_3 H4_3 1_555 1_555
C17_3 C16_3 1_555 1_555
H5_3 C17_3 1_555 1_555
C18_3 C17_3 1_555 1_555
H6_3 C18_3 1_555 1_555
C19_3 C14_3 1_555 1_555
H7_3 C19_3 1_555 1_555
C18_3 C19_3 1_555 1_555
H8_3 N1_3 1_555 1_555
H9_3 N1_3 1_555 1_555
H10_3 N1_3 1_555 1_555
C14_4 C15_4 1_555 1_555
C15_4 C16_4 1_555 1_555
C16_4 H4_4 1_555 1_555
C17_4 C16_4 1_555 1_555
H5_4 C17_4 1_555 1_555
C18_4 C17_4 1_555 1_555
H6_4 C18_4 1_555 1_555
C19_4 C14_4 1_555 1_555
H7_4 C19_4 1_555 1_555
F1_4 C15_4 1_555 1_555
N1_4 C14_4 1_555 1_555
H8_4 N1_4 1_555 1_555
H9_4 N1_4 1_555 1_555
H10_4 N1_4 1_555 1_555
C18_4 C19_4 1_555 1_555
C20 C21 1_555 1_555
C21 C22 1_555 1_555
C22 H11 1_555 1_555
C23 C22 1_555 1_555
H12 C23 1_555 1_555
C24 C23 1_555 1_555
H13 C24 1_555 1_555
C25 C20 1_555 1_555
H14 C25 1_555 1_555
F2 C21 1_555 1_555
N2 C20 1_555 1_555
H15 N2 1_555 1_555
H16 N2 1_555 1_555
H17 N2 1_555 1_555
C24 C25 1_555 1_555
C20_2 C21_2 1_555 1_555
C21_2 C22_2 1_555 1_555
C23_2 C22_2 1_555 1_555
H12_2 C23_2 1_555 1_555
C24_2 C23_2 1_555 1_555
H13_2 C24_2 1_555 1_555
C25_2 C20_2 1_555 1_555
H14_2 C25_2 1_555 1_555
F2_2 C21_2 1_555 1_555
N2_2 C20_2 1_555 1_555
H15_2 N2_2 1_555 1_555
H16_2 N2_2 1_555 1_555
H17_2 N2_2 1_555 1_555
C24_2 C25_2 1_555 1_555
C20_3 C21_3 1_555 1_555
C21_3 C22_3 1_555 1_555
C22_3 H11_3 1_555 1_555
C23_3 C22_3 1_555 1_555
H12_3 C23_3 1_555 1_555
C24_3 C23_3 1_555 1_555
H13_3 C24_3 1_555 1_555
C25_3 C20_3 1_555 1_555
H14_3 C25_3 1_555 1_555
F2_3 C21_3 1_555 1_555
N2_3 C20_3 1_555 1_555
H15_3 N2_3 1_555 1_555
H16_3 N2_3 1_555 1_555
H17_3 N2_3 1_555 1_555
C24_3 C25_3 1_555 1_555
C20_4 C21_4 1_555 1_555
C21_4 C22_4 1_555 1_555
C23_4 C22_4 1_555 1_555
H12_4 C23_4 1_555 1_555
C24_4 C23_4 1_555 1_555
H13_4 C24_4 1_555 1_555
C25_4 C20_4 1_555 1_555
H14_4 C25_4 1_555 1_555
F2_4 C21_4 1_555 1_555
N2_4 C20_4 1_555 1_555
H15_4 N2_4 1_555 1_555
H16_4 N2_4 1_555 1_555
H17_4 N2_4 1_555 1_555
C24_4 C25_4 1_555 1_555

#END
