
###############################################################################
#
# This file contains modified crystal structure data generated from the
# MOF subset of the Cambridge Structural Database (CSD) v543 
# hosted by the Cambridge Crystallographic Data Centre (CCDC).
#
# This work is licensed under the Creative Commons
# Attribution-NonCommercial-ShareAlike 4.0 International License.
# To view a copy of this license, visit
# http://creativecommons.org/licenses/by-nc-sa/4.0/
# or send a letter to
# Creative Commons, PO Box 1866, Mountain View, CA 94042, USA.
#
# CIF created using the CSD Python API on 29 September 2022
# The structure has been converted into the P1 space group
# The structure has a 3D framework
# The original CSD entry RUGPAM is in the monoclinic crystal system
# The framework has been calculated to contain at least 10.0% void space
# The void calculation uses a probe of radius 1.32A, grid spacing 0.4
#
###############################################################################

data_RUGPAM
_chemical_formula_moiety         '(C240 H168 N24 O32 Zn6)n'
_symmetry_cell_setting           triclinic
_symmetry_space_group_name_H-M   'P 1'
_symmetry_Int_Tables_number      1
_space_group_name_Hall           'P 1'
loop_
_symmetry_equiv_pos_site_id
_symmetry_equiv_pos_as_xyz
1 x,y,z
_cell_length_a                   20.013(4)
_cell_length_b                   14.177(3)
_cell_length_c                   33.261(5)
_cell_angle_alpha                90
_cell_angle_beta                 117.343(9)
_cell_angle_gamma                90
_cell_volume                     8382.59
loop_
_atom_site_label
_atom_site_type_symbol
_atom_site_fract_x
_atom_site_fract_y
_atom_site_fract_z
C20 C 0.5514(5) 0.0064(6) 0.8408(2)
H14 H 0.5452 0.0674 0.8488
Zn3 Zn 0.51515(4) 0.09341(6) 0.75407(2)
C24 C 0.8195(4) 0.7313(6) 0.9760(2)
H18 H 0.7745 0.7637 0.9671
C25 C 0.8715(4) 0.7601(5) 0.9618(2)
C26 C 0.9383(3) 0.7114(5) 0.9812(2)
H19 H 0.9773 0.7321 0.9755
C28 C 0.8544(4) 0.8336(5) 0.9292(2)
C29 C 0.7881(4) 0.8831(5) 0.9117(2)
H21 H 0.7550 0.8734 0.9238
C30 C 0.7690(4) 0.9464(5) 0.8769(2)
H22 H 0.7237 0.9789 0.8661
C31 C 0.8166(4) 0.9621(5) 0.8579(2)
C32 C 0.8830(4) 0.9171(5) 0.8763(2)
H23 H 0.9170 0.9292 0.8650
C33 C 0.9023(4) 0.8544(5) 0.9107(2)
H24 H 0.9488 0.8246 0.9223
C38 C 0.8557(5) 0.9471(6) 0.7389(2)
H27 H 0.8745 0.8936 0.7314
C39 C 0.8431(5) 0.9452(6) 0.7774(2)
H28 H 0.8538 0.8914 0.7953
C43 C 0.8791(5) 0.9453(6) 0.6177(2)
H31 H 0.8854 0.8883 0.6060
C44 C 0.8652(4) 0.9427(6) 0.6543(2)
H32 H 0.8628 0.8850 0.6669
O9 O 0.8728(2) 0.3843(3) 0.99931(13)
C3 C 0.5748(4) 0.0276(6) 0.6316(2)
C4 C 0.6023(4) 0.1041(6) 0.6589(2)
H3 H 0.6346 0.1454 0.6547
C5 C 0.5818(4) 0.1213(6) 0.6939(2)
H4 H 0.5993 0.1759 0.7112
C6 C 0.5933(4) 0.0071(6) 0.5955(2)
C10 C 0.6650(4) 0.0265(6) 0.5560(2)
H7 H 0.7047 0.0586 0.5549
C11 C 0.6462(4) 0.0488(6) 0.5901(2)
H8 H 0.6732 0.0965 0.6102
C45 C 0.3727(5) 0.0657(8) 0.7086(3)
C46 C 0.2882(4) 0.0744(6) 0.6782(2)
C47 C 0.2525(4) 0.1511(6) 0.6843(2)
H33 H 0.2794 0.1976 0.7052
C48 C 0.1731(4) 0.1580(6) 0.6578(2)
H34 H 0.1479 0.2106 0.6607
C49 C 0.1349(4) 0.0907(6) 0.6292(2)
C50 C 0.1726(4) 0.0177(6) 0.6248(2)
C51 C 0.2501(4) 0.0091(6) 0.6505(2)
C52 C 0.0521(4) 0.0909(6) 0.6019(2)
C53 C 0.6316(4) 0.1920(5) 0.8133(2)
C54 C 0.6758(3) 0.2452(5) 0.85630(19)
C55 C 0.7546(3) 0.2431(5) 0.8780(2)
H37 H 0.7802 0.2110 0.8648
C56 C 0.7940(3) 0.2886(5) 0.9187(2)
H38 H 0.8462 0.2853 0.9336
C57 C 0.7569(3) 0.3383(4) 0.93717(19)
C58 C 0.6830(3) 0.3390(5) 0.91767(19)
H39 H 0.6583 0.3698 0.9317
C59 C 0.6411(3) 0.2943(5) 0.8763(2)
H40 H 0.5889 0.2982 0.8623
C60 C 0.8013(4) 0.3889(5) 0.9807(2)
N1 N 0.5402(3) 0.0647(4) 0.70279(16)
O1 O 0.6665(3) 0.1393(4) 0.79985(15)
O2 O 0.5627(2) 0.2000(3) 0.79423(13)
O4 O 0.7672(2) 0.4369(4) 0.99647(14)
O5 O 0.4095(2) 0.1322(4) 0.72630(15)
O7 O 0.0158(3) 0.1585(4) 0.60565(14)
O8 O 0.0225(2) 0.0212(4) 0.57741(14)
C1 C 0.5098(4) 0.5024(6) 0.1741(2)
H1 H 0.4748 0.5406 0.1774
C2 C 0.5255(4) 0.5208(6) 0.1394(2)
H2 H 0.5001 0.5702 0.1200
C3_2 C 0.5748(4) 0.4724(6) 0.1316(2)
C4_2 C 0.6023(4) 0.3959(6) 0.1589(2)
H3_2 H 0.6346 0.3546 0.1547
C5_2 C 0.5818(4) 0.3787(6) 0.1939(2)
H4_2 H 0.5993 0.3241 0.2112
C6_2 C 0.5933(4) 0.4929(6) 0.0955(2)
C7 C 0.5468(5) 0.5506(6) 0.0607(3)
H5 H 0.5022 0.5725 0.0597
C8 C 0.5663(5) 0.5772(6) 0.0258(3)
H6 H 0.5372 0.6205 0.0036
C9 C 0.6304(4) 0.5361(6) 0.0258(2)
C10_2 C 0.6650(4) 0.4735(6) 0.0560(2)
H7_2 H 0.7047 0.4414 0.0549
C11_2 C 0.6462(4) 0.4512(6) 0.0901(2)
H8_2 H 0.6732 0.4035 0.1102
C45_2 C 0.3727(5) 0.4343(8) 0.2086(3)
C46_2 C 0.2882(4) 0.4256(6) 0.1782(2)
C47_2 C 0.2525(4) 0.3489(6) 0.1843(2)
H33_2 H 0.2794 0.3024 0.2052
C48_2 C 0.1731(4) 0.3420(6) 0.1578(2)
H34_2 H 0.1479 0.2894 0.1607
C49_2 C 0.1349(4) 0.4093(6) 0.1292(2)
C50_2 C 0.1726(4) 0.4823(6) 0.1248(2)
H35 H 0.1463 0.5292 0.1039
C51_2 C 0.2501(4) 0.4909(6) 0.1505(2)
H36 H 0.2744 0.5443 0.1476
C52_2 C 0.0521(4) 0.4091(6) 0.1019(2)
C53_2 C 0.6316(4) 0.3080(5) 0.3133(2)
C54_2 C 0.6758(3) 0.2548(5) 0.35630(19)
C55_2 C 0.7546(3) 0.2569(5) 0.3780(2)
H37_2 H 0.7802 0.2890 0.3648
C56_2 C 0.7940(3) 0.2114(5) 0.4187(2)
H38_2 H 0.8462 0.2147 0.4336
C57_2 C 0.7569(3) 0.1617(4) 0.43717(19)
C58_2 C 0.6830(3) 0.1610(5) 0.41767(19)
H39_2 H 0.6583 0.1302 0.4317
C59_2 C 0.6411(3) 0.2057(5) 0.3763(2)
H40_2 H 0.5889 0.2018 0.3623
C60_2 C 0.8013(4) 0.1111(5) 0.4807(2)
N1_2 N 0.5402(3) 0.4353(4) 0.20279(16)
O1_2 O 0.6665(3) 0.3607(4) 0.29985(15)
O2_2 O 0.5627(2) 0.3000(3) 0.29423(13)
O3 O 0.8728(2) 0.1157(3) 0.49931(13)
O4_2 O 0.7672(2) 0.0631(4) 0.49647(14)
O5_2 O 0.4095(2) 0.3678(4) 0.22630(15)
O6 O 0.3986(3) 0.5143(5) 0.21068(19)
O7_2 O 0.0158(3) 0.3415(4) 0.10565(14)
O8_2 O 0.0225(2) 0.4788(4) 0.07741(14)
Zn1 Zn 0.51515(4) 0.40659(6) 0.25407(2)
N7 N 0.5421(3) 0.5087(4) 0.29915(15)
Zn5 Zn 0.91387(4) 0.02493(6) 0.54891(2)
C12 C 0.6275(4) 0.6229(6) 0.9594(2)
C13 C 0.5958(4) 0.7042(6) 0.9622(2)
H9 H 0.5843 0.7119 0.9861
C14 C 0.5791(4) 0.7769(6) 0.9318(2)
H10 H 0.5582 0.8324 0.9359
C15 C 0.5929(4) 0.7682(6) 0.8961(2)
C16 C 0.6242(4) 0.6856(6) 0.8935(2)
H11 H 0.6341 0.6772 0.8690
C17 C 0.6421(4) 0.6151(6) 0.9233(2)
H12 H 0.6644 0.5606 0.9194
C18 C 0.5751(4) 0.8438(6) 0.8635(2)
C19 C 0.5698(4) 0.9357(6) 0.8726(2)
H13 H 0.5789 0.9520 0.9018
C21 C 0.5511(5) 0.9037(7) 0.7911(2)
H15 H 0.5442 0.8898 0.7621
C22 C 0.5693(4) 0.8305(6) 0.8204(2)
H16 H 0.5781 0.7712 0.8118
N2 N 0.6473(3) 0.5534(4) 0.99053(18)
H41 H 0.6762 0.5116 0.9879
N3 N 0.5421(3) 0.9913(4) 0.79915(15)
C34 C 0.8147(4) 0.0253(6) 0.7878(2)
C35 C 0.7998(4) 0.1020(6) 0.7608(2)
H25 H 0.7803 0.1560 0.7673
C36 C 0.8130(4) 0.1010(6) 0.7241(2)
H26 H 0.8023 0.1552 0.7065
C37 C 0.8407(4) 0.0260(5) 0.7122(2)
C40 C 0.8547(4) 0.0251(6) 0.6725(2)
C41 C 0.8547(4) 0.1023(6) 0.6512(2)
H29 H 0.8442 0.1600 0.6603
C42 C 0.8704(4) 0.0974(7) 0.6145(2)
H30 H 0.8710 0.1540 0.6005
N5 N 0.7942(3) 0.0255(4) 0.82311(17)
H42 H 0.7647 0.0699 0.8227
N6 N 0.8841(2) 0.0229(4) 0.59845(15)
C1_2 C 0.5098(4) 0.9976(6) 0.6741(2)
H1_2 H 0.4748 0.9594 0.6774
C2_2 C 0.5255(4) 0.9792(6) 0.6394(2)
H2_2 H 0.5001 0.9298 0.6200
C7_2 C 0.5468(5) 0.9494(6) 0.5607(3)
H5_2 H 0.5022 0.9275 0.5597
C8_2 C 0.5663(5) 0.9228(6) 0.5258(3)
H6_2 H 0.5372 0.8795 0.5036
C9_2 C 0.6304(4) 0.9639(6) 0.5258(2)
C12_2 C 0.6275(4) 0.8771(6) 0.4594(2)
C13_2 C 0.5958(4) 0.7958(6) 0.4622(2)
H9_2 H 0.5843 0.7881 0.4861
C14_2 C 0.5791(4) 0.7231(6) 0.4318(2)
H10_2 H 0.5582 0.6676 0.4359
C15_2 C 0.5929(4) 0.7318(6) 0.3961(2)
C16_2 C 0.6242(4) 0.8144(6) 0.3935(2)
H11_2 H 0.6341 0.8228 0.3690
C17_2 C 0.6421(4) 0.8849(6) 0.4233(2)
H12_2 H 0.6644 0.9394 0.4194
C18_2 C 0.5751(4) 0.6562(6) 0.3635(2)
C19_2 C 0.5698(4) 0.5643(6) 0.3726(2)
H13_2 H 0.5789 0.5480 0.4018
C20_2 C 0.5514(5) 0.4936(6) 0.3408(2)
H14_2 H 0.5452 0.4326 0.3488
C21_2 C 0.5511(5) 0.5963(7) 0.2911(2)
H15_2 H 0.5442 0.6102 0.2621
C22_2 C 0.5693(4) 0.6695(6) 0.3204(2)
H16_2 H 0.5781 0.7288 0.3118
H35_2 H 0.1463 0.9708 0.6039
H36_2 H 0.2744 0.9557 0.6476
N2_2 N 0.6473(3) 0.9466(4) 0.49053(18)
H41_2 H 0.6762 0.9884 0.4879
O6_2 O 0.3986(3) 0.9857(5) 0.71068(19)
C23 C 0.8370(4) 0.6514(6) 0.0043(2)
H17 H 0.8013 0.6324 0.0132
C27 C 0.9504(4) 0.6338(5) 0.0084(2)
H20 H 0.9965 0.6029 0.0194
N4 N 0.8992(3) 0.6014(4) 0.01939(16)
Zn2 Zn 0.91387(4) 0.47507(6) 0.04891(2)
N8 N 0.8841(2) 0.4771(4) 0.09845(15)
C23_2 C 0.8370(4) 0.8486(6) 0.5043(2)
H17_2 H 0.8013 0.8676 0.5132
C24_2 C 0.8195(4) 0.7687(6) 0.4760(2)
H18_2 H 0.7745 0.7363 0.4671
C25_2 C 0.8715(4) 0.7399(5) 0.4618(2)
C26_2 C 0.9383(3) 0.7886(5) 0.4812(2)
H19_2 H 0.9773 0.7679 0.4755
C27_2 C 0.9504(4) 0.8662(5) 0.5084(2)
H20_2 H 0.9965 0.8971 0.5194
C28_2 C 0.8544(4) 0.6664(5) 0.4292(2)
C29_2 C 0.7881(4) 0.6169(5) 0.4117(2)
H21_2 H 0.7550 0.6266 0.4238
C30_2 C 0.7690(4) 0.5536(5) 0.3769(2)
H22_2 H 0.7237 0.5211 0.3661
C31_2 C 0.8166(4) 0.5379(5) 0.3579(2)
C32_2 C 0.8830(4) 0.5829(5) 0.3763(2)
H23_2 H 0.9170 0.5708 0.3650
C33_2 C 0.9023(4) 0.6456(5) 0.4107(2)
H24_2 H 0.9488 0.6754 0.4223
C34_2 C 0.8147(4) 0.4747(6) 0.2878(2)
C35_2 C 0.7998(4) 0.3980(6) 0.2608(2)
H25_2 H 0.7803 0.3440 0.2673
C36_2 C 0.8130(4) 0.3990(6) 0.2241(2)
H26_2 H 0.8023 0.3448 0.2065
C37_2 C 0.8407(4) 0.4740(5) 0.2122(2)
C38_2 C 0.8557(5) 0.5529(6) 0.2389(2)
H27_2 H 0.8745 0.6064 0.2314
C39_2 C 0.8431(5) 0.5548(6) 0.2774(2)
H28_2 H 0.8538 0.6086 0.2953
C40_2 C 0.8547(4) 0.4749(6) 0.1725(2)
C41_2 C 0.8547(4) 0.3977(6) 0.1512(2)
H29_2 H 0.8442 0.3400 0.1603
C42_2 C 0.8704(4) 0.4026(7) 0.1145(2)
H30_2 H 0.8710 0.3460 0.1005
C43_2 C 0.8791(5) 0.5547(6) 0.1177(2)
H31_2 H 0.8854 0.6117 0.1060
C44_2 C 0.8652(4) 0.5573(6) 0.1543(2)
H32_2 H 0.8628 0.6150 0.1669
N4_2 N 0.8992(3) 0.8986(4) 0.51939(16)
N5_2 N 0.7942(3) 0.4745(4) 0.32311(17)
H42_2 H 0.7647 0.4301 0.3227
C23_3 C 0.1630(4) 0.1514(6) 0.4957(2)
H17_3 H 0.1987 0.1324 0.4868
C24_3 C 0.1805(4) 0.2313(6) 0.5240(2)
H18_3 H 0.2255 0.2637 0.5329
C25_3 C 0.1285(4) 0.2601(5) 0.5382(2)
C26_3 C 0.0617(3) 0.2114(5) 0.5188(2)
H19_3 H 0.0227 0.2321 0.5245
C27_3 C 0.0496(4) 0.1338(5) 0.4916(2)
H20_3 H 0.0035 0.1029 0.4806
C28_3 C 0.1456(4) 0.3336(5) 0.5708(2)
C29_3 C 0.2119(4) 0.3831(5) 0.5883(2)
H21_3 H 0.2450 0.3734 0.5762
C30_3 C 0.2310(4) 0.4464(5) 0.6231(2)
H22_3 H 0.2763 0.4789 0.6339
C31_3 C 0.1834(4) 0.4621(5) 0.6421(2)
C32_3 C 0.1170(4) 0.4171(5) 0.6237(2)
H23_3 H 0.0830 0.4292 0.6350
C33_3 C 0.0977(4) 0.3544(5) 0.5893(2)
H24_3 H 0.0512 0.3246 0.5777
C34_3 C 0.1853(4) 0.5253(6) 0.7122(2)
C35_3 C 0.2002(4) 0.6020(6) 0.7392(2)
H25_3 H 0.2197 0.6560 0.7327
C36_3 C 0.1870(4) 0.6010(6) 0.7759(2)
H26_3 H 0.1977 0.6552 0.7935
C37_3 C 0.1593(4) 0.5260(5) 0.7878(2)
C38_3 C 0.1443(5) 0.4471(6) 0.7611(2)
H27_3 H 0.1255 0.3936 0.7686
C39_3 C 0.1569(5) 0.4452(6) 0.7226(2)
H28_3 H 0.1462 0.3914 0.7047
C40_3 C 0.1453(4) 0.5251(6) 0.8275(2)
C41_3 C 0.1453(4) 0.6023(6) 0.8488(2)
H29_3 H 0.1558 0.6600 0.8397
C42_3 C 0.1296(4) 0.5974(7) 0.8855(2)
H30_3 H 0.1290 0.6540 0.8995
C43_3 C 0.1209(5) 0.4453(6) 0.8823(2)
H31_3 H 0.1146 0.3883 0.8940
C44_3 C 0.1348(4) 0.4427(6) 0.8457(2)
H32_3 H 0.1372 0.3850 0.8331
N4_3 N 0.1008(3) 0.1014(4) 0.48061(16)
N5_3 N 0.2058(3) 0.5255(4) 0.67689(17)
H42_3 H 0.2353 0.5699 0.6773
N6_2 N 0.1159(2) 0.5229(4) 0.90155(15)
Zn4 Zn 0.08613(4) 0.52493(6) 0.95109(2)
C23_4 C 0.1630(4) 0.3486(6) 0.9957(2)
H17_4 H 0.1987 0.3676 0.9868
C27_4 C 0.0496(4) 0.3662(5) 0.9916(2)
H20_4 H 0.0035 0.3971 0.9806
N4_4 N 0.1008(3) 0.3986(4) 0.98061(16)
Zn2_2 Zn 0.08613(4) 0.97507(6) 0.45109(2)
N8_2 N 0.1159(2) 0.9771(4) 0.40155(15)
O9_2 O 0.1272(2) 0.8843(3) 0.50069(13)
C1_3 C 0.4902(4) 0.0024(6) 0.3259(2)
H1_3 H 0.5252 0.0406 0.3226
C2_3 C 0.4745(4) 0.0208(6) 0.3606(2)
H2_3 H 0.4999 0.0702 0.3800
C7_3 C 0.4532(5) 0.0506(6) 0.4393(3)
H5_3 H 0.4978 0.0725 0.4403
C8_3 C 0.4337(5) 0.0772(6) 0.4742(3)
H6_3 H 0.4628 0.1205 0.4964
C9_3 C 0.3696(4) 0.0361(6) 0.4742(2)
C12_3 C 0.3725(4) 0.1229(6) 0.5406(2)
C13_3 C 0.4042(4) 0.2042(6) 0.5378(2)
H9_3 H 0.4157 0.2119 0.5139
C14_3 C 0.4209(4) 0.2769(6) 0.5682(2)
H10_3 H 0.4418 0.3324 0.5641
C15_3 C 0.4071(4) 0.2682(6) 0.6039(2)
C16_3 C 0.3758(4) 0.1856(6) 0.6065(2)
H11_3 H 0.3659 0.1772 0.6310
C17_3 C 0.3579(4) 0.1151(6) 0.5767(2)
H12_3 H 0.3356 0.0606 0.5806
C18_3 C 0.4249(4) 0.3438(6) 0.6365(2)
C19_3 C 0.4302(4) 0.4357(6) 0.6274(2)
H13_3 H 0.4211 0.4520 0.5982
C20_3 C 0.4486(5) 0.5064(6) 0.6592(2)
H14_3 H 0.4548 0.5674 0.6512
C21_3 C 0.4489(5) 0.4037(7) 0.7089(2)
H15_3 H 0.4558 0.3898 0.7379
C22_3 C 0.4307(4) 0.3305(6) 0.6796(2)
H16_3 H 0.4219 0.2712 0.6882
H35_3 H 0.8537 0.0292 0.3961
H36_3 H 0.7256 0.0443 0.3524
N2_3 N 0.3527(3) 0.0534(4) 0.50947(18)
H41_3 H 0.3238 0.0116 0.5121
N3_2 N 0.4579(3) 0.4913(4) 0.70085(15)
O6_3 O 0.6014(3) 0.0143(5) 0.28932(19)
N7_2 N 0.4579(3) 0.0087(4) 0.20085(15)
Zn3_2 Zn 0.48485(4) 0.59341(6) 0.74593(2)
C34_4 C 0.1853(4) 0.9747(6) 0.2122(2)
C35_4 C 0.2002(4) 0.8980(6) 0.2392(2)
H25_4 H 0.2197 0.8440 0.2327
C36_4 C 0.1870(4) 0.8990(6) 0.2759(2)
H26_4 H 0.1977 0.8448 0.2935
C37_4 C 0.1593(4) 0.9740(5) 0.2878(2)
C40_4 C 0.1453(4) 0.9749(6) 0.3275(2)
C41_4 C 0.1453(4) 0.8977(6) 0.3488(2)
H29_4 H 0.1558 0.8400 0.3397
C42_4 C 0.1296(4) 0.9026(7) 0.3855(2)
H30_4 H 0.1290 0.8460 0.3995
N5_4 N 0.2058(3) 0.9745(4) 0.17689(17)
H42_4 H 0.2353 0.9301 0.1773
C12_4 C 0.3725(4) 0.3771(6) 0.0406(2)
C13_4 C 0.4042(4) 0.2958(6) 0.0378(2)
H9_4 H 0.4157 0.2881 0.0139
C14_4 C 0.4209(4) 0.2231(6) 0.0682(2)
H10_4 H 0.4418 0.1676 0.0641
C15_4 C 0.4071(4) 0.2318(6) 0.1039(2)
C16_4 C 0.3758(4) 0.3144(6) 0.1065(2)
H11_4 H 0.3659 0.3228 0.1310
C17_4 C 0.3579(4) 0.3849(6) 0.0767(2)
H12_4 H 0.3356 0.4394 0.0806
C18_4 C 0.4249(4) 0.1562(6) 0.1365(2)
C19_4 C 0.4302(4) 0.0643(6) 0.1274(2)
H13_4 H 0.4211 0.0480 0.0982
C21_4 C 0.4489(5) 0.0963(7) 0.2089(2)
H15_4 H 0.4558 0.1102 0.2379
C22_4 C 0.4307(4) 0.1695(6) 0.1796(2)
H16_4 H 0.4219 0.2288 0.1882
N2_4 N 0.3527(3) 0.4466(4) 0.00947(18)
H41_4 H 0.3238 0.4884 0.0121
C1_4 C 0.4902(4) 0.4976(6) 0.8259(2)
H1_4 H 0.5252 0.4594 0.8226
C2_4 C 0.4745(4) 0.4792(6) 0.8606(2)
H2_4 H 0.4999 0.4298 0.8800
C3_3 C 0.4252(4) 0.5276(6) 0.8684(2)
C4_3 C 0.3977(4) 0.6041(6) 0.8411(2)
H3_3 H 0.3654 0.6454 0.8453
C5_3 C 0.4182(4) 0.6213(6) 0.8061(2)
H4_3 H 0.4007 0.6759 0.7888
C6_3 C 0.4067(4) 0.5071(6) 0.9045(2)
C7_4 C 0.4532(5) 0.4494(6) 0.9393(3)
H5_4 H 0.4978 0.4275 0.9403
C8_4 C 0.4337(5) 0.4228(6) 0.9742(3)
H6_4 H 0.4628 0.3795 0.9964
C9_4 C 0.3696(4) 0.4639(6) 0.9742(2)
C10_3 C 0.3350(4) 0.5265(6) 0.9440(2)
H7_3 H 0.2953 0.5586 0.9451
C11_3 C 0.3538(4) 0.5488(6) 0.9099(2)
H8_3 H 0.3268 0.5965 0.8898
C45_3 C 0.6273(5) 0.5657(8) 0.7914(3)
C46_3 C 0.7118(4) 0.5744(6) 0.8218(2)
C47_3 C 0.7475(4) 0.6511(6) 0.8157(2)
H33_3 H 0.7206 0.6976 0.7948
C48_3 C 0.8269(4) 0.6580(6) 0.8422(2)
H34_3 H 0.8521 0.7106 0.8393
C49_3 C 0.8651(4) 0.5907(6) 0.8708(2)
C50_3 C 0.8274(4) 0.5177(6) 0.8752(2)
H35_4 H 0.8537 0.4708 0.8961
C51_3 C 0.7499(4) 0.5091(6) 0.8495(2)
H36_4 H 0.7256 0.4557 0.8524
C52_3 C 0.9479(4) 0.5909(6) 0.8981(2)
C53_3 C 0.3684(4) 0.6920(5) 0.6867(2)
C54_3 C 0.3242(3) 0.7452(5) 0.64370(19)
C55_3 C 0.2454(3) 0.7431(5) 0.6220(2)
H37_3 H 0.2198 0.7110 0.6352
C56_3 C 0.2060(3) 0.7886(5) 0.5813(2)
H38_3 H 0.1538 0.7853 0.5664
C57_3 C 0.2431(3) 0.8383(4) 0.56283(19)
C58_3 C 0.3170(3) 0.8390(5) 0.58233(19)
H39_3 H 0.3417 0.8698 0.5683
C59_3 C 0.3589(3) 0.7943(5) 0.6237(2)
H40_3 H 0.4111 0.7982 0.6377
C60_3 C 0.1987(4) 0.8889(5) 0.5193(2)
N1_3 N 0.4598(3) 0.5647(4) 0.79721(16)
O1_3 O 0.3335(3) 0.6393(4) 0.70015(15)
O2_3 O 0.4373(2) 0.7000(3) 0.70577(13)
O4_3 O 0.2328(2) 0.9369(4) 0.50353(14)
O5_3 O 0.5905(2) 0.6322(4) 0.77370(15)
O6_4 O 0.6014(3) 0.4857(5) 0.78932(19)
O7_3 O 0.9842(3) 0.6585(4) 0.89435(14)
O8_3 O 0.9775(2) 0.5212(4) 0.92259(14)
C3_4 C 0.4252(4) 0.9724(6) 0.3684(2)
C4_4 C 0.3977(4) 0.8959(6) 0.3411(2)
H3_4 H 0.3654 0.8546 0.3453
C5_4 C 0.4182(4) 0.8787(6) 0.3061(2)
H4_4 H 0.4007 0.8241 0.2888
C6_4 C 0.4067(4) 0.9929(6) 0.4045(2)
C10_4 C 0.3350(4) 0.9735(6) 0.4440(2)
H7_4 H 0.2953 0.9414 0.4451
C11_4 C 0.3538(4) 0.9512(6) 0.4099(2)
H8_4 H 0.3268 0.9035 0.3898
C45_4 C 0.6273(5) 0.9343(8) 0.2914(3)
C46_4 C 0.7118(4) 0.9256(6) 0.3218(2)
C47_4 C 0.7475(4) 0.8489(6) 0.3157(2)
H33_4 H 0.7206 0.8024 0.2948
C48_4 C 0.8269(4) 0.8420(6) 0.3422(2)
H34_4 H 0.8521 0.7894 0.3393
C49_4 C 0.8651(4) 0.9093(6) 0.3708(2)
C50_4 C 0.8274(4) 0.9823(6) 0.3752(2)
C51_4 C 0.7499(4) 0.9909(6) 0.3495(2)
C52_4 C 0.9479(4) 0.9091(6) 0.3981(2)
C53_4 C 0.3684(4) 0.8080(5) 0.1867(2)
C54_4 C 0.3242(3) 0.7548(5) 0.14370(19)
C55_4 C 0.2454(3) 0.7569(5) 0.1220(2)
H37_4 H 0.2198 0.7890 0.1352
C56_4 C 0.2060(3) 0.7114(5) 0.0813(2)
H38_4 H 0.1538 0.7147 0.0664
C57_4 C 0.2431(3) 0.6617(4) 0.06283(19)
C58_4 C 0.3170(3) 0.6610(5) 0.08233(19)
H39_4 H 0.3417 0.6302 0.0683
C59_4 C 0.3589(3) 0.7057(5) 0.1237(2)
H40_4 H 0.4111 0.7018 0.1377
C60_4 C 0.1987(4) 0.6111(5) 0.0193(2)
N1_4 N 0.4598(3) 0.9353(4) 0.29721(16)
O1_4 O 0.3335(3) 0.8607(4) 0.20015(15)
O2_4 O 0.4373(2) 0.8000(3) 0.20577(13)
O3_2 O 0.1272(2) 0.6157(3) 0.00069(13)
O4_4 O 0.2328(2) 0.5631(4) 0.00353(14)
O5_4 O 0.5905(2) 0.8678(4) 0.27370(15)
O7_4 O 0.9842(3) 0.8415(4) 0.39435(14)
O8_4 O 0.9775(2) 0.9788(4) 0.42259(14)
Zn1_2 Zn 0.48485(4) 0.90659(6) 0.24593(2)
C24_4 C 0.1805(4) 0.2687(6) 0.0240(2)
H18_4 H 0.2255 0.2363 0.0329
C25_4 C 0.1285(4) 0.2399(5) 0.0382(2)
C26_4 C 0.0617(3) 0.2886(5) 0.0188(2)
H19_4 H 0.0227 0.2679 0.0245
C28_4 C 0.1456(4) 0.1664(5) 0.0708(2)
C29_4 C 0.2119(4) 0.1169(5) 0.0883(2)
H21_4 H 0.2450 0.1266 0.0762
C30_4 C 0.2310(4) 0.0536(5) 0.1231(2)
H22_4 H 0.2763 0.0211 0.1339
C31_4 C 0.1834(4) 0.0379(5) 0.1421(2)
C32_4 C 0.1170(4) 0.0829(5) 0.1237(2)
H23_4 H 0.0830 0.0708 0.1350
C33_4 C 0.0977(4) 0.1456(5) 0.0893(2)
H24_4 H 0.0512 0.1754 0.0777
C38_4 C 0.1443(5) 0.0529(6) 0.2611(2)
H27_4 H 0.1255 0.1064 0.2686
C39_4 C 0.1569(5) 0.0548(6) 0.2226(2)
H28_4 H 0.1462 0.1086 0.2047
C43_4 C 0.1209(5) 0.0547(6) 0.3823(2)
H31_4 H 0.1146 0.1117 0.3940
C44_4 C 0.1348(4) 0.0573(6) 0.3457(2)
H32_4 H 0.1372 0.1150 0.3331
C20_4 C 0.4486(5) 0.9936(6) 0.1592(2)
H14_4 H 0.4548 0.9326 0.1512
loop_
_geom_bond_atom_site_label_1
_geom_bond_atom_site_label_2
_geom_bond_site_symmetry_1
_geom_bond_site_symmetry_2
H14 C20 1_555 1_555
H18 C24 1_555 1_555
C25 C24 1_555 1_555
C26 C25 1_555 1_555
H19 C26 1_555 1_555
C28 C25 1_555 1_555
C29 C28 1_555 1_555
H21 C29 1_555 1_555
C30 C29 1_555 1_555
H22 C30 1_555 1_555
C31 C30 1_555 1_555
C32 C31 1_555 1_555
H23 C32 1_555 1_555
C33 C28 1_555 1_555
H24 C33 1_555 1_555
H27 C38 1_555 1_555
H28 C39 1_555 1_555
C43 H31 1_555 1_555
H32 C44 1_555 1_555
C32 C33 1_555 1_555
C38 C39 1_555 1_555
C43 C44 1_555 1_555
C4 C3 1_555 1_555
H3 C4 1_555 1_555
C5 C4 1_555 1_555
H4 C5 1_555 1_555
C6 C3 1_555 1_555
H7 C10 1_555 1_555
C11 C6 1_555 1_555
H8 C11 1_555 1_555
C45 C46 1_555 1_555
C46 C47 1_555 1_555
C47 H33 1_555 1_555
C48 C47 1_555 1_555
H34 C48 1_555 1_555
C49 C48 1_555 1_555
C50 C49 1_555 1_555
C51 C46 1_555 1_555
C52 C49 1_555 1_555
C53 C54 1_555 1_555
C54 C55 1_555 1_555
C55 H37 1_555 1_555
C56 C55 1_555 1_555
H38 C56 1_555 1_555
C57 C56 1_555 1_555
C58 C57 1_555 1_555
H39 C58 1_555 1_555
C59 C54 1_555 1_555
H40 C59 1_555 1_555
C60 C57 1_555 1_555
O1 C53 1_555 1_555
O2 C53 1_555 1_555
O9 C60 1_555 1_555
O4 C60 1_555 1_555
O5 C45 1_555 1_555
O7 C52 1_555 1_555
O8 C52 1_555 1_555
Zn3 N1 1_555 1_555
C5 N1 1_555 1_555
C10 C11 1_555 1_555
C50 C51 1_555 1_555
C58 C59 1_555 1_555
O2 Zn3 1_555 1_555
O5 Zn3 1_555 1_555
C1 H1 1_555 1_555
C2 C1 1_555 1_555
H2 C2 1_555 1_555
C3_2 C2 1_555 1_555
C4_2 C3_2 1_555 1_555
H3_2 C4_2 1_555 1_555
C5_2 C4_2 1_555 1_555
H4_2 C5_2 1_555 1_555
C6_2 C3_2 1_555 1_555
C7 C6_2 1_555 1_555
H5 C7 1_555 1_555
C8 C7 1_555 1_555
H6 C8 1_555 1_555
C9 C8 1_555 1_555
C10_2 C9 1_555 1_555
H7_2 C10_2 1_555 1_555
C11_2 C6_2 1_555 1_555
H8_2 C11_2 1_555 1_555
C45_2 C46_2 1_555 1_555
C46_2 C47_2 1_555 1_555
C47_2 H33_2 1_555 1_555
C48_2 C47_2 1_555 1_555
H34_2 C48_2 1_555 1_555
C49_2 C48_2 1_555 1_555
C50_2 C49_2 1_555 1_555
H35 C50_2 1_555 1_555
C51_2 C46_2 1_555 1_555
H36 C51_2 1_555 1_555
C52_2 C49_2 1_555 1_555
C53_2 C54_2 1_555 1_555
C54_2 C55_2 1_555 1_555
C55_2 H37_2 1_555 1_555
C56_2 C55_2 1_555 1_555
H38_2 C56_2 1_555 1_555
C57_2 C56_2 1_555 1_555
C58_2 C57_2 1_555 1_555
H39_2 C58_2 1_555 1_555
C59_2 C54_2 1_555 1_555
H40_2 C59_2 1_555 1_555
C60_2 C57_2 1_555 1_555
N1_2 C1 1_555 1_555
O1_2 C53_2 1_555 1_555
O2_2 C53_2 1_555 1_555
O3 C60_2 1_555 1_555
O4_2 C60_2 1_555 1_555
O5_2 C45_2 1_555 1_555
O6 C45_2 1_555 1_555
O7_2 C52_2 1_555 1_555
O8_2 C52_2 1_555 1_555
Zn1 N1_2 1_555 1_555
N7 Zn1 1_555 1_555
Zn5 O3 1_555 1_555
C5_2 N1_2 1_555 1_555
C10_2 C11_2 1_555 1_555
C50_2 C51_2 1_555 1_555
C58_2 C59_2 1_555 1_555
O2_2 Zn1 1_555 1_555
O5_2 Zn1 1_555 1_555
C12 C13 1_555 1_555
C13 H9 1_555 1_555
C14 C13 1_555 1_555
H10 C14 1_555 1_555
C15 C14 1_555 1_555
C16 C15 1_555 1_555
H11 C16 1_555 1_555
C17 C12 1_555 1_555
H12 C17 1_555 1_555
C18 C15 1_555 1_555
C19 C18 1_555 1_555
H13 C19 1_555 1_555
C21 H15 1_555 1_555
C22 C18 1_555 1_555
H16 C22 1_555 1_555
H41 N2 1_555 1_555
C12 N2 1_555 1_555
C16 C17 1_555 1_555
C21 C22 1_555 1_555
C21 N3 1_555 1_555
C34 C35 1_555 1_555
C35 H25 1_555 1_555
C36 C35 1_555 1_555
H26 C36 1_555 1_555
C37 C36 1_555 1_555
C40 C37 1_555 1_555
C41 C40 1_555 1_555
H29 C41 1_555 1_555
C42 C41 1_555 1_555
H30 C42 1_555 1_555
H42 N5 1_555 1_555
N6 C42 1_555 1_555
Zn5 N6 1_555 1_555
C34 N5 1_555 1_555
C1_2 H1_2 1_555 1_555
C2_2 C1_2 1_555 1_555
H2_2 C2_2 1_555 1_555
H5_2 C7_2 1_555 1_555
C8_2 C7_2 1_555 1_555
H6_2 C8_2 1_555 1_555
C9_2 C8_2 1_555 1_555
C12_2 C13_2 1_555 1_555
C13_2 H9_2 1_555 1_555
C14_2 C13_2 1_555 1_555
H10_2 C14_2 1_555 1_555
C15_2 C14_2 1_555 1_555
C16_2 C15_2 1_555 1_555
H11_2 C16_2 1_555 1_555
C17_2 C12_2 1_555 1_555
H12_2 C17_2 1_555 1_555
C18_2 C15_2 1_555 1_555
C19_2 C18_2 1_555 1_555
H13_2 C19_2 1_555 1_555
C20_2 C19_2 1_555 1_555
H14_2 C20_2 1_555 1_555
C21_2 H15_2 1_555 1_555
C22_2 C18_2 1_555 1_555
H16_2 C22_2 1_555 1_555
N2_2 C9_2 1_555 1_555
H41_2 N2_2 1_555 1_555
N7 C20_2 1_555 1_555
C12_2 N2_2 1_555 1_555
C16_2 C17_2 1_555 1_555
C21_2 C22_2 1_555 1_555
C21_2 N7 1_555 1_555
C23 H17 1_555 1_555
H20 C27 1_555 1_555
N4 C23 1_555 1_555
Zn2 N4 1_555 1_555
N8 Zn2 1_555 1_555
C27 N4 1_555 1_555
C23_2 H17_2 1_555 1_555
C24_2 C23_2 1_555 1_555
H18_2 C24_2 1_555 1_555
C25_2 C24_2 1_555 1_555
C26_2 C25_2 1_555 1_555
H19_2 C26_2 1_555 1_555
C27_2 C26_2 1_555 1_555
H20_2 C27_2 1_555 1_555
C28_2 C25_2 1_555 1_555
C29_2 C28_2 1_555 1_555
H21_2 C29_2 1_555 1_555
C30_2 C29_2 1_555 1_555
H22_2 C30_2 1_555 1_555
C31_2 C30_2 1_555 1_555
C32_2 C31_2 1_555 1_555
H23_2 C32_2 1_555 1_555
C33_2 C28_2 1_555 1_555
H24_2 C33_2 1_555 1_555
C34_2 C35_2 1_555 1_555
C35_2 H25_2 1_555 1_555
C36_2 C35_2 1_555 1_555
H26_2 C36_2 1_555 1_555
C37_2 C36_2 1_555 1_555
C38_2 C37_2 1_555 1_555
H27_2 C38_2 1_555 1_555
C39_2 C34_2 1_555 1_555
H28_2 C39_2 1_555 1_555
C40_2 C37_2 1_555 1_555
C41_2 C40_2 1_555 1_555
H29_2 C41_2 1_555 1_555
C42_2 C41_2 1_555 1_555
H30_2 C42_2 1_555 1_555
C43_2 H31_2 1_555 1_555
C44_2 C40_2 1_555 1_555
H32_2 C44_2 1_555 1_555
N4_2 C23_2 1_555 1_555
N5_2 C31_2 1_555 1_555
H42_2 N5_2 1_555 1_555
N8 C42_2 1_555 1_555
C27_2 N4_2 1_555 1_555
C32_2 C33_2 1_555 1_555
C34_2 N5_2 1_555 1_555
C38_2 C39_2 1_555 1_555
C43_2 C44_2 1_555 1_555
C43_2 N8 1_555 1_555
C23_3 H17_3 1_555 1_555
C24_3 C23_3 1_555 1_555
H18_3 C24_3 1_555 1_555
C25_3 C24_3 1_555 1_555
C26_3 C25_3 1_555 1_555
H19_3 C26_3 1_555 1_555
C27_3 C26_3 1_555 1_555
H20_3 C27_3 1_555 1_555
C28_3 C25_3 1_555 1_555
C29_3 C28_3 1_555 1_555
H21_3 C29_3 1_555 1_555
C30_3 C29_3 1_555 1_555
H22_3 C30_3 1_555 1_555
C31_3 C30_3 1_555 1_555
C32_3 C31_3 1_555 1_555
H23_3 C32_3 1_555 1_555
C33_3 C28_3 1_555 1_555
H24_3 C33_3 1_555 1_555
C34_3 C35_3 1_555 1_555
C35_3 H25_3 1_555 1_555
C36_3 C35_3 1_555 1_555
H26_3 C36_3 1_555 1_555
C37_3 C36_3 1_555 1_555
C38_3 C37_3 1_555 1_555
H27_3 C38_3 1_555 1_555
C39_3 C34_3 1_555 1_555
H28_3 C39_3 1_555 1_555
C40_3 C37_3 1_555 1_555
C41_3 C40_3 1_555 1_555
H29_3 C41_3 1_555 1_555
C42_3 C41_3 1_555 1_555
H30_3 C42_3 1_555 1_555
C43_3 H31_3 1_555 1_555
C44_3 C40_3 1_555 1_555
H32_3 C44_3 1_555 1_555
N4_3 C23_3 1_555 1_555
N5_3 C31_3 1_555 1_555
H42_3 N5_3 1_555 1_555
N6_2 C42_3 1_555 1_555
Zn4 N6_2 1_555 1_555
C27_3 N4_3 1_555 1_555
C32_3 C33_3 1_555 1_555
C34_3 N5_3 1_555 1_555
C38_3 C39_3 1_555 1_555
C43_3 C44_3 1_555 1_555
C43_3 N6_2 1_555 1_555
C23_4 H17_4 1_555 1_555
H20_4 C27_4 1_555 1_555
N4_4 C23_4 1_555 1_555
Zn4 N4_4 1_555 1_555
C27_4 N4_4 1_555 1_555
N8_2 Zn2_2 1_555 1_555
O9_2 Zn2_2 1_555 1_555
C1_3 H1_3 1_555 1_555
C2_3 C1_3 1_555 1_555
H2_3 C2_3 1_555 1_555
H5_3 C7_3 1_555 1_555
C8_3 C7_3 1_555 1_555
H6_3 C8_3 1_555 1_555
C9_3 C8_3 1_555 1_555
C12_3 C13_3 1_555 1_555
C13_3 H9_3 1_555 1_555
C14_3 C13_3 1_555 1_555
H10_3 C14_3 1_555 1_555
C15_3 C14_3 1_555 1_555
C16_3 C15_3 1_555 1_555
H11_3 C16_3 1_555 1_555
C17_3 C12_3 1_555 1_555
H12_3 C17_3 1_555 1_555
C18_3 C15_3 1_555 1_555
C19_3 C18_3 1_555 1_555
H13_3 C19_3 1_555 1_555
C20_3 C19_3 1_555 1_555
H14_3 C20_3 1_555 1_555
C21_3 H15_3 1_555 1_555
C22_3 C18_3 1_555 1_555
H16_3 C22_3 1_555 1_555
N2_3 C9_3 1_555 1_555
H41_3 N2_3 1_555 1_555
N3_2 C20_3 1_555 1_555
Zn3_2 N3_2 1_555 1_555
C12_3 N2_3 1_555 1_555
C16_3 C17_3 1_555 1_555
C21_3 C22_3 1_555 1_555
C21_3 N3_2 1_555 1_555
C34_4 C35_4 1_555 1_555
C35_4 H25_4 1_555 1_555
C36_4 C35_4 1_555 1_555
H26_4 C36_4 1_555 1_555
C37_4 C36_4 1_555 1_555
C40_4 C37_4 1_555 1_555
C41_4 C40_4 1_555 1_555
H29_4 C41_4 1_555 1_555
C42_4 C41_4 1_555 1_555
H30_4 C42_4 1_555 1_555
H42_4 N5_4 1_555 1_555
N8_2 C42_4 1_555 1_555
C34_4 N5_4 1_555 1_555
C12_4 C13_4 1_555 1_555
C13_4 H9_4 1_555 1_555
C14_4 C13_4 1_555 1_555
H10_4 C14_4 1_555 1_555
C15_4 C14_4 1_555 1_555
C16_4 C15_4 1_555 1_555
H11_4 C16_4 1_555 1_555
C17_4 C12_4 1_555 1_555
H12_4 C17_4 1_555 1_555
C18_4 C15_4 1_555 1_555
C19_4 C18_4 1_555 1_555
H13_4 C19_4 1_555 1_555
C21_4 H15_4 1_555 1_555
C22_4 C18_4 1_555 1_555
H16_4 C22_4 1_555 1_555
H41_4 N2_4 1_555 1_555
C12_4 N2_4 1_555 1_555
C16_4 C17_4 1_555 1_555
C21_4 C22_4 1_555 1_555
C21_4 N7_2 1_555 1_555
C1_4 H1_4 1_555 1_555
C2_4 C1_4 1_555 1_555
H2_4 C2_4 1_555 1_555
C3_3 C2_4 1_555 1_555
C4_3 C3_3 1_555 1_555
H3_3 C4_3 1_555 1_555
C5_3 C4_3 1_555 1_555
H4_3 C5_3 1_555 1_555
C6_3 C3_3 1_555 1_555
C7_4 C6_3 1_555 1_555
H5_4 C7_4 1_555 1_555
C8_4 C7_4 1_555 1_555
H6_4 C8_4 1_555 1_555
C9_4 C8_4 1_555 1_555
C10_3 C9_4 1_555 1_555
H7_3 C10_3 1_555 1_555
C11_3 C6_3 1_555 1_555
H8_3 C11_3 1_555 1_555
C45_3 C46_3 1_555 1_555
C46_3 C47_3 1_555 1_555
C47_3 H33_3 1_555 1_555
C48_3 C47_3 1_555 1_555
H34_3 C48_3 1_555 1_555
C49_3 C48_3 1_555 1_555
C50_3 C49_3 1_555 1_555
H35_4 C50_3 1_555 1_555
C51_3 C46_3 1_555 1_555
H36_4 C51_3 1_555 1_555
C52_3 C49_3 1_555 1_555
C53_3 C54_3 1_555 1_555
C54_3 C55_3 1_555 1_555
C55_3 H37_3 1_555 1_555
C56_3 C55_3 1_555 1_555
H38_3 C56_3 1_555 1_555
C57_3 C56_3 1_555 1_555
C58_3 C57_3 1_555 1_555
H39_3 C58_3 1_555 1_555
C59_3 C54_3 1_555 1_555
H40_3 C59_3 1_555 1_555
C60_3 C57_3 1_555 1_555
N1_3 C1_4 1_555 1_555
O1_3 C53_3 1_555 1_555
O2_3 C53_3 1_555 1_555
O9_2 C60_3 1_555 1_555
O4_3 C60_3 1_555 1_555
O5_3 C45_3 1_555 1_555
O6_4 C45_3 1_555 1_555
O7_3 C52_3 1_555 1_555
O8_3 C52_3 1_555 1_555
Zn3_2 N1_3 1_555 1_555
C5_3 N1_3 1_555 1_555
C10_3 C11_3 1_555 1_555
C50_3 C51_3 1_555 1_555
C58_3 C59_3 1_555 1_555
O2_3 Zn3_2 1_555 1_555
O5_3 Zn3_2 1_555 1_555
C4_4 C3_4 1_555 1_555
H3_4 C4_4 1_555 1_555
C5_4 C4_4 1_555 1_555
H4_4 C5_4 1_555 1_555
C6_4 C3_4 1_555 1_555
H7_4 C10_4 1_555 1_555
C11_4 C6_4 1_555 1_555
H8_4 C11_4 1_555 1_555
C45_4 C46_4 1_555 1_555
C46_4 C47_4 1_555 1_555
C47_4 H33_4 1_555 1_555
C48_4 C47_4 1_555 1_555
H34_4 C48_4 1_555 1_555
C49_4 C48_4 1_555 1_555
C50_4 C49_4 1_555 1_555
C51_4 C46_4 1_555 1_555
C52_4 C49_4 1_555 1_555
C53_4 C54_4 1_555 1_555
C54_4 C55_4 1_555 1_555
C55_4 H37_4 1_555 1_555
C56_4 C55_4 1_555 1_555
H38_4 C56_4 1_555 1_555
C57_4 C56_4 1_555 1_555
C58_4 C57_4 1_555 1_555
H39_4 C58_4 1_555 1_555
C59_4 C54_4 1_555 1_555
H40_4 C59_4 1_555 1_555
C60_4 C57_4 1_555 1_555
O1_4 C53_4 1_555 1_555
O2_4 C53_4 1_555 1_555
O3_2 C60_4 1_555 1_555
O4_4 C60_4 1_555 1_555
O5_4 C45_4 1_555 1_555
O7_4 C52_4 1_555 1_555
O8_4 C52_4 1_555 1_555
Zn1_2 N1_4 1_555 1_555
C5_4 N1_4 1_555 1_555
C10_4 C11_4 1_555 1_555
C50_4 C51_4 1_555 1_555
C58_4 C59_4 1_555 1_555
O2_4 Zn1_2 1_555 1_555
O5_4 Zn1_2 1_555 1_555
H18_4 C24_4 1_555 1_555
C25_4 C24_4 1_555 1_555
C26_4 C25_4 1_555 1_555
H19_4 C26_4 1_555 1_555
C28_4 C25_4 1_555 1_555
C29_4 C28_4 1_555 1_555
H21_4 C29_4 1_555 1_555
C30_4 C29_4 1_555 1_555
H22_4 C30_4 1_555 1_555
C31_4 C30_4 1_555 1_555
C32_4 C31_4 1_555 1_555
H23_4 C32_4 1_555 1_555
C33_4 C28_4 1_555 1_555
H24_4 C33_4 1_555 1_555
H27_4 C38_4 1_555 1_555
H28_4 C39_4 1_555 1_555
C43_4 H31_4 1_555 1_555
H32_4 C44_4 1_555 1_555
C32_4 C33_4 1_555 1_555
C38_4 C39_4 1_555 1_555
C43_4 C44_4 1_555 1_555
H14_4 C20_4 1_555 1_555

#END
