
###############################################################################
#
# This file contains modified crystal structure data generated from the
# MOF subset of the Cambridge Structural Database (CSD) v543 
# hosted by the Cambridge Crystallographic Data Centre (CCDC).
#
# This work is licensed under the Creative Commons
# Attribution-NonCommercial-ShareAlike 4.0 International License.
# To view a copy of this license, visit
# http://creativecommons.org/licenses/by-nc-sa/4.0/
# or send a letter to
# Creative Commons, PO Box 1866, Mountain View, CA 94042, USA.
#
# CIF created using the CSD Python API on 29 September 2022
# The structure has been converted into the P1 space group
# The structure has a 3D framework
# The original CSD entry RUGXOI is in the monoclinic crystal system
# The framework has been calculated to contain at least 10.0% void space
# The void calculation uses a probe of radius 1.32A, grid spacing 0.4
#
###############################################################################

data_RUGXOI
_chemical_formula_moiety         '(C80 H88 N8 O40 Zn8)n'
_symmetry_cell_setting           triclinic
_symmetry_space_group_name_H-M   'P 1'
_symmetry_Int_Tables_number      1
_space_group_name_Hall           'P 1'
loop_
_symmetry_equiv_pos_site_id
_symmetry_equiv_pos_as_xyz
1 x,y,z
_cell_length_a                   14.3288(9)
_cell_length_b                   13.2643(8)
_cell_length_c                   14.3563(10)
_cell_angle_alpha                90
_cell_angle_beta                 91.296(6)
_cell_angle_gamma                90
_cell_volume                     2727.88
loop_
_atom_site_label
_atom_site_type_symbol
_atom_site_fract_x
_atom_site_fract_y
_atom_site_fract_z
N1 N 0.3470(4) 0.3179(5) 0.3035(4)
H1 H 0.2904 0.2975 0.3240
H2 H 0.3722 0.2660 0.2711
C1 C 0.4085(7) 0.3417(8) 0.3847(6)
H3 H 0.4153 0.2819 0.4244
H4 H 0.4700 0.3624 0.3631
H5 H 0.3811 0.3967 0.4206
C2 C 0.3338(8) 0.4070(7) 0.2397(8)
H6 H 0.2928 0.3880 0.1870
H7 H 0.3056 0.4626 0.2740
H8 H 0.3945 0.4283 0.2165
N1_2 N 0.6530(4) 0.8179(5) 0.1965(4)
H1_2 H 0.7096 0.7975 0.1760
H2_2 H 0.6278 0.7660 0.2289
C1_2 C 0.5915(7) 0.8417(8) 0.1153(6)
H3_2 H 0.5847 0.7819 0.0756
H4_2 H 0.5300 0.8624 0.1369
H5_2 H 0.6189 0.8967 0.0794
C2_2 C 0.6662(8) 0.9070(7) 0.2603(8)
H6_2 H 0.7072 0.8880 0.3130
H7_2 H 0.6944 0.9626 0.2260
H8_2 H 0.6055 0.9283 0.2835
N1_3 N 0.6530(4) 0.6821(5) 0.6965(4)
H1_3 H 0.7096 0.7025 0.6760
H2_3 H 0.6278 0.7340 0.7289
C1_3 C 0.5915(7) 0.6583(8) 0.6153(6)
H3_3 H 0.5847 0.7181 0.5756
H4_3 H 0.5300 0.6376 0.6369
H5_3 H 0.6189 0.6033 0.5794
C2_3 C 0.6662(8) 0.5930(7) 0.7603(8)
H6_3 H 0.7072 0.6120 0.8130
H7_3 H 0.6944 0.5374 0.7260
H8_3 H 0.6055 0.5717 0.7835
N1_4 N 0.3470(4) 0.1821(5) 0.8035(4)
H1_4 H 0.2904 0.2025 0.8240
H2_4 H 0.3722 0.2340 0.7711
C1_4 C 0.4085(7) 0.1583(8) 0.8847(6)
H3_4 H 0.4153 0.2181 0.9244
H4_4 H 0.4700 0.1376 0.8631
H5_4 H 0.3811 0.1033 0.9206
C2_4 C 0.3338(8) 0.0930(7) 0.7397(8)
H6_4 H 0.2928 0.1120 0.6870
H7_4 H 0.3056 0.0374 0.7740
H8_4 H 0.3945 0.0717 0.7165
N2 N 0.1582(6) 0.7008(6) 0.1305(6)
H9 H 0.2137 0.7253 0.1109
H10 H 0.1235 0.7540 0.1499
C3 C 0.1087(6) 0.6511(6) 0.0507(6)
H11 H 0.0990 0.7000 0.0002
H12 H 0.1463 0.5947 0.0284
H13 H 0.0481 0.6259 0.0709
C4 C 0.1745(13) 0.6356(11) 0.2055(12)
H14 H 0.2071 0.6720 0.2559
H15 H 0.1148 0.6101 0.2278
H16 H 0.2130 0.5789 0.1853
N2_2 N 0.8418(6) 0.2008(6) 0.3695(6)
H9_2 H 0.7863 0.2253 0.3891
H10_2 H 0.8765 0.2540 0.3501
C3_2 C 0.8913(6) 0.1511(6) 0.4493(6)
H11_2 H 0.9010 0.2000 0.4998
H12_2 H 0.8537 0.0947 0.4716
H13_2 H 0.9519 0.1259 0.4291
C4_2 C 0.8255(13) 0.1356(11) 0.2945(12)
H14_2 H 0.7929 0.1720 0.2441
H15_2 H 0.8852 0.1101 0.2722
H16_2 H 0.7870 0.0789 0.3147
N2_3 N 0.8418(6) 0.2992(6) 0.8695(6)
H9_3 H 0.7863 0.2747 0.8891
H10_3 H 0.8765 0.2460 0.8501
C3_3 C 0.8913(6) 0.3489(6) 0.9493(6)
H11_3 H 0.9010 0.3000 0.9998
H12_3 H 0.8537 0.4053 0.9716
H13_3 H 0.9519 0.3741 0.9291
C4_3 C 0.8255(13) 0.3644(11) 0.7945(12)
H14_3 H 0.7929 0.3280 0.7441
H15_3 H 0.8852 0.3899 0.7722
H16_3 H 0.7870 0.4211 0.8147
N2_4 N 0.1582(6) 0.7992(6) 0.6305(6)
H9_4 H 0.2137 0.7747 0.6109
H10_4 H 0.1235 0.7460 0.6499
C3_4 C 0.1087(6) 0.8489(6) 0.5507(6)
H11_4 H 0.0990 0.8000 0.5002
H12_4 H 0.1463 0.9053 0.5284
H13_4 H 0.0481 0.8741 0.5709
C4_4 C 0.1745(13) 0.8644(11) 0.7055(12)
H14_4 H 0.2071 0.8280 0.7559
H15_4 H 0.1148 0.8899 0.7278
H16_4 H 0.2130 0.9211 0.6853
O3 O 0.2089(3) 0.0943(3) 0.1988(3)
C7 C 0.1726(4) 0.1825(4) 0.1669(4)
C8 C 0.1995(4) 0.2224(4) 0.0822(4)
H18 H 0.2455 0.1889 0.0469
C10 C 0.1076(4) 0.2356(4) 0.2201(4)
H19 H 0.0893 0.2095 0.2786
C12 C 0.0949(4) 0.3635(4) 0.1003(4)
H20 H 0.0678 0.4241 0.0769
C15 C 0.1591(4) 0.3121(4) 0.0484(4)
C16 C 0.0694(4) 0.3268(4) 0.1875(4)
Zn1 Zn 0.33592(4) 0.04960(5) 0.16657(4)
Zn2 Zn 0.15203(4) 0.01798(4) 0.29943(4)
O11 O 0.4147(3) 0.1659(3) 0.1891(3)
O13 O 0.1325(3) 0.0798(3) 0.4205(3)
O6 O 0.1325(3) 0.4202(3) 0.9205(3)
O10 O 0.2513(3) 0.3120(4) 0.9122(3)
C17 C 0.1845(4) 0.3494(4) 0.9523(4)
Zn6 Zn 0.15203(4) 0.48202(4) 0.79943(4)
O1 O 0.5853(3) 0.6659(3) 0.3109(3)
O2 O 0.2305(3) 0.8988(3) 0.3230(3)
O4 O 0.3666(3) 0.5119(3) 0.5480(3)
O5 O 0.3661(3) 0.9507(3) 0.2646(3)
C5 C 0.3152(4) 0.8882(4) 0.3079(4)
C6 C 0.4579(4) 0.6291(4) 0.4162(4)
H17 H 0.4885 0.5703 0.4394
C9 C 0.5004(4) 0.6862(4) 0.3474(4)
O9 O 0.2664(4) 0.6363(4) 0.5778(4)
C11 C 0.3634(4) 0.7960(4) 0.3468(4)
C13 C 0.4508(4) 0.7715(5) 0.3140(5)
H21 H 0.4780 0.8129 0.2679
C14 C 0.3230(4) 0.7401(5) 0.4165(4)
H22 H 0.2638 0.7581 0.4398
C19 C 0.3302(5) 0.5996(5) 0.5307(5)
C20 C 0.3719(4) 0.6561(5) 0.4518(4)
O12 O 0.3666(3) 0.9881(3) 0.0480(3)
O14 O 0.0240(3) 0.9701(3) 0.2852(3)
Zn3 Zn 0.66408(4) 0.54960(5) 0.33343(4)
Zn4 Zn 0.33592(4) 0.45040(5) 0.66657(4)
O7 O 0.9760(3) 0.4701(3) 0.2148(3)
O8 O 0.9645(4) 0.3405(4) 0.3126(4)
C18 C 0.9977(4) 0.3801(5) 0.2438(4)
Zn5 Zn 0.84797(4) 0.51798(4) 0.20057(4)
O8_2 O 0.0355(4) 0.8405(4) 0.1874(4)
C18_2 C 0.0023(4) 0.8801(5) 0.2562(4)
O2_2 O 0.7695(3) 0.3988(3) 0.1770(3)
O3_2 O 0.7911(3) 0.5943(3) 0.3012(3)
O5_2 O 0.6339(3) 0.4507(3) 0.2354(3)
O6_2 O 0.8675(3) 0.9202(3) 0.5795(3)
C5_2 C 0.6848(4) 0.3882(4) 0.1921(4)
C6_2 C 0.5421(4) 0.1291(4) 0.0838(4)
H17_2 H 0.5115 0.0703 0.0606
C7_2 C 0.8274(4) 0.6825(4) 0.3331(4)
C8_2 C 0.8005(4) 0.7224(4) 0.4178(4)
H18_2 H 0.7545 0.6889 0.4531
C9_2 C 0.4996(4) 0.1862(4) 0.1526(4)
C10_2 C 0.8924(4) 0.7356(4) 0.2799(4)
H19_2 H 0.9107 0.7095 0.2214
O10_2 O 0.7487(3) 0.8120(4) 0.5878(3)
C11_2 C 0.6366(4) 0.2960(4) 0.1532(4)
C12_2 C 0.9051(4) 0.8635(4) 0.3997(4)
H20_2 H 0.9322 0.9241 0.4231
C13_2 C 0.5492(4) 0.2715(5) 0.1860(5)
H21_2 H 0.5220 0.3129 0.2321
C14_2 C 0.6770(4) 0.2401(5) 0.0835(4)
H22_2 H 0.7362 0.2581 0.0602
C15_2 C 0.8409(4) 0.8121(4) 0.4516(4)
C16_2 C 0.9306(4) 0.8268(4) 0.3125(4)
C17_2 C 0.8155(4) 0.8494(4) 0.5477(4)
C20_2 C 0.6281(4) 0.1561(5) 0.0482(4)
O12_2 O 0.6334(3) 0.4881(3) 0.4520(3)
O13_2 O 0.8675(3) 0.5798(3) 0.0795(3)
Zn6_2 Zn 0.84797(4) 0.98202(4) 0.70057(4)
O4_2 O 0.6334(3) 0.0119(3) 0.9520(3)
O9_2 O 0.7336(4) 0.1363(4) 0.9222(4)
C19_2 C 0.6698(5) 0.0996(5) 0.9693(5)
Zn4_2 Zn 0.66408(4) 0.95040(5) 0.83343(4)
O7_2 O 0.0240(3) 0.5299(3) 0.7852(3)
O8_3 O 0.0355(4) 0.6595(4) 0.6874(4)
C18_3 C 0.0023(4) 0.6199(5) 0.7562(4)
O1_2 O 0.4147(3) 0.3341(3) 0.6891(3)
O2_3 O 0.7695(3) 0.1012(3) 0.6770(3)
O5_3 O 0.6339(3) 0.0493(3) 0.7354(3)
C5_3 C 0.6848(4) 0.1118(4) 0.6921(4)
C6_3 C 0.5421(4) 0.3709(4) 0.5838(4)
H17_3 H 0.5115 0.4297 0.5606
C9_3 C 0.4996(4) 0.3138(4) 0.6526(4)
O9_3 O 0.7336(4) 0.3637(4) 0.4222(4)
C11_3 C 0.6366(4) 0.2040(4) 0.6532(4)
C13_3 C 0.5492(4) 0.2285(5) 0.6860(5)
H21_3 H 0.5220 0.1871 0.7321
C14_3 C 0.6770(4) 0.2599(5) 0.5835(4)
H22_3 H 0.7362 0.2419 0.5602
C19_3 C 0.6698(5) 0.4004(5) 0.4693(5)
C20_3 C 0.6281(4) 0.3439(5) 0.5482(4)
O14_2 O 0.9760(3) 0.0299(3) 0.7148(3)
O10_3 O 0.7487(3) 0.6880(4) 0.0878(3)
C17_3 C 0.8155(4) 0.6506(4) 0.0477(4)
O3_3 O 0.7911(3) 0.9057(3) 0.8012(3)
C7_3 C 0.8274(4) 0.8175(4) 0.8331(4)
C8_3 C 0.8005(4) 0.7776(4) 0.9178(4)
H18_3 H 0.7545 0.8111 0.9531
C10_3 C 0.8924(4) 0.7644(4) 0.7799(4)
H19_3 H 0.9107 0.7905 0.7214
C12_3 C 0.9051(4) 0.6365(4) 0.8997(4)
H20_3 H 0.9322 0.5759 0.9231
C15_3 C 0.8409(4) 0.6879(4) 0.9516(4)
C16_3 C 0.9306(4) 0.6732(4) 0.8125(4)
O11_2 O 0.5853(3) 0.8341(3) 0.8109(3)
O9_4 O 0.2664(4) 0.8637(4) 0.0778(4)
C19_4 C 0.3302(5) 0.9004(5) 0.0307(5)
O2_4 O 0.2305(3) 0.6012(3) 0.8230(3)
O3_4 O 0.2089(3) 0.4057(3) 0.6988(3)
O5_4 O 0.3661(3) 0.5493(3) 0.7646(3)
C5_4 C 0.3152(4) 0.6118(4) 0.8079(4)
C6_4 C 0.4579(4) 0.8709(4) 0.9162(4)
H17_4 H 0.4885 0.9297 0.9394
C7_4 C 0.1726(4) 0.3175(4) 0.6669(4)
C8_4 C 0.1995(4) 0.2776(4) 0.5822(4)
H18_4 H 0.2455 0.3111 0.5469
C9_4 C 0.5004(4) 0.8138(4) 0.8474(4)
C10_4 C 0.1076(4) 0.2644(4) 0.7201(4)
H19_4 H 0.0893 0.2905 0.7786
O10_4 O 0.2513(3) 0.1880(4) 0.4122(3)
C11_4 C 0.3634(4) 0.7040(4) 0.8468(4)
C12_4 C 0.0949(4) 0.1365(4) 0.6003(4)
H20_4 H 0.0678 0.0759 0.5769
C13_4 C 0.4508(4) 0.7285(5) 0.8140(5)
H21_4 H 0.4780 0.6871 0.7679
C14_4 C 0.3230(4) 0.7599(5) 0.9165(4)
H22_4 H 0.2638 0.7419 0.9398
C15_4 C 0.1591(4) 0.1879(4) 0.5484(4)
C16_4 C 0.0694(4) 0.1732(4) 0.6875(4)
C17_4 C 0.1845(4) 0.1506(4) 0.4523(4)
C20_4 C 0.3719(4) 0.8439(5) 0.9518(4)
O8_4 O 0.9645(4) 0.1595(4) 0.8126(4)
C18_4 C 0.9977(4) 0.1199(5) 0.7438(4)
loop_
_geom_bond_atom_site_label_1
_geom_bond_atom_site_label_2
_geom_bond_site_symmetry_1
_geom_bond_site_symmetry_2
N1 H1 1_555 1_555
H2 N1 1_555 1_555
C1 N1 1_555 1_555
H3 C1 1_555 1_555
H4 C1 1_555 1_555
H5 C1 1_555 1_555
C2 N1 1_555 1_555
H6 C2 1_555 1_555
H7 C2 1_555 1_555
H8 C2 1_555 1_555
N1_2 H1_2 1_555 1_555
H2_2 N1_2 1_555 1_555
C1_2 N1_2 1_555 1_555
H3_2 C1_2 1_555 1_555
H4_2 C1_2 1_555 1_555
H5_2 C1_2 1_555 1_555
C2_2 N1_2 1_555 1_555
H6_2 C2_2 1_555 1_555
H7_2 C2_2 1_555 1_555
H8_2 C2_2 1_555 1_555
N1_3 H1_3 1_555 1_555
H2_3 N1_3 1_555 1_555
C1_3 N1_3 1_555 1_555
H3_3 C1_3 1_555 1_555
H4_3 C1_3 1_555 1_555
H5_3 C1_3 1_555 1_555
C2_3 N1_3 1_555 1_555
H6_3 C2_3 1_555 1_555
H7_3 C2_3 1_555 1_555
H8_3 C2_3 1_555 1_555
N1_4 H1_4 1_555 1_555
H2_4 N1_4 1_555 1_555
C1_4 N1_4 1_555 1_555
H3_4 C1_4 1_555 1_555
H4_4 C1_4 1_555 1_555
H5_4 C1_4 1_555 1_555
C2_4 N1_4 1_555 1_555
H6_4 C2_4 1_555 1_555
H7_4 C2_4 1_555 1_555
H8_4 C2_4 1_555 1_555
N2 H9 1_555 1_555
H10 N2 1_555 1_555
C3 N2 1_555 1_555
H11 C3 1_555 1_555
H12 C3 1_555 1_555
H13 C3 1_555 1_555
C4 N2 1_555 1_555
H14 C4 1_555 1_555
H15 C4 1_555 1_555
H16 C4 1_555 1_555
N2_2 H9_2 1_555 1_555
H10_2 N2_2 1_555 1_555
C3_2 N2_2 1_555 1_555
H11_2 C3_2 1_555 1_555
H12_2 C3_2 1_555 1_555
H13_2 C3_2 1_555 1_555
C4_2 N2_2 1_555 1_555
H14_2 C4_2 1_555 1_555
H15_2 C4_2 1_555 1_555
H16_2 C4_2 1_555 1_555
N2_3 H9_3 1_555 1_555
H10_3 N2_3 1_555 1_555
C3_3 N2_3 1_555 1_555
H11_3 C3_3 1_555 1_555
H12_3 C3_3 1_555 1_555
H13_3 C3_3 1_555 1_555
C4_3 N2_3 1_555 1_555
H14_3 C4_3 1_555 1_555
H15_3 C4_3 1_555 1_555
H16_3 C4_3 1_555 1_555
N2_4 H9_4 1_555 1_555
H10_4 N2_4 1_555 1_555
C3_4 N2_4 1_555 1_555
H11_4 C3_4 1_555 1_555
H12_4 C3_4 1_555 1_555
H13_4 C3_4 1_555 1_555
C4_4 N2_4 1_555 1_555
H14_4 C4_4 1_555 1_555
H15_4 C4_4 1_555 1_555
H16_4 C4_4 1_555 1_555
O3 C7 1_555 1_555
C7 C8 1_555 1_555
C8 H18 1_555 1_555
C10 C7 1_555 1_555
H19 C10 1_555 1_555
C12 H20 1_555 1_555
C15 C8 1_555 1_555
C16 C10 1_555 1_555
Zn1 O3 1_555 1_555
O11 Zn1 1_555 1_555
O13 Zn2 1_555 1_555
O3 Zn2 1_555 1_555
C12 C15 1_555 1_555
C12 C16 1_555 1_555
O6 C17 1_555 1_555
O10 C17 1_555 1_555
Zn6 O6 1_555 1_555
O1 C9 1_555 1_555
O2 C5 1_555 1_555
O4 C19 1_555 1_555
O5 C5 1_555 1_555
C5 C11 1_555 1_555
C6 H17 1_555 1_555
C9 C6 1_555 1_555
O9 C19 1_555 1_555
C11 C13 1_555 1_555
C13 C9 1_555 1_555
H21 C13 1_555 1_555
C14 C11 1_555 1_555
H22 C14 1_555 1_555
C19 C20 1_555 1_555
C20 C6 1_555 1_555
Zn3 O1 1_555 1_555
Zn4 O4 1_555 1_555
C14 C20 1_555 1_555
O7 C18 1_555 1_555
O8 C18 1_555 1_555
Zn5 O7 1_555 1_555
O14 C18_2 1_555 1_555
O8_2 C18_2 1_555 1_555
O11 C9_2 1_555 1_555
O2_2 C5_2 1_555 1_555
O3_2 C7_2 1_555 1_555
O5_2 C5_2 1_555 1_555
O6_2 C17_2 1_555 1_555
C5_2 C11_2 1_555 1_555
C6_2 H17_2 1_555 1_555
C7_2 C8_2 1_555 1_555
C8_2 H18_2 1_555 1_555
C9_2 C6_2 1_555 1_555
C10_2 C7_2 1_555 1_555
H19_2 C10_2 1_555 1_555
O10_2 C17_2 1_555 1_555
C11_2 C13_2 1_555 1_555
C12_2 H20_2 1_555 1_555
C13_2 C9_2 1_555 1_555
H21_2 C13_2 1_555 1_555
C14_2 C11_2 1_555 1_555
H22_2 C14_2 1_555 1_555
C15_2 C8_2 1_555 1_555
C16_2 C10_2 1_555 1_555
C17_2 C15_2 1_555 1_555
C20_2 C6_2 1_555 1_555
Zn3 O3_2 1_555 1_555
Zn5 O2_2 1_555 1_555
O12_2 Zn3 1_555 1_555
O13_2 Zn5 1_555 1_555
Zn6_2 O6_2 1_555 1_555
O3_2 Zn5 1_555 1_555
O5_2 Zn3 1_555 1_555
C12_2 C15_2 1_555 1_555
C12_2 C16_2 1_555 1_555
C14_2 C20_2 1_555 1_555
O4_2 C19_2 1_555 1_555
O9_2 C19_2 1_555 1_555
O7_2 C18_3 1_555 1_555
O8_3 C18_3 1_555 1_555
Zn6 O7_2 1_555 1_555
O1_2 C9_3 1_555 1_555
O2_3 C5_3 1_555 1_555
O12_2 C19_3 1_555 1_555
O5_3 C5_3 1_555 1_555
C5_3 C11_3 1_555 1_555
C6_3 H17_3 1_555 1_555
C9_3 C6_3 1_555 1_555
O9_3 C19_3 1_555 1_555
C11_3 C13_3 1_555 1_555
C13_3 C9_3 1_555 1_555
H21_3 C13_3 1_555 1_555
C14_3 C11_3 1_555 1_555
H22_3 C14_3 1_555 1_555
C19_3 C20_3 1_555 1_555
C20_3 C6_3 1_555 1_555
Zn4 O1_2 1_555 1_555
C14_3 C20_3 1_555 1_555
O13_2 C17_3 1_555 1_555
O10_3 C17_3 1_555 1_555
O3_3 C7_3 1_555 1_555
C7_3 C8_3 1_555 1_555
C8_3 H18_3 1_555 1_555
C10_3 C7_3 1_555 1_555
H19_3 C10_3 1_555 1_555
C12_3 H20_3 1_555 1_555
C15_3 C8_3 1_555 1_555
C16_3 C10_3 1_555 1_555
Zn4_2 O3_3 1_555 1_555
O11_2 Zn4_2 1_555 1_555
O3_3 Zn6_2 1_555 1_555
C12_3 C15_3 1_555 1_555
C12_3 C16_3 1_555 1_555
O12 C19_4 1_555 1_555
O9_4 C19_4 1_555 1_555
O11_2 C9_4 1_555 1_555
O2_4 C5_4 1_555 1_555
O3_4 C7_4 1_555 1_555
O5_4 C5_4 1_555 1_555
O13 C17_4 1_555 1_555
C5_4 C11_4 1_555 1_555
C6_4 H17_4 1_555 1_555
C7_4 C8_4 1_555 1_555
C8_4 H18_4 1_555 1_555
C9_4 C6_4 1_555 1_555
C10_4 C7_4 1_555 1_555
H19_4 C10_4 1_555 1_555
O10_4 C17_4 1_555 1_555
C11_4 C13_4 1_555 1_555
C12_4 H20_4 1_555 1_555
C13_4 C9_4 1_555 1_555
H21_4 C13_4 1_555 1_555
C14_4 C11_4 1_555 1_555
H22_4 C14_4 1_555 1_555
C15_4 C8_4 1_555 1_555
C16_4 C10_4 1_555 1_555
C17_4 C15_4 1_555 1_555
C20_4 C6_4 1_555 1_555
Zn4 O3_4 1_555 1_555
Zn6 O2_4 1_555 1_555
O3_4 Zn6 1_555 1_555
O5_4 Zn4 1_555 1_555
C12_4 C15_4 1_555 1_555
C12_4 C16_4 1_555 1_555
C14_4 C20_4 1_555 1_555
O14_2 C18_4 1_555 1_555
O8_4 C18_4 1_555 1_555

#END
