
###############################################################################
#
# This file contains modified crystal structure data generated from the
# MOF subset of the Cambridge Structural Database (CSD) v543 
# hosted by the Cambridge Crystallographic Data Centre (CCDC).
#
# This work is licensed under the Creative Commons
# Attribution-NonCommercial-ShareAlike 4.0 International License.
# To view a copy of this license, visit
# http://creativecommons.org/licenses/by-nc-sa/4.0/
# or send a letter to
# Creative Commons, PO Box 1866, Mountain View, CA 94042, USA.
#
# CIF created using the CSD Python API on 29 September 2022
# The structure has been converted into the P1 space group
# The structure has a 3D framework
# The original CSD entry RUGXUO is in the orthorhombic crystal system
# The framework has been calculated to contain at least 10.0% void space
# The void calculation uses a probe of radius 1.32A, grid spacing 0.4
# The framework is charged, counterions have been retained in the structure
# H atom positions have been added when not included in the experimental data
#
###############################################################################

data_RUGXUO
_chemical_formula_moiety         '(C372 H406 N24 O174 Zn28 2-)n'
_symmetry_cell_setting           triclinic
_symmetry_space_group_name_H-M   'P 1'
_symmetry_Int_Tables_number      1
_space_group_name_Hall           'P 1'
loop_
_symmetry_equiv_pos_site_id
_symmetry_equiv_pos_as_xyz
1 x,y,z
_cell_length_a                   54.076(4)
_cell_length_b                   15.3088(6)
_cell_length_c                   16.0309(6)
_cell_angle_alpha                90
_cell_angle_beta                 90
_cell_angle_gamma                90
_cell_volume                     13271
loop_
_atom_site_label
_atom_site_type_symbol
_atom_site_fract_x
_atom_site_fract_y
_atom_site_fract_z
N1 N 0.2055(3) 0.6776(8) 0.3554(8)
C1 C 0.2238(4) 0.6098(12) 0.3348(12)
H1 H 0.2270 0.5748 0.3833
H2 H 0.2388 0.6369 0.3165
H3 H 0.2174 0.5734 0.2910
C2 C 0.2140(4) 0.7342(12) 0.4256(12)
H4 H 0.2171 0.6988 0.4739
H5 H 0.2015 0.7765 0.4383
H6 H 0.2290 0.7638 0.4098
C3 C 0.2006(3) 0.7282(11) 0.2823(11)
H7 H 0.1885 0.7719 0.2949
H8 H 0.1945 0.6907 0.2390
H9 H 0.2156 0.7558 0.2639
C4 C 0.1822(6) 0.6331(19) 0.3855(18)
H10 H 0.1859 0.5988 0.4341
H11 H 0.1759 0.5958 0.3423
H12 H 0.1701 0.6764 0.3993
N1_2 N 0.7945(3) 0.3224(8) 0.8554(8)
C1_2 C 0.7762(4) 0.3902(12) 0.8348(12)
H1_2 H 0.7730 0.4252 0.8833
H2_2 H 0.7612 0.3631 0.8165
H3_2 H 0.7826 0.4266 0.7910
C2_2 C 0.7860(4) 0.2658(12) 0.9256(12)
H4_2 H 0.7829 0.3012 0.9739
H5_2 H 0.7985 0.2235 0.9383
H6_2 H 0.7710 0.2362 0.9098
C3_2 C 0.7994(3) 0.2718(11) 0.7823(11)
H7_2 H 0.8115 0.2281 0.7949
H8_2 H 0.8055 0.3093 0.7390
H9_2 H 0.7844 0.2442 0.7639
C4_2 C 0.8178(6) 0.3669(19) 0.8855(18)
H10_2 H 0.8141 0.4012 0.9341
H11_2 H 0.8241 0.4042 0.8423
H12_2 H 0.8299 0.3236 0.8993
N1_3 N 0.7945(3) 0.6776(8) 0.3554(8)
C1_3 C 0.7762(4) 0.6098(12) 0.3348(12)
H1_3 H 0.7730 0.5748 0.3833
H2_3 H 0.7612 0.6369 0.3165
H3_3 H 0.7826 0.5734 0.2910
C2_3 C 0.7860(4) 0.7342(12) 0.4256(12)
H4_3 H 0.7829 0.6988 0.4739
H5_3 H 0.7985 0.7765 0.4383
H6_3 H 0.7710 0.7638 0.4098
C3_3 C 0.7994(3) 0.7282(11) 0.2823(11)
H7_3 H 0.8115 0.7719 0.2949
H8_3 H 0.8055 0.6907 0.2390
H9_3 H 0.7844 0.7558 0.2639
C4_3 C 0.8178(6) 0.6331(19) 0.3855(18)
H10_3 H 0.8141 0.5988 0.4341
H11_3 H 0.8241 0.5958 0.3423
H12_3 H 0.8299 0.6764 0.3993
N1_4 N 0.2055(3) 0.3224(8) 0.8554(8)
C1_4 C 0.2238(4) 0.3902(12) 0.8348(12)
H1_4 H 0.2270 0.4252 0.8833
H2_4 H 0.2388 0.3631 0.8165
H3_4 H 0.2174 0.4266 0.7910
C2_4 C 0.2140(4) 0.2658(12) 0.9256(12)
H4_4 H 0.2171 0.3012 0.9739
H5_4 H 0.2015 0.2235 0.9383
H6_4 H 0.2290 0.2362 0.9098
C3_4 C 0.2006(3) 0.2718(11) 0.7823(11)
H7_4 H 0.1885 0.2281 0.7949
H8_4 H 0.1945 0.3093 0.7390
H9_4 H 0.2156 0.2442 0.7639
C4_4 C 0.1822(6) 0.3669(19) 0.8855(18)
H10_4 H 0.1859 0.4012 0.9341
H11_4 H 0.1759 0.4042 0.8423
H12_4 H 0.1701 0.3236 0.8993
N1_5 N 0.7055(3) 0.1776(8) 0.3554(8)
C1_5 C 0.7238(4) 0.1098(12) 0.3348(12)
H1_5 H 0.7270 0.0748 0.3833
H2_5 H 0.7388 0.1369 0.3165
H3_5 H 0.7174 0.0734 0.2910
C2_5 C 0.7140(4) 0.2342(12) 0.4256(12)
H4_5 H 0.7171 0.1988 0.4739
H5_5 H 0.7015 0.2765 0.4383
H6_5 H 0.7290 0.2638 0.4098
C3_5 C 0.7006(3) 0.2282(11) 0.2823(11)
H7_5 H 0.6885 0.2719 0.2949
H8_5 H 0.6945 0.1907 0.2390
H9_5 H 0.7156 0.2558 0.2639
C4_5 C 0.6822(6) 0.1331(19) 0.3855(18)
H10_5 H 0.6859 0.0988 0.4341
H11_5 H 0.6759 0.0958 0.3423
H12_5 H 0.6701 0.1764 0.3993
N1_6 N 0.2945(3) 0.8224(8) 0.8554(8)
C1_6 C 0.2762(4) 0.8902(12) 0.8348(12)
H1_6 H 0.2730 0.9252 0.8833
H2_6 H 0.2612 0.8631 0.8165
H3_6 H 0.2826 0.9266 0.7910
C2_6 C 0.2860(4) 0.7658(12) 0.9256(12)
H4_6 H 0.2829 0.8012 0.9739
H5_6 H 0.2985 0.7235 0.9383
H6_6 H 0.2710 0.7362 0.9098
C3_6 C 0.2994(3) 0.7718(11) 0.7823(11)
H7_6 H 0.3115 0.7281 0.7949
H8_6 H 0.3055 0.8093 0.7390
H9_6 H 0.2844 0.7442 0.7639
C4_6 C 0.3178(6) 0.8669(19) 0.8855(18)
H10_6 H 0.3141 0.9012 0.9341
H11_6 H 0.3241 0.9042 0.8423
H12_6 H 0.3299 0.8236 0.8993
N1_7 N 0.2945(3) 0.1776(8) 0.3554(8)
C1_7 C 0.2762(4) 0.1098(12) 0.3348(12)
H1_7 H 0.2730 0.0748 0.3833
H2_7 H 0.2612 0.1369 0.3165
H3_7 H 0.2826 0.0734 0.2910
C2_7 C 0.2860(4) 0.2342(12) 0.4256(12)
H4_7 H 0.2829 0.1988 0.4739
H5_7 H 0.2985 0.2765 0.4383
H6_7 H 0.2710 0.2638 0.4098
C3_7 C 0.2994(3) 0.2282(11) 0.2823(11)
H7_7 H 0.3115 0.2719 0.2949
H8_7 H 0.3055 0.1907 0.2390
H9_7 H 0.2844 0.2558 0.2639
C4_7 C 0.3178(6) 0.1331(19) 0.3855(18)
H10_7 H 0.3141 0.0988 0.4341
H11_7 H 0.3241 0.0958 0.3423
H12_7 H 0.3299 0.1764 0.3993
N1_8 N 0.7055(3) 0.8224(8) 0.8554(8)
C1_8 C 0.7238(4) 0.8902(12) 0.8348(12)
H1_8 H 0.7270 0.9252 0.8833
H2_8 H 0.7388 0.8631 0.8165
H3_8 H 0.7174 0.9266 0.7910
C2_8 C 0.7140(4) 0.7658(12) 0.9256(12)
H4_8 H 0.7171 0.8012 0.9739
H5_8 H 0.7015 0.7235 0.9383
H6_8 H 0.7290 0.7362 0.9098
C3_8 C 0.7006(3) 0.7718(11) 0.7823(11)
H7_8 H 0.6885 0.7281 0.7949
H8_8 H 0.6945 0.8093 0.7390
H9_8 H 0.7156 0.7442 0.7639
C4_8 C 0.6822(6) 0.8669(19) 0.8855(18)
H10_8 H 0.6859 0.9012 0.9341
H11_8 H 0.6759 0.9042 0.8423
H12_8 H 0.6701 0.8236 0.8993
C5 C 0.1820(5) 0.7593(14) 0.0411(14)
H13 H 0.1833 0.6978 0.0303
H14 H 0.1678 0.7703 0.0754
H15 H 0.1966 0.7789 0.0695
H18 H 0.1519 0.8726 0.0193
N2 N 0.1794(4) 0.8075(11) 0.9602(11)
C6 C 0.1585(4) 0.8708(12) 0.9637(12)
H16 H 0.1457 0.8528 0.9257
H17 H 0.1643 0.9279 0.9484
C7 C 0.2028(5) 0.8627(16) 0.9406(17)
H19 H 0.2119 0.8353 0.8964
H20 H 0.2129 0.8665 0.9895
H21 H 0.1979 0.9203 0.9235
C8 C 0.1738(5) 0.7433(15) 0.8881(15)
H22 H 0.1889 0.7175 0.8690
H23 H 0.1661 0.7743 0.8430
H24 H 0.1629 0.6983 0.9075
N2_2 N 0.8206(4) 0.1925(11) 0.4602(11)
C5_2 C 0.8180(5) 0.2407(14) 0.5411(14)
H13_2 H 0.8167 0.3022 0.5303
H14_2 H 0.8322 0.2297 0.5754
H15_2 H 0.8034 0.2211 0.5695
C6_2 C 0.8415(4) 0.1292(12) 0.4637(12)
H16_2 H 0.8543 0.1472 0.4257
H17_2 H 0.8357 0.0721 0.4484
H18_2 H 0.8481 0.1274 0.5193
C7_2 C 0.7972(5) 0.1373(16) 0.4406(17)
H19_2 H 0.7881 0.1647 0.3964
H20_2 H 0.7871 0.1335 0.4895
H21_2 H 0.8021 0.0797 0.4235
C8_2 C 0.8262(5) 0.2567(15) 0.3881(15)
H22_2 H 0.8111 0.2825 0.3690
H23_2 H 0.8339 0.2257 0.3430
H24_2 H 0.8371 0.3017 0.4075
C5_3 C 0.8180(5) 0.7593(14) 0.0411(14)
H13_3 H 0.8167 0.6978 0.0303
H14_3 H 0.8322 0.7703 0.0754
H15_3 H 0.8034 0.7789 0.0695
H18_3 H 0.8481 0.8726 0.0193
N2_3 N 0.8206(4) 0.8075(11) 0.9602(11)
C6_3 C 0.8415(4) 0.8708(12) 0.9637(12)
H16_3 H 0.8543 0.8528 0.9257
H17_3 H 0.8357 0.9279 0.9484
C7_3 C 0.7972(5) 0.8627(16) 0.9406(17)
H19_3 H 0.7881 0.8353 0.8964
H20_3 H 0.7871 0.8665 0.9895
H21_3 H 0.8021 0.9203 0.9235
C8_3 C 0.8262(5) 0.7433(15) 0.8881(15)
H22_3 H 0.8111 0.7175 0.8690
H23_3 H 0.8339 0.7743 0.8430
H24_3 H 0.8371 0.6983 0.9075
N2_4 N 0.1794(4) 0.1925(11) 0.4602(11)
C5_4 C 0.1820(5) 0.2407(14) 0.5411(14)
H13_4 H 0.1833 0.3022 0.5303
H14_4 H 0.1678 0.2297 0.5754
H15_4 H 0.1966 0.2211 0.5695
C6_4 C 0.1585(4) 0.1292(12) 0.4637(12)
H16_4 H 0.1457 0.1472 0.4257
H17_4 H 0.1643 0.0721 0.4484
H18_4 H 0.1519 0.1274 0.5193
C7_4 C 0.2028(5) 0.1373(16) 0.4406(17)
H19_4 H 0.2119 0.1647 0.3964
H20_4 H 0.2129 0.1335 0.4895
H21_4 H 0.1979 0.0797 0.4235
C8_4 C 0.1738(5) 0.2567(15) 0.3881(15)
H22_4 H 0.1889 0.2825 0.3690
H23_4 H 0.1661 0.2257 0.3430
H24_4 H 0.1629 0.3017 0.4075
C5_5 C 0.6820(5) 0.2593(14) 0.0411(14)
H13_5 H 0.6833 0.1978 0.0303
H14_5 H 0.6678 0.2703 0.0754
H15_5 H 0.6966 0.2789 0.0695
H18_5 H 0.6519 0.3726 0.0193
N2_5 N 0.6794(4) 0.3075(11) 0.9602(11)
C6_5 C 0.6585(4) 0.3708(12) 0.9637(12)
H16_5 H 0.6457 0.3528 0.9257
H17_5 H 0.6643 0.4279 0.9484
C7_5 C 0.7028(5) 0.3627(16) 0.9406(17)
H19_5 H 0.7119 0.3353 0.8964
H20_5 H 0.7129 0.3665 0.9895
H21_5 H 0.6979 0.4203 0.9235
C8_5 C 0.6738(5) 0.2433(15) 0.8881(15)
H22_5 H 0.6889 0.2175 0.8690
H23_5 H 0.6661 0.2743 0.8430
H24_5 H 0.6629 0.1983 0.9075
N2_6 N 0.3206(4) 0.6925(11) 0.4602(11)
C5_6 C 0.3180(5) 0.7407(14) 0.5411(14)
H13_6 H 0.3167 0.8022 0.5303
H14_6 H 0.3322 0.7297 0.5754
H15_6 H 0.3034 0.7211 0.5695
C6_6 C 0.3415(4) 0.6292(12) 0.4637(12)
H16_6 H 0.3543 0.6472 0.4257
H17_6 H 0.3357 0.5721 0.4484
H18_6 H 0.3481 0.6274 0.5193
C7_6 C 0.2972(5) 0.6373(16) 0.4406(17)
H19_6 H 0.2881 0.6647 0.3964
H20_6 H 0.2871 0.6335 0.4895
H21_6 H 0.3021 0.5797 0.4235
C8_6 C 0.3262(5) 0.7567(15) 0.3881(15)
H22_6 H 0.3111 0.7825 0.3690
H23_6 H 0.3339 0.7257 0.3430
H24_6 H 0.3371 0.8017 0.4075
C5_7 C 0.3180(5) 0.2593(14) 0.0411(14)
H13_7 H 0.3167 0.1978 0.0303
H14_7 H 0.3322 0.2703 0.0754
H15_7 H 0.3034 0.2789 0.0695
H18_7 H 0.3481 0.3726 0.0193
N2_7 N 0.3206(4) 0.3075(11) 0.9602(11)
C6_7 C 0.3415(4) 0.3708(12) 0.9637(12)
H16_7 H 0.3543 0.3528 0.9257
H17_7 H 0.3357 0.4279 0.9484
C7_7 C 0.2972(5) 0.3627(16) 0.9406(17)
H19_7 H 0.2881 0.3353 0.8964
H20_7 H 0.2871 0.3665 0.9895
H21_7 H 0.3021 0.4203 0.9235
C8_7 C 0.3262(5) 0.2433(15) 0.8881(15)
H22_7 H 0.3111 0.2175 0.8690
H23_7 H 0.3339 0.2743 0.8430
H24_7 H 0.3371 0.1983 0.9075
N2_8 N 0.6794(4) 0.6925(11) 0.4602(11)
C5_8 C 0.6820(5) 0.7407(14) 0.5411(14)
H13_8 H 0.6833 0.8022 0.5303
H14_8 H 0.6678 0.7297 0.5754
H15_8 H 0.6966 0.7211 0.5695
C6_8 C 0.6585(4) 0.6292(12) 0.4637(12)
H16_8 H 0.6457 0.6472 0.4257
H17_8 H 0.6643 0.5721 0.4484
H18_8 H 0.6519 0.6274 0.5193
C7_8 C 0.7028(5) 0.6373(16) 0.4406(17)
H19_8 H 0.7119 0.6647 0.3964
H20_8 H 0.7129 0.6335 0.4895
H21_8 H 0.6979 0.5797 0.4235
C8_8 C 0.6738(5) 0.7567(15) 0.3881(15)
H22_8 H 0.6889 0.7825 0.3690
H23_8 H 0.6661 0.7257 0.3430
H24_8 H 0.6629 0.8017 0.4075
C9 C 0.1092(7) 0.951(2) 0.685(2)
H25 H 0.1214 0.9831 0.6543
H26 H 0.1157 0.9368 0.7394
H27 H 0.0947 0.9867 0.6917
N3 N 0.1047(14) 0.894(5) 0.653(4)
H28 H 0.1200 0.8620 0.6466
H29 H 0.0995 0.9119 0.5980
C10 C 0.0869(13) 0.833(4) 0.682(5)
H30 H 0.0775 0.8123 0.6349
H31 H 0.0760 0.8612 0.7207
H32 H 0.0951 0.7853 0.7082
C9_2 C 0.8908(7) 0.049(2) 0.185(2)
H25_2 H 0.8786 0.0169 0.1543
H26_2 H 0.8843 0.0632 0.2394
H27_2 H 0.9053 0.0133 0.1917
N3_2 N 0.8953(14) 0.106(5) 0.153(4)
H28_2 H 0.8800 0.1380 0.1466
H29_2 H 0.9005 0.0881 0.0980
C10_2 C 0.9131(13) 0.167(4) 0.182(5)
H30_2 H 0.9225 0.1877 0.1349
H31_2 H 0.9240 0.1388 0.2207
H32_2 H 0.9049 0.2147 0.2082
C9_3 C 0.8908(7) 0.951(2) 0.685(2)
H25_3 H 0.8786 0.9831 0.6543
H26_3 H 0.8843 0.9368 0.7394
H27_3 H 0.9053 0.9867 0.6917
N3_3 N 0.8953(14) 0.894(5) 0.653(4)
H28_3 H 0.8800 0.8620 0.6466
H29_3 H 0.9005 0.9119 0.5980
C10_3 C 0.9131(13) 0.833(4) 0.682(5)
H30_3 H 0.9225 0.8123 0.6349
H31_3 H 0.9240 0.8612 0.7207
H32_3 H 0.9049 0.7853 0.7082
C9_4 C 0.1092(7) 0.049(2) 0.185(2)
H25_4 H 0.1214 0.0169 0.1543
H26_4 H 0.1157 0.0632 0.2394
H27_4 H 0.0947 0.0133 0.1917
N3_4 N 0.1047(14) 0.106(5) 0.153(4)
H28_4 H 0.1200 0.1380 0.1466
H29_4 H 0.0995 0.0881 0.0980
C10_4 C 0.0869(13) 0.167(4) 0.182(5)
H30_4 H 0.0775 0.1877 0.1349
H31_4 H 0.0760 0.1388 0.2207
H32_4 H 0.0951 0.2147 0.2082
C9_5 C 0.6092(7) 0.451(2) 0.685(2)
H25_5 H 0.6214 0.4831 0.6543
H26_5 H 0.6157 0.4368 0.7394
H27_5 H 0.5947 0.4867 0.6917
N3_5 N 0.6047(14) 0.394(5) 0.653(4)
H28_5 H 0.6200 0.3620 0.6466
H29_5 H 0.5995 0.4119 0.5980
C10_5 C 0.5869(13) 0.333(4) 0.682(5)
H30_5 H 0.5775 0.3123 0.6349
H31_5 H 0.5760 0.3612 0.7207
H32_5 H 0.5951 0.2853 0.7082
C9_6 C 0.3908(7) 0.549(2) 0.185(2)
H25_6 H 0.3786 0.5169 0.1543
H26_6 H 0.3843 0.5632 0.2394
H27_6 H 0.4053 0.5133 0.1917
N3_6 N 0.3953(14) 0.606(5) 0.153(4)
H28_6 H 0.3800 0.6380 0.1466
H29_6 H 0.4005 0.5881 0.0980
C10_6 C 0.4131(13) 0.667(4) 0.182(5)
H30_6 H 0.4225 0.6877 0.1349
H31_6 H 0.4240 0.6388 0.2207
H32_6 H 0.4049 0.7147 0.2082
C9_7 C 0.3908(7) 0.451(2) 0.685(2)
H25_7 H 0.3786 0.4831 0.6543
H26_7 H 0.3843 0.4368 0.7394
H27_7 H 0.4053 0.4867 0.6917
N3_7 N 0.3953(14) 0.394(5) 0.653(4)
H28_7 H 0.3800 0.3620 0.6466
H29_7 H 0.4005 0.4119 0.5980
C10_7 C 0.4131(13) 0.333(4) 0.682(5)
H30_7 H 0.4225 0.3123 0.6349
H31_7 H 0.4240 0.3612 0.7207
H32_7 H 0.4049 0.2853 0.7082
C9_8 C 0.6092(7) 0.549(2) 0.185(2)
H25_8 H 0.6214 0.5169 0.1543
H26_8 H 0.6157 0.5632 0.2394
H27_8 H 0.5947 0.5133 0.1917
N3_8 N 0.6047(14) 0.606(5) 0.153(4)
H28_8 H 0.6200 0.6380 0.1466
H29_8 H 0.5995 0.5881 0.0980
C10_8 C 0.5869(13) 0.667(4) 0.182(5)
H30_8 H 0.5775 0.6877 0.1349
H31_8 H 0.5760 0.6388 0.2207
H32_8 H 0.5951 0.7147 0.2082
Zn10 Zn 0.25296(3) 0.06101(9) 0.04909(10)
O3 O 0.1841(2) 0.0066(6) 0.2464(6)
O6 O 0.22972(19) 0.0178(5) 0.6154(6)
O7 O 0.2433(2) 0.0439(5) 0.9297(5)
O8 O 0.2723(2) 0.1450(6) 0.9386(6)
O18 O 0.2849(2) 0.3421(6) 0.7001(6)
O19 O 0.2620(2) 0.3228(6) 0.5845(6)
C19 C 0.2401(3) 0.0781(8) 0.6709(9)
C20 C 0.2486(2) 0.1555(8) 0.6360(8)
H36 H 0.2465 0.1675 0.5796
C21 C 0.2423(3) 0.0599(8) 0.7516(8)
H37 H 0.2352 0.0088 0.7722
C22 C 0.2600(3) 0.2128(9) 0.6874(9)
C23 C 0.2547(3) 0.1148(8) 0.8059(8)
C24 C 0.2652(3) 0.1942(8) 0.7723(9)
H38 H 0.2748 0.2314 0.8048
C25 C 0.2571(3) 0.1011(10) 0.8957(10)
C29 C 0.2701(3) 0.3013(9) 0.6530(10)
Zn13 Zn 0.24704(3) 0.43899(9) 0.54909(10)
Zn16 Zn 0.20057(3) 0.05122(9) 0.15008(10)
Zn18 Zn 0.29943(3) 0.44878(9) 0.65008(10)
O54 O 0.2860(2) 0.0538(7) 0.5369(7)
O10 O 0.0753(4) 0.0338(10) 0.8652(14)
O21 O 0.0718(4) 0.0774(10) 0.9905(12)
C40 C 0.0750(5) 0.0232(17) 0.9426(15)
Zn20 Zn 0.07028(4) 0.15115(13) 0.83811(15)
Zn1 Zn 0.25296(3) 0.93899(9) 0.54909(10)
Zn2 Zn 0.20057(3) 0.94878(9) 0.65008(10)
Zn3 Zn 0.09555(4) 0.67407(12) 0.29350(16)
Zn4 Zn 0.07028(4) 0.84885(13) 0.33811(15)
O1 O 0.1009(2) 0.7787(7) 0.3619(7)
O2 O 0.1643(3) 0.9185(7) 0.1618(7)
O4 O 0.1590(3) 0.8512(8) 0.5970(8)
O5 O 0.18693(19) 0.9333(7) 0.5390(6)
O9 O 0.0721(3) 0.8552(8) 0.2173(9)
O11 O 0.1349(3) 0.6506(9) 0.2460(9)
O12 O 0.0829(3) 0.7181(7) 0.1827(8)
O13 O 0.0651(2) 0.6339(7) 0.3503(9)
O14 O 0.0449(2) 0.7631(7) 0.3643(8)
O15 O 0.1072(3) 0.5512(8) 0.2722(10)
O16 O 0.2140(2) 0.4462(7) 0.0369(7)
O17 O 0.21648(19) 0.5609(6) 0.1183(6)
O20 O 0.1480(3) 0.2678(8) 0.2047(10)
C11 C 0.1234(3) 0.8233(9) 0.3681(11)
C12 C 0.1344(3) 0.8571(9) 0.2986(10)
H33 H 0.1273 0.8481 0.2465
C13 C 0.1331(3) 0.8320(10) 0.4452(12)
H34 H 0.1251 0.8088 0.4916
C14 C 0.1562(3) 0.9053(8) 0.3053(9)
C15 C 0.1556(3) 0.8773(9) 0.4535(9)
C16 C 0.1662(3) 0.9144(9) 0.3862(10)
H35 H 0.1806 0.9470 0.3933
C17 C 0.1682(3) 0.9435(10) 0.2302(10)
C18 C 0.1683(3) 0.8862(9) 0.5356(10)
C26 C 0.2060(3) 0.4897(12) 0.0937(11)
C27 C 0.1828(3) 0.4678(9) 0.1382(11)
C28 C 0.0461(3) 0.6831(12) 0.3623(10)
C30 C 0.1757(3) 0.3775(9) 0.1448(12)
H39 H 0.1854 0.3351 0.1193
C31 C 0.0783(4) 0.7956(13) 0.1635(14)
C32 C 0.1675(3) 0.5287(9) 0.1710(9)
H40 H 0.1717 0.5874 0.1660
C33 C 0.1549(4) 0.3525(12) 0.1879(12)
C34 C 0.1271(4) 0.5734(12) 0.2443(13)
C35 C 0.1458(3) 0.5061(10) 0.2120(10)
C36 C 0.1383(4) 0.4187(12) 0.2180(12)
H41 H 0.1230 0.4040 0.2408
C37 C 0.0827(6) 0.8200(14) 0.0762(14)
C38 C 0.0760(5) 0.9042(13) 0.0495(16)
H42 H 0.0685 0.9425 0.0867
C39 C 0.0908(5) 0.7615(13) 0.0185(18)
H43 H 0.0960 0.7065 0.0359
O23 O -0.0000 0.409(3) 0.386(3)
C44 C -0.0000 0.498(5) 0.383(3)
C45 C 0.0195(16) 0.546(5) 0.374(4)
H45 H 0.0337 0.5180 0.3561
C46 C 0.0217(11) 0.639(4) 0.388(4)
C47 C -0.0000 0.676(5) 0.369(4)
H46 H 0.0000 0.7299 0.3416
Zn12 Zn 0.24704(3) 0.56101(9) 0.04909(10)
O47 O 0.1841(2) 0.9934(6) 0.7464(6)
O49 O 0.2433(2) 0.9561(5) 0.4297(5)
O51 O 0.2723(2) 0.8550(6) 0.4386(6)
O53 O 0.0753(4) 0.9662(10) 0.3652(14)
O56 O 0.28352(19) 0.9391(6) 0.6183(6)
O59 O 0.2151(2) 0.8421(6) 0.7001(6)
O61 O 0.2380(2) 0.8228(6) 0.5845(6)
H61 H 0.161109 0.238791 0.238077
H62 H 0.0102736 0.389128 0.433706
Zn9 Zn 0.74704(3) 0.06101(9) 0.04909(10)
O28 O 0.8159(2) 0.0066(6) 0.2464(6)
O31 O 0.77028(19) 0.0178(5) 0.6154(6)
O32 O 0.7567(2) 0.0439(5) 0.9297(5)
O33 O 0.7277(2) 0.1450(6) 0.9386(6)
O41 O 0.7151(2) 0.3421(6) 0.7001(6)
O42 O 0.7380(2) 0.3228(6) 0.5845(6)
C59 C 0.7599(3) 0.0781(8) 0.6709(9)
C60 C 0.7514(2) 0.1555(8) 0.6360(8)
H51 H 0.7535 0.1675 0.5796
C61 C 0.7577(3) 0.0599(8) 0.7516(8)
H52 H 0.7648 0.0088 0.7722
C62 C 0.7400(3) 0.2128(9) 0.6874(9)
C63 C 0.7453(3) 0.1148(8) 0.8059(8)
C64 C 0.7348(3) 0.1942(8) 0.7723(9)
H53 H 0.7252 0.2314 0.8048
C65 C 0.7429(3) 0.1011(10) 0.8957(10)
C68 C 0.7299(3) 0.3013(9) 0.6530(10)
Zn11 Zn 0.75296(3) 0.43899(9) 0.54909(10)
Zn15 Zn 0.79943(3) 0.05122(9) 0.15008(10)
Zn17 Zn 0.70057(3) 0.44878(9) 0.65008(10)
O55 O 0.7140(2) 0.0538(7) 0.5369(7)
O35 O 0.9247(4) 0.0338(10) 0.8652(14)
O44 O 0.9282(4) 0.0774(10) 0.9905(12)
C79 C 0.9250(5) 0.0232(17) 0.9426(15)
Zn19 Zn 0.92972(4) 0.15115(13) 0.83811(15)
O23_2 O 1.0000 0.409(3) 0.386(3)
C44_2 C 1.0000 0.498(5) 0.383(3)
C47_2 C 1.0000 0.676(5) 0.369(4)
H46_2 H 1.0000 0.7299 0.3416
O24 O 0.9349(2) 0.6339(7) 0.3503(9)
O25 O 0.9551(2) 0.7631(7) 0.3643(8)
C48 C 0.9539(3) 0.6831(12) 0.3623(10)
C49 C 0.9805(16) 0.546(5) 0.374(4)
H47 H 0.9663 0.5180 0.3561
C50 C 0.9783(11) 0.639(4) 0.388(4)
Zn5 Zn 0.74704(3) 0.93899(9) 0.54909(10)
Zn6 Zn 0.79943(3) 0.94878(9) 0.65008(10)
Zn7 Zn 0.90445(4) 0.67407(12) 0.29350(16)
Zn8 Zn 0.92972(4) 0.84885(13) 0.33811(15)
O26 O 0.8991(2) 0.7787(7) 0.3619(7)
O27 O 0.8357(3) 0.9185(7) 0.1618(7)
O29 O 0.8410(3) 0.8512(8) 0.5970(8)
O30 O 0.81307(19) 0.9333(7) 0.5390(6)
O34 O 0.9279(3) 0.8552(8) 0.2173(9)
O36 O 0.8651(3) 0.6506(9) 0.2460(9)
O37 O 0.9171(3) 0.7181(7) 0.1827(8)
O38 O 0.8928(3) 0.5512(8) 0.2722(10)
O39 O 0.7860(2) 0.4462(7) 0.0369(7)
O40 O 0.78352(19) 0.5609(6) 0.1183(6)
O43 O 0.8520(3) 0.2678(8) 0.2047(10)
C51 C 0.8766(3) 0.8233(9) 0.3681(11)
C52 C 0.8656(3) 0.8571(9) 0.2986(10)
H48 H 0.8727 0.8481 0.2465
C53 C 0.8669(3) 0.8320(10) 0.4452(12)
H49 H 0.8749 0.8088 0.4916
C54 C 0.8438(3) 0.9053(8) 0.3053(9)
C55 C 0.8444(3) 0.8773(9) 0.4535(9)
C56 C 0.8338(3) 0.9144(9) 0.3862(10)
H50 H 0.8194 0.9470 0.3933
C57 C 0.8318(3) 0.9435(10) 0.2302(10)
C58 C 0.8317(3) 0.8862(9) 0.5356(10)
C66 C 0.7940(3) 0.4897(12) 0.0937(11)
C67 C 0.8172(3) 0.4678(9) 0.1382(11)
C69 C 0.8243(3) 0.3775(9) 0.1448(12)
H54 H 0.8146 0.3351 0.1193
C70 C 0.9217(4) 0.7956(13) 0.1635(14)
C71 C 0.8325(3) 0.5287(9) 0.1710(9)
H55 H 0.8283 0.5874 0.1660
C72 C 0.8451(4) 0.3525(12) 0.1879(12)
C73 C 0.8729(4) 0.5734(12) 0.2443(13)
C74 C 0.8542(3) 0.5061(10) 0.2120(10)
C75 C 0.8617(4) 0.4187(12) 0.2180(12)
H56 H 0.8770 0.4040 0.2408
C76 C 0.9173(6) 0.8200(14) 0.0762(14)
C77 C 0.9240(5) 0.9042(13) 0.0495(16)
H57 H 0.9315 0.9425 0.0867
C78 C 0.9092(5) 0.7615(13) 0.0185(18)
H58 H 0.9040 0.7065 0.0359
Zn14 Zn 0.75296(3) 0.56101(9) 0.04909(10)
O46 O 0.8159(2) 0.9934(6) 0.7464(6)
O48 O 0.7567(2) 0.9561(5) 0.4297(5)
O50 O 0.7277(2) 0.8550(6) 0.4386(6)
O52 O 0.9247(4) 0.9662(10) 0.3652(14)
O57 O 0.71648(19) 0.9391(6) 0.6183(6)
O58 O 0.7849(2) 0.8421(6) 0.7001(6)
O60 O 0.7620(2) 0.8228(6) 0.5845(6)
H64 H 0.854361 0.235681 0.151477
O29_2 O 0.1590(3) 0.1488(8) 0.0970(8)
O30_2 O 0.18693(19) 0.0667(7) 0.0390(6)
C58_2 C 0.1683(3) 0.1138(9) 0.0356(10)
O57_2 O 0.28352(19) 0.0609(6) 0.1183(6)
O58_2 O 0.2151(2) 0.1579(6) 0.2001(6)
O60_2 O 0.2380(2) 0.1772(6) 0.0845(6)
O23_3 O 0.0000 0.591(3) 0.886(3)
C44_3 C -0.0000 0.502(5) 0.883(3)
C47_3 C -0.0000 0.324(5) 0.869(4)
H46_3 H -0.0000 0.2701 0.8416
O24_2 O 0.0651(2) 0.3661(7) 0.8503(9)
O25_2 O 0.0449(2) 0.2369(7) 0.8643(8)
C48_2 C 0.0461(3) 0.3169(12) 0.8623(10)
C49_2 C 0.0195(16) 0.454(5) 0.874(4)
H47_2 H 0.0337 0.4820 0.8561
C50_2 C 0.0217(11) 0.361(4) 0.888(4)
Zn7_2 Zn 0.09555(4) 0.32593(12) 0.79350(16)
O26_2 O 0.1009(2) 0.2213(7) 0.8619(7)
O27_2 O 0.1643(3) 0.0815(7) 0.6618(7)
O34_2 O 0.0721(3) 0.1448(8) 0.7173(9)
O36_2 O 0.1349(3) 0.3494(9) 0.7460(9)
O37_2 O 0.0829(3) 0.2819(7) 0.6827(8)
O38_2 O 0.1072(3) 0.4488(8) 0.7722(10)
O39_2 O 0.2140(2) 0.5538(7) 0.5369(7)
O40_2 O 0.21648(19) 0.4391(6) 0.6183(6)
O43_2 O 0.1480(3) 0.7322(8) 0.7047(10)
C51_2 C 0.1234(3) 0.1767(9) 0.8681(11)
C52_2 C 0.1344(3) 0.1429(9) 0.7986(10)
H48_2 H 0.1273 0.1519 0.7465
C53_2 C 0.1331(3) 0.1680(10) 0.9452(12)
H49_2 H 0.1251 0.1912 0.9916
C54_2 C 0.1562(3) 0.0947(8) 0.8053(9)
C55_2 C 0.1556(3) 0.1227(9) 0.9535(9)
C56_2 C 0.1662(3) 0.0856(9) 0.8862(10)
H50_2 H 0.1806 0.0530 0.8933
C57_2 C 0.1682(3) 0.0565(10) 0.7302(10)
C66_2 C 0.2060(3) 0.5103(12) 0.5937(11)
C67_2 C 0.1828(3) 0.5322(9) 0.6382(11)
C69_2 C 0.1757(3) 0.6225(9) 0.6448(12)
H54_2 H 0.1854 0.6649 0.6193
C70_2 C 0.0783(4) 0.2044(13) 0.6635(14)
C71_2 C 0.1675(3) 0.4713(9) 0.6710(9)
H55_2 H 0.1717 0.4126 0.6660
C72_2 C 0.1549(4) 0.6475(12) 0.6879(12)
C73_2 C 0.1271(4) 0.4266(12) 0.7443(13)
C74_2 C 0.1458(3) 0.4939(10) 0.7120(10)
C75_2 C 0.1383(4) 0.5813(12) 0.7180(12)
H56_2 H 0.1230 0.5960 0.7408
C76_2 C 0.0827(6) 0.1800(14) 0.5762(14)
C77_2 C 0.0760(5) 0.0958(13) 0.5495(16)
H57_2 H 0.0685 0.0575 0.5867
C78_2 C 0.0908(5) 0.2385(13) 0.5185(18)
H58_2 H 0.0960 0.2935 0.5359
C80 C 0.0917(6) 0.2179(19) 0.435(2)
C81 C 0.0805(8) 0.0703(18) 0.471(2)
O45 O 0.1017(7) 0.2737(18) 0.3720(17)
C82 C 0.0898(8) 0.1296(19) 0.414(2)
H59 H 0.0948 0.1105 0.3616
H60 H 0.119379 0.285587 0.384316
H64_2 H 0.145639 0.764319 0.651477
O31_2 O 0.22972(19) 0.9822(5) 0.1154(6)
O41_2 O 0.2849(2) 0.6579(6) 0.2001(6)
O42_2 O 0.2620(2) 0.6772(6) 0.0845(6)
C59_2 C 0.2401(3) 0.9219(8) 0.1709(9)
C60_2 C 0.2486(2) 0.8445(8) 0.1360(8)
H51_2 H 0.2465 0.8325 0.0796
C61_2 C 0.2423(3) 0.9401(8) 0.2516(8)
H52_2 H 0.2352 0.9912 0.2722
C62_2 C 0.2600(3) 0.7872(9) 0.1874(9)
C63_2 C 0.2547(3) 0.8852(8) 0.3059(8)
C64_2 C 0.2652(3) 0.8058(8) 0.2723(9)
H53_2 H 0.2748 0.7686 0.3048
C65_2 C 0.2571(3) 0.8989(10) 0.3957(10)
C68_2 C 0.2701(3) 0.6987(9) 0.1530(10)
Zn17_2 Zn 0.29943(3) 0.55122(9) 0.15008(10)
O55_2 O 0.2860(2) 0.9462(7) 0.0369(7)
O44_2 O 0.0718(4) 0.9226(10) 0.4905(12)
C79_2 C 0.0750(5) 0.9768(17) 0.4426(15)
O4_2 O 0.8410(3) 0.1488(8) 0.0970(8)
O5_2 O 0.81307(19) 0.0667(7) 0.0390(6)
C18_2 C 0.8317(3) 0.1138(9) 0.0356(10)
O56_2 O 0.71648(19) 0.0609(6) 0.1183(6)
O59_2 O 0.7849(2) 0.1579(6) 0.2001(6)
O61_2 O 0.7620(2) 0.1772(6) 0.0845(6)
Zn3_2 Zn 0.90445(4) 0.32593(12) 0.79350(16)
O1_2 O 0.8991(2) 0.2213(7) 0.8619(7)
O2_2 O 0.8357(3) 0.0815(7) 0.6618(7)
O9_2 O 0.9279(3) 0.1448(8) 0.7173(9)
O11_2 O 0.8651(3) 0.3494(9) 0.7460(9)
O12_2 O 0.9171(3) 0.2819(7) 0.6827(8)
O13_2 O 0.9349(2) 0.3661(7) 0.8503(9)
O14_2 O 0.9551(2) 0.2369(7) 0.8643(8)
O15_2 O 0.8928(3) 0.4488(8) 0.7722(10)
O16_2 O 0.7860(2) 0.5538(7) 0.5369(7)
O17_2 O 0.78352(19) 0.4391(6) 0.6183(6)
O20_2 O 0.8520(3) 0.7322(8) 0.7047(10)
C11_2 C 0.8766(3) 0.1767(9) 0.8681(11)
C12_2 C 0.8656(3) 0.1429(9) 0.7986(10)
H33_2 H 0.8727 0.1519 0.7465
C13_2 C 0.8669(3) 0.1680(10) 0.9452(12)
H34_2 H 0.8749 0.1912 0.9916
C14_2 C 0.8438(3) 0.0947(8) 0.8053(9)
C15_2 C 0.8444(3) 0.1227(9) 0.9535(9)
C16_2 C 0.8338(3) 0.0856(9) 0.8862(10)
H35_2 H 0.8194 0.0530 0.8933
C17_2 C 0.8318(3) 0.0565(10) 0.7302(10)
C26_2 C 0.7940(3) 0.5103(12) 0.5937(11)
C27_2 C 0.8172(3) 0.5322(9) 0.6382(11)
C28_2 C 0.9539(3) 0.3169(12) 0.8623(10)
C30_2 C 0.8243(3) 0.6225(9) 0.6448(12)
H39_2 H 0.8146 0.6649 0.6193
C31_2 C 0.9217(4) 0.2044(13) 0.6635(14)
C32_2 C 0.8325(3) 0.4713(9) 0.6710(9)
H40_2 H 0.8283 0.4126 0.6660
C33_2 C 0.8451(4) 0.6475(12) 0.6879(12)
C34_2 C 0.8729(4) 0.4266(12) 0.7443(13)
C35_2 C 0.8542(3) 0.4939(10) 0.7120(10)
C36_2 C 0.8617(4) 0.5813(12) 0.7180(12)
H41_2 H 0.8770 0.5960 0.7408
C37_2 C 0.9173(6) 0.1800(14) 0.5762(14)
C38_2 C 0.9240(5) 0.0958(13) 0.5495(16)
H42_2 H 0.9315 0.0575 0.5867
C39_2 C 0.9092(5) 0.2385(13) 0.5185(18)
H43_2 H 0.9040 0.2935 0.5359
C41 C 0.9083(6) 0.2179(19) 0.435(2)
C42 C 0.9195(8) 0.0703(18) 0.471(2)
O22 O 0.8983(7) 0.2737(18) 0.3720(17)
C43 C 0.9102(8) 0.1296(19) 0.414(2)
H44 H 0.9052 0.1105 0.3616
O23_4 O 1.0000 0.591(3) 0.886(3)
C44_4 C 1.0000 0.502(5) 0.883(3)
C45_2 C 0.9805(16) 0.454(5) 0.874(4)
H45_2 H 0.9663 0.4820 0.8561
C46_2 C 0.9783(11) 0.361(4) 0.888(4)
C47_4 C 1.0000 0.324(5) 0.869(4)
H46_4 H 1.0000 0.2701 0.8416
H61_2 H 0.838891 0.761209 0.738077
H62_2 H 0.989726 0.610872 0.933706
H63 H 0.907615 0.329592 0.371105
O6_2 O 0.77028(19) 0.9822(5) 0.1154(6)
O18_2 O 0.7151(2) 0.6579(6) 0.2001(6)
O19_2 O 0.7380(2) 0.6772(6) 0.0845(6)
C19_2 C 0.7599(3) 0.9219(8) 0.1709(9)
C20_2 C 0.7514(2) 0.8445(8) 0.1360(8)
H36_2 H 0.7535 0.8325 0.0796
C21_2 C 0.7577(3) 0.9401(8) 0.2516(8)
H37_2 H 0.7648 0.9912 0.2722
C22_2 C 0.7400(3) 0.7872(9) 0.1874(9)
C23_2 C 0.7453(3) 0.8852(8) 0.3059(8)
C24_2 C 0.7348(3) 0.8058(8) 0.2723(9)
H38_2 H 0.7252 0.7686 0.3048
C25_2 C 0.7429(3) 0.8989(10) 0.3957(10)
C29_2 C 0.7299(3) 0.6987(9) 0.1530(10)
Zn18_2 Zn 0.70057(3) 0.55122(9) 0.15008(10)
O54_2 O 0.7140(2) 0.9462(7) 0.0369(7)
O21_2 O 0.9282(4) 0.9226(10) 0.4905(12)
C40_2 C 0.9250(5) 0.9768(17) 0.4426(15)
H64_3 H 0.145639 0.235681 0.151477
H61_3 H 0.838891 0.238791 0.238077
H62_3 H 0.989726 0.389128 0.433706
H61_4 H 0.161109 0.761209 0.738077
H62_4 H 0.0102736 0.610872 0.933706
H63_2 H 0.0923851 0.329592 0.371105
H60_2 H 0.880621 0.285587 0.384316
H64_4 H 0.854361 0.764319 0.651477
Zn3_3 Zn 0.59555(4) 0.17407(12) 0.29350(16)
Zn4_2 Zn 0.57028(4) 0.34885(13) 0.33811(15)
O1_3 O 0.6009(2) 0.2787(7) 0.3619(7)
O2_3 O 0.6643(3) 0.4185(7) 0.1618(7)
O3_2 O 0.6841(2) 0.5066(6) 0.2464(6)
O4_3 O 0.6590(3) 0.3512(8) 0.5970(8)
O5_3 O 0.68693(19) 0.4333(7) 0.5390(6)
O6_3 O 0.72972(19) 0.5178(5) 0.6154(6)
O7_2 O 0.7433(2) 0.5439(5) 0.9297(5)
O8_2 O 0.7723(2) 0.6450(6) 0.9386(6)
O9_3 O 0.5721(3) 0.3552(8) 0.2173(9)
O11_3 O 0.6349(3) 0.1506(9) 0.2460(9)
O12_3 O 0.5829(3) 0.2181(7) 0.1827(8)
O13_3 O 0.5651(2) 0.1339(7) 0.3503(9)
O14_3 O 0.5449(2) 0.2631(7) 0.3643(8)
O15_3 O 0.6072(3) 0.0512(8) 0.2722(10)
C11_3 C 0.6234(3) 0.3233(9) 0.3681(11)
C12_3 C 0.6344(3) 0.3571(9) 0.2986(10)
H33_3 H 0.6273 0.3481 0.2465
C13_3 C 0.6331(3) 0.3320(10) 0.4452(12)
H34_3 H 0.6251 0.3088 0.4916
C14_3 C 0.6562(3) 0.4053(8) 0.3053(9)
C15_3 C 0.6556(3) 0.3773(9) 0.4535(9)
C16_3 C 0.6662(3) 0.4144(9) 0.3862(10)
H35_3 H 0.6806 0.4470 0.3933
C17_3 C 0.6682(3) 0.4435(10) 0.2302(10)
C18_3 C 0.6683(3) 0.3862(9) 0.5356(10)
C19_3 C 0.7401(3) 0.5781(8) 0.6709(9)
C20_3 C 0.7486(2) 0.6555(8) 0.6360(8)
H36_3 H 0.7465 0.6675 0.5796
C21_3 C 0.7423(3) 0.5599(8) 0.7516(8)
H37_3 H 0.7352 0.5088 0.7722
C22_3 C 0.7600(3) 0.7128(9) 0.6874(9)
C23_3 C 0.7547(3) 0.6148(8) 0.8059(8)
C24_3 C 0.7652(3) 0.6942(8) 0.7723(9)
H38_3 H 0.7748 0.7314 0.8048
C25_3 C 0.7571(3) 0.6011(10) 0.8957(10)
C28_3 C 0.5461(3) 0.1831(12) 0.3623(10)
C29_3 C 0.7701(3) 0.8013(9) 0.6530(10)
C31_3 C 0.5783(4) 0.2956(13) 0.1635(14)
C32_3 C 0.6675(3) 0.0287(9) 0.1710(9)
H40_3 H 0.6717 0.0874 0.1660
C34_3 C 0.6271(4) 0.0734(12) 0.2443(13)
C35_3 C 0.6458(3) 0.0061(10) 0.2120(10)
C37_3 C 0.5827(6) 0.3200(14) 0.0762(14)
C38_3 C 0.5760(5) 0.4042(13) 0.0495(16)
H42_3 H 0.5685 0.4425 0.0867
C39_3 C 0.5908(5) 0.2615(13) 0.0185(18)
H43_3 H 0.5960 0.2065 0.0359
C45_3 C 0.5195(16) 0.046(5) 0.374(4)
H45_3 H 0.5337 0.0180 0.3561
C46_3 C 0.5217(11) 0.139(4) 0.388(4)
C47_5 C 0.5000 0.176(5) 0.369(4)
H46_5 H 0.5000 0.2299 0.3416
O24_3 O 0.4349(2) 0.1339(7) 0.3503(9)
O25_3 O 0.4551(2) 0.2631(7) 0.3643(8)
C48_3 C 0.4539(3) 0.1831(12) 0.3623(10)
C49_3 C 0.4805(16) 0.046(5) 0.374(4)
H47_3 H 0.4663 0.0180 0.3561
C50_3 C 0.4783(11) 0.139(4) 0.388(4)
Zn7_3 Zn 0.40445(4) 0.17407(12) 0.29350(16)
Zn8_2 Zn 0.42972(4) 0.34885(13) 0.33811(15)
O26_3 O 0.3991(2) 0.2787(7) 0.3619(7)
O27_3 O 0.3357(3) 0.4185(7) 0.1618(7)
O28_2 O 0.3159(2) 0.5066(6) 0.2464(6)
O29_3 O 0.3410(3) 0.3512(8) 0.5970(8)
O30_3 O 0.31307(19) 0.4333(7) 0.5390(6)
O31_3 O 0.27028(19) 0.5178(5) 0.6154(6)
O32_2 O 0.2567(2) 0.5439(5) 0.9297(5)
O33_2 O 0.2277(2) 0.6450(6) 0.9386(6)
O34_3 O 0.4279(3) 0.3552(8) 0.2173(9)
O36_3 O 0.3651(3) 0.1506(9) 0.2460(9)
O37_3 O 0.4171(3) 0.2181(7) 0.1827(8)
O38_3 O 0.3928(3) 0.0512(8) 0.2722(10)
C51_3 C 0.3766(3) 0.3233(9) 0.3681(11)
C52_3 C 0.3656(3) 0.3571(9) 0.2986(10)
H48_3 H 0.3727 0.3481 0.2465
C53_3 C 0.3669(3) 0.3320(10) 0.4452(12)
H49_3 H 0.3749 0.3088 0.4916
C54_3 C 0.3438(3) 0.4053(8) 0.3053(9)
C55_3 C 0.3444(3) 0.3773(9) 0.4535(9)
C56_3 C 0.3338(3) 0.4144(9) 0.3862(10)
H50_3 H 0.3194 0.4470 0.3933
C57_3 C 0.3318(3) 0.4435(10) 0.2302(10)
C58_3 C 0.3317(3) 0.3862(9) 0.5356(10)
C59_3 C 0.2599(3) 0.5781(8) 0.6709(9)
C60_3 C 0.2514(2) 0.6555(8) 0.6360(8)
H51_3 H 0.2535 0.6675 0.5796
C61_3 C 0.2577(3) 0.5599(8) 0.7516(8)
H52_3 H 0.2648 0.5088 0.7722
C62_3 C 0.2400(3) 0.7128(9) 0.6874(9)
C63_3 C 0.2453(3) 0.6148(8) 0.8059(8)
C64_3 C 0.2348(3) 0.6942(8) 0.7723(9)
H53_3 H 0.2252 0.7314 0.8048
C65_3 C 0.2429(3) 0.6011(10) 0.8957(10)
C68_3 C 0.2299(3) 0.8013(9) 0.6530(10)
C70_3 C 0.4217(4) 0.2956(13) 0.1635(14)
C71_3 C 0.3325(3) 0.0287(9) 0.1710(9)
H55_3 H 0.3283 0.0874 0.1660
C73_3 C 0.3729(4) 0.0734(12) 0.2443(13)
C74_3 C 0.3542(3) 0.0061(10) 0.2120(10)
C76_3 C 0.4173(6) 0.3200(14) 0.0762(14)
C77_3 C 0.4240(5) 0.4042(13) 0.0495(16)
H57_3 H 0.4315 0.4425 0.0867
C78_3 C 0.4092(5) 0.2615(13) 0.0185(18)
H58_3 H 0.4040 0.2065 0.0359
O46_2 O 0.3159(2) 0.4934(6) 0.7464(6)
O47_2 O 0.6841(2) 0.4934(6) 0.7464(6)
O48_2 O 0.2567(2) 0.4561(5) 0.4297(5)
O49_2 O 0.7433(2) 0.4561(5) 0.4297(5)
O50_2 O 0.2277(2) 0.3550(6) 0.4386(6)
O51_2 O 0.7723(2) 0.3550(6) 0.4386(6)
O52_2 O 0.4247(4) 0.4662(10) 0.3652(14)
O53_2 O 0.5753(4) 0.4662(10) 0.3652(14)
O10_2 O 0.5753(4) 0.5338(10) 0.8652(14)
O21_3 O 0.5718(4) 0.5774(10) 0.9905(12)
C40_3 C 0.5750(5) 0.5232(17) 0.9426(15)
C41_2 C 0.5917(6) 0.2821(19) 0.935(2)
C42_2 C 0.5805(8) 0.4297(18) 0.971(2)
O22_2 O 0.6017(7) 0.2263(18) 0.8720(17)
C43_2 C 0.5898(8) 0.3704(19) 0.914(2)
H44_2 H 0.5948 0.3895 0.8616
O35_2 O 0.4247(4) 0.5338(10) 0.8652(14)
O44_3 O 0.4282(4) 0.5774(10) 0.9905(12)
C79_3 C 0.4250(5) 0.5232(17) 0.9426(15)
C80_2 C 0.4083(6) 0.2821(19) 0.935(2)
C81_2 C 0.4195(8) 0.4297(18) 0.971(2)
O45_2 O 0.3983(7) 0.2263(18) 0.8720(17)
C82_2 C 0.4102(8) 0.3704(19) 0.914(2)
H59_2 H 0.4052 0.3895 0.8616
Zn19_2 Zn 0.42972(4) 0.65115(13) 0.83811(15)
Zn20_2 Zn 0.57028(4) 0.65115(13) 0.83811(15)
H60_3 H 0.380621 0.214413 0.884316
H63_3 H 0.592385 0.170408 0.871105
O20_3 O 0.6480(3) 0.7678(8) 0.2047(10)
C26_3 C 0.7060(3) 0.9897(12) 0.0937(11)
C27_3 C 0.6828(3) 0.9678(9) 0.1382(11)
C30_3 C 0.6757(3) 0.8775(9) 0.1448(12)
H39_3 H 0.6854 0.8351 0.1193
C33_3 C 0.6549(4) 0.8525(12) 0.1879(12)
C36_3 C 0.6383(4) 0.9187(12) 0.2180(12)
H41_3 H 0.6230 0.9040 0.2408
O23_5 O 0.5000 0.909(3) 0.386(3)
C44_5 C 0.5000 0.998(5) 0.383(3)
O43_3 O 0.3520(3) 0.7678(8) 0.2047(10)
C66_3 C 0.2940(3) 0.9897(12) 0.0937(11)
C67_3 C 0.3172(3) 0.9678(9) 0.1382(11)
C69_3 C 0.3243(3) 0.8775(9) 0.1448(12)
H54_3 H 0.3146 0.8351 0.1193
C72_3 C 0.3451(4) 0.8525(12) 0.1879(12)
C75_3 C 0.3617(4) 0.9187(12) 0.2180(12)
H56_3 H 0.3770 0.9040 0.2408
H61_5 H 0.661109 0.738791 0.238077
H62_5 H 0.510274 0.889128 0.433706
H64_5 H 0.354361 0.735681 0.151477
O20_4 O 0.3520(3) 0.2322(8) 0.7047(10)
C26_4 C 0.2940(3) 0.0103(12) 0.5937(11)
C27_4 C 0.3172(3) 0.0322(9) 0.6382(11)
C30_4 C 0.3243(3) 0.1225(9) 0.6448(12)
H39_4 H 0.3146 0.1649 0.6193
C33_4 C 0.3451(4) 0.1475(12) 0.6879(12)
C36_4 C 0.3617(4) 0.0813(12) 0.7180(12)
H41_4 H 0.3770 0.0960 0.7408
O23_6 O 0.5000 0.091(3) 0.886(3)
C44_6 C 0.5000 0.002(5) 0.883(3)
O43_4 O 0.6480(3) 0.2322(8) 0.7047(10)
C66_4 C 0.7060(3) 0.0103(12) 0.5937(11)
C67_4 C 0.6828(3) 0.0322(9) 0.6382(11)
C69_4 C 0.6757(3) 0.1225(9) 0.6448(12)
H54_4 H 0.6854 0.1649 0.6193
C72_4 C 0.6549(4) 0.1475(12) 0.6879(12)
C75_4 C 0.6383(4) 0.0813(12) 0.7180(12)
H56_4 H 0.6230 0.0960 0.7408
H61_6 H 0.338891 0.261209 0.738077
H62_6 H 0.489726 0.110872 0.933706
H64_6 H 0.645639 0.264319 0.651477
O4_4 O 0.3410(3) 0.6488(8) 0.0970(8)
O5_4 O 0.31307(19) 0.5667(7) 0.0390(6)
O6_4 O 0.27028(19) 0.4822(5) 0.1154(6)
C18_4 C 0.3317(3) 0.6138(9) 0.0356(10)
C19_4 C 0.2599(3) 0.4219(8) 0.1709(9)
C20_4 C 0.2514(2) 0.3445(8) 0.1360(8)
H36_4 H 0.2535 0.3325 0.0796
C21_4 C 0.2577(3) 0.4401(8) 0.2516(8)
H37_4 H 0.2648 0.4912 0.2722
C22_4 C 0.2400(3) 0.2872(9) 0.1874(9)
C23_4 C 0.2453(3) 0.3852(8) 0.3059(8)
C24_4 C 0.2348(3) 0.3058(8) 0.2723(9)
H38_4 H 0.2252 0.2686 0.3048
C25_4 C 0.2429(3) 0.3989(10) 0.3957(10)
C29_4 C 0.2299(3) 0.1987(9) 0.1530(10)
O29_4 O 0.6590(3) 0.6488(8) 0.0970(8)
O30_4 O 0.68693(19) 0.5667(7) 0.0390(6)
O31_4 O 0.72972(19) 0.4822(5) 0.1154(6)
C58_4 C 0.6683(3) 0.6138(9) 0.0356(10)
C59_4 C 0.7401(3) 0.4219(8) 0.1709(9)
C60_4 C 0.7486(2) 0.3445(8) 0.1360(8)
H51_4 H 0.7465 0.3325 0.0796
C61_4 C 0.7423(3) 0.4401(8) 0.2516(8)
H52_4 H 0.7352 0.4912 0.2722
C62_4 C 0.7600(3) 0.2872(9) 0.1874(9)
C63_4 C 0.7547(3) 0.3852(8) 0.3059(8)
C64_4 C 0.7652(3) 0.3058(8) 0.2723(9)
H53_4 H 0.7748 0.2686 0.3048
C65_4 C 0.7571(3) 0.3989(10) 0.3957(10)
C68_4 C 0.7701(3) 0.1987(9) 0.1530(10)
Zn3_4 Zn 0.40445(4) 0.82593(12) 0.79350(16)
O1_4 O 0.3991(2) 0.7213(7) 0.8619(7)
O2_4 O 0.3357(3) 0.5815(7) 0.6618(7)
O9_4 O 0.4279(3) 0.6448(8) 0.7173(9)
O11_4 O 0.3651(3) 0.8494(9) 0.7460(9)
O12_4 O 0.4171(3) 0.7819(7) 0.6827(8)
O13_4 O 0.4349(2) 0.8661(7) 0.8503(9)
O14_4 O 0.4551(2) 0.7369(7) 0.8643(8)
O15_4 O 0.3928(3) 0.9488(8) 0.7722(10)
O21_4 O 0.4282(4) 0.4226(10) 0.4905(12)
C11_4 C 0.3766(3) 0.6767(9) 0.8681(11)
C12_4 C 0.3656(3) 0.6429(9) 0.7986(10)
H33_4 H 0.3727 0.6519 0.7465
C13_4 C 0.3669(3) 0.6680(10) 0.9452(12)
H34_4 H 0.3749 0.6912 0.9916
C14_4 C 0.3438(3) 0.5947(8) 0.8053(9)
C15_4 C 0.3444(3) 0.6227(9) 0.9535(9)
C16_4 C 0.3338(3) 0.5856(9) 0.8862(10)
H35_4 H 0.3194 0.5530 0.8933
C17_4 C 0.3318(3) 0.5565(10) 0.7302(10)
C28_4 C 0.4539(3) 0.8169(12) 0.8623(10)
C31_4 C 0.4217(4) 0.7044(13) 0.6635(14)
C32_4 C 0.3325(3) 0.9713(9) 0.6710(9)
H40_4 H 0.3283 0.9126 0.6660
C34_4 C 0.3729(4) 0.9266(12) 0.7443(13)
C35_4 C 0.3542(3) 0.9939(10) 0.7120(10)
C37_4 C 0.4173(6) 0.6800(14) 0.5762(14)
C38_4 C 0.4240(5) 0.5958(13) 0.5495(16)
H42_4 H 0.4315 0.5575 0.5867
C39_4 C 0.4092(5) 0.7385(13) 0.5185(18)
H43_4 H 0.4040 0.7935 0.5359
C40_4 C 0.4250(5) 0.4768(17) 0.4426(15)
C41_3 C 0.4083(6) 0.7179(19) 0.435(2)
C42_3 C 0.4195(8) 0.5703(18) 0.471(2)
O22_3 O 0.3983(7) 0.7737(18) 0.3720(17)
C43_3 C 0.4102(8) 0.6296(19) 0.414(2)
H44_3 H 0.4052 0.6105 0.3616
C45_4 C 0.4805(16) 0.954(5) 0.874(4)
H45_4 H 0.4663 0.9820 0.8561
C46_4 C 0.4783(11) 0.861(4) 0.888(4)
C47_6 C 0.5000 0.824(5) 0.869(4)
H46_6 H 0.5000 0.7701 0.8416
O24_4 O 0.5651(2) 0.8661(7) 0.8503(9)
O25_4 O 0.5449(2) 0.7369(7) 0.8643(8)
C48_4 C 0.5461(3) 0.8169(12) 0.8623(10)
C49_4 C 0.5195(16) 0.954(5) 0.874(4)
H47_4 H 0.5337 0.9820 0.8561
C50_4 C 0.5217(11) 0.861(4) 0.888(4)
Zn7_4 Zn 0.59555(4) 0.82593(12) 0.79350(16)
O26_4 O 0.6009(2) 0.7213(7) 0.8619(7)
O27_4 O 0.6643(3) 0.5815(7) 0.6618(7)
O34_4 O 0.5721(3) 0.6448(8) 0.7173(9)
O36_4 O 0.6349(3) 0.8494(9) 0.7460(9)
O37_4 O 0.5829(3) 0.7819(7) 0.6827(8)
O38_4 O 0.6072(3) 0.9488(8) 0.7722(10)
O44_4 O 0.5718(4) 0.4226(10) 0.4905(12)
C51_4 C 0.6234(3) 0.6767(9) 0.8681(11)
C52_4 C 0.6344(3) 0.6429(9) 0.7986(10)
H48_4 H 0.6273 0.6519 0.7465
C53_4 C 0.6331(3) 0.6680(10) 0.9452(12)
H49_4 H 0.6251 0.6912 0.9916
C54_4 C 0.6562(3) 0.5947(8) 0.8053(9)
C55_4 C 0.6556(3) 0.6227(9) 0.9535(9)
C56_4 C 0.6662(3) 0.5856(9) 0.8862(10)
H50_4 H 0.6806 0.5530 0.8933
C57_4 C 0.6682(3) 0.5565(10) 0.7302(10)
C70_4 C 0.5783(4) 0.7044(13) 0.6635(14)
C71_4 C 0.6675(3) 0.9713(9) 0.6710(9)
H55_4 H 0.6717 0.9126 0.6660
C73_4 C 0.6271(4) 0.9266(12) 0.7443(13)
C74_4 C 0.6458(3) 0.9939(10) 0.7120(10)
C76_4 C 0.5827(6) 0.6800(14) 0.5762(14)
C77_4 C 0.5760(5) 0.5958(13) 0.5495(16)
H57_4 H 0.5685 0.5575 0.5867
C78_4 C 0.5908(5) 0.7385(13) 0.5185(18)
H58_4 H 0.5960 0.7935 0.5359
C79_4 C 0.5750(5) 0.4768(17) 0.4426(15)
C80_3 C 0.5917(6) 0.7179(19) 0.435(2)
C81_3 C 0.5805(8) 0.5703(18) 0.471(2)
O45_3 O 0.6017(7) 0.7737(18) 0.3720(17)
C82_3 C 0.5898(8) 0.6296(19) 0.414(2)
H59_3 H 0.5948 0.6105 0.3616
H60_4 H 0.619379 0.785587 0.384316
H63_4 H 0.407615 0.829592 0.371105
H60_5 H 0.619379 0.214413 0.884316
H63_5 H 0.407615 0.170408 0.871105
H61_7 H 0.338891 0.738791 0.238077
H62_7 H 0.489726 0.889128 0.433706
H64_7 H 0.645639 0.735681 0.151477
H61_8 H 0.661109 0.261209 0.738077
H62_8 H 0.510274 0.110872 0.933706
H64_8 H 0.354361 0.264319 0.651477
H60_6 H 0.380621 0.785587 0.384316
H63_6 H 0.592385 0.829592 0.371105
C41_4 C 0.0917(6) 0.7821(19) 0.935(2)
C42_4 C 0.0805(8) 0.9297(18) 0.971(2)
O22_4 O 0.1017(7) 0.7263(18) 0.8720(17)
C43_4 C 0.0898(8) 0.8704(19) 0.914(2)
H44_4 H 0.0948 0.8895 0.8616
H63_7 H 0.0923851 0.670408 0.871105
H60_7 H 0.119379 0.714413 0.884316
C80_4 C 0.9083(6) 0.7821(19) 0.935(2)
C81_4 C 0.9195(8) 0.9297(18) 0.971(2)
O45_4 O 0.8983(7) 0.7263(18) 0.8720(17)
C82_4 C 0.9102(8) 0.8704(19) 0.914(2)
H59_4 H 0.9052 0.8895 0.8616
H60_8 H 0.880621 0.714413 0.884316
H63_8 H 0.907615 0.670408 0.871105
loop_
_geom_bond_atom_site_label_1
_geom_bond_atom_site_label_2
_geom_bond_site_symmetry_1
_geom_bond_site_symmetry_2
N1 C1 1_555 1_555
C1 H1 1_555 1_555
H2 C1 1_555 1_555
H3 C1 1_555 1_555
C2 N1 1_555 1_555
H4 C2 1_555 1_555
H5 C2 1_555 1_555
H6 C2 1_555 1_555
C3 N1 1_555 1_555
H7 C3 1_555 1_555
H8 C3 1_555 1_555
H9 C3 1_555 1_555
C4 N1 1_555 1_555
H10 C4 1_555 1_555
H11 C4 1_555 1_555
H12 C4 1_555 1_555
N1_2 C1_2 1_555 1_555
C1_2 H1_2 1_555 1_555
H2_2 C1_2 1_555 1_555
H3_2 C1_2 1_555 1_555
C2_2 N1_2 1_555 1_555
H4_2 C2_2 1_555 1_555
H5_2 C2_2 1_555 1_555
H6_2 C2_2 1_555 1_555
C3_2 N1_2 1_555 1_555
H7_2 C3_2 1_555 1_555
H8_2 C3_2 1_555 1_555
H9_2 C3_2 1_555 1_555
C4_2 N1_2 1_555 1_555
H10_2 C4_2 1_555 1_555
H11_2 C4_2 1_555 1_555
H12_2 C4_2 1_555 1_555
N1_3 C1_3 1_555 1_555
C1_3 H1_3 1_555 1_555
H2_3 C1_3 1_555 1_555
H3_3 C1_3 1_555 1_555
C2_3 N1_3 1_555 1_555
H4_3 C2_3 1_555 1_555
H5_3 C2_3 1_555 1_555
H6_3 C2_3 1_555 1_555
C3_3 N1_3 1_555 1_555
H7_3 C3_3 1_555 1_555
H8_3 C3_3 1_555 1_555
H9_3 C3_3 1_555 1_555
C4_3 N1_3 1_555 1_555
H10_3 C4_3 1_555 1_555
H11_3 C4_3 1_555 1_555
H12_3 C4_3 1_555 1_555
N1_4 C1_4 1_555 1_555
C1_4 H1_4 1_555 1_555
H2_4 C1_4 1_555 1_555
H3_4 C1_4 1_555 1_555
C2_4 N1_4 1_555 1_555
H4_4 C2_4 1_555 1_555
H5_4 C2_4 1_555 1_555
H6_4 C2_4 1_555 1_555
C3_4 N1_4 1_555 1_555
H7_4 C3_4 1_555 1_555
H8_4 C3_4 1_555 1_555
H9_4 C3_4 1_555 1_555
C4_4 N1_4 1_555 1_555
H10_4 C4_4 1_555 1_555
H11_4 C4_4 1_555 1_555
H12_4 C4_4 1_555 1_555
N1_5 C1_5 1_555 1_555
C1_5 H1_5 1_555 1_555
H2_5 C1_5 1_555 1_555
H3_5 C1_5 1_555 1_555
C2_5 N1_5 1_555 1_555
H4_5 C2_5 1_555 1_555
H5_5 C2_5 1_555 1_555
H6_5 C2_5 1_555 1_555
C3_5 N1_5 1_555 1_555
H7_5 C3_5 1_555 1_555
H8_5 C3_5 1_555 1_555
H9_5 C3_5 1_555 1_555
C4_5 N1_5 1_555 1_555
H10_5 C4_5 1_555 1_555
H11_5 C4_5 1_555 1_555
H12_5 C4_5 1_555 1_555
N1_6 C1_6 1_555 1_555
C1_6 H1_6 1_555 1_555
H2_6 C1_6 1_555 1_555
H3_6 C1_6 1_555 1_555
C2_6 N1_6 1_555 1_555
H4_6 C2_6 1_555 1_555
H5_6 C2_6 1_555 1_555
H6_6 C2_6 1_555 1_555
C3_6 N1_6 1_555 1_555
H7_6 C3_6 1_555 1_555
H8_6 C3_6 1_555 1_555
H9_6 C3_6 1_555 1_555
C4_6 N1_6 1_555 1_555
H10_6 C4_6 1_555 1_555
H11_6 C4_6 1_555 1_555
H12_6 C4_6 1_555 1_555
N1_7 C1_7 1_555 1_555
C1_7 H1_7 1_555 1_555
H2_7 C1_7 1_555 1_555
H3_7 C1_7 1_555 1_555
C2_7 N1_7 1_555 1_555
H4_7 C2_7 1_555 1_555
H5_7 C2_7 1_555 1_555
H6_7 C2_7 1_555 1_555
C3_7 N1_7 1_555 1_555
H7_7 C3_7 1_555 1_555
H8_7 C3_7 1_555 1_555
H9_7 C3_7 1_555 1_555
C4_7 N1_7 1_555 1_555
H10_7 C4_7 1_555 1_555
H11_7 C4_7 1_555 1_555
H12_7 C4_7 1_555 1_555
N1_8 C1_8 1_555 1_555
C1_8 H1_8 1_555 1_555
H2_8 C1_8 1_555 1_555
H3_8 C1_8 1_555 1_555
C2_8 N1_8 1_555 1_555
H4_8 C2_8 1_555 1_555
H5_8 C2_8 1_555 1_555
H6_8 C2_8 1_555 1_555
C3_8 N1_8 1_555 1_555
H7_8 C3_8 1_555 1_555
H8_8 C3_8 1_555 1_555
H9_8 C3_8 1_555 1_555
C4_8 N1_8 1_555 1_555
H10_8 C4_8 1_555 1_555
H11_8 C4_8 1_555 1_555
H12_8 C4_8 1_555 1_555
C5 H13 1_555 1_555
H14 C5 1_555 1_555
H15 C5 1_555 1_555
C6 N2 1_555 1_555
H16 C6 1_555 1_555
H17 C6 1_555 1_555
C7 N2 1_555 1_555
H19 C7 1_555 1_555
H20 C7 1_555 1_555
H21 C7 1_555 1_555
C8 N2 1_555 1_555
H22 C8 1_555 1_555
H23 C8 1_555 1_555
H24 C8 1_555 1_555
N2_2 C5_2 1_555 1_555
C5_2 H13_2 1_555 1_555
H14_2 C5_2 1_555 1_555
H15_2 C5_2 1_555 1_555
C6_2 N2_2 1_555 1_555
H16_2 C6_2 1_555 1_555
H17_2 C6_2 1_555 1_555
H18_2 C6_2 1_555 1_555
C7_2 N2_2 1_555 1_555
H19_2 C7_2 1_555 1_555
H20_2 C7_2 1_555 1_555
H21_2 C7_2 1_555 1_555
C8_2 N2_2 1_555 1_555
H22_2 C8_2 1_555 1_555
H23_2 C8_2 1_555 1_555
H24_2 C8_2 1_555 1_555
C5_3 H13_3 1_555 1_555
H14_3 C5_3 1_555 1_555
H15_3 C5_3 1_555 1_555
C6_3 N2_3 1_555 1_555
H16_3 C6_3 1_555 1_555
H17_3 C6_3 1_555 1_555
C7_3 N2_3 1_555 1_555
H19_3 C7_3 1_555 1_555
H20_3 C7_3 1_555 1_555
H21_3 C7_3 1_555 1_555
C8_3 N2_3 1_555 1_555
H22_3 C8_3 1_555 1_555
H23_3 C8_3 1_555 1_555
H24_3 C8_3 1_555 1_555
N2_4 C5_4 1_555 1_555
C5_4 H13_4 1_555 1_555
H14_4 C5_4 1_555 1_555
H15_4 C5_4 1_555 1_555
C6_4 N2_4 1_555 1_555
H16_4 C6_4 1_555 1_555
H17_4 C6_4 1_555 1_555
H18_4 C6_4 1_555 1_555
C7_4 N2_4 1_555 1_555
H19_4 C7_4 1_555 1_555
H20_4 C7_4 1_555 1_555
H21_4 C7_4 1_555 1_555
C8_4 N2_4 1_555 1_555
H22_4 C8_4 1_555 1_555
H23_4 C8_4 1_555 1_555
H24_4 C8_4 1_555 1_555
C5_5 H13_5 1_555 1_555
H14_5 C5_5 1_555 1_555
H15_5 C5_5 1_555 1_555
C6_5 N2_5 1_555 1_555
H16_5 C6_5 1_555 1_555
H17_5 C6_5 1_555 1_555
C7_5 N2_5 1_555 1_555
H19_5 C7_5 1_555 1_555
H20_5 C7_5 1_555 1_555
H21_5 C7_5 1_555 1_555
C8_5 N2_5 1_555 1_555
H22_5 C8_5 1_555 1_555
H23_5 C8_5 1_555 1_555
H24_5 C8_5 1_555 1_555
N2_6 C5_6 1_555 1_555
C5_6 H13_6 1_555 1_555
H14_6 C5_6 1_555 1_555
H15_6 C5_6 1_555 1_555
C6_6 N2_6 1_555 1_555
H16_6 C6_6 1_555 1_555
H17_6 C6_6 1_555 1_555
H18_6 C6_6 1_555 1_555
C7_6 N2_6 1_555 1_555
H19_6 C7_6 1_555 1_555
H20_6 C7_6 1_555 1_555
H21_6 C7_6 1_555 1_555
C8_6 N2_6 1_555 1_555
H22_6 C8_6 1_555 1_555
H23_6 C8_6 1_555 1_555
H24_6 C8_6 1_555 1_555
C5_7 H13_7 1_555 1_555
H14_7 C5_7 1_555 1_555
H15_7 C5_7 1_555 1_555
C6_7 N2_7 1_555 1_555
H16_7 C6_7 1_555 1_555
H17_7 C6_7 1_555 1_555
C7_7 N2_7 1_555 1_555
H19_7 C7_7 1_555 1_555
H20_7 C7_7 1_555 1_555
H21_7 C7_7 1_555 1_555
C8_7 N2_7 1_555 1_555
H22_7 C8_7 1_555 1_555
H23_7 C8_7 1_555 1_555
H24_7 C8_7 1_555 1_555
N2_8 C5_8 1_555 1_555
C5_8 H13_8 1_555 1_555
H14_8 C5_8 1_555 1_555
H15_8 C5_8 1_555 1_555
C6_8 N2_8 1_555 1_555
H16_8 C6_8 1_555 1_555
H17_8 C6_8 1_555 1_555
H18_8 C6_8 1_555 1_555
C7_8 N2_8 1_555 1_555
H19_8 C7_8 1_555 1_555
H20_8 C7_8 1_555 1_555
H21_8 C7_8 1_555 1_555
C8_8 N2_8 1_555 1_555
H22_8 C8_8 1_555 1_555
H23_8 C8_8 1_555 1_555
H24_8 C8_8 1_555 1_555
C9 H25 1_555 1_555
H26 C9 1_555 1_555
H27 C9 1_555 1_555
N3 C9 1_555 1_555
H28 N3 1_555 1_555
H29 N3 1_555 1_555
C10 N3 1_555 1_555
H30 C10 1_555 1_555
H31 C10 1_555 1_555
H32 C10 1_555 1_555
C9_2 H25_2 1_555 1_555
H26_2 C9_2 1_555 1_555
H27_2 C9_2 1_555 1_555
N3_2 C9_2 1_555 1_555
H28_2 N3_2 1_555 1_555
H29_2 N3_2 1_555 1_555
C10_2 N3_2 1_555 1_555
H30_2 C10_2 1_555 1_555
H31_2 C10_2 1_555 1_555
H32_2 C10_2 1_555 1_555
C9_3 H25_3 1_555 1_555
H26_3 C9_3 1_555 1_555
H27_3 C9_3 1_555 1_555
N3_3 C9_3 1_555 1_555
H28_3 N3_3 1_555 1_555
H29_3 N3_3 1_555 1_555
C10_3 N3_3 1_555 1_555
H30_3 C10_3 1_555 1_555
H31_3 C10_3 1_555 1_555
H32_3 C10_3 1_555 1_555
C9_4 H25_4 1_555 1_555
H26_4 C9_4 1_555 1_555
H27_4 C9_4 1_555 1_555
N3_4 C9_4 1_555 1_555
H28_4 N3_4 1_555 1_555
H29_4 N3_4 1_555 1_555
C10_4 N3_4 1_555 1_555
H30_4 C10_4 1_555 1_555
H31_4 C10_4 1_555 1_555
H32_4 C10_4 1_555 1_555
C9_5 H25_5 1_555 1_555
H26_5 C9_5 1_555 1_555
H27_5 C9_5 1_555 1_555
N3_5 C9_5 1_555 1_555
H28_5 N3_5 1_555 1_555
H29_5 N3_5 1_555 1_555
C10_5 N3_5 1_555 1_555
H30_5 C10_5 1_555 1_555
H31_5 C10_5 1_555 1_555
H32_5 C10_5 1_555 1_555
C9_6 H25_6 1_555 1_555
H26_6 C9_6 1_555 1_555
H27_6 C9_6 1_555 1_555
N3_6 C9_6 1_555 1_555
H28_6 N3_6 1_555 1_555
H29_6 N3_6 1_555 1_555
C10_6 N3_6 1_555 1_555
H30_6 C10_6 1_555 1_555
H31_6 C10_6 1_555 1_555
H32_6 C10_6 1_555 1_555
C9_7 H25_7 1_555 1_555
H26_7 C9_7 1_555 1_555
H27_7 C9_7 1_555 1_555
N3_7 C9_7 1_555 1_555
H28_7 N3_7 1_555 1_555
H29_7 N3_7 1_555 1_555
C10_7 N3_7 1_555 1_555
H30_7 C10_7 1_555 1_555
H31_7 C10_7 1_555 1_555
H32_7 C10_7 1_555 1_555
C9_8 H25_8 1_555 1_555
H26_8 C9_8 1_555 1_555
H27_8 C9_8 1_555 1_555
N3_8 C9_8 1_555 1_555
H28_8 N3_8 1_555 1_555
H29_8 N3_8 1_555 1_555
C10_8 N3_8 1_555 1_555
H30_8 C10_8 1_555 1_555
H31_8 C10_8 1_555 1_555
H32_8 C10_8 1_555 1_555
O7 C25 1_555 1_555
O8 C25 1_555 1_555
O18 C29 1_555 1_555
O19 C29 1_555 1_555
C19 O6 1_555 1_555
C20 C19 1_555 1_555
H36 C20 1_555 1_555
C21 C19 1_555 1_555
H37 C21 1_555 1_555
C22 C20 1_555 1_555
C23 C21 1_555 1_555
C24 C22 1_555 1_555
H38 C24 1_555 1_555
C25 C23 1_555 1_555
C29 C22 1_555 1_555
Zn13 O19 1_555 1_555
Zn16 O3 1_555 1_555
Zn18 O18 1_555 1_555
C23 C24 1_555 1_555
O10 C40 1_555 1_555
O21 C40 1_555 1_555
Zn20 O10 1_555 1_555
Zn2 O5 1_555 1_555
Zn3 O1 1_555 1_555
Zn4 O1 1_555 1_555
O1 C11 1_555 1_555
O2 C17 1_555 1_555
O4 C18 1_555 1_555
O5 C18 1_555 1_555
O9 Zn4 1_555 1_555
O11 Zn3 1_555 1_555
O12 Zn3 1_555 1_555
O13 Zn3 1_555 1_555
O14 Zn4 1_555 1_555
O15 Zn3 1_555 1_555
O16 C26 1_555 1_555
O17 C26 1_555 1_555
O20 C33 1_555 1_555
C11 C12 1_555 1_555
C12 H33 1_555 1_555
C13 C11 1_555 1_555
H34 C13 1_555 1_555
C14 C12 1_555 1_555
C15 C13 1_555 1_555
C16 C14 1_555 1_555
H35 C16 1_555 1_555
C17 C14 1_555 1_555
C18 C15 1_555 1_555
C26 C27 1_555 1_555
C27 C30 1_555 1_555
C28 O13 1_555 1_555
C30 H39 1_555 1_555
C31 O9 1_555 1_555
C32 C27 1_555 1_555
H40 C32 1_555 1_555
C33 C30 1_555 1_555
C34 O11 1_555 1_555
C35 C32 1_555 1_555
C36 C33 1_555 1_555
H41 C36 1_555 1_555
C37 C31 1_555 1_555
C38 C37 1_555 1_555
H42 C38 1_555 1_555
C39 C37 1_555 1_555
H43 C39 1_555 1_555
O23 C44 1_555 1_555
C44 C45 1_555 1_555
C45 H45 1_555 1_555
C46 C28 1_555 1_555
C47 C46 1_555 1_555
H46 C47 1_555 1_555
Zn12 O16 1_555 1_555
O47 Zn2 1_555 1_555
O49 Zn1 1_555 1_555
O51 Zn1 1_555 1_555
O53 Zn4 1_555 1_555
O56 Zn1 1_555 1_555
O59 Zn2 1_555 1_555
O61 Zn1 1_555 1_555
O12 C31 1_555 1_555
O14 C28 1_555 1_555
O15 C34 1_555 1_555
O17 Zn12 1_555 1_555
C15 C16 1_555 1_555
C34 C35 1_555 1_555
C35 C36 1_555 1_555
C45 C46 1_555 1_555
O20 H61 1_555 1_555
O23 H62 1_555 1_555
O32 C65 1_555 1_555
O33 C65 1_555 1_555
O41 C68 1_555 1_555
O42 C68 1_555 1_555
C59 O31 1_555 1_555
C60 C59 1_555 1_555
H51 C60 1_555 1_555
C61 C59 1_555 1_555
H52 C61 1_555 1_555
C62 C60 1_555 1_555
C63 C61 1_555 1_555
C64 C62 1_555 1_555
H53 C64 1_555 1_555
C65 C63 1_555 1_555
C68 C62 1_555 1_555
Zn11 O42 1_555 1_555
Zn15 O28 1_555 1_555
Zn17 O41 1_555 1_555
C63 C64 1_555 1_555
O35 C79 1_555 1_555
O44 C79 1_555 1_555
Zn19 O35 1_555 1_555
O23_2 C44_2 1_555 1_555
H46_2 C47_2 1_555 1_555
O24 C48 1_555 1_555
O25 C48 1_555 1_555
C48 C50 1_555 1_555
C49 C44_2 1_555 1_555
H47 C49 1_555 1_555
C50 C47_2 1_555 1_555
Zn6 O30 1_555 1_555
Zn7 O24 1_555 1_555
Zn8 O25 1_555 1_555
O26 Zn7 1_555 1_555
O27 C57 1_555 1_555
O29 C58 1_555 1_555
O30 C58 1_555 1_555
O34 Zn8 1_555 1_555
O36 Zn7 1_555 1_555
O37 Zn7 1_555 1_555
O38 Zn7 1_555 1_555
O39 C66 1_555 1_555
O40 C66 1_555 1_555
O43 C72 1_555 1_555
C51 O26 1_555 1_555
C52 C51 1_555 1_555
H48 C52 1_555 1_555
C53 C51 1_555 1_555
H49 C53 1_555 1_555
C54 C52 1_555 1_555
C55 C53 1_555 1_555
C56 C54 1_555 1_555
H50 C56 1_555 1_555
C57 C54 1_555 1_555
C58 C55 1_555 1_555
C66 C67 1_555 1_555
C67 C69 1_555 1_555
C69 H54 1_555 1_555
C70 O34 1_555 1_555
C71 C67 1_555 1_555
H55 C71 1_555 1_555
C72 C69 1_555 1_555
C73 O36 1_555 1_555
C74 C71 1_555 1_555
C75 C72 1_555 1_555
H56 C75 1_555 1_555
C76 C70 1_555 1_555
C77 C76 1_555 1_555
H57 C77 1_555 1_555
C78 C76 1_555 1_555
H58 C78 1_555 1_555
Zn14 O39 1_555 1_555
O46 Zn6 1_555 1_555
O48 Zn5 1_555 1_555
O50 Zn5 1_555 1_555
O52 Zn8 1_555 1_555
O57 Zn5 1_555 1_555
O58 Zn6 1_555 1_555
O60 Zn5 1_555 1_555
C49 C50 1_555 1_555
Zn8 O26 1_555 1_555
O37 C70 1_555 1_555
O38 C73 1_555 1_555
O40 Zn14 1_555 1_555
C55 C56 1_555 1_555
C73 C74 1_555 1_555
C74 C75 1_555 1_555
O43 H64 1_555 1_555
Zn16 O30_2 1_555 1_555
O29_2 C58_2 1_555 1_555
O30_2 C58_2 1_555 1_555
O57_2 Zn10 1_555 1_555
O58_2 Zn16 1_555 1_555
O60_2 Zn10 1_555 1_555
O23_3 C44_3 1_555 1_555
H46_3 C47_3 1_555 1_555
O24_2 C48_2 1_555 1_555
O25_2 C48_2 1_555 1_555
C48_2 C50_2 1_555 1_555
C49_2 C44_3 1_555 1_555
H47_2 C49_2 1_555 1_555
C50_2 C47_3 1_555 1_555
Zn7_2 O24_2 1_555 1_555
Zn20 O25_2 1_555 1_555
O26_2 Zn7_2 1_555 1_555
O27_2 C57_2 1_555 1_555
O34_2 Zn20 1_555 1_555
O36_2 Zn7_2 1_555 1_555
O37_2 Zn7_2 1_555 1_555
O38_2 Zn7_2 1_555 1_555
O39_2 C66_2 1_555 1_555
O40_2 C66_2 1_555 1_555
O43_2 C72_2 1_555 1_555
C51_2 O26_2 1_555 1_555
C52_2 C51_2 1_555 1_555
H48_2 C52_2 1_555 1_555
C53_2 C51_2 1_555 1_555
H49_2 C53_2 1_555 1_555
C54_2 C52_2 1_555 1_555
C55_2 C53_2 1_555 1_555
C56_2 C54_2 1_555 1_555
H50_2 C56_2 1_555 1_555
C57_2 C54_2 1_555 1_555
C66_2 C67_2 1_555 1_555
C67_2 C69_2 1_555 1_555
C69_2 H54_2 1_555 1_555
C70_2 O34_2 1_555 1_555
C71_2 C67_2 1_555 1_555
H55_2 C71_2 1_555 1_555
C72_2 C69_2 1_555 1_555
C73_2 O36_2 1_555 1_555
C74_2 C71_2 1_555 1_555
C75_2 C72_2 1_555 1_555
H56_2 C75_2 1_555 1_555
C76_2 C70_2 1_555 1_555
C77_2 C76_2 1_555 1_555
H57_2 C77_2 1_555 1_555
C78_2 C76_2 1_555 1_555
H58_2 C78_2 1_555 1_555
C80 C78_2 1_555 1_555
C81 C77_2 1_555 1_555
O45 C80 1_555 1_555
C82 C80 1_555 1_555
H59 C82 1_555 1_555
Zn13 O39_2 1_555 1_555
C49_2 C50_2 1_555 1_555
Zn20 O26_2 1_555 1_555
O37_2 C70_2 1_555 1_555
O38_2 C73_2 1_555 1_555
O40_2 Zn13 1_555 1_555
C55_2 C56_2 1_555 1_555
C73_2 C74_2 1_555 1_555
C74_2 C75_2 1_555 1_555
C81 C82 1_555 1_555
O45 H60 1_555 1_555
O43_2 H64_2 1_555 1_555
O49 C65_2 1_555 1_555
O51 C65_2 1_555 1_555
O41_2 C68_2 1_555 1_555
O42_2 C68_2 1_555 1_555
C59_2 O31_2 1_555 1_555
C60_2 C59_2 1_555 1_555
H51_2 C60_2 1_555 1_555
C61_2 C59_2 1_555 1_555
H52_2 C61_2 1_555 1_555
C62_2 C60_2 1_555 1_555
C63_2 C61_2 1_555 1_555
C64_2 C62_2 1_555 1_555
H53_2 C64_2 1_555 1_555
C65_2 C63_2 1_555 1_555
C68_2 C62_2 1_555 1_555
Zn12 O42_2 1_555 1_555
Zn17_2 O41_2 1_555 1_555
C63_2 C64_2 1_555 1_555
O53 C79_2 1_555 1_555
O44_2 C79_2 1_555 1_555
Zn15 O5_2 1_555 1_555
O4_2 C18_2 1_555 1_555
O5_2 C18_2 1_555 1_555
O56_2 Zn9 1_555 1_555
O59_2 Zn15 1_555 1_555
O61_2 Zn9 1_555 1_555
Zn3_2 O1_2 1_555 1_555
Zn19 O1_2 1_555 1_555
O1_2 C11_2 1_555 1_555
O2_2 C17_2 1_555 1_555
O9_2 Zn19 1_555 1_555
O11_2 Zn3_2 1_555 1_555
O12_2 Zn3_2 1_555 1_555
O13_2 Zn3_2 1_555 1_555
O14_2 Zn19 1_555 1_555
O15_2 Zn3_2 1_555 1_555
O16_2 C26_2 1_555 1_555
O17_2 C26_2 1_555 1_555
O20_2 C33_2 1_555 1_555
C11_2 C12_2 1_555 1_555
C12_2 H33_2 1_555 1_555
C13_2 C11_2 1_555 1_555
H34_2 C13_2 1_555 1_555
C14_2 C12_2 1_555 1_555
C15_2 C13_2 1_555 1_555
C16_2 C14_2 1_555 1_555
H35_2 C16_2 1_555 1_555
C17_2 C14_2 1_555 1_555
C26_2 C27_2 1_555 1_555
C27_2 C30_2 1_555 1_555
C28_2 O13_2 1_555 1_555
C30_2 H39_2 1_555 1_555
C31_2 O9_2 1_555 1_555
C32_2 C27_2 1_555 1_555
H40_2 C32_2 1_555 1_555
C33_2 C30_2 1_555 1_555
C34_2 O11_2 1_555 1_555
C35_2 C32_2 1_555 1_555
C36_2 C33_2 1_555 1_555
H41_2 C36_2 1_555 1_555
C37_2 C31_2 1_555 1_555
C38_2 C37_2 1_555 1_555
H42_2 C38_2 1_555 1_555
C39_2 C37_2 1_555 1_555
H43_2 C39_2 1_555 1_555
C41 C39_2 1_555 1_555
C42 C38_2 1_555 1_555
O22 C41 1_555 1_555
C43 C41 1_555 1_555
H44 C43 1_555 1_555
O23_4 C44_4 1_555 1_555
C44_4 C45_2 1_555 1_555
C45_2 H45_2 1_555 1_555
C46_2 C28_2 1_555 1_555
C47_4 C46_2 1_555 1_555
H46_4 C47_4 1_555 1_555
Zn11 O16_2 1_555 1_555
O12_2 C31_2 1_555 1_555
O14_2 C28_2 1_555 1_555
O15_2 C34_2 1_555 1_555
O17_2 Zn11 1_555 1_555
C15_2 C16_2 1_555 1_555
C34_2 C35_2 1_555 1_555
C35_2 C36_2 1_555 1_555
C42 C43 1_555 1_555
C45_2 C46_2 1_555 1_555
O20_2 H61_2 1_555 1_555
O23_4 H62_2 1_555 1_555
O22 H63 1_555 1_555
O48 C25_2 1_555 1_555
O50 C25_2 1_555 1_555
O18_2 C29_2 1_555 1_555
O19_2 C29_2 1_555 1_555
C19_2 O6_2 1_555 1_555
C20_2 C19_2 1_555 1_555
H36_2 C20_2 1_555 1_555
C21_2 C19_2 1_555 1_555
H37_2 C21_2 1_555 1_555
C22_2 C20_2 1_555 1_555
C23_2 C21_2 1_555 1_555
C24_2 C22_2 1_555 1_555
H38_2 C24_2 1_555 1_555
C25_2 C23_2 1_555 1_555
C29_2 C22_2 1_555 1_555
Zn14 O19_2 1_555 1_555
Zn18_2 O18_2 1_555 1_555
C23_2 C24_2 1_555 1_555
O52 C40_2 1_555 1_555
O21_2 C40_2 1_555 1_555
O20 H64_3 1_555 1_555
O43 H61_3 1_555 1_555
O23_2 H62_3 1_555 1_555
O43_2 H61_4 1_555 1_555
O23_3 H62_4 1_555 1_555
O45 H63_2 1_555 1_555
O22 H60_2 1_555 1_555
O20_2 H64_4 1_555 1_555
Zn11 O6_3 1_555 1_555
Zn17 O5_3 1_555 1_555
Zn3_3 O1_3 1_555 1_555
Zn4_2 O1_3 1_555 1_555
O1_3 C11_3 1_555 1_555
O2_3 C17_3 1_555 1_555
O3_2 C17_3 1_555 1_555
O4_3 C18_3 1_555 1_555
O5_3 C18_3 1_555 1_555
O6_3 Zn17 1_555 1_555
O7_2 C25_3 1_555 1_555
O8_2 C25_3 1_555 1_555
O9_3 Zn4_2 1_555 1_555
O11_3 Zn3_3 1_555 1_555
O12_3 Zn3_3 1_555 1_555
O13_3 Zn3_3 1_555 1_555
O14_3 Zn4_2 1_555 1_555
O15_3 Zn3_3 1_555 1_555
O58 C29_3 1_555 1_555
O60 C29_3 1_555 1_555
C11_3 C12_3 1_555 1_555
C12_3 H33_3 1_555 1_555
C13_3 C11_3 1_555 1_555
H34_3 C13_3 1_555 1_555
C14_3 C12_3 1_555 1_555
C15_3 C13_3 1_555 1_555
C16_3 C14_3 1_555 1_555
H35_3 C16_3 1_555 1_555
C17_3 C14_3 1_555 1_555
C18_3 C15_3 1_555 1_555
C19_3 O6_3 1_555 1_555
C20_3 C19_3 1_555 1_555
H36_3 C20_3 1_555 1_555
C21_3 C19_3 1_555 1_555
H37_3 C21_3 1_555 1_555
C22_3 C20_3 1_555 1_555
C23_3 C21_3 1_555 1_555
C24_3 C22_3 1_555 1_555
H38_3 C24_3 1_555 1_555
C25_3 C23_3 1_555 1_555
C28_3 O13_3 1_555 1_555
C29_3 C22_3 1_555 1_555
C31_3 O9_3 1_555 1_555
H40_3 C32_3 1_555 1_555
C34_3 O11_3 1_555 1_555
C35_3 C32_3 1_555 1_555
C37_3 C31_3 1_555 1_555
C38_3 C37_3 1_555 1_555
H42_3 C38_3 1_555 1_555
C39_3 C37_3 1_555 1_555
H43_3 C39_3 1_555 1_555
C45_3 H45_3 1_555 1_555
C46_3 C28_3 1_555 1_555
C47_5 C46_3 1_555 1_555
H46_5 C47_5 1_555 1_555
O24_3 C48_3 1_555 1_555
O25_3 C48_3 1_555 1_555
C48_3 C50_3 1_555 1_555
H47_3 C49_3 1_555 1_555
C50_3 C47_5 1_555 1_555
Zn13 O31_3 1_555 1_555
Zn18 O30_3 1_555 1_555
Zn7_3 O24_3 1_555 1_555
Zn8_2 O25_3 1_555 1_555
O26_3 Zn7_3 1_555 1_555
O27_3 C57_3 1_555 1_555
O28_2 C57_3 1_555 1_555
O29_3 C58_3 1_555 1_555
O30_3 C58_3 1_555 1_555
O31_3 Zn18 1_555 1_555
O32_2 C65_3 1_555 1_555
O33_2 C65_3 1_555 1_555
O34_3 Zn8_2 1_555 1_555
O36_3 Zn7_3 1_555 1_555
O37_3 Zn7_3 1_555 1_555
O38_3 Zn7_3 1_555 1_555
O59 C68_3 1_555 1_555
O61 C68_3 1_555 1_555
C51_3 O26_3 1_555 1_555
C52_3 C51_3 1_555 1_555
H48_3 C52_3 1_555 1_555
C53_3 C51_3 1_555 1_555
H49_3 C53_3 1_555 1_555
C54_3 C52_3 1_555 1_555
C55_3 C53_3 1_555 1_555
C56_3 C54_3 1_555 1_555
H50_3 C56_3 1_555 1_555
C57_3 C54_3 1_555 1_555
C58_3 C55_3 1_555 1_555
C59_3 O31_3 1_555 1_555
C60_3 C59_3 1_555 1_555
H51_3 C60_3 1_555 1_555
C61_3 C59_3 1_555 1_555
H52_3 C61_3 1_555 1_555
C62_3 C60_3 1_555 1_555
C63_3 C61_3 1_555 1_555
C64_3 C62_3 1_555 1_555
H53_3 C64_3 1_555 1_555
C65_3 C63_3 1_555 1_555
C68_3 C62_3 1_555 1_555
C70_3 O34_3 1_555 1_555
H55_3 C71_3 1_555 1_555
C73_3 O36_3 1_555 1_555
C74_3 C71_3 1_555 1_555
C76_3 C70_3 1_555 1_555
C77_3 C76_3 1_555 1_555
H57_3 C77_3 1_555 1_555
C78_3 C76_3 1_555 1_555
H58_3 C78_3 1_555 1_555
Zn17_2 O28_2 1_555 1_555
Zn18_2 O3_2 1_555 1_555
O46_2 Zn18 1_555 1_555
O47_2 Zn17 1_555 1_555
O48_2 Zn13 1_555 1_555
O49_2 Zn11 1_555 1_555
O50_2 Zn13 1_555 1_555
O51_2 Zn11 1_555 1_555
O52_2 Zn8_2 1_555 1_555
O53_2 Zn4_2 1_555 1_555
O12_3 C31_3 1_555 1_555
O14_3 C28_3 1_555 1_555
O15_3 C34_3 1_555 1_555
C15_3 C16_3 1_555 1_555
C23_3 C24_3 1_555 1_555
C34_3 C35_3 1_555 1_555
C45_3 C46_3 1_555 1_555
C49_3 C50_3 1_555 1_555
Zn8_2 O26_3 1_555 1_555
O37_3 C70_3 1_555 1_555
O38_3 C73_3 1_555 1_555
C55_3 C56_3 1_555 1_555
C63_3 C64_3 1_555 1_555
C73_3 C74_3 1_555 1_555
O10_2 C40_3 1_555 1_555
O21_3 C40_3 1_555 1_555
C40_3 C42_2 1_555 1_555
O22_2 C41_2 1_555 1_555
C43_2 C41_2 1_555 1_555
H44_2 C43_2 1_555 1_555
O35_2 C79_3 1_555 1_555
O44_3 C79_3 1_555 1_555
C79_3 C81_2 1_555 1_555
O45_2 C80_2 1_555 1_555
C82_2 C80_2 1_555 1_555
H59_2 C82_2 1_555 1_555
Zn19_2 O35_2 1_555 1_555
Zn20_2 O10_2 1_555 1_555
C42_2 C43_2 1_555 1_555
C81_2 C82_2 1_555 1_555
O45_2 H60_3 1_555 1_555
O22_2 H63_3 1_555 1_555
O54_2 C26_3 1_555 1_555
O20_3 C33_3 1_555 1_555
C26_3 C27_3 1_555 1_555
C27_3 C30_3 1_555 1_555
C30_3 H39_3 1_555 1_555
C33_3 C30_3 1_555 1_555
C36_3 C33_3 1_555 1_555
H41_3 C36_3 1_555 1_555
O23_5 C44_5 1_555 1_555
O55_2 C66_3 1_555 1_555
O43_3 C72_3 1_555 1_555
C66_3 C67_3 1_555 1_555
C67_3 C69_3 1_555 1_555
C69_3 H54_3 1_555 1_555
C72_3 C69_3 1_555 1_555
C75_3 C72_3 1_555 1_555
H56_3 C75_3 1_555 1_555
O20_3 H61_5 1_555 1_555
O23_5 H62_5 1_555 1_555
O43_3 H64_5 1_555 1_555
O54 C26_4 1_555 1_555
O20_4 C33_4 1_555 1_555
C26_4 C27_4 1_555 1_555
C27_4 C30_4 1_555 1_555
C30_4 H39_4 1_555 1_555
C33_4 C30_4 1_555 1_555
C36_4 C33_4 1_555 1_555
H41_4 C36_4 1_555 1_555
O23_6 C44_6 1_555 1_555
O55 C66_4 1_555 1_555
O43_4 C72_4 1_555 1_555
C66_4 C67_4 1_555 1_555
C67_4 C69_4 1_555 1_555
C69_4 H54_4 1_555 1_555
C72_4 C69_4 1_555 1_555
C75_4 C72_4 1_555 1_555
H56_4 C75_4 1_555 1_555
O20_4 H61_6 1_555 1_555
O23_6 H62_6 1_555 1_555
O43_4 H64_6 1_555 1_555
Zn12 O6_4 1_555 1_555
Zn17_2 O5_4 1_555 1_555
O4_4 C18_4 1_555 1_555
O5_4 C18_4 1_555 1_555
O6_4 Zn17_2 1_555 1_555
O48_2 C25_4 1_555 1_555
O50_2 C25_4 1_555 1_555
O58_2 C29_4 1_555 1_555
O60_2 C29_4 1_555 1_555
C19_4 O6_4 1_555 1_555
C20_4 C19_4 1_555 1_555
H36_4 C20_4 1_555 1_555
C21_4 C19_4 1_555 1_555
H37_4 C21_4 1_555 1_555
C22_4 C20_4 1_555 1_555
C23_4 C21_4 1_555 1_555
C24_4 C22_4 1_555 1_555
H38_4 C24_4 1_555 1_555
C25_4 C23_4 1_555 1_555
C29_4 C22_4 1_555 1_555
Zn14 O31_4 1_555 1_555
Zn18_2 O30_4 1_555 1_555
O29_4 C58_4 1_555 1_555
O30_4 C58_4 1_555 1_555
O31_4 Zn18_2 1_555 1_555
O49_2 C65_4 1_555 1_555
O51_2 C65_4 1_555 1_555
O59_2 C68_4 1_555 1_555
O61_2 C68_4 1_555 1_555
C59_4 O31_4 1_555 1_555
C60_4 C59_4 1_555 1_555
H51_4 C60_4 1_555 1_555
C61_4 C59_4 1_555 1_555
H52_4 C61_4 1_555 1_555
C62_4 C60_4 1_555 1_555
C63_4 C61_4 1_555 1_555
C64_4 C62_4 1_555 1_555
H53_4 C64_4 1_555 1_555
C65_4 C63_4 1_555 1_555
C68_4 C62_4 1_555 1_555
C23_4 C24_4 1_555 1_555
C63_4 C64_4 1_555 1_555
Zn3_4 O1_4 1_555 1_555
Zn19_2 O1_4 1_555 1_555
O1_4 C11_4 1_555 1_555
O2_4 C17_4 1_555 1_555
O46_2 C17_4 1_555 1_555
O9_4 Zn19_2 1_555 1_555
O52_2 C40_4 1_555 1_555
O11_4 Zn3_4 1_555 1_555
O12_4 Zn3_4 1_555 1_555
O13_4 Zn3_4 1_555 1_555
O14_4 Zn19_2 1_555 1_555
O15_4 Zn3_4 1_555 1_555
O21_4 C40_4 1_555 1_555
C11_4 C12_4 1_555 1_555
C12_4 H33_4 1_555 1_555
C13_4 C11_4 1_555 1_555
H34_4 C13_4 1_555 1_555
C14_4 C12_4 1_555 1_555
C15_4 C13_4 1_555 1_555
C16_4 C14_4 1_555 1_555
H35_4 C16_4 1_555 1_555
C17_4 C14_4 1_555 1_555
C28_4 O13_4 1_555 1_555
C31_4 O9_4 1_555 1_555
H40_4 C32_4 1_555 1_555
C34_4 O11_4 1_555 1_555
C35_4 C32_4 1_555 1_555
C37_4 C31_4 1_555 1_555
C38_4 C37_4 1_555 1_555
H42_4 C38_4 1_555 1_555
C39_4 C37_4 1_555 1_555
H43_4 C39_4 1_555 1_555
C40_4 C42_3 1_555 1_555
C41_3 C39_4 1_555 1_555
C42_3 C38_4 1_555 1_555
O22_3 C41_3 1_555 1_555
C43_3 C41_3 1_555 1_555
H44_3 C43_3 1_555 1_555
C45_4 H45_4 1_555 1_555
C46_4 C28_4 1_555 1_555
C47_6 C46_4 1_555 1_555
H46_6 C47_6 1_555 1_555
O24_4 C48_4 1_555 1_555
O25_4 C48_4 1_555 1_555
C48_4 C50_4 1_555 1_555
H47_4 C49_4 1_555 1_555
C50_4 C47_6 1_555 1_555
Zn7_4 O24_4 1_555 1_555
Zn20_2 O25_4 1_555 1_555
O26_4 Zn7_4 1_555 1_555
O27_4 C57_4 1_555 1_555
O47_2 C57_4 1_555 1_555
O34_4 Zn20_2 1_555 1_555
O53_2 C79_4 1_555 1_555
O36_4 Zn7_4 1_555 1_555
O37_4 Zn7_4 1_555 1_555
O38_4 Zn7_4 1_555 1_555
O44_4 C79_4 1_555 1_555
C51_4 O26_4 1_555 1_555
C52_4 C51_4 1_555 1_555
H48_4 C52_4 1_555 1_555
C53_4 C51_4 1_555 1_555
H49_4 C53_4 1_555 1_555
C54_4 C52_4 1_555 1_555
C55_4 C53_4 1_555 1_555
C56_4 C54_4 1_555 1_555
H50_4 C56_4 1_555 1_555
C57_4 C54_4 1_555 1_555
C70_4 O34_4 1_555 1_555
H55_4 C71_4 1_555 1_555
C73_4 O36_4 1_555 1_555
C74_4 C71_4 1_555 1_555
C76_4 C70_4 1_555 1_555
C77_4 C76_4 1_555 1_555
H57_4 C77_4 1_555 1_555
C78_4 C76_4 1_555 1_555
H58_4 C78_4 1_555 1_555
C79_4 C81_3 1_555 1_555
C80_3 C78_4 1_555 1_555
C81_3 C77_4 1_555 1_555
O45_3 C80_3 1_555 1_555
C82_3 C80_3 1_555 1_555
H59_3 C82_3 1_555 1_555
O12_4 C31_4 1_555 1_555
O14_4 C28_4 1_555 1_555
O15_4 C34_4 1_555 1_555
C15_4 C16_4 1_555 1_555
C34_4 C35_4 1_555 1_555
C42_3 C43_3 1_555 1_555
C45_4 C46_4 1_555 1_555
C49_4 C50_4 1_555 1_555
Zn20_2 O26_4 1_555 1_555
O37_4 C70_4 1_555 1_555
O38_4 C73_4 1_555 1_555
C55_4 C56_4 1_555 1_555
C73_4 C74_4 1_555 1_555
C81_3 C82_3 1_555 1_555
O45_3 H60_4 1_555 1_555
O22_3 H63_4 1_555 1_555
O22_2 H60_5 1_555 1_555
O45_2 H63_5 1_555 1_555
O43_3 H61_7 1_555 1_555
O23_5 H62_7 1_555 1_555
O20_3 H64_7 1_555 1_555
O43_4 H61_8 1_555 1_555
O23_6 H62_8 1_555 1_555
O20_4 H64_8 1_555 1_555
O22_3 H60_6 1_555 1_555
O45_3 H63_6 1_555 1_555
O22_4 C41_4 1_555 1_555
C43_4 C41_4 1_555 1_555
H44_4 C43_4 1_555 1_555
C42_4 C43_4 1_555 1_555
O22_4 H63_7 1_555 1_555
O22_4 H60_7 1_555 1_555
O45_4 C80_4 1_555 1_555
C82_4 C80_4 1_555 1_555
H59_4 C82_4 1_555 1_555
C81_4 C82_4 1_555 1_555
O45_4 H60_8 1_555 1_555
O45_4 H63_8 1_555 1_555

#END
