
###############################################################################
#
# This file contains modified crystal structure data generated from the
# MOF subset of the Cambridge Structural Database (CSD) v543 
# hosted by the Cambridge Crystallographic Data Centre (CCDC).
#
# This work is licensed under the Creative Commons
# Attribution-NonCommercial-ShareAlike 4.0 International License.
# To view a copy of this license, visit
# http://creativecommons.org/licenses/by-nc-sa/4.0/
# or send a letter to
# Creative Commons, PO Box 1866, Mountain View, CA 94042, USA.
#
# CIF created using the CSD Python API on 29 September 2022
# The structure has been converted into the P1 space group
# The structure has a 3D framework
# The original CSD entry RUGXIC is in the monoclinic crystal system
# The framework has been calculated to contain at least 10.0% void space
# The void calculation uses a probe of radius 1.32A, grid spacing 0.4
# The framework is charged, counterions have been retained in the structure
# H atom positions have been added when not included in the experimental data
#
###############################################################################

data_RUGXIC
_chemical_formula_moiety         '(C272 H208 N8 O176 Zn32 8-)n'
_symmetry_cell_setting           triclinic
_symmetry_space_group_name_H-M   'P 1'
_symmetry_Int_Tables_number      1
_space_group_name_Hall           'P 1'
loop_
_symmetry_equiv_pos_site_id
_symmetry_equiv_pos_as_xyz
1 x,y,z
_cell_length_a                   23.6519(17)
_cell_length_b                   13.0546(9)
_cell_length_c                   26.4620(19)
_cell_angle_alpha                90
_cell_angle_beta                 115.424(3)
_cell_angle_gamma                90
_cell_volume                     7379.29
loop_
_atom_site_label
_atom_site_type_symbol
_atom_site_fract_x
_atom_site_fract_y
_atom_site_fract_z
N1 N 0.1434(17) 0.316(3) 0.1581(15)
H1 H 0.1820 0.3508 0.1612
H2 H 0.1433 0.2439 0.1470
C1 C 0.0811(18) 0.376(3) 0.1176(16)
H3 H 0.0785 0.3783 0.0796
H4 H 0.0825 0.4465 0.1313
H5 H 0.0443 0.3409 0.1171
C2 C 0.1318(17) 0.329(3) 0.2194(15)
H6 H 0.1665 0.2964 0.2508
H7 H 0.0923 0.2963 0.2138
H8 H 0.1302 0.4021 0.2277
N1_2 N 0.8566(17) 0.316(3) 0.3419(15)
H1_2 H 0.8180 0.3508 0.3388
H2_2 H 0.8567 0.2439 0.3530
C1_2 C 0.9189(18) 0.376(3) 0.3824(16)
H3_2 H 0.9215 0.3783 0.4204
H4_2 H 0.9175 0.4465 0.3687
H5_2 H 0.9557 0.3409 0.3829
C2_2 C 0.8682(17) 0.329(3) 0.2806(15)
H6_2 H 0.8335 0.2964 0.2492
H7_2 H 0.9077 0.2963 0.2862
H8_2 H 0.8698 0.4021 0.2723
N1_3 N 0.6434(17) 0.816(3) 0.1581(15)
H1_3 H 0.6820 0.8508 0.1612
H2_3 H 0.6433 0.7439 0.1470
C1_3 C 0.5811(18) 0.876(3) 0.1176(16)
H3_3 H 0.5785 0.8783 0.0796
H4_3 H 0.5825 0.9465 0.1313
H5_3 H 0.5443 0.8409 0.1171
C2_3 C 0.6318(17) 0.829(3) 0.2194(15)
H6_3 H 0.6665 0.7964 0.2508
H7_3 H 0.5923 0.7963 0.2138
H8_3 H 0.6302 0.9021 0.2277
N1_4 N 0.3566(17) 0.816(3) 0.3419(15)
H1_4 H 0.3180 0.8508 0.3388
H2_4 H 0.3567 0.7439 0.3530
C1_4 C 0.4189(18) 0.876(3) 0.3824(16)
H3_4 H 0.4215 0.8783 0.4204
H4_4 H 0.4175 0.9465 0.3687
H5_4 H 0.4557 0.8409 0.3829
C2_4 C 0.3682(17) 0.829(3) 0.2806(15)
H6_4 H 0.3335 0.7964 0.2492
H7_4 H 0.4077 0.7963 0.2862
H8_4 H 0.3698 0.9021 0.2723
N1_5 N 0.8566(17) 0.684(3) 0.8419(15)
H1_5 H 0.8180 0.6492 0.8388
H2_5 H 0.8567 0.7561 0.8530
C1_5 C 0.9189(18) 0.624(3) 0.8824(16)
H3_5 H 0.9215 0.6217 0.9204
H4_5 H 0.9175 0.5535 0.8687
H5_5 H 0.9557 0.6591 0.8829
C2_5 C 0.8682(17) 0.671(3) 0.7806(15)
H6_5 H 0.8335 0.7036 0.7492
H7_5 H 0.9077 0.7037 0.7862
H8_5 H 0.8698 0.5979 0.7723
N1_6 N 0.1434(17) 0.684(3) 0.6581(15)
H1_6 H 0.1820 0.6492 0.6612
H2_6 H 0.1433 0.7561 0.6470
C1_6 C 0.0811(18) 0.624(3) 0.6176(16)
H3_6 H 0.0785 0.6217 0.5796
H4_6 H 0.0825 0.5535 0.6313
H5_6 H 0.0443 0.6591 0.6171
C2_6 C 0.1318(17) 0.671(3) 0.7194(15)
H6_6 H 0.1665 0.7036 0.7508
H7_6 H 0.0923 0.7037 0.7138
H8_6 H 0.1302 0.5979 0.7277
N1_7 N 0.3566(17) 0.184(3) 0.8419(15)
H1_7 H 0.3180 0.1492 0.8388
H2_7 H 0.3567 0.2561 0.8530
C1_7 C 0.4189(18) 0.124(3) 0.8824(16)
H3_7 H 0.4215 0.1217 0.9204
H4_7 H 0.4175 0.0535 0.8687
H5_7 H 0.4557 0.1591 0.8829
C2_7 C 0.3682(17) 0.171(3) 0.7806(15)
H6_7 H 0.3335 0.2036 0.7492
H7_7 H 0.4077 0.2037 0.7862
H8_7 H 0.3698 0.0979 0.7723
N1_8 N 0.6434(17) 0.184(3) 0.6581(15)
H1_8 H 0.6820 0.1492 0.6612
H2_8 H 0.6433 0.2561 0.6470
C1_8 C 0.5811(18) 0.124(3) 0.6176(16)
H3_8 H 0.5785 0.1217 0.5796
H4_8 H 0.5825 0.0535 0.6313
H5_8 H 0.5443 0.1591 0.6171
C2_8 C 0.6318(17) 0.171(3) 0.7194(15)
H6_8 H 0.6665 0.2036 0.7508
H7_8 H 0.5923 0.2037 0.7138
H8_8 H 0.6302 0.0979 0.7277
H21 H 0.00560664 0.611034 0.283286
Zn5 Zn 0.85934(5) 0.01385(10) 0.39631(5)
O1 O 0.9932(9) 0.594(2) 0.3137(11)
C3 C 0.9316(7) 0.6199(16) 0.2974(8)
C4 C 0.8884(9) 0.5714(14) 0.2497(8)
H9 H 0.9021 0.5217 0.2311
C5 C 0.8252(8) 0.596(2) 0.2291(11)
C6 C 0.8052(8) 0.668(3) 0.2563(16)
H10 H 0.7620 0.6848 0.2422
C7 C 0.8485(12) 0.717(2) 0.3040(14)
C8 C 0.9117(11) 0.6926(17) 0.3245(8)
H11 H 0.9412 0.7257 0.3571
C9 C 0.7750(6) 0.5488(10) 0.1815(5)
C10 C 0.8295(5) 0.8079(11) 0.3322(4)
O2 O 0.7795(4) 0.7883(6) 0.3370(3)
O3 O 0.7190(4) 0.5641(7) 0.1678(3)
O4 O 0.8630(4) 0.8858(7) 0.3513(4)
O5 O 0.7949(4) 0.4819(7) 0.1564(3)
Zn1 Zn 0.74759(5) 0.36531(11) 0.11374(5)
Zn2 Zn 0.64066(5) 0.51385(10) 0.10369(5)
O6 O 0.6724(3) 0.4339(6) 0.0570(3)
O10 O 0.6333(5) 0.6559(7) 0.0617(4)
C14 C 0.6376(5) 0.4015(8) 0.0036(4)
Zn3 Zn 0.75241(5) 0.86531(11) 0.38626(5)
O12 O 0.5493(3) 0.5181(6) 0.0777(3)
O13 O 0.7867(3) 0.2779(6) 0.0804(3)
O14 O 0.7205(4) 0.2883(6) 0.1630(3)
O15 O 0.6370(4) 0.3858(7) 0.1487(4)
H24 H 0.671235 0.666433 0.0551993
H25 H 0.595663 0.654859 0.025239
O7 O 0.4507(3) 0.4819(6) 0.9223(3)
O8 O 0.7133(3) 0.2221(6) 0.9196(3)
C11 C 0.4703(5) 0.4202(9) 0.8961(5)
O9 O 0.4333(4) 0.3787(7) 0.8500(3)
C12 C 0.5377(5) 0.3958(8) 0.9223(4)
C13 C 0.6585(5) 0.2495(10) 0.8941(4)
O11 O 0.6278(5) 0.2224(11) 0.8424(4)
C15 C 0.5653(5) 0.3380(10) 0.8941(4)
H12 H 0.5405 0.3169 0.8567
C16 C 0.5739(4) 0.4257(8) 0.9759(4)
H13 H 0.5552 0.4644 0.9951
C17 C 0.6649(5) 0.3438(8) 0.9742(4)
H14 H 0.7082 0.3273 0.9917
C18 C 0.6279(5) 0.3114(10) 0.9198(4)
Zn4 Zn 0.75241(5) 0.13469(11) 0.88626(5)
Zn6 Zn 0.35934(5) 0.48615(10) 0.89631(5)
Zn5_2 Zn 0.14066(5) 0.01385(10) 0.10369(5)
O1_2 O 0.0068(9) 0.594(2) 0.1863(11)
C3_2 C 0.0684(7) 0.6199(16) 0.2026(8)
C4_2 C 0.1116(9) 0.5714(14) 0.2503(8)
H9_2 H 0.0979 0.5217 0.2689
C5_2 C 0.1748(8) 0.596(2) 0.2709(11)
C6_2 C 0.1948(8) 0.668(3) 0.2437(16)
H10_2 H 0.2380 0.6848 0.2578
C7_2 C 0.1515(12) 0.717(2) 0.1960(14)
C8_2 C 0.0883(11) 0.6926(17) 0.1755(8)
H11_2 H 0.0588 0.7257 0.1429
C9_2 C 0.2250(6) 0.5488(10) 0.3185(5)
C10_2 C 0.1705(5) 0.8079(11) 0.1678(4)
O2_2 O 0.2205(4) 0.7883(6) 0.1630(3)
O3_2 O 0.2810(4) 0.5641(7) 0.3322(3)
O4_2 O 0.1370(4) 0.8858(7) 0.1487(4)
O5_2 O 0.2051(4) 0.4819(7) 0.3436(3)
Zn1_2 Zn 0.25241(5) 0.36531(11) 0.38626(5)
Zn2_2 Zn 0.35934(5) 0.51385(10) 0.39631(5)
O6_2 O 0.3276(3) 0.4339(6) 0.4430(3)
O7_2 O 0.5493(3) 0.4819(6) 0.5777(3)
O8_2 O 0.2867(3) 0.2221(6) 0.5804(3)
C11_2 C 0.5297(5) 0.4202(9) 0.6039(5)
O9_2 O 0.5667(4) 0.3787(7) 0.6500(3)
O10_2 O 0.3667(5) 0.6559(7) 0.4383(4)
C12_2 C 0.4623(5) 0.3958(8) 0.5777(4)
C13_2 C 0.3415(5) 0.2495(10) 0.6059(4)
C14_2 C 0.3624(5) 0.4015(8) 0.4964(4)
O11_2 O 0.3722(5) 0.2224(11) 0.6576(4)
C15_2 C 0.4347(5) 0.3380(10) 0.6059(4)
H12_2 H 0.4595 0.3169 0.6433
C16_2 C 0.4261(4) 0.4257(8) 0.5241(4)
H13_2 H 0.4448 0.4644 0.5049
C17_2 C 0.3351(5) 0.3438(8) 0.5258(4)
H14_2 H 0.2918 0.3273 0.5083
C18_2 C 0.3721(5) 0.3114(10) 0.5802(4)
Zn3_2 Zn 0.24759(5) 0.86531(11) 0.11374(5)
Zn4_2 Zn 0.24759(5) 0.13469(11) 0.61374(5)
Zn6_2 Zn 0.64066(5) 0.48615(10) 0.60369(5)
O12_2 O 0.4507(3) 0.5181(6) 0.4223(3)
O13_2 O 0.2133(3) 0.2779(6) 0.4196(3)
O14_2 O 0.2795(4) 0.2883(6) 0.3370(3)
O15_2 O 0.3630(4) 0.3858(7) 0.3513(4)
H24_2 H 0.328765 0.666433 0.444801
H25_2 H 0.404337 0.654859 0.474761
O1_3 O 0.4932(9) 0.094(2) 0.3137(11)
C3_3 C 0.4316(7) 0.1199(16) 0.2974(8)
C4_3 C 0.3884(9) 0.0714(14) 0.2497(8)
H9_3 H 0.4021 0.0217 0.2311
C5_3 C 0.3252(8) 0.096(2) 0.2291(11)
C6_3 C 0.3052(8) 0.168(3) 0.2563(16)
H10_3 H 0.2620 0.1848 0.2422
C7_3 C 0.3485(12) 0.217(2) 0.3040(14)
C8_3 C 0.4117(11) 0.1926(17) 0.3245(8)
H11_3 H 0.4412 0.2257 0.3571
C9_3 C 0.2750(6) 0.0488(10) 0.1815(5)
C10_3 C 0.3295(5) 0.3079(11) 0.3322(4)
O3_3 O 0.2190(4) 0.0641(7) 0.1678(3)
O10_3 O 0.1333(5) 0.1559(7) 0.0617(4)
O12_3 O 0.0493(3) 0.0181(6) 0.0777(3)
H21_2 H 0.505607 0.111034 0.283286
H24_3 H 0.171235 0.166433 0.0551993
H25_3 H 0.0956635 0.154859 0.025239
O5_3 O 0.2949(4) 0.9819(7) 0.1564(3)
O6_3 O 0.1724(3) 0.9339(6) 0.0570(3)
C14_3 C 0.1376(5) 0.9015(8) 0.0036(4)
O13_3 O 0.2867(3) 0.7779(6) 0.0804(3)
O8_3 O 0.2133(3) 0.7221(6) 0.9196(3)
C12_3 C 0.0377(5) 0.8958(8) 0.9223(4)
C13_3 C 0.1585(5) 0.7495(10) 0.8941(4)
O11_3 O 0.1278(5) 0.7224(11) 0.8424(4)
C15_3 C 0.0653(5) 0.8380(10) 0.8941(4)
H12_3 H 0.0405 0.8169 0.8567
C16_3 C 0.0739(4) 0.9257(8) 0.9759(4)
H13_3 H 0.0552 0.9644 0.9951
C17_3 C 0.1649(5) 0.8438(8) 0.9742(4)
H14_3 H 0.2082 0.8273 0.9917
C18_3 C 0.1279(5) 0.8114(10) 0.9198(4)
Zn4_3 Zn 0.25241(5) 0.63469(11) 0.88626(5)
O7_3 O 0.9507(3) 0.9819(6) 0.9223(3)
C11_3 C 0.9703(5) 0.9202(9) 0.8961(5)
O9_3 O 0.9333(4) 0.8787(7) 0.8500(3)
Zn6_3 Zn 0.85934(5) 0.98615(10) 0.89631(5)
O7_4 O 0.0493(3) 0.9819(6) 0.5777(3)
C11_4 C 0.0297(5) 0.9202(9) 0.6039(5)
O9_4 O 0.0667(4) 0.8787(7) 0.6500(3)
Zn6_4 Zn 0.14066(5) 0.98615(10) 0.60369(5)
O1_4 O 0.5068(9) 0.094(2) 0.1863(11)
C3_4 C 0.5684(7) 0.1199(16) 0.2026(8)
C4_4 C 0.6116(9) 0.0714(14) 0.2503(8)
H9_4 H 0.5979 0.0217 0.2689
C5_4 C 0.6748(8) 0.096(2) 0.2709(11)
C6_4 C 0.6948(8) 0.168(3) 0.2437(16)
H10_4 H 0.7380 0.1848 0.2578
C7_4 C 0.6515(12) 0.217(2) 0.1960(14)
C8_4 C 0.5883(11) 0.1926(17) 0.1755(8)
H11_4 H 0.5588 0.2257 0.1429
C9_4 C 0.7250(6) 0.0488(10) 0.3185(5)
C10_4 C 0.6705(5) 0.3079(11) 0.1678(4)
O3_4 O 0.7810(4) 0.0641(7) 0.3322(3)
O10_4 O 0.8667(5) 0.1559(7) 0.4383(4)
O12_4 O 0.9507(3) 0.0181(6) 0.4223(3)
H21_3 H 0.494393 0.111034 0.216714
H24_4 H 0.828765 0.166433 0.444801
H25_4 H 0.904337 0.154859 0.474761
O5_4 O 0.7051(4) 0.9819(7) 0.3436(3)
O6_4 O 0.8276(3) 0.9339(6) 0.4430(3)
O8_4 O 0.7867(3) 0.7221(6) 0.5804(3)
C12_4 C 0.9623(5) 0.8958(8) 0.5777(4)
C13_4 C 0.8415(5) 0.7495(10) 0.6059(4)
C14_4 C 0.8624(5) 0.9015(8) 0.4964(4)
O11_4 O 0.8722(5) 0.7224(11) 0.6576(4)
C15_4 C 0.9347(5) 0.8380(10) 0.6059(4)
H12_4 H 0.9595 0.8169 0.6433
C16_4 C 0.9261(4) 0.9257(8) 0.5241(4)
H13_4 H 0.9448 0.9644 0.5049
C17_4 C 0.8351(5) 0.8438(8) 0.5258(4)
H14_4 H 0.7918 0.8273 0.5083
C18_4 C 0.8721(5) 0.8114(10) 0.5802(4)
Zn4_4 Zn 0.74759(5) 0.63469(11) 0.61374(5)
O13_4 O 0.7133(3) 0.7779(6) 0.4196(3)
C11_5 C 0.5297(5) 0.5798(9) 0.1039(5)
O9_5 O 0.5667(4) 0.6213(7) 0.1500(3)
C12_5 C 0.4623(5) 0.6042(8) 0.0777(4)
C13_5 C 0.3415(5) 0.7505(10) 0.1059(4)
O11_5 O 0.3722(5) 0.7776(11) 0.1576(4)
C15_5 C 0.4347(5) 0.6620(10) 0.1059(4)
H12_5 H 0.4595 0.6831 0.1433
C16_5 C 0.4261(4) 0.5743(8) 0.0241(4)
H13_5 H 0.4448 0.5356 0.0049
C17_5 C 0.3351(5) 0.6562(8) 0.0258(4)
H14_5 H 0.2918 0.6727 0.0083
C18_5 C 0.3721(5) 0.6886(10) 0.0802(4)
O1_5 O 0.0068(9) 0.406(2) 0.6863(11)
C3_5 C 0.0684(7) 0.3801(16) 0.7026(8)
C4_5 C 0.1116(9) 0.4286(14) 0.7503(8)
H9_5 H 0.0979 0.4783 0.7689
C5_5 C 0.1748(8) 0.404(2) 0.7709(11)
C6_5 C 0.1948(8) 0.332(3) 0.7437(16)
H10_5 H 0.2380 0.3152 0.7578
C7_5 C 0.1515(12) 0.283(2) 0.6960(14)
C8_5 C 0.0883(11) 0.3074(17) 0.6755(8)
H11_5 H 0.0588 0.2743 0.6429
C9_5 C 0.2250(6) 0.4512(10) 0.8185(5)
C10_5 C 0.1705(5) 0.1921(11) 0.6678(4)
O2_3 O 0.2205(4) 0.2117(6) 0.6630(3)
O3_5 O 0.2810(4) 0.4359(7) 0.8322(3)
O4_3 O 0.1370(4) 0.1142(7) 0.6487(4)
O5_5 O 0.2051(4) 0.5181(7) 0.8436(3)
O6_5 O 0.3276(3) 0.5661(6) 0.9430(3)
O10_5 O 0.3667(5) 0.3441(7) 0.9383(4)
C14_5 C 0.3624(5) 0.5985(8) 0.9964(4)
O14_3 O 0.2795(4) 0.7117(6) 0.8370(3)
O15_3 O 0.3630(4) 0.6142(7) 0.8513(4)
H24_5 H 0.328765 0.333567 0.944801
H25_5 H 0.404337 0.345141 0.974761
O1_6 O 0.9932(9) 0.406(2) 0.8137(11)
C3_6 C 0.9316(7) 0.3801(16) 0.7974(8)
C4_6 C 0.8884(9) 0.4286(14) 0.7497(8)
H9_6 H 0.9021 0.4783 0.7311
C5_6 C 0.8252(8) 0.404(2) 0.7291(11)
C6_6 C 0.8052(8) 0.332(3) 0.7563(16)
H10_6 H 0.7620 0.3152 0.7422
C7_6 C 0.8485(12) 0.283(2) 0.8040(14)
C8_6 C 0.9117(11) 0.3074(17) 0.8245(8)
H11_6 H 0.9412 0.2743 0.8571
C9_6 C 0.7750(6) 0.4512(10) 0.6815(5)
C10_6 C 0.8295(5) 0.1921(11) 0.8322(4)
O2_4 O 0.7795(4) 0.2117(6) 0.8370(3)
O3_6 O 0.7190(4) 0.4359(7) 0.6678(3)
O4_4 O 0.8630(4) 0.1142(7) 0.8513(4)
O5_6 O 0.7949(4) 0.5181(7) 0.6564(3)
O6_6 O 0.6724(3) 0.5661(6) 0.5570(3)
C11_6 C 0.4703(5) 0.5798(9) 0.3961(5)
O9_6 O 0.4333(4) 0.6213(7) 0.3500(3)
O10_6 O 0.6333(5) 0.3441(7) 0.5617(4)
C12_6 C 0.5377(5) 0.6042(8) 0.4223(4)
C13_6 C 0.6585(5) 0.7505(10) 0.3941(4)
C14_6 C 0.6376(5) 0.5985(8) 0.5036(4)
O11_6 O 0.6278(5) 0.7776(11) 0.3424(4)
C15_6 C 0.5653(5) 0.6620(10) 0.3941(4)
H12_6 H 0.5405 0.6831 0.3567
C16_6 C 0.5739(4) 0.5743(8) 0.4759(4)
H13_6 H 0.5552 0.5356 0.4951
C17_6 C 0.6649(5) 0.6562(8) 0.4742(4)
H14_6 H 0.7082 0.6727 0.4917
C18_6 C 0.6279(5) 0.6886(10) 0.4198(4)
O14_4 O 0.7205(4) 0.7117(6) 0.6630(3)
O15_4 O 0.6370(4) 0.6142(7) 0.6487(4)
H24_6 H 0.671235 0.333567 0.555199
H25_6 H 0.595663 0.345141 0.525239
C11_7 C 0.0297(5) 0.0798(9) 0.1039(5)
O9_7 O 0.0667(4) 0.1213(7) 0.1500(3)
C12_7 C 0.9623(5) 0.1042(8) 0.0777(4)
C13_7 C 0.8415(5) 0.2505(10) 0.1059(4)
O11_7 O 0.8722(5) 0.2776(11) 0.1576(4)
C15_7 C 0.9347(5) 0.1620(10) 0.1059(4)
H12_7 H 0.9595 0.1831 0.1433
C16_7 C 0.9261(4) 0.0743(8) 0.0241(4)
H13_7 H 0.9448 0.0356 0.0049
C17_7 C 0.8351(5) 0.1562(8) 0.0258(4)
H14_7 H 0.7918 0.1727 0.0083
C18_7 C 0.8721(5) 0.1886(10) 0.0802(4)
O5_7 O 0.7051(4) 0.0181(7) 0.8436(3)
O6_7 O 0.8276(3) 0.0661(6) 0.9430(3)
C14_7 C 0.8624(5) 0.0985(8) 0.9964(4)
O1_7 O 0.5068(9) 0.906(2) 0.6863(11)
C3_7 C 0.5684(7) 0.8801(16) 0.7026(8)
C4_7 C 0.6116(9) 0.9286(14) 0.7503(8)
H9_7 H 0.5979 0.9783 0.7689
C5_7 C 0.6748(8) 0.904(2) 0.7709(11)
C6_7 C 0.6948(8) 0.832(3) 0.7437(16)
H10_7 H 0.7380 0.8152 0.7578
C7_7 C 0.6515(12) 0.783(2) 0.6960(14)
C8_7 C 0.5883(11) 0.8074(17) 0.6755(8)
H11_7 H 0.5588 0.7743 0.6429
C9_7 C 0.7250(6) 0.9512(10) 0.8185(5)
C10_7 C 0.6705(5) 0.6921(11) 0.6678(4)
O3_7 O 0.7810(4) 0.9359(7) 0.8322(3)
O10_7 O 0.8667(5) 0.8441(7) 0.9383(4)
H21_4 H 0.494393 0.888966 0.716714
H24_7 H 0.828765 0.833567 0.944801
H25_7 H 0.904337 0.845141 0.974761
O5_8 O 0.2949(4) 0.0181(7) 0.6564(3)
O6_8 O 0.1724(3) 0.0661(6) 0.5570(3)
C12_8 C 0.0377(5) 0.1042(8) 0.4223(4)
C13_8 C 0.1585(5) 0.2505(10) 0.3941(4)
C14_8 C 0.1376(5) 0.0985(8) 0.5036(4)
O11_8 O 0.1278(5) 0.2776(11) 0.3424(4)
C15_8 C 0.0653(5) 0.1620(10) 0.3941(4)
H12_8 H 0.0405 0.1831 0.3567
C16_8 C 0.0739(4) 0.0743(8) 0.4759(4)
H13_8 H 0.0552 0.0356 0.4951
C17_8 C 0.1649(5) 0.1562(8) 0.4742(4)
H14_8 H 0.2082 0.1727 0.4917
C18_8 C 0.1279(5) 0.1886(10) 0.4198(4)
O1_8 O 0.4932(9) 0.906(2) 0.8137(11)
C3_8 C 0.4316(7) 0.8801(16) 0.7974(8)
C4_8 C 0.3884(9) 0.9286(14) 0.7497(8)
H9_8 H 0.4021 0.9783 0.7311
C5_8 C 0.3252(8) 0.904(2) 0.7291(11)
C6_8 C 0.3052(8) 0.832(3) 0.7563(16)
H10_8 H 0.2620 0.8152 0.7422
C7_8 C 0.3485(12) 0.783(2) 0.8040(14)
C8_8 C 0.4117(11) 0.8074(17) 0.8245(8)
H11_8 H 0.4412 0.7743 0.8571
C9_8 C 0.2750(6) 0.9512(10) 0.6815(5)
C10_8 C 0.3295(5) 0.6921(11) 0.8322(4)
O3_8 O 0.2190(4) 0.9359(7) 0.6678(3)
O10_8 O 0.1333(5) 0.8441(7) 0.5617(4)
H21_5 H 0.505607 0.888966 0.783286
H24_8 H 0.171235 0.833567 0.555199
H25_8 H 0.0956635 0.845141 0.525239
C11_8 C 0.9703(5) 0.0798(9) 0.3961(5)
O9_8 O 0.9333(4) 0.1213(7) 0.3500(3)
H21_6 H 0.994393 0.611034 0.216714
H21_7 H 0.994393 0.388966 0.716714
H21_8 H 0.00560664 0.388966 0.783286
Zn11 Zn 0.14066(5) 0.01385(10) 0.10369(5)
O16 O 0.0068(9) 0.594(2) 0.1863(11)
C19 C 0.0684(7) 0.6199(16) 0.2026(8)
C20 C 0.1116(9) 0.5714(14) 0.2503(8)
H15 H 0.0979 0.5217 0.2689
C21 C 0.1748(8) 0.596(2) 0.2709(11)
C22 C 0.1948(8) 0.668(3) 0.2437(16)
H16 H 0.2380 0.6848 0.2578
C23 C 0.1515(12) 0.717(2) 0.1960(14)
C24 C 0.0883(11) 0.6926(17) 0.1755(8)
H17 H 0.0588 0.7257 0.1429
C25 C 0.2250(6) 0.5488(10) 0.3185(5)
C26 C 0.1705(5) 0.8079(11) 0.1678(4)
Zn7 Zn 0.25241(5) 0.36531(11) 0.38626(5)
Zn8 Zn 0.35934(5) 0.51385(10) 0.39631(5)
O17 O 0.3276(3) 0.4339(6) 0.4430(3)
O18 O 0.5493(3) 0.4819(6) 0.5777(3)
O19 O 0.2867(3) 0.2221(6) 0.5804(3)
O20 O 0.2205(4) 0.7883(6) 0.1630(3)
C27 C 0.5297(5) 0.4202(9) 0.6039(5)
O21 O 0.5667(4) 0.3787(7) 0.6500(3)
O22 O 0.3667(5) 0.6559(7) 0.4383(4)
C28 C 0.4623(5) 0.3958(8) 0.5777(4)
O23 O 0.2810(4) 0.5641(7) 0.3322(3)
C29 C 0.3415(5) 0.2495(10) 0.6059(4)
C30 C 0.3624(5) 0.4015(8) 0.4964(4)
O24 O 0.3722(5) 0.2224(11) 0.6576(4)
O25 O 0.1370(4) 0.8858(7) 0.1487(4)
C31 C 0.4347(5) 0.3380(10) 0.6059(4)
H18 H 0.4595 0.3169 0.6433
C32 C 0.4261(4) 0.4257(8) 0.5241(4)
H19 H 0.4448 0.4644 0.5049
O26 O 0.2051(4) 0.4819(7) 0.3436(3)
C33 C 0.3351(5) 0.3438(8) 0.5258(4)
H20 H 0.2918 0.3273 0.5083
C34 C 0.3721(5) 0.3114(10) 0.5802(4)
Zn9 Zn 0.24759(5) 0.86531(11) 0.11374(5)
Zn10 Zn 0.24759(5) 0.13469(11) 0.61374(5)
Zn12 Zn 0.64066(5) 0.48615(10) 0.60369(5)
O27 O 0.4507(3) 0.5181(6) 0.4223(3)
O28 O 0.2133(3) 0.2779(6) 0.4196(3)
O29 O 0.2795(4) 0.2883(6) 0.3370(3)
O30 O 0.3630(4) 0.3858(7) 0.3513(4)
H22 H 0.39618 0.648339 0.478386
H23 H 0.382495 0.709387 0.420923
Zn11_2 Zn 0.85934(5) 0.01385(10) 0.39631(5)
O16_2 O 0.9932(9) 0.594(2) 0.3137(11)
C19_2 C 0.9316(7) 0.6199(16) 0.2974(8)
C20_2 C 0.8884(9) 0.5714(14) 0.2497(8)
H15_2 H 0.9021 0.5217 0.2311
C21_2 C 0.8252(8) 0.596(2) 0.2291(11)
C22_2 C 0.8052(8) 0.668(3) 0.2563(16)
H16_2 H 0.7620 0.6848 0.2422
C23_2 C 0.8485(12) 0.717(2) 0.3040(14)
C24_2 C 0.9117(11) 0.6926(17) 0.3245(8)
H17_2 H 0.9412 0.7257 0.3571
C25_2 C 0.7750(6) 0.5488(10) 0.1815(5)
C26_2 C 0.8295(5) 0.8079(11) 0.3322(4)
Zn7_2 Zn 0.74759(5) 0.36531(11) 0.11374(5)
Zn8_2 Zn 0.64066(5) 0.51385(10) 0.10369(5)
O17_2 O 0.6724(3) 0.4339(6) 0.0570(3)
O20_2 O 0.7795(4) 0.7883(6) 0.3370(3)
O22_2 O 0.6333(5) 0.6559(7) 0.0617(4)
O23_2 O 0.7190(4) 0.5641(7) 0.1678(3)
C30_2 C 0.6376(5) 0.4015(8) 0.0036(4)
O25_2 O 0.8630(4) 0.8858(7) 0.3513(4)
O26_2 O 0.7949(4) 0.4819(7) 0.1564(3)
Zn9_2 Zn 0.75241(5) 0.86531(11) 0.38626(5)
O27_2 O 0.5493(3) 0.5181(6) 0.0777(3)
O28_2 O 0.7867(3) 0.2779(6) 0.0804(3)
O29_2 O 0.7205(4) 0.2883(6) 0.1630(3)
O30_2 O 0.6370(4) 0.3858(7) 0.1487(4)
H22_2 H 0.60382 0.648339 0.0216141
H23_2 H 0.617505 0.709387 0.0790767
O18_2 O 0.4507(3) 0.4819(6) 0.9223(3)
O19_2 O 0.7133(3) 0.2221(6) 0.9196(3)
C27_2 C 0.4703(5) 0.4202(9) 0.8961(5)
O21_2 O 0.4333(4) 0.3787(7) 0.8500(3)
C28_2 C 0.5377(5) 0.3958(8) 0.9223(4)
C29_2 C 0.6585(5) 0.2495(10) 0.8941(4)
O24_2 O 0.6278(5) 0.2224(11) 0.8424(4)
C31_2 C 0.5653(5) 0.3380(10) 0.8941(4)
H18_2 H 0.5405 0.3169 0.8567
C32_2 C 0.5739(4) 0.4257(8) 0.9759(4)
H19_2 H 0.5552 0.4644 0.9951
C33_2 C 0.6649(5) 0.3438(8) 0.9742(4)
H20_2 H 0.7082 0.3273 0.9917
C34_2 C 0.6279(5) 0.3114(10) 0.9198(4)
Zn10_2 Zn 0.75241(5) 0.13469(11) 0.88626(5)
Zn12_2 Zn 0.35934(5) 0.48615(10) 0.89631(5)
O18_3 O 0.0493(3) 0.9819(6) 0.5777(3)
C27_3 C 0.0297(5) 0.9202(9) 0.6039(5)
O21_3 O 0.0667(4) 0.8787(7) 0.6500(3)
Zn12_3 Zn 0.14066(5) 0.98615(10) 0.60369(5)
O16_3 O 0.5068(9) 0.094(2) 0.1863(11)
C19_3 C 0.5684(7) 0.1199(16) 0.2026(8)
C20_3 C 0.6116(9) 0.0714(14) 0.2503(8)
H15_3 H 0.5979 0.0217 0.2689
C21_3 C 0.6748(8) 0.096(2) 0.2709(11)
C22_3 C 0.6948(8) 0.168(3) 0.2437(16)
H16_3 H 0.7380 0.1848 0.2578
C23_3 C 0.6515(12) 0.217(2) 0.1960(14)
C24_3 C 0.5883(11) 0.1926(17) 0.1755(8)
H17_3 H 0.5588 0.2257 0.1429
C25_3 C 0.7250(6) 0.0488(10) 0.3185(5)
C26_3 C 0.6705(5) 0.3079(11) 0.1678(4)
O22_3 O 0.8667(5) 0.1559(7) 0.4383(4)
O23_3 O 0.7810(4) 0.0641(7) 0.3322(3)
O27_3 O 0.9507(3) 0.0181(6) 0.4223(3)
H22_3 H 0.89618 0.148339 0.478386
H23_3 H 0.882495 0.209387 0.420923
H26 H 0.494393 0.111034 0.216714
O17_3 O 0.8276(3) 0.9339(6) 0.4430(3)
O19_3 O 0.7867(3) 0.7221(6) 0.5804(3)
C28_3 C 0.9623(5) 0.8958(8) 0.5777(4)
C29_3 C 0.8415(5) 0.7495(10) 0.6059(4)
C30_3 C 0.8624(5) 0.9015(8) 0.4964(4)
O24_3 O 0.8722(5) 0.7224(11) 0.6576(4)
C31_3 C 0.9347(5) 0.8380(10) 0.6059(4)
H18_3 H 0.9595 0.8169 0.6433
C32_3 C 0.9261(4) 0.9257(8) 0.5241(4)
H19_3 H 0.9448 0.9644 0.5049
O26_3 O 0.7051(4) 0.9819(7) 0.3436(3)
C33_3 C 0.8351(5) 0.8438(8) 0.5258(4)
H20_3 H 0.7918 0.8273 0.5083
C34_3 C 0.8721(5) 0.8114(10) 0.5802(4)
Zn10_3 Zn 0.74759(5) 0.63469(11) 0.61374(5)
O28_3 O 0.7133(3) 0.7779(6) 0.4196(3)
O16_4 O 0.4932(9) 0.094(2) 0.3137(11)
C19_4 C 0.4316(7) 0.1199(16) 0.2974(8)
C20_4 C 0.3884(9) 0.0714(14) 0.2497(8)
H15_4 H 0.4021 0.0217 0.2311
C21_4 C 0.3252(8) 0.096(2) 0.2291(11)
C22_4 C 0.3052(8) 0.168(3) 0.2563(16)
H16_4 H 0.2620 0.1848 0.2422
C23_4 C 0.3485(12) 0.217(2) 0.3040(14)
C24_4 C 0.4117(11) 0.1926(17) 0.3245(8)
H17_4 H 0.4412 0.2257 0.3571
C25_4 C 0.2750(6) 0.0488(10) 0.1815(5)
C26_4 C 0.3295(5) 0.3079(11) 0.3322(4)
O22_4 O 0.1333(5) 0.1559(7) 0.0617(4)
O23_4 O 0.2190(4) 0.0641(7) 0.1678(3)
O27_4 O 0.0493(3) 0.0181(6) 0.0777(3)
H22_4 H 0.10382 0.148339 0.0216141
H23_4 H 0.117505 0.209387 0.0790767
H26_2 H 0.505607 0.111034 0.283286
O17_4 O 0.1724(3) 0.9339(6) 0.0570(3)
C30_4 C 0.1376(5) 0.9015(8) 0.0036(4)
O26_4 O 0.2949(4) 0.9819(7) 0.1564(3)
O28_4 O 0.2867(3) 0.7779(6) 0.0804(3)
O19_4 O 0.2133(3) 0.7221(6) 0.9196(3)
C28_4 C 0.0377(5) 0.8958(8) 0.9223(4)
C29_4 C 0.1585(5) 0.7495(10) 0.8941(4)
O24_4 O 0.1278(5) 0.7224(11) 0.8424(4)
C31_4 C 0.0653(5) 0.8380(10) 0.8941(4)
H18_4 H 0.0405 0.8169 0.8567
C32_4 C 0.0739(4) 0.9257(8) 0.9759(4)
H19_4 H 0.0552 0.9644 0.9951
C33_4 C 0.1649(5) 0.8438(8) 0.9742(4)
H20_4 H 0.2082 0.8273 0.9917
C34_4 C 0.1279(5) 0.8114(10) 0.9198(4)
Zn10_4 Zn 0.25241(5) 0.63469(11) 0.88626(5)
O18_4 O 0.9507(3) 0.9819(6) 0.9223(3)
C27_4 C 0.9703(5) 0.9202(9) 0.8961(5)
O21_4 O 0.9333(4) 0.8787(7) 0.8500(3)
Zn12_4 Zn 0.85934(5) 0.98615(10) 0.89631(5)
O16_5 O 0.9932(9) 0.406(2) 0.8137(11)
C19_5 C 0.9316(7) 0.3801(16) 0.7974(8)
C20_5 C 0.8884(9) 0.4286(14) 0.7497(8)
H15_5 H 0.9021 0.4783 0.7311
C21_5 C 0.8252(8) 0.404(2) 0.7291(11)
C22_5 C 0.8052(8) 0.332(3) 0.7563(16)
H16_5 H 0.7620 0.3152 0.7422
C23_5 C 0.8485(12) 0.283(2) 0.8040(14)
C24_5 C 0.9117(11) 0.3074(17) 0.8245(8)
H17_5 H 0.9412 0.2743 0.8571
C25_5 C 0.7750(6) 0.4512(10) 0.6815(5)
C26_5 C 0.8295(5) 0.1921(11) 0.8322(4)
O17_5 O 0.6724(3) 0.5661(6) 0.5570(3)
O20_3 O 0.7795(4) 0.2117(6) 0.8370(3)
C27_5 C 0.4703(5) 0.5798(9) 0.3961(5)
O21_5 O 0.4333(4) 0.6213(7) 0.3500(3)
O22_5 O 0.6333(5) 0.3441(7) 0.5617(4)
C28_5 C 0.5377(5) 0.6042(8) 0.4223(4)
O23_5 O 0.7190(4) 0.4359(7) 0.6678(3)
C29_5 C 0.6585(5) 0.7505(10) 0.3941(4)
C30_5 C 0.6376(5) 0.5985(8) 0.5036(4)
O24_5 O 0.6278(5) 0.7776(11) 0.3424(4)
O25_3 O 0.8630(4) 0.1142(7) 0.8513(4)
C31_5 C 0.5653(5) 0.6620(10) 0.3941(4)
H18_5 H 0.5405 0.6831 0.3567
C32_5 C 0.5739(4) 0.5743(8) 0.4759(4)
H19_5 H 0.5552 0.5356 0.4951
O26_5 O 0.7949(4) 0.5181(7) 0.6564(3)
C33_5 C 0.6649(5) 0.6562(8) 0.4742(4)
H20_5 H 0.7082 0.6727 0.4917
C34_5 C 0.6279(5) 0.6886(10) 0.4198(4)
O29_3 O 0.7205(4) 0.7117(6) 0.6630(3)
O30_3 O 0.6370(4) 0.6142(7) 0.6487(4)
H22_5 H 0.60382 0.351661 0.521614
H23_5 H 0.617505 0.290613 0.579077
C27_6 C 0.5297(5) 0.5798(9) 0.1039(5)
O21_6 O 0.5667(4) 0.6213(7) 0.1500(3)
C28_6 C 0.4623(5) 0.6042(8) 0.0777(4)
C29_6 C 0.3415(5) 0.7505(10) 0.1059(4)
O24_6 O 0.3722(5) 0.7776(11) 0.1576(4)
C31_6 C 0.4347(5) 0.6620(10) 0.1059(4)
H18_6 H 0.4595 0.6831 0.1433
C32_6 C 0.4261(4) 0.5743(8) 0.0241(4)
H19_6 H 0.4448 0.5356 0.0049
C33_6 C 0.3351(5) 0.6562(8) 0.0258(4)
H20_6 H 0.2918 0.6727 0.0083
C34_6 C 0.3721(5) 0.6886(10) 0.0802(4)
O16_6 O 0.0068(9) 0.406(2) 0.6863(11)
C19_6 C 0.0684(7) 0.3801(16) 0.7026(8)
C20_6 C 0.1116(9) 0.4286(14) 0.7503(8)
H15_6 H 0.0979 0.4783 0.7689
C21_6 C 0.1748(8) 0.404(2) 0.7709(11)
C22_6 C 0.1948(8) 0.332(3) 0.7437(16)
H16_6 H 0.2380 0.3152 0.7578
C23_6 C 0.1515(12) 0.283(2) 0.6960(14)
C24_6 C 0.0883(11) 0.3074(17) 0.6755(8)
H17_6 H 0.0588 0.2743 0.6429
C25_6 C 0.2250(6) 0.4512(10) 0.8185(5)
C26_6 C 0.1705(5) 0.1921(11) 0.6678(4)
O17_6 O 0.3276(3) 0.5661(6) 0.9430(3)
O20_4 O 0.2205(4) 0.2117(6) 0.6630(3)
O22_6 O 0.3667(5) 0.3441(7) 0.9383(4)
O23_6 O 0.2810(4) 0.4359(7) 0.8322(3)
C30_6 C 0.3624(5) 0.5985(8) 0.9964(4)
O25_4 O 0.1370(4) 0.1142(7) 0.6487(4)
O26_6 O 0.2051(4) 0.5181(7) 0.8436(3)
O29_4 O 0.2795(4) 0.7117(6) 0.8370(3)
O30_4 O 0.3630(4) 0.6142(7) 0.8513(4)
H22_6 H 0.39618 0.351661 0.978386
H23_6 H 0.382495 0.290613 0.920923
O17_7 O 0.1724(3) 0.0661(6) 0.5570(3)
C28_7 C 0.0377(5) 0.1042(8) 0.4223(4)
C29_7 C 0.1585(5) 0.2505(10) 0.3941(4)
C30_7 C 0.1376(5) 0.0985(8) 0.5036(4)
O24_7 O 0.1278(5) 0.2776(11) 0.3424(4)
C31_7 C 0.0653(5) 0.1620(10) 0.3941(4)
H18_7 H 0.0405 0.1831 0.3567
C32_7 C 0.0739(4) 0.0743(8) 0.4759(4)
H19_7 H 0.0552 0.0356 0.4951
O26_7 O 0.2949(4) 0.0181(7) 0.6564(3)
C33_7 C 0.1649(5) 0.1562(8) 0.4742(4)
H20_7 H 0.2082 0.1727 0.4917
C34_7 C 0.1279(5) 0.1886(10) 0.4198(4)
O16_7 O 0.4932(9) 0.906(2) 0.8137(11)
C19_7 C 0.4316(7) 0.8801(16) 0.7974(8)
C20_7 C 0.3884(9) 0.9286(14) 0.7497(8)
H15_7 H 0.4021 0.9783 0.7311
C21_7 C 0.3252(8) 0.904(2) 0.7291(11)
C22_7 C 0.3052(8) 0.832(3) 0.7563(16)
H16_7 H 0.2620 0.8152 0.7422
C23_7 C 0.3485(12) 0.783(2) 0.8040(14)
C24_7 C 0.4117(11) 0.8074(17) 0.8245(8)
H17_7 H 0.4412 0.7743 0.8571
C25_7 C 0.2750(6) 0.9512(10) 0.6815(5)
C26_7 C 0.3295(5) 0.6921(11) 0.8322(4)
O22_7 O 0.1333(5) 0.8441(7) 0.5617(4)
O23_7 O 0.2190(4) 0.9359(7) 0.6678(3)
H22_7 H 0.10382 0.851661 0.521614
H23_7 H 0.117505 0.790613 0.579077
H26_3 H 0.505607 0.888966 0.783286
C27_7 C 0.9703(5) 0.0798(9) 0.3961(5)
O21_7 O 0.9333(4) 0.1213(7) 0.3500(3)
C27_8 C 0.0297(5) 0.0798(9) 0.1039(5)
O21_8 O 0.0667(4) 0.1213(7) 0.1500(3)
C28_8 C 0.9623(5) 0.1042(8) 0.0777(4)
C29_8 C 0.8415(5) 0.2505(10) 0.1059(4)
O24_8 O 0.8722(5) 0.2776(11) 0.1576(4)
C31_8 C 0.9347(5) 0.1620(10) 0.1059(4)
H18_8 H 0.9595 0.1831 0.1433
C32_8 C 0.9261(4) 0.0743(8) 0.0241(4)
H19_8 H 0.9448 0.0356 0.0049
C33_8 C 0.8351(5) 0.1562(8) 0.0258(4)
H20_8 H 0.7918 0.1727 0.0083
C34_8 C 0.8721(5) 0.1886(10) 0.0802(4)
O17_8 O 0.8276(3) 0.0661(6) 0.9430(3)
C30_8 C 0.8624(5) 0.0985(8) 0.9964(4)
O26_8 O 0.7051(4) 0.0181(7) 0.8436(3)
O16_8 O 0.5068(9) 0.906(2) 0.6863(11)
C19_8 C 0.5684(7) 0.8801(16) 0.7026(8)
C20_8 C 0.6116(9) 0.9286(14) 0.7503(8)
H15_8 H 0.5979 0.9783 0.7689
C21_8 C 0.6748(8) 0.904(2) 0.7709(11)
C22_8 C 0.6948(8) 0.832(3) 0.7437(16)
H16_8 H 0.7380 0.8152 0.7578
C23_8 C 0.6515(12) 0.783(2) 0.6960(14)
C24_8 C 0.5883(11) 0.8074(17) 0.6755(8)
H17_8 H 0.5588 0.7743 0.6429
C25_8 C 0.7250(6) 0.9512(10) 0.8185(5)
C26_8 C 0.6705(5) 0.6921(11) 0.6678(4)
O22_8 O 0.8667(5) 0.8441(7) 0.9383(4)
O23_8 O 0.7810(4) 0.9359(7) 0.8322(3)
H22_8 H 0.89618 0.851661 0.978386
H23_8 H 0.882495 0.790613 0.920923
H26_4 H 0.494393 0.888966 0.716714
H26_5 H 0.994393 0.611034 0.216714
H26_6 H 0.00560664 0.611034 0.283286
H26_7 H 0.00560664 0.388966 0.783286
H26_8 H 0.994393 0.388966 0.716714
loop_
_geom_bond_atom_site_label_1
_geom_bond_atom_site_label_2
_geom_bond_site_symmetry_1
_geom_bond_site_symmetry_2
N1 H1 1_555 1_555
H2 N1 1_555 1_555
C1 N1 1_555 1_555
H3 C1 1_555 1_555
H4 C1 1_555 1_555
H5 C1 1_555 1_555
C2 N1 1_555 1_555
H6 C2 1_555 1_555
H7 C2 1_555 1_555
H8 C2 1_555 1_555
N1_2 H1_2 1_555 1_555
H2_2 N1_2 1_555 1_555
C1_2 N1_2 1_555 1_555
H3_2 C1_2 1_555 1_555
H4_2 C1_2 1_555 1_555
H5_2 C1_2 1_555 1_555
C2_2 N1_2 1_555 1_555
H6_2 C2_2 1_555 1_555
H7_2 C2_2 1_555 1_555
H8_2 C2_2 1_555 1_555
N1_3 H1_3 1_555 1_555
H2_3 N1_3 1_555 1_555
C1_3 N1_3 1_555 1_555
H3_3 C1_3 1_555 1_555
H4_3 C1_3 1_555 1_555
H5_3 C1_3 1_555 1_555
C2_3 N1_3 1_555 1_555
H6_3 C2_3 1_555 1_555
H7_3 C2_3 1_555 1_555
H8_3 C2_3 1_555 1_555
N1_4 H1_4 1_555 1_555
H2_4 N1_4 1_555 1_555
C1_4 N1_4 1_555 1_555
H3_4 C1_4 1_555 1_555
H4_4 C1_4 1_555 1_555
H5_4 C1_4 1_555 1_555
C2_4 N1_4 1_555 1_555
H6_4 C2_4 1_555 1_555
H7_4 C2_4 1_555 1_555
H8_4 C2_4 1_555 1_555
N1_5 H1_5 1_555 1_555
H2_5 N1_5 1_555 1_555
C1_5 N1_5 1_555 1_555
H3_5 C1_5 1_555 1_555
H4_5 C1_5 1_555 1_555
H5_5 C1_5 1_555 1_555
C2_5 N1_5 1_555 1_555
H6_5 C2_5 1_555 1_555
H7_5 C2_5 1_555 1_555
H8_5 C2_5 1_555 1_555
N1_6 H1_6 1_555 1_555
H2_6 N1_6 1_555 1_555
C1_6 N1_6 1_555 1_555
H3_6 C1_6 1_555 1_555
H4_6 C1_6 1_555 1_555
H5_6 C1_6 1_555 1_555
C2_6 N1_6 1_555 1_555
H6_6 C2_6 1_555 1_555
H7_6 C2_6 1_555 1_555
H8_6 C2_6 1_555 1_555
N1_7 H1_7 1_555 1_555
H2_7 N1_7 1_555 1_555
C1_7 N1_7 1_555 1_555
H3_7 C1_7 1_555 1_555
H4_7 C1_7 1_555 1_555
H5_7 C1_7 1_555 1_555
C2_7 N1_7 1_555 1_555
H6_7 C2_7 1_555 1_555
H7_7 C2_7 1_555 1_555
H8_7 C2_7 1_555 1_555
N1_8 H1_8 1_555 1_555
H2_8 N1_8 1_555 1_555
C1_8 N1_8 1_555 1_555
H3_8 C1_8 1_555 1_555
H4_8 C1_8 1_555 1_555
H5_8 C1_8 1_555 1_555
C2_8 N1_8 1_555 1_555
H6_8 C2_8 1_555 1_555
H7_8 C2_8 1_555 1_555
H8_8 C2_8 1_555 1_555
O1 C3 1_555 1_555
C3 C4 1_555 1_555
C4 H9 1_555 1_555
C5 C4 1_555 1_555
C6 C5 1_555 1_555
H10 C6 1_555 1_555
C7 C6 1_555 1_555
C8 C3 1_555 1_555
H11 C8 1_555 1_555
C9 C5 1_555 1_555
C10 C7 1_555 1_555
O2 C10 1_555 1_555
O3 C9 1_555 1_555
O4 C10 1_555 1_555
O5 C9 1_555 1_555
Zn1 O5 1_555 1_555
Zn2 O3 1_555 1_555
O6 Zn1 1_555 1_555
O10 Zn2 1_555 1_555
C14 O6 1_555 1_555
Zn3 O2 1_555 1_555
O12 Zn2 1_555 1_555
O13 Zn1 1_555 1_555
O14 Zn1 1_555 1_555
O15 Zn2 1_555 1_555
C7 C8 1_555 1_555
Zn2 O6 1_555 1_555
O10 H24 1_555 1_555
O10 H25 1_555 1_555
O7 C11 1_555 1_555
O8 C13 1_555 1_555
C11 O9 1_555 1_555
C12 C11 1_555 1_555
C13 O11 1_555 1_555
C15 C12 1_555 1_555
H12 C15 1_555 1_555
C16 C12 1_555 1_555
H13 C16 1_555 1_555
H14 C17 1_555 1_555
C18 C13 1_555 1_555
Zn4 O8 1_555 1_555
Zn6 O7 1_555 1_555
C15 C18 1_555 1_555
C17 C18 1_555 1_555
O1_2 C3_2 1_555 1_555
C3_2 C4_2 1_555 1_555
C4_2 H9_2 1_555 1_555
C5_2 C4_2 1_555 1_555
C6_2 C5_2 1_555 1_555
H10_2 C6_2 1_555 1_555
C7_2 C6_2 1_555 1_555
C8_2 C3_2 1_555 1_555
H11_2 C8_2 1_555 1_555
C9_2 C5_2 1_555 1_555
C10_2 C7_2 1_555 1_555
O2_2 C10_2 1_555 1_555
O3_2 C9_2 1_555 1_555
O4_2 C10_2 1_555 1_555
O5_2 C9_2 1_555 1_555
Zn1_2 O5_2 1_555 1_555
Zn2_2 O3_2 1_555 1_555
O6_2 Zn1_2 1_555 1_555
O7_2 C11_2 1_555 1_555
O8_2 C13_2 1_555 1_555
C11_2 O9_2 1_555 1_555
O10_2 Zn2_2 1_555 1_555
C12_2 C11_2 1_555 1_555
C13_2 O11_2 1_555 1_555
C14_2 O6_2 1_555 1_555
C15_2 C12_2 1_555 1_555
H12_2 C15_2 1_555 1_555
C16_2 C12_2 1_555 1_555
H13_2 C16_2 1_555 1_555
C17_2 C14_2 1_555 1_555
H14_2 C17_2 1_555 1_555
C18_2 C13_2 1_555 1_555
Zn3_2 O2_2 1_555 1_555
Zn4_2 O8_2 1_555 1_555
Zn6_2 O7_2 1_555 1_555
O12_2 Zn2_2 1_555 1_555
O13_2 Zn1_2 1_555 1_555
O14_2 Zn1_2 1_555 1_555
O15_2 Zn2_2 1_555 1_555
C7_2 C8_2 1_555 1_555
Zn2_2 O6_2 1_555 1_555
C14_2 C16_2 1_555 1_555
C15_2 C18_2 1_555 1_555
C17_2 C18_2 1_555 1_555
O10_2 H24_2 1_555 1_555
O10_2 H25_2 1_555 1_555
O1_3 C3_3 1_555 1_555
C3_3 C4_3 1_555 1_555
C4_3 H9_3 1_555 1_555
C5_3 C4_3 1_555 1_555
C6_3 C5_3 1_555 1_555
H10_3 C6_3 1_555 1_555
C7_3 C6_3 1_555 1_555
C8_3 C3_3 1_555 1_555
H11_3 C8_3 1_555 1_555
C9_3 C5_3 1_555 1_555
C10_3 C7_3 1_555 1_555
O14_2 C10_3 1_555 1_555
O3_3 C9_3 1_555 1_555
O15_2 C10_3 1_555 1_555
Zn5_2 O3_3 1_555 1_555
O10_3 Zn5_2 1_555 1_555
O12_3 Zn5_2 1_555 1_555
C7_3 C8_3 1_555 1_555
O1_3 H21_2 1_555 1_555
O10_3 H24_3 1_555 1_555
O10_3 H25_3 1_555 1_555
Zn3_2 O5_3 1_555 1_555
O6_3 Zn3_2 1_555 1_555
C14_3 O6_3 1_555 1_555
O13_3 Zn3_2 1_555 1_555
O8_3 C13_3 1_555 1_555
C13_3 O11_3 1_555 1_555
C15_3 C12_3 1_555 1_555
H12_3 C15_3 1_555 1_555
C16_3 C12_3 1_555 1_555
H13_3 C16_3 1_555 1_555
H14_3 C17_3 1_555 1_555
C18_3 C13_3 1_555 1_555
Zn4_3 O8_3 1_555 1_555
C15_3 C18_3 1_555 1_555
C17_3 C18_3 1_555 1_555
O7_3 C11_3 1_555 1_555
C11_3 O9_3 1_555 1_555
Zn6_3 O7_3 1_555 1_555
O7_4 C11_4 1_555 1_555
C11_4 O9_4 1_555 1_555
Zn6_4 O7_4 1_555 1_555
O1_4 C3_4 1_555 1_555
C3_4 C4_4 1_555 1_555
C4_4 H9_4 1_555 1_555
C5_4 C4_4 1_555 1_555
C6_4 C5_4 1_555 1_555
H10_4 C6_4 1_555 1_555
C7_4 C6_4 1_555 1_555
C8_4 C3_4 1_555 1_555
H11_4 C8_4 1_555 1_555
C9_4 C5_4 1_555 1_555
C10_4 C7_4 1_555 1_555
O14 C10_4 1_555 1_555
O3_4 C9_4 1_555 1_555
O15 C10_4 1_555 1_555
Zn5 O3_4 1_555 1_555
O10_4 Zn5 1_555 1_555
O12_4 Zn5 1_555 1_555
C7_4 C8_4 1_555 1_555
O1_4 H21_3 1_555 1_555
O10_4 H24_4 1_555 1_555
O10_4 H25_4 1_555 1_555
Zn3 O5_4 1_555 1_555
O6_4 Zn3 1_555 1_555
O8_4 C13_4 1_555 1_555
C13_4 O11_4 1_555 1_555
C14_4 O6_4 1_555 1_555
C15_4 C12_4 1_555 1_555
H12_4 C15_4 1_555 1_555
C16_4 C12_4 1_555 1_555
H13_4 C16_4 1_555 1_555
C17_4 C14_4 1_555 1_555
H14_4 C17_4 1_555 1_555
C18_4 C13_4 1_555 1_555
Zn4_4 O8_4 1_555 1_555
O13_4 Zn3 1_555 1_555
C14_4 C16_4 1_555 1_555
C15_4 C18_4 1_555 1_555
C17_4 C18_4 1_555 1_555
O12 C11_5 1_555 1_555
O13_3 C13_5 1_555 1_555
C11_5 O9_5 1_555 1_555
C12_5 C11_5 1_555 1_555
C13_5 O11_5 1_555 1_555
C15_5 C12_5 1_555 1_555
H12_5 C15_5 1_555 1_555
C16_5 C12_5 1_555 1_555
H13_5 C16_5 1_555 1_555
H14_5 C17_5 1_555 1_555
C18_5 C13_5 1_555 1_555
C15_5 C18_5 1_555 1_555
C17_5 C18_5 1_555 1_555
O1_5 C3_5 1_555 1_555
C3_5 C4_5 1_555 1_555
C4_5 H9_5 1_555 1_555
C5_5 C4_5 1_555 1_555
C6_5 C5_5 1_555 1_555
H10_5 C6_5 1_555 1_555
C7_5 C6_5 1_555 1_555
C8_5 C3_5 1_555 1_555
H11_5 C8_5 1_555 1_555
C9_5 C5_5 1_555 1_555
C10_5 C7_5 1_555 1_555
O2_3 C10_5 1_555 1_555
O3_5 C9_5 1_555 1_555
O4_3 C10_5 1_555 1_555
O5_5 C9_5 1_555 1_555
Zn4_3 O5_5 1_555 1_555
Zn6 O3_5 1_555 1_555
O6_5 Zn4_3 1_555 1_555
O10_5 Zn6 1_555 1_555
C14_5 O6_5 1_555 1_555
Zn4_2 O2_3 1_555 1_555
O14_3 Zn4_3 1_555 1_555
O15_3 Zn6 1_555 1_555
C7_5 C8_5 1_555 1_555
Zn6 O6_5 1_555 1_555
O10_5 H24_5 1_555 1_555
O10_5 H25_5 1_555 1_555
O1_6 C3_6 1_555 1_555
C3_6 C4_6 1_555 1_555
C4_6 H9_6 1_555 1_555
C5_6 C4_6 1_555 1_555
C6_6 C5_6 1_555 1_555
H10_6 C6_6 1_555 1_555
C7_6 C6_6 1_555 1_555
C8_6 C3_6 1_555 1_555
H11_6 C8_6 1_555 1_555
C9_6 C5_6 1_555 1_555
C10_6 C7_6 1_555 1_555
O2_4 C10_6 1_555 1_555
O3_6 C9_6 1_555 1_555
O4_4 C10_6 1_555 1_555
O5_6 C9_6 1_555 1_555
Zn4_4 O5_6 1_555 1_555
Zn6_2 O3_6 1_555 1_555
O6_6 Zn4_4 1_555 1_555
O12_2 C11_6 1_555 1_555
O13_4 C13_6 1_555 1_555
C11_6 O9_6 1_555 1_555
O10_6 Zn6_2 1_555 1_555
C12_6 C11_6 1_555 1_555
C13_6 O11_6 1_555 1_555
C14_6 O6_6 1_555 1_555
C15_6 C12_6 1_555 1_555
H12_6 C15_6 1_555 1_555
C16_6 C12_6 1_555 1_555
H13_6 C16_6 1_555 1_555
C17_6 C14_6 1_555 1_555
H14_6 C17_6 1_555 1_555
C18_6 C13_6 1_555 1_555
Zn4 O2_4 1_555 1_555
O14_4 Zn4_4 1_555 1_555
O15_4 Zn6_2 1_555 1_555
C7_6 C8_6 1_555 1_555
Zn6_2 O6_6 1_555 1_555
C14_6 C16_6 1_555 1_555
C15_6 C18_6 1_555 1_555
C17_6 C18_6 1_555 1_555
O10_6 H24_6 1_555 1_555
O10_6 H25_6 1_555 1_555
O12_3 C11_7 1_555 1_555
C11_7 O9_7 1_555 1_555
O13 C13_7 1_555 1_555
C13_7 O11_7 1_555 1_555
C15_7 C12_7 1_555 1_555
H12_7 C15_7 1_555 1_555
C16_7 C12_7 1_555 1_555
H13_7 C16_7 1_555 1_555
H14_7 C17_7 1_555 1_555
C18_7 C13_7 1_555 1_555
C15_7 C18_7 1_555 1_555
C17_7 C18_7 1_555 1_555
Zn4 O5_7 1_555 1_555
O6_7 Zn4 1_555 1_555
C14_7 O6_7 1_555 1_555
O1_7 C3_7 1_555 1_555
C3_7 C4_7 1_555 1_555
C4_7 H9_7 1_555 1_555
C5_7 C4_7 1_555 1_555
C6_7 C5_7 1_555 1_555
H10_7 C6_7 1_555 1_555
C7_7 C6_7 1_555 1_555
C8_7 C3_7 1_555 1_555
H11_7 C8_7 1_555 1_555
C9_7 C5_7 1_555 1_555
C10_7 C7_7 1_555 1_555
O14_4 C10_7 1_555 1_555
O3_7 C9_7 1_555 1_555
O15_4 C10_7 1_555 1_555
Zn6_3 O3_7 1_555 1_555
O10_7 Zn6_3 1_555 1_555
C7_7 C8_7 1_555 1_555
O1_7 H21_4 1_555 1_555
O10_7 H24_7 1_555 1_555
O10_7 H25_7 1_555 1_555
Zn4_2 O5_8 1_555 1_555
O6_8 Zn4_2 1_555 1_555
O13_2 C13_8 1_555 1_555
C13_8 O11_8 1_555 1_555
C14_8 O6_8 1_555 1_555
C15_8 C12_8 1_555 1_555
H12_8 C15_8 1_555 1_555
C16_8 C12_8 1_555 1_555
H13_8 C16_8 1_555 1_555
C17_8 C14_8 1_555 1_555
H14_8 C17_8 1_555 1_555
C18_8 C13_8 1_555 1_555
C14_8 C16_8 1_555 1_555
C15_8 C18_8 1_555 1_555
C17_8 C18_8 1_555 1_555
O1_8 C3_8 1_555 1_555
C3_8 C4_8 1_555 1_555
C4_8 H9_8 1_555 1_555
C5_8 C4_8 1_555 1_555
C6_8 C5_8 1_555 1_555
H10_8 C6_8 1_555 1_555
C7_8 C6_8 1_555 1_555
C8_8 C3_8 1_555 1_555
H11_8 C8_8 1_555 1_555
C9_8 C5_8 1_555 1_555
C10_8 C7_8 1_555 1_555
O14_3 C10_8 1_555 1_555
O3_8 C9_8 1_555 1_555
O15_3 C10_8 1_555 1_555
Zn6_4 O3_8 1_555 1_555
O10_8 Zn6_4 1_555 1_555
C7_8 C8_8 1_555 1_555
O1_8 H21_5 1_555 1_555
O10_8 H24_8 1_555 1_555
O10_8 H25_8 1_555 1_555
O12_4 C11_8 1_555 1_555
C11_8 O9_8 1_555 1_555
O16 C19 1_555 1_555
C19 C20 1_555 1_555
C20 H15 1_555 1_555
C21 C20 1_555 1_555
C22 C21 1_555 1_555
H16 C22 1_555 1_555
C23 C22 1_555 1_555
C24 C19 1_555 1_555
H17 C24 1_555 1_555
C25 C21 1_555 1_555
C26 C23 1_555 1_555
Zn7 O17 1_555 1_555
Zn8 O17 1_555 1_555
O17 C30 1_555 1_555
O18 C27 1_555 1_555
O19 C29 1_555 1_555
O20 C26 1_555 1_555
C27 O21 1_555 1_555
O22 Zn8 1_555 1_555
C28 C27 1_555 1_555
O23 C25 1_555 1_555
C29 O24 1_555 1_555
C30 C32 1_555 1_555
O25 C26 1_555 1_555
C31 C28 1_555 1_555
H18 C31 1_555 1_555
C32 C28 1_555 1_555
H19 C32 1_555 1_555
O26 C25 1_555 1_555
C33 C30 1_555 1_555
H20 C33 1_555 1_555
C34 C29 1_555 1_555
Zn9 O20 1_555 1_555
Zn10 O19 1_555 1_555
Zn12 O18 1_555 1_555
O27 Zn8 1_555 1_555
O28 Zn7 1_555 1_555
O29 Zn7 1_555 1_555
O30 Zn8 1_555 1_555
C23 C24 1_555 1_555
Zn7 O26 1_555 1_555
Zn8 O23 1_555 1_555
C31 C34 1_555 1_555
C33 C34 1_555 1_555
O22 H22 1_555 1_555
O22 H23 1_555 1_555
O16_2 C19_2 1_555 1_555
C19_2 C20_2 1_555 1_555
C20_2 H15_2 1_555 1_555
C21_2 C20_2 1_555 1_555
C22_2 C21_2 1_555 1_555
H16_2 C22_2 1_555 1_555
C23_2 C22_2 1_555 1_555
C24_2 C19_2 1_555 1_555
H17_2 C24_2 1_555 1_555
C25_2 C21_2 1_555 1_555
C26_2 C23_2 1_555 1_555
Zn7_2 O17_2 1_555 1_555
Zn8_2 O17_2 1_555 1_555
O17_2 C30_2 1_555 1_555
O20_2 C26_2 1_555 1_555
O22_2 Zn8_2 1_555 1_555
O23_2 C25_2 1_555 1_555
O25_2 C26_2 1_555 1_555
O26_2 C25_2 1_555 1_555
Zn9_2 O20_2 1_555 1_555
O27_2 Zn8_2 1_555 1_555
O28_2 Zn7_2 1_555 1_555
O29_2 Zn7_2 1_555 1_555
O30_2 Zn8_2 1_555 1_555
C23_2 C24_2 1_555 1_555
Zn7_2 O26_2 1_555 1_555
Zn8_2 O23_2 1_555 1_555
O22_2 H22_2 1_555 1_555
O22_2 H23_2 1_555 1_555
O18_2 C27_2 1_555 1_555
O19_2 C29_2 1_555 1_555
C27_2 O21_2 1_555 1_555
C28_2 C27_2 1_555 1_555
C29_2 O24_2 1_555 1_555
C31_2 C28_2 1_555 1_555
H18_2 C31_2 1_555 1_555
C32_2 C28_2 1_555 1_555
H19_2 C32_2 1_555 1_555
H20_2 C33_2 1_555 1_555
C34_2 C29_2 1_555 1_555
Zn10_2 O19_2 1_555 1_555
Zn12_2 O18_2 1_555 1_555
C31_2 C34_2 1_555 1_555
C33_2 C34_2 1_555 1_555
O18_3 C27_3 1_555 1_555
C27_3 O21_3 1_555 1_555
Zn12_3 O18_3 1_555 1_555
O16_3 C19_3 1_555 1_555
C19_3 C20_3 1_555 1_555
C20_3 H15_3 1_555 1_555
C21_3 C20_3 1_555 1_555
C22_3 C21_3 1_555 1_555
H16_3 C22_3 1_555 1_555
C23_3 C22_3 1_555 1_555
C24_3 C19_3 1_555 1_555
H17_3 C24_3 1_555 1_555
C25_3 C21_3 1_555 1_555
C26_3 C23_3 1_555 1_555
O29_2 C26_3 1_555 1_555
O22_3 Zn11_2 1_555 1_555
O23_3 C25_3 1_555 1_555
O30_2 C26_3 1_555 1_555
O27_3 Zn11_2 1_555 1_555
C23_3 C24_3 1_555 1_555
Zn11_2 O23_3 1_555 1_555
O22_3 H22_3 1_555 1_555
O22_3 H23_3 1_555 1_555
O16_3 H26 1_555 1_555
Zn9_2 O17_3 1_555 1_555
O17_3 C30_3 1_555 1_555
O19_3 C29_3 1_555 1_555
C29_3 O24_3 1_555 1_555
C30_3 C32_3 1_555 1_555
C31_3 C28_3 1_555 1_555
H18_3 C31_3 1_555 1_555
C32_3 C28_3 1_555 1_555
H19_3 C32_3 1_555 1_555
C33_3 C30_3 1_555 1_555
H20_3 C33_3 1_555 1_555
C34_3 C29_3 1_555 1_555
Zn10_3 O19_3 1_555 1_555
O28_3 Zn9_2 1_555 1_555
Zn9_2 O26_3 1_555 1_555
C31_3 C34_3 1_555 1_555
C33_3 C34_3 1_555 1_555
O16_4 C19_4 1_555 1_555
C19_4 C20_4 1_555 1_555
C20_4 H15_4 1_555 1_555
C21_4 C20_4 1_555 1_555
C22_4 C21_4 1_555 1_555
H16_4 C22_4 1_555 1_555
C23_4 C22_4 1_555 1_555
C24_4 C19_4 1_555 1_555
H17_4 C24_4 1_555 1_555
C25_4 C21_4 1_555 1_555
C26_4 C23_4 1_555 1_555
O29 C26_4 1_555 1_555
O22_4 Zn11 1_555 1_555
O23_4 C25_4 1_555 1_555
O30 C26_4 1_555 1_555
O27_4 Zn11 1_555 1_555
C23_4 C24_4 1_555 1_555
Zn11 O23_4 1_555 1_555
O22_4 H22_4 1_555 1_555
O22_4 H23_4 1_555 1_555
O16_4 H26_2 1_555 1_555
Zn9 O17_4 1_555 1_555
O17_4 C30_4 1_555 1_555
O28_4 Zn9 1_555 1_555
Zn9 O26_4 1_555 1_555
O19_4 C29_4 1_555 1_555
C29_4 O24_4 1_555 1_555
C31_4 C28_4 1_555 1_555
H18_4 C31_4 1_555 1_555
C32_4 C28_4 1_555 1_555
H19_4 C32_4 1_555 1_555
H20_4 C33_4 1_555 1_555
C34_4 C29_4 1_555 1_555
Zn10_4 O19_4 1_555 1_555
C31_4 C34_4 1_555 1_555
C33_4 C34_4 1_555 1_555
O18_4 C27_4 1_555 1_555
C27_4 O21_4 1_555 1_555
Zn12_4 O18_4 1_555 1_555
O16_5 C19_5 1_555 1_555
C19_5 C20_5 1_555 1_555
C20_5 H15_5 1_555 1_555
C21_5 C20_5 1_555 1_555
C22_5 C21_5 1_555 1_555
H16_5 C22_5 1_555 1_555
C23_5 C22_5 1_555 1_555
C24_5 C19_5 1_555 1_555
H17_5 C24_5 1_555 1_555
C25_5 C21_5 1_555 1_555
C26_5 C23_5 1_555 1_555
Zn10_3 O17_5 1_555 1_555
Zn12 O17_5 1_555 1_555
O17_5 C30_5 1_555 1_555
O27 C27_5 1_555 1_555
O28_3 C29_5 1_555 1_555
O20_3 C26_5 1_555 1_555
C27_5 O21_5 1_555 1_555
O22_5 Zn12 1_555 1_555
C28_5 C27_5 1_555 1_555
O23_5 C25_5 1_555 1_555
C29_5 O24_5 1_555 1_555
C30_5 C32_5 1_555 1_555
O25_3 C26_5 1_555 1_555
C31_5 C28_5 1_555 1_555
H18_5 C31_5 1_555 1_555
C32_5 C28_5 1_555 1_555
H19_5 C32_5 1_555 1_555
O26_5 C25_5 1_555 1_555
C33_5 C30_5 1_555 1_555
H20_5 C33_5 1_555 1_555
C34_5 C29_5 1_555 1_555
Zn10_2 O20_3 1_555 1_555
O29_3 Zn10_3 1_555 1_555
O30_3 Zn12 1_555 1_555
C23_5 C24_5 1_555 1_555
Zn10_3 O26_5 1_555 1_555
Zn12 O23_5 1_555 1_555
C31_5 C34_5 1_555 1_555
C33_5 C34_5 1_555 1_555
O22_5 H22_5 1_555 1_555
O22_5 H23_5 1_555 1_555
O27_2 C27_6 1_555 1_555
O28_4 C29_6 1_555 1_555
C27_6 O21_6 1_555 1_555
C28_6 C27_6 1_555 1_555
C29_6 O24_6 1_555 1_555
C31_6 C28_6 1_555 1_555
H18_6 C31_6 1_555 1_555
C32_6 C28_6 1_555 1_555
H19_6 C32_6 1_555 1_555
H20_6 C33_6 1_555 1_555
C34_6 C29_6 1_555 1_555
C31_6 C34_6 1_555 1_555
C33_6 C34_6 1_555 1_555
O16_6 C19_6 1_555 1_555
C19_6 C20_6 1_555 1_555
C20_6 H15_6 1_555 1_555
C21_6 C20_6 1_555 1_555
C22_6 C21_6 1_555 1_555
H16_6 C22_6 1_555 1_555
C23_6 C22_6 1_555 1_555
C24_6 C19_6 1_555 1_555
H17_6 C24_6 1_555 1_555
C25_6 C21_6 1_555 1_555
C26_6 C23_6 1_555 1_555
Zn10_4 O17_6 1_555 1_555
Zn12_2 O17_6 1_555 1_555
O17_6 C30_6 1_555 1_555
O20_4 C26_6 1_555 1_555
O22_6 Zn12_2 1_555 1_555
O23_6 C25_6 1_555 1_555
O25_4 C26_6 1_555 1_555
O26_6 C25_6 1_555 1_555
Zn10 O20_4 1_555 1_555
O29_4 Zn10_4 1_555 1_555
O30_4 Zn12_2 1_555 1_555
C23_6 C24_6 1_555 1_555
Zn10_4 O26_6 1_555 1_555
Zn12_2 O23_6 1_555 1_555
O22_6 H22_6 1_555 1_555
O22_6 H23_6 1_555 1_555
Zn10 O17_7 1_555 1_555
O17_7 C30_7 1_555 1_555
O28 C29_7 1_555 1_555
C29_7 O24_7 1_555 1_555
C30_7 C32_7 1_555 1_555
C31_7 C28_7 1_555 1_555
H18_7 C31_7 1_555 1_555
C32_7 C28_7 1_555 1_555
H19_7 C32_7 1_555 1_555
C33_7 C30_7 1_555 1_555
H20_7 C33_7 1_555 1_555
C34_7 C29_7 1_555 1_555
Zn10 O26_7 1_555 1_555
C31_7 C34_7 1_555 1_555
C33_7 C34_7 1_555 1_555
O16_7 C19_7 1_555 1_555
C19_7 C20_7 1_555 1_555
C20_7 H15_7 1_555 1_555
C21_7 C20_7 1_555 1_555
C22_7 C21_7 1_555 1_555
H16_7 C22_7 1_555 1_555
C23_7 C22_7 1_555 1_555
C24_7 C19_7 1_555 1_555
H17_7 C24_7 1_555 1_555
C25_7 C21_7 1_555 1_555
C26_7 C23_7 1_555 1_555
O29_4 C26_7 1_555 1_555
O22_7 Zn12_3 1_555 1_555
O23_7 C25_7 1_555 1_555
O30_4 C26_7 1_555 1_555
C23_7 C24_7 1_555 1_555
Zn12_3 O23_7 1_555 1_555
O22_7 H22_7 1_555 1_555
O22_7 H23_7 1_555 1_555
O16_7 H26_3 1_555 1_555
O27_3 C27_7 1_555 1_555
C27_7 O21_7 1_555 1_555
O27_4 C27_8 1_555 1_555
C27_8 O21_8 1_555 1_555
O28_2 C29_8 1_555 1_555
C29_8 O24_8 1_555 1_555
C31_8 C28_8 1_555 1_555
H18_8 C31_8 1_555 1_555
C32_8 C28_8 1_555 1_555
H19_8 C32_8 1_555 1_555
H20_8 C33_8 1_555 1_555
C34_8 C29_8 1_555 1_555
C31_8 C34_8 1_555 1_555
C33_8 C34_8 1_555 1_555
Zn10_2 O17_8 1_555 1_555
O17_8 C30_8 1_555 1_555
Zn10_2 O26_8 1_555 1_555
O16_8 C19_8 1_555 1_555
C19_8 C20_8 1_555 1_555
C20_8 H15_8 1_555 1_555
C21_8 C20_8 1_555 1_555
C22_8 C21_8 1_555 1_555
H16_8 C22_8 1_555 1_555
C23_8 C22_8 1_555 1_555
C24_8 C19_8 1_555 1_555
H17_8 C24_8 1_555 1_555
C25_8 C21_8 1_555 1_555
C26_8 C23_8 1_555 1_555
O29_3 C26_8 1_555 1_555
O22_8 Zn12_4 1_555 1_555
O23_8 C25_8 1_555 1_555
O30_3 C26_8 1_555 1_555
C23_8 C24_8 1_555 1_555
Zn12_4 O23_8 1_555 1_555
O22_8 H22_8 1_555 1_555
O22_8 H23_8 1_555 1_555
O16_8 H26_4 1_555 1_555

#END
