
###############################################################################
#
# This file contains modified crystal structure data generated from the
# MOF subset of the Cambridge Structural Database (CSD) v543 
# hosted by the Cambridge Crystallographic Data Centre (CCDC).
#
# This work is licensed under the Creative Commons
# Attribution-NonCommercial-ShareAlike 4.0 International License.
# To view a copy of this license, visit
# http://creativecommons.org/licenses/by-nc-sa/4.0/
# or send a letter to
# Creative Commons, PO Box 1866, Mountain View, CA 94042, USA.
#
# CIF created using the CSD Python API on 29 September 2022
# The structure has been converted into the P1 space group
# The structure has a 3D framework
# The original CSD entry RUGYOJ is in the monoclinic crystal system
# The framework has been calculated to contain at least 10.0% void space
# The void calculation uses a probe of radius 1.32A, grid spacing 0.4
#
###############################################################################

data_RUGYOJ
_chemical_formula_moiety         '(C168 H104 Cd12 N8 O52)n'
_symmetry_cell_setting           triclinic
_symmetry_space_group_name_H-M   'P 1'
_symmetry_Int_Tables_number      1
_space_group_name_Hall           'P 1'
loop_
_symmetry_equiv_pos_site_id
_symmetry_equiv_pos_as_xyz
1 x,y,z
_cell_length_a                   14.6163(3)
_cell_length_b                   23.1639(4)
_cell_length_c                   15.7113(4)
_cell_angle_alpha                90
_cell_angle_beta                 108.061(2)
_cell_angle_gamma                90
_cell_volume                     5057.28
loop_
_atom_site_label
_atom_site_type_symbol
_atom_site_fract_x
_atom_site_fract_y
_atom_site_fract_z
O16 O 0.1699(2) 0.65487(16) 0.9006(2)
O21 O 0.1020(3) 0.57225(19) 0.8809(3)
H39 H 0.0514 0.7334 0.9059
C67 C 0.0025(4) 0.6536(2) 0.8683(4)
C78 C 0.0990(4) 0.6271(2) 0.8844(3)
Cd10 Cd 0.26482(2) 0.56102(2) 0.91487(2)
Cd16 Cd 0.23594(3) 0.69733(2) 0.79788(2)
Cd7 Cd 0.5000 0.0000 0.5000
Cd11 Cd 0.73518(2) 0.06102(2) 0.58513(2)
Cd1 Cd 0.5000 0.5000 0.0000
Cd2 Cd 0.73518(2) 0.43898(2) 0.08513(2)
Cd3 Cd 0.76406(3) 0.30267(2) 0.20212(2)
O1 O 0.5464(3) 0.40770(13) 0.0172(2)
O2 O 0.3935(3) 0.48510(14) 0.0670(2)
O4 O 0.2774(3) 0.54871(15) 0.0580(2)
O5 O 0.6503(2) 0.37831(14) 0.1416(3)
O6 O 0.3913(3) 0.01854(14) 0.3674(2)
O7 O 0.6697(3) 0.27775(16) 0.7031(2)
C1 C 0.2840(3) 0.2130(2) 0.2304(4)
O9 O 0.2399(3) 0.02669(17) 0.3634(3)
O10 O 0.6543(3) 0.24323(17) 0.5696(2)
C2 C 0.3539(3) 0.1745(2) 0.2190(3)
H1 H 0.3914 0.1847 0.1831
C3 C 0.5061(3) 0.32680(19) 0.1989(3)
H2 H 0.5669 0.3300 0.2408
N1 N 0.2683(3) 0.26689(19) 0.1861(4)
O11 O 0.9065(3) 0.2552(2) 0.2749(3)
H3 H 0.9623 0.2640 0.3146
H4 H 0.9048 0.2167 0.2694
C4 C 0.5494(4) 0.3200(2) 0.5804(3)
N2 N 0.3476(3) 0.44841(18) 0.4544(3)
C5 C 0.4848(4) 0.3110(2) 0.4968(3)
H5 H 0.4880 0.2769 0.4665
C6 C 0.4895(3) 0.34954(18) 0.1133(3)
C7 C 0.4337(3) 0.29966(19) 0.2223(3)
H6 H 0.4459 0.2847 0.2797
C8 C 0.3385(3) 0.49457(19) 0.1919(3)
C9 C 0.4172(3) 0.46612(19) 0.2472(3)
H7 H 0.4681 0.4566 0.2261
C10 C 0.3167(4) 0.4909(3) 0.5058(3)
C11 C 0.4119(4) 0.4041(2) 0.5003(3)
C12 C 0.5419(4) 0.3703(2) 0.6247(3)
H8 H 0.5835 0.3763 0.6822
C13 C 0.3434(3) 0.2946(2) 0.1613(4)
C14 C 0.5657(3) 0.38094(17) 0.0882(3)
C15 C 0.4215(4) 0.4516(2) 0.3329(3)
H9 H 0.4765 0.4337 0.3699
O12 O 0.2627(3) 0.6704(3) 0.6645(3)
C16 C 0.2621(4) 0.5072(2) 0.2238(3)
H10 H 0.2094 0.5273 0.1875
C17 C 0.2296(4) 0.1980(2) 0.2860(4)
H11 H 0.1871 0.2242 0.2982
C18 C 0.3664(3) 0.12160(19) 0.2613(3)
H12 H 0.4152 0.0971 0.2571
C19 C 0.6296(4) 0.2778(2) 0.6204(3)
C20 C 0.3065(3) 0.1049(2) 0.3102(3)
C21 C 0.3362(3) 0.51127(19) 0.0989(3)
C22 C 0.0042(4) 0.2886(2) 0.1160(4)
C23 C 0.2632(4) 0.4902(2) 0.3088(3)
H14 H 0.2099 0.4968 0.3278
C24 C 0.3447(4) 0.4631(2) 0.3656(3)
C26 C 0.3980(4) 0.3441(2) 0.0523(3)
C27 C 0.3155(4) 0.0460(2) 0.3505(3)
C28 C 0.4739(4) 0.4119(2) 0.5857(3)
H16 H 0.4700 0.4453 0.6172
C29 C 0.2401(4) 0.1428(2) 0.3228(4)
H17 H 0.2012 0.1315 0.3568
C30 C 0.1775(4) 0.2943(2) 0.1662(4)
C31 C 0.3251(4) 0.3168(2) 0.0768(4)
H18 H 0.2638 0.3137 0.0358
C32 C 0.0934(4) 0.2628(2) 0.1327(4)
H19 H 0.0970 0.2236 0.1213
O13 O 0.1846(3) 0.6028(3) 0.7167(4)
C33 C 0.3300(4) 0.5497(2) 0.4952(4)
H20 H 0.3584 0.5619 0.4530
C34 C 0.4149(4) 0.3516(2) 0.4566(3)
H21 H 0.3703 0.3441 0.4010
C35 C 0.2757(4) 0.4733(3) 0.5708(3)
H22 H 0.2680 0.4343 0.5808
C37 C 0.0824(4) 0.3789(2) 0.1630(4)
H23 H 0.0789 0.4184 0.1720
C38 C 0.3016(4) 0.5898(3) 0.5463(4)
H24 H 0.3101 0.6289 0.5374
C39 C 0.1718(4) 0.3525(2) 0.1806(5)
H25 H 0.2277 0.3743 0.2022
C40 C 0.2463(4) 0.5160(4) 0.6212(4)
H26 H 0.2163 0.5047 0.6628
C41 C 0.2609(4) 0.5732(3) 0.6103(4)
C42 C 0.2322(4) 0.6194(4) 0.6669(5)
H41 H 0.6146 0.6413 0.0054
Cd17 Cd 0.76406(3) 0.19733(2) 0.70212(2)
O27 O 0.8301(2) 0.34513(16) 0.0994(2)
O29 O 0.6087(3) 0.51854(14) 0.1326(2)
O32 O 0.6697(3) 0.22225(16) 0.2031(2)
O33 O 0.8980(3) 0.42775(19) 0.1191(3)
O35 O 0.7601(3) 0.52669(17) 0.1366(3)
O38 O 0.6543(3) 0.25677(17) 0.0696(2)
O40 O 0.7373(3) 0.3296(3) 0.3355(3)
O42 O 0.8154(3) 0.3972(3) 0.2833(4)
Cd1_2 Cd 0.5000 0.5000 1.0000
H15 H 0.3854 0.3587 0.9946
O14 O 0.4536(3) 0.59230(13) 0.9828(2)
O15 O 0.6065(3) 0.51490(14) 0.9330(2)
O17 O 0.7226(3) 0.45129(15) 0.9420(2)
O18 O 0.3497(2) 0.62169(14) 0.8584(3)
O19 O 0.6087(3) 0.98146(14) 0.6326(2)
O20 O 0.3303(3) 0.72225(16) 0.2969(2)
C43 C 0.7160(3) 0.7870(2) 0.7696(4)
O22 O 0.7601(3) 0.97331(17) 0.6366(3)
O23 O 0.3457(3) 0.75677(17) 0.4304(2)
C44 C 0.6461(3) 0.8255(2) 0.7810(3)
H27 H 0.6086 0.8153 0.8169
C45 C 0.4939(3) 0.67320(19) 0.8011(3)
H28 H 0.4331 0.6700 0.7592
N3 N 0.7317(3) 0.73311(19) 0.8139(4)
O24 O 0.0935(3) 0.7448(2) 0.7251(3)
H29 H 0.0377 0.7360 0.6854
H30 H 0.0952 0.7833 0.7306
C46 C 0.4506(4) 0.6800(2) 0.4196(3)
N4 N 0.6524(3) 0.55159(18) 0.5456(3)
C47 C 0.5152(4) 0.6890(2) 0.5032(3)
H31 H 0.5120 0.7231 0.5335
C48 C 0.5105(3) 0.65046(18) 0.8867(3)
C49 C 0.5663(3) 0.70034(19) 0.7777(3)
H32 H 0.5541 0.7153 0.7203
C50 C 0.6615(3) 0.50543(19) 0.8081(3)
C51 C 0.5828(3) 0.53388(19) 0.7528(3)
H33 H 0.5319 0.5434 0.7739
C52 C 0.6833(4) 0.5091(3) 0.4942(3)
C53 C 0.5881(4) 0.5959(2) 0.4997(3)
C54 C 0.4581(4) 0.6297(2) 0.3753(3)
H34 H 0.4165 0.6237 0.3178
C55 C 0.6566(3) 0.7054(2) 0.8387(4)
C56 C 0.4343(3) 0.61906(17) 0.9118(3)
C57 C 0.5785(4) 0.5484(2) 0.6671(3)
H35 H 0.5235 0.5663 0.6301
C58 C 0.7379(4) 0.4928(2) 0.7762(3)
H36 H 0.7906 0.4727 0.8125
C59 C 0.7704(4) 0.8020(2) 0.7140(4)
H37 H 0.8129 0.7758 0.7018
C60 C 0.6336(3) 0.87840(19) 0.7387(3)
H38 H 0.5848 0.9029 0.7429
C61 C 0.3704(4) 0.7222(2) 0.3796(3)
C62 C 0.6935(3) 0.8951(2) 0.6898(3)
C63 C 0.6638(3) 0.48873(19) 0.9011(3)
C64 C 0.9958(4) 0.7114(2) 0.8840(4)
C65 C 0.7368(4) 0.5098(2) 0.6912(3)
H40 H 0.7901 0.5032 0.6722
C66 C 0.6553(4) 0.5369(2) 0.6344(3)
C68 C 0.6020(4) 0.6559(2) 0.9477(3)
C69 C 0.6845(4) 0.9540(2) 0.6495(3)
C70 C 0.5261(4) 0.5881(2) 0.4143(3)
H42 H 0.5300 0.5547 0.3828
C71 C 0.7599(4) 0.8572(2) 0.6772(4)
H43 H 0.7988 0.8685 0.6432
C72 C 0.8225(4) 0.7057(2) 0.8338(4)
C73 C 0.6749(4) 0.6832(2) 0.9232(4)
H44 H 0.7362 0.6863 0.9642
C74 C 0.9066(4) 0.7372(2) 0.8673(4)
H45 H 0.9030 0.7764 0.8787
C75 C 0.6700(4) 0.4503(2) 0.5048(4)
H46 H 0.6416 0.4381 0.5470
C76 C 0.5851(4) 0.6484(2) 0.5434(3)
H47 H 0.6297 0.6559 0.5990
C77 C 0.7243(4) 0.5267(3) 0.4292(3)
H48 H 0.7320 0.5657 0.4192
C79 C 0.9176(4) 0.6211(2) 0.8370(4)
H49 H 0.9211 0.5816 0.8280
C80 C 0.6984(4) 0.4102(3) 0.4537(4)
H50 H 0.6899 0.3711 0.4626
C81 C 0.8282(4) 0.6475(2) 0.8194(5)
H51 H 0.7723 0.6257 0.7978
C82 C 0.7537(4) 0.4840(4) 0.3788(4)
H52 H 0.7837 0.4953 0.3372
C83 C 0.7391(4) 0.4268(3) 0.3897(4)
C84 C 0.7678(4) 0.3806(4) 0.3331(5)
Cd7_2 Cd 0.5000 1.0000 0.5000
Cd14 Cd 0.23594(3) 0.80267(2) 0.29788(2)
O30 O 0.3913(3) 0.48146(14) 0.8674(2)
O31 O 0.3303(3) 0.77775(16) 0.7969(2)
O36 O 0.2399(3) 0.47331(17) 0.8634(3)
O37 O 0.3457(3) 0.74323(17) 0.9304(2)
Cd9 Cd 0.26482(2) 0.93898(2) 0.41487(2)
H13 H 0.9486 0.2666 0.0941
C25 C 0.9975(4) 0.3464(2) 0.1317(4)
C36 C 0.9010(4) 0.3729(2) 0.1156(3)
O3 O 0.1699(2) 0.84513(16) 0.4006(2)
O8 O 0.1020(3) 0.92775(19) 0.3809(3)
H13_2 H 0.0514 0.7666 0.4059
C25_2 C 0.0025(4) 0.8464(2) 0.3683(4)
C36_2 C 0.0990(4) 0.8729(2) 0.3844(3)
C46_2 C 0.5494(4) 0.1800(2) 0.0804(3)
C52_2 C 0.3167(4) 0.0091(3) 0.0058(3)
C53_2 C 0.4119(4) 0.0959(2) 0.0003(3)
C54_2 C 0.5419(4) 0.1297(2) 0.1247(3)
H34_2 H 0.5835 0.1237 0.1822
C61_2 C 0.6296(4) 0.2222(2) 0.1204(3)
C70_2 C 0.4739(4) 0.0881(2) 0.0857(3)
H42_2 H 0.4700 0.0547 0.1172
C77_2 C 0.2757(4) 0.0267(3) 0.0708(3)
H48_2 H 0.2680 0.0657 0.0808
O4_2 O 0.7226(3) 0.04871(15) 0.4420(2)
C16_2 C 0.7379(4) 0.0072(2) 0.2762(3)
H10_2 H 0.7906 0.0273 0.3125
C21_2 C 0.6638(3) 0.01127(19) 0.4011(3)
C33_2 C 0.6700(4) 0.0497(2) 0.0048(4)
H20_2 H 0.6416 0.0619 0.0470
O14_2 O 0.5464(3) 0.09230(13) 0.5172(2)
O15_2 O 0.3935(3) 0.01490(14) 0.5670(2)
O18_2 O 0.6503(2) 0.12169(14) 0.6416(3)
C43_2 C 0.2840(3) 0.2870(2) 0.7304(4)
C44_2 C 0.3539(3) 0.3255(2) 0.7190(3)
H27_2 H 0.3914 0.3153 0.6831
C45_2 C 0.5061(3) 0.17320(19) 0.6989(3)
H28_2 H 0.5669 0.1700 0.7408
N3_2 N 0.2683(3) 0.23311(19) 0.6861(4)
O24_2 O 0.9065(3) 0.2448(2) 0.7749(3)
H29_2 H 0.9623 0.2360 0.8146
H30_2 H 0.9048 0.2833 0.7694
N4_2 N 0.3476(3) 0.05159(18) 0.9544(3)
C47_2 C 0.4848(4) 0.1890(2) 0.9968(3)
H31_2 H 0.4880 0.2231 0.9665
C48_2 C 0.4895(3) 0.15046(18) 0.6133(3)
C49_2 C 0.4337(3) 0.20034(19) 0.7223(3)
H32_2 H 0.4459 0.2153 0.7797
C50_2 C 0.3385(3) 0.00543(19) 0.6919(3)
C51_2 C 0.4172(3) 0.03388(19) 0.7472(3)
H33_2 H 0.4681 0.0434 0.7261
C55_2 C 0.3434(3) 0.2054(2) 0.6613(4)
C56_2 C 0.5657(3) 0.11906(17) 0.5882(3)
C57_2 C 0.4215(4) 0.0484(2) 0.8329(3)
H35_2 H 0.4765 0.0663 0.8699
C59_2 C 0.2296(4) 0.3020(2) 0.7860(4)
H37_2 H 0.1871 0.2758 0.7982
C60_2 C 0.3664(3) 0.37840(19) 0.7613(3)
H38_2 H 0.4152 0.4029 0.7571
C62_2 C 0.3065(3) 0.3951(2) 0.8102(3)
C64_2 C 0.0042(4) 0.2114(2) 0.6160(4)
C65_2 C 0.2632(4) 0.0098(2) 0.8088(3)
H40_2 H 0.2099 0.0032 0.8278
C66_2 C 0.3447(4) 0.0369(2) 0.8656(3)
C68_2 C 0.3980(4) 0.1559(2) 0.5523(3)
H41_2 H 0.3854 0.1413 0.4946
C69_2 C 0.3155(4) 0.4540(2) 0.8505(3)
C71_2 C 0.2401(4) 0.3572(2) 0.8228(4)
H43_2 H 0.2012 0.3685 0.8568
C72_2 C 0.1775(4) 0.2057(2) 0.6662(4)
C73_2 C 0.3251(4) 0.1832(2) 0.5768(4)
H44_2 H 0.2638 0.1863 0.5358
C74_2 C 0.0934(4) 0.2372(2) 0.6327(4)
H45_2 H 0.0970 0.2764 0.6213
C76_2 C 0.4149(4) 0.1484(2) 0.9566(3)
H47_2 H 0.3703 0.1559 0.9010
C79_2 C 0.0824(4) 0.1211(2) 0.6630(4)
H49_2 H 0.0789 0.0816 0.6720
C81_2 C 0.1718(4) 0.1475(2) 0.6806(5)
H51_2 H 0.2277 0.1257 0.7022
O28 O 0.8301(2) 0.15487(16) 0.5994(2)
O34 O 0.8980(3) 0.07225(19) 0.6191(3)
O39 O 0.7373(3) 0.1704(3) 0.8355(3)
O41 O 0.8154(3) 0.1028(3) 0.7833(4)
C38_2 C 0.6984(4) 0.0898(3) 0.9537(4)
H24_2 H 0.6899 0.1289 0.9626
C40_2 C 0.7537(4) 0.0160(4) 0.8788(4)
H26_2 H 0.7837 0.0047 0.8372
C41_2 C 0.7391(4) 0.0732(3) 0.8897(4)
C42_2 C 0.7678(4) 0.1194(4) 0.8331(5)
O25 O 0.2627(3) 0.8296(3) 0.1645(3)
O26 O 0.1846(3) 0.8972(3) 0.2167(4)
C80_2 C 0.3016(4) 0.9102(3) 0.0463(4)
H50_2 H 0.3101 0.8711 0.0374
C82_2 C 0.2463(4) 0.9840(4) 0.1212(4)
H52_2 H 0.2163 0.9953 0.1628
C83_2 C 0.2609(4) 0.9268(3) 0.1103(4)
C84_2 C 0.2322(4) 0.8806(4) 0.1669(5)
O1_2 O 0.4536(3) 0.90770(13) 0.4828(2)
O2_2 O 0.6065(3) 0.98510(14) 0.4330(2)
O5_2 O 0.3497(2) 0.87831(14) 0.3584(3)
C1_2 C 0.7160(3) 0.7130(2) 0.2696(4)
C2_2 C 0.6461(3) 0.6745(2) 0.2810(3)
H1_2 H 0.6086 0.6847 0.3169
C3_2 C 0.4939(3) 0.82680(19) 0.3011(3)
H2_2 H 0.4331 0.8300 0.2592
N1_2 N 0.7317(3) 0.76689(19) 0.3139(4)
O11_2 O 0.0935(3) 0.7552(2) 0.2251(3)
H3_2 H 0.0377 0.7640 0.1854
H4_2 H 0.0952 0.7167 0.2306
N2_2 N 0.6524(3) 0.94841(18) 0.0456(3)
C5_2 C 0.5152(4) 0.8110(2) 0.0032(3)
H5_2 H 0.5120 0.7769 0.0335
C6_2 C 0.5105(3) 0.84954(18) 0.3867(3)
C7_2 C 0.5663(3) 0.79966(19) 0.2777(3)
H6_2 H 0.5541 0.7847 0.2203
C8_2 C 0.6615(3) 0.99457(19) 0.3081(3)
C9_2 C 0.5828(3) 0.96612(19) 0.2528(3)
H7_2 H 0.5319 0.9566 0.2739
C13_2 C 0.6566(3) 0.7946(2) 0.3387(4)
C14_2 C 0.4343(3) 0.88094(17) 0.4118(3)
C15_2 C 0.5785(4) 0.9516(2) 0.1671(3)
H9_2 H 0.5235 0.9337 0.1301
C17_2 C 0.7704(4) 0.6980(2) 0.2140(4)
H11_2 H 0.8129 0.7242 0.2018
C18_2 C 0.6336(3) 0.62160(19) 0.2387(3)
H12_2 H 0.5848 0.5971 0.2429
C20_2 C 0.6935(3) 0.6049(2) 0.1898(3)
C22_2 C 0.9958(4) 0.7886(2) 0.3840(4)
C23_2 C 0.7368(4) 0.9902(2) 0.1912(3)
H14_2 H 0.7901 0.9968 0.1722
C24_2 C 0.6553(4) 0.9631(2) 0.1344(3)
C26_2 C 0.6020(4) 0.8441(2) 0.4477(3)
H15_2 H 0.6146 0.8587 0.5054
C27_2 C 0.6845(4) 0.5460(2) 0.1495(3)
C29_2 C 0.7599(4) 0.6428(2) 0.1772(4)
H17_2 H 0.7988 0.6315 0.1432
C30_2 C 0.8225(4) 0.7943(2) 0.3338(4)
C31_2 C 0.6749(4) 0.8168(2) 0.4232(4)
H18_2 H 0.7362 0.8137 0.4642
C32_2 C 0.9066(4) 0.7628(2) 0.3673(4)
H19_2 H 0.9030 0.7236 0.3787
C34_2 C 0.5851(4) 0.8516(2) 0.0434(3)
H21_2 H 0.6297 0.8441 0.0990
C37_2 C 0.9176(4) 0.8789(2) 0.3370(4)
H23_2 H 0.9211 0.9184 0.3280
C39_2 C 0.8282(4) 0.8525(2) 0.3194(5)
H25_2 H 0.7723 0.8743 0.2978
O17_2 O 0.2774(3) 0.95129(15) 0.5580(2)
C58_2 C 0.2621(4) 0.9928(2) 0.7238(3)
H36_2 H 0.2094 0.9727 0.6875
C63_2 C 0.3362(3) 0.98873(19) 0.5989(3)
C75_2 C 0.3300(4) 0.9503(2) 0.9952(4)
H46_2 H 0.3584 0.9381 0.9530
C4_2 C 0.4506(4) 0.8200(2) 0.9196(3)
C10_2 C 0.6833(4) 0.9909(3) 0.9942(3)
C11_2 C 0.5881(4) 0.9041(2) 0.9997(3)
C12_2 C 0.4581(4) 0.8703(2) 0.8753(3)
H8_2 H 0.4165 0.8763 0.8178
C19_2 C 0.3704(4) 0.7778(2) 0.8796(3)
C28_2 C 0.5261(4) 0.9119(2) 0.9143(3)
H16_2 H 0.5300 0.9453 0.8828
C35_2 C 0.7243(4) 0.9733(3) 0.9292(3)
H22_2 H 0.7320 0.9343 0.9192
H39_2 H 0.9486 0.2334 0.5941
C67_2 C 0.9975(4) 0.1536(2) 0.6317(4)
C78_2 C 0.9010(4) 0.1271(2) 0.6156(3)
loop_
_geom_bond_atom_site_label_1
_geom_bond_atom_site_label_2
_geom_bond_site_symmetry_1
_geom_bond_site_symmetry_2
O16 C78 1_555 1_555
O21 C78 1_555 1_555
C78 C67 1_555 1_555
Cd10 O16 1_555 1_555
Cd16 O16 1_555 1_555
O21 Cd10 1_555 1_555
Cd1 O1 1_555 1_555
Cd2 O1 1_555 1_555
Cd3 O5 1_555 1_555
O1 C14 1_555 1_555
O2 Cd1 1_555 1_555
O4 C21 1_555 1_555
O5 Cd2 1_555 1_555
O6 C27 1_555 1_555
O7 C19 1_555 1_555
C1 C2 1_555 1_555
O9 C27 1_555 1_555
O10 C19 1_555 1_555
C2 H1 1_555 1_555
C3 H2 1_555 1_555
N1 C1 1_555 1_555
O11 Cd3 1_555 1_555
H3 O11 1_555 1_555
H4 O11 1_555 1_555
C4 C5 1_555 1_555
N2 C10 1_555 1_555
C5 H5 1_555 1_555
C6 C3 1_555 1_555
C7 C3 1_555 1_555
H6 C7 1_555 1_555
C8 C9 1_555 1_555
C9 H7 1_555 1_555
C10 C33 1_555 1_555
C11 N2 1_555 1_555
C12 C4 1_555 1_555
H8 C12 1_555 1_555
C13 N1 1_555 1_555
C14 O5 1_555 1_555
C15 C9 1_555 1_555
H9 C15 1_555 1_555
O12 C42 1_555 1_555
C16 C8 1_555 1_555
H10 C16 1_555 1_555
C17 C1 1_555 1_555
H11 C17 1_555 1_555
C18 C2 1_555 1_555
H12 C18 1_555 1_555
C19 C4 1_555 1_555
C20 C18 1_555 1_555
C21 O2 1_555 1_555
C23 C16 1_555 1_555
H14 C23 1_555 1_555
C24 N2 1_555 1_555
C26 C6 1_555 1_555
C27 C20 1_555 1_555
C28 C11 1_555 1_555
H16 C28 1_555 1_555
C29 C17 1_555 1_555
H17 C29 1_555 1_555
C30 N1 1_555 1_555
C31 C13 1_555 1_555
H18 C31 1_555 1_555
C32 C22 1_555 1_555
H19 C32 1_555 1_555
O13 C42 1_555 1_555
C33 H20 1_555 1_555
C34 C5 1_555 1_555
H21 C34 1_555 1_555
C35 C10 1_555 1_555
H22 C35 1_555 1_555
H23 C37 1_555 1_555
C38 C33 1_555 1_555
H24 C38 1_555 1_555
C39 C30 1_555 1_555
H25 C39 1_555 1_555
C40 C35 1_555 1_555
H26 C40 1_555 1_555
C41 C38 1_555 1_555
C42 C41 1_555 1_555
Cd7 O6 1_555 1_555
Cd16 O12 1_555 1_555
Cd17 O7 1_555 1_555
O27 Cd2 1_555 1_555
O29 Cd1 1_555 1_555
O32 Cd3 1_555 1_555
O33 Cd2 1_555 1_555
O35 Cd2 1_555 1_555
O38 Cd3 1_555 1_555
O40 Cd3 1_555 1_555
O42 Cd3 1_555 1_555
Cd3 O27 1_555 1_555
O10 Cd17 1_555 1_555
C6 C14 1_555 1_555
C7 C13 1_555 1_555
C8 C21 1_555 1_555
C11 C34 1_555 1_555
C12 C28 1_555 1_555
C15 C24 1_555 1_555
C20 C29 1_555 1_555
C23 C24 1_555 1_555
C26 C31 1_555 1_555
C30 C32 1_555 1_555
O13 Cd16 1_555 1_555
C37 C39 1_555 1_555
C40 C41 1_555 1_555
Cd16 O18 1_555 1_555
O14 Cd1_2 1_555 1_555
O15 Cd1_2 1_555 1_555
O18 Cd10 1_555 1_555
O19 C69 1_555 1_555
O20 C61 1_555 1_555
C43 C44 1_555 1_555
O22 C69 1_555 1_555
O23 C61 1_555 1_555
C44 H27 1_555 1_555
C45 H28 1_555 1_555
N3 C43 1_555 1_555
O24 Cd16 1_555 1_555
H29 O24 1_555 1_555
H30 O24 1_555 1_555
C46 C47 1_555 1_555
N4 C52 1_555 1_555
C47 H31 1_555 1_555
C48 C45 1_555 1_555
C49 C45 1_555 1_555
H32 C49 1_555 1_555
C50 C51 1_555 1_555
C51 H33 1_555 1_555
C52 C75 1_555 1_555
C53 N4 1_555 1_555
C54 C46 1_555 1_555
H34 C54 1_555 1_555
C55 N3 1_555 1_555
C56 O14 1_555 1_555
C57 C51 1_555 1_555
H35 C57 1_555 1_555
O40 C84 1_555 1_555
C58 C50 1_555 1_555
H36 C58 1_555 1_555
C59 C43 1_555 1_555
H37 C59 1_555 1_555
C60 C44 1_555 1_555
H38 C60 1_555 1_555
C61 C46 1_555 1_555
C62 C60 1_555 1_555
C63 O15 1_555 1_555
C65 C58 1_555 1_555
H40 C65 1_555 1_555
C66 N4 1_555 1_555
C68 C48 1_555 1_555
C69 C62 1_555 1_555
C70 C53 1_555 1_555
H42 C70 1_555 1_555
C71 C59 1_555 1_555
H43 C71 1_555 1_555
C72 N3 1_555 1_555
C73 C55 1_555 1_555
H44 C73 1_555 1_555
C74 C64 1_555 1_555
H45 C74 1_555 1_555
O42 C84 1_555 1_555
C75 H46 1_555 1_555
C76 C47 1_555 1_555
H47 C76 1_555 1_555
C77 C52 1_555 1_555
H48 C77 1_555 1_555
H49 C79 1_555 1_555
C80 C75 1_555 1_555
H50 C80 1_555 1_555
C81 C72 1_555 1_555
H51 C81 1_555 1_555
C82 C77 1_555 1_555
H52 C82 1_555 1_555
C83 C80 1_555 1_555
C84 C83 1_555 1_555
Cd7_2 O19 1_555 1_555
Cd14 O20 1_555 1_555
O30 Cd1_2 1_555 1_555
O31 Cd16 1_555 1_555
O36 Cd10 1_555 1_555
O37 Cd16 1_555 1_555
Cd10 O14 1_555 1_555
O17 C63 1_555 1_555
O18 C56 1_555 1_555
O23 Cd14 1_555 1_555
C48 C56 1_555 1_555
C49 C55 1_555 1_555
C50 C63 1_555 1_555
C53 C76 1_555 1_555
C54 C70 1_555 1_555
C57 C66 1_555 1_555
C62 C71 1_555 1_555
C65 C66 1_555 1_555
C68 C73 1_555 1_555
C72 C74 1_555 1_555
C79 C81 1_555 1_555
C82 C83 1_555 1_555
O27 C36 1_555 1_555
O33 C36 1_555 1_555
C36 C25 1_555 1_555
O3 C36_2 1_555 1_555
O8 C36_2 1_555 1_555
C36_2 C25_2 1_555 1_555
Cd9 O3 1_555 1_555
Cd14 O3 1_555 1_555
O8 Cd9 1_555 1_555
O32 C61_2 1_555 1_555
O38 C61_2 1_555 1_555
C54_2 C46_2 1_555 1_555
H34_2 C54_2 1_555 1_555
C61_2 C46_2 1_555 1_555
C70_2 C53_2 1_555 1_555
H42_2 C70_2 1_555 1_555
C77_2 C52_2 1_555 1_555
H48_2 C77_2 1_555 1_555
C54_2 C70_2 1_555 1_555
O4_2 C21_2 1_555 1_555
H10_2 C16_2 1_555 1_555
C33_2 H20_2 1_555 1_555
Cd11 O4_2 1_555 1_555
Cd17 O18_2 1_555 1_555
O14_2 Cd7 1_555 1_555
O15_2 Cd7 1_555 1_555
O18_2 Cd11 1_555 1_555
O30 C69_2 1_555 1_555
C43_2 C44_2 1_555 1_555
O36 C69_2 1_555 1_555
C44_2 H27_2 1_555 1_555
C45_2 H28_2 1_555 1_555
N3_2 C43_2 1_555 1_555
O24_2 Cd17 1_555 1_555
H29_2 O24_2 1_555 1_555
H30_2 O24_2 1_555 1_555
C47_2 H31_2 1_555 1_555
C48_2 C45_2 1_555 1_555
C49_2 C45_2 1_555 1_555
H32_2 C49_2 1_555 1_555
C50_2 C51_2 1_555 1_555
C51_2 H33_2 1_555 1_555
C55_2 N3_2 1_555 1_555
C56_2 O14_2 1_555 1_555
C57_2 C51_2 1_555 1_555
H35_2 C57_2 1_555 1_555
C59_2 C43_2 1_555 1_555
H37_2 C59_2 1_555 1_555
C60_2 C44_2 1_555 1_555
H38_2 C60_2 1_555 1_555
C62_2 C60_2 1_555 1_555
H40_2 C65_2 1_555 1_555
C66_2 N4_2 1_555 1_555
C68_2 C48_2 1_555 1_555
H41_2 C68_2 1_555 1_555
C69_2 C62_2 1_555 1_555
C71_2 C59_2 1_555 1_555
H43_2 C71_2 1_555 1_555
C72_2 N3_2 1_555 1_555
C73_2 C55_2 1_555 1_555
H44_2 C73_2 1_555 1_555
C74_2 C64_2 1_555 1_555
H45_2 C74_2 1_555 1_555
C76_2 C47_2 1_555 1_555
H47_2 C76_2 1_555 1_555
H49_2 C79_2 1_555 1_555
C81_2 C72_2 1_555 1_555
H51_2 C81_2 1_555 1_555
O28 Cd11 1_555 1_555
O34 Cd11 1_555 1_555
O39 Cd17 1_555 1_555
O41 Cd17 1_555 1_555
Cd11 O14_2 1_555 1_555
Cd17 O28 1_555 1_555
O18_2 C56_2 1_555 1_555
C48_2 C56_2 1_555 1_555
C49_2 C55_2 1_555 1_555
C57_2 C66_2 1_555 1_555
C62_2 C71_2 1_555 1_555
C65_2 C66_2 1_555 1_555
C68_2 C73_2 1_555 1_555
C72_2 C74_2 1_555 1_555
C79_2 C81_2 1_555 1_555
O39 C42_2 1_555 1_555
O41 C42_2 1_555 1_555
H24_2 C38_2 1_555 1_555
H26_2 C40_2 1_555 1_555
C41_2 C38_2 1_555 1_555
C42_2 C41_2 1_555 1_555
C40_2 C41_2 1_555 1_555
O25 C84_2 1_555 1_555
O26 C84_2 1_555 1_555
H50_2 C80_2 1_555 1_555
H52_2 C82_2 1_555 1_555
C83_2 C80_2 1_555 1_555
C84_2 C83_2 1_555 1_555
Cd14 O25 1_555 1_555
O26 Cd14 1_555 1_555
C82_2 C83_2 1_555 1_555
Cd7_2 O1_2 1_555 1_555
Cd9 O1_2 1_555 1_555
Cd14 O5_2 1_555 1_555
O1_2 C14_2 1_555 1_555
O2_2 Cd7_2 1_555 1_555
O5_2 Cd9 1_555 1_555
O29 C27_2 1_555 1_555
C1_2 C2_2 1_555 1_555
O35 C27_2 1_555 1_555
C2_2 H1_2 1_555 1_555
C3_2 H2_2 1_555 1_555
N1_2 C1_2 1_555 1_555
O11_2 Cd14 1_555 1_555
H3_2 O11_2 1_555 1_555
H4_2 O11_2 1_555 1_555
C5_2 H5_2 1_555 1_555
C6_2 C3_2 1_555 1_555
C7_2 C3_2 1_555 1_555
H6_2 C7_2 1_555 1_555
C8_2 C9_2 1_555 1_555
C9_2 H7_2 1_555 1_555
C13_2 N1_2 1_555 1_555
C14_2 O5_2 1_555 1_555
C15_2 C9_2 1_555 1_555
H9_2 C15_2 1_555 1_555
C17_2 C1_2 1_555 1_555
H11_2 C17_2 1_555 1_555
C18_2 C2_2 1_555 1_555
H12_2 C18_2 1_555 1_555
C20_2 C18_2 1_555 1_555
H14_2 C23_2 1_555 1_555
C24_2 N2_2 1_555 1_555
C26_2 C6_2 1_555 1_555
H15_2 C26_2 1_555 1_555
C27_2 C20_2 1_555 1_555
C29_2 C17_2 1_555 1_555
H17_2 C29_2 1_555 1_555
C30_2 N1_2 1_555 1_555
C31_2 C13_2 1_555 1_555
H18_2 C31_2 1_555 1_555
C32_2 C22_2 1_555 1_555
H19_2 C32_2 1_555 1_555
C34_2 C5_2 1_555 1_555
H21_2 C34_2 1_555 1_555
H23_2 C37_2 1_555 1_555
C39_2 C30_2 1_555 1_555
H25_2 C39_2 1_555 1_555
O17_2 Cd9 1_555 1_555
H36_2 C58_2 1_555 1_555
C75_2 H46_2 1_555 1_555
C6_2 C14_2 1_555 1_555
C7_2 C13_2 1_555 1_555
C15_2 C24_2 1_555 1_555
C20_2 C29_2 1_555 1_555
C23_2 C24_2 1_555 1_555
C26_2 C31_2 1_555 1_555
C30_2 C32_2 1_555 1_555
C37_2 C39_2 1_555 1_555
O17_2 C63_2 1_555 1_555
O31 C19_2 1_555 1_555
O37 C19_2 1_555 1_555
C12_2 C4_2 1_555 1_555
H8_2 C12_2 1_555 1_555
C19_2 C4_2 1_555 1_555
C28_2 C11_2 1_555 1_555
H16_2 C28_2 1_555 1_555
C35_2 C10_2 1_555 1_555
H22_2 C35_2 1_555 1_555
C12_2 C28_2 1_555 1_555
O28 C78_2 1_555 1_555
O34 C78_2 1_555 1_555
C78_2 C67_2 1_555 1_555

#END
