
###############################################################################
#
# This file contains modified crystal structure data generated from the
# MOF subset of the Cambridge Structural Database (CSD) v543 
# hosted by the Cambridge Crystallographic Data Centre (CCDC).
#
# This work is licensed under the Creative Commons
# Attribution-NonCommercial-ShareAlike 4.0 International License.
# To view a copy of this license, visit
# http://creativecommons.org/licenses/by-nc-sa/4.0/
# or send a letter to
# Creative Commons, PO Box 1866, Mountain View, CA 94042, USA.
#
# CIF created using the CSD Python API on 29 September 2022
# The structure has been converted into the P1 space group
# The structure has a 3D framework
# The original CSD entry RUGZAW is in the triclinic crystal system
# The framework has been calculated to contain at least 10.0% void space
# The void calculation uses a probe of radius 1.32A, grid spacing 0.4
#
###############################################################################

data_RUGZAW
_chemical_formula_moiety         '(C152 H104 N32 O24 Zn8)n'
_symmetry_cell_setting           triclinic
_symmetry_space_group_name_H-M   'P 1'
_symmetry_Int_Tables_number      1
_space_group_name_Hall           'P 1'
loop_
_symmetry_equiv_pos_site_id
_symmetry_equiv_pos_as_xyz
1 x,y,z
_cell_length_a                   14.7979(4)
_cell_length_b                   18.6413(5)
_cell_length_c                   22.2879(5)
_cell_angle_alpha                86.672(2)
_cell_angle_beta                 79.485(2)
_cell_angle_gamma                75.825(3)
_cell_volume                     5860.29
loop_
_atom_site_label
_atom_site_type_symbol
_atom_site_fract_x
_atom_site_fract_y
_atom_site_fract_z
O2 O 0.1294(2) 0.03402(14) 0.06348(13)
O5 O 0.18534(19) 0.15774(13) 0.74954(13)
O6 O 0.32493(18) 0.17115(13) 0.70336(13)
N6 N 0.2215(2) 0.63967(15) 0.12296(13)
N8 N 0.3254(2) 0.74719(15) 0.83561(14)
C7 C 0.2406(3) 0.19645(19) 0.72761(17)
C9 C 0.1466(2) 0.66948(19) 0.09585(17)
H10 H 0.1350 0.7196 0.0857
N15 N 0.0179(2) 0.54518(15) 0.75757(14)
C20 C 0.1793(2) 0.52369(19) 0.12681(17)
H19 H 0.1927 0.4738 0.1377
C22 C 0.2933(3) 0.63380(19) 0.81357(17)
H21 H 0.3123 0.5824 0.8124
C23 C 0.0865(3) 0.62979(18) 0.08238(17)
H22 H 0.0358 0.6524 0.0631
C25 C 0.0155(2) 0.39255(18) 0.05911(16)
C26 C 0.0510(3) 0.31207(18) 0.04563(16)
C28 C 0.0770(2) 0.43455(18) 0.06896(16)
H24 H 0.1417 0.4137 0.0646
C30 C 0.2361(2) 0.56864(19) 0.13909(17)
H25 H 0.2862 0.5481 0.1594
C32 C 0.1031(2) 0.55359(18) 0.09836(16)
C36 C 0.1439(2) 0.62830(19) 0.77902(16)
C42 C 0.2465(3) 0.78301(19) 0.81537(18)
H32 H 0.2316 0.8345 0.8146
C47 C 0.0405(3) 0.50808(18) 0.08534(16)
C48 C 0.0472(2) 0.65786(19) 0.78504(16)
H35 H 0.0226 0.7068 0.7968
C49 C 0.1752(2) 0.55461(18) 0.76087(17)
H36 H 0.2396 0.5323 0.7549
C57 C 0.1866(3) 0.74740(19) 0.79572(18)
H40 H 0.1318 0.7747 0.7829
C58 C 0.2080(3) 0.66994(19) 0.79505(17)
C59 C 0.2062(3) 0.28036(19) 0.73044(17)
C61 C 0.1427(2) 0.4336(2) 0.74039(18)
C62 C 0.1124(3) 0.51426(19) 0.75157(17)
C64 C 0.0263(3) 0.18838(19) 0.06058(18)
C66 C 0.1414(3) 0.2831(2) 0.01522(18)
H44 H 0.1808 0.3144 0.0002
C67 C 0.1177(3) 0.1609(2) 0.03048(18)
C68 C 0.0815(3) 0.3886(2) 0.75691(19)
H45 H 0.0179 0.4096 0.7713
C69 C 0.3490(2) 0.6727(2) 0.83327(17)
H46 H 0.4051 0.6470 0.8455
C72 C 0.1739(3) 0.2076(2) 0.00697(18)
C73 C 0.2381(3) 0.4006(2) 0.7163(2)
H50 H 0.2805 0.4301 0.7033
C74 C 0.1125(3) 0.3126(2) 0.75253(19)
H51 H 0.0699 0.2830 0.7645
C75 C 0.2684(3) 0.3246(2) 0.7120(2)
H52 H 0.3315 0.3032 0.6965
C76 C 0.1547(3) 0.0791(2) 0.02410(19)
Zn6 Zn 0.40363(3) 0.80348(2) 0.872094(18)
Zn8 Zn 0.36145(3) 0.06322(2) 0.695656(18)
Zn9 Zn 0.31222(3) 0.70247(2) 0.133193(18)
Zn11 Zn 0.27045(5) 0.95898(3) 0.95561(2)
N1 N 0.3610(2) 0.00201(15) 0.77339(13)
N2 N 0.2774(2) 0.02136(15) 0.65273(13)
H9 H 0.1928 0.0040 0.7273
N16 N 0.2935(2) 0.09505(16) 0.84910(15)
H12 H 0.2584 0.1182 0.8237
H13 H 0.2599 0.0972 0.8852
C24 C 0.3274(2) 0.02327(18) 0.83301(16)
C37 C 0.2944(2) 0.01092(18) 0.59172(16)
H27 H 0.3456 0.0259 0.5684
O15 O 0.49512(17) 0.05081(13) 0.65765(12)
O1 O 0.14149(18) 0.79778(14) 0.19063(11)
O3 O 0.53778(18) 0.73632(14) 0.76636(12)
O4 O 0.44089(18) 0.64721(13) 0.13907(12)
N4 N 0.3195(2) 0.76660(15) 0.05856(13)
O7 O 0.53972(17) 0.75867(13) 0.86261(12)
C1 C 0.3623(2) 0.74654(18) 0.00089(17)
N5 N 0.3790(2) 0.90307(15) 0.83542(13)
C3 C 0.3908(2) 0.92753(18) 0.77820(16)
O8 O 0.28150(17) 0.74301(14) 0.21496(11)
N9 N 0.3374(2) 0.96717(15) 0.87122(13)
N11 N 0.2489(2) 0.88628(16) 0.10224(15)
H3 H 0.2098 0.9242 0.0902
H4 H 0.2186 0.8620 0.1293
O10 O 0.43757(17) 0.56097(13) 0.07512(12)
N12 N 0.4268(2) 0.88164(16) 0.73021(15)
H5 H 0.4140 0.8393 0.7393
H6 H 0.4010 0.9008 0.6995
C5 C 0.7299(3) 0.6512(2) 0.75636(18)
H8 H 0.6944 0.6356 0.7316
C6 C 0.5796(2) 0.73429(18) 0.80972(18)
N14 N 0.9219(2) 0.41932(15) 0.06577(14)
C8 C 0.2047(2) 0.9983(2) 0.68521(17)
C10 C 0.0360(2) 0.8591(2) 0.37478(16)
C11 C 0.8265(3) 0.62277(19) 0.74802(18)
H14 H 0.8547 0.5869 0.7186
C12 C 0.1613(3) 0.80134(19) 0.29457(16)
C13 C 0.2922(2) 0.84219(18) 0.05338(16)
C14 C 0.0982(2) 0.84333(19) 0.41619(16)
C15 C 0.6850(2) 0.70294(19) 0.80137(16)
C16 C 0.1619(2) 0.95713(19) 0.59672(16)
C18 C 0.0674(3) 0.8373(2) 0.31433(17)
H17 H 0.0252 0.8470 0.2870
C21 C 0.1455(3) 0.9662(2) 0.65926(17)
H20 H 0.0955 0.9509 0.6838
C27 C 0.1915(3) 0.8057(2) 0.39622(18)
H23 H 0.2337 0.7949 0.4235
C29 C 0.8825(2) 0.64652(18) 0.78246(17)
C31 C 0.9864(2) 0.61607(19) 0.77393(16)
C33 C 0.1952(3) 0.77978(19) 0.22886(17)
C34 C 0.0672(2) 0.87385(18) 0.47890(16)
C35 C 0.9437(2) 0.53654(19) 0.09031(17)
H26 H 0.9173 0.5861 0.0996
C38 C 0.7403(3) 0.7256(2) 0.83681(17)
H28 H 0.7116 0.7592 0.8679
C39 C 0.1307(2) 0.89229(19) 0.51007(16)
H29 H 0.1951 0.8804 0.4942
C40 C 0.8364(3) 0.69938(19) 0.82690(16)
H30 H 0.8720 0.7171 0.8503
C43 C 0.0980(2) 0.92868(19) 0.56528(16)
C44 C 0.2406(2) 0.97971(19) 0.56272(16)
H33 H 0.2557 0.9733 0.5207
C46 C 0.0017(2) 0.94457(19) 0.58709(16)
C50 C 0.7824(2) 0.51685(18) 0.08802(17)
C52 C 0.6351(3) 0.5980(2) 0.13302(19)
H37 H 0.6032 0.6366 0.1593
C53 C 0.5847(2) 0.56391(18) 0.10215(16)
C54 C 0.6340(3) 0.50533(19) 0.06373(18)
H38 H 0.6013 0.4823 0.0420
C56 C 0.8860(3) 0.49048(18) 0.08127(17)
C60 C 0.4806(3) 0.59115(19) 0.10616(17)
C63 C 0.7312(2) 0.48134(18) 0.05775(17)
H41 H 0.7630 0.4410 0.0332
H42 H 0.9880 0.1564 0.0762
C65 C 0.9921(3) 0.26492(19) 0.06723(17)
H43 H 0.9300 0.2843 0.0861
C70 C 0.2221(3) 0.7843(2) 0.33606(17)
H47 H 0.2843 0.7581 0.3235
C71 C 0.7328(3) 0.5753(2) 0.12517(18)
H48 H 0.7657 0.5999 0.1454
N20 N 0.3619(2) 0.80223(15) 0.96281(13)
N3 N 0.3970(3) 0.67450(16) 0.98475(15)
H1 H 0.3518 0.6558 0.9783
H2 H 0.4378 0.6726 0.9514
N7 N 0.3156(2) 0.86634(15) 0.99787(13)
O13 O 0.1580(3) 0.92128(19) 0.93189(15)
H15 H 0.1448 0.8770 0.9423
H16 H 0.1152 0.9468 0.9096
C41 C 0.7902(2) 0.0032(2) 0.60949(16)
H31 H 0.8248 0.0329 0.6225
C55 C 0.6936(3) 0.0208(2) 0.62543(16)
H39 H 0.6634 0.0629 0.6482
O11 O 0.2156(2) 0.05878(15) 0.97539(14)
H49 H 0.2343 0.1885 0.9853
C2 C 0.5344(2) 0.9920(2) 0.62738(16)
C4 C 0.6861(2) 0.91551(19) 0.57324(17)
H7 H 0.6515 0.8852 0.5612
O12 O 0.49199(17) 0.94638(14) 0.61586(12)
N13 N 0.9733(2) 0.88941(16) 0.49975(13)
H11 H 0.9734 0.8843 0.3875
C17 C 0.6403(2) 0.9765(2) 0.60805(16)
C19 C 0.7836(2) 0.8989(2) 0.55604(17)
H18 H 0.8136 0.8580 0.5318
C45 C 0.8368(2) 0.94231(19) 0.57440(15)
H34 H 0.9773 0.9685 0.6241
C51 C 0.9416(2) 0.92459(19) 0.55353(16)
C2_2 C 0.4656(2) 0.0080(2) 0.37262(16)
C4_2 C 0.3139(2) 0.08449(19) 0.42676(17)
H7_2 H 0.3485 0.1148 0.4388
O12_2 O 0.50801(17) 0.05362(14) 0.38414(12)
N13_2 N 0.0267(2) 0.11059(16) 0.50025(13)
H11_2 H 0.0266 0.1157 0.6125
C17_2 C 0.3597(2) 0.0235(2) 0.39195(16)
C19_2 C 0.2164(2) 0.1011(2) 0.44396(17)
H18_2 H 0.1864 0.1420 0.4682
C45_2 C 0.1632(2) 0.05769(19) 0.42560(15)
H34_2 H 0.0227 0.0315 0.3759
C51_2 C 0.0584(2) 0.07541(19) 0.44647(16)
O9 O 0.50488(17) 0.94919(13) 0.34235(12)
C41_2 C 0.2098(2) 0.9968(2) 0.39051(16)
H31_2 H 0.1752 0.9671 0.3775
C55_2 C 0.3064(3) 0.9792(2) 0.37457(16)
H39_2 H 0.3366 0.9371 0.3518
Zn7 Zn 0.63855(3) 0.93678(2) 0.304344(18)
Zn4 Zn 0.72955(5) 0.04102(3) 0.04439(2)
N3_2 N 0.6030(3) 0.32550(16) 0.01525(15)
H1_2 H 0.6482 0.3442 0.0217
H2_2 H 0.5622 0.3274 0.0486
N7_2 N 0.6844(2) 0.13366(15) 0.00213(13)
N10 N 0.6381(2) 0.19777(15) 0.03719(13)
O13_2 O 0.8420(3) 0.07872(19) 0.06811(15)
H15_2 H 0.8552 0.1230 0.0577
H16_2 H 0.8848 0.0532 0.0904
Zn5 Zn 0.59637(3) 0.19652(2) 0.127906(18)
N19 N 0.6626(2) 0.03283(15) 0.12878(13)
Zn3 Zn 0.68778(3) 0.29753(2) 0.866807(18)
O1_2 O 0.85851(18) 0.20222(14) 0.80937(11)
O3_2 O 0.46222(18) 0.26368(14) 0.23364(12)
O4_2 O 0.55911(18) 0.35279(13) 0.86093(12)
N4_2 N 0.6805(2) 0.23340(15) 0.94144(13)
O7_2 O 0.46028(17) 0.24133(13) 0.13739(12)
C1_2 C 0.6377(2) 0.25346(18) 0.99911(17)
N5_2 N 0.6210(2) 0.09693(15) 0.16458(13)
C3_2 C 0.6092(2) 0.07247(18) 0.22180(16)
O8_2 O 0.71850(17) 0.25699(14) 0.78504(11)
N11_2 N 0.7511(2) 0.11372(16) 0.89776(15)
H3_2 H 0.7902 0.0758 0.9098
H4_2 H 0.7814 0.1380 0.8707
O10_2 O 0.56243(17) 0.43903(13) 0.92488(12)
N12_2 N 0.5732(2) 0.11836(16) 0.26979(15)
H5_2 H 0.5860 0.1607 0.2607
H6_2 H 0.5990 0.0992 0.3005
C5_2 C 0.2701(3) 0.3488(2) 0.24364(18)
H8_2 H 0.3056 0.3644 0.2684
C6_2 C 0.4204(2) 0.26571(18) 0.19028(18)
N14_2 N 0.0781(2) 0.58068(15) 0.93423(14)
C8_2 C 0.7953(2) 0.0017(2) 0.31479(17)
C10_2 C 0.9640(2) 0.1409(2) 0.62522(16)
C11_2 C 0.1735(3) 0.37723(19) 0.25198(18)
H14_2 H 0.1453 0.4131 0.2814
C12_2 C 0.8387(3) 0.19866(19) 0.70543(16)
C13_2 C 0.7078(2) 0.15781(18) 0.94662(16)
C14_2 C 0.9018(2) 0.15667(19) 0.58381(16)
C15_2 C 0.3150(2) 0.29706(19) 0.19863(16)
C16_2 C 0.8381(2) 0.04287(19) 0.40328(16)
C18_2 C 0.9326(3) 0.1627(2) 0.68567(17)
H17_2 H 0.9748 0.1530 0.7130
C21_2 C 0.8545(3) 0.0338(2) 0.34074(17)
H20_2 H 0.9045 0.0491 0.3162
C27_2 C 0.8085(3) 0.1943(2) 0.60378(18)
H23_2 H 0.7663 0.2051 0.5765
C29_2 C 0.1175(2) 0.35348(18) 0.21754(17)
C31_2 C 0.0136(2) 0.38393(19) 0.22607(16)
C33_2 C 0.8048(3) 0.22022(19) 0.77114(17)
C34_2 C 0.9328(2) 0.12615(18) 0.52110(16)
C35_2 C 0.0563(2) 0.46346(19) 0.90969(17)
H26_2 H 0.0827 0.4139 0.9004
C38_2 C 0.2597(3) 0.2744(2) 0.16319(17)
H28_2 H 0.2884 0.2408 0.1321
C39_2 C 0.8693(2) 0.10771(19) 0.48993(16)
H29_2 H 0.8049 0.1196 0.5058
C40_2 C 0.1636(3) 0.30062(19) 0.17310(16)
H30_2 H 0.1280 0.2829 0.1497
C43_2 C 0.9020(2) 0.07132(19) 0.43472(16)
C44_2 C 0.7594(2) 0.02029(19) 0.43728(16)
H33_2 H 0.7443 0.0267 0.4793
C46_2 C 0.9983(2) 0.05543(19) 0.41291(16)
C50_2 C 0.2176(2) 0.48315(18) 0.91198(17)
C52_2 C 0.3649(3) 0.4020(2) 0.86698(19)
H37_2 H 0.3968 0.3634 0.8407
C53_2 C 0.4153(2) 0.43609(18) 0.89785(16)
C54_2 C 0.3660(3) 0.49467(19) 0.93627(18)
H38_2 H 0.3987 0.5177 0.9580
C56_2 C 0.1140(3) 0.50952(18) 0.91873(17)
C60_2 C 0.5194(3) 0.40885(19) 0.89384(17)
C63_2 C 0.2688(2) 0.51866(18) 0.94225(17)
H41_2 H 0.2370 0.5590 0.9668
H42_2 H 0.0120 0.8436 0.9238
C65_2 C 0.0079(3) 0.73508(19) 0.93277(17)
H43_2 H 0.0700 0.7157 0.9139
C70_2 C 0.7779(3) 0.2157(2) 0.66394(17)
H47_2 H 0.7157 0.2419 0.6765
C71_2 C 0.2672(3) 0.4247(2) 0.87483(18)
H48_2 H 0.2343 0.4001 0.8546
N17 N 0.7785(2) 0.36033(15) 0.87704(13)
N18 N 0.6746(2) 0.25281(15) 0.16439(14)
N1_2 N 0.6390(2) 0.99799(15) 0.22661(13)
N2_2 N 0.7226(2) 0.97864(15) 0.34727(13)
H9_2 H 0.8072 0.9960 0.2727
N16_2 N 0.7065(2) 0.90495(16) 0.15090(15)
H12_2 H 0.7416 0.8818 0.1763
H13_2 H 0.7401 0.9028 0.1148
C24_2 C 0.6726(2) 0.97673(18) 0.16699(16)
C37_2 C 0.7056(2) 0.98908(18) 0.40828(16)
H27_2 H 0.6544 0.9741 0.4316
O14 O 0.67507(18) 0.82885(13) 0.29664(13)
O2_2 O 0.8706(2) 0.96598(14) 0.93652(13)
O5_2 O 0.81466(19) 0.84226(13) 0.25046(13)
C7_2 C 0.7594(3) 0.80355(19) 0.27239(17)
C9_2 C 0.8534(2) 0.33052(19) 0.90415(17)
H10_2 H 0.8650 0.2804 0.9143
N15_2 N 0.9821(2) 0.45482(15) 0.24243(14)
C20_2 C 0.8207(2) 0.47631(19) 0.87319(17)
H19_2 H 0.8073 0.5262 0.8623
C22_2 C 0.7067(3) 0.36620(19) 0.18643(17)
H21_2 H 0.6877 0.4176 0.1876
C23_2 C 0.9135(3) 0.37021(18) 0.91762(17)
H22_2 H 0.9642 0.3476 0.9369
C25_2 C 0.9845(2) 0.60745(18) 0.94089(16)
C26_2 C 0.9490(3) 0.68793(18) 0.95437(16)
C28_2 C 0.9230(2) 0.56545(18) 0.93104(16)
H24_2 H 0.8583 0.5863 0.9354
C30_2 C 0.7639(2) 0.43136(19) 0.86091(17)
H25_2 H 0.7138 0.4519 0.8406
C32_2 C 0.8969(2) 0.44641(18) 0.90164(16)
C36_2 C 0.8561(2) 0.37170(19) 0.22098(16)
C42_2 C 0.7535(3) 0.21699(19) 0.18463(18)
H32_2 H 0.7684 0.1655 0.1854
C47_2 C 0.9595(3) 0.49192(18) 0.91466(16)
C48_2 C 0.9528(2) 0.34214(19) 0.21496(16)
H35_2 H 0.9774 0.2932 0.2032
C49_2 C 0.8248(2) 0.44539(18) 0.23913(17)
H36_2 H 0.7604 0.4677 0.2451
C57_2 C 0.8134(3) 0.25260(19) 0.20428(18)
H40_2 H 0.8682 0.2253 0.2171
C58_2 C 0.7920(3) 0.33006(19) 0.20495(17)
C59_2 C 0.7938(3) 0.71964(19) 0.26956(17)
C61_2 C 0.8573(2) 0.5664(2) 0.25961(18)
C62_2 C 0.8876(3) 0.48574(19) 0.24843(17)
C64_2 C 0.9737(3) 0.81162(19) 0.93942(18)
C66_2 C 0.8586(3) 0.7169(2) 0.98478(18)
H44_2 H 0.8192 0.6856 0.9998
C67_2 C 0.8823(3) 0.8391(2) 0.96952(18)
C68_2 C 0.9185(3) 0.6114(2) 0.24309(19)
H45_2 H 0.9821 0.5904 0.2287
C69_2 C 0.6510(2) 0.3273(2) 0.16673(17)
H46_2 H 0.5949 0.3530 0.1545
C72_2 C 0.8261(3) 0.7924(2) 0.99303(18)
C73_2 C 0.7619(3) 0.5994(2) 0.2837(2)
H50_2 H 0.7195 0.5699 0.2967
C74_2 C 0.8875(3) 0.6874(2) 0.24747(19)
H51_2 H 0.9301 0.7170 0.2355
C75_2 C 0.7316(3) 0.6754(2) 0.2880(2)
H52_2 H 0.6685 0.6968 0.3035
C76_2 C 0.8453(3) 0.9209(2) 0.97590(19)
O16 O 0.7844(2) 0.94122(15) 0.02461(14)
H49_2 H 0.7657 0.8115 0.0147
loop_
_geom_bond_atom_site_label_1
_geom_bond_atom_site_label_2
_geom_bond_site_symmetry_1
_geom_bond_site_symmetry_2
O2 C76 1_555 1_555
O5 C7 1_555 1_555
O6 C7 1_555 1_555
N6 C9 1_555 1_555
N8 C42 1_555 1_555
C7 C59 1_555 1_555
C9 H10 1_555 1_555
C20 H19 1_555 1_555
C22 H21 1_555 1_555
C23 C9 1_555 1_555
H22 C23 1_555 1_555
C25 C26 1_555 1_555
C28 C25 1_555 1_555
H24 C28 1_555 1_555
C30 N6 1_555 1_555
H25 C30 1_555 1_555
C32 C20 1_555 1_555
C36 C48 1_555 1_555
C42 H32 1_555 1_555
C47 C28 1_555 1_555
H35 C48 1_555 1_555
C49 C36 1_555 1_555
H36 C49 1_555 1_555
C57 C42 1_555 1_555
H40 C57 1_555 1_555
C58 C22 1_555 1_555
C59 C74 1_555 1_555
C61 C62 1_555 1_555
C62 N15 1_555 1_555
C66 C26 1_555 1_555
H44 C66 1_555 1_555
C67 C64 1_555 1_555
C68 C61 1_555 1_555
H45 C68 1_555 1_555
C69 N8 1_555 1_555
H46 C69 1_555 1_555
C72 C66 1_555 1_555
C73 C61 1_555 1_555
H50 C73 1_555 1_555
C74 C68 1_555 1_555
H51 C74 1_555 1_555
C75 C59 1_555 1_555
H52 C75 1_555 1_555
C76 C67 1_555 1_555
Zn6 N8 1_555 1_555
Zn8 O6 1_555 1_555
Zn9 N6 1_555 1_555
C20 C30 1_555 1_555
C22 C69 1_555 1_555
C23 C32 1_555 1_555
C32 C47 1_555 1_555
C36 C58 1_555 1_555
C49 C62 1_555 1_555
C57 C58 1_555 1_555
C67 C72 1_555 1_555
C73 C75 1_555 1_555
Zn8 N1 1_555 1_555
N2 Zn8 1_555 1_555
N16 H12 1_555 1_555
H13 N16 1_555 1_555
C24 N1 1_555 1_555
C37 N2 1_555 1_555
H27 C37 1_555 1_555
O15 Zn8 1_555 1_555
N16 C24 1_555 1_555
Zn6 O7 1_555 1_555
Zn9 O4 1_555 1_555
O1 C33 1_555 1_555
O3 C6 1_555 1_555
O4 C60 1_555 1_555
N4 Zn9 1_555 1_555
O7 C6 1_555 1_555
N5 Zn6 1_555 1_555
C3 N5 1_555 1_555
O8 Zn9 1_555 1_555
N9 N5 1_555 1_555
N11 H3 1_555 1_555
H4 N11 1_555 1_555
O10 C60 1_555 1_555
N12 C3 1_555 1_555
H5 N12 1_555 1_555
H6 N12 1_555 1_555
C5 H8 1_555 1_555
C6 C15 1_555 1_555
C11 C5 1_555 1_555
H14 C11 1_555 1_555
C12 C18 1_555 1_555
C13 N4 1_555 1_555
C14 C10 1_555 1_555
C15 C5 1_555 1_555
C16 C21 1_555 1_555
C18 C10 1_555 1_555
H17 C18 1_555 1_555
C21 C8 1_555 1_555
H20 C21 1_555 1_555
C27 C14 1_555 1_555
H23 C27 1_555 1_555
C29 C11 1_555 1_555
C31 C29 1_555 1_555
C33 O8 1_555 1_555
C34 C14 1_555 1_555
C35 H26 1_555 1_555
C38 C15 1_555 1_555
H28 C38 1_555 1_555
C39 C34 1_555 1_555
H29 C39 1_555 1_555
C40 C29 1_555 1_555
H30 C40 1_555 1_555
C43 C16 1_555 1_555
C44 C16 1_555 1_555
H33 C44 1_555 1_555
C46 C43 1_555 1_555
C50 C56 1_555 1_555
C52 H37 1_555 1_555
C53 C52 1_555 1_555
C54 C53 1_555 1_555
H38 C54 1_555 1_555
C56 N14 1_555 1_555
C60 C53 1_555 1_555
C63 C50 1_555 1_555
H41 C63 1_555 1_555
H43 C65 1_555 1_555
C70 C12 1_555 1_555
H47 C70 1_555 1_555
C71 C50 1_555 1_555
H48 C71 1_555 1_555
Zn11 N9 1_555 1_555
N20 Zn6 1_555 1_555
N4 C1 1_555 1_555
N11 C13 1_555 1_555
C12 C33 1_555 1_555
C27 C70 1_555 1_555
C35 C56 1_555 1_555
C38 C40 1_555 1_555
C39 C43 1_555 1_555
C52 C71 1_555 1_555
C54 C63 1_555 1_555
Zn11 N7 1_555 1_555
N3 H1 1_555 1_555
H2 N3 1_555 1_555
N7 N20 1_555 1_555
O13 Zn11 1_555 1_555
H15 O13 1_555 1_555
H16 O13 1_555 1_555
C41 H31 1_555 1_555
H39 C55 1_555 1_555
C41 C55 1_555 1_555
C4 H7 1_555 1_555
O12 C2 1_555 1_555
C17 C2 1_555 1_555
C19 C4 1_555 1_555
H18 C19 1_555 1_555
C45 C19 1_555 1_555
C51 N13 1_555 1_555
C4 C17 1_555 1_555
C45 C51 1_555 1_555
C4_2 H7_2 1_555 1_555
O12_2 C2_2 1_555 1_555
C17_2 C2_2 1_555 1_555
C19_2 C4_2 1_555 1_555
H18_2 C19_2 1_555 1_555
C45_2 C19_2 1_555 1_555
C51_2 N13_2 1_555 1_555
C4_2 C17_2 1_555 1_555
C45_2 C51_2 1_555 1_555
O9 Zn7 1_555 1_555
C41_2 H31_2 1_555 1_555
H39_2 C55_2 1_555 1_555
C41_2 C55_2 1_555 1_555
Zn4 N7_2 1_555 1_555
N3_2 H1_2 1_555 1_555
H2_2 N3_2 1_555 1_555
N7_2 N10 1_555 1_555
O13_2 Zn4 1_555 1_555
H15_2 O13_2 1_555 1_555
H16_2 O13_2 1_555 1_555
Zn5 N10 1_555 1_555
N19 Zn4 1_555 1_555
Zn5 O7_2 1_555 1_555
Zn3 O4_2 1_555 1_555
O1_2 C33_2 1_555 1_555
O3_2 C6_2 1_555 1_555
O4_2 C60_2 1_555 1_555
N4_2 Zn3 1_555 1_555
O7_2 C6_2 1_555 1_555
N5_2 Zn5 1_555 1_555
C3_2 N5_2 1_555 1_555
O8_2 Zn3 1_555 1_555
N19 N5_2 1_555 1_555
N11_2 H3_2 1_555 1_555
H4_2 N11_2 1_555 1_555
O10_2 C60_2 1_555 1_555
N12_2 C3_2 1_555 1_555
H5_2 N12_2 1_555 1_555
H6_2 N12_2 1_555 1_555
C5_2 H8_2 1_555 1_555
C6_2 C15_2 1_555 1_555
C11_2 C5_2 1_555 1_555
H14_2 C11_2 1_555 1_555
C12_2 C18_2 1_555 1_555
C13_2 N4_2 1_555 1_555
C14_2 C10_2 1_555 1_555
C15_2 C5_2 1_555 1_555
C16_2 C21_2 1_555 1_555
C18_2 C10_2 1_555 1_555
H17_2 C18_2 1_555 1_555
C21_2 C8_2 1_555 1_555
H20_2 C21_2 1_555 1_555
C27_2 C14_2 1_555 1_555
H23_2 C27_2 1_555 1_555
C29_2 C11_2 1_555 1_555
C31_2 C29_2 1_555 1_555
C33_2 O8_2 1_555 1_555
C34_2 C14_2 1_555 1_555
C35_2 H26_2 1_555 1_555
C38_2 C15_2 1_555 1_555
H28_2 C38_2 1_555 1_555
C39_2 C34_2 1_555 1_555
H29_2 C39_2 1_555 1_555
C40_2 C29_2 1_555 1_555
H30_2 C40_2 1_555 1_555
C43_2 C16_2 1_555 1_555
C44_2 C16_2 1_555 1_555
H33_2 C44_2 1_555 1_555
C46_2 C43_2 1_555 1_555
C50_2 C56_2 1_555 1_555
C52_2 H37_2 1_555 1_555
C53_2 C52_2 1_555 1_555
C54_2 C53_2 1_555 1_555
H38_2 C54_2 1_555 1_555
C56_2 N14_2 1_555 1_555
C60_2 C53_2 1_555 1_555
C63_2 C50_2 1_555 1_555
H41_2 C63_2 1_555 1_555
H43_2 C65_2 1_555 1_555
C70_2 C12_2 1_555 1_555
H47_2 C70_2 1_555 1_555
C71_2 C50_2 1_555 1_555
H48_2 C71_2 1_555 1_555
N17 Zn3 1_555 1_555
N18 Zn5 1_555 1_555
N4_2 C1_2 1_555 1_555
N11_2 C13_2 1_555 1_555
C12_2 C33_2 1_555 1_555
C27_2 C70_2 1_555 1_555
C35_2 C56_2 1_555 1_555
C38_2 C40_2 1_555 1_555
C39_2 C43_2 1_555 1_555
C52_2 C71_2 1_555 1_555
C54_2 C63_2 1_555 1_555
Zn7 N1_2 1_555 1_555
N2_2 Zn7 1_555 1_555
N16_2 H12_2 1_555 1_555
H13_2 N16_2 1_555 1_555
C24_2 N1_2 1_555 1_555
C37_2 N2_2 1_555 1_555
H27_2 C37_2 1_555 1_555
O14 Zn7 1_555 1_555
N16_2 C24_2 1_555 1_555
O2_2 C76_2 1_555 1_555
O5_2 C7_2 1_555 1_555
O14 C7_2 1_555 1_555
N17 C9_2 1_555 1_555
N18 C42_2 1_555 1_555
C7_2 C59_2 1_555 1_555
C9_2 H10_2 1_555 1_555
C20_2 H19_2 1_555 1_555
C22_2 H21_2 1_555 1_555
C23_2 C9_2 1_555 1_555
H22_2 C23_2 1_555 1_555
C25_2 C26_2 1_555 1_555
C28_2 C25_2 1_555 1_555
H24_2 C28_2 1_555 1_555
C30_2 N17 1_555 1_555
H25_2 C30_2 1_555 1_555
C32_2 C20_2 1_555 1_555
C36_2 C48_2 1_555 1_555
C42_2 H32_2 1_555 1_555
C47_2 C28_2 1_555 1_555
H35_2 C48_2 1_555 1_555
C49_2 C36_2 1_555 1_555
H36_2 C49_2 1_555 1_555
C57_2 C42_2 1_555 1_555
H40_2 C57_2 1_555 1_555
C58_2 C22_2 1_555 1_555
C59_2 C74_2 1_555 1_555
C61_2 C62_2 1_555 1_555
C62_2 N15_2 1_555 1_555
C66_2 C26_2 1_555 1_555
H44_2 C66_2 1_555 1_555
C67_2 C64_2 1_555 1_555
C68_2 C61_2 1_555 1_555
H45_2 C68_2 1_555 1_555
C69_2 N18 1_555 1_555
H46_2 C69_2 1_555 1_555
C72_2 C66_2 1_555 1_555
C73_2 C61_2 1_555 1_555
H50_2 C73_2 1_555 1_555
C74_2 C68_2 1_555 1_555
H51_2 C74_2 1_555 1_555
C75_2 C59_2 1_555 1_555
H52_2 C75_2 1_555 1_555
C76_2 C67_2 1_555 1_555
C20_2 C30_2 1_555 1_555
C22_2 C69_2 1_555 1_555
C23_2 C32_2 1_555 1_555
C32_2 C47_2 1_555 1_555
C36_2 C58_2 1_555 1_555
C49_2 C62_2 1_555 1_555
C57_2 C58_2 1_555 1_555
C67_2 C72_2 1_555 1_555
C73_2 C75_2 1_555 1_555

#END
