
###############################################################################
#
# This file contains modified crystal structure data generated from the
# MOF subset of the Cambridge Structural Database (CSD) v543 
# hosted by the Cambridge Crystallographic Data Centre (CCDC).
#
# This work is licensed under the Creative Commons
# Attribution-NonCommercial-ShareAlike 4.0 International License.
# To view a copy of this license, visit
# http://creativecommons.org/licenses/by-nc-sa/4.0/
# or send a letter to
# Creative Commons, PO Box 1866, Mountain View, CA 94042, USA.
#
# CIF created using the CSD Python API on 29 September 2022
# The structure has been converted into the P1 space group
# The structure has a 3D framework
# The original CSD entry RUHCED is in the monoclinic crystal system
# The framework has been calculated to contain at least 10.0% void space
# The void calculation uses a probe of radius 1.32A, grid spacing 0.4
#
###############################################################################

data_RUHCED
_chemical_formula_moiety         '(C32 H16 Ga6 O19)n'
_symmetry_cell_setting           triclinic
_symmetry_space_group_name_H-M   'P 1'
_symmetry_Int_Tables_number      1
_space_group_name_Hall           'P 1'
loop_
_symmetry_equiv_pos_site_id
_symmetry_equiv_pos_as_xyz
1 x,y,z
_cell_length_a                   6.7120(4)
_cell_length_b                   11.2486(11)
_cell_length_c                   17.9650(16)
_cell_angle_alpha                90
_cell_angle_beta                 91.975(7)
_cell_angle_gamma                90
_cell_volume                     1355.56
loop_
_atom_site_label
_atom_site_type_symbol
_atom_site_fract_x
_atom_site_fract_y
_atom_site_fract_z
Ga1 Ga 0.5000 -0.0000 0.5000
O1 O 0.2500 0.0769(6) 0.5000
Ga4 Ga 0.0000 -0.0000 0.5000
O6 O 0.6056(9) 0.1215(6) 0.5725(3)
O9 O 0.5698(9) 0.0980(6) 0.4125(3)
Ga1_2 Ga 0.5000 1.0000 0.5000
O2 O 0.3944(9) 0.8785(6) 0.4275(3)
C1 C 0.2380(11) 0.8692(7) 0.3946(4)
C2 C 0.2403(12) 0.8030(7) 0.3187(3)
C3 C 0.0716(11) 0.7834(9) 0.2778(5)
C4 C 0.0806(11) 0.7286(9) 0.2082(4)
O3 O 0.4302(9) 0.5980(6) 0.0875(3)
H1 H 0.5546(13) 0.790(2) 0.3237(8)
H2 H 0.5697(13) 0.689(2) 0.2018(10)
Ga2 Ga 0.0000 0.5000 0.0000
Ga3 Ga 0.5000 0.5000 0.0000
Ga4_2 Ga 0.0000 1.0000 0.5000
O4 O 0.7500 0.9231(6) 0.5000
O5 O 0.1056(9) 0.6215(6) 0.0725(3)
C5 C 0.2620(11) 0.6308(7) 0.1054(4)
C6 C 0.2597(12) 0.6970(7) 0.1813(3)
C7 C 0.4284(11) 0.7166(9) 0.2222(5)
C8 C 0.4194(11) 0.7714(9) 0.2918(4)
O7 O 0.0698(9) 0.9020(6) 0.4125(3)
O8 O 0.4302(9) 0.9020(6) 0.5875(3)
Ga2_2 Ga 0.0000 0.5000 1.0000
Ga3_2 Ga 0.5000 0.5000 1.0000
Ga4_3 Ga 1.0000 -0.0000 0.5000
Ga2_3 Ga 1.0000 0.5000 0.0000
Ga4_4 Ga 1.0000 1.0000 0.5000
H3 H 0.9454(13) 0.710(2) 0.1763(8)
H4 H 0.9303(13) 0.811(2) 0.2982(10)
Ga2_4 Ga 1.0000 0.5000 1.0000
O2_2 O 0.1056(9) 0.8785(6) 0.5725(3)
C1_2 C 0.2620(11) 0.8692(7) 0.6054(4)
C2_2 C 0.2597(12) 0.8030(7) 0.6813(3)
C3_2 C 0.4284(11) 0.7834(9) 0.7222(5)
C4_2 C 0.4194(11) 0.7286(9) 0.7918(4)
O3_2 O 0.0698(9) 0.5980(6) 0.9125(3)
O5_2 O 0.3944(9) 0.6215(6) 0.9275(3)
C5_2 C 0.2380(11) 0.6308(7) 0.8946(4)
C6_2 C 0.2403(12) 0.6970(7) 0.8187(3)
C7_2 C 0.0716(11) 0.7166(9) 0.7778(5)
C8_2 C 0.0806(11) 0.7714(9) 0.7082(4)
H3_2 H 0.5546(13) 0.710(2) 0.8237(8)
H4_2 H 0.5697(13) 0.811(2) 0.7018(10)
O6_2 O 0.8944(9) 0.1215(6) 0.4275(3)
O9_2 O 0.9302(9) 0.0980(6) 0.5875(3)
H1_2 H 0.9454(13) 0.790(2) 0.6763(8)
H2_2 H 0.9303(13) 0.689(2) 0.7982(10)
O4_2 O 0.2500 0.4231(6) -0.0000
H1_3 H 0.0546(13) 0.290(2) 0.8237(8)
H2_3 H 0.0697(13) 0.189(2) 0.7018(10)
O4_3 O 0.2500 0.4231(6) 1.0000
O1_2 O 0.7500 0.5769(6) -0.0000
O8_2 O 0.9302(9) 0.4020(6) 0.0875(3)
O1_3 O 0.7500 0.5769(6) 1.0000
O2_3 O 0.8944(9) 0.3785(6) 0.9275(3)
C1_3 C 0.7380(11) 0.3692(7) 0.8946(4)
C2_3 C 0.7403(12) 0.3030(7) 0.8187(3)
C3_3 C 0.5716(11) 0.2834(9) 0.7778(5)
C4_3 C 0.5806(11) 0.2286(9) 0.7082(4)
C5_3 C 0.7620(11) 0.1308(7) 0.6054(4)
C6_3 C 0.7597(12) 0.1970(7) 0.6813(3)
C7_3 C 0.9284(11) 0.2166(9) 0.7222(5)
C8_3 C 0.9194(11) 0.2714(9) 0.7918(4)
O7_2 O 0.5698(9) 0.4020(6) 0.9125(3)
H3_3 H 0.4454(13) 0.210(2) 0.6763(8)
H4_3 H 0.4303(13) 0.311(2) 0.7982(10)
H3_4 H 0.0546(13) 0.210(2) 0.3237(8)
H4_4 H 0.0697(13) 0.311(2) 0.2018(10)
O2_4 O 0.6056(9) 0.3785(6) 0.0725(3)
C1_4 C 0.7620(11) 0.3692(7) 0.1054(4)
C2_4 C 0.7597(12) 0.3030(7) 0.1813(3)
C3_4 C 0.9284(11) 0.2834(9) 0.2222(5)
C4_4 C 0.9194(11) 0.2286(9) 0.2918(4)
H1_4 H 0.4454(13) 0.290(2) 0.1763(8)
H2_4 H 0.4303(13) 0.189(2) 0.2982(10)
C5_4 C 0.7380(11) 0.1308(7) 0.3946(4)
C6_4 C 0.7403(12) 0.1970(7) 0.3187(3)
C7_4 C 0.5716(11) 0.2166(9) 0.2778(5)
C8_4 C 0.5806(11) 0.2714(9) 0.2082(4)
loop_
_geom_bond_atom_site_label_1
_geom_bond_atom_site_label_2
_geom_bond_site_symmetry_1
_geom_bond_site_symmetry_2
Ga1 O1 1_555 1_555
O1 Ga4 1_555 1_555
O6 Ga1 1_555 1_555
O9 Ga1 1_555 1_555
O2 Ga1_2 1_555 1_555
C1 O2 1_555 1_555
C2 C1 1_555 1_555
C3 C2 1_555 1_555
C4 C3 1_555 1_555
O3 Ga3 1_555 1_555
H1 C8 1_555 1_555
H2 C7 1_555 1_555
Ga2 O5 1_555 1_555
Ga4_2 O7 1_555 1_555
O4 Ga1_2 1_555 1_555
O5 C5 1_555 1_555
C5 O3 1_555 1_555
C6 C4 1_555 1_555
C7 C6 1_555 1_555
C8 C2 1_555 1_555
O7 C1 1_555 1_555
O8 Ga1_2 1_555 1_555
C5 C6 1_555 1_555
C7 C8 1_555 1_555
O2_2 Ga4_2 1_555 1_555
C1_2 O2_2 1_555 1_555
C2_2 C1_2 1_555 1_555
C3_2 C2_2 1_555 1_555
C4_2 C3_2 1_555 1_555
O3_2 Ga2_2 1_555 1_555
Ga3_2 O5_2 1_555 1_555
O5_2 C5_2 1_555 1_555
C5_2 O3_2 1_555 1_555
C6_2 C4_2 1_555 1_555
C7_2 C6_2 1_555 1_555
C8_2 C2_2 1_555 1_555
O8 C1_2 1_555 1_555
H3_2 C4_2 1_555 1_555
H4_2 C3_2 1_555 1_555
C5_2 C6_2 1_555 1_555
C7_2 C8_2 1_555 1_555
O6_2 Ga4_3 1_555 1_555
O9_2 Ga4_3 1_555 1_555
O4 Ga4_4 1_555 1_555
O4_2 Ga2 1_555 1_555
O4_3 Ga2_2 1_555 1_555
Ga2_3 O1_2 1_555 1_555
O1_2 Ga3 1_555 1_555
O8_2 Ga2_3 1_555 1_555
Ga2_4 O1_3 1_555 1_555
O1_3 Ga3_2 1_555 1_555
O2_3 Ga2_4 1_555 1_555
C1_3 O2_3 1_555 1_555
C2_3 C1_3 1_555 1_555
C3_3 C2_3 1_555 1_555
C4_3 C3_3 1_555 1_555
Ga3_2 O7_2 1_555 1_555
O6 C5_3 1_555 1_555
C5_3 O9_2 1_555 1_555
C6_3 C4_3 1_555 1_555
C7_3 C6_3 1_555 1_555
C8_3 C2_3 1_555 1_555
O7_2 C1_3 1_555 1_555
H3_3 C4_3 1_555 1_555
H4_3 C3_3 1_555 1_555
C5_3 C6_3 1_555 1_555
C7_3 C8_3 1_555 1_555
O2_4 Ga3 1_555 1_555
C1_4 O2_4 1_555 1_555
C2_4 C1_4 1_555 1_555
C3_4 C2_4 1_555 1_555
C4_4 C3_4 1_555 1_555
H1_4 C8_4 1_555 1_555
H2_4 C7_4 1_555 1_555
O4_2 Ga3 1_555 1_555
O6_2 C5_4 1_555 1_555
C5_4 O9 1_555 1_555
C6_4 C4_4 1_555 1_555
C7_4 C6_4 1_555 1_555
C8_4 C2_4 1_555 1_555
O8_2 C1_4 1_555 1_555
C5_4 C6_4 1_555 1_555
C7_4 C8_4 1_555 1_555
O4_3 Ga3_2 1_555 1_555

#END
