
###############################################################################
#
# This file contains modified crystal structure data generated from the
# MOF subset of the Cambridge Structural Database (CSD) v543 
# hosted by the Cambridge Crystallographic Data Centre (CCDC).
#
# This work is licensed under the Creative Commons
# Attribution-NonCommercial-ShareAlike 4.0 International License.
# To view a copy of this license, visit
# http://creativecommons.org/licenses/by-nc-sa/4.0/
# or send a letter to
# Creative Commons, PO Box 1866, Mountain View, CA 94042, USA.
#
# CIF created using the CSD Python API on 29 September 2022
# The structure has been converted into the P1 space group
# The structure has a 3D framework
# The original CSD entry RUJGOT is in the monoclinic crystal system
# The framework has been calculated to contain at least 10.0% void space
# The void calculation uses a probe of radius 1.32A, grid spacing 0.4
# H atom positions have been added when not included in the experimental data
# Generated hydrogen atom positions removed from atoms on special positions
#
###############################################################################

data_RUJGOT
_chemical_formula_moiety         '(C56 H64 Mn10 N8 O48)n'
_symmetry_cell_setting           triclinic
_symmetry_space_group_name_H-M   'P 1'
_symmetry_Int_Tables_number      1
_space_group_name_Hall           'P 1'
loop_
_symmetry_equiv_pos_site_id
_symmetry_equiv_pos_as_xyz
1 x,y,z
_cell_length_a                   17.334(3)
_cell_length_b                   11.183(2)
_cell_length_c                   11.418(2)
_cell_angle_alpha                90
_cell_angle_beta                 95.96(3)
_cell_angle_gamma                90
_cell_volume                     2201.37
loop_
_atom_site_label
_atom_site_type_symbol
_atom_site_fract_x
_atom_site_fract_y
_atom_site_fract_z
O1 O 0.30252(13) 0.0493(2) 0.4751(2)
N1 N 0.25704(15) 0.0320(2) 0.5612(2)
C4 C 0.2490(2) 0.1205(3) 0.6397(3)
H3 H 0.2776(19) 0.190(3) 0.625(3)
C5 C 0.2033(2) 0.1033(3) 0.7291(3)
H4 H 0.1996(19) 0.170(3) 0.787(3)
O16 O 0.47507(13) 0.1057(2) 0.56035(19)
O21 O 0.41435(12) 0.00855(19) 0.29669(17)
Mn5 Mn 0.08880(3) 0.45209(4) 0.01489(4)
Mn1 Mn 0.0000 0.62974(6) 0.7500
Mn2 Mn 0.41120(3) 0.95209(4) 0.48511(4)
O2 O 0.14298(13) 0.7148(2) 0.58004(19)
O3 O 0.08423(13) 0.7739(2) 0.73638(18)
O4 O 0.10275(15) 0.3597(2) 0.84929(19)
O5 O 0.02493(13) 0.6057(2) 0.93965(19)
H1 H 0.040(2) 0.661(3) 0.961(3)
O6 O 0.08565(12) 0.49145(19) 0.70331(17)
C1 C 0.12926(17) 0.7889(3) 0.6579(3)
C2 C 0.17166(18) 0.9073(3) 0.6565(3)
C3 C 0.21922(18) 0.9272(3) 0.5682(3)
H2 H 0.2277(17) 0.868(3) 0.508(3)
C6 C 0.1644(2) 0.9969(3) 0.7385(3)
H5 H 0.1308(19) 0.983(3) 0.800(3)
C7 C 0.1054(2) 0.3931(3) 0.7454(3)
H6 H 0.119(2) 0.327(4) 0.690(3)
Mn4 Mn 0.08880(3) 0.54791(4) 0.51489(4)
O9 O 0.35702(13) 0.7852(2) 0.41996(19)
O13 O 0.39725(15) 0.8597(2) 0.65071(19)
O17 O 0.52493(13) 0.8943(2) 0.43965(19)
O7 O 0.69748(13) 0.0493(2) 0.0249(2)
O22 O 0.58565(12) 0.00855(19) 0.20331(17)
O18 O 0.52493(13) 0.1057(2) 0.93965(19)
N2 N 0.74296(15) 0.0320(2) 0.9388(2)
C11 C 0.7510(2) 0.1205(3) 0.8603(3)
H13 H 0.7224(19) 0.190(3) 0.875(3)
C12 C 0.7967(2) 0.1033(3) 0.7709(3)
H14 H 0.8004(19) 0.170(3) 0.713(3)
Mn3 Mn 0.58880(3) 0.95209(4) 0.01489(4)
O10 O 0.64298(13) 0.7852(2) 0.08004(19)
O19 O 0.47507(13) 0.8943(2) 0.06035(19)
Mn1_2 Mn 1.0000 0.62974(6) 0.7500
Mn6 Mn 0.91120(3) 0.54791(4) 0.98511(4)
Mn7 Mn 0.91120(3) 0.45209(4) 0.48511(4)
O8 O 0.85702(13) 0.7148(2) 0.91996(19)
O11 O 0.91577(13) 0.7739(2) 0.76362(18)
O12 O 0.89725(15) 0.3597(2) 0.65071(19)
O14 O 0.60275(15) 0.8597(2) 0.84929(19)
O15 O 0.97507(13) 0.6057(2) 0.56035(19)
H7 H 0.960(2) 0.661(3) 0.539(3)
O20 O 0.91435(12) 0.49145(19) 0.79669(17)
C8 C 0.87074(17) 0.7889(3) 0.8421(3)
C9 C 0.82834(18) 0.9073(3) 0.8435(3)
C10 C 0.78078(18) 0.9272(3) 0.9318(3)
H12 H 0.7723(17) 0.868(3) 0.992(3)
C13 C 0.8356(2) 0.9969(3) 0.7615(3)
H15 H 0.8692(19) 0.983(3) 0.700(3)
C14 C 0.8946(2) 0.3931(3) 0.7546(3)
H16 H 0.881(2) 0.327(4) 0.810(3)
O17_2 O 0.02493(13) 0.3943(2) 0.43965(19)
H9 H 0.040(2) 0.339(3) 0.461(3)
H18 H 0.0627957 0.456782 0.469063
H20 H 0.0296079 0.599312 0.541687
O7_2 O 0.19748(13) 0.5493(2) 0.0249(2)
O10_2 O 0.14298(13) 0.2852(2) 0.08004(19)
O22_2 O 0.08565(12) 0.50855(19) 0.20331(17)
Mn1_3 Mn 0.5000 0.12974(6) 0.7500
O1_2 O 0.80252(13) 0.5493(2) 0.4751(2)
O2_2 O 0.64298(13) 0.2148(2) 0.58004(19)
O3_2 O 0.58423(13) 0.2739(2) 0.73638(18)
N1_2 N 0.75704(15) 0.5320(2) 0.5612(2)
C1_2 C 0.62926(17) 0.2889(3) 0.6579(3)
C2_2 C 0.67166(18) 0.4073(3) 0.6565(3)
C3_2 C 0.71922(18) 0.4272(3) 0.5682(3)
H2_2 H 0.7277(17) 0.368(3) 0.508(3)
C4_2 C 0.7490(2) 0.6205(3) 0.6397(3)
H3_2 H 0.7776(19) 0.690(3) 0.625(3)
C5_2 C 0.7033(2) 0.6033(3) 0.7291(3)
H4_2 H 0.6996(19) 0.670(3) 0.787(3)
C6_2 C 0.6644(2) 0.4969(3) 0.7385(3)
H5_2 H 0.6308(19) 0.483(3) 0.800(3)
Mn4_2 Mn 0.58880(3) 0.04791(4) 0.51489(4)
Mn6_2 Mn 0.41120(3) 0.04791(4) 0.98511(4)
O8_2 O 0.35702(13) 0.2148(2) 0.91996(19)
O9_2 O 0.85702(13) 0.2852(2) 0.41996(19)
O11_2 O 0.41577(13) 0.2739(2) 0.76362(18)
O21_2 O 0.91435(12) 0.50855(19) 0.29669(17)
N2_2 N 0.24296(15) 0.5320(2) 0.9388(2)
C8_2 C 0.37074(17) 0.2889(3) 0.8421(3)
C9_2 C 0.32834(18) 0.4073(3) 0.8435(3)
C10_2 C 0.28078(18) 0.4272(3) 0.9318(3)
H12_2 H 0.2723(17) 0.368(3) 0.992(3)
C11_2 C 0.2510(2) 0.6205(3) 0.8603(3)
H13_2 H 0.2224(19) 0.690(3) 0.875(3)
C12_2 C 0.2967(2) 0.6033(3) 0.7709(3)
H14_2 H 0.3004(19) 0.670(3) 0.713(3)
C13_2 C 0.3356(2) 0.4969(3) 0.7615(3)
H15_2 H 0.3692(19) 0.483(3) 0.700(3)
O6_2 O 0.58565(12) 0.99145(19) 0.70331(17)
C7_2 C 0.6054(2) 0.8931(3) 0.7454(3)
H6_2 H 0.619(2) 0.827(4) 0.690(3)
O20_2 O 0.41435(12) 0.99145(19) 0.79669(17)
C14_2 C 0.3946(2) 0.8931(3) 0.7546(3)
H16_2 H 0.381(2) 0.827(4) 0.810(3)
O19_2 O 0.97507(13) 0.3943(2) 0.06035(19)
H11 H 0.960(2) 0.339(3) 0.039(3)
H19 H 0.937204 0.456782 0.0309371
Mn1_4 Mn 0.0000 0.37026(6) 0.2500
O11_3 O 0.08423(13) 0.2261(2) 0.23638(18)
O12_2 O 0.10275(15) 0.6403(2) 0.34929(19)
O14_2 O 0.39725(15) 0.1403(2) 0.15071(19)
C8_3 C 0.12926(17) 0.2111(3) 0.1579(3)
C9_3 C 0.17166(18) 0.0927(3) 0.1565(3)
C10_3 C 0.21922(18) 0.0728(3) 0.0682(3)
H12_3 H 0.2277(17) 0.132(3) 0.008(3)
C13_3 C 0.1644(2) 0.0031(3) 0.2385(3)
H15_3 H 0.1308(19) 0.017(3) 0.300(3)
C14_3 C 0.1054(2) 0.6069(3) 0.2454(3)
H16_3 H 0.119(2) 0.673(4) 0.190(3)
N2_3 N 0.25704(15) 0.9680(2) 0.0612(2)
C11_3 C 0.2490(2) 0.8795(3) 0.1397(3)
H13_3 H 0.2776(19) 0.810(3) 0.125(3)
C12_3 C 0.2033(2) 0.8967(3) 0.2291(3)
H14_3 H 0.1996(19) 0.830(3) 0.287(3)
O7_3 O 0.30252(13) 0.9507(2) 0.9751(2)
Mn1_5 Mn 1.0000 0.37026(6) 0.2500
O3_3 O 0.91577(13) 0.2261(2) 0.26362(18)
O4_2 O 0.89725(15) 0.6403(2) 0.15071(19)
C1_3 C 0.87074(17) 0.2111(3) 0.3421(3)
C2_3 C 0.82834(18) 0.0927(3) 0.3435(3)
C3_3 C 0.78078(18) 0.0728(3) 0.4318(3)
H2_3 H 0.7723(17) 0.132(3) 0.492(3)
C6_3 C 0.8356(2) 0.0031(3) 0.2615(3)
H5_3 H 0.8692(19) 0.017(3) 0.200(3)
C7_3 C 0.8946(2) 0.6069(3) 0.2546(3)
H6_3 H 0.881(2) 0.673(4) 0.310(3)
O13_2 O 0.60275(15) 0.1403(2) 0.34929(19)
O1_3 O 0.69748(13) 0.9507(2) 0.5249(2)
N1_3 N 0.74296(15) 0.9680(2) 0.4388(2)
C4_3 C 0.7510(2) 0.8795(3) 0.3603(3)
H3_3 H 0.7224(19) 0.810(3) 0.375(3)
C5_3 C 0.7967(2) 0.8967(3) 0.2709(3)
H4_3 H 0.8004(19) 0.830(3) 0.213(3)
H19_2 H 0.0627957 0.543218 0.969063
C7_4 C 0.3946(2) 0.1069(3) 0.2546(3)
H6_4 H 0.381(2) 0.173(4) 0.310(3)
C14_4 C 0.6054(2) 0.1069(3) 0.2454(3)
H16_4 H 0.619(2) 0.173(4) 0.190(3)
Mn1_6 Mn 0.5000 0.87026(6) 0.2500
O1_4 O 0.19748(13) 0.4507(2) 0.5249(2)
O3_4 O 0.41577(13) 0.7261(2) 0.26362(18)
N1_4 N 0.24296(15) 0.4680(2) 0.4388(2)
C1_4 C 0.37074(17) 0.7111(3) 0.3421(3)
C2_4 C 0.32834(18) 0.5927(3) 0.3435(3)
C3_4 C 0.28078(18) 0.5728(3) 0.4318(3)
H2_4 H 0.2723(17) 0.632(3) 0.492(3)
C4_4 C 0.2510(2) 0.3795(3) 0.3603(3)
H3_4 H 0.2224(19) 0.310(3) 0.375(3)
C5_4 C 0.2967(2) 0.3967(3) 0.2709(3)
H4_4 H 0.3004(19) 0.330(3) 0.213(3)
C6_4 C 0.3356(2) 0.5031(3) 0.2615(3)
H5_4 H 0.3692(19) 0.517(3) 0.200(3)
O11_4 O 0.58423(13) 0.7261(2) 0.23638(18)
N2_4 N 0.75704(15) 0.4680(2) 0.0612(2)
C8_4 C 0.62926(17) 0.7111(3) 0.1579(3)
C9_4 C 0.67166(18) 0.5927(3) 0.1565(3)
C10_4 C 0.71922(18) 0.5728(3) 0.0682(3)
H12_4 H 0.7277(17) 0.632(3) 0.008(3)
C11_4 C 0.7490(2) 0.3795(3) 0.1397(3)
H13_4 H 0.7776(19) 0.310(3) 0.125(3)
C12_4 C 0.7033(2) 0.3967(3) 0.2291(3)
H14_4 H 0.6996(19) 0.330(3) 0.287(3)
C13_4 C 0.6644(2) 0.5031(3) 0.2385(3)
H15_4 H 0.6308(19) 0.517(3) 0.300(3)
O7_4 O 0.80252(13) 0.4507(2) 0.9751(2)
H18_2 H 0.937204 0.543218 0.530937
H20_2 H 0.970392 0.400688 0.458313
H17 H 0.970392 0.599312 0.958313
H17_2 H 0.0296079 0.400688 0.0416873
loop_
_geom_bond_atom_site_label_1
_geom_bond_atom_site_label_2
_geom_bond_site_symmetry_1
_geom_bond_site_symmetry_2
O1 N1 1_555 1_555
C4 N1 1_555 1_555
H3 C4 1_555 1_555
C5 C4 1_555 1_555
H4 C5 1_555 1_555
Mn1 O3 1_555 1_555
O2 C1 1_555 1_555
O3 C1 1_555 1_555
O4 C7 1_555 1_555
O5 Mn1 1_555 1_555
H1 O5 1_555 1_555
O6 Mn1 1_555 1_555
C1 C2 1_555 1_555
C2 C3 1_555 1_555
C3 H2 1_555 1_555
C6 C2 1_555 1_555
H5 C6 1_555 1_555
C7 O6 1_555 1_555
H6 C7 1_555 1_555
Mn4 O2 1_555 1_555
O9 Mn2 1_555 1_555
O13 Mn2 1_555 1_555
O17 Mn2 1_555 1_555
O6 Mn4 1_555 1_555
C11 N2 1_555 1_555
H13 C11 1_555 1_555
C12 C11 1_555 1_555
H14 C12 1_555 1_555
O10 Mn3 1_555 1_555
O19 Mn3 1_555 1_555
Mn7 O12 1_555 1_555
O8 Mn6 1_555 1_555
O11 Mn1_2 1_555 1_555
O12 C14 1_555 1_555
O15 Mn1_2 1_555 1_555
H7 O15 1_555 1_555
O20 Mn1_2 1_555 1_555
C8 O8 1_555 1_555
C9 C8 1_555 1_555
C10 C9 1_555 1_555
H12 C10 1_555 1_555
C13 C9 1_555 1_555
H15 C13 1_555 1_555
C14 O20 1_555 1_555
H16 C14 1_555 1_555
Mn6 O20 1_555 1_555
Mn7 O15 1_555 1_555
O11 C8 1_555 1_555
H9 O17_2 1_555 1_555
O17_2 H18 1_555 1_555
Mn5 O7_2 1_555 1_555
O10_2 Mn5 1_555 1_555
O22_2 Mn5 1_555 1_555
Mn1_3 O3_2 1_555 1_555
Mn7 O1_2 1_555 1_555
O1_2 N1_2 1_555 1_555
O2_2 C1_2 1_555 1_555
O3_2 C1_2 1_555 1_555
O18 Mn1_3 1_555 1_555
N1_2 C3_2 1_555 1_555
C1_2 C2_2 1_555 1_555
C2_2 C3_2 1_555 1_555
C3_2 H2_2 1_555 1_555
C4_2 N1_2 1_555 1_555
H3_2 C4_2 1_555 1_555
C5_2 C4_2 1_555 1_555
H4_2 C5_2 1_555 1_555
C6_2 C2_2 1_555 1_555
H5_2 C6_2 1_555 1_555
Mn4_2 O2_2 1_555 1_555
Mn6_2 O18 1_555 1_555
O8_2 Mn6_2 1_555 1_555
O9_2 Mn7 1_555 1_555
O11_2 Mn1_3 1_555 1_555
O16 Mn1_3 1_555 1_555
O21_2 Mn7 1_555 1_555
N2_2 C10_2 1_555 1_555
C8_2 O8_2 1_555 1_555
C9_2 C8_2 1_555 1_555
C10_2 C9_2 1_555 1_555
H12_2 C10_2 1_555 1_555
C11_2 N2_2 1_555 1_555
H13_2 C11_2 1_555 1_555
C12_2 C11_2 1_555 1_555
H14_2 C12_2 1_555 1_555
C13_2 C9_2 1_555 1_555
H15_2 C13_2 1_555 1_555
C5_2 C6_2 1_555 1_555
Mn4_2 O16 1_555 1_555
O11_2 C8_2 1_555 1_555
C12_2 C13_2 1_555 1_555
O14 C7_2 1_555 1_555
C7_2 O6_2 1_555 1_555
H6_2 C7_2 1_555 1_555
O13 C14_2 1_555 1_555
C14_2 O20_2 1_555 1_555
H16_2 C14_2 1_555 1_555
H11 O19_2 1_555 1_555
O19_2 H19 1_555 1_555
Mn4 O12_2 1_555 1_555
O11_3 Mn1_4 1_555 1_555
O12_2 C14_3 1_555 1_555
O17_2 Mn1_4 1_555 1_555
O22_2 Mn1_4 1_555 1_555
C8_3 O10_2 1_555 1_555
C9_3 C8_3 1_555 1_555
C10_3 C9_3 1_555 1_555
H12_3 C10_3 1_555 1_555
C13_3 C9_3 1_555 1_555
H15_3 C13_3 1_555 1_555
C14_3 O22_2 1_555 1_555
H16_3 C14_3 1_555 1_555
Mn4 O17_2 1_555 1_555
O11_3 C8_3 1_555 1_555
C11_3 N2_3 1_555 1_555
H13_3 C11_3 1_555 1_555
C12_3 C11_3 1_555 1_555
H14_3 C12_3 1_555 1_555
Mn1_5 O3_3 1_555 1_555
O9_2 C1_3 1_555 1_555
O3_3 C1_3 1_555 1_555
O4_2 C7_3 1_555 1_555
O19_2 Mn1_5 1_555 1_555
O21_2 Mn1_5 1_555 1_555
C1_3 C2_3 1_555 1_555
C2_3 C3_3 1_555 1_555
C3_3 H2_3 1_555 1_555
C6_3 C2_3 1_555 1_555
H5_3 C6_3 1_555 1_555
C7_3 O21_2 1_555 1_555
H6_3 C7_3 1_555 1_555
O13_2 Mn4_2 1_555 1_555
O1_3 N1_3 1_555 1_555
C4_3 N1_3 1_555 1_555
H3_3 C4_3 1_555 1_555
C5_3 C4_3 1_555 1_555
H4_3 C5_3 1_555 1_555
O5 H19_2 1_555 1_555
O14_2 C7_4 1_555 1_555
C7_4 O21 1_555 1_555
H6_4 C7_4 1_555 1_555
O13_2 C14_4 1_555 1_555
C14_4 O22 1_555 1_555
H16_4 C14_4 1_555 1_555
Mn1_6 O3_4 1_555 1_555
Mn4 O1_4 1_555 1_555
O1_4 N1_4 1_555 1_555
O9 C1_4 1_555 1_555
O3_4 C1_4 1_555 1_555
O19 Mn1_6 1_555 1_555
N1_4 C3_4 1_555 1_555
C1_4 C2_4 1_555 1_555
C2_4 C3_4 1_555 1_555
C3_4 H2_4 1_555 1_555
C4_4 N1_4 1_555 1_555
H3_4 C4_4 1_555 1_555
C5_4 C4_4 1_555 1_555
H4_4 C5_4 1_555 1_555
C6_4 C2_4 1_555 1_555
H5_4 C6_4 1_555 1_555
O11_4 Mn1_6 1_555 1_555
O17 Mn1_6 1_555 1_555
N2_4 C10_4 1_555 1_555
C8_4 O10 1_555 1_555
C9_4 C8_4 1_555 1_555
C10_4 C9_4 1_555 1_555
H12_4 C10_4 1_555 1_555
C11_4 N2_4 1_555 1_555
H13_4 C11_4 1_555 1_555
C12_4 C11_4 1_555 1_555
H14_4 C12_4 1_555 1_555
C13_4 C9_4 1_555 1_555
H15_4 C13_4 1_555 1_555
C5_4 C6_4 1_555 1_555
O11_4 C8_4 1_555 1_555
C12_4 C13_4 1_555 1_555
Mn6 O7_4 1_555 1_555
O15 H18_2 1_555 1_555

#END
