
###############################################################################
#
# This file contains modified crystal structure data generated from the
# MOF subset of the Cambridge Structural Database (CSD) v543 
# hosted by the Cambridge Crystallographic Data Centre (CCDC).
#
# This work is licensed under the Creative Commons
# Attribution-NonCommercial-ShareAlike 4.0 International License.
# To view a copy of this license, visit
# http://creativecommons.org/licenses/by-nc-sa/4.0/
# or send a letter to
# Creative Commons, PO Box 1866, Mountain View, CA 94042, USA.
#
# CIF created using the CSD Python API on 29 September 2022
# The structure has been converted into the P1 space group
# The structure has a 3D framework
# The original CSD entry RUKDOS is in the cubic crystal system
# The framework has been calculated to contain at least 10.0% void space
# The void calculation uses a probe of radius 1.32A, grid spacing 0.4
#
###############################################################################

data_RUKDOS
_chemical_formula_moiety         '(C576 H288 Hf20 O156)n'
_symmetry_cell_setting           triclinic
_symmetry_space_group_name_H-M   'P 1'
_symmetry_Int_Tables_number      1
_space_group_name_Hall           'P 1'
loop_
_symmetry_equiv_pos_site_id
_symmetry_equiv_pos_as_xyz
1 x,y,z
_cell_length_a                   30.1107(12)
_cell_length_b                   30.1107(12)
_cell_length_c                   30.1107(12)
_cell_angle_alpha                90
_cell_angle_beta                 90
_cell_angle_gamma                90
_cell_volume                     27300
loop_
_atom_site_label
_atom_site_type_symbol
_atom_site_fract_x
_atom_site_fract_y
_atom_site_fract_z
Hf8 Hf -0.0000 0.5000 0.58137(2)
Hf10 Hf -0.0000 0.5000 0.41863(2)
Hf12 Hf -0.0000 0.58137(2) 0.5000
Hf15 Hf -0.0000 0.41863(2) 0.5000
Hf17 Hf 0.58137(2) -0.0000 0.5000
Hf1 Hf 0.5000 0.08137(2) 0.5000
O1 O 0.5617(3) 0.1188(2) 0.5000
O2 O 0.53932(19) 0.03932(19) 0.46068(19)
C1 C 0.6019(8) 0.1019(8) 0.5000
C2 C 0.6368(8) 0.1368(8) 0.5000
C3 C 0.6817(7) 0.1231(5) 0.5000
H1 H 0.6893 0.0932 0.5000
C4 C 0.7144(7) 0.1565(5) 0.5000
H2 H 0.7444 0.1490 0.5000
C5 C 0.7015(5) 0.2015(5) 0.5000
C6 C 0.7360(2) 0.2360(2) 0.5000
O3 O 0.8812(2) 0.4383(3) 0.5000
C7 C 0.8981(8) 0.3981(8) 0.5000
C8 C 0.8632(8) 0.3632(8) 0.5000
C9 C 0.8769(5) 0.3183(7) 0.5000
H3 H 0.9068 0.3107 0.5000
C10 C 0.8435(5) 0.2856(7) 0.5000
H4 H 0.8510 0.2556 0.5000
C11 C 0.7985(5) 0.2985(5) 0.5000
C12 C 0.7640(2) 0.2640(2) 0.5000
O4 O 0.9383(3) 0.3812(2) 0.5000
C13 C 0.8183(7) 0.3769(5) 0.5000
H5 H 0.8107 0.4068 0.5000
C14 C 0.7856(7) 0.3435(5) 0.5000
H6 H 0.7556 0.3510 0.5000
O5 O 0.6188(2) 0.0617(3) 0.5000
C15 C 0.6231(5) 0.1817(7) 0.5000
H7 H 0.5932 0.1893 0.5000
C16 C 0.6565(5) 0.2144(7) 0.5000
H8 H 0.6490 0.2444 0.5000
Hf2 Hf 0.91863(2) 0.5000 0.5000
O6 O 0.8812(2) 0.5617(3) 0.5000
C17 C 0.8981(8) 0.6019(8) 0.5000
C18 C 0.8632(8) 0.6368(8) 0.5000
C19 C 0.8769(5) 0.6817(7) 0.5000
H9 H 0.9068 0.6893 0.5000
C20 C 0.8435(5) 0.7144(7) 0.5000
H10 H 0.8510 0.7444 0.5000
C21 C 0.7985(5) 0.7015(5) 0.5000
C22 C 0.7640(2) 0.7360(2) 0.5000
O7 O 0.5617(3) 0.8812(2) 0.5000
C23 C 0.6019(8) 0.8981(8) 0.5000
C24 C 0.6368(8) 0.8632(8) 0.5000
C25 C 0.6817(7) 0.8769(5) 0.5000
H11 H 0.6893 0.9068 0.5000
C26 C 0.7144(7) 0.8435(5) 0.5000
H12 H 0.7444 0.8510 0.5000
C27 C 0.7015(5) 0.7985(5) 0.5000
C28 C 0.7360(2) 0.7640(2) 0.5000
O8 O 0.6188(2) 0.9383(3) 0.5000
C29 C 0.6231(5) 0.8183(7) 0.5000
H13 H 0.5932 0.8107 0.5000
C30 C 0.6565(5) 0.7856(7) 0.5000
H14 H 0.6490 0.7556 0.5000
O9 O 0.9383(3) 0.6188(2) 0.5000
C31 C 0.8183(7) 0.6231(5) 0.5000
H15 H 0.8107 0.5932 0.5000
C32 C 0.7856(7) 0.6565(5) 0.5000
H16 H 0.7556 0.6490 0.5000
Hf3 Hf 0.08137(2) 0.5000 0.5000
O10 O 0.1188(2) 0.4383(3) 0.5000
C33 C 0.1019(8) 0.3981(8) 0.5000
C34 C 0.1368(8) 0.3632(8) 0.5000
C35 C 0.1231(5) 0.3183(7) 0.5000
H17 H 0.0932 0.3107 0.5000
C36 C 0.1565(5) 0.2856(7) 0.5000
H18 H 0.1490 0.2556 0.5000
C37 C 0.2015(5) 0.2985(5) 0.5000
C38 C 0.2360(2) 0.2640(2) 0.5000
O11 O 0.4383(3) 0.1188(2) 0.5000
C39 C 0.3981(8) 0.1019(8) 0.5000
C40 C 0.3632(8) 0.1368(8) 0.5000
C41 C 0.3183(7) 0.1231(5) 0.5000
H19 H 0.3107 0.0932 0.5000
C42 C 0.2856(7) 0.1565(5) 0.5000
H20 H 0.2556 0.1490 0.5000
C43 C 0.2985(5) 0.2015(5) 0.5000
C44 C 0.2640(2) 0.2360(2) 0.5000
O12 O 0.3812(2) 0.0617(3) 0.5000
C45 C 0.3769(5) 0.1817(7) 0.5000
H21 H 0.4068 0.1893 0.5000
C46 C 0.3435(5) 0.2144(7) 0.5000
H22 H 0.3510 0.2444 0.5000
O13 O 0.0617(3) 0.3812(2) 0.5000
C47 C 0.1817(7) 0.3769(5) 0.5000
H23 H 0.1893 0.4068 0.5000
C48 C 0.2144(7) 0.3435(5) 0.5000
H24 H 0.2444 0.3510 0.5000
O14 O 0.46068(19) 0.03932(19) 0.46068(19)
O15 O 0.46068(19) 0.03932(19) 0.53932(19)
O16 O 0.53932(19) 0.03932(19) 0.53932(19)
Hf4 Hf 0.5000 0.91863(2) 0.5000
Hf5 Hf 0.5000 0.0000 0.58137(2)
Hf6 Hf 0.5000 0.0000 0.41863(2)
Hf8_2 Hf 1.0000 0.5000 0.58137(2)
Hf10_2 Hf 1.0000 0.5000 0.41863(2)
Hf12_2 Hf 1.0000 0.58137(2) 0.5000
Hf13 Hf 0.41863(2) -0.0000 0.5000
Hf15_2 Hf 1.0000 0.41863(2) 0.5000
Hf17_2 Hf 0.58137(2) 1.0000 0.5000
O17 O 0.5000 0.1188(2) 0.4383(3)
O18 O 0.5000 0.1188(2) 0.5617(3)
O19 O 0.1188(2) 0.5000 0.5617(3)
O20 O 0.8812(2) 0.5000 0.5617(3)
O21 O 0.8812(2) 0.5000 0.4383(3)
O22 O 0.1188(2) 0.5000 0.4383(3)
O23 O 0.1188(2) 0.5617(3) 0.5000
O24 O 0.96068(19) 0.53932(19) 0.46068(19)
O25 O 0.03932(19) 0.46068(19) 0.46068(19)
O26 O 0.03932(19) 0.46068(19) 0.53932(19)
O27 O 0.96068(19) 0.53932(19) 0.53932(19)
O28 O 0.96068(19) 0.46068(19) 0.46068(19)
O29 O 0.03932(19) 0.53932(19) 0.46068(19)
O30 O 0.03932(19) 0.53932(19) 0.53932(19)
O31 O 0.96068(19) 0.46068(19) 0.53932(19)
Hf5_2 Hf 0.5000 1.0000 0.58137(2)
Hf6_2 Hf 0.5000 1.0000 0.41863(2)
Hf13_2 Hf 0.41863(2) 1.0000 0.5000
O6_2 O 0.4383(3) 0.8812(2) 0.5000
C17_2 C 0.3981(8) 0.8981(8) 0.5000
C18_2 C 0.3632(8) 0.8632(8) 0.5000
C19_2 C 0.3183(7) 0.8769(5) 0.5000
H9_2 H 0.3107 0.9068 0.5000
C20_2 C 0.2856(7) 0.8435(5) 0.5000
H10_2 H 0.2556 0.8510 0.5000
C21_2 C 0.2985(5) 0.7985(5) 0.5000
C22_2 C 0.2640(2) 0.7640(2) 0.5000
C23_2 C 0.1019(8) 0.6019(8) 0.5000
C24_2 C 0.1368(8) 0.6368(8) 0.5000
C25_2 C 0.1231(5) 0.6817(7) 0.5000
H11_2 H 0.0932 0.6893 0.5000
C26_2 C 0.1565(5) 0.7144(7) 0.5000
H12_2 H 0.1490 0.7444 0.5000
C27_2 C 0.2015(5) 0.7015(5) 0.5000
C28_2 C 0.2360(2) 0.7360(2) 0.5000
O8_2 O 0.0617(3) 0.6188(2) 0.5000
C29_2 C 0.1817(7) 0.6231(5) 0.5000
H13_2 H 0.1893 0.5932 0.5000
C30_2 C 0.2144(7) 0.6565(5) 0.5000
H14_2 H 0.2444 0.6490 0.5000
O9_2 O 0.3812(2) 0.9383(3) 0.5000
C31_2 C 0.3769(5) 0.8183(7) 0.5000
H15_2 H 0.4068 0.8107 0.5000
C32_2 C 0.3435(5) 0.7856(7) 0.5000
H16_2 H 0.3510 0.7556 0.5000
O20_2 O 0.5000 0.8812(2) 0.5617(3)
O21_2 O 0.5000 0.8812(2) 0.4383(3)
O24_2 O 0.46068(19) 0.96068(19) 0.46068(19)
O27_2 O 0.46068(19) 0.96068(19) 0.53932(19)
O28_2 O 0.53932(19) 0.96068(19) 0.46068(19)
O31_2 O 0.53932(19) 0.96068(19) 0.53932(19)
Hf17_3 Hf 0.58137(2) 0.5000 -0.0000
Hf1_2 Hf 0.5000 0.5000 0.08137(2)
O1_2 O 0.5617(3) 0.5000 0.1188(2)
O2_2 O 0.53932(19) 0.53932(19) 0.03932(19)
C1_2 C 0.6019(8) 0.5000 0.1019(8)
C2_2 C 0.6368(8) 0.5000 0.1368(8)
C3_2 C 0.6817(7) 0.5000 0.1231(5)
H1_2 H 0.6893 0.5000 0.0932
C4_2 C 0.7144(7) 0.5000 0.1565(5)
H2_2 H 0.7444 0.5000 0.1490
C5_2 C 0.7015(5) 0.5000 0.2015(5)
C6_2 C 0.7360(2) 0.5000 0.2360(2)
C7_2 C 0.8981(8) 0.5000 0.3981(8)
C8_2 C 0.8632(8) 0.5000 0.3632(8)
C9_2 C 0.8769(5) 0.5000 0.3183(7)
H3_2 H 0.9068 0.5000 0.3107
C10_2 C 0.8435(5) 0.5000 0.2856(7)
H4_2 H 0.8510 0.5000 0.2556
C11_2 C 0.7985(5) 0.5000 0.2985(5)
C12_2 C 0.7640(2) 0.5000 0.2640(2)
O4_2 O 0.9383(3) 0.5000 0.3812(2)
C13_2 C 0.8183(7) 0.5000 0.3769(5)
H5_2 H 0.8107 0.5000 0.4068
C14_2 C 0.7856(7) 0.5000 0.3435(5)
H6_2 H 0.7556 0.5000 0.3510
O5_2 O 0.6188(2) 0.5000 0.0617(3)
C15_2 C 0.6231(5) 0.5000 0.1817(7)
H7_2 H 0.5932 0.5000 0.1893
C16_2 C 0.6565(5) 0.5000 0.2144(7)
H8_2 H 0.6490 0.5000 0.2444
C17_3 C 0.8981(8) 0.5000 0.6019(8)
C18_3 C 0.8632(8) 0.5000 0.6368(8)
C19_3 C 0.8769(5) 0.5000 0.6817(7)
H9_3 H 0.9068 0.5000 0.6893
C20_3 C 0.8435(5) 0.5000 0.7144(7)
H10_3 H 0.8510 0.5000 0.7444
C21_3 C 0.7985(5) 0.5000 0.7015(5)
C22_3 C 0.7640(2) 0.5000 0.7360(2)
O7_2 O 0.5617(3) 0.5000 0.8812(2)
C23_3 C 0.6019(8) 0.5000 0.8981(8)
C24_3 C 0.6368(8) 0.5000 0.8632(8)
C25_3 C 0.6817(7) 0.5000 0.8769(5)
H11_3 H 0.6893 0.5000 0.9068
C26_3 C 0.7144(7) 0.5000 0.8435(5)
H12_3 H 0.7444 0.5000 0.8510
C27_3 C 0.7015(5) 0.5000 0.7985(5)
C28_3 C 0.7360(2) 0.5000 0.7640(2)
O8_3 O 0.6188(2) 0.5000 0.9383(3)
C29_3 C 0.6231(5) 0.5000 0.8183(7)
H13_3 H 0.5932 0.5000 0.8107
C30_3 C 0.6565(5) 0.5000 0.7856(7)
H14_3 H 0.6490 0.5000 0.7556
O9_3 O 0.9383(3) 0.5000 0.6188(2)
C31_3 C 0.8183(7) 0.5000 0.6231(5)
H15_3 H 0.8107 0.5000 0.5932
C32_3 C 0.7856(7) 0.5000 0.6565(5)
H16_3 H 0.7556 0.5000 0.6490
C33_2 C 0.1019(8) 0.5000 0.3981(8)
C34_2 C 0.1368(8) 0.5000 0.3632(8)
C35_2 C 0.1231(5) 0.5000 0.3183(7)
H17_2 H 0.0932 0.5000 0.3107
C36_2 C 0.1565(5) 0.5000 0.2856(7)
H18_2 H 0.1490 0.5000 0.2556
C37_2 C 0.2015(5) 0.5000 0.2985(5)
C38_2 C 0.2360(2) 0.5000 0.2640(2)
O11_2 O 0.4383(3) 0.5000 0.1188(2)
C39_2 C 0.3981(8) 0.5000 0.1019(8)
C40_2 C 0.3632(8) 0.5000 0.1368(8)
C41_2 C 0.3183(7) 0.5000 0.1231(5)
H19_2 H 0.3107 0.5000 0.0932
C42_2 C 0.2856(7) 0.5000 0.1565(5)
H20_2 H 0.2556 0.5000 0.1490
C43_2 C 0.2985(5) 0.5000 0.2015(5)
C44_2 C 0.2640(2) 0.5000 0.2360(2)
O12_2 O 0.3812(2) 0.5000 0.0617(3)
C45_2 C 0.3769(5) 0.5000 0.1817(7)
H21_2 H 0.4068 0.5000 0.1893
C46_2 C 0.3435(5) 0.5000 0.2144(7)
H22_2 H 0.3510 0.5000 0.2444
O13_2 O 0.0617(3) 0.5000 0.3812(2)
C47_2 C 0.1817(7) 0.5000 0.3769(5)
H23_2 H 0.1893 0.5000 0.4068
C48_2 C 0.2144(7) 0.5000 0.3435(5)
H24_2 H 0.2444 0.5000 0.3510
O14_2 O 0.46068(19) 0.53932(19) 0.03932(19)
O15_2 O 0.46068(19) 0.46068(19) 0.03932(19)
O16_2 O 0.53932(19) 0.46068(19) 0.03932(19)
Hf4_2 Hf 0.5000 0.5000 0.91863(2)
Hf5_3 Hf 0.5000 0.41863(2) 0.0000
Hf6_3 Hf 0.5000 0.58137(2) 0.0000
Hf13_3 Hf 0.41863(2) 0.5000 0.0000
Hf17_4 Hf 0.58137(2) 0.5000 1.0000
O17_2 O 0.5000 0.5617(3) 0.1188(2)
O18_2 O 0.5000 0.4383(3) 0.1188(2)
Hf5_4 Hf 0.5000 0.41863(2) 1.0000
Hf6_4 Hf 0.5000 0.58137(2) 1.0000
Hf13_4 Hf 0.41863(2) 0.5000 1.0000
O2_3 O 0.53932(19) 0.46068(19) 0.96068(19)
C33_3 C 0.1019(8) 0.5000 0.6019(8)
C34_3 C 0.1368(8) 0.5000 0.6368(8)
C35_3 C 0.1231(5) 0.5000 0.6817(7)
H17_3 H 0.0932 0.5000 0.6893
C36_3 C 0.1565(5) 0.5000 0.7144(7)
H18_3 H 0.1490 0.5000 0.7444
C37_3 C 0.2015(5) 0.5000 0.7015(5)
C38_3 C 0.2360(2) 0.5000 0.7360(2)
O11_3 O 0.4383(3) 0.5000 0.8812(2)
C39_3 C 0.3981(8) 0.5000 0.8981(8)
C40_3 C 0.3632(8) 0.5000 0.8632(8)
C41_3 C 0.3183(7) 0.5000 0.8769(5)
H19_3 H 0.3107 0.5000 0.9068
C42_3 C 0.2856(7) 0.5000 0.8435(5)
H20_3 H 0.2556 0.5000 0.8510
C43_3 C 0.2985(5) 0.5000 0.7985(5)
C44_3 C 0.2640(2) 0.5000 0.7640(2)
O12_3 O 0.3812(2) 0.5000 0.9383(3)
C45_3 C 0.3769(5) 0.5000 0.8183(7)
H21_3 H 0.4068 0.5000 0.8107
C46_3 C 0.3435(5) 0.5000 0.7856(7)
H22_3 H 0.3510 0.5000 0.7556
O13_3 O 0.0617(3) 0.5000 0.6188(2)
C47_3 C 0.1817(7) 0.5000 0.6231(5)
H23_3 H 0.1893 0.5000 0.5932
C48_3 C 0.2144(7) 0.5000 0.6565(5)
H24_3 H 0.2444 0.5000 0.6490
O14_3 O 0.46068(19) 0.46068(19) 0.96068(19)
O15_3 O 0.46068(19) 0.53932(19) 0.96068(19)
O16_3 O 0.53932(19) 0.53932(19) 0.96068(19)
O17_3 O 0.5000 0.4383(3) 0.8812(2)
O18_3 O 0.5000 0.5617(3) 0.8812(2)
C1_3 C 0.5000 0.1019(8) 0.3981(8)
C2_3 C 0.5000 0.1368(8) 0.3632(8)
C3_3 C 0.5000 0.1231(5) 0.3183(7)
H1_3 H 0.5000 0.0932 0.3107
C4_3 C 0.5000 0.1565(5) 0.2856(7)
H2_3 H 0.5000 0.1490 0.2556
C5_3 C 0.5000 0.2015(5) 0.2985(5)
C6_3 C 0.5000 0.2360(2) 0.2640(2)
C7_3 C 0.5000 0.3981(8) 0.1019(8)
C8_3 C 0.5000 0.3632(8) 0.1368(8)
C9_3 C 0.5000 0.3183(7) 0.1231(5)
H3_3 H 0.5000 0.3107 0.0932
C10_3 C 0.5000 0.2856(7) 0.1565(5)
H4_3 H 0.5000 0.2556 0.1490
C11_3 C 0.5000 0.2985(5) 0.2015(5)
C12_3 C 0.5000 0.2640(2) 0.2360(2)
O4_3 O 0.5000 0.3812(2) 0.0617(3)
C13_3 C 0.5000 0.3769(5) 0.1817(7)
H5_3 H 0.5000 0.4068 0.1893
C14_3 C 0.5000 0.3435(5) 0.2144(7)
H6_3 H 0.5000 0.3510 0.2444
O5_3 O 0.5000 0.0617(3) 0.3812(2)
C15_3 C 0.5000 0.1817(7) 0.3769(5)
H7_3 H 0.5000 0.1893 0.4068
C16_3 C 0.5000 0.2144(7) 0.3435(5)
H8_3 H 0.5000 0.2444 0.3510
C17_4 C 0.5000 0.6019(8) 0.1019(8)
C18_4 C 0.5000 0.6368(8) 0.1368(8)
C19_4 C 0.5000 0.6817(7) 0.1231(5)
H9_4 H 0.5000 0.6893 0.0932
C20_4 C 0.5000 0.7144(7) 0.1565(5)
H10_4 H 0.5000 0.7444 0.1490
C21_4 C 0.5000 0.7015(5) 0.2015(5)
C22_4 C 0.5000 0.7360(2) 0.2360(2)
C23_4 C 0.5000 0.8981(8) 0.3981(8)
C24_4 C 0.5000 0.8632(8) 0.3632(8)
C25_4 C 0.5000 0.8769(5) 0.3183(7)
H11_4 H 0.5000 0.9068 0.3107
C26_4 C 0.5000 0.8435(5) 0.2856(7)
H12_4 H 0.5000 0.8510 0.2556
C27_4 C 0.5000 0.7985(5) 0.2985(5)
C28_4 C 0.5000 0.7640(2) 0.2640(2)
O8_4 O 0.5000 0.9383(3) 0.3812(2)
C29_4 C 0.5000 0.8183(7) 0.3769(5)
H13_4 H 0.5000 0.8107 0.4068
C30_4 C 0.5000 0.7856(7) 0.3435(5)
H14_4 H 0.5000 0.7556 0.3510
O9_4 O 0.5000 0.6188(2) 0.0617(3)
C31_4 C 0.5000 0.6231(5) 0.1817(7)
H15_4 H 0.5000 0.5932 0.1893
C32_4 C 0.5000 0.6565(5) 0.2144(7)
H16_4 H 0.5000 0.6490 0.2444
C33_4 C 0.5000 0.3981(8) 0.8981(8)
C34_4 C 0.5000 0.3632(8) 0.8632(8)
C35_4 C 0.5000 0.3183(7) 0.8769(5)
H17_4 H 0.5000 0.3107 0.9068
C36_4 C 0.5000 0.2856(7) 0.8435(5)
H18_4 H 0.5000 0.2556 0.8510
C37_4 C 0.5000 0.2985(5) 0.7985(5)
C38_4 C 0.5000 0.2640(2) 0.7640(2)
C39_4 C 0.5000 0.1019(8) 0.6019(8)
C40_4 C 0.5000 0.1368(8) 0.6368(8)
C41_4 C 0.5000 0.1231(5) 0.6817(7)
H19_4 H 0.5000 0.0932 0.6893
C42_4 C 0.5000 0.1565(5) 0.7144(7)
H20_4 H 0.5000 0.1490 0.7444
C43_4 C 0.5000 0.2015(5) 0.7015(5)
C44_4 C 0.5000 0.2360(2) 0.7360(2)
O12_4 O 0.5000 0.0617(3) 0.6188(2)
C45_4 C 0.5000 0.1817(7) 0.6231(5)
H21_4 H 0.5000 0.1893 0.5932
C46_4 C 0.5000 0.2144(7) 0.6565(5)
H22_4 H 0.5000 0.2444 0.6490
O13_4 O 0.5000 0.3812(2) 0.9383(3)
C47_4 C 0.5000 0.3769(5) 0.8183(7)
H23_4 H 0.5000 0.4068 0.8107
C48_4 C 0.5000 0.3435(5) 0.7856(7)
H24_4 H 0.5000 0.3510 0.7556
C17_5 C 0.5000 0.6019(8) 0.8981(8)
C18_5 C 0.5000 0.6368(8) 0.8632(8)
C19_5 C 0.5000 0.6817(7) 0.8769(5)
H9_5 H 0.5000 0.6893 0.9068
C20_5 C 0.5000 0.7144(7) 0.8435(5)
H10_5 H 0.5000 0.7444 0.8510
C21_5 C 0.5000 0.7015(5) 0.7985(5)
C22_5 C 0.5000 0.7360(2) 0.7640(2)
C23_5 C 0.5000 0.8981(8) 0.6019(8)
C24_5 C 0.5000 0.8632(8) 0.6368(8)
C25_5 C 0.5000 0.8769(5) 0.6817(7)
H11_5 H 0.5000 0.9068 0.6893
C26_5 C 0.5000 0.8435(5) 0.7144(7)
H12_5 H 0.5000 0.8510 0.7444
C27_5 C 0.5000 0.7985(5) 0.7015(5)
C28_5 C 0.5000 0.7640(2) 0.7360(2)
O8_5 O 0.5000 0.9383(3) 0.6188(2)
C29_5 C 0.5000 0.8183(7) 0.6231(5)
H13_5 H 0.5000 0.8107 0.5932
C30_5 C 0.5000 0.7856(7) 0.6565(5)
H14_5 H 0.5000 0.7556 0.6490
O9_5 O 0.5000 0.6188(2) 0.9383(3)
C31_5 C 0.5000 0.6231(5) 0.8183(7)
H15_5 H 0.5000 0.5932 0.8107
C32_5 C 0.5000 0.6565(5) 0.7856(7)
H16_5 H 0.5000 0.6490 0.7556
Hf8_3 Hf -0.0000 -0.0000 0.08137(2)
Hf12_3 Hf -0.0000 0.08137(2) -0.0000
Hf10_3 Hf -0.0000 -0.0000 0.91863(2)
Hf12_4 Hf -0.0000 0.08137(2) 1.0000
Hf8_4 Hf -0.0000 1.0000 0.08137(2)
Hf15_3 Hf -0.0000 0.91863(2) -0.0000
Hf10_4 Hf -0.0000 1.0000 0.91863(2)
Hf15_4 Hf -0.0000 0.91863(2) 1.0000
Hf2_2 Hf 0.91863(2) -0.0000 -0.0000
O6_3 O 0.8812(2) 0.0617(3) -0.0000
C17_6 C 0.8981(8) 0.1019(8) -0.0000
C18_6 C 0.8632(8) 0.1368(8) -0.0000
C19_6 C 0.8769(5) 0.1817(7) -0.0000
H9_6 H 0.9068 0.1893 -0.0000
C20_6 C 0.8435(5) 0.2144(7) -0.0000
H10_6 H 0.8510 0.2444 -0.0000
C21_6 C 0.7985(5) 0.2015(5) -0.0000
C22_6 C 0.7640(2) 0.2360(2) -0.0000
O7_3 O 0.5617(3) 0.3812(2) -0.0000
C23_6 C 0.6019(8) 0.3981(8) -0.0000
C24_6 C 0.6368(8) 0.3632(8) -0.0000
C25_6 C 0.6817(7) 0.3769(5) -0.0000
H11_6 H 0.6893 0.4068 -0.0000
C26_6 C 0.7144(7) 0.3435(5) -0.0000
H12_6 H 0.7444 0.3510 -0.0000
C27_6 C 0.7015(5) 0.2985(5) -0.0000
C28_6 C 0.7360(2) 0.2640(2) -0.0000
O8_6 O 0.6188(2) 0.4383(3) -0.0000
C29_6 C 0.6231(5) 0.3183(7) -0.0000
H13_6 H 0.5932 0.3107 -0.0000
C30_6 C 0.6565(5) 0.2856(7) -0.0000
H14_6 H 0.6490 0.2556 -0.0000
O9_6 O 0.9383(3) 0.1188(2) -0.0000
C31_6 C 0.8183(7) 0.1231(5) -0.0000
H15_6 H 0.8107 0.0932 -0.0000
C32_6 C 0.7856(7) 0.1565(5) -0.0000
H16_6 H 0.7556 0.1490 -0.0000
Hf3_2 Hf 0.08137(2) -0.0000 -0.0000
Hf8_5 Hf 1.0000 -0.0000 0.08137(2)
Hf12_5 Hf 1.0000 0.08137(2) -0.0000
O19_2 O 0.1188(2) -0.0000 0.0617(3)
O20_3 O 0.8812(2) -0.0000 0.0617(3)
O23_2 O 0.1188(2) 0.0617(3) -0.0000
O27_3 O 0.96068(19) 0.03932(19) 0.03932(19)
O30_2 O 0.03932(19) 0.03932(19) 0.03932(19)
Hf2_3 Hf 0.91863(2) -0.0000 1.0000
O6_4 O 0.8812(2) 0.0617(3) 1.0000
C17_7 C 0.8981(8) 0.1019(8) 1.0000
C18_7 C 0.8632(8) 0.1368(8) 1.0000
C19_7 C 0.8769(5) 0.1817(7) 1.0000
H9_7 H 0.9068 0.1893 1.0000
C20_7 C 0.8435(5) 0.2144(7) 1.0000
H10_7 H 0.8510 0.2444 1.0000
C21_7 C 0.7985(5) 0.2015(5) 1.0000
C22_7 C 0.7640(2) 0.2360(2) 1.0000
O7_4 O 0.5617(3) 0.3812(2) 1.0000
C23_7 C 0.6019(8) 0.3981(8) 1.0000
C24_7 C 0.6368(8) 0.3632(8) 1.0000
C25_7 C 0.6817(7) 0.3769(5) 1.0000
H11_7 H 0.6893 0.4068 1.0000
C26_7 C 0.7144(7) 0.3435(5) 1.0000
H12_7 H 0.7444 0.3510 1.0000
C27_7 C 0.7015(5) 0.2985(5) 1.0000
C28_7 C 0.7360(2) 0.2640(2) 1.0000
O8_7 O 0.6188(2) 0.4383(3) 1.0000
C29_7 C 0.6231(5) 0.3183(7) 1.0000
H13_7 H 0.5932 0.3107 1.0000
C30_7 C 0.6565(5) 0.2856(7) 1.0000
H14_7 H 0.6490 0.2556 1.0000
O9_7 O 0.9383(3) 0.1188(2) 1.0000
C31_7 C 0.8183(7) 0.1231(5) 1.0000
H15_7 H 0.8107 0.0932 1.0000
C32_7 C 0.7856(7) 0.1565(5) 1.0000
H16_7 H 0.7556 0.1490 1.0000
Hf3_3 Hf 0.08137(2) -0.0000 1.0000
Hf10_5 Hf 1.0000 -0.0000 0.91863(2)
Hf12_6 Hf 1.0000 0.08137(2) 1.0000
O21_3 O 0.8812(2) -0.0000 0.9383(3)
O22_2 O 0.1188(2) -0.0000 0.9383(3)
O23_3 O 0.1188(2) 0.0617(3) 1.0000
O24_3 O 0.96068(19) 0.03932(19) 0.96068(19)
O29_2 O 0.03932(19) 0.03932(19) 0.96068(19)
O1_3 O 0.5617(3) 0.6188(2) -0.0000
C1_4 C 0.6019(8) 0.6019(8) -0.0000
C2_4 C 0.6368(8) 0.6368(8) -0.0000
C3_4 C 0.6817(7) 0.6231(5) -0.0000
H1_4 H 0.6893 0.5932 -0.0000
C4_4 C 0.7144(7) 0.6565(5) -0.0000
H2_4 H 0.7444 0.6490 -0.0000
C5_4 C 0.7015(5) 0.7015(5) -0.0000
C6_4 C 0.7360(2) 0.7360(2) -0.0000
O3_2 O 0.8812(2) 0.9383(3) -0.0000
C7_4 C 0.8981(8) 0.8981(8) -0.0000
C8_4 C 0.8632(8) 0.8632(8) -0.0000
C9_4 C 0.8769(5) 0.8183(7) -0.0000
H3_4 H 0.9068 0.8107 -0.0000
C10_4 C 0.8435(5) 0.7856(7) -0.0000
H4_4 H 0.8510 0.7556 -0.0000
C11_4 C 0.7985(5) 0.7985(5) -0.0000
C12_4 C 0.7640(2) 0.7640(2) -0.0000
O4_4 O 0.9383(3) 0.8812(2) -0.0000
C13_4 C 0.8183(7) 0.8769(5) -0.0000
H5_4 H 0.8107 0.9068 -0.0000
C14_4 C 0.7856(7) 0.8435(5) -0.0000
H6_4 H 0.7556 0.8510 -0.0000
O5_4 O 0.6188(2) 0.5617(3) -0.0000
C15_4 C 0.6231(5) 0.6817(7) -0.0000
H7_4 H 0.5932 0.6893 -0.0000
C16_4 C 0.6565(5) 0.7144(7) -0.0000
H8_4 H 0.6490 0.7444 -0.0000
Hf2_4 Hf 0.91863(2) 1.0000 -0.0000
Hf3_4 Hf 0.08137(2) 1.0000 -0.0000
O10_2 O 0.1188(2) 0.9383(3) -0.0000
C33_5 C 0.1019(8) 0.8981(8) -0.0000
C34_5 C 0.1368(8) 0.8632(8) -0.0000
C35_5 C 0.1231(5) 0.8183(7) -0.0000
H17_5 H 0.0932 0.8107 -0.0000
C36_5 C 0.1565(5) 0.7856(7) -0.0000
H18_5 H 0.1490 0.7556 -0.0000
C37_5 C 0.2015(5) 0.7985(5) -0.0000
C38_5 C 0.2360(2) 0.7640(2) -0.0000
O11_4 O 0.4383(3) 0.6188(2) -0.0000
C39_5 C 0.3981(8) 0.6019(8) -0.0000
C40_5 C 0.3632(8) 0.6368(8) -0.0000
C41_5 C 0.3183(7) 0.6231(5) -0.0000
H19_5 H 0.3107 0.5932 -0.0000
C42_5 C 0.2856(7) 0.6565(5) -0.0000
H20_5 H 0.2556 0.6490 -0.0000
C43_5 C 0.2985(5) 0.7015(5) -0.0000
C44_5 C 0.2640(2) 0.7360(2) -0.0000
O12_5 O 0.3812(2) 0.5617(3) -0.0000
C45_5 C 0.3769(5) 0.6817(7) -0.0000
H21_5 H 0.4068 0.6893 -0.0000
C46_5 C 0.3435(5) 0.7144(7) -0.0000
H22_5 H 0.3510 0.7444 -0.0000
O13_5 O 0.0617(3) 0.8812(2) -0.0000
C47_5 C 0.1817(7) 0.8769(5) -0.0000
H23_5 H 0.1893 0.9068 -0.0000
C48_5 C 0.2144(7) 0.8435(5) -0.0000
H24_5 H 0.2444 0.8510 -0.0000
Hf8_6 Hf 1.0000 1.0000 0.08137(2)
Hf15_5 Hf 1.0000 0.91863(2) -0.0000
O19_3 O 0.1188(2) 1.0000 0.0617(3)
O20_4 O 0.8812(2) 1.0000 0.0617(3)
O26_2 O 0.03932(19) 0.96068(19) 0.03932(19)
O31_3 O 0.96068(19) 0.96068(19) 0.03932(19)
O1_4 O 0.5617(3) 0.6188(2) 1.0000
C1_5 C 0.6019(8) 0.6019(8) 1.0000
C2_5 C 0.6368(8) 0.6368(8) 1.0000
C3_5 C 0.6817(7) 0.6231(5) 1.0000
H1_5 H 0.6893 0.5932 1.0000
C4_5 C 0.7144(7) 0.6565(5) 1.0000
H2_5 H 0.7444 0.6490 1.0000
C5_5 C 0.7015(5) 0.7015(5) 1.0000
C6_5 C 0.7360(2) 0.7360(2) 1.0000
O3_3 O 0.8812(2) 0.9383(3) 1.0000
C7_5 C 0.8981(8) 0.8981(8) 1.0000
C8_5 C 0.8632(8) 0.8632(8) 1.0000
C9_5 C 0.8769(5) 0.8183(7) 1.0000
H3_5 H 0.9068 0.8107 1.0000
C10_5 C 0.8435(5) 0.7856(7) 1.0000
H4_5 H 0.8510 0.7556 1.0000
C11_5 C 0.7985(5) 0.7985(5) 1.0000
C12_5 C 0.7640(2) 0.7640(2) 1.0000
O4_5 O 0.9383(3) 0.8812(2) 1.0000
C13_5 C 0.8183(7) 0.8769(5) 1.0000
H5_5 H 0.8107 0.9068 1.0000
C14_5 C 0.7856(7) 0.8435(5) 1.0000
H6_5 H 0.7556 0.8510 1.0000
O5_5 O 0.6188(2) 0.5617(3) 1.0000
C15_5 C 0.6231(5) 0.6817(7) 1.0000
H7_5 H 0.5932 0.6893 1.0000
C16_5 C 0.6565(5) 0.7144(7) 1.0000
H8_5 H 0.6490 0.7444 1.0000
Hf2_5 Hf 0.91863(2) 1.0000 1.0000
Hf3_5 Hf 0.08137(2) 1.0000 1.0000
O10_3 O 0.1188(2) 0.9383(3) 1.0000
C33_6 C 0.1019(8) 0.8981(8) 1.0000
C34_6 C 0.1368(8) 0.8632(8) 1.0000
C35_6 C 0.1231(5) 0.8183(7) 1.0000
H17_6 H 0.0932 0.8107 1.0000
C36_6 C 0.1565(5) 0.7856(7) 1.0000
H18_6 H 0.1490 0.7556 1.0000
C37_6 C 0.2015(5) 0.7985(5) 1.0000
C38_6 C 0.2360(2) 0.7640(2) 1.0000
O11_5 O 0.4383(3) 0.6188(2) 1.0000
C39_6 C 0.3981(8) 0.6019(8) 1.0000
C40_6 C 0.3632(8) 0.6368(8) 1.0000
C41_6 C 0.3183(7) 0.6231(5) 1.0000
H19_6 H 0.3107 0.5932 1.0000
C42_6 C 0.2856(7) 0.6565(5) 1.0000
H20_6 H 0.2556 0.6490 1.0000
C43_6 C 0.2985(5) 0.7015(5) 1.0000
C44_6 C 0.2640(2) 0.7360(2) 1.0000
O12_6 O 0.3812(2) 0.5617(3) 1.0000
C45_6 C 0.3769(5) 0.6817(7) 1.0000
H21_6 H 0.4068 0.6893 1.0000
C46_6 C 0.3435(5) 0.7144(7) 1.0000
H22_6 H 0.3510 0.7444 1.0000
O13_6 O 0.0617(3) 0.8812(2) 1.0000
C47_6 C 0.1817(7) 0.8769(5) 1.0000
H23_6 H 0.1893 0.9068 1.0000
C48_6 C 0.2144(7) 0.8435(5) 1.0000
H24_6 H 0.2444 0.8510 1.0000
Hf10_6 Hf 1.0000 1.0000 0.91863(2)
Hf15_6 Hf 1.0000 0.91863(2) 1.0000
O21_4 O 0.8812(2) 1.0000 0.9383(3)
O22_3 O 0.1188(2) 1.0000 0.9383(3)
O25_2 O 0.03932(19) 0.96068(19) 0.96068(19)
O28_3 O 0.96068(19) 0.96068(19) 0.96068(19)
O6_5 O 0.4383(3) 0.3812(2) -0.0000
C17_8 C 0.3981(8) 0.3981(8) -0.0000
C18_8 C 0.3632(8) 0.3632(8) -0.0000
C19_8 C 0.3183(7) 0.3769(5) -0.0000
H9_8 H 0.3107 0.4068 -0.0000
C20_8 C 0.2856(7) 0.3435(5) -0.0000
H10_8 H 0.2556 0.3510 -0.0000
C21_8 C 0.2985(5) 0.2985(5) -0.0000
C22_8 C 0.2640(2) 0.2640(2) -0.0000
C23_8 C 0.1019(8) 0.1019(8) -0.0000
C24_8 C 0.1368(8) 0.1368(8) -0.0000
C25_8 C 0.1231(5) 0.1817(7) -0.0000
H11_8 H 0.0932 0.1893 -0.0000
C26_8 C 0.1565(5) 0.2144(7) -0.0000
H12_8 H 0.1490 0.2444 -0.0000
C27_8 C 0.2015(5) 0.2015(5) -0.0000
C28_8 C 0.2360(2) 0.2360(2) -0.0000
O8_8 O 0.0617(3) 0.1188(2) -0.0000
C29_8 C 0.1817(7) 0.1231(5) -0.0000
H13_8 H 0.1893 0.0932 -0.0000
C30_8 C 0.2144(7) 0.1565(5) -0.0000
H14_8 H 0.2444 0.1490 -0.0000
O9_8 O 0.3812(2) 0.4383(3) -0.0000
C31_8 C 0.3769(5) 0.3183(7) -0.0000
H15_8 H 0.4068 0.3107 -0.0000
C32_8 C 0.3435(5) 0.2856(7) -0.0000
H16_8 H 0.3510 0.2556 -0.0000
O6_6 O 0.4383(3) 0.3812(2) 1.0000
C17_9 C 0.3981(8) 0.3981(8) 1.0000
C18_9 C 0.3632(8) 0.3632(8) 1.0000
C19_9 C 0.3183(7) 0.3769(5) 1.0000
H9_9 H 0.3107 0.4068 1.0000
C20_9 C 0.2856(7) 0.3435(5) 1.0000
H10_9 H 0.2556 0.3510 1.0000
C21_9 C 0.2985(5) 0.2985(5) 1.0000
C22_9 C 0.2640(2) 0.2640(2) 1.0000
C23_9 C 0.1019(8) 0.1019(8) 1.0000
C24_9 C 0.1368(8) 0.1368(8) 1.0000
C25_9 C 0.1231(5) 0.1817(7) 1.0000
H11_9 H 0.0932 0.1893 1.0000
C26_9 C 0.1565(5) 0.2144(7) 1.0000
H12_9 H 0.1490 0.2444 1.0000
C27_9 C 0.2015(5) 0.2015(5) 1.0000
C28_9 C 0.2360(2) 0.2360(2) 1.0000
O8_9 O 0.0617(3) 0.1188(2) 1.0000
C29_9 C 0.1817(7) 0.1231(5) 1.0000
H13_9 H 0.1893 0.0932 1.0000
C30_9 C 0.2144(7) 0.1565(5) 1.0000
H14_9 H 0.2444 0.1490 1.0000
O9_9 O 0.3812(2) 0.4383(3) 1.0000
C31_9 C 0.3769(5) 0.3183(7) 1.0000
H15_9 H 0.4068 0.3107 1.0000
C32_9 C 0.3435(5) 0.2856(7) 1.0000
H16_9 H 0.3510 0.2556 1.0000
C17_10 C 0.8981(8) 0.0000 0.1019(8)
C18_10 C 0.8632(8) 0.0000 0.1368(8)
C19_10 C 0.8769(5) 0.0000 0.1817(7)
H9_10 H 0.9068 0.0000 0.1893
C20_10 C 0.8435(5) 0.0000 0.2144(7)
H10_10 H 0.8510 0.0000 0.2444
C21_10 C 0.7985(5) 0.0000 0.2015(5)
C22_10 C 0.7640(2) 0.0000 0.2360(2)
O7_5 O 0.5617(3) 0.0000 0.3812(2)
C23_10 C 0.6019(8) 0.0000 0.3981(8)
C24_10 C 0.6368(8) 0.0000 0.3632(8)
C25_10 C 0.6817(7) 0.0000 0.3769(5)
H11_10 H 0.6893 0.0000 0.4068
C26_10 C 0.7144(7) 0.0000 0.3435(5)
H12_10 H 0.7444 0.0000 0.3510
C27_10 C 0.7015(5) 0.0000 0.2985(5)
C28_10 C 0.7360(2) 0.0000 0.2640(2)
O8_10 O 0.6188(2) 0.0000 0.4383(3)
C29_10 C 0.6231(5) 0.0000 0.3183(7)
H13_10 H 0.5932 0.0000 0.3107
C30_10 C 0.6565(5) 0.0000 0.2856(7)
H14_10 H 0.6490 0.0000 0.2556
O9_10 O 0.9383(3) 0.0000 0.1188(2)
C31_10 C 0.8183(7) 0.0000 0.1231(5)
H15_10 H 0.8107 0.0000 0.0932
C32_10 C 0.7856(7) 0.0000 0.1565(5)
H16_10 H 0.7556 0.0000 0.1490
O1_5 O 0.5617(3) 0.0000 0.6188(2)
C1_6 C 0.6019(8) 0.0000 0.6019(8)
C2_6 C 0.6368(8) 0.0000 0.6368(8)
C3_6 C 0.6817(7) 0.0000 0.6231(5)
H1_6 H 0.6893 0.0000 0.5932
C4_6 C 0.7144(7) 0.0000 0.6565(5)
H2_6 H 0.7444 0.0000 0.6490
C5_6 C 0.7015(5) 0.0000 0.7015(5)
C6_6 C 0.7360(2) 0.0000 0.7360(2)
C7_6 C 0.8981(8) 0.0000 0.8981(8)
C8_6 C 0.8632(8) 0.0000 0.8632(8)
C9_6 C 0.8769(5) 0.0000 0.8183(7)
H3_6 H 0.9068 0.0000 0.8107
C10_6 C 0.8435(5) 0.0000 0.7856(7)
H4_6 H 0.8510 0.0000 0.7556
C11_6 C 0.7985(5) 0.0000 0.7985(5)
C12_6 C 0.7640(2) 0.0000 0.7640(2)
O4_6 O 0.9383(3) 0.0000 0.8812(2)
C13_6 C 0.8183(7) 0.0000 0.8769(5)
H5_6 H 0.8107 0.0000 0.9068
C14_6 C 0.7856(7) 0.0000 0.8435(5)
H6_6 H 0.7556 0.0000 0.8510
O5_6 O 0.6188(2) 0.0000 0.5617(3)
C15_6 C 0.6231(5) 0.0000 0.6817(7)
H7_6 H 0.5932 0.0000 0.6893
C16_6 C 0.6565(5) 0.0000 0.7144(7)
H8_6 H 0.6490 0.0000 0.7444
C33_7 C 0.1019(8) 0.0000 0.8981(8)
C34_7 C 0.1368(8) 0.0000 0.8632(8)
C35_7 C 0.1231(5) 0.0000 0.8183(7)
H17_7 H 0.0932 0.0000 0.8107
C36_7 C 0.1565(5) 0.0000 0.7856(7)
H18_7 H 0.1490 0.0000 0.7556
C37_7 C 0.2015(5) 0.0000 0.7985(5)
C38_7 C 0.2360(2) 0.0000 0.7640(2)
O11_6 O 0.4383(3) 0.0000 0.6188(2)
C39_7 C 0.3981(8) 0.0000 0.6019(8)
C40_7 C 0.3632(8) 0.0000 0.6368(8)
C41_7 C 0.3183(7) 0.0000 0.6231(5)
H19_7 H 0.3107 0.0000 0.5932
C42_7 C 0.2856(7) 0.0000 0.6565(5)
H20_7 H 0.2556 0.0000 0.6490
C43_7 C 0.2985(5) 0.0000 0.7015(5)
C44_7 C 0.2640(2) 0.0000 0.7360(2)
O12_7 O 0.3812(2) 0.0000 0.5617(3)
C45_7 C 0.3769(5) 0.0000 0.6817(7)
H21_7 H 0.4068 0.0000 0.6893
C46_7 C 0.3435(5) 0.0000 0.7144(7)
H22_7 H 0.3510 0.0000 0.7444
O13_7 O 0.0617(3) 0.0000 0.8812(2)
C47_7 C 0.1817(7) 0.0000 0.8769(5)
H23_7 H 0.1893 0.0000 0.9068
C48_7 C 0.2144(7) 0.0000 0.8435(5)
H24_7 H 0.2444 0.0000 0.8510
C17_11 C 0.8981(8) 1.0000 0.1019(8)
C18_11 C 0.8632(8) 1.0000 0.1368(8)
C19_11 C 0.8769(5) 1.0000 0.1817(7)
H9_11 H 0.9068 1.0000 0.1893
C20_11 C 0.8435(5) 1.0000 0.2144(7)
H10_11 H 0.8510 1.0000 0.2444
C21_11 C 0.7985(5) 1.0000 0.2015(5)
C22_11 C 0.7640(2) 1.0000 0.2360(2)
O7_6 O 0.5617(3) 1.0000 0.3812(2)
C23_11 C 0.6019(8) 1.0000 0.3981(8)
C24_11 C 0.6368(8) 1.0000 0.3632(8)
C25_11 C 0.6817(7) 1.0000 0.3769(5)
H11_11 H 0.6893 1.0000 0.4068
C26_11 C 0.7144(7) 1.0000 0.3435(5)
H12_11 H 0.7444 1.0000 0.3510
C27_11 C 0.7015(5) 1.0000 0.2985(5)
C28_11 C 0.7360(2) 1.0000 0.2640(2)
O8_11 O 0.6188(2) 1.0000 0.4383(3)
C29_11 C 0.6231(5) 1.0000 0.3183(7)
H13_11 H 0.5932 1.0000 0.3107
C30_11 C 0.6565(5) 1.0000 0.2856(7)
H14_11 H 0.6490 1.0000 0.2556
O9_11 O 0.9383(3) 1.0000 0.1188(2)
C31_11 C 0.8183(7) 1.0000 0.1231(5)
H15_11 H 0.8107 1.0000 0.0932
C32_11 C 0.7856(7) 1.0000 0.1565(5)
H16_11 H 0.7556 1.0000 0.1490
O1_6 O 0.5617(3) 1.0000 0.6188(2)
C1_7 C 0.6019(8) 1.0000 0.6019(8)
C2_7 C 0.6368(8) 1.0000 0.6368(8)
C3_7 C 0.6817(7) 1.0000 0.6231(5)
H1_7 H 0.6893 1.0000 0.5932
C4_7 C 0.7144(7) 1.0000 0.6565(5)
H2_7 H 0.7444 1.0000 0.6490
C5_7 C 0.7015(5) 1.0000 0.7015(5)
C6_7 C 0.7360(2) 1.0000 0.7360(2)
C7_7 C 0.8981(8) 1.0000 0.8981(8)
C8_7 C 0.8632(8) 1.0000 0.8632(8)
C9_7 C 0.8769(5) 1.0000 0.8183(7)
H3_7 H 0.9068 1.0000 0.8107
C10_7 C 0.8435(5) 1.0000 0.7856(7)
H4_7 H 0.8510 1.0000 0.7556
C11_7 C 0.7985(5) 1.0000 0.7985(5)
C12_7 C 0.7640(2) 1.0000 0.7640(2)
O4_7 O 0.9383(3) 1.0000 0.8812(2)
C13_7 C 0.8183(7) 1.0000 0.8769(5)
H5_7 H 0.8107 1.0000 0.9068
C14_7 C 0.7856(7) 1.0000 0.8435(5)
H6_7 H 0.7556 1.0000 0.8510
O5_7 O 0.6188(2) 1.0000 0.5617(3)
C15_7 C 0.6231(5) 1.0000 0.6817(7)
H7_7 H 0.5932 1.0000 0.6893
C16_7 C 0.6565(5) 1.0000 0.7144(7)
H8_7 H 0.6490 1.0000 0.7444
C33_8 C 0.1019(8) 1.0000 0.8981(8)
C34_8 C 0.1368(8) 1.0000 0.8632(8)
C35_8 C 0.1231(5) 1.0000 0.8183(7)
H17_8 H 0.0932 1.0000 0.8107
C36_8 C 0.1565(5) 1.0000 0.7856(7)
H18_8 H 0.1490 1.0000 0.7556
C37_8 C 0.2015(5) 1.0000 0.7985(5)
C38_8 C 0.2360(2) 1.0000 0.7640(2)
O11_7 O 0.4383(3) 1.0000 0.6188(2)
C39_8 C 0.3981(8) 1.0000 0.6019(8)
C40_8 C 0.3632(8) 1.0000 0.6368(8)
C41_8 C 0.3183(7) 1.0000 0.6231(5)
H19_8 H 0.3107 1.0000 0.5932
C42_8 C 0.2856(7) 1.0000 0.6565(5)
H20_8 H 0.2556 1.0000 0.6490
C43_8 C 0.2985(5) 1.0000 0.7015(5)
C44_8 C 0.2640(2) 1.0000 0.7360(2)
O12_8 O 0.3812(2) 1.0000 0.5617(3)
C45_8 C 0.3769(5) 1.0000 0.6817(7)
H21_8 H 0.4068 1.0000 0.6893
C46_8 C 0.3435(5) 1.0000 0.7144(7)
H22_8 H 0.3510 1.0000 0.7444
O13_8 O 0.0617(3) 1.0000 0.8812(2)
C47_8 C 0.1817(7) 1.0000 0.8769(5)
H23_8 H 0.1893 1.0000 0.9068
C48_8 C 0.2144(7) 1.0000 0.8435(5)
H24_8 H 0.2444 1.0000 0.8510
C33_9 C 0.1019(8) -0.0000 0.1019(8)
C34_9 C 0.1368(8) -0.0000 0.1368(8)
C35_9 C 0.1231(5) -0.0000 0.1817(7)
H17_9 H 0.0932 -0.0000 0.1893
C36_9 C 0.1565(5) -0.0000 0.2144(7)
H18_9 H 0.1490 -0.0000 0.2444
C37_9 C 0.2015(5) -0.0000 0.2015(5)
C38_9 C 0.2360(2) -0.0000 0.2360(2)
O11_8 O 0.4383(3) -0.0000 0.3812(2)
C39_9 C 0.3981(8) -0.0000 0.3981(8)
C40_9 C 0.3632(8) -0.0000 0.3632(8)
C41_9 C 0.3183(7) -0.0000 0.3769(5)
H19_9 H 0.3107 -0.0000 0.4068
C42_9 C 0.2856(7) -0.0000 0.3435(5)
H20_9 H 0.2556 -0.0000 0.3510
C43_9 C 0.2985(5) -0.0000 0.2985(5)
C44_9 C 0.2640(2) -0.0000 0.2640(2)
O12_9 O 0.3812(2) -0.0000 0.4383(3)
C45_9 C 0.3769(5) -0.0000 0.3183(7)
H21_9 H 0.4068 -0.0000 0.3107
C46_9 C 0.3435(5) -0.0000 0.2856(7)
H22_9 H 0.3510 -0.0000 0.2556
O13_9 O 0.0617(3) -0.0000 0.1188(2)
C47_9 C 0.1817(7) -0.0000 0.1231(5)
H23_9 H 0.1893 -0.0000 0.0932
C48_9 C 0.2144(7) -0.0000 0.1565(5)
H24_9 H 0.2444 -0.0000 0.1490
C33_10 C 0.1019(8) 1.0000 0.1019(8)
C34_10 C 0.1368(8) 1.0000 0.1368(8)
C35_10 C 0.1231(5) 1.0000 0.1817(7)
H17_10 H 0.0932 1.0000 0.1893
C36_10 C 0.1565(5) 1.0000 0.2144(7)
H18_10 H 0.1490 1.0000 0.2444
C37_10 C 0.2015(5) 1.0000 0.2015(5)
C38_10 C 0.2360(2) 1.0000 0.2360(2)
O11_9 O 0.4383(3) 1.0000 0.3812(2)
C39_10 C 0.3981(8) 1.0000 0.3981(8)
C40_10 C 0.3632(8) 1.0000 0.3632(8)
C41_10 C 0.3183(7) 1.0000 0.3769(5)
H19_10 H 0.3107 1.0000 0.4068
C42_10 C 0.2856(7) 1.0000 0.3435(5)
H20_10 H 0.2556 1.0000 0.3510
C43_10 C 0.2985(5) 1.0000 0.2985(5)
C44_10 C 0.2640(2) 1.0000 0.2640(2)
O12_10 O 0.3812(2) 1.0000 0.4383(3)
C45_10 C 0.3769(5) 1.0000 0.3183(7)
H21_10 H 0.4068 1.0000 0.3107
C46_10 C 0.3435(5) 1.0000 0.2856(7)
H22_10 H 0.3510 1.0000 0.2556
O13_10 O 0.0617(3) 1.0000 0.1188(2)
C47_10 C 0.1817(7) 1.0000 0.1231(5)
H23_10 H 0.1893 1.0000 0.0932
C48_10 C 0.2144(7) 1.0000 0.1565(5)
H24_10 H 0.2444 1.0000 0.1490
O18_4 O -0.0000 0.1188(2) 0.0617(3)
O17_4 O -0.0000 0.1188(2) 0.9383(3)
O18_5 O 1.0000 0.1188(2) 0.0617(3)
O17_5 O 1.0000 0.1188(2) 0.9383(3)
O20_5 O 0.0000 0.8812(2) 0.0617(3)
O21_5 O 0.0000 0.8812(2) 0.9383(3)
O20_6 O 1.0000 0.8812(2) 0.0617(3)
O21_6 O 1.0000 0.8812(2) 0.9383(3)
O17_6 O -0.0000 0.5617(3) 0.6188(2)
O18_6 O -0.0000 0.4383(3) 0.6188(2)
O17_7 O 1.0000 0.5617(3) 0.6188(2)
O18_7 O 1.0000 0.4383(3) 0.6188(2)
O17_8 O -0.0000 0.4383(3) 0.3812(2)
O18_8 O -0.0000 0.5617(3) 0.3812(2)
O17_9 O 1.0000 0.4383(3) 0.3812(2)
O18_9 O 1.0000 0.5617(3) 0.3812(2)
C33_11 C -0.0000 0.3981(8) 0.3981(8)
C34_11 C -0.0000 0.3632(8) 0.3632(8)
C35_11 C -0.0000 0.3183(7) 0.3769(5)
H17_11 H -0.0000 0.3107 0.4068
C36_11 C -0.0000 0.2856(7) 0.3435(5)
H18_11 H -0.0000 0.2556 0.3510
C37_11 C -0.0000 0.2985(5) 0.2985(5)
C38_11 C -0.0000 0.2640(2) 0.2640(2)
C39_11 C -0.0000 0.1019(8) 0.1019(8)
C40_11 C -0.0000 0.1368(8) 0.1368(8)
C41_11 C -0.0000 0.1231(5) 0.1817(7)
H19_11 H -0.0000 0.0932 0.1893
C42_11 C -0.0000 0.1565(5) 0.2144(7)
H20_11 H -0.0000 0.1490 0.2444
C43_11 C -0.0000 0.2015(5) 0.2015(5)
C44_11 C -0.0000 0.2360(2) 0.2360(2)
O12_11 O -0.0000 0.0617(3) 0.1188(2)
C45_11 C -0.0000 0.1817(7) 0.1231(5)
H21_11 H -0.0000 0.1893 0.0932
C46_11 C -0.0000 0.2144(7) 0.1565(5)
H22_11 H -0.0000 0.2444 0.1490
O13_11 O -0.0000 0.3812(2) 0.4383(3)
C47_11 C -0.0000 0.3769(5) 0.3183(7)
H23_11 H -0.0000 0.4068 0.3107
C48_11 C -0.0000 0.3435(5) 0.2856(7)
H24_11 H -0.0000 0.3510 0.2556
C1_8 C -0.0000 0.1019(8) 0.8981(8)
C2_8 C -0.0000 0.1368(8) 0.8632(8)
C3_8 C -0.0000 0.1231(5) 0.8183(7)
H1_8 H -0.0000 0.0932 0.8107
C4_8 C -0.0000 0.1565(5) 0.7856(7)
H2_8 H -0.0000 0.1490 0.7556
C5_8 C -0.0000 0.2015(5) 0.7985(5)
C6_8 C -0.0000 0.2360(2) 0.7640(2)
C7_8 C -0.0000 0.3981(8) 0.6019(8)
C8_8 C -0.0000 0.3632(8) 0.6368(8)
C9_8 C -0.0000 0.3183(7) 0.6231(5)
H3_8 H -0.0000 0.3107 0.5932
C10_8 C -0.0000 0.2856(7) 0.6565(5)
H4_8 H -0.0000 0.2556 0.6490
C11_8 C -0.0000 0.2985(5) 0.7015(5)
C12_8 C -0.0000 0.2640(2) 0.7360(2)
O4_8 O -0.0000 0.3812(2) 0.5617(3)
C13_8 C -0.0000 0.3769(5) 0.6817(7)
H5_8 H -0.0000 0.4068 0.6893
C14_8 C -0.0000 0.3435(5) 0.7144(7)
H6_8 H -0.0000 0.3510 0.7444
O5_8 O -0.0000 0.0617(3) 0.8812(2)
C15_8 C -0.0000 0.1817(7) 0.8769(5)
H7_8 H -0.0000 0.1893 0.9068
C16_8 C -0.0000 0.2144(7) 0.8435(5)
H8_8 H -0.0000 0.2444 0.8510
C17_12 C -0.0000 0.6019(8) 0.6019(8)
C18_12 C -0.0000 0.6368(8) 0.6368(8)
C19_12 C -0.0000 0.6817(7) 0.6231(5)
H9_12 H -0.0000 0.6893 0.5932
C20_12 C -0.0000 0.7144(7) 0.6565(5)
H10_12 H -0.0000 0.7444 0.6490
C21_12 C -0.0000 0.7015(5) 0.7015(5)
C22_12 C -0.0000 0.7360(2) 0.7360(2)
C23_12 C -0.0000 0.8981(8) 0.8981(8)
C24_12 C -0.0000 0.8632(8) 0.8632(8)
C25_12 C -0.0000 0.8769(5) 0.8183(7)
H11_12 H -0.0000 0.9068 0.8107
C26_12 C -0.0000 0.8435(5) 0.7856(7)
H12_12 H -0.0000 0.8510 0.7556
C27_12 C -0.0000 0.7985(5) 0.7985(5)
C28_12 C -0.0000 0.7640(2) 0.7640(2)
O8_12 O -0.0000 0.9383(3) 0.8812(2)
C29_12 C -0.0000 0.8183(7) 0.8769(5)
H13_12 H -0.0000 0.8107 0.9068
C30_12 C -0.0000 0.7856(7) 0.8435(5)
H14_12 H -0.0000 0.7556 0.8510
O9_12 O -0.0000 0.6188(2) 0.5617(3)
C31_12 C -0.0000 0.6231(5) 0.6817(7)
H15_12 H -0.0000 0.5932 0.6893
C32_12 C -0.0000 0.6565(5) 0.7144(7)
H16_12 H -0.0000 0.6490 0.7444
C33_12 C 1.0000 0.3981(8) 0.3981(8)
C34_12 C 1.0000 0.3632(8) 0.3632(8)
C35_12 C 1.0000 0.3183(7) 0.3769(5)
H17_12 H 1.0000 0.3107 0.4068
C36_12 C 1.0000 0.2856(7) 0.3435(5)
H18_12 H 1.0000 0.2556 0.3510
C37_12 C 1.0000 0.2985(5) 0.2985(5)
C38_12 C 1.0000 0.2640(2) 0.2640(2)
C39_12 C 1.0000 0.1019(8) 0.1019(8)
C40_12 C 1.0000 0.1368(8) 0.1368(8)
C41_12 C 1.0000 0.1231(5) 0.1817(7)
H19_12 H 1.0000 0.0932 0.1893
C42_12 C 1.0000 0.1565(5) 0.2144(7)
H20_12 H 1.0000 0.1490 0.2444
C43_12 C 1.0000 0.2015(5) 0.2015(5)
C44_12 C 1.0000 0.2360(2) 0.2360(2)
O12_12 O 1.0000 0.0617(3) 0.1188(2)
C45_12 C 1.0000 0.1817(7) 0.1231(5)
H21_12 H 1.0000 0.1893 0.0932
C46_12 C 1.0000 0.2144(7) 0.1565(5)
H22_12 H 1.0000 0.2444 0.1490
O13_12 O 1.0000 0.3812(2) 0.4383(3)
C47_12 C 1.0000 0.3769(5) 0.3183(7)
H23_12 H 1.0000 0.4068 0.3107
C48_12 C 1.0000 0.3435(5) 0.2856(7)
H24_12 H 1.0000 0.3510 0.2556
C1_9 C 1.0000 0.1019(8) 0.8981(8)
C2_9 C 1.0000 0.1368(8) 0.8632(8)
C3_9 C 1.0000 0.1231(5) 0.8183(7)
H1_9 H 1.0000 0.0932 0.8107
C4_9 C 1.0000 0.1565(5) 0.7856(7)
H2_9 H 1.0000 0.1490 0.7556
C5_9 C 1.0000 0.2015(5) 0.7985(5)
C6_9 C 1.0000 0.2360(2) 0.7640(2)
C7_9 C 1.0000 0.3981(8) 0.6019(8)
C8_9 C 1.0000 0.3632(8) 0.6368(8)
C9_9 C 1.0000 0.3183(7) 0.6231(5)
H3_9 H 1.0000 0.3107 0.5932
C10_9 C 1.0000 0.2856(7) 0.6565(5)
H4_9 H 1.0000 0.2556 0.6490
C11_9 C 1.0000 0.2985(5) 0.7015(5)
C12_9 C 1.0000 0.2640(2) 0.7360(2)
O4_9 O 1.0000 0.3812(2) 0.5617(3)
C13_9 C 1.0000 0.3769(5) 0.6817(7)
H5_9 H 1.0000 0.4068 0.6893
C14_9 C 1.0000 0.3435(5) 0.7144(7)
H6_9 H 1.0000 0.3510 0.7444
O5_9 O 1.0000 0.0617(3) 0.8812(2)
C15_9 C 1.0000 0.1817(7) 0.8769(5)
H7_9 H 1.0000 0.1893 0.9068
C16_9 C 1.0000 0.2144(7) 0.8435(5)
H8_9 H 1.0000 0.2444 0.8510
C17_13 C 1.0000 0.6019(8) 0.6019(8)
C18_13 C 1.0000 0.6368(8) 0.6368(8)
C19_13 C 1.0000 0.6817(7) 0.6231(5)
H9_13 H 1.0000 0.6893 0.5932
C20_13 C 1.0000 0.7144(7) 0.6565(5)
H10_13 H 1.0000 0.7444 0.6490
C21_13 C 1.0000 0.7015(5) 0.7015(5)
C22_13 C 1.0000 0.7360(2) 0.7360(2)
C23_13 C 1.0000 0.8981(8) 0.8981(8)
C24_13 C 1.0000 0.8632(8) 0.8632(8)
C25_13 C 1.0000 0.8769(5) 0.8183(7)
H11_13 H 1.0000 0.9068 0.8107
C26_13 C 1.0000 0.8435(5) 0.7856(7)
H12_13 H 1.0000 0.8510 0.7556
C27_13 C 1.0000 0.7985(5) 0.7985(5)
C28_13 C 1.0000 0.7640(2) 0.7640(2)
O8_13 O 1.0000 0.9383(3) 0.8812(2)
C29_13 C 1.0000 0.8183(7) 0.8769(5)
H13_13 H 1.0000 0.8107 0.9068
C30_13 C 1.0000 0.7856(7) 0.8435(5)
H14_13 H 1.0000 0.7556 0.8510
O9_13 O 1.0000 0.6188(2) 0.5617(3)
C31_13 C 1.0000 0.6231(5) 0.6817(7)
H15_13 H 1.0000 0.5932 0.6893
C32_13 C 1.0000 0.6565(5) 0.7144(7)
H16_13 H 1.0000 0.6490 0.7444
C17_14 C 0.0000 0.6019(8) 0.3981(8)
C18_14 C 0.0000 0.6368(8) 0.3632(8)
C19_14 C 0.0000 0.6817(7) 0.3769(5)
H9_14 H 0.0000 0.6893 0.4068
C20_14 C 0.0000 0.7144(7) 0.3435(5)
H10_14 H 0.0000 0.7444 0.3510
C21_14 C 0.0000 0.7015(5) 0.2985(5)
C22_14 C 0.0000 0.7360(2) 0.2640(2)
C23_14 C 0.0000 0.8981(8) 0.1019(8)
C24_14 C 0.0000 0.8632(8) 0.1368(8)
C25_14 C 0.0000 0.8769(5) 0.1817(7)
H11_14 H 0.0000 0.9068 0.1893
C26_14 C 0.0000 0.8435(5) 0.2144(7)
H12_14 H 0.0000 0.8510 0.2444
C27_14 C 0.0000 0.7985(5) 0.2015(5)
C28_14 C 0.0000 0.7640(2) 0.2360(2)
O8_14 O 0.0000 0.9383(3) 0.1188(2)
C29_14 C 0.0000 0.8183(7) 0.1231(5)
H13_14 H 0.0000 0.8107 0.0932
C30_14 C 0.0000 0.7856(7) 0.1565(5)
H14_14 H 0.0000 0.7556 0.1490
O9_14 O 0.0000 0.6188(2) 0.4383(3)
C31_14 C 0.0000 0.6231(5) 0.3183(7)
H15_14 H 0.0000 0.5932 0.3107
C32_14 C 0.0000 0.6565(5) 0.2856(7)
H16_14 H 0.0000 0.6490 0.2556
C17_15 C 1.0000 0.6019(8) 0.3981(8)
C18_15 C 1.0000 0.6368(8) 0.3632(8)
C19_15 C 1.0000 0.6817(7) 0.3769(5)
H9_15 H 1.0000 0.6893 0.4068
C20_15 C 1.0000 0.7144(7) 0.3435(5)
H10_15 H 1.0000 0.7444 0.3510
C21_15 C 1.0000 0.7015(5) 0.2985(5)
C22_15 C 1.0000 0.7360(2) 0.2640(2)
C23_15 C 1.0000 0.8981(8) 0.1019(8)
C24_15 C 1.0000 0.8632(8) 0.1368(8)
C25_15 C 1.0000 0.8769(5) 0.1817(7)
H11_15 H 1.0000 0.9068 0.1893
C26_15 C 1.0000 0.8435(5) 0.2144(7)
H12_15 H 1.0000 0.8510 0.2444
C27_15 C 1.0000 0.7985(5) 0.2015(5)
C28_15 C 1.0000 0.7640(2) 0.2360(2)
O8_15 O 1.0000 0.9383(3) 0.1188(2)
C29_15 C 1.0000 0.8183(7) 0.1231(5)
H13_15 H 1.0000 0.8107 0.0932
C30_15 C 1.0000 0.7856(7) 0.1565(5)
H14_15 H 1.0000 0.7556 0.1490
O9_15 O 1.0000 0.6188(2) 0.4383(3)
C31_15 C 1.0000 0.6231(5) 0.3183(7)
H15_15 H 1.0000 0.5932 0.3107
C32_15 C 1.0000 0.6565(5) 0.2856(7)
H16_15 H 1.0000 0.6490 0.2556
loop_
_geom_bond_atom_site_label_1
_geom_bond_atom_site_label_2
_geom_bond_site_symmetry_1
_geom_bond_site_symmetry_2
Hf8 Hf12 1_555 1_555
Hf8 Hf15 1_555 1_555
Hf10 Hf12 1_555 1_555
Hf10 Hf15 1_555 1_555
Hf1 O1 1_555 1_555
O1 C1 1_555 1_555
O2 Hf1 1_555 1_555
C1 C2 1_555 1_555
C2 C3 1_555 1_555
C3 H1 1_555 1_555
C4 C3 1_555 1_555
H2 C4 1_555 1_555
C5 C4 1_555 1_555
C6 C5 1_555 1_555
O3 C7 1_555 1_555
C7 C8 1_555 1_555
C8 C9 1_555 1_555
C9 H3 1_555 1_555
C10 C9 1_555 1_555
H4 C10 1_555 1_555
C11 C10 1_555 1_555
C12 C6 1_555 1_555
O4 C7 1_555 1_555
C13 C8 1_555 1_555
H5 C13 1_555 1_555
C14 C11 1_555 1_555
H6 C14 1_555 1_555
O5 C1 1_555 1_555
C15 C2 1_555 1_555
H7 C15 1_555 1_555
C16 C5 1_555 1_555
H8 C16 1_555 1_555
Hf2 O3 1_555 1_555
O6 Hf2 1_555 1_555
C17 O6 1_555 1_555
C18 C17 1_555 1_555
C19 C18 1_555 1_555
H9 C19 1_555 1_555
C20 C19 1_555 1_555
H10 C20 1_555 1_555
C21 C20 1_555 1_555
C22 C21 1_555 1_555
O7 C23 1_555 1_555
C23 C24 1_555 1_555
C24 C25 1_555 1_555
C25 H11 1_555 1_555
C26 C25 1_555 1_555
H12 C26 1_555 1_555
C27 C26 1_555 1_555
C28 C22 1_555 1_555
O8 C23 1_555 1_555
C29 C24 1_555 1_555
H13 C29 1_555 1_555
C30 C27 1_555 1_555
H14 C30 1_555 1_555
O9 C17 1_555 1_555
C31 C18 1_555 1_555
H15 C31 1_555 1_555
C32 C21 1_555 1_555
H16 C32 1_555 1_555
Hf3 O10 1_555 1_555
O10 C33 1_555 1_555
C33 C34 1_555 1_555
C34 C35 1_555 1_555
C35 H17 1_555 1_555
C36 C35 1_555 1_555
H18 C36 1_555 1_555
C37 C36 1_555 1_555
C38 C37 1_555 1_555
O11 Hf1 1_555 1_555
C39 O11 1_555 1_555
C40 C39 1_555 1_555
C41 C40 1_555 1_555
H19 C41 1_555 1_555
C42 C41 1_555 1_555
H20 C42 1_555 1_555
C43 C42 1_555 1_555
C44 C38 1_555 1_555
O12 C39 1_555 1_555
C45 C40 1_555 1_555
H21 C45 1_555 1_555
C46 C43 1_555 1_555
H22 C46 1_555 1_555
O13 C33 1_555 1_555
C47 C34 1_555 1_555
H23 C47 1_555 1_555
C48 C37 1_555 1_555
H24 C48 1_555 1_555
O14 Hf1 1_555 1_555
O15 Hf1 1_555 1_555
O16 Hf1 1_555 1_555
Hf4 O7 1_555 1_555
Hf5 Hf1 1_555 1_555
Hf6 Hf1 1_555 1_555
Hf8 Hf3 1_555 1_555
Hf8_2 Hf2 1_555 1_555
Hf10 Hf3 1_555 1_555
Hf10_2 Hf2 1_555 1_555
Hf12 Hf3 1_555 1_555
Hf12_2 Hf2 1_555 1_555
Hf13 Hf1 1_555 1_555
Hf15 Hf3 1_555 1_555
Hf15_2 O4 1_555 1_555
Hf17 Hf1 1_555 1_555
Hf17_2 O8 1_555 1_555
O17 Hf1 1_555 1_555
O18 Hf1 1_555 1_555
O19 Hf3 1_555 1_555
O20 Hf2 1_555 1_555
O21 Hf2 1_555 1_555
O22 Hf3 1_555 1_555
O23 Hf3 1_555 1_555
O24 Hf2 1_555 1_555
O25 Hf3 1_555 1_555
O26 Hf3 1_555 1_555
O27 Hf2 1_555 1_555
O28 Hf2 1_555 1_555
O29 Hf3 1_555 1_555
O30 Hf3 1_555 1_555
O31 Hf2 1_555 1_555
O2 Hf6 1_555 1_555
O2 Hf17 1_555 1_555
C11 C12 1_555 1_555
C13 C14 1_555 1_555
O5 Hf17 1_555 1_555
C15 C16 1_555 1_555
Hf2 Hf15_2 1_555 1_555
C27 C28 1_555 1_555
C29 C30 1_555 1_555
O9 Hf12_2 1_555 1_555
C31 C32 1_555 1_555
C43 C44 1_555 1_555
O12 Hf13 1_555 1_555
C45 C46 1_555 1_555
O13 Hf15 1_555 1_555
C47 C48 1_555 1_555
O14 Hf6 1_555 1_555
O14 Hf13 1_555 1_555
O15 Hf5 1_555 1_555
O15 Hf13 1_555 1_555
O16 Hf5 1_555 1_555
O16 Hf17 1_555 1_555
Hf4 Hf17_2 1_555 1_555
Hf5 Hf13 1_555 1_555
Hf5 Hf17 1_555 1_555
Hf6 Hf13 1_555 1_555
Hf6 Hf17 1_555 1_555
Hf8 O26 1_555 1_555
Hf8 O30 1_555 1_555
Hf8_2 Hf12_2 1_555 1_555
Hf8_2 Hf15_2 1_555 1_555
Hf8_2 O27 1_555 1_555
Hf8_2 O31 1_555 1_555
Hf10 O25 1_555 1_555
Hf10 O29 1_555 1_555
Hf10_2 Hf12_2 1_555 1_555
Hf10_2 Hf15_2 1_555 1_555
Hf10_2 O24 1_555 1_555
Hf10_2 O28 1_555 1_555
Hf12 O29 1_555 1_555
Hf12 O30 1_555 1_555
Hf12_2 O24 1_555 1_555
Hf12_2 O27 1_555 1_555
Hf15 O25 1_555 1_555
Hf15 O26 1_555 1_555
Hf15_2 O28 1_555 1_555
Hf15_2 O31 1_555 1_555
Hf5_2 Hf13_2 1_555 1_555
Hf5_2 Hf17_2 1_555 1_555
Hf6_2 Hf13_2 1_555 1_555
Hf6_2 Hf17_2 1_555 1_555
O6_2 Hf4 1_555 1_555
C17_2 O6_2 1_555 1_555
C18_2 C17_2 1_555 1_555
C19_2 C18_2 1_555 1_555
H9_2 C19_2 1_555 1_555
C20_2 C19_2 1_555 1_555
H10_2 C20_2 1_555 1_555
C21_2 C20_2 1_555 1_555
C22_2 C21_2 1_555 1_555
O23 C23_2 1_555 1_555
C23_2 C24_2 1_555 1_555
C24_2 C25_2 1_555 1_555
C25_2 H11_2 1_555 1_555
C26_2 C25_2 1_555 1_555
H12_2 C26_2 1_555 1_555
C27_2 C26_2 1_555 1_555
C28_2 C22_2 1_555 1_555
O8_2 C23_2 1_555 1_555
C29_2 C24_2 1_555 1_555
H13_2 C29_2 1_555 1_555
C30_2 C27_2 1_555 1_555
H14_2 C30_2 1_555 1_555
O9_2 C17_2 1_555 1_555
C31_2 C18_2 1_555 1_555
H15_2 C31_2 1_555 1_555
C32_2 C21_2 1_555 1_555
H16_2 C32_2 1_555 1_555
Hf5_2 Hf4 1_555 1_555
Hf6_2 Hf4 1_555 1_555
Hf13_2 Hf4 1_555 1_555
Hf12 O8_2 1_555 1_555
O20_2 Hf4 1_555 1_555
O21_2 Hf4 1_555 1_555
O24_2 Hf4 1_555 1_555
O27_2 Hf4 1_555 1_555
O28_2 Hf4 1_555 1_555
O31_2 Hf4 1_555 1_555
C27_2 C28_2 1_555 1_555
C29_2 C30_2 1_555 1_555
O9_2 Hf13_2 1_555 1_555
C31_2 C32_2 1_555 1_555
Hf5_2 O27_2 1_555 1_555
Hf5_2 O31_2 1_555 1_555
Hf6_2 O24_2 1_555 1_555
Hf6_2 O28_2 1_555 1_555
Hf13_2 O24_2 1_555 1_555
Hf13_2 O27_2 1_555 1_555
Hf17_2 O28_2 1_555 1_555
Hf17_2 O31_2 1_555 1_555
Hf1_2 O1_2 1_555 1_555
O1_2 C1_2 1_555 1_555
O2_2 Hf1_2 1_555 1_555
C1_2 C2_2 1_555 1_555
C2_2 C3_2 1_555 1_555
C3_2 H1_2 1_555 1_555
C4_2 C3_2 1_555 1_555
H2_2 C4_2 1_555 1_555
C5_2 C4_2 1_555 1_555
C6_2 C5_2 1_555 1_555
O21 C7_2 1_555 1_555
C7_2 C8_2 1_555 1_555
C8_2 C9_2 1_555 1_555
C9_2 H3_2 1_555 1_555
C10_2 C9_2 1_555 1_555
H4_2 C10_2 1_555 1_555
C11_2 C10_2 1_555 1_555
C12_2 C6_2 1_555 1_555
O4_2 C7_2 1_555 1_555
C13_2 C8_2 1_555 1_555
H5_2 C13_2 1_555 1_555
C14_2 C11_2 1_555 1_555
H6_2 C14_2 1_555 1_555
O5_2 C1_2 1_555 1_555
C15_2 C2_2 1_555 1_555
H7_2 C15_2 1_555 1_555
C16_2 C5_2 1_555 1_555
H8_2 C16_2 1_555 1_555
C17_3 O20 1_555 1_555
C18_3 C17_3 1_555 1_555
C19_3 C18_3 1_555 1_555
H9_3 C19_3 1_555 1_555
C20_3 C19_3 1_555 1_555
H10_3 C20_3 1_555 1_555
C21_3 C20_3 1_555 1_555
C22_3 C21_3 1_555 1_555
O7_2 C23_3 1_555 1_555
C23_3 C24_3 1_555 1_555
C24_3 C25_3 1_555 1_555
C25_3 H11_3 1_555 1_555
C26_3 C25_3 1_555 1_555
H12_3 C26_3 1_555 1_555
C27_3 C26_3 1_555 1_555
C28_3 C22_3 1_555 1_555
O8_3 C23_3 1_555 1_555
C29_3 C24_3 1_555 1_555
H13_3 C29_3 1_555 1_555
C30_3 C27_3 1_555 1_555
H14_3 C30_3 1_555 1_555
O9_3 C17_3 1_555 1_555
C31_3 C18_3 1_555 1_555
H15_3 C31_3 1_555 1_555
C32_3 C21_3 1_555 1_555
H16_3 C32_3 1_555 1_555
O22 C33_2 1_555 1_555
C33_2 C34_2 1_555 1_555
C34_2 C35_2 1_555 1_555
C35_2 H17_2 1_555 1_555
C36_2 C35_2 1_555 1_555
H18_2 C36_2 1_555 1_555
C37_2 C36_2 1_555 1_555
C38_2 C37_2 1_555 1_555
O11_2 Hf1_2 1_555 1_555
C39_2 O11_2 1_555 1_555
C40_2 C39_2 1_555 1_555
C41_2 C40_2 1_555 1_555
H19_2 C41_2 1_555 1_555
C42_2 C41_2 1_555 1_555
H20_2 C42_2 1_555 1_555
C43_2 C42_2 1_555 1_555
C44_2 C38_2 1_555 1_555
O12_2 C39_2 1_555 1_555
C45_2 C40_2 1_555 1_555
H21_2 C45_2 1_555 1_555
C46_2 C43_2 1_555 1_555
H22_2 C46_2 1_555 1_555
O13_2 C33_2 1_555 1_555
C47_2 C34_2 1_555 1_555
H23_2 C47_2 1_555 1_555
C48_2 C37_2 1_555 1_555
H24_2 C48_2 1_555 1_555
O14_2 Hf1_2 1_555 1_555
O15_2 Hf1_2 1_555 1_555
O16_2 Hf1_2 1_555 1_555
Hf4_2 O7_2 1_555 1_555
Hf5_3 Hf1_2 1_555 1_555
Hf6_3 Hf1_2 1_555 1_555
Hf13_3 Hf1_2 1_555 1_555
Hf10_2 O4_2 1_555 1_555
Hf17_3 Hf1_2 1_555 1_555
Hf17_4 O8_3 1_555 1_555
O17_2 Hf1_2 1_555 1_555
O18_2 Hf1_2 1_555 1_555
O2_2 Hf6_3 1_555 1_555
O2_2 Hf17_3 1_555 1_555
C11_2 C12_2 1_555 1_555
C13_2 C14_2 1_555 1_555
O5_2 Hf17_3 1_555 1_555
C15_2 C16_2 1_555 1_555
C27_3 C28_3 1_555 1_555
C29_3 C30_3 1_555 1_555
O9_3 Hf8_2 1_555 1_555
C31_3 C32_3 1_555 1_555
C43_2 C44_2 1_555 1_555
O12_2 Hf13_3 1_555 1_555
C45_2 C46_2 1_555 1_555
O13_2 Hf10 1_555 1_555
C47_2 C48_2 1_555 1_555
O14_2 Hf6_3 1_555 1_555
O14_2 Hf13_3 1_555 1_555
O15_2 Hf5_3 1_555 1_555
O15_2 Hf13_3 1_555 1_555
O16_2 Hf5_3 1_555 1_555
O16_2 Hf17_3 1_555 1_555
Hf4_2 Hf17_4 1_555 1_555
Hf5_3 Hf13_3 1_555 1_555
Hf5_3 Hf17_3 1_555 1_555
Hf6_3 Hf13_3 1_555 1_555
Hf6_3 Hf17_3 1_555 1_555
Hf5_4 Hf13_4 1_555 1_555
Hf5_4 Hf17_4 1_555 1_555
Hf6_4 Hf13_4 1_555 1_555
Hf6_4 Hf17_4 1_555 1_555
O2_3 Hf4_2 1_555 1_555
O19 C33_3 1_555 1_555
C33_3 C34_3 1_555 1_555
C34_3 C35_3 1_555 1_555
C35_3 H17_3 1_555 1_555
C36_3 C35_3 1_555 1_555
H18_3 C36_3 1_555 1_555
C37_3 C36_3 1_555 1_555
C38_3 C37_3 1_555 1_555
O11_3 Hf4_2 1_555 1_555
C39_3 O11_3 1_555 1_555
C40_3 C39_3 1_555 1_555
C41_3 C40_3 1_555 1_555
H19_3 C41_3 1_555 1_555
C42_3 C41_3 1_555 1_555
H20_3 C42_3 1_555 1_555
C43_3 C42_3 1_555 1_555
C44_3 C38_3 1_555 1_555
O12_3 C39_3 1_555 1_555
C45_3 C40_3 1_555 1_555
H21_3 C45_3 1_555 1_555
C46_3 C43_3 1_555 1_555
H22_3 C46_3 1_555 1_555
O13_3 C33_3 1_555 1_555
C47_3 C34_3 1_555 1_555
H23_3 C47_3 1_555 1_555
C48_3 C37_3 1_555 1_555
H24_3 C48_3 1_555 1_555
O14_3 Hf4_2 1_555 1_555
O15_3 Hf4_2 1_555 1_555
O16_3 Hf4_2 1_555 1_555
Hf6_4 Hf4_2 1_555 1_555
Hf5_4 Hf4_2 1_555 1_555
Hf13_4 Hf4_2 1_555 1_555
O17_3 Hf4_2 1_555 1_555
O18_3 Hf4_2 1_555 1_555
O2_3 Hf5_4 1_555 1_555
O2_3 Hf17_4 1_555 1_555
C43_3 C44_3 1_555 1_555
O12_3 Hf13_4 1_555 1_555
C45_3 C46_3 1_555 1_555
O13_3 Hf8 1_555 1_555
C47_3 C48_3 1_555 1_555
O14_3 Hf5_4 1_555 1_555
O14_3 Hf13_4 1_555 1_555
O15_3 Hf6_4 1_555 1_555
O15_3 Hf13_4 1_555 1_555
O16_3 Hf6_4 1_555 1_555
O16_3 Hf17_4 1_555 1_555
O17 C1_3 1_555 1_555
C1_3 C2_3 1_555 1_555
C2_3 C3_3 1_555 1_555
C3_3 H1_3 1_555 1_555
C4_3 C3_3 1_555 1_555
H2_3 C4_3 1_555 1_555
C5_3 C4_3 1_555 1_555
C6_3 C5_3 1_555 1_555
O18_2 C7_3 1_555 1_555
C7_3 C8_3 1_555 1_555
C8_3 C9_3 1_555 1_555
C9_3 H3_3 1_555 1_555
C10_3 C9_3 1_555 1_555
H4_3 C10_3 1_555 1_555
C11_3 C10_3 1_555 1_555
C12_3 C6_3 1_555 1_555
O4_3 C7_3 1_555 1_555
C13_3 C8_3 1_555 1_555
H5_3 C13_3 1_555 1_555
C14_3 C11_3 1_555 1_555
H6_3 C14_3 1_555 1_555
O5_3 C1_3 1_555 1_555
C15_3 C2_3 1_555 1_555
H7_3 C15_3 1_555 1_555
C16_3 C5_3 1_555 1_555
H8_3 C16_3 1_555 1_555
C17_4 O17_2 1_555 1_555
C18_4 C17_4 1_555 1_555
C19_4 C18_4 1_555 1_555
H9_4 C19_4 1_555 1_555
C20_4 C19_4 1_555 1_555
H10_4 C20_4 1_555 1_555
C21_4 C20_4 1_555 1_555
C22_4 C21_4 1_555 1_555
O21_2 C23_4 1_555 1_555
C23_4 C24_4 1_555 1_555
C24_4 C25_4 1_555 1_555
C25_4 H11_4 1_555 1_555
C26_4 C25_4 1_555 1_555
H12_4 C26_4 1_555 1_555
C27_4 C26_4 1_555 1_555
C28_4 C22_4 1_555 1_555
O8_4 C23_4 1_555 1_555
C29_4 C24_4 1_555 1_555
H13_4 C29_4 1_555 1_555
C30_4 C27_4 1_555 1_555
H14_4 C30_4 1_555 1_555
O9_4 C17_4 1_555 1_555
C31_4 C18_4 1_555 1_555
H15_4 C31_4 1_555 1_555
C32_4 C21_4 1_555 1_555
H16_4 C32_4 1_555 1_555
O17_3 C33_4 1_555 1_555
C33_4 C34_4 1_555 1_555
C34_4 C35_4 1_555 1_555
C35_4 H17_4 1_555 1_555
C36_4 C35_4 1_555 1_555
H18_4 C36_4 1_555 1_555
C37_4 C36_4 1_555 1_555
C38_4 C37_4 1_555 1_555
C39_4 O18 1_555 1_555
C40_4 C39_4 1_555 1_555
C41_4 C40_4 1_555 1_555
H19_4 C41_4 1_555 1_555
C42_4 C41_4 1_555 1_555
H20_4 C42_4 1_555 1_555
C43_4 C42_4 1_555 1_555
C44_4 C38_4 1_555 1_555
O12_4 C39_4 1_555 1_555
C45_4 C40_4 1_555 1_555
H21_4 C45_4 1_555 1_555
C46_4 C43_4 1_555 1_555
H22_4 C46_4 1_555 1_555
O13_4 C33_4 1_555 1_555
C47_4 C34_4 1_555 1_555
H23_4 C47_4 1_555 1_555
C48_4 C37_4 1_555 1_555
H24_4 C48_4 1_555 1_555
Hf5_3 O4_3 1_555 1_555
Hf6_2 O8_4 1_555 1_555
C11_3 C12_3 1_555 1_555
C13_3 C14_3 1_555 1_555
O5_3 Hf6 1_555 1_555
C15_3 C16_3 1_555 1_555
C27_4 C28_4 1_555 1_555
C29_4 C30_4 1_555 1_555
O9_4 Hf6_3 1_555 1_555
C31_4 C32_4 1_555 1_555
C43_4 C44_4 1_555 1_555
O12_4 Hf5 1_555 1_555
C45_4 C46_4 1_555 1_555
O13_4 Hf5_4 1_555 1_555
C47_4 C48_4 1_555 1_555
C17_5 O18_3 1_555 1_555
C18_5 C17_5 1_555 1_555
C19_5 C18_5 1_555 1_555
H9_5 C19_5 1_555 1_555
C20_5 C19_5 1_555 1_555
H10_5 C20_5 1_555 1_555
C21_5 C20_5 1_555 1_555
C22_5 C21_5 1_555 1_555
O20_2 C23_5 1_555 1_555
C23_5 C24_5 1_555 1_555
C24_5 C25_5 1_555 1_555
C25_5 H11_5 1_555 1_555
C26_5 C25_5 1_555 1_555
H12_5 C26_5 1_555 1_555
C27_5 C26_5 1_555 1_555
C28_5 C22_5 1_555 1_555
O8_5 C23_5 1_555 1_555
C29_5 C24_5 1_555 1_555
H13_5 C29_5 1_555 1_555
C30_5 C27_5 1_555 1_555
H14_5 C30_5 1_555 1_555
O9_5 C17_5 1_555 1_555
C31_5 C18_5 1_555 1_555
H15_5 C31_5 1_555 1_555
C32_5 C21_5 1_555 1_555
H16_5 C32_5 1_555 1_555
Hf5_2 O8_5 1_555 1_555
C27_5 C28_5 1_555 1_555
C29_5 C30_5 1_555 1_555
O9_5 Hf6_4 1_555 1_555
C31_5 C32_5 1_555 1_555
Hf8_3 Hf12_3 1_555 1_555
Hf10_3 Hf12_4 1_555 1_555
Hf8_4 Hf15_3 1_555 1_555
Hf10_4 Hf15_4 1_555 1_555
O6_3 Hf2_2 1_555 1_555
C17_6 O6_3 1_555 1_555
C18_6 C17_6 1_555 1_555
C19_6 C18_6 1_555 1_555
H9_6 C19_6 1_555 1_555
C20_6 C19_6 1_555 1_555
H10_6 C20_6 1_555 1_555
C21_6 C20_6 1_555 1_555
C22_6 C21_6 1_555 1_555
O7_3 C23_6 1_555 1_555
C23_6 C24_6 1_555 1_555
C24_6 C25_6 1_555 1_555
C25_6 H11_6 1_555 1_555
C26_6 C25_6 1_555 1_555
H12_6 C26_6 1_555 1_555
C27_6 C26_6 1_555 1_555
C28_6 C22_6 1_555 1_555
O8_6 C23_6 1_555 1_555
C29_6 C24_6 1_555 1_555
H13_6 C29_6 1_555 1_555
C30_6 C27_6 1_555 1_555
H14_6 C30_6 1_555 1_555
O9_6 C17_6 1_555 1_555
C31_6 C18_6 1_555 1_555
H15_6 C31_6 1_555 1_555
C32_6 C21_6 1_555 1_555
H16_6 C32_6 1_555 1_555
Hf5_3 O7_3 1_555 1_555
Hf8_3 Hf3_2 1_555 1_555
Hf8_5 Hf2_2 1_555 1_555
Hf12_3 Hf3_2 1_555 1_555
Hf12_5 Hf2_2 1_555 1_555
Hf17_3 O8_6 1_555 1_555
O19_2 Hf3_2 1_555 1_555
O20_3 Hf2_2 1_555 1_555
O23_2 Hf3_2 1_555 1_555
O27_3 Hf2_2 1_555 1_555
O30_2 Hf3_2 1_555 1_555
C27_6 C28_6 1_555 1_555
C29_6 C30_6 1_555 1_555
O9_6 Hf12_5 1_555 1_555
C31_6 C32_6 1_555 1_555
Hf8_3 O30_2 1_555 1_555
Hf8_5 Hf12_5 1_555 1_555
Hf8_5 O27_3 1_555 1_555
Hf12_3 O30_2 1_555 1_555
Hf12_5 O27_3 1_555 1_555
O6_4 Hf2_3 1_555 1_555
C17_7 O6_4 1_555 1_555
C18_7 C17_7 1_555 1_555
C19_7 C18_7 1_555 1_555
H9_7 C19_7 1_555 1_555
C20_7 C19_7 1_555 1_555
H10_7 C20_7 1_555 1_555
C21_7 C20_7 1_555 1_555
C22_7 C21_7 1_555 1_555
O7_4 C23_7 1_555 1_555
C23_7 C24_7 1_555 1_555
C24_7 C25_7 1_555 1_555
C25_7 H11_7 1_555 1_555
C26_7 C25_7 1_555 1_555
H12_7 C26_7 1_555 1_555
C27_7 C26_7 1_555 1_555
C28_7 C22_7 1_555 1_555
O8_7 C23_7 1_555 1_555
C29_7 C24_7 1_555 1_555
H13_7 C29_7 1_555 1_555
C30_7 C27_7 1_555 1_555
H14_7 C30_7 1_555 1_555
O9_7 C17_7 1_555 1_555
C31_7 C18_7 1_555 1_555
H15_7 C31_7 1_555 1_555
C32_7 C21_7 1_555 1_555
H16_7 C32_7 1_555 1_555
Hf5_4 O7_4 1_555 1_555
Hf10_3 Hf3_3 1_555 1_555
Hf10_5 Hf2_3 1_555 1_555
Hf12_4 Hf3_3 1_555 1_555
Hf12_6 Hf2_3 1_555 1_555
Hf17_4 O8_7 1_555 1_555
O21_3 Hf2_3 1_555 1_555
O22_2 Hf3_3 1_555 1_555
O23_3 Hf3_3 1_555 1_555
O24_3 Hf2_3 1_555 1_555
O29_2 Hf3_3 1_555 1_555
C27_7 C28_7 1_555 1_555
C29_7 C30_7 1_555 1_555
O9_7 Hf12_6 1_555 1_555
C31_7 C32_7 1_555 1_555
Hf10_3 O29_2 1_555 1_555
Hf10_5 Hf12_6 1_555 1_555
Hf10_5 O24_3 1_555 1_555
Hf12_4 O29_2 1_555 1_555
Hf12_6 O24_3 1_555 1_555
Hf6_3 O1_3 1_555 1_555
O1_3 C1_4 1_555 1_555
C1_4 C2_4 1_555 1_555
C2_4 C3_4 1_555 1_555
C3_4 H1_4 1_555 1_555
C4_4 C3_4 1_555 1_555
H2_4 C4_4 1_555 1_555
C5_4 C4_4 1_555 1_555
C6_4 C5_4 1_555 1_555
O3_2 C7_4 1_555 1_555
C7_4 C8_4 1_555 1_555
C8_4 C9_4 1_555 1_555
C9_4 H3_4 1_555 1_555
C10_4 C9_4 1_555 1_555
H4_4 C10_4 1_555 1_555
C11_4 C10_4 1_555 1_555
C12_4 C6_4 1_555 1_555
O4_4 C7_4 1_555 1_555
C13_4 C8_4 1_555 1_555
H5_4 C13_4 1_555 1_555
C14_4 C11_4 1_555 1_555
H6_4 C14_4 1_555 1_555
O5_4 C1_4 1_555 1_555
C15_4 C2_4 1_555 1_555
H7_4 C15_4 1_555 1_555
C16_4 C5_4 1_555 1_555
H8_4 C16_4 1_555 1_555
Hf2_4 O3_2 1_555 1_555
Hf3_4 O10_2 1_555 1_555
O10_2 C33_5 1_555 1_555
C33_5 C34_5 1_555 1_555
C34_5 C35_5 1_555 1_555
C35_5 H17_5 1_555 1_555
C36_5 C35_5 1_555 1_555
H18_5 C36_5 1_555 1_555
C37_5 C36_5 1_555 1_555
C38_5 C37_5 1_555 1_555
O11_4 Hf6_3 1_555 1_555
C39_5 O11_4 1_555 1_555
C40_5 C39_5 1_555 1_555
C41_5 C40_5 1_555 1_555
H19_5 C41_5 1_555 1_555
C42_5 C41_5 1_555 1_555
H20_5 C42_5 1_555 1_555
C43_5 C42_5 1_555 1_555
C44_5 C38_5 1_555 1_555
O12_5 C39_5 1_555 1_555
C45_5 C40_5 1_555 1_555
H21_5 C45_5 1_555 1_555
C46_5 C43_5 1_555 1_555
H22_5 C46_5 1_555 1_555
O13_5 C33_5 1_555 1_555
C47_5 C34_5 1_555 1_555
H23_5 C47_5 1_555 1_555
C48_5 C37_5 1_555 1_555
H24_5 C48_5 1_555 1_555
Hf8_4 Hf3_4 1_555 1_555
Hf8_6 Hf2_4 1_555 1_555
Hf15_3 Hf3_4 1_555 1_555
Hf15_5 O4_4 1_555 1_555
O19_3 Hf3_4 1_555 1_555
O20_4 Hf2_4 1_555 1_555
O26_2 Hf3_4 1_555 1_555
O31_3 Hf2_4 1_555 1_555
C11_4 C12_4 1_555 1_555
C13_4 C14_4 1_555 1_555
O5_4 Hf17_3 1_555 1_555
C15_4 C16_4 1_555 1_555
Hf2_4 Hf15_5 1_555 1_555
C43_5 C44_5 1_555 1_555
O12_5 Hf13_3 1_555 1_555
C45_5 C46_5 1_555 1_555
O13_5 Hf15_3 1_555 1_555
C47_5 C48_5 1_555 1_555
Hf8_4 O26_2 1_555 1_555
Hf8_6 Hf15_5 1_555 1_555
Hf8_6 O31_3 1_555 1_555
Hf15_3 O26_2 1_555 1_555
Hf15_5 O31_3 1_555 1_555
Hf6_4 O1_4 1_555 1_555
O1_4 C1_5 1_555 1_555
C1_5 C2_5 1_555 1_555
C2_5 C3_5 1_555 1_555
C3_5 H1_5 1_555 1_555
C4_5 C3_5 1_555 1_555
H2_5 C4_5 1_555 1_555
C5_5 C4_5 1_555 1_555
C6_5 C5_5 1_555 1_555
O3_3 C7_5 1_555 1_555
C7_5 C8_5 1_555 1_555
C8_5 C9_5 1_555 1_555
C9_5 H3_5 1_555 1_555
C10_5 C9_5 1_555 1_555
H4_5 C10_5 1_555 1_555
C11_5 C10_5 1_555 1_555
C12_5 C6_5 1_555 1_555
O4_5 C7_5 1_555 1_555
C13_5 C8_5 1_555 1_555
H5_5 C13_5 1_555 1_555
C14_5 C11_5 1_555 1_555
H6_5 C14_5 1_555 1_555
O5_5 C1_5 1_555 1_555
C15_5 C2_5 1_555 1_555
H7_5 C15_5 1_555 1_555
C16_5 C5_5 1_555 1_555
H8_5 C16_5 1_555 1_555
Hf2_5 O3_3 1_555 1_555
Hf3_5 O10_3 1_555 1_555
O10_3 C33_6 1_555 1_555
C33_6 C34_6 1_555 1_555
C34_6 C35_6 1_555 1_555
C35_6 H17_6 1_555 1_555
C36_6 C35_6 1_555 1_555
H18_6 C36_6 1_555 1_555
C37_6 C36_6 1_555 1_555
C38_6 C37_6 1_555 1_555
O11_5 Hf6_4 1_555 1_555
C39_6 O11_5 1_555 1_555
C40_6 C39_6 1_555 1_555
C41_6 C40_6 1_555 1_555
H19_6 C41_6 1_555 1_555
C42_6 C41_6 1_555 1_555
H20_6 C42_6 1_555 1_555
C43_6 C42_6 1_555 1_555
C44_6 C38_6 1_555 1_555
O12_6 C39_6 1_555 1_555
C45_6 C40_6 1_555 1_555
H21_6 C45_6 1_555 1_555
C46_6 C43_6 1_555 1_555
H22_6 C46_6 1_555 1_555
O13_6 C33_6 1_555 1_555
C47_6 C34_6 1_555 1_555
H23_6 C47_6 1_555 1_555
C48_6 C37_6 1_555 1_555
H24_6 C48_6 1_555 1_555
Hf10_4 Hf3_5 1_555 1_555
Hf10_6 Hf2_5 1_555 1_555
Hf15_4 Hf3_5 1_555 1_555
Hf15_6 O4_5 1_555 1_555
O21_4 Hf2_5 1_555 1_555
O22_3 Hf3_5 1_555 1_555
O25_2 Hf3_5 1_555 1_555
O28_3 Hf2_5 1_555 1_555
C11_5 C12_5 1_555 1_555
C13_5 C14_5 1_555 1_555
O5_5 Hf17_4 1_555 1_555
C15_5 C16_5 1_555 1_555
Hf2_5 Hf15_6 1_555 1_555
C43_6 C44_6 1_555 1_555
O12_6 Hf13_4 1_555 1_555
C45_6 C46_6 1_555 1_555
O13_6 Hf15_4 1_555 1_555
C47_6 C48_6 1_555 1_555
Hf10_4 O25_2 1_555 1_555
Hf10_6 Hf15_6 1_555 1_555
Hf10_6 O28_3 1_555 1_555
Hf15_4 O25_2 1_555 1_555
Hf15_6 O28_3 1_555 1_555
O6_5 Hf5_3 1_555 1_555
C17_8 O6_5 1_555 1_555
C18_8 C17_8 1_555 1_555
C19_8 C18_8 1_555 1_555
H9_8 C19_8 1_555 1_555
C20_8 C19_8 1_555 1_555
H10_8 C20_8 1_555 1_555
C21_8 C20_8 1_555 1_555
C22_8 C21_8 1_555 1_555
O23_2 C23_8 1_555 1_555
C23_8 C24_8 1_555 1_555
C24_8 C25_8 1_555 1_555
C25_8 H11_8 1_555 1_555
C26_8 C25_8 1_555 1_555
H12_8 C26_8 1_555 1_555
C27_8 C26_8 1_555 1_555
C28_8 C22_8 1_555 1_555
O8_8 C23_8 1_555 1_555
C29_8 C24_8 1_555 1_555
H13_8 C29_8 1_555 1_555
C30_8 C27_8 1_555 1_555
H14_8 C30_8 1_555 1_555
O9_8 C17_8 1_555 1_555
C31_8 C18_8 1_555 1_555
H15_8 C31_8 1_555 1_555
C32_8 C21_8 1_555 1_555
H16_8 C32_8 1_555 1_555
Hf12_3 O8_8 1_555 1_555
C27_8 C28_8 1_555 1_555
C29_8 C30_8 1_555 1_555
O9_8 Hf13_3 1_555 1_555
C31_8 C32_8 1_555 1_555
O6_6 Hf5_4 1_555 1_555
C17_9 O6_6 1_555 1_555
C18_9 C17_9 1_555 1_555
C19_9 C18_9 1_555 1_555
H9_9 C19_9 1_555 1_555
C20_9 C19_9 1_555 1_555
H10_9 C20_9 1_555 1_555
C21_9 C20_9 1_555 1_555
C22_9 C21_9 1_555 1_555
O23_3 C23_9 1_555 1_555
C23_9 C24_9 1_555 1_555
C24_9 C25_9 1_555 1_555
C25_9 H11_9 1_555 1_555
C26_9 C25_9 1_555 1_555
H12_9 C26_9 1_555 1_555
C27_9 C26_9 1_555 1_555
C28_9 C22_9 1_555 1_555
O8_9 C23_9 1_555 1_555
C29_9 C24_9 1_555 1_555
H13_9 C29_9 1_555 1_555
C30_9 C27_9 1_555 1_555
H14_9 C30_9 1_555 1_555
O9_9 C17_9 1_555 1_555
C31_9 C18_9 1_555 1_555
H15_9 C31_9 1_555 1_555
C32_9 C21_9 1_555 1_555
H16_9 C32_9 1_555 1_555
Hf12_4 O8_9 1_555 1_555
C27_9 C28_9 1_555 1_555
C29_9 C30_9 1_555 1_555
O9_9 Hf13_4 1_555 1_555
C31_9 C32_9 1_555 1_555
C17_10 O20_3 1_555 1_555
C18_10 C17_10 1_555 1_555
C19_10 C18_10 1_555 1_555
H9_10 C19_10 1_555 1_555
C20_10 C19_10 1_555 1_555
H10_10 C20_10 1_555 1_555
C21_10 C20_10 1_555 1_555
C22_10 C21_10 1_555 1_555
O7_5 C23_10 1_555 1_555
C23_10 C24_10 1_555 1_555
C24_10 C25_10 1_555 1_555
C25_10 H11_10 1_555 1_555
C26_10 C25_10 1_555 1_555
H12_10 C26_10 1_555 1_555
C27_10 C26_10 1_555 1_555
C28_10 C22_10 1_555 1_555
O8_10 C23_10 1_555 1_555
C29_10 C24_10 1_555 1_555
H13_10 C29_10 1_555 1_555
C30_10 C27_10 1_555 1_555
H14_10 C30_10 1_555 1_555
O9_10 C17_10 1_555 1_555
C31_10 C18_10 1_555 1_555
H15_10 C31_10 1_555 1_555
C32_10 C21_10 1_555 1_555
H16_10 C32_10 1_555 1_555
Hf6 O7_5 1_555 1_555
Hf17 O8_10 1_555 1_555
C27_10 C28_10 1_555 1_555
C29_10 C30_10 1_555 1_555
O9_10 Hf8_5 1_555 1_555
C31_10 C32_10 1_555 1_555
Hf5 O1_5 1_555 1_555
O1_5 C1_6 1_555 1_555
C1_6 C2_6 1_555 1_555
C2_6 C3_6 1_555 1_555
C3_6 H1_6 1_555 1_555
C4_6 C3_6 1_555 1_555
H2_6 C4_6 1_555 1_555
C5_6 C4_6 1_555 1_555
C6_6 C5_6 1_555 1_555
O21_3 C7_6 1_555 1_555
C7_6 C8_6 1_555 1_555
C8_6 C9_6 1_555 1_555
C9_6 H3_6 1_555 1_555
C10_6 C9_6 1_555 1_555
H4_6 C10_6 1_555 1_555
C11_6 C10_6 1_555 1_555
C12_6 C6_6 1_555 1_555
O4_6 C7_6 1_555 1_555
C13_6 C8_6 1_555 1_555
H5_6 C13_6 1_555 1_555
C14_6 C11_6 1_555 1_555
H6_6 C14_6 1_555 1_555
O5_6 C1_6 1_555 1_555
C15_6 C2_6 1_555 1_555
H7_6 C15_6 1_555 1_555
C16_6 C5_6 1_555 1_555
H8_6 C16_6 1_555 1_555
O22_2 C33_7 1_555 1_555
C33_7 C34_7 1_555 1_555
C34_7 C35_7 1_555 1_555
C35_7 H17_7 1_555 1_555
C36_7 C35_7 1_555 1_555
H18_7 C36_7 1_555 1_555
C37_7 C36_7 1_555 1_555
C38_7 C37_7 1_555 1_555
O11_6 Hf5 1_555 1_555
C39_7 O11_6 1_555 1_555
C40_7 C39_7 1_555 1_555
C41_7 C40_7 1_555 1_555
H19_7 C41_7 1_555 1_555
C42_7 C41_7 1_555 1_555
H20_7 C42_7 1_555 1_555
C43_7 C42_7 1_555 1_555
C44_7 C38_7 1_555 1_555
O12_7 C39_7 1_555 1_555
C45_7 C40_7 1_555 1_555
H21_7 C45_7 1_555 1_555
C46_7 C43_7 1_555 1_555
H22_7 C46_7 1_555 1_555
O13_7 C33_7 1_555 1_555
C47_7 C34_7 1_555 1_555
H23_7 C47_7 1_555 1_555
C48_7 C37_7 1_555 1_555
H24_7 C48_7 1_555 1_555
Hf10_5 O4_6 1_555 1_555
C11_6 C12_6 1_555 1_555
C13_6 C14_6 1_555 1_555
O5_6 Hf17 1_555 1_555
C15_6 C16_6 1_555 1_555
C43_7 C44_7 1_555 1_555
O12_7 Hf13 1_555 1_555
C45_7 C46_7 1_555 1_555
O13_7 Hf10_3 1_555 1_555
C47_7 C48_7 1_555 1_555
C17_11 O20_4 1_555 1_555
C18_11 C17_11 1_555 1_555
C19_11 C18_11 1_555 1_555
H9_11 C19_11 1_555 1_555
C20_11 C19_11 1_555 1_555
H10_11 C20_11 1_555 1_555
C21_11 C20_11 1_555 1_555
C22_11 C21_11 1_555 1_555
O7_6 C23_11 1_555 1_555
C23_11 C24_11 1_555 1_555
C24_11 C25_11 1_555 1_555
C25_11 H11_11 1_555 1_555
C26_11 C25_11 1_555 1_555
H12_11 C26_11 1_555 1_555
C27_11 C26_11 1_555 1_555
C28_11 C22_11 1_555 1_555
O8_11 C23_11 1_555 1_555
C29_11 C24_11 1_555 1_555
H13_11 C29_11 1_555 1_555
C30_11 C27_11 1_555 1_555
H14_11 C30_11 1_555 1_555
O9_11 C17_11 1_555 1_555
C31_11 C18_11 1_555 1_555
H15_11 C31_11 1_555 1_555
C32_11 C21_11 1_555 1_555
H16_11 C32_11 1_555 1_555
Hf6_2 O7_6 1_555 1_555
Hf17_2 O8_11 1_555 1_555
C27_11 C28_11 1_555 1_555
C29_11 C30_11 1_555 1_555
O9_11 Hf8_6 1_555 1_555
C31_11 C32_11 1_555 1_555
Hf5_2 O1_6 1_555 1_555
O1_6 C1_7 1_555 1_555
C1_7 C2_7 1_555 1_555
C2_7 C3_7 1_555 1_555
C3_7 H1_7 1_555 1_555
C4_7 C3_7 1_555 1_555
H2_7 C4_7 1_555 1_555
C5_7 C4_7 1_555 1_555
C6_7 C5_7 1_555 1_555
O21_4 C7_7 1_555 1_555
C7_7 C8_7 1_555 1_555
C8_7 C9_7 1_555 1_555
C9_7 H3_7 1_555 1_555
C10_7 C9_7 1_555 1_555
H4_7 C10_7 1_555 1_555
C11_7 C10_7 1_555 1_555
C12_7 C6_7 1_555 1_555
O4_7 C7_7 1_555 1_555
C13_7 C8_7 1_555 1_555
H5_7 C13_7 1_555 1_555
C14_7 C11_7 1_555 1_555
H6_7 C14_7 1_555 1_555
O5_7 C1_7 1_555 1_555
C15_7 C2_7 1_555 1_555
H7_7 C15_7 1_555 1_555
C16_7 C5_7 1_555 1_555
H8_7 C16_7 1_555 1_555
O22_3 C33_8 1_555 1_555
C33_8 C34_8 1_555 1_555
C34_8 C35_8 1_555 1_555
C35_8 H17_8 1_555 1_555
C36_8 C35_8 1_555 1_555
H18_8 C36_8 1_555 1_555
C37_8 C36_8 1_555 1_555
C38_8 C37_8 1_555 1_555
O11_7 Hf5_2 1_555 1_555
C39_8 O11_7 1_555 1_555
C40_8 C39_8 1_555 1_555
C41_8 C40_8 1_555 1_555
H19_8 C41_8 1_555 1_555
C42_8 C41_8 1_555 1_555
H20_8 C42_8 1_555 1_555
C43_8 C42_8 1_555 1_555
C44_8 C38_8 1_555 1_555
O12_8 C39_8 1_555 1_555
C45_8 C40_8 1_555 1_555
H21_8 C45_8 1_555 1_555
C46_8 C43_8 1_555 1_555
H22_8 C46_8 1_555 1_555
O13_8 C33_8 1_555 1_555
C47_8 C34_8 1_555 1_555
H23_8 C47_8 1_555 1_555
C48_8 C37_8 1_555 1_555
H24_8 C48_8 1_555 1_555
Hf10_6 O4_7 1_555 1_555
C11_7 C12_7 1_555 1_555
C13_7 C14_7 1_555 1_555
O5_7 Hf17_2 1_555 1_555
C15_7 C16_7 1_555 1_555
C43_8 C44_8 1_555 1_555
O12_8 Hf13_2 1_555 1_555
C45_8 C46_8 1_555 1_555
O13_8 Hf10_4 1_555 1_555
C47_8 C48_8 1_555 1_555
O19_2 C33_9 1_555 1_555
C33_9 C34_9 1_555 1_555
C34_9 C35_9 1_555 1_555
C35_9 H17_9 1_555 1_555
C36_9 C35_9 1_555 1_555
H18_9 C36_9 1_555 1_555
C37_9 C36_9 1_555 1_555
C38_9 C37_9 1_555 1_555
O11_8 Hf6 1_555 1_555
C39_9 O11_8 1_555 1_555
C40_9 C39_9 1_555 1_555
C41_9 C40_9 1_555 1_555
H19_9 C41_9 1_555 1_555
C42_9 C41_9 1_555 1_555
H20_9 C42_9 1_555 1_555
C43_9 C42_9 1_555 1_555
C44_9 C38_9 1_555 1_555
O12_9 C39_9 1_555 1_555
C45_9 C40_9 1_555 1_555
H21_9 C45_9 1_555 1_555
C46_9 C43_9 1_555 1_555
H22_9 C46_9 1_555 1_555
O13_9 C33_9 1_555 1_555
C47_9 C34_9 1_555 1_555
H23_9 C47_9 1_555 1_555
C48_9 C37_9 1_555 1_555
H24_9 C48_9 1_555 1_555
C43_9 C44_9 1_555 1_555
O12_9 Hf13 1_555 1_555
C45_9 C46_9 1_555 1_555
O13_9 Hf8_3 1_555 1_555
C47_9 C48_9 1_555 1_555
O19_3 C33_10 1_555 1_555
C33_10 C34_10 1_555 1_555
C34_10 C35_10 1_555 1_555
C35_10 H17_10 1_555 1_555
C36_10 C35_10 1_555 1_555
H18_10 C36_10 1_555 1_555
C37_10 C36_10 1_555 1_555
C38_10 C37_10 1_555 1_555
O11_9 Hf6_2 1_555 1_555
C39_10 O11_9 1_555 1_555
C40_10 C39_10 1_555 1_555
C41_10 C40_10 1_555 1_555
H19_10 C41_10 1_555 1_555
C42_10 C41_10 1_555 1_555
H20_10 C42_10 1_555 1_555
C43_10 C42_10 1_555 1_555
C44_10 C38_10 1_555 1_555
O12_10 C39_10 1_555 1_555
C45_10 C40_10 1_555 1_555
H21_10 C45_10 1_555 1_555
C46_10 C43_10 1_555 1_555
H22_10 C46_10 1_555 1_555
O13_10 C33_10 1_555 1_555
C47_10 C34_10 1_555 1_555
H23_10 C47_10 1_555 1_555
C48_10 C37_10 1_555 1_555
H24_10 C48_10 1_555 1_555
C43_10 C44_10 1_555 1_555
O12_10 Hf13_2 1_555 1_555
C45_10 C46_10 1_555 1_555
O13_10 Hf8_4 1_555 1_555
C47_10 C48_10 1_555 1_555
O18_4 Hf12_3 1_555 1_555
O17_4 Hf12_4 1_555 1_555
O18_5 Hf12_5 1_555 1_555
O17_5 Hf12_6 1_555 1_555
O20_5 Hf15_3 1_555 1_555
O21_5 Hf15_4 1_555 1_555
O20_6 Hf15_5 1_555 1_555
O21_6 Hf15_6 1_555 1_555
O17_6 Hf8 1_555 1_555
O18_6 Hf8 1_555 1_555
O17_7 Hf8_2 1_555 1_555
O18_7 Hf8_2 1_555 1_555
O17_8 Hf10 1_555 1_555
O18_8 Hf10 1_555 1_555
O17_9 Hf10_2 1_555 1_555
O18_9 Hf10_2 1_555 1_555
O17_8 C33_11 1_555 1_555
C33_11 C34_11 1_555 1_555
C34_11 C35_11 1_555 1_555
C35_11 H17_11 1_555 1_555
C36_11 C35_11 1_555 1_555
H18_11 C36_11 1_555 1_555
C37_11 C36_11 1_555 1_555
C38_11 C37_11 1_555 1_555
C39_11 O18_4 1_555 1_555
C40_11 C39_11 1_555 1_555
C41_11 C40_11 1_555 1_555
H19_11 C41_11 1_555 1_555
C42_11 C41_11 1_555 1_555
H20_11 C42_11 1_555 1_555
C43_11 C42_11 1_555 1_555
C44_11 C38_11 1_555 1_555
O12_11 C39_11 1_555 1_555
C45_11 C40_11 1_555 1_555
H21_11 C45_11 1_555 1_555
C46_11 C43_11 1_555 1_555
H22_11 C46_11 1_555 1_555
O13_11 C33_11 1_555 1_555
C47_11 C34_11 1_555 1_555
H23_11 C47_11 1_555 1_555
C48_11 C37_11 1_555 1_555
H24_11 C48_11 1_555 1_555
C43_11 C44_11 1_555 1_555
O12_11 Hf8_3 1_555 1_555
C45_11 C46_11 1_555 1_555
O13_11 Hf15 1_555 1_555
C47_11 C48_11 1_555 1_555
O17_4 C1_8 1_555 1_555
C1_8 C2_8 1_555 1_555
C2_8 C3_8 1_555 1_555
C3_8 H1_8 1_555 1_555
C4_8 C3_8 1_555 1_555
H2_8 C4_8 1_555 1_555
C5_8 C4_8 1_555 1_555
C6_8 C5_8 1_555 1_555
O18_6 C7_8 1_555 1_555
C7_8 C8_8 1_555 1_555
C8_8 C9_8 1_555 1_555
C9_8 H3_8 1_555 1_555
C10_8 C9_8 1_555 1_555
H4_8 C10_8 1_555 1_555
C11_8 C10_8 1_555 1_555
C12_8 C6_8 1_555 1_555
O4_8 C7_8 1_555 1_555
C13_8 C8_8 1_555 1_555
H5_8 C13_8 1_555 1_555
C14_8 C11_8 1_555 1_555
H6_8 C14_8 1_555 1_555
O5_8 C1_8 1_555 1_555
C15_8 C2_8 1_555 1_555
H7_8 C15_8 1_555 1_555
C16_8 C5_8 1_555 1_555
H8_8 C16_8 1_555 1_555
C17_12 O17_6 1_555 1_555
C18_12 C17_12 1_555 1_555
C19_12 C18_12 1_555 1_555
H9_12 C19_12 1_555 1_555
C20_12 C19_12 1_555 1_555
H10_12 C20_12 1_555 1_555
C21_12 C20_12 1_555 1_555
C22_12 C21_12 1_555 1_555
O21_5 C23_12 1_555 1_555
C23_12 C24_12 1_555 1_555
C24_12 C25_12 1_555 1_555
C25_12 H11_12 1_555 1_555
C26_12 C25_12 1_555 1_555
H12_12 C26_12 1_555 1_555
C27_12 C26_12 1_555 1_555
C28_12 C22_12 1_555 1_555
O8_12 C23_12 1_555 1_555
C29_12 C24_12 1_555 1_555
H13_12 C29_12 1_555 1_555
C30_12 C27_12 1_555 1_555
H14_12 C30_12 1_555 1_555
O9_12 C17_12 1_555 1_555
C31_12 C18_12 1_555 1_555
H15_12 C31_12 1_555 1_555
C32_12 C21_12 1_555 1_555
H16_12 C32_12 1_555 1_555
Hf15 O4_8 1_555 1_555
Hf10_4 O8_12 1_555 1_555
C11_8 C12_8 1_555 1_555
C13_8 C14_8 1_555 1_555
O5_8 Hf10_3 1_555 1_555
C15_8 C16_8 1_555 1_555
C27_12 C28_12 1_555 1_555
C29_12 C30_12 1_555 1_555
O9_12 Hf12 1_555 1_555
C31_12 C32_12 1_555 1_555
O17_9 C33_12 1_555 1_555
C33_12 C34_12 1_555 1_555
C34_12 C35_12 1_555 1_555
C35_12 H17_12 1_555 1_555
C36_12 C35_12 1_555 1_555
H18_12 C36_12 1_555 1_555
C37_12 C36_12 1_555 1_555
C38_12 C37_12 1_555 1_555
C39_12 O18_5 1_555 1_555
C40_12 C39_12 1_555 1_555
C41_12 C40_12 1_555 1_555
H19_12 C41_12 1_555 1_555
C42_12 C41_12 1_555 1_555
H20_12 C42_12 1_555 1_555
C43_12 C42_12 1_555 1_555
C44_12 C38_12 1_555 1_555
O12_12 C39_12 1_555 1_555
C45_12 C40_12 1_555 1_555
H21_12 C45_12 1_555 1_555
C46_12 C43_12 1_555 1_555
H22_12 C46_12 1_555 1_555
O13_12 C33_12 1_555 1_555
C47_12 C34_12 1_555 1_555
H23_12 C47_12 1_555 1_555
C48_12 C37_12 1_555 1_555
H24_12 C48_12 1_555 1_555
C43_12 C44_12 1_555 1_555
O12_12 Hf8_5 1_555 1_555
C45_12 C46_12 1_555 1_555
O13_12 Hf15_2 1_555 1_555
C47_12 C48_12 1_555 1_555
O17_5 C1_9 1_555 1_555
C1_9 C2_9 1_555 1_555
C2_9 C3_9 1_555 1_555
C3_9 H1_9 1_555 1_555
C4_9 C3_9 1_555 1_555
H2_9 C4_9 1_555 1_555
C5_9 C4_9 1_555 1_555
C6_9 C5_9 1_555 1_555
O18_7 C7_9 1_555 1_555
C7_9 C8_9 1_555 1_555
C8_9 C9_9 1_555 1_555
C9_9 H3_9 1_555 1_555
C10_9 C9_9 1_555 1_555
H4_9 C10_9 1_555 1_555
C11_9 C10_9 1_555 1_555
C12_9 C6_9 1_555 1_555
O4_9 C7_9 1_555 1_555
C13_9 C8_9 1_555 1_555
H5_9 C13_9 1_555 1_555
C14_9 C11_9 1_555 1_555
H6_9 C14_9 1_555 1_555
O5_9 C1_9 1_555 1_555
C15_9 C2_9 1_555 1_555
H7_9 C15_9 1_555 1_555
C16_9 C5_9 1_555 1_555
H8_9 C16_9 1_555 1_555
C17_13 O17_7 1_555 1_555
C18_13 C17_13 1_555 1_555
C19_13 C18_13 1_555 1_555
H9_13 C19_13 1_555 1_555
C20_13 C19_13 1_555 1_555
H10_13 C20_13 1_555 1_555
C21_13 C20_13 1_555 1_555
C22_13 C21_13 1_555 1_555
O21_6 C23_13 1_555 1_555
C23_13 C24_13 1_555 1_555
C24_13 C25_13 1_555 1_555
C25_13 H11_13 1_555 1_555
C26_13 C25_13 1_555 1_555
H12_13 C26_13 1_555 1_555
C27_13 C26_13 1_555 1_555
C28_13 C22_13 1_555 1_555
O8_13 C23_13 1_555 1_555
C29_13 C24_13 1_555 1_555
H13_13 C29_13 1_555 1_555
C30_13 C27_13 1_555 1_555
H14_13 C30_13 1_555 1_555
O9_13 C17_13 1_555 1_555
C31_13 C18_13 1_555 1_555
H15_13 C31_13 1_555 1_555
C32_13 C21_13 1_555 1_555
H16_13 C32_13 1_555 1_555
Hf15_2 O4_9 1_555 1_555
Hf10_6 O8_13 1_555 1_555
C11_9 C12_9 1_555 1_555
C13_9 C14_9 1_555 1_555
O5_9 Hf10_5 1_555 1_555
C15_9 C16_9 1_555 1_555
C27_13 C28_13 1_555 1_555
C29_13 C30_13 1_555 1_555
O9_13 Hf12_2 1_555 1_555
C31_13 C32_13 1_555 1_555
C17_14 O18_8 1_555 1_555
C18_14 C17_14 1_555 1_555
C19_14 C18_14 1_555 1_555
H9_14 C19_14 1_555 1_555
C20_14 C19_14 1_555 1_555
H10_14 C20_14 1_555 1_555
C21_14 C20_14 1_555 1_555
C22_14 C21_14 1_555 1_555
O20_5 C23_14 1_555 1_555
C23_14 C24_14 1_555 1_555
C24_14 C25_14 1_555 1_555
C25_14 H11_14 1_555 1_555
C26_14 C25_14 1_555 1_555
H12_14 C26_14 1_555 1_555
C27_14 C26_14 1_555 1_555
C28_14 C22_14 1_555 1_555
O8_14 C23_14 1_555 1_555
C29_14 C24_14 1_555 1_555
H13_14 C29_14 1_555 1_555
C30_14 C27_14 1_555 1_555
H14_14 C30_14 1_555 1_555
O9_14 C17_14 1_555 1_555
C31_14 C18_14 1_555 1_555
H15_14 C31_14 1_555 1_555
C32_14 C21_14 1_555 1_555
H16_14 C32_14 1_555 1_555
Hf8_4 O8_14 1_555 1_555
C27_14 C28_14 1_555 1_555
C29_14 C30_14 1_555 1_555
O9_14 Hf12 1_555 1_555
C31_14 C32_14 1_555 1_555
C17_15 O18_9 1_555 1_555
C18_15 C17_15 1_555 1_555
C19_15 C18_15 1_555 1_555
H9_15 C19_15 1_555 1_555
C20_15 C19_15 1_555 1_555
H10_15 C20_15 1_555 1_555
C21_15 C20_15 1_555 1_555
C22_15 C21_15 1_555 1_555
O20_6 C23_15 1_555 1_555
C23_15 C24_15 1_555 1_555
C24_15 C25_15 1_555 1_555
C25_15 H11_15 1_555 1_555
C26_15 C25_15 1_555 1_555
H12_15 C26_15 1_555 1_555
C27_15 C26_15 1_555 1_555
C28_15 C22_15 1_555 1_555
O8_15 C23_15 1_555 1_555
C29_15 C24_15 1_555 1_555
H13_15 C29_15 1_555 1_555
C30_15 C27_15 1_555 1_555
H14_15 C30_15 1_555 1_555
O9_15 C17_15 1_555 1_555
C31_15 C18_15 1_555 1_555
H15_15 C31_15 1_555 1_555
C32_15 C21_15 1_555 1_555
H16_15 C32_15 1_555 1_555
Hf8_6 O8_15 1_555 1_555
C27_15 C28_15 1_555 1_555
C29_15 C30_15 1_555 1_555
O9_15 Hf12_2 1_555 1_555
C31_15 C32_15 1_555 1_555

#END
