
###############################################################################
#
# This file contains modified crystal structure data generated from the
# MOF subset of the Cambridge Structural Database (CSD) v543 
# hosted by the Cambridge Crystallographic Data Centre (CCDC).
#
# This work is licensed under the Creative Commons
# Attribution-NonCommercial-ShareAlike 4.0 International License.
# To view a copy of this license, visit
# http://creativecommons.org/licenses/by-nc-sa/4.0/
# or send a letter to
# Creative Commons, PO Box 1866, Mountain View, CA 94042, USA.
#
# CIF created using the CSD Python API on 29 September 2022
# The structure has been converted into the P1 space group
# The structure has a 3D framework
# The original CSD entry RULQIY is in the hexagonal crystal system
# The framework has been calculated to contain at least 10.0% void space
# The void calculation uses a probe of radius 1.32A, grid spacing 0.4
# H atom positions have been added when not included in the experimental data
# Generated hydrogen atom positions removed from atoms on special positions
#
###############################################################################

data_RULQIY
_chemical_formula_moiety         '(C48 H144 Cu15 O78 Yb12)n'
_symmetry_cell_setting           triclinic
_symmetry_space_group_name_H-M   'P 1'
_symmetry_Int_Tables_number      1
_space_group_name_Hall           'P 1'
loop_
_symmetry_equiv_pos_site_id
_symmetry_equiv_pos_as_xyz
1 x,y,z
_cell_length_a                   14.344(3)
_cell_length_b                   14.344(3)
_cell_length_c                   15.470(7)
_cell_angle_alpha                90
_cell_angle_beta                 90
_cell_angle_gamma                120
_cell_volume                     2756.52
loop_
_atom_site_label
_atom_site_type_symbol
_atom_site_fract_x
_atom_site_fract_y
_atom_site_fract_z
Cu2 Cu -0.0000 0.5000 0.0000
Cu6 Cu -0.0000 0.5000 0.5000
Cu2_2 Cu -0.0000 0.5000 1.0000
Yb1 Yb 0.666 0.333 0.2500
O1 O 0.7638(5) 0.2362 0.2500
O2 O 0.6140(7) 0.1963(6) 0.3543(6)
O3 O 0.611(1) 0.0544(9) 0.411(1)
C1 C 0.739(2) 0.148(1) 0.309(1)
C2 C 0.648(1) 0.135(1) 0.363(1)
Cu1 Cu 0.5000 0.0000 0.5000
C3 C 0.852(1) 0.261(2) 0.191(1)
C4 C 0.865(1) 0.352(1) 0.137(1)
O5 O 0.8037(6) 0.3860(7) 0.1457(6)
O6 O 0.9456(9) 0.389(1) 0.089(1)
O12 O 0.483(2) 0.164(2) 0.5000
O13 O 0.7638 0.5276(5) 0.2500
O14 O 0.4724(5) 0.2362(5) 0.2500
O15 O 0.8037(6) 0.4177(9) 0.3543(6)
O16 O 0.6140(7) 0.4177(9) 0.1457(6)
O17 O 0.5823(9) 0.3860(7) 0.3543(6)
O18 O 0.5823(9) 0.1963(6) 0.1457(6)
O20 O 0.611(1) 0.0544(9) 0.589(1)
Cu2_3 Cu 1.0000 0.5000 0.0000
C9 C 0.852(1) 0.591(2) 0.309(1)
C10 C 0.739(2) 0.591(2) 0.191(1)
C11 C 0.648(1) 0.513(1) 0.137(1)
C12 C 0.409(2) 0.261(2) 0.309(1)
C13 C 0.409(2) 0.148(1) 0.191(1)
C14 C 0.487(1) 0.352(1) 0.363(1)
O27 O 0.611(1) 0.5566(13) 0.089(1)
C15 C 0.865(1) 0.513(1) 0.363(1)
C16 C 0.487(1) 0.135(1) 0.137(1)
O28 O 0.4434(13) 0.389(1) 0.411(1)
Cu4 Cu 0.5000 0.5000 0.0000
O29 O 0.9456(9) 0.5566(13) 0.411(1)
O30 O 0.4434(13) 0.0544(9) 0.089(1)
Cu5 Cu 0.5000 0.5000 0.5000
Cu6_2 Cu 1.0000 0.5000 0.5000
Cu7 Cu 0.5000 0.0000 0.0000
O37 O 0.681(3) 0.164(2) 0.0000
O39 O 0.389(1) 0.4434(13) 0.089(1)
O42 O 0.517(2) 0.681(3) 0.0000
O43 O 0.483(2) 0.319(3) 0.0000
H1 H 0.358642 0.191498 0.349389
H2 H 0.35838 0.283976 0.272963
H3 H 0.808502 0.167143 0.349389
H4 H 0.716024 0.0744037 0.272963
H7 H 0.832857 0.641358 0.349389
H8 H 0.925596 0.64162 0.272963
H9 H 0.358642 0.167143 0.150611
H10 H 0.35838 0.0744037 0.227037
H11 H 0.832857 0.191498 0.150611
H12 H 0.925596 0.283976 0.227037
H13 H 0.808502 0.641358 0.150611
H14 H 0.716024 0.64162 0.227037
Cu2_4 Cu 1.0000 0.5000 1.0000
Cu4_2 Cu 0.5000 0.5000 1.0000
Cu7_2 Cu 0.5000 0.0000 1.0000
O35 O 0.4434(13) 0.0544(9) 0.911(1)
O37_2 O 0.681(3) 0.164(2) 1.0000
O40 O 0.389(1) 0.4434(13) 0.911(1)
O41 O 0.611(1) 0.5566(13) 0.911(1)
O42_2 O 0.517(2) 0.681(3) 1.0000
O43_2 O 0.483(2) 0.319(3) 1.0000
O4 O 0.517(2) 0.836(2) 0.5000
Cu1_2 Cu 0.5000 1.0000 0.5000
O7 O 0.2362(5) 0.7638 0.2500
O8 O 0.3860(7) 0.8037(6) 0.3543(6)
O9 O 0.389(1) 0.9456(9) 0.411(1)
C5 C 0.261(2) 0.852(1) 0.309(1)
C6 C 0.352(1) 0.865(1) 0.363(1)
C7 C 0.148(1) 0.739(2) 0.191(1)
C8 C 0.135(1) 0.648(1) 0.137(1)
O10 O 0.1963(6) 0.6140(7) 0.1457(6)
O11 O 0.0544(9) 0.611(1) 0.089(1)
Yb2 Yb 0.334 0.667 0.2500
O19 O 0.389(1) 0.9456(9) 0.589(1)
O21 O 0.5276(5) 0.7638(5) 0.2500
O22 O 0.2362 0.4724(5) 0.2500
O23 O 0.4177(9) 0.6140(7) 0.3543(6)
O24 O 0.4177(9) 0.8037(6) 0.1457(6)
O25 O 0.1963(6) 0.5823(9) 0.3543(6)
O26 O 0.3860(7) 0.5823(9) 0.1457(6)
Cu7_3 Cu 0.5000 1.0000 0.0000
C17 C 0.513(1) 0.865(1) 0.137(1)
C18 C 0.591(2) 0.739(2) 0.309(1)
C19 C 0.591(2) 0.852(1) 0.191(1)
C20 C 0.352(1) 0.487(1) 0.137(1)
C21 C 0.148(1) 0.409(2) 0.309(1)
C22 C 0.261(2) 0.409(2) 0.191(1)
C23 C 0.513(1) 0.648(1) 0.363(1)
C24 C 0.135(1) 0.487(1) 0.363(1)
O31 O 0.5566(13) 0.9456(9) 0.089(1)
O33 O 0.0544(9) 0.4434(13) 0.411(1)
O34 O 0.5566(13) 0.611(1) 0.411(1)
O38 O 0.319(3) 0.836(2) 0.0000
H5 H 0.191498 0.832857 0.349389
H6 H 0.283976 0.925596 0.272963
H17 H 0.167143 0.808502 0.150611
H18 H 0.0744037 0.716024 0.227037
H29 H 0.191498 0.358642 0.150611
H30 H 0.283976 0.35838 0.227037
H31 H 0.641358 0.808502 0.349389
H32 H 0.64162 0.716024 0.272963
H33 H 0.641358 0.832857 0.150611
H34 H 0.64162 0.925596 0.227037
H35 H 0.167143 0.358642 0.349389
H36 H 0.0744037 0.35838 0.272963
Cu7_4 Cu 0.5000 1.0000 1.0000
O36 O 0.5566(13) 0.9456(9) 0.911(1)
O38_2 O 0.319(3) 0.836(2) 1.0000
Yb1_2 Yb 0.333 0.666 0.2500
O4_2 O 0.681(3) 0.517(2) 0.5000
O12_2 O 0.319(3) 0.483(2) 0.5000
Yb2_2 Yb 0.667 0.334 0.2500
O19_2 O 0.4434(13) 0.389(1) 0.589(1)
O20_2 O 0.5566(13) 0.611(1) 0.589(1)
O43_3 O 0.164(4) 0.483(2) 0.0000
O41_2 O 0.0544(16) 0.611(1) 0.911(1)
O43_4 O 0.164(4) 0.483(2) 1.0000
O42_3 O 0.836(4) 0.517(2) 0.0000
O40_2 O 0.9456(16) 0.389(1) 0.911(1)
O42_4 O 0.836(4) 0.517(2) 1.0000
O36_2 O 0.0544(9) 0.4434(13) 0.589(1)
O38_3 O 0.164(2) 0.681(3) 0.5000
O35_2 O 0.9456(9) 0.5566(13) 0.589(1)
O37_3 O 0.836(2) 0.319(3) 0.5000
Yb2_3 Yb 0.333 0.667 0.2500
Yb1_3 Yb 0.667 0.333 0.2500
O7_2 O 0.7638(5) 0.2362 0.7500
O8_2 O 0.6140(7) 0.1963(6) 0.6457(6)
C5_2 C 0.739(2) 0.148(1) 0.691(1)
C6_2 C 0.648(1) 0.135(1) 0.637(1)
C7_2 C 0.852(1) 0.261(2) 0.809(1)
C8_2 C 0.865(1) 0.352(1) 0.863(1)
O10_2 O 0.8037(6) 0.3860(7) 0.8543(6)
Yb2_4 Yb 0.666 0.333 0.7500
O21_2 O 0.4724(5) 0.2362(5) 0.7500
O22_2 O 0.7638 0.5276(5) 0.7500
O23_2 O 0.5823(9) 0.3860(7) 0.6457(6)
O24_2 O 0.5823(9) 0.1963(6) 0.8543(6)
O25_2 O 0.8037(6) 0.4177(9) 0.6457(6)
O26_2 O 0.6140(7) 0.4177(9) 0.8543(6)
C17_2 C 0.487(1) 0.135(1) 0.863(1)
C18_2 C 0.409(2) 0.261(2) 0.691(1)
C19_2 C 0.409(2) 0.148(1) 0.809(1)
C20_2 C 0.648(1) 0.513(1) 0.863(1)
C21_2 C 0.852(1) 0.591(2) 0.691(1)
C22_2 C 0.739(2) 0.591(2) 0.809(1)
C23_2 C 0.487(1) 0.352(1) 0.637(1)
C24_2 C 0.865(1) 0.513(1) 0.637(1)
H5_2 H 0.808502 0.167143 0.650611
H6_2 H 0.716024 0.0744037 0.727037
H17_2 H 0.832857 0.191498 0.849389
H18_2 H 0.925596 0.283976 0.772963
H29_2 H 0.808502 0.641358 0.849389
H30_2 H 0.716024 0.64162 0.772963
H31_2 H 0.358642 0.191498 0.650611
H32_2 H 0.35838 0.283976 0.727037
H33_2 H 0.358642 0.167143 0.849389
H34_2 H 0.35838 0.0744037 0.772963
H35_2 H 0.832857 0.641358 0.650611
H36_2 H 0.925596 0.64162 0.727037
Yb1_4 Yb 0.334 0.667 0.7500
O1_2 O 0.2362(5) 0.7638 0.7500
O2_2 O 0.3860(7) 0.8037(6) 0.6457(6)
C1_2 C 0.261(2) 0.852(1) 0.691(1)
C2_2 C 0.352(1) 0.865(1) 0.637(1)
C3_2 C 0.148(1) 0.739(2) 0.809(1)
C4_2 C 0.135(1) 0.648(1) 0.863(1)
O5_2 O 0.1963(6) 0.6140(7) 0.8543(6)
O13_2 O 0.2362 0.4724(5) 0.7500
O14_2 O 0.5276(5) 0.7638(5) 0.7500
O15_2 O 0.1963(6) 0.5823(9) 0.6457(6)
O16_2 O 0.3860(7) 0.5823(9) 0.8543(6)
O17_2 O 0.4177(9) 0.6140(7) 0.6457(6)
O18_2 O 0.4177(9) 0.8037(6) 0.8543(6)
C9_2 C 0.148(1) 0.409(2) 0.691(1)
C10_2 C 0.261(2) 0.409(2) 0.809(1)
C11_2 C 0.352(1) 0.487(1) 0.863(1)
C12_2 C 0.591(2) 0.739(2) 0.691(1)
C13_2 C 0.591(2) 0.852(1) 0.809(1)
C14_2 C 0.513(1) 0.648(1) 0.637(1)
C15_2 C 0.135(1) 0.487(1) 0.637(1)
C16_2 C 0.513(1) 0.865(1) 0.863(1)
H1_2 H 0.641358 0.808502 0.650611
H2_2 H 0.64162 0.716024 0.727037
H3_2 H 0.191498 0.832857 0.650611
H4_2 H 0.283976 0.925596 0.727037
H7_2 H 0.167143 0.358642 0.650611
H8_2 H 0.0744037 0.35838 0.727037
H9_2 H 0.641358 0.832857 0.849389
H10_2 H 0.64162 0.925596 0.772963
H11_2 H 0.167143 0.808502 0.849389
H12_2 H 0.0744037 0.716024 0.772963
H13_2 H 0.191498 0.358642 0.849389
H14_2 H 0.283976 0.35838 0.772963
Yb1_5 Yb 0.667 0.334 0.7500
Yb2_5 Yb 0.333 0.666 0.7500
Yb1_6 Yb 0.333 0.667 0.7500
Yb2_6 Yb 0.667 0.333 0.7500
loop_
_geom_bond_atom_site_label_1
_geom_bond_atom_site_label_2
_geom_bond_site_symmetry_1
_geom_bond_site_symmetry_2
Yb1 O1 1_555 1_555
O1 C1 1_555 1_555
O2 Yb1 1_555 1_555
O3 C2 1_555 1_555
C1 C2 1_555 1_555
C2 O2 1_555 1_555
Cu1 O3 1_555 1_555
C3 O1 1_555 1_555
C4 C3 1_555 1_555
O5 Yb1 1_555 1_555
O6 C4 1_555 1_555
O12 Cu1 1_555 1_555
O13 Yb1 1_555 1_555
O14 Yb1 1_555 1_555
O15 Yb1 1_555 1_555
O16 Yb1 1_555 1_555
O17 Yb1 1_555 1_555
O18 Yb1 1_555 1_555
O20 Cu1 1_555 1_555
Cu2_3 O6 1_555 1_555
C9 O13 1_555 1_555
C10 O13 1_555 1_555
C11 O16 1_555 1_555
C12 O14 1_555 1_555
C13 O14 1_555 1_555
C14 O17 1_555 1_555
O27 C11 1_555 1_555
C15 O15 1_555 1_555
C16 O18 1_555 1_555
O28 C14 1_555 1_555
Cu4 O27 1_555 1_555
O29 C15 1_555 1_555
O30 C16 1_555 1_555
Cu5 O28 1_555 1_555
Cu6_2 O29 1_555 1_555
Cu7 O30 1_555 1_555
O37 Cu7 1_555 1_555
O39 Cu4 1_555 1_555
O42 Cu4 1_555 1_555
O43 Cu4 1_555 1_555
C4 O5 1_555 1_555
C9 C15 1_555 1_555
C10 C11 1_555 1_555
C12 C14 1_555 1_555
C13 C16 1_555 1_555
C12 H1 1_555 1_555
C12 H2 1_555 1_555
C1 H3 1_555 1_555
C1 H4 1_555 1_555
C9 H7 1_555 1_555
C9 H8 1_555 1_555
C13 H9 1_555 1_555
C13 H10 1_555 1_555
C3 H11 1_555 1_555
C3 H12 1_555 1_555
C10 H13 1_555 1_555
C10 H14 1_555 1_555
O35 Cu7_2 1_555 1_555
O37_2 Cu7_2 1_555 1_555
O40 Cu4_2 1_555 1_555
O41 Cu4_2 1_555 1_555
O42_2 Cu4_2 1_555 1_555
O43_2 Cu4_2 1_555 1_555
O4 Cu1_2 1_555 1_555
O7 C5 1_555 1_555
O8 C6 1_555 1_555
O9 Cu1_2 1_555 1_555
C5 C6 1_555 1_555
C6 O9 1_555 1_555
C7 O7 1_555 1_555
C8 C7 1_555 1_555
O10 C8 1_555 1_555
O11 C8 1_555 1_555
Yb2 O7 1_555 1_555
O19 Cu1_2 1_555 1_555
Cu2 O11 1_555 1_555
O21 Yb2 1_555 1_555
O22 Yb2 1_555 1_555
O23 Yb2 1_555 1_555
O24 Yb2 1_555 1_555
O25 Yb2 1_555 1_555
O26 Yb2 1_555 1_555
C17 O24 1_555 1_555
C18 O21 1_555 1_555
C19 O21 1_555 1_555
C20 O26 1_555 1_555
C21 O22 1_555 1_555
C22 O22 1_555 1_555
C23 O23 1_555 1_555
C24 O25 1_555 1_555
O31 Cu7_3 1_555 1_555
O39 C20 1_555 1_555
O33 C24 1_555 1_555
Cu6 O33 1_555 1_555
O34 C23 1_555 1_555
O38 Cu7_3 1_555 1_555
Cu5 O34 1_555 1_555
O8 Yb2 1_555 1_555
O10 Yb2 1_555 1_555
C17 O31 1_555 1_555
C17 C19 1_555 1_555
C18 C23 1_555 1_555
C20 C22 1_555 1_555
C21 C24 1_555 1_555
C5 H5 1_555 1_555
C5 H6 1_555 1_555
C7 H17 1_555 1_555
C7 H18 1_555 1_555
C22 H29 1_555 1_555
C22 H30 1_555 1_555
C18 H31 1_555 1_555
C18 H32 1_555 1_555
C19 H33 1_555 1_555
C19 H34 1_555 1_555
C21 H35 1_555 1_555
C21 H36 1_555 1_555
O36 Cu7_4 1_555 1_555
O38_2 Cu7_4 1_555 1_555
Yb1_2 O21 1_555 1_555
O23 Yb1_2 1_555 1_555
O4_2 Cu5 1_555 1_555
O24 Yb1_2 1_555 1_555
O12_2 Cu5 1_555 1_555
Yb2_2 O14 1_555 1_555
O7 Yb1_2 1_555 1_555
O22 Yb1_2 1_555 1_555
O8 Yb1_2 1_555 1_555
O10 Yb1_2 1_555 1_555
O25 Yb1_2 1_555 1_555
O26 Yb1_2 1_555 1_555
O19_2 Cu5 1_555 1_555
O20_2 Cu5 1_555 1_555
O13 Yb2_2 1_555 1_555
O1 Yb2_2 1_555 1_555
O15 Yb2_2 1_555 1_555
O16 Yb2_2 1_555 1_555
O2 Yb2_2 1_555 1_555
O5 Yb2_2 1_555 1_555
O43_3 Cu2 1_555 1_555
O17 Yb2_2 1_555 1_555
O18 Yb2_2 1_555 1_555
O41_2 Cu2_2 1_555 1_555
O43_4 Cu2_2 1_555 1_555
O42_3 Cu2_3 1_555 1_555
O40_2 Cu2_4 1_555 1_555
O42_4 Cu2_4 1_555 1_555
O36_2 Cu6 1_555 1_555
O38_3 Cu6 1_555 1_555
O35_2 Cu6_2 1_555 1_555
O37_3 Cu6_2 1_555 1_555
Yb2_3 O22 1_555 1_555
O7 Yb2_3 1_555 1_555
O21 Yb2_3 1_555 1_555
O8 Yb2_3 1_555 1_555
O10 Yb2_3 1_555 1_555
O23 Yb2_3 1_555 1_555
O24 Yb2_3 1_555 1_555
O25 Yb2_3 1_555 1_555
O26 Yb2_3 1_555 1_555
Yb1_3 O13 1_555 1_555
O15 Yb1_3 1_555 1_555
O16 Yb1_3 1_555 1_555
O14 Yb1_3 1_555 1_555
O1 Yb1_3 1_555 1_555
O17 Yb1_3 1_555 1_555
O18 Yb1_3 1_555 1_555
O2 Yb1_3 1_555 1_555
O5 Yb1_3 1_555 1_555
O7_2 C5_2 1_555 1_555
O8_2 C6_2 1_555 1_555
C5_2 C6_2 1_555 1_555
C6_2 O20 1_555 1_555
C7_2 O7_2 1_555 1_555
C8_2 C7_2 1_555 1_555
O10_2 C8_2 1_555 1_555
O40_2 C8_2 1_555 1_555
Yb2_4 O7_2 1_555 1_555
O21_2 Yb2_4 1_555 1_555
O22_2 Yb2_4 1_555 1_555
O23_2 Yb2_4 1_555 1_555
O24_2 Yb2_4 1_555 1_555
O25_2 Yb2_4 1_555 1_555
O26_2 Yb2_4 1_555 1_555
C17_2 O24_2 1_555 1_555
C18_2 O21_2 1_555 1_555
C19_2 O21_2 1_555 1_555
C20_2 O26_2 1_555 1_555
C21_2 O22_2 1_555 1_555
C22_2 O22_2 1_555 1_555
C23_2 O23_2 1_555 1_555
C24_2 O25_2 1_555 1_555
O41 C20_2 1_555 1_555
O35_2 C24_2 1_555 1_555
O19_2 C23_2 1_555 1_555
O8_2 Yb2_4 1_555 1_555
O10_2 Yb2_4 1_555 1_555
C17_2 O35 1_555 1_555
C17_2 C19_2 1_555 1_555
C18_2 C23_2 1_555 1_555
C20_2 C22_2 1_555 1_555
C21_2 C24_2 1_555 1_555
C5_2 H5_2 1_555 1_555
C5_2 H6_2 1_555 1_555
C7_2 H17_2 1_555 1_555
C7_2 H18_2 1_555 1_555
C22_2 H29_2 1_555 1_555
C22_2 H30_2 1_555 1_555
C18_2 H31_2 1_555 1_555
C18_2 H32_2 1_555 1_555
C19_2 H33_2 1_555 1_555
C19_2 H34_2 1_555 1_555
C21_2 H35_2 1_555 1_555
C21_2 H36_2 1_555 1_555
Yb1_4 O1_2 1_555 1_555
O1_2 C1_2 1_555 1_555
O2_2 Yb1_4 1_555 1_555
O19 C2_2 1_555 1_555
C1_2 C2_2 1_555 1_555
C2_2 O2_2 1_555 1_555
C3_2 O1_2 1_555 1_555
C4_2 C3_2 1_555 1_555
O5_2 Yb1_4 1_555 1_555
O41_2 C4_2 1_555 1_555
O13_2 Yb1_4 1_555 1_555
O14_2 Yb1_4 1_555 1_555
O15_2 Yb1_4 1_555 1_555
O16_2 Yb1_4 1_555 1_555
O17_2 Yb1_4 1_555 1_555
O18_2 Yb1_4 1_555 1_555
C9_2 O13_2 1_555 1_555
C10_2 O13_2 1_555 1_555
C11_2 O16_2 1_555 1_555
C12_2 O14_2 1_555 1_555
C13_2 O14_2 1_555 1_555
C14_2 O17_2 1_555 1_555
O40 C11_2 1_555 1_555
C15_2 O15_2 1_555 1_555
C16_2 O18_2 1_555 1_555
O20_2 C14_2 1_555 1_555
O36_2 C15_2 1_555 1_555
O36 C16_2 1_555 1_555
C4_2 O5_2 1_555 1_555
C9_2 C15_2 1_555 1_555
C10_2 C11_2 1_555 1_555
C12_2 C14_2 1_555 1_555
C13_2 C16_2 1_555 1_555
C12_2 H1_2 1_555 1_555
C12_2 H2_2 1_555 1_555
C1_2 H3_2 1_555 1_555
C1_2 H4_2 1_555 1_555
C9_2 H7_2 1_555 1_555
C9_2 H8_2 1_555 1_555
C13_2 H9_2 1_555 1_555
C13_2 H10_2 1_555 1_555
C3_2 H11_2 1_555 1_555
C3_2 H12_2 1_555 1_555
C10_2 H13_2 1_555 1_555
C10_2 H14_2 1_555 1_555
Yb1_5 O21_2 1_555 1_555
O23_2 Yb1_5 1_555 1_555
O24_2 Yb1_5 1_555 1_555
Yb2_5 O14_2 1_555 1_555
O7_2 Yb1_5 1_555 1_555
O22_2 Yb1_5 1_555 1_555
O8_2 Yb1_5 1_555 1_555
O10_2 Yb1_5 1_555 1_555
O25_2 Yb1_5 1_555 1_555
O26_2 Yb1_5 1_555 1_555
O13_2 Yb2_5 1_555 1_555
O1_2 Yb2_5 1_555 1_555
O15_2 Yb2_5 1_555 1_555
O16_2 Yb2_5 1_555 1_555
O2_2 Yb2_5 1_555 1_555
O5_2 Yb2_5 1_555 1_555
O17_2 Yb2_5 1_555 1_555
O18_2 Yb2_5 1_555 1_555
Yb1_6 O13_2 1_555 1_555
O15_2 Yb1_6 1_555 1_555
O16_2 Yb1_6 1_555 1_555
O14_2 Yb1_6 1_555 1_555
O1_2 Yb1_6 1_555 1_555
O17_2 Yb1_6 1_555 1_555
O18_2 Yb1_6 1_555 1_555
O2_2 Yb1_6 1_555 1_555
O5_2 Yb1_6 1_555 1_555
Yb2_6 O22_2 1_555 1_555
O7_2 Yb2_6 1_555 1_555
O21_2 Yb2_6 1_555 1_555
O8_2 Yb2_6 1_555 1_555
O10_2 Yb2_6 1_555 1_555
O23_2 Yb2_6 1_555 1_555
O24_2 Yb2_6 1_555 1_555
O25_2 Yb2_6 1_555 1_555
O26_2 Yb2_6 1_555 1_555

#END
