
###############################################################################
#
# This file contains modified crystal structure data generated from the
# MOF subset of the Cambridge Structural Database (CSD) v543 
# hosted by the Cambridge Crystallographic Data Centre (CCDC).
#
# This work is licensed under the Creative Commons
# Attribution-NonCommercial-ShareAlike 4.0 International License.
# To view a copy of this license, visit
# http://creativecommons.org/licenses/by-nc-sa/4.0/
# or send a letter to
# Creative Commons, PO Box 1866, Mountain View, CA 94042, USA.
#
# CIF created using the CSD Python API on 29 September 2022
# The structure has been converted into the P1 space group
# The structure has a 3D framework
# The original CSD entry RULREY is in the orthorhombic crystal system
# The framework has been calculated to contain at least 10.0% void space
# The void calculation uses a probe of radius 1.32A, grid spacing 0.4
#
###############################################################################

data_RULREY
_chemical_formula_moiety         '(C256 H216 N40 O32 Zn8)n'
_symmetry_cell_setting           triclinic
_symmetry_space_group_name_H-M   'P 1'
_symmetry_Int_Tables_number      1
_space_group_name_Hall           'P 1'
loop_
_symmetry_equiv_pos_site_id
_symmetry_equiv_pos_as_xyz
1 x,y,z
_cell_length_a                   23.392(4)
_cell_length_b                   11.662(2)
_cell_length_c                   27.060(5)
_cell_angle_alpha                90
_cell_angle_beta                 90
_cell_angle_gamma                90
_cell_volume                     7381.9
loop_
_atom_site_label
_atom_site_type_symbol
_atom_site_fract_x
_atom_site_fract_y
_atom_site_fract_z
C5 C 0.2157(3) 0.0774(5) 0.22329(18)
H6 H 0.1867 0.1306 0.2348
H7 H 0.2506 0.1206 0.2176
H9 H 0.2338 0.0290 0.2931
C7 C 0.2018(2) 0.0857(5) 0.13370(18)
C8 C 0.1895(2) 0.0357(4) 0.08795(14)
C9 C 0.1971(2) 0.0890(5) 0.04398(18)
H11 H 0.1877 0.0507 0.0150
C10 C 0.2184(2) 0.1982(4) 0.04139(19)
C11 C 0.2277(2) 0.2560(6) 0.0856(3)
H12 H 0.2393 0.3323 0.0847
C12 C 0.2201(2) 0.2012(5) 0.1322(3)
H13 H 0.2270 0.2411 0.1614
N1 N 0.1974(2) 0.0270(4) 0.17787(15)
C13 C 0.22670(17) 0.2563(4) 0.99373(17)
O3 O 0.24538(15) 0.3563(3) 0.99314(11)
O4 O 0.21557(13) 0.1994(3) 0.95475(11)
Zn3 Zn 0.21971(2) 0.28297(4) 0.891686(19)
C19 C 0.6036(2) 0.7005(4) 0.99048(19)
H18 H 0.6285 0.6469 0.9769
C20 C 0.54540(19) 0.6953(4) 0.98027(17)
C21 C 0.5106(2) 0.7779(4) 0.9993(2)
C23 C 0.4480(2) 0.7572(4) 0.9815(2)
H20 H 0.4345 0.8191 0.9606
C24 C 0.51231(17) 0.6128(4) 0.95268(17)
C25 C 0.4559(2) 0.6478(4) 0.95280(19)
C26 C 0.4131(2) 0.5837(4) 0.93104(18)
H22 H 0.3753 0.6083 0.9317
C27 C 0.52677(19) 0.5117(4) 0.92899(18)
H23 H 0.5647 0.4878 0.9278
C28 C 0.48373(19) 0.4458(4) 0.90687(17)
H24 H 0.4931 0.3774 0.8912
C29 C 0.42820(19) 0.4814(4) 0.90814(16)
C30 C 0.33052(19) 0.4106(4) 0.90078(17)
H25 H 0.3152 0.4601 0.9242
C31 C 0.3908(2) 0.3250(4) 0.8528(2)
H26 H 0.4244 0.3037 0.8369
C32 C 0.3395(2) 0.2776(5) 0.84705(18)
H27 H 0.3312 0.2177 0.8256
N4 N 0.38429(15) 0.4124(3) 0.88702(13)
N5 N 0.30047(16) 0.3305(3) 0.87771(13)
C1 C 0.1919(2) 0.1816(4) 0.8071(2)
C2 C 0.1791(3) 0.0891(5) 0.76898(19)
H1 H 0.1474 0.0438 0.7824
C3 C 0.1583(3) 0.1380(6) 0.7218(2)
H2 H 0.1865 0.1913 0.7089
H3 H 0.1232 0.1801 0.7276
C4 C 0.1478(2) 0.0469(5) 0.68484(15)
H4 H 0.1378 0.0819 0.6535
H5 H 0.1156 0.0006 0.6955
C6 C 0.2263(3) 0.0098(5) 0.7621(2)
H8 H 0.2603 0.0531 0.7534
H10 H 0.1753 0.0387 0.5877
C14 C 0.1169(2) 0.4301(5) 0.8651(2)
H14 H 0.1103 0.3904 0.8358
C15 C 0.0831(2) 0.5111(5) 0.8831(2)
H15 H 0.0494 0.5383 0.8690
C16 C 0.1559(2) 0.4854(4) 0.93221(17)
H16 H 0.1812 0.4930 0.9586
C17 C 0.08736(19) 0.6341(4) 0.96100(18)
C18 C 0.1241(2) 0.7138(4) 0.97906(18)
H17 H 0.1627 0.7109 0.9710
C22 C 0.0308(2) 0.6346(4) 0.9716(2)
H19 H 0.0066 0.5778 0.9596
N2 N 0.16323(17) 0.4125(3) 0.89569(14)
N3 N 0.10805(16) 0.5476(3) 0.92721(15)
O1 O 0.20016(18) 0.1553(3) 0.84977(13)
O2 O 0.1948(2) 0.2827(4) 0.79374(17)
C1_2 C 0.1919(2) 0.8184(4) 0.3071(2)
C2_2 C 0.1791(3) 0.9109(5) 0.26898(19)
H1_2 H 0.1474 0.9562 0.2824
C3_2 C 0.1583(3) 0.8620(6) 0.2218(2)
H2_2 H 0.1865 0.8087 0.2089
H3_2 H 0.1232 0.8199 0.2276
C4_2 C 0.1478(2) 0.9531(5) 0.18484(15)
H4_2 H 0.1378 0.9181 0.1535
H5_2 H 0.1156 0.9994 0.1955
C6_2 C 0.2263(3) 0.9902(5) 0.2621(2)
H8_2 H 0.2603 0.9469 0.2534
H10_2 H 0.1753 0.9613 0.0877
C14_2 C 0.1169(2) 0.5699(5) 0.3651(2)
H14_2 H 0.1103 0.6096 0.3358
C15_2 C 0.0831(2) 0.4889(5) 0.3831(2)
H15_2 H 0.0494 0.4617 0.3690
C16_2 C 0.1559(2) 0.5146(4) 0.43221(17)
H16_2 H 0.1812 0.5070 0.4586
C17_2 C 0.08736(19) 0.3659(4) 0.46100(18)
C18_2 C 0.1241(2) 0.2862(4) 0.47906(18)
H17_2 H 0.1627 0.2891 0.4710
C19_2 C 0.1036(2) 0.2005(4) 0.50952(19)
H18_2 H 0.1285 0.1469 0.5231
C20_2 C 0.04540(19) 0.1953(4) 0.51973(17)
C21_2 C 0.0106(2) 0.2779(4) 0.5007(2)
C22_2 C 0.0308(2) 0.3654(4) 0.4716(2)
H19_2 H 0.0066 0.4222 0.4596
C24_2 C 0.01231(17) 0.1128(4) 0.54732(17)
C27_2 C 0.02677(19) 0.0117(4) 0.57101(18)
N2_2 N 0.16323(17) 0.5875(3) 0.39569(14)
N3_2 N 0.10805(16) 0.4524(3) 0.42721(15)
O1_2 O 0.20016(18) 0.8447(3) 0.34977(13)
O2_2 O 0.1948(2) 0.7173(4) 0.29374(17)
Zn1 Zn 0.21971(2) 0.71703(4) 0.391686(19)
N6 N 0.30047(16) 0.6695(3) 0.37771(13)
O5 O 0.21557(13) 0.8006(3) 0.45475(11)
C15_3 C 0.5831(2) 0.0111(5) 0.6169(2)
H15_3 H 0.5494 0.0383 0.6310
C17_3 C 0.58736(19) 0.1341(4) 0.53900(18)
C18_3 C 0.6241(2) 0.2138(4) 0.52094(18)
H17_3 H 0.6627 0.2109 0.5290
C19_3 C 0.6036(2) 0.2995(4) 0.49048(19)
H18_3 H 0.6285 0.3531 0.4769
C20_3 C 0.54540(19) 0.3047(4) 0.48027(17)
C21_3 C 0.5106(2) 0.2221(4) 0.4993(2)
C22_3 C 0.5308(2) 0.1346(4) 0.5284(2)
H19_3 H 0.5066 0.0778 0.5404
C23_2 C 0.4480(2) 0.2428(4) 0.4815(2)
H20_2 H 0.4345 0.1809 0.4606
H21 H 0.4219 0.2529 0.5090
C24_3 C 0.51231(17) 0.3872(4) 0.45268(17)
C25_2 C 0.4559(2) 0.3522(4) 0.45280(19)
C26_2 C 0.4131(2) 0.4163(4) 0.43104(18)
H22_2 H 0.3753 0.3917 0.4317
C27_3 C 0.52677(19) 0.4883(4) 0.42899(18)
H23_2 H 0.5647 0.5122 0.4278
C28_2 C 0.48373(19) 0.5542(4) 0.40687(17)
H24_2 H 0.4931 0.6226 0.3912
C29_2 C 0.42820(19) 0.5186(4) 0.40814(16)
C30_2 C 0.33052(19) 0.5894(4) 0.40078(17)
H25_2 H 0.3152 0.5399 0.4242
C31_2 C 0.3908(2) 0.6750(4) 0.3528(2)
H26_2 H 0.4244 0.6963 0.3369
C32_2 C 0.3395(2) 0.7224(5) 0.34705(18)
H27_2 H 0.3312 0.7823 0.3256
N3_3 N 0.60805(16) 0.0476(3) 0.57279(15)
N4_2 N 0.38429(15) 0.5876(3) 0.38702(13)
C5_2 C 0.2157(3) 0.9226(5) 0.72329(18)
H6_2 H 0.1867 0.8694 0.7348
H7_2 H 0.2506 0.8794 0.7176
H9_2 H 0.2338 0.9710 0.7931
C7_2 C 0.2018(2) 0.9143(5) 0.63370(18)
C8_2 C 0.1895(2) 0.9643(4) 0.58795(14)
C9_2 C 0.1971(2) 0.9110(5) 0.54398(18)
H11_2 H 0.1877 0.9493 0.5150
C10_2 C 0.2184(2) 0.8018(4) 0.54139(19)
C11_2 C 0.2277(2) 0.7440(6) 0.5856(3)
H12_2 H 0.2393 0.6677 0.5847
C12_2 C 0.2201(2) 0.7988(5) 0.6322(3)
H13_2 H 0.2270 0.7589 0.6614
C13_2 C 0.22670(17) 0.7437(4) 0.49373(17)
N1_2 N 0.1974(2) 0.9730(4) 0.67787(15)
O3_2 O 0.24538(15) 0.6437(3) 0.49314(11)
H23_3 H 0.0647 0.9878 0.5722
C23_3 C 0.9480(2) 0.2572(4) 0.5185(2)
H20_3 H 0.9345 0.3191 0.5394
H21_2 H 0.9219 0.2471 0.4910
C25_3 C 0.9559(2) 0.1478(4) 0.54720(19)
C26_3 C 0.9131(2) 0.0837(4) 0.56896(18)
H22_3 H 0.8753 0.1083 0.5683
C28_3 C 0.98373(19) 0.9458(4) 0.59313(17)
H24_3 H 0.9931 0.8774 0.6088
C29_3 C 0.92820(19) 0.9814(4) 0.59186(16)
C30_3 C 0.83052(19) 0.9106(4) 0.59922(17)
H25_3 H 0.8152 0.9601 0.5758
C31_3 C 0.8908(2) 0.8250(4) 0.6472(2)
H26_3 H 0.9244 0.8037 0.6631
C32_3 C 0.8395(2) 0.7776(5) 0.65295(18)
H27_3 H 0.8312 0.7177 0.6744
N4_3 N 0.88429(15) 0.9124(3) 0.61298(13)
N5_2 N 0.80047(16) 0.8305(3) 0.62229(13)
Zn2 Zn 0.71971(2) 0.78297(4) 0.608314(19)
C13_3 C 0.72670(17) 0.2437(4) 0.00627(17)
O3_3 O 0.74538(15) 0.1437(3) 0.00686(11)
O4_2 O 0.71557(13) 0.3006(3) 0.04525(11)
Zn3_2 Zn 0.71971(2) 0.21703(4) 0.108314(19)
C1_3 C 0.6919(2) 0.6816(4) 0.6929(2)
C2_3 C 0.6791(3) 0.5891(5) 0.73102(19)
H1_3 H 0.6474 0.5438 0.7176
C3_3 C 0.6583(3) 0.6380(6) 0.7782(2)
H2_3 H 0.6865 0.6913 0.7911
H3_3 H 0.6232 0.6801 0.7724
C4_3 C 0.6478(2) 0.5469(5) 0.81516(15)
H4_3 H 0.6378 0.5819 0.8465
H5_3 H 0.6156 0.5006 0.8045
C5_3 C 0.7157(3) 0.4226(5) 0.77671(18)
H6_3 H 0.6867 0.3694 0.7652
H7_3 H 0.7506 0.3794 0.7824
C6_3 C 0.7263(3) 0.5098(5) 0.7379(2)
H8_3 H 0.7603 0.5531 0.7466
H9_3 H 0.7338 0.4710 0.7069
C7_3 C 0.7018(2) 0.4143(5) 0.86630(18)
C8_3 C 0.6895(2) 0.4643(4) 0.91205(14)
H10_3 H 0.6753 0.5387 0.9123
C9_3 C 0.6971(2) 0.4110(5) 0.95602(18)
H11_3 H 0.6877 0.4493 0.9850
C10_3 C 0.7184(2) 0.3018(4) 0.95861(19)
C11_3 C 0.7277(2) 0.2440(6) 0.9144(3)
H12_3 H 0.7393 0.1677 0.9153
C12_3 C 0.7201(2) 0.2988(5) 0.8678(3)
H13_3 H 0.7270 0.2589 0.8386
C14_3 C 0.6169(2) 0.9301(5) 0.6349(2)
H14_3 H 0.6103 0.8904 0.6642
C16_3 C 0.6559(2) 0.9854(4) 0.56779(17)
H16_3 H 0.6812 0.9930 0.5414
N1_3 N 0.6974(2) 0.4730(4) 0.82213(15)
N2_3 N 0.66323(17) 0.9125(3) 0.60431(14)
O1_3 O 0.70016(18) 0.6553(3) 0.65023(13)
O2_3 O 0.6948(2) 0.7827(4) 0.70626(17)
O5_2 O 0.71557(13) 0.6994(3) 0.54525(11)
C1_4 C 0.6919(2) 0.3184(4) 0.1929(2)
C2_4 C 0.6791(3) 0.4109(5) 0.23102(19)
H1_4 H 0.6474 0.4562 0.2176
C3_4 C 0.6583(3) 0.3620(6) 0.2782(2)
H2_4 H 0.6865 0.3087 0.2911
H3_4 H 0.6232 0.3199 0.2724
C4_4 C 0.6478(2) 0.4531(5) 0.31516(15)
H4_4 H 0.6378 0.4181 0.3465
H5_4 H 0.6156 0.4994 0.3045
C5_4 C 0.7157(3) 0.5774(5) 0.27671(18)
H6_4 H 0.6867 0.6306 0.2652
H7_4 H 0.7506 0.6206 0.2824
C6_4 C 0.7263(3) 0.4902(5) 0.2379(2)
H8_4 H 0.7603 0.4469 0.2466
H9_4 H 0.7338 0.5290 0.2069
C7_4 C 0.7018(2) 0.5857(5) 0.36630(18)
C8_4 C 0.6895(2) 0.5357(4) 0.41205(14)
H10_4 H 0.6753 0.4613 0.4123
C9_4 C 0.6971(2) 0.5890(5) 0.45602(18)
H11_4 H 0.6877 0.5507 0.4850
C10_4 C 0.7184(2) 0.6982(4) 0.45861(19)
C11_4 C 0.7277(2) 0.7560(6) 0.4144(3)
H12_4 H 0.7393 0.8323 0.4153
C12_4 C 0.7201(2) 0.7012(5) 0.3678(3)
H13_4 H 0.7270 0.7411 0.3386
C13_4 C 0.72670(17) 0.7563(4) 0.50627(17)
C14_4 C 0.6169(2) 0.0699(5) 0.1349(2)
H14_4 H 0.6103 0.1096 0.1642
C16_4 C 0.6559(2) 0.0146(4) 0.06779(17)
H16_4 H 0.6812 0.0070 0.0414
N1_4 N 0.6974(2) 0.5270(4) 0.32213(15)
N2_4 N 0.66323(17) 0.0875(3) 0.10431(14)
O1_4 O 0.70016(18) 0.3447(3) 0.15023(13)
O2_4 O 0.6948(2) 0.2173(4) 0.20626(17)
O3_4 O 0.74538(15) 0.8563(3) 0.50686(11)
N6_2 N 0.80047(16) 0.1695(3) 0.12229(13)
C28_4 C 0.98373(19) 0.0542(4) 0.09313(17)
H24_4 H 0.9931 0.1226 0.1088
C29_4 C 0.92820(19) 0.0186(4) 0.09186(16)
C30_4 C 0.83052(19) 0.0894(4) 0.09922(17)
H25_4 H 0.8152 0.0399 0.0758
C31_4 C 0.8908(2) 0.1750(4) 0.1472(2)
H26_4 H 0.9244 0.1963 0.1631
C32_4 C 0.8395(2) 0.2224(5) 0.15295(18)
H27_4 H 0.8312 0.2823 0.1744
N4_4 N 0.88429(15) 0.0876(3) 0.11298(13)
C19_4 C 0.3964(2) 0.2995(4) 0.00952(19)
H18_4 H 0.3715 0.3531 0.0231
C20_4 C 0.45460(19) 0.3047(4) 0.01973(17)
C21_4 C 0.4894(2) 0.2221(4) 0.0007(2)
C23_4 C 0.5520(2) 0.2428(4) 0.0185(2)
H20_4 H 0.5655 0.1809 0.0394
C24_4 C 0.48769(17) 0.3872(4) 0.04732(17)
C25_4 C 0.5441(2) 0.3522(4) 0.04720(19)
C26_4 C 0.5869(2) 0.4163(4) 0.06896(18)
H22_4 H 0.6247 0.3917 0.0683
C27_4 C 0.47323(19) 0.4883(4) 0.07101(18)
H23_4 H 0.4353 0.5122 0.0722
C28_5 C 0.51627(19) 0.5542(4) 0.09313(17)
H24_5 H 0.5069 0.6226 0.1088
C29_5 C 0.57180(19) 0.5186(4) 0.09186(16)
C30_5 C 0.66948(19) 0.5894(4) 0.09922(17)
H25_5 H 0.6848 0.5399 0.0758
C31_5 C 0.6092(2) 0.6750(4) 0.1472(2)
H26_5 H 0.5756 0.6963 0.1631
C32_5 C 0.6605(2) 0.7224(5) 0.15295(18)
H27_5 H 0.6688 0.7823 0.1744
N4_5 N 0.61571(15) 0.5876(3) 0.11298(13)
N5_3 N 0.69953(16) 0.6695(3) 0.12229(13)
Zn2_2 Zn 0.78029(2) 0.71703(4) 0.108314(19)
C1_5 C 0.8081(2) 0.8184(4) 0.1929(2)
C2_5 C 0.8209(3) 0.9109(5) 0.23102(19)
H1_5 H 0.8526 0.9562 0.2176
C3_5 C 0.8417(3) 0.8620(6) 0.2782(2)
H2_5 H 0.8135 0.8087 0.2911
H3_5 H 0.8768 0.8199 0.2724
C4_5 C 0.8522(2) 0.9531(5) 0.31516(15)
H4_5 H 0.8622 0.9181 0.3465
H5_5 H 0.8844 0.9994 0.3045
C6_5 C 0.7737(3) 0.9902(5) 0.2379(2)
H8_5 H 0.7397 0.9469 0.2466
H10_5 H 0.8247 0.9613 0.4123
C14_5 C 0.8831(2) 0.5699(5) 0.1349(2)
H14_5 H 0.8897 0.6096 0.1642
C15_4 C 0.9169(2) 0.4889(5) 0.1169(2)
H15_4 H 0.9506 0.4617 0.1310
C16_5 C 0.8441(2) 0.5146(4) 0.06779(17)
H16_5 H 0.8188 0.5070 0.0414
C17_4 C 0.91264(19) 0.3659(4) 0.03900(18)
C18_4 C 0.8759(2) 0.2862(4) 0.02094(18)
H17_4 H 0.8373 0.2891 0.0290
C22_4 C 0.9692(2) 0.3654(4) 0.0284(2)
H19_4 H 0.9934 0.4222 0.0404
N2_5 N 0.83677(17) 0.5875(3) 0.10431(14)
N3_4 N 0.89195(16) 0.4524(3) 0.07279(15)
O1_5 O 0.79984(18) 0.8447(3) 0.15023(13)
O2_5 O 0.8052(2) 0.7173(4) 0.20626(17)
O5_3 O 0.78443(13) 0.8006(3) 0.04525(11)
C13_5 C 0.77330(17) 0.7437(4) 0.00627(17)
O3_5 O 0.75462(15) 0.6437(3) 0.00686(11)
C15_5 C 0.4169(2) 0.0111(5) 0.8831(2)
H15_5 H 0.4506 0.0383 0.8690
C17_5 C 0.41264(19) 0.1341(4) 0.96100(18)
C18_5 C 0.3759(2) 0.2138(4) 0.97906(18)
H17_5 H 0.3373 0.2109 0.9710
C22_5 C 0.4692(2) 0.1346(4) 0.9716(2)
H19_5 H 0.4934 0.0778 0.9596
H21_3 H 0.5781 0.2529 0.9910
N3_5 N 0.39195(16) 0.0476(3) 0.92721(15)
C1_6 C 0.3081(2) 0.6816(4) 0.8071(2)
C2_6 C 0.3209(3) 0.5891(5) 0.76898(19)
H1_6 H 0.3526 0.5438 0.7824
C3_6 C 0.3417(3) 0.6380(6) 0.7218(2)
H2_6 H 0.3135 0.6913 0.7089
H3_6 H 0.3768 0.6801 0.7276
C4_6 C 0.3522(2) 0.5469(5) 0.68484(15)
H4_6 H 0.3622 0.5819 0.6535
H5_6 H 0.3844 0.5006 0.6955
C5_5 C 0.2843(3) 0.4226(5) 0.72329(18)
H6_5 H 0.3133 0.3694 0.7348
H7_5 H 0.2494 0.3794 0.7176
C6_6 C 0.2737(3) 0.5098(5) 0.7621(2)
H8_6 H 0.2397 0.5531 0.7534
H9_5 H 0.2662 0.4710 0.7931
C7_5 C 0.2982(2) 0.4143(5) 0.63370(18)
C8_5 C 0.3105(2) 0.4643(4) 0.58795(14)
H10_6 H 0.3247 0.5387 0.5877
C9_5 C 0.3029(2) 0.4110(5) 0.54398(18)
H11_5 H 0.3123 0.4493 0.5150
C10_5 C 0.2816(2) 0.3018(4) 0.54139(19)
C11_5 C 0.2723(2) 0.2440(6) 0.5856(3)
H12_5 H 0.2607 0.1677 0.5847
C12_5 C 0.2799(2) 0.2988(5) 0.6322(3)
H13_5 H 0.2730 0.2589 0.6614
C13_6 C 0.27330(17) 0.2437(4) 0.49373(17)
C14_6 C 0.3831(2) 0.9301(5) 0.8651(2)
H14_6 H 0.3897 0.8904 0.8358
C16_6 C 0.3441(2) 0.9854(4) 0.93221(17)
H16_6 H 0.3188 0.9930 0.9586
N1_5 N 0.3026(2) 0.4730(4) 0.67787(15)
N2_6 N 0.33677(17) 0.9125(3) 0.89569(14)
O1_6 O 0.29984(18) 0.6553(3) 0.84977(13)
O2_6 O 0.3052(2) 0.7827(4) 0.79374(17)
O3_6 O 0.25462(15) 0.1437(3) 0.49314(11)
O4_3 O 0.28443(13) 0.3006(3) 0.45475(11)
Zn1_2 Zn 0.28029(2) 0.78297(4) 0.891686(19)
N6_3 N 0.19953(16) 0.8305(3) 0.87771(13)
O5_4 O 0.28443(13) 0.6994(3) 0.95475(11)
Zn3_3 Zn 0.28029(2) 0.21703(4) 0.391686(19)
C28_6 C 0.01627(19) 0.9458(4) 0.90687(17)
H24_6 H 0.0069 0.8774 0.8912
C29_6 C 0.07180(19) 0.9814(4) 0.90814(16)
C30_6 C 0.16948(19) 0.9106(4) 0.90078(17)
H25_6 H 0.1848 0.9601 0.9242
C31_6 C 0.1092(2) 0.8250(4) 0.8528(2)
H26_6 H 0.0756 0.8037 0.8369
C32_6 C 0.1605(2) 0.7776(5) 0.84705(18)
H27_6 H 0.1688 0.7177 0.8256
N4_6 N 0.11571(15) 0.9124(3) 0.88702(13)
C28_7 C 0.01627(19) 0.0542(4) 0.40687(17)
H24_7 H 0.0069 0.1226 0.3912
C29_7 C 0.07180(19) 0.0186(4) 0.40814(16)
C30_7 C 0.16948(19) 0.0894(4) 0.40078(17)
H25_7 H 0.1848 0.0399 0.4242
C31_7 C 0.1092(2) 0.1750(4) 0.3528(2)
H26_7 H 0.0756 0.1963 0.3369
C32_7 C 0.1605(2) 0.2224(5) 0.34705(18)
H27_7 H 0.1688 0.2823 0.3256
N4_7 N 0.11571(15) 0.0876(3) 0.38702(13)
N5_4 N 0.19953(16) 0.1695(3) 0.37771(13)
C1_7 C 0.3081(2) 0.3184(4) 0.3071(2)
C2_7 C 0.3209(3) 0.4109(5) 0.26898(19)
H1_7 H 0.3526 0.4562 0.2824
C3_7 C 0.3417(3) 0.3620(6) 0.2218(2)
H2_7 H 0.3135 0.3087 0.2089
H3_7 H 0.3768 0.3199 0.2276
C4_7 C 0.3522(2) 0.4531(5) 0.18484(15)
H4_7 H 0.3622 0.4181 0.1535
H5_7 H 0.3844 0.4994 0.1955
C5_6 C 0.2843(3) 0.5774(5) 0.22329(18)
H6_6 H 0.3133 0.6306 0.2348
H7_6 H 0.2494 0.6206 0.2176
C6_7 C 0.2737(3) 0.4902(5) 0.2621(2)
H8_7 H 0.2397 0.4469 0.2534
H9_6 H 0.2662 0.5290 0.2931
C7_6 C 0.2982(2) 0.5857(5) 0.13370(18)
C8_6 C 0.3105(2) 0.5357(4) 0.08795(14)
H10_7 H 0.3247 0.4613 0.0877
C9_6 C 0.3029(2) 0.5890(5) 0.04398(18)
H11_6 H 0.3123 0.5507 0.0150
C10_6 C 0.2816(2) 0.6982(4) 0.04139(19)
C11_6 C 0.2723(2) 0.7560(6) 0.0856(3)
H12_6 H 0.2607 0.8323 0.0847
C12_6 C 0.2799(2) 0.7012(5) 0.1322(3)
H13_6 H 0.2730 0.7411 0.1614
C14_7 C 0.3831(2) 0.0699(5) 0.3651(2)
H14_7 H 0.3897 0.1096 0.3358
C16_7 C 0.3441(2) 0.0146(4) 0.43221(17)
H16_7 H 0.3188 0.0070 0.4586
N1_6 N 0.3026(2) 0.5270(4) 0.17787(15)
N2_7 N 0.33677(17) 0.0875(3) 0.39569(14)
O1_7 O 0.29984(18) 0.3447(3) 0.34977(13)
O2_7 O 0.3052(2) 0.2173(4) 0.29374(17)
C13_7 C 0.27330(17) 0.7563(4) 0.99373(17)
O3_7 O 0.25462(15) 0.8563(3) 0.99314(11)
H21_4 H 0.0781 0.2471 0.0090
C23_5 C 0.0520(2) 0.2572(4) 0.9815(2)
H20_5 H 0.0655 0.3191 0.9606
C25_5 C 0.0441(2) 0.1478(4) 0.95280(19)
C26_5 C 0.0869(2) 0.0837(4) 0.93104(18)
H22_5 H 0.1247 0.1083 0.9317
C5_7 C 0.7843(3) 0.0774(5) 0.27671(18)
H6_7 H 0.8133 0.1306 0.2652
H7_7 H 0.7494 0.1206 0.2824
H9_7 H 0.7662 0.0290 0.2069
C7_7 C 0.7982(2) 0.0857(5) 0.36630(18)
C8_7 C 0.8105(2) 0.0357(4) 0.41205(14)
C9_7 C 0.8029(2) 0.0890(5) 0.45602(18)
H11_7 H 0.8123 0.0507 0.4850
C10_7 C 0.7816(2) 0.1982(4) 0.45861(19)
C11_7 C 0.7723(2) 0.2560(6) 0.4144(3)
H12_7 H 0.7607 0.3323 0.4153
C12_7 C 0.7799(2) 0.2012(5) 0.3678(3)
H13_7 H 0.7730 0.2411 0.3386
C13_8 C 0.77330(17) 0.2563(4) 0.50627(17)
N1_7 N 0.8026(2) 0.0270(4) 0.32213(15)
O3_8 O 0.75462(15) 0.3563(3) 0.50686(11)
O4_4 O 0.78443(13) 0.1994(3) 0.54525(11)
Zn3_4 Zn 0.78029(2) 0.28297(4) 0.608314(19)
C1_8 C 0.8081(2) 0.1816(4) 0.6929(2)
C2_8 C 0.8209(3) 0.0891(5) 0.73102(19)
H1_8 H 0.8526 0.0438 0.7176
C3_8 C 0.8417(3) 0.1380(6) 0.7782(2)
H2_8 H 0.8135 0.1913 0.7911
H3_8 H 0.8768 0.1801 0.7724
C4_8 C 0.8522(2) 0.0469(5) 0.81516(15)
H4_8 H 0.8622 0.0819 0.8465
H5_8 H 0.8844 0.0006 0.8045
C6_8 C 0.7737(3) 0.0098(5) 0.7379(2)
H8_8 H 0.7397 0.0531 0.7466
H10_8 H 0.8247 0.0387 0.9123
C14_8 C 0.8831(2) 0.4301(5) 0.6349(2)
H14_8 H 0.8897 0.3904 0.6642
C15_6 C 0.9169(2) 0.5111(5) 0.6169(2)
H15_6 H 0.9506 0.5383 0.6310
C16_8 C 0.8441(2) 0.4854(4) 0.56779(17)
H16_8 H 0.8188 0.4930 0.5414
C17_6 C 0.91264(19) 0.6341(4) 0.53900(18)
C18_6 C 0.8759(2) 0.7138(4) 0.52094(18)
H17_6 H 0.8373 0.7109 0.5290
C19_5 C 0.8964(2) 0.7995(4) 0.49048(19)
H18_5 H 0.8715 0.8531 0.4769
C20_5 C 0.95460(19) 0.8047(4) 0.48027(17)
C21_5 C 0.9894(2) 0.7221(4) 0.4993(2)
C22_6 C 0.9692(2) 0.6346(4) 0.5284(2)
H19_6 H 0.9934 0.5778 0.5404
C24_5 C 0.98769(17) 0.8872(4) 0.45268(17)
C27_5 C 0.97323(19) 0.9883(4) 0.42899(18)
N2_8 N 0.83677(17) 0.4125(3) 0.60431(14)
N3_6 N 0.89195(16) 0.5476(3) 0.57279(15)
O1_8 O 0.79984(18) 0.1553(3) 0.65023(13)
O2_8 O 0.8052(2) 0.2827(4) 0.70626(17)
N6_4 N 0.69953(16) 0.3305(3) 0.62229(13)
C15_7 C 0.4169(2) 0.9889(5) 0.3831(2)
H15_7 H 0.4506 0.9617 0.3690
C17_7 C 0.41264(19) 0.8659(4) 0.46100(18)
C18_7 C 0.3759(2) 0.7862(4) 0.47906(18)
H17_7 H 0.3373 0.7891 0.4710
C19_6 C 0.3964(2) 0.7005(4) 0.50952(19)
H18_6 H 0.3715 0.6469 0.5231
C20_6 C 0.45460(19) 0.6953(4) 0.51973(17)
C21_6 C 0.4894(2) 0.7779(4) 0.5007(2)
C22_7 C 0.4692(2) 0.8654(4) 0.4716(2)
H19_7 H 0.4934 0.9222 0.4596
C23_6 C 0.5520(2) 0.7572(4) 0.5185(2)
H20_6 H 0.5655 0.8191 0.5394
H21_5 H 0.5781 0.7471 0.4910
C24_6 C 0.48769(17) 0.6128(4) 0.54732(17)
C25_6 C 0.5441(2) 0.6478(4) 0.54720(19)
C26_6 C 0.5869(2) 0.5837(4) 0.56896(18)
H22_6 H 0.6247 0.6083 0.5683
C27_6 C 0.47323(19) 0.5117(4) 0.57101(18)
H23_5 H 0.4353 0.4878 0.5722
C28_8 C 0.51627(19) 0.4458(4) 0.59313(17)
H24_8 H 0.5069 0.3774 0.6088
C29_8 C 0.57180(19) 0.4814(4) 0.59186(16)
C30_8 C 0.66948(19) 0.4106(4) 0.59922(17)
H25_8 H 0.6848 0.4601 0.5758
C31_8 C 0.6092(2) 0.3250(4) 0.6472(2)
H26_8 H 0.5756 0.3037 0.6631
C32_8 C 0.6605(2) 0.2776(5) 0.65295(18)
H27_8 H 0.6688 0.2177 0.6744
N3_7 N 0.39195(16) 0.9524(3) 0.42721(15)
N4_8 N 0.61571(15) 0.4124(3) 0.61298(13)
C19_7 C 0.8964(2) 0.2005(4) 0.99048(19)
H18_7 H 0.8715 0.1469 0.9769
C20_7 C 0.95460(19) 0.1953(4) 0.98027(17)
C21_7 C 0.9894(2) 0.2779(4) 0.9993(2)
C24_7 C 0.98769(17) 0.1128(4) 0.95268(17)
C27_7 C 0.97323(19) 0.0117(4) 0.92899(18)
H23_6 H 0.9353 0.9878 0.9278
C23_7 C 0.0520(2) 0.7428(4) 0.4815(2)
H20_7 H 0.0655 0.6809 0.4606
H21_6 H 0.0781 0.7529 0.5090
C25_7 C 0.0441(2) 0.8522(4) 0.45280(19)
C26_7 C 0.0869(2) 0.9163(4) 0.43104(18)
H22_7 H 0.1247 0.8917 0.4317
H23_7 H 0.9353 0.0122 0.4278
C5_8 C 0.7843(3) 0.9226(5) 0.77671(18)
H6_8 H 0.8133 0.8694 0.7652
H7_8 H 0.7494 0.8794 0.7824
H9_8 H 0.7662 0.9710 0.7069
C7_8 C 0.7982(2) 0.9143(5) 0.86630(18)
C8_8 C 0.8105(2) 0.9643(4) 0.91205(14)
C9_8 C 0.8029(2) 0.9110(5) 0.95602(18)
H11_8 H 0.8123 0.9493 0.9850
C10_8 C 0.7816(2) 0.8018(4) 0.95861(19)
C11_8 C 0.7723(2) 0.7440(6) 0.9144(3)
H12_8 H 0.7607 0.6677 0.9153
C12_8 C 0.7799(2) 0.7988(5) 0.8678(3)
H13_8 H 0.7730 0.7589 0.8386
N1_8 N 0.8026(2) 0.9730(4) 0.82213(15)
C15_8 C 0.5831(2) 0.9889(5) 0.1169(2)
H15_8 H 0.5494 0.9617 0.1310
C17_8 C 0.58736(19) 0.8659(4) 0.03900(18)
C18_8 C 0.6241(2) 0.7862(4) 0.02094(18)
H17_8 H 0.6627 0.7891 0.0290
C22_8 C 0.5308(2) 0.8654(4) 0.0284(2)
H19_8 H 0.5066 0.9222 0.0404
H21_7 H 0.4219 0.7471 0.0090
N3_8 N 0.60805(16) 0.9524(3) 0.07279(15)
H23_8 H 0.0647 0.0122 0.0722
C19_8 C 0.1036(2) 0.7995(4) 0.00952(19)
H18_8 H 0.1285 0.8531 0.0231
C20_8 C 0.04540(19) 0.8047(4) 0.01973(17)
C21_8 C 0.0106(2) 0.7221(4) 0.0007(2)
C24_8 C 0.01231(17) 0.8872(4) 0.04732(17)
C27_8 C 0.02677(19) 0.9883(4) 0.07101(18)
C23_8 C 0.9480(2) 0.7428(4) 0.0185(2)
H20_8 H 0.9345 0.6809 0.0394
C25_8 C 0.9559(2) 0.8522(4) 0.04720(19)
C26_8 C 0.9131(2) 0.9163(4) 0.06896(18)
H22_8 H 0.8753 0.8917 0.0683
H21_8 H 0.9219 0.7529 0.9910
loop_
_geom_bond_atom_site_label_1
_geom_bond_atom_site_label_2
_geom_bond_site_symmetry_1
_geom_bond_site_symmetry_2
C5 H6 1_555 1_555
H7 C5 1_555 1_555
C7 C8 1_555 1_555
C9 C8 1_555 1_555
H11 C9 1_555 1_555
C10 C9 1_555 1_555
C11 C10 1_555 1_555
H12 C11 1_555 1_555
C12 C7 1_555 1_555
H13 C12 1_555 1_555
C5 N1 1_555 1_555
C7 N1 1_555 1_555
C11 C12 1_555 1_555
O3 C13 1_555 1_555
O4 C13 1_555 1_555
Zn3 O4 1_555 1_555
H18 C19 1_555 1_555
C20 C19 1_555 1_555
C21 C20 1_555 1_555
C23 C21 1_555 1_555
H20 C23 1_555 1_555
C24 C20 1_555 1_555
C25 C23 1_555 1_555
C26 C25 1_555 1_555
H22 C26 1_555 1_555
C27 C24 1_555 1_555
H23 C27 1_555 1_555
C28 C27 1_555 1_555
H24 C28 1_555 1_555
C29 C26 1_555 1_555
C30 H25 1_555 1_555
C31 H26 1_555 1_555
C32 C31 1_555 1_555
H27 C32 1_555 1_555
N4 C29 1_555 1_555
N5 C30 1_555 1_555
Zn3 N5 1_555 1_555
C24 C25 1_555 1_555
C28 C29 1_555 1_555
C30 N4 1_555 1_555
C31 N4 1_555 1_555
C32 N5 1_555 1_555
C1 C2 1_555 1_555
C2 H1 1_555 1_555
C3 C2 1_555 1_555
H2 C3 1_555 1_555
H3 C3 1_555 1_555
C4 C3 1_555 1_555
H4 C4 1_555 1_555
H5 C4 1_555 1_555
C6 C2 1_555 1_555
H8 C6 1_555 1_555
C14 H14 1_555 1_555
C15 C14 1_555 1_555
H15 C15 1_555 1_555
C16 H16 1_555 1_555
C17 C18 1_555 1_555
C18 H17 1_555 1_555
C22 C17 1_555 1_555
H19 C22 1_555 1_555
N2 C14 1_555 1_555
N3 C15 1_555 1_555
O1 C1 1_555 1_555
O2 C1 1_555 1_555
Zn3 N2 1_555 1_555
C16 N2 1_555 1_555
C16 N3 1_555 1_555
C17 N3 1_555 1_555
O1 Zn3 1_555 1_555
C1_2 C2_2 1_555 1_555
C2_2 H1_2 1_555 1_555
C3_2 C2_2 1_555 1_555
H2_2 C3_2 1_555 1_555
H3_2 C3_2 1_555 1_555
C4_2 C3_2 1_555 1_555
H4_2 C4_2 1_555 1_555
H5_2 C4_2 1_555 1_555
C6_2 C2_2 1_555 1_555
H8_2 C6_2 1_555 1_555
C14_2 H14_2 1_555 1_555
C15_2 C14_2 1_555 1_555
H15_2 C15_2 1_555 1_555
C16_2 H16_2 1_555 1_555
C17_2 C18_2 1_555 1_555
C18_2 H17_2 1_555 1_555
C19_2 C18_2 1_555 1_555
H18_2 C19_2 1_555 1_555
C20_2 C19_2 1_555 1_555
C21_2 C20_2 1_555 1_555
C22_2 C17_2 1_555 1_555
H19_2 C22_2 1_555 1_555
C24_2 C20_2 1_555 1_555
C27_2 C24_2 1_555 1_555
N2_2 C14_2 1_555 1_555
N3_2 C15_2 1_555 1_555
O1_2 C1_2 1_555 1_555
O2_2 C1_2 1_555 1_555
Zn1 N2_2 1_555 1_555
N6 Zn1 1_555 1_555
O5 Zn1 1_555 1_555
C16_2 N2_2 1_555 1_555
C16_2 N3_2 1_555 1_555
C17_2 N3_2 1_555 1_555
C21_2 C22_2 1_555 1_555
O1_2 Zn1 1_555 1_555
H15_3 C15_3 1_555 1_555
C17_3 C18_3 1_555 1_555
C18_3 H17_3 1_555 1_555
C19_3 C18_3 1_555 1_555
H18_3 C19_3 1_555 1_555
C20_3 C19_3 1_555 1_555
C21_3 C20_3 1_555 1_555
C22_3 C17_3 1_555 1_555
H19_3 C22_3 1_555 1_555
C23_2 C21_3 1_555 1_555
H20_2 C23_2 1_555 1_555
H21 C23_2 1_555 1_555
C24_3 C20_3 1_555 1_555
C25_2 C23_2 1_555 1_555
C26_2 C25_2 1_555 1_555
H22_2 C26_2 1_555 1_555
C27_3 C24_3 1_555 1_555
H23_2 C27_3 1_555 1_555
C28_2 C27_3 1_555 1_555
H24_2 C28_2 1_555 1_555
C29_2 C26_2 1_555 1_555
C30_2 H25_2 1_555 1_555
C31_2 H26_2 1_555 1_555
C32_2 C31_2 1_555 1_555
H27_2 C32_2 1_555 1_555
N3_3 C15_3 1_555 1_555
N4_2 C29_2 1_555 1_555
N6 C30_2 1_555 1_555
C17_3 N3_3 1_555 1_555
C21_3 C22_3 1_555 1_555
C24_3 C25_2 1_555 1_555
C28_2 C29_2 1_555 1_555
C30_2 N4_2 1_555 1_555
C31_2 N4_2 1_555 1_555
C32_2 N6 1_555 1_555
C5_2 H6_2 1_555 1_555
H7_2 C5_2 1_555 1_555
C7_2 C8_2 1_555 1_555
C9_2 C8_2 1_555 1_555
H11_2 C9_2 1_555 1_555
C10_2 C9_2 1_555 1_555
C11_2 C10_2 1_555 1_555
H12_2 C11_2 1_555 1_555
C12_2 C7_2 1_555 1_555
H13_2 C12_2 1_555 1_555
C13_2 C10_2 1_555 1_555
O3_2 C13_2 1_555 1_555
O5 C13_2 1_555 1_555
C5_2 N1_2 1_555 1_555
C7_2 N1_2 1_555 1_555
C11_2 C12_2 1_555 1_555
H20_3 C23_3 1_555 1_555
H21_2 C23_3 1_555 1_555
C25_3 C23_3 1_555 1_555
C26_3 C25_3 1_555 1_555
H22_3 C26_3 1_555 1_555
H24_3 C28_3 1_555 1_555
C30_3 H25_3 1_555 1_555
C31_3 H26_3 1_555 1_555
C32_3 C31_3 1_555 1_555
H27_3 C32_3 1_555 1_555
N4_3 C29_3 1_555 1_555
N5_2 C30_3 1_555 1_555
Zn2 N5_2 1_555 1_555
C28_3 C29_3 1_555 1_555
C30_3 N4_3 1_555 1_555
C31_3 N4_3 1_555 1_555
C32_3 N5_2 1_555 1_555
O3_3 C13_3 1_555 1_555
O4_2 C13_3 1_555 1_555
Zn3_2 O4_2 1_555 1_555
C1_3 C2_3 1_555 1_555
C2_3 H1_3 1_555 1_555
C3_3 C2_3 1_555 1_555
H2_3 C3_3 1_555 1_555
H3_3 C3_3 1_555 1_555
C4_3 C3_3 1_555 1_555
H4_3 C4_3 1_555 1_555
H5_3 C4_3 1_555 1_555
C5_3 H6_3 1_555 1_555
H7_3 C5_3 1_555 1_555
C6_3 C2_3 1_555 1_555
H8_3 C6_3 1_555 1_555
H9_3 C6_3 1_555 1_555
C7_3 C8_3 1_555 1_555
C8_3 H10_3 1_555 1_555
C9_3 C8_3 1_555 1_555
H11_3 C9_3 1_555 1_555
C10_3 C9_3 1_555 1_555
C11_3 C10_3 1_555 1_555
H12_3 C11_3 1_555 1_555
C12_3 C7_3 1_555 1_555
H13_3 C12_3 1_555 1_555
C14_3 H14_3 1_555 1_555
C16_3 H16_3 1_555 1_555
N1_3 C4_3 1_555 1_555
N2_3 C14_3 1_555 1_555
O1_3 C1_3 1_555 1_555
O2_3 C1_3 1_555 1_555
Zn2 N2_3 1_555 1_555
O5_2 Zn2 1_555 1_555
C5_3 C6_3 1_555 1_555
C5_3 N1_3 1_555 1_555
C7_3 N1_3 1_555 1_555
C11_3 C12_3 1_555 1_555
C16_3 N2_3 1_555 1_555
O1_3 Zn2 1_555 1_555
C1_4 C2_4 1_555 1_555
C2_4 H1_4 1_555 1_555
C3_4 C2_4 1_555 1_555
H2_4 C3_4 1_555 1_555
H3_4 C3_4 1_555 1_555
C4_4 C3_4 1_555 1_555
H4_4 C4_4 1_555 1_555
H5_4 C4_4 1_555 1_555
C5_4 H6_4 1_555 1_555
H7_4 C5_4 1_555 1_555
C6_4 C2_4 1_555 1_555
H8_4 C6_4 1_555 1_555
H9_4 C6_4 1_555 1_555
C7_4 C8_4 1_555 1_555
C8_4 H10_4 1_555 1_555
C9_4 C8_4 1_555 1_555
H11_4 C9_4 1_555 1_555
C10_4 C9_4 1_555 1_555
C11_4 C10_4 1_555 1_555
H12_4 C11_4 1_555 1_555
C12_4 C7_4 1_555 1_555
H13_4 C12_4 1_555 1_555
C13_4 C10_4 1_555 1_555
C14_4 H14_4 1_555 1_555
C16_4 H16_4 1_555 1_555
N1_4 C4_4 1_555 1_555
N2_4 C14_4 1_555 1_555
O1_4 C1_4 1_555 1_555
O2_4 C1_4 1_555 1_555
O3_4 C13_4 1_555 1_555
O5_2 C13_4 1_555 1_555
Zn3_2 N2_4 1_555 1_555
N6_2 Zn3_2 1_555 1_555
C5_4 C6_4 1_555 1_555
C5_4 N1_4 1_555 1_555
C7_4 N1_4 1_555 1_555
C11_4 C12_4 1_555 1_555
C16_4 N2_4 1_555 1_555
O1_4 Zn3_2 1_555 1_555
H24_4 C28_4 1_555 1_555
C30_4 H25_4 1_555 1_555
C31_4 H26_4 1_555 1_555
C32_4 C31_4 1_555 1_555
H27_4 C32_4 1_555 1_555
N4_4 C29_4 1_555 1_555
N6_2 C30_4 1_555 1_555
C28_4 C29_4 1_555 1_555
C30_4 N4_4 1_555 1_555
C31_4 N4_4 1_555 1_555
C32_4 N6_2 1_555 1_555
H18_4 C19_4 1_555 1_555
C20_4 C19_4 1_555 1_555
C21_4 C20_4 1_555 1_555
C23_4 C21_4 1_555 1_555
H20_4 C23_4 1_555 1_555
C24_4 C20_4 1_555 1_555
C25_4 C23_4 1_555 1_555
C26_4 C25_4 1_555 1_555
H22_4 C26_4 1_555 1_555
C27_4 C24_4 1_555 1_555
H23_4 C27_4 1_555 1_555
C28_5 C27_4 1_555 1_555
H24_5 C28_5 1_555 1_555
C29_5 C26_4 1_555 1_555
C30_5 H25_5 1_555 1_555
C31_5 H26_5 1_555 1_555
C32_5 C31_5 1_555 1_555
H27_5 C32_5 1_555 1_555
N4_5 C29_5 1_555 1_555
N5_3 C30_5 1_555 1_555
Zn2_2 N5_3 1_555 1_555
C24_4 C25_4 1_555 1_555
C28_5 C29_5 1_555 1_555
C30_5 N4_5 1_555 1_555
C31_5 N4_5 1_555 1_555
C32_5 N5_3 1_555 1_555
C1_5 C2_5 1_555 1_555
C2_5 H1_5 1_555 1_555
C3_5 C2_5 1_555 1_555
H2_5 C3_5 1_555 1_555
H3_5 C3_5 1_555 1_555
C4_5 C3_5 1_555 1_555
H4_5 C4_5 1_555 1_555
H5_5 C4_5 1_555 1_555
C6_5 C2_5 1_555 1_555
H8_5 C6_5 1_555 1_555
C14_5 H14_5 1_555 1_555
C15_4 C14_5 1_555 1_555
H15_4 C15_4 1_555 1_555
C16_5 H16_5 1_555 1_555
C17_4 C18_4 1_555 1_555
C18_4 H17_4 1_555 1_555
C22_4 C17_4 1_555 1_555
H19_4 C22_4 1_555 1_555
N2_5 C14_5 1_555 1_555
N3_4 C15_4 1_555 1_555
O1_5 C1_5 1_555 1_555
O2_5 C1_5 1_555 1_555
Zn2_2 N2_5 1_555 1_555
O5_3 Zn2_2 1_555 1_555
C16_5 N2_5 1_555 1_555
C16_5 N3_4 1_555 1_555
C17_4 N3_4 1_555 1_555
O1_5 Zn2_2 1_555 1_555
O3_5 C13_5 1_555 1_555
O5_3 C13_5 1_555 1_555
H15_5 C15_5 1_555 1_555
C17_5 C18_5 1_555 1_555
C18_5 H17_5 1_555 1_555
C22_5 C17_5 1_555 1_555
H19_5 C22_5 1_555 1_555
N3_5 C15_5 1_555 1_555
C17_5 N3_5 1_555 1_555
C1_6 C2_6 1_555 1_555
C2_6 H1_6 1_555 1_555
C3_6 C2_6 1_555 1_555
H2_6 C3_6 1_555 1_555
H3_6 C3_6 1_555 1_555
C4_6 C3_6 1_555 1_555
H4_6 C4_6 1_555 1_555
H5_6 C4_6 1_555 1_555
C5_5 H6_5 1_555 1_555
H7_5 C5_5 1_555 1_555
C6_6 C2_6 1_555 1_555
H8_6 C6_6 1_555 1_555
H9_5 C6_6 1_555 1_555
C7_5 C8_5 1_555 1_555
C8_5 H10_6 1_555 1_555
C9_5 C8_5 1_555 1_555
H11_5 C9_5 1_555 1_555
C10_5 C9_5 1_555 1_555
C11_5 C10_5 1_555 1_555
H12_5 C11_5 1_555 1_555
C12_5 C7_5 1_555 1_555
H13_5 C12_5 1_555 1_555
C13_6 C10_5 1_555 1_555
C14_6 H14_6 1_555 1_555
C16_6 H16_6 1_555 1_555
N1_5 C4_6 1_555 1_555
N2_6 C14_6 1_555 1_555
O1_6 C1_6 1_555 1_555
O2_6 C1_6 1_555 1_555
O3_6 C13_6 1_555 1_555
O4_3 C13_6 1_555 1_555
Zn1_2 N2_6 1_555 1_555
N6_3 Zn1_2 1_555 1_555
O5_4 Zn1_2 1_555 1_555
Zn3_3 O4_3 1_555 1_555
C5_5 C6_6 1_555 1_555
C5_5 N1_5 1_555 1_555
C7_5 N1_5 1_555 1_555
C11_5 C12_5 1_555 1_555
C16_6 N2_6 1_555 1_555
O1_6 Zn1_2 1_555 1_555
H24_6 C28_6 1_555 1_555
C30_6 H25_6 1_555 1_555
C31_6 H26_6 1_555 1_555
C32_6 C31_6 1_555 1_555
H27_6 C32_6 1_555 1_555
N4_6 C29_6 1_555 1_555
N6_3 C30_6 1_555 1_555
C28_6 C29_6 1_555 1_555
C30_6 N4_6 1_555 1_555
C31_6 N4_6 1_555 1_555
C32_6 N6_3 1_555 1_555
H24_7 C28_7 1_555 1_555
C30_7 H25_7 1_555 1_555
C31_7 H26_7 1_555 1_555
C32_7 C31_7 1_555 1_555
H27_7 C32_7 1_555 1_555
N4_7 C29_7 1_555 1_555
N5_4 C30_7 1_555 1_555
Zn3_3 N5_4 1_555 1_555
C28_7 C29_7 1_555 1_555
C30_7 N4_7 1_555 1_555
C31_7 N4_7 1_555 1_555
C32_7 N5_4 1_555 1_555
C1_7 C2_7 1_555 1_555
C2_7 H1_7 1_555 1_555
C3_7 C2_7 1_555 1_555
H2_7 C3_7 1_555 1_555
H3_7 C3_7 1_555 1_555
C4_7 C3_7 1_555 1_555
H4_7 C4_7 1_555 1_555
H5_7 C4_7 1_555 1_555
C5_6 H6_6 1_555 1_555
H7_6 C5_6 1_555 1_555
C6_7 C2_7 1_555 1_555
H8_7 C6_7 1_555 1_555
H9_6 C6_7 1_555 1_555
C7_6 C8_6 1_555 1_555
C8_6 H10_7 1_555 1_555
C9_6 C8_6 1_555 1_555
H11_6 C9_6 1_555 1_555
C10_6 C9_6 1_555 1_555
C11_6 C10_6 1_555 1_555
H12_6 C11_6 1_555 1_555
C12_6 C7_6 1_555 1_555
H13_6 C12_6 1_555 1_555
C14_7 H14_7 1_555 1_555
C16_7 H16_7 1_555 1_555
N1_6 C4_7 1_555 1_555
N2_7 C14_7 1_555 1_555
O1_7 C1_7 1_555 1_555
O2_7 C1_7 1_555 1_555
Zn3_3 N2_7 1_555 1_555
C5_6 C6_7 1_555 1_555
C5_6 N1_6 1_555 1_555
C7_6 N1_6 1_555 1_555
C11_6 C12_6 1_555 1_555
C16_7 N2_7 1_555 1_555
O1_7 Zn3_3 1_555 1_555
O3_7 C13_7 1_555 1_555
O5_4 C13_7 1_555 1_555
H20_5 C23_5 1_555 1_555
C25_5 C23_5 1_555 1_555
C26_5 C25_5 1_555 1_555
H22_5 C26_5 1_555 1_555
C5_7 H6_7 1_555 1_555
H7_7 C5_7 1_555 1_555
C7_7 C8_7 1_555 1_555
C9_7 C8_7 1_555 1_555
H11_7 C9_7 1_555 1_555
C10_7 C9_7 1_555 1_555
C11_7 C10_7 1_555 1_555
H12_7 C11_7 1_555 1_555
C12_7 C7_7 1_555 1_555
H13_7 C12_7 1_555 1_555
C13_8 C10_7 1_555 1_555
O3_8 C13_8 1_555 1_555
O4_4 C13_8 1_555 1_555
Zn3_4 O4_4 1_555 1_555
C5_7 N1_7 1_555 1_555
C7_7 N1_7 1_555 1_555
C11_7 C12_7 1_555 1_555
C1_8 C2_8 1_555 1_555
C2_8 H1_8 1_555 1_555
C3_8 C2_8 1_555 1_555
H2_8 C3_8 1_555 1_555
H3_8 C3_8 1_555 1_555
C4_8 C3_8 1_555 1_555
H4_8 C4_8 1_555 1_555
H5_8 C4_8 1_555 1_555
C6_8 C2_8 1_555 1_555
H8_8 C6_8 1_555 1_555
C14_8 H14_8 1_555 1_555
C15_6 C14_8 1_555 1_555
H15_6 C15_6 1_555 1_555
C16_8 H16_8 1_555 1_555
C17_6 C18_6 1_555 1_555
C18_6 H17_6 1_555 1_555
C19_5 C18_6 1_555 1_555
H18_5 C19_5 1_555 1_555
C20_5 C19_5 1_555 1_555
C21_5 C20_5 1_555 1_555
C22_6 C17_6 1_555 1_555
H19_6 C22_6 1_555 1_555
C24_5 C20_5 1_555 1_555
C27_5 C24_5 1_555 1_555
N2_8 C14_8 1_555 1_555
N3_6 C15_6 1_555 1_555
O1_8 C1_8 1_555 1_555
O2_8 C1_8 1_555 1_555
Zn3_4 N2_8 1_555 1_555
N6_4 Zn3_4 1_555 1_555
C16_8 N2_8 1_555 1_555
C16_8 N3_6 1_555 1_555
C17_6 N3_6 1_555 1_555
C21_5 C22_6 1_555 1_555
O1_8 Zn3_4 1_555 1_555
H15_7 C15_7 1_555 1_555
C17_7 C18_7 1_555 1_555
C18_7 H17_7 1_555 1_555
C19_6 C18_7 1_555 1_555
H18_6 C19_6 1_555 1_555
C20_6 C19_6 1_555 1_555
C21_6 C20_6 1_555 1_555
C22_7 C17_7 1_555 1_555
H19_7 C22_7 1_555 1_555
C23_6 C21_6 1_555 1_555
H20_6 C23_6 1_555 1_555
H21_5 C23_6 1_555 1_555
C24_6 C20_6 1_555 1_555
C25_6 C23_6 1_555 1_555
C26_6 C25_6 1_555 1_555
H22_6 C26_6 1_555 1_555
C27_6 C24_6 1_555 1_555
H23_5 C27_6 1_555 1_555
C28_8 C27_6 1_555 1_555
H24_8 C28_8 1_555 1_555
C29_8 C26_6 1_555 1_555
C30_8 H25_8 1_555 1_555
C31_8 H26_8 1_555 1_555
C32_8 C31_8 1_555 1_555
H27_8 C32_8 1_555 1_555
N3_7 C15_7 1_555 1_555
N4_8 C29_8 1_555 1_555
N6_4 C30_8 1_555 1_555
C17_7 N3_7 1_555 1_555
C21_6 C22_7 1_555 1_555
C24_6 C25_6 1_555 1_555
C28_8 C29_8 1_555 1_555
C30_8 N4_8 1_555 1_555
C31_8 N4_8 1_555 1_555
C32_8 N6_4 1_555 1_555
H18_7 C19_7 1_555 1_555
C20_7 C19_7 1_555 1_555
C21_7 C20_7 1_555 1_555
C24_7 C20_7 1_555 1_555
C27_7 C24_7 1_555 1_555
H20_7 C23_7 1_555 1_555
H21_6 C23_7 1_555 1_555
C25_7 C23_7 1_555 1_555
C26_7 C25_7 1_555 1_555
H22_7 C26_7 1_555 1_555
C5_8 H6_8 1_555 1_555
H7_8 C5_8 1_555 1_555
C7_8 C8_8 1_555 1_555
C9_8 C8_8 1_555 1_555
H11_8 C9_8 1_555 1_555
C10_8 C9_8 1_555 1_555
C11_8 C10_8 1_555 1_555
H12_8 C11_8 1_555 1_555
C12_8 C7_8 1_555 1_555
H13_8 C12_8 1_555 1_555
C5_8 N1_8 1_555 1_555
C7_8 N1_8 1_555 1_555
C11_8 C12_8 1_555 1_555
H15_8 C15_8 1_555 1_555
C17_8 C18_8 1_555 1_555
C18_8 H17_8 1_555 1_555
C22_8 C17_8 1_555 1_555
H19_8 C22_8 1_555 1_555
N3_8 C15_8 1_555 1_555
C17_8 N3_8 1_555 1_555
H18_8 C19_8 1_555 1_555
C20_8 C19_8 1_555 1_555
C21_8 C20_8 1_555 1_555
C24_8 C20_8 1_555 1_555
C27_8 C24_8 1_555 1_555
H20_8 C23_8 1_555 1_555
C25_8 C23_8 1_555 1_555
C26_8 C25_8 1_555 1_555
H22_8 C26_8 1_555 1_555

#END
