
###############################################################################
#
# This file contains modified crystal structure data generated from the
# MOF subset of the Cambridge Structural Database (CSD) v543 
# hosted by the Cambridge Crystallographic Data Centre (CCDC).
#
# This work is licensed under the Creative Commons
# Attribution-NonCommercial-ShareAlike 4.0 International License.
# To view a copy of this license, visit
# http://creativecommons.org/licenses/by-nc-sa/4.0/
# or send a letter to
# Creative Commons, PO Box 1866, Mountain View, CA 94042, USA.
#
# CIF created using the CSD Python API on 29 September 2022
# The structure has been converted into the P1 space group
# The structure has a 3D framework
# The original CSD entry RULRAU is in the monoclinic crystal system
# The framework has been calculated to contain at least 10.0% void space
# The void calculation uses a probe of radius 1.32A, grid spacing 0.4
# H atom positions have been added when not included in the experimental data
#
###############################################################################

data_RULRAU
_chemical_formula_moiety         '(C248 H216 N40 O32 Zn8)n'
_symmetry_cell_setting           triclinic
_symmetry_space_group_name_H-M   'P 1'
_symmetry_Int_Tables_number      1
_space_group_name_Hall           'P 1'
loop_
_symmetry_equiv_pos_site_id
_symmetry_equiv_pos_as_xyz
1 x,y,z
_cell_length_a                   22.4550(10)
_cell_length_b                   13.5382(6)
_cell_length_c                   24.5285(10)
_cell_angle_alpha                90
_cell_angle_beta                 112.0620(10)
_cell_angle_gamma                90
_cell_volume                     6910.68
loop_
_atom_site_label
_atom_site_type_symbol
_atom_site_fract_x
_atom_site_fract_y
_atom_site_fract_z
Zn1 Zn 0.22463(2) 0.17613(3) 0.203563(16)
N2 N 0.1918(2) 0.5074(3) 0.47308(15)
C1 C 0.2196(4) 0.5550(5) 0.5753(2)
H1 H 0.1817 0.5388 0.5835
H2 H 0.2565 0.5453 0.6115
O1 O 0.19202(18) 0.2565(2) 0.25160(14)
O2 O 0.2197(2) 0.1405(3) 0.32067(15)
C2 C 0.1927(2) 0.4383(2) 0.43023(15)
N5 N 0.17623(17) 0.0466(2) 0.18162(14)
C9 C 0.1529(2) 0.0049(3) 0.12918(17)
H5 H 0.1507 0.0352 0.0945
C12 C 0.1954(3) 0.2677(3) 0.4004(2)
H8 H 0.2086 0.2037 0.4131
C13 C 0.2003(2) 0.2233(3) 0.30288(19)
C19 C 0.1863(4) 0.2949(4) 0.3433(2)
C21 C 0.1843(3) 0.6083(3) 0.4581(2)
H15 H 0.1458 0.6159 0.4230
H16 H 0.2204 0.6289 0.4482
C22 C 0.1917(3) 0.3977(3) 0.3339(2)
H17 H 0.1998 0.4192 0.3013
C25 C 0.1798(3) 0.6748(4) 0.5028(3)
H20 H 0.1902 0.7406 0.4934
H21 H 0.1352 0.6761 0.4989
C26 C 0.1849(4) 0.3363(3) 0.4399(2)
H22 H 0.1734 0.3154 0.4707
C27 C 0.2164(4) 0.6574(5) 0.5609(3)
C29 C 0.2240(3) 0.4844(4) 0.5326(2)
H24 H 0.2692 0.4751 0.5396
H25 H 0.2078 0.4216 0.5401
C30 C 0.1846(4) 0.4678(3) 0.3746(2)
H26 H 0.1745 0.5332 0.3632
C31 C 0.2109(5) 0.7338(7) 0.6041(4)
O3 O 0.2448(4) 0.7079(6) 0.6596(3)
O4 O 0.1816(5) 0.8041(5) 0.5924(4)
Zn2 Zn 0.22463(2) 0.82387(3) 0.703563(16)
N6 N 0.31644(16) 0.1296(2) 0.24751(13)
O5 O 0.2448(4) 0.2921(6) 0.1596(3)
O6 O 0.1816(5) 0.1959(5) 0.0924(4)
H27 H 0.264702 0.671243 0.562234
N1 N 0.39972(16) 0.9480(2) 0.81028(14)
N4 N 0.31644(16) 0.8704(2) 0.74751(13)
C6 C 0.33531(19) 0.9346(3) 0.79059(17)
H3 H 0.3082 0.9667 0.8056
C7 C 0.4228(2) 0.8876(3) 0.7779(2)
H4 H 0.4654 0.8801 0.7819
C11 C 0.4965(2) 0.9888(3) 0.8956(2)
H7 H 0.5142 0.9281 0.8923
C15 C 0.3708(2) 0.8411(3) 0.7387(2)
H10 H 0.3718 0.7964 0.7103
C1_2 C 0.2196(4) 0.4450(5) 0.0753(2)
H1_2 H 0.1817 0.4612 0.0835
H2_2 H 0.2565 0.4547 0.1115
C25_2 C 0.1798(3) 0.3252(4) 0.0028(3)
C27_2 C 0.2164(4) 0.3426(5) 0.0609(3)
C29_2 C 0.2240(3) 0.5156(4) 0.0326(2)
H24_2 H 0.2692 0.5249 0.0396
H25_2 H 0.2078 0.5784 0.0401
C31_2 C 0.2109(5) 0.2662(7) 0.1041(4)
H27_2 H 0.264702 0.328757 0.0622335
N2_2 N 0.1918(2) 0.4926(3) 0.97308(15)
O1_2 O 0.19202(18) 0.7435(2) 0.75160(14)
O2_2 O 0.2197(2) 0.8595(3) 0.82067(15)
C2_2 C 0.1927(2) 0.5617(2) 0.93023(15)
N5_2 N 0.17623(17) 0.9534(2) 0.68162(14)
C9_2 C 0.1529(2) 0.9951(3) 0.62918(17)
H5_2 H 0.1507 0.9648 0.5945
C12_2 C 0.1954(3) 0.7323(3) 0.9004(2)
H8_2 H 0.2086 0.7963 0.9131
C13_2 C 0.2003(2) 0.7767(3) 0.80288(19)
C19_2 C 0.1863(4) 0.7051(4) 0.8433(2)
C21_2 C 0.1843(3) 0.3917(3) 0.9581(2)
H15_2 H 0.1458 0.3841 0.9230
H16_2 H 0.2204 0.3711 0.9482
C22_2 C 0.1917(3) 0.6023(3) 0.8339(2)
H17_2 H 0.1998 0.5808 0.8013
H20_2 H 0.1902 0.2594 0.9934
H21_2 H 0.1352 0.3239 0.9989
C26_2 C 0.1849(4) 0.6637(3) 0.9399(2)
H22_2 H 0.1734 0.6846 0.9707
C30_2 C 0.1846(4) 0.5322(3) 0.8746(2)
H26_2 H 0.1745 0.4668 0.8632
N1_2 N 0.39972(16) 0.0520(2) 0.31028(14)
C6_2 C 0.33531(19) 0.0654(3) 0.29059(17)
H3_2 H 0.3082 0.0333 0.3056
C7_2 C 0.4228(2) 0.1124(3) 0.2779(2)
H4_2 H 0.4654 0.1199 0.2819
C11_2 C 0.4965(2) 0.0112(3) 0.3956(2)
H7_2 H 0.5142 0.0719 0.3923
C15_2 C 0.3708(2) 0.1589(3) 0.2387(2)
H10_2 H 0.3718 0.2036 0.2103
N3 N 0.13253(19) 0.9120(2) 0.13292(15)
C4 C 0.1032(2) 0.8455(3) 0.08525(19)
C17 C 0.1173(3) 0.7464(3) 0.0921(2)
H12 H 0.1486 0.7234 0.1267
C18 C 0.0852(2) 0.6810(3) 0.0477(2)
H13 H 0.0936 0.6137 0.0536
C20 C 0.1710(3) 0.9769(4) 0.2207(2)
H14 H 0.1834 0.9859 0.2610
C23 C 0.0613(3) 0.8796(3) 0.0319(2)
H18 H 0.0539 0.9471 0.0262
C28 C 0.1453(3) 0.8942(4) 0.1913(2)
H23 H 0.1375 0.8357 0.2074
C3 C 0.0041(2) 0.6440(3) 0.94617(19)
C8 C 0.0404(2) 0.7140(3) 0.99418(19)
C10 C 0.0304(2) 0.5544(3) 0.9393(2)
H6 H 0.0717 0.5381 0.9648
H7_3 H 0.0142 0.4281 0.8923
C24 C 0.0300(3) 0.8147(3) 0.9865(2)
H19 H 0.0018 0.8389 0.9506
N1_3 N 0.89972(16) 0.4480(2) 0.81028(14)
N4_2 N 0.81644(16) 0.3704(2) 0.74751(13)
C5 C 0.93605(19) 0.5148(3) 0.85692(18)
C6_3 C 0.83531(19) 0.4346(3) 0.79059(17)
H3_3 H 0.8082 0.4667 0.8056
C7_3 C 0.9228(2) 0.3876(3) 0.7779(2)
H4_3 H 0.9654 0.3801 0.7819
C11_3 C 0.9965(2) 0.4888(3) 0.8956(2)
C14 C 0.9434(2) 0.6675(3) 0.9068(2)
H9 H 0.9253 0.7277 0.9105
C15_3 C 0.8708(2) 0.3411(3) 0.7387(2)
H10_3 H 0.8718 0.2964 0.7103
C16 C 0.9090(2) 0.6043(3) 0.86235(19)
H11 H 0.8682 0.6215 0.8362
Zn3 Zn 0.72463(2) 0.32387(3) 0.703563(16)
N2_3 N 0.6918(2) 0.0074(3) 0.47308(15)
C1_3 C 0.7196(4) 0.0550(5) 0.5753(2)
H1_3 H 0.6817 0.0388 0.5835
H2_3 H 0.7565 0.0453 0.6115
C21_3 C 0.6843(3) 0.1083(3) 0.4581(2)
H15_3 H 0.6458 0.1159 0.4230
H16_3 H 0.7204 0.1289 0.4482
C25_3 C 0.6798(3) 0.1748(4) 0.5028(3)
H20_3 H 0.6902 0.2406 0.4934
H21_3 H 0.6352 0.1761 0.4989
C27_3 C 0.7164(4) 0.1574(5) 0.5609(3)
H26_3 H 0.6745 0.0332 0.3632
C31_3 C 0.7109(5) 0.2338(7) 0.6041(4)
O3_2 O 0.7448(4) 0.2079(6) 0.6596(3)
O4_2 O 0.6816(5) 0.3041(5) 0.5924(4)
H27_3 H 0.764702 0.171243 0.562234
O1_3 O 0.69202(18) 0.2435(2) 0.75160(14)
O2_3 O 0.7197(2) 0.3595(3) 0.82067(15)
N3_2 N 0.63253(19) 0.5880(2) 0.63292(15)
C2_3 C 0.6927(2) 0.0617(2) 0.93023(15)
C3_2 C 0.5041(2) 0.8560(3) 0.44617(19)
C4_2 C 0.6032(2) 0.6545(3) 0.58525(19)
N5_3 N 0.67623(17) 0.4534(2) 0.68162(14)
C5_2 C 0.43605(19) 0.9852(3) 0.35692(18)
C8_2 C 0.5404(2) 0.7860(3) 0.49418(19)
C9_3 C 0.6529(2) 0.4951(3) 0.62918(17)
H5_3 H 0.6507 0.4648 0.5945
C10_2 C 0.5304(2) 0.9456(3) 0.4393(2)
H6_2 H 0.5717 0.9619 0.4648
C12_3 C 0.6954(3) 0.2323(3) 0.9004(2)
H8_3 H 0.7086 0.2963 0.9131
C13_3 C 0.7003(2) 0.2767(3) 0.80288(19)
C14_2 C 0.4434(2) 0.8325(3) 0.4068(2)
H9_2 H 0.4253 0.7723 0.4105
C16_2 C 0.4090(2) 0.8957(3) 0.36235(19)
H11_2 H 0.3682 0.8785 0.3362
C17_2 C 0.6173(3) 0.7536(3) 0.5921(2)
H12_2 H 0.6486 0.7766 0.6267
C18_2 C 0.5852(2) 0.8190(3) 0.5477(2)
H13_2 H 0.5936 0.8863 0.5536
C19_3 C 0.6863(4) 0.2051(4) 0.8433(2)
C20_2 C 0.6710(3) 0.5231(4) 0.7207(2)
H14_2 H 0.6834 0.5141 0.7610
C22_3 C 0.6917(3) 0.1023(3) 0.8339(2)
H17_3 H 0.6998 0.0808 0.8013
C23_2 C 0.5613(3) 0.6204(3) 0.5319(2)
H18_2 H 0.5539 0.5529 0.5262
C24_2 C 0.5300(3) 0.6853(3) 0.4865(2)
H19_2 H 0.5018 0.6611 0.4506
C26_3 C 0.6849(4) 0.1637(3) 0.9399(2)
H22_3 H 0.6734 0.1846 0.9707
C28_2 C 0.6453(3) 0.6058(4) 0.6913(2)
H23_2 H 0.6375 0.6643 0.7074
C30_3 C 0.6846(4) 0.0322(3) 0.8746(2)
N1_4 N 0.10028(16) 0.4480(2) 0.68972(14)
N4_3 N 0.18356(16) 0.3704(2) 0.75249(13)
C5_3 C 0.06395(19) 0.5148(3) 0.64308(18)
C6_4 C 0.16469(19) 0.4346(3) 0.70941(17)
H3_4 H 0.1918 0.4667 0.6944
C7_4 C 0.0772(2) 0.3876(3) 0.7221(2)
H4_4 H 0.0346 0.3801 0.7181
C11_4 C 0.0035(2) 0.4888(3) 0.6044(2)
C14_3 C 0.0566(2) 0.6675(3) 0.5932(2)
H9_3 H 0.0747 0.7277 0.5895
C15_4 C 0.1292(2) 0.3411(3) 0.7613(2)
H10_4 H 0.1282 0.2964 0.7897
C16_3 C 0.0910(2) 0.6043(3) 0.63765(19)
H11_3 H 0.1318 0.6215 0.6638
Zn3_2 Zn 0.27537(2) 0.32387(3) 0.796437(16)
C1_4 C 0.2804(4) 0.0550(5) 0.9247(2)
H1_4 H 0.3183 0.0388 0.9165
H2_4 H 0.2435 0.0453 0.8885
C25_4 C 0.3202(3) 0.1748(4) 0.9972(3)
C27_4 C 0.2836(4) 0.1574(5) 0.9391(3)
C31_4 C 0.2891(5) 0.2338(7) 0.8959(4)
O3_3 O 0.2552(4) 0.2079(6) 0.8404(3)
O4_3 O 0.3184(5) 0.3041(5) 0.9076(4)
H27_4 H 0.235298 0.171243 0.937766
O1_4 O 0.30798(18) 0.2435(2) 0.74840(14)
O2_4 O 0.2803(2) 0.3595(3) 0.67933(15)
N3_3 N 0.36747(19) 0.5880(2) 0.86708(15)
C2_4 C 0.3073(2) 0.0617(2) 0.56977(15)
C4_3 C 0.3968(2) 0.6545(3) 0.91475(19)
N5_4 N 0.32377(17) 0.4534(2) 0.81838(14)
C9_4 C 0.3471(2) 0.4951(3) 0.87082(17)
H5_4 H 0.3493 0.4648 0.9055
C12_4 C 0.3046(3) 0.2323(3) 0.5996(2)
H8_4 H 0.2914 0.2963 0.5869
C13_4 C 0.2997(2) 0.2767(3) 0.69712(19)
C17_3 C 0.3827(3) 0.7536(3) 0.9079(2)
H12_3 H 0.3514 0.7766 0.8733
C18_3 C 0.4148(2) 0.8190(3) 0.9523(2)
H13_3 H 0.4064 0.8863 0.9464
C19_4 C 0.3137(4) 0.2051(4) 0.6567(2)
C20_3 C 0.3290(3) 0.5231(4) 0.7793(2)
H14_3 H 0.3166 0.5141 0.7390
C22_4 C 0.3083(3) 0.1023(3) 0.6661(2)
H17_4 H 0.3002 0.0808 0.6987
C23_3 C 0.4387(3) 0.6204(3) 0.9681(2)
H18_3 H 0.4461 0.5529 0.9738
C26_4 C 0.3151(4) 0.1637(3) 0.5601(2)
H22_4 H 0.3266 0.1846 0.5293
C28_3 C 0.3547(3) 0.6058(4) 0.8087(2)
H23_3 H 0.3625 0.6643 0.7926
C29_3 C 0.2760(3) 0.0156(4) 0.4674(2)
H24_3 H 0.2308 0.0249 0.4604
H25_3 H 0.2922 0.0784 0.4599
C30_4 C 0.3154(4) 0.0322(3) 0.6254(2)
Zn1_2 Zn 0.77537(2) 0.17613(3) 0.296437(16)
N2_4 N 0.8082(2) 0.5074(3) 0.02692(15)
O1_5 O 0.80798(18) 0.2565(2) 0.24840(14)
O2_5 O 0.7803(2) 0.1405(3) 0.17933(15)
C2_5 C 0.8073(2) 0.4383(2) 0.06977(15)
N5_5 N 0.82377(17) 0.0466(2) 0.31838(14)
C9_5 C 0.8471(2) 0.0049(3) 0.37082(17)
H5_5 H 0.8493 0.0352 0.4055
C12_5 C 0.8046(3) 0.2677(3) 0.0996(2)
H8_5 H 0.7914 0.2037 0.0869
C13_5 C 0.7997(2) 0.2233(3) 0.19712(19)
C19_5 C 0.8137(4) 0.2949(4) 0.1567(2)
C21_4 C 0.8157(3) 0.6083(3) 0.0419(2)
H15_4 H 0.8542 0.6159 0.0770
H16_4 H 0.7796 0.6289 0.0518
C22_5 C 0.8083(3) 0.3977(3) 0.1661(2)
H17_5 H 0.8002 0.4192 0.1987
H20_4 H 0.8098 0.7406 0.0066
H21_4 H 0.8648 0.6761 0.0011
C26_5 C 0.8151(4) 0.3363(3) 0.0601(2)
H22_5 H 0.8266 0.3154 0.0293
C30_5 C 0.8154(4) 0.4678(3) 0.1254(2)
H26_4 H 0.8255 0.5332 0.1368
N6_2 N 0.68356(16) 0.1296(2) 0.25249(13)
O5_2 O 0.7552(4) 0.2921(6) 0.3404(3)
O6_2 O 0.8184(5) 0.1959(5) 0.4076(4)
C1_5 C 0.7804(4) 0.5550(5) 0.9247(2)
H1_5 H 0.8183 0.5388 0.9165
H2_5 H 0.7435 0.5453 0.8885
C25_5 C 0.8202(3) 0.6748(4) 0.9972(3)
C27_5 C 0.7836(4) 0.6574(5) 0.9391(3)
C29_4 C 0.7760(3) 0.4844(4) 0.9674(2)
H24_4 H 0.7308 0.4751 0.9604
H25_4 H 0.7922 0.4216 0.9599
C31_5 C 0.7891(5) 0.7338(7) 0.8959(4)
O3_4 O 0.7552(4) 0.7079(6) 0.8404(3)
O4_4 O 0.8184(5) 0.8041(5) 0.9076(4)
Zn2_2 Zn 0.77537(2) 0.82387(3) 0.796437(16)
H27_5 H 0.735298 0.671243 0.937766
N1_5 N 0.60028(16) 0.9480(2) 0.68972(14)
N4_4 N 0.68356(16) 0.8704(2) 0.75249(13)
C6_5 C 0.66469(19) 0.9346(3) 0.70941(17)
H3_5 H 0.6918 0.9667 0.6944
C7_5 C 0.5772(2) 0.8876(3) 0.7221(2)
H4_5 H 0.5346 0.8801 0.7181
C11_5 C 0.5035(2) 0.9888(3) 0.6044(2)
H7_4 H 0.4858 0.9281 0.6077
C15_5 C 0.6292(2) 0.8411(3) 0.7613(2)
H10_5 H 0.6282 0.7964 0.7897
N2_5 N 0.8082(2) 0.4926(3) 0.52692(15)
C1_6 C 0.7804(4) 0.4450(5) 0.4247(2)
H1_6 H 0.8183 0.4612 0.4165
H2_6 H 0.7435 0.4547 0.3885
O1_6 O 0.80798(18) 0.7435(2) 0.74840(14)
O2_6 O 0.7803(2) 0.8595(3) 0.67933(15)
C2_6 C 0.8073(2) 0.5617(2) 0.56977(15)
N5_6 N 0.82377(17) 0.9534(2) 0.81838(14)
C9_6 C 0.8471(2) 0.9951(3) 0.87082(17)
H5_6 H 0.8493 0.9648 0.9055
C12_6 C 0.8046(3) 0.7323(3) 0.5996(2)
H8_6 H 0.7914 0.7963 0.5869
C13_6 C 0.7997(2) 0.7767(3) 0.69712(19)
C19_6 C 0.8137(4) 0.7051(4) 0.6567(2)
C21_5 C 0.8157(3) 0.3917(3) 0.5419(2)
H15_5 H 0.8542 0.3841 0.5770
H16_5 H 0.7796 0.3711 0.5518
C22_6 C 0.8083(3) 0.6023(3) 0.6661(2)
H17_6 H 0.8002 0.5808 0.6987
C25_6 C 0.8202(3) 0.3252(4) 0.4972(3)
H20_5 H 0.8098 0.2594 0.5066
H21_5 H 0.8648 0.3239 0.5011
C26_6 C 0.8151(4) 0.6637(3) 0.5601(2)
H22_6 H 0.8266 0.6846 0.5293
C27_6 C 0.7836(4) 0.3426(5) 0.4391(3)
C29_5 C 0.7760(3) 0.5156(4) 0.4674(2)
H24_5 H 0.7308 0.5249 0.4604
H25_5 H 0.7922 0.5784 0.4599
C30_6 C 0.8154(4) 0.5322(3) 0.6254(2)
H26_5 H 0.8255 0.4668 0.6368
C31_6 C 0.7891(5) 0.2662(7) 0.3959(4)
H27_6 H 0.735298 0.328757 0.437766
N1_6 N 0.60028(16) 0.0520(2) 0.18972(14)
C6_6 C 0.66469(19) 0.0654(3) 0.20941(17)
H3_6 H 0.6918 0.0333 0.1944
C7_6 C 0.5772(2) 0.1124(3) 0.2221(2)
H4_6 H 0.5346 0.1199 0.2181
C11_6 C 0.5035(2) 0.0112(3) 0.1044(2)
H7_5 H 0.4858 0.0719 0.1077
C15_6 C 0.6292(2) 0.1589(3) 0.2613(2)
H10_6 H 0.6282 0.2036 0.2897
N3_4 N 0.86747(19) 0.9120(2) 0.36708(15)
C3_3 C 0.9959(2) 0.6440(3) 0.55383(19)
C4_4 C 0.8968(2) 0.8455(3) 0.41475(19)
C8_3 C 0.9596(2) 0.7140(3) 0.50582(19)
C10_3 C 0.9696(2) 0.5544(3) 0.5607(2)
H6_3 H 0.9283 0.5381 0.5352
H7_6 H 0.9858 0.4281 0.6077
C17_4 C 0.8827(3) 0.7464(3) 0.4079(2)
H12_4 H 0.8514 0.7234 0.3733
C18_4 C 0.9148(2) 0.6810(3) 0.4523(2)
H13_4 H 0.9064 0.6137 0.4464
C20_4 C 0.8290(3) 0.9769(4) 0.2793(2)
H14_4 H 0.8166 0.9859 0.2390
C23_4 C 0.9387(3) 0.8796(3) 0.4681(2)
H18_4 H 0.9461 0.9471 0.4738
C24_3 C 0.9700(3) 0.8147(3) 0.5135(2)
H19_3 H 0.9982 0.8389 0.5494
C28_4 C 0.8547(3) 0.8942(4) 0.3087(2)
H23_4 H 0.8625 0.8357 0.2926
Zn1_3 Zn 0.72463(2) 0.67613(3) 0.203563(16)
O1_7 O 0.69202(18) 0.7565(2) 0.25160(14)
O2_7 O 0.7197(2) 0.6405(3) 0.32067(15)
N3_5 N 0.63253(19) 0.4120(2) 0.13292(15)
C2_7 C 0.6927(2) 0.9383(2) 0.43023(15)
C4_5 C 0.6032(2) 0.3455(3) 0.08525(19)
N5_7 N 0.67623(17) 0.5466(2) 0.18162(14)
C9_7 C 0.6529(2) 0.5049(3) 0.12918(17)
H5_7 H 0.6507 0.5352 0.0945
C12_7 C 0.6954(3) 0.7677(3) 0.4004(2)
H8_7 H 0.7086 0.7037 0.4131
C13_7 C 0.7003(2) 0.7233(3) 0.30288(19)
C17_5 C 0.6173(3) 0.2464(3) 0.0921(2)
H12_5 H 0.6486 0.2234 0.1267
C18_5 C 0.5852(2) 0.1810(3) 0.0477(2)
H13_5 H 0.5936 0.1137 0.0536
C19_7 C 0.6863(4) 0.7949(4) 0.3433(2)
C20_5 C 0.6710(3) 0.4769(4) 0.2207(2)
H14_5 H 0.6834 0.4859 0.2610
C22_7 C 0.6917(3) 0.8977(3) 0.3339(2)
H17_7 H 0.6998 0.9192 0.3013
C23_5 C 0.5613(3) 0.3796(3) 0.0319(2)
H18_5 H 0.5539 0.4471 0.0262
C26_7 C 0.6849(4) 0.8363(3) 0.4399(2)
H22_7 H 0.6734 0.8154 0.4707
C28_5 C 0.6453(3) 0.3942(4) 0.1913(2)
H23_5 H 0.6375 0.3357 0.2074
C29_6 C 0.7240(3) 0.9844(4) 0.5326(2)
H24_6 H 0.7692 0.9751 0.5396
H25_6 H 0.7078 0.9216 0.5401
C30_7 C 0.6846(4) 0.9678(3) 0.3746(2)
N6_3 N 0.81644(16) 0.6296(2) 0.24751(13)
O5_3 O 0.7448(4) 0.7921(6) 0.1596(3)
O6_3 O 0.6816(5) 0.6959(5) 0.0924(4)
N1_7 N 0.89972(16) 0.5520(2) 0.31028(14)
C5_4 C 0.93605(19) 0.4852(3) 0.35692(18)
C6_7 C 0.83531(19) 0.5654(3) 0.29059(17)
H3_7 H 0.8082 0.5333 0.3056
C7_7 C 0.9228(2) 0.6124(3) 0.2779(2)
H4_7 H 0.9654 0.6199 0.2819
C11_7 C 0.9965(2) 0.5112(3) 0.3956(2)
C14_4 C 0.9434(2) 0.3325(3) 0.4068(2)
H9_4 H 0.9253 0.2723 0.4105
C15_7 C 0.8708(2) 0.6589(3) 0.2387(2)
H10_7 H 0.8718 0.7036 0.2103
C16_4 C 0.9090(2) 0.3957(3) 0.36235(19)
H11_4 H 0.8682 0.3785 0.3362
C1_7 C 0.7196(4) 0.9450(5) 0.0753(2)
H1_7 H 0.6817 0.9612 0.0835
H2_7 H 0.7565 0.9547 0.1115
C25_7 C 0.6798(3) 0.8252(4) 0.0028(3)
C27_7 C 0.7164(4) 0.8426(5) 0.0609(3)
C31_7 C 0.7109(5) 0.7662(7) 0.1041(4)
H27_7 H 0.764702 0.828757 0.0622335
C3_4 C 0.5041(2) 0.1440(3) 0.94617(19)
C5_5 C 0.43605(19) 0.0148(3) 0.85692(18)
C8_4 C 0.5404(2) 0.2140(3) 0.99418(19)
C10_4 C 0.5304(2) 0.0544(3) 0.9393(2)
H6_4 H 0.5717 0.0381 0.9648
C14_5 C 0.4434(2) 0.1675(3) 0.9068(2)
H9_5 H 0.4253 0.2277 0.9105
C16_5 C 0.4090(2) 0.1043(3) 0.86235(19)
H11_5 H 0.3682 0.1215 0.8362
C24_4 C 0.5300(3) 0.3147(3) 0.9865(2)
H19_4 H 0.5018 0.3389 0.9506
N2_6 N 0.3082(2) 0.0074(3) 0.02692(15)
C21_6 C 0.3157(3) 0.1083(3) 0.0419(2)
H15_6 H 0.3542 0.1159 0.0770
H16_6 H 0.2796 0.1289 0.0518
H20_6 H 0.3098 0.2406 0.0066
H21_6 H 0.3648 0.1761 0.0011
H26_6 H 0.3255 0.0332 0.1368
Zn1_4 Zn 0.27537(2) 0.67613(3) 0.296437(16)
O1_8 O 0.30798(18) 0.7565(2) 0.24840(14)
O2_8 O 0.2803(2) 0.6405(3) 0.17933(15)
N3_6 N 0.36747(19) 0.4120(2) 0.36708(15)
C2_8 C 0.3073(2) 0.9383(2) 0.06977(15)
C3_5 C 0.4959(2) 0.1440(3) 0.55383(19)
C4_6 C 0.3968(2) 0.3455(3) 0.41475(19)
N5_8 N 0.32377(17) 0.5466(2) 0.31838(14)
C5_6 C 0.56395(19) 0.0148(3) 0.64308(18)
C8_5 C 0.4596(2) 0.2140(3) 0.50582(19)
C9_8 C 0.3471(2) 0.5049(3) 0.37082(17)
H5_8 H 0.3493 0.5352 0.4055
C10_5 C 0.4696(2) 0.0544(3) 0.5607(2)
H6_5 H 0.4283 0.0381 0.5352
C12_8 C 0.3046(3) 0.7677(3) 0.0996(2)
H8_8 H 0.2914 0.7037 0.0869
C13_8 C 0.2997(2) 0.7233(3) 0.19712(19)
C14_6 C 0.5566(2) 0.1675(3) 0.5932(2)
H9_6 H 0.5747 0.2277 0.5895
C16_6 C 0.5910(2) 0.1043(3) 0.63765(19)
H11_6 H 0.6318 0.1215 0.6638
C17_6 C 0.3827(3) 0.2464(3) 0.4079(2)
H12_6 H 0.3514 0.2234 0.3733
C18_6 C 0.4148(2) 0.1810(3) 0.4523(2)
H13_6 H 0.4064 0.1137 0.4464
C19_8 C 0.3137(4) 0.7949(4) 0.1567(2)
C20_6 C 0.3290(3) 0.4769(4) 0.2793(2)
H14_6 H 0.3166 0.4859 0.2390
C22_8 C 0.3083(3) 0.8977(3) 0.1661(2)
H17_8 H 0.3002 0.9192 0.1987
C23_6 C 0.4387(3) 0.3796(3) 0.4681(2)
H18_6 H 0.4461 0.4471 0.4738
C24_5 C 0.4700(3) 0.3147(3) 0.5135(2)
H19_5 H 0.4982 0.3389 0.5494
C26_8 C 0.3151(4) 0.8363(3) 0.0601(2)
H22_8 H 0.3266 0.8154 0.0293
C28_6 C 0.3547(3) 0.3942(4) 0.3087(2)
H23_6 H 0.3625 0.3357 0.2926
C30_8 C 0.3154(4) 0.9678(3) 0.1254(2)
N6_4 N 0.18356(16) 0.6296(2) 0.25249(13)
O5_4 O 0.2552(4) 0.7921(6) 0.3404(3)
O6_4 O 0.3184(5) 0.6959(5) 0.4076(4)
N1_8 N 0.10028(16) 0.5520(2) 0.18972(14)
C5_7 C 0.06395(19) 0.4852(3) 0.14308(18)
C6_8 C 0.16469(19) 0.5654(3) 0.20941(17)
H3_8 H 0.1918 0.5333 0.1944
C7_8 C 0.0772(2) 0.6124(3) 0.2221(2)
H4_8 H 0.0346 0.6199 0.2181
C11_8 C 0.0035(2) 0.5112(3) 0.1044(2)
C14_7 C 0.0566(2) 0.3325(3) 0.0932(2)
H9_7 H 0.0747 0.2723 0.0895
C15_8 C 0.1292(2) 0.6589(3) 0.2613(2)
H10_8 H 0.1282 0.7036 0.2897
C16_7 C 0.0910(2) 0.3957(3) 0.13765(19)
H11_7 H 0.1318 0.3785 0.1638
N2_7 N 0.3082(2) 0.9926(3) 0.52692(15)
C1_8 C 0.2804(4) 0.9450(5) 0.4247(2)
H1_8 H 0.3183 0.9612 0.4165
H2_8 H 0.2435 0.9547 0.3885
C21_7 C 0.3157(3) 0.8917(3) 0.5419(2)
H15_7 H 0.3542 0.8841 0.5770
H16_7 H 0.2796 0.8711 0.5518
C25_8 C 0.3202(3) 0.8252(4) 0.4972(3)
H20_7 H 0.3098 0.7594 0.5066
H21_7 H 0.3648 0.8239 0.5011
C27_8 C 0.2836(4) 0.8426(5) 0.4391(3)
H26_7 H 0.3255 0.9668 0.6368
C31_8 C 0.2891(5) 0.7662(7) 0.3959(4)
H27_8 H 0.235298 0.828757 0.437766
C29_7 C 0.2760(3) 0.9844(4) 0.9674(2)
H24_7 H 0.2308 0.9751 0.9604
H25_7 H 0.2922 0.9216 0.9599
C3_6 C 0.9959(2) 0.3560(3) 0.05383(19)
C8_6 C 0.9596(2) 0.2860(3) 0.00582(19)
C10_6 C 0.9696(2) 0.4456(3) 0.0607(2)
H6_6 H 0.9283 0.4619 0.0352
H7_7 H 0.9858 0.5719 0.1077
C24_6 C 0.9700(3) 0.1853(3) 0.0135(2)
H19_6 H 0.9982 0.1611 0.0494
N3_7 N 0.86747(19) 0.0880(2) 0.86708(15)
C4_7 C 0.8968(2) 0.1545(3) 0.91475(19)
C17_7 C 0.8827(3) 0.2536(3) 0.9079(2)
H12_7 H 0.8514 0.2766 0.8733
C18_7 C 0.9148(2) 0.3190(3) 0.9523(2)
H13_7 H 0.9064 0.3863 0.9464
C20_7 C 0.8290(3) 0.0231(4) 0.7793(2)
H14_7 H 0.8166 0.0141 0.7390
C23_7 C 0.9387(3) 0.1204(3) 0.9681(2)
H18_7 H 0.9461 0.0529 0.9738
C28_7 C 0.8547(3) 0.1058(4) 0.8087(2)
H23_7 H 0.8625 0.1643 0.7926
N3_8 N 0.13253(19) 0.0880(2) 0.63292(15)
C3_7 C 0.0041(2) 0.3560(3) 0.44617(19)
C4_8 C 0.1032(2) 0.1545(3) 0.58525(19)
C8_7 C 0.0404(2) 0.2860(3) 0.49418(19)
C10_7 C 0.0304(2) 0.4456(3) 0.4393(2)
H6_7 H 0.0717 0.4619 0.4648
H7_8 H 0.0142 0.5719 0.3923
C17_8 C 0.1173(3) 0.2536(3) 0.5921(2)
H12_8 H 0.1486 0.2766 0.6267
C18_8 C 0.0852(2) 0.3190(3) 0.5477(2)
H13_8 H 0.0936 0.3863 0.5536
C20_8 C 0.1710(3) 0.0231(4) 0.7207(2)
H14_8 H 0.1834 0.0141 0.7610
C23_8 C 0.0613(3) 0.1204(3) 0.5319(2)
H18_8 H 0.0539 0.0529 0.5262
C24_7 C 0.0300(3) 0.1853(3) 0.4865(2)
H19_7 H 0.0018 0.1611 0.4506
C28_8 C 0.1453(3) 0.1058(4) 0.6913(2)
H23_8 H 0.1375 0.1643 0.7074
C3_8 C 0.4959(2) 0.8560(3) 0.05383(19)
C5_8 C 0.56395(19) 0.9852(3) 0.14308(18)
C8_8 C 0.4596(2) 0.7860(3) 0.00582(19)
C10_8 C 0.4696(2) 0.9456(3) 0.0607(2)
H6_8 H 0.4283 0.9619 0.0352
C14_8 C 0.5566(2) 0.8325(3) 0.0932(2)
H9_8 H 0.5747 0.7723 0.0895
C16_8 C 0.5910(2) 0.8957(3) 0.13765(19)
H11_8 H 0.6318 0.8785 0.1638
C24_8 C 0.4700(3) 0.6853(3) 0.0135(2)
H19_8 H 0.4982 0.6611 0.0494
C29_8 C 0.7240(3) 0.0156(4) 0.0326(2)
H24_8 H 0.7692 0.0249 0.0396
H25_8 H 0.7078 0.0784 0.0401
N2_8 N 0.6918(2) 0.9926(3) 0.97308(15)
C21_8 C 0.6843(3) 0.8917(3) 0.9581(2)
H15_8 H 0.6458 0.8841 0.9230
H16_8 H 0.7204 0.8711 0.9482
H20_8 H 0.6902 0.7594 0.9934
H21_8 H 0.6352 0.8239 0.9989
H26_8 H 0.6745 0.9668 0.8632
loop_
_geom_bond_atom_site_label_1
_geom_bond_atom_site_label_2
_geom_bond_site_symmetry_1
_geom_bond_site_symmetry_2
Zn1 O1 1_555 1_555
N2 C2 1_555 1_555
C1 H1 1_555 1_555
H2 C1 1_555 1_555
O1 C13 1_555 1_555
O2 C13 1_555 1_555
C2 C26 1_555 1_555
N5 Zn1 1_555 1_555
H5 C9 1_555 1_555
C12 H8 1_555 1_555
C13 C19 1_555 1_555
C19 C12 1_555 1_555
C21 N2 1_555 1_555
H15 C21 1_555 1_555
H16 C21 1_555 1_555
C22 C19 1_555 1_555
H17 C22 1_555 1_555
C25 C21 1_555 1_555
H20 C25 1_555 1_555
H21 C25 1_555 1_555
C26 C12 1_555 1_555
H22 C26 1_555 1_555
C27 C1 1_555 1_555
C29 N2 1_555 1_555
H24 C29 1_555 1_555
H25 C29 1_555 1_555
C30 C2 1_555 1_555
H26 C30 1_555 1_555
C31 C27 1_555 1_555
O3 C31 1_555 1_555
O4 C31 1_555 1_555
Zn2 O3 1_555 1_555
N6 Zn1 1_555 1_555
O5 Zn1 1_555 1_555
O6 Zn1 1_555 1_555
C1 C29 1_555 1_555
N5 C9 1_555 1_555
C22 C30 1_555 1_555
C25 C27 1_555 1_555
O4 Zn2 1_555 1_555
C27 H27 1_555 1_555
N4 C6 1_555 1_555
C6 N1 1_555 1_555
H3 C6 1_555 1_555
C7 N1 1_555 1_555
H4 C7 1_555 1_555
H7 C11 1_555 1_555
C15 N4 1_555 1_555
H10 C15 1_555 1_555
Zn2 N4 1_555 1_555
C7 C15 1_555 1_555
C1_2 H1_2 1_555 1_555
H2_2 C1_2 1_555 1_555
C27_2 C1_2 1_555 1_555
H24_2 C29_2 1_555 1_555
H25_2 C29_2 1_555 1_555
C31_2 C27_2 1_555 1_555
O5 C31_2 1_555 1_555
O6 C31_2 1_555 1_555
C1_2 C29_2 1_555 1_555
C25_2 C27_2 1_555 1_555
C27_2 H27_2 1_555 1_555
Zn2 O1_2 1_555 1_555
N2_2 C2_2 1_555 1_555
O1_2 C13_2 1_555 1_555
O2_2 C13_2 1_555 1_555
C2_2 C26_2 1_555 1_555
N5_2 Zn2 1_555 1_555
H5_2 C9_2 1_555 1_555
C12_2 H8_2 1_555 1_555
C13_2 C19_2 1_555 1_555
C19_2 C12_2 1_555 1_555
C21_2 N2_2 1_555 1_555
H15_2 C21_2 1_555 1_555
H16_2 C21_2 1_555 1_555
C22_2 C19_2 1_555 1_555
H17_2 C22_2 1_555 1_555
C26_2 C12_2 1_555 1_555
H22_2 C26_2 1_555 1_555
C30_2 C2_2 1_555 1_555
H26_2 C30_2 1_555 1_555
N5_2 C9_2 1_555 1_555
C22_2 C30_2 1_555 1_555
N6 C6_2 1_555 1_555
C6_2 N1_2 1_555 1_555
H3_2 C6_2 1_555 1_555
C7_2 N1_2 1_555 1_555
H4_2 C7_2 1_555 1_555
H7_2 C11_2 1_555 1_555
C15_2 N6 1_555 1_555
H10_2 C15_2 1_555 1_555
C7_2 C15_2 1_555 1_555
N3 C4 1_555 1_555
C4 C17 1_555 1_555
C17 H12 1_555 1_555
C18 C17 1_555 1_555
H13 C18 1_555 1_555
H14 C20 1_555 1_555
C23 C4 1_555 1_555
H18 C23 1_555 1_555
C28 N3 1_555 1_555
H23 C28 1_555 1_555
C20 C28 1_555 1_555
C3 C8 1_555 1_555
C10 C3 1_555 1_555
H6 C10 1_555 1_555
C24 C8 1_555 1_555
H19 C24 1_555 1_555
N1_3 C5 1_555 1_555
N4_2 C6_3 1_555 1_555
C5 C11_3 1_555 1_555
C6_3 N1_3 1_555 1_555
H3_3 C6_3 1_555 1_555
C7_3 N1_3 1_555 1_555
H4_3 C7_3 1_555 1_555
H9 C14 1_555 1_555
C15_3 N4_2 1_555 1_555
H10_3 C15_3 1_555 1_555
C16 C5 1_555 1_555
H11 C16 1_555 1_555
Zn3 N4_2 1_555 1_555
C7_3 C15_3 1_555 1_555
C14 C16 1_555 1_555
C1_3 H1_3 1_555 1_555
H2_3 C1_3 1_555 1_555
C21_3 N2_3 1_555 1_555
H15_3 C21_3 1_555 1_555
H16_3 C21_3 1_555 1_555
C25_3 C21_3 1_555 1_555
H20_3 C25_3 1_555 1_555
H21_3 C25_3 1_555 1_555
C27_3 C1_3 1_555 1_555
C31_3 C27_3 1_555 1_555
O3_2 C31_3 1_555 1_555
O4_2 C31_3 1_555 1_555
Zn3 O3_2 1_555 1_555
C25_3 C27_3 1_555 1_555
O4_2 Zn3 1_555 1_555
C27_3 H27_3 1_555 1_555
Zn3 O1_3 1_555 1_555
O1_3 C13_3 1_555 1_555
O2_3 C13_3 1_555 1_555
N3_2 C4_2 1_555 1_555
C2_3 C26_3 1_555 1_555
C3_2 C8_2 1_555 1_555
C4_2 C17_2 1_555 1_555
N5_3 Zn3 1_555 1_555
C8_2 C18_2 1_555 1_555
C9_3 N3_2 1_555 1_555
H5_3 C9_3 1_555 1_555
C10_2 C3_2 1_555 1_555
H6_2 C10_2 1_555 1_555
C12_3 H8_3 1_555 1_555
C13_3 C19_3 1_555 1_555
C14_2 C3_2 1_555 1_555
H9_2 C14_2 1_555 1_555
C16_2 C5_2 1_555 1_555
H11_2 C16_2 1_555 1_555
C17_2 H12_2 1_555 1_555
C18_2 C17_2 1_555 1_555
H13_2 C18_2 1_555 1_555
C19_3 C12_3 1_555 1_555
C20_2 N5_3 1_555 1_555
H14_2 C20_2 1_555 1_555
C22_3 C19_3 1_555 1_555
H17_3 C22_3 1_555 1_555
C23_2 C4_2 1_555 1_555
H18_2 C23_2 1_555 1_555
C24_2 C8_2 1_555 1_555
H19_2 C24_2 1_555 1_555
C26_3 C12_3 1_555 1_555
H22_3 C26_3 1_555 1_555
C28_2 N3_2 1_555 1_555
H23_2 C28_2 1_555 1_555
C30_3 C2_3 1_555 1_555
N5_3 C9_3 1_555 1_555
C14_2 C16_2 1_555 1_555
C20_2 C28_2 1_555 1_555
C22_3 C30_3 1_555 1_555
C23_2 C24_2 1_555 1_555
N1_4 C5_3 1_555 1_555
N4_3 C6_4 1_555 1_555
C5_3 C11_4 1_555 1_555
C6_4 N1_4 1_555 1_555
H3_4 C6_4 1_555 1_555
C7_4 N1_4 1_555 1_555
H4_4 C7_4 1_555 1_555
H9_3 C14_3 1_555 1_555
C15_4 N4_3 1_555 1_555
H10_4 C15_4 1_555 1_555
C16_3 C5_3 1_555 1_555
H11_3 C16_3 1_555 1_555
Zn3_2 N4_3 1_555 1_555
C7_4 C15_4 1_555 1_555
C14_3 C16_3 1_555 1_555
C1_4 H1_4 1_555 1_555
H2_4 C1_4 1_555 1_555
C27_4 C1_4 1_555 1_555
C31_4 C27_4 1_555 1_555
O3_3 C31_4 1_555 1_555
O4_3 C31_4 1_555 1_555
Zn3_2 O3_3 1_555 1_555
C25_4 C27_4 1_555 1_555
O4_3 Zn3_2 1_555 1_555
C27_4 H27_4 1_555 1_555
Zn3_2 O1_4 1_555 1_555
O1_4 C13_4 1_555 1_555
O2_4 C13_4 1_555 1_555
N3_3 C4_3 1_555 1_555
C2_4 C26_4 1_555 1_555
C4_3 C17_3 1_555 1_555
N5_4 Zn3_2 1_555 1_555
C9_4 N3_3 1_555 1_555
H5_4 C9_4 1_555 1_555
C12_4 H8_4 1_555 1_555
C13_4 C19_4 1_555 1_555
C17_3 H12_3 1_555 1_555
C18_3 C17_3 1_555 1_555
H13_3 C18_3 1_555 1_555
C19_4 C12_4 1_555 1_555
C20_3 N5_4 1_555 1_555
H14_3 C20_3 1_555 1_555
C22_4 C19_4 1_555 1_555
H17_4 C22_4 1_555 1_555
C23_3 C4_3 1_555 1_555
H18_3 C23_3 1_555 1_555
C26_4 C12_4 1_555 1_555
H22_4 C26_4 1_555 1_555
C28_3 N3_3 1_555 1_555
H23_3 C28_3 1_555 1_555
H24_3 C29_3 1_555 1_555
H25_3 C29_3 1_555 1_555
C30_4 C2_4 1_555 1_555
N5_4 C9_4 1_555 1_555
C20_3 C28_3 1_555 1_555
C22_4 C30_4 1_555 1_555
Zn1_2 O1_5 1_555 1_555
N2_4 C2_5 1_555 1_555
O1_5 C13_5 1_555 1_555
O2_5 C13_5 1_555 1_555
C2_5 C26_5 1_555 1_555
N5_5 Zn1_2 1_555 1_555
H5_5 C9_5 1_555 1_555
C12_5 H8_5 1_555 1_555
C13_5 C19_5 1_555 1_555
C19_5 C12_5 1_555 1_555
C21_4 N2_4 1_555 1_555
H15_4 C21_4 1_555 1_555
H16_4 C21_4 1_555 1_555
C22_5 C19_5 1_555 1_555
H17_5 C22_5 1_555 1_555
C26_5 C12_5 1_555 1_555
H22_5 C26_5 1_555 1_555
C30_5 C2_5 1_555 1_555
H26_4 C30_5 1_555 1_555
N6_2 Zn1_2 1_555 1_555
O5_2 Zn1_2 1_555 1_555
O6_2 Zn1_2 1_555 1_555
N5_5 C9_5 1_555 1_555
C22_5 C30_5 1_555 1_555
C1_5 H1_5 1_555 1_555
H2_5 C1_5 1_555 1_555
C27_5 C1_5 1_555 1_555
H24_4 C29_4 1_555 1_555
H25_4 C29_4 1_555 1_555
C31_5 C27_5 1_555 1_555
O3_4 C31_5 1_555 1_555
O4_4 C31_5 1_555 1_555
Zn2_2 O3_4 1_555 1_555
C1_5 C29_4 1_555 1_555
C25_5 C27_5 1_555 1_555
O4_4 Zn2_2 1_555 1_555
C27_5 H27_5 1_555 1_555
N4_4 C6_5 1_555 1_555
C6_5 N1_5 1_555 1_555
H3_5 C6_5 1_555 1_555
C7_5 N1_5 1_555 1_555
H4_5 C7_5 1_555 1_555
H7_4 C11_5 1_555 1_555
C15_5 N4_4 1_555 1_555
H10_5 C15_5 1_555 1_555
Zn2_2 N4_4 1_555 1_555
C7_5 C15_5 1_555 1_555
Zn2_2 O1_6 1_555 1_555
N2_5 C2_6 1_555 1_555
C1_6 H1_6 1_555 1_555
H2_6 C1_6 1_555 1_555
O1_6 C13_6 1_555 1_555
O2_6 C13_6 1_555 1_555
C2_6 C26_6 1_555 1_555
N5_6 Zn2_2 1_555 1_555
H5_6 C9_6 1_555 1_555
C12_6 H8_6 1_555 1_555
C13_6 C19_6 1_555 1_555
C19_6 C12_6 1_555 1_555
C21_5 N2_5 1_555 1_555
H15_5 C21_5 1_555 1_555
H16_5 C21_5 1_555 1_555
C22_6 C19_6 1_555 1_555
H17_6 C22_6 1_555 1_555
C25_6 C21_5 1_555 1_555
H20_5 C25_6 1_555 1_555
H21_5 C25_6 1_555 1_555
C26_6 C12_6 1_555 1_555
H22_6 C26_6 1_555 1_555
C27_6 C1_6 1_555 1_555
C29_5 N2_5 1_555 1_555
H24_5 C29_5 1_555 1_555
H25_5 C29_5 1_555 1_555
C30_6 C2_6 1_555 1_555
H26_5 C30_6 1_555 1_555
C31_6 C27_6 1_555 1_555
O5_2 C31_6 1_555 1_555
O6_2 C31_6 1_555 1_555
C1_6 C29_5 1_555 1_555
N5_6 C9_6 1_555 1_555
C22_6 C30_6 1_555 1_555
C25_6 C27_6 1_555 1_555
C27_6 H27_6 1_555 1_555
N6_2 C6_6 1_555 1_555
C6_6 N1_6 1_555 1_555
H3_6 C6_6 1_555 1_555
C7_6 N1_6 1_555 1_555
H4_6 C7_6 1_555 1_555
H7_5 C11_6 1_555 1_555
C15_6 N6_2 1_555 1_555
H10_6 C15_6 1_555 1_555
C7_6 C15_6 1_555 1_555
N3_4 C4_4 1_555 1_555
C3_3 C8_3 1_555 1_555
C4_4 C17_4 1_555 1_555
C8_3 C18_4 1_555 1_555
C10_3 C3_3 1_555 1_555
H6_3 C10_3 1_555 1_555
C17_4 H12_4 1_555 1_555
C18_4 C17_4 1_555 1_555
H13_4 C18_4 1_555 1_555
H14_4 C20_4 1_555 1_555
C23_4 C4_4 1_555 1_555
H18_4 C23_4 1_555 1_555
C24_3 C8_3 1_555 1_555
H19_3 C24_3 1_555 1_555
C28_4 N3_4 1_555 1_555
H23_4 C28_4 1_555 1_555
C20_4 C28_4 1_555 1_555
C23_4 C24_3 1_555 1_555
Zn1_3 O1_7 1_555 1_555
O1_7 C13_7 1_555 1_555
O2_7 C13_7 1_555 1_555
N3_5 C4_5 1_555 1_555
C2_7 C26_7 1_555 1_555
C4_5 C17_5 1_555 1_555
N5_7 Zn1_3 1_555 1_555
C9_7 N3_5 1_555 1_555
H5_7 C9_7 1_555 1_555
C12_7 H8_7 1_555 1_555
C13_7 C19_7 1_555 1_555
C17_5 H12_5 1_555 1_555
C18_5 C17_5 1_555 1_555
H13_5 C18_5 1_555 1_555
C19_7 C12_7 1_555 1_555
C20_5 N5_7 1_555 1_555
H14_5 C20_5 1_555 1_555
C22_7 C19_7 1_555 1_555
H17_7 C22_7 1_555 1_555
C23_5 C4_5 1_555 1_555
H18_5 C23_5 1_555 1_555
C26_7 C12_7 1_555 1_555
H22_7 C26_7 1_555 1_555
C28_5 N3_5 1_555 1_555
H23_5 C28_5 1_555 1_555
H24_6 C29_6 1_555 1_555
H25_6 C29_6 1_555 1_555
C30_7 C2_7 1_555 1_555
N6_3 Zn1_3 1_555 1_555
O5_3 Zn1_3 1_555 1_555
O6_3 Zn1_3 1_555 1_555
N5_7 C9_7 1_555 1_555
C20_5 C28_5 1_555 1_555
C22_7 C30_7 1_555 1_555
N1_7 C5_4 1_555 1_555
N6_3 C6_7 1_555 1_555
C5_4 C11_7 1_555 1_555
C6_7 N1_7 1_555 1_555
H3_7 C6_7 1_555 1_555
C7_7 N1_7 1_555 1_555
H4_7 C7_7 1_555 1_555
H9_4 C14_4 1_555 1_555
C15_7 N6_3 1_555 1_555
H10_7 C15_7 1_555 1_555
C16_4 C5_4 1_555 1_555
H11_4 C16_4 1_555 1_555
C7_7 C15_7 1_555 1_555
C14_4 C16_4 1_555 1_555
C1_7 H1_7 1_555 1_555
H2_7 C1_7 1_555 1_555
C27_7 C1_7 1_555 1_555
C31_7 C27_7 1_555 1_555
O5_3 C31_7 1_555 1_555
O6_3 C31_7 1_555 1_555
C25_7 C27_7 1_555 1_555
C27_7 H27_7 1_555 1_555
C3_4 C8_4 1_555 1_555
C10_4 C3_4 1_555 1_555
H6_4 C10_4 1_555 1_555
C14_5 C3_4 1_555 1_555
H9_5 C14_5 1_555 1_555
C16_5 C5_5 1_555 1_555
H11_5 C16_5 1_555 1_555
C24_4 C8_4 1_555 1_555
H19_4 C24_4 1_555 1_555
C14_5 C16_5 1_555 1_555
C21_6 N2_6 1_555 1_555
H15_6 C21_6 1_555 1_555
H16_6 C21_6 1_555 1_555
Zn1_4 O1_8 1_555 1_555
O1_8 C13_8 1_555 1_555
O2_8 C13_8 1_555 1_555
N3_6 C4_6 1_555 1_555
C2_8 C26_8 1_555 1_555
C3_5 C8_5 1_555 1_555
C4_6 C17_6 1_555 1_555
N5_8 Zn1_4 1_555 1_555
C8_5 C18_6 1_555 1_555
C9_8 N3_6 1_555 1_555
H5_8 C9_8 1_555 1_555
C10_5 C3_5 1_555 1_555
H6_5 C10_5 1_555 1_555
C12_8 H8_8 1_555 1_555
C13_8 C19_8 1_555 1_555
C14_6 C3_5 1_555 1_555
H9_6 C14_6 1_555 1_555
C16_6 C5_6 1_555 1_555
H11_6 C16_6 1_555 1_555
C17_6 H12_6 1_555 1_555
C18_6 C17_6 1_555 1_555
H13_6 C18_6 1_555 1_555
C19_8 C12_8 1_555 1_555
C20_6 N5_8 1_555 1_555
H14_6 C20_6 1_555 1_555
C22_8 C19_8 1_555 1_555
H17_8 C22_8 1_555 1_555
C23_6 C4_6 1_555 1_555
H18_6 C23_6 1_555 1_555
C24_5 C8_5 1_555 1_555
H19_5 C24_5 1_555 1_555
C26_8 C12_8 1_555 1_555
H22_8 C26_8 1_555 1_555
C28_6 N3_6 1_555 1_555
H23_6 C28_6 1_555 1_555
C30_8 C2_8 1_555 1_555
N6_4 Zn1_4 1_555 1_555
O5_4 Zn1_4 1_555 1_555
O6_4 Zn1_4 1_555 1_555
N5_8 C9_8 1_555 1_555
C14_6 C16_6 1_555 1_555
C20_6 C28_6 1_555 1_555
C22_8 C30_8 1_555 1_555
C23_6 C24_5 1_555 1_555
N1_8 C5_7 1_555 1_555
N6_4 C6_8 1_555 1_555
C5_7 C11_8 1_555 1_555
C6_8 N1_8 1_555 1_555
H3_8 C6_8 1_555 1_555
C7_8 N1_8 1_555 1_555
H4_8 C7_8 1_555 1_555
H9_7 C14_7 1_555 1_555
C15_8 N6_4 1_555 1_555
H10_8 C15_8 1_555 1_555
C16_7 C5_7 1_555 1_555
H11_7 C16_7 1_555 1_555
C7_8 C15_8 1_555 1_555
C14_7 C16_7 1_555 1_555
C1_8 H1_8 1_555 1_555
H2_8 C1_8 1_555 1_555
C21_7 N2_7 1_555 1_555
H15_7 C21_7 1_555 1_555
H16_7 C21_7 1_555 1_555
C25_8 C21_7 1_555 1_555
H20_7 C25_8 1_555 1_555
H21_7 C25_8 1_555 1_555
C27_8 C1_8 1_555 1_555
C31_8 C27_8 1_555 1_555
O5_4 C31_8 1_555 1_555
O6_4 C31_8 1_555 1_555
C25_8 C27_8 1_555 1_555
C27_8 H27_8 1_555 1_555
H24_7 C29_7 1_555 1_555
H25_7 C29_7 1_555 1_555
C3_6 C8_6 1_555 1_555
C10_6 C3_6 1_555 1_555
H6_6 C10_6 1_555 1_555
C24_6 C8_6 1_555 1_555
H19_6 C24_6 1_555 1_555
N3_7 C4_7 1_555 1_555
C4_7 C17_7 1_555 1_555
C17_7 H12_7 1_555 1_555
C18_7 C17_7 1_555 1_555
H13_7 C18_7 1_555 1_555
H14_7 C20_7 1_555 1_555
C23_7 C4_7 1_555 1_555
H18_7 C23_7 1_555 1_555
C28_7 N3_7 1_555 1_555
H23_7 C28_7 1_555 1_555
C20_7 C28_7 1_555 1_555
N3_8 C4_8 1_555 1_555
C3_7 C8_7 1_555 1_555
C4_8 C17_8 1_555 1_555
C8_7 C18_8 1_555 1_555
C10_7 C3_7 1_555 1_555
H6_7 C10_7 1_555 1_555
C17_8 H12_8 1_555 1_555
C18_8 C17_8 1_555 1_555
H13_8 C18_8 1_555 1_555
H14_8 C20_8 1_555 1_555
C23_8 C4_8 1_555 1_555
H18_8 C23_8 1_555 1_555
C24_7 C8_7 1_555 1_555
H19_7 C24_7 1_555 1_555
C28_8 N3_8 1_555 1_555
H23_8 C28_8 1_555 1_555
C20_8 C28_8 1_555 1_555
C23_8 C24_7 1_555 1_555
C3_8 C8_8 1_555 1_555
C10_8 C3_8 1_555 1_555
H6_8 C10_8 1_555 1_555
C14_8 C3_8 1_555 1_555
H9_8 C14_8 1_555 1_555
C16_8 C5_8 1_555 1_555
H11_8 C16_8 1_555 1_555
C24_8 C8_8 1_555 1_555
H19_8 C24_8 1_555 1_555
C14_8 C16_8 1_555 1_555
H24_8 C29_8 1_555 1_555
H25_8 C29_8 1_555 1_555
C21_8 N2_8 1_555 1_555
H15_8 C21_8 1_555 1_555
H16_8 C21_8 1_555 1_555

#END
