
###############################################################################
#
# This file contains modified crystal structure data generated from the
# MOF subset of the Cambridge Structural Database (CSD) v543 
# hosted by the Cambridge Crystallographic Data Centre (CCDC).
#
# This work is licensed under the Creative Commons
# Attribution-NonCommercial-ShareAlike 4.0 International License.
# To view a copy of this license, visit
# http://creativecommons.org/licenses/by-nc-sa/4.0/
# or send a letter to
# Creative Commons, PO Box 1866, Mountain View, CA 94042, USA.
#
# CIF created using the CSD Python API on 29 September 2022
# The structure has been converted into the P1 space group
# The structure has a 3D framework
# The original CSD entry RUMRUO is in the monoclinic crystal system
# The framework has been calculated to contain at least 10.0% void space
# The void calculation uses a probe of radius 1.32A, grid spacing 0.4
# The framework is charged, counterions have been retained in the structure
#
###############################################################################

data_RUMRUO
_chemical_formula_moiety         '(C4 H8 F7 N20 Zn10)n'
_symmetry_cell_setting           triclinic
_symmetry_space_group_name_H-M   'P 1'
_symmetry_Int_Tables_number      1
_space_group_name_Hall           'P 1'
loop_
_symmetry_equiv_pos_site_id
_symmetry_equiv_pos_as_xyz
1 x,y,z
_cell_length_a                   6.5576(4)
_cell_length_b                   9.7150(6)
_cell_length_c                   8.6358(6)
_cell_angle_alpha                90
_cell_angle_beta                 90.579(4)
_cell_angle_gamma                90
_cell_volume                     550.134
loop_
_atom_site_label
_atom_site_type_symbol
_atom_site_fract_x
_atom_site_fract_y
_atom_site_fract_z
Zn9 Zn -0.0000 -0.0000 -0.0000
Zn12 Zn 0.5000 -0.0000 -0.0000
Zn9_2 Zn -0.0000 -0.0000 1.0000
Zn12_2 Zn 0.5000 -0.0000 1.0000
F1 F 0.2579(7) 0.0000 0.1383(5)
Zn9_3 Zn -0.0000 1.0000 -0.0000
Zn12_3 Zn 0.5000 1.0000 -0.0000
N23 N 0.6520(7) 0.1557(5) 0.1390(5)
Zn1 Zn 0.29709(13) 0.5000 0.59708(10)
F2 F 0.3852(7) 0.5000 0.3822(6)
F3 F -0.0000 0.5000 0.5000
N1 N 0.1415(7) 0.1557(5) 0.8626(5)
N2 N 0.4157(7) 0.2550(5) 0.7767(6)
N3 N 0.3480(7) 0.1557(5) 0.8610(5)
N4 N 0.2530(7) 0.3241(4) 0.7171(5)
C1 C 0.0856(8) 0.2612(6) 0.7728(7)
N10 N 0.1095(8) 0.2952(6) 0.2624(7)
H3 H 0.2083 0.2472 0.2260
H4 H 0.1347 0.3647 0.3212
N16 N 0.1415(7) 0.8443(5) 0.8626(5)
N17 N 0.4157(7) 0.7450(5) 0.7767(6)
N18 N 0.3480(7) 0.8443(5) 0.8610(5)
N19 N 0.2530(7) 0.6759(4) 0.7171(5)
C4 C 0.0856(8) 0.7388(6) 0.7728(7)
Zn7 Zn 0.70291(13) 0.5000 0.40292(10)
Zn9_4 Zn -0.0000 1.0000 1.0000
Zn12_4 Zn 0.5000 1.0000 1.0000
F6 F 0.7421(7) -0.0000 0.8617(5)
F8 F 0.6148(7) 0.5000 0.6178(6)
F1_2 F 0.2579(7) 1.0000 0.1383(5)
N24 N 0.6520(7) 0.8443(5) 0.1390(5)
F6_2 F 0.7421(7) 1.0000 0.8617(5)
Zn9_5 Zn 1.0000 -0.0000 -0.0000
Zn9_6 Zn 1.0000 -0.0000 1.0000
Zn9_7 Zn 1.0000 1.0000 -0.0000
N21 N 0.8585(7) 0.1557(5) 0.1374(5)
F3_2 F 1.0000 0.5000 0.5000
N5 N 0.8905(8) 0.2952(6) 0.7376(7)
H1 H 0.7917 0.2472 0.7740
H2 H 0.8653 0.3647 0.6788
N7 N 0.5843(7) 0.2550(5) 0.2233(6)
N9 N 0.7470(7) 0.3241(4) 0.2829(5)
C2 C 0.9144(8) 0.2612(6) 0.2272(7)
N20 N 0.8905(8) 0.7048(6) 0.7376(7)
H7 H 0.7917 0.7528 0.7740
H8 H 0.8653 0.6353 0.6788
Zn9_8 Zn 1.0000 1.0000 1.0000
N25 N 0.7470(7) 0.6759(4) 0.2829(5)
N22 N 0.8585(7) 0.8443(5) 0.1374(5)
N20_2 N 0.1095(8) 0.7048(6) 0.2624(7)
H7_2 H 0.2083 0.7528 0.2260
H8_2 H 0.1347 0.6353 0.3212
N17_2 N 0.5843(7) 0.7450(5) 0.2233(6)
C4_2 C 0.9144(8) 0.7388(6) 0.2272(7)
loop_
_geom_bond_atom_site_label_1
_geom_bond_atom_site_label_2
_geom_bond_site_symmetry_1
_geom_bond_site_symmetry_2
Zn9 F1 1_555 1_555
Zn12 F1 1_555 1_555
N23 Zn12 1_555 1_555
Zn1 F2 1_555 1_555
F2 Zn7 1_555 1_555
F3 Zn1 1_555 1_555
N1 Zn9_2 1_555 1_555
N2 N3 1_555 1_555
N3 Zn12_2 1_555 1_555
N4 Zn1 1_555 1_555
C1 N1 1_555 1_555
H3 N10 1_555 1_555
H4 N10 1_555 1_555
N16 N18 1_555 1_555
N17 N18 1_555 1_555
N18 Zn12_4 1_555 1_555
N19 Zn1 1_555 1_555
C4 N16 1_555 1_555
Zn7 F8 1_555 1_555
Zn9_4 N16 1_555 1_555
F6 Zn12_2 1_555 1_555
F8 Zn1 1_555 1_555
N1 N3 1_555 1_555
N2 N4 1_555 1_555
N4 C1 1_555 1_555
N17 N19 1_555 1_555
N19 C4 1_555 1_555
Zn9_3 F1_2 1_555 1_555
Zn12_3 F1_2 1_555 1_555
N24 Zn12_3 1_555 1_555
F6_2 Zn12_4 1_555 1_555
N21 Zn9_5 1_555 1_555
H1 N5 1_555 1_555
H2 N5 1_555 1_555
Zn7 F3_2 1_555 1_555
N21 N23 1_555 1_555
N7 N23 1_555 1_555
N9 Zn7 1_555 1_555
C2 N21 1_555 1_555
H7 N20 1_555 1_555
H8 N20 1_555 1_555
F6 Zn9_6 1_555 1_555
N25 Zn7 1_555 1_555
N7 N9 1_555 1_555
N9 C2 1_555 1_555
N22 Zn9_7 1_555 1_555
F6_2 Zn9_8 1_555 1_555
H7_2 N20_2 1_555 1_555
H8_2 N20_2 1_555 1_555
N22 N24 1_555 1_555
N17_2 N24 1_555 1_555
C4_2 N22 1_555 1_555
N17_2 N25 1_555 1_555
N25 C4_2 1_555 1_555

#END
