
###############################################################################
#
# This file contains modified crystal structure data generated from the
# MOF subset of the Cambridge Structural Database (CSD) v543 
# hosted by the Cambridge Crystallographic Data Centre (CCDC).
#
# This work is licensed under the Creative Commons
# Attribution-NonCommercial-ShareAlike 4.0 International License.
# To view a copy of this license, visit
# http://creativecommons.org/licenses/by-nc-sa/4.0/
# or send a letter to
# Creative Commons, PO Box 1866, Mountain View, CA 94042, USA.
#
# CIF created using the CSD Python API on 29 September 2022
# The structure has been converted into the P1 space group
# The structure has a 3D framework
# The original CSD entry RUPDEO is in the rhombohedral crystal system
# The framework has been calculated to contain at least 10.0% void space
# The void calculation uses a probe of radius 1.32A, grid spacing 0.4
#
###############################################################################

data_RUPDEO
_chemical_formula_moiety         '(C432 H360 Cd18 N72 O70)n'
_symmetry_cell_setting           triclinic
_symmetry_space_group_name_H-M   'P 1'
_symmetry_Int_Tables_number      1
_space_group_name_Hall           'P 1'
loop_
_symmetry_equiv_pos_site_id
_symmetry_equiv_pos_as_xyz
1 x,y,z
_cell_length_a                   27.3745(2)
_cell_length_b                   27.3745(2)
_cell_length_c                   21.5185(3)
_cell_angle_alpha                90
_cell_angle_beta                 90
_cell_angle_gamma                120
_cell_volume                     13964.8
loop_
_atom_site_label
_atom_site_type_symbol
_atom_site_fract_x
_atom_site_fract_y
_atom_site_fract_z
C37 C 0.20169(18) 0.15050(25) 0.7321(2)
H29 H 0.2196 0.1883 0.7204
C38 C 0.14393(17) 0.12041(24) 0.7320(2)
H30 H 0.1233 0.1375 0.7204
C39 C 0.11726(16) 0.06522(23) 0.7491(2)
C40 C 0.1491(2) 0.0417(3) 0.7674(3)
H31 H 0.1319 0.0044 0.7806
C41 C 0.2069(2) 0.0745(3) 0.7659(3)
H32 H 0.2284 0.0584 0.7778
C42 C 0.05462(16) 0.03022(23) 0.7481(2)
N9 N 0.23346(13) 0.12836(18) 0.74823(17)
N10 N 0.02544(14) 0.05756(19) 0.74792(18)
Cd4 Cd 0.33047(2) 0.17737(3) 0.75785(2)
H18 H 0.0142 0.8767 0.7204
N4 N 0.03212(13) 0.97456(14) 0.74792(18)
C64 C 0.00397(25) 0.39777(17) 0.63244(19)
C65 C 0.01582(24) 0.43105(16) 0.6853(2)
H50 H 0.0360 0.4701 0.6815
C68 C 0.00639(22) 0.44182(15) 0.80043(19)
C69 C 0.0223(3) 0.4227(2) 0.5673(2)
C70 C 0.0496(4) 0.4865(2) 0.5673(3)
H52 H 0.0238 0.4970 0.5847
H53 H 0.0833 0.5025 0.5918
H54 H 0.0587 0.5003 0.5255
C72 C 0.0613(4) 0.4052(3) 0.5406(3)
H58 H 0.0434 0.3648 0.5409
H59 H 0.0705 0.4186 0.4986
H60 H 0.0951 0.4208 0.5649
O11 O 0.02189(20) 0.49289(12) 0.79551(16)
Cd10 Cd 0.00286(2) 0.48930(3) 0.90882(2)
C43 C 0.84950(25) 0.05119(17) 0.7321(2)
H33 H 0.8117 0.0313 0.7204
C44 C 0.87959(24) 0.02352(17) 0.7320(2)
C45 C 0.93478(23) 0.05204(16) 0.7491(2)
C46 C 0.9583(3) 0.1074(2) 0.7674(3)
H35 H 0.9956 0.1275 0.7806
C47 C 0.9255(3) 0.1324(2) 0.7659(3)
H36 H 0.9416 0.1700 0.7778
C48 C 0.96978(23) 0.02440(16) 0.7481(2)
N11 N 0.87164(18) 0.10510(13) 0.74823(17)
Cd5 Cd 0.82263(3) 0.15310(2) 0.75785(2)
C1 C 0.74739(14) 0.66357(13) 0.70644(19)
C2 C 0.68527(14) 0.63982(14) 0.69777(17)
C3 C 0.66106(15) 0.63376(16) 0.63952(18)
H1 H 0.6841 0.6481 0.6047
C4 C 0.60223(17) 0.60620(18) 0.63244(19)
C5 C 0.56895(16) 0.58477(18) 0.6853(2)
H2 H 0.5299 0.5659 0.6815
C6 C 0.59305(15) 0.59105(16) 0.74347(18)
C7 C 0.65091(14) 0.61885(14) 0.74977(17)
H3 H 0.6670 0.6236 0.7890
C8 C 0.55818(15) 0.56457(16) 0.80043(19)
C9 C 0.5773(2) 0.5996(2) 0.5673(2)
C10 C 0.5135(2) 0.5631(3) 0.5673(3)
H4 H 0.5030 0.5268 0.5847
H5 H 0.4975 0.5808 0.5918
H6 H 0.4997 0.5584 0.5255
C11 C 0.6008(3) 0.5702(3) 0.5250(3)
H7 H 0.5899 0.5336 0.5415
H8 H 0.5858 0.5664 0.4838
H9 H 0.6412 0.5925 0.5236
C12 C 0.5948(3) 0.6561(3) 0.5406(3)
H10 H 0.6352 0.6786 0.5409
H11 H 0.5814 0.6519 0.4986
H12 H 0.5792 0.6743 0.5649
C13 C 0.73491(16) 0.54032(16) 0.7688(2)
H13 H 0.7169 0.5609 0.7763
C14 C 0.70217(16) 0.48227(16) 0.7670(2)
H14 H 0.6633 0.4646 0.7721
C15 C 0.72840(15) 0.45090(15) 0.75739(17)
C16 C 0.78663(17) 0.47994(18) 0.7496(2)
H15 H 0.8060 0.4605 0.7435
C17 C 0.81503(17) 0.53800(18) 0.7512(3)
H16 H 0.8539 0.5570 0.7452
C18 C 0.69570(15) 0.38844(15) 0.75625(17)
C19 C 0.94881(17) 0.79831(18) 0.7321(2)
H17 H 0.9687 0.7804 0.7204
C20 C 0.97648(17) 0.85607(17) 0.7320(2)
C21 C 0.94796(16) 0.88274(16) 0.7491(2)
C22 C 0.8926(2) 0.8509(2) 0.7674(3)
H19 H 0.8725 0.8681 0.7806
C23 C 0.8676(2) 0.7931(2) 0.7659(3)
H20 H 0.8300 0.7716 0.7778
C24 C 0.97560(16) 0.94538(16) 0.7481(2)
N1 N 0.89490(13) 0.76654(13) 0.74823(17)
N2 N 0.79025(13) 0.56856(13) 0.76071(16)
N3 N 0.72455(13) 0.36086(13) 0.75593(15)
O1 O 0.77937(11) 0.67689(13) 0.66085(14)
O2 O 0.76442(10) 0.66724(11) 0.76155(13)
O3 O 0.50711(12) 0.52900(16) 0.79551(16)
O4 O 0.58286(11) 0.57899(12) 0.85191(13)
Cd1 Cd 0.84690(2) 0.66953(2) 0.75785(2)
C25 C 0.45968(16) 0.19459(23) 0.7688(2)
H21 H 0.4391 0.1560 0.7763
C26 C 0.51773(16) 0.21990(23) 0.7670(2)
H22 H 0.5354 0.1987 0.7721
C27 C 0.54910(15) 0.27750(21) 0.75739(17)
C28 C 0.52006(18) 0.30669(25) 0.7496(2)
H23 H 0.5395 0.3455 0.7435
C29 C 0.46200(18) 0.27703(25) 0.7512(3)
H24 H 0.4430 0.2969 0.7452
C30 C 0.61156(15) 0.30726(21) 0.75625(17)
N5 N 0.43144(13) 0.22169(18) 0.76071(16)
N6 N 0.63914(13) 0.36369(18) 0.75593(15)
C31 C 0.80541(23) 0.26509(16) 0.7688(2)
H25 H 0.8440 0.2831 0.7763
C32 C 0.78010(23) 0.29783(16) 0.7670(2)
H26 H 0.8013 0.3367 0.7721
C33 C 0.72250(21) 0.27160(15) 0.75739(17)
C34 C 0.69331(25) 0.21337(17) 0.7496(2)
H27 H 0.6545 0.1940 0.7435
C35 C 0.72297(25) 0.18497(17) 0.7512(3)
H28 H 0.7031 0.1461 0.7452
C36 C 0.69274(21) 0.30430(15) 0.75625(17)
N7 N 0.77831(18) 0.20975(13) 0.76071(16)
N8 N 0.63631(18) 0.27545(13) 0.75593(15)
H34 H 0.8625 0.9858 0.7204
N12 N 0.94244(19) 0.96788(13) 0.74792(18)
C49 C 0.33643(13) 0.08382(19) 0.70644(19)
C50 C 0.36018(14) 0.04545(20) 0.69777(17)
C51 C 0.36624(16) 0.02730(22) 0.63952(18)
H37 H 0.3519 0.0360 0.6047
C54 C 0.40895(16) 0.00200(22) 0.74347(18)
C55 C 0.38115(14) 0.03206(20) 0.74977(17)
H39 H 0.3764 0.0434 0.7890
C59 C 0.4298(3) 0.0306(4) 0.5250(3)
H43 H 0.4664 0.0563 0.5415
H44 H 0.4336 0.0194 0.4838
H45 H 0.4075 0.0487 0.5236
O5 O 0.32311(13) 0.10248(17) 0.66085(14)
O6 O 0.33276(11) 0.09718(15) 0.76155(13)
O8 O 0.42101(12) 0.00387(16) 0.85191(13)
C61 C 0.91618(19) 0.25261(14) 0.70644(19)
C62 C 0.95455(20) 0.31473(14) 0.69777(17)
C63 C 0.97270(22) 0.33894(15) 0.63952(18)
H49 H 0.9640 0.3159 0.6047
C66 C 0.99800(22) 0.40695(15) 0.74347(18)
C67 C 0.96794(20) 0.34909(14) 0.74977(17)
H51 H 0.9566 0.3330 0.7890
C71 C 0.9694(4) 0.3992(3) 0.5250(3)
H55 H 0.9437 0.4101 0.5415
H56 H 0.9806 0.4142 0.4838
H57 H 0.9513 0.3588 0.5236
O9 O 0.89752(17) 0.22063(11) 0.66085(14)
O10 O 0.90282(15) 0.23558(10) 0.76155(13)
O12 O 0.99613(16) 0.41714(11) 0.85191(13)
O13 O 0.88730(11) 0.65644(13) 0.67248(14)
O14 O 0.34356(13) 0.23085(17) 0.67248(14)
O15 O 0.76915(17) 0.11270(11) 0.67248(14)
O16 O 0.82622(12) 0.13767(16) 0.87116(16)
O17 O 0.86233(16) 0.68856(20) 0.87116(16)
O18 O 0.31144(20) 0.17378(12) 0.87116(16)
O19 O 0.75047(11) 0.08768(12) 0.81476(13)
O20 O 0.91232(12) 0.66280(16) 0.81476(13)
O21 O 0.33720(16) 0.24953(11) 0.81476(13)
Cd6 Cd 0.81977(2) 0.66380(2) 0.57548(2)
Cd7 Cd 0.33620(2) 0.15596(3) 0.57548(2)
Cd8 Cd 0.84404(3) 0.18023(2) 0.57548(2)
Cd11 Cd 0.51070(3) 0.51357(2) 0.90882(2)
C52 C 0.39380(18) 0.99603(25) 0.63244(19)
C53 C 0.41523(18) 0.98418(24) 0.6853(2)
H38 H 0.4341 0.9640 0.6815
C56 C 0.43543(16) 0.99361(22) 0.80043(19)
C57 C 0.4004(2) 0.9777(3) 0.5673(2)
C58 C 0.4369(3) 0.9504(4) 0.5673(3)
H40 H 0.4732 0.9762 0.5847
H41 H 0.4192 0.9167 0.5918
H42 H 0.4416 0.9413 0.5255
C60 C 0.3439(3) 0.9387(4) 0.5406(3)
H46 H 0.3214 0.9566 0.5409
H47 H 0.3481 0.9295 0.4986
H48 H 0.3257 0.9049 0.5649
O7 O 0.47100(16) 0.97811(20) 0.79551(16)
Cd9 Cd 0.48643(2) 0.99714(2) 0.90882(2)
C19_2 C 0.61548(17) 0.13164(18) 0.0654(2)
H17_2 H 0.6354 0.1137 0.0537
C20_2 C 0.64315(17) 0.18940(17) 0.0653(2)
H18_2 H 0.6809 0.2100 0.0537
C21_2 C 0.61463(16) 0.21607(16) 0.0824(2)
C22_2 C 0.5593(2) 0.1842(2) 0.1007(3)
H19_2 H 0.5392 0.2014 0.1139
C23_2 C 0.5343(2) 0.1264(2) 0.0992(3)
H20_2 H 0.4967 0.1049 0.1111
C24_2 C 0.64227(16) 0.27871(16) 0.0814(2)
N1_2 N 0.56157(13) 0.09987(13) 0.08156(17)
N4_2 N 0.69879(13) 0.30789(14) 0.08125(18)
O2_2 O 0.43109(10) 0.00057(11) 0.09488(13)
Cd1_2 Cd 0.51357(2) 0.00286(2) 0.09118(2)
C37_2 C 0.86836(18) 0.48383(25) 0.0654(2)
H29_2 H 0.8863 0.5216 0.0537
C38_2 C 0.81060(17) 0.45374(24) 0.0653(2)
H30_2 H 0.7900 0.4708 0.0537
C39_2 C 0.78393(16) 0.39855(23) 0.0824(2)
C40_2 C 0.8158(2) 0.3750(3) 0.1007(3)
H31_2 H 0.7986 0.3377 0.1139
C41_2 C 0.8736(2) 0.4078(3) 0.0992(3)
H32_2 H 0.8951 0.3917 0.1111
C42_2 C 0.72129(16) 0.36355(23) 0.0814(2)
N9_2 N 0.90013(13) 0.46169(18) 0.08156(17)
N10_2 N 0.69211(14) 0.39089(19) 0.08125(18)
C43_2 C 0.51617(25) 0.38452(17) 0.0654(2)
H33_2 H 0.4784 0.3646 0.0537
C44_2 C 0.54626(24) 0.35685(17) 0.0653(2)
H34_2 H 0.5292 0.3191 0.0537
C45_2 C 0.60145(23) 0.38537(16) 0.0824(2)
C46_2 C 0.6250(3) 0.4407(2) 0.1007(3)
H35_2 H 0.6623 0.4608 0.1139
C47_2 C 0.5922(3) 0.4657(2) 0.0992(3)
H36_2 H 0.6083 0.5033 0.1111
C48_2 C 0.63645(23) 0.35773(16) 0.0814(2)
N11_2 N 0.53831(18) 0.43843(13) 0.08156(17)
N12_2 N 0.60911(19) 0.30121(13) 0.08125(18)
O17_2 O 0.52900(16) 0.02189(20) 0.20449(16)
Cd4_2 Cd 0.99714(2) 0.51070(3) 0.09118(2)
Cd5_2 Cd 0.48930(3) 0.48643(2) 0.09118(2)
H10_2 H 0.3019 0.0119 0.8742
H12_2 H 0.2459 0.0076 0.8982
O1_2 O 0.44604(11) 0.01022(13) 0.99418(14)
C1_2 C 0.41406(14) 0.99690(13) 0.03977(19)
C2_2 C 0.35194(14) 0.97315(14) 0.03110(17)
C5_2 C 0.23562(16) 0.91810(18) 0.0186(2)
H2_2 H 0.1966 0.8992 0.0148
C6_2 C 0.25972(15) 0.92438(16) 0.07680(18)
C7_2 C 0.31758(14) 0.95218(14) 0.08310(17)
H3_2 H 0.3337 0.9569 0.1223
C8_2 C 0.22485(15) 0.89790(16) 0.13376(19)
C13_2 C 0.40158(16) 0.87365(16) 0.1021(2)
H13_2 H 0.3836 0.8942 0.1096
C14_2 C 0.36884(16) 0.81560(16) 0.1003(2)
H14_2 H 0.3300 0.7979 0.1054
C15_2 C 0.39507(15) 0.78423(15) 0.09072(17)
C16_2 C 0.45330(17) 0.81327(18) 0.0829(2)
H15_2 H 0.4727 0.7938 0.0768
C17_2 C 0.48170(17) 0.87133(18) 0.0845(3)
H16_2 H 0.5206 0.8903 0.0785
C18_2 C 0.36237(15) 0.72177(15) 0.08958(17)
N2_2 N 0.45692(13) 0.90189(13) 0.09404(16)
N3_2 N 0.39122(13) 0.69419(13) 0.08926(15)
O3_2 O 0.17378(12) 0.86233(16) 0.12884(16)
O4_2 O 0.24953(11) 0.91232(12) 0.18524(13)
C25_2 C 0.12635(16) 0.52792(23) 0.1021(2)
H21_2 H 0.1058 0.4893 0.1096
C26_2 C 0.18440(16) 0.55323(23) 0.1003(2)
H22_2 H 0.2021 0.5320 0.1054
C27_2 C 0.21577(15) 0.61083(21) 0.09072(17)
C28_2 C 0.18673(18) 0.64002(25) 0.0829(2)
H23_2 H 0.2062 0.6788 0.0768
C29_2 C 0.12867(18) 0.61036(25) 0.0845(3)
H24_2 H 0.1097 0.6302 0.0785
C30_2 C 0.27823(15) 0.64059(21) 0.08958(17)
N5_2 N 0.09811(13) 0.55502(18) 0.09404(16)
N6_2 N 0.30581(13) 0.69702(18) 0.08926(15)
C31_2 C 0.47208(23) 0.59842(16) 0.1021(2)
H25_2 H 0.5107 0.6164 0.1096
C32_2 C 0.44677(23) 0.63116(16) 0.1003(2)
H26_2 H 0.4680 0.6700 0.1054
C33_2 C 0.38917(21) 0.60493(15) 0.09072(17)
C34_2 C 0.35998(25) 0.54670(17) 0.0829(2)
H27_2 H 0.3212 0.5273 0.0768
C35_2 C 0.38964(25) 0.51830(17) 0.0845(3)
H28_2 H 0.3698 0.4794 0.0785
C36_2 C 0.35941(21) 0.63763(15) 0.08958(17)
N7_2 N 0.44498(18) 0.54308(13) 0.09404(16)
N8_2 N 0.30298(18) 0.60878(13) 0.08926(15)
C49_2 C 0.00310(13) 0.41715(19) 0.03977(19)
C50_2 C 0.02685(14) 0.37878(20) 0.03110(17)
C53_2 C 0.08190(18) 0.31751(24) 0.0186(2)
H38_2 H 0.1008 0.2973 0.0148
C54_2 C 0.07562(16) 0.33533(22) 0.07680(18)
C55_2 C 0.04782(14) 0.36539(20) 0.08310(17)
H39_2 H 0.0431 0.3767 0.1223
C56_2 C 0.10210(16) 0.32694(22) 0.13376(19)
O7_2 O 0.13767(16) 0.31144(20) 0.12884(16)
O8_2 O 0.08768(12) 0.33720(16) 0.18524(13)
C61_2 C 0.58285(19) 0.58594(14) 0.03977(19)
C62_2 C 0.62122(20) 0.64806(14) 0.03110(17)
C65_2 C 0.68249(24) 0.76438(16) 0.0186(2)
H50_2 H 0.7027 0.8034 0.0148
C66_2 C 0.66467(22) 0.74028(15) 0.07680(18)
C67_2 C 0.63461(20) 0.68242(14) 0.08310(17)
H51_2 H 0.6233 0.6663 0.1223
C68_2 C 0.67306(22) 0.77515(15) 0.13376(19)
O10_2 O 0.56949(15) 0.56891(10) 0.09488(13)
O11_2 O 0.68856(20) 0.82622(12) 0.12884(16)
O12_2 O 0.66280(16) 0.75047(11) 0.18524(13)
O13_2 O 0.55396(11) 0.98978(13) 0.00582(14)
O14_2 O 0.01022(13) 0.56419(17) 0.00582(14)
O15_2 O 0.43581(17) 0.44604(11) 0.00582(14)
O16_2 O 0.49289(12) 0.47100(16) 0.20449(16)
O19_2 O 0.41714(11) 0.42101(12) 0.14809(13)
O20_2 O 0.57899(12) 0.99613(16) 0.14809(13)
O21_2 O 0.00387(16) 0.58286(11) 0.14809(13)
Cd9_2 Cd 0.15310(2) 0.33047(2) 0.24215(2)
Cd10_2 Cd 0.66953(2) 0.82263(3) 0.24215(2)
Cd11_2 Cd 0.17737(3) 0.84690(2) 0.24215(2)
C3_2 C 0.32773(15) 0.96709(16) 0.97285(18)
H1_2 H 0.3508 0.9814 0.9380
C4_2 C 0.26890(17) 0.93953(18) 0.96577(19)
C9_2 C 0.2440(2) 0.9329(2) 0.9006(2)
C10_2 C 0.1802(2) 0.8964(3) 0.9006(3)
H4_2 H 0.1697 0.8601 0.9180
H5_2 H 0.1642 0.9141 0.9251
H6_2 H 0.1664 0.8917 0.8588
C11_2 C 0.2675(3) 0.9035(3) 0.8583(3)
H7_2 H 0.2566 0.8669 0.8748
H8_2 H 0.2525 0.8997 0.8171
H9_2 H 0.3079 0.9258 0.8569
C12_2 C 0.2615(3) 0.9894(3) 0.8739(3)
H11_2 H 0.2481 0.9852 0.8319
C51_2 C 0.03291(16) 0.36063(22) 0.97285(18)
H37_2 H 0.0186 0.3693 0.9380
C52_2 C 0.06047(18) 0.32936(25) 0.96577(19)
C57_2 C 0.0671(2) 0.3110(3) 0.9006(2)
C58_2 C 0.1036(3) 0.2837(4) 0.9006(3)
H40_2 H 0.1399 0.3095 0.9180
H41_2 H 0.0859 0.2500 0.9251
H42_2 H 0.1083 0.2746 0.8588
C59_2 C 0.0965(3) 0.3639(4) 0.8583(3)
H43_2 H 0.1331 0.3896 0.8748
H44_2 H 0.1003 0.3527 0.8171
H45_2 H 0.0742 0.3820 0.8569
C60_2 C 0.0106(3) 0.2720(4) 0.8739(3)
H47_2 H 0.0148 0.2628 0.8319
C63_2 C 0.63937(22) 0.67227(15) 0.97285(18)
H49_2 H 0.6307 0.6492 0.9380
C64_2 C 0.67064(25) 0.73110(17) 0.96577(19)
C69_2 C 0.6890(3) 0.7560(2) 0.9006(2)
C70_2 C 0.7163(4) 0.8198(2) 0.9006(3)
H52_2 H 0.6905 0.8303 0.9180
H53_2 H 0.7500 0.8358 0.9251
H54_2 H 0.7254 0.8336 0.8588
C71_2 C 0.6361(4) 0.7325(3) 0.8583(3)
H55_2 H 0.6104 0.7434 0.8748
H56_2 H 0.6473 0.7475 0.8171
H57_2 H 0.6180 0.6921 0.8569
C72_2 C 0.7280(4) 0.7385(3) 0.8739(3)
H58_2 H 0.7101 0.6981 0.8742
H59_2 H 0.7372 0.7519 0.8319
H60_2 H 0.7618 0.7541 0.8982
O9_2 O 0.56419(17) 0.55396(11) 0.99418(14)
O6_2 O 0.99943(11) 0.43051(15) 0.09488(13)
O18_2 O 0.97811(20) 0.50711(12) 0.20449(16)
H46_2 H 0.9881 0.2899 0.8742
H48_2 H 0.9924 0.2382 0.8982
O5_2 O 0.98978(13) 0.43581(17) 0.99418(14)
C1_3 C 0.08072(14) 0.33024(13) 0.37311(19)
C2_3 C 0.01860(14) 0.30649(14) 0.36444(17)
H1_3 H 0.0174 0.3148 0.2714
H3_3 H 0.0003 0.2903 0.4557
C13_3 C 0.06824(16) 0.20699(16) 0.4355(2)
H13_3 H 0.0502 0.2276 0.4430
C14_3 C 0.03550(16) 0.14894(16) 0.4337(2)
C15_3 C 0.06173(15) 0.11757(15) 0.42406(17)
C16_3 C 0.11996(17) 0.14661(18) 0.4163(2)
H15_3 H 0.1393 0.1272 0.4102
C17_3 C 0.14836(17) 0.20467(18) 0.4179(3)
H16_3 H 0.1872 0.2237 0.4119
C18_3 C 0.02903(15) 0.05511(15) 0.42292(17)
C19_3 C 0.28214(17) 0.46498(18) 0.3988(2)
H17_3 H 0.3020 0.4471 0.3871
C20_3 C 0.30981(17) 0.52274(17) 0.3987(2)
H18_3 H 0.3475 0.5434 0.3871
C21_3 C 0.28129(16) 0.54941(16) 0.4158(2)
C22_3 C 0.2259(2) 0.5176(2) 0.4341(3)
H19_3 H 0.2058 0.5348 0.4473
C23_3 C 0.2009(2) 0.4598(2) 0.4326(3)
H20_3 H 0.1633 0.4383 0.4445
C24_3 C 0.30893(16) 0.61205(16) 0.4148(2)
N1_3 N 0.22823(13) 0.43321(13) 0.41490(17)
N2_3 N 0.12358(13) 0.23523(13) 0.42738(16)
N3_3 N 0.05788(13) 0.02753(13) 0.42260(15)
N4_3 N 0.36545(13) 0.64123(14) 0.41459(18)
O1_3 O 0.11270(11) 0.34356(13) 0.32752(14)
O2_3 O 0.09775(10) 0.33391(11) 0.42822(13)
Cd1_3 Cd 0.18023(2) 0.33620(2) 0.42452(2)
H26_3 H 0.1346 0.0034 0.4388
C37_3 C 0.53502(18) 0.81717(25) 0.3988(2)
H29_3 H 0.5529 0.8550 0.3871
C38_3 C 0.47726(17) 0.78708(24) 0.3987(2)
H30_3 H 0.4566 0.8042 0.3871
C39_3 C 0.45059(16) 0.73189(23) 0.4158(2)
C40_3 C 0.4824(2) 0.7084(3) 0.4341(3)
H31_3 H 0.4652 0.6711 0.4473
C41_3 C 0.5402(2) 0.7412(3) 0.4326(3)
H32_3 H 0.5617 0.7251 0.4445
C42_3 C 0.38795(16) 0.69689(23) 0.4148(2)
N9_3 N 0.56679(13) 0.79503(18) 0.41490(17)
N10_3 N 0.35877(14) 0.72423(19) 0.41459(18)
C43_3 C 0.18283(25) 0.71786(17) 0.3988(2)
H33_3 H 0.1450 0.6980 0.3871
C44_3 C 0.21292(24) 0.69019(17) 0.3987(2)
H34_3 H 0.1958 0.6525 0.3871
C45_3 C 0.26811(23) 0.71871(16) 0.4158(2)
C46_3 C 0.2916(3) 0.7741(2) 0.4341(3)
H35_3 H 0.3289 0.7942 0.4473
C47_3 C 0.2588(3) 0.7991(2) 0.4326(3)
H36_3 H 0.2749 0.8367 0.4445
C48_3 C 0.30311(23) 0.69107(16) 0.4148(2)
N11_3 N 0.20497(18) 0.77177(13) 0.41490(17)
N12_3 N 0.27577(19) 0.63455(13) 0.41459(18)
C63_3 C 0.30603(22) 0.00561(15) 0.30619(18)
C64_3 C 0.33730(25) 0.06444(17) 0.29911(19)
C65_3 C 0.34915(24) 0.09772(16) 0.3520(2)
H50_3 H 0.3693 0.1368 0.3482
C66_3 C 0.33133(22) 0.07362(15) 0.41014(18)
C67_3 C 0.30127(20) 0.01576(14) 0.41644(17)
C68_3 C 0.33972(22) 0.10849(15) 0.46710(19)
C69_3 C 0.3556(3) 0.0894(2) 0.2340(2)
C70_3 C 0.3829(4) 0.1532(2) 0.2340(3)
H52_3 H 0.3571 0.1637 0.2514
H53_3 H 0.4166 0.1692 0.2585
H54_3 H 0.3920 0.1670 0.1922
C71_3 C 0.3027(4) 0.0659(3) 0.1917(3)
H55_3 H 0.2770 0.0768 0.2082
H56_3 H 0.3139 0.0809 0.1505
H57_3 H 0.2846 0.0255 0.1903
C72_3 C 0.3946(4) 0.0719(3) 0.2073(3)
H58_3 H 0.3767 0.0315 0.2076
H59_3 H 0.4038 0.0853 0.1653
H60_3 H 0.4284 0.0875 0.2316
O11_3 O 0.35522(20) 0.15956(12) 0.46218(16)
O12_3 O 0.32946(16) 0.08381(11) 0.51858(13)
O13_3 O 0.22063(11) 0.32311(13) 0.33915(14)
O17_3 O 0.19567(16) 0.35522(20) 0.53782(16)
O20_3 O 0.24566(12) 0.32946(16) 0.48142(13)
Cd4_3 Cd 0.66380(2) 0.84404(3) 0.42452(2)
Cd5_3 Cd 0.15596(3) 0.81977(2) 0.42452(2)
C31_3 C 0.13874(23) 0.93176(16) 0.4355(2)
H25_3 H 0.1773 0.9498 0.4430
C32_3 C 0.11343(23) 0.96450(16) 0.4337(2)
C33_3 C 0.05583(21) 0.93827(15) 0.42406(17)
C34_3 C 0.02664(25) 0.88004(17) 0.4163(2)
C35_3 C 0.05630(25) 0.85164(17) 0.4179(3)
H28_3 H 0.0364 0.8128 0.4119
C36_3 C 0.02607(21) 0.97097(15) 0.42292(17)
N7_3 N 0.11164(18) 0.87642(13) 0.42738(16)
C61_3 C 0.24951(19) 0.91928(14) 0.37311(19)
C62_3 C 0.28788(20) 0.98140(14) 0.36444(17)
H49_3 H 0.2973 0.9826 0.2714
H51_3 H 0.2899 0.9997 0.4557
O9_3 O 0.23085(17) 0.88730(11) 0.32752(14)
O10_3 O 0.23615(15) 0.90225(10) 0.42822(13)
O15_3 O 0.10248(17) 0.77937(11) 0.33915(14)
O16_3 O 0.15956(12) 0.80433(16) 0.53782(16)
O19_3 O 0.08381(11) 0.75434(12) 0.48142(13)
C3_3 C 0.99439(15) 0.30043(16) 0.30619(18)
C4_3 C 0.93556(17) 0.27287(18) 0.29911(19)
C5_3 C 0.90228(16) 0.25144(18) 0.3520(2)
H2_3 H 0.8632 0.2326 0.3482
C6_3 C 0.92638(15) 0.25772(16) 0.41014(18)
C7_3 C 0.98424(14) 0.28552(14) 0.41644(17)
C8_3 C 0.89151(15) 0.23124(16) 0.46710(19)
C9_3 C 0.9106(2) 0.2663(2) 0.2340(2)
C10_3 C 0.8468(2) 0.2298(3) 0.2340(3)
H4_3 H 0.8363 0.1935 0.2514
H5_3 H 0.8308 0.2475 0.2585
H6_3 H 0.8330 0.2251 0.1922
C11_3 C 0.9341(3) 0.2369(3) 0.1917(3)
H7_3 H 0.9232 0.2003 0.2082
H8_3 H 0.9191 0.2331 0.1505
H9_3 H 0.9745 0.2592 0.1903
C12_3 C 0.9281(3) 0.3228(3) 0.2073(3)
H10_3 H 0.9685 0.3453 0.2076
H11_3 H 0.9147 0.3186 0.1653
H12_3 H 0.9125 0.3410 0.2316
H14_3 H 0.9966 0.1313 0.4388
O3_3 O 0.84044(12) 0.19567(16) 0.46218(16)
O4_3 O 0.91619(11) 0.24566(12) 0.51858(13)
H23_3 H 0.8728 0.0122 0.4102
N6_3 N 0.97247(13) 0.03036(18) 0.42260(15)
C25_3 C 0.79301(16) 0.86126(23) 0.4355(2)
H21_3 H 0.7724 0.8227 0.4430
C26_3 C 0.85106(16) 0.88657(23) 0.4337(2)
H22_3 H 0.8687 0.8654 0.4388
C27_3 C 0.88243(15) 0.94417(21) 0.42406(17)
C28_3 C 0.85339(18) 0.97336(25) 0.4163(2)
C29_3 C 0.79533(18) 0.94370(25) 0.4179(3)
H24_3 H 0.7763 0.9636 0.4119
C30_3 C 0.94489(15) 0.97393(21) 0.42292(17)
N5_3 N 0.76477(13) 0.88836(18) 0.42738(16)
H27_3 H 0.9878 0.8607 0.4102
N8_3 N 0.96964(18) 0.94212(13) 0.42260(15)
C49_3 C 0.66976(13) 0.75049(19) 0.37311(19)
C50_3 C 0.69351(14) 0.71212(20) 0.36444(17)
C51_3 C 0.69957(16) 0.69397(22) 0.30619(18)
H37_3 H 0.6852 0.7027 0.2714
C52_3 C 0.72713(18) 0.66270(25) 0.29911(19)
C53_3 C 0.74856(18) 0.65085(24) 0.3520(2)
H38_3 H 0.7674 0.6307 0.3482
C54_3 C 0.74228(16) 0.66867(22) 0.41014(18)
C55_3 C 0.71448(14) 0.69873(20) 0.41644(17)
H39_3 H 0.7097 0.7101 0.4557
C56_3 C 0.76876(16) 0.66028(22) 0.46710(19)
C57_3 C 0.7337(2) 0.6444(3) 0.2340(2)
C58_3 C 0.7702(3) 0.6171(4) 0.2340(3)
H40_3 H 0.8065 0.6429 0.2514
H41_3 H 0.7525 0.5834 0.2585
H42_3 H 0.7749 0.6080 0.1922
C59_3 C 0.7631(3) 0.6973(4) 0.1917(3)
H43_3 H 0.7997 0.7230 0.2082
H44_3 H 0.7669 0.6861 0.1505
H45_3 H 0.7408 0.7154 0.1903
C60_3 C 0.6772(3) 0.6054(4) 0.2073(3)
H46_3 H 0.6547 0.6233 0.2076
H47_3 H 0.6814 0.5962 0.1653
H48_3 H 0.6590 0.5716 0.2316
O5_3 O 0.65644(13) 0.76915(17) 0.32752(14)
O6_3 O 0.66609(11) 0.76385(15) 0.42822(13)
O7_3 O 0.80433(16) 0.64478(20) 0.46218(16)
O8_3 O 0.75434(12) 0.67054(16) 0.51858(13)
O14_3 O 0.67689(13) 0.89752(17) 0.33915(14)
O18_3 O 0.64478(20) 0.84044(12) 0.53782(16)
O21_3 O 0.67054(16) 0.91619(11) 0.48142(13)
C52_4 C 0.60620(18) 0.00397(25) 0.36756(19)
C53_4 C 0.58477(18) 0.01582(24) 0.3147(2)
H38_4 H 0.5659 0.0360 0.3185
C56_4 C 0.56457(16) 0.00639(22) 0.19957(19)
C57_4 C 0.5996(2) 0.0223(3) 0.4327(2)
C58_4 C 0.5631(3) 0.0496(4) 0.4327(3)
H40_4 H 0.5268 0.0238 0.4153
H41_4 H 0.5808 0.0833 0.4082
H42_4 H 0.5584 0.0587 0.4745
C60_4 C 0.6561(3) 0.0613(4) 0.4594(3)
H46_4 H 0.6786 0.0434 0.4591
H47_4 H 0.6519 0.0705 0.5014
H48_4 H 0.6743 0.0951 0.4351
C1_4 C 0.25261(14) 0.33643(13) 0.29356(19)
C2_4 C 0.31473(14) 0.36018(14) 0.30223(17)
C3_4 C 0.33894(15) 0.36624(16) 0.36048(18)
H1_4 H 0.3159 0.3519 0.3953
C4_4 C 0.39777(17) 0.39380(18) 0.36756(19)
C5_4 C 0.43105(16) 0.41523(18) 0.3147(2)
H2_4 H 0.4701 0.4341 0.3185
C6_4 C 0.40695(15) 0.40895(16) 0.25653(18)
C7_4 C 0.34909(14) 0.38115(14) 0.25023(17)
H3_4 H 0.3330 0.3764 0.2110
C8_4 C 0.44182(15) 0.43543(16) 0.19957(19)
C9_4 C 0.4227(2) 0.4004(2) 0.4327(2)
C10_4 C 0.4865(2) 0.4369(3) 0.4327(3)
H4_4 H 0.4970 0.4732 0.4153
H5_4 H 0.5025 0.4192 0.4082
H6_4 H 0.5003 0.4416 0.4745
C11_4 C 0.3992(3) 0.4298(3) 0.4750(3)
H7_4 H 0.4101 0.4664 0.4585
H8_4 H 0.4142 0.4336 0.5162
H9_4 H 0.3588 0.4075 0.4764
C12_4 C 0.4052(3) 0.3439(3) 0.4594(3)
H10_4 H 0.3648 0.3214 0.4591
H11_4 H 0.4186 0.3481 0.5014
H12_4 H 0.4208 0.3257 0.4351
C13_4 C 0.26509(16) 0.45968(16) 0.2312(2)
H13_4 H 0.2831 0.4391 0.2237
C14_4 C 0.29783(16) 0.51773(16) 0.2330(2)
H14_4 H 0.3367 0.5354 0.2279
C15_4 C 0.27160(15) 0.54910(15) 0.24261(17)
C16_4 C 0.21337(17) 0.52006(18) 0.2504(2)
H15_4 H 0.1940 0.5395 0.2565
C17_4 C 0.18497(17) 0.46200(18) 0.2488(3)
H16_4 H 0.1461 0.4430 0.2548
C18_4 C 0.30430(15) 0.61156(15) 0.24375(17)
C19_4 C 0.05119(17) 0.20169(18) 0.2679(2)
H17_4 H 0.0313 0.2196 0.2796
C20_4 C 0.02352(17) 0.14393(17) 0.2680(2)
C21_4 C 0.05204(16) 0.11726(16) 0.2509(2)
C22_4 C 0.1074(2) 0.1491(2) 0.2326(3)
H19_4 H 0.1275 0.1319 0.2194
C23_4 C 0.1324(2) 0.2069(2) 0.2341(3)
H20_4 H 0.1700 0.2284 0.2222
C24_4 C 0.02440(16) 0.05462(16) 0.2519(2)
N1_4 N 0.10510(13) 0.23346(13) 0.25177(17)
N2_4 N 0.20975(13) 0.43144(13) 0.23929(16)
N3_4 N 0.27545(13) 0.63914(13) 0.24407(15)
O2_4 O 0.23558(10) 0.33276(11) 0.23845(13)
C25_4 C 0.54032(16) 0.80541(23) 0.2312(2)
H21_4 H 0.5609 0.8440 0.2237
C26_4 C 0.48227(16) 0.78010(23) 0.2330(2)
H22_4 H 0.4646 0.8013 0.2279
C27_4 C 0.45090(15) 0.72250(21) 0.24261(17)
C28_4 C 0.47994(18) 0.69331(25) 0.2504(2)
H23_4 H 0.4605 0.6545 0.2565
C29_4 C 0.53800(18) 0.72297(25) 0.2488(3)
H24_4 H 0.5570 0.7031 0.2548
C30_4 C 0.38844(15) 0.69274(21) 0.24375(17)
N5_4 N 0.56856(13) 0.77831(18) 0.23929(16)
N6_4 N 0.36086(13) 0.63631(18) 0.24407(15)
C31_4 C 0.19459(23) 0.73491(16) 0.2312(2)
H25_4 H 0.1560 0.7169 0.2237
C32_4 C 0.21990(23) 0.70217(16) 0.2330(2)
H26_4 H 0.1987 0.6633 0.2279
C33_4 C 0.27750(21) 0.72840(15) 0.24261(17)
C34_4 C 0.30669(25) 0.78663(17) 0.2504(2)
H27_4 H 0.3455 0.8060 0.2565
C35_4 C 0.27703(25) 0.81503(17) 0.2488(3)
H28_4 H 0.2969 0.8539 0.2548
C36_4 C 0.30726(21) 0.69570(15) 0.24375(17)
N7_4 N 0.22169(18) 0.79025(13) 0.23929(16)
N8_4 N 0.36369(18) 0.72455(13) 0.24407(15)
H34_4 H 0.1375 0.0142 0.2796
N12_4 N 0.05756(19) 0.03212(13) 0.25208(18)
C49_4 C 0.66357(13) 0.91618(19) 0.29356(19)
C50_4 C 0.63982(14) 0.95455(20) 0.30223(17)
C51_4 C 0.63376(16) 0.97270(22) 0.36048(18)
H37_4 H 0.6481 0.9640 0.3953
C54_4 C 0.59105(16) 0.99800(22) 0.25653(18)
C55_4 C 0.61885(14) 0.96794(20) 0.25023(17)
H39_4 H 0.6236 0.9566 0.2110
C59_4 C 0.5702(3) 0.9694(4) 0.4750(3)
H43_4 H 0.5336 0.9437 0.4585
H44_4 H 0.5664 0.9806 0.5162
H45_4 H 0.5925 0.9513 0.4764
O6_4 O 0.66724(11) 0.90282(15) 0.23845(13)
C61_4 C 0.08382(19) 0.74739(14) 0.29356(19)
C62_4 C 0.04545(20) 0.68527(14) 0.30223(17)
C63_4 C 0.02730(22) 0.66106(15) 0.36048(18)
H49_4 H 0.0360 0.6841 0.3953
C66_4 C 0.00200(22) 0.59305(15) 0.25653(18)
C67_4 C 0.03206(20) 0.65091(14) 0.25023(17)
H51_4 H 0.0434 0.6670 0.2110
C71_4 C 0.0306(4) 0.6008(3) 0.4750(3)
H55_4 H 0.0563 0.5899 0.4585
H56_4 H 0.0194 0.5858 0.5162
H57_4 H 0.0487 0.6412 0.4764
O10_4 O 0.09718(15) 0.76442(10) 0.23845(13)
N13 N 0.76654(13) 0.87164(18) 0.25177(17)
N14 N 0.12836(18) 0.89490(13) 0.25177(17)
C43_4 C 0.15050(25) 0.94881(17) 0.2679(2)
H33_4 H 0.1883 0.9687 0.2796
C44_4 C 0.12041(24) 0.97648(17) 0.2680(2)
C45_4 C 0.06522(23) 0.94796(16) 0.2509(2)
C46_4 C 0.0417(3) 0.8926(2) 0.2326(3)
H35_4 H 0.0044 0.8725 0.2194
C47_4 C 0.0745(3) 0.8676(2) 0.2341(3)
H36_4 H 0.0584 0.8300 0.2222
C48_4 C 0.03022(23) 0.97560(16) 0.2519(2)
H18_4 H 0.9858 0.1233 0.2796
N4_4 N 0.96788(13) 0.02544(14) 0.25208(18)
C64_4 C 0.99603(25) 0.60223(17) 0.36756(19)
C65_4 C 0.98418(24) 0.56895(16) 0.3147(2)
H50_4 H 0.9640 0.5299 0.3185
C68_4 C 0.99361(22) 0.55818(15) 0.19957(19)
C69_4 C 0.9777(3) 0.5773(2) 0.4327(2)
C70_4 C 0.9504(4) 0.5135(2) 0.4327(3)
H52_4 H 0.9762 0.5030 0.4153
H53_4 H 0.9167 0.4975 0.4082
H54_4 H 0.9413 0.4997 0.4745
C72_4 C 0.9387(4) 0.5948(3) 0.4594(3)
H58_4 H 0.9566 0.6352 0.4591
H59_4 H 0.9295 0.5814 0.5014
H60_4 H 0.9049 0.5792 0.4351
C37_4 C 0.79831(18) 0.84950(25) 0.2679(2)
H29_4 H 0.7804 0.8117 0.2796
C38_4 C 0.85607(17) 0.87959(24) 0.2680(2)
H30_4 H 0.8767 0.8625 0.2796
C39_4 C 0.88274(16) 0.93478(23) 0.2509(2)
C40_4 C 0.8509(2) 0.9583(3) 0.2326(3)
H31_4 H 0.8681 0.9956 0.2194
C41_4 C 0.7931(2) 0.9255(3) 0.2341(3)
H32_4 H 0.7716 0.9416 0.2222
C42_4 C 0.94538(16) 0.96978(23) 0.2519(2)
N10_4 N 0.97456(14) 0.94244(19) 0.25208(18)
H46_5 H 0.0119 0.7101 0.1258
H48_5 H 0.0076 0.7618 0.1018
O6_5 O 0.00057(11) 0.56949(15) 0.90512(13)
N13_2 N 0.09987(13) 0.53831(18) 0.91844(17)
C3_5 C 0.67227(15) 0.03291(16) 0.02715(18)
H1_5 H 0.6492 0.0186 0.0620
C4_5 C 0.73110(17) 0.06047(18) 0.03423(19)
C9_5 C 0.7560(2) 0.0671(2) 0.0994(2)
C10_5 C 0.8198(2) 0.1036(3) 0.0994(3)
H4_5 H 0.8303 0.1399 0.0820
H5_5 H 0.8358 0.0859 0.0749
H6_5 H 0.8336 0.1083 0.1412
C11_5 C 0.7325(3) 0.0965(3) 0.1417(3)
H7_5 H 0.7434 0.1331 0.1252
H8_5 H 0.7475 0.1003 0.1829
H9_5 H 0.6921 0.0742 0.1431
C12_5 C 0.7385(3) 0.0106(3) 0.1261(3)
H11_5 H 0.7519 0.0148 0.1681
C51_5 C 0.96709(16) 0.63937(22) 0.02715(18)
H37_5 H 0.9814 0.6307 0.0620
C52_5 C 0.93953(18) 0.67064(25) 0.03423(19)
C57_5 C 0.9329(2) 0.6890(3) 0.0994(2)
C58_5 C 0.8964(3) 0.7163(4) 0.0994(3)
H40_5 H 0.8601 0.6905 0.0820
H41_5 H 0.9141 0.7500 0.0749
H42_5 H 0.8917 0.7254 0.1412
C59_5 C 0.9035(3) 0.6361(4) 0.1417(3)
H43_5 H 0.8669 0.6104 0.1252
H44_5 H 0.8997 0.6473 0.1829
H45_5 H 0.9258 0.6180 0.1431
C60_5 C 0.9894(3) 0.7280(4) 0.1261(3)
H47_5 H 0.9852 0.7372 0.1681
C63_5 C 0.36063(22) 0.32773(15) 0.02715(18)
H49_5 H 0.3693 0.3508 0.0620
C64_5 C 0.32936(25) 0.26890(17) 0.03423(19)
C69_5 C 0.3110(3) 0.2440(2) 0.0994(2)
C70_5 C 0.2837(4) 0.1802(2) 0.0994(3)
H52_5 H 0.3095 0.1697 0.0820
H53_5 H 0.2500 0.1642 0.0749
H54_5 H 0.2746 0.1664 0.1412
C71_5 C 0.3639(4) 0.2675(3) 0.1417(3)
H55_5 H 0.3896 0.2566 0.1252
H56_5 H 0.3527 0.2525 0.1829
H57_5 H 0.3820 0.3079 0.1431
C72_5 C 0.2720(4) 0.2615(3) 0.1261(3)
H58_5 H 0.2899 0.3019 0.1258
H59_5 H 0.2628 0.2481 0.1681
H60_5 H 0.2382 0.2459 0.1018
C1_5 C 0.58594(14) 0.00310(13) 0.96023(19)
C2_5 C 0.64806(14) 0.02685(14) 0.96890(17)
C5_5 C 0.76438(16) 0.08190(18) 0.9814(2)
H2_5 H 0.8034 0.1008 0.9852
C6_5 C 0.74028(15) 0.07562(16) 0.92320(18)
C7_5 C 0.68242(14) 0.04782(14) 0.91690(17)
H3_5 H 0.6663 0.0431 0.8777
C8_5 C 0.77515(15) 0.10210(16) 0.86624(19)
C13_5 C 0.59842(16) 0.12635(16) 0.8979(2)
H13_5 H 0.6164 0.1058 0.8904
C14_5 C 0.63116(16) 0.18440(16) 0.8997(2)
H14_5 H 0.6700 0.2021 0.8946
C15_5 C 0.60493(15) 0.21577(15) 0.90928(17)
C16_5 C 0.54670(17) 0.18673(18) 0.9171(2)
H15_5 H 0.5273 0.2062 0.9232
C17_5 C 0.51830(17) 0.12867(18) 0.9155(3)
H16_5 H 0.4794 0.1097 0.9215
C18_5 C 0.63763(15) 0.27823(15) 0.91042(17)
N2_5 N 0.54308(13) 0.09811(13) 0.90596(16)
N3_5 N 0.60878(13) 0.30581(13) 0.91074(15)
C25_5 C 0.87365(16) 0.47208(23) 0.8979(2)
H21_5 H 0.8942 0.5107 0.8904
C26_5 C 0.81560(16) 0.44677(23) 0.8997(2)
H22_5 H 0.7979 0.4680 0.8946
C27_5 C 0.78423(15) 0.38917(21) 0.90928(17)
C28_5 C 0.81327(18) 0.35998(25) 0.9171(2)
H23_5 H 0.7938 0.3212 0.9232
C29_5 C 0.87133(18) 0.38964(25) 0.9155(3)
H24_5 H 0.8903 0.3698 0.9215
C30_5 C 0.72177(15) 0.35941(21) 0.91042(17)
N5_5 N 0.90189(13) 0.44498(18) 0.90596(16)
N6_5 N 0.69419(13) 0.30298(18) 0.91074(15)
C31_5 C 0.52792(23) 0.40158(16) 0.8979(2)
H25_5 H 0.4893 0.3836 0.8904
C32_5 C 0.55323(23) 0.36884(16) 0.8997(2)
H26_5 H 0.5320 0.3300 0.8946
C33_5 C 0.61083(21) 0.39507(15) 0.90928(17)
C34_5 C 0.64002(25) 0.45330(17) 0.9171(2)
H27_5 H 0.6788 0.4727 0.9232
C35_5 C 0.61036(25) 0.48170(17) 0.9155(3)
H28_5 H 0.6302 0.5206 0.9215
C36_5 C 0.64059(21) 0.36237(15) 0.91042(17)
N7_5 N 0.55502(18) 0.45692(13) 0.90596(16)
N8_5 N 0.69702(18) 0.39122(13) 0.91074(15)
C49_5 C 0.99690(13) 0.58285(19) 0.96023(19)
C50_5 C 0.97315(14) 0.62122(20) 0.96890(17)
C53_5 C 0.91810(18) 0.68249(24) 0.9814(2)
H38_5 H 0.8992 0.7027 0.9852
C54_5 C 0.92438(16) 0.66467(22) 0.92320(18)
C55_5 C 0.95218(14) 0.63461(20) 0.91690(17)
H39_5 H 0.9569 0.6233 0.8777
C56_5 C 0.89790(16) 0.67306(22) 0.86624(19)
C61_5 C 0.41715(19) 0.41406(14) 0.96023(19)
C62_5 C 0.37878(20) 0.35194(14) 0.96890(17)
C65_5 C 0.31751(24) 0.23562(16) 0.9814(2)
H50_5 H 0.2973 0.1966 0.9852
C66_5 C 0.33533(22) 0.25972(15) 0.92320(18)
C67_5 C 0.36539(20) 0.31758(14) 0.91690(17)
H51_5 H 0.3767 0.3337 0.8777
C68_5 C 0.32694(22) 0.22485(15) 0.86624(19)
O10_5 O 0.43051(15) 0.43109(10) 0.90512(13)
N14_2 N 0.46169(18) 0.56157(13) 0.91844(17)
H10_5 H 0.6981 0.9881 0.1258
H12_5 H 0.7541 0.9924 0.1018
C19_5 C 0.38452(17) 0.86836(18) 0.9346(2)
H17_5 H 0.3646 0.8863 0.9463
C20_5 C 0.35685(17) 0.81060(17) 0.9347(2)
H18_5 H 0.3191 0.7900 0.9463
C21_5 C 0.38537(16) 0.78393(16) 0.9176(2)
C22_5 C 0.4407(2) 0.8158(2) 0.8993(3)
H19_5 H 0.4608 0.7986 0.8861
C23_5 C 0.4657(2) 0.8736(2) 0.9008(3)
H20_5 H 0.5033 0.8951 0.8889
C24_5 C 0.35773(16) 0.72129(16) 0.9186(2)
N1_5 N 0.43843(13) 0.90013(13) 0.91844(17)
N4_5 N 0.30121(13) 0.69211(14) 0.91875(18)
O2_5 O 0.56891(10) 0.99943(11) 0.90512(13)
C37_5 C 0.13164(18) 0.51617(25) 0.9346(2)
H29_5 H 0.1137 0.4784 0.9463
C38_5 C 0.18940(17) 0.54626(24) 0.9347(2)
H30_5 H 0.2100 0.5292 0.9463
C39_5 C 0.21607(16) 0.60145(23) 0.9176(2)
C40_5 C 0.1842(2) 0.6250(3) 0.8993(3)
H31_5 H 0.2014 0.6623 0.8861
C41_5 C 0.1264(2) 0.5922(3) 0.9008(3)
H32_5 H 0.1049 0.6083 0.8889
C42_5 C 0.27871(16) 0.63645(23) 0.9186(2)
N10_5 N 0.30789(14) 0.60911(19) 0.91875(18)
C43_5 C 0.48383(25) 0.61548(17) 0.9346(2)
H33_5 H 0.5216 0.6354 0.9463
C44_5 C 0.45374(24) 0.64315(17) 0.9347(2)
H34_5 H 0.4708 0.6809 0.9463
C45_5 C 0.39855(23) 0.61463(16) 0.9176(2)
C46_5 C 0.3750(3) 0.5593(2) 0.8993(3)
H35_5 H 0.3377 0.5392 0.8861
C47_5 C 0.4078(3) 0.5343(2) 0.9008(3)
H36_5 H 0.3917 0.4967 0.8889
C48_5 C 0.36355(23) 0.64227(16) 0.9186(2)
N12_5 N 0.39089(19) 0.69879(13) 0.91875(18)
C25_6 C 0.20699(16) 0.13874(23) 0.5645(2)
H21_6 H 0.2276 0.1773 0.5570
C26_6 C 0.14894(16) 0.11343(23) 0.5663(2)
H22_6 H 0.1313 0.1346 0.5612
C27_6 C 0.11757(15) 0.05583(21) 0.57594(17)
C28_6 C 0.14661(18) 0.02664(25) 0.5837(2)
C29_6 C 0.20467(18) 0.05630(25) 0.5821(3)
H24_6 H 0.2237 0.0364 0.5881
C30_6 C 0.05511(15) 0.02607(21) 0.57708(17)
N5_6 N 0.23523(13) 0.11164(18) 0.57262(16)
H27_6 H 0.0122 0.1393 0.5898
N8_6 N 0.03036(18) 0.05788(13) 0.57740(15)
C49_6 C 0.33024(13) 0.24951(19) 0.62689(19)
C50_6 C 0.30649(14) 0.28788(20) 0.63556(17)
C51_6 C 0.30043(16) 0.30603(22) 0.69381(18)
H37_6 H 0.3148 0.2973 0.7286
C52_6 C 0.27287(18) 0.33730(25) 0.70089(19)
C53_6 C 0.25144(18) 0.34915(24) 0.6480(2)
H38_6 H 0.2326 0.3693 0.6518
C54_6 C 0.25772(16) 0.33133(22) 0.58986(18)
C55_6 C 0.28552(14) 0.30127(20) 0.58356(17)
H39_6 H 0.2903 0.2899 0.5443
C56_6 C 0.23124(16) 0.33972(22) 0.53290(19)
C57_6 C 0.2663(2) 0.3556(3) 0.7660(2)
C58_6 C 0.2298(3) 0.3829(4) 0.7660(3)
H40_6 H 0.1935 0.3571 0.7486
H41_6 H 0.2475 0.4166 0.7415
H42_6 H 0.2251 0.3920 0.8078
C59_6 C 0.2369(3) 0.3027(4) 0.8083(3)
H43_6 H 0.2003 0.2770 0.7918
H44_6 H 0.2331 0.3139 0.8495
H45_6 H 0.2592 0.2846 0.8097
C60_6 C 0.3228(3) 0.3946(4) 0.7927(3)
H46_6 H 0.3453 0.3767 0.7924
H47_6 H 0.3186 0.4038 0.8347
H48_6 H 0.3410 0.4284 0.7684
O6_6 O 0.33391(11) 0.23615(15) 0.57178(13)
N13_3 N 0.43321(13) 0.20497(18) 0.58510(17)
C3_6 C 0.00561(15) 0.69957(16) 0.69381(18)
C4_6 C 0.06444(17) 0.72713(18) 0.70089(19)
C5_6 C 0.09772(16) 0.74856(18) 0.6480(2)
H2_6 H 0.1368 0.7674 0.6518
C6_6 C 0.07362(15) 0.74228(16) 0.58986(18)
C7_6 C 0.01576(14) 0.71448(14) 0.58356(17)
C8_6 C 0.10849(15) 0.76876(16) 0.53290(19)
C9_6 C 0.0894(2) 0.7337(2) 0.7660(2)
C10_6 C 0.1532(2) 0.7702(3) 0.7660(3)
H4_6 H 0.1637 0.8065 0.7486
H5_6 H 0.1692 0.7525 0.7415
H6_6 H 0.1670 0.7749 0.8078
C11_6 C 0.0659(3) 0.7631(3) 0.8083(3)
H7_6 H 0.0768 0.7997 0.7918
H8_6 H 0.0809 0.7669 0.8495
H9_6 H 0.0255 0.7408 0.8097
C12_6 C 0.0719(3) 0.6772(3) 0.7927(3)
H10_6 H 0.0315 0.6547 0.7924
H11_6 H 0.0853 0.6814 0.8347
H12_6 H 0.0875 0.6590 0.7684
H14_6 H 0.0034 0.8687 0.5612
H23_6 H 0.1272 0.9878 0.5898
N6_6 N 0.02753(13) 0.96964(18) 0.57740(15)
C31_6 C 0.86126(23) 0.06824(16) 0.5645(2)
H25_6 H 0.8227 0.0502 0.5570
C32_6 C 0.88657(23) 0.03550(16) 0.5663(2)
C33_6 C 0.94417(21) 0.06173(15) 0.57594(17)
C34_6 C 0.97336(25) 0.11996(17) 0.5837(2)
C35_6 C 0.94370(25) 0.14836(17) 0.5821(3)
H28_6 H 0.9636 0.1872 0.5881
C36_6 C 0.97393(21) 0.02903(15) 0.57708(17)
N7_6 N 0.88836(18) 0.12358(13) 0.57262(16)
C61_6 C 0.75049(19) 0.08072(14) 0.62689(19)
C62_6 C 0.71212(20) 0.01860(14) 0.63556(17)
H49_6 H 0.7027 0.0174 0.7286
H51_6 H 0.7101 0.0003 0.5443
O10_6 O 0.76385(15) 0.09775(10) 0.57178(13)
N14_3 N 0.79503(18) 0.22823(13) 0.58510(17)
C1_6 C 0.91928(14) 0.66976(13) 0.62689(19)
C2_6 C 0.98140(14) 0.69351(14) 0.63556(17)
H1_6 H 0.9826 0.6852 0.7286
H3_6 H 0.9997 0.7097 0.5443
C13_6 C 0.93176(16) 0.79301(16) 0.5645(2)
H13_6 H 0.9498 0.7724 0.5570
C14_6 C 0.96450(16) 0.85106(16) 0.5663(2)
C15_6 C 0.93827(15) 0.88243(15) 0.57594(17)
C16_6 C 0.88004(17) 0.85339(18) 0.5837(2)
H15_6 H 0.8607 0.8728 0.5898
C17_6 C 0.85164(17) 0.79533(18) 0.5821(3)
H16_6 H 0.8128 0.7763 0.5881
C18_6 C 0.97097(15) 0.94489(15) 0.57708(17)
C19_6 C 0.71786(17) 0.53502(18) 0.6012(2)
H17_6 H 0.6980 0.5529 0.6129
C20_6 C 0.69019(17) 0.47726(17) 0.6013(2)
H18_6 H 0.6525 0.4566 0.6129
C21_6 C 0.71871(16) 0.45059(16) 0.5842(2)
C22_6 C 0.7741(2) 0.4824(2) 0.5659(3)
H19_6 H 0.7942 0.4652 0.5527
C23_6 C 0.7991(2) 0.5402(2) 0.5674(3)
H20_6 H 0.8367 0.5617 0.5555
C24_6 C 0.69107(16) 0.38795(16) 0.5852(2)
N1_6 N 0.77177(13) 0.56679(13) 0.58510(17)
N2_6 N 0.87642(13) 0.76477(13) 0.57262(16)
N3_6 N 0.94212(13) 0.97247(13) 0.57740(15)
N4_6 N 0.63455(13) 0.35877(14) 0.58541(18)
O2_6 O 0.90225(10) 0.66609(11) 0.57178(13)
H26_6 H 0.8654 0.9966 0.5612
C37_6 C 0.46498(18) 0.18283(25) 0.6012(2)
H29_6 H 0.4471 0.1450 0.6129
C38_6 C 0.52274(17) 0.21292(24) 0.6013(2)
H30_6 H 0.5434 0.1958 0.6129
C39_6 C 0.54941(16) 0.26811(23) 0.5842(2)
C40_6 C 0.5176(2) 0.2916(3) 0.5659(3)
H31_6 H 0.5348 0.3289 0.5527
C41_6 C 0.4598(2) 0.2588(3) 0.5674(3)
H32_6 H 0.4383 0.2749 0.5555
C42_6 C 0.61205(16) 0.30311(23) 0.5852(2)
N10_6 N 0.64123(14) 0.27577(19) 0.58541(18)
C43_6 C 0.81717(25) 0.28214(17) 0.6012(2)
H33_6 H 0.8550 0.3020 0.6129
C44_6 C 0.78708(24) 0.30981(17) 0.6013(2)
H34_6 H 0.8042 0.3475 0.6129
C45_6 C 0.73189(23) 0.28129(16) 0.5842(2)
C46_6 C 0.7084(3) 0.2259(2) 0.5659(3)
H35_6 H 0.6711 0.2058 0.5527
C47_6 C 0.7412(3) 0.2009(2) 0.5674(3)
H36_6 H 0.7251 0.1633 0.5555
C48_6 C 0.69689(23) 0.30893(16) 0.5852(2)
N12_6 N 0.72423(19) 0.36545(13) 0.58541(18)
C63_6 C 0.69397(22) 0.99439(15) 0.69381(18)
C64_6 C 0.66270(25) 0.93556(17) 0.70089(19)
C65_6 C 0.65085(24) 0.90228(16) 0.6480(2)
H50_6 H 0.6307 0.8632 0.6518
C66_6 C 0.66867(22) 0.92638(15) 0.58986(18)
C67_6 C 0.69873(20) 0.98424(14) 0.58356(17)
C68_6 C 0.66028(22) 0.89151(15) 0.53290(19)
C69_6 C 0.6444(3) 0.9106(2) 0.7660(2)
C70_6 C 0.6171(4) 0.8468(2) 0.7660(3)
H52_6 H 0.6429 0.8363 0.7486
H53_6 H 0.5834 0.8308 0.7415
H54_6 H 0.6080 0.8330 0.8078
C71_6 C 0.6973(4) 0.9341(3) 0.8083(3)
H55_6 H 0.7230 0.9232 0.7918
H56_6 H 0.6861 0.9191 0.8495
H57_6 H 0.7154 0.9745 0.8097
C72_6 C 0.6054(4) 0.9281(3) 0.7927(3)
H58_6 H 0.6233 0.9685 0.7924
H59_6 H 0.5962 0.9147 0.8347
H60_6 H 0.5716 0.9125 0.7684
loop_
_geom_bond_atom_site_label_1
_geom_bond_atom_site_label_2
_geom_bond_site_symmetry_1
_geom_bond_site_symmetry_2
C37 H29 1_555 1_555
C38 C37 1_555 1_555
H30 C38 1_555 1_555
C39 C38 1_555 1_555
C40 C39 1_555 1_555
H31 C40 1_555 1_555
C41 C40 1_555 1_555
H32 C41 1_555 1_555
N9 C37 1_555 1_555
N10 C42 1_555 1_555
Cd4 N9 1_555 1_555
C39 C42 1_555 1_555
C41 N9 1_555 1_555
C65 C64 1_555 1_555
H50 C65 1_555 1_555
C69 C64 1_555 1_555
C70 C69 1_555 1_555
H52 C70 1_555 1_555
H53 C70 1_555 1_555
H54 C70 1_555 1_555
C72 C69 1_555 1_555
H58 C72 1_555 1_555
H59 C72 1_555 1_555
H60 C72 1_555 1_555
O11 C68 1_555 1_555
Cd10 O11 1_555 1_555
C43 H33 1_555 1_555
C44 C43 1_555 1_555
C45 C44 1_555 1_555
C46 C45 1_555 1_555
H35 C46 1_555 1_555
C47 C46 1_555 1_555
H36 C47 1_555 1_555
N11 C43 1_555 1_555
Cd5 N11 1_555 1_555
C45 C48 1_555 1_555
C47 N11 1_555 1_555
C1 C2 1_555 1_555
C2 C3 1_555 1_555
C3 H1 1_555 1_555
C4 C3 1_555 1_555
C5 C4 1_555 1_555
H2 C5 1_555 1_555
C6 C5 1_555 1_555
C7 C2 1_555 1_555
H3 C7 1_555 1_555
C8 C6 1_555 1_555
C9 C4 1_555 1_555
C10 C9 1_555 1_555
H4 C10 1_555 1_555
H5 C10 1_555 1_555
H6 C10 1_555 1_555
C11 C9 1_555 1_555
H7 C11 1_555 1_555
H8 C11 1_555 1_555
H9 C11 1_555 1_555
C12 C9 1_555 1_555
H10 C12 1_555 1_555
H11 C12 1_555 1_555
H12 C12 1_555 1_555
C13 H13 1_555 1_555
C14 C13 1_555 1_555
H14 C14 1_555 1_555
C15 C14 1_555 1_555
C16 C15 1_555 1_555
H15 C16 1_555 1_555
C17 C16 1_555 1_555
H16 C17 1_555 1_555
C18 C15 1_555 1_555
C19 H17 1_555 1_555
C20 C19 1_555 1_555
C21 C20 1_555 1_555
C22 C21 1_555 1_555
H19 C22 1_555 1_555
C23 C22 1_555 1_555
H20 C23 1_555 1_555
C24 C21 1_555 1_555
N1 C19 1_555 1_555
N2 C13 1_555 1_555
N3 C18 1_555 1_555
O1 C1 1_555 1_555
O2 C1 1_555 1_555
O3 C8 1_555 1_555
O4 C8 1_555 1_555
Cd1 N1 1_555 1_555
C25 H21 1_555 1_555
C26 C25 1_555 1_555
H22 C26 1_555 1_555
C27 C26 1_555 1_555
C28 C27 1_555 1_555
H23 C28 1_555 1_555
C29 C28 1_555 1_555
H24 C29 1_555 1_555
C30 C27 1_555 1_555
N5 C25 1_555 1_555
N6 C18 1_555 1_555
C31 H25 1_555 1_555
C32 C31 1_555 1_555
H26 C32 1_555 1_555
C33 C32 1_555 1_555
C34 C33 1_555 1_555
H27 C34 1_555 1_555
C35 C34 1_555 1_555
H28 C35 1_555 1_555
C36 N3 1_555 1_555
N7 C31 1_555 1_555
N8 C30 1_555 1_555
N12 C24 1_555 1_555
C49 C50 1_555 1_555
C50 C51 1_555 1_555
C51 H37 1_555 1_555
C55 C50 1_555 1_555
H39 C55 1_555 1_555
H43 C59 1_555 1_555
H44 C59 1_555 1_555
H45 C59 1_555 1_555
O5 C49 1_555 1_555
O6 C49 1_555 1_555
Cd4 N5 1_555 1_555
C61 C62 1_555 1_555
C62 C63 1_555 1_555
C63 H49 1_555 1_555
C67 C62 1_555 1_555
H51 C67 1_555 1_555
H55 C71 1_555 1_555
H56 C71 1_555 1_555
H57 C71 1_555 1_555
O9 C61 1_555 1_555
O10 C61 1_555 1_555
Cd5 N7 1_555 1_555
O13 Cd1 1_555 1_555
O14 Cd4 1_555 1_555
O15 Cd5 1_555 1_555
O16 Cd5 1_555 1_555
O17 Cd1 1_555 1_555
O18 Cd4 1_555 1_555
O19 Cd5 1_555 1_555
O20 Cd1 1_555 1_555
O21 Cd4 1_555 1_555
Cd6 O1 1_555 1_555
Cd7 O5 1_555 1_555
Cd8 O9 1_555 1_555
Cd11 O3 1_555 1_555
C6 C7 1_555 1_555
C17 N2 1_555 1_555
C23 N1 1_555 1_555
N2 Cd1 1_555 1_555
O2 Cd1 1_555 1_555
O4 Cd11 1_555 1_555
C29 N5 1_555 1_555
C30 N6 1_555 1_555
C33 C36 1_555 1_555
C35 N7 1_555 1_555
C36 N8 1_555 1_555
C54 C55 1_555 1_555
O6 Cd4 1_555 1_555
C66 C67 1_555 1_555
O10 Cd5 1_555 1_555
C53 C52 1_555 1_555
H38 C53 1_555 1_555
C57 C52 1_555 1_555
C58 C57 1_555 1_555
H40 C58 1_555 1_555
H41 C58 1_555 1_555
H42 C58 1_555 1_555
C60 C57 1_555 1_555
H46 C60 1_555 1_555
H47 C60 1_555 1_555
H48 C60 1_555 1_555
O7 C56 1_555 1_555
Cd9 O7 1_555 1_555
C19_2 H17_2 1_555 1_555
C20_2 C19_2 1_555 1_555
H18_2 C20_2 1_555 1_555
C21_2 C20_2 1_555 1_555
C22_2 C21_2 1_555 1_555
H19_2 C22_2 1_555 1_555
C23_2 C22_2 1_555 1_555
H20_2 C23_2 1_555 1_555
C24_2 C21_2 1_555 1_555
N1_2 C19_2 1_555 1_555
N4_2 C24_2 1_555 1_555
Cd1_2 N1_2 1_555 1_555
C37_2 H29_2 1_555 1_555
C38_2 C37_2 1_555 1_555
H30_2 C38_2 1_555 1_555
C39_2 C38_2 1_555 1_555
C40_2 C39_2 1_555 1_555
H31_2 C40_2 1_555 1_555
C41_2 C40_2 1_555 1_555
H32_2 C41_2 1_555 1_555
C42_2 N4_2 1_555 1_555
N9_2 C37_2 1_555 1_555
N10_2 C42_2 1_555 1_555
C43_2 H33_2 1_555 1_555
C44_2 C43_2 1_555 1_555
H34_2 C44_2 1_555 1_555
C45_2 C44_2 1_555 1_555
C46_2 C45_2 1_555 1_555
H35_2 C46_2 1_555 1_555
C47_2 C46_2 1_555 1_555
H36_2 C47_2 1_555 1_555
C48_2 N10_2 1_555 1_555
N11_2 C43_2 1_555 1_555
N12_2 C24_2 1_555 1_555
O17_2 Cd1_2 1_555 1_555
Cd4_2 N9_2 1_555 1_555
Cd5_2 N11_2 1_555 1_555
C23_2 N1_2 1_555 1_555
O2_2 Cd1_2 1_555 1_555
C39_2 C42_2 1_555 1_555
C41_2 N9_2 1_555 1_555
C45_2 C48_2 1_555 1_555
C47_2 N11_2 1_555 1_555
C48_2 N12_2 1_555 1_555
C1_2 C2_2 1_555 1_555
H2_2 C5_2 1_555 1_555
C6_2 C5_2 1_555 1_555
C7_2 C2_2 1_555 1_555
H3_2 C7_2 1_555 1_555
C8_2 C6_2 1_555 1_555
C13_2 H13_2 1_555 1_555
C14_2 C13_2 1_555 1_555
H14_2 C14_2 1_555 1_555
C15_2 C14_2 1_555 1_555
C16_2 C15_2 1_555 1_555
H15_2 C16_2 1_555 1_555
C17_2 C16_2 1_555 1_555
H16_2 C17_2 1_555 1_555
C18_2 C15_2 1_555 1_555
N2_2 C13_2 1_555 1_555
N3_2 C18_2 1_555 1_555
O3_2 C8_2 1_555 1_555
O4_2 C8_2 1_555 1_555
C25_2 H21_2 1_555 1_555
C26_2 C25_2 1_555 1_555
H22_2 C26_2 1_555 1_555
C27_2 C26_2 1_555 1_555
C28_2 C27_2 1_555 1_555
H23_2 C28_2 1_555 1_555
C29_2 C28_2 1_555 1_555
H24_2 C29_2 1_555 1_555
C30_2 C27_2 1_555 1_555
N5_2 C25_2 1_555 1_555
N6_2 C18_2 1_555 1_555
C31_2 H25_2 1_555 1_555
C32_2 C31_2 1_555 1_555
H26_2 C32_2 1_555 1_555
C33_2 C32_2 1_555 1_555
C34_2 C33_2 1_555 1_555
H27_2 C34_2 1_555 1_555
C35_2 C34_2 1_555 1_555
H28_2 C35_2 1_555 1_555
C36_2 N3_2 1_555 1_555
N7_2 C31_2 1_555 1_555
N8_2 C30_2 1_555 1_555
C49_2 C50_2 1_555 1_555
H38_2 C53_2 1_555 1_555
C54_2 C53_2 1_555 1_555
C55_2 C50_2 1_555 1_555
H39_2 C55_2 1_555 1_555
C56_2 C54_2 1_555 1_555
O7_2 C56_2 1_555 1_555
O8_2 C56_2 1_555 1_555
C61_2 C62_2 1_555 1_555
H50_2 C65_2 1_555 1_555
C66_2 C65_2 1_555 1_555
C67_2 C62_2 1_555 1_555
H51_2 C67_2 1_555 1_555
C68_2 C66_2 1_555 1_555
O10_2 C61_2 1_555 1_555
O11_2 C68_2 1_555 1_555
O12_2 C68_2 1_555 1_555
Cd5_2 N7_2 1_555 1_555
O15_2 Cd5_2 1_555 1_555
O16_2 Cd5_2 1_555 1_555
O19_2 Cd5_2 1_555 1_555
Cd9_2 O7_2 1_555 1_555
Cd10_2 O11_2 1_555 1_555
Cd11_2 O3_2 1_555 1_555
C6_2 C7_2 1_555 1_555
C17_2 N2_2 1_555 1_555
O4_2 Cd11_2 1_555 1_555
C29_2 N5_2 1_555 1_555
C30_2 N6_2 1_555 1_555
C33_2 C36_2 1_555 1_555
C35_2 N7_2 1_555 1_555
C36_2 N8_2 1_555 1_555
C54_2 C55_2 1_555 1_555
O8_2 Cd9_2 1_555 1_555
C66_2 C67_2 1_555 1_555
O10_2 Cd5_2 1_555 1_555
O12_2 Cd10_2 1_555 1_555
C3_2 H1_2 1_555 1_555
C4_2 C3_2 1_555 1_555
C9_2 C4_2 1_555 1_555
C10_2 C9_2 1_555 1_555
H4_2 C10_2 1_555 1_555
H5_2 C10_2 1_555 1_555
H6_2 C10_2 1_555 1_555
C11_2 C9_2 1_555 1_555
H7_2 C11_2 1_555 1_555
H8_2 C11_2 1_555 1_555
H9_2 C11_2 1_555 1_555
C12_2 C9_2 1_555 1_555
H11_2 C12_2 1_555 1_555
C51_2 H37_2 1_555 1_555
C52_2 C51_2 1_555 1_555
C57_2 C52_2 1_555 1_555
C58_2 C57_2 1_555 1_555
H40_2 C58_2 1_555 1_555
H41_2 C58_2 1_555 1_555
H42_2 C58_2 1_555 1_555
C59_2 C57_2 1_555 1_555
H43_2 C59_2 1_555 1_555
H44_2 C59_2 1_555 1_555
H45_2 C59_2 1_555 1_555
C60_2 C57_2 1_555 1_555
H47_2 C60_2 1_555 1_555
C63_2 H49_2 1_555 1_555
C64_2 C63_2 1_555 1_555
C69_2 C64_2 1_555 1_555
C70_2 C69_2 1_555 1_555
H52_2 C70_2 1_555 1_555
H53_2 C70_2 1_555 1_555
H54_2 C70_2 1_555 1_555
C71_2 C69_2 1_555 1_555
H55_2 C71_2 1_555 1_555
H56_2 C71_2 1_555 1_555
H57_2 C71_2 1_555 1_555
C72_2 C69_2 1_555 1_555
H58_2 C72_2 1_555 1_555
H59_2 C72_2 1_555 1_555
H60_2 C72_2 1_555 1_555
Cd11 O9_2 1_555 1_555
O18_2 Cd4_2 1_555 1_555
O6_2 Cd4_2 1_555 1_555
C1_3 C2_3 1_555 1_555
C13_3 H13_3 1_555 1_555
C14_3 C13_3 1_555 1_555
C15_3 C14_3 1_555 1_555
C16_3 C15_3 1_555 1_555
H15_3 C16_3 1_555 1_555
C17_3 C16_3 1_555 1_555
H16_3 C17_3 1_555 1_555
C18_3 C15_3 1_555 1_555
C19_3 H17_3 1_555 1_555
C20_3 C19_3 1_555 1_555
H18_3 C20_3 1_555 1_555
C21_3 C20_3 1_555 1_555
C22_3 C21_3 1_555 1_555
H19_3 C22_3 1_555 1_555
C23_3 C22_3 1_555 1_555
H20_3 C23_3 1_555 1_555
C24_3 C21_3 1_555 1_555
N1_3 C19_3 1_555 1_555
N2_3 C13_3 1_555 1_555
N3_3 C18_3 1_555 1_555
N4_3 C24_3 1_555 1_555
O1_3 C1_3 1_555 1_555
O2_3 C1_3 1_555 1_555
Cd1_3 N1_3 1_555 1_555
C37_3 H29_3 1_555 1_555
C38_3 C37_3 1_555 1_555
H30_3 C38_3 1_555 1_555
C39_3 C38_3 1_555 1_555
C40_3 C39_3 1_555 1_555
H31_3 C40_3 1_555 1_555
C41_3 C40_3 1_555 1_555
H32_3 C41_3 1_555 1_555
C42_3 N4_3 1_555 1_555
N9_3 C37_3 1_555 1_555
N10_3 C42_3 1_555 1_555
C43_3 H33_3 1_555 1_555
C44_3 C43_3 1_555 1_555
H34_3 C44_3 1_555 1_555
C45_3 C44_3 1_555 1_555
C46_3 C45_3 1_555 1_555
H35_3 C46_3 1_555 1_555
C47_3 C46_3 1_555 1_555
H36_3 C47_3 1_555 1_555
C48_3 N10_3 1_555 1_555
N11_3 C43_3 1_555 1_555
N12_3 C24_3 1_555 1_555
C64_3 C63_3 1_555 1_555
C65_3 C64_3 1_555 1_555
H50_3 C65_3 1_555 1_555
C66_3 C65_3 1_555 1_555
C68_3 C66_3 1_555 1_555
C69_3 C64_3 1_555 1_555
C70_3 C69_3 1_555 1_555
H52_3 C70_3 1_555 1_555
H53_3 C70_3 1_555 1_555
H54_3 C70_3 1_555 1_555
C71_3 C69_3 1_555 1_555
H55_3 C71_3 1_555 1_555
H56_3 C71_3 1_555 1_555
H57_3 C71_3 1_555 1_555
C72_3 C69_3 1_555 1_555
H58_3 C72_3 1_555 1_555
H59_3 C72_3 1_555 1_555
H60_3 C72_3 1_555 1_555
O11_3 C68_3 1_555 1_555
O12_3 C68_3 1_555 1_555
O13_3 Cd1_3 1_555 1_555
O17_3 Cd1_3 1_555 1_555
O20_3 Cd1_3 1_555 1_555
Cd4_3 N9_3 1_555 1_555
Cd5_3 N11_3 1_555 1_555
Cd9_2 O1_3 1_555 1_555
Cd7 O11_3 1_555 1_555
C17_3 N2_3 1_555 1_555
C23_3 N1_3 1_555 1_555
N2_3 Cd1_3 1_555 1_555
O2_3 Cd1_3 1_555 1_555
C39_3 C42_3 1_555 1_555
C41_3 N9_3 1_555 1_555
C45_3 C48_3 1_555 1_555
C47_3 N11_3 1_555 1_555
C48_3 N12_3 1_555 1_555
C66_3 C67_3 1_555 1_555
O12_3 Cd7 1_555 1_555
C31_3 H25_3 1_555 1_555
C32_3 C31_3 1_555 1_555
C33_3 C32_3 1_555 1_555
C34_3 C33_3 1_555 1_555
C35_3 C34_3 1_555 1_555
H28_3 C35_3 1_555 1_555
N7_3 C31_3 1_555 1_555
C61_3 C62_3 1_555 1_555
O9_3 C61_3 1_555 1_555
O10_3 C61_3 1_555 1_555
Cd5_3 N7_3 1_555 1_555
O15_3 Cd5_3 1_555 1_555
O16_3 Cd5_3 1_555 1_555
O19_3 Cd5_3 1_555 1_555
Cd11_2 O9_3 1_555 1_555
C33_3 C36_3 1_555 1_555
C35_3 N7_3 1_555 1_555
O10_3 Cd5_3 1_555 1_555
C4_3 C3_3 1_555 1_555
C5_3 C4_3 1_555 1_555
H2_3 C5_3 1_555 1_555
C6_3 C5_3 1_555 1_555
C8_3 C6_3 1_555 1_555
C9_3 C4_3 1_555 1_555
C10_3 C9_3 1_555 1_555
H4_3 C10_3 1_555 1_555
H5_3 C10_3 1_555 1_555
H6_3 C10_3 1_555 1_555
C11_3 C9_3 1_555 1_555
H7_3 C11_3 1_555 1_555
H8_3 C11_3 1_555 1_555
H9_3 C11_3 1_555 1_555
C12_3 C9_3 1_555 1_555
H10_3 C12_3 1_555 1_555
H11_3 C12_3 1_555 1_555
H12_3 C12_3 1_555 1_555
O3_3 C8_3 1_555 1_555
O4_3 C8_3 1_555 1_555
Cd8 O3_3 1_555 1_555
C6_3 C7_3 1_555 1_555
O4_3 Cd8 1_555 1_555
C25_3 H21_3 1_555 1_555
C26_3 C25_3 1_555 1_555
H22_3 C26_3 1_555 1_555
C27_3 C26_3 1_555 1_555
C28_3 C27_3 1_555 1_555
C29_3 C28_3 1_555 1_555
H24_3 C29_3 1_555 1_555
C30_3 C27_3 1_555 1_555
N5_3 C25_3 1_555 1_555
N8_3 C30_3 1_555 1_555
C49_3 C50_3 1_555 1_555
C50_3 C51_3 1_555 1_555
C51_3 H37_3 1_555 1_555
C52_3 C51_3 1_555 1_555
C53_3 C52_3 1_555 1_555
H38_3 C53_3 1_555 1_555
C54_3 C53_3 1_555 1_555
C55_3 C50_3 1_555 1_555
H39_3 C55_3 1_555 1_555
C56_3 C54_3 1_555 1_555
C57_3 C52_3 1_555 1_555
C58_3 C57_3 1_555 1_555
H40_3 C58_3 1_555 1_555
H41_3 C58_3 1_555 1_555
H42_3 C58_3 1_555 1_555
C59_3 C57_3 1_555 1_555
H43_3 C59_3 1_555 1_555
H44_3 C59_3 1_555 1_555
H45_3 C59_3 1_555 1_555
C60_3 C57_3 1_555 1_555
H46_3 C60_3 1_555 1_555
H47_3 C60_3 1_555 1_555
H48_3 C60_3 1_555 1_555
O5_3 C49_3 1_555 1_555
O6_3 C49_3 1_555 1_555
O7_3 C56_3 1_555 1_555
O8_3 C56_3 1_555 1_555
Cd4_3 N5_3 1_555 1_555
O14_3 Cd4_3 1_555 1_555
O18_3 Cd4_3 1_555 1_555
O21_3 Cd4_3 1_555 1_555
Cd10_2 O5_3 1_555 1_555
Cd6 O7_3 1_555 1_555
C29_3 N5_3 1_555 1_555
C54_3 C55_3 1_555 1_555
O6_3 Cd4_3 1_555 1_555
O8_3 Cd6 1_555 1_555
C53_4 C52_4 1_555 1_555
H38_4 C53_4 1_555 1_555
C57_4 C52_4 1_555 1_555
C58_4 C57_4 1_555 1_555
H40_4 C58_4 1_555 1_555
H41_4 C58_4 1_555 1_555
H42_4 C58_4 1_555 1_555
C60_4 C57_4 1_555 1_555
H46_4 C60_4 1_555 1_555
H47_4 C60_4 1_555 1_555
H48_4 C60_4 1_555 1_555
O17_2 C56_4 1_555 1_555
C1_4 C2_4 1_555 1_555
C2_4 C3_4 1_555 1_555
C3_4 H1_4 1_555 1_555
C4_4 C3_4 1_555 1_555
C5_4 C4_4 1_555 1_555
H2_4 C5_4 1_555 1_555
C6_4 C5_4 1_555 1_555
C7_4 C2_4 1_555 1_555
H3_4 C7_4 1_555 1_555
C8_4 C6_4 1_555 1_555
C9_4 C4_4 1_555 1_555
C10_4 C9_4 1_555 1_555
H4_4 C10_4 1_555 1_555
H5_4 C10_4 1_555 1_555
H6_4 C10_4 1_555 1_555
C11_4 C9_4 1_555 1_555
H7_4 C11_4 1_555 1_555
H8_4 C11_4 1_555 1_555
H9_4 C11_4 1_555 1_555
C12_4 C9_4 1_555 1_555
H10_4 C12_4 1_555 1_555
H11_4 C12_4 1_555 1_555
H12_4 C12_4 1_555 1_555
C13_4 H13_4 1_555 1_555
C14_4 C13_4 1_555 1_555
H14_4 C14_4 1_555 1_555
C15_4 C14_4 1_555 1_555
C16_4 C15_4 1_555 1_555
H15_4 C16_4 1_555 1_555
C17_4 C16_4 1_555 1_555
H16_4 C17_4 1_555 1_555
C18_4 C15_4 1_555 1_555
C19_4 H17_4 1_555 1_555
C20_4 C19_4 1_555 1_555
C21_4 C20_4 1_555 1_555
C22_4 C21_4 1_555 1_555
H19_4 C22_4 1_555 1_555
C23_4 C22_4 1_555 1_555
H20_4 C23_4 1_555 1_555
C24_4 C21_4 1_555 1_555
N1_4 C19_4 1_555 1_555
N2_4 C13_4 1_555 1_555
N3_4 C18_4 1_555 1_555
O13_3 C1_4 1_555 1_555
O2_4 C1_4 1_555 1_555
O16_2 C8_4 1_555 1_555
O19_2 C8_4 1_555 1_555
Cd9_2 N1_4 1_555 1_555
C25_4 H21_4 1_555 1_555
C26_4 C25_4 1_555 1_555
H22_4 C26_4 1_555 1_555
C27_4 C26_4 1_555 1_555
C28_4 C27_4 1_555 1_555
H23_4 C28_4 1_555 1_555
C29_4 C28_4 1_555 1_555
H24_4 C29_4 1_555 1_555
C30_4 C27_4 1_555 1_555
N5_4 C25_4 1_555 1_555
N6_4 C18_4 1_555 1_555
C31_4 H25_4 1_555 1_555
C32_4 C31_4 1_555 1_555
H26_4 C32_4 1_555 1_555
C33_4 C32_4 1_555 1_555
C34_4 C33_4 1_555 1_555
H27_4 C34_4 1_555 1_555
C35_4 C34_4 1_555 1_555
H28_4 C35_4 1_555 1_555
C36_4 N3_4 1_555 1_555
N7_4 C31_4 1_555 1_555
N8_4 C30_4 1_555 1_555
N12_4 C24_4 1_555 1_555
C49_4 C50_4 1_555 1_555
C50_4 C51_4 1_555 1_555
C51_4 H37_4 1_555 1_555
C55_4 C50_4 1_555 1_555
H39_4 C55_4 1_555 1_555
H43_4 C59_4 1_555 1_555
H44_4 C59_4 1_555 1_555
H45_4 C59_4 1_555 1_555
O14_3 C49_4 1_555 1_555
O6_4 C49_4 1_555 1_555
Cd10_2 N5_4 1_555 1_555
C61_4 C62_4 1_555 1_555
C62_4 C63_4 1_555 1_555
C63_4 H49_4 1_555 1_555
C67_4 C62_4 1_555 1_555
H51_4 C67_4 1_555 1_555
H55_4 C71_4 1_555 1_555
H56_4 C71_4 1_555 1_555
H57_4 C71_4 1_555 1_555
O15_3 C61_4 1_555 1_555
O10_4 C61_4 1_555 1_555
Cd11_2 N7_4 1_555 1_555
N13 Cd10_2 1_555 1_555
N14 Cd11_2 1_555 1_555
C6_4 C7_4 1_555 1_555
C17_4 N2_4 1_555 1_555
C23_4 N1_4 1_555 1_555
N2_4 Cd9_2 1_555 1_555
O2_4 Cd9_2 1_555 1_555
C29_4 N5_4 1_555 1_555
C30_4 N6_4 1_555 1_555
C33_4 C36_4 1_555 1_555
C35_4 N7_4 1_555 1_555
C36_4 N8_4 1_555 1_555
C54_4 C55_4 1_555 1_555
O6_4 Cd10_2 1_555 1_555
C66_4 C67_4 1_555 1_555
O10_4 Cd11_2 1_555 1_555
C43_4 H33_4 1_555 1_555
C44_4 C43_4 1_555 1_555
C45_4 C44_4 1_555 1_555
C46_4 C45_4 1_555 1_555
H35_4 C46_4 1_555 1_555
C47_4 C46_4 1_555 1_555
H36_4 C47_4 1_555 1_555
N14 C43_4 1_555 1_555
C45_4 C48_4 1_555 1_555
C47_4 N14 1_555 1_555
C65_4 C64_4 1_555 1_555
H50_4 C65_4 1_555 1_555
C69_4 C64_4 1_555 1_555
C70_4 C69_4 1_555 1_555
H52_4 C70_4 1_555 1_555
H53_4 C70_4 1_555 1_555
H54_4 C70_4 1_555 1_555
C72_4 C69_4 1_555 1_555
H58_4 C72_4 1_555 1_555
H59_4 C72_4 1_555 1_555
H60_4 C72_4 1_555 1_555
O18_2 C68_4 1_555 1_555
C37_4 H29_4 1_555 1_555
C38_4 C37_4 1_555 1_555
H30_4 C38_4 1_555 1_555
C39_4 C38_4 1_555 1_555
C40_4 C39_4 1_555 1_555
H31_4 C40_4 1_555 1_555
C41_4 C40_4 1_555 1_555
H32_4 C41_4 1_555 1_555
N13 C37_4 1_555 1_555
N10_4 C42_4 1_555 1_555
C39_4 C42_4 1_555 1_555
C41_4 N13 1_555 1_555
N13_2 Cd10 1_555 1_555
O6_5 Cd10 1_555 1_555
C3_5 H1_5 1_555 1_555
C4_5 C3_5 1_555 1_555
C9_5 C4_5 1_555 1_555
C10_5 C9_5 1_555 1_555
H4_5 C10_5 1_555 1_555
H5_5 C10_5 1_555 1_555
H6_5 C10_5 1_555 1_555
C11_5 C9_5 1_555 1_555
H7_5 C11_5 1_555 1_555
H8_5 C11_5 1_555 1_555
H9_5 C11_5 1_555 1_555
C12_5 C9_5 1_555 1_555
H11_5 C12_5 1_555 1_555
C51_5 H37_5 1_555 1_555
C52_5 C51_5 1_555 1_555
C57_5 C52_5 1_555 1_555
C58_5 C57_5 1_555 1_555
H40_5 C58_5 1_555 1_555
H41_5 C58_5 1_555 1_555
H42_5 C58_5 1_555 1_555
C59_5 C57_5 1_555 1_555
H43_5 C59_5 1_555 1_555
H44_5 C59_5 1_555 1_555
H45_5 C59_5 1_555 1_555
C60_5 C57_5 1_555 1_555
H47_5 C60_5 1_555 1_555
C63_5 H49_5 1_555 1_555
C64_5 C63_5 1_555 1_555
C69_5 C64_5 1_555 1_555
C70_5 C69_5 1_555 1_555
H52_5 C70_5 1_555 1_555
H53_5 C70_5 1_555 1_555
H54_5 C70_5 1_555 1_555
C71_5 C69_5 1_555 1_555
H55_5 C71_5 1_555 1_555
H56_5 C71_5 1_555 1_555
H57_5 C71_5 1_555 1_555
C72_5 C69_5 1_555 1_555
H58_5 C72_5 1_555 1_555
H59_5 C72_5 1_555 1_555
H60_5 C72_5 1_555 1_555
C1_5 C2_5 1_555 1_555
H2_5 C5_5 1_555 1_555
C6_5 C5_5 1_555 1_555
C7_5 C2_5 1_555 1_555
H3_5 C7_5 1_555 1_555
C8_5 C6_5 1_555 1_555
C13_5 H13_5 1_555 1_555
C14_5 C13_5 1_555 1_555
H14_5 C14_5 1_555 1_555
C15_5 C14_5 1_555 1_555
C16_5 C15_5 1_555 1_555
H15_5 C16_5 1_555 1_555
C17_5 C16_5 1_555 1_555
H16_5 C17_5 1_555 1_555
C18_5 C15_5 1_555 1_555
N2_5 C13_5 1_555 1_555
N3_5 C18_5 1_555 1_555
O16 C8_5 1_555 1_555
O19 C8_5 1_555 1_555
C25_5 H21_5 1_555 1_555
C26_5 C25_5 1_555 1_555
H22_5 C26_5 1_555 1_555
C27_5 C26_5 1_555 1_555
C28_5 C27_5 1_555 1_555
H23_5 C28_5 1_555 1_555
C29_5 C28_5 1_555 1_555
H24_5 C29_5 1_555 1_555
C30_5 C27_5 1_555 1_555
N5_5 C25_5 1_555 1_555
N6_5 C18_5 1_555 1_555
C31_5 H25_5 1_555 1_555
C32_5 C31_5 1_555 1_555
H26_5 C32_5 1_555 1_555
C33_5 C32_5 1_555 1_555
C34_5 C33_5 1_555 1_555
H27_5 C34_5 1_555 1_555
C35_5 C34_5 1_555 1_555
H28_5 C35_5 1_555 1_555
C36_5 N3_5 1_555 1_555
N7_5 C31_5 1_555 1_555
N8_5 C30_5 1_555 1_555
C49_5 C50_5 1_555 1_555
H38_5 C53_5 1_555 1_555
C54_5 C53_5 1_555 1_555
C55_5 C50_5 1_555 1_555
H39_5 C55_5 1_555 1_555
C56_5 C54_5 1_555 1_555
O17 C56_5 1_555 1_555
O20 C56_5 1_555 1_555
C61_5 C62_5 1_555 1_555
H50_5 C65_5 1_555 1_555
C66_5 C65_5 1_555 1_555
C67_5 C62_5 1_555 1_555
H51_5 C67_5 1_555 1_555
C68_5 C66_5 1_555 1_555
O10_5 C61_5 1_555 1_555
O18 C68_5 1_555 1_555
O21 C68_5 1_555 1_555
Cd11 N7_5 1_555 1_555
N14_2 Cd11 1_555 1_555
C6_5 C7_5 1_555 1_555
C17_5 N2_5 1_555 1_555
C29_5 N5_5 1_555 1_555
C30_5 N6_5 1_555 1_555
C33_5 C36_5 1_555 1_555
C35_5 N7_5 1_555 1_555
C36_5 N8_5 1_555 1_555
C54_5 C55_5 1_555 1_555
C66_5 C67_5 1_555 1_555
O10_5 Cd11 1_555 1_555
C19_5 H17_5 1_555 1_555
C20_5 C19_5 1_555 1_555
H18_5 C20_5 1_555 1_555
C21_5 C20_5 1_555 1_555
C22_5 C21_5 1_555 1_555
H19_5 C22_5 1_555 1_555
C23_5 C22_5 1_555 1_555
H20_5 C23_5 1_555 1_555
C24_5 C21_5 1_555 1_555
N1_5 C19_5 1_555 1_555
N4_5 C24_5 1_555 1_555
Cd9 N1_5 1_555 1_555
C37_5 H29_5 1_555 1_555
C38_5 C37_5 1_555 1_555
H30_5 C38_5 1_555 1_555
C39_5 C38_5 1_555 1_555
C40_5 C39_5 1_555 1_555
H31_5 C40_5 1_555 1_555
C41_5 C40_5 1_555 1_555
H32_5 C41_5 1_555 1_555
C42_5 N4_5 1_555 1_555
N13_2 C37_5 1_555 1_555
N10_5 C42_5 1_555 1_555
C43_5 H33_5 1_555 1_555
C44_5 C43_5 1_555 1_555
H34_5 C44_5 1_555 1_555
C45_5 C44_5 1_555 1_555
C46_5 C45_5 1_555 1_555
H35_5 C46_5 1_555 1_555
C47_5 C46_5 1_555 1_555
H36_5 C47_5 1_555 1_555
C48_5 N10_5 1_555 1_555
N14_2 C43_5 1_555 1_555
N12_5 C24_5 1_555 1_555
C23_5 N1_5 1_555 1_555
O2_5 Cd9 1_555 1_555
C39_5 C42_5 1_555 1_555
C41_5 N13_2 1_555 1_555
C45_5 C48_5 1_555 1_555
C47_5 N14_2 1_555 1_555
C48_5 N12_5 1_555 1_555
C25_6 H21_6 1_555 1_555
C26_6 C25_6 1_555 1_555
H22_6 C26_6 1_555 1_555
C27_6 C26_6 1_555 1_555
C28_6 C27_6 1_555 1_555
C29_6 C28_6 1_555 1_555
H24_6 C29_6 1_555 1_555
C30_6 C27_6 1_555 1_555
N5_6 C25_6 1_555 1_555
N8_6 C30_6 1_555 1_555
C49_6 C50_6 1_555 1_555
C50_6 C51_6 1_555 1_555
C51_6 H37_6 1_555 1_555
C52_6 C51_6 1_555 1_555
C53_6 C52_6 1_555 1_555
H38_6 C53_6 1_555 1_555
C54_6 C53_6 1_555 1_555
C55_6 C50_6 1_555 1_555
H39_6 C55_6 1_555 1_555
C56_6 C54_6 1_555 1_555
C57_6 C52_6 1_555 1_555
C58_6 C57_6 1_555 1_555
H40_6 C58_6 1_555 1_555
H41_6 C58_6 1_555 1_555
H42_6 C58_6 1_555 1_555
C59_6 C57_6 1_555 1_555
H43_6 C59_6 1_555 1_555
H44_6 C59_6 1_555 1_555
H45_6 C59_6 1_555 1_555
C60_6 C57_6 1_555 1_555
H46_6 C60_6 1_555 1_555
H47_6 C60_6 1_555 1_555
H48_6 C60_6 1_555 1_555
O14 C49_6 1_555 1_555
O6_6 C49_6 1_555 1_555
O17_3 C56_6 1_555 1_555
O20_3 C56_6 1_555 1_555
Cd7 N5_6 1_555 1_555
N13_3 Cd7 1_555 1_555
C29_6 N5_6 1_555 1_555
C54_6 C55_6 1_555 1_555
O6_6 Cd7 1_555 1_555
C4_6 C3_6 1_555 1_555
C5_6 C4_6 1_555 1_555
H2_6 C5_6 1_555 1_555
C6_6 C5_6 1_555 1_555
C8_6 C6_6 1_555 1_555
C9_6 C4_6 1_555 1_555
C10_6 C9_6 1_555 1_555
H4_6 C10_6 1_555 1_555
H5_6 C10_6 1_555 1_555
H6_6 C10_6 1_555 1_555
C11_6 C9_6 1_555 1_555
H7_6 C11_6 1_555 1_555
H8_6 C11_6 1_555 1_555
H9_6 C11_6 1_555 1_555
C12_6 C9_6 1_555 1_555
H10_6 C12_6 1_555 1_555
H11_6 C12_6 1_555 1_555
H12_6 C12_6 1_555 1_555
O16_3 C8_6 1_555 1_555
O19_3 C8_6 1_555 1_555
C6_6 C7_6 1_555 1_555
C31_6 H25_6 1_555 1_555
C32_6 C31_6 1_555 1_555
C33_6 C32_6 1_555 1_555
C34_6 C33_6 1_555 1_555
C35_6 C34_6 1_555 1_555
H28_6 C35_6 1_555 1_555
N7_6 C31_6 1_555 1_555
C61_6 C62_6 1_555 1_555
O15 C61_6 1_555 1_555
O10_6 C61_6 1_555 1_555
Cd8 N7_6 1_555 1_555
N14_3 Cd8 1_555 1_555
C33_6 C36_6 1_555 1_555
C35_6 N7_6 1_555 1_555
O10_6 Cd8 1_555 1_555
C1_6 C2_6 1_555 1_555
C13_6 H13_6 1_555 1_555
C14_6 C13_6 1_555 1_555
C15_6 C14_6 1_555 1_555
C16_6 C15_6 1_555 1_555
H15_6 C16_6 1_555 1_555
C17_6 C16_6 1_555 1_555
H16_6 C17_6 1_555 1_555
C18_6 C15_6 1_555 1_555
C19_6 H17_6 1_555 1_555
C20_6 C19_6 1_555 1_555
H18_6 C20_6 1_555 1_555
C21_6 C20_6 1_555 1_555
C22_6 C21_6 1_555 1_555
H19_6 C22_6 1_555 1_555
C23_6 C22_6 1_555 1_555
H20_6 C23_6 1_555 1_555
C24_6 C21_6 1_555 1_555
N1_6 C19_6 1_555 1_555
N2_6 C13_6 1_555 1_555
N3_6 C18_6 1_555 1_555
N4_6 C24_6 1_555 1_555
O13 C1_6 1_555 1_555
O2_6 C1_6 1_555 1_555
Cd6 N1_6 1_555 1_555
C37_6 H29_6 1_555 1_555
C38_6 C37_6 1_555 1_555
H30_6 C38_6 1_555 1_555
C39_6 C38_6 1_555 1_555
C40_6 C39_6 1_555 1_555
H31_6 C40_6 1_555 1_555
C41_6 C40_6 1_555 1_555
H32_6 C41_6 1_555 1_555
C42_6 N4_6 1_555 1_555
N13_3 C37_6 1_555 1_555
N10_6 C42_6 1_555 1_555
C43_6 H33_6 1_555 1_555
C44_6 C43_6 1_555 1_555
H34_6 C44_6 1_555 1_555
C45_6 C44_6 1_555 1_555
C46_6 C45_6 1_555 1_555
H35_6 C46_6 1_555 1_555
C47_6 C46_6 1_555 1_555
H36_6 C47_6 1_555 1_555
C48_6 N10_6 1_555 1_555
N14_3 C43_6 1_555 1_555
N12_6 C24_6 1_555 1_555
C64_6 C63_6 1_555 1_555
C65_6 C64_6 1_555 1_555
H50_6 C65_6 1_555 1_555
C66_6 C65_6 1_555 1_555
C68_6 C66_6 1_555 1_555
C69_6 C64_6 1_555 1_555
C70_6 C69_6 1_555 1_555
H52_6 C70_6 1_555 1_555
H53_6 C70_6 1_555 1_555
H54_6 C70_6 1_555 1_555
C71_6 C69_6 1_555 1_555
H55_6 C71_6 1_555 1_555
H56_6 C71_6 1_555 1_555
H57_6 C71_6 1_555 1_555
C72_6 C69_6 1_555 1_555
H58_6 C72_6 1_555 1_555
H59_6 C72_6 1_555 1_555
H60_6 C72_6 1_555 1_555
O18_3 C68_6 1_555 1_555
O21_3 C68_6 1_555 1_555
C17_6 N2_6 1_555 1_555
C23_6 N1_6 1_555 1_555
N2_6 Cd6 1_555 1_555
O2_6 Cd6 1_555 1_555
C39_6 C42_6 1_555 1_555
C41_6 N13_3 1_555 1_555
C45_6 C48_6 1_555 1_555
C47_6 N14_3 1_555 1_555
C48_6 N12_6 1_555 1_555
C66_6 C67_6 1_555 1_555

#END
