
###############################################################################
#
# This file contains modified crystal structure data generated from the
# MOF subset of the Cambridge Structural Database (CSD) v543 
# hosted by the Cambridge Crystallographic Data Centre (CCDC).
#
# This work is licensed under the Creative Commons
# Attribution-NonCommercial-ShareAlike 4.0 International License.
# To view a copy of this license, visit
# http://creativecommons.org/licenses/by-nc-sa/4.0/
# or send a letter to
# Creative Commons, PO Box 1866, Mountain View, CA 94042, USA.
#
# CIF created using the CSD Python API on 29 September 2022
# The structure has been converted into the P1 space group
# The structure has a 3D framework
# The original CSD entry RUPFAM is in the rhombohedral crystal system
# The framework has been calculated to contain at least 10.0% void space
# The void calculation uses a probe of radius 1.32A, grid spacing 0.4
#
###############################################################################

data_RUPFAM
_chemical_formula_moiety         '(C720 H432 Cd36 N144 O142)n'
_symmetry_cell_setting           triclinic
_symmetry_space_group_name_H-M   'P 1'
_symmetry_Int_Tables_number      1
_space_group_name_Hall           'P 1'
loop_
_symmetry_equiv_pos_site_id
_symmetry_equiv_pos_as_xyz
1 x,y,z
_cell_length_a                   23.0883(6)
_cell_length_b                   23.0883(6)
_cell_length_c                   47.6538(17)
_cell_angle_alpha                90
_cell_angle_beta                 90
_cell_angle_gamma                120
_cell_volume                     21999.5
loop_
_atom_site_label
_atom_site_type_symbol
_atom_site_fract_x
_atom_site_fract_y
_atom_site_fract_z
Cd1 Cd 0.32733(2) 0.16097(2) 0.12396(2)
O1 O 0.3701(3) 0.1210(2) 0.08739(8)
O2 O 0.2930(2) 0.1449(2) 0.07667(7)
O3 O 0.4746(2) 0.0535(2) 0.01006(8)
N1 N 0.4252(3) 0.2641(3) 0.12180(9)
N2 N 0.2361(3) 0.0580(3) 0.13382(9)
N3 N 0.6087(3) 0.2733(3) 0.12045(10)
C3 C 0.2382(3) 0.0017(4) 0.13632(13)
H3 H 0.2793 0.0036 0.1356
C4 C 0.4792(4) 0.3822(4) 0.11743(15)
H4 H 0.4756 0.4204 0.1159
C5 C 0.5402(4) 0.3864(4) 0.11772(14)
H5 H 0.5792 0.4277 0.1164
C6 C 0.4230(4) 0.3198(4) 0.11952(13)
H6 H 0.3813 0.3169 0.1193
C8 C 0.1775(3) 0.0541(3) 0.13557(11)
H7 H 0.1766 0.0939 0.1349
C9 C 0.3334(3) 0.1261(3) 0.06975(11)
C10 C 0.5432(3) 0.3278(3) 0.12004(11)
C11 C 0.4849(3) 0.2685(3) 0.12223(11)
H8 H 0.4869 0.2294 0.1241
C14 C 0.3889(3) 0.0801(3) 0.00282(10)
C15 C 0.3840(3) 0.0938(2) 0.03073(10)
H10 H 0.4142 0.0935 0.0436
C17 C 0.3358(3) 0.1079(3) 0.03999(10)
C19 C 0.2925(3) 0.1086(4) 0.02110(12)
H12 H 0.2598 0.1181 0.0271
C20 C 0.6087(4) 0.3305(4) 0.12028(12)
N5 N 0.7359(3) 0.1611(4) 0.12180(9)
N6 N 0.7267(3) 0.3354(4) 0.12045(10)
C21 C 0.6178(4) 0.0970(6) 0.11743(15)
H13 H 0.5796 0.0552 0.1159
C22 C 0.6136(4) 0.1538(6) 0.11772(14)
H14 H 0.5723 0.1515 0.1164
C23 C 0.6802(4) 0.1032(6) 0.11952(13)
H15 H 0.6831 0.0644 0.1193
C24 C 0.6722(3) 0.2154(4) 0.12004(11)
C25 C 0.7315(3) 0.2164(4) 0.12223(11)
H16 H 0.7706 0.2575 0.1241
C26 C 0.6695(4) 0.2782(6) 0.12028(12)
N7 N 0.8389(4) 0.5748(3) 0.12180(9)
N8 N 0.6646(4) 0.3913(3) 0.12045(10)
C27 C 0.9030(6) 0.5208(4) 0.11743(15)
H17 H 0.9448 0.5244 0.1159
C28 C 0.8462(6) 0.4598(4) 0.11772(14)
H18 H 0.8485 0.4208 0.1164
C29 C 0.8968(6) 0.5770(4) 0.11952(13)
H19 H 0.9356 0.6187 0.1193
C30 C 0.7846(4) 0.4568(3) 0.12004(11)
C31 C 0.7836(4) 0.5151(3) 0.12223(11)
H20 H 0.7425 0.5131 0.1241
C32 C 0.7218(6) 0.3913(4) 0.12028(12)
C33 C 0.0608(4) 0.1818(6) 0.14093(16)
H21 H 0.1014 0.1832 0.1434
C34 C 0.0588(4) 0.2405(6) 0.13993(17)
H22 H 0.0976 0.2816 0.1417
C36 C 0.0030(3) 0.1216(4) 0.13832(12)
N10 N 0.0595(3) 0.0581(4) 0.13943(10)
C38 C 0.0023(4) 0.0568(6) 0.13941(12)
Cd4 Cd 0.83903(2) 0.16636(3) 0.12396(2)
Cd5 Cd 0.83364(3) 0.67267(2) 0.12396(2)
Cd7 Cd 0.00600(2) 0.50031(3) 0.04271(2)
O13 O 0.3868(2) 0.1413(2) 0.15661(8)
O16 O 0.2736(2) 0.2199(2) 0.13336(7)
O4 O 0.4468(2) 0.0597(2) 0.96669(7)
C12 C 0.3441(3) 0.0808(4) 0.98435(12)
H9 H 0.3460 0.0714 0.9655
C13 C 0.4401(3) 0.0630(3) 0.99259(11)
C18 C 0.2958(4) 0.0955(4) 0.99351(13)
H11 H 0.2657 0.0964 0.9808
Cd9 Cd 0.50570(2) 0.00600(2) 0.95729(2)
C1 C 0.1210(4) 0.9392(4) 0.14093(16)
H1 H 0.0818 0.8986 0.1434
C2 C 0.1817(4) 0.9412(4) 0.13993(17)
H2 H 0.1840 0.9024 0.1417
C7 C 0.1186(3) 0.9970(3) 0.13832(12)
C16 C 0.0545(4) 0.9977(4) 0.13941(12)
Cd6 Cd 0.49430(2) 0.99400(2) 0.04271(2)
N9 N 0.9420(3) 0.1781(4) 0.13382(9)
C35 C 0.9983(4) 0.2365(5) 0.13632(13)
H23 H 0.9964 0.2757 0.1356
C37 C 0.9459(3) 0.1234(4) 0.13557(11)
H24 H 0.9061 0.0827 0.1349
N12 N 0.9419(4) 0.0014(3) 0.13943(10)
O5 O 0.8790(2) 0.2491(4) 0.08739(8)
O6 O 0.8551(2) 0.1481(3) 0.07667(7)
O7 O 0.9465(2) 0.4211(3) 0.01006(8)
C45 C 0.8739(3) 0.2073(4) 0.06975(11)
C48 C 0.9199(3) 0.3088(4) 0.00282(10)
C49 C 0.9062(2) 0.2902(4) 0.03073(10)
H30 H 0.9065 0.3207 0.0436
C50 C 0.8921(3) 0.2279(4) 0.03999(10)
C52 C 0.8914(4) 0.1839(5) 0.02110(12)
H32 H 0.8819 0.1417 0.0271
O14 O 0.8587(2) 0.2456(3) 0.15661(8)
O17 O 0.7801(2) 0.0538(3) 0.13336(7)
O8 O 0.9403(2) 0.3871(3) 0.96669(7)
C46 C 0.9192(4) 0.2633(5) 0.98435(12)
H29 H 0.9286 0.2746 0.9655
C47 C 0.9370(3) 0.3771(4) 0.99259(11)
C51 C 0.9045(4) 0.2003(6) 0.99351(13)
H31 H 0.9036 0.1693 0.9808
Cd10 Cd 0.99400(2) 0.49969(3) 0.95729(2)
N4 N 0.9986(3) 0.9405(3) 0.13943(10)
N11 N 0.8219(4) 0.7639(3) 0.13382(9)
C39 C 0.8182(6) 0.8790(4) 0.14093(16)
H25 H 0.8168 0.9182 0.1434
C40 C 0.7595(6) 0.8183(4) 0.13993(17)
H26 H 0.7184 0.8160 0.1417
C41 C 0.7635(5) 0.7618(3) 0.13632(13)
H27 H 0.7243 0.7207 0.1356
C42 C 0.8784(4) 0.8814(3) 0.13832(12)
C43 C 0.8766(4) 0.8225(3) 0.13557(11)
H28 H 0.9173 0.8234 0.1349
C44 C 0.9432(6) 0.9455(4) 0.13941(12)
O9 O 0.7509(4) 0.6299(3) 0.08739(8)
O10 O 0.8519(3) 0.7070(2) 0.07667(7)
O11 O 0.5789(3) 0.5254(2) 0.01006(8)
C53 C 0.7927(4) 0.6666(3) 0.06975(11)
C56 C 0.6912(4) 0.6111(3) 0.00282(10)
C57 C 0.7098(4) 0.6160(3) 0.03073(10)
H34 H 0.6793 0.5858 0.0436
C58 C 0.7721(4) 0.6642(3) 0.03999(10)
C60 C 0.8161(5) 0.7075(3) 0.02110(12)
H36 H 0.8583 0.7402 0.0271
Cd8 Cd 0.49969(3) 0.50570(2) 0.04271(2)
O15 O 0.7544(3) 0.6132(2) 0.15661(8)
O18 O 0.9462(3) 0.7264(2) 0.13336(7)
O12 O 0.6129(3) 0.5532(2) 0.96669(7)
C54 C 0.7367(5) 0.6559(3) 0.98435(12)
H33 H 0.7254 0.6540 0.9655
C55 C 0.6229(4) 0.5599(3) 0.99259(11)
C59 C 0.7997(6) 0.7042(4) 0.99351(13)
H35 H 0.8307 0.7343 0.9808
Cd11 Cd 0.50031(3) 0.49430(2) 0.95729(2)
Cd1_2 Cd 0.16097(2) 0.32733(2) 0.37604(2)
O1_2 O 0.1210(2) 0.3701(3) 0.41261(8)
O2_2 O 0.1449(2) 0.2930(2) 0.42333(7)
O3_2 O 0.0535(2) 0.4746(2) 0.48994(8)
O4_2 O 0.0597(2) 0.4468(2) 0.53331(7)
N1_2 N 0.2641(3) 0.4252(3) 0.37820(9)
N2_2 N 0.0580(3) 0.2361(3) 0.36618(9)
N3_2 N 0.2733(3) 0.6087(3) 0.37955(10)
C3_2 C 0.0017(4) 0.2382(3) 0.36368(13)
H3_2 H 0.0036 0.2793 0.3644
C4_2 C 0.3822(4) 0.4792(4) 0.38257(15)
H4_2 H 0.4204 0.4756 0.3841
C5_2 C 0.3864(4) 0.5402(4) 0.38228(14)
H5_2 H 0.4277 0.5792 0.3836
C6_2 C 0.3198(4) 0.4230(4) 0.38048(13)
H6_2 H 0.3169 0.3813 0.3807
C8_2 C 0.0541(3) 0.1775(3) 0.36443(11)
H7_2 H 0.0939 0.1766 0.3651
C9_2 C 0.1261(3) 0.3334(3) 0.43025(11)
C10_2 C 0.3278(3) 0.5432(3) 0.37996(11)
C11_2 C 0.2685(3) 0.4849(3) 0.37777(11)
H8_2 H 0.2294 0.4869 0.3759
C12_2 C 0.0808(4) 0.3441(3) 0.51565(12)
H9_2 H 0.0714 0.3460 0.5345
C13_2 C 0.0630(3) 0.4401(3) 0.50741(11)
C14_2 C 0.0801(3) 0.3889(3) 0.49718(10)
C15_2 C 0.0938(2) 0.3840(3) 0.46927(10)
H10_2 H 0.0935 0.4142 0.4564
C17_2 C 0.1079(3) 0.3358(3) 0.46001(10)
C18_2 C 0.0955(4) 0.2958(4) 0.50649(13)
H11_2 H 0.0964 0.2657 0.5192
C19_2 C 0.1086(4) 0.2925(3) 0.47890(12)
H12_2 H 0.1181 0.2598 0.4729
C20_2 C 0.3305(4) 0.6087(4) 0.37972(12)
N5_2 N 0.1611(4) 0.7359(3) 0.37820(9)
N6_2 N 0.3354(4) 0.7267(3) 0.37955(10)
C21_2 C 0.0970(6) 0.6178(4) 0.38257(15)
H13_2 H 0.0552 0.5796 0.3841
C22_2 C 0.1538(6) 0.6136(4) 0.38228(14)
H14_2 H 0.1515 0.5723 0.3836
C23_2 C 0.1032(6) 0.6802(4) 0.38048(13)
H15_2 H 0.0644 0.6831 0.3807
C24_2 C 0.2154(4) 0.6722(3) 0.37996(11)
C25_2 C 0.2164(4) 0.7315(3) 0.37777(11)
H16_2 H 0.2575 0.7706 0.3759
C26_2 C 0.2782(6) 0.6695(4) 0.37972(12)
N7_2 N 0.5748(3) 0.8389(4) 0.37820(9)
N8_2 N 0.3913(3) 0.6646(4) 0.37955(10)
C27_2 C 0.5208(4) 0.9030(6) 0.38257(15)
H17_2 H 0.5244 0.9448 0.3841
C28_2 C 0.4598(4) 0.8462(6) 0.38228(14)
H18_2 H 0.4208 0.8485 0.3836
C29_2 C 0.5770(4) 0.8968(6) 0.38048(13)
H19_2 H 0.6187 0.9356 0.3807
C30_2 C 0.4568(3) 0.7846(4) 0.37996(11)
C31_2 C 0.5151(3) 0.7836(4) 0.37777(11)
H20_2 H 0.5131 0.7425 0.3759
C32_2 C 0.3913(4) 0.7218(6) 0.37972(12)
C33_2 C 0.1818(6) 0.0608(4) 0.35907(16)
H21_2 H 0.1832 0.1014 0.3566
C34_2 C 0.2405(6) 0.0588(4) 0.36007(17)
H22_2 H 0.2816 0.0976 0.3583
C36_2 C 0.1216(4) 0.0030(3) 0.36168(12)
N10_2 N 0.0581(4) 0.0595(3) 0.36057(10)
C38_2 C 0.0568(6) 0.0023(4) 0.36059(12)
Cd4_2 Cd 0.16636(3) 0.83903(2) 0.37604(2)
Cd5_2 Cd 0.67267(2) 0.83364(3) 0.37604(2)
Cd7_2 Cd 0.50031(3) 0.00600(2) 0.45729(2)
Cd9_2 Cd 0.00600(2) 0.50570(2) 0.54271(2)
O13_2 O 0.1413(2) 0.3868(2) 0.34339(8)
O16_2 O 0.2199(2) 0.2736(2) 0.36664(7)
N9_2 N 0.1781(4) 0.9420(3) 0.36618(9)
C35_2 C 0.2365(5) 0.9983(4) 0.36368(13)
H23_2 H 0.2757 0.9964 0.3644
C37_2 C 0.1234(4) 0.9459(3) 0.36443(11)
H24_2 H 0.0827 0.9061 0.3651
N12_2 N 0.0014(3) 0.9419(4) 0.36057(10)
O5_2 O 0.2491(4) 0.8790(2) 0.41261(8)
O6_2 O 0.1481(3) 0.8551(2) 0.42333(7)
O7_2 O 0.4211(3) 0.9465(2) 0.48994(8)
O8_2 O 0.3871(3) 0.9403(2) 0.53331(7)
C45_2 C 0.2073(4) 0.8739(3) 0.43025(11)
C46_2 C 0.2633(5) 0.9192(4) 0.51565(12)
H29_2 H 0.2746 0.9286 0.5345
C47_2 C 0.3771(4) 0.9370(3) 0.50741(11)
C48_2 C 0.3088(4) 0.9199(3) 0.49718(10)
C49_2 C 0.2902(4) 0.9062(2) 0.46927(10)
H30_2 H 0.3207 0.9065 0.4564
C50_2 C 0.2279(4) 0.8921(3) 0.46001(10)
C51_2 C 0.2003(6) 0.9045(4) 0.50649(13)
H31_2 H 0.1693 0.9036 0.5192
C52_2 C 0.1839(5) 0.8914(4) 0.47890(12)
H32_2 H 0.1417 0.8819 0.4729
Cd10_2 Cd 0.49969(3) 0.99400(2) 0.54271(2)
O14_2 O 0.2456(3) 0.8587(2) 0.34339(8)
O17_2 O 0.0538(3) 0.7801(2) 0.36664(7)
C1_2 C 0.9392(4) 0.1210(4) 0.35907(16)
H1_2 H 0.8986 0.0818 0.3566
C2_2 C 0.9412(4) 0.1817(4) 0.36007(17)
H2_2 H 0.9024 0.1840 0.3583
C7_2 C 0.9970(3) 0.1186(3) 0.36168(12)
C16_2 C 0.9977(4) 0.0545(4) 0.36059(12)
Cd6_2 Cd 0.99400(2) 0.49430(2) 0.45729(2)
N4_2 N 0.9405(3) 0.9986(3) 0.36057(10)
N11_2 N 0.7639(3) 0.8219(4) 0.36618(9)
C39_2 C 0.8790(4) 0.8182(6) 0.35907(16)
H25_2 H 0.9182 0.8168 0.3566
C40_2 C 0.8183(4) 0.7595(6) 0.36007(17)
H26_2 H 0.8160 0.7184 0.3583
C41_2 C 0.7618(3) 0.7635(5) 0.36368(13)
H27_2 H 0.7207 0.7243 0.3644
C42_2 C 0.8814(3) 0.8784(4) 0.36168(12)
C43_2 C 0.8225(3) 0.8766(4) 0.36443(11)
H28_2 H 0.8234 0.9173 0.3651
C44_2 C 0.9455(4) 0.9432(6) 0.36059(12)
O9_2 O 0.6299(3) 0.7509(4) 0.41261(8)
O10_2 O 0.7070(2) 0.8519(3) 0.42333(7)
O11_2 O 0.5254(2) 0.5789(3) 0.48994(8)
O12_2 O 0.5532(2) 0.6129(3) 0.53331(7)
C53_2 C 0.6666(3) 0.7927(4) 0.43025(11)
C54_2 C 0.6559(3) 0.7367(5) 0.51565(12)
H33_2 H 0.6540 0.7254 0.5345
C55_2 C 0.5599(3) 0.6229(4) 0.50741(11)
C56_2 C 0.6111(3) 0.6912(4) 0.49718(10)
C57_2 C 0.6160(3) 0.7098(4) 0.46927(10)
H34_2 H 0.5858 0.6793 0.4564
C58_2 C 0.6642(3) 0.7721(4) 0.46001(10)
C59_2 C 0.7042(4) 0.7997(6) 0.50649(13)
H35_2 H 0.7343 0.8307 0.5192
C60_2 C 0.7075(3) 0.8161(5) 0.47890(12)
H36_2 H 0.7402 0.8583 0.4729
Cd8_2 Cd 0.50570(2) 0.49969(3) 0.45729(2)
Cd11_2 Cd 0.49430(2) 0.50031(3) 0.54271(2)
O15_2 O 0.6132(2) 0.7544(3) 0.34339(8)
O18_2 O 0.7264(2) 0.9462(3) 0.36664(7)
O1_3 O 0.0368(3) 0.4543(2) 0.42072(8)
O4_3 O 0.1135(2) 0.3930(2) 0.30002(7)
N1_3 N 0.0919(3) 0.5974(3) 0.45513(9)
N3_3 N 0.2754(3) 0.6066(3) 0.45378(10)
C4_3 C 0.1459(4) 0.7155(4) 0.45076(15)
H4_3 H 0.1423 0.7537 0.4492
C5_3 C 0.2069(4) 0.7197(4) 0.45105(14)
H5_3 H 0.2459 0.7610 0.4497
C6_3 C 0.0897(4) 0.6531(4) 0.45285(13)
H6_3 H 0.0480 0.6502 0.4526
C9_3 C 0.0001(3) 0.4594(3) 0.40308(11)
C10_3 C 0.2099(3) 0.6611(3) 0.45337(11)
C11_3 C 0.1516(3) 0.6018(3) 0.45556(11)
H8_3 H 0.1536 0.5627 0.4574
C12_3 C 0.0108(3) 0.4141(4) 0.31768(12)
H9_3 H 0.0127 0.4047 0.2988
C13_3 C 0.1068(3) 0.3963(3) 0.32592(11)
C14_3 C 0.0556(3) 0.4134(3) 0.33615(10)
C15_3 C 0.0507(3) 0.4271(2) 0.36406(10)
H10_3 H 0.0809 0.4268 0.3769
C17_3 C 0.0025(3) 0.4412(3) 0.37332(10)
C20_3 C 0.2754(4) 0.6638(4) 0.45361(12)
N5_3 N 0.4026(3) 0.4944(4) 0.45513(9)
N6_3 N 0.3934(3) 0.6687(4) 0.45378(10)
C21_3 C 0.2845(4) 0.4303(6) 0.45076(15)
H13_3 H 0.2463 0.3885 0.4492
C22_3 C 0.2803(4) 0.4871(6) 0.45105(14)
H14_3 H 0.2390 0.4848 0.4497
C23_3 C 0.3469(4) 0.4365(6) 0.45285(13)
H15_3 H 0.3498 0.3977 0.4526
C24_3 C 0.3389(3) 0.5487(4) 0.45337(11)
C25_3 C 0.3982(3) 0.5497(4) 0.45556(11)
H16_3 H 0.4373 0.5908 0.4574
C26_3 C 0.3362(4) 0.6115(6) 0.45361(12)
N7_3 N 0.5056(4) 0.9081(3) 0.45513(9)
N8_3 N 0.3313(4) 0.7246(3) 0.45378(10)
C27_3 C 0.5697(6) 0.8541(4) 0.45076(15)
H17_3 H 0.6115 0.8577 0.4492
C28_3 C 0.5129(6) 0.7931(4) 0.45105(14)
H18_3 H 0.5152 0.7541 0.4497
C29_3 C 0.5635(6) 0.9103(4) 0.45285(13)
H19_3 H 0.6023 0.9520 0.4526
C30_3 C 0.4513(4) 0.7901(3) 0.45337(11)
C31_3 C 0.4503(4) 0.8484(3) 0.45556(11)
H20_3 H 0.4092 0.8464 0.4574
C32_3 C 0.3885(6) 0.7246(4) 0.45361(12)
Cd9_3 Cd 0.17236(2) 0.33934(2) 0.29063(2)
O2_3 O 0.9597(2) 0.4782(2) 0.41000(7)
N2_3 N 0.9028(3) 0.3913(3) 0.46715(9)
C1_3 C 0.7877(4) 0.2725(4) 0.47426(16)
H1_3 H 0.7485 0.2319 0.4767
C2_3 C 0.8484(4) 0.2745(4) 0.47326(17)
H2_3 H 0.8507 0.2357 0.4750
C3_3 C 0.9049(3) 0.3350(4) 0.46965(13)
H3_3 H 0.9460 0.3369 0.4689
C7_3 C 0.7853(3) 0.3303(3) 0.47165(12)
C8_3 C 0.8442(3) 0.3874(3) 0.46890(11)
H7_3 H 0.8433 0.4272 0.4682
N4_3 N 0.6653(3) 0.2738(3) 0.47276(10)
C16_3 C 0.7212(4) 0.3310(4) 0.47274(12)
C18_3 C 0.9625(4) 0.4288(4) 0.32684(13)
H11_3 H 0.9324 0.4297 0.3141
C19_3 C 0.9592(3) 0.4419(4) 0.35443(12)
H12_3 H 0.9265 0.4514 0.3604
N9_3 N 0.6087(3) 0.5114(4) 0.46715(9)
C33_3 C 0.7275(4) 0.5151(6) 0.47426(16)
H21_3 H 0.7681 0.5165 0.4767
C34_3 C 0.7255(4) 0.5738(6) 0.47326(17)
H22_3 H 0.7643 0.6149 0.4750
C35_3 C 0.6650(4) 0.5698(5) 0.46965(13)
H23_3 H 0.6631 0.6090 0.4689
C36_3 C 0.6697(3) 0.4549(4) 0.47165(12)
C37_3 C 0.6126(3) 0.4567(4) 0.46890(11)
H24_3 H 0.5728 0.4160 0.4682
N10_3 N 0.7262(3) 0.3914(4) 0.47276(10)
C38_3 C 0.6690(4) 0.3901(6) 0.47274(12)
N11_3 N 0.4886(4) 0.0972(3) 0.46715(9)
C39_3 C 0.4849(6) 0.2123(4) 0.47426(16)
H25_3 H 0.4835 0.2515 0.4767
C40_3 C 0.4262(6) 0.1516(4) 0.47326(17)
H26_3 H 0.3851 0.1493 0.4750
C41_3 C 0.4302(5) 0.0951(3) 0.46965(13)
H27_3 H 0.3910 0.0540 0.4689
C42_3 C 0.5451(4) 0.2147(3) 0.47165(12)
C43_3 C 0.5433(4) 0.1558(3) 0.46890(11)
H28_3 H 0.5840 0.1567 0.4682
N12_3 N 0.6086(4) 0.3347(3) 0.47276(10)
C44_3 C 0.6099(6) 0.2788(4) 0.47274(12)
O5_3 O 0.5457(2) 0.5824(4) 0.42072(8)
O6_3 O 0.5218(2) 0.4814(3) 0.41000(7)
O8_3 O 0.6070(2) 0.7204(3) 0.30002(7)
C45_3 C 0.5406(3) 0.5406(4) 0.40308(11)
C46_3 C 0.5859(4) 0.5966(5) 0.31768(12)
H29_3 H 0.5953 0.6079 0.2988
C47_3 C 0.6037(3) 0.7104(4) 0.32592(11)
C48_3 C 0.5866(3) 0.6421(4) 0.33615(10)
C49_3 C 0.5729(2) 0.6235(4) 0.36406(10)
H30_3 H 0.5732 0.6540 0.3769
C50_3 C 0.5588(3) 0.5612(4) 0.37332(10)
C51_3 C 0.5712(4) 0.5336(6) 0.32684(13)
H31_3 H 0.5703 0.5026 0.3141
C52_3 C 0.5581(4) 0.5172(5) 0.35443(12)
H32_3 H 0.5486 0.4750 0.3604
O10_3 O 0.5186(3) 0.0403(2) 0.41000(7)
C59_3 C 0.4664(6) 0.0375(4) 0.32684(13)
H35_3 H 0.4974 0.0676 0.3141
C60_3 C 0.4828(5) 0.0408(3) 0.35443(12)
H36_3 H 0.5250 0.0735 0.3604
Cd10_3 Cd 0.66066(2) 0.83303(3) 0.29063(2)
O16_3 O 0.9403(2) 0.5532(2) 0.46669(7)
O17_3 O 0.4468(2) 0.3871(3) 0.46669(7)
O18_3 O 0.6129(3) 0.0597(2) 0.46669(7)
O9_3 O 0.4176(4) 0.9632(3) 0.42072(8)
O12_3 O 0.2796(3) 0.8865(2) 0.30002(7)
C53_3 C 0.4594(4) 0.9999(3) 0.40308(11)
C54_3 C 0.4034(5) 0.9892(3) 0.31768(12)
H33_3 H 0.3921 0.9873 0.2988
C55_3 C 0.2896(4) 0.8932(3) 0.32592(11)
C56_3 C 0.3579(4) 0.9444(3) 0.33615(10)
C57_3 C 0.3765(4) 0.9493(3) 0.36406(10)
H34_3 H 0.3460 0.9191 0.3769
C58_3 C 0.4388(4) 0.9975(3) 0.37332(10)
Cd11_3 Cd 0.16697(3) 0.82764(2) 0.29063(2)
N6_4 N 0.0021(4) 0.0600(3) 0.71288(10)
N7_4 N 0.2415(3) 0.1722(4) 0.71153(9)
C27_4 C 0.1875(4) 0.2363(6) 0.71590(15)
H17_4 H 0.1911 0.2781 0.7174
C28_4 C 0.1265(4) 0.1795(6) 0.71561(14)
H18_4 H 0.0875 0.1818 0.7169
C29_4 C 0.2437(4) 0.2301(6) 0.71381(13)
H19_4 H 0.2854 0.2689 0.7140
C30_4 C 0.1235(3) 0.1179(4) 0.71329(11)
C31_4 C 0.1818(3) 0.1169(4) 0.71110(11)
H20_4 H 0.1798 0.0758 0.7092
C32_4 C 0.0580(4) 0.0551(6) 0.71305(12)
Cd5_3 Cd 0.33934(2) 0.16697(3) 0.70937(2)
C4_4 C 0.0489(4) 0.8125(4) 0.71590(15)
H4_4 H 0.0871 0.8089 0.7174
C5_4 C 0.0531(4) 0.8735(4) 0.71561(14)
H5_4 H 0.0944 0.9125 0.7169
N8_4 N 0.0580(3) 0.9979(4) 0.71288(10)
O7_3 O 0.0878(3) 0.2798(2) 0.82327(8)
O8_4 O 0.0538(3) 0.2736(2) 0.86664(7)
C47_4 C 0.0438(4) 0.2703(3) 0.84074(11)
Cd7_3 Cd 0.16697(3) 0.33934(2) 0.79063(2)
Cd10_4 Cd 0.16636(3) 0.32733(2) 0.87604(2)
N5_4 N 0.8278(4) 0.0692(3) 0.71153(9)
C23_4 C 0.7699(6) 0.0135(4) 0.71381(13)
H15_4 H 0.7311 0.0164 0.7140
C24_4 C 0.8821(4) 0.0055(3) 0.71329(11)
C25_4 C 0.8831(4) 0.0648(3) 0.71110(11)
H16_4 H 0.9242 0.1039 0.7092
C26_4 C 0.9449(6) 0.0028(4) 0.71305(12)
Cd4_3 Cd 0.83303(3) 0.17236(2) 0.70937(2)
Cd1_3 Cd 0.82764(2) 0.66066(2) 0.70937(2)
O1_4 O 0.7877(2) 0.7034(3) 0.74594(8)
O2_4 O 0.8116(2) 0.6263(2) 0.75666(7)
O3_3 O 0.7202(2) 0.8079(2) 0.82327(8)
O4_4 O 0.7264(2) 0.7801(2) 0.86664(7)
N1_4 N 0.9308(3) 0.7585(3) 0.71153(9)
N2_4 N 0.7247(3) 0.5694(3) 0.69951(9)
N3_4 N 0.9400(3) 0.9420(3) 0.71288(10)
C1_4 C 0.6059(4) 0.4543(4) 0.69240(16)
H1_4 H 0.5653 0.4151 0.6899
C2_4 C 0.6079(4) 0.5150(4) 0.69340(17)
H2_4 H 0.5691 0.5173 0.6916
C3_4 C 0.6684(4) 0.5715(3) 0.69701(13)
H3_4 H 0.6703 0.6126 0.6977
C6_4 C 0.9865(4) 0.7563(4) 0.71381(13)
H6_4 H 0.9836 0.7146 0.7140
C7_4 C 0.6637(3) 0.4519(3) 0.69501(12)
C8_4 C 0.7208(3) 0.5108(3) 0.69776(11)
H7_4 H 0.7606 0.5099 0.6984
C9_4 C 0.7928(3) 0.6667(3) 0.76358(11)
C10_4 C 0.9945(3) 0.8765(3) 0.71329(11)
C11_4 C 0.9352(3) 0.8182(3) 0.71110(11)
H8_4 H 0.8961 0.8202 0.7092
C12_4 C 0.7475(4) 0.6774(3) 0.84898(12)
H9_4 H 0.7381 0.6793 0.8678
C13_4 C 0.7297(3) 0.7734(3) 0.84074(11)
C14_4 C 0.7468(3) 0.7222(3) 0.83051(10)
C15_4 C 0.7605(2) 0.7173(3) 0.80260(10)
H10_4 H 0.7602 0.7475 0.7897
N4_4 N 0.6072(3) 0.3319(3) 0.69390(10)
C16_4 C 0.6644(4) 0.3878(4) 0.69392(12)
C17_4 C 0.7746(3) 0.6691(3) 0.79334(10)
C18_4 C 0.7622(4) 0.6291(4) 0.83982(13)
H11_4 H 0.7631 0.5990 0.8525
C19_4 C 0.7753(4) 0.6258(3) 0.81223(12)
H12_4 H 0.7848 0.5931 0.8062
C20_4 C 0.9972(4) 0.9420(4) 0.71305(12)
C21_4 C 0.7637(6) 0.9511(4) 0.71590(15)
H13_4 H 0.7219 0.9129 0.7174
C22_4 C 0.8205(6) 0.9469(4) 0.71561(14)
H14_4 H 0.8182 0.9056 0.7169
N9_4 N 0.8448(4) 0.2753(3) 0.69951(9)
C33_4 C 0.8485(6) 0.3941(4) 0.69240(16)
H21_4 H 0.8499 0.4347 0.6899
C34_4 C 0.9072(6) 0.3921(4) 0.69340(17)
H22_4 H 0.9483 0.4309 0.6916
C35_4 C 0.9032(5) 0.3316(4) 0.69701(13)
H23_4 H 0.9424 0.3297 0.6977
C36_4 C 0.7883(4) 0.3363(3) 0.69501(12)
C37_4 C 0.7901(4) 0.2792(3) 0.69776(11)
H24_4 H 0.7494 0.2394 0.6984
N10_4 N 0.7248(4) 0.3928(3) 0.69390(10)
C38_4 C 0.7235(6) 0.3356(4) 0.69392(12)
N11_4 N 0.4306(3) 0.1552(4) 0.69951(9)
C39_4 C 0.5457(4) 0.1515(6) 0.69240(16)
H25_4 H 0.5849 0.1501 0.6899
C40_4 C 0.4850(4) 0.0928(6) 0.69340(17)
H26_4 H 0.4827 0.0517 0.6916
C41_4 C 0.4285(3) 0.0968(5) 0.69701(13)
H27_4 H 0.3874 0.0576 0.6977
C42_4 C 0.5481(3) 0.2117(4) 0.69501(12)
C43_4 C 0.4892(3) 0.2099(4) 0.69776(11)
H28_4 H 0.4901 0.2506 0.6984
N12_4 N 0.6681(3) 0.2752(4) 0.69390(10)
C44_4 C 0.6122(4) 0.2765(6) 0.69392(12)
O5_4 O 0.9158(4) 0.2123(2) 0.74594(8)
O6_4 O 0.8148(3) 0.1884(2) 0.75666(7)
C45_4 C 0.8740(4) 0.2072(3) 0.76358(11)
C46_4 C 0.9300(5) 0.2525(4) 0.84898(12)
H29_4 H 0.9413 0.2619 0.8678
C48_4 C 0.9755(4) 0.2532(3) 0.83051(10)
C49_4 C 0.9569(4) 0.2395(2) 0.80260(10)
H30_4 H 0.9874 0.2398 0.7897
C50_4 C 0.8946(4) 0.2254(3) 0.79334(10)
C51_4 C 0.8670(6) 0.2378(4) 0.83982(13)
H31_4 H 0.8360 0.2369 0.8525
C52_4 C 0.8506(5) 0.2247(4) 0.81223(12)
H32_4 H 0.8084 0.2152 0.8062
O9_4 O 0.2966(3) 0.0842(4) 0.74594(8)
O10_4 O 0.3737(2) 0.1852(3) 0.75666(7)
C53_4 C 0.3333(3) 0.1260(4) 0.76358(11)
C54_4 C 0.3226(3) 0.0700(5) 0.84898(12)
H33_4 H 0.3207 0.0587 0.8678
C56_4 C 0.2778(3) 0.0245(4) 0.83051(10)
C57_4 C 0.2827(3) 0.0431(4) 0.80260(10)
H34_4 H 0.2525 0.0126 0.7897
C58_4 C 0.3309(3) 0.1054(4) 0.79334(10)
C59_4 C 0.3709(4) 0.1330(6) 0.83982(13)
H35_4 H 0.4010 0.1640 0.8525
C60_4 C 0.3742(3) 0.1494(5) 0.81223(12)
H36_4 H 0.4069 0.1916 0.8062
Cd6_3 Cd 0.66066(2) 0.82764(2) 0.79063(2)
Cd9_4 Cd 0.67267(2) 0.83903(2) 0.87604(2)
O13_3 O 0.8079(2) 0.7202(2) 0.67673(8)
O14_3 O 0.9122(3) 0.1921(2) 0.67673(8)
O15_3 O 0.2798(2) 0.0878(3) 0.67673(8)
O16_4 O 0.8865(2) 0.6070(2) 0.69998(7)
O17_4 O 0.7204(3) 0.1135(2) 0.69998(7)
O18_4 O 0.3930(2) 0.2796(3) 0.69998(7)
O11_3 O 0.1921(2) 0.9122(3) 0.82327(8)
O12_4 O 0.2199(2) 0.9462(3) 0.86664(7)
C55_4 C 0.2266(3) 0.9562(4) 0.84074(11)
Cd8_3 Cd 0.17236(2) 0.83303(3) 0.79063(2)
Cd11_4 Cd 0.16097(2) 0.83364(3) 0.87604(2)
N6_5 N 0.0600(3) 0.0021(4) 0.78712(10)
N7_5 N 0.1722(4) 0.2415(3) 0.78847(9)
C27_5 C 0.2363(6) 0.1875(4) 0.78410(15)
H17_5 H 0.2781 0.1911 0.7826
C28_5 C 0.1795(6) 0.1265(4) 0.78439(14)
H18_5 H 0.1818 0.0875 0.7831
C29_5 C 0.2301(6) 0.2437(4) 0.78619(13)
H19_5 H 0.2689 0.2854 0.7860
C30_5 C 0.1179(4) 0.1235(3) 0.78671(11)
C31_5 C 0.1169(4) 0.1818(3) 0.78890(11)
H20_5 H 0.0758 0.1798 0.7908
C32_5 C 0.0551(6) 0.0580(4) 0.78695(12)
N5_5 N 0.0692(3) 0.8278(4) 0.78847(9)
C23_5 C 0.0135(4) 0.7699(6) 0.78619(13)
H15_5 H 0.0164 0.7311 0.7860
C24_5 C 0.0055(3) 0.8821(4) 0.78671(11)
C25_5 C 0.0648(3) 0.8831(4) 0.78890(11)
H16_5 H 0.1039 0.9242 0.7908
C26_5 C 0.0028(4) 0.9449(6) 0.78695(12)
C4_5 C 0.8125(4) 0.0489(4) 0.78410(15)
H4_5 H 0.8089 0.0871 0.7826
C5_5 C 0.8735(4) 0.0531(4) 0.78439(14)
H5_5 H 0.9125 0.0944 0.7831
N8_5 N 0.9979(4) 0.0580(3) 0.78712(10)
O8_5 O 0.2736(2) 0.0538(3) 0.63336(7)
C47_5 C 0.2703(3) 0.0438(4) 0.65926(11)
Cd10_5 Cd 0.32733(2) 0.16636(3) 0.62396(2)
O1_5 O 0.7034(3) 0.7877(2) 0.75406(8)
O2_5 O 0.6263(2) 0.8116(2) 0.74334(7)
O4_5 O 0.7801(2) 0.7264(2) 0.63336(7)
N1_5 N 0.7585(3) 0.9308(3) 0.78847(9)
N2_5 N 0.5694(3) 0.7247(3) 0.80049(9)
N3_5 N 0.9420(3) 0.9400(3) 0.78712(10)
C1_5 C 0.4543(4) 0.6059(4) 0.80760(16)
H1_5 H 0.4151 0.5653 0.8101
C2_5 C 0.5150(4) 0.6079(4) 0.80660(17)
H2_5 H 0.5173 0.5691 0.8084
C3_5 C 0.5715(3) 0.6684(4) 0.80299(13)
H3_5 H 0.6126 0.6703 0.8023
C6_5 C 0.7563(4) 0.9865(4) 0.78619(13)
H6_5 H 0.7146 0.9836 0.7860
C7_5 C 0.4519(3) 0.6637(3) 0.80499(12)
C8_5 C 0.5108(3) 0.7208(3) 0.80224(11)
H7_5 H 0.5099 0.7606 0.8016
C9_5 C 0.6667(3) 0.7928(3) 0.73642(11)
C10_5 C 0.8765(3) 0.9945(3) 0.78671(11)
C11_5 C 0.8182(3) 0.9352(3) 0.78890(11)
H8_5 H 0.8202 0.8961 0.7908
C12_5 C 0.6774(3) 0.7475(4) 0.65102(12)
H9_5 H 0.6793 0.7381 0.6322
C13_5 C 0.7734(3) 0.7297(3) 0.65926(11)
C14_5 C 0.7222(3) 0.7468(3) 0.66949(10)
C15_5 C 0.7173(3) 0.7605(2) 0.69740(10)
H10_5 H 0.7475 0.7602 0.7103
N4_5 N 0.3319(3) 0.6072(3) 0.80610(10)
C16_5 C 0.3878(4) 0.6644(4) 0.80608(12)
C17_5 C 0.6691(3) 0.7746(3) 0.70666(10)
C18_5 C 0.6291(4) 0.7622(4) 0.66018(13)
H11_5 H 0.5990 0.7631 0.6475
C19_5 C 0.6258(3) 0.7753(4) 0.68777(12)
H12_5 H 0.5931 0.7848 0.6938
C20_5 C 0.9420(4) 0.9972(4) 0.78695(12)
C21_5 C 0.9511(4) 0.7637(6) 0.78410(15)
H13_5 H 0.9129 0.7219 0.7826
C22_5 C 0.9469(4) 0.8205(6) 0.78439(14)
H14_5 H 0.9056 0.8182 0.7831
N9_5 N 0.2753(3) 0.8448(4) 0.80049(9)
C33_5 C 0.3941(4) 0.8485(6) 0.80760(16)
H21_5 H 0.4347 0.8499 0.8101
C34_5 C 0.3921(4) 0.9072(6) 0.80660(17)
H22_5 H 0.4309 0.9483 0.8084
C35_5 C 0.3316(4) 0.9032(5) 0.80299(13)
H23_5 H 0.3297 0.9424 0.8023
C36_5 C 0.3363(3) 0.7883(4) 0.80499(12)
C37_5 C 0.2792(3) 0.7901(4) 0.80224(11)
H24_5 H 0.2394 0.7494 0.8016
N10_5 N 0.3928(3) 0.7248(4) 0.80610(10)
C38_5 C 0.3356(4) 0.7235(6) 0.80608(12)
N11_5 N 0.1552(4) 0.4306(3) 0.80049(9)
C39_5 C 0.1515(6) 0.5457(4) 0.80760(16)
H25_5 H 0.1501 0.5849 0.8101
C40_5 C 0.0928(6) 0.4850(4) 0.80660(17)
H26_5 H 0.0517 0.4827 0.8084
C41_5 C 0.0968(5) 0.4285(3) 0.80299(13)
H27_5 H 0.0576 0.3874 0.8023
C42_5 C 0.2117(4) 0.5481(3) 0.80499(12)
C43_5 C 0.2099(4) 0.4892(3) 0.80224(11)
H28_5 H 0.2506 0.4901 0.8016
N12_5 N 0.2752(4) 0.6681(3) 0.80610(10)
C44_5 C 0.2765(6) 0.6122(4) 0.80608(12)
O5_5 O 0.2123(2) 0.9158(4) 0.75406(8)
O6_5 O 0.1884(2) 0.8148(3) 0.74334(7)
C45_5 C 0.2072(3) 0.8740(4) 0.73642(11)
C46_5 C 0.2525(4) 0.9300(5) 0.65102(12)
H29_5 H 0.2619 0.9413 0.6322
C48_5 C 0.2532(3) 0.9755(4) 0.66949(10)
C49_5 C 0.2395(2) 0.9569(4) 0.69740(10)
H30_5 H 0.2398 0.9874 0.7103
C50_5 C 0.2254(3) 0.8946(4) 0.70666(10)
C51_5 C 0.2378(4) 0.8670(6) 0.66018(13)
H31_5 H 0.2369 0.8360 0.6475
C52_5 C 0.2247(4) 0.8506(5) 0.68777(12)
H32_5 H 0.2152 0.8084 0.6938
O9_5 O 0.0842(4) 0.2966(3) 0.75406(8)
O10_5 O 0.1852(3) 0.3737(2) 0.74334(7)
C53_5 C 0.1260(4) 0.3333(3) 0.73642(11)
C54_5 C 0.0700(5) 0.3226(3) 0.65102(12)
H33_5 H 0.0587 0.3207 0.6322
C56_5 C 0.0245(4) 0.2778(3) 0.66949(10)
C57_5 C 0.0431(4) 0.2827(3) 0.69740(10)
H34_5 H 0.0126 0.2525 0.7103
C58_5 C 0.1054(4) 0.3309(3) 0.70666(10)
C59_5 C 0.1330(6) 0.3709(4) 0.66018(13)
H35_5 H 0.1640 0.4010 0.6475
C60_5 C 0.1494(5) 0.3742(3) 0.68777(12)
H36_5 H 0.1916 0.4069 0.6938
Cd9_5 Cd 0.83903(2) 0.67267(2) 0.62396(2)
O16_5 O 0.6070(2) 0.8865(2) 0.80002(7)
O17_5 O 0.1135(2) 0.7204(3) 0.80002(7)
O18_5 O 0.2796(3) 0.3930(2) 0.80002(7)
O12_5 O 0.9462(3) 0.2199(2) 0.63336(7)
C55_5 C 0.9562(4) 0.2266(3) 0.65926(11)
Cd11_5 Cd 0.83364(3) 0.16097(2) 0.62396(2)
O1_6 O 0.4543(2) 0.0368(3) 0.07928(8)
O4_6 O 0.3930(2) 0.1135(2) 0.19998(7)
N1_6 N 0.5974(3) 0.0919(3) 0.04487(9)
N3_6 N 0.6066(3) 0.2754(3) 0.04622(10)
C4_6 C 0.7155(4) 0.1459(4) 0.04924(15)
H4_6 H 0.7537 0.1423 0.0508
C5_6 C 0.7197(4) 0.2069(4) 0.04895(14)
H5_6 H 0.7610 0.2459 0.0503
C6_6 C 0.6531(4) 0.0897(4) 0.04715(13)
H6_6 H 0.6502 0.0480 0.0474
C9_6 C 0.4594(3) 0.0001(3) 0.09692(11)
C10_6 C 0.6611(3) 0.2099(3) 0.04663(11)
C11_6 C 0.6018(3) 0.1516(3) 0.04444(11)
H8_6 H 0.5627 0.1536 0.0426
C12_6 C 0.4141(4) 0.0108(3) 0.18232(12)
H9_6 H 0.4047 0.0127 0.2012
C13_6 C 0.3963(3) 0.1068(3) 0.17408(11)
C14_6 C 0.4134(3) 0.0556(3) 0.16385(10)
C15_6 C 0.4271(2) 0.0507(3) 0.13594(10)
H10_6 H 0.4268 0.0809 0.1231
C17_6 C 0.4412(3) 0.0025(3) 0.12668(10)
C20_6 C 0.6638(4) 0.2754(4) 0.04639(12)
N5_6 N 0.4944(4) 0.4026(3) 0.04487(9)
N6_6 N 0.6687(4) 0.3934(3) 0.04622(10)
C21_6 C 0.4303(6) 0.2845(4) 0.04924(15)
H13_6 H 0.3885 0.2463 0.0508
C22_6 C 0.4871(6) 0.2803(4) 0.04895(14)
H14_6 H 0.4848 0.2390 0.0503
C23_6 C 0.4365(6) 0.3469(4) 0.04715(13)
H15_6 H 0.3977 0.3498 0.0474
C24_6 C 0.5487(4) 0.3389(3) 0.04663(11)
C25_6 C 0.5497(4) 0.3982(3) 0.04444(11)
H16_6 H 0.5908 0.4373 0.0426
C26_6 C 0.6115(6) 0.3362(4) 0.04639(12)
N7_6 N 0.9081(3) 0.5056(4) 0.04487(9)
N8_6 N 0.7246(3) 0.3313(4) 0.04622(10)
C27_6 C 0.8541(4) 0.5697(6) 0.04924(15)
H17_6 H 0.8577 0.6115 0.0508
C28_6 C 0.7931(4) 0.5129(6) 0.04895(14)
H18_6 H 0.7541 0.5152 0.0503
C29_6 C 0.9103(4) 0.5635(6) 0.04715(13)
H19_6 H 0.9520 0.6023 0.0474
C30_6 C 0.7901(3) 0.4513(4) 0.04663(11)
C31_6 C 0.8484(3) 0.4503(4) 0.04444(11)
H20_6 H 0.8464 0.4092 0.0426
C32_6 C 0.7246(4) 0.3885(6) 0.04639(12)
Cd9_6 Cd 0.33934(2) 0.17236(2) 0.20937(2)
O2_6 O 0.4782(2) 0.9597(2) 0.09000(7)
N2_6 N 0.3913(3) 0.9028(3) 0.03285(9)
C1_6 C 0.2725(4) 0.7877(4) 0.02574(16)
H1_6 H 0.2319 0.7485 0.0233
C2_6 C 0.2745(4) 0.8484(4) 0.02674(17)
H2_6 H 0.2357 0.8507 0.0250
C3_6 C 0.3350(4) 0.9049(3) 0.03035(13)
H3_6 H 0.3369 0.9460 0.0311
C7_6 C 0.3303(3) 0.7853(3) 0.02835(12)
C8_6 C 0.3874(3) 0.8442(3) 0.03110(11)
H7_6 H 0.4272 0.8433 0.0318
N4_6 N 0.2738(3) 0.6653(3) 0.02724(10)
C16_6 C 0.3310(4) 0.7212(4) 0.02726(12)
C18_6 C 0.4288(4) 0.9625(4) 0.17316(13)
H11_6 H 0.4297 0.9324 0.1859
C19_6 C 0.4419(4) 0.9592(3) 0.14557(12)
H12_6 H 0.4514 0.9265 0.1396
N9_6 N 0.5114(4) 0.6087(3) 0.03285(9)
C33_6 C 0.5151(6) 0.7275(4) 0.02574(16)
H21_6 H 0.5165 0.7681 0.0233
C34_6 C 0.5738(6) 0.7255(4) 0.02674(17)
H22_6 H 0.6149 0.7643 0.0250
C35_6 C 0.5698(5) 0.6650(4) 0.03035(13)
H23_6 H 0.6090 0.6631 0.0311
C36_6 C 0.4549(4) 0.6697(3) 0.02835(12)
C37_6 C 0.4567(4) 0.6126(3) 0.03110(11)
H24_6 H 0.4160 0.5728 0.0318
N10_6 N 0.3914(4) 0.7262(3) 0.02724(10)
C38_6 C 0.3901(6) 0.6690(4) 0.02726(12)
N11_6 N 0.0972(3) 0.4886(4) 0.03285(9)
C39_6 C 0.2123(4) 0.4849(6) 0.02574(16)
H25_6 H 0.2515 0.4835 0.0233
C40_6 C 0.1516(4) 0.4262(6) 0.02674(17)
H26_6 H 0.1493 0.3851 0.0250
C41_6 C 0.0951(3) 0.4302(5) 0.03035(13)
H27_6 H 0.0540 0.3910 0.0311
C42_6 C 0.2147(3) 0.5451(4) 0.02835(12)
C43_6 C 0.1558(3) 0.5433(4) 0.03110(11)
H28_6 H 0.1567 0.5840 0.0318
N12_6 N 0.3347(3) 0.6086(4) 0.02724(10)
C44_6 C 0.2788(4) 0.6099(6) 0.02726(12)
O5_6 O 0.5824(4) 0.5457(2) 0.07928(8)
O6_6 O 0.4814(3) 0.5218(2) 0.09000(7)
O8_6 O 0.7204(3) 0.6070(2) 0.19998(7)
C45_6 C 0.5406(4) 0.5406(3) 0.09692(11)
C46_6 C 0.5966(5) 0.5859(4) 0.18232(12)
H29_6 H 0.6079 0.5953 0.2012
C47_6 C 0.7104(4) 0.6037(3) 0.17408(11)
C48_6 C 0.6421(4) 0.5866(3) 0.16385(10)
C49_6 C 0.6235(4) 0.5729(2) 0.13594(10)
H30_6 H 0.6540 0.5732 0.1231
C50_6 C 0.5612(4) 0.5588(3) 0.12668(10)
C51_6 C 0.5336(6) 0.5712(4) 0.17316(13)
H31_6 H 0.5026 0.5703 0.1859
C52_6 C 0.5172(5) 0.5581(4) 0.14557(12)
H32_6 H 0.4750 0.5486 0.1396
O10_6 O 0.0403(2) 0.5186(3) 0.09000(7)
C59_6 C 0.0375(4) 0.4664(6) 0.17316(13)
H35_6 H 0.0676 0.4974 0.1859
C60_6 C 0.0408(3) 0.4828(5) 0.14557(12)
H36_6 H 0.0735 0.5250 0.1396
Cd10_6 Cd 0.83303(3) 0.66066(2) 0.20937(2)
O16_6 O 0.5532(2) 0.9403(2) 0.03331(7)
O17_6 O 0.3871(3) 0.4468(2) 0.03331(7)
O18_6 O 0.0597(2) 0.6129(3) 0.03331(7)
O9_6 O 0.9632(3) 0.4176(4) 0.07928(8)
O12_6 O 0.8865(2) 0.2796(3) 0.19998(7)
C53_6 C 0.9999(3) 0.4594(4) 0.09692(11)
C54_6 C 0.9892(3) 0.4034(5) 0.18232(12)
H33_6 H 0.9873 0.3921 0.2012
C55_6 C 0.8932(3) 0.2896(4) 0.17408(11)
C56_6 C 0.9444(3) 0.3579(4) 0.16385(10)
C57_6 C 0.9493(3) 0.3765(4) 0.13594(10)
H34_6 H 0.9191 0.3460 0.1231
C58_6 C 0.9975(3) 0.4388(4) 0.12668(10)
Cd11_6 Cd 0.82764(2) 0.16697(3) 0.20937(2)
C54_7 C 0.2633(5) 0.3441(3) 0.01565(12)
H33_7 H 0.2746 0.3460 0.0345
C55_7 C 0.3771(4) 0.4401(3) 0.00741(11)
C59_7 C 0.2003(6) 0.2958(4) 0.00649(13)
H35_7 H 0.1693 0.2657 0.0192
N4_7 N 0.0014(3) 0.0595(3) 0.86057(10)
N11_7 N 0.1781(4) 0.2361(3) 0.86618(9)
C39_7 C 0.1818(6) 0.1210(4) 0.85907(16)
H25_7 H 0.1832 0.0818 0.8566
C40_7 C 0.2405(6) 0.1817(4) 0.86007(17)
H26_7 H 0.2816 0.1840 0.8583
C41_7 C 0.2365(5) 0.2382(3) 0.86368(13)
H27_7 H 0.2757 0.2793 0.8644
C42_7 C 0.1216(4) 0.1186(3) 0.86168(12)
C43_7 C 0.1234(4) 0.1775(3) 0.86443(11)
H28_7 H 0.0827 0.1766 0.8651
C44_7 C 0.0568(6) 0.0545(4) 0.86059(12)
O9_7 O 0.2491(4) 0.3701(3) 0.91261(8)
O10_7 O 0.1481(3) 0.2930(2) 0.92333(7)
O11_4 O 0.4211(3) 0.4746(2) 0.98994(8)
C53_7 C 0.2073(4) 0.3334(3) 0.93025(11)
C56_7 C 0.3088(4) 0.3889(3) 0.99718(10)
C57_7 C 0.2902(4) 0.3840(3) 0.96927(10)
H34_7 H 0.3207 0.4142 0.9564
C58_7 C 0.2279(4) 0.3358(3) 0.96001(10)
C60_7 C 0.1839(5) 0.2925(3) 0.97890(12)
H36_7 H 0.1417 0.2598 0.9729
O15_4 O 0.2456(3) 0.3868(2) 0.84339(8)
N14 N 0.1611(4) 0.4252(3) 0.87820(9)
C46_7 C 0.0808(4) 0.7367(5) 0.01565(12)
H29_7 H 0.0714 0.7254 0.0345
C47_7 C 0.0630(3) 0.6229(4) 0.00741(11)
C51_7 C 0.0955(4) 0.7997(6) 0.00649(13)
H31_7 H 0.0964 0.8307 0.0192
N9_7 N 0.0580(3) 0.8219(4) 0.86618(9)
C35_7 C 0.0017(4) 0.7635(5) 0.86368(13)
H23_7 H 0.0036 0.7243 0.8644
C37_7 C 0.0541(3) 0.8766(4) 0.86443(11)
H24_7 H 0.0939 0.9173 0.8651
N12_7 N 0.0581(4) 0.9986(3) 0.86057(10)
O5_7 O 0.1210(2) 0.7509(4) 0.91261(8)
O6_7 O 0.1449(2) 0.8519(3) 0.92333(7)
O7_4 O 0.0535(2) 0.5789(3) 0.98994(8)
C45_7 C 0.1261(3) 0.7927(4) 0.93025(11)
C48_7 C 0.0801(3) 0.6912(4) 0.99718(10)
C49_7 C 0.0938(2) 0.7098(4) 0.96927(10)
H30_7 H 0.0935 0.6793 0.9564
C50_7 C 0.1079(3) 0.7721(4) 0.96001(10)
C52_7 C 0.1086(4) 0.8161(5) 0.97890(12)
H32_7 H 0.1181 0.8583 0.9729
O14_4 O 0.1413(2) 0.7544(3) 0.84339(8)
N13 N 0.2641(3) 0.8389(4) 0.87820(9)
C1_7 C 0.8790(4) 0.0608(4) 0.85907(16)
H1_7 H 0.9182 0.1014 0.8566
C2_7 C 0.8183(4) 0.0588(4) 0.86007(17)
H2_7 H 0.8160 0.0976 0.8583
C7_7 C 0.8814(3) 0.0030(3) 0.86168(12)
C16_7 C 0.9455(4) 0.0023(4) 0.86059(12)
C12_7 C 0.6559(3) 0.9192(4) 0.01565(12)
H9_7 H 0.6540 0.9286 0.0345
C13_7 C 0.5599(3) 0.9370(3) 0.00741(11)
C18_7 C 0.7042(4) 0.9045(4) 0.00649(13)
H11_7 H 0.7343 0.9036 0.0192
O1_7 O 0.6299(3) 0.8790(2) 0.91261(8)
O2_7 O 0.7070(2) 0.8551(2) 0.92333(7)
O3_4 O 0.5254(2) 0.9465(2) 0.98994(8)
N1_7 N 0.5748(3) 0.7359(3) 0.87820(9)
N2_7 N 0.7639(3) 0.9420(3) 0.86618(9)
N3_7 N 0.3913(3) 0.7267(3) 0.87955(10)
C3_7 C 0.7618(3) 0.9983(4) 0.86368(13)
H3_7 H 0.7207 0.9964 0.8644
C4_7 C 0.5208(4) 0.6178(4) 0.88257(15)
H4_7 H 0.5244 0.5796 0.8841
C5_7 C 0.4598(4) 0.6136(4) 0.88228(14)
H5_7 H 0.4208 0.5723 0.8836
C6_7 C 0.5770(4) 0.6802(4) 0.88048(13)
H6_7 H 0.6187 0.6831 0.8807
C8_7 C 0.8225(3) 0.9459(3) 0.86443(11)
H7_7 H 0.8234 0.9061 0.8651
C9_7 C 0.6666(3) 0.8739(3) 0.93025(11)
C10_7 C 0.4568(3) 0.6722(3) 0.87996(11)
C11_7 C 0.5151(3) 0.7315(3) 0.87777(11)
H8_7 H 0.5131 0.7706 0.8759
C14_7 C 0.6111(3) 0.9199(3) 0.99718(10)
C15_7 C 0.6160(3) 0.9062(2) 0.96927(10)
H10_7 H 0.5858 0.9065 0.9564
C17_7 C 0.6642(3) 0.8921(3) 0.96001(10)
C19_7 C 0.7075(3) 0.8914(4) 0.97890(12)
H12_7 H 0.7402 0.8819 0.9729
C20_7 C 0.3913(4) 0.6695(4) 0.87972(12)
N6_7 N 0.2733(3) 0.6646(4) 0.87955(10)
C21_7 C 0.3822(4) 0.9030(6) 0.88257(15)
H13_7 H 0.4204 0.9448 0.8841
C22_7 C 0.3864(4) 0.8462(6) 0.88228(14)
H14_7 H 0.4277 0.8485 0.8836
C23_7 C 0.3198(4) 0.8968(6) 0.88048(13)
H15_7 H 0.3169 0.9356 0.8807
C24_7 C 0.3278(3) 0.7846(4) 0.87996(11)
C25_7 C 0.2685(3) 0.7836(4) 0.87777(11)
H16_7 H 0.2294 0.7425 0.8759
C26_7 C 0.3305(4) 0.7218(6) 0.87972(12)
N8_7 N 0.3354(4) 0.6087(3) 0.87955(10)
C27_7 C 0.0970(6) 0.4792(4) 0.88257(15)
H17_7 H 0.0552 0.4756 0.8841
C28_7 C 0.1538(6) 0.5402(4) 0.88228(14)
H18_7 H 0.1515 0.5792 0.8836
C29_7 C 0.1032(6) 0.4230(4) 0.88048(13)
H19_7 H 0.0644 0.3813 0.8807
C30_7 C 0.2154(4) 0.5432(3) 0.87996(11)
C31_7 C 0.2164(4) 0.4849(3) 0.87777(11)
H20_7 H 0.2575 0.4869 0.8759
C32_7 C 0.2782(6) 0.6087(4) 0.87972(12)
C33_7 C 0.9392(4) 0.8182(6) 0.85907(16)
H21_7 H 0.8986 0.8168 0.8566
C34_7 C 0.9412(4) 0.7595(6) 0.86007(17)
H22_7 H 0.9024 0.7184 0.8583
C36_7 C 0.9970(3) 0.8784(4) 0.86168(12)
N10_7 N 0.9405(3) 0.9419(4) 0.86057(10)
C38_7 C 0.9977(4) 0.9432(6) 0.86059(12)
O13_4 O 0.6132(2) 0.8587(2) 0.84339(8)
N4_8 N 0.0595(3) 0.0014(3) 0.63943(10)
N11_8 N 0.2361(3) 0.1781(4) 0.63382(9)
C39_8 C 0.1210(4) 0.1818(6) 0.64093(16)
H25_8 H 0.0818 0.1832 0.6434
C40_8 C 0.1817(4) 0.2405(6) 0.63993(17)
H26_8 H 0.1840 0.2816 0.6417
C41_8 C 0.2382(3) 0.2365(5) 0.63632(13)
H27_8 H 0.2793 0.2757 0.6356
C42_8 C 0.1186(3) 0.1216(4) 0.63832(12)
C43_8 C 0.1775(3) 0.1234(4) 0.63557(11)
H28_8 H 0.1766 0.0827 0.6349
C44_8 C 0.0545(4) 0.0568(6) 0.63941(12)
O9_8 O 0.3701(3) 0.2491(4) 0.58739(8)
O10_8 O 0.2930(2) 0.1481(3) 0.57667(7)
O11_5 O 0.4746(2) 0.4211(3) 0.51006(8)
C53_8 C 0.3334(3) 0.2073(4) 0.56975(11)
C54_8 C 0.3441(3) 0.2633(5) 0.48435(12)
H33_8 H 0.3460 0.2746 0.4655
C55_8 C 0.4401(3) 0.3771(4) 0.49259(11)
C56_8 C 0.3889(3) 0.3088(4) 0.50282(10)
C57_8 C 0.3840(3) 0.2902(4) 0.53073(10)
H34_8 H 0.4142 0.3207 0.5436
C58_8 C 0.3358(3) 0.2279(4) 0.53999(10)
C59_8 C 0.2958(4) 0.2003(6) 0.49351(13)
H35_8 H 0.2657 0.1693 0.4808
C60_8 C 0.2925(3) 0.1839(5) 0.52110(12)
H36_8 H 0.2598 0.1417 0.5271
O15_5 O 0.3868(2) 0.2456(3) 0.65661(8)
N14_2 N 0.4252(3) 0.1611(4) 0.62180(9)
C1_8 C 0.0608(4) 0.8790(4) 0.64093(16)
H1_8 H 0.1014 0.9182 0.6434
C2_8 C 0.0588(4) 0.8183(4) 0.63993(17)
H2_8 H 0.0976 0.8160 0.6417
C7_8 C 0.0030(3) 0.8814(3) 0.63832(12)
C16_8 C 0.0023(4) 0.9455(4) 0.63941(12)
N9_8 N 0.8219(4) 0.0580(3) 0.63382(9)
C35_8 C 0.7635(5) 0.0017(4) 0.63632(13)
H23_8 H 0.7243 0.0036 0.6356
C37_8 C 0.8766(4) 0.0541(3) 0.63557(11)
H24_8 H 0.9173 0.0939 0.6349
N12_8 N 0.9986(3) 0.0581(4) 0.63943(10)
O5_8 O 0.7509(4) 0.1210(2) 0.58739(8)
O6_8 O 0.8519(3) 0.1449(2) 0.57667(7)
O7_5 O 0.5789(3) 0.0535(2) 0.51006(8)
C45_8 C 0.7927(4) 0.1261(3) 0.56975(11)
C46_8 C 0.7367(5) 0.0808(4) 0.48435(12)
H29_8 H 0.7254 0.0714 0.4655
C47_8 C 0.6229(4) 0.0630(3) 0.49259(11)
C48_8 C 0.6912(4) 0.0801(3) 0.50282(10)
C49_8 C 0.7098(4) 0.0938(2) 0.53073(10)
H30_8 H 0.6793 0.0935 0.5436
C50_8 C 0.7721(4) 0.1079(3) 0.53999(10)
C51_8 C 0.7997(6) 0.0955(4) 0.49351(13)
H31_8 H 0.8307 0.0964 0.4808
C52_8 C 0.8161(5) 0.1086(4) 0.52110(12)
H32_8 H 0.8583 0.1181 0.5271
O14_5 O 0.7544(3) 0.1413(2) 0.65661(8)
N13_2 N 0.8389(4) 0.2641(3) 0.62180(9)
O1_8 O 0.8790(2) 0.6299(3) 0.58739(8)
O2_8 O 0.8551(2) 0.7070(2) 0.57667(7)
O3_5 O 0.9465(2) 0.5254(2) 0.51006(8)
N1_8 N 0.7359(3) 0.5748(3) 0.62180(9)
N2_8 N 0.9420(3) 0.7639(3) 0.63382(9)
N3_8 N 0.7267(3) 0.3913(3) 0.62045(10)
C3_8 C 0.9983(4) 0.7618(3) 0.63632(13)
H3_8 H 0.9964 0.7207 0.6356
C4_8 C 0.6178(4) 0.5208(4) 0.61743(15)
H4_8 H 0.5796 0.5244 0.6159
C5_8 C 0.6136(4) 0.4598(4) 0.61772(14)
H5_8 H 0.5723 0.4208 0.6164
C6_8 C 0.6802(4) 0.5770(4) 0.61952(13)
H6_8 H 0.6831 0.6187 0.6193
C8_8 C 0.9459(3) 0.8225(3) 0.63557(11)
H7_8 H 0.9061 0.8234 0.6349
C9_8 C 0.8739(3) 0.6666(3) 0.56975(11)
C10_8 C 0.6722(3) 0.4568(3) 0.62004(11)
C11_8 C 0.7315(3) 0.5151(3) 0.62223(11)
H8_8 H 0.7706 0.5131 0.6241
C12_8 C 0.9192(4) 0.6559(3) 0.48435(12)
H9_8 H 0.9286 0.6540 0.4655
C13_8 C 0.9370(3) 0.5599(3) 0.49259(11)
C14_8 C 0.9199(3) 0.6111(3) 0.50282(10)
C15_8 C 0.9062(2) 0.6160(3) 0.53073(10)
H10_8 H 0.9065 0.5858 0.5436
C17_8 C 0.8921(3) 0.6642(3) 0.53999(10)
C18_8 C 0.9045(4) 0.7042(4) 0.49351(13)
H11_8 H 0.9036 0.7343 0.4808
C19_8 C 0.8914(4) 0.7075(3) 0.52110(12)
H12_8 H 0.8819 0.7402 0.5271
C20_8 C 0.6695(4) 0.3913(4) 0.62028(12)
N6_8 N 0.6646(4) 0.2733(3) 0.62045(10)
C21_8 C 0.9030(6) 0.3822(4) 0.61743(15)
H13_8 H 0.9448 0.4204 0.6159
C22_8 C 0.8462(6) 0.3864(4) 0.61772(14)
H14_8 H 0.8485 0.4277 0.6164
C23_8 C 0.8968(6) 0.3198(4) 0.61952(13)
H15_8 H 0.9356 0.3169 0.6193
C24_8 C 0.7846(4) 0.3278(3) 0.62004(11)
C25_8 C 0.7836(4) 0.2685(3) 0.62223(11)
H16_8 H 0.7425 0.2294 0.6241
C26_8 C 0.7218(6) 0.3305(4) 0.62028(12)
N8_8 N 0.6087(3) 0.3354(4) 0.62045(10)
C27_8 C 0.4792(4) 0.0970(6) 0.61743(15)
H17_8 H 0.4756 0.0552 0.6159
C28_8 C 0.5402(4) 0.1538(6) 0.61772(14)
H18_8 H 0.5792 0.1515 0.6164
C29_8 C 0.4230(4) 0.1032(6) 0.61952(13)
H19_8 H 0.3813 0.0644 0.6193
C30_8 C 0.5432(3) 0.2154(4) 0.62004(11)
C31_8 C 0.4849(3) 0.2164(4) 0.62223(11)
H20_8 H 0.4869 0.2575 0.6241
C32_8 C 0.6087(4) 0.2782(6) 0.62028(12)
C33_8 C 0.8182(6) 0.9392(4) 0.64093(16)
H21_8 H 0.8168 0.8986 0.6434
C34_8 C 0.7595(6) 0.9412(4) 0.63993(17)
H22_8 H 0.7184 0.9024 0.6417
C36_8 C 0.8784(4) 0.9970(3) 0.63832(12)
N10_8 N 0.9419(4) 0.9405(3) 0.63943(10)
C38_8 C 0.9432(6) 0.9977(4) 0.63941(12)
O13_5 O 0.8587(2) 0.6132(2) 0.65661(8)
O9_9 O 0.5824(4) 0.0368(3) 0.57928(8)
C53_9 C 0.5406(4) 0.0001(3) 0.59692(11)
C54_9 C 0.5966(5) 0.0108(3) 0.68232(12)
H33_9 H 0.6079 0.0127 0.7012
C55_9 C 0.7104(4) 0.1068(3) 0.67408(11)
C56_9 C 0.6421(4) 0.0556(3) 0.66385(10)
C57_9 C 0.6235(4) 0.0507(3) 0.63594(10)
H34_9 H 0.6540 0.0809 0.6231
C58_9 C 0.5612(4) 0.0025(3) 0.62668(10)
N14_3 N 0.4944(4) 0.0919(3) 0.54487(9)
O2_9 O 0.0403(2) 0.5218(2) 0.59000(7)
N2_9 N 0.0972(3) 0.6087(3) 0.53285(9)
C1_9 C 0.2123(4) 0.7275(4) 0.52574(16)
H1_9 H 0.2515 0.7681 0.5233
C2_9 C 0.1516(4) 0.7255(4) 0.52674(17)
H2_9 H 0.1493 0.7643 0.5250
C3_9 C 0.0951(3) 0.6650(4) 0.53035(13)
H3_9 H 0.0540 0.6631 0.5311
C7_9 C 0.2147(3) 0.6697(3) 0.52835(12)
C8_9 C 0.1558(3) 0.6126(3) 0.53110(11)
H7_9 H 0.1567 0.5728 0.5318
N4_9 N 0.3347(3) 0.7262(3) 0.52724(10)
C16_9 C 0.2788(4) 0.6690(4) 0.52726(12)
C18_9 C 0.0375(4) 0.5712(4) 0.67316(13)
H11_9 H 0.0676 0.5703 0.6859
C19_9 C 0.0408(3) 0.5581(4) 0.64557(12)
H12_9 H 0.0735 0.5486 0.6396
N9_9 N 0.3913(3) 0.4886(4) 0.53285(9)
C33_9 C 0.2725(4) 0.4849(6) 0.52574(16)
H21_9 H 0.2319 0.4835 0.5233
C34_9 C 0.2745(4) 0.4262(6) 0.52674(17)
H22_9 H 0.2357 0.3851 0.5250
C35_9 C 0.3350(4) 0.4302(5) 0.53035(13)
H23_9 H 0.3369 0.3910 0.5311
C36_9 C 0.3303(3) 0.5451(4) 0.52835(12)
C37_9 C 0.3874(3) 0.5433(4) 0.53110(11)
H24_9 H 0.4272 0.5840 0.5318
N10_9 N 0.2738(3) 0.6086(4) 0.52724(10)
C38_9 C 0.3310(4) 0.6099(6) 0.52726(12)
N11_9 N 0.5114(4) 0.9028(3) 0.53285(9)
C39_9 C 0.5151(6) 0.7877(4) 0.52574(16)
H25_9 H 0.5165 0.7485 0.5233
C40_9 C 0.5738(6) 0.8484(4) 0.52674(17)
H26_9 H 0.6149 0.8507 0.5250
C41_9 C 0.5698(5) 0.9049(3) 0.53035(13)
H27_9 H 0.6090 0.9460 0.5311
C42_9 C 0.4549(4) 0.7853(3) 0.52835(12)
C43_9 C 0.4567(4) 0.8442(3) 0.53110(11)
H28_9 H 0.4160 0.8433 0.5318
N12_9 N 0.3914(4) 0.6653(3) 0.52724(10)
C44_9 C 0.3901(6) 0.7212(4) 0.52726(12)
O5_9 O 0.4543(2) 0.4176(4) 0.57928(8)
O6_9 O 0.4782(2) 0.5186(3) 0.59000(7)
C45_9 C 0.4594(3) 0.4594(4) 0.59692(11)
C46_9 C 0.4141(4) 0.4034(5) 0.68232(12)
H29_9 H 0.4047 0.3921 0.7012
C47_9 C 0.3963(3) 0.2896(4) 0.67408(11)
C48_9 C 0.4134(3) 0.3579(4) 0.66385(10)
C49_9 C 0.4271(2) 0.3765(4) 0.63594(10)
H30_9 H 0.4268 0.3460 0.6231
C50_9 C 0.4412(3) 0.4388(4) 0.62668(10)
C51_9 C 0.4288(4) 0.4664(6) 0.67316(13)
H31_9 H 0.4297 0.4974 0.6859
C52_9 C 0.4419(4) 0.4828(5) 0.64557(12)
H32_9 H 0.4514 0.5250 0.6396
O10_9 O 0.4814(3) 0.9597(2) 0.59000(7)
C59_9 C 0.5336(6) 0.9625(4) 0.67316(13)
H35_9 H 0.5026 0.9324 0.6859
C60_9 C 0.5172(5) 0.9592(3) 0.64557(12)
H36_9 H 0.4750 0.9265 0.6396
N13_3 N 0.5974(3) 0.5056(4) 0.54487(9)
O1_9 O 0.9632(3) 0.5457(2) 0.57928(8)
N1_9 N 0.9081(3) 0.4026(3) 0.54487(9)
N3_9 N 0.7246(3) 0.3934(3) 0.54622(10)
C4_9 C 0.8541(4) 0.2845(4) 0.54924(15)
H4_9 H 0.8577 0.2463 0.5508
C5_9 C 0.7931(4) 0.2803(4) 0.54895(14)
H5_9 H 0.7541 0.2390 0.5503
C6_9 C 0.9103(4) 0.3469(4) 0.54715(13)
H6_9 H 0.9520 0.3498 0.5474
C9_9 C 0.9999(3) 0.5406(3) 0.59692(11)
C10_9 C 0.7901(3) 0.3389(3) 0.54663(11)
C11_9 C 0.8484(3) 0.3982(3) 0.54444(11)
H8_9 H 0.8464 0.4373 0.5426
C12_9 C 0.9892(3) 0.5859(4) 0.68232(12)
H9_9 H 0.9873 0.5953 0.7012
C13_9 C 0.8932(3) 0.6037(3) 0.67408(11)
C14_9 C 0.9444(3) 0.5866(3) 0.66385(10)
C15_9 C 0.9493(3) 0.5729(2) 0.63594(10)
H10_9 H 0.9191 0.5732 0.6231
C17_9 C 0.9975(3) 0.5588(3) 0.62668(10)
C20_9 C 0.7246(4) 0.3362(4) 0.54639(12)
N6_9 N 0.6066(3) 0.3313(4) 0.54622(10)
C21_9 C 0.7155(4) 0.5697(6) 0.54924(15)
H13_9 H 0.7537 0.6115 0.5508
C22_9 C 0.7197(4) 0.5129(6) 0.54895(14)
H14_9 H 0.7610 0.5152 0.5503
C23_9 C 0.6531(4) 0.5635(6) 0.54715(13)
H15_9 H 0.6502 0.6023 0.5474
C24_9 C 0.6611(3) 0.4513(4) 0.54663(11)
C25_9 C 0.6018(3) 0.4503(4) 0.54444(11)
H16_9 H 0.5627 0.4092 0.5426
C26_9 C 0.6638(4) 0.3885(6) 0.54639(12)
N8_9 N 0.6687(4) 0.2754(3) 0.54622(10)
C27_9 C 0.4303(6) 0.1459(4) 0.54924(15)
H17_9 H 0.3885 0.1423 0.5508
C28_9 C 0.4871(6) 0.2069(4) 0.54895(14)
H18_9 H 0.4848 0.2459 0.5503
C29_9 C 0.4365(6) 0.0897(4) 0.54715(13)
H19_9 H 0.3977 0.0480 0.5474
C30_9 C 0.5487(4) 0.2099(3) 0.54663(11)
C31_9 C 0.5497(4) 0.1516(3) 0.54444(11)
H20_9 H 0.5908 0.1536 0.5426
C32_9 C 0.6115(6) 0.2754(4) 0.54639(12)
O11_6 O 0.8079(2) 0.0878(3) 0.17673(8)
C55_10 C 0.7734(3) 0.0438(4) 0.15926(11)
O1_10 O 0.2123(2) 0.2966(3) 0.25406(8)
O2_10 O 0.1884(2) 0.3737(2) 0.24334(7)
O3_6 O 0.2798(2) 0.1921(2) 0.17673(8)
N1_10 N 0.0692(3) 0.2415(3) 0.28847(9)
N2_10 N 0.2753(3) 0.4306(3) 0.30049(9)
N3_10 N 0.0600(3) 0.0580(3) 0.28712(10)
C1_10 C 0.3941(4) 0.5457(4) 0.30760(16)
H1_10 H 0.4347 0.5849 0.3101
C2_10 C 0.3921(4) 0.4850(4) 0.30660(17)
H2_10 H 0.4309 0.4827 0.3084
C3_10 C 0.3316(4) 0.4285(3) 0.30299(13)
H3_10 H 0.3297 0.3874 0.3023
C6_10 C 0.0135(4) 0.2437(4) 0.28619(13)
H6_10 H 0.0164 0.2854 0.2860
C7_10 C 0.3363(3) 0.5481(3) 0.30499(12)
C8_10 C 0.2792(3) 0.4892(3) 0.30224(11)
H7_10 H 0.2394 0.4901 0.3016
C9_10 C 0.2072(3) 0.3333(3) 0.23642(11)
C10_10 C 0.0055(3) 0.1235(3) 0.28671(11)
C11_10 C 0.0648(3) 0.1818(3) 0.28890(11)
H8_10 H 0.1039 0.1798 0.2908
C12_10 C 0.2525(4) 0.3226(3) 0.15102(12)
H9_10 H 0.2619 0.3207 0.1322
C13_10 C 0.2703(3) 0.2266(3) 0.15926(11)
C14_10 C 0.2532(3) 0.2778(3) 0.16949(10)
C15_10 C 0.2395(2) 0.2827(3) 0.19740(10)
H10_10 H 0.2398 0.2525 0.2103
N4_10 N 0.3928(3) 0.6681(3) 0.30610(10)
C16_10 C 0.3356(4) 0.6122(4) 0.30608(12)
C17_10 C 0.2254(3) 0.3309(3) 0.20666(10)
C18_10 C 0.2378(4) 0.3709(4) 0.16018(13)
H11_10 H 0.2369 0.4010 0.1475
C19_10 C 0.2247(4) 0.3742(3) 0.18777(12)
H12_10 H 0.2152 0.4069 0.1938
C20_10 C 0.0028(4) 0.0580(4) 0.28695(12)
C21_10 C 0.2363(6) 0.0489(4) 0.28410(15)
H13_10 H 0.2781 0.0871 0.2826
C22_10 C 0.1795(6) 0.0531(4) 0.28439(14)
H14_10 H 0.1818 0.0944 0.2831
N9_10 N 0.1552(4) 0.7247(3) 0.30049(9)
C33_10 C 0.1515(6) 0.6059(4) 0.30760(16)
H21_10 H 0.1501 0.5653 0.3101
C34_10 C 0.0928(6) 0.6079(4) 0.30660(17)
H22_10 H 0.0517 0.5691 0.3084
C35_10 C 0.0968(5) 0.6684(4) 0.30299(13)
H23_10 H 0.0576 0.6703 0.3023
C36_10 C 0.2117(4) 0.6637(3) 0.30499(12)
C37_10 C 0.2099(4) 0.7208(3) 0.30224(11)
H24_10 H 0.2506 0.7606 0.3016
N10_10 N 0.2752(4) 0.6072(3) 0.30610(10)
C38_10 C 0.2765(6) 0.6644(4) 0.30608(12)
N11_10 N 0.5694(3) 0.8448(4) 0.30049(9)
C39_10 C 0.4543(4) 0.8485(6) 0.30760(16)
H25_10 H 0.4151 0.8499 0.3101
C40_10 C 0.5150(4) 0.9072(6) 0.30660(17)
H26_10 H 0.5173 0.9483 0.3084
C41_10 C 0.5715(3) 0.9032(5) 0.30299(13)
H27_10 H 0.6126 0.9424 0.3023
C42_10 C 0.4519(3) 0.7883(4) 0.30499(12)
C43_10 C 0.5108(3) 0.7901(4) 0.30224(11)
H28_10 H 0.5099 0.7494 0.3016
N12_10 N 0.3319(3) 0.7248(4) 0.30610(10)
C44_10 C 0.3878(4) 0.7235(6) 0.30608(12)
O5_10 O 0.0842(4) 0.7877(2) 0.25406(8)
O6_10 O 0.1852(3) 0.8116(2) 0.24334(7)
C45_10 C 0.1260(4) 0.7928(3) 0.23642(11)
C46_10 C 0.0700(5) 0.7475(4) 0.15102(12)
H29_10 H 0.0587 0.7381 0.1322
C48_10 C 0.0245(4) 0.7468(3) 0.16949(10)
C49_10 C 0.0431(4) 0.7605(2) 0.19740(10)
H30_10 H 0.0126 0.7602 0.2103
C50_10 C 0.1054(4) 0.7746(3) 0.20666(10)
C51_10 C 0.1330(6) 0.7622(4) 0.16018(13)
H31_10 H 0.1640 0.7631 0.1475
C52_10 C 0.1494(5) 0.7753(4) 0.18777(12)
H32_10 H 0.1916 0.7848 0.1938
O9_10 O 0.7034(3) 0.9158(4) 0.25406(8)
O10_10 O 0.6263(2) 0.8148(3) 0.24334(7)
C53_10 C 0.6667(3) 0.8740(4) 0.23642(11)
C54_10 C 0.6774(3) 0.9300(5) 0.15102(12)
H33_10 H 0.6793 0.9413 0.1322
C56_10 C 0.7222(3) 0.9755(4) 0.16949(10)
C57_10 C 0.7173(3) 0.9569(4) 0.19740(10)
H34_10 H 0.7475 0.9874 0.2103
C58_10 C 0.6691(3) 0.8946(4) 0.20666(10)
C59_10 C 0.6291(4) 0.8670(6) 0.16018(13)
H35_10 H 0.5990 0.8360 0.1475
C60_10 C 0.6258(3) 0.8506(5) 0.18777(12)
H36_10 H 0.5931 0.8084 0.1938
O13_6 O 0.1921(2) 0.2798(2) 0.32327(8)
O14_6 O 0.0878(3) 0.8079(2) 0.32327(8)
O15_6 O 0.7202(2) 0.9122(3) 0.32327(8)
N13_4 N 0.1722(4) 0.9308(3) 0.28847(9)
N14_4 N 0.7585(3) 0.8278(4) 0.28847(9)
C23_10 C 0.2301(6) 0.9865(4) 0.28619(13)
H15_10 H 0.2689 0.9836 0.2860
C24_10 C 0.1179(4) 0.9945(3) 0.28671(11)
C25_10 C 0.1169(4) 0.9352(3) 0.28890(11)
H16_10 H 0.0758 0.8961 0.2908
C26_10 C 0.0551(6) 0.9972(4) 0.28695(12)
C4_10 C 0.9511(4) 0.1875(4) 0.28410(15)
H4_10 H 0.9129 0.1911 0.2826
C5_10 C 0.9469(4) 0.1265(4) 0.28439(14)
H5_10 H 0.9056 0.0875 0.2831
N8_10 N 0.9420(3) 0.0021(4) 0.28712(10)
O7_6 O 0.9122(3) 0.7202(2) 0.17673(8)
C47_10 C 0.9562(4) 0.7297(3) 0.15926(11)
N6_10 N 0.9979(4) 0.9400(3) 0.28712(10)
C27_10 C 0.8125(4) 0.7637(6) 0.28410(15)
H17_10 H 0.8089 0.7219 0.2826
C28_10 C 0.8735(4) 0.8205(6) 0.28439(14)
H18_10 H 0.9125 0.8182 0.2831
C29_10 C 0.7563(4) 0.7699(6) 0.28619(13)
H19_10 H 0.7146 0.7311 0.2860
C30_10 C 0.8765(3) 0.8821(4) 0.28671(11)
C31_10 C 0.8182(3) 0.8831(4) 0.28890(11)
H20_10 H 0.8202 0.9242 0.2908
C32_10 C 0.9420(4) 0.9449(6) 0.28695(12)
C55_11 C 0.0438(4) 0.7734(3) 0.34074(11)
O1_11 O 0.2966(3) 0.2123(2) 0.24594(8)
O2_11 O 0.3737(2) 0.1884(2) 0.25666(7)
N1_11 N 0.2415(3) 0.0692(3) 0.21153(9)
N2_11 N 0.4306(3) 0.2753(3) 0.19951(9)
N3_11 N 0.0580(3) 0.0600(3) 0.21288(10)
C1_11 C 0.5457(4) 0.3941(4) 0.19240(16)
H1_11 H 0.5849 0.4347 0.1899
C2_11 C 0.4850(4) 0.3921(4) 0.19340(17)
H2_11 H 0.4827 0.4309 0.1916
C3_11 C 0.4285(3) 0.3316(4) 0.19701(13)
H3_11 H 0.3874 0.3297 0.1977
C6_11 C 0.2437(4) 0.0135(4) 0.21381(13)
H6_11 H 0.2854 0.0164 0.2140
C7_11 C 0.5481(3) 0.3363(3) 0.19501(12)
C8_11 C 0.4892(3) 0.2792(3) 0.19776(11)
H7_11 H 0.4901 0.2394 0.1984
C9_11 C 0.3333(3) 0.2072(3) 0.26358(11)
C10_11 C 0.1235(3) 0.0055(3) 0.21329(11)
C11_11 C 0.1818(3) 0.0648(3) 0.21110(11)
H8_11 H 0.1798 0.1039 0.2092
C12_11 C 0.3226(3) 0.2525(4) 0.34898(12)
H9_11 H 0.3207 0.2619 0.3678
C13_11 C 0.2266(3) 0.2703(3) 0.34074(11)
C14_11 C 0.2778(3) 0.2532(3) 0.33051(10)
C15_11 C 0.2827(3) 0.2395(2) 0.30260(10)
H10_11 H 0.2525 0.2398 0.2897
N4_11 N 0.6681(3) 0.3928(3) 0.19390(10)
C16_11 C 0.6122(4) 0.3356(4) 0.19392(12)
C17_11 C 0.3309(3) 0.2254(3) 0.29334(10)
C18_11 C 0.3709(4) 0.2378(4) 0.33982(13)
H11_11 H 0.4010 0.2369 0.3525
C19_11 C 0.3742(3) 0.2247(4) 0.31223(12)
H12_11 H 0.4069 0.2152 0.3062
C20_11 C 0.0580(4) 0.0028(4) 0.21305(12)
C21_11 C 0.0489(4) 0.2363(6) 0.21590(15)
H13_11 H 0.0871 0.2781 0.2174
C22_11 C 0.0531(4) 0.1795(6) 0.21561(14)
H14_11 H 0.0944 0.1818 0.2169
N9_11 N 0.7247(3) 0.1552(4) 0.19951(9)
C33_11 C 0.6059(4) 0.1515(6) 0.19240(16)
H21_11 H 0.5653 0.1501 0.1899
C34_11 C 0.6079(4) 0.0928(6) 0.19340(17)
H22_11 H 0.5691 0.0517 0.1916
C35_11 C 0.6684(4) 0.0968(5) 0.19701(13)
H23_11 H 0.6703 0.0576 0.1977
C36_11 C 0.6637(3) 0.2117(4) 0.19501(12)
C37_11 C 0.7208(3) 0.2099(4) 0.19776(11)
H24_11 H 0.7606 0.2506 0.1984
N10_11 N 0.6072(3) 0.2752(4) 0.19390(10)
C38_11 C 0.6644(4) 0.2765(6) 0.19392(12)
N11_11 N 0.8448(4) 0.5694(3) 0.19951(9)
C39_11 C 0.8485(6) 0.4543(4) 0.19240(16)
H25_11 H 0.8499 0.4151 0.1899
C40_11 C 0.9072(6) 0.5150(4) 0.19340(17)
H26_11 H 0.9483 0.5173 0.1916
C41_11 C 0.9032(5) 0.5715(3) 0.19701(13)
H27_11 H 0.9424 0.6126 0.1977
C42_11 C 0.7883(4) 0.4519(3) 0.19501(12)
C43_11 C 0.7901(4) 0.5108(3) 0.19776(11)
H28_11 H 0.7494 0.5099 0.1984
N12_11 N 0.7248(4) 0.3319(3) 0.19390(10)
C44_11 C 0.7235(6) 0.3878(4) 0.19392(12)
O5_11 O 0.7877(2) 0.0842(4) 0.24594(8)
O6_11 O 0.8116(2) 0.1852(3) 0.25666(7)
C45_11 C 0.7928(3) 0.1260(4) 0.26358(11)
C46_11 C 0.7475(4) 0.0700(5) 0.34898(12)
H29_11 H 0.7381 0.0587 0.3678
C48_11 C 0.7468(3) 0.0245(4) 0.33051(10)
C49_11 C 0.7605(2) 0.0431(4) 0.30260(10)
H30_11 H 0.7602 0.0126 0.2897
C50_11 C 0.7746(3) 0.1054(4) 0.29334(10)
C51_11 C 0.7622(4) 0.1330(6) 0.33982(13)
H31_11 H 0.7631 0.1640 0.3525
C52_11 C 0.7753(4) 0.1494(5) 0.31223(12)
H32_11 H 0.7848 0.1916 0.3062
O9_11 O 0.9158(4) 0.7034(3) 0.24594(8)
O10_11 O 0.8148(3) 0.6263(2) 0.25666(7)
C53_11 C 0.8740(4) 0.6667(3) 0.26358(11)
C54_11 C 0.9300(5) 0.6774(3) 0.34898(12)
H33_11 H 0.9413 0.6793 0.3678
C56_11 C 0.9755(4) 0.7222(3) 0.33051(10)
C57_11 C 0.9569(4) 0.7173(3) 0.30260(10)
H34_11 H 0.9874 0.7475 0.2897
C58_11 C 0.8946(4) 0.6691(3) 0.29334(10)
C59_11 C 0.8670(6) 0.6291(4) 0.33982(13)
H35_11 H 0.8360 0.5990 0.3525
C60_11 C 0.8506(5) 0.6258(3) 0.31223(12)
H36_11 H 0.8084 0.5931 0.3062
N13_5 N 0.9308(3) 0.1722(4) 0.21153(9)
N14_5 N 0.8278(4) 0.7585(3) 0.21153(9)
C4_11 C 0.1875(4) 0.9511(4) 0.21590(15)
H4_11 H 0.1911 0.9129 0.2174
C5_11 C 0.1265(4) 0.9469(4) 0.21561(14)
H5_11 H 0.0875 0.9056 0.2169
N8_11 N 0.0021(4) 0.9420(3) 0.21288(10)
C47_11 C 0.7297(3) 0.9562(4) 0.34074(11)
C23_11 C 0.9865(4) 0.2301(6) 0.21381(13)
H15_11 H 0.9836 0.2689 0.2140
C24_11 C 0.9945(3) 0.1179(4) 0.21329(11)
C25_11 C 0.9352(3) 0.1169(4) 0.21110(11)
H16_11 H 0.8961 0.0758 0.2092
C26_11 C 0.9972(4) 0.0551(6) 0.21305(12)
N6_11 N 0.9400(3) 0.9979(4) 0.21288(10)
C27_11 C 0.7637(6) 0.8125(4) 0.21590(15)
H17_11 H 0.7219 0.8089 0.2174
C28_11 C 0.8205(6) 0.8735(4) 0.21561(14)
H18_11 H 0.8182 0.9125 0.2169
C29_11 C 0.7699(6) 0.7563(4) 0.21381(13)
H19_11 H 0.7311 0.7146 0.2140
C30_11 C 0.8821(4) 0.8765(3) 0.21329(11)
C31_11 C 0.8831(4) 0.8182(3) 0.21110(11)
H20_11 H 0.9242 0.8202 0.2092
C32_11 C 0.9449(6) 0.9420(4) 0.21305(12)
O9_12 O 0.0368(3) 0.5824(4) 0.92072(8)
C53_12 C 0.0001(3) 0.5406(4) 0.90308(11)
C54_12 C 0.0108(3) 0.5966(5) 0.81768(12)
H33_12 H 0.0127 0.6079 0.7988
C55_12 C 0.1068(3) 0.7104(4) 0.82592(11)
C56_12 C 0.0556(3) 0.6421(4) 0.83615(10)
C57_12 C 0.0507(3) 0.6235(4) 0.86406(10)
H34_12 H 0.0809 0.6540 0.8769
C58_12 C 0.0025(3) 0.5612(4) 0.87332(10)
N14_6 N 0.0919(3) 0.4944(4) 0.95513(9)
O2_12 O 0.5218(2) 0.0403(2) 0.91000(7)
N2_12 N 0.6087(3) 0.0972(3) 0.96715(9)
C1_12 C 0.7275(4) 0.2123(4) 0.97426(16)
H1_12 H 0.7681 0.2515 0.9767
C2_12 C 0.7255(4) 0.1516(4) 0.97326(17)
H2_12 H 0.7643 0.1493 0.9750
C3_12 C 0.6650(4) 0.0951(3) 0.96965(13)
H3_12 H 0.6631 0.0540 0.9689
C7_12 C 0.6697(3) 0.2147(3) 0.97165(12)
C8_12 C 0.6126(3) 0.1558(3) 0.96890(11)
H7_12 H 0.5728 0.1567 0.9682
N4_12 N 0.7262(3) 0.3347(3) 0.97276(10)
C16_12 C 0.6690(4) 0.2788(4) 0.97274(12)
C18_12 C 0.5712(4) 0.0375(4) 0.82684(13)
H11_12 H 0.5703 0.0676 0.8141
C19_12 C 0.5581(4) 0.0408(3) 0.85443(12)
H12_12 H 0.5486 0.0735 0.8604
N9_12 N 0.4886(4) 0.3913(3) 0.96715(9)
C33_12 C 0.4849(6) 0.2725(4) 0.97426(16)
H21_12 H 0.4835 0.2319 0.9767
C34_12 C 0.4262(6) 0.2745(4) 0.97326(17)
H22_12 H 0.3851 0.2357 0.9750
C35_12 C 0.4302(5) 0.3350(4) 0.96965(13)
H23_12 H 0.3910 0.3369 0.9689
C36_12 C 0.5451(4) 0.3303(3) 0.97165(12)
C37_12 C 0.5433(4) 0.3874(3) 0.96890(11)
H24_12 H 0.5840 0.4272 0.9682
N10_12 N 0.6086(4) 0.2738(3) 0.97276(10)
C38_12 C 0.6099(6) 0.3310(4) 0.97274(12)
N11_12 N 0.9028(3) 0.5114(4) 0.96715(9)
C39_12 C 0.7877(4) 0.5151(6) 0.97426(16)
H25_12 H 0.7485 0.5165 0.9767
C40_12 C 0.8484(4) 0.5738(6) 0.97326(17)
H26_12 H 0.8507 0.6149 0.9750
C41_12 C 0.9049(3) 0.5698(5) 0.96965(13)
H27_12 H 0.9460 0.6090 0.9689
C42_12 C 0.7853(3) 0.4549(4) 0.97165(12)
C43_12 C 0.8442(3) 0.4567(4) 0.96890(11)
H28_12 H 0.8433 0.4160 0.9682
N12_12 N 0.6653(3) 0.3914(4) 0.97276(10)
C44_12 C 0.7212(4) 0.3901(6) 0.97274(12)
O5_12 O 0.4176(4) 0.4543(2) 0.92072(8)
O6_12 O 0.5186(3) 0.4782(2) 0.91000(7)
C45_12 C 0.4594(4) 0.4594(3) 0.90308(11)
C46_12 C 0.4034(5) 0.4141(4) 0.81768(12)
H29_12 H 0.3921 0.4047 0.7988
C47_12 C 0.2896(4) 0.3963(3) 0.82592(11)
C48_12 C 0.3579(4) 0.4134(3) 0.83615(10)
C49_12 C 0.3765(4) 0.4271(2) 0.86406(10)
H30_12 H 0.3460 0.4268 0.8769
C50_12 C 0.4388(4) 0.4412(3) 0.87332(10)
C51_12 C 0.4664(6) 0.4288(4) 0.82684(13)
H31_12 H 0.4974 0.4297 0.8141
C52_12 C 0.4828(5) 0.4419(4) 0.85443(12)
H32_12 H 0.5250 0.4514 0.8604
O10_12 O 0.9597(2) 0.4814(3) 0.91000(7)
C59_12 C 0.9625(4) 0.5336(6) 0.82684(13)
H35_12 H 0.9324 0.5026 0.8141
C60_12 C 0.9592(3) 0.5172(5) 0.85443(12)
H36_12 H 0.9265 0.4750 0.8604
N13_6 N 0.5056(4) 0.5974(3) 0.95513(9)
O1_12 O 0.5457(2) 0.9632(3) 0.92072(8)
N1_12 N 0.4026(3) 0.9081(3) 0.95513(9)
N3_12 N 0.3934(3) 0.7246(3) 0.95378(10)
C4_12 C 0.2845(4) 0.8541(4) 0.95076(15)
H4_12 H 0.2463 0.8577 0.9492
C5_12 C 0.2803(4) 0.7931(4) 0.95105(14)
H5_12 H 0.2390 0.7541 0.9497
C6_12 C 0.3469(4) 0.9103(4) 0.95285(13)
H6_12 H 0.3498 0.9520 0.9526
C9_12 C 0.5406(3) 0.9999(3) 0.90308(11)
C10_12 C 0.3389(3) 0.7901(3) 0.95337(11)
C11_12 C 0.3982(3) 0.8484(3) 0.95556(11)
H8_12 H 0.4373 0.8464 0.9574
C12_12 C 0.5859(4) 0.9892(3) 0.81768(12)
H9_12 H 0.5953 0.9873 0.7988
C13_12 C 0.6037(3) 0.8932(3) 0.82592(11)
C14_12 C 0.5866(3) 0.9444(3) 0.83615(10)
C15_12 C 0.5729(2) 0.9493(3) 0.86406(10)
H10_12 H 0.5732 0.9191 0.8769
C17_12 C 0.5588(3) 0.9975(3) 0.87332(10)
C20_12 C 0.3362(4) 0.7246(4) 0.95361(12)
N6_12 N 0.3313(4) 0.6066(3) 0.95378(10)
C21_12 C 0.5697(6) 0.7155(4) 0.95076(15)
H13_12 H 0.6115 0.7537 0.9492
C22_12 C 0.5129(6) 0.7197(4) 0.95105(14)
H14_12 H 0.5152 0.7610 0.9497
C23_12 C 0.5635(6) 0.6531(4) 0.95285(13)
H15_12 H 0.6023 0.6502 0.9526
C24_12 C 0.4513(4) 0.6611(3) 0.95337(11)
C25_12 C 0.4503(4) 0.6018(3) 0.95556(11)
H16_12 H 0.4092 0.5627 0.9574
C26_12 C 0.3885(6) 0.6638(4) 0.95361(12)
N8_12 N 0.2754(3) 0.6687(4) 0.95378(10)
C27_12 C 0.1459(4) 0.4303(6) 0.95076(15)
H17_12 H 0.1423 0.3885 0.9492
C28_12 C 0.2069(4) 0.4871(6) 0.95105(14)
H18_12 H 0.2459 0.4848 0.9497
C29_12 C 0.0897(4) 0.4365(6) 0.95285(13)
H19_12 H 0.0480 0.3977 0.9526
C30_12 C 0.2099(3) 0.5487(4) 0.95337(11)
C31_12 C 0.1516(3) 0.5497(4) 0.95556(11)
H20_12 H 0.1536 0.5908 0.9574
C32_12 C 0.2754(4) 0.6115(6) 0.95361(12)
loop_
_geom_bond_atom_site_label_1
_geom_bond_atom_site_label_2
_geom_bond_site_symmetry_1
_geom_bond_site_symmetry_2
Cd1 O1 1_555 1_555
O1 C9 1_555 1_555
O2 Cd1 1_555 1_555
N1 Cd1 1_555 1_555
N2 Cd1 1_555 1_555
N3 C20 1_555 1_555
C3 N2 1_555 1_555
H3 C3 1_555 1_555
C4 H4 1_555 1_555
C5 C4 1_555 1_555
H5 C5 1_555 1_555
C6 N1 1_555 1_555
H6 C6 1_555 1_555
C8 N2 1_555 1_555
H7 C8 1_555 1_555
C9 O2 1_555 1_555
C10 C5 1_555 1_555
C11 N1 1_555 1_555
H8 C11 1_555 1_555
C15 C14 1_555 1_555
H10 C15 1_555 1_555
C17 C9 1_555 1_555
C19 C17 1_555 1_555
H12 C19 1_555 1_555
C20 C10 1_555 1_555
N5 C23 1_555 1_555
N6 C26 1_555 1_555
C21 H13 1_555 1_555
C22 C21 1_555 1_555
H14 C22 1_555 1_555
C23 C21 1_555 1_555
H15 C23 1_555 1_555
C24 C22 1_555 1_555
C25 N5 1_555 1_555
H16 C25 1_555 1_555
C26 N3 1_555 1_555
N7 C29 1_555 1_555
N8 C20 1_555 1_555
C27 H17 1_555 1_555
C28 C27 1_555 1_555
H18 C28 1_555 1_555
C29 C27 1_555 1_555
H19 C29 1_555 1_555
C30 C28 1_555 1_555
C31 N7 1_555 1_555
H20 C31 1_555 1_555
C32 N6 1_555 1_555
C33 H21 1_555 1_555
C34 C33 1_555 1_555
H22 C34 1_555 1_555
C36 C33 1_555 1_555
C38 C36 1_555 1_555
Cd4 N5 1_555 1_555
Cd5 N7 1_555 1_555
O13 Cd1 1_555 1_555
O16 Cd1 1_555 1_555
C4 C6 1_555 1_555
C10 C11 1_555 1_555
C15 C17 1_555 1_555
C24 C25 1_555 1_555
C24 C26 1_555 1_555
N8 C32 1_555 1_555
C30 C31 1_555 1_555
C30 C32 1_555 1_555
N10 C38 1_555 1_555
O4 C13 1_555 1_555
C12 H9 1_555 1_555
C18 C12 1_555 1_555
H11 C18 1_555 1_555
Cd9 O4 1_555 1_555
C1 H1 1_555 1_555
C2 C1 1_555 1_555
H2 C2 1_555 1_555
C7 C1 1_555 1_555
C16 C7 1_555 1_555
N9 C35 1_555 1_555
H23 C35 1_555 1_555
C37 N9 1_555 1_555
H24 C37 1_555 1_555
Cd4 N9 1_555 1_555
O5 Cd4 1_555 1_555
O6 Cd4 1_555 1_555
C45 O5 1_555 1_555
C49 C48 1_555 1_555
H30 C49 1_555 1_555
C50 C45 1_555 1_555
C52 C50 1_555 1_555
H32 C52 1_555 1_555
O14 Cd4 1_555 1_555
O17 Cd4 1_555 1_555
O6 C45 1_555 1_555
C49 C50 1_555 1_555
O8 C47 1_555 1_555
C46 H29 1_555 1_555
C51 C46 1_555 1_555
H31 C51 1_555 1_555
Cd10 O8 1_555 1_555
N11 C41 1_555 1_555
C39 H25 1_555 1_555
C40 C39 1_555 1_555
H26 C40 1_555 1_555
C41 C40 1_555 1_555
H27 C41 1_555 1_555
C42 C39 1_555 1_555
C43 N11 1_555 1_555
H28 C43 1_555 1_555
C44 N4 1_555 1_555
Cd5 N11 1_555 1_555
O9 Cd5 1_555 1_555
O10 Cd5 1_555 1_555
C53 O9 1_555 1_555
C57 C56 1_555 1_555
H34 C57 1_555 1_555
C58 C53 1_555 1_555
C60 C58 1_555 1_555
H36 C60 1_555 1_555
Cd8 O11 1_555 1_555
O15 Cd5 1_555 1_555
O18 Cd5 1_555 1_555
C42 C43 1_555 1_555
C42 C44 1_555 1_555
O10 C53 1_555 1_555
C57 C58 1_555 1_555
O12 C55 1_555 1_555
C54 H33 1_555 1_555
C59 C54 1_555 1_555
H35 C59 1_555 1_555
Cd11 O12 1_555 1_555
Cd1_2 O1_2 1_555 1_555
O1_2 C9_2 1_555 1_555
O2_2 Cd1_2 1_555 1_555
O3_2 C13_2 1_555 1_555
O4_2 C13_2 1_555 1_555
N1_2 Cd1_2 1_555 1_555
N2_2 Cd1_2 1_555 1_555
N3_2 C20_2 1_555 1_555
C3_2 N2_2 1_555 1_555
H3_2 C3_2 1_555 1_555
C4_2 H4_2 1_555 1_555
C5_2 C4_2 1_555 1_555
H5_2 C5_2 1_555 1_555
C6_2 N1_2 1_555 1_555
H6_2 C6_2 1_555 1_555
C8_2 N2_2 1_555 1_555
H7_2 C8_2 1_555 1_555
C9_2 O2_2 1_555 1_555
C10_2 C5_2 1_555 1_555
C11_2 N1_2 1_555 1_555
H8_2 C11_2 1_555 1_555
C12_2 H9_2 1_555 1_555
C13_2 C14_2 1_555 1_555
C14_2 C12_2 1_555 1_555
C15_2 C14_2 1_555 1_555
H10_2 C15_2 1_555 1_555
C17_2 C9_2 1_555 1_555
C18_2 C12_2 1_555 1_555
H11_2 C18_2 1_555 1_555
C19_2 C17_2 1_555 1_555
H12_2 C19_2 1_555 1_555
C20_2 C10_2 1_555 1_555
N5_2 C23_2 1_555 1_555
N6_2 C26_2 1_555 1_555
C21_2 H13_2 1_555 1_555
C22_2 C21_2 1_555 1_555
H14_2 C22_2 1_555 1_555
C23_2 C21_2 1_555 1_555
H15_2 C23_2 1_555 1_555
C24_2 C22_2 1_555 1_555
C25_2 N5_2 1_555 1_555
H16_2 C25_2 1_555 1_555
C26_2 N3_2 1_555 1_555
N7_2 C29_2 1_555 1_555
N8_2 C20_2 1_555 1_555
C27_2 H17_2 1_555 1_555
C28_2 C27_2 1_555 1_555
H18_2 C28_2 1_555 1_555
C29_2 C27_2 1_555 1_555
H19_2 C29_2 1_555 1_555
C30_2 C28_2 1_555 1_555
C31_2 N7_2 1_555 1_555
H20_2 C31_2 1_555 1_555
C32_2 N6_2 1_555 1_555
C33_2 H21_2 1_555 1_555
C34_2 C33_2 1_555 1_555
H22_2 C34_2 1_555 1_555
C36_2 C33_2 1_555 1_555
C38_2 C36_2 1_555 1_555
Cd4_2 N5_2 1_555 1_555
Cd5_2 N7_2 1_555 1_555
Cd9_2 O4_2 1_555 1_555
O13_2 Cd1_2 1_555 1_555
O16_2 Cd1_2 1_555 1_555
C4_2 C6_2 1_555 1_555
C10_2 C11_2 1_555 1_555
C15_2 C17_2 1_555 1_555
C18_2 C19_2 1_555 1_555
C24_2 C25_2 1_555 1_555
C24_2 C26_2 1_555 1_555
N8_2 C32_2 1_555 1_555
C30_2 C31_2 1_555 1_555
C30_2 C32_2 1_555 1_555
N10_2 C38_2 1_555 1_555
N9_2 C35_2 1_555 1_555
H23_2 C35_2 1_555 1_555
C37_2 N9_2 1_555 1_555
H24_2 C37_2 1_555 1_555
Cd4_2 N9_2 1_555 1_555
O5_2 Cd4_2 1_555 1_555
O6_2 Cd4_2 1_555 1_555
O7_2 C47_2 1_555 1_555
O8_2 C47_2 1_555 1_555
C45_2 O5_2 1_555 1_555
C46_2 H29_2 1_555 1_555
C47_2 C48_2 1_555 1_555
C48_2 C46_2 1_555 1_555
C49_2 C48_2 1_555 1_555
H30_2 C49_2 1_555 1_555
C50_2 C45_2 1_555 1_555
C51_2 C46_2 1_555 1_555
H31_2 C51_2 1_555 1_555
C52_2 C50_2 1_555 1_555
H32_2 C52_2 1_555 1_555
Cd10_2 O8_2 1_555 1_555
O14_2 Cd4_2 1_555 1_555
O17_2 Cd4_2 1_555 1_555
O6_2 C45_2 1_555 1_555
C49_2 C50_2 1_555 1_555
C51_2 C52_2 1_555 1_555
C1_2 H1_2 1_555 1_555
C2_2 C1_2 1_555 1_555
H2_2 C2_2 1_555 1_555
C7_2 C1_2 1_555 1_555
C16_2 C7_2 1_555 1_555
N11_2 C41_2 1_555 1_555
C39_2 H25_2 1_555 1_555
C40_2 C39_2 1_555 1_555
H26_2 C40_2 1_555 1_555
C41_2 C40_2 1_555 1_555
H27_2 C41_2 1_555 1_555
C42_2 C39_2 1_555 1_555
C43_2 N11_2 1_555 1_555
H28_2 C43_2 1_555 1_555
C44_2 N4_2 1_555 1_555
Cd5_2 N11_2 1_555 1_555
O9_2 Cd5_2 1_555 1_555
O10_2 Cd5_2 1_555 1_555
O11_2 C55_2 1_555 1_555
O12_2 C55_2 1_555 1_555
C53_2 O9_2 1_555 1_555
C54_2 H33_2 1_555 1_555
C55_2 C56_2 1_555 1_555
C56_2 C54_2 1_555 1_555
C57_2 C56_2 1_555 1_555
H34_2 C57_2 1_555 1_555
C58_2 C53_2 1_555 1_555
C59_2 C54_2 1_555 1_555
H35_2 C59_2 1_555 1_555
C60_2 C58_2 1_555 1_555
H36_2 C60_2 1_555 1_555
Cd8_2 O11_2 1_555 1_555
Cd11_2 O12_2 1_555 1_555
O15_2 Cd5_2 1_555 1_555
O18_2 Cd5_2 1_555 1_555
C42_2 C43_2 1_555 1_555
C42_2 C44_2 1_555 1_555
O10_2 C53_2 1_555 1_555
C57_2 C58_2 1_555 1_555
C59_2 C60_2 1_555 1_555
O1_3 C9_3 1_555 1_555
O13_2 C13_3 1_555 1_555
O4_3 C13_3 1_555 1_555
N3_3 C20_3 1_555 1_555
C4_3 H4_3 1_555 1_555
C5_3 C4_3 1_555 1_555
H5_3 C5_3 1_555 1_555
C6_3 N1_3 1_555 1_555
H6_3 C6_3 1_555 1_555
C10_3 C5_3 1_555 1_555
C11_3 N1_3 1_555 1_555
H8_3 C11_3 1_555 1_555
C12_3 H9_3 1_555 1_555
C13_3 C14_3 1_555 1_555
C14_3 C12_3 1_555 1_555
C15_3 C14_3 1_555 1_555
H10_3 C15_3 1_555 1_555
C17_3 C9_3 1_555 1_555
C20_3 C10_3 1_555 1_555
N5_3 C23_3 1_555 1_555
N6_3 C26_3 1_555 1_555
C21_3 H13_3 1_555 1_555
C22_3 C21_3 1_555 1_555
H14_3 C22_3 1_555 1_555
C23_3 C21_3 1_555 1_555
H15_3 C23_3 1_555 1_555
C24_3 C22_3 1_555 1_555
C25_3 N5_3 1_555 1_555
H16_3 C25_3 1_555 1_555
C26_3 N3_3 1_555 1_555
N7_3 C29_3 1_555 1_555
N8_3 C20_3 1_555 1_555
C27_3 H17_3 1_555 1_555
C28_3 C27_3 1_555 1_555
H18_3 C28_3 1_555 1_555
C29_3 C27_3 1_555 1_555
H19_3 C29_3 1_555 1_555
C30_3 C28_3 1_555 1_555
C31_3 N7_3 1_555 1_555
H20_3 C31_3 1_555 1_555
C32_3 N6_3 1_555 1_555
Cd8_2 N5_3 1_555 1_555
Cd9_3 O4_3 1_555 1_555
C4_3 C6_3 1_555 1_555
C10_3 C11_3 1_555 1_555
C15_3 C17_3 1_555 1_555
C24_3 C25_3 1_555 1_555
C24_3 C26_3 1_555 1_555
N8_3 C32_3 1_555 1_555
C30_3 C31_3 1_555 1_555
C30_3 C32_3 1_555 1_555
O2_3 Cd6_2 1_555 1_555
N2_3 Cd6_2 1_555 1_555
C1_3 H1_3 1_555 1_555
C2_3 C1_3 1_555 1_555
H2_3 C2_3 1_555 1_555
C3_3 N2_3 1_555 1_555
H3_3 C3_3 1_555 1_555
C7_3 C1_3 1_555 1_555
C8_3 N2_3 1_555 1_555
H7_3 C8_3 1_555 1_555
N4_3 C16_3 1_555 1_555
C16_3 C7_3 1_555 1_555
H11_3 C18_3 1_555 1_555
H12_3 C19_3 1_555 1_555
N9_3 C35_3 1_555 1_555
C33_3 H21_3 1_555 1_555
C34_3 C33_3 1_555 1_555
H22_3 C34_3 1_555 1_555
C35_3 C34_3 1_555 1_555
H23_3 C35_3 1_555 1_555
C36_3 C33_3 1_555 1_555
C37_3 N9_3 1_555 1_555
H24_3 C37_3 1_555 1_555
N10_3 C16_3 1_555 1_555
C38_3 C36_3 1_555 1_555
N11_3 C41_3 1_555 1_555
C39_3 H25_3 1_555 1_555
C40_3 C39_3 1_555 1_555
H26_3 C40_3 1_555 1_555
C41_3 C40_3 1_555 1_555
H27_3 C41_3 1_555 1_555
C42_3 C39_3 1_555 1_555
C43_3 N11_3 1_555 1_555
H28_3 C43_3 1_555 1_555
N12_3 C38_3 1_555 1_555
C44_3 N4_3 1_555 1_555
Cd8_2 N9_3 1_555 1_555
O5_3 Cd8_2 1_555 1_555
O6_3 Cd8_2 1_555 1_555
O15_2 C47_3 1_555 1_555
O8_3 C47_3 1_555 1_555
C45_3 O5_3 1_555 1_555
C46_3 H29_3 1_555 1_555
C47_3 C48_3 1_555 1_555
C48_3 C46_3 1_555 1_555
C49_3 C48_3 1_555 1_555
H30_3 C49_3 1_555 1_555
C50_3 C45_3 1_555 1_555
C51_3 C46_3 1_555 1_555
H31_3 C51_3 1_555 1_555
C52_3 C50_3 1_555 1_555
H32_3 C52_3 1_555 1_555
Cd7_2 N11_3 1_555 1_555
O10_3 Cd7_2 1_555 1_555
H35_3 C59_3 1_555 1_555
H36_3 C60_3 1_555 1_555
Cd10_3 O8_3 1_555 1_555
O16_3 Cd6_2 1_555 1_555
O17_3 Cd8_2 1_555 1_555
O18_3 Cd7_2 1_555 1_555
C2_3 C3_3 1_555 1_555
C7_3 C8_3 1_555 1_555
C18_3 C19_3 1_555 1_555
C36_3 C37_3 1_555 1_555
N10_3 C38_3 1_555 1_555
C42_3 C43_3 1_555 1_555
C42_3 C44_3 1_555 1_555
N12_3 C44_3 1_555 1_555
O6_3 C45_3 1_555 1_555
C49_3 C50_3 1_555 1_555
C51_3 C52_3 1_555 1_555
C59_3 C60_3 1_555 1_555
O14_2 C55_3 1_555 1_555
O12_3 C55_3 1_555 1_555
C53_3 O9_3 1_555 1_555
C54_3 H33_3 1_555 1_555
C55_3 C56_3 1_555 1_555
C56_3 C54_3 1_555 1_555
C57_3 C56_3 1_555 1_555
H34_3 C57_3 1_555 1_555
C58_3 C53_3 1_555 1_555
Cd11_3 O12_3 1_555 1_555
C57_3 C58_3 1_555 1_555
N7_4 C29_4 1_555 1_555
C27_4 H17_4 1_555 1_555
C28_4 C27_4 1_555 1_555
H18_4 C28_4 1_555 1_555
C29_4 C27_4 1_555 1_555
H19_4 C29_4 1_555 1_555
C30_4 C28_4 1_555 1_555
C31_4 N7_4 1_555 1_555
H20_4 C31_4 1_555 1_555
C32_4 N6_4 1_555 1_555
Cd5_3 N7_4 1_555 1_555
C30_4 C31_4 1_555 1_555
C30_4 C32_4 1_555 1_555
C4_4 H4_4 1_555 1_555
C5_4 C4_4 1_555 1_555
H5_4 C5_4 1_555 1_555
O7_3 C47_4 1_555 1_555
O8_4 C47_4 1_555 1_555
Cd7_3 O7_3 1_555 1_555
Cd10_4 O8_4 1_555 1_555
N5_4 C23_4 1_555 1_555
H15_4 C23_4 1_555 1_555
C25_4 N5_4 1_555 1_555
H16_4 C25_4 1_555 1_555
Cd4_3 N5_4 1_555 1_555
C24_4 C25_4 1_555 1_555
C24_4 C26_4 1_555 1_555
Cd1_3 O1_4 1_555 1_555
O1_4 C9_4 1_555 1_555
O2_4 Cd1_3 1_555 1_555
O3_3 C13_4 1_555 1_555
O4_4 C13_4 1_555 1_555
N1_4 Cd1_3 1_555 1_555
N2_4 Cd1_3 1_555 1_555
N3_4 C20_4 1_555 1_555
C1_4 H1_4 1_555 1_555
C2_4 C1_4 1_555 1_555
H2_4 C2_4 1_555 1_555
C3_4 N2_4 1_555 1_555
H3_4 C3_4 1_555 1_555
C6_4 N1_4 1_555 1_555
H6_4 C6_4 1_555 1_555
C7_4 C1_4 1_555 1_555
C8_4 N2_4 1_555 1_555
H7_4 C8_4 1_555 1_555
C9_4 O2_4 1_555 1_555
C11_4 N1_4 1_555 1_555
H8_4 C11_4 1_555 1_555
C12_4 H9_4 1_555 1_555
C13_4 C14_4 1_555 1_555
C14_4 C12_4 1_555 1_555
C15_4 C14_4 1_555 1_555
H10_4 C15_4 1_555 1_555
N4_4 C16_4 1_555 1_555
C16_4 C7_4 1_555 1_555
C17_4 C9_4 1_555 1_555
C18_4 C12_4 1_555 1_555
H11_4 C18_4 1_555 1_555
C19_4 C17_4 1_555 1_555
H12_4 C19_4 1_555 1_555
C20_4 C10_4 1_555 1_555
C21_4 H13_4 1_555 1_555
C22_4 C21_4 1_555 1_555
H14_4 C22_4 1_555 1_555
N9_4 C35_4 1_555 1_555
C33_4 H21_4 1_555 1_555
C34_4 C33_4 1_555 1_555
H22_4 C34_4 1_555 1_555
C35_4 C34_4 1_555 1_555
H23_4 C35_4 1_555 1_555
C36_4 C33_4 1_555 1_555
C37_4 N9_4 1_555 1_555
H24_4 C37_4 1_555 1_555
N10_4 C16_4 1_555 1_555
C38_4 C36_4 1_555 1_555
N11_4 C41_4 1_555 1_555
C39_4 H25_4 1_555 1_555
C40_4 C39_4 1_555 1_555
H26_4 C40_4 1_555 1_555
C41_4 C40_4 1_555 1_555
H27_4 C41_4 1_555 1_555
C42_4 C39_4 1_555 1_555
C43_4 N11_4 1_555 1_555
H28_4 C43_4 1_555 1_555
N12_4 C38_4 1_555 1_555
C44_4 N4_4 1_555 1_555
Cd4_3 N9_4 1_555 1_555
O5_4 Cd4_3 1_555 1_555
O6_4 Cd4_3 1_555 1_555
C45_4 O5_4 1_555 1_555
C46_4 H29_4 1_555 1_555
C48_4 C46_4 1_555 1_555
C49_4 C48_4 1_555 1_555
H30_4 C49_4 1_555 1_555
C50_4 C45_4 1_555 1_555
C51_4 C46_4 1_555 1_555
H31_4 C51_4 1_555 1_555
C52_4 C50_4 1_555 1_555
H32_4 C52_4 1_555 1_555
Cd5_3 N11_4 1_555 1_555
O9_4 Cd5_3 1_555 1_555
O10_4 Cd5_3 1_555 1_555
C53_4 O9_4 1_555 1_555
C54_4 H33_4 1_555 1_555
C56_4 C54_4 1_555 1_555
C57_4 C56_4 1_555 1_555
H34_4 C57_4 1_555 1_555
C58_4 C53_4 1_555 1_555
C59_4 C54_4 1_555 1_555
H35_4 C59_4 1_555 1_555
C60_4 C58_4 1_555 1_555
H36_4 C60_4 1_555 1_555
Cd6_3 O3_3 1_555 1_555
Cd9_4 O4_4 1_555 1_555
O13_3 Cd1_3 1_555 1_555
O14_3 Cd4_3 1_555 1_555
O15_3 Cd5_3 1_555 1_555
O16_4 Cd1_3 1_555 1_555
O17_4 Cd4_3 1_555 1_555
O18_4 Cd5_3 1_555 1_555
C2_4 C3_4 1_555 1_555
C7_4 C8_4 1_555 1_555
C10_4 C11_4 1_555 1_555
C15_4 C17_4 1_555 1_555
C18_4 C19_4 1_555 1_555
C36_4 C37_4 1_555 1_555
N10_4 C38_4 1_555 1_555
C42_4 C43_4 1_555 1_555
C42_4 C44_4 1_555 1_555
N12_4 C44_4 1_555 1_555
O6_4 C45_4 1_555 1_555
C49_4 C50_4 1_555 1_555
C51_4 C52_4 1_555 1_555
O10_4 C53_4 1_555 1_555
C57_4 C58_4 1_555 1_555
C59_4 C60_4 1_555 1_555
O11_3 C55_4 1_555 1_555
O12_4 C55_4 1_555 1_555
Cd8_3 O11_3 1_555 1_555
Cd11_4 O12_4 1_555 1_555
N7_5 C29_5 1_555 1_555
C27_5 H17_5 1_555 1_555
C28_5 C27_5 1_555 1_555
H18_5 C28_5 1_555 1_555
C29_5 C27_5 1_555 1_555
H19_5 C29_5 1_555 1_555
C30_5 C28_5 1_555 1_555
C31_5 N7_5 1_555 1_555
H20_5 C31_5 1_555 1_555
C32_5 N6_5 1_555 1_555
Cd7_3 N7_5 1_555 1_555
C30_5 C31_5 1_555 1_555
C30_5 C32_5 1_555 1_555
N5_5 C23_5 1_555 1_555
H15_5 C23_5 1_555 1_555
C25_5 N5_5 1_555 1_555
H16_5 C25_5 1_555 1_555
Cd8_3 N5_5 1_555 1_555
C24_5 C25_5 1_555 1_555
C24_5 C26_5 1_555 1_555
C4_5 H4_5 1_555 1_555
C5_5 C4_5 1_555 1_555
H5_5 C5_5 1_555 1_555
O15_3 C47_5 1_555 1_555
O8_5 C47_5 1_555 1_555
Cd10_5 O8_5 1_555 1_555
Cd6_3 O1_5 1_555 1_555
O1_5 C9_5 1_555 1_555
O2_5 Cd6_3 1_555 1_555
O13_3 C13_5 1_555 1_555
O4_5 C13_5 1_555 1_555
N1_5 Cd6_3 1_555 1_555
N2_5 Cd6_3 1_555 1_555
N3_5 C20_5 1_555 1_555
C1_5 H1_5 1_555 1_555
C2_5 C1_5 1_555 1_555
H2_5 C2_5 1_555 1_555
C3_5 N2_5 1_555 1_555
H3_5 C3_5 1_555 1_555
C6_5 N1_5 1_555 1_555
H6_5 C6_5 1_555 1_555
C7_5 C1_5 1_555 1_555
C8_5 N2_5 1_555 1_555
H7_5 C8_5 1_555 1_555
C9_5 O2_5 1_555 1_555
C11_5 N1_5 1_555 1_555
H8_5 C11_5 1_555 1_555
C12_5 H9_5 1_555 1_555
C13_5 C14_5 1_555 1_555
C14_5 C12_5 1_555 1_555
C15_5 C14_5 1_555 1_555
H10_5 C15_5 1_555 1_555
N4_5 C16_5 1_555 1_555
C16_5 C7_5 1_555 1_555
C17_5 C9_5 1_555 1_555
C18_5 C12_5 1_555 1_555
H11_5 C18_5 1_555 1_555
C19_5 C17_5 1_555 1_555
H12_5 C19_5 1_555 1_555
C20_5 C10_5 1_555 1_555
C21_5 H13_5 1_555 1_555
C22_5 C21_5 1_555 1_555
H14_5 C22_5 1_555 1_555
N9_5 C35_5 1_555 1_555
C33_5 H21_5 1_555 1_555
C34_5 C33_5 1_555 1_555
H22_5 C34_5 1_555 1_555
C35_5 C34_5 1_555 1_555
H23_5 C35_5 1_555 1_555
C36_5 C33_5 1_555 1_555
C37_5 N9_5 1_555 1_555
H24_5 C37_5 1_555 1_555
N10_5 C16_5 1_555 1_555
C38_5 C36_5 1_555 1_555
N11_5 C41_5 1_555 1_555
C39_5 H25_5 1_555 1_555
C40_5 C39_5 1_555 1_555
H26_5 C40_5 1_555 1_555
C41_5 C40_5 1_555 1_555
H27_5 C41_5 1_555 1_555
C42_5 C39_5 1_555 1_555
C43_5 N11_5 1_555 1_555
H28_5 C43_5 1_555 1_555
N12_5 C38_5 1_555 1_555
C44_5 N4_5 1_555 1_555
Cd8_3 N9_5 1_555 1_555
O5_5 Cd8_3 1_555 1_555
O6_5 Cd8_3 1_555 1_555
C45_5 O5_5 1_555 1_555
C46_5 H29_5 1_555 1_555
C48_5 C46_5 1_555 1_555
C49_5 C48_5 1_555 1_555
H30_5 C49_5 1_555 1_555
C50_5 C45_5 1_555 1_555
C51_5 C46_5 1_555 1_555
H31_5 C51_5 1_555 1_555
C52_5 C50_5 1_555 1_555
H32_5 C52_5 1_555 1_555
Cd7_3 N11_5 1_555 1_555
O9_5 Cd7_3 1_555 1_555
O10_5 Cd7_3 1_555 1_555
C53_5 O9_5 1_555 1_555
C54_5 H33_5 1_555 1_555
C56_5 C54_5 1_555 1_555
C57_5 C56_5 1_555 1_555
H34_5 C57_5 1_555 1_555
C58_5 C53_5 1_555 1_555
C59_5 C54_5 1_555 1_555
H35_5 C59_5 1_555 1_555
C60_5 C58_5 1_555 1_555
H36_5 C60_5 1_555 1_555
Cd9_5 O4_5 1_555 1_555
O16_5 Cd6_3 1_555 1_555
O17_5 Cd8_3 1_555 1_555
O18_5 Cd7_3 1_555 1_555
C2_5 C3_5 1_555 1_555
C7_5 C8_5 1_555 1_555
C10_5 C11_5 1_555 1_555
C15_5 C17_5 1_555 1_555
C18_5 C19_5 1_555 1_555
C36_5 C37_5 1_555 1_555
N10_5 C38_5 1_555 1_555
C42_5 C43_5 1_555 1_555
C42_5 C44_5 1_555 1_555
N12_5 C44_5 1_555 1_555
O6_5 C45_5 1_555 1_555
C49_5 C50_5 1_555 1_555
C51_5 C52_5 1_555 1_555
O10_5 C53_5 1_555 1_555
C57_5 C58_5 1_555 1_555
C59_5 C60_5 1_555 1_555
O14_3 C55_5 1_555 1_555
O12_5 C55_5 1_555 1_555
Cd11_5 O12_5 1_555 1_555
O1_6 C9_6 1_555 1_555
O13 C13_6 1_555 1_555
O4_6 C13_6 1_555 1_555
N3_6 C20_6 1_555 1_555
C4_6 H4_6 1_555 1_555
C5_6 C4_6 1_555 1_555
H5_6 C5_6 1_555 1_555
C6_6 N1_6 1_555 1_555
H6_6 C6_6 1_555 1_555
C10_6 C5_6 1_555 1_555
C11_6 N1_6 1_555 1_555
H8_6 C11_6 1_555 1_555
C12_6 H9_6 1_555 1_555
C13_6 C14_6 1_555 1_555
C14_6 C12_6 1_555 1_555
C15_6 C14_6 1_555 1_555
H10_6 C15_6 1_555 1_555
C17_6 C9_6 1_555 1_555
C20_6 C10_6 1_555 1_555
N5_6 C23_6 1_555 1_555
N6_6 C26_6 1_555 1_555
C21_6 H13_6 1_555 1_555
C22_6 C21_6 1_555 1_555
H14_6 C22_6 1_555 1_555
C23_6 C21_6 1_555 1_555
H15_6 C23_6 1_555 1_555
C24_6 C22_6 1_555 1_555
C25_6 N5_6 1_555 1_555
H16_6 C25_6 1_555 1_555
C26_6 N3_6 1_555 1_555
N7_6 C29_6 1_555 1_555
N8_6 C20_6 1_555 1_555
C27_6 H17_6 1_555 1_555
C28_6 C27_6 1_555 1_555
H18_6 C28_6 1_555 1_555
C29_6 C27_6 1_555 1_555
H19_6 C29_6 1_555 1_555
C30_6 C28_6 1_555 1_555
C31_6 N7_6 1_555 1_555
H20_6 C31_6 1_555 1_555
C32_6 N6_6 1_555 1_555
Cd8 N5_6 1_555 1_555
Cd9_6 O4_6 1_555 1_555
C4_6 C6_6 1_555 1_555
C10_6 C11_6 1_555 1_555
C15_6 C17_6 1_555 1_555
C24_6 C25_6 1_555 1_555
C24_6 C26_6 1_555 1_555
N8_6 C32_6 1_555 1_555
C30_6 C31_6 1_555 1_555
C30_6 C32_6 1_555 1_555
O2_6 Cd6 1_555 1_555
N2_6 Cd6 1_555 1_555
C1_6 H1_6 1_555 1_555
C2_6 C1_6 1_555 1_555
H2_6 C2_6 1_555 1_555
C3_6 N2_6 1_555 1_555
H3_6 C3_6 1_555 1_555
C7_6 C1_6 1_555 1_555
C8_6 N2_6 1_555 1_555
H7_6 C8_6 1_555 1_555
N4_6 C16_6 1_555 1_555
C16_6 C7_6 1_555 1_555
H11_6 C18_6 1_555 1_555
H12_6 C19_6 1_555 1_555
N9_6 C35_6 1_555 1_555
C33_6 H21_6 1_555 1_555
C34_6 C33_6 1_555 1_555
H22_6 C34_6 1_555 1_555
C35_6 C34_6 1_555 1_555
H23_6 C35_6 1_555 1_555
C36_6 C33_6 1_555 1_555
C37_6 N9_6 1_555 1_555
H24_6 C37_6 1_555 1_555
N10_6 C16_6 1_555 1_555
C38_6 C36_6 1_555 1_555
N11_6 C41_6 1_555 1_555
C39_6 H25_6 1_555 1_555
C40_6 C39_6 1_555 1_555
H26_6 C40_6 1_555 1_555
C41_6 C40_6 1_555 1_555
H27_6 C41_6 1_555 1_555
C42_6 C39_6 1_555 1_555
C43_6 N11_6 1_555 1_555
H28_6 C43_6 1_555 1_555
N12_6 C38_6 1_555 1_555
C44_6 N4_6 1_555 1_555
Cd8 N9_6 1_555 1_555
O5_6 Cd8 1_555 1_555
O6_6 Cd8 1_555 1_555
O15 C47_6 1_555 1_555
O8_6 C47_6 1_555 1_555
C45_6 O5_6 1_555 1_555
C46_6 H29_6 1_555 1_555
C47_6 C48_6 1_555 1_555
C48_6 C46_6 1_555 1_555
C49_6 C48_6 1_555 1_555
H30_6 C49_6 1_555 1_555
C50_6 C45_6 1_555 1_555
C51_6 C46_6 1_555 1_555
H31_6 C51_6 1_555 1_555
C52_6 C50_6 1_555 1_555
H32_6 C52_6 1_555 1_555
Cd7 N11_6 1_555 1_555
O10_6 Cd7 1_555 1_555
H35_6 C59_6 1_555 1_555
H36_6 C60_6 1_555 1_555
Cd10_6 O8_6 1_555 1_555
O16_6 Cd6 1_555 1_555
O17_6 Cd8 1_555 1_555
O18_6 Cd7 1_555 1_555
C2_6 C3_6 1_555 1_555
C7_6 C8_6 1_555 1_555
C18_6 C19_6 1_555 1_555
C36_6 C37_6 1_555 1_555
N10_6 C38_6 1_555 1_555
C42_6 C43_6 1_555 1_555
C42_6 C44_6 1_555 1_555
N12_6 C44_6 1_555 1_555
O6_6 C45_6 1_555 1_555
C49_6 C50_6 1_555 1_555
C51_6 C52_6 1_555 1_555
C59_6 C60_6 1_555 1_555
O14 C55_6 1_555 1_555
O12_6 C55_6 1_555 1_555
C53_6 O9_6 1_555 1_555
C54_6 H33_6 1_555 1_555
C55_6 C56_6 1_555 1_555
C56_6 C54_6 1_555 1_555
C57_6 C56_6 1_555 1_555
H34_6 C57_6 1_555 1_555
C58_6 C53_6 1_555 1_555
Cd11_6 O12_6 1_555 1_555
C57_6 C58_6 1_555 1_555
O17_6 C55_7 1_555 1_555
C54_7 H33_7 1_555 1_555
C59_7 C54_7 1_555 1_555
H35_7 C59_7 1_555 1_555
N11_7 C41_7 1_555 1_555
C39_7 H25_7 1_555 1_555
C40_7 C39_7 1_555 1_555
H26_7 C40_7 1_555 1_555
C41_7 C40_7 1_555 1_555
H27_7 C41_7 1_555 1_555
C42_7 C39_7 1_555 1_555
C43_7 N11_7 1_555 1_555
H28_7 C43_7 1_555 1_555
C44_7 N4_7 1_555 1_555
Cd10_4 N11_7 1_555 1_555
O9_7 Cd10_4 1_555 1_555
O10_7 Cd10_4 1_555 1_555
C53_7 O9_7 1_555 1_555
C57_7 C56_7 1_555 1_555
H34_7 C57_7 1_555 1_555
C58_7 C53_7 1_555 1_555
C60_7 C58_7 1_555 1_555
H36_7 C60_7 1_555 1_555
Cd11 O11_4 1_555 1_555
O15_4 Cd10_4 1_555 1_555
N14 Cd10_4 1_555 1_555
C42_7 C43_7 1_555 1_555
C42_7 C44_7 1_555 1_555
O10_7 C53_7 1_555 1_555
C57_7 C58_7 1_555 1_555
O18_6 C47_7 1_555 1_555
C46_7 H29_7 1_555 1_555
C51_7 C46_7 1_555 1_555
H31_7 C51_7 1_555 1_555
N9_7 C35_7 1_555 1_555
H23_7 C35_7 1_555 1_555
C37_7 N9_7 1_555 1_555
H24_7 C37_7 1_555 1_555
Cd11_4 N9_7 1_555 1_555
O5_7 Cd11_4 1_555 1_555
O6_7 Cd11_4 1_555 1_555
C45_7 O5_7 1_555 1_555
C49_7 C48_7 1_555 1_555
H30_7 C49_7 1_555 1_555
C50_7 C45_7 1_555 1_555
C52_7 C50_7 1_555 1_555
H32_7 C52_7 1_555 1_555
O14_4 Cd11_4 1_555 1_555
N13 Cd11_4 1_555 1_555
O6_7 C45_7 1_555 1_555
C49_7 C50_7 1_555 1_555
C1_7 H1_7 1_555 1_555
C2_7 C1_7 1_555 1_555
H2_7 C2_7 1_555 1_555
C7_7 C1_7 1_555 1_555
C16_7 C7_7 1_555 1_555
O16_6 C13_7 1_555 1_555
C12_7 H9_7 1_555 1_555
C18_7 C12_7 1_555 1_555
H11_7 C18_7 1_555 1_555
Cd9_4 O1_7 1_555 1_555
O1_7 C9_7 1_555 1_555
O2_7 Cd9_4 1_555 1_555
N1_7 Cd9_4 1_555 1_555
N2_7 Cd9_4 1_555 1_555
N3_7 C20_7 1_555 1_555
C3_7 N2_7 1_555 1_555
H3_7 C3_7 1_555 1_555
C4_7 H4_7 1_555 1_555
C5_7 C4_7 1_555 1_555
H5_7 C5_7 1_555 1_555
C6_7 N1_7 1_555 1_555
H6_7 C6_7 1_555 1_555
C8_7 N2_7 1_555 1_555
H7_7 C8_7 1_555 1_555
C9_7 O2_7 1_555 1_555
C10_7 C5_7 1_555 1_555
C11_7 N1_7 1_555 1_555
H8_7 C11_7 1_555 1_555
C15_7 C14_7 1_555 1_555
H10_7 C15_7 1_555 1_555
C17_7 C9_7 1_555 1_555
C19_7 C17_7 1_555 1_555
H12_7 C19_7 1_555 1_555
C20_7 C10_7 1_555 1_555
N13 C23_7 1_555 1_555
N6_7 C26_7 1_555 1_555
C21_7 H13_7 1_555 1_555
C22_7 C21_7 1_555 1_555
H14_7 C22_7 1_555 1_555
C23_7 C21_7 1_555 1_555
H15_7 C23_7 1_555 1_555
C24_7 C22_7 1_555 1_555
C25_7 N13 1_555 1_555
H16_7 C25_7 1_555 1_555
C26_7 N3_7 1_555 1_555
N14 C29_7 1_555 1_555
N8_7 C20_7 1_555 1_555
C27_7 H17_7 1_555 1_555
C28_7 C27_7 1_555 1_555
H18_7 C28_7 1_555 1_555
C29_7 C27_7 1_555 1_555
H19_7 C29_7 1_555 1_555
C30_7 C28_7 1_555 1_555
C31_7 N14 1_555 1_555
H20_7 C31_7 1_555 1_555
C32_7 N6_7 1_555 1_555
C33_7 H21_7 1_555 1_555
C34_7 C33_7 1_555 1_555
H22_7 C34_7 1_555 1_555
C36_7 C33_7 1_555 1_555
C38_7 C36_7 1_555 1_555
O13_4 Cd9_4 1_555 1_555
C4_7 C6_7 1_555 1_555
C10_7 C11_7 1_555 1_555
C15_7 C17_7 1_555 1_555
C24_7 C25_7 1_555 1_555
C24_7 C26_7 1_555 1_555
N8_7 C32_7 1_555 1_555
C30_7 C31_7 1_555 1_555
C30_7 C32_7 1_555 1_555
N10_7 C38_7 1_555 1_555
N11_8 C41_8 1_555 1_555
C39_8 H25_8 1_555 1_555
C40_8 C39_8 1_555 1_555
H26_8 C40_8 1_555 1_555
C41_8 C40_8 1_555 1_555
H27_8 C41_8 1_555 1_555
C42_8 C39_8 1_555 1_555
C43_8 N11_8 1_555 1_555
H28_8 C43_8 1_555 1_555
C44_8 N4_8 1_555 1_555
Cd10_5 N11_8 1_555 1_555
O9_8 Cd10_5 1_555 1_555
O10_8 Cd10_5 1_555 1_555
O11_5 C55_8 1_555 1_555
O17_3 C55_8 1_555 1_555
C53_8 O9_8 1_555 1_555
C54_8 H33_8 1_555 1_555
C55_8 C56_8 1_555 1_555
C56_8 C54_8 1_555 1_555
C57_8 C56_8 1_555 1_555
H34_8 C57_8 1_555 1_555
C58_8 C53_8 1_555 1_555
C59_8 C54_8 1_555 1_555
H35_8 C59_8 1_555 1_555
C60_8 C58_8 1_555 1_555
H36_8 C60_8 1_555 1_555
Cd11_2 O11_5 1_555 1_555
O15_5 Cd10_5 1_555 1_555
N14_2 Cd10_5 1_555 1_555
C42_8 C43_8 1_555 1_555
C42_8 C44_8 1_555 1_555
O10_8 C53_8 1_555 1_555
C57_8 C58_8 1_555 1_555
C59_8 C60_8 1_555 1_555
C1_8 H1_8 1_555 1_555
C2_8 C1_8 1_555 1_555
H2_8 C2_8 1_555 1_555
C7_8 C1_8 1_555 1_555
C16_8 C7_8 1_555 1_555
N9_8 C35_8 1_555 1_555
H23_8 C35_8 1_555 1_555
C37_8 N9_8 1_555 1_555
H24_8 C37_8 1_555 1_555
Cd11_5 N9_8 1_555 1_555
O5_8 Cd11_5 1_555 1_555
O6_8 Cd11_5 1_555 1_555
O7_5 C47_8 1_555 1_555
O18_3 C47_8 1_555 1_555
C45_8 O5_8 1_555 1_555
C46_8 H29_8 1_555 1_555
C47_8 C48_8 1_555 1_555
C48_8 C46_8 1_555 1_555
C49_8 C48_8 1_555 1_555
H30_8 C49_8 1_555 1_555
C50_8 C45_8 1_555 1_555
C51_8 C46_8 1_555 1_555
H31_8 C51_8 1_555 1_555
C52_8 C50_8 1_555 1_555
H32_8 C52_8 1_555 1_555
O14_5 Cd11_5 1_555 1_555
N13_2 Cd11_5 1_555 1_555
O6_8 C45_8 1_555 1_555
C49_8 C50_8 1_555 1_555
C51_8 C52_8 1_555 1_555
Cd9_5 O1_8 1_555 1_555
O1_8 C9_8 1_555 1_555
O2_8 Cd9_5 1_555 1_555
O3_5 C13_8 1_555 1_555
O16_3 C13_8 1_555 1_555
N1_8 Cd9_5 1_555 1_555
N2_8 Cd9_5 1_555 1_555
N3_8 C20_8 1_555 1_555
C3_8 N2_8 1_555 1_555
H3_8 C3_8 1_555 1_555
C4_8 H4_8 1_555 1_555
C5_8 C4_8 1_555 1_555
H5_8 C5_8 1_555 1_555
C6_8 N1_8 1_555 1_555
H6_8 C6_8 1_555 1_555
C8_8 N2_8 1_555 1_555
H7_8 C8_8 1_555 1_555
C9_8 O2_8 1_555 1_555
C10_8 C5_8 1_555 1_555
C11_8 N1_8 1_555 1_555
H8_8 C11_8 1_555 1_555
C12_8 H9_8 1_555 1_555
C13_8 C14_8 1_555 1_555
C14_8 C12_8 1_555 1_555
C15_8 C14_8 1_555 1_555
H10_8 C15_8 1_555 1_555
C17_8 C9_8 1_555 1_555
C18_8 C12_8 1_555 1_555
H11_8 C18_8 1_555 1_555
C19_8 C17_8 1_555 1_555
H12_8 C19_8 1_555 1_555
C20_8 C10_8 1_555 1_555
N13_2 C23_8 1_555 1_555
N6_8 C26_8 1_555 1_555
C21_8 H13_8 1_555 1_555
C22_8 C21_8 1_555 1_555
H14_8 C22_8 1_555 1_555
C23_8 C21_8 1_555 1_555
H15_8 C23_8 1_555 1_555
C24_8 C22_8 1_555 1_555
C25_8 N13_2 1_555 1_555
H16_8 C25_8 1_555 1_555
C26_8 N3_8 1_555 1_555
N14_2 C29_8 1_555 1_555
N8_8 C20_8 1_555 1_555
C27_8 H17_8 1_555 1_555
C28_8 C27_8 1_555 1_555
H18_8 C28_8 1_555 1_555
C29_8 C27_8 1_555 1_555
H19_8 C29_8 1_555 1_555
C30_8 C28_8 1_555 1_555
C31_8 N14_2 1_555 1_555
H20_8 C31_8 1_555 1_555
C32_8 N6_8 1_555 1_555
C33_8 H21_8 1_555 1_555
C34_8 C33_8 1_555 1_555
H22_8 C34_8 1_555 1_555
C36_8 C33_8 1_555 1_555
C38_8 C36_8 1_555 1_555
O13_5 Cd9_5 1_555 1_555
C4_8 C6_8 1_555 1_555
C10_8 C11_8 1_555 1_555
C15_8 C17_8 1_555 1_555
C18_8 C19_8 1_555 1_555
C24_8 C25_8 1_555 1_555
C24_8 C26_8 1_555 1_555
N8_8 C32_8 1_555 1_555
C30_8 C31_8 1_555 1_555
C30_8 C32_8 1_555 1_555
N10_8 C38_8 1_555 1_555
O14_5 C55_9 1_555 1_555
O17_4 C55_9 1_555 1_555
C53_9 O9_9 1_555 1_555
C54_9 H33_9 1_555 1_555
C55_9 C56_9 1_555 1_555
C56_9 C54_9 1_555 1_555
C57_9 C56_9 1_555 1_555
H34_9 C57_9 1_555 1_555
C58_9 C53_9 1_555 1_555
C57_9 C58_9 1_555 1_555
O2_9 Cd9_2 1_555 1_555
N2_9 Cd9_2 1_555 1_555
C1_9 H1_9 1_555 1_555
C2_9 C1_9 1_555 1_555
H2_9 C2_9 1_555 1_555
C3_9 N2_9 1_555 1_555
H3_9 C3_9 1_555 1_555
C7_9 C1_9 1_555 1_555
C8_9 N2_9 1_555 1_555
H7_9 C8_9 1_555 1_555
N4_9 C16_9 1_555 1_555
C16_9 C7_9 1_555 1_555
H11_9 C18_9 1_555 1_555
H12_9 C19_9 1_555 1_555
N9_9 C35_9 1_555 1_555
C33_9 H21_9 1_555 1_555
C34_9 C33_9 1_555 1_555
H22_9 C34_9 1_555 1_555
C35_9 C34_9 1_555 1_555
H23_9 C35_9 1_555 1_555
C36_9 C33_9 1_555 1_555
C37_9 N9_9 1_555 1_555
H24_9 C37_9 1_555 1_555
N10_9 C16_9 1_555 1_555
C38_9 C36_9 1_555 1_555
N11_9 C41_9 1_555 1_555
C39_9 H25_9 1_555 1_555
C40_9 C39_9 1_555 1_555
H26_9 C40_9 1_555 1_555
C41_9 C40_9 1_555 1_555
H27_9 C41_9 1_555 1_555
C42_9 C39_9 1_555 1_555
C43_9 N11_9 1_555 1_555
H28_9 C43_9 1_555 1_555
N12_9 C38_9 1_555 1_555
C44_9 N4_9 1_555 1_555
Cd11_2 N9_9 1_555 1_555
O5_9 Cd11_2 1_555 1_555
O6_9 Cd11_2 1_555 1_555
O15_5 C47_9 1_555 1_555
O18_4 C47_9 1_555 1_555
C45_9 O5_9 1_555 1_555
C46_9 H29_9 1_555 1_555
C47_9 C48_9 1_555 1_555
C48_9 C46_9 1_555 1_555
C49_9 C48_9 1_555 1_555
H30_9 C49_9 1_555 1_555
C50_9 C45_9 1_555 1_555
C51_9 C46_9 1_555 1_555
H31_9 C51_9 1_555 1_555
C52_9 C50_9 1_555 1_555
H32_9 C52_9 1_555 1_555
Cd10_2 N11_9 1_555 1_555
O10_9 Cd10_2 1_555 1_555
H35_9 C59_9 1_555 1_555
H36_9 C60_9 1_555 1_555
N13_3 Cd11_2 1_555 1_555
C2_9 C3_9 1_555 1_555
C7_9 C8_9 1_555 1_555
C18_9 C19_9 1_555 1_555
C36_9 C37_9 1_555 1_555
N10_9 C38_9 1_555 1_555
C42_9 C43_9 1_555 1_555
C42_9 C44_9 1_555 1_555
N12_9 C44_9 1_555 1_555
O6_9 C45_9 1_555 1_555
C49_9 C50_9 1_555 1_555
C51_9 C52_9 1_555 1_555
C59_9 C60_9 1_555 1_555
O1_9 C9_9 1_555 1_555
O13_5 C13_9 1_555 1_555
O16_4 C13_9 1_555 1_555
N3_9 C20_9 1_555 1_555
C4_9 H4_9 1_555 1_555
C5_9 C4_9 1_555 1_555
H5_9 C5_9 1_555 1_555
C6_9 N1_9 1_555 1_555
H6_9 C6_9 1_555 1_555
C10_9 C5_9 1_555 1_555
C11_9 N1_9 1_555 1_555
H8_9 C11_9 1_555 1_555
C12_9 H9_9 1_555 1_555
C13_9 C14_9 1_555 1_555
C14_9 C12_9 1_555 1_555
C15_9 C14_9 1_555 1_555
H10_9 C15_9 1_555 1_555
C17_9 C9_9 1_555 1_555
C20_9 C10_9 1_555 1_555
N13_3 C23_9 1_555 1_555
N6_9 C26_9 1_555 1_555
C21_9 H13_9 1_555 1_555
C22_9 C21_9 1_555 1_555
H14_9 C22_9 1_555 1_555
C23_9 C21_9 1_555 1_555
H15_9 C23_9 1_555 1_555
C24_9 C22_9 1_555 1_555
C25_9 N13_3 1_555 1_555
H16_9 C25_9 1_555 1_555
C26_9 N3_9 1_555 1_555
N14_3 C29_9 1_555 1_555
N8_9 C20_9 1_555 1_555
C27_9 H17_9 1_555 1_555
C28_9 C27_9 1_555 1_555
H18_9 C28_9 1_555 1_555
C29_9 C27_9 1_555 1_555
H19_9 C29_9 1_555 1_555
C30_9 C28_9 1_555 1_555
C31_9 N14_3 1_555 1_555
H20_9 C31_9 1_555 1_555
C32_9 N6_9 1_555 1_555
C4_9 C6_9 1_555 1_555
C10_9 C11_9 1_555 1_555
C15_9 C17_9 1_555 1_555
C24_9 C25_9 1_555 1_555
C24_9 C26_9 1_555 1_555
N8_9 C32_9 1_555 1_555
C30_9 C31_9 1_555 1_555
C30_9 C32_9 1_555 1_555
O11_6 C55_10 1_555 1_555
O17 C55_10 1_555 1_555
Cd11_6 O11_6 1_555 1_555
Cd9_3 O1_10 1_555 1_555
O1_10 C9_10 1_555 1_555
O2_10 Cd9_3 1_555 1_555
O3_6 C13_10 1_555 1_555
O16 C13_10 1_555 1_555
N1_10 Cd9_3 1_555 1_555
N2_10 Cd9_3 1_555 1_555
N3_10 C20_10 1_555 1_555
C1_10 H1_10 1_555 1_555
C2_10 C1_10 1_555 1_555
H2_10 C2_10 1_555 1_555
C3_10 N2_10 1_555 1_555
H3_10 C3_10 1_555 1_555
C6_10 N1_10 1_555 1_555
H6_10 C6_10 1_555 1_555
C7_10 C1_10 1_555 1_555
C8_10 N2_10 1_555 1_555
H7_10 C8_10 1_555 1_555
C9_10 O2_10 1_555 1_555
C11_10 N1_10 1_555 1_555
H8_10 C11_10 1_555 1_555
C12_10 H9_10 1_555 1_555
C13_10 C14_10 1_555 1_555
C14_10 C12_10 1_555 1_555
C15_10 C14_10 1_555 1_555
H10_10 C15_10 1_555 1_555
N4_10 C16_10 1_555 1_555
C16_10 C7_10 1_555 1_555
C17_10 C9_10 1_555 1_555
C18_10 C12_10 1_555 1_555
H11_10 C18_10 1_555 1_555
C19_10 C17_10 1_555 1_555
H12_10 C19_10 1_555 1_555
C20_10 C10_10 1_555 1_555
C21_10 H13_10 1_555 1_555
C22_10 C21_10 1_555 1_555
H14_10 C22_10 1_555 1_555
N9_10 C35_10 1_555 1_555
C33_10 H21_10 1_555 1_555
C34_10 C33_10 1_555 1_555
H22_10 C34_10 1_555 1_555
C35_10 C34_10 1_555 1_555
H23_10 C35_10 1_555 1_555
C36_10 C33_10 1_555 1_555
C37_10 N9_10 1_555 1_555
H24_10 C37_10 1_555 1_555
N10_10 C16_10 1_555 1_555
C38_10 C36_10 1_555 1_555
N11_10 C41_10 1_555 1_555
C39_10 H25_10 1_555 1_555
C40_10 C39_10 1_555 1_555
H26_10 C40_10 1_555 1_555
C41_10 C40_10 1_555 1_555
H27_10 C41_10 1_555 1_555
C42_10 C39_10 1_555 1_555
C43_10 N11_10 1_555 1_555
H28_10 C43_10 1_555 1_555
N12_10 C38_10 1_555 1_555
C44_10 N4_10 1_555 1_555
Cd11_3 N9_10 1_555 1_555
O5_10 Cd11_3 1_555 1_555
O6_10 Cd11_3 1_555 1_555
C45_10 O5_10 1_555 1_555
C46_10 H29_10 1_555 1_555
C48_10 C46_10 1_555 1_555
C49_10 C48_10 1_555 1_555
H30_10 C49_10 1_555 1_555
C50_10 C45_10 1_555 1_555
C51_10 C46_10 1_555 1_555
H31_10 C51_10 1_555 1_555
C52_10 C50_10 1_555 1_555
H32_10 C52_10 1_555 1_555
Cd10_3 N11_10 1_555 1_555
O9_10 Cd10_3 1_555 1_555
O10_10 Cd10_3 1_555 1_555
C53_10 O9_10 1_555 1_555
C54_10 H33_10 1_555 1_555
C56_10 C54_10 1_555 1_555
C57_10 C56_10 1_555 1_555
H34_10 C57_10 1_555 1_555
C58_10 C53_10 1_555 1_555
C59_10 C54_10 1_555 1_555
H35_10 C59_10 1_555 1_555
C60_10 C58_10 1_555 1_555
H36_10 C60_10 1_555 1_555
Cd9_6 O3_6 1_555 1_555
O13_6 Cd9_3 1_555 1_555
O14_6 Cd11_3 1_555 1_555
O15_6 Cd10_3 1_555 1_555
N13_4 Cd11_3 1_555 1_555
N14_4 Cd10_3 1_555 1_555
C2_10 C3_10 1_555 1_555
C7_10 C8_10 1_555 1_555
C10_10 C11_10 1_555 1_555
C15_10 C17_10 1_555 1_555
C18_10 C19_10 1_555 1_555
C36_10 C37_10 1_555 1_555
N10_10 C38_10 1_555 1_555
C42_10 C43_10 1_555 1_555
C42_10 C44_10 1_555 1_555
N12_10 C44_10 1_555 1_555
O6_10 C45_10 1_555 1_555
C49_10 C50_10 1_555 1_555
C51_10 C52_10 1_555 1_555
O10_10 C53_10 1_555 1_555
C57_10 C58_10 1_555 1_555
C59_10 C60_10 1_555 1_555
N13_4 C23_10 1_555 1_555
H15_10 C23_10 1_555 1_555
C25_10 N13_4 1_555 1_555
H16_10 C25_10 1_555 1_555
C24_10 C25_10 1_555 1_555
C24_10 C26_10 1_555 1_555
C4_10 H4_10 1_555 1_555
C5_10 C4_10 1_555 1_555
H5_10 C5_10 1_555 1_555
O7_6 C47_10 1_555 1_555
O18 C47_10 1_555 1_555
Cd10_6 O7_6 1_555 1_555
N14_4 C29_10 1_555 1_555
C27_10 H17_10 1_555 1_555
C28_10 C27_10 1_555 1_555
H18_10 C28_10 1_555 1_555
C29_10 C27_10 1_555 1_555
H19_10 C29_10 1_555 1_555
C30_10 C28_10 1_555 1_555
C31_10 N14_4 1_555 1_555
H20_10 C31_10 1_555 1_555
C32_10 N6_10 1_555 1_555
C30_10 C31_10 1_555 1_555
C30_10 C32_10 1_555 1_555
O14_6 C55_11 1_555 1_555
O17_2 C55_11 1_555 1_555
Cd9_6 O1_11 1_555 1_555
O1_11 C9_11 1_555 1_555
O2_11 Cd9_6 1_555 1_555
O13_6 C13_11 1_555 1_555
O16_2 C13_11 1_555 1_555
N1_11 Cd9_6 1_555 1_555
N2_11 Cd9_6 1_555 1_555
N3_11 C20_11 1_555 1_555
C1_11 H1_11 1_555 1_555
C2_11 C1_11 1_555 1_555
H2_11 C2_11 1_555 1_555
C3_11 N2_11 1_555 1_555
H3_11 C3_11 1_555 1_555
C6_11 N1_11 1_555 1_555
H6_11 C6_11 1_555 1_555
C7_11 C1_11 1_555 1_555
C8_11 N2_11 1_555 1_555
H7_11 C8_11 1_555 1_555
C9_11 O2_11 1_555 1_555
C11_11 N1_11 1_555 1_555
H8_11 C11_11 1_555 1_555
C12_11 H9_11 1_555 1_555
C13_11 C14_11 1_555 1_555
C14_11 C12_11 1_555 1_555
C15_11 C14_11 1_555 1_555
H10_11 C15_11 1_555 1_555
N4_11 C16_11 1_555 1_555
C16_11 C7_11 1_555 1_555
C17_11 C9_11 1_555 1_555
C18_11 C12_11 1_555 1_555
H11_11 C18_11 1_555 1_555
C19_11 C17_11 1_555 1_555
H12_11 C19_11 1_555 1_555
C20_11 C10_11 1_555 1_555
C21_11 H13_11 1_555 1_555
C22_11 C21_11 1_555 1_555
H14_11 C22_11 1_555 1_555
N9_11 C35_11 1_555 1_555
C33_11 H21_11 1_555 1_555
C34_11 C33_11 1_555 1_555
H22_11 C34_11 1_555 1_555
C35_11 C34_11 1_555 1_555
H23_11 C35_11 1_555 1_555
C36_11 C33_11 1_555 1_555
C37_11 N9_11 1_555 1_555
H24_11 C37_11 1_555 1_555
N10_11 C16_11 1_555 1_555
C38_11 C36_11 1_555 1_555
N11_11 C41_11 1_555 1_555
C39_11 H25_11 1_555 1_555
C40_11 C39_11 1_555 1_555
H26_11 C40_11 1_555 1_555
C41_11 C40_11 1_555 1_555
H27_11 C41_11 1_555 1_555
C42_11 C39_11 1_555 1_555
C43_11 N11_11 1_555 1_555
H28_11 C43_11 1_555 1_555
N12_11 C38_11 1_555 1_555
C44_11 N4_11 1_555 1_555
Cd11_6 N9_11 1_555 1_555
O5_11 Cd11_6 1_555 1_555
O6_11 Cd11_6 1_555 1_555
C45_11 O5_11 1_555 1_555
C46_11 H29_11 1_555 1_555
C48_11 C46_11 1_555 1_555
C49_11 C48_11 1_555 1_555
H30_11 C49_11 1_555 1_555
C50_11 C45_11 1_555 1_555
C51_11 C46_11 1_555 1_555
H31_11 C51_11 1_555 1_555
C52_11 C50_11 1_555 1_555
H32_11 C52_11 1_555 1_555
Cd10_6 N11_11 1_555 1_555
O9_11 Cd10_6 1_555 1_555
O10_11 Cd10_6 1_555 1_555
C53_11 O9_11 1_555 1_555
C54_11 H33_11 1_555 1_555
C56_11 C54_11 1_555 1_555
C57_11 C56_11 1_555 1_555
H34_11 C57_11 1_555 1_555
C58_11 C53_11 1_555 1_555
C59_11 C54_11 1_555 1_555
H35_11 C59_11 1_555 1_555
C60_11 C58_11 1_555 1_555
H36_11 C60_11 1_555 1_555
N13_5 Cd11_6 1_555 1_555
N14_5 Cd10_6 1_555 1_555
C2_11 C3_11 1_555 1_555
C7_11 C8_11 1_555 1_555
C10_11 C11_11 1_555 1_555
C15_11 C17_11 1_555 1_555
C18_11 C19_11 1_555 1_555
C36_11 C37_11 1_555 1_555
N10_11 C38_11 1_555 1_555
C42_11 C43_11 1_555 1_555
C42_11 C44_11 1_555 1_555
N12_11 C44_11 1_555 1_555
O6_11 C45_11 1_555 1_555
C49_11 C50_11 1_555 1_555
C51_11 C52_11 1_555 1_555
O10_11 C53_11 1_555 1_555
C57_11 C58_11 1_555 1_555
C59_11 C60_11 1_555 1_555
C4_11 H4_11 1_555 1_555
C5_11 C4_11 1_555 1_555
H5_11 C5_11 1_555 1_555
O15_6 C47_11 1_555 1_555
O18_2 C47_11 1_555 1_555
N13_5 C23_11 1_555 1_555
H15_11 C23_11 1_555 1_555
C25_11 N13_5 1_555 1_555
H16_11 C25_11 1_555 1_555
C24_11 C25_11 1_555 1_555
C24_11 C26_11 1_555 1_555
N14_5 C29_11 1_555 1_555
C27_11 H17_11 1_555 1_555
C28_11 C27_11 1_555 1_555
H18_11 C28_11 1_555 1_555
C29_11 C27_11 1_555 1_555
H19_11 C29_11 1_555 1_555
C30_11 C28_11 1_555 1_555
C31_11 N14_5 1_555 1_555
H20_11 C31_11 1_555 1_555
C32_11 N6_11 1_555 1_555
C30_11 C31_11 1_555 1_555
C30_11 C32_11 1_555 1_555
O14_4 C55_12 1_555 1_555
O17_5 C55_12 1_555 1_555
C53_12 O9_12 1_555 1_555
C54_12 H33_12 1_555 1_555
C55_12 C56_12 1_555 1_555
C56_12 C54_12 1_555 1_555
C57_12 C56_12 1_555 1_555
H34_12 C57_12 1_555 1_555
C58_12 C53_12 1_555 1_555
C57_12 C58_12 1_555 1_555
O2_12 Cd9 1_555 1_555
N2_12 Cd9 1_555 1_555
C1_12 H1_12 1_555 1_555
C2_12 C1_12 1_555 1_555
H2_12 C2_12 1_555 1_555
C3_12 N2_12 1_555 1_555
H3_12 C3_12 1_555 1_555
C7_12 C1_12 1_555 1_555
C8_12 N2_12 1_555 1_555
H7_12 C8_12 1_555 1_555
N4_12 C16_12 1_555 1_555
C16_12 C7_12 1_555 1_555
H11_12 C18_12 1_555 1_555
H12_12 C19_12 1_555 1_555
N9_12 C35_12 1_555 1_555
C33_12 H21_12 1_555 1_555
C34_12 C33_12 1_555 1_555
H22_12 C34_12 1_555 1_555
C35_12 C34_12 1_555 1_555
H23_12 C35_12 1_555 1_555
C36_12 C33_12 1_555 1_555
C37_12 N9_12 1_555 1_555
H24_12 C37_12 1_555 1_555
N10_12 C16_12 1_555 1_555
C38_12 C36_12 1_555 1_555
N11_12 C41_12 1_555 1_555
C39_12 H25_12 1_555 1_555
C40_12 C39_12 1_555 1_555
H26_12 C40_12 1_555 1_555
C41_12 C40_12 1_555 1_555
H27_12 C41_12 1_555 1_555
C42_12 C39_12 1_555 1_555
C43_12 N11_12 1_555 1_555
H28_12 C43_12 1_555 1_555
N12_12 C38_12 1_555 1_555
C44_12 N4_12 1_555 1_555
Cd11 N9_12 1_555 1_555
O5_12 Cd11 1_555 1_555
O6_12 Cd11 1_555 1_555
O15_4 C47_12 1_555 1_555
O18_5 C47_12 1_555 1_555
C45_12 O5_12 1_555 1_555
C46_12 H29_12 1_555 1_555
C47_12 C48_12 1_555 1_555
C48_12 C46_12 1_555 1_555
C49_12 C48_12 1_555 1_555
H30_12 C49_12 1_555 1_555
C50_12 C45_12 1_555 1_555
C51_12 C46_12 1_555 1_555
H31_12 C51_12 1_555 1_555
C52_12 C50_12 1_555 1_555
H32_12 C52_12 1_555 1_555
Cd10 N11_12 1_555 1_555
O10_12 Cd10 1_555 1_555
H35_12 C59_12 1_555 1_555
H36_12 C60_12 1_555 1_555
N13_6 Cd11 1_555 1_555
C2_12 C3_12 1_555 1_555
C7_12 C8_12 1_555 1_555
C18_12 C19_12 1_555 1_555
C36_12 C37_12 1_555 1_555
N10_12 C38_12 1_555 1_555
C42_12 C43_12 1_555 1_555
C42_12 C44_12 1_555 1_555
N12_12 C44_12 1_555 1_555
O6_12 C45_12 1_555 1_555
C49_12 C50_12 1_555 1_555
C51_12 C52_12 1_555 1_555
C59_12 C60_12 1_555 1_555
O1_12 C9_12 1_555 1_555
O13_4 C13_12 1_555 1_555
O16_5 C13_12 1_555 1_555
N3_12 C20_12 1_555 1_555
C4_12 H4_12 1_555 1_555
C5_12 C4_12 1_555 1_555
H5_12 C5_12 1_555 1_555
C6_12 N1_12 1_555 1_555
H6_12 C6_12 1_555 1_555
C10_12 C5_12 1_555 1_555
C11_12 N1_12 1_555 1_555
H8_12 C11_12 1_555 1_555
C12_12 H9_12 1_555 1_555
C13_12 C14_12 1_555 1_555
C14_12 C12_12 1_555 1_555
C15_12 C14_12 1_555 1_555
H10_12 C15_12 1_555 1_555
C17_12 C9_12 1_555 1_555
C20_12 C10_12 1_555 1_555
N13_6 C23_12 1_555 1_555
N6_12 C26_12 1_555 1_555
C21_12 H13_12 1_555 1_555
C22_12 C21_12 1_555 1_555
H14_12 C22_12 1_555 1_555
C23_12 C21_12 1_555 1_555
H15_12 C23_12 1_555 1_555
C24_12 C22_12 1_555 1_555
C25_12 N13_6 1_555 1_555
H16_12 C25_12 1_555 1_555
C26_12 N3_12 1_555 1_555
N14_6 C29_12 1_555 1_555
N8_12 C20_12 1_555 1_555
C27_12 H17_12 1_555 1_555
C28_12 C27_12 1_555 1_555
H18_12 C28_12 1_555 1_555
C29_12 C27_12 1_555 1_555
H19_12 C29_12 1_555 1_555
C30_12 C28_12 1_555 1_555
C31_12 N14_6 1_555 1_555
H20_12 C31_12 1_555 1_555
C32_12 N6_12 1_555 1_555
C4_12 C6_12 1_555 1_555
C10_12 C11_12 1_555 1_555
C15_12 C17_12 1_555 1_555
C24_12 C25_12 1_555 1_555
C24_12 C26_12 1_555 1_555
N8_12 C32_12 1_555 1_555
C30_12 C31_12 1_555 1_555
C30_12 C32_12 1_555 1_555

#END
