
###############################################################################
#
# This file contains modified crystal structure data generated from the
# MOF subset of the Cambridge Structural Database (CSD) v543 
# hosted by the Cambridge Crystallographic Data Centre (CCDC).
#
# This work is licensed under the Creative Commons
# Attribution-NonCommercial-ShareAlike 4.0 International License.
# To view a copy of this license, visit
# http://creativecommons.org/licenses/by-nc-sa/4.0/
# or send a letter to
# Creative Commons, PO Box 1866, Mountain View, CA 94042, USA.
#
# CIF created using the CSD Python API on 29 September 2022
# The structure has been converted into the P1 space group
# The structure has a 3D framework
# The original CSD entry RUPRUQ is in the tetragonal crystal system
# The framework has been calculated to contain at least 10.0% void space
# The void calculation uses a probe of radius 1.32A, grid spacing 0.4
# H atom positions have been added when not included in the experimental data
#
###############################################################################

data_RUPRUQ
_chemical_formula_moiety         '(C120 H56 O76 Ti16)n'
_symmetry_cell_setting           triclinic
_symmetry_space_group_name_H-M   'P 1'
_symmetry_Int_Tables_number      1
_space_group_name_Hall           'P 1'
loop_
_symmetry_equiv_pos_site_id
_symmetry_equiv_pos_as_xyz
1 x,y,z
_cell_length_a                   18.6543(10)
_cell_length_b                   18.6543(10)
_cell_length_c                   18.1444(10)
_cell_angle_alpha                90
_cell_angle_beta                 90
_cell_angle_gamma                90
_cell_volume                     6313.94
loop_
_atom_site_label
_atom_site_type_symbol
_atom_site_fract_x
_atom_site_fract_y
_atom_site_fract_z
_atom_site_U_iso_or_equiv
_atom_site_thermal_displace_type
Ti8 Ti 0.4260 0.2917 -0.0000 0.0000 Uiso
Ti9 Ti 0.2917 0.4260 -0.0000 0.0000 Uiso
O14 O 0.4420 0.1889 -0.0000 0.0000 Uiso
O25 O 0.5000 0.3181 0.0735 0.0000 Uiso
O47 O 0.3558 0.2741 0.0732 0.0000 Uiso
O52 O 0.3926 0.3926 -0.0000 0.0000 Uiso
Ti1 Ti 0.2083 0.0740 0.5000 0.0000 Uiso
O1 O 0.3111 0.0580 0.5000 0.0000 Uiso
O2 O 0.1819 0.0000 0.4265 0.0000 Uiso
O3 O 0.2259 0.1442 0.4268 0.0000 Uiso
O4 O 0.1074 0.1074 0.5000 0.0000 Uiso
C1 C 0.3507 0.0000 0.5000 0.0000 Uiso
C2 C 0.4265 0.0000 0.5000 0.0000 Uiso
C3 C 0.4632 0.0705 0.5000 0.0000 Uiso
C4 C 0.1940 0.1940 0.4023 0.0000 Uiso
C5 C 0.2225 0.2225 0.3209 0.0000 Uiso
C6 C 0.2015 0.2876 0.2898 0.0000 Uiso
Ti3 Ti 0.7917 0.0740 0.5000 0.0000 Uiso
Ti5 Ti 0.0740 0.2083 0.5000 0.0000 Uiso
Ti8_2 Ti 0.4260 0.2917 1.0000 0.0000 Uiso
Ti9_2 Ti 0.2917 0.4260 1.0000 0.0000 Uiso
Ti15 Ti 0.9260 0.2083 0.5000 0.0000 Uiso
Ti18 Ti 0.0740 0.7917 0.5000 0.0000 Uiso
Ti20 Ti 0.5740 0.2917 0.0000 0.0000 Uiso
O6 O 0.6889 0.0580 0.5000 0.0000 Uiso
O8 O 0.0580 0.3111 0.5000 0.0000 Uiso
O10 O 0.0580 0.6889 0.5000 0.0000 Uiso
O13 O 0.1889 0.4420 0.0000 0.0000 Uiso
O14_2 O 0.4420 0.1889 1.0000 0.0000 Uiso
O15 O 0.1819 0.0000 0.5735 0.0000 Uiso
O16 O 0.8181 0.0000 0.5735 0.0000 Uiso
O17 O 0.8181 0.0000 0.4265 0.0000 Uiso
O18 O 0.0000 0.1819 0.4265 0.0000 Uiso
O19 O 0.0000 0.1819 0.5735 0.0000 Uiso
O22 O 0.3181 0.5000 0.0735 0.0000 Uiso
O24 O 0.5000 0.3181 0.9265 0.0000 Uiso
O26 O 0.1442 0.2259 0.4268 0.0000 Uiso
O28 O 0.2741 0.3558 0.0732 0.0000 Uiso
O29 O 0.2259 0.1442 0.5732 0.0000 Uiso
O30 O 0.1442 0.2259 0.5732 0.0000 Uiso
O31 O 0.3558 0.2741 0.9268 0.0000 Uiso
O32 O 0.2741 0.3558 0.9268 0.0000 Uiso
O41 O 0.7741 0.1442 0.5732 0.0000 Uiso
O42 O 0.7741 0.1442 0.4268 0.0000 Uiso
O49 O 0.8926 0.1074 0.5000 0.0000 Uiso
O52_2 O 0.3926 0.3926 1.0000 0.0000 Uiso
C7 C 0.6493 0.0000 0.5000 0.0000 Uiso
C8 C 0.0000 0.3507 0.5000 0.0000 Uiso
C9 C 0.0000 0.6493 0.5000 0.0000 Uiso
C10 C 0.5735 0.0000 0.5000 0.0000 Uiso
C11 C 0.0000 0.4265 0.5000 0.0000 Uiso
C12 C 0.0000 0.5735 0.5000 0.0000 Uiso
C13 C 0.5368 0.0705 0.5000 0.0000 Uiso
C16 C 0.0705 0.4632 0.5000 0.0000 Uiso
C17 C 0.0705 0.5368 0.5000 0.0000 Uiso
C20 C 0.3060 0.3060 0.0977 0.0000 Uiso
C21 C 0.1940 0.1940 0.5977 0.0000 Uiso
C22 C 0.3060 0.3060 0.9023 0.0000 Uiso
C27 C 0.2775 0.2775 0.1791 0.0000 Uiso
C28 C 0.2225 0.2225 0.6791 0.0000 Uiso
C29 C 0.2775 0.2775 0.8209 0.0000 Uiso
C34 C 0.2124 0.2985 0.2102 0.0000 Uiso
C35 C 0.2985 0.2124 0.2102 0.0000 Uiso
C36 C 0.2876 0.2015 0.2898 0.0000 Uiso
C37 C 0.2015 0.2876 0.7102 0.0000 Uiso
C38 C 0.2124 0.2985 0.7898 0.0000 Uiso
C39 C 0.2985 0.2124 0.7898 0.0000 Uiso
C40 C 0.2876 0.2015 0.7102 0.0000 Uiso
H1 H 0.432915 0.120408 0.5 . .
H2 H 0.177568 0.329444 0.323655 . .
H3 H 0.322432 0.170556 0.823655 . .
H4 H 0.329444 0.177568 0.676345 . .
H6 H 0.120408 0.432915 0.5 . .
H7 H 0.567085 0.120408 0.5 . .
H9 H 0.177568 0.329444 0.676345 . .
H11 H 0.120408 0.567085 0.5 . .
H13 H 0.170556 0.322432 0.823655 . .
H14 H 0.329444 0.177568 0.323655 . .
H15 H 0.170556 0.322432 0.176345 . .
H17 H 0.322432 0.170556 0.176345 . .
Ti20_2 Ti 0.5740 0.2917 1.0000 0.0000 Uiso
O13_2 O 0.1889 0.4420 1.0000 0.0000 Uiso
O23 O 0.3181 0.5000 0.9265 0.0000 Uiso
Ti11 Ti 0.4260 0.7083 -0.0000 0.0000 Uiso
Ti12 Ti 0.2917 0.5740 -0.0000 0.0000 Uiso
O2_2 O 0.1819 1.0000 0.4265 0.0000 Uiso
C1_2 C 0.3507 1.0000 0.5000 0.0000 Uiso
C2_2 C 0.4265 1.0000 0.5000 0.0000 Uiso
Ti2 Ti 0.2083 0.9260 0.5000 0.0000 Uiso
Ti4 Ti 0.7917 0.9260 0.5000 0.0000 Uiso
Ti11_2 Ti 0.4260 0.7083 1.0000 0.0000 Uiso
Ti12_2 Ti 0.2917 0.5740 1.0000 0.0000 Uiso
Ti16 Ti 0.9260 0.7917 0.5000 0.0000 Uiso
O5 O 0.3111 0.9420 0.5000 0.0000 Uiso
O7 O 0.6889 0.9420 0.5000 0.0000 Uiso
O15_2 O 0.1819 1.0000 0.5735 0.0000 Uiso
O16_2 O 0.8181 1.0000 0.5735 0.0000 Uiso
O17_2 O 0.8181 1.0000 0.4265 0.0000 Uiso
O33 O 0.2259 0.8558 0.5732 0.0000 Uiso
O34 O 0.1442 0.7741 0.5732 0.0000 Uiso
O35 O 0.3558 0.7259 0.9268 0.0000 Uiso
O36 O 0.2741 0.6442 0.9268 0.0000 Uiso
O37 O 0.2259 0.8558 0.4268 0.0000 Uiso
O38 O 0.1442 0.7741 0.4268 0.0000 Uiso
O39 O 0.3558 0.7259 0.0732 0.0000 Uiso
O40 O 0.2741 0.6442 0.0732 0.0000 Uiso
O43 O 0.7741 0.8558 0.4268 0.0000 Uiso
O44 O 0.7741 0.8558 0.5732 0.0000 Uiso
O48 O 0.1074 0.8926 0.5000 0.0000 Uiso
O50 O 0.8926 0.8926 0.5000 0.0000 Uiso
C7_2 C 0.6493 1.0000 0.5000 0.0000 Uiso
C10_2 C 0.5735 1.0000 0.5000 0.0000 Uiso
C14 C 0.5368 0.9295 0.5000 0.0000 Uiso
C15 C 0.4632 0.9295 0.5000 0.0000 Uiso
C23 C 0.1940 0.8060 0.5977 0.0000 Uiso
C24 C 0.3060 0.6940 0.9023 0.0000 Uiso
C25 C 0.1940 0.8060 0.4023 0.0000 Uiso
C26 C 0.3060 0.6940 0.0977 0.0000 Uiso
C30 C 0.2225 0.7775 0.6791 0.0000 Uiso
C31 C 0.2775 0.7225 0.8209 0.0000 Uiso
C32 C 0.2225 0.7775 0.3209 0.0000 Uiso
C33 C 0.2775 0.7225 0.1791 0.0000 Uiso
C41 C 0.2015 0.7124 0.7102 0.0000 Uiso
C42 C 0.2124 0.7015 0.7898 0.0000 Uiso
C43 C 0.2985 0.7876 0.7898 0.0000 Uiso
C44 C 0.2876 0.7985 0.7102 0.0000 Uiso
C45 C 0.2015 0.7124 0.2898 0.0000 Uiso
C46 C 0.2124 0.7015 0.2102 0.0000 Uiso
C47 C 0.2985 0.7876 0.2102 0.0000 Uiso
C48 C 0.2876 0.7985 0.2898 0.0000 Uiso
H5 H 0.322432 0.829444 0.823655 . .
H10 H 0.177568 0.670556 0.676345 . .
H12 H 0.432915 0.879592 0.5 . .
H18 H 0.170556 0.677568 0.823655 . .
H19 H 0.567085 0.879592 0.5 . .
H20 H 0.322432 0.829444 0.176345 . .
H21 H 0.329444 0.822432 0.676345 . .
H22 H 0.329444 0.822432 0.323655 . .
H23 H 0.170556 0.677568 0.176345 . .
H24 H 0.177568 0.670556 0.323655 . .
O9 O 0.9420 0.3111 0.5000 0.0000 Uiso
O11 O 0.9420 0.6889 0.5000 0.0000 Uiso
O18_2 O 1.0000 0.1819 0.4265 0.0000 Uiso
O19_2 O 1.0000 0.1819 0.5735 0.0000 Uiso
C8_2 C 1.0000 0.3507 0.5000 0.0000 Uiso
C9_2 C 1.0000 0.6493 0.5000 0.0000 Uiso
C11_2 C 1.0000 0.4265 0.5000 0.0000 Uiso
C12_2 C 1.0000 0.5735 0.5000 0.0000 Uiso
C18 C 0.9295 0.5368 0.5000 0.0000 Uiso
C19 C 0.9295 0.4632 0.5000 0.0000 Uiso
H8 H 0.879592 0.432915 0.5 . .
H16 H 0.879592 0.567085 0.5 . .
O16_3 O 0.0000 0.8181 0.5735 0.0000 Uiso
O17_3 O 0.0000 0.8181 0.4265 0.0000 Uiso
Ti8_3 Ti 0.7083 0.4260 -0.0000 0.0000 Uiso
O14_3 O 0.8111 0.4420 -0.0000 0.0000 Uiso
O25_2 O 0.6819 0.5000 0.0735 0.0000 Uiso
O47_2 O 0.7259 0.3558 0.0732 0.0000 Uiso
O52_3 O 0.6074 0.3926 -0.0000 0.0000 Uiso
O3_2 O 0.8558 0.2259 0.4268 0.0000 Uiso
C4_2 C 0.8060 0.1940 0.4023 0.0000 Uiso
C5_2 C 0.7775 0.2225 0.3209 0.0000 Uiso
C6_2 C 0.7124 0.2015 0.2898 0.0000 Uiso
Ti8_4 Ti 0.7083 0.4260 1.0000 0.0000 Uiso
Ti20_3 Ti 0.7083 0.5740 0.0000 0.0000 Uiso
O13_3 O 0.5580 0.1889 0.0000 0.0000 Uiso
O14_4 O 0.8111 0.4420 1.0000 0.0000 Uiso
O16_4 O 1.0000 0.8181 0.5735 0.0000 Uiso
O17_4 O 1.0000 0.8181 0.4265 0.0000 Uiso
O24_2 O 0.6819 0.5000 0.9265 0.0000 Uiso
O28_2 O 0.6442 0.2741 0.0732 0.0000 Uiso
O29_2 O 0.8558 0.2259 0.5732 0.0000 Uiso
O31_2 O 0.7259 0.3558 0.9268 0.0000 Uiso
O32_2 O 0.6442 0.2741 0.9268 0.0000 Uiso
O41_2 O 0.8558 0.7741 0.5732 0.0000 Uiso
O42_2 O 0.8558 0.7741 0.4268 0.0000 Uiso
O52_4 O 0.6074 0.3926 1.0000 0.0000 Uiso
C20_2 C 0.6940 0.3060 0.0977 0.0000 Uiso
C21_2 C 0.8060 0.1940 0.5977 0.0000 Uiso
C22_2 C 0.6940 0.3060 0.9023 0.0000 Uiso
C27_2 C 0.7225 0.2775 0.1791 0.0000 Uiso
C28_2 C 0.7775 0.2225 0.6791 0.0000 Uiso
C29_2 C 0.7225 0.2775 0.8209 0.0000 Uiso
C34_2 C 0.7015 0.2124 0.2102 0.0000 Uiso
C35_2 C 0.7876 0.2985 0.2102 0.0000 Uiso
C36_2 C 0.7985 0.2876 0.2898 0.0000 Uiso
C37_2 C 0.7124 0.2015 0.7102 0.0000 Uiso
C38_2 C 0.7015 0.2124 0.7898 0.0000 Uiso
C39_2 C 0.7876 0.2985 0.7898 0.0000 Uiso
C40_2 C 0.7985 0.2876 0.7102 0.0000 Uiso
H2_2 H 0.670556 0.177568 0.323655 . .
H3_2 H 0.829444 0.322432 0.823655 . .
H4_2 H 0.822432 0.329444 0.676345 . .
H9_2 H 0.670556 0.177568 0.676345 . .
H13_2 H 0.677568 0.170556 0.823655 . .
H14_2 H 0.822432 0.329444 0.323655 . .
H15_2 H 0.677568 0.170556 0.176345 . .
H17_2 H 0.829444 0.322432 0.176345 . .
Ti20_4 Ti 0.7083 0.5740 1.0000 0.0000 Uiso
O13_4 O 0.5580 0.1889 1.0000 0.0000 Uiso
Ti20_5 Ti 0.5740 0.7083 0.0000 0.0000 Uiso
O12 O 0.4420 0.8111 0.0000 0.0000 Uiso
O13_5 O 0.1889 0.5580 0.0000 0.0000 Uiso
O21 O 0.5000 0.6819 0.0735 0.0000 Uiso
O51 O 0.3926 0.6074 0.0000 0.0000 Uiso
Ti20_6 Ti 0.5740 0.7083 1.0000 0.0000 Uiso
O12_2 O 0.4420 0.8111 1.0000 0.0000 Uiso
O13_6 O 0.1889 0.5580 1.0000 0.0000 Uiso
O20 O 0.5000 0.6819 0.9265 0.0000 Uiso
O51_2 O 0.3926 0.6074 1.0000 0.0000 Uiso
O14_5 O 0.5580 0.8111 -0.0000 0.0000 Uiso
O47_3 O 0.6442 0.7259 0.0732 0.0000 Uiso
O52_5 O 0.6074 0.6074 -0.0000 0.0000 Uiso
C4_3 C 0.8060 0.8060 0.4023 0.0000 Uiso
C5_3 C 0.7775 0.7775 0.3209 0.0000 Uiso
C6_3 C 0.7985 0.7124 0.2898 0.0000 Uiso
O13_7 O 0.8111 0.5580 0.0000 0.0000 Uiso
O14_6 O 0.5580 0.8111 1.0000 0.0000 Uiso
O28_3 O 0.7259 0.6442 0.0732 0.0000 Uiso
O31_3 O 0.6442 0.7259 0.9268 0.0000 Uiso
O32_3 O 0.7259 0.6442 0.9268 0.0000 Uiso
O52_6 O 0.6074 0.6074 1.0000 0.0000 Uiso
C20_3 C 0.6940 0.6940 0.0977 0.0000 Uiso
C21_3 C 0.8060 0.8060 0.5977 0.0000 Uiso
C22_3 C 0.6940 0.6940 0.9023 0.0000 Uiso
C27_3 C 0.7225 0.7225 0.1791 0.0000 Uiso
C28_3 C 0.7775 0.7775 0.6791 0.0000 Uiso
C29_3 C 0.7225 0.7225 0.8209 0.0000 Uiso
C34_3 C 0.7876 0.7015 0.2102 0.0000 Uiso
C35_3 C 0.7015 0.7876 0.2102 0.0000 Uiso
C36_3 C 0.7124 0.7985 0.2898 0.0000 Uiso
C37_3 C 0.7985 0.7124 0.7102 0.0000 Uiso
C38_3 C 0.7876 0.7015 0.7898 0.0000 Uiso
C39_3 C 0.7015 0.7876 0.7898 0.0000 Uiso
C40_3 C 0.7124 0.7985 0.7102 0.0000 Uiso
H2_3 H 0.822432 0.670556 0.323655 . .
H3_3 H 0.677568 0.829444 0.823655 . .
H4_3 H 0.670556 0.822432 0.676345 . .
H9_3 H 0.822432 0.670556 0.676345 . .
H13_3 H 0.829444 0.677568 0.823655 . .
H14_3 H 0.670556 0.822432 0.323655 . .
H15_3 H 0.829444 0.677568 0.176345 . .
H17_3 H 0.677568 0.829444 0.176345 . .
O13_8 O 0.8111 0.5580 1.0000 0.0000 Uiso
C7_3 C 0.1493 0.5000 -0.0000 0.0000 Uiso
C10_3 C 0.0735 0.5000 -0.0000 0.0000 Uiso
C13_2 C 0.0368 0.5705 -0.0000 0.0000 Uiso
C14_2 C 0.0368 0.4295 -0.0000 0.0000 Uiso
H7_2 H 0.0670849 0.620408 -1.11022e-16 . .
H19_2 H 0.0670849 0.379592 -1.11022e-16 . .
C7_4 C 0.1493 0.5000 1.0000 0.0000 Uiso
C10_4 C 0.0735 0.5000 1.0000 0.0000 Uiso
C13_3 C 0.0368 0.5705 1.0000 0.0000 Uiso
C14_3 C 0.0368 0.4295 1.0000 0.0000 Uiso
H7_3 H 0.0670849 0.620408 1 . .
H19_3 H 0.0670849 0.379592 1 . .
C9_3 C 0.5000 0.1493 -0.0000 0.0000 Uiso
C12_3 C 0.5000 0.0735 -0.0000 0.0000 Uiso
C17_2 C 0.5705 0.0368 -0.0000 0.0000 Uiso
C18_2 C 0.4295 0.0368 -0.0000 0.0000 Uiso
H11_2 H 0.620408 0.0670849 -1.11022e-16 . .
H16_2 H 0.379592 0.0670849 -1.11022e-16 . .
C9_4 C 0.5000 0.1493 1.0000 0.0000 Uiso
C12_4 C 0.5000 0.0735 1.0000 0.0000 Uiso
C17_3 C 0.5705 0.0368 1.0000 0.0000 Uiso
C18_3 C 0.4295 0.0368 1.0000 0.0000 Uiso
H11_3 H 0.620408 0.0670849 1 . .
H16_3 H 0.379592 0.0670849 1 . .
C1_3 C 0.8507 0.5000 -0.0000 0.0000 Uiso
C2_3 C 0.9265 0.5000 -0.0000 0.0000 Uiso
C3_2 C 0.9632 0.5705 -0.0000 0.0000 Uiso
C8_3 C 0.5000 0.8507 -0.0000 0.0000 Uiso
C11_3 C 0.5000 0.9265 -0.0000 0.0000 Uiso
C15_2 C 0.9632 0.4295 -0.0000 0.0000 Uiso
C16_2 C 0.5705 0.9632 -0.0000 0.0000 Uiso
C19_2 C 0.4295 0.9632 -0.0000 0.0000 Uiso
H1_2 H 0.932915 0.620408 -1.11022e-16 . .
H6_2 H 0.620408 0.932915 -1.11022e-16 . .
H8_2 H 0.379592 0.932915 -1.11022e-16 . .
H12_2 H 0.932915 0.379592 -1.11022e-16 . .
C1_4 C 0.8507 0.5000 1.0000 0.0000 Uiso
C2_4 C 0.9265 0.5000 1.0000 0.0000 Uiso
C3_3 C 0.9632 0.5705 1.0000 0.0000 Uiso
C8_4 C 0.5000 0.8507 1.0000 0.0000 Uiso
C11_4 C 0.5000 0.9265 1.0000 0.0000 Uiso
C15_3 C 0.9632 0.4295 1.0000 0.0000 Uiso
C16_3 C 0.5705 0.9632 1.0000 0.0000 Uiso
C19_3 C 0.4295 0.9632 1.0000 0.0000 Uiso
H1_3 H 0.932915 0.620408 1 . .
H6_3 H 0.620408 0.932915 1 . .
H8_3 H 0.379592 0.932915 1 . .
H12_3 H 0.932915 0.379592 1 . .
loop_
_geom_bond_atom_site_label_1
_geom_bond_atom_site_label_2
_geom_bond_site_symmetry_1
_geom_bond_site_symmetry_2
Ti8 O14 1_555 1_555
O25 Ti8 1_555 1_555
O47 Ti8 1_555 1_555
O52 Ti8 1_555 1_555
Ti9 O52 1_555 1_555
Ti1 O1 1_555 1_555
O1 C1 1_555 1_555
O2 Ti1 1_555 1_555
O3 Ti1 1_555 1_555
O4 Ti1 1_555 1_555
C1 C2 1_555 1_555
C2 C3 1_555 1_555
C3 C13 1_555 1_555
C4 O3 1_555 1_555
C5 C4 1_555 1_555
C6 C5 1_555 1_555
Ti3 O6 1_555 1_555
Ti5 O4 1_555 1_555
Ti9 O13 1_555 1_555
Ti8_2 O14_2 1_555 1_555
Ti9_2 O32 1_555 1_555
Ti15 O49 1_555 1_555
Ti18 O10 1_555 1_555
Ti20 O25 1_555 1_555
O6 C7 1_555 1_555
O8 Ti5 1_555 1_555
O10 C9 1_555 1_555
O15 Ti1 1_555 1_555
O16 Ti3 1_555 1_555
O17 Ti3 1_555 1_555
O18 Ti5 1_555 1_555
O19 Ti5 1_555 1_555
O22 Ti9 1_555 1_555
O24 Ti8_2 1_555 1_555
O26 C4 1_555 1_555
O28 Ti9 1_555 1_555
O29 Ti1 1_555 1_555
O30 Ti5 1_555 1_555
O31 Ti8_2 1_555 1_555
O32 C22 1_555 1_555
O41 Ti3 1_555 1_555
O42 Ti3 1_555 1_555
O49 Ti3 1_555 1_555
O52_2 Ti8_2 1_555 1_555
C7 C10 1_555 1_555
C8 O8 1_555 1_555
C9 C12 1_555 1_555
C10 C13 1_555 1_555
C11 C8 1_555 1_555
C12 C17 1_555 1_555
C16 C11 1_555 1_555
C17 C16 1_555 1_555
C20 O47 1_555 1_555
C21 O29 1_555 1_555
C22 O31 1_555 1_555
C27 C20 1_555 1_555
C28 C21 1_555 1_555
C29 C22 1_555 1_555
C34 C6 1_555 1_555
C35 C27 1_555 1_555
C36 C5 1_555 1_555
C37 C28 1_555 1_555
C38 C29 1_555 1_555
C39 C29 1_555 1_555
C40 C28 1_555 1_555
Ti5 O26 1_555 1_555
Ti9_2 O52_2 1_555 1_555
O28 C20 1_555 1_555
O30 C21 1_555 1_555
C27 C34 1_555 1_555
C35 C36 1_555 1_555
C37 C38 1_555 1_555
C39 C40 1_555 1_555
C3 H1 1_555 1_555
C6 H2 1_555 1_555
C39 H3 1_555 1_555
C40 H4 1_555 1_555
C16 H6 1_555 1_555
C13 H7 1_555 1_555
C37 H9 1_555 1_555
C17 H11 1_555 1_555
C38 H13 1_555 1_555
C36 H14 1_555 1_555
C34 H15 1_555 1_555
C35 H17 1_555 1_555
Ti9_2 O13_2 1_555 1_555
O23 Ti9_2 1_555 1_555
Ti20_2 O24 1_555 1_555
C1_2 C2_2 1_555 1_555
Ti2 O2_2 1_555 1_555
Ti4 O7 1_555 1_555
Ti18 O34 1_555 1_555
Ti11_2 O35 1_555 1_555
Ti12_2 O36 1_555 1_555
Ti11 O39 1_555 1_555
Ti12 O40 1_555 1_555
Ti16 O50 1_555 1_555
O5 C1_2 1_555 1_555
O7 C7_2 1_555 1_555
O33 Ti2 1_555 1_555
O34 C23 1_555 1_555
O35 C24 1_555 1_555
O36 C24 1_555 1_555
O37 Ti2 1_555 1_555
O38 Ti18 1_555 1_555
O39 C26 1_555 1_555
O40 C26 1_555 1_555
O43 Ti4 1_555 1_555
O44 Ti4 1_555 1_555
O48 Ti2 1_555 1_555
O50 Ti4 1_555 1_555
C7_2 C10_2 1_555 1_555
C14 C10_2 1_555 1_555
C15 C2_2 1_555 1_555
C23 O33 1_555 1_555
C24 C31 1_555 1_555
C25 O37 1_555 1_555
C26 C33 1_555 1_555
C30 C23 1_555 1_555
C31 C42 1_555 1_555
C32 C25 1_555 1_555
C33 C46 1_555 1_555
C41 C30 1_555 1_555
C42 C41 1_555 1_555
C43 C31 1_555 1_555
C44 C30 1_555 1_555
C45 C32 1_555 1_555
C46 C45 1_555 1_555
C47 C33 1_555 1_555
C48 C32 1_555 1_555
Ti2 O5 1_555 1_555
Ti2 O15_2 1_555 1_555
Ti4 O16_2 1_555 1_555
Ti4 O17_2 1_555 1_555
Ti18 O48 1_555 1_555
O38 C25 1_555 1_555
C14 C15 1_555 1_555
C43 C44 1_555 1_555
C47 C48 1_555 1_555
C43 H5 1_555 1_555
C41 H10 1_555 1_555
C15 H12 1_555 1_555
C42 H18 1_555 1_555
C14 H19 1_555 1_555
C47 H20 1_555 1_555
C44 H21 1_555 1_555
C48 H22 1_555 1_555
C46 H23 1_555 1_555
C45 H24 1_555 1_555
Ti15 O9 1_555 1_555
Ti16 O11 1_555 1_555
O9 C8_2 1_555 1_555
O11 C9_2 1_555 1_555
C9_2 C12_2 1_555 1_555
C11_2 C8_2 1_555 1_555
C18 C12_2 1_555 1_555
C19 C11_2 1_555 1_555
Ti15 O18_2 1_555 1_555
Ti15 O19_2 1_555 1_555
C18 C19 1_555 1_555
C19 H8 1_555 1_555
C18 H16 1_555 1_555
Ti18 O16_3 1_555 1_555
Ti18 O17_3 1_555 1_555
Ti8_3 O14_3 1_555 1_555
O25_2 Ti8_3 1_555 1_555
O47_2 Ti8_3 1_555 1_555
O52_3 Ti8_3 1_555 1_555
Ti20 O52_3 1_555 1_555
O3_2 Ti15 1_555 1_555
C4_2 O3_2 1_555 1_555
C5_2 C4_2 1_555 1_555
C6_2 C5_2 1_555 1_555
Ti20 O13_3 1_555 1_555
Ti8_4 O14_4 1_555 1_555
Ti20_2 O32_2 1_555 1_555
Ti20_3 O25_2 1_555 1_555
O16_4 Ti16 1_555 1_555
O17_4 Ti16 1_555 1_555
O24_2 Ti8_4 1_555 1_555
O42 C4_2 1_555 1_555
O28_2 Ti20 1_555 1_555
O29_2 Ti15 1_555 1_555
O31_2 Ti8_4 1_555 1_555
O32_2 C22_2 1_555 1_555
O41_2 Ti16 1_555 1_555
O42_2 Ti16 1_555 1_555
O52_4 Ti8_4 1_555 1_555
C20_2 O47_2 1_555 1_555
C21_2 O29_2 1_555 1_555
C22_2 O31_2 1_555 1_555
C27_2 C20_2 1_555 1_555
C28_2 C21_2 1_555 1_555
C29_2 C22_2 1_555 1_555
C34_2 C6_2 1_555 1_555
C35_2 C27_2 1_555 1_555
C36_2 C5_2 1_555 1_555
C37_2 C28_2 1_555 1_555
C38_2 C29_2 1_555 1_555
C39_2 C29_2 1_555 1_555
C40_2 C28_2 1_555 1_555
Ti20_2 O52_4 1_555 1_555
O28_2 C20_2 1_555 1_555
O41 C21_2 1_555 1_555
C27_2 C34_2 1_555 1_555
C35_2 C36_2 1_555 1_555
C37_2 C38_2 1_555 1_555
C39_2 C40_2 1_555 1_555
C6_2 H2_2 1_555 1_555
C39_2 H3_2 1_555 1_555
C40_2 H4_2 1_555 1_555
C37_2 H9_2 1_555 1_555
C38_2 H13_2 1_555 1_555
C36_2 H14_2 1_555 1_555
C34_2 H15_2 1_555 1_555
C35_2 H17_2 1_555 1_555
Ti20_2 O13_4 1_555 1_555
Ti20_4 O24_2 1_555 1_555
Ti11 O12 1_555 1_555
Ti12 O13_5 1_555 1_555
O21 Ti11 1_555 1_555
O22 Ti12 1_555 1_555
O51 Ti11 1_555 1_555
Ti12 O51 1_555 1_555
Ti20_5 O21 1_555 1_555
Ti11_2 O12_2 1_555 1_555
Ti12_2 O13_6 1_555 1_555
Ti20_6 O20 1_555 1_555
O20 Ti11_2 1_555 1_555
O23 Ti12_2 1_555 1_555
O51_2 Ti11_2 1_555 1_555
Ti12_2 O51_2 1_555 1_555
Ti20_5 O14_5 1_555 1_555
O47_3 Ti20_5 1_555 1_555
O52_5 Ti20_5 1_555 1_555
Ti20_3 O52_5 1_555 1_555
C4_3 O43 1_555 1_555
C5_3 C4_3 1_555 1_555
C6_3 C5_3 1_555 1_555
Ti20_3 O13_7 1_555 1_555
Ti20_6 O14_6 1_555 1_555
Ti20_4 O32_3 1_555 1_555
O42_2 C4_3 1_555 1_555
O28_3 Ti20_3 1_555 1_555
O31_3 Ti20_6 1_555 1_555
O32_3 C22_3 1_555 1_555
O52_6 Ti20_6 1_555 1_555
C20_3 O47_3 1_555 1_555
C21_3 O44 1_555 1_555
C22_3 O31_3 1_555 1_555
C27_3 C20_3 1_555 1_555
C28_3 C21_3 1_555 1_555
C29_3 C22_3 1_555 1_555
C34_3 C6_3 1_555 1_555
C35_3 C27_3 1_555 1_555
C36_3 C5_3 1_555 1_555
C37_3 C28_3 1_555 1_555
C38_3 C29_3 1_555 1_555
C39_3 C29_3 1_555 1_555
C40_3 C28_3 1_555 1_555
Ti20_4 O52_6 1_555 1_555
O28_3 C20_3 1_555 1_555
O41_2 C21_3 1_555 1_555
C27_3 C34_3 1_555 1_555
C35_3 C36_3 1_555 1_555
C37_3 C38_3 1_555 1_555
C39_3 C40_3 1_555 1_555
C6_3 H2_3 1_555 1_555
C39_3 H3_3 1_555 1_555
C40_3 H4_3 1_555 1_555
C37_3 H9_3 1_555 1_555
C38_3 H13_3 1_555 1_555
C36_3 H14_3 1_555 1_555
C34_3 H15_3 1_555 1_555
C35_3 H17_3 1_555 1_555
Ti20_4 O13_8 1_555 1_555
O13_5 C7_3 1_555 1_555
O13 C7_3 1_555 1_555
C7_3 C10_3 1_555 1_555
C10_3 C13_2 1_555 1_555
C14_2 C10_3 1_555 1_555
C13_2 H7_2 1_555 1_555
C14_2 H19_2 1_555 1_555
O13_6 C7_4 1_555 1_555
O13_2 C7_4 1_555 1_555
C7_4 C10_4 1_555 1_555
C10_4 C13_3 1_555 1_555
C14_3 C10_4 1_555 1_555
C13_3 H7_3 1_555 1_555
C14_3 H19_3 1_555 1_555
O13_3 C9_3 1_555 1_555
O14 C9_3 1_555 1_555
C9_3 C12_3 1_555 1_555
C12_3 C17_2 1_555 1_555
C18_2 C12_3 1_555 1_555
C17_2 H11_2 1_555 1_555
C18_2 H16_2 1_555 1_555
O13_4 C9_4 1_555 1_555
O14_2 C9_4 1_555 1_555
C9_4 C12_4 1_555 1_555
C12_4 C17_3 1_555 1_555
C18_3 C12_4 1_555 1_555
C17_3 H11_3 1_555 1_555
C18_3 H16_3 1_555 1_555
O13_7 C1_3 1_555 1_555
C1_3 C2_3 1_555 1_555
C2_3 C3_2 1_555 1_555
O14_3 C1_3 1_555 1_555
O12 C8_3 1_555 1_555
C8_3 O14_5 1_555 1_555
C11_3 C8_3 1_555 1_555
C15_2 C2_3 1_555 1_555
C16_2 C11_3 1_555 1_555
C19_2 C11_3 1_555 1_555
C3_2 H1_2 1_555 1_555
C16_2 H6_2 1_555 1_555
C19_2 H8_2 1_555 1_555
C15_2 H12_2 1_555 1_555
O13_8 C1_4 1_555 1_555
C1_4 C2_4 1_555 1_555
C2_4 C3_3 1_555 1_555
O14_4 C1_4 1_555 1_555
O12_2 C8_4 1_555 1_555
C8_4 O14_6 1_555 1_555
C11_4 C8_4 1_555 1_555
C15_3 C2_4 1_555 1_555
C16_3 C11_4 1_555 1_555
C19_3 C11_4 1_555 1_555
C3_3 H1_3 1_555 1_555
C16_3 H6_3 1_555 1_555
C19_3 H8_3 1_555 1_555
C15_3 H12_3 1_555 1_555

#END
