
###############################################################################
#
# This file contains modified crystal structure data generated from the
# MOF subset of the Cambridge Structural Database (CSD) v543 
# hosted by the Cambridge Crystallographic Data Centre (CCDC).
#
# This work is licensed under the Creative Commons
# Attribution-NonCommercial-ShareAlike 4.0 International License.
# To view a copy of this license, visit
# http://creativecommons.org/licenses/by-nc-sa/4.0/
# or send a letter to
# Creative Commons, PO Box 1866, Mountain View, CA 94042, USA.
#
# CIF created using the CSD Python API on 29 September 2022
# The structure has been converted into the P1 space group
# The structure has a 3D framework
# The original CSD entry RUPVAB is in the cubic crystal system
# The original CSD entry RUPVAB is in a Sohncke space group
# The framework has been calculated to contain at least 10.0% void space
# The void calculation uses a probe of radius 1.32A, grid spacing 0.4
# The framework is charged, counterions have been retained in the structure
# H atom positions have been added when not included in the experimental data
# Generated hydrogen atom positions removed from atoms on special positions
#
###############################################################################

data_RUPVAB
_chemical_formula_moiety         '(C216 H168 O169 Zn48 14-)n'
_symmetry_cell_setting           triclinic
_symmetry_space_group_name_H-M   'P 1'
_symmetry_Int_Tables_number      1
_space_group_name_Hall           'P 1'
loop_
_symmetry_equiv_pos_site_id
_symmetry_equiv_pos_as_xyz
1 x,y,z
_cell_length_a                   23.503(3)
_cell_length_b                   23.503(3)
_cell_length_c                   23.503(3)
_cell_angle_alpha                90
_cell_angle_beta                 90
_cell_angle_gamma                90
_cell_volume                     12982.8
loop_
_atom_site_label
_atom_site_type_symbol
_atom_site_fract_x
_atom_site_fract_y
_atom_site_fract_z
Zn9 Zn 0.17948(7) 0.76263(6) 0.29341(5)
O36 O 0.0475(3) 0.5637(3) 0.0559(3)
O38 O 0.1160(3) 0.7426(3) 0.2415(3)
O39 O 0.1561(3) 0.6979(4) 0.1690(3)
C46 C 0.0024(4) 0.6224(4) 0.1241(4)
C49 C 0.0079(4) 0.7048(4) 0.2090(4)
H17 H 0.0096 0.7339 0.2359
C50 C 0.0554(4) 0.6877(4) 0.1816(4)
C51 C 0.0538(4) 0.6469(4) 0.1399(3)
H18 H 0.0873 0.6356 0.1221
C53 C 0.1149(4) 0.7107(4) 0.1987(4)
Zn10 Zn 0.06360(5) 0.5000 0.0000
Zn11 Zn 0.23737(6) 0.70659(5) 0.17948(7)
O48 O 0.1690(3) 0.8439(3) 0.3021(4)
O50 O 0.1680(4) 0.7131(4) 0.3567(3)
O57 O 0.2520(3) 0.7480(3) 0.2520(3)
O31 O 0.0477(3) 0.5573(3) 0.9350(3)
O34 O 0.1433(3) 0.6680(4) 0.7869(4)
O35 O 0.0981(5) 0.7294(5) 0.7335(6)
C38 C 0.0464(4) 0.6390(4) 0.8459(5)
H13 H 0.0811 0.6225 0.8554
C39 C 0.0447(4) 0.6780(5) 0.8037(4)
C43 C 0.0007(6) 0.5774(4) 0.9233(4)
C45 C 0.0976(5) 0.6938(6) 0.7738(6)
Zn10_2 Zn 0.06360(5) 0.5000 1.0000
Zn21 Zn 0.20659(5) 0.67948(7) 0.73737(6)
O10 O 0.4427(3) 0.0650(3) 0.0477(3)
O13 O 0.3320(4) 0.2131(4) 0.1433(3)
O14 O 0.2706(5) 0.2665(6) 0.0981(5)
C11 C 0.3610(4) 0.1541(5) 0.0464(4)
H4 H 0.3775 0.1446 0.0811
C12 C 0.3220(5) 0.1963(4) 0.0447(4)
C16 C 0.4226(4) 0.0767(4) 0.0007(6)
C18 C 0.3062(6) 0.2262(6) 0.0976(5)
Zn4 Zn 0.5000 -0.0000 0.06360(5)
Zn5 Zn 0.76263(6) 0.29341(5) 0.17948(7)
O15 O 0.5637(3) 0.0559(3) 0.0475(3)
O16 O 0.5000 -0.0000 0.1475(4)
O18 O 0.7426(3) 0.2415(3) 0.1160(3)
O19 O 0.6979(4) 0.1690(3) 0.1561(3)
O22 O 0.7480(3) 0.2520(3) 0.2520(3)
C19 C 0.6224(4) 0.1241(4) 0.0024(4)
C22 C 0.7048(4) 0.2090(4) 0.0079(4)
H8 H 0.7339 0.2359 0.0096
C23 C 0.6877(4) 0.1816(4) 0.0554(4)
C24 C 0.6469(4) 0.1399(3) 0.0538(4)
H9 H 0.6356 0.1221 0.0873
C26 C 0.7107(4) 0.1987(4) 0.1149(4)
Zn12 Zn 0.82052(7) 0.23737(6) 0.29341(5)
Zn14 Zn 0.70659(5) 0.17948(7) 0.23737(6)
Zn17 Zn 0.32052(7) 0.26263(6) 0.20659(5)
O45 O 0.8439(3) 0.3021(4) 0.1690(3)
O54 O 0.7131(4) 0.3567(3) 0.1680(4)
Zn1 Zn 0.5000 -0.0000 0.93640(5)
O2 O 0.5000 0.0000 0.8525(4)
Zn3 Zn 0.23737(6) 0.29341(5) 0.82052(7)
O9 O 0.4363(3) 0.0559(3) 0.9525(3)
O11 O 0.2574(3) 0.2415(3) 0.8840(3)
O12 O 0.3021(4) 0.1690(3) 0.8439(3)
C10 C 0.3776(4) 0.1241(4) 0.9976(4)
C13 C 0.2952(4) 0.2090(4) 0.9921(4)
H5 H 0.2661 0.2359 0.9904
C14 C 0.3123(4) 0.1816(4) 0.9446(4)
C15 C 0.3531(4) 0.1399(3) 0.9462(4)
H6 H 0.3644 0.1221 0.9127
C17 C 0.2893(4) 0.1987(4) 0.8851(4)
O17 O 0.5573(3) 0.0650(3) 0.9523(3)
O20 O 0.6680(4) 0.2131(4) 0.8567(3)
O21 O 0.7294(5) 0.2665(6) 0.9019(5)
C20 C 0.6390(4) 0.1541(5) 0.9536(4)
H7 H 0.6225 0.1446 0.9189
C21 C 0.6780(5) 0.1963(4) 0.9553(4)
C25 C 0.5774(4) 0.0767(4) 0.9993(6)
C27 C 0.6938(6) 0.2262(6) 0.9024(5)
Zn16 Zn 0.29341(5) 0.17948(7) 0.76263(6)
Zn20 Zn 0.67948(7) 0.26263(6) 0.79341(5)
O44 O 0.1561(3) 0.3021(4) 0.8310(3)
O52 O 0.2869(4) 0.3567(3) 0.8320(4)
O55 O 0.2520(3) 0.2520(3) 0.7480(3)
O3 O 0.5573(3) 0.9350(3) 0.0477(3)
O6 O 0.6680(4) 0.7869(4) 0.1433(3)
O7 O 0.7294(5) 0.7335(6) 0.0981(5)
C2 C 0.6390(4) 0.8459(5) 0.0464(4)
H1 H 0.6225 0.8554 0.0811
C3 C 0.6780(5) 0.8037(4) 0.0447(4)
C7 C 0.5774(4) 0.9233(4) 0.0007(6)
C9 C 0.6938(6) 0.7738(6) 0.0976(5)
Zn4_2 Zn 0.5000 1.0000 0.06360(5)
O16_2 O 0.5000 1.0000 0.1475(4)
O23 O 0.4363(3) 0.9441(3) 0.0475(3)
O25 O 0.2574(3) 0.7585(3) 0.1160(3)
O26 O 0.3021(4) 0.8310(3) 0.1561(3)
C28 C 0.3776(4) 0.8759(4) 0.0024(4)
C31 C 0.2952(4) 0.7910(4) 0.0079(4)
H11 H 0.2661 0.7641 0.0096
C32 C 0.3123(4) 0.8184(4) 0.0554(4)
C33 C 0.3531(4) 0.8601(3) 0.0538(4)
H12 H 0.3644 0.8779 0.0873
C35 C 0.2893(4) 0.8013(4) 0.1149(4)
Zn7 Zn 0.93640(5) 0.5000 0.0000
O30 O 0.8525(4) 0.5000 0.0000
O37 O 0.9523(3) 0.5573(3) 0.0650(3)
O40 O 0.8567(3) 0.6680(4) 0.2131(4)
O41 O 0.9019(5) 0.7294(5) 0.2665(6)
C47 C 0.9536(4) 0.6390(4) 0.1541(5)
H16 H 0.9189 0.6225 0.1446
C48 C 0.9553(4) 0.6780(5) 0.1963(4)
C52 C 0.9993(6) 0.5774(4) 0.0767(4)
C54 C 0.9024(5) 0.6938(6) 0.2262(6)
Zn15 Zn 0.29341(5) 0.82052(7) 0.23737(6)
Zn18 Zn 0.67948(7) 0.73737(6) 0.20659(5)
Zn22 Zn 0.79341(5) 0.67948(7) 0.26263(6)
O42 O 0.9525(3) 0.4363(3) 0.0559(3)
O51 O 0.2869(4) 0.6433(3) 0.1680(4)
Zn1_2 Zn 0.5000 1.0000 0.93640(5)
Zn2 Zn 0.76263(6) 0.70659(5) 0.82052(7)
O1 O 0.5637(3) 0.9441(3) 0.9525(3)
O2_2 O 0.5000 1.0000 0.8525(4)
O4 O 0.7426(3) 0.7585(3) 0.8840(3)
O5 O 0.6979(4) 0.8310(3) 0.8439(3)
O8 O 0.7480(3) 0.7480(3) 0.7480(3)
C1 C 0.6224(4) 0.8759(4) 0.9976(4)
C4 C 0.7048(4) 0.7910(4) 0.9921(4)
H2 H 0.7339 0.7641 0.9904
C5 C 0.6877(4) 0.8184(4) 0.9446(4)
C6 C 0.6469(4) 0.8601(3) 0.9462(4)
H3 H 0.6356 0.8779 0.9127
C8 C 0.7107(4) 0.8013(4) 0.8851(4)
O24 O 0.4427(3) 0.9350(3) 0.9523(3)
O27 O 0.3320(4) 0.7869(4) 0.8567(3)
O28 O 0.2706(5) 0.7335(6) 0.9019(5)
C29 C 0.3610(4) 0.8459(5) 0.9536(4)
H10 H 0.3775 0.8554 0.9189
C30 C 0.3220(5) 0.8037(4) 0.9553(4)
C34 C 0.4226(4) 0.9233(4) 0.9993(6)
C36 C 0.3062(6) 0.7738(6) 0.9024(5)
Zn7_2 Zn 0.93640(5) 0.5000 1.0000
Zn8 Zn 0.82052(7) 0.76263(6) 0.70659(5)
O29 O 0.9525(3) 0.5637(3) 0.9441(3)
O30_2 O 0.8525(4) 0.5000 1.0000
O32 O 0.8840(3) 0.7426(3) 0.7585(3)
O33 O 0.8439(3) 0.6979(4) 0.8310(3)
C37 C 0.9976(4) 0.6224(4) 0.8759(4)
C40 C 0.9921(4) 0.7048(4) 0.7910(4)
H14 H 0.9904 0.7339 0.7641
C41 C 0.9446(4) 0.6877(4) 0.8184(4)
C42 C 0.9462(4) 0.6469(4) 0.8601(3)
H15 H 0.9127 0.6356 0.8779
C44 C 0.8851(4) 0.7107(4) 0.8013(4)
Zn13 Zn 0.70659(5) 0.82052(7) 0.76263(6)
Zn19 Zn 0.32052(7) 0.73737(6) 0.79341(5)
O43 O 0.9523(3) 0.4427(3) 0.9350(3)
O47 O 0.8310(3) 0.8439(3) 0.6979(4)
O49 O 0.8320(4) 0.7131(4) 0.6433(3)
O53 O 0.7131(4) 0.6433(3) 0.8320(4)
O30_3 O 0.1475(4) 0.5000 0.0000
O37_2 O 0.0477(3) 0.4427(3) 0.0650(3)
O40_2 O 0.1433(3) 0.3320(4) 0.2131(4)
O41_2 O 0.0981(5) 0.2706(5) 0.2665(6)
C47_2 C 0.0464(4) 0.3610(4) 0.1541(5)
H16_2 H 0.0811 0.3775 0.1446
C48_2 C 0.0447(4) 0.3220(5) 0.1963(4)
C52_2 C 0.0007(6) 0.4226(4) 0.0767(4)
C54_2 C 0.0976(5) 0.3062(6) 0.2262(6)
Zn22_2 Zn 0.20659(5) 0.32052(7) 0.26263(6)
Zn8_2 Zn 0.17948(7) 0.23737(6) 0.70659(5)
O29_2 O 0.0475(3) 0.4363(3) 0.9441(3)
O30_4 O 0.1475(4) 0.5000 1.0000
O32_2 O 0.1160(3) 0.2574(3) 0.7585(3)
C37_2 C 0.0024(4) 0.3776(4) 0.8759(4)
C40_2 C 0.0079(4) 0.2952(4) 0.7910(4)
H14_2 H 0.0096 0.2661 0.7641
C41_2 C 0.0554(4) 0.3123(4) 0.8184(4)
C42_2 C 0.0538(4) 0.3531(4) 0.8601(3)
H15_2 H 0.0873 0.3644 0.8779
C44_2 C 0.1149(4) 0.2893(4) 0.8013(4)
O47_2 O 0.1690(3) 0.1561(3) 0.6979(4)
O49_2 O 0.1680(4) 0.2869(4) 0.6433(3)
O38_2 O 0.8840(3) 0.2574(3) 0.2415(3)
C46_2 C 0.9976(4) 0.3776(4) 0.1241(4)
C49_2 C 0.9921(4) 0.2952(4) 0.2090(4)
H17_2 H 0.9904 0.2661 0.2359
C50_2 C 0.9446(4) 0.3123(4) 0.1816(4)
C51_2 C 0.9462(4) 0.3531(4) 0.1399(3)
H18_2 H 0.9127 0.3644 0.1221
C53_2 C 0.8851(4) 0.2893(4) 0.1987(4)
O48_2 O 0.8310(3) 0.1561(3) 0.3021(4)
O50_2 O 0.8320(4) 0.2869(4) 0.3567(3)
O34_2 O 0.8567(3) 0.3320(4) 0.7869(4)
O35_2 O 0.9019(5) 0.2706(5) 0.7335(6)
C38_2 C 0.9536(4) 0.3610(4) 0.8459(5)
H13_2 H 0.9189 0.3775 0.8554
C39_2 C 0.9553(4) 0.3220(5) 0.8037(4)
C43_2 C 0.9993(6) 0.4226(4) 0.9233(4)
C45_2 C 0.9024(5) 0.3062(6) 0.7738(6)
Zn21_2 Zn 0.79341(5) 0.32052(7) 0.73737(6)
O36_2 O 0.0559(3) 0.0475(3) 0.5637(3)
O38_3 O 0.2415(3) 0.1160(3) 0.7426(3)
C46_3 C 0.1241(4) 0.0024(4) 0.6224(4)
C49_3 C 0.2090(4) 0.0079(4) 0.7048(4)
H17_3 H 0.2359 0.0096 0.7339
C50_3 C 0.1816(4) 0.0554(4) 0.6877(4)
C51_3 C 0.1399(3) 0.0538(4) 0.6469(4)
H18_3 H 0.1221 0.0873 0.6356
C53_3 C 0.1987(4) 0.1149(4) 0.7107(4)
Zn10_3 Zn 0.0000 0.06360(5) 0.5000
O50_3 O 0.3567(3) 0.1680(4) 0.7131(4)
Zn7_3 Zn 0.0000 0.93640(5) 0.5000
O30_5 O 0.0000 0.8525(4) 0.5000
O37_3 O 0.0650(3) 0.9523(3) 0.5573(3)
O40_3 O 0.2131(4) 0.8567(3) 0.6680(4)
O41_3 O 0.2665(6) 0.9019(5) 0.7294(5)
C47_3 C 0.1541(5) 0.9536(4) 0.6390(4)
H16_3 H 0.1446 0.9189 0.6225
C48_3 C 0.1963(4) 0.9553(4) 0.6780(5)
C52_3 C 0.0767(4) 0.9993(6) 0.5774(4)
C54_3 C 0.2262(6) 0.9024(5) 0.6938(6)
Zn22_3 Zn 0.26263(6) 0.79341(5) 0.67948(7)
O42_2 O 0.0559(3) 0.9525(3) 0.4363(3)
O31_2 O 0.9350(3) 0.0477(3) 0.5573(3)
O34_3 O 0.7869(4) 0.1433(3) 0.6680(4)
O35_3 O 0.7335(6) 0.0981(5) 0.7294(5)
C38_3 C 0.8459(5) 0.0464(4) 0.6390(4)
H13_3 H 0.8554 0.0811 0.6225
C39_3 C 0.8037(4) 0.0447(4) 0.6780(5)
C43_3 C 0.9233(4) 0.0007(6) 0.5774(4)
C45_3 C 0.7738(6) 0.0976(5) 0.6938(6)
Zn10_4 Zn 1.0000 0.06360(5) 0.5000
Zn21_3 Zn 0.73737(6) 0.20659(5) 0.67948(7)
Zn7_4 Zn 1.0000 0.93640(5) 0.5000
O29_3 O 0.9441(3) 0.9525(3) 0.5637(3)
O30_6 O 1.0000 0.8525(4) 0.5000
O32_3 O 0.7585(3) 0.8840(3) 0.7426(3)
C37_3 C 0.8759(4) 0.9976(4) 0.6224(4)
C40_3 C 0.7910(4) 0.9921(4) 0.7048(4)
H14_3 H 0.7641 0.9904 0.7339
C41_3 C 0.8184(4) 0.9446(4) 0.6877(4)
C42_3 C 0.8601(3) 0.9462(4) 0.6469(4)
H15_3 H 0.8779 0.9127 0.6356
C44_3 C 0.8013(4) 0.8851(4) 0.7107(4)
O43_2 O 0.9350(3) 0.9523(3) 0.4427(3)
O49_3 O 0.6433(3) 0.8320(4) 0.7131(4)
O30_7 O 0.0000 0.1475(4) 0.5000
O43_3 O 0.0650(3) 0.0477(3) 0.4427(3)
O30_8 O 1.0000 0.1475(4) 0.5000
O42_3 O 0.9441(3) 0.0475(3) 0.4363(3)
O40_4 O 0.2131(4) 0.1433(3) 0.3320(4)
O41_4 O 0.2665(6) 0.0981(5) 0.2706(5)
C47_4 C 0.1541(5) 0.0464(4) 0.3610(4)
H16_4 H 0.1446 0.0811 0.3775
C48_4 C 0.1963(4) 0.0447(4) 0.3220(5)
C52_4 C 0.0767(4) 0.0007(6) 0.4226(4)
C54_4 C 0.2262(6) 0.0976(5) 0.3062(6)
Zn22_4 Zn 0.26263(6) 0.20659(5) 0.32052(7)
O38_4 O 0.2415(3) 0.8840(3) 0.2574(3)
C46_4 C 0.1241(4) 0.9976(4) 0.3776(4)
C49_4 C 0.2090(4) 0.9921(4) 0.2952(4)
H17_4 H 0.2359 0.9904 0.2661
C50_4 C 0.1816(4) 0.9446(4) 0.3123(4)
C51_4 C 0.1399(3) 0.9462(4) 0.3531(4)
H18_4 H 0.1221 0.9127 0.3644
C53_4 C 0.1987(4) 0.8851(4) 0.2893(4)
O50_4 O 0.3567(3) 0.8320(4) 0.2869(4)
O32_4 O 0.7585(3) 0.1160(3) 0.2574(3)
C37_4 C 0.8759(4) 0.0024(4) 0.3776(4)
C40_4 C 0.7910(4) 0.0079(4) 0.2952(4)
H14_4 H 0.7641 0.0096 0.2661
C41_4 C 0.8184(4) 0.0554(4) 0.3123(4)
C42_4 C 0.8601(3) 0.0538(4) 0.3531(4)
H15_4 H 0.8779 0.0873 0.3644
C44_4 C 0.8013(4) 0.1149(4) 0.2893(4)
O49_4 O 0.6433(3) 0.1680(4) 0.2869(4)
O34_4 O 0.7869(4) 0.8567(3) 0.3320(4)
O35_4 O 0.7335(6) 0.9019(5) 0.2706(5)
C38_4 C 0.8459(5) 0.9536(4) 0.3610(4)
H13_4 H 0.8554 0.9189 0.3775
C39_4 C 0.8037(4) 0.9553(4) 0.3220(5)
C43_4 C 0.9233(4) 0.9993(6) 0.4226(4)
C45_4 C 0.7738(6) 0.9024(5) 0.3062(6)
Zn21_4 Zn 0.73737(6) 0.79341(5) 0.32052(7)
Zn1_3 Zn -0.0000 0.5000 0.43640(5)
O1_2 O 0.0637(3) 0.4441(3) 0.4525(3)
O2_3 O -0.0000 0.5000 0.3525(4)
O3_2 O 0.0573(3) 0.4350(3) 0.5477(3)
O4_2 O 0.2426(3) 0.2585(3) 0.3840(3)
O5_2 O 0.1979(4) 0.3310(3) 0.3439(3)
O7_2 O 0.2294(5) 0.2335(6) 0.5981(5)
O8_2 O 0.2480(3) 0.2480(3) 0.2480(3)
C1_2 C 0.1224(4) 0.3759(4) 0.4976(4)
C2_2 C 0.1390(4) 0.3459(5) 0.5464(4)
H1_2 H 0.1225 0.3554 0.5811
C3_2 C 0.1780(5) 0.3037(4) 0.5447(4)
C4_2 C 0.2048(4) 0.2910(4) 0.4921(4)
H2_2 H 0.2339 0.2641 0.4904
C5_2 C 0.1877(4) 0.3184(4) 0.4446(4)
C6_2 C 0.1469(4) 0.3601(3) 0.4462(4)
H3_2 H 0.1356 0.3779 0.4127
C7_2 C 0.0774(4) 0.4233(4) 0.5007(6)
C8_2 C 0.2107(4) 0.3013(4) 0.3851(4)
C9_2 C 0.1938(6) 0.2738(6) 0.5976(5)
Zn4_3 Zn -0.0000 0.5000 0.56360(5)
O15_2 O 0.0637(3) 0.5559(3) 0.5475(3)
O16_3 O -0.0000 0.5000 0.6475(4)
O17_2 O 0.0573(3) 0.5650(3) 0.4523(3)
O18_2 O 0.2426(3) 0.7415(3) 0.6160(3)
O19_2 O 0.1979(4) 0.6690(3) 0.6561(3)
O21_2 O 0.2294(5) 0.7665(6) 0.4019(5)
O22_2 O 0.2480(3) 0.7520(3) 0.7520(3)
C19_2 C 0.1224(4) 0.6241(4) 0.5024(4)
C20_2 C 0.1390(4) 0.6541(5) 0.4536(4)
H7_2 H 0.1225 0.6446 0.4189
C21_2 C 0.1780(5) 0.6963(4) 0.4553(4)
C22_2 C 0.2048(4) 0.7090(4) 0.5079(4)
H8_2 H 0.2339 0.7359 0.5096
C23_2 C 0.1877(4) 0.6816(4) 0.5554(4)
C24_2 C 0.1469(4) 0.6399(3) 0.5538(4)
H9_2 H 0.1356 0.6221 0.5873
C25_2 C 0.0774(4) 0.5767(4) 0.4993(6)
C26_2 C 0.2107(4) 0.6987(4) 0.6149(4)
C27_2 C 0.1938(6) 0.7262(6) 0.4024(5)
Zn7_5 Zn 0.43640(5) 0.0000 0.5000
O29_4 O 0.4525(3) 0.0637(3) 0.4441(3)
O30_9 O 0.3525(4) 0.0000 0.5000
O31_3 O 0.5477(3) 0.0573(3) 0.4350(3)
O32_5 O 0.3840(3) 0.2426(3) 0.2585(3)
O33_2 O 0.3439(3) 0.1979(4) 0.3310(3)
O35_5 O 0.5981(5) 0.2294(5) 0.2335(6)
C37_5 C 0.4976(4) 0.1224(4) 0.3759(4)
C38_5 C 0.5464(4) 0.1390(4) 0.3459(5)
H13_5 H 0.5811 0.1225 0.3554
C39_5 C 0.5447(4) 0.1780(5) 0.3037(4)
C40_5 C 0.4921(4) 0.2048(4) 0.2910(4)
H14_5 H 0.4904 0.2339 0.2641
C41_5 C 0.4446(4) 0.1877(4) 0.3184(4)
C42_5 C 0.4462(4) 0.1469(4) 0.3601(3)
H15_5 H 0.4127 0.1356 0.3779
C43_5 C 0.5007(6) 0.0774(4) 0.4233(4)
C44_5 C 0.3851(4) 0.2107(4) 0.3013(4)
C45_5 C 0.5976(5) 0.1938(6) 0.2738(6)
O36_3 O 0.5475(3) 0.0637(3) 0.5559(3)
O37_4 O 0.4523(3) 0.0573(3) 0.5650(3)
O38_5 O 0.6160(3) 0.2426(3) 0.7415(3)
O39_2 O 0.6561(3) 0.1979(4) 0.6690(3)
O41_5 O 0.4019(5) 0.2294(5) 0.7665(6)
C46_5 C 0.5024(4) 0.1224(4) 0.6241(4)
C47_5 C 0.4536(4) 0.1390(4) 0.6541(5)
H16_5 H 0.4189 0.1225 0.6446
C48_5 C 0.4553(4) 0.1780(5) 0.6963(4)
C49_5 C 0.5079(4) 0.2048(4) 0.7090(4)
H17_5 H 0.5096 0.2339 0.7359
C50_5 C 0.5554(4) 0.1877(4) 0.6816(4)
C51_5 C 0.5538(4) 0.1469(4) 0.6399(3)
H18_5 H 0.5873 0.1356 0.6221
C52_5 C 0.4993(6) 0.0774(4) 0.5767(4)
C53_5 C 0.6149(4) 0.2107(4) 0.6987(4)
C54_5 C 0.4024(5) 0.1938(6) 0.7262(6)
Zn10_5 Zn 0.56360(5) 0.0000 0.5000
O45_2 O 0.3439(3) 0.8021(4) 0.6690(3)
O47_3 O 0.3310(3) 0.3439(3) 0.1979(4)
O48_3 O 0.6690(3) 0.3439(3) 0.8021(4)
O57_2 O 0.7520(3) 0.2480(3) 0.7520(3)
Zn7_6 Zn 0.43640(5) 1.0000 0.5000
O30_10 O 0.3525(4) 1.0000 0.5000
Zn10_6 Zn 0.56360(5) 1.0000 0.5000
O42_4 O 0.4525(3) 0.9363(3) 0.5559(3)
O43_4 O 0.4523(3) 0.9427(3) 0.4350(3)
Zn1_4 Zn 1.0000 0.5000 0.43640(5)
O2_4 O 1.0000 0.5000 0.3525(4)
O9_2 O 0.9363(3) 0.5559(3) 0.4525(3)
O10_2 O 0.9427(3) 0.5650(3) 0.5477(3)
O11_2 O 0.7574(3) 0.7415(3) 0.3840(3)
O12_2 O 0.8021(4) 0.6690(3) 0.3439(3)
O14_2 O 0.7706(5) 0.7665(6) 0.5981(5)
C10_2 C 0.8776(4) 0.6241(4) 0.4976(4)
C11_2 C 0.8610(4) 0.6541(5) 0.5464(4)
H4_2 H 0.8775 0.6446 0.5811
C12_2 C 0.8220(5) 0.6963(4) 0.5447(4)
C13_2 C 0.7952(4) 0.7090(4) 0.4921(4)
H5_2 H 0.7661 0.7359 0.4904
C14_2 C 0.8123(4) 0.6816(4) 0.4446(4)
C15_2 C 0.8531(4) 0.6399(3) 0.4462(4)
H6_2 H 0.8644 0.6221 0.4127
C16_2 C 0.9226(4) 0.5767(4) 0.5007(6)
C17_2 C 0.7893(4) 0.6987(4) 0.3851(4)
C18_2 C 0.8062(6) 0.7262(6) 0.5976(5)
Zn4_4 Zn 1.0000 0.5000 0.56360(5)
O16_4 O 1.0000 0.5000 0.6475(4)
O23_2 O 0.9363(3) 0.4441(3) 0.5475(3)
O24_2 O 0.9427(3) 0.4350(3) 0.4523(3)
O25_2 O 0.7574(3) 0.2585(3) 0.6160(3)
O26_2 O 0.8021(4) 0.3310(3) 0.6561(3)
O28_2 O 0.7706(5) 0.2335(6) 0.4019(5)
C28_2 C 0.8776(4) 0.3759(4) 0.5024(4)
C29_2 C 0.8610(4) 0.3459(5) 0.4536(4)
H10_2 H 0.8775 0.3554 0.4189
C30_2 C 0.8220(5) 0.3037(4) 0.4553(4)
C31_2 C 0.7952(4) 0.2910(4) 0.5079(4)
H11_2 H 0.7661 0.2641 0.5096
C32_2 C 0.8123(4) 0.3184(4) 0.5554(4)
C33_2 C 0.8531(4) 0.3601(3) 0.5538(4)
H12_2 H 0.8644 0.3779 0.5873
C34_2 C 0.9226(4) 0.4233(4) 0.4993(6)
C35_2 C 0.7893(4) 0.3013(4) 0.6149(4)
C36_2 C 0.8062(6) 0.2738(6) 0.4024(5)
O44_2 O 0.6561(3) 0.8021(4) 0.3310(3)
O55_2 O 0.7520(3) 0.7520(3) 0.2480(3)
O30_11 O 0.6475(4) 0.0000 0.5000
O29_5 O 0.5475(3) 0.9363(3) 0.4441(3)
O30_12 O 0.6475(4) 1.0000 0.5000
O32_6 O 0.6160(3) 0.7574(3) 0.2585(3)
O35_6 O 0.4019(5) 0.7706(5) 0.2335(6)
C37_6 C 0.5024(4) 0.8776(4) 0.3759(4)
C38_6 C 0.4536(4) 0.8610(4) 0.3459(5)
H13_6 H 0.4189 0.8775 0.3554
C39_6 C 0.4553(4) 0.8220(5) 0.3037(4)
C40_6 C 0.5079(4) 0.7952(4) 0.2910(4)
H14_6 H 0.5096 0.7661 0.2641
C41_6 C 0.5554(4) 0.8123(4) 0.3184(4)
C42_6 C 0.5538(4) 0.8531(4) 0.3601(3)
H15_6 H 0.5873 0.8644 0.3779
C43_6 C 0.4993(6) 0.9226(4) 0.4233(4)
C44_6 C 0.6149(4) 0.7893(4) 0.3013(4)
C45_6 C 0.4024(5) 0.8062(6) 0.2738(6)
O37_5 O 0.5477(3) 0.9427(3) 0.5650(3)
O38_6 O 0.3840(3) 0.7574(3) 0.7415(3)
O41_6 O 0.5981(5) 0.7706(5) 0.7665(6)
C46_6 C 0.4976(4) 0.8776(4) 0.6241(4)
C47_6 C 0.5464(4) 0.8610(4) 0.6541(5)
H16_6 H 0.5811 0.8775 0.6446
C48_6 C 0.5447(4) 0.8220(5) 0.6963(4)
C49_6 C 0.4921(4) 0.7952(4) 0.7090(4)
H17_6 H 0.4904 0.7661 0.7359
C50_6 C 0.4446(4) 0.8123(4) 0.6816(4)
C51_6 C 0.4462(4) 0.8531(4) 0.6399(3)
H18_6 H 0.4127 0.8644 0.6221
C52_6 C 0.5007(6) 0.9226(4) 0.5767(4)
C53_6 C 0.3851(4) 0.7893(4) 0.6987(4)
C54_6 C 0.5976(5) 0.8062(6) 0.7262(6)
O47_4 O 0.6690(3) 0.6561(3) 0.1979(4)
O48_4 O 0.3310(3) 0.6561(3) 0.8021(4)
Zn7_7 Zn 0.5000 0.43640(5) 0.0000
O29_6 O 0.4441(3) 0.4525(3) 0.0637(3)
O30_13 O 0.5000 0.3525(4) 0.0000
O31_4 O 0.4350(3) 0.5477(3) 0.0573(3)
O32_7 O 0.2585(3) 0.3840(3) 0.2426(3)
O35_7 O 0.2335(6) 0.5981(5) 0.2294(5)
C37_7 C 0.3759(4) 0.4976(4) 0.1224(4)
C38_7 C 0.3459(5) 0.5464(4) 0.1390(4)
H13_7 H 0.3554 0.5811 0.1225
C39_7 C 0.3037(4) 0.5447(4) 0.1780(5)
C40_7 C 0.2910(4) 0.4921(4) 0.2048(4)
H14_7 H 0.2641 0.4904 0.2339
C41_7 C 0.3184(4) 0.4446(4) 0.1877(4)
C42_7 C 0.3601(3) 0.4462(4) 0.1469(4)
H15_7 H 0.3779 0.4127 0.1356
C43_7 C 0.4233(4) 0.5007(6) 0.0774(4)
C44_7 C 0.3013(4) 0.3851(4) 0.2107(4)
C45_7 C 0.2738(6) 0.5976(5) 0.1938(6)
O36_4 O 0.5559(3) 0.5475(3) 0.0637(3)
O37_6 O 0.5650(3) 0.4523(3) 0.0573(3)
O38_7 O 0.7415(3) 0.6160(3) 0.2426(3)
O41_7 O 0.7665(6) 0.4019(5) 0.2294(5)
C46_7 C 0.6241(4) 0.5024(4) 0.1224(4)
C47_7 C 0.6541(5) 0.4536(4) 0.1390(4)
H16_7 H 0.6446 0.4189 0.1225
C48_7 C 0.6963(4) 0.4553(4) 0.1780(5)
C49_7 C 0.7090(4) 0.5079(4) 0.2048(4)
H17_7 H 0.7359 0.5096 0.2339
C50_7 C 0.6816(4) 0.5554(4) 0.1877(4)
C51_7 C 0.6399(3) 0.5538(4) 0.1469(4)
H18_7 H 0.6221 0.5873 0.1356
C52_7 C 0.5767(4) 0.4993(6) 0.0774(4)
C53_7 C 0.6987(4) 0.6149(4) 0.2107(4)
C54_7 C 0.7262(6) 0.4024(5) 0.1938(6)
Zn10_7 Zn 0.5000 0.56360(5) 0.0000
Zn7_8 Zn 0.5000 0.43640(5) 1.0000
O30_14 O 0.5000 0.3525(4) 1.0000
Zn10_8 Zn 0.5000 0.56360(5) 1.0000
O42_5 O 0.5559(3) 0.4525(3) 0.9363(3)
O43_5 O 0.4350(3) 0.4523(3) 0.9427(3)
O30_15 O 0.5000 0.6475(4) 0.0000
O30_16 O 0.5000 0.6475(4) 1.0000
O42_6 O 0.4441(3) 0.5475(3) 0.9363(3)
O43_6 O 0.5650(3) 0.5477(3) 0.9427(3)
O32_8 O 0.2585(3) 0.6160(3) 0.7574(3)
O35_8 O 0.2335(6) 0.4019(5) 0.7706(5)
C37_8 C 0.3759(4) 0.5024(4) 0.8776(4)
C38_8 C 0.3459(5) 0.4536(4) 0.8610(4)
H13_8 H 0.3554 0.4189 0.8775
C39_8 C 0.3037(4) 0.4553(4) 0.8220(5)
C40_8 C 0.2910(4) 0.5079(4) 0.7952(4)
H14_8 H 0.2641 0.5096 0.7661
C41_8 C 0.3184(4) 0.5554(4) 0.8123(4)
C42_8 C 0.3601(3) 0.5538(4) 0.8531(4)
H15_8 H 0.3779 0.5873 0.8644
C43_8 C 0.4233(4) 0.4993(6) 0.9226(4)
C44_8 C 0.3013(4) 0.6149(4) 0.7893(4)
C45_8 C 0.2738(6) 0.4024(5) 0.8062(6)
O38_8 O 0.7415(3) 0.3840(3) 0.7574(3)
O41_8 O 0.7665(6) 0.5981(5) 0.7706(5)
C46_8 C 0.6241(4) 0.4976(4) 0.8776(4)
C47_8 C 0.6541(5) 0.5464(4) 0.8610(4)
H16_8 H 0.6446 0.5811 0.8775
C48_8 C 0.6963(4) 0.5447(4) 0.8220(5)
C49_8 C 0.7090(4) 0.4921(4) 0.7952(4)
H17_8 H 0.7359 0.4904 0.7661
C50_8 C 0.6816(4) 0.4446(4) 0.8123(4)
C51_8 C 0.6399(3) 0.4462(4) 0.8531(4)
H18_8 H 0.6221 0.4127 0.8644
C52_8 C 0.5767(4) 0.5007(6) 0.9226(4)
C53_8 C 0.6987(4) 0.3851(4) 0.7893(4)
C54_8 C 0.7262(6) 0.5976(5) 0.8062(6)
loop_
_geom_bond_atom_site_label_1
_geom_bond_atom_site_label_2
_geom_bond_site_symmetry_1
_geom_bond_site_symmetry_2
Zn9 O38 1_555 1_555
O38 C53 1_555 1_555
O39 C53 1_555 1_555
H17 C49 1_555 1_555
C50 C49 1_555 1_555
C51 C46 1_555 1_555
H18 C51 1_555 1_555
C53 C50 1_555 1_555
Zn11 O39 1_555 1_555
O48 Zn9 1_555 1_555
O50 Zn9 1_555 1_555
O57 Zn9 1_555 1_555
O36 Zn10 1_555 1_555
C50 C51 1_555 1_555
Zn11 O57 1_555 1_555
O31 C43 1_555 1_555
O34 C45 1_555 1_555
O35 C45 1_555 1_555
C38 H13 1_555 1_555
C39 C38 1_555 1_555
C45 C39 1_555 1_555
Zn10_2 O31 1_555 1_555
Zn21 O34 1_555 1_555
O10 C16 1_555 1_555
O13 C18 1_555 1_555
O14 C18 1_555 1_555
C11 H4 1_555 1_555
C12 C11 1_555 1_555
C18 C12 1_555 1_555
Zn5 O18 1_555 1_555
O15 Zn4 1_555 1_555
O16 Zn4 1_555 1_555
O18 C26 1_555 1_555
O19 C26 1_555 1_555
O22 Zn5 1_555 1_555
H8 C22 1_555 1_555
C23 C22 1_555 1_555
C24 C19 1_555 1_555
H9 C24 1_555 1_555
C26 C23 1_555 1_555
Zn12 O22 1_555 1_555
Zn14 O19 1_555 1_555
Zn17 O13 1_555 1_555
O45 Zn5 1_555 1_555
O54 Zn5 1_555 1_555
O10 Zn4 1_555 1_555
O22 Zn14 1_555 1_555
C23 C24 1_555 1_555
O2 Zn1 1_555 1_555
Zn3 O11 1_555 1_555
O9 Zn1 1_555 1_555
O11 C17 1_555 1_555
O12 C17 1_555 1_555
H5 C13 1_555 1_555
C14 C13 1_555 1_555
C15 C10 1_555 1_555
H6 C15 1_555 1_555
C17 C14 1_555 1_555
O17 Zn1 1_555 1_555
O20 C27 1_555 1_555
O21 C27 1_555 1_555
C20 H7 1_555 1_555
C21 C20 1_555 1_555
C27 C21 1_555 1_555
Zn16 O12 1_555 1_555
Zn20 O20 1_555 1_555
O44 Zn3 1_555 1_555
O52 Zn3 1_555 1_555
O55 Zn3 1_555 1_555
C14 C15 1_555 1_555
O17 C25 1_555 1_555
Zn16 O55 1_555 1_555
O3 C7 1_555 1_555
O6 C9 1_555 1_555
O7 C9 1_555 1_555
C2 H1 1_555 1_555
C3 C2 1_555 1_555
C9 C3 1_555 1_555
Zn4_2 O3 1_555 1_555
O16_2 Zn4_2 1_555 1_555
Zn11 O25 1_555 1_555
O23 Zn4_2 1_555 1_555
O25 C35 1_555 1_555
O26 C35 1_555 1_555
H11 C31 1_555 1_555
C32 C31 1_555 1_555
C33 C28 1_555 1_555
H12 C33 1_555 1_555
C35 C32 1_555 1_555
O30 Zn7 1_555 1_555
O37 Zn7 1_555 1_555
O40 C54 1_555 1_555
O41 C54 1_555 1_555
C47 H16 1_555 1_555
C48 C47 1_555 1_555
C52 O37 1_555 1_555
C54 C48 1_555 1_555
Zn15 O26 1_555 1_555
Zn18 O6 1_555 1_555
Zn22 O40 1_555 1_555
O42 Zn7 1_555 1_555
O51 Zn11 1_555 1_555
C32 C33 1_555 1_555
Zn15 O57 1_555 1_555
Zn1_2 O1 1_555 1_555
Zn2 O4 1_555 1_555
O2_2 Zn1_2 1_555 1_555
O4 C8 1_555 1_555
O5 C8 1_555 1_555
O8 Zn2 1_555 1_555
H2 C4 1_555 1_555
C5 C4 1_555 1_555
C6 C1 1_555 1_555
H3 C6 1_555 1_555
C8 C5 1_555 1_555
O24 Zn1_2 1_555 1_555
O27 C36 1_555 1_555
O28 C36 1_555 1_555
C29 H10 1_555 1_555
C30 C29 1_555 1_555
C36 C30 1_555 1_555
Zn7_2 O29 1_555 1_555
Zn8 O8 1_555 1_555
O30_2 Zn7_2 1_555 1_555
O32 Zn8 1_555 1_555
O33 Zn2 1_555 1_555
H14 C40 1_555 1_555
C41 C40 1_555 1_555
C42 C37 1_555 1_555
H15 C42 1_555 1_555
C44 O32 1_555 1_555
Zn13 O5 1_555 1_555
Zn19 O27 1_555 1_555
O43 Zn7_2 1_555 1_555
O47 Zn8 1_555 1_555
O49 Zn8 1_555 1_555
O53 Zn2 1_555 1_555
O8 Zn13 1_555 1_555
C5 C6 1_555 1_555
O24 C34 1_555 1_555
O33 C44 1_555 1_555
C41 C42 1_555 1_555
C41 C44 1_555 1_555
O30_3 Zn10 1_555 1_555
O37_2 Zn10 1_555 1_555
O40_2 C54_2 1_555 1_555
O41_2 C54_2 1_555 1_555
C47_2 H16_2 1_555 1_555
C48_2 C47_2 1_555 1_555
C52_2 O37_2 1_555 1_555
C54_2 C48_2 1_555 1_555
Zn22_2 O40_2 1_555 1_555
Zn10_2 O29_2 1_555 1_555
Zn8_2 O55 1_555 1_555
O30_4 Zn10_2 1_555 1_555
O32_2 Zn8_2 1_555 1_555
H14_2 C40_2 1_555 1_555
C41_2 C40_2 1_555 1_555
C42_2 C37_2 1_555 1_555
H15_2 C42_2 1_555 1_555
C44_2 O32_2 1_555 1_555
O47_2 Zn8_2 1_555 1_555
O49_2 Zn8_2 1_555 1_555
O44 C44_2 1_555 1_555
C41_2 C42_2 1_555 1_555
C41_2 C44_2 1_555 1_555
Zn12 O38_2 1_555 1_555
O38_2 C53_2 1_555 1_555
O45 C53_2 1_555 1_555
H17_2 C49_2 1_555 1_555
C50_2 C49_2 1_555 1_555
C51_2 C46_2 1_555 1_555
H18_2 C51_2 1_555 1_555
C53_2 C50_2 1_555 1_555
O48_2 Zn12 1_555 1_555
O50_2 Zn12 1_555 1_555
C50_2 C51_2 1_555 1_555
O43 C43_2 1_555 1_555
O34_2 C45_2 1_555 1_555
O35_2 C45_2 1_555 1_555
C38_2 H13_2 1_555 1_555
C39_2 C38_2 1_555 1_555
C45_2 C39_2 1_555 1_555
Zn21_2 O34_2 1_555 1_555
Zn16 O38_3 1_555 1_555
O38_3 C53_3 1_555 1_555
O47_2 C53_3 1_555 1_555
H17_3 C49_3 1_555 1_555
C50_3 C49_3 1_555 1_555
C51_3 C46_3 1_555 1_555
H18_3 C51_3 1_555 1_555
C53_3 C50_3 1_555 1_555
O50_3 Zn16 1_555 1_555
O36_2 Zn10_3 1_555 1_555
C50_3 C51_3 1_555 1_555
O30_5 Zn7_3 1_555 1_555
O37_3 Zn7_3 1_555 1_555
O40_3 C54_3 1_555 1_555
O41_3 C54_3 1_555 1_555
C47_3 H16_3 1_555 1_555
C48_3 C47_3 1_555 1_555
C52_3 O37_3 1_555 1_555
C54_3 C48_3 1_555 1_555
Zn22_3 O40_3 1_555 1_555
O42_2 Zn7_3 1_555 1_555
O31_2 C43_3 1_555 1_555
O34_3 C45_3 1_555 1_555
O35_3 C45_3 1_555 1_555
C38_3 H13_3 1_555 1_555
C39_3 C38_3 1_555 1_555
C45_3 C39_3 1_555 1_555
Zn10_4 O31_2 1_555 1_555
Zn21_3 O34_3 1_555 1_555
Zn7_4 O29_3 1_555 1_555
O30_6 Zn7_4 1_555 1_555
O32_3 Zn13 1_555 1_555
H14_3 C40_3 1_555 1_555
C41_3 C40_3 1_555 1_555
C42_3 C37_3 1_555 1_555
H15_3 C42_3 1_555 1_555
C44_3 O32_3 1_555 1_555
O43_2 Zn7_4 1_555 1_555
O49_3 Zn13 1_555 1_555
O47 C44_3 1_555 1_555
C41_3 C42_3 1_555 1_555
C41_3 C44_3 1_555 1_555
O30_7 Zn10_3 1_555 1_555
O43_3 Zn10_3 1_555 1_555
O30_8 Zn10_4 1_555 1_555
O42_3 Zn10_4 1_555 1_555
O40_4 C54_4 1_555 1_555
O41_4 C54_4 1_555 1_555
C47_4 H16_4 1_555 1_555
C48_4 C47_4 1_555 1_555
C52_4 O43_3 1_555 1_555
C54_4 C48_4 1_555 1_555
Zn22_4 O40_4 1_555 1_555
Zn15 O38_4 1_555 1_555
O38_4 C53_4 1_555 1_555
O48 C53_4 1_555 1_555
H17_4 C49_4 1_555 1_555
C50_4 C49_4 1_555 1_555
C51_4 C46_4 1_555 1_555
H18_4 C51_4 1_555 1_555
C53_4 C50_4 1_555 1_555
O50_4 Zn15 1_555 1_555
C50_4 C51_4 1_555 1_555
O32_4 Zn14 1_555 1_555
H14_4 C40_4 1_555 1_555
C41_4 C40_4 1_555 1_555
C42_4 C37_4 1_555 1_555
H15_4 C42_4 1_555 1_555
C44_4 O32_4 1_555 1_555
O49_4 Zn14 1_555 1_555
O48_2 C44_4 1_555 1_555
C41_4 C42_4 1_555 1_555
C41_4 C44_4 1_555 1_555
O43_2 C43_4 1_555 1_555
O34_4 C45_4 1_555 1_555
O35_4 C45_4 1_555 1_555
C38_4 H13_4 1_555 1_555
C39_4 C38_4 1_555 1_555
C45_4 C39_4 1_555 1_555
Zn21_4 O34_4 1_555 1_555
Zn1_3 O1_2 1_555 1_555
Zn22_4 O4_2 1_555 1_555
O1_2 C7_2 1_555 1_555
O2_3 Zn1_3 1_555 1_555
O3_2 C7_2 1_555 1_555
O4_2 C8_2 1_555 1_555
O5_2 C8_2 1_555 1_555
O49_2 C9_2 1_555 1_555
O7_2 C9_2 1_555 1_555
O8_2 Zn22_4 1_555 1_555
C1_2 C2_2 1_555 1_555
C2_2 H1_2 1_555 1_555
C3_2 C2_2 1_555 1_555
C4_2 C3_2 1_555 1_555
H2_2 C4_2 1_555 1_555
C5_2 C4_2 1_555 1_555
C6_2 C1_2 1_555 1_555
H3_2 C6_2 1_555 1_555
C7_2 C1_2 1_555 1_555
C8_2 C5_2 1_555 1_555
C9_2 C3_2 1_555 1_555
Zn4_3 O3_2 1_555 1_555
Zn22_3 O18_2 1_555 1_555
O15_2 Zn4_3 1_555 1_555
O16_3 Zn4_3 1_555 1_555
O17_2 Zn1_3 1_555 1_555
O18_2 C26_2 1_555 1_555
O19_2 C26_2 1_555 1_555
O50 C27_2 1_555 1_555
O21_2 C27_2 1_555 1_555
O22_2 Zn22_3 1_555 1_555
C19_2 C20_2 1_555 1_555
C20_2 H7_2 1_555 1_555
C21_2 C20_2 1_555 1_555
C22_2 C21_2 1_555 1_555
H8_2 C22_2 1_555 1_555
C23_2 C22_2 1_555 1_555
C24_2 C19_2 1_555 1_555
H9_2 C24_2 1_555 1_555
C25_2 O15_2 1_555 1_555
C26_2 C23_2 1_555 1_555
C27_2 C21_2 1_555 1_555
Zn7_5 O29_4 1_555 1_555
Zn17 O8_2 1_555 1_555
O29_4 C43_5 1_555 1_555
O30_9 Zn7_5 1_555 1_555
O31_3 C43_5 1_555 1_555
O32_5 Zn17 1_555 1_555
O33_2 Zn22_4 1_555 1_555
O49_4 C45_5 1_555 1_555
O35_5 C45_5 1_555 1_555
C37_5 C38_5 1_555 1_555
C38_5 H13_5 1_555 1_555
C39_5 C38_5 1_555 1_555
C40_5 C39_5 1_555 1_555
H14_5 C40_5 1_555 1_555
C41_5 C40_5 1_555 1_555
C42_5 C37_5 1_555 1_555
H15_5 C42_5 1_555 1_555
C43_5 C37_5 1_555 1_555
C44_5 O32_5 1_555 1_555
C45_5 C39_5 1_555 1_555
Zn20 O38_5 1_555 1_555
O36_3 C52_5 1_555 1_555
O37_4 Zn7_5 1_555 1_555
O38_5 C53_5 1_555 1_555
O39_2 C53_5 1_555 1_555
O50_3 C54_5 1_555 1_555
O41_5 C54_5 1_555 1_555
C46_5 C47_5 1_555 1_555
C47_5 H16_5 1_555 1_555
C48_5 C47_5 1_555 1_555
C49_5 C48_5 1_555 1_555
H17_5 C49_5 1_555 1_555
C50_5 C49_5 1_555 1_555
C51_5 C46_5 1_555 1_555
H18_5 C51_5 1_555 1_555
C52_5 O37_4 1_555 1_555
C53_5 C50_5 1_555 1_555
C54_5 C48_5 1_555 1_555
Zn10_5 O31_3 1_555 1_555
Zn21_3 O39_2 1_555 1_555
Zn19 O22_2 1_555 1_555
Zn22_2 O5_2 1_555 1_555
Zn21 O19_2 1_555 1_555
O45_2 Zn22_3 1_555 1_555
O47_3 Zn17 1_555 1_555
O48_3 Zn20 1_555 1_555
O57_2 Zn20 1_555 1_555
O8_2 Zn22_2 1_555 1_555
C5_2 C6_2 1_555 1_555
O17_2 C25_2 1_555 1_555
O22_2 Zn21 1_555 1_555
C19_2 C25_2 1_555 1_555
C23_2 C24_2 1_555 1_555
O33_2 C44_5 1_555 1_555
C41_5 C42_5 1_555 1_555
C41_5 C44_5 1_555 1_555
O36_3 Zn10_5 1_555 1_555
C46_5 C52_5 1_555 1_555
C50_5 C51_5 1_555 1_555
Zn21_3 O57_2 1_555 1_555
O30_10 Zn7_6 1_555 1_555
O42_4 Zn7_6 1_555 1_555
O43_4 Zn7_6 1_555 1_555
O2_4 Zn1_4 1_555 1_555
Zn21_4 O11_2 1_555 1_555
O9_2 Zn1_4 1_555 1_555
O10_2 C16_2 1_555 1_555
O11_2 C17_2 1_555 1_555
O12_2 C17_2 1_555 1_555
O49 C18_2 1_555 1_555
O14_2 C18_2 1_555 1_555
C10_2 C11_2 1_555 1_555
C11_2 H4_2 1_555 1_555
C12_2 C11_2 1_555 1_555
C13_2 C12_2 1_555 1_555
H5_2 C13_2 1_555 1_555
C14_2 C13_2 1_555 1_555
C15_2 C10_2 1_555 1_555
H6_2 C15_2 1_555 1_555
C16_2 O9_2 1_555 1_555
C17_2 C14_2 1_555 1_555
C18_2 C12_2 1_555 1_555
O16_4 Zn4_4 1_555 1_555
Zn21_3 O25_2 1_555 1_555
O23_2 Zn4_4 1_555 1_555
O24_2 Zn1_4 1_555 1_555
O25_2 C35_2 1_555 1_555
O26_2 C35_2 1_555 1_555
O50_2 C36_2 1_555 1_555
O28_2 C36_2 1_555 1_555
C28_2 C29_2 1_555 1_555
C29_2 H10_2 1_555 1_555
C30_2 C29_2 1_555 1_555
C31_2 C30_2 1_555 1_555
H11_2 C31_2 1_555 1_555
C32_2 C31_2 1_555 1_555
C33_2 C28_2 1_555 1_555
H12_2 C33_2 1_555 1_555
C34_2 O23_2 1_555 1_555
C35_2 C32_2 1_555 1_555
C36_2 C30_2 1_555 1_555
Zn21_2 O26_2 1_555 1_555
Zn22 O12_2 1_555 1_555
O44_2 Zn21_4 1_555 1_555
O55_2 Zn21_4 1_555 1_555
O10_2 Zn4_4 1_555 1_555
C10_2 C16_2 1_555 1_555
C14_2 C15_2 1_555 1_555
O24_2 C34_2 1_555 1_555
C28_2 C34_2 1_555 1_555
C32_2 C33_2 1_555 1_555
Zn21_2 O57_2 1_555 1_555
Zn22 O55_2 1_555 1_555
O30_11 Zn10_5 1_555 1_555
Zn10_6 O29_5 1_555 1_555
Zn18 O55_2 1_555 1_555
O29_5 C43_6 1_555 1_555
O30_12 Zn10_6 1_555 1_555
O43_4 C43_6 1_555 1_555
O32_6 Zn18 1_555 1_555
O50_4 C45_6 1_555 1_555
O35_6 C45_6 1_555 1_555
C37_6 C38_6 1_555 1_555
C38_6 H13_6 1_555 1_555
C39_6 C38_6 1_555 1_555
C40_6 C39_6 1_555 1_555
H14_6 C40_6 1_555 1_555
C41_6 C40_6 1_555 1_555
C42_6 C37_6 1_555 1_555
H15_6 C42_6 1_555 1_555
C43_6 C37_6 1_555 1_555
C44_6 O32_6 1_555 1_555
C45_6 C39_6 1_555 1_555
Zn19 O38_6 1_555 1_555
O42_4 C52_6 1_555 1_555
O37_5 Zn10_6 1_555 1_555
O38_6 C53_6 1_555 1_555
O45_2 C53_6 1_555 1_555
O49_3 C54_6 1_555 1_555
O41_6 C54_6 1_555 1_555
C46_6 C47_6 1_555 1_555
C47_6 H16_6 1_555 1_555
C48_6 C47_6 1_555 1_555
C49_6 C48_6 1_555 1_555
H17_6 C49_6 1_555 1_555
C50_6 C49_6 1_555 1_555
C51_6 C46_6 1_555 1_555
H18_6 C51_6 1_555 1_555
C52_6 O37_5 1_555 1_555
C53_6 C50_6 1_555 1_555
C54_6 C48_6 1_555 1_555
O47_4 Zn18 1_555 1_555
O48_4 Zn19 1_555 1_555
O44_2 C44_6 1_555 1_555
C41_6 C42_6 1_555 1_555
C41_6 C44_6 1_555 1_555
C46_6 C52_6 1_555 1_555
C50_6 C51_6 1_555 1_555
Zn7_7 O29_6 1_555 1_555
O29_6 C43_7 1_555 1_555
O30_13 Zn7_7 1_555 1_555
O31_4 C43_7 1_555 1_555
O32_7 Zn22_2 1_555 1_555
O51 C45_7 1_555 1_555
O35_7 C45_7 1_555 1_555
C37_7 C38_7 1_555 1_555
C38_7 H13_7 1_555 1_555
C39_7 C38_7 1_555 1_555
C40_7 C39_7 1_555 1_555
H14_7 C40_7 1_555 1_555
C41_7 C40_7 1_555 1_555
C42_7 C37_7 1_555 1_555
H15_7 C42_7 1_555 1_555
C43_7 C37_7 1_555 1_555
C44_7 O32_7 1_555 1_555
C45_7 C39_7 1_555 1_555
Zn22 O38_7 1_555 1_555
O36_4 C52_7 1_555 1_555
O37_6 Zn7_7 1_555 1_555
O38_7 C53_7 1_555 1_555
O47_4 C53_7 1_555 1_555
O54 C54_7 1_555 1_555
O41_7 C54_7 1_555 1_555
C46_7 C47_7 1_555 1_555
C47_7 H16_7 1_555 1_555
C48_7 C47_7 1_555 1_555
C49_7 C48_7 1_555 1_555
H17_7 C49_7 1_555 1_555
C50_7 C49_7 1_555 1_555
C51_7 C46_7 1_555 1_555
H18_7 C51_7 1_555 1_555
C52_7 O37_6 1_555 1_555
C53_7 C50_7 1_555 1_555
C54_7 C48_7 1_555 1_555
Zn10_7 O31_4 1_555 1_555
O47_3 C44_7 1_555 1_555
C41_7 C42_7 1_555 1_555
C41_7 C44_7 1_555 1_555
O36_4 Zn10_7 1_555 1_555
C46_7 C52_7 1_555 1_555
C50_7 C51_7 1_555 1_555
O30_14 Zn7_8 1_555 1_555
O42_5 Zn7_8 1_555 1_555
O43_5 Zn7_8 1_555 1_555
O30_15 Zn10_7 1_555 1_555
O30_16 Zn10_8 1_555 1_555
O42_6 Zn10_8 1_555 1_555
O43_6 Zn10_8 1_555 1_555
O42_6 C43_8 1_555 1_555
O43_5 C43_8 1_555 1_555
O32_8 Zn21 1_555 1_555
O52 C45_8 1_555 1_555
O35_8 C45_8 1_555 1_555
C37_8 C38_8 1_555 1_555
C38_8 H13_8 1_555 1_555
C39_8 C38_8 1_555 1_555
C40_8 C39_8 1_555 1_555
H14_8 C40_8 1_555 1_555
C41_8 C40_8 1_555 1_555
C42_8 C37_8 1_555 1_555
H15_8 C42_8 1_555 1_555
C43_8 C37_8 1_555 1_555
C44_8 O32_8 1_555 1_555
C45_8 C39_8 1_555 1_555
Zn21_2 O38_8 1_555 1_555
O42_5 C52_8 1_555 1_555
O38_8 C53_8 1_555 1_555
O48_3 C53_8 1_555 1_555
O53 C54_8 1_555 1_555
O41_8 C54_8 1_555 1_555
C46_8 C47_8 1_555 1_555
C47_8 H16_8 1_555 1_555
C48_8 C47_8 1_555 1_555
C49_8 C48_8 1_555 1_555
H17_8 C49_8 1_555 1_555
C50_8 C49_8 1_555 1_555
C51_8 C46_8 1_555 1_555
H18_8 C51_8 1_555 1_555
C52_8 O43_6 1_555 1_555
C53_8 C50_8 1_555 1_555
C54_8 C48_8 1_555 1_555
O48_4 C44_8 1_555 1_555
C41_8 C42_8 1_555 1_555
C41_8 C44_8 1_555 1_555
C46_8 C52_8 1_555 1_555
C50_8 C51_8 1_555 1_555

#END
