
###############################################################################
#
# This file contains modified crystal structure data generated from the
# MOF subset of the Cambridge Structural Database (CSD) v543 
# hosted by the Cambridge Crystallographic Data Centre (CCDC).
#
# This work is licensed under the Creative Commons
# Attribution-NonCommercial-ShareAlike 4.0 International License.
# To view a copy of this license, visit
# http://creativecommons.org/licenses/by-nc-sa/4.0/
# or send a letter to
# Creative Commons, PO Box 1866, Mountain View, CA 94042, USA.
#
# CIF created using the CSD Python API on 29 September 2022
# The structure has been converted into the P1 space group
# The structure has a 3D framework
# The original CSD entry RUPZIM is in the orthorhombic crystal system
# The original CSD entry RUPZIM is in a Sohncke space group
# The framework has been calculated to contain at least 10.0% void space
# The void calculation uses a probe of radius 1.32A, grid spacing 0.4
# H atom positions have been added when not included in the experimental data
#
###############################################################################

data_RUPZIM
_chemical_formula_moiety         '(C56 H40 N6 O16 Zn4)n'
_symmetry_cell_setting           triclinic
_symmetry_space_group_name_H-M   'P 1'
_symmetry_Int_Tables_number      1
_space_group_name_Hall           'P 1'
loop_
_symmetry_equiv_pos_site_id
_symmetry_equiv_pos_as_xyz
1 x,y,z
_cell_length_a                   7.6145(2)
_cell_length_b                   11.1330(3)
_cell_length_c                   16.8688(4)
_cell_angle_alpha                90
_cell_angle_beta                 90
_cell_angle_gamma                90
_cell_volume                     1430.01
loop_
_atom_site_label
_atom_site_type_symbol
_atom_site_fract_x
_atom_site_fract_y
_atom_site_fract_z
O1 O 0.1336(7) 0.1678(5) 0.0767(3)
C2 C 0.1843(10) 0.1323(7) 0.2384(4)
H1 H 0.2166 0.2052 0.2159
C3 C 0.1107(11) 0.0450(6) 0.1918(4)
C7 C 0.2111(11) 0.1130(7) 0.3190(4)
H4 H 0.2593 0.1730 0.3505
C9 C 0.0872(12) 0.0661(7) 0.1065(4)
C12 C 0.1648(10) 0.0023(7) 0.3517(4)
H10 H 0.129214 0.022501 0.478833
Zn1 Zn 0.10229(13) 0.14092(8) 0.96158(4)
C4 C 0.2004(11) 0.4351(7) 0.6752(5)
H2 H 0.2449 0.3926 0.6321
C5 C 0.1311(10) 0.4437(7) 0.8145(4)
C6 C 0.0626(10) 0.5571(7) 0.8024(4)
H3 H 0.0158 0.5992 0.8451
O3 O 0.1773(9) 0.2769(5) 0.8979(3)
C8 C 0.1354(10) 0.5498(7) 0.6642(4)
N2 N 0.1436(8) 0.6083(5) 0.5874(3)
C10 C 0.0622(10) 0.6099(7) 0.7273(4)
H5 H 0.0126 0.6854 0.7200
C11 C 0.1996(10) 0.3823(6) 0.7504(4)
H6 H 0.2454 0.3056 0.7573
C14 C 0.1273(11) 0.3839(7) 0.8945(4)
O4 O 0.0825(8) 0.4446(5) 0.9536(3)
N3 N 0.3012(10) 0.0194(6) 0.9356(3)
H9 H 0.257925 0.631001 0.560329
C1 C 0.4144(12) 0.0850(6) 0.8065(4)
O2 O 0.4772(8) 0.0135(5) 0.5619(3)
C13 C 0.4380(10) 0.0643(7) 0.7260(4)
H7 H 0.4870 0.1240 0.6944
H8 H 0.439(7) 0.174(5) 0.831(3)
C1_2 C 0.0856(12) 0.9150(6) 0.3065(4)
O2_2 O 0.0228(8) 0.9865(5) 0.0619(3)
N1 N 0.1988(10) 0.9806(6) 0.4356(3)
C13_2 C 0.0620(10) 0.9357(7) 0.2260(4)
H7_2 H 0.0130 0.8760 0.1944
H8_2 H 0.061(7) 0.826(5) 0.331(3)
Zn2 Zn 0.39771(13) 0.85908(8) 0.46158(4)
Zn3 Zn 0.89771(13) 0.64092(8) 0.53842(4)
N4 N 0.8564(8) 0.1083(5) 0.9126(3)
O1_2 O 0.3664(7) 0.8322(5) 0.5767(3)
C2_2 C 0.3157(10) 0.8677(7) 0.7384(4)
H1_2 H 0.2834 0.7948 0.7159
C3_2 C 0.3893(11) 0.9550(6) 0.6918(4)
C4_2 C 0.2996(11) 0.5649(7) 0.1752(5)
H2_2 H 0.2551 0.6074 0.1321
C5_2 C 0.3689(10) 0.5563(7) 0.3145(4)
C6_2 C 0.4374(10) 0.4429(7) 0.3024(4)
H3_2 H 0.4842 0.4008 0.3451
C7_2 C 0.2889(11) 0.8870(7) 0.8190(4)
H4_2 H 0.2407 0.8270 0.8505
O3_2 O 0.3227(9) 0.7231(5) 0.3979(3)
C8_2 C 0.3646(10) 0.4502(7) 0.1642(4)
C9_2 C 0.4128(12) 0.9339(7) 0.6065(4)
N2_2 N 0.3564(8) 0.3917(5) 0.0874(3)
C10_2 C 0.4378(10) 0.3901(7) 0.2273(4)
H5_2 H 0.4874 0.3146 0.2200
C11_2 C 0.3004(10) 0.6177(6) 0.2504(4)
H6_2 H 0.2546 0.6944 0.2573
C12_2 C 0.3352(10) 0.9977(7) 0.8517(4)
C14_2 C 0.3727(11) 0.6161(7) 0.3945(4)
O4_2 O 0.4175(8) 0.5554(5) 0.4536(3)
Zn3_2 Zn 0.60229(13) 0.35908(8) 0.03842(4)
N4_2 N 0.6436(8) 0.8917(5) 0.4126(3)
H9_2 H 0.242075 0.368999 0.0603288
H10_2 H 0.370786 0.977499 0.978833
C6_3 C 0.9374(10) 0.0571(7) 0.6976(4)
H3_3 H 0.9842 0.0992 0.6549
C8_3 C 0.8646(10) 0.0498(7) 0.8358(4)
C10_3 C 0.9378(10) 0.1099(7) 0.7727(4)
H5_3 H 0.9874 0.1854 0.7800
H9_3 H 0.742075 0.131001 0.939671
O1_3 O 0.8664(7) 0.6678(5) 0.4233(3)
C1_3 C 0.9144(12) 0.4150(6) 0.1935(4)
C2_3 C 0.8157(10) 0.6323(7) 0.2616(4)
H1_3 H 0.7834 0.7052 0.2841
O2_3 O 0.9772(8) 0.4865(5) 0.4381(3)
C3_3 C 0.8893(11) 0.5450(6) 0.3082(4)
C4_3 C 0.7996(11) 0.9351(7) 0.8248(5)
H2_3 H 0.7551 0.8926 0.8679
N1_2 N 0.8012(10) 0.4806(6) 0.0644(3)
C5_3 C 0.8689(10) 0.9437(7) 0.6855(4)
C7_3 C 0.7889(11) 0.6130(7) 0.1810(4)
H4_3 H 0.7407 0.6730 0.1495
O3_3 O 0.8227(9) 0.7769(5) 0.6021(3)
C9_3 C 0.9128(12) 0.5661(7) 0.3935(4)
C11_3 C 0.8004(10) 0.8823(6) 0.7496(4)
H6_3 H 0.7546 0.8056 0.7427
C12_3 C 0.8352(10) 0.5023(7) 0.1483(4)
C13_3 C 0.9380(10) 0.4357(7) 0.2740(4)
H7_3 H 0.9870 0.3760 0.3056
C14_3 C 0.8727(11) 0.8839(7) 0.6055(4)
O4_3 O 0.9175(8) 0.9446(5) 0.5464(3)
H8_3 H 0.939(7) 0.326(5) 0.169(3)
N3_2 N 0.6988(10) 0.5194(6) 0.5644(3)
H10_3 H 0.870786 0.522501 0.021167
C4_4 C 0.7004(11) 0.0649(7) 0.3248(5)
H2_4 H 0.7449 0.1074 0.3679
C5_4 C 0.6311(10) 0.0563(7) 0.1855(4)
O3_4 O 0.6773(9) 0.2231(5) 0.1021(3)
C11_4 C 0.6996(10) 0.1177(6) 0.2496(4)
H6_4 H 0.7454 0.1944 0.2427
C14_4 C 0.6273(11) 0.1161(7) 0.1055(4)
O4_4 O 0.5825(8) 0.0554(5) 0.0464(3)
O1_4 O 0.6336(7) 0.3322(5) 0.9233(3)
C1_4 C 0.5856(12) 0.5850(6) 0.6935(4)
C2_4 C 0.6843(10) 0.3677(7) 0.7616(4)
H1_4 H 0.7166 0.2948 0.7841
O2_4 O 0.5228(8) 0.5135(5) 0.9381(3)
C3_4 C 0.6107(11) 0.4550(6) 0.8082(4)
C7_4 C 0.7111(11) 0.3870(7) 0.6810(4)
H4_4 H 0.7593 0.3270 0.6495
C9_4 C 0.5872(12) 0.4339(7) 0.8935(4)
C12_4 C 0.6648(10) 0.4977(7) 0.6483(4)
C13_4 C 0.5620(10) 0.5643(7) 0.7740(4)
H7_4 H 0.5130 0.6240 0.8056
H8_4 H 0.561(7) 0.674(5) 0.669(3)
H10_4 H 0.629214 0.477499 0.521167
C6_4 C 0.5626(10) 0.9429(7) 0.1976(4)
H3_4 H 0.5158 0.9008 0.1549
C8_4 C 0.6354(10) 0.9502(7) 0.3358(4)
C10_4 C 0.5622(10) 0.8901(7) 0.2727(4)
H5_4 H 0.5126 0.8146 0.2800
H9_4 H 0.757925 0.868999 0.439671
loop_
_geom_bond_atom_site_label_1
_geom_bond_atom_site_label_2
_geom_bond_site_symmetry_1
_geom_bond_site_symmetry_2
O1 C9 1_555 1_555
C2 H1 1_555 1_555
C3 C2 1_555 1_555
C7 C2 1_555 1_555
H4 C7 1_555 1_555
C12 C7 1_555 1_555
C3 C9 1_555 1_555
C4 H2 1_555 1_555
C5 C6 1_555 1_555
C6 H3 1_555 1_555
O3 Zn1 1_555 1_555
C8 C4 1_555 1_555
N2 C8 1_555 1_555
C10 C6 1_555 1_555
H5 C10 1_555 1_555
C11 C4 1_555 1_555
H6 C11 1_555 1_555
C14 C5 1_555 1_555
O4 C14 1_555 1_555
N3 Zn1 1_555 1_555
C5 C11 1_555 1_555
O3 C14 1_555 1_555
C8 C10 1_555 1_555
N2 H9 1_555 1_555
C13 C1 1_555 1_555
H7 C13 1_555 1_555
H8 C1 1_555 1_555
C13_2 C1_2 1_555 1_555
H7_2 C13_2 1_555 1_555
H8_2 C1_2 1_555 1_555
Zn2 N1 1_555 1_555
Zn2 O1_2 1_555 1_555
O1_2 C9_2 1_555 1_555
C2_2 H1_2 1_555 1_555
C3_2 C2_2 1_555 1_555
C4_2 H2_2 1_555 1_555
C5_2 C6_2 1_555 1_555
C6_2 H3_2 1_555 1_555
C7_2 C2_2 1_555 1_555
H4_2 C7_2 1_555 1_555
O3_2 Zn2 1_555 1_555
C8_2 C4_2 1_555 1_555
N2_2 C8_2 1_555 1_555
C10_2 C6_2 1_555 1_555
H5_2 C10_2 1_555 1_555
C11_2 C4_2 1_555 1_555
H6_2 C11_2 1_555 1_555
C12_2 C7_2 1_555 1_555
C14_2 C5_2 1_555 1_555
O4_2 C14_2 1_555 1_555
Zn3_2 N2_2 1_555 1_555
N4_2 Zn2 1_555 1_555
C3_2 C9_2 1_555 1_555
C5_2 C11_2 1_555 1_555
O3_2 C14_2 1_555 1_555
C8_2 C10_2 1_555 1_555
N2_2 H9_2 1_555 1_555
C6_3 H3_3 1_555 1_555
N4 C8_3 1_555 1_555
C10_3 C6_3 1_555 1_555
H5_3 C10_3 1_555 1_555
C8_3 C10_3 1_555 1_555
N4 H9_3 1_555 1_555
Zn3 O1_3 1_555 1_555
O1_3 C9_3 1_555 1_555
C1_3 C12_3 1_555 1_555
C2_3 H1_3 1_555 1_555
O2_3 Zn3 1_555 1_555
C3_3 C2_3 1_555 1_555
C4_3 H2_3 1_555 1_555
N1_2 C12_3 1_555 1_555
C7_3 C2_3 1_555 1_555
H4_3 C7_3 1_555 1_555
O3_3 Zn3 1_555 1_555
C9_3 O2_3 1_555 1_555
C11_3 C4_3 1_555 1_555
H6_3 C11_3 1_555 1_555
C12_3 C7_3 1_555 1_555
C13_3 C1_3 1_555 1_555
H7_3 C13_3 1_555 1_555
C14_3 C5_3 1_555 1_555
O4_3 C14_3 1_555 1_555
H8_3 C1_3 1_555 1_555
Zn3_2 N1_2 1_555 1_555
N3_2 Zn3 1_555 1_555
C3_3 C9_3 1_555 1_555
C3_3 C13_3 1_555 1_555
C5_3 C11_3 1_555 1_555
O3_3 C14_3 1_555 1_555
N1_2 H10_3 1_555 1_555
C4_4 H2_4 1_555 1_555
O3_4 Zn3_2 1_555 1_555
C11_4 C4_4 1_555 1_555
H6_4 C11_4 1_555 1_555
C14_4 C5_4 1_555 1_555
O4_4 C14_4 1_555 1_555
C5_4 C11_4 1_555 1_555
O3_4 C14_4 1_555 1_555
O1_4 C9_4 1_555 1_555
C1_4 C12_4 1_555 1_555
C2_4 H1_4 1_555 1_555
C3_4 C2_4 1_555 1_555
N3_2 C12_4 1_555 1_555
C7_4 C2_4 1_555 1_555
H4_4 C7_4 1_555 1_555
C9_4 O2_4 1_555 1_555
C12_4 C7_4 1_555 1_555
C13_4 C1_4 1_555 1_555
H7_4 C13_4 1_555 1_555
H8_4 C1_4 1_555 1_555
C3_4 C9_4 1_555 1_555
C3_4 C13_4 1_555 1_555
N3_2 H10_4 1_555 1_555
C6_4 H3_4 1_555 1_555
N4_2 C8_4 1_555 1_555
C10_4 C6_4 1_555 1_555
H5_4 C10_4 1_555 1_555
C8_4 C10_4 1_555 1_555
N4_2 H9_4 1_555 1_555

#END
