
###############################################################################
#
# This file contains modified crystal structure data generated from the
# MOF subset of the Cambridge Structural Database (CSD) v543 
# hosted by the Cambridge Crystallographic Data Centre (CCDC).
#
# This work is licensed under the Creative Commons
# Attribution-NonCommercial-ShareAlike 4.0 International License.
# To view a copy of this license, visit
# http://creativecommons.org/licenses/by-nc-sa/4.0/
# or send a letter to
# Creative Commons, PO Box 1866, Mountain View, CA 94042, USA.
#
# CIF created using the CSD Python API on 29 September 2022
# The structure has been converted into the P1 space group
# The structure has a 3D framework
# The original CSD entry RURPEA is in the monoclinic crystal system
# The framework has been calculated to contain at least 10.0% void space
# The void calculation uses a probe of radius 1.32A, grid spacing 0.4
#
###############################################################################

data_RURPEA
_chemical_formula_moiety         '(C8 H4 Fe1 N6 Pt8)n'
_symmetry_cell_setting           triclinic
_symmetry_space_group_name_H-M   'P 1'
_symmetry_Int_Tables_number      1
_space_group_name_Hall           'P 1'
loop_
_symmetry_equiv_pos_site_id
_symmetry_equiv_pos_as_xyz
1 x,y,z
_cell_length_a                   7.2810(7)
_cell_length_b                   7.4600(11)
_cell_length_c                   7.4410(10)
_cell_angle_alpha                90
_cell_angle_beta                 95.814(8)
_cell_angle_gamma                90
_cell_volume                     402.088
loop_
_atom_site_label
_atom_site_type_symbol
_atom_site_fract_x
_atom_site_fract_y
_atom_site_fract_z
Fe2 Fe 0.0000 0.5000 0.5000
Pt1 Pt 0.0000 0.0000 0.0000
Pt1_2 Pt -0.0000 0.0000 1.0000
N1 N 0.3103(19) 0.5000 0.511(2)
N2 N 0.0095(14) 0.2953(16) 0.7000(15)
C1 C 0.4040(16) 0.347(3) 0.505(2)
H1 H 0.3416 0.2388 0.5088
C2 C 0.0086(18) 0.189(2) 0.8110(17)
Fe2_2 Fe 1.0000 0.5000 0.5000
N3 N 0.6897(19) 0.5000 0.489(2)
N8 N 0.0095(14) 0.7047(16) 0.7000(15)
C3 C 0.5960(16) 0.347(3) 0.495(2)
C4 C 0.5960(16) 0.653(3) 0.495(2)
C5 C 0.4040(16) 0.653(3) 0.505(2)
H2 H 0.6584 0.7612 0.4912
H3 H 0.3416 0.7612 0.5088
H4 H 0.6584 0.2388 0.4912
Pt1_3 Pt 0.0000 1.0000 0.0000
Pt1_4 Pt -0.0000 1.0000 1.0000
C7 C 0.0086(18) 0.811(2) 0.8110(17)
Pt1_5 Pt 1.0000 0.0000 0.0000
N5 N 0.9905(14) 0.2953(16) 0.3000(15)
C6 C 0.9914(18) 0.189(2) 0.1890(17)
Pt1_6 Pt 1.0000 0.0000 1.0000
N9 N 0.9905(14) 0.7047(16) 0.3000(15)
Pt1_7 Pt 1.0000 1.0000 0.0000
C8 C 0.9914(18) 0.811(2) 0.1890(17)
Pt1_8 Pt 1.0000 1.0000 1.0000
loop_
_geom_bond_atom_site_label_1
_geom_bond_atom_site_label_2
_geom_bond_site_symmetry_1
_geom_bond_site_symmetry_2
Pt1_2 C2 1_555 1_555
Fe2 N1 1_555 1_555
N1 C1 1_555 1_555
N2 Fe2 1_555 1_555
C1 H1 1_555 1_555
C2 N2 1_555 1_555
Fe2_2 N3 1_555 1_555
N3 C3 1_555 1_555
N8 Fe2 1_555 1_555
C3 C1 1_555 1_555
C4 N3 1_555 1_555
C5 N1 1_555 1_555
H2 C4 1_555 1_555
H3 C5 1_555 1_555
H4 C3 1_555 1_555
C4 C5 1_555 1_555
N8 C7 1_555 1_555
C7 Pt1_4 1_555 1_555
Fe2_2 N5 1_555 1_555
N5 C6 1_555 1_555
C6 Pt1_5 1_555 1_555
N9 Fe2_2 1_555 1_555
N9 C8 1_555 1_555
C8 Pt1_7 1_555 1_555

#END
