
###############################################################################
#
# This file contains modified crystal structure data generated from the
# MOF subset of the Cambridge Structural Database (CSD) v543 
# hosted by the Cambridge Crystallographic Data Centre (CCDC).
#
# This work is licensed under the Creative Commons
# Attribution-NonCommercial-ShareAlike 4.0 International License.
# To view a copy of this license, visit
# http://creativecommons.org/licenses/by-nc-sa/4.0/
# or send a letter to
# Creative Commons, PO Box 1866, Mountain View, CA 94042, USA.
#
# CIF created using the CSD Python API on 29 September 2022
# The structure has been converted into the P1 space group
# The structure has a 3D framework
# The original CSD entry RURPAW is in the orthorhombic crystal system
# The framework has been calculated to contain at least 10.0% void space
# The void calculation uses a probe of radius 1.32A, grid spacing 0.4
#
###############################################################################

data_RURPAW
_chemical_formula_moiety         '(C12 H8 Fe4 N12 Pt1)n'
_symmetry_cell_setting           triclinic
_symmetry_space_group_name_H-M   'P 1'
_symmetry_Int_Tables_number      1
_space_group_name_Hall           'P 1'
loop_
_symmetry_equiv_pos_site_id
_symmetry_equiv_pos_as_xyz
1 x,y,z
_cell_length_a                   6.737(5)
_cell_length_b                   7.122(5)
_cell_length_c                   7.175(6)
_cell_angle_alpha                90
_cell_angle_beta                 90
_cell_angle_gamma                90
_cell_volume                     344.263
loop_
_atom_site_label
_atom_site_type_symbol
_atom_site_fract_x
_atom_site_fract_y
_atom_site_fract_z
Fe2 Fe 0.5000 0.0000 0.0000
Fe2_2 Fe 0.5000 0.0000 1.0000
N2 N 0.2074(14) 0.0000 0.0000
Fe2_3 Fe 0.5000 1.0000 0.0000
N8 N 0.5000 0.1913(12) 0.1899(10)
N9 N 0.7926(14) 0.0000 0.0000
C6 C 0.1020(14) 0.1592(14) 0.0000
H2 H 0.1704 0.2758 0.0000
Pt1 Pt 0.5000 0.5000 0.5000
N1 N 0.5000 0.1913(12) 0.8101(10)
N2_2 N 0.2074(14) 0.0000 1.0000
C1 C 0.5000 0.3037(13) 0.6952(12)
Fe2_4 Fe 0.5000 1.0000 1.0000
N3 N 0.5000 0.8087(12) 0.8101(10)
N4 N 0.5000 0.8087(12) 0.1899(10)
N9_2 N 0.7926(14) 0.0000 1.0000
C3 C 0.5000 0.6963(13) 0.6952(12)
C4 C 0.5000 0.6963(13) 0.3048(12)
C5 C 0.5000 0.3037(13) 0.3048(12)
C6_2 C 0.1020(14) 0.1592(14) 1.0000
H2_2 H 0.1704 0.2758 1.0000
N2_3 N 0.2074(14) 1.0000 0.0000
C2 C 0.1020(14) 0.8408(14) 0.0000
H1 H 0.1704 0.7242 0.0000
N9_3 N 0.7926(14) 1.0000 0.0000
N2_4 N 0.2074(14) 1.0000 1.0000
C2_2 C 0.1020(14) 0.8408(14) 1.0000
H1_2 H 0.1704 0.7242 1.0000
N9_4 N 0.7926(14) 1.0000 1.0000
C8 C 0.8980(14) 0.1592(14) 0.0000
H4 H 0.8296 0.2758 0.0000
C8_2 C 0.8980(14) 0.1592(14) 1.0000
H4_2 H 0.8296 0.2758 1.0000
C7 C 0.8980(14) 0.8408(14) 0.0000
H3 H 0.8296 0.7242 0.0000
C7_2 C 0.8980(14) 0.8408(14) 1.0000
H3_2 H 0.8296 0.7242 1.0000
loop_
_geom_bond_atom_site_label_1
_geom_bond_atom_site_label_2
_geom_bond_site_symmetry_1
_geom_bond_site_symmetry_2
N2 Fe2 1_555 1_555
N8 Fe2 1_555 1_555
N9 Fe2 1_555 1_555
C6 N2 1_555 1_555
H2 C6 1_555 1_555
Pt1 C1 1_555 1_555
Fe2_2 N1 1_555 1_555
N1 C1 1_555 1_555
N2_2 Fe2_2 1_555 1_555
Fe2_4 N3 1_555 1_555
Fe2_3 N4 1_555 1_555
N3 C3 1_555 1_555
N4 C4 1_555 1_555
N8 C5 1_555 1_555
N9_2 Fe2_2 1_555 1_555
C3 Pt1 1_555 1_555
C4 Pt1 1_555 1_555
C5 Pt1 1_555 1_555
C6_2 N2_2 1_555 1_555
H2_2 C6_2 1_555 1_555
N2_3 Fe2_3 1_555 1_555
C2 N2_3 1_555 1_555
H1 C2 1_555 1_555
N9_3 Fe2_3 1_555 1_555
N2_4 Fe2_4 1_555 1_555
C2_2 N2_4 1_555 1_555
H1_2 C2_2 1_555 1_555
N9_4 Fe2_4 1_555 1_555
C8 N9 1_555 1_555
H4 C8 1_555 1_555
C8_2 N9_2 1_555 1_555
H4_2 C8_2 1_555 1_555
N9_3 C7 1_555 1_555
H3 C7 1_555 1_555
N9_4 C7_2 1_555 1_555
H3_2 C7_2 1_555 1_555

#END
