
###############################################################################
#
# This file contains modified crystal structure data generated from the
# MOF subset of the Cambridge Structural Database (CSD) v543 
# hosted by the Cambridge Crystallographic Data Centre (CCDC).
#
# This work is licensed under the Creative Commons
# Attribution-NonCommercial-ShareAlike 4.0 International License.
# To view a copy of this license, visit
# http://creativecommons.org/licenses/by-nc-sa/4.0/
# or send a letter to
# Creative Commons, PO Box 1866, Mountain View, CA 94042, USA.
#
# CIF created using the CSD Python API on 29 September 2022
# The structure has been converted into the P1 space group
# The structure has a 3D framework
# The original CSD entry RUSSAA is in the monoclinic crystal system
# The framework has been calculated to contain at least 10.0% void space
# The void calculation uses a probe of radius 1.32A, grid spacing 0.4
#
###############################################################################

data_RUSSAA
_chemical_formula_moiety         '(C64 H40 Cd4 Co4 N20 O22)n'
_symmetry_cell_setting           triclinic
_symmetry_space_group_name_H-M   'P 1'
_symmetry_Int_Tables_number      1
_space_group_name_Hall           'P 1'
loop_
_symmetry_equiv_pos_site_id
_symmetry_equiv_pos_as_xyz
1 x,y,z
_cell_length_a                   11.152(4)
_cell_length_b                   6.958(2)
_cell_length_c                   26.118(9)
_cell_angle_alpha                90
_cell_angle_beta                 97.896(7)
_cell_angle_gamma                90
_cell_volume                     2007.43
loop_
_atom_site_label
_atom_site_type_symbol
_atom_site_fract_x
_atom_site_fract_y
_atom_site_fract_z
Cd2 Cd 0.37005(2) 0.16761(3) 0.126393(8)
N7 N 0.6024(2) 0.0751(4) 0.31274(10)
O9 O 0.42587(18) 0.1659(3) 0.21560(8)
Co1 Co 0.50424(3) 0.91769(6) 0.249800(14)
N1 N 0.3561(2) 0.5099(4) 0.13948(10)
N2 N 0.4104(2) 0.7608(4) 0.18599(9)
N3 N 0.3794(2) 0.8242(4) 0.13764(10)
C1 C 0.3463(3) 0.6665(4) 0.10972(12)
N4 N 0.3976(2) 0.5751(4) 0.18726(10)
C2 C 0.3931(3) 0.7166(4) 0.02107(12)
H1 H 0.4692 0.7602 0.0353
C6 C 0.3097(3) 0.6634(4) 0.05332(12)
O3 O 0.1617(2) 0.1138(4) 0.17297(11)
O4 O 0.1784(2) 0.1215(4) 0.08951(10)
C11 C 0.1961(3) 0.5995(5) 0.03200(13)
H5 H 0.1401 0.5622 0.0534
C14 C 0.1197(3) 0.0885(5) 0.12618(15)
O6 O 0.3579(2) 0.9102(4) 0.29317(10)
H7 H 0.374(3) 0.855(5) 0.3223(8)
H8 H 0.2895(19) 0.865(5) 0.2808(13)
Co2 Co 0.49576(3) 0.41769(6) 0.250200(14)
O7 O 0.5713(2) 0.2424(4) 0.11430(9)
O8 O 0.4381(2) 0.1979(4) 0.04587(9)
N8 N 0.6527(2) 0.9304(4) 0.20516(11)
O10 O 0.57413(18) 0.6659(3) 0.28440(8)
O1 O 0.4287(2) 0.7576(4) 0.88570(9)
O2 O 0.5619(2) 0.8021(4) 0.95413(9)
C5 C 0.3642(3) 0.7053(5) 0.96797(12)
C7 C 0.4574(3) 0.7579(5) 0.93423(13)
C8 C 0.2500(3) 0.6428(5) 0.94684(13)
H3 H 0.2295 0.6353 0.9112
C12 C 0.1664(3) 0.5915(6) 0.97919(14)
H6 H 0.0895 0.5512 0.9650
Cd3 Cd 0.62995(2) 0.83239(3) 0.873607(8)
H10 H 0.0066 0.9468 0.0393
C9 C 0.7598(3) 0.8685(5) 0.08698(15)
H4 H 0.6819 0.8201 0.0785
C10 C 0.7987(3) 0.9334(5) 0.13655(13)
C13 C 0.7174(3) 0.9308(5) 0.17497(13)
C15 C 0.8371(3) 0.8759(6) 0.05023(15)
H9 H 0.8114 0.8351 0.0166
C16 C 0.9537(3) 0.9449(5) 0.06391(14)
C3 C 0.0069(3) 0.5109(5) 0.38683(13)
C4 C 0.0850(3) 0.5051(5) 0.35015(13)
H2 H 0.0598 0.5489 0.3168
C9_2 C 0.2402(3) 0.3685(5) 0.41302(15)
H4_2 H 0.3181 0.3201 0.4215
C10_2 C 0.2013(3) 0.4334(5) 0.36345(13)
C13_2 C 0.2826(3) 0.4308(5) 0.32503(13)
N5 N 0.3473(2) 0.4304(4) 0.29484(11)
C15_2 C 0.1629(3) 0.3759(6) 0.44977(15)
H9_2 H 0.1886 0.3351 0.4834
C16_2 C 0.0463(3) 0.4449(5) 0.43609(14)
N1_2 N 0.6439(2) 0.0099(4) 0.36052(10)
N2_2 N 0.5896(2) 0.2608(4) 0.31401(9)
N3_2 N 0.6206(2) 0.3242(4) 0.36236(10)
C1_2 C 0.6537(3) 0.1665(4) 0.39028(12)
O1_2 O 0.5713(2) 0.2576(4) 0.61430(9)
O2_2 O 0.4381(2) 0.3021(4) 0.54587(9)
C2_2 C 0.6069(3) 0.2166(4) 0.47893(12)
H1_2 H 0.5308 0.2602 0.4647
C5_2 C 0.6358(3) 0.2053(5) 0.53203(12)
C6_2 C 0.6903(3) 0.1634(4) 0.44668(12)
C7_2 C 0.5426(3) 0.2579(5) 0.56577(13)
C8_2 C 0.7500(3) 0.1428(5) 0.55316(13)
H3_2 H 0.7705 0.1353 0.5888
C11_2 C 0.8039(3) 0.0995(5) 0.46800(13)
H5_2 H 0.8599 0.0622 0.4466
C12_2 C 0.8336(3) 0.0915(6) 0.52081(14)
H6_2 H 0.9105 0.0512 0.5350
O6_2 O 0.6421(2) 0.4102(4) 0.20683(10)
H7_2 H 0.626(3) 0.355(5) 0.1777(8)
H8_2 H 0.7105(19) 0.365(5) 0.2192(13)
Cd2_2 Cd 0.62995(2) 0.66761(3) 0.373607(8)
Cd3_2 Cd 0.37005(2) 0.33239(3) 0.626393(8)
O3_2 O 0.8383(2) 0.6138(4) 0.32703(11)
O4_2 O 0.8216(2) 0.6215(4) 0.41049(10)
C14_2 C 0.8803(3) 0.5885(5) 0.37382(15)
H10_2 H 0.9934 0.4468 0.4607
O7_2 O 0.4287(2) 0.7424(4) 0.38570(9)
O8_2 O 0.5619(2) 0.6979(4) 0.45413(9)
C9_3 C 0.2402(3) 0.1315(5) 0.91302(15)
H4_3 H 0.3181 0.1799 0.9215
C10_3 C 0.2013(3) 0.0666(5) 0.86345(13)
C13_3 C 0.2826(3) 0.0692(5) 0.82503(13)
N5_2 N 0.3473(2) 0.0696(4) 0.79484(11)
C15_3 C 0.1629(3) 0.1241(6) 0.94977(15)
H9_3 H 0.1886 0.1649 0.9834
C16_3 C 0.0463(3) 0.0551(5) 0.93609(14)
Co3 Co 0.49576(3) 0.08231(6) 0.750200(14)
H10_3 H 0.9934 0.0532 0.9607
N6 N 0.6206(2) 0.1758(4) 0.86236(10)
C5_3 C 0.6358(3) 0.2947(5) 0.03203(12)
C7_3 C 0.5426(3) 0.2421(5) 0.06577(13)
C8_3 C 0.7500(3) 0.3572(5) 0.05316(13)
H3_3 H 0.7705 0.3647 0.0888
C12_3 C 0.8336(3) 0.4085(6) 0.02081(14)
H6_3 H 0.9105 0.4488 0.0350
N1_3 N 0.6439(2) 0.4901(4) 0.86052(10)
N2_3 N 0.5896(2) 0.2392(4) 0.81401(9)
C1_3 C 0.6537(3) 0.3335(4) 0.89028(12)
N4_2 N 0.6024(2) 0.4249(4) 0.81274(10)
C2_3 C 0.6069(3) 0.2834(4) 0.97893(12)
H1_3 H 0.5308 0.2398 0.9647
C6_3 C 0.6903(3) 0.3366(4) 0.94668(12)
O3_3 O 0.8383(2) 0.8862(4) 0.82703(11)
O4_3 O 0.8216(2) 0.8785(4) 0.91049(10)
C11_3 C 0.8039(3) 0.4005(5) 0.96800(13)
H5_3 H 0.8599 0.4378 0.9466
C14_3 C 0.8803(3) 0.9115(5) 0.87382(15)
O5 O 0.57413(18) 0.8341(3) 0.78440(8)
O6_3 O 0.6421(2) 0.0898(4) 0.70683(10)
H7_3 H 0.626(3) 0.145(5) 0.6777(8)
H8_3 H 0.7105(19) 0.135(5) 0.7192(13)
Co2_2 Co 0.50424(3) 0.58231(6) 0.749800(14)
O10_2 O 0.42587(18) 0.3341(3) 0.71560(8)
N7_2 N 0.3976(2) 0.9249(4) 0.68726(10)
O3_4 O 0.1617(2) 0.3862(4) 0.67297(11)
O4_4 O 0.1784(2) 0.3785(4) 0.58951(10)
C14_4 C 0.1197(3) 0.4115(5) 0.62618(15)
H10_4 H 0.0066 0.5532 0.5393
N6_2 N 0.3794(2) 0.6758(4) 0.63764(10)
N1_4 N 0.3561(2) 0.9901(4) 0.63948(10)
N2_4 N 0.4104(2) 0.7392(4) 0.68599(9)
C1_4 C 0.3463(3) 0.8335(4) 0.60972(12)
C2_4 C 0.3931(3) 0.7834(4) 0.52107(12)
H1_4 H 0.4692 0.7398 0.5353
C5_4 C 0.3642(3) 0.7947(5) 0.46797(12)
C6_4 C 0.3097(3) 0.8366(4) 0.55332(12)
C7_4 C 0.4574(3) 0.7421(5) 0.43423(13)
C8_4 C 0.2500(3) 0.8572(5) 0.44684(13)
H3_4 H 0.2295 0.8647 0.4112
C11_4 C 0.1961(3) 0.9005(5) 0.53200(13)
H5_4 H 0.1401 0.9378 0.5534
C12_4 C 0.1664(3) 0.9085(6) 0.47919(14)
H6_4 H 0.0895 0.9488 0.4650
O6_4 O 0.3579(2) 0.5898(4) 0.79317(10)
H7_4 H 0.374(3) 0.645(5) 0.8223(8)
H8_4 H 0.2895(19) 0.635(5) 0.7808(13)
N8_2 N 0.6527(2) 0.5696(4) 0.70516(11)
C3_2 C 0.9931(3) 0.4891(5) 0.61317(13)
C4_2 C 0.9150(3) 0.4949(5) 0.64985(13)
H2_2 H 0.9402 0.4511 0.6832
C9_4 C 0.7598(3) 0.6315(5) 0.58698(15)
H4_4 H 0.6819 0.6799 0.5785
C10_4 C 0.7987(3) 0.5666(5) 0.63655(13)
C13_4 C 0.7174(3) 0.5692(5) 0.67497(13)
C15_4 C 0.8371(3) 0.6241(6) 0.55023(15)
H9_4 H 0.8114 0.6649 0.5166
C16_4 C 0.9537(3) 0.5551(5) 0.56391(14)
C3_3 C 0.9931(3) 0.0109(5) 0.11317(13)
C4_3 C 0.9150(3) 0.0051(5) 0.14985(13)
H2_3 H 0.9402 0.0489 0.1832
C3_4 C 0.0069(3) 0.9891(5) 0.88683(13)
C4_4 C 0.0850(3) 0.9949(5) 0.85015(13)
H2_4 H 0.0598 0.9511 0.8168
loop_
_geom_bond_atom_site_label_1
_geom_bond_atom_site_label_2
_geom_bond_site_symmetry_1
_geom_bond_site_symmetry_2
Cd2 O9 1_555 1_555
Cd2 N1 1_555 1_555
Co1 N2 1_555 1_555
N1 C1 1_555 1_555
N2 N3 1_555 1_555
N3 C1 1_555 1_555
C1 C6 1_555 1_555
N4 N1 1_555 1_555
C2 H1 1_555 1_555
C6 C2 1_555 1_555
O3 C14 1_555 1_555
O4 Cd2 1_555 1_555
C11 C6 1_555 1_555
H5 C11 1_555 1_555
O6 Co1 1_555 1_555
H7 O6 1_555 1_555
H8 O6 1_555 1_555
Co2 N4 1_555 1_555
O7 Cd2 1_555 1_555
O8 Cd2 1_555 1_555
N8 Co1 1_555 1_555
O10 Co1 1_555 1_555
N2 N4 1_555 1_555
O4 C14 1_555 1_555
O9 Co2 1_555 1_555
Co2 O10 1_555 1_555
O1 C7 1_555 1_555
O2 C7 1_555 1_555
C7 C5 1_555 1_555
C8 C5 1_555 1_555
H3 C8 1_555 1_555
C12 C8 1_555 1_555
H6 C12 1_555 1_555
Cd3 O1 1_555 1_555
O2 Cd3 1_555 1_555
C9 H4 1_555 1_555
C13 C10 1_555 1_555
N8 C13 1_555 1_555
C15 C9 1_555 1_555
H9 C15 1_555 1_555
C9 C10 1_555 1_555
C15 C16 1_555 1_555
C3 C4 1_555 1_555
C4 H2 1_555 1_555
C9_2 H4_2 1_555 1_555
C10_2 C4 1_555 1_555
C13_2 C10_2 1_555 1_555
N5 C13_2 1_555 1_555
C15_2 C9_2 1_555 1_555
H9_2 C15_2 1_555 1_555
C16_2 C3 1_555 1_555
Co2 N5 1_555 1_555
C9_2 C10_2 1_555 1_555
C15_2 C16_2 1_555 1_555
Co2 N2_2 1_555 1_555
N1_2 C1_2 1_555 1_555
N2_2 N3_2 1_555 1_555
N3_2 C1_2 1_555 1_555
C1_2 C6_2 1_555 1_555
N7 N1_2 1_555 1_555
O1_2 C7_2 1_555 1_555
O2_2 C7_2 1_555 1_555
C2_2 H1_2 1_555 1_555
C5_2 C2_2 1_555 1_555
C6_2 C2_2 1_555 1_555
C7_2 C5_2 1_555 1_555
C8_2 C5_2 1_555 1_555
H3_2 C8_2 1_555 1_555
C11_2 C6_2 1_555 1_555
H5_2 C11_2 1_555 1_555
C12_2 C8_2 1_555 1_555
H6_2 C12_2 1_555 1_555
O6_2 Co2 1_555 1_555
H7_2 O6_2 1_555 1_555
H8_2 O6_2 1_555 1_555
Cd2_2 N3_2 1_555 1_555
Cd3_2 O1_2 1_555 1_555
N2_2 N7 1_555 1_555
O2_2 Cd3_2 1_555 1_555
C11_2 C12_2 1_555 1_555
Cd2_2 O10 1_555 1_555
O3_2 C14_2 1_555 1_555
O4_2 Cd2_2 1_555 1_555
O7_2 Cd2_2 1_555 1_555
O8_2 Cd2_2 1_555 1_555
O4_2 C14_2 1_555 1_555
C9_3 H4_3 1_555 1_555
C13_3 C10_3 1_555 1_555
N5_2 C13_3 1_555 1_555
C15_3 C9_3 1_555 1_555
H9_3 C15_3 1_555 1_555
Co3 N5_2 1_555 1_555
C9_3 C10_3 1_555 1_555
C15_3 C16_3 1_555 1_555
O7 C7_3 1_555 1_555
O8 C7_3 1_555 1_555
C7_3 C5_3 1_555 1_555
C8_3 C5_3 1_555 1_555
H3_3 C8_3 1_555 1_555
C12_3 C8_3 1_555 1_555
H6_3 C12_3 1_555 1_555
Cd3 N1_3 1_555 1_555
Co3 N2_3 1_555 1_555
N1_3 C1_3 1_555 1_555
N2_3 N6 1_555 1_555
N6 C1_3 1_555 1_555
C1_3 C6_3 1_555 1_555
N4_2 N1_3 1_555 1_555
C2_3 H1_3 1_555 1_555
C6_3 C2_3 1_555 1_555
O3_3 C14_3 1_555 1_555
O4_3 Cd3 1_555 1_555
C11_3 C6_3 1_555 1_555
H5_3 C11_3 1_555 1_555
O5 Cd3 1_555 1_555
O6_3 Co3 1_555 1_555
H7_3 O6_3 1_555 1_555
H8_3 O6_3 1_555 1_555
Co2_2 N4_2 1_555 1_555
O10_2 Co3 1_555 1_555
N2_3 N4_2 1_555 1_555
O4_3 C14_3 1_555 1_555
O5 Co2_2 1_555 1_555
Co2_2 O10_2 1_555 1_555
O3_4 C14_4 1_555 1_555
O4_4 Cd3_2 1_555 1_555
O10_2 Cd3_2 1_555 1_555
N6_2 Cd3_2 1_555 1_555
O4_4 C14_4 1_555 1_555
Co2_2 N2_4 1_555 1_555
N1_4 C1_4 1_555 1_555
N2_4 N6_2 1_555 1_555
N6_2 C1_4 1_555 1_555
C1_4 C6_4 1_555 1_555
N7_2 N1_4 1_555 1_555
O7_2 C7_4 1_555 1_555
O8_2 C7_4 1_555 1_555
C2_4 H1_4 1_555 1_555
C5_4 C2_4 1_555 1_555
C6_4 C2_4 1_555 1_555
C7_4 C5_4 1_555 1_555
C8_4 C5_4 1_555 1_555
H3_4 C8_4 1_555 1_555
C11_4 C6_4 1_555 1_555
H5_4 C11_4 1_555 1_555
C12_4 C8_4 1_555 1_555
H6_4 C12_4 1_555 1_555
O6_4 Co2_2 1_555 1_555
H7_4 O6_4 1_555 1_555
H8_4 O6_4 1_555 1_555
N8_2 Co2_2 1_555 1_555
N2_4 N7_2 1_555 1_555
C11_4 C12_4 1_555 1_555
C3_2 C4_2 1_555 1_555
C4_2 H2_2 1_555 1_555
C9_4 H4_4 1_555 1_555
C10_4 C4_2 1_555 1_555
C13_4 C10_4 1_555 1_555
N8_2 C13_4 1_555 1_555
C15_4 C9_4 1_555 1_555
H9_4 C15_4 1_555 1_555
C16_4 C3_2 1_555 1_555
C9_4 C10_4 1_555 1_555
C15_4 C16_4 1_555 1_555
C3_3 C4_3 1_555 1_555
C4_3 H2_3 1_555 1_555
C3_4 C4_4 1_555 1_555
C4_4 H2_4 1_555 1_555

#END
