
###############################################################################
#
# This file contains modified crystal structure data generated from the
# MOF subset of the Cambridge Structural Database (CSD) v543 
# hosted by the Cambridge Crystallographic Data Centre (CCDC).
#
# This work is licensed under the Creative Commons
# Attribution-NonCommercial-ShareAlike 4.0 International License.
# To view a copy of this license, visit
# http://creativecommons.org/licenses/by-nc-sa/4.0/
# or send a letter to
# Creative Commons, PO Box 1866, Mountain View, CA 94042, USA.
#
# CIF created using the CSD Python API on 29 September 2022
# The structure has been converted into the P1 space group
# The structure has a 3D framework
# The original CSD entry RUSXEK is in the triclinic crystal system
# The framework has been calculated to contain at least 10.0% void space
# The void calculation uses a probe of radius 1.32A, grid spacing 0.4
#
###############################################################################

data_RUSXEK
_chemical_formula_moiety         '(C60 H52 N4 O16 Tb2)n'
_symmetry_cell_setting           triclinic
_symmetry_space_group_name_H-M   'P 1'
_symmetry_Int_Tables_number      1
_space_group_name_Hall           'P 1'
loop_
_symmetry_equiv_pos_site_id
_symmetry_equiv_pos_as_xyz
1 x,y,z
_cell_length_a                   10.468(5)
_cell_length_b                   11.356(5)
_cell_length_c                   13.089(6)
_cell_angle_alpha                107.539(5)
_cell_angle_beta                 90.086(6)
_cell_angle_gamma                92.356(6)
_cell_volume                     1482.21
loop_
_atom_site_label
_atom_site_type_symbol
_atom_site_fract_x
_atom_site_fract_y
_atom_site_fract_z
_atom_site_U_iso_or_equiv
_atom_site_thermal_displace_type
C23 C 0.1621(9) 0.0634(10) 0.5644(10) 0.0956 Uani
H22 H 0.0855 0.1037 0.5772 0.1150 Uiso
C26 C 0.2671(8) 0.1231(8) 0.5423(7) 0.0598 Uani
H25 H 0.2620 0.2042 0.5408 0.0720 Uiso
C29 C 0.3858(7) 0.0642(6) 0.5211(6) 0.0353 Uani
C39 C 0.4916(6) 0.2544(6) 0.4936(6) 0.0313 Uani
C40 C 0.4938(7) 0.1199(6) 0.4933(6) 0.0320 Uani
C41 C 0.6086(7) 0.0602(6) 0.4744(6) 0.0378 Uani
C42 C 0.7237(8) 0.1155(8) 0.4473(8) 0.0635 Uani
H31 H 0.7216 0.1946 0.4404 0.0760 Uiso
C43 C 0.8342(9) 0.0581(10) 0.4314(10) 0.0938 Uani
H32 H 0.9082 0.0986 0.4176 0.1130 Uiso
O11 O 0.5069(5) 0.3330(4) 0.5842(4) 0.0342 Uani
O12 O 0.4726(5) 0.2756(4) 0.4075(4) 0.0383 Uani
Tb4 Tb 0.48066(3) 0.45339(3) 0.33946(3) 0.0273 Uani
Tb7 Tb 0.51934(3) 0.54661(3) 0.66054(3) 0.0273 Uani
C1 C 0.4989(8) 0.2333(6) 0.1704(5) 0.0371 Uani
C2 C 0.5084(6) 0.7456(6) 0.5064(6) 0.0313 Uani
C3 C 0.2671(7) 0.4913(6) 0.5606(6) 0.0331 Uani
C4 C 0.5007(8) 0.1154(7) 0.0868(6) 0.0437 Uani
C5 C 0.5062(7) 0.8801(6) 0.5067(6) 0.0320 Uani
C6 C 0.1295(6) 0.4962(7) 0.5281(6) 0.0354 Uani
C7 C 0.5839(9) 0.6280(10) 0.1983(7) 0.0636 Uani
H1 H 0.5697 0.6903 0.2617 0.0770 Uiso
C8 C 0.1916(12) 0.4844(11) 0.2373(9) 0.0826 Uani
H2 H 0.1922 0.4047 0.1900 0.0990 Uiso
C9 C 0.4520(9) 0.0055(8) 0.1017(7) 0.0618 Uani
C10 C 0.3914(7) 0.9398(6) 0.5256(6) 0.0378 Uani
C11 C 0.0768(7) 0.4028(7) 0.4412(6) 0.0369 Uani
C12 C 0.4032(10) 0.0007(9) 0.2057(7) 0.0729 Uani
H3 H 0.4104 0.0716 0.2643 0.0880 Uiso
C13 C 0.2763(8) 0.8845(8) 0.5527(8) 0.0635 Uani
H4 H 0.2784 0.8054 0.5596 0.0760 Uiso
C14 C 0.1483(7) 0.3031(7) 0.3811(7) 0.0498 Uani
H5 H 0.2334 0.2990 0.4000 0.0600 Uiso
C15 C 0.6800(11) 0.5674(12) 0.0258(9) 0.1053 Uani
H6 H 0.6634 0.4867 0.0332 0.1580 Uiso
H7 H 0.7676 0.5755 0.0062 0.1580 Uiso
C16 C 0.0692(14) 0.6627(14) 0.3046(11) 0.1303 Uani
H9 H 0.1373 0.6844 0.3570 0.1960 Uiso
H11 H 0.0682 0.7224 0.2660 0.1960 Uiso
C18 C 0.1658(9) 0.9419(10) 0.5686(10) 0.0938 Uani
H13 H 0.0918 0.9014 0.5824 0.1130 Uiso
C19 C 0.0956(8) 0.2130(8) 0.2963(7) 0.0643 Uani
H14 H 0.1442 0.1479 0.2581 0.0770 Uiso
C20 C 0.7073(12) 0.7837(12) 0.1400(11) 0.1267 Uani
H15 H 0.6592 0.8413 0.1933 0.1900 Uiso
H16 H 0.7015 0.8024 0.0733 0.1900 Uiso
H17 H 0.7953 0.7900 0.1626 0.1900 Uiso
N1 N 0.6563(8) 0.6599(8) 0.1258(7) 0.0774 Uani
N2 N 0.0878(8) 0.5477(11) 0.2346(9) 0.0879 Uani
O1 O 0.3911(5) 0.2814(4) 0.1952(4) 0.0415 Uani
O2 O 0.4931(5) 0.6670(4) 0.4158(4) 0.0342 Uani
O3 O 0.3570(4) 0.5052(4) 0.5018(4) 0.0378 Uani
O4 O 0.5349(5) 0.5271(5) 0.1906(4) 0.0500 Uani
O5 O 0.2828(6) 0.5186(6) 0.2930(5) 0.0573 Uani
O6 O 0.5982(5) 0.2828(5) 0.2172(4) 0.0478 Uani
O7 O 0.5274(5) 0.7244(4) 0.5925(4) 0.0383 Uani
O8 O 0.2885(5) 0.4831(5) 0.6520(4) 0.0445 Uani
H30 H 0.6125 0.2922 0.0199 0.0960 Uiso
C44 C 0.8379(9) 0.9366(10) 0.4356(10) 0.0956 Uani
H33 H 0.9145 0.8963 0.4228 0.1150 Uiso
C45 C 0.7329(8) 0.8769(8) 0.4577(7) 0.0598 Uani
H34 H 0.7380 0.7958 0.4592 0.0720 Uiso
C46 C 0.6142(7) 0.9358(6) 0.4789(6) 0.0353 Uani
C52 C 0.0330(8) 0.7816(8) 0.7334(7) 0.0606 Uani
H37 H 0.0682 0.8425 0.7924 0.0730 Uiso
C53 C 0.1058(7) 0.6889(8) 0.6774(6) 0.0483 Uani
H38 H 0.1911 0.6881 0.6972 0.0580 Uiso
C54 C 0.0536(7) 0.5921(7) 0.5879(6) 0.0383 Uani
H45 H 0.0110 0.3384 0.6601 0.1960 Uiso
C60 C 0.0111(14) 0.5054(15) 0.8408(11) 0.1439 Uani
H50 H 0.0019 0.4754 0.9017 0.2160 Uiso
H51 H 0.0923 0.4829 0.8083 0.2160 Uiso
H52 H 0.0065 0.5937 0.8635 0.2160 Uiso
O20 O 0.6430(4) 0.4948(4) 0.4982(4) 0.0378 Uani
O25 O 0.7115(5) 0.5169(5) 0.3480(4) 0.0445 Uani
H24 H 0.3875 0.7078 0.9801 0.0960 Uiso
C31 C 0.5011(8) 0.7667(6) 0.8296(5) 0.0371 Uani
C32 C 0.4993(8) 0.8846(7) 0.9132(6) 0.0437 Uani
C33 C 0.5480(9) 0.9945(8) 0.8983(7) 0.0618 Uani
C34 C 0.5968(10) 0.9993(9) 0.7943(7) 0.0729 Uani
H27 H 0.5896 0.9284 0.7357 0.0880 Uiso
O9 O 0.6089(5) 0.7186(4) 0.8048(4) 0.0415 Uani
O10 O 0.4018(5) 0.7172(5) 0.7828(4) 0.0478 Uani
H10 H 0.9890 0.6616 0.3399 0.1960 Uiso
C21 C 0.9889(14) 0.4946(15) 0.1592(11) 0.1439 Uani
H18 H 0.9981 0.5246 0.0983 0.2160 Uiso
H19 H 0.9077 0.5171 0.1917 0.2160 Uiso
H20 H 0.9935 0.4063 0.1365 0.2160 Uiso
C24 C 0.9670(8) 0.2184(8) 0.2666(7) 0.0606 Uani
H23 H 0.9318 0.1575 0.2076 0.0730 Uiso
C27 C 0.8942(7) 0.3111(8) 0.3226(6) 0.0483 Uani
H26 H 0.8089 0.3119 0.3028 0.0580 Uiso
C30 C 0.9464(7) 0.4079(7) 0.4121(6) 0.0383 Uani
C47 C 0.7329(7) 0.5087(6) 0.4394(6) 0.0331 Uani
C48 C 0.8705(6) 0.5038(7) 0.4719(6) 0.0354 Uani
C49 C 0.9232(7) 0.5972(7) 0.5588(6) 0.0369 Uani
C50 C 0.8517(7) 0.6969(7) 0.6189(7) 0.0498 Uani
H35 H 0.7666 0.7010 0.6000 0.0600 Uiso
C51 C 0.9044(8) 0.7870(8) 0.7037(7) 0.0643 Uani
H36 H 0.8558 0.8521 0.7419 0.0770 Uiso
C55 C 0.4161(9) 0.3720(10) 0.8017(7) 0.0636 Uani
H39 H 0.4303 0.3097 0.7383 0.0770 Uiso
C56 C 0.8084(12) 0.5156(11) 0.7627(9) 0.0826 Uani
H40 H 0.8078 0.5953 0.8100 0.0990 Uiso
C57 C 0.3200(11) 0.4326(12) 0.9742(9) 0.1053 Uani
H41 H 0.3366 0.5133 0.9668 0.1580 Uiso
H42 H 0.2324 0.4245 0.9938 0.1580 Uiso
C58 C 0.9308(14) 0.3373(14) 0.6954(11) 0.1303 Uani
H44 H 0.8627 0.3156 0.6430 0.1960 Uiso
H46 H 0.9318 0.2776 0.7340 0.1960 Uiso
C59 C 0.2927(12) 0.2163(12) 0.8600(11) 0.1267 Uani
H47 H 0.3408 0.1587 0.8067 0.1900 Uiso
H48 H 0.2985 0.1976 0.9267 0.1900 Uiso
H49 H 0.2047 0.2100 0.8374 0.1900 Uiso
N3 N 0.3437(8) 0.3401(8) 0.8742(7) 0.0774 Uani
N4 N 0.9122(8) 0.4523(11) 0.7654(9) 0.0879 Uani
O15 O 0.4651(5) 0.4729(5) 0.8094(4) 0.0500 Uani
O16 O 0.7172(6) 0.4814(6) 0.7070(5) 0.0573 Uani
H8 H 0.6248 0.5785 0.9710 0.1580 Uiso
C35 C 0.6510(13) 0.1020(10) 0.7812(9) 0.1068 Uani
H28 H 0.6855 0.0996 0.7152 0.1280 Uiso
C36 C 0.6573(13) 0.2154(10) 0.8664(9) 0.1079 Uani
H29 H 0.6937 0.2868 0.8557 0.1290 Uiso
C37 C 0.6086(10) 0.2178(9) 0.9648(8) 0.0803 Uani
C38 C 0.5523(9) 0.1101(8) 0.9858(7) 0.0625 Uani
C17 C 0.3490(13) 0.8980(10) 0.2188(9) 0.1068 Uani
H12 H 0.3145 0.9004 0.2848 0.1280 Uiso
C22 C 0.3427(13) 0.7846(10) 0.1336(9) 0.1079 Uani
H21 H 0.3063 0.7132 0.1443 0.1290 Uiso
C25 C 0.3914(10) 0.7822(9) 0.0352(8) 0.0803 Uani
C28 C 0.4477(9) 0.8899(8) 0.0142(7) 0.0625 Uani
H43 H 0.3752 0.4215 0.0290 0.1580 Uiso
loop_
_atom_site_aniso_label
_atom_site_aniso_U_11
_atom_site_aniso_U_22
_atom_site_aniso_U_33
_atom_site_aniso_U_23
_atom_site_aniso_U_13
_atom_site_aniso_U_12
C23 0.052 0.058 0.194 0.062 0.034 0.016
C26 0.056 0.036 0.094 0.028 0.017 0.015
C29 0.037 0.017 0.052 0.01 0.009 0.005
C39 0.034 0.016 0.038 -0.001 0 0.003
C40 0.045 0.016 0.038 0.013 -0.001 0
C41 0.047 0.022 0.045 0.011 0.002 0.002
C42 0.044 0.043 0.118 0.046 0.017 0.004
C43 0.052 0.065 0.191 0.078 0.032 0.008
O11 0.051 0.016 0.035 0.007 0.003 0
O12 0.064 0.02 0.029 0.005 -0.006 0
Tb4 0.031 0.0174 0.03028 0.00256 -0.00179 -0.0009
Tb7 0.031 0.0174 0.03028 0.00256 -0.00179 -0.0009
C1 0.053 0.023 0.028 -0.003 0.006 -0.001
C2 0.034 0.016 0.038 -0.001 0 0.003
C3 0.03 0.025 0.043 0.009 0.001 -0.005
C4 0.057 0.028 0.036 -0.005 0.008 -0.003
C5 0.045 0.016 0.038 0.013 -0.001 0
C6 0.028 0.037 0.04 0.01 0.003 -0.001
C7 0.076 0.075 0.045 0.027 0.004 -0.006
C8 0.097 0.09 0.069 0.033 0.02 0.028
C9 0.073 0.047 0.056 0.001 0.006 0.007
C10 0.047 0.022 0.045 0.011 0.002 0.002
C11 0.027 0.039 0.042 0.008 0.006 0.003
C12 0.112 0.053 0.044 0 0.004 0.004
C13 0.044 0.043 0.118 0.046 0.017 0.004
C14 0.027 0.047 0.069 0.008 0.002 0.002
C15 0.091 0.127 0.084 0.013 0.031 -0.011
C16 0.157 0.122 0.108 0.034 0.009 -0.034
C18 0.052 0.065 0.191 0.078 0.032 0.008
C19 0.043 0.051 0.079 -0.011 0.007 0.007
C20 0.125 0.134 0.153 0.101 -0.021 -0.067
N1 0.09 0.081 0.074 0.046 0.004 -0.021
N2 0.042 0.134 0.113 0.072 -0.001 0.029
O1 0.04 0.026 0.046 -0.008 -0.006 0.002
O2 0.051 0.016 0.035 0.007 0.003 0
O3 0.03 0.036 0.05 0.017 0.004 -0.001
O4 0.067 0.039 0.045 0.016 -0.004 -0.012
O5 0.046 0.069 0.058 0.023 -0.024 -0.014
O6 0.044 0.033 0.054 -0.006 -0.002 0.005
O7 0.064 0.02 0.029 0.005 -0.006 0
O8 0.039 0.055 0.038 0.011 0.003 0.007
C44 0.052 0.058 0.194 0.062 0.034 0.016
C45 0.056 0.036 0.094 0.028 0.017 0.015
C46 0.037 0.017 0.052 0.01 0.009 0.005
C52 0.041 0.055 0.065 -0.013 -0.004 -0.001
C53 0.032 0.05 0.057 0.007 0.002 0.004
C54 0.033 0.037 0.045 0.013 0.004 -0.001
C60 0.129 0.199 0.118 0.065 -0.011 0.04
O20 0.03 0.036 0.05 0.017 0.004 -0.001
O25 0.039 0.055 0.038 0.011 0.003 0.007
C31 0.053 0.023 0.028 -0.003 0.006 -0.001
C32 0.057 0.028 0.036 -0.005 0.008 -0.003
C33 0.073 0.047 0.056 0.001 0.006 0.007
C34 0.112 0.053 0.044 0 0.004 0.004
O9 0.04 0.026 0.046 -0.008 -0.006 0.002
O10 0.044 0.033 0.054 -0.006 -0.002 0.005
C21 0.129 0.199 0.118 0.065 -0.011 0.04
C24 0.041 0.055 0.065 -0.013 -0.004 -0.001
C27 0.032 0.05 0.057 0.007 0.002 0.004
C30 0.033 0.037 0.045 0.013 0.004 -0.001
C47 0.03 0.025 0.043 0.009 0.001 -0.005
C48 0.028 0.037 0.04 0.01 0.003 -0.001
C49 0.027 0.039 0.042 0.008 0.006 0.003
C50 0.027 0.047 0.069 0.008 0.002 0.002
C51 0.043 0.051 0.079 -0.011 0.007 0.007
C55 0.076 0.075 0.045 0.027 0.004 -0.006
C56 0.097 0.09 0.069 0.033 0.02 0.028
C57 0.091 0.127 0.084 0.013 0.031 -0.011
C58 0.157 0.122 0.108 0.034 0.009 -0.034
C59 0.125 0.134 0.153 0.101 -0.021 -0.067
N3 0.09 0.081 0.074 0.046 0.004 -0.021
N4 0.042 0.134 0.113 0.072 -0.001 0.029
O15 0.067 0.039 0.045 0.016 -0.004 -0.012
O16 0.046 0.069 0.058 0.023 -0.024 -0.014
C35 0.189 0.049 0.076 0.013 0.042 -0.026
C36 0.182 0.059 0.073 0.01 0.031 -0.031
C37 0.119 0.047 0.069 0.012 0.01 -0.023
C38 0.077 0.041 0.06 0.002 0 -0.006
C17 0.189 0.049 0.076 0.013 0.042 -0.026
C22 0.182 0.059 0.073 0.01 0.031 -0.031
C25 0.119 0.047 0.069 0.012 0.01 -0.023
C28 0.077 0.041 0.06 0.002 0 -0.006
loop_
_geom_bond_atom_site_label_1
_geom_bond_atom_site_label_2
_geom_bond_site_symmetry_1
_geom_bond_site_symmetry_2
H22 C23 1_555 1_555
C26 C23 1_555 1_555
H25 C26 1_555 1_555
C39 C40 1_555 1_555
C40 C29 1_555 1_555
C41 C40 1_555 1_555
C42 C41 1_555 1_555
H31 C42 1_555 1_555
C43 C42 1_555 1_555
H32 C43 1_555 1_555
O11 C39 1_555 1_555
O12 C39 1_555 1_555
Tb4 O12 1_555 1_555
Tb7 O11 1_555 1_555
C26 C29 1_555 1_555
Tb4 O1 1_555 1_555
C1 C4 1_555 1_555
C2 C5 1_555 1_555
C3 C6 1_555 1_555
C4 C9 1_555 1_555
C5 C10 1_555 1_555
C6 C11 1_555 1_555
C7 H1 1_555 1_555
C8 H2 1_555 1_555
C9 C12 1_555 1_555
C10 C13 1_555 1_555
C11 C14 1_555 1_555
C12 H3 1_555 1_555
C13 H4 1_555 1_555
C14 H5 1_555 1_555
C15 H6 1_555 1_555
H7 C15 1_555 1_555
C16 H9 1_555 1_555
H11 C16 1_555 1_555
C18 C13 1_555 1_555
H13 C18 1_555 1_555
C19 C14 1_555 1_555
H14 C19 1_555 1_555
C20 H15 1_555 1_555
H16 C20 1_555 1_555
H17 C20 1_555 1_555
N1 C7 1_555 1_555
N2 C8 1_555 1_555
O1 C1 1_555 1_555
O2 Tb4 1_555 1_555
O3 Tb4 1_555 1_555
O4 Tb4 1_555 1_555
O5 Tb4 1_555 1_555
O6 Tb4 1_555 1_555
O7 C2 1_555 1_555
O8 C3 1_555 1_555
H33 C44 1_555 1_555
C45 C44 1_555 1_555
H34 C45 1_555 1_555
C46 C5 1_555 1_555
H37 C52 1_555 1_555
C53 C52 1_555 1_555
H38 C53 1_555 1_555
C54 C6 1_555 1_555
C60 H50 1_555 1_555
H51 C60 1_555 1_555
H52 C60 1_555 1_555
Tb7 O3 1_555 1_555
O20 Tb4 1_555 1_555
O25 Tb4 1_555 1_555
C1 O6 1_555 1_555
C2 O2 1_555 1_555
C3 O3 1_555 1_555
C7 O4 1_555 1_555
C8 O5 1_555 1_555
C15 N1 1_555 1_555
C16 N2 1_555 1_555
C20 N1 1_555 1_555
O7 Tb7 1_555 1_555
O8 Tb7 1_555 1_555
C45 C46 1_555 1_555
C53 C54 1_555 1_555
Tb7 O20 1_555 1_555
C31 C32 1_555 1_555
C33 C32 1_555 1_555
C34 C33 1_555 1_555
H27 C34 1_555 1_555
O9 C31 1_555 1_555
O10 C31 1_555 1_555
Tb7 O9 1_555 1_555
O10 Tb7 1_555 1_555
C21 H18 1_555 1_555
H19 C21 1_555 1_555
H20 C21 1_555 1_555
H23 C24 1_555 1_555
C27 C24 1_555 1_555
H26 C27 1_555 1_555
C47 C48 1_555 1_555
C48 C30 1_555 1_555
C49 C48 1_555 1_555
C50 C49 1_555 1_555
H35 C50 1_555 1_555
C51 C50 1_555 1_555
H36 C51 1_555 1_555
O20 C47 1_555 1_555
O25 C47 1_555 1_555
C55 H39 1_555 1_555
C56 H40 1_555 1_555
C57 H41 1_555 1_555
H42 C57 1_555 1_555
C58 H44 1_555 1_555
H46 C58 1_555 1_555
C59 H47 1_555 1_555
H48 C59 1_555 1_555
H49 C59 1_555 1_555
N3 C55 1_555 1_555
N4 C56 1_555 1_555
O15 Tb7 1_555 1_555
O16 Tb7 1_555 1_555
C27 C30 1_555 1_555
C55 O15 1_555 1_555
C56 O16 1_555 1_555
C57 N3 1_555 1_555
C58 N4 1_555 1_555
C59 N3 1_555 1_555
H28 C35 1_555 1_555
C36 C35 1_555 1_555
H29 C36 1_555 1_555
C37 C36 1_555 1_555
C37 C38 1_555 1_555
H12 C17 1_555 1_555
C22 C17 1_555 1_555
H21 C22 1_555 1_555
C25 C22 1_555 1_555
C25 C28 1_555 1_555

#END
