
###############################################################################
#
# This file contains modified crystal structure data generated from the
# MOF subset of the Cambridge Structural Database (CSD) v543 
# hosted by the Cambridge Crystallographic Data Centre (CCDC).
#
# This work is licensed under the Creative Commons
# Attribution-NonCommercial-ShareAlike 4.0 International License.
# To view a copy of this license, visit
# http://creativecommons.org/licenses/by-nc-sa/4.0/
# or send a letter to
# Creative Commons, PO Box 1866, Mountain View, CA 94042, USA.
#
# CIF created using the CSD Python API on 29 September 2022
# The structure has been converted into the P1 space group
# The structure has a 3D framework
# The original CSD entry RUTBIU is in the monoclinic crystal system
# The framework has been calculated to contain at least 10.0% void space
# The void calculation uses a probe of radius 1.32A, grid spacing 0.4
# The framework is charged, counterions have been retained in the structure
#
###############################################################################

data_RUTBIU
_chemical_formula_moiety         '(C96 H48 Mo52 N18 O179 P6 Zn28 10-)n'
_symmetry_cell_setting           triclinic
_symmetry_space_group_name_H-M   'P 1'
_symmetry_Int_Tables_number      1
_space_group_name_Hall           'P 1'
loop_
_symmetry_equiv_pos_site_id
_symmetry_equiv_pos_as_xyz
1 x,y,z
_cell_length_a                   17.394(5)
_cell_length_b                   23.588(6)
_cell_length_c                   23.111(6)
_cell_angle_alpha                90
_cell_angle_beta                 105.038(3)
_cell_angle_gamma                90
_cell_volume                     9157.48
loop_
_atom_site_label
_atom_site_type_symbol
_atom_site_fract_x
_atom_site_fract_y
_atom_site_fract_z
Zn4 Zn 0.500000 0.000000 0.000000
N1 N 0.500000 0.0860(6) 0.000000
O28 O 0.6296(10) 0.3139(5) 0.2875(6)
O29 O 0.7433(10) 0.3143(6) 0.2788(7)
N3 N 0.5677(11) 0.000000 0.0876(6)
C13 C 0.5223(12) 0.1788(6) 0.0281(7)
H7 H 0.540966 0.210543 0.051297
C14 C 0.5361(11) 0.1211(5) 0.0463(7)
C15 C 0.5823(11) 0.1038(6) 0.1037(6)
C16 C 0.5981(10) 0.0470(5) 0.1218(5)
C17 C 0.6361(8) 0.0288(5) 0.1812(5)
H8 H 0.657036 0.052133 0.213917
C18 C 0.6559(8) 0.2415(4) 0.2260(6)
C19 C 0.7118(6) 0.2163(5) 0.2007(6)
H9 H 0.763226 0.230709 0.208808
C20 C 0.6907(7) 0.1695(5) 0.1633(6)
H10 H 0.728063 0.152703 0.146397
C21 C 0.6138(8) 0.1480(4) 0.1512(5)
C22 C 0.5580(6) 0.1732(5) 0.1765(6)
H11 H 0.506507 0.158745 0.168391
C23 C 0.5790(7) 0.2199(5) 0.2139(6)
H12 H 0.541668 0.236751 0.230802
C24 C 0.6788(16) 0.2906(8) 0.2678(10)
Zn11 Zn 0.69496(6) 0.37492(4) 0.33997(5)
Mo1 Mo 0.23134(6) 0.500000 0.70986(5)
Mo2 Mo 0.41384(6) 0.500000 0.70973(5)
Mo3 Mo 0.10629(4) 0.42608(3) 0.59533(3)
Mo4 Mo 0.15297(4) 0.36979(3) 0.51234(3)
Mo5 Mo 0.21511(4) 0.43184(3) 0.39851(3)
Mo6 Mo 0.45891(4) 0.57412(3) 0.59501(3)
Mo7 Mo 0.35554(4) 0.63011(3) 0.51220(3)
Zn1 Zn 0.30504(6) 0.37492(4) 0.66003(5)
Zn2 Zn 0.40051(8) 0.500000 0.44922(6)
Zn3 Zn 0.06468(8) 0.500000 0.44964(6)
Zn4_2 Zn 0.500000 0.000000 1.000000
P1 P 0.26774(16) 0.500000 0.55360(12)
O1 O 0.3704(10) 0.3139(5) 0.7125(6)
O2 O 0.2567(10) 0.3143(6) 0.7212(7)
O3 O 0.2411(6) 0.500000 0.7836(4)
O4 O 0.4557(6) 0.500000 0.7840(4)
O5 O 0.4649(3) 0.5582(3) 0.6815(3)
O6 O 0.3198(4) 0.4492(2) 0.7012(3)
O7 O 0.1619(4) 0.4420(3) 0.6818(3)
O8 O 0.1997(3) 0.3773(2) 0.5989(3)
O9 O 0.0352(4) 0.3816(3) 0.6046(3)
O10 O 0.2534(3) 0.3291(2) 0.5102(3)
O11 O 0.0898(4) 0.3147(3) 0.5038(3)
O12 O 0.5363(4) 0.6190(3) 0.6043(3)
O13 O 0.3563(5) 0.500000 0.5936(4)
O14 O 0.2079(5) 0.500000 0.5937(4)
O15 O 0.2546(3) 0.4457(2) 0.5136(3)
O16 O 0.0860(3) 0.4379(2) 0.5082(3)
O17 O 0.3029(3) 0.3888(2) 0.4261(3)
O18 O 0.1454(3) 0.3889(2) 0.4258(3)
O19 O 0.3688(4) 0.6221(2) 0.5984(3)
O20 O 0.4186(3) 0.5620(2) 0.5080(3)
O21 O 0.4814(4) 0.500000 0.4044(4)
O22 O 0.2873(5) 0.500000 0.4055(4)
O23 O 0.1466(5) 0.500000 0.4043(4)
O25 O 0.1890(4) 0.4205(3) 0.3239(3)
O26 O 0.4123(4) 0.6853(3) 0.5045(3)
N1_2 N 0.500000 0.0860(6) 1.000000
N2 N 0.4323(11) 0.000000 0.9124(6)
C1 C 0.4777(12) 0.1788(6) 0.9719(7)
H1 H 0.459034 0.210543 0.948703
C2 C 0.4639(11) 0.1211(5) 0.9537(7)
C3 C 0.4177(11) 0.1038(6) 0.8963(6)
C4 C 0.4019(10) 0.0470(5) 0.8782(5)
C5 C 0.3639(8) 0.0288(5) 0.8188(5)
H2 H 0.342964 0.052133 0.786083
C6 C 0.3441(8) 0.2415(4) 0.7740(6)
C7 C 0.2882(6) 0.2163(5) 0.7993(6)
H3 H 0.236774 0.230709 0.791192
C8 C 0.3093(7) 0.1695(5) 0.8367(6)
H4 H 0.271937 0.152703 0.853603
C9 C 0.3862(8) 0.1480(4) 0.8488(5)
C10 C 0.4420(6) 0.1732(5) 0.8235(6)
H5 H 0.493493 0.158745 0.831609
C11 C 0.4210(7) 0.2199(5) 0.7861(6)
H6 H 0.458332 0.236751 0.769198
C12 C 0.3212(16) 0.2906(8) 0.7322(10)
O27 O 0.2546(3) 0.5543(2) 0.5136(3)
O55 O 0.0480(5) 0.500000 0.5957(4)
Mo18 Mo 0.10629(4) 0.57392(3) 0.59533(3)
Mo19 Mo 0.15297(4) 0.63021(3) 0.51234(3)
Mo20 Mo 0.21511(4) 0.56816(3) 0.39851(3)
Zn9 Zn 0.30504(6) 0.62508(4) 0.66003(5)
O69 O 0.3198(4) 0.5508(2) 0.7012(3)
O70 O 0.1619(4) 0.5580(3) 0.6818(3)
O71 O 0.1997(3) 0.6227(2) 0.5989(3)
O72 O 0.0352(4) 0.6184(3) 0.6046(3)
O73 O 0.2534(3) 0.6709(2) 0.5102(3)
O74 O 0.0898(4) 0.6853(3) 0.5038(3)
O75 O 0.0860(3) 0.5621(2) 0.5082(3)
O76 O 0.3029(3) 0.6112(2) 0.4261(3)
O77 O 0.1454(3) 0.6111(2) 0.4258(3)
O78 O 0.1890(4) 0.5795(3) 0.3239(3)
Mo21 Mo 0.45891(4) 0.42588(3) 0.59501(3)
Mo22 Mo 0.35554(4) 0.36989(3) 0.51220(3)
O79 O 0.4649(3) 0.4418(3) 0.6815(3)
O80 O 0.5363(4) 0.3810(3) 0.6043(3)
O81 O 0.3688(4) 0.3779(2) 0.5984(3)
O82 O 0.4186(3) 0.4380(2) 0.5080(3)
O83 O 0.4123(4) 0.3147(3) 0.5045(3)
Mo23 Mo 0.54109(4) 0.42588(3) 0.40499(3)
Mo24 Mo 0.64446(4) 0.36989(3) 0.48780(3)
O84 O 0.5351(3) 0.4418(3) 0.3185(3)
O85 O 0.4637(4) 0.3810(3) 0.3957(3)
O86 O 0.6312(4) 0.3779(2) 0.4016(3)
O87 O 0.5814(3) 0.4380(2) 0.4920(3)
O88 O 0.5877(4) 0.3147(3) 0.4955(3)
Mo27 Mo 0.58616(6) 0.500000 0.29027(5)
Mo32 Mo 0.54109(4) 0.57412(3) 0.40499(3)
Zn14 Zn 0.59949(8) 0.500000 0.55078(6)
O90 O 0.3704(10) 0.6861(5) 0.7125(6)
O92 O 0.2567(10) 0.6857(6) 0.7212(7)
O96 O 0.7466(3) 0.3291(2) 0.4898(3)
O98 O 0.6437(5) 0.500000 0.4064(4)
O100 O 0.7454(3) 0.4457(2) 0.4864(3)
O103 O 0.6971(3) 0.3888(2) 0.5739(3)
O109 O 0.5186(4) 0.500000 0.5956(4)
Zn4_3 Zn 0.500000 1.000000 0.000000
N3_2 N 0.5677(11) 1.000000 0.0876(6)
N4 N 0.500000 0.9140(6) 0.000000
O32 O 0.6296(10) 0.6861(5) 0.2875(6)
O33 O 0.7433(10) 0.6857(6) 0.2788(7)
C37 C 0.5223(12) 0.8212(6) 0.0281(7)
H19 H 0.540966 0.789457 0.051297
C38 C 0.5361(11) 0.8789(5) 0.0463(7)
C39 C 0.5823(11) 0.8962(6) 0.1037(6)
C40 C 0.5981(10) 0.9530(5) 0.1218(5)
C41 C 0.6361(8) 0.9712(5) 0.1812(5)
H20 H 0.657036 0.947867 0.213917
C42 C 0.6559(8) 0.7585(4) 0.2260(6)
C43 C 0.7118(6) 0.7837(5) 0.2007(6)
H21 H 0.763226 0.769291 0.208808
C44 C 0.6907(7) 0.8305(5) 0.1633(6)
H22 H 0.728063 0.847297 0.146397
C45 C 0.6138(8) 0.8520(4) 0.1512(5)
C46 C 0.5580(6) 0.8268(5) 0.1765(6)
H23 H 0.506507 0.841255 0.168391
C47 C 0.5790(7) 0.7801(5) 0.2139(6)
H24 H 0.541668 0.763249 0.230802
C48 C 0.6788(16) 0.7094(8) 0.2678(10)
Zn13 Zn 0.69496(6) 0.62508(4) 0.33997(5)
Zn4_4 Zn 0.500000 1.000000 1.000000
N2_2 N 0.4323(11) 1.000000 0.9124(6)
N4_2 N 0.500000 0.9140(6) 1.000000
C25 C 0.4777(12) 0.8212(6) 0.9719(7)
H13 H 0.459034 0.789457 0.948703
C26 C 0.4639(11) 0.8789(5) 0.9537(7)
C27 C 0.4177(11) 0.8962(6) 0.8963(6)
C28 C 0.4019(10) 0.9530(5) 0.8782(5)
C29 C 0.3639(8) 0.9712(5) 0.8188(5)
H14 H 0.342964 0.947867 0.786083
C30 C 0.3441(8) 0.7585(4) 0.7740(6)
C31 C 0.2882(6) 0.7837(5) 0.7993(6)
H15 H 0.236774 0.769291 0.791192
C32 C 0.3093(7) 0.8305(5) 0.8367(6)
H16 H 0.271937 0.847297 0.853603
C33 C 0.3862(8) 0.8520(4) 0.8488(5)
C34 C 0.4420(6) 0.8268(5) 0.8235(6)
H17 H 0.493493 0.841255 0.831609
C35 C 0.4210(7) 0.7801(5) 0.7861(6)
H18 H 0.458332 0.763249 0.769198
C36 C 0.3212(16) 0.7094(8) 0.7322(10)
O24 O 0.9520(5) 0.500000 0.4043(4)
Mo8 Mo 0.76866(6) 0.500000 0.29014(5)
Mo10 Mo 0.89371(4) 0.42608(3) 0.40467(3)
Mo11 Mo 0.84703(4) 0.36979(3) 0.48766(3)
Mo12 Mo 0.78489(4) 0.43184(3) 0.60149(3)
Mo14 Mo 0.64446(4) 0.63011(3) 0.48780(3)
Zn7 Zn 0.93532(8) 0.500000 0.55036(6)
P2 P 0.73226(16) 0.500000 0.44640(12)
O34 O 0.7589(6) 0.500000 0.2164(4)
O35 O 0.5443(6) 0.500000 0.2160(4)
O36 O 0.5351(3) 0.5582(3) 0.3185(3)
O37 O 0.6802(4) 0.4492(2) 0.2988(3)
O38 O 0.8381(4) 0.4420(3) 0.3182(3)
O39 O 0.8003(3) 0.3773(2) 0.4011(3)
O40 O 0.9648(4) 0.3816(3) 0.3954(3)
O42 O 0.9102(4) 0.3147(3) 0.4962(3)
O43 O 0.4637(4) 0.6190(3) 0.3957(3)
O45 O 0.7921(5) 0.500000 0.4063(4)
O47 O 0.9140(3) 0.4379(2) 0.4918(3)
O49 O 0.8546(3) 0.3889(2) 0.5742(3)
O50 O 0.6312(4) 0.6221(2) 0.4016(3)
O51 O 0.5814(3) 0.5620(2) 0.4920(3)
O53 O 0.7127(5) 0.500000 0.5945(4)
O54 O 0.8534(5) 0.500000 0.5957(4)
O56 O 0.8110(4) 0.4205(3) 0.6761(3)
O57 O 0.5877(4) 0.6853(3) 0.4955(3)
O58 O 0.7454(3) 0.5543(2) 0.4864(3)
Mo28 Mo 0.89371(4) 0.57392(3) 0.40467(3)
Mo29 Mo 0.84703(4) 0.63021(3) 0.48766(3)
Mo30 Mo 0.78489(4) 0.56816(3) 0.60149(3)
O94 O 0.6802(4) 0.5508(2) 0.2988(3)
O95 O 0.8381(4) 0.5580(3) 0.3182(3)
O97 O 0.7466(3) 0.6709(2) 0.4898(3)
O102 O 0.9140(3) 0.5621(2) 0.4918(3)
O104 O 0.6971(3) 0.6112(2) 0.5739(3)
O71_2 O 0.8003(3) 0.6227(2) 0.4011(3)
O72_2 O 0.9648(4) 0.6184(3) 0.3954(3)
O74_2 O 0.9102(4) 0.6853(3) 0.4962(3)
O77_2 O 0.8546(3) 0.6111(2) 0.5742(3)
O78_2 O 0.8110(4) 0.5795(3) 0.6761(3)
O12_2 O 0.0363(4) 0.1190(3) 0.6043(3)
Mo27_2 Mo 0.08616(6) -0.000000 0.29027(5)
Mo32_2 Mo 0.04109(4) 0.07412(3) 0.40499(3)
Zn14_2 Zn 0.09949(8) -0.000000 0.55078(6)
O98_2 O 0.1437(5) -0.000000 0.4064(4)
O109_2 O 0.0186(4) -0.000000 0.5956(4)
Zn4_5 Zn 0.000000 0.500000 0.000000
N1_3 N 0.000000 0.5860(6) 0.000000
O28_2 O 0.1296(10) 0.8139(5) 0.2875(6)
O29_2 O 0.2433(10) 0.8143(6) 0.2788(7)
N3_3 N 0.0677(11) 0.500000 0.0876(6)
C13_2 C 0.0223(12) 0.6788(6) 0.0281(7)
H7_2 H 0.040966 0.710543 0.051297
C14_2 C 0.0361(11) 0.6211(5) 0.0463(7)
C15_2 C 0.0823(11) 0.6038(6) 0.1037(6)
C16_2 C 0.0981(10) 0.5470(5) 0.1218(5)
C17_2 C 0.1361(8) 0.5288(5) 0.1812(5)
H8_2 H 0.157036 0.552133 0.213917
C18_2 C 0.1559(8) 0.7415(4) 0.2260(6)
C19_2 C 0.2118(6) 0.7163(5) 0.2007(6)
H9_2 H 0.263226 0.730709 0.208808
C20_2 C 0.1907(7) 0.6695(5) 0.1633(6)
H10_2 H 0.228063 0.652703 0.146397
C21_2 C 0.1138(8) 0.6480(4) 0.1512(5)
C22_2 C 0.0580(6) 0.6732(5) 0.1765(6)
H11_2 H 0.006507 0.658745 0.168391
C23_2 C 0.0790(7) 0.7199(5) 0.2139(6)
H12_2 H 0.041668 0.736751 0.230802
C24_2 C 0.1788(16) 0.7906(8) 0.2678(10)
N4_3 N 0.000000 0.4140(6) 0.000000
O32_2 O 0.1296(10) 0.1861(5) 0.2875(6)
O33_2 O 0.2433(10) 0.1857(6) 0.2788(7)
C37_2 C 0.0223(12) 0.3212(6) 0.0281(7)
H19_2 H 0.040966 0.289457 0.051297
C38_2 C 0.0361(11) 0.3789(5) 0.0463(7)
C39_2 C 0.0823(11) 0.3962(6) 0.1037(6)
C40_2 C 0.0981(10) 0.4530(5) 0.1218(5)
C41_2 C 0.1361(8) 0.4712(5) 0.1812(5)
H20_2 H 0.157036 0.447867 0.213917
C42_2 C 0.1559(8) 0.2585(4) 0.2260(6)
C43_2 C 0.2118(6) 0.2837(5) 0.2007(6)
H21_2 H 0.263226 0.269291 0.208808
C44_2 C 0.1907(7) 0.3305(5) 0.1633(6)
H22_2 H 0.228063 0.347297 0.146397
C45_2 C 0.1138(8) 0.3520(4) 0.1512(5)
C46_2 C 0.0580(6) 0.3268(5) 0.1765(6)
H23_2 H 0.006507 0.341255 0.168391
C47_2 C 0.0790(7) 0.2801(5) 0.2139(6)
H24_2 H 0.041668 0.263249 0.230802
C48_2 C 0.1788(16) 0.2094(8) 0.2678(10)
Zn11_2 Zn 0.19496(6) 0.87492(4) 0.33997(5)
Zn13_2 Zn 0.19496(6) 0.12508(4) 0.33997(5)
Zn4_6 Zn 0.000000 0.500000 1.000000
N1_4 N 0.000000 0.5860(6) 1.000000
N4_4 N 0.000000 0.4140(6) 1.000000
O80_2 O 0.0363(4) 0.8810(3) 0.6043(3)
Mo23_2 Mo 0.04109(4) 0.92588(3) 0.40499(3)
Mo24_2 Mo 0.14446(4) 0.86989(3) 0.48780(3)
O84_2 O 0.0351(3) 0.9418(3) 0.3185(3)
O86_2 O 0.1312(4) 0.8779(2) 0.4016(3)
O87_2 O 0.0814(3) 0.9380(2) 0.4920(3)
O88_2 O 0.0877(4) 0.8147(3) 0.4955(3)
Mo27_3 Mo 0.08616(6) 1.000000 0.29027(5)
Zn14_3 Zn 0.09949(8) 1.000000 0.55078(6)
O96_2 O 0.2466(3) 0.8291(2) 0.4898(3)
O98_3 O 0.1437(5) 1.000000 0.4064(4)
O100_2 O 0.2454(3) 0.9457(2) 0.4864(3)
O103_2 O 0.1971(3) 0.8888(2) 0.5739(3)
O109_3 O 0.0186(4) 1.000000 0.5956(4)
Mo1_2 Mo 0.73134(6) -0.000000 0.70986(5)
Mo2_2 Mo 0.91384(6) -0.000000 0.70973(5)
Mo6_2 Mo 0.95891(4) 0.07412(3) 0.59501(3)
Mo7_2 Mo 0.85554(4) 0.13011(3) 0.51220(3)
Zn2_2 Zn 0.90051(8) -0.000000 0.44922(6)
Zn3_2 Zn 0.56468(8) -0.000000 0.44964(6)
P1_2 P 0.76774(16) -0.000000 0.55360(12)
O3_2 O 0.7411(6) -0.000000 0.7836(4)
O4_2 O 0.9557(6) -0.000000 0.7840(4)
O5_2 O 0.9649(3) 0.0582(3) 0.6815(3)
O13_2 O 0.8563(5) -0.000000 0.5936(4)
O14_2 O 0.7079(5) -0.000000 0.5937(4)
O19_2 O 0.8688(4) 0.1221(2) 0.5984(3)
O20_2 O 0.9186(3) 0.0620(2) 0.5080(3)
O21_2 O 0.9814(4) -0.000000 0.4044(4)
O22_2 O 0.7873(5) -0.000000 0.4055(4)
O23_2 O 0.6466(5) -0.000000 0.4043(4)
O24_2 O 0.4520(5) -0.000000 0.4043(4)
O26_2 O 0.9123(4) 0.1853(3) 0.5045(3)
O27_2 O 0.7546(3) 0.0543(2) 0.5136(3)
Mo8_2 Mo 0.26866(6) -0.000000 0.29014(5)
Mo14_2 Mo 0.14446(4) 0.13011(3) 0.48780(3)
Zn7_2 Zn 0.43532(8) -0.000000 0.55036(6)
P2_2 P 0.23226(16) -0.000000 0.44640(12)
O34_2 O 0.2589(6) -0.000000 0.2164(4)
O35_2 O 0.0443(6) -0.000000 0.2160(4)
O36_2 O 0.0351(3) 0.0582(3) 0.3185(3)
O45_2 O 0.2921(5) -0.000000 0.4063(4)
O50_2 O 0.1312(4) 0.1221(2) 0.4016(3)
O51_2 O 0.0814(3) 0.0620(2) 0.4920(3)
O53_2 O 0.2127(5) -0.000000 0.5945(4)
O54_2 O 0.3534(5) -0.000000 0.5957(4)
O55_2 O 0.5480(5) -0.000000 0.5957(4)
O57_2 O 0.0877(4) 0.1853(3) 0.4955(3)
O58_2 O 0.2454(3) 0.0543(2) 0.4864(3)
Mo18_2 Mo 0.60629(4) 0.07392(3) 0.59533(3)
Mo19_2 Mo 0.65297(4) 0.13021(3) 0.51234(3)
Mo20_2 Mo 0.71511(4) 0.06816(3) 0.39851(3)
Zn9_2 Zn 0.80504(6) 0.12508(4) 0.66003(5)
O69_2 O 0.8198(4) 0.0508(2) 0.7012(3)
O70_2 O 0.6619(4) 0.0580(3) 0.6818(3)
O71_3 O 0.6997(3) 0.1227(2) 0.5989(3)
O72_3 O 0.5352(4) 0.1184(3) 0.6046(3)
O73_2 O 0.7534(3) 0.1709(2) 0.5102(3)
O74_3 O 0.5898(4) 0.1853(3) 0.5038(3)
O75_2 O 0.5860(3) 0.0621(2) 0.5082(3)
O76_2 O 0.8029(3) 0.1112(2) 0.4261(3)
O77_3 O 0.6454(3) 0.1111(2) 0.4258(3)
O78_3 O 0.6890(4) 0.0795(3) 0.3239(3)
Mo28_2 Mo 0.39371(4) 0.07392(3) 0.40467(3)
Mo29_2 Mo 0.34703(4) 0.13021(3) 0.48766(3)
Mo30_2 Mo 0.28489(4) 0.06816(3) 0.60149(3)
O90_2 O 0.8704(10) 0.1861(5) 0.7125(6)
O92_2 O 0.7567(10) 0.1857(6) 0.7212(7)
O94_2 O 0.1802(4) 0.0508(2) 0.2988(3)
O95_2 O 0.3381(4) 0.0580(3) 0.3182(3)
O97_2 O 0.2466(3) 0.1709(2) 0.4898(3)
O102_2 O 0.4140(3) 0.0621(2) 0.4918(3)
O104_2 O 0.1971(3) 0.1112(2) 0.5739(3)
Zn4_7 Zn 1.000000 0.500000 0.000000
N1_5 N 1.000000 0.5860(6) 0.000000
N4_5 N 1.000000 0.4140(6) 0.000000
Mo1_3 Mo 0.73134(6) 1.000000 0.70986(5)
Mo2_3 Mo 0.91384(6) 1.000000 0.70973(5)
Mo3_2 Mo 0.60629(4) 0.92608(3) 0.59533(3)
Mo4_2 Mo 0.65297(4) 0.86979(3) 0.51234(3)
Mo5_2 Mo 0.71511(4) 0.93184(3) 0.39851(3)
Zn1_2 Zn 0.80504(6) 0.87492(4) 0.66003(5)
Zn2_3 Zn 0.90051(8) 1.000000 0.44922(6)
Zn3_3 Zn 0.56468(8) 1.000000 0.44964(6)
Zn4_8 Zn 1.000000 0.500000 1.000000
P1_3 P 0.76774(16) 1.000000 0.55360(12)
O1_2 O 0.8704(10) 0.8139(5) 0.7125(6)
O2_2 O 0.7567(10) 0.8143(6) 0.7212(7)
O3_3 O 0.7411(6) 1.000000 0.7836(4)
O4_3 O 0.9557(6) 1.000000 0.7840(4)
O6_2 O 0.8198(4) 0.9492(2) 0.7012(3)
O7_2 O 0.6619(4) 0.9420(3) 0.6818(3)
O8_2 O 0.6997(3) 0.8773(2) 0.5989(3)
O9_2 O 0.5352(4) 0.8816(3) 0.6046(3)
O10_2 O 0.7534(3) 0.8291(2) 0.5102(3)
O11_2 O 0.5898(4) 0.8147(3) 0.5038(3)
O13_3 O 0.8563(5) 1.000000 0.5936(4)
O14_3 O 0.7079(5) 1.000000 0.5937(4)
O15_2 O 0.7546(3) 0.9457(2) 0.5136(3)
O16_2 O 0.5860(3) 0.9379(2) 0.5082(3)
O17_2 O 0.8029(3) 0.8888(2) 0.4261(3)
O18_2 O 0.6454(3) 0.8889(2) 0.4258(3)
O21_3 O 0.9814(4) 1.000000 0.4044(4)
O22_3 O 0.7873(5) 1.000000 0.4055(4)
O23_3 O 0.6466(5) 1.000000 0.4043(4)
O24_3 O 0.4520(5) 1.000000 0.4043(4)
O25_2 O 0.6890(4) 0.9205(3) 0.3239(3)
N1_6 N 1.000000 0.5860(6) 1.000000
N2_3 N 0.9323(11) 0.500000 0.9124(6)
C1_2 C 0.9777(12) 0.6788(6) 0.9719(7)
H1_2 H 0.959034 0.710543 0.948703
C2_2 C 0.9639(11) 0.6211(5) 0.9537(7)
C3_2 C 0.9177(11) 0.6038(6) 0.8963(6)
C4_2 C 0.9019(10) 0.5470(5) 0.8782(5)
C5_2 C 0.8639(8) 0.5288(5) 0.8188(5)
H2_2 H 0.842964 0.552133 0.786083
C6_2 C 0.8441(8) 0.7415(4) 0.7740(6)
C7_2 C 0.7882(6) 0.7163(5) 0.7993(6)
H3_2 H 0.736774 0.730709 0.791192
C8_2 C 0.8093(7) 0.6695(5) 0.8367(6)
H4_2 H 0.771937 0.652703 0.853603
C9_2 C 0.8862(8) 0.6480(4) 0.8488(5)
C10_2 C 0.9420(6) 0.6732(5) 0.8235(6)
H5_2 H 0.993493 0.658745 0.831609
C11_2 C 0.9210(7) 0.7199(5) 0.7861(6)
H6_2 H 0.958332 0.736751 0.769198
C12_2 C 0.8212(16) 0.7906(8) 0.7322(10)
N4_6 N 1.000000 0.4140(6) 1.000000
C25_2 C 0.9777(12) 0.3212(6) 0.9719(7)
H13_2 H 0.959034 0.289457 0.948703
C26_2 C 0.9639(11) 0.3789(5) 0.9537(7)
C27_2 C 0.9177(11) 0.3962(6) 0.8963(6)
C28_2 C 0.9019(10) 0.4530(5) 0.8782(5)
C29_2 C 0.8639(8) 0.4712(5) 0.8188(5)
H14_2 H 0.842964 0.447867 0.786083
C30_2 C 0.8441(8) 0.2585(4) 0.7740(6)
C31_2 C 0.7882(6) 0.2837(5) 0.7993(6)
H15_2 H 0.736774 0.269291 0.791192
C32_2 C 0.8093(7) 0.3305(5) 0.8367(6)
H16_2 H 0.771937 0.347297 0.853603
C33_2 C 0.8862(8) 0.3520(4) 0.8488(5)
C34_2 C 0.9420(6) 0.3268(5) 0.8235(6)
H17_2 H 0.993493 0.341255 0.831609
C35_2 C 0.9210(7) 0.2801(5) 0.7861(6)
H18_2 H 0.958332 0.263249 0.769198
C36_2 C 0.8212(16) 0.2094(8) 0.7322(10)
Mo8_3 Mo 0.26866(6) 1.000000 0.29014(5)
Mo10_2 Mo 0.39371(4) 0.92608(3) 0.40467(3)
Mo11_2 Mo 0.34703(4) 0.86979(3) 0.48766(3)
Mo12_2 Mo 0.28489(4) 0.93184(3) 0.60149(3)
Zn7_3 Zn 0.43532(8) 1.000000 0.55036(6)
P2_3 P 0.23226(16) 1.000000 0.44640(12)
O34_3 O 0.2589(6) 1.000000 0.2164(4)
O35_3 O 0.0443(6) 1.000000 0.2160(4)
O37_2 O 0.1802(4) 0.9492(2) 0.2988(3)
O38_2 O 0.3381(4) 0.9420(3) 0.3182(3)
O39_2 O 0.3003(3) 0.8773(2) 0.4011(3)
O40_2 O 0.4648(4) 0.8816(3) 0.3954(3)
O42_2 O 0.4102(4) 0.8147(3) 0.4962(3)
O45_3 O 0.2921(5) 1.000000 0.4063(4)
O47_2 O 0.4140(3) 0.9379(2) 0.4918(3)
O49_2 O 0.3546(3) 0.8889(2) 0.5742(3)
O53_3 O 0.2127(5) 1.000000 0.5945(4)
O54_3 O 0.3534(5) 1.000000 0.5957(4)
O55_3 O 0.5480(5) 1.000000 0.5957(4)
O56_2 O 0.3110(4) 0.9205(3) 0.6761(3)
Mo21_2 Mo 0.95891(4) 0.92588(3) 0.59501(3)
Mo22_2 Mo 0.85554(4) 0.86989(3) 0.51220(3)
O79_2 O 0.9649(3) 0.9418(3) 0.6815(3)
O81_2 O 0.8688(4) 0.8779(2) 0.5984(3)
O82_2 O 0.9186(3) 0.9380(2) 0.5080(3)
O83_2 O 0.9123(4) 0.8147(3) 0.5045(3)
O85_2 O 0.9637(4) 0.8810(3) 0.3957(3)
O43_2 O 0.9637(4) 0.1190(3) 0.3957(3)
O71_4 O 0.3003(3) 0.1227(2) 0.4011(3)
O72_4 O 0.4648(4) 0.1184(3) 0.3954(3)
O74_4 O 0.4102(4) 0.1853(3) 0.4962(3)
O77_4 O 0.3546(3) 0.1111(2) 0.5742(3)
O78_4 O 0.3110(4) 0.0795(3) 0.6761(3)
loop_
_geom_bond_atom_site_label_1
_geom_bond_atom_site_label_2
_geom_bond_site_symmetry_1
_geom_bond_site_symmetry_2
Zn4 N1 1_555 1_555
O28 C24 1_555 1_555
O29 C24 1_555 1_555
N3 Zn4 1_555 1_555
H7 C13 1_555 1_555
C14 N1 1_555 1_555
C15 C14 1_555 1_555
C16 N3 1_555 1_555
C17 C16 1_555 1_555
H8 C17 1_555 1_555
C18 C19 1_555 1_555
C19 H9 1_555 1_555
C20 C19 1_555 1_555
H10 C20 1_555 1_555
C21 C15 1_555 1_555
C22 C21 1_555 1_555
H11 C22 1_555 1_555
C23 C18 1_555 1_555
H12 C23 1_555 1_555
C24 C18 1_555 1_555
Zn11 O28 1_555 1_555
O29 Zn11 1_555 1_555
C13 C14 1_555 1_555
C15 C16 1_555 1_555
C20 C21 1_555 1_555
C22 C23 1_555 1_555
Mo1 O3 1_555 1_555
Mo2 O4 1_555 1_555
Mo3 O7 1_555 1_555
Mo4 O8 1_555 1_555
Mo5 O15 1_555 1_555
Mo6 O5 1_555 1_555
Mo7 O19 1_555 1_555
Zn1 O1 1_555 1_555
Zn2 O20 1_555 1_555
Zn3 O16 1_555 1_555
Zn4_2 N1_2 1_555 1_555
P1 O13 1_555 1_555
O1 C12 1_555 1_555
O2 Zn1 1_555 1_555
O5 Mo2 1_555 1_555
O6 Mo1 1_555 1_555
O7 Mo1 1_555 1_555
O8 Mo3 1_555 1_555
O9 Mo3 1_555 1_555
O10 Mo4 1_555 1_555
O11 Mo4 1_555 1_555
O12 Mo6 1_555 1_555
O13 Mo6 1_555 1_555
O14 Mo3 1_555 1_555
O15 Mo4 1_555 1_555
O16 Mo3 1_555 1_555
O17 Mo5 1_555 1_555
O18 Mo4 1_555 1_555
O19 Mo6 1_555 1_555
O20 Mo6 1_555 1_555
O21 Zn2 1_555 1_555
O22 Mo5 1_555 1_555
O23 Mo5 1_555 1_555
O25 Mo5 1_555 1_555
O26 Mo7 1_555 1_555
N1_2 C2 1_555 1_555
N2 Zn4_2 1_555 1_555
C1 H1 1_555 1_555
C2 C1 1_555 1_555
C3 C2 1_555 1_555
C4 N2 1_555 1_555
C5 C4 1_555 1_555
H2 C5 1_555 1_555
C6 C7 1_555 1_555
C7 H3 1_555 1_555
C8 C7 1_555 1_555
H4 C8 1_555 1_555
C9 C3 1_555 1_555
C10 C9 1_555 1_555
H5 C10 1_555 1_555
C11 C6 1_555 1_555
H6 C11 1_555 1_555
C12 O2 1_555 1_555
O27 Mo7 1_555 1_555
O55 Mo3 1_555 1_555
Mo18 O14 1_555 1_555
Mo19 O27 1_555 1_555
Mo20 O22 1_555 1_555
Zn9 O19 1_555 1_555
O69 Mo1 1_555 1_555
O70 Mo1 1_555 1_555
O71 Mo18 1_555 1_555
O72 Mo18 1_555 1_555
O73 Mo7 1_555 1_555
O74 Mo19 1_555 1_555
O75 Zn3 1_555 1_555
O76 Mo7 1_555 1_555
O77 Mo19 1_555 1_555
O78 Mo20 1_555 1_555
Mo21 O13 1_555 1_555
Mo22 O10 1_555 1_555
O79 Mo2 1_555 1_555
O80 Mo21 1_555 1_555
O81 Zn1 1_555 1_555
O82 Zn2 1_555 1_555
O83 Mo22 1_555 1_555
Mo23 O21 1_555 1_555
Mo24 O86 1_555 1_555
O84 Mo23 1_555 1_555
O85 Mo23 1_555 1_555
O86 Mo23 1_555 1_555
O87 Mo23 1_555 1_555
O88 Mo24 1_555 1_555
Mo27 O84 1_555 1_555
Mo32 O21 1_555 1_555
Zn11 O86 1_555 1_555
Zn14 O87 1_555 1_555
O90 Zn9 1_555 1_555
O92 Zn9 1_555 1_555
O96 Mo24 1_555 1_555
O98 Mo23 1_555 1_555
O100 Mo24 1_555 1_555
O103 Mo24 1_555 1_555
O109 Mo6 1_555 1_555
Mo2 O6 1_555 1_555
Mo2 O69 1_555 1_555
Mo4 O16 1_555 1_555
Mo5 O18 1_555 1_555
Mo7 O20 1_555 1_555
Zn1 O6 1_555 1_555
Zn1 O8 1_555 1_555
Zn2 O22 1_555 1_555
Zn3 O23 1_555 1_555
P1 O14 1_555 1_555
P1 O15 1_555 1_555
P1 O27 1_555 1_555
O15 Mo22 1_555 1_555
O17 Mo22 1_555 1_555
O23 Mo20 1_555 1_555
C3 C4 1_555 1_555
C6 C12 1_555 1_555
C8 C9 1_555 1_555
C10 C11 1_555 1_555
O27 Mo20 1_555 1_555
O55 Mo18 1_555 1_555
Mo18 O70 1_555 1_555
Mo18 O75 1_555 1_555
Mo19 O71 1_555 1_555
Mo19 O73 1_555 1_555
Mo19 O75 1_555 1_555
Mo20 O76 1_555 1_555
Mo20 O77 1_555 1_555
Zn9 O69 1_555 1_555
Zn9 O71 1_555 1_555
Mo21 O79 1_555 1_555
Mo21 O81 1_555 1_555
Mo21 O82 1_555 1_555
Mo21 O109 1_555 1_555
Mo22 O81 1_555 1_555
Mo22 O82 1_555 1_555
Mo24 O87 1_555 1_555
Mo32 O98 1_555 1_555
Zn14 O109 1_555 1_555
N3_2 Zn4_3 1_555 1_555
N4 Zn4_3 1_555 1_555
O32 C48 1_555 1_555
O33 C48 1_555 1_555
H19 C37 1_555 1_555
C38 N4 1_555 1_555
C39 C38 1_555 1_555
C40 N3_2 1_555 1_555
H20 C41 1_555 1_555
C42 C43 1_555 1_555
C43 H21 1_555 1_555
C44 C43 1_555 1_555
H22 C44 1_555 1_555
C45 C39 1_555 1_555
C46 C45 1_555 1_555
H23 C46 1_555 1_555
C47 C42 1_555 1_555
H24 C47 1_555 1_555
C48 C42 1_555 1_555
Zn13 O32 1_555 1_555
O33 Zn13 1_555 1_555
C37 C38 1_555 1_555
C39 C40 1_555 1_555
C40 C41 1_555 1_555
C44 C45 1_555 1_555
C46 C47 1_555 1_555
N2_2 Zn4_4 1_555 1_555
O90 C36 1_555 1_555
O92 C36 1_555 1_555
N4_2 Zn4_4 1_555 1_555
C25 H13 1_555 1_555
C26 N4_2 1_555 1_555
C27 C26 1_555 1_555
C28 N2_2 1_555 1_555
H14 C29 1_555 1_555
C30 C31 1_555 1_555
C31 H15 1_555 1_555
C32 C31 1_555 1_555
H16 C32 1_555 1_555
C33 C27 1_555 1_555
C34 C33 1_555 1_555
H17 C34 1_555 1_555
C35 C30 1_555 1_555
H18 C35 1_555 1_555
C36 C30 1_555 1_555
C25 C26 1_555 1_555
C27 C28 1_555 1_555
C28 C29 1_555 1_555
C32 C33 1_555 1_555
C34 C35 1_555 1_555
Mo8 O34 1_555 1_555
Mo27 O35 1_555 1_555
Mo10 O24 1_555 1_555
Mo11 O39 1_555 1_555
Mo12 O100 1_555 1_555
Mo32 O36 1_555 1_555
Mo14 O50 1_555 1_555
Zn11 O37 1_555 1_555
Zn14 O51 1_555 1_555
Zn7 O47 1_555 1_555
P2 O98 1_555 1_555
O36 Mo27 1_555 1_555
O37 Mo8 1_555 1_555
O38 Mo8 1_555 1_555
O39 Mo10 1_555 1_555
O40 Mo10 1_555 1_555
O96 Mo11 1_555 1_555
O42 Mo11 1_555 1_555
O43 Mo32 1_555 1_555
O45 Mo10 1_555 1_555
O100 Mo11 1_555 1_555
O47 Mo10 1_555 1_555
O103 Mo12 1_555 1_555
O49 Mo11 1_555 1_555
O50 Mo32 1_555 1_555
O51 Mo32 1_555 1_555
O53 Mo12 1_555 1_555
O54 Mo12 1_555 1_555
O56 Mo12 1_555 1_555
O57 Mo14 1_555 1_555
O58 Mo14 1_555 1_555
Mo28 O24 1_555 1_555
Mo29 O58 1_555 1_555
Mo30 O53 1_555 1_555
Zn13 O50 1_555 1_555
O94 Mo8 1_555 1_555
O95 Mo8 1_555 1_555
O97 Mo14 1_555 1_555
O102 Zn7 1_555 1_555
O104 Mo14 1_555 1_555
Mo27 O37 1_555 1_555
Mo27 O94 1_555 1_555
Mo10 O38 1_555 1_555
Mo11 O47 1_555 1_555
Mo12 O49 1_555 1_555
Mo14 O51 1_555 1_555
Zn11 O39 1_555 1_555
Zn14 O53 1_555 1_555
Zn7 O54 1_555 1_555
P2 O45 1_555 1_555
P2 O100 1_555 1_555
P2 O58 1_555 1_555
O45 Mo28 1_555 1_555
O54 Mo30 1_555 1_555
O58 Mo30 1_555 1_555
Mo28 O95 1_555 1_555
Mo28 O102 1_555 1_555
Mo29 O97 1_555 1_555
Mo29 O102 1_555 1_555
Mo30 O104 1_555 1_555
Zn13 O94 1_555 1_555
O71_2 Mo28 1_555 1_555
O72_2 Mo28 1_555 1_555
O74_2 Mo29 1_555 1_555
O77_2 Mo29 1_555 1_555
O78_2 Mo30 1_555 1_555
Mo29 O71_2 1_555 1_555
Mo30 O77_2 1_555 1_555
Zn13 O71_2 1_555 1_555
Mo32_2 O98_2 1_555 1_555
Zn14_2 O109_2 1_555 1_555
Zn4_5 N1_3 1_555 1_555
O28_2 C24_2 1_555 1_555
O29_2 C24_2 1_555 1_555
N3_3 Zn4_5 1_555 1_555
H7_2 C13_2 1_555 1_555
C14_2 N1_3 1_555 1_555
C15_2 C14_2 1_555 1_555
C16_2 N3_3 1_555 1_555
C17_2 C16_2 1_555 1_555
H8_2 C17_2 1_555 1_555
C18_2 C19_2 1_555 1_555
C19_2 H9_2 1_555 1_555
C20_2 C19_2 1_555 1_555
H10_2 C20_2 1_555 1_555
C21_2 C15_2 1_555 1_555
C22_2 C21_2 1_555 1_555
H11_2 C22_2 1_555 1_555
C23_2 C18_2 1_555 1_555
H12_2 C23_2 1_555 1_555
C24_2 C18_2 1_555 1_555
N4_3 Zn4_5 1_555 1_555
O32_2 C48_2 1_555 1_555
O33_2 C48_2 1_555 1_555
H19_2 C37_2 1_555 1_555
C38_2 N4_3 1_555 1_555
C39_2 C38_2 1_555 1_555
C40_2 N3_3 1_555 1_555
C41_2 C17_2 1_555 1_555
H20_2 C41_2 1_555 1_555
C42_2 C43_2 1_555 1_555
C43_2 H21_2 1_555 1_555
C44_2 C43_2 1_555 1_555
H22_2 C44_2 1_555 1_555
C45_2 C39_2 1_555 1_555
C46_2 C45_2 1_555 1_555
H23_2 C46_2 1_555 1_555
C47_2 C42_2 1_555 1_555
H24_2 C47_2 1_555 1_555
C48_2 C42_2 1_555 1_555
Zn11_2 O28_2 1_555 1_555
Zn13_2 O32_2 1_555 1_555
O29_2 Zn11_2 1_555 1_555
C13_2 C14_2 1_555 1_555
C15_2 C16_2 1_555 1_555
C20_2 C21_2 1_555 1_555
C22_2 C23_2 1_555 1_555
O33_2 Zn13_2 1_555 1_555
C37_2 C38_2 1_555 1_555
C39_2 C40_2 1_555 1_555
C40_2 C41_2 1_555 1_555
C44_2 C45_2 1_555 1_555
C46_2 C47_2 1_555 1_555
Zn4_6 N1_4 1_555 1_555
N4_4 Zn4_6 1_555 1_555
Mo24_2 O86_2 1_555 1_555
O84_2 Mo23_2 1_555 1_555
O86_2 Mo23_2 1_555 1_555
O87_2 Mo23_2 1_555 1_555
O88_2 Mo24_2 1_555 1_555
Mo27_3 O84_2 1_555 1_555
Zn11_2 O86_2 1_555 1_555
Zn14_3 O87_2 1_555 1_555
O96_2 Mo24_2 1_555 1_555
O98_3 Mo23_2 1_555 1_555
O100_2 Mo24_2 1_555 1_555
O103_2 Mo24_2 1_555 1_555
Mo24_2 O87_2 1_555 1_555
Zn14_3 O109_3 1_555 1_555
Mo1_2 O3_2 1_555 1_555
Mo2_2 O4_2 1_555 1_555
Mo6_2 O5_2 1_555 1_555
Mo7_2 O19_2 1_555 1_555
Zn2_2 O20_2 1_555 1_555
P1_2 O13_2 1_555 1_555
O5_2 Mo2_2 1_555 1_555
O13_2 Mo6_2 1_555 1_555
O19_2 Mo6_2 1_555 1_555
O20_2 Mo6_2 1_555 1_555
O21_2 Zn2_2 1_555 1_555
O24_2 Zn3_2 1_555 1_555
O26_2 Mo7_2 1_555 1_555
O27_2 Mo7_2 1_555 1_555
Mo8_2 O34_2 1_555 1_555
Mo27_2 O35_2 1_555 1_555
Mo32_2 O36_2 1_555 1_555
Mo14_2 O50_2 1_555 1_555
Zn14_2 O51_2 1_555 1_555
P2_2 O98_2 1_555 1_555
O36_2 Mo27_2 1_555 1_555
O50_2 Mo32_2 1_555 1_555
O51_2 Mo32_2 1_555 1_555
O57_2 Mo14_2 1_555 1_555
O58_2 Mo14_2 1_555 1_555
Mo18_2 O14_2 1_555 1_555
Mo19_2 O27_2 1_555 1_555
Mo20_2 O22_2 1_555 1_555
Zn9_2 O19_2 1_555 1_555
O69_2 Mo1_2 1_555 1_555
O70_2 Mo1_2 1_555 1_555
O71_3 Mo18_2 1_555 1_555
O72_3 Mo18_2 1_555 1_555
O73_2 Mo7_2 1_555 1_555
O74_3 Mo19_2 1_555 1_555
O75_2 Zn3_2 1_555 1_555
O76_2 Mo7_2 1_555 1_555
O77_3 Mo19_2 1_555 1_555
O78_3 Mo20_2 1_555 1_555
Mo28_2 O24_2 1_555 1_555
Mo29_2 O58_2 1_555 1_555
Mo30_2 O53_2 1_555 1_555
Zn13_2 O50_2 1_555 1_555
O90_2 Zn9_2 1_555 1_555
O92_2 Zn9_2 1_555 1_555
O94_2 Mo8_2 1_555 1_555
O95_2 Mo8_2 1_555 1_555
O97_2 Mo14_2 1_555 1_555
O102_2 Zn7_2 1_555 1_555
O104_2 Mo14_2 1_555 1_555
Mo2_2 O69_2 1_555 1_555
Mo7_2 O20_2 1_555 1_555
Zn2_2 O22_2 1_555 1_555
Zn3_2 O23_2 1_555 1_555
P1_2 O14_2 1_555 1_555
P1_2 O27_2 1_555 1_555
O23_2 Mo20_2 1_555 1_555
O27_2 Mo20_2 1_555 1_555
Mo27_2 O94_2 1_555 1_555
Mo14_2 O51_2 1_555 1_555
Zn14_2 O53_2 1_555 1_555
Zn7_2 O54_2 1_555 1_555
Zn7_2 O55_2 1_555 1_555
P2_2 O45_2 1_555 1_555
P2_2 O58_2 1_555 1_555
O45_2 Mo28_2 1_555 1_555
O54_2 Mo30_2 1_555 1_555
O55_2 Mo18_2 1_555 1_555
O58_2 Mo30_2 1_555 1_555
Mo18_2 O70_2 1_555 1_555
Mo18_2 O75_2 1_555 1_555
Mo19_2 O71_3 1_555 1_555
Mo19_2 O73_2 1_555 1_555
Mo19_2 O75_2 1_555 1_555
Mo20_2 O76_2 1_555 1_555
Mo20_2 O77_3 1_555 1_555
Zn9_2 O69_2 1_555 1_555
Zn9_2 O71_3 1_555 1_555
Mo28_2 O95_2 1_555 1_555
Mo28_2 O102_2 1_555 1_555
Mo29_2 O97_2 1_555 1_555
Mo29_2 O102_2 1_555 1_555
Mo30_2 O104_2 1_555 1_555
Zn13_2 O94_2 1_555 1_555
Zn4_7 N1_5 1_555 1_555
N4_5 Zn4_7 1_555 1_555
Mo1_3 O3_3 1_555 1_555
Mo2_3 O4_3 1_555 1_555
Mo3_2 O7_2 1_555 1_555
Mo4_2 O8_2 1_555 1_555
Mo5_2 O15_2 1_555 1_555
Zn1_2 O1_2 1_555 1_555
Zn3_3 O16_2 1_555 1_555
Zn4_8 N1_6 1_555 1_555
P1_3 O13_3 1_555 1_555
O1_2 C12_2 1_555 1_555
O2_2 Zn1_2 1_555 1_555
O6_2 Mo1_3 1_555 1_555
O7_2 Mo1_3 1_555 1_555
O8_2 Mo3_2 1_555 1_555
O9_2 Mo3_2 1_555 1_555
O10_2 Mo4_2 1_555 1_555
O11_2 Mo4_2 1_555 1_555
O14_3 Mo3_2 1_555 1_555
O15_2 Mo4_2 1_555 1_555
O16_2 Mo3_2 1_555 1_555
O17_2 Mo5_2 1_555 1_555
O18_2 Mo4_2 1_555 1_555
O21_3 Zn2_3 1_555 1_555
O22_3 Mo5_2 1_555 1_555
O23_3 Mo5_2 1_555 1_555
O24_3 Zn3_3 1_555 1_555
O25_2 Mo5_2 1_555 1_555
N1_6 C2_2 1_555 1_555
N2_3 Zn4_8 1_555 1_555
C1_2 H1_2 1_555 1_555
C2_2 C1_2 1_555 1_555
C3_2 C2_2 1_555 1_555
C4_2 N2_3 1_555 1_555
C5_2 C4_2 1_555 1_555
H2_2 C5_2 1_555 1_555
C6_2 C7_2 1_555 1_555
C7_2 H3_2 1_555 1_555
C8_2 C7_2 1_555 1_555
H4_2 C8_2 1_555 1_555
C9_2 C3_2 1_555 1_555
C10_2 C9_2 1_555 1_555
H5_2 C10_2 1_555 1_555
C11_2 C6_2 1_555 1_555
H6_2 C11_2 1_555 1_555
C12_2 O2_2 1_555 1_555
O90_2 C36_2 1_555 1_555
O92_2 C36_2 1_555 1_555
N4_6 Zn4_8 1_555 1_555
C25_2 H13_2 1_555 1_555
C26_2 N4_6 1_555 1_555
C27_2 C26_2 1_555 1_555
C28_2 N2_3 1_555 1_555
C29_2 C5_2 1_555 1_555
H14_2 C29_2 1_555 1_555
C30_2 C31_2 1_555 1_555
C31_2 H15_2 1_555 1_555
C32_2 C31_2 1_555 1_555
H16_2 C32_2 1_555 1_555
C33_2 C27_2 1_555 1_555
C34_2 C33_2 1_555 1_555
H17_2 C34_2 1_555 1_555
C35_2 C30_2 1_555 1_555
H18_2 C35_2 1_555 1_555
C36_2 C30_2 1_555 1_555
Mo8_3 O34_3 1_555 1_555
Mo27_3 O35_3 1_555 1_555
Mo10_2 O24_3 1_555 1_555
Mo11_2 O39_2 1_555 1_555
Mo12_2 O100_2 1_555 1_555
Zn11_2 O37_2 1_555 1_555
Zn7_3 O47_2 1_555 1_555
P2_3 O98_3 1_555 1_555
O37_2 Mo8_3 1_555 1_555
O38_2 Mo8_3 1_555 1_555
O39_2 Mo10_2 1_555 1_555
O40_2 Mo10_2 1_555 1_555
O96_2 Mo11_2 1_555 1_555
O42_2 Mo11_2 1_555 1_555
O45_3 Mo10_2 1_555 1_555
O100_2 Mo11_2 1_555 1_555
O47_2 Mo10_2 1_555 1_555
O103_2 Mo12_2 1_555 1_555
O49_2 Mo11_2 1_555 1_555
O53_3 Mo12_2 1_555 1_555
O54_3 Mo12_2 1_555 1_555
O55_3 Mo3_2 1_555 1_555
O56_2 Mo12_2 1_555 1_555
Mo21_2 O13_3 1_555 1_555
Mo22_2 O10_2 1_555 1_555
O79_2 Mo2_3 1_555 1_555
O81_2 Zn1_2 1_555 1_555
O82_2 Zn2_3 1_555 1_555
O83_2 Mo22_2 1_555 1_555
Mo2_3 O6_2 1_555 1_555
Mo4_2 O16_2 1_555 1_555
Mo5_2 O18_2 1_555 1_555
Zn1_2 O6_2 1_555 1_555
Zn1_2 O8_2 1_555 1_555
Zn2_3 O22_3 1_555 1_555
Zn3_3 O23_3 1_555 1_555
P1_3 O14_3 1_555 1_555
P1_3 O15_2 1_555 1_555
O15_2 Mo22_2 1_555 1_555
O17_2 Mo22_2 1_555 1_555
C3_2 C4_2 1_555 1_555
C6_2 C12_2 1_555 1_555
C8_2 C9_2 1_555 1_555
C10_2 C11_2 1_555 1_555
C25_2 C26_2 1_555 1_555
C27_2 C28_2 1_555 1_555
C28_2 C29_2 1_555 1_555
C32_2 C33_2 1_555 1_555
C34_2 C35_2 1_555 1_555
Mo27_3 O37_2 1_555 1_555
Mo10_2 O38_2 1_555 1_555
Mo11_2 O47_2 1_555 1_555
Mo12_2 O49_2 1_555 1_555
Zn11_2 O39_2 1_555 1_555
Zn14_3 O53_3 1_555 1_555
Zn7_3 O54_3 1_555 1_555
Zn7_3 O55_3 1_555 1_555
P2_3 O45_3 1_555 1_555
P2_3 O100_2 1_555 1_555
Mo21_2 O79_2 1_555 1_555
Mo21_2 O81_2 1_555 1_555
Mo21_2 O82_2 1_555 1_555
Mo22_2 O81_2 1_555 1_555
Mo22_2 O82_2 1_555 1_555
O71_4 Mo28_2 1_555 1_555
O72_4 Mo28_2 1_555 1_555
O74_4 Mo29_2 1_555 1_555
O77_4 Mo29_2 1_555 1_555
O78_4 Mo30_2 1_555 1_555
Mo29_2 O71_4 1_555 1_555
Mo30_2 O77_4 1_555 1_555
Zn13_2 O71_4 1_555 1_555

#END
