
###############################################################################
#
# This file contains modified crystal structure data generated from the
# MOF subset of the Cambridge Structural Database (CSD) v543 
# hosted by the Cambridge Crystallographic Data Centre (CCDC).
#
# This work is licensed under the Creative Commons
# Attribution-NonCommercial-ShareAlike 4.0 International License.
# To view a copy of this license, visit
# http://creativecommons.org/licenses/by-nc-sa/4.0/
# or send a letter to
# Creative Commons, PO Box 1866, Mountain View, CA 94042, USA.
#
# CIF created using the CSD Python API on 29 September 2022
# The structure has been converted into the P1 space group
# The structure has a 3D framework
# The original CSD entry RUTPAY01 is in the rhombohedral crystal system
# The framework has been calculated to contain at least 10.0% void space
# The void calculation uses a probe of radius 1.32A, grid spacing 0.4
# H atom positions have been added when not included in the experimental data
#
###############################################################################

data_RUTPAY01
_chemical_formula_moiety         '(C1008 H792 I72 N108 O164 Pd36 Zn56)n'
_symmetry_cell_setting           triclinic
_symmetry_space_group_name_H-M   'P 1'
_symmetry_Int_Tables_number      1
_space_group_name_Hall           'P 1'
loop_
_symmetry_equiv_pos_site_id
_symmetry_equiv_pos_as_xyz
1 x,y,z
_cell_length_a                   31.0845(4)
_cell_length_b                   31.0845(4)
_cell_length_c                   71.018(2)
_cell_angle_alpha                90
_cell_angle_beta                 90
_cell_angle_gamma                120
_cell_volume                     59427.4
loop_
_atom_site_label
_atom_site_type_symbol
_atom_site_fract_x
_atom_site_fract_y
_atom_site_fract_z
C45 C 0.5309(7) 0.0224(11) 0.1756(3)
H30 H 0.5648 0.0435 0.1739
C51 C 0.6103(9) 0.2236(13) 0.2300(3)
C53 C 0.5061(9) 0.0339(12) 0.1890(3)
C61 C 0.4258(6) 0.0234(8) 0.2222(2)
H40 H 0.4324 0.0553 0.2178
H42 H 0.4530 0.0273 0.2298
H44 H 0.3958 0.0084 0.2295
C63 C 0.5329(12) 0.0830(18) 0.2006(3)
C65 C 0.5979(7) 0.1422(15) 0.2193(3)
H46 H 0.6283 0.1534 0.2252
C67 C 0.5132(6) 0.1139(14) 0.2003(2)
H48 H 0.4847 0.1045 0.1932
C69 C 0.5343(11) 0.1595(13) 0.2102(4)
H50 H 0.5198 0.1794 0.2102
C71 C 0.5759(11) 0.1720(17) 0.2194(2)
C73 C 0.5751(11) 0.0962(14) 0.2105(4)
H52 H 0.5882 0.0752 0.2114
O13 O 0.6511(6) 0.2357(7) 0.23565(15)
O18 O 0.5798(4) 0.2398(6) 0.23307(12)
Zn7 Zn 0.69702(6) 0.29564(6) 0.24657(2)
Zn8 Zn 0.59861(8) 0.30298(6) 0.24657(2)
C1 C 0.3866(5) 0.6153(5) 0.1184(3)
C2 C 0.4055(5) 0.5943(5) 0.1502(4)
H1 H 0.3844 0.6047 0.1550
C3 C 0.4296(8) 0.5794(6) 0.1625(3)
H2 H 0.4261 0.5808 0.1755
C4 C 0.4596(8) 0.5622(5) 0.1548(3)
C5 C 0.4656(6) 0.5599(5) 0.1361(3)
H3 H 0.4851 0.5477 0.1311
C6 C 0.4404(6) 0.5769(5) 0.1245(2)
H4 H 0.4443 0.5761 0.1116
C7 C 0.4111(6) 0.5944(5) 0.1309(3)
C8 C 0.4851(7) 0.5427(9) 0.1673(3)
C9 C 0.4915(9) 0.4691(7) 0.1756(3)
H5 H 0.4787 0.4352 0.1739
C10 C 0.4735(6) 0.4944(11) 0.1646(2)
H6 H 0.4522 0.4770 0.1548
C11 C 0.5396(9) 0.5430(12) 0.1933(3)
C12 C 0.6133(9) 0.3897(9) 0.2300(3)
C13 C 0.5278(8) 0.4939(9) 0.1890(3)
C14 C 0.5748(8) 0.6258(8) 0.2025(4)
C15 C 0.5209(9) 0.5680(11) 0.1811(4)
C16 C 0.5381(5) 0.6579(6) 0.1798(2)
H7 H 0.5399 0.6575 0.1663
H8 H 0.5645 0.6890 0.1844
H9 H 0.5067 0.6541 0.1835
C17 C 0.5976(6) 0.5742(6) 0.2222(2)
H10 H 0.6229 0.5676 0.2178
H11 H 0.5743 0.5470 0.2298
H12 H 0.6126 0.6042 0.2295
C18 C 0.5501(13) 0.4671(12) 0.2006(3)
C19 C 0.5443(13) 0.4021(7) 0.2193(3)
H13 H 0.5251 0.3717 0.2252
C20 C 0.6007(13) 0.4868(6) 0.2003(2)
H14 H 0.6198 0.5153 0.1932
C21 C 0.6252(7) 0.4657(11) 0.2102(4)
H15 H 0.6596 0.4802 0.2102
C22 C 0.5961(13) 0.4241(11) 0.2194(2)
C23 C 0.5211(8) 0.4249(11) 0.2105(4)
H16 H 0.4870 0.4118 0.2114
I1 I 0.53791(5) 0.66034(5) 0.238520(18)
I2 I 0.68509(6) 0.70318(6) 0.19399(3)
N1 N 0.5705(5) 0.5804(10) 0.2053(2)
N2 N 0.5432(8) 0.6170(9) 0.1876(2)
N3 N 0.6569(5) 0.7451(7) 0.2330(3)
C24 C 0.6725(8) 0.7403(6) 0.2508(3)
H17 H 0.6610 0.7090 0.2560
C25 C 0.7055(8) 0.7824(10) 0.2609(2)
H18 H 0.7160 0.7792 0.2728
C26 C 0.7228(7) 0.8293(7) 0.2531(3)
H19 H 0.7448 0.8575 0.2599
C27 C 0.7071(9) 0.8341(6) 0.2353(3)
H20 H 0.7187 0.8655 0.2301
C28 C 0.6742(8) 0.7920(10) 0.22523(19)
H21 H 0.6637 0.7953 0.2133
O1 O 0.3333 0.6667 0.08911(12)
O2 O 0.3593(3) 0.6274(3) 0.12742(11)
O3 O 0.3952(3) 0.6153(3) 0.10197(15)
O4 O 0.5846(3) 0.3489(6) 0.23565(15)
O5 O 0.6600(5) 0.4202(4) 0.23307(12)
Pd1 Pd 0.61396(5) 0.68426(5) 0.21750(2)
Zn1 Zn 0.3333 0.6667 0.11625(3)
Zn2 Zn 0.37103(6) 0.63631(6) 0.07990(2)
C29 C 0.3847(5) 0.7713(7) 0.1184(3)
C30 C 0.2287(7) 0.6134(5) 0.1184(3)
C31 C 0.4057(5) 0.8112(7) 0.1502(4)
C32 C 0.1888(7) 0.5945(5) 0.1502(4)
H22 H 0.3953 0.7797 0.1550
H23 H 0.2203 0.6156 0.1550
C33 C 0.4206(6) 0.8502(10) 0.1625(3)
C34 C 0.1498(10) 0.5704(8) 0.1625(3)
H24 H 0.4192 0.8453 0.1755
H25 H 0.1547 0.5739 0.1755
C35 C 0.4378(5) 0.8974(9) 0.1548(3)
C36 C 0.1026(9) 0.5404(8) 0.1548(3)
C37 C 0.4401(5) 0.9057(8) 0.1361(3)
C38 C 0.0943(8) 0.5344(6) 0.1361(3)
H26 H 0.4523 0.9374 0.1311
H27 H 0.0626 0.5149 0.1311
C39 C 0.4231(5) 0.8635(8) 0.1245(2)
C40 C 0.1365(8) 0.5596(6) 0.1245(2)
H28 H 0.4239 0.8682 0.1116
H29 H 0.1318 0.5557 0.1116
C41 C 0.4056(5) 0.8167(8) 0.1309(3)
C42 C 0.1833(8) 0.5889(6) 0.1309(3)
C43 C 0.4573(9) 0.9424(11) 0.1673(3)
C44 C 0.0576(11) 0.5149(7) 0.1673(3)
C47 C 0.5056(11) 0.9791(13) 0.1646(2)
C48 C 0.0209(13) 0.5265(6) 0.1646(2)
H32 H 0.5230 0.9752 0.1548
H33 H 0.0248 0.5478 0.1548
C49 C 0.4570(12) 0.9966(15) 0.1933(3)
C50 C 0.0034(15) 0.4604(9) 0.1933(3)
C55 C 0.3742(8) 0.9490(11) 0.2025(4)
C56 C 0.0510(11) 0.4252(8) 0.2025(4)
C57 C 0.4320(11) 0.9529(14) 0.1811(4)
C58 C 0.0471(14) 0.4791(9) 0.1811(4)
C59 C 0.3421(6) 0.8802(8) 0.1798(2)
C60 C 0.1198(8) 0.4619(5) 0.1798(2)
H34 H 0.3425 0.8824 0.1663
H35 H 0.1176 0.4601 0.1663
H36 H 0.3110 0.8755 0.1844
H37 H 0.1245 0.4355 0.1844
H38 H 0.3459 0.8526 0.1835
H39 H 0.1474 0.4933 0.1835
I3 I 0.33966(5) 0.87757(7) 0.238520(18)
I4 I 0.12243(7) 0.46209(5) 0.238520(18)
I5 I 0.29682(6) 0.98191(8) 0.19399(3)
I6 I 0.01809(8) 0.31491(6) 0.19399(3)
N4 N 0.4196(10) 0.9901(11) 0.2053(2)
N5 N 0.0099(11) 0.4295(5) 0.2053(2)
N6 N 0.3830(9) 0.9262(12) 0.1876(2)
N7 N 0.0738(12) 0.4568(8) 0.1876(2)
N8 N 0.2549(7) 0.9118(9) 0.2330(3)
N9 N 0.0882(9) 0.3431(5) 0.2330(3)
C75 C 0.2597(6) 0.9322(10) 0.2508(3)
C76 C 0.0678(10) 0.3275(8) 0.2508(3)
H54 H 0.2910 0.9520 0.2560
H55 H 0.0480 0.3390 0.2560
C77 C 0.2176(10) 0.9231(13) 0.2609(2)
C78 C 0.0769(13) 0.2945(8) 0.2609(2)
H56 H 0.2208 0.9368 0.2728
H57 H 0.0632 0.2840 0.2728
C79 C 0.1707(7) 0.8935(10) 0.2531(3)
C80 C 0.1065(10) 0.2772(7) 0.2531(3)
H58 H 0.1425 0.8873 0.2599
H59 H 0.1127 0.2552 0.2599
C81 C 0.1659(6) 0.8730(11) 0.2353(3)
C82 C 0.1270(11) 0.2929(9) 0.2353(3)
H60 H 0.1345 0.8532 0.2301
H61 H 0.1468 0.2813 0.2301
C83 C 0.2080(10) 0.8822(13) 0.22523(19)
C84 C 0.1178(13) 0.3258(8) 0.22523(19)
H62 H 0.2047 0.8684 0.2133
H63 H 0.1316 0.3363 0.2133
O6 O 0.3726(3) 0.7319(4) 0.12742(11)
O7 O 0.2681(4) 0.6407(3) 0.12742(11)
O8 O 0.3847(3) 0.7799(4) 0.10197(15)
O9 O 0.2201(4) 0.6048(3) 0.10197(15)
O10 O 0.4310(7) 0.6822(6) 0.06898(15)
O11 O 0.3178(6) 0.7487(3) 0.06898(15)
O12 O 0.2513(3) 0.5690(7) 0.06898(15)
O15 O 0.3267(5) 0.5731(6) 0.06640(12)
O16 O 0.4269(6) 0.7535(4) 0.06640(12)
O17 O 0.2465(4) 0.6733(5) 0.06640(12)
Pd2 Pd 0.31574(5) 0.92970(7) 0.21750(2)
Pd3 Pd 0.07030(7) 0.38604(5) 0.21750(2)
Zn4 Zn 0.36369(6) 0.73472(8) 0.07990(2)
Zn5 Zn 0.26528(8) 0.62897(6) 0.07990(2)
Zn6 Zn 0.70436(6) 0.40139(8) 0.24657(2)
H64 H 0.605829 0.636317 0.192908
H65 H 0.0304882 0.394171 0.192908
H66 H 0.363683 0.969512 0.192908
C46 C 0.9776(11) 0.5085(9) 0.1756(3)
H31 H 0.9565 0.5213 0.1739
C52 C 0.7764(13) 0.3867(9) 0.2300(3)
C54 C 0.9661(12) 0.4722(8) 0.1890(3)
C62 C 0.9766(8) 0.4024(6) 0.2222(2)
H41 H 0.9447 0.3771 0.2178
H43 H 0.9727 0.4257 0.2298
H45 H 0.9916 0.3874 0.2295
C64 C 0.9170(18) 0.4499(13) 0.2006(3)
C66 C 0.8578(15) 0.4557(13) 0.2193(3)
H47 H 0.8466 0.4749 0.2252
C68 C 0.8861(14) 0.3993(13) 0.2003(2)
H49 H 0.8955 0.3802 0.1932
C70 C 0.8405(13) 0.3748(7) 0.2102(4)
H51 H 0.8206 0.3404 0.2102
C72 C 0.8280(17) 0.4039(13) 0.2194(2)
C74 C 0.9038(14) 0.4789(8) 0.2105(4)
H53 H 0.9248 0.5130 0.2114
O14 O 0.7643(7) 0.4154(3) 0.23565(15)
O19 O 0.7602(6) 0.3400(5) 0.23307(12)
H8_2 H 0.2312 0.0223 0.5177
I2_2 I 0.35176(6) 0.03651(6) 0.52732(3)
N3_2 N 0.3236(5) 0.0784(7) 0.5663(3)
C24_2 C 0.3392(8) 0.0736(6) 0.5841(3)
H17_2 H 0.3277 0.0423 0.5893
C25_2 C 0.3722(8) 0.1157(10) 0.5942(2)
H18_2 H 0.3827 0.1125 0.6061
C26_2 C 0.3895(7) 0.1626(7) 0.5864(3)
H19_2 H 0.4115 0.1908 0.5932
C27_2 C 0.3738(9) 0.1674(6) 0.5686(3)
H20_2 H 0.3854 0.1988 0.5634
C28_2 C 0.3409(8) 0.1253(10) 0.55856(19)
H21_2 H 0.3304 0.1286 0.5466
Pd1_2 Pd 0.28063(5) 0.01759(5) 0.55083(2)
C29_2 C 0.0514(5) 0.1046(7) 0.4517(3)
C31_2 C 0.0724(5) 0.1445(7) 0.4835(4)
H22_2 H 0.0620 0.1130 0.4883
C33_2 C 0.0873(6) 0.1835(10) 0.4958(3)
H24_2 H 0.0859 0.1786 0.5088
C35_2 C 0.1045(5) 0.2307(9) 0.4881(3)
C37_2 C 0.1068(5) 0.2390(8) 0.4694(3)
H26_2 H 0.1190 0.2707 0.4644
C39_2 C 0.0898(5) 0.1968(8) 0.4578(2)
H28_2 H 0.0906 0.2015 0.4449
C41_2 C 0.0723(5) 0.1500(8) 0.4642(3)
C43_2 C 0.1240(9) 0.2757(11) 0.5006(3)
C45_2 C 0.1976(7) 0.3557(11) 0.5089(3)
H30_2 H 0.2315 0.3768 0.5072
C47_2 C 0.1723(11) 0.3124(13) 0.4979(2)
H32_2 H 0.1897 0.3085 0.4881
C49_2 C 0.1237(12) 0.3299(15) 0.5266(3)
C51_2 C 0.2770(9) 0.5569(13) 0.5633(3)
C53_2 C 0.1728(9) 0.3672(12) 0.5223(3)
C55_2 C 0.0409(8) 0.2823(11) 0.5358(4)
C57_2 C 0.0987(11) 0.2862(14) 0.5144(4)
C59_2 C 0.0088(6) 0.2135(8) 0.5131(2)
H34_2 H 0.0092 0.2157 0.4996
H38_2 H 0.0126 0.1859 0.5168
C61_2 C 0.0925(6) 0.3567(8) 0.5555(2)
H40_2 H 0.0991 0.3886 0.5511
H42_2 H 0.1197 0.3606 0.5631
H44_2 H 0.0625 0.3417 0.5628
C63_2 C 0.1996(12) 0.4163(18) 0.5339(3)
C65_2 C 0.2646(7) 0.4755(15) 0.5526(3)
H46_2 H 0.2950 0.4867 0.5585
C67_2 C 0.1799(6) 0.4472(14) 0.5336(2)
H48_2 H 0.1514 0.4378 0.5265
C69_2 C 0.2010(11) 0.4928(13) 0.5435(4)
H50_2 H 0.1865 0.5127 0.5435
C71_2 C 0.2426(11) 0.5053(17) 0.5527(2)
C73_2 C 0.2418(11) 0.4295(14) 0.5438(4)
H52_2 H 0.2549 0.4085 0.5447
I3_2 I 0.00633(5) 0.21090(7) 0.571853(18)
N4_2 N 0.0863(10) 0.3234(11) 0.5386(2)
N6_2 N 0.0497(9) 0.2595(12) 0.5209(2)
O6_2 O 0.0393(3) 0.0652(4) 0.46075(11)
O8_2 O 0.0514(3) 0.1132(4) 0.43530(15)
O10_2 O 0.0976(7) 0.0156(6) 0.40232(15)
O13_2 O 0.3178(6) 0.5690(7) 0.56898(15)
O16_2 O 0.0935(6) 0.0869(4) 0.39974(12)
O18_2 O 0.2465(4) 0.5731(6) 0.56640(12)
Zn4_2 Zn 0.03036(6) 0.06805(8) 0.41323(2)
Zn7_2 Zn 0.36369(6) 0.62897(6) 0.57990(2)
Zn8_2 Zn 0.26528(8) 0.63631(6) 0.57990(2)
H66_2 H 0.0303499 0.302845 0.526241
C1_2 C 0.0533(5) 0.9486(5) 0.4517(3)
C2_2 C 0.0722(5) 0.9276(5) 0.4835(4)
H1_2 H 0.0511 0.9380 0.4883
C3_2 C 0.0963(8) 0.9127(6) 0.4958(3)
H2_2 H 0.0928 0.9141 0.5088
C4_2 C 0.1263(8) 0.8955(5) 0.4881(3)
C5_2 C 0.1323(6) 0.8932(5) 0.4694(3)
H3_2 H 0.1518 0.8810 0.4644
C6_2 C 0.1071(6) 0.9102(5) 0.4578(2)
H4_2 H 0.1110 0.9094 0.4449
C7_2 C 0.0778(6) 0.9277(5) 0.4642(3)
C8_2 C 0.1518(7) 0.8760(9) 0.5006(3)
C9_2 C 0.1582(9) 0.8024(7) 0.5089(3)
H5_2 H 0.1454 0.7685 0.5072
C10_2 C 0.1402(6) 0.8277(11) 0.4979(2)
H6_2 H 0.1189 0.8103 0.4881
C11_2 C 0.2063(9) 0.8763(12) 0.5266(3)
C12_2 C 0.2800(9) 0.7230(9) 0.5633(3)
C13_2 C 0.1945(8) 0.8272(9) 0.5223(3)
C14_2 C 0.2415(8) 0.9591(8) 0.5358(4)
C15_2 C 0.1876(9) 0.9013(11) 0.5144(4)
C16_2 C 0.2048(5) 0.9912(6) 0.5131(2)
H7_2 H 0.2066 0.9908 0.4996
H9_2 H 0.1734 0.9874 0.5168
C17_2 C 0.2643(6) 0.9075(6) 0.5555(2)
H10_2 H 0.2896 0.9009 0.5511
H11_2 H 0.2410 0.8803 0.5631
H12_2 H 0.2793 0.9375 0.5628
C18_2 C 0.2168(13) 0.8004(12) 0.5339(3)
C19_2 C 0.2110(13) 0.7354(7) 0.5526(3)
H13_2 H 0.1918 0.7050 0.5585
C20_2 C 0.2674(13) 0.8201(6) 0.5336(2)
H14_2 H 0.2865 0.8486 0.5265
C21_2 C 0.2919(7) 0.7990(11) 0.5435(4)
H15_2 H 0.3263 0.8135 0.5435
C22_2 C 0.2628(13) 0.7574(11) 0.5527(2)
C23_2 C 0.1878(8) 0.7582(11) 0.5438(4)
H16_2 H 0.1537 0.7451 0.5447
I1_2 I 0.20458(5) 0.99367(5) 0.571853(18)
N1_2 N 0.2372(5) 0.9137(10) 0.5386(2)
N2_2 N 0.2099(8) 0.9503(9) 0.5209(2)
O2_2 O 0.0260(3) 0.9607(3) 0.46075(11)
O3_2 O 0.0619(3) 0.9486(3) 0.43530(15)
O4_2 O 0.2513(3) 0.6822(6) 0.56898(15)
O5_2 O 0.3267(5) 0.7535(4) 0.56640(12)
Zn2_2 Zn 0.03770(6) 0.96964(6) 0.41323(2)
Zn6_2 Zn 0.37103(6) 0.73472(8) 0.57990(2)
H64_2 H 0.272495 0.96965 0.526241
O1_2 O 1.0000 0.0000 0.42244(12)
Zn1_2 Zn 1.0000 0.0000 0.44958(3)
H36_2 H 0.9777 0.2088 0.5177
I5_2 I 0.96349(6) 0.31524(8) 0.52732(3)
N8_2 N 0.9216(7) 0.2451(9) 0.5663(3)
C75_2 C 0.9264(6) 0.2655(10) 0.5841(3)
H54_2 H 0.9577 0.2853 0.5893
C77_2 C 0.8843(10) 0.2564(13) 0.5942(2)
H56_2 H 0.8875 0.2701 0.6061
C79_2 C 0.8374(7) 0.2268(10) 0.5864(3)
H58_2 H 0.8092 0.2206 0.5932
C81_2 C 0.8326(6) 0.2063(11) 0.5686(3)
H60_2 H 0.8012 0.1865 0.5634
C83_2 C 0.8747(10) 0.2155(13) 0.55856(19)
H62_2 H 0.8714 0.2017 0.5466
O11_2 O 0.9844(6) 0.0821(3) 0.40232(15)
O17_2 O 0.9131(4) 0.0067(5) 0.39974(12)
Pd2_2 Pd 0.98241(5) 0.26303(7) 0.55083(2)
C30_2 C 0.8954(7) 0.9467(5) 0.4517(3)
C32_2 C 0.8555(7) 0.9278(5) 0.4835(4)
H23_2 H 0.8870 0.9489 0.4883
C34_2 C 0.8165(10) 0.9037(8) 0.4958(3)
H25_2 H 0.8214 0.9072 0.5088
C36_2 C 0.7693(9) 0.8737(8) 0.4881(3)
C38_2 C 0.7610(8) 0.8677(6) 0.4694(3)
H27_2 H 0.7293 0.8482 0.4644
C40_2 C 0.8032(8) 0.8929(6) 0.4578(2)
H29_2 H 0.7985 0.8890 0.4449
C42_2 C 0.8500(8) 0.9222(6) 0.4642(3)
C44_2 C 0.7243(11) 0.8482(7) 0.5006(3)
C46_2 C 0.6443(11) 0.8418(9) 0.5089(3)
H31_2 H 0.6232 0.8546 0.5072
C48_2 C 0.6876(13) 0.8598(6) 0.4979(2)
H33_2 H 0.6915 0.8811 0.4881
C50_2 C 0.6701(15) 0.7937(9) 0.5266(3)
C52_2 C 0.4431(13) 0.7200(9) 0.5633(3)
C54_2 C 0.6328(12) 0.8055(8) 0.5223(3)
C56_2 C 0.7177(11) 0.7585(8) 0.5358(4)
C58_2 C 0.7138(14) 0.8124(9) 0.5144(4)
C60_2 C 0.7865(8) 0.7952(5) 0.5131(2)
H35_2 H 0.7843 0.7934 0.4996
H37_2 H 0.7912 0.7688 0.5177
H39_2 H 0.8141 0.8266 0.5168
C62_2 C 0.6433(8) 0.7357(6) 0.5555(2)
H41_2 H 0.6114 0.7104 0.5511
H43_2 H 0.6394 0.7590 0.5631
H45_2 H 0.6583 0.7207 0.5628
C64_2 C 0.5837(18) 0.7832(13) 0.5339(3)
C66_2 C 0.5245(15) 0.7890(13) 0.5526(3)
H47_2 H 0.5133 0.8082 0.5585
C68_2 C 0.5528(14) 0.7326(13) 0.5336(2)
H49_2 H 0.5622 0.7135 0.5265
C70_2 C 0.5072(13) 0.7081(7) 0.5435(4)
H51_2 H 0.4873 0.6737 0.5435
C72_2 C 0.4947(17) 0.7372(13) 0.5527(2)
C74_2 C 0.5705(14) 0.8122(8) 0.5438(4)
H53_2 H 0.5915 0.8463 0.5447
I4_2 I 0.78910(7) 0.79542(5) 0.571853(18)
I6_2 I 0.68476(8) 0.64824(6) 0.52732(3)
N5_2 N 0.6766(11) 0.7628(5) 0.5386(2)
N7_2 N 0.7405(12) 0.7901(8) 0.5209(2)
N9_2 N 0.7549(9) 0.6764(5) 0.5663(3)
C76_2 C 0.7345(10) 0.6608(8) 0.5841(3)
H55_2 H 0.7147 0.6723 0.5893
C78_2 C 0.7436(13) 0.6278(8) 0.5942(2)
H57_2 H 0.7299 0.6173 0.6061
C80_2 C 0.7732(10) 0.6105(7) 0.5864(3)
H59_2 H 0.7794 0.5885 0.5932
C82_2 C 0.7937(11) 0.6262(9) 0.5686(3)
H61_2 H 0.8135 0.6146 0.5634
C84_2 C 0.7845(13) 0.6591(8) 0.55856(19)
H63_2 H 0.7983 0.6696 0.5466
O7_2 O 0.9348(4) 0.9740(3) 0.46075(11)
O9_2 O 0.8868(4) 0.9381(3) 0.43530(15)
O12_2 O 0.9179(3) 0.9024(7) 0.40232(15)
O14_2 O 0.4310(7) 0.7487(3) 0.56898(15)
O15_2 O 0.9933(5) 0.9065(6) 0.39974(12)
O19_2 O 0.4269(6) 0.6733(5) 0.56640(12)
Pd3_2 Pd 0.73697(7) 0.71937(5) 0.55083(2)
Zn5_2 Zn 0.93195(8) 0.96230(6) 0.41323(2)
H65_2 H 0.697155 0.727505 0.526241
O1_3 O 1.0000 0.9999 0.42244(12)
Zn1_3 Zn 1.0000 0.9999 0.44958(3)
O1_4 O 0.0001 0.0000 0.42244(12)
Zn1_4 Zn 0.0001 0.0000 0.44958(3)
I2_3 I 0.01842(6) 0.36985(6) 0.86066(3)
C24_3 C 0.0058(8) 0.4070(6) 0.9175(3)
C25_3 C 0.0388(8) 0.4491(10) 0.9276(2)
H18_3 H 0.0493 0.4459 0.9395
C26_3 C 0.0561(7) 0.4960(7) 0.9198(3)
H19_3 H 0.0781 0.5242 0.9266
C27_3 C 0.0404(9) 0.5008(6) 0.9020(3)
H20_3 H 0.0520 0.5322 0.8968
C28_3 C 0.0075(8) 0.4587(10) 0.89190(19)
Zn6_3 Zn 0.03770(6) 0.06805(8) 0.91323(2)
Zn7_3 Zn 0.03036(6) 0.96230(6) 0.91323(2)
C1_3 C 0.7199(5) 0.2820(5) 0.7851(3)
C2_3 C 0.7388(5) 0.2610(5) 0.8169(4)
H1_3 H 0.7177 0.2714 0.8217
C3_3 C 0.7629(8) 0.2461(6) 0.8292(3)
H2_3 H 0.7594 0.2475 0.8422
C4_3 C 0.7929(8) 0.2289(5) 0.8215(3)
C5_3 C 0.7989(6) 0.2266(5) 0.8028(3)
H3_3 H 0.8184 0.2144 0.7978
C6_3 C 0.7737(6) 0.2436(5) 0.7912(2)
H4_3 H 0.7776 0.2428 0.7783
C7_3 C 0.7444(6) 0.2611(5) 0.7976(3)
C8_3 C 0.8184(7) 0.2094(9) 0.8340(3)
C9_3 C 0.8248(9) 0.1358(7) 0.8423(3)
H5_3 H 0.8120 0.1019 0.8406
C10_3 C 0.8068(6) 0.1611(11) 0.8313(2)
H6_3 H 0.7855 0.1437 0.8215
C11_3 C 0.8729(9) 0.2097(12) 0.8600(3)
C12_3 C 0.9466(9) 0.0564(9) 0.8967(3)
C13_3 C 0.8611(8) 0.1606(9) 0.8557(3)
C14_3 C 0.9081(8) 0.2925(8) 0.8692(4)
C15_3 C 0.8542(9) 0.2347(11) 0.8478(4)
C16_3 C 0.8714(5) 0.3246(6) 0.8465(2)
H7_3 H 0.8732 0.3242 0.8330
H8_3 H 0.8978 0.3557 0.8511
H9_3 H 0.8400 0.3208 0.8502
C17_3 C 0.9309(6) 0.2409(6) 0.8889(2)
H10_3 H 0.9562 0.2343 0.8845
H11_3 H 0.9076 0.2137 0.8965
H12_3 H 0.9459 0.2709 0.8962
C18_3 C 0.8834(13) 0.1338(12) 0.8673(3)
C19_3 C 0.8776(13) 0.0688(7) 0.8860(3)
H13_3 H 0.8584 0.0384 0.8919
C20_3 C 0.9340(13) 0.1535(6) 0.8670(2)
H14_3 H 0.9531 0.1820 0.8599
C21_3 C 0.9585(7) 0.1324(11) 0.8769(4)
H15_3 H 0.9929 0.1469 0.8769
C22_3 C 0.9294(13) 0.0908(11) 0.8861(2)
C23_3 C 0.8544(8) 0.0916(11) 0.8772(4)
H16_3 H 0.8203 0.0785 0.8781
I1_3 I 0.87124(5) 0.32701(5) 0.905187(18)
N1_3 N 0.9038(5) 0.2471(10) 0.8720(2)
N2_3 N 0.8765(8) 0.2837(9) 0.8543(2)
N3_3 N 0.9902(5) 0.4118(7) 0.8997(3)
H17_3 H 0.9943 0.3757 0.9227
H21_3 H 0.9970 0.4620 0.8800
O1_5 O 0.6666 0.3334 0.75578(12)
O2_3 O 0.6926(3) 0.2941(3) 0.79409(11)
O3_3 O 0.7285(3) 0.2820(3) 0.76864(15)
O4_3 O 0.9179(3) 0.0156(6) 0.90232(15)
O5_3 O 0.9933(5) 0.0869(4) 0.89974(12)
Pd1_3 Pd 0.94729(5) 0.35093(5) 0.88417(2)
Zn1_5 Zn 0.6666 0.3334 0.78292(3)
Zn2_3 Zn 0.70436(6) 0.30298(6) 0.74657(2)
C29_3 C 0.7180(5) 0.4380(7) 0.7851(3)
C30_3 C 0.5620(7) 0.2801(5) 0.7851(3)
C31_3 C 0.7390(5) 0.4779(7) 0.8169(4)
C32_3 C 0.5221(7) 0.2612(5) 0.8169(4)
H22_3 H 0.7286 0.4464 0.8217
H23_3 H 0.5536 0.2823 0.8217
C33_3 C 0.7539(6) 0.5169(10) 0.8292(3)
C34_3 C 0.4831(10) 0.2371(8) 0.8292(3)
H24_3 H 0.7525 0.5120 0.8422
H25_3 H 0.4880 0.2406 0.8422
C35_3 C 0.7711(5) 0.5641(9) 0.8215(3)
C36_3 C 0.4359(9) 0.2071(8) 0.8215(3)
C37_3 C 0.7734(5) 0.5724(8) 0.8028(3)
C38_3 C 0.4276(8) 0.2011(6) 0.8028(3)
H26_3 H 0.7856 0.6041 0.7978
H27_3 H 0.3959 0.1816 0.7978
C39_3 C 0.7564(5) 0.5302(8) 0.7912(2)
C40_3 C 0.4698(8) 0.2263(6) 0.7912(2)
H28_3 H 0.7572 0.5349 0.7783
H29_3 H 0.4651 0.2224 0.7783
C41_3 C 0.7389(5) 0.4834(8) 0.7976(3)
C42_3 C 0.5166(8) 0.2556(6) 0.7976(3)
C43_3 C 0.7906(9) 0.6091(11) 0.8340(3)
C44_3 C 0.3909(11) 0.1816(7) 0.8340(3)
C45_3 C 0.8642(7) 0.6891(11) 0.8423(3)
C46_3 C 0.3109(11) 0.1752(9) 0.8423(3)
H30_3 H 0.8981 0.7102 0.8406
H31_3 H 0.2898 0.1880 0.8406
C47_3 C 0.8389(11) 0.6458(13) 0.8313(2)
C48_3 C 0.3542(13) 0.1932(6) 0.8313(2)
H32_3 H 0.8563 0.6419 0.8215
H33_3 H 0.3581 0.2145 0.8215
C49_3 C 0.7903(12) 0.6633(15) 0.8600(3)
C50_3 C 0.3367(15) 0.1271(9) 0.8600(3)
C51_3 C 0.9436(9) 0.8903(13) 0.8967(3)
C52_3 C 0.1097(13) 0.0534(9) 0.8967(3)
C53_3 C 0.8394(9) 0.7006(12) 0.8557(3)
C54_3 C 0.2994(12) 0.1389(8) 0.8557(3)
C55_3 C 0.7075(8) 0.6157(11) 0.8692(4)
C56_3 C 0.3843(11) 0.0919(8) 0.8692(4)
C57_3 C 0.7653(11) 0.6196(14) 0.8478(4)
C58_3 C 0.3804(14) 0.1458(9) 0.8478(4)
C59_3 C 0.6754(6) 0.5469(8) 0.8465(2)
C60_3 C 0.4531(8) 0.1286(5) 0.8465(2)
H34_3 H 0.6758 0.5491 0.8330
H35_3 H 0.4509 0.1268 0.8330
H36_3 H 0.6443 0.5422 0.8511
H37_3 H 0.4578 0.1022 0.8511
H38_3 H 0.6792 0.5193 0.8502
H39_3 H 0.4807 0.1600 0.8502
C61_3 C 0.7591(6) 0.6901(8) 0.8889(2)
C62_3 C 0.3099(8) 0.0691(6) 0.8889(2)
H40_3 H 0.7657 0.7220 0.8845
H41_3 H 0.2780 0.0438 0.8845
H42_3 H 0.7863 0.6940 0.8965
H43_3 H 0.3060 0.0924 0.8965
H44_3 H 0.7291 0.6751 0.8962
H45_3 H 0.3249 0.0541 0.8962
C63_3 C 0.8662(12) 0.7497(18) 0.8673(3)
C64_3 C 0.2503(18) 0.1166(13) 0.8673(3)
C65_3 C 0.9312(7) 0.8089(15) 0.8860(3)
C66_3 C 0.1911(15) 0.1224(13) 0.8860(3)
H46_3 H 0.9616 0.8201 0.8919
H47_3 H 0.1799 0.1416 0.8919
C67_3 C 0.8465(6) 0.7806(14) 0.8670(2)
C68_3 C 0.2194(14) 0.0660(13) 0.8670(2)
H48_3 H 0.8180 0.7712 0.8599
H49_3 H 0.2288 0.0469 0.8599
C69_3 C 0.8676(11) 0.8262(13) 0.8769(4)
C70_3 C 0.1738(13) 0.0415(7) 0.8769(4)
H50_3 H 0.8531 0.8461 0.8769
H51_3 H 0.1539 0.0071 0.8769
C71_3 C 0.9092(11) 0.8387(17) 0.8861(2)
C72_3 C 0.1613(17) 0.0706(13) 0.8861(2)
C73_3 C 0.9084(11) 0.7629(14) 0.8772(4)
C74_3 C 0.2371(14) 0.1456(8) 0.8772(4)
H52_3 H 0.9215 0.7419 0.8781
H53_3 H 0.2581 0.1797 0.8781
I3_3 I 0.67299(5) 0.54424(7) 0.905187(18)
I4_3 I 0.45576(7) 0.12876(5) 0.905187(18)
I5_3 I 0.63015(6) 0.64858(8) 0.86066(3)
N4_3 N 0.7529(10) 0.6568(11) 0.8720(2)
N5_3 N 0.3432(11) 0.0962(5) 0.8720(2)
N6_3 N 0.7163(9) 0.5929(12) 0.8543(2)
N7_3 N 0.4071(12) 0.1235(8) 0.8543(2)
N8_3 N 0.5882(7) 0.5785(9) 0.8997(3)
N9_3 N 0.4215(9) 0.0098(5) 0.8997(3)
C75_3 C 0.5930(6) 0.5989(10) 0.9175(3)
H54_3 H 0.6243 0.6187 0.9227
H55_3 H 0.3813 0.0057 0.9227
C77_3 C 0.5509(10) 0.5898(13) 0.9276(2)
H56_3 H 0.5541 0.6035 0.9395
C79_3 C 0.5040(7) 0.5602(10) 0.9198(3)
H58_3 H 0.4758 0.5540 0.9266
C81_3 C 0.4992(6) 0.5397(11) 0.9020(3)
H60_3 H 0.4678 0.5199 0.8968
C83_3 C 0.5413(10) 0.5489(13) 0.89190(19)
H62_3 H 0.5380 0.5351 0.8800
H63_3 H 0.4649 0.0030 0.8800
O6_3 O 0.7059(3) 0.3986(4) 0.79409(11)
O7_3 O 0.6014(4) 0.3074(3) 0.79409(11)
O8_3 O 0.7180(3) 0.4466(4) 0.76864(15)
O9_3 O 0.5534(4) 0.2715(3) 0.76864(15)
O10_3 O 0.7643(7) 0.3489(6) 0.73565(15)
O11_3 O 0.6511(6) 0.4154(3) 0.73565(15)
O12_3 O 0.5846(3) 0.2357(7) 0.73565(15)
O13_3 O 0.9844(6) 0.9024(7) 0.90232(15)
O14_3 O 0.0976(7) 0.0821(3) 0.90232(15)
O15_3 O 0.6600(5) 0.2398(6) 0.73307(12)
O16_3 O 0.7602(6) 0.4202(4) 0.73307(12)
O17_3 O 0.5798(4) 0.3400(5) 0.73307(12)
O18_3 O 0.9131(4) 0.9065(6) 0.89974(12)
O19_3 O 0.0935(6) 0.0067(5) 0.89974(12)
Pd2_3 Pd 0.64907(5) 0.59637(7) 0.88417(2)
Pd3_3 Pd 0.40363(7) 0.05271(5) 0.88417(2)
Zn4_3 Zn 0.69702(6) 0.40139(8) 0.74657(2)
Zn5_3 Zn 0.59861(8) 0.29564(6) 0.74657(2)
Zn8_3 Zn 0.93195(8) 0.96964(6) 0.91323(2)
H64_3 H 0.939162 0.302983 0.859574
H65_3 H 0.363822 0.0608381 0.859574
H66_3 H 0.697017 0.636178 0.859574
I6_3 I 0.35142(8) 0.98158(6) 0.86066(3)
C76_3 C 0.4011(10) 0.9942(8) 0.9175(3)
C78_3 C 0.4102(13) 0.9612(8) 0.9276(2)
H57_3 H 0.3965 0.9507 0.9395
C80_3 C 0.4398(10) 0.9439(7) 0.9198(3)
H59_3 H 0.4460 0.9219 0.9266
C82_3 C 0.4603(11) 0.9596(9) 0.9020(3)
H61_3 H 0.4801 0.9480 0.8968
C84_3 C 0.4511(13) 0.9925(8) 0.89190(19)
C46_4 C 0.4915(9) 0.0224(11) 0.6756(3)
H31_4 H 0.4787 0.0435 0.6739
C52_4 C 0.6133(9) 0.2236(13) 0.7300(3)
C54_4 C 0.5278(8) 0.0339(12) 0.6890(3)
C62_4 C 0.5976(6) 0.0234(8) 0.7222(2)
H41_4 H 0.6229 0.0553 0.7178
H43_4 H 0.5743 0.0273 0.7298
H45_4 H 0.6126 0.0084 0.7295
C64_4 C 0.5501(13) 0.0830(18) 0.7006(3)
C66_4 C 0.5443(13) 0.1422(15) 0.7193(3)
H47_4 H 0.5251 0.1534 0.7252
C68_4 C 0.6007(13) 0.1139(14) 0.7003(2)
H49_4 H 0.6198 0.1045 0.6932
C70_4 C 0.6252(7) 0.1595(13) 0.7102(4)
H51_4 H 0.6596 0.1794 0.7102
C72_4 C 0.5961(13) 0.1720(17) 0.7194(2)
C74_4 C 0.5211(8) 0.0962(14) 0.7105(4)
H53_4 H 0.4870 0.0752 0.7114
C1_4 C 0.3847(5) 0.6134(5) 0.6184(3)
C2_4 C 0.4057(5) 0.5945(5) 0.6502(4)
H1_4 H 0.3953 0.6156 0.6550
C3_4 C 0.4206(6) 0.5704(8) 0.6625(3)
H2_4 H 0.4192 0.5739 0.6755
C4_4 C 0.4378(5) 0.5404(8) 0.6548(3)
C5_4 C 0.4401(5) 0.5344(6) 0.6361(3)
H3_4 H 0.4523 0.5149 0.6311
C6_4 C 0.4231(5) 0.5596(6) 0.6245(2)
H4_4 H 0.4239 0.5557 0.6116
C7_4 C 0.4056(5) 0.5889(6) 0.6309(3)
C8_4 C 0.4573(9) 0.5149(7) 0.6673(3)
C9_4 C 0.5309(7) 0.5085(9) 0.6756(3)
H5_4 H 0.5648 0.5213 0.6739
C10_4 C 0.5056(11) 0.5265(6) 0.6646(2)
H6_4 H 0.5230 0.5478 0.6548
C11_4 C 0.4570(12) 0.4604(9) 0.6933(3)
C12_4 C 0.6103(9) 0.3867(9) 0.7300(3)
C13_4 C 0.5061(9) 0.4722(8) 0.6890(3)
C14_4 C 0.3742(8) 0.4252(8) 0.7025(4)
C15_4 C 0.4320(11) 0.4791(9) 0.6811(4)
C16_4 C 0.3421(6) 0.4619(5) 0.6798(2)
H7_4 H 0.3425 0.4601 0.6663
H8_4 H 0.3110 0.4355 0.6844
H9_4 H 0.3459 0.4933 0.6835
C17_4 C 0.4258(6) 0.4024(6) 0.7222(2)
H10_4 H 0.4324 0.3771 0.7178
H11_4 H 0.4530 0.4257 0.7298
H12_4 H 0.3958 0.3874 0.7295
C18_4 C 0.5329(12) 0.4499(13) 0.7006(3)
C19_4 C 0.5979(7) 0.4557(13) 0.7193(3)
H13_4 H 0.6283 0.4749 0.7252
C20_4 C 0.5132(6) 0.3993(13) 0.7003(2)
H14_4 H 0.4847 0.3802 0.6932
C21_4 C 0.5343(11) 0.3748(7) 0.7102(4)
H15_4 H 0.5198 0.3404 0.7102
C22_4 C 0.5759(11) 0.4039(13) 0.7194(2)
C23_4 C 0.5751(11) 0.4789(8) 0.7105(4)
H16_4 H 0.5882 0.5130 0.7114
I1_4 I 0.33966(5) 0.46209(5) 0.738520(18)
I2_4 I 0.29682(6) 0.31491(6) 0.69399(3)
N1_4 N 0.4196(10) 0.4295(5) 0.7053(2)
N2_4 N 0.3830(9) 0.4568(8) 0.6876(2)
N3_4 N 0.2549(7) 0.3431(5) 0.7330(3)
C24_4 C 0.2597(6) 0.3275(8) 0.7508(3)
H17_4 H 0.2910 0.3390 0.7560
C25_4 C 0.2176(10) 0.2945(8) 0.7609(2)
H18_4 H 0.2208 0.2840 0.7728
C26_4 C 0.1707(7) 0.2772(7) 0.7531(3)
H19_4 H 0.1425 0.2552 0.7599
C27_4 C 0.1659(6) 0.2929(9) 0.7353(3)
H20_4 H 0.1345 0.2813 0.7301
C28_4 C 0.2080(10) 0.3258(8) 0.72523(19)
H21_4 H 0.2047 0.3363 0.7133
O1_6 O 0.3333 0.6667 0.58911(12)
O2_4 O 0.3726(3) 0.6407(3) 0.62742(11)
O3_4 O 0.3847(3) 0.6048(3) 0.60197(15)
Pd1_4 Pd 0.31574(5) 0.38604(5) 0.71750(2)
Zn1_6 Zn 0.3333 0.6667 0.61625(3)
C29_4 C 0.2287(7) 0.6153(5) 0.6184(3)
C30_4 C 0.3866(5) 0.7713(7) 0.6184(3)
C31_4 C 0.1888(7) 0.5943(5) 0.6502(4)
C32_4 C 0.4055(5) 0.8112(7) 0.6502(4)
H22_4 H 0.2203 0.6047 0.6550
H23_4 H 0.3844 0.7797 0.6550
C33_4 C 0.1498(10) 0.5794(6) 0.6625(3)
C34_4 C 0.4296(8) 0.8502(10) 0.6625(3)
H24_4 H 0.1547 0.5808 0.6755
H25_4 H 0.4261 0.8453 0.6755
C35_4 C 0.1026(9) 0.5622(5) 0.6548(3)
C36_4 C 0.4596(8) 0.8974(9) 0.6548(3)
C37_4 C 0.0943(8) 0.5599(5) 0.6361(3)
C38_4 C 0.4656(6) 0.9057(8) 0.6361(3)
H26_4 H 0.0626 0.5477 0.6311
H27_4 H 0.4851 0.9374 0.6311
C39_4 C 0.1365(8) 0.5769(5) 0.6245(2)
C40_4 C 0.4404(6) 0.8635(8) 0.6245(2)
H28_4 H 0.1318 0.5761 0.6116
H29_4 H 0.4443 0.8682 0.6116
C41_4 C 0.1833(8) 0.5944(5) 0.6309(3)
C42_4 C 0.4111(6) 0.8167(8) 0.6309(3)
C43_4 C 0.0576(11) 0.5427(9) 0.6673(3)
C44_4 C 0.4851(7) 0.9424(11) 0.6673(3)
C47_4 C 0.0209(13) 0.4944(11) 0.6646(2)
C48_4 C 0.4735(6) 0.9791(13) 0.6646(2)
H32_4 H 0.0248 0.4770 0.6548
H33_4 H 0.4522 0.9752 0.6548
C49_4 C 0.0034(15) 0.5430(12) 0.6933(3)
C50_4 C 0.5396(9) 0.9966(15) 0.6933(3)
C55_4 C 0.0510(11) 0.6258(8) 0.7025(4)
C56_4 C 0.5748(8) 0.9490(11) 0.7025(4)
C57_4 C 0.0471(14) 0.5680(11) 0.6811(4)
C58_4 C 0.5209(9) 0.9529(14) 0.6811(4)
C59_4 C 0.1198(8) 0.6579(6) 0.6798(2)
C60_4 C 0.5381(5) 0.8802(8) 0.6798(2)
H34_4 H 0.1176 0.6575 0.6663
H35_4 H 0.5399 0.8824 0.6663
H36_4 H 0.1245 0.6890 0.6844
H37_4 H 0.5645 0.8755 0.6844
H38_4 H 0.1474 0.6541 0.6835
H39_4 H 0.5067 0.8526 0.6835
I3_4 I 0.12243(7) 0.66034(5) 0.738520(18)
I4_4 I 0.53791(5) 0.87757(7) 0.738520(18)
I5_4 I 0.01809(8) 0.70318(6) 0.69399(3)
I6_4 I 0.68509(6) 0.98191(8) 0.69399(3)
N4_4 N 0.0099(11) 0.5804(10) 0.7053(2)
N5_4 N 0.5705(5) 0.9901(11) 0.7053(2)
N6_4 N 0.0738(12) 0.6170(9) 0.6876(2)
N7_4 N 0.5432(8) 0.9262(12) 0.6876(2)
N8_4 N 0.0882(9) 0.7451(7) 0.7330(3)
N9_4 N 0.6569(5) 0.9118(9) 0.7330(3)
C75_4 C 0.0678(10) 0.7403(6) 0.7508(3)
C76_4 C 0.6725(8) 0.9322(10) 0.7508(3)
H54_4 H 0.0480 0.7090 0.7560
H55_4 H 0.6610 0.9520 0.7560
C77_4 C 0.0769(13) 0.7824(10) 0.7609(2)
C78_4 C 0.7055(8) 0.9231(13) 0.7609(2)
H56_4 H 0.0632 0.7792 0.7728
H57_4 H 0.7160 0.9368 0.7728
C79_4 C 0.1065(10) 0.8293(7) 0.7531(3)
C80_4 C 0.7228(7) 0.8935(10) 0.7531(3)
H58_4 H 0.1127 0.8575 0.7599
H59_4 H 0.7448 0.8873 0.7599
C81_4 C 0.1270(11) 0.8341(6) 0.7353(3)
C82_4 C 0.7071(9) 0.8730(11) 0.7353(3)
H60_4 H 0.1468 0.8655 0.7301
H61_4 H 0.7187 0.8532 0.7301
C83_4 C 0.1178(13) 0.7920(10) 0.72523(19)
C84_4 C 0.6742(8) 0.8822(13) 0.72523(19)
H62_4 H 0.1316 0.7953 0.7133
H63_4 H 0.6637 0.8684 0.7133
O6_4 O 0.2681(4) 0.6274(3) 0.62742(11)
O7_4 O 0.3593(3) 0.7319(4) 0.62742(11)
O8_4 O 0.2201(4) 0.6153(3) 0.60197(15)
O9_4 O 0.3952(3) 0.7799(4) 0.60197(15)
Pd2_4 Pd 0.07030(7) 0.68426(5) 0.71750(2)
Pd3_4 Pd 0.61396(5) 0.92970(7) 0.71750(2)
H64_4 H 0.363683 0.394171 0.692908
H65_4 H 0.605829 0.969512 0.692908
H66_4 H 0.0304882 0.636317 0.692908
C45_4 C 0.9776(11) 0.4691(7) 0.6756(3)
H30_4 H 0.9565 0.4352 0.6739
C51_4 C 0.7764(13) 0.3897(9) 0.7300(3)
C53_4 C 0.9661(12) 0.4939(9) 0.6890(3)
C61_4 C 0.9766(8) 0.5742(6) 0.7222(2)
H40_4 H 0.9447 0.5676 0.7178
H42_4 H 0.9727 0.5470 0.7298
H44_4 H 0.9916 0.6042 0.7295
C63_4 C 0.9170(18) 0.4671(12) 0.7006(3)
C65_4 C 0.8578(15) 0.4021(7) 0.7193(3)
H46_4 H 0.8466 0.3717 0.7252
C67_4 C 0.8861(14) 0.4868(6) 0.7003(2)
H48_4 H 0.8955 0.5153 0.6932
C69_4 C 0.8405(13) 0.4657(11) 0.7102(4)
H50_4 H 0.8206 0.4802 0.7102
C71_4 C 0.8280(17) 0.4241(11) 0.7194(2)
C73_4 C 0.9038(14) 0.4249(11) 0.7105(4)
H52_4 H 0.9248 0.4118 0.7114
I6_5 I 0.01842(6) 0.64858(8) 0.36066(3)
C76_5 C 0.0058(8) 0.5989(10) 0.4175(3)
C78_5 C 0.0388(8) 0.5898(13) 0.4276(2)
H57_5 H 0.0493 0.6035 0.4395
C80_5 C 0.0561(7) 0.5602(10) 0.4198(3)
H59_5 H 0.0781 0.5540 0.4266
C82_5 C 0.0404(9) 0.5397(11) 0.4020(3)
H61_5 H 0.0520 0.5199 0.3968
C84_5 C 0.0075(8) 0.5489(13) 0.39190(19)
C1_5 C 0.7180(5) 0.2801(5) 0.2851(3)
C2_5 C 0.7390(5) 0.2612(5) 0.3169(4)
H1_5 H 0.7286 0.2823 0.3217
C3_5 C 0.7539(6) 0.2371(8) 0.3292(3)
H2_5 H 0.7525 0.2406 0.3422
C4_5 C 0.7711(5) 0.2071(8) 0.3215(3)
C5_5 C 0.7734(5) 0.2011(6) 0.3028(3)
H3_5 H 0.7856 0.1816 0.2978
C6_5 C 0.7564(5) 0.2263(6) 0.2912(2)
H4_5 H 0.7572 0.2224 0.2783
C7_5 C 0.7389(5) 0.2556(6) 0.2976(3)
C8_5 C 0.7906(9) 0.1816(7) 0.3340(3)
C9_5 C 0.8642(7) 0.1752(9) 0.3423(3)
H5_5 H 0.8981 0.1880 0.3406
C10_5 C 0.8389(11) 0.1932(6) 0.3313(2)
H6_5 H 0.8563 0.2145 0.3215
C11_5 C 0.7903(12) 0.1271(9) 0.3600(3)
C12_5 C 0.9436(9) 0.0534(9) 0.3967(3)
C13_5 C 0.8394(9) 0.1389(8) 0.3557(3)
C14_5 C 0.7075(8) 0.0919(8) 0.3692(4)
C15_5 C 0.7653(11) 0.1458(9) 0.3478(4)
C16_5 C 0.6754(6) 0.1286(5) 0.3465(2)
H7_5 H 0.6758 0.1268 0.3330
H8_5 H 0.6443 0.1022 0.3511
H9_5 H 0.6792 0.1600 0.3502
C17_5 C 0.7591(6) 0.0691(6) 0.3889(2)
H10_5 H 0.7657 0.0438 0.3845
H11_5 H 0.7863 0.0924 0.3965
H12_5 H 0.7291 0.0541 0.3962
C18_5 C 0.8662(12) 0.1166(13) 0.3673(3)
C19_5 C 0.9312(7) 0.1224(13) 0.3860(3)
H13_5 H 0.9616 0.1416 0.3919
C20_5 C 0.8465(6) 0.0660(13) 0.3670(2)
H14_5 H 0.8180 0.0469 0.3599
C21_5 C 0.8676(11) 0.0415(7) 0.3769(4)
H15_5 H 0.8531 0.0071 0.3769
C22_5 C 0.9092(11) 0.0706(13) 0.3861(2)
C23_5 C 0.9084(11) 0.1456(8) 0.3772(4)
H16_5 H 0.9215 0.1797 0.3781
I1_5 I 0.67299(5) 0.12876(5) 0.405187(18)
N1_5 N 0.7529(10) 0.0962(5) 0.3720(2)
N2_5 N 0.7163(9) 0.1235(8) 0.3543(2)
N3_5 N 0.5882(7) 0.0098(5) 0.3997(3)
H17_5 H 0.6243 0.0057 0.4227
H21_5 H 0.5380 0.0030 0.3800
O1_7 O 0.6666 0.3334 0.25578(12)
O2_5 O 0.7059(3) 0.3074(3) 0.29409(11)
O3_5 O 0.7180(3) 0.2715(3) 0.26864(15)
Pd1_5 Pd 0.64907(5) 0.05271(5) 0.38417(2)
Zn1_7 Zn 0.6666 0.3334 0.28292(3)
C29_5 C 0.5620(7) 0.2820(5) 0.2851(3)
C30_5 C 0.7199(5) 0.4380(7) 0.2851(3)
C31_5 C 0.5221(7) 0.2610(5) 0.3169(4)
C32_5 C 0.7388(5) 0.4779(7) 0.3169(4)
H22_5 H 0.5536 0.2714 0.3217
H23_5 H 0.7177 0.4464 0.3217
C33_5 C 0.4831(10) 0.2461(6) 0.3292(3)
C34_5 C 0.7629(8) 0.5169(10) 0.3292(3)
H24_5 H 0.4880 0.2475 0.3422
H25_5 H 0.7594 0.5120 0.3422
C35_5 C 0.4359(9) 0.2289(5) 0.3215(3)
C36_5 C 0.7929(8) 0.5641(9) 0.3215(3)
C37_5 C 0.4276(8) 0.2266(5) 0.3028(3)
C38_5 C 0.7989(6) 0.5724(8) 0.3028(3)
H26_5 H 0.3959 0.2144 0.2978
H27_5 H 0.8184 0.6041 0.2978
C39_5 C 0.4698(8) 0.2436(5) 0.2912(2)
C40_5 C 0.7737(6) 0.5302(8) 0.2912(2)
H28_5 H 0.4651 0.2428 0.2783
H29_5 H 0.7776 0.5349 0.2783
C41_5 C 0.5166(8) 0.2611(5) 0.2976(3)
C42_5 C 0.7444(6) 0.4834(8) 0.2976(3)
C43_5 C 0.3909(11) 0.2094(9) 0.3340(3)
C44_5 C 0.8184(7) 0.6091(11) 0.3340(3)
C45_5 C 0.3109(11) 0.1358(7) 0.3423(3)
C46_5 C 0.8248(9) 0.6891(11) 0.3423(3)
H30_5 H 0.2898 0.1019 0.3406
H31_5 H 0.8120 0.7102 0.3406
C47_5 C 0.3542(13) 0.1611(11) 0.3313(2)
C48_5 C 0.8068(6) 0.6458(13) 0.3313(2)
H32_5 H 0.3581 0.1437 0.3215
H33_5 H 0.7855 0.6419 0.3215
C49_5 C 0.3367(15) 0.2097(12) 0.3600(3)
C50_5 C 0.8729(9) 0.6633(15) 0.3600(3)
C51_5 C 0.1097(13) 0.0564(9) 0.3967(3)
C52_5 C 0.9466(9) 0.8903(13) 0.3967(3)
C53_5 C 0.2994(12) 0.1606(9) 0.3557(3)
C54_5 C 0.8611(8) 0.7006(12) 0.3557(3)
C55_5 C 0.3843(11) 0.2925(8) 0.3692(4)
C56_5 C 0.9081(8) 0.6157(11) 0.3692(4)
C57_5 C 0.3804(14) 0.2347(11) 0.3478(4)
C58_5 C 0.8542(9) 0.6196(14) 0.3478(4)
C59_5 C 0.4531(8) 0.3246(6) 0.3465(2)
C60_5 C 0.8714(5) 0.5469(8) 0.3465(2)
H34_5 H 0.4509 0.3242 0.3330
H35_5 H 0.8732 0.5491 0.3330
H36_5 H 0.4578 0.3557 0.3511
H37_5 H 0.8978 0.5422 0.3511
H38_5 H 0.4807 0.3208 0.3502
H39_5 H 0.8400 0.5193 0.3502
C61_5 C 0.3099(8) 0.2409(6) 0.3889(2)
C62_5 C 0.9309(6) 0.6901(8) 0.3889(2)
H40_5 H 0.2780 0.2343 0.3845
H41_5 H 0.9562 0.7220 0.3845
H42_5 H 0.3060 0.2137 0.3965
H43_5 H 0.9076 0.6940 0.3965
H44_5 H 0.3249 0.2709 0.3962
H45_5 H 0.9459 0.6751 0.3962
C63_5 C 0.2503(18) 0.1338(12) 0.3673(3)
C64_5 C 0.8834(13) 0.7497(18) 0.3673(3)
C65_5 C 0.1911(15) 0.0688(7) 0.3860(3)
C66_5 C 0.8776(13) 0.8089(15) 0.3860(3)
H46_5 H 0.1799 0.0384 0.3919
H47_5 H 0.8584 0.8201 0.3919
C67_5 C 0.2194(14) 0.1535(6) 0.3670(2)
C68_5 C 0.9340(13) 0.7806(14) 0.3670(2)
H48_5 H 0.2288 0.1820 0.3599
H49_5 H 0.9531 0.7712 0.3599
C69_5 C 0.1738(13) 0.1324(11) 0.3769(4)
C70_5 C 0.9585(7) 0.8262(13) 0.3769(4)
H50_5 H 0.1539 0.1469 0.3769
H51_5 H 0.9929 0.8461 0.3769
C71_5 C 0.1613(17) 0.0908(11) 0.3861(2)
C72_5 C 0.9294(13) 0.8387(17) 0.3861(2)
C73_5 C 0.2371(14) 0.0916(11) 0.3772(4)
C74_5 C 0.8544(8) 0.7629(14) 0.3772(4)
H52_5 H 0.2581 0.0785 0.3781
H53_5 H 0.8203 0.7419 0.3781
I3_5 I 0.45576(7) 0.32701(5) 0.405187(18)
I4_5 I 0.87124(5) 0.54424(7) 0.405187(18)
I5_5 I 0.35142(8) 0.36985(6) 0.36066(3)
N4_5 N 0.3432(11) 0.2471(10) 0.3720(2)
N5_5 N 0.9038(5) 0.6568(11) 0.3720(2)
N6_5 N 0.4071(12) 0.2837(9) 0.3543(2)
N7_5 N 0.8765(8) 0.5929(12) 0.3543(2)
N8_5 N 0.4215(9) 0.4118(7) 0.3997(3)
N9_5 N 0.9902(5) 0.5785(9) 0.3997(3)
C75_5 C 0.4011(10) 0.4070(6) 0.4175(3)
H54_5 H 0.3813 0.3757 0.4227
H55_5 H 0.9943 0.6187 0.4227
C77_5 C 0.4102(13) 0.4491(10) 0.4276(2)
H56_5 H 0.3965 0.4459 0.4395
C79_5 C 0.4398(10) 0.4960(7) 0.4198(3)
H58_5 H 0.4460 0.5242 0.4266
C81_5 C 0.4603(11) 0.5008(6) 0.4020(3)
H60_5 H 0.4801 0.5322 0.3968
C83_5 C 0.4511(13) 0.4587(10) 0.39190(19)
H62_5 H 0.4649 0.4620 0.3800
H63_5 H 0.9970 0.5351 0.3800
O6_5 O 0.6014(4) 0.2941(3) 0.29409(11)
O7_5 O 0.6926(3) 0.3986(4) 0.29409(11)
O8_5 O 0.5534(4) 0.2820(3) 0.26864(15)
O9_5 O 0.7285(3) 0.4466(4) 0.26864(15)
Pd2_5 Pd 0.40363(7) 0.35093(5) 0.38417(2)
Pd3_5 Pd 0.94729(5) 0.59637(7) 0.38417(2)
H64_5 H 0.697017 0.0608381 0.359574
H65_5 H 0.939162 0.636178 0.359574
H66_5 H 0.363822 0.302983 0.359574
I2_5 I 0.63015(6) 0.98158(6) 0.36066(3)
C24_5 C 0.5930(6) 0.9942(8) 0.4175(3)
C25_5 C 0.5509(10) 0.9612(8) 0.4276(2)
H18_5 H 0.5541 0.9507 0.4395
C26_5 C 0.5040(7) 0.9439(7) 0.4198(3)
H19_5 H 0.4758 0.9219 0.4266
C27_5 C 0.4992(6) 0.9596(9) 0.4020(3)
H20_5 H 0.4678 0.9480 0.3968
C28_5 C 0.5413(10) 0.9925(8) 0.39190(19)
H25_6 H 0.0928 0.1786 0.0088
C44_6 C 0.1518(7) 0.2757(11) 0.0006(3)
C46_6 C 0.1582(9) 0.3557(11) 0.0089(3)
H31_6 H 0.1454 0.3768 0.0072
C50_6 C 0.2063(9) 0.3299(15) 0.0266(3)
C52_6 C 0.2800(9) 0.5569(13) 0.0633(3)
C54_6 C 0.1945(8) 0.3672(12) 0.0223(3)
C56_6 C 0.2415(8) 0.2823(11) 0.0358(4)
C58_6 C 0.1876(9) 0.2862(14) 0.0144(4)
C60_6 C 0.2048(5) 0.2135(8) 0.0131(2)
H37_6 H 0.2312 0.2088 0.0177
H39_6 H 0.1734 0.1859 0.0168
C62_6 C 0.2643(6) 0.3567(8) 0.0555(2)
H41_6 H 0.2896 0.3886 0.0511
H43_6 H 0.2410 0.3606 0.0631
H45_6 H 0.2793 0.3417 0.0628
C64_6 C 0.2168(13) 0.4163(18) 0.0339(3)
C66_6 C 0.2110(13) 0.4755(15) 0.0526(3)
H47_6 H 0.1918 0.4867 0.0585
C68_6 C 0.2674(13) 0.4472(14) 0.0336(2)
H49_6 H 0.2865 0.4378 0.0265
C70_6 C 0.2919(7) 0.4928(13) 0.0435(4)
H51_6 H 0.3263 0.5127 0.0435
C72_6 C 0.2628(13) 0.5053(17) 0.0527(2)
C74_6 C 0.1878(8) 0.4295(14) 0.0438(4)
H53_6 H 0.1537 0.4085 0.0447
I4_6 I 0.20458(5) 0.21090(7) 0.071853(18)
I6_6 I 0.35176(6) 0.31524(8) 0.02732(3)
N5_6 N 0.2372(5) 0.3234(11) 0.0386(2)
N7_6 N 0.2099(8) 0.2595(12) 0.0209(2)
N9_6 N 0.3236(5) 0.2451(9) 0.0663(3)
C76_6 C 0.3392(8) 0.2655(10) 0.0841(3)
H55_6 H 0.3277 0.2853 0.0893
C78_6 C 0.3722(8) 0.2564(13) 0.0942(2)
H57_6 H 0.3827 0.2701 0.1061
C80_6 C 0.3895(7) 0.2268(10) 0.0864(3)
H59_6 H 0.4115 0.2206 0.0932
C82_6 C 0.3738(9) 0.2063(11) 0.0686(3)
H61_6 H 0.3854 0.1865 0.0634
C84_6 C 0.3409(8) 0.2155(13) 0.05856(19)
H63_6 H 0.3304 0.2017 0.0466
Pd3_6 Pd 0.28063(5) 0.26303(7) 0.05083(2)
H65_6 H 0.272495 0.302845 0.0262409
C30_6 C 0.0533(5) 0.1046(7) 0.9517(3)
C32_6 C 0.0722(5) 0.1445(7) 0.9835(4)
H23_6 H 0.0511 0.1130 0.9883
C34_6 C 0.0963(8) 0.1835(10) 0.9958(3)
C36_6 C 0.1263(8) 0.2307(9) 0.9881(3)
C38_6 C 0.1323(6) 0.2390(8) 0.9694(3)
H27_6 H 0.1518 0.2707 0.9644
C40_6 C 0.1071(6) 0.1968(8) 0.9578(2)
H29_6 H 0.1110 0.2015 0.9449
C42_6 C 0.0778(6) 0.1500(8) 0.9642(3)
C48_6 C 0.1402(6) 0.3124(13) 0.9979(2)
H33_6 H 0.1189 0.3085 0.9881
H35_6 H 0.2066 0.2157 0.9996
O7_6 O 0.0260(3) 0.0652(4) 0.96075(11)
O9_6 O 0.0619(3) 0.1132(4) 0.93530(15)
H2_6 H 0.0859 0.9072 0.0088
C8_6 C 0.1240(9) 0.8482(7) 0.0006(3)
C9_6 C 0.1976(7) 0.8418(9) 0.0089(3)
H5_6 H 0.2315 0.8546 0.0072
C11_6 C 0.1237(12) 0.7937(9) 0.0266(3)
C12_6 C 0.2770(9) 0.7200(9) 0.0633(3)
C13_6 C 0.1728(9) 0.8055(8) 0.0223(3)
C14_6 C 0.0409(8) 0.7585(8) 0.0358(4)
C15_6 C 0.0987(11) 0.8124(9) 0.0144(4)
C16_6 C 0.0088(6) 0.7952(5) 0.0131(2)
H9_6 H 0.0126 0.8266 0.0168
C17_6 C 0.0925(6) 0.7357(6) 0.0555(2)
H10_6 H 0.0991 0.7104 0.0511
H11_6 H 0.1197 0.7590 0.0631
H12_6 H 0.0625 0.7207 0.0628
C18_6 C 0.1996(12) 0.7832(13) 0.0339(3)
C19_6 C 0.2646(7) 0.7890(13) 0.0526(3)
H13_6 H 0.2950 0.8082 0.0585
C20_6 C 0.1799(6) 0.7326(13) 0.0336(2)
H14_6 H 0.1514 0.7135 0.0265
C21_6 C 0.2010(11) 0.7081(7) 0.0435(4)
H15_6 H 0.1865 0.6737 0.0435
C22_6 C 0.2426(11) 0.7372(13) 0.0527(2)
C23_6 C 0.2418(11) 0.8122(8) 0.0438(4)
H16_6 H 0.2549 0.8463 0.0447
I1_6 I 0.00633(5) 0.79542(5) 0.071853(18)
N1_6 N 0.0863(10) 0.7628(5) 0.0386(2)
N2_6 N 0.0497(9) 0.7901(8) 0.0209(2)
H64_6 H 0.0303499 0.727505 0.0262409
C1_6 C 0.0514(5) 0.9467(5) 0.9517(3)
C2_6 C 0.0724(5) 0.9278(5) 0.9835(4)
H1_6 H 0.0620 0.9489 0.9883
C3_6 C 0.0873(6) 0.9037(8) 0.9958(3)
C4_6 C 0.1045(5) 0.8737(8) 0.9881(3)
C5_6 C 0.1068(5) 0.8677(6) 0.9694(3)
H3_6 H 0.1190 0.8482 0.9644
C6_6 C 0.0898(5) 0.8929(6) 0.9578(2)
H4_6 H 0.0906 0.8890 0.9449
C7_6 C 0.0723(5) 0.9222(6) 0.9642(3)
C10_6 C 0.1723(11) 0.8598(6) 0.9979(2)
H6_6 H 0.1897 0.8811 0.9881
H7_6 H 0.0092 0.7934 0.9996
O2_6 O 0.0393(3) 0.9740(3) 0.96075(11)
O3_6 O 0.0514(3) 0.9381(3) 0.93530(15)
O1_8 O 1.0000 0.0000 0.92244(12)
Zn1_8 Zn 1.0000 0.0000 0.94958(3)
H8_6 H 0.9777 0.7688 0.0177
I2_6 I 0.96349(6) 0.64824(6) 0.02732(3)
N3_6 N 0.9216(7) 0.6764(5) 0.0663(3)
C24_6 C 0.9264(6) 0.6608(8) 0.0841(3)
H17_6 H 0.9577 0.6723 0.0893
C25_6 C 0.8843(10) 0.6278(8) 0.0942(2)
H18_6 H 0.8875 0.6173 0.1061
C26_6 C 0.8374(7) 0.6105(7) 0.0864(3)
H19_6 H 0.8092 0.5885 0.0932
C27_6 C 0.8326(6) 0.6262(9) 0.0686(3)
H20_6 H 0.8012 0.6146 0.0634
C28_6 C 0.8747(10) 0.6591(8) 0.05856(19)
H21_6 H 0.8714 0.6696 0.0466
Pd1_6 Pd 0.98241(5) 0.71937(5) 0.05083(2)
H24_6 H 0.8214 0.9141 0.0088
C43_6 C 0.7243(11) 0.8760(9) 0.0006(3)
C45_6 C 0.6443(11) 0.8024(7) 0.0089(3)
H30_6 H 0.6232 0.7685 0.0072
C49_6 C 0.6701(15) 0.8763(12) 0.0266(3)
C51_6 C 0.4431(13) 0.7230(9) 0.0633(3)
C53_6 C 0.6328(12) 0.8272(9) 0.0223(3)
C55_6 C 0.7177(11) 0.9591(8) 0.0358(4)
C57_6 C 0.7138(14) 0.9013(11) 0.0144(4)
C59_6 C 0.7865(8) 0.9912(6) 0.0131(2)
H38_6 H 0.8141 0.9874 0.0168
C61_6 C 0.6433(8) 0.9075(6) 0.0555(2)
H40_6 H 0.6114 0.9009 0.0511
H42_6 H 0.6394 0.8803 0.0631
H44_6 H 0.6583 0.9375 0.0628
C63_6 C 0.5837(18) 0.8004(12) 0.0339(3)
C65_6 C 0.5245(15) 0.7354(7) 0.0526(3)
H46_6 H 0.5133 0.7050 0.0585
C67_6 C 0.5528(14) 0.8201(6) 0.0336(2)
H48_6 H 0.5622 0.8486 0.0265
C69_6 C 0.5072(13) 0.7990(11) 0.0435(4)
H50_6 H 0.4873 0.8135 0.0435
C71_6 C 0.4947(17) 0.7574(11) 0.0527(2)
C73_6 C 0.5705(14) 0.7582(11) 0.0438(4)
H52_6 H 0.5915 0.7451 0.0447
I3_6 I 0.78910(7) 0.99367(5) 0.071853(18)
N4_6 N 0.6766(11) 0.9137(10) 0.0386(2)
N6_6 N 0.7405(12) 0.9503(9) 0.0209(2)
H66_6 H 0.697155 0.96965 0.0262409
C29_6 C 0.8954(7) 0.9486(5) 0.9517(3)
C31_6 C 0.8555(7) 0.9276(5) 0.9835(4)
H22_6 H 0.8870 0.9380 0.9883
C33_6 C 0.8165(10) 0.9127(6) 0.9958(3)
C35_6 C 0.7693(9) 0.8955(5) 0.9881(3)
C37_6 C 0.7610(8) 0.8932(5) 0.9694(3)
H26_6 H 0.7293 0.8810 0.9644
C39_6 C 0.8032(8) 0.9102(5) 0.9578(2)
H28_6 H 0.7985 0.9094 0.9449
C41_6 C 0.8500(8) 0.9277(5) 0.9642(3)
C47_6 C 0.6876(13) 0.8277(11) 0.9979(2)
H32_6 H 0.6915 0.8103 0.9881
H34_6 H 0.7843 0.9908 0.9996
O6_6 O 0.9348(4) 0.9607(3) 0.96075(11)
O8_6 O 0.8868(4) 0.9486(3) 0.93530(15)
O1_9 O 0.0001 0.0000 0.92244(12)
Zn1_9 Zn 0.0001 0.0000 0.94958(3)
O1_10 O 1.0000 0.9999 0.92244(12)
Zn1_10 Zn 1.0000 0.9999 0.94958(3)
C45_7 C 0.0224(11) 0.5309(7) 0.3244(3)
H30_7 H 0.0435 0.5648 0.3261
C51_7 C 0.2236(13) 0.6103(9) 0.2700(3)
C53_7 C 0.0339(12) 0.5061(9) 0.3110(3)
C61_7 C 0.0234(8) 0.4258(6) 0.2778(2)
H40_7 H 0.0553 0.4324 0.2822
H42_7 H 0.0273 0.4530 0.2702
H44_7 H 0.0084 0.3958 0.2705
C63_7 C 0.0830(18) 0.5329(12) 0.2994(3)
C65_7 C 0.1422(15) 0.5979(7) 0.2807(3)
H46_7 H 0.1534 0.6283 0.2748
C67_7 C 0.1139(14) 0.5132(6) 0.2997(2)
H48_7 H 0.1045 0.4847 0.3068
C69_7 C 0.1595(13) 0.5343(11) 0.2898(4)
H50_7 H 0.1794 0.5198 0.2898
C71_7 C 0.1720(17) 0.5759(11) 0.2806(2)
C73_7 C 0.0962(14) 0.5751(11) 0.2895(4)
H52_7 H 0.0752 0.5882 0.2886
O13_4 O 0.2357(7) 0.6511(6) 0.26435(15)
O18_4 O 0.2398(6) 0.5798(4) 0.26693(12)
Zn7_4 Zn 0.29564(6) 0.69702(6) 0.25343(2)
Zn8_4 Zn 0.30298(6) 0.59861(8) 0.25343(2)
C1_7 C 0.6153(5) 0.3866(5) 0.3816(3)
C2_7 C 0.5943(5) 0.4055(5) 0.3498(4)
H1_7 H 0.6047 0.3844 0.3450
C3_7 C 0.5794(6) 0.4296(8) 0.3375(3)
H2_7 H 0.5808 0.4261 0.3245
C4_7 C 0.5622(5) 0.4596(8) 0.3452(3)
C5_7 C 0.5599(5) 0.4656(6) 0.3639(3)
H3_7 H 0.5477 0.4851 0.3689
C6_7 C 0.5769(5) 0.4404(6) 0.3755(2)
H4_7 H 0.5761 0.4443 0.3884
C7_7 C 0.5944(5) 0.4111(6) 0.3691(3)
C8_7 C 0.5427(9) 0.4851(7) 0.3327(3)
C9_7 C 0.4691(7) 0.4915(9) 0.3244(3)
H5_7 H 0.4352 0.4787 0.3261
C10_7 C 0.4944(11) 0.4735(6) 0.3354(2)
H6_7 H 0.4770 0.4522 0.3452
C11_7 C 0.5430(12) 0.5396(9) 0.3067(3)
C12_7 C 0.3897(9) 0.6133(9) 0.2700(3)
C13_7 C 0.4939(9) 0.5278(8) 0.3110(3)
C14_7 C 0.6258(8) 0.5748(8) 0.2975(4)
C15_7 C 0.5680(11) 0.5209(9) 0.3189(4)
C16_7 C 0.6579(6) 0.5381(5) 0.3202(2)
H7_7 H 0.6575 0.5399 0.3337
H8_7 H 0.6890 0.5645 0.3156
H9_7 H 0.6541 0.5067 0.3165
C17_7 C 0.5742(6) 0.5976(6) 0.2778(2)
H10_7 H 0.5676 0.6229 0.2822
H11_7 H 0.5470 0.5743 0.2702
H12_7 H 0.6042 0.6126 0.2705
C18_7 C 0.4671(12) 0.5501(13) 0.2994(3)
C19_7 C 0.4021(7) 0.5443(13) 0.2807(3)
H13_7 H 0.3717 0.5251 0.2748
C20_7 C 0.4868(6) 0.6007(13) 0.2997(2)
H14_7 H 0.5153 0.6198 0.3068
C21_7 C 0.4657(11) 0.6252(7) 0.2898(4)
H15_7 H 0.4802 0.6596 0.2898
C22_7 C 0.4241(11) 0.5961(13) 0.2806(2)
C23_7 C 0.4249(11) 0.5211(8) 0.2895(4)
H16_7 H 0.4118 0.4870 0.2886
I1_7 I 0.66034(5) 0.53791(5) 0.261480(18)
I2_7 I 0.70318(6) 0.68509(6) 0.30601(3)
N1_7 N 0.5804(10) 0.5705(5) 0.2947(2)
N2_7 N 0.6170(9) 0.5432(8) 0.3124(2)
N3_7 N 0.7451(7) 0.6569(5) 0.2670(3)
C24_7 C 0.7403(6) 0.6725(8) 0.2492(3)
H17_7 H 0.7090 0.6610 0.2440
C25_7 C 0.7824(10) 0.7055(8) 0.2391(2)
H18_7 H 0.7792 0.7160 0.2272
C26_7 C 0.8293(7) 0.7228(7) 0.2469(3)
H19_7 H 0.8575 0.7448 0.2401
C27_7 C 0.8341(6) 0.7071(9) 0.2647(3)
H20_7 H 0.8655 0.7187 0.2699
C28_7 C 0.7920(10) 0.6742(8) 0.27477(19)
H21_7 H 0.7953 0.6637 0.2867
O1_11 O 0.6667 0.3333 0.41089(12)
O2_7 O 0.6274(3) 0.3593(3) 0.37258(11)
O3_7 O 0.6153(3) 0.3952(3) 0.39803(15)
O4_4 O 0.3489(6) 0.5846(3) 0.26435(15)
O5_4 O 0.4202(4) 0.6600(5) 0.26693(12)
Pd1_7 Pd 0.68426(5) 0.61396(5) 0.28250(2)
Zn1_11 Zn 0.6667 0.3333 0.38375(3)
Zn2_4 Zn 0.63631(6) 0.37103(6) 0.42010(2)
C29_7 C 0.7713(7) 0.3847(5) 0.3816(3)
C30_7 C 0.6134(5) 0.2287(7) 0.3816(3)
C31_7 C 0.8112(7) 0.4057(5) 0.3498(4)
C32_7 C 0.5945(5) 0.1888(7) 0.3498(4)
H22_7 H 0.7797 0.3953 0.3450
H23_7 H 0.6156 0.2203 0.3450
C33_7 C 0.8502(10) 0.4206(6) 0.3375(3)
C34_7 C 0.5704(8) 0.1498(10) 0.3375(3)
H24_7 H 0.8453 0.4192 0.3245
H25_7 H 0.5739 0.1547 0.3245
C35_7 C 0.8974(9) 0.4378(5) 0.3452(3)
C36_7 C 0.5404(8) 0.1026(9) 0.3452(3)
C37_7 C 0.9057(8) 0.4401(5) 0.3639(3)
C38_7 C 0.5344(6) 0.0943(8) 0.3639(3)
H26_7 H 0.9374 0.4523 0.3689
H27_7 H 0.5149 0.0626 0.3689
C39_7 C 0.8635(8) 0.4231(5) 0.3755(2)
C40_7 C 0.5596(6) 0.1365(8) 0.3755(2)
H28_7 H 0.8682 0.4239 0.3884
H29_7 H 0.5557 0.1318 0.3884
C41_7 C 0.8167(8) 0.4056(5) 0.3691(3)
C42_7 C 0.5889(6) 0.1833(8) 0.3691(3)
C43_7 C 0.9424(11) 0.4573(9) 0.3327(3)
C44_7 C 0.5149(7) 0.0576(11) 0.3327(3)
C47_7 C 0.9791(13) 0.5056(11) 0.3354(2)
C48_7 C 0.5265(6) 0.0209(13) 0.3354(2)
H32_7 H 0.9752 0.5230 0.3452
H33_7 H 0.5478 0.0248 0.3452
C49_7 C 0.9966(15) 0.4570(12) 0.3067(3)
C50_7 C 0.4604(9) 0.0034(15) 0.3067(3)
C55_7 C 0.9490(11) 0.3742(8) 0.2975(4)
C56_7 C 0.4252(8) 0.0510(11) 0.2975(4)
C57_7 C 0.9529(14) 0.4320(11) 0.3189(4)
C58_7 C 0.4791(9) 0.0471(14) 0.3189(4)
C59_7 C 0.8802(8) 0.3421(6) 0.3202(2)
C60_7 C 0.4619(5) 0.1198(8) 0.3202(2)
H34_7 H 0.8824 0.3425 0.3337
H35_7 H 0.4601 0.1176 0.3337
H36_6 H 0.8755 0.3110 0.3156
H37_7 H 0.4355 0.1245 0.3156
H38_7 H 0.8526 0.3459 0.3165
H39_7 H 0.4933 0.1474 0.3165
I3_7 I 0.87757(7) 0.33966(5) 0.261480(18)
I4_7 I 0.46209(5) 0.12243(7) 0.261480(18)
I5_6 I 0.98191(8) 0.29682(6) 0.30601(3)
I6_7 I 0.31491(6) 0.01809(8) 0.30601(3)
N4_7 N 0.9901(11) 0.4196(10) 0.2947(2)
N5_7 N 0.4295(5) 0.0099(11) 0.2947(2)
N6_7 N 0.9262(12) 0.3830(9) 0.3124(2)
N7_7 N 0.4568(8) 0.0738(12) 0.3124(2)
N8_6 N 0.9118(9) 0.2549(7) 0.2670(3)
N9_7 N 0.3431(5) 0.0882(9) 0.2670(3)
C75_6 C 0.9322(10) 0.2597(6) 0.2492(3)
C76_7 C 0.3275(8) 0.0678(10) 0.2492(3)
H54_6 H 0.9520 0.2910 0.2440
H55_7 H 0.3390 0.0480 0.2440
C77_6 C 0.9231(13) 0.2176(10) 0.2391(2)
C78_7 C 0.2945(8) 0.0769(13) 0.2391(2)
H56_6 H 0.9368 0.2208 0.2272
H57_7 H 0.2840 0.0632 0.2272
C79_6 C 0.8935(10) 0.1707(7) 0.2469(3)
C80_7 C 0.2772(7) 0.1065(10) 0.2469(3)
H58_6 H 0.8873 0.1425 0.2401
H59_7 H 0.2552 0.1127 0.2401
C81_6 C 0.8730(11) 0.1659(6) 0.2647(3)
C82_7 C 0.2929(9) 0.1270(11) 0.2647(3)
H60_6 H 0.8532 0.1345 0.2699
H61_7 H 0.2813 0.1468 0.2699
C83_6 C 0.8822(13) 0.2080(10) 0.27477(19)
C84_7 C 0.3258(8) 0.1178(13) 0.27477(19)
H62_6 H 0.8684 0.2047 0.2867
H63_7 H 0.3363 0.1316 0.2867
O6_7 O 0.7319(4) 0.3726(3) 0.37258(11)
O7_7 O 0.6407(3) 0.2681(4) 0.37258(11)
O8_7 O 0.7799(4) 0.3847(3) 0.39803(15)
O9_7 O 0.6048(3) 0.2201(4) 0.39803(15)
O10_4 O 0.6822(6) 0.4310(7) 0.43102(15)
O11_4 O 0.7487(3) 0.3178(6) 0.43102(15)
O12_4 O 0.5690(7) 0.2513(3) 0.43102(15)
O15_4 O 0.5731(6) 0.3267(5) 0.43360(12)
O16_4 O 0.7535(4) 0.4269(6) 0.43360(12)
O17_4 O 0.6733(5) 0.2465(4) 0.43360(12)
Pd2_6 Pd 0.92970(7) 0.31574(5) 0.28250(2)
Pd3_7 Pd 0.38604(5) 0.07030(7) 0.28250(2)
Zn4_4 Zn 0.73472(8) 0.36369(6) 0.42010(2)
Zn5_4 Zn 0.62897(6) 0.26528(8) 0.42010(2)
Zn6_4 Zn 0.40139(8) 0.70436(6) 0.25343(2)
H64_7 H 0.636317 0.605829 0.307092
H65_7 H 0.394171 0.0304882 0.307092
H66_7 H 0.969512 0.363683 0.307092
C46_7 C 0.5085(9) 0.9776(11) 0.3244(3)
H31_7 H 0.5213 0.9565 0.3261
C52_7 C 0.3867(9) 0.7764(13) 0.2700(3)
C54_7 C 0.4722(8) 0.9661(12) 0.3110(3)
C62_7 C 0.4024(6) 0.9766(8) 0.2778(2)
H41_7 H 0.3771 0.9447 0.2822
H43_7 H 0.4257 0.9727 0.2702
H45_7 H 0.3874 0.9916 0.2705
C64_7 C 0.4499(13) 0.9170(18) 0.2994(3)
C66_7 C 0.4557(13) 0.8578(15) 0.2807(3)
H47_7 H 0.4749 0.8466 0.2748
C68_7 C 0.3993(13) 0.8861(14) 0.2997(2)
H49_7 H 0.3802 0.8955 0.3068
C70_7 C 0.3748(7) 0.8405(13) 0.2898(4)
H51_7 H 0.3404 0.8206 0.2898
C72_7 C 0.4039(13) 0.8280(17) 0.2806(2)
C74_7 C 0.4789(8) 0.9038(14) 0.2895(4)
H53_7 H 0.5130 0.9248 0.2886
O14_4 O 0.4154(3) 0.7643(7) 0.26435(15)
O19_4 O 0.3400(5) 0.7602(6) 0.26693(12)
I2_8 I 0.36985(6) 0.01842(6) 0.63934(3)
C24_8 C 0.4070(6) 0.0058(8) 0.5825(3)
C25_8 C 0.4491(10) 0.0388(8) 0.5724(2)
H18_8 H 0.4459 0.0493 0.5605
C26_8 C 0.4960(7) 0.0561(7) 0.5802(3)
H19_8 H 0.5242 0.0781 0.5734
C27_8 C 0.5008(6) 0.0404(9) 0.5980(3)
H20_8 H 0.5322 0.0520 0.6032
C28_8 C 0.4587(10) 0.0075(8) 0.60810(19)
Zn6_5 Zn 0.06805(8) 0.03770(6) 0.58677(2)
Zn7_5 Zn 0.96230(6) 0.03036(6) 0.58677(2)
C1_8 C 0.2820(5) 0.7199(5) 0.7149(3)
C2_8 C 0.2610(5) 0.7388(5) 0.6831(4)
H1_8 H 0.2714 0.7177 0.6783
C3_8 C 0.2461(6) 0.7629(8) 0.6708(3)
H2_8 H 0.2475 0.7594 0.6578
C4_8 C 0.2289(5) 0.7929(8) 0.6785(3)
C5_8 C 0.2266(5) 0.7989(6) 0.6972(3)
H3_8 H 0.2144 0.8184 0.7022
C6_8 C 0.2436(5) 0.7737(6) 0.7088(2)
H4_8 H 0.2428 0.7776 0.7217
C7_8 C 0.2611(5) 0.7444(6) 0.7024(3)
C8_8 C 0.2094(9) 0.8184(7) 0.6660(3)
C9_8 C 0.1358(7) 0.8248(9) 0.6577(3)
H5_8 H 0.1019 0.8120 0.6594
C10_8 C 0.1611(11) 0.8068(6) 0.6687(2)
H6_8 H 0.1437 0.7855 0.6785
C11_8 C 0.2097(12) 0.8729(9) 0.6400(3)
C12_8 C 0.0564(9) 0.9466(9) 0.6033(3)
C13_8 C 0.1606(9) 0.8611(8) 0.6443(3)
C14_8 C 0.2925(8) 0.9081(8) 0.6308(4)
C15_8 C 0.2347(11) 0.8542(9) 0.6522(4)
C16_8 C 0.3246(6) 0.8714(5) 0.6535(2)
H7_8 H 0.3242 0.8732 0.6670
H8_8 H 0.3557 0.8978 0.6489
H9_8 H 0.3208 0.8400 0.6498
C17_8 C 0.2409(6) 0.9309(6) 0.6111(2)
H10_8 H 0.2343 0.9562 0.6155
H11_8 H 0.2137 0.9076 0.6035
H12_8 H 0.2709 0.9459 0.6038
C18_8 C 0.1338(12) 0.8834(13) 0.6327(3)
C19_8 C 0.0688(7) 0.8776(13) 0.6140(3)
H13_8 H 0.0384 0.8584 0.6081
C20_8 C 0.1535(6) 0.9340(13) 0.6330(2)
H14_8 H 0.1820 0.9531 0.6401
C21_8 C 0.1324(11) 0.9585(7) 0.6231(4)
H15_8 H 0.1469 0.9929 0.6231
C22_8 C 0.0908(11) 0.9294(13) 0.6139(2)
C23_8 C 0.0916(11) 0.8544(8) 0.6228(4)
H16_8 H 0.0785 0.8203 0.6219
I1_8 I 0.32701(5) 0.87124(5) 0.594813(18)
N1_8 N 0.2471(10) 0.9038(5) 0.6280(2)
N2_8 N 0.2837(9) 0.8765(8) 0.6457(2)
N3_8 N 0.4118(7) 0.9902(5) 0.6003(3)
H17_8 H 0.3757 0.9943 0.5773
H21_8 H 0.4620 0.9970 0.6200
O1_12 O 0.3334 0.6666 0.74422(12)
O2_8 O 0.2941(3) 0.6926(3) 0.70591(11)
O3_8 O 0.2820(3) 0.7285(3) 0.73136(15)
O4_5 O 0.0156(6) 0.9179(3) 0.59768(15)
O5_5 O 0.0869(4) 0.9933(5) 0.60026(12)
Pd1_8 Pd 0.35093(5) 0.94729(5) 0.61583(2)
Zn1_12 Zn 0.3334 0.6666 0.71708(3)
Zn2_5 Zn 0.30298(6) 0.70436(6) 0.75343(2)
C29_8 C 0.4380(7) 0.7180(5) 0.7149(3)
C30_8 C 0.2801(5) 0.5620(7) 0.7149(3)
C31_8 C 0.4779(7) 0.7390(5) 0.6831(4)
C32_8 C 0.2612(5) 0.5221(7) 0.6831(4)
H22_8 H 0.4464 0.7286 0.6783
H23_8 H 0.2823 0.5536 0.6783
C33_8 C 0.5169(10) 0.7539(6) 0.6708(3)
C34_8 C 0.2371(8) 0.4831(10) 0.6708(3)
H24_8 H 0.5120 0.7525 0.6578
H25_8 H 0.2406 0.4880 0.6578
C35_8 C 0.5641(9) 0.7711(5) 0.6785(3)
C36_8 C 0.2071(8) 0.4359(9) 0.6785(3)
C37_8 C 0.5724(8) 0.7734(5) 0.6972(3)
C38_8 C 0.2011(6) 0.4276(8) 0.6972(3)
H26_8 H 0.6041 0.7856 0.7022
H27_8 H 0.1816 0.3959 0.7022
C39_8 C 0.5302(8) 0.7564(5) 0.7088(2)
C40_8 C 0.2263(6) 0.4698(8) 0.7088(2)
H28_8 H 0.5349 0.7572 0.7217
H29_8 H 0.2224 0.4651 0.7217
C41_8 C 0.4834(8) 0.7389(5) 0.7024(3)
C42_8 C 0.2556(6) 0.5166(8) 0.7024(3)
C43_8 C 0.6091(11) 0.7906(9) 0.6660(3)
C44_8 C 0.1816(7) 0.3909(11) 0.6660(3)
C45_8 C 0.6891(11) 0.8642(7) 0.6577(3)
C46_8 C 0.1752(9) 0.3109(11) 0.6577(3)
H30_8 H 0.7102 0.8981 0.6594
H31_8 H 0.1880 0.2898 0.6594
C47_8 C 0.6458(13) 0.8389(11) 0.6687(2)
C48_8 C 0.1932(6) 0.3542(13) 0.6687(2)
H32_8 H 0.6419 0.8563 0.6785
H33_8 H 0.2145 0.3581 0.6785
C49_8 C 0.6633(15) 0.7903(12) 0.6400(3)
C50_8 C 0.1271(9) 0.3367(15) 0.6400(3)
C51_8 C 0.8903(13) 0.9436(9) 0.6033(3)
C52_8 C 0.0534(9) 0.1097(13) 0.6033(3)
C53_8 C 0.7006(12) 0.8394(9) 0.6443(3)
C54_8 C 0.1389(8) 0.2994(12) 0.6443(3)
C55_8 C 0.6157(11) 0.7075(8) 0.6308(4)
C56_8 C 0.0919(8) 0.3843(11) 0.6308(4)
C57_8 C 0.6196(14) 0.7653(11) 0.6522(4)
C58_8 C 0.1458(9) 0.3804(14) 0.6522(4)
C59_8 C 0.5469(8) 0.6754(6) 0.6535(2)
C60_8 C 0.1286(5) 0.4531(8) 0.6535(2)
H34_8 H 0.5491 0.6758 0.6670
H35_8 H 0.1268 0.4509 0.6670
H36_7 H 0.5422 0.6443 0.6489
H37_8 H 0.1022 0.4578 0.6489
H38_8 H 0.5193 0.6792 0.6498
H39_8 H 0.1600 0.4807 0.6498
C61_8 C 0.6901(8) 0.7591(6) 0.6111(2)
C62_8 C 0.0691(6) 0.3099(8) 0.6111(2)
H40_8 H 0.7220 0.7657 0.6155
H41_8 H 0.0438 0.2780 0.6155
H42_8 H 0.6940 0.7863 0.6035
H43_8 H 0.0924 0.3060 0.6035
H44_8 H 0.6751 0.7291 0.6038
H45_8 H 0.0541 0.3249 0.6038
C63_8 C 0.7497(18) 0.8662(12) 0.6327(3)
C64_8 C 0.1166(13) 0.2503(18) 0.6327(3)
C65_8 C 0.8089(15) 0.9312(7) 0.6140(3)
C66_8 C 0.1224(13) 0.1911(15) 0.6140(3)
H46_8 H 0.8201 0.9616 0.6081
H47_8 H 0.1416 0.1799 0.6081
C67_8 C 0.7806(14) 0.8465(6) 0.6330(2)
C68_8 C 0.0660(13) 0.2194(14) 0.6330(2)
H48_8 H 0.7712 0.8180 0.6401
H49_8 H 0.0469 0.2288 0.6401
C69_8 C 0.8262(13) 0.8676(11) 0.6231(4)
C70_8 C 0.0415(7) 0.1738(13) 0.6231(4)
H50_8 H 0.8461 0.8531 0.6231
H51_8 H 0.0071 0.1539 0.6231
C71_8 C 0.8387(17) 0.9092(11) 0.6139(2)
C72_8 C 0.0706(13) 0.1613(17) 0.6139(2)
C73_8 C 0.7629(14) 0.9084(11) 0.6228(4)
C74_8 C 0.1456(8) 0.2371(14) 0.6228(4)
H52_8 H 0.7419 0.9215 0.6219
H53_8 H 0.1797 0.2581 0.6219
I3_8 I 0.54424(7) 0.67299(5) 0.594813(18)
I4_8 I 0.12876(5) 0.45576(7) 0.594813(18)
I5_7 I 0.64858(8) 0.63015(6) 0.63934(3)
N4_8 N 0.6568(11) 0.7529(10) 0.6280(2)
N5_8 N 0.0962(5) 0.3432(11) 0.6280(2)
N6_8 N 0.5929(12) 0.7163(9) 0.6457(2)
N7_8 N 0.1235(8) 0.4071(12) 0.6457(2)
N8_7 N 0.5785(9) 0.5882(7) 0.6003(3)
N9_8 N 0.0098(5) 0.4215(9) 0.6003(3)
C75_7 C 0.5989(10) 0.5930(6) 0.5825(3)
H54_7 H 0.6187 0.6243 0.5773
H55_8 H 0.0057 0.3813 0.5773
C77_7 C 0.5898(13) 0.5509(10) 0.5724(2)
H56_7 H 0.6035 0.5541 0.5605
C79_7 C 0.5602(10) 0.5040(7) 0.5802(3)
H58_7 H 0.5540 0.4758 0.5734
C81_7 C 0.5397(11) 0.4992(6) 0.5980(3)
H60_7 H 0.5199 0.4678 0.6032
C83_7 C 0.5489(13) 0.5413(10) 0.60810(19)
H62_7 H 0.5351 0.5380 0.6200
H63_8 H 0.0030 0.4649 0.6200
O6_8 O 0.3986(4) 0.7059(3) 0.70591(11)
O7_8 O 0.3074(3) 0.6014(4) 0.70591(11)
O8_8 O 0.4466(4) 0.7180(3) 0.73136(15)
O9_8 O 0.2715(3) 0.5534(4) 0.73136(15)
O10_5 O 0.3489(6) 0.7643(7) 0.76435(15)
O11_5 O 0.4154(3) 0.6511(6) 0.76435(15)
O12_5 O 0.2357(7) 0.5846(3) 0.76435(15)
O13_5 O 0.9024(7) 0.9844(6) 0.59768(15)
O14_5 O 0.0821(3) 0.0976(7) 0.59768(15)
O15_5 O 0.2398(6) 0.6600(5) 0.76693(12)
O16_5 O 0.4202(4) 0.7602(6) 0.76693(12)
O17_5 O 0.3400(5) 0.5798(4) 0.76693(12)
O18_5 O 0.9065(6) 0.9131(4) 0.60026(12)
O19_5 O 0.0067(5) 0.0935(6) 0.60026(12)
Pd2_7 Pd 0.59637(7) 0.64907(5) 0.61583(2)
Pd3_8 Pd 0.05271(5) 0.40363(7) 0.61583(2)
Zn4_5 Zn 0.40139(8) 0.69702(6) 0.75343(2)
Zn5_5 Zn 0.29564(6) 0.59861(8) 0.75343(2)
Zn8_5 Zn 0.96964(6) 0.93195(8) 0.58677(2)
H64_8 H 0.302983 0.939162 0.640426
H65_8 H 0.0608381 0.363822 0.640426
H66_8 H 0.636178 0.697017 0.640426
I6_8 I 0.98158(6) 0.35142(8) 0.63934(3)
C76_8 C 0.9942(8) 0.4011(10) 0.5825(3)
C78_8 C 0.9612(8) 0.4102(13) 0.5724(2)
H57_8 H 0.9507 0.3965 0.5605
C80_8 C 0.9439(7) 0.4398(10) 0.5802(3)
H59_8 H 0.9219 0.4460 0.5734
C82_8 C 0.9596(9) 0.4603(11) 0.5980(3)
H61_8 H 0.9480 0.4801 0.6032
C84_8 C 0.9925(8) 0.4511(13) 0.60810(19)
C29_9 C 0.1046(7) 0.0514(5) 0.0483(3)
C31_9 C 0.1445(7) 0.0724(5) 0.0165(4)
H22_9 H 0.1130 0.0620 0.0117
C33_9 C 0.1835(10) 0.0873(6) 0.0042(3)
C35_9 C 0.2307(9) 0.1045(5) 0.0119(3)
C37_9 C 0.2390(8) 0.1068(5) 0.0306(3)
H26_9 H 0.2707 0.1190 0.0356
C39_9 C 0.1968(8) 0.0898(5) 0.0422(2)
H28_9 H 0.2015 0.0906 0.0551
C41_9 C 0.1500(8) 0.0723(5) 0.0358(3)
C47_9 C 0.3124(13) 0.1723(11) 0.0021(2)
H32_9 H 0.3085 0.1897 0.0119
H34_9 H 0.2157 0.0092 0.0004
O6_9 O 0.0652(4) 0.0393(3) 0.03925(11)
O8_9 O 0.1132(4) 0.0514(3) 0.06470(15)
O10_6 O 0.0156(6) 0.0976(7) 0.09768(15)
O16_6 O 0.0869(4) 0.0935(6) 0.10026(12)
Zn4_6 Zn 0.06805(8) 0.03036(6) 0.08677(2)
H8_9 H 0.0223 0.2312 0.9823
I2_9 I 0.03651(6) 0.35176(6) 0.97268(3)
N3_9 N 0.0784(7) 0.3236(5) 0.9337(3)
C24_9 C 0.0736(6) 0.3392(8) 0.9159(3)
H17_9 H 0.0423 0.3277 0.9107
C25_9 C 0.1157(10) 0.3722(8) 0.9058(2)
H18_9 H 0.1125 0.3827 0.8939
C26_9 C 0.1626(7) 0.3895(7) 0.9136(3)
H19_9 H 0.1908 0.4115 0.9068
C27_9 C 0.1674(6) 0.3738(9) 0.9314(3)
H20_9 H 0.1988 0.3854 0.9366
C28_9 C 0.1253(10) 0.3409(8) 0.94144(19)
H21_9 H 0.1286 0.3304 0.9534
Pd1_9 Pd 0.01759(5) 0.28063(5) 0.94917(2)
H24_9 H 0.1786 0.0859 0.9912
C43_9 C 0.2757(11) 0.1240(9) 0.9994(3)
C45_9 C 0.3557(11) 0.1976(7) 0.9911(3)
H30_9 H 0.3768 0.2315 0.9928
C49_9 C 0.3299(15) 0.1237(12) 0.9734(3)
C51_9 C 0.5569(13) 0.2770(9) 0.9367(3)
C53_9 C 0.3672(12) 0.1728(9) 0.9777(3)
C55_9 C 0.2823(11) 0.0409(8) 0.9642(4)
C57_9 C 0.2862(14) 0.0987(11) 0.9856(4)
C59_9 C 0.2135(8) 0.0088(6) 0.9869(2)
H38_9 H 0.1859 0.0126 0.9832
C61_9 C 0.3567(8) 0.0925(6) 0.9445(2)
H40_9 H 0.3886 0.0991 0.9489
H42_9 H 0.3606 0.1197 0.9369
H44_9 H 0.3417 0.0625 0.9372
C63_9 C 0.4163(18) 0.1996(12) 0.9661(3)
C65_9 C 0.4755(15) 0.2646(7) 0.9474(3)
H46_9 H 0.4867 0.2950 0.9415
C67_9 C 0.4472(14) 0.1799(6) 0.9664(2)
H48_9 H 0.4378 0.1514 0.9735
C69_9 C 0.4928(13) 0.2010(11) 0.9565(4)
H50_9 H 0.5127 0.1865 0.9565
C71_9 C 0.5053(17) 0.2426(11) 0.9473(2)
C73_9 C 0.4295(14) 0.2418(11) 0.9562(4)
H52_9 H 0.4085 0.2549 0.9553
I3_9 I 0.21090(7) 0.00633(5) 0.928147(18)
N4_9 N 0.3234(11) 0.0863(10) 0.9614(2)
N6_9 N 0.2595(12) 0.0497(9) 0.9791(2)
O13_6 O 0.5690(7) 0.3178(6) 0.93102(15)
O18_6 O 0.5731(6) 0.2465(4) 0.93360(12)
Zn7_6 Zn 0.62897(6) 0.36369(6) 0.92010(2)
Zn8_6 Zn 0.63631(6) 0.26528(8) 0.92010(2)
H66_9 H 0.302845 0.0303499 0.973759
O1_13 O 0.0000 1.0000 0.07756(12)
Zn1_13 Zn 0.0000 1.0000 0.05042(3)
O11_6 O 0.0821(3) 0.9844(6) 0.09768(15)
O17_6 O 0.0067(5) 0.9131(4) 0.10026(12)
C1_9 C 0.9486(5) 0.0533(5) 0.0483(3)
C2_9 C 0.9276(5) 0.0722(5) 0.0165(4)
H1_9 H 0.9380 0.0511 0.0117
C3_9 C 0.9127(6) 0.0963(8) 0.0042(3)
C4_9 C 0.8955(5) 0.1263(8) 0.0119(3)
C5_9 C 0.8932(5) 0.1323(6) 0.0306(3)
H3_9 H 0.8810 0.1518 0.0356
C6_9 C 0.9102(5) 0.1071(6) 0.0422(2)
H4_9 H 0.9094 0.1110 0.0551
C7_9 C 0.9277(5) 0.0778(6) 0.0358(3)
C10_9 C 0.8277(11) 0.1402(6) 0.0021(2)
H6_9 H 0.8103 0.1189 0.0119
H7_9 H 0.9908 0.2066 0.0004
O2_9 O 0.9607(3) 0.0260(3) 0.03925(11)
O3_9 O 0.9486(3) 0.0619(3) 0.06470(15)
Zn2_6 Zn 0.96964(6) 0.03770(6) 0.08677(2)
H2_9 H 0.9141 0.0928 0.9912
C8_9 C 0.8760(9) 0.1518(7) 0.9994(3)
C9_9 C 0.8024(7) 0.1582(9) 0.9911(3)
H5_9 H 0.7685 0.1454 0.9928
C11_9 C 0.8763(12) 0.2063(9) 0.9734(3)
C12_9 C 0.7230(9) 0.2800(9) 0.9367(3)
C13_9 C 0.8272(9) 0.1945(8) 0.9777(3)
C14_9 C 0.9591(8) 0.2415(8) 0.9642(4)
C15_9 C 0.9013(11) 0.1876(9) 0.9856(4)
C16_9 C 0.9912(6) 0.2048(5) 0.9869(2)
H9_9 H 0.9874 0.1734 0.9832
C17_9 C 0.9075(6) 0.2643(6) 0.9445(2)
H10_9 H 0.9009 0.2896 0.9489
H11_9 H 0.8803 0.2410 0.9369
H12_9 H 0.9375 0.2793 0.9372
C18_9 C 0.8004(12) 0.2168(13) 0.9661(3)
C19_9 C 0.7354(7) 0.2110(13) 0.9474(3)
H13_9 H 0.7050 0.1918 0.9415
C20_9 C 0.8201(6) 0.2674(13) 0.9664(2)
H14_9 H 0.8486 0.2865 0.9735
C21_9 C 0.7990(11) 0.2919(7) 0.9565(4)
H15_9 H 0.8135 0.3263 0.9565
C22_9 C 0.7574(11) 0.2628(13) 0.9473(2)
C23_9 C 0.7582(11) 0.1878(8) 0.9562(4)
H16_9 H 0.7451 0.1537 0.9553
I1_9 I 0.99367(5) 0.20458(5) 0.928147(18)
N1_9 N 0.9137(10) 0.2372(5) 0.9614(2)
N2_9 N 0.9503(9) 0.2099(8) 0.9791(2)
O4_6 O 0.6822(6) 0.2513(3) 0.93102(15)
O5_6 O 0.7535(4) 0.3267(5) 0.93360(12)
Zn6_6 Zn 0.73472(8) 0.37103(6) 0.92010(2)
H64_9 H 0.96965 0.272495 0.973759
C30_9 C 0.9467(5) 0.8954(7) 0.0483(3)
C32_9 C 0.9278(5) 0.8555(7) 0.0165(4)
H23_9 H 0.9489 0.8870 0.0117
C34_9 C 0.9037(8) 0.8165(10) 0.0042(3)
C36_9 C 0.8737(8) 0.7693(9) 0.0119(3)
C38_9 C 0.8677(6) 0.7610(8) 0.0306(3)
H27_9 H 0.8482 0.7293 0.0356
C40_9 C 0.8929(6) 0.8032(8) 0.0422(2)
H29_9 H 0.8890 0.7985 0.0551
C42_9 C 0.9222(6) 0.8500(8) 0.0358(3)
C48_9 C 0.8598(6) 0.6876(13) 0.0021(2)
H33_9 H 0.8811 0.6915 0.0119
H35_9 H 0.7934 0.7843 0.0004
O7_9 O 0.9740(3) 0.9348(4) 0.03925(11)
O9_9 O 0.9381(3) 0.8868(4) 0.06470(15)
O12_6 O 0.9024(7) 0.9179(3) 0.09768(15)
O15_6 O 0.9065(6) 0.9933(5) 0.10026(12)
Zn5_6 Zn 0.96230(6) 0.93195(8) 0.08677(2)
H25_9 H 0.9072 0.8214 0.9912
C44_9 C 0.8482(7) 0.7243(11) 0.9994(3)
C46_9 C 0.8418(9) 0.6443(11) 0.9911(3)
H31_9 H 0.8546 0.6232 0.9928
C50_9 C 0.7937(9) 0.6701(15) 0.9734(3)
C52_9 C 0.7200(9) 0.4431(13) 0.9367(3)
C54_9 C 0.8055(8) 0.6328(12) 0.9777(3)
C56_9 C 0.7585(8) 0.7177(11) 0.9642(4)
C58_9 C 0.8124(9) 0.7138(14) 0.9856(4)
C60_9 C 0.7952(5) 0.7865(8) 0.9869(2)
H37_9 H 0.7688 0.7912 0.9823
H39_9 H 0.8266 0.8141 0.9832
C62_9 C 0.7357(6) 0.6433(8) 0.9445(2)
H41_9 H 0.7104 0.6114 0.9489
H43_9 H 0.7590 0.6394 0.9369
H45_9 H 0.7207 0.6583 0.9372
C64_9 C 0.7832(13) 0.5837(18) 0.9661(3)
C66_9 C 0.7890(13) 0.5245(15) 0.9474(3)
H47_9 H 0.8082 0.5133 0.9415
C68_9 C 0.7326(13) 0.5528(14) 0.9664(2)
H49_9 H 0.7135 0.5622 0.9735
C70_9 C 0.7081(7) 0.5072(13) 0.9565(4)
H51_9 H 0.6737 0.4873 0.9565
C72_9 C 0.7372(13) 0.4947(17) 0.9473(2)
C74_9 C 0.8122(8) 0.5705(14) 0.9562(4)
H53_9 H 0.8463 0.5915 0.9553
I4_9 I 0.79542(5) 0.78910(7) 0.928147(18)
I6_9 I 0.64824(6) 0.68476(8) 0.97268(3)
N5_9 N 0.7628(5) 0.6766(11) 0.9614(2)
N7_9 N 0.7901(8) 0.7405(12) 0.9791(2)
N9_9 N 0.6764(5) 0.7549(9) 0.9337(3)
C76_9 C 0.6608(8) 0.7345(10) 0.9159(3)
H55_9 H 0.6723 0.7147 0.9107
C78_9 C 0.6278(8) 0.7436(13) 0.9058(2)
H57_9 H 0.6173 0.7299 0.8939
C80_9 C 0.6105(7) 0.7732(10) 0.9136(3)
H59_9 H 0.5885 0.7794 0.9068
C82_9 C 0.6262(9) 0.7937(11) 0.9314(3)
H61_9 H 0.6146 0.8135 0.9366
C84_9 C 0.6591(8) 0.7845(13) 0.94144(19)
H63_9 H 0.6696 0.7983 0.9534
O14_6 O 0.7487(3) 0.4310(7) 0.93102(15)
O19_6 O 0.6733(5) 0.4269(6) 0.93360(12)
Pd3_9 Pd 0.71937(5) 0.73697(7) 0.94917(2)
H65_9 H 0.727505 0.697155 0.973759
O1_14 O 0.9999 1.0000 0.07756(12)
Zn1_14 Zn 0.9999 1.0000 0.05042(3)
O1_15 O 0.0000 0.0001 0.07756(12)
Zn1_15 Zn 0.0000 0.0001 0.05042(3)
C46_10 C 0.0224(11) 0.4915(9) 0.8244(3)
H31_10 H 0.0435 0.4787 0.8261
C52_10 C 0.2236(13) 0.6133(9) 0.7700(3)
C54_10 C 0.0339(12) 0.5278(8) 0.8110(3)
C62_10 C 0.0234(8) 0.5976(6) 0.7778(2)
H41_10 H 0.0553 0.6229 0.7822
H43_10 H 0.0273 0.5743 0.7702
H45_10 H 0.0084 0.6126 0.7705
C64_10 C 0.0830(18) 0.5501(13) 0.7994(3)
C66_10 C 0.1422(15) 0.5443(13) 0.7807(3)
H47_10 H 0.1534 0.5251 0.7748
C68_10 C 0.1139(14) 0.6007(13) 0.7997(2)
H49_10 H 0.1045 0.6198 0.8068
C70_10 C 0.1595(13) 0.6252(7) 0.7898(4)
H51_10 H 0.1794 0.6596 0.7898
C72_10 C 0.1720(17) 0.5961(13) 0.7806(2)
C74_10 C 0.0962(14) 0.5211(8) 0.7895(4)
H53_10 H 0.0752 0.4870 0.7886
C1_10 C 0.6134(5) 0.3847(5) 0.8816(3)
C2_10 C 0.5945(5) 0.4057(5) 0.8498(4)
H1_10 H 0.6156 0.3953 0.8450
C3_10 C 0.5704(8) 0.4206(6) 0.8375(3)
H2_10 H 0.5739 0.4192 0.8245
C4_10 C 0.5404(8) 0.4378(5) 0.8452(3)
C5_10 C 0.5344(6) 0.4401(5) 0.8639(3)
H3_10 H 0.5149 0.4523 0.8689
C6_10 C 0.5596(6) 0.4231(5) 0.8755(2)
H4_10 H 0.5557 0.4239 0.8884
C7_10 C 0.5889(6) 0.4056(5) 0.8691(3)
C8_10 C 0.5149(7) 0.4573(9) 0.8327(3)
C9_10 C 0.5085(9) 0.5309(7) 0.8244(3)
H5_10 H 0.5213 0.5648 0.8261
C10_10 C 0.5265(6) 0.5056(11) 0.8354(2)
H6_10 H 0.5478 0.5230 0.8452
C11_10 C 0.4604(9) 0.4570(12) 0.8067(3)
C12_10 C 0.3867(9) 0.6103(9) 0.7700(3)
C13_10 C 0.4722(8) 0.5061(9) 0.8110(3)
C14_10 C 0.4252(8) 0.3742(8) 0.7975(4)
C15_10 C 0.4791(9) 0.4320(11) 0.8189(4)
C16_10 C 0.4619(5) 0.3421(6) 0.8202(2)
H7_10 H 0.4601 0.3425 0.8337
H8_10 H 0.4355 0.3110 0.8156
H9_10 H 0.4933 0.3459 0.8165
C17_10 C 0.4024(6) 0.4258(6) 0.7778(2)
H10_10 H 0.3771 0.4324 0.7822
H11_10 H 0.4257 0.4530 0.7702
H12_10 H 0.3874 0.3958 0.7705
C18_10 C 0.4499(13) 0.5329(12) 0.7994(3)
C19_10 C 0.4557(13) 0.5979(7) 0.7807(3)
H13_10 H 0.4749 0.6283 0.7748
C20_10 C 0.3993(13) 0.5132(6) 0.7997(2)
H14_10 H 0.3802 0.4847 0.8068
C21_10 C 0.3748(7) 0.5343(11) 0.7898(4)
H15_10 H 0.3404 0.5198 0.7898
C22_10 C 0.4039(13) 0.5759(11) 0.7806(2)
C23_10 C 0.4789(8) 0.5751(11) 0.7895(4)
H16_10 H 0.5130 0.5882 0.7886
I1_10 I 0.46209(5) 0.33966(5) 0.761480(18)
I2_10 I 0.31491(6) 0.29682(6) 0.80601(3)
N1_10 N 0.4295(5) 0.4196(10) 0.7947(2)
N2_10 N 0.4568(8) 0.3830(9) 0.8124(2)
N3_10 N 0.3431(5) 0.2549(7) 0.7670(3)
C24_10 C 0.3275(8) 0.2597(6) 0.7492(3)
H17_10 H 0.3390 0.2910 0.7440
C25_10 C 0.2945(8) 0.2176(10) 0.7391(2)
H18_10 H 0.2840 0.2208 0.7272
C26_10 C 0.2772(7) 0.1707(7) 0.7469(3)
H19_10 H 0.2552 0.1425 0.7401
C27_10 C 0.2929(9) 0.1659(6) 0.7647(3)
H20_10 H 0.2813 0.1345 0.7699
C28_10 C 0.3258(8) 0.2080(10) 0.77477(19)
H21_10 H 0.3363 0.2047 0.7867
O1_16 O 0.6667 0.3333 0.91089(12)
O2_10 O 0.6407(3) 0.3726(3) 0.87258(11)
O3_10 O 0.6048(3) 0.3847(3) 0.89803(15)
Pd1_10 Pd 0.38604(5) 0.31574(5) 0.78250(2)
Zn1_16 Zn 0.6667 0.3333 0.88375(3)
C29_10 C 0.6153(5) 0.2287(7) 0.8816(3)
C30_10 C 0.7713(7) 0.3866(5) 0.8816(3)
C31_10 C 0.5943(5) 0.1888(7) 0.8498(4)
C32_10 C 0.8112(7) 0.4055(5) 0.8498(4)
H22_10 H 0.6047 0.2203 0.8450
H23_10 H 0.7797 0.3844 0.8450
C33_10 C 0.5794(6) 0.1498(10) 0.8375(3)
C34_10 C 0.8502(10) 0.4296(8) 0.8375(3)
H24_10 H 0.5808 0.1547 0.8245
H25_10 H 0.8453 0.4261 0.8245
C35_10 C 0.5622(5) 0.1026(9) 0.8452(3)
C36_10 C 0.8974(9) 0.4596(8) 0.8452(3)
C37_10 C 0.5599(5) 0.0943(8) 0.8639(3)
C38_10 C 0.9057(8) 0.4656(6) 0.8639(3)
H26_10 H 0.5477 0.0626 0.8689
H27_10 H 0.9374 0.4851 0.8689
C39_10 C 0.5769(5) 0.1365(8) 0.8755(2)
C40_10 C 0.8635(8) 0.4404(6) 0.8755(2)
H28_10 H 0.5761 0.1318 0.8884
H29_10 H 0.8682 0.4443 0.8884
C41_10 C 0.5944(5) 0.1833(8) 0.8691(3)
C42_10 C 0.8167(8) 0.4111(6) 0.8691(3)
C43_10 C 0.5427(9) 0.0576(11) 0.8327(3)
C44_10 C 0.9424(11) 0.4851(7) 0.8327(3)
C47_10 C 0.4944(11) 0.0209(13) 0.8354(2)
C48_10 C 0.9791(13) 0.4735(6) 0.8354(2)
H32_10 H 0.4770 0.0248 0.8452
H33_10 H 0.9752 0.4522 0.8452
C49_10 C 0.5430(12) 0.0034(15) 0.8067(3)
C50_10 C 0.9966(15) 0.5396(9) 0.8067(3)
C55_10 C 0.6258(8) 0.0510(11) 0.7975(4)
C56_10 C 0.9490(11) 0.5748(8) 0.7975(4)
C57_10 C 0.5680(11) 0.0471(14) 0.8189(4)
C58_10 C 0.9529(14) 0.5209(9) 0.8189(4)
C59_10 C 0.6579(6) 0.1198(8) 0.8202(2)
C60_10 C 0.8802(8) 0.5381(5) 0.8202(2)
H34_10 H 0.6575 0.1176 0.8337
H35_10 H 0.8824 0.5399 0.8337
H36_8 H 0.6890 0.1245 0.8156
H37_10 H 0.8755 0.5645 0.8156
H38_10 H 0.6541 0.1474 0.8165
H39_10 H 0.8526 0.5067 0.8165
I3_10 I 0.66034(5) 0.12243(7) 0.761480(18)
I4_10 I 0.87757(7) 0.53791(5) 0.761480(18)
I5_8 I 0.70318(6) 0.01809(8) 0.80601(3)
I6_10 I 0.98191(8) 0.68509(6) 0.80601(3)
N4_10 N 0.5804(10) 0.0099(11) 0.7947(2)
N5_10 N 0.9901(11) 0.5705(5) 0.7947(2)
N6_10 N 0.6170(9) 0.0738(12) 0.8124(2)
N7_10 N 0.9262(12) 0.5432(8) 0.8124(2)
N8_8 N 0.7451(7) 0.0882(9) 0.7670(3)
N9_10 N 0.9118(9) 0.6569(5) 0.7670(3)
C75_8 C 0.7403(6) 0.0678(10) 0.7492(3)
C76_10 C 0.9322(10) 0.6725(8) 0.7492(3)
H54_8 H 0.7090 0.0480 0.7440
H55_10 H 0.9520 0.6610 0.7440
C77_8 C 0.7824(10) 0.0769(13) 0.7391(2)
C78_10 C 0.9231(13) 0.7055(8) 0.7391(2)
H56_8 H 0.7792 0.0632 0.7272
H57_10 H 0.9368 0.7160 0.7272
C79_8 C 0.8293(7) 0.1065(10) 0.7469(3)
C80_10 C 0.8935(10) 0.7228(7) 0.7469(3)
H58_8 H 0.8575 0.1127 0.7401
H59_10 H 0.8873 0.7448 0.7401
C81_8 C 0.8341(6) 0.1270(11) 0.7647(3)
C82_10 C 0.8730(11) 0.7071(9) 0.7647(3)
H60_8 H 0.8655 0.1468 0.7699
H61_10 H 0.8532 0.7187 0.7699
C83_8 C 0.7920(10) 0.1178(13) 0.77477(19)
C84_10 C 0.8822(13) 0.6742(8) 0.77477(19)
H62_8 H 0.7953 0.1316 0.7867
H63_10 H 0.8684 0.6637 0.7867
O6_10 O 0.6274(3) 0.2681(4) 0.87258(11)
O7_10 O 0.7319(4) 0.3593(3) 0.87258(11)
O8_10 O 0.6153(3) 0.2201(4) 0.89803(15)
O9_10 O 0.7799(4) 0.3952(3) 0.89803(15)
Pd2_8 Pd 0.68426(5) 0.07030(7) 0.78250(2)
Pd3_10 Pd 0.92970(7) 0.61396(5) 0.78250(2)
H64_10 H 0.394171 0.363683 0.807092
H65_10 H 0.969512 0.605829 0.807092
H66_10 H 0.636317 0.0304882 0.807092
C45_10 C 0.4691(7) 0.9776(11) 0.8244(3)
H30_10 H 0.4352 0.9565 0.8261
C51_10 C 0.3897(9) 0.7764(13) 0.7700(3)
C53_10 C 0.4939(9) 0.9661(12) 0.8110(3)
C61_10 C 0.5742(6) 0.9766(8) 0.7778(2)
H40_10 H 0.5676 0.9447 0.7822
H42_10 H 0.5470 0.9727 0.7702
H44_10 H 0.6042 0.9916 0.7705
C63_10 C 0.4671(12) 0.9170(18) 0.7994(3)
C65_10 C 0.4021(7) 0.8578(15) 0.7807(3)
H46_10 H 0.3717 0.8466 0.7748
C67_10 C 0.4868(6) 0.8861(14) 0.7997(2)
H48_10 H 0.5153 0.8955 0.8068
C69_10 C 0.4657(11) 0.8405(13) 0.7898(4)
H50_10 H 0.4802 0.8206 0.7898
C71_10 C 0.4241(11) 0.8280(17) 0.7806(2)
C73_10 C 0.4249(11) 0.9038(14) 0.7895(4)
H52_10 H 0.4118 0.9248 0.7886
C30_11 C 0.1046(7) 0.0533(5) 0.5483(3)
C32_11 C 0.1445(7) 0.0722(5) 0.5165(4)
H23_11 H 0.1130 0.0511 0.5117
C34_11 C 0.1835(10) 0.0963(8) 0.5042(3)
H25_11 H 0.1786 0.0928 0.4912
C36_11 C 0.2307(9) 0.1263(8) 0.5119(3)
C38_11 C 0.2390(8) 0.1323(6) 0.5306(3)
H27_11 H 0.2707 0.1518 0.5356
C40_11 C 0.1968(8) 0.1071(6) 0.5422(2)
H29_11 H 0.2015 0.1110 0.5551
C42_11 C 0.1500(8) 0.0778(6) 0.5358(3)
C44_11 C 0.2757(11) 0.1518(7) 0.4994(3)
C46_11 C 0.3557(11) 0.1582(9) 0.4911(3)
H31_11 H 0.3768 0.1454 0.4928
C48_11 C 0.3124(13) 0.1402(6) 0.5021(2)
H33_11 H 0.3085 0.1189 0.5119
C50_11 C 0.3299(15) 0.2063(9) 0.4734(3)
C52_11 C 0.5569(13) 0.2800(9) 0.4367(3)
C54_11 C 0.3672(12) 0.1945(8) 0.4777(3)
C56_11 C 0.2823(11) 0.2415(8) 0.4642(4)
C58_11 C 0.2862(14) 0.1876(9) 0.4856(4)
C60_11 C 0.2135(8) 0.2048(5) 0.4869(2)
H35_11 H 0.2157 0.2066 0.5004
H37_11 H 0.2088 0.2312 0.4823
H39_11 H 0.1859 0.1734 0.4832
C62_11 C 0.3567(8) 0.2643(6) 0.4445(2)
H41_11 H 0.3886 0.2896 0.4489
H43_11 H 0.3606 0.2410 0.4369
H45_11 H 0.3417 0.2793 0.4372
C64_11 C 0.4163(18) 0.2168(13) 0.4661(3)
C66_11 C 0.4755(15) 0.2110(13) 0.4474(3)
H47_11 H 0.4867 0.1918 0.4415
C68_11 C 0.4472(14) 0.2674(13) 0.4664(2)
H49_11 H 0.4378 0.2865 0.4735
C70_11 C 0.4928(13) 0.2919(7) 0.4565(4)
H51_11 H 0.5127 0.3263 0.4565
C72_11 C 0.5053(17) 0.2628(13) 0.4473(2)
C74_11 C 0.4295(14) 0.1878(8) 0.4562(4)
H53_11 H 0.4085 0.1537 0.4553
I4_11 I 0.21090(7) 0.20458(5) 0.428147(18)
I6_11 I 0.31524(8) 0.35176(6) 0.47268(3)
N5_11 N 0.3234(11) 0.2372(5) 0.4614(2)
N7_11 N 0.2595(12) 0.2099(8) 0.4791(2)
N9_11 N 0.2451(9) 0.3236(5) 0.4337(3)
C76_11 C 0.2655(10) 0.3392(8) 0.4159(3)
H55_11 H 0.2853 0.3277 0.4107
C78_11 C 0.2564(13) 0.3722(8) 0.4058(2)
H57_11 H 0.2701 0.3827 0.3939
C80_11 C 0.2268(10) 0.3895(7) 0.4136(3)
H59_11 H 0.2206 0.4115 0.4068
C82_11 C 0.2063(11) 0.3738(9) 0.4314(3)
H61_11 H 0.1865 0.3854 0.4366
C84_11 C 0.2155(13) 0.3409(8) 0.44144(19)
H63_11 H 0.2017 0.3304 0.4534
O7_11 O 0.0652(4) 0.0260(3) 0.53925(11)
O9_11 O 0.1132(4) 0.0619(3) 0.56470(15)
Pd3_11 Pd 0.26303(7) 0.28063(5) 0.44917(2)
H65_11 H 0.302845 0.272495 0.473759
O1_17 O 0.0000 1.0000 0.57756(12)
Zn1_17 Zn 0.0000 1.0000 0.55042(3)
H36_9 H 0.0223 0.7912 0.4823
I5_9 I 0.03651(6) 0.68476(8) 0.47268(3)
N8_9 N 0.0784(7) 0.7549(9) 0.4337(3)
C75_9 C 0.0736(6) 0.7345(10) 0.4159(3)
H54_9 H 0.0423 0.7147 0.4107
C77_9 C 0.1157(10) 0.7436(13) 0.4058(2)
H56_9 H 0.1125 0.7299 0.3939
C79_9 C 0.1626(7) 0.7732(10) 0.4136(3)
H58_9 H 0.1908 0.7794 0.4068
C81_9 C 0.1674(6) 0.7937(11) 0.4314(3)
H60_9 H 0.1988 0.8135 0.4366
C83_9 C 0.1253(10) 0.7845(13) 0.44144(19)
H62_9 H 0.1286 0.7983 0.4534
Pd2_9 Pd 0.01759(5) 0.73697(7) 0.44917(2)
C1_11 C 0.9467(5) 0.0514(5) 0.5483(3)
C2_11 C 0.9278(5) 0.0724(5) 0.5165(4)
H1_11 H 0.9489 0.0620 0.5117
C3_11 C 0.9037(8) 0.0873(6) 0.5042(3)
H2_11 H 0.9072 0.0859 0.4912
C4_11 C 0.8737(8) 0.1045(5) 0.5119(3)
C5_11 C 0.8677(6) 0.1068(5) 0.5306(3)
H3_11 H 0.8482 0.1190 0.5356
C6_11 C 0.8929(6) 0.0898(5) 0.5422(2)
H4_11 H 0.8890 0.0906 0.5551
C7_11 C 0.9222(6) 0.0723(5) 0.5358(3)
C8_11 C 0.8482(7) 0.1240(9) 0.4994(3)
C9_11 C 0.8418(9) 0.1976(7) 0.4911(3)
H5_11 H 0.8546 0.2315 0.4928
C10_11 C 0.8598(6) 0.1723(11) 0.5021(2)
H6_11 H 0.8811 0.1897 0.5119
C11_11 C 0.7937(9) 0.1237(12) 0.4734(3)
C12_11 C 0.7200(9) 0.2770(9) 0.4367(3)
C13_11 C 0.8055(8) 0.1728(9) 0.4777(3)
C14_11 C 0.7585(8) 0.0409(8) 0.4642(4)
C15_11 C 0.8124(9) 0.0987(11) 0.4856(4)
C16_11 C 0.7952(5) 0.0088(6) 0.4869(2)
H7_11 H 0.7934 0.0092 0.5004
H9_11 H 0.8266 0.0126 0.4832
C17_11 C 0.7357(6) 0.0925(6) 0.4445(2)
H10_11 H 0.7104 0.0991 0.4489
H11_11 H 0.7590 0.1197 0.4369
H12_11 H 0.7207 0.0625 0.4372
C18_11 C 0.7832(13) 0.1996(12) 0.4661(3)
C19_11 C 0.7890(13) 0.2646(7) 0.4474(3)
H13_11 H 0.8082 0.2950 0.4415
C20_11 C 0.7326(13) 0.1799(6) 0.4664(2)
H14_11 H 0.7135 0.1514 0.4735
C21_11 C 0.7081(7) 0.2010(11) 0.4565(4)
H15_11 H 0.6737 0.1865 0.4565
C22_11 C 0.7372(13) 0.2426(11) 0.4473(2)
C23_11 C 0.8122(8) 0.2418(11) 0.4562(4)
H16_11 H 0.8463 0.2549 0.4553
I1_11 I 0.79542(5) 0.00633(5) 0.428147(18)
N1_11 N 0.7628(5) 0.0863(10) 0.4614(2)
N2_11 N 0.7901(8) 0.0497(9) 0.4791(2)
O2_11 O 0.9740(3) 0.0393(3) 0.53925(11)
O3_11 O 0.9381(3) 0.0514(3) 0.56470(15)
H64_11 H 0.727505 0.0303499 0.473759
H8_11 H 0.7688 0.9777 0.4823
I2_11 I 0.64824(6) 0.96349(6) 0.47268(3)
N3_11 N 0.6764(5) 0.9216(7) 0.4337(3)
C24_11 C 0.6608(8) 0.9264(6) 0.4159(3)
H17_11 H 0.6723 0.9577 0.4107
C25_11 C 0.6278(8) 0.8843(10) 0.4058(2)
H18_11 H 0.6173 0.8875 0.3939
C26_11 C 0.6105(7) 0.8374(7) 0.4136(3)
H19_11 H 0.5885 0.8092 0.4068
C27_11 C 0.6262(9) 0.8326(6) 0.4314(3)
H20_11 H 0.6146 0.8012 0.4366
C28_11 C 0.6591(8) 0.8747(10) 0.44144(19)
H21_11 H 0.6696 0.8714 0.4534
Pd1_11 Pd 0.71937(5) 0.98241(5) 0.44917(2)
C29_11 C 0.9486(5) 0.8954(7) 0.5483(3)
C31_11 C 0.9276(5) 0.8555(7) 0.5165(4)
H22_11 H 0.9380 0.8870 0.5117
C33_11 C 0.9127(6) 0.8165(10) 0.5042(3)
H24_11 H 0.9141 0.8214 0.4912
C35_11 C 0.8955(5) 0.7693(9) 0.5119(3)
C37_11 C 0.8932(5) 0.7610(8) 0.5306(3)
H26_11 H 0.8810 0.7293 0.5356
C39_11 C 0.9102(5) 0.8032(8) 0.5422(2)
H28_11 H 0.9094 0.7985 0.5551
C41_11 C 0.9277(5) 0.8500(8) 0.5358(3)
C43_11 C 0.8760(9) 0.7243(11) 0.4994(3)
C45_11 C 0.8024(7) 0.6443(11) 0.4911(3)
H30_11 H 0.7685 0.6232 0.4928
C47_11 C 0.8277(11) 0.6876(13) 0.5021(2)
H32_11 H 0.8103 0.6915 0.5119
C49_11 C 0.8763(12) 0.6701(15) 0.4734(3)
C51_11 C 0.7230(9) 0.4431(13) 0.4367(3)
C53_11 C 0.8272(9) 0.6328(12) 0.4777(3)
C55_11 C 0.9591(8) 0.7177(11) 0.4642(4)
C57_11 C 0.9013(11) 0.7138(14) 0.4856(4)
C59_11 C 0.9912(6) 0.7865(8) 0.4869(2)
H34_11 H 0.9908 0.7843 0.5004
H38_11 H 0.9874 0.8141 0.4832
C61_11 C 0.9075(6) 0.6433(8) 0.4445(2)
H40_11 H 0.9009 0.6114 0.4489
H42_11 H 0.8803 0.6394 0.4369
H44_11 H 0.9375 0.6583 0.4372
C63_11 C 0.8004(12) 0.5837(18) 0.4661(3)
C65_11 C 0.7354(7) 0.5245(15) 0.4474(3)
H46_11 H 0.7050 0.5133 0.4415
C67_11 C 0.8201(6) 0.5528(14) 0.4664(2)
H48_11 H 0.8486 0.5622 0.4735
C69_11 C 0.7990(11) 0.5072(13) 0.4565(4)
H50_11 H 0.8135 0.4873 0.4565
C71_11 C 0.7574(11) 0.4947(17) 0.4473(2)
C73_11 C 0.7582(11) 0.5705(14) 0.4562(4)
H52_11 H 0.7451 0.5915 0.4553
I3_11 I 0.99367(5) 0.78910(7) 0.428147(18)
N4_11 N 0.9137(10) 0.6766(11) 0.4614(2)
N6_11 N 0.9503(9) 0.7405(12) 0.4791(2)
O6_11 O 0.9607(3) 0.9348(4) 0.53925(11)
O8_11 O 0.9486(3) 0.8868(4) 0.56470(15)
H66_11 H 0.96965 0.697155 0.473759
O1_18 O 0.0000 0.0001 0.57756(12)
Zn1_18 Zn 0.0000 0.0001 0.55042(3)
O1_19 O 0.9999 1.0000 0.57756(12)
Zn1_19 Zn 0.9999 1.0000 0.55042(3)
I6_12 I 0.64858(8) 0.01842(6) 0.13934(3)
C76_12 C 0.5989(10) 0.0058(8) 0.0825(3)
C78_12 C 0.5898(13) 0.0388(8) 0.0724(2)
H57_12 H 0.6035 0.0493 0.0605
C80_12 C 0.5602(10) 0.0561(7) 0.0802(3)
H59_12 H 0.5540 0.0781 0.0734
C82_12 C 0.5397(11) 0.0404(9) 0.0980(3)
H61_12 H 0.5199 0.0520 0.1032
C84_12 C 0.5489(13) 0.0075(8) 0.10810(19)
C1_12 C 0.2801(5) 0.7180(5) 0.2149(3)
C2_12 C 0.2612(5) 0.7390(5) 0.1831(4)
H1_12 H 0.2823 0.7286 0.1783
C3_12 C 0.2371(8) 0.7539(6) 0.1708(3)
H2_12 H 0.2406 0.7525 0.1578
C4_12 C 0.2071(8) 0.7711(5) 0.1785(3)
C5_12 C 0.2011(6) 0.7734(5) 0.1972(3)
H3_12 H 0.1816 0.7856 0.2022
C6_12 C 0.2263(6) 0.7564(5) 0.2088(2)
H4_12 H 0.2224 0.7572 0.2217
C7_12 C 0.2556(6) 0.7389(5) 0.2024(3)
C8_12 C 0.1816(7) 0.7906(9) 0.1660(3)
C9_12 C 0.1752(9) 0.8642(7) 0.1577(3)
H5_12 H 0.1880 0.8981 0.1594
C10_12 C 0.1932(6) 0.8389(11) 0.1687(2)
H6_12 H 0.2145 0.8563 0.1785
C11_12 C 0.1271(9) 0.7903(12) 0.1400(3)
C12_12 C 0.0534(9) 0.9436(9) 0.1033(3)
C13_12 C 0.1389(8) 0.8394(9) 0.1443(3)
C14_12 C 0.0919(8) 0.7075(8) 0.1308(4)
C15_12 C 0.1458(9) 0.7653(11) 0.1522(4)
C16_12 C 0.1286(5) 0.6754(6) 0.1535(2)
H7_12 H 0.1268 0.6758 0.1670
H8_12 H 0.1022 0.6443 0.1489
H9_12 H 0.1600 0.6792 0.1498
C17_12 C 0.0691(6) 0.7591(6) 0.1111(2)
H10_12 H 0.0438 0.7657 0.1155
H11_12 H 0.0924 0.7863 0.1035
H12_12 H 0.0541 0.7291 0.1038
C18_12 C 0.1166(13) 0.8662(12) 0.1327(3)
C19_12 C 0.1224(13) 0.9312(7) 0.1140(3)
H13_12 H 0.1416 0.9616 0.1081
C20_12 C 0.0660(13) 0.8465(6) 0.1330(2)
H14_12 H 0.0469 0.8180 0.1401
C21_12 C 0.0415(7) 0.8676(11) 0.1231(4)
H15_12 H 0.0071 0.8531 0.1231
C22_12 C 0.0706(13) 0.9092(11) 0.1139(2)
C23_12 C 0.1456(8) 0.9084(11) 0.1228(4)
H16_12 H 0.1797 0.9215 0.1219
I1_12 I 0.12876(5) 0.67299(5) 0.094813(18)
N1_12 N 0.0962(5) 0.7529(10) 0.1280(2)
N2_12 N 0.1235(8) 0.7163(9) 0.1457(2)
N3_12 N 0.0098(5) 0.5882(7) 0.1003(3)
H17_12 H 0.0057 0.6243 0.0773
H21_12 H 0.0030 0.5380 0.1200
O1_20 O 0.3334 0.6666 0.24422(12)
O2_12 O 0.3074(3) 0.7059(3) 0.20591(11)
O3_12 O 0.2715(3) 0.7180(3) 0.23136(15)
Pd1_12 Pd 0.05271(5) 0.64907(5) 0.11583(2)
Zn1_20 Zn 0.3334 0.6666 0.21708(3)
C29_12 C 0.2820(5) 0.5620(7) 0.2149(3)
C30_12 C 0.4380(7) 0.7199(5) 0.2149(3)
C31_12 C 0.2610(5) 0.5221(7) 0.1831(4)
C32_12 C 0.4779(7) 0.7388(5) 0.1831(4)
H22_12 H 0.2714 0.5536 0.1783
H23_12 H 0.4464 0.7177 0.1783
C33_12 C 0.2461(6) 0.4831(10) 0.1708(3)
C34_12 C 0.5169(10) 0.7629(8) 0.1708(3)
H24_12 H 0.2475 0.4880 0.1578
H25_12 H 0.5120 0.7594 0.1578
C35_12 C 0.2289(5) 0.4359(9) 0.1785(3)
C36_12 C 0.5641(9) 0.7929(8) 0.1785(3)
C37_12 C 0.2266(5) 0.4276(8) 0.1972(3)
C38_12 C 0.5724(8) 0.7989(6) 0.1972(3)
H26_12 H 0.2144 0.3959 0.2022
H27_12 H 0.6041 0.8184 0.2022
C39_12 C 0.2436(5) 0.4698(8) 0.2088(2)
C40_12 C 0.5302(8) 0.7737(6) 0.2088(2)
H28_12 H 0.2428 0.4651 0.2217
H29_12 H 0.5349 0.7776 0.2217
C41_12 C 0.2611(5) 0.5166(8) 0.2024(3)
C42_12 C 0.4834(8) 0.7444(6) 0.2024(3)
C43_12 C 0.2094(9) 0.3909(11) 0.1660(3)
C44_12 C 0.6091(11) 0.8184(7) 0.1660(3)
C45_12 C 0.1358(7) 0.3109(11) 0.1577(3)
C46_12 C 0.6891(11) 0.8248(9) 0.1577(3)
H30_12 H 0.1019 0.2898 0.1594
H31_12 H 0.7102 0.8120 0.1594
C47_12 C 0.1611(11) 0.3542(13) 0.1687(2)
C48_12 C 0.6458(13) 0.8068(6) 0.1687(2)
H32_12 H 0.1437 0.3581 0.1785
H33_12 H 0.6419 0.7855 0.1785
C49_12 C 0.2097(12) 0.3367(15) 0.1400(3)
C50_12 C 0.6633(15) 0.8729(9) 0.1400(3)
C51_12 C 0.0564(9) 0.1097(13) 0.1033(3)
C52_12 C 0.8903(13) 0.9466(9) 0.1033(3)
C53_12 C 0.1606(9) 0.2994(12) 0.1443(3)
C54_12 C 0.7006(12) 0.8611(8) 0.1443(3)
C55_12 C 0.2925(8) 0.3843(11) 0.1308(4)
C56_12 C 0.6157(11) 0.9081(8) 0.1308(4)
C57_12 C 0.2347(11) 0.3804(14) 0.1522(4)
C58_12 C 0.6196(14) 0.8542(9) 0.1522(4)
C59_12 C 0.3246(6) 0.4531(8) 0.1535(2)
C60_12 C 0.5469(8) 0.8714(5) 0.1535(2)
H34_12 H 0.3242 0.4509 0.1670
H35_12 H 0.5491 0.8732 0.1670
H36_10 H 0.3557 0.4578 0.1489
H37_12 H 0.5422 0.8978 0.1489
H38_12 H 0.3208 0.4807 0.1498
H39_12 H 0.5193 0.8400 0.1498
C61_12 C 0.2409(6) 0.3099(8) 0.1111(2)
C62_12 C 0.6901(8) 0.9309(6) 0.1111(2)
H40_12 H 0.2343 0.2780 0.1155
H41_12 H 0.7220 0.9562 0.1155
H42_12 H 0.2137 0.3060 0.1035
H43_12 H 0.6940 0.9076 0.1035
H44_12 H 0.2709 0.3249 0.1038
H45_12 H 0.6751 0.9459 0.1038
C63_12 C 0.1338(12) 0.2503(18) 0.1327(3)
C64_12 C 0.7497(18) 0.8834(13) 0.1327(3)
C65_12 C 0.0688(7) 0.1911(15) 0.1140(3)
C66_12 C 0.8089(15) 0.8776(13) 0.1140(3)
H46_12 H 0.0384 0.1799 0.1081
H47_12 H 0.8201 0.8584 0.1081
C67_12 C 0.1535(6) 0.2194(14) 0.1330(2)
C68_12 C 0.7806(14) 0.9340(13) 0.1330(2)
H48_12 H 0.1820 0.2288 0.1401
H49_12 H 0.7712 0.9531 0.1401
C69_12 C 0.1324(11) 0.1738(13) 0.1231(4)
C70_12 C 0.8262(13) 0.9585(7) 0.1231(4)
H50_12 H 0.1469 0.1539 0.1231
H51_12 H 0.8461 0.9929 0.1231
C71_12 C 0.0908(11) 0.1613(17) 0.1139(2)
C72_12 C 0.8387(17) 0.9294(13) 0.1139(2)
C73_12 C 0.0916(11) 0.2371(14) 0.1228(4)
C74_12 C 0.7629(14) 0.8544(8) 0.1228(4)
H52_12 H 0.0785 0.2581 0.1219
H53_12 H 0.7419 0.8203 0.1219
I3_12 I 0.32701(5) 0.45576(7) 0.094813(18)
I4_12 I 0.54424(7) 0.87124(5) 0.094813(18)
I5_10 I 0.36985(6) 0.35142(8) 0.13934(3)
N4_12 N 0.2471(10) 0.3432(11) 0.1280(2)
N5_12 N 0.6568(11) 0.9038(5) 0.1280(2)
N6_12 N 0.2837(9) 0.4071(12) 0.1457(2)
N7_12 N 0.5929(12) 0.8765(8) 0.1457(2)
N8_10 N 0.4118(7) 0.4215(9) 0.1003(3)
N9_12 N 0.5785(9) 0.9902(5) 0.1003(3)
C75_10 C 0.4070(6) 0.4011(10) 0.0825(3)
H54_10 H 0.3757 0.3813 0.0773
H55_12 H 0.6187 0.9943 0.0773
C77_10 C 0.4491(10) 0.4102(13) 0.0724(2)
H56_10 H 0.4459 0.3965 0.0605
C79_10 C 0.4960(7) 0.4398(10) 0.0802(3)
H58_10 H 0.5242 0.4460 0.0734
C81_10 C 0.5008(6) 0.4603(11) 0.0980(3)
H60_10 H 0.5322 0.4801 0.1032
C83_10 C 0.4587(10) 0.4511(13) 0.10810(19)
H62_10 H 0.4620 0.4649 0.1200
H63_12 H 0.5351 0.9970 0.1200
O6_12 O 0.2941(3) 0.6014(4) 0.20591(11)
O7_12 O 0.3986(4) 0.6926(3) 0.20591(11)
O8_12 O 0.2820(3) 0.5534(4) 0.23136(15)
O9_12 O 0.4466(4) 0.7285(3) 0.23136(15)
Pd2_10 Pd 0.35093(5) 0.40363(7) 0.11583(2)
Pd3_12 Pd 0.59637(7) 0.94729(5) 0.11583(2)
H64_12 H 0.0608381 0.697017 0.140426
H65_12 H 0.636178 0.939162 0.140426
H66_12 H 0.302983 0.363822 0.140426
I2_12 I 0.98158(6) 0.63015(6) 0.13934(3)
C24_12 C 0.9942(8) 0.5930(6) 0.0825(3)
C25_12 C 0.9612(8) 0.5509(10) 0.0724(2)
H18_12 H 0.9507 0.5541 0.0605
C26_12 C 0.9439(7) 0.5040(7) 0.0802(3)
H19_12 H 0.9219 0.4758 0.0734
C27_12 C 0.9596(9) 0.4992(6) 0.0980(3)
H20_12 H 0.9480 0.4678 0.1032
C28_12 C 0.9925(8) 0.5413(10) 0.10810(19)
H36_11 H 0.2088 0.9777 0.9823
I5_11 I 0.31524(8) 0.96349(6) 0.97268(3)
N8_11 N 0.2451(9) 0.9216(7) 0.9337(3)
C75_11 C 0.2655(10) 0.9264(6) 0.9159(3)
H54_11 H 0.2853 0.9577 0.9107
C77_11 C 0.2564(13) 0.8843(10) 0.9058(2)
H56_11 H 0.2701 0.8875 0.8939
C79_11 C 0.2268(10) 0.8374(7) 0.9136(3)
H58_11 H 0.2206 0.8092 0.9068
C81_11 C 0.2063(11) 0.8326(6) 0.9314(3)
H60_11 H 0.1865 0.8012 0.9366
C83_11 C 0.2155(13) 0.8747(10) 0.94144(19)
H62_11 H 0.2017 0.8714 0.9534
Pd2_11 Pd 0.26303(7) 0.98241(5) 0.94917(2)
H36_12 H 0.7912 0.0223 0.0177
I5_12 I 0.68476(8) 0.03651(6) 0.02732(3)
N8_12 N 0.7549(9) 0.0784(7) 0.0663(3)
C75_12 C 0.7345(10) 0.0736(6) 0.0841(3)
H54_12 H 0.7147 0.0423 0.0893
C77_12 C 0.7436(13) 0.1157(10) 0.0942(2)
H56_12 H 0.7299 0.1125 0.1061
C79_12 C 0.7732(10) 0.1626(7) 0.0864(3)
H58_12 H 0.7794 0.1908 0.0932
C81_12 C 0.7937(11) 0.1674(6) 0.0686(3)
H60_12 H 0.8135 0.1988 0.0634
C83_12 C 0.7845(13) 0.1253(10) 0.05856(19)
H62_12 H 0.7983 0.1286 0.0466
Pd2_12 Pd 0.73697(7) 0.01759(5) 0.05083(2)
loop_
_geom_bond_atom_site_label_1
_geom_bond_atom_site_label_2
_geom_bond_site_symmetry_1
_geom_bond_site_symmetry_2
C45 H30 1_555 1_555
C51 C71 1_555 1_555
C53 C45 1_555 1_555
C61 H40 1_555 1_555
H42 C61 1_555 1_555
H44 C61 1_555 1_555
C63 C53 1_555 1_555
C65 H46 1_555 1_555
C67 C63 1_555 1_555
H48 C67 1_555 1_555
C69 C67 1_555 1_555
H50 C69 1_555 1_555
C71 C65 1_555 1_555
C73 C63 1_555 1_555
H52 C73 1_555 1_555
O13 C51 1_555 1_555
O18 C51 1_555 1_555
Zn7 O13 1_555 1_555
Zn8 O18 1_555 1_555
C65 C73 1_555 1_555
C69 C71 1_555 1_555
C1 C7 1_555 1_555
C2 H1 1_555 1_555
C3 C2 1_555 1_555
H2 C3 1_555 1_555
C4 C3 1_555 1_555
C5 C4 1_555 1_555
H3 C5 1_555 1_555
C6 C5 1_555 1_555
H4 C6 1_555 1_555
C7 C2 1_555 1_555
C8 C4 1_555 1_555
C9 H5 1_555 1_555
C10 C8 1_555 1_555
H6 C10 1_555 1_555
C11 C13 1_555 1_555
C12 C22 1_555 1_555
C13 C9 1_555 1_555
C14 N1 1_555 1_555
C15 C8 1_555 1_555
C16 H7 1_555 1_555
H8 C16 1_555 1_555
H9 C16 1_555 1_555
C17 H10 1_555 1_555
H11 C17 1_555 1_555
H12 C17 1_555 1_555
C18 C13 1_555 1_555
C19 H13 1_555 1_555
C20 C18 1_555 1_555
H14 C20 1_555 1_555
C21 C20 1_555 1_555
H15 C21 1_555 1_555
C22 C19 1_555 1_555
C23 C18 1_555 1_555
H16 C23 1_555 1_555
I1 Pd1 1_555 1_555
I2 Pd1 1_555 1_555
N1 C11 1_555 1_555
N2 C14 1_555 1_555
N3 C24 1_555 1_555
C24 H17 1_555 1_555
C25 C24 1_555 1_555
H18 C25 1_555 1_555
C26 C25 1_555 1_555
H19 C26 1_555 1_555
C27 C26 1_555 1_555
H20 C27 1_555 1_555
C28 N3 1_555 1_555
H21 C28 1_555 1_555
O1 Zn1 1_555 1_555
O2 C1 1_555 1_555
O3 C1 1_555 1_555
O4 C12 1_555 1_555
O5 C12 1_555 1_555
Pd1 C14 1_555 1_555
Zn1 O2 1_555 1_555
Zn2 O1 1_555 1_555
C29 C41 1_555 1_555
C30 C42 1_555 1_555
C31 H22 1_555 1_555
C32 H23 1_555 1_555
C33 C31 1_555 1_555
C34 C32 1_555 1_555
H24 C33 1_555 1_555
H25 C34 1_555 1_555
C35 C33 1_555 1_555
C36 C34 1_555 1_555
C37 C35 1_555 1_555
C38 C36 1_555 1_555
H26 C37 1_555 1_555
H27 C38 1_555 1_555
C39 C37 1_555 1_555
C40 C38 1_555 1_555
H28 C39 1_555 1_555
H29 C40 1_555 1_555
C41 C31 1_555 1_555
C42 C32 1_555 1_555
C43 C35 1_555 1_555
C44 C36 1_555 1_555
C47 C43 1_555 1_555
C48 C44 1_555 1_555
H32 C47 1_555 1_555
H33 C48 1_555 1_555
C55 N4 1_555 1_555
C56 N5 1_555 1_555
C57 C43 1_555 1_555
C58 C44 1_555 1_555
C59 H34 1_555 1_555
C60 H35 1_555 1_555
H36 C59 1_555 1_555
H37 C60 1_555 1_555
H38 C59 1_555 1_555
H39 C60 1_555 1_555
I3 Pd2 1_555 1_555
I4 Pd3 1_555 1_555
I5 Pd2 1_555 1_555
I6 Pd3 1_555 1_555
N4 C49 1_555 1_555
N5 C50 1_555 1_555
N6 C55 1_555 1_555
N7 C56 1_555 1_555
N8 C75 1_555 1_555
N9 C76 1_555 1_555
C75 H54 1_555 1_555
C76 H55 1_555 1_555
C77 C75 1_555 1_555
C78 C76 1_555 1_555
H56 C77 1_555 1_555
H57 C78 1_555 1_555
C79 C77 1_555 1_555
C80 C78 1_555 1_555
H58 C79 1_555 1_555
H59 C80 1_555 1_555
C81 C79 1_555 1_555
C82 C80 1_555 1_555
H60 C81 1_555 1_555
H61 C82 1_555 1_555
C83 N8 1_555 1_555
C84 N9 1_555 1_555
H62 C83 1_555 1_555
H63 C84 1_555 1_555
O6 Zn1 1_555 1_555
O7 Zn1 1_555 1_555
O8 C29 1_555 1_555
O9 C30 1_555 1_555
O10 Zn2 1_555 1_555
O11 Zn4 1_555 1_555
O12 Zn5 1_555 1_555
O15 Zn2 1_555 1_555
O16 Zn4 1_555 1_555
O17 Zn5 1_555 1_555
Pd2 C55 1_555 1_555
Pd3 C56 1_555 1_555
Zn8 O4 1_555 1_555
Zn4 O1 1_555 1_555
Zn5 O1 1_555 1_555
Zn6 O5 1_555 1_555
C6 C7 1_555 1_555
C9 C10 1_555 1_555
C11 C15 1_555 1_555
C15 N2 1_555 1_555
C16 N2 1_555 1_555
C17 N1 1_555 1_555
C19 C23 1_555 1_555
C21 C22 1_555 1_555
N3 Pd1 1_555 1_555
C27 C28 1_555 1_555
O3 Zn2 1_555 1_555
C29 O6 1_555 1_555
C30 O7 1_555 1_555
C39 C41 1_555 1_555
C40 C42 1_555 1_555
C49 C57 1_555 1_555
C50 C58 1_555 1_555
C57 N6 1_555 1_555
C58 N7 1_555 1_555
C59 N6 1_555 1_555
C60 N7 1_555 1_555
N8 Pd2 1_555 1_555
N9 Pd3 1_555 1_555
C81 C83 1_555 1_555
C82 C84 1_555 1_555
O8 Zn4 1_555 1_555
O9 Zn5 1_555 1_555
C14 H64 1_555 1_555
C56 H65 1_555 1_555
C55 H66 1_555 1_555
C46 H31 1_555 1_555
C52 C72 1_555 1_555
C54 C46 1_555 1_555
C62 H41 1_555 1_555
H43 C62 1_555 1_555
H45 C62 1_555 1_555
C64 C54 1_555 1_555
C66 H47 1_555 1_555
C68 C64 1_555 1_555
H49 C68 1_555 1_555
C70 C68 1_555 1_555
H51 C70 1_555 1_555
C72 C66 1_555 1_555
C74 C64 1_555 1_555
H53 C74 1_555 1_555
O14 C52 1_555 1_555
O19 C52 1_555 1_555
Zn6 O14 1_555 1_555
Zn7 O19 1_555 1_555
C66 C74 1_555 1_555
C70 C72 1_555 1_555
I2_2 Pd1_2 1_555 1_555
N3_2 C24_2 1_555 1_555
C24_2 H17_2 1_555 1_555
C25_2 C24_2 1_555 1_555
H18_2 C25_2 1_555 1_555
C26_2 C25_2 1_555 1_555
H19_2 C26_2 1_555 1_555
C27_2 C26_2 1_555 1_555
H20_2 C27_2 1_555 1_555
C28_2 N3_2 1_555 1_555
H21_2 C28_2 1_555 1_555
C29_2 C41_2 1_555 1_555
C31_2 H22_2 1_555 1_555
C33_2 C31_2 1_555 1_555
H24_2 C33_2 1_555 1_555
C35_2 C33_2 1_555 1_555
C37_2 C35_2 1_555 1_555
H26_2 C37_2 1_555 1_555
C39_2 C37_2 1_555 1_555
H28_2 C39_2 1_555 1_555
C41_2 C31_2 1_555 1_555
C43_2 C35_2 1_555 1_555
C45_2 H30_2 1_555 1_555
C47_2 C43_2 1_555 1_555
H32_2 C47_2 1_555 1_555
C49_2 C53_2 1_555 1_555
C51_2 C71_2 1_555 1_555
C53_2 C45_2 1_555 1_555
C55_2 N4_2 1_555 1_555
C57_2 C43_2 1_555 1_555
C59_2 H34_2 1_555 1_555
H38_2 C59_2 1_555 1_555
C61_2 H40_2 1_555 1_555
H42_2 C61_2 1_555 1_555
H44_2 C61_2 1_555 1_555
C63_2 C53_2 1_555 1_555
C65_2 H46_2 1_555 1_555
C67_2 C63_2 1_555 1_555
H48_2 C67_2 1_555 1_555
C69_2 C67_2 1_555 1_555
H50_2 C69_2 1_555 1_555
C71_2 C65_2 1_555 1_555
C73_2 C63_2 1_555 1_555
H52_2 C73_2 1_555 1_555
N4_2 C49_2 1_555 1_555
N6_2 C55_2 1_555 1_555
O8_2 C29_2 1_555 1_555
O13_2 C51_2 1_555 1_555
O16_2 Zn4_2 1_555 1_555
O18_2 C51_2 1_555 1_555
Zn7_2 O13_2 1_555 1_555
Zn8_2 O18_2 1_555 1_555
N3_2 Pd1_2 1_555 1_555
C27_2 C28_2 1_555 1_555
C29_2 O6_2 1_555 1_555
C39_2 C41_2 1_555 1_555
C45_2 C47_2 1_555 1_555
C49_2 C57_2 1_555 1_555
C57_2 N6_2 1_555 1_555
C59_2 N6_2 1_555 1_555
C61_2 N4_2 1_555 1_555
C65_2 C73_2 1_555 1_555
C69_2 C71_2 1_555 1_555
O8_2 Zn4_2 1_555 1_555
C55_2 H66_2 1_555 1_555
C1_2 C7_2 1_555 1_555
C2_2 H1_2 1_555 1_555
C3_2 C2_2 1_555 1_555
H2_2 C3_2 1_555 1_555
C4_2 C3_2 1_555 1_555
C5_2 C4_2 1_555 1_555
H3_2 C5_2 1_555 1_555
C6_2 C5_2 1_555 1_555
H4_2 C6_2 1_555 1_555
C7_2 C2_2 1_555 1_555
C8_2 C4_2 1_555 1_555
C9_2 H5_2 1_555 1_555
C10_2 C8_2 1_555 1_555
H6_2 C10_2 1_555 1_555
C11_2 C13_2 1_555 1_555
C12_2 C22_2 1_555 1_555
C13_2 C9_2 1_555 1_555
C14_2 N1_2 1_555 1_555
C15_2 C8_2 1_555 1_555
C16_2 H7_2 1_555 1_555
H9_2 C16_2 1_555 1_555
C17_2 H10_2 1_555 1_555
H11_2 C17_2 1_555 1_555
H12_2 C17_2 1_555 1_555
C18_2 C13_2 1_555 1_555
C19_2 H13_2 1_555 1_555
C20_2 C18_2 1_555 1_555
H14_2 C20_2 1_555 1_555
C21_2 C20_2 1_555 1_555
H15_2 C21_2 1_555 1_555
C22_2 C19_2 1_555 1_555
C23_2 C18_2 1_555 1_555
H16_2 C23_2 1_555 1_555
N1_2 C11_2 1_555 1_555
N2_2 C14_2 1_555 1_555
O2_2 C1_2 1_555 1_555
O3_2 C1_2 1_555 1_555
O4_2 C12_2 1_555 1_555
O5_2 C12_2 1_555 1_555
Zn8_2 O4_2 1_555 1_555
Zn6_2 O5_2 1_555 1_555
C6_2 C7_2 1_555 1_555
C9_2 C10_2 1_555 1_555
C11_2 C15_2 1_555 1_555
C15_2 N2_2 1_555 1_555
C16_2 N2_2 1_555 1_555
C17_2 N1_2 1_555 1_555
C19_2 C23_2 1_555 1_555
C21_2 C22_2 1_555 1_555
O3_2 Zn2_2 1_555 1_555
C14_2 H64_2 1_555 1_555
O1_2 Zn1_2 1_555 1_555
I5_2 Pd2_2 1_555 1_555
N8_2 C75_2 1_555 1_555
C75_2 H54_2 1_555 1_555
C77_2 C75_2 1_555 1_555
H56_2 C77_2 1_555 1_555
C79_2 C77_2 1_555 1_555
H58_2 C79_2 1_555 1_555
C81_2 C79_2 1_555 1_555
H60_2 C81_2 1_555 1_555
C83_2 N8_2 1_555 1_555
H62_2 C83_2 1_555 1_555
N8_2 Pd2_2 1_555 1_555
C81_2 C83_2 1_555 1_555
C30_2 C42_2 1_555 1_555
C32_2 H23_2 1_555 1_555
C34_2 C32_2 1_555 1_555
H25_2 C34_2 1_555 1_555
C36_2 C34_2 1_555 1_555
C38_2 C36_2 1_555 1_555
H27_2 C38_2 1_555 1_555
C40_2 C38_2 1_555 1_555
H29_2 C40_2 1_555 1_555
C42_2 C32_2 1_555 1_555
C44_2 C36_2 1_555 1_555
C46_2 H31_2 1_555 1_555
C48_2 C44_2 1_555 1_555
H33_2 C48_2 1_555 1_555
C50_2 C54_2 1_555 1_555
C52_2 C72_2 1_555 1_555
C54_2 C46_2 1_555 1_555
C56_2 N5_2 1_555 1_555
C58_2 C44_2 1_555 1_555
C60_2 H35_2 1_555 1_555
H37_2 C60_2 1_555 1_555
H39_2 C60_2 1_555 1_555
C62_2 H41_2 1_555 1_555
H43_2 C62_2 1_555 1_555
H45_2 C62_2 1_555 1_555
C64_2 C54_2 1_555 1_555
C66_2 H47_2 1_555 1_555
C68_2 C64_2 1_555 1_555
H49_2 C68_2 1_555 1_555
C70_2 C68_2 1_555 1_555
H51_2 C70_2 1_555 1_555
C72_2 C66_2 1_555 1_555
C74_2 C64_2 1_555 1_555
H53_2 C74_2 1_555 1_555
I4_2 Pd3_2 1_555 1_555
I6_2 Pd3_2 1_555 1_555
N5_2 C50_2 1_555 1_555
N7_2 C56_2 1_555 1_555
N9_2 C76_2 1_555 1_555
C76_2 H55_2 1_555 1_555
C78_2 C76_2 1_555 1_555
H57_2 C78_2 1_555 1_555
C80_2 C78_2 1_555 1_555
H59_2 C80_2 1_555 1_555
C82_2 C80_2 1_555 1_555
H61_2 C82_2 1_555 1_555
C84_2 N9_2 1_555 1_555
H63_2 C84_2 1_555 1_555
O9_2 C30_2 1_555 1_555
O12_2 Zn5_2 1_555 1_555
O14_2 C52_2 1_555 1_555
O19_2 C52_2 1_555 1_555
Pd3_2 C56_2 1_555 1_555
Zn6_2 O14_2 1_555 1_555
Zn7_2 O19_2 1_555 1_555
C30_2 O7_2 1_555 1_555
C40_2 C42_2 1_555 1_555
C46_2 C48_2 1_555 1_555
C50_2 C58_2 1_555 1_555
C58_2 N7_2 1_555 1_555
C60_2 N7_2 1_555 1_555
C62_2 N5_2 1_555 1_555
C66_2 C74_2 1_555 1_555
C70_2 C72_2 1_555 1_555
N9_2 Pd3_2 1_555 1_555
C82_2 C84_2 1_555 1_555
O9_2 Zn5_2 1_555 1_555
C56_2 H65_2 1_555 1_555
O1_3 Zn1_3 1_555 1_555
O7_2 Zn1_3 1_555 1_555
Zn5_2 O1_3 1_555 1_555
O1_4 Zn1_4 1_555 1_555
O6_2 Zn1_4 1_555 1_555
Zn4_2 O1_4 1_555 1_555
C25_3 C24_3 1_555 1_555
H18_3 C25_3 1_555 1_555
C26_3 C25_3 1_555 1_555
H19_3 C26_3 1_555 1_555
C27_3 C26_3 1_555 1_555
H20_3 C27_3 1_555 1_555
C27_3 C28_3 1_555 1_555
C1_3 C7_3 1_555 1_555
C2_3 H1_3 1_555 1_555
C3_3 C2_3 1_555 1_555
H2_3 C3_3 1_555 1_555
C4_3 C3_3 1_555 1_555
C5_3 C4_3 1_555 1_555
H3_3 C5_3 1_555 1_555
C6_3 C5_3 1_555 1_555
H4_3 C6_3 1_555 1_555
C7_3 C2_3 1_555 1_555
C8_3 C4_3 1_555 1_555
C9_3 H5_3 1_555 1_555
C10_3 C8_3 1_555 1_555
H6_3 C10_3 1_555 1_555
C11_3 C13_3 1_555 1_555
C12_3 C22_3 1_555 1_555
C13_3 C9_3 1_555 1_555
C14_3 N1_3 1_555 1_555
C15_3 C8_3 1_555 1_555
C16_3 H7_3 1_555 1_555
H8_3 C16_3 1_555 1_555
H9_3 C16_3 1_555 1_555
C17_3 H10_3 1_555 1_555
H11_3 C17_3 1_555 1_555
H12_3 C17_3 1_555 1_555
C18_3 C13_3 1_555 1_555
C19_3 H13_3 1_555 1_555
C20_3 C18_3 1_555 1_555
H14_3 C20_3 1_555 1_555
C21_3 C20_3 1_555 1_555
H15_3 C21_3 1_555 1_555
C22_3 C19_3 1_555 1_555
C23_3 C18_3 1_555 1_555
H16_3 C23_3 1_555 1_555
I1_3 Pd1_3 1_555 1_555
N1_3 C11_3 1_555 1_555
N2_3 C14_3 1_555 1_555
O1_5 Zn1_5 1_555 1_555
O2_3 C1_3 1_555 1_555
O3_3 C1_3 1_555 1_555
O4_3 C12_3 1_555 1_555
O5_3 C12_3 1_555 1_555
Pd1_3 C14_3 1_555 1_555
Zn1_5 O2_3 1_555 1_555
Zn2_3 O1_5 1_555 1_555
C29_3 C41_3 1_555 1_555
C30_3 C42_3 1_555 1_555
C31_3 H22_3 1_555 1_555
C32_3 H23_3 1_555 1_555
C33_3 C31_3 1_555 1_555
C34_3 C32_3 1_555 1_555
H24_3 C33_3 1_555 1_555
H25_3 C34_3 1_555 1_555
C35_3 C33_3 1_555 1_555
C36_3 C34_3 1_555 1_555
C37_3 C35_3 1_555 1_555
C38_3 C36_3 1_555 1_555
H26_3 C37_3 1_555 1_555
H27_3 C38_3 1_555 1_555
C39_3 C37_3 1_555 1_555
C40_3 C38_3 1_555 1_555
H28_3 C39_3 1_555 1_555
H29_3 C40_3 1_555 1_555
C41_3 C31_3 1_555 1_555
C42_3 C32_3 1_555 1_555
C43_3 C35_3 1_555 1_555
C44_3 C36_3 1_555 1_555
C45_3 H30_3 1_555 1_555
C46_3 H31_3 1_555 1_555
C47_3 C43_3 1_555 1_555
C48_3 C44_3 1_555 1_555
H32_3 C47_3 1_555 1_555
H33_3 C48_3 1_555 1_555
C49_3 C53_3 1_555 1_555
C50_3 C54_3 1_555 1_555
C51_3 C71_3 1_555 1_555
C52_3 C72_3 1_555 1_555
C53_3 C45_3 1_555 1_555
C54_3 C46_3 1_555 1_555
C55_3 N4_3 1_555 1_555
C56_3 N5_3 1_555 1_555
C57_3 C43_3 1_555 1_555
C58_3 C44_3 1_555 1_555
C59_3 H34_3 1_555 1_555
C60_3 H35_3 1_555 1_555
H36_3 C59_3 1_555 1_555
H37_3 C60_3 1_555 1_555
H38_3 C59_3 1_555 1_555
H39_3 C60_3 1_555 1_555
C61_3 H40_3 1_555 1_555
C62_3 H41_3 1_555 1_555
H42_3 C61_3 1_555 1_555
H43_3 C62_3 1_555 1_555
H44_3 C61_3 1_555 1_555
H45_3 C62_3 1_555 1_555
C63_3 C53_3 1_555 1_555
C64_3 C54_3 1_555 1_555
C65_3 H46_3 1_555 1_555
C66_3 H47_3 1_555 1_555
C67_3 C63_3 1_555 1_555
C68_3 C64_3 1_555 1_555
H48_3 C67_3 1_555 1_555
H49_3 C68_3 1_555 1_555
C69_3 C67_3 1_555 1_555
C70_3 C68_3 1_555 1_555
H50_3 C69_3 1_555 1_555
H51_3 C70_3 1_555 1_555
C71_3 C65_3 1_555 1_555
C72_3 C66_3 1_555 1_555
C73_3 C63_3 1_555 1_555
C74_3 C64_3 1_555 1_555
H52_3 C73_3 1_555 1_555
H53_3 C74_3 1_555 1_555
I3_3 Pd2_3 1_555 1_555
I4_3 Pd3_3 1_555 1_555
I5_3 Pd2_3 1_555 1_555
N4_3 C49_3 1_555 1_555
N5_3 C50_3 1_555 1_555
N6_3 C55_3 1_555 1_555
N7_3 C56_3 1_555 1_555
N8_3 C75_3 1_555 1_555
C75_3 H54_3 1_555 1_555
C77_3 C75_3 1_555 1_555
H56_3 C77_3 1_555 1_555
C79_3 C77_3 1_555 1_555
H58_3 C79_3 1_555 1_555
C81_3 C79_3 1_555 1_555
H60_3 C81_3 1_555 1_555
C83_3 N8_3 1_555 1_555
H62_3 C83_3 1_555 1_555
O6_3 Zn1_5 1_555 1_555
O7_3 Zn1_5 1_555 1_555
O8_3 C29_3 1_555 1_555
O9_3 C30_3 1_555 1_555
O10_3 Zn2_3 1_555 1_555
O11_3 Zn4_3 1_555 1_555
O12_3 Zn5_3 1_555 1_555
O13_3 C51_3 1_555 1_555
O14_3 C52_3 1_555 1_555
O15_3 Zn2_3 1_555 1_555
O16_3 Zn4_3 1_555 1_555
O17_3 Zn5_3 1_555 1_555
O18_3 C51_3 1_555 1_555
O19_3 C52_3 1_555 1_555
Pd2_3 C55_3 1_555 1_555
Pd3_3 C56_3 1_555 1_555
Zn4_3 O1_5 1_555 1_555
Zn5_3 O1_5 1_555 1_555
Zn8_3 O18_3 1_555 1_555
Zn6_3 O14_3 1_555 1_555
C6_3 C7_3 1_555 1_555
C9_3 C10_3 1_555 1_555
C11_3 C15_3 1_555 1_555
C15_3 N2_3 1_555 1_555
C16_3 N2_3 1_555 1_555
C17_3 N1_3 1_555 1_555
C19_3 C23_3 1_555 1_555
C21_3 C22_3 1_555 1_555
N3_3 Pd1_3 1_555 1_555
O3_3 Zn2_3 1_555 1_555
C29_3 O6_3 1_555 1_555
C30_3 O7_3 1_555 1_555
C39_3 C41_3 1_555 1_555
C40_3 C42_3 1_555 1_555
C45_3 C47_3 1_555 1_555
C46_3 C48_3 1_555 1_555
C49_3 C57_3 1_555 1_555
C50_3 C58_3 1_555 1_555
C57_3 N6_3 1_555 1_555
C58_3 N7_3 1_555 1_555
C59_3 N6_3 1_555 1_555
C60_3 N7_3 1_555 1_555
C61_3 N4_3 1_555 1_555
C62_3 N5_3 1_555 1_555
C65_3 C73_3 1_555 1_555
C66_3 C74_3 1_555 1_555
C69_3 C71_3 1_555 1_555
C70_3 C72_3 1_555 1_555
N8_3 Pd2_3 1_555 1_555
N9_3 Pd3_3 1_555 1_555
C81_3 C83_3 1_555 1_555
O8_3 Zn4_3 1_555 1_555
O9_3 Zn5_3 1_555 1_555
C14_3 H64_3 1_555 1_555
C56_3 H65_3 1_555 1_555
C55_3 H66_3 1_555 1_555
C78_3 C76_3 1_555 1_555
H57_3 C78_3 1_555 1_555
C80_3 C78_3 1_555 1_555
H59_3 C80_3 1_555 1_555
C82_3 C80_3 1_555 1_555
H61_3 C82_3 1_555 1_555
C82_3 C84_3 1_555 1_555
C46_4 H31_4 1_555 1_555
C52_4 C72_4 1_555 1_555
C54_4 C46_4 1_555 1_555
C62_4 H41_4 1_555 1_555
H43_4 C62_4 1_555 1_555
H45_4 C62_4 1_555 1_555
C64_4 C54_4 1_555 1_555
C66_4 H47_4 1_555 1_555
C68_4 C64_4 1_555 1_555
H49_4 C68_4 1_555 1_555
C70_4 C68_4 1_555 1_555
H51_4 C70_4 1_555 1_555
C72_4 C66_4 1_555 1_555
C74_4 C64_4 1_555 1_555
H53_4 C74_4 1_555 1_555
O12_3 C52_4 1_555 1_555
O15_3 C52_4 1_555 1_555
C66_4 C74_4 1_555 1_555
C70_4 C72_4 1_555 1_555
C1_4 C7_4 1_555 1_555
C2_4 H1_4 1_555 1_555
C3_4 C2_4 1_555 1_555
H2_4 C3_4 1_555 1_555
C4_4 C3_4 1_555 1_555
C5_4 C4_4 1_555 1_555
H3_4 C5_4 1_555 1_555
C6_4 C5_4 1_555 1_555
H4_4 C6_4 1_555 1_555
C7_4 C2_4 1_555 1_555
C8_4 C4_4 1_555 1_555
C9_4 H5_4 1_555 1_555
C10_4 C8_4 1_555 1_555
H6_4 C10_4 1_555 1_555
C11_4 C13_4 1_555 1_555
C12_4 C22_4 1_555 1_555
C13_4 C9_4 1_555 1_555
C14_4 N1_4 1_555 1_555
C15_4 C8_4 1_555 1_555
C16_4 H7_4 1_555 1_555
H8_4 C16_4 1_555 1_555
H9_4 C16_4 1_555 1_555
C17_4 H10_4 1_555 1_555
H11_4 C17_4 1_555 1_555
H12_4 C17_4 1_555 1_555
C18_4 C13_4 1_555 1_555
C19_4 H13_4 1_555 1_555
C20_4 C18_4 1_555 1_555
H14_4 C20_4 1_555 1_555
C21_4 C20_4 1_555 1_555
H15_4 C21_4 1_555 1_555
C22_4 C19_4 1_555 1_555
C23_4 C18_4 1_555 1_555
H16_4 C23_4 1_555 1_555
I1_4 Pd1_4 1_555 1_555
I2_4 Pd1_4 1_555 1_555
N1_4 C11_4 1_555 1_555
N2_4 C14_4 1_555 1_555
N3_4 C24_4 1_555 1_555
C24_4 H17_4 1_555 1_555
C25_4 C24_4 1_555 1_555
H18_4 C25_4 1_555 1_555
C26_4 C25_4 1_555 1_555
H19_4 C26_4 1_555 1_555
C27_4 C26_4 1_555 1_555
H20_4 C27_4 1_555 1_555
C28_4 N3_4 1_555 1_555
H21_4 C28_4 1_555 1_555
O1_6 Zn1_6 1_555 1_555
O2_4 C1_4 1_555 1_555
O3_4 C1_4 1_555 1_555
O11_3 C12_4 1_555 1_555
O17_3 C12_4 1_555 1_555
Pd1_4 C14_4 1_555 1_555
Zn1_6 O2_4 1_555 1_555
Zn7_2 O1_6 1_555 1_555
C29_4 C41_4 1_555 1_555
C30_4 C42_4 1_555 1_555
C31_4 H22_4 1_555 1_555
C32_4 H23_4 1_555 1_555
C33_4 C31_4 1_555 1_555
C34_4 C32_4 1_555 1_555
H24_4 C33_4 1_555 1_555
H25_4 C34_4 1_555 1_555
C35_4 C33_4 1_555 1_555
C36_4 C34_4 1_555 1_555
C37_4 C35_4 1_555 1_555
C38_4 C36_4 1_555 1_555
H26_4 C37_4 1_555 1_555
H27_4 C38_4 1_555 1_555
C39_4 C37_4 1_555 1_555
C40_4 C38_4 1_555 1_555
H28_4 C39_4 1_555 1_555
H29_4 C40_4 1_555 1_555
C41_4 C31_4 1_555 1_555
C42_4 C32_4 1_555 1_555
C43_4 C35_4 1_555 1_555
C44_4 C36_4 1_555 1_555
C47_4 C43_4 1_555 1_555
C48_4 C44_4 1_555 1_555
H32_4 C47_4 1_555 1_555
H33_4 C48_4 1_555 1_555
C55_4 N4_4 1_555 1_555
C56_4 N5_4 1_555 1_555
C57_4 C43_4 1_555 1_555
C58_4 C44_4 1_555 1_555
C59_4 H34_4 1_555 1_555
C60_4 H35_4 1_555 1_555
H36_4 C59_4 1_555 1_555
H37_4 C60_4 1_555 1_555
H38_4 C59_4 1_555 1_555
H39_4 C60_4 1_555 1_555
I3_4 Pd2_4 1_555 1_555
I4_4 Pd3_4 1_555 1_555
I5_4 Pd2_4 1_555 1_555
I6_4 Pd3_4 1_555 1_555
N4_4 C49_4 1_555 1_555
N5_4 C50_4 1_555 1_555
N6_4 C55_4 1_555 1_555
N7_4 C56_4 1_555 1_555
N8_4 C75_4 1_555 1_555
N9_4 C76_4 1_555 1_555
C75_4 H54_4 1_555 1_555
C76_4 H55_4 1_555 1_555
C77_4 C75_4 1_555 1_555
C78_4 C76_4 1_555 1_555
H56_4 C77_4 1_555 1_555
H57_4 C78_4 1_555 1_555
C79_4 C77_4 1_555 1_555
C80_4 C78_4 1_555 1_555
H58_4 C79_4 1_555 1_555
H59_4 C80_4 1_555 1_555
C81_4 C79_4 1_555 1_555
C82_4 C80_4 1_555 1_555
H60_4 C81_4 1_555 1_555
H61_4 C82_4 1_555 1_555
C83_4 N8_4 1_555 1_555
C84_4 N9_4 1_555 1_555
H62_4 C83_4 1_555 1_555
H63_4 C84_4 1_555 1_555
O6_4 Zn1_6 1_555 1_555
O7_4 Zn1_6 1_555 1_555
O8_4 C29_4 1_555 1_555
O9_4 C30_4 1_555 1_555
Pd2_4 C55_4 1_555 1_555
Pd3_4 C56_4 1_555 1_555
Zn8_2 O1_6 1_555 1_555
Zn6_2 O1_6 1_555 1_555
C6_4 C7_4 1_555 1_555
C9_4 C10_4 1_555 1_555
C11_4 C15_4 1_555 1_555
C15_4 N2_4 1_555 1_555
C16_4 N2_4 1_555 1_555
C17_4 N1_4 1_555 1_555
C19_4 C23_4 1_555 1_555
C21_4 C22_4 1_555 1_555
N3_4 Pd1_4 1_555 1_555
C27_4 C28_4 1_555 1_555
O3_4 Zn7_2 1_555 1_555
C29_4 O6_4 1_555 1_555
C30_4 O7_4 1_555 1_555
C39_4 C41_4 1_555 1_555
C40_4 C42_4 1_555 1_555
C49_4 C57_4 1_555 1_555
C50_4 C58_4 1_555 1_555
C57_4 N6_4 1_555 1_555
C58_4 N7_4 1_555 1_555
C59_4 N6_4 1_555 1_555
C60_4 N7_4 1_555 1_555
N8_4 Pd2_4 1_555 1_555
N9_4 Pd3_4 1_555 1_555
C81_4 C83_4 1_555 1_555
C82_4 C84_4 1_555 1_555
O8_4 Zn8_2 1_555 1_555
O9_4 Zn6_2 1_555 1_555
C14_4 H64_4 1_555 1_555
C56_4 H65_4 1_555 1_555
C55_4 H66_4 1_555 1_555
C45_4 H30_4 1_555 1_555
C51_4 C71_4 1_555 1_555
C53_4 C45_4 1_555 1_555
C61_4 H40_4 1_555 1_555
H42_4 C61_4 1_555 1_555
H44_4 C61_4 1_555 1_555
C63_4 C53_4 1_555 1_555
C65_4 H46_4 1_555 1_555
C67_4 C63_4 1_555 1_555
H48_4 C67_4 1_555 1_555
C69_4 C67_4 1_555 1_555
H50_4 C69_4 1_555 1_555
C71_4 C65_4 1_555 1_555
C73_4 C63_4 1_555 1_555
H52_4 C73_4 1_555 1_555
O10_3 C51_4 1_555 1_555
O16_3 C51_4 1_555 1_555
C65_4 C73_4 1_555 1_555
C69_4 C71_4 1_555 1_555
C78_5 C76_5 1_555 1_555
H57_5 C78_5 1_555 1_555
C80_5 C78_5 1_555 1_555
H59_5 C80_5 1_555 1_555
C82_5 C80_5 1_555 1_555
H61_5 C82_5 1_555 1_555
C82_5 C84_5 1_555 1_555
C1_5 C7_5 1_555 1_555
C2_5 H1_5 1_555 1_555
C3_5 C2_5 1_555 1_555
H2_5 C3_5 1_555 1_555
C4_5 C3_5 1_555 1_555
C5_5 C4_5 1_555 1_555
H3_5 C5_5 1_555 1_555
C6_5 C5_5 1_555 1_555
H4_5 C6_5 1_555 1_555
C7_5 C2_5 1_555 1_555
C8_5 C4_5 1_555 1_555
C9_5 H5_5 1_555 1_555
C10_5 C8_5 1_555 1_555
H6_5 C10_5 1_555 1_555
C11_5 C13_5 1_555 1_555
C12_5 C22_5 1_555 1_555
C13_5 C9_5 1_555 1_555
C14_5 N1_5 1_555 1_555
C15_5 C8_5 1_555 1_555
C16_5 H7_5 1_555 1_555
H8_5 C16_5 1_555 1_555
H9_5 C16_5 1_555 1_555
C17_5 H10_5 1_555 1_555
H11_5 C17_5 1_555 1_555
H12_5 C17_5 1_555 1_555
C18_5 C13_5 1_555 1_555
C19_5 H13_5 1_555 1_555
C20_5 C18_5 1_555 1_555
H14_5 C20_5 1_555 1_555
C21_5 C20_5 1_555 1_555
H15_5 C21_5 1_555 1_555
C22_5 C19_5 1_555 1_555
C23_5 C18_5 1_555 1_555
H16_5 C23_5 1_555 1_555
I1_5 Pd1_5 1_555 1_555
N1_5 C11_5 1_555 1_555
N2_5 C14_5 1_555 1_555
O1_7 Zn1_7 1_555 1_555
O2_5 C1_5 1_555 1_555
O3_5 C1_5 1_555 1_555
O11_2 C12_5 1_555 1_555
O17_2 C12_5 1_555 1_555
Pd1_5 C14_5 1_555 1_555
Zn1_7 O2_5 1_555 1_555
Zn7 O1_7 1_555 1_555
C29_5 C41_5 1_555 1_555
C30_5 C42_5 1_555 1_555
C31_5 H22_5 1_555 1_555
C32_5 H23_5 1_555 1_555
C33_5 C31_5 1_555 1_555
C34_5 C32_5 1_555 1_555
H24_5 C33_5 1_555 1_555
H25_5 C34_5 1_555 1_555
C35_5 C33_5 1_555 1_555
C36_5 C34_5 1_555 1_555
C37_5 C35_5 1_555 1_555
C38_5 C36_5 1_555 1_555
H26_5 C37_5 1_555 1_555
H27_5 C38_5 1_555 1_555
C39_5 C37_5 1_555 1_555
C40_5 C38_5 1_555 1_555
H28_5 C39_5 1_555 1_555
H29_5 C40_5 1_555 1_555
C41_5 C31_5 1_555 1_555
C42_5 C32_5 1_555 1_555
C43_5 C35_5 1_555 1_555
C44_5 C36_5 1_555 1_555
C45_5 H30_5 1_555 1_555
C46_5 H31_5 1_555 1_555
C47_5 C43_5 1_555 1_555
C48_5 C44_5 1_555 1_555
H32_5 C47_5 1_555 1_555
H33_5 C48_5 1_555 1_555
C49_5 C53_5 1_555 1_555
C50_5 C54_5 1_555 1_555
C51_5 C71_5 1_555 1_555
C52_5 C72_5 1_555 1_555
C53_5 C45_5 1_555 1_555
C54_5 C46_5 1_555 1_555
C55_5 N4_5 1_555 1_555
C56_5 N5_5 1_555 1_555
C57_5 C43_5 1_555 1_555
C58_5 C44_5 1_555 1_555
C59_5 H34_5 1_555 1_555
C60_5 H35_5 1_555 1_555
H36_5 C59_5 1_555 1_555
H37_5 C60_5 1_555 1_555
H38_5 C59_5 1_555 1_555
H39_5 C60_5 1_555 1_555
C61_5 H40_5 1_555 1_555
C62_5 H41_5 1_555 1_555
H42_5 C61_5 1_555 1_555
H43_5 C62_5 1_555 1_555
H44_5 C61_5 1_555 1_555
H45_5 C62_5 1_555 1_555
C63_5 C53_5 1_555 1_555
C64_5 C54_5 1_555 1_555
C65_5 H46_5 1_555 1_555
C66_5 H47_5 1_555 1_555
C67_5 C63_5 1_555 1_555
C68_5 C64_5 1_555 1_555
H48_5 C67_5 1_555 1_555
H49_5 C68_5 1_555 1_555
C69_5 C67_5 1_555 1_555
C70_5 C68_5 1_555 1_555
H50_5 C69_5 1_555 1_555
H51_5 C70_5 1_555 1_555
C71_5 C65_5 1_555 1_555
C72_5 C66_5 1_555 1_555
C73_5 C63_5 1_555 1_555
C74_5 C64_5 1_555 1_555
H52_5 C73_5 1_555 1_555
H53_5 C74_5 1_555 1_555
I3_5 Pd2_5 1_555 1_555
I4_5 Pd3_5 1_555 1_555
I5_5 Pd2_5 1_555 1_555
N4_5 C49_5 1_555 1_555
N5_5 C50_5 1_555 1_555
N6_5 C55_5 1_555 1_555
N7_5 C56_5 1_555 1_555
N8_5 C75_5 1_555 1_555
C75_5 H54_5 1_555 1_555
C77_5 C75_5 1_555 1_555
H56_5 C77_5 1_555 1_555
C79_5 C77_5 1_555 1_555
H58_5 C79_5 1_555 1_555
C81_5 C79_5 1_555 1_555
H60_5 C81_5 1_555 1_555
C83_5 N8_5 1_555 1_555
H62_5 C83_5 1_555 1_555
O6_5 Zn1_7 1_555 1_555
O7_5 Zn1_7 1_555 1_555
O8_5 C29_5 1_555 1_555
O9_5 C30_5 1_555 1_555
O10_2 C51_5 1_555 1_555
O12_2 C52_5 1_555 1_555
O16_2 C51_5 1_555 1_555
O15_2 C52_5 1_555 1_555
Pd2_5 C55_5 1_555 1_555
Pd3_5 C56_5 1_555 1_555
Zn8 O1_7 1_555 1_555
Zn6 O1_7 1_555 1_555
C6_5 C7_5 1_555 1_555
C9_5 C10_5 1_555 1_555
C11_5 C15_5 1_555 1_555
C15_5 N2_5 1_555 1_555
C16_5 N2_5 1_555 1_555
C17_5 N1_5 1_555 1_555
C19_5 C23_5 1_555 1_555
C21_5 C22_5 1_555 1_555
N3_5 Pd1_5 1_555 1_555
O3_5 Zn7 1_555 1_555
C29_5 O6_5 1_555 1_555
C30_5 O7_5 1_555 1_555
C39_5 C41_5 1_555 1_555
C40_5 C42_5 1_555 1_555
C45_5 C47_5 1_555 1_555
C46_5 C48_5 1_555 1_555
C49_5 C57_5 1_555 1_555
C50_5 C58_5 1_555 1_555
C57_5 N6_5 1_555 1_555
C58_5 N7_5 1_555 1_555
C59_5 N6_5 1_555 1_555
C60_5 N7_5 1_555 1_555
C61_5 N4_5 1_555 1_555
C62_5 N5_5 1_555 1_555
C65_5 C73_5 1_555 1_555
C66_5 C74_5 1_555 1_555
C69_5 C71_5 1_555 1_555
C70_5 C72_5 1_555 1_555
N8_5 Pd2_5 1_555 1_555
N9_5 Pd3_5 1_555 1_555
C81_5 C83_5 1_555 1_555
O8_5 Zn8 1_555 1_555
O9_5 Zn6 1_555 1_555
C14_5 H64_5 1_555 1_555
C56_5 H65_5 1_555 1_555
C55_5 H66_5 1_555 1_555
C25_5 C24_5 1_555 1_555
H18_5 C25_5 1_555 1_555
C26_5 C25_5 1_555 1_555
H19_5 C26_5 1_555 1_555
C27_5 C26_5 1_555 1_555
H20_5 C27_5 1_555 1_555
C27_5 C28_5 1_555 1_555
C46_6 H31_6 1_555 1_555
C50_6 C54_6 1_555 1_555
C52_6 C72_6 1_555 1_555
C54_6 C46_6 1_555 1_555
C56_6 N5_6 1_555 1_555
C58_6 C44_6 1_555 1_555
H37_6 C60_6 1_555 1_555
H39_6 C60_6 1_555 1_555
C62_6 H41_6 1_555 1_555
H43_6 C62_6 1_555 1_555
H45_6 C62_6 1_555 1_555
C64_6 C54_6 1_555 1_555
C66_6 H47_6 1_555 1_555
C68_6 C64_6 1_555 1_555
H49_6 C68_6 1_555 1_555
C70_6 C68_6 1_555 1_555
H51_6 C70_6 1_555 1_555
C72_6 C66_6 1_555 1_555
C74_6 C64_6 1_555 1_555
H53_6 C74_6 1_555 1_555
I4_6 Pd3_6 1_555 1_555
I6_6 Pd3_6 1_555 1_555
N5_6 C50_6 1_555 1_555
N7_6 C56_6 1_555 1_555
N9_6 C76_6 1_555 1_555
C76_6 H55_6 1_555 1_555
C78_6 C76_6 1_555 1_555
H57_6 C78_6 1_555 1_555
C80_6 C78_6 1_555 1_555
H59_6 C80_6 1_555 1_555
C82_6 C80_6 1_555 1_555
H61_6 C82_6 1_555 1_555
C84_6 N9_6 1_555 1_555
H63_6 C84_6 1_555 1_555
O12 C52_6 1_555 1_555
O15 C52_6 1_555 1_555
Pd3_6 C56_6 1_555 1_555
C50_6 C58_6 1_555 1_555
C58_6 N7_6 1_555 1_555
C60_6 N7_6 1_555 1_555
C62_6 N5_6 1_555 1_555
C66_6 C74_6 1_555 1_555
C70_6 C72_6 1_555 1_555
N9_6 Pd3_6 1_555 1_555
C82_6 C84_6 1_555 1_555
C56_6 H65_6 1_555 1_555
C30_6 C42_6 1_555 1_555
C32_6 H23_6 1_555 1_555
C34_6 C32_6 1_555 1_555
C36_6 C34_6 1_555 1_555
C38_6 C36_6 1_555 1_555
H27_6 C38_6 1_555 1_555
C40_6 C38_6 1_555 1_555
H29_6 C40_6 1_555 1_555
C42_6 C32_6 1_555 1_555
H33_6 C48_6 1_555 1_555
O9_6 C30_6 1_555 1_555
C30_6 O7_6 1_555 1_555
C40_6 C42_6 1_555 1_555
O9_6 Zn6_3 1_555 1_555
C9_6 H5_6 1_555 1_555
C11_6 C13_6 1_555 1_555
C12_6 C22_6 1_555 1_555
C13_6 C9_6 1_555 1_555
C14_6 N1_6 1_555 1_555
C15_6 C8_6 1_555 1_555
H9_6 C16_6 1_555 1_555
C17_6 H10_6 1_555 1_555
H11_6 C17_6 1_555 1_555
H12_6 C17_6 1_555 1_555
C18_6 C13_6 1_555 1_555
C19_6 H13_6 1_555 1_555
C20_6 C18_6 1_555 1_555
H14_6 C20_6 1_555 1_555
C21_6 C20_6 1_555 1_555
H15_6 C21_6 1_555 1_555
C22_6 C19_6 1_555 1_555
C23_6 C18_6 1_555 1_555
H16_6 C23_6 1_555 1_555
N1_6 C11_6 1_555 1_555
N2_6 C14_6 1_555 1_555
O11 C12_6 1_555 1_555
O17 C12_6 1_555 1_555
C11_6 C15_6 1_555 1_555
C15_6 N2_6 1_555 1_555
C16_6 N2_6 1_555 1_555
C17_6 N1_6 1_555 1_555
C19_6 C23_6 1_555 1_555
C21_6 C22_6 1_555 1_555
C14_6 H64_6 1_555 1_555
C1_6 C7_6 1_555 1_555
C2_6 H1_6 1_555 1_555
C3_6 C2_6 1_555 1_555
C4_6 C3_6 1_555 1_555
C5_6 C4_6 1_555 1_555
H3_6 C5_6 1_555 1_555
C6_6 C5_6 1_555 1_555
H4_6 C6_6 1_555 1_555
C7_6 C2_6 1_555 1_555
H6_6 C10_6 1_555 1_555
O2_6 C1_6 1_555 1_555
O3_6 C1_6 1_555 1_555
C6_6 C7_6 1_555 1_555
O3_6 Zn7_3 1_555 1_555
O1_8 Zn1_8 1_555 1_555
I2_6 Pd1_6 1_555 1_555
N3_6 C24_6 1_555 1_555
C24_6 H17_6 1_555 1_555
C25_6 C24_6 1_555 1_555
H18_6 C25_6 1_555 1_555
C26_6 C25_6 1_555 1_555
H19_6 C26_6 1_555 1_555
C27_6 C26_6 1_555 1_555
H20_6 C27_6 1_555 1_555
C28_6 N3_6 1_555 1_555
H21_6 C28_6 1_555 1_555
C45_6 H30_6 1_555 1_555
C49_6 C53_6 1_555 1_555
C51_6 C71_6 1_555 1_555
C53_6 C45_6 1_555 1_555
C55_6 N4_6 1_555 1_555
C57_6 C43_6 1_555 1_555
H38_6 C59_6 1_555 1_555
C61_6 H40_6 1_555 1_555
H42_6 C61_6 1_555 1_555
H44_6 C61_6 1_555 1_555
C63_6 C53_6 1_555 1_555
C65_6 H46_6 1_555 1_555
C67_6 C63_6 1_555 1_555
H48_6 C67_6 1_555 1_555
C69_6 C67_6 1_555 1_555
H50_6 C69_6 1_555 1_555
C71_6 C65_6 1_555 1_555
C73_6 C63_6 1_555 1_555
H52_6 C73_6 1_555 1_555
N4_6 C49_6 1_555 1_555
N6_6 C55_6 1_555 1_555
O10 C51_6 1_555 1_555
O16 C51_6 1_555 1_555
N3_6 Pd1_6 1_555 1_555
C27_6 C28_6 1_555 1_555
C49_6 C57_6 1_555 1_555
C57_6 N6_6 1_555 1_555
C59_6 N6_6 1_555 1_555
C61_6 N4_6 1_555 1_555
C65_6 C73_6 1_555 1_555
C69_6 C71_6 1_555 1_555
C55_6 H66_6 1_555 1_555
C29_6 C41_6 1_555 1_555
C31_6 H22_6 1_555 1_555
C33_6 C31_6 1_555 1_555
C35_6 C33_6 1_555 1_555
C37_6 C35_6 1_555 1_555
H26_6 C37_6 1_555 1_555
C39_6 C37_6 1_555 1_555
H28_6 C39_6 1_555 1_555
C41_6 C31_6 1_555 1_555
H32_6 C47_6 1_555 1_555
O8_6 C29_6 1_555 1_555
C29_6 O6_6 1_555 1_555
C39_6 C41_6 1_555 1_555
O8_6 Zn8_3 1_555 1_555
O1_9 Zn1_9 1_555 1_555
O7_6 Zn1_9 1_555 1_555
Zn6_3 O1_9 1_555 1_555
O1_10 Zn1_10 1_555 1_555
O6_6 Zn1_10 1_555 1_555
Zn8_3 O1_10 1_555 1_555
C45_7 H30_7 1_555 1_555
C51_7 C71_7 1_555 1_555
C53_7 C45_7 1_555 1_555
C61_7 H40_7 1_555 1_555
H42_7 C61_7 1_555 1_555
H44_7 C61_7 1_555 1_555
C63_7 C53_7 1_555 1_555
C65_7 H46_7 1_555 1_555
C67_7 C63_7 1_555 1_555
H48_7 C67_7 1_555 1_555
C69_7 C67_7 1_555 1_555
H50_7 C69_7 1_555 1_555
C71_7 C65_7 1_555 1_555
C73_7 C63_7 1_555 1_555
H52_7 C73_7 1_555 1_555
O13_4 C51_7 1_555 1_555
O18_4 C51_7 1_555 1_555
Zn7_4 O13_4 1_555 1_555
Zn8_4 O18_4 1_555 1_555
C65_7 C73_7 1_555 1_555
C69_7 C71_7 1_555 1_555
C1_7 C7_7 1_555 1_555
C2_7 H1_7 1_555 1_555
C3_7 C2_7 1_555 1_555
H2_7 C3_7 1_555 1_555
C4_7 C3_7 1_555 1_555
C5_7 C4_7 1_555 1_555
H3_7 C5_7 1_555 1_555
C6_7 C5_7 1_555 1_555
H4_7 C6_7 1_555 1_555
C7_7 C2_7 1_555 1_555
C8_7 C4_7 1_555 1_555
C9_7 H5_7 1_555 1_555
C10_7 C8_7 1_555 1_555
H6_7 C10_7 1_555 1_555
C11_7 C13_7 1_555 1_555
C12_7 C22_7 1_555 1_555
C13_7 C9_7 1_555 1_555
C14_7 N1_7 1_555 1_555
C15_7 C8_7 1_555 1_555
C16_7 H7_7 1_555 1_555
H8_7 C16_7 1_555 1_555
H9_7 C16_7 1_555 1_555
C17_7 H10_7 1_555 1_555
H11_7 C17_7 1_555 1_555
H12_7 C17_7 1_555 1_555
C18_7 C13_7 1_555 1_555
C19_7 H13_7 1_555 1_555
C20_7 C18_7 1_555 1_555
H14_7 C20_7 1_555 1_555
C21_7 C20_7 1_555 1_555
H15_7 C21_7 1_555 1_555
C22_7 C19_7 1_555 1_555
C23_7 C18_7 1_555 1_555
H16_7 C23_7 1_555 1_555
I1_7 Pd1_7 1_555 1_555
I2_7 Pd1_7 1_555 1_555
N1_7 C11_7 1_555 1_555
N2_7 C14_7 1_555 1_555
N3_7 C24_7 1_555 1_555
C24_7 H17_7 1_555 1_555
C25_7 C24_7 1_555 1_555
H18_7 C25_7 1_555 1_555
C26_7 C25_7 1_555 1_555
H19_7 C26_7 1_555 1_555
C27_7 C26_7 1_555 1_555
H20_7 C27_7 1_555 1_555
C28_7 N3_7 1_555 1_555
H21_7 C28_7 1_555 1_555
O1_11 Zn1_11 1_555 1_555
O2_7 C1_7 1_555 1_555
O3_7 C1_7 1_555 1_555
O4_4 C12_7 1_555 1_555
O5_4 C12_7 1_555 1_555
Pd1_7 C14_7 1_555 1_555
Zn1_11 O2_7 1_555 1_555
Zn2_4 O1_11 1_555 1_555
C29_7 C41_7 1_555 1_555
C30_7 C42_7 1_555 1_555
C31_7 H22_7 1_555 1_555
C32_7 H23_7 1_555 1_555
C33_7 C31_7 1_555 1_555
C34_7 C32_7 1_555 1_555
H24_7 C33_7 1_555 1_555
H25_7 C34_7 1_555 1_555
C35_7 C33_7 1_555 1_555
C36_7 C34_7 1_555 1_555
C37_7 C35_7 1_555 1_555
C38_7 C36_7 1_555 1_555
H26_7 C37_7 1_555 1_555
H27_7 C38_7 1_555 1_555
C39_7 C37_7 1_555 1_555
C40_7 C38_7 1_555 1_555
H28_7 C39_7 1_555 1_555
H29_7 C40_7 1_555 1_555
C41_7 C31_7 1_555 1_555
C42_7 C32_7 1_555 1_555
C43_7 C35_7 1_555 1_555
C44_7 C36_7 1_555 1_555
C47_7 C43_7 1_555 1_555
C48_7 C44_7 1_555 1_555
H32_7 C47_7 1_555 1_555
H33_7 C48_7 1_555 1_555
C55_7 N4_7 1_555 1_555
C56_7 N5_7 1_555 1_555
C57_7 C43_7 1_555 1_555
C58_7 C44_7 1_555 1_555
C59_7 H34_7 1_555 1_555
C60_7 H35_7 1_555 1_555
H36_6 C59_7 1_555 1_555
H37_7 C60_7 1_555 1_555
H38_7 C59_7 1_555 1_555
H39_7 C60_7 1_555 1_555
I3_7 Pd2_6 1_555 1_555
I4_7 Pd3_7 1_555 1_555
I5_6 Pd2_6 1_555 1_555
I6_7 Pd3_7 1_555 1_555
N4_7 C49_7 1_555 1_555
N5_7 C50_7 1_555 1_555
N6_7 C55_7 1_555 1_555
N7_7 C56_7 1_555 1_555
N8_6 C75_6 1_555 1_555
N9_7 C76_7 1_555 1_555
C75_6 H54_6 1_555 1_555
C76_7 H55_7 1_555 1_555
C77_6 C75_6 1_555 1_555
C78_7 C76_7 1_555 1_555
H56_6 C77_6 1_555 1_555
H57_7 C78_7 1_555 1_555
C79_6 C77_6 1_555 1_555
C80_7 C78_7 1_555 1_555
H58_6 C79_6 1_555 1_555
H59_7 C80_7 1_555 1_555
C81_6 C79_6 1_555 1_555
C82_7 C80_7 1_555 1_555
H60_6 C81_6 1_555 1_555
H61_7 C82_7 1_555 1_555
C83_6 N8_6 1_555 1_555
C84_7 N9_7 1_555 1_555
H62_6 C83_6 1_555 1_555
H63_7 C84_7 1_555 1_555
O6_7 Zn1_11 1_555 1_555
O7_7 Zn1_11 1_555 1_555
O8_7 C29_7 1_555 1_555
O9_7 C30_7 1_555 1_555
O10_4 Zn2_4 1_555 1_555
O11_4 Zn4_4 1_555 1_555
O12_4 Zn5_4 1_555 1_555
O15_4 Zn2_4 1_555 1_555
O16_4 Zn4_4 1_555 1_555
O17_4 Zn5_4 1_555 1_555
Pd2_6 C55_7 1_555 1_555
Pd3_7 C56_7 1_555 1_555
Zn8_4 O4_4 1_555 1_555
Zn4_4 O1_11 1_555 1_555
Zn5_4 O1_11 1_555 1_555
Zn6_4 O5_4 1_555 1_555
C6_7 C7_7 1_555 1_555
C9_7 C10_7 1_555 1_555
C11_7 C15_7 1_555 1_555
C15_7 N2_7 1_555 1_555
C16_7 N2_7 1_555 1_555
C17_7 N1_7 1_555 1_555
C19_7 C23_7 1_555 1_555
C21_7 C22_7 1_555 1_555
N3_7 Pd1_7 1_555 1_555
C27_7 C28_7 1_555 1_555
O3_7 Zn2_4 1_555 1_555
C29_7 O6_7 1_555 1_555
C30_7 O7_7 1_555 1_555
C39_7 C41_7 1_555 1_555
C40_7 C42_7 1_555 1_555
C49_7 C57_7 1_555 1_555
C50_7 C58_7 1_555 1_555
C57_7 N6_7 1_555 1_555
C58_7 N7_7 1_555 1_555
C59_7 N6_7 1_555 1_555
C60_7 N7_7 1_555 1_555
N8_6 Pd2_6 1_555 1_555
N9_7 Pd3_7 1_555 1_555
C81_6 C83_6 1_555 1_555
C82_7 C84_7 1_555 1_555
O8_7 Zn4_4 1_555 1_555
O9_7 Zn5_4 1_555 1_555
C14_7 H64_7 1_555 1_555
C56_7 H65_7 1_555 1_555
C55_7 H66_7 1_555 1_555
C46_7 H31_7 1_555 1_555
C52_7 C72_7 1_555 1_555
C54_7 C46_7 1_555 1_555
C62_7 H41_7 1_555 1_555
H43_7 C62_7 1_555 1_555
H45_7 C62_7 1_555 1_555
C64_7 C54_7 1_555 1_555
C66_7 H47_7 1_555 1_555
C68_7 C64_7 1_555 1_555
H49_7 C68_7 1_555 1_555
C70_7 C68_7 1_555 1_555
H51_7 C70_7 1_555 1_555
C72_7 C66_7 1_555 1_555
C74_7 C64_7 1_555 1_555
H53_7 C74_7 1_555 1_555
O14_4 C52_7 1_555 1_555
O19_4 C52_7 1_555 1_555
Zn6_4 O14_4 1_555 1_555
Zn7_4 O19_4 1_555 1_555
C66_7 C74_7 1_555 1_555
C70_7 C72_7 1_555 1_555
C25_8 C24_8 1_555 1_555
H18_8 C25_8 1_555 1_555
C26_8 C25_8 1_555 1_555
H19_8 C26_8 1_555 1_555
C27_8 C26_8 1_555 1_555
H20_8 C27_8 1_555 1_555
C27_8 C28_8 1_555 1_555
C1_8 C7_8 1_555 1_555
C2_8 H1_8 1_555 1_555
C3_8 C2_8 1_555 1_555
H2_8 C3_8 1_555 1_555
C4_8 C3_8 1_555 1_555
C5_8 C4_8 1_555 1_555
H3_8 C5_8 1_555 1_555
C6_8 C5_8 1_555 1_555
H4_8 C6_8 1_555 1_555
C7_8 C2_8 1_555 1_555
C8_8 C4_8 1_555 1_555
C9_8 H5_8 1_555 1_555
C10_8 C8_8 1_555 1_555
H6_8 C10_8 1_555 1_555
C11_8 C13_8 1_555 1_555
C12_8 C22_8 1_555 1_555
C13_8 C9_8 1_555 1_555
C14_8 N1_8 1_555 1_555
C15_8 C8_8 1_555 1_555
C16_8 H7_8 1_555 1_555
H8_8 C16_8 1_555 1_555
H9_8 C16_8 1_555 1_555
C17_8 H10_8 1_555 1_555
H11_8 C17_8 1_555 1_555
H12_8 C17_8 1_555 1_555
C18_8 C13_8 1_555 1_555
C19_8 H13_8 1_555 1_555
C20_8 C18_8 1_555 1_555
H14_8 C20_8 1_555 1_555
C21_8 C20_8 1_555 1_555
H15_8 C21_8 1_555 1_555
C22_8 C19_8 1_555 1_555
C23_8 C18_8 1_555 1_555
H16_8 C23_8 1_555 1_555
I1_8 Pd1_8 1_555 1_555
N1_8 C11_8 1_555 1_555
N2_8 C14_8 1_555 1_555
O1_12 Zn1_12 1_555 1_555
O2_8 C1_8 1_555 1_555
O3_8 C1_8 1_555 1_555
O4_5 C12_8 1_555 1_555
O5_5 C12_8 1_555 1_555
Pd1_8 C14_8 1_555 1_555
Zn1_12 O2_8 1_555 1_555
Zn2_5 O1_12 1_555 1_555
C29_8 C41_8 1_555 1_555
C30_8 C42_8 1_555 1_555
C31_8 H22_8 1_555 1_555
C32_8 H23_8 1_555 1_555
C33_8 C31_8 1_555 1_555
C34_8 C32_8 1_555 1_555
H24_8 C33_8 1_555 1_555
H25_8 C34_8 1_555 1_555
C35_8 C33_8 1_555 1_555
C36_8 C34_8 1_555 1_555
C37_8 C35_8 1_555 1_555
C38_8 C36_8 1_555 1_555
H26_8 C37_8 1_555 1_555
H27_8 C38_8 1_555 1_555
C39_8 C37_8 1_555 1_555
C40_8 C38_8 1_555 1_555
H28_8 C39_8 1_555 1_555
H29_8 C40_8 1_555 1_555
C41_8 C31_8 1_555 1_555
C42_8 C32_8 1_555 1_555
C43_8 C35_8 1_555 1_555
C44_8 C36_8 1_555 1_555
C45_8 H30_8 1_555 1_555
C46_8 H31_8 1_555 1_555
C47_8 C43_8 1_555 1_555
C48_8 C44_8 1_555 1_555
H32_8 C47_8 1_555 1_555
H33_8 C48_8 1_555 1_555
C49_8 C53_8 1_555 1_555
C50_8 C54_8 1_555 1_555
C51_8 C71_8 1_555 1_555
C52_8 C72_8 1_555 1_555
C53_8 C45_8 1_555 1_555
C54_8 C46_8 1_555 1_555
C55_8 N4_8 1_555 1_555
C56_8 N5_8 1_555 1_555
C57_8 C43_8 1_555 1_555
C58_8 C44_8 1_555 1_555
C59_8 H34_8 1_555 1_555
C60_8 H35_8 1_555 1_555
H36_7 C59_8 1_555 1_555
H37_8 C60_8 1_555 1_555
H38_8 C59_8 1_555 1_555
H39_8 C60_8 1_555 1_555
C61_8 H40_8 1_555 1_555
C62_8 H41_8 1_555 1_555
H42_8 C61_8 1_555 1_555
H43_8 C62_8 1_555 1_555
H44_8 C61_8 1_555 1_555
H45_8 C62_8 1_555 1_555
C63_8 C53_8 1_555 1_555
C64_8 C54_8 1_555 1_555
C65_8 H46_8 1_555 1_555
C66_8 H47_8 1_555 1_555
C67_8 C63_8 1_555 1_555
C68_8 C64_8 1_555 1_555
H48_8 C67_8 1_555 1_555
H49_8 C68_8 1_555 1_555
C69_8 C67_8 1_555 1_555
C70_8 C68_8 1_555 1_555
H50_8 C69_8 1_555 1_555
H51_8 C70_8 1_555 1_555
C71_8 C65_8 1_555 1_555
C72_8 C66_8 1_555 1_555
C73_8 C63_8 1_555 1_555
C74_8 C64_8 1_555 1_555
H52_8 C73_8 1_555 1_555
H53_8 C74_8 1_555 1_555
I3_8 Pd2_7 1_555 1_555
I4_8 Pd3_8 1_555 1_555
I5_7 Pd2_7 1_555 1_555
N4_8 C49_8 1_555 1_555
N5_8 C50_8 1_555 1_555
N6_8 C55_8 1_555 1_555
N7_8 C56_8 1_555 1_555
N8_7 C75_7 1_555 1_555
C75_7 H54_7 1_555 1_555
C77_7 C75_7 1_555 1_555
H56_7 C77_7 1_555 1_555
C79_7 C77_7 1_555 1_555
H58_7 C79_7 1_555 1_555
C81_7 C79_7 1_555 1_555
H60_7 C81_7 1_555 1_555
C83_7 N8_7 1_555 1_555
H62_7 C83_7 1_555 1_555
O6_8 Zn1_12 1_555 1_555
O7_8 Zn1_12 1_555 1_555
O8_8 C29_8 1_555 1_555
O9_8 C30_8 1_555 1_555
O10_5 Zn2_5 1_555 1_555
O11_5 Zn4_5 1_555 1_555
O12_5 Zn5_5 1_555 1_555
O13_5 C51_8 1_555 1_555
O14_5 C52_8 1_555 1_555
O15_5 Zn2_5 1_555 1_555
O16_5 Zn4_5 1_555 1_555
O17_5 Zn5_5 1_555 1_555
O18_5 C51_8 1_555 1_555
O19_5 C52_8 1_555 1_555
Pd2_7 C55_8 1_555 1_555
Pd3_8 C56_8 1_555 1_555
Zn4_5 O1_12 1_555 1_555
Zn5_5 O1_12 1_555 1_555
Zn8_5 O18_5 1_555 1_555
Zn6_5 O14_5 1_555 1_555
C6_8 C7_8 1_555 1_555
C9_8 C10_8 1_555 1_555
C11_8 C15_8 1_555 1_555
C15_8 N2_8 1_555 1_555
C16_8 N2_8 1_555 1_555
C17_8 N1_8 1_555 1_555
C19_8 C23_8 1_555 1_555
C21_8 C22_8 1_555 1_555
N3_8 Pd1_8 1_555 1_555
O3_8 Zn2_5 1_555 1_555
C29_8 O6_8 1_555 1_555
C30_8 O7_8 1_555 1_555
C39_8 C41_8 1_555 1_555
C40_8 C42_8 1_555 1_555
C45_8 C47_8 1_555 1_555
C46_8 C48_8 1_555 1_555
C49_8 C57_8 1_555 1_555
C50_8 C58_8 1_555 1_555
C57_8 N6_8 1_555 1_555
C58_8 N7_8 1_555 1_555
C59_8 N6_8 1_555 1_555
C60_8 N7_8 1_555 1_555
C61_8 N4_8 1_555 1_555
C62_8 N5_8 1_555 1_555
C65_8 C73_8 1_555 1_555
C66_8 C74_8 1_555 1_555
C69_8 C71_8 1_555 1_555
C70_8 C72_8 1_555 1_555
N8_7 Pd2_7 1_555 1_555
N9_8 Pd3_8 1_555 1_555
C81_7 C83_7 1_555 1_555
O8_8 Zn4_5 1_555 1_555
O9_8 Zn5_5 1_555 1_555
C14_8 H64_8 1_555 1_555
C56_8 H65_8 1_555 1_555
C55_8 H66_8 1_555 1_555
C78_8 C76_8 1_555 1_555
H57_8 C78_8 1_555 1_555
C80_8 C78_8 1_555 1_555
H59_8 C80_8 1_555 1_555
C82_8 C80_8 1_555 1_555
H61_8 C82_8 1_555 1_555
C82_8 C84_8 1_555 1_555
C29_9 C41_9 1_555 1_555
C31_9 H22_9 1_555 1_555
C33_9 C31_9 1_555 1_555
C35_9 C33_9 1_555 1_555
C37_9 C35_9 1_555 1_555
H26_9 C37_9 1_555 1_555
C39_9 C37_9 1_555 1_555
H28_9 C39_9 1_555 1_555
C41_9 C31_9 1_555 1_555
H32_9 C47_9 1_555 1_555
O8_9 C29_9 1_555 1_555
O16_6 Zn4_6 1_555 1_555
C29_9 O6_9 1_555 1_555
C39_9 C41_9 1_555 1_555
O8_9 Zn4_6 1_555 1_555
I2_9 Pd1_9 1_555 1_555
N3_9 C24_9 1_555 1_555
C24_9 H17_9 1_555 1_555
C25_9 C24_9 1_555 1_555
H18_9 C25_9 1_555 1_555
C26_9 C25_9 1_555 1_555
H19_9 C26_9 1_555 1_555
C27_9 C26_9 1_555 1_555
H20_9 C27_9 1_555 1_555
C28_9 N3_9 1_555 1_555
H21_9 C28_9 1_555 1_555
C45_9 H30_9 1_555 1_555
C49_9 C53_9 1_555 1_555
C51_9 C71_9 1_555 1_555
C53_9 C45_9 1_555 1_555
C55_9 N4_9 1_555 1_555
C57_9 C43_9 1_555 1_555
H38_9 C59_9 1_555 1_555
C61_9 H40_9 1_555 1_555
H42_9 C61_9 1_555 1_555
H44_9 C61_9 1_555 1_555
C63_9 C53_9 1_555 1_555
C65_9 H46_9 1_555 1_555
C67_9 C63_9 1_555 1_555
H48_9 C67_9 1_555 1_555
C69_9 C67_9 1_555 1_555
H50_9 C69_9 1_555 1_555
C71_9 C65_9 1_555 1_555
C73_9 C63_9 1_555 1_555
H52_9 C73_9 1_555 1_555
N4_9 C49_9 1_555 1_555
N6_9 C55_9 1_555 1_555
O13_6 C51_9 1_555 1_555
O18_6 C51_9 1_555 1_555
Zn7_6 O13_6 1_555 1_555
Zn8_6 O18_6 1_555 1_555
N3_9 Pd1_9 1_555 1_555
C27_9 C28_9 1_555 1_555
C49_9 C57_9 1_555 1_555
C57_9 N6_9 1_555 1_555
C59_9 N6_9 1_555 1_555
C61_9 N4_9 1_555 1_555
C65_9 C73_9 1_555 1_555
C69_9 C71_9 1_555 1_555
C55_9 H66_9 1_555 1_555
O1_13 Zn1_13 1_555 1_555
C1_9 C7_9 1_555 1_555
C2_9 H1_9 1_555 1_555
C3_9 C2_9 1_555 1_555
C4_9 C3_9 1_555 1_555
C5_9 C4_9 1_555 1_555
H3_9 C5_9 1_555 1_555
C6_9 C5_9 1_555 1_555
H4_9 C6_9 1_555 1_555
C7_9 C2_9 1_555 1_555
H6_9 C10_9 1_555 1_555
O2_9 C1_9 1_555 1_555
O3_9 C1_9 1_555 1_555
C6_9 C7_9 1_555 1_555
O3_9 Zn2_6 1_555 1_555
C9_9 H5_9 1_555 1_555
C11_9 C13_9 1_555 1_555
C12_9 C22_9 1_555 1_555
C13_9 C9_9 1_555 1_555
C14_9 N1_9 1_555 1_555
C15_9 C8_9 1_555 1_555
H9_9 C16_9 1_555 1_555
C17_9 H10_9 1_555 1_555
H11_9 C17_9 1_555 1_555
H12_9 C17_9 1_555 1_555
C18_9 C13_9 1_555 1_555
C19_9 H13_9 1_555 1_555
C20_9 C18_9 1_555 1_555
H14_9 C20_9 1_555 1_555
C21_9 C20_9 1_555 1_555
H15_9 C21_9 1_555 1_555
C22_9 C19_9 1_555 1_555
C23_9 C18_9 1_555 1_555
H16_9 C23_9 1_555 1_555
N1_9 C11_9 1_555 1_555
N2_9 C14_9 1_555 1_555
O4_6 C12_9 1_555 1_555
O5_6 C12_9 1_555 1_555
Zn8_6 O4_6 1_555 1_555
Zn6_6 O5_6 1_555 1_555
C11_9 C15_9 1_555 1_555
C15_9 N2_9 1_555 1_555
C16_9 N2_9 1_555 1_555
C17_9 N1_9 1_555 1_555
C19_9 C23_9 1_555 1_555
C21_9 C22_9 1_555 1_555
C14_9 H64_9 1_555 1_555
C30_9 C42_9 1_555 1_555
C32_9 H23_9 1_555 1_555
C34_9 C32_9 1_555 1_555
C36_9 C34_9 1_555 1_555
C38_9 C36_9 1_555 1_555
H27_9 C38_9 1_555 1_555
C40_9 C38_9 1_555 1_555
H29_9 C40_9 1_555 1_555
C42_9 C32_9 1_555 1_555
H33_9 C48_9 1_555 1_555
O9_9 C30_9 1_555 1_555
O12_6 Zn5_6 1_555 1_555
C30_9 O7_9 1_555 1_555
C40_9 C42_9 1_555 1_555
O9_9 Zn5_6 1_555 1_555
C46_9 H31_9 1_555 1_555
C50_9 C54_9 1_555 1_555
C52_9 C72_9 1_555 1_555
C54_9 C46_9 1_555 1_555
C56_9 N5_9 1_555 1_555
C58_9 C44_9 1_555 1_555
H37_9 C60_9 1_555 1_555
H39_9 C60_9 1_555 1_555
C62_9 H41_9 1_555 1_555
H43_9 C62_9 1_555 1_555
H45_9 C62_9 1_555 1_555
C64_9 C54_9 1_555 1_555
C66_9 H47_9 1_555 1_555
C68_9 C64_9 1_555 1_555
H49_9 C68_9 1_555 1_555
C70_9 C68_9 1_555 1_555
H51_9 C70_9 1_555 1_555
C72_9 C66_9 1_555 1_555
C74_9 C64_9 1_555 1_555
H53_9 C74_9 1_555 1_555
I4_9 Pd3_9 1_555 1_555
I6_9 Pd3_9 1_555 1_555
N5_9 C50_9 1_555 1_555
N7_9 C56_9 1_555 1_555
N9_9 C76_9 1_555 1_555
C76_9 H55_9 1_555 1_555
C78_9 C76_9 1_555 1_555
H57_9 C78_9 1_555 1_555
C80_9 C78_9 1_555 1_555
H59_9 C80_9 1_555 1_555
C82_9 C80_9 1_555 1_555
H61_9 C82_9 1_555 1_555
C84_9 N9_9 1_555 1_555
H63_9 C84_9 1_555 1_555
O14_6 C52_9 1_555 1_555
O19_6 C52_9 1_555 1_555
Pd3_9 C56_9 1_555 1_555
Zn6_6 O14_6 1_555 1_555
Zn7_6 O19_6 1_555 1_555
C50_9 C58_9 1_555 1_555
C58_9 N7_9 1_555 1_555
C60_9 N7_9 1_555 1_555
C62_9 N5_9 1_555 1_555
C66_9 C74_9 1_555 1_555
C70_9 C72_9 1_555 1_555
N9_9 Pd3_9 1_555 1_555
C82_9 C84_9 1_555 1_555
C56_9 H65_9 1_555 1_555
O1_14 Zn1_14 1_555 1_555
O7_9 Zn1_14 1_555 1_555
Zn5_6 O1_14 1_555 1_555
O1_15 Zn1_15 1_555 1_555
O6_9 Zn1_15 1_555 1_555
Zn4_6 O1_15 1_555 1_555
C46_10 H31_10 1_555 1_555
C52_10 C72_10 1_555 1_555
C54_10 C46_10 1_555 1_555
C62_10 H41_10 1_555 1_555
H43_10 C62_10 1_555 1_555
H45_10 C62_10 1_555 1_555
C64_10 C54_10 1_555 1_555
C66_10 H47_10 1_555 1_555
C68_10 C64_10 1_555 1_555
H49_10 C68_10 1_555 1_555
C70_10 C68_10 1_555 1_555
H51_10 C70_10 1_555 1_555
C72_10 C66_10 1_555 1_555
C74_10 C64_10 1_555 1_555
H53_10 C74_10 1_555 1_555
O12_5 C52_10 1_555 1_555
O15_5 C52_10 1_555 1_555
C66_10 C74_10 1_555 1_555
C70_10 C72_10 1_555 1_555
C1_10 C7_10 1_555 1_555
C2_10 H1_10 1_555 1_555
C3_10 C2_10 1_555 1_555
H2_10 C3_10 1_555 1_555
C4_10 C3_10 1_555 1_555
C5_10 C4_10 1_555 1_555
H3_10 C5_10 1_555 1_555
C6_10 C5_10 1_555 1_555
H4_10 C6_10 1_555 1_555
C7_10 C2_10 1_555 1_555
C8_10 C4_10 1_555 1_555
C9_10 H5_10 1_555 1_555
C10_10 C8_10 1_555 1_555
H6_10 C10_10 1_555 1_555
C11_10 C13_10 1_555 1_555
C12_10 C22_10 1_555 1_555
C13_10 C9_10 1_555 1_555
C14_10 N1_10 1_555 1_555
C15_10 C8_10 1_555 1_555
C16_10 H7_10 1_555 1_555
H8_10 C16_10 1_555 1_555
H9_10 C16_10 1_555 1_555
C17_10 H10_10 1_555 1_555
H11_10 C17_10 1_555 1_555
H12_10 C17_10 1_555 1_555
C18_10 C13_10 1_555 1_555
C19_10 H13_10 1_555 1_555
C20_10 C18_10 1_555 1_555
H14_10 C20_10 1_555 1_555
C21_10 C20_10 1_555 1_555
H15_10 C21_10 1_555 1_555
C22_10 C19_10 1_555 1_555
C23_10 C18_10 1_555 1_555
H16_10 C23_10 1_555 1_555
I1_10 Pd1_10 1_555 1_555
I2_10 Pd1_10 1_555 1_555
N1_10 C11_10 1_555 1_555
N2_10 C14_10 1_555 1_555
N3_10 C24_10 1_555 1_555
C24_10 H17_10 1_555 1_555
C25_10 C24_10 1_555 1_555
H18_10 C25_10 1_555 1_555
C26_10 C25_10 1_555 1_555
H19_10 C26_10 1_555 1_555
C27_10 C26_10 1_555 1_555
H20_10 C27_10 1_555 1_555
C28_10 N3_10 1_555 1_555
H21_10 C28_10 1_555 1_555
O1_16 Zn1_16 1_555 1_555
O2_10 C1_10 1_555 1_555
O3_10 C1_10 1_555 1_555
O11_5 C12_10 1_555 1_555
O17_5 C12_10 1_555 1_555
Pd1_10 C14_10 1_555 1_555
Zn1_16 O2_10 1_555 1_555
Zn7_6 O1_16 1_555 1_555
C29_10 C41_10 1_555 1_555
C30_10 C42_10 1_555 1_555
C31_10 H22_10 1_555 1_555
C32_10 H23_10 1_555 1_555
C33_10 C31_10 1_555 1_555
C34_10 C32_10 1_555 1_555
H24_10 C33_10 1_555 1_555
H25_10 C34_10 1_555 1_555
C35_10 C33_10 1_555 1_555
C36_10 C34_10 1_555 1_555
C37_10 C35_10 1_555 1_555
C38_10 C36_10 1_555 1_555
H26_10 C37_10 1_555 1_555
H27_10 C38_10 1_555 1_555
C39_10 C37_10 1_555 1_555
C40_10 C38_10 1_555 1_555
H28_10 C39_10 1_555 1_555
H29_10 C40_10 1_555 1_555
C41_10 C31_10 1_555 1_555
C42_10 C32_10 1_555 1_555
C43_10 C35_10 1_555 1_555
C44_10 C36_10 1_555 1_555
C47_10 C43_10 1_555 1_555
C48_10 C44_10 1_555 1_555
H32_10 C47_10 1_555 1_555
H33_10 C48_10 1_555 1_555
C55_10 N4_10 1_555 1_555
C56_10 N5_10 1_555 1_555
C57_10 C43_10 1_555 1_555
C58_10 C44_10 1_555 1_555
C59_10 H34_10 1_555 1_555
C60_10 H35_10 1_555 1_555
H36_8 C59_10 1_555 1_555
H37_10 C60_10 1_555 1_555
H38_10 C59_10 1_555 1_555
H39_10 C60_10 1_555 1_555
I3_10 Pd2_8 1_555 1_555
I4_10 Pd3_10 1_555 1_555
I5_8 Pd2_8 1_555 1_555
I6_10 Pd3_10 1_555 1_555
N4_10 C49_10 1_555 1_555
N5_10 C50_10 1_555 1_555
N6_10 C55_10 1_555 1_555
N7_10 C56_10 1_555 1_555
N8_8 C75_8 1_555 1_555
N9_10 C76_10 1_555 1_555
C75_8 H54_8 1_555 1_555
C76_10 H55_10 1_555 1_555
C77_8 C75_8 1_555 1_555
C78_10 C76_10 1_555 1_555
H56_8 C77_8 1_555 1_555
H57_10 C78_10 1_555 1_555
C79_8 C77_8 1_555 1_555
C80_10 C78_10 1_555 1_555
H58_8 C79_8 1_555 1_555
H59_10 C80_10 1_555 1_555
C81_8 C79_8 1_555 1_555
C82_10 C80_10 1_555 1_555
H60_8 C81_8 1_555 1_555
H61_10 C82_10 1_555 1_555
C83_8 N8_8 1_555 1_555
C84_10 N9_10 1_555 1_555
H62_8 C83_8 1_555 1_555
H63_10 C84_10 1_555 1_555
O6_10 Zn1_16 1_555 1_555
O7_10 Zn1_16 1_555 1_555
O8_10 C29_10 1_555 1_555
O9_10 C30_10 1_555 1_555
Pd2_8 C55_10 1_555 1_555
Pd3_10 C56_10 1_555 1_555
Zn8_6 O1_16 1_555 1_555
Zn6_6 O1_16 1_555 1_555
C6_10 C7_10 1_555 1_555
C9_10 C10_10 1_555 1_555
C11_10 C15_10 1_555 1_555
C15_10 N2_10 1_555 1_555
C16_10 N2_10 1_555 1_555
C17_10 N1_10 1_555 1_555
C19_10 C23_10 1_555 1_555
C21_10 C22_10 1_555 1_555
N3_10 Pd1_10 1_555 1_555
C27_10 C28_10 1_555 1_555
O3_10 Zn7_6 1_555 1_555
C29_10 O6_10 1_555 1_555
C30_10 O7_10 1_555 1_555
C39_10 C41_10 1_555 1_555
C40_10 C42_10 1_555 1_555
C49_10 C57_10 1_555 1_555
C50_10 C58_10 1_555 1_555
C57_10 N6_10 1_555 1_555
C58_10 N7_10 1_555 1_555
C59_10 N6_10 1_555 1_555
C60_10 N7_10 1_555 1_555
N8_8 Pd2_8 1_555 1_555
N9_10 Pd3_10 1_555 1_555
C81_8 C83_8 1_555 1_555
C82_10 C84_10 1_555 1_555
O8_10 Zn8_6 1_555 1_555
O9_10 Zn6_6 1_555 1_555
C14_10 H64_10 1_555 1_555
C56_10 H65_10 1_555 1_555
C55_10 H66_10 1_555 1_555
C45_10 H30_10 1_555 1_555
C51_10 C71_10 1_555 1_555
C53_10 C45_10 1_555 1_555
C61_10 H40_10 1_555 1_555
H42_10 C61_10 1_555 1_555
H44_10 C61_10 1_555 1_555
C63_10 C53_10 1_555 1_555
C65_10 H46_10 1_555 1_555
C67_10 C63_10 1_555 1_555
H48_10 C67_10 1_555 1_555
C69_10 C67_10 1_555 1_555
H50_10 C69_10 1_555 1_555
C71_10 C65_10 1_555 1_555
C73_10 C63_10 1_555 1_555
H52_10 C73_10 1_555 1_555
O10_5 C51_10 1_555 1_555
O16_5 C51_10 1_555 1_555
C65_10 C73_10 1_555 1_555
C69_10 C71_10 1_555 1_555
C30_11 C42_11 1_555 1_555
C32_11 H23_11 1_555 1_555
C34_11 C32_11 1_555 1_555
H25_11 C34_11 1_555 1_555
C36_11 C34_11 1_555 1_555
C38_11 C36_11 1_555 1_555
H27_11 C38_11 1_555 1_555
C40_11 C38_11 1_555 1_555
H29_11 C40_11 1_555 1_555
C42_11 C32_11 1_555 1_555
C44_11 C36_11 1_555 1_555
C46_11 H31_11 1_555 1_555
C48_11 C44_11 1_555 1_555
H33_11 C48_11 1_555 1_555
C50_11 C54_11 1_555 1_555
C52_11 C72_11 1_555 1_555
C54_11 C46_11 1_555 1_555
C56_11 N5_11 1_555 1_555
C58_11 C44_11 1_555 1_555
C60_11 H35_11 1_555 1_555
H37_11 C60_11 1_555 1_555
H39_11 C60_11 1_555 1_555
C62_11 H41_11 1_555 1_555
H43_11 C62_11 1_555 1_555
H45_11 C62_11 1_555 1_555
C64_11 C54_11 1_555 1_555
C66_11 H47_11 1_555 1_555
C68_11 C64_11 1_555 1_555
H49_11 C68_11 1_555 1_555
C70_11 C68_11 1_555 1_555
H51_11 C70_11 1_555 1_555
C72_11 C66_11 1_555 1_555
C74_11 C64_11 1_555 1_555
H53_11 C74_11 1_555 1_555
I4_11 Pd3_11 1_555 1_555
I6_11 Pd3_11 1_555 1_555
N5_11 C50_11 1_555 1_555
N7_11 C56_11 1_555 1_555
N9_11 C76_11 1_555 1_555
C76_11 H55_11 1_555 1_555
C78_11 C76_11 1_555 1_555
H57_11 C78_11 1_555 1_555
C80_11 C78_11 1_555 1_555
H59_11 C80_11 1_555 1_555
C82_11 C80_11 1_555 1_555
H61_11 C82_11 1_555 1_555
C84_11 N9_11 1_555 1_555
H63_11 C84_11 1_555 1_555
O9_11 C30_11 1_555 1_555
O12_4 C52_11 1_555 1_555
O15_4 C52_11 1_555 1_555
Pd3_11 C56_11 1_555 1_555
C30_11 O7_11 1_555 1_555
C40_11 C42_11 1_555 1_555
C46_11 C48_11 1_555 1_555
C50_11 C58_11 1_555 1_555
C58_11 N7_11 1_555 1_555
C60_11 N7_11 1_555 1_555
C62_11 N5_11 1_555 1_555
C66_11 C74_11 1_555 1_555
C70_11 C72_11 1_555 1_555
N9_11 Pd3_11 1_555 1_555
C82_11 C84_11 1_555 1_555
O9_11 Zn6_5 1_555 1_555
C56_11 H65_11 1_555 1_555
O1_17 Zn1_17 1_555 1_555
I5_9 Pd2_9 1_555 1_555
N8_9 C75_9 1_555 1_555
C75_9 H54_9 1_555 1_555
C77_9 C75_9 1_555 1_555
H56_9 C77_9 1_555 1_555
C79_9 C77_9 1_555 1_555
H58_9 C79_9 1_555 1_555
C81_9 C79_9 1_555 1_555
H60_9 C81_9 1_555 1_555
C83_9 N8_9 1_555 1_555
H62_9 C83_9 1_555 1_555
N8_9 Pd2_9 1_555 1_555
C81_9 C83_9 1_555 1_555
C1_11 C7_11 1_555 1_555
C2_11 H1_11 1_555 1_555
C3_11 C2_11 1_555 1_555
H2_11 C3_11 1_555 1_555
C4_11 C3_11 1_555 1_555
C5_11 C4_11 1_555 1_555
H3_11 C5_11 1_555 1_555
C6_11 C5_11 1_555 1_555
H4_11 C6_11 1_555 1_555
C7_11 C2_11 1_555 1_555
C8_11 C4_11 1_555 1_555
C9_11 H5_11 1_555 1_555
C10_11 C8_11 1_555 1_555
H6_11 C10_11 1_555 1_555
C11_11 C13_11 1_555 1_555
C12_11 C22_11 1_555 1_555
C13_11 C9_11 1_555 1_555
C14_11 N1_11 1_555 1_555
C15_11 C8_11 1_555 1_555
C16_11 H7_11 1_555 1_555
H9_11 C16_11 1_555 1_555
C17_11 H10_11 1_555 1_555
H11_11 C17_11 1_555 1_555
H12_11 C17_11 1_555 1_555
C18_11 C13_11 1_555 1_555
C19_11 H13_11 1_555 1_555
C20_11 C18_11 1_555 1_555
H14_11 C20_11 1_555 1_555
C21_11 C20_11 1_555 1_555
H15_11 C21_11 1_555 1_555
C22_11 C19_11 1_555 1_555
C23_11 C18_11 1_555 1_555
H16_11 C23_11 1_555 1_555
N1_11 C11_11 1_555 1_555
N2_11 C14_11 1_555 1_555
O2_11 C1_11 1_555 1_555
O3_11 C1_11 1_555 1_555
O11_4 C12_11 1_555 1_555
O17_4 C12_11 1_555 1_555
C6_11 C7_11 1_555 1_555
C9_11 C10_11 1_555 1_555
C11_11 C15_11 1_555 1_555
C15_11 N2_11 1_555 1_555
C16_11 N2_11 1_555 1_555
C17_11 N1_11 1_555 1_555
C19_11 C23_11 1_555 1_555
C21_11 C22_11 1_555 1_555
O3_11 Zn7_5 1_555 1_555
C14_11 H64_11 1_555 1_555
I2_11 Pd1_11 1_555 1_555
N3_11 C24_11 1_555 1_555
C24_11 H17_11 1_555 1_555
C25_11 C24_11 1_555 1_555
H18_11 C25_11 1_555 1_555
C26_11 C25_11 1_555 1_555
H19_11 C26_11 1_555 1_555
C27_11 C26_11 1_555 1_555
H20_11 C27_11 1_555 1_555
C28_11 N3_11 1_555 1_555
H21_11 C28_11 1_555 1_555
C29_11 C41_11 1_555 1_555
C31_11 H22_11 1_555 1_555
C33_11 C31_11 1_555 1_555
H24_11 C33_11 1_555 1_555
C35_11 C33_11 1_555 1_555
C37_11 C35_11 1_555 1_555
H26_11 C37_11 1_555 1_555
C39_11 C37_11 1_555 1_555
H28_11 C39_11 1_555 1_555
C41_11 C31_11 1_555 1_555
C43_11 C35_11 1_555 1_555
C45_11 H30_11 1_555 1_555
C47_11 C43_11 1_555 1_555
H32_11 C47_11 1_555 1_555
C49_11 C53_11 1_555 1_555
C51_11 C71_11 1_555 1_555
C53_11 C45_11 1_555 1_555
C55_11 N4_11 1_555 1_555
C57_11 C43_11 1_555 1_555
C59_11 H34_11 1_555 1_555
H38_11 C59_11 1_555 1_555
C61_11 H40_11 1_555 1_555
H42_11 C61_11 1_555 1_555
H44_11 C61_11 1_555 1_555
C63_11 C53_11 1_555 1_555
C65_11 H46_11 1_555 1_555
C67_11 C63_11 1_555 1_555
H48_11 C67_11 1_555 1_555
C69_11 C67_11 1_555 1_555
H50_11 C69_11 1_555 1_555
C71_11 C65_11 1_555 1_555
C73_11 C63_11 1_555 1_555
H52_11 C73_11 1_555 1_555
N4_11 C49_11 1_555 1_555
N6_11 C55_11 1_555 1_555
O8_11 C29_11 1_555 1_555
O10_4 C51_11 1_555 1_555
O16_4 C51_11 1_555 1_555
N3_11 Pd1_11 1_555 1_555
C27_11 C28_11 1_555 1_555
C29_11 O6_11 1_555 1_555
C39_11 C41_11 1_555 1_555
C45_11 C47_11 1_555 1_555
C49_11 C57_11 1_555 1_555
C57_11 N6_11 1_555 1_555
C59_11 N6_11 1_555 1_555
C61_11 N4_11 1_555 1_555
C65_11 C73_11 1_555 1_555
C69_11 C71_11 1_555 1_555
O8_11 Zn8_5 1_555 1_555
C55_11 H66_11 1_555 1_555
O1_18 Zn1_18 1_555 1_555
O7_11 Zn1_18 1_555 1_555
Zn6_5 O1_18 1_555 1_555
O1_19 Zn1_19 1_555 1_555
O6_11 Zn1_19 1_555 1_555
Zn8_5 O1_19 1_555 1_555
C78_12 C76_12 1_555 1_555
H57_12 C78_12 1_555 1_555
C80_12 C78_12 1_555 1_555
H59_12 C80_12 1_555 1_555
C82_12 C80_12 1_555 1_555
H61_12 C82_12 1_555 1_555
C82_12 C84_12 1_555 1_555
C1_12 C7_12 1_555 1_555
C2_12 H1_12 1_555 1_555
C3_12 C2_12 1_555 1_555
H2_12 C3_12 1_555 1_555
C4_12 C3_12 1_555 1_555
C5_12 C4_12 1_555 1_555
H3_12 C5_12 1_555 1_555
C6_12 C5_12 1_555 1_555
H4_12 C6_12 1_555 1_555
C7_12 C2_12 1_555 1_555
C8_12 C4_12 1_555 1_555
C9_12 H5_12 1_555 1_555
C10_12 C8_12 1_555 1_555
H6_12 C10_12 1_555 1_555
C11_12 C13_12 1_555 1_555
C12_12 C22_12 1_555 1_555
C13_12 C9_12 1_555 1_555
C14_12 N1_12 1_555 1_555
C15_12 C8_12 1_555 1_555
C16_12 H7_12 1_555 1_555
H8_12 C16_12 1_555 1_555
H9_12 C16_12 1_555 1_555
C17_12 H10_12 1_555 1_555
H11_12 C17_12 1_555 1_555
H12_12 C17_12 1_555 1_555
C18_12 C13_12 1_555 1_555
C19_12 H13_12 1_555 1_555
C20_12 C18_12 1_555 1_555
H14_12 C20_12 1_555 1_555
C21_12 C20_12 1_555 1_555
H15_12 C21_12 1_555 1_555
C22_12 C19_12 1_555 1_555
C23_12 C18_12 1_555 1_555
H16_12 C23_12 1_555 1_555
I1_12 Pd1_12 1_555 1_555
N1_12 C11_12 1_555 1_555
N2_12 C14_12 1_555 1_555
O1_20 Zn1_20 1_555 1_555
O2_12 C1_12 1_555 1_555
O3_12 C1_12 1_555 1_555
O11_6 C12_12 1_555 1_555
O17_6 C12_12 1_555 1_555
Pd1_12 C14_12 1_555 1_555
Zn1_20 O2_12 1_555 1_555
Zn7_4 O1_20 1_555 1_555
C29_12 C41_12 1_555 1_555
C30_12 C42_12 1_555 1_555
C31_12 H22_12 1_555 1_555
C32_12 H23_12 1_555 1_555
C33_12 C31_12 1_555 1_555
C34_12 C32_12 1_555 1_555
H24_12 C33_12 1_555 1_555
H25_12 C34_12 1_555 1_555
C35_12 C33_12 1_555 1_555
C36_12 C34_12 1_555 1_555
C37_12 C35_12 1_555 1_555
C38_12 C36_12 1_555 1_555
H26_12 C37_12 1_555 1_555
H27_12 C38_12 1_555 1_555
C39_12 C37_12 1_555 1_555
C40_12 C38_12 1_555 1_555
H28_12 C39_12 1_555 1_555
H29_12 C40_12 1_555 1_555
C41_12 C31_12 1_555 1_555
C42_12 C32_12 1_555 1_555
C43_12 C35_12 1_555 1_555
C44_12 C36_12 1_555 1_555
C45_12 H30_12 1_555 1_555
C46_12 H31_12 1_555 1_555
C47_12 C43_12 1_555 1_555
C48_12 C44_12 1_555 1_555
H32_12 C47_12 1_555 1_555
H33_12 C48_12 1_555 1_555
C49_12 C53_12 1_555 1_555
C50_12 C54_12 1_555 1_555
C51_12 C71_12 1_555 1_555
C52_12 C72_12 1_555 1_555
C53_12 C45_12 1_555 1_555
C54_12 C46_12 1_555 1_555
C55_12 N4_12 1_555 1_555
C56_12 N5_12 1_555 1_555
C57_12 C43_12 1_555 1_555
C58_12 C44_12 1_555 1_555
C59_12 H34_12 1_555 1_555
C60_12 H35_12 1_555 1_555
H36_10 C59_12 1_555 1_555
H37_12 C60_12 1_555 1_555
H38_12 C59_12 1_555 1_555
H39_12 C60_12 1_555 1_555
C61_12 H40_12 1_555 1_555
C62_12 H41_12 1_555 1_555
H42_12 C61_12 1_555 1_555
H43_12 C62_12 1_555 1_555
H44_12 C61_12 1_555 1_555
H45_12 C62_12 1_555 1_555
C63_12 C53_12 1_555 1_555
C64_12 C54_12 1_555 1_555
C65_12 H46_12 1_555 1_555
C66_12 H47_12 1_555 1_555
C67_12 C63_12 1_555 1_555
C68_12 C64_12 1_555 1_555
H48_12 C67_12 1_555 1_555
H49_12 C68_12 1_555 1_555
C69_12 C67_12 1_555 1_555
C70_12 C68_12 1_555 1_555
H50_12 C69_12 1_555 1_555
H51_12 C70_12 1_555 1_555
C71_12 C65_12 1_555 1_555
C72_12 C66_12 1_555 1_555
C73_12 C63_12 1_555 1_555
C74_12 C64_12 1_555 1_555
H52_12 C73_12 1_555 1_555
H53_12 C74_12 1_555 1_555
I3_12 Pd2_10 1_555 1_555
I4_12 Pd3_12 1_555 1_555
I5_10 Pd2_10 1_555 1_555
N4_12 C49_12 1_555 1_555
N5_12 C50_12 1_555 1_555
N6_12 C55_12 1_555 1_555
N7_12 C56_12 1_555 1_555
N8_10 C75_10 1_555 1_555
C75_10 H54_10 1_555 1_555
C77_10 C75_10 1_555 1_555
H56_10 C77_10 1_555 1_555
C79_10 C77_10 1_555 1_555
H58_10 C79_10 1_555 1_555
C81_10 C79_10 1_555 1_555
H60_10 C81_10 1_555 1_555
C83_10 N8_10 1_555 1_555
H62_10 C83_10 1_555 1_555
O6_12 Zn1_20 1_555 1_555
O7_12 Zn1_20 1_555 1_555
O8_12 C29_12 1_555 1_555
O9_12 C30_12 1_555 1_555
O10_6 C51_12 1_555 1_555
O12_6 C52_12 1_555 1_555
O16_6 C51_12 1_555 1_555
O15_6 C52_12 1_555 1_555
Pd2_10 C55_12 1_555 1_555
Pd3_12 C56_12 1_555 1_555
Zn8_4 O1_20 1_555 1_555
Zn6_4 O1_20 1_555 1_555
C6_12 C7_12 1_555 1_555
C9_12 C10_12 1_555 1_555
C11_12 C15_12 1_555 1_555
C15_12 N2_12 1_555 1_555
C16_12 N2_12 1_555 1_555
C17_12 N1_12 1_555 1_555
C19_12 C23_12 1_555 1_555
C21_12 C22_12 1_555 1_555
N3_12 Pd1_12 1_555 1_555
O3_12 Zn7_4 1_555 1_555
C29_12 O6_12 1_555 1_555
C30_12 O7_12 1_555 1_555
C39_12 C41_12 1_555 1_555
C40_12 C42_12 1_555 1_555
C45_12 C47_12 1_555 1_555
C46_12 C48_12 1_555 1_555
C49_12 C57_12 1_555 1_555
C50_12 C58_12 1_555 1_555
C57_12 N6_12 1_555 1_555
C58_12 N7_12 1_555 1_555
C59_12 N6_12 1_555 1_555
C60_12 N7_12 1_555 1_555
C61_12 N4_12 1_555 1_555
C62_12 N5_12 1_555 1_555
C65_12 C73_12 1_555 1_555
C66_12 C74_12 1_555 1_555
C69_12 C71_12 1_555 1_555
C70_12 C72_12 1_555 1_555
N8_10 Pd2_10 1_555 1_555
N9_12 Pd3_12 1_555 1_555
C81_10 C83_10 1_555 1_555
O8_12 Zn8_4 1_555 1_555
O9_12 Zn6_4 1_555 1_555
C14_12 H64_12 1_555 1_555
C56_12 H65_12 1_555 1_555
C55_12 H66_12 1_555 1_555
C25_12 C24_12 1_555 1_555
H18_12 C25_12 1_555 1_555
C26_12 C25_12 1_555 1_555
H19_12 C26_12 1_555 1_555
C27_12 C26_12 1_555 1_555
H20_12 C27_12 1_555 1_555
C27_12 C28_12 1_555 1_555
I5_11 Pd2_11 1_555 1_555
N8_11 C75_11 1_555 1_555
C75_11 H54_11 1_555 1_555
C77_11 C75_11 1_555 1_555
H56_11 C77_11 1_555 1_555
C79_11 C77_11 1_555 1_555
H58_11 C79_11 1_555 1_555
C81_11 C79_11 1_555 1_555
H60_11 C81_11 1_555 1_555
C83_11 N8_11 1_555 1_555
H62_11 C83_11 1_555 1_555
N8_11 Pd2_11 1_555 1_555
C81_11 C83_11 1_555 1_555
I5_12 Pd2_12 1_555 1_555
N8_12 C75_12 1_555 1_555
C75_12 H54_12 1_555 1_555
C77_12 C75_12 1_555 1_555
H56_12 C77_12 1_555 1_555
C79_12 C77_12 1_555 1_555
H58_12 C79_12 1_555 1_555
C81_12 C79_12 1_555 1_555
H60_12 C81_12 1_555 1_555
C83_12 N8_12 1_555 1_555
H62_12 C83_12 1_555 1_555
N8_12 Pd2_12 1_555 1_555
C81_12 C83_12 1_555 1_555

#END
