
###############################################################################
#
# This file contains modified crystal structure data generated from the
# MOF subset of the Cambridge Structural Database (CSD) v543 
# hosted by the Cambridge Crystallographic Data Centre (CCDC).
#
# This work is licensed under the Creative Commons
# Attribution-NonCommercial-ShareAlike 4.0 International License.
# To view a copy of this license, visit
# http://creativecommons.org/licenses/by-nc-sa/4.0/
# or send a letter to
# Creative Commons, PO Box 1866, Mountain View, CA 94042, USA.
#
# CIF created using the CSD Python API on 29 September 2022
# The structure has been converted into the P1 space group
# The structure has a 3D framework
# The original CSD entry RUVBUH is in the orthorhombic crystal system
# The framework has been calculated to contain at least 10.0% void space
# The void calculation uses a probe of radius 1.32A, grid spacing 0.4
#
###############################################################################

data_RUVBUH
_chemical_formula_moiety         '(C144 H96 N48 O32 Zn8)n'
_symmetry_cell_setting           triclinic
_symmetry_space_group_name_H-M   'P 1'
_symmetry_Int_Tables_number      1
_space_group_name_Hall           'P 1'
loop_
_symmetry_equiv_pos_site_id
_symmetry_equiv_pos_as_xyz
1 x,y,z
_cell_length_a                   20.0621(18)
_cell_length_b                   15.5930(14)
_cell_length_c                   17.2349(15)
_cell_angle_alpha                90
_cell_angle_beta                 90
_cell_angle_gamma                90
_cell_volume                     5391.56
loop_
_atom_site_label
_atom_site_type_symbol
_atom_site_fract_x
_atom_site_fract_y
_atom_site_fract_z
Zn1 Zn 0.288681(13) 0.022949(17) 0.005930(15)
N1 N 0.37903(9) 0.07352(13) 0.03332(12)
N2 N 0.42489(11) 0.02179(15) 0.07067(15)
N3 N 0.47141(9) 0.14512(14) 0.04250(12)
C1 C 0.40783(12) 0.14605(18) 0.01731(15)
C2 C 0.47897(13) 0.0668(2) 0.07508(18)
H2 H 0.5182 0.0476 0.0979
C3 C 0.52162(12) 0.21106(17) 0.03566(15)
C4 C 0.50553(13) 0.29475(18) 0.0499(2)
H3 H 0.4621 0.3098 0.0633
C5 C 0.55461(14) 0.3569(2) 0.0444(2)
H4 H 0.5441 0.4141 0.0538
C6 C 0.61904(13) 0.33452(17) 0.02491(16)
C7 C 0.63403(13) 0.24952(19) 0.01032(16)
C8 C 0.58516(13) 0.18708(18) 0.01552(16)
H6 H 0.5952 0.1299 0.0055
C9 C 0.67249(14) 0.4027(2) 0.02050(18)
O1 O 0.65832(12) 0.47763(15) 0.03259(19)
O2 O 0.73053(9) 0.37746(13) 0.00289(10)
H1 H 0.3875 0.1919 0.9922
H5 H 0.6773 0.2341 0.9969
Zn3 Zn 0.788681(13) 0.477051(17) 0.994070(15)
O5 O 0.23053(9) 0.12254(13) 0.99711(10)
N4 N 0.69259(10) 0.96488(13) 0.59858(12)
N5 N 0.63990(11) 0.98051(14) 0.64731(12)
N6 N 0.69595(10) 0.86869(13) 0.68912(12)
C10 C 0.72510(12) 0.89822(17) 0.62447(15)
H7 H 0.7629 0.8747 0.6015
C11 C 0.64375(14) 0.92252(18) 0.70129(15)
H8 H 0.6145 0.9184 0.7430
C12 C 0.71479(12) 0.79425(16) 0.73365(14)
C13 C 0.70992(13) 0.79737(18) 0.81386(15)
H9 H 0.6961 0.8472 0.8388
C14 C 0.72603(13) 0.72497(17) 0.85594(15)
H10 H 0.7230 0.7261 0.9098
C15 C 0.74663(13) 0.65071(16) 0.81901(14)
C16 C 0.75149(16) 0.64994(18) 0.73943(15)
H11 H 0.7658 0.6004 0.7144
C17 C 0.73549(15) 0.72155(18) 0.69602(15)
H12 H 0.7387 0.7204 0.6422
C18 C 0.76404(13) 0.57123(17) 0.86561(16)
O3 O 0.77054(9) 0.58204(12) 0.93795(10)
O4 O 0.77115(14) 0.50232(14) 0.83307(13)
O6 O 0.72946(9) 0.91796(12) 0.43795(10)
H5_2 H 0.1773 0.2659 0.0031
H2_2 H 0.0182 0.4524 0.9021
C3_2 C 0.02162(12) 0.28894(17) 0.96434(15)
C4_2 C 0.00553(13) 0.20525(18) 0.9501(2)
C5_2 C 0.05461(14) 0.1431(2) 0.9556(2)
H4_2 H 0.0441 0.0859 0.9462
C6_2 C 0.11904(13) 0.16548(17) 0.97509(16)
C7_2 C 0.13403(13) 0.25048(19) 0.98968(16)
C8_2 C 0.08516(13) 0.31292(18) 0.98448(16)
H6_2 H 0.0952 0.3701 0.9945
C9_2 C 0.17249(14) 0.0973(2) 0.97950(18)
O1_2 O 0.15832(12) 0.02237(15) 0.96741(19)
N4_2 N 0.80741(10) 0.53512(13) 0.09858(12)
N5_2 N 0.86010(11) 0.51949(14) 0.14731(12)
N6_2 N 0.80405(10) 0.63131(13) 0.18912(12)
H1_2 H 0.8875 0.3081 0.0078
C10_2 C 0.77490(12) 0.60178(17) 0.12447(15)
H7_2 H 0.7371 0.6253 0.1015
C11_2 C 0.85625(14) 0.57748(18) 0.20129(15)
H8_2 H 0.8855 0.5816 0.2430
C12_2 C 0.78521(12) 0.70575(16) 0.23365(14)
C13_2 C 0.79008(13) 0.70263(18) 0.31386(15)
H9_2 H 0.8039 0.6528 0.3388
C14_2 C 0.77397(13) 0.77503(17) 0.35594(15)
H10_2 H 0.7770 0.7739 0.4098
C15_2 C 0.75337(13) 0.84929(16) 0.31901(14)
C16_2 C 0.74851(16) 0.85006(18) 0.23943(15)
H11_2 H 0.7342 0.8996 0.2144
C17_2 C 0.76451(15) 0.77845(18) 0.19602(15)
H12_2 H 0.7613 0.7796 0.1422
C18_2 C 0.73596(13) 0.92877(17) 0.36561(16)
O4_2 O 0.72885(14) 0.99768(14) 0.33307(13)
N1_2 N 0.87903(9) 0.42648(13) 0.96668(12)
N2_2 N 0.92489(11) 0.47821(15) 0.92933(15)
N3_2 N 0.97141(9) 0.35488(14) 0.95750(12)
C1_2 C 0.90783(12) 0.35395(18) 0.98269(15)
C2_2 C 0.97897(13) 0.4332(2) 0.92492(18)
H3_2 H 0.9621 0.1902 0.9367
O6_2 O 0.27054(9) 0.91796(12) 0.06205(10)
N4_3 N 0.30741(10) 0.96488(13) 0.90142(12)
N5_3 N 0.36010(11) 0.98051(14) 0.85269(12)
N6_3 N 0.30405(10) 0.86869(13) 0.81088(12)
C10_3 C 0.27490(12) 0.89822(17) 0.87553(15)
H7_3 H 0.2371 0.8747 0.8985
C11_3 C 0.35625(14) 0.92252(18) 0.79871(15)
H8_3 H 0.3855 0.9184 0.7570
C12_3 C 0.28521(12) 0.79425(16) 0.76635(14)
C13_3 C 0.29008(13) 0.79737(18) 0.68614(15)
H9_3 H 0.3039 0.8472 0.6612
C14_3 C 0.27397(13) 0.72497(17) 0.64406(15)
H10_3 H 0.2770 0.7261 0.5902
C15_3 C 0.25337(13) 0.65071(16) 0.68099(14)
C16_3 C 0.24851(16) 0.64994(18) 0.76057(15)
H11_3 H 0.2342 0.6004 0.7856
C17_3 C 0.26451(15) 0.72155(18) 0.80398(15)
H12_3 H 0.2613 0.7204 0.8578
C18_3 C 0.23596(13) 0.57123(17) 0.63439(16)
O3_2 O 0.22946(9) 0.58204(12) 0.56205(10)
O4_3 O 0.22885(14) 0.50232(14) 0.66693(13)
Zn2 Zn 0.211319(13) 0.477051(17) 0.505930(15)
N1_3 N 0.12097(9) 0.42648(13) 0.53332(12)
N2_3 N 0.07511(11) 0.47821(15) 0.57067(15)
N3_3 N 0.02859(9) 0.35488(14) 0.54250(12)
N4_4 N 0.19259(10) 0.53512(13) 0.40142(12)
N5_4 N 0.13990(11) 0.51949(14) 0.35269(12)
N6_4 N 0.19595(10) 0.63131(13) 0.31088(12)
C1_3 C 0.09217(12) 0.35395(18) 0.51731(15)
H1_3 H 0.1125 0.3081 0.4922
C2_3 C 0.02103(13) 0.4332(2) 0.57508(18)
H3_3 H 0.0379 0.1902 0.5633
C10_4 C 0.22510(12) 0.60178(17) 0.37553(15)
H7_4 H 0.2629 0.6253 0.3985
C11_4 C 0.14375(14) 0.57748(18) 0.29871(15)
H8_4 H 0.1145 0.5816 0.2570
C12_4 C 0.21479(12) 0.70575(16) 0.26635(14)
C13_4 C 0.20992(13) 0.70263(18) 0.18614(15)
H9_4 H 0.1961 0.6528 0.1612
C14_4 C 0.22603(13) 0.77503(17) 0.14406(15)
H10_4 H 0.2230 0.7739 0.0902
C15_4 C 0.24663(13) 0.84929(16) 0.18099(14)
C16_4 C 0.25149(16) 0.85006(18) 0.26057(15)
H11_4 H 0.2658 0.8996 0.2856
C17_4 C 0.23549(15) 0.77845(18) 0.30398(15)
H12_4 H 0.2387 0.7796 0.3578
C18_4 C 0.26404(13) 0.92877(17) 0.13439(16)
O4_4 O 0.27115(14) 0.99768(14) 0.16693(13)
O5_2 O 0.26947(9) 0.37746(13) 0.49711(10)
H2_3 H 0.9818 0.4524 0.5979
C3_3 C 0.97838(12) 0.28894(17) 0.53566(15)
C4_3 C 0.99447(13) 0.20525(18) 0.5499(2)
C5_3 C 0.94539(14) 0.1431(2) 0.5444(2)
H4_3 H 0.9559 0.0859 0.5538
C6_3 C 0.88096(13) 0.16548(17) 0.52491(16)
C7_3 C 0.86597(13) 0.25048(19) 0.51032(16)
H5_3 H 0.8227 0.2659 0.4969
C8_3 C 0.91484(13) 0.31292(18) 0.51552(16)
H6_3 H 0.9048 0.3701 0.5055
C9_3 C 0.82751(14) 0.0973(2) 0.52050(18)
O1_3 O 0.84168(12) 0.02237(15) 0.53259(19)
O2_2 O 0.76947(9) 0.12254(13) 0.50289(10)
Zn3_2 Zn 0.711319(13) 0.022949(17) 0.494070(15)
N1_4 N 0.62097(9) 0.07352(13) 0.46668(12)
N2_4 N 0.57511(11) 0.02179(15) 0.42933(15)
N3_4 N 0.52859(9) 0.14512(14) 0.45750(12)
C1_4 C 0.59217(12) 0.14605(18) 0.48269(15)
H1_4 H 0.6125 0.1919 0.5078
C2_4 C 0.52103(13) 0.0668(2) 0.42492(18)
H2_4 H 0.4818 0.0476 0.4021
C3_4 C 0.47838(12) 0.21106(17) 0.46434(15)
C4_4 C 0.49447(13) 0.29475(18) 0.4501(2)
H3_4 H 0.5379 0.3098 0.4367
C5_4 C 0.44539(14) 0.3569(2) 0.4556(2)
H4_4 H 0.4559 0.4141 0.4462
C6_4 C 0.38096(13) 0.33452(17) 0.47509(16)
C7_4 C 0.36597(13) 0.24952(19) 0.48968(16)
H5_4 H 0.3227 0.2341 0.5031
C8_4 C 0.41484(13) 0.18708(18) 0.48448(16)
H6_4 H 0.4048 0.1299 0.4945
C9_4 C 0.32751(14) 0.4027(2) 0.47950(18)
O1_4 O 0.34168(12) 0.47763(15) 0.46741(19)
N4_5 N 0.69259(10) 0.03512(13) 0.09858(12)
N5_5 N 0.63990(11) 0.01949(14) 0.14731(12)
N6_5 N 0.69595(10) 0.13131(13) 0.18912(12)
C10_5 C 0.72510(12) 0.10178(17) 0.12447(15)
H7_5 H 0.7629 0.1253 0.1015
C11_5 C 0.64375(14) 0.07748(18) 0.20129(15)
H8_5 H 0.6145 0.0816 0.2430
C12_5 C 0.71479(12) 0.20575(16) 0.23365(14)
C13_5 C 0.70992(13) 0.20263(18) 0.31386(15)
H9_5 H 0.6961 0.1528 0.3388
C14_5 C 0.72603(13) 0.27503(17) 0.35594(15)
H10_5 H 0.7230 0.2739 0.4098
C15_5 C 0.74663(13) 0.34929(16) 0.31901(14)
C16_5 C 0.75149(16) 0.35006(18) 0.23943(15)
H11_5 H 0.7658 0.3996 0.2144
C17_5 C 0.73549(15) 0.27845(18) 0.19602(15)
H12_5 H 0.7387 0.2796 0.1422
C18_5 C 0.76404(13) 0.42877(17) 0.36561(16)
O3_3 O 0.77054(9) 0.41796(12) 0.43795(10)
O4_5 O 0.77115(14) 0.49768(14) 0.33307(13)
Zn2_2 Zn 0.788681(13) 0.522949(17) 0.494070(15)
O6_3 O 0.72946(9) 0.08204(12) 0.93795(10)
H2_5 H 0.0182 0.5476 0.4021
C3_5 C 0.02162(12) 0.71106(17) 0.46434(15)
C4_5 C 0.00553(13) 0.79475(18) 0.4501(2)
C5_5 C 0.05461(14) 0.8569(2) 0.4556(2)
H4_5 H 0.0441 0.9141 0.4462
C6_5 C 0.11904(13) 0.83452(17) 0.47509(16)
C7_5 C 0.13403(13) 0.74952(19) 0.48968(16)
H5_5 H 0.1773 0.7341 0.5031
C8_5 C 0.08516(13) 0.68708(18) 0.48448(16)
H6_5 H 0.0952 0.6299 0.4945
C9_5 C 0.17249(14) 0.9027(2) 0.47950(18)
O1_5 O 0.15832(12) 0.97763(15) 0.46741(19)
O2_3 O 0.23053(9) 0.87746(13) 0.49711(10)
Zn3_3 Zn 0.288681(13) 0.977051(17) 0.505930(15)
N1_5 N 0.87903(9) 0.57352(13) 0.46668(12)
N2_5 N 0.92489(11) 0.52179(15) 0.42933(15)
N3_5 N 0.97141(9) 0.64512(14) 0.45750(12)
N4_6 N 0.80741(10) 0.46488(13) 0.59858(12)
N5_6 N 0.86010(11) 0.48051(14) 0.64731(12)
N6_6 N 0.80405(10) 0.36869(13) 0.68912(12)
C1_5 C 0.90783(12) 0.64605(18) 0.48269(15)
H1_5 H 0.8875 0.6919 0.5078
C2_5 C 0.97897(13) 0.5668(2) 0.42492(18)
H3_5 H 0.9621 0.8098 0.4367
C10_6 C 0.77490(12) 0.39822(17) 0.62447(15)
H7_6 H 0.7371 0.3747 0.6015
C11_6 C 0.85625(14) 0.42252(18) 0.70129(15)
H8_6 H 0.8855 0.4184 0.7430
C12_6 C 0.78521(12) 0.29425(16) 0.73365(14)
C13_6 C 0.79008(13) 0.29737(18) 0.81386(15)
H9_6 H 0.8039 0.3472 0.8388
C14_6 C 0.77397(13) 0.22497(17) 0.85594(15)
H10_6 H 0.7770 0.2261 0.9098
C15_6 C 0.75337(13) 0.15071(16) 0.81901(14)
C16_6 C 0.74851(16) 0.14994(18) 0.73943(15)
H11_6 H 0.7342 0.1004 0.7144
C17_6 C 0.76451(15) 0.22155(18) 0.69602(15)
H12_6 H 0.7613 0.2204 0.6422
C18_6 C 0.73596(13) 0.07123(17) 0.86561(16)
O4_6 O 0.72885(14) 0.00232(14) 0.83307(13)
O5_3 O 0.73053(9) 0.62254(13) 0.50289(10)
N1_6 N 0.37903(9) 0.92648(13) 0.53332(12)
N2_6 N 0.42489(11) 0.97821(15) 0.57067(15)
N3_6 N 0.47141(9) 0.85488(14) 0.54250(12)
C1_6 C 0.40783(12) 0.85395(18) 0.51731(15)
H1_6 H 0.3875 0.8081 0.4922
C2_6 C 0.47897(13) 0.9332(2) 0.57508(18)
H2_6 H 0.5182 0.9524 0.5979
C3_6 C 0.52162(12) 0.78894(17) 0.53566(15)
C4_6 C 0.50553(13) 0.70525(18) 0.5499(2)
H3_6 H 0.4621 0.6902 0.5633
C5_6 C 0.55461(14) 0.6431(2) 0.5444(2)
H4_6 H 0.5441 0.5859 0.5538
C6_6 C 0.61904(13) 0.66548(17) 0.52491(16)
C7_6 C 0.63403(13) 0.75048(19) 0.51032(16)
H5_6 H 0.6773 0.7659 0.4969
C8_6 C 0.58516(13) 0.81292(18) 0.51552(16)
H6_6 H 0.5952 0.8701 0.5055
C9_6 C 0.67249(14) 0.5973(2) 0.52050(18)
O1_6 O 0.65832(12) 0.52237(15) 0.53259(19)
H1_7 H 0.6125 0.8081 0.0078
H5_7 H 0.3227 0.7659 0.0031
Zn3_4 Zn 0.211319(13) 0.522949(17) 0.005930(15)
O5_4 O 0.76947(9) 0.87746(13) 0.00289(10)
Zn1_2 Zn 0.711319(13) 0.977051(17) 0.994070(15)
N1_7 N 0.62097(9) 0.92648(13) 0.96668(12)
N2_7 N 0.57511(11) 0.97821(15) 0.92933(15)
N3_7 N 0.52859(9) 0.85488(14) 0.95750(12)
C1_7 C 0.59217(12) 0.85395(18) 0.98269(15)
C2_7 C 0.52103(13) 0.9332(2) 0.92492(18)
H2_7 H 0.4818 0.9524 0.9021
C3_7 C 0.47838(12) 0.78894(17) 0.96434(15)
C4_7 C 0.49447(13) 0.70525(18) 0.9501(2)
H3_7 H 0.5379 0.6902 0.9367
C5_7 C 0.44539(14) 0.6431(2) 0.9556(2)
H4_7 H 0.4559 0.5859 0.9462
C6_7 C 0.38096(13) 0.66548(17) 0.97509(16)
C7_7 C 0.36597(13) 0.75048(19) 0.98968(16)
C8_7 C 0.41484(13) 0.81292(18) 0.98448(16)
H6_7 H 0.4048 0.8701 0.9945
C9_7 C 0.32751(14) 0.5973(2) 0.97950(18)
O1_7 O 0.34168(12) 0.52237(15) 0.96741(19)
O2_4 O 0.26947(9) 0.62254(13) 0.99711(10)
N4_7 N 0.30741(10) 0.03512(13) 0.40142(12)
N5_7 N 0.36010(11) 0.01949(14) 0.35269(12)
N6_7 N 0.30405(10) 0.13131(13) 0.31088(12)
C10_7 C 0.27490(12) 0.10178(17) 0.37553(15)
H7_7 H 0.2371 0.1253 0.3985
C11_7 C 0.35625(14) 0.07748(18) 0.29871(15)
H8_7 H 0.3855 0.0816 0.2570
C12_7 C 0.28521(12) 0.20575(16) 0.26635(14)
C13_7 C 0.29008(13) 0.20263(18) 0.18614(15)
H9_7 H 0.3039 0.1528 0.1612
C14_7 C 0.27397(13) 0.27503(17) 0.14406(15)
H10_7 H 0.2770 0.2739 0.0902
C15_7 C 0.25337(13) 0.34929(16) 0.18099(14)
C16_7 C 0.24851(16) 0.35006(18) 0.26057(15)
H11_7 H 0.2342 0.3996 0.2856
C17_7 C 0.26451(15) 0.27845(18) 0.30398(15)
H12_7 H 0.2613 0.2796 0.3578
C18_7 C 0.23596(13) 0.42877(17) 0.13439(16)
O3_4 O 0.22946(9) 0.41796(12) 0.06205(10)
O4_7 O 0.22885(14) 0.49768(14) 0.16693(13)
O6_4 O 0.27054(9) 0.08204(12) 0.56205(10)
N1_8 N 0.12097(9) 0.57352(13) 0.03332(12)
N2_8 N 0.07511(11) 0.52179(15) 0.07067(15)
N3_8 N 0.02859(9) 0.64512(14) 0.04250(12)
C1_8 C 0.09217(12) 0.64605(18) 0.01731(15)
C2_8 C 0.02103(13) 0.5668(2) 0.07508(18)
H3_8 H 0.0379 0.8098 0.0633
N4_8 N 0.19259(10) 0.46488(13) 0.90142(12)
N5_8 N 0.13990(11) 0.48051(14) 0.85269(12)
N6_8 N 0.19595(10) 0.36869(13) 0.81088(12)
H1_8 H 0.1125 0.6919 0.9922
C10_8 C 0.22510(12) 0.39822(17) 0.87553(15)
H7_8 H 0.2629 0.3747 0.8985
C11_8 C 0.14375(14) 0.42252(18) 0.79871(15)
H8_8 H 0.1145 0.4184 0.7570
C12_8 C 0.21479(12) 0.29425(16) 0.76635(14)
C13_8 C 0.20992(13) 0.29737(18) 0.68614(15)
H9_8 H 0.1961 0.3472 0.6612
C14_8 C 0.22603(13) 0.22497(17) 0.64406(15)
H10_8 H 0.2230 0.2261 0.5902
C15_8 C 0.24663(13) 0.15071(16) 0.68099(14)
C16_8 C 0.25149(16) 0.14994(18) 0.76057(15)
H11_8 H 0.2658 0.1004 0.7856
C17_8 C 0.23549(15) 0.22155(18) 0.80398(15)
H12_8 H 0.2387 0.2204 0.8578
C18_8 C 0.26404(13) 0.07123(17) 0.63439(16)
O4_8 O 0.27115(14) 0.00232(14) 0.66693(13)
H2_8 H 0.9818 0.5476 0.0979
C3_8 C 0.97838(12) 0.71106(17) 0.03566(15)
C4_8 C 0.99447(13) 0.79475(18) 0.0499(2)
C5_8 C 0.94539(14) 0.8569(2) 0.0444(2)
H4_8 H 0.9559 0.9141 0.0538
C6_8 C 0.88096(13) 0.83452(17) 0.02491(16)
C7_8 C 0.86597(13) 0.74952(19) 0.01032(16)
C8_8 C 0.91484(13) 0.68708(18) 0.01552(16)
H6_8 H 0.9048 0.6299 0.0055
C9_8 C 0.82751(14) 0.9027(2) 0.02050(18)
O1_8 O 0.84168(12) 0.97763(15) 0.03259(19)
H5_8 H 0.8227 0.7341 0.9969
loop_
_geom_bond_atom_site_label_1
_geom_bond_atom_site_label_2
_geom_bond_site_symmetry_1
_geom_bond_site_symmetry_2
Zn1 N1 1_555 1_555
N1 N2 1_555 1_555
N2 C2 1_555 1_555
N3 C1 1_555 1_555
C1 N1 1_555 1_555
C2 N3 1_555 1_555
H2 C2 1_555 1_555
C3 N3 1_555 1_555
C4 C3 1_555 1_555
H3 C4 1_555 1_555
C5 C4 1_555 1_555
H4 C5 1_555 1_555
C6 C5 1_555 1_555
C7 C6 1_555 1_555
C8 C3 1_555 1_555
H6 C8 1_555 1_555
C9 C6 1_555 1_555
O1 C9 1_555 1_555
O2 C9 1_555 1_555
C7 C8 1_555 1_555
N5 N4 1_555 1_555
N6 C10 1_555 1_555
C10 N4 1_555 1_555
H7 C10 1_555 1_555
C11 N5 1_555 1_555
H8 C11 1_555 1_555
C12 N6 1_555 1_555
C13 C12 1_555 1_555
H9 C13 1_555 1_555
C14 C13 1_555 1_555
H10 C14 1_555 1_555
C15 C14 1_555 1_555
C16 C15 1_555 1_555
H11 C16 1_555 1_555
C17 C12 1_555 1_555
H12 C17 1_555 1_555
C18 C15 1_555 1_555
O3 C18 1_555 1_555
O4 C18 1_555 1_555
Zn3 O3 1_555 1_555
N6 C11 1_555 1_555
C16 C17 1_555 1_555
C4_2 C3_2 1_555 1_555
C5_2 C4_2 1_555 1_555
H4_2 C5_2 1_555 1_555
C6_2 C5_2 1_555 1_555
C7_2 C6_2 1_555 1_555
C8_2 C3_2 1_555 1_555
H6_2 C8_2 1_555 1_555
C9_2 C6_2 1_555 1_555
O1_2 C9_2 1_555 1_555
O5 C9_2 1_555 1_555
C7_2 C8_2 1_555 1_555
N5_2 N4_2 1_555 1_555
N6_2 C10_2 1_555 1_555
C10_2 N4_2 1_555 1_555
H7_2 C10_2 1_555 1_555
C11_2 N5_2 1_555 1_555
H8_2 C11_2 1_555 1_555
C12_2 N6_2 1_555 1_555
C13_2 C12_2 1_555 1_555
H9_2 C13_2 1_555 1_555
C14_2 C13_2 1_555 1_555
H10_2 C14_2 1_555 1_555
C15_2 C14_2 1_555 1_555
C16_2 C15_2 1_555 1_555
H11_2 C16_2 1_555 1_555
C17_2 C12_2 1_555 1_555
H12_2 C17_2 1_555 1_555
C18_2 C15_2 1_555 1_555
O6 C18_2 1_555 1_555
O4_2 C18_2 1_555 1_555
N6_2 C11_2 1_555 1_555
C16_2 C17_2 1_555 1_555
Zn3 N1_2 1_555 1_555
N1_2 N2_2 1_555 1_555
N2_2 C2_2 1_555 1_555
N3_2 C1_2 1_555 1_555
C1_2 N1_2 1_555 1_555
C2_2 N3_2 1_555 1_555
N5_3 N4_3 1_555 1_555
N6_3 C10_3 1_555 1_555
C10_3 N4_3 1_555 1_555
H7_3 C10_3 1_555 1_555
C11_3 N5_3 1_555 1_555
H8_3 C11_3 1_555 1_555
C12_3 N6_3 1_555 1_555
C13_3 C12_3 1_555 1_555
H9_3 C13_3 1_555 1_555
C14_3 C13_3 1_555 1_555
H10_3 C14_3 1_555 1_555
C15_3 C14_3 1_555 1_555
C16_3 C15_3 1_555 1_555
H11_3 C16_3 1_555 1_555
C17_3 C12_3 1_555 1_555
H12_3 C17_3 1_555 1_555
C18_3 C15_3 1_555 1_555
O3_2 C18_3 1_555 1_555
O4_3 C18_3 1_555 1_555
Zn2 O3_2 1_555 1_555
N6_3 C11_3 1_555 1_555
C16_3 C17_3 1_555 1_555
Zn2 N1_3 1_555 1_555
N1_3 N2_3 1_555 1_555
N2_3 C2_3 1_555 1_555
N3_3 C1_3 1_555 1_555
N4_4 Zn2 1_555 1_555
N5_4 N4_4 1_555 1_555
N6_4 C10_4 1_555 1_555
C1_3 N1_3 1_555 1_555
H1_3 C1_3 1_555 1_555
C2_3 N3_3 1_555 1_555
C10_4 N4_4 1_555 1_555
H7_4 C10_4 1_555 1_555
C11_4 N5_4 1_555 1_555
H8_4 C11_4 1_555 1_555
C12_4 N6_4 1_555 1_555
C13_4 C12_4 1_555 1_555
H9_4 C13_4 1_555 1_555
C14_4 C13_4 1_555 1_555
H10_4 C14_4 1_555 1_555
C15_4 C14_4 1_555 1_555
C16_4 C15_4 1_555 1_555
H11_4 C16_4 1_555 1_555
C17_4 C12_4 1_555 1_555
H12_4 C17_4 1_555 1_555
C18_4 C15_4 1_555 1_555
O6_2 C18_4 1_555 1_555
O4_4 C18_4 1_555 1_555
O5_2 Zn2 1_555 1_555
N6_4 C11_4 1_555 1_555
C16_4 C17_4 1_555 1_555
C4_3 C3_3 1_555 1_555
C5_3 C4_3 1_555 1_555
H4_3 C5_3 1_555 1_555
C6_3 C5_3 1_555 1_555
C7_3 C6_3 1_555 1_555
H5_3 C7_3 1_555 1_555
C8_3 C3_3 1_555 1_555
H6_3 C8_3 1_555 1_555
C9_3 C6_3 1_555 1_555
O1_3 C9_3 1_555 1_555
O2_2 C9_3 1_555 1_555
Zn3_2 O2_2 1_555 1_555
C7_3 C8_3 1_555 1_555
Zn3_2 N1_4 1_555 1_555
N1_4 N2_4 1_555 1_555
N2_4 C2_4 1_555 1_555
N3_4 C1_4 1_555 1_555
C1_4 N1_4 1_555 1_555
H1_4 C1_4 1_555 1_555
C2_4 N3_4 1_555 1_555
H2_4 C2_4 1_555 1_555
C3_4 N3_4 1_555 1_555
C4_4 C3_4 1_555 1_555
H3_4 C4_4 1_555 1_555
C5_4 C4_4 1_555 1_555
H4_4 C5_4 1_555 1_555
C6_4 C5_4 1_555 1_555
C7_4 C6_4 1_555 1_555
H5_4 C7_4 1_555 1_555
C8_4 C3_4 1_555 1_555
H6_4 C8_4 1_555 1_555
C9_4 C6_4 1_555 1_555
O1_4 C9_4 1_555 1_555
O5_2 C9_4 1_555 1_555
C7_4 C8_4 1_555 1_555
N5_5 N4_5 1_555 1_555
N6_5 C10_5 1_555 1_555
C10_5 N4_5 1_555 1_555
H7_5 C10_5 1_555 1_555
C11_5 N5_5 1_555 1_555
H8_5 C11_5 1_555 1_555
C12_5 N6_5 1_555 1_555
C13_5 C12_5 1_555 1_555
H9_5 C13_5 1_555 1_555
C14_5 C13_5 1_555 1_555
H10_5 C14_5 1_555 1_555
C15_5 C14_5 1_555 1_555
C16_5 C15_5 1_555 1_555
H11_5 C16_5 1_555 1_555
C17_5 C12_5 1_555 1_555
H12_5 C17_5 1_555 1_555
C18_5 C15_5 1_555 1_555
O3_3 C18_5 1_555 1_555
O4_5 C18_5 1_555 1_555
Zn2_2 O3_3 1_555 1_555
N6_5 C11_5 1_555 1_555
C16_5 C17_5 1_555 1_555
C4_5 C3_5 1_555 1_555
C5_5 C4_5 1_555 1_555
H4_5 C5_5 1_555 1_555
C6_5 C5_5 1_555 1_555
C7_5 C6_5 1_555 1_555
H5_5 C7_5 1_555 1_555
C8_5 C3_5 1_555 1_555
H6_5 C8_5 1_555 1_555
C9_5 C6_5 1_555 1_555
O1_5 C9_5 1_555 1_555
O2_3 C9_5 1_555 1_555
Zn3_3 O2_3 1_555 1_555
C7_5 C8_5 1_555 1_555
Zn2_2 N1_5 1_555 1_555
N1_5 N2_5 1_555 1_555
N2_5 C2_5 1_555 1_555
N3_5 C1_5 1_555 1_555
N4_6 Zn2_2 1_555 1_555
N5_6 N4_6 1_555 1_555
N6_6 C10_6 1_555 1_555
C1_5 N1_5 1_555 1_555
H1_5 C1_5 1_555 1_555
C2_5 N3_5 1_555 1_555
C10_6 N4_6 1_555 1_555
H7_6 C10_6 1_555 1_555
C11_6 N5_6 1_555 1_555
H8_6 C11_6 1_555 1_555
C12_6 N6_6 1_555 1_555
C13_6 C12_6 1_555 1_555
H9_6 C13_6 1_555 1_555
C14_6 C13_6 1_555 1_555
H10_6 C14_6 1_555 1_555
C15_6 C14_6 1_555 1_555
C16_6 C15_6 1_555 1_555
H11_6 C16_6 1_555 1_555
C17_6 C12_6 1_555 1_555
H12_6 C17_6 1_555 1_555
C18_6 C15_6 1_555 1_555
O6_3 C18_6 1_555 1_555
O4_6 C18_6 1_555 1_555
O5_3 Zn2_2 1_555 1_555
N6_6 C11_6 1_555 1_555
C16_6 C17_6 1_555 1_555
Zn3_3 N1_6 1_555 1_555
N1_6 N2_6 1_555 1_555
N2_6 C2_6 1_555 1_555
N3_6 C1_6 1_555 1_555
C1_6 N1_6 1_555 1_555
H1_6 C1_6 1_555 1_555
C2_6 N3_6 1_555 1_555
H2_6 C2_6 1_555 1_555
C3_6 N3_6 1_555 1_555
C4_6 C3_6 1_555 1_555
H3_6 C4_6 1_555 1_555
C5_6 C4_6 1_555 1_555
H4_6 C5_6 1_555 1_555
C6_6 C5_6 1_555 1_555
C7_6 C6_6 1_555 1_555
H5_6 C7_6 1_555 1_555
C8_6 C3_6 1_555 1_555
H6_6 C8_6 1_555 1_555
C9_6 C6_6 1_555 1_555
O1_6 C9_6 1_555 1_555
O5_3 C9_6 1_555 1_555
C7_6 C8_6 1_555 1_555
Zn1_2 N1_7 1_555 1_555
N1_7 N2_7 1_555 1_555
N2_7 C2_7 1_555 1_555
N3_7 C1_7 1_555 1_555
C1_7 N1_7 1_555 1_555
C2_7 N3_7 1_555 1_555
H2_7 C2_7 1_555 1_555
C3_7 N3_7 1_555 1_555
C4_7 C3_7 1_555 1_555
H3_7 C4_7 1_555 1_555
C5_7 C4_7 1_555 1_555
H4_7 C5_7 1_555 1_555
C6_7 C5_7 1_555 1_555
C7_7 C6_7 1_555 1_555
C8_7 C3_7 1_555 1_555
H6_7 C8_7 1_555 1_555
C9_7 C6_7 1_555 1_555
O1_7 C9_7 1_555 1_555
O2_4 C9_7 1_555 1_555
C7_7 C8_7 1_555 1_555
N5_7 N4_7 1_555 1_555
N6_7 C10_7 1_555 1_555
C10_7 N4_7 1_555 1_555
H7_7 C10_7 1_555 1_555
C11_7 N5_7 1_555 1_555
H8_7 C11_7 1_555 1_555
C12_7 N6_7 1_555 1_555
C13_7 C12_7 1_555 1_555
H9_7 C13_7 1_555 1_555
C14_7 C13_7 1_555 1_555
H10_7 C14_7 1_555 1_555
C15_7 C14_7 1_555 1_555
C16_7 C15_7 1_555 1_555
H11_7 C16_7 1_555 1_555
C17_7 C12_7 1_555 1_555
H12_7 C17_7 1_555 1_555
C18_7 C15_7 1_555 1_555
O3_4 C18_7 1_555 1_555
O4_7 C18_7 1_555 1_555
Zn3_4 O3_4 1_555 1_555
N6_7 C11_7 1_555 1_555
C16_7 C17_7 1_555 1_555
Zn3_4 N1_8 1_555 1_555
N1_8 N2_8 1_555 1_555
N2_8 C2_8 1_555 1_555
N3_8 C1_8 1_555 1_555
C1_8 N1_8 1_555 1_555
C2_8 N3_8 1_555 1_555
N5_8 N4_8 1_555 1_555
N6_8 C10_8 1_555 1_555
C10_8 N4_8 1_555 1_555
H7_8 C10_8 1_555 1_555
C11_8 N5_8 1_555 1_555
H8_8 C11_8 1_555 1_555
C12_8 N6_8 1_555 1_555
C13_8 C12_8 1_555 1_555
H9_8 C13_8 1_555 1_555
C14_8 C13_8 1_555 1_555
H10_8 C14_8 1_555 1_555
C15_8 C14_8 1_555 1_555
C16_8 C15_8 1_555 1_555
H11_8 C16_8 1_555 1_555
C17_8 C12_8 1_555 1_555
H12_8 C17_8 1_555 1_555
C18_8 C15_8 1_555 1_555
O6_4 C18_8 1_555 1_555
O4_8 C18_8 1_555 1_555
N6_8 C11_8 1_555 1_555
C16_8 C17_8 1_555 1_555
C4_8 C3_8 1_555 1_555
C5_8 C4_8 1_555 1_555
H4_8 C5_8 1_555 1_555
C6_8 C5_8 1_555 1_555
C7_8 C6_8 1_555 1_555
C8_8 C3_8 1_555 1_555
H6_8 C8_8 1_555 1_555
C9_8 C6_8 1_555 1_555
O1_8 C9_8 1_555 1_555
O5_4 C9_8 1_555 1_555
C7_8 C8_8 1_555 1_555

#END
