
###############################################################################
#
# This file contains modified crystal structure data generated from the
# MOF subset of the Cambridge Structural Database (CSD) v543 
# hosted by the Cambridge Crystallographic Data Centre (CCDC).
#
# This work is licensed under the Creative Commons
# Attribution-NonCommercial-ShareAlike 4.0 International License.
# To view a copy of this license, visit
# http://creativecommons.org/licenses/by-nc-sa/4.0/
# or send a letter to
# Creative Commons, PO Box 1866, Mountain View, CA 94042, USA.
#
# CIF created using the CSD Python API on 29 September 2022
# The structure has been converted into the P1 space group
# The structure has a 3D framework
# The original CSD entry RUVKAV is in the rhombohedral crystal system
# The framework has been calculated to contain at least 10.0% void space
# The void calculation uses a probe of radius 1.32A, grid spacing 0.4
# H atom positions have been added when not included in the experimental data
# Generated hydrogen atom positions removed from atoms on special positions
#
###############################################################################

data_RUVKAV
_chemical_formula_moiety         '(C180 H126 Cu18 O90)n'
_symmetry_cell_setting           triclinic
_symmetry_space_group_name_H-M   'P 1'
_symmetry_Int_Tables_number      1
_space_group_name_Hall           'P 1'
loop_
_symmetry_equiv_pos_site_id
_symmetry_equiv_pos_as_xyz
1 x,y,z
_cell_length_a                   18.7762(5)
_cell_length_b                   18.7762(5)
_cell_length_c                   40.787(2)
_cell_angle_alpha                90
_cell_angle_beta                 90
_cell_angle_gamma                120
_cell_volume                     12452.8
loop_
_atom_site_label
_atom_site_type_symbol
_atom_site_fract_x
_atom_site_fract_y
_atom_site_fract_z
Cu1 Cu 0.28724(4) 0.143619(18) 0.139744(14)
O1 O 0.22262(17) 0.1839(2) 0.16256(7)
O2 O 0.30063(18) 0.2233(2) 0.20772(7)
O3 O 0.2207(4) 0.11037(19) 0.09478(13)
C1 C 0.1513(3) 0.3026(6) 0.2885(2)
C2 C 0.1607(3) 0.3214(7) 0.3167(2)
C3 C 0.1806(3) 0.2324(3) 0.20765(10)
C4 C 0.1089(2) 0.2179(4) 0.19183(13)
H1 H 0.0991 0.1982 0.1704
C5 C 0.1377(3) 0.2755(6) 0.25585(17)
C6 C 0.1952(3) 0.2613(4) 0.23997(11)
H2 H 0.2428 0.2710 0.2508
C7 C 0.2398(2) 0.2122(3) 0.19118(10)
Cu2 Cu 0.476954(44) 0.523048(18) 0.526923(14)
Cu3 Cu 0.37943(4) 0.189712(44) 0.193589(14)
Cu4 Cu 0.523048(18) 0.476954(44) 0.473077(14)
Cu5 Cu 0.04609(4) 0.523048(18) 0.526923(14)
O4 O 0.37205(26) 0.4828(2) 0.50411(7)
O5 O 0.11071(17) 0.4828(2) 0.50411(7)
O7 O 0.22262(17) 0.03872(26) 0.16256(7)
O8 O 0.5172(2) 0.62795(26) 0.50411(7)
O9 O 0.41066(27) 0.4434(2) 0.45895(7)
O10 O 0.03270(18) 0.4434(2) 0.45895(7)
O12 O 0.36604(18) 0.25600(27) 0.12561(7)
O13 O 0.36604(18) 0.1100(2) 0.12561(7)
O14 O 0.4434(2) 0.41066(27) 0.54105(7)
O15 O 0.58934(27) 0.5566(2) 0.54105(7)
O16 O 0.44366(44) 0.55630(19) 0.57189(13)
C8 C 0.1820(7) 0.3641(6) 0.3782(2)
C9 C 0.1726(8) 0.3453(7) 0.3500(2)
C10 C 0.0518(4) 0.2324(3) 0.20765(10)
C11 C 0.1527(3) 0.4343(3) 0.45902(10)
C12 C 0.2815(4) 0.4343(3) 0.45902(10)
C13 C 0.2244(2) 0.4488(4) 0.47484(13)
H3 H 0.2342 0.4685 0.4963
C14 C 0.1955(7) 0.3912(6) 0.41082(17)
C15 C 0.0661(5) 0.2613(4) 0.23997(11)
C16 C 0.1381(3) 0.4054(4) 0.42670(11)
C17 C 0.2672(5) 0.4054(4) 0.42670(11)
H4 H 0.3051 0.3957 0.4159
H5 H 0.0905 0.3957 0.4159
H6 H 0.0282 0.2710 0.2508
C18 C 0.3609(4) 0.4545(3) 0.47549(10)
C19 C 0.0935(2) 0.4545(3) 0.47549(10)
Cu6 Cu 0.95391(4) 0.476954(44) 0.473077(14)
Cu7 Cu 0.856379(44) 0.143619(18) 0.139744(14)
Cu8 Cu 0.810286(18) 0.189712(44) 0.193589(14)
O6 O 0.96128(26) 0.1839(2) 0.16256(7)
O11 O 0.92267(27) 0.2233(2) 0.20772(7)
C20 C 0.9724(4) 0.2122(3) 0.19118(10)
O1_2 O 0.8161(2) 0.03872(26) 0.16256(7)
O2_2 O 0.7767(2) 0.07733(27) 0.20772(7)
O3_2 O 0.88963(19) 0.11033(44) 0.09478(13)
C7_2 C 0.7878(3) 0.0276(4) 0.19118(10)
Cu4_2 Cu 0.523046(44) 0.046093(48) 0.473077(14)
O12_2 O 0.74400(27) 0.11003(32) 0.12561(7)
O13_2 O 0.8900(2) 0.25600(27) 0.12561(7)
O14_2 O 0.58934(27) 0.03270(34) 0.54105(7)
O15_2 O 0.4434(2) 0.03270(34) 0.54105(7)
C1_2 C 0.6974(6) 0.8487(7) 0.2885(2)
C2_2 C 0.6786(7) 0.8393(8) 0.3167(2)
C3_2 C 0.7676(3) 0.9482(4) 0.20765(10)
C4_2 C 0.7821(4) 0.8910(4) 0.19183(13)
H1_2 H 0.8018 0.9009 0.1704
C5_2 C 0.7245(6) 0.8622(7) 0.25585(17)
C6_2 C 0.7387(4) 0.9339(5) 0.23997(11)
H2_2 H 0.7290 0.9718 0.2508
Cu2_2 Cu 0.476952(18) 0.953907(48) 0.526923(14)
Cu7_2 Cu 0.856381(18) 0.712760(48) 0.139744(14)
Cu8_2 Cu 0.810288(44) 0.620573(48) 0.193589(14)
O4_2 O 0.5172(2) 0.88929(33) 0.50411(7)
O6_2 O 0.8161(2) 0.77738(33) 0.16256(7)
O8_2 O 0.37205(26) 0.88929(33) 0.50411(7)
O9_2 O 0.5566(2) 0.96730(34) 0.45895(7)
O10_2 O 0.5566(2) 0.58934(27) 0.45895(7)
O11_2 O 0.7767(2) 0.69937(34) 0.20772(7)
O16_2 O 0.44370(19) 0.88737(48) 0.57189(13)
C8_2 C 0.6359(6) 0.8180(9) 0.3782(2)
C9_2 C 0.6547(7) 0.8274(11) 0.3500(2)
C10_2 C 0.7676(3) 0.8194(5) 0.20765(10)
C11_2 C 0.5657(3) 0.7185(4) 0.45902(10)
C12_2 C 0.5657(3) 0.8473(5) 0.45902(10)
C13_2 C 0.5512(4) 0.7757(4) 0.47484(13)
H3_2 H 0.5315 0.7658 0.4963
C14_2 C 0.6088(6) 0.8044(9) 0.41082(17)
C15_2 C 0.7387(4) 0.8048(6) 0.23997(11)
C16_2 C 0.5946(4) 0.7328(5) 0.42670(11)
C17_2 C 0.5946(4) 0.8619(6) 0.42670(11)
H4_2 H 0.6043 0.9095 0.4159
H5_2 H 0.6043 0.6949 0.4159
H6_2 H 0.7290 0.7572 0.2508
C18_2 C 0.5455(3) 0.9065(5) 0.47549(10)
C19_2 C 0.5455(3) 0.6391(4) 0.47549(10)
C20_2 C 0.7878(3) 0.7602(5) 0.19118(10)
O11_3 O 0.30063(34) 0.07733(27) 0.20772(7)
C20_3 C 0.2398(5) 0.0276(4) 0.19118(10)
C1_3 C 0.1513(7) 0.8487(3) 0.2885(2)
C2_3 C 0.1607(8) 0.8393(3) 0.3167(2)
C3_3 C 0.0518(4) 0.8194(3) 0.20765(10)
C4_3 C 0.1090(4) 0.8911(2) 0.19183(13)
H1_3 H 0.0991 0.9009 0.1704
C5_3 C 0.1378(7) 0.8623(3) 0.25585(17)
C6_3 C 0.0661(5) 0.8048(3) 0.23997(11)
H2_3 H 0.0282 0.7572 0.2508
O4_3 O 0.11071(33) 0.62795(26) 0.50411(7)
O9_3 O 0.03270(34) 0.58934(27) 0.45895(7)
O10_3 O 0.41066(27) 0.96730(18) 0.45895(7)
O16_3 O 0.11263(48) 0.55634(44) 0.57189(13)
C8_3 C 0.1820(9) 0.8180(7) 0.3782(2)
C9_3 C 0.1726(11) 0.8274(8) 0.3500(2)
C10_3 C 0.1806(5) 0.9482(4) 0.20765(10)
C11_3 C 0.2815(4) 0.8473(3) 0.45902(10)
C12_3 C 0.1527(5) 0.7185(4) 0.45902(10)
C13_3 C 0.2243(4) 0.7756(2) 0.47484(13)
H3_3 H 0.2342 0.7658 0.4963
C14_3 C 0.1956(9) 0.8045(7) 0.41082(17)
C15_3 C 0.1952(6) 0.9339(5) 0.23997(11)
C16_3 C 0.2672(5) 0.8619(3) 0.42670(11)
C17_3 C 0.1381(6) 0.7328(5) 0.42670(11)
H4_3 H 0.0905 0.6949 0.4159
H5_3 H 0.3051 0.9095 0.4159
H6_3 H 0.2428 0.9718 0.2508
C18_3 C 0.0935(5) 0.6391(4) 0.47549(10)
C19_3 C 0.3609(4) 0.9065(2) 0.47549(10)
O1_3 O 0.96128(26) 0.77738(17) 0.16256(7)
O2_3 O 0.92267(27) 0.69937(18) 0.20772(7)
O3_3 O 0.88967(44) 0.7793(4) 0.09478(13)
C7_3 C 0.9724(4) 0.7602(2) 0.19118(10)
O12_3 O 0.88997(32) 0.63396(18) 0.12561(7)
O13_3 O 0.74400(27) 0.63396(18) 0.12561(7)
O14_3 O 0.96730(34) 0.5566(2) 0.54105(7)
O15_3 O 0.96730(34) 0.41066(27) 0.54105(7)
Cu1_2 Cu 0.143619(18) 0.28724(4) 0.860256(14)
O1_4 O 0.1839(2) 0.22262(17) 0.83744(7)
O2_4 O 0.2233(2) 0.30063(18) 0.79228(7)
O3_4 O 0.11037(19) 0.2207(4) 0.90522(13)
C1_4 C 0.3026(6) 0.1513(3) 0.7115(2)
C2_4 C 0.3214(7) 0.1607(3) 0.6833(2)
C3_4 C 0.2324(3) 0.1806(3) 0.79235(10)
C4_4 C 0.2179(4) 0.1089(2) 0.80817(13)
H1_4 H 0.1982 0.0991 0.8296
C5_4 C 0.2755(6) 0.1377(3) 0.74415(17)
C6_4 C 0.2613(4) 0.1952(3) 0.76003(11)
H2_4 H 0.2710 0.2428 0.7492
C7_4 C 0.2122(3) 0.2398(2) 0.80882(10)
Cu3_2 Cu 0.189712(44) 0.37943(4) 0.806411(14)
O4_4 O 0.4828(2) 0.37205(26) 0.49589(7)
O5_2 O 0.4828(2) 0.11071(17) 0.49589(7)
O7_2 O 0.03872(26) 0.22262(17) 0.83744(7)
O8_3 O 0.62795(26) 0.5172(2) 0.49589(7)
O12_4 O 0.25600(27) 0.36604(18) 0.87439(7)
O13_4 O 0.1100(2) 0.36604(18) 0.87439(7)
O16_4 O 0.55630(19) 0.44366(44) 0.42811(13)
C8_4 C 0.3641(6) 0.1820(7) 0.6218(2)
C9_4 C 0.3453(7) 0.1726(8) 0.6500(2)
C10_4 C 0.2324(3) 0.0518(4) 0.79235(10)
C11_4 C 0.4343(3) 0.1527(3) 0.54098(10)
C12_4 C 0.4343(3) 0.2815(4) 0.54098(10)
C13_4 C 0.4488(4) 0.2244(2) 0.52516(13)
H3_4 H 0.4685 0.2342 0.5037
C14_4 C 0.3912(6) 0.1955(7) 0.58918(17)
C15_4 C 0.2613(4) 0.0661(5) 0.76003(11)
C16_4 C 0.4054(4) 0.1381(3) 0.57330(11)
C17_4 C 0.4054(4) 0.2672(5) 0.57330(11)
H4_4 H 0.3957 0.3051 0.5841
H5_4 H 0.3957 0.0905 0.5841
H6_4 H 0.2710 0.0282 0.7492
C18_4 C 0.4545(3) 0.3609(4) 0.52451(10)
C19_4 C 0.4545(3) 0.0935(2) 0.52451(10)
Cu7_3 Cu 0.143619(18) 0.856379(44) 0.860256(14)
Cu8_3 Cu 0.189712(44) 0.810286(18) 0.806411(14)
O6_3 O 0.1839(2) 0.96128(26) 0.83744(7)
O11_4 O 0.2233(2) 0.92267(27) 0.79228(7)
C20_4 C 0.2122(3) 0.9724(4) 0.80882(10)
O1_5 O 0.03872(26) 0.8161(2) 0.83744(7)
O2_5 O 0.07733(27) 0.7767(2) 0.79228(7)
O3_5 O 0.11033(44) 0.88963(19) 0.90522(13)
C7_5 C 0.0276(4) 0.7878(3) 0.80882(10)
O12_5 O 0.11003(32) 0.74400(27) 0.87439(7)
O13_5 O 0.25600(27) 0.8900(2) 0.87439(7)
C1_5 C 0.8487(7) 0.6974(6) 0.7115(2)
C2_5 C 0.8393(8) 0.6786(7) 0.6833(2)
C3_5 C 0.9482(4) 0.7676(3) 0.79235(10)
C4_5 C 0.8910(4) 0.7821(4) 0.80817(13)
H1_5 H 0.9009 0.8018 0.8296
C5_5 C 0.8622(7) 0.7245(6) 0.74415(17)
C6_5 C 0.9339(5) 0.7387(4) 0.76003(11)
H2_5 H 0.9718 0.7290 0.7492
Cu7_4 Cu 0.712760(48) 0.856381(18) 0.860256(14)
Cu8_4 Cu 0.620573(48) 0.810288(44) 0.806411(14)
O4_5 O 0.88929(33) 0.5172(2) 0.49589(7)
O6_4 O 0.77738(33) 0.8161(2) 0.83744(7)
O8_4 O 0.88929(33) 0.37205(26) 0.49589(7)
O11_5 O 0.69937(34) 0.7767(2) 0.79228(7)
O16_5 O 0.88737(48) 0.44370(19) 0.42811(13)
C8_5 C 0.8180(9) 0.6359(6) 0.6218(2)
C9_5 C 0.8274(11) 0.6547(7) 0.6500(2)
C10_5 C 0.8194(5) 0.7676(3) 0.79235(10)
C11_5 C 0.7185(4) 0.5657(3) 0.54098(10)
C12_5 C 0.8473(5) 0.5657(3) 0.54098(10)
C13_5 C 0.7757(4) 0.5512(4) 0.52516(13)
H3_5 H 0.7658 0.5315 0.5037
C14_5 C 0.8044(9) 0.6088(6) 0.58918(17)
C15_5 C 0.8048(6) 0.7387(4) 0.76003(11)
C16_5 C 0.7328(5) 0.5946(4) 0.57330(11)
C17_5 C 0.8619(6) 0.5946(4) 0.57330(11)
H4_5 H 0.9095 0.6043 0.5841
H5_5 H 0.6949 0.6043 0.5841
H6_5 H 0.7572 0.7290 0.7492
C18_5 C 0.9065(5) 0.5455(3) 0.52451(10)
C19_5 C 0.6391(4) 0.5455(3) 0.52451(10)
C20_5 C 0.7602(5) 0.7878(3) 0.80882(10)
O11_6 O 0.07733(27) 0.30063(34) 0.79228(7)
C20_6 C 0.0276(4) 0.2398(5) 0.80882(10)
C1_6 C 0.8487(3) 0.1513(7) 0.7115(2)
C2_6 C 0.8393(3) 0.1607(8) 0.6833(2)
C3_6 C 0.8194(3) 0.0518(4) 0.79235(10)
C4_6 C 0.8911(2) 0.1090(4) 0.80817(13)
H1_6 H 0.9009 0.0991 0.8296
C5_6 C 0.8623(3) 0.1378(7) 0.74415(17)
C6_6 C 0.8048(3) 0.0661(5) 0.76003(11)
H2_6 H 0.7572 0.0282 0.7492
O4_6 O 0.62795(26) 0.11071(33) 0.49589(7)
O16_6 O 0.55634(44) 0.11263(48) 0.42811(13)
C8_6 C 0.8180(7) 0.1820(9) 0.6218(2)
C9_6 C 0.8274(8) 0.1726(11) 0.6500(2)
C10_6 C 0.9482(4) 0.1806(5) 0.79235(10)
C11_6 C 0.8473(3) 0.2815(4) 0.54098(10)
C12_6 C 0.7185(4) 0.1527(5) 0.54098(10)
C13_6 C 0.7756(2) 0.2243(4) 0.52516(13)
H3_6 H 0.7658 0.2342 0.5037
C14_6 C 0.8045(7) 0.1956(9) 0.58918(17)
C15_6 C 0.9339(5) 0.1952(6) 0.76003(11)
C16_6 C 0.8619(3) 0.2672(5) 0.57330(11)
C17_6 C 0.7328(5) 0.1381(6) 0.57330(11)
H4_6 H 0.6949 0.0905 0.5841
H5_6 H 0.9095 0.3051 0.5841
H6_6 H 0.9718 0.2428 0.7492
C18_6 C 0.6391(4) 0.0935(5) 0.52451(10)
C19_6 C 0.9065(2) 0.3609(4) 0.52451(10)
O1_6 O 0.77738(17) 0.96128(26) 0.83744(7)
O2_6 O 0.69937(18) 0.92267(27) 0.79228(7)
O3_6 O 0.7793(4) 0.88967(44) 0.90522(13)
C7_6 C 0.7602(2) 0.9724(4) 0.80882(10)
O12_6 O 0.63396(18) 0.88997(32) 0.87439(7)
O13_6 O 0.63396(18) 0.74400(27) 0.87439(7)
O4_7 O 0.1494(2) 0.70539(26) 0.82923(7)
O5_3 O 0.1494(2) 0.44405(17) 0.82923(7)
O8_5 O 0.29461(26) 0.8506(2) 0.82923(7)
O16_7 O 0.22296(19) 0.77700(44) 0.76145(13)
C8_7 C 0.0307(6) 0.5154(7) 0.9552(2)
C9_7 C 0.0119(7) 0.5060(8) 0.9834(2)
C11_7 C 0.1009(3) 0.4861(3) 0.87432(10)
C12_7 C 0.1009(3) 0.6149(4) 0.87432(10)
C13_7 C 0.1154(4) 0.5578(2) 0.85850(13)
H3_7 H 0.1351 0.5676 0.8371
C14_7 C 0.0578(6) 0.5289(7) 0.92252(17)
C16_7 C 0.0720(4) 0.4715(3) 0.90664(11)
C17_7 C 0.0720(4) 0.6006(5) 0.90664(11)
H4_7 H 0.0623 0.6385 0.9175
H5_7 H 0.0623 0.4239 0.9175
C18_7 C 0.1211(3) 0.6943(4) 0.85785(10)
C19_7 C 0.1211(3) 0.4269(2) 0.85785(10)
O1_7 O 0.8506(2) 0.55595(17) 0.17077(7)
O3_7 O 0.77704(19) 0.5540(4) 0.23855(13)
C1_7 C 0.9693(6) 0.4846(3) 0.0448(2)
C2_7 C 0.9881(7) 0.4940(3) 0.0166(2)
C3_7 C 0.8991(3) 0.5139(3) 0.12568(10)
C4_7 C 0.8846(4) 0.4422(2) 0.14150(13)
H1_7 H 0.8649 0.4324 0.1629
C5_7 C 0.9422(6) 0.4710(3) 0.07748(17)
C6_7 C 0.9280(4) 0.5285(3) 0.09336(11)
H2_7 H 0.9377 0.5761 0.0825
C7_7 C 0.8789(3) 0.5731(2) 0.14215(10)
O6_5 O 0.8506(2) 0.29461(26) 0.17077(7)
O7_3 O 0.70539(26) 0.55595(17) 0.17077(7)
C10_7 C 0.8991(3) 0.3851(4) 0.12568(10)
C15_7 C 0.9280(4) 0.3994(5) 0.09336(11)
H6_7 H 0.9377 0.3615 0.0825
C20_7 C 0.8789(3) 0.3057(4) 0.14215(10)
O1_8 O 0.70539(26) 0.1494(2) 0.17077(7)
O3_8 O 0.77700(44) 0.22296(19) 0.23855(13)
C1_8 C 0.5154(7) 0.0307(6) 0.0448(2)
C2_8 C 0.5060(8) 0.0119(7) 0.0166(2)
C3_8 C 0.6149(4) 0.1009(3) 0.12568(10)
C4_8 C 0.5577(4) 0.1154(4) 0.14150(13)
H1_8 H 0.5676 0.1351 0.1629
C5_8 C 0.5289(7) 0.0578(6) 0.07748(17)
C6_8 C 0.6006(5) 0.0720(4) 0.09336(11)
H2_8 H 0.6385 0.0623 0.0825
C7_8 C 0.6943(4) 0.1211(3) 0.14215(10)
O6_6 O 0.44405(33) 0.1494(2) 0.17077(7)
C10_8 C 0.4861(5) 0.1009(3) 0.12568(10)
C15_8 C 0.4715(6) 0.0720(4) 0.09336(11)
H6_8 H 0.4239 0.0623 0.0825
C20_8 C 0.4269(5) 0.1211(3) 0.14215(10)
O4_8 O 0.55595(33) 0.8506(2) 0.82923(7)
O8_6 O 0.55595(33) 0.70539(26) 0.82923(7)
O16_8 O 0.55403(48) 0.77704(19) 0.76145(13)
C8_8 C 0.4846(9) 0.9693(6) 0.9552(2)
C9_8 C 0.4940(11) 0.9881(7) 0.9834(2)
C11_8 C 0.3851(4) 0.8991(3) 0.87432(10)
C12_8 C 0.5139(5) 0.8991(3) 0.87432(10)
C13_8 C 0.4423(4) 0.8846(4) 0.85850(13)
H3_8 H 0.4324 0.8649 0.8371
C14_8 C 0.4710(9) 0.9422(6) 0.92252(17)
C16_8 C 0.3994(5) 0.9280(4) 0.90664(11)
C17_8 C 0.5285(6) 0.9280(4) 0.90664(11)
H4_8 H 0.5761 0.9377 0.9175
H5_8 H 0.3615 0.9377 0.9175
C18_8 C 0.5731(5) 0.8789(3) 0.85785(10)
C19_8 C 0.3057(4) 0.8789(3) 0.85785(10)
O1_9 O 0.44405(17) 0.29461(26) 0.17077(7)
O3_9 O 0.4460(4) 0.22300(44) 0.23855(13)
C1_9 C 0.5154(3) 0.4846(7) 0.0448(2)
C2_9 C 0.5060(3) 0.4940(8) 0.0166(2)
C3_9 C 0.4861(3) 0.3851(4) 0.12568(10)
C4_9 C 0.5578(2) 0.4423(4) 0.14150(13)
H1_9 H 0.5676 0.4324 0.1629
C5_9 C 0.5290(3) 0.4711(7) 0.07748(17)
C6_9 C 0.4715(3) 0.3994(5) 0.09336(11)
H2_9 H 0.4239 0.3615 0.0825
C7_9 C 0.4269(2) 0.3057(4) 0.14215(10)
C10_9 C 0.6149(4) 0.5139(5) 0.12568(10)
C15_9 C 0.6006(5) 0.5285(6) 0.09336(11)
H6_9 H 0.6385 0.5761 0.0825
C20_9 C 0.6943(4) 0.5731(5) 0.14215(10)
O4_9 O 0.29461(26) 0.44405(33) 0.82923(7)
O16_9 O 0.22300(44) 0.44597(48) 0.76145(13)
C8_9 C 0.4846(7) 0.5154(9) 0.9552(2)
C9_9 C 0.4940(8) 0.5060(11) 0.9834(2)
C11_9 C 0.5139(3) 0.6149(4) 0.87432(10)
C12_9 C 0.3851(4) 0.4861(5) 0.87432(10)
C13_9 C 0.4422(2) 0.5577(4) 0.85850(13)
H3_9 H 0.4324 0.5676 0.8371
C14_9 C 0.4711(7) 0.5290(9) 0.92252(17)
C16_9 C 0.5285(3) 0.6006(5) 0.90664(11)
C17_9 C 0.3994(5) 0.4715(6) 0.90664(11)
H4_9 H 0.3615 0.4239 0.9175
H5_9 H 0.5761 0.6385 0.9175
C18_9 C 0.3057(4) 0.4269(5) 0.85785(10)
C19_9 C 0.5731(2) 0.6943(4) 0.85785(10)
loop_
_geom_bond_atom_site_label_1
_geom_bond_atom_site_label_2
_geom_bond_site_symmetry_1
_geom_bond_site_symmetry_2
Cu1 O1 1_555 1_555
O1 C7 1_555 1_555
O2 C7 1_555 1_555
O3 Cu1 1_555 1_555
C1 C2 1_555 1_555
C2 C9 1_555 1_555
C3 C4 1_555 1_555
C4 H1 1_555 1_555
C5 C1 1_555 1_555
C6 C3 1_555 1_555
H2 C6 1_555 1_555
C7 C3 1_555 1_555
Cu2 O4 1_555 1_555
Cu3 O2 1_555 1_555
Cu4 O9 1_555 1_555
Cu5 O5 1_555 1_555
O4 C18 1_555 1_555
O5 C19 1_555 1_555
O7 Cu1 1_555 1_555
O8 Cu2 1_555 1_555
O9 C18 1_555 1_555
O10 C19 1_555 1_555
O12 Cu1 1_555 1_555
O13 Cu1 1_555 1_555
O14 Cu2 1_555 1_555
O15 Cu2 1_555 1_555
O16 Cu2 1_555 1_555
C8 C9 1_555 1_555
C10 C4 1_555 1_555
C11 C13 1_555 1_555
C12 C13 1_555 1_555
C13 H3 1_555 1_555
C14 C8 1_555 1_555
C15 C5 1_555 1_555
C16 C11 1_555 1_555
C17 C12 1_555 1_555
H4 C17 1_555 1_555
H5 C16 1_555 1_555
H6 C15 1_555 1_555
C18 C12 1_555 1_555
C19 C11 1_555 1_555
C5 C6 1_555 1_555
C10 C15 1_555 1_555
C14 C16 1_555 1_555
C14 C17 1_555 1_555
Cu7 O6 1_555 1_555
Cu8 O11 1_555 1_555
O6 C20 1_555 1_555
O11 C20 1_555 1_555
Cu7 O1_2 1_555 1_555
O1_2 C7_2 1_555 1_555
O2_2 C7_2 1_555 1_555
O3_2 Cu7 1_555 1_555
Cu8 O2_2 1_555 1_555
O12_2 Cu7 1_555 1_555
O13_2 Cu7 1_555 1_555
C1_2 C2_2 1_555 1_555
C2_2 C9_2 1_555 1_555
C3_2 C4_2 1_555 1_555
C4_2 H1_2 1_555 1_555
C5_2 C1_2 1_555 1_555
C6_2 C3_2 1_555 1_555
H2_2 C6_2 1_555 1_555
Cu2_2 O4_2 1_555 1_555
Cu4 O10_2 1_555 1_555
Cu7_2 O6_2 1_555 1_555
Cu8_2 O11_2 1_555 1_555
O4_2 C18_2 1_555 1_555
O8 C19_2 1_555 1_555
O6_2 C20_2 1_555 1_555
O8_2 Cu2_2 1_555 1_555
O9_2 C18_2 1_555 1_555
O10_2 C19_2 1_555 1_555
O11_2 C20_2 1_555 1_555
O16_2 Cu2_2 1_555 1_555
C8_2 C9_2 1_555 1_555
C10_2 C4_2 1_555 1_555
C11_2 C13_2 1_555 1_555
C12_2 C13_2 1_555 1_555
C13_2 H3_2 1_555 1_555
C14_2 C8_2 1_555 1_555
C15_2 C5_2 1_555 1_555
C16_2 C11_2 1_555 1_555
C17_2 C12_2 1_555 1_555
H4_2 C17_2 1_555 1_555
H5_2 C16_2 1_555 1_555
H6_2 C15_2 1_555 1_555
C18_2 C12_2 1_555 1_555
C19_2 C11_2 1_555 1_555
C20_2 C10_2 1_555 1_555
C5_2 C6_2 1_555 1_555
C10_2 C15_2 1_555 1_555
C14_2 C16_2 1_555 1_555
C14_2 C17_2 1_555 1_555
Cu3 O11_3 1_555 1_555
O7 C20_3 1_555 1_555
O11_3 C20_3 1_555 1_555
C1_3 C2_3 1_555 1_555
C2_3 C9_3 1_555 1_555
C3_3 C4_3 1_555 1_555
C4_3 H1_3 1_555 1_555
C5_3 C1_3 1_555 1_555
C6_3 C3_3 1_555 1_555
H2_3 C6_3 1_555 1_555
Cu5 O4_3 1_555 1_555
O4_3 C18_3 1_555 1_555
O8_2 C19_3 1_555 1_555
O9_3 C18_3 1_555 1_555
O10_3 C19_3 1_555 1_555
O16_3 Cu5 1_555 1_555
C8_3 C9_3 1_555 1_555
C10_3 C4_3 1_555 1_555
C11_3 C13_3 1_555 1_555
C12_3 C13_3 1_555 1_555
C13_3 H3_3 1_555 1_555
C14_3 C8_3 1_555 1_555
C15_3 C5_3 1_555 1_555
C16_3 C11_3 1_555 1_555
C17_3 C12_3 1_555 1_555
H4_3 C17_3 1_555 1_555
H5_3 C16_3 1_555 1_555
H6_3 C15_3 1_555 1_555
C18_3 C12_3 1_555 1_555
C19_3 C11_3 1_555 1_555
C5_3 C6_3 1_555 1_555
C10_3 C15_3 1_555 1_555
C14_3 C16_3 1_555 1_555
C14_3 C17_3 1_555 1_555
Cu7_2 O1_3 1_555 1_555
O1_3 C7_3 1_555 1_555
O2_3 C7_3 1_555 1_555
O3_3 Cu7_2 1_555 1_555
Cu8_2 O2_3 1_555 1_555
O12_3 Cu7_2 1_555 1_555
O13_3 Cu7_2 1_555 1_555
Cu1_2 O1_4 1_555 1_555
O1_4 C7_4 1_555 1_555
O2_4 C7_4 1_555 1_555
O3_4 Cu1_2 1_555 1_555
C1_4 C2_4 1_555 1_555
C2_4 C9_4 1_555 1_555
C3_4 C4_4 1_555 1_555
C4_4 H1_4 1_555 1_555
C5_4 C1_4 1_555 1_555
C6_4 C3_4 1_555 1_555
H2_4 C6_4 1_555 1_555
C7_4 C3_4 1_555 1_555
Cu4 O4_4 1_555 1_555
Cu3_2 O2_4 1_555 1_555
Cu4_2 O5_2 1_555 1_555
O4_4 C18_4 1_555 1_555
O5_2 C19_4 1_555 1_555
O7_2 Cu1_2 1_555 1_555
O8_3 Cu4 1_555 1_555
O14 C18_4 1_555 1_555
O15_2 C19_4 1_555 1_555
O12_4 Cu1_2 1_555 1_555
O13_4 Cu1_2 1_555 1_555
O16_4 Cu4 1_555 1_555
C8_4 C9_4 1_555 1_555
C10_4 C4_4 1_555 1_555
C11_4 C13_4 1_555 1_555
C12_4 C13_4 1_555 1_555
C13_4 H3_4 1_555 1_555
C14_4 C8_4 1_555 1_555
C15_4 C5_4 1_555 1_555
C16_4 C11_4 1_555 1_555
C17_4 C12_4 1_555 1_555
H4_4 C17_4 1_555 1_555
H5_4 C16_4 1_555 1_555
H6_4 C15_4 1_555 1_555
C18_4 C12_4 1_555 1_555
C19_4 C11_4 1_555 1_555
C5_4 C6_4 1_555 1_555
C10_4 C15_4 1_555 1_555
C14_4 C16_4 1_555 1_555
C14_4 C17_4 1_555 1_555
Cu7_3 O6_3 1_555 1_555
Cu8_3 O11_4 1_555 1_555
O6_3 C20_4 1_555 1_555
O11_4 C20_4 1_555 1_555
Cu7_3 O1_5 1_555 1_555
O1_5 C7_5 1_555 1_555
O2_5 C7_5 1_555 1_555
O3_5 Cu7_3 1_555 1_555
Cu8_3 O2_5 1_555 1_555
O12_5 Cu7_3 1_555 1_555
O13_5 Cu7_3 1_555 1_555
C1_5 C2_5 1_555 1_555
C2_5 C9_5 1_555 1_555
C3_5 C4_5 1_555 1_555
C4_5 H1_5 1_555 1_555
C5_5 C1_5 1_555 1_555
C6_5 C3_5 1_555 1_555
H2_5 C6_5 1_555 1_555
Cu6 O4_5 1_555 1_555
Cu7_4 O6_4 1_555 1_555
Cu8_4 O11_5 1_555 1_555
O4_5 C18_5 1_555 1_555
O8_3 C19_5 1_555 1_555
O6_4 C20_5 1_555 1_555
O8_4 Cu6 1_555 1_555
O14_3 C18_5 1_555 1_555
O15 C19_5 1_555 1_555
O11_5 C20_5 1_555 1_555
O16_5 Cu6 1_555 1_555
C8_5 C9_5 1_555 1_555
C10_5 C4_5 1_555 1_555
C11_5 C13_5 1_555 1_555
C12_5 C13_5 1_555 1_555
C13_5 H3_5 1_555 1_555
C14_5 C8_5 1_555 1_555
C15_5 C5_5 1_555 1_555
C16_5 C11_5 1_555 1_555
C17_5 C12_5 1_555 1_555
H4_5 C17_5 1_555 1_555
H5_5 C16_5 1_555 1_555
H6_5 C15_5 1_555 1_555
C18_5 C12_5 1_555 1_555
C19_5 C11_5 1_555 1_555
C20_5 C10_5 1_555 1_555
C5_5 C6_5 1_555 1_555
C10_5 C15_5 1_555 1_555
C14_5 C16_5 1_555 1_555
C14_5 C17_5 1_555 1_555
Cu3_2 O11_6 1_555 1_555
O7_2 C20_6 1_555 1_555
O11_6 C20_6 1_555 1_555
C1_6 C2_6 1_555 1_555
C2_6 C9_6 1_555 1_555
C3_6 C4_6 1_555 1_555
C4_6 H1_6 1_555 1_555
C5_6 C1_6 1_555 1_555
C6_6 C3_6 1_555 1_555
H2_6 C6_6 1_555 1_555
Cu4_2 O4_6 1_555 1_555
O4_6 C18_6 1_555 1_555
O8_4 C19_6 1_555 1_555
O14_2 C18_6 1_555 1_555
O15_3 C19_6 1_555 1_555
O16_6 Cu4_2 1_555 1_555
C8_6 C9_6 1_555 1_555
C10_6 C4_6 1_555 1_555
C11_6 C13_6 1_555 1_555
C12_6 C13_6 1_555 1_555
C13_6 H3_6 1_555 1_555
C14_6 C8_6 1_555 1_555
C15_6 C5_6 1_555 1_555
C16_6 C11_6 1_555 1_555
C17_6 C12_6 1_555 1_555
H4_6 C17_6 1_555 1_555
H5_6 C16_6 1_555 1_555
H6_6 C15_6 1_555 1_555
C18_6 C12_6 1_555 1_555
C19_6 C11_6 1_555 1_555
C5_6 C6_6 1_555 1_555
C10_6 C15_6 1_555 1_555
C14_6 C16_6 1_555 1_555
C14_6 C17_6 1_555 1_555
Cu7_4 O1_6 1_555 1_555
O1_6 C7_6 1_555 1_555
O2_6 C7_6 1_555 1_555
O3_6 Cu7_4 1_555 1_555
Cu8_4 O2_6 1_555 1_555
O12_6 Cu7_4 1_555 1_555
O13_6 Cu7_4 1_555 1_555
Cu8_3 O4_7 1_555 1_555
Cu3_2 O5_3 1_555 1_555
O4_7 C18_7 1_555 1_555
O5_3 C19_7 1_555 1_555
O8_5 Cu8_3 1_555 1_555
O12_5 C18_7 1_555 1_555
O13_4 C19_7 1_555 1_555
O16_7 Cu8_3 1_555 1_555
C8_7 C9_7 1_555 1_555
C11_7 C13_7 1_555 1_555
C12_7 C13_7 1_555 1_555
C13_7 H3_7 1_555 1_555
C14_7 C8_7 1_555 1_555
C16_7 C11_7 1_555 1_555
C17_7 C12_7 1_555 1_555
H4_7 C17_7 1_555 1_555
H5_7 C16_7 1_555 1_555
C18_7 C12_7 1_555 1_555
C19_7 C11_7 1_555 1_555
C14_7 C16_7 1_555 1_555
C14_7 C17_7 1_555 1_555
Cu8_2 O1_7 1_555 1_555
O1_7 C7_7 1_555 1_555
O12_3 C7_7 1_555 1_555
O3_7 Cu8_2 1_555 1_555
C1_7 C2_7 1_555 1_555
C3_7 C4_7 1_555 1_555
C4_7 H1_7 1_555 1_555
C5_7 C1_7 1_555 1_555
C6_7 C3_7 1_555 1_555
H2_7 C6_7 1_555 1_555
C7_7 C3_7 1_555 1_555
Cu8 O6_5 1_555 1_555
O6_5 C20_7 1_555 1_555
O7_3 Cu8_2 1_555 1_555
O13_2 C20_7 1_555 1_555
C10_7 C4_7 1_555 1_555
C15_7 C5_7 1_555 1_555
H6_7 C15_7 1_555 1_555
C20_7 C10_7 1_555 1_555
C5_7 C6_7 1_555 1_555
C10_7 C15_7 1_555 1_555
Cu8 O1_8 1_555 1_555
O1_8 C7_8 1_555 1_555
O12_2 C7_8 1_555 1_555
O3_8 Cu8 1_555 1_555
C1_8 C2_8 1_555 1_555
C3_8 C4_8 1_555 1_555
C4_8 H1_8 1_555 1_555
C5_8 C1_8 1_555 1_555
C6_8 C3_8 1_555 1_555
H2_8 C6_8 1_555 1_555
C7_8 C3_8 1_555 1_555
Cu3 O6_6 1_555 1_555
O6_6 C20_8 1_555 1_555
O13 C20_8 1_555 1_555
C10_8 C4_8 1_555 1_555
C15_8 C5_8 1_555 1_555
H6_8 C15_8 1_555 1_555
C20_8 C10_8 1_555 1_555
C5_8 C6_8 1_555 1_555
C10_8 C15_8 1_555 1_555
Cu8_4 O4_8 1_555 1_555
O4_8 C18_8 1_555 1_555
O8_5 C19_8 1_555 1_555
O8_6 Cu8_4 1_555 1_555
O12_6 C18_8 1_555 1_555
O13_5 C19_8 1_555 1_555
O16_8 Cu8_4 1_555 1_555
C8_8 C9_8 1_555 1_555
C11_8 C13_8 1_555 1_555
C12_8 C13_8 1_555 1_555
C13_8 H3_8 1_555 1_555
C14_8 C8_8 1_555 1_555
C16_8 C11_8 1_555 1_555
C17_8 C12_8 1_555 1_555
H4_8 C17_8 1_555 1_555
H5_8 C16_8 1_555 1_555
C18_8 C12_8 1_555 1_555
C19_8 C11_8 1_555 1_555
C14_8 C16_8 1_555 1_555
C14_8 C17_8 1_555 1_555
Cu3 O1_9 1_555 1_555
O1_9 C7_9 1_555 1_555
O12 C7_9 1_555 1_555
O3_9 Cu3 1_555 1_555
C1_9 C2_9 1_555 1_555
C3_9 C4_9 1_555 1_555
C4_9 H1_9 1_555 1_555
C5_9 C1_9 1_555 1_555
C6_9 C3_9 1_555 1_555
H2_9 C6_9 1_555 1_555
C7_9 C3_9 1_555 1_555
O7_3 C20_9 1_555 1_555
O13_3 C20_9 1_555 1_555
C10_9 C4_9 1_555 1_555
C15_9 C5_9 1_555 1_555
H6_9 C15_9 1_555 1_555
C20_9 C10_9 1_555 1_555
C5_9 C6_9 1_555 1_555
C10_9 C15_9 1_555 1_555
Cu3_2 O4_9 1_555 1_555
O4_9 C18_9 1_555 1_555
O8_6 C19_9 1_555 1_555
O12_4 C18_9 1_555 1_555
O13_6 C19_9 1_555 1_555
O16_9 Cu3_2 1_555 1_555
C8_9 C9_9 1_555 1_555
C11_9 C13_9 1_555 1_555
C12_9 C13_9 1_555 1_555
C13_9 H3_9 1_555 1_555
C14_9 C8_9 1_555 1_555
C16_9 C11_9 1_555 1_555
C17_9 C12_9 1_555 1_555
H4_9 C17_9 1_555 1_555
H5_9 C16_9 1_555 1_555
C18_9 C12_9 1_555 1_555
C19_9 C11_9 1_555 1_555
C14_9 C16_9 1_555 1_555
C14_9 C17_9 1_555 1_555

#END
