
###############################################################################
#
# This file contains modified crystal structure data generated from the
# MOF subset of the Cambridge Structural Database (CSD) v543 
# hosted by the Cambridge Crystallographic Data Centre (CCDC).
#
# This work is licensed under the Creative Commons
# Attribution-NonCommercial-ShareAlike 4.0 International License.
# To view a copy of this license, visit
# http://creativecommons.org/licenses/by-nc-sa/4.0/
# or send a letter to
# Creative Commons, PO Box 1866, Mountain View, CA 94042, USA.
#
# CIF created using the CSD Python API on 29 September 2022
# The structure has been converted into the P1 space group
# The structure has a 3D framework
# The original CSD entry RUVMAX is in the monoclinic crystal system
# The framework has been calculated to contain at least 10.0% void space
# The void calculation uses a probe of radius 1.32A, grid spacing 0.4
#
###############################################################################

data_RUVMAX
_chemical_formula_moiety         '(C148 H118 N46 O56 Zn14 2+)n'
_symmetry_cell_setting           triclinic
_symmetry_space_group_name_H-M   'P 1'
_symmetry_Int_Tables_number      1
_space_group_name_Hall           'P 1'
loop_
_symmetry_equiv_pos_site_id
_symmetry_equiv_pos_as_xyz
1 x,y,z
_cell_length_a                   18.206(4)
_cell_length_b                   18.320(4)
_cell_length_c                   14.765(3)
_cell_angle_alpha                90
_cell_angle_beta                 92.16(3)
_cell_angle_gamma                90
_cell_volume                     4921.13
loop_
_atom_site_label
_atom_site_type_symbol
_atom_site_fract_x
_atom_site_fract_y
_atom_site_fract_z
Zn1 Zn 0.17266(5) 0.23850(5) 0.22551(6)
Zn2 Zn 0.5000 0.11826(6) 0.2500
O1 O 0.1842(3) 0.2209(3) 0.3759(3)
O2 O 0.2583(3) 0.1656(3) 0.4769(4)
H1 H 0.301(7) 0.143(6) 0.491(8)
O3 O 0.4800(3) 0.1114(3) 0.3916(3)
O4 O 0.3864(3) 0.1180(3) 0.4836(3)
O7 O 0.1883(3) 0.3499(3) 0.2406(4)
N1 N 0.2847(3) 0.2133(3) 0.2437(4)
N2 N 0.3992(3) 0.1652(3) 0.2489(4)
N5 N 0.5000 0.0058(4) 0.2500
N6 N 0.2312(4) 0.4513(4) 0.3123(5)
C1 C 0.3459(4) 0.1985(4) 0.1977(5)
C2 C 0.3012(4) 0.1880(4) 0.3295(5)
C3 C 0.3697(4) 0.1597(4) 0.3338(5)
C4 C 0.2442(4) 0.1921(4) 0.3976(5)
C5 C 0.4148(4) 0.1272(4) 0.4089(5)
C7 C 0.3685(4) 0.1657(4) 0.0375(5)
H4 H 0.3843 0.1196 0.0562
C8 C 0.3499(4) 0.2164(4) 0.1015(5)
C9 C 0.3292(4) 0.2848(4) 0.0694(5)
H5 H 0.3174 0.3216 0.1097
C17 C 0.2169(4) 0.3817(5) 0.3057(6)
H9 H 0.2298 0.3531 0.3559
C18 C 0.2629(8) 0.4857(6) 0.3926(7)
H10 H 0.2691 0.5369 0.3816
H11 H 0.3098 0.4640 0.4076
H12 H 0.2308 0.4790 0.4421
C19 C 0.2121(7) 0.4985(6) 0.2381(10)
H13 H 0.2257 0.5477 0.2535
H14 H 0.1600 0.4962 0.2253
H15 H 0.2376 0.4834 0.1855
Zn3 Zn 0.82734(5) 0.23850(5) 0.27449(6)
Zn7 Zn 0.67266(5) 0.26150(5) 0.72551(6)
O8 O 0.8158(3) 0.2209(3) 0.1241(3)
O9 O 0.7417(3) 0.1656(3) 0.0231(4)
H16 H 0.699(7) 0.143(6) 0.009(8)
O10 O 0.5200(3) 0.1114(3) 0.1084(3)
O11 O 0.6136(3) 0.1180(3) 0.0164(3)
O13 O 0.1550(3) 0.1190(3) 0.2198(4)
O14 O 0.8450(3) 0.1190(3) 0.2802(4)
O16 O 0.8117(3) 0.3499(3) 0.2594(4)
N7 N 0.7153(3) 0.2133(3) 0.2563(4)
N8 N 0.6008(3) 0.1652(3) 0.2511(4)
N9 N 0.6586(3) 0.2463(3) 0.5829(4)
N10 N 0.1586(3) 0.2537(3) 0.0829(4)
N11 N 0.8414(3) 0.2537(3) 0.4171(4)
N13 N 0.0604(3) 0.2321(3) 0.2432(4)
N14 N 0.9396(3) 0.2321(3) 0.2568(4)
N15 N 0.7688(4) 0.4513(4) 0.1877(5)
C20 C 0.6541(4) 0.1985(4) 0.3023(5)
C21 C 0.6988(4) 0.1880(4) 0.1705(5)
C22 C 0.6303(4) 0.1597(4) 0.1662(5)
C23 C 0.7558(4) 0.1921(4) 0.1024(5)
C24 C 0.5852(4) 0.1272(4) 0.0911(5)
C25 C 0.6356(4) 0.1813(4) 0.5517(5)
H17 H 0.6221 0.1458 0.5929
C26 C 0.6315(4) 0.1657(4) 0.4625(5)
H18 H 0.6157 0.1196 0.4438
C27 C 0.6501(4) 0.2164(4) 0.3985(5)
C28 C 0.6708(4) 0.2848(4) 0.4306(5)
H19 H 0.6826 0.3216 0.3903
C29 C 0.6738(4) 0.2979(4) 0.5225(5)
H20 H 0.6868 0.3442 0.5432
C34 C 0.7831(4) 0.3817(5) 0.1943(6)
H23 H 0.7702 0.3531 0.1441
C35 C 0.7371(8) 0.4857(6) 0.1074(7)
H24 H 0.7309 0.5369 0.1184
H25 H 0.6902 0.4640 0.0924
H26 H 0.7692 0.4790 0.0579
C36 C 0.7879(7) 0.4985(6) 0.2619(10)
H27 H 0.7743 0.5477 0.2465
H28 H 0.8400 0.4962 0.2747
H29 H 0.7624 0.4834 0.3145
N3 N 0.3414(3) 0.2463(3) 0.9171(4)
C6 C 0.3644(4) 0.1813(4) 0.9483(5)
H3 H 0.3779 0.1458 0.9071
C10 C 0.3262(4) 0.2979(4) 0.9775(5)
H6 H 0.3132 0.3442 0.9568
Zn5 Zn 0.32734(5) 0.26150(5) 0.77449(6)
O5 O 0.6550(3) 0.6190(3) 0.2198(4)
O6 O 0.5674(3) 0.5366(3) 0.2395(4)
H2 H 0.5000 0.537(8) 0.2500
N4 N 0.5604(3) 0.7321(3) 0.2432(4)
C11 C 0.5000 0.7726(5) 0.2500
C12 C 0.5380(4) 0.6621(4) 0.2444(5)
C13 C 0.5902(4) 0.6030(4) 0.2344(5)
C14 C 0.5239(4) 0.9668(4) 0.3231(5)
H7 H 0.5392 0.9921 0.3750
C15 C 0.5269(4) 0.8917(4) 0.3248(5)
H8 H 0.5465 0.8672 0.3754
C16 C 0.5000 0.8533(5) 0.2500
Zn4 Zn 0.67266(5) 0.73850(5) 0.22551(6)
Zn6 Zn 0.32734(5) 0.73850(5) 0.27449(6)
O12 O 0.3450(3) 0.6190(3) 0.2802(4)
O15 O 0.4326(3) 0.5366(3) 0.2605(4)
N12 N 0.4396(3) 0.7321(3) 0.2568(4)
C30 C 0.4620(4) 0.6621(4) 0.2556(5)
C31 C 0.4098(4) 0.6030(4) 0.2656(5)
C32 C 0.4761(4) 0.9668(4) 0.1769(5)
H21 H 0.4608 0.9921 0.1250
C33 C 0.4731(4) 0.8917(4) 0.1752(5)
H22 H 0.4535 0.8672 0.1246
Zn2_2 Zn 0.0000 0.61826(6) 0.2500
O6_2 O 0.0674(3) 0.0366(3) 0.2395(4)
H2_2 H 0.0000 0.037(8) 0.2500
N5_2 N -0.0000 0.5058(4) 0.2500
C11_2 C 0.0000 0.2726(5) 0.2500
C12_2 C 0.0380(4) 0.1621(4) 0.2444(5)
C13_2 C 0.0902(4) 0.1030(4) 0.2344(5)
C14_2 C 0.0239(4) 0.4668(4) 0.3231(5)
H7_2 H 0.0392 0.4921 0.3750
C15_2 C 0.0269(4) 0.3917(4) 0.3248(5)
H8_2 H 0.0465 0.3672 0.3754
C16_2 C -0.0000 0.3533(5) 0.2500
Zn7_2 Zn 0.17266(5) 0.76150(5) 0.72551(6)
O8_2 O 0.3158(3) 0.7209(3) 0.1241(3)
O9_2 O 0.2417(3) 0.6656(3) 0.0231(4)
H16_2 H 0.199(7) 0.643(6) 0.009(8)
O10_2 O 0.0200(3) 0.6114(3) 0.1084(3)
O11_2 O 0.1136(3) 0.6180(3) 0.0164(3)
O16_2 O 0.3117(3) 0.8499(3) 0.2594(4)
N7_2 N 0.2153(3) 0.7133(3) 0.2563(4)
N8_2 N 0.1008(3) 0.6652(3) 0.2511(4)
N9_2 N 0.1586(3) 0.7463(3) 0.5829(4)
N11_2 N 0.3414(3) 0.7537(3) 0.4171(4)
N15_2 N 0.2688(4) 0.9513(4) 0.1877(5)
C20_2 C 0.1541(4) 0.6985(4) 0.3023(5)
C21_2 C 0.1988(4) 0.6880(4) 0.1705(5)
C22_2 C 0.1303(4) 0.6597(4) 0.1662(5)
C23_2 C 0.2558(4) 0.6921(4) 0.1024(5)
C24_2 C 0.0852(4) 0.6272(4) 0.0911(5)
C25_2 C 0.1356(4) 0.6813(4) 0.5517(5)
H17_2 H 0.1221 0.6458 0.5929
C26_2 C 0.1315(4) 0.6657(4) 0.4625(5)
H18_2 H 0.1157 0.6196 0.4438
C27_2 C 0.1501(4) 0.7164(4) 0.3985(5)
C28_2 C 0.1708(4) 0.7848(4) 0.4306(5)
H19_2 H 0.1826 0.8216 0.3903
C29_2 C 0.1738(4) 0.7979(4) 0.5225(5)
H20_2 H 0.1868 0.8442 0.5432
C34_2 C 0.2831(4) 0.8817(5) 0.1943(6)
H23_2 H 0.2702 0.8531 0.1441
C35_2 C 0.2371(8) 0.9857(6) 0.1074(7)
H25_2 H 0.1902 0.9640 0.0924
H26_2 H 0.2692 0.9790 0.0579
C36_2 C 0.2879(7) 0.9985(6) 0.2619(10)
H28_2 H 0.3400 0.9962 0.2747
H29_2 H 0.2624 0.9834 0.3145
Zn2_3 Zn 1.0000 0.61826(6) 0.2500
O1_2 O 0.6842(3) 0.7209(3) 0.3759(3)
O2_2 O 0.7583(3) 0.6656(3) 0.4769(4)
H1_2 H 0.801(7) 0.643(6) 0.491(8)
O3_2 O 0.9800(3) 0.6114(3) 0.3916(3)
O4_2 O 0.8864(3) 0.6180(3) 0.4836(3)
H2_3 H 1.0000 0.037(8) 0.2500
O7_2 O 0.6883(3) 0.8499(3) 0.2406(4)
N1_2 N 0.7847(3) 0.7133(3) 0.2437(4)
N2_2 N 0.8992(3) 0.6652(3) 0.2489(4)
N5_3 N 1.0000 0.5058(4) 0.2500
N6_2 N 0.7312(4) 0.9513(4) 0.3123(5)
C1_2 C 0.8459(4) 0.6985(4) 0.1977(5)
C2_2 C 0.8012(4) 0.6880(4) 0.3295(5)
C3_2 C 0.8697(4) 0.6597(4) 0.3338(5)
C4_2 C 0.7442(4) 0.6921(4) 0.3976(5)
C5_2 C 0.9148(4) 0.6272(4) 0.4089(5)
C7_2 C 0.8685(4) 0.6657(4) 0.0375(5)
H4_2 H 0.8843 0.6196 0.0562
C8_2 C 0.8499(4) 0.7164(4) 0.1015(5)
C9_2 C 0.8292(4) 0.7848(4) 0.0694(5)
H5_2 H 0.8174 0.8216 0.1097
C11_3 C 1.0000 0.2726(5) 0.2500
C16_3 C 1.0000 0.3533(5) 0.2500
C17_2 C 0.7169(4) 0.8817(5) 0.3057(6)
H9_2 H 0.7298 0.8531 0.3559
C18_2 C 0.7629(8) 0.9857(6) 0.3926(7)
H11_2 H 0.8098 0.9640 0.4076
H12_2 H 0.7308 0.9790 0.4421
C19_2 C 0.7121(7) 0.9985(6) 0.2381(10)
H14_2 H 0.6600 0.9962 0.2253
H15_2 H 0.7376 0.9834 0.1855
O15_2 O 0.9326(3) 0.0366(3) 0.2605(4)
N10_2 N 0.6586(3) 0.7537(3) 0.0829(4)
C30_2 C 0.9620(4) 0.1621(4) 0.2556(5)
C31_2 C 0.9098(4) 0.1030(4) 0.2656(5)
C32_2 C 0.9761(4) 0.4668(4) 0.1769(5)
H21_2 H 0.9608 0.4921 0.1250
C33_2 C 0.9731(4) 0.3917(4) 0.1752(5)
H22_2 H 0.9535 0.3672 0.1246
N3_2 N 0.8414(3) 0.7463(3) 0.9171(4)
C6_2 C 0.8644(4) 0.6813(4) 0.9483(5)
H3_2 H 0.8779 0.6458 0.9071
C10_2 C 0.8262(4) 0.7979(4) 0.9775(5)
H6_2 H 0.8132 0.8442 0.9568
Zn5_2 Zn 0.82734(5) 0.76150(5) 0.77449(6)
O5_2 O 0.3450(3) 0.3810(3) 0.7802(4)
O6_3 O 0.4326(3) 0.4634(3) 0.7605(4)
H2_4 H 0.5000 0.463(8) 0.7500
N4_2 N 0.4396(3) 0.2679(3) 0.7568(4)
C11_4 C 0.5000 0.2274(5) 0.7500
C12_3 C 0.4620(4) 0.3379(4) 0.7556(5)
C13_3 C 0.4098(4) 0.3970(4) 0.7656(5)
C14_3 C 0.4761(4) 0.0332(4) 0.6769(5)
H7_3 H 0.4608 0.0079 0.6250
C15_3 C 0.4731(4) 0.1083(4) 0.6752(5)
H8_3 H 0.4535 0.1328 0.6246
C16_4 C 0.5000 0.1467(5) 0.7500
O12_2 O 0.6550(3) 0.3810(3) 0.7198(4)
O15_3 O 0.5674(3) 0.4634(3) 0.7395(4)
N12_2 N 0.5604(3) 0.2679(3) 0.7432(4)
C30_3 C 0.5380(4) 0.3379(4) 0.7444(5)
C31_3 C 0.5902(4) 0.3970(4) 0.7344(5)
C32_3 C 0.5239(4) 0.0332(4) 0.8231(5)
H21_3 H 0.5392 0.0079 0.8750
C33_3 C 0.5269(4) 0.1083(4) 0.8248(5)
H22_3 H 0.5465 0.1328 0.8754
C6_3 C 0.6356(4) 0.8187(4) 0.0517(5)
H3_3 H 0.6221 0.8542 0.0929
C10_3 C 0.6738(4) 0.7021(4) 0.0225(5)
H6_3 H 0.6868 0.6558 0.0432
Zn2_4 Zn 0.5000 0.88174(6) 0.7500
O1_3 O 0.8158(3) 0.7791(3) 0.6241(3)
O2_3 O 0.7417(3) 0.8344(3) 0.5231(4)
H1_3 H 0.699(7) 0.857(6) 0.509(8)
O3_3 O 0.5200(3) 0.8886(3) 0.6084(3)
O4_3 O 0.6136(3) 0.8820(3) 0.5164(3)
O7_3 O 0.8117(3) 0.6501(3) 0.7594(4)
N1_3 N 0.7153(3) 0.7867(3) 0.7563(4)
N2_3 N 0.6008(3) 0.8348(3) 0.7511(4)
N5_4 N 0.5000 0.9942(4) 0.7500
N6_3 N 0.7688(4) 0.5487(4) 0.6877(5)
C1_3 C 0.6541(4) 0.8015(4) 0.8023(5)
C2_3 C 0.6988(4) 0.8120(4) 0.6705(5)
C3_3 C 0.6303(4) 0.8403(4) 0.6662(5)
C4_3 C 0.7558(4) 0.8079(4) 0.6024(5)
C5_3 C 0.5852(4) 0.8728(4) 0.5911(5)
C7_3 C 0.6315(4) 0.8343(4) 0.9625(5)
H4_3 H 0.6157 0.8804 0.9438
C8_3 C 0.6501(4) 0.7836(4) 0.8985(5)
C9_3 C 0.6708(4) 0.7152(4) 0.9306(5)
H5_3 H 0.6826 0.6784 0.8903
C17_3 C 0.7831(4) 0.6183(5) 0.6943(6)
H9_3 H 0.7702 0.6469 0.6441
C18_3 C 0.7371(8) 0.5143(6) 0.6074(7)
H10_2 H 0.7309 0.4631 0.6184
H11_3 H 0.6902 0.5360 0.5924
H12_3 H 0.7692 0.5210 0.5579
C19_3 C 0.7879(7) 0.5015(6) 0.7619(10)
H13_2 H 0.7743 0.4523 0.7465
H14_3 H 0.8400 0.5038 0.7747
H15_3 H 0.7624 0.5166 0.8145
O8_3 O 0.1842(3) 0.7791(3) 0.8759(3)
O9_3 O 0.2583(3) 0.8344(3) 0.9769(4)
H16_3 H 0.301(7) 0.857(6) 0.991(8)
O10_3 O 0.4800(3) 0.8886(3) 0.8916(3)
O11_3 O 0.3864(3) 0.8820(3) 0.9836(3)
O13_2 O 0.8450(3) 0.8810(3) 0.7802(4)
O14_2 O 0.1550(3) 0.8810(3) 0.7198(4)
O16_3 O 0.1883(3) 0.6501(3) 0.7406(4)
N7_3 N 0.2847(3) 0.7867(3) 0.7437(4)
N8_3 N 0.3992(3) 0.8348(3) 0.7489(4)
N13_2 N 0.9396(3) 0.7679(3) 0.7568(4)
N14_2 N 0.0604(3) 0.7679(3) 0.7432(4)
N15_3 N 0.2312(4) 0.5487(4) 0.8123(5)
C20_3 C 0.3459(4) 0.8015(4) 0.6977(5)
C21_3 C 0.3012(4) 0.8120(4) 0.8295(5)
C22_3 C 0.3697(4) 0.8403(4) 0.8338(5)
C23_3 C 0.2442(4) 0.8079(4) 0.8976(5)
C24_3 C 0.4148(4) 0.8728(4) 0.9089(5)
C25_3 C 0.3644(4) 0.8187(4) 0.4483(5)
H17_3 H 0.3779 0.8542 0.4071
C26_3 C 0.3685(4) 0.8343(4) 0.5375(5)
H18_3 H 0.3843 0.8804 0.5562
C27_3 C 0.3499(4) 0.7836(4) 0.6015(5)
C28_3 C 0.3292(4) 0.7152(4) 0.5694(5)
H19_3 H 0.3174 0.6784 0.6097
C29_3 C 0.3262(4) 0.7021(4) 0.4775(5)
H20_3 H 0.3132 0.6558 0.4568
C34_3 C 0.2169(4) 0.6183(5) 0.8057(6)
H23_3 H 0.2298 0.6469 0.8559
C35_3 C 0.2629(8) 0.5143(6) 0.8926(7)
H24_2 H 0.2691 0.4631 0.8816
H25_3 H 0.3098 0.5360 0.9076
H26_3 H 0.2308 0.5210 0.9421
C36_3 C 0.2121(7) 0.5015(6) 0.7381(10)
H27_2 H 0.2257 0.4523 0.7535
H28_3 H 0.1600 0.5038 0.7253
H29_3 H 0.2376 0.5166 0.6855
C6_4 C 0.1356(4) 0.3187(4) 0.0517(5)
H3_4 H 0.1221 0.3542 0.0929
C10_4 C 0.1738(4) 0.2021(4) 0.0225(5)
H6_4 H 0.1868 0.1558 0.0432
Zn2_5 Zn 0.0000 0.38174(6) 0.7500
O1_4 O 0.3158(3) 0.2791(3) 0.6241(3)
O2_4 O 0.2417(3) 0.3344(3) 0.5231(4)
H1_4 H 0.199(7) 0.357(6) 0.509(8)
O3_4 O 0.0200(3) 0.3886(3) 0.6084(3)
O4_4 O 0.1136(3) 0.3820(3) 0.5164(3)
H2_5 H -0.0000 0.963(8) 0.7500
O7_4 O 0.3117(3) 0.1501(3) 0.7594(4)
N1_4 N 0.2153(3) 0.2867(3) 0.7563(4)
N2_4 N 0.1008(3) 0.3348(3) 0.7511(4)
N5_5 N 0.0000 0.4942(4) 0.7500
N6_4 N 0.2688(4) 0.0487(4) 0.6877(5)
C1_4 C 0.1541(4) 0.3015(4) 0.8023(5)
C2_4 C 0.1988(4) 0.3120(4) 0.6705(5)
C3_4 C 0.1303(4) 0.3403(4) 0.6662(5)
C4_4 C 0.2558(4) 0.3079(4) 0.6024(5)
C5_4 C 0.0852(4) 0.3728(4) 0.5911(5)
C7_4 C 0.1315(4) 0.3343(4) 0.9625(5)
H4_4 H 0.1157 0.3804 0.9438
C8_4 C 0.1501(4) 0.2836(4) 0.8985(5)
C9_4 C 0.1708(4) 0.2152(4) 0.9306(5)
H5_4 H 0.1826 0.1784 0.8903
C11_5 C 0.0000 0.7274(5) 0.7500
C16_5 C 0.0000 0.6467(5) 0.7500
C17_4 C 0.2831(4) 0.1183(5) 0.6943(6)
H9_4 H 0.2702 0.1469 0.6441
C18_4 C 0.2371(8) 0.0143(6) 0.6074(7)
H11_4 H 0.1902 0.0360 0.5924
H12_4 H 0.2692 0.0210 0.5579
C19_4 C 0.2879(7) 0.0015(6) 0.7619(10)
H14_4 H 0.3400 0.0038 0.7747
H15_4 H 0.2624 0.0166 0.8145
O15_4 O 0.0674(3) 0.9634(3) 0.7395(4)
C30_4 C 0.0380(4) 0.8379(4) 0.7444(5)
C31_4 C 0.0902(4) 0.8970(4) 0.7344(5)
C32_4 C 0.0239(4) 0.5332(4) 0.8231(5)
H21_4 H 0.0392 0.5079 0.8750
C33_4 C 0.0269(4) 0.6083(4) 0.8248(5)
H22_4 H 0.0465 0.6328 0.8754
Zn2_6 Zn 1.0000 0.38174(6) 0.7500
O6_4 O 0.9326(3) 0.9634(3) 0.7605(4)
H2_6 H 1.0000 0.963(8) 0.7500
N5_6 N 1.0000 0.4942(4) 0.7500
C11_6 C 1.0000 0.7274(5) 0.7500
C12_4 C 0.9620(4) 0.8379(4) 0.7556(5)
C13_4 C 0.9098(4) 0.8970(4) 0.7656(5)
C14_4 C 0.9761(4) 0.5332(4) 0.6769(5)
H7_4 H 0.9608 0.5079 0.6250
C15_4 C 0.9731(4) 0.6083(4) 0.6752(5)
H8_4 H 0.9535 0.6328 0.6246
C16_6 C 1.0000 0.6467(5) 0.7500
O8_4 O 0.6842(3) 0.2791(3) 0.8759(3)
O9_4 O 0.7583(3) 0.3344(3) 0.9769(4)
H16_4 H 0.801(7) 0.357(6) 0.991(8)
O10_4 O 0.9800(3) 0.3886(3) 0.8916(3)
O11_4 O 0.8864(3) 0.3820(3) 0.9836(3)
O16_4 O 0.6883(3) 0.1501(3) 0.7406(4)
N7_4 N 0.7847(3) 0.2867(3) 0.7437(4)
N8_4 N 0.8992(3) 0.3348(3) 0.7489(4)
N15_4 N 0.7312(4) 0.0487(4) 0.8123(5)
C20_4 C 0.8459(4) 0.3015(4) 0.6977(5)
C21_4 C 0.8012(4) 0.3120(4) 0.8295(5)
C22_4 C 0.8697(4) 0.3403(4) 0.8338(5)
C23_4 C 0.7442(4) 0.3079(4) 0.8976(5)
C24_4 C 0.9148(4) 0.3728(4) 0.9089(5)
C25_4 C 0.8644(4) 0.3187(4) 0.4483(5)
H17_4 H 0.8779 0.3542 0.4071
C26_4 C 0.8685(4) 0.3343(4) 0.5375(5)
H18_4 H 0.8843 0.3804 0.5562
C27_4 C 0.8499(4) 0.2836(4) 0.6015(5)
C28_4 C 0.8292(4) 0.2152(4) 0.5694(5)
H19_4 H 0.8174 0.1784 0.6097
C29_4 C 0.8262(4) 0.2021(4) 0.4775(5)
H20_4 H 0.8132 0.1558 0.4568
C34_4 C 0.7169(4) 0.1183(5) 0.8057(6)
H23_4 H 0.7298 0.1469 0.8559
C35_4 C 0.7629(8) 0.0143(6) 0.8926(7)
H25_4 H 0.8098 0.0360 0.9076
H26_4 H 0.7308 0.0210 0.9421
C36_4 C 0.7121(7) 0.0015(6) 0.7381(10)
H28_4 H 0.6600 0.0038 0.7253
H29_4 H 0.7376 0.0166 0.6855
H24_3 H 0.2309 0.0369 0.1184
H27_3 H 0.2743 0.0477 0.2465
H10_3 H 0.7691 0.0369 0.3816
H13_3 H 0.7257 0.0477 0.2535
H10_4 H 0.2309 0.9631 0.6184
H13_4 H 0.2743 0.9523 0.7465
H24_4 H 0.7691 0.9631 0.8816
H27_4 H 0.7257 0.9523 0.7535
loop_
_geom_bond_atom_site_label_1
_geom_bond_atom_site_label_2
_geom_bond_site_symmetry_1
_geom_bond_site_symmetry_2
Zn1 O1 1_555 1_555
Zn2 O3 1_555 1_555
O1 C4 1_555 1_555
O2 H1 1_555 1_555
O3 C5 1_555 1_555
O4 C5 1_555 1_555
O7 Zn1 1_555 1_555
N1 Zn1 1_555 1_555
N2 Zn2 1_555 1_555
N5 Zn2 1_555 1_555
N6 C17 1_555 1_555
C1 N1 1_555 1_555
C2 N1 1_555 1_555
C3 N2 1_555 1_555
C4 O2 1_555 1_555
C5 C3 1_555 1_555
H4 C7 1_555 1_555
C8 C1 1_555 1_555
C9 C8 1_555 1_555
H5 C9 1_555 1_555
C17 O7 1_555 1_555
H9 C17 1_555 1_555
C18 N6 1_555 1_555
H10 C18 1_555 1_555
H11 C18 1_555 1_555
H12 C18 1_555 1_555
C19 N6 1_555 1_555
H13 C19 1_555 1_555
H14 C19 1_555 1_555
H15 C19 1_555 1_555
Zn3 O8 1_555 1_555
Zn7 N9 1_555 1_555
O8 C23 1_555 1_555
O9 H16 1_555 1_555
O10 Zn2 1_555 1_555
O11 C24 1_555 1_555
O13 Zn1 1_555 1_555
O14 Zn3 1_555 1_555
O16 Zn3 1_555 1_555
N7 Zn3 1_555 1_555
N8 Zn2 1_555 1_555
N9 C25 1_555 1_555
N10 Zn1 1_555 1_555
N11 Zn3 1_555 1_555
N13 Zn1 1_555 1_555
N14 Zn3 1_555 1_555
N15 C34 1_555 1_555
C20 N7 1_555 1_555
C21 N7 1_555 1_555
C22 N8 1_555 1_555
C23 O9 1_555 1_555
C24 O10 1_555 1_555
C25 H17 1_555 1_555
C26 C25 1_555 1_555
H18 C26 1_555 1_555
C27 C20 1_555 1_555
C28 C27 1_555 1_555
H19 C28 1_555 1_555
C29 N9 1_555 1_555
H20 C29 1_555 1_555
C34 O16 1_555 1_555
H23 C34 1_555 1_555
C35 N15 1_555 1_555
H24 C35 1_555 1_555
H25 C35 1_555 1_555
H26 C35 1_555 1_555
C36 N15 1_555 1_555
H27 C36 1_555 1_555
H28 C36 1_555 1_555
H29 C36 1_555 1_555
N2 C1 1_555 1_555
C2 C3 1_555 1_555
C2 C4 1_555 1_555
C7 C8 1_555 1_555
N8 C20 1_555 1_555
C21 C22 1_555 1_555
C21 C23 1_555 1_555
C22 C24 1_555 1_555
C26 C27 1_555 1_555
C28 C29 1_555 1_555
N3 C6 1_555 1_555
C6 H3 1_555 1_555
C10 N3 1_555 1_555
H6 C10 1_555 1_555
Zn5 N3 1_555 1_555
O5 C13 1_555 1_555
O6 H2 1_555 1_555
H2 O15 1_555 1_555
N4 C11 1_555 1_555
C11 C16 1_555 1_555
C12 N4 1_555 1_555
C13 O6 1_555 1_555
H7 C14 1_555 1_555
C15 C14 1_555 1_555
H8 C15 1_555 1_555
C16 C15 1_555 1_555
Zn4 O5 1_555 1_555
Zn6 O12 1_555 1_555
O12 C31 1_555 1_555
O15 C31 1_555 1_555
N12 C11 1_555 1_555
C30 C12 1_555 1_555
C31 C30 1_555 1_555
H21 C32 1_555 1_555
C33 C16 1_555 1_555
H22 C33 1_555 1_555
N4 Zn4 1_555 1_555
C12 C13 1_555 1_555
Zn6 N12 1_555 1_555
N12 C30 1_555 1_555
C32 C33 1_555 1_555
O13 C13_2 1_555 1_555
O6_2 H2_2 1_555 1_555
N13 C11_2 1_555 1_555
N5_2 Zn2_2 1_555 1_555
C11_2 C16_2 1_555 1_555
C12_2 N13 1_555 1_555
C13_2 O6_2 1_555 1_555
C14_2 N5_2 1_555 1_555
H7_2 C14_2 1_555 1_555
C15_2 C14_2 1_555 1_555
H8_2 C15_2 1_555 1_555
C16_2 C15_2 1_555 1_555
Zn6 O8_2 1_555 1_555
Zn7_2 N9_2 1_555 1_555
O8_2 C23_2 1_555 1_555
O9_2 H16_2 1_555 1_555
O10_2 Zn2_2 1_555 1_555
O11_2 C24_2 1_555 1_555
O16_2 Zn6 1_555 1_555
N7_2 Zn6 1_555 1_555
N8_2 Zn2_2 1_555 1_555
N9_2 C25_2 1_555 1_555
N11_2 Zn6 1_555 1_555
N15_2 C34_2 1_555 1_555
C20_2 N7_2 1_555 1_555
C21_2 N7_2 1_555 1_555
C22_2 N8_2 1_555 1_555
C23_2 O9_2 1_555 1_555
C24_2 O10_2 1_555 1_555
C25_2 H17_2 1_555 1_555
C26_2 C25_2 1_555 1_555
H18_2 C26_2 1_555 1_555
C27_2 C20_2 1_555 1_555
C28_2 C27_2 1_555 1_555
H19_2 C28_2 1_555 1_555
C29_2 N9_2 1_555 1_555
H20_2 C29_2 1_555 1_555
C34_2 O16_2 1_555 1_555
H23_2 C34_2 1_555 1_555
C35_2 N15_2 1_555 1_555
H25_2 C35_2 1_555 1_555
H26_2 C35_2 1_555 1_555
C36_2 N15_2 1_555 1_555
H28_2 C36_2 1_555 1_555
H29_2 C36_2 1_555 1_555
C12_2 C13_2 1_555 1_555
N8_2 C20_2 1_555 1_555
C21_2 C22_2 1_555 1_555
C21_2 C23_2 1_555 1_555
C22_2 C24_2 1_555 1_555
C26_2 C27_2 1_555 1_555
C28_2 C29_2 1_555 1_555
Zn4 O1_2 1_555 1_555
Zn2_3 O3_2 1_555 1_555
O1_2 C4_2 1_555 1_555
O2_2 H1_2 1_555 1_555
O3_2 C5_2 1_555 1_555
O4_2 C5_2 1_555 1_555
H2_3 O15_2 1_555 1_555
O7_2 Zn4 1_555 1_555
N1_2 Zn4 1_555 1_555
N2_2 Zn2_3 1_555 1_555
N5_3 Zn2_3 1_555 1_555
N6_2 C17_2 1_555 1_555
C1_2 N1_2 1_555 1_555
C2_2 N1_2 1_555 1_555
C3_2 N2_2 1_555 1_555
C4_2 O2_2 1_555 1_555
C5_2 C3_2 1_555 1_555
H4_2 C7_2 1_555 1_555
C8_2 C1_2 1_555 1_555
C9_2 C8_2 1_555 1_555
H5_2 C9_2 1_555 1_555
C11_3 C16_3 1_555 1_555
C17_2 O7_2 1_555 1_555
H9_2 C17_2 1_555 1_555
C18_2 N6_2 1_555 1_555
H11_2 C18_2 1_555 1_555
H12_2 C18_2 1_555 1_555
C19_2 N6_2 1_555 1_555
H14_2 C19_2 1_555 1_555
H15_2 C19_2 1_555 1_555
O14 C31_2 1_555 1_555
O15_2 C31_2 1_555 1_555
N10_2 Zn4 1_555 1_555
N14 C11_3 1_555 1_555
C31_2 C30_2 1_555 1_555
C32_2 N5_3 1_555 1_555
H21_2 C32_2 1_555 1_555
C33_2 C16_3 1_555 1_555
H22_2 C33_2 1_555 1_555
N2_2 C1_2 1_555 1_555
C2_2 C3_2 1_555 1_555
C2_2 C4_2 1_555 1_555
C7_2 C8_2 1_555 1_555
N14 C30_2 1_555 1_555
C32_2 C33_2 1_555 1_555
N3_2 C6_2 1_555 1_555
C6_2 H3_2 1_555 1_555
C10_2 N3_2 1_555 1_555
H6_2 C10_2 1_555 1_555
Zn5_2 N3_2 1_555 1_555
O5_2 C13_3 1_555 1_555
O6_3 H2_4 1_555 1_555
H2_4 O15_3 1_555 1_555
N4_2 C11_4 1_555 1_555
C11_4 C16_4 1_555 1_555
C12_3 N4_2 1_555 1_555
C13_3 O6_3 1_555 1_555
H7_3 C14_3 1_555 1_555
C15_3 C14_3 1_555 1_555
H8_3 C15_3 1_555 1_555
C16_4 C15_3 1_555 1_555
Zn5 O5_2 1_555 1_555
Zn7 O12_2 1_555 1_555
O12_2 C31_3 1_555 1_555
O15_3 C31_3 1_555 1_555
N12_2 C11_4 1_555 1_555
C30_3 C12_3 1_555 1_555
C31_3 C30_3 1_555 1_555
H21_3 C32_3 1_555 1_555
C33_3 C16_4 1_555 1_555
H22_3 C33_3 1_555 1_555
N4_2 Zn5 1_555 1_555
C12_3 C13_3 1_555 1_555
Zn7 N12_2 1_555 1_555
N12_2 C30_3 1_555 1_555
C32_3 C33_3 1_555 1_555
N10_2 C6_3 1_555 1_555
C6_3 H3_3 1_555 1_555
C10_3 N10_2 1_555 1_555
H6_3 C10_3 1_555 1_555
Zn5_2 O1_3 1_555 1_555
Zn2_4 O3_3 1_555 1_555
O1_3 C4_3 1_555 1_555
O2_3 H1_3 1_555 1_555
O3_3 C5_3 1_555 1_555
O4_3 C5_3 1_555 1_555
O7_3 Zn5_2 1_555 1_555
N1_3 Zn5_2 1_555 1_555
N2_3 Zn2_4 1_555 1_555
N5_4 Zn2_4 1_555 1_555
N6_3 C17_3 1_555 1_555
C1_3 N1_3 1_555 1_555
C2_3 N1_3 1_555 1_555
C3_3 N2_3 1_555 1_555
C4_3 O2_3 1_555 1_555
C5_3 C3_3 1_555 1_555
H4_3 C7_3 1_555 1_555
C8_3 C1_3 1_555 1_555
C9_3 C8_3 1_555 1_555
H5_3 C9_3 1_555 1_555
C17_3 O7_3 1_555 1_555
H9_3 C17_3 1_555 1_555
C18_3 N6_3 1_555 1_555
H10_2 C18_3 1_555 1_555
H11_3 C18_3 1_555 1_555
H12_3 C18_3 1_555 1_555
C19_3 N6_3 1_555 1_555
H13_2 C19_3 1_555 1_555
H14_3 C19_3 1_555 1_555
H15_3 C19_3 1_555 1_555
Zn7_2 O8_3 1_555 1_555
O8_3 C23_3 1_555 1_555
O9_3 H16_3 1_555 1_555
O10_3 Zn2_4 1_555 1_555
O11_3 C24_3 1_555 1_555
O13_2 Zn5_2 1_555 1_555
O14_2 Zn7_2 1_555 1_555
O16_3 Zn7_2 1_555 1_555
N7_3 Zn7_2 1_555 1_555
N8_3 Zn2_4 1_555 1_555
N11_2 C25_3 1_555 1_555
N13_2 Zn5_2 1_555 1_555
N14_2 Zn7_2 1_555 1_555
N15_3 C34_3 1_555 1_555
C20_3 N7_3 1_555 1_555
C21_3 N7_3 1_555 1_555
C22_3 N8_3 1_555 1_555
C23_3 O9_3 1_555 1_555
C24_3 O10_3 1_555 1_555
C25_3 H17_3 1_555 1_555
C26_3 C25_3 1_555 1_555
H18_3 C26_3 1_555 1_555
C27_3 C20_3 1_555 1_555
C28_3 C27_3 1_555 1_555
H19_3 C28_3 1_555 1_555
C29_3 N11_2 1_555 1_555
H20_3 C29_3 1_555 1_555
C34_3 O16_3 1_555 1_555
H23_3 C34_3 1_555 1_555
C35_3 N15_3 1_555 1_555
H24_2 C35_3 1_555 1_555
H25_3 C35_3 1_555 1_555
H26_3 C35_3 1_555 1_555
C36_3 N15_3 1_555 1_555
H27_2 C36_3 1_555 1_555
H28_3 C36_3 1_555 1_555
H29_3 C36_3 1_555 1_555
N2_3 C1_3 1_555 1_555
C2_3 C3_3 1_555 1_555
C2_3 C4_3 1_555 1_555
C7_3 C8_3 1_555 1_555
N8_3 C20_3 1_555 1_555
C21_3 C22_3 1_555 1_555
C21_3 C23_3 1_555 1_555
C22_3 C24_3 1_555 1_555
C26_3 C27_3 1_555 1_555
C28_3 C29_3 1_555 1_555
N10 C6_4 1_555 1_555
C6_4 H3_4 1_555 1_555
C10_4 N10 1_555 1_555
H6_4 C10_4 1_555 1_555
Zn5 O1_4 1_555 1_555
Zn2_5 O3_4 1_555 1_555
O1_4 C4_4 1_555 1_555
O2_4 H1_4 1_555 1_555
O3_4 C5_4 1_555 1_555
O4_4 C5_4 1_555 1_555
H2_5 O15_4 1_555 1_555
O7_4 Zn5 1_555 1_555
N1_4 Zn5 1_555 1_555
N2_4 Zn2_5 1_555 1_555
N5_5 Zn2_5 1_555 1_555
N6_4 C17_4 1_555 1_555
C1_4 N1_4 1_555 1_555
C2_4 N1_4 1_555 1_555
C3_4 N2_4 1_555 1_555
C4_4 O2_4 1_555 1_555
C5_4 C3_4 1_555 1_555
H4_4 C7_4 1_555 1_555
C8_4 C1_4 1_555 1_555
C9_4 C8_4 1_555 1_555
H5_4 C9_4 1_555 1_555
C11_5 C16_5 1_555 1_555
C17_4 O7_4 1_555 1_555
H9_4 C17_4 1_555 1_555
C18_4 N6_4 1_555 1_555
H11_4 C18_4 1_555 1_555
H12_4 C18_4 1_555 1_555
C19_4 N6_4 1_555 1_555
H14_4 C19_4 1_555 1_555
H15_4 C19_4 1_555 1_555
O14_2 C31_4 1_555 1_555
O15_4 C31_4 1_555 1_555
N14_2 C11_5 1_555 1_555
C31_4 C30_4 1_555 1_555
C32_4 N5_5 1_555 1_555
H21_4 C32_4 1_555 1_555
C33_4 C16_5 1_555 1_555
H22_4 C33_4 1_555 1_555
N2_4 C1_4 1_555 1_555
C2_4 C3_4 1_555 1_555
C2_4 C4_4 1_555 1_555
C7_4 C8_4 1_555 1_555
N14_2 C30_4 1_555 1_555
C32_4 C33_4 1_555 1_555
O13_2 C13_4 1_555 1_555
O6_4 H2_6 1_555 1_555
N13_2 C11_6 1_555 1_555
N5_6 Zn2_6 1_555 1_555
C11_6 C16_6 1_555 1_555
C12_4 N13_2 1_555 1_555
C13_4 O6_4 1_555 1_555
C14_4 N5_6 1_555 1_555
H7_4 C14_4 1_555 1_555
C15_4 C14_4 1_555 1_555
H8_4 C15_4 1_555 1_555
C16_6 C15_4 1_555 1_555
Zn7 O8_4 1_555 1_555
O8_4 C23_4 1_555 1_555
O9_4 H16_4 1_555 1_555
O10_4 Zn2_6 1_555 1_555
O11_4 C24_4 1_555 1_555
O16_4 Zn7 1_555 1_555
N7_4 Zn7 1_555 1_555
N8_4 Zn2_6 1_555 1_555
N11 C25_4 1_555 1_555
N15_4 C34_4 1_555 1_555
C20_4 N7_4 1_555 1_555
C21_4 N7_4 1_555 1_555
C22_4 N8_4 1_555 1_555
C23_4 O9_4 1_555 1_555
C24_4 O10_4 1_555 1_555
C25_4 H17_4 1_555 1_555
C26_4 C25_4 1_555 1_555
H18_4 C26_4 1_555 1_555
C27_4 C20_4 1_555 1_555
C28_4 C27_4 1_555 1_555
H19_4 C28_4 1_555 1_555
C29_4 N11 1_555 1_555
H20_4 C29_4 1_555 1_555
C34_4 O16_4 1_555 1_555
H23_4 C34_4 1_555 1_555
C35_4 N15_4 1_555 1_555
H25_4 C35_4 1_555 1_555
H26_4 C35_4 1_555 1_555
C36_4 N15_4 1_555 1_555
H28_4 C36_4 1_555 1_555
H29_4 C36_4 1_555 1_555
C12_4 C13_4 1_555 1_555
N8_4 C20_4 1_555 1_555
C21_4 C22_4 1_555 1_555
C21_4 C23_4 1_555 1_555
C22_4 C24_4 1_555 1_555
C26_4 C27_4 1_555 1_555
C28_4 C29_4 1_555 1_555

#END
