
###############################################################################
#
# This file contains modified crystal structure data generated from the
# MOF subset of the Cambridge Structural Database (CSD) v543 
# hosted by the Cambridge Crystallographic Data Centre (CCDC).
#
# This work is licensed under the Creative Commons
# Attribution-NonCommercial-ShareAlike 4.0 International License.
# To view a copy of this license, visit
# http://creativecommons.org/licenses/by-nc-sa/4.0/
# or send a letter to
# Creative Commons, PO Box 1866, Mountain View, CA 94042, USA.
#
# CIF created using the CSD Python API on 29 September 2022
# The structure has been converted into the P1 space group
# The structure has a 3D framework
# The original CSD entry RUWWOW is in the triclinic crystal system
# The framework has been calculated to contain at least 10.0% void space
# The void calculation uses a probe of radius 1.32A, grid spacing 0.4
#
###############################################################################

data_RUWWOW
_chemical_formula_moiety         '(C30 H22 O16)n'
_symmetry_cell_setting           triclinic
_symmetry_space_group_name_H-M   'P 1'
_symmetry_Int_Tables_number      1
_space_group_name_Hall           'P 1'
loop_
_symmetry_equiv_pos_site_id
_symmetry_equiv_pos_as_xyz
1 x,y,z
_cell_length_a                   9.376(5)
_cell_length_b                   9.940(4)
_cell_length_c                   11.377(7)
_cell_angle_alpha                92.979(6)
_cell_angle_beta                 97.836(5)
_cell_angle_gamma                110.330(3)
_cell_volume                     979.326
loop_
_atom_site_label
_atom_site_type_symbol
_atom_site_fract_x
_atom_site_fract_y
_atom_site_fract_z
_atom_site_U_iso_or_equiv
_atom_site_thermal_displace_type
O8 O 0.4946(9) 0.2204(8) 0.1471(7) 0.0289 Uani
O9 O 0.1891(9) 0.0471(9) 0.1883(8) 0.0332 Uani
H8 H 0.55(2) 0.18(2) 0.186(18) 0.0500 Uiso
H9 H 0.517(17) 0.316(3) 0.154(13) 0.0600 Uiso
H10 H 0.263(9) 0.10(3) 0.250(6) 0.0500 Uiso
H11 H 0.090(5) 0.031(14) 0.192(12) 0.0400 Uiso
La1 La 0.28444(7) 0.04771(6) 0.98322(6) 0.0197 Uani
O13 O 0.1776(7) 0.2352(7) 0.9825(7) 0.0223 Uani
O15 O 0.4551(8) 0.2525(7) 0.8818(7) 0.0234 Uani
O19 O 0.5821(8) 0.1064(7) 0.9214(6) 0.0215 Uiso
O6 O 0.7146(8) 0.1042(9) 0.2037(6) 0.0286 Uani
O7 O 0.8860(8) 0.0012(7) 0.2293(7) 0.0269 Uani
C1 C 0.9257(12) 0.7405(10) 0.9701(9) 0.0233 Uani
C2 C 0.8930(11) 0.5932(10) 0.9113(9) 0.0196 Uani
C3 C 0.7542(11) 0.4811(10) 0.9203(9) 0.0194 Uani
H1 H 0.6827 0.5021 0.9599 0.0230 Uiso
C4 C 0.7215(10) 0.3430(10) 0.8730(9) 0.0212 Uani
C5 C 0.5770(11) 0.2278(9) 0.8937(9) 0.0195 Uani
C6 C 0.8259(12) 0.3114(11) 0.8089(9) 0.0247 Uani
H2 H 0.8078 0.2173 0.7781 0.0300 Uiso
C7 C 0.9565(11) 0.4239(10) 0.7929(8) 0.0184 Uani
C8 C 0.9944(11) 0.5631(10) 0.8454(9) 0.0224 Uani
C9 C 0.9994(11) 0.3231(10) 0.6112(8) 0.0174 Uani
C10 C 0.8760(11) 0.3421(10) 0.5422(9) 0.0233 Uani
H4 H 0.8300 0.4034 0.5710 0.0280 Uiso
C11 C 0.8223(13) 0.2677(11) 0.4290(10) 0.0287 Uani
H5 H 0.7388 0.2780 0.3811 0.0340 Uiso
C12 C 0.8945(11) 0.1770(11) 0.3870(9) 0.0219 Uani
C13 C 0.8288(12) 0.0913(10) 0.2674(9) 0.0233 Uani
O10 O 0.9407(7) 0.1642(7) 0.0311(6) 0.0222 Uani
O22 O 0.9392(7) 0.6034(7) 0.2741(6) 0.0208 Uani
H14 H 0.9138 0.3649 0.1632 0.0270 Uiso
C29 C 0.9794(13) 0.8358(11) 0.5442(9) 0.0260 Uani
H17 H 0.9303 0.8939 0.5737 0.0310 Uiso
C30 C 0.9254(12) 0.7620(11) 0.4311(10) 0.0263 Uani
H18 H 0.8398 0.7697 0.3842 0.0320 Uiso
O21 O 0.4179(8) 0.8936(7) 0.0786(6) 0.0215 Uiso
O1 O 0.0593(7) 0.8358(7) 0.9689(6) 0.0222 Uani
O5 O 0.0608(7) 0.3966(7) 0.7259(6) 0.0208 Uani
H3 H 0.0862 0.6351 0.8368 0.0270 Uiso
C14 C 0.0206(13) 0.1642(11) 0.4558(9) 0.0260 Uani
H6 H 0.0697 0.1061 0.4263 0.0310 Uiso
C15 C 0.0746(12) 0.2380(11) 0.5689(10) 0.0263 Uani
H7 H 0.1602 0.2303 0.6158 0.0320 Uiso
La8 La 0.71556(7) 0.95229(6) 0.01678(6) 0.0197 Uani
O14 O 0.5449(8) 0.7475(7) 0.1182(7) 0.0234 Uani
O23 O 0.2854(8) 0.8958(9) 0.7963(6) 0.0286 Uani
O24 O 0.1140(8) 0.9988(7) 0.7707(7) 0.0269 Uani
C16 C 0.0743(12) 0.2595(10) 0.0299(9) 0.0233 Uani
C17 C 0.1070(11) 0.4068(10) 0.0887(9) 0.0196 Uani
C18 C 0.2458(11) 0.5189(10) 0.0797(9) 0.0194 Uani
H12 H 0.3173 0.4979 0.0401 0.0230 Uiso
C19 C 0.2785(10) 0.6570(10) 0.1270(9) 0.0212 Uani
C20 C 0.4230(11) 0.7722(9) 0.1063(9) 0.0195 Uani
C21 C 0.1741(12) 0.6886(11) 0.1911(9) 0.0247 Uani
H13 H 0.1922 0.7827 0.2219 0.0300 Uiso
C22 C 0.0435(11) 0.5761(10) 0.2071(8) 0.0184 Uani
C23 C 0.0056(11) 0.4369(10) 0.1546(9) 0.0224 Uani
C24 C 0.0006(11) 0.6769(10) 0.3888(8) 0.0174 Uani
C25 C 0.1240(11) 0.6579(10) 0.4578(9) 0.0233 Uani
H15 H 0.1700 0.5966 0.4290 0.0280 Uiso
C26 C 0.1777(13) 0.7323(11) 0.5710(10) 0.0287 Uani
H16 H 0.2612 0.7220 0.6189 0.0340 Uiso
C27 C 0.1055(11) 0.8230(11) 0.6130(9) 0.0219 Uani
C28 C 0.1712(12) 0.9087(10) 0.7326(9) 0.0233 Uani
O2 O 0.8224(7) 0.7648(7) 0.0175(7) 0.0223 Uani
O25 O 0.5054(9) 0.7796(8) 0.8529(7) 0.0289 Uani
O26 O 0.8109(9) 0.9529(9) 0.8117(8) 0.0332 Uani
H19 H 0.45(2) 0.82(2) 0.814(18) 0.0500 Uiso
H20 H 0.483(17) 0.684(3) 0.846(13) 0.0600 Uiso
H21 H 0.737(9) 0.90(3) 0.750(6) 0.0500 Uiso
H22 H 0.910(5) 0.969(14) 0.808(12) 0.0400 Uiso
loop_
_atom_site_aniso_label
_atom_site_aniso_U_11
_atom_site_aniso_U_22
_atom_site_aniso_U_33
_atom_site_aniso_U_23
_atom_site_aniso_U_13
_atom_site_aniso_U_12
O8 0.026 0.02 0.038 -0.004 0.005 0.006
O9 0.023 0.038 0.039 0.003 0.012 0.009
La1 0.0155 0.015 0.0273 0 0.007 0.0027
O13 0.013 0.017 0.037 -0.001 0.012 0.003
O15 0.017 0.009 0.039 0.001 0.003 -0.001
O6 0.016 0.043 0.026 -0.003 -0.001 0.012
O7 0.024 0.022 0.035 0 0.005 0.009
C1 0.027 0.018 0.026 0.016 0.008 0.006
C2 0.02 0.018 0.023 0.001 0.008 0.008
C3 0.014 0.016 0.025 0.003 0.001 0.002
C4 0.01 0.024 0.03 0.01 0.005 0.005
C5 0.021 0.005 0.029 -0.004 0.004 0.001
C6 0.025 0.024 0.025 0 0.001 0.01
C7 0.018 0.023 0.016 0.002 0.004 0.009
C8 0.018 0.02 0.026 0.007 0.004 0.002
C9 0.02 0.016 0.018 0 0.011 0.006
C10 0.02 0.019 0.026 -0.004 0.001 0.003
C11 0.026 0.025 0.035 0.001 0.009 0.008
C12 0.012 0.027 0.027 0.001 0.008 0.006
C13 0.035 0.016 0.022 0.002 0.021 0.007
O10 0.015 0.013 0.034 0 0.009 -0.002
O22 0.014 0.026 0.02 -0.004 0.006 0.004
C29 0.036 0.024 0.021 0.002 0.017 0.01
C30 0.02 0.028 0.032 0.006 0.006 0.009
O1 0.015 0.013 0.034 0 0.009 -0.002
O5 0.014 0.026 0.02 -0.004 0.006 0.004
C14 0.036 0.024 0.021 0.002 0.017 0.01
C15 0.02 0.028 0.032 0.006 0.006 0.009
La8 0.0155 0.015 0.0273 0 0.007 0.0027
O14 0.017 0.009 0.039 0.001 0.003 -0.001
O23 0.016 0.043 0.026 -0.003 -0.001 0.012
O24 0.024 0.022 0.035 0 0.005 0.009
C16 0.027 0.018 0.026 0.016 0.008 0.006
C17 0.02 0.018 0.023 0.001 0.008 0.008
C18 0.014 0.016 0.025 0.003 0.001 0.002
C19 0.01 0.024 0.03 0.01 0.005 0.005
C20 0.021 0.005 0.029 -0.004 0.004 0.001
C21 0.025 0.024 0.025 0 0.001 0.01
C22 0.018 0.023 0.016 0.002 0.004 0.009
C23 0.018 0.02 0.026 0.007 0.004 0.002
C24 0.02 0.016 0.018 0 0.011 0.006
C25 0.02 0.019 0.026 -0.004 0.001 0.003
C26 0.026 0.025 0.035 0.001 0.009 0.008
C27 0.012 0.027 0.027 0.001 0.008 0.006
C28 0.035 0.016 0.022 0.002 0.021 0.007
O2 0.013 0.017 0.037 -0.001 0.012 0.003
O25 0.026 0.02 0.038 -0.004 0.005 0.006
O26 0.023 0.038 0.039 0.003 0.012 0.009
loop_
_geom_bond_atom_site_label_1
_geom_bond_atom_site_label_2
_geom_bond_site_symmetry_1
_geom_bond_site_symmetry_2
H8 O8 1_555 1_555
H9 O8 1_555 1_555
H10 O9 1_555 1_555
H11 O9 1_555 1_555
O13 La1 1_555 1_555
O15 La1 1_555 1_555
O19 La1 1_555 1_555
O15 C5 1_555 1_555
O19 C5 1_555 1_555
O6 C13 1_555 1_555
O7 C13 1_555 1_555
C1 C2 1_555 1_555
C2 C3 1_555 1_555
C3 H1 1_555 1_555
C4 C3 1_555 1_555
C5 C4 1_555 1_555
C6 C4 1_555 1_555
H2 C6 1_555 1_555
C7 C6 1_555 1_555
C8 C2 1_555 1_555
C10 C9 1_555 1_555
H4 C10 1_555 1_555
C11 C10 1_555 1_555
H5 C11 1_555 1_555
C12 C11 1_555 1_555
C13 C12 1_555 1_555
H17 C29 1_555 1_555
H18 C30 1_555 1_555
C7 C8 1_555 1_555
C29 C30 1_555 1_555
H6 C14 1_555 1_555
H7 C15 1_555 1_555
La8 O14 1_555 1_555
O14 C20 1_555 1_555
O21 La8 1_555 1_555
C17 C16 1_555 1_555
C18 C17 1_555 1_555
H12 C18 1_555 1_555
C19 C18 1_555 1_555
C20 O21 1_555 1_555
C21 C19 1_555 1_555
H13 C21 1_555 1_555
C22 C21 1_555 1_555
C23 C17 1_555 1_555
C25 C24 1_555 1_555
H15 C25 1_555 1_555
C26 C25 1_555 1_555
H16 C26 1_555 1_555
C27 C26 1_555 1_555
C28 O23 1_555 1_555
C14 C15 1_555 1_555
O24 C28 1_555 1_555
C19 C20 1_555 1_555
C22 C23 1_555 1_555
C27 C28 1_555 1_555
La8 O2 1_555 1_555
H19 O25 1_555 1_555
H20 O25 1_555 1_555
H21 O26 1_555 1_555
H22 O26 1_555 1_555

#END
