
###############################################################################
#
# This file contains modified crystal structure data generated from the
# MOF subset of the Cambridge Structural Database (CSD) v543 
# hosted by the Cambridge Crystallographic Data Centre (CCDC).
#
# This work is licensed under the Creative Commons
# Attribution-NonCommercial-ShareAlike 4.0 International License.
# To view a copy of this license, visit
# http://creativecommons.org/licenses/by-nc-sa/4.0/
# or send a letter to
# Creative Commons, PO Box 1866, Mountain View, CA 94042, USA.
#
# CIF created using the CSD Python API on 29 September 2022
# The structure has been converted into the P1 space group
# The structure has a 3D framework
# The original CSD entry RUWWUC is in the triclinic crystal system
# The framework has been calculated to contain at least 10.0% void space
# The void calculation uses a probe of radius 1.32A, grid spacing 0.4
#
###############################################################################

data_RUWWUC
_chemical_formula_moiety         '(C30 H22 La2 O18)n'
_symmetry_cell_setting           triclinic
_symmetry_space_group_name_H-M   'P 1'
_symmetry_Int_Tables_number      1
_space_group_name_Hall           'P 1'
loop_
_symmetry_equiv_pos_site_id
_symmetry_equiv_pos_as_xyz
1 x,y,z
_cell_length_a                   9.480(7)
_cell_length_b                   9.968(5)
_cell_length_c                   11.255(4)
_cell_angle_alpha                92.329(5)
_cell_angle_beta                 98.804(6)
_cell_angle_gamma                110.796(5)
_cell_volume                     977.348
loop_
_atom_site_label
_atom_site_type_symbol
_atom_site_fract_x
_atom_site_fract_y
_atom_site_fract_z
La5 La 0.28370(6) 0.04439(5) 0.98478(5)
O1 O 0.1822(7) 0.2338(7) 0.9843(6)
O11 O 0.4506(6) 0.2516(6) 0.8798(6)
O13 O 0.5769(7) 0.1057(6) 0.9195(5)
O2 O 0.9481(8) 0.1651(7) 0.0271(6)
O5 O 0.9433(7) 0.6025(6) 0.2664(6)
H3 H 0.9202 0.3637 0.1590
C14 C 0.9845(11) 0.8353(10) 0.5383(9)
H6 H 0.9388 0.8962 0.5658
C15 C 0.9308(11) 0.7627(11) 0.4228(9)
H7 H 0.8492 0.7744 0.3729
O14 O 0.7219(7) 0.1176(7) 0.1976(6)
O15 O 0.8868(7) 0.0068(7) 0.2320(6)
C1 C 0.9240(9) 0.7437(9) 0.9705(7)
C2 C 0.8852(10) 0.5935(9) 0.9120(7)
C3 C 0.7477(10) 0.4849(9) 0.9202(8)
H1 H 0.6760 0.5057 0.9578
C4 C 0.7175(10) 0.3447(10) 0.8721(8)
C5 C 0.5732(9) 0.2277(9) 0.8912(7)
C6 C 0.8209(9) 0.3140(9) 0.8123(8)
H2 H 0.8028 0.2195 0.7836
C7 C 0.9517(10) 0.4253(10) 0.7953(8)
C8 C 0.9880(10) 0.5637(8) 0.8480(8)
C9 C 0.9994(10) 0.3277(9) 0.6174(7)
C10 C 0.8809(10) 0.3500(10) 0.5430(8)
H4 H 0.8369 0.4128 0.5696
C11 C 0.8290(11) 0.2767(10) 0.4277(8)
H5 H 0.7495 0.2907 0.3767
C12 C 0.8948(10) 0.1825(9) 0.3876(7)
C13 C 0.8315(10) 0.0964(9) 0.2646(8)
O8 O 0.5087(8) 0.7830(7) 0.8474(7)
O9 O 0.8116(8) 0.9601(8) 0.8086(7)
H8 H 0.768(17) 0.867(3) 0.791(15)
H9 H 0.906(7) 0.987(18) 0.796(15)
H10 H 0.430(17) 0.801(15) 0.829(13)
H11 H 0.474(10) 0.688(3) 0.852(8)
O3 O 0.5494(6) 0.7484(6) 0.1202(6)
O4 O 0.4231(7) 0.8943(6) 0.0805(5)
O6 O 0.2781(7) 0.8824(7) 0.8024(6)
O7 O 0.1132(7) 0.9932(7) 0.7680(6)
C1_2 C 0.0760(9) 0.2563(9) 0.0295(7)
C2_2 C 0.1148(10) 0.4065(9) 0.0880(7)
C3_2 C 0.2523(10) 0.5151(9) 0.0798(8)
H1_2 H 0.3240 0.4943 0.0422
C4_2 C 0.2825(10) 0.6553(10) 0.1279(8)
C5_2 C 0.4268(9) 0.7723(9) 0.1088(7)
C6_2 C 0.1791(9) 0.6860(9) 0.1877(8)
H2_2 H 0.1972 0.7805 0.2164
C7_2 C 0.0483(10) 0.5747(10) 0.2047(8)
C8_2 C 0.0120(10) 0.4363(8) 0.1520(8)
C9_2 C 0.0006(10) 0.6723(9) 0.3826(7)
C10_2 C 0.1191(10) 0.6500(10) 0.4570(8)
H4_2 H 0.1631 0.5872 0.4304
C11_2 C 0.1710(11) 0.7233(10) 0.5723(8)
H5_2 H 0.2505 0.7093 0.6233
C12_2 C 0.1052(10) 0.8175(9) 0.6124(7)
C13_2 C 0.1685(10) 0.9036(9) 0.7354(8)
O8_2 O 0.4913(8) 0.2170(7) 0.1526(7)
O9_2 O 0.1884(8) 0.0399(8) 0.1914(7)
H8_2 H 0.232(17) 0.133(3) 0.209(15)
H9_2 H 0.094(7) 0.013(18) 0.204(15)
H10_2 H 0.570(17) 0.199(15) 0.171(13)
H11_2 H 0.526(10) 0.312(3) 0.148(8)
La3 La 0.71630(6) 0.95561(5) 0.01522(5)
O10 O 0.0519(8) 0.8349(7) 0.9729(6)
O5_2 O 0.0567(7) 0.3975(6) 0.7336(6)
H3_2 H 0.0798 0.6363 0.8410
C14_2 C 0.0155(11) 0.1647(10) 0.4617(9)
H6_2 H 0.0612 0.1038 0.4342
C15_2 C 0.0692(11) 0.2373(11) 0.5772(9)
H7_2 H 0.1508 0.2256 0.6271
O1_2 O 0.8178(7) 0.7662(7) 0.0157(6)
loop_
_geom_bond_atom_site_label_1
_geom_bond_atom_site_label_2
_geom_bond_site_symmetry_1
_geom_bond_site_symmetry_2
La5 O1 1_555 1_555
O11 La5 1_555 1_555
O13 La5 1_555 1_555
H6 C14 1_555 1_555
H7 C15 1_555 1_555
C14 C15 1_555 1_555
O11 C5 1_555 1_555
O13 C5 1_555 1_555
O14 C13 1_555 1_555
O15 C13 1_555 1_555
C1 C2 1_555 1_555
C2 C3 1_555 1_555
C3 H1 1_555 1_555
C4 C3 1_555 1_555
C5 C4 1_555 1_555
C6 C4 1_555 1_555
H2 C6 1_555 1_555
C7 C6 1_555 1_555
C8 C2 1_555 1_555
C10 C9 1_555 1_555
H4 C10 1_555 1_555
C11 C10 1_555 1_555
H5 C11 1_555 1_555
C12 C11 1_555 1_555
C13 C12 1_555 1_555
H8 O9 1_555 1_555
H9 O9 1_555 1_555
H10 O8 1_555 1_555
H11 O8 1_555 1_555
C7 C8 1_555 1_555
O3 C5_2 1_555 1_555
O4 C5_2 1_555 1_555
O6 C13_2 1_555 1_555
O7 C13_2 1_555 1_555
C1_2 C2_2 1_555 1_555
C2_2 C3_2 1_555 1_555
C3_2 H1_2 1_555 1_555
C4_2 C3_2 1_555 1_555
C5_2 C4_2 1_555 1_555
C6_2 C4_2 1_555 1_555
H2_2 C6_2 1_555 1_555
C7_2 C6_2 1_555 1_555
C8_2 C2_2 1_555 1_555
C10_2 C9_2 1_555 1_555
H4_2 C10_2 1_555 1_555
C11_2 C10_2 1_555 1_555
H5_2 C11_2 1_555 1_555
C12_2 C11_2 1_555 1_555
C13_2 C12_2 1_555 1_555
H8_2 O9_2 1_555 1_555
H9_2 O9_2 1_555 1_555
H10_2 O8_2 1_555 1_555
H11_2 O8_2 1_555 1_555
La3 O3 1_555 1_555
O4 La3 1_555 1_555
C7_2 C8_2 1_555 1_555
H6_2 C14_2 1_555 1_555
H7_2 C15_2 1_555 1_555
C14_2 C15_2 1_555 1_555
La3 O1_2 1_555 1_555

#END
