
###############################################################################
#
# This file contains modified crystal structure data generated from the
# MOF subset of the Cambridge Structural Database (CSD) v543 
# hosted by the Cambridge Crystallographic Data Centre (CCDC).
#
# This work is licensed under the Creative Commons
# Attribution-NonCommercial-ShareAlike 4.0 International License.
# To view a copy of this license, visit
# http://creativecommons.org/licenses/by-nc-sa/4.0/
# or send a letter to
# Creative Commons, PO Box 1866, Mountain View, CA 94042, USA.
#
# CIF created using the CSD Python API on 29 September 2022
# The structure has been converted into the P1 space group
# The structure has a 3D framework
# The original CSD entry RUWXEN is in the triclinic crystal system
# The framework has been calculated to contain at least 10.0% void space
# The void calculation uses a probe of radius 1.32A, grid spacing 0.4
#
###############################################################################

data_RUWXEN
_chemical_formula_moiety         '(C30 H22 La2 O16)n'
_symmetry_cell_setting           triclinic
_symmetry_space_group_name_H-M   'P 1'
_symmetry_Int_Tables_number      1
_space_group_name_Hall           'P 1'
loop_
_symmetry_equiv_pos_site_id
_symmetry_equiv_pos_as_xyz
1 x,y,z
_cell_length_a                   9.404(3)
_cell_length_b                   9.957(5)
_cell_length_c                   11.459(8)
_cell_angle_alpha                93.381(5)
_cell_angle_beta                 97.716(4)
_cell_angle_gamma                110.242(5)
_cell_volume                     991.154
loop_
_atom_site_label
_atom_site_type_symbol
_atom_site_fract_x
_atom_site_fract_y
_atom_site_fract_z
O3 O 0.0407(7) 0.2452(6) 0.6157(5)
La3 La 0.21553(5) 0.45274(5) 0.51807(4)
O6 O 0.7879(7) 0.3899(7) 0.2976(5)
O7 O 0.6212(7) 0.5005(6) 0.2679(5)
C11 C 0.4894(10) 0.3400(10) 0.0456(8)
H5 H 0.4404 0.3976 0.0759
C12 C 0.6139(9) 0.3254(8) 0.1143(7)
C13 C 0.6778(9) 0.4101(9) 0.2337(7)
C14 C 0.6795(10) 0.2293(9) 0.0710(7)
H6 H 0.7603 0.2152 0.1183
La5 La 0.78447(5) 0.54726(5) 0.48193(4)
O4 O 0.9164(6) 0.3924(6) 0.5757(5)
O5 O 0.4415(6) 0.1045(6) 0.7744(5)
C4 C 0.5447(9) 0.0777(9) 0.7074(7)
C5 C 0.6731(9) 0.1886(8) 0.6900(7)
H2 H 0.6921 0.2827 0.7213
C6 C 0.7762(9) 0.1567(8) 0.6232(7)
C7 C 0.9196(9) 0.2713(9) 0.6038(7)
C8 C 0.7452(8) 0.0173(8) 0.5760(7)
C9 C 0.5044(9) 0.1778(8) 0.8877(7)
C10 C 0.4354(10) 0.2680(9) 0.9293(7)
H4 H 0.3544 0.2814 0.8816
C15 C 0.6237(10) 0.1544(9) 0.9565(7)
H7 H 0.6665 0.0904 0.9279
O1 O 0.4436(7) 0.6644(6) 0.5343(5)
O2 O 0.6756(6) 0.7339(6) 0.4815(5)
C1 C 0.5717(9) 0.7568(9) 0.5312(7)
C2 C 0.6098(8) 0.9076(8) 0.5906(7)
C3 C 0.5080(8) 0.9386(8) 0.6569(7)
H1 H 0.4173 0.8666 0.6666
H3 H 0.8144 0.9959 0.5343
O8 O 0.0093(7) 0.2802(7) 0.3545(6)
O9 O 0.3139(7) 0.4571(8) 0.3163(6)
H9 H 0.413(5) 0.477(15) 0.310(13)
H10 H 0.28(2) 0.51(4) 0.26(3)
O10 O 0.3244(6) 0.2661(6) 0.5185(5)
O12 O 0.0836(6) 0.6076(6) 0.4243(5)
O14 O 0.2121(7) 0.6101(7) 0.7024(5)
O15 O 0.3788(7) 0.4995(6) 0.7321(5)
H8 H 0.944(8) 0.310(9) 0.309(6)
H11 H 0.979(15) 0.184(2) 0.339(12)
H8_2 H 0.056(8) 0.690(9) 0.691(6)
H11_2 H 0.021(15) 0.816(2) 0.661(12)
O1_2 O 0.5564(7) 0.3356(6) 0.4657(5)
C1_2 C 0.4283(9) 0.2432(9) 0.4688(7)
C2_2 C 0.3902(8) 0.0924(8) 0.4094(7)
C3_2 C 0.4920(8) 0.0614(8) 0.3431(7)
H1_2 H 0.5827 0.1334 0.3334
H3_2 H 0.1856 0.0041 0.4657
O8_2 O 0.9907(7) 0.7198(7) 0.6455(6)
O9_2 O 0.6861(7) 0.5429(8) 0.6837(6)
H9_2 H 0.587(5) 0.523(15) 0.690(13)
H10_2 H 0.72(2) 0.49(4) 0.74(3)
O11 O 0.9593(7) 0.7548(6) 0.3843(5)
O5_2 O 0.5585(6) 0.8955(6) 0.2256(5)
C4_2 C 0.4553(9) 0.9223(9) 0.2926(7)
C5_2 C 0.3269(9) 0.8114(8) 0.3100(7)
H2_2 H 0.3079 0.7173 0.2787
C6_2 C 0.2238(9) 0.8433(8) 0.3768(7)
C7_2 C 0.0804(9) 0.7287(9) 0.3962(7)
C8_2 C 0.2548(8) 0.9827(8) 0.4240(7)
C9_2 C 0.4956(9) 0.8222(8) 0.1123(7)
C10_2 C 0.5646(10) 0.7320(9) 0.0707(7)
H4_2 H 0.6456 0.7186 0.1184
C15_2 C 0.3763(10) 0.8456(9) 0.0435(7)
H7_2 H 0.3335 0.9096 0.0721
C11_2 C 0.5106(10) 0.6600(10) 0.9544(8)
H5_2 H 0.5596 0.6024 0.9241
C12_2 C 0.3861(9) 0.6746(8) 0.8857(7)
C13_2 C 0.3222(9) 0.5899(9) 0.7663(7)
C14_2 C 0.3205(10) 0.7707(9) 0.9290(7)
H6_2 H 0.2397 0.7848 0.8817
loop_
_geom_bond_atom_site_label_1
_geom_bond_atom_site_label_2
_geom_bond_site_symmetry_1
_geom_bond_site_symmetry_2
La3 O3 1_555 1_555
O6 C13 1_555 1_555
O7 C13 1_555 1_555
H5 C11 1_555 1_555
C12 C11 1_555 1_555
C13 C12 1_555 1_555
C14 C12 1_555 1_555
H6 C14 1_555 1_555
La5 O6 1_555 1_555
O7 La5 1_555 1_555
O4 C7 1_555 1_555
O5 C4 1_555 1_555
C5 C4 1_555 1_555
H2 C5 1_555 1_555
C6 C5 1_555 1_555
C7 C6 1_555 1_555
C9 O5 1_555 1_555
C10 C9 1_555 1_555
H4 C10 1_555 1_555
C15 C9 1_555 1_555
H7 C15 1_555 1_555
La5 O4 1_555 1_555
C6 C8 1_555 1_555
La3 O1 1_555 1_555
O1 C1 1_555 1_555
O2 C1 1_555 1_555
C1 C2 1_555 1_555
C2 C3 1_555 1_555
C3 H1 1_555 1_555
O8 La3 1_555 1_555
O9 La3 1_555 1_555
H9 O9 1_555 1_555
H10 O9 1_555 1_555
La5 O2 1_555 1_555
O10 La3 1_555 1_555
O12 La3 1_555 1_555
O14 La3 1_555 1_555
O15 La3 1_555 1_555
La5 O1_2 1_555 1_555
O1_2 C1_2 1_555 1_555
O10 C1_2 1_555 1_555
C1_2 C2_2 1_555 1_555
C2_2 C3_2 1_555 1_555
C3_2 H1_2 1_555 1_555
O8_2 La5 1_555 1_555
O9_2 La5 1_555 1_555
H9_2 O9_2 1_555 1_555
H10_2 O9_2 1_555 1_555
O11 La5 1_555 1_555
O12 C7_2 1_555 1_555
O5_2 C4_2 1_555 1_555
C5_2 C4_2 1_555 1_555
H2_2 C5_2 1_555 1_555
C6_2 C5_2 1_555 1_555
C7_2 C6_2 1_555 1_555
C9_2 O5_2 1_555 1_555
C10_2 C9_2 1_555 1_555
H4_2 C10_2 1_555 1_555
C15_2 C9_2 1_555 1_555
H7_2 C15_2 1_555 1_555
C6_2 C8_2 1_555 1_555
O14 C13_2 1_555 1_555
O15 C13_2 1_555 1_555
H5_2 C11_2 1_555 1_555
C12_2 C11_2 1_555 1_555
C13_2 C12_2 1_555 1_555
C14_2 C12_2 1_555 1_555
H6_2 C14_2 1_555 1_555

#END
