
###############################################################################
#
# This file contains modified crystal structure data generated from the
# MOF subset of the Cambridge Structural Database (CSD) v543 
# hosted by the Cambridge Crystallographic Data Centre (CCDC).
#
# This work is licensed under the Creative Commons
# Attribution-NonCommercial-ShareAlike 4.0 International License.
# To view a copy of this license, visit
# http://creativecommons.org/licenses/by-nc-sa/4.0/
# or send a letter to
# Creative Commons, PO Box 1866, Mountain View, CA 94042, USA.
#
# CIF created using the CSD Python API on 29 September 2022
# The structure has been converted into the P1 space group
# The structure has a 3D framework
# The original CSD entry RUWXAJ is in the triclinic crystal system
# The framework has been calculated to contain at least 10.0% void space
# The void calculation uses a probe of radius 1.32A, grid spacing 0.4
#
###############################################################################

data_RUWXAJ
_chemical_formula_moiety         '(C30 H22 La2 O14)n'
_symmetry_cell_setting           triclinic
_symmetry_space_group_name_H-M   'P 1'
_symmetry_Int_Tables_number      1
_space_group_name_Hall           'P 1'
loop_
_symmetry_equiv_pos_site_id
_symmetry_equiv_pos_as_xyz
1 x,y,z
_cell_length_a                   9.491(5)
_cell_length_b                   10.052(3)
_cell_length_c                   11.344(5)
_cell_angle_alpha                94.429(6)
_cell_angle_beta                 97.914(2)
_cell_angle_gamma                111.386(5)
_cell_volume                     988.567
loop_
_atom_site_label
_atom_site_type_symbol
_atom_site_fract_x
_atom_site_fract_y
_atom_site_fract_z
_atom_site_U_iso_or_equiv
_atom_site_thermal_displace_type
H8 H 0.04(3) 0.808(13) 0.13(2) 0.0400 Uiso
La8 La 0.21401(8) 0.45409(7) 0.01294(6) 0.0099 Uani
O14 O 0.0447(10) 0.2519(9) 0.1139(8) 0.0173 Uani
O19 O 0.0808(9) 0.6034(9) 0.9214(8) 0.0146 Uani
O2 O 0.3147(10) 0.2611(9) 0.0077(8) 0.0166 Uiso
O8 O 0.6925(11) 0.5452(10) 0.1922(8) 0.0199 Uani
O9 O 0.9971(10) 0.7216(10) 0.1517(8) 0.0187 Uani
H9 H 0.93(2) 0.74(3) 0.19(2) 0.0600 Uiso
H10 H 0.766(14) 0.588(18) 0.257(9) 0.0300 Uiso
H11 H 0.611(13) 0.50(2) 0.226(14) 0.0500 Uiso
O21 O 0.9192(9) 0.3966(9) 0.0786(8) 0.0146 Uani
La1 La 0.78599(8) 0.54591(7) 0.98706(6) 0.0099 Uani
O1 O 0.5530(10) 0.3366(9) 0.9730(8) 0.0166 Uani
C1 C 0.4194(15) 0.2414(11) 0.9680(10) 0.0159 Uani
C2 C 0.3873(13) 0.0922(11) 0.9128(11) 0.0130 Uani
H1 H 0.1801 0.0033 0.9607 0.0150 Uiso
C8 C 0.4927(13) 0.0630(13) 0.8507(11) 0.0127 Uani
H3 H 0.5836 0.1362 0.8423 0.0160 Uiso
O13 O 0.6853(10) 0.7389(9) 0.9923(8) 0.0166 Uiso
O15 O 0.9553(10) 0.7481(9) 0.8861(8) 0.0173 Uani
O22 O 0.4379(9) 0.1077(9) 0.2616(7) 0.0143 Uani
O23 O 0.7731(9) 0.3794(9) 0.7999(8) 0.0176 Uani
O24 O 0.6174(10) 0.4945(9) 0.7726(7) 0.0155 Uani
C18 C 0.7480(14) 0.0176(12) 0.0772(10) 0.0126 Uani
C19 C 0.7774(13) 0.1597(13) 0.1238(10) 0.0147 Uani
C20 C 0.9230(13) 0.2758(12) 0.1060(10) 0.0112 Uani
C21 C 0.6721(14) 0.1920(13) 0.1829(11) 0.0156 Uani
H13 H 0.6888 0.2868 0.2112 0.0180 Uiso
C22 C 0.5429(13) 0.0797(14) 0.1981(12) 0.0165 Uani
C24 C 0.4951(14) 0.1758(13) 0.3786(11) 0.0166 Uani
C25 C 0.6125(16) 0.1533(14) 0.4533(11) 0.0207 Uani
H15 H 0.6542 0.0889 0.4254 0.0250 Uiso
C26 C 0.6654(16) 0.2261(15) 0.5665(12) 0.0219 Uani
H16 H 0.7449 0.2120 0.6147 0.0270 Uiso
C27 C 0.6046(14) 0.3200(13) 0.6119(11) 0.0150 Uani
C28 C 0.6657(14) 0.4021(12) 0.7339(11) 0.0161 Uani
C29 C 0.4845(16) 0.3363(15) 0.5407(12) 0.0221 Uani
H17 H 0.4379 0.3943 0.5725 0.0270 Uiso
C30 C 0.4297(16) 0.2685(16) 0.4215(12) 0.0259 Uani
H18 H 0.3522 0.2850 0.3729 0.0310 Uiso
O5 O 0.5621(9) 0.8923(9) 0.7384(7) 0.0143 Uani
O6 O 0.2269(9) 0.6206(9) 0.2001(8) 0.0176 Uani
O7 O 0.3826(10) 0.5055(9) 0.2274(7) 0.0155 Uani
C3 C 0.2520(14) 0.9824(12) 0.9228(10) 0.0126 Uani
C4 C 0.2226(13) 0.8403(13) 0.8762(10) 0.0147 Uani
C5 C 0.0770(13) 0.7242(12) 0.8940(10) 0.0112 Uani
C6 C 0.3279(14) 0.8080(13) 0.8171(11) 0.0156 Uani
H2 H 0.3112 0.7132 0.7888 0.0180 Uiso
C7 C 0.4571(13) 0.9203(14) 0.8019(12) 0.0165 Uani
C9 C 0.5049(14) 0.8242(13) 0.6214(11) 0.0166 Uani
C10 C 0.3875(16) 0.8467(14) 0.5467(11) 0.0207 Uani
H4 H 0.3458 0.9111 0.5746 0.0250 Uiso
C11 C 0.3346(16) 0.7739(15) 0.4335(12) 0.0219 Uani
H5 H 0.2551 0.7880 0.3853 0.0270 Uiso
C12 C 0.3954(14) 0.6800(13) 0.3881(11) 0.0150 Uani
C13 C 0.3343(14) 0.5979(12) 0.2661(11) 0.0161 Uani
C14 C 0.5155(16) 0.6637(15) 0.4593(12) 0.0221 Uani
H6 H 0.5621 0.6057 0.4275 0.0270 Uiso
C15 C 0.5703(16) 0.7315(16) 0.5785(12) 0.0259 Uani
H7 H 0.6478 0.7150 0.6271 0.0310 Uiso
O10 O 0.4470(10) 0.6634(9) 0.0270(8) 0.0166 Uani
C16 C 0.5806(15) 0.7586(11) 0.0320(10) 0.0159 Uani
C17 C 0.6127(13) 0.9078(11) 0.0872(11) 0.0130 Uani
H12 H 0.8199 0.9967 0.0393 0.0150 Uiso
C23 C 0.5073(13) 0.9370(13) 0.1493(11) 0.0127 Uani
H14 H 0.4164 0.8638 0.1577 0.0160 Uiso
O25 O 0.3075(11) 0.4548(10) 0.8078(8) 0.0199 Uani
O26 O 0.0029(10) 0.2784(10) 0.8483(8) 0.0187 Uani
H20 H 0.07(2) 0.26(3) 0.81(2) 0.0600 Uiso
H21 H 0.234(14) 0.412(18) 0.743(9) 0.0300 Uiso
H22 H 0.389(13) 0.50(2) 0.774(14) 0.0500 Uiso
H19 H 0.96(3) 0.192(13) 0.87(2) 0.0400 Uiso
loop_
_atom_site_aniso_label
_atom_site_aniso_U_11
_atom_site_aniso_U_22
_atom_site_aniso_U_33
_atom_site_aniso_U_23
_atom_site_aniso_U_13
_atom_site_aniso_U_12
La8 0.0082 0.0082 0.0133 0.0011 0.0032 0.0029
O14 0.014 0.017 0.025 0.005 0.004 0.01
O19 0.016 0.01 0.02 0.004 0.004 0.007
O8 0.02 0.027 0.015 0.008 0.01 0.008
O9 0.017 0.019 0.017 -0.003 0.001 0.005
O21 0.016 0.01 0.02 0.004 0.004 0.007
La1 0.0082 0.0082 0.0133 0.0011 0.0032 0.0029
O1 0.024 0.007 0.016 0.001 0.009 0.001
C1 0.028 0.007 0.011 0 -0.008 0.009
C2 0.007 0.01 0.016 0.001 0 -0.003
C8 0.011 0.016 0.015 0.003 0.006 0.008
O15 0.014 0.017 0.025 0.005 0.004 0.01
O22 0.009 0.018 0.014 -0.005 0.003 0.004
O23 0.011 0.019 0.025 0.008 0.004 0.007
O24 0.019 0.017 0.011 -0.001 0 0.009
C18 0.017 0.013 0.012 0.004 0.003 0.01
C19 0.013 0.019 0.007 -0.005 -0.005 0.004
C20 0.014 0.013 0.003 0.001 0.001 0.001
C21 0.017 0.008 0.017 -0.003 -0.005 0.003
C22 0.004 0.024 0.023 0.002 0.003 0.007
C24 0.015 0.017 0.015 0.003 0.007 0.001
C25 0.033 0.018 0.012 -0.001 -0.001 0.013
C26 0.022 0.025 0.02 0.001 0.003 0.011
C27 0.018 0.012 0.012 0 0.004 0.002
C28 0.021 0.006 0.017 0.002 0.006 -0.001
C29 0.026 0.022 0.016 -0.012 -0.007 0.013
C30 0.022 0.044 0.016 0 -0.001 0.02
O5 0.009 0.018 0.014 -0.005 0.003 0.004
O6 0.011 0.019 0.025 0.008 0.004 0.007
O7 0.019 0.017 0.011 -0.001 0 0.009
C3 0.017 0.013 0.012 0.004 0.003 0.01
C4 0.013 0.019 0.007 -0.005 -0.005 0.004
C5 0.014 0.013 0.003 0.001 0.001 0.001
C6 0.017 0.008 0.017 -0.003 -0.005 0.003
C7 0.004 0.024 0.023 0.002 0.003 0.007
C9 0.015 0.017 0.015 0.003 0.007 0.001
C10 0.033 0.018 0.012 -0.001 -0.001 0.013
C11 0.022 0.025 0.02 0.001 0.003 0.011
C12 0.018 0.012 0.012 0 0.004 0.002
C13 0.021 0.006 0.017 0.002 0.006 -0.001
C14 0.026 0.022 0.016 -0.012 -0.007 0.013
C15 0.022 0.044 0.016 0 -0.001 0.02
O10 0.024 0.007 0.016 0.001 0.009 0.001
C16 0.028 0.007 0.011 0 -0.008 0.009
C17 0.007 0.01 0.016 0.001 0 -0.003
C23 0.011 0.016 0.015 0.003 0.006 0.008
O25 0.02 0.027 0.015 0.008 0.01 0.008
O26 0.017 0.019 0.017 -0.003 0.001 0.005
loop_
_geom_bond_atom_site_label_1
_geom_bond_atom_site_label_2
_geom_bond_site_symmetry_1
_geom_bond_site_symmetry_2
La8 O14 1_555 1_555
H9 O9 1_555 1_555
H10 O8 1_555 1_555
H11 O8 1_555 1_555
La8 O2 1_555 1_555
La1 O1 1_555 1_555
O1 C1 1_555 1_555
C1 C2 1_555 1_555
C8 C2 1_555 1_555
H3 C8 1_555 1_555
O13 La1 1_555 1_555
O15 La1 1_555 1_555
O22 C22 1_555 1_555
O23 La1 1_555 1_555
O24 La1 1_555 1_555
C19 C18 1_555 1_555
C20 O21 1_555 1_555
C21 C19 1_555 1_555
H13 C21 1_555 1_555
C22 C21 1_555 1_555
C24 O22 1_555 1_555
C25 C24 1_555 1_555
H15 C25 1_555 1_555
C26 C25 1_555 1_555
H16 C26 1_555 1_555
C27 C26 1_555 1_555
C28 O23 1_555 1_555
C29 C27 1_555 1_555
H17 C29 1_555 1_555
C30 C24 1_555 1_555
H18 C30 1_555 1_555
O24 C28 1_555 1_555
C19 C20 1_555 1_555
C27 C28 1_555 1_555
C29 C30 1_555 1_555
O19 C5 1_555 1_555
O5 C7 1_555 1_555
O6 C13 1_555 1_555
O7 C13 1_555 1_555
C4 C3 1_555 1_555
C5 C4 1_555 1_555
C6 C4 1_555 1_555
H2 C6 1_555 1_555
C7 C6 1_555 1_555
C9 O5 1_555 1_555
C10 C9 1_555 1_555
H4 C10 1_555 1_555
C11 C10 1_555 1_555
H5 C11 1_555 1_555
C12 C11 1_555 1_555
C13 C12 1_555 1_555
C14 C12 1_555 1_555
H6 C14 1_555 1_555
C15 C9 1_555 1_555
H7 C15 1_555 1_555
La8 O6 1_555 1_555
O10 La8 1_555 1_555
C16 O10 1_555 1_555
C17 C16 1_555 1_555
C23 C17 1_555 1_555
H14 C23 1_555 1_555
O7 La8 1_555 1_555
C14 C15 1_555 1_555
H20 O26 1_555 1_555
H21 O25 1_555 1_555
H22 O25 1_555 1_555

#END
