
###############################################################################
#
# This file contains modified crystal structure data generated from the
# MOF subset of the Cambridge Structural Database (CSD) v543 
# hosted by the Cambridge Crystallographic Data Centre (CCDC).
#
# This work is licensed under the Creative Commons
# Attribution-NonCommercial-ShareAlike 4.0 International License.
# To view a copy of this license, visit
# http://creativecommons.org/licenses/by-nc-sa/4.0/
# or send a letter to
# Creative Commons, PO Box 1866, Mountain View, CA 94042, USA.
#
# CIF created using the CSD Python API on 29 September 2022
# The structure has been converted into the P1 space group
# The structure has a 3D framework
# The original CSD entry RUWYOZ is in the orthorhombic crystal system
# The framework has been calculated to contain at least 10.0% void space
# The void calculation uses a probe of radius 1.32A, grid spacing 0.4
#
###############################################################################

data_RUWYOZ
_chemical_formula_moiety         '(C254 H352 N48 Ni8 O48)n'
_symmetry_cell_setting           triclinic
_symmetry_space_group_name_H-M   'P 1'
_symmetry_Int_Tables_number      1
_space_group_name_Hall           'P 1'
loop_
_symmetry_equiv_pos_site_id
_symmetry_equiv_pos_as_xyz
1 x,y,z
_cell_length_a                   12.0122(8)
_cell_length_b                   25.0230(18)
_cell_length_c                   31.873(3)
_cell_angle_alpha                90
_cell_angle_beta                 90
_cell_angle_gamma                90
_cell_volume                     9580.43
loop_
_atom_site_label
_atom_site_type_symbol
_atom_site_fract_x
_atom_site_fract_y
_atom_site_fract_z
Ni1 Ni 0.08646(6) 0.76829(3) 0.61275(2)
C2 C 0.2838(4) 0.59328(17) 0.45286(12)
C3 C 0.2500 0.5000 0.36531(16)
C4 C 0.2621(4) 0.65827(19) 0.52323(13)
C5 C 0.3725(4) 0.59881(19) 0.48023(13)
H1 H 0.4388 0.5806 0.4753
C6 C 0.2126(4) 0.54607(18) 0.39343(12)
H2 H 0.1903 0.5764 0.3765
H3 H 0.1497 0.5352 0.4105
C7 C 0.1857(4) 0.61900(19) 0.45975(14)
H4 H 0.1266 0.6146 0.4412
C8 C 0.1552(4) 0.48417(18) 0.33801(13)
H5 H 0.0913 0.4747 0.3551
H6 H 0.1345 0.5136 0.3199
C9 C 0.1745(4) 0.6521(2) 0.49491(14)
H7 H 0.1080 0.6702 0.4994
C10 C 0.1349(4) 0.42628(19) 0.27784(14)
C11 C 0.3619(4) 0.63168(19) 0.51497(14)
H8 H 0.4220 0.6361 0.5330
C12 C 0.1722(4) 0.38168(19) 0.25689(14)
H9 H 0.2344 0.3636 0.2669
C13 C 0.0287(4) 0.3893(2) 0.20478(14)
C15 C 0.1199(4) 0.3635(2) 0.22169(16)
H11 H 0.1463 0.3327 0.2087
C16 C 0.2506(5) 0.6929(2) 0.56066(14)
C17 C 0.0440(5) 0.4539(2) 0.26202(16)
H12 H 0.0168 0.4839 0.2759
O3 O 0.3039(3) 0.56008(13) 0.41942(9)
O4 O 0.1567(3) 0.71192(16) 0.56844(11)
O5 O 0.1898(3) 0.43864(12) 0.31303(9)
N1 N 0.1616(4) 0.82864(18) 0.58110(13)
H13 H 0.1291 0.8621 0.5915
N2 N 0.2273(4) 0.76416(19) 0.64721(13)
H14 H 0.2721 0.7347 0.6360
N3 N 0.0096(6) 0.7054(2) 0.6458(2)
N5 N 0.0285(7) 0.8217(4) 0.52052(18)
C18 C 0.2890(5) 0.8148(3) 0.63854(19)
H15 H 0.2576 0.8436 0.6551
H16 H 0.3665 0.8107 0.6465
C19 C 0.2818(5) 0.8278(3) 0.5952(2)
H17 H 0.3216 0.8005 0.5791
H18 H 0.0200 0.7453 0.5255
H23 H 0.0049 0.9009 0.5240
C23 C 0.1407(7) 0.8268(3) 0.5350(2)
H24 H 0.1713 0.8592 0.5229
H25 H 0.1829 0.7971 0.5237
C27 C 0.0462(9) 0.6493(3) 0.6369(3)
H33 H 0.0425 0.6429 0.6069
C28 C 0.1812(9) 0.6565(4) 0.6970(3)
H34 H 0.1440 0.6326 0.7164
H35 H 0.2607 0.6542 0.7022
C29 C 0.0330(9) 0.7142(3) 0.6930(3)
H36 H 0.0050 0.7491 0.7009
N6 N 0.1438(9) 0.7110(3) 0.7045(2)
C30 C 0.2094(7) 0.7534(3) 0.69428(19)
H38 H 0.2817 0.7481 0.7072
H39 H 0.1771 0.7852 0.7067
C31 C 0.3260(9) 0.8849(4) 0.5814(3)
H40 H 0.2990 0.9115 0.6006
H41 H 0.2998 0.8929 0.5536
H42 H 0.4059 0.8850 0.5816
C32 C 0.1563(9) 0.6387(4) 0.6512(3)
H43 H 0.2082 0.6566 0.6326
H44 H 0.1699 0.6006 0.6490
O6 O 0.3369(3) 0.70072(16) 0.58279(12)
O7 O 0.5113(3) 0.67663(15) 0.15556(11)
C33 C 0.5304(5) 0.6288(2) 0.16714(16)
O8 O 0.5956(4) 0.59839(16) 0.14884(12)
C34 C 0.2162(4) 0.40672(17) 0.45286(12)
C35 C 0.2379(4) 0.34173(19) 0.52323(13)
C36 C 0.1275(4) 0.40119(19) 0.48023(13)
H45 H 0.0612 0.4194 0.4753
C37 C 0.2874(4) 0.45393(18) 0.39343(12)
H46 H 0.3097 0.4236 0.3765
H47 H 0.3503 0.4648 0.4105
C38 C 0.3143(4) 0.38100(19) 0.45975(14)
H48 H 0.3734 0.3854 0.4412
C39 C 0.3448(4) 0.51583(18) 0.33801(13)
H49 H 0.4087 0.5253 0.3551
H50 H 0.3655 0.4864 0.3199
C40 C 0.3255(4) 0.3479(2) 0.49491(14)
H51 H 0.3920 0.3298 0.4994
C41 C 0.3651(4) 0.57372(19) 0.27784(14)
C42 C 0.1381(4) 0.36832(19) 0.51497(14)
H52 H 0.0780 0.3639 0.5330
C43 C 0.3278(4) 0.61832(19) 0.25689(14)
H53 H 0.2656 0.6364 0.2669
C44 C 0.4713(4) 0.6107(2) 0.20478(14)
C45 C 0.5062(4) 0.5639(2) 0.22512(15)
H54 H 0.5644 0.5441 0.2137
C46 C 0.3801(4) 0.6365(2) 0.22169(16)
H55 H 0.3537 0.6673 0.2087
C47 C 0.2494(5) 0.3071(2) 0.56066(14)
C48 C 0.4560(5) 0.5461(2) 0.26202(16)
H56 H 0.4832 0.5161 0.2759
O9 O 0.1961(3) 0.43992(13) 0.41942(9)
O10 O 0.3433(3) 0.28808(16) 0.56844(11)
O11 O 0.3102(3) 0.56136(12) 0.31303(9)
O12 O 0.1631(3) 0.29928(16) 0.58279(12)
Ni2 Ni 0.41354(6) 0.23171(3) 0.61275(2)
N7 N 0.3384(4) 0.17136(18) 0.58110(13)
H57 H 0.3709 0.1379 0.5915
N8 N 0.2727(4) 0.23584(19) 0.64721(13)
H58 H 0.2279 0.2653 0.6360
N9 N 0.4904(6) 0.2946(2) 0.6458(2)
N10 N 0.5598(5) 0.2259(3) 0.5760(2)
N11 N 0.4715(7) 0.1783(4) 0.52052(18)
C49 C 0.2110(5) 0.1852(3) 0.63854(19)
H59 H 0.2424 0.1564 0.6551
H60 H 0.1335 0.1893 0.6465
C50 C 0.2182(5) 0.1722(3) 0.5952(2)
H61 H 0.1784 0.1995 0.5791
C51 C 0.5272(9) 0.2242(5) 0.5315(3)
H62 H 0.4800 0.2547 0.5255
H63 H 0.5935 0.2273 0.5143
C52 C 0.6165(6) 0.2789(3) 0.5900(3)
H64 H 0.6953 0.2772 0.5835
H65 H 0.5849 0.3084 0.5742
C53 C 0.5409(9) 0.1308(5) 0.5270(3)
H66 H 0.5980 0.1296 0.5055
H67 H 0.4951 0.0991 0.5240
C54 C 0.3593(7) 0.1732(3) 0.5350(2)
H68 H 0.3287 0.1408 0.5229
H69 H 0.3171 0.2029 0.5237
C55 C 0.6368(7) 0.1818(4) 0.5824(3)
H70 H 0.7044 0.1891 0.5668
H71 H 0.6566 0.1806 0.6119
C56 C 0.6023(7) 0.2895(3) 0.6354(3)
H72 H 0.6348 0.2605 0.6514
H73 H 0.6412 0.3222 0.6428
C57 C 0.5965(8) 0.1302(5) 0.5703(3)
H74 H 0.5433 0.1178 0.5910
H75 H 0.6582 0.1051 0.5699
C58 C 0.4538(9) 0.3507(3) 0.6369(3)
H76 H 0.5048 0.3754 0.6505
H77 H 0.4575 0.3571 0.6069
C59 C 0.3188(9) 0.3435(4) 0.6970(3)
H78 H 0.3560 0.3674 0.7164
H79 H 0.2393 0.3458 0.7022
C60 C 0.4670(9) 0.2858(3) 0.6930(3)
H80 H 0.4950 0.2509 0.7009
H81 H 0.5084 0.3122 0.7089
N12 N 0.3562(9) 0.2890(3) 0.7045(2)
C61 C 0.2906(7) 0.2466(3) 0.69428(19)
H82 H 0.2183 0.2519 0.7072
H83 H 0.3229 0.2148 0.7067
C62 C 0.1740(9) 0.1151(4) 0.5814(3)
H84 H 0.2010 0.0885 0.6006
H85 H 0.2002 0.1071 0.5536
H86 H 0.0941 0.1150 0.5816
C63 C 0.3437(9) 0.3613(4) 0.6512(3)
H87 H 0.2918 0.3434 0.6326
H88 H 0.3301 0.3994 0.6490
O13 O 0.4887(3) 0.17663(15) 0.65556(11)
O14 O 0.0113(3) 0.82337(15) 0.65556(11)
Ni3 Ni 0.58646(6) 0.73171(3) 0.11275(2)
C33_2 C 0.0304(5) 0.8712(2) 0.66714(16)
O8_2 O 0.0956(4) 0.90161(16) 0.64884(12)
C45_2 C 0.0062(4) 0.9361(2) 0.72512(15)
H54_2 H 0.0644 0.9559 0.7137
C1 C 0.4696(5) 0.1288(2) 0.66714(16)
O2 O 0.4044(4) 0.09839(16) 0.64884(12)
C3_2 C 0.7500 0.0000 0.86531(16)
C8_2 C 0.6552(4) 0.01583(18) 0.83801(13)
H5_2 H 0.5913 0.0253 0.8551
C10_2 C 0.6349(4) 0.07372(19) 0.77784(14)
C12_2 C 0.6722(4) 0.11832(19) 0.75689(14)
H9_2 H 0.7344 0.1364 0.7669
C13_2 C 0.5287(4) 0.1107(2) 0.70478(14)
C14 C 0.4938(4) 0.0639(2) 0.72512(15)
H10 H 0.4356 0.0441 0.7137
C15_2 C 0.6199(4) 0.1365(2) 0.72169(16)
H11_2 H 0.6463 0.1673 0.7087
C17_2 C 0.5440(5) 0.0461(2) 0.76202(16)
H12_2 H 0.5168 0.0161 0.7759
O5_2 O 0.6898(3) 0.06136(12) 0.81303(9)
C34_2 C 0.7162(4) 0.09328(17) 0.95286(12)
C36_2 C 0.6275(4) 0.09881(19) 0.98023(13)
H45_2 H 0.5612 0.0806 0.9753
C37_2 C 0.7874(4) 0.04607(18) 0.89343(12)
H46_2 H 0.8097 0.0764 0.8765
H47_2 H 0.8503 0.0352 0.9105
C38_2 C 0.8143(4) 0.11900(19) 0.95975(14)
H48_2 H 0.8734 0.1146 0.9412
H50_2 H 0.8655 0.0136 0.8199
C40_2 C 0.8255(4) 0.1521(2) 0.99491(14)
H51_2 H 0.8920 0.1702 0.9994
O9_2 O 0.6961(3) 0.06008(13) 0.91942(9)
C4_2 C 0.7621(4) 0.84173(19) 0.02323(13)
C11_2 C 0.8619(4) 0.86832(19) 0.01497(14)
H8_2 H 0.9220 0.8639 0.0330
C16_2 C 0.7506(5) 0.8071(2) 0.06066(14)
O4_2 O 0.6567(3) 0.78808(16) 0.06844(11)
N1_2 N 0.6616(4) 0.67136(18) 0.08110(13)
H13_2 H 0.6291 0.6379 0.0915
N2_2 N 0.7273(4) 0.73584(19) 0.14721(13)
H14_2 H 0.7721 0.7653 0.1360
N3_2 N 0.5096(6) 0.7946(2) 0.1458(2)
N4 N 0.4402(5) 0.7259(3) 0.0760(2)
N5_2 N 0.5285(7) 0.6783(4) 0.02052(18)
C18_2 C 0.7890(5) 0.6852(3) 0.13854(19)
H15_2 H 0.7576 0.6564 0.1551
H16_2 H 0.8665 0.6893 0.1465
C19_2 C 0.7818(5) 0.6722(3) 0.0952(2)
H17_2 H 0.8216 0.6995 0.0791
C20 C 0.4728(9) 0.7242(5) 0.0315(3)
H18_2 H 0.5200 0.7547 0.0255
H19 H 0.4065 0.7273 0.0143
C21 C 0.3835(6) 0.7789(3) 0.0900(3)
H20 H 0.3047 0.7772 0.0835
H21 H 0.4151 0.8084 0.0742
C22 C 0.4591(9) 0.6308(5) 0.0270(3)
H22 H 0.4020 0.6296 0.0055
H23_2 H 0.5049 0.5991 0.0240
C23_2 C 0.6407(7) 0.6732(3) 0.0350(2)
H24_2 H 0.6713 0.6408 0.0229
H25_2 H 0.6829 0.7029 0.0237
C24 C 0.3632(7) 0.6818(4) 0.0824(3)
H26 H 0.2956 0.6891 0.0668
H27 H 0.3434 0.6806 0.1119
C25 C 0.3977(7) 0.7895(3) 0.1354(3)
H28 H 0.3652 0.7605 0.1514
H29 H 0.3588 0.8222 0.1428
C26 C 0.4035(8) 0.6302(5) 0.0703(3)
H30 H 0.4567 0.6178 0.0910
H31 H 0.3418 0.6051 0.0699
C27_2 C 0.5462(9) 0.8507(3) 0.1369(3)
H32 H 0.4952 0.8754 0.1505
H33_2 H 0.5425 0.8571 0.1069
C28_2 C 0.6812(9) 0.8435(4) 0.1970(3)
H34_2 H 0.6440 0.8674 0.2164
H35_2 H 0.7607 0.8458 0.2022
C29_2 C 0.5330(9) 0.7858(3) 0.1930(3)
H36_2 H 0.5050 0.7509 0.2009
H37 H 0.4916 0.8122 0.2089
N6_2 N 0.6438(9) 0.7890(3) 0.2045(2)
C30_2 C 0.7094(7) 0.7466(3) 0.19428(19)
H38_2 H 0.7817 0.7519 0.2072
H39_2 H 0.6771 0.7148 0.2067
C31_2 C 0.8260(9) 0.6151(4) 0.0814(3)
H40_2 H 0.7990 0.5885 0.1006
H41_2 H 0.7998 0.6071 0.0536
H42_2 H 0.9059 0.6150 0.0816
C32_2 C 0.6563(9) 0.8613(4) 0.1512(3)
H43_2 H 0.7082 0.8434 0.1326
H44_2 H 0.6699 0.8994 0.1490
O6_2 O 0.8369(3) 0.79928(16) 0.08279(12)
O1 O 0.9887(3) 0.32337(15) 0.15556(11)
C1_2 C 0.9696(5) 0.3712(2) 0.16714(16)
O2_2 O 0.9044(4) 0.40161(16) 0.14884(12)
C14_2 C 0.9938(4) 0.4361(2) 0.22512(15)
H10_2 H 0.9356 0.4559 0.2137
N4_2 N 0.9402(5) 0.7741(3) 0.5760(2)
C20_2 C 0.9728(9) 0.7758(5) 0.5315(3)
H19_2 H 0.9065 0.7727 0.5143
C21_2 C 0.8835(6) 0.7211(3) 0.5900(3)
H20_2 H 0.8047 0.7228 0.5835
H21_2 H 0.9151 0.6916 0.5742
C22_2 C 0.9591(9) 0.8692(5) 0.5270(3)
H22_2 H 0.9020 0.8704 0.5055
C24_2 C 0.8632(7) 0.8182(4) 0.5824(3)
H26_2 H 0.7956 0.8109 0.5668
H27_2 H 0.8434 0.8194 0.6119
C25_2 C 0.8977(7) 0.7105(3) 0.6354(3)
H28_2 H 0.8652 0.7395 0.6514
H29_2 H 0.8588 0.6778 0.6428
C26_2 C 0.9035(8) 0.8698(5) 0.5703(3)
H30_2 H 0.9567 0.8822 0.5910
H31_2 H 0.8418 0.8949 0.5699
H32_2 H 0.9952 0.6246 0.6505
H37_2 H 0.9916 0.6878 0.7089
Ni4 Ni 0.91354(6) 0.26829(3) 0.11275(2)
C35_2 C 0.7379(4) 0.15827(19) 0.02323(13)
C42_2 C 0.6381(4) 0.13168(19) 0.01497(14)
H52_2 H 0.5780 0.1361 0.0330
C47_2 C 0.7494(5) 0.1929(2) 0.06066(14)
O10_2 O 0.8433(3) 0.21192(16) 0.06844(11)
O12_2 O 0.6631(3) 0.20072(16) 0.08279(12)
N7_2 N 0.8384(4) 0.32864(18) 0.08110(13)
H57_2 H 0.8709 0.3621 0.0915
N8_2 N 0.7727(4) 0.26416(19) 0.14721(13)
H58_2 H 0.7279 0.2347 0.1360
N9_2 N 0.9904(6) 0.2054(2) 0.1458(2)
N11_2 N 0.9715(7) 0.3217(4) 0.02052(18)
C49_2 C 0.7110(5) 0.3148(3) 0.13854(19)
H59_2 H 0.7424 0.3436 0.1551
H60_2 H 0.6335 0.3107 0.1465
C50_2 C 0.7182(5) 0.3278(3) 0.0952(2)
H61_2 H 0.6784 0.3005 0.0791
H62_2 H 0.9800 0.2453 0.0255
H67_2 H 0.9951 0.4009 0.0240
C54_2 C 0.8593(7) 0.3268(3) 0.0350(2)
H68_2 H 0.8287 0.3592 0.0229
H69_2 H 0.8171 0.2971 0.0237
C58_2 C 0.9538(9) 0.1493(3) 0.1369(3)
H77_2 H 0.9575 0.1429 0.1069
C59_2 C 0.8188(9) 0.1565(4) 0.1970(3)
H78_2 H 0.8560 0.1326 0.2164
H79_2 H 0.7393 0.1542 0.2022
C60_2 C 0.9670(9) 0.2142(3) 0.1930(3)
H80_2 H 0.9950 0.2491 0.2009
N12_2 N 0.8562(9) 0.2110(3) 0.2045(2)
C61_2 C 0.7906(7) 0.2534(3) 0.19428(19)
H82_2 H 0.7183 0.2481 0.2072
H83_2 H 0.8229 0.2852 0.2067
C62_2 C 0.6740(9) 0.3849(4) 0.0814(3)
H84_2 H 0.7010 0.4115 0.1006
H85_2 H 0.7002 0.3929 0.0536
H86_2 H 0.5941 0.3850 0.0816
C63_2 C 0.8437(9) 0.1387(4) 0.1512(3)
H87_2 H 0.7918 0.1566 0.1326
H88_2 H 0.8301 0.1006 0.1490
C2_2 C 0.2162(4) 0.09328(17) 0.04714(12)
C3_3 C 0.2500 -0.0000 0.13469(16)
C5_2 C 0.1275(4) 0.09881(19) 0.01977(13)
H1_2 H 0.0612 0.0806 0.0247
C6_2 C 0.2874(4) 0.04607(18) 0.10657(12)
H2_2 H 0.3097 0.0764 0.1235
H3_2 H 0.3503 0.0352 0.0895
C7_2 C 0.3143(4) 0.11900(19) 0.04025(14)
H4_2 H 0.3734 0.1146 0.0588
H6_2 H 0.3655 0.0136 0.1801
C9_2 C 0.3255(4) 0.1521(2) 0.00509(14)
H7_2 H 0.3920 0.1702 0.0006
O3_2 O 0.1961(3) 0.06008(13) 0.08058(9)
C39_2 C 0.1552(4) 0.01583(18) 0.16199(13)
H49_2 H 0.0913 0.0253 0.1449
C41_2 C 0.1349(4) 0.07372(19) 0.22216(14)
C43_2 C 0.1722(4) 0.11832(19) 0.24311(14)
H53_2 H 0.2344 0.1364 0.2331
C44_2 C 0.0287(4) 0.1107(2) 0.29522(14)
C46_2 C 0.1199(4) 0.1365(2) 0.27831(16)
H55_2 H 0.1463 0.1673 0.2913
C48_2 C 0.0440(5) 0.0461(2) 0.23798(16)
H56_2 H 0.0168 0.0161 0.2241
O11_2 O 0.1898(3) 0.06136(12) 0.18697(9)
Ni1_2 Ni 0.41354(6) 0.26829(3) 0.88725(2)
C4_3 C 0.2379(4) 0.15827(19) 0.97677(13)
C11_3 C 0.1381(4) 0.13168(19) 0.98503(14)
H8_3 H 0.0780 0.1361 0.9670
C16_3 C 0.2494(5) 0.1929(2) 0.93934(14)
O4_3 O 0.3433(3) 0.21192(16) 0.93156(11)
N1_3 N 0.3384(4) 0.32864(18) 0.91890(13)
H13_3 H 0.3709 0.3621 0.9085
N2_3 N 0.2727(4) 0.26416(19) 0.85279(13)
H14_3 H 0.2279 0.2347 0.8640
N3_3 N 0.4904(6) 0.2054(2) 0.8542(2)
N4_3 N 0.5598(5) 0.2741(3) 0.9240(2)
N5_3 N 0.4715(7) 0.3217(4) 0.97948(18)
C18_3 C 0.2110(5) 0.3148(3) 0.86146(19)
H15_3 H 0.2424 0.3436 0.8449
H16_3 H 0.1335 0.3107 0.8535
C19_3 C 0.2182(5) 0.3278(3) 0.9048(2)
H17_3 H 0.1784 0.3005 0.9209
C20_3 C 0.5272(9) 0.2758(5) 0.9685(3)
H18_3 H 0.4800 0.2453 0.9745
H19_3 H 0.5935 0.2727 0.9857
C21_3 C 0.6165(6) 0.2211(3) 0.9100(3)
H20_3 H 0.6953 0.2228 0.9165
H21_3 H 0.5849 0.1916 0.9258
C22_3 C 0.5409(9) 0.3692(5) 0.9730(3)
H22_3 H 0.5980 0.3704 0.9945
H23_3 H 0.4951 0.4009 0.9760
C23_3 C 0.3593(7) 0.3268(3) 0.9650(2)
H24_3 H 0.3287 0.3592 0.9771
H25_3 H 0.3171 0.2971 0.9763
C24_3 C 0.6368(7) 0.3182(4) 0.9176(3)
H26_3 H 0.7044 0.3109 0.9332
H27_3 H 0.6566 0.3194 0.8881
C25_3 C 0.6023(7) 0.2105(3) 0.8646(3)
H28_3 H 0.6348 0.2395 0.8486
H29_3 H 0.6412 0.1778 0.8572
C26_3 C 0.5965(8) 0.3698(5) 0.9297(3)
H30_3 H 0.5433 0.3822 0.9090
H31_3 H 0.6582 0.3949 0.9301
C27_3 C 0.4538(9) 0.1493(3) 0.8631(3)
H32_3 H 0.5048 0.1246 0.8495
H33_3 H 0.4575 0.1429 0.8931
C28_3 C 0.3188(9) 0.1565(4) 0.8030(3)
H34_3 H 0.3560 0.1326 0.7836
H35_3 H 0.2393 0.1542 0.7978
C29_3 C 0.4670(9) 0.2142(3) 0.8070(3)
H36_3 H 0.4950 0.2491 0.7991
H37_3 H 0.5084 0.1878 0.7911
N6_3 N 0.3562(9) 0.2110(3) 0.7955(2)
C30_3 C 0.2906(7) 0.2534(3) 0.80572(19)
H38_3 H 0.2183 0.2481 0.7928
H39_3 H 0.3229 0.2852 0.7933
C31_3 C 0.1740(9) 0.3849(4) 0.9186(3)
H40_3 H 0.2010 0.4115 0.8994
H41_3 H 0.2002 0.3929 0.9464
H42_3 H 0.0941 0.3850 0.9184
C32_3 C 0.3437(9) 0.1387(4) 0.8488(3)
H43_3 H 0.2918 0.1566 0.8674
H44_3 H 0.3301 0.1006 0.8510
O6_3 O 0.1631(3) 0.20072(16) 0.91721(12)
O14_2 O 0.4887(3) 0.32337(15) 0.84444(11)
O1_2 O 0.5113(3) 0.82337(15) 0.34444(11)
C1_3 C 0.5304(5) 0.8712(2) 0.33286(16)
O2_3 O 0.5956(4) 0.90161(16) 0.35116(12)
C3_4 C 0.2500 1.0000 0.13469(16)
C8_3 C 0.3448(4) 0.98417(18) 0.16199(13)
H5_3 H 0.4087 0.9747 0.1449
C10_3 C 0.3651(4) 0.92628(19) 0.22216(14)
C12_3 C 0.3278(4) 0.88168(19) 0.24311(14)
H9_3 H 0.2656 0.8636 0.2331
C13_3 C 0.4713(4) 0.8893(2) 0.29522(14)
C14_3 C 0.5062(4) 0.9361(2) 0.27488(15)
H10_3 H 0.5644 0.9559 0.2863
C15_3 C 0.3801(4) 0.8635(2) 0.27831(16)
H11_3 H 0.3537 0.8327 0.2913
C17_3 C 0.4560(5) 0.9539(2) 0.23798(16)
H12_3 H 0.4832 0.9839 0.2241
O5_3 O 0.3102(3) 0.93864(12) 0.18697(9)
C34_3 C 0.2838(4) 0.90672(17) 0.04714(12)
C36_3 C 0.3725(4) 0.90119(19) 0.01977(13)
H45_3 H 0.4388 0.9194 0.0247
C37_3 C 0.2126(4) 0.95393(18) 0.10657(12)
H46_3 H 0.1903 0.9236 0.1235
H47_3 H 0.1497 0.9648 0.0895
C38_3 C 0.1857(4) 0.88100(19) 0.04025(14)
H48_3 H 0.1266 0.8854 0.0588
H50_3 H 0.1345 0.9864 0.1801
C40_3 C 0.1745(4) 0.8479(2) 0.00509(14)
H51_3 H 0.1080 0.8298 0.0006
O9_3 O 0.3039(3) 0.93992(13) 0.08058(9)
Ni4_2 Ni 0.58646(6) 0.76829(3) 0.38725(2)
O7_2 O 0.9887(3) 0.17663(15) 0.34444(11)
C33_3 C 0.9696(5) 0.1288(2) 0.33286(16)
O8_3 O 0.9044(4) 0.09839(16) 0.35116(12)
C45_3 C 0.9938(4) 0.0639(2) 0.27488(15)
H54_3 H 0.9356 0.0441 0.2863
Ni3_2 Ni 0.91354(6) 0.23171(3) 0.38725(2)
C2_3 C 0.7162(4) 0.40672(17) 0.54714(12)
C3_5 C 0.7500 0.5000 0.63469(16)
C4_4 C 0.7379(4) 0.34173(19) 0.47677(13)
C5_3 C 0.6275(4) 0.40119(19) 0.51977(13)
H1_3 H 0.5612 0.4194 0.5247
C6_3 C 0.7874(4) 0.45393(18) 0.60657(12)
H2_3 H 0.8097 0.4236 0.6235
H3_3 H 0.8503 0.4648 0.5895
C7_3 C 0.8143(4) 0.38100(19) 0.54025(14)
H4_3 H 0.8734 0.3854 0.5588
C8_4 C 0.8448(4) 0.51583(18) 0.66199(13)
H5_4 H 0.9087 0.5253 0.6449
H6_3 H 0.8655 0.4864 0.6801
C9_3 C 0.8255(4) 0.3479(2) 0.50509(14)
H7_3 H 0.8920 0.3298 0.5006
C10_4 C 0.8651(4) 0.57372(19) 0.72216(14)
C11_4 C 0.6381(4) 0.36832(19) 0.48503(14)
H8_4 H 0.5780 0.3639 0.4670
C12_4 C 0.8278(4) 0.61832(19) 0.74311(14)
H9_4 H 0.7656 0.6364 0.7331
C13_4 C 0.9713(4) 0.6107(2) 0.79522(14)
C15_4 C 0.8801(4) 0.6365(2) 0.77831(16)
H11_4 H 0.8537 0.6673 0.7913
C16_4 C 0.7494(5) 0.3071(2) 0.43934(14)
C17_4 C 0.9560(5) 0.5461(2) 0.73798(16)
H12_4 H 0.9832 0.5161 0.7241
O3_3 O 0.6961(3) 0.43992(13) 0.58058(9)
O4_4 O 0.8433(3) 0.28808(16) 0.43156(11)
O5_4 O 0.8102(3) 0.56136(12) 0.68697(9)
N1_4 N 0.8384(4) 0.17136(18) 0.41890(13)
H13_4 H 0.8709 0.1379 0.4085
N2_4 N 0.7727(4) 0.23584(19) 0.35279(13)
H14_4 H 0.7279 0.2653 0.3640
N3_4 N 0.9904(6) 0.2946(2) 0.3542(2)
N5_4 N 0.9715(7) 0.1783(4) 0.47948(18)
C18_4 C 0.7110(5) 0.1852(3) 0.36146(19)
H15_4 H 0.7424 0.1564 0.3449
H16_4 H 0.6335 0.1893 0.3535
C19_4 C 0.7182(5) 0.1722(3) 0.4048(2)
H17_4 H 0.6784 0.1995 0.4209
H18_4 H 0.9800 0.2547 0.4745
H23_4 H 0.9951 0.0991 0.4760
C23_4 C 0.8593(7) 0.1732(3) 0.4650(2)
H24_4 H 0.8287 0.1408 0.4771
H25_4 H 0.8171 0.2029 0.4763
C27_4 C 0.9538(9) 0.3507(3) 0.3631(3)
H33_4 H 0.9575 0.3571 0.3931
C28_4 C 0.8188(9) 0.3435(4) 0.3030(3)
H34_4 H 0.8560 0.3674 0.2836
H35_4 H 0.7393 0.3458 0.2978
C29_4 C 0.9670(9) 0.2858(3) 0.3070(3)
H36_4 H 0.9950 0.2509 0.2991
N6_4 N 0.8562(9) 0.2890(3) 0.2955(2)
C30_4 C 0.7906(7) 0.2466(3) 0.30572(19)
H38_4 H 0.7183 0.2519 0.2928
H39_4 H 0.8229 0.2148 0.2933
C31_4 C 0.6740(9) 0.1151(4) 0.4186(3)
H40_4 H 0.7010 0.0885 0.3994
H41_4 H 0.7002 0.1071 0.4464
H42_4 H 0.5941 0.1150 0.4184
C32_4 C 0.8437(9) 0.3613(4) 0.3488(3)
H43_4 H 0.7918 0.3434 0.3674
H44_4 H 0.8301 0.3994 0.3510
O6_4 O 0.6631(3) 0.29928(16) 0.41721(12)
C33_4 C 0.4696(5) 0.3712(2) 0.83286(16)
O8_4 O 0.4044(4) 0.40161(16) 0.85116(12)
C34_4 C 0.7838(4) 0.59328(17) 0.54714(12)
C35_3 C 0.7621(4) 0.65827(19) 0.47677(13)
C36_4 C 0.8725(4) 0.59881(19) 0.51977(13)
H45_4 H 0.9388 0.5806 0.5247
C37_4 C 0.7126(4) 0.54607(18) 0.60657(12)
H46_4 H 0.6903 0.5764 0.6235
H47_4 H 0.6497 0.5352 0.5895
C38_4 C 0.6857(4) 0.61900(19) 0.54025(14)
H48_4 H 0.6266 0.6146 0.5588
C39_3 C 0.6552(4) 0.48417(18) 0.66199(13)
H49_3 H 0.5913 0.4747 0.6449
H50_4 H 0.6345 0.5136 0.6801
C40_4 C 0.6745(4) 0.6521(2) 0.50509(14)
H51_4 H 0.6080 0.6702 0.5006
C41_3 C 0.6349(4) 0.42628(19) 0.72216(14)
C42_3 C 0.8619(4) 0.63168(19) 0.48503(14)
H52_3 H 0.9220 0.6361 0.4670
C43_3 C 0.6722(4) 0.38168(19) 0.74311(14)
H53_3 H 0.7344 0.3636 0.7331
C44_3 C 0.5287(4) 0.3893(2) 0.79522(14)
C45_4 C 0.4938(4) 0.4361(2) 0.77488(15)
H54_4 H 0.4356 0.4559 0.7863
C46_3 C 0.6199(4) 0.3635(2) 0.77831(16)
H55_3 H 0.6463 0.3327 0.7913
C47_3 C 0.7506(5) 0.6929(2) 0.43934(14)
C48_3 C 0.5440(5) 0.4539(2) 0.73798(16)
H56_3 H 0.5168 0.4839 0.7241
O9_4 O 0.8039(3) 0.56008(13) 0.58058(9)
O10_3 O 0.6567(3) 0.71192(16) 0.43156(11)
O11_3 O 0.6898(3) 0.43864(12) 0.68697(9)
O12_3 O 0.8369(3) 0.70072(16) 0.41721(12)
N7_3 N 0.6616(4) 0.82864(18) 0.41890(13)
H57_3 H 0.6291 0.8621 0.4085
N8_3 N 0.7273(4) 0.76416(19) 0.35279(13)
H58_3 H 0.7721 0.7347 0.3640
N9_3 N 0.5096(6) 0.7054(2) 0.3542(2)
N10_2 N 0.4402(5) 0.7741(3) 0.4240(2)
N11_3 N 0.5285(7) 0.8217(4) 0.47948(18)
C49_3 C 0.7890(5) 0.8148(3) 0.36146(19)
H59_3 H 0.7576 0.8436 0.3449
H60_3 H 0.8665 0.8107 0.3535
C50_3 C 0.7818(5) 0.8278(3) 0.4048(2)
H61_3 H 0.8216 0.8005 0.4209
C51_2 C 0.4728(9) 0.7758(5) 0.4685(3)
H62_3 H 0.5200 0.7453 0.4745
H63_2 H 0.4065 0.7727 0.4857
C52_2 C 0.3835(6) 0.7211(3) 0.4100(3)
H64_2 H 0.3047 0.7228 0.4165
H65_2 H 0.4151 0.6916 0.4258
C53_2 C 0.4591(9) 0.8692(5) 0.4730(3)
H66_2 H 0.4020 0.8704 0.4945
H67_3 H 0.5049 0.9009 0.4760
C54_3 C 0.6407(7) 0.8268(3) 0.4650(2)
H68_3 H 0.6713 0.8592 0.4771
H69_3 H 0.6829 0.7971 0.4763
C55_2 C 0.3632(7) 0.8182(4) 0.4176(3)
H70_2 H 0.2956 0.8109 0.4332
H71_2 H 0.3434 0.8194 0.3881
C56_2 C 0.3977(7) 0.7105(3) 0.3646(3)
H72_2 H 0.3652 0.7395 0.3486
H73_2 H 0.3588 0.6778 0.3572
C57_2 C 0.4035(8) 0.8698(5) 0.4297(3)
H74_2 H 0.4567 0.8822 0.4090
H75_2 H 0.3418 0.8949 0.4301
C58_3 C 0.5462(9) 0.6493(3) 0.3631(3)
H76_2 H 0.4952 0.6246 0.3495
H77_3 H 0.5425 0.6429 0.3931
C59_3 C 0.6812(9) 0.6565(4) 0.3030(3)
H78_3 H 0.6440 0.6326 0.2836
H79_3 H 0.7607 0.6542 0.2978
C60_3 C 0.5330(9) 0.7142(3) 0.3070(3)
H80_3 H 0.5050 0.7491 0.2991
H81_2 H 0.4916 0.6878 0.2911
N12_3 N 0.6438(9) 0.7110(3) 0.2955(2)
C61_3 C 0.7094(7) 0.7534(3) 0.30572(19)
H82_3 H 0.7817 0.7481 0.2928
H83_3 H 0.6771 0.7852 0.2933
C62_3 C 0.8260(9) 0.8849(4) 0.4186(3)
H84_3 H 0.7990 0.9115 0.3994
H85_3 H 0.7998 0.8929 0.4464
H86_3 H 0.9059 0.8850 0.4184
C63_3 C 0.6563(9) 0.6387(4) 0.3488(3)
H87_3 H 0.7082 0.6566 0.3674
H88_3 H 0.6699 0.6006 0.3510
C35_4 C 0.2621(4) 0.84173(19) 0.97677(13)
C42_4 C 0.3619(4) 0.86832(19) 0.98503(14)
H52_4 H 0.4220 0.8639 0.9670
C47_4 C 0.2506(5) 0.8071(2) 0.93934(14)
O10_4 O 0.1567(3) 0.78808(16) 0.93156(11)
O12_4 O 0.3369(3) 0.79928(16) 0.91721(12)
Ni2_2 Ni 0.08646(6) 0.73171(3) 0.88725(2)
N7_4 N 0.1616(4) 0.67136(18) 0.91890(13)
H57_4 H 0.1291 0.6379 0.9085
N8_4 N 0.2273(4) 0.73584(19) 0.85279(13)
H58_4 H 0.2721 0.7653 0.8640
N9_4 N 0.0096(6) 0.7946(2) 0.8542(2)
N11_4 N 0.0285(7) 0.6783(4) 0.97948(18)
C49_4 C 0.2890(5) 0.6852(3) 0.86146(19)
H59_4 H 0.2576 0.6564 0.8449
H60_4 H 0.3665 0.6893 0.8535
C50_4 C 0.2818(5) 0.6722(3) 0.9048(2)
H61_4 H 0.3216 0.6995 0.9209
H62_4 H 0.0200 0.7547 0.9745
H67_4 H 0.0049 0.5991 0.9760
C54_4 C 0.1407(7) 0.6732(3) 0.9650(2)
H68_4 H 0.1713 0.6408 0.9771
H69_4 H 0.1829 0.7029 0.9763
C58_4 C 0.0462(9) 0.8507(3) 0.8631(3)
H77_4 H 0.0425 0.8571 0.8931
C59_4 C 0.1812(9) 0.8435(4) 0.8030(3)
H78_4 H 0.1440 0.8674 0.7836
H79_4 H 0.2607 0.8458 0.7978
C60_4 C 0.0330(9) 0.7858(3) 0.8070(3)
H80_4 H 0.0050 0.7509 0.7991
N12_4 N 0.1438(9) 0.7890(3) 0.7955(2)
C61_4 C 0.2094(7) 0.7466(3) 0.80572(19)
H82_4 H 0.2817 0.7519 0.7928
H83_4 H 0.1771 0.7148 0.7933
C62_4 C 0.3260(9) 0.6151(4) 0.9186(3)
H84_4 H 0.2990 0.5885 0.8994
H85_4 H 0.2998 0.6071 0.9464
H86_4 H 0.4059 0.6150 0.9184
C63_4 C 0.1563(9) 0.8613(4) 0.8488(3)
H87_4 H 0.2082 0.8434 0.8674
H88_4 H 0.1699 0.8994 0.8510
O13_2 O 0.0113(3) 0.67663(15) 0.84444(11)
C1_4 C 0.0304(5) 0.6288(2) 0.83286(16)
O2_4 O 0.0956(4) 0.59839(16) 0.85116(12)
C14_4 C 0.0062(4) 0.5639(2) 0.77488(15)
H10_4 H 0.0644 0.5441 0.7863
N4_4 N 0.0598(5) 0.2259(3) 0.4240(2)
C20_4 C 0.0272(9) 0.2242(5) 0.4685(3)
H19_4 H 0.0935 0.2273 0.4857
C21_4 C 0.1165(6) 0.2789(3) 0.4100(3)
H20_4 H 0.1953 0.2772 0.4165
H21_4 H 0.0849 0.3084 0.4258
C22_4 C 0.0409(9) 0.1308(5) 0.4730(3)
H22_4 H 0.0980 0.1296 0.4945
C24_4 C 0.1368(7) 0.1818(4) 0.4176(3)
H26_4 H 0.2044 0.1891 0.4332
H27_4 H 0.1566 0.1806 0.3881
C25_4 C 0.1023(7) 0.2895(3) 0.3646(3)
H28_4 H 0.1348 0.2605 0.3486
H29_4 H 0.1412 0.3222 0.3572
C26_4 C 0.0965(8) 0.1302(5) 0.4297(3)
H30_4 H 0.0433 0.1178 0.4090
H31_4 H 0.1582 0.1051 0.4301
H32_4 H 0.0048 0.3754 0.3495
H37_4 H 0.0084 0.3122 0.2911
N10_3 N 0.9402(5) 0.7259(3) 0.9240(2)
C51_3 C 0.9728(9) 0.7242(5) 0.9685(3)
H63_3 H 0.9065 0.7273 0.9857
C52_3 C 0.8835(6) 0.7789(3) 0.9100(3)
H64_3 H 0.8047 0.7772 0.9165
H65_3 H 0.9151 0.8084 0.9258
C53_3 C 0.9591(9) 0.6308(5) 0.9730(3)
H66_3 H 0.9020 0.6296 0.9945
C55_3 C 0.8632(7) 0.6818(4) 0.9176(3)
H70_3 H 0.7956 0.6891 0.9332
H71_3 H 0.8434 0.6806 0.8881
C56_3 C 0.8977(7) 0.7895(3) 0.8646(3)
H72_3 H 0.8652 0.7605 0.8486
H73_3 H 0.8588 0.8222 0.8572
C57_3 C 0.9035(8) 0.6302(5) 0.9297(3)
H74_3 H 0.9567 0.6178 0.9090
H75_3 H 0.8418 0.6051 0.9301
H76_3 H 0.9952 0.8754 0.8495
H81_3 H 0.9916 0.8122 0.7911
N10_4 N 0.0598(5) 0.2741(3) 0.0760(2)
C51_4 C 0.0272(9) 0.2758(5) 0.0315(3)
H63_4 H 0.0935 0.2727 0.0143
C52_4 C 0.1165(6) 0.2211(3) 0.0900(3)
H64_4 H 0.1953 0.2228 0.0835
H65_4 H 0.0849 0.1916 0.0742
C53_4 C 0.0409(9) 0.3692(5) 0.0270(3)
H66_4 H 0.0980 0.3704 0.0055
C55_4 C 0.1368(7) 0.3182(4) 0.0824(3)
H70_4 H 0.2044 0.3109 0.0668
H71_4 H 0.1566 0.3194 0.1119
C56_4 C 0.1023(7) 0.2105(3) 0.1354(3)
H72_4 H 0.1348 0.2395 0.1514
H73_4 H 0.1412 0.1778 0.1428
C57_4 C 0.0965(8) 0.3698(5) 0.0703(3)
H74_4 H 0.0433 0.3822 0.0910
H75_4 H 0.1582 0.3949 0.0699
H76_4 H 0.0048 0.1246 0.1505
H81_4 H 0.0084 0.1878 0.2089
C2_4 C 0.7838(4) 0.90672(17) 0.95286(12)
C3_6 C 0.7500 1.0000 0.86531(16)
C5_4 C 0.8725(4) 0.90119(19) 0.98023(13)
H1_4 H 0.9388 0.9194 0.9753
C6_4 C 0.7126(4) 0.95393(18) 0.89343(12)
H2_4 H 0.6903 0.9236 0.8765
H3_4 H 0.6497 0.9648 0.9105
C7_4 C 0.6857(4) 0.88100(19) 0.95975(14)
H4_4 H 0.6266 0.8854 0.9412
H6_4 H 0.6345 0.9864 0.8199
C9_4 C 0.6745(4) 0.8479(2) 0.99491(14)
H7_4 H 0.6080 0.8298 0.9994
O3_4 O 0.8039(3) 0.93992(13) 0.91942(9)
C39_4 C 0.8448(4) 0.98417(18) 0.83801(13)
H49_4 H 0.9087 0.9747 0.8551
C41_4 C 0.8651(4) 0.92628(19) 0.77784(14)
C43_4 C 0.8278(4) 0.88168(19) 0.75689(14)
H53_4 H 0.7656 0.8636 0.7669
C44_4 C 0.9713(4) 0.8893(2) 0.70478(14)
C46_4 C 0.8801(4) 0.8635(2) 0.72169(16)
H55_4 H 0.8537 0.8327 0.7087
C48_4 C 0.9560(5) 0.9539(2) 0.76202(16)
H56_4 H 0.9832 0.9839 0.7759
O11_4 O 0.8102(3) 0.93864(12) 0.81303(9)
loop_
_geom_bond_atom_site_label_1
_geom_bond_atom_site_label_2
_geom_bond_site_symmetry_1
_geom_bond_site_symmetry_2
Ni1 O4 1_555 1_555
C2 C5 1_555 1_555
C3 C6 1_555 1_555
C4 C9 1_555 1_555
C5 H1 1_555 1_555
C6 H2 1_555 1_555
H3 C6 1_555 1_555
C7 C2 1_555 1_555
H4 C7 1_555 1_555
C8 C3 1_555 1_555
H5 C8 1_555 1_555
H6 C8 1_555 1_555
C9 C7 1_555 1_555
H7 C9 1_555 1_555
C10 C12 1_555 1_555
C11 C4 1_555 1_555
H8 C11 1_555 1_555
C12 H9 1_555 1_555
C15 C12 1_555 1_555
H11 C15 1_555 1_555
C16 C4 1_555 1_555
C17 C10 1_555 1_555
H12 C17 1_555 1_555
O3 C2 1_555 1_555
O4 C16 1_555 1_555
O5 C8 1_555 1_555
N1 Ni1 1_555 1_555
H13 N1 1_555 1_555
N2 Ni1 1_555 1_555
H14 N2 1_555 1_555
N3 Ni1 1_555 1_555
C18 N2 1_555 1_555
H15 C18 1_555 1_555
H16 C18 1_555 1_555
C19 N1 1_555 1_555
H17 C19 1_555 1_555
C23 N1 1_555 1_555
H24 C23 1_555 1_555
H25 C23 1_555 1_555
C27 N3 1_555 1_555
H33 C27 1_555 1_555
C28 H34 1_555 1_555
H35 C28 1_555 1_555
C29 N3 1_555 1_555
H36 C29 1_555 1_555
N6 C28 1_555 1_555
C30 N2 1_555 1_555
H38 C30 1_555 1_555
H39 C30 1_555 1_555
C31 C19 1_555 1_555
H40 C31 1_555 1_555
H41 C31 1_555 1_555
H42 C31 1_555 1_555
C32 C27 1_555 1_555
H43 C32 1_555 1_555
H44 C32 1_555 1_555
O6 C16 1_555 1_555
O7 C33 1_555 1_555
C33 O8 1_555 1_555
C34 C36 1_555 1_555
C35 C40 1_555 1_555
C36 H45 1_555 1_555
C37 C3 1_555 1_555
H46 C37 1_555 1_555
H47 C37 1_555 1_555
C38 C34 1_555 1_555
H48 C38 1_555 1_555
C39 C3 1_555 1_555
H49 C39 1_555 1_555
H50 C39 1_555 1_555
C40 C38 1_555 1_555
H51 C40 1_555 1_555
C41 C43 1_555 1_555
C42 C35 1_555 1_555
H52 C42 1_555 1_555
C43 H53 1_555 1_555
C44 C33 1_555 1_555
C45 C44 1_555 1_555
H54 C45 1_555 1_555
C46 C43 1_555 1_555
H55 C46 1_555 1_555
C47 C35 1_555 1_555
C48 C41 1_555 1_555
H56 C48 1_555 1_555
O9 C34 1_555 1_555
O10 C47 1_555 1_555
O11 C39 1_555 1_555
O12 C47 1_555 1_555
Ni2 O10 1_555 1_555
N7 Ni2 1_555 1_555
H57 N7 1_555 1_555
N8 Ni2 1_555 1_555
H58 N8 1_555 1_555
N9 Ni2 1_555 1_555
N10 Ni2 1_555 1_555
N11 C51 1_555 1_555
C49 N8 1_555 1_555
H59 C49 1_555 1_555
H60 C49 1_555 1_555
C50 N7 1_555 1_555
H61 C50 1_555 1_555
C51 N10 1_555 1_555
H62 C51 1_555 1_555
H63 C51 1_555 1_555
C52 N10 1_555 1_555
H64 C52 1_555 1_555
H65 C52 1_555 1_555
C53 N11 1_555 1_555
H66 C53 1_555 1_555
H67 C53 1_555 1_555
C54 N7 1_555 1_555
H68 C54 1_555 1_555
H69 C54 1_555 1_555
C55 N10 1_555 1_555
H70 C55 1_555 1_555
H71 C55 1_555 1_555
C56 N9 1_555 1_555
H72 C56 1_555 1_555
H73 C56 1_555 1_555
C57 C53 1_555 1_555
H74 C57 1_555 1_555
H75 C57 1_555 1_555
C58 N9 1_555 1_555
H76 C58 1_555 1_555
H77 C58 1_555 1_555
C59 H78 1_555 1_555
H79 C59 1_555 1_555
C60 N9 1_555 1_555
H80 C60 1_555 1_555
H81 C60 1_555 1_555
N12 C59 1_555 1_555
C61 N8 1_555 1_555
H82 C61 1_555 1_555
H83 C61 1_555 1_555
C62 C50 1_555 1_555
H84 C62 1_555 1_555
H85 C62 1_555 1_555
H86 C62 1_555 1_555
C63 C58 1_555 1_555
H87 C63 1_555 1_555
H88 C63 1_555 1_555
O13 Ni2 1_555 1_555
O14 Ni1 1_555 1_555
Ni3 O7 1_555 1_555
C5 C11 1_555 1_555
C6 O3 1_555 1_555
C10 O5 1_555 1_555
C13 C15 1_555 1_555
N5 C23 1_555 1_555
C18 C19 1_555 1_555
C28 C32 1_555 1_555
C29 N6 1_555 1_555
N6 C30 1_555 1_555
C36 C42 1_555 1_555
C37 O9 1_555 1_555
C41 O11 1_555 1_555
C44 C46 1_555 1_555
C45 C48 1_555 1_555
N11 C54 1_555 1_555
C49 C50 1_555 1_555
C52 C56 1_555 1_555
C55 C57 1_555 1_555
C59 C63 1_555 1_555
C60 N12 1_555 1_555
N12 C61 1_555 1_555
O14 C33_2 1_555 1_555
C33_2 O8_2 1_555 1_555
H54_2 C45_2 1_555 1_555
O13 C1 1_555 1_555
C1 O2 1_555 1_555
C8_2 C3_2 1_555 1_555
H5_2 C8_2 1_555 1_555
C10_2 C12_2 1_555 1_555
C12_2 H9_2 1_555 1_555
C13_2 C1 1_555 1_555
C14 C13_2 1_555 1_555
H10 C14 1_555 1_555
C15_2 C12_2 1_555 1_555
H11_2 C15_2 1_555 1_555
C17_2 C10_2 1_555 1_555
H12_2 C17_2 1_555 1_555
O5_2 C8_2 1_555 1_555
C34_2 C36_2 1_555 1_555
C36_2 H45_2 1_555 1_555
C37_2 C3_2 1_555 1_555
H46_2 C37_2 1_555 1_555
H47_2 C37_2 1_555 1_555
C38_2 C34_2 1_555 1_555
H48_2 C38_2 1_555 1_555
C40_2 C38_2 1_555 1_555
H51_2 C40_2 1_555 1_555
O9_2 C34_2 1_555 1_555
C10_2 O5_2 1_555 1_555
C13_2 C15_2 1_555 1_555
C14 C17_2 1_555 1_555
C37_2 O9_2 1_555 1_555
Ni3 O4_2 1_555 1_555
C11_2 C4_2 1_555 1_555
H8_2 C11_2 1_555 1_555
C16_2 C4_2 1_555 1_555
O4_2 C16_2 1_555 1_555
N1_2 Ni3 1_555 1_555
H13_2 N1_2 1_555 1_555
N2_2 Ni3 1_555 1_555
H14_2 N2_2 1_555 1_555
N3_2 Ni3 1_555 1_555
N4 Ni3 1_555 1_555
N5_2 C20 1_555 1_555
C18_2 N2_2 1_555 1_555
H15_2 C18_2 1_555 1_555
H16_2 C18_2 1_555 1_555
C19_2 N1_2 1_555 1_555
H17_2 C19_2 1_555 1_555
C20 N4 1_555 1_555
H18_2 C20 1_555 1_555
H19 C20 1_555 1_555
C21 N4 1_555 1_555
H20 C21 1_555 1_555
H21 C21 1_555 1_555
C22 N5_2 1_555 1_555
H22 C22 1_555 1_555
H23_2 C22 1_555 1_555
C23_2 N1_2 1_555 1_555
H24_2 C23_2 1_555 1_555
H25_2 C23_2 1_555 1_555
C24 N4 1_555 1_555
H26 C24 1_555 1_555
H27 C24 1_555 1_555
C25 N3_2 1_555 1_555
H28 C25 1_555 1_555
H29 C25 1_555 1_555
C26 C22 1_555 1_555
H30 C26 1_555 1_555
H31 C26 1_555 1_555
C27_2 N3_2 1_555 1_555
H32 C27_2 1_555 1_555
H33_2 C27_2 1_555 1_555
C28_2 H34_2 1_555 1_555
H35_2 C28_2 1_555 1_555
C29_2 N3_2 1_555 1_555
H36_2 C29_2 1_555 1_555
H37 C29_2 1_555 1_555
N6_2 C28_2 1_555 1_555
C30_2 N2_2 1_555 1_555
H38_2 C30_2 1_555 1_555
H39_2 C30_2 1_555 1_555
C31_2 C19_2 1_555 1_555
H40_2 C31_2 1_555 1_555
H41_2 C31_2 1_555 1_555
H42_2 C31_2 1_555 1_555
C32_2 C27_2 1_555 1_555
H43_2 C32_2 1_555 1_555
H44_2 C32_2 1_555 1_555
O6_2 C16_2 1_555 1_555
N5_2 C23_2 1_555 1_555
C18_2 C19_2 1_555 1_555
C21 C25 1_555 1_555
C24 C26 1_555 1_555
C28_2 C32_2 1_555 1_555
C29_2 N6_2 1_555 1_555
N6_2 C30_2 1_555 1_555
O1 C1_2 1_555 1_555
C1_2 O2_2 1_555 1_555
H10_2 C14_2 1_555 1_555
C20_2 N4_2 1_555 1_555
H19_2 C20_2 1_555 1_555
C21_2 N4_2 1_555 1_555
H20_2 C21_2 1_555 1_555
H21_2 C21_2 1_555 1_555
H22_2 C22_2 1_555 1_555
C24_2 N4_2 1_555 1_555
H26_2 C24_2 1_555 1_555
H27_2 C24_2 1_555 1_555
H28_2 C25_2 1_555 1_555
H29_2 C25_2 1_555 1_555
C26_2 C22_2 1_555 1_555
H30_2 C26_2 1_555 1_555
H31_2 C26_2 1_555 1_555
Ni4 O1 1_555 1_555
C21_2 C25_2 1_555 1_555
C24_2 C26_2 1_555 1_555
C42_2 C35_2 1_555 1_555
H52_2 C42_2 1_555 1_555
C47_2 C35_2 1_555 1_555
O10_2 C47_2 1_555 1_555
O12_2 C47_2 1_555 1_555
Ni4 O10_2 1_555 1_555
N7_2 Ni4 1_555 1_555
H57_2 N7_2 1_555 1_555
N8_2 Ni4 1_555 1_555
H58_2 N8_2 1_555 1_555
N9_2 Ni4 1_555 1_555
C49_2 N8_2 1_555 1_555
H59_2 C49_2 1_555 1_555
H60_2 C49_2 1_555 1_555
C50_2 N7_2 1_555 1_555
H61_2 C50_2 1_555 1_555
C54_2 N7_2 1_555 1_555
H68_2 C54_2 1_555 1_555
H69_2 C54_2 1_555 1_555
C58_2 N9_2 1_555 1_555
H77_2 C58_2 1_555 1_555
C59_2 H78_2 1_555 1_555
H79_2 C59_2 1_555 1_555
C60_2 N9_2 1_555 1_555
H80_2 C60_2 1_555 1_555
N12_2 C59_2 1_555 1_555
C61_2 N8_2 1_555 1_555
H82_2 C61_2 1_555 1_555
H83_2 C61_2 1_555 1_555
C62_2 C50_2 1_555 1_555
H84_2 C62_2 1_555 1_555
H85_2 C62_2 1_555 1_555
H86_2 C62_2 1_555 1_555
C63_2 C58_2 1_555 1_555
H87_2 C63_2 1_555 1_555
H88_2 C63_2 1_555 1_555
N11_2 C54_2 1_555 1_555
C49_2 C50_2 1_555 1_555
C59_2 C63_2 1_555 1_555
C60_2 N12_2 1_555 1_555
N12_2 C61_2 1_555 1_555
C2_2 C5_2 1_555 1_555
C3_3 C6_2 1_555 1_555
C5_2 H1_2 1_555 1_555
C6_2 H2_2 1_555 1_555
H3_2 C6_2 1_555 1_555
C7_2 C2_2 1_555 1_555
H4_2 C7_2 1_555 1_555
C9_2 C7_2 1_555 1_555
H7_2 C9_2 1_555 1_555
O3_2 C2_2 1_555 1_555
C39_2 C3_3 1_555 1_555
H49_2 C39_2 1_555 1_555
C41_2 C43_2 1_555 1_555
C43_2 H53_2 1_555 1_555
C46_2 C43_2 1_555 1_555
H55_2 C46_2 1_555 1_555
C48_2 C41_2 1_555 1_555
H56_2 C48_2 1_555 1_555
O11_2 C39_2 1_555 1_555
C6_2 O3_2 1_555 1_555
C41_2 O11_2 1_555 1_555
C44_2 C46_2 1_555 1_555
Ni1_2 O4_3 1_555 1_555
C11_3 C4_3 1_555 1_555
H8_3 C11_3 1_555 1_555
C16_3 C4_3 1_555 1_555
O4_3 C16_3 1_555 1_555
N1_3 Ni1_2 1_555 1_555
H13_3 N1_3 1_555 1_555
N2_3 Ni1_2 1_555 1_555
H14_3 N2_3 1_555 1_555
N3_3 Ni1_2 1_555 1_555
N4_3 Ni1_2 1_555 1_555
N5_3 C20_3 1_555 1_555
C18_3 N2_3 1_555 1_555
H15_3 C18_3 1_555 1_555
H16_3 C18_3 1_555 1_555
C19_3 N1_3 1_555 1_555
H17_3 C19_3 1_555 1_555
C20_3 N4_3 1_555 1_555
H18_3 C20_3 1_555 1_555
H19_3 C20_3 1_555 1_555
C21_3 N4_3 1_555 1_555
H20_3 C21_3 1_555 1_555
H21_3 C21_3 1_555 1_555
C22_3 N5_3 1_555 1_555
H22_3 C22_3 1_555 1_555
H23_3 C22_3 1_555 1_555
C23_3 N1_3 1_555 1_555
H24_3 C23_3 1_555 1_555
H25_3 C23_3 1_555 1_555
C24_3 N4_3 1_555 1_555
H26_3 C24_3 1_555 1_555
H27_3 C24_3 1_555 1_555
C25_3 N3_3 1_555 1_555
H28_3 C25_3 1_555 1_555
H29_3 C25_3 1_555 1_555
C26_3 C22_3 1_555 1_555
H30_3 C26_3 1_555 1_555
H31_3 C26_3 1_555 1_555
C27_3 N3_3 1_555 1_555
H32_3 C27_3 1_555 1_555
H33_3 C27_3 1_555 1_555
C28_3 H34_3 1_555 1_555
H35_3 C28_3 1_555 1_555
C29_3 N3_3 1_555 1_555
H36_3 C29_3 1_555 1_555
H37_3 C29_3 1_555 1_555
N6_3 C28_3 1_555 1_555
C30_3 N2_3 1_555 1_555
H38_3 C30_3 1_555 1_555
H39_3 C30_3 1_555 1_555
C31_3 C19_3 1_555 1_555
H40_3 C31_3 1_555 1_555
H41_3 C31_3 1_555 1_555
H42_3 C31_3 1_555 1_555
C32_3 C27_3 1_555 1_555
H43_3 C32_3 1_555 1_555
H44_3 C32_3 1_555 1_555
O6_3 C16_3 1_555 1_555
O14_2 Ni1_2 1_555 1_555
N5_3 C23_3 1_555 1_555
C18_3 C19_3 1_555 1_555
C21_3 C25_3 1_555 1_555
C24_3 C26_3 1_555 1_555
C28_3 C32_3 1_555 1_555
C29_3 N6_3 1_555 1_555
N6_3 C30_3 1_555 1_555
O1_2 C1_3 1_555 1_555
C1_3 O2_3 1_555 1_555
C8_3 C3_4 1_555 1_555
H5_3 C8_3 1_555 1_555
C10_3 C12_3 1_555 1_555
C12_3 H9_3 1_555 1_555
C13_3 C1_3 1_555 1_555
C14_3 C13_3 1_555 1_555
H10_3 C14_3 1_555 1_555
C15_3 C12_3 1_555 1_555
H11_3 C15_3 1_555 1_555
C17_3 C10_3 1_555 1_555
H12_3 C17_3 1_555 1_555
O5_3 C8_3 1_555 1_555
C34_3 C36_3 1_555 1_555
C36_3 H45_3 1_555 1_555
C37_3 C3_4 1_555 1_555
H46_3 C37_3 1_555 1_555
H47_3 C37_3 1_555 1_555
C38_3 C34_3 1_555 1_555
H48_3 C38_3 1_555 1_555
C40_3 C38_3 1_555 1_555
H51_3 C40_3 1_555 1_555
O9_3 C34_3 1_555 1_555
Ni4_2 O1_2 1_555 1_555
C10_3 O5_3 1_555 1_555
C13_3 C15_3 1_555 1_555
C14_3 C17_3 1_555 1_555
C37_3 O9_3 1_555 1_555
O7_2 C33_3 1_555 1_555
C33_3 O8_3 1_555 1_555
H54_3 C45_3 1_555 1_555
Ni3_2 O7_2 1_555 1_555
Ni3_2 O4_4 1_555 1_555
C2_3 C5_3 1_555 1_555
C3_5 C6_3 1_555 1_555
C4_4 C9_3 1_555 1_555
C5_3 H1_3 1_555 1_555
C6_3 H2_3 1_555 1_555
H3_3 C6_3 1_555 1_555
C7_3 C2_3 1_555 1_555
H4_3 C7_3 1_555 1_555
C8_4 C3_5 1_555 1_555
H5_4 C8_4 1_555 1_555
H6_3 C8_4 1_555 1_555
C9_3 C7_3 1_555 1_555
H7_3 C9_3 1_555 1_555
C10_4 C12_4 1_555 1_555
C11_4 C4_4 1_555 1_555
H8_4 C11_4 1_555 1_555
C12_4 H9_4 1_555 1_555
C15_4 C12_4 1_555 1_555
H11_4 C15_4 1_555 1_555
C16_4 C4_4 1_555 1_555
C17_4 C10_4 1_555 1_555
H12_4 C17_4 1_555 1_555
O3_3 C2_3 1_555 1_555
O4_4 C16_4 1_555 1_555
O5_4 C8_4 1_555 1_555
N1_4 Ni3_2 1_555 1_555
H13_4 N1_4 1_555 1_555
N2_4 Ni3_2 1_555 1_555
H14_4 N2_4 1_555 1_555
N3_4 Ni3_2 1_555 1_555
C18_4 N2_4 1_555 1_555
H15_4 C18_4 1_555 1_555
H16_4 C18_4 1_555 1_555
C19_4 N1_4 1_555 1_555
H17_4 C19_4 1_555 1_555
C23_4 N1_4 1_555 1_555
H24_4 C23_4 1_555 1_555
H25_4 C23_4 1_555 1_555
C27_4 N3_4 1_555 1_555
H33_4 C27_4 1_555 1_555
C28_4 H34_4 1_555 1_555
H35_4 C28_4 1_555 1_555
C29_4 N3_4 1_555 1_555
H36_4 C29_4 1_555 1_555
N6_4 C28_4 1_555 1_555
C30_4 N2_4 1_555 1_555
H38_4 C30_4 1_555 1_555
H39_4 C30_4 1_555 1_555
C31_4 C19_4 1_555 1_555
H40_4 C31_4 1_555 1_555
H41_4 C31_4 1_555 1_555
H42_4 C31_4 1_555 1_555
C32_4 C27_4 1_555 1_555
H43_4 C32_4 1_555 1_555
H44_4 C32_4 1_555 1_555
O6_4 C16_4 1_555 1_555
O14_2 C33_4 1_555 1_555
C33_4 O8_4 1_555 1_555
C34_4 C36_4 1_555 1_555
C35_3 C40_4 1_555 1_555
C36_4 H45_4 1_555 1_555
C37_4 C3_5 1_555 1_555
H46_4 C37_4 1_555 1_555
H47_4 C37_4 1_555 1_555
C38_4 C34_4 1_555 1_555
H48_4 C38_4 1_555 1_555
C39_3 C3_5 1_555 1_555
H49_3 C39_3 1_555 1_555
H50_4 C39_3 1_555 1_555
C40_4 C38_4 1_555 1_555
H51_4 C40_4 1_555 1_555
C41_3 C43_3 1_555 1_555
C42_3 C35_3 1_555 1_555
H52_3 C42_3 1_555 1_555
C43_3 H53_3 1_555 1_555
C44_3 C33_4 1_555 1_555
C45_4 C44_3 1_555 1_555
H54_4 C45_4 1_555 1_555
C46_3 C43_3 1_555 1_555
H55_3 C46_3 1_555 1_555
C47_3 C35_3 1_555 1_555
C48_3 C41_3 1_555 1_555
H56_3 C48_3 1_555 1_555
O9_4 C34_4 1_555 1_555
O10_3 C47_3 1_555 1_555
O11_3 C39_3 1_555 1_555
O12_3 C47_3 1_555 1_555
Ni4_2 O10_3 1_555 1_555
N7_3 Ni4_2 1_555 1_555
H57_3 N7_3 1_555 1_555
N8_3 Ni4_2 1_555 1_555
H58_3 N8_3 1_555 1_555
N9_3 Ni4_2 1_555 1_555
N10_2 Ni4_2 1_555 1_555
N11_3 C51_2 1_555 1_555
C49_3 N8_3 1_555 1_555
H59_3 C49_3 1_555 1_555
H60_3 C49_3 1_555 1_555
C50_3 N7_3 1_555 1_555
H61_3 C50_3 1_555 1_555
C51_2 N10_2 1_555 1_555
H62_3 C51_2 1_555 1_555
H63_2 C51_2 1_555 1_555
C52_2 N10_2 1_555 1_555
H64_2 C52_2 1_555 1_555
H65_2 C52_2 1_555 1_555
C53_2 N11_3 1_555 1_555
H66_2 C53_2 1_555 1_555
H67_3 C53_2 1_555 1_555
C54_3 N7_3 1_555 1_555
H68_3 C54_3 1_555 1_555
H69_3 C54_3 1_555 1_555
C55_2 N10_2 1_555 1_555
H70_2 C55_2 1_555 1_555
H71_2 C55_2 1_555 1_555
C56_2 N9_3 1_555 1_555
H72_2 C56_2 1_555 1_555
H73_2 C56_2 1_555 1_555
C57_2 C53_2 1_555 1_555
H74_2 C57_2 1_555 1_555
H75_2 C57_2 1_555 1_555
C58_3 N9_3 1_555 1_555
H76_2 C58_3 1_555 1_555
H77_3 C58_3 1_555 1_555
C59_3 H78_3 1_555 1_555
H79_3 C59_3 1_555 1_555
C60_3 N9_3 1_555 1_555
H80_3 C60_3 1_555 1_555
H81_2 C60_3 1_555 1_555
N12_3 C59_3 1_555 1_555
C61_3 N8_3 1_555 1_555
H82_3 C61_3 1_555 1_555
H83_3 C61_3 1_555 1_555
C62_3 C50_3 1_555 1_555
H84_3 C62_3 1_555 1_555
H85_3 C62_3 1_555 1_555
H86_3 C62_3 1_555 1_555
C63_3 C58_3 1_555 1_555
H87_3 C63_3 1_555 1_555
H88_3 C63_3 1_555 1_555
C5_3 C11_4 1_555 1_555
C6_3 O3_3 1_555 1_555
C10_4 O5_4 1_555 1_555
C13_4 C15_4 1_555 1_555
N5_4 C23_4 1_555 1_555
C18_4 C19_4 1_555 1_555
C28_4 C32_4 1_555 1_555
C29_4 N6_4 1_555 1_555
N6_4 C30_4 1_555 1_555
C36_4 C42_3 1_555 1_555
C37_4 O9_4 1_555 1_555
C41_3 O11_3 1_555 1_555
C44_3 C46_3 1_555 1_555
C45_4 C48_3 1_555 1_555
N11_3 C54_3 1_555 1_555
C49_3 C50_3 1_555 1_555
C52_2 C56_2 1_555 1_555
C55_2 C57_2 1_555 1_555
C59_3 C63_3 1_555 1_555
C60_3 N12_3 1_555 1_555
N12_3 C61_3 1_555 1_555
C42_4 C35_4 1_555 1_555
H52_4 C42_4 1_555 1_555
C47_4 C35_4 1_555 1_555
O10_4 C47_4 1_555 1_555
O12_4 C47_4 1_555 1_555
Ni2_2 O10_4 1_555 1_555
N7_4 Ni2_2 1_555 1_555
H57_4 N7_4 1_555 1_555
N8_4 Ni2_2 1_555 1_555
H58_4 N8_4 1_555 1_555
N9_4 Ni2_2 1_555 1_555
C49_4 N8_4 1_555 1_555
H59_4 C49_4 1_555 1_555
H60_4 C49_4 1_555 1_555
C50_4 N7_4 1_555 1_555
H61_4 C50_4 1_555 1_555
C54_4 N7_4 1_555 1_555
H68_4 C54_4 1_555 1_555
H69_4 C54_4 1_555 1_555
C58_4 N9_4 1_555 1_555
H77_4 C58_4 1_555 1_555
C59_4 H78_4 1_555 1_555
H79_4 C59_4 1_555 1_555
C60_4 N9_4 1_555 1_555
H80_4 C60_4 1_555 1_555
N12_4 C59_4 1_555 1_555
C61_4 N8_4 1_555 1_555
H82_4 C61_4 1_555 1_555
H83_4 C61_4 1_555 1_555
C62_4 C50_4 1_555 1_555
H84_4 C62_4 1_555 1_555
H85_4 C62_4 1_555 1_555
H86_4 C62_4 1_555 1_555
C63_4 C58_4 1_555 1_555
H87_4 C63_4 1_555 1_555
H88_4 C63_4 1_555 1_555
O13_2 Ni2_2 1_555 1_555
N11_4 C54_4 1_555 1_555
C49_4 C50_4 1_555 1_555
C59_4 C63_4 1_555 1_555
C60_4 N12_4 1_555 1_555
N12_4 C61_4 1_555 1_555
O13_2 C1_4 1_555 1_555
C1_4 O2_4 1_555 1_555
H10_4 C14_4 1_555 1_555
C20_4 N4_4 1_555 1_555
H19_4 C20_4 1_555 1_555
C21_4 N4_4 1_555 1_555
H20_4 C21_4 1_555 1_555
H21_4 C21_4 1_555 1_555
H22_4 C22_4 1_555 1_555
C24_4 N4_4 1_555 1_555
H26_4 C24_4 1_555 1_555
H27_4 C24_4 1_555 1_555
H28_4 C25_4 1_555 1_555
H29_4 C25_4 1_555 1_555
C26_4 C22_4 1_555 1_555
H30_4 C26_4 1_555 1_555
H31_4 C26_4 1_555 1_555
C21_4 C25_4 1_555 1_555
C24_4 C26_4 1_555 1_555
C51_3 N10_3 1_555 1_555
H63_3 C51_3 1_555 1_555
C52_3 N10_3 1_555 1_555
H64_3 C52_3 1_555 1_555
H65_3 C52_3 1_555 1_555
H66_3 C53_3 1_555 1_555
C55_3 N10_3 1_555 1_555
H70_3 C55_3 1_555 1_555
H71_3 C55_3 1_555 1_555
H72_3 C56_3 1_555 1_555
H73_3 C56_3 1_555 1_555
C57_3 C53_3 1_555 1_555
H74_3 C57_3 1_555 1_555
H75_3 C57_3 1_555 1_555
C52_3 C56_3 1_555 1_555
C55_3 C57_3 1_555 1_555
C51_4 N10_4 1_555 1_555
H63_4 C51_4 1_555 1_555
C52_4 N10_4 1_555 1_555
H64_4 C52_4 1_555 1_555
H65_4 C52_4 1_555 1_555
H66_4 C53_4 1_555 1_555
C55_4 N10_4 1_555 1_555
H70_4 C55_4 1_555 1_555
H71_4 C55_4 1_555 1_555
H72_4 C56_4 1_555 1_555
H73_4 C56_4 1_555 1_555
C57_4 C53_4 1_555 1_555
H74_4 C57_4 1_555 1_555
H75_4 C57_4 1_555 1_555
C52_4 C56_4 1_555 1_555
C55_4 C57_4 1_555 1_555
C2_4 C5_4 1_555 1_555
C3_6 C6_4 1_555 1_555
C5_4 H1_4 1_555 1_555
C6_4 H2_4 1_555 1_555
H3_4 C6_4 1_555 1_555
C7_4 C2_4 1_555 1_555
H4_4 C7_4 1_555 1_555
C9_4 C7_4 1_555 1_555
H7_4 C9_4 1_555 1_555
O3_4 C2_4 1_555 1_555
C39_4 C3_6 1_555 1_555
H49_4 C39_4 1_555 1_555
C41_4 C43_4 1_555 1_555
C43_4 H53_4 1_555 1_555
C46_4 C43_4 1_555 1_555
H55_4 C46_4 1_555 1_555
C48_4 C41_4 1_555 1_555
H56_4 C48_4 1_555 1_555
O11_4 C39_4 1_555 1_555
C6_4 O3_4 1_555 1_555
C41_4 O11_4 1_555 1_555
C44_4 C46_4 1_555 1_555

#END
