
###############################################################################
#
# This file contains modified crystal structure data generated from the
# MOF subset of the Cambridge Structural Database (CSD) v543 
# hosted by the Cambridge Crystallographic Data Centre (CCDC).
#
# This work is licensed under the Creative Commons
# Attribution-NonCommercial-ShareAlike 4.0 International License.
# To view a copy of this license, visit
# http://creativecommons.org/licenses/by-nc-sa/4.0/
# or send a letter to
# Creative Commons, PO Box 1866, Mountain View, CA 94042, USA.
#
# CIF created using the CSD Python API on 29 September 2022
# The structure has been converted into the P1 space group
# The structure has a 3D framework
# The original CSD entry RUWYIT is in the orthorhombic crystal system
# The framework has been calculated to contain at least 10.0% void space
# The void calculation uses a probe of radius 1.32A, grid spacing 0.4
#
###############################################################################

data_RUWYIT
_chemical_formula_moiety         '(C246 H340 N48 Ni8 O48)n'
_symmetry_cell_setting           triclinic
_symmetry_space_group_name_H-M   'P 1'
_symmetry_Int_Tables_number      1
_space_group_name_Hall           'P 1'
loop_
_symmetry_equiv_pos_site_id
_symmetry_equiv_pos_as_xyz
1 x,y,z
_cell_length_a                   11.817(2)
_cell_length_b                   24.760(5)
_cell_length_c                   32.256(7)
_cell_angle_alpha                90
_cell_angle_beta                 90
_cell_angle_gamma                90
_cell_volume                     9437.75
loop_
_atom_site_label
_atom_site_type_symbol
_atom_site_fract_x
_atom_site_fract_y
_atom_site_fract_z
C2 C 0.2500 -0.0000 0.3674(2)
C4 C 0.1332(6) 0.0721(2) 0.27953(16)
C7 C 0.1241(6) 0.1337(2) 0.22234(17)
H3 H 0.1493 0.1650 0.2093
C10 C 0.1757(5) 0.1169(2) 0.25835(16)
H6 H 0.2386 0.1352 0.2685
C12 C 0.1524(5) 0.0153(2) 0.34013(15)
H9 H 0.0865 0.0237 0.3569
C13 C 0.0330(7) 0.1042(2) 0.20493(19)
C14 C 0.0422(7) 0.0437(3) 0.26365(19)
H10 H 0.0159 0.0134 0.2776
O3 O 0.1852(4) 0.06113(14) 0.31673(11)
C33 C 0.2154(5) 0.09495(19) 0.45496(15)
C35 C 0.2840(4) 0.04772(19) 0.39629(14)
H43 H 0.3492 0.0377 0.4129
H44 H 0.3041 0.0790 0.3797
C36 C 0.2317(5) 0.1627(2) 0.52415(16)
C38 C 0.3231(5) 0.1571(2) 0.49539(15)
H46 H 0.3907 0.1754 0.5000
C39 C 0.1227(5) 0.10176(19) 0.48311(14)
H47 H 0.0552 0.0833 0.4787
C41 C 0.1335(6) 0.1355(2) 0.51641(16)
H49 H 0.0724 0.1400 0.5343
H50 H 0.3666 0.0144 0.3218
C45 C 0.2439(6) 0.1990(2) 0.56086(18)
C46 C 0.3118(5) 0.12480(19) 0.46086(15)
H53 H 0.3699 0.1232 0.4414
O10 O 0.1915(4) 0.06038(14) 0.42247(11)
O11 O 0.3435(4) 0.21928(16) 0.56751(12)
O12 O 0.1594(5) 0.2064(2) 0.58307(15)
Ni2 Ni 0.41808(9) 0.27601(3) 0.61150(2)
N7 N 0.2760(6) 0.2714(2) 0.64667(15)
H55 H 0.2311 0.2411 0.6361
N8 N 0.5010(6) 0.2116(2) 0.6441(2)
N9 N 0.3353(8) 0.3397(3) 0.5794(2)
H56 H 0.3649 0.3729 0.5919
N10 N 0.5694(8) 0.2809(3) 0.5748(2)
N11 N 0.3705(8) 0.2160(3) 0.7006(2)
N12 N 0.4797(11) 0.3244(5) 0.5201(3)
C48 C 0.4850(8) 0.2219(3) 0.6884(3)
H57 H 0.5314 0.1969 0.7042
H58 H 0.5101 0.2582 0.6948
C49 C 0.3714(12) 0.3422(6) 0.5339(3)
H59 H 0.3157 0.3219 0.5182
H60 H 0.3640 0.3796 0.5253
C50 C 0.6216(9) 0.2188(4) 0.6306(3)
H61 H 0.6645 0.1863 0.6364
H62 H 0.6559 0.2485 0.6456
C51 C 0.4640(9) 0.1541(3) 0.6335(3)
H63 H 0.5170 0.1284 0.6452
H64 H 0.4633 0.1494 0.6036
C52 C 0.2985(8) 0.2603(4) 0.6933(2)
H65 H 0.3318 0.2923 0.7056
H66 H 0.2267 0.2537 0.7070
C53 C 0.3446(9) 0.1438(4) 0.6511(3)
H67 H 0.2905 0.1623 0.6335
H68 H 0.3291 0.1054 0.6490
C54 C 0.6230(11) 0.2307(4) 0.5833(4)
H69 H 0.7005 0.2318 0.5735
H70 H 0.5839 0.2020 0.5686
C55 C 0.5448(12) 0.2785(5) 0.5310(3)
H71 H 0.6147 0.2781 0.5152
H72 H 0.5030 0.2458 0.5246
C56 C 0.3226(11) 0.1610(4) 0.6956(3)
H73 H 0.2419 0.1613 0.7012
H74 H 0.3586 0.1361 0.7147
C57 C 0.2143(10) 0.3365(4) 0.5936(3)
H75 H 0.1743 0.3097 0.5773
H76 H 0.1778 0.3711 0.5893
C58 C 0.2086(9) 0.3211(4) 0.6403(3)
H77 H 0.2389 0.3503 0.6571
H78 H 0.1307 0.3150 0.6484
C59 C 0.6164(11) 0.3771(5) 0.5669(3)
H79 H 0.6757 0.4041 0.5684
H80 H 0.5556 0.3882 0.5852
C60 C 0.6597(10) 0.3261(4) 0.5801(3)
H81 H 0.6821 0.3284 0.6090
H82 H 0.7263 0.3172 0.5639
C61 C 0.5736(12) 0.3737(5) 0.5241(3)
H83 H 0.6361 0.3669 0.5053
H84 H 0.5389 0.4077 0.5163
O13 O 0.4960(5) 0.33042(17) 0.65347(14)
C1 C 0.4761(7) 0.3773(3) 0.6658(2)
O2 O 0.4079(8) 0.4109(2) 0.6478(2)
C2_2 C 0.7500 0.5000 0.8674(2)
C3 C 0.7846(5) 0.59495(19) 0.95496(15)
C4_2 C 0.6332(6) 0.4279(2) 0.77953(16)
C5 C 0.7160(4) 0.54772(19) 0.89629(14)
H1 H 0.6508 0.5377 0.9129
H2 H 0.6959 0.5790 0.8797
C7_2 C 0.6241(6) 0.3663(2) 0.72234(17)
H3_2 H 0.6493 0.3350 0.7093
C8 C 0.6769(5) 0.6571(2) 0.99539(15)
H4 H 0.6093 0.6754 1.0000
C9 C 0.8773(5) 0.60176(19) 0.98311(14)
H5 H 0.9448 0.5833 0.9787
C10_2 C 0.6757(5) 0.3831(2) 0.75835(16)
H6_2 H 0.7386 0.3648 0.7685
C12_2 C 0.6524(5) 0.4847(2) 0.84013(15)
H8 H 0.6334 0.5144 0.8218
H9_2 H 0.5865 0.4763 0.8569
C13_2 C 0.5330(7) 0.3958(2) 0.70493(19)
C14_2 C 0.5422(7) 0.4563(3) 0.76365(19)
H10_2 H 0.5159 0.4866 0.7776
C16 C 0.6882(5) 0.62480(19) 0.96086(15)
H11 H 0.6301 0.6232 0.9414
C17 C 0.4903(7) 0.4406(3) 0.7278(2)
H12 H 0.4270 0.4591 0.7183
O3_2 O 0.6852(4) 0.43887(14) 0.81673(11)
O4 O 0.8085(4) 0.56038(14) 0.92247(11)
C33_2 C 0.7154(5) 0.40505(19) 0.95496(15)
C34 C 0.8668(6) 0.5721(2) 0.77953(16)
C35_2 C 0.7840(4) 0.45228(19) 0.89629(14)
H43_2 H 0.8492 0.4623 0.9129
H44_2 H 0.8041 0.4210 0.8797
C37 C 0.8759(6) 0.6337(2) 0.72234(17)
H45 H 0.8507 0.6650 0.7093
C38_2 C 0.8231(5) 0.3429(2) 0.99539(15)
H46_2 H 0.8907 0.3246 1.0000
C39_2 C 0.6227(5) 0.39824(19) 0.98311(14)
H47_2 H 0.5552 0.4167 0.9787
C40 C 0.8243(5) 0.6169(2) 0.75835(16)
H48 H 0.7614 0.6352 0.7685
C42 C 0.8476(5) 0.5153(2) 0.84013(15)
H50_2 H 0.8666 0.4856 0.8218
H51 H 0.9135 0.5237 0.8569
C43 C 0.9670(7) 0.6042(2) 0.70493(19)
C44 C 0.9578(7) 0.5437(3) 0.76365(19)
H52 H 0.9841 0.5134 0.7776
C46_2 C 0.8118(5) 0.37520(19) 0.96086(15)
H53_2 H 0.8699 0.3768 0.9414
O9 O 0.8148(4) 0.56113(14) 0.81673(11)
O10_2 O 0.6915(4) 0.43962(14) 0.92247(11)
Ni1 Ni 0.08192(9) 0.72399(3) 0.61150(2)
C2_3 C 0.2500 1.0000 0.3674(2)
C3_2 C 0.2846(5) 0.90505(19) 0.45496(15)
C5_2 C 0.2160(4) 0.95228(19) 0.39629(14)
H1_2 H 0.1508 0.9623 0.4129
H2_2 H 0.1959 0.9210 0.3797
C6 C 0.2683(5) 0.8373(2) 0.52415(16)
C8_2 C 0.1769(5) 0.8429(2) 0.49539(15)
H4_2 H 0.1093 0.8246 0.5000
C9_2 C 0.3773(5) 0.89824(19) 0.48311(14)
H5_2 H 0.4448 0.9167 0.4787
C11 C 0.3665(6) 0.8645(2) 0.51641(16)
H7 H 0.4276 0.8600 0.5343
H8_2 H 0.1334 0.9856 0.3218
C15 C 0.2561(6) 0.8010(2) 0.56086(18)
C16_2 C 0.1882(5) 0.87520(19) 0.46086(15)
H11_2 H 0.1301 0.8768 0.4414
O4_2 O 0.3085(4) 0.93962(14) 0.42247(11)
N1 N 0.2240(6) 0.7286(2) 0.64667(15)
H13 H 0.2689 0.7589 0.6361
N3 N 0.1647(8) 0.6603(3) 0.5794(2)
H14 H 0.1351 0.6271 0.5919
N5 N 0.1295(8) 0.7840(3) 0.7006(2)
N6 N 0.0203(11) 0.6756(5) 0.5201(3)
C18 C 0.0150(8) 0.7781(3) 0.6884(3)
C19 C 0.1286(12) 0.6578(6) 0.5339(3)
H17 H 0.1843 0.6781 0.5182
H18 H 0.1360 0.6204 0.5253
C21 C 0.0360(9) 0.8459(3) 0.6335(3)
H22 H 0.0367 0.8506 0.6036
C22 C 0.2015(8) 0.7397(4) 0.6933(2)
H23 H 0.1682 0.7077 0.7056
H24 H 0.2733 0.7463 0.7070
C23 C 0.1554(9) 0.8562(4) 0.6511(3)
H25 H 0.2095 0.8377 0.6335
H26 H 0.1709 0.8946 0.6490
C26 C 0.1774(11) 0.8390(4) 0.6956(3)
H31 H 0.2581 0.8387 0.7012
H32 H 0.1414 0.8639 0.7147
C27 C 0.2857(10) 0.6635(4) 0.5936(3)
H33 H 0.3257 0.6903 0.5773
H34 H 0.3222 0.6289 0.5893
C28 C 0.2914(9) 0.6789(4) 0.6403(3)
H35 H 0.2611 0.6497 0.6571
H36 H 0.3693 0.6850 0.6484
O5 O 0.1565(4) 0.78072(16) 0.56751(12)
O6 O 0.3406(5) 0.7936(2) 0.58307(15)
O7 O 0.5040(5) 0.83042(17) 0.15347(14)
C32 C 0.5239(7) 0.8773(3) 0.1658(2)
O8 O 0.5921(8) 0.9109(2) 0.1478(2)
C34_2 C 0.3668(6) 0.9279(2) 0.27953(16)
C37_2 C 0.3759(6) 0.8663(2) 0.22234(17)
H45_2 H 0.3507 0.8350 0.2093
C40_2 C 0.3243(5) 0.8831(2) 0.25835(16)
H48_2 H 0.2614 0.8648 0.2685
C42_2 C 0.3476(5) 0.9847(2) 0.34013(15)
H51_2 H 0.4135 0.9763 0.3569
C43_2 C 0.4670(7) 0.8958(2) 0.20493(19)
C44_2 C 0.4578(7) 0.9563(3) 0.26365(19)
H52_2 H 0.4841 0.9866 0.2776
C47 C 0.5097(7) 0.9406(3) 0.2278(2)
H54 H 0.5730 0.9591 0.2183
O9_2 O 0.3148(4) 0.93887(14) 0.31673(11)
O14 O 0.0040(5) 0.66958(17) 0.65347(14)
Ni3 Ni 0.58192(9) 0.77601(3) 0.11150(2)
O1 O 0.9960(5) 0.16958(17) 0.15347(14)
C1_2 C 0.9761(7) 0.1227(3) 0.1658(2)
O2_2 O 0.9079(8) 0.0891(2) 0.1478(2)
C17_2 C 0.9903(7) 0.0594(3) 0.2278(2)
H12_2 H 0.9270 0.0409 0.2183
Ni4 Ni 0.91808(9) 0.22399(3) 0.11150(2)
C32_2 C 0.0239(7) 0.6227(3) 0.6658(2)
O8_2 O 0.0921(8) 0.5891(2) 0.6478(2)
C47_2 C 0.0097(7) 0.5594(3) 0.7278(2)
H54_2 H 0.0730 0.5409 0.7183
C6_2 C 0.7683(5) 0.6627(2) 0.02415(16)
H4_3 H 0.6093 0.6754 0.0000
C11_2 C 0.8665(6) 0.6355(2) 0.01641(16)
H7_2 H 0.9276 0.6400 0.0343
C15_2 C 0.7561(6) 0.6990(2) 0.06086(18)
N1_2 N 0.7240(6) 0.7714(2) 0.14667(15)
H13_2 H 0.7689 0.7411 0.1361
N2 N 0.4990(6) 0.7116(2) 0.1441(2)
N3_2 N 0.6647(8) 0.8397(3) 0.0794(2)
H14_2 H 0.6351 0.8729 0.0919
N4 N 0.4306(8) 0.7809(3) 0.0748(2)
N5_2 N 0.6295(8) 0.7160(3) 0.2006(2)
N6_2 N 0.5203(11) 0.8244(5) 0.0201(3)
C18_2 C 0.5150(8) 0.7219(3) 0.1884(3)
H15 H 0.4686 0.6969 0.2042
H16 H 0.4899 0.7582 0.1948
C19_2 C 0.6286(12) 0.8422(6) 0.0339(3)
H17_2 H 0.6843 0.8219 0.0182
H18_2 H 0.6360 0.8796 0.0253
C20 C 0.3784(9) 0.7188(4) 0.1306(3)
H19 H 0.3355 0.6863 0.1364
H20 H 0.3441 0.7485 0.1456
C21_2 C 0.5360(9) 0.6541(3) 0.1335(3)
H21 H 0.4830 0.6284 0.1452
H22_2 H 0.5367 0.6494 0.1036
C22_2 C 0.7015(8) 0.7603(4) 0.1933(2)
H23_2 H 0.6682 0.7923 0.2056
H24_2 H 0.7733 0.7537 0.2070
C23_2 C 0.6554(9) 0.6438(4) 0.1511(3)
H25_2 H 0.7095 0.6623 0.1335
H26_2 H 0.6709 0.6054 0.1490
C24 C 0.3770(11) 0.7307(4) 0.0833(4)
H27 H 0.2995 0.7318 0.0735
H28 H 0.4161 0.7020 0.0686
C25 C 0.4552(12) 0.7785(5) 0.0310(3)
H29 H 0.3853 0.7781 0.0152
H30 H 0.4970 0.7458 0.0246
C26_2 C 0.6774(11) 0.6610(4) 0.1956(3)
H31_2 H 0.7581 0.6613 0.2012
H32_2 H 0.6414 0.6361 0.2147
C27_2 C 0.7857(10) 0.8365(4) 0.0936(3)
H33_2 H 0.8257 0.8097 0.0773
H34_2 H 0.8222 0.8711 0.0893
C28_2 C 0.7914(9) 0.8211(4) 0.1403(3)
H35_2 H 0.7611 0.8503 0.1571
H36_2 H 0.8693 0.8150 0.1484
O5_2 O 0.6565(4) 0.71928(16) 0.06751(12)
O6_2 O 0.8406(5) 0.7064(2) 0.08307(15)
C29 C 0.3836(11) 0.8771(5) 0.0669(3)
H37 H 0.3243 0.9041 0.0684
H38 H 0.4444 0.8882 0.0852
C30 C 0.3403(10) 0.8261(4) 0.0801(3)
H39 H 0.3179 0.8284 0.1090
H40 H 0.2737 0.8172 0.0639
C31 C 0.4264(12) 0.8737(5) 0.0241(3)
H41 H 0.3639 0.8669 0.0053
H42 H 0.4611 0.9077 0.0163
C36_2 C 0.7317(5) 0.3373(2) 0.02415(16)
H46_3 H 0.8907 0.3246 0.0000
C41_2 C 0.6335(6) 0.3645(2) 0.01641(16)
H49_2 H 0.5724 0.3600 0.0343
C45_2 C 0.7439(6) 0.3010(2) 0.06086(18)
O11_2 O 0.8435(4) 0.28072(16) 0.06751(12)
O12_2 O 0.6594(5) 0.2936(2) 0.08307(15)
N7_2 N 0.7760(6) 0.2286(2) 0.14667(15)
H55_2 H 0.7311 0.2589 0.1361
N9_2 N 0.8353(8) 0.1603(3) 0.0794(2)
H56_2 H 0.8649 0.1271 0.0919
N11_2 N 0.8705(8) 0.2840(3) 0.2006(2)
N12_2 N 0.9797(11) 0.1756(5) 0.0201(3)
C48_2 C 0.9850(8) 0.2781(3) 0.1884(3)
C49_2 C 0.8714(12) 0.1578(6) 0.0339(3)
H59_2 H 0.8157 0.1781 0.0182
H60_2 H 0.8640 0.1204 0.0253
C51_2 C 0.9640(9) 0.3459(3) 0.1335(3)
H64_2 H 0.9633 0.3506 0.1036
C52_2 C 0.7985(8) 0.2397(4) 0.1933(2)
H65_2 H 0.8318 0.2077 0.2056
H66_2 H 0.7267 0.2463 0.2070
C53_2 C 0.8446(9) 0.3562(4) 0.1511(3)
H67_2 H 0.7905 0.3377 0.1335
H68_2 H 0.8291 0.3946 0.1490
C56_2 C 0.8226(11) 0.3390(4) 0.1956(3)
H73_2 H 0.7419 0.3387 0.2012
H74_2 H 0.8586 0.3639 0.2147
C57_2 C 0.7143(10) 0.1635(4) 0.0936(3)
H75_2 H 0.6743 0.1903 0.0773
H76_2 H 0.6778 0.1289 0.0893
C58_2 C 0.7086(9) 0.1789(4) 0.1403(3)
H77_2 H 0.7389 0.1497 0.1571
H78_2 H 0.6307 0.1850 0.1484
N2_2 N 0.9990(6) 0.7884(2) 0.6441(2)
N4_2 N 0.9306(8) 0.7191(3) 0.5748(2)
H15_2 H 0.9686 0.8031 0.7042
H16_2 H 0.9899 0.7418 0.6948
C20_2 C 0.8784(9) 0.7812(4) 0.6306(3)
H19_2 H 0.8355 0.8137 0.6364
H20_2 H 0.8441 0.7515 0.6456
H21_2 H 0.9830 0.8716 0.6452
C24_2 C 0.8770(11) 0.7693(4) 0.5833(4)
H27_2 H 0.7995 0.7682 0.5735
H28_2 H 0.9161 0.7980 0.5686
C25_2 C 0.9552(12) 0.7215(5) 0.5310(3)
H29_2 H 0.8853 0.7219 0.5152
H30_2 H 0.9970 0.7542 0.5246
C29_2 C 0.8836(11) 0.6229(5) 0.5669(3)
H37_2 H 0.8243 0.5959 0.5684
H38_2 H 0.9444 0.6118 0.5852
C30_2 C 0.8403(10) 0.6739(4) 0.5801(3)
H39_2 H 0.8179 0.6716 0.6090
H40_2 H 0.7737 0.6828 0.5639
C31_2 C 0.9264(12) 0.6263(5) 0.5241(3)
H41_2 H 0.8639 0.6331 0.5053
H42_2 H 0.9611 0.5923 0.5163
O1_2 O 0.5040(5) 0.66958(17) 0.34653(14)
C1_3 C 0.5239(7) 0.6227(3) 0.3342(2)
O2_3 O 0.5921(8) 0.5891(2) 0.3522(2)
C2_4 C 0.2500 0.5000 0.1326(2)
C3_3 C 0.2154(5) 0.40505(19) 0.04504(15)
C4_3 C 0.3668(6) 0.5721(2) 0.22047(16)
C5_3 C 0.2840(4) 0.45228(19) 0.10371(14)
H1_3 H 0.3492 0.4623 0.0871
H2_3 H 0.3041 0.4210 0.1203
C7_3 C 0.3759(6) 0.6337(2) 0.27766(17)
H3_3 H 0.3507 0.6650 0.2907
C8_3 C 0.3231(5) 0.3429(2) 0.00461(15)
H4_4 H 0.3907 0.3246 0.0000
C9_3 C 0.1227(5) 0.39824(19) 0.01689(14)
H5_3 H 0.0552 0.4167 0.0213
C10_3 C 0.3243(5) 0.6169(2) 0.24165(16)
H6_3 H 0.2614 0.6352 0.2315
C12_3 C 0.3476(5) 0.5153(2) 0.15987(15)
H8_3 H 0.3666 0.4856 0.1782
H9_3 H 0.4135 0.5237 0.1431
C13_3 C 0.4670(7) 0.6042(2) 0.29507(19)
C14_3 C 0.4578(7) 0.5437(3) 0.23635(19)
H10_3 H 0.4841 0.5134 0.2224
C16_3 C 0.3118(5) 0.37520(19) 0.03914(15)
H11_3 H 0.3699 0.3768 0.0586
C17_3 C 0.5097(7) 0.5594(3) 0.2722(2)
H12_3 H 0.5730 0.5409 0.2817
O3_3 O 0.3148(4) 0.56113(14) 0.18327(11)
O4_3 O 0.1915(4) 0.43962(14) 0.07753(11)
C33_3 C 0.2846(5) 0.59495(19) 0.04504(15)
C34_3 C 0.1332(6) 0.4279(2) 0.22047(16)
C35_3 C 0.2160(4) 0.54772(19) 0.10371(14)
H43_3 H 0.1508 0.5377 0.0871
H44_3 H 0.1959 0.5790 0.1203
C37_3 C 0.1241(6) 0.3663(2) 0.27766(17)
H45_3 H 0.1493 0.3350 0.2907
C38_3 C 0.1769(5) 0.6571(2) 0.00461(15)
H46_4 H 0.1093 0.6754 0.0000
C39_3 C 0.3773(5) 0.60176(19) 0.01689(14)
H47_3 H 0.4448 0.5833 0.0213
C40_3 C 0.1757(5) 0.3831(2) 0.24165(16)
H48_3 H 0.2386 0.3648 0.2315
C42_3 C 0.1524(5) 0.4847(2) 0.15987(15)
H50_3 H 0.1334 0.5144 0.1782
H51_3 H 0.0865 0.4763 0.1431
C43_3 C 0.0330(7) 0.3958(2) 0.29507(19)
C44_3 C 0.0422(7) 0.4563(3) 0.23635(19)
H52_3 H 0.0159 0.4866 0.2224
C46_3 C 0.1882(5) 0.62480(19) 0.03914(15)
H53_3 H 0.1301 0.6232 0.0586
O9_3 O 0.1852(4) 0.43887(14) 0.18327(11)
O10_3 O 0.3085(4) 0.56038(14) 0.07753(11)
Ni4_2 Ni 0.58192(9) 0.72399(3) 0.38850(2)
C2_5 C 0.7500 1.0000 0.6326(2)
C4_4 C 0.8668(6) 0.9279(2) 0.72047(16)
C7_4 C 0.8759(6) 0.8663(2) 0.77766(17)
H3_4 H 0.8507 0.8350 0.7907
C10_4 C 0.8243(5) 0.8831(2) 0.74165(16)
H6_4 H 0.7614 0.8648 0.7315
C12_4 C 0.8476(5) 0.9847(2) 0.65987(15)
H9_4 H 0.9135 0.9763 0.6431
C13_4 C 0.9670(7) 0.8958(2) 0.79507(19)
C14_4 C 0.9578(7) 0.9563(3) 0.73635(19)
H10_4 H 0.9841 0.9866 0.7224
O3_4 O 0.8148(4) 0.93887(14) 0.68327(11)
C33_4 C 0.7846(5) 0.90505(19) 0.54504(15)
C35_4 C 0.7160(4) 0.95228(19) 0.60371(14)
H43_4 H 0.6508 0.9623 0.5871
H44_4 H 0.6959 0.9210 0.6203
C36_3 C 0.7683(5) 0.8373(2) 0.47585(16)
C38_4 C 0.6769(5) 0.8429(2) 0.50461(15)
H46_5 H 0.6093 0.8246 0.5000
C39_4 C 0.8773(5) 0.89824(19) 0.51689(14)
H47_4 H 0.9448 0.9167 0.5213
C41_3 C 0.8665(6) 0.8645(2) 0.48359(16)
H49_3 H 0.9276 0.8600 0.4657
H50_4 H 0.6334 0.9856 0.6782
C45_3 C 0.7561(6) 0.8010(2) 0.43914(18)
C46_4 C 0.6882(5) 0.87520(19) 0.53914(15)
H53_4 H 0.6301 0.8768 0.5586
O10_4 O 0.8085(4) 0.93962(14) 0.57753(11)
O11_3 O 0.6565(4) 0.78072(16) 0.43249(12)
O12_3 O 0.8406(5) 0.7936(2) 0.41693(15)
N7_3 N 0.7240(6) 0.7286(2) 0.35333(15)
H55_3 H 0.7689 0.7589 0.3639
N8_2 N 0.4990(6) 0.7884(2) 0.3559(2)
N9_3 N 0.6647(8) 0.6603(3) 0.4206(2)
H56_3 H 0.6351 0.6271 0.4081
N10_2 N 0.4306(8) 0.7191(3) 0.4252(2)
N11_3 N 0.6295(8) 0.7840(3) 0.2994(2)
N12_3 N 0.5203(11) 0.6756(5) 0.4799(3)
C48_3 C 0.5150(8) 0.7781(3) 0.3116(3)
H57_2 H 0.4686 0.8031 0.2958
H58_2 H 0.4899 0.7418 0.3052
C49_3 C 0.6286(12) 0.6578(6) 0.4661(3)
H59_3 H 0.6843 0.6781 0.4818
H60_3 H 0.6360 0.6204 0.4747
C50_2 C 0.3784(9) 0.7812(4) 0.3694(3)
H61_2 H 0.3355 0.8137 0.3636
H62_2 H 0.3441 0.7515 0.3544
C51_3 C 0.5360(9) 0.8459(3) 0.3665(3)
H63_2 H 0.4830 0.8716 0.3548
H64_3 H 0.5367 0.8506 0.3964
C52_3 C 0.7015(8) 0.7397(4) 0.3067(2)
H65_3 H 0.6682 0.7077 0.2944
H66_3 H 0.7733 0.7463 0.2930
C53_3 C 0.6554(9) 0.8562(4) 0.3489(3)
H67_3 H 0.7095 0.8377 0.3665
H68_3 H 0.6709 0.8946 0.3510
C54_2 C 0.3770(11) 0.7693(4) 0.4167(4)
H69_2 H 0.2995 0.7682 0.4265
H70_2 H 0.4161 0.7980 0.4314
C55_2 C 0.4552(12) 0.7215(5) 0.4690(3)
H71_2 H 0.3853 0.7219 0.4848
H72_2 H 0.4970 0.7542 0.4754
C56_3 C 0.6774(11) 0.8390(4) 0.3044(3)
H73_3 H 0.7581 0.8387 0.2988
H74_3 H 0.6414 0.8639 0.2853
C57_3 C 0.7857(10) 0.6635(4) 0.4064(3)
H75_3 H 0.8257 0.6903 0.4227
H76_3 H 0.8222 0.6289 0.4107
C58_3 C 0.7914(9) 0.6789(4) 0.3597(3)
H77_3 H 0.7611 0.6497 0.3429
H78_3 H 0.8693 0.6850 0.3516
C59_2 C 0.3836(11) 0.6229(5) 0.4331(3)
H79_2 H 0.3243 0.5959 0.4316
H80_2 H 0.4444 0.6118 0.4148
C60_2 C 0.3403(10) 0.6739(4) 0.4199(3)
H81_2 H 0.3179 0.6716 0.3910
H82_2 H 0.2737 0.6828 0.4361
C61_2 C 0.4264(12) 0.6263(5) 0.4759(3)
H83_2 H 0.3639 0.6331 0.4947
H84_2 H 0.4611 0.5923 0.4837
Ni1_2 Ni 0.41808(9) 0.22399(3) 0.88850(2)
C6_3 C 0.2317(5) 0.3373(2) 0.97585(16)
H4_5 H 0.3907 0.3246 1.0000
C11_3 C 0.1335(6) 0.3645(2) 0.98359(16)
H7_3 H 0.0724 0.3600 0.9657
C15_3 C 0.2439(6) 0.3010(2) 0.93914(18)
N1_3 N 0.2760(6) 0.2286(2) 0.85333(15)
H13_3 H 0.2311 0.2589 0.8639
N2_3 N 0.5010(6) 0.2884(2) 0.8559(2)
N3_3 N 0.3353(8) 0.1603(3) 0.9206(2)
H14_3 H 0.3649 0.1271 0.9081
N4_3 N 0.5694(8) 0.2191(3) 0.9252(2)
N5_3 N 0.3705(8) 0.2840(3) 0.7994(2)
N6_3 N 0.4797(11) 0.1756(5) 0.9799(3)
C18_3 C 0.4850(8) 0.2781(3) 0.8116(3)
H15_3 H 0.5314 0.3031 0.7958
H16_3 H 0.5101 0.2418 0.8052
C19_3 C 0.3714(12) 0.1578(6) 0.9661(3)
H17_3 H 0.3157 0.1781 0.9818
H18_3 H 0.3640 0.1204 0.9747
C20_3 C 0.6216(9) 0.2812(4) 0.8694(3)
H19_3 H 0.6645 0.3137 0.8636
H20_3 H 0.6559 0.2515 0.8544
C21_3 C 0.4640(9) 0.3459(3) 0.8665(3)
H21_3 H 0.5170 0.3716 0.8548
H22_3 H 0.4633 0.3506 0.8964
C22_3 C 0.2985(8) 0.2397(4) 0.8067(2)
H23_3 H 0.3318 0.2077 0.7944
H24_3 H 0.2267 0.2463 0.7930
C23_3 C 0.3446(9) 0.3562(4) 0.8489(3)
H25_3 H 0.2905 0.3377 0.8665
H26_3 H 0.3291 0.3946 0.8510
C24_3 C 0.6230(11) 0.2693(4) 0.9167(4)
H27_3 H 0.7005 0.2682 0.9265
H28_3 H 0.5839 0.2980 0.9314
C25_3 C 0.5448(12) 0.2215(5) 0.9690(3)
H29_3 H 0.6147 0.2219 0.9848
H30_3 H 0.5030 0.2542 0.9754
C26_3 C 0.3226(11) 0.3390(4) 0.8044(3)
H31_3 H 0.2419 0.3387 0.7988
H32_3 H 0.3586 0.3639 0.7853
C27_3 C 0.2143(10) 0.1635(4) 0.9064(3)
H33_3 H 0.1743 0.1903 0.9227
H34_3 H 0.1778 0.1289 0.9107
C28_3 C 0.2086(9) 0.1789(4) 0.8597(3)
H35_3 H 0.2389 0.1497 0.8429
H36_3 H 0.1307 0.1850 0.8516
O5_3 O 0.3435(4) 0.28072(16) 0.93249(12)
O6_3 O 0.1594(5) 0.2936(2) 0.91693(15)
C29_3 C 0.6164(11) 0.1229(5) 0.9331(3)
H37_3 H 0.6757 0.0959 0.9316
H38_3 H 0.5556 0.1118 0.9148
C30_3 C 0.6597(10) 0.1739(4) 0.9199(3)
H39_3 H 0.6821 0.1716 0.8910
H40_3 H 0.7263 0.1828 0.9361
C31_3 C 0.5736(12) 0.1263(5) 0.9759(3)
H41_3 H 0.6361 0.1331 0.9947
H42_3 H 0.5389 0.0923 0.9837
C36_4 C 0.2683(5) 0.6627(2) 0.97585(16)
H46_6 H 0.1093 0.6754 1.0000
C41_4 C 0.3665(6) 0.6355(2) 0.98359(16)
H49_4 H 0.4276 0.6400 0.9657
C45_4 C 0.2561(6) 0.6990(2) 0.93914(18)
O11_4 O 0.1565(4) 0.71928(16) 0.93249(12)
O12_4 O 0.3406(5) 0.7064(2) 0.91693(15)
Ni2_2 Ni 0.08192(9) 0.77601(3) 0.88850(2)
N7_4 N 0.2240(6) 0.7714(2) 0.85333(15)
H55_4 H 0.2689 0.7411 0.8639
N9_4 N 0.1647(8) 0.8397(3) 0.9206(2)
H56_4 H 0.1351 0.8729 0.9081
N11_4 N 0.1295(8) 0.7160(3) 0.7994(2)
N12_4 N 0.0203(11) 0.8244(5) 0.9799(3)
C48_4 C 0.0150(8) 0.7219(3) 0.8116(3)
C49_4 C 0.1286(12) 0.8422(6) 0.9661(3)
H59_4 H 0.1843 0.8219 0.9818
H60_4 H 0.1360 0.8796 0.9747
C51_4 C 0.0360(9) 0.6541(3) 0.8665(3)
H64_4 H 0.0367 0.6494 0.8964
C52_4 C 0.2015(8) 0.7603(4) 0.8067(2)
H65_4 H 0.1682 0.7923 0.7944
H66_4 H 0.2733 0.7537 0.7930
C53_4 C 0.1554(9) 0.6438(4) 0.8489(3)
H67_4 H 0.2095 0.6623 0.8665
H68_4 H 0.1709 0.6054 0.8510
C56_4 C 0.1774(11) 0.6610(4) 0.8044(3)
H73_4 H 0.2581 0.6613 0.7988
H74_4 H 0.1414 0.6361 0.7853
C57_4 C 0.2857(10) 0.8365(4) 0.9064(3)
H75_4 H 0.3257 0.8097 0.9227
H76_4 H 0.3222 0.8711 0.9107
C58_4 C 0.2914(9) 0.8211(4) 0.8597(3)
H77_4 H 0.2611 0.8503 0.8429
H78_4 H 0.3693 0.8150 0.8516
O13_2 O 0.0040(5) 0.83042(17) 0.84653(14)
O14_2 O 0.4960(5) 0.16958(17) 0.84653(14)
O7_2 O 0.9960(5) 0.33042(17) 0.34653(14)
C32_3 C 0.9761(7) 0.3773(3) 0.3342(2)
O8_3 O 0.9079(8) 0.4109(2) 0.3522(2)
C47_3 C 0.9903(7) 0.4406(3) 0.2722(2)
H54_3 H 0.9270 0.4591 0.2817
Ni3_2 Ni 0.91808(9) 0.27601(3) 0.38850(2)
C1_4 C 0.0239(7) 0.8773(3) 0.8342(2)
O2_4 O 0.0921(8) 0.9109(2) 0.8522(2)
C17_4 C 0.0097(7) 0.9406(3) 0.7722(2)
H12_4 H 0.0730 0.9591 0.7817
C2_6 C 0.7500 0.0000 0.6326(2)
C3_4 C 0.7154(5) 0.09495(19) 0.54504(15)
C5_4 C 0.7840(4) 0.04772(19) 0.60371(14)
H1_4 H 0.8492 0.0377 0.5871
H2_4 H 0.8041 0.0790 0.6203
C6_4 C 0.7317(5) 0.1627(2) 0.47585(16)
C8_4 C 0.8231(5) 0.1571(2) 0.50461(15)
H4_6 H 0.8907 0.1754 0.5000
C9_4 C 0.6227(5) 0.10176(19) 0.51689(14)
H5_4 H 0.5552 0.0833 0.5213
C11_4 C 0.6335(6) 0.1355(2) 0.48359(16)
H7_4 H 0.5724 0.1400 0.4657
H8_4 H 0.8666 0.0144 0.6782
C15_4 C 0.7439(6) 0.1990(2) 0.43914(18)
C16_4 C 0.8118(5) 0.12480(19) 0.53914(15)
H11_4 H 0.8699 0.1232 0.5586
O4_4 O 0.6915(4) 0.06038(14) 0.57753(11)
N1_4 N 0.7760(6) 0.2714(2) 0.35333(15)
H13_4 H 0.7311 0.2411 0.3639
N3_4 N 0.8353(8) 0.3397(3) 0.4206(2)
H14_4 H 0.8649 0.3729 0.4081
N5_4 N 0.8705(8) 0.2160(3) 0.2994(2)
N6_4 N 0.9797(11) 0.3244(5) 0.4799(3)
C18_4 C 0.9850(8) 0.2219(3) 0.3116(3)
C19_4 C 0.8714(12) 0.3422(6) 0.4661(3)
H17_4 H 0.8157 0.3219 0.4818
H18_4 H 0.8640 0.3796 0.4747
C21_4 C 0.9640(9) 0.1541(3) 0.3665(3)
H22_4 H 0.9633 0.1494 0.3964
C22_4 C 0.7985(8) 0.2603(4) 0.3067(2)
H23_4 H 0.8318 0.2923 0.2944
H24_4 H 0.7267 0.2537 0.2930
C23_4 C 0.8446(9) 0.1438(4) 0.3489(3)
H25_4 H 0.7905 0.1623 0.3665
H26_4 H 0.8291 0.1054 0.3510
C26_4 C 0.8226(11) 0.1610(4) 0.3044(3)
H31_4 H 0.7419 0.1613 0.2988
H32_4 H 0.8586 0.1361 0.2853
C27_4 C 0.7143(10) 0.3365(4) 0.4064(3)
H33_4 H 0.6743 0.3097 0.4227
H34_4 H 0.6778 0.3711 0.4107
C28_4 C 0.7086(9) 0.3211(4) 0.3597(3)
H35_4 H 0.7389 0.3503 0.3429
H36_4 H 0.6307 0.3150 0.3516
O5_4 O 0.8435(4) 0.21928(16) 0.43249(12)
O6_4 O 0.6594(5) 0.2064(2) 0.41693(15)
C32_4 C 0.4761(7) 0.1227(3) 0.8342(2)
O8_4 O 0.4079(8) 0.0891(2) 0.8522(2)
C34_4 C 0.6332(6) 0.0721(2) 0.72047(16)
C37_4 C 0.6241(6) 0.1337(2) 0.77766(17)
H45_4 H 0.6493 0.1650 0.7907
C40_4 C 0.6757(5) 0.1169(2) 0.74165(16)
H48_4 H 0.7386 0.1352 0.7315
C42_4 C 0.6524(5) 0.0153(2) 0.65987(15)
H51_4 H 0.5865 0.0237 0.6431
C43_4 C 0.5330(7) 0.1042(2) 0.79507(19)
C44_4 C 0.5422(7) 0.0437(3) 0.73635(19)
H52_4 H 0.5159 0.0134 0.7224
C47_4 C 0.4903(7) 0.0594(3) 0.7722(2)
H54_4 H 0.4270 0.0409 0.7817
O9_4 O 0.6852(4) 0.06113(14) 0.68327(11)
N8_3 N 0.9990(6) 0.7116(2) 0.8559(2)
N10_3 N 0.9306(8) 0.7809(3) 0.9252(2)
H57_3 H 0.9686 0.6969 0.7958
H58_3 H 0.9899 0.7582 0.8052
C50_3 C 0.8784(9) 0.7188(4) 0.8694(3)
H61_3 H 0.8355 0.6863 0.8636
H62_3 H 0.8441 0.7485 0.8544
H63_3 H 0.9830 0.6284 0.8548
C54_3 C 0.8770(11) 0.7307(4) 0.9167(4)
H69_3 H 0.7995 0.7318 0.9265
H70_3 H 0.9161 0.7020 0.9314
C55_3 C 0.9552(12) 0.7785(5) 0.9690(3)
H71_3 H 0.8853 0.7781 0.9848
H72_3 H 0.9970 0.7458 0.9754
C59_3 C 0.8836(11) 0.8771(5) 0.9331(3)
H79_3 H 0.8243 0.9041 0.9316
H80_3 H 0.9444 0.8882 0.9148
C60_3 C 0.8403(10) 0.8261(4) 0.9199(3)
H81_3 H 0.8179 0.8284 0.8910
H82_3 H 0.7737 0.8172 0.9361
C61_3 C 0.9264(12) 0.8737(5) 0.9759(3)
H83_3 H 0.8639 0.8669 0.9947
H84_3 H 0.9611 0.9077 0.9837
N2_4 N 0.0010(6) 0.2116(2) 0.3559(2)
N4_4 N 0.0694(8) 0.2809(3) 0.4252(2)
H15_4 H 0.0314 0.1969 0.2958
H16_4 H 0.0101 0.2582 0.3052
C20_4 C 0.1216(9) 0.2188(4) 0.3694(3)
H19_4 H 0.1645 0.1863 0.3636
H20_4 H 0.1559 0.2485 0.3544
H21_4 H 0.0170 0.1284 0.3548
C24_4 C 0.1230(11) 0.2307(4) 0.4167(4)
H27_4 H 0.2005 0.2318 0.4265
H28_4 H 0.0839 0.2020 0.4314
C25_4 C 0.0448(12) 0.2785(5) 0.4690(3)
H29_4 H 0.1147 0.2781 0.4848
H30_4 H 0.0030 0.2458 0.4754
C29_4 C 0.1164(11) 0.3771(5) 0.4331(3)
H37_4 H 0.1757 0.4041 0.4316
H38_4 H 0.0556 0.3882 0.4148
C30_4 C 0.1597(10) 0.3261(4) 0.4199(3)
H39_4 H 0.1821 0.3284 0.3910
H40_4 H 0.2263 0.3172 0.4361
C31_4 C 0.0736(12) 0.3737(5) 0.4759(3)
H41_4 H 0.1361 0.3669 0.4947
H42_4 H 0.0389 0.4077 0.4837
N8_4 N 0.0010(6) 0.2884(2) 0.1441(2)
N10_4 N 0.0694(8) 0.2191(3) 0.0748(2)
H57_4 H 0.0314 0.3031 0.2042
H58_4 H 0.0101 0.2418 0.1948
C50_4 C 0.1216(9) 0.2812(4) 0.1306(3)
H61_4 H 0.1645 0.3137 0.1364
H62_4 H 0.1559 0.2515 0.1456
H63_4 H 0.0170 0.3716 0.1452
C54_4 C 0.1230(11) 0.2693(4) 0.0833(4)
H69_4 H 0.2005 0.2682 0.0735
H70_4 H 0.0839 0.2980 0.0686
C55_4 C 0.0448(12) 0.2215(5) 0.0310(3)
H71_4 H 0.1147 0.2219 0.0152
H72_4 H 0.0030 0.2542 0.0246
C59_4 C 0.1164(11) 0.1229(5) 0.0669(3)
H79_4 H 0.1757 0.0959 0.0684
H80_4 H 0.0556 0.1118 0.0852
C60_4 C 0.1597(10) 0.1739(4) 0.0801(3)
H81_4 H 0.1821 0.1716 0.1090
H82_4 H 0.2263 0.1828 0.0639
C61_4 C 0.0736(12) 0.1263(5) 0.0241(3)
H83_4 H 0.1361 0.1331 0.0053
H84_4 H 0.0389 0.0923 0.0163
loop_
_geom_bond_atom_site_label_1
_geom_bond_atom_site_label_2
_geom_bond_site_symmetry_1
_geom_bond_site_symmetry_2
C4 C10 1_555 1_555
C7 H3 1_555 1_555
C10 C7 1_555 1_555
H6 C10 1_555 1_555
C12 C2 1_555 1_555
H9 C12 1_555 1_555
C14 C4 1_555 1_555
H10 C14 1_555 1_555
O3 C4 1_555 1_555
C33 C39 1_555 1_555
C35 C2 1_555 1_555
H43 C35 1_555 1_555
H44 C35 1_555 1_555
C36 C38 1_555 1_555
C38 H46 1_555 1_555
C39 H47 1_555 1_555
C41 C36 1_555 1_555
H49 C41 1_555 1_555
C45 C36 1_555 1_555
C46 C33 1_555 1_555
H53 C46 1_555 1_555
O10 C33 1_555 1_555
O11 C45 1_555 1_555
O12 C45 1_555 1_555
Ni2 O11 1_555 1_555
N7 Ni2 1_555 1_555
H55 N7 1_555 1_555
N8 Ni2 1_555 1_555
N9 Ni2 1_555 1_555
H56 N9 1_555 1_555
N10 Ni2 1_555 1_555
N11 C48 1_555 1_555
N12 C49 1_555 1_555
C48 N8 1_555 1_555
H57 C48 1_555 1_555
H58 C48 1_555 1_555
C49 N9 1_555 1_555
H59 C49 1_555 1_555
H60 C49 1_555 1_555
C50 N8 1_555 1_555
H61 C50 1_555 1_555
H62 C50 1_555 1_555
C51 N8 1_555 1_555
H63 C51 1_555 1_555
H64 C51 1_555 1_555
C52 N7 1_555 1_555
H65 C52 1_555 1_555
H66 C52 1_555 1_555
C53 C51 1_555 1_555
H67 C53 1_555 1_555
H68 C53 1_555 1_555
C54 N10 1_555 1_555
H69 C54 1_555 1_555
H70 C54 1_555 1_555
C55 N10 1_555 1_555
H71 C55 1_555 1_555
H72 C55 1_555 1_555
C56 N11 1_555 1_555
H73 C56 1_555 1_555
H74 C56 1_555 1_555
C57 N9 1_555 1_555
H75 C57 1_555 1_555
H76 C57 1_555 1_555
C58 N7 1_555 1_555
H77 C58 1_555 1_555
H78 C58 1_555 1_555
C59 H79 1_555 1_555
H80 C59 1_555 1_555
C60 N10 1_555 1_555
H81 C60 1_555 1_555
H82 C60 1_555 1_555
C61 N12 1_555 1_555
H83 C61 1_555 1_555
H84 C61 1_555 1_555
O13 Ni2 1_555 1_555
C7 C13 1_555 1_555
C12 O3 1_555 1_555
C35 O10 1_555 1_555
C38 C46 1_555 1_555
C39 C41 1_555 1_555
N11 C52 1_555 1_555
N12 C55 1_555 1_555
C50 C54 1_555 1_555
C53 C56 1_555 1_555
C57 C58 1_555 1_555
C59 C60 1_555 1_555
C59 C61 1_555 1_555
O13 C1 1_555 1_555
C1 O2 1_555 1_555
C2_2 C5 1_555 1_555
C3 C9 1_555 1_555
C4_2 C10_2 1_555 1_555
C5 H1 1_555 1_555
H2 C5 1_555 1_555
C7_2 H3_2 1_555 1_555
C8 H4 1_555 1_555
C9 H5 1_555 1_555
C10_2 C7_2 1_555 1_555
H6_2 C10_2 1_555 1_555
C12_2 C2_2 1_555 1_555
H8 C12_2 1_555 1_555
H9_2 C12_2 1_555 1_555
C13_2 C1 1_555 1_555
C14_2 C4_2 1_555 1_555
H10_2 C14_2 1_555 1_555
C16 C3 1_555 1_555
H11 C16 1_555 1_555
C17 C13_2 1_555 1_555
H12 C17 1_555 1_555
O3_2 C4_2 1_555 1_555
O4 C3 1_555 1_555
C33_2 C39_2 1_555 1_555
C34 C40 1_555 1_555
C35_2 C2_2 1_555 1_555
H43_2 C35_2 1_555 1_555
H44_2 C35_2 1_555 1_555
C37 H45 1_555 1_555
C38_2 H46_2 1_555 1_555
C39_2 H47_2 1_555 1_555
C40 C37 1_555 1_555
H48 C40 1_555 1_555
C42 C2_2 1_555 1_555
H50_2 C42 1_555 1_555
H51 C42 1_555 1_555
C44 C34 1_555 1_555
H52 C44 1_555 1_555
C46_2 C33_2 1_555 1_555
H53_2 C46_2 1_555 1_555
O9 C34 1_555 1_555
O10_2 C33_2 1_555 1_555
C5 O4 1_555 1_555
C7_2 C13_2 1_555 1_555
C8 C16 1_555 1_555
C12_2 O3_2 1_555 1_555
C14_2 C17 1_555 1_555
C35_2 O10_2 1_555 1_555
C37 C43 1_555 1_555
C38_2 C46_2 1_555 1_555
C42 O9 1_555 1_555
Ni1 N1 1_555 1_555
C2_3 C5_2 1_555 1_555
C3_2 C9_2 1_555 1_555
C5_2 H1_2 1_555 1_555
H2_2 C5_2 1_555 1_555
C6 C8_2 1_555 1_555
C8_2 H4_2 1_555 1_555
C9_2 H5_2 1_555 1_555
C11 C6 1_555 1_555
H7 C11 1_555 1_555
C15 C6 1_555 1_555
C16_2 C3_2 1_555 1_555
H11_2 C16_2 1_555 1_555
O4_2 C3_2 1_555 1_555
N1 H13 1_555 1_555
N3 Ni1 1_555 1_555
H14 N3 1_555 1_555
N5 C18 1_555 1_555
N6 C19 1_555 1_555
C19 N3 1_555 1_555
H17 C19 1_555 1_555
H18 C19 1_555 1_555
H22 C21 1_555 1_555
C22 N1 1_555 1_555
H23 C22 1_555 1_555
H24 C22 1_555 1_555
C23 C21 1_555 1_555
H25 C23 1_555 1_555
H26 C23 1_555 1_555
C26 N5 1_555 1_555
H31 C26 1_555 1_555
H32 C26 1_555 1_555
C27 N3 1_555 1_555
H33 C27 1_555 1_555
H34 C27 1_555 1_555
C28 N1 1_555 1_555
H35 C28 1_555 1_555
H36 C28 1_555 1_555
O5 Ni1 1_555 1_555
O6 C15 1_555 1_555
O7 C32 1_555 1_555
C32 O8 1_555 1_555
C34_2 C40_2 1_555 1_555
C37_2 H45_2 1_555 1_555
C40_2 C37_2 1_555 1_555
H48_2 C40_2 1_555 1_555
C42_2 C2_3 1_555 1_555
H51_2 C42_2 1_555 1_555
C43_2 C32 1_555 1_555
C44_2 C34_2 1_555 1_555
H52_2 C44_2 1_555 1_555
C47 C43_2 1_555 1_555
H54 C47 1_555 1_555
O9_2 C34_2 1_555 1_555
O14 Ni1 1_555 1_555
Ni3 O7 1_555 1_555
C5_2 O4_2 1_555 1_555
C8_2 C16_2 1_555 1_555
C9_2 C11 1_555 1_555
C15 O5 1_555 1_555
N5 C22 1_555 1_555
C23 C26 1_555 1_555
C27 C28 1_555 1_555
C37_2 C43_2 1_555 1_555
C42_2 O9_2 1_555 1_555
C44_2 C47 1_555 1_555
O1 C1_2 1_555 1_555
C1_2 O2_2 1_555 1_555
H12_2 C17_2 1_555 1_555
Ni4 O1 1_555 1_555
O14 C32_2 1_555 1_555
C32_2 O8_2 1_555 1_555
H54_2 C47_2 1_555 1_555
Ni3 N1_2 1_555 1_555
C11_2 C6_2 1_555 1_555
H7_2 C11_2 1_555 1_555
C15_2 C6_2 1_555 1_555
N1_2 H13_2 1_555 1_555
N2 Ni3 1_555 1_555
N3_2 Ni3 1_555 1_555
H14_2 N3_2 1_555 1_555
N4 Ni3 1_555 1_555
N5_2 C18_2 1_555 1_555
N6_2 C19_2 1_555 1_555
C18_2 N2 1_555 1_555
H15 C18_2 1_555 1_555
H16 C18_2 1_555 1_555
C19_2 N3_2 1_555 1_555
H17_2 C19_2 1_555 1_555
H18_2 C19_2 1_555 1_555
C20 N2 1_555 1_555
H19 C20 1_555 1_555
H20 C20 1_555 1_555
C21_2 N2 1_555 1_555
H21 C21_2 1_555 1_555
H22_2 C21_2 1_555 1_555
C22_2 N1_2 1_555 1_555
H23_2 C22_2 1_555 1_555
H24_2 C22_2 1_555 1_555
C23_2 C21_2 1_555 1_555
H25_2 C23_2 1_555 1_555
H26_2 C23_2 1_555 1_555
C24 N4 1_555 1_555
H27 C24 1_555 1_555
H28 C24 1_555 1_555
C25 N4 1_555 1_555
H29 C25 1_555 1_555
H30 C25 1_555 1_555
C26_2 N5_2 1_555 1_555
H31_2 C26_2 1_555 1_555
H32_2 C26_2 1_555 1_555
C27_2 N3_2 1_555 1_555
H33_2 C27_2 1_555 1_555
H34_2 C27_2 1_555 1_555
C28_2 N1_2 1_555 1_555
H35_2 C28_2 1_555 1_555
H36_2 C28_2 1_555 1_555
O5_2 Ni3 1_555 1_555
O6_2 C15_2 1_555 1_555
C29 H37 1_555 1_555
H38 C29 1_555 1_555
C30 N4 1_555 1_555
H39 C30 1_555 1_555
H40 C30 1_555 1_555
C31 N6_2 1_555 1_555
H41 C31 1_555 1_555
H42 C31 1_555 1_555
C41_2 C36_2 1_555 1_555
H49_2 C41_2 1_555 1_555
C45_2 C36_2 1_555 1_555
O11_2 C45_2 1_555 1_555
O12_2 C45_2 1_555 1_555
Ni4 O11_2 1_555 1_555
N7_2 Ni4 1_555 1_555
H55_2 N7_2 1_555 1_555
N9_2 Ni4 1_555 1_555
H56_2 N9_2 1_555 1_555
N11_2 C48_2 1_555 1_555
N12_2 C49_2 1_555 1_555
C49_2 N9_2 1_555 1_555
H59_2 C49_2 1_555 1_555
H60_2 C49_2 1_555 1_555
H64_2 C51_2 1_555 1_555
C52_2 N7_2 1_555 1_555
H65_2 C52_2 1_555 1_555
H66_2 C52_2 1_555 1_555
C53_2 C51_2 1_555 1_555
H67_2 C53_2 1_555 1_555
H68_2 C53_2 1_555 1_555
C56_2 N11_2 1_555 1_555
H73_2 C56_2 1_555 1_555
H74_2 C56_2 1_555 1_555
C57_2 N9_2 1_555 1_555
H75_2 C57_2 1_555 1_555
H76_2 C57_2 1_555 1_555
C58_2 N7_2 1_555 1_555
H77_2 C58_2 1_555 1_555
H78_2 C58_2 1_555 1_555
C15_2 O5_2 1_555 1_555
N5_2 C22_2 1_555 1_555
N6_2 C25 1_555 1_555
C20 C24 1_555 1_555
C23_2 C26_2 1_555 1_555
C27_2 C28_2 1_555 1_555
C29 C30 1_555 1_555
C29 C31 1_555 1_555
N11_2 C52_2 1_555 1_555
C53_2 C56_2 1_555 1_555
C57_2 C58_2 1_555 1_555
C20_2 N2_2 1_555 1_555
H19_2 C20_2 1_555 1_555
H20_2 C20_2 1_555 1_555
C24_2 N4_2 1_555 1_555
H27_2 C24_2 1_555 1_555
H28_2 C24_2 1_555 1_555
C25_2 N4_2 1_555 1_555
H29_2 C25_2 1_555 1_555
H30_2 C25_2 1_555 1_555
C29_2 H37_2 1_555 1_555
H38_2 C29_2 1_555 1_555
C30_2 N4_2 1_555 1_555
H39_2 C30_2 1_555 1_555
H40_2 C30_2 1_555 1_555
H41_2 C31_2 1_555 1_555
H42_2 C31_2 1_555 1_555
C20_2 C24_2 1_555 1_555
C29_2 C30_2 1_555 1_555
C29_2 C31_2 1_555 1_555
O1_2 C1_3 1_555 1_555
C1_3 O2_3 1_555 1_555
C2_4 C5_3 1_555 1_555
C3_3 C9_3 1_555 1_555
C4_3 C10_3 1_555 1_555
C5_3 H1_3 1_555 1_555
H2_3 C5_3 1_555 1_555
C7_3 H3_3 1_555 1_555
C8_3 H4_4 1_555 1_555
C9_3 H5_3 1_555 1_555
C10_3 C7_3 1_555 1_555
H6_3 C10_3 1_555 1_555
C12_3 C2_4 1_555 1_555
H8_3 C12_3 1_555 1_555
H9_3 C12_3 1_555 1_555
C13_3 C1_3 1_555 1_555
C14_3 C4_3 1_555 1_555
H10_3 C14_3 1_555 1_555
C16_3 C3_3 1_555 1_555
H11_3 C16_3 1_555 1_555
C17_3 C13_3 1_555 1_555
H12_3 C17_3 1_555 1_555
O3_3 C4_3 1_555 1_555
O4_3 C3_3 1_555 1_555
C33_3 C39_3 1_555 1_555
C34_3 C40_3 1_555 1_555
C35_3 C2_4 1_555 1_555
H43_3 C35_3 1_555 1_555
H44_3 C35_3 1_555 1_555
C37_3 H45_3 1_555 1_555
C38_3 H46_4 1_555 1_555
C39_3 H47_3 1_555 1_555
C40_3 C37_3 1_555 1_555
H48_3 C40_3 1_555 1_555
C42_3 C2_4 1_555 1_555
H50_3 C42_3 1_555 1_555
H51_3 C42_3 1_555 1_555
C44_3 C34_3 1_555 1_555
H52_3 C44_3 1_555 1_555
C46_3 C33_3 1_555 1_555
H53_3 C46_3 1_555 1_555
O9_3 C34_3 1_555 1_555
O10_3 C33_3 1_555 1_555
Ni4_2 O1_2 1_555 1_555
C5_3 O4_3 1_555 1_555
C7_3 C13_3 1_555 1_555
C8_3 C16_3 1_555 1_555
C12_3 O3_3 1_555 1_555
C14_3 C17_3 1_555 1_555
C35_3 O10_3 1_555 1_555
C37_3 C43_3 1_555 1_555
C38_3 C46_3 1_555 1_555
C42_3 O9_3 1_555 1_555
C4_4 C10_4 1_555 1_555
C7_4 H3_4 1_555 1_555
C10_4 C7_4 1_555 1_555
H6_4 C10_4 1_555 1_555
C12_4 C2_5 1_555 1_555
H9_4 C12_4 1_555 1_555
C14_4 C4_4 1_555 1_555
H10_4 C14_4 1_555 1_555
O3_4 C4_4 1_555 1_555
C33_4 C39_4 1_555 1_555
C35_4 C2_5 1_555 1_555
H43_4 C35_4 1_555 1_555
H44_4 C35_4 1_555 1_555
C36_3 C38_4 1_555 1_555
C38_4 H46_5 1_555 1_555
C39_4 H47_4 1_555 1_555
C41_3 C36_3 1_555 1_555
H49_3 C41_3 1_555 1_555
C45_3 C36_3 1_555 1_555
C46_4 C33_4 1_555 1_555
H53_4 C46_4 1_555 1_555
O10_4 C33_4 1_555 1_555
O11_3 C45_3 1_555 1_555
O12_3 C45_3 1_555 1_555
Ni4_2 O11_3 1_555 1_555
N7_3 Ni4_2 1_555 1_555
H55_3 N7_3 1_555 1_555
N8_2 Ni4_2 1_555 1_555
N9_3 Ni4_2 1_555 1_555
H56_3 N9_3 1_555 1_555
N10_2 Ni4_2 1_555 1_555
N11_3 C48_3 1_555 1_555
N12_3 C49_3 1_555 1_555
C48_3 N8_2 1_555 1_555
H57_2 C48_3 1_555 1_555
H58_2 C48_3 1_555 1_555
C49_3 N9_3 1_555 1_555
H59_3 C49_3 1_555 1_555
H60_3 C49_3 1_555 1_555
C50_2 N8_2 1_555 1_555
H61_2 C50_2 1_555 1_555
H62_2 C50_2 1_555 1_555
C51_3 N8_2 1_555 1_555
H63_2 C51_3 1_555 1_555
H64_3 C51_3 1_555 1_555
C52_3 N7_3 1_555 1_555
H65_3 C52_3 1_555 1_555
H66_3 C52_3 1_555 1_555
C53_3 C51_3 1_555 1_555
H67_3 C53_3 1_555 1_555
H68_3 C53_3 1_555 1_555
C54_2 N10_2 1_555 1_555
H69_2 C54_2 1_555 1_555
H70_2 C54_2 1_555 1_555
C55_2 N10_2 1_555 1_555
H71_2 C55_2 1_555 1_555
H72_2 C55_2 1_555 1_555
C56_3 N11_3 1_555 1_555
H73_3 C56_3 1_555 1_555
H74_3 C56_3 1_555 1_555
C57_3 N9_3 1_555 1_555
H75_3 C57_3 1_555 1_555
H76_3 C57_3 1_555 1_555
C58_3 N7_3 1_555 1_555
H77_3 C58_3 1_555 1_555
H78_3 C58_3 1_555 1_555
C59_2 H79_2 1_555 1_555
H80_2 C59_2 1_555 1_555
C60_2 N10_2 1_555 1_555
H81_2 C60_2 1_555 1_555
H82_2 C60_2 1_555 1_555
C61_2 N12_3 1_555 1_555
H83_2 C61_2 1_555 1_555
H84_2 C61_2 1_555 1_555
C7_4 C13_4 1_555 1_555
C12_4 O3_4 1_555 1_555
C35_4 O10_4 1_555 1_555
C38_4 C46_4 1_555 1_555
C39_4 C41_3 1_555 1_555
N11_3 C52_3 1_555 1_555
N12_3 C55_2 1_555 1_555
C50_2 C54_2 1_555 1_555
C53_3 C56_3 1_555 1_555
C57_3 C58_3 1_555 1_555
C59_2 C60_2 1_555 1_555
C59_2 C61_2 1_555 1_555
Ni1_2 N1_3 1_555 1_555
C11_3 C6_3 1_555 1_555
H7_3 C11_3 1_555 1_555
C15_3 C6_3 1_555 1_555
N1_3 H13_3 1_555 1_555
N2_3 Ni1_2 1_555 1_555
N3_3 Ni1_2 1_555 1_555
H14_3 N3_3 1_555 1_555
N4_3 Ni1_2 1_555 1_555
N5_3 C18_3 1_555 1_555
N6_3 C19_3 1_555 1_555
C18_3 N2_3 1_555 1_555
H15_3 C18_3 1_555 1_555
H16_3 C18_3 1_555 1_555
C19_3 N3_3 1_555 1_555
H17_3 C19_3 1_555 1_555
H18_3 C19_3 1_555 1_555
C20_3 N2_3 1_555 1_555
H19_3 C20_3 1_555 1_555
H20_3 C20_3 1_555 1_555
C21_3 N2_3 1_555 1_555
H21_3 C21_3 1_555 1_555
H22_3 C21_3 1_555 1_555
C22_3 N1_3 1_555 1_555
H23_3 C22_3 1_555 1_555
H24_3 C22_3 1_555 1_555
C23_3 C21_3 1_555 1_555
H25_3 C23_3 1_555 1_555
H26_3 C23_3 1_555 1_555
C24_3 N4_3 1_555 1_555
H27_3 C24_3 1_555 1_555
H28_3 C24_3 1_555 1_555
C25_3 N4_3 1_555 1_555
H29_3 C25_3 1_555 1_555
H30_3 C25_3 1_555 1_555
C26_3 N5_3 1_555 1_555
H31_3 C26_3 1_555 1_555
H32_3 C26_3 1_555 1_555
C27_3 N3_3 1_555 1_555
H33_3 C27_3 1_555 1_555
H34_3 C27_3 1_555 1_555
C28_3 N1_3 1_555 1_555
H35_3 C28_3 1_555 1_555
H36_3 C28_3 1_555 1_555
O5_3 Ni1_2 1_555 1_555
O6_3 C15_3 1_555 1_555
C29_3 H37_3 1_555 1_555
H38_3 C29_3 1_555 1_555
C30_3 N4_3 1_555 1_555
H39_3 C30_3 1_555 1_555
H40_3 C30_3 1_555 1_555
C31_3 N6_3 1_555 1_555
H41_3 C31_3 1_555 1_555
H42_3 C31_3 1_555 1_555
C41_4 C36_4 1_555 1_555
H49_4 C41_4 1_555 1_555
C45_4 C36_4 1_555 1_555
O11_4 C45_4 1_555 1_555
O12_4 C45_4 1_555 1_555
Ni2_2 O11_4 1_555 1_555
N7_4 Ni2_2 1_555 1_555
H55_4 N7_4 1_555 1_555
N9_4 Ni2_2 1_555 1_555
H56_4 N9_4 1_555 1_555
N11_4 C48_4 1_555 1_555
N12_4 C49_4 1_555 1_555
C49_4 N9_4 1_555 1_555
H59_4 C49_4 1_555 1_555
H60_4 C49_4 1_555 1_555
H64_4 C51_4 1_555 1_555
C52_4 N7_4 1_555 1_555
H65_4 C52_4 1_555 1_555
H66_4 C52_4 1_555 1_555
C53_4 C51_4 1_555 1_555
H67_4 C53_4 1_555 1_555
H68_4 C53_4 1_555 1_555
C56_4 N11_4 1_555 1_555
H73_4 C56_4 1_555 1_555
H74_4 C56_4 1_555 1_555
C57_4 N9_4 1_555 1_555
H75_4 C57_4 1_555 1_555
H76_4 C57_4 1_555 1_555
C58_4 N7_4 1_555 1_555
H77_4 C58_4 1_555 1_555
H78_4 C58_4 1_555 1_555
O13_2 Ni2_2 1_555 1_555
O14_2 Ni1_2 1_555 1_555
C15_3 O5_3 1_555 1_555
N5_3 C22_3 1_555 1_555
N6_3 C25_3 1_555 1_555
C20_3 C24_3 1_555 1_555
C23_3 C26_3 1_555 1_555
C27_3 C28_3 1_555 1_555
C29_3 C30_3 1_555 1_555
C29_3 C31_3 1_555 1_555
N11_4 C52_4 1_555 1_555
C53_4 C56_4 1_555 1_555
C57_4 C58_4 1_555 1_555
O7_2 C32_3 1_555 1_555
C32_3 O8_3 1_555 1_555
H54_3 C47_3 1_555 1_555
Ni3_2 O7_2 1_555 1_555
O13_2 C1_4 1_555 1_555
C1_4 O2_4 1_555 1_555
H12_4 C17_4 1_555 1_555
Ni3_2 N1_4 1_555 1_555
C2_6 C5_4 1_555 1_555
C3_4 C9_4 1_555 1_555
C5_4 H1_4 1_555 1_555
H2_4 C5_4 1_555 1_555
C6_4 C8_4 1_555 1_555
C8_4 H4_6 1_555 1_555
C9_4 H5_4 1_555 1_555
C11_4 C6_4 1_555 1_555
H7_4 C11_4 1_555 1_555
C15_4 C6_4 1_555 1_555
C16_4 C3_4 1_555 1_555
H11_4 C16_4 1_555 1_555
O4_4 C3_4 1_555 1_555
N1_4 H13_4 1_555 1_555
N3_4 Ni3_2 1_555 1_555
H14_4 N3_4 1_555 1_555
N5_4 C18_4 1_555 1_555
N6_4 C19_4 1_555 1_555
C19_4 N3_4 1_555 1_555
H17_4 C19_4 1_555 1_555
H18_4 C19_4 1_555 1_555
H22_4 C21_4 1_555 1_555
C22_4 N1_4 1_555 1_555
H23_4 C22_4 1_555 1_555
H24_4 C22_4 1_555 1_555
C23_4 C21_4 1_555 1_555
H25_4 C23_4 1_555 1_555
H26_4 C23_4 1_555 1_555
C26_4 N5_4 1_555 1_555
H31_4 C26_4 1_555 1_555
H32_4 C26_4 1_555 1_555
C27_4 N3_4 1_555 1_555
H33_4 C27_4 1_555 1_555
H34_4 C27_4 1_555 1_555
C28_4 N1_4 1_555 1_555
H35_4 C28_4 1_555 1_555
H36_4 C28_4 1_555 1_555
O5_4 Ni3_2 1_555 1_555
O6_4 C15_4 1_555 1_555
O14_2 C32_4 1_555 1_555
C32_4 O8_4 1_555 1_555
C34_4 C40_4 1_555 1_555
C37_4 H45_4 1_555 1_555
C40_4 C37_4 1_555 1_555
H48_4 C40_4 1_555 1_555
C42_4 C2_6 1_555 1_555
H51_4 C42_4 1_555 1_555
C43_4 C32_4 1_555 1_555
C44_4 C34_4 1_555 1_555
H52_4 C44_4 1_555 1_555
C47_4 C43_4 1_555 1_555
H54_4 C47_4 1_555 1_555
O9_4 C34_4 1_555 1_555
C5_4 O4_4 1_555 1_555
C8_4 C16_4 1_555 1_555
C9_4 C11_4 1_555 1_555
C15_4 O5_4 1_555 1_555
N5_4 C22_4 1_555 1_555
C23_4 C26_4 1_555 1_555
C27_4 C28_4 1_555 1_555
C37_4 C43_4 1_555 1_555
C42_4 O9_4 1_555 1_555
C44_4 C47_4 1_555 1_555
C50_3 N8_3 1_555 1_555
H61_3 C50_3 1_555 1_555
H62_3 C50_3 1_555 1_555
C54_3 N10_3 1_555 1_555
H69_3 C54_3 1_555 1_555
H70_3 C54_3 1_555 1_555
C55_3 N10_3 1_555 1_555
H71_3 C55_3 1_555 1_555
H72_3 C55_3 1_555 1_555
C59_3 H79_3 1_555 1_555
H80_3 C59_3 1_555 1_555
C60_3 N10_3 1_555 1_555
H81_3 C60_3 1_555 1_555
H82_3 C60_3 1_555 1_555
H83_3 C61_3 1_555 1_555
H84_3 C61_3 1_555 1_555
C50_3 C54_3 1_555 1_555
C59_3 C60_3 1_555 1_555
C59_3 C61_3 1_555 1_555
C20_4 N2_4 1_555 1_555
H19_4 C20_4 1_555 1_555
H20_4 C20_4 1_555 1_555
C24_4 N4_4 1_555 1_555
H27_4 C24_4 1_555 1_555
H28_4 C24_4 1_555 1_555
C25_4 N4_4 1_555 1_555
H29_4 C25_4 1_555 1_555
H30_4 C25_4 1_555 1_555
C29_4 H37_4 1_555 1_555
H38_4 C29_4 1_555 1_555
C30_4 N4_4 1_555 1_555
H39_4 C30_4 1_555 1_555
H40_4 C30_4 1_555 1_555
H41_4 C31_4 1_555 1_555
H42_4 C31_4 1_555 1_555
C20_4 C24_4 1_555 1_555
C29_4 C30_4 1_555 1_555
C29_4 C31_4 1_555 1_555
C50_4 N8_4 1_555 1_555
H61_4 C50_4 1_555 1_555
H62_4 C50_4 1_555 1_555
C54_4 N10_4 1_555 1_555
H69_4 C54_4 1_555 1_555
H70_4 C54_4 1_555 1_555
C55_4 N10_4 1_555 1_555
H71_4 C55_4 1_555 1_555
H72_4 C55_4 1_555 1_555
C59_4 H79_4 1_555 1_555
H80_4 C59_4 1_555 1_555
C60_4 N10_4 1_555 1_555
H81_4 C60_4 1_555 1_555
H82_4 C60_4 1_555 1_555
H83_4 C61_4 1_555 1_555
H84_4 C61_4 1_555 1_555
C50_4 C54_4 1_555 1_555
C59_4 C60_4 1_555 1_555
C59_4 C61_4 1_555 1_555

#END
