
###############################################################################
#
# This file contains modified crystal structure data generated from the
# MOF subset of the Cambridge Structural Database (CSD) v543 
# hosted by the Cambridge Crystallographic Data Centre (CCDC).
#
# This work is licensed under the Creative Commons
# Attribution-NonCommercial-ShareAlike 4.0 International License.
# To view a copy of this license, visit
# http://creativecommons.org/licenses/by-nc-sa/4.0/
# or send a letter to
# Creative Commons, PO Box 1866, Mountain View, CA 94042, USA.
#
# CIF created using the CSD Python API on 29 September 2022
# The structure has been converted into the P1 space group
# The structure has a 3D framework
# The original CSD entry RUWZUG is in the monoclinic crystal system
# The framework has been calculated to contain at least 10.0% void space
# The void calculation uses a probe of radius 1.32A, grid spacing 0.4
#
###############################################################################

data_RUWZUG
_chemical_formula_moiety         '(C246 H336 N48 Ni16 O48)n'
_symmetry_cell_setting           triclinic
_symmetry_space_group_name_H-M   'P 1'
_symmetry_Int_Tables_number      1
_space_group_name_Hall           'P 1'
loop_
_symmetry_equiv_pos_site_id
_symmetry_equiv_pos_as_xyz
1 x,y,z
_cell_length_a                   37.352(4)
_cell_length_b                   8.8340(10)
_cell_length_c                   29.562(3)
_cell_angle_alpha                90
_cell_angle_beta                 126.838(2)
_cell_angle_gamma                90
_cell_volume                     7806.86
loop_
_atom_site_label
_atom_site_type_symbol
_atom_site_fract_x
_atom_site_fract_y
_atom_site_fract_z
Ni2 Ni 0.2500 0.2500 0.5000
O1 O 0.19847(9) 0.0807(3) 0.45298(12)
O2 O 0.16439(10) 0.0533(4) 0.49413(14)
N1 N 0.18898(12) 0.3747(4) 0.36722(16)
N2 N 0.20098(12) 0.4235(4) 0.45692(16)
N3 N 0.24033(11) 0.2623(4) 0.56070(15)
H1 H 0.2206 0.1784 0.5543
C14 C 0.16975(14) 0.0214(5) 0.45707(19)
C25 C 0.16849(15) 0.3783(5) 0.39604(19)
H29 H 0.1565 0.2789 0.3939
H30 H 0.1438 0.4494 0.3770
C26 C 0.20470(16) 0.5260(5) 0.3667(2)
H31 H 0.1790 0.5907 0.3421
H32 H 0.2211 0.5192 0.3509
C27 C 0.23447(16) 0.5986(5) 0.4247(2)
H33 H 0.2380 0.7053 0.4205
H34 H 0.2638 0.5521 0.4459
C28 C 0.21517(16) 0.5814(5) 0.4573(2)
H35 H 0.2375 0.6128 0.4961
H36 H 0.1896 0.6481 0.4410
C29 C 0.17995(15) 0.4195(6) 0.4863(2)
H37 H 0.1594 0.3346 0.4725
H38 H 0.1630 0.5117 0.4782
C30 C 0.21538(15) 0.4043(5) 0.54964(19)
H39 H 0.2356 0.4900 0.5639
H40 H 0.2014 0.4022 0.5686
C31 C 0.28146(15) 0.2507(6) 0.62038(19)
H41 H 0.2983 0.3439 0.6299
H42 H 0.2723 0.2429 0.6449
N7 N 0.31102(12) 0.1253(4) 0.63278(16)
N8 N 0.29902(12) 0.0765(4) 0.54308(16)
N9 N 0.25967(11) 0.2377(4) 0.43930(15)
H55 H 0.2794 0.3216 0.4457
C48 C 0.33151(15) 0.1217(5) 0.60396(19)
H56 H 0.3435 0.2211 0.6061
H57 H 0.3562 0.0506 0.6230
C52 C 0.32005(15) 0.0805(6) 0.5137(2)
H64 H 0.3406 0.1654 0.5275
C53 C 0.28462(15) 0.0957(5) 0.45036(19)
H66 H 0.2644 0.0100 0.4361
H67 H 0.2986 0.0978 0.4314
C54 C 0.21854(15) 0.2493(6) 0.37962(19)
H68 H 0.2017 0.1561 0.3701
H69 H 0.2277 0.2571 0.3551
O13 O 0.30153(9) 0.4193(3) 0.54702(12)
Ni4 Ni 0.7500 0.2500 1.0000
N3_2 N 0.75967(11) 0.2623(4) 0.93930(15)
H1_2 H 0.7794 0.1784 0.9457
C30_2 C 0.78462(15) 0.4043(5) 0.95036(19)
H39_2 H 0.7644 0.4900 0.9361
H40_2 H 0.7986 0.4022 0.9314
C31_2 C 0.71854(15) 0.2507(6) 0.87962(19)
H41_2 H 0.7017 0.3439 0.8701
H42_2 H 0.7277 0.2429 0.8551
N7_2 N 0.68898(12) 0.1253(4) 0.86722(16)
N8_2 N 0.70098(12) 0.0765(4) 0.95692(16)
C48_2 C 0.66849(15) 0.1217(5) 0.89604(19)
H56_2 H 0.6565 0.2211 0.8939
H57_2 H 0.6438 0.0506 0.8770
C52_2 C 0.67995(15) 0.0805(6) 0.9863(2)
H64_2 H 0.6594 0.1654 0.9725
O13_2 O 0.69847(9) 0.4193(3) 0.95298(12)
O2_2 O 0.33561(10) 0.4467(4) 0.50587(14)
O6 O 0.44334(10) 0.9244(3) 0.70575(13)
H5 H 0.4883 0.9575 0.6913
C10 C 0.41671(13) 0.8183(5) 0.66454(19)
C11 C 0.40965(13) 0.8122(5) 0.61316(18)
H11 H 0.4230 0.8826 0.6042
C12 C 0.38229(13) 0.6997(5) 0.57502(19)
H12 H 0.3783 0.6935 0.5408
C13 C 0.36087(14) 0.5967(5) 0.58635(19)
C14_2 C 0.33025(14) 0.4786(5) 0.54293(19)
C15 C 0.36769(15) 0.6081(5) 0.6379(2)
H13 H 0.3531 0.5410 0.6462
C16 C 0.39543(15) 0.7161(5) 0.6769(2)
H14 H 0.4000 0.7209 0.7115
O8 O 0.66439(10) 0.4467(4) 0.99413(14)
O12 O 0.55666(10) 0.9244(3) 0.79425(13)
H45 H 0.5117 0.9575 0.8087
C40 C 0.58329(13) 0.8183(5) 0.83546(19)
C41 C 0.59035(13) 0.8122(5) 0.88684(18)
H51 H 0.5770 0.8826 0.8958
C42 C 0.61771(13) 0.6997(5) 0.92498(19)
H52 H 0.6217 0.6935 0.9592
C43 C 0.63913(14) 0.5967(5) 0.91365(19)
C44 C 0.66975(14) 0.4786(5) 0.95707(19)
C45 C 0.63231(15) 0.6081(5) 0.8621(2)
H53 H 0.6469 0.5410 0.8538
C46 C 0.60457(15) 0.7161(5) 0.8231(2)
H54 H 0.6000 0.7209 0.7885
O5 O 0.00165(9) 0.1768(4) 0.30251(13)
O6_2 O 0.05666(10) 0.5756(3) 0.29425(13)
C1 C 0.0000 0.3830(7) 0.2500
C3 C 0.02990(13) 0.4807(5) 0.30258(17)
H5_2 H 0.0117 0.5425 0.3087
H6 H 0.0490 0.4169 0.3355
C10_2 C 0.08329(13) 0.6817(5) 0.33546(19)
C11_2 C 0.09035(13) 0.6878(5) 0.38684(18)
H11_2 H 0.0770 0.6174 0.3958
C12_2 C 0.11771(13) 0.8003(5) 0.42498(19)
H12_2 H 0.1217 0.8065 0.4592
C13_2 C 0.13913(14) 0.9033(5) 0.41365(19)
C15_2 C 0.13231(15) 0.8919(5) 0.3621(2)
H13_2 H 0.1469 0.9590 0.3538
C16_2 C 0.10457(15) 0.7839(5) 0.3231(2)
H14_2 H 0.1000 0.7791 0.2885
C32 C 0.02875(13) 0.2815(5) 0.24100(18)
H43 H 0.0437 0.3416 0.2294
H44 H 0.0512 0.2282 0.2756
C34 C 0.01417(15) 0.0673(5) 0.18084(19)
C39 C 0.05814(15) 0.0517(5) 0.20084(19)
H50 H 0.0805 0.1125 0.2300
C49 C 0.29530(16) 0.9740(5) 0.6333(2)
H58 H 0.3210 0.9093 0.6579
H59 H 0.2789 0.9808 0.6491
C50 C 0.26553(16) 0.9014(5) 0.5753(2)
H60 H 0.2620 0.7947 0.5795
H61 H 0.2362 0.9479 0.5541
C51 C 0.28483(16) 0.9186(5) 0.5427(2)
H62 H 0.2625 0.8872 0.5039
H63 H 0.3104 0.8519 0.5590
H65 H 0.3370 0.9883 0.5218
Ni1 Ni 0.0000 0.5000 0.5000
N6 N 0.00939(12) 0.6564(4) 0.56065(15)
C5 C 0.01880(15) 0.9711(5) 0.3605(2)
H7 H 0.0479 0.9781 0.3716
C6 C 0.00837(15) 0.8655(5) 0.3850(2)
H8 H 0.0307 0.8031 0.4135
C19 C 0.05877(14) 0.6545(5) 0.60394(19)
H17 H 0.0674 0.5652 0.6275
H18 H 0.0680 0.7429 0.6280
H19 H 0.0083 0.8573 0.5268
H20 H 0.0063 0.8756 0.5781
O9 O 0.08587(10) 0.7209(4) 0.12162(13)
O10 O 0.01231(10) 0.6847(3) 0.05657(13)
C37 C 0.03563(14) 0.8508(5) 0.13235(19)
C38 C 0.06808(15) 0.9424(5) 0.17622(19)
H49 H 0.0977 0.9301 0.1897
C47 C 0.04512(15) 0.7448(5) 0.10120(19)
N10 N 0.06177(12) 0.4069(5) 0.45733(16)
N11 N 0.06699(11) 0.5191(4) 0.53826(15)
H70 H 0.0815 0.4303 0.5626
C55 C 0.08209(15) 0.6537(5) 0.5757(2)
H71 H 0.1143 0.6500 0.6043
H72 H 0.0748 0.7454 0.5538
C57 C 0.00483(15) 0.1834(5) 0.4556(2)
C58 C 0.05571(15) 0.1680(6) 0.4966(2)
H77 H 0.0636 0.0617 0.5009
H78 H 0.0660 0.2063 0.5334
C59 C 0.01394(14) 0.4028(6) 0.41590(19)
H79 H 0.0032 0.5042 0.4014
H80 H 0.0065 0.3393 0.3846
C60 C 0.08024(15) 0.5245(5) 0.49952(19)
H81 H 0.1126 0.5192 0.5222
H82 H 0.0712 0.6217 0.4804
C61 C 0.07943(16) 0.2535(6) 0.4767(2)
H83 H 0.0760 0.1978 0.4461
H84 H 0.1111 0.2594 0.5075
Ni3 Ni 0.0000 0.5000 0.0000
O14 O 0.01231(10) 0.3153(3) 0.55657(13)
Ni3_2 Ni 0.0000 0.5000 1.0000
N5 N 0.06699(11) 0.4809(4) 0.03826(15)
H2 H 0.0815 0.5697 0.0626
C18 C 0.08209(15) 0.3463(5) 0.0757(2)
H15 H 0.1143 0.3500 0.1043
H16 H 0.0748 0.2546 0.0538
H21 H 0.0636 0.9383 0.0009
H22 H 0.0660 0.7937 0.0334
H25 H 0.1126 0.4808 0.0222
H28 H 0.1111 0.7406 0.0075
N12 N 0.00939(12) 0.3436(4) 0.06065(15)
C56 C 0.05877(14) 0.3455(5) 0.10394(19)
H73 H 0.0674 0.4348 0.1275
H74 H 0.0680 0.2571 0.1280
H75 H 0.0083 0.1427 0.0268
H76 H 0.0063 0.1244 0.0781
N4 N 0.06177(12) 0.5931(5) 0.95733(16)
C20 C 0.00483(15) 0.8166(5) 0.9556(2)
C21 C 0.05571(15) 0.8320(6) 0.9966(2)
C22 C 0.01394(14) 0.5972(6) 0.91590(19)
H23 H 0.0032 0.4958 0.9014
H24 H 0.0065 0.6607 0.8846
C23 C 0.08024(15) 0.4755(5) 0.99952(19)
H26 H 0.0712 0.3783 0.9804
C24 C 0.07943(16) 0.7465(6) 0.9767(2)
H27 H 0.0760 0.8022 0.9461
O3 O 0.08587(10) 0.2791(4) 0.62162(13)
C7 C 0.03563(14) 0.1492(5) 0.63235(19)
C8 C 0.06808(15) 0.0576(5) 0.67622(19)
H9 H 0.0977 0.0699 0.6897
C17 C 0.04512(15) 0.2552(5) 0.60120(19)
C35 C 0.01880(15) 0.0289(5) 0.8605(2)
H47 H 0.0479 0.0219 0.8716
C36 C 0.00837(15) 0.1345(5) 0.8850(2)
H48 H 0.0307 0.1969 0.9135
O7 O 0.80153(9) 0.0807(3) 0.04702(12)
O8_2 O 0.83561(10) 0.0533(4) 0.00587(14)
C44_2 C 0.83025(14) 0.0214(5) 0.04293(19)
Ni4_2 Ni 0.7500 0.2500 0.0000
N1_2 N 0.81102(12) 0.3747(4) 0.13278(16)
N2_2 N 0.79902(12) 0.4235(4) 0.04308(16)
C25_2 C 0.83151(15) 0.3783(5) 0.10396(19)
H29_2 H 0.8435 0.2789 0.1061
H30_2 H 0.8562 0.4494 0.1230
C26_2 C 0.79530(16) 0.5260(5) 0.1333(2)
H31_2 H 0.8210 0.5907 0.1579
H32_2 H 0.7789 0.5192 0.1491
C27_2 C 0.76553(16) 0.5986(5) 0.0753(2)
H33_2 H 0.7620 0.7053 0.0795
H34_2 H 0.7362 0.5521 0.0541
C28_2 C 0.78483(16) 0.5814(5) 0.0427(2)
H35_2 H 0.7625 0.6128 0.0039
H36_2 H 0.8104 0.6481 0.0590
C29_2 C 0.82005(15) 0.4195(6) 0.0137(2)
H37_2 H 0.8406 0.3346 0.0275
H38_2 H 0.8370 0.5117 0.0218
N9_2 N 0.74033(11) 0.2377(4) 0.06070(15)
H55_2 H 0.7206 0.3216 0.0543
C53_2 C 0.71538(15) 0.0957(5) 0.04964(19)
H66_2 H 0.7356 0.0100 0.0639
H67_2 H 0.7014 0.0978 0.0686
C54_2 C 0.78146(15) 0.2493(6) 0.12038(19)
H68_2 H 0.7983 0.1561 0.1299
H69_2 H 0.7723 0.2571 0.1449
C1_2 C 1.0000 0.3830(7) 0.2500
C2 C 0.97125(13) 0.2815(5) 0.25900(18)
H3 H 0.9563 0.3416 0.2706
H4 H 0.9488 0.2282 0.2244
C4 C 0.98583(15) 0.0673(5) 0.31916(19)
C9 C 0.94186(15) 0.0517(5) 0.29916(19)
H10 H 0.9195 0.1125 0.2700
O11 O 0.99835(9) 0.1768(4) 0.19749(13)
O12_2 O 0.94334(10) 0.5756(3) 0.20575(13)
C33 C 0.97010(13) 0.4807(5) 0.19742(17)
H45_2 H 0.9883 0.5425 0.1913
H46 H 0.9510 0.4169 0.1645
C40_2 C 0.91671(13) 0.6817(5) 0.16454(19)
C41_2 C 0.90965(13) 0.6878(5) 0.11316(18)
H51_2 H 0.9230 0.6174 0.1042
C42_2 C 0.88229(13) 0.8003(5) 0.07502(19)
H52_2 H 0.8783 0.8065 0.0408
C43_2 C 0.86087(14) 0.9033(5) 0.08635(19)
C45_2 C 0.86769(15) 0.8919(5) 0.1379(2)
H53_2 H 0.8531 0.9590 0.1462
C46_2 C 0.89543(15) 0.7839(5) 0.1769(2)
H54_2 H 0.9000 0.7791 0.2115
Ni1_2 Ni 1.0000 0.5000 0.5000
O3_2 O 0.91413(10) 0.7209(4) 0.37838(13)
O4 O 0.98769(10) 0.6847(3) 0.44343(13)
N4_2 N 0.93823(12) 0.5931(5) 0.54267(16)
N5_2 N 0.93301(11) 0.4809(4) 0.46174(15)
H2_2 H 0.9185 0.5697 0.4374
C7_2 C 0.96437(14) 0.8508(5) 0.36765(19)
C8_2 C 0.93192(15) 0.9424(5) 0.32378(19)
H9_2 H 0.9023 0.9301 0.3103
C17_2 C 0.95488(15) 0.7448(5) 0.39880(19)
C18_2 C 0.91791(15) 0.3463(5) 0.4243(2)
H15_2 H 0.8857 0.3500 0.3957
H16_2 H 0.9252 0.2546 0.4462
C20_2 C 0.99517(15) 0.8166(5) 0.5444(2)
C21_2 C 0.94429(15) 0.8320(6) 0.5034(2)
H21_2 H 0.9364 0.9383 0.4991
H22_2 H 0.9340 0.7937 0.4666
C22_2 C 0.98606(14) 0.5972(6) 0.58410(19)
H23_2 H 0.9968 0.4958 0.5986
H24_2 H 0.9935 0.6607 0.6154
C23_2 C 0.91976(15) 0.4755(5) 0.50048(19)
H25_2 H 0.8874 0.4808 0.4778
H26_2 H 0.9288 0.3783 0.5196
C24_2 C 0.92057(16) 0.7465(6) 0.5233(2)
H27_2 H 0.9240 0.8022 0.5539
H28_2 H 0.8889 0.7406 0.4925
C35_2 C 0.98120(15) 0.9711(5) 0.1395(2)
H47_2 H 0.9521 0.9781 0.1284
C36_2 C 0.99163(15) 0.8655(5) 0.1150(2)
H48_2 H 0.9693 0.8031 0.0865
N12_2 N 0.99061(12) 0.3436(4) 0.43935(15)
C56_2 C 0.94123(14) 0.3455(5) 0.39606(19)
H73_2 H 0.9326 0.4348 0.3725
H74_2 H 0.9320 0.2571 0.3720
H75_2 H 0.9917 0.1427 0.4732
H76_2 H 0.9937 0.1244 0.4219
Ni3_3 Ni 1.0000 0.5000 0.0000
Ni3_4 Ni 1.0000 0.5000 1.0000
N10_2 N 0.93823(12) 0.4069(5) 0.04267(16)
C57_2 C 0.99517(15) 0.1834(5) 0.0444(2)
C58_2 C 0.94429(15) 0.1680(6) 0.0034(2)
C59_2 C 0.98606(14) 0.4028(6) 0.08410(19)
H79_2 H 0.9968 0.5042 0.0986
H80_2 H 0.9935 0.3393 0.1154
C60_2 C 0.91976(15) 0.5245(5) 0.00048(19)
H82_2 H 0.9288 0.6217 0.0196
C61_2 C 0.92057(16) 0.2535(6) 0.0233(2)
H83_2 H 0.9240 0.1978 0.0539
N6_2 N 0.99061(12) 0.6564(4) 0.93935(15)
C19_2 C 0.94123(14) 0.6545(5) 0.89606(19)
H17_2 H 0.9326 0.5652 0.8725
H18_2 H 0.9320 0.7429 0.8720
H19_2 H 0.9917 0.8573 0.9732
H20_2 H 0.9937 0.8756 0.9219
N11_2 N 0.93301(11) 0.5191(4) 0.96174(15)
H70_2 H 0.9185 0.4303 0.9374
C55_2 C 0.91791(15) 0.6537(5) 0.9243(2)
H71_2 H 0.8857 0.6500 0.8957
H72_2 H 0.9252 0.7454 0.9462
H77_2 H 0.9364 0.0617 0.9991
H78_2 H 0.9340 0.2063 0.9666
H81_2 H 0.8874 0.5192 0.9778
H84_2 H 0.8889 0.2594 0.9925
O14_2 O 0.98769(10) 0.3153(3) 0.94343(13)
C5_2 C 0.98120(15) 0.0289(5) 0.6395(2)
H7_2 H 0.9521 0.0219 0.6284
C6_2 C 0.99163(15) 0.1345(5) 0.6150(2)
H8_2 H 0.9693 0.1969 0.5865
O9_2 O 0.91413(10) 0.2791(4) 0.87838(13)
C37_2 C 0.96437(14) 0.1492(5) 0.86765(19)
C38_2 C 0.93192(15) 0.0576(5) 0.82378(19)
H49_2 H 0.9023 0.0699 0.8103
C47_2 C 0.95488(15) 0.2552(5) 0.89880(19)
C49_2 C 0.70470(16) 0.9740(5) 0.8667(2)
H58_2 H 0.6790 0.9093 0.8421
H59_2 H 0.7211 0.9808 0.8509
C50_2 C 0.73447(16) 0.9014(5) 0.9247(2)
H60_2 H 0.7380 0.7947 0.9205
H61_2 H 0.7638 0.9479 0.9459
C51_2 C 0.71517(16) 0.9186(5) 0.9573(2)
H62_2 H 0.7375 0.8872 0.9961
H63_2 H 0.6896 0.8519 0.9410
H65_2 H 0.6630 0.9883 0.9782
C26_3 C 0.70470(16) 0.0260(5) 0.3667(2)
H31_3 H 0.6790 0.0907 0.3421
H32_3 H 0.7211 0.0192 0.3509
C27_3 C 0.73447(16) 0.0986(5) 0.4247(2)
H33_3 H 0.7380 0.2053 0.4205
H34_3 H 0.7638 0.0521 0.4459
C28_3 C 0.71517(16) 0.0814(5) 0.4573(2)
H35_3 H 0.7375 0.1128 0.4961
H36_3 H 0.6896 0.1481 0.4410
H38_3 H 0.6630 0.0117 0.4782
O5_2 O 0.99835(9) 0.8232(4) 0.69749(13)
O6_3 O 0.94334(10) 0.4244(3) 0.70575(13)
C1_3 C 1.0000 0.6170(7) 0.7500
C3_2 C 0.97010(13) 0.5193(5) 0.69742(17)
H5_3 H 0.9883 0.4575 0.6913
H6_2 H 0.9510 0.5831 0.6645
C10_3 C 0.91671(13) 0.3183(5) 0.66454(19)
C11_3 C 0.90965(13) 0.3122(5) 0.61316(18)
H11_3 H 0.9230 0.3826 0.6042
C12_3 C 0.88229(13) 0.1997(5) 0.57502(19)
H12_3 H 0.8783 0.1935 0.5408
C13_3 C 0.86087(14) 0.0967(5) 0.58635(19)
C15_3 C 0.86769(15) 0.1081(5) 0.6379(2)
H13_3 H 0.8531 0.0410 0.6462
C16_3 C 0.89543(15) 0.2161(5) 0.6769(2)
H14_3 H 0.9000 0.2209 0.7115
C32_2 C 0.97125(13) 0.7185(5) 0.75900(18)
H43_2 H 0.9563 0.6584 0.7706
H44_2 H 0.9488 0.7718 0.7244
C34_2 C 0.98583(15) 0.9327(5) 0.81916(19)
C39_2 C 0.94186(15) 0.9483(5) 0.79916(19)
H50_2 H 0.9195 0.8875 0.7700
Ni2_2 Ni 0.7500 0.7500 0.5000
O1_2 O 0.69847(9) 0.5807(3) 0.45298(12)
O2_3 O 0.66439(10) 0.5533(4) 0.49413(14)
O6_4 O 0.55666(10) 0.0756(3) 0.29425(13)
N1_3 N 0.68898(12) 0.8747(4) 0.36722(16)
N2_3 N 0.70098(12) 0.9235(4) 0.45692(16)
N3_3 N 0.74033(11) 0.7623(4) 0.56070(15)
H1_3 H 0.7206 0.6784 0.5543
H5_4 H 0.5117 0.0425 0.3087
C10_4 C 0.58329(13) 0.1817(5) 0.33546(19)
C11_4 C 0.59035(13) 0.1878(5) 0.38684(18)
H11_4 H 0.5770 0.1174 0.3958
C12_4 C 0.61771(13) 0.3003(5) 0.42498(19)
H12_4 H 0.6217 0.3065 0.4592
C13_4 C 0.63913(14) 0.4033(5) 0.41365(19)
C14_3 C 0.66975(14) 0.5214(5) 0.45707(19)
C15_4 C 0.63231(15) 0.3919(5) 0.3621(2)
H13_4 H 0.6469 0.4590 0.3538
C16_4 C 0.60457(15) 0.2839(5) 0.3231(2)
H14_4 H 0.6000 0.2791 0.2885
C25_3 C 0.66849(15) 0.8783(5) 0.39604(19)
H29_3 H 0.6565 0.7789 0.3939
H30_3 H 0.6438 0.9494 0.3770
C29_3 C 0.67995(15) 0.9195(6) 0.4863(2)
H37_3 H 0.6594 0.8346 0.4725
C30_3 C 0.71538(15) 0.9043(5) 0.54964(19)
H39_3 H 0.7356 0.9900 0.5639
H40_3 H 0.7014 0.9022 0.5686
C31_3 C 0.78146(15) 0.7507(6) 0.62038(19)
H41_3 H 0.7983 0.8439 0.6299
H42_3 H 0.7723 0.7429 0.6449
O7_2 O 0.30153(9) 0.5807(3) 0.04702(12)
O8_3 O 0.33561(10) 0.5533(4) 0.00587(14)
O12_3 O 0.44334(10) 0.0756(3) 0.20575(13)
H45_3 H 0.4883 0.0425 0.1913
C40_3 C 0.41671(13) 0.1817(5) 0.16454(19)
C41_3 C 0.40965(13) 0.1878(5) 0.11316(18)
H51_3 H 0.4230 0.1174 0.1042
C42_3 C 0.38229(13) 0.3003(5) 0.07502(19)
H52_3 H 0.3783 0.3065 0.0408
C43_3 C 0.36087(14) 0.4033(5) 0.08635(19)
C44_3 C 0.33025(14) 0.5214(5) 0.04293(19)
C45_3 C 0.36769(15) 0.3919(5) 0.1379(2)
H53_3 H 0.3531 0.4590 0.1462
C46_3 C 0.39543(15) 0.2839(5) 0.1769(2)
H54_3 H 0.4000 0.2791 0.2115
N7_3 N 0.81102(12) 0.6253(4) 0.63278(16)
N8_3 N 0.79902(12) 0.5765(4) 0.54308(16)
N9_3 N 0.75967(11) 0.7377(4) 0.43930(15)
H55_3 H 0.7794 0.8216 0.4457
C48_3 C 0.83151(15) 0.6217(5) 0.60396(19)
H56_3 H 0.8435 0.7211 0.6061
H57_3 H 0.8562 0.5506 0.6230
C49_3 C 0.79530(16) 0.4740(5) 0.6333(2)
H58_3 H 0.8210 0.4093 0.6579
H59_3 H 0.7789 0.4808 0.6491
C50_3 C 0.76553(16) 0.4014(5) 0.5753(2)
H60_3 H 0.7620 0.2947 0.5795
H61_3 H 0.7362 0.4479 0.5541
C51_3 C 0.78483(16) 0.4186(5) 0.5427(2)
H62_3 H 0.7625 0.3872 0.5039
H63_3 H 0.8104 0.3519 0.5590
C52_3 C 0.82005(15) 0.5805(6) 0.5137(2)
H64_3 H 0.8406 0.6654 0.5275
H65_3 H 0.8370 0.4883 0.5218
C53_3 C 0.78462(15) 0.5957(5) 0.45036(19)
H66_3 H 0.7644 0.5100 0.4361
H67_3 H 0.7986 0.5978 0.4314
C54_3 C 0.71854(15) 0.7493(6) 0.37962(19)
H68_3 H 0.7017 0.6561 0.3701
H69_3 H 0.7277 0.7571 0.3551
Ni4_3 Ni 0.2500 0.7500 0.0000
O13_3 O 0.80153(9) 0.9193(3) 0.54702(12)
N1_4 N 0.31102(12) 0.8747(4) 0.13278(16)
N2_4 N 0.29902(12) 0.9235(4) 0.04308(16)
C25_4 C 0.33151(15) 0.8783(5) 0.10396(19)
H29_4 H 0.3435 0.7789 0.1061
H30_4 H 0.3562 0.9494 0.1230
C29_4 C 0.32005(15) 0.9195(6) 0.0137(2)
H37_4 H 0.3406 0.8346 0.0275
N9_4 N 0.24033(11) 0.7377(4) 0.06070(15)
H55_4 H 0.2206 0.8216 0.0543
C53_4 C 0.21538(15) 0.5957(5) 0.04964(19)
H66_4 H 0.2356 0.5100 0.0639
H67_4 H 0.2014 0.5978 0.0686
C54_4 C 0.28146(15) 0.7493(6) 0.12038(19)
H68_4 H 0.2983 0.6561 0.1299
H69_4 H 0.2723 0.7571 0.1449
O2_4 O 0.83561(10) 0.9467(4) 0.50587(14)
C14_4 C 0.83025(14) 0.9786(5) 0.54293(19)
Ni4_4 Ni 0.2500 0.7500 1.0000
N3_4 N 0.25967(11) 0.7623(4) 0.93930(15)
H1_4 H 0.2794 0.6784 0.9457
C30_4 C 0.28462(15) 0.9043(5) 0.95036(19)
H39_4 H 0.2644 0.9900 0.9361
H40_4 H 0.2986 0.9022 0.9314
C31_4 C 0.21854(15) 0.7507(6) 0.87962(19)
H41_4 H 0.2017 0.8439 0.8701
H42_4 H 0.2277 0.7429 0.8551
N7_4 N 0.18898(12) 0.6253(4) 0.86722(16)
N8_4 N 0.20098(12) 0.5765(4) 0.95692(16)
C48_4 C 0.16849(15) 0.6217(5) 0.89604(19)
H56_4 H 0.1565 0.7211 0.8939
H57_4 H 0.1438 0.5506 0.8770
C49_4 C 0.20470(16) 0.4740(5) 0.8667(2)
H58_4 H 0.1790 0.4093 0.8421
H59_4 H 0.2211 0.4808 0.8509
C50_4 C 0.23447(16) 0.4014(5) 0.9247(2)
H60_4 H 0.2380 0.2947 0.9205
H61_4 H 0.2638 0.4479 0.9459
C51_4 C 0.21517(16) 0.4186(5) 0.9573(2)
H62_4 H 0.2375 0.3872 0.9961
H63_4 H 0.1896 0.3519 0.9410
C52_4 C 0.17995(15) 0.5805(6) 0.9863(2)
H64_4 H 0.1594 0.6654 0.9725
H65_4 H 0.1630 0.4883 0.9782
O13_4 O 0.19847(9) 0.9193(3) 0.95298(12)
O8_4 O 0.16439(10) 0.9467(4) 0.99413(14)
C44_4 C 0.16975(14) 0.9786(5) 0.95707(19)
Ni1_3 Ni 0.5000 0.0000 0.5000
O3_3 O 0.41413(10) 0.2209(4) 0.37838(13)
O4_2 O 0.48769(10) 0.1847(3) 0.44343(13)
O5_3 O 0.50165(9) 0.6768(4) 0.30251(13)
N4_3 N 0.43823(12) 0.0931(5) 0.54267(16)
H2_3 H 0.4185 0.0697 0.4374
N6_3 N 0.50939(12) 0.1564(4) 0.56065(15)
C1_4 C 0.5000 0.8830(7) 0.2500
C2_2 C 0.47125(13) 0.7815(5) 0.25900(18)
H3_2 H 0.4563 0.8416 0.2706
H4_2 H 0.4488 0.7282 0.2244
C3_3 C 0.52990(13) 0.9807(5) 0.30258(17)
H6_3 H 0.5490 0.9169 0.3355
C4_2 C 0.48583(15) 0.5673(5) 0.31916(19)
C5_3 C 0.51880(15) 0.4711(5) 0.3605(2)
H7_3 H 0.5479 0.4781 0.3716
C6_3 C 0.50837(15) 0.3655(5) 0.3850(2)
H8_3 H 0.5307 0.3031 0.4135
C7_3 C 0.46437(14) 0.3508(5) 0.36765(19)
C8_3 C 0.43192(15) 0.4424(5) 0.32378(19)
H9_3 H 0.4023 0.4301 0.3103
C9_2 C 0.44186(15) 0.5517(5) 0.29916(19)
H10_2 H 0.4195 0.6125 0.2700
C17_3 C 0.45488(15) 0.2448(5) 0.39880(19)
C19_3 C 0.55877(14) 0.1545(5) 0.60394(19)
H17_3 H 0.5674 0.0652 0.6275
H18_3 H 0.5680 0.2429 0.6280
C20_3 C 0.49517(15) 0.3166(5) 0.5444(2)
H19_3 H 0.5083 0.3573 0.5268
H20_3 H 0.5063 0.3756 0.5781
C21_3 C 0.44429(15) 0.3320(6) 0.5034(2)
H21_3 H 0.4364 0.4383 0.4991
H22_3 H 0.4340 0.2937 0.4666
C22_3 C 0.48606(14) 0.0972(6) 0.58410(19)
H24_3 H 0.4935 0.1607 0.6154
C24_3 C 0.42057(16) 0.2465(6) 0.5233(2)
H27_3 H 0.4240 0.3022 0.5539
H28_3 H 0.3889 0.2406 0.4925
O9_3 O 0.58587(10) 0.2209(4) 0.12162(13)
O10_2 O 0.51231(10) 0.1847(3) 0.05657(13)
O11_2 O 0.49835(9) 0.6768(4) 0.19749(13)
C32_3 C 0.52875(13) 0.7815(5) 0.24100(18)
H43_3 H 0.5437 0.8416 0.2294
H44_3 H 0.5512 0.7282 0.2756
C33_2 C 0.47010(13) 0.9807(5) 0.19742(17)
H46_2 H 0.4510 0.9169 0.1645
C34_3 C 0.51417(15) 0.5673(5) 0.18084(19)
C35_3 C 0.48120(15) 0.4711(5) 0.1395(2)
H47_3 H 0.4521 0.4781 0.1284
C36_3 C 0.49163(15) 0.3655(5) 0.1150(2)
H48_3 H 0.4693 0.3031 0.0865
C37_3 C 0.53563(14) 0.3508(5) 0.13235(19)
C38_3 C 0.56808(15) 0.4424(5) 0.17622(19)
H49_3 H 0.5977 0.4301 0.1897
C39_3 C 0.55814(15) 0.5517(5) 0.20084(19)
H50_3 H 0.5805 0.6125 0.2300
C47_3 C 0.54512(15) 0.2448(5) 0.10120(19)
N11_3 N 0.56699(11) 0.0191(4) 0.53826(15)
C55_3 C 0.58209(15) 0.1537(5) 0.5757(2)
H71_3 H 0.6143 0.1500 0.6043
H72_3 H 0.5748 0.2454 0.5538
H79_3 H 0.5032 0.0042 0.4014
C60_3 C 0.58024(15) 0.0245(5) 0.49952(19)
H81_3 H 0.6126 0.0192 0.5222
H82_3 H 0.5712 0.1217 0.4804
Ni3_5 Ni 0.5000 0.0000 0.0000
Ni3_6 Ni 0.5000 0.0000 1.0000
H2_4 H 0.5815 0.0697 0.0626
H21_4 H 0.5636 0.4383 0.0009
H22_4 H 0.5660 0.2937 0.0334
H28_4 H 0.6111 0.2406 0.0075
H79_4 H 0.4968 0.0042 0.0986
C60_4 C 0.41976(15) 0.0245(5) 0.00048(19)
H82_4 H 0.4288 0.1217 0.0196
N4_4 N 0.56177(12) 0.0931(5) 0.95733(16)
N6_4 N 0.49061(12) 0.1564(4) 0.93935(15)
C19_4 C 0.44123(14) 0.1545(5) 0.89606(19)
H17_4 H 0.4326 0.0652 0.8725
H18_4 H 0.4320 0.2429 0.8720
C20_4 C 0.50483(15) 0.3166(5) 0.9556(2)
H19_4 H 0.4917 0.3573 0.9732
H20_4 H 0.4937 0.3756 0.9219
C21_4 C 0.55571(15) 0.3320(6) 0.9966(2)
C22_4 C 0.51394(14) 0.0972(6) 0.91590(19)
H24_4 H 0.5065 0.1607 0.8846
C24_4 C 0.57943(16) 0.2465(6) 0.9767(2)
H27_4 H 0.5760 0.3022 0.9461
N11_4 N 0.43301(11) 0.0191(4) 0.96174(15)
C55_4 C 0.41791(15) 0.1537(5) 0.9243(2)
H71_4 H 0.3857 0.1500 0.8957
H72_4 H 0.4252 0.2454 0.9462
H81_4 H 0.3874 0.0192 0.9778
Ni1_4 Ni 0.5000 1.0000 0.5000
N5_3 N 0.43301(11) 0.9809(4) 0.46174(15)
C18_3 C 0.41791(15) 0.8463(5) 0.4243(2)
H15_3 H 0.3857 0.8500 0.3957
H16_3 H 0.4252 0.7546 0.4462
H23_3 H 0.4968 0.9958 0.5986
C23_3 C 0.41976(15) 0.9755(5) 0.50048(19)
H25_3 H 0.3874 0.9808 0.4778
H26_3 H 0.4288 0.8783 0.5196
N10_3 N 0.56177(12) 0.9069(5) 0.45733(16)
H70_3 H 0.5815 0.9303 0.5626
N12_3 N 0.49061(12) 0.8436(4) 0.43935(15)
C56_3 C 0.44123(14) 0.8455(5) 0.39606(19)
H73_3 H 0.4326 0.9348 0.3725
H74_3 H 0.4320 0.7571 0.3720
C57_3 C 0.50483(15) 0.6834(5) 0.4556(2)
H75_3 H 0.4917 0.6427 0.4732
H76_3 H 0.4937 0.6244 0.4219
C58_3 C 0.55571(15) 0.6680(6) 0.4966(2)
H77_3 H 0.5636 0.5617 0.5009
H78_3 H 0.5660 0.7063 0.5334
C59_3 C 0.51394(14) 0.9028(6) 0.41590(19)
H80_3 H 0.5065 0.8393 0.3846
C61_3 C 0.57943(16) 0.7535(6) 0.4767(2)
H83_3 H 0.5760 0.6978 0.4461
H84_3 H 0.6111 0.7594 0.5075
Ni3_7 Ni 0.5000 1.0000 0.0000
O14_3 O 0.51231(10) 0.8153(3) 0.55657(13)
Ni3_8 Ni 0.5000 1.0000 1.0000
N5_4 N 0.56699(11) 0.9809(4) 0.03826(15)
C18_4 C 0.58209(15) 0.8463(5) 0.0757(2)
H15_4 H 0.6143 0.8500 0.1043
H16_4 H 0.5748 0.7546 0.0538
H25_4 H 0.6126 0.9808 0.0222
N10_4 N 0.43823(12) 0.9069(5) 0.04267(16)
N12_4 N 0.50939(12) 0.8436(4) 0.06065(15)
C56_4 C 0.55877(14) 0.8455(5) 0.10394(19)
H73_4 H 0.5674 0.9348 0.1275
H74_4 H 0.5680 0.7571 0.1280
C57_4 C 0.49517(15) 0.6834(5) 0.0444(2)
H75_4 H 0.5083 0.6427 0.0268
H76_4 H 0.5063 0.6244 0.0781
C58_4 C 0.44429(15) 0.6680(6) 0.0034(2)
C59_4 C 0.48606(14) 0.9028(6) 0.08410(19)
H80_4 H 0.4935 0.8393 0.1154
C61_4 C 0.42057(16) 0.7535(6) 0.0233(2)
H83_4 H 0.4240 0.6978 0.0539
H23_4 H 0.5032 0.9958 0.9014
C23_4 C 0.58024(15) 0.9755(5) 0.99952(19)
H26_4 H 0.5712 0.8783 0.9804
H70_4 H 0.4185 0.9303 0.9374
H77_4 H 0.4364 0.5617 0.9991
H78_4 H 0.4340 0.7063 0.9666
H84_4 H 0.3889 0.7594 0.9925
O14_4 O 0.48769(10) 0.8153(3) 0.94343(13)
O3_4 O 0.58587(10) 0.7791(4) 0.62162(13)
O5_4 O 0.49835(9) 0.3232(4) 0.69749(13)
C1_5 C 0.5000 0.1170(7) 0.7500
C2_3 C 0.52875(13) 0.2185(5) 0.74100(18)
H3_3 H 0.5437 0.1584 0.7294
H4_3 H 0.5512 0.2718 0.7756
C3_4 C 0.47010(13) 0.0193(5) 0.69742(17)
H6_4 H 0.4510 0.0831 0.6645
C4_3 C 0.51417(15) 0.4327(5) 0.68084(19)
C5_4 C 0.48120(15) 0.5289(5) 0.6395(2)
H7_4 H 0.4521 0.5219 0.6284
C6_4 C 0.49163(15) 0.6345(5) 0.6150(2)
H8_4 H 0.4693 0.6969 0.5865
C7_4 C 0.53563(14) 0.6492(5) 0.63235(19)
C8_4 C 0.56808(15) 0.5576(5) 0.67622(19)
H9_4 H 0.5977 0.5699 0.6897
C9_3 C 0.55814(15) 0.4483(5) 0.70084(19)
H10_3 H 0.5805 0.3875 0.7300
C17_4 C 0.54512(15) 0.7552(5) 0.60120(19)
O9_4 O 0.41413(10) 0.7791(4) 0.87838(13)
O11_3 O 0.50165(9) 0.3232(4) 0.80251(13)
C32_4 C 0.47125(13) 0.2185(5) 0.75900(18)
H43_4 H 0.4563 0.1584 0.7706
H44_4 H 0.4488 0.2718 0.7244
C33_3 C 0.52990(13) 0.0193(5) 0.80258(17)
H46_3 H 0.5490 0.0831 0.8355
C34_4 C 0.48583(15) 0.4327(5) 0.81916(19)
C35_4 C 0.51880(15) 0.5289(5) 0.8605(2)
H47_4 H 0.5479 0.5219 0.8716
C36_4 C 0.50837(15) 0.6345(5) 0.8850(2)
H48_4 H 0.5307 0.6969 0.9135
C37_4 C 0.46437(14) 0.6492(5) 0.86765(19)
C38_4 C 0.43192(15) 0.5576(5) 0.82378(19)
H49_4 H 0.4023 0.5699 0.8103
C39_4 C 0.44186(15) 0.4483(5) 0.79916(19)
H50_4 H 0.4195 0.3875 0.7700
C47_4 C 0.45488(15) 0.7552(5) 0.89880(19)
C26_4 C 0.29530(16) 0.0260(5) 0.1333(2)
H31_4 H 0.3210 0.0907 0.1579
H32_4 H 0.2789 0.0192 0.1491
C27_4 C 0.26553(16) 0.0986(5) 0.0753(2)
H33_4 H 0.2620 0.2053 0.0795
H34_4 H 0.2362 0.0521 0.0541
C28_4 C 0.28483(16) 0.0814(5) 0.0427(2)
H35_4 H 0.2625 0.1128 0.0039
H36_4 H 0.3104 0.1481 0.0590
H38_4 H 0.3370 0.0117 0.0218
C1_6 C 0.0000 0.6170(7) 0.7500
C2_4 C 0.02875(13) 0.7185(5) 0.74100(18)
H3_4 H 0.0437 0.6584 0.7294
H4_4 H 0.0512 0.7718 0.7756
C4_4 C 0.01417(15) 0.9327(5) 0.68084(19)
C9_4 C 0.05814(15) 0.9483(5) 0.70084(19)
H10_4 H 0.0805 0.8875 0.7300
O11_4 O 0.00165(9) 0.8232(4) 0.80251(13)
O12_4 O 0.05666(10) 0.4244(3) 0.79425(13)
C33_4 C 0.02990(13) 0.5193(5) 0.80258(17)
H45_4 H 0.0117 0.4575 0.8087
H46_4 H 0.0490 0.5831 0.8355
C40_4 C 0.08329(13) 0.3183(5) 0.83546(19)
C41_4 C 0.09035(13) 0.3122(5) 0.88684(18)
H51_4 H 0.0770 0.3826 0.8958
C42_4 C 0.11771(13) 0.1997(5) 0.92498(19)
H52_4 H 0.1217 0.1935 0.9592
C43_4 C 0.13913(14) 0.0967(5) 0.91365(19)
C45_4 C 0.13231(15) 0.1081(5) 0.8621(2)
H53_4 H 0.1469 0.0410 0.8538
C46_4 C 0.10457(15) 0.2161(5) 0.8231(2)
H54_4 H 0.1000 0.2209 0.7885
loop_
_geom_bond_atom_site_label_1
_geom_bond_atom_site_label_2
_geom_bond_site_symmetry_1
_geom_bond_site_symmetry_2
Ni2 O1 1_555 1_555
O1 C14 1_555 1_555
O2 C14 1_555 1_555
N1 C25 1_555 1_555
N2 Ni2 1_555 1_555
N3 Ni2 1_555 1_555
H1 N3 1_555 1_555
C25 N2 1_555 1_555
H29 C25 1_555 1_555
H30 C25 1_555 1_555
C26 N1 1_555 1_555
H31 C26 1_555 1_555
H32 C26 1_555 1_555
C27 C26 1_555 1_555
H33 C27 1_555 1_555
H34 C27 1_555 1_555
C28 N2 1_555 1_555
H35 C28 1_555 1_555
H36 C28 1_555 1_555
C29 N2 1_555 1_555
H37 C29 1_555 1_555
H38 C29 1_555 1_555
C30 N3 1_555 1_555
H39 C30 1_555 1_555
H40 C30 1_555 1_555
C31 N3 1_555 1_555
H41 C31 1_555 1_555
H42 C31 1_555 1_555
N7 C31 1_555 1_555
N8 Ni2 1_555 1_555
N9 Ni2 1_555 1_555
H55 N9 1_555 1_555
C48 N7 1_555 1_555
H56 C48 1_555 1_555
H57 C48 1_555 1_555
C52 N8 1_555 1_555
H64 C52 1_555 1_555
C53 N9 1_555 1_555
H66 C53 1_555 1_555
H67 C53 1_555 1_555
C54 N1 1_555 1_555
H68 C54 1_555 1_555
H69 C54 1_555 1_555
O13 Ni2 1_555 1_555
C27 C28 1_555 1_555
C29 C30 1_555 1_555
N8 C48 1_555 1_555
N9 C54 1_555 1_555
C52 C53 1_555 1_555
N3_2 Ni4 1_555 1_555
H1_2 N3_2 1_555 1_555
C30_2 N3_2 1_555 1_555
H39_2 C30_2 1_555 1_555
H40_2 C30_2 1_555 1_555
C31_2 N3_2 1_555 1_555
H41_2 C31_2 1_555 1_555
H42_2 C31_2 1_555 1_555
N7_2 C31_2 1_555 1_555
N8_2 Ni4 1_555 1_555
C48_2 N7_2 1_555 1_555
H56_2 C48_2 1_555 1_555
H57_2 C48_2 1_555 1_555
C52_2 N8_2 1_555 1_555
H64_2 C52_2 1_555 1_555
O13_2 Ni4 1_555 1_555
N8_2 C48_2 1_555 1_555
O13 C14_2 1_555 1_555
O2_2 C14_2 1_555 1_555
C10 O6 1_555 1_555
C11 C10 1_555 1_555
H11 C11 1_555 1_555
C12 C11 1_555 1_555
H12 C12 1_555 1_555
C13 C12 1_555 1_555
C14_2 C13 1_555 1_555
C15 C13 1_555 1_555
H13 C15 1_555 1_555
C16 C10 1_555 1_555
H14 C16 1_555 1_555
O13_2 C44 1_555 1_555
O8 C44 1_555 1_555
C40 O12 1_555 1_555
C41 C40 1_555 1_555
H51 C41 1_555 1_555
C42 C41 1_555 1_555
H52 C42 1_555 1_555
C43 C42 1_555 1_555
C44 C43 1_555 1_555
C45 C43 1_555 1_555
H53 C45 1_555 1_555
C46 C40 1_555 1_555
H54 C46 1_555 1_555
C15 C16 1_555 1_555
C45 C46 1_555 1_555
O6_2 C3 1_555 1_555
C3 C1 1_555 1_555
H5_2 C3 1_555 1_555
H6 C3 1_555 1_555
C10_2 O6_2 1_555 1_555
C11_2 C10_2 1_555 1_555
H11_2 C11_2 1_555 1_555
C12_2 C11_2 1_555 1_555
H12_2 C12_2 1_555 1_555
C13_2 C12_2 1_555 1_555
C15_2 C13_2 1_555 1_555
H13_2 C15_2 1_555 1_555
C16_2 C10_2 1_555 1_555
H14_2 C16_2 1_555 1_555
C32 C1 1_555 1_555
H43 C32 1_555 1_555
H44 C32 1_555 1_555
C39 C34 1_555 1_555
H50 C39 1_555 1_555
H58 C49 1_555 1_555
H59 C49 1_555 1_555
C50 C49 1_555 1_555
H60 C50 1_555 1_555
H61 C50 1_555 1_555
H62 C51 1_555 1_555
H63 C51 1_555 1_555
C15_2 C16_2 1_555 1_555
C50 C51 1_555 1_555
N6 Ni1 1_555 1_555
H7 C5 1_555 1_555
C6 C5 1_555 1_555
H8 C6 1_555 1_555
C19 N6 1_555 1_555
H17 C19 1_555 1_555
H18 C19 1_555 1_555
O9 C47 1_555 1_555
O10 C47 1_555 1_555
C38 C37 1_555 1_555
H49 C38 1_555 1_555
C47 C37 1_555 1_555
N10 C59 1_555 1_555
N11 Ni1 1_555 1_555
H70 N11 1_555 1_555
C55 C19 1_555 1_555
H71 C55 1_555 1_555
H72 C55 1_555 1_555
C58 C57 1_555 1_555
H77 C58 1_555 1_555
H78 C58 1_555 1_555
H79 C59 1_555 1_555
H80 C59 1_555 1_555
C60 N10 1_555 1_555
H81 C60 1_555 1_555
H82 C60 1_555 1_555
C61 N10 1_555 1_555
H83 C61 1_555 1_555
H84 C61 1_555 1_555
Ni3 O10 1_555 1_555
O14 Ni1 1_555 1_555
N11 C55 1_555 1_555
N11 C60 1_555 1_555
C58 C61 1_555 1_555
N5 Ni3 1_555 1_555
H2 N5 1_555 1_555
C18 N5 1_555 1_555
H15 C18 1_555 1_555
H16 C18 1_555 1_555
N12 Ni3 1_555 1_555
C56 C18 1_555 1_555
H73 C56 1_555 1_555
H74 C56 1_555 1_555
N12 C56 1_555 1_555
N4 C22 1_555 1_555
C21 C20 1_555 1_555
H23 C22 1_555 1_555
H24 C22 1_555 1_555
C23 N4 1_555 1_555
H26 C23 1_555 1_555
C24 N4 1_555 1_555
H27 C24 1_555 1_555
C21 C24 1_555 1_555
O3 C17 1_555 1_555
O14 C17 1_555 1_555
C8 C7 1_555 1_555
H9 C8 1_555 1_555
C17 C7 1_555 1_555
H47 C35 1_555 1_555
C36 C35 1_555 1_555
H48 C36 1_555 1_555
O7 C44_2 1_555 1_555
O8_2 C44_2 1_555 1_555
Ni4_2 O7 1_555 1_555
N1_2 C25_2 1_555 1_555
N2_2 Ni4_2 1_555 1_555
C25_2 N2_2 1_555 1_555
H29_2 C25_2 1_555 1_555
H30_2 C25_2 1_555 1_555
C26_2 N1_2 1_555 1_555
H31_2 C26_2 1_555 1_555
H32_2 C26_2 1_555 1_555
C27_2 C26_2 1_555 1_555
H33_2 C27_2 1_555 1_555
H34_2 C27_2 1_555 1_555
C28_2 N2_2 1_555 1_555
H35_2 C28_2 1_555 1_555
H36_2 C28_2 1_555 1_555
C29_2 N2_2 1_555 1_555
H37_2 C29_2 1_555 1_555
H38_2 C29_2 1_555 1_555
N9_2 Ni4_2 1_555 1_555
H55_2 N9_2 1_555 1_555
C53_2 N9_2 1_555 1_555
H66_2 C53_2 1_555 1_555
H67_2 C53_2 1_555 1_555
C54_2 N1_2 1_555 1_555
H68_2 C54_2 1_555 1_555
H69_2 C54_2 1_555 1_555
C27_2 C28_2 1_555 1_555
N9_2 C54_2 1_555 1_555
C1_2 C2 1_555 1_555
C2 H3 1_555 1_555
H4 C2 1_555 1_555
C9 C4 1_555 1_555
H10 C9 1_555 1_555
O12_2 C33 1_555 1_555
C33 C1_2 1_555 1_555
H45_2 C33 1_555 1_555
H46 C33 1_555 1_555
C40_2 O12_2 1_555 1_555
C41_2 C40_2 1_555 1_555
H51_2 C41_2 1_555 1_555
C42_2 C41_2 1_555 1_555
H52_2 C42_2 1_555 1_555
C43_2 C42_2 1_555 1_555
C45_2 C43_2 1_555 1_555
H53_2 C45_2 1_555 1_555
C46_2 C40_2 1_555 1_555
H54_2 C46_2 1_555 1_555
C45_2 C46_2 1_555 1_555
Ni1_2 O4 1_555 1_555
O3_2 C17_2 1_555 1_555
O4 C17_2 1_555 1_555
N4_2 C22_2 1_555 1_555
N5_2 Ni1_2 1_555 1_555
H2_2 N5_2 1_555 1_555
C8_2 C7_2 1_555 1_555
H9_2 C8_2 1_555 1_555
C17_2 C7_2 1_555 1_555
C18_2 N5_2 1_555 1_555
H15_2 C18_2 1_555 1_555
H16_2 C18_2 1_555 1_555
C21_2 C20_2 1_555 1_555
H21_2 C21_2 1_555 1_555
H22_2 C21_2 1_555 1_555
H23_2 C22_2 1_555 1_555
H24_2 C22_2 1_555 1_555
C23_2 N4_2 1_555 1_555
H25_2 C23_2 1_555 1_555
H26_2 C23_2 1_555 1_555
C24_2 N4_2 1_555 1_555
H27_2 C24_2 1_555 1_555
H28_2 C24_2 1_555 1_555
H47_2 C35_2 1_555 1_555
C36_2 C35_2 1_555 1_555
H48_2 C36_2 1_555 1_555
N12_2 Ni1_2 1_555 1_555
C56_2 C18_2 1_555 1_555
H73_2 C56_2 1_555 1_555
H74_2 C56_2 1_555 1_555
N5_2 C23_2 1_555 1_555
C21_2 C24_2 1_555 1_555
N12_2 C56_2 1_555 1_555
N10_2 C59_2 1_555 1_555
C58_2 C57_2 1_555 1_555
H79_2 C59_2 1_555 1_555
H80_2 C59_2 1_555 1_555
C60_2 N10_2 1_555 1_555
H82_2 C60_2 1_555 1_555
C61_2 N10_2 1_555 1_555
H83_2 C61_2 1_555 1_555
C58_2 C61_2 1_555 1_555
N6_2 Ni3_4 1_555 1_555
C19_2 N6_2 1_555 1_555
H17_2 C19_2 1_555 1_555
H18_2 C19_2 1_555 1_555
N11_2 Ni3_4 1_555 1_555
H70_2 N11_2 1_555 1_555
C55_2 C19_2 1_555 1_555
H71_2 C55_2 1_555 1_555
H72_2 C55_2 1_555 1_555
O14_2 Ni3_4 1_555 1_555
N11_2 C55_2 1_555 1_555
H7_2 C5_2 1_555 1_555
C6_2 C5_2 1_555 1_555
H8_2 C6_2 1_555 1_555
O9_2 C47_2 1_555 1_555
O14_2 C47_2 1_555 1_555
C38_2 C37_2 1_555 1_555
H49_2 C38_2 1_555 1_555
C47_2 C37_2 1_555 1_555
H58_2 C49_2 1_555 1_555
H59_2 C49_2 1_555 1_555
C50_2 C49_2 1_555 1_555
H60_2 C50_2 1_555 1_555
H61_2 C50_2 1_555 1_555
H62_2 C51_2 1_555 1_555
H63_2 C51_2 1_555 1_555
C50_2 C51_2 1_555 1_555
H31_3 C26_3 1_555 1_555
H32_3 C26_3 1_555 1_555
C27_3 C26_3 1_555 1_555
H33_3 C27_3 1_555 1_555
H34_3 C27_3 1_555 1_555
H35_3 C28_3 1_555 1_555
H36_3 C28_3 1_555 1_555
C27_3 C28_3 1_555 1_555
O6_3 C3_2 1_555 1_555
C3_2 C1_3 1_555 1_555
H5_3 C3_2 1_555 1_555
H6_2 C3_2 1_555 1_555
C10_3 O6_3 1_555 1_555
C11_3 C10_3 1_555 1_555
H11_3 C11_3 1_555 1_555
C12_3 C11_3 1_555 1_555
H12_3 C12_3 1_555 1_555
C13_3 C12_3 1_555 1_555
C15_3 C13_3 1_555 1_555
H13_3 C15_3 1_555 1_555
C16_3 C10_3 1_555 1_555
H14_3 C16_3 1_555 1_555
C32_2 C1_3 1_555 1_555
H43_2 C32_2 1_555 1_555
H44_2 C32_2 1_555 1_555
C39_2 C34_2 1_555 1_555
H50_2 C39_2 1_555 1_555
C15_3 C16_3 1_555 1_555
Ni2_2 O1_2 1_555 1_555
O1_2 C14_3 1_555 1_555
O2_3 C14_3 1_555 1_555
N1_3 C25_3 1_555 1_555
N2_3 Ni2_2 1_555 1_555
N3_3 Ni2_2 1_555 1_555
H1_3 N3_3 1_555 1_555
C10_4 O6_4 1_555 1_555
C11_4 C10_4 1_555 1_555
H11_4 C11_4 1_555 1_555
C12_4 C11_4 1_555 1_555
H12_4 C12_4 1_555 1_555
C13_4 C12_4 1_555 1_555
C14_3 C13_4 1_555 1_555
C15_4 C13_4 1_555 1_555
H13_4 C15_4 1_555 1_555
C16_4 C10_4 1_555 1_555
H14_4 C16_4 1_555 1_555
C25_3 N2_3 1_555 1_555
H29_3 C25_3 1_555 1_555
H30_3 C25_3 1_555 1_555
C29_3 N2_3 1_555 1_555
H37_3 C29_3 1_555 1_555
C30_3 N3_3 1_555 1_555
H39_3 C30_3 1_555 1_555
H40_3 C30_3 1_555 1_555
C31_3 N3_3 1_555 1_555
H41_3 C31_3 1_555 1_555
H42_3 C31_3 1_555 1_555
O7_2 C44_3 1_555 1_555
O8_3 C44_3 1_555 1_555
C40_3 O12_3 1_555 1_555
C41_3 C40_3 1_555 1_555
H51_3 C41_3 1_555 1_555
C42_3 C41_3 1_555 1_555
H52_3 C42_3 1_555 1_555
C43_3 C42_3 1_555 1_555
C44_3 C43_3 1_555 1_555
C45_3 C43_3 1_555 1_555
H53_3 C45_3 1_555 1_555
C46_3 C40_3 1_555 1_555
H54_3 C46_3 1_555 1_555
N7_3 C31_3 1_555 1_555
N8_3 Ni2_2 1_555 1_555
N9_3 Ni2_2 1_555 1_555
H55_3 N9_3 1_555 1_555
C48_3 N7_3 1_555 1_555
H56_3 C48_3 1_555 1_555
H57_3 C48_3 1_555 1_555
C49_3 N7_3 1_555 1_555
H58_3 C49_3 1_555 1_555
H59_3 C49_3 1_555 1_555
C50_3 C49_3 1_555 1_555
H60_3 C50_3 1_555 1_555
H61_3 C50_3 1_555 1_555
C51_3 N8_3 1_555 1_555
H62_3 C51_3 1_555 1_555
H63_3 C51_3 1_555 1_555
C52_3 N8_3 1_555 1_555
H64_3 C52_3 1_555 1_555
H65_3 C52_3 1_555 1_555
C53_3 N9_3 1_555 1_555
H66_3 C53_3 1_555 1_555
H67_3 C53_3 1_555 1_555
C54_3 N1_3 1_555 1_555
H68_3 C54_3 1_555 1_555
H69_3 C54_3 1_555 1_555
Ni4_3 O7_2 1_555 1_555
O13_3 Ni2_2 1_555 1_555
C15_4 C16_4 1_555 1_555
C29_3 C30_3 1_555 1_555
C45_3 C46_3 1_555 1_555
N8_3 C48_3 1_555 1_555
N9_3 C54_3 1_555 1_555
C50_3 C51_3 1_555 1_555
C52_3 C53_3 1_555 1_555
N1_4 C25_4 1_555 1_555
N2_4 Ni4_3 1_555 1_555
C25_4 N2_4 1_555 1_555
H29_4 C25_4 1_555 1_555
H30_4 C25_4 1_555 1_555
C29_4 N2_4 1_555 1_555
H37_4 C29_4 1_555 1_555
N9_4 Ni4_3 1_555 1_555
H55_4 N9_4 1_555 1_555
C53_4 N9_4 1_555 1_555
H66_4 C53_4 1_555 1_555
H67_4 C53_4 1_555 1_555
C54_4 N1_4 1_555 1_555
H68_4 C54_4 1_555 1_555
H69_4 C54_4 1_555 1_555
N9_4 C54_4 1_555 1_555
O13_3 C14_4 1_555 1_555
O2_4 C14_4 1_555 1_555
N3_4 Ni4_4 1_555 1_555
H1_4 N3_4 1_555 1_555
C30_4 N3_4 1_555 1_555
H39_4 C30_4 1_555 1_555
H40_4 C30_4 1_555 1_555
C31_4 N3_4 1_555 1_555
H41_4 C31_4 1_555 1_555
H42_4 C31_4 1_555 1_555
N7_4 C31_4 1_555 1_555
N8_4 Ni4_4 1_555 1_555
C48_4 N7_4 1_555 1_555
H56_4 C48_4 1_555 1_555
H57_4 C48_4 1_555 1_555
C49_4 N7_4 1_555 1_555
H58_4 C49_4 1_555 1_555
H59_4 C49_4 1_555 1_555
C50_4 C49_4 1_555 1_555
H60_4 C50_4 1_555 1_555
H61_4 C50_4 1_555 1_555
C51_4 N8_4 1_555 1_555
H62_4 C51_4 1_555 1_555
H63_4 C51_4 1_555 1_555
C52_4 N8_4 1_555 1_555
H64_4 C52_4 1_555 1_555
H65_4 C52_4 1_555 1_555
O13_4 Ni4_4 1_555 1_555
N8_4 C48_4 1_555 1_555
C50_4 C51_4 1_555 1_555
O13_4 C44_4 1_555 1_555
O8_4 C44_4 1_555 1_555
Ni1_3 O4_2 1_555 1_555
O3_3 C17_3 1_555 1_555
O4_2 C17_3 1_555 1_555
O5_3 C2_2 1_555 1_555
N4_3 C22_3 1_555 1_555
N6_3 Ni1_3 1_555 1_555
C1_4 C2_2 1_555 1_555
C2_2 H3_2 1_555 1_555
H4_2 C2_2 1_555 1_555
C3_3 C1_4 1_555 1_555
H6_3 C3_3 1_555 1_555
C4_2 O5_3 1_555 1_555
C5_3 C4_2 1_555 1_555
H7_3 C5_3 1_555 1_555
C6_3 C5_3 1_555 1_555
H8_3 C6_3 1_555 1_555
C7_3 C6_3 1_555 1_555
C8_3 C7_3 1_555 1_555
H9_3 C8_3 1_555 1_555
C9_2 C4_2 1_555 1_555
H10_2 C9_2 1_555 1_555
C17_3 C7_3 1_555 1_555
C19_3 N6_3 1_555 1_555
H17_3 C19_3 1_555 1_555
H18_3 C19_3 1_555 1_555
C20_3 N6_3 1_555 1_555
H19_3 C20_3 1_555 1_555
H20_3 C20_3 1_555 1_555
C21_3 C20_3 1_555 1_555
H21_3 C21_3 1_555 1_555
H22_3 C21_3 1_555 1_555
C22_3 N6_3 1_555 1_555
H24_3 C22_3 1_555 1_555
C24_3 N4_3 1_555 1_555
H27_3 C24_3 1_555 1_555
H28_3 C24_3 1_555 1_555
O9_3 C47_3 1_555 1_555
O10_2 C47_3 1_555 1_555
O11_2 C32_3 1_555 1_555
C32_3 C1_4 1_555 1_555
H43_3 C32_3 1_555 1_555
H44_3 C32_3 1_555 1_555
C33_2 C1_4 1_555 1_555
H46_2 C33_2 1_555 1_555
C34_3 O11_2 1_555 1_555
C35_3 C34_3 1_555 1_555
H47_3 C35_3 1_555 1_555
C36_3 C35_3 1_555 1_555
H48_3 C36_3 1_555 1_555
C37_3 C36_3 1_555 1_555
C38_3 C37_3 1_555 1_555
H49_3 C38_3 1_555 1_555
C39_3 C34_3 1_555 1_555
H50_3 C39_3 1_555 1_555
C47_3 C37_3 1_555 1_555
N11_3 Ni1_3 1_555 1_555
C55_3 C19_3 1_555 1_555
H71_3 C55_3 1_555 1_555
H72_3 C55_3 1_555 1_555
H81_3 C60_3 1_555 1_555
H82_3 C60_3 1_555 1_555
Ni3_5 O10_2 1_555 1_555
C8_3 C9_2 1_555 1_555
C21_3 C24_3 1_555 1_555
C38_3 C39_3 1_555 1_555
N11_3 C55_3 1_555 1_555
N11_3 C60_3 1_555 1_555
H82_4 C60_4 1_555 1_555
N4_4 C22_4 1_555 1_555
N6_4 Ni3_6 1_555 1_555
C19_4 N6_4 1_555 1_555
H17_4 C19_4 1_555 1_555
H18_4 C19_4 1_555 1_555
C20_4 N6_4 1_555 1_555
H19_4 C20_4 1_555 1_555
H20_4 C20_4 1_555 1_555
C21_4 C20_4 1_555 1_555
C22_4 N6_4 1_555 1_555
H24_4 C22_4 1_555 1_555
C24_4 N4_4 1_555 1_555
H27_4 C24_4 1_555 1_555
N11_4 Ni3_6 1_555 1_555
C55_4 C19_4 1_555 1_555
H71_4 C55_4 1_555 1_555
H72_4 C55_4 1_555 1_555
C21_4 C24_4 1_555 1_555
N11_4 C55_4 1_555 1_555
N5_3 Ni1_4 1_555 1_555
C18_3 N5_3 1_555 1_555
H15_3 C18_3 1_555 1_555
H16_3 C18_3 1_555 1_555
H25_3 C23_3 1_555 1_555
H26_3 C23_3 1_555 1_555
N10_3 C59_3 1_555 1_555
N12_3 Ni1_4 1_555 1_555
C56_3 C18_3 1_555 1_555
H73_3 C56_3 1_555 1_555
H74_3 C56_3 1_555 1_555
C57_3 N12_3 1_555 1_555
H75_3 C57_3 1_555 1_555
H76_3 C57_3 1_555 1_555
C58_3 C57_3 1_555 1_555
H77_3 C58_3 1_555 1_555
H78_3 C58_3 1_555 1_555
C59_3 N12_3 1_555 1_555
H80_3 C59_3 1_555 1_555
C61_3 N10_3 1_555 1_555
H83_3 C61_3 1_555 1_555
H84_3 C61_3 1_555 1_555
O14_3 Ni1_4 1_555 1_555
N5_3 C23_3 1_555 1_555
N12_3 C56_3 1_555 1_555
C58_3 C61_3 1_555 1_555
N5_4 Ni3_7 1_555 1_555
C18_4 N5_4 1_555 1_555
H15_4 C18_4 1_555 1_555
H16_4 C18_4 1_555 1_555
N10_4 C59_4 1_555 1_555
N12_4 Ni3_7 1_555 1_555
C56_4 C18_4 1_555 1_555
H73_4 C56_4 1_555 1_555
H74_4 C56_4 1_555 1_555
C57_4 N12_4 1_555 1_555
H75_4 C57_4 1_555 1_555
H76_4 C57_4 1_555 1_555
C58_4 C57_4 1_555 1_555
C59_4 N12_4 1_555 1_555
H80_4 C59_4 1_555 1_555
C61_4 N10_4 1_555 1_555
H83_4 C61_4 1_555 1_555
N12_4 C56_4 1_555 1_555
C58_4 C61_4 1_555 1_555
H26_4 C23_4 1_555 1_555
O14_4 Ni3_8 1_555 1_555
O3_4 C17_4 1_555 1_555
O14_3 C17_4 1_555 1_555
O5_4 C2_3 1_555 1_555
C1_5 C2_3 1_555 1_555
C2_3 H3_3 1_555 1_555
H4_3 C2_3 1_555 1_555
C3_4 C1_5 1_555 1_555
H6_4 C3_4 1_555 1_555
C4_3 O5_4 1_555 1_555
C5_4 C4_3 1_555 1_555
H7_4 C5_4 1_555 1_555
C6_4 C5_4 1_555 1_555
H8_4 C6_4 1_555 1_555
C7_4 C6_4 1_555 1_555
C8_4 C7_4 1_555 1_555
H9_4 C8_4 1_555 1_555
C9_3 C4_3 1_555 1_555
H10_3 C9_3 1_555 1_555
C17_4 C7_4 1_555 1_555
O9_4 C47_4 1_555 1_555
O14_4 C47_4 1_555 1_555
O11_3 C32_4 1_555 1_555
C32_4 C1_5 1_555 1_555
H43_4 C32_4 1_555 1_555
H44_4 C32_4 1_555 1_555
C33_3 C1_5 1_555 1_555
H46_3 C33_3 1_555 1_555
C34_4 O11_3 1_555 1_555
C35_4 C34_4 1_555 1_555
H47_4 C35_4 1_555 1_555
C36_4 C35_4 1_555 1_555
H48_4 C36_4 1_555 1_555
C37_4 C36_4 1_555 1_555
C38_4 C37_4 1_555 1_555
H49_4 C38_4 1_555 1_555
C39_4 C34_4 1_555 1_555
H50_4 C39_4 1_555 1_555
C47_4 C37_4 1_555 1_555
C8_4 C9_3 1_555 1_555
C38_4 C39_4 1_555 1_555
H31_4 C26_4 1_555 1_555
H32_4 C26_4 1_555 1_555
C27_4 C26_4 1_555 1_555
H33_4 C27_4 1_555 1_555
H34_4 C27_4 1_555 1_555
H35_4 C28_4 1_555 1_555
H36_4 C28_4 1_555 1_555
C27_4 C28_4 1_555 1_555
C1_6 C2_4 1_555 1_555
C2_4 H3_4 1_555 1_555
H4_4 C2_4 1_555 1_555
C9_4 C4_4 1_555 1_555
H10_4 C9_4 1_555 1_555
O12_4 C33_4 1_555 1_555
C33_4 C1_6 1_555 1_555
H45_4 C33_4 1_555 1_555
H46_4 C33_4 1_555 1_555
C40_4 O12_4 1_555 1_555
C41_4 C40_4 1_555 1_555
H51_4 C41_4 1_555 1_555
C42_4 C41_4 1_555 1_555
H52_4 C42_4 1_555 1_555
C43_4 C42_4 1_555 1_555
C45_4 C43_4 1_555 1_555
H53_4 C45_4 1_555 1_555
C46_4 C40_4 1_555 1_555
H54_4 C46_4 1_555 1_555
C45_4 C46_4 1_555 1_555

#END
