
###############################################################################
#
# This file contains modified crystal structure data generated from the
# MOF subset of the Cambridge Structural Database (CSD) v543 
# hosted by the Cambridge Crystallographic Data Centre (CCDC).
#
# This work is licensed under the Creative Commons
# Attribution-NonCommercial-ShareAlike 4.0 International License.
# To view a copy of this license, visit
# http://creativecommons.org/licenses/by-nc-sa/4.0/
# or send a letter to
# Creative Commons, PO Box 1866, Mountain View, CA 94042, USA.
#
# CIF created using the CSD Python API on 29 September 2022
# The structure has been converted into the P1 space group
# The structure has a 3D framework
# The original CSD entry RUWZIU is in the monoclinic crystal system
# The framework has been calculated to contain at least 10.0% void space
# The void calculation uses a probe of radius 1.32A, grid spacing 0.4
#
###############################################################################

data_RUWZIU
_chemical_formula_moiety         '(C214 H304 N48 Ni17 O48)n'
_symmetry_cell_setting           triclinic
_symmetry_space_group_name_H-M   'P 1'
_symmetry_Int_Tables_number      1
_space_group_name_Hall           'P 1'
loop_
_symmetry_equiv_pos_site_id
_symmetry_equiv_pos_as_xyz
1 x,y,z
_cell_length_a                   37.526(8)
_cell_length_b                   8.8468(18)
_cell_length_c                   29.720(6)
_cell_angle_alpha                90
_cell_angle_beta                 127.61(3)
_cell_angle_gamma                90
_cell_volume                     7816.15
loop_
_atom_site_label
_atom_site_type_symbol
_atom_site_fract_x
_atom_site_fract_y
_atom_site_fract_z
H40 H 0.2802 0.0180 0.0312
H47 H 0.3337 0.0226 0.0183
C32 C 0.28431(19) 0.0352(6) 0.1250(2)
H49 H 0.2592 0.0526 0.0860
H50 H 0.2737 0.0251 0.1472
H51 H 0.3048 0.1189 0.1390
Ni1 Ni 0.2500 0.7500 0.0000
O4 O 0.30148(9) 0.5836(3) 0.04808(11)
H29 H 0.4868 0.0346 0.1894
C15 C 0.41771(12) 0.1839(4) 0.16621(15)
C16 C 0.38174(13) 0.2989(4) 0.07464(16)
H31 H 0.3778 0.3054 0.0406
C17 C 0.35793(12) 0.3968(4) 0.08410(16)
C21 C 0.41126(12) 0.1918(4) 0.11455(15)
H34 H 0.4265 0.1264 0.1071
C23 C 0.39452(14) 0.2814(5) 0.17649(17)
H35 H 0.3990 0.2767 0.2109
C24 C 0.36479(14) 0.3853(5) 0.13595(17)
H36 H 0.3490 0.4488 0.1431
C26 C 0.32596(13) 0.5112(4) 0.03972(17)
O6 O 0.44539(9) 0.0797(3) 0.20785(10)
N7 N 0.24113(11) 0.7391(4) 0.06196(13)
H39 H 0.2204 0.8203 0.0546
N8 N 0.29650(11) 0.9228(4) 0.03946(14)
N9 N 0.30761(12) 0.8956(4) 0.12945(14)
C28 C 0.28290(14) 0.7587(5) 0.12054(17)
H41 H 0.3024 0.6726 0.1301
H42 H 0.2753 0.7588 0.1464
C29 C 0.32871(15) 0.9050(6) 0.10197(18)
H43 H 0.3493 0.9901 0.1177
H44 H 0.3463 0.8141 0.1106
C30 C 0.21815(16) 0.5933(5) 0.05300(19)
H45 H 0.2396 0.5108 0.0678
H46 H 0.2049 0.5938 0.0726
C31 C 0.31846(16) 0.9268(6) 0.0108(2)
H48 H 0.3405 0.8463 0.0253
O10 O 0.69852(9) 0.5836(3) 0.45192(11)
H67 H 0.5132 0.0346 0.3106
C41 C 0.58229(12) 0.1839(4) 0.33379(15)
C42 C 0.61826(13) 0.2989(4) 0.42536(16)
H69 H 0.6222 0.3054 0.4594
C43 C 0.64207(12) 0.3968(4) 0.41590(16)
C47 C 0.58874(12) 0.1918(4) 0.38545(15)
H72 H 0.5735 0.1264 0.3929
O11 O 0.67360(12) 0.5310(4) 0.50190(14)
C49 C 0.60548(14) 0.2814(5) 0.32351(17)
H73 H 0.6010 0.2767 0.2891
C50 C 0.63521(14) 0.3853(5) 0.36405(17)
H74 H 0.6510 0.4488 0.3569
C52 C 0.67404(13) 0.5112(4) 0.46028(17)
O12 O 0.55461(9) 0.0797(3) 0.29215(10)
Ni3 Ni 0.7500 0.7500 0.5000
N1 N 0.74113(11) 0.7609(4) 0.56196(13)
H1 H 0.7204 0.6797 0.5546
N2 N 0.79650(11) 0.5772(4) 0.53946(14)
H2 H 0.7802 0.4820 0.5312
N3 N 0.80761(12) 0.6044(4) 0.62945(14)
C1 C 0.78290(14) 0.7413(5) 0.62054(17)
H3 H 0.8024 0.8274 0.6301
H4 H 0.7753 0.7412 0.6464
C2 C 0.82871(15) 0.5950(6) 0.60197(18)
H5 H 0.8493 0.5099 0.6177
H6 H 0.8463 0.6859 0.6106
C3 C 0.71815(16) 0.9067(5) 0.55300(19)
H7 H 0.7396 0.9892 0.5678
H8 H 0.7049 0.9062 0.5726
C4 C 0.81846(16) 0.5732(6) 0.5108(2)
H9 H 0.8337 0.4774 0.5183
H10 H 0.8405 0.6537 0.5253
C5 C 0.78431(19) 0.4648(6) 0.6250(2)
H11 H 0.7592 0.4474 0.5860
H12 H 0.7737 0.4749 0.6472
H13 H 0.8048 0.3811 0.6390
N7_2 N 0.75887(11) 0.7391(4) 0.43804(13)
H39_2 H 0.7796 0.8203 0.4454
N8_2 N 0.70350(11) 0.9228(4) 0.46054(14)
N9_2 N 0.69239(12) 0.8956(4) 0.37055(14)
C28_2 C 0.71710(14) 0.7587(5) 0.37946(17)
H41_2 H 0.6976 0.6726 0.3699
H42_2 H 0.7247 0.7588 0.3536
C29_2 C 0.67129(15) 0.9050(6) 0.39803(18)
H43_2 H 0.6507 0.9901 0.3823
H44_2 H 0.6537 0.8141 0.3894
C30_2 C 0.78185(16) 0.5933(5) 0.44700(19)
H45_2 H 0.7604 0.5108 0.4322
H46_2 H 0.7951 0.5938 0.4274
C31_2 C 0.68154(16) 0.9268(6) 0.4892(2)
H48_2 H 0.6595 0.8463 0.4747
O14 O 0.80148(9) 0.9164(3) 0.54808(11)
O5 O 0.17360(12) 0.9690(4) 0.00190(14)
O11_2 O 0.82640(12) 0.9690(4) 0.49810(14)
C52_2 C 0.82596(13) 0.9888(4) 0.53972(17)
Ni1_2 Ni 0.2500 0.7500 1.0000
N1_2 N 0.25887(11) 0.7609(4) 0.93804(13)
H1_2 H 0.2796 0.6797 0.9454
N2_2 N 0.20350(11) 0.5772(4) 0.96054(14)
H2_2 H 0.2198 0.4820 0.9688
N3_2 N 0.19239(12) 0.6044(4) 0.87055(14)
C1_2 C 0.21710(14) 0.7413(5) 0.87946(17)
H3_2 H 0.1976 0.8274 0.8699
H4_2 H 0.2247 0.7412 0.8536
C2_2 C 0.17129(15) 0.5950(6) 0.89803(18)
H5_2 H 0.1507 0.5099 0.8823
H6_2 H 0.1537 0.6859 0.8894
C3_2 C 0.28185(16) 0.9067(5) 0.94700(19)
H7_2 H 0.2604 0.9892 0.9322
H8_2 H 0.2951 0.9062 0.9274
C4_2 C 0.18154(16) 0.5732(6) 0.9892(2)
H9_2 H 0.1663 0.4774 0.9817
H10_2 H 0.1595 0.6537 0.9747
C5_2 C 0.21569(19) 0.4648(6) 0.8750(2)
H11_2 H 0.2408 0.4474 0.9140
H12_2 H 0.2263 0.4749 0.8528
H13_2 H 0.1952 0.3811 0.8610
O5_2 O 0.32640(12) 0.5310(4) 0.99810(14)
O14_2 O 0.19852(9) 0.9164(3) 0.95192(11)
C26_2 C 0.17404(13) 0.9888(4) 0.96028(17)
Ni2 Ni 0.5000 0.0000 0.0000
H14 H 0.5829 0.0568 0.0736
C10 C 0.59670(17) 0.2241(6) 0.0067(2)
H24 H 0.5824 0.2661 0.0218
H26 H 0.6280 0.2072 0.0370
O1 O 0.49527(9) 0.6881(3) 0.19101(12)
C11 C 0.5000 0.8792(5) 0.2500
C12 C 0.52778(12) 0.7784(4) 0.23971(15)
H27 H 0.5451 0.8394 0.2322
H28 H 0.5482 0.7148 0.2725
O2 O 0.50766(9) 0.1943(3) 0.04795(11)
O3 O 0.58124(9) 0.2372(3) 0.11302(12)
C13 C 0.52963(13) 0.3729(4) 0.11982(16)
C14 C 0.46914(12) 0.9781(4) 0.19741(14)
H30 H 0.4480 0.9152 0.1648
C18 C 0.56357(13) 0.4420(4) 0.17067(16)
H32 H 0.5934 0.4168 0.1877
C19 C 0.50953(13) 0.5833(4) 0.17138(16)
C20 C 0.55414(13) 0.5482(4) 0.19684(16)
H33 H 0.5773 0.5945 0.2306
C22 C 0.54024(14) 0.2604(4) 0.09120(17)
C25 C 0.48518(14) 0.4101(5) 0.09538(19)
H37 H 0.4620 0.3643 0.0615
C27 C 0.47499(14) 0.5133(5) 0.1204(2)
H38 H 0.4451 0.5368 0.1036
H56 H 0.4815 0.0018 0.0897
H61 H 0.4251 0.1368 0.0066
O7 O 0.50473(9) 0.6881(3) 0.30899(12)
C38 C 0.47222(12) 0.7784(4) 0.26029(15)
H65 H 0.4549 0.8394 0.2678
H66 H 0.4518 0.7148 0.2275
O8 O 0.49234(9) 0.1943(3) 0.45205(11)
O9 O 0.41876(9) 0.2372(3) 0.38698(12)
C39 C 0.47037(13) 0.3729(4) 0.38018(16)
C40 C 0.53086(12) 0.9781(4) 0.30259(14)
H68 H 0.5520 0.9152 0.3352
C44 C 0.43643(13) 0.4420(4) 0.32933(16)
H70 H 0.4066 0.4168 0.3123
C45 C 0.49047(13) 0.5833(4) 0.32862(16)
C46 C 0.44586(13) 0.5482(4) 0.30316(16)
H71 H 0.4227 0.5945 0.2694
C48 C 0.45976(14) 0.2604(4) 0.40880(17)
C51 C 0.51482(14) 0.4101(5) 0.40462(19)
H75 H 0.5380 0.3643 0.4385
C53 C 0.52501(14) 0.5133(5) 0.3796(2)
H76 H 0.5549 0.5368 0.3964
Ni4 Ni 0.5000 -0.0000 0.5000
Ni2_2 Ni 0.5000 -0.0000 1.0000
N5 N 0.49785(11) 0.1423(4) 0.94341(13)
H15 H 0.5074 0.2429 0.9608
N6 N 0.57524(13) 0.0808(4) 0.97848(16)
C6 C 0.44976(15) 0.1523(5) 0.89348(18)
H16 H 0.4412 0.0633 0.8698
H17 H 0.4449 0.2405 0.8710
C7 C 0.52873(16) 0.0947(5) 0.92980(18)
H19 H 0.5265 0.1679 0.9039
H25 H 0.5938 0.2933 0.9797
N10 N 0.43135(11) 0.0317(4) 0.95116(13)
C35 C 0.42151(15) 0.1635(5) 0.91422(19)
H58 H 0.3898 0.1647 0.8820
H59 H 0.4285 0.2565 0.9354
C36 C 0.41343(15) 0.0449(5) 0.9842(2)
H60 H 0.3809 0.0539 0.9578
H14_2 H 0.4171 0.0568 0.4264
N5_2 N 0.50215(11) 0.1423(4) 0.55659(13)
H15_2 H 0.4926 0.2429 0.5392
N6_2 N 0.42476(13) 0.0808(4) 0.52152(16)
C6_2 C 0.55024(15) 0.1523(5) 0.60652(18)
H16_2 H 0.5588 0.0633 0.6302
H17_2 H 0.5551 0.2405 0.6290
C7_2 C 0.47127(16) 0.0947(5) 0.57020(18)
H19_2 H 0.4735 0.1679 0.5961
C10_2 C 0.40330(17) 0.2241(6) 0.4933(2)
H24_2 H 0.4176 0.2661 0.4782
H25_2 H 0.4062 0.2933 0.5203
H26_2 H 0.3720 0.2072 0.4630
N10_2 N 0.56865(11) 0.0317(4) 0.54884(13)
H56_2 H 0.5185 0.0018 0.4103
C35_2 C 0.57849(15) 0.1635(5) 0.58578(19)
H58_2 H 0.6102 0.1647 0.6180
H59_2 H 0.5715 0.2565 0.5646
C36_2 C 0.58657(15) 0.0449(5) 0.5158(2)
H60_2 H 0.6191 0.0539 0.5422
H61_2 H 0.5749 0.1368 0.4934
Ni2_3 Ni 0.5000 1.0000 0.0000
N4 N 0.56865(11) 0.9683(4) 0.04884(13)
C8 C 0.57849(15) 0.8365(5) 0.08578(19)
H20 H 0.6102 0.8353 0.1180
H21 H 0.5715 0.7435 0.0646
C9 C 0.58657(15) 0.9551(5) 0.0158(2)
H22 H 0.6191 0.9461 0.0422
N11 N 0.50215(11) 0.8577(4) 0.05659(13)
H53 H 0.4926 0.7571 0.0392
N12 N 0.42476(13) 0.9192(4) 0.02152(16)
C33 C 0.55024(15) 0.8477(5) 0.10652(18)
H54 H 0.5588 0.9367 0.1302
H55 H 0.5551 0.7595 0.1290
C34 C 0.47127(16) 0.9053(5) 0.07020(18)
H57 H 0.4735 0.8321 0.0961
H63 H 0.4062 0.7067 0.0203
Ni4_2 Ni 0.5000 1.0000 0.5000
Ni2_4 Ni 0.5000 1.0000 1.0000
H18 H 0.5185 0.9982 0.9103
H23 H 0.5749 0.8632 0.9934
H52 H 0.4171 0.9432 0.9264
C37 C 0.40330(17) 0.7759(6) 0.9933(2)
H62 H 0.4176 0.7339 0.9782
H64 H 0.3720 0.7928 0.9630
O13 O 0.49234(9) 0.8057(3) 0.95205(11)
N4_2 N 0.43135(11) 0.9683(4) 0.45116(13)
H18_2 H 0.4815 0.9982 0.5897
C8_2 C 0.42151(15) 0.8365(5) 0.41422(19)
H20_2 H 0.3898 0.8353 0.3820
H21_2 H 0.4285 0.7435 0.4354
C9_2 C 0.41343(15) 0.9551(5) 0.4842(2)
H22_2 H 0.3809 0.9461 0.4578
H23_2 H 0.4251 0.8632 0.5066
H52_2 H 0.5829 0.9432 0.5736
N11_2 N 0.49785(11) 0.8577(4) 0.44341(13)
H53_2 H 0.5074 0.7571 0.4608
N12_2 N 0.57524(13) 0.9192(4) 0.47848(16)
C33_2 C 0.44976(15) 0.8477(5) 0.39348(18)
H54_2 H 0.4412 0.9367 0.3698
H55_2 H 0.4449 0.7595 0.3710
C34_2 C 0.52873(16) 0.9053(5) 0.42980(18)
H57_2 H 0.5265 0.8321 0.4039
C37_2 C 0.59670(17) 0.7759(6) 0.5067(2)
H62_2 H 0.5824 0.7339 0.5218
H63_2 H 0.5938 0.7067 0.4797
H64_2 H 0.6280 0.7928 0.5370
O13_2 O 0.50766(9) 0.8057(3) 0.54795(11)
O1_2 O 0.50473(9) 0.3119(3) 0.80899(12)
C11_2 C 0.5000 0.1208(5) 0.7500
C12_2 C 0.47222(12) 0.2216(4) 0.76029(15)
H27_2 H 0.4549 0.1606 0.7678
H28_2 H 0.4518 0.2852 0.7275
O3_2 O 0.41876(9) 0.7628(3) 0.88698(12)
C13_2 C 0.47037(13) 0.6271(4) 0.88018(16)
C14_2 C 0.53086(12) 0.0219(4) 0.80259(14)
H30_2 H 0.5520 0.0848 0.8352
C18_2 C 0.43643(13) 0.5580(4) 0.82933(16)
H32_2 H 0.4066 0.5832 0.8123
C19_2 C 0.49047(13) 0.4167(4) 0.82862(16)
C20_2 C 0.44586(13) 0.4518(4) 0.80316(16)
H33_2 H 0.4227 0.4055 0.7694
C22_2 C 0.45976(14) 0.7396(4) 0.90880(17)
C25_2 C 0.51482(14) 0.5899(5) 0.90462(19)
H37_2 H 0.5380 0.6357 0.9385
C27_2 C 0.52501(14) 0.4867(5) 0.8796(2)
H38_2 H 0.5549 0.4632 0.8964
O7_2 O 0.49527(9) 0.3119(3) 0.69101(12)
C38_2 C 0.52778(12) 0.2216(4) 0.73971(15)
H65_2 H 0.5451 0.1606 0.7322
H66_2 H 0.5482 0.2852 0.7725
O9_2 O 0.58124(9) 0.7628(3) 0.61302(12)
C39_2 C 0.52963(13) 0.6271(4) 0.61982(16)
C40_2 C 0.46914(12) 0.0219(4) 0.69741(14)
H68_2 H 0.4480 0.0848 0.6648
C44_2 C 0.56357(13) 0.5580(4) 0.67067(16)
H70_2 H 0.5934 0.5832 0.6877
C45_2 C 0.50953(13) 0.4167(4) 0.67138(16)
C46_2 C 0.55414(13) 0.4518(4) 0.69684(16)
H71_2 H 0.5773 0.4055 0.7306
C48_2 C 0.54024(14) 0.7396(4) 0.59120(17)
C51_2 C 0.48518(14) 0.5899(5) 0.59538(19)
H75_2 H 0.4620 0.6357 0.5615
C53_2 C 0.47499(14) 0.4867(5) 0.6204(2)
H76_2 H 0.4451 0.4632 0.6036
H40_2 H 0.7198 0.0180 0.4688
H47_2 H 0.6663 0.0226 0.4817
C32_2 C 0.71569(19) 0.0352(6) 0.3750(2)
H49_2 H 0.7408 0.0526 0.4140
H50_2 H 0.7263 0.0251 0.3528
H51_2 H 0.6952 0.1189 0.3610
C11_3 C 1.0000 0.6208(5) 0.7500
C12_3 C 0.97222(12) 0.7216(4) 0.76029(15)
H27_3 H 0.9549 0.6606 0.7678
H28_3 H 0.9518 0.7852 0.7275
C19_3 C 0.99047(13) 0.9167(4) 0.82862(16)
C20_3 C 0.94586(13) 0.9518(4) 0.80316(16)
H33_3 H 0.9227 0.9055 0.7694
O7_3 O 0.99527(9) 0.8119(3) 0.69101(12)
C40_3 C 0.96914(12) 0.5219(4) 0.69741(14)
H67_2 H 0.9868 0.4654 0.6894
H68_3 H 0.9480 0.5848 0.6648
C41_2 C 0.91771(12) 0.3161(4) 0.66621(15)
C42_2 C 0.88174(13) 0.2011(4) 0.57464(16)
H69_2 H 0.8778 0.1946 0.5406
C43_2 C 0.85793(12) 0.1032(4) 0.58410(16)
C47_2 C 0.91126(12) 0.3082(4) 0.61455(15)
H72_2 H 0.9265 0.3736 0.6071
C49_2 C 0.89452(14) 0.2186(5) 0.67649(17)
H73_2 H 0.8990 0.2233 0.7109
C50_2 C 0.86479(14) 0.1147(5) 0.63595(17)
H74_2 H 0.8490 0.0512 0.6431
C53_3 C 0.97499(14) 0.9867(5) 0.6204(2)
H76_3 H 0.9451 0.9632 0.6036
O12_2 O 0.94539(9) 0.4203(3) 0.70785(10)
O10_2 O 0.19852(9) 0.0836(3) 0.45192(11)
O11_3 O 0.17360(12) 0.0310(4) 0.50190(14)
C52_3 C 0.17404(13) 0.0112(4) 0.46028(17)
Ni3_2 Ni 0.2500 0.2500 0.5000
Ni1_3 Ni 0.7500 0.2500 1.0000
N1_3 N 0.75887(11) 0.2609(4) 0.93804(13)
H1_3 H 0.7796 0.1797 0.9454
N2_3 N 0.70350(11) 0.0772(4) 0.96054(14)
N3_3 N 0.69239(12) 0.1044(4) 0.87055(14)
C1_3 C 0.71710(14) 0.2413(5) 0.87946(17)
H3_3 H 0.6976 0.3274 0.8699
H4_3 H 0.7247 0.2412 0.8536
C2_3 C 0.67129(15) 0.0950(6) 0.89803(18)
H5_3 H 0.6507 0.0099 0.8823
H6_3 H 0.6537 0.1859 0.8894
C3_3 C 0.78185(16) 0.4067(5) 0.94700(19)
H7_3 H 0.7604 0.4892 0.9322
H8_3 H 0.7951 0.4062 0.9274
C4_3 C 0.68154(16) 0.0732(6) 0.9892(2)
H10_3 H 0.6595 0.1537 0.9747
O5_3 O 0.82640(12) 0.0310(4) 0.99810(14)
O14_3 O 0.69852(9) 0.4164(3) 0.95192(11)
N1_4 N 0.24113(11) 0.2609(4) 0.56196(13)
H1_4 H 0.2204 0.1797 0.5546
N2_4 N 0.29650(11) 0.0772(4) 0.53946(14)
N3_4 N 0.30761(12) 0.1044(4) 0.62945(14)
C1_4 C 0.28290(14) 0.2413(5) 0.62054(17)
H3_4 H 0.3024 0.3274 0.6301
H4_4 H 0.2753 0.2412 0.6464
C2_4 C 0.32871(15) 0.0950(6) 0.60197(18)
H5_4 H 0.3493 0.0099 0.6177
H6_4 H 0.3463 0.1859 0.6106
C3_4 C 0.21815(16) 0.4067(5) 0.55300(19)
H7_4 H 0.2396 0.4892 0.5678
H8_4 H 0.2049 0.4062 0.5726
C4_4 C 0.31846(16) 0.0732(6) 0.5108(2)
H10_4 H 0.3405 0.1537 0.5253
N7_3 N 0.25887(11) 0.2391(4) 0.43804(13)
H39_3 H 0.2796 0.3203 0.4454
N8_3 N 0.20350(11) 0.4228(4) 0.46054(14)
H40_3 H 0.2198 0.5180 0.4688
N9_3 N 0.19239(12) 0.3956(4) 0.37055(14)
C28_3 C 0.21710(14) 0.2587(5) 0.37946(17)
H41_3 H 0.1976 0.1726 0.3699
H42_3 H 0.2247 0.2588 0.3536
C29_3 C 0.17129(15) 0.4050(6) 0.39803(18)
H43_3 H 0.1507 0.4901 0.3823
H44_3 H 0.1537 0.3141 0.3894
C30_3 C 0.28185(16) 0.0933(5) 0.44700(19)
H45_3 H 0.2604 0.0108 0.4322
H46_3 H 0.2951 0.0938 0.4274
C31_3 C 0.18154(16) 0.4268(6) 0.4892(2)
H47_3 H 0.1663 0.5226 0.4817
H48_3 H 0.1595 0.3463 0.4747
C32_3 C 0.21569(19) 0.5352(6) 0.3750(2)
H49_3 H 0.2408 0.5526 0.4140
H50_3 H 0.2263 0.5251 0.3528
H51_3 H 0.1952 0.6189 0.3610
O14_4 O 0.30148(9) 0.4164(3) 0.54808(11)
H29_2 H 0.5132 0.9654 0.8106
C15_2 C 0.58229(12) 0.8161(4) 0.83379(15)
C16_2 C 0.61826(13) 0.7011(4) 0.92536(16)
H31_2 H 0.6222 0.6946 0.9594
C17_2 C 0.64207(12) 0.6032(4) 0.91590(16)
C21_2 C 0.58874(12) 0.8082(4) 0.88545(15)
H34_2 H 0.5735 0.8736 0.8929
C23_2 C 0.60548(14) 0.7186(5) 0.82351(17)
H35_2 H 0.6010 0.7233 0.7891
C24_2 C 0.63521(14) 0.6147(5) 0.86405(17)
H36_2 H 0.6510 0.5512 0.8569
C26_3 C 0.67404(13) 0.4888(4) 0.96028(17)
O6_2 O 0.55461(9) 0.9203(3) 0.79215(10)
H67_3 H 0.4868 0.9654 0.6894
C41_3 C 0.41771(12) 0.8161(4) 0.66621(15)
C42_3 C 0.38174(13) 0.7011(4) 0.57464(16)
H69_3 H 0.3778 0.6946 0.5406
C43_3 C 0.35793(12) 0.6032(4) 0.58410(16)
C47_3 C 0.41126(12) 0.8082(4) 0.61455(15)
H72_3 H 0.4265 0.8736 0.6071
O11_4 O 0.32640(12) 0.4690(4) 0.49810(14)
C49_3 C 0.39452(14) 0.7186(5) 0.67649(17)
H73_3 H 0.3990 0.7233 0.7109
C50_3 C 0.36479(14) 0.6147(5) 0.63595(17)
H74_3 H 0.3490 0.5512 0.6431
C52_4 C 0.32596(13) 0.4888(4) 0.53972(17)
O12_3 O 0.44539(9) 0.9203(3) 0.70785(10)
C11_4 C 0.0000 0.3792(5) 0.2500
C12_4 C 0.02778(12) 0.2784(4) 0.23971(15)
H27_4 H 0.0451 0.3394 0.2322
H28_4 H 0.0482 0.2148 0.2725
C19_4 C 0.00953(13) 0.0833(4) 0.17138(16)
C20_4 C 0.05414(13) 0.0482(4) 0.19684(16)
H33_4 H 0.0773 0.0945 0.2306
O7_4 O 0.00473(9) 0.1881(3) 0.30899(12)
C40_4 C 0.03086(12) 0.4781(4) 0.30259(14)
H67_4 H 0.0132 0.5346 0.3106
H68_4 H 0.0520 0.4152 0.3352
C41_4 C 0.08229(12) 0.6839(4) 0.33379(15)
C42_4 C 0.11826(13) 0.7989(4) 0.42536(16)
H69_4 H 0.1222 0.8054 0.4594
C43_4 C 0.14207(12) 0.8968(4) 0.41590(16)
C47_4 C 0.08874(12) 0.6918(4) 0.38545(15)
H72_4 H 0.0735 0.6264 0.3929
C49_4 C 0.10548(14) 0.7814(5) 0.32351(17)
H73_4 H 0.1010 0.7767 0.2891
C50_4 C 0.13521(14) 0.8853(5) 0.36405(17)
H74_4 H 0.1510 0.9488 0.3569
C53_4 C 0.02501(14) 0.0133(5) 0.3796(2)
H76_4 H 0.0549 0.0368 0.3964
O12_4 O 0.05461(9) 0.5797(3) 0.29215(10)
H2_3 H 0.2802 0.9820 0.5312
H9_3 H 0.3337 0.9774 0.5183
C5_3 C 0.28431(19) 0.9648(6) 0.6250(2)
H11_3 H 0.2592 0.9474 0.5860
H12_3 H 0.2737 0.9749 0.6472
H13_3 H 0.3048 0.8811 0.6390
Ni2_5 Ni 0.0000 0.5000 0.0000
N4_3 N 0.06865(11) 0.4683(4) 0.04884(13)
H14_3 H 0.0829 0.5568 0.0736
C8_3 C 0.07849(15) 0.3365(5) 0.08578(19)
H20_3 H 0.1102 0.3353 0.1180
H21_3 H 0.0715 0.2435 0.0646
C9_3 C 0.08657(15) 0.4551(5) 0.0158(2)
H22_3 H 0.1191 0.4461 0.0422
C10_3 C 0.09670(17) 0.7241(6) 0.0067(2)
H24_3 H 0.0824 0.7661 0.0218
H26_3 H 0.1280 0.7072 0.0370
O2_2 O 0.00766(9) 0.6943(3) 0.04795(11)
O3_3 O 0.08124(9) 0.7372(3) 0.11302(12)
C13_3 C 0.02963(13) 0.8729(4) 0.11982(16)
C18_3 C 0.06357(13) 0.9420(4) 0.17067(16)
H32_3 H 0.0934 0.9168 0.1877
C22_3 C 0.04024(14) 0.7604(4) 0.09120(17)
N11_3 N 0.00215(11) 0.3577(4) 0.05659(13)
C33_3 C 0.05024(15) 0.3477(5) 0.10652(18)
H54_3 H 0.0588 0.4367 0.1302
H55_3 H 0.0551 0.2595 0.1290
C51_3 C 0.01482(14) 0.9101(5) 0.40462(19)
H75_3 H 0.0380 0.8643 0.4385
Ni4_3 Ni 0.0000 0.5000 0.5000
Ni2_6 Ni 0.0000 0.5000 1.0000
H15_3 H 0.0074 0.7429 0.9608
N6_3 N 0.07524(13) 0.5808(4) 0.97848(16)
C7_3 C 0.02873(16) 0.5947(5) 0.92980(18)
H18_3 H 0.0185 0.4982 0.9103
H19_3 H 0.0265 0.6679 0.9039
H23_3 H 0.0749 0.3632 0.9934
H25_3 H 0.0938 0.7933 0.9797
N5_3 N 0.00215(11) 0.6423(4) 0.55659(13)
C6_3 C 0.05024(15) 0.6523(5) 0.60652(18)
H16_3 H 0.0588 0.5633 0.6302
H17_3 H 0.0551 0.7405 0.6290
N10_3 N 0.06865(11) 0.5317(4) 0.54884(13)
H52_3 H 0.0829 0.4432 0.5736
H53_3 H 0.0074 0.2571 0.4608
N12_3 N 0.07524(13) 0.4192(4) 0.47848(16)
C34_3 C 0.02873(16) 0.4053(5) 0.42980(18)
H56_3 H 0.0185 0.5018 0.4103
H57_3 H 0.0265 0.3321 0.4039
C35_3 C 0.07849(15) 0.6635(5) 0.58578(19)
H58_3 H 0.1102 0.6647 0.6180
H59_3 H 0.0715 0.7565 0.5646
C36_3 C 0.08657(15) 0.5449(5) 0.5158(2)
H60_3 H 0.1191 0.5539 0.5422
H61_3 H 0.0749 0.6368 0.4934
C37_3 C 0.09670(17) 0.2759(6) 0.5067(2)
H62_3 H 0.0824 0.2339 0.5218
H63_3 H 0.0938 0.2067 0.4797
H64_3 H 0.1280 0.2928 0.5370
O13_3 O 0.00766(9) 0.3057(3) 0.54795(11)
C25_3 C 0.01482(14) 0.0899(5) 0.90462(19)
H37_3 H 0.0380 0.1357 0.9385
O9_3 O 0.08124(9) 0.2628(3) 0.61302(12)
C39_3 C 0.02963(13) 0.1271(4) 0.61982(16)
C44_3 C 0.06357(13) 0.0580(4) 0.67067(16)
H70_3 H 0.0934 0.0832 0.6877
C48_3 C 0.04024(14) 0.2396(4) 0.59120(17)
Ni1_4 Ni 0.7500 0.2500 0.0000
O4_2 O 0.80148(9) 0.0836(3) 0.04808(11)
C26_4 C 0.82596(13) 0.0112(4) 0.03972(17)
N7_4 N 0.74113(11) 0.2391(4) 0.06196(13)
H39_4 H 0.7204 0.3203 0.0546
N8_4 N 0.79650(11) 0.4228(4) 0.03946(14)
H40_4 H 0.7802 0.5180 0.0312
N9_4 N 0.80761(12) 0.3956(4) 0.12945(14)
C28_4 C 0.78290(14) 0.2587(5) 0.12054(17)
H41_4 H 0.8024 0.1726 0.1301
H42_4 H 0.7753 0.2588 0.1464
C29_4 C 0.82871(15) 0.4050(6) 0.10197(18)
H43_4 H 0.8493 0.4901 0.1177
H44_4 H 0.8463 0.3141 0.1106
C30_4 C 0.71815(16) 0.0933(5) 0.05300(19)
H45_4 H 0.7396 0.0108 0.0678
H46_4 H 0.7049 0.0938 0.0726
C31_4 C 0.81846(16) 0.4268(6) 0.0108(2)
H47_4 H 0.8337 0.5226 0.0183
H48_4 H 0.8405 0.3463 0.0253
C32_4 C 0.78431(19) 0.5352(6) 0.1250(2)
H49_4 H 0.7592 0.5526 0.0860
H50_4 H 0.7737 0.5251 0.1472
H51_4 H 0.8048 0.6189 0.1390
O5_4 O 0.67360(12) 0.4690(4) 0.00190(14)
O1_3 O 0.99527(9) 0.1881(3) 0.19101(12)
C11_5 C 1.0000 0.3792(5) 0.2500
C14_3 C 0.96914(12) 0.4781(4) 0.19741(14)
H29_3 H 0.9868 0.5346 0.1894
H30_3 H 0.9480 0.4152 0.1648
C15_3 C 0.91771(12) 0.6839(4) 0.16621(15)
C16_3 C 0.88174(13) 0.7989(4) 0.07464(16)
H31_3 H 0.8778 0.8054 0.0406
C17_3 C 0.85793(12) 0.8968(4) 0.08410(16)
C21_3 C 0.91126(12) 0.6918(4) 0.11455(15)
H34_3 H 0.9265 0.6264 0.1071
C23_3 C 0.89452(14) 0.7814(5) 0.17649(17)
H35_3 H 0.8990 0.7767 0.2109
C24_3 C 0.86479(14) 0.8853(5) 0.13595(17)
H36_3 H 0.8490 0.9488 0.1431
C27_3 C 0.97499(14) 0.0133(5) 0.1204(2)
H38_3 H 0.9451 0.0368 0.1036
O6_3 O 0.94539(9) 0.5797(3) 0.20785(10)
C38_3 C 0.97222(12) 0.2784(4) 0.26029(15)
H65_3 H 0.9549 0.3394 0.2678
H66_3 H 0.9518 0.2148 0.2275
C45_3 C 0.99047(13) 0.0833(4) 0.32862(16)
C46_3 C 0.94586(13) 0.0482(4) 0.30316(16)
H71_3 H 0.9227 0.0945 0.2694
H2_4 H 0.7198 0.9820 0.9688
H9_4 H 0.6663 0.9774 0.9817
C5_4 C 0.71569(19) 0.9648(6) 0.8750(2)
H11_4 H 0.7408 0.9474 0.9140
H12_4 H 0.7263 0.9749 0.8528
H13_4 H 0.6952 0.8811 0.8610
Ni2_7 Ni 1.0000 0.5000 0.0000
C25_4 C 0.98518(14) 0.9101(5) 0.09538(19)
H37_4 H 0.9620 0.8643 0.0615
H53_4 H 0.9926 0.2571 0.0392
N12_4 N 0.92476(13) 0.4192(4) 0.02152(16)
C34_4 C 0.97127(16) 0.4053(5) 0.07020(18)
H56_4 H 0.9815 0.5018 0.0897
H57_4 H 0.9735 0.3321 0.0961
H61_4 H 0.9251 0.6368 0.0066
H63_4 H 0.9062 0.2067 0.0203
O8_2 O 0.99234(9) 0.6943(3) 0.45205(11)
O9_4 O 0.91876(9) 0.7372(3) 0.38698(12)
C39_4 C 0.97037(13) 0.8729(4) 0.38018(16)
C44_4 C 0.93643(13) 0.9420(4) 0.32933(16)
H70_4 H 0.9066 0.9168 0.3123
C48_4 C 0.95976(14) 0.7604(4) 0.40880(17)
Ni4_4 Ni 1.0000 0.5000 0.5000
Ni2_8 Ni 1.0000 0.5000 1.0000
N5_4 N 0.99785(11) 0.6423(4) 0.94341(13)
C6_4 C 0.94976(15) 0.6523(5) 0.89348(18)
H16_4 H 0.9412 0.5633 0.8698
H17_4 H 0.9449 0.7405 0.8710
N10_4 N 0.93135(11) 0.5317(4) 0.95116(13)
H52_4 H 0.9171 0.4432 0.9264
C35_4 C 0.92151(15) 0.6635(5) 0.91422(19)
H58_4 H 0.8898 0.6647 0.8820
H59_4 H 0.9285 0.7565 0.9354
C36_4 C 0.91343(15) 0.5449(5) 0.9842(2)
H60_4 H 0.8809 0.5539 0.9578
C37_4 C 0.90330(17) 0.2759(6) 0.9933(2)
H62_4 H 0.9176 0.2339 0.9782
H64_4 H 0.8720 0.2928 0.9630
O13_4 O 0.99234(9) 0.3057(3) 0.95205(11)
N4_4 N 0.93135(11) 0.4683(4) 0.45116(13)
H14_4 H 0.9171 0.5568 0.4264
H15_4 H 0.9926 0.7429 0.5392
N6_4 N 0.92476(13) 0.5808(4) 0.52152(16)
C7_4 C 0.97127(16) 0.5947(5) 0.57020(18)
H18_4 H 0.9815 0.4982 0.5897
H19_4 H 0.9735 0.6679 0.5961
C8_4 C 0.92151(15) 0.3365(5) 0.41422(19)
H20_4 H 0.8898 0.3353 0.3820
H21_4 H 0.9285 0.2435 0.4354
C9_4 C 0.91343(15) 0.4551(5) 0.4842(2)
H22_4 H 0.8809 0.4461 0.4578
H23_4 H 0.9251 0.3632 0.5066
C10_4 C 0.90330(17) 0.7241(6) 0.4933(2)
H24_4 H 0.9176 0.7661 0.4782
H25_4 H 0.9062 0.7933 0.5203
H26_4 H 0.8720 0.7072 0.4630
N11_4 N 0.99785(11) 0.3577(4) 0.44341(13)
C33_4 C 0.94976(15) 0.3477(5) 0.39348(18)
H54_4 H 0.9412 0.4367 0.3698
H55_4 H 0.9449 0.2595 0.3710
O3_4 O 0.91876(9) 0.2628(3) 0.88698(12)
C13_4 C 0.97037(13) 0.1271(4) 0.88018(16)
C18_4 C 0.93643(13) 0.0580(4) 0.82933(16)
H32_4 H 0.9066 0.0832 0.8123
C22_4 C 0.95976(14) 0.2396(4) 0.90880(17)
C51_4 C 0.98518(14) 0.0899(5) 0.59538(19)
H75_4 H 0.9620 0.1357 0.5615
O1_4 O 0.00473(9) 0.8119(3) 0.80899(12)
C11_6 C 0.0000 0.6208(5) 0.7500
C14_4 C 0.03086(12) 0.5219(4) 0.80259(14)
H29_4 H 0.0132 0.4654 0.8106
H30_4 H 0.0520 0.5848 0.8352
C15_4 C 0.08229(12) 0.3161(4) 0.83379(15)
C16_4 C 0.11826(13) 0.2011(4) 0.92536(16)
H31_4 H 0.1222 0.1946 0.9594
C17_4 C 0.14207(12) 0.1032(4) 0.91590(16)
C21_4 C 0.08874(12) 0.3082(4) 0.88545(15)
H34_4 H 0.0735 0.3736 0.8929
C23_4 C 0.10548(14) 0.2186(5) 0.82351(17)
H35_4 H 0.1010 0.2233 0.7891
C24_4 C 0.13521(14) 0.1147(5) 0.86405(17)
H36_4 H 0.1510 0.0512 0.8569
C27_4 C 0.02501(14) 0.9867(5) 0.8796(2)
H38_4 H 0.0549 0.9632 0.8964
O6_4 O 0.05461(9) 0.4203(3) 0.79215(10)
C38_4 C 0.02778(12) 0.7216(4) 0.73971(15)
H65_4 H 0.0451 0.6606 0.7322
H66_4 H 0.0482 0.7852 0.7725
C45_4 C 0.00953(13) 0.9167(4) 0.67138(16)
C46_4 C 0.05414(13) 0.9518(4) 0.69684(16)
H71_4 H 0.0773 0.9055 0.7306
loop_
_geom_bond_atom_site_label_1
_geom_bond_atom_site_label_2
_geom_bond_site_symmetry_1
_geom_bond_site_symmetry_2
H49 C32 1_555 1_555
H50 C32 1_555 1_555
H51 C32 1_555 1_555
O4 Ni1 1_555 1_555
C15 C21 1_555 1_555
C16 H31 1_555 1_555
C17 C16 1_555 1_555
C21 C16 1_555 1_555
H34 C21 1_555 1_555
C23 C15 1_555 1_555
H35 C23 1_555 1_555
C24 C17 1_555 1_555
H36 C24 1_555 1_555
C26 O4 1_555 1_555
N7 Ni1 1_555 1_555
H39 N7 1_555 1_555
N8 Ni1 1_555 1_555
N9 C28 1_555 1_555
C28 N7 1_555 1_555
H41 C28 1_555 1_555
H42 C28 1_555 1_555
C29 N8 1_555 1_555
H43 C29 1_555 1_555
H44 C29 1_555 1_555
H45 C30 1_555 1_555
H46 C30 1_555 1_555
H48 C31 1_555 1_555
O10 C52 1_555 1_555
C41 C47 1_555 1_555
C42 H69 1_555 1_555
C43 C42 1_555 1_555
C47 C42 1_555 1_555
H72 C47 1_555 1_555
O11 C52 1_555 1_555
C49 C41 1_555 1_555
H73 C49 1_555 1_555
C50 C43 1_555 1_555
H74 C50 1_555 1_555
C52 C43 1_555 1_555
Ni3 O10 1_555 1_555
C15 O6 1_555 1_555
C17 C26 1_555 1_555
C23 C24 1_555 1_555
N7 C30 1_555 1_555
N8 C31 1_555 1_555
N9 C29 1_555 1_555
C41 O12 1_555 1_555
C49 C50 1_555 1_555
Ni3 N1 1_555 1_555
N1 H1 1_555 1_555
N2 Ni3 1_555 1_555
H2 N2 1_555 1_555
N3 C1 1_555 1_555
C1 N1 1_555 1_555
H3 C1 1_555 1_555
H4 C1 1_555 1_555
C2 N2 1_555 1_555
H5 C2 1_555 1_555
H6 C2 1_555 1_555
C3 N1 1_555 1_555
H7 C3 1_555 1_555
H8 C3 1_555 1_555
C4 N2 1_555 1_555
H9 C4 1_555 1_555
H10 C4 1_555 1_555
C5 N3 1_555 1_555
H11 C5 1_555 1_555
H12 C5 1_555 1_555
H13 C5 1_555 1_555
N7_2 Ni3 1_555 1_555
H39_2 N7_2 1_555 1_555
N8_2 Ni3 1_555 1_555
N9_2 C28_2 1_555 1_555
C28_2 N7_2 1_555 1_555
H41_2 C28_2 1_555 1_555
H42_2 C28_2 1_555 1_555
C29_2 N8_2 1_555 1_555
H43_2 C29_2 1_555 1_555
H44_2 C29_2 1_555 1_555
C30_2 C4 1_555 1_555
H45_2 C30_2 1_555 1_555
H46_2 C30_2 1_555 1_555
C31_2 C3 1_555 1_555
H48_2 C31_2 1_555 1_555
O14 Ni3 1_555 1_555
N3 C2 1_555 1_555
N7_2 C30_2 1_555 1_555
N8_2 C31_2 1_555 1_555
N9_2 C29_2 1_555 1_555
O14 C52_2 1_555 1_555
O11_2 C52_2 1_555 1_555
Ni1_2 N1_2 1_555 1_555
N1_2 H1_2 1_555 1_555
N2_2 Ni1_2 1_555 1_555
H2_2 N2_2 1_555 1_555
N3_2 C1_2 1_555 1_555
C1_2 N1_2 1_555 1_555
H3_2 C1_2 1_555 1_555
H4_2 C1_2 1_555 1_555
C2_2 N2_2 1_555 1_555
H5_2 C2_2 1_555 1_555
H6_2 C2_2 1_555 1_555
C3_2 N1_2 1_555 1_555
H7_2 C3_2 1_555 1_555
H8_2 C3_2 1_555 1_555
C4_2 N2_2 1_555 1_555
H9_2 C4_2 1_555 1_555
H10_2 C4_2 1_555 1_555
C5_2 N3_2 1_555 1_555
H11_2 C5_2 1_555 1_555
H12_2 C5_2 1_555 1_555
H13_2 C5_2 1_555 1_555
O14_2 Ni1_2 1_555 1_555
N3_2 C2_2 1_555 1_555
C26_2 O14_2 1_555 1_555
H24 C10 1_555 1_555
H26 C10 1_555 1_555
O1 C12 1_555 1_555
C11 C12 1_555 1_555
C12 H27 1_555 1_555
H28 C12 1_555 1_555
O2 Ni2 1_555 1_555
O3 C22 1_555 1_555
C13 C18 1_555 1_555
C14 C11 1_555 1_555
H30 C14 1_555 1_555
C18 H32 1_555 1_555
C19 O1 1_555 1_555
C20 C18 1_555 1_555
H33 C20 1_555 1_555
C22 O2 1_555 1_555
C25 C13 1_555 1_555
H37 C25 1_555 1_555
C27 C19 1_555 1_555
H38 C27 1_555 1_555
O7 C38 1_555 1_555
C38 C11 1_555 1_555
H65 C38 1_555 1_555
H66 C38 1_555 1_555
O8 C48 1_555 1_555
O9 C48 1_555 1_555
C39 C44 1_555 1_555
C40 C11 1_555 1_555
H68 C40 1_555 1_555
C44 H70 1_555 1_555
C45 O7 1_555 1_555
C46 C44 1_555 1_555
H71 C46 1_555 1_555
C48 C39 1_555 1_555
C51 C39 1_555 1_555
H75 C51 1_555 1_555
C53 C45 1_555 1_555
H76 C53 1_555 1_555
Ni4 O8 1_555 1_555
C13 C22 1_555 1_555
C19 C20 1_555 1_555
C25 C27 1_555 1_555
C45 C46 1_555 1_555
C51 C53 1_555 1_555
N5 Ni2_2 1_555 1_555
H15 N5 1_555 1_555
N6 C7 1_555 1_555
C6 N5 1_555 1_555
H16 C6 1_555 1_555
H17 C6 1_555 1_555
C7 N5 1_555 1_555
H19 C7 1_555 1_555
N10 Ni2_2 1_555 1_555
C35 C6 1_555 1_555
H58 C35 1_555 1_555
H59 C35 1_555 1_555
C36 N10 1_555 1_555
H60 C36 1_555 1_555
N10 C35 1_555 1_555
N5_2 Ni4 1_555 1_555
H15_2 N5_2 1_555 1_555
N6_2 C7_2 1_555 1_555
C6_2 N5_2 1_555 1_555
H16_2 C6_2 1_555 1_555
H17_2 C6_2 1_555 1_555
C7_2 N5_2 1_555 1_555
H19_2 C7_2 1_555 1_555
C10_2 N6_2 1_555 1_555
H24_2 C10_2 1_555 1_555
H25_2 C10_2 1_555 1_555
H26_2 C10_2 1_555 1_555
N10_2 Ni4 1_555 1_555
C35_2 C6_2 1_555 1_555
H58_2 C35_2 1_555 1_555
H59_2 C35_2 1_555 1_555
C36_2 N10_2 1_555 1_555
H60_2 C36_2 1_555 1_555
H61_2 C36_2 1_555 1_555
N10_2 C35_2 1_555 1_555
Ni2_3 N4 1_555 1_555
C8 N4 1_555 1_555
H20 C8 1_555 1_555
H21 C8 1_555 1_555
C9 N4 1_555 1_555
H22 C9 1_555 1_555
N11 Ni2_3 1_555 1_555
H53 N11 1_555 1_555
N12 C34 1_555 1_555
C33 C8 1_555 1_555
H54 C33 1_555 1_555
H55 C33 1_555 1_555
C34 N11 1_555 1_555
H57 C34 1_555 1_555
N11 C33 1_555 1_555
H62 C37 1_555 1_555
H64 C37 1_555 1_555
O13 Ni2_4 1_555 1_555
Ni4_2 N4_2 1_555 1_555
C8_2 N4_2 1_555 1_555
H20_2 C8_2 1_555 1_555
H21_2 C8_2 1_555 1_555
C9_2 N4_2 1_555 1_555
H22_2 C9_2 1_555 1_555
H23_2 C9_2 1_555 1_555
N11_2 Ni4_2 1_555 1_555
H53_2 N11_2 1_555 1_555
N12_2 C34_2 1_555 1_555
C33_2 C8_2 1_555 1_555
H54_2 C33_2 1_555 1_555
H55_2 C33_2 1_555 1_555
C34_2 N11_2 1_555 1_555
H57_2 C34_2 1_555 1_555
C37_2 N12_2 1_555 1_555
H62_2 C37_2 1_555 1_555
H63_2 C37_2 1_555 1_555
H64_2 C37_2 1_555 1_555
O13_2 Ni4_2 1_555 1_555
N11_2 C33_2 1_555 1_555
O1_2 C12_2 1_555 1_555
C11_2 C12_2 1_555 1_555
C12_2 H27_2 1_555 1_555
H28_2 C12_2 1_555 1_555
O3_2 C22_2 1_555 1_555
C13_2 C18_2 1_555 1_555
C14_2 C11_2 1_555 1_555
H30_2 C14_2 1_555 1_555
C18_2 H32_2 1_555 1_555
C19_2 O1_2 1_555 1_555
C20_2 C18_2 1_555 1_555
H33_2 C20_2 1_555 1_555
C22_2 O13 1_555 1_555
C25_2 C13_2 1_555 1_555
H37_2 C25_2 1_555 1_555
C27_2 C19_2 1_555 1_555
H38_2 C27_2 1_555 1_555
O7_2 C38_2 1_555 1_555
C38_2 C11_2 1_555 1_555
H65_2 C38_2 1_555 1_555
H66_2 C38_2 1_555 1_555
O13_2 C48_2 1_555 1_555
O9_2 C48_2 1_555 1_555
C39_2 C44_2 1_555 1_555
C40_2 C11_2 1_555 1_555
H68_2 C40_2 1_555 1_555
C44_2 H70_2 1_555 1_555
C45_2 O7_2 1_555 1_555
C46_2 C44_2 1_555 1_555
H71_2 C46_2 1_555 1_555
C48_2 C39_2 1_555 1_555
C51_2 C39_2 1_555 1_555
H75_2 C51_2 1_555 1_555
C53_2 C45_2 1_555 1_555
H76_2 C53_2 1_555 1_555
C13_2 C22_2 1_555 1_555
C19_2 C20_2 1_555 1_555
C25_2 C27_2 1_555 1_555
C45_2 C46_2 1_555 1_555
C51_2 C53_2 1_555 1_555
H49_2 C32_2 1_555 1_555
H50_2 C32_2 1_555 1_555
H51_2 C32_2 1_555 1_555
C11_3 C12_3 1_555 1_555
C12_3 H27_3 1_555 1_555
H28_3 C12_3 1_555 1_555
H33_3 C20_3 1_555 1_555
C40_3 C11_3 1_555 1_555
H67_2 C40_3 1_555 1_555
H68_3 C40_3 1_555 1_555
C41_2 C47_2 1_555 1_555
C42_2 H69_2 1_555 1_555
C43_2 C42_2 1_555 1_555
C47_2 C42_2 1_555 1_555
H72_2 C47_2 1_555 1_555
C49_2 C41_2 1_555 1_555
H73_2 C49_2 1_555 1_555
C50_2 C43_2 1_555 1_555
H74_2 C50_2 1_555 1_555
H76_3 C53_3 1_555 1_555
O12_2 C40_3 1_555 1_555
C19_3 C20_3 1_555 1_555
C41_2 O12_2 1_555 1_555
C49_2 C50_2 1_555 1_555
O10_2 C52_3 1_555 1_555
O11_3 C52_3 1_555 1_555
Ni3_2 O10_2 1_555 1_555
Ni1_3 N1_3 1_555 1_555
N1_3 H1_3 1_555 1_555
N2_3 Ni1_3 1_555 1_555
N3_3 C1_3 1_555 1_555
C1_3 N1_3 1_555 1_555
H3_3 C1_3 1_555 1_555
H4_3 C1_3 1_555 1_555
C2_3 N2_3 1_555 1_555
H5_3 C2_3 1_555 1_555
H6_3 C2_3 1_555 1_555
C3_3 N1_3 1_555 1_555
H7_3 C3_3 1_555 1_555
H8_3 C3_3 1_555 1_555
C4_3 N2_3 1_555 1_555
H10_3 C4_3 1_555 1_555
O14_3 Ni1_3 1_555 1_555
N3_3 C2_3 1_555 1_555
Ni3_2 N1_4 1_555 1_555
N1_4 H1_4 1_555 1_555
N2_4 Ni3_2 1_555 1_555
N3_4 C1_4 1_555 1_555
C1_4 N1_4 1_555 1_555
H3_4 C1_4 1_555 1_555
H4_4 C1_4 1_555 1_555
C2_4 N2_4 1_555 1_555
H5_4 C2_4 1_555 1_555
H6_4 C2_4 1_555 1_555
C3_4 N1_4 1_555 1_555
H7_4 C3_4 1_555 1_555
H8_4 C3_4 1_555 1_555
C4_4 N2_4 1_555 1_555
H10_4 C4_4 1_555 1_555
N7_3 Ni3_2 1_555 1_555
H39_3 N7_3 1_555 1_555
N8_3 Ni3_2 1_555 1_555
H40_3 N8_3 1_555 1_555
N9_3 C28_3 1_555 1_555
C28_3 N7_3 1_555 1_555
H41_3 C28_3 1_555 1_555
H42_3 C28_3 1_555 1_555
C29_3 N8_3 1_555 1_555
H43_3 C29_3 1_555 1_555
H44_3 C29_3 1_555 1_555
C30_3 C4_4 1_555 1_555
H45_3 C30_3 1_555 1_555
H46_3 C30_3 1_555 1_555
C31_3 C3_4 1_555 1_555
H47_3 C31_3 1_555 1_555
H48_3 C31_3 1_555 1_555
C32_3 N9_3 1_555 1_555
H49_3 C32_3 1_555 1_555
H50_3 C32_3 1_555 1_555
H51_3 C32_3 1_555 1_555
O14_4 Ni3_2 1_555 1_555
N3_4 C2_4 1_555 1_555
N7_3 C30_3 1_555 1_555
N8_3 C31_3 1_555 1_555
N9_3 C29_3 1_555 1_555
C15_2 C21_2 1_555 1_555
C16_2 H31_2 1_555 1_555
C17_2 C16_2 1_555 1_555
C21_2 C16_2 1_555 1_555
H34_2 C21_2 1_555 1_555
C23_2 C15_2 1_555 1_555
H35_2 C23_2 1_555 1_555
C24_2 C17_2 1_555 1_555
H36_2 C24_2 1_555 1_555
C26_3 O14_3 1_555 1_555
O14_4 C52_4 1_555 1_555
C41_3 C47_3 1_555 1_555
C42_3 H69_3 1_555 1_555
C43_3 C42_3 1_555 1_555
C47_3 C42_3 1_555 1_555
H72_3 C47_3 1_555 1_555
O11_4 C52_4 1_555 1_555
C49_3 C41_3 1_555 1_555
H73_3 C49_3 1_555 1_555
C50_3 C43_3 1_555 1_555
H74_3 C50_3 1_555 1_555
C52_4 C43_3 1_555 1_555
C15_2 O6_2 1_555 1_555
C17_2 C26_3 1_555 1_555
C23_2 C24_2 1_555 1_555
C41_3 O12_3 1_555 1_555
C49_3 C50_3 1_555 1_555
C11_4 C12_4 1_555 1_555
C12_4 H27_4 1_555 1_555
H28_4 C12_4 1_555 1_555
H33_4 C20_4 1_555 1_555
C40_4 C11_4 1_555 1_555
H67_4 C40_4 1_555 1_555
H68_4 C40_4 1_555 1_555
C41_4 C47_4 1_555 1_555
C42_4 H69_4 1_555 1_555
C43_4 C42_4 1_555 1_555
C47_4 C42_4 1_555 1_555
H72_4 C47_4 1_555 1_555
C49_4 C41_4 1_555 1_555
H73_4 C49_4 1_555 1_555
C50_4 C43_4 1_555 1_555
H74_4 C50_4 1_555 1_555
H76_4 C53_4 1_555 1_555
O12_4 C40_4 1_555 1_555
C19_4 C20_4 1_555 1_555
C41_4 O12_4 1_555 1_555
C49_4 C50_4 1_555 1_555
H11_3 C5_3 1_555 1_555
H12_3 C5_3 1_555 1_555
H13_3 C5_3 1_555 1_555
Ni2_5 N4_3 1_555 1_555
N4_3 H14_3 1_555 1_555
C8_3 N4_3 1_555 1_555
H20_3 C8_3 1_555 1_555
H21_3 C8_3 1_555 1_555
C9_3 N4_3 1_555 1_555
H22_3 C9_3 1_555 1_555
H24_3 C10_3 1_555 1_555
H26_3 C10_3 1_555 1_555
O2_2 Ni2_5 1_555 1_555
O3_3 C22_3 1_555 1_555
C13_3 C18_3 1_555 1_555
C18_3 H32_3 1_555 1_555
C22_3 O2_2 1_555 1_555
N11_3 Ni2_5 1_555 1_555
C33_3 C8_3 1_555 1_555
H54_3 C33_3 1_555 1_555
H55_3 C33_3 1_555 1_555
H75_3 C51_3 1_555 1_555
C13_3 C22_3 1_555 1_555
N11_3 C33_3 1_555 1_555
N6_3 C7_3 1_555 1_555
H18_3 C7_3 1_555 1_555
H19_3 C7_3 1_555 1_555
N5_3 Ni4_3 1_555 1_555
C6_3 N5_3 1_555 1_555
H16_3 C6_3 1_555 1_555
H17_3 C6_3 1_555 1_555
N10_3 Ni4_3 1_555 1_555
H52_3 N10_3 1_555 1_555
N12_3 C34_3 1_555 1_555
H56_3 C34_3 1_555 1_555
H57_3 C34_3 1_555 1_555
C35_3 C6_3 1_555 1_555
H58_3 C35_3 1_555 1_555
H59_3 C35_3 1_555 1_555
C36_3 N10_3 1_555 1_555
H60_3 C36_3 1_555 1_555
H61_3 C36_3 1_555 1_555
C37_3 N12_3 1_555 1_555
H62_3 C37_3 1_555 1_555
H63_3 C37_3 1_555 1_555
H64_3 C37_3 1_555 1_555
O13_3 Ni4_3 1_555 1_555
N10_3 C35_3 1_555 1_555
N12_3 C36_3 1_555 1_555
H37_3 C25_3 1_555 1_555
O13_3 C48_3 1_555 1_555
O9_3 C48_3 1_555 1_555
C39_3 C44_3 1_555 1_555
C44_3 H70_3 1_555 1_555
C48_3 C39_3 1_555 1_555
O4_2 Ni1_4 1_555 1_555
C26_4 O4_2 1_555 1_555
N7_4 Ni1_4 1_555 1_555
H39_4 N7_4 1_555 1_555
N8_4 Ni1_4 1_555 1_555
H40_4 N8_4 1_555 1_555
N9_4 C28_4 1_555 1_555
C28_4 N7_4 1_555 1_555
H41_4 C28_4 1_555 1_555
H42_4 C28_4 1_555 1_555
C29_4 N8_4 1_555 1_555
H43_4 C29_4 1_555 1_555
H44_4 C29_4 1_555 1_555
H45_4 C30_4 1_555 1_555
H46_4 C30_4 1_555 1_555
H47_4 C31_4 1_555 1_555
H48_4 C31_4 1_555 1_555
C32_4 N9_4 1_555 1_555
H49_4 C32_4 1_555 1_555
H50_4 C32_4 1_555 1_555
H51_4 C32_4 1_555 1_555
N7_4 C30_4 1_555 1_555
N8_4 C31_4 1_555 1_555
N9_4 C29_4 1_555 1_555
C14_3 C11_5 1_555 1_555
H29_3 C14_3 1_555 1_555
H30_3 C14_3 1_555 1_555
C15_3 C21_3 1_555 1_555
C16_3 H31_3 1_555 1_555
C17_3 C16_3 1_555 1_555
C21_3 C16_3 1_555 1_555
H34_3 C21_3 1_555 1_555
C23_3 C15_3 1_555 1_555
H35_3 C23_3 1_555 1_555
C24_3 C17_3 1_555 1_555
H36_3 C24_3 1_555 1_555
H38_3 C27_3 1_555 1_555
O6_3 C14_3 1_555 1_555
C38_3 C11_5 1_555 1_555
H65_3 C38_3 1_555 1_555
H66_3 C38_3 1_555 1_555
H71_3 C46_3 1_555 1_555
C15_3 O6_3 1_555 1_555
C23_3 C24_3 1_555 1_555
C45_3 C46_3 1_555 1_555
H11_4 C5_4 1_555 1_555
H12_4 C5_4 1_555 1_555
H13_4 C5_4 1_555 1_555
H37_4 C25_4 1_555 1_555
N12_4 C34_4 1_555 1_555
H56_4 C34_4 1_555 1_555
H57_4 C34_4 1_555 1_555
O8_2 C48_4 1_555 1_555
O9_4 C48_4 1_555 1_555
C39_4 C44_4 1_555 1_555
C44_4 H70_4 1_555 1_555
C48_4 C39_4 1_555 1_555
Ni4_4 O8_2 1_555 1_555
N5_4 Ni2_8 1_555 1_555
C6_4 N5_4 1_555 1_555
H16_4 C6_4 1_555 1_555
H17_4 C6_4 1_555 1_555
N10_4 Ni2_8 1_555 1_555
H52_4 N10_4 1_555 1_555
C35_4 C6_4 1_555 1_555
H58_4 C35_4 1_555 1_555
H59_4 C35_4 1_555 1_555
C36_4 N10_4 1_555 1_555
H60_4 C36_4 1_555 1_555
H62_4 C37_4 1_555 1_555
H64_4 C37_4 1_555 1_555
O13_4 Ni2_8 1_555 1_555
N10_4 C35_4 1_555 1_555
Ni4_4 N4_4 1_555 1_555
N4_4 H14_4 1_555 1_555
N6_4 C7_4 1_555 1_555
H18_4 C7_4 1_555 1_555
H19_4 C7_4 1_555 1_555
C8_4 N4_4 1_555 1_555
H20_4 C8_4 1_555 1_555
H21_4 C8_4 1_555 1_555
C9_4 N4_4 1_555 1_555
H22_4 C9_4 1_555 1_555
H23_4 C9_4 1_555 1_555
C10_4 N6_4 1_555 1_555
H24_4 C10_4 1_555 1_555
H25_4 C10_4 1_555 1_555
H26_4 C10_4 1_555 1_555
N11_4 Ni4_4 1_555 1_555
C33_4 C8_4 1_555 1_555
H54_4 C33_4 1_555 1_555
H55_4 C33_4 1_555 1_555
N6_4 C9_4 1_555 1_555
N11_4 C33_4 1_555 1_555
O3_4 C22_4 1_555 1_555
C13_4 C18_4 1_555 1_555
C18_4 H32_4 1_555 1_555
C22_4 O13_4 1_555 1_555
H75_4 C51_4 1_555 1_555
C13_4 C22_4 1_555 1_555
C14_4 C11_6 1_555 1_555
H29_4 C14_4 1_555 1_555
H30_4 C14_4 1_555 1_555
C15_4 C21_4 1_555 1_555
C16_4 H31_4 1_555 1_555
C17_4 C16_4 1_555 1_555
C21_4 C16_4 1_555 1_555
H34_4 C21_4 1_555 1_555
C23_4 C15_4 1_555 1_555
H35_4 C23_4 1_555 1_555
C24_4 C17_4 1_555 1_555
H36_4 C24_4 1_555 1_555
H38_4 C27_4 1_555 1_555
O6_4 C14_4 1_555 1_555
C38_4 C11_6 1_555 1_555
H65_4 C38_4 1_555 1_555
H66_4 C38_4 1_555 1_555
H71_4 C46_4 1_555 1_555
C15_4 O6_4 1_555 1_555
C23_4 C24_4 1_555 1_555
C45_4 C46_4 1_555 1_555

#END
