
###############################################################################
#
# This file contains modified crystal structure data generated from the
# MOF subset of the Cambridge Structural Database (CSD) v543 
# hosted by the Cambridge Crystallographic Data Centre (CCDC).
#
# This work is licensed under the Creative Commons
# Attribution-NonCommercial-ShareAlike 4.0 International License.
# To view a copy of this license, visit
# http://creativecommons.org/licenses/by-nc-sa/4.0/
# or send a letter to
# Creative Commons, PO Box 1866, Mountain View, CA 94042, USA.
#
# CIF created using the CSD Python API on 29 September 2022
# The structure has been converted into the P1 space group
# The structure has a 3D framework
# The original CSD entry RUWZOA is in the monoclinic crystal system
# The framework has been calculated to contain at least 10.0% void space
# The void calculation uses a probe of radius 1.32A, grid spacing 0.4
#
###############################################################################

data_RUWZOA
_chemical_formula_moiety         '(C230 H304 N48 Ni18 O48)n'
_symmetry_cell_setting           triclinic
_symmetry_space_group_name_H-M   'P 1'
_symmetry_Int_Tables_number      1
_space_group_name_Hall           'P 1'
loop_
_symmetry_equiv_pos_site_id
_symmetry_equiv_pos_as_xyz
1 x,y,z
_cell_length_a                   37.153(3)
_cell_length_b                   8.9381(8)
_cell_length_c                   29.414(3)
_cell_angle_alpha                90
_cell_angle_beta                 127.964(2)
_cell_angle_gamma                90
_cell_volume                     7700.85
loop_
_atom_site_label
_atom_site_type_symbol
_atom_site_fract_x
_atom_site_fract_y
_atom_site_fract_z
Ni1 Ni 0.0000 0.0000 0.0000
N5 N 0.06819(13) 0.0234(4) 0.04391(16)
C4 C 0.08564(17) 0.0098(6) 0.0098(2)
C5 C 0.07996(17) 0.1676(6) 0.0755(2)
H11 H 0.0702 0.2509 0.0492
H12 H 0.1127 0.1747 0.1053
N10 N 0.00582(14) 0.1551(4) 0.05767(15)
C57 C 0.05580(17) 0.1728(6) 0.1024(2)
H75 H 0.0621 0.2676 0.1221
H76 H 0.0673 0.0934 0.1307
Ni3 Ni 0.0000 0.0000 0.5000
Ni1_2 Ni 0.0000 0.0000 1.0000
H4 H 0.0104 0.0077 0.9092
H9 H 0.0795 0.1029 0.9892
H64 H 0.0829 0.0560 0.5731
N12 N 0.06642(15) 0.1117(5) 0.46864(17)
C52 C 0.01827(17) 0.0963(6) 0.4205(2)
H65 H 0.0105 0.1539 0.3876
C53 C 0.06836(19) 0.2600(6) 0.4928(2)
H67 H 0.0882 0.2559 0.5346
H68 H 0.0800 0.3352 0.4810
C54 C 0.01870(18) 0.2983(5) 0.4687(2)
H69 H 0.0061 0.3774 0.4402
H70 H 0.0174 0.3285 0.4994
H72 H 0.1185 0.0029 0.5364
O14 O 0.01006(11) 0.1764(3) 0.55682(13)
O4 O 0.00309(10) 0.6804(3) 0.80540(12)
C21 C 0.0000 0.8782(6) 0.7500
C24 C 0.02236(16) 0.4837(5) 0.8676(2)
H35 H 0.0524 0.4964 0.8816
C25 C 0.01155(16) 0.3771(5) 0.8912(2)
H36 H 0.0347 0.3193 0.9218
O11 O 0.08402(11) 0.2273(4) 0.61962(14)
C37 C 0.03084(14) 0.9760(5) 0.80333(17)
H43 H 0.0511 0.9136 0.8370
C38 C 0.02869(14) 0.7796(5) 0.74087(17)
H45 H 0.0511 0.7236 0.7756
H46 H 0.0445 0.8400 0.7307
C39 C 0.01217(16) 0.5720(5) 0.67746(18)
C42 C 0.03332(16) 0.3540(5) 0.62966(18)
C43 C 0.06717(16) 0.4383(5) 0.67609(18)
H49 H 0.0975 0.4210 0.6918
C44 C 0.05702(16) 0.5495(5) 0.70024(18)
H50 H 0.0801 0.6069 0.7311
C45 C 0.04341(16) 0.2438(5) 0.60026(19)
Ni1_3 Ni -0.0000 1.0000 0.0000
O5 O 0.08402(11) 0.7727(4) 0.11962(14)
O6 O 0.01006(11) 0.8236(3) 0.05682(13)
H2 H 0.0829 0.9440 0.0731
H5 H 0.0882 0.7441 0.0346
H10 H 0.1185 0.9971 0.0364
C20 C 0.03084(14) 0.0240(5) 0.30333(17)
H31 H 0.0511 0.0864 0.3370
C21_2 C 0.0000 0.1218(6) 0.2500
C22 C 0.02869(14) 0.2204(5) 0.24087(17)
H33 H 0.0511 0.2764 0.2756
H34 H 0.0445 0.1600 0.2307
C23 C 0.01217(16) 0.4280(5) 0.17746(18)
C26 C 0.03332(16) 0.6460(5) 0.12966(18)
C27 C 0.06717(16) 0.5617(5) 0.17609(18)
H37 H 0.0975 0.5790 0.1918
C28 C 0.05702(16) 0.4505(5) 0.20024(18)
H38 H 0.0801 0.3931 0.2311
C29 C 0.04341(16) 0.7562(5) 0.10026(19)
O10 O 0.00309(10) 0.3196(3) 0.30540(12)
C40 C 0.02236(16) 0.5163(5) 0.3676(2)
H47 H 0.0524 0.5036 0.3816
C41 C 0.01155(16) 0.6229(5) 0.3912(2)
H48 H 0.0347 0.6807 0.4218
Ni3_2 Ni 0.0000 1.0000 0.5000
Ni1_4 Ni 0.0000 1.0000 1.0000
N6 N 0.06642(15) 0.8883(5) 0.96864(17)
C1 C 0.01827(17) 0.9037(6) 0.9205(2)
H3 H 0.0105 0.8461 0.8876
C2 C 0.06836(19) 0.7400(6) 0.9928(2)
H6 H 0.0800 0.6648 0.9810
C3 C 0.01870(18) 0.7017(5) 0.9687(2)
H7 H 0.0061 0.6226 0.9402
H8 H 0.0174 0.6715 0.9994
N4 N 0.00582(14) 0.8449(4) 0.55767(15)
C6 C 0.05580(17) 0.8272(6) 0.6024(2)
H13 H 0.0621 0.7324 0.6221
H14 H 0.0673 0.9066 0.6307
N11 N 0.06819(13) 0.9766(4) 0.54391(16)
H66 H 0.0104 0.9923 0.4092
C55 C 0.08564(17) 0.9902(6) 0.5098(2)
H71 H 0.0795 0.8971 0.4892
C56 C 0.07996(17) 0.8324(6) 0.5755(2)
H73 H 0.0702 0.7491 0.5492
H74 H 0.1127 0.8253 0.6053
Ni2 Ni 0.2500 0.2500 0.5000
O1 O 0.19939(10) 0.4227(3) 0.45408(12)
O2 O 0.17308(12) 0.4687(4) 0.50336(14)
O3 O 0.05683(10) 0.9285(3) 0.29470(12)
N1 N 0.24105(12) 0.2368(4) 0.56145(14)
H1 H 0.2195 0.3160 0.5529
N2 N 0.19766(12) 0.0896(4) 0.45422(15)
N3 N 0.18819(13) 0.1176(5) 0.36933(16)
C7 C 0.16426(16) 0.1405(6) 0.39376(19)
H15 H 0.1365 0.0814 0.3735
H16 H 0.1566 0.2451 0.3921
C10 C 0.28215(16) 0.2586(6) 0.62209(18)
H21 H 0.2724 0.2768 0.6456
H22 H 0.2998 0.1668 0.6357
C11 C 0.21744(17) 0.0931(5) 0.5508(2)
H23 H 0.2053 0.0894 0.5720
H24 H 0.2387 0.0107 0.5635
C12 C 0.17906(17) 0.0802(6) 0.4869(2)
H26 H 0.1572 0.1601 0.4747
C13 C 0.17389(15) 0.4907(5) 0.46209(19)
C14 C 0.14194(14) 0.6053(5) 0.41726(17)
C15 C 0.13502(15) 0.6183(5) 0.36513(18)
H27 H 0.1504 0.5538 0.3575
C16 C 0.10628(16) 0.7235(5) 0.32502(19)
H28 H 0.1016 0.7287 0.2902
C17 C 0.08414(14) 0.8224(5) 0.33658(18)
C18 C 0.09054(14) 0.8146(5) 0.38817(17)
H29 H 0.0759 0.8818 0.3961
C19 C 0.11902(14) 0.7052(5) 0.42763(18)
H30 H 0.1230 0.6983 0.4620
H32 H 0.0125 0.9645 0.3097
N7 N 0.25895(12) 0.2632(4) 0.43855(14)
H51 H 0.2805 0.1840 0.4471
N8 N 0.30234(12) 0.4104(4) 0.54578(15)
N9 N 0.31181(13) 0.3824(5) 0.63067(16)
C46 C 0.33574(16) 0.3595(6) 0.60624(19)
H52 H 0.3635 0.4186 0.6265
H53 H 0.3434 0.2549 0.6079
C47 C 0.28926(17) 0.5563(5) 0.5559(2)
H54 H 0.3114 0.6330 0.5655
H55 H 0.2594 0.5877 0.5220
C48 C 0.28850(18) 0.5278(5) 0.6060(2)
H56 H 0.2573 0.5231 0.5928
H57 H 0.3045 0.6067 0.6345
C49 C 0.21785(16) 0.2414(6) 0.37791(18)
H58 H 0.2276 0.2232 0.3544
H59 H 0.2002 0.3332 0.3643
C50 C 0.28256(17) 0.4069(5) 0.4492(2)
H60 H 0.2947 0.4106 0.4280
H61 H 0.2613 0.4893 0.4365
C51 C 0.32094(17) 0.4198(6) 0.5131(2)
H62 H 0.3366 0.5145 0.5212
H63 H 0.3428 0.3399 0.5253
O13 O 0.30061(10) 0.0773(3) 0.54592(12)
O8 O 0.82692(12) 0.4687(4) 0.99664(14)
Ni4 Ni 0.7500 0.2500 1.0000
N1_2 N 0.75895(12) 0.2368(4) 0.93855(14)
H1_2 H 0.7805 0.3160 0.9471
C10_2 C 0.71785(16) 0.2586(6) 0.87791(18)
H21_2 H 0.7276 0.2768 0.8544
H22_2 H 0.7002 0.1668 0.8643
C11_2 C 0.78256(17) 0.0931(5) 0.9492(2)
H23_2 H 0.7947 0.0894 0.9280
H24_2 H 0.7613 0.0107 0.9365
N8_2 N 0.69766(12) 0.4104(4) 0.95422(15)
N9_2 N 0.68819(13) 0.3824(5) 0.86933(16)
C46_2 C 0.66426(16) 0.3595(6) 0.89376(19)
H52_2 H 0.6365 0.4186 0.8735
H53_2 H 0.6566 0.2549 0.8921
C47_2 C 0.71074(17) 0.5563(5) 0.9441(2)
H54_2 H 0.6886 0.6330 0.9345
H55_2 H 0.7406 0.5877 0.9780
C48_2 C 0.71150(18) 0.5278(5) 0.8940(2)
H56_2 H 0.7427 0.5231 0.9072
H57_2 H 0.6955 0.6067 0.8655
C51_2 C 0.67906(17) 0.4198(6) 0.9869(2)
H62_2 H 0.6634 0.5145 0.9788
H63_2 H 0.6572 0.3399 0.9747
O13_2 O 0.69939(10) 0.0773(3) 0.95408(12)
O2_2 O 0.32692(12) 0.0313(4) 0.49664(14)
C13_2 C 0.32611(15) 0.0093(5) 0.53791(19)
C30 C 0.67389(15) 0.0093(5) 0.96209(19)
C8 C 0.21074(17) 0.9437(5) 0.4441(2)
H17 H 0.1886 0.8670 0.4345
H18 H 0.2406 0.9123 0.4780
C9 C 0.21150(18) 0.9722(5) 0.3940(2)
H19 H 0.2427 0.9769 0.4072
H20 H 0.1955 0.8933 0.3655
H25 H 0.1634 0.9855 0.4788
O3_2 O 0.44317(10) 0.5715(3) 0.70530(12)
O4_2 O 0.50309(10) 0.1804(3) 0.80540(12)
C14_2 C 0.35806(14) 0.8947(5) 0.58274(17)
C15_2 C 0.36498(15) 0.8817(5) 0.63487(18)
H27_2 H 0.3496 0.9462 0.6425
C16_2 C 0.39372(16) 0.7765(5) 0.67498(19)
H28_2 H 0.3984 0.7713 0.7098
C17_2 C 0.41586(14) 0.6776(5) 0.66342(18)
C18_2 C 0.40946(14) 0.6854(5) 0.61183(17)
H29_2 H 0.4241 0.6182 0.6039
C19_2 C 0.38098(14) 0.7948(5) 0.57237(18)
H30_2 H 0.3770 0.8017 0.5380
C20_2 C 0.46916(14) 0.4760(5) 0.69667(17)
H31_2 H 0.4489 0.4136 0.6630
H32_2 H 0.4875 0.5355 0.6903
C21_3 C 0.5000 0.3782(6) 0.7500
C22_2 C 0.47131(14) 0.2796(5) 0.75913(17)
H33_2 H 0.4489 0.2236 0.7244
H34_2 H 0.4555 0.3400 0.7693
C23_2 C 0.48783(16) 0.0720(5) 0.82254(18)
C28_2 C 0.44298(16) 0.0495(5) 0.79976(18)
H38_2 H 0.4199 0.1069 0.7689
O9 O 0.55683(10) 0.5715(3) 0.79470(12)
O10_2 O 0.49691(10) 0.1804(3) 0.69460(12)
C31 C 0.64194(14) 0.8947(5) 0.91726(17)
C32 C 0.63502(15) 0.8817(5) 0.86513(18)
H39 H 0.6504 0.9462 0.8575
C33 C 0.60628(16) 0.7765(5) 0.82502(19)
H40 H 0.6016 0.7713 0.7902
C34 C 0.58414(14) 0.6776(5) 0.83658(18)
C35 C 0.59054(14) 0.6854(5) 0.88817(17)
H41 H 0.5759 0.6182 0.8961
C36 C 0.61902(14) 0.7948(5) 0.92763(18)
H42 H 0.6230 0.8017 0.9620
C37_2 C 0.53084(14) 0.4760(5) 0.80333(17)
H43_2 H 0.5511 0.4136 0.8370
H44 H 0.5125 0.5355 0.8097
C38_2 C 0.52869(14) 0.2796(5) 0.74087(17)
H45_2 H 0.5511 0.2236 0.7756
H46_2 H 0.5445 0.3400 0.7307
C39_2 C 0.51217(16) 0.0720(5) 0.67746(18)
C44_2 C 0.55702(16) 0.0495(5) 0.70024(18)
H50_2 H 0.5801 0.1069 0.7311
Ni1_5 Ni 1.0000 0.0000 0.0000
N12_2 N 0.93358(15) 0.1117(5) 0.03136(17)
C52_2 C 0.98173(17) 0.0963(6) 0.0795(2)
H65_2 H 0.9895 0.1539 0.1124
C53_2 C 0.93164(19) 0.2600(6) 0.0072(2)
H68_2 H 0.9200 0.3352 0.0190
C54_2 C 0.98130(18) 0.2983(5) 0.0313(2)
H69_2 H 0.9939 0.3774 0.0598
H70_2 H 0.9826 0.3285 0.0006
Ni3_3 Ni 1.0000 0.0000 0.5000
Ni1_6 Ni 1.0000 0.0000 1.0000
H64_2 H 0.9171 0.0560 0.9269
H67_2 H 0.9118 0.2559 0.9654
H72_2 H 0.8815 0.0029 0.9636
O14_2 O 0.98994(11) 0.1764(3) 0.94318(13)
N5_2 N 0.93181(13) 0.0234(4) 0.45609(16)
H4_2 H 0.9896 0.0077 0.5908
C4_2 C 0.91436(17) 0.0098(6) 0.4902(2)
H9_2 H 0.9205 0.1029 0.5108
C5_2 C 0.92004(17) 0.1676(6) 0.4245(2)
H11_2 H 0.9298 0.2509 0.4508
H12_2 H 0.8873 0.1747 0.3947
N10_2 N 0.99418(14) 0.1551(4) 0.44233(15)
C57_2 C 0.94420(17) 0.1728(6) 0.3976(2)
H75_2 H 0.9379 0.2676 0.3779
H76_2 H 0.9327 0.0934 0.3693
O5_2 O 0.91598(11) 0.2273(4) 0.88038(14)
C20_3 C 0.96916(14) 0.9760(5) 0.69667(17)
H31_3 H 0.9489 0.9136 0.6630
C21_4 C 1.0000 0.8782(6) 0.7500
C22_3 C 0.97131(14) 0.7796(5) 0.75913(17)
H33_3 H 0.9489 0.7236 0.7244
H34_3 H 0.9555 0.8400 0.7693
C23_3 C 0.98783(16) 0.5720(5) 0.82254(18)
C26_2 C 0.96668(16) 0.3540(5) 0.87034(18)
C27_2 C 0.93283(16) 0.4383(5) 0.82391(18)
H37_2 H 0.9025 0.4210 0.8082
C28_3 C 0.94298(16) 0.5495(5) 0.79976(18)
H38_3 H 0.9199 0.6069 0.7689
C29_2 C 0.95659(16) 0.2438(5) 0.89974(19)
O10_3 O 0.99691(10) 0.6804(3) 0.69460(12)
C40_2 C 0.97764(16) 0.4837(5) 0.6324(2)
H47_2 H 0.9476 0.4964 0.6184
C41_2 C 0.98845(16) 0.3771(5) 0.6088(2)
H48_2 H 0.9653 0.3193 0.5782
Ni1_7 Ni 1.0000 1.0000 0.0000
O4_3 O 0.99691(10) 0.3196(3) 0.19460(12)
C21_5 C 1.0000 0.1218(6) 0.2500
C24_2 C 0.97764(16) 0.5163(5) 0.1324(2)
H35_2 H 0.9476 0.5036 0.1184
C25_2 C 0.98845(16) 0.6229(5) 0.1088(2)
H36_2 H 0.9653 0.6807 0.0782
O11_2 O 0.91598(11) 0.7727(4) 0.38038(14)
O12 O 0.98994(11) 0.8236(3) 0.44318(13)
C37_3 C 0.96916(14) 0.0240(5) 0.19667(17)
H43_3 H 0.9489 0.0864 0.1630
C38_3 C 0.97131(14) 0.2204(5) 0.25913(17)
H45_3 H 0.9489 0.2764 0.2244
H46_3 H 0.9555 0.1600 0.2693
C39_3 C 0.98783(16) 0.4280(5) 0.32254(18)
C42_2 C 0.96668(16) 0.6460(5) 0.37034(18)
C43_2 C 0.93283(16) 0.5617(5) 0.32391(18)
H49_2 H 0.9025 0.5790 0.3082
C44_3 C 0.94298(16) 0.4505(5) 0.29976(18)
H50_3 H 0.9199 0.3931 0.2689
C45_2 C 0.95659(16) 0.7562(5) 0.39974(19)
H66_2 H 0.9896 0.9923 0.0908
H71_2 H 0.9205 0.8971 0.0108
Ni3_4 Ni 1.0000 1.0000 0.5000
Ni1_8 Ni 1.0000 1.0000 1.0000
N4_2 N 0.99418(14) 0.8449(4) 0.94233(15)
C6_2 C 0.94420(17) 0.8272(6) 0.8976(2)
H13_2 H 0.9379 0.7324 0.8779
H14_2 H 0.9327 0.9066 0.8693
N11_2 N 0.93181(13) 0.9766(4) 0.95609(16)
C55_2 C 0.91436(17) 0.9902(6) 0.9902(2)
C56_2 C 0.92004(17) 0.8324(6) 0.9245(2)
H73_2 H 0.9298 0.7491 0.9508
H74_2 H 0.8873 0.8253 0.8947
H2_2 H 0.9171 0.9440 0.4269
N6_2 N 0.93358(15) 0.8883(5) 0.53136(17)
C1_2 C 0.98173(17) 0.9037(6) 0.5795(2)
H3_2 H 0.9895 0.8461 0.6124
C2_2 C 0.93164(19) 0.7400(6) 0.5072(2)
H5_2 H 0.9118 0.7441 0.4654
H6_2 H 0.9200 0.6648 0.5190
C3_2 C 0.98130(18) 0.7017(5) 0.5313(2)
H7_2 H 0.9939 0.6226 0.5598
H8_2 H 0.9826 0.6715 0.5006
H10_2 H 0.8815 0.9971 0.4636
O7 O 0.80061(10) 0.4227(3) 0.04592(12)
O9_2 O 0.94317(10) 0.9285(3) 0.20530(12)
C30_2 C 0.82611(15) 0.4907(5) 0.03791(19)
C31_2 C 0.85806(14) 0.6053(5) 0.08274(17)
C32_2 C 0.86498(15) 0.6183(5) 0.13487(18)
H39_2 H 0.8496 0.5538 0.1425
C33_2 C 0.89372(16) 0.7235(5) 0.17498(19)
H40_2 H 0.8984 0.7287 0.2098
C34_2 C 0.91586(14) 0.8224(5) 0.16342(18)
C35_2 C 0.90946(14) 0.8146(5) 0.11183(17)
H41_2 H 0.9241 0.8818 0.1039
C36_2 C 0.88098(14) 0.7052(5) 0.07237(18)
H42_2 H 0.8770 0.6983 0.0380
H44_2 H 0.9875 0.9645 0.1903
Ni4_2 Ni 0.7500 0.2500 0.0000
N2_2 N 0.80234(12) 0.0896(4) 0.04578(15)
N3_2 N 0.81181(13) 0.1176(5) 0.13067(16)
C7_2 C 0.83574(16) 0.1405(6) 0.10624(19)
H15_2 H 0.8635 0.0814 0.1265
H16_2 H 0.8434 0.2451 0.1079
C12_2 C 0.82094(17) 0.0802(6) 0.0131(2)
H26_2 H 0.8428 0.1601 0.0253
N7_2 N 0.74105(12) 0.2632(4) 0.06145(14)
H51_2 H 0.7195 0.1840 0.0529
C49_2 C 0.78215(16) 0.2414(6) 0.12209(18)
H58_2 H 0.7724 0.2232 0.1456
H59_2 H 0.7998 0.3332 0.1357
C50_2 C 0.71744(17) 0.4069(5) 0.0508(2)
H60_2 H 0.7053 0.4106 0.0720
H61_2 H 0.7387 0.4893 0.0635
O8_2 O 0.67308(12) 0.0313(4) 0.00336(14)
C8_2 C 0.78926(17) 0.9437(5) 0.0559(2)
H17_2 H 0.8114 0.8670 0.0655
H18_2 H 0.7594 0.9123 0.0220
C9_2 C 0.78850(18) 0.9722(5) 0.1060(2)
H19_2 H 0.7573 0.9769 0.0928
H20_2 H 0.8045 0.8933 0.1345
H25_2 H 0.8366 0.9855 0.0212
Ni1_9 Ni 0.5000 0.5000 0.0000
O5_3 O 0.58402(11) 0.2727(4) 0.11962(14)
O6_2 O 0.51006(11) 0.3236(3) 0.05682(13)
N5_3 N 0.56819(13) 0.5234(4) 0.04391(16)
H2_3 H 0.5829 0.4440 0.0731
H5_3 H 0.5882 0.2441 0.0346
C4_3 C 0.58564(17) 0.5098(6) 0.0098(2)
H10_3 H 0.6185 0.4971 0.0364
C5_3 C 0.57996(17) 0.6676(6) 0.0755(2)
H11_3 H 0.5702 0.7509 0.0492
H12_3 H 0.6127 0.6747 0.1053
C24_3 C 0.47764(16) 0.0163(5) 0.1324(2)
H35_3 H 0.4476 0.0036 0.1184
C25_3 C 0.48845(16) 0.1229(5) 0.1088(2)
H36_3 H 0.4653 0.1807 0.0782
C26_3 C 0.53332(16) 0.1460(5) 0.12966(18)
C27_3 C 0.56717(16) 0.0617(5) 0.17609(18)
H37_3 H 0.5975 0.0790 0.1918
C29_3 C 0.54341(16) 0.2562(5) 0.10026(19)
O11_3 O 0.41598(11) 0.2727(4) 0.38038(14)
O12_2 O 0.48994(11) 0.3236(3) 0.44318(13)
C40_3 C 0.52236(16) 0.0163(5) 0.3676(2)
H47_3 H 0.5524 0.0036 0.3816
C41_3 C 0.51155(16) 0.1229(5) 0.3912(2)
H48_3 H 0.5347 0.1807 0.4218
C42_3 C 0.46668(16) 0.1460(5) 0.37034(18)
C43_3 C 0.43283(16) 0.0617(5) 0.32391(18)
H49_3 H 0.4025 0.0790 0.3082
C45_3 C 0.45659(16) 0.2562(5) 0.39974(19)
N10_3 N 0.50582(14) 0.6551(4) 0.05767(15)
N12_3 N 0.43358(15) 0.6117(5) 0.03136(17)
C52_3 C 0.48173(17) 0.5963(6) 0.0795(2)
H65_3 H 0.4895 0.6539 0.1124
H66_3 H 0.4896 0.4923 0.0908
C53_3 C 0.43164(19) 0.7600(6) 0.0072(2)
H68_3 H 0.4200 0.8352 0.0190
C54_3 C 0.48130(18) 0.7983(5) 0.0313(2)
H69_3 H 0.4939 0.8774 0.0598
H70_3 H 0.4826 0.8285 0.0006
H71_3 H 0.4205 0.3971 0.0108
C57_3 C 0.55580(17) 0.6728(6) 0.1024(2)
H75_3 H 0.5621 0.7676 0.1221
H76_3 H 0.5673 0.5934 0.1307
Ni3_5 Ni 0.5000 0.5000 0.5000
Ni1_10 Ni 0.5000 0.5000 1.0000
N4_3 N 0.49418(14) 0.3449(4) 0.94233(15)
N6_3 N 0.56642(15) 0.3883(5) 0.96864(17)
C1_3 C 0.51827(17) 0.4037(6) 0.9205(2)
H3_3 H 0.5105 0.3461 0.8876
H4_3 H 0.5104 0.5077 0.9092
C2_3 C 0.56836(19) 0.2400(6) 0.9928(2)
H6_3 H 0.5800 0.1648 0.9810
C3_3 C 0.51870(18) 0.2017(5) 0.9687(2)
H7_3 H 0.5061 0.1226 0.9402
H8_3 H 0.5174 0.1715 0.9994
H9_3 H 0.5795 0.6029 0.9892
C6_3 C 0.44420(17) 0.3272(6) 0.8976(2)
H13_3 H 0.4379 0.2324 0.8779
H14_3 H 0.4327 0.4066 0.8693
N11_3 N 0.43181(13) 0.4766(4) 0.95609(16)
H64_3 H 0.4171 0.5560 0.9269
H67_3 H 0.4118 0.7559 0.9654
C55_3 C 0.41436(17) 0.4902(6) 0.9902(2)
H72_3 H 0.3815 0.5029 0.9636
C56_3 C 0.42004(17) 0.3324(6) 0.9245(2)
H73_3 H 0.4298 0.2491 0.9508
H74_3 H 0.3873 0.3253 0.8947
O14_3 O 0.48994(11) 0.6764(3) 0.94318(13)
N4_4 N 0.50582(14) 0.3449(4) 0.55767(15)
N5_4 N 0.43181(13) 0.5234(4) 0.45609(16)
H2_4 H 0.4171 0.4440 0.4269
N6_4 N 0.43358(15) 0.3883(5) 0.53136(17)
C1_4 C 0.48173(17) 0.4037(6) 0.5795(2)
H3_4 H 0.4895 0.3461 0.6124
H4_4 H 0.4896 0.5077 0.5908
C2_4 C 0.43164(19) 0.2400(6) 0.5072(2)
H5_4 H 0.4118 0.2441 0.4654
H6_4 H 0.4200 0.1648 0.5190
C3_4 C 0.48130(18) 0.2017(5) 0.5313(2)
H7_4 H 0.4939 0.1226 0.5598
H8_4 H 0.4826 0.1715 0.5006
C4_4 C 0.41436(17) 0.5098(6) 0.4902(2)
H9_4 H 0.4205 0.6029 0.5108
H10_4 H 0.3815 0.4971 0.4636
C5_4 C 0.42004(17) 0.6676(6) 0.4245(2)
H11_4 H 0.4298 0.7509 0.4508
H12_4 H 0.3873 0.6747 0.3947
C6_4 C 0.55580(17) 0.3272(6) 0.6024(2)
H13_4 H 0.5621 0.2324 0.6221
H14_4 H 0.5673 0.4066 0.6307
N10_4 N 0.49418(14) 0.6551(4) 0.44233(15)
N11_4 N 0.56819(13) 0.4766(4) 0.54391(16)
H64_4 H 0.5829 0.5560 0.5731
N12_4 N 0.56642(15) 0.6117(5) 0.46864(17)
C52_4 C 0.51827(17) 0.5963(6) 0.4205(2)
H65_4 H 0.5105 0.6539 0.3876
H66_4 H 0.5104 0.4923 0.4092
C53_4 C 0.56836(19) 0.7600(6) 0.4928(2)
H67_4 H 0.5882 0.7559 0.5346
H68_4 H 0.5800 0.8352 0.4810
C54_4 C 0.51870(18) 0.7983(5) 0.4687(2)
H69_4 H 0.5061 0.8774 0.4402
H70_4 H 0.5174 0.8285 0.4994
C55_4 C 0.58564(17) 0.4902(6) 0.5098(2)
H71_4 H 0.5795 0.3971 0.4892
H72_4 H 0.6185 0.5029 0.5364
C56_4 C 0.57996(17) 0.3324(6) 0.5755(2)
H73_4 H 0.5702 0.2491 0.5492
H74_4 H 0.6127 0.3253 0.6053
C57_4 C 0.44420(17) 0.6728(6) 0.3976(2)
H75_4 H 0.4379 0.7676 0.3779
H76_4 H 0.4327 0.5934 0.3693
O14_4 O 0.51006(11) 0.6764(3) 0.55682(13)
O5_4 O 0.41598(11) 0.7273(4) 0.88038(14)
C24_4 C 0.52236(16) 0.9837(5) 0.8676(2)
H35_4 H 0.5524 0.9964 0.8816
C25_4 C 0.51155(16) 0.8771(5) 0.8912(2)
H36_4 H 0.5347 0.8193 0.9218
C26_4 C 0.46668(16) 0.8540(5) 0.87034(18)
C27_4 C 0.43283(16) 0.9383(5) 0.82391(18)
H37_4 H 0.4025 0.9210 0.8082
C29_4 C 0.45659(16) 0.7438(5) 0.89974(19)
O11_4 O 0.58402(11) 0.7273(4) 0.61962(14)
C40_4 C 0.47764(16) 0.9837(5) 0.6324(2)
H47_4 H 0.4476 0.9964 0.6184
C41_4 C 0.48845(16) 0.8771(5) 0.6088(2)
H48_4 H 0.4653 0.8193 0.5782
C42_4 C 0.53332(16) 0.8540(5) 0.62966(18)
C43_4 C 0.56717(16) 0.9383(5) 0.67609(18)
H49_4 H 0.5975 0.9210 0.6918
C45_4 C 0.54341(16) 0.7438(5) 0.60026(19)
O3_3 O 0.55683(10) 0.4285(3) 0.29470(12)
O4_4 O 0.49691(10) 0.8196(3) 0.19460(12)
C14_3 C 0.64194(14) 0.1053(5) 0.41726(17)
C15_3 C 0.63502(15) 0.1183(5) 0.36513(18)
H27_3 H 0.6504 0.0538 0.3575
C16_3 C 0.60628(16) 0.2235(5) 0.32502(19)
H28_3 H 0.6016 0.2287 0.2902
C17_3 C 0.58414(14) 0.3224(5) 0.33658(18)
C18_3 C 0.59054(14) 0.3146(5) 0.38817(17)
H29_3 H 0.5759 0.3818 0.3961
C19_3 C 0.61902(14) 0.2052(5) 0.42763(18)
H30_3 H 0.6230 0.1983 0.4620
C20_4 C 0.53084(14) 0.5240(5) 0.30333(17)
H31_4 H 0.5511 0.5864 0.3370
H32_3 H 0.5125 0.4645 0.3097
C21_6 C 0.5000 0.6218(6) 0.2500
C22_4 C 0.52869(14) 0.7204(5) 0.24087(17)
H33_4 H 0.5511 0.7764 0.2756
H34_4 H 0.5445 0.6600 0.2307
C23_4 C 0.51217(16) 0.9280(5) 0.17746(18)
C28_4 C 0.55702(16) 0.9505(5) 0.20024(18)
H38_4 H 0.5801 0.8931 0.2311
O9_3 O 0.44317(10) 0.4285(3) 0.20530(12)
O10_4 O 0.50309(10) 0.8196(3) 0.30540(12)
C31_3 C 0.35806(14) 0.1053(5) 0.08274(17)
C32_3 C 0.36498(15) 0.1183(5) 0.13487(18)
H39_3 H 0.3496 0.0538 0.1425
C33_3 C 0.39372(16) 0.2235(5) 0.17498(19)
H40_3 H 0.3984 0.2287 0.2098
C34_3 C 0.41586(14) 0.3224(5) 0.16342(18)
C35_3 C 0.40946(14) 0.3146(5) 0.11183(17)
H41_3 H 0.4241 0.3818 0.1039
C36_3 C 0.38098(14) 0.2052(5) 0.07237(18)
H42_3 H 0.3770 0.1983 0.0380
C37_4 C 0.46916(14) 0.5240(5) 0.19667(17)
H43_4 H 0.4489 0.5864 0.1630
H44_3 H 0.4875 0.4645 0.1903
C38_4 C 0.47131(14) 0.7204(5) 0.25913(17)
H45_4 H 0.4489 0.7764 0.2244
H46_4 H 0.4555 0.6600 0.2693
C39_4 C 0.48783(16) 0.9280(5) 0.32254(18)
C44_4 C 0.44298(16) 0.9505(5) 0.29976(18)
H50_4 H 0.4199 0.8931 0.2689
C47_3 C 0.78926(17) 0.0563(5) 0.5559(2)
H54_3 H 0.8114 0.1330 0.5655
H55_3 H 0.7594 0.0877 0.5220
C48_3 C 0.78850(18) 0.0278(5) 0.6060(2)
H56_3 H 0.7573 0.0231 0.5928
H57_3 H 0.8045 0.1067 0.6345
H62_3 H 0.8366 0.0145 0.5212
Ni2_2 Ni 0.7500 0.7500 0.5000
O1_2 O 0.69939(10) 0.9227(3) 0.45408(12)
O2_3 O 0.67308(12) 0.9687(4) 0.50336(14)
N1_3 N 0.74105(12) 0.7368(4) 0.56145(14)
H1_3 H 0.7195 0.8160 0.5529
N2_3 N 0.69766(12) 0.5896(4) 0.45422(15)
N3_3 N 0.68819(13) 0.6176(5) 0.36933(16)
C7_3 C 0.66426(16) 0.6405(6) 0.39376(19)
H15_3 H 0.6365 0.5814 0.3735
H16_3 H 0.6566 0.7451 0.3921
C8_3 C 0.71074(17) 0.4437(5) 0.4441(2)
H17_3 H 0.6886 0.3670 0.4345
H18_3 H 0.7406 0.4123 0.4780
C9_3 C 0.71150(18) 0.4722(5) 0.3940(2)
H19_3 H 0.7427 0.4769 0.4072
H20_3 H 0.6955 0.3933 0.3655
C10_3 C 0.78215(16) 0.7586(6) 0.62209(18)
H21_3 H 0.7724 0.7768 0.6456
H22_3 H 0.7998 0.6668 0.6357
C11_3 C 0.71744(17) 0.5931(5) 0.5508(2)
H23_3 H 0.7053 0.5894 0.5720
H24_3 H 0.7387 0.5107 0.5635
C12_3 C 0.67906(17) 0.5802(6) 0.4869(2)
H25_3 H 0.6634 0.4855 0.4788
H26_3 H 0.6572 0.6601 0.4747
C13_3 C 0.67389(15) 0.9907(5) 0.46209(19)
O7_2 O 0.30061(10) 0.9227(3) 0.04592(12)
C30_3 C 0.32611(15) 0.9907(5) 0.03791(19)
N7_3 N 0.75895(12) 0.7632(4) 0.43855(14)
H51_3 H 0.7805 0.6840 0.4471
N8_3 N 0.80234(12) 0.9104(4) 0.54578(15)
N9_3 N 0.81181(13) 0.8824(5) 0.63067(16)
C46_3 C 0.83574(16) 0.8595(6) 0.60624(19)
H52_3 H 0.8635 0.9186 0.6265
H53_3 H 0.8434 0.7549 0.6079
C49_3 C 0.71785(16) 0.7414(6) 0.37791(18)
H58_3 H 0.7276 0.7232 0.3544
H59_3 H 0.7002 0.8332 0.3643
C50_3 C 0.78256(17) 0.9069(5) 0.4492(2)
H60_3 H 0.7947 0.9106 0.4280
H61_3 H 0.7613 0.9893 0.4365
C51_3 C 0.82094(17) 0.9198(6) 0.5131(2)
H63_3 H 0.8428 0.8399 0.5253
Ni4_3 Ni 0.2500 0.7500 0.0000
O13_3 O 0.80061(10) 0.5773(3) 0.54592(12)
N2_4 N 0.30234(12) 0.5896(4) 0.04578(15)
N3_4 N 0.31181(13) 0.6176(5) 0.13067(16)
C7_4 C 0.33574(16) 0.6405(6) 0.10624(19)
H15_4 H 0.3635 0.5814 0.1265
H16_4 H 0.3434 0.7451 0.1079
C8_4 C 0.28926(17) 0.4437(5) 0.0559(2)
H17_4 H 0.3114 0.3670 0.0655
H18_4 H 0.2594 0.4123 0.0220
C9_4 C 0.28850(18) 0.4722(5) 0.1060(2)
H19_4 H 0.2573 0.4769 0.0928
H20_4 H 0.3045 0.3933 0.1345
C12_4 C 0.32094(17) 0.5802(6) 0.0131(2)
H25_4 H 0.3366 0.4855 0.0212
H26_4 H 0.3428 0.6601 0.0253
N7_4 N 0.24105(12) 0.7632(4) 0.06145(14)
H51_4 H 0.2195 0.6840 0.0529
C49_4 C 0.28215(16) 0.7414(6) 0.12209(18)
H58_4 H 0.2724 0.7232 0.1456
H59_4 H 0.2998 0.8332 0.1357
C50_4 C 0.21744(17) 0.9069(5) 0.0508(2)
H60_4 H 0.2053 0.9106 0.0720
H61_4 H 0.2387 0.9893 0.0635
O8_3 O 0.17308(12) 0.5313(4) 0.00336(14)
O2_4 O 0.82692(12) 0.5313(4) 0.49664(14)
O3_4 O 0.94317(10) 0.0715(3) 0.70530(12)
C13_4 C 0.82611(15) 0.5093(5) 0.53791(19)
C14_4 C 0.85806(14) 0.3947(5) 0.58274(17)
C15_4 C 0.86498(15) 0.3817(5) 0.63487(18)
H27_4 H 0.8496 0.4462 0.6425
C16_4 C 0.89372(16) 0.2765(5) 0.67498(19)
H28_4 H 0.8984 0.2713 0.7098
C17_4 C 0.91586(14) 0.1776(5) 0.66342(18)
C18_4 C 0.90946(14) 0.1854(5) 0.61183(17)
H29_4 H 0.9241 0.1182 0.6039
C19_4 C 0.88098(14) 0.2948(5) 0.57237(18)
H30_4 H 0.8770 0.3017 0.5380
H32_4 H 0.9875 0.0355 0.6903
O8_4 O 0.32692(12) 0.9687(4) 0.99664(14)
Ni4_4 Ni 0.2500 0.7500 1.0000
N1_4 N 0.25895(12) 0.7368(4) 0.93855(14)
H1_4 H 0.2805 0.8160 0.9471
C10_4 C 0.21785(16) 0.7586(6) 0.87791(18)
H21_4 H 0.2276 0.7768 0.8544
H22_4 H 0.2002 0.6668 0.8643
C11_4 C 0.28256(17) 0.5931(5) 0.9492(2)
H23_4 H 0.2947 0.5894 0.9280
H24_4 H 0.2613 0.5107 0.9365
N8_4 N 0.19766(12) 0.9104(4) 0.95422(15)
N9_4 N 0.18819(13) 0.8824(5) 0.86933(16)
C46_4 C 0.16426(16) 0.8595(6) 0.89376(19)
H52_4 H 0.1365 0.9186 0.8735
H53_4 H 0.1566 0.7549 0.8921
C51_4 C 0.17906(17) 0.9198(6) 0.9869(2)
H63_4 H 0.1572 0.8399 0.9747
O13_4 O 0.19939(10) 0.5773(3) 0.95408(12)
O9_4 O 0.05683(10) 0.0715(3) 0.79470(12)
C30_4 C 0.17389(15) 0.5093(5) 0.96209(19)
C31_4 C 0.14194(14) 0.3947(5) 0.91726(17)
C32_4 C 0.13502(15) 0.3817(5) 0.86513(18)
H39_4 H 0.1504 0.4462 0.8575
C33_4 C 0.10628(16) 0.2765(5) 0.82502(19)
H40_4 H 0.1016 0.2713 0.7902
C34_4 C 0.08414(14) 0.1776(5) 0.83658(18)
C35_4 C 0.09054(14) 0.1854(5) 0.88817(17)
H41_4 H 0.0759 0.1182 0.8961
C36_4 C 0.11902(14) 0.2948(5) 0.92763(18)
H42_4 H 0.1230 0.3017 0.9620
H44_4 H 0.0125 0.0355 0.8097
C47_4 C 0.21074(17) 0.0563(5) 0.9441(2)
H54_4 H 0.1886 0.1330 0.9345
H55_4 H 0.2406 0.0877 0.9780
C48_4 C 0.21150(18) 0.0278(5) 0.8940(2)
H56_4 H 0.2427 0.0231 0.9072
H57_4 H 0.1955 0.1067 0.8655
H62_4 H 0.1634 0.0145 0.9788
loop_
_geom_bond_atom_site_label_1
_geom_bond_atom_site_label_2
_geom_bond_site_symmetry_1
_geom_bond_site_symmetry_2
N5 Ni1 1_555 1_555
C4 N5 1_555 1_555
C5 N5 1_555 1_555
H11 C5 1_555 1_555
H12 C5 1_555 1_555
N10 Ni1 1_555 1_555
C57 C5 1_555 1_555
H75 C57 1_555 1_555
H76 C57 1_555 1_555
N10 C57 1_555 1_555
N12 C52 1_555 1_555
H65 C52 1_555 1_555
C53 N12 1_555 1_555
H67 C53 1_555 1_555
H68 C53 1_555 1_555
H69 C54 1_555 1_555
H70 C54 1_555 1_555
O14 Ni3 1_555 1_555
C53 C54 1_555 1_555
H35 C24 1_555 1_555
C25 C24 1_555 1_555
H36 C25 1_555 1_555
O11 C45 1_555 1_555
O14 C45 1_555 1_555
C37 C21 1_555 1_555
H43 C37 1_555 1_555
C38 C21 1_555 1_555
H45 C38 1_555 1_555
H46 C38 1_555 1_555
C43 C42 1_555 1_555
H49 C43 1_555 1_555
C44 C39 1_555 1_555
H50 C44 1_555 1_555
C45 C42 1_555 1_555
C43 C44 1_555 1_555
Ni1_3 O6 1_555 1_555
O5 C29 1_555 1_555
O6 C29 1_555 1_555
H31 C20 1_555 1_555
C21_2 C20 1_555 1_555
C22 C21_2 1_555 1_555
H33 C22 1_555 1_555
H34 C22 1_555 1_555
C27 C26 1_555 1_555
H37 C27 1_555 1_555
C28 C23 1_555 1_555
H38 C28 1_555 1_555
C29 C26 1_555 1_555
H47 C40 1_555 1_555
C41 C40 1_555 1_555
H48 C41 1_555 1_555
C27 C28 1_555 1_555
N6 C1 1_555 1_555
H3 C1 1_555 1_555
C2 N6 1_555 1_555
H6 C2 1_555 1_555
H7 C3 1_555 1_555
H8 C3 1_555 1_555
C2 C3 1_555 1_555
N4 Ni3_2 1_555 1_555
C6 N4 1_555 1_555
H13 C6 1_555 1_555
H14 C6 1_555 1_555
N11 Ni3_2 1_555 1_555
C55 N11 1_555 1_555
H71 C55 1_555 1_555
C56 C6 1_555 1_555
H73 C56 1_555 1_555
H74 C56 1_555 1_555
N11 C56 1_555 1_555
Ni2 O1 1_555 1_555
O1 C13 1_555 1_555
O2 C13 1_555 1_555
O3 C17 1_555 1_555
N1 Ni2 1_555 1_555
H1 N1 1_555 1_555
N2 Ni2 1_555 1_555
N3 C7 1_555 1_555
C7 N2 1_555 1_555
H15 C7 1_555 1_555
H16 C7 1_555 1_555
C10 N1 1_555 1_555
H21 C10 1_555 1_555
H22 C10 1_555 1_555
C11 N1 1_555 1_555
H23 C11 1_555 1_555
H24 C11 1_555 1_555
C12 N2 1_555 1_555
H26 C12 1_555 1_555
C13 C14 1_555 1_555
C14 C15 1_555 1_555
C15 H27 1_555 1_555
C16 C15 1_555 1_555
H28 C16 1_555 1_555
C17 C16 1_555 1_555
C18 C17 1_555 1_555
H29 C18 1_555 1_555
C19 C14 1_555 1_555
H30 C19 1_555 1_555
N7 Ni2 1_555 1_555
H51 N7 1_555 1_555
N8 Ni2 1_555 1_555
N9 C10 1_555 1_555
C46 N8 1_555 1_555
H52 C46 1_555 1_555
H53 C46 1_555 1_555
C47 N8 1_555 1_555
H54 C47 1_555 1_555
H55 C47 1_555 1_555
C48 N9 1_555 1_555
H56 C48 1_555 1_555
H57 C48 1_555 1_555
C49 N3 1_555 1_555
H58 C49 1_555 1_555
H59 C49 1_555 1_555
C50 N7 1_555 1_555
H60 C50 1_555 1_555
H61 C50 1_555 1_555
C51 N8 1_555 1_555
H62 C51 1_555 1_555
H63 C51 1_555 1_555
O13 Ni2 1_555 1_555
C11 C12 1_555 1_555
C18 C19 1_555 1_555
N7 C49 1_555 1_555
N9 C46 1_555 1_555
C47 C48 1_555 1_555
C50 C51 1_555 1_555
N1_2 Ni4 1_555 1_555
H1_2 N1_2 1_555 1_555
C10_2 N1_2 1_555 1_555
H21_2 C10_2 1_555 1_555
H22_2 C10_2 1_555 1_555
C11_2 N1_2 1_555 1_555
H23_2 C11_2 1_555 1_555
H24_2 C11_2 1_555 1_555
N8_2 Ni4 1_555 1_555
N9_2 C10_2 1_555 1_555
C46_2 N8_2 1_555 1_555
H52_2 C46_2 1_555 1_555
H53_2 C46_2 1_555 1_555
C47_2 N8_2 1_555 1_555
H54_2 C47_2 1_555 1_555
H55_2 C47_2 1_555 1_555
C48_2 N9_2 1_555 1_555
H56_2 C48_2 1_555 1_555
H57_2 C48_2 1_555 1_555
C51_2 N8_2 1_555 1_555
H62_2 C51_2 1_555 1_555
H63_2 C51_2 1_555 1_555
O13_2 Ni4 1_555 1_555
N9_2 C46_2 1_555 1_555
C47_2 C48_2 1_555 1_555
O13 C13_2 1_555 1_555
O2_2 C13_2 1_555 1_555
O13_2 C30 1_555 1_555
H17 C8 1_555 1_555
H18 C8 1_555 1_555
H19 C9 1_555 1_555
H20 C9 1_555 1_555
C8 C9 1_555 1_555
O3_2 C17_2 1_555 1_555
O4_2 C22_2 1_555 1_555
C14_2 C15_2 1_555 1_555
C15_2 H27_2 1_555 1_555
C16_2 C15_2 1_555 1_555
H28_2 C16_2 1_555 1_555
C17_2 C16_2 1_555 1_555
C18_2 C17_2 1_555 1_555
H29_2 C18_2 1_555 1_555
C19_2 C14_2 1_555 1_555
H30_2 C19_2 1_555 1_555
C20_2 O3_2 1_555 1_555
H31_2 C20_2 1_555 1_555
H32_2 C20_2 1_555 1_555
C21_3 C20_2 1_555 1_555
C22_2 C21_3 1_555 1_555
H33_2 C22_2 1_555 1_555
H34_2 C22_2 1_555 1_555
C23_2 O4_2 1_555 1_555
C28_2 C23_2 1_555 1_555
H38_2 C28_2 1_555 1_555
O9 C34 1_555 1_555
O10_2 C38_2 1_555 1_555
C31 C32 1_555 1_555
C32 H39 1_555 1_555
C33 C32 1_555 1_555
H40 C33 1_555 1_555
C34 C33 1_555 1_555
C35 C34 1_555 1_555
H41 C35 1_555 1_555
C36 C31 1_555 1_555
H42 C36 1_555 1_555
C37_2 C21_3 1_555 1_555
H43_2 C37_2 1_555 1_555
H44 C37_2 1_555 1_555
C38_2 C21_3 1_555 1_555
H45_2 C38_2 1_555 1_555
H46_2 C38_2 1_555 1_555
C39_2 O10_2 1_555 1_555
C44_2 C39_2 1_555 1_555
H50_2 C44_2 1_555 1_555
C18_2 C19_2 1_555 1_555
O9 C37_2 1_555 1_555
C35 C36 1_555 1_555
N12_2 C52_2 1_555 1_555
H65_2 C52_2 1_555 1_555
C53_2 N12_2 1_555 1_555
H68_2 C53_2 1_555 1_555
H69_2 C54_2 1_555 1_555
H70_2 C54_2 1_555 1_555
C53_2 C54_2 1_555 1_555
O14_2 Ni1_6 1_555 1_555
N5_2 Ni3_3 1_555 1_555
C4_2 N5_2 1_555 1_555
H9_2 C4_2 1_555 1_555
C5_2 N5_2 1_555 1_555
H11_2 C5_2 1_555 1_555
H12_2 C5_2 1_555 1_555
N10_2 Ni3_3 1_555 1_555
C57_2 C5_2 1_555 1_555
H75_2 C57_2 1_555 1_555
H76_2 C57_2 1_555 1_555
N10_2 C57_2 1_555 1_555
O5_2 C29_2 1_555 1_555
O14_2 C29_2 1_555 1_555
H31_3 C20_3 1_555 1_555
C21_4 C20_3 1_555 1_555
C22_3 C21_4 1_555 1_555
H33_3 C22_3 1_555 1_555
H34_3 C22_3 1_555 1_555
C27_2 C26_2 1_555 1_555
H37_2 C27_2 1_555 1_555
C28_3 C23_3 1_555 1_555
H38_3 C28_3 1_555 1_555
C29_2 C26_2 1_555 1_555
H47_2 C40_2 1_555 1_555
C41_2 C40_2 1_555 1_555
H48_2 C41_2 1_555 1_555
C27_2 C28_3 1_555 1_555
H35_2 C24_2 1_555 1_555
C25_2 C24_2 1_555 1_555
H36_2 C25_2 1_555 1_555
O11_2 C45_2 1_555 1_555
O12 C45_2 1_555 1_555
C37_3 C21_5 1_555 1_555
H43_3 C37_3 1_555 1_555
C38_3 C21_5 1_555 1_555
H45_3 C38_3 1_555 1_555
H46_3 C38_3 1_555 1_555
C43_2 C42_2 1_555 1_555
H49_2 C43_2 1_555 1_555
C44_3 C39_3 1_555 1_555
H50_3 C44_3 1_555 1_555
C45_2 C42_2 1_555 1_555
Ni3_4 O12 1_555 1_555
C43_2 C44_3 1_555 1_555
N4_2 Ni1_8 1_555 1_555
C6_2 N4_2 1_555 1_555
H13_2 C6_2 1_555 1_555
H14_2 C6_2 1_555 1_555
N11_2 Ni1_8 1_555 1_555
C55_2 N11_2 1_555 1_555
C56_2 C6_2 1_555 1_555
H73_2 C56_2 1_555 1_555
H74_2 C56_2 1_555 1_555
N11_2 C56_2 1_555 1_555
N6_2 C1_2 1_555 1_555
H3_2 C1_2 1_555 1_555
C2_2 N6_2 1_555 1_555
H5_2 C2_2 1_555 1_555
H6_2 C2_2 1_555 1_555
H7_2 C3_2 1_555 1_555
H8_2 C3_2 1_555 1_555
C2_2 C3_2 1_555 1_555
O7 C30_2 1_555 1_555
O9_2 C34_2 1_555 1_555
C30_2 C31_2 1_555 1_555
C31_2 C32_2 1_555 1_555
C32_2 H39_2 1_555 1_555
C33_2 C32_2 1_555 1_555
H40_2 C33_2 1_555 1_555
C34_2 C33_2 1_555 1_555
C35_2 C34_2 1_555 1_555
H41_2 C35_2 1_555 1_555
C36_2 C31_2 1_555 1_555
H42_2 C36_2 1_555 1_555
Ni4_2 O7 1_555 1_555
C35_2 C36_2 1_555 1_555
N2_2 Ni4_2 1_555 1_555
N3_2 C7_2 1_555 1_555
C7_2 N2_2 1_555 1_555
H15_2 C7_2 1_555 1_555
H16_2 C7_2 1_555 1_555
C12_2 N2_2 1_555 1_555
H26_2 C12_2 1_555 1_555
N7_2 Ni4_2 1_555 1_555
H51_2 N7_2 1_555 1_555
C49_2 N3_2 1_555 1_555
H58_2 C49_2 1_555 1_555
H59_2 C49_2 1_555 1_555
C50_2 N7_2 1_555 1_555
H60_2 C50_2 1_555 1_555
H61_2 C50_2 1_555 1_555
N7_2 C49_2 1_555 1_555
H17_2 C8_2 1_555 1_555
H18_2 C8_2 1_555 1_555
H19_2 C9_2 1_555 1_555
H20_2 C9_2 1_555 1_555
C8_2 C9_2 1_555 1_555
Ni1_9 O6_2 1_555 1_555
O5_3 C29_3 1_555 1_555
O6_2 C29_3 1_555 1_555
N5_3 Ni1_9 1_555 1_555
H2_3 N5_3 1_555 1_555
C4_3 N5_3 1_555 1_555
H10_3 C4_3 1_555 1_555
C5_3 N5_3 1_555 1_555
H11_3 C5_3 1_555 1_555
H12_3 C5_3 1_555 1_555
H35_3 C24_3 1_555 1_555
C25_3 C24_3 1_555 1_555
H36_3 C25_3 1_555 1_555
C26_3 C25_3 1_555 1_555
C27_3 C26_3 1_555 1_555
H37_3 C27_3 1_555 1_555
C29_3 C26_3 1_555 1_555
O11_3 C45_3 1_555 1_555
O12_2 C45_3 1_555 1_555
H47_3 C40_3 1_555 1_555
C41_3 C40_3 1_555 1_555
H48_3 C41_3 1_555 1_555
C42_3 C41_3 1_555 1_555
C43_3 C42_3 1_555 1_555
H49_3 C43_3 1_555 1_555
C45_3 C42_3 1_555 1_555
N10_3 Ni1_9 1_555 1_555
N12_3 C52_3 1_555 1_555
C52_3 N10_3 1_555 1_555
H65_3 C52_3 1_555 1_555
H66_3 C52_3 1_555 1_555
C53_3 N12_3 1_555 1_555
H68_3 C53_3 1_555 1_555
C54_3 N10_3 1_555 1_555
H69_3 C54_3 1_555 1_555
H70_3 C54_3 1_555 1_555
C57_3 C5_3 1_555 1_555
H75_3 C57_3 1_555 1_555
H76_3 C57_3 1_555 1_555
Ni3_5 O12_2 1_555 1_555
N10_3 C57_3 1_555 1_555
C53_3 C54_3 1_555 1_555
N4_3 Ni1_10 1_555 1_555
N6_3 C1_3 1_555 1_555
C1_3 N4_3 1_555 1_555
H3_3 C1_3 1_555 1_555
H4_3 C1_3 1_555 1_555
C2_3 N6_3 1_555 1_555
H6_3 C2_3 1_555 1_555
C3_3 N4_3 1_555 1_555
H7_3 C3_3 1_555 1_555
H8_3 C3_3 1_555 1_555
C6_3 N4_3 1_555 1_555
H13_3 C6_3 1_555 1_555
H14_3 C6_3 1_555 1_555
N11_3 Ni1_10 1_555 1_555
H64_3 N11_3 1_555 1_555
C55_3 N11_3 1_555 1_555
H72_3 C55_3 1_555 1_555
C56_3 C6_3 1_555 1_555
H73_3 C56_3 1_555 1_555
H74_3 C56_3 1_555 1_555
O14_3 Ni1_10 1_555 1_555
C2_3 C3_3 1_555 1_555
N11_3 C56_3 1_555 1_555
N4_4 Ni3_5 1_555 1_555
N5_4 Ni3_5 1_555 1_555
H2_4 N5_4 1_555 1_555
N6_4 C1_4 1_555 1_555
C1_4 N4_4 1_555 1_555
H3_4 C1_4 1_555 1_555
H4_4 C1_4 1_555 1_555
C2_4 N6_4 1_555 1_555
H5_4 C2_4 1_555 1_555
H6_4 C2_4 1_555 1_555
C3_4 N4_4 1_555 1_555
H7_4 C3_4 1_555 1_555
H8_4 C3_4 1_555 1_555
C4_4 N5_4 1_555 1_555
H9_4 C4_4 1_555 1_555
H10_4 C4_4 1_555 1_555
C5_4 N5_4 1_555 1_555
H11_4 C5_4 1_555 1_555
H12_4 C5_4 1_555 1_555
C6_4 N4_4 1_555 1_555
H13_4 C6_4 1_555 1_555
H14_4 C6_4 1_555 1_555
N10_4 Ni3_5 1_555 1_555
N11_4 Ni3_5 1_555 1_555
H64_4 N11_4 1_555 1_555
N12_4 C52_4 1_555 1_555
C52_4 N10_4 1_555 1_555
H65_4 C52_4 1_555 1_555
H66_4 C52_4 1_555 1_555
C53_4 N12_4 1_555 1_555
H67_4 C53_4 1_555 1_555
H68_4 C53_4 1_555 1_555
C54_4 N10_4 1_555 1_555
H69_4 C54_4 1_555 1_555
H70_4 C54_4 1_555 1_555
C55_4 N11_4 1_555 1_555
H71_4 C55_4 1_555 1_555
H72_4 C55_4 1_555 1_555
C56_4 C6_4 1_555 1_555
H73_4 C56_4 1_555 1_555
H74_4 C56_4 1_555 1_555
C57_4 C5_4 1_555 1_555
H75_4 C57_4 1_555 1_555
H76_4 C57_4 1_555 1_555
O14_4 Ni3_5 1_555 1_555
N6_4 C4_4 1_555 1_555
C2_4 C3_4 1_555 1_555
N10_4 C57_4 1_555 1_555
N11_4 C56_4 1_555 1_555
N12_4 C55_4 1_555 1_555
C53_4 C54_4 1_555 1_555
O5_4 C29_4 1_555 1_555
O14_3 C29_4 1_555 1_555
H35_4 C24_4 1_555 1_555
C25_4 C24_4 1_555 1_555
H36_4 C25_4 1_555 1_555
C26_4 C25_4 1_555 1_555
C27_4 C26_4 1_555 1_555
H37_4 C27_4 1_555 1_555
C29_4 C26_4 1_555 1_555
O11_4 C45_4 1_555 1_555
O14_4 C45_4 1_555 1_555
H47_4 C40_4 1_555 1_555
C41_4 C40_4 1_555 1_555
H48_4 C41_4 1_555 1_555
C42_4 C41_4 1_555 1_555
C43_4 C42_4 1_555 1_555
H49_4 C43_4 1_555 1_555
C45_4 C42_4 1_555 1_555
O3_3 C17_3 1_555 1_555
O4_4 C22_4 1_555 1_555
C14_3 C15_3 1_555 1_555
C15_3 H27_3 1_555 1_555
C16_3 C15_3 1_555 1_555
H28_3 C16_3 1_555 1_555
C17_3 C16_3 1_555 1_555
C18_3 C17_3 1_555 1_555
H29_3 C18_3 1_555 1_555
C19_3 C14_3 1_555 1_555
H30_3 C19_3 1_555 1_555
C20_4 O3_3 1_555 1_555
H31_4 C20_4 1_555 1_555
H32_3 C20_4 1_555 1_555
C21_6 C20_4 1_555 1_555
C22_4 C21_6 1_555 1_555
H33_4 C22_4 1_555 1_555
H34_4 C22_4 1_555 1_555
C23_4 O4_4 1_555 1_555
C28_4 C23_4 1_555 1_555
H38_4 C28_4 1_555 1_555
O9_3 C34_3 1_555 1_555
O10_4 C38_4 1_555 1_555
C31_3 C32_3 1_555 1_555
C32_3 H39_3 1_555 1_555
C33_3 C32_3 1_555 1_555
H40_3 C33_3 1_555 1_555
C34_3 C33_3 1_555 1_555
C35_3 C34_3 1_555 1_555
H41_3 C35_3 1_555 1_555
C36_3 C31_3 1_555 1_555
H42_3 C36_3 1_555 1_555
C37_4 C21_6 1_555 1_555
H43_4 C37_4 1_555 1_555
H44_3 C37_4 1_555 1_555
C38_4 C21_6 1_555 1_555
H45_4 C38_4 1_555 1_555
H46_4 C38_4 1_555 1_555
C39_4 O10_4 1_555 1_555
C44_4 C39_4 1_555 1_555
H50_4 C44_4 1_555 1_555
H54_3 C47_3 1_555 1_555
H55_3 C47_3 1_555 1_555
H56_3 C48_3 1_555 1_555
H57_3 C48_3 1_555 1_555
C18_3 C19_3 1_555 1_555
O9_3 C37_4 1_555 1_555
C35_3 C36_3 1_555 1_555
C47_3 C48_3 1_555 1_555
Ni2_2 O1_2 1_555 1_555
O1_2 C13_3 1_555 1_555
O2_3 C13_3 1_555 1_555
N1_3 Ni2_2 1_555 1_555
H1_3 N1_3 1_555 1_555
N2_3 Ni2_2 1_555 1_555
N3_3 C7_3 1_555 1_555
C7_3 N2_3 1_555 1_555
H15_3 C7_3 1_555 1_555
H16_3 C7_3 1_555 1_555
C8_3 N2_3 1_555 1_555
H17_3 C8_3 1_555 1_555
H18_3 C8_3 1_555 1_555
C9_3 N3_3 1_555 1_555
H19_3 C9_3 1_555 1_555
H20_3 C9_3 1_555 1_555
C10_3 N1_3 1_555 1_555
H21_3 C10_3 1_555 1_555
H22_3 C10_3 1_555 1_555
C11_3 N1_3 1_555 1_555
H23_3 C11_3 1_555 1_555
H24_3 C11_3 1_555 1_555
C12_3 N2_3 1_555 1_555
H25_3 C12_3 1_555 1_555
H26_3 C12_3 1_555 1_555
O7_2 C30_3 1_555 1_555
N7_3 Ni2_2 1_555 1_555
H51_3 N7_3 1_555 1_555
N8_3 Ni2_2 1_555 1_555
N9_3 C10_3 1_555 1_555
C46_3 N8_3 1_555 1_555
H52_3 C46_3 1_555 1_555
H53_3 C46_3 1_555 1_555
C49_3 N3_3 1_555 1_555
H58_3 C49_3 1_555 1_555
H59_3 C49_3 1_555 1_555
C50_3 N7_3 1_555 1_555
H60_3 C50_3 1_555 1_555
H61_3 C50_3 1_555 1_555
C51_3 N8_3 1_555 1_555
H63_3 C51_3 1_555 1_555
Ni4_3 O7_2 1_555 1_555
O13_3 Ni2_2 1_555 1_555
C8_3 C9_3 1_555 1_555
C11_3 C12_3 1_555 1_555
N7_3 C49_3 1_555 1_555
N9_3 C46_3 1_555 1_555
C50_3 C51_3 1_555 1_555
N2_4 Ni4_3 1_555 1_555
N3_4 C7_4 1_555 1_555
C7_4 N2_4 1_555 1_555
H15_4 C7_4 1_555 1_555
H16_4 C7_4 1_555 1_555
C8_4 N2_4 1_555 1_555
H17_4 C8_4 1_555 1_555
H18_4 C8_4 1_555 1_555
C9_4 N3_4 1_555 1_555
H19_4 C9_4 1_555 1_555
H20_4 C9_4 1_555 1_555
C12_4 N2_4 1_555 1_555
H25_4 C12_4 1_555 1_555
H26_4 C12_4 1_555 1_555
N7_4 Ni4_3 1_555 1_555
H51_4 N7_4 1_555 1_555
C49_4 N3_4 1_555 1_555
H58_4 C49_4 1_555 1_555
H59_4 C49_4 1_555 1_555
C50_4 N7_4 1_555 1_555
H60_4 C50_4 1_555 1_555
H61_4 C50_4 1_555 1_555
C8_4 C9_4 1_555 1_555
N7_4 C49_4 1_555 1_555
O13_3 C13_4 1_555 1_555
O2_4 C13_4 1_555 1_555
O3_4 C17_4 1_555 1_555
C13_4 C14_4 1_555 1_555
C14_4 C15_4 1_555 1_555
C15_4 H27_4 1_555 1_555
C16_4 C15_4 1_555 1_555
H28_4 C16_4 1_555 1_555
C17_4 C16_4 1_555 1_555
C18_4 C17_4 1_555 1_555
H29_4 C18_4 1_555 1_555
C19_4 C14_4 1_555 1_555
H30_4 C19_4 1_555 1_555
C18_4 C19_4 1_555 1_555
N1_4 Ni4_4 1_555 1_555
H1_4 N1_4 1_555 1_555
C10_4 N1_4 1_555 1_555
H21_4 C10_4 1_555 1_555
H22_4 C10_4 1_555 1_555
C11_4 N1_4 1_555 1_555
H23_4 C11_4 1_555 1_555
H24_4 C11_4 1_555 1_555
N8_4 Ni4_4 1_555 1_555
N9_4 C10_4 1_555 1_555
C46_4 N8_4 1_555 1_555
H52_4 C46_4 1_555 1_555
H53_4 C46_4 1_555 1_555
C51_4 N8_4 1_555 1_555
H63_4 C51_4 1_555 1_555
O13_4 Ni4_4 1_555 1_555
N9_4 C46_4 1_555 1_555
O13_4 C30_4 1_555 1_555
O9_4 C34_4 1_555 1_555
C30_4 C31_4 1_555 1_555
C31_4 C32_4 1_555 1_555
C32_4 H39_4 1_555 1_555
C33_4 C32_4 1_555 1_555
H40_4 C33_4 1_555 1_555
C34_4 C33_4 1_555 1_555
C35_4 C34_4 1_555 1_555
H41_4 C35_4 1_555 1_555
C36_4 C31_4 1_555 1_555
H42_4 C36_4 1_555 1_555
C35_4 C36_4 1_555 1_555
H54_4 C47_4 1_555 1_555
H55_4 C47_4 1_555 1_555
H56_4 C48_4 1_555 1_555
H57_4 C48_4 1_555 1_555
C47_4 C48_4 1_555 1_555

#END
