
###############################################################################
#
# This file contains modified crystal structure data generated from the
# MOF subset of the Cambridge Structural Database (CSD) v543 
# hosted by the Cambridge Crystallographic Data Centre (CCDC).
#
# This work is licensed under the Creative Commons
# Attribution-NonCommercial-ShareAlike 4.0 International License.
# To view a copy of this license, visit
# http://creativecommons.org/licenses/by-nc-sa/4.0/
# or send a letter to
# Creative Commons, PO Box 1866, Mountain View, CA 94042, USA.
#
# CIF created using the CSD Python API on 29 September 2022
# The structure has been converted into the P1 space group
# The structure has a 3D framework
# The original CSD entry RUXBAP is in the orthorhombic crystal system
# The framework has been calculated to contain at least 10.0% void space
# The void calculation uses a probe of radius 1.32A, grid spacing 0.4
#
###############################################################################

data_RUXBAP
_chemical_formula_moiety         '(C230 H304 N48 Ni8 O48)n'
_symmetry_cell_setting           triclinic
_symmetry_space_group_name_H-M   'P 1'
_symmetry_Int_Tables_number      1
_space_group_name_Hall           'P 1'
loop_
_symmetry_equiv_pos_site_id
_symmetry_equiv_pos_as_xyz
1 x,y,z
_cell_length_a                   11.579(2)
_cell_length_b                   25.062(5)
_cell_length_c                   31.421(6)
_cell_angle_alpha                90
_cell_angle_beta                 90
_cell_angle_gamma                90
_cell_volume                     9118.15
loop_
_atom_site_label
_atom_site_type_symbol
_atom_site_fract_x
_atom_site_fract_y
_atom_site_fract_z
Ni1 Ni 0.12001(4) 0.77665(2) 0.88883(2)
O1 O 0.1468(3) 0.91111(11) 0.84932(9)
O2 O 0.0498(2) 0.83375(10) 0.84627(8)
N1 N 0.0837(4) 0.84475(16) 0.97526(11)
N3 N 0.0155(4) 0.71931(12) 0.85941(12)
N4 N 0.2567(3) 0.76155(13) 0.84998(9)
H1 H 0.2976 0.7314 0.8629
N5 N 0.1378(6) 0.70717(18) 0.80167(12)
N6 N 0.2188(3) 0.83631(12) 0.91428(9)
H2 H 0.1951 0.8692 0.8999
C7 C 0.0125(3) 0.89697(13) 0.79313(10)
C8 C 0.0495(4) 0.93978(14) 0.76884(11)
H9 H 0.1149 0.9584 0.7774
H10 H 0.0212 0.9840 0.7165
C17 C 0.0741(4) 0.88001(15) 0.83260(12)
C19 C 0.0008(5) 0.8783(2) 0.94999(15)
H17 H 0.0417 0.8996 0.9291
C20 C 0.0320(5) 0.79245(18) 0.97483(12)
H20 H 0.0894 0.7651 0.9801
C21 C 0.2055(5) 0.84647(19) 0.96024(13)
H21 H 0.2499 0.8201 0.9758
H22 H 0.2376 0.8813 0.9667
C22 C 0.3385(4) 0.82567(19) 0.90038(15)
H23 H 0.3723 0.7978 0.9178
H24 H 0.3850 0.8576 0.9035
C23 C 0.3360(4) 0.80840(18) 0.85408(14)
H25 H 0.3089 0.8375 0.8364
H26 H 0.4131 0.7987 0.8448
C24 C 0.2311(5) 0.7453(2) 0.80593(12)
H27 H 0.2118 0.7769 0.7896
H28 H 0.3003 0.7300 0.7936
C25 C 0.0242(6) 0.7267(2) 0.81222(15)
H30 H 0.0165 0.7641 0.8046
C26 C 0.0584(6) 0.66270(17) 0.86263(18)
H32 H 0.0906 0.6558 0.8906
C27 C 0.1503(6) 0.6586(2) 0.82879(17)
H33 H 0.2264 0.6574 0.8416
H34 H 0.1393 0.6265 0.8119
O13 O 0.1901(2) 0.72057(9) 0.93348(7)
O3 O 0.6439(3) 0.18691(12) 0.40782(8)
O4 O 0.8099(2) 0.22057(9) 0.43348(7)
O5 O 0.6791(2) 0.05824(9) 0.58052(7)
C1 C 0.7500 -0.0000 0.63442(12)
H4 H 0.8686 0.0182 0.6814
C3 C 0.7789(3) 0.04764(12) 0.60650(9)
H5 H 0.7970 0.0785 0.6240
H6 H 0.8453 0.0397 0.5887
C10 C 0.6936(3) 0.09241(13) 0.54672(9)
C11 C 0.7900(3) 0.12427(13) 0.54137(10)
H11 H 0.8492 0.1242 0.5614
C12 C 0.7965(3) 0.15624(12) 0.50562(10)
H12 H 0.8610 0.1778 0.5019
C13 C 0.7102(3) 0.15714(13) 0.47529(9)
C14 C 0.6139(3) 0.12627(16) 0.48204(11)
H13 H 0.5537 0.1271 0.4625
C15 C 0.6056(3) 0.09401(15) 0.51739(11)
H14 H 0.5400 0.0732 0.5215
C16 C 0.7217(3) 0.19102(14) 0.43609(10)
O7 O 0.3532(3) 0.08889(11) 0.84932(9)
O8 O 0.4502(2) 0.16625(10) 0.84627(8)
O12 O 0.6709(3) 0.05888(9) 0.68540(7)
C30 C 0.6454(3) 0.01125(12) 0.66205(9)
H39 H 0.5773 0.0163 0.6445
C32 C 0.6057(3) 0.07123(12) 0.72029(10)
C33 C 0.6460(3) 0.11434(14) 0.74381(11)
H43 H 0.7118 0.1327 0.7352
C34 C 0.5879(3) 0.12964(14) 0.78001(12)
H44 H 0.6156 0.1581 0.7960
C35 C 0.4875(3) 0.10303(13) 0.79313(10)
C36 C 0.4505(4) 0.06022(14) 0.76884(11)
H45 H 0.3851 0.0416 0.7774
C37 C 0.5067(3) 0.04435(14) 0.73260(11)
H46 H 0.4788 0.0160 0.7165
C45 C 0.4259(4) 0.11999(15) 0.83260(12)
Ni2 Ni 0.37999(4) 0.22335(2) 0.88883(2)
N7 N 0.4163(4) 0.15525(16) 0.97526(11)
N8 N 0.5165(3) 0.21269(13) 0.93174(11)
N9 N 0.4845(4) 0.28069(12) 0.85941(12)
N10 N 0.2433(3) 0.23845(13) 0.84998(9)
H51 H 0.2024 0.2686 0.8629
N11 N 0.3622(6) 0.29283(18) 0.80167(12)
N12 N 0.2812(3) 0.16369(12) 0.91428(9)
H52 H 0.3049 0.1308 0.8999
C46 C 0.5799(5) 0.16132(19) 0.92825(16)
H53 H 0.6537 0.1631 0.9427
H54 H 0.5926 0.1517 0.8987
C47 C 0.4992(5) 0.1217(2) 0.94999(15)
H55 H 0.4583 0.1004 0.9291
H56 H 0.5423 0.0980 0.9685
C48 C 0.4680(5) 0.20755(18) 0.97483(12)
H57 H 0.5282 0.2103 0.9962
H58 H 0.4106 0.2349 0.9801
C49 C 0.2945(5) 0.15353(19) 0.96024(13)
H59 H 0.2501 0.1799 0.9758
H60 H 0.2624 0.1187 0.9667
C50 C 0.1615(4) 0.17433(19) 0.90038(15)
H61 H 0.1277 0.2022 0.9178
H62 H 0.1150 0.1424 0.9035
C51 C 0.1640(4) 0.19160(18) 0.85408(14)
H63 H 0.1911 0.1625 0.8364
H64 H 0.0869 0.2013 0.8448
C52 C 0.2689(5) 0.2547(2) 0.80593(12)
H65 H 0.2882 0.2231 0.7896
H66 H 0.1997 0.2700 0.7936
C53 C 0.4758(6) 0.2733(2) 0.81222(15)
H67 H 0.5350 0.2936 0.7976
H68 H 0.4835 0.2359 0.8046
C54 C 0.4416(6) 0.33730(17) 0.86263(18)
H69 H 0.5036 0.3624 0.8573
H70 H 0.4094 0.3442 0.8906
C55 C 0.3497(6) 0.3414(2) 0.82879(17)
H71 H 0.2736 0.3426 0.8416
H72 H 0.3607 0.3735 0.8119
C56 C 0.6009(5) 0.2714(2) 0.8778(2)
H73 H 0.6491 0.3026 0.8733
H74 H 0.6372 0.2413 0.8638
C57 C 0.5900(4) 0.2605(2) 0.92458(18)
H75 H 0.6660 0.2546 0.9367
H76 H 0.5559 0.2912 0.9386
Ni3 Ni 0.87999(4) 0.27665(2) 0.38883(2)
O14 O 0.3099(2) 0.27943(9) 0.93348(7)
O3_2 O 0.3561(3) 0.68691(12) 0.90782(8)
C13_2 C 0.2898(3) 0.65714(13) 0.97529(9)
C14_2 C 0.3861(3) 0.62627(16) 0.98204(11)
H13_2 H 0.4463 0.6271 0.9625
C16_2 C 0.2783(3) 0.69102(14) 0.93609(10)
O9 O 0.1439(3) 0.31309(12) 0.90782(8)
C41 C 0.2102(3) 0.34286(13) 0.97529(9)
C42 C 0.1139(3) 0.37373(16) 0.98204(11)
H49 H 0.0537 0.3729 0.9625
C44 C 0.2217(3) 0.30898(14) 0.93609(10)
O1_2 O 0.8532(3) 0.41111(11) 0.34932(9)
O2_2 O 0.9502(2) 0.33375(10) 0.34627(8)
N1_2 N 0.9163(4) 0.34475(16) 0.47526(11)
N3_2 N 0.9845(4) 0.21931(12) 0.35941(12)
N4_2 N 0.7433(3) 0.26155(13) 0.34998(9)
H1_2 H 0.7024 0.2314 0.3629
N5_2 N 0.8622(6) 0.20717(18) 0.30167(12)
N6_2 N 0.7812(3) 0.33631(12) 0.41428(9)
H2_2 H 0.8049 0.3692 0.3999
C7_2 C 0.9875(3) 0.39697(13) 0.29313(10)
C8_2 C 0.9505(4) 0.43978(14) 0.26884(11)
H9_2 H 0.8851 0.4584 0.2774
H10_2 H 0.9788 0.4840 0.2165
C17_2 C 0.9259(4) 0.38001(15) 0.33260(12)
C19_2 C 0.9992(5) 0.3783(2) 0.44999(15)
H17_2 H 0.9583 0.3996 0.4291
C20_2 C 0.9680(5) 0.29245(18) 0.47483(12)
H20_2 H 0.9106 0.2651 0.4801
C21_2 C 0.7945(5) 0.34647(19) 0.46024(13)
H21_2 H 0.7501 0.3201 0.4758
H22_2 H 0.7624 0.3813 0.4667
C22_2 C 0.6615(4) 0.32567(19) 0.40038(15)
H23_2 H 0.6277 0.2978 0.4178
H24_2 H 0.6150 0.3576 0.4035
C23_2 C 0.6640(4) 0.30840(18) 0.35408(14)
H25_2 H 0.6911 0.3375 0.3364
H26_2 H 0.5869 0.2987 0.3448
C24_2 C 0.7689(5) 0.2453(2) 0.30593(12)
H27_2 H 0.7882 0.2769 0.2896
H28_2 H 0.6997 0.2300 0.2936
C25_2 C 0.9758(6) 0.2267(2) 0.31222(15)
H30_2 H 0.9835 0.2641 0.3046
C26_2 C 0.9416(6) 0.16270(17) 0.36263(18)
H32_2 H 0.9094 0.1558 0.3906
C27_2 C 0.8497(6) 0.1586(2) 0.32879(17)
H33_2 H 0.7736 0.1574 0.3416
H34_2 H 0.8607 0.1265 0.3119
O6 O 0.8291(3) 0.94112(9) 0.68540(7)
N2 N 0.9835(3) 0.78731(13) 0.93174(11)
C1_2 C 0.7500 1.0000 0.63442(12)
C2 C 0.8546(3) 0.98875(12) 0.66205(9)
H3 H 0.9227 0.9837 0.6445
C4 C 0.8943(3) 0.92877(12) 0.72029(10)
C5 C 0.8540(3) 0.88566(14) 0.74381(11)
H7 H 0.7882 0.8673 0.7352
C6 C 0.9121(3) 0.87036(14) 0.78001(12)
H8 H 0.8844 0.8419 0.7960
C9 C 0.9933(3) 0.95565(14) 0.73260(11)
C18 C 0.9201(5) 0.83868(19) 0.92825(16)
H15 H 0.8463 0.8369 0.9427
H16 H 0.9074 0.8483 0.8987
H18 H 0.9577 0.9020 0.9685
H19 H 0.9718 0.7897 0.9962
H29 H 0.9650 0.7064 0.7976
H31 H 0.9964 0.6376 0.8573
C28 C 0.8991(5) 0.7286(2) 0.8778(2)
H35 H 0.8509 0.6974 0.8733
H36 H 0.8628 0.7587 0.8638
C29 C 0.9100(4) 0.7395(2) 0.92458(18)
H37 H 0.8340 0.7454 0.9367
H38 H 0.9441 0.7088 0.9386
O9_2 O 0.8561(3) 0.81309(12) 0.40782(8)
O10 O 0.6901(2) 0.77943(9) 0.43348(7)
O11 O 0.8209(2) 0.94176(9) 0.58052(7)
H40 H 0.6314 0.9818 0.6814
C31 C 0.7211(3) 0.95236(12) 0.60650(9)
H41 H 0.7030 0.9215 0.6240
H42 H 0.6547 0.9603 0.5887
C38 C 0.8064(3) 0.90759(13) 0.54672(9)
C39 C 0.7100(3) 0.87573(13) 0.54137(10)
H47 H 0.6508 0.8758 0.5614
C40 C 0.7035(3) 0.84376(12) 0.50562(10)
H48 H 0.6390 0.8222 0.5019
C41_2 C 0.7898(3) 0.84286(13) 0.47529(9)
C42_2 C 0.8861(3) 0.87373(16) 0.48204(11)
H49_2 H 0.9463 0.8729 0.4625
C43 C 0.8944(3) 0.90599(15) 0.51739(11)
H50 H 0.9600 0.9268 0.5215
C44_2 C 0.7783(3) 0.80898(14) 0.43609(10)
Ni4 Ni 0.62001(4) 0.72335(2) 0.38883(2)
O5_2 O 0.3209(2) 0.55824(9) 0.08052(7)
O6_2 O 0.1709(3) 0.44112(9) 0.18540(7)
N2_2 N 0.0165(3) 0.28731(13) 0.43174(11)
C1_3 C 0.2500 0.5000 0.13442(12)
C2_2 C 0.1454(3) 0.48875(12) 0.16205(9)
H3_2 H 0.0773 0.4837 0.1445
H4_2 H 0.1314 0.5182 0.1814
C3_2 C 0.2211(3) 0.54764(12) 0.10650(9)
H5_2 H 0.2030 0.5785 0.1240
H6_2 H 0.1547 0.5397 0.0887
C4_2 C 0.1057(3) 0.42877(12) 0.22029(10)
C5_2 C 0.1460(3) 0.38566(14) 0.24381(11)
H7_2 H 0.2118 0.3673 0.2352
C6_2 C 0.0879(3) 0.37036(14) 0.28001(12)
H8_2 H 0.1156 0.3419 0.2960
C9_2 C 0.0067(3) 0.45565(14) 0.23260(11)
C10_2 C 0.3064(3) 0.59241(13) 0.04672(9)
C11_2 C 0.2100(3) 0.62427(13) 0.04137(10)
H11_2 H 0.1508 0.6242 0.0614
C12_2 C 0.2035(3) 0.65624(12) 0.00562(10)
H12_2 H 0.1390 0.6778 0.0019
C15_2 C 0.3944(3) 0.59401(15) 0.01739(11)
H14_2 H 0.4600 0.5732 0.0215
C18_2 C 0.0799(5) 0.33868(19) 0.42825(16)
H15_2 H 0.1537 0.3369 0.4427
H16_2 H 0.0926 0.3483 0.3987
H18_2 H 0.0423 0.4020 0.4685
H19_2 H 0.0282 0.2897 0.4962
H29_2 H 0.0350 0.2064 0.2976
H31_2 H 0.0036 0.1376 0.3573
C28_2 C 0.1009(5) 0.2286(2) 0.3778(2)
H35_2 H 0.1491 0.1974 0.3733
H36_2 H 0.1372 0.2587 0.3638
C29_2 C 0.0900(4) 0.2395(2) 0.42458(18)
H37_2 H 0.1660 0.2454 0.4367
H38_2 H 0.0559 0.2088 0.4386
O7_2 O 0.6468(3) 0.58889(11) 0.34932(9)
O8_2 O 0.5498(2) 0.66625(10) 0.34627(8)
O11_2 O 0.1791(2) 0.44176(9) 0.08052(7)
O12_2 O 0.3291(3) 0.55888(9) 0.18540(7)
C30_2 C 0.3546(3) 0.51125(12) 0.16205(9)
H39_2 H 0.4227 0.5163 0.1445
H40_2 H 0.3686 0.4818 0.1814
C31_2 C 0.2789(3) 0.45236(12) 0.10650(9)
H41_2 H 0.2970 0.4215 0.1240
H42_2 H 0.3453 0.4603 0.0887
C32_2 C 0.3943(3) 0.57123(12) 0.22029(10)
C33_2 C 0.3540(3) 0.61434(14) 0.24381(11)
H43_2 H 0.2882 0.6327 0.2352
C34_2 C 0.4121(3) 0.62964(14) 0.28001(12)
H44_2 H 0.3844 0.6581 0.2960
C35_2 C 0.5125(3) 0.60303(13) 0.29313(10)
C36_2 C 0.5495(4) 0.56022(14) 0.26884(11)
H45_2 H 0.6149 0.5416 0.2774
C37_2 C 0.4933(3) 0.54435(14) 0.23260(11)
H46_2 H 0.5212 0.5160 0.2165
C38_2 C 0.1936(3) 0.40759(13) 0.04672(9)
C39_2 C 0.2900(3) 0.37573(13) 0.04137(10)
H47_2 H 0.3492 0.3758 0.0614
C40_2 C 0.2965(3) 0.34376(12) 0.00562(10)
H48_2 H 0.3610 0.3222 0.0019
C43_2 C 0.1056(3) 0.40599(15) 0.01739(11)
H50_2 H 0.0400 0.4268 0.0215
C45_2 C 0.5741(4) 0.61999(15) 0.33260(12)
N7_2 N 0.5837(4) 0.65525(16) 0.47526(11)
N8_2 N 0.4835(3) 0.71269(13) 0.43174(11)
N9_2 N 0.5155(4) 0.78069(12) 0.35941(12)
N10_2 N 0.7567(3) 0.73845(13) 0.34998(9)
H51_2 H 0.7976 0.7686 0.3629
N11_2 N 0.6378(6) 0.79283(18) 0.30167(12)
N12_2 N 0.7188(3) 0.66369(12) 0.41428(9)
H52_2 H 0.6951 0.6308 0.3999
C46_2 C 0.4201(5) 0.66132(19) 0.42825(16)
H53_2 H 0.3463 0.6631 0.4427
H54_2 H 0.4074 0.6517 0.3987
C47_2 C 0.5008(5) 0.6217(2) 0.44999(15)
H55_2 H 0.5417 0.6004 0.4291
H56_2 H 0.4577 0.5980 0.4685
C48_2 C 0.5320(5) 0.70755(18) 0.47483(12)
H57_2 H 0.4718 0.7103 0.4962
H58_2 H 0.5894 0.7349 0.4801
C49_2 C 0.7055(5) 0.65353(19) 0.46024(13)
H59_2 H 0.7499 0.6799 0.4758
H60_2 H 0.7376 0.6187 0.4667
C50_2 C 0.8385(4) 0.67433(19) 0.40038(15)
H61_2 H 0.8723 0.7022 0.4178
H62_2 H 0.8850 0.6424 0.4035
C51_2 C 0.8360(4) 0.69160(18) 0.35408(14)
H63_2 H 0.8089 0.6625 0.3364
H64_2 H 0.9131 0.7013 0.3448
C52_2 C 0.7311(5) 0.7547(2) 0.30593(12)
H65_2 H 0.7118 0.7231 0.2896
H66_2 H 0.8003 0.7700 0.2936
C53_2 C 0.5242(6) 0.7733(2) 0.31222(15)
H67_2 H 0.4650 0.7936 0.2976
H68_2 H 0.5165 0.7359 0.3046
C54_2 C 0.5584(6) 0.83730(17) 0.36263(18)
H69_2 H 0.4964 0.8624 0.3573
H70_2 H 0.5906 0.8442 0.3906
C55_2 C 0.6503(6) 0.8414(2) 0.32879(17)
H71_2 H 0.7264 0.8426 0.3416
H72_2 H 0.6393 0.8735 0.3119
C56_2 C 0.3991(5) 0.7714(2) 0.3778(2)
H73_2 H 0.3509 0.8026 0.3733
H74_2 H 0.3628 0.7413 0.3638
C57_2 C 0.4100(4) 0.7605(2) 0.42458(18)
H75_2 H 0.3340 0.7546 0.4367
H76_2 H 0.4441 0.7912 0.4386
Ni1_2 Ni 0.12001(4) 0.72335(2) 0.61117(2)
O1_3 O 0.1468(3) 0.58889(11) 0.65068(9)
O2_3 O 0.0498(2) 0.66625(10) 0.65373(8)
N1_3 N 0.0837(4) 0.65525(16) 0.52474(11)
N3_3 N 0.0155(4) 0.78069(12) 0.64059(12)
N4_3 N 0.2567(3) 0.73845(13) 0.65002(9)
H1_3 H 0.2976 0.7686 0.6371
N5_3 N 0.1378(6) 0.79283(18) 0.69833(12)
N6_3 N 0.2188(3) 0.66369(12) 0.58572(9)
H2_3 H 0.1951 0.6308 0.6001
C7_3 C 0.0125(3) 0.60303(13) 0.70687(10)
C8_3 C 0.0495(4) 0.56022(14) 0.73116(11)
H9_3 H 0.1149 0.5416 0.7226
H10_3 H 0.0212 0.5160 0.7835
C17_3 C 0.0741(4) 0.61999(15) 0.66740(12)
C19_3 C 0.0008(5) 0.6217(2) 0.55001(15)
H17_3 H 0.0417 0.6004 0.5709
C20_3 C 0.0320(5) 0.70755(18) 0.52517(12)
H20_3 H 0.0894 0.7349 0.5199
C21_3 C 0.2055(5) 0.65353(19) 0.53976(13)
H21_3 H 0.2499 0.6799 0.5242
H22_3 H 0.2376 0.6187 0.5333
C22_3 C 0.3385(4) 0.67433(19) 0.59962(15)
H23_3 H 0.3723 0.7022 0.5822
H24_3 H 0.3850 0.6424 0.5965
C23_3 C 0.3360(4) 0.69160(18) 0.64592(14)
H25_3 H 0.3089 0.6625 0.6636
H26_3 H 0.4131 0.7013 0.6552
C24_3 C 0.2311(5) 0.7547(2) 0.69407(12)
H27_3 H 0.2118 0.7231 0.7104
H28_3 H 0.3003 0.7700 0.7064
C25_3 C 0.0242(6) 0.7733(2) 0.68778(15)
H30_3 H 0.0165 0.7359 0.6954
C26_3 C 0.0584(6) 0.83730(17) 0.63737(18)
H32_3 H 0.0906 0.8442 0.6094
C27_3 C 0.1503(6) 0.8414(2) 0.67121(17)
H33_3 H 0.2264 0.8426 0.6584
H34_3 H 0.1393 0.8735 0.6881
O13_2 O 0.1901(2) 0.77943(9) 0.56652(7)
O3_3 O 0.6439(3) 0.31309(12) 0.09218(8)
O4_2 O 0.8099(2) 0.27943(9) 0.06652(7)
C13_3 C 0.7102(3) 0.34286(13) 0.02471(9)
C14_3 C 0.6139(3) 0.37373(16) 0.01796(11)
H13_3 H 0.5537 0.3729 0.0375
C16_3 C 0.7217(3) 0.30898(14) 0.06391(10)
O9_3 O 0.8561(3) 0.68691(12) 0.09218(8)
O10_2 O 0.6901(2) 0.72057(9) 0.06652(7)
C41_3 C 0.7898(3) 0.65714(13) 0.02471(9)
C42_3 C 0.8861(3) 0.62627(16) 0.01796(11)
H49_3 H 0.9463 0.6271 0.0375
C44_3 C 0.7783(3) 0.69102(14) 0.06391(10)
Ni3_2 Ni 0.87999(4) 0.22335(2) 0.11117(2)
Ni4_2 Ni 0.62001(4) 0.77665(2) 0.11117(2)
O3_4 O 0.3561(3) 0.81309(12) 0.59218(8)
O5_3 O 0.3209(2) 0.94176(9) 0.41948(7)
C1_4 C 0.2500 1.0000 0.36558(12)
H4_3 H 0.1314 0.9818 0.3186
C3_3 C 0.2211(3) 0.95236(12) 0.39350(9)
H5_3 H 0.2030 0.9215 0.3760
H6_3 H 0.1547 0.9603 0.4113
C10_3 C 0.3064(3) 0.90759(13) 0.45328(9)
C11_3 C 0.2100(3) 0.87573(13) 0.45863(10)
H11_3 H 0.1508 0.8758 0.4386
C12_3 C 0.2035(3) 0.84376(12) 0.49438(10)
H12_3 H 0.1390 0.8222 0.4981
C13_4 C 0.2898(3) 0.84286(13) 0.52471(9)
C14_4 C 0.3861(3) 0.87373(16) 0.51796(11)
H13_4 H 0.4463 0.8729 0.5375
C15_3 C 0.3944(3) 0.90599(15) 0.48261(11)
H14_3 H 0.4600 0.9268 0.4785
C16_4 C 0.2783(3) 0.80898(14) 0.56391(10)
O7_3 O 0.6468(3) 0.91111(11) 0.15068(9)
O8_3 O 0.5498(2) 0.83375(10) 0.15373(8)
O12_3 O 0.3291(3) 0.94112(9) 0.31460(7)
C30_3 C 0.3546(3) 0.98875(12) 0.33795(9)
H39_3 H 0.4227 0.9837 0.3555
C32_3 C 0.3943(3) 0.92877(12) 0.27971(10)
C33_3 C 0.3540(3) 0.88566(14) 0.25619(11)
H43_3 H 0.2882 0.8673 0.2648
C34_3 C 0.4121(3) 0.87036(14) 0.21999(12)
H44_3 H 0.3844 0.8419 0.2040
C35_3 C 0.5125(3) 0.89697(13) 0.20687(10)
C36_3 C 0.5495(4) 0.93978(14) 0.23116(11)
H45_3 H 0.6149 0.9584 0.2226
C37_3 C 0.4933(3) 0.95565(14) 0.26740(11)
H46_3 H 0.5212 0.9840 0.2835
C45_3 C 0.5741(4) 0.88001(15) 0.16740(12)
N7_3 N 0.5837(4) 0.84475(16) 0.02474(11)
N8_3 N 0.4835(3) 0.78731(13) 0.06826(11)
N9_3 N 0.5155(4) 0.71931(12) 0.14059(12)
N10_3 N 0.7567(3) 0.76155(13) 0.15002(9)
H51_3 H 0.7976 0.7314 0.1371
N11_3 N 0.6378(6) 0.70717(18) 0.19833(12)
N12_3 N 0.7188(3) 0.83631(12) 0.08572(9)
H52_3 H 0.6951 0.8692 0.1001
C46_3 C 0.4201(5) 0.83868(19) 0.07175(16)
H53_3 H 0.3463 0.8369 0.0573
H54_3 H 0.4074 0.8483 0.1013
C47_3 C 0.5008(5) 0.8783(2) 0.05001(15)
H55_3 H 0.5417 0.8996 0.0709
H56_3 H 0.4577 0.9020 0.0315
C48_3 C 0.5320(5) 0.79245(18) 0.02517(12)
H57_3 H 0.4718 0.7897 0.0038
H58_3 H 0.5894 0.7651 0.0199
C49_3 C 0.7055(5) 0.84647(19) 0.03976(13)
H59_3 H 0.7499 0.8201 0.0242
H60_3 H 0.7376 0.8813 0.0333
C50_3 C 0.8385(4) 0.82567(19) 0.09962(15)
H61_3 H 0.8723 0.7978 0.0822
H62_3 H 0.8850 0.8576 0.0965
C51_3 C 0.8360(4) 0.80840(18) 0.14592(14)
H63_3 H 0.8089 0.8375 0.1636
H64_3 H 0.9131 0.7987 0.1552
C52_3 C 0.7311(5) 0.7453(2) 0.19407(12)
H65_3 H 0.7118 0.7769 0.2104
H66_3 H 0.8003 0.7300 0.2064
C53_3 C 0.5242(6) 0.7267(2) 0.18778(15)
H67_3 H 0.4650 0.7064 0.2024
H68_3 H 0.5165 0.7641 0.1954
C54_3 C 0.5584(6) 0.66270(17) 0.13737(18)
H69_3 H 0.4964 0.6376 0.1427
H70_3 H 0.5906 0.6558 0.1094
C55_3 C 0.6503(6) 0.6586(2) 0.17121(17)
H71_3 H 0.7264 0.6574 0.1584
H72_3 H 0.6393 0.6265 0.1881
C56_3 C 0.3991(5) 0.7286(2) 0.1222(2)
H73_3 H 0.3509 0.6974 0.1267
H74_3 H 0.3628 0.7587 0.1362
C57_3 C 0.4100(4) 0.7395(2) 0.07542(18)
H75_3 H 0.3340 0.7454 0.0633
H76_3 H 0.4441 0.7088 0.0614
O1_4 O 0.8532(3) 0.08889(11) 0.15068(9)
O2_4 O 0.9502(2) 0.16625(10) 0.15373(8)
N1_4 N 0.9163(4) 0.15525(16) 0.02474(11)
N3_4 N 0.9845(4) 0.28069(12) 0.14059(12)
N4_4 N 0.7433(3) 0.23845(13) 0.15002(9)
H1_4 H 0.7024 0.2686 0.1371
N5_4 N 0.8622(6) 0.29283(18) 0.19833(12)
N6_4 N 0.7812(3) 0.16369(12) 0.08572(9)
H2_4 H 0.8049 0.1308 0.1001
C7_4 C 0.9875(3) 0.10303(13) 0.20687(10)
C8_4 C 0.9505(4) 0.06022(14) 0.23116(11)
H9_4 H 0.8851 0.0416 0.2226
H10_4 H 0.9788 0.0160 0.2835
C17_4 C 0.9259(4) 0.11999(15) 0.16740(12)
C19_4 C 0.9992(5) 0.1217(2) 0.05001(15)
H17_4 H 0.9583 0.1004 0.0709
C20_4 C 0.9680(5) 0.20755(18) 0.02517(12)
H20_4 H 0.9106 0.2349 0.0199
C21_4 C 0.7945(5) 0.15353(19) 0.03976(13)
H21_4 H 0.7501 0.1799 0.0242
H22_4 H 0.7624 0.1187 0.0333
C22_4 C 0.6615(4) 0.17433(19) 0.09962(15)
H23_4 H 0.6277 0.2022 0.0822
H24_4 H 0.6150 0.1424 0.0965
C23_4 C 0.6640(4) 0.19160(18) 0.14592(14)
H25_4 H 0.6911 0.1625 0.1636
H26_4 H 0.5869 0.2013 0.1552
C24_4 C 0.7689(5) 0.2547(2) 0.19407(12)
H27_4 H 0.7882 0.2231 0.2104
H28_4 H 0.6997 0.2700 0.2064
C25_4 C 0.9758(6) 0.2733(2) 0.18778(15)
H30_4 H 0.9835 0.2359 0.1954
C26_4 C 0.9416(6) 0.33730(17) 0.13737(18)
H32_4 H 0.9094 0.3442 0.1094
C27_4 C 0.8497(6) 0.3414(2) 0.17121(17)
H33_4 H 0.7736 0.3426 0.1584
H34_4 H 0.8607 0.3735 0.1881
O5_4 O 0.6791(2) 0.44176(9) 0.91948(7)
O6_3 O 0.8291(3) 0.55888(9) 0.81460(7)
N2_3 N 0.9835(3) 0.71269(13) 0.56826(11)
C1_5 C 0.7500 0.5000 0.86558(12)
C2_3 C 0.8546(3) 0.51125(12) 0.83795(9)
H3_3 H 0.9227 0.5163 0.8555
H4_4 H 0.8686 0.4818 0.8186
C3_4 C 0.7789(3) 0.45236(12) 0.89350(9)
H5_4 H 0.7970 0.4215 0.8760
H6_4 H 0.8453 0.4603 0.9113
C4_3 C 0.8943(3) 0.57123(12) 0.77971(10)
C5_3 C 0.8540(3) 0.61434(14) 0.75619(11)
H7_3 H 0.7882 0.6327 0.7648
C6_3 C 0.9121(3) 0.62964(14) 0.71999(12)
H8_3 H 0.8844 0.6581 0.7040
C9_3 C 0.9933(3) 0.54435(14) 0.76740(11)
C10_4 C 0.6936(3) 0.40759(13) 0.95328(9)
C11_4 C 0.7900(3) 0.37573(13) 0.95863(10)
H11_4 H 0.8492 0.3758 0.9386
C12_4 C 0.7965(3) 0.34376(12) 0.99438(10)
H12_4 H 0.8610 0.3222 0.9981
C15_4 C 0.6056(3) 0.40599(15) 0.98261(11)
H14_4 H 0.5400 0.4268 0.9785
C18_3 C 0.9201(5) 0.66132(19) 0.57175(16)
H15_3 H 0.8463 0.6631 0.5573
H16_3 H 0.9074 0.6517 0.6013
H18_3 H 0.9577 0.5980 0.5315
H19_3 H 0.9718 0.7103 0.5038
H29_3 H 0.9650 0.7936 0.7024
H31_3 H 0.9964 0.8624 0.6427
C28_3 C 0.8991(5) 0.7714(2) 0.6222(2)
H35_3 H 0.8509 0.8026 0.6267
H36_3 H 0.8628 0.7413 0.6362
C29_3 C 0.9100(4) 0.7605(2) 0.57542(18)
H37_3 H 0.8340 0.7546 0.5633
H38_3 H 0.9441 0.7912 0.5614
O7_4 O 0.3532(3) 0.41111(11) 0.65068(9)
O8_4 O 0.4502(2) 0.33375(10) 0.65373(8)
O11_3 O 0.8209(2) 0.55824(9) 0.91948(7)
O12_4 O 0.6709(3) 0.44112(9) 0.81460(7)
C30_4 C 0.6454(3) 0.48875(12) 0.83795(9)
H39_4 H 0.5773 0.4837 0.8555
H40_3 H 0.6314 0.5182 0.8186
C31_3 C 0.7211(3) 0.54764(12) 0.89350(9)
H41_3 H 0.7030 0.5785 0.8760
H42_3 H 0.6547 0.5397 0.9113
C32_4 C 0.6057(3) 0.42877(12) 0.77971(10)
C33_4 C 0.6460(3) 0.38566(14) 0.75619(11)
H43_4 H 0.7118 0.3673 0.7648
C34_4 C 0.5879(3) 0.37036(14) 0.71999(12)
H44_4 H 0.6156 0.3419 0.7040
C35_4 C 0.4875(3) 0.39697(13) 0.70687(10)
C36_4 C 0.4505(4) 0.43978(14) 0.73116(11)
H45_4 H 0.3851 0.4584 0.7226
C37_4 C 0.5067(3) 0.45565(14) 0.76740(11)
H46_4 H 0.4788 0.4840 0.7835
C38_3 C 0.8064(3) 0.59241(13) 0.95328(9)
C39_3 C 0.7100(3) 0.62427(13) 0.95863(10)
H47_3 H 0.6508 0.6242 0.9386
C40_3 C 0.7035(3) 0.65624(12) 0.99438(10)
H48_3 H 0.6390 0.6778 0.9981
C43_3 C 0.8944(3) 0.59401(15) 0.98261(11)
H50_3 H 0.9600 0.5732 0.9785
C45_4 C 0.4259(4) 0.38001(15) 0.66740(12)
Ni2_2 Ni 0.37999(4) 0.27665(2) 0.61117(2)
N7_4 N 0.4163(4) 0.34475(16) 0.52474(11)
N8_4 N 0.5165(3) 0.28731(13) 0.56826(11)
N9_4 N 0.4845(4) 0.21931(12) 0.64059(12)
N10_4 N 0.2433(3) 0.26155(13) 0.65002(9)
H51_4 H 0.2024 0.2314 0.6371
N11_4 N 0.3622(6) 0.20717(18) 0.69833(12)
N12_4 N 0.2812(3) 0.33631(12) 0.58572(9)
H52_4 H 0.3049 0.3692 0.6001
C46_4 C 0.5799(5) 0.33868(19) 0.57175(16)
H53_4 H 0.6537 0.3369 0.5573
H54_4 H 0.5926 0.3483 0.6013
C47_4 C 0.4992(5) 0.3783(2) 0.55001(15)
H55_4 H 0.4583 0.3996 0.5709
H56_4 H 0.5423 0.4020 0.5315
C48_4 C 0.4680(5) 0.29245(18) 0.52517(12)
H57_4 H 0.5282 0.2897 0.5038
H58_4 H 0.4106 0.2651 0.5199
C49_4 C 0.2945(5) 0.34647(19) 0.53976(13)
H59_4 H 0.2501 0.3201 0.5242
H60_4 H 0.2624 0.3813 0.5333
C50_4 C 0.1615(4) 0.32567(19) 0.59962(15)
H61_4 H 0.1277 0.2978 0.5822
H62_4 H 0.1150 0.3576 0.5965
C51_4 C 0.1640(4) 0.30840(18) 0.64592(14)
H63_4 H 0.1911 0.3375 0.6636
H64_4 H 0.0869 0.2987 0.6552
C52_4 C 0.2689(5) 0.2453(2) 0.69407(12)
H65_4 H 0.2882 0.2769 0.7104
H66_4 H 0.1997 0.2300 0.7064
C53_4 C 0.4758(6) 0.2267(2) 0.68778(15)
H67_4 H 0.5350 0.2064 0.7024
H68_4 H 0.4835 0.2641 0.6954
C54_4 C 0.4416(6) 0.16270(17) 0.63737(18)
H69_4 H 0.5036 0.1376 0.6427
H70_4 H 0.4094 0.1558 0.6094
C55_4 C 0.3497(6) 0.1586(2) 0.67121(17)
H71_4 H 0.2736 0.1574 0.6584
H72_4 H 0.3607 0.1265 0.6881
C56_4 C 0.6009(5) 0.2286(2) 0.6222(2)
H73_4 H 0.6491 0.1974 0.6267
H74_4 H 0.6372 0.2587 0.6362
C57_4 C 0.5900(4) 0.2395(2) 0.57542(18)
H75_4 H 0.6660 0.2454 0.5633
H76_4 H 0.5559 0.2088 0.5614
O14_2 O 0.3099(2) 0.22057(9) 0.56652(7)
O6_4 O 0.1709(3) 0.05888(9) 0.31460(7)
N2_4 N 0.0165(3) 0.21269(13) 0.06826(11)
C1_6 C 0.2500 0.0000 0.36558(12)
C2_4 C 0.1454(3) 0.01125(12) 0.33795(9)
H3_4 H 0.0773 0.0163 0.3555
C4_4 C 0.1057(3) 0.07123(12) 0.27971(10)
C5_4 C 0.1460(3) 0.11434(14) 0.25619(11)
H7_4 H 0.2118 0.1327 0.2648
C6_4 C 0.0879(3) 0.12964(14) 0.21999(12)
H8_4 H 0.1156 0.1581 0.2040
C9_4 C 0.0067(3) 0.04435(14) 0.26740(11)
C18_4 C 0.0799(5) 0.16132(19) 0.07175(16)
H15_4 H 0.1537 0.1631 0.0573
H16_4 H 0.0926 0.1517 0.1013
H18_4 H 0.0423 0.0980 0.0315
H19_4 H 0.0282 0.2103 0.0038
H29_4 H 0.0350 0.2936 0.2024
H31_4 H 0.0036 0.3624 0.1427
C28_4 C 0.1009(5) 0.2714(2) 0.1222(2)
H35_4 H 0.1491 0.3026 0.1267
H36_4 H 0.1372 0.2413 0.1362
C29_4 C 0.0900(4) 0.2605(2) 0.07542(18)
H37_4 H 0.1660 0.2546 0.0633
H38_4 H 0.0559 0.2912 0.0614
O9_4 O 0.1439(3) 0.18691(12) 0.59218(8)
O11_4 O 0.1791(2) 0.05824(9) 0.41948(7)
H40_4 H 0.3686 0.0182 0.3186
C31_4 C 0.2789(3) 0.04764(12) 0.39350(9)
H41_4 H 0.2970 0.0785 0.3760
H42_4 H 0.3453 0.0397 0.4113
C38_4 C 0.1936(3) 0.09241(13) 0.45328(9)
C39_4 C 0.2900(3) 0.12427(13) 0.45863(10)
H47_4 H 0.3492 0.1242 0.4386
C40_4 C 0.2965(3) 0.15624(12) 0.49438(10)
H48_4 H 0.3610 0.1778 0.4981
C41_4 C 0.2102(3) 0.15714(13) 0.52471(9)
C42_4 C 0.1139(3) 0.12627(16) 0.51796(11)
H49_4 H 0.0537 0.1271 0.5375
C43_4 C 0.1056(3) 0.09401(15) 0.48261(11)
H50_4 H 0.0400 0.0732 0.4785
C44_4 C 0.2217(3) 0.19102(14) 0.56391(10)
loop_
_geom_bond_atom_site_label_1
_geom_bond_atom_site_label_2
_geom_bond_site_symmetry_1
_geom_bond_site_symmetry_2
Ni1 O2 1_555 1_555
O1 C17 1_555 1_555
O2 C17 1_555 1_555
N1 C19 1_555 1_555
N3 Ni1 1_555 1_555
N4 Ni1 1_555 1_555
H1 N4 1_555 1_555
N5 C24 1_555 1_555
N6 Ni1 1_555 1_555
H2 N6 1_555 1_555
C8 C7 1_555 1_555
H9 C8 1_555 1_555
C17 C7 1_555 1_555
H17 C19 1_555 1_555
C20 N1 1_555 1_555
H20 C20 1_555 1_555
C21 N1 1_555 1_555
H21 C21 1_555 1_555
H22 C21 1_555 1_555
C22 N6 1_555 1_555
H23 C22 1_555 1_555
H24 C22 1_555 1_555
C23 N4 1_555 1_555
H25 C23 1_555 1_555
H26 C23 1_555 1_555
C24 N4 1_555 1_555
H27 C24 1_555 1_555
H28 C24 1_555 1_555
C25 N3 1_555 1_555
H30 C25 1_555 1_555
C26 N3 1_555 1_555
H32 C26 1_555 1_555
C27 N5 1_555 1_555
H33 C27 1_555 1_555
H34 C27 1_555 1_555
O13 Ni1 1_555 1_555
N5 C25 1_555 1_555
N6 C21 1_555 1_555
C22 C23 1_555 1_555
C26 C27 1_555 1_555
O3 C16 1_555 1_555
O4 C16 1_555 1_555
O5 C3 1_555 1_555
C3 C1 1_555 1_555
H5 C3 1_555 1_555
H6 C3 1_555 1_555
C10 O5 1_555 1_555
C11 C10 1_555 1_555
H11 C11 1_555 1_555
C12 C11 1_555 1_555
H12 C12 1_555 1_555
C13 C12 1_555 1_555
C14 C13 1_555 1_555
H13 C14 1_555 1_555
C15 C10 1_555 1_555
H14 C15 1_555 1_555
C16 C13 1_555 1_555
O7 C45 1_555 1_555
O8 C45 1_555 1_555
O12 C30 1_555 1_555
C30 C1 1_555 1_555
H39 C30 1_555 1_555
C32 O12 1_555 1_555
C33 C32 1_555 1_555
H43 C33 1_555 1_555
C34 C33 1_555 1_555
H44 C34 1_555 1_555
C35 C34 1_555 1_555
C36 C35 1_555 1_555
H45 C36 1_555 1_555
C37 C32 1_555 1_555
H46 C37 1_555 1_555
C45 C35 1_555 1_555
Ni2 O8 1_555 1_555
N7 C47 1_555 1_555
N8 Ni2 1_555 1_555
N9 Ni2 1_555 1_555
N10 Ni2 1_555 1_555
H51 N10 1_555 1_555
N11 C52 1_555 1_555
N12 Ni2 1_555 1_555
H52 N12 1_555 1_555
C46 N8 1_555 1_555
H53 C46 1_555 1_555
H54 C46 1_555 1_555
C47 C46 1_555 1_555
H55 C47 1_555 1_555
H56 C47 1_555 1_555
C48 N7 1_555 1_555
H57 C48 1_555 1_555
H58 C48 1_555 1_555
C49 N7 1_555 1_555
H59 C49 1_555 1_555
H60 C49 1_555 1_555
C50 N12 1_555 1_555
H61 C50 1_555 1_555
H62 C50 1_555 1_555
C51 N10 1_555 1_555
H63 C51 1_555 1_555
H64 C51 1_555 1_555
C52 N10 1_555 1_555
H65 C52 1_555 1_555
H66 C52 1_555 1_555
C53 N9 1_555 1_555
H67 C53 1_555 1_555
H68 C53 1_555 1_555
C54 N9 1_555 1_555
H69 C54 1_555 1_555
H70 C54 1_555 1_555
C55 N11 1_555 1_555
H71 C55 1_555 1_555
H72 C55 1_555 1_555
C56 N9 1_555 1_555
H73 C56 1_555 1_555
H74 C56 1_555 1_555
C57 N8 1_555 1_555
H75 C57 1_555 1_555
H76 C57 1_555 1_555
Ni3 O4 1_555 1_555
O14 Ni2 1_555 1_555
C14 C15 1_555 1_555
C36 C37 1_555 1_555
N8 C48 1_555 1_555
N11 C53 1_555 1_555
N12 C49 1_555 1_555
C50 C51 1_555 1_555
C54 C55 1_555 1_555
C56 C57 1_555 1_555
O3_2 C16_2 1_555 1_555
O13 C16_2 1_555 1_555
C14_2 C13_2 1_555 1_555
H13_2 C14_2 1_555 1_555
C16_2 C13_2 1_555 1_555
O9 C44 1_555 1_555
O14 C44 1_555 1_555
C42 C41 1_555 1_555
H49 C42 1_555 1_555
C44 C41 1_555 1_555
Ni3 O2_2 1_555 1_555
O1_2 C17_2 1_555 1_555
O2_2 C17_2 1_555 1_555
N1_2 C19_2 1_555 1_555
N3_2 Ni3 1_555 1_555
N4_2 Ni3 1_555 1_555
H1_2 N4_2 1_555 1_555
N5_2 C24_2 1_555 1_555
N6_2 Ni3 1_555 1_555
H2_2 N6_2 1_555 1_555
C8_2 C7_2 1_555 1_555
H9_2 C8_2 1_555 1_555
C17_2 C7_2 1_555 1_555
H17_2 C19_2 1_555 1_555
C20_2 N1_2 1_555 1_555
H20_2 C20_2 1_555 1_555
C21_2 N1_2 1_555 1_555
H21_2 C21_2 1_555 1_555
H22_2 C21_2 1_555 1_555
C22_2 N6_2 1_555 1_555
H23_2 C22_2 1_555 1_555
H24_2 C22_2 1_555 1_555
C23_2 N4_2 1_555 1_555
H25_2 C23_2 1_555 1_555
H26_2 C23_2 1_555 1_555
C24_2 N4_2 1_555 1_555
H27_2 C24_2 1_555 1_555
H28_2 C24_2 1_555 1_555
C25_2 N3_2 1_555 1_555
H30_2 C25_2 1_555 1_555
C26_2 N3_2 1_555 1_555
H32_2 C26_2 1_555 1_555
C27_2 N5_2 1_555 1_555
H33_2 C27_2 1_555 1_555
H34_2 C27_2 1_555 1_555
N5_2 C25_2 1_555 1_555
N6_2 C21_2 1_555 1_555
C22_2 C23_2 1_555 1_555
C26_2 C27_2 1_555 1_555
O6 C2 1_555 1_555
C1_2 C2 1_555 1_555
C2 H3 1_555 1_555
C4 O6 1_555 1_555
C5 C4 1_555 1_555
H7 C5 1_555 1_555
C6 C5 1_555 1_555
H8 C6 1_555 1_555
C9 C4 1_555 1_555
C18 N2 1_555 1_555
H15 C18 1_555 1_555
H16 C18 1_555 1_555
H35 C28 1_555 1_555
H36 C28 1_555 1_555
C29 N2 1_555 1_555
H37 C29 1_555 1_555
H38 C29 1_555 1_555
O9_2 C44_2 1_555 1_555
O10 C44_2 1_555 1_555
O11 C31 1_555 1_555
C31 C1_2 1_555 1_555
H41 C31 1_555 1_555
H42 C31 1_555 1_555
C38 O11 1_555 1_555
C39 C38 1_555 1_555
H47 C39 1_555 1_555
C40 C39 1_555 1_555
H48 C40 1_555 1_555
C41_2 C40 1_555 1_555
C42_2 C41_2 1_555 1_555
H49_2 C42_2 1_555 1_555
C43 C38 1_555 1_555
H50 C43 1_555 1_555
C44_2 C41_2 1_555 1_555
Ni4 O10 1_555 1_555
C28 C29 1_555 1_555
C42_2 C43 1_555 1_555
O5_2 C3_2 1_555 1_555
O6_2 C2_2 1_555 1_555
C1_3 C2_2 1_555 1_555
C2_2 H3_2 1_555 1_555
H4_2 C2_2 1_555 1_555
C3_2 C1_3 1_555 1_555
H5_2 C3_2 1_555 1_555
H6_2 C3_2 1_555 1_555
C4_2 O6_2 1_555 1_555
C5_2 C4_2 1_555 1_555
H7_2 C5_2 1_555 1_555
C6_2 C5_2 1_555 1_555
H8_2 C6_2 1_555 1_555
C9_2 C4_2 1_555 1_555
C10_2 O5_2 1_555 1_555
C11_2 C10_2 1_555 1_555
H11_2 C11_2 1_555 1_555
C12_2 C11_2 1_555 1_555
H12_2 C12_2 1_555 1_555
C15_2 C10_2 1_555 1_555
H14_2 C15_2 1_555 1_555
C18_2 N2_2 1_555 1_555
H15_2 C18_2 1_555 1_555
H16_2 C18_2 1_555 1_555
H35_2 C28_2 1_555 1_555
H36_2 C28_2 1_555 1_555
C29_2 N2_2 1_555 1_555
H37_2 C29_2 1_555 1_555
H38_2 C29_2 1_555 1_555
O7_2 C45_2 1_555 1_555
O8_2 C45_2 1_555 1_555
O11_2 C31_2 1_555 1_555
O12_2 C30_2 1_555 1_555
C30_2 C1_3 1_555 1_555
H39_2 C30_2 1_555 1_555
H40_2 C30_2 1_555 1_555
C31_2 C1_3 1_555 1_555
H41_2 C31_2 1_555 1_555
H42_2 C31_2 1_555 1_555
C32_2 O12_2 1_555 1_555
C33_2 C32_2 1_555 1_555
H43_2 C33_2 1_555 1_555
C34_2 C33_2 1_555 1_555
H44_2 C34_2 1_555 1_555
C35_2 C34_2 1_555 1_555
C36_2 C35_2 1_555 1_555
H45_2 C36_2 1_555 1_555
C37_2 C32_2 1_555 1_555
H46_2 C37_2 1_555 1_555
C38_2 O11_2 1_555 1_555
C39_2 C38_2 1_555 1_555
H47_2 C39_2 1_555 1_555
C40_2 C39_2 1_555 1_555
H48_2 C40_2 1_555 1_555
C43_2 C38_2 1_555 1_555
H50_2 C43_2 1_555 1_555
C45_2 C35_2 1_555 1_555
Ni4 O8_2 1_555 1_555
N7_2 C47_2 1_555 1_555
N8_2 Ni4 1_555 1_555
N9_2 Ni4 1_555 1_555
N10_2 Ni4 1_555 1_555
H51_2 N10_2 1_555 1_555
N11_2 C52_2 1_555 1_555
N12_2 Ni4 1_555 1_555
H52_2 N12_2 1_555 1_555
C46_2 N8_2 1_555 1_555
H53_2 C46_2 1_555 1_555
H54_2 C46_2 1_555 1_555
C47_2 C46_2 1_555 1_555
H55_2 C47_2 1_555 1_555
H56_2 C47_2 1_555 1_555
C48_2 N7_2 1_555 1_555
H57_2 C48_2 1_555 1_555
H58_2 C48_2 1_555 1_555
C49_2 N7_2 1_555 1_555
H59_2 C49_2 1_555 1_555
H60_2 C49_2 1_555 1_555
C50_2 N12_2 1_555 1_555
H61_2 C50_2 1_555 1_555
H62_2 C50_2 1_555 1_555
C51_2 N10_2 1_555 1_555
H63_2 C51_2 1_555 1_555
H64_2 C51_2 1_555 1_555
C52_2 N10_2 1_555 1_555
H65_2 C52_2 1_555 1_555
H66_2 C52_2 1_555 1_555
C53_2 N9_2 1_555 1_555
H67_2 C53_2 1_555 1_555
H68_2 C53_2 1_555 1_555
C54_2 N9_2 1_555 1_555
H69_2 C54_2 1_555 1_555
H70_2 C54_2 1_555 1_555
C55_2 N11_2 1_555 1_555
H71_2 C55_2 1_555 1_555
H72_2 C55_2 1_555 1_555
C56_2 N9_2 1_555 1_555
H73_2 C56_2 1_555 1_555
H74_2 C56_2 1_555 1_555
C57_2 N8_2 1_555 1_555
H75_2 C57_2 1_555 1_555
H76_2 C57_2 1_555 1_555
C28_2 C29_2 1_555 1_555
C36_2 C37_2 1_555 1_555
N8_2 C48_2 1_555 1_555
N11_2 C53_2 1_555 1_555
N12_2 C49_2 1_555 1_555
C50_2 C51_2 1_555 1_555
C54_2 C55_2 1_555 1_555
C56_2 C57_2 1_555 1_555
Ni1_2 O2_3 1_555 1_555
O1_3 C17_3 1_555 1_555
O2_3 C17_3 1_555 1_555
N1_3 C19_3 1_555 1_555
N3_3 Ni1_2 1_555 1_555
N4_3 Ni1_2 1_555 1_555
H1_3 N4_3 1_555 1_555
N5_3 C24_3 1_555 1_555
N6_3 Ni1_2 1_555 1_555
H2_3 N6_3 1_555 1_555
C8_3 C7_3 1_555 1_555
H9_3 C8_3 1_555 1_555
C17_3 C7_3 1_555 1_555
H17_3 C19_3 1_555 1_555
C20_3 N1_3 1_555 1_555
H20_3 C20_3 1_555 1_555
C21_3 N1_3 1_555 1_555
H21_3 C21_3 1_555 1_555
H22_3 C21_3 1_555 1_555
C22_3 N6_3 1_555 1_555
H23_3 C22_3 1_555 1_555
H24_3 C22_3 1_555 1_555
C23_3 N4_3 1_555 1_555
H25_3 C23_3 1_555 1_555
H26_3 C23_3 1_555 1_555
C24_3 N4_3 1_555 1_555
H27_3 C24_3 1_555 1_555
H28_3 C24_3 1_555 1_555
C25_3 N3_3 1_555 1_555
H30_3 C25_3 1_555 1_555
C26_3 N3_3 1_555 1_555
H32_3 C26_3 1_555 1_555
C27_3 N5_3 1_555 1_555
H33_3 C27_3 1_555 1_555
H34_3 C27_3 1_555 1_555
O13_2 Ni1_2 1_555 1_555
N5_3 C25_3 1_555 1_555
N6_3 C21_3 1_555 1_555
C22_3 C23_3 1_555 1_555
C26_3 C27_3 1_555 1_555
O3_3 C16_3 1_555 1_555
O4_2 C16_3 1_555 1_555
C14_3 C13_3 1_555 1_555
H13_3 C14_3 1_555 1_555
C16_3 C13_3 1_555 1_555
O9_3 C44_3 1_555 1_555
O10_2 C44_3 1_555 1_555
C42_3 C41_3 1_555 1_555
H49_3 C42_3 1_555 1_555
C44_3 C41_3 1_555 1_555
Ni3_2 O4_2 1_555 1_555
Ni4_2 O10_2 1_555 1_555
O3_4 C16_4 1_555 1_555
O13_2 C16_4 1_555 1_555
O5_3 C3_3 1_555 1_555
C3_3 C1_4 1_555 1_555
H5_3 C3_3 1_555 1_555
H6_3 C3_3 1_555 1_555
C10_3 O5_3 1_555 1_555
C11_3 C10_3 1_555 1_555
H11_3 C11_3 1_555 1_555
C12_3 C11_3 1_555 1_555
H12_3 C12_3 1_555 1_555
C13_4 C12_3 1_555 1_555
C14_4 C13_4 1_555 1_555
H13_4 C14_4 1_555 1_555
C15_3 C10_3 1_555 1_555
H14_3 C15_3 1_555 1_555
C16_4 C13_4 1_555 1_555
O7_3 C45_3 1_555 1_555
O8_3 C45_3 1_555 1_555
O12_3 C30_3 1_555 1_555
C30_3 C1_4 1_555 1_555
H39_3 C30_3 1_555 1_555
C32_3 O12_3 1_555 1_555
C33_3 C32_3 1_555 1_555
H43_3 C33_3 1_555 1_555
C34_3 C33_3 1_555 1_555
H44_3 C34_3 1_555 1_555
C35_3 C34_3 1_555 1_555
C36_3 C35_3 1_555 1_555
H45_3 C36_3 1_555 1_555
C37_3 C32_3 1_555 1_555
H46_3 C37_3 1_555 1_555
C45_3 C35_3 1_555 1_555
Ni4_2 O8_3 1_555 1_555
N7_3 C47_3 1_555 1_555
N8_3 Ni4_2 1_555 1_555
N9_3 Ni4_2 1_555 1_555
N10_3 Ni4_2 1_555 1_555
H51_3 N10_3 1_555 1_555
N11_3 C52_3 1_555 1_555
N12_3 Ni4_2 1_555 1_555
H52_3 N12_3 1_555 1_555
C46_3 N8_3 1_555 1_555
H53_3 C46_3 1_555 1_555
H54_3 C46_3 1_555 1_555
C47_3 C46_3 1_555 1_555
H55_3 C47_3 1_555 1_555
H56_3 C47_3 1_555 1_555
C48_3 N7_3 1_555 1_555
H57_3 C48_3 1_555 1_555
H58_3 C48_3 1_555 1_555
C49_3 N7_3 1_555 1_555
H59_3 C49_3 1_555 1_555
H60_3 C49_3 1_555 1_555
C50_3 N12_3 1_555 1_555
H61_3 C50_3 1_555 1_555
H62_3 C50_3 1_555 1_555
C51_3 N10_3 1_555 1_555
H63_3 C51_3 1_555 1_555
H64_3 C51_3 1_555 1_555
C52_3 N10_3 1_555 1_555
H65_3 C52_3 1_555 1_555
H66_3 C52_3 1_555 1_555
C53_3 N9_3 1_555 1_555
H67_3 C53_3 1_555 1_555
H68_3 C53_3 1_555 1_555
C54_3 N9_3 1_555 1_555
H69_3 C54_3 1_555 1_555
H70_3 C54_3 1_555 1_555
C55_3 N11_3 1_555 1_555
H71_3 C55_3 1_555 1_555
H72_3 C55_3 1_555 1_555
C56_3 N9_3 1_555 1_555
H73_3 C56_3 1_555 1_555
H74_3 C56_3 1_555 1_555
C57_3 N8_3 1_555 1_555
H75_3 C57_3 1_555 1_555
H76_3 C57_3 1_555 1_555
C14_4 C15_3 1_555 1_555
C36_3 C37_3 1_555 1_555
N8_3 C48_3 1_555 1_555
N11_3 C53_3 1_555 1_555
N12_3 C49_3 1_555 1_555
C50_3 C51_3 1_555 1_555
C54_3 C55_3 1_555 1_555
C56_3 C57_3 1_555 1_555
Ni3_2 O2_4 1_555 1_555
O1_4 C17_4 1_555 1_555
O2_4 C17_4 1_555 1_555
N1_4 C19_4 1_555 1_555
N3_4 Ni3_2 1_555 1_555
N4_4 Ni3_2 1_555 1_555
H1_4 N4_4 1_555 1_555
N5_4 C24_4 1_555 1_555
N6_4 Ni3_2 1_555 1_555
H2_4 N6_4 1_555 1_555
C8_4 C7_4 1_555 1_555
H9_4 C8_4 1_555 1_555
C17_4 C7_4 1_555 1_555
H17_4 C19_4 1_555 1_555
C20_4 N1_4 1_555 1_555
H20_4 C20_4 1_555 1_555
C21_4 N1_4 1_555 1_555
H21_4 C21_4 1_555 1_555
H22_4 C21_4 1_555 1_555
C22_4 N6_4 1_555 1_555
H23_4 C22_4 1_555 1_555
H24_4 C22_4 1_555 1_555
C23_4 N4_4 1_555 1_555
H25_4 C23_4 1_555 1_555
H26_4 C23_4 1_555 1_555
C24_4 N4_4 1_555 1_555
H27_4 C24_4 1_555 1_555
H28_4 C24_4 1_555 1_555
C25_4 N3_4 1_555 1_555
H30_4 C25_4 1_555 1_555
C26_4 N3_4 1_555 1_555
H32_4 C26_4 1_555 1_555
C27_4 N5_4 1_555 1_555
H33_4 C27_4 1_555 1_555
H34_4 C27_4 1_555 1_555
N5_4 C25_4 1_555 1_555
N6_4 C21_4 1_555 1_555
C22_4 C23_4 1_555 1_555
C26_4 C27_4 1_555 1_555
O5_4 C3_4 1_555 1_555
O6_3 C2_3 1_555 1_555
C1_5 C2_3 1_555 1_555
C2_3 H3_3 1_555 1_555
H4_4 C2_3 1_555 1_555
C3_4 C1_5 1_555 1_555
H5_4 C3_4 1_555 1_555
H6_4 C3_4 1_555 1_555
C4_3 O6_3 1_555 1_555
C5_3 C4_3 1_555 1_555
H7_3 C5_3 1_555 1_555
C6_3 C5_3 1_555 1_555
H8_3 C6_3 1_555 1_555
C9_3 C4_3 1_555 1_555
C10_4 O5_4 1_555 1_555
C11_4 C10_4 1_555 1_555
H11_4 C11_4 1_555 1_555
C12_4 C11_4 1_555 1_555
H12_4 C12_4 1_555 1_555
C15_4 C10_4 1_555 1_555
H14_4 C15_4 1_555 1_555
C18_3 N2_3 1_555 1_555
H15_3 C18_3 1_555 1_555
H16_3 C18_3 1_555 1_555
H35_3 C28_3 1_555 1_555
H36_3 C28_3 1_555 1_555
C29_3 N2_3 1_555 1_555
H37_3 C29_3 1_555 1_555
H38_3 C29_3 1_555 1_555
O7_4 C45_4 1_555 1_555
O8_4 C45_4 1_555 1_555
O11_3 C31_3 1_555 1_555
O12_4 C30_4 1_555 1_555
C30_4 C1_5 1_555 1_555
H39_4 C30_4 1_555 1_555
H40_3 C30_4 1_555 1_555
C31_3 C1_5 1_555 1_555
H41_3 C31_3 1_555 1_555
H42_3 C31_3 1_555 1_555
C32_4 O12_4 1_555 1_555
C33_4 C32_4 1_555 1_555
H43_4 C33_4 1_555 1_555
C34_4 C33_4 1_555 1_555
H44_4 C34_4 1_555 1_555
C35_4 C34_4 1_555 1_555
C36_4 C35_4 1_555 1_555
H45_4 C36_4 1_555 1_555
C37_4 C32_4 1_555 1_555
H46_4 C37_4 1_555 1_555
C38_3 O11_3 1_555 1_555
C39_3 C38_3 1_555 1_555
H47_3 C39_3 1_555 1_555
C40_3 C39_3 1_555 1_555
H48_3 C40_3 1_555 1_555
C43_3 C38_3 1_555 1_555
H50_3 C43_3 1_555 1_555
C45_4 C35_4 1_555 1_555
Ni2_2 O8_4 1_555 1_555
N7_4 C47_4 1_555 1_555
N8_4 Ni2_2 1_555 1_555
N9_4 Ni2_2 1_555 1_555
N10_4 Ni2_2 1_555 1_555
H51_4 N10_4 1_555 1_555
N11_4 C52_4 1_555 1_555
N12_4 Ni2_2 1_555 1_555
H52_4 N12_4 1_555 1_555
C46_4 N8_4 1_555 1_555
H53_4 C46_4 1_555 1_555
H54_4 C46_4 1_555 1_555
C47_4 C46_4 1_555 1_555
H55_4 C47_4 1_555 1_555
H56_4 C47_4 1_555 1_555
C48_4 N7_4 1_555 1_555
H57_4 C48_4 1_555 1_555
H58_4 C48_4 1_555 1_555
C49_4 N7_4 1_555 1_555
H59_4 C49_4 1_555 1_555
H60_4 C49_4 1_555 1_555
C50_4 N12_4 1_555 1_555
H61_4 C50_4 1_555 1_555
H62_4 C50_4 1_555 1_555
C51_4 N10_4 1_555 1_555
H63_4 C51_4 1_555 1_555
H64_4 C51_4 1_555 1_555
C52_4 N10_4 1_555 1_555
H65_4 C52_4 1_555 1_555
H66_4 C52_4 1_555 1_555
C53_4 N9_4 1_555 1_555
H67_4 C53_4 1_555 1_555
H68_4 C53_4 1_555 1_555
C54_4 N9_4 1_555 1_555
H69_4 C54_4 1_555 1_555
H70_4 C54_4 1_555 1_555
C55_4 N11_4 1_555 1_555
H71_4 C55_4 1_555 1_555
H72_4 C55_4 1_555 1_555
C56_4 N9_4 1_555 1_555
H73_4 C56_4 1_555 1_555
H74_4 C56_4 1_555 1_555
C57_4 N8_4 1_555 1_555
H75_4 C57_4 1_555 1_555
H76_4 C57_4 1_555 1_555
O14_2 Ni2_2 1_555 1_555
C28_3 C29_3 1_555 1_555
C36_4 C37_4 1_555 1_555
N8_4 C48_4 1_555 1_555
N11_4 C53_4 1_555 1_555
N12_4 C49_4 1_555 1_555
C50_4 C51_4 1_555 1_555
C54_4 C55_4 1_555 1_555
C56_4 C57_4 1_555 1_555
O6_4 C2_4 1_555 1_555
C1_6 C2_4 1_555 1_555
C2_4 H3_4 1_555 1_555
C4_4 O6_4 1_555 1_555
C5_4 C4_4 1_555 1_555
H7_4 C5_4 1_555 1_555
C6_4 C5_4 1_555 1_555
H8_4 C6_4 1_555 1_555
C9_4 C4_4 1_555 1_555
C18_4 N2_4 1_555 1_555
H15_4 C18_4 1_555 1_555
H16_4 C18_4 1_555 1_555
H35_4 C28_4 1_555 1_555
H36_4 C28_4 1_555 1_555
C29_4 N2_4 1_555 1_555
H37_4 C29_4 1_555 1_555
H38_4 C29_4 1_555 1_555
O9_4 C44_4 1_555 1_555
O14_2 C44_4 1_555 1_555
O11_4 C31_4 1_555 1_555
C31_4 C1_6 1_555 1_555
H41_4 C31_4 1_555 1_555
H42_4 C31_4 1_555 1_555
C38_4 O11_4 1_555 1_555
C39_4 C38_4 1_555 1_555
H47_4 C39_4 1_555 1_555
C40_4 C39_4 1_555 1_555
H48_4 C40_4 1_555 1_555
C41_4 C40_4 1_555 1_555
C42_4 C41_4 1_555 1_555
H49_4 C42_4 1_555 1_555
C43_4 C38_4 1_555 1_555
H50_4 C43_4 1_555 1_555
C44_4 C41_4 1_555 1_555
C28_4 C29_4 1_555 1_555
C42_4 C43_4 1_555 1_555

#END
