
###############################################################################
#
# This file contains modified crystal structure data generated from the
# MOF subset of the Cambridge Structural Database (CSD) v543 
# hosted by the Cambridge Crystallographic Data Centre (CCDC).
#
# This work is licensed under the Creative Commons
# Attribution-NonCommercial-ShareAlike 4.0 International License.
# To view a copy of this license, visit
# http://creativecommons.org/licenses/by-nc-sa/4.0/
# or send a letter to
# Creative Commons, PO Box 1866, Mountain View, CA 94042, USA.
#
# CIF created using the CSD Python API on 29 September 2022
# The structure has been converted into the P1 space group
# The structure has a 3D framework
# The original CSD entry RUXBET is in the orthorhombic crystal system
# The framework has been calculated to contain at least 10.0% void space
# The void calculation uses a probe of radius 1.32A, grid spacing 0.4
#
###############################################################################

data_RUXBET
_chemical_formula_moiety         '(C238 H320 N48 Ni8 O48)n'
_symmetry_cell_setting           triclinic
_symmetry_space_group_name_H-M   'P 1'
_symmetry_Int_Tables_number      1
_space_group_name_Hall           'P 1'
loop_
_symmetry_equiv_pos_site_id
_symmetry_equiv_pos_as_xyz
1 x,y,z
_cell_length_a                   11.7659(7)
_cell_length_b                   25.7333(15)
_cell_length_c                   31.1417(19)
_cell_angle_alpha                90
_cell_angle_beta                 90
_cell_angle_gamma                90
_cell_volume                     9428.94
loop_
_atom_site_label
_atom_site_type_symbol
_atom_site_fract_x
_atom_site_fract_y
_atom_site_fract_z
O7 O 0.0317(3) 0.67855(12) 0.15392(10)
C31 C 0.0527(5) 0.6327(2) 0.16471(15)
O8 O 0.1210(4) 0.60248(13) 0.14597(12)
C44 C 0.0310(4) 0.56853(15) 0.22443(14)
H51 H 0.0945 0.5511 0.2141
H52 H 0.0048 0.5222 0.2756
N10 N 0.0351(5) 0.2297(3) 0.57141(19)
H56 H 0.0207 0.3039 0.7097
C53 C 0.0993(7) 0.2770(4) 0.5810(4)
H67 H 0.0672 0.3061 0.5654
H68 H 0.1777 0.2728 0.5721
C54 C 0.0005(8) 0.2254(3) 0.5268(2)
H69 H 0.0659 0.2279 0.5080
C55 C 0.0934(8) 0.2883(3) 0.6337(3)
H71 H 0.1325 0.2608 0.6490
H72 H 0.1310 0.3209 0.6402
C58 C 0.1068(7) 0.1810(3) 0.5736(3)
H77 H 0.1790 0.1856 0.5590
H78 H 0.1204 0.1704 0.6030
C59 C 0.0338(7) 0.1438(3) 0.5509(2)
H80 H 0.0796 0.1214 0.5328
Ni3 Ni 0.10377(6) 0.73417(2) 0.11131(2)
O5 O 0.1729(3) 0.79035(12) 0.06689(9)
O6 O 0.3410(3) 0.81763(13) 0.09057(11)
C4 C 0.2744(4) 0.84814(14) 0.02330(12)
C12 C 0.3724(4) 0.87705(16) 0.01568(13)
H9 H 0.4318 0.8758 0.0354
C13 C 0.2617(5) 0.81575(16) 0.06352(14)
N1 N 0.2437(4) 0.74311(15) 0.14717(11)
H13 H 0.2844 0.7724 0.1343
N2 N 0.1904(6) 0.67740(16) 0.08190(14)
H14 H 0.1653 0.6456 0.0964
N3 N 0.0172(5) 0.79051(17) 0.1466(2)
C18 C 0.0306(7) 0.7819(2) 0.1935(2)
H15 H 0.0163 0.7459 0.2009
C19 C 0.2309(6) 0.7570(3) 0.19331(17)
H17 H 0.3035 0.7693 0.2040
H18 H 0.2114 0.7258 0.2093
C20 C 0.3176(5) 0.6962(2) 0.1386(2)
H19 H 0.2929 0.6674 0.1563
H20 H 0.3959 0.7041 0.1458
C21 C 0.0698(7) 0.8445(2) 0.1442(3)
H21 H 0.0144 0.8709 0.1515
H22 H 0.0988 0.8514 0.1156
C22 C 0.1684(8) 0.6670(3) 0.0347(2)
H23 H 0.1899 0.6314 0.0282
H24 H 0.2160 0.6898 0.0176
C23 C 0.1635(8) 0.8434(2) 0.1759(3)
H25 H 0.2366 0.8427 0.1615
H26 H 0.1604 0.8739 0.1943
H30 H 0.0527 0.7527 0.0195
C27 C 0.3095(8) 0.6822(2) 0.0935(3)
H33 H 0.3398 0.7116 0.0771
C28 C 0.3752(8) 0.6350(3) 0.0797(3)
H34 H 0.3399 0.6199 0.0549
H35 H 0.4518 0.6448 0.0729
H36 H 0.3760 0.6100 0.1026
N5 N 0.1469(7) 0.7956(2) 0.20149(17)
N6 N 0.0530(8) 0.6746(3) 0.0229(2)
H39 H 0.0064 0.6223 0.0715
O1 O 0.4683(3) 0.32145(12) 0.15392(10)
C1 C 0.4473(5) 0.3673(2) 0.16471(15)
O2 O 0.3790(4) 0.39752(13) 0.14597(12)
Ni1 Ni 0.60377(6) 0.76583(2) 0.61131(2)
O3 O 0.8120(2) 0.55756(9) 0.41593(8)
O4 O 0.6823(2) 0.44038(9) 0.31024(9)
O5_2 O 0.6729(3) 0.70965(12) 0.56689(9)
O6_2 O 0.8410(3) 0.68237(13) 0.59057(11)
C2 C 0.7500 0.5000 0.36195(15)
C3 C 0.7946(3) 0.58956(14) 0.45046(12)
C4_2 C 0.7744(4) 0.65186(14) 0.52330(12)
C5 C 0.7169(3) 0.54600(13) 0.38948(11)
H1 H 0.6981 0.5756 0.3716
H2 H 0.6513 0.5375 0.4070
C6 C 0.6856(4) 0.64817(15) 0.49386(13)
H3 H 0.6192 0.6670 0.4986
C7 C 0.6198(4) 0.42547(14) 0.27530(13)
C8 C 0.6606(4) 0.38178(15) 0.25402(14)
H4 H 0.7259 0.3652 0.2637
C9 C 0.6942(3) 0.61666(14) 0.45736(12)
H5 H 0.6340 0.6139 0.4381
C10 C 0.6500(3) 0.48567(13) 0.33374(11)
H6 H 0.5835 0.4786 0.3512
H7 H 0.6323 0.5139 0.3142
C11 C 0.8831(4) 0.59247(16) 0.47936(14)
H8 H 0.9498 0.5740 0.4744
C12_2 C 0.8724(4) 0.62295(16) 0.51568(13)
H9_2 H 0.9318 0.6242 0.5354
C13_2 C 0.7617(5) 0.68425(16) 0.56352(14)
C14 C 0.6040(4) 0.36319(17) 0.21857(14)
H10 H 0.6306 0.3336 0.2046
C15 C 0.4690(4) 0.43147(15) 0.22443(14)
H11 H 0.4055 0.4489 0.2141
C16 C 0.5241(4) 0.44928(15) 0.26089(13)
H12 H 0.4952 0.4778 0.2756
C17 C 0.5084(4) 0.38794(16) 0.20355(13)
N1_2 N 0.7437(4) 0.75689(15) 0.64717(11)
H13_2 H 0.7844 0.7276 0.6343
N2_2 N 0.6904(6) 0.82260(16) 0.58190(14)
H14_2 H 0.6653 0.8544 0.5964
N3_2 N 0.5172(5) 0.70949(17) 0.6466(2)
N4 N 0.4649(5) 0.7703(3) 0.57141(19)
C18_2 C 0.5306(7) 0.7181(2) 0.6935(2)
H15_2 H 0.5163 0.7541 0.7009
H16 H 0.4793 0.6961 0.7097
C19_2 C 0.7309(6) 0.7430(3) 0.69331(17)
H17_2 H 0.8035 0.7307 0.7040
H18_2 H 0.7114 0.7742 0.7093
C20_2 C 0.8176(5) 0.8038(2) 0.6386(2)
H19_2 H 0.7929 0.8326 0.6563
H20_2 H 0.8959 0.7959 0.6458
C21_2 C 0.5698(7) 0.6555(2) 0.6442(3)
H21_2 H 0.5144 0.6291 0.6515
H22_2 H 0.5988 0.6486 0.6156
C22_2 C 0.6684(8) 0.8330(3) 0.5347(2)
H23_2 H 0.6899 0.8686 0.5282
H24_2 H 0.7160 0.8102 0.5176
C23_2 C 0.6635(8) 0.6566(2) 0.6759(3)
H25_2 H 0.7366 0.6573 0.6615
H26_2 H 0.6604 0.6261 0.6943
C24 C 0.4007(7) 0.7230(4) 0.5810(4)
H27 H 0.4328 0.6939 0.5654
H28 H 0.3223 0.7272 0.5721
C25 C 0.4995(8) 0.7746(3) 0.5268(2)
H29 H 0.4341 0.7721 0.5080
H30_2 H 0.5527 0.7473 0.5195
C26 C 0.4066(8) 0.7117(3) 0.6337(3)
H31 H 0.3675 0.7392 0.6490
H32 H 0.3690 0.6791 0.6402
C27_2 C 0.8095(8) 0.8178(2) 0.5935(3)
H33_2 H 0.8398 0.7884 0.5771
C28_2 C 0.8752(8) 0.8650(3) 0.5797(3)
H34_2 H 0.8399 0.8801 0.5549
H35_2 H 0.9518 0.8552 0.5729
H36_2 H 0.8760 0.8900 0.6026
N5_2 N 0.6469(7) 0.7044(2) 0.70149(17)
N6_2 N 0.5530(8) 0.8254(3) 0.5229(2)
C29 C 0.3932(7) 0.8190(3) 0.5736(3)
H37 H 0.3210 0.8144 0.5590
H38 H 0.3796 0.8296 0.6030
C30 C 0.4662(7) 0.8562(3) 0.5509(2)
H39_2 H 0.5064 0.8777 0.5715
H40 H 0.4204 0.8786 0.5328
O9 O 0.6880(2) 0.44244(9) 0.41593(8)
O10 O 0.8177(2) 0.55962(9) 0.31024(9)
O11 O 0.8271(3) 0.29035(12) 0.56689(9)
O12 O 0.6590(3) 0.31763(13) 0.59057(11)
C32 C 0.7054(3) 0.41044(14) 0.45046(12)
C33 C 0.7256(4) 0.34814(14) 0.52330(12)
C34 C 0.7831(3) 0.45400(13) 0.38948(11)
H41 H 0.8019 0.4244 0.3716
H42 H 0.8487 0.4625 0.4070
C35 C 0.8144(4) 0.35183(15) 0.49386(13)
H43 H 0.8808 0.3330 0.4986
C36 C 0.8802(4) 0.57453(14) 0.27530(13)
C37 C 0.8394(4) 0.61822(15) 0.25402(14)
H44 H 0.7741 0.6348 0.2637
C38 C 0.8058(3) 0.38334(14) 0.45736(12)
H45 H 0.8660 0.3861 0.4381
C39 C 0.8500(3) 0.51433(13) 0.33374(11)
H46 H 0.9165 0.5214 0.3512
H47 H 0.8677 0.4861 0.3142
C40 C 0.6169(4) 0.40753(16) 0.47936(14)
H48 H 0.5502 0.4260 0.4744
C41 C 0.6276(4) 0.37705(16) 0.51568(13)
H49 H 0.5682 0.3758 0.5354
C42 C 0.7383(5) 0.31575(16) 0.56352(14)
C43 C 0.8960(4) 0.63681(17) 0.21857(14)
H50 H 0.8694 0.6664 0.2046
C45 C 0.9759(4) 0.55072(15) 0.26089(13)
C46 C 0.9916(4) 0.61206(16) 0.20355(13)
Ni2 Ni 0.89623(6) 0.23417(2) 0.61131(2)
N7 N 0.7563(4) 0.24311(15) 0.64717(11)
H53 H 0.7156 0.2724 0.6343
N8 N 0.8096(6) 0.17740(16) 0.58190(14)
H54 H 0.8347 0.1456 0.5964
N9 N 0.9828(5) 0.29051(17) 0.6466(2)
C47 C 0.9694(7) 0.2819(2) 0.6935(2)
H55 H 0.9837 0.2459 0.7009
C48 C 0.7691(6) 0.2570(3) 0.69331(17)
H57 H 0.6965 0.2693 0.7040
H58 H 0.7886 0.2258 0.7093
C49 C 0.6824(5) 0.1962(2) 0.6386(2)
H59 H 0.7071 0.1674 0.6563
H60 H 0.6041 0.2041 0.6458
C50 C 0.9302(7) 0.3445(2) 0.6442(3)
H61 H 0.9856 0.3709 0.6515
H62 H 0.9012 0.3514 0.6156
C51 C 0.8316(8) 0.1670(3) 0.5347(2)
H63 H 0.8101 0.1314 0.5282
H64 H 0.7840 0.1898 0.5176
C52 C 0.8365(8) 0.3434(2) 0.6759(3)
H65 H 0.7634 0.3427 0.6615
H66 H 0.8396 0.3739 0.6943
H70 H 0.9473 0.2527 0.5195
C56 C 0.6905(8) 0.1822(2) 0.5935(3)
H73 H 0.6602 0.2116 0.5771
C57 C 0.6248(8) 0.1350(3) 0.5797(3)
H74 H 0.6601 0.1199 0.5549
H75 H 0.5482 0.1448 0.5729
H76 H 0.6240 0.1100 0.6026
N11 N 0.8531(7) 0.2956(2) 0.70149(17)
N12 N 0.9470(8) 0.1746(3) 0.5229(2)
H79 H 0.9936 0.1223 0.5715
O13 O 0.9683(3) 0.17855(12) 0.65392(10)
O14 O 0.5317(3) 0.82145(12) 0.65392(10)
Ni4 Ni 0.39623(6) 0.26583(2) 0.11131(2)
O11_2 O 0.3271(3) 0.20965(12) 0.06689(9)
O12_2 O 0.1590(3) 0.18237(13) 0.09057(11)
C33_2 C 0.2256(4) 0.15186(14) 0.02330(12)
C41_2 C 0.1276(4) 0.12295(16) 0.01568(13)
H49_2 H 0.0682 0.1242 0.0354
C42_2 C 0.2383(5) 0.18425(16) 0.06352(14)
N7_2 N 0.2563(4) 0.25689(15) 0.14717(11)
H53_2 H 0.2156 0.2276 0.1343
N8_2 N 0.3096(6) 0.32260(16) 0.08190(14)
H54_2 H 0.3347 0.3544 0.0964
N9_2 N 0.4828(5) 0.20949(17) 0.1466(2)
N10_2 N 0.5351(5) 0.2703(3) 0.07141(19)
C47_2 C 0.4694(7) 0.2181(2) 0.1935(2)
H55_2 H 0.4837 0.2541 0.2009
H56_2 H 0.5207 0.1961 0.2097
C48_2 C 0.2691(6) 0.2430(3) 0.19331(17)
H57_2 H 0.1965 0.2307 0.2040
H58_2 H 0.2886 0.2742 0.2093
C49_2 C 0.1824(5) 0.3038(2) 0.1386(2)
H59_2 H 0.2071 0.3326 0.1563
H60_2 H 0.1041 0.2959 0.1458
C50_2 C 0.4302(7) 0.1555(2) 0.1442(3)
H61_2 H 0.4856 0.1291 0.1515
H62_2 H 0.4012 0.1486 0.1156
C51_2 C 0.3316(8) 0.3330(3) 0.0347(2)
H63_2 H 0.3101 0.3686 0.0282
H64_2 H 0.2840 0.3102 0.0176
C52_2 C 0.3365(8) 0.1566(2) 0.1759(3)
H65_2 H 0.2634 0.1573 0.1615
H66_2 H 0.3396 0.1261 0.1943
C53_2 C 0.5993(7) 0.2230(4) 0.0810(4)
H67_2 H 0.5672 0.1939 0.0654
H68_2 H 0.6777 0.2272 0.0721
C54_2 C 0.5005(8) 0.2746(3) 0.0268(2)
H69_2 H 0.5659 0.2721 0.0080
H70_2 H 0.4473 0.2473 0.0195
C55_2 C 0.5934(8) 0.2117(3) 0.1337(3)
H71_2 H 0.6325 0.2392 0.1490
H72_2 H 0.6310 0.1791 0.1402
C56_2 C 0.1905(8) 0.3178(2) 0.0935(3)
H73_2 H 0.1602 0.2884 0.0771
C57_2 C 0.1248(8) 0.3650(3) 0.0797(3)
H74_2 H 0.1601 0.3801 0.0549
H75_2 H 0.0482 0.3552 0.0729
H76_2 H 0.1240 0.3900 0.1026
N11_2 N 0.3531(7) 0.2044(2) 0.20149(17)
N12_2 N 0.4470(8) 0.3254(3) 0.0229(2)
C58_2 C 0.6068(7) 0.3190(3) 0.0736(3)
H77_2 H 0.6790 0.3144 0.0590
H78_2 H 0.6204 0.3296 0.1030
C59_2 C 0.5338(7) 0.3562(3) 0.0509(2)
H79_2 H 0.4936 0.3777 0.0715
H80_2 H 0.5796 0.3786 0.0328
O3_2 O 0.3120(2) 0.94244(9) 0.91593(8)
C2_2 C 0.2500 1.0000 0.86195(15)
C3_2 C 0.2946(3) 0.91044(14) 0.95046(12)
C5_2 C 0.2169(3) 0.95400(13) 0.88948(11)
H1_2 H 0.1981 0.9244 0.8716
H2_2 H 0.1513 0.9625 0.9070
C6_2 C 0.1856(4) 0.85183(15) 0.99386(13)
H3_2 H 0.1192 0.8330 0.9986
C9_2 C 0.1942(3) 0.88334(14) 0.95736(12)
H5_2 H 0.1340 0.8861 0.9381
H7_2 H 0.1323 0.9861 0.8142
C11_2 C 0.3831(4) 0.90753(16) 0.97936(14)
H8_2 H 0.4498 0.9260 0.9744
C31_2 C 0.5527(5) 0.8673(2) 0.66471(15)
O8_2 O 0.6210(4) 0.89752(13) 0.64597(12)
O10_2 O 0.3177(2) 0.94038(9) 0.81024(9)
C36_2 C 0.3802(4) 0.92547(14) 0.77530(13)
C37_2 C 0.3394(4) 0.88178(15) 0.75402(14)
H44_2 H 0.2741 0.8652 0.7637
C39_2 C 0.3500(3) 0.98567(13) 0.83374(11)
H46_2 H 0.4165 0.9786 0.8512
C43_2 C 0.3960(4) 0.86319(17) 0.71857(14)
H50_2 H 0.3694 0.8336 0.7046
C44_2 C 0.5310(4) 0.93147(15) 0.72443(14)
H51_2 H 0.5945 0.9489 0.7141
C45_2 C 0.4759(4) 0.94928(15) 0.76089(13)
H52_2 H 0.5048 0.9778 0.7756
C46_2 C 0.4916(4) 0.88794(16) 0.70355(13)
C1_2 C 0.9473(5) 0.1327(2) 0.66471(15)
O2_2 O 0.8790(4) 0.10248(13) 0.64597(12)
C15_2 C 0.9690(4) 0.06853(15) 0.72443(14)
H11_2 H 0.9055 0.0511 0.7141
H12_2 H 0.9952 0.0222 0.7756
N4_2 N 0.0351(5) 0.2703(3) 0.92859(19)
H16_2 H 0.0207 0.1961 0.7903
C24_2 C 0.0993(7) 0.2230(4) 0.9190(4)
H27_2 H 0.0672 0.1939 0.9346
H28_2 H 0.1777 0.2272 0.9279
C25_2 C 0.0005(8) 0.2746(3) 0.9732(2)
H29_2 H 0.0659 0.2721 0.9920
C26_2 C 0.0934(8) 0.2117(3) 0.8663(3)
H31_2 H 0.1325 0.2392 0.8510
H32_2 H 0.1310 0.1791 0.8598
C29_2 C 0.1068(7) 0.3190(3) 0.9264(3)
H37_2 H 0.1790 0.3144 0.9410
H38_2 H 0.1204 0.3296 0.8970
C30_2 C 0.0338(7) 0.3562(3) 0.9491(2)
H40_2 H 0.0796 0.3786 0.9672
O1_2 O 0.0317(3) 0.82145(12) 0.34608(10)
C1_3 C 0.0527(5) 0.8673(2) 0.33529(15)
O2_3 O 0.1210(4) 0.89752(13) 0.35403(12)
C15_3 C 0.0310(4) 0.93147(15) 0.27557(14)
H11_3 H 0.0945 0.9489 0.2859
H12_3 H 0.0048 0.9778 0.2244
Ni4_2 Ni 0.10377(6) 0.76583(2) 0.38869(2)
O3_3 O 0.6880(2) 0.05756(9) 0.08407(8)
C2_3 C 0.7500 0.0000 0.13805(15)
C3_3 C 0.7054(3) 0.08956(14) 0.04954(12)
C5_3 C 0.7831(3) 0.04600(13) 0.11052(11)
H1_3 H 0.8019 0.0756 0.1284
H2_3 H 0.8487 0.0375 0.0930
C6_3 C 0.8144(4) 0.14817(15) 0.00614(13)
H3_3 H 0.8808 0.1670 0.0014
C9_3 C 0.8058(3) 0.11666(14) 0.04264(12)
H5_3 H 0.8660 0.1139 0.0619
H7_3 H 0.8677 0.0139 0.1858
C11_3 C 0.6169(4) 0.09247(16) 0.02064(14)
H8_3 H 0.5502 0.0740 0.0256
O7_2 O 0.4683(3) 0.17855(12) 0.34608(10)
C31_3 C 0.4473(5) 0.1327(2) 0.33529(15)
O8_3 O 0.3790(4) 0.10248(13) 0.35403(12)
O10_3 O 0.6823(2) 0.05962(9) 0.18976(9)
C36_3 C 0.6198(4) 0.07453(14) 0.22470(13)
C37_3 C 0.6606(4) 0.11822(15) 0.24598(14)
H44_3 H 0.7259 0.1348 0.2363
C39_3 C 0.6500(3) 0.01433(13) 0.16626(11)
H46_3 H 0.5835 0.0214 0.1488
C43_3 C 0.6040(4) 0.13681(17) 0.28143(14)
H50_3 H 0.6306 0.1664 0.2954
C44_3 C 0.4690(4) 0.06853(15) 0.27557(14)
H51_3 H 0.4055 0.0511 0.2859
C45_3 C 0.5241(4) 0.05072(15) 0.23911(13)
H52_3 H 0.4952 0.0222 0.2244
C46_3 C 0.5084(4) 0.11206(16) 0.29645(13)
Ni3_2 Ni 0.39623(6) 0.23417(2) 0.38869(2)
O11_3 O 0.6729(3) 0.79035(12) 0.93311(9)
O12_3 O 0.8410(3) 0.81763(13) 0.90943(11)
C33_3 C 0.7744(4) 0.84814(14) 0.97670(12)
C41_3 C 0.8724(4) 0.87705(16) 0.98432(13)
H49_3 H 0.9318 0.8758 0.9646
C42_3 C 0.7617(5) 0.81575(16) 0.93648(14)
Ni2_2 Ni 0.60377(6) 0.73417(2) 0.88869(2)
N7_3 N 0.7437(4) 0.74311(15) 0.85283(11)
H53_3 H 0.7844 0.7724 0.8657
N8_3 N 0.6904(6) 0.67740(16) 0.91810(14)
H54_3 H 0.6653 0.6456 0.9036
N9_3 N 0.5172(5) 0.79051(17) 0.8534(2)
N10_3 N 0.4649(5) 0.7297(3) 0.92859(19)
C47_3 C 0.5306(7) 0.7819(2) 0.8065(2)
H55_3 H 0.5163 0.7459 0.7991
H56_3 H 0.4793 0.8039 0.7903
C48_3 C 0.7309(6) 0.7570(3) 0.80669(17)
H57_3 H 0.8035 0.7693 0.7960
H58_3 H 0.7114 0.7258 0.7907
C49_3 C 0.8176(5) 0.6962(2) 0.8614(2)
H59_3 H 0.7929 0.6674 0.8437
H60_3 H 0.8959 0.7041 0.8542
C50_3 C 0.5698(7) 0.8445(2) 0.8558(3)
H61_3 H 0.5144 0.8709 0.8485
H62_3 H 0.5988 0.8514 0.8844
C51_3 C 0.6684(8) 0.6670(3) 0.9653(2)
H63_3 H 0.6899 0.6314 0.9718
H64_3 H 0.7160 0.6898 0.9824
C52_3 C 0.6635(8) 0.8434(2) 0.8241(3)
H65_3 H 0.7366 0.8427 0.8385
H66_3 H 0.6604 0.8739 0.8057
C53_3 C 0.4007(7) 0.7770(4) 0.9190(4)
H67_3 H 0.4328 0.8061 0.9346
H68_3 H 0.3223 0.7728 0.9279
C54_3 C 0.4995(8) 0.7254(3) 0.9732(2)
H69_3 H 0.4341 0.7279 0.9920
H70_3 H 0.5527 0.7527 0.9805
C55_3 C 0.4066(8) 0.7883(3) 0.8663(3)
H71_3 H 0.3675 0.7608 0.8510
H72_3 H 0.3690 0.8209 0.8598
C56_3 C 0.8095(8) 0.6822(2) 0.9065(3)
H73_3 H 0.8398 0.7116 0.9229
C57_3 C 0.8752(8) 0.6350(3) 0.9203(3)
H74_3 H 0.8399 0.6199 0.9451
H75_3 H 0.9518 0.6448 0.9271
H76_3 H 0.8760 0.6100 0.8974
N11_3 N 0.6469(7) 0.7956(2) 0.79851(17)
N12_3 N 0.5530(8) 0.6746(3) 0.9771(2)
C58_3 C 0.3932(7) 0.6810(3) 0.9264(3)
H77_3 H 0.3210 0.6856 0.9410
H78_3 H 0.3796 0.6704 0.8970
C59_3 C 0.4662(7) 0.6438(3) 0.9491(2)
H79_3 H 0.5064 0.6223 0.9285
H80_3 H 0.4204 0.6214 0.9672
O13_2 O 0.5317(3) 0.67855(12) 0.84608(10)
C1_4 C 0.5527(5) 0.6327(2) 0.83529(15)
O2_4 O 0.6210(4) 0.60248(13) 0.85403(12)
O3_4 O 0.1880(2) 0.44244(9) 0.58407(8)
O4_2 O 0.3177(2) 0.55962(9) 0.68976(9)
O5_3 O 0.3271(3) 0.29035(12) 0.43311(9)
O6_3 O 0.1590(3) 0.31763(13) 0.40943(11)
C2_4 C 0.2500 0.5000 0.63805(15)
C3_4 C 0.2054(3) 0.41044(14) 0.54954(12)
C4_3 C 0.2256(4) 0.34814(14) 0.47670(12)
C5_4 C 0.2831(3) 0.45400(13) 0.61052(11)
H1_4 H 0.3019 0.4244 0.6284
H2_4 H 0.3487 0.4625 0.5930
C6_4 C 0.3144(4) 0.35183(15) 0.50614(13)
H3_4 H 0.3808 0.3330 0.5014
C7_2 C 0.3802(4) 0.57453(14) 0.72470(13)
C8_2 C 0.3394(4) 0.61822(15) 0.74598(14)
H4_2 H 0.2741 0.6348 0.7363
C9_4 C 0.3058(3) 0.38334(14) 0.54264(12)
H5_4 H 0.3660 0.3861 0.5619
C10_2 C 0.3500(3) 0.51433(13) 0.66626(11)
H6_2 H 0.4165 0.5214 0.6488
H7_4 H 0.3677 0.4861 0.6858
C11_4 C 0.1169(4) 0.40753(16) 0.52064(14)
H8_4 H 0.0502 0.4260 0.5256
C12_3 C 0.1276(4) 0.37705(16) 0.48432(13)
H9_3 H 0.0682 0.3758 0.4646
C13_3 C 0.2383(5) 0.31575(16) 0.43648(14)
C14_2 C 0.3960(4) 0.63681(17) 0.78143(14)
H10_2 H 0.3694 0.6664 0.7954
C15_4 C 0.5310(4) 0.56853(15) 0.77557(14)
H11_4 H 0.5945 0.5511 0.7859
C16_2 C 0.4759(4) 0.55072(15) 0.73911(13)
H12_4 H 0.5048 0.5222 0.7244
C17_2 C 0.4916(4) 0.61206(16) 0.79645(13)
N1_3 N 0.2563(4) 0.24311(15) 0.35283(11)
H13_3 H 0.2156 0.2724 0.3657
N2_3 N 0.3096(6) 0.17740(16) 0.41810(14)
H14_3 H 0.3347 0.1456 0.4036
N3_3 N 0.4828(5) 0.29051(17) 0.3534(2)
N4_3 N 0.5351(5) 0.2297(3) 0.42859(19)
C18_3 C 0.4694(7) 0.2819(2) 0.3065(2)
H15_3 H 0.4837 0.2459 0.2991
H16_3 H 0.5207 0.3039 0.2903
C19_3 C 0.2691(6) 0.2570(3) 0.30669(17)
H17_3 H 0.1965 0.2693 0.2960
H18_3 H 0.2886 0.2258 0.2907
C20_3 C 0.1824(5) 0.1962(2) 0.3614(2)
H19_3 H 0.2071 0.1674 0.3437
H20_3 H 0.1041 0.2041 0.3542
C21_3 C 0.4302(7) 0.3445(2) 0.3558(3)
H21_3 H 0.4856 0.3709 0.3485
H22_3 H 0.4012 0.3514 0.3844
C22_3 C 0.3316(8) 0.1670(3) 0.4653(2)
H23_3 H 0.3101 0.1314 0.4718
H24_3 H 0.2840 0.1898 0.4824
C23_3 C 0.3365(8) 0.3434(2) 0.3241(3)
H25_3 H 0.2634 0.3427 0.3385
H26_3 H 0.3396 0.3739 0.3057
C24_3 C 0.5993(7) 0.2770(4) 0.4190(4)
H27_3 H 0.5672 0.3061 0.4346
H28_3 H 0.6777 0.2728 0.4279
C25_3 C 0.5005(8) 0.2254(3) 0.4732(2)
H29_3 H 0.5659 0.2279 0.4920
H30_3 H 0.4473 0.2527 0.4805
C26_3 C 0.5934(8) 0.2883(3) 0.3663(3)
H31_3 H 0.6325 0.2608 0.3510
H32_3 H 0.6310 0.3209 0.3598
C27_3 C 0.1905(8) 0.1822(2) 0.4065(3)
H33_3 H 0.1602 0.2116 0.4229
C28_3 C 0.1248(8) 0.1350(3) 0.4203(3)
H34_3 H 0.1601 0.1199 0.4451
H35_3 H 0.0482 0.1448 0.4271
H36_3 H 0.1240 0.1100 0.3974
N5_3 N 0.3531(7) 0.2956(2) 0.29851(17)
N6_3 N 0.4470(8) 0.1746(3) 0.4771(2)
C29_3 C 0.6068(7) 0.1810(3) 0.4264(3)
H37_3 H 0.6790 0.1856 0.4410
H38_3 H 0.6204 0.1704 0.3970
C30_3 C 0.5338(7) 0.1438(3) 0.4491(2)
H39_3 H 0.4936 0.1223 0.4285
H40_3 H 0.5796 0.1214 0.4672
O9_2 O 0.3120(2) 0.55756(9) 0.58407(8)
O10_4 O 0.1823(2) 0.44038(9) 0.68976(9)
O11_4 O 0.1729(3) 0.70965(12) 0.43311(9)
O12_4 O 0.3410(3) 0.68237(13) 0.40943(11)
C32_2 C 0.2946(3) 0.58956(14) 0.54954(12)
C33_4 C 0.2744(4) 0.65186(14) 0.47670(12)
C34_2 C 0.2169(3) 0.54600(13) 0.61052(11)
H41_2 H 0.1981 0.5756 0.6284
H42_2 H 0.1513 0.5375 0.5930
C35_2 C 0.1856(4) 0.64817(15) 0.50614(13)
H43_2 H 0.1192 0.6670 0.5014
C36_4 C 0.1198(4) 0.42547(14) 0.72470(13)
C37_4 C 0.1606(4) 0.38178(15) 0.74598(14)
H44_4 H 0.2259 0.3652 0.7363
C38_2 C 0.1942(3) 0.61666(14) 0.54264(12)
H45_2 H 0.1340 0.6139 0.5619
C39_4 C 0.1500(3) 0.48567(13) 0.66626(11)
H46_4 H 0.0835 0.4786 0.6488
H47_2 H 0.1323 0.5139 0.6858
C40_2 C 0.3831(4) 0.59247(16) 0.52064(14)
H48_2 H 0.4498 0.5740 0.5256
C41_4 C 0.3724(4) 0.62295(16) 0.48432(13)
H49_4 H 0.4318 0.6242 0.4646
C42_4 C 0.2617(5) 0.68425(16) 0.43648(14)
C43_4 C 0.1040(4) 0.36319(17) 0.78143(14)
H50_4 H 0.1306 0.3336 0.7954
C45_4 C 0.0241(4) 0.44928(15) 0.73911(13)
C46_4 C 0.0084(4) 0.38794(16) 0.79645(13)
N7_4 N 0.2437(4) 0.75689(15) 0.35283(11)
H53_4 H 0.2844 0.7276 0.3657
N8_4 N 0.1904(6) 0.82260(16) 0.41810(14)
H54_4 H 0.1653 0.8544 0.4036
N9_4 N 0.0172(5) 0.70949(17) 0.3534(2)
C47_4 C 0.0306(7) 0.7181(2) 0.3065(2)
H55_4 H 0.0163 0.7541 0.2991
C48_4 C 0.2309(6) 0.7430(3) 0.30669(17)
H57_4 H 0.3035 0.7307 0.2960
H58_4 H 0.2114 0.7742 0.2907
C49_4 C 0.3176(5) 0.8038(2) 0.3614(2)
H59_4 H 0.2929 0.8326 0.3437
H60_4 H 0.3959 0.7959 0.3542
C50_4 C 0.0698(7) 0.6555(2) 0.3558(3)
H61_4 H 0.0144 0.6291 0.3485
H62_4 H 0.0988 0.6486 0.3844
C51_4 C 0.1684(8) 0.8330(3) 0.4653(2)
H63_4 H 0.1899 0.8686 0.4718
H64_4 H 0.2160 0.8102 0.4824
C52_4 C 0.1635(8) 0.6566(2) 0.3241(3)
H65_4 H 0.2366 0.6573 0.3385
H66_4 H 0.1604 0.6261 0.3057
H70_4 H 0.0527 0.7473 0.4805
C56_4 C 0.3095(8) 0.8178(2) 0.4065(3)
H73_4 H 0.3398 0.7884 0.4229
C57_4 C 0.3752(8) 0.8650(3) 0.4203(3)
H74_4 H 0.3399 0.8801 0.4451
H75_4 H 0.4518 0.8552 0.4271
H76_4 H 0.3760 0.8900 0.3974
N11_4 N 0.1469(7) 0.7044(2) 0.29851(17)
N12_4 N 0.0530(8) 0.8254(3) 0.4771(2)
H79_4 H 0.0064 0.8777 0.4285
Ni1_2 Ni 0.89623(6) 0.26583(2) 0.88869(2)
O5_4 O 0.8271(3) 0.20965(12) 0.93311(9)
O6_4 O 0.6590(3) 0.18237(13) 0.90943(11)
C4_4 C 0.7256(4) 0.15186(14) 0.97670(12)
C12_4 C 0.6276(4) 0.12295(16) 0.98432(13)
H9_4 H 0.5682 0.1242 0.9646
C13_4 C 0.7383(5) 0.18425(16) 0.93648(14)
N1_4 N 0.7563(4) 0.25689(15) 0.85283(11)
H13_4 H 0.7156 0.2276 0.8657
N2_4 N 0.8096(6) 0.32260(16) 0.91810(14)
H14_4 H 0.8347 0.3544 0.9036
N3_4 N 0.9828(5) 0.20949(17) 0.8534(2)
C18_4 C 0.9694(7) 0.2181(2) 0.8065(2)
H15_4 H 0.9837 0.2541 0.7991
C19_4 C 0.7691(6) 0.2430(3) 0.80669(17)
H17_4 H 0.6965 0.2307 0.7960
H18_4 H 0.7886 0.2742 0.7907
C20_4 C 0.6824(5) 0.3038(2) 0.8614(2)
H19_4 H 0.7071 0.3326 0.8437
H20_4 H 0.6041 0.2959 0.8542
C21_4 C 0.9302(7) 0.1555(2) 0.8558(3)
H21_4 H 0.9856 0.1291 0.8485
H22_4 H 0.9012 0.1486 0.8844
C22_4 C 0.8316(8) 0.3330(3) 0.9653(2)
H23_4 H 0.8101 0.3686 0.9718
H24_4 H 0.7840 0.3102 0.9824
C23_4 C 0.8365(8) 0.1566(2) 0.8241(3)
H25_4 H 0.7634 0.1573 0.8385
H26_4 H 0.8396 0.1261 0.8057
H30_4 H 0.9473 0.2473 0.9805
C27_4 C 0.6905(8) 0.3178(2) 0.9065(3)
H33_4 H 0.6602 0.2884 0.9229
C28_4 C 0.6248(8) 0.3650(3) 0.9203(3)
H34_4 H 0.6601 0.3801 0.9451
H35_4 H 0.5482 0.3552 0.9271
H36_4 H 0.6240 0.3900 0.8974
N5_4 N 0.8531(7) 0.2044(2) 0.79851(17)
N6_4 N 0.9470(8) 0.3254(3) 0.9771(2)
H39_4 H 0.9936 0.3777 0.9285
O14_2 O 0.9683(3) 0.32145(12) 0.84608(10)
C31_4 C 0.9473(5) 0.3673(2) 0.83529(15)
O8_4 O 0.8790(4) 0.39752(13) 0.85403(12)
C44_4 C 0.9690(4) 0.43147(15) 0.77557(14)
H51_4 H 0.9055 0.4489 0.7859
H52_4 H 0.9952 0.4778 0.7244
N10_4 N 0.9649(5) 0.7703(3) 0.42859(19)
H56_4 H 0.9793 0.6961 0.2903
C53_4 C 0.9007(7) 0.7230(4) 0.4190(4)
H67_4 H 0.9328 0.6939 0.4346
H68_4 H 0.8223 0.7272 0.4279
C54_4 C 0.9995(8) 0.7746(3) 0.4732(2)
H69_4 H 0.9341 0.7721 0.4920
C55_4 C 0.9066(8) 0.7117(3) 0.3663(3)
H71_4 H 0.8675 0.7392 0.3510
H72_4 H 0.8690 0.6791 0.3598
C58_4 C 0.8932(7) 0.8190(3) 0.4264(3)
H77_4 H 0.8210 0.8144 0.4410
H78_4 H 0.8796 0.8296 0.3970
C59_4 C 0.9662(7) 0.8562(3) 0.4491(2)
H80_4 H 0.9204 0.8786 0.4672
O4_3 O 0.8177(2) 0.94038(9) 0.18976(9)
C2_5 C 0.7500 1.0000 0.13805(15)
C7_3 C 0.8802(4) 0.92547(14) 0.22470(13)
C8_3 C 0.8394(4) 0.88178(15) 0.24598(14)
H4_3 H 0.7741 0.8652 0.2363
C10_3 C 0.8500(3) 0.98567(13) 0.16626(11)
H6_3 H 0.9165 0.9786 0.1488
C14_3 C 0.8960(4) 0.86319(17) 0.28143(14)
H10_3 H 0.8694 0.8336 0.2954
C16_3 C 0.9759(4) 0.94928(15) 0.23911(13)
C17_3 C 0.9916(4) 0.88794(16) 0.29645(13)
O9_3 O 0.8120(2) 0.94244(9) 0.08407(8)
C32_3 C 0.7946(3) 0.91044(14) 0.04954(12)
C34_3 C 0.7169(3) 0.95400(13) 0.11052(11)
H41_3 H 0.6981 0.9244 0.1284
H42_3 H 0.6513 0.9625 0.0930
C35_3 C 0.6856(4) 0.85183(15) 0.00614(13)
H43_3 H 0.6192 0.8330 0.0014
C38_3 C 0.6942(3) 0.88334(14) 0.04264(12)
H45_3 H 0.6340 0.8861 0.0619
H47_3 H 0.6323 0.9861 0.1858
C40_3 C 0.8831(4) 0.90753(16) 0.02064(14)
H48_3 H 0.9498 0.9260 0.0256
O4_4 O 0.1823(2) 0.05962(9) 0.81024(9)
C2_6 C 0.2500 0.0000 0.86195(15)
C7_4 C 0.1198(4) 0.07453(14) 0.77530(13)
C8_4 C 0.1606(4) 0.11822(15) 0.75402(14)
H4_4 H 0.2259 0.1348 0.7637
C10_4 C 0.1500(3) 0.01433(13) 0.83374(11)
H6_4 H 0.0835 0.0214 0.8512
C14_4 C 0.1040(4) 0.13681(17) 0.71857(14)
H10_4 H 0.1306 0.1664 0.7046
C16_4 C 0.0241(4) 0.05072(15) 0.76089(13)
C17_4 C 0.0084(4) 0.11206(16) 0.70355(13)
O9_4 O 0.1880(2) 0.05756(9) 0.91593(8)
C32_4 C 0.2054(3) 0.08956(14) 0.95046(12)
C34_4 C 0.2831(3) 0.04600(13) 0.88948(11)
H41_4 H 0.3019 0.0756 0.8716
H42_4 H 0.3487 0.0375 0.9070
C35_4 C 0.3144(4) 0.14817(15) 0.99386(13)
H43_4 H 0.3808 0.1670 0.9986
C38_4 C 0.3058(3) 0.11666(14) 0.95736(12)
H45_4 H 0.3660 0.1139 0.9381
H47_4 H 0.3677 0.0139 0.8142
C40_4 C 0.1169(4) 0.09247(16) 0.97936(14)
H48_4 H 0.0502 0.0740 0.9744
N4_4 N 0.9649(5) 0.7297(3) 0.07141(19)
H16_4 H 0.9793 0.8039 0.2097
C24_4 C 0.9007(7) 0.7770(4) 0.0810(4)
H27_4 H 0.9328 0.8061 0.0654
H28_4 H 0.8223 0.7728 0.0721
C25_4 C 0.9995(8) 0.7254(3) 0.0268(2)
H29_4 H 0.9341 0.7279 0.0080
C26_4 C 0.9066(8) 0.7883(3) 0.1337(3)
H31_4 H 0.8675 0.7608 0.1490
H32_4 H 0.8690 0.8209 0.1402
C29_4 C 0.8932(7) 0.6810(3) 0.0736(3)
H37_4 H 0.8210 0.6856 0.0590
H38_4 H 0.8796 0.6704 0.1030
C30_4 C 0.9662(7) 0.6438(3) 0.0509(2)
H40_4 H 0.9204 0.6214 0.0328
loop_
_geom_bond_atom_site_label_1
_geom_bond_atom_site_label_2
_geom_bond_site_symmetry_1
_geom_bond_site_symmetry_2
O7 C31 1_555 1_555
C31 O8 1_555 1_555
C44 H51 1_555 1_555
C53 N10 1_555 1_555
H67 C53 1_555 1_555
H68 C53 1_555 1_555
C54 N10 1_555 1_555
H69 C54 1_555 1_555
H71 C55 1_555 1_555
H72 C55 1_555 1_555
C58 N10 1_555 1_555
H77 C58 1_555 1_555
H78 C58 1_555 1_555
H80 C59 1_555 1_555
Ni3 O7 1_555 1_555
C53 C55 1_555 1_555
C58 C59 1_555 1_555
Ni3 O5 1_555 1_555
O5 C13 1_555 1_555
O6 C13 1_555 1_555
C12 C4 1_555 1_555
H9 C12 1_555 1_555
C13 C4 1_555 1_555
N1 Ni3 1_555 1_555
H13 N1 1_555 1_555
N2 Ni3 1_555 1_555
H14 N2 1_555 1_555
N3 Ni3 1_555 1_555
C18 N3 1_555 1_555
H15 C18 1_555 1_555
C19 N1 1_555 1_555
H17 C19 1_555 1_555
H18 C19 1_555 1_555
C20 N1 1_555 1_555
H19 C20 1_555 1_555
H20 C20 1_555 1_555
C21 N3 1_555 1_555
H21 C21 1_555 1_555
H22 C21 1_555 1_555
C22 N2 1_555 1_555
H23 C22 1_555 1_555
H24 C22 1_555 1_555
C23 C21 1_555 1_555
H25 C23 1_555 1_555
H26 C23 1_555 1_555
C27 N2 1_555 1_555
H33 C27 1_555 1_555
C28 C27 1_555 1_555
H34 C28 1_555 1_555
H35 C28 1_555 1_555
H36 C28 1_555 1_555
N5 C18 1_555 1_555
N6 C22 1_555 1_555
C19 N5 1_555 1_555
C20 C27 1_555 1_555
C23 N5 1_555 1_555
O1 C1 1_555 1_555
C1 O2 1_555 1_555
Ni1 O5_2 1_555 1_555
O3 C3 1_555 1_555
O4 C7 1_555 1_555
O5_2 C13_2 1_555 1_555
O6_2 C13_2 1_555 1_555
C2 C5 1_555 1_555
C3 C9 1_555 1_555
C4_2 C6 1_555 1_555
C5 O3 1_555 1_555
H1 C5 1_555 1_555
H2 C5 1_555 1_555
C6 H3 1_555 1_555
C7 C8 1_555 1_555
C8 H4 1_555 1_555
C9 C6 1_555 1_555
H5 C9 1_555 1_555
C10 O4 1_555 1_555
H6 C10 1_555 1_555
H7 C10 1_555 1_555
C11 C3 1_555 1_555
H8 C11 1_555 1_555
C12_2 C4_2 1_555 1_555
H9_2 C12_2 1_555 1_555
C13_2 C4_2 1_555 1_555
C14 C8 1_555 1_555
H10 C14 1_555 1_555
C15 H11 1_555 1_555
C16 C7 1_555 1_555
H12 C16 1_555 1_555
C17 C1 1_555 1_555
N1_2 Ni1 1_555 1_555
H13_2 N1_2 1_555 1_555
N2_2 Ni1 1_555 1_555
H14_2 N2_2 1_555 1_555
N3_2 Ni1 1_555 1_555
N4 Ni1 1_555 1_555
C18_2 N3_2 1_555 1_555
H15_2 C18_2 1_555 1_555
H16 C18_2 1_555 1_555
C19_2 N1_2 1_555 1_555
H17_2 C19_2 1_555 1_555
H18_2 C19_2 1_555 1_555
C20_2 N1_2 1_555 1_555
H19_2 C20_2 1_555 1_555
H20_2 C20_2 1_555 1_555
C21_2 N3_2 1_555 1_555
H21_2 C21_2 1_555 1_555
H22_2 C21_2 1_555 1_555
C22_2 N2_2 1_555 1_555
H23_2 C22_2 1_555 1_555
H24_2 C22_2 1_555 1_555
C23_2 C21_2 1_555 1_555
H25_2 C23_2 1_555 1_555
H26_2 C23_2 1_555 1_555
C24 N4 1_555 1_555
H27 C24 1_555 1_555
H28 C24 1_555 1_555
C25 N4 1_555 1_555
H29 C25 1_555 1_555
H30_2 C25 1_555 1_555
C26 N3_2 1_555 1_555
H31 C26 1_555 1_555
H32 C26 1_555 1_555
C27_2 N2_2 1_555 1_555
H33_2 C27_2 1_555 1_555
C28_2 C27_2 1_555 1_555
H34_2 C28_2 1_555 1_555
H35_2 C28_2 1_555 1_555
H36_2 C28_2 1_555 1_555
N5_2 C18_2 1_555 1_555
N6_2 C22_2 1_555 1_555
C29 N4 1_555 1_555
H37 C29 1_555 1_555
H38 C29 1_555 1_555
C30 N6_2 1_555 1_555
H39_2 C30 1_555 1_555
H40 C30 1_555 1_555
O9 C32 1_555 1_555
O10 C36 1_555 1_555
O11 C42 1_555 1_555
O12 C42 1_555 1_555
C32 C38 1_555 1_555
C33 C35 1_555 1_555
C34 C2 1_555 1_555
H41 C34 1_555 1_555
H42 C34 1_555 1_555
C35 H43 1_555 1_555
C36 C37 1_555 1_555
C37 H44 1_555 1_555
C38 C35 1_555 1_555
H45 C38 1_555 1_555
C39 C2 1_555 1_555
H46 C39 1_555 1_555
H47 C39 1_555 1_555
C40 C32 1_555 1_555
H48 C40 1_555 1_555
C41 C33 1_555 1_555
H49 C41 1_555 1_555
C42 C33 1_555 1_555
C43 C37 1_555 1_555
H50 C43 1_555 1_555
C45 C36 1_555 1_555
Ni2 O11 1_555 1_555
N7 Ni2 1_555 1_555
H53 N7 1_555 1_555
N8 Ni2 1_555 1_555
H54 N8 1_555 1_555
N9 Ni2 1_555 1_555
C47 N9 1_555 1_555
H55 C47 1_555 1_555
C48 N7 1_555 1_555
H57 C48 1_555 1_555
H58 C48 1_555 1_555
C49 N7 1_555 1_555
H59 C49 1_555 1_555
H60 C49 1_555 1_555
C50 N9 1_555 1_555
H61 C50 1_555 1_555
H62 C50 1_555 1_555
C51 N8 1_555 1_555
H63 C51 1_555 1_555
H64 C51 1_555 1_555
C52 C50 1_555 1_555
H65 C52 1_555 1_555
H66 C52 1_555 1_555
C56 N8 1_555 1_555
H73 C56 1_555 1_555
C57 C56 1_555 1_555
H74 C57 1_555 1_555
H75 C57 1_555 1_555
H76 C57 1_555 1_555
N11 C47 1_555 1_555
N12 C51 1_555 1_555
O13 Ni2 1_555 1_555
O14 Ni1 1_555 1_555
Ni4 O1 1_555 1_555
C2 C10 1_555 1_555
C11 C12_2 1_555 1_555
C14 C17 1_555 1_555
C15 C16 1_555 1_555
C15 C17 1_555 1_555
C19_2 N5_2 1_555 1_555
C20_2 C27_2 1_555 1_555
C23_2 N5_2 1_555 1_555
C24 C26 1_555 1_555
C25 N6_2 1_555 1_555
C29 C30 1_555 1_555
O9 C34 1_555 1_555
O10 C39 1_555 1_555
C40 C41 1_555 1_555
C43 C46 1_555 1_555
C48 N11 1_555 1_555
C49 C56 1_555 1_555
C52 N11 1_555 1_555
O11_2 C42_2 1_555 1_555
O12_2 C42_2 1_555 1_555
C41_2 C33_2 1_555 1_555
H49_2 C41_2 1_555 1_555
C42_2 C33_2 1_555 1_555
Ni4 O11_2 1_555 1_555
N7_2 Ni4 1_555 1_555
H53_2 N7_2 1_555 1_555
N8_2 Ni4 1_555 1_555
H54_2 N8_2 1_555 1_555
N9_2 Ni4 1_555 1_555
N10_2 Ni4 1_555 1_555
C47_2 N9_2 1_555 1_555
H55_2 C47_2 1_555 1_555
H56_2 C47_2 1_555 1_555
C48_2 N7_2 1_555 1_555
H57_2 C48_2 1_555 1_555
H58_2 C48_2 1_555 1_555
C49_2 N7_2 1_555 1_555
H59_2 C49_2 1_555 1_555
H60_2 C49_2 1_555 1_555
C50_2 N9_2 1_555 1_555
H61_2 C50_2 1_555 1_555
H62_2 C50_2 1_555 1_555
C51_2 N8_2 1_555 1_555
H63_2 C51_2 1_555 1_555
H64_2 C51_2 1_555 1_555
C52_2 C50_2 1_555 1_555
H65_2 C52_2 1_555 1_555
H66_2 C52_2 1_555 1_555
C53_2 N10_2 1_555 1_555
H67_2 C53_2 1_555 1_555
H68_2 C53_2 1_555 1_555
C54_2 N10_2 1_555 1_555
H69_2 C54_2 1_555 1_555
H70_2 C54_2 1_555 1_555
C55_2 N9_2 1_555 1_555
H71_2 C55_2 1_555 1_555
H72_2 C55_2 1_555 1_555
C56_2 N8_2 1_555 1_555
H73_2 C56_2 1_555 1_555
C57_2 C56_2 1_555 1_555
H74_2 C57_2 1_555 1_555
H75_2 C57_2 1_555 1_555
H76_2 C57_2 1_555 1_555
N11_2 C47_2 1_555 1_555
N12_2 C51_2 1_555 1_555
C58_2 N10_2 1_555 1_555
H77_2 C58_2 1_555 1_555
H78_2 C58_2 1_555 1_555
C59_2 N12_2 1_555 1_555
H79_2 C59_2 1_555 1_555
H80_2 C59_2 1_555 1_555
C48_2 N11_2 1_555 1_555
C49_2 C56_2 1_555 1_555
C52_2 N11_2 1_555 1_555
C53_2 C55_2 1_555 1_555
C54_2 N12_2 1_555 1_555
C58_2 C59_2 1_555 1_555
O3_2 C3_2 1_555 1_555
C2_2 C5_2 1_555 1_555
C3_2 C9_2 1_555 1_555
C5_2 O3_2 1_555 1_555
H1_2 C5_2 1_555 1_555
H2_2 C5_2 1_555 1_555
C6_2 H3_2 1_555 1_555
C9_2 C6_2 1_555 1_555
H5_2 C9_2 1_555 1_555
C11_2 C3_2 1_555 1_555
H8_2 C11_2 1_555 1_555
O14 C31_2 1_555 1_555
C31_2 O8_2 1_555 1_555
O10_2 C36_2 1_555 1_555
C36_2 C37_2 1_555 1_555
C37_2 H44_2 1_555 1_555
C39_2 C2_2 1_555 1_555
H46_2 C39_2 1_555 1_555
C43_2 C37_2 1_555 1_555
H50_2 C43_2 1_555 1_555
C44_2 H51_2 1_555 1_555
C45_2 C36_2 1_555 1_555
H52_2 C45_2 1_555 1_555
C46_2 C31_2 1_555 1_555
O10_2 C39_2 1_555 1_555
C43_2 C46_2 1_555 1_555
C44_2 C45_2 1_555 1_555
C44_2 C46_2 1_555 1_555
O13 C1_2 1_555 1_555
C1_2 O2_2 1_555 1_555
C15_2 H11_2 1_555 1_555
C24_2 N4_2 1_555 1_555
H27_2 C24_2 1_555 1_555
H28_2 C24_2 1_555 1_555
C25_2 N4_2 1_555 1_555
H29_2 C25_2 1_555 1_555
H31_2 C26_2 1_555 1_555
H32_2 C26_2 1_555 1_555
C29_2 N4_2 1_555 1_555
H37_2 C29_2 1_555 1_555
H38_2 C29_2 1_555 1_555
H40_2 C30_2 1_555 1_555
C24_2 C26_2 1_555 1_555
C29_2 C30_2 1_555 1_555
O1_2 C1_3 1_555 1_555
C1_3 O2_3 1_555 1_555
C15_3 H11_3 1_555 1_555
Ni4_2 O1_2 1_555 1_555
O3_3 C3_3 1_555 1_555
C2_3 C5_3 1_555 1_555
C3_3 C9_3 1_555 1_555
C5_3 O3_3 1_555 1_555
H1_3 C5_3 1_555 1_555
H2_3 C5_3 1_555 1_555
C6_3 H3_3 1_555 1_555
C9_3 C6_3 1_555 1_555
H5_3 C9_3 1_555 1_555
C11_3 C3_3 1_555 1_555
H8_3 C11_3 1_555 1_555
O7_2 C31_3 1_555 1_555
C31_3 O8_3 1_555 1_555
O10_3 C36_3 1_555 1_555
C36_3 C37_3 1_555 1_555
C37_3 H44_3 1_555 1_555
C39_3 C2_3 1_555 1_555
H46_3 C39_3 1_555 1_555
C43_3 C37_3 1_555 1_555
H50_3 C43_3 1_555 1_555
C44_3 H51_3 1_555 1_555
C45_3 C36_3 1_555 1_555
H52_3 C45_3 1_555 1_555
C46_3 C31_3 1_555 1_555
Ni3_2 O7_2 1_555 1_555
O10_3 C39_3 1_555 1_555
C43_3 C46_3 1_555 1_555
C44_3 C45_3 1_555 1_555
C44_3 C46_3 1_555 1_555
O11_3 C42_3 1_555 1_555
O12_3 C42_3 1_555 1_555
C41_3 C33_3 1_555 1_555
H49_3 C41_3 1_555 1_555
C42_3 C33_3 1_555 1_555
Ni2_2 O11_3 1_555 1_555
N7_3 Ni2_2 1_555 1_555
H53_3 N7_3 1_555 1_555
N8_3 Ni2_2 1_555 1_555
H54_3 N8_3 1_555 1_555
N9_3 Ni2_2 1_555 1_555
N10_3 Ni2_2 1_555 1_555
C47_3 N9_3 1_555 1_555
H55_3 C47_3 1_555 1_555
H56_3 C47_3 1_555 1_555
C48_3 N7_3 1_555 1_555
H57_3 C48_3 1_555 1_555
H58_3 C48_3 1_555 1_555
C49_3 N7_3 1_555 1_555
H59_3 C49_3 1_555 1_555
H60_3 C49_3 1_555 1_555
C50_3 N9_3 1_555 1_555
H61_3 C50_3 1_555 1_555
H62_3 C50_3 1_555 1_555
C51_3 N8_3 1_555 1_555
H63_3 C51_3 1_555 1_555
H64_3 C51_3 1_555 1_555
C52_3 C50_3 1_555 1_555
H65_3 C52_3 1_555 1_555
H66_3 C52_3 1_555 1_555
C53_3 N10_3 1_555 1_555
H67_3 C53_3 1_555 1_555
H68_3 C53_3 1_555 1_555
C54_3 N10_3 1_555 1_555
H69_3 C54_3 1_555 1_555
H70_3 C54_3 1_555 1_555
C55_3 N9_3 1_555 1_555
H71_3 C55_3 1_555 1_555
H72_3 C55_3 1_555 1_555
C56_3 N8_3 1_555 1_555
H73_3 C56_3 1_555 1_555
C57_3 C56_3 1_555 1_555
H74_3 C57_3 1_555 1_555
H75_3 C57_3 1_555 1_555
H76_3 C57_3 1_555 1_555
N11_3 C47_3 1_555 1_555
N12_3 C51_3 1_555 1_555
C58_3 N10_3 1_555 1_555
H77_3 C58_3 1_555 1_555
H78_3 C58_3 1_555 1_555
C59_3 N12_3 1_555 1_555
H79_3 C59_3 1_555 1_555
H80_3 C59_3 1_555 1_555
O13_2 Ni2_2 1_555 1_555
C48_3 N11_3 1_555 1_555
C49_3 C56_3 1_555 1_555
C52_3 N11_3 1_555 1_555
C53_3 C55_3 1_555 1_555
C54_3 N12_3 1_555 1_555
C58_3 C59_3 1_555 1_555
O13_2 C1_4 1_555 1_555
C1_4 O2_4 1_555 1_555
Ni3_2 O5_3 1_555 1_555
O3_4 C3_4 1_555 1_555
O4_2 C7_2 1_555 1_555
O5_3 C13_3 1_555 1_555
O6_3 C13_3 1_555 1_555
C2_4 C5_4 1_555 1_555
C3_4 C9_4 1_555 1_555
C4_3 C6_4 1_555 1_555
C5_4 O3_4 1_555 1_555
H1_4 C5_4 1_555 1_555
H2_4 C5_4 1_555 1_555
C6_4 H3_4 1_555 1_555
C7_2 C8_2 1_555 1_555
C8_2 H4_2 1_555 1_555
C9_4 C6_4 1_555 1_555
H5_4 C9_4 1_555 1_555
C10_2 O4_2 1_555 1_555
H6_2 C10_2 1_555 1_555
H7_4 C10_2 1_555 1_555
C11_4 C3_4 1_555 1_555
H8_4 C11_4 1_555 1_555
C12_3 C4_3 1_555 1_555
H9_3 C12_3 1_555 1_555
C13_3 C4_3 1_555 1_555
C14_2 C8_2 1_555 1_555
H10_2 C14_2 1_555 1_555
C15_4 H11_4 1_555 1_555
C16_2 C7_2 1_555 1_555
H12_4 C16_2 1_555 1_555
C17_2 C1_4 1_555 1_555
N1_3 Ni3_2 1_555 1_555
H13_3 N1_3 1_555 1_555
N2_3 Ni3_2 1_555 1_555
H14_3 N2_3 1_555 1_555
N3_3 Ni3_2 1_555 1_555
N4_3 Ni3_2 1_555 1_555
C18_3 N3_3 1_555 1_555
H15_3 C18_3 1_555 1_555
H16_3 C18_3 1_555 1_555
C19_3 N1_3 1_555 1_555
H17_3 C19_3 1_555 1_555
H18_3 C19_3 1_555 1_555
C20_3 N1_3 1_555 1_555
H19_3 C20_3 1_555 1_555
H20_3 C20_3 1_555 1_555
C21_3 N3_3 1_555 1_555
H21_3 C21_3 1_555 1_555
H22_3 C21_3 1_555 1_555
C22_3 N2_3 1_555 1_555
H23_3 C22_3 1_555 1_555
H24_3 C22_3 1_555 1_555
C23_3 C21_3 1_555 1_555
H25_3 C23_3 1_555 1_555
H26_3 C23_3 1_555 1_555
C24_3 N4_3 1_555 1_555
H27_3 C24_3 1_555 1_555
H28_3 C24_3 1_555 1_555
C25_3 N4_3 1_555 1_555
H29_3 C25_3 1_555 1_555
H30_3 C25_3 1_555 1_555
C26_3 N3_3 1_555 1_555
H31_3 C26_3 1_555 1_555
H32_3 C26_3 1_555 1_555
C27_3 N2_3 1_555 1_555
H33_3 C27_3 1_555 1_555
C28_3 C27_3 1_555 1_555
H34_3 C28_3 1_555 1_555
H35_3 C28_3 1_555 1_555
H36_3 C28_3 1_555 1_555
N5_3 C18_3 1_555 1_555
N6_3 C22_3 1_555 1_555
C29_3 N4_3 1_555 1_555
H37_3 C29_3 1_555 1_555
H38_3 C29_3 1_555 1_555
C30_3 N6_3 1_555 1_555
H39_3 C30_3 1_555 1_555
H40_3 C30_3 1_555 1_555
O9_2 C32_2 1_555 1_555
O10_4 C36_4 1_555 1_555
O11_4 C42_4 1_555 1_555
O12_4 C42_4 1_555 1_555
C32_2 C38_2 1_555 1_555
C33_4 C35_2 1_555 1_555
C34_2 C2_4 1_555 1_555
H41_2 C34_2 1_555 1_555
H42_2 C34_2 1_555 1_555
C35_2 H43_2 1_555 1_555
C36_4 C37_4 1_555 1_555
C37_4 H44_4 1_555 1_555
C38_2 C35_2 1_555 1_555
H45_2 C38_2 1_555 1_555
C39_4 C2_4 1_555 1_555
H46_4 C39_4 1_555 1_555
H47_2 C39_4 1_555 1_555
C40_2 C32_2 1_555 1_555
H48_2 C40_2 1_555 1_555
C41_4 C33_4 1_555 1_555
H49_4 C41_4 1_555 1_555
C42_4 C33_4 1_555 1_555
C43_4 C37_4 1_555 1_555
H50_4 C43_4 1_555 1_555
C45_4 C36_4 1_555 1_555
Ni4_2 O11_4 1_555 1_555
N7_4 Ni4_2 1_555 1_555
H53_4 N7_4 1_555 1_555
N8_4 Ni4_2 1_555 1_555
H54_4 N8_4 1_555 1_555
N9_4 Ni4_2 1_555 1_555
C47_4 N9_4 1_555 1_555
H55_4 C47_4 1_555 1_555
C48_4 N7_4 1_555 1_555
H57_4 C48_4 1_555 1_555
H58_4 C48_4 1_555 1_555
C49_4 N7_4 1_555 1_555
H59_4 C49_4 1_555 1_555
H60_4 C49_4 1_555 1_555
C50_4 N9_4 1_555 1_555
H61_4 C50_4 1_555 1_555
H62_4 C50_4 1_555 1_555
C51_4 N8_4 1_555 1_555
H63_4 C51_4 1_555 1_555
H64_4 C51_4 1_555 1_555
C52_4 C50_4 1_555 1_555
H65_4 C52_4 1_555 1_555
H66_4 C52_4 1_555 1_555
C56_4 N8_4 1_555 1_555
H73_4 C56_4 1_555 1_555
C57_4 C56_4 1_555 1_555
H74_4 C57_4 1_555 1_555
H75_4 C57_4 1_555 1_555
H76_4 C57_4 1_555 1_555
N11_4 C47_4 1_555 1_555
N12_4 C51_4 1_555 1_555
C2_4 C10_2 1_555 1_555
C11_4 C12_3 1_555 1_555
C14_2 C17_2 1_555 1_555
C15_4 C16_2 1_555 1_555
C15_4 C17_2 1_555 1_555
C19_3 N5_3 1_555 1_555
C20_3 C27_3 1_555 1_555
C23_3 N5_3 1_555 1_555
C24_3 C26_3 1_555 1_555
C25_3 N6_3 1_555 1_555
C29_3 C30_3 1_555 1_555
O9_2 C34_2 1_555 1_555
O10_4 C39_4 1_555 1_555
C40_2 C41_4 1_555 1_555
C43_4 C46_4 1_555 1_555
C48_4 N11_4 1_555 1_555
C49_4 C56_4 1_555 1_555
C52_4 N11_4 1_555 1_555
Ni1_2 O5_4 1_555 1_555
O5_4 C13_4 1_555 1_555
O6_4 C13_4 1_555 1_555
C12_4 C4_4 1_555 1_555
H9_4 C12_4 1_555 1_555
C13_4 C4_4 1_555 1_555
N1_4 Ni1_2 1_555 1_555
H13_4 N1_4 1_555 1_555
N2_4 Ni1_2 1_555 1_555
H14_4 N2_4 1_555 1_555
N3_4 Ni1_2 1_555 1_555
C18_4 N3_4 1_555 1_555
H15_4 C18_4 1_555 1_555
C19_4 N1_4 1_555 1_555
H17_4 C19_4 1_555 1_555
H18_4 C19_4 1_555 1_555
C20_4 N1_4 1_555 1_555
H19_4 C20_4 1_555 1_555
H20_4 C20_4 1_555 1_555
C21_4 N3_4 1_555 1_555
H21_4 C21_4 1_555 1_555
H22_4 C21_4 1_555 1_555
C22_4 N2_4 1_555 1_555
H23_4 C22_4 1_555 1_555
H24_4 C22_4 1_555 1_555
C23_4 C21_4 1_555 1_555
H25_4 C23_4 1_555 1_555
H26_4 C23_4 1_555 1_555
C27_4 N2_4 1_555 1_555
H33_4 C27_4 1_555 1_555
C28_4 C27_4 1_555 1_555
H34_4 C28_4 1_555 1_555
H35_4 C28_4 1_555 1_555
H36_4 C28_4 1_555 1_555
N5_4 C18_4 1_555 1_555
N6_4 C22_4 1_555 1_555
O14_2 Ni1_2 1_555 1_555
C19_4 N5_4 1_555 1_555
C20_4 C27_4 1_555 1_555
C23_4 N5_4 1_555 1_555
O14_2 C31_4 1_555 1_555
C31_4 O8_4 1_555 1_555
C44_4 H51_4 1_555 1_555
C53_4 N10_4 1_555 1_555
H67_4 C53_4 1_555 1_555
H68_4 C53_4 1_555 1_555
C54_4 N10_4 1_555 1_555
H69_4 C54_4 1_555 1_555
H71_4 C55_4 1_555 1_555
H72_4 C55_4 1_555 1_555
C58_4 N10_4 1_555 1_555
H77_4 C58_4 1_555 1_555
H78_4 C58_4 1_555 1_555
H80_4 C59_4 1_555 1_555
C53_4 C55_4 1_555 1_555
C58_4 C59_4 1_555 1_555
O4_3 C7_3 1_555 1_555
C7_3 C8_3 1_555 1_555
C8_3 H4_3 1_555 1_555
C10_3 O4_3 1_555 1_555
H6_3 C10_3 1_555 1_555
C14_3 C8_3 1_555 1_555
H10_3 C14_3 1_555 1_555
C16_3 C7_3 1_555 1_555
O9_3 C32_3 1_555 1_555
C32_3 C38_3 1_555 1_555
C34_3 C2_5 1_555 1_555
H41_3 C34_3 1_555 1_555
H42_3 C34_3 1_555 1_555
C35_3 H43_3 1_555 1_555
C38_3 C35_3 1_555 1_555
H45_3 C38_3 1_555 1_555
C40_3 C32_3 1_555 1_555
H48_3 C40_3 1_555 1_555
C2_5 C10_3 1_555 1_555
C14_3 C17_3 1_555 1_555
O9_3 C34_3 1_555 1_555
O4_4 C7_4 1_555 1_555
C7_4 C8_4 1_555 1_555
C8_4 H4_4 1_555 1_555
C10_4 O4_4 1_555 1_555
H6_4 C10_4 1_555 1_555
C14_4 C8_4 1_555 1_555
H10_4 C14_4 1_555 1_555
C16_4 C7_4 1_555 1_555
O9_4 C32_4 1_555 1_555
C32_4 C38_4 1_555 1_555
C34_4 C2_6 1_555 1_555
H41_4 C34_4 1_555 1_555
H42_4 C34_4 1_555 1_555
C35_4 H43_4 1_555 1_555
C38_4 C35_4 1_555 1_555
H45_4 C38_4 1_555 1_555
C40_4 C32_4 1_555 1_555
H48_4 C40_4 1_555 1_555
C2_6 C10_4 1_555 1_555
C14_4 C17_4 1_555 1_555
O9_4 C34_4 1_555 1_555
C24_4 N4_4 1_555 1_555
H27_4 C24_4 1_555 1_555
H28_4 C24_4 1_555 1_555
C25_4 N4_4 1_555 1_555
H29_4 C25_4 1_555 1_555
H31_4 C26_4 1_555 1_555
H32_4 C26_4 1_555 1_555
C29_4 N4_4 1_555 1_555
H37_4 C29_4 1_555 1_555
H38_4 C29_4 1_555 1_555
H40_4 C30_4 1_555 1_555
C24_4 C26_4 1_555 1_555
C29_4 C30_4 1_555 1_555

#END
