
###############################################################################
#
# This file contains modified crystal structure data generated from the
# MOF subset of the Cambridge Structural Database (CSD) v543 
# hosted by the Cambridge Crystallographic Data Centre (CCDC).
#
# This work is licensed under the Creative Commons
# Attribution-NonCommercial-ShareAlike 4.0 International License.
# To view a copy of this license, visit
# http://creativecommons.org/licenses/by-nc-sa/4.0/
# or send a letter to
# Creative Commons, PO Box 1866, Mountain View, CA 94042, USA.
#
# CIF created using the CSD Python API on 29 September 2022
# The structure has been converted into the P1 space group
# The structure has a 3D framework
# The original CSD entry RUXKUS is in the orthorhombic crystal system
# The original CSD entry RUXKUS is in a Sohncke space group
# The framework has been calculated to contain at least 10.0% void space
# The void calculation uses a probe of radius 1.32A, grid spacing 0.4
#
###############################################################################

data_RUXKUS
_chemical_formula_moiety         '(C208 H216 Cd8 N24 O32)n'
_symmetry_cell_setting           triclinic
_symmetry_space_group_name_H-M   'P 1'
_symmetry_Int_Tables_number      1
_space_group_name_Hall           'P 1'
loop_
_symmetry_equiv_pos_site_id
_symmetry_equiv_pos_as_xyz
1 x,y,z
_cell_length_a                   20.6271(8)
_cell_length_b                   13.6669(6)
_cell_length_c                   20.6839(9)
_cell_angle_alpha                90
_cell_angle_beta                 90
_cell_angle_gamma                90
_cell_volume                     5830.97
loop_
_atom_site_label
_atom_site_type_symbol
_atom_site_fract_x
_atom_site_fract_y
_atom_site_fract_z
C20 C 0.8473(5) -0.0000 0.0000
H21 H 0.8738 0.0359 0.0289
N4 N 0.7175(2) 0.2677(4) 0.1091(3)
C31 C 0.7802(3) 0.2734(5) 0.0935(4)
C32 C 0.6822(3) 0.2020(5) 0.0762(4)
H34 H 0.8056 0.3186 0.1156
C33 C 0.8092(3) 0.2177(5) 0.0476(3)
C34 C 0.7085(3) 0.1398(6) 0.0298(4)
H35 H 0.6380 0.1977 0.0849
H36 H 0.8528 0.2273 0.0378
C35 C 0.7738(3) 0.1458(5) 0.0149(3)
H37 H 0.6822 0.0944 0.0088
Cd3 Cd 0.671890(19) 0.37256(3) 0.189561(19)
C20_2 C 0.8473(5) -0.0000 1.0000
C36 C 0.8061(4) 0.0799(6) 0.9668(4)
H38 H 0.8336 0.1186 0.9387
H39 H 0.7732 0.0489 0.9401
C13 C 0.7725(4) 0.5000 0.0000
C18 C 0.8061(4) 0.9201(6) 0.0332(4)
H17 H 0.8336 0.8814 0.0613
H18 H 0.7732 0.9511 0.0599
C20_3 C 0.8473(5) 1.0000 0.0000
O5 O 0.6468(2) 0.4873(4) 0.0996(2)
O6 O 0.7422(2) 0.4995(3) 0.1450(2)
C27 C 0.7043(3) 0.5168(4) 0.0994(3)
C28 C 0.7307(3) 0.5703(4) 0.0403(3)
H28 H 0.7565 0.6258 0.0540
H29 H 0.6950 0.5945 0.0143
H30 H 0.7991 0.4686 0.0306
N5 N 0.6224(2) 0.4742(4) 0.2656(3)
C37 C 0.5704(4) 0.4487(5) 0.2996(4)
C38 C 0.6420(4) 0.5668(5) 0.2709(3)
H41 H 0.5563 0.3843 0.2968
C39 C 0.5367(4) 0.5106(6) 0.3379(4)
C40 C 0.6112(3) 0.6351(5) 0.3089(3)
H42 H 0.6784 0.5863 0.2477
H43 H 0.5002 0.4889 0.3600
C41 C 0.5574(3) 0.6070(5) 0.3440(3)
H44 H 0.6263 0.6991 0.3110
C42 C 0.5205(4) 0.6792(6) 0.3852(4)
H45 H 0.5484 0.7340 0.3962
H46 H 0.5070 0.6480 0.4251
C43 C 0.4615(3) 0.7156(6) 0.3485(4)
H47 H 0.4337 0.6602 0.3390
H48 H 0.4757 0.7430 0.3076
C44 C 0.4217(3) 0.7928(6) 0.3846(4)
C45 C 0.3620(3) 0.8193(5) 0.3455(3)
H49 H 0.4087 0.7675 0.4264
H50 H 0.4479 0.8508 0.3916
C46 C 0.3083(4) 0.7655(6) 0.3465(4)
C47 C 0.3622(4) 0.8943(7) 0.3032(5)
C48 C 0.2583(4) 0.7817(6) 0.3043(4)
H51 H 0.3047 0.7154 0.3766
H52 H 0.3969 0.9377 0.3017
C49 C 0.3106(4) 0.9055(7) 0.2625(5)
H53 H 0.2226 0.7403 0.3056
N6 N 0.2587(3) 0.8525(4) 0.2627(3)
H54 H 0.3129 0.9555 0.2320
Cd6 Cd 0.171890(19) 0.87256(3) 0.189561(19)
O9 O 0.5750(2) 0.3001(3) 0.1687(2)
O10 O 0.6190(2) 0.2068(4) 0.2427(2)
N9 N 0.7587(3) 0.3525(4) 0.2627(3)
Cd1 Cd 0.671890(19) 0.62744(3) 0.810439(19)
O1 O 0.6468(2) 0.5127(4) 0.9004(2)
O2 O 0.7422(2) 0.5005(3) 0.8550(2)
O3 O 0.5750(2) 0.6999(3) 0.8313(2)
O4 O 0.6190(2) 0.7932(4) 0.7573(2)
N1 N 0.6224(2) 0.5258(4) 0.7344(3)
N2 N 0.7175(2) 0.7323(4) 0.8909(3)
C1 C 0.7043(3) 0.4832(4) 0.9006(3)
C2 C 0.5751(2) 0.7771(5) 0.7962(3)
C3 C 0.5704(4) 0.5513(5) 0.7004(4)
C4 C 0.6420(4) 0.4332(5) 0.7291(3)
C5 C 0.7802(3) 0.7266(5) 0.9065(4)
C6 C 0.6822(3) 0.7980(5) 0.9238(4)
C7 C 0.7307(3) 0.4297(4) 0.9597(3)
C8 C 0.5206(3) 0.8478(4) 0.8074(3)
H1 H 0.5563 0.6157 0.7032
C9 C 0.5367(4) 0.4894(6) 0.6621(4)
C10 C 0.6112(3) 0.3649(5) 0.6911(3)
H2 H 0.6784 0.4137 0.7523
H3 H 0.8056 0.6814 0.8844
C11 C 0.8092(3) 0.7823(5) 0.9524(3)
C12 C 0.7085(3) 0.8602(6) 0.9702(4)
H4 H 0.6380 0.8023 0.9151
H5 H 0.7565 0.3742 0.9460
H6 H 0.6950 0.4055 0.9857
C13_2 C 0.7725(4) 0.5000 1.0000
H7 H 0.5331 0.8917 0.8421
H8 H 0.4832 0.8111 0.8222
C14 C 0.5000 0.9092(6) 0.7500
H9 H 0.5002 0.5111 0.6400
C15 C 0.5574(3) 0.3930(5) 0.6560(3)
H10 H 0.6263 0.3009 0.6890
H11 H 0.8528 0.7727 0.9622
C16 C 0.7738(3) 0.8542(5) 0.9851(3)
H12 H 0.6822 0.9056 0.9912
H13 H 0.7991 0.5314 0.9694
H14 H 0.5355 0.9506 0.7378
C17 C 0.5205(4) 0.3208(6) 0.6148(4)
H15 H 0.5484 0.2660 0.6038
H16 H 0.5070 0.3520 0.5749
C19 C 0.4615(3) 0.2844(6) 0.6515(4)
C20_4 C 0.8473(5) 1.0000 1.0000
H19 H 0.4337 0.3398 0.6610
H20 H 0.4757 0.2570 0.6924
C21 C 0.4217(3) 0.2072(6) 0.6154(4)
C22 C 0.3620(3) 0.1807(5) 0.6545(3)
H22 H 0.4087 0.2325 0.5736
H23 H 0.4479 0.1492 0.6084
C23 C 0.3083(4) 0.2345(6) 0.6535(4)
C24 C 0.3622(4) 0.1057(7) 0.6968(5)
C25 C 0.2583(4) 0.2183(6) 0.6957(4)
H24 H 0.3047 0.2846 0.6234
H25 H 0.3969 0.0623 0.6983
C26 C 0.3106(4) 0.0945(7) 0.7375(5)
H26 H 0.2226 0.2597 0.6944
N3 N 0.2587(3) 0.1475(4) 0.7373(3)
H27 H 0.3129 0.0445 0.7680
O7 O 0.4250(2) 0.6999(3) 0.6687(2)
O8 O 0.3810(2) 0.7932(4) 0.7427(2)
C29 C 0.4249(2) 0.7771(5) 0.7038(3)
C30 C 0.4794(3) 0.8478(4) 0.6926(3)
H31 H 0.4669 0.8917 0.6579
H32 H 0.5168 0.8111 0.6778
H33 H 0.4645 0.9506 0.7622
H40 H 0.8738 0.9641 0.9711
Cd4 Cd 0.328110(19) 0.62744(3) 0.689561(19)
Cd5 Cd 0.171890(19) 0.12744(3) 0.810439(19)
N8 N 0.7587(3) 0.6475(4) 0.7373(3)
Cd1_2 Cd 0.328110(19) 0.37256(3) 0.310439(19)
O1_2 O 0.3532(2) 0.4873(4) 0.4004(2)
O2_2 O 0.2578(2) 0.4995(3) 0.3550(2)
O3_2 O 0.4250(2) 0.3001(3) 0.3313(2)
O4_2 O 0.3810(2) 0.2068(4) 0.2573(2)
N1_2 N 0.3776(2) 0.4742(4) 0.2344(3)
N2_2 N 0.2825(2) 0.2677(4) 0.3909(3)
C1_2 C 0.2957(3) 0.5168(4) 0.4006(3)
C2_2 C 0.4249(2) 0.2229(5) 0.2962(3)
C3_2 C 0.4296(4) 0.4487(5) 0.2004(4)
C4_2 C 0.3580(4) 0.5668(5) 0.2291(3)
C5_2 C 0.2198(3) 0.2734(5) 0.4065(4)
C6_2 C 0.3178(3) 0.2020(5) 0.4238(4)
C7_2 C 0.2693(3) 0.5703(4) 0.4597(3)
C8_2 C 0.4794(3) 0.1522(4) 0.3074(3)
H1_2 H 0.4437 0.3843 0.2032
C9_2 C 0.4633(4) 0.5106(6) 0.1621(4)
C10_2 C 0.3888(3) 0.6351(5) 0.1911(3)
H2_2 H 0.3216 0.5863 0.2523
H3_2 H 0.1944 0.3186 0.3844
C11_2 C 0.1908(3) 0.2177(5) 0.4524(3)
C12_2 C 0.2915(3) 0.1398(6) 0.4702(4)
H4_2 H 0.3620 0.1977 0.4151
H5_2 H 0.2435 0.6258 0.4460
H6_2 H 0.3050 0.5945 0.4857
C13_3 C 0.2275(4) 0.5000 0.5000
H7_2 H 0.4669 0.1083 0.3421
H8_2 H 0.5168 0.1889 0.3222
C14_2 C 0.5000 0.0908(6) 0.2500
H9_2 H 0.4998 0.4889 0.1400
C15_2 C 0.4426(3) 0.6070(5) 0.1560(3)
H10_2 H 0.3737 0.6991 0.1890
H11_2 H 0.1472 0.2273 0.4622
C16_2 C 0.2262(3) 0.1458(5) 0.4851(3)
H12_2 H 0.3178 0.0944 0.4912
H13_2 H 0.2009 0.4686 0.4694
H14_2 H 0.4645 0.0494 0.2378
C17_2 C 0.4795(4) 0.6792(6) 0.1148(4)
C18_2 C 0.1939(4) 0.0799(6) 0.5332(4)
H15_2 H 0.4516 0.7340 0.1038
H16_2 H 0.4930 0.6480 0.0749
C19_2 C 0.5385(3) 0.7156(6) 0.1515(4)
H17_2 H 0.1664 0.1186 0.5613
H18_2 H 0.2268 0.0489 0.5599
C20_5 C 0.1527(5) 0.0000 0.5000
H19_2 H 0.5663 0.6602 0.1610
H20_2 H 0.5243 0.7430 0.1924
C21_2 C 0.5783(3) 0.7928(6) 0.1154(4)
C22_2 C 0.6380(3) 0.8193(5) 0.1545(3)
H22_2 H 0.5913 0.7675 0.0736
H23_2 H 0.5521 0.8508 0.1084
C23_2 C 0.6917(4) 0.7655(6) 0.1535(4)
C24_2 C 0.6378(4) 0.8943(7) 0.1968(5)
C25_2 C 0.7417(4) 0.7817(6) 0.1957(4)
H24_2 H 0.6953 0.7154 0.1234
H25_2 H 0.6031 0.9377 0.1983
C26_2 C 0.6894(4) 0.9055(7) 0.2375(5)
H26_2 H 0.7774 0.7403 0.1944
N3_2 N 0.7413(3) 0.8525(4) 0.2373(3)
H27_2 H 0.6871 0.9555 0.2680
O5_2 O 0.3532(2) 0.5127(4) 0.5996(2)
O6_2 O 0.2578(2) 0.5005(3) 0.6450(2)
C27_2 C 0.2957(3) 0.4832(4) 0.5994(3)
C28_2 C 0.2693(3) 0.4297(4) 0.5403(3)
H28_2 H 0.2435 0.3742 0.5540
H29_2 H 0.3050 0.4055 0.5143
H30_2 H 0.2009 0.5314 0.5306
C29_2 C 0.5751(2) 0.2229(5) 0.2038(3)
C30_2 C 0.5206(3) 0.1522(4) 0.1926(3)
H31_2 H 0.5331 0.1083 0.1579
H32_2 H 0.4832 0.1889 0.1778
H33_2 H 0.5355 0.0494 0.2622
H40_2 H 0.1262 0.0359 0.4711
N5_2 N 0.3776(2) 0.5258(4) 0.7656(3)
C37_2 C 0.4296(4) 0.5513(5) 0.7996(4)
C38_2 C 0.3580(4) 0.4332(5) 0.7709(3)
H41_2 H 0.4437 0.6157 0.7968
C39_2 C 0.4633(4) 0.4894(6) 0.8379(4)
C40_2 C 0.3888(3) 0.3649(5) 0.8089(3)
H42_2 H 0.3216 0.4137 0.7477
H43_2 H 0.4998 0.5111 0.8600
C41_2 C 0.4426(3) 0.3930(5) 0.8440(3)
H44_2 H 0.3737 0.3009 0.8110
C42_2 C 0.4795(4) 0.3208(6) 0.8852(4)
H45_2 H 0.4516 0.2660 0.8962
H46_2 H 0.4930 0.3520 0.9251
C43_2 C 0.5385(3) 0.2844(6) 0.8485(4)
H47_2 H 0.5663 0.3398 0.8390
H48_2 H 0.5243 0.2570 0.8076
C44_2 C 0.5783(3) 0.2072(6) 0.8846(4)
C45_2 C 0.6380(3) 0.1807(5) 0.8455(3)
H49_2 H 0.5913 0.2325 0.9264
H50_2 H 0.5521 0.1492 0.8916
C46_2 C 0.6917(4) 0.2345(6) 0.8465(4)
C47_2 C 0.6378(4) 0.1057(7) 0.8032(5)
C48_2 C 0.7417(4) 0.2183(6) 0.8043(4)
H51_2 H 0.6953 0.2846 0.8766
H52_2 H 0.6031 0.0623 0.8017
C49_2 C 0.6894(4) 0.0945(7) 0.7625(5)
H53_2 H 0.7774 0.2597 0.8056
N6_2 N 0.7413(3) 0.1475(4) 0.7627(3)
H54_2 H 0.6871 0.0445 0.7320
Cd5_2 Cd 0.828110(19) 0.87256(3) 0.310439(19)
Cd6_2 Cd 0.828110(19) 0.12744(3) 0.689561(19)
N7 N 0.2825(2) 0.7323(4) 0.6091(3)
N8_2 N 0.2413(3) 0.3525(4) 0.2373(3)
N9_2 N 0.2413(3) 0.6475(4) 0.7627(3)
C20_6 C 0.1527(5) 1.0000 0.5000
H21_2 H 0.1262 0.9641 0.5289
C31_2 C 0.2198(3) 0.7266(5) 0.5935(4)
C32_2 C 0.3178(3) 0.7980(5) 0.5762(4)
H34_2 H 0.1944 0.6814 0.6156
C33_2 C 0.1908(3) 0.7823(5) 0.5476(3)
C34_2 C 0.2915(3) 0.8602(6) 0.5298(4)
H35_2 H 0.3620 0.8023 0.5849
H36_2 H 0.1472 0.7727 0.5378
C35_2 C 0.2262(3) 0.8542(5) 0.5149(3)
H37_2 H 0.3178 0.9056 0.5088
C36_2 C 0.1939(4) 0.9201(6) 0.4668(4)
H38_2 H 0.1664 0.8814 0.4387
H39_2 H 0.2268 0.9511 0.4401
C13_4 C 0.2725(4) -0.0000 0.0000
C18_3 C 0.3061(4) 0.4201(6) 0.0332(4)
H17_3 H 0.3336 0.3814 0.0613
H18_3 H 0.2732 0.4511 0.0599
C20_7 C 0.3473(5) 0.5000 0.0000
H21_3 H 0.3738 0.5359 0.0289
C27_3 C 0.2043(3) 0.0168(4) 0.0994(3)
C28_3 C 0.2307(3) 0.0703(4) 0.0403(3)
H28_3 H 0.2565 0.1258 0.0540
H29_3 H 0.1950 0.0945 0.0143
N4_2 N 0.2175(2) 0.7677(4) 0.1091(3)
C31_3 C 0.2802(3) 0.7734(5) 0.0935(4)
C32_3 C 0.1822(3) 0.7020(5) 0.0762(4)
H34_3 H 0.3056 0.8186 0.1156
C33_3 C 0.3092(3) 0.7177(5) 0.0476(3)
C34_3 C 0.2085(3) 0.6398(6) 0.0298(4)
H35_3 H 0.1380 0.6977 0.0849
H36_3 H 0.3528 0.7273 0.0378
C35_3 C 0.2738(3) 0.6458(5) 0.0149(3)
H37_3 H 0.1822 0.5944 0.0088
C38_3 C 0.1420(4) 0.0668(5) 0.2709(3)
C39_3 C 0.0367(4) 0.0106(6) 0.3379(4)
C40_3 C 0.1112(3) 0.1351(5) 0.3089(3)
H42_3 H 0.1784 0.0863 0.2477
C41_3 C 0.0574(3) 0.1070(5) 0.3440(3)
H44_3 H 0.1263 0.1991 0.3110
C42_3 C 0.0205(4) 0.1792(6) 0.3852(4)
H45_3 H 0.0484 0.2340 0.3962
H46_3 H 0.0070 0.1480 0.4251
O1_3 O 0.1468(2) 0.0127(4) 0.9004(2)
O2_3 O 0.2422(2) 0.0005(3) 0.8550(2)
O3_3 O 0.0750(2) 0.1999(3) 0.8313(2)
O4_3 O 0.1190(2) 0.2932(4) 0.7573(2)
N1_3 N 0.1224(2) 0.0258(4) 0.7344(3)
N2_3 N 0.2175(2) 0.2323(4) 0.8909(3)
C2_3 C 0.0751(2) 0.2771(5) 0.7962(3)
C3_3 C 0.0704(4) 0.0513(5) 0.7004(4)
C5_3 C 0.2802(3) 0.2266(5) 0.9065(4)
C6_3 C 0.1822(3) 0.2980(5) 0.9238(4)
C8_3 C 0.0206(3) 0.3478(4) 0.8074(3)
H1_3 H 0.0563 0.1157 0.7032
H3_3 H 0.3056 0.1814 0.8844
C11_3 C 0.3092(3) 0.2823(5) 0.9524(3)
C12_3 C 0.2085(3) 0.3602(6) 0.9702(4)
H4_3 H 0.1380 0.3023 0.9151
C13_5 C 0.2725(4) -0.0000 1.0000
H7_3 H 0.0331 0.3917 0.8421
C14_3 C -0.0000 0.4092(6) 0.7500
H9_3 H 0.0002 0.0111 0.6400
H11_3 H 0.3528 0.2727 0.9622
C16_3 C 0.2738(3) 0.3542(5) 0.9851(3)
H12_3 H 0.1822 0.4056 0.9912
H13_3 H 0.2991 0.0314 0.9694
H14_3 H 0.0355 0.4506 0.7378
C20_8 C 0.3473(5) 0.5000 1.0000
H32_3 H 0.0168 0.3111 0.6778
C36_3 C 0.3061(4) 0.5799(6) 0.9668(4)
H38_3 H 0.3336 0.6186 0.9387
H39_3 H 0.2732 0.5489 0.9401
H40_3 H 0.3738 0.4641 0.9711
C13_6 C 0.2725(4) 1.0000 0.0000
O5_3 O 0.1468(2) 0.9873(4) 0.0996(2)
O6_3 O 0.2422(2) 0.9995(3) 0.1450(2)
H30_3 H 0.2991 0.9686 0.0306
N5_3 N 0.1224(2) 0.9742(4) 0.2656(3)
C37_3 C 0.0704(4) 0.9487(5) 0.2996(4)
H41_3 H 0.0563 0.8843 0.2968
H43_3 H 0.0002 0.9889 0.3600
O9_2 O 0.0750(2) 0.8001(3) 0.1687(2)
O10_2 O 0.1190(2) 0.7068(4) 0.2427(2)
C1_3 C 0.2043(3) 0.9832(4) 0.9006(3)
C4_3 C 0.1420(4) 0.9332(5) 0.7291(3)
C7_3 C 0.2307(3) 0.9297(4) 0.9597(3)
C9_3 C 0.0367(4) 0.9894(6) 0.6621(4)
C10_3 C 0.1112(3) 0.8649(5) 0.6911(3)
H2_3 H 0.1784 0.9137 0.7523
H5_3 H 0.2565 0.8742 0.9460
H6_3 H 0.1950 0.9055 0.9857
C13_7 C 0.2725(4) 1.0000 1.0000
C15_3 C 0.0574(3) 0.8930(5) 0.6560(3)
H10_3 H 0.1263 0.8009 0.6890
C17_3 C 0.0205(4) 0.8208(6) 0.6148(4)
H15_3 H 0.0484 0.7660 0.6038
H16_3 H 0.0070 0.8520 0.5749
C43_3 C 0.9615(3) 0.2156(6) 0.3485(4)
H47_3 H 0.9337 0.1602 0.3390
H48_3 H 0.9757 0.2430 0.3076
C44_3 C 0.9217(3) 0.2928(6) 0.3846(4)
C45_3 C 0.8620(3) 0.3193(5) 0.3455(3)
H49_3 H 0.9087 0.2675 0.4264
H50_3 H 0.9479 0.3508 0.3916
C46_3 C 0.8083(4) 0.2655(6) 0.3465(4)
C47_3 C 0.8622(4) 0.3943(7) 0.3032(5)
C48_3 C 0.7583(4) 0.2817(6) 0.3043(4)
H51_3 H 0.8047 0.2154 0.3766
H52_3 H 0.8969 0.4377 0.3017
C49_3 C 0.8106(4) 0.4055(7) 0.2625(5)
H53_3 H 0.7226 0.2403 0.3056
H54_3 H 0.8129 0.4555 0.2320
H8_3 H 0.9832 0.3111 0.8222
C14_4 C 1.0000 0.4092(6) 0.7500
O7_2 O 0.9250(2) 0.1999(3) 0.6687(2)
O8_2 O 0.8810(2) 0.2932(4) 0.7427(2)
C29_3 C 0.9249(2) 0.2771(5) 0.7038(3)
C30_3 C 0.9794(3) 0.3478(4) 0.6926(3)
H31_3 H 0.9669 0.3917 0.6579
H33_3 H 0.9645 0.4506 0.7622
C19_3 C 0.9615(3) 0.7844(6) 0.6515(4)
H19_3 H 0.9337 0.8398 0.6610
H20_3 H 0.9757 0.7570 0.6924
C21_3 C 0.9217(3) 0.7072(6) 0.6154(4)
C22_3 C 0.8620(3) 0.6807(5) 0.6545(3)
H22_3 H 0.9087 0.7325 0.5736
H23_3 H 0.9479 0.6492 0.6084
C23_3 C 0.8083(4) 0.7345(6) 0.6535(4)
C24_3 C 0.8622(4) 0.6057(7) 0.6968(5)
C25_3 C 0.7583(4) 0.7183(6) 0.6957(4)
H24_3 H 0.8047 0.7846 0.6234
H25_3 H 0.8969 0.5623 0.6983
C26_3 C 0.8106(4) 0.5945(7) 0.7375(5)
H26_3 H 0.7226 0.7597 0.6944
H27_3 H 0.8129 0.5445 0.7680
C19_4 C 0.0385(3) 0.2156(6) 0.1515(4)
H19_4 H 0.0663 0.1602 0.1610
H20_4 H 0.0243 0.2430 0.1924
C21_4 C 0.0783(3) 0.2928(6) 0.1154(4)
C22_4 C 0.1380(3) 0.3193(5) 0.1545(3)
H22_4 H 0.0913 0.2675 0.0736
H23_4 H 0.0521 0.3508 0.1084
C23_4 C 0.1917(4) 0.2655(6) 0.1535(4)
C24_4 C 0.1378(4) 0.3943(7) 0.1968(5)
C25_4 C 0.2417(4) 0.2817(6) 0.1957(4)
H24_4 H 0.1953 0.2154 0.1234
H25_4 H 0.1031 0.4377 0.1983
C26_4 C 0.1894(4) 0.4055(7) 0.2375(5)
H26_4 H 0.2774 0.2403 0.1944
H27_4 H 0.1871 0.4555 0.2680
H8_4 H 0.0168 0.6889 0.3222
C14_5 C 0.0000 0.5908(6) 0.2500
C29_4 C 0.0751(2) 0.7229(5) 0.2038(3)
C30_4 C 0.0206(3) 0.6522(4) 0.1926(3)
H31_4 H 0.0331 0.6083 0.1579
H33_4 H 0.0355 0.5494 0.2622
C43_4 C 0.0385(3) 0.7844(6) 0.8485(4)
H47_4 H 0.0663 0.8398 0.8390
H48_4 H 0.0243 0.7570 0.8076
C44_4 C 0.0783(3) 0.7072(6) 0.8846(4)
C45_4 C 0.1380(3) 0.6807(5) 0.8455(3)
H49_4 H 0.0913 0.7325 0.9264
H50_4 H 0.0521 0.6492 0.8916
C46_4 C 0.1917(4) 0.7345(6) 0.8465(4)
C47_4 C 0.1378(4) 0.6057(7) 0.8032(5)
C48_4 C 0.2417(4) 0.7183(6) 0.8043(4)
H51_4 H 0.1953 0.7846 0.8766
H52_4 H 0.1031 0.5623 0.8017
C49_4 C 0.1894(4) 0.5945(7) 0.7625(5)
H53_4 H 0.2774 0.7597 0.8056
H54_4 H 0.1871 0.5445 0.7320
C1_4 C 0.7957(3) 0.0168(4) 0.4006(3)
C4_4 C 0.8580(4) 0.0668(5) 0.2291(3)
C7_4 C 0.7693(3) 0.0703(4) 0.4597(3)
C9_4 C 0.9633(4) 0.0106(6) 0.1621(4)
C10_4 C 0.8888(3) 0.1351(5) 0.1911(3)
H2_4 H 0.8216 0.0863 0.2523
H5_4 H 0.7435 0.1258 0.4460
H6_4 H 0.8050 0.0945 0.4857
C13_8 C 0.7275(4) 0.0000 0.5000
C15_4 C 0.9426(3) 0.1070(5) 0.1560(3)
H10_4 H 0.8737 0.1991 0.1890
C17_4 C 0.9795(4) 0.1792(6) 0.1148(4)
H15_4 H 0.9516 0.2340 0.1038
H16_4 H 0.9930 0.1480 0.0749
O5_4 O 0.8532(2) 0.0127(4) 0.5996(2)
O6_4 O 0.7578(2) 0.0005(3) 0.6450(2)
H30_4 H 0.7009 0.0314 0.5306
N5_4 N 0.8776(2) 0.0258(4) 0.7656(3)
C37_4 C 0.9296(4) 0.0513(5) 0.7996(4)
H41_4 H 0.9437 0.1157 0.7968
H43_4 H 0.9998 0.0111 0.8600
N7_2 N 0.7825(2) 0.2323(4) 0.6091(3)
O1_4 O 0.8532(2) 0.9873(4) 0.4004(2)
O2_4 O 0.7578(2) 0.9995(3) 0.3550(2)
O3_4 O 0.9250(2) 0.8001(3) 0.3313(2)
O4_4 O 0.8810(2) 0.7068(4) 0.2573(2)
N1_4 N 0.8776(2) 0.9742(4) 0.2344(3)
N2_4 N 0.7825(2) 0.7677(4) 0.3909(3)
C2_4 C 0.9249(2) 0.7229(5) 0.2962(3)
C3_4 C 0.9296(4) 0.9487(5) 0.2004(4)
C5_4 C 0.7198(3) 0.7734(5) 0.4065(4)
C6_4 C 0.8178(3) 0.7020(5) 0.4238(4)
C8_4 C 0.9794(3) 0.6522(4) 0.3074(3)
H1_4 H 0.9437 0.8843 0.2032
H3_4 H 0.6944 0.8186 0.3844
C11_4 C 0.6908(3) 0.7177(5) 0.4524(3)
C12_4 C 0.7915(3) 0.6398(6) 0.4702(4)
H4_4 H 0.8620 0.6977 0.4151
C13_9 C 0.7275(4) 1.0000 0.5000
H7_4 H 0.9669 0.6083 0.3421
C14_6 C 1.0000 0.5908(6) 0.2500
H9_4 H 0.9998 0.9889 0.1400
H11_4 H 0.6472 0.7273 0.4622
C16_4 C 0.7262(3) 0.6458(5) 0.4851(3)
H12_4 H 0.8178 0.5944 0.4912
H13_4 H 0.7009 0.9686 0.4694
H14_4 H 0.9645 0.5494 0.2378
C18_4 C 0.6939(4) 0.5799(6) 0.5332(4)
H17_4 H 0.6664 0.6186 0.5613
H18_4 H 0.7268 0.5489 0.5599
C20_9 C 0.6527(5) 0.5000 0.5000
H21_4 H 0.6262 0.4641 0.5289
C27_4 C 0.7957(3) 0.9832(4) 0.5994(3)
C28_4 C 0.7693(3) 0.9297(4) 0.5403(3)
H28_4 H 0.7435 0.8742 0.5540
H29_4 H 0.8050 0.9055 0.5143
H32_4 H 0.9832 0.6889 0.1778
C31_4 C 0.7198(3) 0.2266(5) 0.5935(4)
C32_4 C 0.8178(3) 0.2980(5) 0.5762(4)
H34_4 H 0.6944 0.1814 0.6156
C33_4 C 0.6908(3) 0.2823(5) 0.5476(3)
C34_4 C 0.7915(3) 0.3602(6) 0.5298(4)
H35_4 H 0.8620 0.3023 0.5849
H36_4 H 0.6472 0.2727 0.5378
C35_4 C 0.7262(3) 0.3542(5) 0.5149(3)
H37_4 H 0.8178 0.4056 0.5088
C36_4 C 0.6939(4) 0.4201(6) 0.4668(4)
H38_4 H 0.6664 0.3814 0.4387
H39_4 H 0.7268 0.4511 0.4401
H40_4 H 0.6262 0.5359 0.4711
C38_4 C 0.8580(4) 0.9332(5) 0.7709(3)
C39_4 C 0.9633(4) 0.9894(6) 0.8379(4)
C40_4 C 0.8888(3) 0.8649(5) 0.8089(3)
H42_4 H 0.8216 0.9137 0.7477
C41_4 C 0.9426(3) 0.8930(5) 0.8440(3)
H44_4 H 0.8737 0.8009 0.8110
C42_4 C 0.9795(4) 0.8208(6) 0.8852(4)
H45_4 H 0.9516 0.7660 0.8962
H46_4 H 0.9930 0.8520 0.9251
loop_
_geom_bond_atom_site_label_1
_geom_bond_atom_site_label_2
_geom_bond_site_symmetry_1
_geom_bond_site_symmetry_2
H21 C20 1_555 1_555
N4 C31 1_555 1_555
C31 H34 1_555 1_555
C32 N4 1_555 1_555
C33 C31 1_555 1_555
C34 C32 1_555 1_555
H35 C32 1_555 1_555
H36 C33 1_555 1_555
C35 C33 1_555 1_555
H37 C34 1_555 1_555
Cd3 N4 1_555 1_555
C34 C35 1_555 1_555
C36 C20_2 1_555 1_555
H38 C36 1_555 1_555
H39 C36 1_555 1_555
H17 C18 1_555 1_555
H18 C18 1_555 1_555
C20_3 C18 1_555 1_555
O5 C27 1_555 1_555
O6 C27 1_555 1_555
C27 C28 1_555 1_555
C28 C13 1_555 1_555
H28 C28 1_555 1_555
H29 C28 1_555 1_555
H30 C13 1_555 1_555
Cd3 O5 1_555 1_555
N5 Cd3 1_555 1_555
C37 N5 1_555 1_555
C38 N5 1_555 1_555
H41 C37 1_555 1_555
C39 C37 1_555 1_555
C40 C38 1_555 1_555
H42 C38 1_555 1_555
H43 C39 1_555 1_555
C41 C39 1_555 1_555
H44 C40 1_555 1_555
C42 C41 1_555 1_555
H45 C42 1_555 1_555
H46 C42 1_555 1_555
C43 C42 1_555 1_555
H47 C43 1_555 1_555
H48 C43 1_555 1_555
C44 C43 1_555 1_555
C45 C44 1_555 1_555
H49 C44 1_555 1_555
H50 C44 1_555 1_555
C46 C45 1_555 1_555
C47 C45 1_555 1_555
C48 C46 1_555 1_555
H51 C46 1_555 1_555
H52 C47 1_555 1_555
C49 C47 1_555 1_555
H53 C48 1_555 1_555
N6 C48 1_555 1_555
H54 C49 1_555 1_555
Cd6 N6 1_555 1_555
O9 Cd3 1_555 1_555
O10 Cd3 1_555 1_555
N9 Cd3 1_555 1_555
O6 Cd3 1_555 1_555
C40 C41 1_555 1_555
C49 N6 1_555 1_555
Cd1 O1 1_555 1_555
O1 C1 1_555 1_555
O2 Cd1 1_555 1_555
O3 Cd1 1_555 1_555
O4 Cd1 1_555 1_555
N1 Cd1 1_555 1_555
N2 Cd1 1_555 1_555
C1 O2 1_555 1_555
C2 O3 1_555 1_555
C3 N1 1_555 1_555
C4 N1 1_555 1_555
C5 N2 1_555 1_555
C6 N2 1_555 1_555
C7 C1 1_555 1_555
C8 C2 1_555 1_555
H1 C3 1_555 1_555
C9 C3 1_555 1_555
C10 C4 1_555 1_555
H2 C4 1_555 1_555
H3 C5 1_555 1_555
C11 C5 1_555 1_555
C12 C6 1_555 1_555
H4 C6 1_555 1_555
H5 C7 1_555 1_555
H6 C7 1_555 1_555
C13_2 C7 1_555 1_555
H7 C8 1_555 1_555
H8 C8 1_555 1_555
C14 C8 1_555 1_555
H9 C9 1_555 1_555
C15 C9 1_555 1_555
H10 C10 1_555 1_555
H11 C11 1_555 1_555
C16 C11 1_555 1_555
H12 C12 1_555 1_555
H13 C13_2 1_555 1_555
H14 C14 1_555 1_555
C17 C15 1_555 1_555
H15 C17 1_555 1_555
H16 C17 1_555 1_555
C19 C17 1_555 1_555
H19 C19 1_555 1_555
H20 C19 1_555 1_555
C21 C19 1_555 1_555
C22 C21 1_555 1_555
H22 C21 1_555 1_555
H23 C21 1_555 1_555
C23 C22 1_555 1_555
C24 C22 1_555 1_555
C25 C23 1_555 1_555
H24 C23 1_555 1_555
H25 C24 1_555 1_555
C26 C24 1_555 1_555
H26 C25 1_555 1_555
N3 C25 1_555 1_555
H27 C26 1_555 1_555
O7 C29 1_555 1_555
O8 C29 1_555 1_555
C29 C30 1_555 1_555
C30 C14 1_555 1_555
H31 C30 1_555 1_555
H32 C30 1_555 1_555
H33 C14 1_555 1_555
H40 C20_4 1_555 1_555
Cd4 O7 1_555 1_555
Cd5 N3 1_555 1_555
N8 Cd1 1_555 1_555
O4 C2 1_555 1_555
C10 C15 1_555 1_555
C12 C16 1_555 1_555
C26 N3 1_555 1_555
O8 Cd4 1_555 1_555
Cd1_2 O1_2 1_555 1_555
O1_2 C1_2 1_555 1_555
O2_2 Cd1_2 1_555 1_555
O3_2 Cd1_2 1_555 1_555
O4_2 Cd1_2 1_555 1_555
N1_2 Cd1_2 1_555 1_555
N2_2 Cd1_2 1_555 1_555
C1_2 O2_2 1_555 1_555
C2_2 O3_2 1_555 1_555
C3_2 N1_2 1_555 1_555
C4_2 N1_2 1_555 1_555
C5_2 N2_2 1_555 1_555
C6_2 N2_2 1_555 1_555
C7_2 C1_2 1_555 1_555
C8_2 C2_2 1_555 1_555
H1_2 C3_2 1_555 1_555
C9_2 C3_2 1_555 1_555
C10_2 C4_2 1_555 1_555
H2_2 C4_2 1_555 1_555
H3_2 C5_2 1_555 1_555
C11_2 C5_2 1_555 1_555
C12_2 C6_2 1_555 1_555
H4_2 C6_2 1_555 1_555
H5_2 C7_2 1_555 1_555
H6_2 C7_2 1_555 1_555
C13_3 C7_2 1_555 1_555
H7_2 C8_2 1_555 1_555
H8_2 C8_2 1_555 1_555
C14_2 C8_2 1_555 1_555
H9_2 C9_2 1_555 1_555
C15_2 C9_2 1_555 1_555
H10_2 C10_2 1_555 1_555
H11_2 C11_2 1_555 1_555
C16_2 C11_2 1_555 1_555
H12_2 C12_2 1_555 1_555
H13_2 C13_3 1_555 1_555
H14_2 C14_2 1_555 1_555
C17_2 C15_2 1_555 1_555
C18_2 C16_2 1_555 1_555
H15_2 C17_2 1_555 1_555
H16_2 C17_2 1_555 1_555
C19_2 C17_2 1_555 1_555
H17_2 C18_2 1_555 1_555
H18_2 C18_2 1_555 1_555
C20_5 C18_2 1_555 1_555
H19_2 C19_2 1_555 1_555
H20_2 C19_2 1_555 1_555
C21_2 C19_2 1_555 1_555
C22_2 C21_2 1_555 1_555
H22_2 C21_2 1_555 1_555
H23_2 C21_2 1_555 1_555
C23_2 C22_2 1_555 1_555
C24_2 C22_2 1_555 1_555
C25_2 C23_2 1_555 1_555
H24_2 C23_2 1_555 1_555
H25_2 C24_2 1_555 1_555
C26_2 C24_2 1_555 1_555
H26_2 C25_2 1_555 1_555
N3_2 C25_2 1_555 1_555
H27_2 C26_2 1_555 1_555
O5_2 C27_2 1_555 1_555
O6_2 C27_2 1_555 1_555
C27_2 C28_2 1_555 1_555
C28_2 C13_3 1_555 1_555
H28_2 C28_2 1_555 1_555
H29_2 C28_2 1_555 1_555
H30_2 C13_3 1_555 1_555
O9 C29_2 1_555 1_555
O10 C29_2 1_555 1_555
C29_2 C30_2 1_555 1_555
C30_2 C14_2 1_555 1_555
H31_2 C30_2 1_555 1_555
H32_2 C30_2 1_555 1_555
H33_2 C14_2 1_555 1_555
H40_2 C20_5 1_555 1_555
Cd4 O5_2 1_555 1_555
N5_2 Cd4 1_555 1_555
C37_2 N5_2 1_555 1_555
C38_2 N5_2 1_555 1_555
H41_2 C37_2 1_555 1_555
C39_2 C37_2 1_555 1_555
C40_2 C38_2 1_555 1_555
H42_2 C38_2 1_555 1_555
H43_2 C39_2 1_555 1_555
C41_2 C39_2 1_555 1_555
H44_2 C40_2 1_555 1_555
C42_2 C41_2 1_555 1_555
H45_2 C42_2 1_555 1_555
H46_2 C42_2 1_555 1_555
C43_2 C42_2 1_555 1_555
H47_2 C43_2 1_555 1_555
H48_2 C43_2 1_555 1_555
C44_2 C43_2 1_555 1_555
C45_2 C44_2 1_555 1_555
H49_2 C44_2 1_555 1_555
H50_2 C44_2 1_555 1_555
C46_2 C45_2 1_555 1_555
C47_2 C45_2 1_555 1_555
C48_2 C46_2 1_555 1_555
H51_2 C46_2 1_555 1_555
H52_2 C47_2 1_555 1_555
C49_2 C47_2 1_555 1_555
H53_2 C48_2 1_555 1_555
N6_2 C48_2 1_555 1_555
H54_2 C49_2 1_555 1_555
Cd5_2 N3_2 1_555 1_555
Cd6_2 N6_2 1_555 1_555
N7 Cd4 1_555 1_555
N8_2 Cd1_2 1_555 1_555
N9_2 Cd4 1_555 1_555
O4_2 C2_2 1_555 1_555
C10_2 C15_2 1_555 1_555
C12_2 C16_2 1_555 1_555
C26_2 N3_2 1_555 1_555
O6_2 Cd4 1_555 1_555
C40_2 C41_2 1_555 1_555
C49_2 N6_2 1_555 1_555
H21_2 C20_6 1_555 1_555
N7 C31_2 1_555 1_555
C31_2 H34_2 1_555 1_555
C32_2 N7 1_555 1_555
C33_2 C31_2 1_555 1_555
C34_2 C32_2 1_555 1_555
H35_2 C32_2 1_555 1_555
H36_2 C33_2 1_555 1_555
C35_2 C33_2 1_555 1_555
H37_2 C34_2 1_555 1_555
C36_2 C20_6 1_555 1_555
H38_2 C36_2 1_555 1_555
H39_2 C36_2 1_555 1_555
C34_2 C35_2 1_555 1_555
C35_2 C36_2 1_555 1_555
H17_3 C18_3 1_555 1_555
H18_3 C18_3 1_555 1_555
C20_7 C18_3 1_555 1_555
H21_3 C20_7 1_555 1_555
C27_3 C28_3 1_555 1_555
C28_3 C13_4 1_555 1_555
H28_3 C28_3 1_555 1_555
H29_3 C28_3 1_555 1_555
N4_2 C31_3 1_555 1_555
C31_3 H34_3 1_555 1_555
C32_3 N4_2 1_555 1_555
C33_3 C31_3 1_555 1_555
C34_3 C32_3 1_555 1_555
H35_3 C32_3 1_555 1_555
H36_3 C33_3 1_555 1_555
C35_3 C33_3 1_555 1_555
H37_3 C34_3 1_555 1_555
C40_3 C38_3 1_555 1_555
H42_3 C38_3 1_555 1_555
C41_3 C39_3 1_555 1_555
H44_3 C40_3 1_555 1_555
C42_3 C41_3 1_555 1_555
H45_3 C42_3 1_555 1_555
H46_3 C42_3 1_555 1_555
Cd6 N4_2 1_555 1_555
C34_3 C35_3 1_555 1_555
C40_3 C41_3 1_555 1_555
Cd5 O1_3 1_555 1_555
O2_3 Cd5 1_555 1_555
O3_3 Cd5 1_555 1_555
O4_3 Cd5 1_555 1_555
N1_3 Cd5 1_555 1_555
N2_3 Cd5 1_555 1_555
C2_3 O3_3 1_555 1_555
C3_3 N1_3 1_555 1_555
C5_3 N2_3 1_555 1_555
C6_3 N2_3 1_555 1_555
C8_3 C2_3 1_555 1_555
H1_3 C3_3 1_555 1_555
H3_3 C5_3 1_555 1_555
C11_3 C5_3 1_555 1_555
C12_3 C6_3 1_555 1_555
H4_3 C6_3 1_555 1_555
H7_3 C8_3 1_555 1_555
C14_3 C8_3 1_555 1_555
H11_3 C11_3 1_555 1_555
C16_3 C11_3 1_555 1_555
H12_3 C12_3 1_555 1_555
H13_3 C13_5 1_555 1_555
H14_3 C14_3 1_555 1_555
C36_3 C20_8 1_555 1_555
H38_3 C36_3 1_555 1_555
H39_3 C36_3 1_555 1_555
H40_3 C20_8 1_555 1_555
O4_3 C2_3 1_555 1_555
C12_3 C16_3 1_555 1_555
H30_3 C13_6 1_555 1_555
Cd6 O5_3 1_555 1_555
N5_3 Cd6 1_555 1_555
C37_3 N5_3 1_555 1_555
H41_3 C37_3 1_555 1_555
O9_2 Cd6 1_555 1_555
O10_2 Cd6 1_555 1_555
O6_3 Cd6 1_555 1_555
C7_3 C1_3 1_555 1_555
C10_3 C4_3 1_555 1_555
H2_3 C4_3 1_555 1_555
H5_3 C7_3 1_555 1_555
H6_3 C7_3 1_555 1_555
C13_7 C7_3 1_555 1_555
C15_3 C9_3 1_555 1_555
H10_3 C10_3 1_555 1_555
C17_3 C15_3 1_555 1_555
H15_3 C17_3 1_555 1_555
H16_3 C17_3 1_555 1_555
C10_3 C15_3 1_555 1_555
H47_3 C43_3 1_555 1_555
H48_3 C43_3 1_555 1_555
C44_3 C43_3 1_555 1_555
C45_3 C44_3 1_555 1_555
H49_3 C44_3 1_555 1_555
H50_3 C44_3 1_555 1_555
C46_3 C45_3 1_555 1_555
C47_3 C45_3 1_555 1_555
C48_3 C46_3 1_555 1_555
H51_3 C46_3 1_555 1_555
H52_3 C47_3 1_555 1_555
C49_3 C47_3 1_555 1_555
H53_3 C48_3 1_555 1_555
N9 C48_3 1_555 1_555
H54_3 C49_3 1_555 1_555
C49_3 N9 1_555 1_555
O7_2 C29_3 1_555 1_555
O8_2 C29_3 1_555 1_555
C29_3 C30_3 1_555 1_555
C30_3 C14_4 1_555 1_555
H31_3 C30_3 1_555 1_555
H33_3 C14_4 1_555 1_555
Cd6_2 O7_2 1_555 1_555
O8_2 Cd6_2 1_555 1_555
H19_3 C19_3 1_555 1_555
H20_3 C19_3 1_555 1_555
C21_3 C19_3 1_555 1_555
C22_3 C21_3 1_555 1_555
H22_3 C21_3 1_555 1_555
H23_3 C21_3 1_555 1_555
C23_3 C22_3 1_555 1_555
C24_3 C22_3 1_555 1_555
C25_3 C23_3 1_555 1_555
H24_3 C23_3 1_555 1_555
H25_3 C24_3 1_555 1_555
C26_3 C24_3 1_555 1_555
H26_3 C25_3 1_555 1_555
N8 C25_3 1_555 1_555
H27_3 C26_3 1_555 1_555
C26_3 N8 1_555 1_555
H19_4 C19_4 1_555 1_555
H20_4 C19_4 1_555 1_555
C21_4 C19_4 1_555 1_555
C22_4 C21_4 1_555 1_555
H22_4 C21_4 1_555 1_555
H23_4 C21_4 1_555 1_555
C23_4 C22_4 1_555 1_555
C24_4 C22_4 1_555 1_555
C25_4 C23_4 1_555 1_555
H24_4 C23_4 1_555 1_555
H25_4 C24_4 1_555 1_555
C26_4 C24_4 1_555 1_555
H26_4 C25_4 1_555 1_555
N8_2 C25_4 1_555 1_555
H27_4 C26_4 1_555 1_555
C26_4 N8_2 1_555 1_555
O9_2 C29_4 1_555 1_555
O10_2 C29_4 1_555 1_555
C29_4 C30_4 1_555 1_555
C30_4 C14_5 1_555 1_555
H31_4 C30_4 1_555 1_555
H33_4 C14_5 1_555 1_555
H47_4 C43_4 1_555 1_555
H48_4 C43_4 1_555 1_555
C44_4 C43_4 1_555 1_555
C45_4 C44_4 1_555 1_555
H49_4 C44_4 1_555 1_555
H50_4 C44_4 1_555 1_555
C46_4 C45_4 1_555 1_555
C47_4 C45_4 1_555 1_555
C48_4 C46_4 1_555 1_555
H51_4 C46_4 1_555 1_555
H52_4 C47_4 1_555 1_555
C49_4 C47_4 1_555 1_555
H53_4 C48_4 1_555 1_555
N9_2 C48_4 1_555 1_555
H54_4 C49_4 1_555 1_555
C49_4 N9_2 1_555 1_555
C7_4 C1_4 1_555 1_555
C10_4 C4_4 1_555 1_555
H2_4 C4_4 1_555 1_555
H5_4 C7_4 1_555 1_555
H6_4 C7_4 1_555 1_555
C13_8 C7_4 1_555 1_555
C15_4 C9_4 1_555 1_555
H10_4 C10_4 1_555 1_555
C17_4 C15_4 1_555 1_555
H15_4 C17_4 1_555 1_555
H16_4 C17_4 1_555 1_555
H30_4 C13_8 1_555 1_555
Cd6_2 O5_4 1_555 1_555
N5_4 Cd6_2 1_555 1_555
C37_4 N5_4 1_555 1_555
H41_4 C37_4 1_555 1_555
N7_2 Cd6_2 1_555 1_555
C10_4 C15_4 1_555 1_555
O6_4 Cd6_2 1_555 1_555
Cd5_2 O1_4 1_555 1_555
O2_4 Cd5_2 1_555 1_555
O3_4 Cd5_2 1_555 1_555
O4_4 Cd5_2 1_555 1_555
N1_4 Cd5_2 1_555 1_555
N2_4 Cd5_2 1_555 1_555
C2_4 O3_4 1_555 1_555
C3_4 N1_4 1_555 1_555
C5_4 N2_4 1_555 1_555
C6_4 N2_4 1_555 1_555
C8_4 C2_4 1_555 1_555
H1_4 C3_4 1_555 1_555
H3_4 C5_4 1_555 1_555
C11_4 C5_4 1_555 1_555
C12_4 C6_4 1_555 1_555
H4_4 C6_4 1_555 1_555
H7_4 C8_4 1_555 1_555
C14_6 C8_4 1_555 1_555
H11_4 C11_4 1_555 1_555
C16_4 C11_4 1_555 1_555
H12_4 C12_4 1_555 1_555
H13_4 C13_9 1_555 1_555
H14_4 C14_6 1_555 1_555
C18_4 C16_4 1_555 1_555
H17_4 C18_4 1_555 1_555
H18_4 C18_4 1_555 1_555
C20_9 C18_4 1_555 1_555
H21_4 C20_9 1_555 1_555
C27_4 C28_4 1_555 1_555
C28_4 C13_9 1_555 1_555
H28_4 C28_4 1_555 1_555
H29_4 C28_4 1_555 1_555
N7_2 C31_4 1_555 1_555
C31_4 H34_4 1_555 1_555
C32_4 N7_2 1_555 1_555
C33_4 C31_4 1_555 1_555
C34_4 C32_4 1_555 1_555
H35_4 C32_4 1_555 1_555
H36_4 C33_4 1_555 1_555
C35_4 C33_4 1_555 1_555
H37_4 C34_4 1_555 1_555
C36_4 C20_9 1_555 1_555
H38_4 C36_4 1_555 1_555
H39_4 C36_4 1_555 1_555
H40_4 C20_9 1_555 1_555
C40_4 C38_4 1_555 1_555
H42_4 C38_4 1_555 1_555
C41_4 C39_4 1_555 1_555
H44_4 C40_4 1_555 1_555
C42_4 C41_4 1_555 1_555
H45_4 C42_4 1_555 1_555
H46_4 C42_4 1_555 1_555
O4_4 C2_4 1_555 1_555
C12_4 C16_4 1_555 1_555
C34_4 C35_4 1_555 1_555
C35_4 C36_4 1_555 1_555
C40_4 C41_4 1_555 1_555

#END
