
###############################################################################
#
# This file contains modified crystal structure data generated from the
# MOF subset of the Cambridge Structural Database (CSD) v543 
# hosted by the Cambridge Crystallographic Data Centre (CCDC).
#
# This work is licensed under the Creative Commons
# Attribution-NonCommercial-ShareAlike 4.0 International License.
# To view a copy of this license, visit
# http://creativecommons.org/licenses/by-nc-sa/4.0/
# or send a letter to
# Creative Commons, PO Box 1866, Mountain View, CA 94042, USA.
#
# CIF created using the CSD Python API on 29 September 2022
# The structure has been converted into the P1 space group
# The structure has a 3D framework
# The original CSD entry RUYKAZ is in the monoclinic crystal system
# The framework has been calculated to contain at least 10.0% void space
# The void calculation uses a probe of radius 1.32A, grid spacing 0.4
# The framework is charged, counterions have been retained in the structure
#
###############################################################################

data_RUYKAZ
_chemical_formula_moiety         '(C292 H284 Ag8 F48 N16 O4 P8 S32)n'
_symmetry_cell_setting           triclinic
_symmetry_space_group_name_H-M   'P 1'
_symmetry_Int_Tables_number      1
_space_group_name_Hall           'P 1'
loop_
_symmetry_equiv_pos_site_id
_symmetry_equiv_pos_as_xyz
1 x,y,z
_cell_length_a                   19.4752(6)
_cell_length_b                   25.5432(7)
_cell_length_c                   20.9692(6)
_cell_angle_alpha                90
_cell_angle_beta                 114.2950(10)
_cell_angle_gamma                90
_cell_volume                     9507.51
loop_
_atom_site_label
_atom_site_type_symbol
_atom_site_fract_x
_atom_site_fract_y
_atom_site_fract_z
P1 P 0.4628(3) 0.8570(2) 0.8966(3)
F1 F 0.5072(13) 0.8582(11) 0.8482(12)
F2 F 0.4171(14) 0.9080(7) 0.8586(13)
F3 F 0.4159(11) 0.8579(8) 0.9421(10)
F4 F 0.5040(10) 0.8064(6) 0.9329(10)
F5 F 0.3969(8) 0.8235(6) 0.8366(8)
F6 F 0.5259(12) 0.8908(9) 0.9547(12)
P1_2 P 0.0372(3) 0.3570(2) 0.6034(3)
F2_2 F 0.0829(14) 0.4080(7) 0.6414(13)
F3_2 F 0.0841(11) 0.3579(8) 0.5579(10)
F5_2 F 0.1031(8) 0.3235(6) 0.6634(8)
F1_2 F 0.9928(13) 0.3582(11) 0.6518(12)
F4_2 F 0.9960(10) 0.3064(6) 0.5671(10)
F6_2 F 0.9741(12) 0.3908(9) 0.5453(12)
P1_3 P 0.5372(3) 0.1430(2) 0.1034(3)
F1_3 F 0.4928(13) 0.1418(11) 0.1518(12)
F2_3 F 0.5829(14) 0.0920(7) 0.1414(13)
F3_3 F 0.5841(11) 0.1421(8) 0.0579(10)
F4_3 F 0.4960(10) 0.1936(6) 0.0671(10)
F5_3 F 0.6031(8) 0.1765(6) 0.1634(8)
F6_3 F 0.4741(12) 0.1092(9) 0.0453(12)
F1_4 F 0.0072(13) 0.6418(11) 0.3482(12)
F4_4 F 0.0040(10) 0.6936(6) 0.4329(10)
F6_4 F 0.0259(12) 0.6092(9) 0.4547(12)
P1_4 P 0.9628(3) 0.6430(2) 0.3966(3)
F2_4 F 0.9171(14) 0.5920(7) 0.3586(13)
F3_4 F 0.9159(11) 0.6421(8) 0.4421(10)
F5_4 F 0.8969(8) 0.6765(6) 0.3366(8)
P2 P 0.60486(19) 0.83144(10) 0.58070(17)
F7 F 0.6588(7) 0.8021(4) 0.6463(4)
F8 F 0.5788(6) 0.8727(5) 0.6183(8)
F9 F 0.5376(6) 0.7943(4) 0.5735(6)
F10 F 0.6664(5) 0.8672(5) 0.5770(8)
F11 F 0.6015(11) 0.7936(5) 0.5293(6)
F12 F 0.5435(5) 0.8623(3) 0.5167(5)
P2_2 P 0.89514(19) 0.33144(10) 0.91930(17)
F7_2 F 0.8412(7) 0.3021(4) 0.8537(4)
F8_2 F 0.9212(6) 0.3727(5) 0.8817(8)
F9_2 F 0.9624(6) 0.2943(4) 0.9265(6)
F10_2 F 0.8336(5) 0.3672(5) 0.9230(8)
F11_2 F 0.8985(11) 0.2936(5) 0.9707(6)
F12_2 F 0.9565(5) 0.3623(3) 0.9833(5)
P2_3 P 0.39514(19) 0.16856(10) 0.41930(17)
F7_3 F 0.3412(7) 0.1979(4) 0.3537(4)
F8_3 F 0.4212(6) 0.1273(5) 0.3817(8)
F9_3 F 0.4624(6) 0.2057(4) 0.4265(6)
F10_3 F 0.3336(5) 0.1328(5) 0.4230(8)
F11_3 F 0.3985(11) 0.2064(5) 0.4707(6)
F12_3 F 0.4565(5) 0.1377(3) 0.4833(5)
P2_4 P 0.10486(19) 0.66856(10) 0.08070(17)
F7_4 F 0.1588(7) 0.6979(4) 0.1463(4)
F8_4 F 0.0788(6) 0.6273(5) 0.1183(8)
F9_4 F 0.0376(6) 0.7057(4) 0.0735(6)
F10_4 F 0.1664(5) 0.6328(5) 0.0770(8)
F11_4 F 0.1015(11) 0.7064(5) 0.0293(6)
F12_4 F 0.0435(5) 0.6377(3) 0.0167(5)
H54 H 0.1628 0.0535 0.0047
H55 H 0.2421 0.0420 0.0011
C65 C 0.2509(5) 0.2247(3) 0.0240(5)
C66 C 0.3037(6) 0.1880(3) 0.0575(5)
H58 H 0.3525 0.1979 0.0903
C67 C 0.2844(7) 0.1341(4) 0.0424(5)
H59 H 0.3205 0.1079 0.0662
C68 C 0.2719(5) 0.2793(3) 0.0423(6)
N4 N 0.2871(5) 0.3228(3) 0.0576(6)
Ag2 Ag 0.29121(4) 0.06981(3) 0.87248(4)
C1 C 0.1388(4) 0.0254(2) 0.7249(3)
C3 C 0.0240(4) 0.0181(2) 0.6214(3)
C4 C 0.0155(4) 0.0715(2) 0.6190(3)
C5 C 0.0702(4) 0.1037(2) 0.6693(3)
C6 C 0.1291(4) 0.0793(2) 0.7228(3)
H2 H 0.1641 0.1000 0.7593
C15 C 0.0614(5) 0.1633(3) 0.6638(4)
C17 C 0.0805(8) 0.1787(4) 0.6003(8)
H12 H 0.1341 0.1874 0.6174
H13 H 0.0502 0.2091 0.5762
H14 H 0.0690 0.1492 0.5677
C18 C 0.1056(9) 0.1876(4) 0.7355(7)
H15 H 0.0779 0.1826 0.7649
H16 H 0.1123 0.2251 0.7301
H17 H 0.1550 0.1707 0.7576
H35 H 0.0097 0.0725 0.9323
S8 S 0.14733(11) 0.05267(6) 0.88685(8)
C61 C 0.1961(5) 0.0638(3) 0.9816(4)
C62 C 0.2167(5) 0.1203(3) 0.9956(4)
C63 C 0.1636(5) 0.1603(3) 0.9614(5)
H56 H 0.1147 0.1512 0.9279
C64 C 0.1828(5) 0.2120(3) 0.9765(5)
H57 H 0.1474 0.2387 0.9531
O1 O 0.3668(6) 0.0392(4) 0.9874(6)
N5 N 0.2981(5) 0.1563(3) 0.8772(4)
S1 S 0.22292(9) 0.99712(6) 0.79019(8)
C2 C 0.0856(4) 0.9935(2) 0.6732(3)
S2 S 0.09901(10) 0.92463(6) 0.67376(9)
C7 C 0.1513(5) 0.9213(3) 0.6191(5)
H3 H 0.1214 0.9358 0.5720
H4 H 0.1995 0.9406 0.6407
C8 C 0.1649(5) 0.8628(3) 0.6154(5)
C9 C 0.2331(6) 0.8420(4) 0.6600(6)
H5 H 0.2732 0.8641 0.6885
C10 C 0.2418(6) 0.7884(4) 0.6624(6)
H6 H 0.2858 0.7730 0.6969
C11 C 0.1870(5) 0.7572(3) 0.6149(5)
C12 C 0.1201(5) 0.7783(3) 0.5675(4)
H7 H 0.0816 0.7569 0.5352
C13 C 0.1115(5) 0.8316(3) 0.5690(4)
H8 H 0.0664 0.8472 0.5363
C14 C 0.1958(5) 0.7003(4) 0.6188(5)
N1 N 0.2019(5) 0.6563(3) 0.6228(4)
S7 S 0.06512(10) 0.97140(6) 0.95974(8)
C55 C 0.1204(4) 0.9494(3) 0.9148(3)
C56 C 0.1508(3) 0.9833(2) 0.8816(3)
C57 C 0.1881(4) 0.9597(2) 0.8430(3)
C58 C 0.1997(4) 0.9070(3) 0.8452(3)
H52 H 0.2264 0.8927 0.8201
C59 C 0.1741(4) 0.8734(3) 0.8828(4)
C60 C 0.1327(4) 0.8951(3) 0.9162(4)
H53 H 0.1123 0.8730 0.9405
C69 C 0.1894(5) 0.8142(3) 0.8879(5)
C70 C 0.2758(8) 0.8058(8) 0.9288(16)
H60 H 0.3008 0.8399 0.9418
H61 H 0.2954 0.7870 0.8991
H62 H 0.2855 0.7853 0.9711
C71 C 0.1465(15) 0.7836(9) 0.9198(16)
H63 H 0.1798 0.7746 0.9681
H64 H 0.1274 0.7514 0.8928
H65 H 0.1042 0.8045 0.9193
C72 C 0.1691(17) 0.7956(8) 0.8098(9)
H66 H 0.1868 0.7596 0.8102
H67 H 0.1936 0.8187 0.7882
H68 H 0.1143 0.7969 0.7828
C73 C 0.3934(9) 0.9838(5) 0.9962(9)
H69 H 0.3500 0.9602 0.9825
H71 H 0.4205 0.9773 0.9666
Ag5 Ag 0.20879(4) 0.56981(3) 0.62752(4)
Ag1 Ag 0.70551(3) 0.02783(2) 0.64324(3)
H1 H 0.9724 0.0870 0.5833
C16 C 0.9779(5) 0.1786(4) 0.6423(5)
H9 H 0.9513 0.1780 0.5912
H10 H 0.9753 0.2139 0.6595
H11 H 0.9542 0.1537 0.6626
S4 S 0.84691(10) 0.03717(6) 0.62469(9)
C25 C 0.7955(4) 0.0484(3) 0.5310(4)
H20 H 0.8009 0.0857 0.5211
H21 H 0.8191 0.0272 0.5059
C26 C 0.7128(4) 0.0351(3) 0.5023(4)
C27 C 0.6594(5) 0.0745(3) 0.4735(5)
H22 H 0.6749 0.1099 0.4746
C28 C 0.5831(5) 0.0619(3) 0.4430(5)
H23 H 0.5469 0.0888 0.4227
C29 C 0.5593(4) 0.0109(3) 0.4419(4)
C40 C 0.9722(4) 0.0528(2) 0.8964(3)
C41 C 0.9076(4) 0.0774(2) 0.8507(3)
C42 C 0.8566(3) 0.0472(2) 0.7946(3)
H36 H 0.8137 0.0637 0.7600
C51 C 0.8914(4) 0.1354(3) 0.8558(4)
C52 C 0.8991(5) 0.1643(3) 0.7959(4)
H43 H 0.9490 0.1575 0.7968
H44 H 0.8930 0.2019 0.8007
H45 H 0.8603 0.1520 0.7514
C53 C 0.9451(5) 0.1590(3) 0.9258(4)
H46 H 0.9967 0.1473 0.9365
H47 H 0.9303 0.1474 0.9629
H48 H 0.9428 0.1973 0.9226
C54 C 0.8104(5) 0.1432(3) 0.8514(5)
H49 H 0.8019 0.1804 0.8569
H50 H 0.8046 0.1232 0.8887
H51 H 0.7737 0.1309 0.8059
N6 N 0.5792(4) 0.0111(3) 0.6071(4)
N7 N 0.6956(4) 0.1172(3) 0.6571(4)
S3 S 0.95442(10) 0.98171(7) 0.55164(8)
C19 C 0.9086(4) 0.9453(2) 0.5958(3)
C20 C 0.8663(4) 0.9688(2) 0.6294(3)
C21 C 0.8400(3) 0.9354(2) 0.6668(3)
C22 C 0.8476(4) 0.8811(2) 0.6656(3)
H18 H 0.8280 0.8597 0.6912
C23 C 0.8830(4) 0.8578(2) 0.6279(4)
C24 C 0.9148(4) 0.8915(3) 0.5936(4)
H19 H 0.9410 0.8768 0.5684
C30 C 0.6144(4) 0.9707(3) 0.4738(4)
H24 H 0.5986 0.9357 0.4757
C31 C 0.6887(4) 0.9824(3) 0.5010(4)
H25 H 0.7250 0.9554 0.5194
C32 C 0.4814(5) 0.9983(3) 0.4128(4)
N2 N 0.4208(4) 0.9889(3) 0.3929(4)
C33 C 0.8937(5) 0.7988(3) 0.6300(4)
C34 C 0.9172(10) 0.7798(5) 0.5721(8)
H26 H 0.9234 0.7416 0.5750
H27 H 0.9649 0.7963 0.5782
H28 H 0.8781 0.7893 0.5262
C35 C 0.8205(8) 0.7702(5) 0.6199(9)
H29 H 0.8123 0.7410 0.5871
H30 H 0.7780 0.7946 0.6010
H31 H 0.8245 0.7566 0.6650
C36 C 0.9592(8) 0.7904(5) 0.7011(7)
H32 H 0.9402 0.7756 0.7339
H33 H 0.9838 0.8239 0.7192
H34 H 0.9956 0.7661 0.6960
S5 S 0.79443(9) 0.95841(6) 0.72094(8)
C37 C 0.8675(4) 0.9945(2) 0.7891(3)
C38 C 0.9306(4) 0.9680(2) 0.8379(3)
C39 C 0.9833(4) 0.9993(2) 0.8906(3)
S6 S 0.94019(10) 0.89940(6) 0.83700(9)
C43 C 0.8827(5) 0.8804(3) 0.8825(4)
H37 H 0.9099 0.8879 0.9331
H38 H 0.8353 0.9009 0.8644
C44 C 0.8651(4) 0.8225(2) 0.8715(3)
C45 C 0.9189(4) 0.7865(3) 0.9125(4)
H39 H 0.9659 0.7987 0.9462
C46 C 0.9048(5) 0.7331(3) 0.9049(4)
H40 H 0.9416 0.7085 0.9325
C47 C 0.8336(4) 0.7165(3) 0.8543(4)
C48 C 0.7812(4) 0.7524(3) 0.8120(4)
H41 H 0.7344 0.7405 0.7776
C49 C 0.7968(5) 0.8059(3) 0.8197(4)
H42 H 0.7615 0.8305 0.7901
C50 C 0.8179(4) 0.6609(3) 0.8482(4)
N3 N 0.8044(4) 0.6172(3) 0.8429(4)
Ag3 Ag 0.79449(3) 0.52783(2) 0.85676(3)
Ag4 Ag 0.29449(3) 0.97217(2) 0.35676(3)
C32_2 C 0.0186(5) 0.4983(3) 0.0872(4)
N2_2 N 0.0792(4) 0.4889(3) 0.1071(4)
Ag4_2 Ag 0.20551(3) 0.47217(2) 0.14324(3)
S1_2 S 0.27708(9) 0.49712(6) 0.70981(8)
C1_2 C 0.3612(4) 0.5254(2) 0.7751(3)
C2_2 C 0.4144(4) 0.4935(2) 0.8268(3)
C3_2 C 0.4760(4) 0.5181(2) 0.8786(3)
C4_2 C 0.4845(4) 0.5715(2) 0.8810(3)
H1_2 H 0.5276 0.5870 0.9167
C5_2 C 0.4298(4) 0.6037(2) 0.8307(3)
C6_2 C 0.3709(4) 0.5793(2) 0.7772(3)
H2_2 H 0.3359 0.6000 0.7407
S2_2 S 0.40099(10) 0.42463(6) 0.82624(9)
C7_2 C 0.3487(5) 0.4213(3) 0.8809(5)
H3_2 H 0.3786 0.4358 0.9280
H4_2 H 0.3005 0.4406 0.8593
C8_2 C 0.3351(5) 0.3628(3) 0.8846(5)
C9_2 C 0.2669(6) 0.3420(4) 0.8400(6)
H5_2 H 0.2268 0.3641 0.8115
C10_2 C 0.2582(6) 0.2884(4) 0.8376(6)
H6_2 H 0.2142 0.2730 0.8031
C11_2 C 0.3130(5) 0.2572(3) 0.8851(5)
C12_2 C 0.3799(5) 0.2783(3) 0.9325(4)
H7_2 H 0.4184 0.2569 0.9648
C13_2 C 0.3885(5) 0.3316(3) 0.9310(4)
H8_2 H 0.4336 0.3472 0.9637
C14_2 C 0.3042(5) 0.2003(4) 0.8812(5)
C15_2 C 0.4386(5) 0.6633(3) 0.8362(4)
C16_2 C 0.5221(5) 0.6786(4) 0.8577(5)
H9_2 H 0.5487 0.6780 0.9088
H10_2 H 0.5247 0.7139 0.8405
H11_2 H 0.5458 0.6537 0.8374
C17_2 C 0.4195(8) 0.6787(4) 0.8997(8)
H12_2 H 0.3659 0.6874 0.8826
H13_2 H 0.4498 0.7091 0.9238
H14_2 H 0.4310 0.6492 0.9323
C18_2 C 0.3944(9) 0.6876(4) 0.7645(7)
H15_2 H 0.4221 0.6826 0.7351
H16_2 H 0.3877 0.7251 0.7699
H17_2 H 0.3450 0.6707 0.7424
S3_2 S 0.54558(10) 0.48171(7) 0.94836(8)
C19_2 C 0.5914(4) 0.4453(2) 0.9042(3)
C20_2 C 0.6337(4) 0.4688(2) 0.8706(3)
C21_2 C 0.6600(3) 0.4354(2) 0.8332(3)
C22_2 C 0.6524(4) 0.3811(2) 0.8344(3)
H18_2 H 0.6720 0.3597 0.8088
C23_2 C 0.6170(4) 0.3578(2) 0.8721(4)
C24_2 C 0.5852(4) 0.3915(3) 0.9064(4)
H19_2 H 0.5590 0.3768 0.9316
S4_2 S 0.65309(10) 0.53717(6) 0.87531(9)
C25_2 C 0.7045(4) 0.5484(3) 0.9690(4)
H20_2 H 0.6991 0.5857 0.9789
H21_2 H 0.6809 0.5272 0.9941
C26_2 C 0.7872(4) 0.5351(3) 0.9977(4)
C31_2 C 0.8113(4) 0.4824(3) 0.9990(4)
H25_2 H 0.7750 0.4554 0.9806
C33_2 C 0.6063(5) 0.2988(3) 0.8700(4)
C34_2 C 0.5828(10) 0.2798(5) 0.9279(8)
H26_2 H 0.5766 0.2416 0.9250
H27_2 H 0.5351 0.2963 0.9218
H28_2 H 0.6219 0.2893 0.9738
C35_2 C 0.6795(8) 0.2702(5) 0.8801(9)
H29_2 H 0.6877 0.2410 0.9129
H30_2 H 0.7220 0.2946 0.8990
H31_2 H 0.6755 0.2566 0.8350
C36_2 C 0.5408(8) 0.2904(5) 0.7989(7)
H32_2 H 0.5598 0.2756 0.7661
H33_2 H 0.5162 0.3239 0.7808
H34_2 H 0.5044 0.2661 0.8040
S5_2 S 0.70557(9) 0.45841(6) 0.77906(8)
C37_2 C 0.6325(4) 0.4945(2) 0.7109(3)
C38_2 C 0.5694(4) 0.4680(2) 0.6621(3)
C39_2 C 0.5167(4) 0.4993(2) 0.6094(3)
C40_2 C 0.5278(4) 0.5528(2) 0.6036(3)
H35_2 H 0.4903 0.5725 0.5677
C41_2 C 0.5924(4) 0.5774(2) 0.6493(3)
S6_2 S 0.55981(10) 0.39940(6) 0.66300(9)
C42_2 C 0.6434(3) 0.5472(2) 0.7054(3)
H36_2 H 0.6863 0.5637 0.7400
C43_2 C 0.6173(5) 0.3804(3) 0.6175(4)
H37_2 H 0.5901 0.3879 0.5669
H38_2 H 0.6647 0.4009 0.6356
C44_2 C 0.6349(4) 0.3225(2) 0.6285(3)
C45_2 C 0.5811(4) 0.2865(3) 0.5875(4)
H39_2 H 0.5341 0.2987 0.5538
C46_2 C 0.5952(5) 0.2331(3) 0.5951(4)
H40_2 H 0.5584 0.2085 0.5675
C47_2 C 0.6664(4) 0.2165(3) 0.6457(4)
C48_2 C 0.7188(4) 0.2524(3) 0.6880(4)
H41_2 H 0.7656 0.2405 0.7224
C49_2 C 0.7032(5) 0.3059(3) 0.6803(4)
H42_2 H 0.7385 0.3305 0.7099
C50_2 C 0.6821(4) 0.1609(3) 0.6518(4)
C51_2 C 0.6086(4) 0.6354(3) 0.6442(4)
C52_2 C 0.6009(5) 0.6643(3) 0.7041(4)
H43_2 H 0.5510 0.6575 0.7032
H44_2 H 0.6070 0.7019 0.6993
H45_2 H 0.6397 0.6520 0.7486
C53_2 C 0.5549(5) 0.6590(3) 0.5742(4)
H46_2 H 0.5033 0.6473 0.5635
H47_2 H 0.5697 0.6474 0.5371
H48_2 H 0.5572 0.6973 0.5774
C54_2 C 0.6896(5) 0.6432(3) 0.6486(5)
H49_2 H 0.6981 0.6804 0.6431
H50_2 H 0.6954 0.6232 0.6113
H51_2 H 0.7263 0.6309 0.6941
S7_2 S 0.43488(10) 0.47140(6) 0.54026(8)
C55_2 C 0.3796(4) 0.4494(3) 0.5852(3)
C56_2 C 0.3492(3) 0.4833(2) 0.6184(3)
C57_2 C 0.3119(4) 0.4597(2) 0.6570(3)
C58_2 C 0.3003(4) 0.4070(3) 0.6548(3)
H52_2 H 0.2736 0.3927 0.6799
C59_2 C 0.3259(4) 0.3734(3) 0.6172(4)
C60_2 C 0.3673(4) 0.3951(3) 0.5838(4)
H53_2 H 0.3877 0.3730 0.5595
S8_2 S 0.35267(11) 0.55267(6) 0.61315(8)
C61_2 C 0.3039(5) 0.5638(3) 0.5184(4)
H54_2 H 0.3372 0.5535 0.4953
H55_2 H 0.2579 0.5420 0.4989
C62_2 C 0.2833(5) 0.6203(3) 0.5044(4)
C63_2 C 0.3364(5) 0.6603(3) 0.5386(5)
H56_2 H 0.3853 0.6512 0.5721
C64_2 C 0.3172(5) 0.7120(3) 0.5235(5)
H57_2 H 0.3526 0.7387 0.5469
C65_2 C 0.2491(5) 0.7247(3) 0.4760(5)
C66_2 C 0.1963(6) 0.6880(3) 0.4425(5)
H58_2 H 0.1475 0.6979 0.4097
C67_2 C 0.2156(7) 0.6341(4) 0.4576(5)
H59_2 H 0.1795 0.6079 0.4338
C68_2 C 0.2281(5) 0.7793(3) 0.4577(6)
N4_2 N 0.2129(5) 0.8228(3) 0.4424(6)
C69_2 C 0.3106(5) 0.3142(3) 0.6121(5)
C70_2 C 0.2242(8) 0.3058(8) 0.5712(16)
H60_2 H 0.1992 0.3399 0.5582
H61_2 H 0.2046 0.2870 0.6009
H62_2 H 0.2145 0.2853 0.5289
C71_2 C 0.3535(15) 0.2836(9) 0.5802(16)
H63_2 H 0.3202 0.2746 0.5319
H64_2 H 0.3726 0.2514 0.6072
H65_2 H 0.3958 0.3045 0.5807
C72_2 C 0.3309(17) 0.2956(8) 0.6902(9)
H66_2 H 0.3132 0.2596 0.6898
H67_2 H 0.3064 0.3187 0.7118
H68_2 H 0.3857 0.2969 0.7172
O1_2 O 0.1332(6) 0.5392(4) 0.5126(6)
C73_2 C 0.1066(9) 0.4838(5) 0.5038(9)
H69_2 H 0.1500 0.4602 0.5175
H70 H 0.0728 0.4775 0.4547
H71_2 H 0.0795 0.4773 0.5334
N6_2 N 0.9208(4) 0.5111(3) 0.8929(4)
S3_3 S 0.04558(10) 0.01829(7) 0.44836(8)
C19_3 C 0.0914(4) 0.0547(2) 0.4042(3)
C20_3 C 0.1337(4) 0.0312(2) 0.3706(3)
C21_3 C 0.1600(3) 0.0646(2) 0.3332(3)
C22_3 C 0.1524(4) 0.1189(2) 0.3344(3)
H18_3 H 0.1720 0.1403 0.3088
C23_3 C 0.1170(4) 0.1422(2) 0.3721(4)
C24_3 C 0.0852(4) 0.1085(3) 0.4064(4)
H19_3 H 0.0590 0.1232 0.4316
C30_2 C 0.3856(4) 0.0293(3) 0.5262(4)
H24_2 H 0.4014 0.0643 0.5243
C31_3 C 0.3113(4) 0.0176(3) 0.4990(4)
H25_3 H 0.2750 0.0446 0.4806
C32_3 C 0.5186(5) 0.0017(3) 0.5872(4)
C33_3 C 0.1063(5) 0.2012(3) 0.3700(4)
C34_3 C 0.0828(10) 0.2202(5) 0.4279(8)
H26_3 H 0.0766 0.2584 0.4250
H27_3 H 0.0351 0.2037 0.4218
H28_3 H 0.1219 0.2107 0.4738
C35_3 C 0.1795(8) 0.2298(5) 0.3801(9)
H29_3 H 0.1877 0.2590 0.4129
H30_3 H 0.2220 0.2054 0.3990
H31_3 H 0.1755 0.2434 0.3350
C36_3 C 0.0408(8) 0.2096(5) 0.2989(7)
H32_3 H 0.0598 0.2244 0.2661
H33_3 H 0.0162 0.1761 0.2808
H34_3 H 0.0044 0.2339 0.3040
S5_3 S 0.20557(9) 0.04159(6) 0.27906(8)
C37_3 C 0.1325(4) 0.0055(2) 0.2109(3)
C38_3 C 0.0694(4) 0.0320(2) 0.1621(3)
C39_3 C 0.0167(4) 0.0007(2) 0.1094(3)
S6_3 S 0.05981(10) 0.10060(6) 0.16300(9)
C43_3 C 0.1173(5) 0.1196(3) 0.1175(4)
H37_3 H 0.0901 0.1121 0.0669
H38_3 H 0.1647 0.0991 0.1356
C44_3 C 0.1349(4) 0.1775(2) 0.1285(3)
C45_3 C 0.0811(4) 0.2135(3) 0.0875(4)
H39_3 H 0.0341 0.2013 0.0538
C46_3 C 0.0952(5) 0.2669(3) 0.0951(4)
H40_3 H 0.0584 0.2915 0.0675
C47_3 C 0.1664(4) 0.2835(3) 0.1457(4)
C48_3 C 0.2188(4) 0.2476(3) 0.1880(4)
H41_3 H 0.2656 0.2595 0.2224
C49_3 C 0.2032(5) 0.1941(3) 0.1803(4)
H42_3 H 0.2385 0.1695 0.2099
C50_3 C 0.1821(4) 0.3391(3) 0.1518(4)
N3_2 N 0.1956(4) 0.3828(3) 0.1571(4)
H1_3 H 0.0276 0.9130 0.4167
C16_3 C 0.0221(5) 0.8214(4) 0.3577(5)
H9_3 H 0.0487 0.8220 0.4088
H10_3 H 0.0247 0.7861 0.3405
H11_3 H 0.0458 0.8463 0.3374
S4_3 S 0.15309(10) 0.96283(6) 0.37531(9)
C25_3 C 0.2045(4) 0.9516(3) 0.4690(4)
H20_3 H 0.1991 0.9143 0.4789
H21_3 H 0.1809 0.9728 0.4941
C26_3 C 0.2872(4) 0.9649(3) 0.4977(4)
C27_2 C 0.3406(5) 0.9255(3) 0.5265(5)
H22_2 H 0.3251 0.8901 0.5254
C28_2 C 0.4169(5) 0.9381(3) 0.5570(5)
H23_2 H 0.4531 0.9112 0.5773
C29_2 C 0.4407(4) 0.9891(3) 0.5581(4)
C40_3 C 0.0278(4) 0.9472(2) 0.1036(3)
C41_3 C 0.0924(4) 0.9226(2) 0.1493(3)
C42_3 C 0.1434(3) 0.9528(2) 0.2054(3)
H36_3 H 0.1863 0.9363 0.2400
C51_3 C 0.1086(4) 0.8646(3) 0.1442(4)
C52_3 C 0.1009(5) 0.8357(3) 0.2041(4)
H43_3 H 0.0510 0.8425 0.2032
H44_3 H 0.1070 0.7981 0.1993
H45_3 H 0.1397 0.8480 0.2486
C53_3 C 0.0549(5) 0.8410(3) 0.0742(4)
H46_3 H 0.0033 0.8527 0.0635
H47_3 H 0.0697 0.8526 0.0371
H48_3 H 0.0572 0.8027 0.0774
C54_3 C 0.1896(5) 0.8568(3) 0.1486(5)
H49_3 H 0.1981 0.8196 0.1431
H50_3 H 0.1954 0.8768 0.1113
H51_3 H 0.2263 0.8691 0.1941
N7_2 N 0.3044(4) 0.8828(3) 0.3429(4)
S1_3 S 0.77708(9) 0.00288(6) 0.20981(8)
C2_3 C 0.9144(4) 0.0065(2) 0.3268(3)
S2_3 S 0.90099(10) 0.07537(6) 0.32624(9)
C7_3 C 0.8487(5) 0.0787(3) 0.3809(5)
H3_3 H 0.8786 0.0642 0.4280
H4_3 H 0.8005 0.0594 0.3593
C8_3 C 0.8351(5) 0.1372(3) 0.3846(5)
C9_3 C 0.7669(6) 0.1580(4) 0.3400(6)
H5_3 H 0.7268 0.1359 0.3115
C10_3 C 0.7582(6) 0.2116(4) 0.3376(6)
H6_3 H 0.7142 0.2270 0.3031
C11_3 C 0.8130(5) 0.2428(3) 0.3851(5)
C12_3 C 0.8799(5) 0.2217(3) 0.4325(4)
H7_3 H 0.9184 0.2431 0.4648
C13_3 C 0.8885(5) 0.1684(3) 0.4310(4)
H8_3 H 0.9336 0.1528 0.4637
C14_3 C 0.8042(5) 0.2997(4) 0.3812(5)
N1_2 N 0.7981(5) 0.3437(3) 0.3772(4)
S7_3 S 0.93488(10) 0.02860(6) 0.04026(8)
C55_3 C 0.8796(4) 0.0506(3) 0.0852(3)
C56_3 C 0.8492(3) 0.0167(2) 0.1184(3)
C57_3 C 0.8119(4) 0.0403(2) 0.1570(3)
C58_3 C 0.8003(4) 0.0930(3) 0.1548(3)
H52_3 H 0.7736 0.1073 0.1799
C59_3 C 0.8259(4) 0.1266(3) 0.1172(4)
C60_3 C 0.8673(4) 0.1049(3) 0.0838(4)
H53_3 H 0.8877 0.1270 0.0595
C69_3 C 0.8106(5) 0.1858(3) 0.1121(5)
C70_3 C 0.7242(8) 0.1942(8) 0.0712(16)
H60_3 H 0.6992 0.1601 0.0582
H61_3 H 0.7046 0.2130 0.1009
H62_3 H 0.7145 0.2147 0.0289
C71_3 C 0.8535(15) 0.2164(9) 0.0802(16)
H63_3 H 0.8202 0.2254 0.0319
H64_3 H 0.8726 0.2486 0.1072
H65_3 H 0.8958 0.1955 0.0807
C72_3 C 0.8309(17) 0.2044(8) 0.1902(9)
H66_3 H 0.8132 0.2404 0.1898
H67_3 H 0.8064 0.1813 0.2118
H68_3 H 0.8857 0.2031 0.2172
C73_3 C 0.6066(9) 0.0162(5) 0.0038(9)
H69_3 H 0.6500 0.0398 0.0175
H71_3 H 0.5795 0.0227 0.0334
Ag5_2 Ag 0.79121(4) 0.43019(3) 0.37248(4)
Ag2_2 Ag 0.70879(4) 0.93019(3) 0.12752(4)
C1_3 C 0.8612(4) 0.9746(2) 0.2751(3)
C3_3 C 0.9760(4) 0.9819(2) 0.3786(3)
C4_3 C 0.9845(4) 0.9285(2) 0.3810(3)
C5_3 C 0.9298(4) 0.8963(2) 0.3307(3)
C6_3 C 0.8709(4) 0.9207(2) 0.2772(3)
H2_3 H 0.8359 0.9000 0.2407
C15_3 C 0.9386(5) 0.8367(3) 0.3362(4)
C17_3 C 0.9195(8) 0.8213(4) 0.3997(8)
H12_3 H 0.8659 0.8126 0.3826
H13_3 H 0.9498 0.7909 0.4238
H14_3 H 0.9310 0.8508 0.4323
C18_3 C 0.8944(9) 0.8124(4) 0.2645(7)
H15_3 H 0.9221 0.8174 0.2351
H16_3 H 0.8877 0.7749 0.2699
H17_3 H 0.8450 0.8293 0.2424
H35_3 H 0.9903 0.9275 0.0677
S8_3 S 0.85267(11) 0.94733(6) 0.11315(8)
C61_3 C 0.8039(5) 0.9362(3) 0.0184(4)
C62_3 C 0.7833(5) 0.8797(3) 0.0044(4)
C63_3 C 0.8364(5) 0.8397(3) 0.0386(5)
H56_3 H 0.8853 0.8488 0.0721
C64_3 C 0.8172(5) 0.7880(3) 0.0235(5)
H57_3 H 0.8526 0.7613 0.0469
O1_3 O 0.6332(6) 0.9608(4) 0.0126(6)
N5_2 N 0.7019(5) 0.8437(3) 0.1228(4)
S1_4 S 0.72292(9) 0.50288(6) 0.29019(8)
C1_4 C 0.6388(4) 0.4746(2) 0.2249(3)
C2_4 C 0.5856(4) 0.5065(2) 0.1732(3)
C3_4 C 0.5240(4) 0.4819(2) 0.1214(3)
C4_4 C 0.5155(4) 0.4285(2) 0.1190(3)
H1_4 H 0.4724 0.4130 0.0833
C5_4 C 0.5702(4) 0.3963(2) 0.1693(3)
C6_4 C 0.6291(4) 0.4207(2) 0.2228(3)
H2_4 H 0.6641 0.4000 0.2593
S2_4 S 0.59901(10) 0.57537(6) 0.17376(9)
C7_4 C 0.6513(5) 0.5787(3) 0.1191(5)
H3_4 H 0.6214 0.5642 0.0720
H4_4 H 0.6995 0.5594 0.1407
C8_4 C 0.6649(5) 0.6372(3) 0.1154(5)
C9_4 C 0.7331(6) 0.6580(4) 0.1600(6)
H5_4 H 0.7732 0.6359 0.1885
C10_4 C 0.7418(6) 0.7116(4) 0.1624(6)
H6_4 H 0.7858 0.7270 0.1969
C11_4 C 0.6870(5) 0.7428(3) 0.1149(5)
C12_4 C 0.6201(5) 0.7217(3) 0.0675(4)
H7_4 H 0.5816 0.7431 0.0352
C13_4 C 0.6115(5) 0.6684(3) 0.0690(4)
H8_4 H 0.5664 0.6528 0.0363
C14_4 C 0.6958(5) 0.7997(4) 0.1188(5)
C15_4 C 0.5614(5) 0.3367(3) 0.1638(4)
C16_4 C 0.4779(5) 0.3214(4) 0.1423(5)
H9_4 H 0.4513 0.3220 0.0912
H10_4 H 0.4753 0.2861 0.1595
H11_4 H 0.4542 0.3463 0.1626
C17_4 C 0.5805(8) 0.3213(4) 0.1003(8)
H12_4 H 0.6341 0.3126 0.1174
H13_4 H 0.5502 0.2909 0.0762
H14_4 H 0.5690 0.3508 0.0677
C18_4 C 0.6056(9) 0.3124(4) 0.2355(7)
H15_4 H 0.5779 0.3174 0.2649
H16_4 H 0.6123 0.2749 0.2301
H17_4 H 0.6550 0.3293 0.2576
S3_4 S 0.45442(10) 0.51829(7) 0.05164(8)
C19_4 C 0.4086(4) 0.5547(2) 0.0958(3)
C20_4 C 0.3663(4) 0.5312(2) 0.1294(3)
C21_4 C 0.3400(3) 0.5646(2) 0.1668(3)
C22_4 C 0.3476(4) 0.6189(2) 0.1656(3)
H18_4 H 0.3280 0.6403 0.1912
C23_4 C 0.3830(4) 0.6422(2) 0.1279(4)
C24_4 C 0.4148(4) 0.6085(3) 0.0936(4)
H19_4 H 0.4410 0.6232 0.0684
S4_4 S 0.34691(10) 0.46283(6) 0.12469(9)
C25_4 C 0.2955(4) 0.4516(3) 0.0310(4)
H20_4 H 0.3009 0.4143 0.0211
H21_4 H 0.3191 0.4728 0.0059
C26_4 C 0.2128(4) 0.4649(3) 0.0023(4)
C31_4 C 0.1887(4) 0.5176(3) 0.0010(4)
H25_4 H 0.2250 0.5446 0.0194
C33_4 C 0.3937(5) 0.7012(3) 0.1300(4)
C34_4 C 0.4172(10) 0.7202(5) 0.0721(8)
H26_4 H 0.4234 0.7584 0.0750
H27_4 H 0.4649 0.7037 0.0782
H28_4 H 0.3781 0.7107 0.0262
C35_4 C 0.3205(8) 0.7298(5) 0.1199(9)
H29_4 H 0.3123 0.7590 0.0871
H30_4 H 0.2780 0.7054 0.1010
H31_4 H 0.3245 0.7434 0.1650
C36_4 C 0.4592(8) 0.7096(5) 0.2011(7)
H32_4 H 0.4402 0.7244 0.2339
H33_4 H 0.4838 0.6761 0.2192
H34_4 H 0.4956 0.7339 0.1960
S5_4 S 0.29443(9) 0.54159(6) 0.22094(8)
C37_4 C 0.3675(4) 0.5055(2) 0.2891(3)
C38_4 C 0.4306(4) 0.5320(2) 0.3379(3)
C39_4 C 0.4833(4) 0.5007(2) 0.3906(3)
C40_4 C 0.4722(4) 0.4472(2) 0.3964(3)
H35_4 H 0.5097 0.4275 0.4323
C41_4 C 0.4076(4) 0.4226(2) 0.3507(3)
S6_4 S 0.44019(10) 0.60060(6) 0.33700(9)
C42_4 C 0.3566(3) 0.4528(2) 0.2946(3)
H36_4 H 0.3137 0.4363 0.2600
C43_4 C 0.3827(5) 0.6196(3) 0.3825(4)
H37_4 H 0.4099 0.6121 0.4331
H38_4 H 0.3353 0.5991 0.3644
C44_4 C 0.3651(4) 0.6775(2) 0.3715(3)
C45_4 C 0.4189(4) 0.7135(3) 0.4125(4)
H39_4 H 0.4659 0.7013 0.4462
C46_4 C 0.4048(5) 0.7669(3) 0.4049(4)
H40_4 H 0.4416 0.7915 0.4325
C47_4 C 0.3336(4) 0.7835(3) 0.3543(4)
C48_4 C 0.2812(4) 0.7476(3) 0.3120(4)
H41_4 H 0.2344 0.7595 0.2776
C49_4 C 0.2968(5) 0.6941(3) 0.3197(4)
H42_4 H 0.2615 0.6695 0.2901
C50_4 C 0.3179(4) 0.8391(3) 0.3482(4)
C51_4 C 0.3914(4) 0.3646(3) 0.3558(4)
C52_4 C 0.3991(5) 0.3357(3) 0.2959(4)
H43_4 H 0.4490 0.3425 0.2968
H44_4 H 0.3930 0.2981 0.3007
H45_4 H 0.3603 0.3480 0.2514
C53_4 C 0.4451(5) 0.3410(3) 0.4258(4)
H46_4 H 0.4967 0.3527 0.4365
H47_4 H 0.4303 0.3526 0.4629
H48_4 H 0.4428 0.3027 0.4226
C54_4 C 0.3104(5) 0.3568(3) 0.3514(5)
H49_4 H 0.3019 0.3196 0.3569
H50_4 H 0.3046 0.3768 0.3887
H51_4 H 0.2737 0.3691 0.3059
S7_4 S 0.56512(10) 0.52860(6) 0.45974(8)
C55_4 C 0.6204(4) 0.5506(3) 0.4148(3)
C56_4 C 0.6508(3) 0.5167(2) 0.3816(3)
C57_4 C 0.6881(4) 0.5403(2) 0.3430(3)
C58_4 C 0.6997(4) 0.5930(3) 0.3452(3)
H52_4 H 0.7264 0.6073 0.3201
C59_4 C 0.6741(4) 0.6266(3) 0.3828(4)
C60_4 C 0.6327(4) 0.6049(3) 0.4162(4)
H53_4 H 0.6123 0.6270 0.4405
S8_4 S 0.64733(11) 0.44733(6) 0.38685(8)
C61_4 C 0.6961(5) 0.4362(3) 0.4816(4)
H54_3 H 0.6628 0.4465 0.5047
H55_3 H 0.7421 0.4580 0.5011
C62_4 C 0.7167(5) 0.3797(3) 0.4956(4)
C63_4 C 0.6636(5) 0.3397(3) 0.4614(5)
H56_4 H 0.6147 0.3488 0.4279
C64_4 C 0.6828(5) 0.2880(3) 0.4765(5)
H57_4 H 0.6474 0.2613 0.4531
C65_3 C 0.7509(5) 0.2753(3) 0.5240(5)
C66_3 C 0.8037(6) 0.3120(3) 0.5575(5)
H58_3 H 0.8525 0.3021 0.5903
C67_3 C 0.7844(7) 0.3659(4) 0.5424(5)
H59_3 H 0.8205 0.3921 0.5662
C68_3 C 0.7719(5) 0.2207(3) 0.5423(6)
N4_3 N 0.7871(5) 0.1772(3) 0.5576(6)
C69_4 C 0.6894(5) 0.6858(3) 0.3879(5)
C70_4 C 0.7758(8) 0.6942(8) 0.4288(16)
H60_4 H 0.8008 0.6601 0.4418
H61_4 H 0.7954 0.7130 0.3991
H62_4 H 0.7855 0.7147 0.4711
C71_4 C 0.6465(15) 0.7164(9) 0.4198(16)
H63_4 H 0.6798 0.7254 0.4681
H64_4 H 0.6274 0.7486 0.3928
H65_4 H 0.6042 0.6955 0.4193
C72_4 C 0.6691(17) 0.7044(8) 0.3098(9)
H66_4 H 0.6868 0.7404 0.3102
H67_4 H 0.6936 0.6813 0.2882
H68_4 H 0.6143 0.7031 0.2828
O1_4 O 0.8668(6) 0.4608(4) 0.4874(6)
C73_4 C 0.8934(9) 0.5162(5) 0.4962(9)
H69_4 H 0.8500 0.5398 0.4825
H70_2 H 0.9272 0.5225 0.5453
H71_4 H 0.9205 0.5227 0.4666
C32_4 C 0.9814(5) 0.5017(3) 0.9128(4)
H70_3 H 0.4272 0.9775 0.0453
C27_3 C 0.8406(5) 0.5745(3) 0.0265(5)
H22_3 H 0.8251 0.6099 0.0254
C28_3 C 0.9169(5) 0.5619(3) 0.0570(5)
H23_3 H 0.9531 0.5888 0.0773
C29_3 C 0.9407(4) 0.5109(3) 0.0581(4)
C30_3 C 0.8856(4) 0.4707(3) 0.0262(4)
H24_3 H 0.9014 0.4357 0.0243
H70_4 H 0.5728 0.0225 0.9547
H54_4 H 0.8372 0.9465 0.9953
H55_4 H 0.7579 0.9580 0.9989
C65_4 C 0.7491(5) 0.7753(3) 0.9760(5)
C66_4 C 0.6963(6) 0.8120(3) 0.9425(5)
H58_4 H 0.6475 0.8021 0.9097
C67_4 C 0.7156(7) 0.8659(4) 0.9576(5)
H59_4 H 0.6795 0.8921 0.9338
C68_4 C 0.7281(5) 0.7207(3) 0.9577(6)
N4_4 N 0.7129(5) 0.6772(3) 0.9424(6)
C27_4 C 0.1594(5) 0.4255(3) 0.9735(5)
H22_4 H 0.1749 0.3901 0.9746
C28_4 C 0.0831(5) 0.4381(3) 0.9430(5)
H23_4 H 0.0469 0.4112 0.9227
C29_4 C 0.0593(4) 0.4891(3) 0.9419(4)
C30_4 C 0.1144(4) 0.5293(3) 0.9738(4)
H24_4 H 0.0986 0.5643 0.9757
loop_
_geom_bond_atom_site_label_1
_geom_bond_atom_site_label_2
_geom_bond_site_symmetry_1
_geom_bond_site_symmetry_2
P1 F1 1_555 1_555
F2 P1 1_555 1_555
F3 P1 1_555 1_555
F4 P1 1_555 1_555
F5 P1 1_555 1_555
F6 P1 1_555 1_555
F2_2 P1_2 1_555 1_555
F3_2 P1_2 1_555 1_555
F5_2 P1_2 1_555 1_555
P1_3 F1_3 1_555 1_555
F2_3 P1_3 1_555 1_555
F3_3 P1_3 1_555 1_555
F4_3 P1_3 1_555 1_555
F5_3 P1_3 1_555 1_555
F6_3 P1_3 1_555 1_555
F2_4 P1_4 1_555 1_555
F3_4 P1_4 1_555 1_555
F5_4 P1_4 1_555 1_555
P2 F7 1_555 1_555
F8 P2 1_555 1_555
F9 P2 1_555 1_555
F10 P2 1_555 1_555
F11 P2 1_555 1_555
F12 P2 1_555 1_555
P2_2 F7_2 1_555 1_555
F8_2 P2_2 1_555 1_555
F9_2 P2_2 1_555 1_555
F10_2 P2_2 1_555 1_555
F11_2 P2_2 1_555 1_555
F12_2 P2_2 1_555 1_555
P2_3 F7_3 1_555 1_555
F8_3 P2_3 1_555 1_555
F9_3 P2_3 1_555 1_555
F10_3 P2_3 1_555 1_555
F11_3 P2_3 1_555 1_555
F12_3 P2_3 1_555 1_555
P2_4 F7_4 1_555 1_555
F8_4 P2_4 1_555 1_555
F9_4 P2_4 1_555 1_555
F10_4 P2_4 1_555 1_555
F11_4 P2_4 1_555 1_555
F12_4 P2_4 1_555 1_555
C66 C65 1_555 1_555
H58 C66 1_555 1_555
H59 C67 1_555 1_555
C68 C65 1_555 1_555
N4 C68 1_555 1_555
C66 C67 1_555 1_555
C3 C4 1_555 1_555
C5 C4 1_555 1_555
C6 C1 1_555 1_555
H2 C6 1_555 1_555
C15 C5 1_555 1_555
C17 C15 1_555 1_555
H12 C17 1_555 1_555
H13 C17 1_555 1_555
H14 C17 1_555 1_555
C18 C15 1_555 1_555
H15 C18 1_555 1_555
H16 C18 1_555 1_555
H17 C18 1_555 1_555
S8 Ag2 1_555 1_555
C61 S8 1_555 1_555
C62 C61 1_555 1_555
C63 C62 1_555 1_555
H56 C63 1_555 1_555
C64 C63 1_555 1_555
H57 C64 1_555 1_555
O1 Ag2 1_555 1_555
N5 Ag2 1_555 1_555
C5 C6 1_555 1_555
S2 C2 1_555 1_555
C7 S2 1_555 1_555
H3 C7 1_555 1_555
H4 C7 1_555 1_555
C8 C7 1_555 1_555
C9 C8 1_555 1_555
H5 C9 1_555 1_555
C10 C9 1_555 1_555
H6 C10 1_555 1_555
C11 C10 1_555 1_555
C12 C11 1_555 1_555
H7 C12 1_555 1_555
C13 C8 1_555 1_555
H8 C13 1_555 1_555
C14 C11 1_555 1_555
N1 C14 1_555 1_555
C55 S7 1_555 1_555
C56 C55 1_555 1_555
C57 S1 1_555 1_555
C58 C57 1_555 1_555
H52 C58 1_555 1_555
C59 C58 1_555 1_555
C60 C55 1_555 1_555
H53 C60 1_555 1_555
C69 C59 1_555 1_555
C70 C69 1_555 1_555
H60 C70 1_555 1_555
H61 C70 1_555 1_555
H62 C70 1_555 1_555
C71 C69 1_555 1_555
H63 C71 1_555 1_555
H64 C71 1_555 1_555
H65 C71 1_555 1_555
C72 C69 1_555 1_555
H66 C72 1_555 1_555
H67 C72 1_555 1_555
H68 C72 1_555 1_555
H69 C73 1_555 1_555
H71 C73 1_555 1_555
Ag5 N1 1_555 1_555
C12 C13 1_555 1_555
C56 C57 1_555 1_555
C59 C60 1_555 1_555
Ag1 S4 1_555 1_555
H9 C16 1_555 1_555
H10 C16 1_555 1_555
H11 C16 1_555 1_555
C25 S4 1_555 1_555
H20 C25 1_555 1_555
H21 C25 1_555 1_555
C26 C25 1_555 1_555
C27 C26 1_555 1_555
H22 C27 1_555 1_555
C28 C27 1_555 1_555
H23 C28 1_555 1_555
C29 C28 1_555 1_555
C41 C40 1_555 1_555
H36 C42 1_555 1_555
C51 C41 1_555 1_555
C52 C51 1_555 1_555
H43 C52 1_555 1_555
H44 C52 1_555 1_555
H45 C52 1_555 1_555
C53 C51 1_555 1_555
H46 C53 1_555 1_555
H47 C53 1_555 1_555
H48 C53 1_555 1_555
C54 C51 1_555 1_555
H49 C54 1_555 1_555
H50 C54 1_555 1_555
H51 C54 1_555 1_555
N6 Ag1 1_555 1_555
N7 Ag1 1_555 1_555
C41 C42 1_555 1_555
C19 S3 1_555 1_555
C20 C19 1_555 1_555
C21 C20 1_555 1_555
C22 C21 1_555 1_555
H18 C22 1_555 1_555
C23 C22 1_555 1_555
C24 C19 1_555 1_555
H19 C24 1_555 1_555
H24 C30 1_555 1_555
H25 C31 1_555 1_555
N2 C32 1_555 1_555
C33 C23 1_555 1_555
C34 C33 1_555 1_555
H26 C34 1_555 1_555
H27 C34 1_555 1_555
H28 C34 1_555 1_555
C35 C33 1_555 1_555
H29 C35 1_555 1_555
H30 C35 1_555 1_555
H31 C35 1_555 1_555
C36 C33 1_555 1_555
H32 C36 1_555 1_555
H33 C36 1_555 1_555
H34 C36 1_555 1_555
C37 S5 1_555 1_555
C38 C37 1_555 1_555
C39 C38 1_555 1_555
S6 C38 1_555 1_555
C43 S6 1_555 1_555
H37 C43 1_555 1_555
H38 C43 1_555 1_555
C44 C43 1_555 1_555
C45 C44 1_555 1_555
H39 C45 1_555 1_555
C46 C45 1_555 1_555
H40 C46 1_555 1_555
C47 C46 1_555 1_555
C48 C47 1_555 1_555
H41 C48 1_555 1_555
C49 C44 1_555 1_555
H42 C49 1_555 1_555
C50 C47 1_555 1_555
N3 C50 1_555 1_555
Ag3 N3 1_555 1_555
Ag4 N2 1_555 1_555
C21 S5 1_555 1_555
C23 C24 1_555 1_555
C30 C31 1_555 1_555
C48 C49 1_555 1_555
N2_2 C32_2 1_555 1_555
Ag4_2 N2_2 1_555 1_555
Ag3 S4_2 1_555 1_555
Ag5 S1_2 1_555 1_555
S1_2 C1_2 1_555 1_555
C1_2 C2_2 1_555 1_555
C2_2 C3_2 1_555 1_555
C3_2 C4_2 1_555 1_555
C4_2 H1_2 1_555 1_555
C5_2 C4_2 1_555 1_555
C6_2 C1_2 1_555 1_555
H2_2 C6_2 1_555 1_555
S2_2 C2_2 1_555 1_555
C7_2 S2_2 1_555 1_555
H3_2 C7_2 1_555 1_555
H4_2 C7_2 1_555 1_555
C8_2 C7_2 1_555 1_555
C9_2 C8_2 1_555 1_555
H5_2 C9_2 1_555 1_555
C10_2 C9_2 1_555 1_555
H6_2 C10_2 1_555 1_555
C11_2 C10_2 1_555 1_555
C12_2 C11_2 1_555 1_555
H7_2 C12_2 1_555 1_555
C13_2 C8_2 1_555 1_555
H8_2 C13_2 1_555 1_555
C14_2 C11_2 1_555 1_555
N5 C14_2 1_555 1_555
C15_2 C5_2 1_555 1_555
C16_2 C15_2 1_555 1_555
H9_2 C16_2 1_555 1_555
H10_2 C16_2 1_555 1_555
H11_2 C16_2 1_555 1_555
C17_2 C15_2 1_555 1_555
H12_2 C17_2 1_555 1_555
H13_2 C17_2 1_555 1_555
H14_2 C17_2 1_555 1_555
C18_2 C15_2 1_555 1_555
H15_2 C18_2 1_555 1_555
H16_2 C18_2 1_555 1_555
H17_2 C18_2 1_555 1_555
S3_2 C3_2 1_555 1_555
C19_2 S3_2 1_555 1_555
C20_2 C19_2 1_555 1_555
C21_2 C20_2 1_555 1_555
C22_2 C21_2 1_555 1_555
H18_2 C22_2 1_555 1_555
C23_2 C22_2 1_555 1_555
C24_2 C19_2 1_555 1_555
H19_2 C24_2 1_555 1_555
S4_2 C20_2 1_555 1_555
C25_2 S4_2 1_555 1_555
H20_2 C25_2 1_555 1_555
H21_2 C25_2 1_555 1_555
C26_2 C25_2 1_555 1_555
C31_2 C26_2 1_555 1_555
H25_2 C31_2 1_555 1_555
C33_2 C23_2 1_555 1_555
C34_2 C33_2 1_555 1_555
H26_2 C34_2 1_555 1_555
H27_2 C34_2 1_555 1_555
H28_2 C34_2 1_555 1_555
C35_2 C33_2 1_555 1_555
H29_2 C35_2 1_555 1_555
H30_2 C35_2 1_555 1_555
H31_2 C35_2 1_555 1_555
C36_2 C33_2 1_555 1_555
H32_2 C36_2 1_555 1_555
H33_2 C36_2 1_555 1_555
H34_2 C36_2 1_555 1_555
S5_2 Ag3 1_555 1_555
C37_2 S5_2 1_555 1_555
C38_2 C37_2 1_555 1_555
C39_2 C38_2 1_555 1_555
C40_2 C39_2 1_555 1_555
H35_2 C40_2 1_555 1_555
C41_2 C40_2 1_555 1_555
S6_2 C38_2 1_555 1_555
C42_2 C37_2 1_555 1_555
H36_2 C42_2 1_555 1_555
C43_2 S6_2 1_555 1_555
H37_2 C43_2 1_555 1_555
H38_2 C43_2 1_555 1_555
C44_2 C43_2 1_555 1_555
C45_2 C44_2 1_555 1_555
H39_2 C45_2 1_555 1_555
C46_2 C45_2 1_555 1_555
H40_2 C46_2 1_555 1_555
C47_2 C46_2 1_555 1_555
C48_2 C47_2 1_555 1_555
H41_2 C48_2 1_555 1_555
C49_2 C44_2 1_555 1_555
H42_2 C49_2 1_555 1_555
C50_2 C47_2 1_555 1_555
N7 C50_2 1_555 1_555
C51_2 C41_2 1_555 1_555
C52_2 C51_2 1_555 1_555
H43_2 C52_2 1_555 1_555
H44_2 C52_2 1_555 1_555
H45_2 C52_2 1_555 1_555
C53_2 C51_2 1_555 1_555
H46_2 C53_2 1_555 1_555
H47_2 C53_2 1_555 1_555
H48_2 C53_2 1_555 1_555
C54_2 C51_2 1_555 1_555
H49_2 C54_2 1_555 1_555
H50_2 C54_2 1_555 1_555
H51_2 C54_2 1_555 1_555
S7_2 C39_2 1_555 1_555
C55_2 S7_2 1_555 1_555
C56_2 C55_2 1_555 1_555
C57_2 S1_2 1_555 1_555
C58_2 C57_2 1_555 1_555
H52_2 C58_2 1_555 1_555
C59_2 C58_2 1_555 1_555
C60_2 C55_2 1_555 1_555
H53_2 C60_2 1_555 1_555
S8_2 Ag5 1_555 1_555
C61_2 S8_2 1_555 1_555
H54_2 C61_2 1_555 1_555
H55_2 C61_2 1_555 1_555
C62_2 C61_2 1_555 1_555
C63_2 C62_2 1_555 1_555
H56_2 C63_2 1_555 1_555
C64_2 C63_2 1_555 1_555
H57_2 C64_2 1_555 1_555
C65_2 C64_2 1_555 1_555
C66_2 C65_2 1_555 1_555
H58_2 C66_2 1_555 1_555
C67_2 C62_2 1_555 1_555
H59_2 C67_2 1_555 1_555
C68_2 C65_2 1_555 1_555
N4_2 C68_2 1_555 1_555
C69_2 C59_2 1_555 1_555
C70_2 C69_2 1_555 1_555
H60_2 C70_2 1_555 1_555
H61_2 C70_2 1_555 1_555
H62_2 C70_2 1_555 1_555
C71_2 C69_2 1_555 1_555
H63_2 C71_2 1_555 1_555
H64_2 C71_2 1_555 1_555
H65_2 C71_2 1_555 1_555
C72_2 C69_2 1_555 1_555
H66_2 C72_2 1_555 1_555
H67_2 C72_2 1_555 1_555
H68_2 C72_2 1_555 1_555
O1_2 Ag5 1_555 1_555
C73_2 O1_2 1_555 1_555
H69_2 C73_2 1_555 1_555
H70 C73_2 1_555 1_555
H71_2 C73_2 1_555 1_555
N6_2 Ag3 1_555 1_555
C5_2 C6_2 1_555 1_555
C12_2 C13_2 1_555 1_555
C21_2 S5_2 1_555 1_555
C23_2 C24_2 1_555 1_555
C41_2 C42_2 1_555 1_555
C48_2 C49_2 1_555 1_555
C56_2 C57_2 1_555 1_555
C56_2 S8_2 1_555 1_555
C59_2 C60_2 1_555 1_555
C66_2 C67_2 1_555 1_555
C19_3 S3_3 1_555 1_555
C20_3 C19_3 1_555 1_555
C21_3 C20_3 1_555 1_555
C22_3 C21_3 1_555 1_555
H18_3 C22_3 1_555 1_555
C23_3 C22_3 1_555 1_555
C24_3 C19_3 1_555 1_555
H19_3 C24_3 1_555 1_555
H24_2 C30_2 1_555 1_555
H25_3 C31_3 1_555 1_555
N6 C32_3 1_555 1_555
C33_3 C23_3 1_555 1_555
C34_3 C33_3 1_555 1_555
H26_3 C34_3 1_555 1_555
H27_3 C34_3 1_555 1_555
H28_3 C34_3 1_555 1_555
C35_3 C33_3 1_555 1_555
H29_3 C35_3 1_555 1_555
H30_3 C35_3 1_555 1_555
H31_3 C35_3 1_555 1_555
C36_3 C33_3 1_555 1_555
H32_3 C36_3 1_555 1_555
H33_3 C36_3 1_555 1_555
H34_3 C36_3 1_555 1_555
C37_3 S5_3 1_555 1_555
C38_3 C37_3 1_555 1_555
C39_3 C38_3 1_555 1_555
S6_3 C38_3 1_555 1_555
C43_3 S6_3 1_555 1_555
H37_3 C43_3 1_555 1_555
H38_3 C43_3 1_555 1_555
C44_3 C43_3 1_555 1_555
C45_3 C44_3 1_555 1_555
H39_3 C45_3 1_555 1_555
C46_3 C45_3 1_555 1_555
H40_3 C46_3 1_555 1_555
C47_3 C46_3 1_555 1_555
C48_3 C47_3 1_555 1_555
H41_3 C48_3 1_555 1_555
C49_3 C44_3 1_555 1_555
H42_3 C49_3 1_555 1_555
C50_3 C47_3 1_555 1_555
N3_2 C50_3 1_555 1_555
Ag4_2 N3_2 1_555 1_555
C21_3 S5_3 1_555 1_555
C23_3 C24_3 1_555 1_555
C30_2 C31_3 1_555 1_555
C48_3 C49_3 1_555 1_555
Ag4 S4_3 1_555 1_555
H9_3 C16_3 1_555 1_555
H10_3 C16_3 1_555 1_555
H11_3 C16_3 1_555 1_555
C25_3 S4_3 1_555 1_555
H20_3 C25_3 1_555 1_555
H21_3 C25_3 1_555 1_555
C26_3 C25_3 1_555 1_555
C27_2 C26_3 1_555 1_555
H22_2 C27_2 1_555 1_555
C28_2 C27_2 1_555 1_555
H23_2 C28_2 1_555 1_555
C29_2 C28_2 1_555 1_555
C41_3 C40_3 1_555 1_555
H36_3 C42_3 1_555 1_555
C51_3 C41_3 1_555 1_555
C52_3 C51_3 1_555 1_555
H43_3 C52_3 1_555 1_555
H44_3 C52_3 1_555 1_555
H45_3 C52_3 1_555 1_555
C53_3 C51_3 1_555 1_555
H46_3 C53_3 1_555 1_555
H47_3 C53_3 1_555 1_555
H48_3 C53_3 1_555 1_555
C54_3 C51_3 1_555 1_555
H49_3 C54_3 1_555 1_555
H50_3 C54_3 1_555 1_555
H51_3 C54_3 1_555 1_555
N7_2 Ag4 1_555 1_555
C41_3 C42_3 1_555 1_555
S2_3 C2_3 1_555 1_555
C7_3 S2_3 1_555 1_555
H3_3 C7_3 1_555 1_555
H4_3 C7_3 1_555 1_555
C8_3 C7_3 1_555 1_555
C9_3 C8_3 1_555 1_555
H5_3 C9_3 1_555 1_555
C10_3 C9_3 1_555 1_555
H6_3 C10_3 1_555 1_555
C11_3 C10_3 1_555 1_555
C12_3 C11_3 1_555 1_555
H7_3 C12_3 1_555 1_555
C13_3 C8_3 1_555 1_555
H8_3 C13_3 1_555 1_555
C14_3 C11_3 1_555 1_555
N1_2 C14_3 1_555 1_555
C55_3 S7_3 1_555 1_555
C56_3 C55_3 1_555 1_555
C57_3 S1_3 1_555 1_555
C58_3 C57_3 1_555 1_555
H52_3 C58_3 1_555 1_555
C59_3 C58_3 1_555 1_555
C60_3 C55_3 1_555 1_555
H53_3 C60_3 1_555 1_555
C69_3 C59_3 1_555 1_555
C70_3 C69_3 1_555 1_555
H60_3 C70_3 1_555 1_555
H61_3 C70_3 1_555 1_555
H62_3 C70_3 1_555 1_555
C71_3 C69_3 1_555 1_555
H63_3 C71_3 1_555 1_555
H64_3 C71_3 1_555 1_555
H65_3 C71_3 1_555 1_555
C72_3 C69_3 1_555 1_555
H66_3 C72_3 1_555 1_555
H67_3 C72_3 1_555 1_555
H68_3 C72_3 1_555 1_555
H69_3 C73_3 1_555 1_555
H71_3 C73_3 1_555 1_555
Ag5_2 N1_2 1_555 1_555
C12_3 C13_3 1_555 1_555
C56_3 C57_3 1_555 1_555
C59_3 C60_3 1_555 1_555
C3_3 C4_3 1_555 1_555
C5_3 C4_3 1_555 1_555
C6_3 C1_3 1_555 1_555
H2_3 C6_3 1_555 1_555
C15_3 C5_3 1_555 1_555
C17_3 C15_3 1_555 1_555
H12_3 C17_3 1_555 1_555
H13_3 C17_3 1_555 1_555
H14_3 C17_3 1_555 1_555
C18_3 C15_3 1_555 1_555
H15_3 C18_3 1_555 1_555
H16_3 C18_3 1_555 1_555
H17_3 C18_3 1_555 1_555
S8_3 Ag2_2 1_555 1_555
C61_3 S8_3 1_555 1_555
C62_3 C61_3 1_555 1_555
C63_3 C62_3 1_555 1_555
H56_3 C63_3 1_555 1_555
C64_3 C63_3 1_555 1_555
H57_3 C64_3 1_555 1_555
O1_3 Ag2_2 1_555 1_555
N5_2 Ag2_2 1_555 1_555
C5_3 C6_3 1_555 1_555
Ag4_2 S4_4 1_555 1_555
Ag5_2 S1_4 1_555 1_555
S1_4 C1_4 1_555 1_555
C1_4 C2_4 1_555 1_555
C2_4 C3_4 1_555 1_555
C3_4 C4_4 1_555 1_555
C4_4 H1_4 1_555 1_555
C5_4 C4_4 1_555 1_555
C6_4 C1_4 1_555 1_555
H2_4 C6_4 1_555 1_555
S2_4 C2_4 1_555 1_555
C7_4 S2_4 1_555 1_555
H3_4 C7_4 1_555 1_555
H4_4 C7_4 1_555 1_555
C8_4 C7_4 1_555 1_555
C9_4 C8_4 1_555 1_555
H5_4 C9_4 1_555 1_555
C10_4 C9_4 1_555 1_555
H6_4 C10_4 1_555 1_555
C11_4 C10_4 1_555 1_555
C12_4 C11_4 1_555 1_555
H7_4 C12_4 1_555 1_555
C13_4 C8_4 1_555 1_555
H8_4 C13_4 1_555 1_555
C14_4 C11_4 1_555 1_555
N5_2 C14_4 1_555 1_555
C15_4 C5_4 1_555 1_555
C16_4 C15_4 1_555 1_555
H9_4 C16_4 1_555 1_555
H10_4 C16_4 1_555 1_555
H11_4 C16_4 1_555 1_555
C17_4 C15_4 1_555 1_555
H12_4 C17_4 1_555 1_555
H13_4 C17_4 1_555 1_555
H14_4 C17_4 1_555 1_555
C18_4 C15_4 1_555 1_555
H15_4 C18_4 1_555 1_555
H16_4 C18_4 1_555 1_555
H17_4 C18_4 1_555 1_555
S3_4 C3_4 1_555 1_555
C19_4 S3_4 1_555 1_555
C20_4 C19_4 1_555 1_555
C21_4 C20_4 1_555 1_555
C22_4 C21_4 1_555 1_555
H18_4 C22_4 1_555 1_555
C23_4 C22_4 1_555 1_555
C24_4 C19_4 1_555 1_555
H19_4 C24_4 1_555 1_555
S4_4 C20_4 1_555 1_555
C25_4 S4_4 1_555 1_555
H20_4 C25_4 1_555 1_555
H21_4 C25_4 1_555 1_555
C26_4 C25_4 1_555 1_555
C31_4 C26_4 1_555 1_555
H25_4 C31_4 1_555 1_555
C33_4 C23_4 1_555 1_555
C34_4 C33_4 1_555 1_555
H26_4 C34_4 1_555 1_555
H27_4 C34_4 1_555 1_555
H28_4 C34_4 1_555 1_555
C35_4 C33_4 1_555 1_555
H29_4 C35_4 1_555 1_555
H30_4 C35_4 1_555 1_555
H31_4 C35_4 1_555 1_555
C36_4 C33_4 1_555 1_555
H32_4 C36_4 1_555 1_555
H33_4 C36_4 1_555 1_555
H34_4 C36_4 1_555 1_555
S5_4 Ag4_2 1_555 1_555
C37_4 S5_4 1_555 1_555
C38_4 C37_4 1_555 1_555
C39_4 C38_4 1_555 1_555
C40_4 C39_4 1_555 1_555
H35_4 C40_4 1_555 1_555
C41_4 C40_4 1_555 1_555
S6_4 C38_4 1_555 1_555
C42_4 C37_4 1_555 1_555
H36_4 C42_4 1_555 1_555
C43_4 S6_4 1_555 1_555
H37_4 C43_4 1_555 1_555
H38_4 C43_4 1_555 1_555
C44_4 C43_4 1_555 1_555
C45_4 C44_4 1_555 1_555
H39_4 C45_4 1_555 1_555
C46_4 C45_4 1_555 1_555
H40_4 C46_4 1_555 1_555
C47_4 C46_4 1_555 1_555
C48_4 C47_4 1_555 1_555
H41_4 C48_4 1_555 1_555
C49_4 C44_4 1_555 1_555
H42_4 C49_4 1_555 1_555
C50_4 C47_4 1_555 1_555
N7_2 C50_4 1_555 1_555
C51_4 C41_4 1_555 1_555
C52_4 C51_4 1_555 1_555
H43_4 C52_4 1_555 1_555
H44_4 C52_4 1_555 1_555
H45_4 C52_4 1_555 1_555
C53_4 C51_4 1_555 1_555
H46_4 C53_4 1_555 1_555
H47_4 C53_4 1_555 1_555
H48_4 C53_4 1_555 1_555
C54_4 C51_4 1_555 1_555
H49_4 C54_4 1_555 1_555
H50_4 C54_4 1_555 1_555
H51_4 C54_4 1_555 1_555
S7_4 C39_4 1_555 1_555
C55_4 S7_4 1_555 1_555
C56_4 C55_4 1_555 1_555
C57_4 S1_4 1_555 1_555
C58_4 C57_4 1_555 1_555
H52_4 C58_4 1_555 1_555
C59_4 C58_4 1_555 1_555
C60_4 C55_4 1_555 1_555
H53_4 C60_4 1_555 1_555
S8_4 Ag5_2 1_555 1_555
C61_4 S8_4 1_555 1_555
H54_3 C61_4 1_555 1_555
H55_3 C61_4 1_555 1_555
C62_4 C61_4 1_555 1_555
C63_4 C62_4 1_555 1_555
H56_4 C63_4 1_555 1_555
C64_4 C63_4 1_555 1_555
H57_4 C64_4 1_555 1_555
C65_3 C64_4 1_555 1_555
C66_3 C65_3 1_555 1_555
H58_3 C66_3 1_555 1_555
C67_3 C62_4 1_555 1_555
H59_3 C67_3 1_555 1_555
C68_3 C65_3 1_555 1_555
N4_3 C68_3 1_555 1_555
C69_4 C59_4 1_555 1_555
C70_4 C69_4 1_555 1_555
H60_4 C70_4 1_555 1_555
H61_4 C70_4 1_555 1_555
H62_4 C70_4 1_555 1_555
C71_4 C69_4 1_555 1_555
H63_4 C71_4 1_555 1_555
H64_4 C71_4 1_555 1_555
H65_4 C71_4 1_555 1_555
C72_4 C69_4 1_555 1_555
H66_4 C72_4 1_555 1_555
H67_4 C72_4 1_555 1_555
H68_4 C72_4 1_555 1_555
O1_4 Ag5_2 1_555 1_555
C73_4 O1_4 1_555 1_555
H69_4 C73_4 1_555 1_555
H70_2 C73_4 1_555 1_555
H71_4 C73_4 1_555 1_555
C5_4 C6_4 1_555 1_555
C12_4 C13_4 1_555 1_555
C21_4 S5_4 1_555 1_555
C23_4 C24_4 1_555 1_555
C41_4 C42_4 1_555 1_555
C48_4 C49_4 1_555 1_555
C56_4 C57_4 1_555 1_555
C56_4 S8_4 1_555 1_555
C59_4 C60_4 1_555 1_555
C66_3 C67_3 1_555 1_555
N6_2 C32_4 1_555 1_555
H22_3 C27_3 1_555 1_555
C28_3 C27_3 1_555 1_555
H23_3 C28_3 1_555 1_555
C29_3 C28_3 1_555 1_555
C30_3 C29_3 1_555 1_555
H24_3 C30_3 1_555 1_555
C66_4 C65_4 1_555 1_555
H58_4 C66_4 1_555 1_555
H59_4 C67_4 1_555 1_555
C68_4 C65_4 1_555 1_555
N4_4 C68_4 1_555 1_555
C66_4 C67_4 1_555 1_555
H22_4 C27_4 1_555 1_555
C28_4 C27_4 1_555 1_555
H23_4 C28_4 1_555 1_555
C29_4 C28_4 1_555 1_555
C30_4 C29_4 1_555 1_555
H24_4 C30_4 1_555 1_555

#END
