
###############################################################################
#
# This file contains modified crystal structure data generated from the
# MOF subset of the Cambridge Structural Database (CSD) v543 
# hosted by the Cambridge Crystallographic Data Centre (CCDC).
#
# This work is licensed under the Creative Commons
# Attribution-NonCommercial-ShareAlike 4.0 International License.
# To view a copy of this license, visit
# http://creativecommons.org/licenses/by-nc-sa/4.0/
# or send a letter to
# Creative Commons, PO Box 1866, Mountain View, CA 94042, USA.
#
# CIF created using the CSD Python API on 29 September 2022
# The structure has been converted into the P1 space group
# The structure has a 3D framework
# The original CSD entry RUYNIK is in the triclinic crystal system
# The original CSD entry RUYNIK is in a Sohncke space group
# The framework has been calculated to contain at least 10.0% void space
# The void calculation uses a probe of radius 1.32A, grid spacing 0.4
# H atom positions have been added when not included in the experimental data
#
###############################################################################

data_RUYNIK
_chemical_formula_moiety         '(C51 H33 Cd4 N13 O44)n'
_symmetry_cell_setting           triclinic
_symmetry_space_group_name_H-M   'P 1'
_symmetry_Int_Tables_number      1
_space_group_name_Hall           'P 1'
loop_
_symmetry_equiv_pos_site_id
_symmetry_equiv_pos_as_xyz
1 x,y,z
_cell_length_a                   12.177(5)
_cell_length_b                   13.175(5)
_cell_length_c                   15.814(5)
_cell_angle_alpha                66.028(5)
_cell_angle_beta                 87.249(5)
_cell_angle_gamma                89.986(5)
_cell_volume                     2315.05
loop_
_atom_site_label
_atom_site_type_symbol
_atom_site_fract_x
_atom_site_fract_y
_atom_site_fract_z
_atom_site_U_iso_or_equiv
_atom_site_thermal_displace_type
C12 C 0.0642(10) 0.1953(12) 0.1060(9) 0.0396 Uani
C13 C 0.0536(10) 0.1913(11) 0.1938(9) 0.0334 Uani
H7 H 0.1005 0.2341 0.2115 0.0400 Uiso
N4 N 0.1523(10) 0.2687(12) 0.0428(8) 0.0549 Uani
O11 O 0.1922(9) 0.3379(9) 0.0649(8) 0.0620 Uani
O15 O 0.0383(7) 0.1773(7) 0.3708(6) 0.0363 Uani
Cd10 Cd 0.02208(6) 0.14372(6) 0.52316(5) 0.0236 Uani
C1 C 0.2565(9) 0.3014(9) 0.4472(8) 0.0247 Uani
C2 C 0.2872(13) 0.4123(13) 0.3707(10) 0.0572 Uani
H1 H 0.2300 0.4656 0.3683 0.0680 Uiso
C3 C 0.2974(13) 0.4024(13) 0.2800(10) 0.0572 Uani
H2 H 0.3166 0.4737 0.2316 0.0850 Uiso
H3 H 0.2285 0.3767 0.2680 0.0850 Uiso
H4 H 0.3535 0.3505 0.2821 0.0850 Uiso
C4 C 0.0930(10) 0.1521(9) 0.7051(8) 0.0309 Uani
C5 C 0.0617(9) 0.1391(10) 0.8012(8) 0.0281 Uani
C6 C 0.1218(12) 0.0777(12) 0.8708(9) 0.0452 Uani
H5 H 0.1835 0.0421 0.8602 0.0540 Uiso
C7 C 0.0903(11) 0.0669(11) 0.9631(9) 0.0398 Uani
C8 C 0.0131(9) 0.1268(10) 0.9825(8) 0.0279 Uani
C49 C 0.5194(12) 0.0624(10) 0.7159(9) 0.0404 Uani
H21 H 0.5636 0.0804 0.6620 0.0480 Uiso
C50 C 0.6849(12) 0.0937(14) 0.7889(12) 0.0651 Uani
H22 H 0.7035 0.0879 0.8489 0.0980 Uiso
H23 H 0.6976 0.1688 0.7443 0.0980 Uiso
H24 H 0.7296 0.0446 0.7715 0.0980 Uiso
C51 C 0.5031(13) 0.0364(17) 0.8772(11) 0.0722 Uani
H25 H 0.5522 0.0397 0.9218 0.1080 Uiso
H27 H 0.4461 0.0895 0.8688 0.1080 Uiso
N13 N 0.5621(9) 0.0613(9) 0.7919(7) 0.0394 Uani
O1 O 0.3386(7) 0.2416(6) 0.4895(5) 0.0265 Uani
O2 O 0.1583(7) 0.2798(6) 0.4657(5) 0.0323 Uani
O3 O 0.3907(7) 0.4497(8) 0.3921(8) 0.0618 Uani
H28 H 0.4053 0.5248 0.3757 0.0740 Uiso
O4 O 0.1881(8) 0.1204(9) 0.6951(6) 0.0536 Uani
O5 O 0.0236(6) 0.1870(6) 0.6464(5) 0.0319 Uani
O10 O 0.1712(12) 0.2659(13) 0.9716(8) 0.1002 Uani
O29 O 0.1471(6) 0.0062(6) 0.5528(6) 0.0318 Uani
O43 O 0.4192(7) 0.0390(8) 0.7170(6) 0.0481 Uani
O44 O 0.4759(8) 0.3110(8) 0.6126(6) 0.0468 Uani
O45 O 0.6043(7) 0.4891(7) 0.4382(6) 0.0423 Uani
Cd1 Cd 0.52000(7) 0.31511(7) 0.46936(6) 0.0362 Uani
Cd2 Cd 0.30249(6) 0.07061(6) 0.60559(5) 0.0275 Uani
O49 O 0.5844(8) 0.3392(7) 0.3298(6) 0.0442 Uani
O51 O 0.6919(6) 0.2582(7) 0.5332(6) 0.0357 Uani
O53 O 0.5478(6) 0.1158(6) 0.4895(5) 0.0248 Uani
O54 O 0.3992(7) 0.0008(7) 0.5201(7) 0.0424 Uani
H30 H 0.582012 0.513362 0.48821 . .
H31 H 0.685473 0.482289 0.435378 . .
H32 H 0.457894 0.23339 0.656713 . .
H33 H 0.539329 0.339561 0.634278 . .
C32 C 0.1497(11) 0.9120(11) 0.6217(10) 0.0387 Uani
C33 C 0.0750(9) 0.8192(9) 0.6213(8) 0.0297 Uani
C34 C 0.0128(10) 0.8328(9) 0.5496(8) 0.0315 Uani
H13 H 0.0084 0.9022 0.5009 0.0380 Uiso
C37 C 0.0220(10) 0.6272(10) 0.6914(8) 0.0344 Uani
C38 C 0.0751(10) 0.7134(12) 0.6936(9) 0.0412 Uani
H14 H 0.1143 0.7033 0.7454 0.0490 Uiso
H26 H 0.4709 0.9632 0.8990 0.1080 Uiso
N1 N 0.0352(9) 0.5175(8) 0.7641(7) 0.0350 Uani
N11 N 0.0914(9) 0.5362(9) 0.5182(8) 0.0412 Uani
O28 O 0.2194(7) 0.8911(7) 0.6809(7) 0.0460 Uani
O30 O 0.1187(8) 0.5043(7) 0.8132(7) 0.0518 Uani
O36 O 0.1537(9) 0.5191(12) 0.5817(9) 0.0851 Uani
O37 O 0.1163(11) 0.5788(12) 0.4419(9) 0.0885 Uani
C11 C 0.9953(10) 0.1301(10) 0.0746(9) 0.0344 Uani
C14 C 0.9739(9) 0.1245(9) 0.2562(8) 0.0294 Uani
C15 C 0.9030(10) 0.0578(9) 0.2318(8) 0.0295 Uani
H8 H 0.8502 0.0105 0.2738 0.0350 Uiso
C16 C 0.9164(9) 0.0668(10) 0.1410(8) 0.0285 Uani
C17 C 0.9688(9) 0.1209(11) 0.3529(8) 0.0315 Uani
O12 O 0.7984(7) 0.0355(8) 0.0427(6) 0.0495 Uani
O14 O 0.8950(7) 0.0545(6) 0.4106(5) 0.0334 Uani
Cd13 Cd 0.73680(6) 0.12133(6) 0.45528(5) 0.0222 Uani
C9 C 0.9503(10) 0.1941(10) 0.9056(8) 0.0330 Uani
C10 C 0.9745(10) 0.1961(9) 0.8184(8) 0.0309 Uani
H6 H 0.9306 0.2372 0.7701 0.0370 Uiso
C46 C 0.4965(9) 0.0330(10) 0.4889(7) 0.0261 Uani
N3 N 0.8626(7) 0.2588(7) 0.9206(6) 0.0227 Uani
O8 O 0.7864(7) 0.2801(7) 0.8647(6) 0.0413 Uani
O9 O 0.8613(7) 0.2906(6) 0.9819(5) 0.0294 Uani
O16 O 0.9199(6) 0.0033(6) 0.6338(5) 0.0333 Uani
O42 O 0.6535(6) 0.0105(7) 0.3935(6) 0.0369 Uani
O48 O 0.7460(6) 0.2621(6) 0.3137(5) 0.0293 Uani
O52 O 0.8613(6) 0.2414(6) 0.4841(5) 0.0276 Uani
C25 C 0.7405(12) 0.6006(9) 0.0157(8) 0.0391 Uani
C26 C 0.6526(13) 0.6052(12) 0.0741(10) 0.0460 Uani
C27 C 0.6301(11) 0.5163(11) 0.1627(8) 0.0401 Uani
H11 H 0.5703 0.5182 0.2009 0.0480 Uiso
C28 C 0.6999(11) 0.4277(10) 0.1897(8) 0.0380 Uani
C29 C 0.7843(10) 0.4218(9) 0.1343(8) 0.0315 Uani
H12 H 0.8294 0.3604 0.1537 0.0380 Uiso
C30 C 0.8037(10) 0.5068(10) 0.0492(8) 0.0339 Uani
C31 C 0.6734(11) 0.3321(10) 0.2860(8) 0.0380 Uani
N5 N 0.8416(11) 0.9933(9) 0.1177(8) 0.0514 Uani
N7 N 0.5752(14) 0.6957(9) 0.0535(9) 0.0631 Uani
O13 O 0.8224(12) 0.9004(9) 0.1764(8) 0.0948 Uani
O19 O 0.924(2) 0.7043(12) 0.0436(10) 0.1744 Uani
O22 O 0.6183(15) 0.7917(12) 0.0136(9) 0.1105 Uani
O23 O 0.4812(14) 0.6822(13) 0.0654(11) 0.1045 Uani
O25 O 0.9731(9) 0.4492(8) 0.0325(7) 0.0570 Uani
C18 C 0.8266(9) 0.9660(8) 0.6504(7) 0.0249 Uani
C19 C 0.8005(9) 0.8693(8) 0.7463(7) 0.0249 Uani
C20 C 0.8625(10) 0.8643(9) 0.8219(8) 0.0321 Uani
H9 H 0.9190 0.9157 0.8133 0.0390 Uiso
C21 C 0.8376(12) 0.7845(12) 0.9052(8) 0.0434 Uani
C22 C 0.7593(12) 0.6989(9) 0.9233(8) 0.0391 Uani
C23 C 0.7026(10) 0.7042(8) 0.8490(8) 0.0319 Uani
C24 C 0.7203(10) 0.7959(9) 0.7598(8) 0.0319 Uani
H10 H 0.6753 0.8035 0.7118 0.0380 Uiso
C35 C 0.9546(11) 0.7417(10) 0.5490(10) 0.0397 Uani
C36 C 0.9583(10) 0.6354(9) 0.6189(8) 0.0298 Uani
C39 C 0.9164(10) 0.5391(9) 0.6044(9) 0.0336 Uani
C40 C 0.9824(11) 0.4979(9) 0.5510(9) 0.0342 Uani
C41 C 0.9406(9) 0.4103(9) 0.5252(8) 0.0303 Uani
H15 H 0.9859 0.3807 0.4923 0.0360 Uiso
C42 C 0.8318(9) 0.3721(9) 0.5506(7) 0.0239 Uani
C43 C 0.7684(10) 0.4066(9) 0.6092(8) 0.0296 Uani
H16 H 0.7003 0.3728 0.6335 0.0350 Uiso
C44 C 0.8050(9) 0.4878(10) 0.6304(8) 0.0295 Uani
C45 C 0.7930(9) 0.2808(9) 0.5213(7) 0.0226 Uani
C47 C 0.5562(10) 0.9631(10) 0.4410(9) 0.0341 Uani
H17 H 0.5067 0.9554 0.3968 0.0410 Uiso
C48 C 0.5757(12) 0.8482(10) 0.5141(11) 0.0488 Uani
H18 H 0.6119 0.8044 0.4857 0.0740 Uiso
H19 H 0.5065 0.8134 0.5429 0.0740 Uiso
H20 H 0.6211 0.8540 0.5600 0.0740 Uiso
N6 N 0.8945(12) 0.7925(11) 0.9839(8) 0.0614 Uani
N8 N 0.8993(10) 0.5039(9) 0.9925(8) 0.0435 Uani
N9 N 0.6112(10) 0.6255(9) 0.8549(7) 0.0430 Uani
N10 N 0.7366(9) 0.5238(10) 0.6918(8) 0.0424 Uani
N12 N 0.8910(10) 0.7582(8) 0.4687(9) 0.0410 Uani
O17 O 0.7443(6) 0.9871(6) 0.5974(5) 0.0298 Uani
O18 O 0.9314(13) 0.8765(8) 0.9753(7) 0.0877 Uani
O20 O 0.6186(10) 0.5308(8) 0.9134(7) 0.0641 Uani
O21 O 0.5405(7) 0.6583(8) 0.8021(7) 0.0461 Uani
O24 O 0.9041(8) 0.5513(7) 0.9088(6) 0.0459 Uani
O31 O 0.9658(9) 0.4445(7) 0.7790(6) 0.0537 Uani
O32 O 0.9414(10) 0.8196(9) 0.3915(8) 0.0651 Uani
O33 O 0.8038(8) 0.7123(8) 0.4801(9) 0.0700 Uani
O34 O 0.7602(8) 0.6056(10) 0.7028(8) 0.0664 Uani
O35 O 0.6497(10) 0.4766(10) 0.7184(11) 0.1000 Uani
H29 H 0.6825 0.9994 0.3425 0.0440 Uiso
N2 N 0.1587(13) 0.9889(14) 0.0386(9) 0.0758 Uani
O6 O 0.2520(11) 0.9719(15) 0.0175(9) 0.1106 Uani
O7 O 0.1130(11) 0.9406(10) 0.1119(8) 0.0750 Uani
loop_
_atom_site_aniso_label
_atom_site_aniso_U_11
_atom_site_aniso_U_22
_atom_site_aniso_U_33
_atom_site_aniso_U_23
_atom_site_aniso_U_13
_atom_site_aniso_U_12
C12 0.035 0.058 0.027 -0.019 0.002 -0.019
C13 0.033 0.046 0.029 -0.023 -0.003 -0.006
N4 0.053 0.08 0.025 -0.015 0.003 -0.022
O11 0.062 0.074 0.052 -0.03 0.019 -0.025
O15 0.041 0.05 0.021 -0.018 0.003 -0.021
Cd10 0.0287 0.0299 0.0118 -0.0083 0 -0.0077
C1 0.026 0.026 0.021 -0.01 0.012 -0.009
C2 0.061 0.059 0.028 0.006 0.003 0.023
C3 0.061 0.059 0.028 0.006 0.003 0.023
C4 0.034 0.026 0.027 -0.005 0 -0.002
C5 0.033 0.038 0.012 -0.008 -0.008 -0.009
C6 0.065 0.05 0.036 -0.035 0.012 -0.002
C7 0.049 0.05 0.027 -0.021 -0.015 0.014
C8 0.025 0.04 0.023 -0.017 -0.002 0.008
C49 0.071 0.025 0.031 -0.015 -0.023 0.003
C50 0.057 0.061 0.075 -0.023 -0.025 -0.015
C51 0.053 0.121 0.032 -0.022 0.014 -0.013
N13 0.042 0.042 0.032 -0.013 0 -0.006
O1 0.039 0.014 0.017 0.003 0.002 -0.006
O2 0.039 0.033 0.022 -0.008 -0.003 -0.01
O3 0.036 0.036 0.098 -0.011 -0.008 -0.019
O4 0.066 0.084 0.015 -0.024 -0.006 0.013
O5 0.037 0.035 0.021 -0.009 0.001 -0.003
O10 0.123 0.148 0.032 -0.043 0.034 -0.075
O29 0.037 0.029 0.029 -0.012 0.004 -0.007
O43 0.043 0.053 0.04 -0.01 -0.006 -0.017
O44 0.052 0.052 0.036 -0.017 -0.007 -0.003
O45 0.049 0.031 0.04 -0.007 -0.007 -0.003
Cd1 0.0347 0.0407 0.0286 -0.0098 0.002 -0.0056
Cd2 0.0301 0.0262 0.0237 -0.0078 0.0008 -0.0068
O49 0.055 0.049 0.014 0.001 0.01 -0.017
O51 0.031 0.033 0.044 -0.017 0.003 -0.007
O53 0.027 0.029 0.024 -0.016 -0.006 -0.004
O54 0.029 0.038 0.065 -0.028 0.016 -0.015
C32 0.041 0.03 0.04 -0.01 0.008 -0.008
C33 0.038 0.026 0.026 -0.011 -0.005 -0.008
C34 0.052 0.017 0.032 -0.018 0.011 -0.014
C37 0.035 0.041 0.029 -0.018 0.016 -0.026
C38 0.034 0.065 0.024 -0.017 -0.005 0.009
N1 0.052 0.029 0.023 -0.01 0.001 -0.012
N11 0.05 0.046 0.04 -0.032 0.014 -0.035
O28 0.051 0.039 0.04 -0.007 -0.011 -0.017
O30 0.06 0.034 0.055 -0.012 0.002 -0.007
O36 0.047 0.136 0.074 -0.045 0.002 -0.031
O37 0.085 0.116 0.058 -0.031 0.019 -0.059
C11 0.038 0.036 0.028 -0.011 -0.01 0.008
C14 0.037 0.025 0.027 -0.012 0.003 -0.008
C15 0.038 0.024 0.019 -0.002 0.008 -0.002
C16 0.02 0.037 0.018 0 -0.004 -0.008
C17 0.021 0.052 0.018 -0.011 0.002 0
O12 0.053 0.065 0.018 -0.003 -0.011 -0.03
O14 0.046 0.031 0.017 -0.004 0.004 0.005
Cd13 0.0259 0.0229 0.015 -0.005 -0.0005 -0.004
C9 0.039 0.041 0.017 -0.009 -0.007 -0.015
C10 0.05 0.017 0.021 -0.003 -0.001 -0.005
C46 0.032 0.042 0.006 -0.011 -0.006 0.008
N3 0.036 0.022 0.007 -0.003 0.001 -0.006
O8 0.044 0.048 0.035 -0.019 -0.012 -0.007
O9 0.05 0.023 0.014 -0.006 -0.005 0.003
O16 0.029 0.033 0.024 0.002 0.006 -0.01
O42 0.027 0.054 0.044 -0.036 0.011 -0.008
O48 0.037 0.03 0.013 0 -0.007 -0.006
O52 0.033 0.022 0.026 -0.007 -0.009 -0.002
C25 0.082 0.021 0.01 -0.002 -0.001 -0.01
C26 0.076 0.039 0.022 -0.011 -0.005 0.021
C27 0.059 0.042 0.013 -0.005 0 -0.008
C28 0.055 0.036 0.012 0.002 -0.005 -0.012
C29 0.043 0.027 0.013 0.005 -0.014 0.003
C30 0.031 0.036 0.025 -0.003 0.005 -0.008
C31 0.055 0.036 0.012 0.002 -0.005 -0.012
N5 0.083 0.041 0.026 -0.008 -0.014 -0.027
N7 0.098 0.025 0.036 0.018 0.004 0.021
O13 0.153 0.05 0.064 0 -0.054 -0.043
O19 0.34 0.076 0.062 0.029 -0.109 -0.101
O22 0.188 0.08 0.047 -0.014 0.042 0.025
O23 0.092 0.112 0.106 -0.038 -0.031 0.062
O25 0.083 0.043 0.047 -0.022 0.013 -0.018
C18 0.037 0.011 0.016 0.006 -0.005 0.006
C19 0.037 0.011 0.016 0.006 -0.005 0.006
C20 0.042 0.023 0.025 -0.003 -0.005 -0.01
C21 0.063 0.055 0.009 -0.009 -0.008 -0.012
C22 0.082 0.021 0.01 -0.002 -0.001 -0.01
C23 0.055 0.008 0.034 -0.01 -0.001 0.001
C24 0.051 0.028 0.012 -0.003 -0.004 -0.019
C35 0.051 0.029 0.055 -0.032 -0.016 0.012
C36 0.044 0.021 0.032 -0.018 -0.006 -0.006
C39 0.052 0.016 0.037 -0.015 -0.004 -0.005
C40 0.058 0.021 0.03 -0.017 -0.001 -0.016
C41 0.028 0.03 0.035 -0.016 0.003 -0.008
C42 0.031 0.019 0.017 -0.002 -0.006 -0.004
C43 0.036 0.026 0.035 -0.022 0.008 -0.015
C44 0.031 0.035 0.024 -0.014 0.003 -0.001
C45 0.022 0.029 0.009 0 0.001 0.001
C47 0.041 0.034 0.035 -0.023 0.008 0.002
C48 0.059 0.034 0.064 -0.029 -0.021 0.026
N6 0.101 0.048 0.026 -0.004 -0.019 -0.029
N8 0.065 0.026 0.035 -0.007 -0.01 0.008
N9 0.06 0.041 0.018 -0.002 0.001 -0.016
N10 0.037 0.06 0.048 -0.042 0.014 -0.017
N12 0.06 0.019 0.056 -0.026 -0.017 0.007
O17 0.037 0.018 0.024 0.002 0.001 -0.007
O18 0.187 0.033 0.038 -0.006 -0.035 -0.028
O20 0.113 0.037 0.03 -0.001 -0.004 -0.042
O21 0.039 0.054 0.042 -0.016 -0.004 -0.016
O24 0.075 0.034 0.025 -0.009 0.005 0
O31 0.096 0.037 0.028 -0.014 0.004 -0.042
O32 0.096 0.057 0.053 -0.031 -0.026 0
O33 0.056 0.04 0.112 -0.025 -0.039 0
O34 0.051 0.085 0.102 -0.08 0.016 -0.013
O35 0.083 0.08 0.181 -0.106 0.066 -0.04
N2 0.085 0.129 0.021 -0.036 -0.025 0.061
O6 0.071 0.204 0.047 -0.038 -0.03 0.071
O7 0.108 0.089 0.031 -0.025 -0.028 0.049
loop_
_geom_bond_atom_site_label_1
_geom_bond_atom_site_label_2
_geom_bond_site_symmetry_1
_geom_bond_site_symmetry_2
C13 C12 1_555 1_555
H7 C13 1_555 1_555
N4 C12 1_555 1_555
O11 N4 1_555 1_555
Cd10 O15 1_555 1_555
C1 C2 1_555 1_555
C2 H1 1_555 1_555
C3 C2 1_555 1_555
H2 C3 1_555 1_555
H3 C3 1_555 1_555
H4 C3 1_555 1_555
C4 C5 1_555 1_555
C5 C6 1_555 1_555
C6 H5 1_555 1_555
C7 C6 1_555 1_555
C8 C7 1_555 1_555
C49 H21 1_555 1_555
C50 H22 1_555 1_555
H23 C50 1_555 1_555
H24 C50 1_555 1_555
C51 H25 1_555 1_555
H27 C51 1_555 1_555
N13 C49 1_555 1_555
O1 C1 1_555 1_555
O2 C1 1_555 1_555
O3 C2 1_555 1_555
H28 O3 1_555 1_555
O4 C4 1_555 1_555
O5 C4 1_555 1_555
O43 C49 1_555 1_555
O44 Cd1 1_555 1_555
O45 Cd1 1_555 1_555
Cd1 O1 1_555 1_555
Cd2 O1 1_555 1_555
Cd10 O2 1_555 1_555
O49 Cd1 1_555 1_555
O51 Cd1 1_555 1_555
O53 Cd1 1_555 1_555
O54 Cd2 1_555 1_555
C50 N13 1_555 1_555
C51 N13 1_555 1_555
O3 Cd1 1_555 1_555
O4 Cd2 1_555 1_555
O5 Cd10 1_555 1_555
O29 Cd2 1_555 1_555
O29 Cd10 1_555 1_555
O43 Cd2 1_555 1_555
O45 H30 1_555 1_555
O45 H31 1_555 1_555
O44 H32 1_555 1_555
O44 H33 1_555 1_555
C32 C33 1_555 1_555
C33 C34 1_555 1_555
C34 H13 1_555 1_555
C38 C33 1_555 1_555
H14 C38 1_555 1_555
N1 C37 1_555 1_555
O28 C32 1_555 1_555
O30 N1 1_555 1_555
O36 N11 1_555 1_555
O37 N11 1_555 1_555
C37 C38 1_555 1_555
C15 C14 1_555 1_555
H8 C15 1_555 1_555
C16 C11 1_555 1_555
C17 C14 1_555 1_555
O14 C17 1_555 1_555
Cd13 O14 1_555 1_555
C15 C16 1_555 1_555
H6 C10 1_555 1_555
N3 C9 1_555 1_555
O8 N3 1_555 1_555
O9 N3 1_555 1_555
O53 C46 1_555 1_555
O54 C46 1_555 1_555
O48 Cd13 1_555 1_555
O51 Cd13 1_555 1_555
C9 C10 1_555 1_555
O53 Cd13 1_555 1_555
O42 Cd13 1_555 1_555
Cd13 O52 1_555 1_555
C26 C25 1_555 1_555
C27 C26 1_555 1_555
H11 C27 1_555 1_555
C28 C27 1_555 1_555
C29 C28 1_555 1_555
H12 C29 1_555 1_555
C30 C25 1_555 1_555
C31 C28 1_555 1_555
N7 C26 1_555 1_555
O13 N5 1_555 1_555
O22 N7 1_555 1_555
O23 N7 1_555 1_555
O48 C31 1_555 1_555
O49 C31 1_555 1_555
C29 C30 1_555 1_555
C18 C19 1_555 1_555
C19 C20 1_555 1_555
C20 H9 1_555 1_555
C21 C20 1_555 1_555
C22 C21 1_555 1_555
C23 C22 1_555 1_555
C24 C19 1_555 1_555
H10 C24 1_555 1_555
C36 C35 1_555 1_555
C39 C36 1_555 1_555
C40 C39 1_555 1_555
C41 C40 1_555 1_555
H15 C41 1_555 1_555
C42 C41 1_555 1_555
C43 C42 1_555 1_555
H16 C43 1_555 1_555
C44 C39 1_555 1_555
C45 C42 1_555 1_555
C47 H17 1_555 1_555
C48 C47 1_555 1_555
H18 C48 1_555 1_555
H19 C48 1_555 1_555
H20 C48 1_555 1_555
N6 C21 1_555 1_555
N9 C23 1_555 1_555
N10 C44 1_555 1_555
N12 C35 1_555 1_555
O17 C18 1_555 1_555
O18 N6 1_555 1_555
O20 N9 1_555 1_555
O21 N9 1_555 1_555
O24 N8 1_555 1_555
O32 N12 1_555 1_555
O33 N12 1_555 1_555
O34 N10 1_555 1_555
O35 N10 1_555 1_555
O51 C45 1_555 1_555
O52 C45 1_555 1_555
C23 C24 1_555 1_555
C43 C44 1_555 1_555
O6 N2 1_555 1_555
O7 N2 1_555 1_555

#END
