
###############################################################################
#
# This file contains modified crystal structure data generated from the
# MOF subset of the Cambridge Structural Database (CSD) v543 
# hosted by the Cambridge Crystallographic Data Centre (CCDC).
#
# This work is licensed under the Creative Commons
# Attribution-NonCommercial-ShareAlike 4.0 International License.
# To view a copy of this license, visit
# http://creativecommons.org/licenses/by-nc-sa/4.0/
# or send a letter to
# Creative Commons, PO Box 1866, Mountain View, CA 94042, USA.
#
# CIF created using the CSD Python API on 29 September 2022
# The structure has been converted into the P1 space group
# The structure has a 3D framework
# The original CSD entry RUYQIN03 is in the rhombohedral crystal system
# The original CSD entry RUYQIN03 is in a Sohncke space group
# The framework has been calculated to contain at least 10.0% void space
# The void calculation uses a probe of radius 1.32A, grid spacing 0.4
# H atom positions have been added when not included in the experimental data
# Generated hydrogen atom positions removed from atoms on special positions
#
###############################################################################

data_RUYQIN03
_chemical_formula_moiety         '(C210 H144 La11 N16 O57)n'
_symmetry_cell_setting           triclinic
_symmetry_space_group_name_H-M   'P 1'
_symmetry_Int_Tables_number      1
_space_group_name_Hall           'P 1'
loop_
_symmetry_equiv_pos_site_id
_symmetry_equiv_pos_as_xyz
1 x,y,z
_cell_length_a                   24.2372(12)
_cell_length_b                   24.2372(12)
_cell_length_c                   13.2135(11)
_cell_angle_alpha                90
_cell_angle_beta                 90
_cell_angle_gamma                120
_cell_volume                     6722.23
loop_
_atom_site_label
_atom_site_type_symbol
_atom_site_fract_x
_atom_site_fract_y
_atom_site_fract_z
N1 N -0.0000 0.3108(4) 0.0000
C8 C 0.0000 0.3715(5) 0.0000
C11 C -0.0000 0.4841(4) 0.0000
C12 C -0.0000 0.5484(5) 0.0000
C14 C 0.1154(3) 0.3622(4) 0.0256(3)
H7 H 0.1148 0.3960 0.0581
C15 C 0.1723(2) 0.3619(4) 0.0157(4)
H8 H 0.2098 0.3954 0.0415
O7 O 0.2834(4) 0.3532(4) 0.0012(3)
La2 La 0.01596(2) 0.66667(3) 0.1667
La3 La 0.33333(3) 0.34929(2) 0.1667
N1_2 N -0.0000 0.3108(4) 1.0000
C8_2 C 0.0000 0.3715(5) 1.0000
C11_2 C -0.0000 0.4841(4) 1.0000
C12_2 C -0.0000 0.5484(5) 1.0000
O5 O 0.2347(2) 0.2723(4) 0.8919(4)
C13 C 0.0593(2) 0.3120(3) 0.9871(4)
C16 C 0.1732(2) 0.3115(3) 0.9671(4)
C17 C 0.1171(3) 0.2613(4) 0.9286(3)
H9 H 0.1177 0.2276 0.8961
C18 C 0.0602(2) 0.2616(4) 0.9385(3)
H10 H 0.0227 0.2281 0.9127
C19 C 0.2330(4) 0.3101(6) 0.9539(6)
O6 O 0.0060(3) 0.5750(5) 0.9162(4)
C20 C 0.0279(4) 0.4135(7) 0.9227(6)
H11 H 0.0471 0.4040 0.8699
C21 C 0.0275(4) 0.4692(7) 0.9230(6)
H12 H 0.0464 0.4978 0.8698
La6 La 0.34929(2) 0.33333(3) 0.8333
O1 O 0.7653(2) 0.0376(3) 0.1081(4)
O3 O 0.9940(3) 0.5690(4) 0.0838(4)
N1_3 N 1.0000 0.3108(4) 0.0000
C1 C 0.9407(2) 0.2527(2) 0.0129(4)
C4 C 0.8268(2) 0.1383(2) 0.0329(4)
C5 C 0.8829(3) 0.1442(2) 0.0714(3)
H3 H 0.8823 0.1099 0.1039
C6 C 0.9398(2) 0.2014(3) 0.0615(3)
H4 H 0.9773 0.2054 0.0873
C7 C 0.7670(4) 0.0771(4) 0.0461(6)
C8_3 C 1.0000 0.3715(5) 0.0000
C9 C 0.9721(4) 0.3856(6) 0.0773(6)
H5 H 0.9529 0.3569 0.1301
C10 C 0.9725(4) 0.4417(6) 0.0770(6)
H6 H 0.9536 0.4514 0.1302
C11_3 C 1.0000 0.4841(4) 0.0000
C12_3 C 1.0000 0.5484(5) 0.0000
O8 O 0.7043(3) 0.0986(2) 0.2252(4)
O11 O 0.7365(2) 0.0499(4) 0.3345(3)
O12 O 0.5750(5) 0.0060(3) 0.0838(4)
O2 O 0.7166(4) 0.0698(2) 0.9988(3)
N1_4 N 1.0000 0.3108(4) 1.0000
C2 C 0.8846(3) 0.2468(2) 0.9744(3)
H1 H 0.8852 0.2812 0.9419
C3 C 0.8277(2) 0.1896(3) 0.9843(4)
H2 H 0.7902 0.1856 0.9585
C8_4 C 1.0000 0.3715(5) 1.0000
C11_4 C 1.0000 0.4841(4) 1.0000
C12_4 C 1.0000 0.5484(5) 1.0000
La4 La 0.98404(2) 0.65071(2) 0.8333
La5 La 0.66667(3) 0.01596(2) 0.8333
La1 La 0.65071(2) 0.98404(2) 0.1667
O4 O 0.5397(5) 0.8730(5) 0.1667
O9 O 0.6468(4) 0.9302(2) 0.0012(3)
O10 O 0.5969(2) 0.9801(4) 0.3321(3)
O13 O 0.6727(3) 0.9083(5) 0.2495(4)
O4_2 O 0.1270(5) 0.6667(7) 0.1667
O9_2 O 0.0698(2) 0.7166(4) 0.0012(3)
O10_2 O 0.0199(4) 0.6167(4) 0.3321(3)
O13_2 O 0.0917(5) 0.7643(6) 0.2495(4)
O1_2 O 0.9624(3) 0.7277(4) 0.1081(4)
O3_2 O 0.4310(4) 0.4250(5) 0.0838(4)
N1_5 N 0.6892(4) 0.6892(4) 0.0000
C1_2 C 0.7473(2) 0.6880(3) 0.0129(4)
C4_2 C 0.8617(2) 0.6885(3) 0.0329(4)
C5_2 C 0.8558(2) 0.7387(4) 0.0714(3)
H3_2 H 0.8901 0.7724 0.1039
C6_2 C 0.7986(3) 0.7384(4) 0.0615(3)
H4_2 H 0.7946 0.7719 0.0873
C7_2 C 0.9229(4) 0.6899(6) 0.0461(6)
C8_5 C 0.6285(5) 0.6285(5) 0.0000
C9_2 C 0.6144(6) 0.5865(7) 0.0773(6)
H5_2 H 0.6431 0.5960 0.1301
C10_2 C 0.5583(6) 0.5308(7) 0.0770(6)
H6_2 H 0.5486 0.5022 0.1302
C11_5 C 0.5159(4) 0.5159(4) 0.0000
C12_5 C 0.4516(5) 0.4516(5) 0.0000
C14_2 C 0.6378(4) 0.7532(5) 0.0256(3)
H7_2 H 0.6040 0.7188 0.0581
C15_2 C 0.6381(4) 0.8104(4) 0.0157(4)
H8_2 H 0.6046 0.8144 0.0415
O8_2 O 0.9014(2) 0.6056(4) 0.2252(4)
O11_2 O 0.9501(4) 0.6865(4) 0.3345(3)
O2_2 O 0.9302(2) 0.6468(4) 0.9988(3)
N1_6 N 0.6892(4) 0.6892(4) 1.0000
C2_2 C 0.7532(2) 0.6378(4) 0.9744(3)
H1_2 H 0.7188 0.6040 0.9419
C3_2 C 0.8104(3) 0.6381(4) 0.9843(4)
H2_2 H 0.8144 0.6046 0.9585
C8_6 C 0.6285(5) 0.6285(5) 1.0000
C11_6 C 0.5159(4) 0.5159(4) 1.0000
C12_6 C 0.4516(5) 0.4516(5) 1.0000
O5_2 O 0.7277(4) 0.9624(4) 0.8919(4)
C13_2 C 0.6880(3) 0.7473(4) 0.9871(4)
C16_2 C 0.6885(3) 0.8617(4) 0.9671(4)
C17_2 C 0.7387(4) 0.8558(5) 0.9286(3)
H9_2 H 0.7724 0.8901 0.8961
C18_2 C 0.7384(4) 0.7986(4) 0.9385(3)
H10_2 H 0.7719 0.7946 0.9127
C19_2 C 0.6899(6) 0.9229(7) 0.9539(6)
O6_2 O 0.4250(5) 0.4310(6) 0.9162(4)
C20_2 C 0.5865(7) 0.6144(8) 0.9227(6)
H11_2 H 0.5960 0.6431 0.8699
C21_2 C 0.5308(7) 0.5583(8) 0.9230(6)
H12_2 H 0.5022 0.5486 0.8698
O1_3 O 0.2723(4) 0.2347(2) 0.1081(4)
O4_3 O 0.3333(7) 0.4603(5) 0.1667
N1_7 N 0.3108(4) 0.0000 0.0000
C1_3 C 0.3120(3) 0.0593(2) 0.0129(4)
C4_3 C 0.3115(3) 0.1732(2) 0.0329(4)
C5_3 C 0.2613(4) 0.1171(3) 0.0714(3)
H3_3 H 0.2276 0.1177 0.1039
C6_3 C 0.2616(4) 0.0602(2) 0.0615(3)
H4_3 H 0.2281 0.0227 0.0873
C7_3 C 0.3101(6) 0.2330(4) 0.0461(6)
C8_7 C 0.3715(5) 0.0000 0.0000
C9_3 C 0.4135(7) 0.0279(4) 0.0773(6)
H5_3 H 0.4040 0.0471 0.1301
C10_3 C 0.4692(7) 0.0275(4) 0.0770(6)
H6_3 H 0.4978 0.0464 0.1302
C11_7 C 0.4841(4) 0.0000 0.0000
C12_7 C 0.5484(5) 0.0000 0.0000
O8_3 O 0.3944(4) 0.2957(3) 0.2252(4)
O10_3 O 0.3833(4) 0.4031(2) 0.3321(3)
O11_3 O 0.3135(4) 0.2635(2) 0.3345(3)
O13_3 O 0.2357(6) 0.3273(3) 0.2495(4)
O2_3 O 0.3532(4) 0.2834(4) 0.9988(3)
N1_8 N 0.3108(4) 0.0000 1.0000
C2_3 C 0.3622(4) 0.1154(3) 0.9744(3)
H1_3 H 0.3960 0.1148 0.9419
C3_3 C 0.3619(4) 0.1723(2) 0.9843(4)
H2_3 H 0.3954 0.2098 0.9585
C8_8 C 0.3715(5) -0.0000 1.0000
C11_8 C 0.4841(4) 0.0000 1.0000
C12_8 C 0.5484(5) 0.0000 1.0000
N1_9 N 0.3108(4) 1.0000 0.0000
C8_9 C 0.3715(5) 1.0000 0.0000
C11_9 C 0.4841(4) 1.0000 0.0000
C12_9 C 0.5484(5) 1.0000 0.0000
C14_3 C 0.2468(5) 0.8846(3) 0.0256(3)
H7_3 H 0.2812 0.8852 0.0581
C15_3 C 0.1896(4) 0.8277(2) 0.0157(4)
H8_3 H 0.1856 0.7902 0.0415
N1_10 N 0.3108(4) 1.0000 1.0000
C8_10 C 0.3715(5) 1.0000 1.0000
C11_10 C 0.4841(4) 1.0000 1.0000
C12_10 C 0.5484(5) 1.0000 1.0000
O5_3 O 0.0376(4) 0.7653(2) 0.8919(4)
C13_3 C 0.2527(4) 0.9407(2) 0.9871(4)
C16_3 C 0.1383(4) 0.8268(2) 0.9671(4)
C17_3 C 0.1442(5) 0.8829(3) 0.9286(3)
H9_3 H 0.1099 0.8823 0.8961
C18_3 C 0.2014(4) 0.9398(2) 0.9385(3)
H10_3 H 0.2054 0.9773 0.9127
C19_3 C 0.0771(7) 0.7670(4) 0.9539(6)
O6_3 O 0.5690(6) 0.9940(3) 0.9162(4)
C20_3 C 0.3856(8) 0.9721(4) 0.9227(6)
H11_3 H 0.3569 0.9529 0.8699
C21_3 C 0.4417(8) 0.9725(4) 0.9230(6)
H12_3 H 0.4514 0.9536 0.8698
O8_4 O 0.0986(2) 0.7043(3) 0.7748(4)
O11_4 O 0.0499(4) 0.7365(2) 0.6655(3)
O4_4 O 0.8730(5) 0.5397(5) 0.8333
O10_4 O 0.9801(4) 0.5969(2) 0.6679(3)
O13_4 O 0.9083(5) 0.6727(3) 0.7505(4)
O4_5 O 0.6667(7) 0.1270(5) 0.8333
O10_5 O 0.6167(4) 0.0199(4) 0.6679(3)
O13_5 O 0.7643(6) 0.0917(5) 0.7505(4)
O8_5 O 0.6056(4) 0.9014(2) 0.7748(4)
O11_5 O 0.6865(4) 0.9501(4) 0.6655(3)
O4_6 O 0.4603(5) 0.3333(7) 0.8333
O8_6 O 0.2957(3) 0.3944(4) 0.7748(4)
O10_6 O 0.4031(2) 0.3833(4) 0.6679(3)
O11_6 O 0.2635(2) 0.3135(4) 0.6655(3)
O13_6 O 0.3273(3) 0.2357(6) 0.7505(4)
La3_2 La -0.00000(3) 0.68262(2) 0.5000
La2_2 La 0.68263(2) 0.00000(3) 0.5000
La1_2 La 0.31738(2) 0.31737(2) 0.5000
O1_4 O 0.4320(2) 0.3709(3) 0.4414(4)
O3_3 O 0.6607(3) 0.9023(4) 0.4171(4)
O4_7 O 0.2064(5) 0.2063(5) 0.5000
N1_11 N 0.6667 0.6441(4) 0.3333
C1_4 C 0.6074(2) 0.5860(2) 0.3462(4)
C2_4 C 0.5513(3) 0.5801(2) 0.3077(3)
H1_4 H 0.5519 0.6145 0.2752
C3_4 C 0.4944(2) 0.5229(3) 0.3176(4)
H2_4 H 0.4569 0.5189 0.2918
C4_4 C 0.4935(2) 0.4716(2) 0.3662(4)
C5_4 C 0.5496(3) 0.4775(2) 0.4047(3)
H3_4 H 0.5490 0.4432 0.4372
C6_4 C 0.6065(2) 0.5347(3) 0.3948(3)
H4_4 H 0.6440 0.5387 0.4206
C7_4 C 0.4337(4) 0.4104(4) 0.3794(6)
C8_11 C 0.6667 0.7048(5) 0.3333
C9_4 C 0.6388(4) 0.7189(6) 0.4106(6)
H5_4 H 0.6196 0.6902 0.4634
C10_4 C 0.6392(4) 0.7750(6) 0.4103(6)
H6_4 H 0.6203 0.7847 0.4635
C11_11 C 0.6667 0.8174(4) 0.3333
C12_11 C 0.6667 0.8817(5) 0.3333
C13_4 C 0.7260(2) 0.6453(3) 0.3204(4)
C14_4 C 0.7821(3) 0.6955(4) 0.3589(3)
H7_4 H 0.7815 0.7293 0.3914
C15_4 C 0.8390(2) 0.6952(4) 0.3490(4)
H8_4 H 0.8765 0.7287 0.3748
C16_4 C 0.8399(2) 0.6448(3) 0.3004(4)
C17_4 C 0.7838(3) 0.5946(4) 0.2619(3)
H9_4 H 0.7844 0.5609 0.2294
C18_4 C 0.7269(2) 0.5949(4) 0.2718(3)
H10_4 H 0.6894 0.5614 0.2460
C19_4 C 0.8997(4) 0.6434(6) 0.2872(6)
C20_4 C 0.6946(4) 0.7468(7) 0.2560(6)
H11_4 H 0.7138 0.7373 0.2032
C21_4 C 0.6942(4) 0.8025(7) 0.2563(6)
H12_4 H 0.7131 0.8311 0.2031
La2_3 La 0.68263(2) 1.00000(3) 0.5000
La3_3 La 1.00000(3) 0.68262(2) 0.5000
O8_7 O 0.3709(3) 0.4320(2) 0.5586(4)
O12_2 O 0.2417(5) 0.3393(3) 0.4171(4)
O13_7 O 0.3393(3) 0.2417(5) 0.5829(4)
O1_5 O 0.6291(3) 0.0610(4) 0.4414(4)
O4_8 O 0.7937(5) 0.0000(7) 0.5000
N1_12 N 0.3559(4) 0.0225(4) 0.3333
C1_5 C 0.4140(2) 0.0213(3) 0.3462(4)
C4_5 C 0.5284(2) 0.0218(3) 0.3662(4)
C5_5 C 0.5225(2) 0.0720(4) 0.4047(3)
H3_5 H 0.5568 0.1057 0.4372
C6_5 C 0.4653(3) 0.0717(4) 0.3948(3)
H4_5 H 0.4613 0.1052 0.4206
C7_5 C 0.5896(4) 0.0232(6) 0.3794(6)
C13_5 C 0.3547(3) 0.0806(4) 0.3204(4)
C14_5 C 0.3045(4) 0.0865(5) 0.3589(3)
H7_5 H 0.2707 0.0521 0.3914
C15_5 C 0.3048(4) 0.1437(4) 0.3490(4)
H8_5 H 0.2713 0.1477 0.3748
C16_5 C 0.3552(3) 0.1950(4) 0.3004(4)
C17_5 C 0.4054(4) 0.1891(5) 0.2619(3)
H9_5 H 0.4391 0.2234 0.2294
C18_5 C 0.4051(4) 0.1319(4) 0.2718(3)
H10_5 H 0.4386 0.1279 0.2460
C19_5 C 0.3566(6) 0.2562(7) 0.2872(6)
O13_8 O 0.7583(5) 0.0977(6) 0.5829(4)
H13 H 0.826849 0.0391005 0.53423
O3_4 O 0.0977(4) 0.7583(5) 0.4171(4)
O4_9 O 0.7937(5) 1.0000(7) 0.5000
C2_5 C 0.4199(2) 0.9711(4) 0.3077(3)
H1_5 H 0.3855 0.9373 0.2752
C3_5 C 0.4771(3) 0.9714(4) 0.3176(4)
H2_5 H 0.4811 0.9379 0.2918
C8_12 C 0.2952(5) 0.9618(5) 0.3333
C9_5 C 0.2811(6) 0.9198(7) 0.4106(6)
H5_5 H 0.3098 0.9293 0.4634
C10_5 C 0.2250(6) 0.8641(7) 0.4103(6)
H6_5 H 0.2153 0.8355 0.4635
C11_12 C 0.1826(4) 0.8492(4) 0.3333
C12_12 C 0.1183(5) 0.7849(5) 0.3333
C20_5 C 0.2532(7) 0.9477(8) 0.2560(6)
H11_5 H 0.2627 0.9764 0.2032
C21_5 C 0.1975(7) 0.8916(8) 0.2563(6)
H12_5 H 0.1689 0.8819 0.2031
O8_8 O 0.5680(2) 0.9390(4) 0.5586(4)
H14 H 0.788245 0.961862 0.536675
O4_10 O -0.0000(7) 0.7936(5) 0.5000
C2_6 C 0.0289(4) 0.4487(3) 0.3077(3)
H1_6 H 0.0627 0.4481 0.2752
C3_6 C 0.0286(4) 0.5056(2) 0.3176(4)
H2_6 H 0.0621 0.5431 0.2918
C8_13 C 0.0382(5) 0.3333 0.3333
C9_6 C 0.0802(7) 0.3612(4) 0.4106(6)
H5_6 H 0.0707 0.3804 0.4634
C10_6 C 0.1359(7) 0.3608(4) 0.4103(6)
H6_6 H 0.1645 0.3797 0.4635
C11_13 C 0.1508(4) 0.3333 0.3333
C12_13 C 0.2151(5) 0.3333 0.3333
C20_6 C 0.0523(8) 0.3054(4) 0.2560(6)
H11_6 H 0.0236 0.2862 0.2032
C21_6 C 0.1084(8) 0.3058(4) 0.2563(6)
H12_6 H 0.1181 0.2869 0.2031
O8_9 O 0.0610(4) 0.6291(3) 0.5586(4)
H14_2 H 0.0381381 0.826383 0.536675
O1_6 O 0.9390(4) 0.5680(2) 0.4414(4)
O4_11 O 1.0000(7) 0.7936(5) 0.5000
N1_13 N 0.9775(4) 0.3333 0.3333
C1_6 C 0.9787(3) 0.3926(2) 0.3462(4)
C4_6 C 0.9782(3) 0.5065(2) 0.3662(4)
C5_6 C 0.9280(4) 0.4504(3) 0.4047(3)
H3_6 H 0.8943 0.4510 0.4372
C6_6 C 0.9283(4) 0.3935(2) 0.3948(3)
H4_6 H 0.8948 0.3560 0.4206
C7_6 C 0.9768(6) 0.5663(4) 0.3794(6)
C13_6 C 0.9194(4) 0.2740(2) 0.3204(4)
C14_6 C 0.9135(5) 0.2179(3) 0.3589(3)
H7_6 H 0.9479 0.2185 0.3914
C15_6 C 0.8563(4) 0.1610(2) 0.3490(4)
H8_6 H 0.8523 0.1235 0.3748
C16_6 C 0.8050(4) 0.1601(2) 0.3004(4)
C17_6 C 0.8109(5) 0.2162(3) 0.2619(3)
H9_6 H 0.7766 0.2156 0.2294
C18_6 C 0.8681(4) 0.2731(2) 0.2718(3)
H10_6 H 0.8721 0.3106 0.2460
C19_6 C 0.7438(7) 0.1003(4) 0.2872(6)
O13_9 O 0.9023(6) 0.6607(3) 0.5829(4)
H13_2 H 0.960899 0.787749 0.53423
C8_14 C 0.3333 0.0382(5) 0.6667
C9_7 C 0.3054(4) 0.0523(6) 0.7440(6)
H5_7 H 0.2862 0.0236 0.7968
C10_7 C 0.3058(4) 0.1084(6) 0.7437(6)
H6_7 H 0.2869 0.1181 0.7969
C11_14 C 0.3333 0.1508(4) 0.6667
C12_14 C 0.3333 0.2151(5) 0.6667
C14_7 C 0.4487(3) 0.0289(4) 0.6923(3)
H7_7 H 0.4481 0.0627 0.7248
C15_7 C 0.5056(2) 0.0286(4) 0.6824(4)
H8_7 H 0.5431 0.0621 0.7082
C20_7 C 0.3612(4) 0.0802(7) 0.5894(6)
H11_7 H 0.3804 0.0707 0.5366
C21_7 C 0.3608(4) 0.1359(7) 0.5897(6)
H12_7 H 0.3797 0.1645 0.5365
N1_14 N 0.3333 0.9775(4) 0.6667
C1_7 C 0.2740(2) 0.9194(2) 0.6796(4)
C2_7 C 0.2179(3) 0.9135(2) 0.6411(3)
H1_7 H 0.2185 0.9479 0.6086
C3_7 C 0.1610(2) 0.8563(3) 0.6510(4)
H2_7 H 0.1235 0.8523 0.6252
C4_7 C 0.1601(2) 0.8050(2) 0.6996(4)
C5_7 C 0.2162(3) 0.8109(2) 0.7381(3)
H3_7 H 0.2156 0.7766 0.7706
C6_7 C 0.2731(2) 0.8681(3) 0.7282(3)
H4_7 H 0.3106 0.8721 0.7540
C7_7 C 0.1003(4) 0.7438(4) 0.7128(6)
C13_7 C 0.3926(2) 0.9787(3) 0.6538(4)
C16_7 C 0.5065(2) 0.9782(3) 0.6338(4)
C17_7 C 0.4504(3) 0.9280(4) 0.5953(3)
H9_7 H 0.4510 0.8943 0.5628
C18_7 C 0.3935(2) 0.9283(4) 0.6052(3)
H10_7 H 0.3560 0.8948 0.5794
C19_7 C 0.5663(4) 0.9768(6) 0.6206(6)
N1_15 N 0.0225(4) 0.3559(4) 0.6667
C1_8 C 0.0806(2) 0.3547(3) 0.6796(4)
C2_8 C 0.0865(2) 0.3045(4) 0.6411(3)
H1_8 H 0.0521 0.2707 0.6086
C3_8 C 0.1437(3) 0.3048(4) 0.6510(4)
H2_8 H 0.1477 0.2713 0.6252
C4_8 C 0.1950(2) 0.3552(3) 0.6996(4)
C5_8 C 0.1891(2) 0.4054(4) 0.7381(3)
H3_8 H 0.2234 0.4391 0.7706
C6_8 C 0.1319(3) 0.4051(4) 0.7282(3)
H4_8 H 0.1279 0.4386 0.7540
C7_8 C 0.2562(4) 0.3566(6) 0.7128(6)
C13_8 C 0.0213(3) 0.4140(4) 0.6538(4)
C16_8 C 0.0218(3) 0.5284(4) 0.6338(4)
C17_8 C 0.0720(4) 0.5225(5) 0.5953(3)
H9_8 H 0.1057 0.5568 0.5628
C18_8 C 0.0717(4) 0.4653(4) 0.6052(3)
H10_8 H 0.1052 0.4613 0.5794
C19_8 C 0.0232(6) 0.5896(7) 0.6206(6)
C8_15 C 0.9618(5) 0.2952(5) 0.6667
C9_8 C 0.9477(6) 0.2532(7) 0.7440(6)
H5_8 H 0.9764 0.2627 0.7968
C10_8 C 0.8916(6) 0.1975(7) 0.7437(6)
H6_8 H 0.8819 0.1689 0.7969
C11_15 C 0.8492(4) 0.1826(4) 0.6667
C12_15 C 0.7849(5) 0.1183(5) 0.6667
C14_8 C 0.9711(4) 0.4199(5) 0.6923(3)
H7_8 H 0.9373 0.3855 0.7248
C15_8 C 0.9714(4) 0.4771(4) 0.6824(4)
H8_8 H 0.9379 0.4811 0.7082
C20_8 C 0.9198(7) 0.2811(8) 0.5894(6)
H11_8 H 0.9293 0.3098 0.5366
C21_8 C 0.8641(7) 0.2250(8) 0.5897(6)
H12_8 H 0.8355 0.2153 0.5365
N1_16 N 0.6441(4) 0.6667 0.6667
C1_9 C 0.6453(3) 0.7260(2) 0.6796(4)
C2_9 C 0.6955(4) 0.7821(3) 0.6411(3)
H1_9 H 0.7293 0.7815 0.6086
C3_9 C 0.6952(4) 0.8390(2) 0.6510(4)
H2_9 H 0.7287 0.8765 0.6252
C4_9 C 0.6448(3) 0.8399(2) 0.6996(4)
C5_9 C 0.5946(4) 0.7838(3) 0.7381(3)
H3_9 H 0.5609 0.7844 0.7706
C6_9 C 0.5949(4) 0.7269(2) 0.7282(3)
H4_9 H 0.5614 0.6894 0.7540
C7_9 C 0.6434(6) 0.8997(4) 0.7128(6)
C8_16 C 0.7048(5) 0.6667 0.6667
C9_9 C 0.7468(7) 0.6946(4) 0.7440(6)
H5_9 H 0.7373 0.7138 0.7968
C10_9 C 0.8025(7) 0.6942(4) 0.7437(6)
H6_9 H 0.8311 0.7131 0.7969
C11_16 C 0.8174(4) 0.6667 0.6667
C12_16 C 0.8817(5) 0.6667 0.6667
C13_9 C 0.5860(4) 0.6074(2) 0.6538(4)
C14_9 C 0.5801(5) 0.5513(3) 0.6923(3)
H7_9 H 0.6145 0.5519 0.7248
C15_9 C 0.5229(4) 0.4944(2) 0.6824(4)
H8_9 H 0.5189 0.4569 0.7082
C16_9 C 0.4716(4) 0.4935(2) 0.6338(4)
C17_9 C 0.4775(5) 0.5496(3) 0.5953(3)
H9_9 H 0.4432 0.5490 0.5628
C18_9 C 0.5347(4) 0.6065(2) 0.6052(3)
H10_9 H 0.5387 0.6440 0.5794
C19_9 C 0.4104(7) 0.4337(4) 0.6206(6)
C20_9 C 0.7189(8) 0.6388(4) 0.5894(6)
H11_9 H 0.6902 0.6196 0.5366
C21_9 C 0.7750(8) 0.6392(4) 0.5897(6)
H12_9 H 0.7847 0.6203 0.5365
H13_3 H 0.0391005 0.826849 0.46577
H14_3 H 0.961862 0.788245 0.463325
H14_4 H 0.826383 0.0381381 0.463325
H13_4 H 0.787749 0.960899 0.46577
loop_
_geom_bond_atom_site_label_1
_geom_bond_atom_site_label_2
_geom_bond_site_symmetry_1
_geom_bond_site_symmetry_2
C8 N1 1_555 1_555
C12 C11 1_555 1_555
H7 C14 1_555 1_555
C15 C14 1_555 1_555
H8 C15 1_555 1_555
La3 O7 1_555 1_555
C8_2 N1_2 1_555 1_555
C12_2 C11_2 1_555 1_555
O5 C19 1_555 1_555
C13 N1_2 1_555 1_555
C17 C16 1_555 1_555
H9 C17 1_555 1_555
C18 C13 1_555 1_555
H10 C18 1_555 1_555
C19 C16 1_555 1_555
O6 C12_2 1_555 1_555
C20 C8_2 1_555 1_555
H11 C20 1_555 1_555
C21 C11_2 1_555 1_555
H12 C21 1_555 1_555
La6 O5 1_555 1_555
C17 C18 1_555 1_555
C20 C21 1_555 1_555
O1 C7 1_555 1_555
O3 C12_3 1_555 1_555
N1_3 C1 1_555 1_555
C5 C4 1_555 1_555
H3 C5 1_555 1_555
C6 C1 1_555 1_555
H4 C6 1_555 1_555
C8_3 N1_3 1_555 1_555
C9 C8_3 1_555 1_555
H5 C9 1_555 1_555
C10 C9 1_555 1_555
H6 C10 1_555 1_555
C11_3 C10 1_555 1_555
C12_3 C11_3 1_555 1_555
C4 C7 1_555 1_555
C5 C6 1_555 1_555
C2 H1 1_555 1_555
C3 C2 1_555 1_555
H2 C3 1_555 1_555
C8_4 N1_4 1_555 1_555
C12_4 C11_4 1_555 1_555
La5 O2 1_555 1_555
O4 La1 1_555 1_555
O9 La1 1_555 1_555
O10 La1 1_555 1_555
O13 La1 1_555 1_555
O4_2 La2 1_555 1_555
O9_2 La2 1_555 1_555
O10_2 La2 1_555 1_555
O13_2 La2 1_555 1_555
O1_2 C7_2 1_555 1_555
O3_2 C12_5 1_555 1_555
N1_5 C1_2 1_555 1_555
C5_2 C4_2 1_555 1_555
H3_2 C5_2 1_555 1_555
C6_2 C1_2 1_555 1_555
H4_2 C6_2 1_555 1_555
C8_5 N1_5 1_555 1_555
C9_2 C8_5 1_555 1_555
H5_2 C9_2 1_555 1_555
C10_2 C9_2 1_555 1_555
H6_2 C10_2 1_555 1_555
C11_5 C10_2 1_555 1_555
C12_5 C11_5 1_555 1_555
H7_2 C14_2 1_555 1_555
C15_2 C14_2 1_555 1_555
H8_2 C15_2 1_555 1_555
La3 O3_2 1_555 1_555
C4_2 C7_2 1_555 1_555
C5_2 C6_2 1_555 1_555
C2_2 H1_2 1_555 1_555
C3_2 C2_2 1_555 1_555
H2_2 C3_2 1_555 1_555
C8_6 N1_6 1_555 1_555
C12_6 C11_6 1_555 1_555
O5_2 C19_2 1_555 1_555
C13_2 N1_6 1_555 1_555
C17_2 C16_2 1_555 1_555
H9_2 C17_2 1_555 1_555
C18_2 C13_2 1_555 1_555
H10_2 C18_2 1_555 1_555
C19_2 C16_2 1_555 1_555
O6_2 C12_6 1_555 1_555
C20_2 C8_6 1_555 1_555
H11_2 C20_2 1_555 1_555
C21_2 C11_6 1_555 1_555
H12_2 C21_2 1_555 1_555
La6 O6_2 1_555 1_555
La4 O2_2 1_555 1_555
C17_2 C18_2 1_555 1_555
C20_2 C21_2 1_555 1_555
La3 O1_3 1_555 1_555
O1_3 C7_3 1_555 1_555
O12 C12_7 1_555 1_555
O4_3 La3 1_555 1_555
N1_7 C1_3 1_555 1_555
C5_3 C4_3 1_555 1_555
H3_3 C5_3 1_555 1_555
C6_3 C1_3 1_555 1_555
H4_3 C6_3 1_555 1_555
C8_7 N1_7 1_555 1_555
C9_3 C8_7 1_555 1_555
H5_3 C9_3 1_555 1_555
C10_3 C9_3 1_555 1_555
H6_3 C10_3 1_555 1_555
C11_7 C10_3 1_555 1_555
C12_7 C11_7 1_555 1_555
O8_3 La3 1_555 1_555
O10_3 La3 1_555 1_555
O11_3 La3 1_555 1_555
O13_3 La3 1_555 1_555
C4_3 C7_3 1_555 1_555
C5_3 C6_3 1_555 1_555
C2_3 H1_3 1_555 1_555
C3_3 C2_3 1_555 1_555
H2_3 C3_3 1_555 1_555
C8_8 N1_8 1_555 1_555
C12_8 C11_8 1_555 1_555
La6 O2_3 1_555 1_555
C8_9 N1_9 1_555 1_555
C12_9 C11_9 1_555 1_555
H7_3 C14_3 1_555 1_555
C15_3 C14_3 1_555 1_555
H8_3 C15_3 1_555 1_555
C8_10 N1_10 1_555 1_555
C12_10 C11_10 1_555 1_555
O5_3 C19_3 1_555 1_555
C13_3 N1_10 1_555 1_555
C17_3 C16_3 1_555 1_555
H9_3 C17_3 1_555 1_555
C18_3 C13_3 1_555 1_555
H10_3 C18_3 1_555 1_555
C19_3 C16_3 1_555 1_555
O6_3 C12_10 1_555 1_555
C20_3 C8_10 1_555 1_555
H11_3 C20_3 1_555 1_555
C21_3 C11_10 1_555 1_555
H12_3 C21_3 1_555 1_555
C17_3 C18_3 1_555 1_555
C20_3 C21_3 1_555 1_555
O4_4 La4 1_555 1_555
O10_4 La4 1_555 1_555
O13_4 La4 1_555 1_555
O4_5 La5 1_555 1_555
O10_5 La5 1_555 1_555
O13_5 La5 1_555 1_555
O4_6 La6 1_555 1_555
O8_6 La6 1_555 1_555
O10_6 La6 1_555 1_555
O11_6 La6 1_555 1_555
O13_6 La6 1_555 1_555
La1_2 O1_4 1_555 1_555
O1_4 C7_4 1_555 1_555
O10_3 La1_2 1_555 1_555
O3_3 C12_11 1_555 1_555
O4_7 La1_2 1_555 1_555
N1_11 C1_4 1_555 1_555
C1_4 C2_4 1_555 1_555
C2_4 H1_4 1_555 1_555
C3_4 C2_4 1_555 1_555
H2_4 C3_4 1_555 1_555
C4_4 C3_4 1_555 1_555
C5_4 C4_4 1_555 1_555
H3_4 C5_4 1_555 1_555
C6_4 C1_4 1_555 1_555
H4_4 C6_4 1_555 1_555
C7_4 O10_3 1_555 1_555
C8_11 N1_11 1_555 1_555
C9_4 C8_11 1_555 1_555
H5_4 C9_4 1_555 1_555
C10_4 C9_4 1_555 1_555
H6_4 C10_4 1_555 1_555
C11_11 C10_4 1_555 1_555
C12_11 C11_11 1_555 1_555
O8_2 C19_4 1_555 1_555
C13_4 N1_11 1_555 1_555
C14_4 C13_4 1_555 1_555
H7_4 C14_4 1_555 1_555
C15_4 C14_4 1_555 1_555
H8_4 C15_4 1_555 1_555
C16_4 C15_4 1_555 1_555
C17_4 C16_4 1_555 1_555
H9_4 C17_4 1_555 1_555
C18_4 C13_4 1_555 1_555
H10_4 C18_4 1_555 1_555
C19_4 C16_4 1_555 1_555
O13 C12_11 1_555 1_555
C20_4 C8_11 1_555 1_555
H11_4 C20_4 1_555 1_555
C21_4 C11_11 1_555 1_555
H12_4 C21_4 1_555 1_555
O11_2 C19_4 1_555 1_555
La2_3 O3_3 1_555 1_555
La3_3 O11_2 1_555 1_555
O8_7 La1_2 1_555 1_555
O11_3 La1_2 1_555 1_555
O11_6 La1_2 1_555 1_555
O10_6 La1_2 1_555 1_555
O12_2 La1_2 1_555 1_555
O13_7 La1_2 1_555 1_555
C4_4 C7_4 1_555 1_555
C5_4 C6_4 1_555 1_555
C17_4 C18_4 1_555 1_555
C20_4 C21_4 1_555 1_555
La2_2 O1_5 1_555 1_555
O1_5 C7_5 1_555 1_555
O4_8 La2_2 1_555 1_555
N1_12 C1_5 1_555 1_555
C5_5 C4_5 1_555 1_555
H3_5 C5_5 1_555 1_555
C6_5 C1_5 1_555 1_555
H4_5 C6_5 1_555 1_555
O8_3 C19_5 1_555 1_555
C13_5 N1_12 1_555 1_555
C14_5 C13_5 1_555 1_555
H7_5 C14_5 1_555 1_555
C15_5 C14_5 1_555 1_555
H8_5 C15_5 1_555 1_555
C16_5 C15_5 1_555 1_555
C17_5 C16_5 1_555 1_555
H9_5 C17_5 1_555 1_555
C18_5 C13_5 1_555 1_555
H10_5 C18_5 1_555 1_555
C19_5 C16_5 1_555 1_555
O11_3 C19_5 1_555 1_555
O11 La2_2 1_555 1_555
O10_5 La2_2 1_555 1_555
O13_8 La2_2 1_555 1_555
C4_5 C7_5 1_555 1_555
C5_5 C6_5 1_555 1_555
C17_5 C18_5 1_555 1_555
O4_8 H13 1_555 1_555
O10 La2_3 1_555 1_555
O3_4 C12_12 1_555 1_555
O4_9 La2_3 1_555 1_555
C2_5 H1_5 1_555 1_555
C3_5 C2_5 1_555 1_555
H2_5 C3_5 1_555 1_555
C9_5 C8_12 1_555 1_555
H5_5 C9_5 1_555 1_555
C10_5 C9_5 1_555 1_555
H6_5 C10_5 1_555 1_555
C11_12 C10_5 1_555 1_555
C12_12 C11_12 1_555 1_555
O13_2 C12_12 1_555 1_555
C20_5 C8_12 1_555 1_555
H11_5 C20_5 1_555 1_555
C21_5 C11_12 1_555 1_555
H12_5 C21_5 1_555 1_555
La3_2 O3_4 1_555 1_555
O8_8 La2_3 1_555 1_555
O11_5 La2_3 1_555 1_555
C20_5 C21_5 1_555 1_555
O4_9 H14 1_555 1_555
O10_2 La3_2 1_555 1_555
O12_2 C12_13 1_555 1_555
O4_10 La3_2 1_555 1_555
C2_6 H1_6 1_555 1_555
C3_6 C2_6 1_555 1_555
H2_6 C3_6 1_555 1_555
C9_6 C8_13 1_555 1_555
H5_6 C9_6 1_555 1_555
C10_6 C9_6 1_555 1_555
H6_6 C10_6 1_555 1_555
C11_13 C10_6 1_555 1_555
C12_13 C11_13 1_555 1_555
O13_3 C12_13 1_555 1_555
C20_6 C8_13 1_555 1_555
H11_6 C20_6 1_555 1_555
C21_6 C11_13 1_555 1_555
H12_6 C21_6 1_555 1_555
O8_9 La3_2 1_555 1_555
O11_4 La3_2 1_555 1_555
C20_6 C21_6 1_555 1_555
O4_10 H14_2 1_555 1_555
La3_3 O1_6 1_555 1_555
O1_6 C7_6 1_555 1_555
O4_11 La3_3 1_555 1_555
N1_13 C1_6 1_555 1_555
C5_6 C4_6 1_555 1_555
H3_6 C5_6 1_555 1_555
C6_6 C1_6 1_555 1_555
H4_6 C6_6 1_555 1_555
O8 C19_6 1_555 1_555
C13_6 N1_13 1_555 1_555
C14_6 C13_6 1_555 1_555
H7_6 C14_6 1_555 1_555
C15_6 C14_6 1_555 1_555
H8_6 C15_6 1_555 1_555
C16_6 C15_6 1_555 1_555
C17_6 C16_6 1_555 1_555
H9_6 C17_6 1_555 1_555
C18_6 C13_6 1_555 1_555
H10_6 C18_6 1_555 1_555
C19_6 C16_6 1_555 1_555
O11 C19_6 1_555 1_555
O10_4 La3_3 1_555 1_555
O13_9 La3_3 1_555 1_555
C4_6 C7_6 1_555 1_555
C5_6 C6_6 1_555 1_555
C17_6 C18_6 1_555 1_555
O4_11 H13_2 1_555 1_555
O13_6 C12_14 1_555 1_555
C9_7 C8_14 1_555 1_555
H5_7 C9_7 1_555 1_555
C10_7 C9_7 1_555 1_555
H6_7 C10_7 1_555 1_555
C11_14 C10_7 1_555 1_555
C12_14 C11_14 1_555 1_555
H7_7 C14_7 1_555 1_555
C15_7 C14_7 1_555 1_555
H8_7 C15_7 1_555 1_555
O13_7 C12_14 1_555 1_555
C20_7 C8_14 1_555 1_555
H11_7 C20_7 1_555 1_555
C21_7 C11_14 1_555 1_555
H12_7 C21_7 1_555 1_555
C20_7 C21_7 1_555 1_555
O8_4 C7_7 1_555 1_555
N1_14 C1_7 1_555 1_555
C1_7 C2_7 1_555 1_555
C2_7 H1_7 1_555 1_555
C3_7 C2_7 1_555 1_555
H2_7 C3_7 1_555 1_555
C4_7 C3_7 1_555 1_555
C5_7 C4_7 1_555 1_555
H3_7 C5_7 1_555 1_555
C6_7 C1_7 1_555 1_555
H4_7 C6_7 1_555 1_555
C7_7 O11_4 1_555 1_555
O8_8 C19_7 1_555 1_555
C13_7 N1_14 1_555 1_555
C17_7 C16_7 1_555 1_555
H9_7 C17_7 1_555 1_555
C18_7 C13_7 1_555 1_555
H10_7 C18_7 1_555 1_555
C19_7 C16_7 1_555 1_555
C4_7 C7_7 1_555 1_555
C5_7 C6_7 1_555 1_555
C17_7 C18_7 1_555 1_555
O8_6 C7_8 1_555 1_555
N1_15 C1_8 1_555 1_555
C1_8 C2_8 1_555 1_555
C2_8 H1_8 1_555 1_555
C3_8 C2_8 1_555 1_555
H2_8 C3_8 1_555 1_555
C4_8 C3_8 1_555 1_555
C5_8 C4_8 1_555 1_555
H3_8 C5_8 1_555 1_555
C6_8 C1_8 1_555 1_555
H4_8 C6_8 1_555 1_555
C7_8 O11_6 1_555 1_555
O8_9 C19_8 1_555 1_555
C13_8 N1_15 1_555 1_555
C17_8 C16_8 1_555 1_555
H9_8 C17_8 1_555 1_555
C18_8 C13_8 1_555 1_555
H10_8 C18_8 1_555 1_555
C19_8 C16_8 1_555 1_555
C4_8 C7_8 1_555 1_555
C5_8 C6_8 1_555 1_555
C17_8 C18_8 1_555 1_555
O13_5 C12_15 1_555 1_555
C9_8 C8_15 1_555 1_555
H5_8 C9_8 1_555 1_555
C10_8 C9_8 1_555 1_555
H6_8 C10_8 1_555 1_555
C11_15 C10_8 1_555 1_555
C12_15 C11_15 1_555 1_555
H7_8 C14_8 1_555 1_555
C15_8 C14_8 1_555 1_555
H8_8 C15_8 1_555 1_555
O13_8 C12_15 1_555 1_555
C20_8 C8_15 1_555 1_555
H11_8 C20_8 1_555 1_555
C21_8 C11_15 1_555 1_555
H12_8 C21_8 1_555 1_555
C20_8 C21_8 1_555 1_555
O8_5 C7_9 1_555 1_555
O13_4 C12_16 1_555 1_555
N1_16 C1_9 1_555 1_555
C1_9 C2_9 1_555 1_555
C2_9 H1_9 1_555 1_555
C3_9 C2_9 1_555 1_555
H2_9 C3_9 1_555 1_555
C4_9 C3_9 1_555 1_555
C5_9 C4_9 1_555 1_555
H3_9 C5_9 1_555 1_555
C6_9 C1_9 1_555 1_555
H4_9 C6_9 1_555 1_555
C7_9 O11_5 1_555 1_555
C8_16 N1_16 1_555 1_555
C9_9 C8_16 1_555 1_555
H5_9 C9_9 1_555 1_555
C10_9 C9_9 1_555 1_555
H6_9 C10_9 1_555 1_555
C11_16 C10_9 1_555 1_555
C12_16 C11_16 1_555 1_555
O8_7 C19_9 1_555 1_555
C13_9 N1_16 1_555 1_555
C14_9 C13_9 1_555 1_555
H7_9 C14_9 1_555 1_555
C15_9 C14_9 1_555 1_555
H8_9 C15_9 1_555 1_555
C16_9 C15_9 1_555 1_555
C17_9 C16_9 1_555 1_555
H9_9 C17_9 1_555 1_555
C18_9 C13_9 1_555 1_555
H10_9 C18_9 1_555 1_555
C19_9 C16_9 1_555 1_555
O13_9 C12_16 1_555 1_555
C20_9 C8_16 1_555 1_555
H11_9 C20_9 1_555 1_555
C21_9 C11_16 1_555 1_555
H12_9 C21_9 1_555 1_555
O10_6 C19_9 1_555 1_555
C4_9 C7_9 1_555 1_555
C5_9 C6_9 1_555 1_555
C17_9 C18_9 1_555 1_555
C20_9 C21_9 1_555 1_555
O4_10 H13_3 1_555 1_555
O4_11 H14_3 1_555 1_555
O4_8 H14_4 1_555 1_555
O4_9 H13_4 1_555 1_555

#END
