
###############################################################################
#
# This file contains modified crystal structure data generated from the
# MOF subset of the Cambridge Structural Database (CSD) v543 
# hosted by the Cambridge Crystallographic Data Centre (CCDC).
#
# This work is licensed under the Creative Commons
# Attribution-NonCommercial-ShareAlike 4.0 International License.
# To view a copy of this license, visit
# http://creativecommons.org/licenses/by-nc-sa/4.0/
# or send a letter to
# Creative Commons, PO Box 1866, Mountain View, CA 94042, USA.
#
# CIF created using the CSD Python API on 29 September 2022
# The structure has been converted into the P1 space group
# The structure has a 3D framework
# The original CSD entry RUYQOT is in the rhombohedral crystal system
# The original CSD entry RUYQOT is in a Sohncke space group
# The framework has been calculated to contain at least 10.0% void space
# The void calculation uses a probe of radius 1.32A, grid spacing 0.4
#
###############################################################################

data_RUYQOT
_chemical_formula_moiety         '(C195 H126 La16 N11 O70)n'
_symmetry_cell_setting           triclinic
_symmetry_space_group_name_H-M   'P 1'
_symmetry_Int_Tables_number      1
_space_group_name_Hall           'P 1'
loop_
_symmetry_equiv_pos_site_id
_symmetry_equiv_pos_as_xyz
1 x,y,z
_cell_length_a                   24.2009(7)
_cell_length_b                   24.2009(7)
_cell_length_c                   12.9648(6)
_cell_angle_alpha                90
_cell_angle_beta                 90
_cell_angle_gamma                120
_cell_volume                     6575.96
loop_
_atom_site_label
_atom_site_type_symbol
_atom_site_fract_x
_atom_site_fract_y
_atom_site_fract_z
La1 La 0.6667 0.018900(19) 0.3333
O2 O 0.6185(2) 0.0205(2) 0.1626(3)
O3 O 0.3223(2) 0.2312(2) 0.2515(4)
O4 O 0.6667 0.1225(4) 0.3333
H1 H 0.686(5) 0.156(3) 0.383(5)
C2 C 0.4485(3) 0.0276(3) 0.1898(5)
H2 H 0.4483 0.0623 0.2201
C3 C 0.5054(3) 0.0279(3) 0.1800(5)
H3 H 0.5429 0.0619 0.2054
C8 C 0.3333 0.0349(4) 0.1667
C9 C 0.3633(3) 0.0787(3) 0.0873(5)
H6 H 0.3838 0.0696 0.0349
C10 C 0.3628(3) 0.1366(3) 0.0859(5)
H7 H 0.3818 0.1653 0.0320
C11 C 0.3333 0.1500(4) 0.1667
C12 C 0.3333 0.2132(4) 0.1667
C20 C 0.3034(3) 0.0487(4) 0.2460(5)
H12 H 0.2829 0.0191 0.2984
O6 O 0.3444(2) 0.2422(3) 0.0818(4)
C21 C 0.3039(3) 0.1071(4) 0.2474(5)
H13 H 0.2849 0.1168 0.3013
H14 H 0.647(5) 0.137(6) 0.284(5)
La3 La 0.352200(19) 0.3333 0.3333
La4 La 0.685567(19) 0.0000 0.0000
La5 La 0.314467(19) 0.314433(19) 0.0000
O12 O 0.7148(2) 0.0687(3) 0.5041(3)
O13 O 0.7688(2) 0.0911(3) 0.2515(4)
La4_2 La 0.685567(19) 0.0000 1.0000
La5_2 La 0.314467(19) 0.314433(19) 1.0000
O1 O 0.5693(3) 0.9366(2) 0.0575(3)
N1 N 0.3333 0.9757(3) 0.1667
C1 C 0.3912(3) 0.9762(3) 0.1550(4)
C4 C 0.5065(3) 0.9768(3) 0.1319(5)
C5 C 0.4503(3) 0.9256(3) 0.0937(5)
H4 H 0.4513 0.8919 0.0608
C6 C 0.3921(3) 0.9251(3) 0.1051(4)
H5 H 0.3545 0.8911 0.0797
C7 C 0.5679(3) 0.9774(3) 0.1174(4)
O5 O 0.0482(2) 0.7353(3) 0.1707(3)
C13 C 0.2755(3) 0.9183(4) 0.1783(4)
C14 C 0.2182(3) 0.9124(4) 0.1435(5)
H8 H 0.2184 0.9473 0.1132
C15 C 0.1613(3) 0.8558(4) 0.1533(5)
H9 H 0.1238 0.8523 0.1279
C16 C 0.1602(3) 0.8036(4) 0.2014(5)
C17 C 0.2164(3) 0.8086(4) 0.2396(5)
H10 H 0.2154 0.7739 0.2725
C18 C 0.2746(3) 0.8663(4) 0.2282(4)
H11 H 0.3122 0.8699 0.2536
C19 C 0.0988(3) 0.7428(4) 0.2159(4)
O7 O 0.0974(3) 0.7006(4) 0.2758(3)
La4_3 La 0.685567(19) 1.0000 0.0000
La6 La -0.0000 0.685533(19) 0.0000
O8 O 0.7301(2) 0.9660(4) 0.3908(3)
O9 O 0.6033(2) 0.9026(3) 0.2758(3)
O10 O 0.6462(2) 0.9313(3) 0.4959(3)
O11 O 0.6872(2) 0.9518(2) 0.1707(3)
O14 O 0.5645(2) 0.9890(2) 0.4152(4)
La4_4 La 0.685567(19) 1.0000 1.0000
La6_2 La -0.0000 0.685533(19) 1.0000
La2 La 0.981100(19) 0.647800(19) 0.3333
La6_3 La 1.0000 0.685533(19) 0.0000
La6_4 La 1.0000 0.685533(19) 1.0000
O1_2 O 0.0634(2) 0.6327(4) 0.0575(3)
N1_2 N 0.0243(3) 0.3576(3) 0.1667
C1_2 C 0.0238(3) 0.4150(4) 0.1550(4)
C4_2 C 0.0232(3) 0.5297(4) 0.1319(5)
C5_2 C 0.0744(3) 0.5247(4) 0.0937(5)
H4_2 H 0.1081 0.5594 0.0608
C6_2 C 0.0749(3) 0.4670(4) 0.1051(4)
H5_2 H 0.1089 0.4634 0.0797
C7_2 C 0.0226(3) 0.5905(4) 0.1174(4)
O5_2 O 0.2647(3) 0.3128(4) 0.1707(3)
C13_2 C 0.0817(4) 0.3571(5) 0.1783(4)
C14_2 C 0.0876(4) 0.3057(5) 0.1435(5)
H8_2 H 0.0527 0.2710 0.1132
C15_2 C 0.1442(4) 0.3054(5) 0.1533(5)
H9_2 H 0.1477 0.2714 0.1279
C16_2 C 0.1964(4) 0.3565(5) 0.2014(5)
C17_2 C 0.1914(4) 0.4077(5) 0.2396(5)
H10_2 H 0.2261 0.4414 0.2725
C18_2 C 0.1337(4) 0.4082(5) 0.2282(4)
H11_2 H 0.1301 0.4422 0.2536
C19_2 C 0.2572(4) 0.3559(5) 0.2159(4)
O7_2 O 0.2994(4) 0.3967(5) 0.2758(3)
O8_2 O 0.0340(4) 0.7640(4) 0.3908(3)
O10_2 O 0.0687(3) 0.7148(4) 0.4959(3)
O14_2 O 0.0110(2) 0.5756(3) 0.4152(4)
O2_2 O 0.9795(2) 0.5980(3) 0.1626(3)
O4_2 O 0.8775(4) 0.5442(4) 0.3333
H1_2 H 0.844(3) 0.530(6) 0.383(5)
C2_2 C 0.9724(3) 0.4209(4) 0.1898(5)
H2_2 H 0.9377 0.3860 0.2201
C3_2 C 0.9721(3) 0.4775(4) 0.1800(5)
H3_2 H 0.9381 0.4810 0.2054
C8_2 C 0.9651(4) 0.2984(4) 0.1667
C9_2 C 0.9213(3) 0.2846(4) 0.0873(5)
H6_2 H 0.9304 0.3142 0.0349
C10_2 C 0.8634(3) 0.2262(4) 0.0859(5)
H7_2 H 0.8347 0.2165 0.0320
C11_2 C 0.8500(4) 0.1833(4) 0.1667
C12_2 C 0.7868(4) 0.1201(4) 0.1667
C20_2 C 0.9513(4) 0.2546(5) 0.2460(5)
H12_2 H 0.9809 0.2637 0.2984
O6_2 O 0.7578(3) 0.1021(4) 0.0818(4)
C21_2 C 0.8929(4) 0.1967(5) 0.2474(5)
H13_2 H 0.8832 0.1680 0.3013
H14_2 H 0.863(6) 0.511(8) 0.284(5)
O12_2 O 0.9313(3) 0.6462(4) 0.5041(3)
O13_2 O 0.9089(3) 0.6777(4) 0.2515(4)
O1_3 O 0.3673(4) 0.4307(3) 0.0575(3)
O2_3 O 0.4020(3) 0.3815(2) 0.1626(3)
O4_3 O 0.4558(4) 0.3333 0.3333
H1_3 H 0.470(6) 0.314(5) 0.383(5)
N1_3 N 0.6424(3) 0.6667 0.1667
C1_3 C 0.5850(4) 0.6088(3) 0.1550(4)
C2_3 C 0.5791(4) 0.5515(3) 0.1898(5)
H2_3 H 0.6140 0.5517 0.2201
C3_3 C 0.5225(4) 0.4946(3) 0.1800(5)
H3_3 H 0.5190 0.4571 0.2054
C4_3 C 0.4703(4) 0.4935(3) 0.1319(5)
C5_3 C 0.4753(4) 0.5497(3) 0.0937(5)
H4_3 H 0.4406 0.5487 0.0608
C6_3 C 0.5330(4) 0.6079(3) 0.1051(4)
H5_3 H 0.5366 0.6455 0.0797
C7_3 C 0.4095(4) 0.4321(3) 0.1174(4)
C8_3 C 0.7016(4) 0.6667 0.1667
C9_3 C 0.7154(4) 0.6367(3) 0.0873(5)
H6_3 H 0.6858 0.6162 0.0349
C10_3 C 0.7738(4) 0.6372(3) 0.0859(5)
H7_3 H 0.7835 0.6182 0.0320
C11_3 C 0.8167(4) 0.6667 0.1667
C12_3 C 0.8799(4) 0.6667 0.1667
C13_3 C 0.6429(5) 0.7245(3) 0.1783(4)
C14_3 C 0.6943(5) 0.7818(3) 0.1435(5)
H8_3 H 0.7290 0.7816 0.1132
C15_3 C 0.6946(5) 0.8387(3) 0.1533(5)
H9_3 H 0.7286 0.8762 0.1279
C16_3 C 0.6435(5) 0.8398(3) 0.2014(5)
C17_3 C 0.5923(5) 0.7836(3) 0.2396(5)
H10_3 H 0.5586 0.7846 0.2725
C18_3 C 0.5918(5) 0.7254(3) 0.2282(4)
H11_3 H 0.5578 0.6878 0.2536
C19_3 C 0.6441(5) 0.9012(3) 0.2159(4)
C20_3 C 0.7454(5) 0.6966(3) 0.2460(5)
H12_3 H 0.7363 0.7171 0.2984
O6_3 O 0.8979(4) 0.6556(2) 0.0818(4)
C21_3 C 0.8033(5) 0.6961(3) 0.2474(5)
H13_3 H 0.8320 0.7151 0.3013
H14_3 H 0.489(8) 0.353(5) 0.284(5)
O8_3 O 0.2360(4) 0.2699(2) 0.3908(3)
O10_3 O 0.2852(4) 0.3538(2) 0.4959(3)
O12_3 O 0.3538(4) 0.2852(2) 0.5041(3)
O14_3 O 0.4244(3) 0.4355(2) 0.4152(4)
La1_2 La 0.018900(19) 0.6667 0.6667
O2_4 O 0.0205(2) 0.6185(2) 0.8374(3)
O3_2 O 0.2312(2) 0.3223(2) 0.7485(4)
O4_4 O 0.1225(4) 0.6667 0.6667
H1_4 H 0.156(3) 0.686(5) 0.617(5)
C2_4 C 0.0276(3) 0.4485(3) 0.8102(5)
H2_4 H 0.0623 0.4483 0.7799
C3_4 C 0.0279(3) 0.5054(3) 0.8200(5)
H3_4 H 0.0619 0.5429 0.7946
C8_4 C 0.0349(4) 0.3333 0.8333
C9_4 C 0.0787(3) 0.3633(3) 0.9127(5)
H6_4 H 0.0696 0.3838 0.9651
C10_4 C 0.1366(3) 0.3628(3) 0.9141(5)
H7_4 H 0.1653 0.3818 0.9680
C11_4 C 0.1500(4) 0.3333 0.8333
C12_4 C 0.2132(4) 0.3333 0.8333
C20_4 C 0.0487(4) 0.3034(3) 0.7540(5)
H12_4 H 0.0191 0.2829 0.7016
O6_4 O 0.2422(3) 0.3444(2) 0.9182(4)
C21_4 C 0.1071(4) 0.3039(3) 0.7526(5)
H13_4 H 0.1168 0.2849 0.6987
H14_4 H 0.137(6) 0.647(5) 0.716(5)
La3_2 La 0.3333 0.352200(19) 0.6667
O13_3 O 0.0911(3) 0.7688(2) 0.7485(4)
O1_4 O 0.9366(2) 0.5693(3) 0.9425(3)
N1_4 N 0.9757(3) 0.3333 0.8333
C1_4 C 0.9762(3) 0.3912(3) 0.8450(4)
C4_4 C 0.9768(3) 0.5065(3) 0.8681(5)
C5_4 C 0.9256(3) 0.4503(3) 0.9063(5)
H4_4 H 0.8919 0.4513 0.9392
C6_4 C 0.9251(3) 0.3921(3) 0.8949(4)
H5_4 H 0.8911 0.3545 0.9203
C7_4 C 0.9774(3) 0.5679(3) 0.8826(4)
O5_3 O 0.7353(3) 0.0482(2) 0.8293(3)
C13_4 C 0.9183(4) 0.2755(3) 0.8217(4)
C14_4 C 0.9124(4) 0.2182(3) 0.8565(5)
H8_4 H 0.9473 0.2184 0.8868
C15_4 C 0.8558(4) 0.1613(3) 0.8467(5)
H9_4 H 0.8523 0.1238 0.8721
C16_4 C 0.8036(4) 0.1602(3) 0.7986(5)
C17_4 C 0.8086(4) 0.2164(3) 0.7604(5)
H10_4 H 0.7739 0.2154 0.7275
C18_4 C 0.8663(4) 0.2746(3) 0.7718(4)
H11_4 H 0.8699 0.3122 0.7464
C19_4 C 0.7428(4) 0.0988(3) 0.7841(4)
O7_3 O 0.7006(4) 0.0974(3) 0.7242(3)
O8_4 O 0.9660(4) 0.7301(2) 0.6092(3)
O9_2 O 0.9026(3) 0.6033(2) 0.7242(3)
O11_2 O 0.9518(2) 0.6872(2) 0.8293(3)
O14_4 O 0.9890(2) 0.5645(2) 0.5848(4)
La2_2 La 0.647800(19) 0.981100(19) 0.6667
O1_5 O 0.6327(4) 0.0634(2) 0.9425(3)
N1_5 N 0.3576(3) 0.0243(3) 0.8333
C1_5 C 0.4150(4) 0.0238(3) 0.8450(4)
C4_5 C 0.5297(4) 0.0232(3) 0.8681(5)
C5_5 C 0.5247(4) 0.0744(3) 0.9063(5)
H4_5 H 0.5594 0.1081 0.9392
C6_5 C 0.4670(4) 0.0749(3) 0.8949(4)
H5_5 H 0.4634 0.1089 0.9203
C7_5 C 0.5905(4) 0.0226(3) 0.8826(4)
O5_4 O 0.3128(4) 0.2647(3) 0.8293(3)
C13_5 C 0.3571(5) 0.0817(4) 0.8217(4)
C14_5 C 0.3057(5) 0.0876(4) 0.8565(5)
H8_5 H 0.2710 0.0527 0.8868
C15_5 C 0.3054(5) 0.1442(4) 0.8467(5)
H9_5 H 0.2714 0.1477 0.8721
C16_5 C 0.3565(5) 0.1964(4) 0.7986(5)
C17_5 C 0.4077(5) 0.1914(4) 0.7604(5)
H10_5 H 0.4414 0.2261 0.7275
C18_5 C 0.4082(5) 0.1337(4) 0.7718(4)
H11_5 H 0.4422 0.1301 0.7464
C19_5 C 0.3559(5) 0.2572(4) 0.7841(4)
O7_4 O 0.3967(5) 0.2994(4) 0.7242(3)
O8_5 O 0.7640(4) 0.0340(4) 0.6092(3)
O14_5 O 0.5756(3) 0.0110(2) 0.5848(4)
O2_5 O 0.5980(3) 0.9795(2) 0.8374(3)
O4_5 O 0.5442(4) 0.8775(4) 0.6667
H1_5 H 0.530(6) 0.844(3) 0.617(5)
C2_5 C 0.4209(4) 0.9724(3) 0.8102(5)
H2_5 H 0.3860 0.9377 0.7799
C3_5 C 0.4775(4) 0.9721(3) 0.8200(5)
H3_5 H 0.4810 0.9381 0.7946
C8_5 C 0.2984(4) 0.9651(4) 0.8333
C9_5 C 0.2846(4) 0.9213(3) 0.9127(5)
H6_5 H 0.3142 0.9304 0.9651
C10_5 C 0.2262(4) 0.8634(3) 0.9141(5)
H7_5 H 0.2165 0.8347 0.9680
C11_5 C 0.1833(4) 0.8500(4) 0.8333
C12_5 C 0.1201(4) 0.7868(4) 0.8333
C20_5 C 0.2546(5) 0.9513(4) 0.7540(5)
H12_5 H 0.2637 0.9809 0.7016
O6_5 O 0.1021(4) 0.7578(3) 0.9182(4)
C21_5 C 0.1967(5) 0.8929(4) 0.7526(5)
H13_5 H 0.1680 0.8832 0.6987
H14_5 H 0.511(8) 0.863(6) 0.716(5)
O13_4 O 0.6777(4) 0.9089(3) 0.7485(4)
O1_6 O 0.4307(3) 0.3673(4) 0.9425(3)
O2_6 O 0.3815(2) 0.4020(3) 0.8374(3)
O4_6 O 0.3333 0.4558(4) 0.6667
H1_6 H 0.314(5) 0.470(6) 0.617(5)
N1_6 N 0.6667 0.6424(3) 0.8333
C1_6 C 0.6088(3) 0.5850(4) 0.8450(4)
C2_6 C 0.5515(3) 0.5791(4) 0.8102(5)
H2_6 H 0.5517 0.6140 0.7799
C3_6 C 0.4946(3) 0.5225(4) 0.8200(5)
H3_6 H 0.4571 0.5190 0.7946
C4_6 C 0.4935(3) 0.4703(4) 0.8681(5)
C5_6 C 0.5497(3) 0.4753(4) 0.9063(5)
H4_6 H 0.5487 0.4406 0.9392
C6_6 C 0.6079(3) 0.5330(4) 0.8949(4)
H5_6 H 0.6455 0.5366 0.9203
C7_6 C 0.4321(3) 0.4095(4) 0.8826(4)
C8_6 C 0.6667 0.7016(4) 0.8333
C9_6 C 0.6367(3) 0.7154(4) 0.9127(5)
H6_6 H 0.6162 0.6858 0.9651
C10_6 C 0.6372(3) 0.7738(4) 0.9141(5)
H7_6 H 0.6182 0.7835 0.9680
C11_6 C 0.6667 0.8167(4) 0.8333
C12_6 C 0.6667 0.8799(4) 0.8333
C13_6 C 0.7245(3) 0.6429(5) 0.8217(4)
C14_6 C 0.7818(3) 0.6943(5) 0.8565(5)
H8_6 H 0.7816 0.7290 0.8868
C15_6 C 0.8387(3) 0.6946(5) 0.8467(5)
H9_6 H 0.8762 0.7286 0.8721
C16_6 C 0.8398(3) 0.6435(5) 0.7986(5)
C17_6 C 0.7836(3) 0.5923(5) 0.7604(5)
H10_6 H 0.7846 0.5586 0.7275
C18_6 C 0.7254(3) 0.5918(5) 0.7718(4)
H11_6 H 0.6878 0.5578 0.7464
C19_6 C 0.9012(3) 0.6441(5) 0.7841(4)
C20_6 C 0.6966(3) 0.7454(5) 0.7540(5)
H12_6 H 0.7171 0.7363 0.7016
O6_6 O 0.6556(2) 0.8979(4) 0.9182(4)
C21_6 C 0.6961(3) 0.8033(5) 0.7526(5)
H13_6 H 0.7151 0.8320 0.6987
H14_6 H 0.353(5) 0.489(8) 0.716(5)
O8_6 O 0.2699(2) 0.2360(4) 0.6092(3)
O14_6 O 0.4355(2) 0.4244(3) 0.5848(4)
N1_7 N -0.0000 0.3090(3) 0.5000
C1_7 C 0.0579(3) 0.3095(3) 0.4883(4)
C2_7 C 0.1152(3) 0.3609(3) 0.5231(5)
H2_7 H 0.1150 0.3956 0.5534
C3_7 C 0.1721(3) 0.3612(3) 0.5133(5)
H3_7 H 0.2096 0.3952 0.5387
C4_7 C 0.1732(3) 0.3101(3) 0.4652(5)
C5_7 C 0.1170(3) 0.2589(3) 0.4270(5)
H4_7 H 0.1180 0.2252 0.3941
C6_7 C 0.0588(3) 0.2584(3) 0.4384(4)
H5_7 H 0.0212 0.2244 0.4130
C7_7 C 0.2346(3) 0.3107(3) 0.4507(4)
C8_7 C -0.0000 0.3682(4) 0.5000
C9_7 C 0.0300(3) 0.4120(3) 0.4206(5)
H6_7 H 0.0505 0.4029 0.3682
C10_7 C 0.0295(3) 0.4699(3) 0.4192(5)
H7_7 H 0.0485 0.4986 0.3653
C11_7 C -0.0000 0.4833(4) 0.5000
C12_7 C -0.0000 0.5465(4) 0.5000
N1_8 N 1.0000 0.3090(3) 0.5000
C8_8 C 1.0000 0.3682(4) 0.5000
C11_8 C 1.0000 0.4833(4) 0.5000
C12_8 C 1.0000 0.5465(4) 0.5000
C13_7 C 0.9421(3) 0.2517(4) 0.5117(4)
C14_7 C 0.8848(3) 0.2458(4) 0.4769(5)
H8_7 H 0.8850 0.2807 0.4466
C15_7 C 0.8279(3) 0.1892(4) 0.4867(5)
H9_7 H 0.7904 0.1857 0.4613
C16_7 C 0.8268(3) 0.1370(4) 0.5348(5)
C17_7 C 0.8830(3) 0.1420(4) 0.5730(5)
H10_7 H 0.8820 0.1073 0.6059
C18_7 C 0.9412(3) 0.1997(4) 0.5616(4)
H11_7 H 0.9788 0.2033 0.5870
C19_7 C 0.7654(3) 0.0762(4) 0.5493(4)
C20_7 C 0.9700(3) 0.3821(4) 0.5794(5)
H12_7 H 0.9495 0.3525 0.6318
C21_7 C 0.9705(3) 0.4405(4) 0.5808(5)
H13_7 H 0.9515 0.4502 0.6347
N1_9 N 0.6910(3) 0.6909(3) 0.5000
C1_8 C 0.6905(3) 0.7483(4) 0.4883(4)
C2_8 C 0.6391(3) 0.7542(4) 0.5231(5)
H2_8 H 0.6044 0.7193 0.5534
C3_8 C 0.6388(3) 0.8108(4) 0.5133(5)
H3_8 H 0.6048 0.8143 0.5387
C4_8 C 0.6899(3) 0.8630(4) 0.4652(5)
C5_8 C 0.7411(3) 0.8580(4) 0.4270(5)
H4_8 H 0.7748 0.8927 0.3941
C6_8 C 0.7416(3) 0.8003(4) 0.4384(4)
H5_8 H 0.7756 0.7967 0.4130
C7_8 C 0.6893(3) 0.9238(4) 0.4507(4)
C8_9 C 0.6318(4) 0.6317(4) 0.5000
C9_8 C 0.5880(3) 0.6179(4) 0.4206(5)
H6_8 H 0.5971 0.6475 0.3682
C10_8 C 0.5301(3) 0.5595(4) 0.4192(5)
H7_8 H 0.5014 0.5498 0.3653
C11_9 C 0.5167(4) 0.5166(4) 0.5000
C12_9 C 0.4535(4) 0.4534(4) 0.5000
C13_8 C 0.7483(4) 0.6905(5) 0.5117(4)
C14_8 C 0.7542(4) 0.6391(5) 0.4769(5)
H8_8 H 0.7193 0.6044 0.4466
C15_8 C 0.8108(4) 0.6388(5) 0.4867(5)
H9_8 H 0.8143 0.6048 0.4613
C16_8 C 0.8630(4) 0.6899(5) 0.5348(5)
C17_8 C 0.8580(4) 0.7411(5) 0.5730(5)
H10_8 H 0.8927 0.7748 0.6059
C18_8 C 0.8003(4) 0.7416(5) 0.5616(4)
H11_8 H 0.7967 0.7756 0.5870
C19_8 C 0.9238(4) 0.6893(5) 0.5493(4)
C20_8 C 0.6179(4) 0.5880(5) 0.5794(5)
H12_8 H 0.6475 0.5971 0.6318
C21_8 C 0.5595(4) 0.5301(5) 0.5808(5)
H13_8 H 0.5498 0.5014 0.6347
N1_10 N 0.3091(3) 0.0000 0.5000
C8_10 C 0.3683(4) 0.0000 0.5000
C11_10 C 0.4834(4) 0.0000 0.5000
C12_10 C 0.5466(4) 0.0000 0.5000
C13_9 C 0.3095(5) 0.0579(3) 0.5117(4)
C14_9 C 0.3609(5) 0.1152(3) 0.4769(5)
H8_9 H 0.3956 0.1150 0.4466
C15_9 C 0.3612(5) 0.1721(3) 0.4867(5)
H9_9 H 0.3952 0.2096 0.4613
C16_9 C 0.3101(5) 0.1732(3) 0.5348(5)
C17_9 C 0.2589(5) 0.1170(3) 0.5730(5)
H10_9 H 0.2252 0.1180 0.6059
C18_9 C 0.2584(5) 0.0588(3) 0.5616(4)
H11_9 H 0.2244 0.0212 0.5870
C19_9 C 0.3107(5) 0.2346(3) 0.5493(4)
C20_9 C 0.4120(5) 0.0300(3) 0.5794(5)
H12_9 H 0.4029 0.0505 0.6318
C21_9 C 0.4699(5) 0.0295(3) 0.5808(5)
H13_9 H 0.4986 0.0485 0.6347
N1_11 N 0.3091(3) 1.0000 0.5000
C1_9 C 0.2517(4) 0.9421(3) 0.4883(4)
C2_9 C 0.2458(4) 0.8848(3) 0.5231(5)
H2_9 H 0.2807 0.8850 0.5534
C3_9 C 0.1892(4) 0.8279(3) 0.5133(5)
H3_9 H 0.1857 0.7904 0.5387
C4_9 C 0.1370(4) 0.8268(3) 0.4652(5)
C5_9 C 0.1420(4) 0.8830(3) 0.4270(5)
H4_9 H 0.1073 0.8820 0.3941
C6_9 C 0.1997(4) 0.9412(3) 0.4384(4)
H5_9 H 0.2033 0.9788 0.4130
C7_9 C 0.0762(4) 0.7654(3) 0.4507(4)
C8_11 C 0.3683(4) 1.0000 0.5000
C9_9 C 0.3821(4) 0.9700(3) 0.4206(5)
H6_9 H 0.3525 0.9495 0.3682
C10_9 C 0.4405(4) 0.9705(3) 0.4192(5)
H7_9 H 0.4502 0.9515 0.3653
C11_11 C 0.4834(4) 1.0000 0.5000
C12_11 C 0.5466(4) 1.0000 0.5000
O4_7 O 0.7892(4) 0.0000 0.0000
O4_8 O 0.7892(4) 0.0000 1.0000
H1_7 H 0.823(3) 0.019(5) 0.950(5)
O4_9 O 0.7892(4) 1.0000 0.0000
H14_7 H 0.803(6) 0.981(5) 0.050(5)
O4_10 O 0.7892(4) 1.0000 1.0000
O4_11 O 0.2109(4) 0.2108(4) 0.0000
H14_8 H 0.177(8) 0.197(6) 0.050(5)
O4_12 O 0.2109(4) 0.2108(4) 1.0000
H1_8 H 0.197(6) 0.177(3) 0.950(5)
O4_13 O -0.0000 0.7891(4) 0.0000
H14_9 H 0.019(5) 0.823(8) 0.050(5)
O4_14 O -0.0000 0.7891(4) 1.0000
O4_15 O 1.0000 0.7891(4) 0.0000
O4_16 O 1.0000 0.7891(4) 1.0000
H1_9 H 0.981(5) 0.803(6) 0.950(5)
loop_
_geom_bond_atom_site_label_1
_geom_bond_atom_site_label_2
_geom_bond_site_symmetry_1
_geom_bond_site_symmetry_2
La1 O2 1_555 1_555
O3 C12 1_555 1_555
O4 La1 1_555 1_555
H1 O4 1_555 1_555
C2 H2 1_555 1_555
C3 C2 1_555 1_555
H3 C3 1_555 1_555
C9 C8 1_555 1_555
H6 C9 1_555 1_555
C10 C9 1_555 1_555
H7 C10 1_555 1_555
C11 C10 1_555 1_555
C12 C11 1_555 1_555
C20 C8 1_555 1_555
H12 C20 1_555 1_555
O6 C12 1_555 1_555
C21 C11 1_555 1_555
H13 C21 1_555 1_555
H14 O4 1_555 1_555
La3 O3 1_555 1_555
La5 O6 1_555 1_555
O12 La1 1_555 1_555
O13 La1 1_555 1_555
O2 La4 1_555 1_555
C20 C21 1_555 1_555
O1 C7 1_555 1_555
N1 C1 1_555 1_555
C5 C4 1_555 1_555
H4 C5 1_555 1_555
C6 C1 1_555 1_555
H5 C6 1_555 1_555
C7 C4 1_555 1_555
O5 C19 1_555 1_555
C13 N1 1_555 1_555
C14 C13 1_555 1_555
H8 C14 1_555 1_555
C15 C14 1_555 1_555
H9 C15 1_555 1_555
C16 C15 1_555 1_555
C17 C16 1_555 1_555
H10 C17 1_555 1_555
C18 C13 1_555 1_555
H11 C18 1_555 1_555
C19 C16 1_555 1_555
O7 C19 1_555 1_555
La4_3 O1 1_555 1_555
La6 O5 1_555 1_555
C5 C6 1_555 1_555
C17 C18 1_555 1_555
La4_3 O11 1_555 1_555
O1_2 C7_2 1_555 1_555
N1_2 C1_2 1_555 1_555
C5_2 C4_2 1_555 1_555
H4_2 C5_2 1_555 1_555
C6_2 C1_2 1_555 1_555
H5_2 C6_2 1_555 1_555
C7_2 C4_2 1_555 1_555
O5_2 C19_2 1_555 1_555
C13_2 N1_2 1_555 1_555
C14_2 C13_2 1_555 1_555
H8_2 C14_2 1_555 1_555
C15_2 C14_2 1_555 1_555
H9_2 C15_2 1_555 1_555
C16_2 C15_2 1_555 1_555
C17_2 C16_2 1_555 1_555
H10_2 C17_2 1_555 1_555
C18_2 C13_2 1_555 1_555
H11_2 C18_2 1_555 1_555
C19_2 C16_2 1_555 1_555
O7_2 C19_2 1_555 1_555
La3 O5_2 1_555 1_555
La6 O1_2 1_555 1_555
La5 O5_2 1_555 1_555
C5_2 C6_2 1_555 1_555
C17_2 C18_2 1_555 1_555
O7_2 La3 1_555 1_555
La2 O2_2 1_555 1_555
O13 C12_2 1_555 1_555
O4_2 La2 1_555 1_555
H1_2 O4_2 1_555 1_555
C2_2 H2_2 1_555 1_555
C3_2 C2_2 1_555 1_555
H3_2 C3_2 1_555 1_555
C9_2 C8_2 1_555 1_555
H6_2 C9_2 1_555 1_555
C10_2 C9_2 1_555 1_555
H7_2 C10_2 1_555 1_555
C11_2 C10_2 1_555 1_555
C12_2 C11_2 1_555 1_555
C20_2 C8_2 1_555 1_555
H12_2 C20_2 1_555 1_555
O6_2 C12_2 1_555 1_555
C21_2 C11_2 1_555 1_555
H13_2 C21_2 1_555 1_555
H14_2 O4_2 1_555 1_555
La4 O6_2 1_555 1_555
O12_2 La2 1_555 1_555
O13_2 La2 1_555 1_555
O2_2 La6_3 1_555 1_555
C20_2 C21_2 1_555 1_555
La3 O2_3 1_555 1_555
O1_3 C7_3 1_555 1_555
O2_3 C7_3 1_555 1_555
O13_2 C12_3 1_555 1_555
O4_3 La3 1_555 1_555
H1_3 O4_3 1_555 1_555
N1_3 C1_3 1_555 1_555
C1_3 C2_3 1_555 1_555
C2_3 H2_3 1_555 1_555
C3_3 C2_3 1_555 1_555
H3_3 C3_3 1_555 1_555
C4_3 C3_3 1_555 1_555
C5_3 C4_3 1_555 1_555
H4_3 C5_3 1_555 1_555
C6_3 C1_3 1_555 1_555
H5_3 C6_3 1_555 1_555
C7_3 C4_3 1_555 1_555
C8_3 N1_3 1_555 1_555
C9_3 C8_3 1_555 1_555
H6_3 C9_3 1_555 1_555
C10_3 C9_3 1_555 1_555
H7_3 C10_3 1_555 1_555
C11_3 C10_3 1_555 1_555
C12_3 C11_3 1_555 1_555
O11 C19_3 1_555 1_555
C13_3 N1_3 1_555 1_555
C14_3 C13_3 1_555 1_555
H8_3 C14_3 1_555 1_555
C15_3 C14_3 1_555 1_555
H9_3 C15_3 1_555 1_555
C16_3 C15_3 1_555 1_555
C17_3 C16_3 1_555 1_555
H10_3 C17_3 1_555 1_555
C18_3 C13_3 1_555 1_555
H11_3 C18_3 1_555 1_555
C19_3 C16_3 1_555 1_555
C20_3 C8_3 1_555 1_555
H12_3 C20_3 1_555 1_555
O6_3 C12_3 1_555 1_555
C21_3 C11_3 1_555 1_555
H13_3 C21_3 1_555 1_555
O9 C19_3 1_555 1_555
H14_3 O4_3 1_555 1_555
La5 O1_3 1_555 1_555
La6_3 O6_3 1_555 1_555
O8_3 La3 1_555 1_555
O10_3 La3 1_555 1_555
O12_3 La3 1_555 1_555
O14_3 La3 1_555 1_555
O2_3 La5 1_555 1_555
C5_3 C6_3 1_555 1_555
C17_3 C18_3 1_555 1_555
C20_3 C21_3 1_555 1_555
La1_2 O2_4 1_555 1_555
O3_2 C12_4 1_555 1_555
O4_4 La1_2 1_555 1_555
H1_4 O4_4 1_555 1_555
C2_4 H2_4 1_555 1_555
C3_4 C2_4 1_555 1_555
H3_4 C3_4 1_555 1_555
C9_4 C8_4 1_555 1_555
H6_4 C9_4 1_555 1_555
C10_4 C9_4 1_555 1_555
H7_4 C10_4 1_555 1_555
C11_4 C10_4 1_555 1_555
C12_4 C11_4 1_555 1_555
C20_4 C8_4 1_555 1_555
H12_4 C20_4 1_555 1_555
O6_4 C12_4 1_555 1_555
C21_4 C11_4 1_555 1_555
H13_4 C21_4 1_555 1_555
H14_4 O4_4 1_555 1_555
La3_2 O3_2 1_555 1_555
La5_2 O6_4 1_555 1_555
O10_2 La1_2 1_555 1_555
O13_3 La1_2 1_555 1_555
O2_4 La6_2 1_555 1_555
C20_4 C21_4 1_555 1_555
O1_4 C7_4 1_555 1_555
N1_4 C1_4 1_555 1_555
C5_4 C4_4 1_555 1_555
H4_4 C5_4 1_555 1_555
C6_4 C1_4 1_555 1_555
H5_4 C6_4 1_555 1_555
C7_4 C4_4 1_555 1_555
O5_3 C19_4 1_555 1_555
C13_4 N1_4 1_555 1_555
C14_4 C13_4 1_555 1_555
H8_4 C14_4 1_555 1_555
C15_4 C14_4 1_555 1_555
H9_4 C15_4 1_555 1_555
C16_4 C15_4 1_555 1_555
C17_4 C16_4 1_555 1_555
H10_4 C17_4 1_555 1_555
C18_4 C13_4 1_555 1_555
H11_4 C18_4 1_555 1_555
C19_4 C16_4 1_555 1_555
O7_3 C19_4 1_555 1_555
La6_4 O1_4 1_555 1_555
La4_2 O5_3 1_555 1_555
C5_4 C6_4 1_555 1_555
C17_4 C18_4 1_555 1_555
La6_4 O11_2 1_555 1_555
O1_5 C7_5 1_555 1_555
N1_5 C1_5 1_555 1_555
C5_5 C4_5 1_555 1_555
H4_5 C5_5 1_555 1_555
C6_5 C1_5 1_555 1_555
H5_5 C6_5 1_555 1_555
C7_5 C4_5 1_555 1_555
O5_4 C19_5 1_555 1_555
C13_5 N1_5 1_555 1_555
C14_5 C13_5 1_555 1_555
H8_5 C14_5 1_555 1_555
C15_5 C14_5 1_555 1_555
H9_5 C15_5 1_555 1_555
C16_5 C15_5 1_555 1_555
C17_5 C16_5 1_555 1_555
H10_5 C17_5 1_555 1_555
C18_5 C13_5 1_555 1_555
H11_5 C18_5 1_555 1_555
C19_5 C16_5 1_555 1_555
O7_4 C19_5 1_555 1_555
La3_2 O5_4 1_555 1_555
La4_2 O1_5 1_555 1_555
La5_2 O5_4 1_555 1_555
C5_5 C6_5 1_555 1_555
C17_5 C18_5 1_555 1_555
O7_4 La3_2 1_555 1_555
La2_2 O2_5 1_555 1_555
O13_3 C12_5 1_555 1_555
O4_5 La2_2 1_555 1_555
H1_5 O4_5 1_555 1_555
C2_5 H2_5 1_555 1_555
C3_5 C2_5 1_555 1_555
H3_5 C3_5 1_555 1_555
C9_5 C8_5 1_555 1_555
H6_5 C9_5 1_555 1_555
C10_5 C9_5 1_555 1_555
H7_5 C10_5 1_555 1_555
C11_5 C10_5 1_555 1_555
C12_5 C11_5 1_555 1_555
C20_5 C8_5 1_555 1_555
H12_5 C20_5 1_555 1_555
O6_5 C12_5 1_555 1_555
C21_5 C11_5 1_555 1_555
H13_5 C21_5 1_555 1_555
H14_5 O4_5 1_555 1_555
La6_2 O6_5 1_555 1_555
O10 La2_2 1_555 1_555
O13_4 La2_2 1_555 1_555
O2_5 La4_4 1_555 1_555
C20_5 C21_5 1_555 1_555
La3_2 O2_6 1_555 1_555
O1_6 C7_6 1_555 1_555
O2_6 C7_6 1_555 1_555
O13_4 C12_6 1_555 1_555
O4_6 La3_2 1_555 1_555
H1_6 O4_6 1_555 1_555
N1_6 C1_6 1_555 1_555
C1_6 C2_6 1_555 1_555
C2_6 H2_6 1_555 1_555
C3_6 C2_6 1_555 1_555
H3_6 C3_6 1_555 1_555
C4_6 C3_6 1_555 1_555
C5_6 C4_6 1_555 1_555
H4_6 C5_6 1_555 1_555
C6_6 C1_6 1_555 1_555
H5_6 C6_6 1_555 1_555
C7_6 C4_6 1_555 1_555
C8_6 N1_6 1_555 1_555
C9_6 C8_6 1_555 1_555
H6_6 C9_6 1_555 1_555
C10_6 C9_6 1_555 1_555
H7_6 C10_6 1_555 1_555
C11_6 C10_6 1_555 1_555
C12_6 C11_6 1_555 1_555
O11_2 C19_6 1_555 1_555
C13_6 N1_6 1_555 1_555
C14_6 C13_6 1_555 1_555
H8_6 C14_6 1_555 1_555
C15_6 C14_6 1_555 1_555
H9_6 C15_6 1_555 1_555
C16_6 C15_6 1_555 1_555
C17_6 C16_6 1_555 1_555
H10_6 C17_6 1_555 1_555
C18_6 C13_6 1_555 1_555
H11_6 C18_6 1_555 1_555
C19_6 C16_6 1_555 1_555
C20_6 C8_6 1_555 1_555
H12_6 C20_6 1_555 1_555
O6_6 C12_6 1_555 1_555
C21_6 C11_6 1_555 1_555
H13_6 C21_6 1_555 1_555
O9_2 C19_6 1_555 1_555
H14_6 O4_6 1_555 1_555
La5_2 O1_6 1_555 1_555
La4_4 O6_6 1_555 1_555
O8_6 La3_2 1_555 1_555
O12_3 La3_2 1_555 1_555
O10_3 La3_2 1_555 1_555
O14_6 La3_2 1_555 1_555
O2_6 La5_2 1_555 1_555
C5_6 C6_6 1_555 1_555
C17_6 C18_6 1_555 1_555
C20_6 C21_6 1_555 1_555
O8_3 C7_7 1_555 1_555
O10_3 C7_7 1_555 1_555
N1_7 C1_7 1_555 1_555
C1_7 C2_7 1_555 1_555
C2_7 H2_7 1_555 1_555
C3_7 C2_7 1_555 1_555
H3_7 C3_7 1_555 1_555
C4_7 C3_7 1_555 1_555
C5_7 C4_7 1_555 1_555
H4_7 C5_7 1_555 1_555
C6_7 C1_7 1_555 1_555
H5_7 C6_7 1_555 1_555
C7_7 C4_7 1_555 1_555
C8_7 N1_7 1_555 1_555
C9_7 C8_7 1_555 1_555
H6_7 C9_7 1_555 1_555
C10_7 C9_7 1_555 1_555
H7_7 C10_7 1_555 1_555
C11_7 C10_7 1_555 1_555
C12_7 C11_7 1_555 1_555
O14_2 C12_7 1_555 1_555
C5_7 C6_7 1_555 1_555
O14_4 C12_8 1_555 1_555
C8_8 N1_8 1_555 1_555
C12_8 C11_8 1_555 1_555
O12 C19_7 1_555 1_555
C13_7 N1_8 1_555 1_555
C14_7 C13_7 1_555 1_555
H8_7 C14_7 1_555 1_555
C15_7 C14_7 1_555 1_555
H9_7 C15_7 1_555 1_555
C16_7 C15_7 1_555 1_555
C17_7 C16_7 1_555 1_555
H10_7 C17_7 1_555 1_555
C18_7 C13_7 1_555 1_555
H11_7 C18_7 1_555 1_555
C19_7 C16_7 1_555 1_555
C20_7 C8_8 1_555 1_555
H12_7 C20_7 1_555 1_555
C21_7 C11_8 1_555 1_555
H13_7 C21_7 1_555 1_555
O8_5 C19_7 1_555 1_555
C17_7 C18_7 1_555 1_555
C20_7 C21_7 1_555 1_555
O8 C7_8 1_555 1_555
O10 C7_8 1_555 1_555
O14_6 C12_9 1_555 1_555
N1_9 C1_8 1_555 1_555
C1_8 C2_8 1_555 1_555
C2_8 H2_8 1_555 1_555
C3_8 C2_8 1_555 1_555
H3_8 C3_8 1_555 1_555
C4_8 C3_8 1_555 1_555
C5_8 C4_8 1_555 1_555
H4_8 C5_8 1_555 1_555
C6_8 C1_8 1_555 1_555
H5_8 C6_8 1_555 1_555
C7_8 C4_8 1_555 1_555
C8_9 N1_9 1_555 1_555
C9_8 C8_9 1_555 1_555
H6_8 C9_8 1_555 1_555
C10_8 C9_8 1_555 1_555
H7_8 C10_8 1_555 1_555
C11_9 C10_8 1_555 1_555
C12_9 C11_9 1_555 1_555
O12_2 C19_8 1_555 1_555
C13_8 N1_9 1_555 1_555
C14_8 C13_8 1_555 1_555
H8_8 C14_8 1_555 1_555
C15_8 C14_8 1_555 1_555
H9_8 C15_8 1_555 1_555
C16_8 C15_8 1_555 1_555
C17_8 C16_8 1_555 1_555
H10_8 C17_8 1_555 1_555
C18_8 C13_8 1_555 1_555
H11_8 C18_8 1_555 1_555
C19_8 C16_8 1_555 1_555
C20_8 C8_9 1_555 1_555
H12_8 C20_8 1_555 1_555
O14_3 C12_9 1_555 1_555
C21_8 C11_9 1_555 1_555
H13_8 C21_8 1_555 1_555
O8_4 C19_8 1_555 1_555
C5_8 C6_8 1_555 1_555
C17_8 C18_8 1_555 1_555
C20_8 C21_8 1_555 1_555
O14_5 C12_10 1_555 1_555
C8_10 N1_10 1_555 1_555
C12_10 C11_10 1_555 1_555
O12_3 C19_9 1_555 1_555
C13_9 N1_10 1_555 1_555
C14_9 C13_9 1_555 1_555
H8_9 C14_9 1_555 1_555
C15_9 C14_9 1_555 1_555
H9_9 C15_9 1_555 1_555
C16_9 C15_9 1_555 1_555
C17_9 C16_9 1_555 1_555
H10_9 C17_9 1_555 1_555
C18_9 C13_9 1_555 1_555
H11_9 C18_9 1_555 1_555
C19_9 C16_9 1_555 1_555
C20_9 C8_10 1_555 1_555
H12_9 C20_9 1_555 1_555
C21_9 C11_10 1_555 1_555
H13_9 C21_9 1_555 1_555
O8_6 C19_9 1_555 1_555
C17_9 C18_9 1_555 1_555
C20_9 C21_9 1_555 1_555
O8_2 C7_9 1_555 1_555
O10_2 C7_9 1_555 1_555
N1_11 C1_9 1_555 1_555
C1_9 C2_9 1_555 1_555
C2_9 H2_9 1_555 1_555
C3_9 C2_9 1_555 1_555
H3_9 C3_9 1_555 1_555
C4_9 C3_9 1_555 1_555
C5_9 C4_9 1_555 1_555
H4_9 C5_9 1_555 1_555
C6_9 C1_9 1_555 1_555
H5_9 C6_9 1_555 1_555
C7_9 C4_9 1_555 1_555
C8_11 N1_11 1_555 1_555
C9_9 C8_11 1_555 1_555
H6_9 C9_9 1_555 1_555
C10_9 C9_9 1_555 1_555
H7_9 C10_9 1_555 1_555
C11_11 C10_9 1_555 1_555
C12_11 C11_11 1_555 1_555
O14 C12_11 1_555 1_555
C5_9 C6_9 1_555 1_555
O4_7 La4 1_555 1_555
O4_8 La4_2 1_555 1_555
H1_7 O4_8 1_555 1_555
O4_9 La4_3 1_555 1_555
H14_7 O4_9 1_555 1_555
O4_10 La4_4 1_555 1_555
O4_11 La5 1_555 1_555
H14_8 O4_11 1_555 1_555
O4_12 La5_2 1_555 1_555
H1_8 O4_12 1_555 1_555
O4_13 La6 1_555 1_555
H14_9 O4_13 1_555 1_555
O4_14 La6_2 1_555 1_555
O4_15 La6_3 1_555 1_555
O4_16 La6_4 1_555 1_555
H1_9 O4_16 1_555 1_555

#END
