
###############################################################################
#
# This file contains modified crystal structure data generated from the
# MOF subset of the Cambridge Structural Database (CSD) v543 
# hosted by the Cambridge Crystallographic Data Centre (CCDC).
#
# This work is licensed under the Creative Commons
# Attribution-NonCommercial-ShareAlike 4.0 International License.
# To view a copy of this license, visit
# http://creativecommons.org/licenses/by-nc-sa/4.0/
# or send a letter to
# Creative Commons, PO Box 1866, Mountain View, CA 94042, USA.
#
# CIF created using the CSD Python API on 29 September 2022
# The structure has been converted into the P1 space group
# The structure has a 3D framework
# The original CSD entry RUYQIN01 is in the rhombohedral crystal system
# The original CSD entry RUYQIN01 is in a Sohncke space group
# The framework has been calculated to contain at least 10.0% void space
# The void calculation uses a probe of radius 1.32A, grid spacing 0.4
# H atom positions have been added when not included in the experimental data
# Generated hydrogen atom positions removed from atoms on special positions
#
###############################################################################

data_RUYQIN01
_chemical_formula_moiety         '(C210 H144 La11 N16 O63)n'
_symmetry_cell_setting           triclinic
_symmetry_space_group_name_H-M   'P 1'
_symmetry_Int_Tables_number      1
_space_group_name_Hall           'P 1'
loop_
_symmetry_equiv_pos_site_id
_symmetry_equiv_pos_as_xyz
1 x,y,z
_cell_length_a                   24.1970(6)
_cell_length_b                   24.1970(6)
_cell_length_c                   13.1426(4)
_cell_angle_alpha                90
_cell_angle_beta                 90
_cell_angle_gamma                120
_cell_volume                     6664
loop_
_atom_site_label
_atom_site_type_symbol
_atom_site_fract_x
_atom_site_fract_y
_atom_site_fract_z
N1 N -0.0000 0.3100(3) 0.0000
C8 C 0.0000 0.3697(3) 0.0000
C11 C -0.0000 0.4835(3) 0.0000
C12 C -0.0000 0.5457(4) 0.0000
C14 C 0.1156(3) 0.3623(4) 0.0239(5)
H7 H 0.1156 0.3968 0.0546
C15 C 0.1725(3) 0.3610(4) 0.0132(5)
H8 H 0.2099 0.3948 0.0387
La2 La 0.018387(18) 0.666667(25) 0.1667
La3 La 0.333333(25) 0.351720(18) 0.1667
N1_2 N -0.0000 0.3100(3) 1.0000
C8_2 C -0.0000 0.3697(3) 1.0000
C11_2 C -0.0000 0.4835(3) 1.0000
C12_2 C -0.0000 0.5457(4) 1.0000
O5 O 0.23574(17) 0.27134(26) 0.8916(3)
C13 C 0.0584(3) 0.3106(4) 0.9876(5)
C16 C 0.1747(3) 0.3126(4) 0.9672(5)
C17 C 0.0594(3) 0.2596(4) 0.9377(5)
H9 H 0.0222 0.2259 0.9116
C18 C 0.1179(3) 0.2609(4) 0.9279(5)
H10 H 0.1193 0.2275 0.8954
C19 C 0.2339(3) 0.3102(4) 0.9514(5)
O6 O 0.0064(3) 0.5739(5) 0.9158(4)
C20 C 0.0273(3) 0.4113(5) 0.9211(5)
H11 H 0.0470 0.4020 0.8685
C21 C 0.0253(3) 0.4671(5) 0.9202(5)
H12 H 0.0414 0.4942 0.8645
O7 O 0.28441(27) 0.35394(32) 0.9983(3)
La6 La 0.351720(18) 0.333333(25) 0.8333
O1 O 0.76426(17) 0.0356(2) 0.1084(3)
O2 O 0.71559(27) 0.06953(18) 0.0017(3)
O3 O 0.9936(3) 0.5675(4) 0.0842(4)
N1_3 N 1.0000 0.3100(3) 0.0000
C1 C 0.9416(3) 0.2522(3) 0.0124(5)
C4 C 0.8253(3) 0.1379(3) 0.0328(5)
C5 C 0.9406(3) 0.2002(3) 0.0623(5)
H3 H 0.9778 0.2037 0.0884
C6 C 0.8821(3) 0.1430(3) 0.0721(5)
H4 H 0.8807 0.1082 0.1046
C7 C 0.7661(3) 0.0763(3) 0.0486(5)
C8_3 C 1.0000 0.3697(3) 0.0000
C9 C 0.9727(3) 0.3840(4) 0.0789(5)
H5 H 0.9530 0.3550 0.1315
C10 C 0.9747(3) 0.4418(4) 0.0798(5)
H6 H 0.9586 0.4528 0.1355
C11_3 C 1.0000 0.4835(3) 0.0000
C12_3 C 1.0000 0.5457(4) 0.0000
O8 O 0.7023(2) 0.09759(17) 0.2249(3)
O11 O 0.73620(18) 0.04892(27) 0.3316(3)
O12 O 0.5739(5) 0.0064(3) 0.0842(4)
N1_4 N 1.0000 0.3100(3) 1.0000
C2 C 0.8844(3) 0.2467(3) 0.9761(5)
H1 H 0.8844 0.2812 0.9454
C3 C 0.8275(3) 0.1885(3) 0.9868(5)
H2 H 0.7901 0.1849 0.9613
C8_4 C 1.0000 0.3697(3) 1.0000
C11_4 C 1.0000 0.4835(3) 1.0000
C12_4 C 1.0000 0.5457(4) 1.0000
La4 La 0.981613(18) 0.648280(18) 0.8333
La5 La 0.666667(25) 0.018387(18) 0.8333
La1 La 0.648280(18) 0.981613(18) 0.1667
O4 O 0.5418(4) 0.8751(4) 0.1667
O10 O 0.59714(18) 0.97939(32) 0.3350(3)
O13 O 0.6731(3) 0.9072(5) 0.2491(4)
O9 O 0.64606(32) 0.93047(18) 0.9983(3)
O4_2 O 0.1249(4) 0.6667(6) 0.1667
O10_2 O 0.02061(32) 0.61774(37) 0.3350(3)
O13_2 O 0.0928(5) 0.7658(6) 0.2491(4)
O9_2 O 0.06953(18) 0.71559(37) 0.9983(3)
O1_2 O 0.9644(2) 0.72866(26) 0.1084(3)
O2_2 O 0.93047(18) 0.64606(32) 0.0017(3)
O3_2 O 0.4325(4) 0.4261(5) 0.0842(4)
N1_5 N 0.6900(3) 0.6900(3) 0.0000
C1_2 C 0.7478(3) 0.6894(4) 0.0124(5)
C4_2 C 0.8621(3) 0.6874(4) 0.0328(5)
C5_2 C 0.7998(3) 0.7404(4) 0.0623(5)
H3_2 H 0.7963 0.7741 0.0884
C6_2 C 0.8570(3) 0.7391(4) 0.0721(5)
H4_2 H 0.8918 0.7725 0.1046
C7_2 C 0.9237(3) 0.6898(4) 0.0486(5)
C8_5 C 0.6303(3) 0.6303(3) 0.0000
C9_2 C 0.6160(4) 0.5887(5) 0.0789(5)
H5_2 H 0.6450 0.5980 0.1315
C10_2 C 0.5582(4) 0.5329(5) 0.0798(5)
H6_2 H 0.5472 0.5058 0.1355
C11_5 C 0.5165(3) 0.5165(3) 0.0000
C12_5 C 0.4543(4) 0.4543(4) 0.0000
C14_2 C 0.6377(4) 0.7533(5) 0.0239(5)
H7_2 H 0.6032 0.7188 0.0546
C15_2 C 0.6390(4) 0.8115(5) 0.0132(5)
H8_2 H 0.6052 0.8151 0.0387
O8_2 O 0.90241(17) 0.60467(26) 0.2249(3)
O11_2 O 0.95108(27) 0.68727(32) 0.3316(3)
N1_6 N 0.6900(3) 0.6900(3) 1.0000
C2_2 C 0.7533(3) 0.6377(4) 0.9761(5)
H1_2 H 0.7188 0.6032 0.9454
C3_2 C 0.8115(3) 0.6390(4) 0.9868(5)
H2_2 H 0.8151 0.6052 0.9613
C8_6 C 0.6303(3) 0.6303(3) 1.0000
C11_6 C 0.5165(3) 0.5165(3) 1.0000
C12_6 C 0.4543(4) 0.4543(4) 1.0000
O5_2 O 0.72866(26) 0.96440(31) 0.8916(3)
C13_2 C 0.6894(4) 0.7478(5) 0.9876(5)
C16_2 C 0.6874(4) 0.8621(5) 0.9672(5)
C17_2 C 0.7404(4) 0.7998(5) 0.9377(5)
H9_2 H 0.7741 0.7963 0.9116
C18_2 C 0.7391(4) 0.8570(5) 0.9279(5)
H10_2 H 0.7725 0.8918 0.8954
C19_2 C 0.6898(4) 0.9237(5) 0.9514(5)
O6_2 O 0.4261(5) 0.4325(6) 0.9158(4)
C20_2 C 0.5887(5) 0.6160(6) 0.9211(5)
H11_2 H 0.5980 0.6450 0.8685
C21_2 C 0.5329(5) 0.5582(6) 0.9202(5)
H12_2 H 0.5058 0.5472 0.8645
O1_3 O 0.27134(26) 0.23574(17) 0.1084(3)
O2_3 O 0.35394(32) 0.28441(27) 0.0017(3)
O4_3 O 0.3333(6) 0.4582(4) 0.1667
N1_7 N 0.3100(3) 0.0000 0.0000
C1_3 C 0.3106(4) 0.0584(3) 0.0124(5)
C4_3 C 0.3126(4) 0.1747(3) 0.0328(5)
C5_3 C 0.2596(4) 0.0594(3) 0.0623(5)
H3_3 H 0.2259 0.0222 0.0884
C6_3 C 0.2609(4) 0.1179(3) 0.0721(5)
H4_3 H 0.2275 0.1193 0.1046
C7_3 C 0.3102(4) 0.2339(3) 0.0486(5)
C8_7 C 0.3697(3) 0.0000 0.0000
C9_3 C 0.4113(5) 0.0273(3) 0.0789(5)
H5_3 H 0.4020 0.0470 0.1315
C10_3 C 0.4671(5) 0.0253(3) 0.0798(5)
H6_3 H 0.4942 0.0414 0.1355
C11_7 C 0.4835(3) 0.0000 0.0000
C12_7 C 0.5457(4) 0.0000 0.0000
O8_3 O 0.39533(26) 0.2977(2) 0.2249(3)
O10_3 O 0.38226(37) 0.40286(18) 0.3350(3)
O11_3 O 0.31273(32) 0.26380(18) 0.3316(3)
O13_3 O 0.2342(6) 0.3269(3) 0.2491(4)
N1_8 N 0.3100(3) 0.0000 1.0000
C2_3 C 0.3623(4) 0.1156(3) 0.9761(5)
H1_3 H 0.3968 0.1156 0.9454
C3_3 C 0.3610(4) 0.1725(3) 0.9868(5)
H2_3 H 0.3948 0.2099 0.9613
C8_8 C 0.3697(3) 0.0000 1.0000
C11_8 C 0.4835(3) 0.0000 1.0000
C12_8 C 0.5457(4) 0.0000 1.0000
N1_9 N 0.3100(3) 1.0000 0.0000
C8_9 C 0.3697(3) 1.0000 0.0000
C11_9 C 0.4835(3) 1.0000 0.0000
C12_9 C 0.5457(4) 1.0000 0.0000
C14_3 C 0.2467(5) 0.8844(3) 0.0239(5)
H7_3 H 0.2812 0.8844 0.0546
C15_3 C 0.1885(5) 0.8275(3) 0.0132(5)
H8_3 H 0.1849 0.7901 0.0387
N1_10 N 0.3100(3) 1.0000 1.0000
C8_10 C 0.3697(3) 1.0000 1.0000
C11_10 C 0.4835(3) 1.0000 1.0000
C12_10 C 0.5457(4) 1.0000 1.0000
O5_3 O 0.03560(31) 0.76426(17) 0.8916(3)
C13_3 C 0.2522(5) 0.9416(3) 0.9876(5)
C16_3 C 0.1379(5) 0.8253(3) 0.9672(5)
C17_3 C 0.2002(5) 0.9406(3) 0.9377(5)
H9_3 H 0.2037 0.9778 0.9116
C18_3 C 0.1430(5) 0.8821(3) 0.9279(5)
H10_3 H 0.1082 0.8807 0.8954
C19_3 C 0.0763(5) 0.7661(3) 0.9514(5)
O6_3 O 0.5675(6) 0.9936(3) 0.9158(4)
C20_3 C 0.3840(6) 0.9727(3) 0.9211(5)
H11_3 H 0.3550 0.9530 0.8685
C21_3 C 0.4418(6) 0.9747(3) 0.9202(5)
H12_3 H 0.4528 0.9586 0.8645
O8_4 O 0.09759(17) 0.7023(2) 0.7751(3)
O11_4 O 0.04892(27) 0.73620(18) 0.6684(3)
O4_4 O 0.8751(4) 0.5418(4) 0.8333
O10_4 O 0.97939(32) 0.59714(18) 0.6650(3)
O13_4 O 0.9072(5) 0.6731(3) 0.7509(4)
O4_5 O 0.6667(6) 0.1249(4) 0.8333
O10_5 O 0.61774(37) 0.02061(32) 0.6650(3)
O13_5 O 0.7658(6) 0.0928(5) 0.7509(4)
O8_5 O 0.60467(26) 0.90241(17) 0.7751(3)
O11_5 O 0.68727(32) 0.95108(27) 0.6684(3)
O4_6 O 0.4582(4) 0.3333(6) 0.8333
O8_6 O 0.2977(2) 0.39533(26) 0.7751(3)
O10_6 O 0.40286(18) 0.38226(37) 0.6650(3)
O11_6 O 0.26380(18) 0.31273(32) 0.6684(3)
O13_6 O 0.3269(3) 0.2342(6) 0.7509(4)
La3_2 La -0.000000(25) 0.685053(18) 0.5000
La2_2 La 0.685054(18) 0.000000(25) 0.5000
La1_2 La 0.314947(18) 0.314946(18) 0.5000
O1_4 O 0.43093(17) 0.3689(2) 0.4417(3)
O3_3 O 0.6603(3) 0.9008(4) 0.4175(4)
O4_7 O 0.2085(4) 0.2084(4) 0.5000
N1_11 N 0.6667 0.6433(3) 0.3333
C1_4 C 0.6083(3) 0.5855(3) 0.3457(5)
C2_4 C 0.5511(3) 0.5800(3) 0.3094(5)
H1_4 H 0.5511 0.6145 0.2787
C3_4 C 0.4942(3) 0.5218(3) 0.3201(5)
H2_4 H 0.4568 0.5182 0.2946
C4_4 C 0.4920(3) 0.4712(3) 0.3661(5)
C5_4 C 0.6073(3) 0.5335(3) 0.3956(5)
H3_4 H 0.6445 0.5370 0.4217
C6_4 C 0.5488(3) 0.4763(3) 0.4054(5)
H4_4 H 0.5474 0.4415 0.4379
C7_4 C 0.4328(3) 0.4096(3) 0.3819(5)
C8_11 C 0.6667 0.7030(3) 0.3333
C9_4 C 0.6394(3) 0.7173(4) 0.4122(5)
H5_4 H 0.6197 0.6883 0.4648
C10_4 C 0.6414(3) 0.7751(4) 0.4131(5)
H6_4 H 0.6253 0.7861 0.4688
C11_11 C 0.6667 0.8168(3) 0.3333
C12_11 C 0.6667 0.8790(4) 0.3333
C13_4 C 0.7251(3) 0.6439(4) 0.3209(5)
C14_4 C 0.7823(3) 0.6956(4) 0.3572(5)
H7_4 H 0.7823 0.7301 0.3879
C15_4 C 0.8392(3) 0.6943(4) 0.3465(5)
H8_4 H 0.8766 0.7281 0.3720
C16_4 C 0.8414(3) 0.6459(4) 0.3005(5)
C17_4 C 0.7261(3) 0.5929(4) 0.2710(5)
H9_4 H 0.6889 0.5592 0.2449
C18_4 C 0.7846(3) 0.5942(4) 0.2612(5)
H10_4 H 0.7860 0.5608 0.2287
C19_4 C 0.9006(3) 0.6435(4) 0.2847(5)
C20_4 C 0.6940(3) 0.7446(5) 0.2544(5)
H11_4 H 0.7137 0.7353 0.2018
C21_4 C 0.6920(3) 0.8004(5) 0.2535(5)
H12_4 H 0.7081 0.8275 0.1978
La2_3 La 0.685054(18) 1.000000(25) 0.5000
La3_3 La 1.000000(25) 0.685053(18) 0.5000
O8_7 O 0.3689(2) 0.43093(17) 0.5583(3)
O12_2 O 0.2406(5) 0.3397(3) 0.4175(4)
O13_7 O 0.3397(3) 0.2406(5) 0.5825(4)
O1_5 O 0.6311(2) 0.06199(26) 0.4417(3)
O4_8 O 0.7916(4) 0.0000(6) 0.5000
N1_12 N 0.3567(3) 0.0233(3) 0.3333
C1_5 C 0.4145(3) 0.0227(4) 0.3457(5)
C4_5 C 0.5288(3) 0.0207(4) 0.3661(5)
C5_5 C 0.4665(3) 0.0737(4) 0.3956(5)
H3_5 H 0.4630 0.1074 0.4217
C6_5 C 0.5237(3) 0.0724(4) 0.4054(5)
H4_5 H 0.5585 0.1058 0.4379
C7_5 C 0.5904(3) 0.0231(4) 0.3819(5)
C13_5 C 0.3561(4) 0.0811(5) 0.3209(5)
C14_5 C 0.3044(4) 0.0866(5) 0.3572(5)
H7_5 H 0.2699 0.0521 0.3879
C15_5 C 0.3057(4) 0.1448(5) 0.3465(5)
H8_5 H 0.2719 0.1484 0.3720
C16_5 C 0.3541(4) 0.1954(5) 0.3005(5)
C17_5 C 0.4071(4) 0.1331(5) 0.2710(5)
H9_5 H 0.4408 0.1296 0.2449
C18_5 C 0.4058(4) 0.1903(5) 0.2612(5)
H10_5 H 0.4392 0.2251 0.2287
C19_5 C 0.3565(4) 0.2570(5) 0.2847(5)
O13_8 O 0.7594(5) 0.0992(6) 0.5825(4)
H13 H 0.824686 0.0389306 0.535087
O3_4 O 0.0992(4) 0.7594(5) 0.4175(4)
O4_9 O 0.7916(4) 1.0000(6) 0.5000
C2_5 C 0.4200(3) 0.9710(4) 0.3094(5)
H1_5 H 0.3855 0.9365 0.2787
C3_5 C 0.4782(3) 0.9723(4) 0.3201(5)
H2_5 H 0.4818 0.9385 0.2946
C8_12 C 0.2970(3) 0.9636(3) 0.3333
C9_5 C 0.2827(4) 0.9220(5) 0.4122(5)
H5_5 H 0.3117 0.9313 0.4648
C10_5 C 0.2249(4) 0.8662(5) 0.4131(5)
H6_5 H 0.2139 0.8391 0.4688
C11_12 C 0.1832(3) 0.8498(3) 0.3333
C12_12 C 0.1210(4) 0.7876(4) 0.3333
C20_5 C 0.2554(5) 0.9493(6) 0.2544(5)
H11_5 H 0.2647 0.9783 0.2018
C21_5 C 0.1996(5) 0.8915(6) 0.2535(5)
H12_5 H 0.1725 0.8805 0.1978
O8_8 O 0.56907(17) 0.93801(26) 0.5583(3)
H14 H 0.786014 0.961552 0.536211
O4_10 O -0.0000(6) 0.7915(4) 0.5000
C2_6 C 0.0290(4) 0.4489(3) 0.3094(5)
H1_6 H 0.0635 0.4489 0.2787
C3_6 C 0.0277(4) 0.5058(3) 0.3201(5)
H2_6 H 0.0615 0.5432 0.2946
C8_13 C 0.0364(3) 0.3333 0.3333
C9_6 C 0.0780(5) 0.3606(3) 0.4122(5)
H5_6 H 0.0687 0.3803 0.4648
C10_6 C 0.1338(5) 0.3586(3) 0.4131(5)
H6_6 H 0.1609 0.3747 0.4688
C11_13 C 0.1502(3) 0.3333 0.3333
C12_13 C 0.2124(4) 0.3333 0.3333
C20_6 C 0.0507(6) 0.3060(3) 0.2544(5)
H11_6 H 0.0217 0.2863 0.2018
C21_6 C 0.1085(6) 0.3080(3) 0.2535(5)
H12_6 H 0.1195 0.2919 0.1978
O8_9 O 0.06199(26) 0.6311(2) 0.5583(3)
H14_2 H 0.0384484 0.824463 0.536211
O1_6 O 0.93801(26) 0.56907(17) 0.4417(3)
O4_11 O 1.0000(6) 0.7915(4) 0.5000
N1_13 N 0.9767(3) 0.3333 0.3333
C1_6 C 0.9773(4) 0.3917(3) 0.3457(5)
C4_6 C 0.9793(4) 0.5080(3) 0.3661(5)
C5_6 C 0.9263(4) 0.3927(3) 0.3956(5)
H3_6 H 0.8926 0.3555 0.4217
C6_6 C 0.9276(4) 0.4512(3) 0.4054(5)
H4_6 H 0.8942 0.4526 0.4379
C7_6 C 0.9769(4) 0.5672(3) 0.3819(5)
C13_6 C 0.9189(5) 0.2749(3) 0.3209(5)
C14_6 C 0.9134(5) 0.2177(3) 0.3572(5)
H7_6 H 0.9479 0.2177 0.3879
C15_6 C 0.8552(5) 0.1608(3) 0.3465(5)
H8_6 H 0.8516 0.1234 0.3720
C16_6 C 0.8046(5) 0.1586(3) 0.3005(5)
C17_6 C 0.8669(5) 0.2739(3) 0.2710(5)
H9_6 H 0.8704 0.3111 0.2449
C18_6 C 0.8097(5) 0.2154(3) 0.2612(5)
H10_6 H 0.7749 0.2140 0.2287
C19_6 C 0.7430(5) 0.0994(3) 0.2847(5)
O13_9 O 0.9008(6) 0.6603(3) 0.5825(4)
H13_2 H 0.961069 0.785755 0.535087
C8_14 C 0.3333 0.0364(3) 0.6667
C9_7 C 0.3060(3) 0.0507(4) 0.7456(5)
H5_7 H 0.2863 0.0217 0.7982
C10_7 C 0.3080(3) 0.1085(4) 0.7465(5)
H6_7 H 0.2919 0.1195 0.8022
C11_14 C 0.3333 0.1502(3) 0.6667
C12_14 C 0.3333 0.2124(4) 0.6667
C14_7 C 0.4489(3) 0.0290(4) 0.6906(5)
H7_7 H 0.4489 0.0635 0.7213
C15_7 C 0.5058(3) 0.0277(4) 0.6799(5)
H8_7 H 0.5432 0.0615 0.7054
C20_7 C 0.3606(3) 0.0780(5) 0.5878(5)
H11_7 H 0.3803 0.0687 0.5352
C21_7 C 0.3586(3) 0.1338(5) 0.5869(5)
H12_7 H 0.3747 0.1609 0.5312
N1_14 N 0.3333 0.9767(3) 0.6667
C1_7 C 0.2749(3) 0.9189(3) 0.6791(5)
C2_7 C 0.2177(3) 0.9134(3) 0.6428(5)
H1_7 H 0.2177 0.9479 0.6121
C3_7 C 0.1608(3) 0.8552(3) 0.6535(5)
H2_7 H 0.1234 0.8516 0.6280
C4_7 C 0.1586(3) 0.8046(3) 0.6995(5)
C5_7 C 0.2739(3) 0.8669(3) 0.7290(5)
H3_7 H 0.3111 0.8704 0.7551
C6_7 C 0.2154(3) 0.8097(3) 0.7388(5)
H4_7 H 0.2140 0.7749 0.7713
C7_7 C 0.0994(3) 0.7430(3) 0.7153(5)
C13_7 C 0.3917(3) 0.9773(4) 0.6543(5)
C16_7 C 0.5080(3) 0.9793(4) 0.6339(5)
C17_7 C 0.3927(3) 0.9263(4) 0.6044(5)
H9_7 H 0.3555 0.8926 0.5783
C18_7 C 0.4512(3) 0.9276(4) 0.5946(5)
H10_7 H 0.4526 0.8942 0.5621
C19_7 C 0.5672(3) 0.9769(4) 0.6181(5)
N1_15 N 0.0233(3) 0.3567(3) 0.6667
C1_8 C 0.0811(3) 0.3561(4) 0.6791(5)
C2_8 C 0.0866(3) 0.3044(4) 0.6428(5)
H1_8 H 0.0521 0.2699 0.6121
C3_8 C 0.1448(3) 0.3057(4) 0.6535(5)
H2_8 H 0.1484 0.2719 0.6280
C4_8 C 0.1954(3) 0.3541(4) 0.6995(5)
C5_8 C 0.1331(3) 0.4071(4) 0.7290(5)
H3_8 H 0.1296 0.4408 0.7551
C6_8 C 0.1903(3) 0.4058(4) 0.7388(5)
H4_8 H 0.2251 0.4392 0.7713
C7_8 C 0.2570(3) 0.3565(4) 0.7153(5)
C13_8 C 0.0227(4) 0.4145(5) 0.6543(5)
C16_8 C 0.0207(4) 0.5288(5) 0.6339(5)
C17_8 C 0.0737(4) 0.4665(5) 0.6044(5)
H9_8 H 0.1074 0.4630 0.5783
C18_8 C 0.0724(4) 0.5237(5) 0.5946(5)
H10_8 H 0.1058 0.5585 0.5621
C19_8 C 0.0231(4) 0.5904(5) 0.6181(5)
C8_15 C 0.9636(3) 0.2970(3) 0.6667
C9_8 C 0.9493(4) 0.2554(5) 0.7456(5)
H5_8 H 0.9783 0.2647 0.7982
C10_8 C 0.8915(4) 0.1996(5) 0.7465(5)
H6_8 H 0.8805 0.1725 0.8022
C11_15 C 0.8498(3) 0.1832(3) 0.6667
C12_15 C 0.7876(4) 0.1210(4) 0.6667
C14_8 C 0.9710(4) 0.4200(5) 0.6906(5)
H7_8 H 0.9365 0.3855 0.7213
C15_8 C 0.9723(4) 0.4782(5) 0.6799(5)
H8_8 H 0.9385 0.4818 0.7054
C20_8 C 0.9220(5) 0.2827(6) 0.5878(5)
H11_8 H 0.9313 0.3117 0.5352
C21_8 C 0.8662(5) 0.2249(6) 0.5869(5)
H12_8 H 0.8391 0.2139 0.5312
N1_16 N 0.6433(3) 0.6667 0.6667
C1_9 C 0.6439(4) 0.7251(3) 0.6791(5)
C2_9 C 0.6956(4) 0.7823(3) 0.6428(5)
H1_9 H 0.7301 0.7823 0.6121
C3_9 C 0.6943(4) 0.8392(3) 0.6535(5)
H2_9 H 0.7281 0.8766 0.6280
C4_9 C 0.6459(4) 0.8414(3) 0.6995(5)
C5_9 C 0.5929(4) 0.7261(3) 0.7290(5)
H3_9 H 0.5592 0.6889 0.7551
C6_9 C 0.5942(4) 0.7846(3) 0.7388(5)
H4_9 H 0.5608 0.7860 0.7713
C7_9 C 0.6435(4) 0.9006(3) 0.7153(5)
C8_16 C 0.7030(3) 0.6667 0.6667
C9_9 C 0.7446(5) 0.6940(3) 0.7456(5)
H5_9 H 0.7353 0.7137 0.7982
C10_9 C 0.8004(5) 0.6920(3) 0.7465(5)
H6_9 H 0.8275 0.7081 0.8022
C11_16 C 0.8168(3) 0.6667 0.6667
C12_16 C 0.8790(4) 0.6667 0.6667
C13_9 C 0.5855(5) 0.6083(3) 0.6543(5)
C14_9 C 0.5800(5) 0.5511(3) 0.6906(5)
H7_9 H 0.6145 0.5511 0.7213
C15_9 C 0.5218(5) 0.4942(3) 0.6799(5)
H8_9 H 0.5182 0.4568 0.7054
C16_9 C 0.4712(5) 0.4920(3) 0.6339(5)
C17_9 C 0.5335(5) 0.6073(3) 0.6044(5)
H9_9 H 0.5370 0.6445 0.5783
C18_9 C 0.4763(5) 0.5488(3) 0.5946(5)
H10_9 H 0.4415 0.5474 0.5621
C19_9 C 0.4096(5) 0.4328(3) 0.6181(5)
C20_9 C 0.7173(6) 0.6394(3) 0.5878(5)
H11_9 H 0.6883 0.6197 0.5352
C21_9 C 0.7751(6) 0.6414(3) 0.5869(5)
H12_9 H 0.7861 0.6253 0.5312
H13_3 H 0.0389306 0.824686 0.464913
H14_3 H 0.961552 0.786014 0.463789
H14_4 H 0.824463 0.0384484 0.463789
H13_4 H 0.785755 0.961069 0.464913
loop_
_geom_bond_atom_site_label_1
_geom_bond_atom_site_label_2
_geom_bond_site_symmetry_1
_geom_bond_site_symmetry_2
C8 N1 1_555 1_555
C12 C11 1_555 1_555
H7 C14 1_555 1_555
C15 C14 1_555 1_555
H8 C15 1_555 1_555
C8_2 N1_2 1_555 1_555
C12_2 C11_2 1_555 1_555
O5 C19 1_555 1_555
C13 N1_2 1_555 1_555
C17 C13 1_555 1_555
H9 C17 1_555 1_555
C18 C16 1_555 1_555
H10 C18 1_555 1_555
C19 C16 1_555 1_555
O6 C12_2 1_555 1_555
C20 C8_2 1_555 1_555
H11 C20 1_555 1_555
C21 C11_2 1_555 1_555
H12 C21 1_555 1_555
O7 C19 1_555 1_555
La6 O5 1_555 1_555
C17 C18 1_555 1_555
C20 C21 1_555 1_555
O7 La6 1_555 1_555
O1 C7 1_555 1_555
O3 C12_3 1_555 1_555
N1_3 C1 1_555 1_555
C5 C1 1_555 1_555
H3 C5 1_555 1_555
C6 C4 1_555 1_555
H4 C6 1_555 1_555
C7 O2 1_555 1_555
C8_3 N1_3 1_555 1_555
C9 C8_3 1_555 1_555
H5 C9 1_555 1_555
C10 C9 1_555 1_555
H6 C10 1_555 1_555
C11_3 C10 1_555 1_555
C12_3 C11_3 1_555 1_555
C4 C7 1_555 1_555
C5 C6 1_555 1_555
C2 H1 1_555 1_555
C3 C2 1_555 1_555
H2 C3 1_555 1_555
C8_4 N1_4 1_555 1_555
C12_4 C11_4 1_555 1_555
O4 La1 1_555 1_555
O10 La1 1_555 1_555
O13 La1 1_555 1_555
O4_2 La2 1_555 1_555
O10_2 La2 1_555 1_555
O13_2 La2 1_555 1_555
O1_2 C7_2 1_555 1_555
O3_2 C12_5 1_555 1_555
N1_5 C1_2 1_555 1_555
C5_2 C1_2 1_555 1_555
H3_2 C5_2 1_555 1_555
C6_2 C4_2 1_555 1_555
H4_2 C6_2 1_555 1_555
C7_2 O2_2 1_555 1_555
C8_5 N1_5 1_555 1_555
C9_2 C8_5 1_555 1_555
H5_2 C9_2 1_555 1_555
C10_2 C9_2 1_555 1_555
H6_2 C10_2 1_555 1_555
C11_5 C10_2 1_555 1_555
C12_5 C11_5 1_555 1_555
H7_2 C14_2 1_555 1_555
C15_2 C14_2 1_555 1_555
H8_2 C15_2 1_555 1_555
La3 O3_2 1_555 1_555
C4_2 C7_2 1_555 1_555
C5_2 C6_2 1_555 1_555
C2_2 H1_2 1_555 1_555
C3_2 C2_2 1_555 1_555
H2_2 C3_2 1_555 1_555
C8_6 N1_6 1_555 1_555
C12_6 C11_6 1_555 1_555
O5_2 C19_2 1_555 1_555
C13_2 N1_6 1_555 1_555
C17_2 C13_2 1_555 1_555
H9_2 C17_2 1_555 1_555
C18_2 C16_2 1_555 1_555
H10_2 C18_2 1_555 1_555
C19_2 C16_2 1_555 1_555
O6_2 C12_6 1_555 1_555
C20_2 C8_6 1_555 1_555
H11_2 C20_2 1_555 1_555
C21_2 C11_6 1_555 1_555
H12_2 C21_2 1_555 1_555
O9 C19_2 1_555 1_555
La6 O6_2 1_555 1_555
C17_2 C18_2 1_555 1_555
C20_2 C21_2 1_555 1_555
La3 O1_3 1_555 1_555
O1_3 C7_3 1_555 1_555
O2_3 La3 1_555 1_555
O12 C12_7 1_555 1_555
O4_3 La3 1_555 1_555
N1_7 C1_3 1_555 1_555
C5_3 C1_3 1_555 1_555
H3_3 C5_3 1_555 1_555
C6_3 C4_3 1_555 1_555
H4_3 C6_3 1_555 1_555
C7_3 O2_3 1_555 1_555
C8_7 N1_7 1_555 1_555
C9_3 C8_7 1_555 1_555
H5_3 C9_3 1_555 1_555
C10_3 C9_3 1_555 1_555
H6_3 C10_3 1_555 1_555
C11_7 C10_3 1_555 1_555
C12_7 C11_7 1_555 1_555
O8_3 La3 1_555 1_555
O10_3 La3 1_555 1_555
O11_3 La3 1_555 1_555
O13_3 La3 1_555 1_555
C4_3 C7_3 1_555 1_555
C5_3 C6_3 1_555 1_555
C2_3 H1_3 1_555 1_555
C3_3 C2_3 1_555 1_555
H2_3 C3_3 1_555 1_555
C8_8 N1_8 1_555 1_555
C12_8 C11_8 1_555 1_555
C8_9 N1_9 1_555 1_555
C12_9 C11_9 1_555 1_555
H7_3 C14_3 1_555 1_555
C15_3 C14_3 1_555 1_555
H8_3 C15_3 1_555 1_555
C8_10 N1_10 1_555 1_555
C12_10 C11_10 1_555 1_555
O5_3 C19_3 1_555 1_555
C13_3 N1_10 1_555 1_555
C17_3 C13_3 1_555 1_555
H9_3 C17_3 1_555 1_555
C18_3 C16_3 1_555 1_555
H10_3 C18_3 1_555 1_555
C19_3 C16_3 1_555 1_555
O6_3 C12_10 1_555 1_555
C20_3 C8_10 1_555 1_555
H11_3 C20_3 1_555 1_555
C21_3 C11_10 1_555 1_555
H12_3 C21_3 1_555 1_555
O9_2 C19_3 1_555 1_555
C17_3 C18_3 1_555 1_555
C20_3 C21_3 1_555 1_555
O4_4 La4 1_555 1_555
O10_4 La4 1_555 1_555
O13_4 La4 1_555 1_555
O4_5 La5 1_555 1_555
O10_5 La5 1_555 1_555
O13_5 La5 1_555 1_555
O4_6 La6 1_555 1_555
O8_6 La6 1_555 1_555
O10_6 La6 1_555 1_555
O11_6 La6 1_555 1_555
O13_6 La6 1_555 1_555
La1_2 O1_4 1_555 1_555
O1_4 C7_4 1_555 1_555
O10_3 La1_2 1_555 1_555
O3_3 C12_11 1_555 1_555
O4_7 La1_2 1_555 1_555
N1_11 C1_4 1_555 1_555
C1_4 C2_4 1_555 1_555
C2_4 H1_4 1_555 1_555
C3_4 C2_4 1_555 1_555
H2_4 C3_4 1_555 1_555
C4_4 C3_4 1_555 1_555
C5_4 C1_4 1_555 1_555
H3_4 C5_4 1_555 1_555
C6_4 C4_4 1_555 1_555
H4_4 C6_4 1_555 1_555
C7_4 O10_3 1_555 1_555
C8_11 N1_11 1_555 1_555
C9_4 C8_11 1_555 1_555
H5_4 C9_4 1_555 1_555
C10_4 C9_4 1_555 1_555
H6_4 C10_4 1_555 1_555
C11_11 C10_4 1_555 1_555
C12_11 C11_11 1_555 1_555
O8_2 C19_4 1_555 1_555
C13_4 N1_11 1_555 1_555
C14_4 C13_4 1_555 1_555
H7_4 C14_4 1_555 1_555
C15_4 C14_4 1_555 1_555
H8_4 C15_4 1_555 1_555
C16_4 C15_4 1_555 1_555
C17_4 C13_4 1_555 1_555
H9_4 C17_4 1_555 1_555
C18_4 C16_4 1_555 1_555
H10_4 C18_4 1_555 1_555
C19_4 C16_4 1_555 1_555
O13 C12_11 1_555 1_555
C20_4 C8_11 1_555 1_555
H11_4 C20_4 1_555 1_555
C21_4 C11_11 1_555 1_555
H12_4 C21_4 1_555 1_555
O11_2 C19_4 1_555 1_555
La2_3 O3_3 1_555 1_555
La3_3 O11_2 1_555 1_555
O8_7 La1_2 1_555 1_555
O11_3 La1_2 1_555 1_555
O11_6 La1_2 1_555 1_555
O10_6 La1_2 1_555 1_555
O12_2 La1_2 1_555 1_555
O13_7 La1_2 1_555 1_555
C4_4 C7_4 1_555 1_555
C5_4 C6_4 1_555 1_555
C17_4 C18_4 1_555 1_555
C20_4 C21_4 1_555 1_555
La2_2 O1_5 1_555 1_555
O1_5 C7_5 1_555 1_555
O4_8 La2_2 1_555 1_555
N1_12 C1_5 1_555 1_555
C5_5 C1_5 1_555 1_555
H3_5 C5_5 1_555 1_555
C6_5 C4_5 1_555 1_555
H4_5 C6_5 1_555 1_555
O8_3 C19_5 1_555 1_555
C13_5 N1_12 1_555 1_555
C14_5 C13_5 1_555 1_555
H7_5 C14_5 1_555 1_555
C15_5 C14_5 1_555 1_555
H8_5 C15_5 1_555 1_555
C16_5 C15_5 1_555 1_555
C17_5 C13_5 1_555 1_555
H9_5 C17_5 1_555 1_555
C18_5 C16_5 1_555 1_555
H10_5 C18_5 1_555 1_555
C19_5 C16_5 1_555 1_555
O11_3 C19_5 1_555 1_555
O11 La2_2 1_555 1_555
O10_5 La2_2 1_555 1_555
O13_8 La2_2 1_555 1_555
C4_5 C7_5 1_555 1_555
C5_5 C6_5 1_555 1_555
C17_5 C18_5 1_555 1_555
O4_8 H13 1_555 1_555
O10 La2_3 1_555 1_555
O3_4 C12_12 1_555 1_555
O4_9 La2_3 1_555 1_555
C2_5 H1_5 1_555 1_555
C3_5 C2_5 1_555 1_555
H2_5 C3_5 1_555 1_555
C9_5 C8_12 1_555 1_555
H5_5 C9_5 1_555 1_555
C10_5 C9_5 1_555 1_555
H6_5 C10_5 1_555 1_555
C11_12 C10_5 1_555 1_555
C12_12 C11_12 1_555 1_555
O13_2 C12_12 1_555 1_555
C20_5 C8_12 1_555 1_555
H11_5 C20_5 1_555 1_555
C21_5 C11_12 1_555 1_555
H12_5 C21_5 1_555 1_555
La3_2 O3_4 1_555 1_555
O8_8 La2_3 1_555 1_555
O11_5 La2_3 1_555 1_555
C20_5 C21_5 1_555 1_555
O4_9 H14 1_555 1_555
O10_2 La3_2 1_555 1_555
O12_2 C12_13 1_555 1_555
O4_10 La3_2 1_555 1_555
C2_6 H1_6 1_555 1_555
C3_6 C2_6 1_555 1_555
H2_6 C3_6 1_555 1_555
C9_6 C8_13 1_555 1_555
H5_6 C9_6 1_555 1_555
C10_6 C9_6 1_555 1_555
H6_6 C10_6 1_555 1_555
C11_13 C10_6 1_555 1_555
C12_13 C11_13 1_555 1_555
O13_3 C12_13 1_555 1_555
C20_6 C8_13 1_555 1_555
H11_6 C20_6 1_555 1_555
C21_6 C11_13 1_555 1_555
H12_6 C21_6 1_555 1_555
O8_9 La3_2 1_555 1_555
O11_4 La3_2 1_555 1_555
C20_6 C21_6 1_555 1_555
O4_10 H14_2 1_555 1_555
La3_3 O1_6 1_555 1_555
O1_6 C7_6 1_555 1_555
O4_11 La3_3 1_555 1_555
N1_13 C1_6 1_555 1_555
C5_6 C1_6 1_555 1_555
H3_6 C5_6 1_555 1_555
C6_6 C4_6 1_555 1_555
H4_6 C6_6 1_555 1_555
O8 C19_6 1_555 1_555
C13_6 N1_13 1_555 1_555
C14_6 C13_6 1_555 1_555
H7_6 C14_6 1_555 1_555
C15_6 C14_6 1_555 1_555
H8_6 C15_6 1_555 1_555
C16_6 C15_6 1_555 1_555
C17_6 C13_6 1_555 1_555
H9_6 C17_6 1_555 1_555
C18_6 C16_6 1_555 1_555
H10_6 C18_6 1_555 1_555
C19_6 C16_6 1_555 1_555
O11 C19_6 1_555 1_555
O10_4 La3_3 1_555 1_555
O13_9 La3_3 1_555 1_555
C4_6 C7_6 1_555 1_555
C5_6 C6_6 1_555 1_555
C17_6 C18_6 1_555 1_555
O4_11 H13_2 1_555 1_555
O13_6 C12_14 1_555 1_555
C9_7 C8_14 1_555 1_555
H5_7 C9_7 1_555 1_555
C10_7 C9_7 1_555 1_555
H6_7 C10_7 1_555 1_555
C11_14 C10_7 1_555 1_555
C12_14 C11_14 1_555 1_555
H7_7 C14_7 1_555 1_555
C15_7 C14_7 1_555 1_555
H8_7 C15_7 1_555 1_555
O13_7 C12_14 1_555 1_555
C20_7 C8_14 1_555 1_555
H11_7 C20_7 1_555 1_555
C21_7 C11_14 1_555 1_555
H12_7 C21_7 1_555 1_555
C20_7 C21_7 1_555 1_555
O8_4 C7_7 1_555 1_555
N1_14 C1_7 1_555 1_555
C1_7 C2_7 1_555 1_555
C2_7 H1_7 1_555 1_555
C3_7 C2_7 1_555 1_555
H2_7 C3_7 1_555 1_555
C4_7 C3_7 1_555 1_555
C5_7 C1_7 1_555 1_555
H3_7 C5_7 1_555 1_555
C6_7 C4_7 1_555 1_555
H4_7 C6_7 1_555 1_555
C7_7 O11_4 1_555 1_555
O8_8 C19_7 1_555 1_555
C13_7 N1_14 1_555 1_555
C17_7 C13_7 1_555 1_555
H9_7 C17_7 1_555 1_555
C18_7 C16_7 1_555 1_555
H10_7 C18_7 1_555 1_555
C19_7 C16_7 1_555 1_555
C4_7 C7_7 1_555 1_555
C5_7 C6_7 1_555 1_555
C17_7 C18_7 1_555 1_555
O8_6 C7_8 1_555 1_555
N1_15 C1_8 1_555 1_555
C1_8 C2_8 1_555 1_555
C2_8 H1_8 1_555 1_555
C3_8 C2_8 1_555 1_555
H2_8 C3_8 1_555 1_555
C4_8 C3_8 1_555 1_555
C5_8 C1_8 1_555 1_555
H3_8 C5_8 1_555 1_555
C6_8 C4_8 1_555 1_555
H4_8 C6_8 1_555 1_555
C7_8 O11_6 1_555 1_555
O8_9 C19_8 1_555 1_555
C13_8 N1_15 1_555 1_555
C17_8 C13_8 1_555 1_555
H9_8 C17_8 1_555 1_555
C18_8 C16_8 1_555 1_555
H10_8 C18_8 1_555 1_555
C19_8 C16_8 1_555 1_555
C4_8 C7_8 1_555 1_555
C5_8 C6_8 1_555 1_555
C17_8 C18_8 1_555 1_555
O13_5 C12_15 1_555 1_555
C9_8 C8_15 1_555 1_555
H5_8 C9_8 1_555 1_555
C10_8 C9_8 1_555 1_555
H6_8 C10_8 1_555 1_555
C11_15 C10_8 1_555 1_555
C12_15 C11_15 1_555 1_555
H7_8 C14_8 1_555 1_555
C15_8 C14_8 1_555 1_555
H8_8 C15_8 1_555 1_555
O13_8 C12_15 1_555 1_555
C20_8 C8_15 1_555 1_555
H11_8 C20_8 1_555 1_555
C21_8 C11_15 1_555 1_555
H12_8 C21_8 1_555 1_555
C20_8 C21_8 1_555 1_555
O8_5 C7_9 1_555 1_555
O13_4 C12_16 1_555 1_555
N1_16 C1_9 1_555 1_555
C1_9 C2_9 1_555 1_555
C2_9 H1_9 1_555 1_555
C3_9 C2_9 1_555 1_555
H2_9 C3_9 1_555 1_555
C4_9 C3_9 1_555 1_555
C5_9 C1_9 1_555 1_555
H3_9 C5_9 1_555 1_555
C6_9 C4_9 1_555 1_555
H4_9 C6_9 1_555 1_555
C7_9 O11_5 1_555 1_555
C8_16 N1_16 1_555 1_555
C9_9 C8_16 1_555 1_555
H5_9 C9_9 1_555 1_555
C10_9 C9_9 1_555 1_555
H6_9 C10_9 1_555 1_555
C11_16 C10_9 1_555 1_555
C12_16 C11_16 1_555 1_555
O8_7 C19_9 1_555 1_555
C13_9 N1_16 1_555 1_555
C14_9 C13_9 1_555 1_555
H7_9 C14_9 1_555 1_555
C15_9 C14_9 1_555 1_555
H8_9 C15_9 1_555 1_555
C16_9 C15_9 1_555 1_555
C17_9 C13_9 1_555 1_555
H9_9 C17_9 1_555 1_555
C18_9 C16_9 1_555 1_555
H10_9 C18_9 1_555 1_555
C19_9 C16_9 1_555 1_555
O13_9 C12_16 1_555 1_555
C20_9 C8_16 1_555 1_555
H11_9 C20_9 1_555 1_555
C21_9 C11_16 1_555 1_555
H12_9 C21_9 1_555 1_555
O10_6 C19_9 1_555 1_555
C4_9 C7_9 1_555 1_555
C5_9 C6_9 1_555 1_555
C17_9 C18_9 1_555 1_555
C20_9 C21_9 1_555 1_555
O4_10 H13_3 1_555 1_555
O4_11 H14_3 1_555 1_555
O4_8 H14_4 1_555 1_555
O4_9 H13_4 1_555 1_555

#END
