
###############################################################################
#
# This file contains modified crystal structure data generated from the
# MOF subset of the Cambridge Structural Database (CSD) v543 
# hosted by the Cambridge Crystallographic Data Centre (CCDC).
#
# This work is licensed under the Creative Commons
# Attribution-NonCommercial-ShareAlike 4.0 International License.
# To view a copy of this license, visit
# http://creativecommons.org/licenses/by-nc-sa/4.0/
# or send a letter to
# Creative Commons, PO Box 1866, Mountain View, CA 94042, USA.
#
# CIF created using the CSD Python API on 29 September 2022
# The structure has been converted into the P1 space group
# The structure has a 3D framework
# The original CSD entry RUYQIN is in the rhombohedral crystal system
# The original CSD entry RUYQIN is in a Sohncke space group
# The framework has been calculated to contain at least 10.0% void space
# The void calculation uses a probe of radius 1.32A, grid spacing 0.4
# H atom positions have been added when not included in the experimental data
# Generated hydrogen atom positions removed from atoms on special positions
#
###############################################################################

data_RUYQIN
_chemical_formula_moiety         '(C210 H144 La11 N16 O61)n'
_symmetry_cell_setting           triclinic
_symmetry_space_group_name_H-M   'P 1'
_symmetry_Int_Tables_number      1
_space_group_name_Hall           'P 1'
loop_
_symmetry_equiv_pos_site_id
_symmetry_equiv_pos_as_xyz
1 x,y,z
_cell_length_a                   24.1843(5)
_cell_length_b                   24.1843(5)
_cell_length_c                   13.0217(5)
_cell_angle_alpha                90
_cell_angle_beta                 90
_cell_angle_gamma                120
_cell_volume                     6595.77
loop_
_atom_site_label
_atom_site_type_symbol
_atom_site_fract_x
_atom_site_fract_y
_atom_site_fract_z
La1 La 0.018233(16) 0.351567(16) 0.1667
O4 O 0.1240(3) 0.4573(3) 0.1667
La6 La 0.000001(23) 0.315100(16) 0.5000
O11 O 0.02008(27) 0.40239(15) 0.3367(2)
O12 O 0.0905(4) 0.3223(2) 0.2502(3)
O10 O 0.06905(15) 0.35342(27) 0.9967(2)
O1 O 0.90292(15) 0.2984(2) 0.2253(3)
O2 O 0.95103(23) 0.26428(15) 0.3300(2)
N1 N 0.6667 0.0240(2) 0.3333
C1 C 0.7252(2) 0.0819(2) 0.3211(4)
C2 C 0.7809(2) 0.0873(3) 0.3576(5)
H1 H 0.7808 0.0528 0.3894
C3 C 0.8373(3) 0.1446(3) 0.3464(4)
H2 H 0.8748 0.1483 0.3724
C4 C 0.8396(2) 0.1950(3) 0.2994(4)
C5 C 0.7848(3) 0.1883(3) 0.2620(4)
H3 H 0.7859 0.2228 0.2284
C6 C 0.7263(3) 0.1318(2) 0.2713(4)
H4 H 0.6892 0.1284 0.2443
C7 C 0.9009(2) 0.2575(3) 0.2853(4)
O5 O 0.43041(15) 0.06215(25) 0.4414(3)
C13 C 0.6081(2) 0.0234(3) 0.3456(4)
C16 C 0.4937(2) 0.0221(4) 0.3673(4)
C17 C 0.5485(3) 0.0702(4) 0.4047(4)
H9 H 0.5474 0.1036 0.4383
C18 C 0.6070(3) 0.0722(4) 0.3954(4)
H10 H 0.6441 0.1059 0.4224
C19 C 0.4324(2) 0.0233(4) 0.3814(4)
La5 La 0.315100(16) -0.000001(23) 0.5000
La6_2 La 1.000001(23) 0.315100(16) 0.5000
O8 O 0.9651(2) 0.23625(15) 0.1080(3)
O9 O 0.93095(15) 0.28436(23) 0.0033(2)
O13 O 0.9890(2) 0.4238(4) 0.0831(3)
O3 O 0.6777(2) 0.7682(3) 0.2502(3)
C8 C 0.6667 0.9646(3) 0.3333
C9 C 0.6996(3) 0.9520(4) 0.2554(4)
H5 H 0.7218 0.9823 0.2048
C10 C 0.6985(3) 0.8935(4) 0.2551(5)
H6 H 0.7188 0.8840 0.2030
C11 C 0.6667 0.8495(3) 0.3333
C12 C 0.6667 0.7866(3) 0.3333
C14 C 0.5524(2) 0.9731(4) 0.3091(5)
H7 H 0.5525 0.9387 0.2773
C15 C 0.4960(3) 0.9740(4) 0.3203(4)
H8 H 0.4585 0.9402 0.2943
O6 O 0.6556(2) 0.7572(4) 0.4165(3)
C20 C 0.6337(3) 0.9191(5) 0.4113(4)
H11 H 0.6115 0.9272 0.4619
C21 C 0.6348(3) 0.8617(5) 0.4116(5)
H12 H 0.6145 0.8319 0.4637
O7 O 0.38230(23) 0.97992(27) 0.3367(2)
La2 La 0.648433(16) 0.666666(23) 0.1667
La3 La 0.333334(23) 0.981767(16) 0.1667
La4 La 0.684900(16) 0.684900(16) 0.5000
La5_2 La 0.315100(16) 0.999999(23) 0.5000
O3_2 O 0.2318(3) 0.9095(4) 0.2502(3)
C8_2 C 0.0354(3) 0.7021(3) 0.3333
C9_2 C 0.0480(4) 0.7476(5) 0.2554(4)
H5_2 H 0.0177 0.7395 0.2048
C10_2 C 0.1065(4) 0.8050(5) 0.2551(5)
H6_2 H 0.1160 0.8348 0.2030
C11_2 C 0.1505(3) 0.8172(3) 0.3333
C12_2 C 0.2134(3) 0.8801(3) 0.3333
C14_2 C 0.0269(4) 0.5794(4) 0.3091(5)
H7_2 H 0.0613 0.6139 0.2773
C15_2 C 0.0260(4) 0.5221(5) 0.3203(4)
H8_2 H 0.0598 0.5184 0.2943
O6_2 O 0.2428(4) 0.8985(4) 0.4165(3)
C20_2 C 0.0809(5) 0.7147(6) 0.4113(4)
H11_2 H 0.0728 0.6844 0.4619
C21_2 C 0.1383(5) 0.7732(6) 0.4116(5)
H12_2 H 0.1681 0.7827 0.4637
O1_2 O 0.7016(2) 0.60452(25) 0.2253(3)
O2_2 O 0.73572(15) 0.68675(27) 0.3300(2)
O4_2 O 0.5427(3) 0.6667(4) 0.1667
N1_2 N 0.9760(2) 0.6427(2) 0.3333
C1_2 C 0.9181(2) 0.6433(3) 0.3211(4)
C2_2 C 0.9127(3) 0.6936(4) 0.3576(5)
H1_2 H 0.9472 0.7280 0.3894
C3_2 C 0.8554(3) 0.6927(4) 0.3464(4)
H2_2 H 0.8517 0.7265 0.3724
C4_2 C 0.8050(3) 0.6446(4) 0.2994(4)
C5_2 C 0.8117(3) 0.5965(4) 0.2620(4)
H3_2 H 0.7772 0.5631 0.2284
C6_2 C 0.8682(2) 0.5945(4) 0.2713(4)
H4_2 H 0.8716 0.5608 0.2443
C7_2 C 0.7425(3) 0.6434(4) 0.2853(4)
O5_2 O 0.93785(25) 0.36827(29) 0.4414(3)
C13_2 C 0.9766(3) 0.5848(4) 0.3456(4)
C16_2 C 0.9779(4) 0.4717(4) 0.3673(4)
C17_2 C 0.9298(4) 0.4784(5) 0.4047(4)
H9_2 H 0.8964 0.4439 0.4383
C18_2 C 0.9278(4) 0.5349(5) 0.3954(4)
H10_2 H 0.8941 0.5383 0.4224
C19_2 C 0.9767(4) 0.4092(4) 0.3814(4)
O8_2 O 0.76375(15) 0.72881(25) 0.1080(3)
O9_2 O 0.71564(23) 0.64658(27) 0.0033(2)
O11_2 O 0.59761(15) 0.61770(31) 0.3367(2)
O13_2 O 0.5762(4) 0.5651(4) 0.0831(3)
O10_2 O 0.64658(27) 0.71564(31) 0.9967(2)
O1_3 O 0.39548(25) 0.09708(15) 0.2253(3)
O2_3 O 0.31325(27) 0.04897(23) 0.3300(2)
N1_3 N 0.3573(2) 0.3333 0.3333
C1_3 C 0.3567(3) 0.2748(2) 0.3211(4)
C2_3 C 0.3064(4) 0.2191(2) 0.3576(5)
H1_3 H 0.2720 0.2192 0.3894
C3_3 C 0.3073(4) 0.1627(3) 0.3464(4)
H2_3 H 0.2735 0.1252 0.3724
C4_3 C 0.3554(4) 0.1604(2) 0.2994(4)
C5_3 C 0.4035(4) 0.2152(3) 0.2620(4)
H3_3 H 0.4369 0.2141 0.2284
C6_3 C 0.4055(4) 0.2737(3) 0.2713(4)
H4_3 H 0.4392 0.3108 0.2443
C7_3 C 0.3566(4) 0.0991(2) 0.2853(4)
C8_3 C 0.2979(3) 0.3333 0.3333
C9_3 C 0.2524(5) 0.3004(3) 0.2554(4)
H5_3 H 0.2605 0.2782 0.2048
C10_3 C 0.1950(5) 0.3015(3) 0.2551(5)
H6_3 H 0.1652 0.2812 0.2030
C11_3 C 0.1828(3) 0.3333 0.3333
C12_3 C 0.1199(3) 0.3333 0.3333
O5_3 O 0.63173(29) 0.56959(15) 0.4414(3)
C13_3 C 0.4152(4) 0.3919(2) 0.3456(4)
C14_3 C 0.4206(4) 0.4476(2) 0.3091(5)
H7_3 H 0.3861 0.4475 0.2773
C15_3 C 0.4779(5) 0.5040(3) 0.3203(4)
H8_3 H 0.4816 0.5415 0.2943
C16_3 C 0.5283(4) 0.5063(2) 0.3673(4)
C17_3 C 0.5216(5) 0.4515(3) 0.4047(4)
H9_3 H 0.5561 0.4526 0.4383
C18_3 C 0.4651(5) 0.3930(3) 0.3954(4)
H10_3 H 0.4617 0.3559 0.4224
C19_3 C 0.5908(4) 0.5676(2) 0.3814(4)
O6_3 O 0.1015(4) 0.3444(2) 0.4165(3)
C20_3 C 0.2853(6) 0.3663(3) 0.4113(4)
H11_3 H 0.3156 0.3885 0.4619
C21_3 C 0.2268(6) 0.3652(3) 0.4116(5)
H12_3 H 0.2173 0.3855 0.4637
O8_3 O 0.27119(25) 0.0349(2) 0.1080(3)
O9_3 O 0.35342(27) 0.06905(15) 0.0033(2)
O13_3 O 0.4349(4) 0.0110(2) 0.0831(3)
O4_3 O 0.3333(4) 0.8760(3) 0.1667
O10_3 O 0.28436(31) 0.93095(15) 0.9967(2)
La1_2 La 0.351567(16) 0.018233(16) 0.8333
O4_4 O 0.4573(3) 0.1240(3) 0.8333
O11_3 O 0.40239(15) 0.02008(27) 0.6633(2)
O12_2 O 0.3223(2) 0.0905(4) 0.7498(3)
O1_4 O 0.2984(2) 0.90292(15) 0.7747(3)
O2_4 O 0.26428(15) 0.95103(23) 0.6700(2)
N1_4 N 0.0240(2) 0.6667 0.6667
C1_4 C 0.0819(2) 0.7252(2) 0.6789(4)
C2_4 C 0.0873(3) 0.7809(2) 0.6424(5)
H1_4 H 0.0528 0.7808 0.6106
C3_4 C 0.1446(3) 0.8373(3) 0.6536(4)
H2_4 H 0.1483 0.8748 0.6276
C4_4 C 0.1950(3) 0.8396(2) 0.7006(4)
C5_4 C 0.1883(3) 0.7848(3) 0.7380(4)
H3_4 H 0.2228 0.7859 0.7716
C6_4 C 0.1318(2) 0.7263(3) 0.7287(4)
H4_4 H 0.1284 0.6892 0.7557
C7_4 C 0.2575(3) 0.9009(2) 0.7147(4)
O5_4 O 0.06215(25) 0.43041(15) 0.5586(3)
C13_4 C 0.0234(3) 0.6081(2) 0.6544(4)
C16_4 C 0.0221(4) 0.4937(2) 0.6327(4)
C17_4 C 0.0702(4) 0.5485(3) 0.5953(4)
H9_4 H 0.1036 0.5474 0.5617
C18_4 C 0.0722(4) 0.6070(3) 0.6046(4)
H10_4 H 0.1059 0.6441 0.5776
C19_4 C 0.0233(4) 0.4324(2) 0.6186(4)
O8_4 O 0.23625(15) 0.9651(2) 0.8920(3)
O13_4 O 0.4238(4) 0.9890(2) 0.9169(3)
O3_3 O 0.7682(3) 0.6777(2) 0.7498(3)
C8_4 C 0.9646(3) 0.6667 0.6667
C9_4 C 0.9520(4) 0.6996(3) 0.7446(4)
H5_4 H 0.9823 0.7218 0.7952
C10_4 C 0.8935(4) 0.6985(3) 0.7449(5)
H6_4 H 0.8840 0.7188 0.7970
C11_4 C 0.8495(3) 0.6667 0.6667
C12_4 C 0.7866(3) 0.6667 0.6667
C14_4 C 0.9731(4) 0.5524(2) 0.6909(5)
H7_4 H 0.9387 0.5525 0.7227
C15_4 C 0.9740(4) 0.4960(3) 0.6797(4)
H8_4 H 0.9402 0.4585 0.7057
O6_4 O 0.7572(4) 0.6556(2) 0.5835(3)
C20_4 C 0.9191(5) 0.6337(3) 0.5887(4)
H11_4 H 0.9272 0.6115 0.5381
C21_4 C 0.8617(5) 0.6348(3) 0.5884(5)
H12_4 H 0.8319 0.6145 0.5363
O7_2 O 0.97992(27) 0.38230(23) 0.6633(2)
La2_2 La 0.666666(23) 0.648433(16) 0.8333
La3_2 La 0.981767(16) 0.333334(23) 0.8333
O3_4 O 0.9095(4) 0.2318(3) 0.7498(3)
C8_5 C 0.7021(3) 0.0354(3) 0.6667
C9_5 C 0.7476(5) 0.0480(4) 0.7446(4)
H5_5 H 0.7395 0.0177 0.7952
C10_5 C 0.8050(5) 0.1065(4) 0.7449(5)
H6_5 H 0.8348 0.1160 0.7970
C11_5 C 0.8172(3) 0.1505(3) 0.6667
C12_5 C 0.8801(3) 0.2134(3) 0.6667
C14_5 C 0.5794(4) 0.0269(4) 0.6909(5)
H7_5 H 0.6139 0.0613 0.7227
C15_5 C 0.5221(5) 0.0260(4) 0.6797(4)
H8_5 H 0.5184 0.0598 0.7057
O6_5 O 0.8985(4) 0.2428(4) 0.5835(3)
C20_5 C 0.7147(6) 0.0809(5) 0.5887(4)
H11_5 H 0.6844 0.0728 0.5381
C21_5 C 0.7732(6) 0.1383(5) 0.5884(5)
H12_5 H 0.7827 0.1681 0.5363
O1_5 O 0.60452(25) 0.7016(2) 0.7747(3)
O2_5 O 0.68675(27) 0.73572(15) 0.6700(2)
O4_5 O 0.6667(4) 0.5427(3) 0.8333
N1_5 N 0.6427(2) 0.9760(2) 0.6667
C1_5 C 0.6433(3) 0.9181(2) 0.6789(4)
C2_5 C 0.6936(4) 0.9127(3) 0.6424(5)
H1_5 H 0.7280 0.9472 0.6106
C3_5 C 0.6927(4) 0.8554(3) 0.6536(4)
H2_5 H 0.7265 0.8517 0.6276
C4_5 C 0.6446(4) 0.8050(3) 0.7006(4)
C5_5 C 0.5965(4) 0.8117(3) 0.7380(4)
H3_5 H 0.5631 0.7772 0.7716
C6_5 C 0.5945(4) 0.8682(2) 0.7287(4)
H4_5 H 0.5608 0.8716 0.7557
C7_5 C 0.6434(4) 0.7425(3) 0.7147(4)
O5_5 O 0.36827(29) 0.93785(25) 0.5586(3)
C13_5 C 0.5848(4) 0.9766(3) 0.6544(4)
C16_5 C 0.4717(4) 0.9779(4) 0.6327(4)
C17_5 C 0.4784(5) 0.9298(4) 0.5953(4)
H9_5 H 0.4439 0.8964 0.5617
C18_5 C 0.5349(5) 0.9278(4) 0.6046(4)
H10_5 H 0.5383 0.8941 0.5776
C19_5 C 0.4092(4) 0.9767(4) 0.6186(4)
O8_5 O 0.72881(25) 0.76375(15) 0.8920(3)
O11_4 O 0.61770(31) 0.59761(15) 0.6633(2)
O13_5 O 0.5651(4) 0.5762(4) 0.9169(3)
O1_6 O 0.09708(15) 0.39548(25) 0.7747(3)
O2_6 O 0.04897(23) 0.31325(27) 0.6700(2)
N1_6 N 0.3333 0.3573(2) 0.6667
C1_6 C 0.2748(2) 0.3567(3) 0.6789(4)
C2_6 C 0.2191(2) 0.3064(4) 0.6424(5)
H1_6 H 0.2192 0.2720 0.6106
C3_6 C 0.1627(3) 0.3073(4) 0.6536(4)
H2_6 H 0.1252 0.2735 0.6276
C4_6 C 0.1604(2) 0.3554(4) 0.7006(4)
C5_6 C 0.2152(3) 0.4035(4) 0.7380(4)
H3_6 H 0.2141 0.4369 0.7716
C6_6 C 0.2737(3) 0.4055(4) 0.7287(4)
H4_6 H 0.3108 0.4392 0.7557
C7_6 C 0.0991(2) 0.3566(4) 0.7147(4)
C8_6 C 0.3333 0.2979(3) 0.6667
C9_6 C 0.3004(3) 0.2524(5) 0.7446(4)
H5_6 H 0.2782 0.2605 0.7952
C10_6 C 0.3015(3) 0.1950(5) 0.7449(5)
H6_6 H 0.2812 0.1652 0.7970
C11_6 C 0.3333 0.1828(3) 0.6667
C12_6 C 0.3333 0.1199(3) 0.6667
O5_6 O 0.56959(15) 0.63173(29) 0.5586(3)
C13_6 C 0.3919(2) 0.4152(4) 0.6544(4)
C14_6 C 0.4476(2) 0.4206(4) 0.6909(5)
H7_6 H 0.4475 0.3861 0.7227
C15_6 C 0.5040(3) 0.4779(5) 0.6797(4)
H8_6 H 0.5415 0.4816 0.7057
C16_6 C 0.5063(2) 0.5283(4) 0.6327(4)
C17_6 C 0.4515(3) 0.5216(5) 0.5953(4)
H9_6 H 0.4526 0.5561 0.5617
C18_6 C 0.3930(3) 0.4651(5) 0.6046(4)
H10_6 H 0.3559 0.4617 0.5776
C19_6 C 0.5676(2) 0.5908(4) 0.6186(4)
O6_6 O 0.3444(2) 0.1015(4) 0.5835(3)
C20_6 C 0.3663(3) 0.2853(6) 0.5887(4)
H11_6 H 0.3885 0.3156 0.5381
C21_6 C 0.3652(3) 0.2268(6) 0.5884(5)
H12_6 H 0.3855 0.2173 0.5363
O8_6 O 0.0349(2) 0.27119(25) 0.8920(3)
O13_6 O 0.0110(2) 0.4349(4) 0.9169(3)
O4_6 O 0.8760(3) 0.3333(4) 0.8333
O4_7 O 0.7907(3) 0.7906(3) 0.5000
O4_8 O 0.2094(3) 0.0000(4) 0.5000
H13 H 0.195835 0.000343679 0.571928
H14 H 0.21497 0.0385953 0.46366
O4_9 O 0.2094(3) 1.0000(4) 0.5000
O4_10 O -0.0000(4) 0.2093(3) 0.5000
O4_11 O 1.0000(4) 0.2093(3) 0.5000
H13_2 H 0.999656 0.195492 0.571928
H14_2 H 0.961405 0.176375 0.46366
N1_7 N 0.6907(2) 0.0000 0.0000
C1_7 C 0.7486(2) 0.0585(2) 0.0122(4)
C4_7 C 0.8617(3) 0.1729(2) 0.0339(4)
C5_7 C 0.8550(3) 0.1181(3) 0.0713(4)
H3_7 H 0.8895 0.1192 0.1049
C6_7 C 0.7985(2) 0.0596(3) 0.0620(4)
H4_7 H 0.7951 0.0225 0.0890
C7_7 C 0.9242(3) 0.2342(2) 0.0480(4)
C8_7 C 0.6313(3) 0.0000 0.0000
C9_7 C 0.6187(4) 0.0329(3) 0.0779(4)
H5_7 H 0.6490 0.0551 0.1285
C10_7 C 0.5602(4) 0.0318(3) 0.0782(5)
H6_7 H 0.5507 0.0521 0.1303
C11_7 C 0.5162(3) 0.0000 0.0000
C12_7 C 0.4533(3) 0.0000 0.0000
N1_8 N 0.6907(2) 0.0000 1.0000
C2_7 C 0.7540(3) 0.1142(2) 0.9757(5)
H1_7 H 0.7195 0.1141 0.9439
C3_7 C 0.8113(3) 0.1706(3) 0.9869(4)
H2_7 H 0.8150 0.2081 0.9609
C8_8 C 0.6313(3) 0.0000 1.0000
C11_8 C 0.5162(3) 0.0000 1.0000
C12_8 C 0.4533(3) 0.0000 1.0000
N1_9 N 0.6907(2) 1.0000 0.0000
C8_9 C 0.6313(3) 1.0000 0.0000
C11_9 C 0.5162(3) 1.0000 0.0000
C12_9 C 0.4533(3) 1.0000 0.0000
C14_7 C 0.6397(4) 0.8858(2) 0.0243(5)
H7_7 H 0.6053 0.8859 0.0561
C15_7 C 0.6406(4) 0.8294(3) 0.0131(4)
H8_7 H 0.6068 0.7919 0.0391
N1_10 N 0.6907(2) 1.0000 1.0000
C8_10 C 0.6313(3) 1.0000 1.0000
C11_10 C 0.5162(3) 1.0000 1.0000
C12_10 C 0.4533(3) 1.0000 1.0000
C13_7 C 0.6900(3) 0.9415(2) 0.9878(4)
C16_7 C 0.6887(4) 0.8271(2) 0.9661(4)
C17_7 C 0.7368(4) 0.8819(3) 0.9287(4)
H9_7 H 0.7702 0.8808 0.8951
C18_7 C 0.7388(4) 0.9404(3) 0.9380(4)
H10_7 H 0.7725 0.9775 0.9110
C19_7 C 0.6899(4) 0.7658(2) 0.9520(4)
C20_7 C 0.5857(5) 0.9671(3) 0.9221(4)
H11_7 H 0.5938 0.9449 0.8715
C21_7 C 0.5283(5) 0.9682(3) 0.9218(5)
H12_7 H 0.4985 0.9479 0.8697
N1_11 N 0.3094(2) 0.3093(2) 0.0000
C1_8 C 0.3100(3) 0.2514(2) 0.0122(4)
C4_8 C 0.3113(4) 0.1383(3) 0.0339(4)
C5_8 C 0.2632(4) 0.1450(3) 0.0713(4)
H3_8 H 0.2298 0.1105 0.1049
C6_8 C 0.2612(4) 0.2015(2) 0.0620(4)
H4_8 H 0.2275 0.2049 0.0890
C7_8 C 0.3101(4) 0.0758(3) 0.0480(4)
C8_11 C 0.3688(3) 0.3687(3) 0.0000
C9_8 C 0.4143(5) 0.3813(4) 0.0779(4)
H5_8 H 0.4062 0.3510 0.1285
C10_8 C 0.4717(5) 0.4398(4) 0.0782(5)
H6_8 H 0.5015 0.4493 0.1303
C11_11 C 0.4839(3) 0.4838(3) 0.0000
C12_11 C 0.5468(3) 0.5467(3) 0.0000
C14_8 C 0.2460(4) 0.3603(4) 0.0243(5)
H7_8 H 0.2805 0.3947 0.0561
C15_8 C 0.1887(5) 0.3594(4) 0.0131(4)
H8_8 H 0.1850 0.3932 0.0391
N1_12 N 0.3094(2) 0.3093(2) 1.0000
C2_8 C 0.3603(4) 0.2460(3) 0.9757(5)
H1_8 H 0.3947 0.2805 0.9439
C3_8 C 0.3594(4) 0.1887(3) 0.9869(4)
H2_8 H 0.3932 0.1850 0.9609
C8_12 C 0.3688(3) 0.3687(3) 1.0000
C11_12 C 0.4839(3) 0.4838(3) 1.0000
C12_12 C 0.5468(3) 0.5467(3) 1.0000
C13_8 C 0.2514(4) 0.3100(3) 0.9878(4)
C16_8 C 0.1383(4) 0.3113(4) 0.9661(4)
C17_8 C 0.1450(5) 0.2632(4) 0.9287(4)
H9_8 H 0.1105 0.2298 0.8951
C18_8 C 0.2015(5) 0.2612(4) 0.9380(4)
H10_8 H 0.2049 0.2275 0.9110
C19_8 C 0.0758(4) 0.3101(4) 0.9520(4)
C20_8 C 0.3813(6) 0.4143(5) 0.9221(4)
H11_8 H 0.3510 0.4062 0.8715
C21_8 C 0.4398(6) 0.4717(5) 0.9218(5)
H12_8 H 0.4493 0.5015 0.8697
N1_13 N -0.0000 0.6906(2) 0.0000
C8_13 C -0.0000 0.6312(3) 0.0000
C11_13 C -0.0000 0.5161(3) 0.0000
C12_13 C -0.0000 0.4532(3) 0.0000
C14_9 C 0.1142(2) 0.7540(4) 0.0243(5)
H7_9 H 0.1141 0.7195 0.0561
C15_9 C 0.1706(3) 0.8113(5) 0.0131(4)
H8_9 H 0.2081 0.8150 0.0391
N1_14 N -0.0000 0.6906(2) 1.0000
C8_14 C -0.0000 0.6312(3) 1.0000
C11_14 C -0.0000 0.5161(3) 1.0000
C12_14 C -0.0000 0.4532(3) 1.0000
C13_9 C 0.0585(2) 0.7486(4) 0.9878(4)
C16_9 C 0.1729(2) 0.8617(4) 0.9661(4)
C17_9 C 0.1181(3) 0.8550(5) 0.9287(4)
H9_9 H 0.1192 0.8895 0.8951
C18_9 C 0.0596(3) 0.7985(5) 0.9380(4)
H10_9 H 0.0225 0.7951 0.9110
C19_9 C 0.2342(2) 0.9242(4) 0.9520(4)
C20_9 C 0.0329(3) 0.6187(6) 0.9221(4)
H11_9 H 0.0551 0.6490 0.8715
C21_9 C 0.0318(3) 0.5602(6) 0.9218(5)
H12_9 H 0.0521 0.5507 0.8697
N1_15 N 1.0000 0.6906(2) 0.0000
C1_9 C 0.9415(2) 0.6900(3) 0.0122(4)
C4_9 C 0.8271(2) 0.6887(4) 0.0339(4)
C5_9 C 0.8819(3) 0.7368(4) 0.0713(4)
H3_9 H 0.8808 0.7702 0.1049
C6_9 C 0.9404(3) 0.7388(4) 0.0620(4)
H4_9 H 0.9775 0.7725 0.0890
C7_9 C 0.7658(2) 0.6899(4) 0.0480(4)
C8_15 C 1.0000 0.6312(3) 0.0000
C9_9 C 0.9671(3) 0.5857(5) 0.0779(4)
H5_9 H 0.9449 0.5938 0.1285
C10_9 C 0.9682(3) 0.5283(5) 0.0782(5)
H6_9 H 0.9479 0.4985 0.1303
C11_15 C 1.0000 0.5161(3) 0.0000
C12_15 C 1.0000 0.4532(3) 0.0000
N1_16 N 1.0000 0.6906(2) 1.0000
C2_9 C 0.8858(2) 0.6397(4) 0.9757(5)
H1_9 H 0.8859 0.6053 0.9439
C3_9 C 0.8294(3) 0.6406(4) 0.9869(4)
H2_9 H 0.7919 0.6068 0.9609
C8_16 C 1.0000 0.6312(3) 1.0000
C11_16 C 1.0000 0.5161(3) 1.0000
C12_16 C 1.0000 0.4532(3) 1.0000
H13_3 H 0.000343679 0.195835 0.428072
H14_3 H 0.0385953 0.21497 0.53634
H13_4 H 0.195492 0.999656 0.428072
H14_4 H 0.176375 0.961405 0.53634
loop_
_geom_bond_atom_site_label_1
_geom_bond_atom_site_label_2
_geom_bond_site_symmetry_1
_geom_bond_site_symmetry_2
O4 La1 1_555 1_555
O11 La1 1_555 1_555
O12 La1 1_555 1_555
La6 O11 1_555 1_555
O1 C7 1_555 1_555
N1 C1 1_555 1_555
C1 C2 1_555 1_555
C2 H1 1_555 1_555
C3 C2 1_555 1_555
H2 C3 1_555 1_555
C4 C3 1_555 1_555
C5 C4 1_555 1_555
H3 C5 1_555 1_555
C6 C1 1_555 1_555
H4 C6 1_555 1_555
C7 O2 1_555 1_555
O5 C19 1_555 1_555
C13 N1 1_555 1_555
C17 C16 1_555 1_555
H9 C17 1_555 1_555
C18 C13 1_555 1_555
H10 C18 1_555 1_555
C19 C16 1_555 1_555
La5 O5 1_555 1_555
La6_2 O2 1_555 1_555
C4 C7 1_555 1_555
C5 C6 1_555 1_555
C17 C18 1_555 1_555
O3 C12 1_555 1_555
C9 C8 1_555 1_555
H5 C9 1_555 1_555
C10 C9 1_555 1_555
H6 C10 1_555 1_555
C11 C10 1_555 1_555
C12 C11 1_555 1_555
H7 C14 1_555 1_555
C15 C14 1_555 1_555
H8 C15 1_555 1_555
O6 C12 1_555 1_555
C20 C8 1_555 1_555
H11 C20 1_555 1_555
C21 C11 1_555 1_555
H12 C21 1_555 1_555
La2 O3 1_555 1_555
La3 O7 1_555 1_555
La4 O6 1_555 1_555
C20 C21 1_555 1_555
O7 La5_2 1_555 1_555
O3_2 C12_2 1_555 1_555
C9_2 C8_2 1_555 1_555
H5_2 C9_2 1_555 1_555
C10_2 C9_2 1_555 1_555
H6_2 C10_2 1_555 1_555
C11_2 C10_2 1_555 1_555
C12_2 C11_2 1_555 1_555
H7_2 C14_2 1_555 1_555
C15_2 C14_2 1_555 1_555
H8_2 C15_2 1_555 1_555
O6_2 C12_2 1_555 1_555
C20_2 C8_2 1_555 1_555
H11_2 C20_2 1_555 1_555
C21_2 C11_2 1_555 1_555
H12_2 C21_2 1_555 1_555
La3 O3_2 1_555 1_555
La5_2 O6_2 1_555 1_555
C20_2 C21_2 1_555 1_555
La2 O1_2 1_555 1_555
O1_2 C7_2 1_555 1_555
O2_2 La2 1_555 1_555
O4_2 La2 1_555 1_555
N1_2 C1_2 1_555 1_555
C1_2 C2_2 1_555 1_555
C2_2 H1_2 1_555 1_555
C3_2 C2_2 1_555 1_555
H2_2 C3_2 1_555 1_555
C4_2 C3_2 1_555 1_555
C5_2 C4_2 1_555 1_555
H3_2 C5_2 1_555 1_555
C6_2 C1_2 1_555 1_555
H4_2 C6_2 1_555 1_555
C7_2 O2_2 1_555 1_555
O5_2 C19_2 1_555 1_555
C13_2 N1_2 1_555 1_555
C17_2 C16_2 1_555 1_555
H9_2 C17_2 1_555 1_555
C18_2 C13_2 1_555 1_555
H10_2 C18_2 1_555 1_555
C19_2 C16_2 1_555 1_555
La6_2 O5_2 1_555 1_555
La4 O2_2 1_555 1_555
O8_2 La2 1_555 1_555
O9_2 La2 1_555 1_555
O11_2 La2 1_555 1_555
O13_2 La2 1_555 1_555
C4_2 C7_2 1_555 1_555
C5_2 C6_2 1_555 1_555
C17_2 C18_2 1_555 1_555
La4 O11_2 1_555 1_555
O1_3 C7_3 1_555 1_555
O12 C12_3 1_555 1_555
N1_3 C1_3 1_555 1_555
C1_3 C2_3 1_555 1_555
C2_3 H1_3 1_555 1_555
C3_3 C2_3 1_555 1_555
H2_3 C3_3 1_555 1_555
C4_3 C3_3 1_555 1_555
C5_3 C4_3 1_555 1_555
H3_3 C5_3 1_555 1_555
C6_3 C1_3 1_555 1_555
H4_3 C6_3 1_555 1_555
C7_3 O2_3 1_555 1_555
C8_3 N1_3 1_555 1_555
C9_3 C8_3 1_555 1_555
H5_3 C9_3 1_555 1_555
C10_3 C9_3 1_555 1_555
H6_3 C10_3 1_555 1_555
C11_3 C10_3 1_555 1_555
C12_3 C11_3 1_555 1_555
O5_3 C19_3 1_555 1_555
C13_3 N1_3 1_555 1_555
C14_3 C13_3 1_555 1_555
H7_3 C14_3 1_555 1_555
C15_3 C14_3 1_555 1_555
H8_3 C15_3 1_555 1_555
C16_3 C15_3 1_555 1_555
C17_3 C16_3 1_555 1_555
H9_3 C17_3 1_555 1_555
C18_3 C13_3 1_555 1_555
H10_3 C18_3 1_555 1_555
C19_3 C16_3 1_555 1_555
O6_3 C12_3 1_555 1_555
C20_3 C8_3 1_555 1_555
H11_3 C20_3 1_555 1_555
C21_3 C11_3 1_555 1_555
H12_3 C21_3 1_555 1_555
O11_2 C19_3 1_555 1_555
La6 O6_3 1_555 1_555
La4 O5_3 1_555 1_555
La5 O2_3 1_555 1_555
C4_3 C7_3 1_555 1_555
C5_3 C6_3 1_555 1_555
C17_3 C18_3 1_555 1_555
C20_3 C21_3 1_555 1_555
O4_3 La3 1_555 1_555
O4_4 La1_2 1_555 1_555
O11_3 La1_2 1_555 1_555
O12_2 La1_2 1_555 1_555
La5 O11_3 1_555 1_555
O1_4 C7_4 1_555 1_555
N1_4 C1_4 1_555 1_555
C1_4 C2_4 1_555 1_555
C2_4 H1_4 1_555 1_555
C3_4 C2_4 1_555 1_555
H2_4 C3_4 1_555 1_555
C4_4 C3_4 1_555 1_555
C5_4 C4_4 1_555 1_555
H3_4 C5_4 1_555 1_555
C6_4 C1_4 1_555 1_555
H4_4 C6_4 1_555 1_555
C7_4 O2_4 1_555 1_555
O5_4 C19_4 1_555 1_555
C13_4 N1_4 1_555 1_555
C17_4 C16_4 1_555 1_555
H9_4 C17_4 1_555 1_555
C18_4 C13_4 1_555 1_555
H10_4 C18_4 1_555 1_555
C19_4 C16_4 1_555 1_555
La6 O5_4 1_555 1_555
La5_2 O2_4 1_555 1_555
C4_4 C7_4 1_555 1_555
C5_4 C6_4 1_555 1_555
C17_4 C18_4 1_555 1_555
O3_3 C12_4 1_555 1_555
C9_4 C8_4 1_555 1_555
H5_4 C9_4 1_555 1_555
C10_4 C9_4 1_555 1_555
H6_4 C10_4 1_555 1_555
C11_4 C10_4 1_555 1_555
C12_4 C11_4 1_555 1_555
H7_4 C14_4 1_555 1_555
C15_4 C14_4 1_555 1_555
H8_4 C15_4 1_555 1_555
O6_4 C12_4 1_555 1_555
C20_4 C8_4 1_555 1_555
H11_4 C20_4 1_555 1_555
C21_4 C11_4 1_555 1_555
H12_4 C21_4 1_555 1_555
La2_2 O3_3 1_555 1_555
La3_2 O7_2 1_555 1_555
La4 O6_4 1_555 1_555
C20_4 C21_4 1_555 1_555
O7_2 La6_2 1_555 1_555
O3_4 C12_5 1_555 1_555
C9_5 C8_5 1_555 1_555
H5_5 C9_5 1_555 1_555
C10_5 C9_5 1_555 1_555
H6_5 C10_5 1_555 1_555
C11_5 C10_5 1_555 1_555
C12_5 C11_5 1_555 1_555
H7_5 C14_5 1_555 1_555
C15_5 C14_5 1_555 1_555
H8_5 C15_5 1_555 1_555
O6_5 C12_5 1_555 1_555
C20_5 C8_5 1_555 1_555
H11_5 C20_5 1_555 1_555
C21_5 C11_5 1_555 1_555
H12_5 C21_5 1_555 1_555
La3_2 O3_4 1_555 1_555
La6_2 O6_5 1_555 1_555
C20_5 C21_5 1_555 1_555
La2_2 O1_5 1_555 1_555
O1_5 C7_5 1_555 1_555
O2_5 La2_2 1_555 1_555
O4_5 La2_2 1_555 1_555
N1_5 C1_5 1_555 1_555
C1_5 C2_5 1_555 1_555
C2_5 H1_5 1_555 1_555
C3_5 C2_5 1_555 1_555
H2_5 C3_5 1_555 1_555
C4_5 C3_5 1_555 1_555
C5_5 C4_5 1_555 1_555
H3_5 C5_5 1_555 1_555
C6_5 C1_5 1_555 1_555
H4_5 C6_5 1_555 1_555
C7_5 O2_5 1_555 1_555
O5_5 C19_5 1_555 1_555
C13_5 N1_5 1_555 1_555
C17_5 C16_5 1_555 1_555
H9_5 C17_5 1_555 1_555
C18_5 C13_5 1_555 1_555
H10_5 C18_5 1_555 1_555
C19_5 C16_5 1_555 1_555
La5_2 O5_5 1_555 1_555
La4 O2_5 1_555 1_555
O8_5 La2_2 1_555 1_555
O10_2 La2_2 1_555 1_555
O11_4 La2_2 1_555 1_555
O13_5 La2_2 1_555 1_555
C4_5 C7_5 1_555 1_555
C5_5 C6_5 1_555 1_555
C17_5 C18_5 1_555 1_555
La4 O11_4 1_555 1_555
O1_6 C7_6 1_555 1_555
O12_2 C12_6 1_555 1_555
N1_6 C1_6 1_555 1_555
C1_6 C2_6 1_555 1_555
C2_6 H1_6 1_555 1_555
C3_6 C2_6 1_555 1_555
H2_6 C3_6 1_555 1_555
C4_6 C3_6 1_555 1_555
C5_6 C4_6 1_555 1_555
H3_6 C5_6 1_555 1_555
C6_6 C1_6 1_555 1_555
H4_6 C6_6 1_555 1_555
C7_6 O2_6 1_555 1_555
C8_6 N1_6 1_555 1_555
C9_6 C8_6 1_555 1_555
H5_6 C9_6 1_555 1_555
C10_6 C9_6 1_555 1_555
H6_6 C10_6 1_555 1_555
C11_6 C10_6 1_555 1_555
C12_6 C11_6 1_555 1_555
O5_6 C19_6 1_555 1_555
C13_6 N1_6 1_555 1_555
C14_6 C13_6 1_555 1_555
H7_6 C14_6 1_555 1_555
C15_6 C14_6 1_555 1_555
H8_6 C15_6 1_555 1_555
C16_6 C15_6 1_555 1_555
C17_6 C16_6 1_555 1_555
H9_6 C17_6 1_555 1_555
C18_6 C13_6 1_555 1_555
H10_6 C18_6 1_555 1_555
C19_6 C16_6 1_555 1_555
O6_6 C12_6 1_555 1_555
C20_6 C8_6 1_555 1_555
H11_6 C20_6 1_555 1_555
C21_6 C11_6 1_555 1_555
H12_6 C21_6 1_555 1_555
O11_4 C19_6 1_555 1_555
La5 O6_6 1_555 1_555
La4 O5_6 1_555 1_555
La6 O2_6 1_555 1_555
C4_6 C7_6 1_555 1_555
C5_6 C6_6 1_555 1_555
C17_6 C18_6 1_555 1_555
C20_6 C21_6 1_555 1_555
O4_6 La3_2 1_555 1_555
O4_7 La4 1_555 1_555
O4_8 La5 1_555 1_555
O4_8 H13 1_555 1_555
O4_8 H14 1_555 1_555
O4_9 La5_2 1_555 1_555
O4_10 La6 1_555 1_555
O4_11 La6_2 1_555 1_555
O4_11 H13_2 1_555 1_555
O4_11 H14_2 1_555 1_555
O8 C7_7 1_555 1_555
O13_3 C12_7 1_555 1_555
N1_7 C1_7 1_555 1_555
C5_7 C4_7 1_555 1_555
H3_7 C5_7 1_555 1_555
C6_7 C1_7 1_555 1_555
H4_7 C6_7 1_555 1_555
C7_7 O9 1_555 1_555
C8_7 N1_7 1_555 1_555
C9_7 C8_7 1_555 1_555
H5_7 C9_7 1_555 1_555
C10_7 C9_7 1_555 1_555
H6_7 C10_7 1_555 1_555
C11_7 C10_7 1_555 1_555
C12_7 C11_7 1_555 1_555
C4_7 C7_7 1_555 1_555
C5_7 C6_7 1_555 1_555
C2_7 H1_7 1_555 1_555
C3_7 C2_7 1_555 1_555
H2_7 C3_7 1_555 1_555
C8_8 N1_8 1_555 1_555
C12_8 C11_8 1_555 1_555
C8_9 N1_9 1_555 1_555
C12_9 C11_9 1_555 1_555
H7_7 C14_7 1_555 1_555
C15_7 C14_7 1_555 1_555
H8_7 C15_7 1_555 1_555
C8_10 N1_10 1_555 1_555
C12_10 C11_10 1_555 1_555
O8_5 C19_7 1_555 1_555
C13_7 N1_10 1_555 1_555
C17_7 C16_7 1_555 1_555
H9_7 C17_7 1_555 1_555
C18_7 C13_7 1_555 1_555
H10_7 C18_7 1_555 1_555
C19_7 C16_7 1_555 1_555
O13_4 C12_10 1_555 1_555
C20_7 C8_10 1_555 1_555
H11_7 C20_7 1_555 1_555
C21_7 C11_10 1_555 1_555
H12_7 C21_7 1_555 1_555
O10_2 C19_7 1_555 1_555
C17_7 C18_7 1_555 1_555
C20_7 C21_7 1_555 1_555
O8_3 C7_8 1_555 1_555
O13_2 C12_11 1_555 1_555
N1_11 C1_8 1_555 1_555
C5_8 C4_8 1_555 1_555
H3_8 C5_8 1_555 1_555
C6_8 C1_8 1_555 1_555
H4_8 C6_8 1_555 1_555
C7_8 O9_3 1_555 1_555
C8_11 N1_11 1_555 1_555
C9_8 C8_11 1_555 1_555
H5_8 C9_8 1_555 1_555
C10_8 C9_8 1_555 1_555
H6_8 C10_8 1_555 1_555
C11_11 C10_8 1_555 1_555
C12_11 C11_11 1_555 1_555
H7_8 C14_8 1_555 1_555
C15_8 C14_8 1_555 1_555
H8_8 C15_8 1_555 1_555
C4_8 C7_8 1_555 1_555
C5_8 C6_8 1_555 1_555
C2_8 H1_8 1_555 1_555
C3_8 C2_8 1_555 1_555
H2_8 C3_8 1_555 1_555
C8_12 N1_12 1_555 1_555
C12_12 C11_12 1_555 1_555
O8_6 C19_8 1_555 1_555
C13_8 N1_12 1_555 1_555
C17_8 C16_8 1_555 1_555
H9_8 C17_8 1_555 1_555
C18_8 C13_8 1_555 1_555
H10_8 C18_8 1_555 1_555
C19_8 C16_8 1_555 1_555
O13_5 C12_12 1_555 1_555
C20_8 C8_12 1_555 1_555
H11_8 C20_8 1_555 1_555
C21_8 C11_12 1_555 1_555
H12_8 C21_8 1_555 1_555
O10 C19_8 1_555 1_555
C17_8 C18_8 1_555 1_555
C20_8 C21_8 1_555 1_555
C8_13 N1_13 1_555 1_555
C12_13 C11_13 1_555 1_555
H7_9 C14_9 1_555 1_555
C15_9 C14_9 1_555 1_555
H8_9 C15_9 1_555 1_555
C8_14 N1_14 1_555 1_555
C12_14 C11_14 1_555 1_555
O8_4 C19_9 1_555 1_555
C13_9 N1_14 1_555 1_555
C17_9 C16_9 1_555 1_555
H9_9 C17_9 1_555 1_555
C18_9 C13_9 1_555 1_555
H10_9 C18_9 1_555 1_555
C19_9 C16_9 1_555 1_555
O13_6 C12_14 1_555 1_555
C20_9 C8_14 1_555 1_555
H11_9 C20_9 1_555 1_555
C21_9 C11_14 1_555 1_555
H12_9 C21_9 1_555 1_555
O10_3 C19_9 1_555 1_555
C17_9 C18_9 1_555 1_555
C20_9 C21_9 1_555 1_555
O8_2 C7_9 1_555 1_555
O13 C12_15 1_555 1_555
N1_15 C1_9 1_555 1_555
C5_9 C4_9 1_555 1_555
H3_9 C5_9 1_555 1_555
C6_9 C1_9 1_555 1_555
H4_9 C6_9 1_555 1_555
C7_9 O9_2 1_555 1_555
C8_15 N1_15 1_555 1_555
C9_9 C8_15 1_555 1_555
H5_9 C9_9 1_555 1_555
C10_9 C9_9 1_555 1_555
H6_9 C10_9 1_555 1_555
C11_15 C10_9 1_555 1_555
C12_15 C11_15 1_555 1_555
C4_9 C7_9 1_555 1_555
C5_9 C6_9 1_555 1_555
C2_9 H1_9 1_555 1_555
C3_9 C2_9 1_555 1_555
H2_9 C3_9 1_555 1_555
C8_16 N1_16 1_555 1_555
C12_16 C11_16 1_555 1_555
O4_10 H13_3 1_555 1_555
O4_10 H14_3 1_555 1_555
O4_9 H13_4 1_555 1_555
O4_9 H14_4 1_555 1_555

#END
