
###############################################################################
#
# This file contains modified crystal structure data generated from the
# MOF subset of the Cambridge Structural Database (CSD) v543 
# hosted by the Cambridge Crystallographic Data Centre (CCDC).
#
# This work is licensed under the Creative Commons
# Attribution-NonCommercial-ShareAlike 4.0 International License.
# To view a copy of this license, visit
# http://creativecommons.org/licenses/by-nc-sa/4.0/
# or send a letter to
# Creative Commons, PO Box 1866, Mountain View, CA 94042, USA.
#
# CIF created using the CSD Python API on 29 September 2022
# The structure has been converted into the P1 space group
# The structure has a 3D framework
# The original CSD entry RUYQIN02 is in the rhombohedral crystal system
# The original CSD entry RUYQIN02 is in a Sohncke space group
# The framework has been calculated to contain at least 10.0% void space
# The void calculation uses a probe of radius 1.32A, grid spacing 0.4
# H atom positions have been added when not included in the experimental data
# Generated hydrogen atom positions removed from atoms on special positions
#
###############################################################################

data_RUYQIN02
_chemical_formula_moiety         '(C210 H144 La11 N16 O63)n'
_symmetry_cell_setting           triclinic
_symmetry_space_group_name_H-M   'P 1'
_symmetry_Int_Tables_number      1
_space_group_name_Hall           'P 1'
loop_
_symmetry_equiv_pos_site_id
_symmetry_equiv_pos_as_xyz
1 x,y,z
_cell_length_a                   24.2447(8)
_cell_length_b                   24.2447(8)
_cell_length_c                   13.1705(8)
_cell_angle_alpha                90
_cell_angle_beta                 90
_cell_angle_gamma                120
_cell_volume                     6704.5
loop_
_atom_site_label
_atom_site_type_symbol
_atom_site_fract_x
_atom_site_fract_y
_atom_site_fract_z
N1 N -0.0000 0.3116(4) 0.0000
C8 C -0.0000 0.3705(4) 0.0000
C11 C -0.0000 0.4839(4) 0.0000
C12 C -0.0000 0.5457(5) 0.0000
C14 C 0.1156(4) 0.3624(6) 0.0230(6)
H7 H 0.1162 0.3973 0.0534
C15 C 0.1722(4) 0.3608(6) 0.0124(6)
H8 H 0.2098 0.3948 0.0375
La2 La 0.01764(2) 0.66667(3) 0.1667
La3 La 0.33333(3) 0.35097(2) 0.1667
N1_2 N -0.0000 0.3116(4) 1.0000
C8_2 C -0.0000 0.3705(4) 1.0000
C11_2 C -0.0000 0.4839(4) 1.0000
C12_2 C -0.0000 0.5457(5) 1.0000
O5 O 0.2352(2) 0.2709(4) 0.8906(4)
C13 C 0.0578(3) 0.3116(5) 0.9880(5)
C16 C 0.1745(4) 0.3130(6) 0.9681(6)
C17 C 0.0597(4) 0.2605(5) 0.9374(5)
H9 H 0.0224 0.2269 0.9113
C18 C 0.1185(4) 0.2603(6) 0.9261(6)
H10 H 0.1201 0.2273 0.8929
C19 C 0.2340(4) 0.3111(6) 0.9531(6)
O6 O 0.0071(3) 0.5744(5) 0.9165(4)
C20 C 0.0276(4) 0.4116(7) 0.9231(6)
H11 H 0.0475 0.4022 0.8709
C21 C 0.0263(4) 0.4666(7) 0.9222(6)
H12 H 0.0438 0.4939 0.8670
O7 O 0.2842(4) 0.3540(4) 0.9996(3)
La6 La 0.35097(2) 0.33333(3) 0.8333
O1 O 0.7648(2) 0.0357(3) 0.1094(4)
O2 O 0.7158(4) 0.0698(2) 0.0004(3)
O3 O 0.9929(3) 0.5673(4) 0.0835(4)
N1_3 N 1.0000 0.3116(4) 0.0000
C1 C 0.9422(3) 0.2538(4) 0.0120(5)
C4 C 0.8255(4) 0.1385(4) 0.0319(6)
C5 C 0.9403(4) 0.2008(3) 0.0626(5)
H3 H 0.9776 0.2045 0.0887
C6 C 0.8815(4) 0.1418(4) 0.0739(6)
H4 H 0.8799 0.1072 0.1071
C7 C 0.7660(4) 0.0771(4) 0.0469(6)
C8_3 C 1.0000 0.3705(4) 0.0000
C9 C 0.9724(4) 0.3840(6) 0.0769(6)
H5 H 0.9525 0.3547 0.1291
C10 C 0.9737(4) 0.4403(6) 0.0778(6)
H6 H 0.9562 0.4501 0.1330
C11_3 C 1.0000 0.4839(4) 0.0000
C12_3 C 1.0000 0.5457(5) 0.0000
O8 O 0.7024(3) 0.0981(2) 0.2239(4)
O11 O 0.7365(2) 0.0491(4) 0.3329(3)
O12 O 0.5744(5) 0.0071(3) 0.0835(4)
N1_4 N 1.0000 0.3116(4) 1.0000
C2 C 0.8844(4) 0.2468(4) 0.9770(6)
H1 H 0.8838 0.2811 0.9466
C3 C 0.8278(4) 0.1886(4) 0.9876(6)
H2 H 0.7902 0.1850 0.9625
C8_4 C 1.0000 0.3705(4) 1.0000
C11_4 C 1.0000 0.4839(4) 1.0000
C12_4 C 1.0000 0.5457(5) 1.0000
La4 La 0.98236(2) 0.64903(2) 0.8333
La5 La 0.66667(3) 0.01764(2) 0.8333
La1 La 0.64903(2) 0.98236(2) 0.1667
O4 O 0.5411(5) 0.8745(5) 0.1667
O10 O 0.5969(2) 0.9793(4) 0.3337(3)
O13 O 0.6738(3) 0.9077(5) 0.2498(4)
O9 O 0.6460(4) 0.9302(2) 0.9996(3)
O4_2 O 0.1255(5) 0.6666(7) 0.1667
O10_2 O 0.0207(4) 0.6175(4) 0.3337(3)
O13_2 O 0.0923(5) 0.7660(6) 0.2498(4)
O9_2 O 0.0698(2) 0.7158(4) 0.9996(3)
O1_2 O 0.9643(3) 0.7291(4) 0.1094(4)
O2_2 O 0.9302(2) 0.6460(4) 0.0004(3)
O3_2 O 0.4327(4) 0.4256(5) 0.0835(4)
N1_5 N 0.6884(4) 0.6884(4) 0.0000
C1_2 C 0.7462(4) 0.6884(5) 0.0120(5)
C4_2 C 0.8615(4) 0.6870(6) 0.0319(6)
C5_2 C 0.7992(3) 0.7395(5) 0.0626(5)
H3_2 H 0.7955 0.7731 0.0887
C6_2 C 0.8582(4) 0.7397(6) 0.0739(6)
H4_2 H 0.8928 0.7727 0.1071
C7_2 C 0.9229(4) 0.6889(6) 0.0469(6)
C8_5 C 0.6295(4) 0.6295(4) 0.0000
C9_2 C 0.6160(6) 0.5884(7) 0.0769(6)
H5_2 H 0.6453 0.5978 0.1291
C10_2 C 0.5597(6) 0.5334(7) 0.0778(6)
H6_2 H 0.5499 0.5061 0.1330
C11_5 C 0.5161(4) 0.5161(4) 0.0000
C12_5 C 0.4543(5) 0.4543(5) 0.0000
C14_2 C 0.6376(6) 0.7532(7) 0.0230(6)
H7_2 H 0.6027 0.7189 0.0534
C15_2 C 0.6392(6) 0.8114(7) 0.0124(6)
H8_2 H 0.6052 0.8150 0.0375
O8_2 O 0.9019(2) 0.6042(4) 0.2239(4)
O11_2 O 0.9509(4) 0.6873(4) 0.3329(3)
N1_6 N 0.6884(4) 0.6884(4) 1.0000
C2_2 C 0.7532(4) 0.6376(6) 0.9770(6)
H1_2 H 0.7189 0.6027 0.9466
C3_2 C 0.8114(4) 0.6392(6) 0.9876(6)
H2_2 H 0.8150 0.6052 0.9625
C8_6 C 0.6295(4) 0.6295(4) 1.0000
C11_6 C 0.5161(4) 0.5161(4) 1.0000
C12_6 C 0.4543(5) 0.4543(5) 1.0000
O5_2 O 0.7291(4) 0.9643(4) 0.8906(4)
C13_2 C 0.6884(5) 0.7462(6) 0.9880(5)
C16_2 C 0.6870(6) 0.8615(7) 0.9681(6)
C17_2 C 0.7395(5) 0.7992(6) 0.9374(5)
H9_2 H 0.7731 0.7955 0.9113
C18_2 C 0.7397(6) 0.8582(7) 0.9261(6)
H10_2 H 0.7727 0.8928 0.8929
C19_2 C 0.6889(6) 0.9229(7) 0.9531(6)
O6_2 O 0.4256(5) 0.4327(6) 0.9165(4)
C20_2 C 0.5884(7) 0.6160(8) 0.9231(6)
H11_2 H 0.5978 0.6453 0.8709
C21_2 C 0.5334(7) 0.5597(8) 0.9222(6)
H12_2 H 0.5061 0.5499 0.8670
O1_3 O 0.2709(4) 0.2352(2) 0.1094(4)
O2_3 O 0.3540(4) 0.2842(4) 0.0004(3)
O4_3 O 0.3334(7) 0.4589(5) 0.1667
N1_7 N 0.3116(4) 0.0000 0.0000
C1_3 C 0.3116(5) 0.0578(3) 0.0120(5)
C4_3 C 0.3130(6) 0.1745(4) 0.0319(6)
C5_3 C 0.2605(5) 0.0597(4) 0.0626(5)
H3_3 H 0.2269 0.0224 0.0887
C6_3 C 0.2603(6) 0.1185(4) 0.0739(6)
H4_3 H 0.2273 0.1201 0.1071
C7_3 C 0.3111(6) 0.2340(4) 0.0469(6)
C8_7 C 0.3705(4) 0.0000 0.0000
C9_3 C 0.4116(7) 0.0276(4) 0.0769(6)
H5_3 H 0.4022 0.0475 0.1291
C10_3 C 0.4666(7) 0.0263(4) 0.0778(6)
H6_3 H 0.4939 0.0438 0.1330
C11_7 C 0.4839(4) 0.0000 0.0000
C12_7 C 0.5457(5) 0.0000 0.0000
O8_3 O 0.3958(4) 0.2976(3) 0.2239(4)
O10_3 O 0.3825(4) 0.4031(2) 0.3337(3)
O11_3 O 0.3127(4) 0.2635(2) 0.3329(3)
O13_3 O 0.2340(6) 0.3262(3) 0.2498(4)
N1_8 N 0.3116(4) 0.0000 1.0000
C2_3 C 0.3624(6) 0.1156(4) 0.9770(6)
H1_3 H 0.3973 0.1162 0.9466
C3_3 C 0.3608(6) 0.1722(4) 0.9876(6)
H2_3 H 0.3948 0.2098 0.9625
C8_8 C 0.3705(4) 0.0000 1.0000
C11_8 C 0.4839(4) 0.0000 1.0000
C12_8 C 0.5457(5) 0.0000 1.0000
N1_9 N 0.3116(4) 1.0000 0.0000
C8_9 C 0.3705(4) 1.0000 0.0000
C11_9 C 0.4839(4) 1.0000 0.0000
C12_9 C 0.5457(5) 1.0000 0.0000
C14_3 C 0.2468(7) 0.8844(4) 0.0230(6)
H7_3 H 0.2811 0.8838 0.0534
C15_3 C 0.1886(7) 0.8278(4) 0.0124(6)
H8_3 H 0.1850 0.7902 0.0375
N1_10 N 0.3116(4) 1.0000 1.0000
C8_10 C 0.3705(4) 1.0000 1.0000
C11_10 C 0.4839(4) 1.0000 1.0000
C12_10 C 0.5457(5) 1.0000 1.0000
O5_3 O 0.0357(4) 0.7648(2) 0.8906(4)
C13_3 C 0.2538(6) 0.9422(3) 0.9880(5)
C16_3 C 0.1385(7) 0.8255(4) 0.9681(6)
C17_3 C 0.2008(6) 0.9403(4) 0.9374(5)
H9_3 H 0.2045 0.9776 0.9113
C18_3 C 0.1418(7) 0.8815(4) 0.9261(6)
H10_3 H 0.1072 0.8799 0.8929
C19_3 C 0.0771(7) 0.7660(4) 0.9531(6)
O6_3 O 0.5673(6) 0.9929(3) 0.9165(4)
C20_3 C 0.3840(8) 0.9724(4) 0.9231(6)
H11_3 H 0.3547 0.9525 0.8709
C21_3 C 0.4403(8) 0.9737(4) 0.9222(6)
H12_3 H 0.4501 0.9562 0.8670
O8_4 O 0.0981(2) 0.7024(3) 0.7761(4)
O11_4 O 0.0491(4) 0.7365(2) 0.6671(3)
O4_4 O 0.8745(5) 0.5411(5) 0.8333
O10_4 O 0.9793(4) 0.5969(2) 0.6663(3)
O13_4 O 0.9077(5) 0.6738(3) 0.7502(4)
O4_5 O 0.6666(7) 0.1255(5) 0.8333
O10_5 O 0.6175(4) 0.0207(4) 0.6663(3)
O13_5 O 0.7660(6) 0.0923(5) 0.7502(4)
O8_5 O 0.6042(4) 0.9019(2) 0.7761(4)
O11_5 O 0.6873(4) 0.9509(4) 0.6671(3)
O4_6 O 0.4589(5) 0.3334(7) 0.8333
O8_6 O 0.2976(3) 0.3958(4) 0.7761(4)
O10_6 O 0.4031(2) 0.3825(4) 0.6663(3)
O11_6 O 0.2635(2) 0.3127(4) 0.6671(3)
O13_6 O 0.3262(3) 0.2340(6) 0.7502(4)
La3_2 La -0.00000(3) 0.68430(2) 0.5000
La2_2 La 0.68431(2) 0.00000(3) 0.5000
La1_2 La 0.31570(2) 0.31569(2) 0.5000
O1_4 O 0.4315(2) 0.3690(3) 0.4427(4)
O3_3 O 0.6596(3) 0.9006(4) 0.4168(4)
O4_7 O 0.2078(5) 0.2078(5) 0.5000
N1_11 N 0.6667 0.6449(4) 0.3333
C1_4 C 0.6089(3) 0.5871(4) 0.3453(5)
C2_4 C 0.5511(4) 0.5801(4) 0.3103(6)
H1_4 H 0.5505 0.6144 0.2799
C3_4 C 0.4945(4) 0.5219(4) 0.3209(6)
H2_4 H 0.4569 0.5183 0.2958
C4_4 C 0.4922(4) 0.4718(4) 0.3652(6)
C5_4 C 0.6070(4) 0.5341(3) 0.3959(5)
H3_4 H 0.6443 0.5378 0.4220
C6_4 C 0.5482(4) 0.4751(4) 0.4072(6)
H4_4 H 0.5466 0.4405 0.4404
C7_4 C 0.4327(4) 0.4104(4) 0.3802(6)
C8_11 C 0.6667 0.7038(4) 0.3333
C9_4 C 0.6391(4) 0.7173(6) 0.4102(6)
H5_4 H 0.6192 0.6880 0.4624
C10_4 C 0.6404(4) 0.7736(6) 0.4111(6)
H6_4 H 0.6229 0.7834 0.4663
C11_11 C 0.6667 0.8172(4) 0.3333
C12_11 C 0.6667 0.8790(5) 0.3333
C13_4 C 0.7245(3) 0.6449(5) 0.3213(5)
C14_4 C 0.7823(4) 0.6957(6) 0.3563(6)
H7_4 H 0.7829 0.7306 0.3867
C15_4 C 0.8389(4) 0.6941(6) 0.3457(6)
H8_4 H 0.8765 0.7281 0.3708
C16_4 C 0.8412(4) 0.6463(6) 0.3014(6)
C17_4 C 0.7264(4) 0.5938(5) 0.2707(5)
H9_4 H 0.6891 0.5602 0.2446
C18_4 C 0.7852(4) 0.5936(6) 0.2594(6)
H10_4 H 0.7868 0.5606 0.2262
C19_4 C 0.9007(4) 0.6444(6) 0.2864(6)
C20_4 C 0.6943(4) 0.7449(7) 0.2564(6)
H11_4 H 0.7142 0.7355 0.2042
C21_4 C 0.6930(4) 0.7999(7) 0.2555(6)
H12_4 H 0.7105 0.8272 0.2003
La2_3 La 0.68431(2) 1.00000(3) 0.5000
La3_3 La 1.00000(3) 0.68430(2) 0.5000
O8_7 O 0.3690(3) 0.4315(2) 0.5573(4)
O12_2 O 0.2411(5) 0.3404(3) 0.4168(4)
O13_7 O 0.3404(3) 0.2411(5) 0.5832(4)
O1_5 O 0.6310(3) 0.0624(4) 0.4427(4)
N1_12 N 0.3551(4) 0.0217(4) 0.3333
C1_5 C 0.4129(4) 0.0217(5) 0.3453(5)
C4_5 C 0.5282(4) 0.0203(6) 0.3652(6)
C5_5 C 0.4659(3) 0.0728(5) 0.3959(5)
H3_5 H 0.4622 0.1064 0.4220
C6_5 C 0.5249(4) 0.0730(6) 0.4072(6)
H4_5 H 0.5595 0.1060 0.4404
C7_5 C 0.5896(4) 0.0222(6) 0.3802(6)
C13_5 C 0.3551(5) 0.0795(6) 0.3213(5)
C14_5 C 0.3043(6) 0.0865(7) 0.3563(6)
H7_5 H 0.2694 0.0522 0.3867
C15_5 C 0.3059(6) 0.1447(7) 0.3457(6)
H8_5 H 0.2719 0.1483 0.3708
C16_5 C 0.3537(6) 0.1948(7) 0.3014(6)
C17_5 C 0.4062(5) 0.1325(6) 0.2707(5)
H9_5 H 0.4398 0.1288 0.2446
C18_5 C 0.4064(6) 0.1915(7) 0.2594(6)
H10_5 H 0.4394 0.2261 0.2262
C19_5 C 0.3556(6) 0.2562(7) 0.2864(6)
O13_8 O 0.7589(5) 0.0994(6) 0.5832(4)
H13 H 0.825132 0.0385208 0.535627
O3_4 O 0.0994(4) 0.7589(5) 0.4168(4)
O4_8 O 0.7922(5) 0.9999(7) 0.5000
C2_5 C 0.4199(4) 0.9709(6) 0.3103(6)
H1_5 H 0.3856 0.9360 0.2799
C3_5 C 0.4781(4) 0.9725(6) 0.3209(6)
H2_5 H 0.4817 0.9385 0.2958
C8_12 C 0.2962(4) 0.9628(4) 0.3333
C9_5 C 0.2827(6) 0.9217(7) 0.4102(6)
H5_5 H 0.3120 0.9311 0.4624
C10_5 C 0.2264(6) 0.8667(7) 0.4111(6)
H6_5 H 0.2166 0.8394 0.4663
C11_12 C 0.1828(4) 0.8494(4) 0.3333
C12_12 C 0.1210(5) 0.7876(5) 0.3333
C20_5 C 0.2551(7) 0.9493(8) 0.2564(6)
H11_5 H 0.2645 0.9786 0.2042
C21_5 C 0.2001(7) 0.8930(8) 0.2555(6)
H12_5 H 0.1728 0.8832 0.2003
O8_8 O 0.5685(2) 0.9376(4) 0.5573(4)
H14 H 0.786479 0.961291 0.535524
O4_9 O 0.0001(7) 0.7922(5) 0.5000
C2_6 C 0.0291(6) 0.4489(4) 0.3103(6)
H1_6 H 0.0640 0.4495 0.2799
C3_6 C 0.0275(6) 0.5055(4) 0.3209(6)
H2_6 H 0.0615 0.5431 0.2958
C8_13 C 0.0372(4) 0.3333 0.3333
C9_6 C 0.0783(7) 0.3609(4) 0.4102(6)
H5_6 H 0.0689 0.3808 0.4624
C10_6 C 0.1333(7) 0.3596(4) 0.4111(6)
H6_6 H 0.1606 0.3771 0.4663
C11_13 C 0.1506(4) 0.3333 0.3333
C12_13 C 0.2124(5) 0.3333 0.3333
C20_6 C 0.0507(8) 0.3057(4) 0.2564(6)
H11_6 H 0.0214 0.2858 0.2042
C21_6 C 0.1070(8) 0.3070(4) 0.2555(6)
H12_6 H 0.1168 0.2895 0.2003
O8_9 O 0.0624(4) 0.6310(3) 0.5573(4)
H14_2 H 0.0387092 0.825188 0.535524
O1_6 O 0.9376(4) 0.5685(2) 0.4427(4)
N1_13 N 0.9783(4) 0.3333 0.3333
C1_6 C 0.9783(5) 0.3911(3) 0.3453(5)
C4_6 C 0.9797(6) 0.5078(4) 0.3652(6)
C5_6 C 0.9272(5) 0.3930(4) 0.3959(5)
H3_6 H 0.8936 0.3557 0.4220
C6_6 C 0.9270(6) 0.4518(4) 0.4072(6)
H4_6 H 0.8940 0.4534 0.4404
C7_6 C 0.9778(6) 0.5673(4) 0.3802(6)
C13_6 C 0.9205(6) 0.2755(3) 0.3213(5)
C14_6 C 0.9135(7) 0.2177(4) 0.3563(6)
H7_6 H 0.9478 0.2171 0.3867
C15_6 C 0.8553(7) 0.1611(4) 0.3457(6)
H8_6 H 0.8517 0.1235 0.3708
C16_6 C 0.8052(7) 0.1588(4) 0.3014(6)
C17_6 C 0.8675(6) 0.2736(4) 0.2707(5)
H9_6 H 0.8712 0.3109 0.2446
C18_6 C 0.8085(7) 0.2148(4) 0.2594(6)
H10_6 H 0.7739 0.2132 0.2262
C19_6 C 0.7438(7) 0.0993(4) 0.2864(6)
O13_9 O 0.9006(6) 0.6596(3) 0.5832(4)
H13_2 H 0.961479 0.786611 0.535627
C8_14 C 0.3333 0.0372(4) 0.6667
C9_7 C 0.3057(4) 0.0507(6) 0.7436(6)
H5_7 H 0.2858 0.0214 0.7958
C10_7 C 0.3070(4) 0.1070(6) 0.7445(6)
H6_7 H 0.2895 0.1168 0.7997
C11_14 C 0.3333 0.1506(4) 0.6667
C12_14 C 0.3333 0.2124(5) 0.6667
C14_7 C 0.4489(4) 0.0291(6) 0.6897(6)
H7_7 H 0.4495 0.0640 0.7201
C15_7 C 0.5055(4) 0.0275(6) 0.6791(6)
H8_7 H 0.5431 0.0615 0.7042
C20_7 C 0.3609(4) 0.0783(7) 0.5898(6)
H11_7 H 0.3808 0.0689 0.5376
C21_7 C 0.3596(4) 0.1333(7) 0.5889(6)
H12_7 H 0.3771 0.1606 0.5337
N1_14 N 0.3333 0.9783(4) 0.6667
C1_7 C 0.2755(3) 0.9205(4) 0.6787(5)
C2_7 C 0.2177(4) 0.9135(4) 0.6437(6)
H1_7 H 0.2171 0.9478 0.6133
C3_7 C 0.1611(4) 0.8553(4) 0.6543(6)
H2_7 H 0.1235 0.8517 0.6292
C4_7 C 0.1588(4) 0.8052(4) 0.6986(6)
C5_7 C 0.2736(4) 0.8675(3) 0.7293(5)
H3_7 H 0.3109 0.8712 0.7554
C6_7 C 0.2148(4) 0.8085(4) 0.7406(6)
H4_7 H 0.2132 0.7739 0.7738
C7_7 C 0.0993(4) 0.7438(4) 0.7136(6)
C13_7 C 0.3911(3) 0.9783(5) 0.6547(5)
C16_7 C 0.5078(4) 0.9797(6) 0.6348(6)
C17_7 C 0.3930(4) 0.9272(5) 0.6041(5)
H9_7 H 0.3557 0.8936 0.5780
C18_7 C 0.4518(4) 0.9270(6) 0.5928(6)
H10_7 H 0.4534 0.8940 0.5596
C19_7 C 0.5673(4) 0.9778(6) 0.6198(6)
N1_15 N 0.0217(4) 0.3551(4) 0.6667
C1_8 C 0.0795(4) 0.3551(5) 0.6787(5)
C2_8 C 0.0865(4) 0.3043(6) 0.6437(6)
H1_8 H 0.0522 0.2694 0.6133
C3_8 C 0.1447(4) 0.3059(6) 0.6543(6)
H2_8 H 0.1483 0.2719 0.6292
C4_8 C 0.1948(4) 0.3537(6) 0.6986(6)
C5_8 C 0.1325(3) 0.4062(5) 0.7293(5)
H3_8 H 0.1288 0.4398 0.7554
C6_8 C 0.1915(4) 0.4064(6) 0.7406(6)
H4_8 H 0.2261 0.4394 0.7738
C7_8 C 0.2562(4) 0.3556(6) 0.7136(6)
C13_8 C 0.0217(5) 0.4129(6) 0.6547(5)
C16_8 C 0.0203(6) 0.5282(7) 0.6348(6)
C17_8 C 0.0728(5) 0.4659(6) 0.6041(5)
H9_8 H 0.1064 0.4622 0.5780
C18_8 C 0.0730(6) 0.5249(7) 0.5928(6)
H10_8 H 0.1060 0.5595 0.5596
C19_8 C 0.0222(6) 0.5896(7) 0.6198(6)
C8_15 C 0.9628(4) 0.2962(4) 0.6667
C9_8 C 0.9493(6) 0.2551(7) 0.7436(6)
H5_8 H 0.9786 0.2645 0.7958
C10_8 C 0.8930(6) 0.2001(7) 0.7445(6)
H6_8 H 0.8832 0.1728 0.7997
C11_15 C 0.8494(4) 0.1828(4) 0.6667
C12_15 C 0.7876(5) 0.1210(5) 0.6667
C14_8 C 0.9709(6) 0.4199(7) 0.6897(6)
H7_8 H 0.9360 0.3856 0.7201
C15_8 C 0.9725(6) 0.4781(7) 0.6791(6)
H8_8 H 0.9385 0.4817 0.7042
C20_8 C 0.9217(7) 0.2827(8) 0.5898(6)
H11_8 H 0.9311 0.3120 0.5376
C21_8 C 0.8667(7) 0.2264(8) 0.5889(6)
H12_8 H 0.8394 0.2166 0.5337
N1_16 N 0.6449(4) 0.6667 0.6667
C1_9 C 0.6449(5) 0.7245(3) 0.6787(5)
C2_9 C 0.6957(6) 0.7823(4) 0.6437(6)
H1_9 H 0.7306 0.7829 0.6133
C3_9 C 0.6941(6) 0.8389(4) 0.6543(6)
H2_9 H 0.7281 0.8765 0.6292
C4_9 C 0.6463(6) 0.8412(4) 0.6986(6)
C5_9 C 0.5938(5) 0.7264(4) 0.7293(5)
H3_9 H 0.5602 0.6891 0.7554
C6_9 C 0.5936(6) 0.7852(4) 0.7406(6)
H4_9 H 0.5606 0.7868 0.7738
C7_9 C 0.6444(6) 0.9007(4) 0.7136(6)
C8_16 C 0.7038(4) 0.6667 0.6667
C9_9 C 0.7449(7) 0.6943(4) 0.7436(6)
H5_9 H 0.7355 0.7142 0.7958
C10_9 C 0.7999(7) 0.6930(4) 0.7445(6)
H6_9 H 0.8272 0.7105 0.7997
C11_16 C 0.8172(4) 0.6667 0.6667
C12_16 C 0.8790(5) 0.6667 0.6667
C13_9 C 0.5871(6) 0.6089(3) 0.6547(5)
C14_9 C 0.5801(7) 0.5511(4) 0.6897(6)
H7_9 H 0.6144 0.5505 0.7201
C15_9 C 0.5219(7) 0.4945(4) 0.6791(6)
H8_9 H 0.5183 0.4569 0.7042
C16_9 C 0.4718(7) 0.4922(4) 0.6348(6)
C17_9 C 0.5341(6) 0.6070(4) 0.6041(5)
H9_9 H 0.5378 0.6443 0.5780
C18_9 C 0.4751(7) 0.5482(4) 0.5928(6)
H10_9 H 0.4405 0.5466 0.5596
C19_9 C 0.4104(7) 0.4327(4) 0.6198(6)
C20_9 C 0.7173(8) 0.6391(4) 0.5898(6)
H11_9 H 0.6880 0.6192 0.5376
C21_9 C 0.7736(8) 0.6404(4) 0.5889(6)
H12_9 H 0.7834 0.6229 0.5337
H13_3 H 0.0385208 0.825132 0.464373
O4_10 O 0.9999(7) 0.7922(5) 0.5000
H14_3 H 0.961291 0.786479 0.464476
O4_11 O 0.7922(5) 0.0001(7) 0.5000
H14_4 H 0.825188 0.0387092 0.464476
H13_4 H 0.786611 0.961479 0.464373
loop_
_geom_bond_atom_site_label_1
_geom_bond_atom_site_label_2
_geom_bond_site_symmetry_1
_geom_bond_site_symmetry_2
C8 N1 1_555 1_555
C12 C11 1_555 1_555
H7 C14 1_555 1_555
C15 C14 1_555 1_555
H8 C15 1_555 1_555
C8_2 N1_2 1_555 1_555
C12_2 C11_2 1_555 1_555
O5 C19 1_555 1_555
C13 N1_2 1_555 1_555
C17 C13 1_555 1_555
H9 C17 1_555 1_555
C18 C16 1_555 1_555
H10 C18 1_555 1_555
C19 C16 1_555 1_555
O6 C12_2 1_555 1_555
C20 C8_2 1_555 1_555
H11 C20 1_555 1_555
C21 C11_2 1_555 1_555
H12 C21 1_555 1_555
O7 C19 1_555 1_555
La6 O5 1_555 1_555
C17 C18 1_555 1_555
C20 C21 1_555 1_555
O7 La6 1_555 1_555
O1 C7 1_555 1_555
O3 C12_3 1_555 1_555
N1_3 C1 1_555 1_555
C5 C1 1_555 1_555
H3 C5 1_555 1_555
C6 C4 1_555 1_555
H4 C6 1_555 1_555
C7 O2 1_555 1_555
C8_3 N1_3 1_555 1_555
C9 C8_3 1_555 1_555
H5 C9 1_555 1_555
C10 C9 1_555 1_555
H6 C10 1_555 1_555
C11_3 C10 1_555 1_555
C12_3 C11_3 1_555 1_555
C4 C7 1_555 1_555
C5 C6 1_555 1_555
C2 H1 1_555 1_555
C3 C2 1_555 1_555
H2 C3 1_555 1_555
C8_4 N1_4 1_555 1_555
C12_4 C11_4 1_555 1_555
O4 La1 1_555 1_555
O10 La1 1_555 1_555
O13 La1 1_555 1_555
O4_2 La2 1_555 1_555
O10_2 La2 1_555 1_555
O13_2 La2 1_555 1_555
O1_2 C7_2 1_555 1_555
O3_2 C12_5 1_555 1_555
N1_5 C1_2 1_555 1_555
C5_2 C1_2 1_555 1_555
H3_2 C5_2 1_555 1_555
C6_2 C4_2 1_555 1_555
H4_2 C6_2 1_555 1_555
C7_2 O2_2 1_555 1_555
C8_5 N1_5 1_555 1_555
C9_2 C8_5 1_555 1_555
H5_2 C9_2 1_555 1_555
C10_2 C9_2 1_555 1_555
H6_2 C10_2 1_555 1_555
C11_5 C10_2 1_555 1_555
C12_5 C11_5 1_555 1_555
H7_2 C14_2 1_555 1_555
C15_2 C14_2 1_555 1_555
H8_2 C15_2 1_555 1_555
La3 O3_2 1_555 1_555
C4_2 C7_2 1_555 1_555
C5_2 C6_2 1_555 1_555
C2_2 H1_2 1_555 1_555
C3_2 C2_2 1_555 1_555
H2_2 C3_2 1_555 1_555
C8_6 N1_6 1_555 1_555
C12_6 C11_6 1_555 1_555
O5_2 C19_2 1_555 1_555
C13_2 N1_6 1_555 1_555
C17_2 C13_2 1_555 1_555
H9_2 C17_2 1_555 1_555
C18_2 C16_2 1_555 1_555
H10_2 C18_2 1_555 1_555
C19_2 C16_2 1_555 1_555
O6_2 C12_6 1_555 1_555
C20_2 C8_6 1_555 1_555
H11_2 C20_2 1_555 1_555
C21_2 C11_6 1_555 1_555
H12_2 C21_2 1_555 1_555
O9 C19_2 1_555 1_555
La6 O6_2 1_555 1_555
C17_2 C18_2 1_555 1_555
C20_2 C21_2 1_555 1_555
La3 O1_3 1_555 1_555
O1_3 C7_3 1_555 1_555
O2_3 La3 1_555 1_555
O12 C12_7 1_555 1_555
O4_3 La3 1_555 1_555
N1_7 C1_3 1_555 1_555
C5_3 C1_3 1_555 1_555
H3_3 C5_3 1_555 1_555
C6_3 C4_3 1_555 1_555
H4_3 C6_3 1_555 1_555
C7_3 O2_3 1_555 1_555
C8_7 N1_7 1_555 1_555
C9_3 C8_7 1_555 1_555
H5_3 C9_3 1_555 1_555
C10_3 C9_3 1_555 1_555
H6_3 C10_3 1_555 1_555
C11_7 C10_3 1_555 1_555
C12_7 C11_7 1_555 1_555
O8_3 La3 1_555 1_555
O10_3 La3 1_555 1_555
O11_3 La3 1_555 1_555
O13_3 La3 1_555 1_555
C4_3 C7_3 1_555 1_555
C5_3 C6_3 1_555 1_555
C2_3 H1_3 1_555 1_555
C3_3 C2_3 1_555 1_555
H2_3 C3_3 1_555 1_555
C8_8 N1_8 1_555 1_555
C12_8 C11_8 1_555 1_555
C8_9 N1_9 1_555 1_555
C12_9 C11_9 1_555 1_555
H7_3 C14_3 1_555 1_555
C15_3 C14_3 1_555 1_555
H8_3 C15_3 1_555 1_555
C8_10 N1_10 1_555 1_555
C12_10 C11_10 1_555 1_555
O5_3 C19_3 1_555 1_555
C13_3 N1_10 1_555 1_555
C17_3 C13_3 1_555 1_555
H9_3 C17_3 1_555 1_555
C18_3 C16_3 1_555 1_555
H10_3 C18_3 1_555 1_555
C19_3 C16_3 1_555 1_555
O6_3 C12_10 1_555 1_555
C20_3 C8_10 1_555 1_555
H11_3 C20_3 1_555 1_555
C21_3 C11_10 1_555 1_555
H12_3 C21_3 1_555 1_555
O9_2 C19_3 1_555 1_555
C17_3 C18_3 1_555 1_555
C20_3 C21_3 1_555 1_555
O4_4 La4 1_555 1_555
O10_4 La4 1_555 1_555
O13_4 La4 1_555 1_555
O4_5 La5 1_555 1_555
O10_5 La5 1_555 1_555
O13_5 La5 1_555 1_555
O4_6 La6 1_555 1_555
O8_6 La6 1_555 1_555
O10_6 La6 1_555 1_555
O11_6 La6 1_555 1_555
O13_6 La6 1_555 1_555
La1_2 O1_4 1_555 1_555
O1_4 C7_4 1_555 1_555
O10_3 La1_2 1_555 1_555
O3_3 C12_11 1_555 1_555
O4_7 La1_2 1_555 1_555
N1_11 C1_4 1_555 1_555
C1_4 C2_4 1_555 1_555
C2_4 H1_4 1_555 1_555
C3_4 C2_4 1_555 1_555
H2_4 C3_4 1_555 1_555
C4_4 C3_4 1_555 1_555
C5_4 C1_4 1_555 1_555
H3_4 C5_4 1_555 1_555
C6_4 C4_4 1_555 1_555
H4_4 C6_4 1_555 1_555
C7_4 O10_3 1_555 1_555
C8_11 N1_11 1_555 1_555
C9_4 C8_11 1_555 1_555
H5_4 C9_4 1_555 1_555
C10_4 C9_4 1_555 1_555
H6_4 C10_4 1_555 1_555
C11_11 C10_4 1_555 1_555
C12_11 C11_11 1_555 1_555
O8_2 C19_4 1_555 1_555
C13_4 N1_11 1_555 1_555
C14_4 C13_4 1_555 1_555
H7_4 C14_4 1_555 1_555
C15_4 C14_4 1_555 1_555
H8_4 C15_4 1_555 1_555
C16_4 C15_4 1_555 1_555
C17_4 C13_4 1_555 1_555
H9_4 C17_4 1_555 1_555
C18_4 C16_4 1_555 1_555
H10_4 C18_4 1_555 1_555
C19_4 C16_4 1_555 1_555
O13 C12_11 1_555 1_555
C20_4 C8_11 1_555 1_555
H11_4 C20_4 1_555 1_555
C21_4 C11_11 1_555 1_555
H12_4 C21_4 1_555 1_555
O11_2 C19_4 1_555 1_555
La2_3 O3_3 1_555 1_555
La3_3 O11_2 1_555 1_555
O8_7 La1_2 1_555 1_555
O11_3 La1_2 1_555 1_555
O11_6 La1_2 1_555 1_555
O10_6 La1_2 1_555 1_555
O12_2 La1_2 1_555 1_555
O13_7 La1_2 1_555 1_555
C4_4 C7_4 1_555 1_555
C5_4 C6_4 1_555 1_555
C17_4 C18_4 1_555 1_555
C20_4 C21_4 1_555 1_555
La2_2 O1_5 1_555 1_555
O1_5 C7_5 1_555 1_555
N1_12 C1_5 1_555 1_555
C5_5 C1_5 1_555 1_555
H3_5 C5_5 1_555 1_555
C6_5 C4_5 1_555 1_555
H4_5 C6_5 1_555 1_555
O8_3 C19_5 1_555 1_555
C13_5 N1_12 1_555 1_555
C14_5 C13_5 1_555 1_555
H7_5 C14_5 1_555 1_555
C15_5 C14_5 1_555 1_555
H8_5 C15_5 1_555 1_555
C16_5 C15_5 1_555 1_555
C17_5 C13_5 1_555 1_555
H9_5 C17_5 1_555 1_555
C18_5 C16_5 1_555 1_555
H10_5 C18_5 1_555 1_555
C19_5 C16_5 1_555 1_555
O11_3 C19_5 1_555 1_555
O11 La2_2 1_555 1_555
O10_5 La2_2 1_555 1_555
O13_8 La2_2 1_555 1_555
C4_5 C7_5 1_555 1_555
C5_5 C6_5 1_555 1_555
C17_5 C18_5 1_555 1_555
O10 La2_3 1_555 1_555
O3_4 C12_12 1_555 1_555
O4_8 La2_3 1_555 1_555
C2_5 H1_5 1_555 1_555
C3_5 C2_5 1_555 1_555
H2_5 C3_5 1_555 1_555
C9_5 C8_12 1_555 1_555
H5_5 C9_5 1_555 1_555
C10_5 C9_5 1_555 1_555
H6_5 C10_5 1_555 1_555
C11_12 C10_5 1_555 1_555
C12_12 C11_12 1_555 1_555
O13_2 C12_12 1_555 1_555
C20_5 C8_12 1_555 1_555
H11_5 C20_5 1_555 1_555
C21_5 C11_12 1_555 1_555
H12_5 C21_5 1_555 1_555
La3_2 O3_4 1_555 1_555
O8_8 La2_3 1_555 1_555
O11_5 La2_3 1_555 1_555
C20_5 C21_5 1_555 1_555
O4_8 H14 1_555 1_555
O10_2 La3_2 1_555 1_555
O12_2 C12_13 1_555 1_555
O4_9 La3_2 1_555 1_555
C2_6 H1_6 1_555 1_555
C3_6 C2_6 1_555 1_555
H2_6 C3_6 1_555 1_555
C9_6 C8_13 1_555 1_555
H5_6 C9_6 1_555 1_555
C10_6 C9_6 1_555 1_555
H6_6 C10_6 1_555 1_555
C11_13 C10_6 1_555 1_555
C12_13 C11_13 1_555 1_555
O13_3 C12_13 1_555 1_555
C20_6 C8_13 1_555 1_555
H11_6 C20_6 1_555 1_555
C21_6 C11_13 1_555 1_555
H12_6 C21_6 1_555 1_555
O8_9 La3_2 1_555 1_555
O11_4 La3_2 1_555 1_555
C20_6 C21_6 1_555 1_555
O4_9 H14_2 1_555 1_555
La3_3 O1_6 1_555 1_555
O1_6 C7_6 1_555 1_555
N1_13 C1_6 1_555 1_555
C5_6 C1_6 1_555 1_555
H3_6 C5_6 1_555 1_555
C6_6 C4_6 1_555 1_555
H4_6 C6_6 1_555 1_555
O8 C19_6 1_555 1_555
C13_6 N1_13 1_555 1_555
C14_6 C13_6 1_555 1_555
H7_6 C14_6 1_555 1_555
C15_6 C14_6 1_555 1_555
H8_6 C15_6 1_555 1_555
C16_6 C15_6 1_555 1_555
C17_6 C13_6 1_555 1_555
H9_6 C17_6 1_555 1_555
C18_6 C16_6 1_555 1_555
H10_6 C18_6 1_555 1_555
C19_6 C16_6 1_555 1_555
O11 C19_6 1_555 1_555
O10_4 La3_3 1_555 1_555
O13_9 La3_3 1_555 1_555
C4_6 C7_6 1_555 1_555
C5_6 C6_6 1_555 1_555
C17_6 C18_6 1_555 1_555
O13_6 C12_14 1_555 1_555
C9_7 C8_14 1_555 1_555
H5_7 C9_7 1_555 1_555
C10_7 C9_7 1_555 1_555
H6_7 C10_7 1_555 1_555
C11_14 C10_7 1_555 1_555
C12_14 C11_14 1_555 1_555
H7_7 C14_7 1_555 1_555
C15_7 C14_7 1_555 1_555
H8_7 C15_7 1_555 1_555
O13_7 C12_14 1_555 1_555
C20_7 C8_14 1_555 1_555
H11_7 C20_7 1_555 1_555
C21_7 C11_14 1_555 1_555
H12_7 C21_7 1_555 1_555
C20_7 C21_7 1_555 1_555
O8_4 C7_7 1_555 1_555
N1_14 C1_7 1_555 1_555
C1_7 C2_7 1_555 1_555
C2_7 H1_7 1_555 1_555
C3_7 C2_7 1_555 1_555
H2_7 C3_7 1_555 1_555
C4_7 C3_7 1_555 1_555
C5_7 C1_7 1_555 1_555
H3_7 C5_7 1_555 1_555
C6_7 C4_7 1_555 1_555
H4_7 C6_7 1_555 1_555
C7_7 O11_4 1_555 1_555
O8_8 C19_7 1_555 1_555
C13_7 N1_14 1_555 1_555
C17_7 C13_7 1_555 1_555
H9_7 C17_7 1_555 1_555
C18_7 C16_7 1_555 1_555
H10_7 C18_7 1_555 1_555
C19_7 C16_7 1_555 1_555
C4_7 C7_7 1_555 1_555
C5_7 C6_7 1_555 1_555
C17_7 C18_7 1_555 1_555
O8_6 C7_8 1_555 1_555
N1_15 C1_8 1_555 1_555
C1_8 C2_8 1_555 1_555
C2_8 H1_8 1_555 1_555
C3_8 C2_8 1_555 1_555
H2_8 C3_8 1_555 1_555
C4_8 C3_8 1_555 1_555
C5_8 C1_8 1_555 1_555
H3_8 C5_8 1_555 1_555
C6_8 C4_8 1_555 1_555
H4_8 C6_8 1_555 1_555
C7_8 O11_6 1_555 1_555
O8_9 C19_8 1_555 1_555
C13_8 N1_15 1_555 1_555
C17_8 C13_8 1_555 1_555
H9_8 C17_8 1_555 1_555
C18_8 C16_8 1_555 1_555
H10_8 C18_8 1_555 1_555
C19_8 C16_8 1_555 1_555
C4_8 C7_8 1_555 1_555
C5_8 C6_8 1_555 1_555
C17_8 C18_8 1_555 1_555
O13_5 C12_15 1_555 1_555
C9_8 C8_15 1_555 1_555
H5_8 C9_8 1_555 1_555
C10_8 C9_8 1_555 1_555
H6_8 C10_8 1_555 1_555
C11_15 C10_8 1_555 1_555
C12_15 C11_15 1_555 1_555
H7_8 C14_8 1_555 1_555
C15_8 C14_8 1_555 1_555
H8_8 C15_8 1_555 1_555
O13_8 C12_15 1_555 1_555
C20_8 C8_15 1_555 1_555
H11_8 C20_8 1_555 1_555
C21_8 C11_15 1_555 1_555
H12_8 C21_8 1_555 1_555
C20_8 C21_8 1_555 1_555
O8_5 C7_9 1_555 1_555
O13_4 C12_16 1_555 1_555
N1_16 C1_9 1_555 1_555
C1_9 C2_9 1_555 1_555
C2_9 H1_9 1_555 1_555
C3_9 C2_9 1_555 1_555
H2_9 C3_9 1_555 1_555
C4_9 C3_9 1_555 1_555
C5_9 C1_9 1_555 1_555
H3_9 C5_9 1_555 1_555
C6_9 C4_9 1_555 1_555
H4_9 C6_9 1_555 1_555
C7_9 O11_5 1_555 1_555
C8_16 N1_16 1_555 1_555
C9_9 C8_16 1_555 1_555
H5_9 C9_9 1_555 1_555
C10_9 C9_9 1_555 1_555
H6_9 C10_9 1_555 1_555
C11_16 C10_9 1_555 1_555
C12_16 C11_16 1_555 1_555
O8_7 C19_9 1_555 1_555
C13_9 N1_16 1_555 1_555
C14_9 C13_9 1_555 1_555
H7_9 C14_9 1_555 1_555
C15_9 C14_9 1_555 1_555
H8_9 C15_9 1_555 1_555
C16_9 C15_9 1_555 1_555
C17_9 C13_9 1_555 1_555
H9_9 C17_9 1_555 1_555
C18_9 C16_9 1_555 1_555
H10_9 C18_9 1_555 1_555
C19_9 C16_9 1_555 1_555
O13_9 C12_16 1_555 1_555
C20_9 C8_16 1_555 1_555
H11_9 C20_9 1_555 1_555
C21_9 C11_16 1_555 1_555
H12_9 C21_9 1_555 1_555
O10_6 C19_9 1_555 1_555
C4_9 C7_9 1_555 1_555
C5_9 C6_9 1_555 1_555
C17_9 C18_9 1_555 1_555
C20_9 C21_9 1_555 1_555
O4_10 La3_3 1_555 1_555
O4_10 H14_3 1_555 1_555
O4_11 La2_2 1_555 1_555
O4_11 H14_4 1_555 1_555

#END
