
###############################################################################
#
# This file contains modified crystal structure data generated from the
# MOF subset of the Cambridge Structural Database (CSD) v543 
# hosted by the Cambridge Crystallographic Data Centre (CCDC).
#
# This work is licensed under the Creative Commons
# Attribution-NonCommercial-ShareAlike 4.0 International License.
# To view a copy of this license, visit
# http://creativecommons.org/licenses/by-nc-sa/4.0/
# or send a letter to
# Creative Commons, PO Box 1866, Mountain View, CA 94042, USA.
#
# CIF created using the CSD Python API on 29 September 2022
# The structure has been converted into the P1 space group
# The structure has a 3D framework
# The original CSD entry RUYTIQ is in the rhombohedral crystal system
# The original CSD entry RUYTIQ is in a Sohncke space group
# The framework has been calculated to contain at least 10.0% void space
# The void calculation uses a probe of radius 1.32A, grid spacing 0.4
#
###############################################################################

data_RUYTIQ
_chemical_formula_moiety         '(C210 H108 La6 N16 O46)n'
_symmetry_cell_setting           triclinic
_symmetry_space_group_name_H-M   'P 1'
_symmetry_Int_Tables_number      1
_space_group_name_Hall           'P 1'
loop_
_symmetry_equiv_pos_site_id
_symmetry_equiv_pos_as_xyz
1 x,y,z
_cell_length_a                   24.313(2)
_cell_length_b                   24.313(2)
_cell_length_c                   13.184(2)
_cell_angle_alpha                90
_cell_angle_beta                 90
_cell_angle_gamma                120
_cell_volume                     6749.24
loop_
_atom_site_label
_atom_site_type_symbol
_atom_site_fract_x
_atom_site_fract_y
_atom_site_fract_z
N1 N 0.0000 0.3136(4) 0.0000
C8 C 0.0000 0.3693(6) 0.0000
C11 C 0.0000 0.4878(5) 0.0000
C12 C 0.0000 0.5506(6) 0.0000
C14 C 0.1132(3) 0.3637(4) 0.0257(5)
H7 H 0.1122 0.3974 0.0573
C15 C 0.1702(3) 0.3637(4) 0.0174(5)
H8 H 0.2073 0.3974 0.0434
O6 O 0.2808(5) 0.3532(6) 0.0026(5)
La2 La 0.01301(3) 0.66667(4) 0.1667
La3 La 0.33333(4) 0.34634(3) 0.1667
N1_2 N 0.0000 0.3136(4) 1.0000
C8_2 C 0.0000 0.3693(6) 1.0000
C11_2 C 0.0000 0.4878(5) 1.0000
C12_2 C -0.0000 0.5506(6) 1.0000
O4 O 0.2326(3) 0.2709(4) 0.8947(5)
C13 C 0.0576(2) 0.3133(4) 0.9868(5)
C16 C 0.1716(3) 0.3133(4) 0.9702(5)
C17 C 0.1160(3) 0.2629(4) 0.9313(4)
H9 H 0.1170 0.2292 0.8997
C18 C 0.0591(3) 0.2630(4) 0.9396(5)
H10 H 0.0219 0.2293 0.9137
C19 C 0.2295(5) 0.3086(8) 0.9541(9)
O5 O 0.0008(4) 0.5723(7) 0.9150(6)
C20 C 0.0271(5) 0.4122(9) 0.9245(8)
H11 H 0.0464 0.4031 0.8713
C21 C 0.0272(5) 0.4696(9) 0.9232(8)
H12 H 0.0463 0.4970 0.8689
La6 La 0.34634(3) 0.33333(4) 0.8333
O1 O 0.7674(3) 0.0383(3) 0.1053(5)
O3 O 0.9992(4) 0.5715(6) 0.0850(6)
N1_3 N 1.0000 0.3136(4) 0.0000
C1 C 0.9424(2) 0.2557(3) 0.0132(5)
C4 C 0.8284(3) 0.1417(3) 0.0298(5)
C5 C 0.8840(3) 0.1469(3) 0.0687(4)
H3 H 0.8830 0.1122 0.1003
C6 C 0.9409(3) 0.2039(3) 0.0604(5)
H4 H 0.9781 0.2074 0.0863
C7 C 0.7705(5) 0.0791(6) 0.0459(9)
C8_3 C 1.0000 0.3693(6) 0.0000
C9 C 0.9729(5) 0.3851(7) 0.0755(8)
H5 H 0.9536 0.3567 0.1287
C10 C 0.9728(5) 0.4424(7) 0.0768(8)
H6 H 0.9537 0.4507 0.1311
C11_3 C 1.0000 0.4878(5) 0.0000
C12_3 C 1.0000 0.5506(6) 0.0000
O7 O 0.7050(3) 0.1007(3) 0.2280(5)
O10 O 0.7391(3) 0.0525(5) 0.3359(5)
O11 O 0.5723(7) 0.0008(4) 0.0850(6)
O2 O 0.7192(5) 0.0724(3) 0.9974(5)
N1_4 N 1.0000 0.3136(4) 1.0000
C2 C 0.8868(3) 0.2505(3) 0.9743(5)
H1 H 0.8878 0.2852 0.9427
C3 C 0.8298(3) 0.1935(3) 0.9826(5)
H2 H 0.7927 0.1901 0.9566
C8_4 C 1.0000 0.3693(6) 1.0000
C11_4 C 1.0000 0.4878(5) 1.0000
C12_4 C 1.0000 0.5506(6) 1.0000
La4 La 0.98699(3) 0.65366(3) 0.8333
La5 La 0.66667(4) 0.01301(3) 0.8333
La1 La 0.65366(3) 0.98699(3) 0.1667
O8 O 0.6468(6) 0.9276(3) 0.0026(5)
O9 O 0.5943(3) 0.9801(6) 0.3307(5)
O12 O 0.6675(4) 0.9056(7) 0.2483(6)
O8_2 O 0.0724(3) 0.7192(7) 0.0026(5)
O9_2 O 0.0199(6) 0.6141(7) 0.3307(5)
O12_2 O 0.0944(7) 0.7618(8) 0.2483(6)
O1_2 O 0.9617(3) 0.7291(4) 0.1053(5)
O3_2 O 0.4285(6) 0.4277(7) 0.0850(6)
N1_5 N 0.6864(4) 0.6864(4) 0.0000
C1_2 C 0.7443(3) 0.6867(4) 0.0132(5)
C4_2 C 0.8583(3) 0.6867(4) 0.0298(5)
C5_2 C 0.8531(3) 0.7371(4) 0.0687(4)
H3_2 H 0.8878 0.7708 0.1003
C6_2 C 0.7961(3) 0.7370(4) 0.0604(5)
H4_2 H 0.7926 0.7707 0.0863
C7_2 C 0.9209(6) 0.6914(8) 0.0459(9)
C8_5 C 0.6307(6) 0.6307(6) 0.0000
C9_2 C 0.6149(7) 0.5878(9) 0.0755(8)
H5_2 H 0.6433 0.5969 0.1287
C10_2 C 0.5576(7) 0.5304(9) 0.0768(8)
H6_2 H 0.5493 0.5030 0.1311
C11_5 C 0.5122(5) 0.5122(5) 0.0000
C12_5 C 0.4494(6) 0.4494(6) 0.0000
C14_2 C 0.6363(4) 0.7495(5) 0.0257(5)
H7_2 H 0.6026 0.7148 0.0573
C15_2 C 0.6363(4) 0.8065(5) 0.0174(5)
H8_2 H 0.6026 0.8099 0.0434
O7_2 O 0.8993(3) 0.6042(4) 0.2280(5)
O10_2 O 0.9475(5) 0.6865(6) 0.3359(5)
O2_2 O 0.9276(3) 0.6468(6) 0.9974(5)
N1_6 N 0.6864(4) 0.6864(4) 1.0000
C2_2 C 0.7495(3) 0.6363(4) 0.9743(5)
H1_2 H 0.7148 0.6026 0.9427
C3_2 C 0.8065(3) 0.6363(4) 0.9826(5)
H2_2 H 0.8099 0.6026 0.9566
C8_6 C 0.6307(6) 0.6307(6) 1.0000
C11_6 C 0.5122(5) 0.5122(5) 1.0000
C12_6 C 0.4494(6) 0.4494(6) 1.0000
O4_2 O 0.7291(4) 0.9617(5) 0.8947(5)
C13_2 C 0.6867(4) 0.7443(4) 0.9868(5)
C16_2 C 0.6867(4) 0.8583(5) 0.9702(5)
C17_2 C 0.7371(4) 0.8531(5) 0.9313(4)
H9_2 H 0.7708 0.8878 0.8997
C18_2 C 0.7370(4) 0.7961(5) 0.9396(5)
H10_2 H 0.7707 0.7926 0.9137
C19_2 C 0.6914(8) 0.9209(9) 0.9541(9)
O5_2 O 0.4277(7) 0.4285(8) 0.9150(6)
C20_2 C 0.5878(9) 0.6149(10) 0.9245(8)
H11_2 H 0.5969 0.6433 0.8713
C21_2 C 0.5304(9) 0.5576(10) 0.9232(8)
H12_2 H 0.5030 0.5493 0.8689
O1_3 O 0.2709(4) 0.2326(3) 0.1053(5)
N1_7 N 0.3136(4) 0.0000 0.0000
C1_3 C 0.3133(4) 0.0576(2) 0.0132(5)
C4_3 C 0.3133(4) 0.1716(3) 0.0298(5)
C5_3 C 0.2629(4) 0.1160(3) 0.0687(4)
H3_3 H 0.2292 0.1170 0.1003
C6_3 C 0.2630(4) 0.0591(3) 0.0604(5)
H4_3 H 0.2293 0.0219 0.0863
C7_3 C 0.3086(8) 0.2295(5) 0.0459(9)
C8_7 C 0.3693(6) 0.0000 0.0000
C9_3 C 0.4122(9) 0.0271(5) 0.0755(8)
H5_3 H 0.4031 0.0464 0.1287
C10_3 C 0.4696(9) 0.0272(5) 0.0768(8)
H6_3 H 0.4970 0.0463 0.1311
C11_7 C 0.4878(5) 0.0000 0.0000
C12_7 C 0.5506(6) 0.0000 0.0000
O7_3 O 0.3958(4) 0.2950(3) 0.2280(5)
O9_3 O 0.3859(7) 0.4057(3) 0.3307(5)
O10_3 O 0.3135(6) 0.2609(3) 0.3359(5)
O12_3 O 0.2382(8) 0.3325(4) 0.2483(6)
O2_3 O 0.3532(6) 0.2808(5) 0.9974(5)
N1_8 N 0.3136(4) 0.0000 1.0000
C2_3 C 0.3637(4) 0.1132(3) 0.9743(5)
H1_3 H 0.3974 0.1122 0.9427
C3_3 C 0.3637(4) 0.1702(3) 0.9826(5)
H2_3 H 0.3974 0.2073 0.9566
C8_8 C 0.3693(6) 0.0000 1.0000
C11_8 C 0.4878(5) 0.0000 1.0000
C12_8 C 0.5506(6) 0.0000 1.0000
N1_9 N 0.3136(4) 1.0000 0.0000
C8_9 C 0.3693(6) 1.0000 0.0000
C11_9 C 0.4878(5) 1.0000 0.0000
C12_9 C 0.5506(6) 1.0000 0.0000
C14_3 C 0.2505(5) 0.8868(3) 0.0257(5)
H7_3 H 0.2852 0.8878 0.0573
C15_3 C 0.1935(5) 0.8298(3) 0.0174(5)
H8_3 H 0.1901 0.7927 0.0434
N1_10 N 0.3136(4) 1.0000 1.0000
C8_10 C 0.3693(6) 1.0000 1.0000
C11_10 C 0.4878(5) 1.0000 1.0000
C12_10 C 0.5506(6) 1.0000 1.0000
O4_3 O 0.0383(5) 0.7674(3) 0.8947(5)
C13_3 C 0.2557(4) 0.9424(2) 0.9868(5)
C16_3 C 0.1417(5) 0.8284(3) 0.9702(5)
C17_3 C 0.1469(5) 0.8840(3) 0.9313(4)
H9_3 H 0.1122 0.8830 0.8997
C18_3 C 0.2039(5) 0.9409(3) 0.9396(5)
H10_3 H 0.2074 0.9781 0.9137
C19_3 C 0.0791(9) 0.7705(5) 0.9541(9)
O5_3 O 0.5715(8) 0.9992(4) 0.9150(6)
C20_3 C 0.3851(10) 0.9729(5) 0.9245(8)
H11_3 H 0.3567 0.9536 0.8713
C21_3 C 0.4424(10) 0.9728(5) 0.9232(8)
H12_3 H 0.4507 0.9537 0.8689
O7_4 O 0.1007(3) 0.7050(3) 0.7720(5)
O10_4 O 0.0525(5) 0.7391(3) 0.6641(5)
O9_4 O 0.9801(6) 0.5943(3) 0.6693(5)
O12_4 O 0.9056(7) 0.6675(4) 0.7517(6)
O9_5 O 0.6141(7) 0.0199(6) 0.6693(5)
O12_5 O 0.7618(8) 0.0944(7) 0.7517(6)
O7_5 O 0.6042(4) 0.8993(3) 0.7720(5)
O10_5 O 0.6865(6) 0.9475(5) 0.6641(5)
O7_6 O 0.2950(3) 0.3958(4) 0.7720(5)
O9_6 O 0.4057(3) 0.3859(7) 0.6693(5)
O10_6 O 0.2609(3) 0.3135(6) 0.6641(5)
O12_6 O 0.3325(4) 0.2382(8) 0.7517(6)
La3_2 La -0.00000(4) 0.67967(3) 0.5000
La2_2 La 0.67968(3) 0.00000(4) 0.5000
La1_2 La 0.32033(3) 0.32032(3) 0.5000
O1_4 O 0.4341(3) 0.3716(3) 0.4386(5)
O3_3 O 0.6659(4) 0.9048(6) 0.4183(6)
N1_11 N 0.6667 0.6469(4) 0.3333
C1_4 C 0.6091(2) 0.5890(3) 0.3465(5)
C2_4 C 0.5535(3) 0.5838(3) 0.3076(5)
H1_4 H 0.5545 0.6185 0.2760
C3_4 C 0.4965(3) 0.5268(3) 0.3159(5)
H2_4 H 0.4594 0.5234 0.2899
C4_4 C 0.4951(3) 0.4750(3) 0.3631(5)
C5_4 C 0.5507(3) 0.4802(3) 0.4020(4)
H3_4 H 0.5497 0.4455 0.4336
C6_4 C 0.6076(3) 0.5372(3) 0.3937(5)
H4_4 H 0.6448 0.5407 0.4196
C7_4 C 0.4372(5) 0.4124(6) 0.3792(9)
C8_11 C 0.6667 0.7026(6) 0.3333
C9_4 C 0.6396(5) 0.7184(7) 0.4088(8)
H5_4 H 0.6203 0.6900 0.4620
C10_4 C 0.6395(5) 0.7757(7) 0.4101(8)
H6_4 H 0.6204 0.7840 0.4644
C11_11 C 0.6667 0.8211(5) 0.3333
C12_11 C 0.6667 0.8839(6) 0.3333
C13_4 C 0.7243(2) 0.6466(4) 0.3201(5)
C14_4 C 0.7799(3) 0.6970(4) 0.3590(5)
H7_4 H 0.7789 0.7307 0.3906
C15_4 C 0.8369(3) 0.6970(4) 0.3507(5)
H8_4 H 0.8740 0.7307 0.3767
C16_4 C 0.8383(3) 0.6466(4) 0.3035(5)
C17_4 C 0.7827(3) 0.5962(4) 0.2646(4)
H9_4 H 0.7837 0.5625 0.2330
C18_4 C 0.7258(3) 0.5963(4) 0.2729(5)
H10_4 H 0.6886 0.5626 0.2470
C19_4 C 0.8962(5) 0.6419(8) 0.2874(9)
C20_4 C 0.6938(5) 0.7455(9) 0.2578(8)
H11_4 H 0.7131 0.7364 0.2046
C21_4 C 0.6939(5) 0.8029(9) 0.2565(8)
H12_4 H 0.7130 0.8303 0.2022
La2_3 La 0.67968(3) 1.00000(4) 0.5000
La3_3 La 1.00000(4) 0.67967(3) 0.5000
O7_7 O 0.3716(3) 0.4341(3) 0.5614(5)
O11_2 O 0.2390(7) 0.3341(4) 0.4183(6)
O12_7 O 0.3341(4) 0.2390(7) 0.5817(6)
O1_5 O 0.6284(3) 0.0624(4) 0.4386(5)
N1_12 N 0.3531(4) 0.0197(4) 0.3333
C1_5 C 0.4110(3) 0.0200(4) 0.3465(5)
C4_5 C 0.5250(3) 0.0200(4) 0.3631(5)
C5_5 C 0.5198(3) 0.0704(4) 0.4020(4)
H3_5 H 0.5545 0.1041 0.4336
C6_5 C 0.4628(3) 0.0703(4) 0.3937(5)
H4_5 H 0.4593 0.1040 0.4196
C7_5 C 0.5876(6) 0.0247(8) 0.3792(9)
C13_5 C 0.3534(4) 0.0776(4) 0.3201(5)
C14_5 C 0.3030(4) 0.0828(5) 0.3590(5)
H7_5 H 0.2693 0.0481 0.3906
C15_5 C 0.3030(4) 0.1398(5) 0.3507(5)
H8_5 H 0.2693 0.1432 0.3767
C16_5 C 0.3534(4) 0.1916(5) 0.3035(5)
C17_5 C 0.4038(4) 0.1864(5) 0.2646(4)
H9_5 H 0.4375 0.2211 0.2330
C18_5 C 0.4037(4) 0.1294(5) 0.2729(5)
H10_5 H 0.4374 0.1259 0.2470
C19_5 C 0.3581(8) 0.2542(9) 0.2874(9)
O12_8 O 0.7610(7) 0.0952(8) 0.5817(6)
O3_4 O 0.0952(6) 0.7610(7) 0.4183(6)
C2_5 C 0.4162(3) 0.9696(4) 0.3076(5)
H1_5 H 0.3815 0.9359 0.2760
C3_5 C 0.4732(3) 0.9696(4) 0.3159(5)
H2_5 H 0.4766 0.9359 0.2899
C8_12 C 0.2974(6) 0.9640(6) 0.3333
C9_5 C 0.2816(7) 0.9211(9) 0.4088(8)
H5_5 H 0.3100 0.9302 0.4620
C10_5 C 0.2243(7) 0.8637(9) 0.4101(8)
H6_5 H 0.2160 0.8363 0.4644
C11_12 C 0.1789(5) 0.8455(5) 0.3333
C12_12 C 0.1161(6) 0.7827(6) 0.3333
C20_5 C 0.2545(9) 0.9482(10) 0.2578(8)
H11_5 H 0.2636 0.9766 0.2046
C21_5 C 0.1971(9) 0.8909(10) 0.2565(8)
H12_5 H 0.1697 0.8826 0.2022
O7_8 O 0.5659(3) 0.9376(4) 0.5614(5)
C2_6 C 0.0304(4) 0.4465(3) 0.3076(5)
H1_6 H 0.0641 0.4455 0.2760
C3_6 C 0.0304(4) 0.5035(3) 0.3159(5)
H2_6 H 0.0641 0.5406 0.2899
C8_13 C 0.0360(6) 0.3333 0.3333
C9_6 C 0.0789(9) 0.3604(5) 0.4088(8)
H5_6 H 0.0698 0.3797 0.4620
C10_6 C 0.1363(9) 0.3605(5) 0.4101(8)
H6_6 H 0.1637 0.3796 0.4644
C11_13 C 0.1545(5) 0.3333 0.3333
C12_13 C 0.2173(6) 0.3333 0.3333
C20_6 C 0.0518(10) 0.3062(5) 0.2578(8)
H11_6 H 0.0234 0.2869 0.2046
C21_6 C 0.1091(10) 0.3061(5) 0.2565(8)
H12_6 H 0.1174 0.2870 0.2022
O7_9 O 0.0624(4) 0.6284(3) 0.5614(5)
O1_6 O 0.9376(4) 0.5659(3) 0.4386(5)
N1_13 N 0.9803(4) 0.3333 0.3333
C1_6 C 0.9800(4) 0.3909(2) 0.3465(5)
C4_6 C 0.9800(4) 0.5049(3) 0.3631(5)
C5_6 C 0.9296(4) 0.4493(3) 0.4020(4)
H3_6 H 0.8959 0.4503 0.4336
C6_6 C 0.9297(4) 0.3924(3) 0.3937(5)
H4_6 H 0.8960 0.3552 0.4196
C7_6 C 0.9753(8) 0.5628(5) 0.3792(9)
C13_6 C 0.9224(4) 0.2757(2) 0.3201(5)
C14_6 C 0.9172(5) 0.2201(3) 0.3590(5)
H7_6 H 0.9519 0.2211 0.3906
C15_6 C 0.8602(5) 0.1631(3) 0.3507(5)
H8_6 H 0.8568 0.1260 0.3767
C16_6 C 0.8084(5) 0.1617(3) 0.3035(5)
C17_6 C 0.8136(5) 0.2173(3) 0.2646(4)
H9_6 H 0.7789 0.2163 0.2330
C18_6 C 0.8706(5) 0.2742(3) 0.2729(5)
H10_6 H 0.8741 0.3114 0.2470
C19_6 C 0.7458(9) 0.1038(5) 0.2874(9)
O12_9 O 0.9048(8) 0.6659(4) 0.5817(6)
C8_14 C 0.3333 0.0360(6) 0.6667
C9_7 C 0.3062(5) 0.0518(7) 0.7422(8)
H5_7 H 0.2869 0.0234 0.7954
C10_7 C 0.3061(5) 0.1091(7) 0.7435(8)
H6_7 H 0.2870 0.1174 0.7978
C11_14 C 0.3333 0.1545(5) 0.6667
C12_14 C 0.3333 0.2173(6) 0.6667
C14_7 C 0.4465(3) 0.0304(4) 0.6924(5)
H7_7 H 0.4455 0.0641 0.7240
C15_7 C 0.5035(3) 0.0304(4) 0.6841(5)
H8_7 H 0.5406 0.0641 0.7101
C20_7 C 0.3604(5) 0.0789(9) 0.5912(8)
H11_7 H 0.3797 0.0698 0.5380
C21_7 C 0.3605(5) 0.1363(9) 0.5899(8)
H12_7 H 0.3796 0.1637 0.5356
N1_14 N 0.3333 0.9803(4) 0.6667
C1_7 C 0.2757(2) 0.9224(3) 0.6799(5)
C2_7 C 0.2201(3) 0.9172(3) 0.6410(5)
H1_7 H 0.2211 0.9519 0.6094
C3_7 C 0.1631(3) 0.8602(3) 0.6493(5)
H2_7 H 0.1260 0.8568 0.6233
C4_7 C 0.1617(3) 0.8084(3) 0.6965(5)
C5_7 C 0.2173(3) 0.8136(3) 0.7354(4)
H3_7 H 0.2163 0.7789 0.7670
C6_7 C 0.2742(3) 0.8706(3) 0.7271(5)
H4_7 H 0.3114 0.8741 0.7530
C7_7 C 0.1038(5) 0.7458(6) 0.7126(9)
C13_7 C 0.3909(2) 0.9800(4) 0.6535(5)
C16_7 C 0.5049(3) 0.9800(4) 0.6369(5)
C17_7 C 0.4493(3) 0.9296(4) 0.5980(4)
H9_7 H 0.4503 0.8959 0.5664
C18_7 C 0.3924(3) 0.9297(4) 0.6063(5)
H10_7 H 0.3552 0.8960 0.5804
C19_7 C 0.5628(5) 0.9753(8) 0.6208(9)
N1_15 N 0.0197(4) 0.3531(4) 0.6667
C1_8 C 0.0776(3) 0.3534(4) 0.6799(5)
C2_8 C 0.0828(3) 0.3030(4) 0.6410(5)
H1_8 H 0.0481 0.2693 0.6094
C3_8 C 0.1398(3) 0.3030(4) 0.6493(5)
H2_8 H 0.1432 0.2693 0.6233
C4_8 C 0.1916(3) 0.3534(4) 0.6965(5)
C5_8 C 0.1864(3) 0.4038(4) 0.7354(4)
H3_8 H 0.2211 0.4375 0.7670
C6_8 C 0.1294(3) 0.4037(4) 0.7271(5)
H4_8 H 0.1259 0.4374 0.7530
C7_8 C 0.2542(6) 0.3581(8) 0.7126(9)
C13_8 C 0.0200(4) 0.4110(4) 0.6535(5)
C16_8 C 0.0200(4) 0.5250(5) 0.6369(5)
C17_8 C 0.0704(4) 0.5198(5) 0.5980(4)
H9_8 H 0.1041 0.5545 0.5664
C18_8 C 0.0703(4) 0.4628(5) 0.6063(5)
H10_8 H 0.1040 0.4593 0.5804
C19_8 C 0.0247(8) 0.5876(9) 0.6208(9)
C8_15 C 0.9640(6) 0.2974(6) 0.6667
C9_8 C 0.9482(7) 0.2545(9) 0.7422(8)
H5_8 H 0.9766 0.2636 0.7954
C10_8 C 0.8909(7) 0.1971(9) 0.7435(8)
H6_8 H 0.8826 0.1697 0.7978
C11_15 C 0.8455(5) 0.1789(5) 0.6667
C12_15 C 0.7827(6) 0.1161(6) 0.6667
C14_8 C 0.9696(4) 0.4162(5) 0.6924(5)
H7_8 H 0.9359 0.3815 0.7240
C15_8 C 0.9696(4) 0.4732(5) 0.6841(5)
H8_8 H 0.9359 0.4766 0.7101
C20_8 C 0.9211(9) 0.2816(10) 0.5912(8)
H11_8 H 0.9302 0.3100 0.5380
C21_8 C 0.8637(9) 0.2243(10) 0.5899(8)
H12_8 H 0.8363 0.2160 0.5356
N1_16 N 0.6469(4) 0.6667 0.6667
C1_9 C 0.6466(4) 0.7243(2) 0.6799(5)
C2_9 C 0.6970(4) 0.7799(3) 0.6410(5)
H1_9 H 0.7307 0.7789 0.6094
C3_9 C 0.6970(4) 0.8369(3) 0.6493(5)
H2_9 H 0.7307 0.8740 0.6233
C4_9 C 0.6466(4) 0.8383(3) 0.6965(5)
C5_9 C 0.5962(4) 0.7827(3) 0.7354(4)
H3_9 H 0.5625 0.7837 0.7670
C6_9 C 0.5963(4) 0.7258(3) 0.7271(5)
H4_9 H 0.5626 0.6886 0.7530
C7_9 C 0.6419(8) 0.8962(5) 0.7126(9)
C8_16 C 0.7026(6) 0.6667 0.6667
C9_9 C 0.7455(9) 0.6938(5) 0.7422(8)
H5_9 H 0.7364 0.7131 0.7954
C10_9 C 0.8029(9) 0.6939(5) 0.7435(8)
H6_9 H 0.8303 0.7130 0.7978
C11_16 C 0.8211(5) 0.6667 0.6667
C12_16 C 0.8839(6) 0.6667 0.6667
C13_9 C 0.5890(4) 0.6091(2) 0.6535(5)
C14_9 C 0.5838(5) 0.5535(3) 0.6924(5)
H7_9 H 0.6185 0.5545 0.7240
C15_9 C 0.5268(5) 0.4965(3) 0.6841(5)
H8_9 H 0.5234 0.4594 0.7101
C16_9 C 0.4750(5) 0.4951(3) 0.6369(5)
C17_9 C 0.4802(5) 0.5507(3) 0.5980(4)
H9_9 H 0.4455 0.5497 0.5664
C18_9 C 0.5372(5) 0.6076(3) 0.6063(5)
H10_9 H 0.5407 0.6448 0.5804
C19_9 C 0.4124(9) 0.4372(5) 0.6208(9)
C20_9 C 0.7184(10) 0.6396(5) 0.5912(8)
H11_9 H 0.6900 0.6203 0.5380
C21_9 C 0.7757(10) 0.6395(5) 0.5899(8)
H12_9 H 0.7840 0.6204 0.5356
loop_
_geom_bond_atom_site_label_1
_geom_bond_atom_site_label_2
_geom_bond_site_symmetry_1
_geom_bond_site_symmetry_2
C8 N1 1_555 1_555
C12 C11 1_555 1_555
H7 C14 1_555 1_555
C15 C14 1_555 1_555
H8 C15 1_555 1_555
La3 O6 1_555 1_555
C8_2 N1_2 1_555 1_555
C12_2 C11_2 1_555 1_555
O4 C19 1_555 1_555
C13 N1_2 1_555 1_555
C17 C16 1_555 1_555
H9 C17 1_555 1_555
C18 C13 1_555 1_555
H10 C18 1_555 1_555
C19 C16 1_555 1_555
O5 C12_2 1_555 1_555
C20 C8_2 1_555 1_555
H11 C20 1_555 1_555
C21 C11_2 1_555 1_555
H12 C21 1_555 1_555
La6 O4 1_555 1_555
C17 C18 1_555 1_555
C20 C21 1_555 1_555
O1 C7 1_555 1_555
O3 C12_3 1_555 1_555
N1_3 C1 1_555 1_555
C5 C4 1_555 1_555
H3 C5 1_555 1_555
C6 C1 1_555 1_555
H4 C6 1_555 1_555
C8_3 N1_3 1_555 1_555
C9 C8_3 1_555 1_555
H5 C9 1_555 1_555
C10 C9 1_555 1_555
H6 C10 1_555 1_555
C11_3 C10 1_555 1_555
C12_3 C11_3 1_555 1_555
C4 C7 1_555 1_555
C5 C6 1_555 1_555
C2 H1 1_555 1_555
C3 C2 1_555 1_555
H2 C3 1_555 1_555
C8_4 N1_4 1_555 1_555
C12_4 C11_4 1_555 1_555
La5 O2 1_555 1_555
O8 La1 1_555 1_555
O9 La1 1_555 1_555
O12 La1 1_555 1_555
O8_2 La2 1_555 1_555
O9_2 La2 1_555 1_555
O12_2 La2 1_555 1_555
O1_2 C7_2 1_555 1_555
O3_2 C12_5 1_555 1_555
N1_5 C1_2 1_555 1_555
C5_2 C4_2 1_555 1_555
H3_2 C5_2 1_555 1_555
C6_2 C1_2 1_555 1_555
H4_2 C6_2 1_555 1_555
C8_5 N1_5 1_555 1_555
C9_2 C8_5 1_555 1_555
H5_2 C9_2 1_555 1_555
C10_2 C9_2 1_555 1_555
H6_2 C10_2 1_555 1_555
C11_5 C10_2 1_555 1_555
C12_5 C11_5 1_555 1_555
H7_2 C14_2 1_555 1_555
C15_2 C14_2 1_555 1_555
H8_2 C15_2 1_555 1_555
La3 O3_2 1_555 1_555
C4_2 C7_2 1_555 1_555
C5_2 C6_2 1_555 1_555
C2_2 H1_2 1_555 1_555
C3_2 C2_2 1_555 1_555
H2_2 C3_2 1_555 1_555
C8_6 N1_6 1_555 1_555
C12_6 C11_6 1_555 1_555
O4_2 C19_2 1_555 1_555
C13_2 N1_6 1_555 1_555
C17_2 C16_2 1_555 1_555
H9_2 C17_2 1_555 1_555
C18_2 C13_2 1_555 1_555
H10_2 C18_2 1_555 1_555
C19_2 C16_2 1_555 1_555
O5_2 C12_6 1_555 1_555
C20_2 C8_6 1_555 1_555
H11_2 C20_2 1_555 1_555
C21_2 C11_6 1_555 1_555
H12_2 C21_2 1_555 1_555
La6 O5_2 1_555 1_555
La4 O2_2 1_555 1_555
C17_2 C18_2 1_555 1_555
C20_2 C21_2 1_555 1_555
La3 O1_3 1_555 1_555
O1_3 C7_3 1_555 1_555
O11 C12_7 1_555 1_555
N1_7 C1_3 1_555 1_555
C5_3 C4_3 1_555 1_555
H3_3 C5_3 1_555 1_555
C6_3 C1_3 1_555 1_555
H4_3 C6_3 1_555 1_555
C8_7 N1_7 1_555 1_555
C9_3 C8_7 1_555 1_555
H5_3 C9_3 1_555 1_555
C10_3 C9_3 1_555 1_555
H6_3 C10_3 1_555 1_555
C11_7 C10_3 1_555 1_555
C12_7 C11_7 1_555 1_555
O7_3 La3 1_555 1_555
O9_3 La3 1_555 1_555
O10_3 La3 1_555 1_555
O12_3 La3 1_555 1_555
C4_3 C7_3 1_555 1_555
C5_3 C6_3 1_555 1_555
C2_3 H1_3 1_555 1_555
C3_3 C2_3 1_555 1_555
H2_3 C3_3 1_555 1_555
C8_8 N1_8 1_555 1_555
C12_8 C11_8 1_555 1_555
La6 O2_3 1_555 1_555
C8_9 N1_9 1_555 1_555
C12_9 C11_9 1_555 1_555
H7_3 C14_3 1_555 1_555
C15_3 C14_3 1_555 1_555
H8_3 C15_3 1_555 1_555
C8_10 N1_10 1_555 1_555
C12_10 C11_10 1_555 1_555
O4_3 C19_3 1_555 1_555
C13_3 N1_10 1_555 1_555
C17_3 C16_3 1_555 1_555
H9_3 C17_3 1_555 1_555
C18_3 C13_3 1_555 1_555
H10_3 C18_3 1_555 1_555
C19_3 C16_3 1_555 1_555
O5_3 C12_10 1_555 1_555
C20_3 C8_10 1_555 1_555
H11_3 C20_3 1_555 1_555
C21_3 C11_10 1_555 1_555
H12_3 C21_3 1_555 1_555
C17_3 C18_3 1_555 1_555
C20_3 C21_3 1_555 1_555
O9_4 La4 1_555 1_555
O12_4 La4 1_555 1_555
O9_5 La5 1_555 1_555
O12_5 La5 1_555 1_555
O7_6 La6 1_555 1_555
O9_6 La6 1_555 1_555
O10_6 La6 1_555 1_555
O12_6 La6 1_555 1_555
La1_2 O1_4 1_555 1_555
O1_4 C7_4 1_555 1_555
O9_3 La1_2 1_555 1_555
O3_3 C12_11 1_555 1_555
N1_11 C1_4 1_555 1_555
C1_4 C2_4 1_555 1_555
C2_4 H1_4 1_555 1_555
C3_4 C2_4 1_555 1_555
H2_4 C3_4 1_555 1_555
C4_4 C3_4 1_555 1_555
C5_4 C4_4 1_555 1_555
H3_4 C5_4 1_555 1_555
C6_4 C1_4 1_555 1_555
H4_4 C6_4 1_555 1_555
C7_4 O9_3 1_555 1_555
C8_11 N1_11 1_555 1_555
C9_4 C8_11 1_555 1_555
H5_4 C9_4 1_555 1_555
C10_4 C9_4 1_555 1_555
H6_4 C10_4 1_555 1_555
C11_11 C10_4 1_555 1_555
C12_11 C11_11 1_555 1_555
O7_2 C19_4 1_555 1_555
C13_4 N1_11 1_555 1_555
C14_4 C13_4 1_555 1_555
H7_4 C14_4 1_555 1_555
C15_4 C14_4 1_555 1_555
H8_4 C15_4 1_555 1_555
C16_4 C15_4 1_555 1_555
C17_4 C16_4 1_555 1_555
H9_4 C17_4 1_555 1_555
C18_4 C13_4 1_555 1_555
H10_4 C18_4 1_555 1_555
C19_4 C16_4 1_555 1_555
O12 C12_11 1_555 1_555
C20_4 C8_11 1_555 1_555
H11_4 C20_4 1_555 1_555
C21_4 C11_11 1_555 1_555
H12_4 C21_4 1_555 1_555
O10_2 C19_4 1_555 1_555
La2_3 O3_3 1_555 1_555
La3_3 O10_2 1_555 1_555
O7_7 La1_2 1_555 1_555
O10_3 La1_2 1_555 1_555
O10_6 La1_2 1_555 1_555
O9_6 La1_2 1_555 1_555
O11_2 La1_2 1_555 1_555
O12_7 La1_2 1_555 1_555
C4_4 C7_4 1_555 1_555
C5_4 C6_4 1_555 1_555
C17_4 C18_4 1_555 1_555
C20_4 C21_4 1_555 1_555
La2_2 O1_5 1_555 1_555
O1_5 C7_5 1_555 1_555
N1_12 C1_5 1_555 1_555
C5_5 C4_5 1_555 1_555
H3_5 C5_5 1_555 1_555
C6_5 C1_5 1_555 1_555
H4_5 C6_5 1_555 1_555
O7_3 C19_5 1_555 1_555
C13_5 N1_12 1_555 1_555
C14_5 C13_5 1_555 1_555
H7_5 C14_5 1_555 1_555
C15_5 C14_5 1_555 1_555
H8_5 C15_5 1_555 1_555
C16_5 C15_5 1_555 1_555
C17_5 C16_5 1_555 1_555
H9_5 C17_5 1_555 1_555
C18_5 C13_5 1_555 1_555
H10_5 C18_5 1_555 1_555
C19_5 C16_5 1_555 1_555
O10_3 C19_5 1_555 1_555
O10 La2_2 1_555 1_555
O9_5 La2_2 1_555 1_555
O12_8 La2_2 1_555 1_555
C4_5 C7_5 1_555 1_555
C5_5 C6_5 1_555 1_555
C17_5 C18_5 1_555 1_555
O9 La2_3 1_555 1_555
O3_4 C12_12 1_555 1_555
C2_5 H1_5 1_555 1_555
C3_5 C2_5 1_555 1_555
H2_5 C3_5 1_555 1_555
C9_5 C8_12 1_555 1_555
H5_5 C9_5 1_555 1_555
C10_5 C9_5 1_555 1_555
H6_5 C10_5 1_555 1_555
C11_12 C10_5 1_555 1_555
C12_12 C11_12 1_555 1_555
O12_2 C12_12 1_555 1_555
C20_5 C8_12 1_555 1_555
H11_5 C20_5 1_555 1_555
C21_5 C11_12 1_555 1_555
H12_5 C21_5 1_555 1_555
La3_2 O3_4 1_555 1_555
O7_8 La2_3 1_555 1_555
O10_5 La2_3 1_555 1_555
C20_5 C21_5 1_555 1_555
O9_2 La3_2 1_555 1_555
O11_2 C12_13 1_555 1_555
C2_6 H1_6 1_555 1_555
C3_6 C2_6 1_555 1_555
H2_6 C3_6 1_555 1_555
C9_6 C8_13 1_555 1_555
H5_6 C9_6 1_555 1_555
C10_6 C9_6 1_555 1_555
H6_6 C10_6 1_555 1_555
C11_13 C10_6 1_555 1_555
C12_13 C11_13 1_555 1_555
O12_3 C12_13 1_555 1_555
C20_6 C8_13 1_555 1_555
H11_6 C20_6 1_555 1_555
C21_6 C11_13 1_555 1_555
H12_6 C21_6 1_555 1_555
O7_9 La3_2 1_555 1_555
O10_4 La3_2 1_555 1_555
C20_6 C21_6 1_555 1_555
La3_3 O1_6 1_555 1_555
O1_6 C7_6 1_555 1_555
N1_13 C1_6 1_555 1_555
C5_6 C4_6 1_555 1_555
H3_6 C5_6 1_555 1_555
C6_6 C1_6 1_555 1_555
H4_6 C6_6 1_555 1_555
O7 C19_6 1_555 1_555
C13_6 N1_13 1_555 1_555
C14_6 C13_6 1_555 1_555
H7_6 C14_6 1_555 1_555
C15_6 C14_6 1_555 1_555
H8_6 C15_6 1_555 1_555
C16_6 C15_6 1_555 1_555
C17_6 C16_6 1_555 1_555
H9_6 C17_6 1_555 1_555
C18_6 C13_6 1_555 1_555
H10_6 C18_6 1_555 1_555
C19_6 C16_6 1_555 1_555
O10 C19_6 1_555 1_555
O9_4 La3_3 1_555 1_555
O12_9 La3_3 1_555 1_555
C4_6 C7_6 1_555 1_555
C5_6 C6_6 1_555 1_555
C17_6 C18_6 1_555 1_555
O12_6 C12_14 1_555 1_555
C9_7 C8_14 1_555 1_555
H5_7 C9_7 1_555 1_555
C10_7 C9_7 1_555 1_555
H6_7 C10_7 1_555 1_555
C11_14 C10_7 1_555 1_555
C12_14 C11_14 1_555 1_555
H7_7 C14_7 1_555 1_555
C15_7 C14_7 1_555 1_555
H8_7 C15_7 1_555 1_555
O12_7 C12_14 1_555 1_555
C20_7 C8_14 1_555 1_555
H11_7 C20_7 1_555 1_555
C21_7 C11_14 1_555 1_555
H12_7 C21_7 1_555 1_555
C20_7 C21_7 1_555 1_555
O7_4 C7_7 1_555 1_555
N1_14 C1_7 1_555 1_555
C1_7 C2_7 1_555 1_555
C2_7 H1_7 1_555 1_555
C3_7 C2_7 1_555 1_555
H2_7 C3_7 1_555 1_555
C4_7 C3_7 1_555 1_555
C5_7 C4_7 1_555 1_555
H3_7 C5_7 1_555 1_555
C6_7 C1_7 1_555 1_555
H4_7 C6_7 1_555 1_555
C7_7 O10_4 1_555 1_555
O7_8 C19_7 1_555 1_555
C13_7 N1_14 1_555 1_555
C17_7 C16_7 1_555 1_555
H9_7 C17_7 1_555 1_555
C18_7 C13_7 1_555 1_555
H10_7 C18_7 1_555 1_555
C19_7 C16_7 1_555 1_555
C4_7 C7_7 1_555 1_555
C5_7 C6_7 1_555 1_555
C17_7 C18_7 1_555 1_555
O7_6 C7_8 1_555 1_555
N1_15 C1_8 1_555 1_555
C1_8 C2_8 1_555 1_555
C2_8 H1_8 1_555 1_555
C3_8 C2_8 1_555 1_555
H2_8 C3_8 1_555 1_555
C4_8 C3_8 1_555 1_555
C5_8 C4_8 1_555 1_555
H3_8 C5_8 1_555 1_555
C6_8 C1_8 1_555 1_555
H4_8 C6_8 1_555 1_555
C7_8 O10_6 1_555 1_555
O7_9 C19_8 1_555 1_555
C13_8 N1_15 1_555 1_555
C17_8 C16_8 1_555 1_555
H9_8 C17_8 1_555 1_555
C18_8 C13_8 1_555 1_555
H10_8 C18_8 1_555 1_555
C19_8 C16_8 1_555 1_555
C4_8 C7_8 1_555 1_555
C5_8 C6_8 1_555 1_555
C17_8 C18_8 1_555 1_555
O12_5 C12_15 1_555 1_555
C9_8 C8_15 1_555 1_555
H5_8 C9_8 1_555 1_555
C10_8 C9_8 1_555 1_555
H6_8 C10_8 1_555 1_555
C11_15 C10_8 1_555 1_555
C12_15 C11_15 1_555 1_555
H7_8 C14_8 1_555 1_555
C15_8 C14_8 1_555 1_555
H8_8 C15_8 1_555 1_555
O12_8 C12_15 1_555 1_555
C20_8 C8_15 1_555 1_555
H11_8 C20_8 1_555 1_555
C21_8 C11_15 1_555 1_555
H12_8 C21_8 1_555 1_555
C20_8 C21_8 1_555 1_555
O7_5 C7_9 1_555 1_555
O12_4 C12_16 1_555 1_555
N1_16 C1_9 1_555 1_555
C1_9 C2_9 1_555 1_555
C2_9 H1_9 1_555 1_555
C3_9 C2_9 1_555 1_555
H2_9 C3_9 1_555 1_555
C4_9 C3_9 1_555 1_555
C5_9 C4_9 1_555 1_555
H3_9 C5_9 1_555 1_555
C6_9 C1_9 1_555 1_555
H4_9 C6_9 1_555 1_555
C7_9 O10_5 1_555 1_555
C8_16 N1_16 1_555 1_555
C9_9 C8_16 1_555 1_555
H5_9 C9_9 1_555 1_555
C10_9 C9_9 1_555 1_555
H6_9 C10_9 1_555 1_555
C11_16 C10_9 1_555 1_555
C12_16 C11_16 1_555 1_555
O7_7 C19_9 1_555 1_555
C13_9 N1_16 1_555 1_555
C14_9 C13_9 1_555 1_555
H7_9 C14_9 1_555 1_555
C15_9 C14_9 1_555 1_555
H8_9 C15_9 1_555 1_555
C16_9 C15_9 1_555 1_555
C17_9 C16_9 1_555 1_555
H9_9 C17_9 1_555 1_555
C18_9 C13_9 1_555 1_555
H10_9 C18_9 1_555 1_555
C19_9 C16_9 1_555 1_555
O12_9 C12_16 1_555 1_555
C20_9 C8_16 1_555 1_555
H11_9 C20_9 1_555 1_555
C21_9 C11_16 1_555 1_555
H12_9 C21_9 1_555 1_555
O9_6 C19_9 1_555 1_555
C4_9 C7_9 1_555 1_555
C5_9 C6_9 1_555 1_555
C17_9 C18_9 1_555 1_555
C20_9 C21_9 1_555 1_555

#END
