
###############################################################################
#
# This file contains modified crystal structure data generated from the
# MOF subset of the Cambridge Structural Database (CSD) v543 
# hosted by the Cambridge Crystallographic Data Centre (CCDC).
#
# This work is licensed under the Creative Commons
# Attribution-NonCommercial-ShareAlike 4.0 International License.
# To view a copy of this license, visit
# http://creativecommons.org/licenses/by-nc-sa/4.0/
# or send a letter to
# Creative Commons, PO Box 1866, Mountain View, CA 94042, USA.
#
# CIF created using the CSD Python API on 29 September 2022
# The structure has been converted into the P1 space group
# The structure has a 3D framework
# The original CSD entry RUYTOW is in the rhombohedral crystal system
# The original CSD entry RUYTOW is in a Sohncke space group
# The framework has been calculated to contain at least 10.0% void space
# The void calculation uses a probe of radius 1.32A, grid spacing 0.4
#
###############################################################################

data_RUYTOW
_chemical_formula_moiety         '(C210 H108 La6 N16 O47)n'
_symmetry_cell_setting           triclinic
_symmetry_space_group_name_H-M   'P 1'
_symmetry_Int_Tables_number      1
_space_group_name_Hall           'P 1'
loop_
_symmetry_equiv_pos_site_id
_symmetry_equiv_pos_as_xyz
1 x,y,z
_cell_length_a                   24.250(9)
_cell_length_b                   24.250(9)
_cell_length_c                   13.093(12)
_cell_angle_alpha                90
_cell_angle_beta                 90
_cell_angle_gamma                120
_cell_volume                     6667.96
loop_
_atom_site_label
_atom_site_type_symbol
_atom_site_fract_x
_atom_site_fract_y
_atom_site_fract_z
La2 La 0.01107(4) 0.66667(6) 0.1667
O7 O 0.7648(8) 0.0424(5) 0.1057(8)
O8 O 0.7091(5) 0.0981(8) 0.2276(8)
O10 O 0.7383(5) 0.0517(7) 0.3412(9)
O12 O 0.5753(5) 0.0006(9) 0.0852(9)
La5 La 0.66667(6) 0.01107(4) 0.8333
O9 O 0.7184(7) 0.0716(5) 0.9921(9)
La1 La 0.65560(4) 0.98893(4) 0.1667
O2 O 0.6468(5) 0.9284(5) 0.0079(9)
O3 O 0.4253(8) 0.4247(5) 0.0852(9)
N1 N 0.6849(7) 0.6849(7) 0.0000
C2 C 0.6339(4) 0.7490(5) 0.0273(7)
H1 H 0.6000 0.7142 0.0589
C3 C 0.6332(5) 0.8057(7) 0.0168(8)
H2 H 0.5989 0.8089 0.0414
C8 C 0.6239(7) 0.6239(7) 0.0000
C11 C 0.5108(7) 0.5108(7) 0.0000
C12 C 0.4473(12) 0.4473(12) 0.0000
C13 C 0.7443(4) 0.6851(6) 0.0096(8)
C16 C 0.8577(5) 0.6838(6) 0.0305(8)
C17 C 0.8530(5) 0.7351(5) 0.0674(6)
H9 H 0.8878 0.7689 0.0990
C18 C 0.7963(6) 0.7357(4) 0.0569(7)
H10 H 0.7932 0.7700 0.0815
C19 C 0.9222(9) 0.6860(9) 0.0404(16)
C20 C 0.6099(6) 0.5798(8) 0.0779(8)
H11 H 0.6391 0.5886 0.1302
C21 C 0.5539(6) 0.5244(9) 0.0776(8)
H12 H 0.5445 0.4952 0.1302
O6 O 0.9576(5) 0.7224(6) 0.1057(8)
La3 La 0.33333(6) 0.34440(4) 0.1667
O11 O 0.5951(5) 0.9801(5) 0.3254(9)
O13 O 0.6673(9) 0.9086(5) 0.2481(9)
O1 O 0.7224(6) 0.9576(5) 0.8943(8)
N1_2 N 0.6849(7) 0.6849(7) 1.0000
C1 C 0.6851(6) 0.7443(4) 0.9904(8)
C4 C 0.6838(6) 0.8577(5) 0.9695(8)
C5 C 0.7351(5) 0.8530(5) 0.9326(6)
H3 H 0.7689 0.8878 0.9010
C6 C 0.7357(4) 0.7963(6) 0.9431(7)
H4 H 0.7700 0.7932 0.9185
C7 C 0.6860(9) 0.9222(9) 0.9596(16)
C8_2 C 0.6239(7) 0.6239(7) 1.0000
C9 C 0.5798(8) 0.6099(6) 0.9221(8)
H5 H 0.5886 0.6391 0.8698
C10 C 0.5244(9) 0.5539(6) 0.9224(8)
H6 H 0.4952 0.5445 0.8698
C11_2 C 0.5108(7) 0.5108(7) 1.0000
C12_2 C 0.4473(12) 0.4473(12) 1.0000
O4 O 0.9284(5) 0.6468(5) 0.9921(9)
C14 C 0.7490(5) 0.6339(4) 0.9727(7)
H7 H 0.7142 0.6000 0.9411
C15 C 0.8057(7) 0.6332(5) 0.9832(8)
H8 H 0.8089 0.5989 0.9586
O5 O 0.4247(5) 0.4253(8) 0.9148(9)
La4 La 0.98893(4) 0.65560(4) 0.8333
La6 La 0.34440(4) 0.33333(6) 0.8333
N1_3 N 0.3151(7) 0.0000(10) 0.0000
C8_3 C 0.3761(7) 0.0000(10) 0.0000
C11_3 C 0.4892(7) 0.0000(10) 0.0000
C12_3 C 0.5527(12) 0.0000(17) 0.0000
C13_2 C 0.3149(6) 0.0592(7) 0.0096(8)
C16_2 C 0.3162(6) 0.1739(8) 0.0305(8)
C17_2 C 0.2649(5) 0.1179(7) 0.0674(6)
H9_2 H 0.2311 0.1189 0.0990
C18_2 C 0.2643(4) 0.0606(7) 0.0569(7)
H10_2 H 0.2300 0.0232 0.0815
C19_2 C 0.3140(9) 0.2362(13) 0.0404(16)
C20_2 C 0.4202(8) 0.0301(10) 0.0779(8)
H11_2 H 0.4114 0.0505 0.1302
C21_2 C 0.4756(9) 0.0295(11) 0.0776(8)
H12_2 H 0.5048 0.0493 0.1302
O6_2 O 0.2776(6) 0.2352(8) 0.1057(8)
N1_4 N 0.3151(7) -0.0000(10) 1.0000
C8_4 C 0.3761(7) 0.0000(10) 1.0000
C11_4 C 0.4892(7) -0.0000(10) 1.0000
C12_4 C 0.5527(12) -0.0000(17) 1.0000
O4_2 O 0.3532(5) 0.2816(7) 0.9921(9)
C14_2 C 0.3661(4) 0.1151(6) 0.9727(7)
H7_2 H 0.4000 0.1142 0.9411
C15_2 C 0.3668(5) 0.1725(9) 0.9832(8)
H8_2 H 0.4011 0.2100 0.9586
O2_2 O 0.0716(5) 0.7184(7) 0.0079(9)
N1_5 N 0.3151(7) 1.0000(10) 0.0000
C2_2 C 0.2510(5) 0.8849(6) 0.0273(7)
H1_2 H 0.2858 0.8858 0.0589
C3_2 C 0.1943(7) 0.8275(9) 0.0168(8)
H2_2 H 0.1911 0.7900 0.0414
C8_5 C 0.3761(7) 1.0000(10) 0.0000
C11_5 C 0.4892(7) 1.0000(10) 0.0000
C12_5 C 0.5527(12) 1.0000(17) 0.0000
O11_2 O 0.0199(5) 0.6149(7) 0.3254(9)
O13_2 O 0.0914(5) 0.7586(10) 0.2481(9)
O1_2 O 0.0424(5) 0.7648(8) 0.8943(8)
N1_6 N 0.3151(7) 1.0000(10) 1.0000
C1_2 C 0.2557(4) 0.9408(7) 0.9904(8)
C4_2 C 0.1423(5) 0.8261(8) 0.9695(8)
C5_2 C 0.1470(5) 0.8821(7) 0.9326(6)
H3_2 H 0.1122 0.8811 0.9010
C6_2 C 0.2037(6) 0.9394(7) 0.9431(7)
H4_2 H 0.2068 0.9768 0.9185
C7_2 C 0.0778(9) 0.7638(13) 0.9596(16)
C8_6 C 0.3761(7) 1.0000(10) 1.0000
C9_2 C 0.3901(6) 0.9699(10) 0.9221(8)
H5_2 H 0.3609 0.9495 0.8698
C10_2 C 0.4461(6) 0.9705(11) 0.9224(8)
H6_2 H 0.4555 0.9507 0.8698
C11_6 C 0.4892(7) 1.0000(10) 1.0000
C12_6 C 0.5527(12) 1.0000(17) 1.0000
O5_2 O 0.5747(8) 0.9994(9) 0.9148(9)
O8_2 O 0.9019(8) 0.6109(9) 0.2276(8)
O10_2 O 0.9483(7) 0.6865(9) 0.3412(9)
O12_2 O 0.9994(9) 0.5747(10) 0.0852(9)
O2_3 O 0.2816(7) 0.3532(5) 0.0079(9)
N1_7 N 0.0000(10) 0.3151(7) 0.0000
C2_3 C 0.1151(6) 0.3661(4) 0.0273(7)
H1_3 H 0.1142 0.4000 0.0589
C3_3 C 0.1725(9) 0.3668(5) 0.0168(8)
H2_3 H 0.2100 0.4011 0.0414
C8_7 C -0.0000(10) 0.3761(7) 0.0000
C11_7 C 0.0000(10) 0.4892(7) 0.0000
C12_7 C 0.0000(17) 0.5527(12) 0.0000
O8_3 O 0.3891(9) 0.2909(5) 0.2276(8)
O10_3 O 0.3135(9) 0.2617(5) 0.3412(9)
O11_3 O 0.3851(7) 0.4049(5) 0.3254(9)
O13_3 O 0.2414(10) 0.3327(9) 0.2481(9)
O1_3 O 0.2352(8) 0.2776(6) 0.8943(8)
N1_8 N 0.0000(10) 0.3151(7) 1.0000
C1_3 C 0.0592(7) 0.3149(6) 0.9904(8)
C4_3 C 0.1739(8) 0.3162(6) 0.9695(8)
C5_3 C 0.1179(7) 0.2649(5) 0.9326(6)
H3_3 H 0.1189 0.2311 0.9010
C6_3 C 0.0606(7) 0.2643(4) 0.9431(7)
H4_3 H 0.0232 0.2300 0.9185
C7_3 C 0.2362(13) 0.3140(9) 0.9596(16)
C8_8 C -0.0000(10) 0.3761(7) 1.0000
C9_3 C 0.0301(10) 0.4202(8) 0.9221(8)
H5_3 H 0.0505 0.4114 0.8698
C10_3 C 0.0295(11) 0.4756(9) 0.9224(8)
H6_3 H 0.0493 0.5048 0.8698
C11_8 C 0.0000(10) 0.4892(7) 1.0000
C12_8 C -0.0000(17) 0.5527(12) 1.0000
O5_3 O 0.0006(9) 0.5753(5) 0.9148(9)
N1_9 N 1.0000(10) 0.3151(7) 0.0000
C8_9 C 1.0000(10) 0.3761(7) 0.0000
C11_9 C 1.0000(10) 0.4892(7) 0.0000
C12_9 C 1.0000(17) 0.5527(12) 0.0000
C13_3 C 0.9408(7) 0.2557(4) 0.0096(8)
C16_3 C 0.8261(8) 0.1423(5) 0.0305(8)
C17_3 C 0.8821(7) 0.1470(5) 0.0674(6)
H9_3 H 0.8811 0.1122 0.0990
C18_3 C 0.9394(7) 0.2037(6) 0.0569(7)
H10_3 H 0.9768 0.2068 0.0815
C19_3 C 0.7638(13) 0.0778(9) 0.0404(16)
C20_3 C 0.9699(10) 0.3901(6) 0.0779(8)
H11_3 H 0.9495 0.3609 0.1302
C21_3 C 0.9705(11) 0.4461(6) 0.0776(8)
H12_3 H 0.9507 0.4555 0.1302
N1_10 N 1.0000(10) 0.3151(7) 1.0000
C8_10 C 1.0000(10) 0.3761(7) 1.0000
C11_10 C 1.0000(10) 0.4892(7) 1.0000
C12_10 C 1.0000(17) 0.5527(12) 1.0000
C14_3 C 0.8849(6) 0.2510(5) 0.9727(7)
H7_3 H 0.8858 0.2858 0.9411
C15_3 C 0.8275(9) 0.1943(7) 0.9832(8)
H8_3 H 0.7900 0.1911 0.9586
O8_4 O 0.0981(8) 0.7091(5) 0.7724(8)
O10_4 O 0.0517(7) 0.7383(5) 0.6588(9)
O11_4 O 0.9801(5) 0.5951(5) 0.6746(9)
O13_4 O 0.9086(5) 0.6673(9) 0.7519(9)
O11_5 O 0.6149(7) 0.0199(5) 0.6746(9)
O13_5 O 0.7586(10) 0.0914(5) 0.7519(9)
O8_5 O 0.6109(9) 0.9019(8) 0.7724(8)
O10_5 O 0.6865(9) 0.9483(7) 0.6588(9)
O8_6 O 0.2909(5) 0.3891(9) 0.7724(8)
O10_6 O 0.2617(5) 0.3135(9) 0.6588(9)
O11_6 O 0.4049(5) 0.3851(7) 0.6746(9)
O13_6 O 0.3327(9) 0.2414(10) 0.7519(9)
La1_2 La 0.32227(4) 0.32226(4) 0.5000
N1_11 N 0.3516(7) 0.0182(7) 0.3333
C1_4 C 0.3518(6) 0.0776(4) 0.3237(8)
C2_4 C 0.3006(4) 0.0823(5) 0.3606(7)
H1_4 H 0.2667 0.0475 0.3922
C3_4 C 0.2999(5) 0.1390(7) 0.3501(8)
H2_4 H 0.2656 0.1422 0.3747
C4_4 C 0.3505(6) 0.1910(5) 0.3028(8)
C5_4 C 0.4018(5) 0.1863(5) 0.2659(6)
H3_4 H 0.4356 0.2211 0.2343
C6_4 C 0.4024(4) 0.1296(6) 0.2764(7)
H4_4 H 0.4367 0.1265 0.2518
C7_4 C 0.3527(9) 0.2555(9) 0.2929(16)
C13_4 C 0.4110(4) 0.0184(6) 0.3429(8)
C16_4 C 0.5244(5) 0.0171(6) 0.3638(8)
C17_4 C 0.5197(5) 0.0684(5) 0.4007(6)
H9_4 H 0.5545 0.1022 0.4323
C18_4 C 0.4630(6) 0.0690(4) 0.3902(7)
H10_4 H 0.4599 0.1033 0.4148
C19_4 C 0.5889(9) 0.0193(9) 0.3737(16)
O6_3 O 0.6243(5) 0.0557(6) 0.4390(8)
La2_2 La 0.67774(4) 0.00000(6) 0.5000
O7_2 O 0.4315(8) 0.3757(5) 0.4390(8)
O8_7 O 0.3757(5) 0.4315(8) 0.5610(8)
O12_3 O 0.2420(5) 0.3339(9) 0.4185(9)
O13_7 O 0.3339(9) 0.2420(5) 0.5815(9)
O3_2 O 0.0920(8) 0.7580(5) 0.4185(9)
C8_11 C 0.2906(7) 0.9572(7) 0.3333
C9_4 C 0.2465(8) 0.9432(6) 0.2554(8)
H5_4 H 0.2553 0.9724 0.2031
C10_4 C 0.1911(9) 0.8872(6) 0.2557(8)
H6_4 H 0.1619 0.8778 0.2031
C11_11 C 0.1775(7) 0.8441(7) 0.3333
C12_11 C 0.1140(12) 0.7806(12) 0.3333
C14_4 C 0.4157(5) 0.9672(4) 0.3060(7)
H7_4 H 0.3809 0.9333 0.2744
C15_4 C 0.4724(7) 0.9665(5) 0.3165(8)
H8_4 H 0.4756 0.9322 0.2919
C20_4 C 0.2766(6) 0.9131(8) 0.4112(8)
H11_4 H 0.3058 0.9219 0.4635
C21_4 C 0.2206(6) 0.8577(9) 0.4109(8)
H12_4 H 0.2112 0.8285 0.4635
La2_3 La 0.67774(4) 1.00000(6) 0.5000
La3_2 La -0.00000(6) 0.67773(4) 0.5000
La3_3 La 1.00000(6) 0.67773(4) 0.5000
C8_12 C 0.0428(7) 0.3333(10) 0.3333
C9_5 C 0.0568(6) 0.3032(10) 0.2554(8)
H5_5 H 0.0276 0.2828 0.2031
C10_5 C 0.1128(6) 0.3038(11) 0.2557(8)
H6_5 H 0.1222 0.2840 0.2031
C11_12 C 0.1559(7) 0.3333(10) 0.3333
C12_12 C 0.2194(12) 0.3333(17) 0.3333
C14_5 C 0.0328(4) 0.4484(6) 0.3060(7)
H7_5 H 0.0667 0.4475 0.2744
C15_5 C 0.0335(5) 0.5058(9) 0.3165(8)
H8_5 H 0.0678 0.5433 0.2919
C20_5 C 0.0869(8) 0.3634(10) 0.4112(8)
H11_5 H 0.0781 0.3838 0.4635
C21_5 C 0.1423(9) 0.3628(11) 0.4109(8)
H12_5 H 0.1715 0.3826 0.4635
N1_12 N 0.9818(7) 0.3333(10) 0.3333
C1_5 C 0.9224(4) 0.2741(7) 0.3237(8)
C2_5 C 0.9177(5) 0.2182(6) 0.3606(7)
H1_5 H 0.9525 0.2191 0.3922
C3_5 C 0.8610(7) 0.1608(9) 0.3501(8)
H2_5 H 0.8578 0.1233 0.3747
C4_5 C 0.8090(5) 0.1594(8) 0.3028(8)
C5_5 C 0.8137(5) 0.2154(7) 0.2659(6)
H3_5 H 0.7789 0.2144 0.2343
C6_5 C 0.8704(6) 0.2727(7) 0.2764(7)
H4_5 H 0.8735 0.3101 0.2518
C7_5 C 0.7445(9) 0.0971(13) 0.2929(16)
C13_5 C 0.9816(6) 0.3925(7) 0.3429(8)
C16_5 C 0.9829(6) 0.5072(8) 0.3638(8)
C17_5 C 0.9316(5) 0.4512(7) 0.4007(6)
H9_5 H 0.8978 0.4522 0.4323
C18_5 C 0.9310(4) 0.3939(7) 0.3902(7)
H10_5 H 0.8967 0.3565 0.4148
C19_5 C 0.9807(9) 0.5695(13) 0.3737(16)
O6_4 O 0.9443(6) 0.5685(8) 0.4390(8)
O13_8 O 0.7580(5) 0.0920(10) 0.5815(9)
O8_8 O 0.5685(8) 0.9443(9) 0.5610(8)
O12_4 O 0.6661(9) 0.9080(10) 0.4185(9)
O8_9 O 0.0557(9) 0.6243(5) 0.5610(8)
N1_13 N 0.6667(10) 0.6484(7) 0.3333
C1_6 C 0.7259(7) 0.6482(6) 0.3237(8)
C2_6 C 0.7818(6) 0.6994(4) 0.3606(7)
H1_6 H 0.7809 0.7333 0.3922
C3_6 C 0.8392(9) 0.7001(5) 0.3501(8)
H2_6 H 0.8767 0.7344 0.3747
C4_6 C 0.8406(8) 0.6495(6) 0.3028(8)
C5_6 C 0.7846(7) 0.5982(5) 0.2659(6)
H3_6 H 0.7856 0.5644 0.2343
C6_6 C 0.7273(7) 0.5976(4) 0.2764(7)
H4_6 H 0.6899 0.5633 0.2518
C7_6 C 0.9029(13) 0.6473(9) 0.2929(16)
C8_13 C 0.6667(10) 0.7094(7) 0.3333
C9_6 C 0.6968(10) 0.7535(8) 0.2554(8)
H5_6 H 0.7172 0.7447 0.2031
C10_6 C 0.6962(11) 0.8089(9) 0.2557(8)
H6_6 H 0.7160 0.8381 0.2031
C11_13 C 0.6667(10) 0.8225(7) 0.3333
C12_13 C 0.6667(17) 0.8860(12) 0.3333
C13_6 C 0.6075(7) 0.5890(4) 0.3429(8)
C14_6 C 0.5516(6) 0.5843(5) 0.3060(7)
H7_6 H 0.5525 0.6191 0.2744
C15_6 C 0.4942(9) 0.5276(7) 0.3165(8)
H8_6 H 0.4567 0.5244 0.2919
C16_6 C 0.4928(8) 0.4756(5) 0.3638(8)
C17_6 C 0.5488(7) 0.4803(5) 0.4007(6)
H9_6 H 0.5478 0.4455 0.4323
C18_6 C 0.6061(7) 0.5370(6) 0.3902(7)
H10_6 H 0.6435 0.5401 0.4148
C19_6 C 0.4305(13) 0.4111(9) 0.3737(16)
C20_6 C 0.6366(10) 0.7234(6) 0.4112(8)
H11_6 H 0.6162 0.6942 0.4635
C21_6 C 0.6372(11) 0.7794(6) 0.4109(8)
H12_6 H 0.6174 0.7888 0.4635
O13_9 O 0.9080(10) 0.6661(9) 0.5815(9)
N1_14 N 0.0182(7) 0.3516(7) 0.6667
C1_7 C 0.0184(6) 0.4110(4) 0.6571(8)
C4_7 C 0.0171(6) 0.5244(5) 0.6362(8)
C5_7 C 0.0684(5) 0.5197(5) 0.5993(6)
H3_7 H 0.1022 0.5545 0.5677
C6_7 C 0.0690(4) 0.4630(6) 0.6098(7)
H4_7 H 0.1033 0.4599 0.5852
C7_7 C 0.0193(9) 0.5889(9) 0.6263(16)
C13_7 C 0.0776(4) 0.3518(6) 0.6763(8)
C14_7 C 0.0823(5) 0.3006(4) 0.6394(7)
H7_7 H 0.0475 0.2667 0.6078
C15_7 C 0.1390(7) 0.2999(5) 0.6499(8)
H8_7 H 0.1422 0.2656 0.6253
C16_7 C 0.1910(5) 0.3505(6) 0.6972(8)
C17_7 C 0.1863(5) 0.4018(5) 0.7341(6)
H9_7 H 0.2211 0.4356 0.7657
C18_7 C 0.1296(6) 0.4024(4) 0.7236(7)
H10_7 H 0.1265 0.4367 0.7482
C19_7 C 0.2555(9) 0.3527(9) 0.7071(16)
C2_7 C 0.9672(4) 0.4157(5) 0.6940(7)
H1_7 H 0.9333 0.3809 0.7256
C3_7 C 0.9665(5) 0.4724(7) 0.6835(8)
H2_7 H 0.9322 0.4756 0.7081
C8_14 C 0.9572(7) 0.2906(7) 0.6667
C9_7 C 0.9131(8) 0.2766(6) 0.5888(8)
H5_7 H 0.9219 0.3058 0.5365
C10_7 C 0.8577(9) 0.2206(6) 0.5891(8)
H6_7 H 0.8285 0.2112 0.5365
C11_14 C 0.8441(7) 0.1775(7) 0.6667
C12_14 C 0.7806(12) 0.1140(12) 0.6667
C20_7 C 0.9432(6) 0.2465(8) 0.7446(8)
H11_7 H 0.9724 0.2553 0.7969
C21_7 C 0.8872(6) 0.1911(9) 0.7443(8)
H12_7 H 0.8778 0.1619 0.7969
N1_15 N 0.6484(7) 0.6667(10) 0.6667
C1_8 C 0.5890(4) 0.6075(7) 0.6571(8)
C2_8 C 0.5843(5) 0.5516(6) 0.6940(7)
H1_8 H 0.6191 0.5525 0.7256
C3_8 C 0.5276(7) 0.4942(9) 0.6835(8)
H2_8 H 0.5244 0.4567 0.7081
C4_8 C 0.4756(5) 0.4928(8) 0.6362(8)
C5_8 C 0.4803(5) 0.5488(7) 0.5993(6)
H3_8 H 0.4455 0.5478 0.5677
C6_8 C 0.5370(6) 0.6061(7) 0.6098(7)
H4_8 H 0.5401 0.6435 0.5852
C7_8 C 0.4111(9) 0.4305(13) 0.6263(16)
C8_15 C 0.7094(7) 0.6667(10) 0.6667
C9_8 C 0.7234(6) 0.6366(10) 0.5888(8)
H5_8 H 0.6942 0.6162 0.5365
C10_8 C 0.7794(6) 0.6372(11) 0.5891(8)
H6_8 H 0.7888 0.6174 0.5365
C11_15 C 0.8225(7) 0.6667(10) 0.6667
C12_15 C 0.8860(12) 0.6667(17) 0.6667
C13_8 C 0.6482(6) 0.7259(7) 0.6763(8)
C14_8 C 0.6994(4) 0.7818(6) 0.6394(7)
H7_8 H 0.7333 0.7809 0.6078
C15_8 C 0.7001(5) 0.8392(9) 0.6499(8)
H8_8 H 0.7344 0.8767 0.6253
C16_8 C 0.6495(6) 0.8406(8) 0.6972(8)
C17_8 C 0.5982(5) 0.7846(7) 0.7341(6)
H9_8 H 0.5644 0.7856 0.7657
C18_8 C 0.5976(4) 0.7273(7) 0.7236(7)
H10_8 H 0.5633 0.6899 0.7482
C19_8 C 0.6473(9) 0.9029(13) 0.7071(16)
C20_8 C 0.7535(8) 0.6968(10) 0.7446(8)
H11_8 H 0.7447 0.7172 0.7969
C21_8 C 0.8089(9) 0.6962(11) 0.7443(8)
H12_8 H 0.8381 0.7160 0.7969
C2_9 C 0.4484(6) 0.0328(4) 0.6940(7)
H1_9 H 0.4475 0.0667 0.7256
C3_9 C 0.5058(9) 0.0335(5) 0.6835(8)
H2_9 H 0.5433 0.0678 0.7081
C8_16 C 0.3333(10) 0.0428(7) 0.6667
C9_9 C 0.3634(10) 0.0869(8) 0.5888(8)
H5_9 H 0.3838 0.0781 0.5365
C10_9 C 0.3628(11) 0.1423(9) 0.5891(8)
H6_9 H 0.3826 0.1715 0.5365
C11_16 C 0.3333(10) 0.1559(7) 0.6667
C12_16 C 0.3333(17) 0.2194(12) 0.6667
C20_9 C 0.3032(10) 0.0568(6) 0.7446(8)
H11_9 H 0.2828 0.0276 0.7969
C21_9 C 0.3038(11) 0.1128(6) 0.7443(8)
H12_9 H 0.2840 0.1222 0.7969
N1_16 N 0.3333(10) 0.9818(7) 0.6667
C1_9 C 0.3925(7) 0.9816(6) 0.6571(8)
C4_9 C 0.5072(8) 0.9829(6) 0.6362(8)
C5_9 C 0.4512(7) 0.9316(5) 0.5993(6)
H3_9 H 0.4522 0.8978 0.5677
C6_9 C 0.3939(7) 0.9310(4) 0.6098(7)
H4_9 H 0.3565 0.8967 0.5852
C7_9 C 0.5695(13) 0.9807(9) 0.6263(16)
C13_9 C 0.2741(7) 0.9224(4) 0.6763(8)
C14_9 C 0.2182(6) 0.9177(5) 0.6394(7)
H7_9 H 0.2191 0.9525 0.6078
C15_9 C 0.1608(9) 0.8610(7) 0.6499(8)
H8_9 H 0.1233 0.8578 0.6253
C16_9 C 0.1594(8) 0.8090(5) 0.6972(8)
C17_9 C 0.2154(7) 0.8137(5) 0.7341(6)
H9_9 H 0.2144 0.7789 0.7657
C18_9 C 0.2727(7) 0.8704(6) 0.7236(7)
H10_9 H 0.3101 0.8735 0.7482
C19_9 C 0.0971(13) 0.7445(9) 0.7071(16)
loop_
_geom_bond_atom_site_label_1
_geom_bond_atom_site_label_2
_geom_bond_site_symmetry_1
_geom_bond_site_symmetry_2
La5 O9 1_555 1_555
La1 O2 1_555 1_555
O3 C12 1_555 1_555
C2 H1 1_555 1_555
C3 C2 1_555 1_555
H2 C3 1_555 1_555
C8 N1 1_555 1_555
C12 C11 1_555 1_555
C13 N1 1_555 1_555
C17 C16 1_555 1_555
H9 C17 1_555 1_555
C18 C13 1_555 1_555
H10 C18 1_555 1_555
C19 C16 1_555 1_555
C20 C8 1_555 1_555
H11 C20 1_555 1_555
C21 C11 1_555 1_555
H12 C21 1_555 1_555
O6 C19 1_555 1_555
La3 O3 1_555 1_555
O11 La1 1_555 1_555
O13 La1 1_555 1_555
C17 C18 1_555 1_555
C20 C21 1_555 1_555
O1 C7 1_555 1_555
N1_2 C1 1_555 1_555
C5 C4 1_555 1_555
H3 C5 1_555 1_555
C6 C1 1_555 1_555
H4 C6 1_555 1_555
C7 C4 1_555 1_555
C8_2 N1_2 1_555 1_555
C9 C8_2 1_555 1_555
H5 C9 1_555 1_555
C10 C9 1_555 1_555
H6 C10 1_555 1_555
C11_2 C10 1_555 1_555
C12_2 C11_2 1_555 1_555
H7 C14 1_555 1_555
C15 C14 1_555 1_555
H8 C15 1_555 1_555
O5 C12_2 1_555 1_555
La4 O4 1_555 1_555
La6 O5 1_555 1_555
C5 C6 1_555 1_555
O12 C12_3 1_555 1_555
C8_3 N1_3 1_555 1_555
C12_3 C11_3 1_555 1_555
C13_2 N1_3 1_555 1_555
C17_2 C16_2 1_555 1_555
H9_2 C17_2 1_555 1_555
C18_2 C13_2 1_555 1_555
H10_2 C18_2 1_555 1_555
C19_2 C16_2 1_555 1_555
C20_2 C8_3 1_555 1_555
H11_2 C20_2 1_555 1_555
C21_2 C11_3 1_555 1_555
H12_2 C21_2 1_555 1_555
O6_2 C19_2 1_555 1_555
C17_2 C18_2 1_555 1_555
C20_2 C21_2 1_555 1_555
O6_2 La3 1_555 1_555
C8_4 N1_4 1_555 1_555
C12_4 C11_4 1_555 1_555
H7_2 C14_2 1_555 1_555
C15_2 C14_2 1_555 1_555
H8_2 C15_2 1_555 1_555
La6 O4_2 1_555 1_555
La2 O2_2 1_555 1_555
C2_2 H1_2 1_555 1_555
C3_2 C2_2 1_555 1_555
H2_2 C3_2 1_555 1_555
C8_5 N1_5 1_555 1_555
C12_5 C11_5 1_555 1_555
O11_2 La2 1_555 1_555
O13_2 La2 1_555 1_555
O1_2 C7_2 1_555 1_555
N1_6 C1_2 1_555 1_555
C5_2 C4_2 1_555 1_555
H3_2 C5_2 1_555 1_555
C6_2 C1_2 1_555 1_555
H4_2 C6_2 1_555 1_555
C7_2 C4_2 1_555 1_555
C8_6 N1_6 1_555 1_555
C9_2 C8_6 1_555 1_555
H5_2 C9_2 1_555 1_555
C10_2 C9_2 1_555 1_555
H6_2 C10_2 1_555 1_555
C11_6 C10_2 1_555 1_555
C12_6 C11_6 1_555 1_555
O5_2 C12_6 1_555 1_555
C5_2 C6_2 1_555 1_555
La3 O2_3 1_555 1_555
C2_3 H1_3 1_555 1_555
C3_3 C2_3 1_555 1_555
H2_3 C3_3 1_555 1_555
C8_7 N1_7 1_555 1_555
C12_7 C11_7 1_555 1_555
O8_3 La3 1_555 1_555
O10_3 La3 1_555 1_555
O11_3 La3 1_555 1_555
O13_3 La3 1_555 1_555
O1_3 C7_3 1_555 1_555
N1_8 C1_3 1_555 1_555
C5_3 C4_3 1_555 1_555
H3_3 C5_3 1_555 1_555
C6_3 C1_3 1_555 1_555
H4_3 C6_3 1_555 1_555
C7_3 C4_3 1_555 1_555
C8_8 N1_8 1_555 1_555
C9_3 C8_8 1_555 1_555
H5_3 C9_3 1_555 1_555
C10_3 C9_3 1_555 1_555
H6_3 C10_3 1_555 1_555
C11_8 C10_3 1_555 1_555
C12_8 C11_8 1_555 1_555
O5_3 C12_8 1_555 1_555
La6 O1_3 1_555 1_555
C5_3 C6_3 1_555 1_555
O12_2 C12_9 1_555 1_555
C8_9 N1_9 1_555 1_555
C12_9 C11_9 1_555 1_555
C13_3 N1_9 1_555 1_555
C17_3 C16_3 1_555 1_555
H9_3 C17_3 1_555 1_555
C18_3 C13_3 1_555 1_555
H10_3 C18_3 1_555 1_555
C19_3 C16_3 1_555 1_555
C20_3 C8_9 1_555 1_555
H11_3 C20_3 1_555 1_555
C21_3 C11_9 1_555 1_555
H12_3 C21_3 1_555 1_555
O7 C19_3 1_555 1_555
C17_3 C18_3 1_555 1_555
C20_3 C21_3 1_555 1_555
C8_10 N1_10 1_555 1_555
C12_10 C11_10 1_555 1_555
H7_3 C14_3 1_555 1_555
C15_3 C14_3 1_555 1_555
H8_3 C15_3 1_555 1_555
O11_4 La4 1_555 1_555
O13_4 La4 1_555 1_555
O11_5 La5 1_555 1_555
O13_5 La5 1_555 1_555
O8_6 La6 1_555 1_555
O10_6 La6 1_555 1_555
O11_6 La6 1_555 1_555
O13_6 La6 1_555 1_555
La1_2 O10_3 1_555 1_555
O8_3 C7_4 1_555 1_555
O10_3 C7_4 1_555 1_555
N1_11 C1_4 1_555 1_555
C1_4 C2_4 1_555 1_555
C2_4 H1_4 1_555 1_555
C3_4 C2_4 1_555 1_555
H2_4 C3_4 1_555 1_555
C4_4 C3_4 1_555 1_555
C5_4 C4_4 1_555 1_555
H3_4 C5_4 1_555 1_555
C6_4 C1_4 1_555 1_555
H4_4 C6_4 1_555 1_555
C7_4 C4_4 1_555 1_555
C13_4 N1_11 1_555 1_555
C17_4 C16_4 1_555 1_555
H9_4 C17_4 1_555 1_555
C18_4 C13_4 1_555 1_555
H10_4 C18_4 1_555 1_555
C19_4 C16_4 1_555 1_555
O6_3 C19_4 1_555 1_555
O7_2 La1_2 1_555 1_555
O8_7 La1_2 1_555 1_555
O11_3 La1_2 1_555 1_555
O11_6 La1_2 1_555 1_555
O10_6 La1_2 1_555 1_555
O12_3 La1_2 1_555 1_555
O13_7 La1_2 1_555 1_555
C5_4 C6_4 1_555 1_555
C17_4 C18_4 1_555 1_555
O6_3 La2_2 1_555 1_555
O3_2 C12_11 1_555 1_555
C9_4 C8_11 1_555 1_555
H5_4 C9_4 1_555 1_555
C10_4 C9_4 1_555 1_555
H6_4 C10_4 1_555 1_555
C11_11 C10_4 1_555 1_555
C12_11 C11_11 1_555 1_555
H7_4 C14_4 1_555 1_555
C15_4 C14_4 1_555 1_555
H8_4 C15_4 1_555 1_555
O13_2 C12_11 1_555 1_555
C20_4 C8_11 1_555 1_555
H11_4 C20_4 1_555 1_555
C21_4 C11_11 1_555 1_555
H12_4 C21_4 1_555 1_555
La2_3 O11 1_555 1_555
La3_2 O3_2 1_555 1_555
C20_4 C21_4 1_555 1_555
O12_3 C12_12 1_555 1_555
C9_5 C8_12 1_555 1_555
H5_5 C9_5 1_555 1_555
C10_5 C9_5 1_555 1_555
H6_5 C10_5 1_555 1_555
C11_12 C10_5 1_555 1_555
C12_12 C11_12 1_555 1_555
H7_5 C14_5 1_555 1_555
C15_5 C14_5 1_555 1_555
H8_5 C15_5 1_555 1_555
O13_3 C12_12 1_555 1_555
C20_5 C8_12 1_555 1_555
H11_5 C20_5 1_555 1_555
C21_5 C11_12 1_555 1_555
H12_5 C21_5 1_555 1_555
La3_2 O11_2 1_555 1_555
C20_5 C21_5 1_555 1_555
La2_2 O10 1_555 1_555
O8 C7_5 1_555 1_555
O10 C7_5 1_555 1_555
N1_12 C1_5 1_555 1_555
C1_5 C2_5 1_555 1_555
C2_5 H1_5 1_555 1_555
C3_5 C2_5 1_555 1_555
H2_5 C3_5 1_555 1_555
C4_5 C3_5 1_555 1_555
C5_5 C4_5 1_555 1_555
H3_5 C5_5 1_555 1_555
C6_5 C1_5 1_555 1_555
H4_5 C6_5 1_555 1_555
C7_5 C4_5 1_555 1_555
C13_5 N1_12 1_555 1_555
C17_5 C16_5 1_555 1_555
H9_5 C17_5 1_555 1_555
C18_5 C13_5 1_555 1_555
H10_5 C18_5 1_555 1_555
C19_5 C16_5 1_555 1_555
O6_4 C19_5 1_555 1_555
O11_5 La2_2 1_555 1_555
O13_8 La2_2 1_555 1_555
C5_5 C6_5 1_555 1_555
C17_5 C18_5 1_555 1_555
O6_4 La3_3 1_555 1_555
O8_8 La2_3 1_555 1_555
O10_5 La2_3 1_555 1_555
O12_4 La2_3 1_555 1_555
O8_9 La3_2 1_555 1_555
O10_4 La3_2 1_555 1_555
La3_3 O10_2 1_555 1_555
O8_2 C7_6 1_555 1_555
O10_2 C7_6 1_555 1_555
O12_4 C12_13 1_555 1_555
N1_13 C1_6 1_555 1_555
C1_6 C2_6 1_555 1_555
C2_6 H1_6 1_555 1_555
C3_6 C2_6 1_555 1_555
H2_6 C3_6 1_555 1_555
C4_6 C3_6 1_555 1_555
C5_6 C4_6 1_555 1_555
H3_6 C5_6 1_555 1_555
C6_6 C1_6 1_555 1_555
H4_6 C6_6 1_555 1_555
C7_6 C4_6 1_555 1_555
C8_13 N1_13 1_555 1_555
C9_6 C8_13 1_555 1_555
H5_6 C9_6 1_555 1_555
C10_6 C9_6 1_555 1_555
H6_6 C10_6 1_555 1_555
C11_13 C10_6 1_555 1_555
C12_13 C11_13 1_555 1_555
O11_3 C19_6 1_555 1_555
C13_6 N1_13 1_555 1_555
C14_6 C13_6 1_555 1_555
H7_6 C14_6 1_555 1_555
C15_6 C14_6 1_555 1_555
H8_6 C15_6 1_555 1_555
C16_6 C15_6 1_555 1_555
C17_6 C16_6 1_555 1_555
H9_6 C17_6 1_555 1_555
C18_6 C13_6 1_555 1_555
H10_6 C18_6 1_555 1_555
C19_6 C16_6 1_555 1_555
O13 C12_13 1_555 1_555
C20_6 C8_13 1_555 1_555
H11_6 C20_6 1_555 1_555
C21_6 C11_13 1_555 1_555
H12_6 C21_6 1_555 1_555
O7_2 C19_6 1_555 1_555
O11_4 La3_3 1_555 1_555
O13_9 La3_3 1_555 1_555
C5_6 C6_6 1_555 1_555
C17_6 C18_6 1_555 1_555
C20_6 C21_6 1_555 1_555
O8_9 C7_7 1_555 1_555
N1_14 C1_7 1_555 1_555
C5_7 C4_7 1_555 1_555
H3_7 C5_7 1_555 1_555
C6_7 C1_7 1_555 1_555
H4_7 C6_7 1_555 1_555
C7_7 C4_7 1_555 1_555
O10_6 C19_7 1_555 1_555
C13_7 N1_14 1_555 1_555
C14_7 C13_7 1_555 1_555
H7_7 C14_7 1_555 1_555
C15_7 C14_7 1_555 1_555
H8_7 C15_7 1_555 1_555
C16_7 C15_7 1_555 1_555
C17_7 C16_7 1_555 1_555
H9_7 C17_7 1_555 1_555
C18_7 C13_7 1_555 1_555
H10_7 C18_7 1_555 1_555
C19_7 C16_7 1_555 1_555
O8_6 C19_7 1_555 1_555
C5_7 C6_7 1_555 1_555
C17_7 C18_7 1_555 1_555
O13_5 C12_14 1_555 1_555
C2_7 H1_7 1_555 1_555
C3_7 C2_7 1_555 1_555
H2_7 C3_7 1_555 1_555
C9_7 C8_14 1_555 1_555
H5_7 C9_7 1_555 1_555
C10_7 C9_7 1_555 1_555
H6_7 C10_7 1_555 1_555
C11_14 C10_7 1_555 1_555
C12_14 C11_14 1_555 1_555
O13_8 C12_14 1_555 1_555
C20_7 C8_14 1_555 1_555
H11_7 C20_7 1_555 1_555
C21_7 C11_14 1_555 1_555
H12_7 C21_7 1_555 1_555
C20_7 C21_7 1_555 1_555
O8_7 C7_8 1_555 1_555
O11_6 C7_8 1_555 1_555
O13_4 C12_15 1_555 1_555
N1_15 C1_8 1_555 1_555
C1_8 C2_8 1_555 1_555
C2_8 H1_8 1_555 1_555
C3_8 C2_8 1_555 1_555
H2_8 C3_8 1_555 1_555
C4_8 C3_8 1_555 1_555
C5_8 C4_8 1_555 1_555
H3_8 C5_8 1_555 1_555
C6_8 C1_8 1_555 1_555
H4_8 C6_8 1_555 1_555
C7_8 C4_8 1_555 1_555
C8_15 N1_15 1_555 1_555
C9_8 C8_15 1_555 1_555
H5_8 C9_8 1_555 1_555
C10_8 C9_8 1_555 1_555
H6_8 C10_8 1_555 1_555
C11_15 C10_8 1_555 1_555
C12_15 C11_15 1_555 1_555
O10_5 C19_8 1_555 1_555
C13_8 N1_15 1_555 1_555
C14_8 C13_8 1_555 1_555
H7_8 C14_8 1_555 1_555
C15_8 C14_8 1_555 1_555
H8_8 C15_8 1_555 1_555
C16_8 C15_8 1_555 1_555
C17_8 C16_8 1_555 1_555
H9_8 C17_8 1_555 1_555
C18_8 C13_8 1_555 1_555
H10_8 C18_8 1_555 1_555
C19_8 C16_8 1_555 1_555
O13_9 C12_15 1_555 1_555
C20_8 C8_15 1_555 1_555
H11_8 C20_8 1_555 1_555
C21_8 C11_15 1_555 1_555
H12_8 C21_8 1_555 1_555
O8_5 C19_8 1_555 1_555
C5_8 C6_8 1_555 1_555
C17_8 C18_8 1_555 1_555
C20_8 C21_8 1_555 1_555
O13_6 C12_16 1_555 1_555
C2_9 H1_9 1_555 1_555
C3_9 C2_9 1_555 1_555
H2_9 C3_9 1_555 1_555
C9_9 C8_16 1_555 1_555
H5_9 C9_9 1_555 1_555
C10_9 C9_9 1_555 1_555
H6_9 C10_9 1_555 1_555
C11_16 C10_9 1_555 1_555
C12_16 C11_16 1_555 1_555
O13_7 C12_16 1_555 1_555
C20_9 C8_16 1_555 1_555
H11_9 C20_9 1_555 1_555
C21_9 C11_16 1_555 1_555
H12_9 C21_9 1_555 1_555
C20_9 C21_9 1_555 1_555
O8_8 C7_9 1_555 1_555
N1_16 C1_9 1_555 1_555
C5_9 C4_9 1_555 1_555
H3_9 C5_9 1_555 1_555
C6_9 C1_9 1_555 1_555
H4_9 C6_9 1_555 1_555
C7_9 C4_9 1_555 1_555
O10_4 C19_9 1_555 1_555
C13_9 N1_16 1_555 1_555
C14_9 C13_9 1_555 1_555
H7_9 C14_9 1_555 1_555
C15_9 C14_9 1_555 1_555
H8_9 C15_9 1_555 1_555
C16_9 C15_9 1_555 1_555
C17_9 C16_9 1_555 1_555
H9_9 C17_9 1_555 1_555
C18_9 C13_9 1_555 1_555
H10_9 C18_9 1_555 1_555
C19_9 C16_9 1_555 1_555
O8_4 C19_9 1_555 1_555
C5_9 C6_9 1_555 1_555
C17_9 C18_9 1_555 1_555

#END
