
###############################################################################
#
# This file contains modified crystal structure data generated from the
# MOF subset of the Cambridge Structural Database (CSD) v543 
# hosted by the Cambridge Crystallographic Data Centre (CCDC).
#
# This work is licensed under the Creative Commons
# Attribution-NonCommercial-ShareAlike 4.0 International License.
# To view a copy of this license, visit
# http://creativecommons.org/licenses/by-nc-sa/4.0/
# or send a letter to
# Creative Commons, PO Box 1866, Mountain View, CA 94042, USA.
#
# CIF created using the CSD Python API on 29 September 2022
# The structure has been converted into the P1 space group
# The structure has a 3D framework
# The original CSD entry RUYTUC is in the rhombohedral crystal system
# The original CSD entry RUYTUC is in a Sohncke space group
# The framework has been calculated to contain at least 10.0% void space
# The void calculation uses a probe of radius 1.32A, grid spacing 0.4
# H atom positions have been added when not included in the experimental data
# Generated hydrogen atom positions removed from atoms on special positions
#
###############################################################################

data_RUYTUC
_chemical_formula_moiety         '(C195 H144 La16 N11 O70)n'
_symmetry_cell_setting           triclinic
_symmetry_space_group_name_H-M   'P 1'
_symmetry_Int_Tables_number      1
_space_group_name_Hall           'P 1'
loop_
_symmetry_equiv_pos_site_id
_symmetry_equiv_pos_as_xyz
1 x,y,z
_cell_length_a                   24.1719(12)
_cell_length_b                   24.1719(12)
_cell_length_c                   13.0110(12)
_cell_angle_alpha                90
_cell_angle_beta                 90
_cell_angle_gamma                120
_cell_volume                     6583.59
loop_
_atom_site_label
_atom_site_type_symbol
_atom_site_fract_x
_atom_site_fract_y
_atom_site_fract_z
La1 La 0.6667 0.01807(3) 0.3333
O2 O 0.6178(3) 0.0196(3) 0.1636(4)
O3 O 0.3219(3) 0.2320(3) 0.2490(5)
O4 O 0.6667 0.1231(4) 0.3333
C2 C 0.4479(3) 0.0276(2) 0.1917(4)
H1 H 0.4473 0.0615 0.2243
C3 C 0.5051(2) 0.0277(2) 0.1808(4)
H2 H 0.5428 0.0617 0.2062
C8 C 0.3333 0.0342(5) 0.1667
C9 C 0.3660(4) 0.0813(4) 0.0907(6)
H5 H 0.3890 0.0742 0.0403
C10 C 0.3645(4) 0.1375(4) 0.0895(6)
H6 H 0.3846 0.1665 0.0365
C11 C 0.3333 0.1514(5) 0.1667
C12 C 0.3333 0.2130(5) 0.1667
C20 C 0.3007(4) 0.0486(6) 0.2426(6)
H11 H 0.2777 0.0185 0.2930
O6 O 0.3448(3) 0.2434(4) 0.0843(5)
C21 C 0.3022(4) 0.1063(6) 0.2438(6)
H12 H 0.2821 0.1152 0.2968
La3 La 0.35137(3) 0.3333 0.3333
La4 La 0.68474(3) 0.0000 0.0000
La5 La 0.31530(3) 0.31526(3) 0.0000
O12 O 0.7155(3) 0.0685(4) 0.5031(4)
O13 O 0.7680(3) 0.0899(4) 0.2490(5)
La4_2 La 0.68474(3) 0.0000 1.0000
La5_2 La 0.31530(3) 0.31526(3) 1.0000
O1 O 0.5691(4) 0.9381(3) 0.0578(4)
N1 N 0.3333 0.9755(4) 0.1667
C1 C 0.3916(2) 0.9768(2) 0.1538(4)
C4 C 0.50610(18) 0.9770(2) 0.1321(4)
C5 C 0.4498(2) 0.9262(2) 0.0942(4)
H3 H 0.4504 0.8923 0.0616
C6 C 0.39253(19) 0.9261(2) 0.1051(4)
H4 H 0.3549 0.8921 0.0797
C7 C 0.5669(4) 0.9747(5) 0.1200(6)
O5 O 0.0489(3) 0.7351(4) 0.1697(4)
C13 C 0.2751(2) 0.9185(3) 0.1795(4)
C14 C 0.2188(3) 0.9130(4) 0.1416(4)
H7 H 0.2194 0.9475 0.1090
C15 C 0.1616(2) 0.8559(3) 0.1525(4)
H8 H 0.1239 0.8522 0.1271
C16 C 0.16057(18) 0.80423(27) 0.2012(4)
C17 C 0.2169(2) 0.8097(3) 0.2391(4)
H9 H 0.2163 0.7752 0.2717
C18 C 0.27414(19) 0.86690(28) 0.2282(4)
H10 H 0.3118 0.8705 0.2536
C19 C 0.0998(4) 0.7411(6) 0.2133(6)
O7 O 0.0976(4) 0.7023(5) 0.2755(4)
La4_3 La 0.68474(3) 1.0000 0.0000
La6 La -0.0000 0.68470(3) 0.0000
O8 O 0.7286(3) 0.9643(5) 0.3911(4)
O9 O 0.6048(3) 0.9024(4) 0.2755(4)
O10 O 0.6471(3) 0.9315(4) 0.4969(4)
O11 O 0.6863(3) 0.9511(3) 0.1697(4)
O14 O 0.5653(3) 0.9886(3) 0.4177(5)
La4_4 La 0.68474(3) 1.0000 1.0000
La6_2 La -0.0000 0.68470(3) 1.0000
La2 La 0.98193(3) 0.64863(3) 0.3333
La6_3 La 1.0000 0.68470(3) 0.0000
La6_4 La 1.0000 0.68470(3) 1.0000
O1_2 O 0.0619(3) 0.6310(5) 0.0578(4)
N1_2 N 0.0245(4) 0.3578(4) 0.1667
C1_2 C 0.0232(2) 0.4148(3) 0.1538(4)
C4_2 C 0.0230(2) 0.52910(27) 0.1321(4)
C5_2 C 0.0738(2) 0.5236(3) 0.0942(4)
H3_2 H 0.1077 0.5581 0.0616
C6_2 C 0.0739(2) 0.46643(28) 0.1051(4)
H4_2 H 0.1079 0.4628 0.0797
C7_2 C 0.0253(5) 0.5922(6) 0.1200(6)
O5_2 O 0.2649(4) 0.3137(5) 0.1697(4)
C13_2 C 0.0815(3) 0.3565(4) 0.1795(4)
C14_2 C 0.0870(4) 0.3057(5) 0.1416(4)
H7_2 H 0.0525 0.2718 0.1090
C15_2 C 0.1441(3) 0.3056(4) 0.1525(4)
H8_2 H 0.1478 0.2716 0.1271
C16_2 C 0.19577(27) 0.35633(32) 0.2012(4)
C17_2 C 0.1903(3) 0.4071(4) 0.2391(4)
H9_2 H 0.2248 0.4410 0.2717
C18_2 C 0.13310(28) 0.40723(34) 0.2282(4)
H10_2 H 0.1295 0.4412 0.2536
C19_2 C 0.2589(6) 0.3586(7) 0.2133(6)
O7_2 O 0.2977(5) 0.3952(6) 0.2755(4)
O8_2 O 0.0357(5) 0.7642(6) 0.3911(4)
O10_2 O 0.0685(4) 0.7155(5) 0.4969(4)
O14_2 O 0.0114(3) 0.5768(4) 0.4177(5)
O2_2 O 0.9804(3) 0.5982(4) 0.1636(4)
O4_2 O 0.8769(4) 0.5436(4) 0.3333
C2_2 C 0.9724(2) 0.4203(4) 0.1917(4)
H1_2 H 0.9385 0.3858 0.2243
C3_2 C 0.9723(2) 0.4774(3) 0.1808(4)
H2_2 H 0.9383 0.4811 0.2062
C8_2 C 0.9658(5) 0.2991(5) 0.1667
C9_2 C 0.9187(4) 0.2847(6) 0.0907(6)
H5_2 H 0.9258 0.3148 0.0403
C10_2 C 0.8625(4) 0.2270(6) 0.0895(6)
H6_2 H 0.8335 0.2181 0.0365
C11_2 C 0.8486(5) 0.1819(5) 0.1667
C12_2 C 0.7870(5) 0.1203(5) 0.1667
C20_2 C 0.9514(6) 0.2520(7) 0.2426(6)
H11_2 H 0.9815 0.2591 0.2930
O6_2 O 0.7566(4) 0.1013(5) 0.0843(5)
C21_2 C 0.8937(6) 0.1958(7) 0.2438(6)
H12_2 H 0.8848 0.1668 0.2968
O12_2 O 0.9315(4) 0.6471(5) 0.5031(4)
O13_2 O 0.9101(4) 0.6781(5) 0.2490(5)
O1_3 O 0.3690(5) 0.4309(4) 0.0578(4)
O2_3 O 0.4018(4) 0.3822(3) 0.1636(4)
O4_3 O 0.4564(4) 0.3333 0.3333
N1_3 N 0.6422(4) 0.6667 0.1667
C1_3 C 0.5852(3) 0.6084(2) 0.1538(4)
C2_3 C 0.5797(4) 0.5521(3) 0.1917(4)
H1_3 H 0.6142 0.5527 0.2243
C3_3 C 0.5226(3) 0.4949(2) 0.1808(4)
H2_3 H 0.5189 0.4572 0.2062
C4_3 C 0.47090(27) 0.49390(18) 0.1321(4)
C5_3 C 0.4764(3) 0.5502(2) 0.0942(4)
H3_3 H 0.4419 0.5496 0.0616
C6_3 C 0.53357(28) 0.60747(19) 0.1051(4)
H4_3 H 0.5372 0.6451 0.0797
C7_3 C 0.4078(6) 0.4331(4) 0.1200(6)
C8_3 C 0.7009(5) 0.6667 0.1667
C9_3 C 0.7153(6) 0.6340(4) 0.0907(6)
H5_3 H 0.6852 0.6110 0.0403
C10_3 C 0.7730(6) 0.6355(4) 0.0895(6)
H6_3 H 0.7819 0.6154 0.0365
C11_3 C 0.8181(5) 0.6667 0.1667
C12_3 C 0.8797(5) 0.6667 0.1667
C13_3 C 0.6435(4) 0.7249(2) 0.1795(4)
C14_3 C 0.6943(5) 0.7812(3) 0.1416(4)
H7_3 H 0.7282 0.7806 0.1090
C15_3 C 0.6944(4) 0.8384(2) 0.1525(4)
H8_3 H 0.7284 0.8761 0.1271
C16_3 C 0.64367(32) 0.83943(18) 0.2012(4)
C17_3 C 0.5929(4) 0.7831(2) 0.2391(4)
H9_3 H 0.5590 0.7837 0.2717
C18_3 C 0.59277(34) 0.72586(19) 0.2282(4)
H10_3 H 0.5588 0.6882 0.2536
C19_3 C 0.6414(7) 0.9002(4) 0.2133(6)
C20_3 C 0.7480(7) 0.6993(4) 0.2426(6)
H11_3 H 0.7409 0.7223 0.2930
O6_3 O 0.8987(5) 0.6552(3) 0.0843(5)
C21_3 C 0.8042(7) 0.6978(4) 0.2438(6)
H12_3 H 0.8332 0.7179 0.2968
O8_3 O 0.2358(6) 0.2714(3) 0.3911(4)
O10_3 O 0.2845(5) 0.3529(3) 0.4969(4)
O12_3 O 0.3529(5) 0.2845(3) 0.5031(4)
O14_3 O 0.4232(4) 0.4347(3) 0.4177(5)
La1_2 La 0.01807(3) 0.6667 0.6667
O2_4 O 0.0196(3) 0.6178(3) 0.8364(4)
O3_2 O 0.2320(3) 0.3219(3) 0.7510(5)
O4_4 O 0.1231(4) 0.6667 0.6667
C2_4 C 0.0276(2) 0.4479(3) 0.8083(4)
H1_4 H 0.0615 0.4473 0.7757
C3_4 C 0.0277(2) 0.5051(2) 0.8192(4)
H2_4 H 0.0617 0.5428 0.7938
C8_4 C 0.0342(5) 0.3333 0.8333
C9_4 C 0.0813(4) 0.3660(4) 0.9093(6)
H5_4 H 0.0742 0.3890 0.9597
C10_4 C 0.1375(4) 0.3645(4) 0.9105(6)
H6_4 H 0.1665 0.3846 0.9635
C11_4 C 0.1514(5) 0.3333 0.8333
C12_4 C 0.2130(5) 0.3333 0.8333
C20_4 C 0.0486(6) 0.3007(4) 0.7574(6)
H11_4 H 0.0185 0.2777 0.7070
O6_4 O 0.2434(4) 0.3448(3) 0.9157(5)
C21_4 C 0.1063(6) 0.3022(4) 0.7562(6)
H12_4 H 0.1152 0.2821 0.7032
La3_2 La 0.3333 0.35137(3) 0.6667
O13_3 O 0.0899(4) 0.7680(3) 0.7510(5)
O1_4 O 0.9381(3) 0.5691(4) 0.9422(4)
N1_4 N 0.9755(4) 0.3333 0.8333
C1_4 C 0.9768(2) 0.3916(2) 0.8462(4)
C4_4 C 0.9770(2) 0.50610(18) 0.8679(4)
C5_4 C 0.9262(2) 0.4498(2) 0.9058(4)
H3_4 H 0.8923 0.4504 0.9384
C6_4 C 0.9261(2) 0.39253(19) 0.8949(4)
H4_4 H 0.8921 0.3549 0.9203
C7_4 C 0.9747(5) 0.5669(4) 0.8800(6)
O5_3 O 0.7351(4) 0.0489(3) 0.8303(4)
C13_4 C 0.9185(3) 0.2751(2) 0.8205(4)
C14_4 C 0.9130(4) 0.2188(3) 0.8584(4)
H7_4 H 0.9475 0.2194 0.8910
C15_4 C 0.8559(3) 0.1616(2) 0.8475(4)
H8_4 H 0.8522 0.1239 0.8729
C16_4 C 0.80423(27) 0.16057(18) 0.7988(4)
C17_4 C 0.8097(3) 0.2169(2) 0.7609(4)
H9_4 H 0.7752 0.2163 0.7283
C18_4 C 0.86690(28) 0.27414(19) 0.7718(4)
H10_4 H 0.8705 0.3118 0.7464
C19_4 C 0.7411(6) 0.0998(4) 0.7867(6)
O7_3 O 0.7023(5) 0.0976(4) 0.7245(4)
O8_4 O 0.9643(5) 0.7286(3) 0.6089(4)
O9_2 O 0.9024(4) 0.6048(3) 0.7245(4)
O11_2 O 0.9511(3) 0.6863(3) 0.8303(4)
O14_4 O 0.9886(3) 0.5653(3) 0.5823(5)
La2_2 La 0.64863(3) 0.98193(3) 0.6667
O1_5 O 0.6310(5) 0.0619(3) 0.9422(4)
N1_5 N 0.3578(4) 0.0245(4) 0.8333
C1_5 C 0.4148(3) 0.0232(2) 0.8462(4)
C4_5 C 0.52910(27) 0.0230(2) 0.8679(4)
C5_5 C 0.5236(3) 0.0738(2) 0.9058(4)
H3_5 H 0.5581 0.1077 0.9384
C6_5 C 0.46643(28) 0.0739(2) 0.8949(4)
H4_5 H 0.4628 0.1079 0.9203
C7_5 C 0.5922(6) 0.0253(5) 0.8800(6)
O5_4 O 0.3137(5) 0.2649(4) 0.8303(4)
C13_5 C 0.3565(4) 0.0815(3) 0.8205(4)
C14_5 C 0.3057(5) 0.0870(4) 0.8584(4)
H7_5 H 0.2718 0.0525 0.8910
C15_5 C 0.3056(4) 0.1441(3) 0.8475(4)
H8_5 H 0.2716 0.1478 0.8729
C16_5 C 0.35633(32) 0.19577(27) 0.7988(4)
C17_5 C 0.4071(4) 0.1903(3) 0.7609(4)
H9_5 H 0.4410 0.2248 0.7283
C18_5 C 0.40723(34) 0.13310(28) 0.7718(4)
H10_5 H 0.4412 0.1295 0.7464
C19_5 C 0.3586(7) 0.2589(6) 0.7867(6)
O7_4 O 0.3952(6) 0.2977(5) 0.7245(4)
O8_5 O 0.7642(6) 0.0357(5) 0.6089(4)
O14_5 O 0.5768(4) 0.0114(3) 0.5823(5)
O2_5 O 0.5982(4) 0.9804(3) 0.8364(4)
O4_5 O 0.5436(4) 0.8769(4) 0.6667
C2_5 C 0.4203(4) 0.9724(2) 0.8083(4)
H1_5 H 0.3858 0.9385 0.7757
C3_5 C 0.4774(3) 0.9723(2) 0.8192(4)
H2_5 H 0.4811 0.9383 0.7938
C8_5 C 0.2991(5) 0.9658(5) 0.8333
C9_5 C 0.2847(6) 0.9187(4) 0.9093(6)
H5_5 H 0.3148 0.9258 0.9597
C10_5 C 0.2270(6) 0.8625(4) 0.9105(6)
H6_5 H 0.2181 0.8335 0.9635
C11_5 C 0.1819(5) 0.8486(5) 0.8333
C12_5 C 0.1203(5) 0.7870(5) 0.8333
C20_5 C 0.2520(7) 0.9514(6) 0.7574(6)
H11_5 H 0.2591 0.9815 0.7070
O6_5 O 0.1013(5) 0.7566(4) 0.9157(5)
C21_5 C 0.1958(7) 0.8937(6) 0.7562(6)
H12_5 H 0.1668 0.8848 0.7032
O13_4 O 0.6781(5) 0.9101(4) 0.7510(5)
O1_6 O 0.4309(4) 0.3690(5) 0.9422(4)
O2_6 O 0.3822(3) 0.4018(4) 0.8364(4)
O4_6 O 0.3333 0.4564(4) 0.6667
N1_6 N 0.6667 0.6422(4) 0.8333
C1_6 C 0.6084(2) 0.5852(3) 0.8462(4)
C2_6 C 0.5521(3) 0.5797(4) 0.8083(4)
H1_6 H 0.5527 0.6142 0.7757
C3_6 C 0.4949(2) 0.5226(3) 0.8192(4)
H2_6 H 0.4572 0.5189 0.7938
C4_6 C 0.49390(18) 0.47090(27) 0.8679(4)
C5_6 C 0.5502(2) 0.4764(3) 0.9058(4)
H3_6 H 0.5496 0.4419 0.9384
C6_6 C 0.60747(19) 0.53357(28) 0.8949(4)
H4_6 H 0.6451 0.5372 0.9203
C7_6 C 0.4331(4) 0.4078(6) 0.8800(6)
C8_6 C 0.6667 0.7009(5) 0.8333
C9_6 C 0.6340(4) 0.7153(6) 0.9093(6)
H5_6 H 0.6110 0.6852 0.9597
C10_6 C 0.6355(4) 0.7730(6) 0.9105(6)
H6_6 H 0.6154 0.7819 0.9635
C11_6 C 0.6667 0.8181(5) 0.8333
C12_6 C 0.6667 0.8797(5) 0.8333
C13_6 C 0.7249(2) 0.6435(4) 0.8205(4)
C14_6 C 0.7812(3) 0.6943(5) 0.8584(4)
H7_6 H 0.7806 0.7282 0.8910
C15_6 C 0.8384(2) 0.6944(4) 0.8475(4)
H8_6 H 0.8761 0.7284 0.8729
C16_6 C 0.83943(18) 0.64367(32) 0.7988(4)
C17_6 C 0.7831(2) 0.5929(4) 0.7609(4)
H9_6 H 0.7837 0.5590 0.7283
C18_6 C 0.72586(19) 0.59277(34) 0.7718(4)
H10_6 H 0.6882 0.5588 0.7464
C19_6 C 0.9002(4) 0.6414(7) 0.7867(6)
C20_6 C 0.6993(4) 0.7480(7) 0.7574(6)
H11_6 H 0.7223 0.7409 0.7070
O6_6 O 0.6552(3) 0.8987(5) 0.9157(5)
C21_6 C 0.6978(4) 0.8042(7) 0.7562(6)
H12_6 H 0.7179 0.8332 0.7032
O8_6 O 0.2714(3) 0.2358(6) 0.6089(4)
O14_6 O 0.4347(3) 0.4232(4) 0.5823(5)
N1_7 N -0.0000 0.3088(4) 0.5000
C1_7 C 0.0583(2) 0.3101(2) 0.4871(4)
C2_7 C 0.1146(3) 0.3609(2) 0.5250(4)
H1_7 H 0.1140 0.3948 0.5576
C3_7 C 0.1718(2) 0.3610(2) 0.5141(4)
H2_7 H 0.2095 0.3950 0.5395
C4_7 C 0.17277(18) 0.3103(2) 0.4654(4)
C5_7 C 0.1165(2) 0.2595(2) 0.4275(4)
H3_7 H 0.1171 0.2256 0.3949
C6_7 C 0.05920(19) 0.2594(2) 0.4384(4)
H4_7 H 0.0216 0.2254 0.4130
C7_7 C 0.2336(4) 0.3080(5) 0.4533(6)
C8_7 C -0.0000 0.3675(5) 0.5000
C9_7 C 0.0327(4) 0.4146(4) 0.4240(6)
H5_7 H 0.0557 0.4075 0.3736
C10_7 C 0.0312(4) 0.4708(4) 0.4228(6)
H6_7 H 0.0513 0.4998 0.3698
C11_7 C -0.0000 0.4847(5) 0.5000
C12_7 C -0.0000 0.5463(5) 0.5000
N1_8 N 1.0000 0.3088(4) 0.5000
C8_8 C 1.0000 0.3675(5) 0.5000
C11_8 C 1.0000 0.4847(5) 0.5000
C12_8 C 1.0000 0.5463(5) 0.5000
C13_7 C 0.9417(2) 0.2519(3) 0.5129(4)
C14_7 C 0.8854(3) 0.2464(4) 0.4750(4)
H7_7 H 0.8860 0.2809 0.4424
C15_7 C 0.8282(2) 0.1893(3) 0.4859(4)
H8_7 H 0.7905 0.1856 0.4605
C16_7 C 0.82723(18) 0.13757(27) 0.5346(4)
C17_7 C 0.8835(2) 0.1431(3) 0.5725(4)
H9_7 H 0.8829 0.1086 0.6051
C18_7 C 0.94080(19) 0.20024(28) 0.5616(4)
H10_7 H 0.9784 0.2039 0.5870
C19_7 C 0.7664(4) 0.0745(6) 0.5467(6)
C20_7 C 0.9673(4) 0.3820(6) 0.5760(6)
H11_7 H 0.9443 0.3519 0.6264
C21_7 C 0.9688(4) 0.4397(6) 0.5772(6)
H12_7 H 0.9487 0.4486 0.6302
N1_9 N 0.6912(4) 0.6911(4) 0.5000
C1_8 C 0.6899(2) 0.7481(3) 0.4871(4)
C2_8 C 0.6391(2) 0.7536(4) 0.5250(4)
H1_8 H 0.6052 0.7191 0.5576
C3_8 C 0.6390(2) 0.8107(3) 0.5141(4)
H2_8 H 0.6050 0.8144 0.5395
C4_8 C 0.6897(2) 0.86243(27) 0.4654(4)
C5_8 C 0.7405(2) 0.8569(3) 0.4275(4)
H3_8 H 0.7744 0.8914 0.3949
C6_8 C 0.7406(2) 0.79976(28) 0.4384(4)
H4_8 H 0.7746 0.7961 0.4130
C7_8 C 0.6920(5) 0.9255(6) 0.4533(6)
C8_9 C 0.6325(5) 0.6324(5) 0.5000
C9_8 C 0.5854(4) 0.6180(6) 0.4240(6)
H5_8 H 0.5925 0.6481 0.3736
C10_8 C 0.5292(4) 0.5603(6) 0.4228(6)
H6_8 H 0.5002 0.5514 0.3698
C11_9 C 0.5153(5) 0.5152(5) 0.5000
C12_9 C 0.4537(5) 0.4536(5) 0.5000
C13_8 C 0.7481(3) 0.6899(4) 0.5129(4)
C14_8 C 0.7536(4) 0.6391(5) 0.4750(4)
H7_8 H 0.7191 0.6052 0.4424
C15_8 C 0.8107(3) 0.6390(4) 0.4859(4)
H8_8 H 0.8144 0.6050 0.4605
C16_8 C 0.86243(27) 0.68967(32) 0.5346(4)
C17_8 C 0.8569(3) 0.7405(4) 0.5725(4)
H9_8 H 0.8914 0.7744 0.6051
C18_8 C 0.79976(28) 0.74057(34) 0.5616(4)
H10_8 H 0.7961 0.7746 0.5870
C19_8 C 0.9255(6) 0.6920(7) 0.5467(6)
C20_8 C 0.6180(6) 0.5854(7) 0.5760(6)
H11_8 H 0.6481 0.5925 0.6264
C21_8 C 0.5603(6) 0.5292(7) 0.5772(6)
H12_8 H 0.5514 0.5002 0.6302
N1_10 N 0.3089(4) 0.0000 0.5000
C8_10 C 0.3676(5) 0.0000 0.5000
C11_10 C 0.4848(5) 0.0000 0.5000
C12_10 C 0.5464(5) 0.0000 0.5000
C13_9 C 0.3101(4) 0.0583(2) 0.5129(4)
C14_9 C 0.3609(5) 0.1146(3) 0.4750(4)
H7_9 H 0.3948 0.1140 0.4424
C15_9 C 0.3610(4) 0.1718(2) 0.4859(4)
H8_9 H 0.3950 0.2095 0.4605
C16_9 C 0.31033(32) 0.17277(18) 0.5346(4)
C17_9 C 0.2595(4) 0.1165(2) 0.5725(4)
H9_9 H 0.2256 0.1171 0.6051
C18_9 C 0.25943(34) 0.05920(19) 0.5616(4)
H10_9 H 0.2254 0.0216 0.5870
C19_9 C 0.3080(7) 0.2336(4) 0.5467(6)
C20_9 C 0.4146(7) 0.0327(4) 0.5760(6)
H11_9 H 0.4075 0.0557 0.6264
C21_9 C 0.4708(7) 0.0312(4) 0.5772(6)
H12_9 H 0.4998 0.0513 0.6302
N1_11 N 0.3089(4) 1.0000 0.5000
C1_9 C 0.2519(3) 0.9417(2) 0.4871(4)
C2_9 C 0.2464(4) 0.8854(3) 0.5250(4)
H1_9 H 0.2809 0.8860 0.5576
C3_9 C 0.1893(3) 0.8282(2) 0.5141(4)
H2_9 H 0.1856 0.7905 0.5395
C4_9 C 0.13757(27) 0.82723(18) 0.4654(4)
C5_9 C 0.1431(3) 0.8835(2) 0.4275(4)
H3_9 H 0.1086 0.8829 0.3949
C6_9 C 0.20024(28) 0.94080(19) 0.4384(4)
H4_9 H 0.2039 0.9784 0.4130
C7_9 C 0.0745(6) 0.7664(4) 0.4533(6)
C8_11 C 0.3676(5) 1.0000 0.5000
C9_9 C 0.3820(6) 0.9673(4) 0.4240(6)
H5_9 H 0.3519 0.9443 0.3736
C10_9 C 0.4397(6) 0.9688(4) 0.4228(6)
H6_9 H 0.4486 0.9487 0.3698
C11_11 C 0.4848(5) 1.0000 0.5000
C12_11 C 0.5464(5) 1.0000 0.5000
O4_7 O 0.7898(4) 0.0000 0.0000
O4_8 O 0.7898(4) 0.0000 1.0000
H14 H 0.812866 0.0188443 0.934753
O4_9 O 0.7898(4) 1.0000 0.0000
H13 H 0.781188 0.955489 0.00646331
O4_10 O 0.7898(4) 1.0000 1.0000
O4_11 O 0.2103(4) 0.2102(4) 0.0000
H13_2 H 0.174301 0.218812 0.00646331
O4_12 O 0.2103(4) 0.2102(4) 1.0000
H14_2 H 0.205979 0.187134 0.934753
O4_13 O -0.0000 0.7897(4) 0.0000
H13_3 H 0.0445108 0.825699 0.00646331
O4_14 O -0.0000 0.7897(4) 1.0000
O4_15 O 1.0000 0.7897(4) 0.0000
O4_16 O 1.0000 0.7897(4) 1.0000
H14_3 H 0.981156 0.794021 0.934753
H14_4 H 0.0188443 0.812866 0.0652474
H13_4 H 0.955489 0.781188 0.993537
H14_5 H 0.187134 0.205979 0.0652474
H13_5 H 0.218812 0.174301 0.993537
H13_6 H 0.825699 0.0445108 0.993537
H14_6 H 0.794021 0.981156 0.0652474
loop_
_geom_bond_atom_site_label_1
_geom_bond_atom_site_label_2
_geom_bond_site_symmetry_1
_geom_bond_site_symmetry_2
La1 O2 1_555 1_555
O3 C12 1_555 1_555
O4 La1 1_555 1_555
C2 H1 1_555 1_555
C3 C2 1_555 1_555
H2 C3 1_555 1_555
C9 C8 1_555 1_555
H5 C9 1_555 1_555
C10 C9 1_555 1_555
H6 C10 1_555 1_555
C11 C10 1_555 1_555
C12 C11 1_555 1_555
C20 C8 1_555 1_555
H11 C20 1_555 1_555
O6 C12 1_555 1_555
C21 C11 1_555 1_555
H12 C21 1_555 1_555
La3 O3 1_555 1_555
La5 O6 1_555 1_555
O12 La1 1_555 1_555
O13 La1 1_555 1_555
O2 La4 1_555 1_555
C20 C21 1_555 1_555
O1 C7 1_555 1_555
N1 C1 1_555 1_555
C5 C4 1_555 1_555
H3 C5 1_555 1_555
C6 C1 1_555 1_555
H4 C6 1_555 1_555
C7 C4 1_555 1_555
O5 C19 1_555 1_555
C13 N1 1_555 1_555
C14 C13 1_555 1_555
H7 C14 1_555 1_555
C15 C14 1_555 1_555
H8 C15 1_555 1_555
C16 C15 1_555 1_555
C17 C16 1_555 1_555
H9 C17 1_555 1_555
C18 C13 1_555 1_555
H10 C18 1_555 1_555
C19 C16 1_555 1_555
O7 C19 1_555 1_555
La4_3 O1 1_555 1_555
La6 O5 1_555 1_555
C5 C6 1_555 1_555
C17 C18 1_555 1_555
La4_3 O11 1_555 1_555
O1_2 C7_2 1_555 1_555
N1_2 C1_2 1_555 1_555
C5_2 C4_2 1_555 1_555
H3_2 C5_2 1_555 1_555
C6_2 C1_2 1_555 1_555
H4_2 C6_2 1_555 1_555
C7_2 C4_2 1_555 1_555
O5_2 C19_2 1_555 1_555
C13_2 N1_2 1_555 1_555
C14_2 C13_2 1_555 1_555
H7_2 C14_2 1_555 1_555
C15_2 C14_2 1_555 1_555
H8_2 C15_2 1_555 1_555
C16_2 C15_2 1_555 1_555
C17_2 C16_2 1_555 1_555
H9_2 C17_2 1_555 1_555
C18_2 C13_2 1_555 1_555
H10_2 C18_2 1_555 1_555
C19_2 C16_2 1_555 1_555
O7_2 C19_2 1_555 1_555
La3 O5_2 1_555 1_555
La6 O1_2 1_555 1_555
La5 O5_2 1_555 1_555
C5_2 C6_2 1_555 1_555
C17_2 C18_2 1_555 1_555
O7_2 La3 1_555 1_555
La2 O2_2 1_555 1_555
O13 C12_2 1_555 1_555
O4_2 La2 1_555 1_555
C2_2 H1_2 1_555 1_555
C3_2 C2_2 1_555 1_555
H2_2 C3_2 1_555 1_555
C9_2 C8_2 1_555 1_555
H5_2 C9_2 1_555 1_555
C10_2 C9_2 1_555 1_555
H6_2 C10_2 1_555 1_555
C11_2 C10_2 1_555 1_555
C12_2 C11_2 1_555 1_555
C20_2 C8_2 1_555 1_555
H11_2 C20_2 1_555 1_555
O6_2 C12_2 1_555 1_555
C21_2 C11_2 1_555 1_555
H12_2 C21_2 1_555 1_555
La4 O6_2 1_555 1_555
O12_2 La2 1_555 1_555
O13_2 La2 1_555 1_555
O2_2 La6_3 1_555 1_555
C20_2 C21_2 1_555 1_555
La3 O2_3 1_555 1_555
O1_3 C7_3 1_555 1_555
O2_3 C7_3 1_555 1_555
O13_2 C12_3 1_555 1_555
O4_3 La3 1_555 1_555
N1_3 C1_3 1_555 1_555
C1_3 C2_3 1_555 1_555
C2_3 H1_3 1_555 1_555
C3_3 C2_3 1_555 1_555
H2_3 C3_3 1_555 1_555
C4_3 C3_3 1_555 1_555
C5_3 C4_3 1_555 1_555
H3_3 C5_3 1_555 1_555
C6_3 C1_3 1_555 1_555
H4_3 C6_3 1_555 1_555
C7_3 C4_3 1_555 1_555
C8_3 N1_3 1_555 1_555
C9_3 C8_3 1_555 1_555
H5_3 C9_3 1_555 1_555
C10_3 C9_3 1_555 1_555
H6_3 C10_3 1_555 1_555
C11_3 C10_3 1_555 1_555
C12_3 C11_3 1_555 1_555
O11 C19_3 1_555 1_555
C13_3 N1_3 1_555 1_555
C14_3 C13_3 1_555 1_555
H7_3 C14_3 1_555 1_555
C15_3 C14_3 1_555 1_555
H8_3 C15_3 1_555 1_555
C16_3 C15_3 1_555 1_555
C17_3 C16_3 1_555 1_555
H9_3 C17_3 1_555 1_555
C18_3 C13_3 1_555 1_555
H10_3 C18_3 1_555 1_555
C19_3 C16_3 1_555 1_555
C20_3 C8_3 1_555 1_555
H11_3 C20_3 1_555 1_555
O6_3 C12_3 1_555 1_555
C21_3 C11_3 1_555 1_555
H12_3 C21_3 1_555 1_555
O9 C19_3 1_555 1_555
La5 O1_3 1_555 1_555
La6_3 O6_3 1_555 1_555
O8_3 La3 1_555 1_555
O10_3 La3 1_555 1_555
O12_3 La3 1_555 1_555
O14_3 La3 1_555 1_555
O2_3 La5 1_555 1_555
C5_3 C6_3 1_555 1_555
C17_3 C18_3 1_555 1_555
C20_3 C21_3 1_555 1_555
La1_2 O2_4 1_555 1_555
O3_2 C12_4 1_555 1_555
O4_4 La1_2 1_555 1_555
C2_4 H1_4 1_555 1_555
C3_4 C2_4 1_555 1_555
H2_4 C3_4 1_555 1_555
C9_4 C8_4 1_555 1_555
H5_4 C9_4 1_555 1_555
C10_4 C9_4 1_555 1_555
H6_4 C10_4 1_555 1_555
C11_4 C10_4 1_555 1_555
C12_4 C11_4 1_555 1_555
C20_4 C8_4 1_555 1_555
H11_4 C20_4 1_555 1_555
O6_4 C12_4 1_555 1_555
C21_4 C11_4 1_555 1_555
H12_4 C21_4 1_555 1_555
La3_2 O3_2 1_555 1_555
La5_2 O6_4 1_555 1_555
O10_2 La1_2 1_555 1_555
O13_3 La1_2 1_555 1_555
O2_4 La6_2 1_555 1_555
C20_4 C21_4 1_555 1_555
O1_4 C7_4 1_555 1_555
N1_4 C1_4 1_555 1_555
C5_4 C4_4 1_555 1_555
H3_4 C5_4 1_555 1_555
C6_4 C1_4 1_555 1_555
H4_4 C6_4 1_555 1_555
C7_4 C4_4 1_555 1_555
O5_3 C19_4 1_555 1_555
C13_4 N1_4 1_555 1_555
C14_4 C13_4 1_555 1_555
H7_4 C14_4 1_555 1_555
C15_4 C14_4 1_555 1_555
H8_4 C15_4 1_555 1_555
C16_4 C15_4 1_555 1_555
C17_4 C16_4 1_555 1_555
H9_4 C17_4 1_555 1_555
C18_4 C13_4 1_555 1_555
H10_4 C18_4 1_555 1_555
C19_4 C16_4 1_555 1_555
O7_3 C19_4 1_555 1_555
La6_4 O1_4 1_555 1_555
La4_2 O5_3 1_555 1_555
C5_4 C6_4 1_555 1_555
C17_4 C18_4 1_555 1_555
La6_4 O11_2 1_555 1_555
O1_5 C7_5 1_555 1_555
N1_5 C1_5 1_555 1_555
C5_5 C4_5 1_555 1_555
H3_5 C5_5 1_555 1_555
C6_5 C1_5 1_555 1_555
H4_5 C6_5 1_555 1_555
C7_5 C4_5 1_555 1_555
O5_4 C19_5 1_555 1_555
C13_5 N1_5 1_555 1_555
C14_5 C13_5 1_555 1_555
H7_5 C14_5 1_555 1_555
C15_5 C14_5 1_555 1_555
H8_5 C15_5 1_555 1_555
C16_5 C15_5 1_555 1_555
C17_5 C16_5 1_555 1_555
H9_5 C17_5 1_555 1_555
C18_5 C13_5 1_555 1_555
H10_5 C18_5 1_555 1_555
C19_5 C16_5 1_555 1_555
O7_4 C19_5 1_555 1_555
La3_2 O5_4 1_555 1_555
La4_2 O1_5 1_555 1_555
La5_2 O5_4 1_555 1_555
C5_5 C6_5 1_555 1_555
C17_5 C18_5 1_555 1_555
O7_4 La3_2 1_555 1_555
La2_2 O2_5 1_555 1_555
O13_3 C12_5 1_555 1_555
O4_5 La2_2 1_555 1_555
C2_5 H1_5 1_555 1_555
C3_5 C2_5 1_555 1_555
H2_5 C3_5 1_555 1_555
C9_5 C8_5 1_555 1_555
H5_5 C9_5 1_555 1_555
C10_5 C9_5 1_555 1_555
H6_5 C10_5 1_555 1_555
C11_5 C10_5 1_555 1_555
C12_5 C11_5 1_555 1_555
C20_5 C8_5 1_555 1_555
H11_5 C20_5 1_555 1_555
O6_5 C12_5 1_555 1_555
C21_5 C11_5 1_555 1_555
H12_5 C21_5 1_555 1_555
La6_2 O6_5 1_555 1_555
O10 La2_2 1_555 1_555
O13_4 La2_2 1_555 1_555
O2_5 La4_4 1_555 1_555
C20_5 C21_5 1_555 1_555
La3_2 O2_6 1_555 1_555
O1_6 C7_6 1_555 1_555
O2_6 C7_6 1_555 1_555
O13_4 C12_6 1_555 1_555
O4_6 La3_2 1_555 1_555
N1_6 C1_6 1_555 1_555
C1_6 C2_6 1_555 1_555
C2_6 H1_6 1_555 1_555
C3_6 C2_6 1_555 1_555
H2_6 C3_6 1_555 1_555
C4_6 C3_6 1_555 1_555
C5_6 C4_6 1_555 1_555
H3_6 C5_6 1_555 1_555
C6_6 C1_6 1_555 1_555
H4_6 C6_6 1_555 1_555
C7_6 C4_6 1_555 1_555
C8_6 N1_6 1_555 1_555
C9_6 C8_6 1_555 1_555
H5_6 C9_6 1_555 1_555
C10_6 C9_6 1_555 1_555
H6_6 C10_6 1_555 1_555
C11_6 C10_6 1_555 1_555
C12_6 C11_6 1_555 1_555
O11_2 C19_6 1_555 1_555
C13_6 N1_6 1_555 1_555
C14_6 C13_6 1_555 1_555
H7_6 C14_6 1_555 1_555
C15_6 C14_6 1_555 1_555
H8_6 C15_6 1_555 1_555
C16_6 C15_6 1_555 1_555
C17_6 C16_6 1_555 1_555
H9_6 C17_6 1_555 1_555
C18_6 C13_6 1_555 1_555
H10_6 C18_6 1_555 1_555
C19_6 C16_6 1_555 1_555
C20_6 C8_6 1_555 1_555
H11_6 C20_6 1_555 1_555
O6_6 C12_6 1_555 1_555
C21_6 C11_6 1_555 1_555
H12_6 C21_6 1_555 1_555
O9_2 C19_6 1_555 1_555
La5_2 O1_6 1_555 1_555
La4_4 O6_6 1_555 1_555
O8_6 La3_2 1_555 1_555
O12_3 La3_2 1_555 1_555
O10_3 La3_2 1_555 1_555
O14_6 La3_2 1_555 1_555
O2_6 La5_2 1_555 1_555
C5_6 C6_6 1_555 1_555
C17_6 C18_6 1_555 1_555
C20_6 C21_6 1_555 1_555
O8_3 C7_7 1_555 1_555
O10_3 C7_7 1_555 1_555
N1_7 C1_7 1_555 1_555
C1_7 C2_7 1_555 1_555
C2_7 H1_7 1_555 1_555
C3_7 C2_7 1_555 1_555
H2_7 C3_7 1_555 1_555
C4_7 C3_7 1_555 1_555
C5_7 C4_7 1_555 1_555
H3_7 C5_7 1_555 1_555
C6_7 C1_7 1_555 1_555
H4_7 C6_7 1_555 1_555
C7_7 C4_7 1_555 1_555
C8_7 N1_7 1_555 1_555
C9_7 C8_7 1_555 1_555
H5_7 C9_7 1_555 1_555
C10_7 C9_7 1_555 1_555
H6_7 C10_7 1_555 1_555
C11_7 C10_7 1_555 1_555
C12_7 C11_7 1_555 1_555
O14_2 C12_7 1_555 1_555
C5_7 C6_7 1_555 1_555
O14_4 C12_8 1_555 1_555
C8_8 N1_8 1_555 1_555
C12_8 C11_8 1_555 1_555
O12 C19_7 1_555 1_555
C13_7 N1_8 1_555 1_555
C14_7 C13_7 1_555 1_555
H7_7 C14_7 1_555 1_555
C15_7 C14_7 1_555 1_555
H8_7 C15_7 1_555 1_555
C16_7 C15_7 1_555 1_555
C17_7 C16_7 1_555 1_555
H9_7 C17_7 1_555 1_555
C18_7 C13_7 1_555 1_555
H10_7 C18_7 1_555 1_555
C19_7 C16_7 1_555 1_555
C20_7 C8_8 1_555 1_555
H11_7 C20_7 1_555 1_555
C21_7 C11_8 1_555 1_555
H12_7 C21_7 1_555 1_555
O8_5 C19_7 1_555 1_555
C17_7 C18_7 1_555 1_555
C20_7 C21_7 1_555 1_555
O8 C7_8 1_555 1_555
O10 C7_8 1_555 1_555
O14_6 C12_9 1_555 1_555
N1_9 C1_8 1_555 1_555
C1_8 C2_8 1_555 1_555
C2_8 H1_8 1_555 1_555
C3_8 C2_8 1_555 1_555
H2_8 C3_8 1_555 1_555
C4_8 C3_8 1_555 1_555
C5_8 C4_8 1_555 1_555
H3_8 C5_8 1_555 1_555
C6_8 C1_8 1_555 1_555
H4_8 C6_8 1_555 1_555
C7_8 C4_8 1_555 1_555
C8_9 N1_9 1_555 1_555
C9_8 C8_9 1_555 1_555
H5_8 C9_8 1_555 1_555
C10_8 C9_8 1_555 1_555
H6_8 C10_8 1_555 1_555
C11_9 C10_8 1_555 1_555
C12_9 C11_9 1_555 1_555
O12_2 C19_8 1_555 1_555
C13_8 N1_9 1_555 1_555
C14_8 C13_8 1_555 1_555
H7_8 C14_8 1_555 1_555
C15_8 C14_8 1_555 1_555
H8_8 C15_8 1_555 1_555
C16_8 C15_8 1_555 1_555
C17_8 C16_8 1_555 1_555
H9_8 C17_8 1_555 1_555
C18_8 C13_8 1_555 1_555
H10_8 C18_8 1_555 1_555
C19_8 C16_8 1_555 1_555
C20_8 C8_9 1_555 1_555
H11_8 C20_8 1_555 1_555
O14_3 C12_9 1_555 1_555
C21_8 C11_9 1_555 1_555
H12_8 C21_8 1_555 1_555
O8_4 C19_8 1_555 1_555
C5_8 C6_8 1_555 1_555
C17_8 C18_8 1_555 1_555
C20_8 C21_8 1_555 1_555
O14_5 C12_10 1_555 1_555
C8_10 N1_10 1_555 1_555
C12_10 C11_10 1_555 1_555
O12_3 C19_9 1_555 1_555
C13_9 N1_10 1_555 1_555
C14_9 C13_9 1_555 1_555
H7_9 C14_9 1_555 1_555
C15_9 C14_9 1_555 1_555
H8_9 C15_9 1_555 1_555
C16_9 C15_9 1_555 1_555
C17_9 C16_9 1_555 1_555
H9_9 C17_9 1_555 1_555
C18_9 C13_9 1_555 1_555
H10_9 C18_9 1_555 1_555
C19_9 C16_9 1_555 1_555
C20_9 C8_10 1_555 1_555
H11_9 C20_9 1_555 1_555
C21_9 C11_10 1_555 1_555
H12_9 C21_9 1_555 1_555
O8_6 C19_9 1_555 1_555
C17_9 C18_9 1_555 1_555
C20_9 C21_9 1_555 1_555
O8_2 C7_9 1_555 1_555
O10_2 C7_9 1_555 1_555
N1_11 C1_9 1_555 1_555
C1_9 C2_9 1_555 1_555
C2_9 H1_9 1_555 1_555
C3_9 C2_9 1_555 1_555
H2_9 C3_9 1_555 1_555
C4_9 C3_9 1_555 1_555
C5_9 C4_9 1_555 1_555
H3_9 C5_9 1_555 1_555
C6_9 C1_9 1_555 1_555
H4_9 C6_9 1_555 1_555
C7_9 C4_9 1_555 1_555
C8_11 N1_11 1_555 1_555
C9_9 C8_11 1_555 1_555
H5_9 C9_9 1_555 1_555
C10_9 C9_9 1_555 1_555
H6_9 C10_9 1_555 1_555
C11_11 C10_9 1_555 1_555
C12_11 C11_11 1_555 1_555
O14 C12_11 1_555 1_555
C5_9 C6_9 1_555 1_555
O4_7 La4 1_555 1_555
O4_8 La4_2 1_555 1_555
O4_8 H14 1_555 1_555
O4_9 La4_3 1_555 1_555
O4_9 H13 1_555 1_555
O4_10 La4_4 1_555 1_555
O4_11 La5 1_555 1_555
O4_11 H13_2 1_555 1_555
O4_12 La5_2 1_555 1_555
O4_12 H14_2 1_555 1_555
O4_13 La6 1_555 1_555
O4_13 H13_3 1_555 1_555
O4_14 La6_2 1_555 1_555
O4_15 La6_3 1_555 1_555
O4_16 La6_4 1_555 1_555
O4_16 H14_3 1_555 1_555
O4_13 H14_4 1_555 1_555
O4_16 H13_4 1_555 1_555
O4_11 H14_5 1_555 1_555
O4_12 H13_5 1_555 1_555
O4_8 H13_6 1_555 1_555
O4_9 H14_6 1_555 1_555

#END
