
###############################################################################
#
# This file contains modified crystal structure data generated from the
# MOF subset of the Cambridge Structural Database (CSD) v543 
# hosted by the Cambridge Crystallographic Data Centre (CCDC).
#
# This work is licensed under the Creative Commons
# Attribution-NonCommercial-ShareAlike 4.0 International License.
# To view a copy of this license, visit
# http://creativecommons.org/licenses/by-nc-sa/4.0/
# or send a letter to
# Creative Commons, PO Box 1866, Mountain View, CA 94042, USA.
#
# CIF created using the CSD Python API on 29 September 2022
# The structure has been converted into the P1 space group
# The structure has a 3D framework
# The original CSD entry RUYVAK is in the rhombohedral crystal system
# The original CSD entry RUYVAK is in a Sohncke space group
# The framework has been calculated to contain at least 10.0% void space
# The void calculation uses a probe of radius 1.32A, grid spacing 0.4
# H atom positions have been added when not included in the experimental data
# Generated hydrogen atom positions removed from atoms on special positions
#
###############################################################################

data_RUYVAK
_chemical_formula_moiety         '(C195 H144 Ce16 N11 O68)n'
_symmetry_cell_setting           triclinic
_symmetry_space_group_name_H-M   'P 1'
_symmetry_Int_Tables_number      1
_space_group_name_Hall           'P 1'
loop_
_symmetry_equiv_pos_site_id
_symmetry_equiv_pos_as_xyz
1 x,y,z
_cell_length_a                   24.1880(9)
_cell_length_b                   24.1880(9)
_cell_length_c                   13.1489(11)
_cell_angle_alpha                90
_cell_angle_beta                 90
_cell_angle_gamma                120
_cell_volume                     6662.24
loop_
_atom_site_label
_atom_site_type_symbol
_atom_site_fract_x
_atom_site_fract_y
_atom_site_fract_z
Ce1 Ce 0.68414(2) 0.0000 0.0000
O2 O 0.6175(3) 0.0203(3) 0.1672(4)
O3 O 0.3421(4) 0.2432(3) 0.0827(5)
O4 O 0.7859(4) 0.0000 0.0000
C2 C 0.5042(4) 0.0280(3) 0.1804(6)
H1 H 0.5416 0.0621 0.2057
C3 C 0.4480(4) 0.0292(4) 0.1926(7)
H2 H 0.4477 0.0630 0.2255
C8 C 0.3333(6) 0.0374(4) 0.1667
C9 C 0.3601(6) 0.0806(4) 0.0840(7)
H5 H 0.3798 0.0717 0.0308
C10 C 0.3568(6) 0.1352(4) 0.0833(7)
H6 H 0.3704 0.1613 0.0262
C11 C 0.3333(6) 0.1525(4) 0.1667
C12 C 0.3333(7) 0.2148(5) 0.1667
O6 O 0.3246(4) 0.2344(5) 0.2506(5)
C20 C 0.3066(6) 0.0538(7) 0.2493(7)
H11 H 0.2869 0.0252 0.3025
C21 C 0.3099(6) 0.1117(7) 0.2500(7)
H12 H 0.2963 0.1242 0.3071
Ce3 Ce 0.31586(2) 0.31586(2) 0.0000
Ce4 Ce 0.35081(2) 0.3333 0.3333
Ce5 Ce 0.6667 0.01747(2) 0.3333
O12 O 0.7568(3) 0.0989(5) 0.0827(5)
Ce1_2 Ce 0.68414(2) 0.0000 1.0000
O4_2 O 0.7859(4) 0.0000 1.0000
Ce3_2 Ce 0.31586(2) 0.31586(2) 1.0000
O8 O 0.6306(4) 0.0616(3) 0.9408(4)
O11 O 0.7361(4) 0.0492(3) 0.8339(4)
H14 H 0.818719 0.0382691 0.963222
Ce1_3 Ce 0.68414(2) 1.0000 0.0000
O1 O 0.5690(2) 0.9384(3) 0.0592(4)
O4_3 O 0.7859(4) 1.0000 0.0000
N1 N 0.3333 0.9769(4) 0.1667
C1 C 0.3918(4) 0.9783(4) 0.1541(5)
C4 C 0.5080(4) 0.9807(4) 0.1345(6)
C5 C 0.4518(4) 0.9301(4) 0.0941(6)
H3 H 0.4533 0.8973 0.0595
C6 C 0.3923(4) 0.9283(4) 0.1056(7)
H4 H 0.3548 0.8941 0.0808
C7 C 0.5669(4) 0.9782(4) 0.1191(7)
O5 O 0.0977(2) 0.7027(4) 0.2741(4)
C13 C 0.2749(4) 0.9198(6) 0.1792(5)
C14 C 0.1625(4) 0.8571(5) 0.1529(6)
H7 H 0.1251 0.8538 0.1276
C15 C 0.2187(4) 0.9145(6) 0.1407(7)
H8 H 0.2190 0.9486 0.1078
C16 C 0.1587(4) 0.8060(6) 0.1988(6)
C17 C 0.2149(4) 0.8116(6) 0.2392(6)
H9 H 0.2134 0.7773 0.2738
C18 C 0.2744(4) 0.8693(6) 0.2277(7)
H10 H 0.3119 0.8726 0.2525
C19 C 0.0998(4) 0.7446(6) 0.2142(7)
O7 O 0.0492(3) 0.7361(4) 0.1661(4)
Ce2 Ce 0.0000 0.68414(2) 0.0000
O10 O 0.6870(3) 0.9508(3) 0.1661(4)
Ce1_4 Ce 0.68414(2) 1.0000 1.0000
O4_4 O 0.7859(4) 1.0000 1.0000
Ce2_2 Ce -0.0000 0.68414(2) 1.0000
O9 O 0.5972(4) 0.9797(3) 0.8328(4)
O13 O 0.6579(4) 0.9011(5) 0.9173(5)
H13 H 0.780021 0.960872 0.965591
Ce2_3 Ce 1.0000 0.68414(2) 0.0000
Ce6 Ce 0.98253(2) 0.64919(2) 0.3333
Ce2_4 Ce 1.0000 0.68414(2) 1.0000
O1_2 O 0.0616(3) 0.6306(4) 0.0592(4)
O4_5 O 0.0000 0.7859(4) 0.0000
N1_2 N 0.0231(4) 0.3564(4) 0.1667
C1_2 C 0.0217(4) 0.4135(6) 0.1541(5)
C4_2 C 0.0193(4) 0.5273(6) 0.1345(6)
C5_2 C 0.0699(4) 0.5217(6) 0.0941(6)
H3_2 H 0.1027 0.5560 0.0595
C6_2 C 0.0717(4) 0.4640(6) 0.1056(7)
H4_2 H 0.1059 0.4607 0.0808
C7_2 C 0.0218(4) 0.5887(6) 0.1191(7)
O5_2 O 0.2973(4) 0.3949(4) 0.2741(4)
C13_2 C 0.0802(6) 0.3550(7) 0.1792(5)
C14_2 C 0.1429(5) 0.3053(6) 0.1529(6)
H7_2 H 0.1462 0.2712 0.1276
C15_2 C 0.0855(6) 0.3041(7) 0.1407(7)
H8_2 H 0.0514 0.2703 0.1078
C16_2 C 0.1940(6) 0.3526(7) 0.1988(6)
C17_2 C 0.1884(6) 0.4032(7) 0.2392(6)
H9_2 H 0.2227 0.4360 0.2738
C18_2 C 0.1307(6) 0.4050(7) 0.2277(7)
H10_2 H 0.1274 0.4392 0.2525
C19_2 C 0.2554(6) 0.3551(7) 0.2142(7)
O7_2 O 0.2639(4) 0.3130(5) 0.1661(4)
O4_6 O -0.0000 0.7859(4) 1.0000
O9_2 O 0.0203(3) 0.6175(5) 0.8328(4)
O13_2 O 0.0989(5) 0.7568(6) 0.9173(5)
H13_2 H 0.0391276 0.819148 0.965591
O2_2 O 0.9797(3) 0.5972(4) 0.1672(4)
O4_7 O 1.0000 0.7859(4) 0.0000
C2_2 C 0.9720(3) 0.4762(5) 0.1804(6)
H1_2 H 0.9379 0.4795 0.2057
C3_2 C 0.9708(4) 0.4188(6) 0.1926(7)
H2_2 H 0.9370 0.3847 0.2255
C8_2 C 0.9626(4) 0.2959(7) 0.1667
C9_2 C 0.9194(4) 0.2795(7) 0.0840(7)
H5_2 H 0.9283 0.3081 0.0308
C10_2 C 0.8648(4) 0.2216(7) 0.0833(7)
H6_2 H 0.8387 0.2091 0.0262
C11_2 C 0.8475(4) 0.1808(7) 0.1667
C12_2 C 0.7852(5) 0.1185(9) 0.1667
O6_2 O 0.7656(5) 0.0901(6) 0.2506(5)
C20_2 C 0.9462(7) 0.2527(9) 0.2493(7)
H11_2 H 0.9748 0.2616 0.3025
C21_2 C 0.8883(7) 0.1981(9) 0.2500(7)
H12_2 H 0.8758 0.1720 0.3071
O12_2 O 0.9011(5) 0.6579(6) 0.0827(5)
O4_8 O 1.0000 0.7859(4) 1.0000
O8_2 O 0.9384(3) 0.5690(5) 0.9408(4)
O11_2 O 0.9508(3) 0.6870(5) 0.8339(4)
H14_2 H 0.961731 0.78045 0.963222
O1_3 O 0.3694(4) 0.4310(2) 0.0592(4)
O2_3 O 0.4028(4) 0.3825(3) 0.1672(4)
O4_9 O 0.2141(4) 0.2141(4) 0.0000
N1_3 N 0.6436(4) 0.6667 0.1667
C1_3 C 0.5865(6) 0.6082(4) 0.1541(5)
C2_3 C 0.5238(5) 0.4958(4) 0.1804(6)
H1_3 H 0.5205 0.4584 0.2057
C3_3 C 0.5812(6) 0.5520(4) 0.1926(7)
H2_3 H 0.6153 0.5523 0.2255
C4_3 C 0.4727(6) 0.4920(4) 0.1345(6)
C5_3 C 0.4783(6) 0.5482(4) 0.0941(6)
H3_3 H 0.4440 0.5467 0.0595
C6_3 C 0.5360(6) 0.6077(4) 0.1056(7)
H4_3 H 0.5393 0.6452 0.0808
C7_3 C 0.4113(6) 0.4331(4) 0.1191(7)
C8_3 C 0.7041(7) 0.6667(6) 0.1667
C9_3 C 0.7205(7) 0.6399(6) 0.0840(7)
H5_3 H 0.6919 0.6202 0.0308
C10_3 C 0.7784(7) 0.6432(6) 0.0833(7)
H6_3 H 0.7909 0.6296 0.0262
C11_3 C 0.8192(7) 0.6667(6) 0.1667
C12_3 C 0.8815(9) 0.6667(7) 0.1667
O5_3 O 0.6051(4) 0.9023(2) 0.2741(4)
C13_3 C 0.6450(7) 0.7251(4) 0.1792(5)
C14_3 C 0.6947(6) 0.8375(4) 0.1529(6)
H7_3 H 0.7288 0.8749 0.1276
C15_3 C 0.6959(7) 0.7813(4) 0.1407(7)
H8_3 H 0.7297 0.7810 0.1078
C16_3 C 0.6474(7) 0.8413(4) 0.1988(6)
C17_3 C 0.5968(7) 0.7851(4) 0.2392(6)
H9_3 H 0.5640 0.7866 0.2738
C18_3 C 0.5950(7) 0.7256(4) 0.2277(7)
H10_3 H 0.5608 0.6881 0.2525
C19_3 C 0.6449(7) 0.9002(4) 0.2142(7)
O6_3 O 0.9099(6) 0.6754(4) 0.2506(5)
C20_3 C 0.7473(9) 0.6934(6) 0.2493(7)
H11_3 H 0.7384 0.7131 0.3025
C21_3 C 0.8019(9) 0.6901(6) 0.2500(7)
H12_3 H 0.8280 0.7037 0.3071
O4_10 O 0.2141(4) 0.2141(4) 1.0000
O8_3 O 0.4310(5) 0.3694(4) 0.9408(4)
O9_3 O 0.3825(5) 0.4028(4) 0.8328(4)
O11_3 O 0.3130(5) 0.2639(4) 0.8339(4)
O13_3 O 0.2432(6) 0.3421(4) 0.9173(5)
H13_3 H 0.180852 0.219979 0.965591
H14_3 H 0.21955 0.181281 0.963222
H14_4 H 0.0382691 0.818719 0.0367781
C2_4 C 0.0280(3) 0.5042(4) 0.8196(6)
H1_4 H 0.0621 0.5416 0.7943
C3_4 C 0.0292(4) 0.4480(4) 0.8074(7)
H2_4 H 0.0630 0.4477 0.7745
C8_4 C 0.0374(4) 0.3333(6) 0.8333
C9_4 C 0.0806(4) 0.3601(6) 0.9160(7)
H5_4 H 0.0717 0.3798 0.9692
C10_4 C 0.1352(4) 0.3568(6) 0.9167(7)
H6_4 H 0.1613 0.3704 0.9738
C11_4 C 0.1525(4) 0.3333(6) 0.8333
C12_4 C 0.2148(5) 0.3333(7) 0.8333
O6_4 O 0.2344(5) 0.3246(4) 0.7494(5)
C20_4 C 0.0538(7) 0.3066(6) 0.7507(7)
H11_4 H 0.0252 0.2869 0.6975
C21_4 C 0.1117(7) 0.3099(6) 0.7500(7)
H12_4 H 0.1242 0.2963 0.6929
Ce4_2 Ce 0.3333 0.35081(2) 0.6667
Ce5_2 Ce 0.01747(2) 0.6667 0.6667
H13_4 H 0.960872 0.780021 0.0344093
N1_4 N 0.9769(4) 0.3333 0.8333
C1_4 C 0.9783(4) 0.3918(4) 0.8459(5)
C4_4 C 0.9807(4) 0.5080(4) 0.8655(6)
C5_4 C 0.9301(4) 0.4518(4) 0.9059(6)
H3_4 H 0.8973 0.4533 0.9405
C6_4 C 0.9283(4) 0.3923(4) 0.8944(7)
H4_4 H 0.8941 0.3548 0.9192
C7_4 C 0.9782(4) 0.5669(4) 0.8809(7)
O5_4 O 0.7027(4) 0.0977(2) 0.7259(4)
C13_4 C 0.9198(6) 0.2749(4) 0.8208(5)
C14_4 C 0.8571(5) 0.1625(4) 0.8471(6)
H7_4 H 0.8538 0.1251 0.8724
C15_4 C 0.9145(6) 0.2187(4) 0.8593(7)
H8_4 H 0.9486 0.2190 0.8922
C16_4 C 0.8060(6) 0.1587(4) 0.8012(6)
C17_4 C 0.8116(6) 0.2149(4) 0.7608(6)
H9_4 H 0.7773 0.2134 0.7262
C18_4 C 0.8693(6) 0.2744(4) 0.7723(7)
H10_4 H 0.8726 0.3119 0.7475
C19_4 C 0.7446(6) 0.0998(4) 0.7858(7)
Ce6_2 Ce 0.64919(2) 0.98253(2) 0.6667
H13_5 H 0.819148 0.0391276 0.0344093
N1_5 N 0.3564(4) 0.0231(4) 0.8333
C1_5 C 0.4135(6) 0.0217(4) 0.8459(5)
C4_5 C 0.5273(6) 0.0193(4) 0.8655(6)
C5_5 C 0.5217(6) 0.0699(4) 0.9059(6)
H3_5 H 0.5560 0.1027 0.9405
C6_5 C 0.4640(6) 0.0717(4) 0.8944(7)
H4_5 H 0.4607 0.1059 0.9192
C7_5 C 0.5887(6) 0.0218(4) 0.8809(7)
O5_5 O 0.3949(4) 0.2973(4) 0.7259(4)
C13_5 C 0.3550(7) 0.0802(6) 0.8208(5)
C14_5 C 0.3053(6) 0.1429(5) 0.8471(6)
H7_5 H 0.2712 0.1462 0.8724
C15_5 C 0.3041(7) 0.0855(6) 0.8593(7)
H8_5 H 0.2703 0.0514 0.8922
C16_5 C 0.3526(7) 0.1940(6) 0.8012(6)
C17_5 C 0.4032(7) 0.1884(6) 0.7608(6)
H9_5 H 0.4360 0.2227 0.7262
C18_5 C 0.4050(7) 0.1307(6) 0.7723(7)
H10_5 H 0.4392 0.1274 0.7475
C19_5 C 0.3551(7) 0.2554(6) 0.7858(7)
H14_5 H 0.78045 0.961731 0.0367781
C2_5 C 0.4762(5) 0.9720(3) 0.8196(6)
H1_5 H 0.4795 0.9379 0.7943
C3_5 C 0.4188(6) 0.9708(4) 0.8074(7)
H2_5 H 0.3847 0.9370 0.7745
C8_5 C 0.2959(7) 0.9626(4) 0.8333
C9_5 C 0.2795(7) 0.9194(4) 0.9160(7)
H5_5 H 0.3081 0.9283 0.9692
C10_5 C 0.2216(7) 0.8648(4) 0.9167(7)
H6_5 H 0.2091 0.8387 0.9738
C11_5 C 0.1808(7) 0.8475(4) 0.8333
C12_5 C 0.1185(9) 0.7852(5) 0.8333
O6_5 O 0.0901(6) 0.7656(5) 0.7494(5)
C20_5 C 0.2527(9) 0.9462(7) 0.7507(7)
H11_5 H 0.2616 0.9748 0.6975
C21_5 C 0.1981(9) 0.8883(7) 0.7500(7)
H12_5 H 0.1720 0.8758 0.6929
H13_6 H 0.219979 0.180852 0.0344093
H14_6 H 0.181281 0.21955 0.0367781
N1_6 N 0.6667 0.6436(4) 0.8333
C1_6 C 0.6082(4) 0.5865(6) 0.8459(5)
C2_6 C 0.4958(4) 0.5238(5) 0.8196(6)
H1_6 H 0.4584 0.5205 0.7943
C3_6 C 0.5520(4) 0.5812(6) 0.8074(7)
H2_6 H 0.5523 0.6153 0.7745
C4_6 C 0.4920(4) 0.4727(6) 0.8655(6)
C5_6 C 0.5482(4) 0.4783(6) 0.9059(6)
H3_6 H 0.5467 0.4440 0.9405
C6_6 C 0.6077(4) 0.5360(6) 0.8944(7)
H4_6 H 0.6452 0.5393 0.9192
C7_6 C 0.4331(4) 0.4113(6) 0.8809(7)
C8_6 C 0.6667(6) 0.7041(7) 0.8333
C9_6 C 0.6399(6) 0.7205(7) 0.9160(7)
H5_6 H 0.6202 0.6919 0.9692
C10_6 C 0.6432(6) 0.7784(7) 0.9167(7)
H6_6 H 0.6296 0.7909 0.9738
C11_6 C 0.6667(6) 0.8192(7) 0.8333
C12_6 C 0.6667(7) 0.8815(9) 0.8333
O5_6 O 0.9023(2) 0.6051(4) 0.7259(4)
C13_6 C 0.7251(4) 0.6450(7) 0.8208(5)
C14_6 C 0.8375(4) 0.6947(6) 0.8471(6)
H7_6 H 0.8749 0.7288 0.8724
C15_6 C 0.7813(4) 0.6959(7) 0.8593(7)
H8_6 H 0.7810 0.7297 0.8922
C16_6 C 0.8413(4) 0.6474(7) 0.8012(6)
C17_6 C 0.7851(4) 0.5968(7) 0.7608(6)
H9_6 H 0.7866 0.5640 0.7262
C18_6 C 0.7256(4) 0.5950(7) 0.7723(7)
H10_6 H 0.6881 0.5608 0.7475
C19_6 C 0.9002(4) 0.6449(7) 0.7858(7)
O6_6 O 0.6754(4) 0.9099(6) 0.7494(5)
C20_6 C 0.6934(6) 0.7473(9) 0.7507(7)
H11_6 H 0.7131 0.7384 0.6975
C21_6 C 0.6901(6) 0.8019(9) 0.7500(7)
H12_6 H 0.7037 0.8280 0.6929
O1_4 O 0.2357(2) 0.2717(3) 0.3925(4)
O2_4 O 0.2842(3) 0.3536(3) 0.5005(4)
O3_2 O 0.0088(4) 0.5765(3) 0.4160(5)
O4_11 O 0.4526(4) 0.3333 0.3333
N1_7 N -0.0000 0.3102(4) 0.5000
C1_7 C 0.0585(4) 0.3116(4) 0.4874(5)
C2_7 C 0.1709(4) 0.3613(3) 0.5137(6)
H1_7 H 0.2083 0.3954 0.5390
C3_7 C 0.1147(4) 0.3625(4) 0.5259(7)
H2_7 H 0.1144 0.3963 0.5588
C4_7 C 0.1747(4) 0.3140(4) 0.4678(6)
C5_7 C 0.1185(4) 0.2634(4) 0.4274(6)
H3_7 H 0.1200 0.2306 0.3928
C6_7 C 0.0590(4) 0.2616(4) 0.4389(7)
H4_7 H 0.0215 0.2274 0.4141
C7_7 C 0.2336(4) 0.3115(4) 0.4524(7)
C8_7 C -0.0000(6) 0.3707(4) 0.5000
C9_7 C 0.0268(6) 0.4139(4) 0.4173(7)
H5_7 H 0.0465 0.4050 0.3641
C10_7 C 0.0235(6) 0.4685(4) 0.4166(7)
H6_7 H 0.0371 0.4946 0.3595
C11_7 C -0.0000(6) 0.4858(4) 0.5000
C12_7 C -0.0000(7) 0.5481(5) 0.5000
O10_2 O 0.3536(3) 0.2842(3) 0.4995(4)
O12_3 O 0.4235(3) 0.4322(5) 0.4160(5)
N1_8 N 1.0000 0.3102(4) 0.5000
C8_8 C 1.0000(6) 0.3707(4) 0.5000
C11_8 C 1.0000(6) 0.4858(4) 0.5000
C12_8 C 1.0000(7) 0.5481(5) 0.5000
O5_7 O 0.7643(2) 0.0361(4) 0.6075(4)
C13_7 C 0.9415(4) 0.2532(6) 0.5126(5)
C14_7 C 0.8291(4) 0.1905(5) 0.4863(6)
H7_7 H 0.7917 0.1872 0.4610
C15_7 C 0.8853(4) 0.2479(6) 0.4741(7)
H8_7 H 0.8856 0.2820 0.4412
C16_7 C 0.8253(4) 0.1394(6) 0.5322(6)
C17_7 C 0.8815(4) 0.1450(6) 0.5726(6)
H9_7 H 0.8800 0.1107 0.6072
C18_7 C 0.9410(4) 0.2027(6) 0.5611(7)
H10_7 H 0.9785 0.2060 0.5859
C19_7 C 0.7664(4) 0.0780(6) 0.5476(7)
O6_7 O 0.9912(4) 0.5678(5) 0.5840(5)
C20_7 C 0.9732(6) 0.3872(7) 0.5827(7)
H11_7 H 0.9535 0.3586 0.6359
C21_7 C 0.9765(6) 0.4451(7) 0.5834(7)
H12_7 H 0.9629 0.4576 0.6405
O7_3 O 0.7158(3) 0.0695(4) 0.4995(4)
O4_12 O 0.6667 0.1192(4) 0.3333
O1_5 O 0.7283(3) 0.9639(4) 0.3925(4)
O2_5 O 0.6464(3) 0.9305(4) 0.5005(4)
N1_9 N 0.6898(4) 0.6897(4) 0.5000
C1_8 C 0.6884(4) 0.7468(6) 0.4874(5)
C2_8 C 0.6387(3) 0.8095(5) 0.5137(6)
H1_8 H 0.6046 0.8128 0.5390
C3_8 C 0.6375(4) 0.7521(6) 0.5259(7)
H2_8 H 0.6037 0.7180 0.5588
C4_8 C 0.6860(4) 0.8606(6) 0.4678(6)
C5_8 C 0.7366(4) 0.8550(6) 0.4274(6)
H3_8 H 0.7694 0.8893 0.3928
C6_8 C 0.7384(4) 0.7973(6) 0.4389(7)
H4_8 H 0.7726 0.7940 0.4141
C7_8 C 0.6885(4) 0.9220(6) 0.4524(7)
C8_9 C 0.6293(4) 0.6292(7) 0.5000
C9_8 C 0.5861(4) 0.6128(7) 0.4173(7)
H5_8 H 0.5950 0.6414 0.3641
C10_8 C 0.5315(4) 0.5549(7) 0.4166(7)
H6_8 H 0.5054 0.5424 0.3595
C11_9 C 0.5142(4) 0.5141(7) 0.5000
C12_9 C 0.4519(5) 0.4518(9) 0.5000
O5_8 O 0.9639(4) 0.7283(4) 0.6075(4)
C13_8 C 0.7468(6) 0.6884(7) 0.5126(5)
C14_8 C 0.8095(5) 0.6387(6) 0.4863(6)
H7_8 H 0.8128 0.6046 0.4610
C15_8 C 0.7521(6) 0.6375(7) 0.4741(7)
H8_8 H 0.7180 0.6037 0.4412
C16_8 C 0.8606(6) 0.6860(7) 0.5322(6)
C17_8 C 0.8550(6) 0.7366(7) 0.5726(6)
H9_8 H 0.8893 0.7694 0.6072
C18_8 C 0.7973(6) 0.7384(7) 0.5611(7)
H10_8 H 0.7940 0.7726 0.5859
C19_8 C 0.9220(6) 0.6885(7) 0.5476(7)
O6_8 O 0.4322(5) 0.4235(6) 0.5840(5)
C20_8 C 0.6128(7) 0.5861(9) 0.5827(7)
H11_8 H 0.6414 0.5950 0.6359
C21_8 C 0.5549(7) 0.5315(9) 0.5834(7)
H12_8 H 0.5424 0.5054 0.6405
O7_4 O 0.9305(4) 0.6464(5) 0.4995(4)
O12_4 O 0.5678(5) 0.9912(6) 0.4160(5)
N1_10 N 0.3103(4) 0.0000 0.5000
C8_10 C 0.3708(7) 0.0000(6) 0.5000
C11_10 C 0.4859(7) 0.0000(6) 0.5000
C12_10 C 0.5482(9) 0.0000(7) 0.5000
O5_9 O 0.2717(4) 0.2357(2) 0.6075(4)
C13_9 C 0.3116(7) 0.0585(4) 0.5126(5)
C14_9 C 0.3613(6) 0.1709(4) 0.4863(6)
H7_9 H 0.3954 0.2083 0.4610
C15_9 C 0.3625(7) 0.1147(4) 0.4741(7)
H8_9 H 0.3963 0.1144 0.4412
C16_9 C 0.3140(7) 0.1747(4) 0.5322(6)
C17_9 C 0.2634(7) 0.1185(4) 0.5726(6)
H9_9 H 0.2306 0.1200 0.6072
C18_9 C 0.2616(7) 0.0590(4) 0.5611(7)
H10_9 H 0.2274 0.0215 0.5859
C19_9 C 0.3115(7) 0.2336(4) 0.5476(7)
O6_9 O 0.5765(6) 0.0088(4) 0.5840(5)
C20_9 C 0.4139(9) 0.0268(6) 0.5827(7)
H11_9 H 0.4050 0.0465 0.6359
C21_9 C 0.4685(9) 0.0235(6) 0.5834(7)
H12_9 H 0.4946 0.0371 0.6405
O1_6 O 0.0361(4) 0.7643(2) 0.3925(4)
O2_6 O 0.0695(4) 0.7158(3) 0.5005(4)
N1_11 N 0.3103(4) 1.0000 0.5000
C1_9 C 0.2532(6) 0.9415(4) 0.4874(5)
C2_9 C 0.1905(5) 0.8291(4) 0.5137(6)
H1_9 H 0.1872 0.7917 0.5390
C3_9 C 0.2479(6) 0.8853(4) 0.5259(7)
H2_9 H 0.2820 0.8856 0.5588
C4_9 C 0.1394(6) 0.8253(4) 0.4678(6)
C5_9 C 0.1450(6) 0.8815(4) 0.4274(6)
H3_9 H 0.1107 0.8800 0.3928
C6_9 C 0.2027(6) 0.9410(4) 0.4389(7)
H4_9 H 0.2060 0.9785 0.4141
C7_9 C 0.0780(6) 0.7664(4) 0.4524(7)
C8_11 C 0.3708(7) 1.0000(6) 0.5000
C9_9 C 0.3872(7) 0.9732(6) 0.4173(7)
H5_9 H 0.3586 0.9535 0.3641
C10_9 C 0.4451(7) 0.9765(6) 0.4166(7)
H6_9 H 0.4576 0.9629 0.3595
C11_11 C 0.4859(7) 1.0000(6) 0.5000
C12_11 C 0.5482(9) 1.0000(7) 0.5000
O4_13 O 0.8808(4) 0.5474(4) 0.3333
O4_14 O 0.1192(4) 0.6667 0.6667
O4_15 O 0.3333 0.4526(4) 0.6667
O4_16 O 0.5474(4) 0.8808(4) 0.6667
loop_
_geom_bond_atom_site_label_1
_geom_bond_atom_site_label_2
_geom_bond_site_symmetry_1
_geom_bond_site_symmetry_2
O2 Ce1 1_555 1_555
O3 C12 1_555 1_555
O4 Ce1 1_555 1_555
C2 H1 1_555 1_555
C3 C2 1_555 1_555
H2 C3 1_555 1_555
C9 C8 1_555 1_555
H5 C9 1_555 1_555
C10 C9 1_555 1_555
H6 C10 1_555 1_555
C11 C10 1_555 1_555
C12 C11 1_555 1_555
O6 C12 1_555 1_555
C20 C8 1_555 1_555
H11 C20 1_555 1_555
C21 C11 1_555 1_555
H12 C21 1_555 1_555
Ce3 O3 1_555 1_555
Ce4 O6 1_555 1_555
Ce5 O2 1_555 1_555
O12 Ce1 1_555 1_555
C20 C21 1_555 1_555
O4_2 Ce1_2 1_555 1_555
O8 Ce1_2 1_555 1_555
O11 Ce1_2 1_555 1_555
O4_2 H14 1_555 1_555
Ce1_3 O1 1_555 1_555
O1 C7 1_555 1_555
O4_3 Ce1_3 1_555 1_555
N1 C1 1_555 1_555
C5 C4 1_555 1_555
H3 C5 1_555 1_555
C6 C1 1_555 1_555
H4 C6 1_555 1_555
O5 C19 1_555 1_555
C13 N1 1_555 1_555
C14 H7 1_555 1_555
C15 C13 1_555 1_555
H8 C15 1_555 1_555
C16 C14 1_555 1_555
C17 C16 1_555 1_555
H9 C17 1_555 1_555
C18 C13 1_555 1_555
H10 C18 1_555 1_555
C19 C16 1_555 1_555
O7 C19 1_555 1_555
Ce2 O7 1_555 1_555
O10 Ce1_3 1_555 1_555
C4 C7 1_555 1_555
C5 C6 1_555 1_555
C14 C15 1_555 1_555
C17 C18 1_555 1_555
O4_4 Ce1_4 1_555 1_555
O9 Ce1_4 1_555 1_555
O13 Ce1_4 1_555 1_555
O4_4 H13 1_555 1_555
Ce2 O1_2 1_555 1_555
O1_2 C7_2 1_555 1_555
O4_5 Ce2 1_555 1_555
N1_2 C1_2 1_555 1_555
C5_2 C4_2 1_555 1_555
H3_2 C5_2 1_555 1_555
C6_2 C1_2 1_555 1_555
H4_2 C6_2 1_555 1_555
O5_2 C19_2 1_555 1_555
C13_2 N1_2 1_555 1_555
C14_2 H7_2 1_555 1_555
C15_2 C13_2 1_555 1_555
H8_2 C15_2 1_555 1_555
C16_2 C14_2 1_555 1_555
C17_2 C16_2 1_555 1_555
H9_2 C17_2 1_555 1_555
C18_2 C13_2 1_555 1_555
H10_2 C18_2 1_555 1_555
C19_2 C16_2 1_555 1_555
O7_2 C19_2 1_555 1_555
Ce3 O7_2 1_555 1_555
Ce4 O5_2 1_555 1_555
C4_2 C7_2 1_555 1_555
C5_2 C6_2 1_555 1_555
C14_2 C15_2 1_555 1_555
C17_2 C18_2 1_555 1_555
O7_2 Ce4 1_555 1_555
O4_6 Ce2_2 1_555 1_555
O9_2 Ce2_2 1_555 1_555
O13_2 Ce2_2 1_555 1_555
O4_6 H13_2 1_555 1_555
O2_2 Ce2_3 1_555 1_555
O12 C12_2 1_555 1_555
O4_7 Ce2_3 1_555 1_555
C2_2 H1_2 1_555 1_555
C3_2 C2_2 1_555 1_555
H2_2 C3_2 1_555 1_555
C9_2 C8_2 1_555 1_555
H5_2 C9_2 1_555 1_555
C10_2 C9_2 1_555 1_555
H6_2 C10_2 1_555 1_555
C11_2 C10_2 1_555 1_555
C12_2 C11_2 1_555 1_555
O6_2 C12_2 1_555 1_555
C20_2 C8_2 1_555 1_555
H11_2 C20_2 1_555 1_555
C21_2 C11_2 1_555 1_555
H12_2 C21_2 1_555 1_555
Ce5 O6_2 1_555 1_555
Ce6 O2_2 1_555 1_555
O12_2 Ce2_3 1_555 1_555
C20_2 C21_2 1_555 1_555
O4_8 Ce2_4 1_555 1_555
O8_2 Ce2_4 1_555 1_555
O11_2 Ce2_4 1_555 1_555
O4_8 H14_2 1_555 1_555
Ce3 O1_3 1_555 1_555
O1_3 C7_3 1_555 1_555
O2_3 Ce3 1_555 1_555
O12_2 C12_3 1_555 1_555
O4_9 Ce3 1_555 1_555
N1_3 C1_3 1_555 1_555
C1_3 C3_3 1_555 1_555
C2_3 H1_3 1_555 1_555
C3_3 C2_3 1_555 1_555
H2_3 C3_3 1_555 1_555
C4_3 C2_3 1_555 1_555
C5_3 C4_3 1_555 1_555
H3_3 C5_3 1_555 1_555
C6_3 C1_3 1_555 1_555
H4_3 C6_3 1_555 1_555
C7_3 O2_3 1_555 1_555
C8_3 N1_3 1_555 1_555
C9_3 C8_3 1_555 1_555
H5_3 C9_3 1_555 1_555
C10_3 C9_3 1_555 1_555
H6_3 C10_3 1_555 1_555
C11_3 C10_3 1_555 1_555
C12_3 C11_3 1_555 1_555
O5_3 C19_3 1_555 1_555
C13_3 N1_3 1_555 1_555
C14_3 H7_3 1_555 1_555
C15_3 C13_3 1_555 1_555
H8_3 C15_3 1_555 1_555
C16_3 C14_3 1_555 1_555
C17_3 C16_3 1_555 1_555
H9_3 C17_3 1_555 1_555
C18_3 C13_3 1_555 1_555
H10_3 C18_3 1_555 1_555
C19_3 C16_3 1_555 1_555
O6_3 C12_3 1_555 1_555
C20_3 C8_3 1_555 1_555
H11_3 C20_3 1_555 1_555
C21_3 C11_3 1_555 1_555
H12_3 C21_3 1_555 1_555
O10 C19_3 1_555 1_555
Ce6 O6_3 1_555 1_555
Ce4 O2_3 1_555 1_555
C4_3 C7_3 1_555 1_555
C5_3 C6_3 1_555 1_555
C14_3 C15_3 1_555 1_555
C17_3 C18_3 1_555 1_555
C20_3 C21_3 1_555 1_555
O4_10 Ce3_2 1_555 1_555
O8_3 Ce3_2 1_555 1_555
O9_3 Ce3_2 1_555 1_555
O11_3 Ce3_2 1_555 1_555
O13_3 Ce3_2 1_555 1_555
O4_10 H13_3 1_555 1_555
O4_10 H14_3 1_555 1_555
O4_5 H14_4 1_555 1_555
O13_3 C12_4 1_555 1_555
C2_4 H1_4 1_555 1_555
C3_4 C2_4 1_555 1_555
H2_4 C3_4 1_555 1_555
C9_4 C8_4 1_555 1_555
H5_4 C9_4 1_555 1_555
C10_4 C9_4 1_555 1_555
H6_4 C10_4 1_555 1_555
C11_4 C10_4 1_555 1_555
C12_4 C11_4 1_555 1_555
O6_4 C12_4 1_555 1_555
C20_4 C8_4 1_555 1_555
H11_4 C20_4 1_555 1_555
C21_4 C11_4 1_555 1_555
H12_4 C21_4 1_555 1_555
Ce4_2 O6_4 1_555 1_555
Ce5_2 O9_2 1_555 1_555
C20_4 C21_4 1_555 1_555
O4_7 H13_4 1_555 1_555
O8_2 C7_4 1_555 1_555
N1_4 C1_4 1_555 1_555
C5_4 C4_4 1_555 1_555
H3_4 C5_4 1_555 1_555
C6_4 C1_4 1_555 1_555
H4_4 C6_4 1_555 1_555
O5_4 C19_4 1_555 1_555
C13_4 N1_4 1_555 1_555
C14_4 H7_4 1_555 1_555
C15_4 C13_4 1_555 1_555
H8_4 C15_4 1_555 1_555
C16_4 C14_4 1_555 1_555
C17_4 C16_4 1_555 1_555
H9_4 C17_4 1_555 1_555
C18_4 C13_4 1_555 1_555
H10_4 C18_4 1_555 1_555
C19_4 C16_4 1_555 1_555
O11 C19_4 1_555 1_555
C4_4 C7_4 1_555 1_555
C5_4 C6_4 1_555 1_555
C14_4 C15_4 1_555 1_555
C17_4 C18_4 1_555 1_555
O4 H13_5 1_555 1_555
O8 C7_5 1_555 1_555
N1_5 C1_5 1_555 1_555
C5_5 C4_5 1_555 1_555
H3_5 C5_5 1_555 1_555
C6_5 C1_5 1_555 1_555
H4_5 C6_5 1_555 1_555
O5_5 C19_5 1_555 1_555
C13_5 N1_5 1_555 1_555
C14_5 H7_5 1_555 1_555
C15_5 C13_5 1_555 1_555
H8_5 C15_5 1_555 1_555
C16_5 C14_5 1_555 1_555
C17_5 C16_5 1_555 1_555
H9_5 C17_5 1_555 1_555
C18_5 C13_5 1_555 1_555
H10_5 C18_5 1_555 1_555
C19_5 C16_5 1_555 1_555
O11_3 C19_5 1_555 1_555
Ce4_2 O5_5 1_555 1_555
C4_5 C7_5 1_555 1_555
C5_5 C6_5 1_555 1_555
C14_5 C15_5 1_555 1_555
C17_5 C18_5 1_555 1_555
O11_3 Ce4_2 1_555 1_555
O4_3 H14_5 1_555 1_555
O13_2 C12_5 1_555 1_555
C2_5 H1_5 1_555 1_555
C3_5 C2_5 1_555 1_555
H2_5 C3_5 1_555 1_555
C9_5 C8_5 1_555 1_555
H5_5 C9_5 1_555 1_555
C10_5 C9_5 1_555 1_555
H6_5 C10_5 1_555 1_555
C11_5 C10_5 1_555 1_555
C12_5 C11_5 1_555 1_555
O6_5 C12_5 1_555 1_555
C20_5 C8_5 1_555 1_555
H11_5 C20_5 1_555 1_555
C21_5 C11_5 1_555 1_555
H12_5 C21_5 1_555 1_555
Ce5_2 O6_5 1_555 1_555
Ce6_2 O9 1_555 1_555
C20_5 C21_5 1_555 1_555
O4_9 H13_6 1_555 1_555
O4_9 H14_6 1_555 1_555
O8_3 C7_6 1_555 1_555
O13 C12_6 1_555 1_555
N1_6 C1_6 1_555 1_555
C1_6 C3_6 1_555 1_555
C2_6 H1_6 1_555 1_555
C3_6 C2_6 1_555 1_555
H2_6 C3_6 1_555 1_555
C4_6 C2_6 1_555 1_555
C5_6 C4_6 1_555 1_555
H3_6 C5_6 1_555 1_555
C6_6 C1_6 1_555 1_555
H4_6 C6_6 1_555 1_555
C7_6 O9_3 1_555 1_555
C8_6 N1_6 1_555 1_555
C9_6 C8_6 1_555 1_555
H5_6 C9_6 1_555 1_555
C10_6 C9_6 1_555 1_555
H6_6 C10_6 1_555 1_555
C11_6 C10_6 1_555 1_555
C12_6 C11_6 1_555 1_555
O5_6 C19_6 1_555 1_555
C13_6 N1_6 1_555 1_555
C14_6 H7_6 1_555 1_555
C15_6 C13_6 1_555 1_555
H8_6 C15_6 1_555 1_555
C16_6 C14_6 1_555 1_555
C17_6 C16_6 1_555 1_555
H9_6 C17_6 1_555 1_555
C18_6 C13_6 1_555 1_555
H10_6 C18_6 1_555 1_555
C19_6 C16_6 1_555 1_555
O6_6 C12_6 1_555 1_555
C20_6 C8_6 1_555 1_555
H11_6 C20_6 1_555 1_555
C21_6 C11_6 1_555 1_555
H12_6 C21_6 1_555 1_555
O11_2 C19_6 1_555 1_555
Ce6_2 O6_6 1_555 1_555
Ce4_2 O9_3 1_555 1_555
C4_6 C7_6 1_555 1_555
C5_6 C6_6 1_555 1_555
C14_6 C15_6 1_555 1_555
C17_6 C18_6 1_555 1_555
C20_6 C21_6 1_555 1_555
Ce4 O1_4 1_555 1_555
O1_4 C7_7 1_555 1_555
O2_4 Ce4 1_555 1_555
O3_2 C12_7 1_555 1_555
O4_11 Ce4 1_555 1_555
N1_7 C1_7 1_555 1_555
C1_7 C3_7 1_555 1_555
C2_7 H1_7 1_555 1_555
C3_7 C2_7 1_555 1_555
H2_7 C3_7 1_555 1_555
C4_7 C2_7 1_555 1_555
C5_7 C4_7 1_555 1_555
H3_7 C5_7 1_555 1_555
C6_7 C1_7 1_555 1_555
H4_7 C6_7 1_555 1_555
C7_7 O2_4 1_555 1_555
C8_7 N1_7 1_555 1_555
C9_7 C8_7 1_555 1_555
H5_7 C9_7 1_555 1_555
C10_7 C9_7 1_555 1_555
H6_7 C10_7 1_555 1_555
C11_7 C10_7 1_555 1_555
C12_7 C11_7 1_555 1_555
Ce4_2 O2_4 1_555 1_555
O10_2 Ce4 1_555 1_555
O12_3 Ce4 1_555 1_555
C4_7 C7_7 1_555 1_555
C5_7 C6_7 1_555 1_555
Ce4_2 O10_2 1_555 1_555
C8_8 N1_8 1_555 1_555
C12_8 C11_8 1_555 1_555
O5_7 C19_7 1_555 1_555
C13_7 N1_8 1_555 1_555
C14_7 H7_7 1_555 1_555
C15_7 C13_7 1_555 1_555
H8_7 C15_7 1_555 1_555
C16_7 C14_7 1_555 1_555
C17_7 C16_7 1_555 1_555
H9_7 C17_7 1_555 1_555
C18_7 C13_7 1_555 1_555
H10_7 C18_7 1_555 1_555
C19_7 C16_7 1_555 1_555
O6_7 C12_8 1_555 1_555
C20_7 C8_8 1_555 1_555
H11_7 C20_7 1_555 1_555
C21_7 C11_8 1_555 1_555
H12_7 C21_7 1_555 1_555
O7_3 C19_7 1_555 1_555
Ce5 O7_3 1_555 1_555
C14_7 C15_7 1_555 1_555
C17_7 C18_7 1_555 1_555
C20_7 C21_7 1_555 1_555
O4_12 Ce5 1_555 1_555
O1_5 C7_8 1_555 1_555
O12_3 C12_9 1_555 1_555
N1_9 C1_8 1_555 1_555
C1_8 C3_8 1_555 1_555
C2_8 H1_8 1_555 1_555
C3_8 C2_8 1_555 1_555
H2_8 C3_8 1_555 1_555
C4_8 C2_8 1_555 1_555
C5_8 C4_8 1_555 1_555
H3_8 C5_8 1_555 1_555
C6_8 C1_8 1_555 1_555
H4_8 C6_8 1_555 1_555
C7_8 O2_5 1_555 1_555
C8_9 N1_9 1_555 1_555
C9_8 C8_9 1_555 1_555
H5_8 C9_8 1_555 1_555
C10_8 C9_8 1_555 1_555
H6_8 C10_8 1_555 1_555
C11_9 C10_8 1_555 1_555
C12_9 C11_9 1_555 1_555
O5_8 C19_8 1_555 1_555
C13_8 N1_9 1_555 1_555
C14_8 H7_8 1_555 1_555
C15_8 C13_8 1_555 1_555
H8_8 C15_8 1_555 1_555
C16_8 C14_8 1_555 1_555
C17_8 C16_8 1_555 1_555
H9_8 C17_8 1_555 1_555
C18_8 C13_8 1_555 1_555
H10_8 C18_8 1_555 1_555
C19_8 C16_8 1_555 1_555
O6_8 C12_9 1_555 1_555
C20_8 C8_9 1_555 1_555
H11_8 C20_8 1_555 1_555
C21_8 C11_9 1_555 1_555
H12_8 C21_8 1_555 1_555
O7_4 C19_8 1_555 1_555
Ce6 O7_4 1_555 1_555
Ce4_2 O6_8 1_555 1_555
Ce6_2 O2_5 1_555 1_555
C4_8 C7_8 1_555 1_555
C5_8 C6_8 1_555 1_555
C14_8 C15_8 1_555 1_555
C17_8 C18_8 1_555 1_555
C20_8 C21_8 1_555 1_555
C8_10 N1_10 1_555 1_555
C12_10 C11_10 1_555 1_555
O5_9 C19_9 1_555 1_555
C13_9 N1_10 1_555 1_555
C14_9 H7_9 1_555 1_555
C15_9 C13_9 1_555 1_555
H8_9 C15_9 1_555 1_555
C16_9 C14_9 1_555 1_555
C17_9 C16_9 1_555 1_555
H9_9 C17_9 1_555 1_555
C18_9 C13_9 1_555 1_555
H10_9 C18_9 1_555 1_555
C19_9 C16_9 1_555 1_555
O6_9 C12_10 1_555 1_555
C20_9 C8_10 1_555 1_555
H11_9 C20_9 1_555 1_555
C21_9 C11_10 1_555 1_555
H12_9 C21_9 1_555 1_555
O10_2 C19_9 1_555 1_555
Ce4_2 O5_9 1_555 1_555
C14_9 C15_9 1_555 1_555
C17_9 C18_9 1_555 1_555
C20_9 C21_9 1_555 1_555
O1_6 C7_9 1_555 1_555
O12_4 C12_11 1_555 1_555
N1_11 C1_9 1_555 1_555
C1_9 C3_9 1_555 1_555
C2_9 H1_9 1_555 1_555
C3_9 C2_9 1_555 1_555
H2_9 C3_9 1_555 1_555
C4_9 C2_9 1_555 1_555
C5_9 C4_9 1_555 1_555
H3_9 C5_9 1_555 1_555
C6_9 C1_9 1_555 1_555
H4_9 C6_9 1_555 1_555
C7_9 O2_6 1_555 1_555
C8_11 N1_11 1_555 1_555
C9_9 C8_11 1_555 1_555
H5_9 C9_9 1_555 1_555
C10_9 C9_9 1_555 1_555
H6_9 C10_9 1_555 1_555
C11_11 C10_9 1_555 1_555
C12_11 C11_11 1_555 1_555
Ce5_2 O2_6 1_555 1_555
C4_9 C7_9 1_555 1_555
C5_9 C6_9 1_555 1_555
O4_13 Ce6 1_555 1_555
O4_14 Ce5_2 1_555 1_555
O4_15 Ce4_2 1_555 1_555
O4_16 Ce6_2 1_555 1_555

#END
