
###############################################################################
#
# This file contains modified crystal structure data generated from the
# MOF subset of the Cambridge Structural Database (CSD) v543 
# hosted by the Cambridge Crystallographic Data Centre (CCDC).
#
# This work is licensed under the Creative Commons
# Attribution-NonCommercial-ShareAlike 4.0 International License.
# To view a copy of this license, visit
# http://creativecommons.org/licenses/by-nc-sa/4.0/
# or send a letter to
# Creative Commons, PO Box 1866, Mountain View, CA 94042, USA.
#
# CIF created using the CSD Python API on 29 September 2022
# The structure has been converted into the P1 space group
# The structure has a 3D framework
# The original CSD entry RUYVIS is in the rhombohedral crystal system
# The original CSD entry RUYVIS is in a Sohncke space group
# The framework has been calculated to contain at least 10.0% void space
# The void calculation uses a probe of radius 1.32A, grid spacing 0.4
# H atom positions have been added when not included in the experimental data
# Generated hydrogen atom positions removed from atoms on special positions
#
###############################################################################

data_RUYVIS
_chemical_formula_moiety         '(C311 H173 Eu16 O66)n'
_symmetry_cell_setting           triclinic
_symmetry_space_group_name_H-M   'P 1'
_symmetry_Int_Tables_number      1
_space_group_name_Hall           'P 1'
loop_
_symmetry_equiv_pos_site_id
_symmetry_equiv_pos_as_xyz
1 x,y,z
_cell_length_a                   35.2420(19)
_cell_length_b                   35.2420(19)
_cell_length_c                   13.493(5)
_cell_angle_alpha                90
_cell_angle_beta                 90
_cell_angle_gamma                120
_cell_volume                     14513.1
loop_
_atom_site_label
_atom_site_type_symbol
_atom_site_fract_x
_atom_site_fract_y
_atom_site_fract_z
_atom_site_U_iso_or_equiv
_atom_site_thermal_displace_type
Eu1 Eu 0.32428 0.000 0.000 0.0076 Uiso
O1 O 0.250479 0.000 0.000 0.0351 Uiso
O2 O 0.313019 0.053908 0.100002 0.0351 Uiso
O3 O 0.043376 0.32977 0.16509 0.0351 Uiso
O4 O 0.066735 0.384438 0.27937 0.0351 Uiso
C1 C 0.333333 0.08134 0.166667 0.0631 Uiso
C2 C 0.333333 0.12306 0.166667 0.0631 Uiso
C3 C 0.35355 0.15054 0.24313 0.0631 Uiso
C4 C 0.35355 0.18942 0.24313 0.0631 Uiso
C5 C 0.333333 0.20029 0.166667 0.0631 Uiso
C6 C 0.333333 0.24067 0.166667 0.0631 Uiso
C7 C 0.333333 0.27359 0.166667 0.0631 Uiso
C8 C 0.333333 0.31396 0.166667 0.0631 Uiso
C9 C 0.29433 0.31479 0.1689 0.0631 Uiso
C10 C 0.29433 0.35311 0.1689 0.0631 Uiso
C11 C 0.333333 0.39116 0.166667 0.0631 Uiso
C12 C 0.254372 0.355257 0.175986 0.0631 Uiso
C13 C 0.222899 0.356949 0.181568 0.0631 Uiso
C14 C 0.183762 0.359052 0.188509 0.0631 Uiso
C15 C 0.146791 0.32799 0.13891 0.0631 Uiso
C16 C 0.109297 0.330005 0.14556 0.0631 Uiso
C17 C 0.109868 0.363023 0.201614 0.0631 Uiso
C18 C 0.146839 0.394085 0.251212 0.0631 Uiso
C19 C 0.184333 0.39207 0.244563 0.0631 Uiso
C20 C 0.06991 0.36517 0.2087 0.0631 Uiso
H1 H 0.368307 0.142409 0.298943 0.0758 Uiso
H2 H 0.368307 0.209668 0.298943 0.0758 Uiso
H3 H 0.26586 0.28702 0.17053 0.0758 Uiso
H4 H 0.333333 0.41954 0.166667 0.0758 Uiso
H5 H 0.146774 0.303868 0.097924 0.0758 Uiso
H6 H 0.081911 0.307354 0.109427 0.0758 Uiso
H7 H 0.146856 0.418207 0.292199 0.0758 Uiso
H8 H 0.211719 0.414721 0.280696 0.0758 Uiso
O5 O 0.353648 0.074222 0.233331 0.0351 Uiso
O6 O 0.623291 0.619727 0.16824 0.0351 Uiso
O7 O 0.599932 0.651036 0.05396 0.0351 Uiso
C21 C 0.31312 0.13032 0.09020 0.0631 Uiso
C22 C 0.31312 0.16920 0.09020 0.0631 Uiso
C23 C 0.37234 0.35379 0.1644 0.0631 Uiso
C24 C 0.37234 0.39211 0.1644 0.0631 Uiso
C25 C 0.412295 0.434218 0.157347 0.0631 Uiso
C26 C 0.443768 0.467383 0.151765 0.0631 Uiso
C27 C 0.482905 0.508623 0.144824 0.0631 Uiso
C28 C 0.519876 0.514532 0.19442 0.0631 Uiso
C29 C 0.557370 0.554041 0.18777 0.0631 Uiso
C30 C 0.556799 0.586488 0.131719 0.0631 Uiso
C31 C 0.519828 0.580579 0.082121 0.0631 Uiso
C32 C 0.482334 0.541070 0.088770 0.0631 Uiso
C33 C 0.59676 0.62859 0.1246 0.0631 Uiso
H9 H 0.298360 0.107435 0.034390 0.0758 Uiso
H10 H 0.298360 0.174694 0.034390 0.0758 Uiso
H11 H 0.40081 0.35449 0.16280 0.0758 Uiso
H12 H 0.519893 0.490427 0.235409 0.0758 Uiso
H13 H 0.584756 0.558776 0.223906 0.0758 Uiso
H14 H 0.519811 0.604684 0.041134 0.0758 Uiso
H15 H 0.454948 0.536335 0.052637 0.0758 Uiso
Eu2 Eu 0.000 0.32428 0.000 0.0076 Uiso
Eu3 Eu 0.67572 0.67572 0.000 0.0076 Uiso
Eu5 Eu 0.666667 0.65761 0.333333 0.0076 Uiso
Eu6 Eu 0.34239 0.00905 0.333333 0.0076 Uiso
Eu1_2 Eu 0.32428 0.000 1.000 0.0076 Uiso
O1_2 O 0.250479 0.000 1.000 0.0351 Uiso
Eu2_2 Eu 0.000 0.32428 1.000 0.0076 Uiso
Eu3_2 Eu 0.67572 0.67572 1.000 0.0076 Uiso
O10 O 0.32977 0.043376 0.83491 0.0351 Uiso
O12 O 0.400068 0.051105 0.94604 0.0351 Uiso
H16 H 0.255439 0.0287051 0.975537 . .
Eu1_3 Eu 0.32428 1.000 0.000 0.0076 Uiso
O1_3 O 0.250479 1.000 0.000 0.0351 Uiso
O9 O 0.286394 0.956624 0.16509 0.0351 Uiso
O11 O 0.348964 0.948895 0.05396 0.0351 Uiso
Eu1_4 Eu 0.32428 1.000 1.000 0.0076 Uiso
O1_4 O 0.250479 1.000 1.000 0.0351 Uiso
O8 O 0.259111 0.946092 0.899998 0.0351 Uiso
H17 H 0.229228 0.976281 0.956001 . .
Eu2_3 Eu 1.000 0.32428 0.000 0.0076 Uiso
Eu4 Eu 0.99095 0.333333 0.333333 0.0076 Uiso
Eu2_4 Eu 1.000 0.32428 1.000 0.0076 Uiso
O1_5 O 0.000 0.250479 0.000 0.0351 Uiso
O11_2 O 0.051105 0.400068 0.05396 0.0351 Uiso
O1_6 O 0.000 0.250479 1.000 0.0351 Uiso
O8_2 O 0.053908 0.313019 0.899998 0.0351 Uiso
H17_2 H 0.0237185 0.252946 0.956001 . .
O1_7 O 1.000 0.250479 0.000 0.0351 Uiso
O2_2 O 0.946092 0.259111 0.100002 0.0351 Uiso
C1_2 C 0.91866 0.251993 0.166667 0.0631 Uiso
C2_2 C 0.87694 0.210273 0.166667 0.0631 Uiso
C3_2 C 0.84946 0.20301 0.24313 0.0631 Uiso
C4_2 C 0.81058 0.16413 0.24313 0.0631 Uiso
C5_2 C 0.79971 0.133043 0.166667 0.0631 Uiso
C6_2 C 0.75933 0.092663 0.166667 0.0631 Uiso
C7_2 C 0.72641 0.059743 0.166667 0.0631 Uiso
C8_2 C 0.68604 0.019373 0.166667 0.0631 Uiso
H1_2 H 0.857591 0.225898 0.298943 0.0758 Uiso
H2_2 H 0.790332 0.158639 0.298943 0.0758 Uiso
O5_2 O 0.925778 0.279425 0.233331 0.0351 Uiso
O6_2 O 0.380273 0.003563 0.16824 0.0351 Uiso
C21_2 C 0.86968 0.18279 0.09020 0.0631 Uiso
C22_2 C 0.83080 0.14391 0.09020 0.0631 Uiso
C23_2 C 0.64621 0.01854 0.1644 0.0631 Uiso
C28_2 C 0.485468 0.005343 0.19442 0.0631 Uiso
C29_2 C 0.445959 0.003328 0.18777 0.0631 Uiso
H9_2 H 0.892565 0.190924 0.034390 0.0758 Uiso
H10_2 H 0.825306 0.123665 0.034390 0.0758 Uiso
H11_2 H 0.64551 0.04631 0.16280 0.0758 Uiso
H12_2 H 0.509573 0.029465 0.235409 0.0758 Uiso
H13_2 H 0.441224 0.025979 0.223906 0.0758 Uiso
O1_8 O 1.000 0.250479 1.000 0.0351 Uiso
O10_2 O 0.956624 0.286394 0.83491 0.0351 Uiso
O12_2 O 0.948895 0.348964 0.94604 0.0351 Uiso
H16_2 H 0.971295 0.226734 0.975537 . .
O3_2 O 0.67023 0.713606 0.16509 0.0351 Uiso
O4_2 O 0.615562 0.682297 0.27937 0.0351 Uiso
C9_2 C 0.68521 0.97954 0.1689 0.0631 Uiso
C10_2 C 0.64689 0.94122 0.1689 0.0631 Uiso
C11_2 C 0.60884 0.942173 0.166667 0.0631 Uiso
C12_2 C 0.644743 0.899115 0.175986 0.0631 Uiso
C13_2 C 0.643051 0.865950 0.181568 0.0631 Uiso
C14_2 C 0.640948 0.824710 0.188509 0.0631 Uiso
C15_2 C 0.67201 0.818801 0.13891 0.0631 Uiso
C16_2 C 0.669995 0.779292 0.14556 0.0631 Uiso
C17_2 C 0.636977 0.746845 0.201614 0.0631 Uiso
C18_2 C 0.605915 0.752754 0.251212 0.0631 Uiso
C19_2 C 0.60793 0.792263 0.244563 0.0631 Uiso
C20_2 C 0.63483 0.70474 0.2087 0.0631 Uiso
H3_2 H 0.71298 0.97884 0.17053 0.0758 Uiso
H4_2 H 0.58046 0.913793 0.166667 0.0758 Uiso
H5_2 H 0.696132 0.842906 0.097924 0.0758 Uiso
H6_2 H 0.692646 0.774557 0.109427 0.0758 Uiso
H7_2 H 0.581793 0.728649 0.292199 0.0758 Uiso
H8_2 H 0.585279 0.796998 0.280696 0.0758 Uiso
C24_2 C 0.60789 0.98022 0.1644 0.0631 Uiso
C25_2 C 0.565782 0.978076 0.157347 0.0631 Uiso
C26_2 C 0.532617 0.976384 0.151765 0.0631 Uiso
C27_2 C 0.491377 0.974281 0.144824 0.0631 Uiso
C30_2 C 0.413512 0.970310 0.131719 0.0631 Uiso
C31_2 C 0.419421 0.939248 0.082121 0.0631 Uiso
C32_2 C 0.458930 0.941263 0.088770 0.0631 Uiso
C33_2 C 0.37141 0.96816 0.1246 0.0631 Uiso
H14_2 H 0.395316 0.915126 0.041134 0.0758 Uiso
H15_2 H 0.463665 0.918612 0.052637 0.0758 Uiso
O4_3 O 0.317703 0.933265 0.27937 0.0351 Uiso
C9_3 C 0.02046 0.70567 0.1689 0.0631 Uiso
C10_3 C 0.05878 0.70567 0.1689 0.0631 Uiso
C11_3 C 0.057827 0.666667 0.166667 0.0631 Uiso
C12_3 C 0.100885 0.745628 0.175986 0.0631 Uiso
C13_3 C 0.134050 0.777101 0.181568 0.0631 Uiso
C14_3 C 0.175290 0.816238 0.188509 0.0631 Uiso
C15_3 C 0.181199 0.853209 0.13891 0.0631 Uiso
C16_3 C 0.220708 0.890703 0.14556 0.0631 Uiso
C17_3 C 0.253155 0.890132 0.201614 0.0631 Uiso
C18_3 C 0.247246 0.853161 0.251212 0.0631 Uiso
C19_3 C 0.207737 0.815667 0.244563 0.0631 Uiso
C20_3 C 0.29526 0.93009 0.2087 0.0631 Uiso
H3_3 H 0.02116 0.73414 0.17053 0.0758 Uiso
H4_3 H 0.086207 0.666667 0.166667 0.0758 Uiso
H5_3 H 0.157094 0.853226 0.097924 0.0758 Uiso
H6_3 H 0.225443 0.918089 0.109427 0.0758 Uiso
H7_3 H 0.271351 0.853144 0.292199 0.0758 Uiso
H8_3 H 0.203002 0.788281 0.280696 0.0758 Uiso
C24_3 C 0.01978 0.62766 0.1644 0.0631 Uiso
C25_3 C 0.021924 0.587705 0.157347 0.0631 Uiso
C26_3 C 0.023616 0.556232 0.151765 0.0631 Uiso
C27_3 C 0.025719 0.517095 0.144824 0.0631 Uiso
C30_3 C 0.029690 0.443201 0.131719 0.0631 Uiso
C31_3 C 0.060752 0.480172 0.082121 0.0631 Uiso
C32_3 C 0.058737 0.517666 0.088770 0.0631 Uiso
C33_3 C 0.03184 0.40324 0.1246 0.0631 Uiso
H14_3 H 0.084874 0.480189 0.041134 0.0758 Uiso
H15_3 H 0.081388 0.545052 0.052637 0.0758 Uiso
O1_9 O 0.749521 0.749521 0.000 0.0351 Uiso
O2_3 O 0.740889 0.686981 0.100002 0.0351 Uiso
C1_3 C 0.748007 0.666667 0.166667 0.0631 Uiso
C2_3 C 0.789727 0.666667 0.166667 0.0631 Uiso
C3_3 C 0.79699 0.64645 0.24313 0.0631 Uiso
C4_3 C 0.83587 0.64645 0.24313 0.0631 Uiso
C5_3 C 0.866957 0.666667 0.166667 0.0631 Uiso
C6_3 C 0.907337 0.666667 0.166667 0.0631 Uiso
C7_3 C 0.940257 0.666667 0.166667 0.0631 Uiso
C8_3 C 0.980627 0.666667 0.166667 0.0631 Uiso
H1_3 H 0.774102 0.631693 0.298943 0.0758 Uiso
H2_3 H 0.841361 0.631693 0.298943 0.0758 Uiso
O5_3 O 0.720575 0.646352 0.233331 0.0351 Uiso
O6_3 O 0.996437 0.376709 0.16824 0.0351 Uiso
C21_3 C 0.81721 0.68688 0.09020 0.0631 Uiso
C22_3 C 0.85609 0.68688 0.09020 0.0631 Uiso
C23_3 C 0.98146 0.62766 0.1644 0.0631 Uiso
C28_3 C 0.994657 0.480124 0.19442 0.0631 Uiso
C29_3 C 0.996672 0.442630 0.18777 0.0631 Uiso
H9_3 H 0.809076 0.701640 0.034390 0.0758 Uiso
H10_3 H 0.876335 0.701640 0.034390 0.0758 Uiso
H11_3 H 0.95369 0.59919 0.16280 0.0758 Uiso
H12_3 H 0.970535 0.480107 0.235409 0.0758 Uiso
H13_3 H 0.974021 0.415244 0.223906 0.0758 Uiso
O1_10 O 0.749521 0.749521 1.000 0.0351 Uiso
O8_3 O 0.686981 0.740889 0.899998 0.0351 Uiso
O10_3 O 0.713606 0.67023 0.83491 0.0351 Uiso
O12_3 O 0.651036 0.599932 0.94604 0.0351 Uiso
H16_3 H 0.773266 0.744561 0.975537 . .
H17_3 H 0.747054 0.770772 0.956001 . .
H16_4 H 0.0287051 0.255439 0.0244628 . .
O4_4 O 0.384438 0.066735 0.72063 0.0351 Uiso
C1_4 C 0.08134 0.333333 0.833333 0.0631 Uiso
C2_4 C 0.12306 0.333333 0.833333 0.0631 Uiso
C3_4 C 0.15054 0.35355 0.75687 0.0631 Uiso
C4_4 C 0.18942 0.35355 0.75687 0.0631 Uiso
C5_4 C 0.20029 0.333333 0.833333 0.0631 Uiso
C6_4 C 0.24067 0.333333 0.833333 0.0631 Uiso
C7_4 C 0.27359 0.333333 0.833333 0.0631 Uiso
C8_4 C 0.31396 0.333333 0.833333 0.0631 Uiso
C9_4 C 0.31479 0.29433 0.8311 0.0631 Uiso
C10_4 C 0.35311 0.29433 0.8311 0.0631 Uiso
C11_4 C 0.39116 0.333333 0.833333 0.0631 Uiso
C12_4 C 0.355257 0.254372 0.824014 0.0631 Uiso
C13_4 C 0.356949 0.222899 0.818432 0.0631 Uiso
C14_4 C 0.359052 0.183762 0.811491 0.0631 Uiso
C15_4 C 0.32799 0.146791 0.86109 0.0631 Uiso
C16_4 C 0.330005 0.109297 0.85444 0.0631 Uiso
C17_4 C 0.363023 0.109868 0.798386 0.0631 Uiso
C18_4 C 0.394085 0.146839 0.748788 0.0631 Uiso
C19_4 C 0.39207 0.184333 0.755437 0.0631 Uiso
C20_4 C 0.36517 0.06991 0.7913 0.0631 Uiso
H1_4 H 0.142409 0.368307 0.701057 0.0758 Uiso
H2_4 H 0.209668 0.368307 0.701057 0.0758 Uiso
H3_4 H 0.28702 0.26586 0.82947 0.0758 Uiso
H4_4 H 0.41954 0.333333 0.833333 0.0758 Uiso
H5_4 H 0.303868 0.146774 0.902076 0.0758 Uiso
H6_4 H 0.307354 0.081911 0.890573 0.0758 Uiso
H7_4 H 0.418207 0.146856 0.707801 0.0758 Uiso
H8_4 H 0.414721 0.211719 0.719304 0.0758 Uiso
O5_4 O 0.074222 0.353648 0.766669 0.0351 Uiso
O6_4 O 0.619727 0.623291 0.83176 0.0351 Uiso
C21_4 C 0.13032 0.31312 0.90980 0.0631 Uiso
C22_4 C 0.16920 0.31312 0.90980 0.0631 Uiso
C23_4 C 0.35379 0.37234 0.8356 0.0631 Uiso
C24_4 C 0.39211 0.37234 0.8356 0.0631 Uiso
C25_4 C 0.434218 0.412295 0.842653 0.0631 Uiso
C26_4 C 0.467383 0.443768 0.848235 0.0631 Uiso
C27_4 C 0.508623 0.482905 0.855176 0.0631 Uiso
C28_4 C 0.514532 0.519876 0.80558 0.0631 Uiso
C29_4 C 0.554041 0.557370 0.81223 0.0631 Uiso
C30_4 C 0.586488 0.556799 0.868281 0.0631 Uiso
C31_4 C 0.580579 0.519828 0.917879 0.0631 Uiso
C32_4 C 0.541070 0.482334 0.911230 0.0631 Uiso
C33_4 C 0.62859 0.59676 0.8754 0.0631 Uiso
H9_4 H 0.107435 0.298360 0.965610 0.0758 Uiso
H10_4 H 0.174694 0.298360 0.965610 0.0758 Uiso
H11_4 H 0.35449 0.40081 0.83720 0.0758 Uiso
H12_4 H 0.490427 0.519893 0.764591 0.0758 Uiso
H13_4 H 0.558776 0.584756 0.776094 0.0758 Uiso
H14_4 H 0.604684 0.519811 0.958866 0.0758 Uiso
H15_4 H 0.536335 0.454948 0.947363 0.0758 Uiso
Eu5_2 Eu 0.65761 0.666667 0.666667 0.0076 Uiso
Eu6_2 Eu 0.00905 0.34239 0.666667 0.0076 Uiso
Eu4_2 Eu 0.333333 0.99095 0.666667 0.0076 Uiso
H17_4 H 0.976281 0.229228 0.0439991 . .
H17_5 H 0.252946 0.0237185 0.0439991 . .
H16_5 H 0.226734 0.971295 0.0244628 . .
C1_5 C 0.251993 0.91866 0.833333 0.0631 Uiso
C2_5 C 0.210273 0.87694 0.833333 0.0631 Uiso
C3_5 C 0.20301 0.84946 0.75687 0.0631 Uiso
C4_5 C 0.16413 0.81058 0.75687 0.0631 Uiso
C5_5 C 0.133043 0.79971 0.833333 0.0631 Uiso
C6_5 C 0.092663 0.75933 0.833333 0.0631 Uiso
C7_5 C 0.059743 0.72641 0.833333 0.0631 Uiso
C8_5 C 0.019373 0.68604 0.833333 0.0631 Uiso
H1_5 H 0.225898 0.857591 0.701057 0.0758 Uiso
H2_5 H 0.158639 0.790332 0.701057 0.0758 Uiso
O5_5 O 0.279425 0.925778 0.766669 0.0351 Uiso
O6_5 O 0.003563 0.380273 0.83176 0.0351 Uiso
C21_5 C 0.18279 0.86968 0.90980 0.0631 Uiso
C22_5 C 0.14391 0.83080 0.90980 0.0631 Uiso
C23_5 C 0.01854 0.64621 0.8356 0.0631 Uiso
C28_5 C 0.005343 0.485468 0.80558 0.0631 Uiso
C29_5 C 0.003328 0.445959 0.81223 0.0631 Uiso
H9_5 H 0.190924 0.892565 0.965610 0.0758 Uiso
H10_5 H 0.123665 0.825306 0.965610 0.0758 Uiso
H11_5 H 0.04631 0.64551 0.83720 0.0758 Uiso
H12_5 H 0.029465 0.509573 0.764591 0.0758 Uiso
H13_5 H 0.025979 0.441224 0.776094 0.0758 Uiso
O4_5 O 0.682297 0.615562 0.72063 0.0351 Uiso
C9_5 C 0.97954 0.68521 0.8311 0.0631 Uiso
C10_5 C 0.94122 0.64689 0.8311 0.0631 Uiso
C11_5 C 0.942173 0.60884 0.833333 0.0631 Uiso
C12_5 C 0.899115 0.644743 0.824014 0.0631 Uiso
C13_5 C 0.865950 0.643051 0.818432 0.0631 Uiso
C14_5 C 0.824710 0.640948 0.811491 0.0631 Uiso
C15_5 C 0.818801 0.67201 0.86109 0.0631 Uiso
C16_5 C 0.779292 0.669995 0.85444 0.0631 Uiso
C17_5 C 0.746845 0.636977 0.798386 0.0631 Uiso
C18_5 C 0.752754 0.605915 0.748788 0.0631 Uiso
C19_5 C 0.792263 0.60793 0.755437 0.0631 Uiso
C20_5 C 0.70474 0.63483 0.7913 0.0631 Uiso
H3_5 H 0.97884 0.71298 0.82947 0.0758 Uiso
H4_5 H 0.913793 0.58046 0.833333 0.0758 Uiso
H5_5 H 0.842906 0.696132 0.902076 0.0758 Uiso
H6_5 H 0.774557 0.692646 0.890573 0.0758 Uiso
H7_5 H 0.728649 0.581793 0.707801 0.0758 Uiso
H8_5 H 0.796998 0.585279 0.719304 0.0758 Uiso
C24_5 C 0.98022 0.60789 0.8356 0.0631 Uiso
C25_5 C 0.978076 0.565782 0.842653 0.0631 Uiso
C26_5 C 0.976384 0.532617 0.848235 0.0631 Uiso
C27_5 C 0.974281 0.491377 0.855176 0.0631 Uiso
C30_5 C 0.970310 0.413512 0.868281 0.0631 Uiso
C31_5 C 0.939248 0.419421 0.917879 0.0631 Uiso
C32_5 C 0.941263 0.458930 0.911230 0.0631 Uiso
C33_5 C 0.96816 0.37141 0.8754 0.0631 Uiso
H14_5 H 0.915126 0.395316 0.958866 0.0758 Uiso
H15_5 H 0.918612 0.463665 0.947363 0.0758 Uiso
O4_6 O 0.933265 0.317703 0.72063 0.0351 Uiso
C9_6 C 0.70567 0.02046 0.8311 0.0631 Uiso
C10_6 C 0.70567 0.05878 0.8311 0.0631 Uiso
C11_6 C 0.666667 0.057827 0.833333 0.0631 Uiso
C12_6 C 0.745628 0.100885 0.824014 0.0631 Uiso
C13_6 C 0.777101 0.134050 0.818432 0.0631 Uiso
C14_6 C 0.816238 0.175290 0.811491 0.0631 Uiso
C15_6 C 0.853209 0.181199 0.86109 0.0631 Uiso
C16_6 C 0.890703 0.220708 0.85444 0.0631 Uiso
C17_6 C 0.890132 0.253155 0.798386 0.0631 Uiso
C18_6 C 0.853161 0.247246 0.748788 0.0631 Uiso
C19_6 C 0.815667 0.207737 0.755437 0.0631 Uiso
C20_6 C 0.93009 0.29526 0.7913 0.0631 Uiso
H3_6 H 0.73414 0.02116 0.82947 0.0758 Uiso
H4_6 H 0.666667 0.086207 0.833333 0.0758 Uiso
H5_6 H 0.853226 0.157094 0.902076 0.0758 Uiso
H6_6 H 0.918089 0.225443 0.890573 0.0758 Uiso
H7_6 H 0.853144 0.271351 0.707801 0.0758 Uiso
H8_6 H 0.788281 0.203002 0.719304 0.0758 Uiso
C24_6 C 0.62766 0.01978 0.8356 0.0631 Uiso
C25_6 C 0.587705 0.021924 0.842653 0.0631 Uiso
C26_6 C 0.556232 0.023616 0.848235 0.0631 Uiso
C27_6 C 0.517095 0.025719 0.855176 0.0631 Uiso
C30_6 C 0.443201 0.029690 0.868281 0.0631 Uiso
C31_6 C 0.480172 0.060752 0.917879 0.0631 Uiso
C32_6 C 0.517666 0.058737 0.911230 0.0631 Uiso
C33_6 C 0.40324 0.03184 0.8754 0.0631 Uiso
H14_6 H 0.480189 0.084874 0.958866 0.0758 Uiso
H15_6 H 0.545052 0.081388 0.947363 0.0758 Uiso
H16_6 H 0.744561 0.773266 0.0244628 . .
H17_6 H 0.770772 0.747054 0.0439991 . .
C1_6 C 0.666667 0.748007 0.833333 0.0631 Uiso
C2_6 C 0.666667 0.789727 0.833333 0.0631 Uiso
C3_6 C 0.64645 0.79699 0.75687 0.0631 Uiso
C4_6 C 0.64645 0.83587 0.75687 0.0631 Uiso
C5_6 C 0.666667 0.866957 0.833333 0.0631 Uiso
C6_6 C 0.666667 0.907337 0.833333 0.0631 Uiso
C7_6 C 0.666667 0.940257 0.833333 0.0631 Uiso
C8_6 C 0.666667 0.980627 0.833333 0.0631 Uiso
H1_6 H 0.631693 0.774102 0.701057 0.0758 Uiso
H2_6 H 0.631693 0.841361 0.701057 0.0758 Uiso
O5_6 O 0.646352 0.720575 0.766669 0.0351 Uiso
O6_6 O 0.376709 0.996437 0.83176 0.0351 Uiso
C21_6 C 0.68688 0.81721 0.90980 0.0631 Uiso
C22_6 C 0.68688 0.85609 0.90980 0.0631 Uiso
C23_6 C 0.62766 0.98146 0.8356 0.0631 Uiso
C28_6 C 0.480124 0.994657 0.80558 0.0631 Uiso
C29_6 C 0.442630 0.996672 0.81223 0.0631 Uiso
H9_6 H 0.701640 0.809076 0.965610 0.0758 Uiso
H10_6 H 0.701640 0.876335 0.965610 0.0758 Uiso
H11_6 H 0.59919 0.95369 0.83720 0.0758 Uiso
H12_6 H 0.480107 0.970535 0.764591 0.0758 Uiso
H13_6 H 0.415244 0.974021 0.776094 0.0758 Uiso
C1_7 C -0.000000 0.41467 0.500000 0.0631 Uiso
C2_7 C -0.000000 0.45639 0.500000 0.0631 Uiso
C3_7 C 0.02022 0.48387 0.57646 0.0631 Uiso
C4_7 C 0.02022 0.52275 0.57646 0.0631 Uiso
C5_7 C -0.000000 0.53362 0.500000 0.0631 Uiso
C6_7 C -0.000000 0.57400 0.500000 0.0631 Uiso
C7_7 C -0.000000 0.60692 0.500000 0.0631 Uiso
C8_7 C -0.000000 0.64729 0.500000 0.0631 Uiso
C11_7 C -0.000000 0.72449 0.500000 0.0631 Uiso
H1_7 H 0.034974 0.475742 0.632276 0.0758 Uiso
H2_7 H 0.034974 0.543001 0.632276 0.0758 Uiso
H4_7 H -0.000000 0.75287 0.500000 0.0758 Uiso
O5_7 O 0.020314 0.407556 0.566665 0.0351 Uiso
O6_7 O 0.289957 0.953061 0.50158 0.0351 Uiso
O7_2 O 0.266598 0.984370 0.38730 0.0351 Uiso
C23_7 C 0.03900 0.68713 0.4978 0.0631 Uiso
C24_7 C 0.03900 0.72545 0.4978 0.0631 Uiso
C25_7 C 0.078961 0.767552 0.490681 0.0631 Uiso
C26_7 C 0.110434 0.800717 0.485099 0.0631 Uiso
C27_7 C 0.149571 0.841957 0.478158 0.0631 Uiso
C28_7 C 0.186542 0.847866 0.52776 0.0631 Uiso
C29_7 C 0.224036 0.887375 0.52111 0.0631 Uiso
C30_7 C 0.223465 0.919822 0.465053 0.0631 Uiso
C31_7 C 0.186494 0.913913 0.415455 0.0631 Uiso
C32_7 C 0.149000 0.874404 0.422104 0.0631 Uiso
C33_7 C 0.26342 0.96193 0.4580 0.0631 Uiso
H11_7 H 0.06747 0.68783 0.49614 0.0758 Uiso
H12_7 H 0.186559 0.823761 0.568743 0.0758 Uiso
H13_7 H 0.251422 0.892110 0.557240 0.0758 Uiso
H14_7 H 0.186477 0.938018 0.374468 0.0758 Uiso
H15_7 H 0.121614 0.869669 0.385971 0.0758 Uiso
O11_3 O 0.015630 0.282229 0.38730 0.0351 Uiso
O1_11 O 0.917146 0.333333 0.333333 0.0351 Uiso
O2_4 O 0.979686 0.387241 0.433335 0.0351 Uiso
O3_3 O 0.710043 0.66310 0.49842 0.0351 Uiso
O4_7 O 0.733402 0.717771 0.61270 0.0351 Uiso
C1_8 C 1.000000 0.41467 0.500000 0.0631 Uiso
C2_8 C 1.000000 0.45639 0.500000 0.0631 Uiso
C5_8 C 1.000000 0.53362 0.500000 0.0631 Uiso
C6_8 C 1.000000 0.57400 0.500000 0.0631 Uiso
C7_8 C 1.000000 0.60692 0.500000 0.0631 Uiso
C8_8 C 1.000000 0.64729 0.500000 0.0631 Uiso
C9_7 C 0.96100 0.64812 0.5022 0.0631 Uiso
C10_7 C 0.96100 0.68644 0.5022 0.0631 Uiso
C11_8 C 1.000000 0.72449 0.500000 0.0631 Uiso
C12_7 C 0.921039 0.688590 0.509319 0.0631 Uiso
C13_7 C 0.889566 0.690282 0.514901 0.0631 Uiso
C14_7 C 0.850429 0.692385 0.521842 0.0631 Uiso
C15_7 C 0.813458 0.66132 0.47224 0.0631 Uiso
C16_7 C 0.775964 0.663338 0.47889 0.0631 Uiso
C17_7 C 0.776535 0.696356 0.534947 0.0631 Uiso
C18_7 C 0.813506 0.727418 0.584545 0.0631 Uiso
C19_7 C 0.851000 0.72540 0.577896 0.0631 Uiso
C20_7 C 0.73658 0.69850 0.5420 0.0631 Uiso
H3_7 H 0.93253 0.62035 0.50386 0.0758 Uiso
H4_8 H 1.000000 0.75287 0.500000 0.0758 Uiso
H5_7 H 0.813441 0.637201 0.431257 0.0758 Uiso
H6_7 H 0.748578 0.640687 0.442760 0.0758 Uiso
H7_7 H 0.813523 0.751540 0.625532 0.0758 Uiso
H8_7 H 0.878386 0.748054 0.614029 0.0758 Uiso
C21_7 C 0.97978 0.46366 0.42354 0.0631 Uiso
C22_7 C 0.97978 0.50254 0.42354 0.0631 Uiso
H9_7 H 0.965026 0.440769 0.367724 0.0758 Uiso
H10_7 H 0.965026 0.508028 0.367724 0.0758 Uiso
O9_2 O 0.953061 0.289957 0.49842 0.0351 Uiso
O1_12 O 0.666667 0.583812 0.333333 0.0351 Uiso
O2_5 O 0.612759 0.592444 0.433335 0.0351 Uiso
O3_4 O 0.33690 0.046939 0.49842 0.0351 Uiso
O4_8 O 0.282229 0.015630 0.61270 0.0351 Uiso
C1_9 C 0.58533 0.585326 0.500000 0.0631 Uiso
C2_9 C 0.54361 0.543606 0.500000 0.0631 Uiso
C3_8 C 0.51613 0.53634 0.57646 0.0631 Uiso
C4_8 C 0.47725 0.49746 0.57646 0.0631 Uiso
C5_9 C 0.46638 0.466376 0.500000 0.0631 Uiso
C6_9 C 0.42600 0.425996 0.500000 0.0631 Uiso
C7_9 C 0.39308 0.393076 0.500000 0.0631 Uiso
C8_9 C 0.35271 0.352706 0.500000 0.0631 Uiso
C9_8 C 0.35188 0.31287 0.5022 0.0631 Uiso
C10_8 C 0.31356 0.27455 0.5022 0.0631 Uiso
C11_9 C 0.27551 0.275506 0.500000 0.0631 Uiso
C12_8 C 0.311410 0.232448 0.509319 0.0631 Uiso
C13_8 C 0.309718 0.199283 0.514901 0.0631 Uiso
C14_8 C 0.307615 0.158043 0.521842 0.0631 Uiso
C15_8 C 0.33868 0.152134 0.47224 0.0631 Uiso
C16_8 C 0.336662 0.112625 0.47889 0.0631 Uiso
C17_8 C 0.303644 0.080178 0.534947 0.0631 Uiso
C18_8 C 0.272582 0.086087 0.584545 0.0631 Uiso
C19_8 C 0.27460 0.125596 0.577896 0.0631 Uiso
C20_8 C 0.30150 0.03807 0.5420 0.0631 Uiso
H1_8 H 0.524258 0.559231 0.632276 0.0758 Uiso
H2_8 H 0.456999 0.491972 0.632276 0.0758 Uiso
H3_8 H 0.37965 0.31217 0.50386 0.0758 Uiso
H4_9 H 0.24713 0.247126 0.500000 0.0758 Uiso
H5_8 H 0.362799 0.176239 0.431257 0.0758 Uiso
H6_8 H 0.359313 0.107890 0.442760 0.0758 Uiso
H7_8 H 0.248460 0.061982 0.625532 0.0758 Uiso
H8_8 H 0.251946 0.130331 0.614029 0.0758 Uiso
O5_8 O 0.592444 0.612759 0.566665 0.0351 Uiso
O6_8 O 0.046939 0.336897 0.50158 0.0351 Uiso
C21_8 C 0.53634 0.51613 0.42354 0.0631 Uiso
C22_8 C 0.49746 0.47725 0.42354 0.0631 Uiso
C23_8 C 0.31287 0.35188 0.4978 0.0631 Uiso
C24_8 C 0.27455 0.31356 0.4978 0.0631 Uiso
C25_8 C 0.232448 0.311410 0.490681 0.0631 Uiso
C26_8 C 0.199283 0.309718 0.485099 0.0631 Uiso
C27_8 C 0.158043 0.307615 0.478158 0.0631 Uiso
C28_8 C 0.152134 0.338677 0.52776 0.0631 Uiso
C29_8 C 0.112625 0.336662 0.52111 0.0631 Uiso
C30_8 C 0.080178 0.303644 0.465053 0.0631 Uiso
C31_8 C 0.086087 0.272582 0.415455 0.0631 Uiso
C32_8 C 0.125596 0.274597 0.422104 0.0631 Uiso
C33_8 C 0.03807 0.30150 0.4580 0.0631 Uiso
H9_8 H 0.559231 0.524258 0.367724 0.0758 Uiso
H10_8 H 0.491972 0.456999 0.367724 0.0758 Uiso
H11_8 H 0.31217 0.37965 0.49614 0.0758 Uiso
H12_8 H 0.176239 0.362799 0.568743 0.0758 Uiso
H13_8 H 0.107890 0.359313 0.557240 0.0758 Uiso
H14_8 H 0.061982 0.248460 0.374468 0.0758 Uiso
H15_8 H 0.130331 0.251946 0.385971 0.0758 Uiso
O11_4 O 0.717771 0.733402 0.38730 0.0351 Uiso
O1_13 O 0.416188 0.082854 0.333333 0.0351 Uiso
O2_6 O 0.407556 0.020314 0.433335 0.0351 Uiso
O4_9 O 0.984370 0.266598 0.61270 0.0351 Uiso
C1_10 C 0.414674 0.000000 0.500000 0.0631 Uiso
C2_10 C 0.456394 0.000000 0.500000 0.0631 Uiso
C5_10 C 0.533624 0.000000 0.500000 0.0631 Uiso
C6_10 C 0.574004 0.000000 0.500000 0.0631 Uiso
C7_10 C 0.606924 0.000000 0.500000 0.0631 Uiso
C8_10 C 0.647294 0.000000 0.500000 0.0631 Uiso
C9_9 C 0.68713 0.03900 0.5022 0.0631 Uiso
C10_9 C 0.72545 0.03900 0.5022 0.0631 Uiso
C11_10 C 0.724494 0.000000 0.500000 0.0631 Uiso
C12_9 C 0.767552 0.078961 0.509319 0.0631 Uiso
C13_9 C 0.800717 0.110434 0.514901 0.0631 Uiso
C14_9 C 0.841957 0.149571 0.521842 0.0631 Uiso
C15_9 C 0.847866 0.186542 0.47224 0.0631 Uiso
C16_9 C 0.887375 0.224036 0.47889 0.0631 Uiso
C17_9 C 0.919822 0.223465 0.534947 0.0631 Uiso
C18_9 C 0.913913 0.186494 0.584545 0.0631 Uiso
C19_9 C 0.874404 0.149000 0.577896 0.0631 Uiso
C20_9 C 0.96193 0.26342 0.5420 0.0631 Uiso
H3_9 H 0.68783 0.06747 0.50386 0.0758 Uiso
H4_10 H 0.752874 0.000000 0.500000 0.0758 Uiso
H5_9 H 0.823761 0.186559 0.431257 0.0758 Uiso
H6_9 H 0.892110 0.251422 0.442760 0.0758 Uiso
H7_9 H 0.938018 0.186477 0.625532 0.0758 Uiso
H8_9 H 0.869669 0.121614 0.614029 0.0758 Uiso
C21_9 C 0.48387 0.02022 0.42354 0.0631 Uiso
C22_9 C 0.52275 0.02022 0.42354 0.0631 Uiso
H9_9 H 0.475742 0.034974 0.367724 0.0758 Uiso
H10_9 H 0.543001 0.034974 0.367724 0.0758 Uiso
C1_11 C 0.414674 1.000000 0.500000 0.0631 Uiso
C2_11 C 0.456394 1.000000 0.500000 0.0631 Uiso
C3_9 C 0.46366 0.97978 0.57646 0.0631 Uiso
C4_9 C 0.50254 0.97978 0.57646 0.0631 Uiso
C5_11 C 0.533624 1.000000 0.500000 0.0631 Uiso
C6_11 C 0.574004 1.000000 0.500000 0.0631 Uiso
C7_11 C 0.606924 1.000000 0.500000 0.0631 Uiso
C8_11 C 0.647294 1.000000 0.500000 0.0631 Uiso
C11_11 C 0.724494 1.000000 0.500000 0.0631 Uiso
H1_9 H 0.440769 0.965026 0.632276 0.0758 Uiso
H2_9 H 0.508028 0.965026 0.632276 0.0758 Uiso
H4_11 H 0.752874 1.000000 0.500000 0.0758 Uiso
O5_9 O 0.387241 0.979686 0.566665 0.0351 Uiso
O6_9 O 0.663103 0.710043 0.50158 0.0351 Uiso
C23_9 C 0.64812 0.96100 0.4978 0.0631 Uiso
C24_9 C 0.68644 0.96100 0.4978 0.0631 Uiso
C25_9 C 0.688590 0.921039 0.490681 0.0631 Uiso
C26_9 C 0.690282 0.889566 0.485099 0.0631 Uiso
C27_9 C 0.692385 0.850429 0.478158 0.0631 Uiso
C28_9 C 0.661323 0.813458 0.52776 0.0631 Uiso
C29_9 C 0.663338 0.775964 0.52111 0.0631 Uiso
C30_9 C 0.696356 0.776535 0.465053 0.0631 Uiso
C31_9 C 0.727418 0.813506 0.415455 0.0631 Uiso
C32_9 C 0.725403 0.851000 0.422104 0.0631 Uiso
C33_9 C 0.69850 0.73658 0.4580 0.0631 Uiso
H11_9 H 0.62035 0.93253 0.49614 0.0758 Uiso
H12_9 H 0.637201 0.813441 0.568743 0.0758 Uiso
H13_9 H 0.640687 0.748578 0.557240 0.0758 Uiso
H14_9 H 0.751540 0.813523 0.374468 0.0758 Uiso
H15_9 H 0.748054 0.878386 0.385971 0.0758 Uiso
O1_14 O 0.583812 0.666667 0.666667 0.0351 Uiso
O1_15 O 0.333333 0.917146 0.666667 0.0351 Uiso
O1_16 O 0.082854 0.416188 0.666667 0.0351 Uiso
loop_
_geom_bond_atom_site_label_1
_geom_bond_atom_site_label_2
_geom_bond_site_symmetry_1
_geom_bond_site_symmetry_2
Eu1 O1 1_555 1_555
O2 Eu1 1_555 1_555
O3 C20 1_555 1_555
O4 C20 1_555 1_555
C1 O2 1_555 1_555
C2 C1 1_555 1_555
C3 C2 1_555 1_555
C4 C3 1_555 1_555
C5 C4 1_555 1_555
C6 C5 1_555 1_555
C7 C6 1_555 1_555
C8 C7 1_555 1_555
C9 C8 1_555 1_555
C10 C9 1_555 1_555
C11 C10 1_555 1_555
C12 C10 1_555 1_555
C13 C12 1_555 1_555
C14 C13 1_555 1_555
C15 C14 1_555 1_555
C16 C15 1_555 1_555
C17 C16 1_555 1_555
C18 C17 1_555 1_555
C19 C14 1_555 1_555
C20 C17 1_555 1_555
H1 C3 1_555 1_555
H2 C4 1_555 1_555
H3 C9 1_555 1_555
H4 C11 1_555 1_555
H5 C15 1_555 1_555
H6 C16 1_555 1_555
H7 C18 1_555 1_555
H8 C19 1_555 1_555
O5 C1 1_555 1_555
O6 C33 1_555 1_555
O7 C33 1_555 1_555
C21 C2 1_555 1_555
C22 C5 1_555 1_555
C23 C8 1_555 1_555
C24 C11 1_555 1_555
C25 C24 1_555 1_555
C26 C25 1_555 1_555
C27 C26 1_555 1_555
C28 C27 1_555 1_555
C29 C28 1_555 1_555
C30 C29 1_555 1_555
C31 C30 1_555 1_555
C32 C27 1_555 1_555
C33 C30 1_555 1_555
H9 C21 1_555 1_555
H10 C22 1_555 1_555
H11 C23 1_555 1_555
H12 C28 1_555 1_555
H13 C29 1_555 1_555
H14 C31 1_555 1_555
H15 C32 1_555 1_555
Eu2 O3 1_555 1_555
Eu3 O7 1_555 1_555
Eu5 O6 1_555 1_555
Eu6 O5 1_555 1_555
C18 C19 1_555 1_555
C21 C22 1_555 1_555
C23 C24 1_555 1_555
C31 C32 1_555 1_555
Eu1_2 O1_2 1_555 1_555
O10 Eu1_2 1_555 1_555
O12 Eu1_2 1_555 1_555
O1_2 H16 1_555 1_555
Eu1_3 O1_3 1_555 1_555
O9 Eu1_3 1_555 1_555
O11 Eu1_3 1_555 1_555
Eu1_4 O1_4 1_555 1_555
O8 Eu1_4 1_555 1_555
O1_4 H17 1_555 1_555
Eu2 O1_5 1_555 1_555
O11_2 Eu2 1_555 1_555
Eu2_2 O1_6 1_555 1_555
O8_2 Eu2_2 1_555 1_555
O1_6 H17_2 1_555 1_555
Eu2_3 O1_7 1_555 1_555
O2_2 Eu2_3 1_555 1_555
C1_2 O2_2 1_555 1_555
C2_2 C1_2 1_555 1_555
C3_2 C2_2 1_555 1_555
C4_2 C3_2 1_555 1_555
C5_2 C4_2 1_555 1_555
C6_2 C5_2 1_555 1_555
C7_2 C6_2 1_555 1_555
C8_2 C7_2 1_555 1_555
H1_2 C3_2 1_555 1_555
H2_2 C4_2 1_555 1_555
O5_2 C1_2 1_555 1_555
C21_2 C2_2 1_555 1_555
C22_2 C5_2 1_555 1_555
C23_2 C8_2 1_555 1_555
C29_2 C28_2 1_555 1_555
H9_2 C21_2 1_555 1_555
H10_2 C22_2 1_555 1_555
H11_2 C23_2 1_555 1_555
H12_2 C28_2 1_555 1_555
H13_2 C29_2 1_555 1_555
Eu6 O6_2 1_555 1_555
Eu4 O5_2 1_555 1_555
C21_2 C22_2 1_555 1_555
Eu2_4 O1_8 1_555 1_555
O10_2 Eu2_4 1_555 1_555
O12_2 Eu2_4 1_555 1_555
O1_8 H16_2 1_555 1_555
O3_2 C20_2 1_555 1_555
O4_2 C20_2 1_555 1_555
C10_2 C9_2 1_555 1_555
C11_2 C10_2 1_555 1_555
C12_2 C10_2 1_555 1_555
C13_2 C12_2 1_555 1_555
C14_2 C13_2 1_555 1_555
C15_2 C14_2 1_555 1_555
C16_2 C15_2 1_555 1_555
C17_2 C16_2 1_555 1_555
C18_2 C17_2 1_555 1_555
C19_2 C14_2 1_555 1_555
C20_2 C17_2 1_555 1_555
H3_2 C9_2 1_555 1_555
H4_2 C11_2 1_555 1_555
H5_2 C15_2 1_555 1_555
H6_2 C16_2 1_555 1_555
H7_2 C18_2 1_555 1_555
H8_2 C19_2 1_555 1_555
O11 C33_2 1_555 1_555
C24_2 C11_2 1_555 1_555
C25_2 C24_2 1_555 1_555
C26_2 C25_2 1_555 1_555
C27_2 C26_2 1_555 1_555
C31_2 C30_2 1_555 1_555
C32_2 C27_2 1_555 1_555
C33_2 C30_2 1_555 1_555
H14_2 C31_2 1_555 1_555
H15_2 C32_2 1_555 1_555
Eu3 O3_2 1_555 1_555
Eu5 O4_2 1_555 1_555
C18_2 C19_2 1_555 1_555
C31_2 C32_2 1_555 1_555
O9 C20_3 1_555 1_555
O4_3 C20_3 1_555 1_555
C10_3 C9_3 1_555 1_555
C11_3 C10_3 1_555 1_555
C12_3 C10_3 1_555 1_555
C13_3 C12_3 1_555 1_555
C14_3 C13_3 1_555 1_555
C15_3 C14_3 1_555 1_555
C16_3 C15_3 1_555 1_555
C17_3 C16_3 1_555 1_555
C18_3 C17_3 1_555 1_555
C19_3 C14_3 1_555 1_555
C20_3 C17_3 1_555 1_555
H3_3 C9_3 1_555 1_555
H4_3 C11_3 1_555 1_555
H5_3 C15_3 1_555 1_555
H6_3 C16_3 1_555 1_555
H7_3 C18_3 1_555 1_555
H8_3 C19_3 1_555 1_555
O11_2 C33_3 1_555 1_555
C24_3 C11_3 1_555 1_555
C25_3 C24_3 1_555 1_555
C26_3 C25_3 1_555 1_555
C27_3 C26_3 1_555 1_555
C31_3 C30_3 1_555 1_555
C32_3 C27_3 1_555 1_555
C33_3 C30_3 1_555 1_555
H14_3 C31_3 1_555 1_555
H15_3 C32_3 1_555 1_555
C18_3 C19_3 1_555 1_555
C31_3 C32_3 1_555 1_555
Eu3 O1_9 1_555 1_555
O2_3 Eu3 1_555 1_555
C1_3 O2_3 1_555 1_555
C2_3 C1_3 1_555 1_555
C3_3 C2_3 1_555 1_555
C4_3 C3_3 1_555 1_555
C5_3 C4_3 1_555 1_555
C6_3 C5_3 1_555 1_555
C7_3 C6_3 1_555 1_555
C8_3 C7_3 1_555 1_555
H1_3 C3_3 1_555 1_555
H2_3 C4_3 1_555 1_555
O5_3 C1_3 1_555 1_555
C21_3 C2_3 1_555 1_555
C22_3 C5_3 1_555 1_555
C23_3 C8_3 1_555 1_555
C29_3 C28_3 1_555 1_555
H9_3 C21_3 1_555 1_555
H10_3 C22_3 1_555 1_555
H11_3 C23_3 1_555 1_555
H12_3 C28_3 1_555 1_555
H13_3 C29_3 1_555 1_555
Eu4 O6_3 1_555 1_555
Eu5 O5_3 1_555 1_555
C21_3 C22_3 1_555 1_555
Eu3_2 O1_10 1_555 1_555
O8_3 Eu3_2 1_555 1_555
O10_3 Eu3_2 1_555 1_555
O12_3 Eu3_2 1_555 1_555
O1_10 H16_3 1_555 1_555
O1_10 H17_3 1_555 1_555
O1_5 H16_4 1_555 1_555
O10 C20_4 1_555 1_555
O4_4 C20_4 1_555 1_555
C1_4 O8_2 1_555 1_555
C2_4 C1_4 1_555 1_555
C3_4 C2_4 1_555 1_555
C4_4 C3_4 1_555 1_555
C5_4 C4_4 1_555 1_555
C6_4 C5_4 1_555 1_555
C7_4 C6_4 1_555 1_555
C8_4 C7_4 1_555 1_555
C9_4 C8_4 1_555 1_555
C10_4 C9_4 1_555 1_555
C11_4 C10_4 1_555 1_555
C12_4 C10_4 1_555 1_555
C13_4 C12_4 1_555 1_555
C14_4 C13_4 1_555 1_555
C15_4 C14_4 1_555 1_555
C16_4 C15_4 1_555 1_555
C17_4 C16_4 1_555 1_555
C18_4 C17_4 1_555 1_555
C19_4 C14_4 1_555 1_555
C20_4 C17_4 1_555 1_555
H1_4 C3_4 1_555 1_555
H2_4 C4_4 1_555 1_555
H3_4 C9_4 1_555 1_555
H4_4 C11_4 1_555 1_555
H5_4 C15_4 1_555 1_555
H6_4 C16_4 1_555 1_555
H7_4 C18_4 1_555 1_555
H8_4 C19_4 1_555 1_555
O5_4 C1_4 1_555 1_555
O6_4 C33_4 1_555 1_555
O12_3 C33_4 1_555 1_555
C21_4 C2_4 1_555 1_555
C22_4 C5_4 1_555 1_555
C23_4 C8_4 1_555 1_555
C24_4 C11_4 1_555 1_555
C25_4 C24_4 1_555 1_555
C26_4 C25_4 1_555 1_555
C27_4 C26_4 1_555 1_555
C28_4 C27_4 1_555 1_555
C29_4 C28_4 1_555 1_555
C30_4 C29_4 1_555 1_555
C31_4 C30_4 1_555 1_555
C32_4 C27_4 1_555 1_555
C33_4 C30_4 1_555 1_555
H9_4 C21_4 1_555 1_555
H10_4 C22_4 1_555 1_555
H11_4 C23_4 1_555 1_555
H12_4 C28_4 1_555 1_555
H13_4 C29_4 1_555 1_555
H14_4 C31_4 1_555 1_555
H15_4 C32_4 1_555 1_555
Eu5_2 O6_4 1_555 1_555
Eu6_2 O5_4 1_555 1_555
C18_4 C19_4 1_555 1_555
C21_4 C22_4 1_555 1_555
C23_4 C24_4 1_555 1_555
C31_4 C32_4 1_555 1_555
O1_7 H17_4 1_555 1_555
O1 H17_5 1_555 1_555
O1_3 H16_5 1_555 1_555
C1_5 O8 1_555 1_555
C2_5 C1_5 1_555 1_555
C3_5 C2_5 1_555 1_555
C4_5 C3_5 1_555 1_555
C5_5 C4_5 1_555 1_555
C6_5 C5_5 1_555 1_555
C7_5 C6_5 1_555 1_555
C8_5 C7_5 1_555 1_555
H1_5 C3_5 1_555 1_555
H2_5 C4_5 1_555 1_555
O5_5 C1_5 1_555 1_555
C21_5 C2_5 1_555 1_555
C22_5 C5_5 1_555 1_555
C23_5 C8_5 1_555 1_555
C29_5 C28_5 1_555 1_555
H9_5 C21_5 1_555 1_555
H10_5 C22_5 1_555 1_555
H11_5 C23_5 1_555 1_555
H12_5 C28_5 1_555 1_555
H13_5 C29_5 1_555 1_555
Eu6_2 O6_5 1_555 1_555
Eu4_2 O5_5 1_555 1_555
C21_5 C22_5 1_555 1_555
O10_3 C20_5 1_555 1_555
O4_5 C20_5 1_555 1_555
C10_5 C9_5 1_555 1_555
C11_5 C10_5 1_555 1_555
C12_5 C10_5 1_555 1_555
C13_5 C12_5 1_555 1_555
C14_5 C13_5 1_555 1_555
C15_5 C14_5 1_555 1_555
C16_5 C15_5 1_555 1_555
C17_5 C16_5 1_555 1_555
C18_5 C17_5 1_555 1_555
C19_5 C14_5 1_555 1_555
C20_5 C17_5 1_555 1_555
H3_5 C9_5 1_555 1_555
H4_5 C11_5 1_555 1_555
H5_5 C15_5 1_555 1_555
H6_5 C16_5 1_555 1_555
H7_5 C18_5 1_555 1_555
H8_5 C19_5 1_555 1_555
O12_2 C33_5 1_555 1_555
C24_5 C11_5 1_555 1_555
C25_5 C24_5 1_555 1_555
C26_5 C25_5 1_555 1_555
C27_5 C26_5 1_555 1_555
C31_5 C30_5 1_555 1_555
C32_5 C27_5 1_555 1_555
C33_5 C30_5 1_555 1_555
H14_5 C31_5 1_555 1_555
H15_5 C32_5 1_555 1_555
Eu5_2 O4_5 1_555 1_555
C18_5 C19_5 1_555 1_555
C31_5 C32_5 1_555 1_555
O10_2 C20_6 1_555 1_555
O4_6 C20_6 1_555 1_555
C10_6 C9_6 1_555 1_555
C11_6 C10_6 1_555 1_555
C12_6 C10_6 1_555 1_555
C13_6 C12_6 1_555 1_555
C14_6 C13_6 1_555 1_555
C15_6 C14_6 1_555 1_555
C16_6 C15_6 1_555 1_555
C17_6 C16_6 1_555 1_555
C18_6 C17_6 1_555 1_555
C19_6 C14_6 1_555 1_555
C20_6 C17_6 1_555 1_555
H3_6 C9_6 1_555 1_555
H4_6 C11_6 1_555 1_555
H5_6 C15_6 1_555 1_555
H6_6 C16_6 1_555 1_555
H7_6 C18_6 1_555 1_555
H8_6 C19_6 1_555 1_555
O12 C33_6 1_555 1_555
C24_6 C11_6 1_555 1_555
C25_6 C24_6 1_555 1_555
C26_6 C25_6 1_555 1_555
C27_6 C26_6 1_555 1_555
C31_6 C30_6 1_555 1_555
C32_6 C27_6 1_555 1_555
C33_6 C30_6 1_555 1_555
H14_6 C31_6 1_555 1_555
H15_6 C32_6 1_555 1_555
C18_6 C19_6 1_555 1_555
C31_6 C32_6 1_555 1_555
O1_9 H16_6 1_555 1_555
O1_9 H17_6 1_555 1_555
C1_6 O8_3 1_555 1_555
C2_6 C1_6 1_555 1_555
C3_6 C2_6 1_555 1_555
C4_6 C3_6 1_555 1_555
C5_6 C4_6 1_555 1_555
C6_6 C5_6 1_555 1_555
C7_6 C6_6 1_555 1_555
C8_6 C7_6 1_555 1_555
H1_6 C3_6 1_555 1_555
H2_6 C4_6 1_555 1_555
O5_6 C1_6 1_555 1_555
C21_6 C2_6 1_555 1_555
C22_6 C5_6 1_555 1_555
C23_6 C8_6 1_555 1_555
C29_6 C28_6 1_555 1_555
H9_6 C21_6 1_555 1_555
H10_6 C22_6 1_555 1_555
H11_6 C23_6 1_555 1_555
H12_6 C28_6 1_555 1_555
H13_6 C29_6 1_555 1_555
Eu4_2 O6_6 1_555 1_555
Eu5_2 O5_6 1_555 1_555
C21_6 C22_6 1_555 1_555
C2_7 C1_7 1_555 1_555
C3_7 C2_7 1_555 1_555
C4_7 C3_7 1_555 1_555
C5_7 C4_7 1_555 1_555
C6_7 C5_7 1_555 1_555
C7_7 C6_7 1_555 1_555
C8_7 C7_7 1_555 1_555
H1_7 C3_7 1_555 1_555
H2_7 C4_7 1_555 1_555
H4_7 C11_7 1_555 1_555
O5_7 C1_7 1_555 1_555
O6_7 C33_7 1_555 1_555
O7_2 C33_7 1_555 1_555
C23_7 C8_7 1_555 1_555
C24_7 C11_7 1_555 1_555
C25_7 C24_7 1_555 1_555
C26_7 C25_7 1_555 1_555
C27_7 C26_7 1_555 1_555
C28_7 C27_7 1_555 1_555
C29_7 C28_7 1_555 1_555
C30_7 C29_7 1_555 1_555
C31_7 C30_7 1_555 1_555
C32_7 C27_7 1_555 1_555
C33_7 C30_7 1_555 1_555
H11_7 C23_7 1_555 1_555
H12_7 C28_7 1_555 1_555
H13_7 C29_7 1_555 1_555
H14_7 C31_7 1_555 1_555
H15_7 C32_7 1_555 1_555
Eu4_2 O6_7 1_555 1_555
Eu6_2 O5_7 1_555 1_555
C23_7 C24_7 1_555 1_555
C31_7 C32_7 1_555 1_555
Eu4 O1_11 1_555 1_555
O2_4 Eu4 1_555 1_555
O3_3 C20_7 1_555 1_555
O4_7 C20_7 1_555 1_555
C1_8 O2_4 1_555 1_555
C2_8 C1_8 1_555 1_555
C6_8 C5_8 1_555 1_555
C7_8 C6_8 1_555 1_555
C8_8 C7_8 1_555 1_555
C9_7 C8_8 1_555 1_555
C10_7 C9_7 1_555 1_555
C11_8 C10_7 1_555 1_555
C12_7 C10_7 1_555 1_555
C13_7 C12_7 1_555 1_555
C14_7 C13_7 1_555 1_555
C15_7 C14_7 1_555 1_555
C16_7 C15_7 1_555 1_555
C17_7 C16_7 1_555 1_555
C18_7 C17_7 1_555 1_555
C19_7 C14_7 1_555 1_555
C20_7 C17_7 1_555 1_555
H3_7 C9_7 1_555 1_555
H4_8 C11_8 1_555 1_555
H5_7 C15_7 1_555 1_555
H6_7 C16_7 1_555 1_555
H7_7 C18_7 1_555 1_555
H8_7 C19_7 1_555 1_555
C21_7 C2_8 1_555 1_555
C22_7 C5_8 1_555 1_555
H9_7 C21_7 1_555 1_555
H10_7 C22_7 1_555 1_555
Eu5 O3_3 1_555 1_555
Eu5_2 O4_7 1_555 1_555
O9_2 Eu4 1_555 1_555
C18_7 C19_7 1_555 1_555
C21_7 C22_7 1_555 1_555
Eu5 O1_12 1_555 1_555
O2_5 Eu5 1_555 1_555
O3_4 C20_8 1_555 1_555
O4_8 C20_8 1_555 1_555
C1_9 O2_5 1_555 1_555
C2_9 C1_9 1_555 1_555
C3_8 C2_9 1_555 1_555
C4_8 C3_8 1_555 1_555
C5_9 C4_8 1_555 1_555
C6_9 C5_9 1_555 1_555
C7_9 C6_9 1_555 1_555
C8_9 C7_9 1_555 1_555
C9_8 C8_9 1_555 1_555
C10_8 C9_8 1_555 1_555
C11_9 C10_8 1_555 1_555
C12_8 C10_8 1_555 1_555
C13_8 C12_8 1_555 1_555
C14_8 C13_8 1_555 1_555
C15_8 C14_8 1_555 1_555
C16_8 C15_8 1_555 1_555
C17_8 C16_8 1_555 1_555
C18_8 C17_8 1_555 1_555
C19_8 C14_8 1_555 1_555
C20_8 C17_8 1_555 1_555
H1_8 C3_8 1_555 1_555
H2_8 C4_8 1_555 1_555
H3_8 C9_8 1_555 1_555
H4_9 C11_9 1_555 1_555
H5_8 C15_8 1_555 1_555
H6_8 C16_8 1_555 1_555
H7_8 C18_8 1_555 1_555
H8_8 C19_8 1_555 1_555
O5_8 C1_9 1_555 1_555
O6_8 C33_8 1_555 1_555
O11_3 C33_8 1_555 1_555
C21_8 C2_9 1_555 1_555
C22_8 C5_9 1_555 1_555
C23_8 C8_9 1_555 1_555
C24_8 C11_9 1_555 1_555
C25_8 C24_8 1_555 1_555
C26_8 C25_8 1_555 1_555
C27_8 C26_8 1_555 1_555
C28_8 C27_8 1_555 1_555
C29_8 C28_8 1_555 1_555
C30_8 C29_8 1_555 1_555
C31_8 C30_8 1_555 1_555
C32_8 C27_8 1_555 1_555
C33_8 C30_8 1_555 1_555
H9_8 C21_8 1_555 1_555
H10_8 C22_8 1_555 1_555
H11_8 C23_8 1_555 1_555
H12_8 C28_8 1_555 1_555
H13_8 C29_8 1_555 1_555
H14_8 C31_8 1_555 1_555
H15_8 C32_8 1_555 1_555
Eu6 O3_4 1_555 1_555
Eu6_2 O6_8 1_555 1_555
Eu5_2 O5_8 1_555 1_555
O11_4 Eu5 1_555 1_555
C18_8 C19_8 1_555 1_555
C21_8 C22_8 1_555 1_555
C23_8 C24_8 1_555 1_555
C31_8 C32_8 1_555 1_555
Eu6 O1_13 1_555 1_555
O2_6 Eu6 1_555 1_555
O9_2 C20_9 1_555 1_555
O4_9 C20_9 1_555 1_555
C1_10 O2_6 1_555 1_555
C2_10 C1_10 1_555 1_555
C6_10 C5_10 1_555 1_555
C7_10 C6_10 1_555 1_555
C8_10 C7_10 1_555 1_555
C9_9 C8_10 1_555 1_555
C10_9 C9_9 1_555 1_555
C11_10 C10_9 1_555 1_555
C12_9 C10_9 1_555 1_555
C13_9 C12_9 1_555 1_555
C14_9 C13_9 1_555 1_555
C15_9 C14_9 1_555 1_555
C16_9 C15_9 1_555 1_555
C17_9 C16_9 1_555 1_555
C18_9 C17_9 1_555 1_555
C19_9 C14_9 1_555 1_555
C20_9 C17_9 1_555 1_555
H3_9 C9_9 1_555 1_555
H4_10 C11_10 1_555 1_555
H5_9 C15_9 1_555 1_555
H6_9 C16_9 1_555 1_555
H7_9 C18_9 1_555 1_555
H8_9 C19_9 1_555 1_555
C21_9 C2_10 1_555 1_555
C22_9 C5_10 1_555 1_555
H9_9 C21_9 1_555 1_555
H10_9 C22_9 1_555 1_555
C18_9 C19_9 1_555 1_555
C21_9 C22_9 1_555 1_555
C2_11 C1_11 1_555 1_555
C3_9 C2_11 1_555 1_555
C4_9 C3_9 1_555 1_555
C5_11 C4_9 1_555 1_555
C6_11 C5_11 1_555 1_555
C7_11 C6_11 1_555 1_555
C8_11 C7_11 1_555 1_555
H1_9 C3_9 1_555 1_555
H2_9 C4_9 1_555 1_555
H4_11 C11_11 1_555 1_555
O5_9 C1_11 1_555 1_555
O6_9 C33_9 1_555 1_555
O11_4 C33_9 1_555 1_555
C23_9 C8_11 1_555 1_555
C24_9 C11_11 1_555 1_555
C25_9 C24_9 1_555 1_555
C26_9 C25_9 1_555 1_555
C27_9 C26_9 1_555 1_555
C28_9 C27_9 1_555 1_555
C29_9 C28_9 1_555 1_555
C30_9 C29_9 1_555 1_555
C31_9 C30_9 1_555 1_555
C32_9 C27_9 1_555 1_555
C33_9 C30_9 1_555 1_555
H11_9 C23_9 1_555 1_555
H12_9 C28_9 1_555 1_555
H13_9 C29_9 1_555 1_555
H14_9 C31_9 1_555 1_555
H15_9 C32_9 1_555 1_555
Eu5_2 O6_9 1_555 1_555
Eu4_2 O5_9 1_555 1_555
C23_9 C24_9 1_555 1_555
C31_9 C32_9 1_555 1_555
Eu5_2 O1_14 1_555 1_555
Eu4_2 O1_15 1_555 1_555
Eu6_2 O1_16 1_555 1_555

#END
