
###############################################################################
#
# This file contains modified crystal structure data generated from the
# MOF subset of the Cambridge Structural Database (CSD) v543 
# hosted by the Cambridge Crystallographic Data Centre (CCDC).
#
# This work is licensed under the Creative Commons
# Attribution-NonCommercial-ShareAlike 4.0 International License.
# To view a copy of this license, visit
# http://creativecommons.org/licenses/by-nc-sa/4.0/
# or send a letter to
# Creative Commons, PO Box 1866, Mountain View, CA 94042, USA.
#
# CIF created using the CSD Python API on 29 September 2022
# The structure has been converted into the P1 space group
# The structure has a 3D framework
# The original CSD entry RUZRUC is in the orthorhombic crystal system
# The framework has been calculated to contain at least 10.0% void space
# The void calculation uses a probe of radius 1.32A, grid spacing 0.4
# H atom positions have been added when not included in the experimental data
#
###############################################################################

data_RUZRUC
_chemical_formula_moiety         '(C168 H120 Co24 N8 O108)n'
_symmetry_cell_setting           triclinic
_symmetry_space_group_name_H-M   'P 1'
_symmetry_Int_Tables_number      1
_space_group_name_Hall           'P 1'
loop_
_symmetry_equiv_pos_site_id
_symmetry_equiv_pos_as_xyz
1 x,y,z
_cell_length_a                   19.1941(9)
_cell_length_b                   21.2228(10)
_cell_length_c                   17.7926(8)
_cell_angle_alpha                90
_cell_angle_beta                 90
_cell_angle_gamma                90
_cell_volume                     7247.86
loop_
_atom_site_label
_atom_site_type_symbol
_atom_site_fract_x
_atom_site_fract_y
_atom_site_fract_z
C2 C 0.0270(3) 0.7709(3) 0.2121(4)
O4 O 0.1728(3) 0.6524(3) 0.3113(3)
C3 C 0.0734(4) 0.7287(3) 0.2455(4)
H1 H 0.068089 0.717827 0.296934
O5 O 0.2233(3) 0.6322(3) 0.2007(3)
C4 C 0.1275(4) 0.7026(3) 0.2038(3)
C5 C 0.1353(4) 0.7191(3) 0.1283(4)
H2 H 0.171878 0.700973 0.099494
C6 C 0.0902(4) 0.7617(3) 0.0952(3)
C7 C 0.0359(4) 0.7885(3) 0.1367(4)
H3 H 0.005466 0.818247 0.114148
C8 C 0.1787(3) 0.6583(3) 0.2406(4)
C9 C 0.0993(4) 0.7804(4) 0.0138(4)
Co5 Co 0.32950(4) 0.63923(3) 0.22139(5)
Co9 Co 0.23398(5) 0.59396(4) 0.37285(5)
O6 O 0.1398(3) 0.7466(3) 0.9741(3)
O7 O 0.0658(4) 0.8249(3) 0.9876(3)
Co6 Co 0.13885(4) 0.77960(3) 0.87086(5)
Co1 Co 0.82950(4) 0.86077(3) 0.22139(5)
O1 O 0.8252(2) 0.8617(2) 0.3392(3)
Co2 Co 0.86115(4) 0.77960(3) 0.37086(5)
Co3 Co 0.73398(5) 0.90604(4) 0.37285(5)
O2 O 0.9368(3) 0.8448(2) 0.2286(3)
C1 C 0.9664(4) 0.7975(3) 0.2554(4)
O3 O 0.9500(3) 0.7688(3) 0.3155(3)
O8 O 0.8142(4) 0.7633(2) 0.2092(3)
C10 C 0.7970(4) 0.7178(3) 0.2488(4)
O9 O 0.8023(4) 0.7150(2) 0.3201(3)
C11 C 0.7681(4) 0.6606(3) 0.2099(4)
O10 O 0.7423(3) 0.4850(2) 0.3123(3)
C12 C 0.7488(4) 0.6077(3) 0.2504(4)
H4 H 0.752891 0.607324 0.303652
O11 O 0.6638(3) 0.4579(2) 0.2244(3)
C13 C 0.7232(4) 0.5543(3) 0.2122(4)
C14 C 0.7173(4) 0.5550(3) 0.1339(3)
H5 H 0.699182 0.519376 0.108065
C15 C 0.7381(4) 0.6083(3) 0.0938(4)
C16 C 0.7625(4) 0.6611(3) 0.1318(4)
H6 H 0.775407 0.697683 0.104459
C17 C 0.7419(4) 0.6058(3) 0.0099(4)
C18 C 0.7089(4) 0.4939(3) 0.2530(3)
O14 O 0.8464(5) 0.8693(4) 0.1050(4)
C19 C 0.8401(11) 0.8358(9) 0.0600(10)
H7 H 0.825817 0.794488 0.073438
O15 O 0.6416(4) 0.9532(5) 0.4075(4)
Co4 Co 0.67050(4) 0.36077(3) 0.22139(5)
Co8 Co 0.76602(5) 0.40604(4) 0.37285(5)
O16 O 0.6728(3) 0.8476(3) 0.3113(3)
O17 O 0.7233(3) 0.8678(3) 0.2007(3)
O18 O 0.8602(3) 0.7466(3) 0.4741(3)
O19 O 0.7577(3) 0.9850(2) 0.3123(3)
O20 O 0.8362(3) 0.9579(2) 0.2244(3)
O21 O 0.7818(3) 0.9423(2) 0.4752(3)
O22 O 0.7289(4) 0.8507(3) 0.4747(3)
H14 H 0.630433 0.987233 0.371145
H15 H 0.602449 0.922655 0.409371
O12 O 0.7182(3) 0.5577(2) 0.9752(3)
O13 O 0.7711(4) 0.6493(3) 0.9747(3)
N1 N 0.8504(13) 0.8473(12) 0.9865(8)
C20 C 0.8346(16) 0.7931(15) 0.9257(17)
H8 H 0.785841 0.796001 0.909571
H9 H 0.842929 0.751699 0.948362
H10 H 0.865196 0.798595 0.882150
C21 C 0.8897(14) 0.9019(11) 0.9587(15)
H11 H 0.926868 0.912283 0.994289
H12 H 0.858231 0.937991 0.953459
H13 H 0.910120 0.891798 0.909635
Co7 Co 0.76602(5) 0.59396(4) 0.87285(5)
Co1_2 Co 0.17050(4) 0.13923(3) 0.22139(5)
O1_2 O 0.1748(2) 0.1383(2) 0.3392(3)
Co2_2 Co 0.13885(4) 0.22040(3) 0.37086(5)
Co3_2 Co 0.26602(5) 0.09396(4) 0.37285(5)
O2_2 O 0.0632(3) 0.1552(2) 0.2286(3)
C1_2 C 0.0336(4) 0.2025(3) 0.2554(4)
O3_2 O 0.0500(3) 0.2312(3) 0.3155(3)
O8_2 O 0.1858(4) 0.2367(2) 0.2092(3)
C10_2 C 0.2030(4) 0.2822(3) 0.2488(4)
O9_2 O 0.1977(4) 0.2850(2) 0.3201(3)
C11_2 C 0.2319(4) 0.3394(3) 0.2099(4)
O10_2 O 0.2577(3) 0.5150(2) 0.3123(3)
C12_2 C 0.2512(4) 0.3923(3) 0.2504(4)
H4_2 H 0.247109 0.392676 0.303652
O11_2 O 0.3362(3) 0.5421(2) 0.2244(3)
C13_2 C 0.2768(4) 0.4457(3) 0.2122(4)
C14_2 C 0.2827(4) 0.4450(3) 0.1339(3)
H5_2 H 0.300818 0.480624 0.108065
C15_2 C 0.2619(4) 0.3917(3) 0.0938(4)
C16_2 C 0.2375(4) 0.3389(3) 0.1318(4)
H6_2 H 0.224593 0.302317 0.104459
C17_2 C 0.2581(4) 0.3942(3) 0.0099(4)
C18_2 C 0.2911(4) 0.5061(3) 0.2530(3)
O14_2 O 0.1536(5) 0.1307(4) 0.1050(4)
C19_2 C 0.1599(11) 0.1642(9) 0.0600(10)
H7_2 H 0.174183 0.205512 0.073438
O15_2 O 0.3584(4) 0.0468(5) 0.4075(4)
O16_2 O 0.3272(3) 0.1524(3) 0.3113(3)
O17_2 O 0.2767(3) 0.1322(3) 0.2007(3)
O18_2 O 0.1398(3) 0.2534(3) 0.4741(3)
O19_2 O 0.2423(3) 0.0150(2) 0.3123(3)
O20_2 O 0.1638(3) 0.0421(2) 0.2244(3)
O21_2 O 0.2182(3) 0.0577(2) 0.4752(3)
O22_2 O 0.2711(4) 0.1493(3) 0.4747(3)
H14_2 H 0.369567 0.0127671 0.371145
H15_2 H 0.397551 0.0773453 0.409371
O12_2 O 0.2818(3) 0.4423(2) 0.9752(3)
O13_2 O 0.2289(4) 0.3507(3) 0.9747(3)
N1_2 N 0.1496(13) 0.1527(12) 0.9865(8)
C20_2 C 0.1654(16) 0.2069(15) 0.9257(17)
H8_2 H 0.214159 0.203999 0.909571
H9_2 H 0.157071 0.248301 0.948362
H10_2 H 0.134804 0.201405 0.882150
C21_2 C 0.1103(14) 0.0981(11) 0.9587(15)
H11_2 H 0.073132 0.087717 0.994289
H12_2 H 0.141769 0.062009 0.953459
H13_2 H 0.089880 0.108202 0.909635
Co7_2 Co 0.23398(5) 0.40604(4) 0.87285(5)
C2_2 C 0.9730(3) 0.2291(3) 0.2121(4)
O4_2 O 0.8272(3) 0.3476(3) 0.3113(3)
C3_2 C 0.9266(4) 0.2713(3) 0.2455(4)
H1_2 H 0.931911 0.282173 0.296934
O5_2 O 0.7767(3) 0.3678(3) 0.2007(3)
C4_2 C 0.8725(4) 0.2974(3) 0.2038(3)
C5_2 C 0.8647(4) 0.2809(3) 0.1283(4)
H2_2 H 0.828122 0.299027 0.099494
C6_2 C 0.9098(4) 0.2383(3) 0.0952(3)
C7_2 C 0.9641(4) 0.2115(3) 0.1367(4)
H3_2 H 0.994534 0.181753 0.114148
C8_2 C 0.8213(3) 0.3417(3) 0.2406(4)
C9_2 C 0.9007(4) 0.2196(4) 0.0138(4)
O6_2 O 0.8602(3) 0.2534(3) 0.9741(3)
O7_2 O 0.9342(4) 0.1751(3) 0.9876(3)
Co6_2 Co 0.86115(4) 0.22040(3) 0.87086(5)
Co1_3 Co 0.17050(4) 0.86077(3) 0.72139(5)
O1_3 O 0.1748(2) 0.8617(2) 0.8392(3)
Co3_3 Co 0.26602(5) 0.90604(4) 0.87285(5)
O2_3 O 0.0632(3) 0.8448(2) 0.7286(3)
C1_3 C 0.0336(4) 0.7975(3) 0.7554(4)
O3_3 O 0.0500(3) 0.7688(3) 0.8155(3)
O8_3 O 0.1858(4) 0.7633(2) 0.7092(3)
C10_3 C 0.2030(4) 0.7178(3) 0.7488(4)
O9_3 O 0.1977(4) 0.7150(2) 0.8201(3)
C11_3 C 0.2319(4) 0.6606(3) 0.7099(4)
O10_3 O 0.2577(3) 0.4850(2) 0.8123(3)
C12_3 C 0.2512(4) 0.6077(3) 0.7504(4)
H4_3 H 0.247109 0.607324 0.803652
O11_3 O 0.3362(3) 0.4579(2) 0.7244(3)
C13_3 C 0.2768(4) 0.5543(3) 0.7122(4)
O12_3 O 0.2818(3) 0.5577(2) 0.4752(3)
C14_3 C 0.2827(4) 0.5550(3) 0.6339(3)
H5_3 H 0.300818 0.519376 0.608065
O13_3 O 0.2289(4) 0.6493(3) 0.4747(3)
C15_3 C 0.2619(4) 0.6083(3) 0.5938(4)
C16_3 C 0.2375(4) 0.6611(3) 0.6318(4)
H6_3 H 0.224593 0.697683 0.604459
C17_3 C 0.2581(4) 0.6058(3) 0.5099(4)
C18_3 C 0.2911(4) 0.4939(3) 0.7530(3)
O14_3 O 0.1536(5) 0.8693(4) 0.6050(4)
N1_3 N 0.1496(13) 0.8473(12) 0.4865(8)
C19_3 C 0.1599(11) 0.8358(9) 0.5600(10)
H7_3 H 0.174183 0.794488 0.573438
C20_3 C 0.1654(16) 0.7931(15) 0.4257(17)
H8_3 H 0.214159 0.796001 0.409571
H9_3 H 0.157071 0.751699 0.448362
H10_3 H 0.134804 0.798595 0.382150
C21_3 C 0.1103(14) 0.9019(11) 0.4587(15)
H11_3 H 0.073132 0.912283 0.494289
H12_3 H 0.141769 0.937991 0.453459
H13_3 H 0.089880 0.891798 0.409635
O15_3 O 0.3584(4) 0.9532(5) 0.9075(4)
Co4_2 Co 0.32950(4) 0.36077(3) 0.72139(5)
O16_3 O 0.3272(3) 0.8476(3) 0.8113(3)
O17_3 O 0.2767(3) 0.8678(3) 0.7007(3)
O19_3 O 0.2423(3) 0.9850(2) 0.8123(3)
O20_3 O 0.1638(3) 0.9579(2) 0.7244(3)
O21_3 O 0.2182(3) 0.9423(2) 0.9752(3)
O22_3 O 0.2711(4) 0.8507(3) 0.9747(3)
H14_3 H 0.369567 0.987233 0.871145
H15_3 H 0.397551 0.922655 0.909371
C2_3 C 0.9730(3) 0.7709(3) 0.7121(4)
O4_3 O 0.8272(3) 0.6524(3) 0.8113(3)
C3_3 C 0.9266(4) 0.7287(3) 0.7455(4)
H1_3 H 0.931911 0.717827 0.796934
O5_3 O 0.7767(3) 0.6322(3) 0.7007(3)
C4_3 C 0.8725(4) 0.7026(3) 0.7038(3)
C5_3 C 0.8647(4) 0.7191(3) 0.6283(4)
H2_3 H 0.828122 0.700973 0.599494
O7_3 O 0.9342(4) 0.8249(3) 0.4876(3)
C6_3 C 0.9098(4) 0.7617(3) 0.5952(3)
C7_3 C 0.9641(4) 0.7885(3) 0.6367(4)
H3_3 H 0.994534 0.818247 0.614148
C8_3 C 0.8213(3) 0.6583(3) 0.7406(4)
C9_3 C 0.9007(4) 0.7804(4) 0.5138(4)
Co5_2 Co 0.67050(4) 0.63923(3) 0.72139(5)
C2_4 C 0.0270(3) 0.2291(3) 0.7121(4)
O4_4 O 0.1728(3) 0.3476(3) 0.8113(3)
C3_4 C 0.0734(4) 0.2713(3) 0.7455(4)
H1_4 H 0.068089 0.282173 0.796934
O5_4 O 0.2233(3) 0.3678(3) 0.7007(3)
C4_4 C 0.1275(4) 0.2974(3) 0.7038(3)
C5_4 C 0.1353(4) 0.2809(3) 0.6283(4)
H2_4 H 0.171878 0.299027 0.599494
O7_4 O 0.0658(4) 0.1751(3) 0.4876(3)
C6_4 C 0.0902(4) 0.2383(3) 0.5952(3)
C7_4 C 0.0359(4) 0.2115(3) 0.6367(4)
H3_4 H 0.005466 0.181753 0.614148
C8_4 C 0.1787(3) 0.3417(3) 0.7406(4)
C9_4 C 0.0993(4) 0.2196(4) 0.5138(4)
Co1_4 Co 0.82950(4) 0.13923(3) 0.72139(5)
O1_4 O 0.8252(2) 0.1383(2) 0.8392(3)
Co3_4 Co 0.73398(5) 0.09396(4) 0.87285(5)
O2_4 O 0.9368(3) 0.1552(2) 0.7286(3)
C1_4 C 0.9664(4) 0.2025(3) 0.7554(4)
O3_4 O 0.9500(3) 0.2312(3) 0.8155(3)
O8_4 O 0.8142(4) 0.2367(2) 0.7092(3)
C10_4 C 0.7970(4) 0.2822(3) 0.7488(4)
O9_4 O 0.8023(4) 0.2850(2) 0.8201(3)
C11_4 C 0.7681(4) 0.3394(3) 0.7099(4)
O10_4 O 0.7423(3) 0.5150(2) 0.8123(3)
C12_4 C 0.7488(4) 0.3923(3) 0.7504(4)
H4_4 H 0.752891 0.392676 0.803652
O11_4 O 0.6638(3) 0.5421(2) 0.7244(3)
C13_4 C 0.7232(4) 0.4457(3) 0.7122(4)
O12_4 O 0.7182(3) 0.4423(2) 0.4752(3)
C14_4 C 0.7173(4) 0.4450(3) 0.6339(3)
H5_4 H 0.699182 0.480624 0.608065
O13_4 O 0.7711(4) 0.3507(3) 0.4747(3)
C15_4 C 0.7381(4) 0.3917(3) 0.5938(4)
C16_4 C 0.7625(4) 0.3389(3) 0.6318(4)
H6_4 H 0.775407 0.302317 0.604459
C17_4 C 0.7419(4) 0.3942(3) 0.5099(4)
C18_4 C 0.7089(4) 0.5061(3) 0.7530(3)
O14_4 O 0.8464(5) 0.1307(4) 0.6050(4)
N1_4 N 0.8504(13) 0.1527(12) 0.4865(8)
C19_4 C 0.8401(11) 0.1642(9) 0.5600(10)
H7_4 H 0.825817 0.205512 0.573438
C20_4 C 0.8346(16) 0.2069(15) 0.4257(17)
H8_4 H 0.785841 0.203999 0.409571
H9_4 H 0.842929 0.248301 0.448362
H10_4 H 0.865196 0.201405 0.382150
C21_4 C 0.8897(14) 0.0981(11) 0.4587(15)
H11_4 H 0.926868 0.087717 0.494289
H12_4 H 0.858231 0.062009 0.453459
H13_4 H 0.910120 0.108202 0.409635
O15_4 O 0.6416(4) 0.0468(5) 0.9075(4)
O16_4 O 0.6728(3) 0.1524(3) 0.8113(3)
O17_4 O 0.7233(3) 0.1322(3) 0.7007(3)
O19_4 O 0.7577(3) 0.0150(2) 0.8123(3)
O20_4 O 0.8362(3) 0.0421(2) 0.7244(3)
O21_4 O 0.7818(3) 0.0577(2) 0.9752(3)
O22_4 O 0.7289(4) 0.1493(3) 0.9747(3)
H14_4 H 0.630433 0.0127671 0.871145
H15_4 H 0.602449 0.0773453 0.909371
O1_5 O 0.3252(2) 0.3617(2) 0.8392(3)
Co2_3 Co 0.36115(4) 0.27960(3) 0.87086(5)
O2_5 O 0.4368(3) 0.3448(2) 0.7286(3)
C1_5 C 0.4664(4) 0.2975(3) 0.7554(4)
O3_5 O 0.4500(3) 0.2688(3) 0.8155(3)
C2_5 C 0.5270(3) 0.2709(3) 0.7121(4)
C3_5 C 0.5734(4) 0.2287(3) 0.7455(4)
H1_5 H 0.568089 0.217827 0.796934
C4_5 C 0.6275(4) 0.2026(3) 0.7038(3)
O6_3 O 0.6398(3) 0.2466(3) 0.4741(3)
C5_5 C 0.6353(4) 0.2191(3) 0.6283(4)
H2_5 H 0.671878 0.200973 0.599494
O7_5 O 0.5658(4) 0.3249(3) 0.4876(3)
C6_5 C 0.5902(4) 0.2617(3) 0.5952(3)
C7_5 C 0.5359(4) 0.2885(3) 0.6367(4)
H3_5 H 0.505466 0.318247 0.614148
C8_5 C 0.6787(3) 0.1583(3) 0.7406(4)
C9_5 C 0.5993(4) 0.2804(4) 0.5138(4)
O8_5 O 0.3142(4) 0.2633(2) 0.7092(3)
C10_5 C 0.2970(4) 0.2178(3) 0.7488(4)
O9_5 O 0.3023(4) 0.2150(2) 0.8201(3)
C11_5 C 0.2681(4) 0.1606(3) 0.7099(4)
C12_5 C 0.2488(4) 0.1077(3) 0.7504(4)
H4_5 H 0.252891 0.107324 0.803652
C13_5 C 0.2232(4) 0.0543(3) 0.7122(4)
C14_5 C 0.2173(4) 0.0550(3) 0.6339(3)
H5_5 H 0.199182 0.019376 0.608065
C15_5 C 0.2381(4) 0.1083(3) 0.5938(4)
C16_5 C 0.2625(4) 0.1611(3) 0.6318(4)
H6_5 H 0.275407 0.197683 0.604459
C17_5 C 0.2419(4) 0.1058(3) 0.5099(4)
O14_5 O 0.3464(5) 0.3693(4) 0.6050(4)
N1_5 N 0.3504(13) 0.3473(12) 0.4865(8)
C19_5 C 0.3401(11) 0.3358(9) 0.5600(10)
H7_5 H 0.325817 0.294488 0.573438
C20_5 C 0.3346(16) 0.2931(15) 0.4257(17)
H8_5 H 0.285841 0.296001 0.409571
H9_5 H 0.342929 0.251699 0.448362
H10_5 H 0.365196 0.298595 0.382150
C21_5 C 0.3897(14) 0.4019(11) 0.4587(15)
H11_5 H 0.426868 0.412283 0.494289
H12_5 H 0.358231 0.437991 0.453459
H13_5 H 0.410120 0.391798 0.409635
O15_5 O 0.1416(4) 0.4532(5) 0.9075(4)
Co6_3 Co 0.63885(4) 0.27960(3) 0.37086(5)
O18_3 O 0.3602(3) 0.2466(3) 0.9741(3)
H14_5 H 0.130433 0.487233 0.871145
H15_5 H 0.102449 0.422655 0.909371
C18_5 C 0.2089(4) 0.9939(3) 0.7530(3)
C18_6 C 0.7911(4) 0.0061(3) 0.7530(3)
O1_6 O 0.6748(2) 0.6383(2) 0.8392(3)
Co2_4 Co 0.63885(4) 0.72040(3) 0.87086(5)
O2_6 O 0.5632(3) 0.6552(2) 0.7286(3)
C1_6 C 0.5336(4) 0.7025(3) 0.7554(4)
O3_6 O 0.5500(3) 0.7312(3) 0.8155(3)
C2_6 C 0.4730(3) 0.7291(3) 0.7121(4)
C3_6 C 0.4266(4) 0.7713(3) 0.7455(4)
H1_6 H 0.431911 0.782173 0.796934
C4_6 C 0.3725(4) 0.7974(3) 0.7038(3)
O6_4 O 0.3602(3) 0.7534(3) 0.4741(3)
C5_6 C 0.3647(4) 0.7809(3) 0.6283(4)
H2_6 H 0.328122 0.799027 0.599494
O7_6 O 0.4342(4) 0.6751(3) 0.4876(3)
C6_6 C 0.4098(4) 0.7383(3) 0.5952(3)
C7_6 C 0.4641(4) 0.7115(3) 0.6367(4)
H3_6 H 0.494534 0.681753 0.614148
C8_6 C 0.3213(3) 0.8417(3) 0.7406(4)
C9_6 C 0.4007(4) 0.7196(4) 0.5138(4)
O8_6 O 0.6858(4) 0.7367(2) 0.7092(3)
C10_6 C 0.7030(4) 0.7822(3) 0.7488(4)
O9_6 O 0.6977(4) 0.7850(2) 0.8201(3)
C11_6 C 0.7319(4) 0.8394(3) 0.7099(4)
C12_6 C 0.7512(4) 0.8923(3) 0.7504(4)
H4_6 H 0.747109 0.892676 0.803652
C13_6 C 0.7768(4) 0.9457(3) 0.7122(4)
C14_6 C 0.7827(4) 0.9450(3) 0.6339(3)
H5_6 H 0.800818 0.980624 0.608065
C15_6 C 0.7619(4) 0.8917(3) 0.5938(4)
C16_6 C 0.7375(4) 0.8389(3) 0.6318(4)
H6_6 H 0.724593 0.802317 0.604459
C17_6 C 0.7581(4) 0.8942(3) 0.5099(4)
O14_6 O 0.6536(5) 0.6307(4) 0.6050(4)
N1_6 N 0.6496(13) 0.6527(12) 0.4865(8)
C19_6 C 0.6599(11) 0.6642(9) 0.5600(10)
H7_6 H 0.674183 0.705512 0.573438
C20_6 C 0.6654(16) 0.7069(15) 0.4257(17)
H8_6 H 0.714159 0.703999 0.409571
H9_6 H 0.657071 0.748301 0.448362
H10_6 H 0.634804 0.701405 0.382150
C21_6 C 0.6103(14) 0.5981(11) 0.4587(15)
H11_6 H 0.573132 0.587717 0.494289
H12_6 H 0.641769 0.562009 0.453459
H13_6 H 0.589880 0.608202 0.409635
O15_6 O 0.8584(4) 0.5468(5) 0.9075(4)
Co6_4 Co 0.36115(4) 0.72040(3) 0.37086(5)
O18_4 O 0.6398(3) 0.7534(3) 0.9741(3)
H14_6 H 0.869567 0.512767 0.871145
H15_6 H 0.897551 0.577345 0.909371
O1_7 O 0.6748(2) 0.3617(2) 0.3392(3)
O2_7 O 0.5632(3) 0.3448(2) 0.2286(3)
C1_7 C 0.5336(4) 0.2975(3) 0.2554(4)
O3_7 O 0.5500(3) 0.2688(3) 0.3155(3)
C2_7 C 0.4730(3) 0.2709(3) 0.2121(4)
C3_7 C 0.4266(4) 0.2287(3) 0.2455(4)
H1_7 H 0.431911 0.217827 0.296934
C4_7 C 0.3725(4) 0.2026(3) 0.2038(3)
C5_7 C 0.3647(4) 0.2191(3) 0.1283(4)
H2_7 H 0.328122 0.200973 0.099494
C6_7 C 0.4098(4) 0.2617(3) 0.0952(3)
C7_7 C 0.4641(4) 0.2885(3) 0.1367(4)
H3_7 H 0.494534 0.318247 0.114148
C8_7 C 0.3213(3) 0.1583(3) 0.2406(4)
C9_7 C 0.4007(4) 0.2804(4) 0.0138(4)
O8_7 O 0.6858(4) 0.2633(2) 0.2092(3)
C10_7 C 0.7030(4) 0.2178(3) 0.2488(4)
O9_7 O 0.6977(4) 0.2150(2) 0.3201(3)
C11_7 C 0.7319(4) 0.1606(3) 0.2099(4)
C12_7 C 0.7512(4) 0.1077(3) 0.2504(4)
H4_7 H 0.747109 0.107324 0.303652
C13_7 C 0.7768(4) 0.0543(3) 0.2122(4)
C14_7 C 0.7827(4) 0.0550(3) 0.1339(3)
H5_7 H 0.800818 0.019376 0.108065
C15_7 C 0.7619(4) 0.1083(3) 0.0938(4)
C16_7 C 0.7375(4) 0.1611(3) 0.1318(4)
H6_7 H 0.724593 0.197683 0.104459
C17_7 C 0.7581(4) 0.1058(3) 0.0099(4)
O14_7 O 0.6536(5) 0.3693(4) 0.1050(4)
C19_7 C 0.6599(11) 0.3358(9) 0.0600(10)
H7_7 H 0.674183 0.294488 0.073438
O15_7 O 0.8584(4) 0.4532(5) 0.4075(4)
H14_7 H 0.869567 0.487233 0.371145
H15_7 H 0.897551 0.422655 0.409371
O7_7 O 0.4342(4) 0.3249(3) 0.9876(3)
N1_7 N 0.6496(13) 0.3473(12) 0.9865(8)
C20_7 C 0.6654(16) 0.2931(15) 0.9257(17)
H8_7 H 0.714159 0.296001 0.909571
H9_7 H 0.657071 0.251699 0.948362
H10_7 H 0.634804 0.298595 0.882150
C21_7 C 0.6103(14) 0.4019(11) 0.9587(15)
H11_7 H 0.573132 0.412283 0.994289
H12_7 H 0.641769 0.437991 0.953459
H13_7 H 0.589880 0.391798 0.909635
C18_7 C 0.7911(4) 0.9939(3) 0.2530(3)
C18_8 C 0.2089(4) 0.0061(3) 0.2530(3)
O1_8 O 0.3252(2) 0.6383(2) 0.3392(3)
O2_8 O 0.4368(3) 0.6552(2) 0.2286(3)
C1_8 C 0.4664(4) 0.7025(3) 0.2554(4)
O3_8 O 0.4500(3) 0.7312(3) 0.3155(3)
C2_8 C 0.5270(3) 0.7291(3) 0.2121(4)
C3_8 C 0.5734(4) 0.7713(3) 0.2455(4)
H1_8 H 0.568089 0.782173 0.296934
C4_8 C 0.6275(4) 0.7974(3) 0.2038(3)
C5_8 C 0.6353(4) 0.7809(3) 0.1283(4)
H2_8 H 0.671878 0.799027 0.099494
C6_8 C 0.5902(4) 0.7383(3) 0.0952(3)
C7_8 C 0.5359(4) 0.7115(3) 0.1367(4)
H3_8 H 0.505466 0.681753 0.114148
C8_8 C 0.6787(3) 0.8417(3) 0.2406(4)
C9_8 C 0.5993(4) 0.7196(4) 0.0138(4)
O8_8 O 0.3142(4) 0.7367(2) 0.2092(3)
C10_8 C 0.2970(4) 0.7822(3) 0.2488(4)
O9_8 O 0.3023(4) 0.7850(2) 0.3201(3)
C11_8 C 0.2681(4) 0.8394(3) 0.2099(4)
C12_8 C 0.2488(4) 0.8923(3) 0.2504(4)
H4_8 H 0.252891 0.892676 0.303652
C13_8 C 0.2232(4) 0.9457(3) 0.2122(4)
C14_8 C 0.2173(4) 0.9450(3) 0.1339(3)
H5_8 H 0.199182 0.980624 0.108065
C15_8 C 0.2381(4) 0.8917(3) 0.0938(4)
C16_8 C 0.2625(4) 0.8389(3) 0.1318(4)
H6_8 H 0.275407 0.802317 0.104459
C17_8 C 0.2419(4) 0.8942(3) 0.0099(4)
O14_8 O 0.3464(5) 0.6307(4) 0.1050(4)
C19_8 C 0.3401(11) 0.6642(9) 0.0600(10)
H7_8 H 0.325817 0.705512 0.073438
O15_8 O 0.1416(4) 0.5468(5) 0.4075(4)
H14_8 H 0.130433 0.512767 0.371145
H15_8 H 0.102449 0.577345 0.409371
O7_8 O 0.5658(4) 0.6751(3) 0.9876(3)
N1_8 N 0.3504(13) 0.6527(12) 0.9865(8)
C20_8 C 0.3346(16) 0.7069(15) 0.9257(17)
H8_8 H 0.285841 0.703999 0.909571
H9_8 H 0.342929 0.748301 0.948362
H10_8 H 0.365196 0.701405 0.882150
C21_8 C 0.3897(14) 0.5981(11) 0.9587(15)
H11_8 H 0.426868 0.587717 0.994289
H12_8 H 0.358231 0.562009 0.953459
H13_8 H 0.410120 0.608202 0.909635
loop_
_geom_bond_atom_site_label_1
_geom_bond_atom_site_label_2
_geom_bond_site_symmetry_1
_geom_bond_site_symmetry_2
O4 C8 1_555 1_555
C3 C2 1_555 1_555
H1 C3 1_555 1_555
O5 C8 1_555 1_555
C4 C3 1_555 1_555
C5 C4 1_555 1_555
H2 C5 1_555 1_555
C6 C5 1_555 1_555
C7 C2 1_555 1_555
H3 C7 1_555 1_555
C8 C4 1_555 1_555
C9 C6 1_555 1_555
Co5 O5 1_555 1_555
Co9 O4 1_555 1_555
C6 C7 1_555 1_555
Co6 O6 1_555 1_555
Co1 O1 1_555 1_555
O1 Co2 1_555 1_555
Co2 O3 1_555 1_555
Co3 O1 1_555 1_555
O2 Co1 1_555 1_555
C1 O2 1_555 1_555
O3 C1 1_555 1_555
O8 Co1 1_555 1_555
C10 O8 1_555 1_555
O9 Co2 1_555 1_555
C11 C10 1_555 1_555
O10 C18 1_555 1_555
C12 C11 1_555 1_555
H4 C12 1_555 1_555
O11 C18 1_555 1_555
C13 C12 1_555 1_555
C14 C13 1_555 1_555
H5 C14 1_555 1_555
C15 C14 1_555 1_555
C16 C11 1_555 1_555
H6 C16 1_555 1_555
C17 C15 1_555 1_555
C18 C13 1_555 1_555
O14 Co1 1_555 1_555
C19 O14 1_555 1_555
H7 C19 1_555 1_555
O15 Co3 1_555 1_555
Co4 O11 1_555 1_555
Co8 O10 1_555 1_555
O16 Co3 1_555 1_555
O17 Co1 1_555 1_555
O18 Co2 1_555 1_555
O19 Co3 1_555 1_555
O20 Co1 1_555 1_555
O21 Co3 1_555 1_555
O22 Co3 1_555 1_555
C10 O9 1_555 1_555
C15 C16 1_555 1_555
O15 H14 1_555 1_555
O15 H15 1_555 1_555
C20 N1 1_555 1_555
H8 C20 1_555 1_555
H9 C20 1_555 1_555
H10 C20 1_555 1_555
C21 N1 1_555 1_555
H11 C21 1_555 1_555
H12 C21 1_555 1_555
H13 C21 1_555 1_555
Co7 O12 1_555 1_555
O13 Co7 1_555 1_555
Co1_2 O1_2 1_555 1_555
O1_2 Co2_2 1_555 1_555
Co2_2 O3_2 1_555 1_555
Co3_2 O1_2 1_555 1_555
O2_2 Co1_2 1_555 1_555
C1_2 O2_2 1_555 1_555
O3_2 C1_2 1_555 1_555
O8_2 Co1_2 1_555 1_555
C10_2 O8_2 1_555 1_555
O9_2 Co2_2 1_555 1_555
C11_2 C10_2 1_555 1_555
O10_2 C18_2 1_555 1_555
C12_2 C11_2 1_555 1_555
H4_2 C12_2 1_555 1_555
O11_2 C18_2 1_555 1_555
C13_2 C12_2 1_555 1_555
C14_2 C13_2 1_555 1_555
H5_2 C14_2 1_555 1_555
C15_2 C14_2 1_555 1_555
C16_2 C11_2 1_555 1_555
H6_2 C16_2 1_555 1_555
C17_2 C15_2 1_555 1_555
C18_2 C13_2 1_555 1_555
O14_2 Co1_2 1_555 1_555
C19_2 O14_2 1_555 1_555
H7_2 C19_2 1_555 1_555
O15_2 Co3_2 1_555 1_555
Co5 O11_2 1_555 1_555
Co9 O10_2 1_555 1_555
O16_2 Co3_2 1_555 1_555
O17_2 Co1_2 1_555 1_555
O18_2 Co2_2 1_555 1_555
O19_2 Co3_2 1_555 1_555
O20_2 Co1_2 1_555 1_555
O21_2 Co3_2 1_555 1_555
O22_2 Co3_2 1_555 1_555
C10_2 O9_2 1_555 1_555
C15_2 C16_2 1_555 1_555
O15_2 H14_2 1_555 1_555
O15_2 H15_2 1_555 1_555
C20_2 N1_2 1_555 1_555
H8_2 C20_2 1_555 1_555
H9_2 C20_2 1_555 1_555
H10_2 C20_2 1_555 1_555
C21_2 N1_2 1_555 1_555
H11_2 C21_2 1_555 1_555
H12_2 C21_2 1_555 1_555
H13_2 C21_2 1_555 1_555
Co7_2 O12_2 1_555 1_555
O13_2 Co7_2 1_555 1_555
O4_2 C8_2 1_555 1_555
C3_2 C2_2 1_555 1_555
H1_2 C3_2 1_555 1_555
O5_2 C8_2 1_555 1_555
C4_2 C3_2 1_555 1_555
C5_2 C4_2 1_555 1_555
H2_2 C5_2 1_555 1_555
C6_2 C5_2 1_555 1_555
C7_2 C2_2 1_555 1_555
H3_2 C7_2 1_555 1_555
C8_2 C4_2 1_555 1_555
C9_2 C6_2 1_555 1_555
Co4 O5_2 1_555 1_555
Co8 O4_2 1_555 1_555
C6_2 C7_2 1_555 1_555
Co6_2 O6_2 1_555 1_555
Co1_3 O1_3 1_555 1_555
O1_3 Co6 1_555 1_555
Co6 O3_3 1_555 1_555
Co3_3 O1_3 1_555 1_555
O2_3 Co1_3 1_555 1_555
C1_3 O2_3 1_555 1_555
O3_3 C1_3 1_555 1_555
O8_3 Co1_3 1_555 1_555
C10_3 O8_3 1_555 1_555
O9_3 Co6 1_555 1_555
C11_3 C10_3 1_555 1_555
O10_3 C18_3 1_555 1_555
C12_3 C11_3 1_555 1_555
H4_3 C12_3 1_555 1_555
O11_3 C18_3 1_555 1_555
C13_3 C12_3 1_555 1_555
O12_3 C17_3 1_555 1_555
C14_3 C13_3 1_555 1_555
H5_3 C14_3 1_555 1_555
O13_3 C17_3 1_555 1_555
C15_3 C14_3 1_555 1_555
C16_3 C11_3 1_555 1_555
H6_3 C16_3 1_555 1_555
C17_3 C15_3 1_555 1_555
C18_3 C13_3 1_555 1_555
O14_3 Co1_3 1_555 1_555
N1_3 C19_3 1_555 1_555
C19_3 O14_3 1_555 1_555
H7_3 C19_3 1_555 1_555
C20_3 N1_3 1_555 1_555
H8_3 C20_3 1_555 1_555
H9_3 C20_3 1_555 1_555
H10_3 C20_3 1_555 1_555
C21_3 N1_3 1_555 1_555
H11_3 C21_3 1_555 1_555
H12_3 C21_3 1_555 1_555
H13_3 C21_3 1_555 1_555
O15_3 Co3_3 1_555 1_555
Co4_2 O11_3 1_555 1_555
Co9 O12_3 1_555 1_555
Co7_2 O10_3 1_555 1_555
O16_3 Co3_3 1_555 1_555
O17_3 Co1_3 1_555 1_555
O19_3 Co3_3 1_555 1_555
O20_3 Co1_3 1_555 1_555
O21_3 Co3_3 1_555 1_555
O22_3 Co3_3 1_555 1_555
C10_3 O9_3 1_555 1_555
O13_3 Co9 1_555 1_555
C15_3 C16_3 1_555 1_555
O15_3 H14_3 1_555 1_555
O15_3 H15_3 1_555 1_555
O4_3 C8_3 1_555 1_555
C3_3 C2_3 1_555 1_555
H1_3 C3_3 1_555 1_555
O5_3 C8_3 1_555 1_555
C4_3 C3_3 1_555 1_555
O18 C9_3 1_555 1_555
C5_3 C4_3 1_555 1_555
H2_3 C5_3 1_555 1_555
O7_3 C9_3 1_555 1_555
C6_3 C5_3 1_555 1_555
C7_3 C2_3 1_555 1_555
H3_3 C7_3 1_555 1_555
C8_3 C4_3 1_555 1_555
C9_3 C6_3 1_555 1_555
Co5_2 O5_3 1_555 1_555
Co7 O4_3 1_555 1_555
C6_3 C7_3 1_555 1_555
O4_4 C8_4 1_555 1_555
C3_4 C2_4 1_555 1_555
H1_4 C3_4 1_555 1_555
O5_4 C8_4 1_555 1_555
C4_4 C3_4 1_555 1_555
O18_2 C9_4 1_555 1_555
C5_4 C4_4 1_555 1_555
H2_4 C5_4 1_555 1_555
O7_4 C9_4 1_555 1_555
C6_4 C5_4 1_555 1_555
C7_4 C2_4 1_555 1_555
H3_4 C7_4 1_555 1_555
C8_4 C4_4 1_555 1_555
C9_4 C6_4 1_555 1_555
Co4_2 O5_4 1_555 1_555
Co7_2 O4_4 1_555 1_555
C6_4 C7_4 1_555 1_555
Co1_4 O1_4 1_555 1_555
O1_4 Co6_2 1_555 1_555
Co6_2 O3_4 1_555 1_555
Co3_4 O1_4 1_555 1_555
O2_4 Co1_4 1_555 1_555
C1_4 O2_4 1_555 1_555
O3_4 C1_4 1_555 1_555
O8_4 Co1_4 1_555 1_555
C10_4 O8_4 1_555 1_555
O9_4 Co6_2 1_555 1_555
C11_4 C10_4 1_555 1_555
O10_4 C18_4 1_555 1_555
C12_4 C11_4 1_555 1_555
H4_4 C12_4 1_555 1_555
O11_4 C18_4 1_555 1_555
C13_4 C12_4 1_555 1_555
O12_4 C17_4 1_555 1_555
C14_4 C13_4 1_555 1_555
H5_4 C14_4 1_555 1_555
O13_4 C17_4 1_555 1_555
C15_4 C14_4 1_555 1_555
C16_4 C11_4 1_555 1_555
H6_4 C16_4 1_555 1_555
C17_4 C15_4 1_555 1_555
C18_4 C13_4 1_555 1_555
O14_4 Co1_4 1_555 1_555
N1_4 C19_4 1_555 1_555
C19_4 O14_4 1_555 1_555
H7_4 C19_4 1_555 1_555
C20_4 N1_4 1_555 1_555
H8_4 C20_4 1_555 1_555
H9_4 C20_4 1_555 1_555
H10_4 C20_4 1_555 1_555
C21_4 N1_4 1_555 1_555
H11_4 C21_4 1_555 1_555
H12_4 C21_4 1_555 1_555
H13_4 C21_4 1_555 1_555
O15_4 Co3_4 1_555 1_555
Co5_2 O11_4 1_555 1_555
Co8 O12_4 1_555 1_555
Co7 O10_4 1_555 1_555
O16_4 Co3_4 1_555 1_555
O17_4 Co1_4 1_555 1_555
O19_4 Co3_4 1_555 1_555
O20_4 Co1_4 1_555 1_555
O21_4 Co3_4 1_555 1_555
O22_4 Co3_4 1_555 1_555
C10_4 O9_4 1_555 1_555
O13_4 Co8 1_555 1_555
C15_4 C16_4 1_555 1_555
O15_4 H14_4 1_555 1_555
O15_4 H15_4 1_555 1_555
Co4_2 O1_5 1_555 1_555
O1_5 Co2_3 1_555 1_555
Co2_3 O3_5 1_555 1_555
Co7_2 O1_5 1_555 1_555
O2_5 Co4_2 1_555 1_555
C1_5 O2_5 1_555 1_555
O3_5 C1_5 1_555 1_555
C2_5 C1_5 1_555 1_555
O16_4 C8_5 1_555 1_555
C3_5 C2_5 1_555 1_555
H1_5 C3_5 1_555 1_555
O17_4 C8_5 1_555 1_555
C4_5 C3_5 1_555 1_555
O6_3 C9_5 1_555 1_555
C5_5 C4_5 1_555 1_555
H2_5 C5_5 1_555 1_555
O7_5 C9_5 1_555 1_555
C6_5 C5_5 1_555 1_555
C7_5 C2_5 1_555 1_555
H3_5 C7_5 1_555 1_555
C8_5 C4_5 1_555 1_555
C9_5 C6_5 1_555 1_555
O8_5 Co4_2 1_555 1_555
C10_5 O8_5 1_555 1_555
O9_5 Co2_3 1_555 1_555
C11_5 C10_5 1_555 1_555
C12_5 C11_5 1_555 1_555
H4_5 C12_5 1_555 1_555
C13_5 C12_5 1_555 1_555
O21_2 C17_5 1_555 1_555
C14_5 C13_5 1_555 1_555
H5_5 C14_5 1_555 1_555
O22_2 C17_5 1_555 1_555
C15_5 C14_5 1_555 1_555
C16_5 C11_5 1_555 1_555
H6_5 C16_5 1_555 1_555
C17_5 C15_5 1_555 1_555
O14_5 Co4_2 1_555 1_555
N1_5 C19_5 1_555 1_555
C19_5 O14_5 1_555 1_555
H7_5 C19_5 1_555 1_555
C20_5 N1_5 1_555 1_555
H8_5 C20_5 1_555 1_555
H9_5 C20_5 1_555 1_555
H10_5 C20_5 1_555 1_555
C21_5 N1_5 1_555 1_555
H11_5 C21_5 1_555 1_555
H12_5 C21_5 1_555 1_555
H13_5 C21_5 1_555 1_555
O15_5 Co7_2 1_555 1_555
Co6_3 O6_3 1_555 1_555
O18_3 Co2_3 1_555 1_555
C6_5 C7_5 1_555 1_555
C10_5 O9_5 1_555 1_555
C15_5 C16_5 1_555 1_555
O15_5 H14_5 1_555 1_555
O15_5 H15_5 1_555 1_555
O19_3 C18_5 1_555 1_555
O20_3 C18_5 1_555 1_555
O19_4 C18_6 1_555 1_555
O20_4 C18_6 1_555 1_555
Co5_2 O1_6 1_555 1_555
O1_6 Co2_4 1_555 1_555
Co2_4 O3_6 1_555 1_555
Co7 O1_6 1_555 1_555
O2_6 Co5_2 1_555 1_555
C1_6 O2_6 1_555 1_555
O3_6 C1_6 1_555 1_555
C2_6 C1_6 1_555 1_555
O16_3 C8_6 1_555 1_555
C3_6 C2_6 1_555 1_555
H1_6 C3_6 1_555 1_555
O17_3 C8_6 1_555 1_555
C4_6 C3_6 1_555 1_555
O6_4 C9_6 1_555 1_555
C5_6 C4_6 1_555 1_555
H2_6 C5_6 1_555 1_555
O7_6 C9_6 1_555 1_555
C6_6 C5_6 1_555 1_555
C7_6 C2_6 1_555 1_555
H3_6 C7_6 1_555 1_555
C8_6 C4_6 1_555 1_555
C9_6 C6_6 1_555 1_555
O8_6 Co5_2 1_555 1_555
C10_6 O8_6 1_555 1_555
O9_6 Co2_4 1_555 1_555
C11_6 C10_6 1_555 1_555
C12_6 C11_6 1_555 1_555
H4_6 C12_6 1_555 1_555
C13_6 C12_6 1_555 1_555
O21 C17_6 1_555 1_555
C14_6 C13_6 1_555 1_555
H5_6 C14_6 1_555 1_555
O22 C17_6 1_555 1_555
C15_6 C14_6 1_555 1_555
C16_6 C11_6 1_555 1_555
H6_6 C16_6 1_555 1_555
C17_6 C15_6 1_555 1_555
O14_6 Co5_2 1_555 1_555
N1_6 C19_6 1_555 1_555
C19_6 O14_6 1_555 1_555
H7_6 C19_6 1_555 1_555
C20_6 N1_6 1_555 1_555
H8_6 C20_6 1_555 1_555
H9_6 C20_6 1_555 1_555
H10_6 C20_6 1_555 1_555
C21_6 N1_6 1_555 1_555
H11_6 C21_6 1_555 1_555
H12_6 C21_6 1_555 1_555
H13_6 C21_6 1_555 1_555
O15_6 Co7 1_555 1_555
Co6_4 O6_4 1_555 1_555
O18_4 Co2_4 1_555 1_555
C6_6 C7_6 1_555 1_555
C10_6 O9_6 1_555 1_555
C15_6 C16_6 1_555 1_555
O15_6 H14_6 1_555 1_555
O15_6 H15_6 1_555 1_555
Co4 O1_7 1_555 1_555
O1_7 Co6_3 1_555 1_555
Co6_3 O3_7 1_555 1_555
Co8 O1_7 1_555 1_555
O2_7 Co4 1_555 1_555
C1_7 O2_7 1_555 1_555
O3_7 C1_7 1_555 1_555
C2_7 C1_7 1_555 1_555
O16_2 C8_7 1_555 1_555
C3_7 C2_7 1_555 1_555
H1_7 C3_7 1_555 1_555
O17_2 C8_7 1_555 1_555
C4_7 C3_7 1_555 1_555
C5_7 C4_7 1_555 1_555
H2_7 C5_7 1_555 1_555
C6_7 C5_7 1_555 1_555
C7_7 C2_7 1_555 1_555
H3_7 C7_7 1_555 1_555
C8_7 C4_7 1_555 1_555
C9_7 C6_7 1_555 1_555
O8_7 Co4 1_555 1_555
C10_7 O8_7 1_555 1_555
O9_7 Co6_3 1_555 1_555
C11_7 C10_7 1_555 1_555
C12_7 C11_7 1_555 1_555
H4_7 C12_7 1_555 1_555
C13_7 C12_7 1_555 1_555
C14_7 C13_7 1_555 1_555
H5_7 C14_7 1_555 1_555
C15_7 C14_7 1_555 1_555
C16_7 C11_7 1_555 1_555
H6_7 C16_7 1_555 1_555
C17_7 C15_7 1_555 1_555
O14_7 Co4 1_555 1_555
C19_7 O14_7 1_555 1_555
H7_7 C19_7 1_555 1_555
O15_7 Co8 1_555 1_555
C6_7 C7_7 1_555 1_555
C10_7 O9_7 1_555 1_555
C15_7 C16_7 1_555 1_555
O15_7 H14_7 1_555 1_555
O15_7 H15_7 1_555 1_555
C20_7 N1_7 1_555 1_555
H8_7 C20_7 1_555 1_555
H9_7 C20_7 1_555 1_555
H10_7 C20_7 1_555 1_555
C21_7 N1_7 1_555 1_555
H11_7 C21_7 1_555 1_555
H12_7 C21_7 1_555 1_555
H13_7 C21_7 1_555 1_555
O19 C18_7 1_555 1_555
O20 C18_7 1_555 1_555
O19_2 C18_8 1_555 1_555
O20_2 C18_8 1_555 1_555
Co5 O1_8 1_555 1_555
O1_8 Co6_4 1_555 1_555
Co6_4 O3_8 1_555 1_555
Co9 O1_8 1_555 1_555
O2_8 Co5 1_555 1_555
C1_8 O2_8 1_555 1_555
O3_8 C1_8 1_555 1_555
C2_8 C1_8 1_555 1_555
O16 C8_8 1_555 1_555
C3_8 C2_8 1_555 1_555
H1_8 C3_8 1_555 1_555
O17 C8_8 1_555 1_555
C4_8 C3_8 1_555 1_555
C5_8 C4_8 1_555 1_555
H2_8 C5_8 1_555 1_555
C6_8 C5_8 1_555 1_555
C7_8 C2_8 1_555 1_555
H3_8 C7_8 1_555 1_555
C8_8 C4_8 1_555 1_555
C9_8 C6_8 1_555 1_555
O8_8 Co5 1_555 1_555
C10_8 O8_8 1_555 1_555
O9_8 Co6_4 1_555 1_555
C11_8 C10_8 1_555 1_555
C12_8 C11_8 1_555 1_555
H4_8 C12_8 1_555 1_555
C13_8 C12_8 1_555 1_555
C14_8 C13_8 1_555 1_555
H5_8 C14_8 1_555 1_555
C15_8 C14_8 1_555 1_555
C16_8 C11_8 1_555 1_555
H6_8 C16_8 1_555 1_555
C17_8 C15_8 1_555 1_555
O14_8 Co5 1_555 1_555
C19_8 O14_8 1_555 1_555
H7_8 C19_8 1_555 1_555
O15_8 Co9 1_555 1_555
C6_8 C7_8 1_555 1_555
C10_8 O9_8 1_555 1_555
C15_8 C16_8 1_555 1_555
O15_8 H14_8 1_555 1_555
O15_8 H15_8 1_555 1_555
C20_8 N1_8 1_555 1_555
H8_8 C20_8 1_555 1_555
H9_8 C20_8 1_555 1_555
H10_8 C20_8 1_555 1_555
C21_8 N1_8 1_555 1_555
H11_8 C21_8 1_555 1_555
H12_8 C21_8 1_555 1_555
H13_8 C21_8 1_555 1_555

#END
