
###############################################################################
#
# This file contains modified crystal structure data generated from the
# MOF subset of the Cambridge Structural Database (CSD) v543 
# hosted by the Cambridge Crystallographic Data Centre (CCDC).
#
# This work is licensed under the Creative Commons
# Attribution-NonCommercial-ShareAlike 4.0 International License.
# To view a copy of this license, visit
# http://creativecommons.org/licenses/by-nc-sa/4.0/
# or send a letter to
# Creative Commons, PO Box 1866, Mountain View, CA 94042, USA.
#
# CIF created using the CSD Python API on 29 September 2022
# The structure has been converted into the P1 space group
# The structure has a 3D framework
# The original CSD entry SABVOH is in the orthorhombic crystal system
# The framework has been calculated to contain at least 10.0% void space
# The void calculation uses a probe of radius 1.32A, grid spacing 0.4
# H atom positions have been added when not included in the experimental data
#
###############################################################################

data_SABVOH
_chemical_formula_moiety         '(C32 H16 Al8 O22)n'
_symmetry_cell_setting           triclinic
_symmetry_space_group_name_H-M   'P 1'
_symmetry_Int_Tables_number      1
_space_group_name_Hall           'P 1'
loop_
_symmetry_equiv_pos_site_id
_symmetry_equiv_pos_as_xyz
1 x,y,z
_cell_length_a                   17.129(2)
_cell_length_b                   6.6284(6)
_cell_length_c                   12.1816(8)
_cell_angle_alpha                90
_cell_angle_beta                 90
_cell_angle_gamma                90
_cell_volume                     1383.07
loop_
_atom_site_label
_atom_site_type_symbol
_atom_site_fract_x
_atom_site_fract_y
_atom_site_fract_z
Al1 Al 0.0000 0.000 0.000
O6 O 0.000(2) 0.250 0.071(1)
Al3 Al 0.5000 -0.000 0.500
H2 H 0.212162 0.0643101 0.155882
H3 H 0.332441 0.0678618 0.275873
Al1_2 Al 0.0000 -0.000 1.000
O8 O 0.0650(9) 0.083(2) 0.890(1)
Al1_3 Al 0.0000 1.000 0.000
O2 O 0.0867(9) 0.917(2) 0.088(1)
O3 O 0.4350(9) 0.917(2) 0.390(1)
C1 C 0.398(2) 0.750 0.370(3)
C2 C 0.123(2) 0.750 0.111(3)
C3 C 0.335(2) 0.750 0.293(3)
C4 C 0.185(1) 0.750 0.194(2)
C5 C 0.2312(9) 0.928(2) 0.198(2)
C6 C 0.303(1) 0.926(2) 0.258(2)
O4 O 0.4350(9) 0.583(2) 0.390(1)
O5 O 0.0867(9) 0.583(2) 0.088(1)
C7 C 0.303(1) 0.574(2) 0.258(2)
C8 C 0.2312(9) 0.572(2) 0.198(2)
Al2 Al 0.0000 0.500 0.000
Al3_2 Al 0.5000 1.000 0.500
Al4 Al 0.5000 0.500 0.500
H1 H 0.332441 0.432138 0.275873
H4 H 0.212162 0.43569 0.155882
Al1_4 Al 0.0000 1.000 1.000
O1 O 0.000(2) 0.750 0.929(1)
Al2_2 Al 0.0000 0.500 1.000
Al1_5 Al 1.0000 0.000 0.000
O6_2 O 1.000(2) 0.250 0.071(1)
Al1_6 Al 1.0000 -0.000 1.000
O7 O 0.9133(9) 0.083(2) 0.912(1)
Al1_7 Al 1.0000 1.000 0.000
O9 O 0.9350(9) 0.917(2) 0.110(1)
Al2_3 Al 1.0000 0.500 0.000
Al1_8 Al 1.0000 1.000 1.000
O1_2 O 1.000(2) 0.750 0.929(1)
Al2_4 Al 1.0000 0.500 1.000
O1_3 O 0.500(2) 0.250 0.429(1)
O2_2 O 0.4133(9) 0.083(2) 0.588(1)
C1_2 C 0.102(2) 0.250 0.870(3)
C2_2 C 0.377(2) 0.250 0.611(3)
C3_2 C 0.165(2) 0.250 0.793(3)
C4_2 C 0.315(1) 0.250 0.694(2)
C5_2 C 0.2688(9) 0.072(2) 0.698(2)
C6_2 C 0.197(1) 0.074(2) 0.758(2)
O4_2 O 0.0650(9) 0.417(2) 0.890(1)
O5_2 O 0.4133(9) 0.417(2) 0.588(1)
C7_2 C 0.197(1) 0.426(2) 0.758(2)
C8_2 C 0.2688(9) 0.428(2) 0.698(2)
O9_2 O 0.5650(9) 0.083(2) 0.610(1)
H1_2 H 0.167559 0.567862 0.775873
H4_2 H 0.287838 0.56431 0.655882
O6_3 O 0.500(2) 0.750 0.571(1)
O7_2 O 0.5867(9) 0.917(2) 0.412(1)
H2_2 H 0.287838 0.93569 0.655882
H3_2 H 0.167559 0.932138 0.775873
H1_3 H 0.832441 0.0678618 0.224127
H4_3 H 0.712162 0.0643101 0.344118
O2_3 O 0.5867(9) 0.583(2) 0.412(1)
O3_2 O 0.9350(9) 0.583(2) 0.110(1)
C1_3 C 0.898(2) 0.750 0.130(3)
C2_3 C 0.623(2) 0.750 0.389(3)
C3_3 C 0.835(2) 0.750 0.207(3)
C4_3 C 0.685(1) 0.750 0.306(2)
C5_3 C 0.7312(9) 0.572(2) 0.302(2)
C6_3 C 0.803(1) 0.574(2) 0.242(2)
C7_3 C 0.803(1) 0.926(2) 0.242(2)
C8_3 C 0.7312(9) 0.928(2) 0.302(2)
O8_2 O 0.5650(9) 0.417(2) 0.610(1)
H2_3 H 0.712162 0.43569 0.344118
H3_3 H 0.832441 0.432138 0.224127
O2_4 O 0.9133(9) 0.417(2) 0.912(1)
C1_4 C 0.602(2) 0.250 0.630(3)
C2_4 C 0.877(2) 0.250 0.889(3)
C3_4 C 0.665(2) 0.250 0.707(3)
C4_4 C 0.815(1) 0.250 0.806(2)
C5_4 C 0.7688(9) 0.428(2) 0.802(2)
C6_4 C 0.697(1) 0.426(2) 0.742(2)
C7_4 C 0.697(1) 0.074(2) 0.742(2)
C8_4 C 0.7688(9) 0.072(2) 0.802(2)
H2_4 H 0.787838 0.56431 0.844118
H3_4 H 0.667559 0.567862 0.724127
H1_4 H 0.667559 0.932138 0.724127
H4_4 H 0.787838 0.93569 0.844118
loop_
_geom_bond_atom_site_label_1
_geom_bond_atom_site_label_2
_geom_bond_site_symmetry_1
_geom_bond_site_symmetry_2
O6 Al1 1_555 1_555
O8 Al1_2 1_555 1_555
O2 Al1_3 1_555 1_555
O3 C1 1_555 1_555
C1 C3 1_555 1_555
C2 O2 1_555 1_555
C3 C6 1_555 1_555
C4 C2 1_555 1_555
C5 C4 1_555 1_555
C6 C5 1_555 1_555
O4 C1 1_555 1_555
O5 C2 1_555 1_555
C7 C3 1_555 1_555
C8 C4 1_555 1_555
Al2 O5 1_555 1_555
Al3_2 O3 1_555 1_555
Al4 O4 1_555 1_555
C7 C8 1_555 1_555
C7 H1 1_555 1_555
C8 H4 1_555 1_555
Al1_4 O1 1_555 1_555
O1 Al2_2 1_555 1_555
O6_2 Al1_5 1_555 1_555
O7 Al1_6 1_555 1_555
O9 Al1_7 1_555 1_555
Al1_8 O1_2 1_555 1_555
O1_2 Al2_4 1_555 1_555
Al3 O1_3 1_555 1_555
O1_3 Al4 1_555 1_555
O2_2 Al3 1_555 1_555
O8 C1_2 1_555 1_555
C1_2 C3_2 1_555 1_555
C2_2 O2_2 1_555 1_555
C3_2 C6_2 1_555 1_555
C4_2 C2_2 1_555 1_555
C5_2 C4_2 1_555 1_555
C6_2 C5_2 1_555 1_555
O4_2 C1_2 1_555 1_555
O5_2 C2_2 1_555 1_555
C7_2 C3_2 1_555 1_555
C8_2 C4_2 1_555 1_555
O9_2 Al3 1_555 1_555
Al4 O5_2 1_555 1_555
Al2_2 O4_2 1_555 1_555
C7_2 C8_2 1_555 1_555
C7_2 H1_2 1_555 1_555
C8_2 H4_2 1_555 1_555
O6_3 Al3_2 1_555 1_555
O7_2 Al3_2 1_555 1_555
Al4 O6_3 1_555 1_555
O2_3 Al4 1_555 1_555
O3_2 C1_3 1_555 1_555
C1_3 C3_3 1_555 1_555
C2_3 O2_3 1_555 1_555
C3_3 C6_3 1_555 1_555
C4_3 C2_3 1_555 1_555
C5_3 C4_3 1_555 1_555
C6_3 C5_3 1_555 1_555
O9 C1_3 1_555 1_555
O7_2 C2_3 1_555 1_555
C7_3 C3_3 1_555 1_555
C8_3 C4_3 1_555 1_555
O8_2 Al4 1_555 1_555
Al2_3 O3_2 1_555 1_555
C7_3 C8_3 1_555 1_555
C5_3 H2_3 1_555 1_555
C6_3 H3_3 1_555 1_555
Al2 O6 1_555 1_555
Al2_3 O6_2 1_555 1_555
O2_4 Al2_4 1_555 1_555
O8_2 C1_4 1_555 1_555
C1_4 C3_4 1_555 1_555
C2_4 O2_4 1_555 1_555
C3_4 C6_4 1_555 1_555
C4_4 C2_4 1_555 1_555
C5_4 C4_4 1_555 1_555
C6_4 C5_4 1_555 1_555
O9_2 C1_4 1_555 1_555
O7 C2_4 1_555 1_555
C7_4 C3_4 1_555 1_555
C8_4 C4_4 1_555 1_555
C7_4 C8_4 1_555 1_555
C5_4 H2_4 1_555 1_555
C6_4 H3_4 1_555 1_555

#END
