
###############################################################################
#
# This file contains modified crystal structure data generated from the
# MOF subset of the Cambridge Structural Database (CSD) v543 
# hosted by the Cambridge Crystallographic Data Centre (CCDC).
#
# This work is licensed under the Creative Commons
# Attribution-NonCommercial-ShareAlike 4.0 International License.
# To view a copy of this license, visit
# http://creativecommons.org/licenses/by-nc-sa/4.0/
# or send a letter to
# Creative Commons, PO Box 1866, Mountain View, CA 94042, USA.
#
# CIF created using the CSD Python API on 29 September 2022
# The structure has been converted into the P1 space group
# The structure has a 3D framework
# The original CSD entry SABWEA is in the triclinic crystal system
# The framework has been calculated to contain at least 10.0% void space
# The void calculation uses a probe of radius 1.32A, grid spacing 0.4
#
###############################################################################

data_SABWEA
_chemical_formula_moiety         '(C32 H20 Cu2 N4 O26 Pr2)n'
_symmetry_cell_setting           triclinic
_symmetry_space_group_name_H-M   'P 1'
_symmetry_Int_Tables_number      1
_space_group_name_Hall           'P 1'
loop_
_symmetry_equiv_pos_site_id
_symmetry_equiv_pos_as_xyz
1 x,y,z
_cell_length_a                   10.599(2)
_cell_length_b                   10.681(2)
_cell_length_c                   11.424(2)
_cell_angle_alpha                82.67(3)
_cell_angle_beta                 74.14(3)
_cell_angle_gamma                69.32(3)
_cell_volume                     1163.2
loop_
_atom_site_label
_atom_site_type_symbol
_atom_site_fract_x
_atom_site_fract_y
_atom_site_fract_z
O11 O 0.1712(4) 0.2513(5) 0.1574(3)
N2 N 0.1676(4) 0.2652(5) 0.0510(4)
C13 C 0.0307(4) 0.3241(4) 0.0222(4)
O7 O 0.0080(3) 0.4396(3) 0.6678(3)
O12 O 0.2705(4) 0.2398(6) 0.9671(4)
C14 C 0.0280(4) 0.3553(4) 0.9018(4)
H6 H 0.1101 0.3379 0.8408
Cu3 Cu -0.0000 0.5000 0.5000
O3 O 0.2675(3) 0.2544(3) 0.4475(3)
O4 O 0.0408(3) 0.3215(3) 0.4552(3)
C3 C 0.1692(4) 0.0984(4) 0.4114(3)
C4 C 0.0648(4) 0.0883(4) 0.3643(4)
C8 C 0.1608(4) 0.2351(4) 0.4402(3)
O19 O 0.1224(5) 0.9398(4) 0.7396(5)
H12 H 0.0090 0.8361 0.6473
Pr8 Pr 0.410950(18) 0.402103(18) 0.371353(17)
O9 O 0.5359(3) 0.4778(4) 0.1597(3)
O10 O 0.6617(3) 0.3865(3) 0.2927(3)
C11 C 0.7825(4) 0.4055(4) 0.0863(4)
C12 C 0.9109(4) 0.3474(4) 0.1154(4)
H5 H 0.9158 0.3247 0.1957
C16 C 0.6507(4) 0.4266(4) 0.1854(4)
Pr1 Pr 0.589050(18) 0.597897(18) 0.628647(17)
O1 O 0.3970(3) 0.6239(3) 0.4086(3)
O2 O 0.4709(3) 0.7530(3) 0.4910(3)
O8 O 0.7811(3) 0.4853(4) 0.7164(3)
O13 O 0.5036(6) 0.7776(5) 0.7753(5)
O14 O 0.7434(3) 0.5232(3) 0.4268(3)
C1 C 0.2800(4) 0.8583(4) 0.4050(3)
C2 C 0.2758(4) 0.9843(4) 0.4314(4)
H1 H 0.3452 0.9913 0.4627
C5 C 0.0740(4) 0.9638(4) 0.3354(4)
C6 C 0.1778(4) 0.8479(4) 0.3555(4)
H3 H 0.1796 0.7650 0.3365
C7 C 0.3910(4) 0.7352(4) 0.4357(3)
C9 C 0.8990(4) 0.4137(4) 0.8739(3)
C10 C 0.7776(4) 0.4381(4) 0.9650(4)
H4 H 0.6921 0.4765 0.9454
C15 C 0.8947(4) 0.4495(4) 0.7433(3)
H7 H 0.4678 0.8645 0.7578
H8 H 0.4879 0.7575 0.8556
H9 H 0.7259 0.6059 0.3913
H10 H 0.7426 0.4610 0.3831
Cu3_2 Cu 1.0000 0.5000 0.5000
O30 O 0.6030(3) 0.3761(3) 0.5914(3)
O32 O 0.7325(3) 0.7456(3) 0.5525(3)
O36 O 0.4641(3) 0.5222(4) 0.8403(3)
O38 O 0.3383(3) 0.6135(3) 0.7073(3)
O16 O 0.5291(3) 0.2470(3) 0.5090(3)
O22 O 0.2189(3) 0.5147(4) 0.2836(3)
O27 O 0.4964(6) 0.2224(5) 0.2247(5)
O28 O 0.2566(3) 0.4768(3) 0.5732(3)
C17 C 0.7200(4) 0.1417(4) 0.5950(3)
C18 C 0.7242(4) 0.0157(4) 0.5686(4)
H11 H 0.6548 0.0087 0.5373
C21 C 0.9260(4) 0.0362(4) 0.6646(4)
C22 C 0.8222(4) 0.1521(4) 0.6445(4)
H13 H 0.8204 0.2350 0.6635
C23 C 0.6090(4) 0.2648(4) 0.5643(3)
C25 C 0.1010(4) 0.5863(4) 0.1261(3)
C26 C 0.2224(4) 0.5619(4) 0.0350(4)
H14 H 0.3079 0.5235 0.0546
C31 C 0.1053(4) 0.5505(4) 0.2567(3)
H17 H 0.5322 0.1355 0.2422
H18 H 0.5121 0.2425 0.1444
H19 H 0.2741 0.3941 0.6087
H20 H 0.2574 0.5390 0.6169
C27 C 0.2175(4) 0.5945(4) 0.9137(4)
C28 C 0.0891(4) 0.6526(4) 0.8846(4)
H15 H 0.0842 0.6753 0.8043
C32 C 0.3493(4) 0.5734(4) 0.8146(4)
O5 O 0.8776(5) 0.0602(4) 0.2604(5)
H2 H 0.9910 0.1639 0.3527
O18 O 0.9592(3) 0.6785(3) 0.5448(3)
C19 C 0.8308(4) 0.9016(4) 0.5886(3)
C20 C 0.9352(4) 0.9117(4) 0.6357(4)
C24 C 0.8392(4) 0.7649(4) 0.5598(3)
O34 O 0.9920(3) 0.5604(3) 0.3322(3)
O26 O 0.7295(4) 0.7602(6) 0.0329(4)
C30 C 0.9720(4) 0.6447(4) 0.0982(4)
H16 H 0.8899 0.6621 0.1592
O20 O 0.0434(5) 0.1524(4) 0.7253(5)
N3 N 0.0373(4) 0.0437(4) 0.7150(4)
O6 O 0.9566(5) 0.8476(4) 0.2747(5)
N1 N 0.9627(4) 0.9563(4) 0.2850(4)
O25 O 0.8288(4) 0.7487(5) 0.8426(3)
N4 N 0.8324(4) 0.7348(5) 0.9490(4)
C29 C 0.9693(4) 0.6759(4) 0.9778(4)
loop_
_geom_bond_atom_site_label_1
_geom_bond_atom_site_label_2
_geom_bond_site_symmetry_1
_geom_bond_site_symmetry_2
O11 N2 1_555 1_555
N2 C13 1_555 1_555
H6 C14 1_555 1_555
Cu3 O7 1_555 1_555
Cu3 O4 1_555 1_555
O3 C8 1_555 1_555
O4 C8 1_555 1_555
C4 C3 1_555 1_555
C8 C3 1_555 1_555
Pr8 O3 1_555 1_555
O9 C16 1_555 1_555
O10 C16 1_555 1_555
C12 C11 1_555 1_555
H5 C12 1_555 1_555
C16 C11 1_555 1_555
Pr8 O9 1_555 1_555
O10 Pr8 1_555 1_555
Pr1 O2 1_555 1_555
O1 C7 1_555 1_555
O2 C7 1_555 1_555
O8 Pr1 1_555 1_555
O13 Pr1 1_555 1_555
O14 Pr1 1_555 1_555
C1 C2 1_555 1_555
C2 H1 1_555 1_555
C6 C1 1_555 1_555
H3 C6 1_555 1_555
C7 C1 1_555 1_555
C9 C10 1_555 1_555
C10 H4 1_555 1_555
C15 O8 1_555 1_555
H7 O13 1_555 1_555
H8 O13 1_555 1_555
H9 O14 1_555 1_555
H10 O14 1_555 1_555
Pr8 O1 1_555 1_555
O30 Pr1 1_555 1_555
O32 Pr1 1_555 1_555
O36 Pr1 1_555 1_555
O38 Pr1 1_555 1_555
C5 C6 1_555 1_555
C9 C15 1_555 1_555
Pr8 O16 1_555 1_555
O30 C23 1_555 1_555
O16 C23 1_555 1_555
O22 Pr8 1_555 1_555
O27 Pr8 1_555 1_555
O28 Pr8 1_555 1_555
C17 C18 1_555 1_555
C18 H11 1_555 1_555
C22 C17 1_555 1_555
H13 C22 1_555 1_555
C23 C17 1_555 1_555
C25 C26 1_555 1_555
C26 H14 1_555 1_555
C31 O22 1_555 1_555
H17 O27 1_555 1_555
H18 O27 1_555 1_555
H19 O28 1_555 1_555
H20 O28 1_555 1_555
C21 C22 1_555 1_555
C25 C31 1_555 1_555
O36 C32 1_555 1_555
O38 C32 1_555 1_555
C28 C27 1_555 1_555
H15 C28 1_555 1_555
C32 C27 1_555 1_555
O32 C24 1_555 1_555
O18 Cu3_2 1_555 1_555
C20 C19 1_555 1_555
C24 O18 1_555 1_555
O34 Cu3_2 1_555 1_555
C19 C24 1_555 1_555
H16 C30 1_555 1_555
O20 N3 1_555 1_555
O6 N1 1_555 1_555
O25 N4 1_555 1_555
N4 C29 1_555 1_555

#END
