
###############################################################################
#
# This file contains modified crystal structure data generated from the
# MOF subset of the Cambridge Structural Database (CSD) v543 
# hosted by the Cambridge Crystallographic Data Centre (CCDC).
#
# This work is licensed under the Creative Commons
# Attribution-NonCommercial-ShareAlike 4.0 International License.
# To view a copy of this license, visit
# http://creativecommons.org/licenses/by-nc-sa/4.0/
# or send a letter to
# Creative Commons, PO Box 1866, Mountain View, CA 94042, USA.
#
# CIF created using the CSD Python API on 29 September 2022
# The structure has been converted into the P1 space group
# The structure has a 3D framework
# The original CSD entry SABWAU is in the monoclinic crystal system
# The framework has been calculated to contain at least 10.0% void space
# The void calculation uses a probe of radius 1.32A, grid spacing 0.4
# H atom positions have been added when not included in the experimental data
#
###############################################################################

data_SABWAU
_chemical_formula_moiety         '(C32 H16 Al4 O22)n'
_symmetry_cell_setting           triclinic
_symmetry_space_group_name_H-M   'P 1'
_symmetry_Int_Tables_number      1
_space_group_name_Hall           'P 1'
loop_
_symmetry_equiv_pos_site_id
_symmetry_equiv_pos_as_xyz
1 x,y,z
_cell_length_a                   19.513(2)
_cell_length_b                   7.612(1)
_cell_length_c                   6.576(1)
_cell_angle_alpha                90
_cell_angle_beta                 104.24(1)
_cell_angle_gamma                90
_cell_volume                     946.741
loop_
_atom_site_label
_atom_site_type_symbol
_atom_site_fract_x
_atom_site_fract_y
_atom_site_fract_z
O3 O 0.4375(9) 0.320(4) 0.060(3)
O5 O 0.4156(8) 0.350(3) 0.363(2)
C2 C 0.3936(7) 0.325(6) 0.165(2)
C3 C 0.2002(6) 0.277(4) 0.129(2)
C5 C 0.2744(4) 0.300(6) 0.219(2)
C8 C 0.3204(5) 0.272(5) 0.090(2)
O6 O 0.000(2) 0.110(1) 0.244(5)
Al4 Al 0.4988(8) 0.500(2) 0.499(3)
H3 H 0.160607 0.308391 0.214714
H4 H 0.294179 0.338055 0.382593
O2 O 0.0638(9) 0.173(3) 0.949(3)
O4 O 0.0914(9) 0.099(2) 0.660(2)
C1 C 0.1065(8) 0.179(6) 0.840(3)
C4 C 0.2964(8) 0.258(4) 0.870(2)
C6 C 0.2246(8) 0.201(6) 0.788(3)
C7 C 0.1818(7) 0.211(5) 0.922(3)
Al3 Al 0.4988(8) 0.500(2) 0.999(3)
H1 H 0.330678 0.288945 0.766874
H2 H 0.205741 0.15275 0.628075
O8 O 0.0914(9) 0.901(2) 0.160(2)
O1 O -0.000(2) 0.890(1) 0.744(5)
O6_2 O 1.000(2) 0.110(1) 0.244(5)
Al1 Al 0.9988(8) 0.000(2) 0.999(3)
O9 O 0.9156(8) 0.150(3) 0.863(2)
Al2 Al 0.9988(8) 0.000(2) 0.499(3)
O7 O 0.9375(9) 0.820(4) 0.060(3)
Al1_2 Al 0.9988(8) 1.000(2) 0.999(3)
O1_2 O 1.000(2) 0.890(1) 0.744(5)
Al2_2 Al 0.9988(8) 1.000(2) 0.499(3)
O2_2 O 0.0638(9) 0.827(3) 0.449(3)
O3_2 O 0.4375(9) 0.680(4) 0.560(3)
O5_2 O 0.4156(8) 0.650(3) 0.863(2)
C1_2 C 0.1065(8) 0.821(6) 0.340(3)
C2_2 C 0.3936(7) 0.675(6) 0.665(2)
C3_2 C 0.2002(6) 0.723(4) 0.629(2)
C4_2 C 0.2964(8) 0.742(4) 0.370(2)
C5_2 C 0.2744(4) 0.700(6) 0.719(2)
C6_2 C 0.2246(8) 0.799(6) 0.288(3)
C7_2 C 0.1818(7) 0.789(5) 0.422(3)
C8_2 C 0.3204(5) 0.728(5) 0.590(2)
H1_2 H 0.330678 0.711055 0.266874
H2_2 H 0.205741 0.84725 0.128075
H3_2 H 0.160607 0.691609 0.714714
H4_2 H 0.294179 0.661945 0.882593
O7_2 O 0.9375(9) 0.180(4) 0.560(3)
O9_2 O 0.9156(8) 0.850(3) 0.363(2)
C2_3 C 0.8936(7) 0.825(6) 0.165(2)
C3_3 C 0.7002(6) 0.777(4) 0.129(2)
C5_3 C 0.7744(4) 0.800(6) 0.219(2)
C8_3 C 0.8204(5) 0.772(5) 0.090(2)
O6_3 O 0.500(2) 0.610(1) 0.244(5)
O8_2 O 0.5914(9) 0.401(2) 0.160(2)
H3_3 H 0.660607 0.808391 0.214714
H4_3 H 0.794179 0.838055 0.382593
O1_3 O 0.500(2) 0.390(1) 0.744(5)
O2_3 O 0.5638(9) 0.673(3) 0.949(3)
O4_2 O 0.5914(9) 0.599(2) 0.660(2)
C1_3 C 0.6065(8) 0.679(6) 0.840(3)
C4_3 C 0.7964(8) 0.758(4) 0.870(2)
C6_3 C 0.7246(8) 0.701(6) 0.788(3)
C7_3 C 0.6818(7) 0.711(5) 0.922(3)
H1_3 H 0.830678 0.788945 0.766874
H2_3 H 0.705741 0.65275 0.628075
O2_4 O 0.5638(9) 0.327(3) 0.449(3)
C1_4 C 0.6065(8) 0.321(6) 0.340(3)
C2_4 C 0.8936(7) 0.175(6) 0.665(2)
C3_4 C 0.7002(6) 0.223(4) 0.629(2)
C4_4 C 0.7964(8) 0.242(4) 0.370(2)
C5_4 C 0.7744(4) 0.200(6) 0.719(2)
C6_4 C 0.7246(8) 0.299(6) 0.288(3)
C7_4 C 0.6818(7) 0.289(5) 0.422(3)
C8_4 C 0.8204(5) 0.228(5) 0.590(2)
H1_4 H 0.830678 0.211055 0.266874
H2_4 H 0.705741 0.34725 0.128075
H3_4 H 0.660607 0.191609 0.714714
H4_4 H 0.794179 0.161945 0.882593
loop_
_geom_bond_atom_site_label_1
_geom_bond_atom_site_label_2
_geom_bond_site_symmetry_1
_geom_bond_site_symmetry_2
O3 C2 1_555 1_555
O5 C2 1_555 1_555
C2 C8 1_555 1_555
C3 C5 1_555 1_555
C5 C8 1_555 1_555
Al4 O5 1_555 1_555
C3 H3 1_555 1_555
C5 H4 1_555 1_555
O4 C1 1_555 1_555
C1 O2 1_555 1_555
C4 C6 1_555 1_555
C6 C7 1_555 1_555
C7 C1 1_555 1_555
C4 H1 1_555 1_555
C6 H2 1_555 1_555
O9 Al1 1_555 1_555
Al1_2 O1_2 1_555 1_555
O1_2 Al2_2 1_555 1_555
O3_2 C2_2 1_555 1_555
O8 C1_2 1_555 1_555
O5_2 C2_2 1_555 1_555
C1_2 O2_2 1_555 1_555
C2_2 C8_2 1_555 1_555
C3_2 C5_2 1_555 1_555
C4_2 C6_2 1_555 1_555
C5_2 C8_2 1_555 1_555
C6_2 C7_2 1_555 1_555
C7_2 C1_2 1_555 1_555
C8_2 C4_2 1_555 1_555
Al4 O3_2 1_555 1_555
Al3 O5_2 1_555 1_555
C3_2 C7_2 1_555 1_555
C4_2 H1_2 1_555 1_555
C6_2 H2_2 1_555 1_555
C3_2 H3_2 1_555 1_555
C5_2 H4_2 1_555 1_555
Al2 O6_2 1_555 1_555
O7_2 Al2 1_555 1_555
O9_2 Al2_2 1_555 1_555
O7 C2_3 1_555 1_555
O9_2 C2_3 1_555 1_555
C2_3 C8_3 1_555 1_555
C3_3 C5_3 1_555 1_555
C5_3 C8_3 1_555 1_555
C3_3 H3_3 1_555 1_555
C5_3 H4_3 1_555 1_555
Al3 O1_3 1_555 1_555
O1_3 Al4 1_555 1_555
O2_3 Al3 1_555 1_555
O4_2 C1_3 1_555 1_555
C1_3 O2_3 1_555 1_555
C4_3 C6_3 1_555 1_555
C6_3 C7_3 1_555 1_555
C7_3 C1_3 1_555 1_555
Al4 O4_2 1_555 1_555
C4_3 H1_3 1_555 1_555
C6_3 H2_3 1_555 1_555
Al4 O6_3 1_555 1_555
O2_4 Al4 1_555 1_555
O7_2 C2_4 1_555 1_555
O8_2 C1_4 1_555 1_555
O9 C2_4 1_555 1_555
C1_4 O2_4 1_555 1_555
C2_4 C8_4 1_555 1_555
C3_4 C5_4 1_555 1_555
C4_4 C6_4 1_555 1_555
C5_4 C8_4 1_555 1_555
C6_4 C7_4 1_555 1_555
C7_4 C1_4 1_555 1_555
C8_4 C4_4 1_555 1_555
C3_4 C7_4 1_555 1_555
C4_4 H1_4 1_555 1_555
C6_4 H2_4 1_555 1_555
C3_4 H3_4 1_555 1_555
C5_4 H4_4 1_555 1_555

#END
