
###############################################################################
#
# This file contains modified crystal structure data generated from the
# MOF subset of the Cambridge Structural Database (CSD) v543 
# hosted by the Cambridge Crystallographic Data Centre (CCDC).
#
# This work is licensed under the Creative Commons
# Attribution-NonCommercial-ShareAlike 4.0 International License.
# To view a copy of this license, visit
# http://creativecommons.org/licenses/by-nc-sa/4.0/
# or send a letter to
# Creative Commons, PO Box 1866, Mountain View, CA 94042, USA.
#
# CIF created using the CSD Python API on 29 September 2022
# The structure has been converted into the P1 space group
# The structure has a 3D framework
# The original CSD entry SABYIG is in the triclinic crystal system
# The framework has been calculated to contain at least 10.0% void space
# The void calculation uses a probe of radius 1.32A, grid spacing 0.4
#
###############################################################################

data_SABYIG
_chemical_formula_moiety         '(C32 H20 Cu2 N4 O26 Sm2)n'
_symmetry_cell_setting           triclinic
_symmetry_space_group_name_H-M   'P 1'
_symmetry_Int_Tables_number      1
_space_group_name_Hall           'P 1'
loop_
_symmetry_equiv_pos_site_id
_symmetry_equiv_pos_as_xyz
1 x,y,z
_cell_length_a                   10.528(2)
_cell_length_b                   10.671(2)
_cell_length_c                   11.378(2)
_cell_angle_alpha                83.14(3)
_cell_angle_beta                 74.61(3)
_cell_angle_gamma                69.34(3)
_cell_volume                     1152.69
loop_
_atom_site_label
_atom_site_type_symbol
_atom_site_fract_x
_atom_site_fract_y
_atom_site_fract_z
O11 O 0.1720(5) 0.2491(6) 0.1593(4)
N2 N 0.1679(5) 0.2645(5) 0.0523(4)
C13 C 0.0311(5) 0.3247(5) 0.0233(5)
O7 O 0.0057(4) 0.4409(4) 0.6684(3)
O12 O 0.2715(5) 0.2399(7) 0.9681(5)
C14 C 0.0266(5) 0.3564(5) 0.9030(4)
H6 H 0.1087 0.3382 0.8417
Cu3 Cu 0.0000 0.5000 0.5000
O3 O 0.2756(4) 0.2522(4) 0.4423(4)
O4 O 0.0467(4) 0.3200(3) 0.4548(3)
C3 C 0.1726(5) 0.0971(4) 0.4106(4)
C4 C 0.0668(5) 0.0881(5) 0.3649(4)
C8 C 0.1674(5) 0.2334(4) 0.4377(4)
O19 O 0.1259(6) 0.9390(5) 0.7369(6)
H12 H 0.0073 0.8357 0.6461
Sm8 Sm 0.41205(2) 0.403276(19) 0.369063(18)
O9 O 0.5328(4) 0.4809(4) 0.1617(3)
O10 O 0.6605(4) 0.3887(4) 0.2951(3)
C11 C 0.7807(5) 0.4079(5) 0.0881(4)
C12 C 0.9102(5) 0.3486(5) 0.1173(4)
H5 H 0.9156 0.3257 0.1977
C16 C 0.6492(5) 0.4290(5) 0.1870(4)
Sm1 Sm 0.58795(2) 0.596724(19) 0.630937(18)
O1 O 0.3959(4) 0.6208(3) 0.4076(4)
O2 O 0.4703(4) 0.7478(4) 0.4954(4)
O8 O 0.7763(4) 0.4889(4) 0.7178(3)
O13 O 0.5041(7) 0.7705(6) 0.7786(5)
O14 O 0.7442(4) 0.5236(4) 0.4331(3)
C1 C 0.2809(5) 0.8557(4) 0.4061(4)
C2 C 0.2793(5) 0.9815(4) 0.4315(4)
H1 H 0.3501 0.9878 0.4626
C5 C 0.0738(5) 0.9632(5) 0.3362(4)
C6 C 0.1771(5) 0.8459(5) 0.3568(4)
H3 H 0.1773 0.7632 0.3384
C7 C 0.3909(5) 0.7318(4) 0.4381(4)
C9 C 0.8973(5) 0.4160(5) 0.8749(4)
C10 C 0.7755(5) 0.4413(5) 0.9672(4)
H4 H 0.6892 0.4812 0.9478
C15 C 0.8926(5) 0.4518(4) 0.7448(4)
H7 H 0.4877 0.7578 0.8603
H8 H 0.4558 0.8535 0.7561
H9 H 0.7528 0.5690 0.3623
H10 H 0.7809 0.4335 0.4246
Cu3_2 Cu 1.0000 0.5000 0.5000
O30 O 0.6041(4) 0.3792(3) 0.5924(4)
O32 O 0.7244(4) 0.7478(4) 0.5577(4)
O36 O 0.4672(4) 0.5191(4) 0.8383(3)
O38 O 0.3395(4) 0.6113(4) 0.7049(3)
O16 O 0.5297(4) 0.2522(4) 0.5046(4)
O22 O 0.2237(4) 0.5111(4) 0.2822(3)
O27 O 0.4959(7) 0.2295(6) 0.2214(5)
O28 O 0.2558(4) 0.4764(4) 0.5669(3)
C17 C 0.7191(5) 0.1443(4) 0.5939(4)
C18 C 0.7207(5) 0.0185(4) 0.5685(4)
H11 H 0.6499 0.0122 0.5374
C21 C 0.9262(5) 0.0368(5) 0.6638(4)
C22 C 0.8229(5) 0.1541(5) 0.6432(4)
H13 H 0.8227 0.2368 0.6616
C23 C 0.6091(5) 0.2682(4) 0.5619(4)
C25 C 0.1027(5) 0.5840(5) 0.1251(4)
C26 C 0.2245(5) 0.5587(5) 0.0328(4)
H14 H 0.3108 0.5188 0.0522
C31 C 0.1074(5) 0.5482(4) 0.2552(4)
H17 H 0.5123 0.2422 0.1397
H18 H 0.5442 0.1465 0.2439
H19 H 0.2472 0.4310 0.6377
H20 H 0.2191 0.5665 0.5754
C27 C 0.2193(5) 0.5921(5) 0.9119(4)
C28 C 0.0898(5) 0.6514(5) 0.8827(4)
H15 H 0.0844 0.6743 0.8023
C32 C 0.3508(5) 0.5710(5) 0.8130(4)
O5 O 0.8741(6) 0.0610(5) 0.2631(6)
H2 H 0.9927 0.1643 0.3539
O18 O 0.9533(4) 0.6800(3) 0.5452(3)
C19 C 0.8274(5) 0.9029(4) 0.5894(4)
C20 C 0.9332(5) 0.9119(5) 0.6351(4)
C24 C 0.8326(5) 0.7666(4) 0.5623(4)
O34 O 0.9943(4) 0.5591(4) 0.3316(3)
O26 O 0.7285(5) 0.7601(7) 0.0319(5)
C30 C 0.9734(5) 0.6436(5) 0.0970(4)
H16 H 0.8913 0.6618 0.1583
O20 O 0.0463(6) 0.1521(5) 0.7256(6)
N3 N 0.0392(5) 0.0432(5) 0.7137(5)
O6 O 0.9537(6) 0.8479(5) 0.2744(6)
N1 N 0.9608(5) 0.9568(5) 0.2863(5)
O25 O 0.8280(5) 0.7509(6) 0.8407(4)
N4 N 0.8321(5) 0.7355(5) 0.9477(4)
C29 C 0.9689(5) 0.6753(5) 0.9767(5)
loop_
_geom_bond_atom_site_label_1
_geom_bond_atom_site_label_2
_geom_bond_site_symmetry_1
_geom_bond_site_symmetry_2
O11 N2 1_555 1_555
N2 C13 1_555 1_555
H6 C14 1_555 1_555
Cu3 O7 1_555 1_555
Cu3 O4 1_555 1_555
O3 C8 1_555 1_555
O4 C8 1_555 1_555
C4 C3 1_555 1_555
C8 C3 1_555 1_555
Sm8 O3 1_555 1_555
O9 C16 1_555 1_555
O10 C16 1_555 1_555
C12 C11 1_555 1_555
H5 C12 1_555 1_555
C16 C11 1_555 1_555
Sm8 O9 1_555 1_555
O10 Sm8 1_555 1_555
Sm1 O2 1_555 1_555
O1 C7 1_555 1_555
O2 C7 1_555 1_555
O8 Sm1 1_555 1_555
O13 Sm1 1_555 1_555
O14 Sm1 1_555 1_555
C1 C2 1_555 1_555
C2 H1 1_555 1_555
C6 C1 1_555 1_555
H3 C6 1_555 1_555
C7 C1 1_555 1_555
C9 C10 1_555 1_555
C10 H4 1_555 1_555
C15 O8 1_555 1_555
H7 O13 1_555 1_555
H8 O13 1_555 1_555
H9 O14 1_555 1_555
H10 O14 1_555 1_555
Sm8 O1 1_555 1_555
O30 Sm1 1_555 1_555
O32 Sm1 1_555 1_555
O36 Sm1 1_555 1_555
O38 Sm1 1_555 1_555
C5 C6 1_555 1_555
C9 C15 1_555 1_555
Sm8 O16 1_555 1_555
O30 C23 1_555 1_555
O16 C23 1_555 1_555
O22 Sm8 1_555 1_555
O27 Sm8 1_555 1_555
O28 Sm8 1_555 1_555
C17 C18 1_555 1_555
C18 H11 1_555 1_555
C22 C17 1_555 1_555
H13 C22 1_555 1_555
C23 C17 1_555 1_555
C25 C26 1_555 1_555
C26 H14 1_555 1_555
C31 O22 1_555 1_555
H17 O27 1_555 1_555
H18 O27 1_555 1_555
H19 O28 1_555 1_555
H20 O28 1_555 1_555
C21 C22 1_555 1_555
C25 C31 1_555 1_555
O36 C32 1_555 1_555
O38 C32 1_555 1_555
C28 C27 1_555 1_555
H15 C28 1_555 1_555
C32 C27 1_555 1_555
O32 C24 1_555 1_555
O18 Cu3_2 1_555 1_555
C20 C19 1_555 1_555
C24 O18 1_555 1_555
O34 Cu3_2 1_555 1_555
C19 C24 1_555 1_555
H16 C30 1_555 1_555
O20 N3 1_555 1_555
O6 N1 1_555 1_555
O25 N4 1_555 1_555
N4 C29 1_555 1_555

#END
