
###############################################################################
#
# This file contains modified crystal structure data generated from the
# MOF subset of the Cambridge Structural Database (CSD) v543 
# hosted by the Cambridge Crystallographic Data Centre (CCDC).
#
# This work is licensed under the Creative Commons
# Attribution-NonCommercial-ShareAlike 4.0 International License.
# To view a copy of this license, visit
# http://creativecommons.org/licenses/by-nc-sa/4.0/
# or send a letter to
# Creative Commons, PO Box 1866, Mountain View, CA 94042, USA.
#
# CIF created using the CSD Python API on 29 September 2022
# The structure has been converted into the P1 space group
# The structure has a 3D framework
# The original CSD entry SABZED is in the triclinic crystal system
# The framework has been calculated to contain at least 10.0% void space
# The void calculation uses a probe of radius 1.32A, grid spacing 0.4
#
###############################################################################

data_SABZED
_chemical_formula_moiety         '(C32 H20 Cu2 Ho2 N4 O26)n'
_symmetry_cell_setting           triclinic
_symmetry_space_group_name_H-M   'P 1'
_symmetry_Int_Tables_number      1
_space_group_name_Hall           'P 1'
loop_
_symmetry_equiv_pos_site_id
_symmetry_equiv_pos_as_xyz
1 x,y,z
_cell_length_a                   10.414(2)
_cell_length_b                   10.615(2)
_cell_length_c                   11.317(2)
_cell_angle_alpha                83.45(3)
_cell_angle_beta                 75.04(3)
_cell_angle_gamma                69.61(3)
_cell_volume                     1132.5
loop_
_atom_site_label
_atom_site_type_symbol
_atom_site_fract_x
_atom_site_fract_y
_atom_site_fract_z
O11 O 0.1739(5) 0.2466(6) 0.1599(4)
N2 N 0.1679(5) 0.2621(6) 0.0529(5)
C13 C 0.0287(5) 0.3248(6) 0.0245(5)
O7 O 0.0016(4) 0.4421(4) 0.6706(3)
O12 O 0.2713(5) 0.2326(8) 0.9680(5)
C14 C 0.0247(5) 0.3573(5) 0.9045(5)
H6 H 0.1072 0.3388 0.8432
Cu3 Cu -0.0000 0.5000 0.5000
O3 O 0.2840(5) 0.2492(4) 0.4389(4)
O4 O 0.0521(4) 0.3184(4) 0.4552(4)
C3 C 0.1758(5) 0.0942(5) 0.4109(4)
C4 C 0.0691(5) 0.0859(5) 0.3641(5)
C8 C 0.1737(6) 0.2312(5) 0.4367(5)
O19 O 0.1277(6) 0.9375(5) 0.7382(7)
H12 H 0.0045 0.8371 0.6478
Ho8 Ho 0.41327(2) 0.40329(2) 0.367746(19)
O9 O 0.5292(4) 0.4829(5) 0.1642(4)
O10 O 0.6585(4) 0.3924(4) 0.2979(3)
C11 C 0.7780(5) 0.4114(5) 0.0905(5)
C12 C 0.9096(6) 0.3503(5) 0.1189(5)
H5 H 0.9165 0.3276 0.1994
C16 C 0.6464(6) 0.4320(6) 0.1901(5)
Ho1 Ho 0.58673(2) 0.59671(2) 0.632254(19)
O1 O 0.3960(4) 0.6161(4) 0.4055(4)
O2 O 0.4714(4) 0.7408(4) 0.4980(4)
O8 O 0.7699(4) 0.4965(5) 0.7200(4)
O13 O 0.5008(7) 0.7684(6) 0.7748(5)
O14 O 0.7448(4) 0.5251(4) 0.4400(4)
C1 C 0.2817(5) 0.8527(5) 0.4065(4)
C2 C 0.2823(5) 0.9773(5) 0.4317(5)
H1 H 0.3546 0.9827 0.4627
C5 C 0.0733(5) 0.9622(5) 0.3353(5)
C6 C 0.1767(6) 0.8436(5) 0.3559(5)
H3 H 0.1762 0.7610 0.3366
C7 C 0.3905(5) 0.7265(5) 0.4386(5)
C9 C 0.8935(5) 0.4188(5) 0.8768(4)
C10 C 0.7713(5) 0.4445(5) 0.9698(5)
H4 H 0.6840 0.4844 0.9507
C15 C 0.8872(5) 0.4559(5) 0.7467(4)
H7 H 0.4871 0.7490 0.8566
H8 H 0.4292 0.8404 0.7585
H9 H 0.7155 0.4723 0.4038
H10 H 0.7934 0.5702 0.3864
Cu3_2 Cu 1.0000 0.5000 0.5000
O30 O 0.6040(4) 0.3839(4) 0.5945(4)
O32 O 0.7160(5) 0.7508(4) 0.5611(4)
O36 O 0.4708(4) 0.5171(5) 0.8358(4)
O38 O 0.3415(4) 0.6076(4) 0.7021(3)
O16 O 0.5286(4) 0.2592(4) 0.5020(4)
O22 O 0.2301(4) 0.5035(5) 0.2800(4)
O27 O 0.4992(7) 0.2316(6) 0.2252(5)
O28 O 0.2552(4) 0.4749(4) 0.5600(4)
C17 C 0.7183(5) 0.1473(5) 0.5935(4)
C18 C 0.7177(5) 0.0227(5) 0.5683(5)
H11 H 0.6454 0.0173 0.5373
C21 C 0.9267(5) 0.0378(5) 0.6647(5)
C22 C 0.8233(6) 0.1564(5) 0.6441(5)
H13 H 0.8238 0.2390 0.6634
C23 C 0.6095(5) 0.2735(5) 0.5614(5)
C25 C 0.1065(5) 0.5812(5) 0.1232(4)
C26 C 0.2287(5) 0.5555(5) 0.0302(5)
H14 H 0.3160 0.5156 0.0493
C31 C 0.1128(5) 0.5441(5) 0.2533(4)
H17 H 0.5129 0.2510 0.1434
H18 H 0.5708 0.1596 0.2415
H19 H 0.2845 0.5277 0.5962
H20 H 0.2066 0.4298 0.6136
C27 C 0.2220(5) 0.5886(5) 0.9095(5)
C28 C 0.0904(6) 0.6497(5) 0.8811(5)
H15 H 0.0835 0.6724 0.8006
C32 C 0.3536(6) 0.5680(6) 0.8099(5)
O5 O 0.8723(6) 0.0625(5) 0.2618(7)
H2 H 0.9955 0.1629 0.3522
O18 O 0.9479(4) 0.6816(4) 0.5448(4)
C19 C 0.8242(5) 0.9058(5) 0.5891(4)
C20 C 0.9309(5) 0.9141(5) 0.6359(5)
C24 C 0.8263(6) 0.7688(5) 0.5633(5)
O34 O 0.9984(4) 0.5579(4) 0.3294(3)
O26 O 0.7287(5) 0.7674(8) 0.0320(5)
C30 C 0.9753(5) 0.6427(5) 0.0955(5)
H16 H 0.8928 0.6612 0.1568
O20 O 0.0500(6) 0.1517(5) 0.7264(6)
N3 N 0.0421(5) 0.0433(5) 0.7143(5)
O6 O 0.9500(6) 0.8483(5) 0.2736(6)
N1 N 0.9579(5) 0.9567(5) 0.2857(5)
O25 O 0.8261(5) 0.7534(6) 0.8401(4)
N4 N 0.8321(5) 0.7379(6) 0.9471(5)
C29 C 0.9713(5) 0.6752(6) 0.9755(5)
loop_
_geom_bond_atom_site_label_1
_geom_bond_atom_site_label_2
_geom_bond_site_symmetry_1
_geom_bond_site_symmetry_2
O11 N2 1_555 1_555
N2 C13 1_555 1_555
H6 C14 1_555 1_555
Cu3 O7 1_555 1_555
Cu3 O4 1_555 1_555
O3 C8 1_555 1_555
O4 C8 1_555 1_555
C4 C3 1_555 1_555
C8 C3 1_555 1_555
Ho8 O3 1_555 1_555
O9 C16 1_555 1_555
O10 C16 1_555 1_555
C12 C11 1_555 1_555
H5 C12 1_555 1_555
C16 C11 1_555 1_555
Ho8 O9 1_555 1_555
O10 Ho8 1_555 1_555
Ho1 O2 1_555 1_555
O1 C7 1_555 1_555
O2 C7 1_555 1_555
O8 Ho1 1_555 1_555
O13 Ho1 1_555 1_555
O14 Ho1 1_555 1_555
C1 C2 1_555 1_555
C2 H1 1_555 1_555
C6 C1 1_555 1_555
H3 C6 1_555 1_555
C7 C1 1_555 1_555
C9 C10 1_555 1_555
C10 H4 1_555 1_555
C15 O8 1_555 1_555
H7 O13 1_555 1_555
H8 O13 1_555 1_555
H9 O14 1_555 1_555
H10 O14 1_555 1_555
Ho8 O1 1_555 1_555
O30 Ho1 1_555 1_555
O32 Ho1 1_555 1_555
O36 Ho1 1_555 1_555
O38 Ho1 1_555 1_555
C5 C6 1_555 1_555
C9 C15 1_555 1_555
Ho8 O16 1_555 1_555
O30 C23 1_555 1_555
O16 C23 1_555 1_555
O22 Ho8 1_555 1_555
O27 Ho8 1_555 1_555
O28 Ho8 1_555 1_555
C17 C18 1_555 1_555
C18 H11 1_555 1_555
C22 C17 1_555 1_555
H13 C22 1_555 1_555
C23 C17 1_555 1_555
C25 C26 1_555 1_555
C26 H14 1_555 1_555
C31 O22 1_555 1_555
H17 O27 1_555 1_555
H18 O27 1_555 1_555
H19 O28 1_555 1_555
H20 O28 1_555 1_555
C21 C22 1_555 1_555
C25 C31 1_555 1_555
O36 C32 1_555 1_555
O38 C32 1_555 1_555
C28 C27 1_555 1_555
H15 C28 1_555 1_555
C32 C27 1_555 1_555
O32 C24 1_555 1_555
O18 Cu3_2 1_555 1_555
C20 C19 1_555 1_555
C24 O18 1_555 1_555
O34 Cu3_2 1_555 1_555
C19 C24 1_555 1_555
H16 C30 1_555 1_555
O20 N3 1_555 1_555
O6 N1 1_555 1_555
O25 N4 1_555 1_555
N4 C29 1_555 1_555

#END
