
###############################################################################
#
# This file contains modified crystal structure data generated from the
# MOF subset of the Cambridge Structural Database (CSD) v543 
# hosted by the Cambridge Crystallographic Data Centre (CCDC).
#
# This work is licensed under the Creative Commons
# Attribution-NonCommercial-ShareAlike 4.0 International License.
# To view a copy of this license, visit
# http://creativecommons.org/licenses/by-nc-sa/4.0/
# or send a letter to
# Creative Commons, PO Box 1866, Mountain View, CA 94042, USA.
#
# CIF created using the CSD Python API on 29 September 2022
# The structure has been converted into the P1 space group
# The structure has a 3D framework
# The original CSD entry SACBUW is in the orthorhombic crystal system
# The framework has been calculated to contain at least 10.0% void space
# The void calculation uses a probe of radius 1.32A, grid spacing 0.4
#
###############################################################################

data_SACBUW
_chemical_formula_moiety         '(C144 H96 N48 O32 Zn6)n'
_symmetry_cell_setting           triclinic
_symmetry_space_group_name_H-M   'P 1'
_symmetry_Int_Tables_number      1
_space_group_name_Hall           'P 1'
loop_
_symmetry_equiv_pos_site_id
_symmetry_equiv_pos_as_xyz
1 x,y,z
_cell_length_a                   17.3420(3)
_cell_length_b                   15.8773(2)
_cell_length_c                   18.8550(3)
_cell_angle_alpha                90
_cell_angle_beta                 90
_cell_angle_gamma                90
_cell_volume                     5191.61
loop_
_atom_site_label
_atom_site_type_symbol
_atom_site_fract_x
_atom_site_fract_y
_atom_site_fract_z
Zn1 Zn 0.24225(2) 0.01105(2) 0.03270(2)
N6 N 0.4061(2) 0.0019(2) 0.0979(3)
O7 O 0.23063(16) 0.13234(18) 0.06728(15)
O8 O 0.22450(18) 0.04015(17) 0.15257(18)
N1 N 0.26991(16) 0.12310(15) 0.83323(13)
N2 N 0.26185(14) 0.05070(16) 0.93049(13)
O3 O 0.23063(16) 0.36766(18) 0.56728(15)
O4 O 0.22450(18) 0.45985(17) 0.65257(18)
N5 N 0.3100(2) 0.00723(16) 0.88504(15)
C4 C 0.23879(18) 0.1194(2) 0.89865(16)
H4 H 0.2060 0.1595 0.9181
C8 C 0.2399(2) 0.3154(2) 0.68446(19)
C10 C 0.3141(2) 0.05180(19) 0.82721(16)
H6 H 0.3429 0.0373 0.7874
C11 C 0.2449(2) 0.2329(2) 0.6617(2)
H7 H 0.2416 0.2205 0.6136
C13 C 0.26067(19) 0.1882(2) 0.78182(16)
C14 C 0.2579(2) 0.2715(2) 0.8053(2)
H9 H 0.2635 0.2844 0.8532
C15 C 0.2551(2) 0.1678(2) 0.71105(17)
H10 H 0.2580 0.1120 0.6963
C16 C 0.23034(19) 0.3866(2) 0.6321(2)
C17 C 0.2467(3) 0.3346(2) 0.7553(2)
H11 H 0.2438 0.3905 0.7700
Zn3 Zn 0.24225(2) 0.48895(2) 0.53270(2)
O1 O 0.19938(14) 0.60380(14) 0.52116(13)
O2 O 0.10257(17) 0.52019(14) 0.49968(17)
C2 C 0.00490(19) 0.6582(2) 0.46972(18)
C3 C 0.07193(19) 0.8176(2) 0.4697(2)
H3 H 0.0938 0.8711 0.4703
C6 C 0.13066(18) 0.59118(19) 0.50331(16)
C7 C 0.11584(18) 0.7473(2) 0.4851(2)
H5 H 0.1680 0.7534 0.4951
C9 C 0.08313(17) 0.66755(18) 0.48557(16)
H12 H 0.0088 0.9568 0.3759
N3 N 0.85167(15) 0.96679(16) 0.44519(14)
C1 C 0.87716(18) 0.8934(2) 0.46644(16)
H1 H 0.8501 0.8563 0.4954
H2 H 0.9824 0.6050 0.4706
N4 N 0.94782(15) 0.87953(16) 0.44036(16)
C5 C 0.99475(17) 0.80674(19) 0.45367(18)
C12 C 0.96098(18) 0.72775(19) 0.4527(2)
H8 H 0.9093 0.7217 0.4407
C18 C 0.9632(2) 0.9484(3) 0.4009(3)
O5 O 0.69938(14) 0.89620(14) 0.47884(13)
O6 O 0.60257(17) 0.97981(14) 0.50032(17)
N1_2 N 0.26991(16) 0.37690(15) 0.33323(13)
N2_2 N 0.26185(14) 0.44930(16) 0.43049(13)
N3_2 N 0.35167(15) 0.53321(16) 0.55481(14)
C1_2 C 0.37716(18) 0.6066(2) 0.53356(16)
H1_2 H 0.3501 0.6437 0.5046
C2_2 C 0.50490(19) 0.8418(2) 0.53028(18)
H2_2 H 0.4824 0.8950 0.5294
N4_2 N 0.44782(15) 0.62047(16) 0.55964(16)
N5_2 N 0.3100(2) 0.49277(16) 0.38504(15)
C3_2 C 0.57193(19) 0.6824(2) 0.5303(2)
H3_2 H 0.5938 0.6289 0.5297
C4_2 C 0.23879(18) 0.3806(2) 0.39865(16)
H4_2 H 0.2060 0.3405 0.4181
C5_2 C 0.49475(17) 0.69326(19) 0.54633(18)
C6_2 C 0.63066(18) 0.90882(19) 0.49669(16)
C7_2 C 0.61584(18) 0.7527(2) 0.5149(2)
H5_2 H 0.6680 0.7466 0.5049
C8_2 C 0.2399(2) 0.1846(2) 0.18446(19)
C9_2 C 0.58313(17) 0.83245(18) 0.51443(16)
C10_2 C 0.3141(2) 0.44820(19) 0.32721(16)
H6_2 H 0.3429 0.4627 0.2874
C11_2 C 0.2449(2) 0.2671(2) 0.1617(2)
H7_2 H 0.2416 0.2795 0.1136
C12_2 C 0.46098(18) 0.77225(19) 0.5473(2)
H8_2 H 0.4093 0.7783 0.5593
C13_2 C 0.26067(19) 0.3118(2) 0.28182(16)
N6_2 N 0.4061(2) 0.4981(2) 0.5979(3)
C14_2 C 0.2579(2) 0.2285(2) 0.3053(2)
H9_2 H 0.2635 0.2156 0.3532
C15_2 C 0.2551(2) 0.3322(2) 0.21105(17)
H10_2 H 0.2580 0.3880 0.1963
C16_2 C 0.23034(19) 0.1134(2) 0.1321(2)
C17_2 C 0.2467(3) 0.1654(2) 0.2553(2)
H11_2 H 0.2438 0.1095 0.2700
C18_2 C 0.4632(2) 0.5516(3) 0.5991(3)
H12_2 H 0.5088 0.5432 0.6241
O2_2 O 0.60257(17) 0.52019(14) 0.00032(17)
N3_3 N 0.35167(15) 0.96679(16) 0.05481(14)
C1_3 C 0.37716(18) 0.8934(2) 0.03356(16)
H1_3 H 0.3501 0.8563 0.0046
C2_3 C 0.50490(19) 0.6582(2) 0.03028(18)
H2_3 H 0.4824 0.6050 0.0294
N4_3 N 0.44782(15) 0.87953(16) 0.05964(16)
C3_3 C 0.57193(19) 0.8176(2) 0.0303(2)
H3_3 H 0.5938 0.8711 0.0297
C5_3 C 0.49475(17) 0.80674(19) 0.04633(18)
C7_3 C 0.61584(18) 0.7473(2) 0.0149(2)
H5_3 H 0.6680 0.7534 0.0049
C9_3 C 0.58313(17) 0.66755(18) 0.01443(16)
C12_3 C 0.46098(18) 0.72775(19) 0.0473(2)
H8_3 H 0.4093 0.7217 0.0593
C18_3 C 0.4632(2) 0.9484(3) 0.0991(3)
H12_3 H 0.5088 0.9568 0.1241
O5_2 O 0.19938(14) 0.89620(14) 0.02116(13)
O1_2 O 0.69938(14) 0.60380(14) 0.97884(13)
C6_3 C 0.63066(18) 0.59118(19) 0.99669(16)
Zn2 Zn 0.74225(2) 0.48895(2) 0.96730(2)
O6_2 O 0.10257(17) 0.97981(14) 0.99968(17)
C6_4 C 0.13066(18) 0.90882(19) 0.00331(16)
C2_4 C 0.00490(19) 0.8418(2) 0.96972(18)
C3_4 C 0.07193(19) 0.6824(2) 0.9697(2)
H3_4 H 0.0938 0.6289 0.9703
C7_4 C 0.11584(18) 0.7527(2) 0.9851(2)
H5_4 H 0.1680 0.7466 0.9951
C9_4 C 0.08313(17) 0.83245(18) 0.98557(16)
H12_4 H 0.0088 0.5432 0.8759
N1_3 N 0.76991(16) 0.37690(15) 0.16677(13)
N2_3 N 0.76185(14) 0.44930(16) 0.06951(13)
O3_2 O 0.73063(16) 0.13234(18) 0.43272(15)
O4_2 O 0.72450(18) 0.04015(17) 0.34743(18)
N5_3 N 0.8100(2) 0.49277(16) 0.11496(15)
C4_3 C 0.73879(18) 0.3806(2) 0.10135(16)
H4_3 H 0.7060 0.3405 0.0819
C8_3 C 0.7399(2) 0.1846(2) 0.31554(19)
C10_3 C 0.8141(2) 0.44820(19) 0.17279(16)
H6_3 H 0.8429 0.4627 0.2126
C11_3 C 0.7449(2) 0.2671(2) 0.3383(2)
H7_3 H 0.7416 0.2795 0.3864
C13_3 C 0.76067(19) 0.3118(2) 0.21818(16)
C14_3 C 0.7579(2) 0.2285(2) 0.1947(2)
H9_3 H 0.7635 0.2156 0.1468
C15_3 C 0.7551(2) 0.3322(2) 0.28895(17)
H10_3 H 0.7580 0.3880 0.3037
C16_3 C 0.73034(19) 0.1134(2) 0.3679(2)
C17_3 C 0.7467(3) 0.1654(2) 0.2447(2)
H11_3 H 0.7438 0.1095 0.2300
Zn3_2 Zn 0.74225(2) 0.01105(2) 0.46730(2)
N3_4 N 0.85167(15) 0.53321(16) 0.94519(14)
C1_4 C 0.87716(18) 0.6066(2) 0.96644(16)
H1_4 H 0.8501 0.6437 0.9954
H2_4 H 0.9824 0.8950 0.9706
N4_4 N 0.94782(15) 0.62047(16) 0.94036(16)
C5_4 C 0.99475(17) 0.69326(19) 0.95367(18)
C12_4 C 0.96098(18) 0.77225(19) 0.9527(2)
H8_4 H 0.9093 0.7783 0.9407
N6_3 N 0.9061(2) 0.4981(2) 0.9021(3)
C18_4 C 0.9632(2) 0.5516(3) 0.9009(3)
O7_2 O 0.73063(16) 0.36766(18) 0.93272(15)
O8_2 O 0.72450(18) 0.45985(17) 0.84743(18)
N1_4 N 0.76991(16) 0.12310(15) 0.66677(13)
N2_4 N 0.76185(14) 0.05070(16) 0.56951(13)
N5_4 N 0.8100(2) 0.00723(16) 0.61496(15)
C4_4 C 0.73879(18) 0.1194(2) 0.60135(16)
H4_4 H 0.7060 0.1595 0.5819
C8_4 C 0.7399(2) 0.3154(2) 0.81554(19)
C10_4 C 0.8141(2) 0.05180(19) 0.67279(16)
H6_4 H 0.8429 0.0373 0.7126
C11_4 C 0.7449(2) 0.2329(2) 0.8383(2)
H7_4 H 0.7416 0.2205 0.8864
C13_4 C 0.76067(19) 0.1882(2) 0.71818(16)
N6_4 N 0.9061(2) 0.0019(2) 0.4021(3)
C14_4 C 0.7579(2) 0.2715(2) 0.6947(2)
H9_4 H 0.7635 0.2844 0.6468
C15_4 C 0.7551(2) 0.1678(2) 0.78895(17)
H10_4 H 0.7580 0.1120 0.8037
C16_4 C 0.73034(19) 0.3866(2) 0.8679(2)
C17_4 C 0.7467(3) 0.3346(2) 0.7447(2)
H11_4 H 0.7438 0.3905 0.7300
N3_5 N 0.14833(15) 0.03321(16) 0.55481(14)
C1_5 C 0.12284(18) 0.1066(2) 0.53356(16)
H1_5 H 0.1499 0.1437 0.5046
H2_5 H 0.0176 0.3950 0.5294
N4_5 N 0.05218(15) 0.12047(16) 0.55964(16)
C5_5 C 0.00525(17) 0.19326(19) 0.54633(18)
C12_5 C 0.03902(18) 0.27225(19) 0.5473(2)
H8_5 H 0.0907 0.2783 0.5593
C18_5 C 0.0368(2) 0.0516(3) 0.5991(3)
O5_3 O 0.30062(14) 0.10380(14) 0.52116(13)
O6_3 O 0.39743(17) 0.02019(14) 0.49968(17)
O1_3 O 0.80062(14) 0.39620(14) 0.47884(13)
O2_3 O 0.89743(17) 0.47981(14) 0.50032(17)
C2_5 C 0.99510(19) 0.3418(2) 0.53028(18)
C3_5 C 0.92807(19) 0.1824(2) 0.5303(2)
H3_5 H 0.9062 0.1289 0.5297
C6_5 C 0.86934(18) 0.40882(19) 0.49669(16)
C7_5 C 0.88416(18) 0.2527(2) 0.5149(2)
H5_5 H 0.8320 0.2466 0.5049
C9_5 C 0.91687(17) 0.33245(18) 0.51443(16)
H12_5 H 0.9912 0.0432 0.6241
Zn2_2 Zn 0.75775(2) 0.51105(2) 0.46730(2)
N1_5 N 0.73009(16) 0.62310(15) 0.66677(13)
N2_5 N 0.73815(14) 0.55070(16) 0.56951(13)
N3_6 N 0.64833(15) 0.46679(16) 0.44519(14)
C1_6 C 0.62284(18) 0.3934(2) 0.46644(16)
H1_6 H 0.6499 0.3563 0.4954
O3_3 O 0.76937(16) 0.86766(18) 0.93272(15)
C2_6 C 0.49510(19) 0.1582(2) 0.46972(18)
H2_6 H 0.5176 0.1050 0.4706
N4_6 N 0.55218(15) 0.37953(16) 0.44036(16)
O4_3 O 0.77550(18) 0.95985(17) 0.84743(18)
N5_5 N 0.6900(2) 0.50723(16) 0.61496(15)
C3_6 C 0.42807(19) 0.3176(2) 0.4697(2)
H3_6 H 0.4062 0.3711 0.4703
C4_5 C 0.76121(18) 0.6194(2) 0.60135(16)
H4_5 H 0.7940 0.6595 0.5819
C5_6 C 0.50525(17) 0.30674(19) 0.45367(18)
C6_6 C 0.36934(18) 0.09118(19) 0.50331(16)
C7_6 C 0.38416(18) 0.2473(2) 0.4851(2)
H5_6 H 0.3320 0.2534 0.4951
C8_5 C 0.7601(2) 0.8154(2) 0.81554(19)
C9_6 C 0.41687(17) 0.16755(18) 0.48557(16)
C10_5 C 0.6859(2) 0.55180(19) 0.67279(16)
H6_5 H 0.6571 0.5373 0.7126
C11_5 C 0.7551(2) 0.7329(2) 0.8383(2)
H7_5 H 0.7584 0.7205 0.8864
C12_6 C 0.53902(18) 0.22775(19) 0.4527(2)
H8_6 H 0.5907 0.2217 0.4407
C13_5 C 0.73933(19) 0.6882(2) 0.71818(16)
N6_5 N 0.5939(2) 0.5019(2) 0.4021(3)
C14_5 C 0.7421(2) 0.7715(2) 0.6947(2)
H9_5 H 0.7365 0.7844 0.6468
C15_5 C 0.7449(2) 0.6678(2) 0.78895(17)
H10_5 H 0.7420 0.6120 0.8037
C16_5 C 0.76966(19) 0.8866(2) 0.8679(2)
C17_5 C 0.7533(3) 0.8346(2) 0.7447(2)
H11_5 H 0.7562 0.8905 0.7300
C18_6 C 0.5368(2) 0.4484(3) 0.4009(3)
H12_6 H 0.4912 0.4568 0.3759
Zn3_3 Zn 0.75775(2) 0.98895(2) 0.96730(2)
O7_3 O 0.76937(16) 0.63234(18) 0.43272(15)
O8_3 O 0.77550(18) 0.54015(17) 0.34743(18)
N1_6 N 0.73009(16) 0.87690(15) 0.16677(13)
N2_6 N 0.73815(14) 0.94930(16) 0.06951(13)
N5_6 N 0.6900(2) 0.99277(16) 0.11496(15)
C4_6 C 0.76121(18) 0.8806(2) 0.10135(16)
H4_6 H 0.7940 0.8405 0.0819
C8_6 C 0.7601(2) 0.6846(2) 0.31554(19)
C10_6 C 0.6859(2) 0.94820(19) 0.17279(16)
H6_6 H 0.6571 0.9627 0.2126
C11_6 C 0.7551(2) 0.7671(2) 0.3383(2)
H7_6 H 0.7584 0.7795 0.3864
C13_6 C 0.73933(19) 0.8118(2) 0.21818(16)
C14_6 C 0.7421(2) 0.7285(2) 0.1947(2)
H9_6 H 0.7365 0.7156 0.1468
C15_6 C 0.7449(2) 0.8322(2) 0.28895(17)
H10_6 H 0.7420 0.8880 0.3037
C16_6 C 0.76966(19) 0.6134(2) 0.3679(2)
C17_6 C 0.7533(3) 0.6654(2) 0.2447(2)
H11_6 H 0.7562 0.6095 0.2300
N6_6 N 0.5939(2) 0.9981(2) 0.9021(3)
Zn1_2 Zn 0.25775(2) 0.98895(2) 0.53270(2)
N1_7 N 0.23009(16) 0.87690(15) 0.33323(13)
N2_7 N 0.23815(14) 0.94930(16) 0.43049(13)
O3_4 O 0.26937(16) 0.63234(18) 0.06728(15)
O4_4 O 0.27550(18) 0.54015(17) 0.15257(18)
N5_7 N 0.1900(2) 0.99277(16) 0.38504(15)
C4_7 C 0.26121(18) 0.8806(2) 0.39865(16)
H4_7 H 0.2940 0.8405 0.4181
C8_7 C 0.2601(2) 0.6846(2) 0.18446(19)
C10_7 C 0.1859(2) 0.94820(19) 0.32721(16)
H6_7 H 0.1571 0.9627 0.2874
C11_7 C 0.2551(2) 0.7671(2) 0.1617(2)
H7_7 H 0.2584 0.7795 0.1136
C13_7 C 0.23933(19) 0.8118(2) 0.28182(16)
N6_7 N 0.0939(2) 0.9981(2) 0.5979(3)
C14_7 C 0.2421(2) 0.7285(2) 0.3053(2)
H9_7 H 0.2365 0.7156 0.3532
C15_7 C 0.2449(2) 0.8322(2) 0.21105(17)
H10_7 H 0.2420 0.8880 0.1963
C16_7 C 0.26966(19) 0.6134(2) 0.1321(2)
C17_7 C 0.2533(3) 0.6654(2) 0.2553(2)
H11_7 H 0.2562 0.6095 0.2700
Zn3_4 Zn 0.25775(2) 0.51105(2) 0.03270(2)
O7_4 O 0.26937(16) 0.86766(18) 0.56728(15)
O8_4 O 0.27550(18) 0.95985(17) 0.65257(18)
O1_4 O 0.30062(14) 0.39620(14) 0.02116(13)
C6_7 C 0.36934(18) 0.40882(19) 0.00331(16)
O6_4 O 0.89743(17) 0.02019(14) 0.00032(17)
O2_4 O 0.39743(17) 0.47981(14) 0.99968(17)
N3_7 N 0.64833(15) 0.03321(16) 0.94519(14)
C1_7 C 0.62284(18) 0.1066(2) 0.96644(16)
H1_7 H 0.6499 0.1437 0.9954
C2_7 C 0.49510(19) 0.3418(2) 0.96972(18)
H2_7 H 0.5176 0.3950 0.9706
N4_7 N 0.55218(15) 0.12047(16) 0.94036(16)
C3_7 C 0.42807(19) 0.1824(2) 0.9697(2)
H3_7 H 0.4062 0.1289 0.9703
C5_7 C 0.50525(17) 0.19326(19) 0.95367(18)
C7_7 C 0.38416(18) 0.2527(2) 0.9851(2)
H5_7 H 0.3320 0.2466 0.9951
C9_7 C 0.41687(17) 0.33245(18) 0.98557(16)
C12_7 C 0.53902(18) 0.27225(19) 0.9527(2)
H8_7 H 0.5907 0.2783 0.9407
C18_7 C 0.5368(2) 0.0516(3) 0.9009(3)
H12_7 H 0.4912 0.0432 0.8759
O5_4 O 0.80062(14) 0.10380(14) 0.97884(13)
N3_8 N 0.14833(15) 0.46679(16) 0.05481(14)
C1_8 C 0.12284(18) 0.3934(2) 0.03356(16)
H1_8 H 0.1499 0.3563 0.0046
H2_8 H 0.0176 0.1050 0.0294
N4_8 N 0.05218(15) 0.37953(16) 0.05964(16)
C5_8 C 0.00525(17) 0.30674(19) 0.04633(18)
C12_8 C 0.03902(18) 0.22775(19) 0.0473(2)
H8_8 H 0.0907 0.2217 0.0593
N6_8 N 0.0939(2) 0.5019(2) 0.0979(3)
C18_8 C 0.0368(2) 0.4484(3) 0.0991(3)
N1_8 N 0.23009(16) 0.62310(15) 0.83323(13)
N2_8 N 0.23815(14) 0.55070(16) 0.93049(13)
N5_8 N 0.1900(2) 0.50723(16) 0.88504(15)
C4_8 C 0.26121(18) 0.6194(2) 0.89865(16)
H4_8 H 0.2940 0.6595 0.9181
C8_8 C 0.2601(2) 0.8154(2) 0.68446(19)
C10_8 C 0.1859(2) 0.55180(19) 0.82721(16)
H6_8 H 0.1571 0.5373 0.7874
C11_8 C 0.2551(2) 0.7329(2) 0.6617(2)
H7_8 H 0.2584 0.7205 0.6136
C13_8 C 0.23933(19) 0.6882(2) 0.78182(16)
C14_8 C 0.2421(2) 0.7715(2) 0.8053(2)
H9_8 H 0.2365 0.7844 0.8532
C15_8 C 0.2449(2) 0.6678(2) 0.71105(17)
H10_8 H 0.2420 0.6120 0.6963
C16_8 C 0.26966(19) 0.8866(2) 0.6321(2)
C17_8 C 0.2533(3) 0.8346(2) 0.7553(2)
H11_8 H 0.2562 0.8905 0.7700
C2_8 C 0.99510(19) 0.1582(2) 0.03028(18)
C3_8 C 0.92807(19) 0.3176(2) 0.0303(2)
H3_8 H 0.9062 0.3711 0.0297
C7_8 C 0.88416(18) 0.2473(2) 0.0149(2)
H5_8 H 0.8320 0.2534 0.0049
C9_8 C 0.91687(17) 0.16755(18) 0.01443(16)
H12_8 H 0.9912 0.4568 0.1241
C6_8 C 0.86934(18) 0.09118(19) 0.99669(16)
loop_
_geom_bond_atom_site_label_1
_geom_bond_atom_site_label_2
_geom_bond_site_symmetry_1
_geom_bond_site_symmetry_2
O7 Zn1 1_555 1_555
O8 Zn1 1_555 1_555
N1 C4 1_555 1_555
N2 N5 1_555 1_555
O3 C16 1_555 1_555
O4 C16 1_555 1_555
N5 C10 1_555 1_555
C4 N2 1_555 1_555
H4 C4 1_555 1_555
C8 C11 1_555 1_555
C10 N1 1_555 1_555
H6 C10 1_555 1_555
C11 H7 1_555 1_555
C13 N1 1_555 1_555
C14 C13 1_555 1_555
H9 C14 1_555 1_555
C15 C11 1_555 1_555
H10 C15 1_555 1_555
C16 C8 1_555 1_555
C17 C8 1_555 1_555
H11 C17 1_555 1_555
Zn3 O3 1_555 1_555
O4 Zn3 1_555 1_555
C13 C15 1_555 1_555
C14 C17 1_555 1_555
O1 C6 1_555 1_555
O2 C6 1_555 1_555
C3 H3 1_555 1_555
C6 C9 1_555 1_555
C7 C3 1_555 1_555
H5 C7 1_555 1_555
C9 C2 1_555 1_555
Zn3 O1 1_555 1_555
O2 Zn3 1_555 1_555
C7 C9 1_555 1_555
C1 N3 1_555 1_555
H1 C1 1_555 1_555
N4 C1 1_555 1_555
C5 N4 1_555 1_555
H8 C12 1_555 1_555
C18 N4 1_555 1_555
C5 C12 1_555 1_555
Zn3 N2_2 1_555 1_555
O5 C6_2 1_555 1_555
N1_2 C4_2 1_555 1_555
N2_2 N5_2 1_555 1_555
O6 C6_2 1_555 1_555
N3_2 Zn3 1_555 1_555
C1_2 N3_2 1_555 1_555
H1_2 C1_2 1_555 1_555
O7 C16_2 1_555 1_555
C2_2 H2_2 1_555 1_555
N4_2 C1_2 1_555 1_555
O8 C16_2 1_555 1_555
N5_2 C10_2 1_555 1_555
C3_2 H3_2 1_555 1_555
C4_2 N2_2 1_555 1_555
H4_2 C4_2 1_555 1_555
C5_2 N4_2 1_555 1_555
C6_2 C9_2 1_555 1_555
C7_2 C3_2 1_555 1_555
H5_2 C7_2 1_555 1_555
C8_2 C11_2 1_555 1_555
C9_2 C2_2 1_555 1_555
C10_2 N1_2 1_555 1_555
H6_2 C10_2 1_555 1_555
C11_2 H7_2 1_555 1_555
C12_2 C2_2 1_555 1_555
H8_2 C12_2 1_555 1_555
C13_2 N1_2 1_555 1_555
N6_2 N3_2 1_555 1_555
C14_2 C13_2 1_555 1_555
H9_2 C14_2 1_555 1_555
C15_2 C11_2 1_555 1_555
H10_2 C15_2 1_555 1_555
C16_2 C8_2 1_555 1_555
C17_2 C8_2 1_555 1_555
H11_2 C17_2 1_555 1_555
C18_2 N4_2 1_555 1_555
H12_2 C18_2 1_555 1_555
C3_2 C5_2 1_555 1_555
C5_2 C12_2 1_555 1_555
C7_2 C9_2 1_555 1_555
C13_2 C15_2 1_555 1_555
N6_2 C18_2 1_555 1_555
C14_2 C17_2 1_555 1_555
C1_3 N3_3 1_555 1_555
H1_3 C1_3 1_555 1_555
C2_3 H2_3 1_555 1_555
N4_3 C1_3 1_555 1_555
C3_3 H3_3 1_555 1_555
C5_3 N4_3 1_555 1_555
C7_3 C3_3 1_555 1_555
H5_3 C7_3 1_555 1_555
C9_3 C2_3 1_555 1_555
C12_3 C2_3 1_555 1_555
H8_3 C12_3 1_555 1_555
C18_3 N4_3 1_555 1_555
H12_3 C18_3 1_555 1_555
C3_3 C5_3 1_555 1_555
C5_3 C12_3 1_555 1_555
C7_3 C9_3 1_555 1_555
O1_2 C6_3 1_555 1_555
Zn2 O1_2 1_555 1_555
O5_2 C6_4 1_555 1_555
C3_4 H3_4 1_555 1_555
C7_4 C3_4 1_555 1_555
H5_4 C7_4 1_555 1_555
C9_4 C2_4 1_555 1_555
C7_4 C9_4 1_555 1_555
N1_3 C4_3 1_555 1_555
N2_3 N5_3 1_555 1_555
O3_2 C16_3 1_555 1_555
O4_2 C16_3 1_555 1_555
N5_3 C10_3 1_555 1_555
C4_3 N2_3 1_555 1_555
H4_3 C4_3 1_555 1_555
C8_3 C11_3 1_555 1_555
C10_3 N1_3 1_555 1_555
H6_3 C10_3 1_555 1_555
C11_3 H7_3 1_555 1_555
C13_3 N1_3 1_555 1_555
C14_3 C13_3 1_555 1_555
H9_3 C14_3 1_555 1_555
C15_3 C11_3 1_555 1_555
H10_3 C15_3 1_555 1_555
C16_3 C8_3 1_555 1_555
C17_3 C8_3 1_555 1_555
H11_3 C17_3 1_555 1_555
Zn3_2 O3_2 1_555 1_555
O4_2 Zn3_2 1_555 1_555
C13_3 C15_3 1_555 1_555
C14_3 C17_3 1_555 1_555
N3_4 Zn2 1_555 1_555
C1_4 N3_4 1_555 1_555
H1_4 C1_4 1_555 1_555
N4_4 C1_4 1_555 1_555
C5_4 N4_4 1_555 1_555
H8_4 C12_4 1_555 1_555
N6_3 N3_4 1_555 1_555
C18_4 N4_4 1_555 1_555
O7_2 Zn2 1_555 1_555
O8_2 Zn2 1_555 1_555
C5_4 C12_4 1_555 1_555
N6_3 C18_4 1_555 1_555
Zn3_2 N2_4 1_555 1_555
N1_4 C4_4 1_555 1_555
N2_4 N5_4 1_555 1_555
O7_2 C16_4 1_555 1_555
O8_2 C16_4 1_555 1_555
N5_4 C10_4 1_555 1_555
C4_4 N2_4 1_555 1_555
H4_4 C4_4 1_555 1_555
C8_4 C11_4 1_555 1_555
C10_4 N1_4 1_555 1_555
H6_4 C10_4 1_555 1_555
C11_4 H7_4 1_555 1_555
C13_4 N1_4 1_555 1_555
C14_4 C13_4 1_555 1_555
H9_4 C14_4 1_555 1_555
C15_4 C11_4 1_555 1_555
H10_4 C15_4 1_555 1_555
C16_4 C8_4 1_555 1_555
C17_4 C8_4 1_555 1_555
H11_4 C17_4 1_555 1_555
C13_4 C15_4 1_555 1_555
C14_4 C17_4 1_555 1_555
C1_5 N3_5 1_555 1_555
H1_5 C1_5 1_555 1_555
N4_5 C1_5 1_555 1_555
C5_5 N4_5 1_555 1_555
H8_5 C12_5 1_555 1_555
C18_5 N4_5 1_555 1_555
C5_5 C12_5 1_555 1_555
O1_3 C6_5 1_555 1_555
O2_3 C6_5 1_555 1_555
C3_5 H3_5 1_555 1_555
C6_5 C9_5 1_555 1_555
C7_5 C3_5 1_555 1_555
H5_5 C7_5 1_555 1_555
C9_5 C2_5 1_555 1_555
Zn2_2 O1_3 1_555 1_555
O2_3 Zn2_2 1_555 1_555
C7_5 C9_5 1_555 1_555
Zn2_2 N2_5 1_555 1_555
O5_3 C6_6 1_555 1_555
N1_5 C4_5 1_555 1_555
N2_5 N5_5 1_555 1_555
O6_3 C6_6 1_555 1_555
N3_6 Zn2_2 1_555 1_555
C1_6 N3_6 1_555 1_555
H1_6 C1_6 1_555 1_555
O3_3 C16_5 1_555 1_555
C2_6 H2_6 1_555 1_555
N4_6 C1_6 1_555 1_555
O4_3 C16_5 1_555 1_555
N5_5 C10_5 1_555 1_555
C3_6 H3_6 1_555 1_555
C4_5 N2_5 1_555 1_555
H4_5 C4_5 1_555 1_555
C5_6 N4_6 1_555 1_555
C6_6 C9_6 1_555 1_555
C7_6 C3_6 1_555 1_555
H5_6 C7_6 1_555 1_555
C8_5 C11_5 1_555 1_555
C9_6 C2_6 1_555 1_555
C10_5 N1_5 1_555 1_555
H6_5 C10_5 1_555 1_555
C11_5 H7_5 1_555 1_555
C12_6 C2_6 1_555 1_555
H8_6 C12_6 1_555 1_555
C13_5 N1_5 1_555 1_555
N6_5 N3_6 1_555 1_555
C14_5 C13_5 1_555 1_555
H9_5 C14_5 1_555 1_555
C15_5 C11_5 1_555 1_555
H10_5 C15_5 1_555 1_555
C16_5 C8_5 1_555 1_555
C17_5 C8_5 1_555 1_555
H11_5 C17_5 1_555 1_555
C18_6 N4_6 1_555 1_555
H12_6 C18_6 1_555 1_555
Zn3_3 O3_3 1_555 1_555
O7_3 Zn2_2 1_555 1_555
O8_3 Zn2_2 1_555 1_555
O4_3 Zn3_3 1_555 1_555
C3_6 C5_6 1_555 1_555
C5_6 C12_6 1_555 1_555
C7_6 C9_6 1_555 1_555
C13_5 C15_5 1_555 1_555
N6_5 C18_6 1_555 1_555
C14_5 C17_5 1_555 1_555
N1_6 C4_6 1_555 1_555
N2_6 N5_6 1_555 1_555
O7_3 C16_6 1_555 1_555
O8_3 C16_6 1_555 1_555
N5_6 C10_6 1_555 1_555
C4_6 N2_6 1_555 1_555
H4_6 C4_6 1_555 1_555
C8_6 C11_6 1_555 1_555
C10_6 N1_6 1_555 1_555
H6_6 C10_6 1_555 1_555
C11_6 H7_6 1_555 1_555
C13_6 N1_6 1_555 1_555
C14_6 C13_6 1_555 1_555
H9_6 C14_6 1_555 1_555
C15_6 C11_6 1_555 1_555
H10_6 C15_6 1_555 1_555
C16_6 C8_6 1_555 1_555
C17_6 C8_6 1_555 1_555
H11_6 C17_6 1_555 1_555
C13_6 C15_6 1_555 1_555
C14_6 C17_6 1_555 1_555
Zn1_2 N2_7 1_555 1_555
N1_7 C4_7 1_555 1_555
N2_7 N5_7 1_555 1_555
O3_4 C16_7 1_555 1_555
O4_4 C16_7 1_555 1_555
N5_7 C10_7 1_555 1_555
C4_7 N2_7 1_555 1_555
H4_7 C4_7 1_555 1_555
C8_7 C11_7 1_555 1_555
C10_7 N1_7 1_555 1_555
H6_7 C10_7 1_555 1_555
C11_7 H7_7 1_555 1_555
C13_7 N1_7 1_555 1_555
C14_7 C13_7 1_555 1_555
H9_7 C14_7 1_555 1_555
C15_7 C11_7 1_555 1_555
H10_7 C15_7 1_555 1_555
C16_7 C8_7 1_555 1_555
C17_7 C8_7 1_555 1_555
H11_7 C17_7 1_555 1_555
Zn3_4 O3_4 1_555 1_555
O7_4 Zn1_2 1_555 1_555
O8_4 Zn1_2 1_555 1_555
O4_4 Zn3_4 1_555 1_555
C13_7 C15_7 1_555 1_555
C14_7 C17_7 1_555 1_555
O1_4 C6_7 1_555 1_555
Zn3_4 O1_4 1_555 1_555
C1_7 N3_7 1_555 1_555
H1_7 C1_7 1_555 1_555
C2_7 H2_7 1_555 1_555
N4_7 C1_7 1_555 1_555
C3_7 H3_7 1_555 1_555
C5_7 N4_7 1_555 1_555
C7_7 C3_7 1_555 1_555
H5_7 C7_7 1_555 1_555
C9_7 C2_7 1_555 1_555
C12_7 C2_7 1_555 1_555
H8_7 C12_7 1_555 1_555
C18_7 N4_7 1_555 1_555
H12_7 C18_7 1_555 1_555
C3_7 C5_7 1_555 1_555
C5_7 C12_7 1_555 1_555
C7_7 C9_7 1_555 1_555
N3_8 Zn3_4 1_555 1_555
C1_8 N3_8 1_555 1_555
H1_8 C1_8 1_555 1_555
N4_8 C1_8 1_555 1_555
C5_8 N4_8 1_555 1_555
H8_8 C12_8 1_555 1_555
N6_8 N3_8 1_555 1_555
C18_8 N4_8 1_555 1_555
C5_8 C12_8 1_555 1_555
N6_8 C18_8 1_555 1_555
N1_8 C4_8 1_555 1_555
N2_8 N5_8 1_555 1_555
O7_4 C16_8 1_555 1_555
O8_4 C16_8 1_555 1_555
N5_8 C10_8 1_555 1_555
C4_8 N2_8 1_555 1_555
H4_8 C4_8 1_555 1_555
C8_8 C11_8 1_555 1_555
C10_8 N1_8 1_555 1_555
H6_8 C10_8 1_555 1_555
C11_8 H7_8 1_555 1_555
C13_8 N1_8 1_555 1_555
C14_8 C13_8 1_555 1_555
H9_8 C14_8 1_555 1_555
C15_8 C11_8 1_555 1_555
H10_8 C15_8 1_555 1_555
C16_8 C8_8 1_555 1_555
C17_8 C8_8 1_555 1_555
H11_8 C17_8 1_555 1_555
C13_8 C15_8 1_555 1_555
C14_8 C17_8 1_555 1_555
C3_8 H3_8 1_555 1_555
C7_8 C3_8 1_555 1_555
H5_8 C7_8 1_555 1_555
C9_8 C2_8 1_555 1_555
C7_8 C9_8 1_555 1_555
O5_4 C6_8 1_555 1_555

#END
