
###############################################################################
#
# This file contains modified crystal structure data generated from the
# MOF subset of the Cambridge Structural Database (CSD) v543 
# hosted by the Cambridge Crystallographic Data Centre (CCDC).
#
# This work is licensed under the Creative Commons
# Attribution-NonCommercial-ShareAlike 4.0 International License.
# To view a copy of this license, visit
# http://creativecommons.org/licenses/by-nc-sa/4.0/
# or send a letter to
# Creative Commons, PO Box 1866, Mountain View, CA 94042, USA.
#
# CIF created using the CSD Python API on 29 September 2022
# The structure has been converted into the P1 space group
# The structure has a 3D framework
# The original CSD entry SACHIP is in the monoclinic crystal system
# The framework has been calculated to contain at least 10.0% void space
# The void calculation uses a probe of radius 1.32A, grid spacing 0.4
#
###############################################################################

data_SACHIP
_chemical_formula_moiety         '(C208 H136 N8 O72 S12 Zn12)n'
_symmetry_cell_setting           triclinic
_symmetry_space_group_name_H-M   'P 1'
_symmetry_Int_Tables_number      1
_space_group_name_Hall           'P 1'
loop_
_symmetry_equiv_pos_site_id
_symmetry_equiv_pos_as_xyz
1 x,y,z
_cell_length_a                   16.033(4)
_cell_length_b                   20.590(5)
_cell_length_c                   17.404(4)
_cell_angle_alpha                90
_cell_angle_beta                 100.399(2)
_cell_angle_gamma                90
_cell_volume                     5651.03
loop_
_atom_site_label
_atom_site_type_symbol
_atom_site_fract_x
_atom_site_fract_y
_atom_site_fract_z
Zn5 Zn 0.01793(2) 0.671810(18) 0.25584(2)
Zn1 Zn 0.61180(2) 0.154194(18) 0.44039(2)
Zn2 Zn 0.48207(2) 0.171810(18) 0.24416(2)
S1 S 0.52401(6) 0.56500(4) 0.34882(5)
S2 S 0.11512(5) 0.00879(4) 0.45655(4)
O1 O 0.60322(17) 0.24884(12) 0.43346(14)
O2 O 0.49809(17) 0.24231(12) 0.33111(15)
O3 O 0.88636(18) 0.66166(17) 0.24259(17)
O4 O 0.81883(16) 0.62100(15) 0.13051(14)
O5 O 0.5349(2) 0.59381(13) 0.42495(17)
O6 O 0.44893(16) 0.57865(13) 0.29191(19)
O7 O 0.50971(15) 0.11112(14) 0.46030(14)
O8 O 0.46817(15) 0.10233(12) 0.33228(14)
O13 O 0.28898(17) 0.17212(15) 0.10034(15)
O14 O 0.35072(15) 0.18590(13) 0.22552(14)
O15 O 0.0836(2) 0.54648(14) 0.43826(19)
O16 O 0.0283(3) 0.59083(14) 0.32936(19)
N1 N 0.68525(16) 0.13796(13) 0.54763(15)
C1 C 0.5494(2) 0.27331(15) 0.37906(18)
C2 C 0.5455(2) 0.34630(15) 0.37390(18)
C3 C 0.5850(3) 0.38612(18) 0.43430(19)
H1 H 0.6164 0.3678 0.4792
C4 C 0.5776(3) 0.45300(17) 0.4274(2)
H2 H 0.6029 0.4798 0.4680
C5 C 0.5323(2) 0.47932(16) 0.3598(2)
C6 C 0.4938(2) 0.44083(17) 0.2985(2)
H3 H 0.4641 0.4594 0.2529
C7 C 0.5003(2) 0.37411(16) 0.3063(2)
H4 H 0.4741 0.3475 0.2659
C8 C 0.6135(2) 0.58536(16) 0.30681(19)
C9 C 0.6119(2) 0.57086(17) 0.22899(19)
H5 H 0.5648 0.5506 0.1996
C10 C 0.6806(2) 0.58680(17) 0.19560(18)
H6 H 0.6798 0.5776 0.1431
C11 C 0.7511(2) 0.61644(16) 0.23929(19)
C12 C 0.7516(2) 0.6304(2) 0.3167(2)
H7 H 0.7989 0.6502 0.3463
C13 C 0.6824(3) 0.6152(2) 0.3514(2)
H8 H 0.6827 0.6250 0.4036
C14 C 0.8256(2) 0.63437(17) 0.2021(2)
C15 C 0.4562(2) 0.09636(16) 0.40028(19)
C16 C 0.37272(19) 0.07021(15) 0.41388(18)
C17 C 0.3639(2) 0.04579(18) 0.48670(19)
H9 H 0.4107 0.0437 0.5269
C18 C 0.2859(2) 0.02483(18) 0.49923(19)
H10 H 0.2798 0.0078 0.5474
C19 C 0.21706(19) 0.02946(15) 0.43922(17)
C20 C 0.2248(2) 0.05220(17) 0.36600(18)
H11 H 0.1777 0.0544 0.3260
C21 C 0.3040(2) 0.07163(17) 0.35339(18)
H12 H 0.3109 0.0856 0.3041
C22 C 0.07980(19) 0.08125(15) 0.49514(17)
C23 C 0.0919(2) 0.08972(17) 0.57545(18)
H13 H 0.1191 0.0580 0.6089
C24 C 0.0630(2) 0.14602(17) 0.60505(18)
H14 H 0.0715 0.1525 0.6588
C25 C 0.02141(19) 0.19285(16) 0.55496(18)
C26 C 0.0097(2) 0.18361(16) 0.47458(19)
C27 C 0.0395(2) 0.12771(16) 0.44458(18)
H16 H 0.0324 0.1215 0.3909
C29 C 0.2889(2) 0.18722(16) 0.17090(19)
C30 C 0.2042(2) 0.20847(15) 0.18831(18)
C31 C 0.1942(2) 0.21805(18) 0.26543(19)
H17 H 0.2397 0.2113 0.3061
C32 C 0.1164(2) 0.23764(18) 0.28143(19)
H18 H 0.1091 0.2432 0.3328
C33 C 0.0497(2) 0.24880(15) 0.22021(18)
C34 C 0.0589(2) 0.23974(17) 0.14352(18)
H19 H 0.0137 0.2474 0.1029
C35 C 0.1365(2) 0.21896(16) 0.12810(18)
H20 H 0.1431 0.2120 0.0767
H21 H 0.0002 0.3277 0.3925
C38 C 0.0202(3) 0.42446(17) 0.3882(2)
H22 H 0.0386 0.4304 0.4416
C39 C 0.0149(2) 0.47680(16) 0.3381(2)
C42 C 0.0432(2) 0.54295(17) 0.3696(2)
C48 C 0.7679(2) 0.15249(18) 0.5628(2)
H30 H 0.7936 0.1671 0.5222
C49 C 0.8161(2) 0.1467(2) 0.6359(2)
H31 H 0.8732 0.1580 0.6447
C50 C 0.7795(3) 0.1242(2) 0.6958(2)
H32 H 0.8113 0.1199 0.7458
C51 C 0.6947(3) 0.1080(2) 0.6811(2)
H33 H 0.6684 0.0923 0.7208
C52 C 0.6499(2) 0.11558(18) 0.60661(19)
H34 H 0.5927 0.1047 0.5966
Zn4 Zn 0.88820(2) 0.654194(18) 0.05961(2)
Zn8 Zn 0.37579(3) 0.136780(19) 0.04887(2)
Zn9 Zn 0.12421(3) 0.636780(19) 0.45113(2)
O19 O 0.61364(18) 0.16166(17) 0.25741(17)
O20 O 0.68117(16) 0.12100(15) 0.36949(14)
O21 O 0.49356(16) 0.24187(12) 0.15903(13)
O24 O 0.4717(3) 0.09083(14) 0.17064(19)
O6_2 O 0.05107(16) 0.07865(13) 0.20809(19)
O15_2 O 0.4164(2) 0.04648(14) 0.06174(19)
H23 H 0.5182 0.0040 0.2743
C42_2 C 0.4568(2) 0.04295(17) 0.1304(2)
S2_2 S 0.38488(5) 0.50879(4) 0.04345(4)
S3 S 0.54900(5) 0.77507(4) 0.25860(5)
O2_2 O 0.00191(17) 0.74231(12) 0.16889(15)
O8_2 O 0.03183(15) 0.60233(12) 0.16772(14)
O12 O 0.43839(14) 0.49629(12) 0.11725(13)
O13_2 O 0.21102(17) 0.67212(15) 0.39966(15)
O14_2 O 0.14928(15) 0.68590(13) 0.27448(14)
O17 O 0.56921(16) 0.73528(12) 0.19692(15)
O18 O 0.60788(16) 0.78085(13) 0.33081(15)
N2 N 0.68705(19) 0.87105(15) 0.06440(17)
C6_2 C 0.0062(2) 0.94083(17) 0.2015(2)
H3_2 H 0.0359 0.9594 0.2471
H4_2 H 0.0259 0.8475 0.2341
C15_2 C 0.0438(2) 0.59636(16) 0.09972(19)
C16_2 C 0.12728(19) 0.57021(15) 0.08612(18)
C17_2 C 0.1361(2) 0.54579(18) 0.01330(19)
C18_2 C 0.2141(2) 0.52483(18) 0.00077(19)
C19_2 C 0.28294(19) 0.52946(15) 0.06078(17)
C20_2 C 0.2752(2) 0.55220(17) 0.13400(18)
H11_2 H 0.3223 0.5544 0.1740
C21_2 C 0.1960(2) 0.57163(17) 0.14661(18)
H12_2 H 0.1891 0.5856 0.1959
C22_2 C 0.42020(19) 0.58125(15) 0.00486(17)
C26_2 C 0.4903(2) 0.68361(16) 0.02542(19)
H15 H 0.5182 0.7150 0.0590
C27_2 C 0.4605(2) 0.62771(16) 0.05542(18)
H16_2 H 0.4676 0.6215 0.1091
C29_2 C 0.2111(2) 0.68722(16) 0.32910(19)
C30_2 C 0.2958(2) 0.70847(15) 0.31169(18)
C31_2 C 0.3058(2) 0.71805(18) 0.23457(19)
H17_2 H 0.2603 0.7113 0.1939
C32_2 C 0.3836(2) 0.73764(18) 0.21857(19)
H18_2 H 0.3909 0.7432 0.1672
C33_2 C 0.4503(2) 0.74880(15) 0.27979(18)
C34_2 C 0.4411(2) 0.73974(17) 0.35648(18)
H19_2 H 0.4863 0.7474 0.3971
C35_2 C 0.3635(2) 0.71896(16) 0.37190(18)
H20_2 H 0.3569 0.7120 0.4233
C36 C 0.5267(2) 0.85441(15) 0.22060(19)
C37 C 0.5018(3) 0.86293(17) 0.1411(2)
H21_2 H 0.4998 0.8277 0.1075
C38_2 C 0.4798(3) 0.92446(17) 0.1118(2)
H22_2 H 0.4614 0.9304 0.0584
C39_2 C 0.4851(2) 0.97680(16) 0.1619(2)
C40 C 0.5133(3) 0.96834(18) 0.2410(2)
C41 C 0.5345(3) 0.90691(18) 0.2709(2)
H24 H 0.5536 0.9011 0.3242
C43 C 0.6984(3) 0.9289(2) 0.0999(2)
H25 H 0.6815 0.9662 0.0711
C44 C 0.7344(3) 0.9349(3) 0.1777(3)
H26 H 0.7420 0.9757 0.2011
C45 C 0.7591(3) 0.8794(3) 0.2204(3)
H27 H 0.7829 0.8822 0.2732
C46 C 0.7483(3) 0.8208(3) 0.1846(3)
H28 H 0.7651 0.7828 0.2121
C47 C 0.7122(3) 0.8183(2) 0.1070(2)
H29 H 0.7049 0.7779 0.0828
O21_2 O 0.00644(16) 0.74187(12) 0.34097(13)
S1_2 S 0.97599(6) 0.06500(4) 0.15118(5)
O5_2 O 0.9651(2) 0.09381(13) 0.07505(17)
C8_2 C 0.8865(2) 0.08536(16) 0.19319(19)
C9_2 C 0.8881(2) 0.07086(17) 0.27101(19)
H5_2 H 0.9352 0.0506 0.3004
C10_2 C 0.8194(2) 0.08680(17) 0.30440(18)
H6_2 H 0.8202 0.0776 0.3569
C11_2 C 0.7489(2) 0.11644(16) 0.26071(19)
C12_2 C 0.7484(2) 0.1304(2) 0.1833(2)
H7_2 H 0.7011 0.1502 0.1537
C13_2 C 0.8176(3) 0.1152(2) 0.1486(2)
H8_2 H 0.8173 0.1250 0.0964
C14_2 C 0.6744(2) 0.13437(17) 0.2979(2)
O1_2 O 0.89678(17) 0.74884(12) 0.06654(14)
O7_2 O 0.99029(15) 0.61112(14) 0.03970(14)
C1_2 C 0.9506(2) 0.77331(15) 0.12094(18)
C2_2 C 0.9545(2) 0.84630(15) 0.12610(18)
C3_2 C 0.9150(3) 0.88612(18) 0.06570(19)
H1_2 H 0.8836 0.8678 0.0208
C4_2 C 0.9224(3) 0.95300(17) 0.0726(2)
H2_2 H 0.8971 0.9798 0.0320
C5_2 C 0.9677(2) 0.97932(16) 0.1402(2)
C7_2 C 0.9997(2) 0.87411(16) 0.1937(2)
S3_2 S 0.04900(5) 0.72493(4) 0.75860(5)
O10 O 0.04427(19) 0.70490(13) 0.46357(14)
O17_2 O 0.06921(16) 0.76472(12) 0.69692(15)
O18_2 O 0.10788(16) 0.71915(13) 0.83081(15)
N2_2 N 0.18705(19) 0.62895(15) 0.56440(17)
H15_2 H 0.0182 0.7850 0.5590
C28 C 0.0115(2) 0.74626(16) 0.41299(19)
C36_2 C 0.0267(2) 0.64559(15) 0.72060(19)
C37_2 C 0.0018(3) 0.63707(17) 0.6411(2)
C40_2 C 0.0133(3) 0.53166(18) 0.7410(2)
H23_2 H 0.0182 0.4960 0.7743
C41_2 C 0.0345(3) 0.59309(18) 0.7709(2)
H24_2 H 0.0536 0.5989 0.8242
C43_2 C 0.1984(3) 0.5711(2) 0.5999(2)
H25_2 H 0.1815 0.5338 0.5711
C44_2 C 0.2344(3) 0.5651(3) 0.6777(3)
H26_2 H 0.2420 0.5243 0.7011
C45_2 C 0.2591(3) 0.6206(3) 0.7204(3)
H27_2 H 0.2829 0.6178 0.7732
C46_2 C 0.2483(3) 0.6792(3) 0.6846(3)
H28_2 H 0.2651 0.7172 0.7121
C47_2 C 0.2122(3) 0.6817(2) 0.6070(2)
H29_2 H 0.2049 0.7221 0.5828
O10_2 O 0.45573(19) 0.20490(13) 0.03643(14)
O11 O 0.62457(15) 0.54010(11) 0.01681(14)
H9_2 H 0.9107 0.4563 0.0269
H10_2 H 0.7798 0.4922 0.0474
C23_2 C 0.5919(2) 0.41028(17) 0.07545(18)
H13_2 H 0.6191 0.4420 0.1089
C24_2 C 0.5630(2) 0.35398(17) 0.10505(18)
H14_2 H 0.5715 0.3475 0.1588
C25_2 C 0.52141(19) 0.30715(16) 0.05496(18)
C28_2 C 0.4885(2) 0.24626(16) 0.08701(19)
O11_2 O 0.12457(15) 0.95990(11) 0.51681(14)
O12_2 O 0.06161(14) 0.99629(12) 0.38275(13)
Zn3 Zn 0.87579(3) 0.363220(19) 0.54887(2)
S3_3 S 0.95100(5) 0.27507(4) 0.24140(5)
O9 O 0.99356(16) 0.25813(12) 0.65903(13)
O10_3 O 0.95573(19) 0.29510(13) 0.53643(14)
O17_3 O 0.93079(16) 0.23528(12) 0.30308(15)
O18_3 O 0.89212(16) 0.28085(13) 0.16919(15)
N2_3 N 0.81295(19) 0.37105(15) 0.43560(17)
H15_3 H 0.9818 0.2150 0.4410
C28_3 C 0.9885(2) 0.25374(16) 0.58701(19)
C36_3 C 0.9733(2) 0.35441(15) 0.27940(19)
C37_3 C 0.9982(3) 0.36293(17) 0.3589(2)
C40_3 C 0.9867(3) 0.46834(18) 0.2590(2)
H23_3 H 0.9818 0.5040 0.2257
C41_3 C 0.9655(3) 0.40691(18) 0.2291(2)
H24_3 H 0.9464 0.4011 0.1758
C43_3 C 0.8016(3) 0.4289(2) 0.4001(2)
H25_3 H 0.8185 0.4662 0.4289
C44_3 C 0.7656(3) 0.4349(3) 0.3223(3)
H26_3 H 0.7580 0.4757 0.2989
C45_3 C 0.7409(3) 0.3794(3) 0.2796(3)
H27_3 H 0.7171 0.3822 0.2268
C46_3 C 0.7517(3) 0.3208(3) 0.3154(3)
H28_3 H 0.7349 0.2828 0.2879
C47_3 C 0.7878(3) 0.3183(2) 0.3930(2)
H29_3 H 0.7951 0.2779 0.4172
Zn6 Zn 0.98207(2) 0.328190(18) 0.74416(2)
O22 O 0.78898(17) 0.32788(15) 0.60034(15)
O23 O 0.9164(2) 0.45352(14) 0.56174(19)
Zn3_2 Zn 0.62421(3) 0.863220(19) 0.95113(2)
O9_2 O 0.50644(16) 0.75813(12) 0.84097(13)
O10_4 O 0.54427(19) 0.79510(13) 0.96357(14)
O11_3 O 0.37543(15) 0.45990(11) 0.98319(14)
H9_3 H 0.0893 0.5437 0.9731
H10_3 H 0.2202 0.5078 0.9526
C23_3 C 0.4081(2) 0.58972(17) 0.92455(18)
H13_3 H 0.3809 0.5580 0.8911
C24_3 C 0.4370(2) 0.64602(17) 0.89495(18)
H14_3 H 0.4285 0.6525 0.8412
C25_3 C 0.47859(19) 0.69285(16) 0.94504(18)
C28_4 C 0.5115(2) 0.75374(16) 0.91299(19)
Zn6_2 Zn 0.51793(2) 0.828190(18) 0.75584(2)
O22_2 O 0.71102(17) 0.82788(15) 0.89966(15)
O23_2 O 0.5836(2) 0.95352(14) 0.93826(19)
Zn1_2 Zn 0.38820(2) 0.845806(18) 0.55961(2)
S1_3 S 0.47599(6) 0.43500(4) 0.65118(5)
S2_3 S 0.88488(5) 0.99121(4) 0.54345(4)
O1_3 O 0.39678(17) 0.75116(12) 0.56654(14)
O2_3 O 0.50191(17) 0.75769(12) 0.66889(15)
O3_2 O 0.11364(18) 0.33834(17) 0.75741(17)
O4_2 O 0.18117(16) 0.37900(15) 0.86949(14)
O5_3 O 0.4651(2) 0.40619(13) 0.57505(17)
O6_3 O 0.55107(16) 0.42135(13) 0.70809(19)
O7_3 O 0.49029(15) 0.88888(14) 0.53970(14)
O8_3 O 0.53183(15) 0.89767(12) 0.66772(14)
O14_3 O 0.64928(15) 0.81410(13) 0.77448(14)
O16_2 O 0.9717(3) 0.40917(14) 0.67064(19)
N1_2 N 0.31475(16) 0.86204(13) 0.45237(15)
C1_3 C 0.4506(2) 0.72669(15) 0.62094(18)
C2_3 C 0.4545(2) 0.65370(15) 0.62610(18)
C3_3 C 0.4150(3) 0.61388(18) 0.56570(19)
H1_3 H 0.3836 0.6322 0.5208
C4_3 C 0.4224(3) 0.54700(17) 0.5726(2)
H2_3 H 0.3971 0.5202 0.5320
C5_3 C 0.4677(2) 0.52068(16) 0.6402(2)
C6_3 C 0.5062(2) 0.55917(17) 0.7015(2)
H3_3 H 0.5359 0.5406 0.7471
C7_3 C 0.4997(2) 0.62589(16) 0.6937(2)
H4_3 H 0.5259 0.6525 0.7341
C8_3 C 0.3865(2) 0.41464(16) 0.69319(19)
C9_3 C 0.3881(2) 0.42914(17) 0.77101(19)
H5_3 H 0.4352 0.4494 0.8004
C10_3 C 0.3194(2) 0.41320(17) 0.80440(18)
H6_3 H 0.3202 0.4224 0.8569
C11_3 C 0.2489(2) 0.38356(16) 0.76071(19)
C12_3 C 0.2484(2) 0.3696(2) 0.6833(2)
H7_3 H 0.2011 0.3498 0.6537
C13_3 C 0.3176(3) 0.3848(2) 0.6486(2)
H8_3 H 0.3173 0.3750 0.5964
C14_3 C 0.1744(2) 0.36563(17) 0.7979(2)
C15_3 C 0.5438(2) 0.90364(16) 0.59972(19)
C16_3 C 0.62728(19) 0.92979(15) 0.58612(18)
C17_3 C 0.6361(2) 0.95421(18) 0.51330(19)
H9_4 H 0.5893 0.9563 0.4731
C18_3 C 0.7141(2) 0.97517(18) 0.50077(19)
H10_4 H 0.7202 0.9922 0.4526
C19_3 C 0.78294(19) 0.97054(15) 0.56078(17)
C20_3 C 0.7752(2) 0.94780(17) 0.63400(18)
H11_3 H 0.8223 0.9456 0.6740
C21_3 C 0.6960(2) 0.92837(17) 0.64661(18)
H12_3 H 0.6891 0.9144 0.6959
C22_3 C 0.92020(19) 0.91875(15) 0.50486(17)
C23_4 C 0.9081(2) 0.91028(17) 0.42455(18)
H13_4 H 0.8809 0.9420 0.3911
C24_4 C 0.9370(2) 0.85398(17) 0.39495(18)
H14_4 H 0.9285 0.8475 0.3412
C25_4 C 0.97859(19) 0.80715(16) 0.44504(18)
C26_3 C 0.9903(2) 0.81639(16) 0.52542(19)
C27_3 C 0.9605(2) 0.87229(16) 0.55542(18)
H16_3 H 0.9676 0.8785 0.6091
C29_3 C 0.7111(2) 0.81278(16) 0.82910(19)
C30_3 C 0.7958(2) 0.79153(15) 0.81169(18)
C31_3 C 0.8058(2) 0.78195(18) 0.73457(19)
H17_3 H 0.7603 0.7887 0.6939
C32_3 C 0.8836(2) 0.76236(18) 0.71857(19)
H18_3 H 0.8909 0.7568 0.6672
C33_3 C 0.9503(2) 0.75120(15) 0.77979(18)
C34_3 C 0.9411(2) 0.76026(17) 0.85648(18)
H19_3 H 0.9863 0.7526 0.8971
C35_3 C 0.8635(2) 0.78104(16) 0.87190(18)
H20_3 H 0.8569 0.7880 0.9233
H21_3 H 0.9998 0.6723 0.6075
C38_3 C 0.9798(3) 0.57554(17) 0.6118(2)
H22_3 H 0.9614 0.5696 0.5584
C39_3 C 0.9851(2) 0.52320(16) 0.6619(2)
C42_3 C 0.9568(2) 0.45705(17) 0.6304(2)
C48_2 C 0.2321(2) 0.84751(18) 0.4372(2)
H30_2 H 0.2064 0.8329 0.4778
C49_2 C 0.1839(2) 0.8533(2) 0.3641(2)
H31_2 H 0.1268 0.8420 0.3553
C50_2 C 0.2205(3) 0.8758(2) 0.3042(2)
H32_2 H 0.1887 0.8801 0.2542
C51_2 C 0.3053(3) 0.8920(2) 0.3189(2)
H33_2 H 0.3316 0.9077 0.2792
C52_2 C 0.3501(2) 0.88442(18) 0.39339(19)
H34_2 H 0.4073 0.8953 0.4034
Zn4_2 Zn 0.11180(2) 0.345806(18) 0.94039(2)
O19_2 O 0.38636(18) 0.83834(17) 0.74259(17)
O20_2 O 0.31883(16) 0.87900(15) 0.63051(14)
O24_2 O 0.5283(3) 0.90917(14) 0.82936(19)
O1_4 O 0.10322(17) 0.25116(12) 0.93346(14)
O7_4 O 0.00971(15) 0.38888(14) 0.96030(14)
C1_4 C 0.0494(2) 0.22669(15) 0.87906(18)
C2_4 C 0.0455(2) 0.15370(15) 0.87390(18)
C3_4 C 0.0850(3) 0.11388(18) 0.93430(19)
H1_4 H 0.1164 0.1322 0.9792
C4_4 C 0.0776(3) 0.04700(17) 0.9274(2)
H2_4 H 0.1029 0.0202 0.9680
C5_4 C 0.0323(2) 0.02068(16) 0.8598(2)
C7_4 C 0.0003(2) 0.12589(16) 0.8063(2)
S1_4 S 0.02401(6) 0.93500(4) 0.84882(5)
O5_4 O 0.0349(2) 0.90619(13) 0.92495(17)
C8_4 C 0.1135(2) 0.91464(16) 0.80681(19)
C9_4 C 0.1119(2) 0.92914(17) 0.72899(19)
H5_4 H 0.0648 0.9494 0.6996
C10_4 C 0.1806(2) 0.91320(17) 0.69560(18)
H6_4 H 0.1798 0.9224 0.6431
C11_4 C 0.2511(2) 0.88356(16) 0.73929(19)
C12_4 C 0.2516(2) 0.8696(2) 0.8167(2)
H7_4 H 0.2989 0.8498 0.8463
C13_4 C 0.1824(3) 0.8848(2) 0.8514(2)
H8_4 H 0.1827 0.8750 0.9036
C14_4 C 0.3256(2) 0.86563(17) 0.7021(2)
S2_4 S 0.61512(5) 0.49121(4) 0.95655(4)
S3_4 S 0.45100(5) 0.22493(4) 0.74140(5)
O2_4 O 0.99809(17) 0.25769(12) 0.83111(15)
O8_4 O 0.96817(15) 0.39767(12) 0.83228(14)
O12_3 O 0.56161(14) 0.50371(12) 0.88275(13)
O14_4 O 0.85072(15) 0.31410(13) 0.72552(14)
O17_4 O 0.43079(16) 0.26472(12) 0.80308(15)
O18_4 O 0.39212(16) 0.21915(13) 0.66919(15)
N2_4 N 0.31295(19) 0.12895(15) 0.93560(17)
C6_4 C 0.9938(2) 0.05917(17) 0.7985(2)
H3_4 H 0.9641 0.0406 0.7529
H4_4 H 0.9741 0.1525 0.7659
C15_4 C 0.9562(2) 0.40364(16) 0.90028(19)
C16_4 C 0.87272(19) 0.42979(15) 0.91388(18)
C17_4 C 0.8639(2) 0.45421(18) 0.98670(19)
C18_4 C 0.7859(2) 0.47517(18) 0.99923(19)
C19_4 C 0.71706(19) 0.47054(15) 0.93922(17)
C20_4 C 0.7248(2) 0.44780(17) 0.86600(18)
H11_4 H 0.6777 0.4456 0.8260
C21_4 C 0.8040(2) 0.42837(17) 0.85339(18)
H12_4 H 0.8109 0.4144 0.8041
C22_4 C 0.57980(19) 0.41875(15) 0.99514(17)
C26_4 C 0.5097(2) 0.31639(16) 0.97458(19)
H15_4 H 0.4818 0.2850 0.9410
C27_4 C 0.5395(2) 0.37229(16) 0.94458(18)
H16_4 H 0.5324 0.3785 0.8909
C29_4 C 0.7889(2) 0.31278(16) 0.67090(19)
C30_4 C 0.7042(2) 0.29153(15) 0.68831(18)
C31_4 C 0.6942(2) 0.28195(18) 0.76543(19)
H17_4 H 0.7397 0.2887 0.8061
C32_4 C 0.6164(2) 0.26236(18) 0.78143(19)
H18_4 H 0.6091 0.2568 0.8328
C33_4 C 0.5497(2) 0.25120(15) 0.72021(18)
C34_4 C 0.5589(2) 0.26026(17) 0.64352(18)
H19_4 H 0.5137 0.2526 0.6029
C35_4 C 0.6365(2) 0.28104(16) 0.62810(18)
H20_4 H 0.6431 0.2880 0.5767
C36_4 C 0.4733(2) 0.14559(15) 0.77940(19)
C37_4 C 0.4982(3) 0.13707(17) 0.8589(2)
H21_4 H 0.5002 0.1723 0.8925
C38_4 C 0.5202(3) 0.07554(17) 0.8882(2)
H22_4 H 0.5386 0.0696 0.9416
C39_4 C 0.5149(2) 0.02320(16) 0.8381(2)
C40_4 C 0.4867(3) 0.03166(18) 0.7590(2)
C41_4 C 0.4655(3) 0.09309(18) 0.7291(2)
H24_4 H 0.4464 0.0989 0.6758
C43_4 C 0.3016(3) 0.0711(2) 0.9001(2)
H25_4 H 0.3185 0.0338 0.9289
C44_4 C 0.2656(3) 0.0651(3) 0.8223(3)
H26_4 H 0.2580 0.0243 0.7989
C45_4 C 0.2409(3) 0.1206(3) 0.7796(3)
H27_4 H 0.2171 0.1178 0.7268
C46_4 C 0.2517(3) 0.1792(3) 0.8154(3)
H28_4 H 0.2349 0.2172 0.7879
C47_4 C 0.2878(3) 0.1817(2) 0.8930(2)
H29_4 H 0.2951 0.2221 0.9172
O6_4 O 0.94893(16) 0.92135(13) 0.79191(19)
H23_4 H 0.4818 0.9960 0.7257
C42_4 C 0.5432(2) 0.95705(17) 0.8696(2)
N1_3 N 0.81475(16) 0.63796(13) 0.95237(15)
C48_3 C 0.7321(2) 0.65249(18) 0.9372(2)
H30_3 H 0.7064 0.6671 0.9778
C49_3 C 0.6839(2) 0.6467(2) 0.8641(2)
H31_3 H 0.6268 0.6580 0.8553
C50_3 C 0.7205(3) 0.6242(2) 0.8042(2)
H32_3 H 0.6887 0.6199 0.7542
C51_3 C 0.8053(3) 0.6080(2) 0.8189(2)
H33_3 H 0.8316 0.5923 0.7792
C52_3 C 0.8501(2) 0.61558(18) 0.89339(19)
H34_3 H 0.9073 0.6047 0.9034
O11_4 O 0.87543(15) 0.04010(11) 0.48319(14)
O12_4 O 0.93839(14) 0.00371(12) 0.61725(13)
N1_4 N 0.18525(16) 0.36204(13) 0.04763(15)
C48_4 C 0.2679(2) 0.34751(18) 0.0628(2)
H30_4 H 0.2936 0.3329 0.0222
C49_4 C 0.3161(2) 0.3533(2) 0.1359(2)
H31_4 H 0.3732 0.3420 0.1447
C50_4 C 0.2795(3) 0.3758(2) 0.1958(2)
H32_4 H 0.3113 0.3801 0.2458
C51_4 C 0.1947(3) 0.3920(2) 0.1811(2)
H33_4 H 0.1684 0.4077 0.2208
C52_4 C 0.1499(2) 0.38442(18) 0.10661(19)
H34_4 H 0.0927 0.3953 0.0966
loop_
_geom_bond_atom_site_label_1
_geom_bond_atom_site_label_2
_geom_bond_site_symmetry_1
_geom_bond_site_symmetry_2
Zn1 O1 1_555 1_555
Zn2 O2 1_555 1_555
S1 O5 1_555 1_555
O1 C1 1_555 1_555
O2 C1 1_555 1_555
O3 C14 1_555 1_555
O4 C14 1_555 1_555
O6 S1 1_555 1_555
O7 Zn1 1_555 1_555
O8 Zn2 1_555 1_555
O13 C29 1_555 1_555
O14 Zn2 1_555 1_555
O15 C42 1_555 1_555
O16 C42 1_555 1_555
N1 Zn1 1_555 1_555
C1 C2 1_555 1_555
C2 C3 1_555 1_555
C3 H1 1_555 1_555
C4 C3 1_555 1_555
H2 C4 1_555 1_555
C5 S1 1_555 1_555
C6 C5 1_555 1_555
H3 C6 1_555 1_555
C7 C2 1_555 1_555
H4 C7 1_555 1_555
C8 S1 1_555 1_555
C9 C8 1_555 1_555
H5 C9 1_555 1_555
C10 C9 1_555 1_555
H6 C10 1_555 1_555
C11 C10 1_555 1_555
C12 C11 1_555 1_555
H7 C12 1_555 1_555
C13 C8 1_555 1_555
H8 C13 1_555 1_555
C14 C11 1_555 1_555
C15 O7 1_555 1_555
C16 C15 1_555 1_555
C17 C16 1_555 1_555
H9 C17 1_555 1_555
C18 C17 1_555 1_555
H10 C18 1_555 1_555
C19 S2 1_555 1_555
C20 C19 1_555 1_555
H11 C20 1_555 1_555
C21 C16 1_555 1_555
H12 C21 1_555 1_555
C22 S2 1_555 1_555
C23 C22 1_555 1_555
H13 C23 1_555 1_555
C24 C23 1_555 1_555
H14 C24 1_555 1_555
C25 C24 1_555 1_555
C26 C25 1_555 1_555
C27 C22 1_555 1_555
H16 C27 1_555 1_555
C29 O14 1_555 1_555
C30 C29 1_555 1_555
C31 C30 1_555 1_555
H17 C31 1_555 1_555
C32 C31 1_555 1_555
H18 C32 1_555 1_555
C34 C33 1_555 1_555
H19 C34 1_555 1_555
C35 C30 1_555 1_555
H20 C35 1_555 1_555
H22 C38 1_555 1_555
C39 C38 1_555 1_555
C42 C39 1_555 1_555
C48 N1 1_555 1_555
H30 C48 1_555 1_555
C49 C48 1_555 1_555
H31 C49 1_555 1_555
C50 C49 1_555 1_555
H32 C50 1_555 1_555
C51 C50 1_555 1_555
H33 C51 1_555 1_555
C52 N1 1_555 1_555
H34 C52 1_555 1_555
Zn4 O4 1_555 1_555
Zn5 O16 1_555 1_555
Zn8 O13 1_555 1_555
Zn9 O15 1_555 1_555
O19 Zn2 1_555 1_555
O20 Zn1 1_555 1_555
O21 Zn2 1_555 1_555
O24 Zn2 1_555 1_555
O8 C15 1_555 1_555
C4 C5 1_555 1_555
C6 C7 1_555 1_555
C12 C13 1_555 1_555
C18 C19 1_555 1_555
C20 C21 1_555 1_555
C26 C27 1_555 1_555
C32 C33 1_555 1_555
C34 C35 1_555 1_555
C51 C52 1_555 1_555
O15_2 C42_2 1_555 1_555
O24 C42_2 1_555 1_555
Zn8 O15_2 1_555 1_555
Zn5 O2_2 1_555 1_555
S3 O17 1_555 1_555
O8_2 Zn5 1_555 1_555
O12 S2_2 1_555 1_555
O13_2 C29_2 1_555 1_555
O14_2 Zn5 1_555 1_555
O18 S3 1_555 1_555
H3_2 C6_2 1_555 1_555
C16_2 C15_2 1_555 1_555
C17_2 C16_2 1_555 1_555
C18_2 C17_2 1_555 1_555
C19_2 S2_2 1_555 1_555
C20_2 C19_2 1_555 1_555
H11_2 C20_2 1_555 1_555
C21_2 C16_2 1_555 1_555
H12_2 C21_2 1_555 1_555
C22_2 S2_2 1_555 1_555
H15 C26_2 1_555 1_555
C27_2 C22_2 1_555 1_555
H16_2 C27_2 1_555 1_555
C29_2 O14_2 1_555 1_555
C30_2 C29_2 1_555 1_555
C31_2 C30_2 1_555 1_555
H17_2 C31_2 1_555 1_555
C32_2 C31_2 1_555 1_555
H18_2 C32_2 1_555 1_555
C33_2 S3 1_555 1_555
C34_2 C33_2 1_555 1_555
H19_2 C34_2 1_555 1_555
C35_2 C30_2 1_555 1_555
H20_2 C35_2 1_555 1_555
C36 S3 1_555 1_555
C37 C36 1_555 1_555
H21_2 C37 1_555 1_555
C38_2 C37 1_555 1_555
H22_2 C38_2 1_555 1_555
C39_2 C38_2 1_555 1_555
C40 C39_2 1_555 1_555
C41 C36 1_555 1_555
H24 C41 1_555 1_555
C43 N2 1_555 1_555
H25 C43 1_555 1_555
C44 C43 1_555 1_555
H26 C44 1_555 1_555
C45 C44 1_555 1_555
H27 C45 1_555 1_555
C46 C45 1_555 1_555
H28 C46 1_555 1_555
C47 N2 1_555 1_555
H29 C47 1_555 1_555
Zn9 O13_2 1_555 1_555
O21_2 Zn5 1_555 1_555
O8_2 C15_2 1_555 1_555
C18_2 C19_2 1_555 1_555
C20_2 C21_2 1_555 1_555
C26_2 C27_2 1_555 1_555
C32_2 C33_2 1_555 1_555
C34_2 C35_2 1_555 1_555
C40 C41 1_555 1_555
C46 C47 1_555 1_555
S1_2 O5_2 1_555 1_555
O19 C14_2 1_555 1_555
O20 C14_2 1_555 1_555
C8_2 S1_2 1_555 1_555
C9_2 C8_2 1_555 1_555
H5_2 C9_2 1_555 1_555
C10_2 C9_2 1_555 1_555
H6_2 C10_2 1_555 1_555
C11_2 C10_2 1_555 1_555
C12_2 C11_2 1_555 1_555
H7_2 C12_2 1_555 1_555
C13_2 C8_2 1_555 1_555
H8_2 C13_2 1_555 1_555
C14_2 C11_2 1_555 1_555
C12_2 C13_2 1_555 1_555
Zn4 O1_2 1_555 1_555
O1_2 C1_2 1_555 1_555
O7_2 Zn4 1_555 1_555
C1_2 C2_2 1_555 1_555
C2_2 C3_2 1_555 1_555
C3_2 H1_2 1_555 1_555
C4_2 C3_2 1_555 1_555
H2_2 C4_2 1_555 1_555
C7_2 C2_2 1_555 1_555
C4_2 C5_2 1_555 1_555
Zn9 O10 1_555 1_555
S3_2 O17_2 1_555 1_555
O21_2 C28 1_555 1_555
O10 C28 1_555 1_555
O18_2 S3_2 1_555 1_555
N2_2 Zn9 1_555 1_555
C36_2 S3_2 1_555 1_555
C37_2 C36_2 1_555 1_555
H23_2 C40_2 1_555 1_555
C41_2 C36_2 1_555 1_555
H24_2 C41_2 1_555 1_555
C43_2 N2_2 1_555 1_555
H25_2 C43_2 1_555 1_555
C44_2 C43_2 1_555 1_555
H26_2 C44_2 1_555 1_555
C45_2 C44_2 1_555 1_555
H27_2 C45_2 1_555 1_555
C46_2 C45_2 1_555 1_555
H28_2 C46_2 1_555 1_555
C47_2 N2_2 1_555 1_555
H29_2 C47_2 1_555 1_555
C40_2 C41_2 1_555 1_555
C46_2 C47_2 1_555 1_555
Zn8 O10_2 1_555 1_555
O21 C28_2 1_555 1_555
O10_2 C28_2 1_555 1_555
H13_2 C23_2 1_555 1_555
C24_2 C23_2 1_555 1_555
H14_2 C24_2 1_555 1_555
C25_2 C24_2 1_555 1_555
C28_2 C25_2 1_555 1_555
Zn3 O10_3 1_555 1_555
S3_3 O17_3 1_555 1_555
O9 C28_3 1_555 1_555
O10_3 C28_3 1_555 1_555
O18_3 S3_3 1_555 1_555
N2_3 Zn3 1_555 1_555
C36_3 S3_3 1_555 1_555
C37_3 C36_3 1_555 1_555
H23_3 C40_3 1_555 1_555
C41_3 C36_3 1_555 1_555
H24_3 C41_3 1_555 1_555
C43_3 N2_3 1_555 1_555
H25_3 C43_3 1_555 1_555
C44_3 C43_3 1_555 1_555
H26_3 C44_3 1_555 1_555
C45_3 C44_3 1_555 1_555
H27_3 C45_3 1_555 1_555
C46_3 C45_3 1_555 1_555
H28_3 C46_3 1_555 1_555
C47_3 N2_3 1_555 1_555
H29_3 C47_3 1_555 1_555
Zn6 O9 1_555 1_555
O22 Zn3 1_555 1_555
O23 Zn3 1_555 1_555
C40_3 C41_3 1_555 1_555
C46_3 C47_3 1_555 1_555
Zn3_2 O10_4 1_555 1_555
O9_2 C28_4 1_555 1_555
O10_4 C28_4 1_555 1_555
H13_3 C23_3 1_555 1_555
C24_3 C23_3 1_555 1_555
H14_3 C24_3 1_555 1_555
C25_3 C24_3 1_555 1_555
C28_4 C25_3 1_555 1_555
Zn6_2 O9_2 1_555 1_555
O22_2 Zn3_2 1_555 1_555
O23_2 Zn3_2 1_555 1_555
Zn1_2 O1_3 1_555 1_555
Zn6_2 O2_3 1_555 1_555
S1_3 O5_3 1_555 1_555
O1_3 C1_3 1_555 1_555
O2_3 C1_3 1_555 1_555
O3_2 C14_3 1_555 1_555
O4_2 C14_3 1_555 1_555
O6_3 S1_3 1_555 1_555
O7_3 Zn1_2 1_555 1_555
O8_3 Zn6_2 1_555 1_555
O22_2 C29_3 1_555 1_555
O14_3 Zn6_2 1_555 1_555
O23 C42_3 1_555 1_555
O16_2 C42_3 1_555 1_555
N1_2 Zn1_2 1_555 1_555
C1_3 C2_3 1_555 1_555
C2_3 C3_3 1_555 1_555
C3_3 H1_3 1_555 1_555
C4_3 C3_3 1_555 1_555
H2_3 C4_3 1_555 1_555
C5_3 S1_3 1_555 1_555
C6_3 C5_3 1_555 1_555
H3_3 C6_3 1_555 1_555
C7_3 C2_3 1_555 1_555
H4_3 C7_3 1_555 1_555
C8_3 S1_3 1_555 1_555
C9_3 C8_3 1_555 1_555
H5_3 C9_3 1_555 1_555
C10_3 C9_3 1_555 1_555
H6_3 C10_3 1_555 1_555
C11_3 C10_3 1_555 1_555
C12_3 C11_3 1_555 1_555
H7_3 C12_3 1_555 1_555
C13_3 C8_3 1_555 1_555
H8_3 C13_3 1_555 1_555
C14_3 C11_3 1_555 1_555
C15_3 O7_3 1_555 1_555
C16_3 C15_3 1_555 1_555
C17_3 C16_3 1_555 1_555
H9_4 C17_3 1_555 1_555
C18_3 C17_3 1_555 1_555
H10_4 C18_3 1_555 1_555
C19_3 S2_3 1_555 1_555
C20_3 C19_3 1_555 1_555
H11_3 C20_3 1_555 1_555
C21_3 C16_3 1_555 1_555
H12_3 C21_3 1_555 1_555
C22_3 S2_3 1_555 1_555
C23_4 C22_3 1_555 1_555
H13_4 C23_4 1_555 1_555
C24_4 C23_4 1_555 1_555
H14_4 C24_4 1_555 1_555
C25_4 C24_4 1_555 1_555
C26_3 C25_4 1_555 1_555
C27_3 C22_3 1_555 1_555
H16_3 C27_3 1_555 1_555
C29_3 O14_3 1_555 1_555
C30_3 C29_3 1_555 1_555
C31_3 C30_3 1_555 1_555
H17_3 C31_3 1_555 1_555
C32_3 C31_3 1_555 1_555
H18_3 C32_3 1_555 1_555
C34_3 C33_3 1_555 1_555
H19_3 C34_3 1_555 1_555
C35_3 C30_3 1_555 1_555
H20_3 C35_3 1_555 1_555
H22_3 C38_3 1_555 1_555
C39_3 C38_3 1_555 1_555
C42_3 C39_3 1_555 1_555
C48_2 N1_2 1_555 1_555
H30_2 C48_2 1_555 1_555
C49_2 C48_2 1_555 1_555
H31_2 C49_2 1_555 1_555
C50_2 C49_2 1_555 1_555
H32_2 C50_2 1_555 1_555
C51_2 C50_2 1_555 1_555
H33_2 C51_2 1_555 1_555
C52_2 N1_2 1_555 1_555
H34_2 C52_2 1_555 1_555
Zn4_2 O4_2 1_555 1_555
Zn6 O16_2 1_555 1_555
O19_2 Zn6_2 1_555 1_555
O20_2 Zn1_2 1_555 1_555
O24_2 Zn6_2 1_555 1_555
O8_3 C15_3 1_555 1_555
C4_3 C5_3 1_555 1_555
C6_3 C7_3 1_555 1_555
C12_3 C13_3 1_555 1_555
C18_3 C19_3 1_555 1_555
C20_3 C21_3 1_555 1_555
C26_3 C27_3 1_555 1_555
C32_3 C33_3 1_555 1_555
C34_3 C35_3 1_555 1_555
C51_2 C52_2 1_555 1_555
Zn4_2 O1_4 1_555 1_555
O1_4 C1_4 1_555 1_555
O7_4 Zn4_2 1_555 1_555
C1_4 C2_4 1_555 1_555
C2_4 C3_4 1_555 1_555
C3_4 H1_4 1_555 1_555
C4_4 C3_4 1_555 1_555
H2_4 C4_4 1_555 1_555
C7_4 C2_4 1_555 1_555
C4_4 C5_4 1_555 1_555
S1_4 O5_4 1_555 1_555
O19_2 C14_4 1_555 1_555
O20_2 C14_4 1_555 1_555
C8_4 S1_4 1_555 1_555
C9_4 C8_4 1_555 1_555
H5_4 C9_4 1_555 1_555
C10_4 C9_4 1_555 1_555
H6_4 C10_4 1_555 1_555
C11_4 C10_4 1_555 1_555
C12_4 C11_4 1_555 1_555
H7_4 C12_4 1_555 1_555
C13_4 C8_4 1_555 1_555
H8_4 C13_4 1_555 1_555
C14_4 C11_4 1_555 1_555
C12_4 C13_4 1_555 1_555
Zn6 O2_4 1_555 1_555
S3_4 O17_4 1_555 1_555
O8_4 Zn6 1_555 1_555
O12_3 S2_4 1_555 1_555
O22 C29_4 1_555 1_555
O14_4 Zn6 1_555 1_555
O18_4 S3_4 1_555 1_555
H3_4 C6_4 1_555 1_555
C16_4 C15_4 1_555 1_555
C17_4 C16_4 1_555 1_555
C18_4 C17_4 1_555 1_555
C19_4 S2_4 1_555 1_555
C20_4 C19_4 1_555 1_555
H11_4 C20_4 1_555 1_555
C21_4 C16_4 1_555 1_555
H12_4 C21_4 1_555 1_555
C22_4 S2_4 1_555 1_555
H15_4 C26_4 1_555 1_555
C27_4 C22_4 1_555 1_555
H16_4 C27_4 1_555 1_555
C29_4 O14_4 1_555 1_555
C30_4 C29_4 1_555 1_555
C31_4 C30_4 1_555 1_555
H17_4 C31_4 1_555 1_555
C32_4 C31_4 1_555 1_555
H18_4 C32_4 1_555 1_555
C33_4 S3_4 1_555 1_555
C34_4 C33_4 1_555 1_555
H19_4 C34_4 1_555 1_555
C35_4 C30_4 1_555 1_555
H20_4 C35_4 1_555 1_555
C36_4 S3_4 1_555 1_555
C37_4 C36_4 1_555 1_555
H21_4 C37_4 1_555 1_555
C38_4 C37_4 1_555 1_555
H22_4 C38_4 1_555 1_555
C39_4 C38_4 1_555 1_555
C40_4 C39_4 1_555 1_555
C41_4 C36_4 1_555 1_555
H24_4 C41_4 1_555 1_555
C43_4 N2_4 1_555 1_555
H25_4 C43_4 1_555 1_555
C44_4 C43_4 1_555 1_555
H26_4 C44_4 1_555 1_555
C45_4 C44_4 1_555 1_555
H27_4 C45_4 1_555 1_555
C46_4 C45_4 1_555 1_555
H28_4 C46_4 1_555 1_555
C47_4 N2_4 1_555 1_555
H29_4 C47_4 1_555 1_555
O8_4 C15_4 1_555 1_555
C18_4 C19_4 1_555 1_555
C20_4 C21_4 1_555 1_555
C26_4 C27_4 1_555 1_555
C32_4 C33_4 1_555 1_555
C34_4 C35_4 1_555 1_555
C40_4 C41_4 1_555 1_555
C46_4 C47_4 1_555 1_555
O23_2 C42_4 1_555 1_555
O24_2 C42_4 1_555 1_555
C48_3 N1_3 1_555 1_555
H30_3 C48_3 1_555 1_555
C49_3 C48_3 1_555 1_555
H31_3 C49_3 1_555 1_555
C50_3 C49_3 1_555 1_555
H32_3 C50_3 1_555 1_555
C51_3 C50_3 1_555 1_555
H33_3 C51_3 1_555 1_555
C52_3 N1_3 1_555 1_555
H34_3 C52_3 1_555 1_555
C51_3 C52_3 1_555 1_555
C48_4 N1_4 1_555 1_555
H30_4 C48_4 1_555 1_555
C49_4 C48_4 1_555 1_555
H31_4 C49_4 1_555 1_555
C50_4 C49_4 1_555 1_555
H32_4 C50_4 1_555 1_555
C51_4 C50_4 1_555 1_555
H33_4 C51_4 1_555 1_555
C52_4 N1_4 1_555 1_555
H34_4 C52_4 1_555 1_555
C51_4 C52_4 1_555 1_555

#END
