
###############################################################################
#
# This file contains modified crystal structure data generated from the
# MOF subset of the Cambridge Structural Database (CSD) v543 
# hosted by the Cambridge Crystallographic Data Centre (CCDC).
#
# This work is licensed under the Creative Commons
# Attribution-NonCommercial-ShareAlike 4.0 International License.
# To view a copy of this license, visit
# http://creativecommons.org/licenses/by-nc-sa/4.0/
# or send a letter to
# Creative Commons, PO Box 1866, Mountain View, CA 94042, USA.
#
# CIF created using the CSD Python API on 29 September 2022
# The structure has been converted into the P1 space group
# The structure has a 3D framework
# The original CSD entry SADLEQ is in the tetragonal crystal system
# The original CSD entry SADLEQ is in a Sohncke space group
# The framework has been calculated to contain at least 10.0% void space
# The void calculation uses a probe of radius 1.32A, grid spacing 0.4
# H atom positions have been added when not included in the experimental data
#
###############################################################################

data_SADLEQ
_chemical_formula_moiety         '(C36 H20 Nd4 O22)n'
_symmetry_cell_setting           triclinic
_symmetry_space_group_name_H-M   'P 1'
_symmetry_Int_Tables_number      1
_space_group_name_Hall           'P 1'
loop_
_symmetry_equiv_pos_site_id
_symmetry_equiv_pos_as_xyz
1 x,y,z
_cell_length_a                   10.4278(4)
_cell_length_b                   10.4278(4)
_cell_length_c                   14.2602(12)
_cell_angle_alpha                90
_cell_angle_beta                 90
_cell_angle_gamma                90
_cell_volume                     1550.64
loop_
_atom_site_label
_atom_site_type_symbol
_atom_site_fract_x
_atom_site_fract_y
_atom_site_fract_z
C1 C 0.0561(7) 0.1999(7) 0.3245(5)
C2 C 0.0215(6) 0.2708(6) 0.4113(4)
H1 H 0.0060 0.1222 0.4998
C7 C 0.0148(6) 0.4042(6) 0.4110(4)
H3 H 0.0353 0.4487 0.3565
O1 O 0.1014(5) 0.0906(5) 0.3274(4)
O2 O 0.0402(8) 0.2585(6) 0.2479(4)
O6 O 0.0280(5) 0.6730(4) 0.4208(4)
Nd2 Nd 0.13114(2) 0.86595(2) 0.37527(6)
Nd4 Nd 0.13405(2) 0.13114(2) 0.12527(6)
O7 O 0.2906(7) 0.7089(6) 0.4273(5)
O8 O 0.0906(5) 0.8986(5) 0.5774(4)
O9 O 0.2585(6) 0.9598(8) 0.4979(4)
O11 O 0.0951(6) 0.7320(5) 0.2357(3)
O12 O 0.3268(4) 0.9114(5) 0.3006(3)
H4 H 0.330625 0.738801 0.486581
H5 H 0.248122 0.624942 0.438015
C3 C 0.9966(7) 0.2107(5) 0.4963(4)
C4 C 0.9593(6) 0.2745(6) 0.5741(4)
C5 C 0.9469(6) 0.4074(5) 0.5700(4)
H2 H 0.9173 0.4526 0.6219
C6 C 0.9784(7) 0.4715(5) 0.4894(5)
C8 C 0.9280(6) 0.2042(6) 0.6629(4)
C9 C 0.9716(7) 0.6209(6) 0.4869(5)
O3 O 0.9243(5) 0.0825(4) 0.6629(3)
O4 O 0.9049(6) 0.2680(5) 0.7357(3)
O5 O 0.9114(5) 0.6732(4) 0.5506(3)
Nd3 Nd 0.86886(2) 0.13405(2) 0.87527(6)
Nd6 Nd 0.86595(2) 0.86886(2) 0.62527(6)
O10 O 0.9175(4) 0.9243(5) 0.4129(3)
O10_2 O 0.0825(4) 0.0757(5) 0.9129(3)
C4_2 C 0.0407(6) 0.7255(6) 0.0741(4)
C5_2 C 0.0531(6) 0.5926(5) 0.0700(4)
H2_2 H 0.0827 0.5474 0.1219
C8_2 C 0.0720(6) 0.7958(6) 0.1629(4)
O3_2 O 0.0757(5) 0.9175(4) 0.1629(3)
O5_2 O 0.0886(5) 0.3268(4) 0.0506(3)
O8_2 O 0.9094(5) 0.1014(5) 0.0774(4)
O7_2 O 0.7094(7) 0.2911(6) 0.9273(5)
O9_2 O 0.7415(6) 0.0402(8) 0.9979(4)
O12_2 O 0.6732(4) 0.0886(5) 0.8006(3)
O13 O 0.9720(5) 0.3270(4) 0.9208(4)
H4_2 H 0.669375 0.261199 0.986581
H5_2 H 0.751878 0.375058 0.938015
C1_2 C 0.9439(7) 0.8001(7) 0.8245(5)
C2_2 C 0.9785(6) 0.7292(6) 0.9113(4)
H1_2 H 0.9940 0.8778 0.9998
C7_2 C 0.9852(6) 0.5958(6) 0.9110(4)
H3_2 H 0.9647 0.5513 0.8565
O1_2 O 0.8986(5) 0.9094(5) 0.8274(4)
O2_2 O 0.9598(8) 0.7415(6) 0.7479(4)
O7_3 O 0.2911(6) 0.2906(7) 0.1773(5)
O13_2 O 0.3270(4) 0.0280(5) 0.1708(4)
H4_3 H 0.261199 0.330625 0.236581
H5_3 H 0.375058 0.248122 0.188015
O11_2 O 0.2680(5) 0.0951(6) 0.9857(3)
C1_3 C 0.8001(7) 0.0561(7) 0.0745(5)
C2_3 C 0.7292(6) 0.0215(6) 0.1613(4)
H1_3 H 0.8778 0.0060 0.2498
C7_3 C 0.5958(6) 0.0148(6) 0.1610(4)
H3_3 H 0.5513 0.0353 0.1065
C3_2 C 0.7893(5) 0.9966(7) 0.2463(4)
C4_3 C 0.7255(6) 0.9593(6) 0.3241(4)
C5_3 C 0.5926(5) 0.9469(6) 0.3200(4)
H2_3 H 0.5474 0.9173 0.3719
C6_2 C 0.5285(5) 0.9784(7) 0.2394(5)
C8_3 C 0.7958(6) 0.9280(6) 0.4129(4)
C9_2 C 0.3791(6) 0.9716(7) 0.2369(5)
O4_2 O 0.7320(5) 0.9049(6) 0.4857(3)
C3_3 C 0.2107(5) 0.0034(7) 0.7463(4)
C4_4 C 0.2745(6) 0.0407(6) 0.8241(4)
C5_4 C 0.4074(5) 0.0531(6) 0.8200(4)
H2_4 H 0.4526 0.0827 0.8719
C6_3 C 0.4715(5) 0.0216(7) 0.7394(5)
C8_4 C 0.2042(6) 0.0720(6) 0.9129(4)
C9_3 C 0.6209(6) 0.0284(7) 0.7369(5)
C1_4 C 0.1999(7) 0.9439(7) 0.5745(5)
C2_4 C 0.2708(6) 0.9785(6) 0.6613(4)
H1_4 H 0.1222 0.9940 0.7498
C7_4 C 0.4042(6) 0.9852(6) 0.6610(4)
H3_4 H 0.4487 0.9647 0.6065
O6_2 O 0.6730(4) 0.9720(5) 0.6708(4)
O7_4 O 0.7089(6) 0.7094(7) 0.6773(5)
H4_4 H 0.738801 0.669375 0.736581
H5_4 H 0.624942 0.751878 0.688015
C3_4 C 0.0034(7) 0.7893(5) 0.9963(4)
C6_4 C 0.0216(7) 0.5285(5) 0.9894(5)
C9_4 C 0.0284(7) 0.3791(6) 0.9869(5)
loop_
_geom_bond_atom_site_label_1
_geom_bond_atom_site_label_2
_geom_bond_site_symmetry_1
_geom_bond_site_symmetry_2
C1 C2 1_555 1_555
C7 C2 1_555 1_555
H3 C7 1_555 1_555
O1 C1 1_555 1_555
O2 C1 1_555 1_555
Nd2 O6 1_555 1_555
Nd4 O1 1_555 1_555
O2 Nd4 1_555 1_555
O7 Nd2 1_555 1_555
O8 Nd2 1_555 1_555
O9 Nd2 1_555 1_555
O11 Nd2 1_555 1_555
O12 Nd2 1_555 1_555
O7 H4 1_555 1_555
O7 H5 1_555 1_555
C4 C3 1_555 1_555
C5 C4 1_555 1_555
H2 C5 1_555 1_555
C6 C5 1_555 1_555
C8 C4 1_555 1_555
C9 C6 1_555 1_555
O3 C8 1_555 1_555
O4 C8 1_555 1_555
O5 C9 1_555 1_555
Nd3 O4 1_555 1_555
Nd6 O5 1_555 1_555
C5_2 C4_2 1_555 1_555
H2_2 C5_2 1_555 1_555
C8_2 C4_2 1_555 1_555
O3_2 C8_2 1_555 1_555
O11 C8_2 1_555 1_555
Nd4 O5_2 1_555 1_555
O7_2 Nd3 1_555 1_555
O9_2 Nd3 1_555 1_555
O12_2 Nd3 1_555 1_555
O13 Nd3 1_555 1_555
O7_2 H4_2 1_555 1_555
O7_2 H5_2 1_555 1_555
C1_2 C2_2 1_555 1_555
C7_2 C2_2 1_555 1_555
H3_2 C7_2 1_555 1_555
O1_2 C1_2 1_555 1_555
O2_2 C1_2 1_555 1_555
Nd6 O1_2 1_555 1_555
O2_2 Nd6 1_555 1_555
O7_3 Nd4 1_555 1_555
O13_2 Nd4 1_555 1_555
O7_3 H4_3 1_555 1_555
O7_3 H5_3 1_555 1_555
C1_3 C2_3 1_555 1_555
C7_3 C2_3 1_555 1_555
H3_3 C7_3 1_555 1_555
O8_2 C1_3 1_555 1_555
C4_3 C3_2 1_555 1_555
C5_3 C4_3 1_555 1_555
H2_3 C5_3 1_555 1_555
C6_2 C5_3 1_555 1_555
C8_3 C4_3 1_555 1_555
C9_2 C6_2 1_555 1_555
O10 C8_3 1_555 1_555
O4_2 C8_3 1_555 1_555
O12 C9_2 1_555 1_555
Nd6 O4_2 1_555 1_555
C4_4 C3_3 1_555 1_555
C5_4 C4_4 1_555 1_555
H2_4 C5_4 1_555 1_555
C6_3 C5_4 1_555 1_555
C8_4 C4_4 1_555 1_555
C9_3 C6_3 1_555 1_555
O10_2 C8_4 1_555 1_555
O11_2 C8_4 1_555 1_555
O12_2 C9_3 1_555 1_555
C1_4 C2_4 1_555 1_555
C7_4 C2_4 1_555 1_555
H3_4 C7_4 1_555 1_555
O8 C1_4 1_555 1_555
O9 C1_4 1_555 1_555
Nd6 O6_2 1_555 1_555
O7_4 Nd6 1_555 1_555
O7_4 H4_4 1_555 1_555
O7_4 H5_4 1_555 1_555
C9_4 C6_4 1_555 1_555

#END
