
###############################################################################
#
# This file contains modified crystal structure data generated from the
# MOF subset of the Cambridge Structural Database (CSD) v543 
# hosted by the Cambridge Crystallographic Data Centre (CCDC).
#
# This work is licensed under the Creative Commons
# Attribution-NonCommercial-ShareAlike 4.0 International License.
# To view a copy of this license, visit
# http://creativecommons.org/licenses/by-nc-sa/4.0/
# or send a letter to
# Creative Commons, PO Box 1866, Mountain View, CA 94042, USA.
#
# CIF created using the CSD Python API on 29 September 2022
# The structure has been converted into the P1 space group
# The structure has a 3D framework
# The original CSD entry SADLOA is in the tetragonal crystal system
# The original CSD entry SADLOA is in a Sohncke space group
# The framework has been calculated to contain at least 10.0% void space
# The void calculation uses a probe of radius 1.32A, grid spacing 0.4
#
###############################################################################

data_SADLOA
_chemical_formula_moiety         '(C54 H18 Nd3 O24)n'
_symmetry_cell_setting           triclinic
_symmetry_space_group_name_H-M   'P 1'
_symmetry_Int_Tables_number      1
_space_group_name_Hall           'P 1'
loop_
_symmetry_equiv_pos_site_id
_symmetry_equiv_pos_as_xyz
1 x,y,z
_cell_length_a                   10.4520(2)
_cell_length_b                   10.4520(2)
_cell_length_c                   13.8486(9)
_cell_angle_alpha                90
_cell_angle_beta                 90
_cell_angle_gamma                90
_cell_volume                     1512.88
loop_
_atom_site_label
_atom_site_type_symbol
_atom_site_fract_x
_atom_site_fract_y
_atom_site_fract_z
Nd2 Nd 0.12190(3) 0.12190(3) 0.6250
O5 O 0.0833(6) 0.0964(5) 0.8306(4)
O7 O 0.0964(5) 0.9167(6) 0.0806(4)
O9 O 0.2746(5) 0.9182(6) 0.0022(5)
Nd1 Nd 0.12190(3) 0.87810(3) 0.8750
O1 O 0.0833(6) 0.9036(5) 0.6694(4)
O2 O 0.0818(6) 0.7254(5) 0.7478(5)
O3 O 0.0819(6) 0.3209(5) 0.5520(5)
C1 C 0.0701(7) 0.7875(7) 0.6709(6)
C2 C 0.0338(9) 0.7170(6) 0.5833(6)
C3 C 0.0000 0.7785(10) 0.5000
H1 H 0.0000 0.8675 0.5000
C4 C 0.0363(8) 0.5823(6) 0.5816(6)
H2 H 0.0627 0.5371 0.6359
C5 C -0.0000 0.5178(9) 0.5000
C6 C 0.0000 0.3717(14) 0.5000
O11 O 0.0819(6) 0.6791(5) 0.9480(5)
O12 O 0.3209(5) 0.9181(6) 0.8020(5)
Nd5 Nd 0.87810(3) 0.12190(3) 0.3750
C3_2 C 1.0000 0.7785(10) 0.5000
H1_2 H 1.0000 0.8675 0.5000
C5_2 C 1.0000 0.5178(9) 0.5000
C6_2 C 1.0000 0.3717(14) 0.5000
Nd4 Nd 0.87810(3) 0.87810(3) 0.1250
O4 O 0.9167(6) 0.9036(5) 0.3306(4)
O6 O 0.9036(5) 0.9167(6) 0.9194(4)
O8 O 0.9182(6) 0.7254(5) 0.2522(5)
O10 O 0.9181(6) 0.3209(5) 0.4480(5)
C7 C 0.9299(7) 0.7875(7) 0.3291(6)
C8 C 0.9662(9) 0.7170(6) 0.4167(6)
C9 C 0.9637(8) 0.5823(6) 0.4184(6)
H3 H 0.9373 0.5371 0.3641
C3_3 C -0.0000 0.2215(10) 0.0000
H1_3 H -0.0000 0.1325 0.0000
C5_3 C 0.0000 0.4822(9) 0.0000
C6_3 C 0.0000 0.6283(14) 0.0000
O6_2 O 0.0964(5) 0.0833(6) 0.4194(4)
C3_4 C -0.0000 0.2215(10) 1.0000
H1_4 H -0.0000 0.1325 1.0000
C5_4 C 0.0000 0.4822(9) 1.0000
C6_4 C 0.0000 0.6283(14) 1.0000
O8_2 O 0.0818(6) 0.2746(5) 0.7522(5)
C7_2 C 0.0701(7) 0.2125(7) 0.8291(6)
C8_2 C 0.0338(9) 0.2830(6) 0.9167(6)
C9_2 C 0.0363(8) 0.4177(6) 0.9184(6)
H3_2 H 0.0627 0.4629 0.8641
O1_2 O 0.9167(6) 0.0964(5) 0.1694(4)
O2_2 O 0.9182(6) 0.2746(5) 0.2478(5)
O3_2 O 0.9181(6) 0.6791(5) 0.0520(5)
C1_2 C 0.9299(7) 0.2125(7) 0.1709(6)
C2_2 C 0.9662(9) 0.2830(6) 0.0833(6)
C3_5 C 1.0000 0.2215(10) 0.0000
H1_5 H 1.0000 0.1325 0.0000
C4_2 C 0.9637(8) 0.4177(6) 0.0816(6)
H2_2 H 0.9373 0.4629 0.1359
C5_5 C 1.0000 0.4822(9) 0.0000
C6_5 C 1.0000 0.6283(14) 0.0000
O7_2 O 0.9036(5) 0.0833(6) 0.5806(4)
O9_2 O 0.7254(5) 0.0818(6) 0.5022(5)
O12_2 O 0.6791(5) 0.0819(6) 0.3020(5)
C3_6 C 1.0000 0.2215(10) 1.0000
H1_6 H 1.0000 0.1325 1.0000
C5_6 C 1.0000 0.4822(9) 1.0000
C6_6 C 1.0000 0.6283(14) 1.0000
O2_3 O 0.2746(5) 0.0818(6) 0.4978(5)
C1_3 C 0.2125(7) 0.0701(7) 0.4209(6)
C2_3 C 0.2830(6) 0.0338(9) 0.3333(6)
C3_7 C 0.2215(10) 0.0000 0.2500
H1_7 H 0.1325 0.0000 0.2500
C4_3 C 0.4177(6) 0.0363(8) 0.3316(6)
H2_3 H 0.4629 0.0627 0.3859
C5_7 C 0.4822(9) 0.0000 0.2500
C6_7 C 0.6283(14) 0.0000 0.2500
O11_2 O 0.3209(5) 0.0819(6) 0.6980(5)
C3_8 C 0.2215(10) 1.0000 0.2500
H1_8 H 0.1325 1.0000 0.2500
C5_8 C 0.4822(9) 1.0000 0.2500
C6_8 C 0.6283(14) 1.0000 0.2500
O10_2 O 0.6791(5) 0.9181(6) 0.1980(5)
C7_3 C 0.2125(7) 0.9299(7) 0.0791(6)
C8_3 C 0.2830(6) 0.9662(9) 0.1667(6)
C9_3 C 0.4177(6) 0.9637(8) 0.1684(6)
H3_3 H 0.4629 0.9373 0.1141
C3_9 C 0.7785(10) -0.0000 0.7500
H1_9 H 0.8675 -0.0000 0.7500
C5_9 C 0.5178(9) 0.0000 0.7500
C6_9 C 0.3717(14) 0.0000 0.7500
C7_4 C 0.7875(7) 0.0701(7) 0.5791(6)
C8_4 C 0.7170(6) 0.0338(9) 0.6667(6)
C9_4 C 0.5823(6) 0.0363(8) 0.6684(6)
H3_4 H 0.5371 0.0627 0.6141
O2_4 O 0.7254(5) 0.9182(6) 0.9978(5)
C1_4 C 0.7875(7) 0.9299(7) 0.9209(6)
C2_4 C 0.7170(6) 0.9662(9) 0.8333(6)
C3_10 C 0.7785(10) 1.0000 0.7500
H1_10 H 0.8675 1.0000 0.7500
C4_4 C 0.5823(6) 0.9637(8) 0.8316(6)
H2_4 H 0.5371 0.9373 0.8859
C5_10 C 0.5178(9) 1.0000 0.7500
C6_10 C 0.3717(14) 1.0000 0.7500
loop_
_geom_bond_atom_site_label_1
_geom_bond_atom_site_label_2
_geom_bond_site_symmetry_1
_geom_bond_site_symmetry_2
Nd2 O5 1_555 1_555
Nd1 O1 1_555 1_555
O1 C1 1_555 1_555
O2 Nd1 1_555 1_555
O3 C6 1_555 1_555
C1 O2 1_555 1_555
C2 C1 1_555 1_555
C3 C2 1_555 1_555
H1 C3 1_555 1_555
C4 C2 1_555 1_555
H2 C4 1_555 1_555
C5 C4 1_555 1_555
C6 C5 1_555 1_555
Nd2 O3 1_555 1_555
O11 Nd1 1_555 1_555
O12 Nd1 1_555 1_555
H1_2 C3_2 1_555 1_555
C6_2 C5_2 1_555 1_555
Nd4 O4 1_555 1_555
Nd5 O10 1_555 1_555
O4 C7 1_555 1_555
O8 Nd4 1_555 1_555
O10 C6_2 1_555 1_555
C7 O8 1_555 1_555
C8 C3_2 1_555 1_555
C9 C5_2 1_555 1_555
H3 C9 1_555 1_555
C7 C8 1_555 1_555
C8 C9 1_555 1_555
H1_3 C3_3 1_555 1_555
C6_3 C5_3 1_555 1_555
H1_4 C3_4 1_555 1_555
C6_4 C5_4 1_555 1_555
O5 C7_2 1_555 1_555
O8_2 Nd2 1_555 1_555
O11 C6_4 1_555 1_555
C7_2 O8_2 1_555 1_555
C8_2 C3_4 1_555 1_555
C9_2 C5_4 1_555 1_555
H3_2 C9_2 1_555 1_555
C7_2 C8_2 1_555 1_555
C8_2 C9_2 1_555 1_555
Nd5 O1_2 1_555 1_555
O1_2 C1_2 1_555 1_555
O2_2 Nd5 1_555 1_555
O3_2 C6_5 1_555 1_555
C1_2 O2_2 1_555 1_555
C2_2 C1_2 1_555 1_555
C3_5 C2_2 1_555 1_555
H1_5 C3_5 1_555 1_555
C4_2 C2_2 1_555 1_555
H2_2 C4_2 1_555 1_555
C5_5 C4_2 1_555 1_555
C6_5 C5_5 1_555 1_555
Nd4 O3_2 1_555 1_555
O7_2 Nd5 1_555 1_555
O9_2 Nd5 1_555 1_555
O12_2 Nd5 1_555 1_555
H1_6 C3_6 1_555 1_555
C6_6 C5_6 1_555 1_555
Nd2 O6_2 1_555 1_555
O6_2 C1_3 1_555 1_555
O2_3 Nd2 1_555 1_555
O12_2 C6_7 1_555 1_555
C1_3 O2_3 1_555 1_555
C2_3 C1_3 1_555 1_555
C3_7 C2_3 1_555 1_555
H1_7 C3_7 1_555 1_555
C4_3 C2_3 1_555 1_555
H2_3 C4_3 1_555 1_555
C5_7 C4_3 1_555 1_555
C6_7 C5_7 1_555 1_555
O11_2 Nd2 1_555 1_555
H1_8 C3_8 1_555 1_555
C6_8 C5_8 1_555 1_555
Nd4 O10_2 1_555 1_555
O7 C7_3 1_555 1_555
O10_2 C6_8 1_555 1_555
C7_3 O9 1_555 1_555
C8_3 C3_8 1_555 1_555
C9_3 C5_8 1_555 1_555
H3_3 C9_3 1_555 1_555
C7_3 C8_3 1_555 1_555
C8_3 C9_3 1_555 1_555
H1_9 C3_9 1_555 1_555
C6_9 C5_9 1_555 1_555
O7_2 C7_4 1_555 1_555
O11_2 C6_9 1_555 1_555
C7_4 O9_2 1_555 1_555
C8_4 C3_9 1_555 1_555
C9_4 C5_9 1_555 1_555
H3_4 C9_4 1_555 1_555
C7_4 C8_4 1_555 1_555
C8_4 C9_4 1_555 1_555
O6 C1_4 1_555 1_555
O12 C6_10 1_555 1_555
C1_4 O2_4 1_555 1_555
C2_4 C1_4 1_555 1_555
C3_10 C2_4 1_555 1_555
H1_10 C3_10 1_555 1_555
C4_4 C2_4 1_555 1_555
H2_4 C4_4 1_555 1_555
C5_10 C4_4 1_555 1_555
C6_10 C5_10 1_555 1_555

#END
