
###############################################################################
#
# This file contains modified crystal structure data generated from the
# MOF subset of the Cambridge Structural Database (CSD) v543 
# hosted by the Cambridge Crystallographic Data Centre (CCDC).
#
# This work is licensed under the Creative Commons
# Attribution-NonCommercial-ShareAlike 4.0 International License.
# To view a copy of this license, visit
# http://creativecommons.org/licenses/by-nc-sa/4.0/
# or send a letter to
# Creative Commons, PO Box 1866, Mountain View, CA 94042, USA.
#
# CIF created using the CSD Python API on 29 September 2022
# The structure has been converted into the P1 space group
# The structure has a 3D framework
# The original CSD entry SADLIT is in the cubic crystal system
# The framework has been calculated to contain at least 10.0% void space
# The void calculation uses a probe of radius 1.32A, grid spacing 0.4
# The framework is charged, counterions have been retained in the structure
#
###############################################################################

data_SADLIT
_chemical_formula_moiety         '(C576 H384 B48 Cu22 F192 N192 26-)n'
_symmetry_cell_setting           triclinic
_symmetry_space_group_name_H-M   'P 1'
_symmetry_Int_Tables_number      1
_space_group_name_Hall           'P 1'
loop_
_symmetry_equiv_pos_site_id
_symmetry_equiv_pos_as_xyz
1 x,y,z
_cell_length_a                   28.019(3)
_cell_length_b                   28.019(3)
_cell_length_c                   28.019(3)
_cell_angle_alpha                90
_cell_angle_beta                 90
_cell_angle_gamma                90
_cell_volume                     21996.7
loop_
_atom_site_label
_atom_site_type_symbol
_atom_site_fract_x
_atom_site_fract_y
_atom_site_fract_z
F2 F 0.2452(6) 0.0465(3) 0.3752(6)
B1 B 0.2484(4) 0.9984(3) 0.3750(4)
F1 F 0.2240(4) 0.9941(4) 0.3308(4)
F3 F 0.2441(4) 0.9740(4) 0.4192(4)
F4 F 0.2965(3) 0.9952(6) 0.3748(6)
F2_2 F 0.3752(6) 0.2452(6) 0.0465(3)
B1_2 B 0.3750(4) 0.2484(4) 0.9984(3)
F1_2 F 0.3308(4) 0.2240(4) 0.9941(4)
F3_2 F 0.4192(4) 0.2441(4) 0.9740(4)
F4_2 F 0.3748(6) 0.2965(3) 0.9952(6)
F2_3 F 0.0465(3) 0.3752(6) 0.2452(6)
B1_3 B 0.9984(3) 0.3750(4) 0.2484(4)
F1_3 F 0.9941(4) 0.3308(4) 0.2240(4)
F3_3 F 0.9740(4) 0.4192(4) 0.2441(4)
F4_3 F 0.9952(6) 0.3748(6) 0.2965(3)
B1_4 B 0.7484(3) 0.4984(4) 0.8750(4)
F1_4 F 0.7441(4) 0.4740(4) 0.9192(4)
F2_4 F 0.7965(3) 0.4952(6) 0.8748(6)
F3_4 F 0.7240(4) 0.4941(4) 0.8308(4)
F4_4 F 0.7452(6) 0.5465(3) 0.8752(6)
B1_5 B 0.2484(3) 0.0016(4) 0.1250(4)
F1_5 F 0.2441(4) 0.0260(4) 0.0808(4)
F2_5 F 0.2965(3) 0.0048(6) 0.1252(6)
F3_5 F 0.2240(4) 0.0059(4) 0.1692(4)
F4_5 F 0.2452(6) 0.9535(3) 0.1248(6)
F4_6 F 0.2548(6) 0.0465(3) 0.6248(6)
B1_6 B 0.2516(3) 0.9984(4) 0.6250(4)
F1_6 F 0.2559(4) 0.9740(4) 0.5808(4)
F2_6 F 0.2035(3) 0.9952(6) 0.6252(6)
F3_6 F 0.2760(4) 0.9941(4) 0.6692(4)
F4_7 F 0.0465(3) 0.6248(6) 0.2548(6)
B1_7 B 0.9984(4) 0.6250(4) 0.2516(3)
F1_7 F 0.9740(4) 0.5808(4) 0.2559(4)
F2_7 F 0.9952(6) 0.6252(6) 0.2035(3)
F3_7 F 0.9941(4) 0.6692(4) 0.2760(4)
B1_8 B 0.0016(4) 0.1250(4) 0.2484(3)
F1_8 F 0.0260(4) 0.0808(4) 0.2441(4)
F2_8 F 0.0048(6) 0.1252(6) 0.2965(3)
F3_8 F 0.0059(4) 0.1692(4) 0.2240(4)
F4_8 F 0.9535(3) 0.1248(6) 0.2452(6)
B1_9 B 0.4984(4) 0.8750(4) 0.7484(3)
F1_9 F 0.4740(4) 0.9192(4) 0.7441(4)
F2_9 F 0.4952(6) 0.8748(6) 0.7965(3)
F3_9 F 0.4941(4) 0.8308(4) 0.7240(4)
F4_9 F 0.5465(3) 0.8752(6) 0.7452(6)
B1_10 B 0.1250(4) 0.2484(3) 0.0016(4)
F1_10 F 0.0808(4) 0.2441(4) 0.0260(4)
F2_10 F 0.1252(6) 0.2965(3) 0.0048(6)
F3_10 F 0.1692(4) 0.2240(4) 0.0059(4)
F4_10 F 0.1248(6) 0.2452(6) 0.9535(3)
F4_11 F 0.6248(6) 0.2548(6) 0.0465(3)
B1_11 B 0.6250(4) 0.2516(3) 0.9984(4)
F1_11 F 0.5808(4) 0.2559(4) 0.9740(4)
F2_11 F 0.6252(6) 0.2035(3) 0.9952(6)
F3_11 F 0.6692(4) 0.2760(4) 0.9941(4)
B1_12 B 0.8750(4) 0.7484(3) 0.4984(4)
F1_12 F 0.9192(4) 0.7441(4) 0.4740(4)
F2_12 F 0.8748(6) 0.7965(3) 0.4952(6)
F3_12 F 0.8308(4) 0.7240(4) 0.4941(4)
F4_12 F 0.8752(6) 0.7452(6) 0.5465(3)
B1_13 B 0.2516(3) 0.0016(4) 0.8750(4)
F1_13 F 0.2559(4) 0.0260(4) 0.9192(4)
F2_13 F 0.2035(3) 0.0048(6) 0.8748(6)
F3_13 F 0.2760(4) 0.0059(4) 0.8308(4)
F4_13 F 0.2548(6) 0.9535(3) 0.8752(6)
B1_14 B 0.7484(3) 0.5016(4) 0.6250(4)
F1_14 F 0.7441(4) 0.5260(4) 0.5808(4)
F2_14 F 0.7965(3) 0.5048(6) 0.6252(6)
F3_14 F 0.7240(4) 0.5059(4) 0.6692(4)
F4_14 F 0.7452(6) 0.4535(3) 0.6248(6)
B1_15 B 0.7516(3) 0.4984(4) 0.1250(4)
F1_15 F 0.7559(4) 0.4740(4) 0.0808(4)
F2_15 F 0.7035(3) 0.4952(6) 0.1252(6)
F3_15 F 0.7760(4) 0.4941(4) 0.1692(4)
F4_15 F 0.7548(6) 0.5465(3) 0.1248(6)
B1_16 B 0.4984(4) 0.1250(4) 0.7516(3)
F1_16 F 0.4740(4) 0.0808(4) 0.7559(4)
F2_16 F 0.4952(6) 0.1252(6) 0.7035(3)
F3_16 F 0.4941(4) 0.1692(4) 0.7760(4)
F4_16 F 0.5465(3) 0.1248(6) 0.7548(6)
B1_17 B 0.5016(4) 0.6250(4) 0.7484(3)
F1_17 F 0.5260(4) 0.5808(4) 0.7441(4)
F2_17 F 0.5048(6) 0.6252(6) 0.7965(3)
F3_17 F 0.5059(4) 0.6692(4) 0.7240(4)
F4_17 F 0.4535(3) 0.6248(6) 0.7452(6)
B1_18 B 0.0016(4) 0.8750(4) 0.2516(3)
F1_18 F 0.0260(4) 0.9192(4) 0.2559(4)
F2_18 F 0.0048(6) 0.8748(6) 0.2035(3)
F3_18 F 0.0059(4) 0.8308(4) 0.2760(4)
F4_18 F 0.9535(3) 0.8752(6) 0.2548(6)
B1_19 B 0.6250(4) 0.7484(3) 0.5016(4)
F1_19 F 0.5808(4) 0.7441(4) 0.5260(4)
F2_19 F 0.6252(6) 0.7965(3) 0.5048(6)
F3_19 F 0.6692(4) 0.7240(4) 0.5059(4)
F4_19 F 0.6248(6) 0.7452(6) 0.4535(3)
B1_20 B 0.1250(4) 0.7516(3) 0.4984(4)
F1_20 F 0.0808(4) 0.7559(4) 0.4740(4)
F2_20 F 0.1252(6) 0.7035(3) 0.4952(6)
F3_20 F 0.1692(4) 0.7760(4) 0.4941(4)
F4_20 F 0.1248(6) 0.7548(6) 0.5465(3)
B1_21 B 0.8750(4) 0.2516(3) 0.0016(4)
F1_21 F 0.9192(4) 0.2559(4) 0.0260(4)
F2_21 F 0.8748(6) 0.2035(3) 0.0048(6)
F3_21 F 0.8308(4) 0.2760(4) 0.0059(4)
F4_21 F 0.8752(6) 0.2548(6) 0.9535(3)
F2_22 F 0.7452(6) 0.0465(3) 0.1248(6)
B1_22 B 0.7484(4) 0.9984(3) 0.1250(4)
F1_22 F 0.7240(4) 0.9941(4) 0.1692(4)
F3_22 F 0.7441(4) 0.9740(4) 0.0808(4)
F4_22 F 0.7965(3) 0.9952(6) 0.1252(6)
B1_23 B 0.2484(4) 0.5016(3) 0.8750(4)
F1_23 F 0.2240(4) 0.5059(4) 0.8308(4)
F2_23 F 0.2452(6) 0.4535(3) 0.8752(6)
F3_23 F 0.2441(4) 0.5260(4) 0.9192(4)
F4_23 F 0.2965(3) 0.5048(6) 0.8748(6)
B1_24 B 0.2516(4) 0.4984(3) 0.3750(4)
F1_24 F 0.2760(4) 0.4941(4) 0.3308(4)
F2_24 F 0.2548(6) 0.5465(3) 0.3752(6)
F3_24 F 0.2559(4) 0.4740(4) 0.4192(4)
F4_24 F 0.2035(3) 0.4952(6) 0.3748(6)
F2_25 F 0.1248(6) 0.7452(6) 0.0465(3)
B1_25 B 0.1250(4) 0.7484(4) 0.9984(3)
F1_25 F 0.1692(4) 0.7240(4) 0.9941(4)
F3_25 F 0.0808(4) 0.7441(4) 0.9740(4)
F4_25 F 0.1252(6) 0.7965(3) 0.9952(6)
B1_26 B 0.8750(4) 0.2484(4) 0.5016(3)
F1_26 F 0.8308(4) 0.2240(4) 0.5059(4)
F2_26 F 0.8752(6) 0.2452(6) 0.4535(3)
F3_26 F 0.9192(4) 0.2441(4) 0.5260(4)
F4_26 F 0.8748(6) 0.2965(3) 0.5048(6)
B1_27 B 0.3750(4) 0.2516(4) 0.4984(3)
F1_27 F 0.3308(4) 0.2760(4) 0.4941(4)
F2_27 F 0.3752(6) 0.2548(6) 0.5465(3)
F3_27 F 0.4192(4) 0.2559(4) 0.4740(4)
F4_27 F 0.3748(6) 0.2035(3) 0.4952(6)
F2_28 F 0.0465(3) 0.1248(6) 0.7452(6)
B1_28 B 0.9984(3) 0.1250(4) 0.7484(4)
F1_28 F 0.9941(4) 0.1692(4) 0.7240(4)
F3_28 F 0.9740(4) 0.0808(4) 0.7441(4)
F4_28 F 0.9952(6) 0.1252(6) 0.7965(3)
B1_29 B 0.5016(3) 0.8750(4) 0.2484(4)
F1_29 F 0.5059(4) 0.8308(4) 0.2240(4)
F2_29 F 0.4535(3) 0.8752(6) 0.2452(6)
F3_29 F 0.5260(4) 0.9192(4) 0.2441(4)
F4_29 F 0.5048(6) 0.8748(6) 0.2965(3)
B1_30 B 0.4984(3) 0.3750(4) 0.2516(4)
F1_30 F 0.4941(4) 0.3308(4) 0.2760(4)
F2_30 F 0.5465(3) 0.3752(6) 0.2548(6)
F3_30 F 0.4740(4) 0.4192(4) 0.2559(4)
F4_30 F 0.4952(6) 0.3748(6) 0.2035(3)
B1_31 B 0.2484(3) 0.4984(4) 0.6250(4)
F1_31 F 0.2441(4) 0.4740(4) 0.5808(4)
F2_31 F 0.2965(3) 0.4952(6) 0.6252(6)
F3_31 F 0.2240(4) 0.4941(4) 0.6692(4)
F4_31 F 0.2452(6) 0.5465(3) 0.6248(6)
B1_32 B 0.4984(4) 0.6250(4) 0.2484(3)
F1_32 F 0.4740(4) 0.5808(4) 0.2441(4)
F2_32 F 0.4952(6) 0.6252(6) 0.2965(3)
F3_32 F 0.4941(4) 0.6692(4) 0.2240(4)
F4_32 F 0.5465(3) 0.6248(6) 0.2452(6)
B1_33 B 0.6250(4) 0.2484(3) 0.4984(4)
F1_33 F 0.5808(4) 0.2441(4) 0.4740(4)
F2_33 F 0.6252(6) 0.2965(3) 0.4952(6)
F3_33 F 0.6692(4) 0.2240(4) 0.4941(4)
F4_33 F 0.6248(6) 0.2452(6) 0.5465(3)
B1_34 B 0.7484(4) 0.0016(3) 0.3750(4)
F1_34 F 0.7240(4) 0.0059(4) 0.3308(4)
F3_34 F 0.7441(4) 0.0260(4) 0.4192(4)
F4_34 F 0.7965(3) 0.0048(6) 0.3748(6)
F2_34 F 0.7452(6) 0.9535(3) 0.3752(6)
F2_35 F 0.7548(6) 0.0465(3) 0.8752(6)
B1_35 B 0.7516(4) 0.9984(3) 0.8750(4)
F1_35 F 0.7760(4) 0.9941(4) 0.8308(4)
F3_35 F 0.7559(4) 0.9740(4) 0.9192(4)
F4_35 F 0.7035(3) 0.9952(6) 0.8748(6)
B1_36 B 0.3750(4) 0.7484(4) 0.0016(3)
F1_36 F 0.3308(4) 0.7240(4) 0.0059(4)
F3_36 F 0.4192(4) 0.7441(4) 0.0260(4)
F4_36 F 0.3748(6) 0.7965(3) 0.0048(6)
F2_36 F 0.3752(6) 0.7452(6) 0.9535(3)
F2_37 F 0.8752(6) 0.7548(6) 0.0465(3)
B1_37 B 0.8750(4) 0.7516(4) 0.9984(3)
F1_37 F 0.8308(4) 0.7760(4) 0.9941(4)
F3_37 F 0.9192(4) 0.7559(4) 0.9740(4)
F4_37 F 0.8748(6) 0.7035(3) 0.9952(6)
B1_38 B 0.0016(3) 0.3750(4) 0.7484(4)
F1_38 F 0.0059(4) 0.3308(4) 0.7240(4)
F3_38 F 0.0260(4) 0.4192(4) 0.7441(4)
F4_38 F 0.0048(6) 0.3748(6) 0.7965(3)
F2_38 F 0.9535(3) 0.3752(6) 0.7452(6)
F2_39 F 0.0465(3) 0.8752(6) 0.7548(6)
B1_39 B 0.9984(3) 0.8750(4) 0.7516(4)
F1_39 F 0.9941(4) 0.8308(4) 0.7760(4)
F3_39 F 0.9740(4) 0.9192(4) 0.7559(4)
F4_39 F 0.9952(6) 0.8748(6) 0.7035(3)
B1_40 B 0.7516(4) 0.0016(3) 0.6250(4)
F1_40 F 0.7760(4) 0.0059(4) 0.6692(4)
F3_40 F 0.7559(4) 0.0260(4) 0.5808(4)
F4_40 F 0.7035(3) 0.0048(6) 0.6252(6)
F2_40 F 0.7548(6) 0.9535(3) 0.6248(6)
B1_41 B 0.6250(4) 0.7516(4) 0.0016(3)
F1_41 F 0.6692(4) 0.7760(4) 0.0059(4)
F3_41 F 0.5808(4) 0.7559(4) 0.0260(4)
F4_41 F 0.6252(6) 0.7035(3) 0.0048(6)
F2_41 F 0.6248(6) 0.7548(6) 0.9535(3)
B1_42 B 0.0016(3) 0.6250(4) 0.7516(4)
F1_42 F 0.0059(4) 0.6692(4) 0.7760(4)
F3_42 F 0.0260(4) 0.5808(4) 0.7559(4)
F4_42 F 0.0048(6) 0.6252(6) 0.7035(3)
F2_42 F 0.9535(3) 0.6248(6) 0.7548(6)
B1_43 B 0.2516(3) 0.5016(4) 0.1250(4)
F1_43 F 0.2559(4) 0.5260(4) 0.0808(4)
F2_43 F 0.2035(3) 0.5048(6) 0.1252(6)
F3_43 F 0.2760(4) 0.5059(4) 0.1692(4)
F4_43 F 0.2548(6) 0.4535(3) 0.1248(6)
B1_44 B 0.5016(4) 0.1250(4) 0.2516(3)
F1_44 F 0.5260(4) 0.0808(4) 0.2559(4)
F2_44 F 0.5048(6) 0.1252(6) 0.2035(3)
F3_44 F 0.5059(4) 0.1692(4) 0.2760(4)
F4_44 F 0.4535(3) 0.1248(6) 0.2548(6)
B1_45 B 0.1250(4) 0.2516(3) 0.5016(4)
F1_45 F 0.0808(4) 0.2559(4) 0.5260(4)
F2_45 F 0.1252(6) 0.2035(3) 0.5048(6)
F3_45 F 0.1692(4) 0.2760(4) 0.5059(4)
F4_45 F 0.1248(6) 0.2548(6) 0.4535(3)
B1_46 B 0.7516(3) 0.5016(4) 0.3750(4)
F1_46 F 0.7559(4) 0.5260(4) 0.4192(4)
F2_46 F 0.7035(3) 0.5048(6) 0.3748(6)
F3_46 F 0.7760(4) 0.5059(4) 0.3308(4)
F4_46 F 0.7548(6) 0.4535(3) 0.3752(6)
B1_47 B 0.5016(4) 0.3750(4) 0.7516(3)
F1_47 F 0.5260(4) 0.4192(4) 0.7559(4)
F2_47 F 0.5048(6) 0.3748(6) 0.7035(3)
F3_47 F 0.5059(4) 0.3308(4) 0.7760(4)
F4_47 F 0.4535(3) 0.3752(6) 0.7548(6)
B1_48 B 0.3750(4) 0.7516(3) 0.5016(4)
F1_48 F 0.4192(4) 0.7559(4) 0.5260(4)
F2_48 F 0.3748(6) 0.7035(3) 0.5048(6)
F3_48 F 0.3308(4) 0.7760(4) 0.5059(4)
F4_48 F 0.3752(6) 0.7548(6) 0.4535(3)
Cu1 Cu 0.3750 0.0000 0.2500
N1 N 0.33411(16) 0.05892(16) 0.24202(15)
N2 N 0.2033(5) 0.1804(5) 0.2485(6)
C1 C 0.2905(5) 0.0601(5) 0.2645(5)
H1 H 0.2814 0.0345 0.2842
C2 C 0.2598(7) 0.0982(7) 0.2587(7)
H2 H 0.2322 0.1004 0.2775
C3 C 0.2698(5) 0.1329(5) 0.2254(5)
C4 C 0.3120(6) 0.1272(5) 0.1983(6)
H3 H 0.3203 0.1494 0.1745
C5 C 0.3400(7) 0.0894(7) 0.2071(7)
H4 H 0.3661 0.0843 0.1866
C6 C 0.2385(6) 0.1742(6) 0.2183(6)
C7 C 0.1742(6) 0.2183(6) 0.2385(6)
N3 N 0.2485(6) 0.2033(5) 0.1804(5)
C8 C 0.4595(5) 0.0145(5) 0.1899(5)
H5 H 0.4686 0.0342 0.2155
C9 C 0.4902(7) 0.0087(7) 0.1518(7)
H6 H 0.5178 0.0275 0.1496
N7 N 0.41589(16) 0.00798(15) 0.30892(16)
N8 N 0.5467(5) 0.0015(6) 0.4304(5)
C17 C 0.4802(5) 0.0246(5) 0.3829(5)
C18 C 0.4380(6) 0.0517(6) 0.3772(5)
H11 H 0.4297 0.0755 0.3994
C19 C 0.4100(7) 0.0429(7) 0.3394(7)
H12 H 0.3839 0.0634 0.3343
C20 C 0.5115(6) 0.0317(6) 0.4242(6)
C21 C 0.5758(6) 0.0115(6) 0.4683(6)
N9 N 0.5015(6) 0.0696(5) 0.4533(5)
N13 N 0.1804(5) 0.2485(6) 0.2033(5)
C29 C 0.1329(5) 0.2254(5) 0.2698(5)
C30 C 0.2183(6) 0.2385(6) 0.1742(6)
C31 C 0.6171(5) 0.0198(5) 0.0246(5)
N15 N 0.5696(5) 0.0467(5) 0.4985(6)
C34 C 0.5317(6) 0.0758(6) 0.4885(6)
C37 C 0.0982(7) 0.2587(7) 0.2598(7)
C38 C 0.1272(5) 0.1983(6) 0.3120(6)
C39 C 0.2254(5) 0.2698(5) 0.1329(5)
C41 C 0.6228(5) 0.0620(6) 0.0517(6)
C45 C 0.5246(5) 0.1171(5) 0.5198(5)
C49 C 0.0601(5) 0.2645(5) 0.2905(5)
H17 H 0.1004 0.2775 0.2322
H18 H 0.1494 0.1745 0.3203
C50 C 0.0894(7) 0.2071(7) 0.3400(7)
C51 C 0.2587(7) 0.2598(7) 0.0982(7)
C52 C 0.1983(6) 0.3120(6) 0.1272(5)
H20 H 0.6006 0.0703 0.0755
C54 C 0.6606(7) 0.0900(7) 0.0429(7)
H21 H 0.6496 0.0178 0.5275
C59 C 0.4913(7) 0.1518(7) 0.5098(7)
C60 C 0.5517(6) 0.1228(5) 0.5620(6)
N17 N 0.05892(16) 0.24202(15) 0.33411(16)
H25 H 0.0345 0.2842 0.2814
H26 H 0.0843 0.1866 0.3661
C65 C 0.2645(5) 0.2905(5) 0.0601(5)
H27 H 0.2775 0.2322 0.1004
H28 H 0.1745 0.3203 0.1494
C66 C 0.2071(7) 0.3400(7) 0.0894(7)
N18 N 0.69108(16) 0.08411(16) 0.00798(15)
H30 H 0.6657 0.1161 0.0634
C69 C 0.4855(5) 0.1899(5) 0.5405(5)
H35 H 0.4725 0.1496 0.4822
H36 H 0.5755 0.1006 0.5703
C70 C 0.5429(7) 0.1606(7) 0.5900(7)
Cu2 Cu -0.0000 0.2500 0.3750
N21 N 0.24202(15) 0.33411(16) 0.05892(16)
H41 H 0.2842 0.2814 0.0345
H42 H 0.1866 0.3661 0.0843
Cu3 Cu 0.7500 0.1250 0.0000
N23 N 0.50798(15) 0.19108(16) 0.58411(16)
H45 H 0.4658 0.2155 0.5314
H46 H 0.5634 0.1657 0.6161
N26 N 0.00798(15) 0.30892(16) 0.41589(16)
Cu6 Cu 0.2500 0.3750 0.0000
Cu8 Cu 0.5000 0.2500 0.6250
C40 C 0.6518(7) 0.0098(7) 0.9913(7)
C53 C 0.6899(5) 0.0405(5) 0.9855(5)
H29 H 0.7155 0.0314 0.9658
Cu3_2 Cu 0.7500 0.1250 1.0000
Cu6_2 Cu 0.2500 0.3750 1.0000
Cu1_2 Cu 0.3750 1.0000 0.2500
N4 N 0.41589(16) 0.99202(15) 0.19108(16)
N5 N 0.5467(5) 0.9985(6) 0.0696(5)
C10 C 0.4802(5) 0.9754(5) 0.1171(5)
C11 C 0.4380(6) 0.9483(6) 0.1228(5)
H7 H 0.4297 0.9245 0.1006
C12 C 0.4100(7) 0.9571(7) 0.1606(7)
H8 H 0.3839 0.9366 0.1657
C13 C 0.5115(6) 0.9683(6) 0.0758(6)
C14 C 0.5758(6) 0.9885(6) 0.0317(6)
N6 N 0.5015(6) 0.9304(5) 0.0467(5)
C15 C 0.4595(5) 0.9855(5) 0.3101(5)
H9 H 0.4686 0.9658 0.2845
C16 C 0.4902(7) 0.9913(7) 0.3482(7)
H10 H 0.5178 0.9725 0.3504
N10 N 0.33411(16) 0.94108(16) 0.25798(15)
N11 N 0.2033(5) 0.8196(5) 0.2515(6)
C22 C 0.2905(5) 0.9399(5) 0.2355(5)
H13 H 0.2814 0.9655 0.2158
C23 C 0.2598(7) 0.9018(7) 0.2413(7)
H14 H 0.2322 0.8996 0.2225
C24 C 0.2698(5) 0.8671(5) 0.2746(5)
C25 C 0.3120(6) 0.8728(5) 0.3017(6)
H15 H 0.3203 0.8506 0.3255
C26 C 0.3400(7) 0.9106(7) 0.2929(7)
H16 H 0.3661 0.9157 0.3134
C27 C 0.2385(6) 0.8258(6) 0.2817(6)
C28 C 0.1742(6) 0.7817(6) 0.2615(6)
N12 N 0.2485(6) 0.7967(5) 0.3196(5)
N14 N 0.5696(5) 0.9533(5) 0.0015(6)
C32 C 0.5317(6) 0.9242(6) 0.0115(6)
C33 C 0.6171(5) 0.9802(5) 0.4754(5)
N16 N 0.1804(5) 0.7515(6) 0.2967(5)
C35 C 0.1329(5) 0.7746(5) 0.2302(5)
C36 C 0.2183(6) 0.7615(6) 0.3258(6)
C43 C 0.6518(7) 0.9902(7) 0.5087(7)
C44 C 0.6228(5) 0.9380(6) 0.4483(6)
C46 C 0.0982(7) 0.7413(7) 0.2402(7)
C47 C 0.1272(5) 0.8017(6) 0.1880(6)
C48 C 0.2254(5) 0.7302(5) 0.3671(5)
C57 C 0.6899(5) 0.9595(5) 0.5145(5)
H22 H 0.6006 0.9297 0.4245
C58 C 0.6606(7) 0.9100(7) 0.4571(7)
C61 C 0.0601(5) 0.7355(5) 0.2095(5)
H23 H 0.1004 0.7225 0.2678
H24 H 0.1494 0.8255 0.1797
C62 C 0.0894(7) 0.7929(7) 0.1600(7)
C63 C 0.2587(7) 0.7402(7) 0.4018(7)
C64 C 0.1983(6) 0.6880(6) 0.3728(5)
H31 H 0.4725 0.8504 0.0178
N19 N 0.69108(16) 0.91589(16) 0.49202(15)
H33 H 0.7155 0.9686 0.5342
H34 H 0.6657 0.8839 0.4366
N20 N 0.05892(16) 0.75798(15) 0.16589(16)
H37 H 0.0345 0.7158 0.2186
H38 H 0.0843 0.8134 0.1339
C71 C 0.2645(5) 0.7095(5) 0.4399(5)
H39 H 0.2775 0.7678 0.3996
H40 H 0.1745 0.6797 0.3506
C72 C 0.2071(7) 0.6600(7) 0.4106(7)
Cu4 Cu 0.7500 0.8750 0.5000
Cu5 Cu 0.0000 0.7500 0.1250
N24 N 0.24202(15) 0.66589(16) 0.44108(16)
H47 H 0.2842 0.7186 0.4655
H48 H 0.1866 0.6339 0.4157
N28 N 0.74202(15) 0.83411(16) 0.55892(16)
N29 N 0.80892(16) 0.91589(16) 0.50798(15)
N30 N 0.75798(15) 0.83411(16) 0.44108(16)
Cu9 Cu 0.2500 0.6250 0.5000
C42 C 0.5246(5) 0.8829(5) 0.9802(5)
H19 H 0.6496 0.9822 0.9725
C55 C 0.4913(7) 0.8482(7) 0.9902(7)
C56 C 0.5517(6) 0.8772(5) 0.9380(6)
C67 C 0.4855(5) 0.8101(5) 0.9595(5)
H32 H 0.5755 0.8994 0.9297
C68 C 0.5429(7) 0.8394(7) 0.9100(7)
N22 N 0.50798(15) 0.80892(16) 0.91589(16)
H43 H 0.4658 0.7845 0.9686
H44 H 0.5634 0.8343 0.8839
Cu7 Cu 0.5000 0.7500 0.8750
Cu2_2 Cu 1.0000 0.2500 0.3750
N25 N 0.99202(15) 0.19108(16) 0.41589(16)
N27 N 0.94108(16) 0.25798(15) 0.33411(16)
Cu5_2 Cu 1.0000 0.7500 0.1250
C8_2 C 0.1899(5) 0.4595(5) 0.0145(5)
H5_2 H 0.2155 0.4686 0.0342
C9_2 C 0.1518(7) 0.4902(7) 0.0087(7)
H6_2 H 0.1496 0.5178 0.0275
N7_2 N 0.30892(16) 0.41589(16) 0.00798(15)
N8_2 N 0.4304(5) 0.5467(5) 0.0015(6)
C17_2 C 0.3829(5) 0.4802(5) 0.0246(5)
C18_2 C 0.3772(5) 0.4380(6) 0.0517(6)
H11_2 H 0.3994 0.4297 0.0755
C19_2 C 0.3394(7) 0.4100(7) 0.0429(7)
H12_2 H 0.3343 0.3839 0.0634
C20_2 C 0.4242(6) 0.5115(6) 0.0317(6)
C21_2 C 0.4683(6) 0.5758(6) 0.0115(6)
N9_2 N 0.4533(5) 0.5015(6) 0.0696(5)
C31_2 C 0.0246(5) 0.6171(5) 0.0198(5)
N15_2 N 0.4985(6) 0.5696(5) 0.0467(5)
C34_2 C 0.4885(6) 0.5317(6) 0.0758(6)
C41_2 C 0.0517(6) 0.6228(5) 0.0620(6)
C45_2 C 0.5198(5) 0.5246(5) 0.1171(5)
H20_2 H 0.0755 0.6006 0.0703
C54_2 C 0.0429(7) 0.6606(7) 0.0900(7)
H21_2 H 0.5275 0.6496 0.0178
C59_2 C 0.5098(7) 0.4913(7) 0.1518(7)
C60_2 C 0.5620(6) 0.5517(6) 0.1228(5)
N18_2 N 0.00798(15) 0.69108(16) 0.08411(16)
H30_2 H 0.0634 0.6657 0.1161
C69_2 C 0.5405(5) 0.4855(5) 0.1899(5)
H35_2 H 0.4822 0.4725 0.1496
H36_2 H 0.5703 0.5755 0.1006
C70_2 C 0.5900(7) 0.5429(7) 0.1606(7)
N23_2 N 0.58411(16) 0.50798(15) 0.19108(16)
H45_2 H 0.5314 0.4658 0.2155
H46_2 H 0.6161 0.5634 0.1657
Cu8_2 Cu 0.6250 0.5000 0.2500
N4_2 N 0.19108(16) 0.41589(16) 0.99202(15)
N5_2 N 0.0696(5) 0.5467(5) 0.9985(6)
C10_2 C 0.1171(5) 0.4802(5) 0.9754(5)
C11_2 C 0.1228(5) 0.4380(6) 0.9483(6)
H7_2 H 0.1006 0.4297 0.9245
C12_2 C 0.1606(7) 0.4100(7) 0.9571(7)
H8_2 H 0.1657 0.3839 0.9366
C13_2 C 0.0758(6) 0.5115(6) 0.9683(6)
C14_2 C 0.0317(6) 0.5758(6) 0.9885(6)
N6_2 N 0.0467(5) 0.5015(6) 0.9304(5)
C15_2 C 0.3101(5) 0.4595(5) 0.9855(5)
H9_2 H 0.2845 0.4686 0.9658
C16_2 C 0.3482(7) 0.4902(7) 0.9913(7)
H10_2 H 0.3504 0.5178 0.9725
N10_2 N 0.25798(15) 0.33411(16) 0.94108(16)
N11_2 N 0.2515(6) 0.2033(5) 0.8196(5)
C22_2 C 0.2355(5) 0.2905(5) 0.9399(5)
H13_2 H 0.2158 0.2814 0.9655
C23_2 C 0.2413(7) 0.2598(7) 0.9018(7)
H14_2 H 0.2225 0.2322 0.8996
C24_2 C 0.2746(5) 0.2698(5) 0.8671(5)
C25_2 C 0.3017(6) 0.3120(6) 0.8728(5)
H15_2 H 0.3255 0.3203 0.8506
C26_2 C 0.2929(7) 0.3400(7) 0.9106(7)
H16_2 H 0.3134 0.3661 0.9157
C27_2 C 0.2817(6) 0.2385(6) 0.8258(6)
C28_2 C 0.2615(6) 0.1742(6) 0.7817(6)
N12_2 N 0.3196(5) 0.2485(6) 0.7967(5)
N14_2 N 0.0015(6) 0.5696(5) 0.9533(5)
C32_2 C 0.0115(6) 0.5317(6) 0.9242(6)
C33_2 C 0.4754(5) 0.6171(5) 0.9802(5)
N16_2 N 0.2967(5) 0.1804(5) 0.7515(6)
C35_2 C 0.2302(5) 0.1329(5) 0.7746(5)
C36_2 C 0.3258(6) 0.2183(6) 0.7615(6)
C43_2 C 0.5087(7) 0.6518(7) 0.9902(7)
C44_2 C 0.4483(6) 0.6228(5) 0.9380(6)
C46_2 C 0.2402(7) 0.0982(7) 0.7413(7)
C47_2 C 0.1880(6) 0.1272(5) 0.8017(6)
C48_2 C 0.3671(5) 0.2254(5) 0.7302(5)
C57_2 C 0.5145(5) 0.6899(5) 0.9595(5)
H22_2 H 0.4245 0.6006 0.9297
C58_2 C 0.4571(7) 0.6606(7) 0.9100(7)
C61_2 C 0.2095(5) 0.0601(5) 0.7355(5)
H23_2 H 0.2678 0.1004 0.7225
H24_2 H 0.1797 0.1494 0.8255
C62_2 C 0.1600(7) 0.0894(7) 0.7929(7)
C63_2 C 0.4018(7) 0.2587(7) 0.7402(7)
C64_2 C 0.3728(5) 0.1983(6) 0.6880(6)
H31_2 H 0.0178 0.4725 0.8504
N19_2 N 0.49202(15) 0.69108(16) 0.91589(16)
H33_2 H 0.5342 0.7155 0.9686
H34_2 H 0.4366 0.6657 0.8839
N20_2 N 0.16589(16) 0.05892(16) 0.75798(15)
H37_2 H 0.2186 0.0345 0.7158
H38_2 H 0.1339 0.0843 0.8134
C71_2 C 0.4399(5) 0.2645(5) 0.7095(5)
H39_2 H 0.3996 0.2775 0.7678
H40_2 H 0.3506 0.1745 0.6797
C72_2 C 0.4106(7) 0.2071(7) 0.6600(7)
Cu5_3 Cu 0.1250 0.0000 0.7500
N24_2 N 0.44108(16) 0.24202(15) 0.66589(16)
H47_2 H 0.4655 0.2842 0.7186
H48_2 H 0.4157 0.1866 0.6339
N28_2 N 0.55892(16) 0.74202(15) 0.83411(16)
N30_2 N 0.44108(16) 0.75798(15) 0.83411(16)
Cu5_4 Cu 0.1250 1.0000 0.7500
C40_2 C 0.9913(7) 0.6518(7) 0.0098(7)
C53_2 C 0.9855(5) 0.6899(5) 0.0405(5)
H29_2 H 0.9658 0.7155 0.0314
C42_2 C 0.9802(5) 0.5246(5) 0.8829(5)
H19_2 H 0.9725 0.6496 0.9822
C55_2 C 0.9902(7) 0.4913(7) 0.8482(7)
C56_2 C 0.9380(6) 0.5517(6) 0.8772(5)
C67_2 C 0.9595(5) 0.4855(5) 0.8101(5)
H32_2 H 0.9297 0.5755 0.8994
C68_2 C 0.9100(7) 0.5429(7) 0.8394(7)
N22_2 N 0.91589(16) 0.50798(15) 0.80892(16)
H43_2 H 0.9686 0.4658 0.7845
H44_2 H 0.8839 0.5634 0.8343
Cu7_2 Cu 0.8750 0.5000 0.7500
C8_3 C 0.0145(5) 0.1899(5) 0.4595(5)
H5_3 H 0.0342 0.2155 0.4686
C9_3 C 0.0087(7) 0.1518(7) 0.4902(7)
H6_3 H 0.0275 0.1496 0.5178
N8_3 N 0.0015(6) 0.4304(5) 0.5467(5)
C17_3 C 0.0246(5) 0.3829(5) 0.4802(5)
C18_3 C 0.0517(6) 0.3772(5) 0.4380(6)
H11_3 H 0.0755 0.3994 0.4297
C19_3 C 0.0429(7) 0.3394(7) 0.4100(7)
H12_3 H 0.0634 0.3343 0.3839
C20_3 C 0.0317(6) 0.4242(6) 0.5115(6)
C21_3 C 0.0115(6) 0.4683(6) 0.5758(6)
N9_3 N 0.0696(5) 0.4533(5) 0.5015(6)
C31_3 C 0.0198(5) 0.0246(5) 0.6171(5)
N15_3 N 0.0467(5) 0.4985(6) 0.5696(5)
C34_3 C 0.0758(6) 0.4885(6) 0.5317(6)
C41_3 C 0.0620(6) 0.0517(6) 0.6228(5)
C45_3 C 0.1171(5) 0.5198(5) 0.5246(5)
H20_3 H 0.0703 0.0755 0.6006
C54_3 C 0.0900(7) 0.0429(7) 0.6606(7)
H21_3 H 0.0178 0.5275 0.6496
C59_3 C 0.1518(7) 0.5098(7) 0.4913(7)
C60_3 C 0.1228(5) 0.5620(6) 0.5517(6)
N18_3 N 0.08411(16) 0.00798(15) 0.69108(16)
H30_3 H 0.1161 0.0634 0.6657
C69_3 C 0.1899(5) 0.5405(5) 0.4855(5)
H35_3 H 0.1496 0.4822 0.4725
H36_3 H 0.1006 0.5703 0.5755
C70_3 C 0.1606(7) 0.5900(7) 0.5429(7)
N23_3 N 0.19108(16) 0.58411(16) 0.50798(15)
H45_3 H 0.2155 0.5314 0.4658
H46_3 H 0.1657 0.6161 0.5634
C40_3 C 0.0098(7) 0.9913(7) 0.6518(7)
C53_3 C 0.0405(5) 0.9855(5) 0.6899(5)
H29_3 H 0.0314 0.9658 0.7155
N5_3 N 0.9985(6) 0.0696(5) 0.5467(5)
C10_3 C 0.9754(5) 0.1171(5) 0.4802(5)
C11_3 C 0.9483(6) 0.1228(5) 0.4380(6)
H7_3 H 0.9245 0.1006 0.4297
C12_3 C 0.9571(7) 0.1606(7) 0.4100(7)
H8_3 H 0.9366 0.1657 0.3839
C13_3 C 0.9683(6) 0.0758(6) 0.5115(6)
C14_3 C 0.9885(6) 0.0317(6) 0.5758(6)
N6_3 N 0.9304(5) 0.0467(5) 0.5015(6)
C15_3 C 0.9855(5) 0.3101(5) 0.4595(5)
H9_3 H 0.9658 0.2845 0.4686
C16_3 C 0.9913(7) 0.3482(7) 0.4902(7)
H10_3 H 0.9725 0.3504 0.5178
N11_3 N 0.8196(5) 0.2515(6) 0.2033(5)
C22_3 C 0.9399(5) 0.2355(5) 0.2905(5)
H13_3 H 0.9655 0.2158 0.2814
C23_3 C 0.9018(7) 0.2413(7) 0.2598(7)
H14_3 H 0.8996 0.2225 0.2322
C24_3 C 0.8671(5) 0.2746(5) 0.2698(5)
C25_3 C 0.8728(5) 0.3017(6) 0.3120(6)
H15_3 H 0.8506 0.3255 0.3203
C26_3 C 0.9106(7) 0.2929(7) 0.3400(7)
H16_3 H 0.9157 0.3134 0.3661
C27_3 C 0.8258(6) 0.2817(6) 0.2385(6)
C28_3 C 0.7817(6) 0.2615(6) 0.1742(6)
N12_3 N 0.7967(5) 0.3196(5) 0.2485(6)
N14_3 N 0.9533(5) 0.0015(6) 0.5696(5)
C32_3 C 0.9242(6) 0.0115(6) 0.5317(6)
C33_3 C 0.9802(5) 0.4754(5) 0.6171(5)
N16_3 N 0.7515(6) 0.2967(5) 0.1804(5)
C35_3 C 0.7746(5) 0.2302(5) 0.1329(5)
C36_3 C 0.7615(6) 0.3258(6) 0.2183(6)
C43_3 C 0.9902(7) 0.5087(7) 0.6518(7)
C44_3 C 0.9380(6) 0.4483(6) 0.6228(5)
C46_3 C 0.7413(7) 0.2402(7) 0.0982(7)
C47_3 C 0.8017(6) 0.1880(6) 0.1272(5)
C48_3 C 0.7302(5) 0.3671(5) 0.2254(5)
C57_3 C 0.9595(5) 0.5145(5) 0.6899(5)
H22_3 H 0.9297 0.4245 0.6006
C58_3 C 0.9100(7) 0.4571(7) 0.6606(7)
C61_3 C 0.7355(5) 0.2095(5) 0.0601(5)
H23_3 H 0.7225 0.2678 0.1004
H24_3 H 0.8255 0.1797 0.1494
C62_3 C 0.7929(7) 0.1600(7) 0.0894(7)
C63_3 C 0.7402(7) 0.4018(7) 0.2587(7)
C64_3 C 0.6880(6) 0.3728(5) 0.1983(6)
H31_3 H 0.8504 0.0178 0.4725
N19_3 N 0.91589(16) 0.49202(15) 0.69108(16)
H33_3 H 0.9686 0.5342 0.7155
H34_3 H 0.8839 0.4366 0.6657
N20_3 N 0.75798(15) 0.16589(16) 0.05892(16)
H37_3 H 0.7158 0.2186 0.0345
H38_3 H 0.8134 0.1339 0.0843
C71_3 C 0.7095(5) 0.4399(5) 0.2645(5)
H39_3 H 0.7678 0.3996 0.2775
H40_3 H 0.6797 0.3506 0.1745
C72_3 C 0.6600(7) 0.4106(7) 0.2071(7)
N24_3 N 0.66589(16) 0.44108(16) 0.24202(15)
H47_3 H 0.7186 0.4655 0.2842
H48_3 H 0.6339 0.4157 0.1866
N28_3 N 0.83411(16) 0.55892(16) 0.74202(15)
N30_3 N 0.83411(16) 0.44108(16) 0.75798(15)
C42_3 C 0.8829(5) 0.9802(5) 0.5246(5)
H19_3 H 0.9822 0.9725 0.6496
C55_3 C 0.8482(7) 0.9902(7) 0.4913(7)
C56_3 C 0.8772(5) 0.9380(6) 0.5517(6)
C67_3 C 0.8101(5) 0.9595(5) 0.4855(5)
H32_3 H 0.8994 0.9297 0.5755
C68_3 C 0.8394(7) 0.9100(7) 0.5429(7)
H43_3 H 0.7845 0.9686 0.4658
H44_3 H 0.8343 0.8839 0.5634
N2_2 N 0.7033(5) 0.6804(5) 0.7485(6)
C1_2 C 0.7905(5) 0.5601(5) 0.7645(5)
H1_2 H 0.7814 0.5345 0.7842
C2_2 C 0.7598(7) 0.5982(7) 0.7587(7)
H2_2 H 0.7322 0.6004 0.7775
C3_2 C 0.7698(5) 0.6329(5) 0.7254(5)
C4_2 C 0.8120(6) 0.6272(5) 0.6983(6)
H3_2 H 0.8203 0.6494 0.6745
C5_2 C 0.8400(7) 0.5894(7) 0.7071(7)
H4_2 H 0.8661 0.5843 0.6866
C6_2 C 0.7385(6) 0.6742(6) 0.7183(6)
C7_2 C 0.6742(6) 0.7183(6) 0.7385(6)
N3_2 N 0.7485(6) 0.7033(5) 0.6804(5)
N11_4 N 0.7033(5) 0.3196(5) 0.7515(6)
C22_4 C 0.7905(5) 0.4399(5) 0.7355(5)
H13_4 H 0.7814 0.4655 0.7158
C23_4 C 0.7598(7) 0.4018(7) 0.7413(7)
H14_4 H 0.7322 0.3996 0.7225
C24_4 C 0.7698(5) 0.3671(5) 0.7746(5)
C25_4 C 0.8120(6) 0.3728(5) 0.8017(6)
H15_4 H 0.8203 0.3506 0.8255
C26_4 C 0.8400(7) 0.4106(7) 0.7929(7)
H16_4 H 0.8661 0.4157 0.8134
C27_4 C 0.7385(6) 0.3258(6) 0.7817(6)
C28_4 C 0.6742(6) 0.2817(6) 0.7615(6)
N12_4 N 0.7485(6) 0.2967(5) 0.8196(5)
N13_2 N 0.6804(5) 0.7485(6) 0.7033(5)
C29_2 C 0.6329(5) 0.7254(5) 0.7698(5)
C30_2 C 0.7183(6) 0.7385(6) 0.6742(6)
N16_4 N 0.6804(5) 0.2515(6) 0.7967(5)
C35_4 C 0.6329(5) 0.2746(5) 0.7302(5)
C36_4 C 0.7183(6) 0.2615(6) 0.8258(6)
C37_2 C 0.5982(7) 0.7587(7) 0.7598(7)
C38_2 C 0.6272(5) 0.6983(6) 0.8120(6)
C39_2 C 0.7254(5) 0.7698(5) 0.6329(5)
C46_4 C 0.5982(7) 0.2413(7) 0.7402(7)
C47_4 C 0.6272(5) 0.3017(6) 0.6880(6)
C48_4 C 0.7254(5) 0.2302(5) 0.8671(5)
C49_2 C 0.5601(5) 0.7645(5) 0.7905(5)
H17_2 H 0.6004 0.7775 0.7322
H18_2 H 0.6494 0.6745 0.8203
C50_2 C 0.5894(7) 0.7071(7) 0.8400(7)
C51_2 C 0.7587(7) 0.7598(7) 0.5982(7)
C52_2 C 0.6983(6) 0.8120(6) 0.6272(5)
C61_4 C 0.5601(5) 0.2355(5) 0.7095(5)
H23_4 H 0.6004 0.2225 0.7678
H24_4 H 0.6494 0.3255 0.6797
C62_4 C 0.5894(7) 0.2929(7) 0.6600(7)
C63_4 C 0.7587(7) 0.2402(7) 0.9018(7)
C64_4 C 0.6983(6) 0.1880(6) 0.8728(5)
H25_2 H 0.5345 0.7842 0.7814
H26_2 H 0.5843 0.6866 0.8661
C65_2 C 0.7645(5) 0.7905(5) 0.5601(5)
H27_2 H 0.7775 0.7322 0.6004
H28_2 H 0.6745 0.8203 0.6494
C66_2 C 0.7071(7) 0.8400(7) 0.5894(7)
N20_4 N 0.55892(16) 0.25798(15) 0.66589(16)
H37_4 H 0.5345 0.2158 0.7186
H38_4 H 0.5843 0.3134 0.6339
C71_4 C 0.7645(5) 0.2095(5) 0.9399(5)
H39_4 H 0.7775 0.2678 0.8996
H40_4 H 0.6745 0.1797 0.8506
C72_4 C 0.7071(7) 0.1600(7) 0.9106(7)
H41_2 H 0.7842 0.7814 0.5345
H42_2 H 0.6866 0.8661 0.5843
N24_4 N 0.74202(15) 0.16589(16) 0.94108(16)
H47_4 H 0.7842 0.2186 0.9655
H48_4 H 0.6866 0.1339 0.9157
N11_5 N 0.7515(6) 0.7033(5) 0.3196(5)
C22_5 C 0.7355(5) 0.7905(5) 0.4399(5)
H13_5 H 0.7158 0.7814 0.4655
C23_5 C 0.7413(7) 0.7598(7) 0.4018(7)
H14_5 H 0.7225 0.7322 0.3996
C24_5 C 0.7746(5) 0.7698(5) 0.3671(5)
C25_5 C 0.8017(6) 0.8120(6) 0.3728(5)
H15_5 H 0.8255 0.8203 0.3506
C26_5 C 0.7929(7) 0.8400(7) 0.4106(7)
H16_5 H 0.8134 0.8661 0.4157
C27_5 C 0.7817(6) 0.7385(6) 0.3258(6)
C28_5 C 0.7615(6) 0.6742(6) 0.2817(6)
N12_5 N 0.8196(5) 0.7485(6) 0.2967(5)
N16_5 N 0.7967(5) 0.6804(5) 0.2515(6)
C35_5 C 0.7302(5) 0.6329(5) 0.2746(5)
C36_5 C 0.8258(6) 0.7183(6) 0.2615(6)
C46_5 C 0.7402(7) 0.5982(7) 0.2413(7)
C47_5 C 0.6880(6) 0.6272(5) 0.3017(6)
C48_5 C 0.8671(5) 0.7254(5) 0.2302(5)
C61_5 C 0.7095(5) 0.5601(5) 0.2355(5)
H23_5 H 0.7678 0.6004 0.2225
H24_5 H 0.6797 0.6494 0.3255
C62_5 C 0.6600(7) 0.5894(7) 0.2929(7)
C63_5 C 0.9018(7) 0.7587(7) 0.2402(7)
C64_5 C 0.8728(5) 0.6983(6) 0.1880(6)
N20_5 N 0.66589(16) 0.55892(16) 0.25798(15)
H37_5 H 0.7186 0.5345 0.2158
H38_5 H 0.6339 0.5843 0.3134
C71_5 C 0.9399(5) 0.7645(5) 0.2095(5)
H39_5 H 0.8996 0.7775 0.2678
H40_5 H 0.8506 0.6745 0.1797
C72_5 C 0.9106(7) 0.7071(7) 0.1600(7)
N24_5 N 0.94108(16) 0.74202(15) 0.16589(16)
H47_5 H 0.9655 0.7842 0.2186
H48_5 H 0.9157 0.6866 0.1339
N11_6 N 0.3196(5) 0.7515(6) 0.7033(5)
C22_6 C 0.4399(5) 0.7355(5) 0.7905(5)
H13_6 H 0.4655 0.7158 0.7814
C23_6 C 0.4018(7) 0.7413(7) 0.7598(7)
H14_6 H 0.3996 0.7225 0.7322
C24_6 C 0.3671(5) 0.7746(5) 0.7698(5)
C25_6 C 0.3728(5) 0.8017(6) 0.8120(6)
H15_6 H 0.3506 0.8255 0.8203
C26_6 C 0.4106(7) 0.7929(7) 0.8400(7)
H16_6 H 0.4157 0.8134 0.8661
C27_6 C 0.3258(6) 0.7817(6) 0.7385(6)
C28_6 C 0.2817(6) 0.7615(6) 0.6742(6)
N12_6 N 0.2967(5) 0.8196(5) 0.7485(6)
N16_6 N 0.2515(6) 0.7967(5) 0.6804(5)
C35_6 C 0.2746(5) 0.7302(5) 0.6329(5)
C36_6 C 0.2615(6) 0.8258(6) 0.7183(6)
C46_6 C 0.2413(7) 0.7402(7) 0.5982(7)
C47_6 C 0.3017(6) 0.6880(6) 0.6272(5)
C48_6 C 0.2302(5) 0.8671(5) 0.7254(5)
C61_6 C 0.2355(5) 0.7095(5) 0.5601(5)
H23_6 H 0.2225 0.7678 0.6004
H24_6 H 0.3255 0.6797 0.6494
C62_6 C 0.2929(7) 0.6600(7) 0.5894(7)
C63_6 C 0.2402(7) 0.9018(7) 0.7587(7)
C64_6 C 0.1880(6) 0.8728(5) 0.6983(6)
N20_6 N 0.25798(15) 0.66589(16) 0.55892(16)
H37_6 H 0.2158 0.7186 0.5345
H38_6 H 0.3134 0.6339 0.5843
C71_6 C 0.2095(5) 0.9399(5) 0.7645(5)
H39_6 H 0.2678 0.8996 0.7775
H40_6 H 0.1797 0.8506 0.6745
C72_6 C 0.1600(7) 0.9106(7) 0.7071(7)
N24_6 N 0.16589(16) 0.94108(16) 0.74202(15)
H47_6 H 0.2186 0.9655 0.7842
H48_6 H 0.1339 0.9157 0.6866
N1_2 N 0.30892(16) 0.58411(16) 0.49202(15)
N2_3 N 0.4304(5) 0.4533(5) 0.4985(6)
C1_3 C 0.3101(5) 0.5405(5) 0.5145(5)
H1_3 H 0.2845 0.5314 0.5342
C2_3 C 0.3482(7) 0.5098(7) 0.5087(7)
H2_3 H 0.3504 0.4822 0.5275
C3_3 C 0.3829(5) 0.5198(5) 0.4754(5)
C4_3 C 0.3772(5) 0.5620(6) 0.4483(6)
H3_3 H 0.3994 0.5703 0.4245
C5_3 C 0.3394(7) 0.5900(7) 0.4571(7)
H4_3 H 0.3343 0.6161 0.4366
C6_3 C 0.4242(6) 0.4885(6) 0.4683(6)
C7_3 C 0.4683(6) 0.4242(6) 0.4885(6)
N3_3 N 0.4533(5) 0.4985(6) 0.4304(5)
N13_3 N 0.4985(6) 0.4304(5) 0.4533(5)
C29_3 C 0.4754(5) 0.3829(5) 0.5198(5)
C30_3 C 0.4885(6) 0.4683(6) 0.4242(6)
C37_3 C 0.5087(7) 0.3482(7) 0.5098(7)
C38_3 C 0.4483(6) 0.3772(5) 0.5620(6)
C39_3 C 0.5198(5) 0.4754(5) 0.3829(5)
C49_3 C 0.5145(5) 0.3101(5) 0.5405(5)
H17_3 H 0.5275 0.3504 0.4822
H18_3 H 0.4245 0.3994 0.5703
C50_3 C 0.4571(7) 0.3394(7) 0.5900(7)
C51_3 C 0.5098(7) 0.5087(7) 0.3482(7)
C52_3 C 0.5620(6) 0.4483(6) 0.3772(5)
N17_2 N 0.49202(15) 0.30892(16) 0.58411(16)
H25_3 H 0.5342 0.2845 0.5314
H26_3 H 0.4366 0.3343 0.6161
C65_3 C 0.5405(5) 0.5145(5) 0.3101(5)
H27_3 H 0.4822 0.5275 0.3504
H28_3 H 0.5703 0.4245 0.3994
C66_3 C 0.5900(7) 0.4571(7) 0.3394(7)
N21_2 N 0.58411(16) 0.49202(15) 0.30892(16)
H41_3 H 0.5314 0.5342 0.2845
H42_3 H 0.6161 0.4366 0.3343
N28_4 N 0.08411(16) 0.99202(15) 0.80892(16)
N28_5 N 0.99202(15) 0.80892(16) 0.08411(16)
N28_6 N 0.80892(16) 0.08411(16) 0.99202(15)
C63_7 C 0.0098(7) 0.0087(7) 0.8482(7)
C71_7 C 0.0405(5) 0.0145(5) 0.8101(5)
H47_7 H 0.0314 0.0342 0.7845
C46_7 C 0.0087(7) 0.8482(7) 0.0098(7)
C61_7 C 0.0145(5) 0.8101(5) 0.0405(5)
H37_7 H 0.0342 0.7845 0.0314
C48_7 C 0.0198(5) 0.9754(5) 0.8829(5)
H23_7 H 0.0275 0.8504 0.9822
C64_7 C 0.0620(6) 0.9483(6) 0.8772(5)
H40_7 H 0.0703 0.9245 0.8994
C72_7 C 0.0900(7) 0.9571(7) 0.8394(7)
H48_7 H 0.1161 0.9366 0.8343
C22_7 C 0.8101(5) 0.0405(5) 0.0145(5)
H13_7 H 0.7845 0.0314 0.0342
C23_7 C 0.8482(7) 0.0098(7) 0.0087(7)
C24_7 C 0.8829(5) 0.0198(5) 0.9754(5)
C25_7 C 0.8772(5) 0.0620(6) 0.9483(6)
H15_7 H 0.8994 0.0703 0.9245
C26_7 C 0.8394(7) 0.0900(7) 0.9571(7)
H16_7 H 0.8343 0.1161 0.9366
H39_7 H 0.9822 0.0275 0.8504
H14_7 H 0.8504 0.9822 0.0275
C35_7 C 0.9754(5) 0.8829(5) 0.0198(5)
C47_7 C 0.9483(6) 0.8772(5) 0.0620(6)
H24_7 H 0.9245 0.8994 0.0703
C62_7 C 0.9571(7) 0.8394(7) 0.0900(7)
H38_7 H 0.9366 0.8343 0.1161
N11_7 N 0.9304(5) 0.9533(5) 0.9985(6)
C27_7 C 0.9242(6) 0.9885(6) 0.9683(6)
C28_7 C 0.9683(6) 0.9242(6) 0.9885(6)
N12_7 N 0.9533(5) 0.9985(6) 0.9304(5)
N16_7 N 0.9985(6) 0.9304(5) 0.9533(5)
C36_7 C 0.9885(6) 0.9683(6) 0.9242(6)
C39_4 C 0.0198(5) 0.4754(5) 0.1171(5)
H17_4 H 0.0275 0.3504 0.0178
C51_4 C 0.0098(7) 0.5087(7) 0.1518(7)
C52_4 C 0.0620(6) 0.4483(6) 0.1228(5)
C65_4 C 0.0405(5) 0.5145(5) 0.1899(5)
H28_4 H 0.0703 0.4245 0.1006
C66_4 C 0.0900(7) 0.4571(7) 0.1606(7)
N21_3 N 0.08411(16) 0.49202(15) 0.19108(16)
H41_4 H 0.0314 0.5342 0.2155
H42_4 H 0.1161 0.4366 0.1657
Cu6_3 Cu 0.1250 0.5000 0.2500
C37_4 C 0.0087(7) 0.3482(7) 0.9902(7)
C49_4 C 0.0145(5) 0.3101(5) 0.9595(5)
H25_4 H 0.0342 0.2845 0.9686
Cu2_3 Cu 0.0000 0.2500 0.8750
N26_2 N 0.05892(16) 0.25798(15) 0.83411(16)
N27_2 N 0.00798(15) 0.19108(16) 0.91589(16)
Cu8_3 Cu 0.0000 0.7500 0.6250
Cu3_3 Cu 0.8750 0.0000 0.2500
Cu4_2 Cu 0.6250 0.0000 0.7500
N29_2 N 0.66589(16) 0.05892(16) 0.74202(15)
N30_4 N 0.58411(16) 0.00798(15) 0.80892(16)
Cu1_3 Cu 0.7500 0.6250 0.0000
N1_3 N 0.80892(16) 0.58411(16) 0.00798(15)
N2_4 N 0.9304(5) 0.4533(5) 0.0015(6)
C3_4 C 0.8829(5) 0.5198(5) 0.0246(5)
C4_4 C 0.8772(5) 0.5620(6) 0.0517(6)
H3_4 H 0.8994 0.5703 0.0755
C5_4 C 0.8394(7) 0.5900(7) 0.0429(7)
H4_4 H 0.8343 0.6161 0.0634
C6_4 C 0.9242(6) 0.4885(6) 0.0317(6)
C7_4 C 0.9683(6) 0.4242(6) 0.0115(6)
N3_4 N 0.9533(5) 0.4985(6) 0.0696(5)
N4_3 N 0.74202(15) 0.66589(16) 0.05892(16)
N5_4 N 0.7485(6) 0.7967(5) 0.1804(5)
C8_4 C 0.7645(5) 0.7095(5) 0.0601(5)
H5_4 H 0.7842 0.7186 0.0345
C9_4 C 0.7587(7) 0.7402(7) 0.0982(7)
H6_4 H 0.7775 0.7678 0.1004
C10_4 C 0.7254(5) 0.7302(5) 0.1329(5)
C11_4 C 0.6983(6) 0.6880(6) 0.1272(5)
H7_4 H 0.6745 0.6797 0.1494
C12_4 C 0.7071(7) 0.6600(7) 0.0894(7)
H8_4 H 0.6866 0.6339 0.0843
C13_4 C 0.7183(6) 0.7615(6) 0.1742(6)
C14_4 C 0.7385(6) 0.8258(6) 0.2183(6)
N6_4 N 0.6804(5) 0.7515(6) 0.2033(5)
C22_8 C 0.6899(5) 0.5405(5) 0.0145(5)
H13_8 H 0.7155 0.5314 0.0342
C23_8 C 0.6518(7) 0.5098(7) 0.0087(7)
H14_8 H 0.6496 0.4822 0.0275
N13_4 N 0.9985(6) 0.4304(5) 0.0467(5)
C30_4 C 0.9885(6) 0.4683(6) 0.0758(6)
N14_4 N 0.7033(5) 0.8196(5) 0.2485(6)
C31_4 C 0.7698(5) 0.8671(5) 0.2254(5)
C32_4 C 0.6742(6) 0.7817(6) 0.2385(6)
C35_8 C 0.5246(5) 0.3829(5) 0.0198(5)
C40_4 C 0.7598(7) 0.9018(7) 0.2587(7)
C41_4 C 0.8120(6) 0.8728(5) 0.1983(6)
C42_4 C 0.6329(5) 0.7746(5) 0.2698(5)
C46_8 C 0.4913(7) 0.3482(7) 0.0098(7)
C47_8 C 0.5517(6) 0.3772(5) 0.0620(6)
C53_4 C 0.7905(5) 0.9399(5) 0.2645(5)
H19_4 H 0.7322 0.8996 0.2775
H20_4 H 0.8203 0.8506 0.1745
C54_4 C 0.8400(7) 0.9106(7) 0.2071(7)
C55_4 C 0.5982(7) 0.7413(7) 0.2598(7)
C56_4 C 0.6272(5) 0.8017(6) 0.3120(6)
C61_8 C 0.4855(5) 0.3101(5) 0.0405(5)
H24_8 H 0.5755 0.3994 0.0703
C62_8 C 0.5429(7) 0.3394(7) 0.0900(7)
H27_4 H 0.9822 0.5275 0.1496
N18_4 N 0.83411(16) 0.94108(16) 0.24202(15)
H29_4 H 0.7814 0.9655 0.2842
H30_4 H 0.8661 0.9157 0.1866
C67_4 C 0.5601(5) 0.7355(5) 0.2905(5)
H31_4 H 0.6004 0.7225 0.2322
H32_4 H 0.6494 0.8255 0.3203
C68_4 C 0.5894(7) 0.7929(7) 0.3400(7)
N20_7 N 0.50798(15) 0.30892(16) 0.08411(16)
H37_8 H 0.4658 0.2845 0.0314
H38_8 H 0.5634 0.3343 0.1161
Cu3_4 Cu 0.8750 1.0000 0.2500
N22_3 N 0.55892(16) 0.75798(15) 0.33411(16)
H43_4 H 0.5345 0.7158 0.2814
H44_4 H 0.5843 0.8134 0.3661
Cu5_5 Cu 0.5000 0.2500 0.1250
Cu7_3 Cu 0.5000 0.7500 0.3750
Cu1_4 Cu 0.7500 0.6250 1.0000
C1_4 C 0.8101(5) 0.5405(5) 0.9855(5)
H1_4 H 0.7845 0.5314 0.9658
C2_4 C 0.8482(7) 0.5098(7) 0.9913(7)
H2_4 H 0.8504 0.4822 0.9725
N7_3 N 0.75798(15) 0.66589(16) 0.94108(16)
N8_4 N 0.7515(6) 0.7967(5) 0.8196(5)
C15_4 C 0.7355(5) 0.7095(5) 0.9399(5)
H9_4 H 0.7158 0.7186 0.9655
C16_4 C 0.7413(7) 0.7402(7) 0.9018(7)
H10_4 H 0.7225 0.7678 0.8996
C17_4 C 0.7746(5) 0.7302(5) 0.8671(5)
C18_4 C 0.8017(6) 0.6880(6) 0.8728(5)
H11_4 H 0.8255 0.6797 0.8506
C19_4 C 0.7929(7) 0.6600(7) 0.9106(7)
H12_4 H 0.8134 0.6339 0.9157
C20_4 C 0.7817(6) 0.7615(6) 0.8258(6)
C21_4 C 0.7615(6) 0.8258(6) 0.7817(6)
N9_4 N 0.8196(5) 0.7515(6) 0.7967(5)
N10_3 N 0.69108(16) 0.58411(16) 0.99202(15)
N11_8 N 0.5696(5) 0.4533(5) 0.9985(6)
C24_8 C 0.6171(5) 0.5198(5) 0.9754(5)
C25_8 C 0.6228(5) 0.5620(6) 0.9483(6)
H15_8 H 0.6006 0.5703 0.9245
C26_8 C 0.6606(7) 0.5900(7) 0.9571(7)
H16_8 H 0.6657 0.6161 0.9366
C27_8 C 0.5758(6) 0.4885(6) 0.9683(6)
C28_8 C 0.5317(6) 0.4242(6) 0.9885(6)
N12_8 N 0.5467(5) 0.4985(6) 0.9304(5)
C29_4 C 0.9754(5) 0.3829(5) 0.9802(5)
N15_4 N 0.7967(5) 0.8196(5) 0.7515(6)
C33_4 C 0.7302(5) 0.8671(5) 0.7746(5)
C34_4 C 0.8258(6) 0.7817(6) 0.7615(6)
N16_8 N 0.5015(6) 0.4304(5) 0.9533(5)
C36_8 C 0.5115(6) 0.4683(6) 0.9242(6)
C38_4 C 0.9483(6) 0.3772(5) 0.9380(6)
C43_4 C 0.7402(7) 0.9018(7) 0.7413(7)
C44_4 C 0.6880(6) 0.8728(5) 0.8017(6)
C45_4 C 0.8671(5) 0.7746(5) 0.7302(5)
C48_8 C 0.4802(5) 0.4754(5) 0.8829(5)
H18_4 H 0.9245 0.3994 0.9297
C50_4 C 0.9571(7) 0.3394(7) 0.9100(7)
C57_4 C 0.7095(5) 0.9399(5) 0.7355(5)
H21_4 H 0.7678 0.8996 0.7225
H22_4 H 0.6797 0.8506 0.8255
C58_4 C 0.6600(7) 0.9106(7) 0.7929(7)
C59_4 C 0.9018(7) 0.7413(7) 0.7402(7)
C60_4 C 0.8728(5) 0.8017(6) 0.6880(6)
H23_8 H 0.4725 0.3504 0.9822
C63_8 C 0.4902(7) 0.5087(7) 0.8482(7)
C64_8 C 0.4380(6) 0.4483(6) 0.8772(5)
N17_3 N 0.99202(15) 0.30892(16) 0.91589(16)
H26_4 H 0.9366 0.3343 0.8839
N19_4 N 0.66589(16) 0.94108(16) 0.75798(15)
H33_4 H 0.7186 0.9655 0.7158
H34_4 H 0.6339 0.9157 0.8134
C69_4 C 0.9399(5) 0.7355(5) 0.7095(5)
H35_4 H 0.8996 0.7225 0.7678
H36_4 H 0.8506 0.8255 0.6797
C70_4 C 0.9106(7) 0.7929(7) 0.6600(7)
C71_8 C 0.4595(5) 0.5145(5) 0.8101(5)
H39_8 H 0.5178 0.5275 0.8504
H40_8 H 0.4297 0.4245 0.8994
C72_8 C 0.4100(7) 0.4571(7) 0.8394(7)
Cu2_4 Cu 1.0000 0.2500 0.8750
Cu4_3 Cu 0.6250 1.0000 0.7500
N23_4 N 0.94108(16) 0.75798(15) 0.66589(16)
H45_4 H 0.9655 0.7158 0.7186
H46_4 H 0.9157 0.8134 0.6339
N24_7 N 0.41589(16) 0.49202(15) 0.80892(16)
H47_8 H 0.4686 0.5342 0.7845
H48_8 H 0.3839 0.4366 0.8343
N25_2 N 0.94108(16) 0.24202(15) 0.83411(16)
N28_7 N 0.58411(16) 0.99202(15) 0.69108(16)
Cu8_4 Cu 1.0000 0.7500 0.6250
Cu9_2 Cu 0.3750 0.5000 0.7500
H2_5 H 0.3504 0.0178 0.0275
N11_9 N 0.0696(5) 0.0467(5) 0.0015(6)
C27_9 C 0.0758(6) 0.0115(6) 0.0317(6)
C28_9 C 0.0317(6) 0.0758(6) 0.0115(6)
N12_9 N 0.0467(5) 0.0015(6) 0.0696(5)
C29_5 C 0.4754(5) 0.1171(5) 0.0198(5)
N16_9 N 0.0015(6) 0.0696(5) 0.0467(5)
C36_9 C 0.0115(6) 0.0317(6) 0.0758(6)
C37_5 C 0.5087(7) 0.1518(7) 0.0098(7)
C38_5 C 0.4483(6) 0.1228(5) 0.0620(6)
C49_5 C 0.5145(5) 0.1899(5) 0.0405(5)
H18_5 H 0.4245 0.1006 0.0703
C50_5 C 0.4571(7) 0.1606(7) 0.0900(7)
N17_4 N 0.49202(15) 0.19108(16) 0.08411(16)
H25_5 H 0.5342 0.2155 0.0314
H26_5 H 0.4366 0.1657 0.1161
N25_3 N 0.44108(16) 0.25798(15) 0.16589(16)
N26_3 N 0.55892(16) 0.24202(15) 0.16589(16)
N2_5 N 0.4304(5) 0.0467(5) 0.9985(6)
C6_5 C 0.4242(6) 0.0115(6) 0.9683(6)
C7_5 C 0.4683(6) 0.0758(6) 0.9885(6)
N3_5 N 0.4533(5) 0.0015(6) 0.9304(5)
H14_9 H 0.1496 0.0178 0.9725
N13_5 N 0.4985(6) 0.0696(5) 0.9533(5)
C30_5 C 0.4885(6) 0.0317(6) 0.9242(6)
C35_9 C 0.0246(5) 0.1171(5) 0.9802(5)
C39_5 C 0.5198(5) 0.0246(5) 0.8829(5)
C47_9 C 0.0517(6) 0.1228(5) 0.9380(6)
H17_5 H 0.5275 0.1496 0.9822
C52_5 C 0.5620(6) 0.0517(6) 0.8772(5)
H24_9 H 0.0755 0.1006 0.9297
C62_9 C 0.0429(7) 0.1606(7) 0.9100(7)
H28_5 H 0.5703 0.0755 0.8994
C66_5 C 0.5900(7) 0.0429(7) 0.8394(7)
H38_9 H 0.0634 0.1657 0.8839
H42_5 H 0.6161 0.0634 0.8343
Cu1_5 Cu 0.2500 0.8750 0.0000
C1_5 C 0.3101(5) 0.9595(5) 0.0145(5)
H1_5 H 0.2845 0.9686 0.0342
C2_5 C 0.3482(7) 0.9902(7) 0.0087(7)
N7_4 N 0.25798(15) 0.83411(16) 0.05892(16)
N8_5 N 0.2515(6) 0.7033(5) 0.1804(5)
C15_5 C 0.2355(5) 0.7905(5) 0.0601(5)
H9_5 H 0.2158 0.7814 0.0345
C16_5 C 0.2413(7) 0.7598(7) 0.0982(7)
H10_5 H 0.2225 0.7322 0.1004
C17_5 C 0.2746(5) 0.7698(5) 0.1329(5)
C18_5 C 0.3017(6) 0.8120(6) 0.1272(5)
H11_5 H 0.3255 0.8203 0.1494
C19_5 C 0.2929(7) 0.8400(7) 0.0894(7)
H12_5 H 0.3134 0.8661 0.0843
C20_5 C 0.2817(6) 0.7385(6) 0.1742(6)
C21_5 C 0.2615(6) 0.6742(6) 0.2183(6)
N9_5 N 0.3196(5) 0.7485(6) 0.2033(5)
N10_4 N 0.19108(16) 0.91589(16) 0.00798(15)
C24_9 C 0.1171(5) 0.9802(5) 0.0246(5)
C25_9 C 0.1228(5) 0.9380(6) 0.0517(6)
H15_9 H 0.1006 0.9297 0.0755
C26_9 C 0.1606(7) 0.9100(7) 0.0429(7)
H16_9 H 0.1657 0.8839 0.0634
N15_5 N 0.2967(5) 0.6804(5) 0.2485(6)
C33_5 C 0.2302(5) 0.6329(5) 0.2254(5)
C34_5 C 0.3258(6) 0.7183(6) 0.2385(6)
C43_5 C 0.2402(7) 0.5982(7) 0.2587(7)
C44_5 C 0.1880(6) 0.6272(5) 0.1983(6)
C45_5 C 0.3671(5) 0.7254(5) 0.2698(5)
C57_5 C 0.2095(5) 0.5601(5) 0.2645(5)
H21_5 H 0.2678 0.6004 0.2775
H22_5 H 0.1797 0.6494 0.1745
C58_5 C 0.1600(7) 0.5894(7) 0.2071(7)
C59_5 C 0.4018(7) 0.7587(7) 0.2598(7)
C60_5 C 0.3728(5) 0.6983(6) 0.3120(6)
N19_5 N 0.16589(16) 0.55892(16) 0.24202(15)
H33_5 H 0.2186 0.5345 0.2842
H34_5 H 0.1339 0.5843 0.1866
C69_5 C 0.4399(5) 0.7645(5) 0.2905(5)
H35_5 H 0.3996 0.7775 0.2322
H36_5 H 0.3506 0.6745 0.3203
C70_5 C 0.4106(7) 0.7071(7) 0.3400(7)
H39_9 H 0.0178 0.9725 0.1496
N23_5 N 0.44108(16) 0.74202(15) 0.33411(16)
H45_5 H 0.4655 0.7842 0.2814
H46_5 H 0.4157 0.6866 0.3661
N28_8 N 0.08411(16) 0.50798(15) 0.30892(16)
N29_3 N 0.16589(16) 0.44108(16) 0.25798(15)
Cu1_6 Cu 0.2500 0.8750 1.0000
N1_4 N 0.30892(16) 0.91589(16) 0.99202(15)
C3_5 C 0.3829(5) 0.9802(5) 0.9754(5)
C4_5 C 0.3772(5) 0.9380(6) 0.9483(6)
H3_5 H 0.3994 0.9297 0.9245
C5_5 C 0.3394(7) 0.9100(7) 0.9571(7)
H4_5 H 0.3343 0.8839 0.9366
N4_4 N 0.24202(15) 0.83411(16) 0.94108(16)
N5_5 N 0.2485(6) 0.7033(5) 0.8196(5)
C8_5 C 0.2645(5) 0.7905(5) 0.9399(5)
H5_5 H 0.2842 0.7814 0.9655
C9_5 C 0.2587(7) 0.7598(7) 0.9018(7)
H6_5 H 0.2775 0.7322 0.8996
C10_5 C 0.2254(5) 0.7698(5) 0.8671(5)
C11_5 C 0.1983(6) 0.8120(6) 0.8728(5)
H7_5 H 0.1745 0.8203 0.8506
C12_5 C 0.2071(7) 0.8400(7) 0.9106(7)
H8_5 H 0.1866 0.8661 0.9157
C13_5 C 0.2183(6) 0.7385(6) 0.8258(6)
C14_5 C 0.2385(6) 0.6742(6) 0.7817(6)
N6_5 N 0.1804(5) 0.7485(6) 0.7967(5)
C22_9 C 0.1899(5) 0.9595(5) 0.9855(5)
H13_9 H 0.2155 0.9686 0.9658
C23_9 C 0.1518(7) 0.9902(7) 0.9913(7)
N14_5 N 0.2033(5) 0.6804(5) 0.7515(6)
C31_5 C 0.2698(5) 0.6329(5) 0.7746(5)
C32_5 C 0.1742(6) 0.7183(6) 0.7615(6)
C40_5 C 0.2598(7) 0.5982(7) 0.7413(7)
C41_5 C 0.3120(6) 0.6272(5) 0.8017(6)
C42_5 C 0.1329(5) 0.7254(5) 0.7302(5)
C51_5 C 0.5098(7) 0.9913(7) 0.8482(7)
C53_5 C 0.2905(5) 0.5601(5) 0.7355(5)
H19_5 H 0.2322 0.6004 0.7225
H20_5 H 0.3203 0.6494 0.8255
C54_5 C 0.3400(7) 0.5894(7) 0.7929(7)
C55_5 C 0.0982(7) 0.7587(7) 0.7402(7)
C56_5 C 0.1272(5) 0.6983(6) 0.6880(6)
C65_5 C 0.5405(5) 0.9855(5) 0.8101(5)
H27_5 H 0.4822 0.9725 0.8504
N18_5 N 0.33411(16) 0.55892(16) 0.75798(15)
H29_5 H 0.2814 0.5345 0.7158
H30_5 H 0.3661 0.5843 0.8134
C67_5 C 0.0601(5) 0.7645(5) 0.7095(5)
H31_5 H 0.1004 0.7775 0.7678
H32_5 H 0.1494 0.6745 0.6797
C68_5 C 0.0894(7) 0.7071(7) 0.6600(7)
H41_5 H 0.5314 0.9658 0.7845
N22_4 N 0.05892(16) 0.74202(15) 0.66589(16)
H43_5 H 0.0345 0.7842 0.7186
H44_5 H 0.0843 0.6866 0.6339
C48_9 C 0.9802(5) 0.0246(5) 0.1171(5)
H23_9 H 0.9725 0.1496 0.0178
C64_9 C 0.9380(6) 0.0517(6) 0.1228(5)
H40_9 H 0.9297 0.0755 0.1006
C72_9 C 0.9100(7) 0.0429(7) 0.1606(7)
N24_8 N 0.91589(16) 0.00798(15) 0.19108(16)
H48_9 H 0.8839 0.0634 0.1657
C46_9 C 0.9913(7) 0.1518(7) 0.9902(7)
C61_9 C 0.9855(5) 0.1899(5) 0.9595(5)
H37_9 H 0.9658 0.2155 0.9686
C63_9 C 0.9902(7) 0.9913(7) 0.1518(7)
C71_9 C 0.9595(5) 0.9855(5) 0.1899(5)
H47_9 H 0.9686 0.9658 0.2155
Cu1_7 Cu 0.2500 0.1250 0.5000
N1_5 N 0.19108(16) 0.08411(16) 0.49202(15)
C1_6 C 0.1899(5) 0.0405(5) 0.5145(5)
H1_6 H 0.2155 0.0314 0.5342
C2_6 C 0.1518(7) 0.0098(7) 0.5087(7)
C3_6 C 0.1171(5) 0.0198(5) 0.4754(5)
C4_6 C 0.1228(5) 0.0620(6) 0.4483(6)
H3_6 H 0.1006 0.0703 0.4245
C5_6 C 0.1606(7) 0.0900(7) 0.4571(7)
H4_6 H 0.1657 0.1161 0.4366
N4_5 N 0.25798(15) 0.16589(16) 0.44108(16)
N5_6 N 0.2515(6) 0.2967(5) 0.3196(5)
C8_6 C 0.2355(5) 0.2095(5) 0.4399(5)
H5_6 H 0.2158 0.2186 0.4655
C9_6 C 0.2413(7) 0.2402(7) 0.4018(7)
H6_6 H 0.2225 0.2678 0.3996
C10_6 C 0.2746(5) 0.2302(5) 0.3671(5)
C11_6 C 0.3017(6) 0.1880(6) 0.3728(5)
H7_6 H 0.3255 0.1797 0.3506
C12_6 C 0.2929(7) 0.1600(7) 0.4106(7)
H8_6 H 0.3134 0.1339 0.4157
C13_6 C 0.2817(6) 0.2615(6) 0.3258(6)
C14_6 C 0.2615(6) 0.3258(6) 0.2817(6)
N6_6 N 0.3196(5) 0.2515(6) 0.2967(5)
N7_5 N 0.24202(15) 0.16589(16) 0.55892(16)
N8_6 N 0.2485(6) 0.2967(5) 0.6804(5)
C15_6 C 0.2645(5) 0.2095(5) 0.5601(5)
H9_6 H 0.2842 0.2186 0.5345
C16_6 C 0.2587(7) 0.2402(7) 0.5982(7)
H10_6 H 0.2775 0.2678 0.6004
C17_6 C 0.2254(5) 0.2302(5) 0.6329(5)
C18_6 C 0.1983(6) 0.1880(6) 0.6272(5)
H11_6 H 0.1745 0.1797 0.6494
C19_6 C 0.2071(7) 0.1600(7) 0.5894(7)
H12_6 H 0.1866 0.1339 0.5843
C20_6 C 0.2183(6) 0.2615(6) 0.6742(6)
C21_6 C 0.2385(6) 0.3258(6) 0.7183(6)
N9_6 N 0.1804(5) 0.2515(6) 0.7033(5)
N10_5 N 0.30892(16) 0.08411(16) 0.50798(15)
C22_10 C 0.3101(5) 0.0405(5) 0.4855(5)
H13_10 H 0.2845 0.0314 0.4658
C23_10 C 0.3482(7) 0.0098(7) 0.4913(7)
C24_10 C 0.3829(5) 0.0198(5) 0.5246(5)
C25_10 C 0.3772(5) 0.0620(6) 0.5517(6)
H15_10 H 0.3994 0.0703 0.5755
C26_10 C 0.3394(7) 0.0900(7) 0.5429(7)
H16_10 H 0.3343 0.1161 0.5634
N14_6 N 0.2967(5) 0.3196(5) 0.2515(6)
C31_6 C 0.2302(5) 0.3671(5) 0.2746(5)
C32_6 C 0.3258(6) 0.2817(6) 0.2615(6)
N15_6 N 0.2033(5) 0.3196(5) 0.7485(6)
C33_6 C 0.2698(5) 0.3671(5) 0.7254(5)
C34_6 C 0.1742(6) 0.2817(6) 0.7385(6)
C40_6 C 0.2402(7) 0.4018(7) 0.2413(7)
C41_6 C 0.1880(6) 0.3728(5) 0.3017(6)
C42_6 C 0.3671(5) 0.2746(5) 0.2302(5)
C43_6 C 0.2598(7) 0.4018(7) 0.7587(7)
C44_6 C 0.3120(6) 0.3728(5) 0.6983(6)
C45_6 C 0.1329(5) 0.2746(5) 0.7698(5)
C53_6 C 0.2095(5) 0.4399(5) 0.2355(5)
H19_6 H 0.2678 0.3996 0.2225
H20_6 H 0.1797 0.3506 0.3255
C54_6 C 0.1600(7) 0.4106(7) 0.2929(7)
C55_6 C 0.4018(7) 0.2413(7) 0.2402(7)
C56_6 C 0.3728(5) 0.3017(6) 0.1880(6)
C57_6 C 0.2905(5) 0.4399(5) 0.7645(5)
H21_6 H 0.2322 0.3996 0.7775
H22_6 H 0.3203 0.3506 0.6745
C58_6 C 0.3400(7) 0.4106(7) 0.7071(7)
C59_6 C 0.0982(7) 0.2413(7) 0.7598(7)
C60_6 C 0.1272(5) 0.3017(6) 0.8120(6)
C63_10 C 0.5098(7) 0.0087(7) 0.6518(7)
H27_6 H 0.0178 0.0275 0.3504
H29_6 H 0.2186 0.4655 0.2158
H30_6 H 0.1339 0.4157 0.3134
C67_6 C 0.4399(5) 0.2355(5) 0.2095(5)
H31_6 H 0.3996 0.2225 0.2678
H32_6 H 0.3506 0.3255 0.1797
C68_6 C 0.4106(7) 0.2929(7) 0.1600(7)
N19_6 N 0.33411(16) 0.44108(16) 0.74202(15)
H33_6 H 0.2814 0.4655 0.7842
H34_6 H 0.3661 0.4157 0.6866
C69_6 C 0.0601(5) 0.2355(5) 0.7905(5)
H35_6 H 0.1004 0.2225 0.7322
H36_6 H 0.1494 0.3255 0.8203
C70_6 C 0.0894(7) 0.2929(7) 0.8400(7)
C71_10 C 0.5405(5) 0.0145(5) 0.6899(5)
H39_10 H 0.4822 0.0275 0.6496
H43_6 H 0.4655 0.2158 0.2186
H44_6 H 0.4157 0.3134 0.1339
H45_6 H 0.0345 0.2158 0.7814
H46_6 H 0.0843 0.3134 0.8661
H47_10 H 0.5314 0.0342 0.7155
N30_5 N 0.41589(16) 0.50798(15) 0.69108(16)
N2_6 N 0.0696(5) 0.9533(5) 0.4985(6)
H2_6 H 0.1496 0.9822 0.5275
C6_6 C 0.0758(6) 0.9885(6) 0.4683(6)
C7_6 C 0.0317(6) 0.9242(6) 0.4885(6)
N3_6 N 0.0467(5) 0.9985(6) 0.4304(5)
N11_10 N 0.4304(5) 0.9533(5) 0.5015(6)
H14_10 H 0.3504 0.9822 0.4725
C27_10 C 0.4242(6) 0.9885(6) 0.5317(6)
C28_10 C 0.4683(6) 0.9242(6) 0.5115(6)
N12_10 N 0.4533(5) 0.9985(6) 0.5696(5)
N13_6 N 0.0015(6) 0.9304(5) 0.4533(5)
C29_6 C 0.0246(5) 0.8829(5) 0.5198(5)
C30_6 C 0.0115(6) 0.9683(6) 0.4242(6)
N16_10 N 0.4985(6) 0.9304(5) 0.5467(5)
C35_10 C 0.4754(5) 0.8829(5) 0.4802(5)
C36_10 C 0.4885(6) 0.9683(6) 0.5758(6)
C38_6 C 0.0517(6) 0.8772(5) 0.5620(6)
C46_10 C 0.5087(7) 0.8482(7) 0.4902(7)
C47_10 C 0.4483(6) 0.8772(5) 0.4380(6)
C48_10 C 0.5198(5) 0.9754(5) 0.6171(5)
H18_6 H 0.0755 0.8994 0.5703
C50_6 C 0.0429(7) 0.8394(7) 0.5900(7)
C61_10 C 0.5145(5) 0.8101(5) 0.4595(5)
H23_10 H 0.5275 0.8504 0.5178
H24_10 H 0.4245 0.8994 0.4297
C62_10 C 0.4571(7) 0.8394(7) 0.4100(7)
C64_10 C 0.5620(6) 0.9483(6) 0.6228(5)
N17_5 N 0.00798(15) 0.80892(16) 0.58411(16)
H26_6 H 0.0634 0.8343 0.6161
N20_8 N 0.49202(15) 0.80892(16) 0.41589(16)
H37_10 H 0.5342 0.7845 0.4686
H38_10 H 0.4366 0.8343 0.3839
H40_10 H 0.5703 0.9245 0.6006
C72_10 C 0.5900(7) 0.9571(7) 0.6606(7)
H48_10 H 0.6161 0.9366 0.6657
C51_6 C 0.9902(7) 0.0087(7) 0.3482(7)
C65_6 C 0.9595(5) 0.0145(5) 0.3101(5)
H41_6 H 0.9686 0.0342 0.2845
C37_6 C 0.9913(7) 0.8482(7) 0.5098(7)
C39_6 C 0.9802(5) 0.9754(5) 0.3829(5)
C49_6 C 0.9855(5) 0.8101(5) 0.5405(5)
H17_6 H 0.9725 0.8504 0.4822
C52_6 C 0.9380(6) 0.9483(6) 0.3772(5)
H25_6 H 0.9658 0.7845 0.5314
H28_6 H 0.9297 0.9245 0.3994
C66_6 C 0.9100(7) 0.9571(7) 0.3394(7)
N21_4 N 0.91589(16) 0.99202(15) 0.30892(16)
H42_6 H 0.8839 0.9366 0.3343
N27_3 N 0.99202(15) 0.69108(16) 0.58411(16)
C22_11 C 0.0405(5) 0.4855(5) 0.3101(5)
H13_11 H 0.0314 0.4658 0.2845
C23_11 C 0.0098(7) 0.4913(7) 0.3482(7)
C24_11 C 0.0198(5) 0.5246(5) 0.3829(5)
C25_11 C 0.0620(6) 0.5517(6) 0.3772(5)
H15_11 H 0.0703 0.5755 0.3994
C26_11 C 0.0900(7) 0.5429(7) 0.3394(7)
H16_11 H 0.1161 0.5634 0.3343
C63_11 C 0.0087(7) 0.6518(7) 0.5098(7)
C71_11 C 0.0145(5) 0.6899(5) 0.5405(5)
H39_11 H 0.0275 0.6496 0.4822
H47_11 H 0.0342 0.7155 0.5314
N30_6 N 0.50798(15) 0.69108(16) 0.41589(16)
N11_11 N 0.9533(5) 0.5015(6) 0.4304(5)
H14_11 H 0.9822 0.4725 0.3504
C27_11 C 0.9885(6) 0.5317(6) 0.4242(6)
C28_11 C 0.9242(6) 0.5115(6) 0.4683(6)
N12_11 N 0.9985(6) 0.5696(5) 0.4533(5)
N16_11 N 0.9304(5) 0.5467(5) 0.4985(6)
C35_11 C 0.8829(5) 0.4802(5) 0.4754(5)
C36_11 C 0.9683(6) 0.5758(6) 0.4885(6)
C46_11 C 0.8482(7) 0.4902(7) 0.5087(7)
C47_11 C 0.8772(5) 0.4380(6) 0.4483(6)
C48_11 C 0.9754(5) 0.6171(5) 0.5198(5)
C61_11 C 0.8101(5) 0.4595(5) 0.5145(5)
H23_11 H 0.8504 0.5178 0.5275
H24_11 H 0.8994 0.4297 0.4245
C62_11 C 0.8394(7) 0.4100(7) 0.4571(7)
C64_11 C 0.9483(6) 0.6228(5) 0.5620(6)
N20_9 N 0.80892(16) 0.41589(16) 0.49202(15)
H37_11 H 0.7845 0.4686 0.5342
H38_11 H 0.8343 0.3839 0.4366
H40_11 H 0.9245 0.6006 0.5703
C72_11 C 0.9571(7) 0.6606(7) 0.5900(7)
Cu5_6 Cu 0.7500 0.3750 0.5000
H48_11 H 0.9366 0.6657 0.6161
N7_6 N 0.83411(16) 0.05892(16) 0.25798(15)
N8_7 N 0.7033(5) 0.1804(5) 0.2515(6)
C15_7 C 0.7905(5) 0.0601(5) 0.2355(5)
H9_7 H 0.7814 0.0345 0.2158
C16_7 C 0.7598(7) 0.0982(7) 0.2413(7)
H10_7 H 0.7322 0.1004 0.2225
C17_7 C 0.7698(5) 0.1329(5) 0.2746(5)
C18_7 C 0.8120(6) 0.1272(5) 0.3017(6)
H11_7 H 0.8203 0.1494 0.3255
C19_7 C 0.8400(7) 0.0894(7) 0.2929(7)
H12_7 H 0.8661 0.0843 0.3134
C20_7 C 0.7385(6) 0.1742(6) 0.2817(6)
C21_7 C 0.6742(6) 0.2183(6) 0.2615(6)
N9_7 N 0.7485(6) 0.2033(5) 0.3196(5)
N15_7 N 0.6804(5) 0.2485(6) 0.2967(5)
C33_7 C 0.6329(5) 0.2254(5) 0.2302(5)
C34_7 C 0.7183(6) 0.2385(6) 0.3258(6)
C43_7 C 0.5982(7) 0.2587(7) 0.2402(7)
C44_7 C 0.6272(5) 0.1983(6) 0.1880(6)
C45_7 C 0.7254(5) 0.2698(5) 0.3671(5)
C57_7 C 0.5601(5) 0.2645(5) 0.2095(5)
H21_7 H 0.6004 0.2775 0.2678
H22_7 H 0.6494 0.1745 0.1797
C58_7 C 0.5894(7) 0.2071(7) 0.1600(7)
C59_7 C 0.7587(7) 0.2598(7) 0.4018(7)
C60_7 C 0.6983(6) 0.3120(6) 0.3728(5)
H33_7 H 0.5345 0.2842 0.2186
H34_7 H 0.5843 0.1866 0.1339
C69_7 C 0.7645(5) 0.2905(5) 0.4399(5)
H35_7 H 0.7775 0.2322 0.3996
H36_7 H 0.6745 0.3203 0.3506
C70_7 C 0.7071(7) 0.3400(7) 0.4106(7)
N23_6 N 0.74202(15) 0.33411(16) 0.44108(16)
H45_7 H 0.7842 0.2814 0.4655
H46_7 H 0.6866 0.3661 0.4157
N5_7 N 0.7967(5) 0.1804(5) 0.7485(6)
C8_7 C 0.7095(5) 0.0601(5) 0.7645(5)
H5_7 H 0.7186 0.0345 0.7842
C9_7 C 0.7402(7) 0.0982(7) 0.7587(7)
H6_7 H 0.7678 0.1004 0.7775
C10_7 C 0.7302(5) 0.1329(5) 0.7254(5)
C11_7 C 0.6880(6) 0.1272(5) 0.6983(6)
H7_7 H 0.6797 0.1494 0.6745
C12_7 C 0.6600(7) 0.0894(7) 0.7071(7)
H8_7 H 0.6339 0.0843 0.6866
C13_7 C 0.7615(6) 0.1742(6) 0.7183(6)
C14_7 C 0.8258(6) 0.2183(6) 0.7385(6)
N6_7 N 0.7515(6) 0.2033(5) 0.6804(5)
N14_7 N 0.8196(5) 0.2485(6) 0.7033(5)
C31_7 C 0.8671(5) 0.2254(5) 0.7698(5)
C32_7 C 0.7817(6) 0.2385(6) 0.6742(6)
C40_7 C 0.9018(7) 0.2587(7) 0.7598(7)
C41_7 C 0.8728(5) 0.1983(6) 0.8120(6)
C42_7 C 0.7746(5) 0.2698(5) 0.6329(5)
C53_7 C 0.9399(5) 0.2645(5) 0.7905(5)
H19_7 H 0.8996 0.2775 0.7322
H20_7 H 0.8506 0.1745 0.8203
C54_7 C 0.9106(7) 0.2071(7) 0.8400(7)
C55_7 C 0.7413(7) 0.2598(7) 0.5982(7)
C56_7 C 0.8017(6) 0.3120(6) 0.6272(5)
H29_7 H 0.9655 0.2842 0.7814
H30_7 H 0.9157 0.1866 0.8661
C67_7 C 0.7355(5) 0.2905(5) 0.5601(5)
H31_7 H 0.7225 0.2322 0.6004
H32_7 H 0.8255 0.3203 0.6494
C68_7 C 0.7929(7) 0.3400(7) 0.5894(7)
N22_5 N 0.75798(15) 0.33411(16) 0.55892(16)
H43_7 H 0.7158 0.2814 0.5345
H44_7 H 0.8134 0.3661 0.5843
N30_7 N 0.69108(16) 0.41589(16) 0.50798(15)
N11_12 N 0.5696(5) 0.5467(5) 0.5015(6)
C22_12 C 0.6899(5) 0.4595(5) 0.4855(5)
H13_12 H 0.7155 0.4686 0.4658
C23_12 C 0.6518(7) 0.4902(7) 0.4913(7)
H14_12 H 0.6496 0.5178 0.4725
C24_12 C 0.6171(5) 0.4802(5) 0.5246(5)
C25_12 C 0.6228(5) 0.4380(6) 0.5517(6)
H15_12 H 0.6006 0.4297 0.5755
C26_12 C 0.6606(7) 0.4100(7) 0.5429(7)
H16_12 H 0.6657 0.3839 0.5634
C27_12 C 0.5758(6) 0.5115(6) 0.5317(6)
C28_12 C 0.5317(6) 0.5758(6) 0.5115(6)
N12_12 N 0.5467(5) 0.5015(6) 0.5696(5)
N16_12 N 0.5015(6) 0.5696(5) 0.5467(5)
C35_12 C 0.5246(5) 0.6171(5) 0.4802(5)
C36_12 C 0.5115(6) 0.5317(6) 0.5758(6)
C46_12 C 0.4913(7) 0.6518(7) 0.4902(7)
C47_12 C 0.5517(6) 0.6228(5) 0.4380(6)
C48_12 C 0.4802(5) 0.5246(5) 0.6171(5)
C61_12 C 0.4855(5) 0.6899(5) 0.4595(5)
H23_12 H 0.4725 0.6496 0.5178
H24_12 H 0.5755 0.6006 0.4297
C62_12 C 0.5429(7) 0.6606(7) 0.4100(7)
C63_12 C 0.4902(7) 0.4913(7) 0.6518(7)
C64_12 C 0.4380(6) 0.5517(6) 0.6228(5)
H37_12 H 0.4658 0.7155 0.4686
H38_12 H 0.5634 0.6657 0.3839
C71_12 C 0.4595(5) 0.4855(5) 0.6899(5)
H39_12 H 0.5178 0.4725 0.6496
H40_12 H 0.4297 0.5755 0.6006
C72_12 C 0.4100(7) 0.5429(7) 0.6606(7)
H47_12 H 0.4686 0.4658 0.7155
H48_12 H 0.3839 0.5634 0.6657
loop_
_geom_bond_atom_site_label_1
_geom_bond_atom_site_label_2
_geom_bond_site_symmetry_1
_geom_bond_site_symmetry_2
B1 F1 1_555 1_555
F3 B1 1_555 1_555
F4 B1 1_555 1_555
B1_2 F1_2 1_555 1_555
F3_2 B1_2 1_555 1_555
F4_2 B1_2 1_555 1_555
B1_3 F1_3 1_555 1_555
F3_3 B1_3 1_555 1_555
F4_3 B1_3 1_555 1_555
B1_4 F1_4 1_555 1_555
F2_4 B1_4 1_555 1_555
F3_4 B1_4 1_555 1_555
F4_4 B1_4 1_555 1_555
B1_5 F1_5 1_555 1_555
F2_5 B1_5 1_555 1_555
F3_5 B1_5 1_555 1_555
B1_6 F1_6 1_555 1_555
F2_6 B1_6 1_555 1_555
F3_6 B1_6 1_555 1_555
B1_7 F1_7 1_555 1_555
F2_7 B1_7 1_555 1_555
F3_7 B1_7 1_555 1_555
B1_8 F1_8 1_555 1_555
F2_8 B1_8 1_555 1_555
F3_8 B1_8 1_555 1_555
B1_9 F1_9 1_555 1_555
F2_9 B1_9 1_555 1_555
F3_9 B1_9 1_555 1_555
F4_9 B1_9 1_555 1_555
B1_10 F1_10 1_555 1_555
F2_10 B1_10 1_555 1_555
F3_10 B1_10 1_555 1_555
B1_11 F1_11 1_555 1_555
F2_11 B1_11 1_555 1_555
F3_11 B1_11 1_555 1_555
B1_12 F1_12 1_555 1_555
F2_12 B1_12 1_555 1_555
F3_12 B1_12 1_555 1_555
F4_12 B1_12 1_555 1_555
B1_13 F1_13 1_555 1_555
F2_13 B1_13 1_555 1_555
F3_13 B1_13 1_555 1_555
B1_14 F1_14 1_555 1_555
F2_14 B1_14 1_555 1_555
F3_14 B1_14 1_555 1_555
F4_14 B1_14 1_555 1_555
B1_15 F1_15 1_555 1_555
F2_15 B1_15 1_555 1_555
F3_15 B1_15 1_555 1_555
F4_15 B1_15 1_555 1_555
B1_16 F1_16 1_555 1_555
F2_16 B1_16 1_555 1_555
F3_16 B1_16 1_555 1_555
F4_16 B1_16 1_555 1_555
B1_17 F1_17 1_555 1_555
F2_17 B1_17 1_555 1_555
F3_17 B1_17 1_555 1_555
F4_17 B1_17 1_555 1_555
B1_18 F1_18 1_555 1_555
F2_18 B1_18 1_555 1_555
F3_18 B1_18 1_555 1_555
B1_19 F1_19 1_555 1_555
F2_19 B1_19 1_555 1_555
F3_19 B1_19 1_555 1_555
F4_19 B1_19 1_555 1_555
B1_20 F1_20 1_555 1_555
F2_20 B1_20 1_555 1_555
F3_20 B1_20 1_555 1_555
F4_20 B1_20 1_555 1_555
B1_21 F1_21 1_555 1_555
F2_21 B1_21 1_555 1_555
F3_21 B1_21 1_555 1_555
B1_22 F1_22 1_555 1_555
F3_22 B1_22 1_555 1_555
F4_22 B1_22 1_555 1_555
B1_23 F1_23 1_555 1_555
F2_23 B1_23 1_555 1_555
F3_23 B1_23 1_555 1_555
F4_23 B1_23 1_555 1_555
B1_24 F1_24 1_555 1_555
F2_24 B1_24 1_555 1_555
F3_24 B1_24 1_555 1_555
F4_24 B1_24 1_555 1_555
B1_25 F1_25 1_555 1_555
F3_25 B1_25 1_555 1_555
F4_25 B1_25 1_555 1_555
B1_26 F1_26 1_555 1_555
F2_26 B1_26 1_555 1_555
F3_26 B1_26 1_555 1_555
F4_26 B1_26 1_555 1_555
B1_27 F1_27 1_555 1_555
F2_27 B1_27 1_555 1_555
F3_27 B1_27 1_555 1_555
F4_27 B1_27 1_555 1_555
B1_28 F1_28 1_555 1_555
F3_28 B1_28 1_555 1_555
F4_28 B1_28 1_555 1_555
B1_29 F1_29 1_555 1_555
F2_29 B1_29 1_555 1_555
F3_29 B1_29 1_555 1_555
F4_29 B1_29 1_555 1_555
B1_30 F1_30 1_555 1_555
F2_30 B1_30 1_555 1_555
F3_30 B1_30 1_555 1_555
F4_30 B1_30 1_555 1_555
B1_31 F1_31 1_555 1_555
F2_31 B1_31 1_555 1_555
F3_31 B1_31 1_555 1_555
F4_31 B1_31 1_555 1_555
B1_32 F1_32 1_555 1_555
F2_32 B1_32 1_555 1_555
F3_32 B1_32 1_555 1_555
F4_32 B1_32 1_555 1_555
B1_33 F1_33 1_555 1_555
F2_33 B1_33 1_555 1_555
F3_33 B1_33 1_555 1_555
F4_33 B1_33 1_555 1_555
B1_34 F1_34 1_555 1_555
F3_34 B1_34 1_555 1_555
F4_34 B1_34 1_555 1_555
B1_35 F1_35 1_555 1_555
F3_35 B1_35 1_555 1_555
F4_35 B1_35 1_555 1_555
B1_36 F1_36 1_555 1_555
F3_36 B1_36 1_555 1_555
F4_36 B1_36 1_555 1_555
B1_37 F1_37 1_555 1_555
F3_37 B1_37 1_555 1_555
F4_37 B1_37 1_555 1_555
B1_38 F1_38 1_555 1_555
F3_38 B1_38 1_555 1_555
F4_38 B1_38 1_555 1_555
B1_39 F1_39 1_555 1_555
F3_39 B1_39 1_555 1_555
F4_39 B1_39 1_555 1_555
B1_40 F1_40 1_555 1_555
F3_40 B1_40 1_555 1_555
F4_40 B1_40 1_555 1_555
B1_41 F1_41 1_555 1_555
F3_41 B1_41 1_555 1_555
F4_41 B1_41 1_555 1_555
B1_42 F1_42 1_555 1_555
F3_42 B1_42 1_555 1_555
F4_42 B1_42 1_555 1_555
B1_43 F1_43 1_555 1_555
F2_43 B1_43 1_555 1_555
F3_43 B1_43 1_555 1_555
F4_43 B1_43 1_555 1_555
B1_44 F1_44 1_555 1_555
F2_44 B1_44 1_555 1_555
F3_44 B1_44 1_555 1_555
F4_44 B1_44 1_555 1_555
B1_45 F1_45 1_555 1_555
F2_45 B1_45 1_555 1_555
F3_45 B1_45 1_555 1_555
F4_45 B1_45 1_555 1_555
B1_46 F1_46 1_555 1_555
F2_46 B1_46 1_555 1_555
F3_46 B1_46 1_555 1_555
F4_46 B1_46 1_555 1_555
B1_47 F1_47 1_555 1_555
F2_47 B1_47 1_555 1_555
F3_47 B1_47 1_555 1_555
F4_47 B1_47 1_555 1_555
B1_48 F1_48 1_555 1_555
F2_48 B1_48 1_555 1_555
F3_48 B1_48 1_555 1_555
F4_48 B1_48 1_555 1_555
Cu1 N1 1_555 1_555
N1 C1 1_555 1_555
N2 C6 1_555 1_555
C1 H1 1_555 1_555
C2 C1 1_555 1_555
H2 C2 1_555 1_555
C3 C2 1_555 1_555
C4 C3 1_555 1_555
H3 C4 1_555 1_555
C5 N1 1_555 1_555
H4 C5 1_555 1_555
C6 C3 1_555 1_555
C7 N2 1_555 1_555
N3 C6 1_555 1_555
H5 C8 1_555 1_555
C9 C8 1_555 1_555
H6 C9 1_555 1_555
N7 Cu1 1_555 1_555
N8 C20 1_555 1_555
C18 C17 1_555 1_555
H11 C18 1_555 1_555
C19 N7 1_555 1_555
H12 C19 1_555 1_555
C20 C17 1_555 1_555
C21 N8 1_555 1_555
N9 C20 1_555 1_555
N13 C7 1_555 1_555
C29 C7 1_555 1_555
C30 N3 1_555 1_555
N15 C21 1_555 1_555
C34 N9 1_555 1_555
C37 C29 1_555 1_555
C38 C29 1_555 1_555
C39 C30 1_555 1_555
C41 C31 1_555 1_555
C45 C34 1_555 1_555
C49 C37 1_555 1_555
H17 C37 1_555 1_555
H18 C38 1_555 1_555
C50 C38 1_555 1_555
C51 C39 1_555 1_555
C52 C39 1_555 1_555
H20 C41 1_555 1_555
C54 C41 1_555 1_555
C59 C45 1_555 1_555
C60 C45 1_555 1_555
N17 C49 1_555 1_555
H25 C49 1_555 1_555
H26 C50 1_555 1_555
C65 C51 1_555 1_555
H27 C51 1_555 1_555
H28 C52 1_555 1_555
C66 C52 1_555 1_555
H30 C54 1_555 1_555
C69 C59 1_555 1_555
H35 C59 1_555 1_555
H36 C60 1_555 1_555
C70 C60 1_555 1_555
Cu2 N17 1_555 1_555
N21 C65 1_555 1_555
H41 C65 1_555 1_555
H42 C66 1_555 1_555
Cu3 N18 1_555 1_555
N23 C69 1_555 1_555
H45 C69 1_555 1_555
H46 C70 1_555 1_555
N26 Cu2 1_555 1_555
Cu6 N21 1_555 1_555
Cu8 N23 1_555 1_555
C4 C5 1_555 1_555
C18 C19 1_555 1_555
N13 C30 1_555 1_555
N15 C34 1_555 1_555
C50 N17 1_555 1_555
C54 N18 1_555 1_555
C66 N21 1_555 1_555
C70 N23 1_555 1_555
C53 C40 1_555 1_555
H29 C53 1_555 1_555
N4 Cu1_2 1_555 1_555
N5 C13 1_555 1_555
C11 C10 1_555 1_555
H7 C11 1_555 1_555
C12 N4 1_555 1_555
H8 C12 1_555 1_555
C13 C10 1_555 1_555
C14 N5 1_555 1_555
N6 C13 1_555 1_555
H9 C15 1_555 1_555
C16 C15 1_555 1_555
H10 C16 1_555 1_555
N10 Cu1_2 1_555 1_555
N11 C27 1_555 1_555
C22 N10 1_555 1_555
H13 C22 1_555 1_555
C23 C22 1_555 1_555
H14 C23 1_555 1_555
C24 C23 1_555 1_555
C25 C24 1_555 1_555
H15 C25 1_555 1_555
C26 N10 1_555 1_555
H16 C26 1_555 1_555
C27 C24 1_555 1_555
C28 N11 1_555 1_555
N12 C27 1_555 1_555
N14 C14 1_555 1_555
C32 N6 1_555 1_555
N16 C28 1_555 1_555
C35 C28 1_555 1_555
C36 N12 1_555 1_555
C43 C33 1_555 1_555
C44 C33 1_555 1_555
C46 C35 1_555 1_555
C47 C35 1_555 1_555
C48 C36 1_555 1_555
C57 C43 1_555 1_555
H22 C44 1_555 1_555
C58 C44 1_555 1_555
C61 C46 1_555 1_555
H23 C46 1_555 1_555
H24 C47 1_555 1_555
C62 C47 1_555 1_555
C63 C48 1_555 1_555
C64 C48 1_555 1_555
N19 C57 1_555 1_555
H33 C57 1_555 1_555
H34 C58 1_555 1_555
N20 C61 1_555 1_555
H37 C61 1_555 1_555
H38 C62 1_555 1_555
C71 C63 1_555 1_555
H39 C63 1_555 1_555
H40 C64 1_555 1_555
C72 C64 1_555 1_555
Cu4 N19 1_555 1_555
Cu5 N20 1_555 1_555
N24 C71 1_555 1_555
H47 C71 1_555 1_555
H48 C72 1_555 1_555
N28 Cu4 1_555 1_555
N29 Cu4 1_555 1_555
N30 Cu4 1_555 1_555
Cu9 N24 1_555 1_555
C11 C12 1_555 1_555
C25 C26 1_555 1_555
N14 C32 1_555 1_555
N16 C36 1_555 1_555
C58 N19 1_555 1_555
C62 N20 1_555 1_555
C72 N24 1_555 1_555
C55 C42 1_555 1_555
C56 C42 1_555 1_555
C67 C55 1_555 1_555
H32 C56 1_555 1_555
C68 C56 1_555 1_555
N22 C67 1_555 1_555
H43 C67 1_555 1_555
H44 C68 1_555 1_555
Cu7 N22 1_555 1_555
C68 N22 1_555 1_555
N25 Cu2_2 1_555 1_555
N27 Cu2_2 1_555 1_555
H5_2 C8_2 1_555 1_555
C9_2 C8_2 1_555 1_555
H6_2 C9_2 1_555 1_555
N7_2 Cu6 1_555 1_555
N8_2 C20_2 1_555 1_555
C18_2 C17_2 1_555 1_555
H11_2 C18_2 1_555 1_555
C19_2 N7_2 1_555 1_555
H12_2 C19_2 1_555 1_555
C20_2 C17_2 1_555 1_555
C21_2 N8_2 1_555 1_555
N9_2 C20_2 1_555 1_555
N15_2 C21_2 1_555 1_555
C34_2 N9_2 1_555 1_555
C41_2 C31_2 1_555 1_555
C45_2 C34_2 1_555 1_555
H20_2 C41_2 1_555 1_555
C54_2 C41_2 1_555 1_555
C59_2 C45_2 1_555 1_555
C60_2 C45_2 1_555 1_555
H30_2 C54_2 1_555 1_555
C69_2 C59_2 1_555 1_555
H35_2 C59_2 1_555 1_555
H36_2 C60_2 1_555 1_555
C70_2 C60_2 1_555 1_555
Cu5 N18_2 1_555 1_555
N23_2 C69_2 1_555 1_555
H45_2 C69_2 1_555 1_555
H46_2 C70_2 1_555 1_555
Cu8_2 N23_2 1_555 1_555
C18_2 C19_2 1_555 1_555
N15_2 C34_2 1_555 1_555
C54_2 N18_2 1_555 1_555
C70_2 N23_2 1_555 1_555
N4_2 Cu6_2 1_555 1_555
N5_2 C13_2 1_555 1_555
C11_2 C10_2 1_555 1_555
H7_2 C11_2 1_555 1_555
C12_2 N4_2 1_555 1_555
H8_2 C12_2 1_555 1_555
C13_2 C10_2 1_555 1_555
C14_2 N5_2 1_555 1_555
N6_2 C13_2 1_555 1_555
H9_2 C15_2 1_555 1_555
C16_2 C15_2 1_555 1_555
H10_2 C16_2 1_555 1_555
N10_2 Cu6_2 1_555 1_555
N11_2 C27_2 1_555 1_555
C22_2 N10_2 1_555 1_555
H13_2 C22_2 1_555 1_555
C23_2 C22_2 1_555 1_555
H14_2 C23_2 1_555 1_555
C24_2 C23_2 1_555 1_555
C25_2 C24_2 1_555 1_555
H15_2 C25_2 1_555 1_555
C26_2 N10_2 1_555 1_555
H16_2 C26_2 1_555 1_555
C27_2 C24_2 1_555 1_555
C28_2 N11_2 1_555 1_555
N12_2 C27_2 1_555 1_555
N14_2 C14_2 1_555 1_555
C32_2 N6_2 1_555 1_555
N16_2 C28_2 1_555 1_555
C35_2 C28_2 1_555 1_555
C36_2 N12_2 1_555 1_555
C43_2 C33_2 1_555 1_555
C44_2 C33_2 1_555 1_555
C46_2 C35_2 1_555 1_555
C47_2 C35_2 1_555 1_555
C48_2 C36_2 1_555 1_555
C57_2 C43_2 1_555 1_555
H22_2 C44_2 1_555 1_555
C58_2 C44_2 1_555 1_555
C61_2 C46_2 1_555 1_555
H23_2 C46_2 1_555 1_555
H24_2 C47_2 1_555 1_555
C62_2 C47_2 1_555 1_555
C63_2 C48_2 1_555 1_555
C64_2 C48_2 1_555 1_555
N19_2 C57_2 1_555 1_555
H33_2 C57_2 1_555 1_555
H34_2 C58_2 1_555 1_555
N20_2 C61_2 1_555 1_555
H37_2 C61_2 1_555 1_555
H38_2 C62_2 1_555 1_555
C71_2 C63_2 1_555 1_555
H39_2 C63_2 1_555 1_555
H40_2 C64_2 1_555 1_555
C72_2 C64_2 1_555 1_555
Cu7 N19_2 1_555 1_555
Cu5_3 N20_2 1_555 1_555
N24_2 C71_2 1_555 1_555
H47_2 C71_2 1_555 1_555
H48_2 C72_2 1_555 1_555
N28_2 Cu7 1_555 1_555
N30_2 Cu7 1_555 1_555
Cu8 N24_2 1_555 1_555
C11_2 C12_2 1_555 1_555
C25_2 C26_2 1_555 1_555
N14_2 C32_2 1_555 1_555
N16_2 C36_2 1_555 1_555
C58_2 N19_2 1_555 1_555
C62_2 N20_2 1_555 1_555
C72_2 N24_2 1_555 1_555
C53_2 C40_2 1_555 1_555
H29_2 C53_2 1_555 1_555
C55_2 C42_2 1_555 1_555
C56_2 C42_2 1_555 1_555
C67_2 C55_2 1_555 1_555
H32_2 C56_2 1_555 1_555
C68_2 C56_2 1_555 1_555
N22_2 C67_2 1_555 1_555
H43_2 C67_2 1_555 1_555
H44_2 C68_2 1_555 1_555
Cu7_2 N22_2 1_555 1_555
C68_2 N22_2 1_555 1_555
H5_3 C8_3 1_555 1_555
C9_3 C8_3 1_555 1_555
H6_3 C9_3 1_555 1_555
N8_3 C20_3 1_555 1_555
C18_3 C17_3 1_555 1_555
H11_3 C18_3 1_555 1_555
C19_3 N26 1_555 1_555
H12_3 C19_3 1_555 1_555
C20_3 C17_3 1_555 1_555
C21_3 N8_3 1_555 1_555
N9_3 C20_3 1_555 1_555
N15_3 C21_3 1_555 1_555
C34_3 N9_3 1_555 1_555
C41_3 C31_3 1_555 1_555
C45_3 C34_3 1_555 1_555
H20_3 C41_3 1_555 1_555
C54_3 C41_3 1_555 1_555
C59_3 C45_3 1_555 1_555
C60_3 C45_3 1_555 1_555
H30_3 C54_3 1_555 1_555
C69_3 C59_3 1_555 1_555
H35_3 C59_3 1_555 1_555
H36_3 C60_3 1_555 1_555
C70_3 C60_3 1_555 1_555
Cu5_3 N18_3 1_555 1_555
N23_3 C69_3 1_555 1_555
H45_3 C69_3 1_555 1_555
H46_3 C70_3 1_555 1_555
Cu9 N23_3 1_555 1_555
C18_3 C19_3 1_555 1_555
N15_3 C34_3 1_555 1_555
C54_3 N18_3 1_555 1_555
C70_3 N23_3 1_555 1_555
C53_3 C40_3 1_555 1_555
H29_3 C53_3 1_555 1_555
N5_3 C13_3 1_555 1_555
C11_3 C10_3 1_555 1_555
H7_3 C11_3 1_555 1_555
C12_3 N25 1_555 1_555
H8_3 C12_3 1_555 1_555
C13_3 C10_3 1_555 1_555
C14_3 N5_3 1_555 1_555
N6_3 C13_3 1_555 1_555
H9_3 C15_3 1_555 1_555
C16_3 C15_3 1_555 1_555
H10_3 C16_3 1_555 1_555
N11_3 C27_3 1_555 1_555
C22_3 N27 1_555 1_555
H13_3 C22_3 1_555 1_555
C23_3 C22_3 1_555 1_555
H14_3 C23_3 1_555 1_555
C24_3 C23_3 1_555 1_555
C25_3 C24_3 1_555 1_555
H15_3 C25_3 1_555 1_555
C26_3 N27 1_555 1_555
H16_3 C26_3 1_555 1_555
C27_3 C24_3 1_555 1_555
C28_3 N11_3 1_555 1_555
N12_3 C27_3 1_555 1_555
N14_3 C14_3 1_555 1_555
C32_3 N6_3 1_555 1_555
N16_3 C28_3 1_555 1_555
C35_3 C28_3 1_555 1_555
C36_3 N12_3 1_555 1_555
C43_3 C33_3 1_555 1_555
C44_3 C33_3 1_555 1_555
C46_3 C35_3 1_555 1_555
C47_3 C35_3 1_555 1_555
C48_3 C36_3 1_555 1_555
C57_3 C43_3 1_555 1_555
H22_3 C44_3 1_555 1_555
C58_3 C44_3 1_555 1_555
C61_3 C46_3 1_555 1_555
H23_3 C46_3 1_555 1_555
H24_3 C47_3 1_555 1_555
C62_3 C47_3 1_555 1_555
C63_3 C48_3 1_555 1_555
C64_3 C48_3 1_555 1_555
N19_3 C57_3 1_555 1_555
H33_3 C57_3 1_555 1_555
H34_3 C58_3 1_555 1_555
N20_3 C61_3 1_555 1_555
H37_3 C61_3 1_555 1_555
H38_3 C62_3 1_555 1_555
C71_3 C63_3 1_555 1_555
H39_3 C63_3 1_555 1_555
H40_3 C64_3 1_555 1_555
C72_3 C64_3 1_555 1_555
Cu7_2 N19_3 1_555 1_555
Cu3 N20_3 1_555 1_555
N24_3 C71_3 1_555 1_555
H47_3 C71_3 1_555 1_555
H48_3 C72_3 1_555 1_555
N28_3 Cu7_2 1_555 1_555
N30_3 Cu7_2 1_555 1_555
Cu8_2 N24_3 1_555 1_555
C11_3 C12_3 1_555 1_555
C25_3 C26_3 1_555 1_555
N14_3 C32_3 1_555 1_555
N16_3 C36_3 1_555 1_555
C58_3 N19_3 1_555 1_555
C62_3 N20_3 1_555 1_555
C72_3 N24_3 1_555 1_555
C55_3 C42_3 1_555 1_555
C56_3 C42_3 1_555 1_555
C67_3 C55_3 1_555 1_555
H32_3 C56_3 1_555 1_555
C68_3 C56_3 1_555 1_555
N29 C67_3 1_555 1_555
H43_3 C67_3 1_555 1_555
H44_3 C68_3 1_555 1_555
C68_3 N29 1_555 1_555
N28_3 C1_2 1_555 1_555
N2_2 C6_2 1_555 1_555
C1_2 H1_2 1_555 1_555
C2_2 C1_2 1_555 1_555
H2_2 C2_2 1_555 1_555
C3_2 C2_2 1_555 1_555
C4_2 C3_2 1_555 1_555
H3_2 C4_2 1_555 1_555
C5_2 N28_3 1_555 1_555
H4_2 C5_2 1_555 1_555
C6_2 C3_2 1_555 1_555
C7_2 N2_2 1_555 1_555
N3_2 C6_2 1_555 1_555
N11_4 C27_4 1_555 1_555
C22_4 N30_3 1_555 1_555
H13_4 C22_4 1_555 1_555
C23_4 C22_4 1_555 1_555
H14_4 C23_4 1_555 1_555
C24_4 C23_4 1_555 1_555
C25_4 C24_4 1_555 1_555
H15_4 C25_4 1_555 1_555
C26_4 N30_3 1_555 1_555
H16_4 C26_4 1_555 1_555
C27_4 C24_4 1_555 1_555
C28_4 N11_4 1_555 1_555
N12_4 C27_4 1_555 1_555
N13_2 C7_2 1_555 1_555
C29_2 C7_2 1_555 1_555
C30_2 N3_2 1_555 1_555
N16_4 C28_4 1_555 1_555
C35_4 C28_4 1_555 1_555
C36_4 N12_4 1_555 1_555
C37_2 C29_2 1_555 1_555
C38_2 C29_2 1_555 1_555
C39_2 C30_2 1_555 1_555
C46_4 C35_4 1_555 1_555
C47_4 C35_4 1_555 1_555
C48_4 C36_4 1_555 1_555
C49_2 C37_2 1_555 1_555
H17_2 C37_2 1_555 1_555
H18_2 C38_2 1_555 1_555
C50_2 C38_2 1_555 1_555
C51_2 C39_2 1_555 1_555
C52_2 C39_2 1_555 1_555
C61_4 C46_4 1_555 1_555
H23_4 C46_4 1_555 1_555
H24_4 C47_4 1_555 1_555
C62_4 C47_4 1_555 1_555
C63_4 C48_4 1_555 1_555
C64_4 C48_4 1_555 1_555
N28_2 C49_2 1_555 1_555
H25_2 C49_2 1_555 1_555
H26_2 C50_2 1_555 1_555
C65_2 C51_2 1_555 1_555
H27_2 C51_2 1_555 1_555
H28_2 C52_2 1_555 1_555
C66_2 C52_2 1_555 1_555
N20_4 C61_4 1_555 1_555
H37_4 C61_4 1_555 1_555
H38_4 C62_4 1_555 1_555
C71_4 C63_4 1_555 1_555
H39_4 C63_4 1_555 1_555
H40_4 C64_4 1_555 1_555
C72_4 C64_4 1_555 1_555
N28 C65_2 1_555 1_555
H41_2 C65_2 1_555 1_555
H42_2 C66_2 1_555 1_555
Cu8 N20_4 1_555 1_555
N24_4 C71_4 1_555 1_555
H47_4 C71_4 1_555 1_555
H48_4 C72_4 1_555 1_555
Cu3_2 N24_4 1_555 1_555
C4_2 C5_2 1_555 1_555
C25_4 C26_4 1_555 1_555
N13_2 C30_2 1_555 1_555
N16_4 C36_4 1_555 1_555
C50_2 N28_2 1_555 1_555
C62_4 N20_4 1_555 1_555
C66_2 N28 1_555 1_555
C72_4 N24_4 1_555 1_555
N11_5 C27_5 1_555 1_555
C22_5 N30 1_555 1_555
H13_5 C22_5 1_555 1_555
C23_5 C22_5 1_555 1_555
H14_5 C23_5 1_555 1_555
C24_5 C23_5 1_555 1_555
C25_5 C24_5 1_555 1_555
H15_5 C25_5 1_555 1_555
C26_5 N30 1_555 1_555
H16_5 C26_5 1_555 1_555
C27_5 C24_5 1_555 1_555
C28_5 N11_5 1_555 1_555
N12_5 C27_5 1_555 1_555
N16_5 C28_5 1_555 1_555
C35_5 C28_5 1_555 1_555
C36_5 N12_5 1_555 1_555
C46_5 C35_5 1_555 1_555
C47_5 C35_5 1_555 1_555
C48_5 C36_5 1_555 1_555
C61_5 C46_5 1_555 1_555
H23_5 C46_5 1_555 1_555
H24_5 C47_5 1_555 1_555
C62_5 C47_5 1_555 1_555
C63_5 C48_5 1_555 1_555
C64_5 C48_5 1_555 1_555
N20_5 C61_5 1_555 1_555
H37_5 C61_5 1_555 1_555
H38_5 C62_5 1_555 1_555
C71_5 C63_5 1_555 1_555
H39_5 C63_5 1_555 1_555
H40_5 C64_5 1_555 1_555
C72_5 C64_5 1_555 1_555
Cu8_2 N20_5 1_555 1_555
N24_5 C71_5 1_555 1_555
H47_5 C71_5 1_555 1_555
H48_5 C72_5 1_555 1_555
Cu5_2 N24_5 1_555 1_555
C25_5 C26_5 1_555 1_555
N16_5 C36_5 1_555 1_555
C62_5 N20_5 1_555 1_555
C72_5 N24_5 1_555 1_555
N11_6 C27_6 1_555 1_555
C22_6 N30_2 1_555 1_555
H13_6 C22_6 1_555 1_555
C23_6 C22_6 1_555 1_555
H14_6 C23_6 1_555 1_555
C24_6 C23_6 1_555 1_555
C25_6 C24_6 1_555 1_555
H15_6 C25_6 1_555 1_555
C26_6 N30_2 1_555 1_555
H16_6 C26_6 1_555 1_555
C27_6 C24_6 1_555 1_555
C28_6 N11_6 1_555 1_555
N12_6 C27_6 1_555 1_555
N16_6 C28_6 1_555 1_555
C35_6 C28_6 1_555 1_555
C36_6 N12_6 1_555 1_555
C46_6 C35_6 1_555 1_555
C47_6 C35_6 1_555 1_555
C48_6 C36_6 1_555 1_555
C61_6 C46_6 1_555 1_555
H23_6 C46_6 1_555 1_555
H24_6 C47_6 1_555 1_555
C62_6 C47_6 1_555 1_555
C63_6 C48_6 1_555 1_555
C64_6 C48_6 1_555 1_555
N20_6 C61_6 1_555 1_555
H37_6 C61_6 1_555 1_555
H38_6 C62_6 1_555 1_555
C71_6 C63_6 1_555 1_555
H39_6 C63_6 1_555 1_555
H40_6 C64_6 1_555 1_555
C72_6 C64_6 1_555 1_555
Cu9 N20_6 1_555 1_555
N24_6 C71_6 1_555 1_555
H47_6 C71_6 1_555 1_555
H48_6 C72_6 1_555 1_555
Cu5_4 N24_6 1_555 1_555
C25_6 C26_6 1_555 1_555
N16_6 C36_6 1_555 1_555
C62_6 N20_6 1_555 1_555
C72_6 N24_6 1_555 1_555
Cu9 N1_2 1_555 1_555
N1_2 C1_3 1_555 1_555
N2_3 C6_3 1_555 1_555
C1_3 H1_3 1_555 1_555
C2_3 C1_3 1_555 1_555
H2_3 C2_3 1_555 1_555
C3_3 C2_3 1_555 1_555
C4_3 C3_3 1_555 1_555
H3_3 C4_3 1_555 1_555
C5_3 N1_2 1_555 1_555
H4_3 C5_3 1_555 1_555
C6_3 C3_3 1_555 1_555
C7_3 N2_3 1_555 1_555
N3_3 C6_3 1_555 1_555
N13_3 C7_3 1_555 1_555
C29_3 C7_3 1_555 1_555
C30_3 N3_3 1_555 1_555
C37_3 C29_3 1_555 1_555
C38_3 C29_3 1_555 1_555
C39_3 C30_3 1_555 1_555
C49_3 C37_3 1_555 1_555
H17_3 C37_3 1_555 1_555
H18_3 C38_3 1_555 1_555
C50_3 C38_3 1_555 1_555
C51_3 C39_3 1_555 1_555
C52_3 C39_3 1_555 1_555
N17_2 C49_3 1_555 1_555
H25_3 C49_3 1_555 1_555
H26_3 C50_3 1_555 1_555
C65_3 C51_3 1_555 1_555
H27_3 C51_3 1_555 1_555
H28_3 C52_3 1_555 1_555
C66_3 C52_3 1_555 1_555
Cu8 N17_2 1_555 1_555
N21_2 C65_3 1_555 1_555
H41_3 C65_3 1_555 1_555
H42_3 C66_3 1_555 1_555
Cu8_2 N21_2 1_555 1_555
N28_4 Cu5_4 1_555 1_555
C4_3 C5_3 1_555 1_555
N13_3 C30_3 1_555 1_555
C50_3 N17_2 1_555 1_555
C66_3 N21_2 1_555 1_555
N28_5 Cu5_2 1_555 1_555
N28_6 Cu3_2 1_555 1_555
C71_7 C63_7 1_555 1_555
H47_7 C71_7 1_555 1_555
C61_7 C46_7 1_555 1_555
H37_7 C61_7 1_555 1_555
C64_7 C48_7 1_555 1_555
H40_7 C64_7 1_555 1_555
C72_7 C64_7 1_555 1_555
H48_7 C72_7 1_555 1_555
C72_7 N28_4 1_555 1_555
H13_7 C22_7 1_555 1_555
C23_7 C22_7 1_555 1_555
C25_7 C24_7 1_555 1_555
H15_7 C25_7 1_555 1_555
C26_7 N28_6 1_555 1_555
H16_7 C26_7 1_555 1_555
C25_7 C26_7 1_555 1_555
C47_7 C35_7 1_555 1_555
H24_7 C47_7 1_555 1_555
C62_7 C47_7 1_555 1_555
H38_7 C62_7 1_555 1_555
C62_7 N28_5 1_555 1_555
N11_7 C27_7 1_555 1_555
C28_7 N11_7 1_555 1_555
N12_7 C27_7 1_555 1_555
N16_7 C28_7 1_555 1_555
C36_7 N12_7 1_555 1_555
N16_7 C36_7 1_555 1_555
C51_4 C39_4 1_555 1_555
C52_4 C39_4 1_555 1_555
C65_4 C51_4 1_555 1_555
H28_4 C52_4 1_555 1_555
C66_4 C52_4 1_555 1_555
N21_3 C65_4 1_555 1_555
H41_4 C65_4 1_555 1_555
H42_4 C66_4 1_555 1_555
Cu6_3 N21_3 1_555 1_555
C66_4 N21_3 1_555 1_555
C49_4 C37_4 1_555 1_555
H25_4 C49_4 1_555 1_555
N26_2 Cu2_3 1_555 1_555
N27_2 Cu2_3 1_555 1_555
N29_2 Cu4_2 1_555 1_555
N30_4 Cu4_2 1_555 1_555
Cu1_3 N1_3 1_555 1_555
N2_4 C6_4 1_555 1_555
C4_4 C3_4 1_555 1_555
H3_4 C4_4 1_555 1_555
C5_4 N1_3 1_555 1_555
H4_4 C5_4 1_555 1_555
C6_4 C3_4 1_555 1_555
C7_4 N2_4 1_555 1_555
N3_4 C6_4 1_555 1_555
N4_3 Cu1_3 1_555 1_555
N5_4 C13_4 1_555 1_555
C8_4 N4_3 1_555 1_555
H5_4 C8_4 1_555 1_555
C9_4 C8_4 1_555 1_555
H6_4 C9_4 1_555 1_555
C10_4 C9_4 1_555 1_555
C11_4 C10_4 1_555 1_555
H7_4 C11_4 1_555 1_555
C12_4 N4_3 1_555 1_555
H8_4 C12_4 1_555 1_555
C13_4 C10_4 1_555 1_555
C14_4 N5_4 1_555 1_555
N6_4 C13_4 1_555 1_555
H13_8 C22_8 1_555 1_555
C23_8 C22_8 1_555 1_555
H14_8 C23_8 1_555 1_555
N13_4 C7_4 1_555 1_555
C30_4 N3_4 1_555 1_555
N14_4 C14_4 1_555 1_555
C31_4 C14_4 1_555 1_555
C32_4 N6_4 1_555 1_555
C40_4 C31_4 1_555 1_555
C41_4 C31_4 1_555 1_555
C42_4 C32_4 1_555 1_555
C46_8 C35_8 1_555 1_555
C47_8 C35_8 1_555 1_555
C53_4 C40_4 1_555 1_555
H19_4 C40_4 1_555 1_555
H20_4 C41_4 1_555 1_555
C54_4 C41_4 1_555 1_555
C55_4 C42_4 1_555 1_555
C56_4 C42_4 1_555 1_555
C61_8 C46_8 1_555 1_555
H24_8 C47_8 1_555 1_555
C62_8 C47_8 1_555 1_555
N18_4 C53_4 1_555 1_555
H29_4 C53_4 1_555 1_555
H30_4 C54_4 1_555 1_555
C67_4 C55_4 1_555 1_555
H31_4 C55_4 1_555 1_555
H32_4 C56_4 1_555 1_555
C68_4 C56_4 1_555 1_555
N20_7 C61_8 1_555 1_555
H37_8 C61_8 1_555 1_555
H38_8 C62_8 1_555 1_555
Cu3_4 N18_4 1_555 1_555
N22_3 C67_4 1_555 1_555
H43_4 C67_4 1_555 1_555
H44_4 C68_4 1_555 1_555
Cu5_5 N20_7 1_555 1_555
Cu7_3 N22_3 1_555 1_555
C4_4 C5_4 1_555 1_555
C11_4 C12_4 1_555 1_555
N13_4 C30_4 1_555 1_555
N14_4 C32_4 1_555 1_555
C54_4 N18_4 1_555 1_555
C62_8 N20_7 1_555 1_555
C68_4 N22_3 1_555 1_555
C1_4 H1_4 1_555 1_555
C2_4 C1_4 1_555 1_555
H2_4 C2_4 1_555 1_555
N7_3 Cu1_4 1_555 1_555
N8_4 C20_4 1_555 1_555
C15_4 N7_3 1_555 1_555
H9_4 C15_4 1_555 1_555
C16_4 C15_4 1_555 1_555
H10_4 C16_4 1_555 1_555
C17_4 C16_4 1_555 1_555
C18_4 C17_4 1_555 1_555
H11_4 C18_4 1_555 1_555
C19_4 N7_3 1_555 1_555
H12_4 C19_4 1_555 1_555
C20_4 C17_4 1_555 1_555
C21_4 N8_4 1_555 1_555
N9_4 C20_4 1_555 1_555
N10_3 Cu1_4 1_555 1_555
N11_8 C27_8 1_555 1_555
C25_8 C24_8 1_555 1_555
H15_8 C25_8 1_555 1_555
C26_8 N10_3 1_555 1_555
H16_8 C26_8 1_555 1_555
C27_8 C24_8 1_555 1_555
C28_8 N11_8 1_555 1_555
N12_8 C27_8 1_555 1_555
N15_4 C21_4 1_555 1_555
C33_4 C21_4 1_555 1_555
C34_4 N9_4 1_555 1_555
N16_8 C28_8 1_555 1_555
C36_8 N12_8 1_555 1_555
C38_4 C29_4 1_555 1_555
C43_4 C33_4 1_555 1_555
C44_4 C33_4 1_555 1_555
C45_4 C34_4 1_555 1_555
C48_8 C36_8 1_555 1_555
H18_4 C38_4 1_555 1_555
C50_4 C38_4 1_555 1_555
C57_4 C43_4 1_555 1_555
H21_4 C43_4 1_555 1_555
H22_4 C44_4 1_555 1_555
C58_4 C44_4 1_555 1_555
C59_4 C45_4 1_555 1_555
C60_4 C45_4 1_555 1_555
C63_8 C48_8 1_555 1_555
C64_8 C48_8 1_555 1_555
H26_4 C50_4 1_555 1_555
N19_4 C57_4 1_555 1_555
H33_4 C57_4 1_555 1_555
H34_4 C58_4 1_555 1_555
C69_4 C59_4 1_555 1_555
H35_4 C59_4 1_555 1_555
H36_4 C60_4 1_555 1_555
C70_4 C60_4 1_555 1_555
C71_8 C63_8 1_555 1_555
H39_8 C63_8 1_555 1_555
H40_8 C64_8 1_555 1_555
C72_8 C64_8 1_555 1_555
Cu2_4 N17_3 1_555 1_555
Cu4_3 N19_4 1_555 1_555
N23_4 C69_4 1_555 1_555
H45_4 C69_4 1_555 1_555
H46_4 C70_4 1_555 1_555
N24_7 C71_8 1_555 1_555
H47_8 C71_8 1_555 1_555
H48_8 C72_8 1_555 1_555
N25_2 Cu2_4 1_555 1_555
N28_7 Cu4_3 1_555 1_555
Cu8_4 N23_4 1_555 1_555
Cu9_2 N24_7 1_555 1_555
C18_4 C19_4 1_555 1_555
C25_8 C26_8 1_555 1_555
N15_4 C34_4 1_555 1_555
N16_8 C36_8 1_555 1_555
C50_4 N17_3 1_555 1_555
C58_4 N19_4 1_555 1_555
C70_4 N23_4 1_555 1_555
C72_8 N24_7 1_555 1_555
N11_9 C27_9 1_555 1_555
C28_9 N11_9 1_555 1_555
N12_9 C27_9 1_555 1_555
N16_9 C28_9 1_555 1_555
C36_9 N12_9 1_555 1_555
C37_5 C29_5 1_555 1_555
C38_5 C29_5 1_555 1_555
C49_5 C37_5 1_555 1_555
H18_5 C38_5 1_555 1_555
C50_5 C38_5 1_555 1_555
N17_4 C49_5 1_555 1_555
H25_5 C49_5 1_555 1_555
H26_5 C50_5 1_555 1_555
Cu5_5 N17_4 1_555 1_555
N25_3 Cu5_5 1_555 1_555
N26_3 Cu5_5 1_555 1_555
N16_9 C36_9 1_555 1_555
C50_5 N17_4 1_555 1_555
N2_5 C6_5 1_555 1_555
C7_5 N2_5 1_555 1_555
N3_5 C6_5 1_555 1_555
N13_5 C7_5 1_555 1_555
C30_5 N3_5 1_555 1_555
C39_5 C30_5 1_555 1_555
C47_9 C35_9 1_555 1_555
C52_5 C39_5 1_555 1_555
H24_9 C47_9 1_555 1_555
C62_9 C47_9 1_555 1_555
H28_5 C52_5 1_555 1_555
C66_5 C52_5 1_555 1_555
H38_9 C62_9 1_555 1_555
H42_5 C66_5 1_555 1_555
N13_5 C30_5 1_555 1_555
C62_9 N27_2 1_555 1_555
C66_5 N30_4 1_555 1_555
C1_5 H1_5 1_555 1_555
C2_5 C1_5 1_555 1_555
N7_4 Cu1_5 1_555 1_555
N8_5 C20_5 1_555 1_555
C15_5 N7_4 1_555 1_555
H9_5 C15_5 1_555 1_555
C16_5 C15_5 1_555 1_555
H10_5 C16_5 1_555 1_555
C17_5 C16_5 1_555 1_555
C18_5 C17_5 1_555 1_555
H11_5 C18_5 1_555 1_555
C19_5 N7_4 1_555 1_555
H12_5 C19_5 1_555 1_555
C20_5 C17_5 1_555 1_555
C21_5 N8_5 1_555 1_555
N9_5 C20_5 1_555 1_555
N10_4 Cu1_5 1_555 1_555
C25_9 C24_9 1_555 1_555
H15_9 C25_9 1_555 1_555
C26_9 N10_4 1_555 1_555
H16_9 C26_9 1_555 1_555
N15_5 C21_5 1_555 1_555
C33_5 C21_5 1_555 1_555
C34_5 N9_5 1_555 1_555
C43_5 C33_5 1_555 1_555
C44_5 C33_5 1_555 1_555
C45_5 C34_5 1_555 1_555
C57_5 C43_5 1_555 1_555
H21_5 C43_5 1_555 1_555
H22_5 C44_5 1_555 1_555
C58_5 C44_5 1_555 1_555
C59_5 C45_5 1_555 1_555
C60_5 C45_5 1_555 1_555
N19_5 C57_5 1_555 1_555
H33_5 C57_5 1_555 1_555
H34_5 C58_5 1_555 1_555
C69_5 C59_5 1_555 1_555
H35_5 C59_5 1_555 1_555
H36_5 C60_5 1_555 1_555
C70_5 C60_5 1_555 1_555
Cu6_3 N19_5 1_555 1_555
N23_5 C69_5 1_555 1_555
H45_5 C69_5 1_555 1_555
H46_5 C70_5 1_555 1_555
N28_8 Cu6_3 1_555 1_555
N29_3 Cu6_3 1_555 1_555
Cu7_3 N23_5 1_555 1_555
C18_5 C19_5 1_555 1_555
C25_9 C26_9 1_555 1_555
N15_5 C34_5 1_555 1_555
C58_5 N19_5 1_555 1_555
C70_5 N23_5 1_555 1_555
Cu1_6 N1_4 1_555 1_555
C4_5 C3_5 1_555 1_555
H3_5 C4_5 1_555 1_555
C5_5 N1_4 1_555 1_555
H4_5 C5_5 1_555 1_555
N4_4 Cu1_6 1_555 1_555
N5_5 C13_5 1_555 1_555
C8_5 N4_4 1_555 1_555
H5_5 C8_5 1_555 1_555
C9_5 C8_5 1_555 1_555
H6_5 C9_5 1_555 1_555
C10_5 C9_5 1_555 1_555
C11_5 C10_5 1_555 1_555
H7_5 C11_5 1_555 1_555
C12_5 N4_4 1_555 1_555
H8_5 C12_5 1_555 1_555
C13_5 C10_5 1_555 1_555
C14_5 N5_5 1_555 1_555
N6_5 C13_5 1_555 1_555
H13_9 C22_9 1_555 1_555
C23_9 C22_9 1_555 1_555
N14_5 C14_5 1_555 1_555
C31_5 C14_5 1_555 1_555
C32_5 N6_5 1_555 1_555
C40_5 C31_5 1_555 1_555
C41_5 C31_5 1_555 1_555
C42_5 C32_5 1_555 1_555
C53_5 C40_5 1_555 1_555
H19_5 C40_5 1_555 1_555
H20_5 C41_5 1_555 1_555
C54_5 C41_5 1_555 1_555
C55_5 C42_5 1_555 1_555
C56_5 C42_5 1_555 1_555
C65_5 C51_5 1_555 1_555
H27_5 C51_5 1_555 1_555
N18_5 C53_5 1_555 1_555
H29_5 C53_5 1_555 1_555
H30_5 C54_5 1_555 1_555
C67_5 C55_5 1_555 1_555
H31_5 C55_5 1_555 1_555
H32_5 C56_5 1_555 1_555
C68_5 C56_5 1_555 1_555
H41_5 C65_5 1_555 1_555
Cu9_2 N18_5 1_555 1_555
N22_4 C67_5 1_555 1_555
H43_5 C67_5 1_555 1_555
H44_5 C68_5 1_555 1_555
Cu8_3 N22_4 1_555 1_555
C4_5 C5_5 1_555 1_555
C11_5 C12_5 1_555 1_555
N14_5 C32_5 1_555 1_555
C54_5 N18_5 1_555 1_555
C68_5 N22_4 1_555 1_555
C64_9 C48_9 1_555 1_555
H40_9 C64_9 1_555 1_555
C72_9 C64_9 1_555 1_555
H48_9 C72_9 1_555 1_555
Cu3_3 N24_8 1_555 1_555
C72_9 N24_8 1_555 1_555
C61_9 C46_9 1_555 1_555
H37_9 C61_9 1_555 1_555
C71_9 C63_9 1_555 1_555
H47_9 C71_9 1_555 1_555
Cu1_7 N1_5 1_555 1_555
N1_5 C1_6 1_555 1_555
C1_6 H1_6 1_555 1_555
C2_6 C1_6 1_555 1_555
C3_6 C2_6 1_555 1_555
C4_6 C3_6 1_555 1_555
H3_6 C4_6 1_555 1_555
C5_6 N1_5 1_555 1_555
H4_6 C5_6 1_555 1_555
N4_5 Cu1_7 1_555 1_555
N5_6 C13_6 1_555 1_555
C8_6 N4_5 1_555 1_555
H5_6 C8_6 1_555 1_555
C9_6 C8_6 1_555 1_555
H6_6 C9_6 1_555 1_555
C10_6 C9_6 1_555 1_555
C11_6 C10_6 1_555 1_555
H7_6 C11_6 1_555 1_555
C12_6 N4_5 1_555 1_555
H8_6 C12_6 1_555 1_555
C13_6 C10_6 1_555 1_555
C14_6 N5_6 1_555 1_555
N6_6 C13_6 1_555 1_555
N7_5 Cu1_7 1_555 1_555
N8_6 C20_6 1_555 1_555
C15_6 N7_5 1_555 1_555
H9_6 C15_6 1_555 1_555
C16_6 C15_6 1_555 1_555
H10_6 C16_6 1_555 1_555
C17_6 C16_6 1_555 1_555
C18_6 C17_6 1_555 1_555
H11_6 C18_6 1_555 1_555
C19_6 N7_5 1_555 1_555
H12_6 C19_6 1_555 1_555
C20_6 C17_6 1_555 1_555
C21_6 N8_6 1_555 1_555
N9_6 C20_6 1_555 1_555
N10_5 Cu1_7 1_555 1_555
C22_10 N10_5 1_555 1_555
H13_10 C22_10 1_555 1_555
C23_10 C22_10 1_555 1_555
C24_10 C23_10 1_555 1_555
C25_10 C24_10 1_555 1_555
H15_10 C25_10 1_555 1_555
C26_10 N10_5 1_555 1_555
H16_10 C26_10 1_555 1_555
N14_6 C14_6 1_555 1_555
C31_6 C14_6 1_555 1_555
C32_6 N6_6 1_555 1_555
N15_6 C21_6 1_555 1_555
C33_6 C21_6 1_555 1_555
C34_6 N9_6 1_555 1_555
C40_6 C31_6 1_555 1_555
C41_6 C31_6 1_555 1_555
C42_6 C32_6 1_555 1_555
C43_6 C33_6 1_555 1_555
C44_6 C33_6 1_555 1_555
C45_6 C34_6 1_555 1_555
C53_6 C40_6 1_555 1_555
H19_6 C40_6 1_555 1_555
H20_6 C41_6 1_555 1_555
C54_6 C41_6 1_555 1_555
C55_6 C42_6 1_555 1_555
C56_6 C42_6 1_555 1_555
C57_6 C43_6 1_555 1_555
H21_6 C43_6 1_555 1_555
H22_6 C44_6 1_555 1_555
C58_6 C44_6 1_555 1_555
C59_6 C45_6 1_555 1_555
C60_6 C45_6 1_555 1_555
N29_3 C53_6 1_555 1_555
H29_6 C53_6 1_555 1_555
H30_6 C54_6 1_555 1_555
C67_6 C55_6 1_555 1_555
H31_6 C55_6 1_555 1_555
H32_6 C56_6 1_555 1_555
C68_6 C56_6 1_555 1_555
N19_6 C57_6 1_555 1_555
H33_6 C57_6 1_555 1_555
H34_6 C58_6 1_555 1_555
C69_6 C59_6 1_555 1_555
H35_6 C59_6 1_555 1_555
H36_6 C60_6 1_555 1_555
C70_6 C60_6 1_555 1_555
C71_10 C63_10 1_555 1_555
H39_10 C63_10 1_555 1_555
N25_3 C67_6 1_555 1_555
H43_6 C67_6 1_555 1_555
H44_6 C68_6 1_555 1_555
Cu9_2 N19_6 1_555 1_555
N26_2 C69_6 1_555 1_555
H45_6 C69_6 1_555 1_555
H46_6 C70_6 1_555 1_555
H47_10 C71_10 1_555 1_555
N30_5 Cu9_2 1_555 1_555
C4_6 C5_6 1_555 1_555
C11_6 C12_6 1_555 1_555
C18_6 C19_6 1_555 1_555
C25_10 C26_10 1_555 1_555
N14_6 C32_6 1_555 1_555
N15_6 C34_6 1_555 1_555
C54_6 N29_3 1_555 1_555
C58_6 N19_6 1_555 1_555
C68_6 N25_3 1_555 1_555
C70_6 N26_2 1_555 1_555
N2_6 C6_6 1_555 1_555
C7_6 N2_6 1_555 1_555
N3_6 C6_6 1_555 1_555
N11_10 C27_10 1_555 1_555
C28_10 N11_10 1_555 1_555
N12_10 C27_10 1_555 1_555
N13_6 C7_6 1_555 1_555
C29_6 C7_6 1_555 1_555
C30_6 N3_6 1_555 1_555
N16_10 C28_10 1_555 1_555
C35_10 C28_10 1_555 1_555
C36_10 N12_10 1_555 1_555
C38_6 C29_6 1_555 1_555
C46_10 C35_10 1_555 1_555
C47_10 C35_10 1_555 1_555
C48_10 C36_10 1_555 1_555
H18_6 C38_6 1_555 1_555
C50_6 C38_6 1_555 1_555
C61_10 C46_10 1_555 1_555
H23_10 C46_10 1_555 1_555
H24_10 C47_10 1_555 1_555
C62_10 C47_10 1_555 1_555
C64_10 C48_10 1_555 1_555
H26_6 C50_6 1_555 1_555
N20_8 C61_10 1_555 1_555
H37_10 C61_10 1_555 1_555
H38_10 C62_10 1_555 1_555
H40_10 C64_10 1_555 1_555
C72_10 C64_10 1_555 1_555
Cu8_3 N17_5 1_555 1_555
Cu7_3 N20_8 1_555 1_555
H48_10 C72_10 1_555 1_555
N13_6 C30_6 1_555 1_555
N16_10 C36_10 1_555 1_555
C50_6 N17_5 1_555 1_555
C62_10 N20_8 1_555 1_555
C72_10 N28_7 1_555 1_555
C65_6 C51_6 1_555 1_555
H41_6 C65_6 1_555 1_555
C49_6 C37_6 1_555 1_555
H17_6 C37_6 1_555 1_555
C52_6 C39_6 1_555 1_555
H25_6 C49_6 1_555 1_555
H28_6 C52_6 1_555 1_555
C66_6 C52_6 1_555 1_555
H42_6 C66_6 1_555 1_555
N27_3 Cu8_4 1_555 1_555
Cu3_4 N21_4 1_555 1_555
C66_6 N21_4 1_555 1_555
C22_11 N28_8 1_555 1_555
H13_11 C22_11 1_555 1_555
C23_11 C22_11 1_555 1_555
C24_11 C23_11 1_555 1_555
C25_11 C24_11 1_555 1_555
H15_11 C25_11 1_555 1_555
C26_11 N28_8 1_555 1_555
H16_11 C26_11 1_555 1_555
C71_11 C63_11 1_555 1_555
H39_11 C63_11 1_555 1_555
H47_11 C71_11 1_555 1_555
N30_6 Cu7_3 1_555 1_555
C25_11 C26_11 1_555 1_555
N11_11 C27_11 1_555 1_555
C28_11 N11_11 1_555 1_555
N12_11 C27_11 1_555 1_555
N16_11 C28_11 1_555 1_555
C35_11 C28_11 1_555 1_555
C36_11 N12_11 1_555 1_555
C46_11 C35_11 1_555 1_555
C47_11 C35_11 1_555 1_555
C48_11 C36_11 1_555 1_555
C61_11 C46_11 1_555 1_555
H23_11 C46_11 1_555 1_555
H24_11 C47_11 1_555 1_555
C62_11 C47_11 1_555 1_555
C64_11 C48_11 1_555 1_555
N20_9 C61_11 1_555 1_555
H37_11 C61_11 1_555 1_555
H38_11 C62_11 1_555 1_555
H40_11 C64_11 1_555 1_555
C72_11 C64_11 1_555 1_555
Cu5_6 N20_9 1_555 1_555
H48_11 C72_11 1_555 1_555
N16_11 C36_11 1_555 1_555
C62_11 N20_9 1_555 1_555
C72_11 N27_3 1_555 1_555
N7_6 Cu3_3 1_555 1_555
N8_7 C20_7 1_555 1_555
C15_7 N7_6 1_555 1_555
H9_7 C15_7 1_555 1_555
C16_7 C15_7 1_555 1_555
H10_7 C16_7 1_555 1_555
C17_7 C16_7 1_555 1_555
C18_7 C17_7 1_555 1_555
H11_7 C18_7 1_555 1_555
C19_7 N7_6 1_555 1_555
H12_7 C19_7 1_555 1_555
C20_7 C17_7 1_555 1_555
C21_7 N8_7 1_555 1_555
N9_7 C20_7 1_555 1_555
N15_7 C21_7 1_555 1_555
C33_7 C21_7 1_555 1_555
C34_7 N9_7 1_555 1_555
C43_7 C33_7 1_555 1_555
C44_7 C33_7 1_555 1_555
C45_7 C34_7 1_555 1_555
C57_7 C43_7 1_555 1_555
H21_7 C43_7 1_555 1_555
H22_7 C44_7 1_555 1_555
C58_7 C44_7 1_555 1_555
C59_7 C45_7 1_555 1_555
C60_7 C45_7 1_555 1_555
N26_3 C57_7 1_555 1_555
H33_7 C57_7 1_555 1_555
H34_7 C58_7 1_555 1_555
C69_7 C59_7 1_555 1_555
H35_7 C59_7 1_555 1_555
H36_7 C60_7 1_555 1_555
C70_7 C60_7 1_555 1_555
N23_6 C69_7 1_555 1_555
H45_7 C69_7 1_555 1_555
H46_7 C70_7 1_555 1_555
Cu5_6 N23_6 1_555 1_555
C18_7 C19_7 1_555 1_555
N15_7 C34_7 1_555 1_555
C58_7 N26_3 1_555 1_555
C70_7 N23_6 1_555 1_555
N5_7 C13_7 1_555 1_555
C8_7 N29_2 1_555 1_555
H5_7 C8_7 1_555 1_555
C9_7 C8_7 1_555 1_555
H6_7 C9_7 1_555 1_555
C10_7 C9_7 1_555 1_555
C11_7 C10_7 1_555 1_555
H7_7 C11_7 1_555 1_555
C12_7 N29_2 1_555 1_555
H8_7 C12_7 1_555 1_555
C13_7 C10_7 1_555 1_555
C14_7 N5_7 1_555 1_555
N6_7 C13_7 1_555 1_555
N14_7 C14_7 1_555 1_555
C31_7 C14_7 1_555 1_555
C32_7 N6_7 1_555 1_555
C40_7 C31_7 1_555 1_555
C41_7 C31_7 1_555 1_555
C42_7 C32_7 1_555 1_555
C53_7 C40_7 1_555 1_555
H19_7 C40_7 1_555 1_555
H20_7 C41_7 1_555 1_555
C54_7 C41_7 1_555 1_555
C55_7 C42_7 1_555 1_555
C56_7 C42_7 1_555 1_555
N25_2 C53_7 1_555 1_555
H29_7 C53_7 1_555 1_555
H30_7 C54_7 1_555 1_555
C67_7 C55_7 1_555 1_555
H31_7 C55_7 1_555 1_555
H32_7 C56_7 1_555 1_555
C68_7 C56_7 1_555 1_555
N22_5 C67_7 1_555 1_555
H43_7 C67_7 1_555 1_555
H44_7 C68_7 1_555 1_555
Cu5_6 N22_5 1_555 1_555
C11_7 C12_7 1_555 1_555
N14_7 C32_7 1_555 1_555
C54_7 N25_2 1_555 1_555
C68_7 N22_5 1_555 1_555
N30_7 Cu5_6 1_555 1_555
N11_12 C27_12 1_555 1_555
C22_12 N30_7 1_555 1_555
H13_12 C22_12 1_555 1_555
C23_12 C22_12 1_555 1_555
H14_12 C23_12 1_555 1_555
C24_12 C23_12 1_555 1_555
C25_12 C24_12 1_555 1_555
H15_12 C25_12 1_555 1_555
C26_12 N30_7 1_555 1_555
H16_12 C26_12 1_555 1_555
C27_12 C24_12 1_555 1_555
C28_12 N11_12 1_555 1_555
N12_12 C27_12 1_555 1_555
N16_12 C28_12 1_555 1_555
C35_12 C28_12 1_555 1_555
C36_12 N12_12 1_555 1_555
C46_12 C35_12 1_555 1_555
C47_12 C35_12 1_555 1_555
C48_12 C36_12 1_555 1_555
C61_12 C46_12 1_555 1_555
H23_12 C46_12 1_555 1_555
H24_12 C47_12 1_555 1_555
C62_12 C47_12 1_555 1_555
C63_12 C48_12 1_555 1_555
C64_12 C48_12 1_555 1_555
N30_6 C61_12 1_555 1_555
H37_12 C61_12 1_555 1_555
H38_12 C62_12 1_555 1_555
C71_12 C63_12 1_555 1_555
H39_12 C63_12 1_555 1_555
H40_12 C64_12 1_555 1_555
C72_12 C64_12 1_555 1_555
N30_5 C71_12 1_555 1_555
H47_12 C71_12 1_555 1_555
H48_12 C72_12 1_555 1_555
C25_12 C26_12 1_555 1_555
N16_12 C36_12 1_555 1_555
C62_12 N30_6 1_555 1_555
C72_12 N30_5 1_555 1_555

#END
