
###############################################################################
#
# This file contains modified crystal structure data generated from the
# MOF subset of the Cambridge Structural Database (CSD) v543 
# hosted by the Cambridge Crystallographic Data Centre (CCDC).
#
# This work is licensed under the Creative Commons
# Attribution-NonCommercial-ShareAlike 4.0 International License.
# To view a copy of this license, visit
# http://creativecommons.org/licenses/by-nc-sa/4.0/
# or send a letter to
# Creative Commons, PO Box 1866, Mountain View, CA 94042, USA.
#
# CIF created using the CSD Python API on 29 September 2022
# The structure has been converted into the P1 space group
# The structure has a 3D framework
# The original CSD entry SADMOB is in the monoclinic crystal system
# The framework has been calculated to contain at least 10.0% void space
# The void calculation uses a probe of radius 1.32A, grid spacing 0.4
#
###############################################################################

data_SADMOB
_chemical_formula_moiety         '(C32 H16 Fe6 O19)n'
_symmetry_cell_setting           triclinic
_symmetry_space_group_name_H-M   'P 1'
_symmetry_Int_Tables_number      1
_space_group_name_Hall           'P 1'
loop_
_symmetry_equiv_pos_site_id
_symmetry_equiv_pos_as_xyz
1 x,y,z
_cell_length_a                   19.2034(2)
_cell_length_b                   11.1758(1)
_cell_length_c                   6.8890(1)
_cell_angle_alpha                90
_cell_angle_beta                 109.004(1)
_cell_angle_gamma                90
_cell_volume                     1397.89
loop_
_atom_site_label
_atom_site_type_symbol
_atom_site_fract_x
_atom_site_fract_y
_atom_site_fract_z
Fe1 Fe 0.0000 0.0000 0.0000
C2 C 0.2090 0.2333 0.1275
H1 H 0.1796 0.2213 0.2186
Fe3 Fe 0.5000 0.5000 0.0000
Fe4 Fe 0.5000 0.5000 0.5000
O4 O 0.0000 0.0908(4) 0.2500
O5 O 0.4283 0.3769 0.0328
O7 O 0.4155 0.3941 0.3375
C5 C 0.3178 0.3034 0.0730
C7 C 0.2768 0.2867 0.2005
C8 C 0.3905 0.3607 0.1513
H4 H 0.2959 0.3129 0.3438
Fe1_2 Fe 0.0000 0.0000 1.0000
O2 O 0.0717 0.1231 0.9672
O3 O 0.0845 0.1059 0.6625
C1 C 0.1822 0.1966 0.9270
C3 C 0.2232 0.2133 0.7995
C4 C 0.1095 0.1393 0.8487
H2 H 0.2041 0.1871 0.6562
Fe2 Fe 0.0000 0.0000 0.5000
Fe3_2 Fe 0.5000 0.5000 1.0000
C6 C 0.2910 0.2667 0.8725
H3 H 0.3204 0.2787 0.7814
Fe1_3 Fe 0.0000 1.0000 0.0000
O9 O 0.0845 0.8941 0.1625
Fe1_4 Fe 0.0000 1.0000 1.0000
O1 O 0.0000 0.9092(4) 0.7500
Fe2_2 Fe 0.0000 1.0000 0.5000
Fe1_5 Fe 1.0000 0.0000 0.0000
O4_2 O 1.0000 0.0908(4) 0.2500
Fe1_6 Fe 1.0000 0.0000 1.0000
Fe2_3 Fe 1.0000 0.0000 0.5000
O8 O 0.9155 0.1059 0.8375
Fe1_7 Fe 1.0000 1.0000 0.0000
O6 O 0.9283 0.8769 0.0328
Fe1_8 Fe 1.0000 1.0000 1.0000
O1_2 O 1.0000 0.9092(4) 0.7500
Fe2_4 Fe 1.0000 1.0000 0.5000
O6_2 O 0.0717 0.8769 0.4672
O2_2 O 0.9283 0.1231 0.5328
C1_2 C 0.8178 0.1966 0.5730
C2_2 C 0.7910 0.2333 0.3725
C3_2 C 0.7768 0.2133 0.7005
C4_2 C 0.8905 0.1393 0.6513
H1_2 H 0.8204 0.2213 0.2814
H2_2 H 0.7959 0.1871 0.8438
O5_2 O 0.5717 0.3769 0.4672
O7_2 O 0.5845 0.3941 0.1625
C5_2 C 0.6822 0.3034 0.4270
C6_2 C 0.7090 0.2667 0.6275
C7_2 C 0.7232 0.2867 0.2995
C8_2 C 0.6095 0.3607 0.3487
H3_2 H 0.6796 0.2787 0.7186
H4_2 H 0.7041 0.3129 0.1562
O9_2 O 0.9155 0.8941 0.3375
C2_3 C 0.7090 0.7333 0.1275
H1_3 H 0.6796 0.7213 0.2186
O4_3 O 0.5000 0.5908(4) 0.2500
C5_3 C 0.8178 0.8034 0.0730
C7_3 C 0.7768 0.7867 0.2005
C8_3 C 0.8905 0.8607 0.1513
H4_3 H 0.7959 0.8129 0.3438
O1_3 O 0.5000 0.4092(4) 0.7500
O2_3 O 0.5717 0.6231 0.9672
O3_2 O 0.5845 0.6059 0.6625
C1_3 C 0.6822 0.6966 0.9270
C3_3 C 0.7232 0.7133 0.7995
C4_3 C 0.6095 0.6393 0.8487
H2_3 H 0.7041 0.6871 0.6562
O8_2 O 0.4155 0.6059 0.8375
C6_3 C 0.7910 0.7667 0.8725
H3_3 H 0.8204 0.7787 0.7814
O2_4 O 0.4283 0.6231 0.5328
C1_4 C 0.3178 0.6966 0.5730
C2_4 C 0.2910 0.7333 0.3725
C3_4 C 0.2768 0.7133 0.7005
C4_4 C 0.3905 0.6393 0.6513
H1_4 H 0.3204 0.7213 0.2814
H2_4 H 0.2959 0.6871 0.8438
C5_4 C 0.1822 0.8034 0.4270
C6_4 C 0.2090 0.7667 0.6275
C7_4 C 0.2232 0.7867 0.2995
C8_4 C 0.1095 0.8607 0.3487
H3_4 H 0.1796 0.7787 0.7186
H4_4 H 0.2041 0.8129 0.1562
loop_
_geom_bond_atom_site_label_1
_geom_bond_atom_site_label_2
_geom_bond_site_symmetry_1
_geom_bond_site_symmetry_2
C2 H1 1_555 1_555
Fe3 O5 1_555 1_555
Fe4 O7 1_555 1_555
O4 Fe1 1_555 1_555
O5 C8 1_555 1_555
O7 C8 1_555 1_555
C7 C2 1_555 1_555
C8 C5 1_555 1_555
H4 C7 1_555 1_555
C5 C7 1_555 1_555
O2 Fe1_2 1_555 1_555
O3 C4 1_555 1_555
C3 C1 1_555 1_555
C4 O2 1_555 1_555
H2 C3 1_555 1_555
Fe2 O3 1_555 1_555
C6 C3 1_555 1_555
H3 C6 1_555 1_555
C1 C4 1_555 1_555
O9 Fe1_3 1_555 1_555
Fe1_4 O1 1_555 1_555
O1 Fe2_2 1_555 1_555
O4_2 Fe1_5 1_555 1_555
O8 Fe1_6 1_555 1_555
O6 Fe1_7 1_555 1_555
Fe1_8 O1_2 1_555 1_555
O1_2 Fe2_4 1_555 1_555
O4 Fe2 1_555 1_555
O6_2 Fe2_2 1_555 1_555
O2_2 Fe2_3 1_555 1_555
O8 C4_2 1_555 1_555
C1_2 C2_2 1_555 1_555
C2_2 H1_2 1_555 1_555
C3_2 C1_2 1_555 1_555
C4_2 O2_2 1_555 1_555
H2_2 C3_2 1_555 1_555
Fe4 O5_2 1_555 1_555
Fe3 O7_2 1_555 1_555
O4_2 Fe2_3 1_555 1_555
O5_2 C8_2 1_555 1_555
O7_2 C8_2 1_555 1_555
C5_2 C6_2 1_555 1_555
C6_2 C3_2 1_555 1_555
C7_2 C2_2 1_555 1_555
C8_2 C5_2 1_555 1_555
H3_2 C6_2 1_555 1_555
H4_2 C7_2 1_555 1_555
C1_2 C4_2 1_555 1_555
C5_2 C7_2 1_555 1_555
O9_2 Fe2_4 1_555 1_555
C2_3 H1_3 1_555 1_555
O4_3 Fe3 1_555 1_555
O6 C8_3 1_555 1_555
O9_2 C8_3 1_555 1_555
C7_3 C2_3 1_555 1_555
C8_3 C5_3 1_555 1_555
H4_3 C7_3 1_555 1_555
C5_3 C7_3 1_555 1_555
Fe3_2 O1_3 1_555 1_555
O1_3 Fe4 1_555 1_555
O2_3 Fe3_2 1_555 1_555
O3_2 C4_3 1_555 1_555
C3_3 C1_3 1_555 1_555
C4_3 O2_3 1_555 1_555
H2_3 C3_3 1_555 1_555
Fe4 O3_2 1_555 1_555
O8_2 Fe3_2 1_555 1_555
C6_3 C3_3 1_555 1_555
H3_3 C6_3 1_555 1_555
C1_3 C4_3 1_555 1_555
O2_4 Fe4 1_555 1_555
O8_2 C4_4 1_555 1_555
C1_4 C2_4 1_555 1_555
C2_4 H1_4 1_555 1_555
C3_4 C1_4 1_555 1_555
C4_4 O2_4 1_555 1_555
H2_4 C3_4 1_555 1_555
O4_3 Fe4 1_555 1_555
O6_2 C8_4 1_555 1_555
O9 C8_4 1_555 1_555
C5_4 C6_4 1_555 1_555
C6_4 C3_4 1_555 1_555
C7_4 C2_4 1_555 1_555
C8_4 C5_4 1_555 1_555
H3_4 C6_4 1_555 1_555
H4_4 C7_4 1_555 1_555
C1_4 C4_4 1_555 1_555
C5_4 C7_4 1_555 1_555

#END
