
###############################################################################
#
# This file contains modified crystal structure data generated from the
# MOF subset of the Cambridge Structural Database (CSD) v543 
# hosted by the Cambridge Crystallographic Data Centre (CCDC).
#
# This work is licensed under the Creative Commons
# Attribution-NonCommercial-ShareAlike 4.0 International License.
# To view a copy of this license, visit
# http://creativecommons.org/licenses/by-nc-sa/4.0/
# or send a letter to
# Creative Commons, PO Box 1866, Mountain View, CA 94042, USA.
#
# CIF created using the CSD Python API on 29 September 2022
# The structure has been converted into the P1 space group
# The structure has a 3D framework
# The original CSD entry SADMUH is in the orthorhombic crystal system
# The framework has been calculated to contain at least 10.0% void space
# The void calculation uses a probe of radius 1.32A, grid spacing 0.4
#
###############################################################################

data_SADMUH
_chemical_formula_moiety         '(C40 H16 Fe4 O20)n'
_symmetry_cell_setting           triclinic
_symmetry_space_group_name_H-M   'P 1'
_symmetry_Int_Tables_number      1
_space_group_name_Hall           'P 1'
loop_
_symmetry_equiv_pos_site_id
_symmetry_equiv_pos_as_xyz
1 x,y,z
_cell_length_a                   15.9624(1)
_cell_length_b                   14.3920(1)
_cell_length_c                   6.9351
_cell_angle_alpha                90
_cell_angle_beta                 90
_cell_angle_gamma                90
_cell_volume                     1593.21
loop_
_atom_site_label
_atom_site_type_symbol
_atom_site_fract_x
_atom_site_fract_y
_atom_site_fract_z
Fe1 Fe 0.7500 0.2500 0.2500
O1 O 0.7500 0.1881(3) 0.0000
O2 O 0.6627 0.3380 0.1586
C1 C 0.5646 0.4357 0.0000
C2 C 0.5323 0.4679 0.1729
C3 C 0.6331 0.3675 0.0000
H1 H 0.5551 0.4451 0.2953
Fe3 Fe 0.2500 0.7500 0.2500
O3 O 0.7500 0.3119(3) 0.5000
O5 O 0.3373 0.6620 0.1586
O7 O 0.6627 0.1620 0.3414
O8 O 0.8373 0.1620 0.3414
O9 O 0.8373 0.3380 0.1586
C4 C 0.4354 0.5643 0.0000
C5 C 0.4677 0.5321 0.1729
C8 C 0.3669 0.6325 0.0000
H4 H 0.4449 0.5549 0.2953
O1_2 O 0.7500 0.1881(3) 1.0000
C1_2 C 0.5646 0.4357 1.0000
C3_2 C 0.6331 0.3675 1.0000
Fe2 Fe 0.7500 0.2500 0.7500
Fe4 Fe 0.2500 0.7500 0.7500
O4 O 0.6627 0.3380 0.8414
O6 O 0.3373 0.6620 0.8414
C4_2 C 0.4354 0.5643 1.0000
C6 C 0.4677 0.5321 0.8271
C7 C 0.5323 0.4679 0.8271
C8_2 C 0.3669 0.6325 1.0000
H2 H 0.5551 0.4451 0.7047
H3 H 0.4449 0.5549 0.7047
O5_2 O 0.1627 0.8380 0.6586
O6_2 O 0.1627 0.8380 0.3414
C4_3 C 0.0646 0.9357 0.5000
C5_2 C 0.0323 0.9679 0.6729
C6_2 C 0.0323 0.9679 0.3271
C8_3 C 0.1331 0.8675 0.5000
H3_2 H 0.0551 0.9451 0.2047
H4_2 H 0.0551 0.9451 0.7953
O2_2 O 0.8373 0.1620 0.6586
C1_3 C 0.9354 0.0643 0.5000
C2_2 C 0.9677 0.0321 0.6729
C3_3 C 0.8669 0.1325 0.5000
H1_2 H 0.9449 0.0549 0.7953
O7_2 O 0.8373 0.3380 0.8414
O9_2 O 0.6627 0.1620 0.6586
C7_2 C 0.9677 0.0321 0.3271
H2_2 H 0.9449 0.0549 0.2047
C1_4 C 0.5646 0.0643 0.5000
C2_3 C 0.5323 0.0321 0.3271
C3_4 C 0.6331 0.1325 0.5000
H1_3 H 0.5551 0.0549 0.2047
C7_3 C 0.5323 0.0321 0.6729
H2_3 H 0.5551 0.0549 0.7953
O5_3 O 0.3373 0.8380 0.3414
O6_3 O 0.3373 0.8380 0.6586
C4_4 C 0.4354 0.9357 0.5000
C5_3 C 0.4677 0.9679 0.3271
C6_3 C 0.4677 0.9679 0.6729
C8_4 C 0.3669 0.8675 0.5000
H3_3 H 0.4449 0.9451 0.7953
H4_3 H 0.4449 0.9451 0.2047
O3_2 O 0.2500 0.8119(3) -0.0000
O1_3 O 0.2500 0.6881(3) 0.5000
O3_3 O 0.2500 0.8119(3) 1.0000
O7_3 O 0.1627 0.6620 0.8414
O9_3 O 0.1627 0.6620 0.1586
C1_5 C 0.0646 0.5643 0.0000
C3_5 C 0.1331 0.6325 0.0000
C7_4 C 0.0323 0.5321 0.1729
H2_4 H 0.0551 0.5549 0.2953
C1_6 C 0.0646 0.5643 1.0000
C2_4 C 0.0323 0.5321 0.8271
C3_6 C 0.1331 0.6325 1.0000
H1_4 H 0.0551 0.5549 0.7047
C4_5 C 0.9354 0.4357 0.0000
C6_4 C 0.9677 0.4679 0.1729
C8_5 C 0.8669 0.3675 0.0000
H3_4 H 0.9449 0.4451 0.2953
C4_6 C 0.9354 0.4357 1.0000
C5_4 C 0.9677 0.4679 0.8271
C8_6 C 0.8669 0.3675 1.0000
H4_4 H 0.9449 0.4451 0.7047
loop_
_geom_bond_atom_site_label_1
_geom_bond_atom_site_label_2
_geom_bond_site_symmetry_1
_geom_bond_site_symmetry_2
Fe1 O1 1_555 1_555
O2 Fe1 1_555 1_555
C1 C2 1_555 1_555
C2 H1 1_555 1_555
C3 O2 1_555 1_555
Fe3 O5 1_555 1_555
O3 Fe1 1_555 1_555
O5 C8 1_555 1_555
O7 Fe1 1_555 1_555
O8 Fe1 1_555 1_555
O9 Fe1 1_555 1_555
C4 C5 1_555 1_555
C5 C2 1_555 1_555
C8 C4 1_555 1_555
H4 C5 1_555 1_555
C1 C3 1_555 1_555
O1_2 Fe2 1_555 1_555
Fe2 O4 1_555 1_555
Fe4 O6 1_555 1_555
O4 C3_2 1_555 1_555
O6 C8_2 1_555 1_555
C6 C4_2 1_555 1_555
C7 C1_2 1_555 1_555
C8_2 C4_2 1_555 1_555
H2 C7 1_555 1_555
H3 C6 1_555 1_555
C1_2 C3_2 1_555 1_555
C6 C7 1_555 1_555
Fe4 O5_2 1_555 1_555
Fe3 O6_2 1_555 1_555
O5_2 C8_3 1_555 1_555
O6_2 C8_3 1_555 1_555
C4_3 C5_2 1_555 1_555
C6_2 C4_3 1_555 1_555
C8_3 C4_3 1_555 1_555
H3_2 C6_2 1_555 1_555
H4_2 C5_2 1_555 1_555
Fe2 O3 1_555 1_555
O2_2 Fe2 1_555 1_555
C1_3 C2_2 1_555 1_555
C2_2 H1_2 1_555 1_555
C3_3 O2_2 1_555 1_555
O8 C3_3 1_555 1_555
O7_2 Fe2 1_555 1_555
O9_2 Fe2 1_555 1_555
C7_2 C1_3 1_555 1_555
H2_2 C7_2 1_555 1_555
C1_3 C3_3 1_555 1_555
C1_4 C2_3 1_555 1_555
C2_3 H1_3 1_555 1_555
C3_4 O7 1_555 1_555
O9_2 C3_4 1_555 1_555
C7_3 C1_4 1_555 1_555
H2_3 C7_3 1_555 1_555
C1_4 C3_4 1_555 1_555
Fe3 O5_3 1_555 1_555
Fe4 O6_3 1_555 1_555
O5_3 C8_4 1_555 1_555
O6_3 C8_4 1_555 1_555
C4_4 C5_3 1_555 1_555
C6_3 C4_4 1_555 1_555
C8_4 C4_4 1_555 1_555
H3_3 C6_3 1_555 1_555
H4_3 C5_3 1_555 1_555
Fe4 O1_3 1_555 1_555
O1_3 Fe3 1_555 1_555
O3_3 Fe4 1_555 1_555
O7_3 Fe4 1_555 1_555
Fe3 O3_2 1_555 1_555
O9_3 Fe3 1_555 1_555
O9_3 C3_5 1_555 1_555
C7_4 C1_5 1_555 1_555
H2_4 C7_4 1_555 1_555
C1_5 C3_5 1_555 1_555
C1_6 C2_4 1_555 1_555
C2_4 H1_4 1_555 1_555
C3_6 O7_3 1_555 1_555
C1_6 C3_6 1_555 1_555
O9 C8_5 1_555 1_555
C6_4 C4_5 1_555 1_555
C8_5 C4_5 1_555 1_555
H3_4 C6_4 1_555 1_555
O7_2 C8_6 1_555 1_555
C4_6 C5_4 1_555 1_555
C8_6 C4_6 1_555 1_555
H4_4 C5_4 1_555 1_555

#END
