
###############################################################################
#
# This file contains modified crystal structure data generated from the
# MOF subset of the Cambridge Structural Database (CSD) v543 
# hosted by the Cambridge Crystallographic Data Centre (CCDC).
#
# This work is licensed under the Creative Commons
# Attribution-NonCommercial-ShareAlike 4.0 International License.
# To view a copy of this license, visit
# http://creativecommons.org/licenses/by-nc-sa/4.0/
# or send a letter to
# Creative Commons, PO Box 1866, Mountain View, CA 94042, USA.
#
# CIF created using the CSD Python API on 29 September 2022
# The structure has been converted into the P1 space group
# The structure has a 3D framework
# The original CSD entry SAFZIL is in the monoclinic crystal system
# The framework has been calculated to contain at least 10.0% void space
# The void calculation uses a probe of radius 1.32A, grid spacing 0.4
#
###############################################################################

data_SAFZIL
_chemical_formula_moiety         '(C320 H192 In8 N16 O64)n'
_symmetry_cell_setting           triclinic
_symmetry_space_group_name_H-M   'P 1'
_symmetry_Int_Tables_number      1
_space_group_name_Hall           'P 1'
loop_
_symmetry_equiv_pos_site_id
_symmetry_equiv_pos_as_xyz
1 x,y,z
_cell_length_a                   26.9793(6)
_cell_length_b                   21.3293(4)
_cell_length_c                   26.4721(5)
_cell_angle_alpha                90
_cell_angle_beta                 97.001(2)
_cell_angle_gamma                90
_cell_volume                     15119.8
loop_
_atom_site_label
_atom_site_type_symbol
_atom_site_fract_x
_atom_site_fract_y
_atom_site_fract_z
In4 In 0.063362(7) 0.876437(9) 0.380541(8)
In1 In 0.563362(7) 0.623563(9) 0.380541(8)
O1 O 0.59653(12) 0.53258(14) 0.36456(10)
O5 O 0.55196(10) 0.57609(11) 0.30089(10)
N1 N 0.61803(13) 0.32519(14) 0.19300(12)
C1 C 0.58941(12) 0.47815(15) 0.28567(12)
C2 C 0.57870(12) 0.53148(16) 0.31828(13)
C3 C 0.59007(15) 0.34556(15) 0.03399(13)
C4 C 0.63947(16) 0.26791(16) 0.21418(13)
C6 C 0.61797(16) 0.38989(17) 0.06333(14)
H1 H 0.6304 0.4256 0.0475
C7 C 0.56534(14) 0.47367(16) 0.23594(13)
H2 H 0.5427 0.5054 0.2227
C8 C 0.60908(13) 0.37654(15) 0.22401(13)
C9 C 0.60894(15) 0.33078(16) 0.13932(14)
C10 C 0.57294(15) 0.29243(16) 0.05825(15)
H3 H 0.5546 0.2610 0.0386
C14 C 0.67258(15) 0.05233(19) 0.29995(19)
H5 H 0.6408 0.0649 0.3083
C15 C 0.67910(15) 0.15393(17) 0.25243(15)
C16 C 0.62770(17) 0.38249(17) 0.11514(15)
H6 H 0.6474 0.4128 0.1348
C18 C 0.69969(14) 0.09287(17) 0.27217(16)
C19 C 0.57479(15) 0.42251(17) 0.20600(13)
H7 H 0.5575 0.4189 0.1726
C24 C 0.63290(15) 0.38145(18) 0.27332(14)
H11 H 0.6560 0.3502 0.2865
C27 C 0.58234(15) 0.28581(16) 0.10940(15)
H12 H 0.5705 0.2496 0.1251
C28 C 0.62281(15) 0.43230(19) 0.30354(13)
H13 H 0.6394 0.4353 0.3372
C30 C 0.74705(17) 0.0733(2) 0.2637(2)
H15 H 0.7674 0.1006 0.2469
C33 C 0.6772(2) 0.2407(3) 0.1939(3)
H18 H 0.6909 0.2603 0.1665
C34 C 0.6965(2) 0.1836(3) 0.2130(3)
H19 H 0.7229 0.1648 0.1977
C37 C 0.76547(18) 0.0144(2) 0.2794(2)
H22 H 0.7977 0.0019 0.2724
C38 C 0.6218(3) 0.2408(3) 0.2555(3)
H23 H 0.5958 0.2603 0.2710
C39 C 0.6427(3) 0.1838(3) 0.2745(3)
H24 H 0.6311 0.1657 0.3037
O9 O 0.59280(14) 0.59406(14) 0.45931(10)
O10 O 0.49070(10) 0.57324(12) 0.39437(12)
O11 O 0.55570(10) 0.68546(11) 0.45053(9)
O12 O 0.48743(10) 0.66018(12) 0.34974(11)
O13 O 0.62702(17) 0.6756(2) 0.37293(16)
O2 O 0.59280(14) 0.40594(14) 0.95931(10)
O4 O 0.55570(10) 0.31454(11) 0.95053(9)
C5 C 0.57868(14) 0.35544(16) 0.97836(14)
In3 In 0.563362(7) 0.376437(9) 0.880541(8)
O3 O 0.99070(10) 0.92676(12) 0.39437(12)
O6 O 0.98743(10) 0.83982(12) 0.34974(11)
N2 N 0.75574(12) 0.91332(15) 0.32007(17)
C11 C 0.96550(14) 0.88562(17) 0.36847(16)
C12 C 0.69800(19) 0.7693(2) 0.3629(2)
H4 H 0.7046 0.7386 0.3888
C13 C 0.80710(14) 0.90540(17) 0.33322(18)
C17 C 0.91036(15) 0.89184(17) 0.35718(17)
C20 C 0.65570(16) 0.7640(2) 0.3289(2)
C21 C 0.83233(15) 0.85397(17) 0.3152(2)
H8 H 0.8141 0.8233 0.2947
C22 C 0.69147(16) 0.99368(18) 0.3156(2)
H9 H 0.6720 0.9669 0.3341
C23 C 0.88569(15) 0.94210(17) 0.37578(18)
H10 H 0.9042 0.9724 0.3966
C25 C 0.73696(15) 0.97378(17) 0.30525(18)
C26 C 0.72279(14) 0.86259(18) 0.32134(18)
C29 C 0.73165(17) 0.8187(2) 0.3607(2)
H14 H 0.7601 0.8224 0.3855
C31 C 0.88296(16) 0.84752(19) 0.3269(2)
H16 H 0.8995 0.8126 0.3142
C32 C 0.83446(15) 0.94895(17) 0.36445(18)
H17 H 0.8180 0.9833 0.3780
C35 C 0.6491(2) 0.8068(2) 0.2903(3)
H20 H 0.6204 0.8028 0.2658
C36 C 0.6807(2) 0.8542(2) 0.2849(3)
H21 H 0.6748 0.8819 0.2567
C40 C 0.61897(15) 0.7150(2) 0.3364(3)
O8 O 0.57619(15) 0.7135(2) 0.3118(3)
In1_2 In 0.063362(7) 0.123563(9) 0.880541(8)
O1_2 O 0.09653(12) 0.03258(14) 0.86456(10)
O5_2 O 0.05196(10) 0.07609(11) 0.80089(10)
C2_2 C 0.07870(12) 0.03148(16) 0.81828(13)
H2_2 H 0.0427 0.0054 0.7227
O9_2 O 0.09280(14) 0.09406(14) 0.95931(10)
O11_2 O 0.05570(10) 0.18546(11) 0.95053(9)
O13_2 O 0.12702(17) 0.1756(2) 0.87293(16)
O2_2 O 0.09280(14) 0.90594(14) 0.45931(10)
O3_2 O 0.49070(10) 0.42676(12) 0.89437(12)
O4_2 O 0.05570(10) 0.81454(11) 0.45053(9)
O6_2 O 0.48743(10) 0.33982(12) 0.84974(11)
N1_2 N 0.11803(13) 0.82519(14) 0.69300(12)
N2_2 N 0.25574(12) 0.41332(15) 0.82007(17)
C1_2 C 0.08941(12) 0.97815(15) 0.78567(12)
C3_2 C 0.09007(15) 0.84556(15) 0.53399(13)
C4_2 C 0.13947(16) 0.76791(16) 0.71418(13)
C5_2 C 0.07868(14) 0.85544(16) 0.47836(14)
C6_2 C 0.11797(16) 0.88989(17) 0.56333(14)
H1_2 H 0.1304 0.9256 0.5475
C7_2 C 0.06534(14) 0.97367(16) 0.73594(13)
C8_2 C 0.10908(13) 0.87654(15) 0.72401(13)
C9_2 C 0.10894(15) 0.83078(16) 0.63932(14)
C10_2 C 0.07294(15) 0.79243(16) 0.55825(15)
H3_2 H 0.0546 0.7610 0.5386
C11_2 C 0.46550(14) 0.38562(17) 0.86847(16)
C12_2 C 0.19800(19) 0.2693(2) 0.8629(2)
H4_2 H 0.2046 0.2386 0.8888
C13_2 C 0.30710(14) 0.40540(17) 0.83322(18)
C14_2 C 0.17258(15) 0.55233(19) 0.79995(19)
H5_2 H 0.1408 0.5649 0.8083
C15_2 C 0.17910(15) 0.65393(17) 0.75243(15)
C16_2 C 0.12770(17) 0.88249(17) 0.61514(15)
H6_2 H 0.1474 0.9128 0.6348
C17_2 C 0.41036(15) 0.39184(17) 0.85718(17)
C18_2 C 0.19969(14) 0.59287(17) 0.77217(16)
C19_2 C 0.07479(15) 0.92251(17) 0.70600(13)
H7_2 H 0.0575 0.9189 0.6726
C20_2 C 0.15570(16) 0.2640(2) 0.8289(2)
C21_2 C 0.33233(15) 0.35397(17) 0.8152(2)
H8_2 H 0.3141 0.3233 0.7947
C22_2 C 0.19147(16) 0.49368(18) 0.8156(2)
H9_2 H 0.1720 0.4669 0.8341
C23_2 C 0.38569(15) 0.44210(17) 0.87578(18)
H10_2 H 0.4042 0.4724 0.8966
C24_2 C 0.13290(15) 0.88145(18) 0.77332(14)
H11_2 H 0.1560 0.8502 0.7865
C25_2 C 0.23696(15) 0.47378(17) 0.80525(18)
C26_2 C 0.22279(14) 0.36259(18) 0.82134(18)
C27_2 C 0.08234(15) 0.78581(16) 0.60940(15)
H12_2 H 0.0705 0.7496 0.6251
C28_2 C 0.12281(15) 0.93230(19) 0.80354(13)
H13_2 H 0.1394 0.9353 0.8372
C29_2 C 0.23165(17) 0.3187(2) 0.8607(2)
H14_2 H 0.2601 0.3224 0.8855
C30_2 C 0.24705(17) 0.5733(2) 0.7637(2)
H15_2 H 0.2674 0.6006 0.7469
C31_2 C 0.38296(16) 0.34752(19) 0.8269(2)
H16_2 H 0.3995 0.3126 0.8142
C32_2 C 0.33446(15) 0.44895(17) 0.86445(18)
H17_2 H 0.3180 0.4833 0.8780
C33_2 C 0.1772(2) 0.7407(3) 0.6939(3)
H18_2 H 0.1909 0.7603 0.6665
C34_2 C 0.1965(2) 0.6836(3) 0.7130(3)
H19_2 H 0.2229 0.6648 0.6977
C35_2 C 0.1491(2) 0.3068(2) 0.7903(3)
H20_2 H 0.1204 0.3028 0.7658
C36_2 C 0.1807(2) 0.3542(2) 0.7849(3)
H21_2 H 0.1748 0.3819 0.7567
C37_2 C 0.26547(18) 0.5144(2) 0.7794(2)
H22_2 H 0.2977 0.5019 0.7724
C38_2 C 0.1218(3) 0.7408(3) 0.7555(3)
H23_2 H 0.0958 0.7603 0.7710
C39_2 C 0.1427(3) 0.6838(3) 0.7745(3)
H24_2 H 0.1311 0.6657 0.8037
C40_2 C 0.11897(15) 0.2150(2) 0.8364(3)
O8_2 O 0.07619(15) 0.2135(2) 0.8118(3)
O10_2 O 0.99070(10) 0.07324(12) 0.89437(12)
O12_2 O 0.98743(10) 0.16018(12) 0.84974(11)
N2_3 N 0.75574(12) 0.08668(15) 0.82007(17)
C11_3 C 0.96550(14) 0.11438(17) 0.86847(16)
C12_3 C 0.69800(19) 0.2307(2) 0.8629(2)
H4_3 H 0.7046 0.2614 0.8888
C13_3 C 0.80710(14) 0.09460(17) 0.83322(18)
C17_3 C 0.91036(15) 0.10816(17) 0.85718(17)
C20_3 C 0.65570(16) 0.2360(2) 0.8289(2)
C21_3 C 0.83233(15) 0.14603(17) 0.8152(2)
H8_3 H 0.8141 0.1767 0.7947
C22_3 C 0.69147(16) 0.00632(18) 0.8156(2)
H9_3 H 0.6720 0.0331 0.8341
C23_3 C 0.88569(15) 0.05790(17) 0.87578(18)
H10_3 H 0.9042 0.0276 0.8966
C25_3 C 0.73696(15) 0.02622(17) 0.80525(18)
C26_3 C 0.72279(14) 0.13741(18) 0.82134(18)
C29_3 C 0.73165(17) 0.1813(2) 0.8607(2)
H14_3 H 0.7601 0.1776 0.8855
C31_3 C 0.88296(16) 0.15248(19) 0.8269(2)
H16_3 H 0.8995 0.1874 0.8142
C32_3 C 0.83446(15) 0.05105(17) 0.86445(18)
H17_3 H 0.8180 0.0167 0.8780
C35_3 C 0.6491(2) 0.1932(2) 0.7903(3)
H20_3 H 0.6204 0.1972 0.7658
C36_3 C 0.6807(2) 0.1458(2) 0.7849(3)
H21_3 H 0.6748 0.1181 0.7567
O7 O 0.62702(17) 0.3244(2) 0.87293(16)
C40_3 C 0.61897(15) 0.2850(2) 0.8364(3)
O8_3 O 0.57619(15) 0.2865(2) 0.8118(3)
O1_3 O 0.59653(12) 0.46742(14) 0.86456(10)
O5_3 O 0.55196(10) 0.42391(11) 0.80089(10)
N1_3 N 0.61803(13) 0.67481(14) 0.69300(12)
C1_3 C 0.58941(12) 0.52185(15) 0.78567(12)
C2_3 C 0.57870(12) 0.46852(16) 0.81828(13)
C3_3 C 0.59007(15) 0.65444(15) 0.53399(13)
C4_3 C 0.63947(16) 0.73209(16) 0.71418(13)
C5_3 C 0.57868(14) 0.64456(16) 0.47836(14)
C6_3 C 0.61797(16) 0.61011(17) 0.56333(14)
H1_3 H 0.6304 0.5744 0.5475
C7_3 C 0.56534(14) 0.52633(16) 0.73594(13)
H2_3 H 0.5427 0.4946 0.7227
C8_3 C 0.60908(13) 0.62346(15) 0.72401(13)
C9_3 C 0.60894(15) 0.66922(16) 0.63932(14)
C10_3 C 0.57294(15) 0.70757(16) 0.55825(15)
H3_3 H 0.5546 0.7390 0.5386
C14_3 C 0.67258(15) 0.94767(19) 0.79995(19)
H5_3 H 0.6408 0.9351 0.8083
C15_3 C 0.67910(15) 0.84607(17) 0.75243(15)
C16_3 C 0.62770(17) 0.61751(17) 0.61514(15)
H6_3 H 0.6474 0.5872 0.6348
C18_3 C 0.69969(14) 0.90713(17) 0.77217(16)
C19_3 C 0.57479(15) 0.57749(17) 0.70600(13)
H7_3 H 0.5575 0.5811 0.6726
C24_3 C 0.63290(15) 0.61855(18) 0.77332(14)
H11_3 H 0.6560 0.6498 0.7865
C27_3 C 0.58234(15) 0.71419(16) 0.60940(15)
H12_3 H 0.5705 0.7504 0.6251
C28_3 C 0.62281(15) 0.56770(19) 0.80354(13)
H13_3 H 0.6394 0.5647 0.8372
C30_3 C 0.74705(17) 0.9267(2) 0.7637(2)
H15_3 H 0.7674 0.8994 0.7469
C33_3 C 0.6772(2) 0.7593(3) 0.6939(3)
H18_3 H 0.6909 0.7397 0.6665
C34_3 C 0.6965(2) 0.8164(3) 0.7130(3)
H19_3 H 0.7229 0.8352 0.6977
C37_3 C 0.76547(18) 0.9856(2) 0.7794(2)
H22_3 H 0.7977 0.9981 0.7724
C38_3 C 0.6218(3) 0.7592(3) 0.7555(3)
H23_3 H 0.5958 0.7397 0.7710
C39_3 C 0.6427(3) 0.8162(3) 0.7745(3)
H24_3 H 0.6311 0.8343 0.8037
N1_4 N 0.11803(13) 0.17481(14) 0.19300(12)
N2_4 N 0.25574(12) 0.58668(15) 0.32007(17)
C1_4 C 0.08941(12) 0.02185(15) 0.28567(12)
C3_4 C 0.09007(15) 0.15444(15) 0.03399(13)
C4_4 C 0.13947(16) 0.23209(16) 0.21418(13)
C6_4 C 0.11797(16) 0.11011(17) 0.06333(14)
H1_4 H 0.1304 0.0744 0.0475
C7_4 C 0.06534(14) 0.02633(16) 0.23594(13)
C8_4 C 0.10908(13) 0.12346(15) 0.22401(13)
C9_4 C 0.10894(15) 0.16922(16) 0.13932(14)
C10_4 C 0.07294(15) 0.20757(16) 0.05825(15)
H3_4 H 0.0546 0.2390 0.0386
C11_4 C 0.46550(14) 0.61438(17) 0.36847(16)
C12_4 C 0.19800(19) 0.7307(2) 0.3629(2)
H4_4 H 0.2046 0.7614 0.3888
C13_4 C 0.30710(14) 0.59460(17) 0.33322(18)
C14_4 C 0.17258(15) 0.44767(19) 0.29995(19)
H5_4 H 0.1408 0.4351 0.3083
C15_4 C 0.17910(15) 0.34607(17) 0.25243(15)
C16_4 C 0.12770(17) 0.11751(17) 0.11514(15)
H6_4 H 0.1474 0.0872 0.1348
C17_4 C 0.41036(15) 0.60816(17) 0.35718(17)
C18_4 C 0.19969(14) 0.40713(17) 0.27217(16)
C19_4 C 0.07479(15) 0.07749(17) 0.20600(13)
H7_4 H 0.0575 0.0811 0.1726
C20_4 C 0.15570(16) 0.7360(2) 0.3289(2)
C21_4 C 0.33233(15) 0.64603(17) 0.3152(2)
H8_4 H 0.3141 0.6767 0.2947
C22_4 C 0.19147(16) 0.50632(18) 0.3156(2)
H9_4 H 0.1720 0.5331 0.3341
C23_4 C 0.38569(15) 0.55790(17) 0.37578(18)
H10_4 H 0.4042 0.5276 0.3966
C24_4 C 0.13290(15) 0.11855(18) 0.27332(14)
H11_4 H 0.1560 0.1498 0.2865
C25_4 C 0.23696(15) 0.52622(17) 0.30525(18)
C26_4 C 0.22279(14) 0.63741(18) 0.32134(18)
C27_4 C 0.08234(15) 0.21419(16) 0.10940(15)
H12_4 H 0.0705 0.2504 0.1251
C28_4 C 0.12281(15) 0.06770(19) 0.30354(13)
H13_4 H 0.1394 0.0647 0.3372
C29_4 C 0.23165(17) 0.6813(2) 0.3607(2)
H14_4 H 0.2601 0.6776 0.3855
C30_4 C 0.24705(17) 0.4267(2) 0.2637(2)
H15_4 H 0.2674 0.3994 0.2469
C31_4 C 0.38296(16) 0.65248(19) 0.3269(2)
H16_4 H 0.3995 0.6874 0.3142
C32_4 C 0.33446(15) 0.55105(17) 0.36445(18)
H17_4 H 0.3180 0.5167 0.3780
C33_4 C 0.1772(2) 0.2593(3) 0.1939(3)
H18_4 H 0.1909 0.2397 0.1665
C34_4 C 0.1965(2) 0.3164(3) 0.2130(3)
H19_4 H 0.2229 0.3352 0.1977
C35_4 C 0.1491(2) 0.6932(2) 0.2903(3)
H20_4 H 0.1204 0.6972 0.2658
C36_4 C 0.1807(2) 0.6458(2) 0.2849(3)
H21_4 H 0.1748 0.6181 0.2567
C37_4 C 0.26547(18) 0.4856(2) 0.2794(2)
H22_4 H 0.2977 0.4981 0.2724
C38_4 C 0.1218(3) 0.2592(3) 0.2555(3)
H23_4 H 0.0958 0.2397 0.2710
C39_4 C 0.1427(3) 0.3162(3) 0.2745(3)
H24_4 H 0.1311 0.3343 0.3037
O7_2 O 0.12702(17) 0.8244(2) 0.37293(16)
C40_4 C 0.11897(15) 0.7850(2) 0.3364(3)
O8_4 O 0.07619(15) 0.7865(2) 0.3118(3)
C5_4 C 0.07868(14) 0.14456(16) 0.97836(14)
O1_4 O 0.09653(12) 0.96742(14) 0.36456(10)
O5_4 O 0.05196(10) 0.92391(11) 0.30089(10)
C2_4 C 0.07870(12) 0.96852(16) 0.31828(13)
H2_4 H 0.0427 0.9946 0.2227
In1_3 In 0.436638(7) 0.623563(9) 0.119459(8)
O1_5 O 0.40347(12) 0.53258(14) 0.13544(10)
O2_3 O 0.40720(14) 0.40594(14) 0.54069(10)
O4_3 O 0.44430(10) 0.31454(11) 0.54947(9)
O5_5 O 0.44804(10) 0.57609(11) 0.19911(10)
N1_5 N 0.38197(13) 0.32519(14) 0.30700(12)
C1_5 C 0.41059(12) 0.47815(15) 0.21433(12)
C2_5 C 0.42130(12) 0.53148(16) 0.18172(13)
C3_5 C 0.40993(15) 0.34556(15) 0.46601(13)
C4_5 C 0.36053(16) 0.26791(16) 0.28582(13)
C5_5 C 0.42132(14) 0.35544(16) 0.52164(14)
C6_5 C 0.38203(16) 0.38989(17) 0.43667(14)
H1_5 H 0.3696 0.4256 0.4525
C7_5 C 0.43466(14) 0.47367(16) 0.26406(13)
H2_5 H 0.4573 0.5054 0.2773
C8_5 C 0.39092(13) 0.37654(15) 0.27599(13)
C9_5 C 0.39106(15) 0.33078(16) 0.36068(14)
C10_5 C 0.42706(15) 0.29243(16) 0.44175(15)
H3_5 H 0.4454 0.2610 0.4614
C14_5 C 0.32742(15) 0.05233(19) 0.20005(19)
H5_5 H 0.3592 0.0649 0.1917
C15_5 C 0.32090(15) 0.15393(17) 0.24757(15)
C16_5 C 0.37230(17) 0.38249(17) 0.38486(15)
H6_5 H 0.3526 0.4128 0.3652
C18_5 C 0.30031(14) 0.09287(17) 0.22783(16)
C19_5 C 0.42521(15) 0.42251(17) 0.29400(13)
H7_5 H 0.4425 0.4189 0.3274
C24_5 C 0.36710(15) 0.38145(18) 0.22668(14)
H11_5 H 0.3440 0.3502 0.2135
C27_5 C 0.41766(15) 0.28581(16) 0.39060(15)
H12_5 H 0.4295 0.2496 0.3749
C28_5 C 0.37719(15) 0.43230(19) 0.19646(13)
H13_5 H 0.3606 0.4353 0.1628
C30_5 C 0.25295(17) 0.0733(2) 0.2363(2)
H15_5 H 0.2326 0.1006 0.2531
C33_5 C 0.3228(2) 0.2407(3) 0.3061(3)
H18_5 H 0.3091 0.2603 0.3335
C34_5 C 0.3035(2) 0.1836(3) 0.2870(3)
H19_5 H 0.2771 0.1648 0.3023
C37_5 C 0.23453(18) 0.0144(2) 0.2206(2)
H22_5 H 0.2023 0.0019 0.2276
C38_5 C 0.3782(3) 0.2408(3) 0.2445(3)
H23_5 H 0.4042 0.2603 0.2290
C39_5 C 0.3573(3) 0.1838(3) 0.2255(3)
H24_5 H 0.3689 0.1657 0.1963
In3_2 In 0.436638(7) 0.376437(9) 0.619459(8)
O9_3 O 0.40720(14) 0.59406(14) 0.04069(10)
O10_3 O 0.50930(10) 0.57324(12) 0.10563(12)
O11_3 O 0.44430(10) 0.68546(11) 0.04947(9)
O12_3 O 0.51257(10) 0.66018(12) 0.15026(11)
O13_3 O 0.37298(17) 0.6756(2) 0.12707(16)
O3_3 O 0.00930(10) 0.92676(12) 0.10563(12)
O6_3 O 0.01257(10) 0.83982(12) 0.15026(11)
N2_5 N 0.24426(12) 0.91332(15) 0.17993(17)
C11_5 C 0.03450(14) 0.88562(17) 0.13153(16)
C12_5 C 0.30200(19) 0.7693(2) 0.1371(2)
H4_5 H 0.2954 0.7386 0.1112
C13_5 C 0.19290(14) 0.90540(17) 0.16678(18)
C17_5 C 0.08964(15) 0.89184(17) 0.14282(17)
C20_5 C 0.34430(16) 0.7640(2) 0.1711(2)
C21_5 C 0.16767(15) 0.85397(17) 0.1848(2)
H8_5 H 0.1859 0.8233 0.2053
C22_5 C 0.30853(16) 0.99368(18) 0.1844(2)
H9_5 H 0.3280 0.9669 0.1659
C23_5 C 0.11431(15) 0.94210(17) 0.12422(18)
H10_5 H 0.0958 0.9724 0.1034
C25_5 C 0.26304(15) 0.97378(17) 0.19475(18)
C26_5 C 0.27721(14) 0.86259(18) 0.17866(18)
C29_5 C 0.26835(17) 0.8187(2) 0.1393(2)
H14_5 H 0.2399 0.8224 0.1145
C31_5 C 0.11704(16) 0.84752(19) 0.1731(2)
H16_5 H 0.1005 0.8126 0.1858
C32_5 C 0.16554(15) 0.94895(17) 0.13555(18)
H17_5 H 0.1820 0.9833 0.1220
C35_5 C 0.3509(2) 0.8068(2) 0.2097(3)
H20_5 H 0.3796 0.8028 0.2342
C36_5 C 0.3193(2) 0.8542(2) 0.2151(3)
H21_5 H 0.3252 0.8819 0.2433
C40_5 C 0.38103(15) 0.7150(2) 0.1636(3)
O8_5 O 0.42381(15) 0.7135(2) 0.1882(3)
In4_2 In 0.936638(7) 0.876437(9) 0.119459(8)
O10_4 O 0.00930(10) 0.07324(12) 0.60563(12)
O12_4 O 0.01257(10) 0.16018(12) 0.65026(11)
In1_4 In 0.936638(7) 0.123563(9) 0.619459(8)
O1_6 O 0.90347(12) 0.03258(14) 0.63544(10)
O5_6 O 0.94804(10) 0.07609(11) 0.69911(10)
C2_6 C 0.92130(12) 0.03148(16) 0.68172(13)
H2_6 H 0.9573 0.0054 0.7773
O9_4 O 0.90720(14) 0.09406(14) 0.54069(10)
O11_4 O 0.94430(10) 0.18546(11) 0.54947(9)
O13_4 O 0.87298(17) 0.1756(2) 0.62707(16)
O2_4 O 0.90720(14) 0.90594(14) 0.04069(10)
O4_4 O 0.94430(10) 0.81454(11) 0.04947(9)
C5_6 C 0.92132(14) 0.85544(16) 0.02164(14)
O3_4 O 0.50930(10) 0.42676(12) 0.60563(12)
O6_4 O 0.51257(10) 0.33982(12) 0.65026(11)
N1_6 N 0.88197(13) 0.82519(14) 0.80700(12)
N2_6 N 0.74426(12) 0.41332(15) 0.67993(17)
C1_6 C 0.91059(12) 0.97815(15) 0.71433(12)
C3_6 C 0.90993(15) 0.84556(15) 0.96601(13)
C4_6 C 0.86053(16) 0.76791(16) 0.78582(13)
C6_6 C 0.88203(16) 0.88989(17) 0.93667(14)
H1_6 H 0.8696 0.9256 0.9525
C7_6 C 0.93466(14) 0.97367(16) 0.76406(13)
C8_6 C 0.89092(13) 0.87654(15) 0.77599(13)
C9_6 C 0.89106(15) 0.83078(16) 0.86068(14)
C10_6 C 0.92706(15) 0.79243(16) 0.94175(15)
H3_6 H 0.9454 0.7610 0.9614
C11_6 C 0.53450(14) 0.38562(17) 0.63153(16)
C12_6 C 0.80200(19) 0.2693(2) 0.6371(2)
H4_6 H 0.7954 0.2386 0.6112
C13_6 C 0.69290(14) 0.40540(17) 0.66678(18)
C14_6 C 0.82742(15) 0.55233(19) 0.70005(19)
H5_6 H 0.8592 0.5649 0.6917
C15_6 C 0.82090(15) 0.65393(17) 0.74757(15)
C16_6 C 0.87230(17) 0.88249(17) 0.88486(15)
H6_6 H 0.8526 0.9128 0.8652
C17_6 C 0.58964(15) 0.39184(17) 0.64282(17)
C18_6 C 0.80031(14) 0.59287(17) 0.72783(16)
C19_6 C 0.92521(15) 0.92251(17) 0.79400(13)
H7_6 H 0.9425 0.9189 0.8274
C20_6 C 0.84430(16) 0.2640(2) 0.6711(2)
C21_6 C 0.66767(15) 0.35397(17) 0.6848(2)
H8_6 H 0.6859 0.3233 0.7053
C22_6 C 0.80853(16) 0.49368(18) 0.6844(2)
H9_6 H 0.8280 0.4669 0.6659
C23_6 C 0.61431(15) 0.44210(17) 0.62422(18)
H10_6 H 0.5958 0.4724 0.6034
C24_6 C 0.86710(15) 0.88145(18) 0.72668(14)
H11_6 H 0.8440 0.8502 0.7135
C25_6 C 0.76304(15) 0.47378(17) 0.69475(18)
C26_6 C 0.77721(14) 0.36259(18) 0.67866(18)
C27_6 C 0.91766(15) 0.78581(16) 0.89060(15)
H12_6 H 0.9295 0.7496 0.8749
C28_6 C 0.87719(15) 0.93230(19) 0.69646(13)
H13_6 H 0.8606 0.9353 0.6628
C29_6 C 0.76835(17) 0.3187(2) 0.6393(2)
H14_6 H 0.7399 0.3224 0.6145
C30_6 C 0.75295(17) 0.5733(2) 0.7363(2)
H15_6 H 0.7326 0.6006 0.7531
C31_6 C 0.61704(16) 0.34752(19) 0.6731(2)
H16_6 H 0.6005 0.3126 0.6858
C32_6 C 0.66554(15) 0.44895(17) 0.63555(18)
H17_6 H 0.6820 0.4833 0.6220
C33_6 C 0.8228(2) 0.7407(3) 0.8061(3)
H18_6 H 0.8091 0.7603 0.8335
C34_6 C 0.8035(2) 0.6836(3) 0.7870(3)
H19_6 H 0.7771 0.6648 0.8023
C35_6 C 0.8509(2) 0.3068(2) 0.7097(3)
H20_6 H 0.8796 0.3028 0.7342
C36_6 C 0.8193(2) 0.3542(2) 0.7151(3)
H21_6 H 0.8252 0.3819 0.7433
C37_6 C 0.73453(18) 0.5144(2) 0.7206(2)
H22_6 H 0.7023 0.5019 0.7276
C38_6 C 0.8782(3) 0.7408(3) 0.7445(3)
H23_6 H 0.9042 0.7603 0.7290
C39_6 C 0.8573(3) 0.6838(3) 0.7255(3)
H24_6 H 0.8689 0.6657 0.6963
C40_6 C 0.88103(15) 0.2150(2) 0.6636(3)
O8_6 O 0.92381(15) 0.2135(2) 0.6882(3)
N2_7 N 0.24426(12) 0.08668(15) 0.67993(17)
C11_7 C 0.03450(14) 0.11438(17) 0.63153(16)
C12_7 C 0.30200(19) 0.2307(2) 0.6371(2)
H4_7 H 0.2954 0.2614 0.6112
C13_7 C 0.19290(14) 0.09460(17) 0.66678(18)
C17_7 C 0.08964(15) 0.10816(17) 0.64282(17)
C20_7 C 0.34430(16) 0.2360(2) 0.6711(2)
C21_7 C 0.16767(15) 0.14603(17) 0.6848(2)
H8_7 H 0.1859 0.1767 0.7053
C22_7 C 0.30853(16) 0.00632(18) 0.6844(2)
H9_7 H 0.3280 0.0331 0.6659
C23_7 C 0.11431(15) 0.05790(17) 0.62422(18)
H10_7 H 0.0958 0.0276 0.6034
C25_7 C 0.26304(15) 0.02622(17) 0.69475(18)
C26_7 C 0.27721(14) 0.13741(18) 0.67866(18)
C29_7 C 0.26835(17) 0.1813(2) 0.6393(2)
H14_7 H 0.2399 0.1776 0.6145
C31_7 C 0.11704(16) 0.15248(19) 0.6731(2)
H16_7 H 0.1005 0.1874 0.6858
C32_7 C 0.16554(15) 0.05105(17) 0.63555(18)
H17_7 H 0.1820 0.0167 0.6220
C35_7 C 0.3509(2) 0.1932(2) 0.7097(3)
H20_7 H 0.3796 0.1972 0.7342
C36_7 C 0.3193(2) 0.1458(2) 0.7151(3)
H21_7 H 0.3252 0.1181 0.7433
O7_3 O 0.37298(17) 0.3244(2) 0.62707(16)
C40_7 C 0.38103(15) 0.2850(2) 0.6636(3)
O8_7 O 0.42381(15) 0.2865(2) 0.6882(3)
C5_7 C 0.42132(14) 0.64456(16) 0.02164(14)
O1_7 O 0.40347(12) 0.46742(14) 0.63544(10)
O5_7 O 0.44804(10) 0.42391(11) 0.69911(10)
N1_7 N 0.38197(13) 0.67481(14) 0.80700(12)
C1_7 C 0.41059(12) 0.52185(15) 0.71433(12)
C2_7 C 0.42130(12) 0.46852(16) 0.68172(13)
C3_7 C 0.40993(15) 0.65444(15) 0.96601(13)
C4_7 C 0.36053(16) 0.73209(16) 0.78582(13)
C6_7 C 0.38203(16) 0.61011(17) 0.93667(14)
H1_7 H 0.3696 0.5744 0.9525
C7_7 C 0.43466(14) 0.52633(16) 0.76406(13)
H2_7 H 0.4573 0.4946 0.7773
C8_7 C 0.39092(13) 0.62346(15) 0.77599(13)
C9_7 C 0.39106(15) 0.66922(16) 0.86068(14)
C10_7 C 0.42706(15) 0.70757(16) 0.94175(15)
H3_7 H 0.4454 0.7390 0.9614
C14_7 C 0.32742(15) 0.94767(19) 0.70005(19)
H5_7 H 0.3592 0.9351 0.6917
C15_7 C 0.32090(15) 0.84607(17) 0.74757(15)
C16_7 C 0.37230(17) 0.61751(17) 0.88486(15)
H6_7 H 0.3526 0.5872 0.8652
C18_7 C 0.30031(14) 0.90713(17) 0.72783(16)
C19_7 C 0.42521(15) 0.57749(17) 0.79400(13)
H7_7 H 0.4425 0.5811 0.8274
C24_7 C 0.36710(15) 0.61855(18) 0.72668(14)
H11_7 H 0.3440 0.6498 0.7135
C27_7 C 0.41766(15) 0.71419(16) 0.89060(15)
H12_7 H 0.4295 0.7504 0.8749
C28_7 C 0.37719(15) 0.56770(19) 0.69646(13)
H13_7 H 0.3606 0.5647 0.6628
C30_7 C 0.25295(17) 0.9267(2) 0.7363(2)
H15_7 H 0.2326 0.8994 0.7531
C33_7 C 0.3228(2) 0.7593(3) 0.8061(3)
H18_7 H 0.3091 0.7397 0.8335
C34_7 C 0.3035(2) 0.8164(3) 0.7870(3)
H19_7 H 0.2771 0.8352 0.8023
C37_7 C 0.23453(18) 0.9856(2) 0.7206(2)
H22_7 H 0.2023 0.9981 0.7276
C38_7 C 0.3782(3) 0.7592(3) 0.7445(3)
H23_7 H 0.4042 0.7397 0.7290
C39_7 C 0.3573(3) 0.8162(3) 0.7255(3)
H24_7 H 0.3689 0.8343 0.6963
N1_8 N 0.88197(13) 0.17481(14) 0.30700(12)
N2_8 N 0.74426(12) 0.58668(15) 0.17993(17)
C1_8 C 0.91059(12) 0.02185(15) 0.21433(12)
C3_8 C 0.90993(15) 0.15444(15) 0.46601(13)
C4_8 C 0.86053(16) 0.23209(16) 0.28582(13)
C5_8 C 0.92132(14) 0.14456(16) 0.52164(14)
C6_8 C 0.88203(16) 0.11011(17) 0.43667(14)
H1_8 H 0.8696 0.0744 0.4525
C7_8 C 0.93466(14) 0.02633(16) 0.26406(13)
C8_8 C 0.89092(13) 0.12346(15) 0.27599(13)
C9_8 C 0.89106(15) 0.16922(16) 0.36068(14)
C10_8 C 0.92706(15) 0.20757(16) 0.44175(15)
H3_8 H 0.9454 0.2390 0.4614
C11_8 C 0.53450(14) 0.61438(17) 0.13153(16)
C12_8 C 0.80200(19) 0.7307(2) 0.1371(2)
H4_8 H 0.7954 0.7614 0.1112
C13_8 C 0.69290(14) 0.59460(17) 0.16678(18)
C14_8 C 0.82742(15) 0.44767(19) 0.20005(19)
H5_8 H 0.8592 0.4351 0.1917
C15_8 C 0.82090(15) 0.34607(17) 0.24757(15)
C16_8 C 0.87230(17) 0.11751(17) 0.38486(15)
H6_8 H 0.8526 0.0872 0.3652
C17_8 C 0.58964(15) 0.60816(17) 0.14282(17)
C18_8 C 0.80031(14) 0.40713(17) 0.22783(16)
C19_8 C 0.92521(15) 0.07749(17) 0.29400(13)
H7_8 H 0.9425 0.0811 0.3274
C20_8 C 0.84430(16) 0.7360(2) 0.1711(2)
C21_8 C 0.66767(15) 0.64603(17) 0.1848(2)
H8_8 H 0.6859 0.6767 0.2053
C22_8 C 0.80853(16) 0.50632(18) 0.1844(2)
H9_8 H 0.8280 0.5331 0.1659
C23_8 C 0.61431(15) 0.55790(17) 0.12422(18)
H10_8 H 0.5958 0.5276 0.1034
C24_8 C 0.86710(15) 0.11855(18) 0.22668(14)
H11_8 H 0.8440 0.1498 0.2135
C25_8 C 0.76304(15) 0.52622(17) 0.19475(18)
C26_8 C 0.77721(14) 0.63741(18) 0.17866(18)
C27_8 C 0.91766(15) 0.21419(16) 0.39060(15)
H12_8 H 0.9295 0.2504 0.3749
C28_8 C 0.87719(15) 0.06770(19) 0.19646(13)
H13_8 H 0.8606 0.0647 0.1628
C29_8 C 0.76835(17) 0.6813(2) 0.1393(2)
H14_8 H 0.7399 0.6776 0.1145
C30_8 C 0.75295(17) 0.4267(2) 0.2363(2)
H15_8 H 0.7326 0.3994 0.2531
C31_8 C 0.61704(16) 0.65248(19) 0.1731(2)
H16_8 H 0.6005 0.6874 0.1858
C32_8 C 0.66554(15) 0.55105(17) 0.13555(18)
H17_8 H 0.6820 0.5167 0.1220
C33_8 C 0.8228(2) 0.2593(3) 0.3061(3)
H18_8 H 0.8091 0.2397 0.3335
C34_8 C 0.8035(2) 0.3164(3) 0.2870(3)
H19_8 H 0.7771 0.3352 0.3023
C35_8 C 0.8509(2) 0.6932(2) 0.2097(3)
H20_8 H 0.8796 0.6972 0.2342
C36_8 C 0.8193(2) 0.6458(2) 0.2151(3)
H21_8 H 0.8252 0.6181 0.2433
C37_8 C 0.73453(18) 0.4856(2) 0.2206(2)
H22_8 H 0.7023 0.4981 0.2276
C38_8 C 0.8782(3) 0.2592(3) 0.2445(3)
H23_8 H 0.9042 0.2397 0.2290
C39_8 C 0.8573(3) 0.3162(3) 0.2255(3)
H24_8 H 0.8689 0.3343 0.1963
O7_4 O 0.87298(17) 0.8244(2) 0.12707(16)
C40_8 C 0.88103(15) 0.7850(2) 0.1636(3)
O8_8 O 0.92381(15) 0.7865(2) 0.1882(3)
O1_8 O 0.90347(12) 0.96742(14) 0.13544(10)
O5_8 O 0.94804(10) 0.92391(11) 0.19911(10)
C2_8 C 0.92130(12) 0.96852(16) 0.18172(13)
H2_8 H 0.9573 0.9946 0.2773
loop_
_geom_bond_atom_site_label_1
_geom_bond_atom_site_label_2
_geom_bond_site_symmetry_1
_geom_bond_site_symmetry_2
In1 O1 1_555 1_555
O1 C2 1_555 1_555
O5 In1 1_555 1_555
N1 C4 1_555 1_555
C1 C2 1_555 1_555
C2 O5 1_555 1_555
C4 C33 1_555 1_555
C6 C3 1_555 1_555
H1 C6 1_555 1_555
C7 C1 1_555 1_555
H2 C7 1_555 1_555
C8 N1 1_555 1_555
C9 N1 1_555 1_555
C10 C3 1_555 1_555
H3 C10 1_555 1_555
C14 H5 1_555 1_555
C15 C18 1_555 1_555
C16 C6 1_555 1_555
H6 C16 1_555 1_555
C18 C14 1_555 1_555
C19 C7 1_555 1_555
H7 C19 1_555 1_555
C24 C8 1_555 1_555
H11 C24 1_555 1_555
C27 C9 1_555 1_555
H12 C27 1_555 1_555
C28 C1 1_555 1_555
H13 C28 1_555 1_555
C30 C18 1_555 1_555
H15 C30 1_555 1_555
C33 H18 1_555 1_555
C34 C15 1_555 1_555
H19 C34 1_555 1_555
H22 C37 1_555 1_555
C38 C4 1_555 1_555
H23 C38 1_555 1_555
C39 C15 1_555 1_555
H24 C39 1_555 1_555
O9 In1 1_555 1_555
O10 In1 1_555 1_555
O11 In1 1_555 1_555
O12 In1 1_555 1_555
O13 In1 1_555 1_555
C8 C19 1_555 1_555
C9 C16 1_555 1_555
C10 C27 1_555 1_555
C24 C28 1_555 1_555
C30 C37 1_555 1_555
C33 C34 1_555 1_555
C38 C39 1_555 1_555
O2 C5 1_555 1_555
O4 C5 1_555 1_555
In3 O2 1_555 1_555
O4 In3 1_555 1_555
O3 C11 1_555 1_555
O6 C11 1_555 1_555
N2 C13 1_555 1_555
C11 C17 1_555 1_555
C12 H4 1_555 1_555
C13 C21 1_555 1_555
C17 C23 1_555 1_555
C20 C12 1_555 1_555
C21 H8 1_555 1_555
H9 C22 1_555 1_555
C23 H10 1_555 1_555
C25 N2 1_555 1_555
C26 N2 1_555 1_555
C29 C12 1_555 1_555
H14 C29 1_555 1_555
C31 C17 1_555 1_555
H16 C31 1_555 1_555
C32 C13 1_555 1_555
H17 C32 1_555 1_555
C35 C20 1_555 1_555
H20 C35 1_555 1_555
C36 C26 1_555 1_555
H21 C36 1_555 1_555
O13 C40 1_555 1_555
C40 C20 1_555 1_555
O8 C40 1_555 1_555
C21 C31 1_555 1_555
C22 C25 1_555 1_555
C23 C32 1_555 1_555
C26 C29 1_555 1_555
C35 C36 1_555 1_555
In1_2 O1_2 1_555 1_555
O1_2 C2_2 1_555 1_555
O5_2 In1_2 1_555 1_555
C2_2 O5_2 1_555 1_555
O9_2 In1_2 1_555 1_555
O11_2 In1_2 1_555 1_555
O13_2 In1_2 1_555 1_555
O2_2 C5_2 1_555 1_555
O3_2 C11_2 1_555 1_555
O4_2 C5_2 1_555 1_555
O6_2 C11_2 1_555 1_555
N1_2 C4_2 1_555 1_555
N2_2 C13_2 1_555 1_555
C3_2 C5_2 1_555 1_555
C4_2 C33_2 1_555 1_555
C6_2 C3_2 1_555 1_555
H1_2 C6_2 1_555 1_555
C7_2 C1_2 1_555 1_555
C8_2 N1_2 1_555 1_555
C9_2 N1_2 1_555 1_555
C10_2 C3_2 1_555 1_555
H3_2 C10_2 1_555 1_555
C11_2 C17_2 1_555 1_555
C12_2 H4_2 1_555 1_555
C13_2 C21_2 1_555 1_555
C14_2 H5_2 1_555 1_555
C15_2 C18_2 1_555 1_555
C16_2 C6_2 1_555 1_555
H6_2 C16_2 1_555 1_555
C17_2 C23_2 1_555 1_555
C18_2 C14_2 1_555 1_555
C19_2 C7_2 1_555 1_555
H7_2 C19_2 1_555 1_555
C20_2 C12_2 1_555 1_555
C21_2 H8_2 1_555 1_555
C22_2 C14_2 1_555 1_555
H9_2 C22_2 1_555 1_555
C23_2 H10_2 1_555 1_555
C24_2 C8_2 1_555 1_555
H11_2 C24_2 1_555 1_555
C25_2 N2_2 1_555 1_555
C26_2 N2_2 1_555 1_555
C27_2 C9_2 1_555 1_555
H12_2 C27_2 1_555 1_555
C28_2 C1_2 1_555 1_555
H13_2 C28_2 1_555 1_555
C29_2 C12_2 1_555 1_555
H14_2 C29_2 1_555 1_555
C30_2 C18_2 1_555 1_555
H15_2 C30_2 1_555 1_555
C31_2 C17_2 1_555 1_555
H16_2 C31_2 1_555 1_555
C32_2 C13_2 1_555 1_555
H17_2 C32_2 1_555 1_555
C33_2 H18_2 1_555 1_555
C34_2 C15_2 1_555 1_555
H19_2 C34_2 1_555 1_555
C35_2 C20_2 1_555 1_555
H20_2 C35_2 1_555 1_555
C36_2 C26_2 1_555 1_555
H21_2 C36_2 1_555 1_555
C37_2 C25_2 1_555 1_555
H22_2 C37_2 1_555 1_555
C38_2 C4_2 1_555 1_555
H23_2 C38_2 1_555 1_555
C39_2 C15_2 1_555 1_555
H24_2 C39_2 1_555 1_555
O13_2 C40_2 1_555 1_555
C40_2 C20_2 1_555 1_555
O8_2 C40_2 1_555 1_555
In4 O2_2 1_555 1_555
In3 O3_2 1_555 1_555
O4_2 In4 1_555 1_555
O6_2 In3 1_555 1_555
C8_2 C19_2 1_555 1_555
C9_2 C16_2 1_555 1_555
C10_2 C27_2 1_555 1_555
C21_2 C31_2 1_555 1_555
C22_2 C25_2 1_555 1_555
C23_2 C32_2 1_555 1_555
C24_2 C28_2 1_555 1_555
C26_2 C29_2 1_555 1_555
C30_2 C37_2 1_555 1_555
C33_2 C34_2 1_555 1_555
C35_2 C36_2 1_555 1_555
C38_2 C39_2 1_555 1_555
O10_2 C11_3 1_555 1_555
O12_2 C11_3 1_555 1_555
N2_3 C13_3 1_555 1_555
C11_3 C17_3 1_555 1_555
C12_3 H4_3 1_555 1_555
C13_3 C21_3 1_555 1_555
C17_3 C23_3 1_555 1_555
C20_3 C12_3 1_555 1_555
C21_3 H8_3 1_555 1_555
H9_3 C22_3 1_555 1_555
C23_3 H10_3 1_555 1_555
C25_3 N2_3 1_555 1_555
C26_3 N2_3 1_555 1_555
C29_3 C12_3 1_555 1_555
H14_3 C29_3 1_555 1_555
C31_3 C17_3 1_555 1_555
H16_3 C31_3 1_555 1_555
C32_3 C13_3 1_555 1_555
H17_3 C32_3 1_555 1_555
C35_3 C20_3 1_555 1_555
H20_3 C35_3 1_555 1_555
C36_3 C26_3 1_555 1_555
H21_3 C36_3 1_555 1_555
O7 C40_3 1_555 1_555
C40_3 C20_3 1_555 1_555
O8_3 C40_3 1_555 1_555
In3 O7 1_555 1_555
C21_3 C31_3 1_555 1_555
C22_3 C25_3 1_555 1_555
C23_3 C32_3 1_555 1_555
C26_3 C29_3 1_555 1_555
C35_3 C36_3 1_555 1_555
In3 O1_3 1_555 1_555
O1_3 C2_3 1_555 1_555
O9 C5_3 1_555 1_555
O11 C5_3 1_555 1_555
O5_3 In3 1_555 1_555
N1_3 C4_3 1_555 1_555
C1_3 C2_3 1_555 1_555
C2_3 O5_3 1_555 1_555
C3_3 C5_3 1_555 1_555
C4_3 C33_3 1_555 1_555
C6_3 C3_3 1_555 1_555
H1_3 C6_3 1_555 1_555
C7_3 C1_3 1_555 1_555
H2_3 C7_3 1_555 1_555
C8_3 N1_3 1_555 1_555
C9_3 N1_3 1_555 1_555
C10_3 C3_3 1_555 1_555
H3_3 C10_3 1_555 1_555
C14_3 H5_3 1_555 1_555
C15_3 C18_3 1_555 1_555
C16_3 C6_3 1_555 1_555
H6_3 C16_3 1_555 1_555
C18_3 C14_3 1_555 1_555
C19_3 C7_3 1_555 1_555
H7_3 C19_3 1_555 1_555
C24_3 C8_3 1_555 1_555
H11_3 C24_3 1_555 1_555
C27_3 C9_3 1_555 1_555
H12_3 C27_3 1_555 1_555
C28_3 C1_3 1_555 1_555
H13_3 C28_3 1_555 1_555
C30_3 C18_3 1_555 1_555
H15_3 C30_3 1_555 1_555
C33_3 H18_3 1_555 1_555
C34_3 C15_3 1_555 1_555
H19_3 C34_3 1_555 1_555
H22_3 C37_3 1_555 1_555
C38_3 C4_3 1_555 1_555
H23_3 C38_3 1_555 1_555
C39_3 C15_3 1_555 1_555
H24_3 C39_3 1_555 1_555
C8_3 C19_3 1_555 1_555
C9_3 C16_3 1_555 1_555
C10_3 C27_3 1_555 1_555
C24_3 C28_3 1_555 1_555
C30_3 C37_3 1_555 1_555
C33_3 C34_3 1_555 1_555
C38_3 C39_3 1_555 1_555
O10 C11_4 1_555 1_555
O12 C11_4 1_555 1_555
N1_4 C4_4 1_555 1_555
N2_4 C13_4 1_555 1_555
C4_4 C33_4 1_555 1_555
C6_4 C3_4 1_555 1_555
H1_4 C6_4 1_555 1_555
C7_4 C1_4 1_555 1_555
C8_4 N1_4 1_555 1_555
C9_4 N1_4 1_555 1_555
C10_4 C3_4 1_555 1_555
H3_4 C10_4 1_555 1_555
C11_4 C17_4 1_555 1_555
C12_4 H4_4 1_555 1_555
C13_4 C21_4 1_555 1_555
C14_4 H5_4 1_555 1_555
C15_4 C18_4 1_555 1_555
C16_4 C6_4 1_555 1_555
H6_4 C16_4 1_555 1_555
C17_4 C23_4 1_555 1_555
C18_4 C14_4 1_555 1_555
C19_4 C7_4 1_555 1_555
H7_4 C19_4 1_555 1_555
C20_4 C12_4 1_555 1_555
C21_4 H8_4 1_555 1_555
C22_4 C14_4 1_555 1_555
H9_4 C22_4 1_555 1_555
C23_4 H10_4 1_555 1_555
C24_4 C8_4 1_555 1_555
H11_4 C24_4 1_555 1_555
C25_4 N2_4 1_555 1_555
C26_4 N2_4 1_555 1_555
C27_4 C9_4 1_555 1_555
H12_4 C27_4 1_555 1_555
C28_4 C1_4 1_555 1_555
H13_4 C28_4 1_555 1_555
C29_4 C12_4 1_555 1_555
H14_4 C29_4 1_555 1_555
C30_4 C18_4 1_555 1_555
H15_4 C30_4 1_555 1_555
C31_4 C17_4 1_555 1_555
H16_4 C31_4 1_555 1_555
C32_4 C13_4 1_555 1_555
H17_4 C32_4 1_555 1_555
C33_4 H18_4 1_555 1_555
C34_4 C15_4 1_555 1_555
H19_4 C34_4 1_555 1_555
C35_4 C20_4 1_555 1_555
H20_4 C35_4 1_555 1_555
C36_4 C26_4 1_555 1_555
H21_4 C36_4 1_555 1_555
C37_4 C25_4 1_555 1_555
H22_4 C37_4 1_555 1_555
C38_4 C4_4 1_555 1_555
H23_4 C38_4 1_555 1_555
C39_4 C15_4 1_555 1_555
H24_4 C39_4 1_555 1_555
O7_2 C40_4 1_555 1_555
C40_4 C20_4 1_555 1_555
O8_4 C40_4 1_555 1_555
In4 O7_2 1_555 1_555
C8_4 C19_4 1_555 1_555
C9_4 C16_4 1_555 1_555
C10_4 C27_4 1_555 1_555
C21_4 C31_4 1_555 1_555
C22_4 C25_4 1_555 1_555
C23_4 C32_4 1_555 1_555
C24_4 C28_4 1_555 1_555
C26_4 C29_4 1_555 1_555
C30_4 C37_4 1_555 1_555
C33_4 C34_4 1_555 1_555
C35_4 C36_4 1_555 1_555
C38_4 C39_4 1_555 1_555
O9_2 C5_4 1_555 1_555
O11_2 C5_4 1_555 1_555
In4 O1_4 1_555 1_555
O1_4 C2_4 1_555 1_555
O5_4 In4 1_555 1_555
C2_4 O5_4 1_555 1_555
In1_3 O1_5 1_555 1_555
O1_5 C2_5 1_555 1_555
O2_3 C5_5 1_555 1_555
O4_3 C5_5 1_555 1_555
O5_5 In1_3 1_555 1_555
N1_5 C4_5 1_555 1_555
C1_5 C2_5 1_555 1_555
C2_5 O5_5 1_555 1_555
C3_5 C5_5 1_555 1_555
C4_5 C33_5 1_555 1_555
C6_5 C3_5 1_555 1_555
H1_5 C6_5 1_555 1_555
C7_5 C1_5 1_555 1_555
H2_5 C7_5 1_555 1_555
C8_5 N1_5 1_555 1_555
C9_5 N1_5 1_555 1_555
C10_5 C3_5 1_555 1_555
H3_5 C10_5 1_555 1_555
C14_5 H5_5 1_555 1_555
C15_5 C18_5 1_555 1_555
C16_5 C6_5 1_555 1_555
H6_5 C16_5 1_555 1_555
C18_5 C14_5 1_555 1_555
C19_5 C7_5 1_555 1_555
H7_5 C19_5 1_555 1_555
C24_5 C8_5 1_555 1_555
H11_5 C24_5 1_555 1_555
C27_5 C9_5 1_555 1_555
H12_5 C27_5 1_555 1_555
C28_5 C1_5 1_555 1_555
H13_5 C28_5 1_555 1_555
C30_5 C18_5 1_555 1_555
H15_5 C30_5 1_555 1_555
C33_5 H18_5 1_555 1_555
C34_5 C15_5 1_555 1_555
H19_5 C34_5 1_555 1_555
H22_5 C37_5 1_555 1_555
C38_5 C4_5 1_555 1_555
H23_5 C38_5 1_555 1_555
C39_5 C15_5 1_555 1_555
H24_5 C39_5 1_555 1_555
In3_2 O2_3 1_555 1_555
O9_3 In1_3 1_555 1_555
O10_3 In1_3 1_555 1_555
O11_3 In1_3 1_555 1_555
O12_3 In1_3 1_555 1_555
O13_3 In1_3 1_555 1_555
O4_3 In3_2 1_555 1_555
C8_5 C19_5 1_555 1_555
C9_5 C16_5 1_555 1_555
C10_5 C27_5 1_555 1_555
C24_5 C28_5 1_555 1_555
C30_5 C37_5 1_555 1_555
C33_5 C34_5 1_555 1_555
C38_5 C39_5 1_555 1_555
O3_3 C11_5 1_555 1_555
O6_3 C11_5 1_555 1_555
N2_5 C13_5 1_555 1_555
C11_5 C17_5 1_555 1_555
C12_5 H4_5 1_555 1_555
C13_5 C21_5 1_555 1_555
C17_5 C23_5 1_555 1_555
C20_5 C12_5 1_555 1_555
C21_5 H8_5 1_555 1_555
H9_5 C22_5 1_555 1_555
C23_5 H10_5 1_555 1_555
C25_5 N2_5 1_555 1_555
C26_5 N2_5 1_555 1_555
C29_5 C12_5 1_555 1_555
H14_5 C29_5 1_555 1_555
C31_5 C17_5 1_555 1_555
H16_5 C31_5 1_555 1_555
C32_5 C13_5 1_555 1_555
H17_5 C32_5 1_555 1_555
C35_5 C20_5 1_555 1_555
H20_5 C35_5 1_555 1_555
C36_5 C26_5 1_555 1_555
H21_5 C36_5 1_555 1_555
O13_3 C40_5 1_555 1_555
C40_5 C20_5 1_555 1_555
O8_5 C40_5 1_555 1_555
C21_5 C31_5 1_555 1_555
C22_5 C25_5 1_555 1_555
C23_5 C32_5 1_555 1_555
C26_5 C29_5 1_555 1_555
C35_5 C36_5 1_555 1_555
In1_4 O1_6 1_555 1_555
O1_6 C2_6 1_555 1_555
O5_6 In1_4 1_555 1_555
C2_6 O5_6 1_555 1_555
O9_4 In1_4 1_555 1_555
O11_4 In1_4 1_555 1_555
O13_4 In1_4 1_555 1_555
O2_4 C5_6 1_555 1_555
O4_4 C5_6 1_555 1_555
In4_2 O2_4 1_555 1_555
O4_4 In4_2 1_555 1_555
O3_4 C11_6 1_555 1_555
O6_4 C11_6 1_555 1_555
N1_6 C4_6 1_555 1_555
N2_6 C13_6 1_555 1_555
C4_6 C33_6 1_555 1_555
C6_6 C3_6 1_555 1_555
H1_6 C6_6 1_555 1_555
C7_6 C1_6 1_555 1_555
C8_6 N1_6 1_555 1_555
C9_6 N1_6 1_555 1_555
C10_6 C3_6 1_555 1_555
H3_6 C10_6 1_555 1_555
C11_6 C17_6 1_555 1_555
C12_6 H4_6 1_555 1_555
C13_6 C21_6 1_555 1_555
C14_6 H5_6 1_555 1_555
C15_6 C18_6 1_555 1_555
C16_6 C6_6 1_555 1_555
H6_6 C16_6 1_555 1_555
C17_6 C23_6 1_555 1_555
C18_6 C14_6 1_555 1_555
C19_6 C7_6 1_555 1_555
H7_6 C19_6 1_555 1_555
C20_6 C12_6 1_555 1_555
C21_6 H8_6 1_555 1_555
C22_6 C14_6 1_555 1_555
H9_6 C22_6 1_555 1_555
C23_6 H10_6 1_555 1_555
C24_6 C8_6 1_555 1_555
H11_6 C24_6 1_555 1_555
C25_6 N2_6 1_555 1_555
C26_6 N2_6 1_555 1_555
C27_6 C9_6 1_555 1_555
H12_6 C27_6 1_555 1_555
C28_6 C1_6 1_555 1_555
H13_6 C28_6 1_555 1_555
C29_6 C12_6 1_555 1_555
H14_6 C29_6 1_555 1_555
C30_6 C18_6 1_555 1_555
H15_6 C30_6 1_555 1_555
C31_6 C17_6 1_555 1_555
H16_6 C31_6 1_555 1_555
C32_6 C13_6 1_555 1_555
H17_6 C32_6 1_555 1_555
C33_6 H18_6 1_555 1_555
C34_6 C15_6 1_555 1_555
H19_6 C34_6 1_555 1_555
C35_6 C20_6 1_555 1_555
H20_6 C35_6 1_555 1_555
C36_6 C26_6 1_555 1_555
H21_6 C36_6 1_555 1_555
C37_6 C25_6 1_555 1_555
H22_6 C37_6 1_555 1_555
C38_6 C4_6 1_555 1_555
H23_6 C38_6 1_555 1_555
C39_6 C15_6 1_555 1_555
H24_6 C39_6 1_555 1_555
O13_4 C40_6 1_555 1_555
C40_6 C20_6 1_555 1_555
O8_6 C40_6 1_555 1_555
In3_2 O3_4 1_555 1_555
O6_4 In3_2 1_555 1_555
C8_6 C19_6 1_555 1_555
C9_6 C16_6 1_555 1_555
C10_6 C27_6 1_555 1_555
C21_6 C31_6 1_555 1_555
C22_6 C25_6 1_555 1_555
C23_6 C32_6 1_555 1_555
C24_6 C28_6 1_555 1_555
C26_6 C29_6 1_555 1_555
C30_6 C37_6 1_555 1_555
C33_6 C34_6 1_555 1_555
C35_6 C36_6 1_555 1_555
C38_6 C39_6 1_555 1_555
O10_4 C11_7 1_555 1_555
O12_4 C11_7 1_555 1_555
N2_7 C13_7 1_555 1_555
C11_7 C17_7 1_555 1_555
C12_7 H4_7 1_555 1_555
C13_7 C21_7 1_555 1_555
C17_7 C23_7 1_555 1_555
C20_7 C12_7 1_555 1_555
C21_7 H8_7 1_555 1_555
H9_7 C22_7 1_555 1_555
C23_7 H10_7 1_555 1_555
C25_7 N2_7 1_555 1_555
C26_7 N2_7 1_555 1_555
C29_7 C12_7 1_555 1_555
H14_7 C29_7 1_555 1_555
C31_7 C17_7 1_555 1_555
H16_7 C31_7 1_555 1_555
C32_7 C13_7 1_555 1_555
H17_7 C32_7 1_555 1_555
C35_7 C20_7 1_555 1_555
H20_7 C35_7 1_555 1_555
C36_7 C26_7 1_555 1_555
H21_7 C36_7 1_555 1_555
O7_3 C40_7 1_555 1_555
C40_7 C20_7 1_555 1_555
O8_7 C40_7 1_555 1_555
In3_2 O7_3 1_555 1_555
C21_7 C31_7 1_555 1_555
C22_7 C25_7 1_555 1_555
C23_7 C32_7 1_555 1_555
C26_7 C29_7 1_555 1_555
C35_7 C36_7 1_555 1_555
O9_3 C5_7 1_555 1_555
O11_3 C5_7 1_555 1_555
In3_2 O1_7 1_555 1_555
O1_7 C2_7 1_555 1_555
O5_7 In3_2 1_555 1_555
N1_7 C4_7 1_555 1_555
C1_7 C2_7 1_555 1_555
C2_7 O5_7 1_555 1_555
C4_7 C33_7 1_555 1_555
C6_7 C3_7 1_555 1_555
H1_7 C6_7 1_555 1_555
C7_7 C1_7 1_555 1_555
H2_7 C7_7 1_555 1_555
C8_7 N1_7 1_555 1_555
C9_7 N1_7 1_555 1_555
C10_7 C3_7 1_555 1_555
H3_7 C10_7 1_555 1_555
C14_7 H5_7 1_555 1_555
C15_7 C18_7 1_555 1_555
C16_7 C6_7 1_555 1_555
H6_7 C16_7 1_555 1_555
C18_7 C14_7 1_555 1_555
C19_7 C7_7 1_555 1_555
H7_7 C19_7 1_555 1_555
C24_7 C8_7 1_555 1_555
H11_7 C24_7 1_555 1_555
C27_7 C9_7 1_555 1_555
H12_7 C27_7 1_555 1_555
C28_7 C1_7 1_555 1_555
H13_7 C28_7 1_555 1_555
C30_7 C18_7 1_555 1_555
H15_7 C30_7 1_555 1_555
C33_7 H18_7 1_555 1_555
C34_7 C15_7 1_555 1_555
H19_7 C34_7 1_555 1_555
H22_7 C37_7 1_555 1_555
C38_7 C4_7 1_555 1_555
H23_7 C38_7 1_555 1_555
C39_7 C15_7 1_555 1_555
H24_7 C39_7 1_555 1_555
C8_7 C19_7 1_555 1_555
C9_7 C16_7 1_555 1_555
C10_7 C27_7 1_555 1_555
C24_7 C28_7 1_555 1_555
C30_7 C37_7 1_555 1_555
C33_7 C34_7 1_555 1_555
C38_7 C39_7 1_555 1_555
O9_4 C5_8 1_555 1_555
O10_3 C11_8 1_555 1_555
O11_4 C5_8 1_555 1_555
O12_3 C11_8 1_555 1_555
N1_8 C4_8 1_555 1_555
N2_8 C13_8 1_555 1_555
C3_8 C5_8 1_555 1_555
C4_8 C33_8 1_555 1_555
C6_8 C3_8 1_555 1_555
H1_8 C6_8 1_555 1_555
C7_8 C1_8 1_555 1_555
C8_8 N1_8 1_555 1_555
C9_8 N1_8 1_555 1_555
C10_8 C3_8 1_555 1_555
H3_8 C10_8 1_555 1_555
C11_8 C17_8 1_555 1_555
C12_8 H4_8 1_555 1_555
C13_8 C21_8 1_555 1_555
C14_8 H5_8 1_555 1_555
C15_8 C18_8 1_555 1_555
C16_8 C6_8 1_555 1_555
H6_8 C16_8 1_555 1_555
C17_8 C23_8 1_555 1_555
C18_8 C14_8 1_555 1_555
C19_8 C7_8 1_555 1_555
H7_8 C19_8 1_555 1_555
C20_8 C12_8 1_555 1_555
C21_8 H8_8 1_555 1_555
C22_8 C14_8 1_555 1_555
H9_8 C22_8 1_555 1_555
C23_8 H10_8 1_555 1_555
C24_8 C8_8 1_555 1_555
H11_8 C24_8 1_555 1_555
C25_8 N2_8 1_555 1_555
C26_8 N2_8 1_555 1_555
C27_8 C9_8 1_555 1_555
H12_8 C27_8 1_555 1_555
C28_8 C1_8 1_555 1_555
H13_8 C28_8 1_555 1_555
C29_8 C12_8 1_555 1_555
H14_8 C29_8 1_555 1_555
C30_8 C18_8 1_555 1_555
H15_8 C30_8 1_555 1_555
C31_8 C17_8 1_555 1_555
H16_8 C31_8 1_555 1_555
C32_8 C13_8 1_555 1_555
H17_8 C32_8 1_555 1_555
C33_8 H18_8 1_555 1_555
C34_8 C15_8 1_555 1_555
H19_8 C34_8 1_555 1_555
C35_8 C20_8 1_555 1_555
H20_8 C35_8 1_555 1_555
C36_8 C26_8 1_555 1_555
H21_8 C36_8 1_555 1_555
C37_8 C25_8 1_555 1_555
H22_8 C37_8 1_555 1_555
C38_8 C4_8 1_555 1_555
H23_8 C38_8 1_555 1_555
C39_8 C15_8 1_555 1_555
H24_8 C39_8 1_555 1_555
O7_4 C40_8 1_555 1_555
C40_8 C20_8 1_555 1_555
O8_8 C40_8 1_555 1_555
In4_2 O7_4 1_555 1_555
C8_8 C19_8 1_555 1_555
C9_8 C16_8 1_555 1_555
C10_8 C27_8 1_555 1_555
C21_8 C31_8 1_555 1_555
C22_8 C25_8 1_555 1_555
C23_8 C32_8 1_555 1_555
C24_8 C28_8 1_555 1_555
C26_8 C29_8 1_555 1_555
C30_8 C37_8 1_555 1_555
C33_8 C34_8 1_555 1_555
C35_8 C36_8 1_555 1_555
C38_8 C39_8 1_555 1_555
In4_2 O1_8 1_555 1_555
O1_8 C2_8 1_555 1_555
O5_8 In4_2 1_555 1_555
C2_8 O5_8 1_555 1_555

#END
