
###############################################################################
#
# This file contains modified crystal structure data generated from the
# MOF subset of the Cambridge Structural Database (CSD) v543 
# hosted by the Cambridge Crystallographic Data Centre (CCDC).
#
# This work is licensed under the Creative Commons
# Attribution-NonCommercial-ShareAlike 4.0 International License.
# To view a copy of this license, visit
# http://creativecommons.org/licenses/by-nc-sa/4.0/
# or send a letter to
# Creative Commons, PO Box 1866, Mountain View, CA 94042, USA.
#
# CIF created using the CSD Python API on 29 September 2022
# The structure has been converted into the P1 space group
# The structure has a 3D framework
# The original CSD entry SAGYEI is in the monoclinic crystal system
# The framework has been calculated to contain at least 10.0% void space
# The void calculation uses a probe of radius 1.32A, grid spacing 0.4
# H atom positions have been added when not included in the experimental data
#
###############################################################################

data_SAGYEI
_chemical_formula_moiety         '(C312 H216 Mn12 N8 O58)n'
_symmetry_cell_setting           triclinic
_symmetry_space_group_name_H-M   'P 1'
_symmetry_Int_Tables_number      1
_space_group_name_Hall           'P 1'
loop_
_symmetry_equiv_pos_site_id
_symmetry_equiv_pos_as_xyz
1 x,y,z
_cell_length_a                   10.168(2)
_cell_length_b                   37.606(8)
_cell_length_c                   38.894(8)
_cell_angle_alpha                90
_cell_angle_beta                 95.97(3)
_cell_angle_gamma                90
_cell_volume                     14791.5
loop_
_atom_site_label
_atom_site_type_symbol
_atom_site_fract_x
_atom_site_fract_y
_atom_site_fract_z
Mn1 Mn 0.16730(3) 0.41740(2) 0.24381(2)
O1 O 0.06810(16) 0.46337(5) 0.25455(5)
C3 C 0.0058(2) 0.51065(7) 0.30532(7)
H1 H 0.093900 0.510075 0.299276
H2 H 0.038738 0.549941 0.340620
H35 H 0.044599 0.309287 0.667157
C59 C 0.0149(2) 0.24063(7) 0.64995(6)
C60 C 0.0358(2) 0.20907(7) 0.63309(7)
H37 H 0.025369 0.208360 0.608544
C61 C 0.0719(2) 0.17849(8) 0.65159(7)
H38 H 0.087124 0.157158 0.639526
C62 C 0.0861(2) 0.17855(7) 0.68743(7)
C63 C 0.0691(3) 0.20991(8) 0.70433(7)
H39 H 0.080605 0.210564 0.728873
C64 C 0.0352(3) 0.24083(8) 0.68584(7)
H40 H 0.025675 0.262456 0.697967
C65 C 0.1224(2) 0.14616(8) 0.70799(7)
O9 O 0.09115(15) 0.14497(5) 0.73903(4)
O10 O 0.18462(19) 0.12107(6) 0.69632(5)
O13 O 0.2296(2) 0.44258(7) 0.19781(6)
O17 O 0.09140(16) 0.37268(5) 0.21589(5)
O19 O 0.12279(17) 0.39779(6) 0.29306(5)
Mn7 Mn 0.22590(4) 0.09975(2) 0.75375(2)
O23 O 0.37440(16) 0.41102(5) 0.25921(5)
H51 H 0.282515 0.46413 0.204575
H52 H 0.284244 0.425663 0.185789
O2 O 0.86977(18) 0.43907(5) 0.24991(5)
C1 C 0.9516(2) 0.46151(7) 0.26306(7)
C2 C 0.9132(2) 0.48742(8) 0.28934(7)
C4 C 0.9728(2) 0.53457(8) 0.32978(7)
C5 C 0.8447(2) 0.53653(9) 0.33879(8)
C6 C 0.7533(3) 0.51394(14) 0.32225(13)
H3 H 0.664455 0.515000 0.327727
C7 C 0.7861(3) 0.48948(13) 0.29768(12)
H4 H 0.720156 0.474205 0.286694
C8 C 0.8055(2) 0.56268(9) 0.36453(8)
C9 C 0.8895(2) 0.57156(7) 0.39375(7)
H5 H 0.972775 0.560038 0.397876
C10 C 0.8546(2) 0.59657(7) 0.41670(7)
H6 H 0.914017 0.602091 0.436461
C11 C 0.7344(2) 0.61393(7) 0.41159(7)
C12 C 0.6506(3) 0.60583(12) 0.38322(10)
H7 H 0.567889 0.617625 0.379108
C13 C 0.6868(3) 0.57996(14) 0.35998(12)
H8 H 0.626617 0.574261 0.340404
N1 N 0.6976(2) 0.64192(6) 0.43375(5)
C14 C 0.6520(2) 0.67354(7) 0.41720(7)
C15 C 0.7182(3) 0.68839(10) 0.39188(9)
H9 H 0.798193 0.677734 0.386485
C16 C 0.6723(3) 0.71844(10) 0.37386(8)
H10 H 0.722444 0.728332 0.356916
C17 C 0.5536(2) 0.73434(8) 0.38025(7)
C18 C 0.4875(2) 0.71937(8) 0.40635(7)
H11 H 0.407264 0.729968 0.411702
C19 C 0.5335(2) 0.69005(7) 0.42454(7)
H12 H 0.485454 0.680735 0.442198
C20 C 0.4984(2) 0.76427(8) 0.35925(7)
C21 C 0.5788(2) 0.79003(8) 0.34602(8)
H13 H 0.671983 0.788706 0.351390
C22 C 0.5255(2) 0.81727(8) 0.32535(7)
H14 H 0.582778 0.834445 0.316968
C23 C 0.3899(2) 0.82026(7) 0.31645(7)
C24 C 0.3084(2) 0.79435(8) 0.32921(8)
H15 H 0.215583 0.795420 0.323123
C25 C 0.3607(2) 0.76728(8) 0.35050(8)
H16 H 0.303131 0.750478 0.359353
C26 C 0.3303(2) 0.84827(7) 0.29283(6)
O3 O 0.20833(16) 0.84712(5) 0.28362(5)
O4 O 0.40860(16) 0.87268(5) 0.28411(5)
C27 C 0.7247(2) 0.64022(7) 0.46993(6)
C28 C 0.7550(3) 0.67060(7) 0.48933(7)
H17 H 0.759930 0.692887 0.478030
C29 C 0.7784(3) 0.66879(7) 0.52513(7)
H18 H 0.799335 0.689965 0.537857
C30 C 0.7719(2) 0.63685(7) 0.54282(6)
C31 C 0.7429(2) 0.60659(7) 0.52298(7)
H19 H 0.738479 0.584288 0.534279
C32 C 0.7201(2) 0.60789(7) 0.48724(6)
H20 H 0.701176 0.586622 0.474486
C33 C 0.7916(2) 0.63557(7) 0.58106(6)
C34 C 0.7624(2) 0.66452(8) 0.60143(7)
H21 H 0.732997 0.686094 0.590469
C35 C 0.7751(3) 0.66264(8) 0.63693(7)
H22 H 0.755039 0.682912 0.650001
C36 C 0.8166(2) 0.63166(7) 0.65388(7)
C37 C 0.8495(2) 0.60229(7) 0.63436(6)
H23 H 0.880564 0.581039 0.645656
C38 C 0.8368(2) 0.60421(7) 0.59852(6)
H24 H 0.858839 0.584092 0.585501
C39 C 0.8177(2) 0.62864(8) 0.69256(7)
O5 O 0.75774(17) 0.65200(5) 0.70756(5)
O6 O 0.87721(17) 0.60221(6) 0.70694(5)
Mn2 Mn 0.72590(4) 0.40025(2) 0.25375(2)
O7 O 0.72429(18) 0.39368(6) 0.30718(5)
O8 O 0.52748(17) 0.36853(6) 0.31126(5)
C40 C 0.6355(2) 0.38050(8) 0.32421(7)
C41 C 0.6633(2) 0.37937(7) 0.36251(7)
C42 C 0.5606(2) 0.37142(8) 0.38264(7)
H25 H 0.474077 0.367037 0.371773
C43 C 0.5844(2) 0.36995(8) 0.41784(7)
H26 H 0.513027 0.365132 0.431082
C44 C 0.7101(2) 0.37531(7) 0.43489(6)
C45 C 0.8120(2) 0.38330(8) 0.41452(7)
H27 H 0.898903 0.387355 0.425265
C46 C 0.7875(2) 0.38533(8) 0.37908(7)
H28 H 0.857983 0.390980 0.365788
C47 C 0.7350(2) 0.37293(7) 0.47296(6)
C48 C 0.6375(2) 0.38286(7) 0.49443(6)
H29 H 0.554645 0.391320 0.484060
C49 C 0.6584(2) 0.38071(7) 0.52977(6)
H30 H 0.590479 0.387666 0.543395
C50 C 0.7792(2) 0.36832(6) 0.54589(6)
C51 C 0.8767(2) 0.35811(7) 0.52508(6)
H31 H 0.959105 0.349485 0.535537
C52 C 0.8547(2) 0.36042(7) 0.48946(7)
H32 H 0.922587 0.353326 0.475879
N2 N 0.80141(18) 0.36622(5) 0.58236(5)
C53 C 0.8634(2) 0.33554(7) 0.59780(6)
C54 C 0.8413(2) 0.30216(7) 0.58276(6)
H33 H 0.788561 0.300191 0.561202
C55 C 0.8950(2) 0.27179(7) 0.59879(6)
H34 H 0.881649 0.249432 0.587588
C56 C 0.9684(2) 0.27352(7) 0.63105(6)
C57 C 0.9927(2) 0.30724(7) 0.64548(7)
C58 C 0.9431(2) 0.33760(7) 0.62895(6)
H36 H 0.963770 0.360194 0.639019
C66 C 0.7569(2) 0.39346(7) 0.60331(6)
C67 C 0.7127(2) 0.38606(7) 0.63585(7)
H41 H 0.708090 0.362126 0.643437
C68 C 0.6766(2) 0.41293(7) 0.65644(7)
H42 H 0.650101 0.407193 0.678493
C69 C 0.6771(2) 0.44879(7) 0.64628(6)
C70 C 0.7160(2) 0.45579(7) 0.61326(6)
H43 H 0.715219 0.479602 0.605082
C71 C 0.7554(2) 0.42875(7) 0.59241(6)
H44 H 0.781897 0.434378 0.570333
C72 C 0.6433(2) 0.47805(7) 0.66933(6)
C73 C 0.5883(3) 0.47086(8) 0.70014(7)
H45 H 0.574110 0.446947 0.706707
C74 C 0.5541(3) 0.49889(8) 0.72134(7)
H46 H 0.512027 0.493632 0.741429
C75 C 0.5801(2) 0.53383(7) 0.71375(7)
C76 C 0.6383(3) 0.54106(8) 0.68371(7)
H47 H 0.658067 0.564883 0.677977
C77 C 0.6675(3) 0.51325(8) 0.66199(7)
H48 H 0.705611 0.518748 0.641335
C78 C 0.5442(2) 0.56308(7) 0.73589(7)
O11 O 0.62560(16) 0.58898(5) 0.74079(5)
O12 O 0.43636(16) 0.56183(5) 0.74929(5)
Mn3 Mn 0.41392(3) 0.35271(2) 0.26476(2)
O14 O 0.88432(19) 0.35976(6) 0.25552(6)
O15 O 0.4411(2) 0.29674(6) 0.27708(7)
Mn4 Mn 0.33270(3) 0.91740(2) 0.25619(2)
Mn5 Mn 0.83270(3) 0.58260(2) 0.75619(2)
O16 O 0.29167(16) 0.34712(5) 0.21638(5)
O18 O 0.24226(17) 0.34800(5) 0.29244(5)
Mn6 Mn 0.27410(4) 0.59975(2) 0.74625(2)
O20 O 0.59115(15) 0.35503(5) 0.23903(4)
O21 O 0.68462(19) 0.37893(6) 0.19632(5)
O24 O 0.56364(16) 0.43817(5) 0.25071(5)
Mn8 Mn 0.08608(3) 0.85271(2) 0.23524(2)
Mn9 Mn 0.58608(3) 0.64729(2) 0.73524(2)
Mn10 Mn 0.91392(3) 0.14729(2) 0.76476(2)
H49 H 0.404041 0.291475 0.299161
H50 H 0.394776 0.282155 0.258273
H53 H 0.949862 0.364275 0.275805
H54 H 0.845335 0.335734 0.257534
C18_2 C 0.0125(2) 0.21937(8) 0.09365(7)
H11_2 H 0.092736 0.229968 0.088298
H12_2 H 0.014546 0.180735 0.057802
C20_2 C 0.0016(2) 0.26427(8) 0.14075(7)
C23_2 C 0.1101(2) 0.32026(7) 0.18355(7)
C24_2 C 0.1916(2) 0.29435(8) 0.17079(8)
H15_2 H 0.284417 0.295420 0.176877
C25_2 C 0.1393(2) 0.26728(8) 0.14950(8)
H16_2 H 0.196869 0.250478 0.140647
C26_2 C 0.1697(2) 0.34827(7) 0.20717(6)
O12_2 O 0.06364(16) 0.06183(5) 0.75071(5)
H25_2 H 0.025923 0.867037 0.128227
O15_2 O 0.0589(2) 0.79674(6) 0.22292(7)
O18_2 O 0.25774(17) 0.84800(5) 0.20756(5)
O22 O 0.12560(16) 0.91102(5) 0.24079(5)
H49_2 H 0.0959585 0.791475 0.200839
H50_2 H 0.105224 0.782155 0.241727
C29_2 C 0.7216(3) 0.16879(7) 0.97487(7)
H18_2 H 0.700665 0.189965 0.962143
C30_2 C 0.7281(2) 0.13685(7) 0.95718(6)
C31_2 C 0.7571(2) 0.10659(7) 0.97702(7)
H19_2 H 0.761521 0.084288 0.965721
C33_2 C 0.7084(2) 0.13557(7) 0.91894(6)
C34_2 C 0.7376(2) 0.16452(8) 0.89857(7)
H21_2 H 0.767003 0.186094 0.909531
C35_2 C 0.7249(3) 0.16264(8) 0.86307(7)
H22_2 H 0.744961 0.182912 0.849999
C36_2 C 0.6834(2) 0.13166(7) 0.84612(7)
C37_2 C 0.6505(2) 0.10229(7) 0.86564(6)
H23_2 H 0.619436 0.081039 0.854344
C38_2 C 0.6632(2) 0.10421(7) 0.90148(6)
H24_2 H 0.641161 0.084092 0.914499
C39_2 C 0.6823(2) 0.12864(8) 0.80744(7)
O5_2 O 0.74226(17) 0.15200(5) 0.79244(5)
O6_2 O 0.62279(17) 0.10221(6) 0.79306(5)
C75_2 C 0.9199(2) 0.03383(7) 0.78625(7)
C76_2 C 0.8617(3) 0.04106(8) 0.81629(7)
H47_2 H 0.841933 0.064883 0.822023
C77_2 C 0.8325(3) 0.01325(8) 0.83801(7)
H48_2 H 0.794389 0.018748 0.858665
C78_2 C 0.9558(2) 0.06308(7) 0.76411(7)
O11_2 O 0.87440(16) 0.08898(5) 0.75921(5)
Mn5_2 Mn 0.66730(3) 0.08260(2) 0.74381(2)
O1_2 O 0.43190(16) 0.96337(5) 0.24545(5)
O2_2 O 0.63023(18) 0.93907(5) 0.25009(5)
C1_2 C 0.5484(2) 0.96151(7) 0.23694(7)
C2_2 C 0.5868(2) 0.98742(8) 0.21066(7)
C7_2 C 0.7139(3) 0.98948(13) 0.20232(12)
H4_2 H 0.779844 0.974205 0.213306
Mn2_2 Mn 0.77410(4) 0.90025(2) 0.24625(2)
O7_2 O 0.77571(18) 0.89368(6) 0.19282(5)
O8_2 O 0.97252(17) 0.86853(6) 0.18874(5)
C40_2 C 0.8645(2) 0.88050(8) 0.17579(7)
C41_2 C 0.8367(2) 0.87937(7) 0.13749(7)
C42_2 C 0.9394(2) 0.87142(8) 0.11736(7)
C43_2 C 0.9156(2) 0.86995(8) 0.08216(7)
H26_2 H 0.986973 0.865132 0.068918
C44_2 C 0.7899(2) 0.87531(7) 0.06511(6)
C45_2 C 0.6880(2) 0.88330(8) 0.08548(7)
H27_2 H 0.601097 0.887355 0.074735
C46_2 C 0.7125(2) 0.88533(8) 0.12092(7)
H28_2 H 0.642017 0.890980 0.134212
C47_2 C 0.7650(2) 0.87293(7) 0.02704(6)
C48_2 C 0.8625(2) 0.88286(7) 0.00557(6)
H29_2 H 0.945355 0.891320 0.015940
C52_2 C 0.6453(2) 0.86042(7) 0.01054(7)
H32_2 H 0.577413 0.853326 0.024121
O13_2 O 0.2704(2) 0.94258(7) 0.30219(6)
O14_2 O 0.61568(19) 0.85976(6) 0.24448(6)
O19_2 O 0.37721(17) 0.89779(6) 0.20694(5)
O20_2 O 0.90885(15) 0.85503(5) 0.26097(4)
O21_2 O 0.81538(19) 0.87893(6) 0.30368(5)
O24_2 O 0.93636(16) 0.93817(5) 0.24929(5)
H51_2 H 0.217485 0.96413 0.295425
H52_2 H 0.215756 0.925663 0.314211
H53_2 H 0.550138 0.864275 0.224195
H54_2 H 0.654665 0.835734 0.242466
C49_2 C 0.8416(2) 0.88071(7) 0.97023(6)
H30_2 H 0.909521 0.887666 0.956605
C50_2 C 0.7208(2) 0.86832(6) 0.95411(6)
C51_2 C 0.6233(2) 0.85811(7) 0.97492(6)
H31_2 H 0.540895 0.849485 0.964463
N2_2 N 0.69859(18) 0.86622(5) 0.91764(5)
C53_2 C 0.6366(2) 0.83554(7) 0.90220(6)
C54_2 C 0.6587(2) 0.80216(7) 0.91724(6)
H33_2 H 0.711439 0.800191 0.938798
C55_2 C 0.6050(2) 0.77179(7) 0.90121(6)
H34_2 H 0.618351 0.749432 0.912412
C56_2 C 0.5316(2) 0.77352(7) 0.86895(6)
C57_2 C 0.5073(2) 0.80724(7) 0.85452(7)
H35_2 H 0.455401 0.809287 0.832843
C58_2 C 0.5569(2) 0.83760(7) 0.87105(6)
H36_2 H 0.536230 0.860194 0.860981
C59_2 C 0.4851(2) 0.74063(7) 0.85005(6)
C60_2 C 0.4642(2) 0.70907(7) 0.86691(7)
H37_2 H 0.474631 0.708360 0.891456
C61_2 C 0.4281(2) 0.67849(8) 0.84841(7)
H38_2 H 0.412876 0.657158 0.860474
C62_2 C 0.4139(2) 0.67855(7) 0.81257(7)
C63_2 C 0.4309(3) 0.70991(8) 0.79567(7)
H39_2 H 0.419395 0.710564 0.771127
C64_2 C 0.4648(3) 0.74083(8) 0.81416(7)
H40_2 H 0.474325 0.762456 0.802033
C65_2 C 0.3776(2) 0.64616(8) 0.79201(7)
O9_2 O 0.40885(15) 0.64497(5) 0.76097(4)
O10_2 O 0.31538(19) 0.62107(6) 0.80368(5)
C66_2 C 0.7431(2) 0.89346(7) 0.89669(6)
C67_2 C 0.7873(2) 0.88606(7) 0.86415(7)
H41_2 H 0.791910 0.862126 0.856563
C68_2 C 0.8234(2) 0.91293(7) 0.84356(7)
H42_2 H 0.849899 0.907193 0.821507
C69_2 C 0.8229(2) 0.94879(7) 0.85372(6)
C70_2 C 0.7840(2) 0.95579(7) 0.88674(6)
H43_2 H 0.784781 0.979602 0.894918
C71_2 C 0.7446(2) 0.92875(7) 0.90759(6)
H44_2 H 0.718103 0.934378 0.929667
C72_2 C 0.8567(2) 0.97805(7) 0.83067(6)
C73_2 C 0.9117(3) 0.97086(8) 0.79986(7)
H45_2 H 0.925890 0.946947 0.793293
C74_2 C 0.9459(3) 0.99889(8) 0.77866(7)
H46_2 H 0.987973 0.993632 0.758571
O2_3 O 0.13023(18) 0.56093(5) 0.75009(5)
C1_3 C 0.0484(2) 0.53849(7) 0.73694(7)
C2_3 C 0.0868(2) 0.51258(8) 0.71066(7)
C4_2 C 0.0272(2) 0.46543(8) 0.67022(7)
C5_2 C 0.1553(2) 0.46347(9) 0.66121(8)
C6_2 C 0.2467(3) 0.48606(14) 0.67775(13)
H3_2 H 0.335545 0.485000 0.672273
C7_3 C 0.2139(3) 0.51052(13) 0.70232(12)
H4_3 H 0.279844 0.525795 0.713306
C8_2 C 0.1945(2) 0.43732(9) 0.63547(8)
C9_2 C 0.1105(2) 0.42844(7) 0.60625(7)
H5_2 H 0.027225 0.439962 0.602124
C10_2 C 0.1454(2) 0.40343(7) 0.58330(7)
H6_2 H 0.085983 0.397909 0.563539
C11_2 C 0.2656(2) 0.38607(7) 0.58841(7)
C12_2 C 0.3494(3) 0.39417(12) 0.61678(10)
H7_2 H 0.432111 0.382375 0.620892
C13_2 C 0.3132(3) 0.42004(14) 0.64002(12)
H8_2 H 0.373383 0.425739 0.659596
N1_2 N 0.3024(2) 0.35808(6) 0.56625(5)
C14_2 C 0.3480(2) 0.32646(7) 0.58280(7)
C15_2 C 0.2818(3) 0.31161(10) 0.60812(9)
H9_2 H 0.201807 0.322266 0.613515
C16_2 C 0.3277(3) 0.28156(10) 0.62614(8)
H10_2 H 0.277556 0.271668 0.643084
C17_2 C 0.4464(2) 0.26566(8) 0.61975(7)
C18_3 C 0.5125(2) 0.28063(8) 0.59365(7)
H11_3 H 0.592736 0.270032 0.588298
C19_2 C 0.4665(2) 0.30995(7) 0.57546(7)
H12_3 H 0.514546 0.319265 0.557802
C20_3 C 0.5016(2) 0.23573(8) 0.64075(7)
C21_2 C 0.4212(2) 0.20997(8) 0.65398(8)
H13_2 H 0.328017 0.211294 0.648610
C22_2 C 0.4745(2) 0.18273(8) 0.67465(7)
H14_2 H 0.417222 0.165555 0.683032
C23_3 C 0.6101(2) 0.17974(7) 0.68355(7)
C24_3 C 0.6916(2) 0.20565(8) 0.67079(8)
H15_3 H 0.784417 0.204580 0.676877
C25_3 C 0.6393(2) 0.23272(8) 0.64950(8)
H16_3 H 0.696869 0.249522 0.640647
C26_3 C 0.6697(2) 0.15173(7) 0.70717(6)
O3_2 O 0.79167(16) 0.15288(5) 0.71638(5)
O4_2 O 0.59140(16) 0.12732(5) 0.71589(5)
C27_2 C 0.2753(2) 0.35978(7) 0.53007(6)
C28_2 C 0.2450(3) 0.32940(7) 0.51067(7)
H17_2 H 0.240070 0.307113 0.521970
C29_3 C 0.2216(3) 0.33121(7) 0.47487(7)
H18_3 H 0.200665 0.310035 0.462143
C30_3 C 0.2281(2) 0.36315(7) 0.45718(6)
C31_3 C 0.2571(2) 0.39341(7) 0.47702(7)
H19_3 H 0.261521 0.415712 0.465721
C32_2 C 0.2799(2) 0.39211(7) 0.51276(6)
H20_2 H 0.298824 0.413378 0.525514
C33_3 C 0.2084(2) 0.36443(7) 0.41894(6)
C34_3 C 0.2376(2) 0.33548(8) 0.39857(7)
H21_3 H 0.267003 0.313906 0.409531
C35_3 C 0.2249(3) 0.33736(8) 0.36307(7)
H22_3 H 0.244961 0.317088 0.349999
C36_3 C 0.1834(2) 0.36834(7) 0.34612(7)
C37_3 C 0.1505(2) 0.39771(7) 0.36564(6)
H23_3 H 0.119436 0.418961 0.354344
C38_3 C 0.1632(2) 0.39579(7) 0.40148(6)
H24_3 H 0.141161 0.415908 0.414499
C39_3 C 0.1823(2) 0.37136(8) 0.30744(7)
O7_3 O 0.27571(18) 0.60632(6) 0.69282(5)
O8_3 O 0.47252(17) 0.63147(6) 0.68874(5)
C40_3 C 0.3645(2) 0.61950(8) 0.67579(7)
C41_3 C 0.3367(2) 0.62063(7) 0.63749(7)
C42_3 C 0.4394(2) 0.62858(8) 0.61736(7)
H25_3 H 0.525923 0.632963 0.628227
C43_3 C 0.4156(2) 0.63005(8) 0.58216(7)
H26_3 H 0.486973 0.634868 0.568918
C44_3 C 0.2899(2) 0.62469(7) 0.56511(6)
C45_3 C 0.1880(2) 0.61670(8) 0.58548(7)
H27_3 H 0.101097 0.612645 0.574735
C46_3 C 0.2125(2) 0.61467(8) 0.62092(7)
H28_3 H 0.142017 0.609020 0.634212
C47_3 C 0.2650(2) 0.62707(7) 0.52704(6)
C48_3 C 0.3625(2) 0.61714(7) 0.50557(6)
H29_3 H 0.445355 0.608680 0.515940
C49_3 C 0.3416(2) 0.61929(7) 0.47023(6)
H30_3 H 0.409521 0.612334 0.456605
C50_3 C 0.2208(2) 0.63168(6) 0.45411(6)
C51_3 C 0.1233(2) 0.64189(7) 0.47492(6)
H31_3 H 0.040895 0.650515 0.464463
C52_3 C 0.1453(2) 0.63958(7) 0.51054(7)
H32_3 H 0.077413 0.646674 0.524121
N2_3 N 0.19859(18) 0.63378(5) 0.41764(5)
C53_3 C 0.1366(2) 0.66446(7) 0.40220(6)
C54_3 C 0.1587(2) 0.69784(7) 0.41724(6)
H33_3 H 0.211439 0.699809 0.438798
C55_3 C 0.1050(2) 0.72821(7) 0.40121(6)
H34_3 H 0.118351 0.750568 0.412412
C56_3 C 0.0316(2) 0.72648(7) 0.36895(6)
C57_3 C 0.0073(2) 0.69276(7) 0.35452(7)
C58_3 C 0.0569(2) 0.66240(7) 0.37105(6)
H36_3 H 0.036230 0.639806 0.360981
C66_3 C 0.2431(2) 0.60654(7) 0.39669(6)
C67_3 C 0.2873(2) 0.61394(7) 0.36415(7)
H41_3 H 0.291910 0.637874 0.356563
C68_3 C 0.3234(2) 0.58707(7) 0.34356(7)
H42_3 H 0.349899 0.592807 0.321507
C69_3 C 0.3229(2) 0.55121(7) 0.35372(6)
C70_3 C 0.2840(2) 0.54421(7) 0.38674(6)
H43_3 H 0.284781 0.520398 0.394918
C71_3 C 0.2446(2) 0.57125(7) 0.40759(6)
H44_3 H 0.218103 0.565622 0.429667
C72_3 C 0.3567(2) 0.52195(7) 0.33067(6)
C73_3 C 0.4117(3) 0.52914(8) 0.29986(7)
H45_3 H 0.425890 0.553053 0.293293
C74_3 C 0.4459(3) 0.50111(8) 0.27866(7)
H46_3 H 0.487973 0.506368 0.258571
C75_3 C 0.4199(2) 0.46617(7) 0.28625(7)
C76_3 C 0.3617(3) 0.45894(8) 0.31629(7)
H47_3 H 0.341933 0.435117 0.322023
C77_3 C 0.3325(3) 0.48675(8) 0.33801(7)
H48_3 H 0.294389 0.481252 0.358665
C78_3 C 0.4558(2) 0.43692(7) 0.26411(7)
O14_3 O 0.11568(19) 0.64024(6) 0.74448(6)
O15_3 O 0.5589(2) 0.70326(6) 0.72292(7)
O16_2 O 0.70833(16) 0.65288(5) 0.78362(5)
H49_3 H 0.595959 0.708525 0.700839
H50_3 H 0.605224 0.717845 0.741727
H53_3 H 0.0501383 0.635725 0.724195
H54_3 H 0.154665 0.664266 0.742466
O1_3 O 0.93190(16) 0.53663(5) 0.74545(5)
C3_2 C 0.9942(2) 0.48935(7) 0.69468(7)
H1_2 H 0.906100 0.489925 0.700724
H2_2 H 0.961262 0.450059 0.659380
H35_3 H 0.955401 0.690713 0.332843
C59_3 C 0.9851(2) 0.75937(7) 0.35005(6)
C60_3 C 0.9642(2) 0.79093(7) 0.36691(7)
H37_3 H 0.974631 0.791640 0.391456
C61_3 C 0.9281(2) 0.82151(8) 0.34841(7)
H38_3 H 0.912876 0.842842 0.360474
C62_3 C 0.9139(2) 0.82145(7) 0.31257(7)
C63_3 C 0.9309(3) 0.79009(8) 0.29567(7)
H39_3 H 0.919395 0.789436 0.271127
C64_3 C 0.9648(3) 0.75917(8) 0.31416(7)
H40_3 H 0.974325 0.737544 0.302033
C65_3 C 0.8776(2) 0.85384(8) 0.29201(7)
O13_3 O 0.7704(2) 0.55742(7) 0.80219(6)
O17_2 O 0.90860(16) 0.62732(5) 0.78411(5)
H51_3 H 0.717485 0.53587 0.795425
H52_3 H 0.715756 0.574337 0.814211
C49_4 C 0.1584(2) 0.11929(7) 0.02977(6)
H30_4 H 0.090479 0.112334 0.043395
C50_4 C 0.2792(2) 0.13168(6) 0.04589(6)
C51_4 C 0.3767(2) 0.14189(7) 0.02508(6)
H31_4 H 0.459105 0.150515 0.035537
N2_4 N 0.30141(18) 0.13378(5) 0.08236(5)
C53_4 C 0.3634(2) 0.16446(7) 0.09780(6)
C54_4 C 0.3413(2) 0.19784(7) 0.08276(6)
H33_4 H 0.288561 0.199809 0.061202
C55_4 C 0.3950(2) 0.22821(7) 0.09879(6)
H34_4 H 0.381649 0.250568 0.087588
C56_4 C 0.4684(2) 0.22648(7) 0.13105(6)
C57_4 C 0.4927(2) 0.19276(7) 0.14548(7)
H35_4 H 0.544599 0.190713 0.167157
C58_4 C 0.4431(2) 0.16240(7) 0.12895(6)
H36_4 H 0.463770 0.139806 0.139019
C59_4 C 0.5149(2) 0.25937(7) 0.14995(6)
C60_4 C 0.5358(2) 0.29093(7) 0.13309(7)
H37_4 H 0.525369 0.291640 0.108544
C61_4 C 0.5719(2) 0.32151(8) 0.15159(7)
H38_4 H 0.587124 0.342842 0.139526
C62_4 C 0.5861(2) 0.32145(7) 0.18743(7)
C63_4 C 0.5691(3) 0.29009(8) 0.20433(7)
H39_4 H 0.580605 0.289436 0.228873
C64_4 C 0.5352(3) 0.25917(8) 0.18584(7)
H40_4 H 0.525675 0.237544 0.197967
C65_4 C 0.6224(2) 0.35384(8) 0.20799(7)
C66_4 C 0.2569(2) 0.10654(7) 0.10331(6)
C67_4 C 0.2127(2) 0.11394(7) 0.13585(7)
H41_4 H 0.208090 0.137874 0.143437
C68_4 C 0.1766(2) 0.08707(7) 0.15644(7)
H42_4 H 0.150101 0.092807 0.178493
C69_4 C 0.1771(2) 0.05121(7) 0.14628(6)
C70_4 C 0.2160(2) 0.04421(7) 0.11326(6)
H43_4 H 0.215219 0.020398 0.105082
C71_4 C 0.2554(2) 0.07125(7) 0.09241(6)
H44_4 H 0.281897 0.065622 0.070333
C72_4 C 0.1433(2) 0.02195(7) 0.16933(6)
C73_4 C 0.0883(3) 0.02914(8) 0.20014(7)
H45_4 H 0.074110 0.053053 0.206707
C74_4 C 0.0541(3) 0.00111(8) 0.22134(7)
H46_4 H 0.012027 0.006368 0.241429
O1_4 O 0.56810(16) 0.03663(5) 0.75455(5)
O2_4 O 0.36977(18) 0.06093(5) 0.74991(5)
C1_4 C 0.4516(2) 0.03849(7) 0.76306(7)
C2_4 C 0.4132(2) 0.01258(8) 0.78934(7)
C7_4 C 0.2861(3) 0.01052(13) 0.79768(12)
H4_4 H 0.220156 0.025795 0.786694
O7_4 O 0.22429(18) 0.10632(6) 0.80718(5)
O8_4 O 0.02748(17) 0.13147(6) 0.81126(5)
C40_4 C 0.1355(2) 0.11950(8) 0.82421(7)
C41_4 C 0.1633(2) 0.12063(7) 0.86251(7)
C42_4 C 0.0606(2) 0.12858(8) 0.88264(7)
C43_4 C 0.0844(2) 0.13005(8) 0.91784(7)
H26_4 H 0.013027 0.134868 0.931082
C44_4 C 0.2101(2) 0.12469(7) 0.93489(6)
C45_4 C 0.3120(2) 0.11670(8) 0.91452(7)
H27_4 H 0.398903 0.112645 0.925265
C46_4 C 0.2875(2) 0.11467(8) 0.87908(7)
H28_4 H 0.357983 0.109020 0.865788
C47_4 C 0.2350(2) 0.12707(7) 0.97296(6)
C48_4 C 0.1375(2) 0.11714(7) 0.99443(6)
H29_4 H 0.054645 0.108680 0.984060
C52_4 C 0.3547(2) 0.13958(7) 0.98946(7)
H32_4 H 0.422587 0.146674 0.975879
O13_4 O 0.7296(2) 0.05742(7) 0.69781(6)
O14_4 O 0.38432(19) 0.14024(6) 0.75552(6)
H51_4 H 0.782515 0.0358699 0.704575
H52_4 H 0.784244 0.0743368 0.685789
H53_4 H 0.449862 0.135725 0.775805
H54_4 H 0.345335 0.164266 0.757534
C29_4 C 0.2784(3) 0.83121(7) 0.02513(7)
H18_4 H 0.299335 0.810035 0.037857
C30_4 C 0.2719(2) 0.86315(7) 0.04282(6)
C31_4 C 0.2429(2) 0.89341(7) 0.02298(7)
H19_4 H 0.238479 0.915712 0.034279
C33_4 C 0.2916(2) 0.86443(7) 0.08106(6)
C34_4 C 0.2624(2) 0.83548(8) 0.10143(7)
H21_4 H 0.232997 0.813906 0.090469
C35_4 C 0.2751(3) 0.83736(8) 0.13693(7)
H22_4 H 0.255039 0.817088 0.150001
C36_4 C 0.3166(2) 0.86834(7) 0.15388(7)
C37_4 C 0.3495(2) 0.89771(7) 0.13436(6)
H23_4 H 0.380564 0.918961 0.145656
C38_4 C 0.3368(2) 0.89579(7) 0.09852(6)
H24_4 H 0.358839 0.915908 0.085501
C39_4 C 0.3177(2) 0.87136(8) 0.19256(7)
C75_4 C 0.0801(2) 0.96617(7) 0.21375(7)
C76_4 C 0.1383(3) 0.95894(8) 0.18371(7)
H47_4 H 0.158067 0.935117 0.177977
C77_4 C 0.1675(3) 0.98675(8) 0.16199(7)
H48_4 H 0.205611 0.981252 0.141335
C78_4 C 0.0442(2) 0.93692(7) 0.23589(7)
H25_4 H 0.974077 0.132963 0.871773
O15_4 O 0.9411(2) 0.20326(6) 0.77708(7)
H49_4 H 0.904041 0.208525 0.799161
H50_4 H 0.894776 0.217845 0.758273
C18_4 C 0.9875(2) 0.78063(8) 0.90635(7)
H11_4 H 0.907264 0.770032 0.911702
H12_4 H 0.985454 0.819265 0.942198
C20_4 C 0.9984(2) 0.73573(8) 0.85925(7)
C23_4 C 0.8899(2) 0.67974(7) 0.81645(7)
C24_4 C 0.8084(2) 0.70565(8) 0.82921(8)
H15_4 H 0.715583 0.704580 0.823123
C25_4 C 0.8607(2) 0.73272(8) 0.85050(8)
H16_4 H 0.803131 0.749522 0.859353
C26_4 C 0.8303(2) 0.65173(7) 0.79283(6)
C3_3 C 0.4942(2) 0.01065(7) 0.19468(7)
H1_3 H 0.406100 0.010075 0.200724
C4_3 C 0.5272(2) 0.03457(8) 0.17022(7)
H2_3 H 0.461262 0.049941 0.159380
C5_3 C 0.6553(2) 0.03653(9) 0.16121(8)
C6_3 C 0.7467(3) 0.01394(14) 0.17775(13)
H3_3 H 0.835545 0.015000 0.172273
C8_3 C 0.6945(2) 0.06268(9) 0.13547(8)
C9_3 C 0.6105(2) 0.07156(7) 0.10625(7)
H5_3 H 0.527225 0.060038 0.102124
C10_3 C 0.6454(2) 0.09657(7) 0.08330(7)
H6_3 H 0.585983 0.102091 0.063539
C11_3 C 0.7656(2) 0.11393(7) 0.08841(7)
C12_3 C 0.8494(3) 0.10583(12) 0.11678(10)
H7_3 H 0.932111 0.117625 0.120892
C13_3 C 0.8132(3) 0.07996(14) 0.14002(12)
H8_3 H 0.873383 0.074261 0.159596
N1_3 N 0.8024(2) 0.14192(6) 0.06625(5)
C14_3 C 0.8480(2) 0.17354(7) 0.08280(7)
C15_3 C 0.7818(3) 0.18839(10) 0.10812(9)
H9_3 H 0.701807 0.177734 0.113515
C16_3 C 0.8277(3) 0.21844(10) 0.12614(8)
H10_3 H 0.777556 0.228332 0.143084
C17_3 C 0.9464(2) 0.23434(8) 0.11975(7)
C19_3 C 0.9665(2) 0.19005(7) 0.07546(7)
C21_3 C 0.9212(2) 0.29003(8) 0.15398(8)
H13_3 H 0.828017 0.288706 0.148610
C22_3 C 0.9745(2) 0.31727(8) 0.17465(7)
H14_3 H 0.917222 0.334445 0.183032
C27_3 C 0.7753(2) 0.14022(7) 0.03007(6)
C28_3 C 0.7450(3) 0.17060(7) 0.01067(7)
H17_3 H 0.740070 0.192887 0.021970
C32_3 C 0.7799(2) 0.10789(7) 0.01276(6)
H20_3 H 0.798824 0.086622 0.025514
C3_4 C 0.5058(2) 0.98935(7) 0.80532(7)
H1_4 H 0.593900 0.989925 0.799276
C4_4 C 0.4728(2) 0.96543(8) 0.82978(7)
H2_4 H 0.538738 0.950059 0.840620
C5_4 C 0.3447(2) 0.96347(9) 0.83879(8)
C6_4 C 0.2533(3) 0.98606(14) 0.82225(13)
H3_4 H 0.164455 0.985000 0.827727
C8_4 C 0.3055(2) 0.93732(9) 0.86453(8)
C9_4 C 0.3895(2) 0.92844(7) 0.89375(7)
H5_4 H 0.472775 0.939962 0.897876
C10_4 C 0.3546(2) 0.90343(7) 0.91670(7)
H6_4 H 0.414017 0.897909 0.936461
C11_4 C 0.2344(2) 0.88607(7) 0.91159(7)
C12_4 C 0.1506(3) 0.89417(12) 0.88322(10)
H7_4 H 0.067889 0.882375 0.879108
C13_4 C 0.1868(3) 0.92004(14) 0.85998(12)
H8_4 H 0.126617 0.925739 0.840404
N1_4 N 0.1976(2) 0.85808(6) 0.93375(5)
C14_4 C 0.1520(2) 0.82646(7) 0.91720(7)
C15_4 C 0.2182(3) 0.81161(10) 0.89188(9)
H9_4 H 0.298193 0.822266 0.886485
C16_4 C 0.1723(3) 0.78156(10) 0.87386(8)
H10_4 H 0.222444 0.771668 0.856916
C17_4 C 0.0536(2) 0.76566(8) 0.88025(7)
C19_4 C 0.0335(2) 0.80995(7) 0.92454(7)
C21_4 C 0.0788(2) 0.70997(8) 0.84602(8)
H13_4 H 0.171983 0.711294 0.851390
C22_4 C 0.0255(2) 0.68273(8) 0.82535(7)
H14_4 H 0.082778 0.665555 0.816968
C27_4 C 0.2247(2) 0.85978(7) 0.96993(6)
C28_4 C 0.2550(3) 0.82940(7) 0.98933(7)
H17_4 H 0.259930 0.807113 0.978030
C32_4 C 0.2201(2) 0.89211(7) 0.98724(6)
H20_4 H 0.201176 0.913378 0.974486
loop_
_geom_bond_atom_site_label_1
_geom_bond_atom_site_label_2
_geom_bond_site_symmetry_1
_geom_bond_site_symmetry_2
Mn1 O1 1_555 1_555
C3 H1 1_555 1_555
C60 C59 1_555 1_555
H37 C60 1_555 1_555
C61 C60 1_555 1_555
H38 C61 1_555 1_555
C62 C61 1_555 1_555
C63 C62 1_555 1_555
H39 C63 1_555 1_555
C64 C59 1_555 1_555
H40 C64 1_555 1_555
C65 C62 1_555 1_555
O9 C65 1_555 1_555
O10 C65 1_555 1_555
O13 Mn1 1_555 1_555
O17 Mn1 1_555 1_555
O19 Mn1 1_555 1_555
Mn7 O9 1_555 1_555
O23 Mn1 1_555 1_555
C63 C64 1_555 1_555
O10 Mn7 1_555 1_555
O13 H51 1_555 1_555
O13 H52 1_555 1_555
O2 C1 1_555 1_555
C1 C2 1_555 1_555
C5 C4 1_555 1_555
C6 C5 1_555 1_555
H3 C6 1_555 1_555
C7 C2 1_555 1_555
H4 C7 1_555 1_555
C8 C5 1_555 1_555
C9 C8 1_555 1_555
H5 C9 1_555 1_555
C10 C9 1_555 1_555
H6 C10 1_555 1_555
C11 C10 1_555 1_555
C12 C11 1_555 1_555
H7 C12 1_555 1_555
C13 C8 1_555 1_555
H8 C13 1_555 1_555
N1 C11 1_555 1_555
C14 N1 1_555 1_555
C15 C14 1_555 1_555
H9 C15 1_555 1_555
C16 C15 1_555 1_555
H10 C16 1_555 1_555
C17 C16 1_555 1_555
C18 C17 1_555 1_555
H11 C18 1_555 1_555
C19 C14 1_555 1_555
H12 C19 1_555 1_555
C20 C17 1_555 1_555
C21 C20 1_555 1_555
H13 C21 1_555 1_555
C22 C21 1_555 1_555
H14 C22 1_555 1_555
C23 C22 1_555 1_555
C24 C23 1_555 1_555
H15 C24 1_555 1_555
C25 C20 1_555 1_555
H16 C25 1_555 1_555
C26 C23 1_555 1_555
O3 C26 1_555 1_555
O4 C26 1_555 1_555
C27 N1 1_555 1_555
C28 C27 1_555 1_555
H17 C28 1_555 1_555
C29 C28 1_555 1_555
H18 C29 1_555 1_555
C30 C29 1_555 1_555
C31 C30 1_555 1_555
H19 C31 1_555 1_555
C32 C27 1_555 1_555
H20 C32 1_555 1_555
C33 C30 1_555 1_555
C34 C33 1_555 1_555
H21 C34 1_555 1_555
C35 C34 1_555 1_555
H22 C35 1_555 1_555
C36 C35 1_555 1_555
C37 C36 1_555 1_555
H23 C37 1_555 1_555
C38 C33 1_555 1_555
H24 C38 1_555 1_555
C39 C36 1_555 1_555
O5 C39 1_555 1_555
O6 C39 1_555 1_555
Mn2 O2 1_555 1_555
O7 Mn2 1_555 1_555
O8 C40 1_555 1_555
C40 O7 1_555 1_555
C41 C40 1_555 1_555
C42 C41 1_555 1_555
H25 C42 1_555 1_555
C43 C42 1_555 1_555
H26 C43 1_555 1_555
C44 C43 1_555 1_555
C45 C44 1_555 1_555
H27 C45 1_555 1_555
C46 C41 1_555 1_555
H28 C46 1_555 1_555
C47 C44 1_555 1_555
C48 C47 1_555 1_555
H29 C48 1_555 1_555
C49 C48 1_555 1_555
H30 C49 1_555 1_555
C50 C49 1_555 1_555
C51 C50 1_555 1_555
H31 C51 1_555 1_555
C52 C47 1_555 1_555
H32 C52 1_555 1_555
N2 C50 1_555 1_555
C53 N2 1_555 1_555
C54 C53 1_555 1_555
H33 C54 1_555 1_555
C55 C54 1_555 1_555
H34 C55 1_555 1_555
C56 C55 1_555 1_555
C57 C56 1_555 1_555
C58 C53 1_555 1_555
H36 C58 1_555 1_555
C66 N2 1_555 1_555
C67 C66 1_555 1_555
H41 C67 1_555 1_555
C68 C67 1_555 1_555
H42 C68 1_555 1_555
C69 C68 1_555 1_555
C70 C69 1_555 1_555
H43 C70 1_555 1_555
C71 C66 1_555 1_555
H44 C71 1_555 1_555
C72 C69 1_555 1_555
C73 C72 1_555 1_555
H45 C73 1_555 1_555
C74 C73 1_555 1_555
H46 C74 1_555 1_555
C75 C74 1_555 1_555
C76 C75 1_555 1_555
H47 C76 1_555 1_555
C77 C72 1_555 1_555
H48 C77 1_555 1_555
C78 C75 1_555 1_555
O11 C78 1_555 1_555
O12 C78 1_555 1_555
Mn3 O8 1_555 1_555
O14 Mn2 1_555 1_555
O15 Mn3 1_555 1_555
Mn4 O4 1_555 1_555
Mn5 O6 1_555 1_555
O16 Mn3 1_555 1_555
O18 Mn3 1_555 1_555
Mn6 O12 1_555 1_555
O20 Mn2 1_555 1_555
O21 Mn2 1_555 1_555
O23 Mn3 1_555 1_555
O24 Mn2 1_555 1_555
Mn8 O3 1_555 1_555
Mn9 O5 1_555 1_555
C6 C7 1_555 1_555
C12 C13 1_555 1_555
C18 C19 1_555 1_555
C24 C25 1_555 1_555
C31 C32 1_555 1_555
C37 C38 1_555 1_555
C45 C46 1_555 1_555
C51 C52 1_555 1_555
C57 C58 1_555 1_555
C70 C71 1_555 1_555
C76 C77 1_555 1_555
O11 Mn5 1_555 1_555
O11 Mn9 1_555 1_555
Mn3 O20 1_555 1_555
O15 H49 1_555 1_555
O15 H50 1_555 1_555
O14 H53 1_555 1_555
O14 H54 1_555 1_555
H11_2 C18_2 1_555 1_555
C24_2 C23_2 1_555 1_555
H15_2 C24_2 1_555 1_555
C25_2 C20_2 1_555 1_555
H16_2 C25_2 1_555 1_555
C26_2 C23_2 1_555 1_555
O16 C26_2 1_555 1_555
O17 C26_2 1_555 1_555
C24_2 C25_2 1_555 1_555
Mn7 O12_2 1_555 1_555
O15_2 Mn8 1_555 1_555
O18_2 Mn8 1_555 1_555
O22 Mn8 1_555 1_555
O15_2 H49_2 1_555 1_555
O15_2 H50_2 1_555 1_555
H18_2 C29_2 1_555 1_555
C30_2 C29_2 1_555 1_555
C31_2 C30_2 1_555 1_555
H19_2 C31_2 1_555 1_555
C33_2 C30_2 1_555 1_555
C34_2 C33_2 1_555 1_555
H21_2 C34_2 1_555 1_555
C35_2 C34_2 1_555 1_555
H22_2 C35_2 1_555 1_555
C36_2 C35_2 1_555 1_555
C37_2 C36_2 1_555 1_555
H23_2 C37_2 1_555 1_555
C38_2 C33_2 1_555 1_555
H24_2 C38_2 1_555 1_555
C39_2 C36_2 1_555 1_555
O5_2 C39_2 1_555 1_555
O6_2 C39_2 1_555 1_555
C76_2 C75_2 1_555 1_555
H47_2 C76_2 1_555 1_555
H48_2 C77_2 1_555 1_555
C78_2 C75_2 1_555 1_555
O11_2 C78_2 1_555 1_555
Mn5_2 O6_2 1_555 1_555
Mn10 O5_2 1_555 1_555
C37_2 C38_2 1_555 1_555
C76_2 C77_2 1_555 1_555
O11_2 Mn5_2 1_555 1_555
O11_2 Mn10 1_555 1_555
Mn4 O1_2 1_555 1_555
O1_2 C1_2 1_555 1_555
O2_2 C1_2 1_555 1_555
C1_2 C2_2 1_555 1_555
C7_2 C2_2 1_555 1_555
H4_2 C7_2 1_555 1_555
Mn2_2 O2_2 1_555 1_555
O7_2 Mn2_2 1_555 1_555
O8_2 C40_2 1_555 1_555
C40_2 O7_2 1_555 1_555
C41_2 C40_2 1_555 1_555
C42_2 C41_2 1_555 1_555
C43_2 C42_2 1_555 1_555
H26_2 C43_2 1_555 1_555
C44_2 C43_2 1_555 1_555
C45_2 C44_2 1_555 1_555
H27_2 C45_2 1_555 1_555
C46_2 C41_2 1_555 1_555
H28_2 C46_2 1_555 1_555
C47_2 C44_2 1_555 1_555
C48_2 C47_2 1_555 1_555
H29_2 C48_2 1_555 1_555
C52_2 C47_2 1_555 1_555
H32_2 C52_2 1_555 1_555
O13_2 Mn4 1_555 1_555
O14_2 Mn2_2 1_555 1_555
O19_2 Mn4 1_555 1_555
O20_2 Mn2_2 1_555 1_555
O21_2 Mn2_2 1_555 1_555
O22 Mn4 1_555 1_555
O24_2 Mn2_2 1_555 1_555
C45_2 C46_2 1_555 1_555
O13_2 H51_2 1_555 1_555
O13_2 H52_2 1_555 1_555
O14_2 H53_2 1_555 1_555
O14_2 H54_2 1_555 1_555
H30_2 C49_2 1_555 1_555
C50_2 C49_2 1_555 1_555
C51_2 C50_2 1_555 1_555
H31_2 C51_2 1_555 1_555
N2_2 C50_2 1_555 1_555
C53_2 N2_2 1_555 1_555
C54_2 C53_2 1_555 1_555
H33_2 C54_2 1_555 1_555
C55_2 C54_2 1_555 1_555
H34_2 C55_2 1_555 1_555
C56_2 C55_2 1_555 1_555
C57_2 C56_2 1_555 1_555
H35_2 C57_2 1_555 1_555
C58_2 C53_2 1_555 1_555
H36_2 C58_2 1_555 1_555
C59_2 C56_2 1_555 1_555
C60_2 C59_2 1_555 1_555
H37_2 C60_2 1_555 1_555
C61_2 C60_2 1_555 1_555
H38_2 C61_2 1_555 1_555
C62_2 C61_2 1_555 1_555
C63_2 C62_2 1_555 1_555
H39_2 C63_2 1_555 1_555
C64_2 C59_2 1_555 1_555
H40_2 C64_2 1_555 1_555
C65_2 C62_2 1_555 1_555
O9_2 C65_2 1_555 1_555
O10_2 C65_2 1_555 1_555
C66_2 N2_2 1_555 1_555
C67_2 C66_2 1_555 1_555
H41_2 C67_2 1_555 1_555
C68_2 C67_2 1_555 1_555
H42_2 C68_2 1_555 1_555
C69_2 C68_2 1_555 1_555
C70_2 C69_2 1_555 1_555
H43_2 C70_2 1_555 1_555
C71_2 C66_2 1_555 1_555
H44_2 C71_2 1_555 1_555
C72_2 C69_2 1_555 1_555
C73_2 C72_2 1_555 1_555
H45_2 C73_2 1_555 1_555
C74_2 C73_2 1_555 1_555
H46_2 C74_2 1_555 1_555
Mn6 O9_2 1_555 1_555
Mn9 O9_2 1_555 1_555
C57_2 C58_2 1_555 1_555
C63_2 C64_2 1_555 1_555
O10_2 Mn6 1_555 1_555
C70_2 C71_2 1_555 1_555
O2_3 C1_3 1_555 1_555
C1_3 C2_3 1_555 1_555
C5_2 C4_2 1_555 1_555
C6_2 C5_2 1_555 1_555
H3_2 C6_2 1_555 1_555
C7_3 C2_3 1_555 1_555
H4_3 C7_3 1_555 1_555
C8_2 C5_2 1_555 1_555
C9_2 C8_2 1_555 1_555
H5_2 C9_2 1_555 1_555
C10_2 C9_2 1_555 1_555
H6_2 C10_2 1_555 1_555
C11_2 C10_2 1_555 1_555
C12_2 C11_2 1_555 1_555
H7_2 C12_2 1_555 1_555
C13_2 C8_2 1_555 1_555
H8_2 C13_2 1_555 1_555
N1_2 C11_2 1_555 1_555
C14_2 N1_2 1_555 1_555
C15_2 C14_2 1_555 1_555
H9_2 C15_2 1_555 1_555
C16_2 C15_2 1_555 1_555
H10_2 C16_2 1_555 1_555
C17_2 C16_2 1_555 1_555
C18_3 C17_2 1_555 1_555
H11_3 C18_3 1_555 1_555
C19_2 C14_2 1_555 1_555
H12_3 C19_2 1_555 1_555
C20_3 C17_2 1_555 1_555
C21_2 C20_3 1_555 1_555
H13_2 C21_2 1_555 1_555
C22_2 C21_2 1_555 1_555
H14_2 C22_2 1_555 1_555
C23_3 C22_2 1_555 1_555
C24_3 C23_3 1_555 1_555
H15_3 C24_3 1_555 1_555
C25_3 C20_3 1_555 1_555
H16_3 C25_3 1_555 1_555
C26_3 C23_3 1_555 1_555
O3_2 C26_3 1_555 1_555
O4_2 C26_3 1_555 1_555
C27_2 N1_2 1_555 1_555
C28_2 C27_2 1_555 1_555
H17_2 C28_2 1_555 1_555
C29_3 C28_2 1_555 1_555
H18_3 C29_3 1_555 1_555
C30_3 C29_3 1_555 1_555
C31_3 C30_3 1_555 1_555
H19_3 C31_3 1_555 1_555
C32_2 C27_2 1_555 1_555
H20_2 C32_2 1_555 1_555
C33_3 C30_3 1_555 1_555
C34_3 C33_3 1_555 1_555
H21_3 C34_3 1_555 1_555
C35_3 C34_3 1_555 1_555
H22_3 C35_3 1_555 1_555
C36_3 C35_3 1_555 1_555
C37_3 C36_3 1_555 1_555
H23_3 C37_3 1_555 1_555
C38_3 C33_3 1_555 1_555
H24_3 C38_3 1_555 1_555
C39_3 C36_3 1_555 1_555
O18 C39_3 1_555 1_555
O19 C39_3 1_555 1_555
Mn6 O2_3 1_555 1_555
O7_3 Mn6 1_555 1_555
O8_3 C40_3 1_555 1_555
C40_3 O7_3 1_555 1_555
C41_3 C40_3 1_555 1_555
C42_3 C41_3 1_555 1_555
H25_3 C42_3 1_555 1_555
C43_3 C42_3 1_555 1_555
H26_3 C43_3 1_555 1_555
C44_3 C43_3 1_555 1_555
C45_3 C44_3 1_555 1_555
H27_3 C45_3 1_555 1_555
C46_3 C41_3 1_555 1_555
H28_3 C46_3 1_555 1_555
C47_3 C44_3 1_555 1_555
C48_3 C47_3 1_555 1_555
H29_3 C48_3 1_555 1_555
C49_3 C48_3 1_555 1_555
H30_3 C49_3 1_555 1_555
C50_3 C49_3 1_555 1_555
C51_3 C50_3 1_555 1_555
H31_3 C51_3 1_555 1_555
C52_3 C47_3 1_555 1_555
H32_3 C52_3 1_555 1_555
N2_3 C50_3 1_555 1_555
C53_3 N2_3 1_555 1_555
C54_3 C53_3 1_555 1_555
H33_3 C54_3 1_555 1_555
C55_3 C54_3 1_555 1_555
H34_3 C55_3 1_555 1_555
C56_3 C55_3 1_555 1_555
C57_3 C56_3 1_555 1_555
C58_3 C53_3 1_555 1_555
H36_3 C58_3 1_555 1_555
C66_3 N2_3 1_555 1_555
C67_3 C66_3 1_555 1_555
H41_3 C67_3 1_555 1_555
C68_3 C67_3 1_555 1_555
H42_3 C68_3 1_555 1_555
C69_3 C68_3 1_555 1_555
C70_3 C69_3 1_555 1_555
H43_3 C70_3 1_555 1_555
C71_3 C66_3 1_555 1_555
H44_3 C71_3 1_555 1_555
C72_3 C69_3 1_555 1_555
C73_3 C72_3 1_555 1_555
H45_3 C73_3 1_555 1_555
C74_3 C73_3 1_555 1_555
H46_3 C74_3 1_555 1_555
C75_3 C74_3 1_555 1_555
C76_3 C75_3 1_555 1_555
H47_3 C76_3 1_555 1_555
C77_3 C72_3 1_555 1_555
H48_3 C77_3 1_555 1_555
C78_3 C75_3 1_555 1_555
O23 C78_3 1_555 1_555
O24 C78_3 1_555 1_555
Mn9 O8_3 1_555 1_555
O14_3 Mn6 1_555 1_555
O15_3 Mn9 1_555 1_555
Mn5_2 O4_2 1_555 1_555
O16_2 Mn9 1_555 1_555
Mn10 O3_2 1_555 1_555
C6_2 C7_3 1_555 1_555
C12_2 C13_2 1_555 1_555
C18_3 C19_2 1_555 1_555
C24_3 C25_3 1_555 1_555
C31_3 C32_2 1_555 1_555
C37_3 C38_3 1_555 1_555
C45_3 C46_3 1_555 1_555
C51_3 C52_3 1_555 1_555
C57_3 C58_3 1_555 1_555
C70_3 C71_3 1_555 1_555
C76_3 C77_3 1_555 1_555
O15_3 H49_3 1_555 1_555
O15_3 H50_3 1_555 1_555
O14_3 H53_3 1_555 1_555
O14_3 H54_3 1_555 1_555
Mn5 O1_3 1_555 1_555
C3_2 H1_2 1_555 1_555
C60_3 C59_3 1_555 1_555
H37_3 C60_3 1_555 1_555
C61_3 C60_3 1_555 1_555
H38_3 C61_3 1_555 1_555
C62_3 C61_3 1_555 1_555
C63_3 C62_3 1_555 1_555
H39_3 C63_3 1_555 1_555
C64_3 C59_3 1_555 1_555
H40_3 C64_3 1_555 1_555
C65_3 C62_3 1_555 1_555
O20_2 C65_3 1_555 1_555
O21_2 C65_3 1_555 1_555
O13_3 Mn5 1_555 1_555
O17_2 Mn5 1_555 1_555
C63_3 C64_3 1_555 1_555
O13_3 H51_3 1_555 1_555
O13_3 H52_3 1_555 1_555
H30_4 C49_4 1_555 1_555
C50_4 C49_4 1_555 1_555
C51_4 C50_4 1_555 1_555
H31_4 C51_4 1_555 1_555
N2_4 C50_4 1_555 1_555
C53_4 N2_4 1_555 1_555
C54_4 C53_4 1_555 1_555
H33_4 C54_4 1_555 1_555
C55_4 C54_4 1_555 1_555
H34_4 C55_4 1_555 1_555
C56_4 C55_4 1_555 1_555
C57_4 C56_4 1_555 1_555
H35_4 C57_4 1_555 1_555
C58_4 C53_4 1_555 1_555
H36_4 C58_4 1_555 1_555
C59_4 C56_4 1_555 1_555
C60_4 C59_4 1_555 1_555
H37_4 C60_4 1_555 1_555
C61_4 C60_4 1_555 1_555
H38_4 C61_4 1_555 1_555
C62_4 C61_4 1_555 1_555
C63_4 C62_4 1_555 1_555
H39_4 C63_4 1_555 1_555
C64_4 C59_4 1_555 1_555
H40_4 C64_4 1_555 1_555
C65_4 C62_4 1_555 1_555
O20 C65_4 1_555 1_555
O21 C65_4 1_555 1_555
C66_4 N2_4 1_555 1_555
C67_4 C66_4 1_555 1_555
H41_4 C67_4 1_555 1_555
C68_4 C67_4 1_555 1_555
H42_4 C68_4 1_555 1_555
C69_4 C68_4 1_555 1_555
C70_4 C69_4 1_555 1_555
H43_4 C70_4 1_555 1_555
C71_4 C66_4 1_555 1_555
H44_4 C71_4 1_555 1_555
C72_4 C69_4 1_555 1_555
C73_4 C72_4 1_555 1_555
H45_4 C73_4 1_555 1_555
C74_4 C73_4 1_555 1_555
H46_4 C74_4 1_555 1_555
C57_4 C58_4 1_555 1_555
C63_4 C64_4 1_555 1_555
C70_4 C71_4 1_555 1_555
Mn5_2 O1_4 1_555 1_555
O1_4 C1_4 1_555 1_555
O2_4 C1_4 1_555 1_555
C1_4 C2_4 1_555 1_555
C7_4 C2_4 1_555 1_555
H4_4 C7_4 1_555 1_555
Mn7 O2_4 1_555 1_555
O7_4 Mn7 1_555 1_555
O8_4 C40_4 1_555 1_555
C40_4 O7_4 1_555 1_555
C41_4 C40_4 1_555 1_555
C42_4 C41_4 1_555 1_555
C43_4 C42_4 1_555 1_555
H26_4 C43_4 1_555 1_555
C44_4 C43_4 1_555 1_555
C45_4 C44_4 1_555 1_555
H27_4 C45_4 1_555 1_555
C46_4 C41_4 1_555 1_555
H28_4 C46_4 1_555 1_555
C47_4 C44_4 1_555 1_555
C48_4 C47_4 1_555 1_555
H29_4 C48_4 1_555 1_555
C52_4 C47_4 1_555 1_555
H32_4 C52_4 1_555 1_555
O13_4 Mn5_2 1_555 1_555
O14_4 Mn7 1_555 1_555
C45_4 C46_4 1_555 1_555
O13_4 H51_4 1_555 1_555
O13_4 H52_4 1_555 1_555
O14_4 H53_4 1_555 1_555
O14_4 H54_4 1_555 1_555
H18_4 C29_4 1_555 1_555
C30_4 C29_4 1_555 1_555
C31_4 C30_4 1_555 1_555
H19_4 C31_4 1_555 1_555
C33_4 C30_4 1_555 1_555
C34_4 C33_4 1_555 1_555
H21_4 C34_4 1_555 1_555
C35_4 C34_4 1_555 1_555
H22_4 C35_4 1_555 1_555
C36_4 C35_4 1_555 1_555
C37_4 C36_4 1_555 1_555
H23_4 C37_4 1_555 1_555
C38_4 C33_4 1_555 1_555
H24_4 C38_4 1_555 1_555
C39_4 C36_4 1_555 1_555
O18_2 C39_4 1_555 1_555
O19_2 C39_4 1_555 1_555
C76_4 C75_4 1_555 1_555
H47_4 C76_4 1_555 1_555
H48_4 C77_4 1_555 1_555
C78_4 C75_4 1_555 1_555
O22 C78_4 1_555 1_555
C37_4 C38_4 1_555 1_555
C76_4 C77_4 1_555 1_555
O15_4 Mn10 1_555 1_555
O15_4 H49_4 1_555 1_555
O15_4 H50_4 1_555 1_555
H11_4 C18_4 1_555 1_555
C24_4 C23_4 1_555 1_555
H15_4 C24_4 1_555 1_555
C25_4 C20_4 1_555 1_555
H16_4 C25_4 1_555 1_555
C26_4 C23_4 1_555 1_555
O16_2 C26_4 1_555 1_555
O17_2 C26_4 1_555 1_555
C24_4 C25_4 1_555 1_555
C3_3 H1_3 1_555 1_555
C4_3 C3_3 1_555 1_555
H2_3 C4_3 1_555 1_555
C5_3 C4_3 1_555 1_555
C6_3 C5_3 1_555 1_555
H3_3 C6_3 1_555 1_555
C8_3 C5_3 1_555 1_555
C9_3 C8_3 1_555 1_555
H5_3 C9_3 1_555 1_555
C10_3 C9_3 1_555 1_555
H6_3 C10_3 1_555 1_555
C11_3 C10_3 1_555 1_555
C12_3 C11_3 1_555 1_555
H7_3 C12_3 1_555 1_555
C13_3 C8_3 1_555 1_555
H8_3 C13_3 1_555 1_555
N1_3 C11_3 1_555 1_555
C14_3 N1_3 1_555 1_555
C15_3 C14_3 1_555 1_555
H9_3 C15_3 1_555 1_555
C16_3 C15_3 1_555 1_555
H10_3 C16_3 1_555 1_555
C17_3 C16_3 1_555 1_555
C19_3 C14_3 1_555 1_555
H13_3 C21_3 1_555 1_555
C22_3 C21_3 1_555 1_555
H14_3 C22_3 1_555 1_555
C27_3 N1_3 1_555 1_555
C28_3 C27_3 1_555 1_555
H17_3 C28_3 1_555 1_555
C32_3 C27_3 1_555 1_555
H20_3 C32_3 1_555 1_555
C12_3 C13_3 1_555 1_555
C3_4 H1_4 1_555 1_555
C4_4 C3_4 1_555 1_555
H2_4 C4_4 1_555 1_555
C5_4 C4_4 1_555 1_555
C6_4 C5_4 1_555 1_555
H3_4 C6_4 1_555 1_555
C8_4 C5_4 1_555 1_555
C9_4 C8_4 1_555 1_555
H5_4 C9_4 1_555 1_555
C10_4 C9_4 1_555 1_555
H6_4 C10_4 1_555 1_555
C11_4 C10_4 1_555 1_555
C12_4 C11_4 1_555 1_555
H7_4 C12_4 1_555 1_555
C13_4 C8_4 1_555 1_555
H8_4 C13_4 1_555 1_555
N1_4 C11_4 1_555 1_555
C14_4 N1_4 1_555 1_555
C15_4 C14_4 1_555 1_555
H9_4 C15_4 1_555 1_555
C16_4 C15_4 1_555 1_555
H10_4 C16_4 1_555 1_555
C17_4 C16_4 1_555 1_555
C19_4 C14_4 1_555 1_555
H13_4 C21_4 1_555 1_555
C22_4 C21_4 1_555 1_555
H14_4 C22_4 1_555 1_555
C27_4 N1_4 1_555 1_555
C28_4 C27_4 1_555 1_555
H17_4 C28_4 1_555 1_555
C32_4 C27_4 1_555 1_555
H20_4 C32_4 1_555 1_555
C12_4 C13_4 1_555 1_555

#END
