
###############################################################################
#
# This file contains modified crystal structure data generated from the
# MOF subset of the Cambridge Structural Database (CSD) v543 
# hosted by the Cambridge Crystallographic Data Centre (CCDC).
#
# This work is licensed under the Creative Commons
# Attribution-NonCommercial-ShareAlike 4.0 International License.
# To view a copy of this license, visit
# http://creativecommons.org/licenses/by-nc-sa/4.0/
# or send a letter to
# Creative Commons, PO Box 1866, Mountain View, CA 94042, USA.
#
# CIF created using the CSD Python API on 29 September 2022
# The structure has been converted into the P1 space group
# The structure has a 3D framework
# The original CSD entry SAGZUW is in the orthorhombic crystal system
# The framework has been calculated to contain at least 10.0% void space
# The void calculation uses a probe of radius 1.32A, grid spacing 0.4
# The framework is charged, counterions have been retained in the structure
#
###############################################################################

data_SAGZUW
_chemical_formula_moiety         '(C32 Cl16 Fe16 O70 16-)n'
_symmetry_cell_setting           triclinic
_symmetry_space_group_name_H-M   'P 1'
_symmetry_Int_Tables_number      1
_space_group_name_Hall           'P 1'
loop_
_symmetry_equiv_pos_site_id
_symmetry_equiv_pos_as_xyz
1 x,y,z
_cell_length_a                   14.963(5)
_cell_length_b                   23.345(8)
_cell_length_c                   9.317(3)
_cell_angle_alpha                90
_cell_angle_beta                 90
_cell_angle_gamma                90
_cell_volume                     3254.53
loop_
_atom_site_label
_atom_site_type_symbol
_atom_site_fract_x
_atom_site_fract_y
_atom_site_fract_z
Fe1 Fe 0.17748(12) 0.19458(7) 0.3041(3)
Cl1 Cl 0.0688(3) 0.25380(18) 0.3953(7)
O1 O 0.0877(6) 0.1231(4) 0.3577(10)
O2 O 0.0200(6) 0.1211(4) 0.0036(11)
O4 O 0.1217(6) 0.1750(4) 0.1139(12)
O5 O 0.2500 0.2500 0.2319(14)
C1 C 0.0629(8) 0.1386(5) 0.1054(15)
C2 C 0.0443(9) 0.1093(6) 0.2472(19)
O6 O 0.3377(6) 0.1269(4) 0.6077(10)
O7 O 0.2700(6) 0.1289(4) 0.2536(11)
O8 O 0.2317(6) 0.1801(4) 0.4956(10)
O9 O 0.3717(6) 0.0750(4) 0.3639(12)
C3 C 0.3129(8) 0.1114(5) 0.3554(15)
C4 C 0.2943(9) 0.1407(6) 0.4972(19)
Fe2 Fe 0.42748(12) 0.05542(7) 0.5541(3)
Fe4 Fe 0.32252(12) 0.30542(7) 0.3041(3)
O10 O 0.5200(6) 0.1211(4) 0.5036(11)
O11 O 0.4817(6) 0.0699(4) 0.7456(10)
O12 O 0.5000 0.0000 0.4819(14)
Cl2 Cl 0.3188(3) 0.99620(18) 0.6453(7)
O12_2 O 0.5000 1.0000 0.4819(14)
Cl2_2 Cl 0.6812(3) 0.00380(18) 0.6453(7)
Fe1_2 Fe 0.82252(12) 0.80542(7) 0.3041(3)
Cl1_2 Cl 0.9312(3) 0.74620(18) 0.3953(7)
O1_2 O 0.9123(6) 0.8769(4) 0.3577(10)
O2_2 O 0.9800(6) 0.8789(4) 0.0036(11)
O4_2 O 0.8783(6) 0.8250(4) 0.1139(12)
O5_2 O 0.7500 0.7500 0.2319(14)
C1_2 C 0.9371(8) 0.8614(5) 0.1054(15)
C2_2 C 0.9557(9) 0.8907(6) 0.2472(19)
O6_2 O 0.6623(6) 0.8731(4) 0.6077(10)
O7_2 O 0.7300(6) 0.8711(4) 0.2536(11)
O8_2 O 0.7683(6) 0.8199(4) 0.4956(10)
O9_2 O 0.6283(6) 0.9250(4) 0.3639(12)
C3_2 C 0.6871(8) 0.8886(5) 0.3554(15)
C4_2 C 0.7057(9) 0.8593(6) 0.4972(19)
Fe2_2 Fe 0.57252(12) 0.94458(7) 0.5541(3)
Fe4_2 Fe 0.67748(12) 0.69458(7) 0.3041(3)
O10_2 O 0.4800(6) 0.8789(4) 0.5036(11)
O11_2 O 0.5183(6) 0.9301(4) 0.7456(10)
O6_3 O 0.5877(6) 0.1231(4) 0.8577(10)
O9_3 O 0.6217(6) 0.1750(4) 0.6139(12)
C3_3 C 0.5629(8) 0.1386(5) 0.6054(15)
C4_3 C 0.5443(9) 0.1093(6) 0.7472(19)
Fe2_3 Fe 0.67748(12) 0.19458(7) 0.8041(3)
Cl2_3 Cl 0.5688(3) 0.25380(18) 0.8953(7)
O10_3 O 0.7700(6) 0.1289(4) 0.7536(11)
O11_3 O 0.7317(6) 0.1801(4) 0.9956(10)
O12_3 O 0.7500 0.2500 0.7319(14)
Fe1_3 Fe 0.07252(12) 0.44458(7) 0.5541(3)
Cl1_3 Cl 0.1812(3) 0.50380(18) 0.6453(7)
O1_3 O 0.1623(6) 0.3731(4) 0.6077(10)
O2_3 O 0.2300(6) 0.3711(4) 0.2536(11)
O3 O 0.2683(6) 0.3199(4) 0.4956(10)
O4_3 O 0.1283(6) 0.4250(4) 0.3639(12)
O5_3 O -0.0000 0.5000 0.4819(14)
C1_3 C 0.1871(8) 0.3886(5) 0.3554(15)
C2_3 C 0.2057(9) 0.3593(6) 0.4972(19)
O8_3 O 0.0183(6) 0.4301(4) 0.7456(10)
O5_4 O 1.0000 0.5000 0.4819(14)
O6_4 O 0.9123(6) 0.3769(4) 0.8577(10)
O7_3 O 0.9800(6) 0.3789(4) 0.5036(11)
O9_4 O 0.8783(6) 0.3250(4) 0.6139(12)
C3_4 C 0.9371(8) 0.3614(5) 0.6054(15)
C4_4 C 0.9557(9) 0.3907(6) 0.7472(19)
Fe2_4 Fe 0.82252(12) 0.30542(7) 0.8041(3)
Cl2_4 Cl 0.9312(3) 0.24620(18) 0.8953(7)
Fe4_3 Fe 0.92748(12) 0.55542(7) 0.5541(3)
O10_4 O 0.7300(6) 0.3711(4) 0.7536(11)
O11_4 O 0.7683(6) 0.3199(4) 0.9956(10)
O6_5 O 0.3377(6) 0.6269(4) 0.1077(10)
Fe2_5 Fe 0.42748(12) 0.55542(7) 0.0541(3)
Cl2_5 Cl 0.3188(3) 0.49620(18) 0.1453(7)
O10_5 O 0.5200(6) 0.6211(4) 0.0036(11)
O11_5 O 0.4817(6) 0.5699(4) 0.2456(10)
Fe1_4 Fe 0.17748(12) 0.69458(7) 0.8041(3)
Cl1_4 Cl 0.0688(3) 0.75380(18) 0.8953(7)
O1_4 O 0.0877(6) 0.6231(4) 0.8577(10)
O2_4 O 0.0200(6) 0.6211(4) 0.5036(11)
O4_4 O 0.1217(6) 0.6750(4) 0.6139(12)
O5_5 O 0.2500 0.7500 0.7319(14)
C1_4 C 0.0629(8) 0.6386(5) 0.6054(15)
C2_4 C 0.0443(9) 0.6093(6) 0.7472(19)
O7_4 O 0.2700(6) 0.6289(4) 0.7536(11)
O8_4 O 0.2317(6) 0.6801(4) 0.9956(10)
O9_5 O 0.3717(6) 0.5750(4) 0.8639(12)
C3_5 C 0.3129(8) 0.6114(5) 0.8554(15)
C4_5 C 0.2943(9) 0.6407(6) 0.9972(19)
Fe4_4 Fe 0.32252(12) 0.80542(7) 0.8041(3)
O12_4 O 0.5000 0.5000 0.9819(14)
O3_2 O 0.9817(6) 0.5699(4) 0.7456(10)
O6_6 O 0.6623(6) 0.3731(4) 0.1077(10)
Fe2_6 Fe 0.57252(12) 0.44458(7) 0.0541(3)
Cl2_6 Cl 0.6812(3) 0.50380(18) 0.1453(7)
O10_6 O 0.4800(6) 0.3789(4) 0.0036(11)
O11_6 O 0.5183(6) 0.4301(4) 0.2456(10)
O9_6 O 0.6283(6) 0.4250(4) 0.8639(12)
C3_6 C 0.6871(8) 0.3886(5) 0.8554(15)
C4_6 C 0.7057(9) 0.3593(6) 0.9972(19)
O6_7 O 0.5877(6) 0.6231(4) 0.3577(10)
O9_7 O 0.6217(6) 0.6750(4) 0.1139(12)
C3_7 C 0.5629(8) 0.6386(5) 0.1054(15)
C4_7 C 0.5443(9) 0.6093(6) 0.2472(19)
Cl2_7 Cl 0.5688(3) 0.75380(18) 0.3953(7)
O10_7 O 0.7700(6) 0.6289(4) 0.2536(11)
O11_7 O 0.7317(6) 0.6801(4) 0.4956(10)
O2_5 O 0.2300(6) 0.8711(4) 0.7536(11)
O3_3 O 0.2683(6) 0.8199(4) 0.9956(10)
O4_5 O 0.1283(6) 0.9250(4) 0.8639(12)
O5_6 O -0.0000 1.0000 0.9819(14)
C1_5 C 0.1871(8) 0.8886(5) 0.8554(15)
C2_5 C 0.2057(9) 0.8593(6) 0.9972(19)
O5_7 O 1.0000 0.0000 0.9819(14)
O9_8 O 0.8717(6) 0.0750(4) 0.8639(12)
C3_8 C 0.8129(8) 0.1114(5) 0.8554(15)
C4_8 C 0.7943(9) 0.1407(6) 0.9972(19)
Cl1_5 Cl 0.4312(3) 0.74620(18) 0.8953(7)
O1_5 O 0.4123(6) 0.8769(4) 0.8577(10)
O4_6 O 0.3783(6) 0.8250(4) 0.6139(12)
C1_6 C 0.4371(8) 0.8614(5) 0.6054(15)
C2_6 C 0.4557(9) 0.8907(6) 0.7472(19)
O6_8 O 0.4123(6) 0.3769(4) 0.3577(10)
O9_9 O 0.3783(6) 0.3250(4) 0.1139(12)
C3_9 C 0.4371(8) 0.3614(5) 0.1054(15)
C4_9 C 0.4557(9) 0.3907(6) 0.2472(19)
Cl2_8 Cl 0.4312(3) 0.24620(18) 0.3953(7)
O6_9 O 0.8377(6) 0.6269(4) 0.6077(10)
O9_10 O 0.8717(6) 0.5750(4) 0.3639(12)
C3_10 C 0.8129(8) 0.6114(5) 0.3554(15)
C4_10 C 0.7943(9) 0.6407(6) 0.4972(19)
Cl2_9 Cl 0.8188(3) 0.49620(18) 0.6453(7)
O3_4 O 0.9817(6) 0.0699(4) 0.2456(10)
Fe3 Fe 0.92748(12) 0.05542(7) 0.0541(3)
O6_10 O 0.8377(6) 0.1269(4) 0.1077(10)
O3_5 O 0.0183(6) 0.9301(4) 0.2456(10)
Fe3_2 Fe 0.07252(12) 0.94458(7) 0.0541(3)
O1_6 O 0.1623(6) 0.8731(4) 0.1077(10)
Cl1_6 Cl 0.1812(3) 0.00380(18) 0.1453(7)
O5_8 O -0.0000 0.0000 0.9819(14)
O5_9 O 1.0000 1.0000 0.9819(14)
Cl2_10 Cl 0.8188(3) 0.99620(18) 0.1453(7)
loop_
_geom_bond_atom_site_label_1
_geom_bond_atom_site_label_2
_geom_bond_site_symmetry_1
_geom_bond_site_symmetry_2
Fe1 Cl1 1_555 1_555
O1 Fe1 1_555 1_555
O2 C1 1_555 1_555
O4 Fe1 1_555 1_555
O5 Fe1 1_555 1_555
C1 O4 1_555 1_555
C2 O1 1_555 1_555
O6 C4 1_555 1_555
O7 Fe1 1_555 1_555
O8 Fe1 1_555 1_555
O9 C3 1_555 1_555
C3 O7 1_555 1_555
C4 O8 1_555 1_555
Fe2 O6 1_555 1_555
Fe4 O5 1_555 1_555
O10 Fe2 1_555 1_555
O11 Fe2 1_555 1_555
O12 Fe2 1_555 1_555
C1 C2 1_555 1_555
O9 Fe2 1_555 1_555
C3 C4 1_555 1_555
Fe1_2 Cl1_2 1_555 1_555
O1_2 Fe1_2 1_555 1_555
O2_2 C1_2 1_555 1_555
O4_2 Fe1_2 1_555 1_555
O5_2 Fe1_2 1_555 1_555
C1_2 O4_2 1_555 1_555
C2_2 O1_2 1_555 1_555
O6_2 C4_2 1_555 1_555
O7_2 Fe1_2 1_555 1_555
O8_2 Fe1_2 1_555 1_555
O9_2 C3_2 1_555 1_555
C3_2 O7_2 1_555 1_555
C4_2 O8_2 1_555 1_555
Fe2_2 O6_2 1_555 1_555
Fe4_2 O5_2 1_555 1_555
O10_2 Fe2_2 1_555 1_555
O11_2 Fe2_2 1_555 1_555
O12_2 Fe2_2 1_555 1_555
C1_2 C2_2 1_555 1_555
O9_2 Fe2_2 1_555 1_555
C3_2 C4_2 1_555 1_555
O6_3 C4_3 1_555 1_555
O9_3 C3_3 1_555 1_555
C3_3 O10 1_555 1_555
C4_3 O11 1_555 1_555
Fe2_3 O6_3 1_555 1_555
Cl2_3 Fe2_3 1_555 1_555
O10_3 Fe2_3 1_555 1_555
O11_3 Fe2_3 1_555 1_555
O12_3 Fe2_3 1_555 1_555
O9_3 Fe2_3 1_555 1_555
C3_3 C4_3 1_555 1_555
Fe1_3 Cl1_3 1_555 1_555
O1_3 Fe1_3 1_555 1_555
O2_3 C1_3 1_555 1_555
O3 C2_3 1_555 1_555
O4_3 Fe1_3 1_555 1_555
O5_3 Fe1_3 1_555 1_555
C1_3 O4_3 1_555 1_555
C2_3 O1_3 1_555 1_555
O8_3 Fe1_3 1_555 1_555
Fe4 O2_3 1_555 1_555
O3 Fe4 1_555 1_555
C1_3 C2_3 1_555 1_555
O6_4 C4_4 1_555 1_555
O9_4 C3_4 1_555 1_555
C3_4 O7_3 1_555 1_555
Fe2_4 O6_4 1_555 1_555
Cl2_4 Fe2_4 1_555 1_555
Fe4_3 O5_4 1_555 1_555
O10_4 Fe2_4 1_555 1_555
O11_4 Fe2_4 1_555 1_555
O12_3 Fe2_4 1_555 1_555
O9_4 Fe2_4 1_555 1_555
C3_4 C4_4 1_555 1_555
Fe2_5 O6_5 1_555 1_555
Cl2_5 Fe2_5 1_555 1_555
O10_5 Fe2_5 1_555 1_555
O11_5 Fe2_5 1_555 1_555
Fe1_4 Cl1_4 1_555 1_555
O1_4 Fe1_4 1_555 1_555
O2_4 C1_4 1_555 1_555
O4_4 Fe1_4 1_555 1_555
O5_5 Fe1_4 1_555 1_555
C1_4 O4_4 1_555 1_555
C2_4 O1_4 1_555 1_555
O7_4 Fe1_4 1_555 1_555
O8_4 Fe1_4 1_555 1_555
O9_5 C3_5 1_555 1_555
C3_5 O7_4 1_555 1_555
C4_5 O8_4 1_555 1_555
Fe4_4 O5_5 1_555 1_555
C1_4 C2_4 1_555 1_555
C3_5 C4_5 1_555 1_555
O3_2 Fe4_3 1_555 1_555
Fe2_6 O6_6 1_555 1_555
Cl2_6 Fe2_6 1_555 1_555
O10_6 Fe2_6 1_555 1_555
O11_6 Fe2_6 1_555 1_555
O9_6 C3_6 1_555 1_555
C3_6 O10_4 1_555 1_555
C4_6 O11_4 1_555 1_555
C3_6 C4_6 1_555 1_555
O6_7 C4_7 1_555 1_555
O9_7 C3_7 1_555 1_555
C3_7 O10_5 1_555 1_555
C4_7 O11_5 1_555 1_555
Fe4_2 O6_7 1_555 1_555
Cl2_7 Fe4_2 1_555 1_555
O10_7 Fe4_2 1_555 1_555
O11_7 Fe4_2 1_555 1_555
O9_7 Fe4_2 1_555 1_555
C3_7 C4_7 1_555 1_555
O2_5 C1_5 1_555 1_555
O3_3 C2_5 1_555 1_555
C1_5 O4_5 1_555 1_555
Fe4_4 O2_5 1_555 1_555
O3_3 Fe4_4 1_555 1_555
C1_5 C2_5 1_555 1_555
O9_8 C3_8 1_555 1_555
C3_8 O10_3 1_555 1_555
C4_8 O11_3 1_555 1_555
C3_8 C4_8 1_555 1_555
Fe4_4 Cl1_5 1_555 1_555
O1_5 Fe4_4 1_555 1_555
O10_2 C1_6 1_555 1_555
O11_2 C2_6 1_555 1_555
O4_6 Fe4_4 1_555 1_555
C1_6 O4_6 1_555 1_555
C2_6 O1_5 1_555 1_555
C1_6 C2_6 1_555 1_555
O6_8 C4_9 1_555 1_555
O9_9 C3_9 1_555 1_555
C3_9 O10_6 1_555 1_555
C4_9 O11_6 1_555 1_555
Fe4 O6_8 1_555 1_555
Cl2_8 Fe4 1_555 1_555
O9_9 Fe4 1_555 1_555
C3_9 C4_9 1_555 1_555
O6_9 C4_10 1_555 1_555
O9_10 C3_10 1_555 1_555
C3_10 O10_7 1_555 1_555
C4_10 O11_7 1_555 1_555
Fe4_3 O6_9 1_555 1_555
Cl2_9 Fe4_3 1_555 1_555
O9_10 Fe4_3 1_555 1_555
C3_10 C4_10 1_555 1_555
O3_4 Fe3 1_555 1_555
Fe3 O6_10 1_555 1_555
O3_5 Fe3_2 1_555 1_555
O1_6 Fe3_2 1_555 1_555

#END
