
###############################################################################
#
# This file contains modified crystal structure data generated from the
# MOF subset of the Cambridge Structural Database (CSD) v543 
# hosted by the Cambridge Crystallographic Data Centre (CCDC).
#
# This work is licensed under the Creative Commons
# Attribution-NonCommercial-ShareAlike 4.0 International License.
# To view a copy of this license, visit
# http://creativecommons.org/licenses/by-nc-sa/4.0/
# or send a letter to
# Creative Commons, PO Box 1866, Mountain View, CA 94042, USA.
#
# CIF created using the CSD Python API on 29 September 2022
# The structure has been converted into the P1 space group
# The structure has a 3D framework
# The original CSD entry SAHCIR is in the monoclinic crystal system
# The framework has been calculated to contain at least 10.0% void space
# The void calculation uses a probe of radius 1.32A, grid spacing 0.4
#
###############################################################################

data_SAHCIR
_chemical_formula_moiety         '(C316 H264 Cl8 Mn12 N48 O64 Rh8)n'
_symmetry_cell_setting           triclinic
_symmetry_space_group_name_H-M   'P 1'
_symmetry_Int_Tables_number      1
_space_group_name_Hall           'P 1'
loop_
_symmetry_equiv_pos_site_id
_symmetry_equiv_pos_as_xyz
1 x,y,z
_cell_length_a                   12.339(3)
_cell_length_b                   33.798(7)
_cell_length_c                   25.762(5)
_cell_angle_alpha                90
_cell_angle_beta                 96.10(3)
_cell_angle_gamma                90
_cell_volume                     10682.8
loop_
_atom_site_label
_atom_site_type_symbol
_atom_site_fract_x
_atom_site_fract_y
_atom_site_fract_z
Rh1 Rh 0.22348(6) 0.27352(2) 0.83519(3)
C3 C 0.0979(7) 0.2667(2) 0.9334(4)
H5 H 0.0620 0.2646 0.9658
H6 H 0.1775 0.2685 0.9432
N3 N 0.0608(6) 0.3019(2) 0.9057(3)
N6 N 0.1020(6) 0.3090(2) 0.8588(3)
C6 C 0.0448(7) 0.3392(2) 0.8371(4)
C15 C 0.0627(9) 0.3545(3) 0.7843(4)
H13 H 0.1245 0.3729 0.7874
H15 H 0.0782 0.3323 0.7617
N9 N 0.0739(6) 0.2317(2) 0.9017(3)
N12 N 0.1295(6) 0.2268(2) 0.8594(3)
C19 C 0.0241(6) 0.5767(2) 0.3068(3)
C21 C 0.0889(8) 0.1940(3) 0.8364(4)
C22 C 0.1042(6) 0.6006(2) 0.3335(3)
C24 C 0.0065(7) 0.1785(3) 0.8635(3)
C25 C 0.0493(6) 0.6259(2) 0.3642(3)
C28 C 0.0363(7) 0.5450(3) 0.2680(4)
H25 H 0.0514 0.5198 0.2862
H26 H 0.0968 0.5515 0.2478
C30 C 0.1254(10) 0.1793(4) 0.7853(5)
H31 H 0.1301 0.2017 0.7615
H32 H 0.0727 0.1600 0.7695
H33 H 0.1972 0.1668 0.7921
C31 C 0.0908(7) 0.6564(3) 0.4025(4)
H34 H 0.0531 0.6815 0.3941
H35 H 0.1692 0.6599 0.4010
H36 H 0.0775 0.6479 0.4376
C55 C 0.2227(7) 0.5981(2) 0.3293(3)
C58 C 0.2833(6) 0.6310(2) 0.3160(3)
H55 H 0.2497 0.6563 0.3120
C60 C 0.0009(8) 0.1056(3) 0.8543(4)
H57 H 0.0771 0.1051 0.8646
C61 C 0.3933(6) 0.6265(2) 0.3088(3)
H58 H 0.4342 0.6488 0.2999
C64 C 0.4437(6) 0.5896(2) 0.3144(3)
C67 C 0.3836(7) 0.5577(2) 0.3309(4)
H61 H 0.4176 0.5327 0.3368
C70 C 0.2763(7) 0.5623(2) 0.3387(4)
H64 H 0.2376 0.5405 0.3509
C73 C 0.5574(7) 0.5838(2) 0.3045(3)
O7 O 0.6229(4) 0.61203(16) 0.3020(2)
O10 O 0.5901(4) 0.54764(16) 0.29956(19)
C76 C 0.3076(9) 0.3181(4) 0.8184(5)
O13 O 0.3597(7) 0.3437(2) 0.8110(4)
C77 C 0.3323(10) 0.2414(4) 0.8136(6)
O14 O 0.3979(10) 0.2227(3) 0.8000(6)
Mn8 Mn 0.54492(9) 0.49465(3) 0.25069(4)
Mn11 Mn 0.76358(9) 0.55624(3) 0.30286(4)
C2 C 0.2552(6) 0.3442(2) 0.1405(3)
H3 H 0.2353 0.3178 0.1257
H4 H 0.3153 0.3406 0.1688
N2 N 0.2916(5) 0.36956(18) 0.0998(3)
N5 N 0.3393(5) 0.40491(18) 0.1153(2)
C5 C 0.3578(6) 0.4231(2) 0.0713(3)
C8 C 0.3221(6) 0.3992(2) 0.0266(3)
C11 C 0.2814(6) 0.3648(2) 0.0481(3)
C14 C 0.4102(8) 0.4630(3) 0.0723(3)
H10 H 0.4256 0.4719 0.1085
H11 H 0.3609 0.4818 0.0529
H12 H 0.4784 0.4614 0.0561
C17 C 0.2380(8) 0.3287(3) 0.0205(3)
H19 H 0.2661 0.3052 0.0398
H21 H 0.1582 0.3289 0.0183
N8 N 0.1614(5) 0.36165(18) 0.1617(2)
N11 N 0.1799(5) 0.39516(19) 0.1913(2)
C20 C 0.0810(6) 0.4083(2) 0.2002(3)
C26 C 0.0546(6) 0.3534(2) 0.1528(3)
C29 C 0.0696(7) 0.4458(3) 0.2284(4)
H28 H 0.1305 0.4486 0.2559
H29 H 0.0007 0.4457 0.2442
H30 H 0.0700 0.4680 0.2039
C32 C 0.0110(7) 0.3189(2) 0.1205(4)
H37 H 0.0395 0.3197 0.0865
H39 H 0.0339 0.2942 0.1384
Mn5 Mn 0.33929(9) 0.42715(3) 0.20035(4)
Mn1 Mn 0.66071(9) 0.57285(3) 0.79965(4)
C1 C 0.8503(6) 0.6318(2) 0.3782(3)
H1 H 0.7921 0.6393 0.3505
H2 H 0.8718 0.6557 0.3989
Mn2 Mn 0.45508(9) 0.50535(3) 0.74931(4)
Mn3 Mn 0.23642(9) 0.44376(3) 0.69714(4)
N1 N 0.8086(5) 0.60191(19) 0.4122(3)
N4 N 0.7528(5) 0.57042(19) 0.3896(2)
C4 C 0.7114(6) 0.5521(2) 0.4289(3)
C7 C 0.7398(7) 0.5709(2) 0.4761(3)
C9 C 0.9693(7) 0.3521(2) 0.8704(3)
C10 C 0.8054(6) 0.6030(2) 0.4647(3)
C12 C 0.9817(7) 0.3279(2) 0.9136(4)
C13 C 0.6438(7) 0.5151(3) 0.4198(3)
H7 H 0.5666 0.5222 0.4137
H8 H 0.6556 0.4979 0.4505
H9 H 0.6654 0.5011 0.3892
H14 H 0.9970 0.3683 0.7691
C16 C 0.8624(8) 0.6335(3) 0.4993(3)
H16 H 0.9403 0.6273 0.5049
H17 H 0.8320 0.6337 0.5330
H18 H 0.8523 0.6595 0.4829
H20 H 0.2610 0.3282 0.9853
C18 C 0.9179(8) 0.3267(3) 0.9586(4)
H22 H 0.9126 0.2993 0.9706
H23 H 0.8446 0.3371 0.9484
H24 H 0.9539 0.3429 0.9870
N7 N 0.9428(5) 0.61681(18) 0.3547(2)
N10 N 0.9242(5) 0.58652(18) 0.3189(2)
C27 C 0.9987(7) 0.2036(2) 0.9056(3)
H27 H 0.9688 0.5427 0.2445
C33 C 0.9246(8) 0.2022(3) 0.9470(3)
H40 H 0.9672 0.2041 0.9813
H41 H 0.8840 0.1772 0.9446
H42 H 0.8733 0.2244 0.9426
C34 C 0.7101(6) 0.5610(3) 0.5286(3)
C35 C 0.3215(6) 0.4095(2) 0.9716(3)
C36 C 0.8916(7) 0.3858(2) 0.8597(4)
C37 C 0.6016(8) 0.5568(3) 0.5373(3)
H43 H 0.5464 0.5578 0.5086
C38 C 0.4075(7) 0.4293(3) 0.9526(3)
H44 H 0.4723 0.4340 0.9752
C39 C 0.9099(7) 0.4218(3) 0.8840(3)
H45 H 0.9688 0.4247 0.9106
C40 C 0.5730(8) 0.5511(3) 0.5875(4)
H46 H 0.4988 0.5470 0.5929
C41 C 0.4012(7) 0.4425(2) 0.9015(3)
H47 H 0.4611 0.4562 0.8894
C42 C 0.8426(7) 0.4538(2) 0.8700(3)
H48 H 0.8563 0.4785 0.8868
C43 C 0.6526(7) 0.5513(3) 0.6299(3)
C44 C 0.3073(7) 0.4358(2) 0.8676(3)
C45 C 0.7564(7) 0.4500(2) 0.8319(3)
C46 C 0.7584(7) 0.5524(3) 0.6211(3)
H49 H 0.8132 0.5503 0.6499
C47 C 0.2226(7) 0.4153(2) 0.8855(3)
H50 H 0.1595 0.4096 0.8623
C48 C 0.7366(8) 0.4134(3) 0.8083(4)
H51 H 0.6756 0.4102 0.7829
C49 C 0.7895(8) 0.5565(3) 0.5708(4)
H52 H 0.8645 0.5563 0.5654
C50 C 0.2279(7) 0.4031(2) 0.9361(3)
H53 H 0.1670 0.3898 0.9477
C51 C 0.8040(8) 0.3819(3) 0.8211(4)
H54 H 0.7910 0.3573 0.8036
C52 C 0.6194(6) 0.5500(3) 0.6846(3)
C53 C 0.3023(6) 0.4515(2) 0.8133(3)
C54 C 0.6867(6) 0.4849(2) 0.8140(3)
O1 O 0.6821(5) 0.5644(2) 0.7204(2)
O2 O 0.3665(5) 0.47890(17) 0.8049(2)
O3 O 0.7246(4) 0.51866(16) 0.8272(2)
O4 O 0.5325(5) 0.53287(18) 0.6899(2)
O5 O 0.2326(4) 0.43684(17) 0.7788(2)
O6 O 0.5993(4) 0.47882(16) 0.7860(2)
C57 C 0.9470(8) 0.1410(3) 0.8512(4)
C63 C 0.9451(7) 0.0700(3) 0.8424(4)
H60 H 0.9833 0.0456 0.8457
C66 C 0.8370(8) 0.0704(3) 0.8261(3)
C69 C 0.7817(8) 0.1057(3) 0.8219(4)
H63 H 0.7062 0.1060 0.8099
C72 C 0.8364(8) 0.1417(3) 0.8354(4)
H66 H 0.7976 0.1660 0.8336
C75 C 0.7769(7) 0.0320(3) 0.8097(3)
O9 O 0.6830(5) 0.03553(17) 0.7888(2)
O12 O 0.8285(5) 0.00037(16) 0.8184(2)
Mn6 Mn 0.54492(9) 0.00535(3) 0.75069(4)
N13 N 0.2472(5) 0.42958(19) 0.6104(2)
N14 N 0.6607(5) 0.59509(18) 0.8847(2)
N15 N 0.0758(5) 0.41348(18) 0.6811(2)
N16 N 0.8201(5) 0.60484(19) 0.8087(2)
O15 O 0.4888(4) 0.55765(15) 0.80103(19)
O16 O 0.3170(5) 0.53553(17) 0.7112(2)
O17 O 0.4099(4) 0.45236(16) 0.70044(19)
O18 O 0.5182(4) 0.62133(16) 0.7921(2)
O19 O 0.1715(5) 0.50037(16) 0.6816(2)
Mn9 Mn 0.76358(9) 0.94376(3) 0.80286(4)
C23 C 0.9997(6) 0.3826(2) 0.1771(3)
H38 H 0.9313 0.3201 0.1156
C56 C 0.8809(6) 0.3869(2) 0.1799(3)
C59 C 0.8155(6) 0.3555(2) 0.1926(3)
H56 H 0.8461 0.3298 0.1976
C62 C 0.7077(7) 0.3614(2) 0.1980(3)
H59 H 0.6646 0.3395 0.2067
C65 C 0.6582(7) 0.3993(2) 0.1908(3)
C68 C 0.7239(6) 0.4297(2) 0.1758(3)
H62 H 0.6932 0.4552 0.1692
C71 C 0.8330(6) 0.4237(2) 0.1702(3)
H65 H 0.8757 0.4451 0.1597
C74 C 0.5450(6) 0.4061(2) 0.2005(3)
O8 O 0.5112(4) 0.44235(15) 0.19897(19)
O11 O 0.4818(4) 0.37867(16) 0.2079(2)
C23_2 C 0.0003(6) 0.8826(2) 0.3229(3)
H38_2 H 0.0687 0.8201 0.3844
C56_2 C 0.1191(6) 0.8869(2) 0.3201(3)
C59_2 C 0.1845(6) 0.8555(2) 0.3074(3)
H56_2 H 0.1539 0.8298 0.3024
C62_2 C 0.2923(7) 0.8614(2) 0.3020(3)
H59_2 H 0.3354 0.8395 0.2933
C65_2 C 0.3418(7) 0.8993(2) 0.3092(3)
C68_2 C 0.2761(6) 0.9297(2) 0.3242(3)
H62_2 H 0.3068 0.9552 0.3308
C71_2 C 0.1670(6) 0.9237(2) 0.3298(3)
H65_2 H 0.1243 0.9451 0.3403
C74_2 C 0.4550(6) 0.9061(2) 0.2995(3)
O8_2 O 0.4888(4) 0.94235(15) 0.30103(19)
O11_2 O 0.5182(4) 0.87867(16) 0.2921(2)
Mn4 Mn 0.66071(9) 0.92715(3) 0.29965(4)
Mn7 Mn 0.45508(9) 0.99465(3) 0.24931(4)
C1_2 C 0.1497(6) 0.1318(2) 0.1218(3)
H1_2 H 0.2079 0.1393 0.1495
H2_2 H 0.1282 0.1557 0.1011
N1_2 N 0.1914(5) 0.10191(19) 0.0878(3)
N4_2 N 0.2472(5) 0.07042(19) 0.1104(2)
C4_2 C 0.2886(6) 0.0521(2) 0.0711(3)
C7_2 C 0.2602(7) 0.0709(2) 0.0239(3)
C10_2 C 0.1946(6) 0.1030(2) 0.0353(3)
C13_2 C 0.3562(7) 0.0151(3) 0.0802(3)
H7_2 H 0.4334 0.0222 0.0863
H9_2 H 0.3346 0.0011 0.1108
C16_2 C 0.1376(8) 0.1335(3) 0.0007(3)
H18_2 H 0.1477 0.1595 0.0171
N7_2 N 0.0572(5) 0.11681(18) 0.1453(2)
N10_2 N 0.0758(5) 0.08652(18) 0.1811(2)
H27_2 H 0.0312 0.0427 0.2555
Mn10 Mn 0.23642(9) 0.05624(3) 0.19714(4)
Mn1_2 Mn 0.33929(9) 0.07285(3) 0.70035(4)
H16_2 H 0.0597 0.1273 0.9951
H17_2 H 0.1680 0.1337 0.9670
C34_2 C 0.2899(6) 0.0610(3) 0.9714(3)
C37_2 C 0.3984(8) 0.0568(3) 0.9627(3)
H43_2 H 0.4536 0.0578 0.9914
C40_2 C 0.4270(8) 0.0511(3) 0.9125(4)
H46_2 H 0.5012 0.0470 0.9071
C43_2 C 0.3474(7) 0.0513(3) 0.8701(3)
C46_2 C 0.2416(7) 0.0524(3) 0.8789(3)
H49_2 H 0.1868 0.0503 0.8501
C49_2 C 0.2105(8) 0.0565(3) 0.9292(4)
H52_2 H 0.1355 0.0563 0.9346
C52_2 C 0.3806(6) 0.0500(3) 0.8154(3)
O1_2 O 0.3179(5) 0.0644(2) 0.7796(2)
O3_2 O 0.2754(4) 0.01866(16) 0.6728(2)
O4_2 O 0.4675(5) 0.03287(18) 0.8101(2)
N14_2 N 0.3393(5) 0.09509(18) 0.6153(2)
N16_2 N 0.1799(5) 0.10484(19) 0.6913(2)
O15_2 O 0.5112(4) 0.05765(15) 0.69897(19)
O18_2 O 0.4818(4) 0.12133(16) 0.7079(2)
C2_2 C 0.7448(6) 0.8442(2) 0.3595(3)
H3_2 H 0.7647 0.8178 0.3743
H4_2 H 0.6847 0.8406 0.3312
N2_2 N 0.7084(5) 0.86956(18) 0.4002(3)
N5_2 N 0.6607(5) 0.90491(18) 0.3847(2)
C5_2 C 0.6422(6) 0.9231(2) 0.4287(3)
C8_2 C 0.6779(6) 0.8992(2) 0.4734(3)
C9_2 C 0.0307(7) 0.8521(2) 0.6296(3)
C11_2 C 0.7186(6) 0.8648(2) 0.4519(3)
C12_2 C 0.0183(7) 0.8279(2) 0.5864(4)
C14_2 C 0.5898(8) 0.9630(3) 0.4277(3)
H10_2 H 0.5744 0.9719 0.3915
H11_2 H 0.6391 0.9818 0.4471
H12_2 H 0.5216 0.9614 0.4439
H14_2 H 0.0030 0.8683 0.7309
C17_2 C 0.7620(8) 0.8287(3) 0.4795(3)
H19_2 H 0.7339 0.8052 0.4602
H20_2 H 0.7390 0.8282 0.5147
H21_2 H 0.8418 0.8289 0.4817
C18_2 C 0.0821(8) 0.8267(3) 0.5414(4)
H22_2 H 0.0874 0.7993 0.5294
H23_2 H 0.1554 0.8371 0.5516
H24_2 H 0.0461 0.8429 0.5130
N8_2 N 0.8386(5) 0.86165(18) 0.3383(2)
N11_2 N 0.8201(5) 0.89516(19) 0.3087(2)
C20_2 C 0.9190(6) 0.9083(2) 0.2998(3)
C26_2 C 0.9454(6) 0.8534(2) 0.3472(3)
C27_2 C 0.0013(7) 0.7036(2) 0.5944(3)
C29_2 C 0.9304(7) 0.9458(3) 0.2716(4)
H28_2 H 0.8695 0.9486 0.2441
H29_2 H 0.9993 0.9457 0.2558
H30_2 H 0.9300 0.9680 0.2961
C32_2 C 0.9890(7) 0.8189(2) 0.3795(4)
H37_2 H 0.9605 0.8197 0.4135
H39_2 H 0.9661 0.7942 0.3616
C33_2 C 0.0754(8) 0.7022(3) 0.5530(3)
H40_2 H 0.0328 0.7041 0.5187
H41_2 H 0.1160 0.6772 0.5554
H42_2 H 0.1267 0.7244 0.5574
C35_2 C 0.6785(6) 0.9095(2) 0.5284(3)
C36_2 C 0.1084(7) 0.8858(2) 0.6403(4)
C38_2 C 0.5925(7) 0.9293(3) 0.5474(3)
H44_2 H 0.5277 0.9340 0.5248
C39_2 C 0.0901(7) 0.9218(3) 0.6160(3)
H45_2 H 0.0312 0.9247 0.5894
C41_2 C 0.5988(7) 0.9425(2) 0.5985(3)
H47_2 H 0.5389 0.9562 0.6106
C42_2 C 0.1574(7) 0.9538(2) 0.6300(3)
H48_2 H 0.1437 0.9785 0.6132
C44_2 C 0.6927(7) 0.9358(2) 0.6324(3)
C45_2 C 0.2436(7) 0.9500(2) 0.6681(3)
C47_2 C 0.7774(7) 0.9153(2) 0.6145(3)
H50_2 H 0.8405 0.9096 0.6377
C48_2 C 0.2634(8) 0.9134(3) 0.6917(4)
H51_2 H 0.3244 0.9102 0.7171
C50_2 C 0.7721(7) 0.9031(2) 0.5639(3)
H53_2 H 0.8330 0.8898 0.5523
C51_2 C 0.1960(8) 0.8819(3) 0.6789(4)
H54_2 H 0.2090 0.8573 0.6964
C53_2 C 0.6977(6) 0.9515(2) 0.6867(3)
C54_2 C 0.3133(6) 0.9849(2) 0.6860(3)
O2_2 O 0.6335(5) 0.97890(17) 0.6951(2)
O5_2 O 0.7674(4) 0.93684(17) 0.7212(2)
O6_2 O 0.4007(4) 0.97882(16) 0.7140(2)
C57_2 C 0.0530(8) 0.6410(3) 0.6488(4)
C63_2 C 0.0549(7) 0.5700(3) 0.6576(4)
H60_2 H 0.0167 0.5456 0.6543
C66_2 C 0.1630(8) 0.5704(3) 0.6739(3)
C69_2 C 0.2183(8) 0.6057(3) 0.6781(4)
H63_2 H 0.2938 0.6060 0.6901
C72_2 C 0.1636(8) 0.6417(3) 0.6646(4)
H66_2 H 0.2024 0.6660 0.6664
C75_2 C 0.2231(7) 0.5320(3) 0.6903(3)
N13_2 N 0.7528(5) 0.92958(19) 0.8896(2)
N15_2 N 0.9242(5) 0.91348(18) 0.8189(2)
O17_2 O 0.5901(4) 0.95236(16) 0.79956(19)
C19_2 C 0.9759(6) 0.0767(2) 0.1932(3)
C22_2 C 0.8958(6) 0.1006(2) 0.1665(3)
C25_2 C 0.9507(6) 0.1259(2) 0.1358(3)
C28_2 C 0.9637(7) 0.0450(3) 0.2320(4)
H25_2 H 0.9486 0.0198 0.2138
H26_2 H 0.9032 0.0515 0.2522
C31_2 C 0.9092(7) 0.1564(3) 0.0975(4)
H34_2 H 0.9469 0.1815 0.1059
H35_2 H 0.8308 0.1599 0.0990
H36_2 H 0.9225 0.1479 0.0624
C55_2 C 0.7773(7) 0.0981(2) 0.1707(3)
C58_2 C 0.7167(6) 0.1310(2) 0.1840(3)
H55_2 H 0.7503 0.1563 0.1880
C61_2 C 0.6067(6) 0.1265(2) 0.1912(3)
H58_2 H 0.5658 0.1488 0.2001
C64_2 C 0.5563(6) 0.0896(2) 0.1856(3)
C67_2 C 0.6164(7) 0.0577(2) 0.1691(4)
H61_2 H 0.5824 0.0327 0.1632
C70_2 C 0.7237(7) 0.0623(2) 0.1613(4)
H64_2 H 0.7624 0.0405 0.1491
C73_2 C 0.4426(7) 0.0838(2) 0.1955(3)
O7_2 O 0.3771(4) 0.11203(16) 0.1980(2)
O10_2 O 0.4099(4) 0.04764(16) 0.20044(19)
C23_3 C 0.0003(6) 0.6174(2) 0.8229(3)
H38_3 H 0.0687 0.6799 0.8844
C56_3 C 0.1191(6) 0.6131(2) 0.8201(3)
C59_3 C 0.1845(6) 0.6445(2) 0.8074(3)
H56_3 H 0.1539 0.6702 0.8024
C62_3 C 0.2923(7) 0.6386(2) 0.8020(3)
H59_3 H 0.3354 0.6605 0.7933
C65_3 C 0.3418(7) 0.6007(2) 0.8092(3)
C68_3 C 0.2761(6) 0.5703(2) 0.8242(3)
H62_3 H 0.3068 0.5448 0.8308
C71_3 C 0.1670(6) 0.5763(2) 0.8298(3)
H65_3 H 0.1243 0.5549 0.8403
C74_3 C 0.4550(6) 0.5939(2) 0.7995(3)
C1_3 C 0.1497(6) 0.3682(2) 0.6218(3)
H1_3 H 0.2079 0.3607 0.6495
H2_3 H 0.1282 0.3443 0.6011
N1_3 N 0.1914(5) 0.39809(19) 0.5878(3)
C4_3 C 0.2886(6) 0.4479(2) 0.5711(3)
C7_3 C 0.2602(7) 0.4291(2) 0.5239(3)
C9_3 C 0.0307(7) 0.6479(2) 0.1296(3)
C10_3 C 0.1946(6) 0.3970(2) 0.5353(3)
C12_3 C 0.0183(7) 0.6721(2) 0.0864(4)
C13_3 C 0.3562(7) 0.4849(3) 0.5802(3)
H7_3 H 0.4334 0.4778 0.5863
H8_2 H 0.3444 0.5021 0.5495
H9_3 H 0.3346 0.4989 0.6108
H14_3 H 0.0030 0.6317 0.2309
C16_3 C 0.1376(8) 0.3665(3) 0.5007(3)
H16_3 H 0.0597 0.3727 0.4951
H17_3 H 0.1680 0.3663 0.4670
H18_3 H 0.1477 0.3405 0.5171
H20_3 H 0.7390 0.6718 0.0147
C18_3 C 0.0821(8) 0.6733(3) 0.0414(4)
H22_3 H 0.0874 0.7007 0.0294
H23_3 H 0.1554 0.6629 0.0516
H24_3 H 0.0461 0.6571 0.0130
N7_3 N 0.0572(5) 0.38319(18) 0.6453(2)
C27_3 C 0.0013(7) 0.7964(2) 0.0944(3)
H27_3 H 0.0312 0.4573 0.7555
C33_3 C 0.0754(8) 0.7978(3) 0.0530(3)
H40_3 H 0.0328 0.7959 0.0187
H41_3 H 0.1160 0.8228 0.0554
H42_3 H 0.1267 0.7756 0.0574
C34_3 C 0.2899(6) 0.4390(3) 0.4714(3)
C35_3 C 0.6785(6) 0.5905(2) 0.0284(3)
C36_3 C 0.1084(7) 0.6142(2) 0.1403(4)
C37_3 C 0.3984(8) 0.4432(3) 0.4627(3)
H43_3 H 0.4536 0.4422 0.4914
C38_3 C 0.5925(7) 0.5707(3) 0.0474(3)
H44_3 H 0.5277 0.5660 0.0248
C39_3 C 0.0901(7) 0.5782(3) 0.1160(3)
H45_3 H 0.0312 0.5753 0.0894
C40_3 C 0.4270(8) 0.4489(3) 0.4125(4)
H46_3 H 0.5012 0.4530 0.4071
C41_3 C 0.5988(7) 0.5575(2) 0.0985(3)
H47_3 H 0.5389 0.5438 0.1106
C42_3 C 0.1574(7) 0.5462(2) 0.1300(3)
H48_3 H 0.1437 0.5215 0.1132
C43_3 C 0.3474(7) 0.4487(3) 0.3701(3)
C44_3 C 0.6927(7) 0.5642(2) 0.1324(3)
C45_3 C 0.2436(7) 0.5500(2) 0.1681(3)
C46_3 C 0.2416(7) 0.4476(3) 0.3789(3)
H49_3 H 0.1868 0.4497 0.3501
C47_3 C 0.7774(7) 0.5847(2) 0.1145(3)
H50_3 H 0.8405 0.5904 0.1377
C48_3 C 0.2634(8) 0.5866(3) 0.1917(4)
H51_3 H 0.3244 0.5898 0.2171
C49_3 C 0.2105(8) 0.4435(3) 0.4292(4)
H52_3 H 0.1355 0.4437 0.4346
C50_3 C 0.7721(7) 0.5969(2) 0.0639(3)
H53_3 H 0.8330 0.6102 0.0523
C51_3 C 0.1960(8) 0.6181(3) 0.1789(4)
H54_3 H 0.2090 0.6427 0.1964
C52_3 C 0.3806(6) 0.4500(3) 0.3154(3)
C53_3 C 0.6977(6) 0.5485(2) 0.1867(3)
C54_3 C 0.3133(6) 0.5151(2) 0.1860(3)
O1_3 O 0.3179(5) 0.4356(2) 0.2796(2)
O2_3 O 0.6335(5) 0.52110(17) 0.1951(2)
O3_3 O 0.2754(4) 0.48134(16) 0.1728(2)
O4_3 O 0.4675(5) 0.46713(18) 0.3101(2)
O5_3 O 0.7674(4) 0.56316(17) 0.2212(2)
O6_3 O 0.4007(4) 0.52118(16) 0.2140(2)
C57_3 C 0.0530(8) 0.8590(3) 0.1488(4)
C63_3 C 0.0549(7) 0.9300(3) 0.1576(4)
H60_3 H 0.0167 0.9544 0.1543
C66_3 C 0.1630(8) 0.9296(3) 0.1739(3)
C69_3 C 0.2183(8) 0.8943(3) 0.1781(4)
H63_3 H 0.2938 0.8940 0.1901
C72_3 C 0.1636(8) 0.8583(3) 0.1646(4)
H66_3 H 0.2024 0.8340 0.1664
C75_3 C 0.2231(7) 0.9680(3) 0.1903(3)
O9_2 O 0.3170(5) 0.96447(17) 0.2112(2)
O12_2 O 0.1715(5) 0.99963(16) 0.1816(2)
O16_2 O 0.6830(5) 0.46447(17) 0.2888(2)
O19_2 O 0.8285(5) 0.49963(16) 0.3184(2)
C2_3 C 0.7448(6) 0.6558(2) 0.8595(3)
H3_3 H 0.7647 0.6822 0.8743
H4_3 H 0.6847 0.6594 0.8312
N2_3 N 0.7084(5) 0.63044(18) 0.9002(3)
C5_3 C 0.6422(6) 0.5769(2) 0.9287(3)
C8_3 C 0.6779(6) 0.6008(2) 0.9734(3)
C11_3 C 0.7186(6) 0.6352(2) 0.9519(3)
C14_3 C 0.5898(8) 0.5370(3) 0.9277(3)
H10_3 H 0.5744 0.5281 0.8915
H11_3 H 0.6391 0.5182 0.9471
H12_3 H 0.5216 0.5386 0.9439
C17_3 C 0.7620(8) 0.6713(3) 0.9795(3)
H19_3 H 0.7339 0.6948 0.9602
H21_3 H 0.8418 0.6711 0.9817
N8_3 N 0.8386(5) 0.63835(18) 0.8383(2)
C20_3 C 0.9190(6) 0.5917(2) 0.7998(3)
C26_3 C 0.9454(6) 0.6466(2) 0.8472(3)
C29_3 C 0.9304(7) 0.5542(3) 0.7716(4)
H28_3 H 0.8695 0.5514 0.7441
H29_3 H 0.9993 0.5543 0.7558
H30_3 H 0.9300 0.5320 0.7961
C32_3 C 0.9890(7) 0.6811(2) 0.8795(4)
H37_3 H 0.9605 0.6803 0.9135
H39_3 H 0.9661 0.7058 0.8616
Rh1_2 Rh 0.77652(6) 0.72648(2) 0.16481(3)
C3_2 C 0.9021(7) 0.7333(2) 0.0666(4)
H5_2 H 0.9380 0.7354 0.0342
H6_2 H 0.8225 0.7315 0.0568
N3_2 N 0.9392(6) 0.6981(2) 0.0943(3)
N6_2 N 0.8980(6) 0.6910(2) 0.1412(3)
C6_2 C 0.9552(7) 0.6608(2) 0.1629(4)
C15_2 C 0.9373(9) 0.6455(3) 0.2157(4)
H13_2 H 0.8755 0.6271 0.2126
H15_2 H 0.9218 0.6677 0.2383
N9_2 N 0.9261(6) 0.7683(2) 0.0983(3)
N12_2 N 0.8705(6) 0.7732(2) 0.1406(3)
C19_3 C 0.9759(6) 0.4233(2) 0.6932(3)
C21_2 C 0.9111(8) 0.8060(3) 0.1636(4)
C22_3 C 0.8958(6) 0.3994(2) 0.6665(3)
C24_2 C 0.9935(7) 0.8215(3) 0.1365(3)
C25_3 C 0.9507(6) 0.3741(2) 0.6358(3)
C28_3 C 0.9637(7) 0.4550(3) 0.7320(4)
H25_3 H 0.9486 0.4802 0.7138
H26_3 H 0.9032 0.4485 0.7522
C30_2 C 0.8746(10) 0.8207(4) 0.2147(5)
H31_2 H 0.8699 0.7983 0.2385
H32_2 H 0.9273 0.8400 0.2305
H33_2 H 0.8028 0.8332 0.2079
C31_3 C 0.9092(7) 0.3436(3) 0.5975(4)
H34_3 H 0.9469 0.3185 0.6059
H35_3 H 0.8308 0.3401 0.5990
H36_3 H 0.9225 0.3521 0.5624
C55_3 C 0.7773(7) 0.4019(2) 0.6707(3)
C58_3 C 0.7167(6) 0.3690(2) 0.6840(3)
H55_3 H 0.7503 0.3437 0.6880
C60_2 C 0.9991(8) 0.8944(3) 0.1457(4)
H57_2 H 0.9229 0.8949 0.1354
C61_3 C 0.6067(6) 0.3735(2) 0.6912(3)
H58_3 H 0.5658 0.3512 0.7001
C64_3 C 0.5563(6) 0.4104(2) 0.6856(3)
C67_3 C 0.6164(7) 0.4423(2) 0.6691(4)
H61_3 H 0.5824 0.4673 0.6632
C70_3 C 0.7237(7) 0.4377(2) 0.6613(4)
H64_3 H 0.7624 0.4595 0.6491
C73_3 C 0.4426(7) 0.4162(2) 0.6955(3)
O7_3 O 0.3771(4) 0.38797(16) 0.6980(2)
C76_2 C 0.6924(9) 0.6819(4) 0.1816(5)
O13_2 O 0.6403(7) 0.6563(2) 0.1890(4)
C77_2 C 0.6677(10) 0.7586(4) 0.1864(6)
O14_2 O 0.6021(10) 0.7773(3) 0.2000(6)
C19_4 C 0.0241(6) 0.9233(2) 0.8068(3)
C22_4 C 0.1042(6) 0.8994(2) 0.8335(3)
C25_4 C 0.0493(6) 0.8741(2) 0.8642(3)
C28_4 C 0.0363(7) 0.9550(3) 0.7680(4)
H25_4 H 0.0514 0.9802 0.7862
H26_4 H 0.0968 0.9485 0.7478
C31_4 C 0.0908(7) 0.8436(3) 0.9025(4)
H34_4 H 0.0531 0.8185 0.8941
H35_4 H 0.1692 0.8401 0.9010
H36_4 H 0.0775 0.8521 0.9376
C55_4 C 0.2227(7) 0.9019(2) 0.8293(3)
C58_4 C 0.2833(6) 0.8690(2) 0.8160(3)
H55_4 H 0.2497 0.8437 0.8120
C61_4 C 0.3933(6) 0.8735(2) 0.8088(3)
H58_4 H 0.4342 0.8512 0.7999
C64_4 C 0.4437(6) 0.9104(2) 0.8144(3)
C67_4 C 0.3836(7) 0.9423(2) 0.8309(4)
H61_4 H 0.4176 0.9673 0.8368
C70_4 C 0.2763(7) 0.9377(2) 0.8387(4)
H64_4 H 0.2376 0.9595 0.8509
C73_4 C 0.5574(7) 0.9162(2) 0.8045(3)
O7_4 O 0.6229(4) 0.88797(16) 0.8020(2)
C2_4 C 0.2552(6) 0.1558(2) 0.6405(3)
H3_4 H 0.2353 0.1822 0.6257
H4_4 H 0.3153 0.1594 0.6688
N2_4 N 0.2916(5) 0.13044(18) 0.5998(3)
C5_4 C 0.3578(6) 0.0769(2) 0.5713(3)
C8_4 C 0.3221(6) 0.1008(2) 0.5266(3)
C9_4 C 0.9693(7) 0.1479(2) 0.3704(3)
C11_4 C 0.2814(6) 0.1352(2) 0.5481(3)
C12_4 C 0.9817(7) 0.1721(2) 0.4136(4)
C14_4 C 0.4102(8) 0.0370(3) 0.5723(3)
H10_4 H 0.4256 0.0281 0.6085
H11_4 H 0.3609 0.0182 0.5529
H12_4 H 0.4784 0.0386 0.5561
H14_4 H 0.9970 0.1317 0.2691
C17_4 C 0.2380(8) 0.1713(3) 0.5205(3)
H19_4 H 0.2661 0.1948 0.5398
H20_4 H 0.2610 0.1718 0.4853
H21_4 H 0.1582 0.1711 0.5183
C18_4 C 0.9179(8) 0.1733(3) 0.4586(4)
H22_4 H 0.9126 0.2007 0.4706
H23_4 H 0.8446 0.1629 0.4484
H24_4 H 0.9539 0.1571 0.4870
N8_4 N 0.1614(5) 0.13835(18) 0.6617(2)
C20_4 C 0.0810(6) 0.0917(2) 0.7002(3)
C26_4 C 0.0546(6) 0.1466(2) 0.6528(3)
C27_4 C 0.9987(7) 0.2964(2) 0.4056(3)
C29_4 C 0.0696(7) 0.0542(3) 0.7284(4)
H28_4 H 0.1305 0.0514 0.7559
H29_4 H 0.0007 0.0543 0.7442
H30_4 H 0.0700 0.0320 0.7039
C32_4 C 0.0110(7) 0.1811(2) 0.6205(4)
H37_4 H 0.0395 0.1803 0.5865
H39_4 H 0.0339 0.2058 0.6384
C33_4 C 0.9246(8) 0.2978(3) 0.4470(3)
H40_4 H 0.9672 0.2959 0.4813
H41_4 H 0.8840 0.3228 0.4446
H42_4 H 0.8733 0.2756 0.4426
C35_4 C 0.3215(6) 0.0905(2) 0.4716(3)
C36_4 C 0.8916(7) 0.1142(2) 0.3597(4)
C38_4 C 0.4075(7) 0.0707(3) 0.4526(3)
H44_4 H 0.4723 0.0660 0.4752
C39_4 C 0.9099(7) 0.0782(3) 0.3840(3)
H45_4 H 0.9688 0.0753 0.4106
C41_4 C 0.4012(7) 0.0575(2) 0.4015(3)
H47_4 H 0.4611 0.0438 0.3894
C42_4 C 0.8426(7) 0.0462(2) 0.3700(3)
H48_4 H 0.8563 0.0215 0.3868
C44_4 C 0.3073(7) 0.0642(2) 0.3676(3)
C45_4 C 0.7564(7) 0.0500(2) 0.3319(3)
C47_4 C 0.2226(7) 0.0847(2) 0.3855(3)
H50_4 H 0.1595 0.0904 0.3623
C48_4 C 0.7366(8) 0.0866(3) 0.3083(4)
H51_4 H 0.6756 0.0898 0.2829
C50_4 C 0.2279(7) 0.0969(2) 0.4361(3)
H53_4 H 0.1670 0.1102 0.4477
C51_4 C 0.8040(8) 0.1181(3) 0.3211(4)
H54_4 H 0.7910 0.1427 0.3036
C53_4 C 0.3023(6) 0.0485(2) 0.3133(3)
C54_4 C 0.6867(6) 0.0151(2) 0.3140(3)
O2_4 O 0.3665(5) 0.02110(17) 0.3049(2)
O5_4 O 0.2326(4) 0.06316(17) 0.2788(2)
O6_4 O 0.5993(4) 0.02118(16) 0.2860(2)
C57_4 C 0.9470(8) 0.3590(3) 0.3512(4)
C63_4 C 0.9451(7) 0.4300(3) 0.3424(4)
H60_4 H 0.9833 0.4544 0.3457
C66_4 C 0.8370(8) 0.4296(3) 0.3261(3)
C69_4 C 0.7817(8) 0.3943(3) 0.3219(4)
H63_4 H 0.7062 0.3940 0.3099
C72_4 C 0.8364(8) 0.3583(3) 0.3354(4)
H66_4 H 0.7976 0.3340 0.3336
C75_4 C 0.7769(7) 0.4680(3) 0.3097(3)
H16_4 H 0.9403 0.8727 0.0049
H17_4 H 0.8320 0.8663 0.0330
C34_4 C 0.7101(6) 0.9390(3) 0.0286(3)
C37_4 C 0.6016(8) 0.9432(3) 0.0373(3)
H43_4 H 0.5464 0.9422 0.0086
C40_4 C 0.5730(8) 0.9489(3) 0.0875(4)
H46_4 H 0.4988 0.9530 0.0929
C43_4 C 0.6526(7) 0.9487(3) 0.1299(3)
C46_4 C 0.7584(7) 0.9476(3) 0.1211(3)
H49_4 H 0.8132 0.9497 0.1499
C49_4 C 0.7895(8) 0.9435(3) 0.0708(4)
H52_4 H 0.8645 0.9437 0.0654
C52_4 C 0.6194(6) 0.9500(3) 0.1846(3)
O1_4 O 0.6821(5) 0.9356(2) 0.2204(2)
O3_4 O 0.7246(4) 0.98134(16) 0.3272(2)
O4_4 O 0.5325(5) 0.96713(18) 0.1899(2)
C1_4 C 0.8503(6) 0.8682(2) 0.8782(3)
H1_4 H 0.7921 0.8607 0.8505
H2_4 H 0.8718 0.8443 0.8989
N1_4 N 0.8086(5) 0.89809(19) 0.9122(3)
C4_4 C 0.7114(6) 0.9479(2) 0.9289(3)
C7_4 C 0.7398(7) 0.9291(2) 0.9761(3)
C10_4 C 0.8054(6) 0.8970(2) 0.9647(3)
C13_4 C 0.6438(7) 0.9849(3) 0.9198(3)
H7_4 H 0.5666 0.9778 0.9137
H9_4 H 0.6654 0.9989 0.8892
C16_4 C 0.8624(8) 0.8665(3) 0.9993(3)
H18_4 H 0.8523 0.8405 0.9829
N7_4 N 0.9428(5) 0.88319(18) 0.8547(2)
H27_4 H 0.9688 0.9573 0.7445
C23_4 C 0.9997(6) 0.1174(2) 0.6771(3)
H38_4 H 0.9313 0.1799 0.6156
C56_4 C 0.8809(6) 0.1131(2) 0.6799(3)
C59_4 C 0.8155(6) 0.1445(2) 0.6926(3)
H56_4 H 0.8461 0.1702 0.6976
C62_4 C 0.7077(7) 0.1386(2) 0.6980(3)
H59_4 H 0.6646 0.1605 0.7067
C65_4 C 0.6582(7) 0.1007(2) 0.6908(3)
C68_4 C 0.7239(6) 0.0703(2) 0.6758(3)
H62_4 H 0.6932 0.0448 0.6692
C71_4 C 0.8330(6) 0.0763(2) 0.6702(3)
H65_4 H 0.8757 0.0549 0.6597
C74_4 C 0.5450(6) 0.0939(2) 0.7005(3)
H8_3 H 0.3444 0.9979 0.0495
Rh1_3 Rh 0.77652(6) 0.77352(2) 0.66481(3)
C3_3 C 0.9021(7) 0.7667(2) 0.5666(4)
H5_3 H 0.9380 0.7646 0.5342
H6_3 H 0.8225 0.7685 0.5568
N3_3 N 0.9392(6) 0.8019(2) 0.5943(3)
N6_3 N 0.8980(6) 0.8090(2) 0.6412(3)
C6_3 C 0.9552(7) 0.8392(2) 0.6629(4)
C15_3 C 0.9373(9) 0.8545(3) 0.7157(4)
H13_3 H 0.8755 0.8729 0.7126
H15_3 H 0.9218 0.8323 0.7383
N9_3 N 0.9261(6) 0.7317(2) 0.5983(3)
N12_3 N 0.8705(6) 0.7268(2) 0.6406(3)
C21_3 C 0.9111(8) 0.6940(3) 0.6636(4)
C24_3 C 0.9935(7) 0.6785(3) 0.6365(3)
C30_3 C 0.8746(10) 0.6793(4) 0.7147(5)
H31_3 H 0.8699 0.7017 0.7385
H32_3 H 0.9273 0.6600 0.7305
H33_3 H 0.8028 0.6668 0.7079
C60_3 C 0.9991(8) 0.6056(3) 0.6457(4)
H57_3 H 0.9229 0.6051 0.6354
C76_3 C 0.6924(9) 0.8181(4) 0.6816(5)
O13_3 O 0.6403(7) 0.8437(2) 0.6890(4)
C77_3 C 0.6677(10) 0.7414(4) 0.6864(6)
O14_3 O 0.6021(10) 0.7227(3) 0.7000(6)
Rh1_4 Rh 0.22348(6) 0.22648(2) 0.33519(3)
C3_4 C 0.0979(7) 0.2333(2) 0.4334(4)
H5_4 H 0.0620 0.2354 0.4658
H6_4 H 0.1775 0.2315 0.4432
N3_4 N 0.0608(6) 0.1981(2) 0.4057(3)
N6_4 N 0.1020(6) 0.1910(2) 0.3588(3)
C6_4 C 0.0448(7) 0.1608(2) 0.3371(4)
C15_4 C 0.0627(9) 0.1455(3) 0.2843(4)
H13_4 H 0.1245 0.1271 0.2874
H15_4 H 0.0782 0.1677 0.2617
N9_4 N 0.0739(6) 0.2683(2) 0.4017(3)
N12_4 N 0.1295(6) 0.2732(2) 0.3594(3)
C21_4 C 0.0889(8) 0.3060(3) 0.3364(4)
C24_4 C 0.0065(7) 0.3215(3) 0.3635(3)
C30_4 C 0.1254(10) 0.3207(4) 0.2853(5)
H31_4 H 0.1301 0.2983 0.2615
H32_4 H 0.0727 0.3400 0.2695
H33_4 H 0.1972 0.3332 0.2921
C60_4 C 0.0009(8) 0.3944(3) 0.3543(4)
H57_4 H 0.0771 0.3949 0.3646
C76_4 C 0.3076(9) 0.1819(4) 0.3184(5)
O13_4 O 0.3597(7) 0.1563(2) 0.3110(4)
C77_4 C 0.3323(10) 0.2586(4) 0.3136(6)
O14_4 O 0.3979(10) 0.2773(3) 0.3000(6)
H8_4 H 0.6556 0.0021 0.9505
Cl1 Cl 0.1435(3) 0.27440(10) 0.69137(12)
Rh2 Rh 0.26752(7) 0.27226(2) 0.62968(4)
Cl2 Cl 0.1246(3) 0.26544(7) 0.56179(10)
C78 C 0.3690(11) 0.2811(4) 0.6853(7)
O20 O 0.4375(9) 0.2878(3) 0.7195(5)
C79 C 0.3607(17) 0.2702(5) 0.5832(6)
O21 O 0.4328(11) 0.2613(4) 0.5558(6)
Cl1_2 Cl 0.8565(3) 0.77440(10) 0.80863(12)
Rh2_2 Rh 0.73248(7) 0.77226(2) 0.87032(4)
Cl2_2 Cl 0.8754(3) 0.76544(7) 0.93821(10)
C78_2 C 0.6310(11) 0.7811(4) 0.8147(7)
O20_2 O 0.5625(9) 0.7878(3) 0.7805(5)
C79_2 C 0.6393(17) 0.7702(5) 0.9168(6)
O21_2 O 0.5672(11) 0.7613(4) 0.9442(6)
Cl1_3 Cl 0.8565(3) 0.72560(10) 0.30863(12)
Rh2_3 Rh 0.73248(7) 0.72774(2) 0.37032(4)
Cl2_3 Cl 0.8754(3) 0.73456(7) 0.43821(10)
C78_3 C 0.6310(11) 0.7189(4) 0.3147(7)
O20_3 O 0.5625(9) 0.7122(3) 0.2805(5)
C79_3 C 0.6393(17) 0.7298(5) 0.4168(6)
O21_3 O 0.5672(11) 0.7387(4) 0.4442(6)
Cl1_4 Cl 0.1435(3) 0.22560(10) 0.19137(12)
Rh2_4 Rh 0.26752(7) 0.22774(2) 0.12968(4)
Cl2_4 Cl 0.1246(3) 0.23456(7) 0.06179(10)
C78_4 C 0.3690(11) 0.2189(4) 0.1853(7)
O20_4 O 0.4375(9) 0.2122(3) 0.2195(5)
C79_4 C 0.3607(17) 0.2298(5) 0.0832(6)
O21_4 O 0.4328(11) 0.2387(4) 0.0558(6)
loop_
_geom_bond_atom_site_label_1
_geom_bond_atom_site_label_2
_geom_bond_site_symmetry_1
_geom_bond_site_symmetry_2
Rh1 N6 1_555 1_555
C3 H5 1_555 1_555
H6 C3 1_555 1_555
N3 C3 1_555 1_555
N6 N3 1_555 1_555
C6 N6 1_555 1_555
C15 C6 1_555 1_555
H13 C15 1_555 1_555
H15 C15 1_555 1_555
N9 C3 1_555 1_555
N12 Rh1 1_555 1_555
C21 N12 1_555 1_555
C22 C19 1_555 1_555
C24 C21 1_555 1_555
C28 C19 1_555 1_555
H25 C28 1_555 1_555
H26 C28 1_555 1_555
C30 C21 1_555 1_555
H31 C30 1_555 1_555
H32 C30 1_555 1_555
H33 C30 1_555 1_555
C31 C25 1_555 1_555
H34 C31 1_555 1_555
H35 C31 1_555 1_555
H36 C31 1_555 1_555
C55 C22 1_555 1_555
C58 C55 1_555 1_555
H55 C58 1_555 1_555
H57 C60 1_555 1_555
C61 C58 1_555 1_555
H58 C61 1_555 1_555
C64 C61 1_555 1_555
C67 C64 1_555 1_555
H61 C67 1_555 1_555
C70 C55 1_555 1_555
H64 C70 1_555 1_555
C73 C64 1_555 1_555
O7 C73 1_555 1_555
O10 C73 1_555 1_555
C76 Rh1 1_555 1_555
O13 C76 1_555 1_555
C77 Rh1 1_555 1_555
O14 C77 1_555 1_555
Mn8 O10 1_555 1_555
Mn11 O10 1_555 1_555
N9 N12 1_555 1_555
C22 C25 1_555 1_555
C67 C70 1_555 1_555
C2 H3 1_555 1_555
H4 C2 1_555 1_555
N2 C2 1_555 1_555
N5 N2 1_555 1_555
C5 N5 1_555 1_555
C8 C5 1_555 1_555
C11 N2 1_555 1_555
C14 C5 1_555 1_555
H10 C14 1_555 1_555
H11 C14 1_555 1_555
H12 C14 1_555 1_555
C17 C11 1_555 1_555
H19 C17 1_555 1_555
H21 C17 1_555 1_555
N8 C2 1_555 1_555
N11 N8 1_555 1_555
C20 N11 1_555 1_555
C26 N8 1_555 1_555
C29 C20 1_555 1_555
H28 C29 1_555 1_555
H29 C29 1_555 1_555
H30 C29 1_555 1_555
C32 C26 1_555 1_555
H37 C32 1_555 1_555
H39 C32 1_555 1_555
Mn5 N5 1_555 1_555
C8 C11 1_555 1_555
N11 Mn5 1_555 1_555
Mn1 O1 1_555 1_555
C1 H1 1_555 1_555
H2 C1 1_555 1_555
Mn2 O2 1_555 1_555
Mn3 O5 1_555 1_555
N1 C1 1_555 1_555
N4 N1 1_555 1_555
C4 N4 1_555 1_555
C7 C4 1_555 1_555
C10 N1 1_555 1_555
C13 C4 1_555 1_555
H7 C13 1_555 1_555
H8 C13 1_555 1_555
H9 C13 1_555 1_555
C16 C10 1_555 1_555
H16 C16 1_555 1_555
H17 C16 1_555 1_555
H18 C16 1_555 1_555
C18 C12 1_555 1_555
H22 C18 1_555 1_555
H23 C18 1_555 1_555
H24 C18 1_555 1_555
N7 C1 1_555 1_555
N10 N7 1_555 1_555
C33 C27 1_555 1_555
H40 C33 1_555 1_555
H41 C33 1_555 1_555
H42 C33 1_555 1_555
C34 C7 1_555 1_555
C36 C9 1_555 1_555
C37 C34 1_555 1_555
H43 C37 1_555 1_555
C38 C35 1_555 1_555
H44 C38 1_555 1_555
C39 C36 1_555 1_555
H45 C39 1_555 1_555
C40 C37 1_555 1_555
H46 C40 1_555 1_555
C41 C38 1_555 1_555
H47 C41 1_555 1_555
C42 C39 1_555 1_555
H48 C42 1_555 1_555
C43 C40 1_555 1_555
C44 C41 1_555 1_555
C45 C42 1_555 1_555
C46 C43 1_555 1_555
H49 C46 1_555 1_555
C47 C44 1_555 1_555
H50 C47 1_555 1_555
C48 C45 1_555 1_555
H51 C48 1_555 1_555
C49 C34 1_555 1_555
H52 C49 1_555 1_555
C50 C35 1_555 1_555
H53 C50 1_555 1_555
C51 C36 1_555 1_555
H54 C51 1_555 1_555
C52 C43 1_555 1_555
C53 C44 1_555 1_555
C54 C45 1_555 1_555
O1 C52 1_555 1_555
O2 C53 1_555 1_555
O3 Mn1 1_555 1_555
O4 Mn2 1_555 1_555
O5 C53 1_555 1_555
O6 Mn2 1_555 1_555
H60 C63 1_555 1_555
C66 C63 1_555 1_555
C69 C66 1_555 1_555
H63 C69 1_555 1_555
C72 C57 1_555 1_555
H66 C72 1_555 1_555
C75 C66 1_555 1_555
O9 C75 1_555 1_555
O12 C75 1_555 1_555
Mn6 O9 1_555 1_555
Mn11 N4 1_555 1_555
N13 Mn3 1_555 1_555
N14 Mn1 1_555 1_555
N15 Mn3 1_555 1_555
N16 Mn1 1_555 1_555
O15 Mn1 1_555 1_555
O16 Mn2 1_555 1_555
O17 Mn2 1_555 1_555
O18 Mn1 1_555 1_555
O19 Mn3 1_555 1_555
Mn2 O15 1_555 1_555
Mn3 O17 1_555 1_555
C7 C10 1_555 1_555
C9 C12 1_555 1_555
N10 Mn11 1_555 1_555
C46 C49 1_555 1_555
C47 C50 1_555 1_555
C48 C51 1_555 1_555
C52 O4 1_555 1_555
C54 O3 1_555 1_555
C54 O6 1_555 1_555
C69 C72 1_555 1_555
C56 C23 1_555 1_555
C59 C56 1_555 1_555
H56 C59 1_555 1_555
C62 C59 1_555 1_555
H59 C62 1_555 1_555
C65 C62 1_555 1_555
C68 C65 1_555 1_555
H62 C68 1_555 1_555
C71 C56 1_555 1_555
H65 C71 1_555 1_555
C74 C65 1_555 1_555
O8 C74 1_555 1_555
O11 C74 1_555 1_555
Mn5 O8 1_555 1_555
Mn8 O8 1_555 1_555
C68 C71 1_555 1_555
O11 Mn5 1_555 1_555
C56_2 C23_2 1_555 1_555
C59_2 C56_2 1_555 1_555
H56_2 C59_2 1_555 1_555
C62_2 C59_2 1_555 1_555
H59_2 C62_2 1_555 1_555
C65_2 C62_2 1_555 1_555
C68_2 C65_2 1_555 1_555
H62_2 C68_2 1_555 1_555
C71_2 C56_2 1_555 1_555
H65_2 C71_2 1_555 1_555
C74_2 C65_2 1_555 1_555
O8_2 C74_2 1_555 1_555
O11_2 C74_2 1_555 1_555
Mn4 O8_2 1_555 1_555
Mn7 O8_2 1_555 1_555
C68_2 C71_2 1_555 1_555
O11_2 Mn4 1_555 1_555
C1_2 H1_2 1_555 1_555
H2_2 C1_2 1_555 1_555
N1_2 C1_2 1_555 1_555
N4_2 N1_2 1_555 1_555
C4_2 N4_2 1_555 1_555
C7_2 C4_2 1_555 1_555
C10_2 N1_2 1_555 1_555
C13_2 C4_2 1_555 1_555
H7_2 C13_2 1_555 1_555
H9_2 C13_2 1_555 1_555
C16_2 C10_2 1_555 1_555
H18_2 C16_2 1_555 1_555
N7_2 C1_2 1_555 1_555
N10_2 N7_2 1_555 1_555
Mn10 N4_2 1_555 1_555
C7_2 C10_2 1_555 1_555
N10_2 Mn10 1_555 1_555
Mn1_2 O1_2 1_555 1_555
C37_2 C34_2 1_555 1_555
H43_2 C37_2 1_555 1_555
C40_2 C37_2 1_555 1_555
H46_2 C40_2 1_555 1_555
C43_2 C40_2 1_555 1_555
C46_2 C43_2 1_555 1_555
H49_2 C46_2 1_555 1_555
C49_2 C34_2 1_555 1_555
H52_2 C49_2 1_555 1_555
C52_2 C43_2 1_555 1_555
O1_2 C52_2 1_555 1_555
O3_2 Mn1_2 1_555 1_555
O4_2 Mn6 1_555 1_555
N14_2 Mn1_2 1_555 1_555
N16_2 Mn1_2 1_555 1_555
O15_2 Mn1_2 1_555 1_555
O18_2 Mn1_2 1_555 1_555
Mn6 O15_2 1_555 1_555
C46_2 C49_2 1_555 1_555
C52_2 O4_2 1_555 1_555
C2_2 H3_2 1_555 1_555
H4_2 C2_2 1_555 1_555
Mn9 O5_2 1_555 1_555
N2_2 C2_2 1_555 1_555
N5_2 N2_2 1_555 1_555
C5_2 N5_2 1_555 1_555
C8_2 C5_2 1_555 1_555
C11_2 N2_2 1_555 1_555
C14_2 C5_2 1_555 1_555
H10_2 C14_2 1_555 1_555
H11_2 C14_2 1_555 1_555
H12_2 C14_2 1_555 1_555
C17_2 C11_2 1_555 1_555
H19_2 C17_2 1_555 1_555
H20_2 C17_2 1_555 1_555
H21_2 C17_2 1_555 1_555
C18_2 C12_2 1_555 1_555
H22_2 C18_2 1_555 1_555
H23_2 C18_2 1_555 1_555
H24_2 C18_2 1_555 1_555
N8_2 C2_2 1_555 1_555
N11_2 N8_2 1_555 1_555
C20_2 N11_2 1_555 1_555
C26_2 N8_2 1_555 1_555
C29_2 C20_2 1_555 1_555
H28_2 C29_2 1_555 1_555
H29_2 C29_2 1_555 1_555
H30_2 C29_2 1_555 1_555
C32_2 C26_2 1_555 1_555
H37_2 C32_2 1_555 1_555
H39_2 C32_2 1_555 1_555
C33_2 C27_2 1_555 1_555
H40_2 C33_2 1_555 1_555
H41_2 C33_2 1_555 1_555
H42_2 C33_2 1_555 1_555
C35_2 C8_2 1_555 1_555
C36_2 C9_2 1_555 1_555
C38_2 C35_2 1_555 1_555
H44_2 C38_2 1_555 1_555
C39_2 C36_2 1_555 1_555
H45_2 C39_2 1_555 1_555
C41_2 C38_2 1_555 1_555
H47_2 C41_2 1_555 1_555
C42_2 C39_2 1_555 1_555
H48_2 C42_2 1_555 1_555
C44_2 C41_2 1_555 1_555
C45_2 C42_2 1_555 1_555
C47_2 C44_2 1_555 1_555
H50_2 C47_2 1_555 1_555
C48_2 C45_2 1_555 1_555
H51_2 C48_2 1_555 1_555
C50_2 C35_2 1_555 1_555
H53_2 C50_2 1_555 1_555
C51_2 C36_2 1_555 1_555
H54_2 C51_2 1_555 1_555
C53_2 C44_2 1_555 1_555
C54_2 C45_2 1_555 1_555
O2_2 C53_2 1_555 1_555
O5_2 C53_2 1_555 1_555
H60_2 C63_2 1_555 1_555
C66_2 C63_2 1_555 1_555
C69_2 C66_2 1_555 1_555
H63_2 C69_2 1_555 1_555
C72_2 C57_2 1_555 1_555
H66_2 C72_2 1_555 1_555
C75_2 C66_2 1_555 1_555
O16 C75_2 1_555 1_555
O19 C75_2 1_555 1_555
Mn4 N5_2 1_555 1_555
N13_2 Mn9 1_555 1_555
N15_2 Mn9 1_555 1_555
Mn9 O17_2 1_555 1_555
C8_2 C11_2 1_555 1_555
C9_2 C12_2 1_555 1_555
N11_2 Mn4 1_555 1_555
C47_2 C50_2 1_555 1_555
C48_2 C51_2 1_555 1_555
C54_2 O6_2 1_555 1_555
C69_2 C72_2 1_555 1_555
C22_2 C19_2 1_555 1_555
C28_2 C19_2 1_555 1_555
H25_2 C28_2 1_555 1_555
H26_2 C28_2 1_555 1_555
C31_2 C25_2 1_555 1_555
H34_2 C31_2 1_555 1_555
H35_2 C31_2 1_555 1_555
H36_2 C31_2 1_555 1_555
C55_2 C22_2 1_555 1_555
C58_2 C55_2 1_555 1_555
H55_2 C58_2 1_555 1_555
C61_2 C58_2 1_555 1_555
H58_2 C61_2 1_555 1_555
C64_2 C61_2 1_555 1_555
C67_2 C64_2 1_555 1_555
H61_2 C67_2 1_555 1_555
C70_2 C55_2 1_555 1_555
H64_2 C70_2 1_555 1_555
C73_2 C64_2 1_555 1_555
O7_2 C73_2 1_555 1_555
O10_2 C73_2 1_555 1_555
Mn10 O10_2 1_555 1_555
C22_2 C25_2 1_555 1_555
C67_2 C70_2 1_555 1_555
C56_3 C23_3 1_555 1_555
C59_3 C56_3 1_555 1_555
H56_3 C59_3 1_555 1_555
C62_3 C59_3 1_555 1_555
H59_3 C62_3 1_555 1_555
C65_3 C62_3 1_555 1_555
C68_3 C65_3 1_555 1_555
H62_3 C68_3 1_555 1_555
C71_3 C56_3 1_555 1_555
H65_3 C71_3 1_555 1_555
C74_3 C65_3 1_555 1_555
O15 C74_3 1_555 1_555
O18 C74_3 1_555 1_555
C68_3 C71_3 1_555 1_555
Mn5 O1_3 1_555 1_555
C1_3 H1_3 1_555 1_555
H2_3 C1_3 1_555 1_555
Mn8 O2_3 1_555 1_555
Mn11 O5_3 1_555 1_555
N1_3 C1_3 1_555 1_555
N13 N1_3 1_555 1_555
C4_3 N13 1_555 1_555
C7_3 C4_3 1_555 1_555
C10_3 N1_3 1_555 1_555
C13_3 C4_3 1_555 1_555
H7_3 C13_3 1_555 1_555
H8_2 C13_3 1_555 1_555
H9_3 C13_3 1_555 1_555
C16_3 C10_3 1_555 1_555
H16_3 C16_3 1_555 1_555
H17_3 C16_3 1_555 1_555
H18_3 C16_3 1_555 1_555
C18_3 C12_3 1_555 1_555
H22_3 C18_3 1_555 1_555
H23_3 C18_3 1_555 1_555
H24_3 C18_3 1_555 1_555
N7_3 C1_3 1_555 1_555
N15 N7_3 1_555 1_555
C33_3 C27_3 1_555 1_555
H40_3 C33_3 1_555 1_555
H41_3 C33_3 1_555 1_555
H42_3 C33_3 1_555 1_555
C34_3 C7_3 1_555 1_555
C36_3 C9_3 1_555 1_555
C37_3 C34_3 1_555 1_555
H43_3 C37_3 1_555 1_555
C38_3 C35_3 1_555 1_555
H44_3 C38_3 1_555 1_555
C39_3 C36_3 1_555 1_555
H45_3 C39_3 1_555 1_555
C40_3 C37_3 1_555 1_555
H46_3 C40_3 1_555 1_555
C41_3 C38_3 1_555 1_555
H47_3 C41_3 1_555 1_555
C42_3 C39_3 1_555 1_555
H48_3 C42_3 1_555 1_555
C43_3 C40_3 1_555 1_555
C44_3 C41_3 1_555 1_555
C45_3 C42_3 1_555 1_555
C46_3 C43_3 1_555 1_555
H49_3 C46_3 1_555 1_555
C47_3 C44_3 1_555 1_555
H50_3 C47_3 1_555 1_555
C48_3 C45_3 1_555 1_555
H51_3 C48_3 1_555 1_555
C49_3 C34_3 1_555 1_555
H52_3 C49_3 1_555 1_555
C50_3 C35_3 1_555 1_555
H53_3 C50_3 1_555 1_555
C51_3 C36_3 1_555 1_555
H54_3 C51_3 1_555 1_555
C52_3 C43_3 1_555 1_555
C53_3 C44_3 1_555 1_555
C54_3 C45_3 1_555 1_555
O1_3 C52_3 1_555 1_555
O2_3 C53_3 1_555 1_555
O3_3 Mn5 1_555 1_555
O4_3 Mn8 1_555 1_555
O5_3 C53_3 1_555 1_555
O6_3 Mn8 1_555 1_555
H60_3 C63_3 1_555 1_555
C66_3 C63_3 1_555 1_555
C69_3 C66_3 1_555 1_555
H63_3 C69_3 1_555 1_555
C72_3 C57_3 1_555 1_555
H66_3 C72_3 1_555 1_555
C75_3 C66_3 1_555 1_555
O9_2 C75_3 1_555 1_555
O12_2 C75_3 1_555 1_555
Mn7 O9_2 1_555 1_555
O16_2 Mn8 1_555 1_555
O19_2 Mn11 1_555 1_555
C7_3 C10_3 1_555 1_555
C9_3 C12_3 1_555 1_555
C46_3 C49_3 1_555 1_555
C47_3 C50_3 1_555 1_555
C48_3 C51_3 1_555 1_555
C52_3 O4_3 1_555 1_555
C54_3 O3_3 1_555 1_555
C54_3 O6_3 1_555 1_555
C69_3 C72_3 1_555 1_555
C2_3 H3_3 1_555 1_555
H4_3 C2_3 1_555 1_555
N2_3 C2_3 1_555 1_555
N14 N2_3 1_555 1_555
C5_3 N14 1_555 1_555
C8_3 C5_3 1_555 1_555
C11_3 N2_3 1_555 1_555
C14_3 C5_3 1_555 1_555
H10_3 C14_3 1_555 1_555
H11_3 C14_3 1_555 1_555
H12_3 C14_3 1_555 1_555
C17_3 C11_3 1_555 1_555
H19_3 C17_3 1_555 1_555
H21_3 C17_3 1_555 1_555
N8_3 C2_3 1_555 1_555
N16 N8_3 1_555 1_555
C20_3 N16 1_555 1_555
C26_3 N8_3 1_555 1_555
C29_3 C20_3 1_555 1_555
H28_3 C29_3 1_555 1_555
H29_3 C29_3 1_555 1_555
H30_3 C29_3 1_555 1_555
C32_3 C26_3 1_555 1_555
H37_3 C32_3 1_555 1_555
H39_3 C32_3 1_555 1_555
C8_3 C11_3 1_555 1_555
Rh1_2 N6_2 1_555 1_555
C3_2 H5_2 1_555 1_555
H6_2 C3_2 1_555 1_555
N3_2 C3_2 1_555 1_555
N6_2 N3_2 1_555 1_555
C6_2 N6_2 1_555 1_555
C15_2 C6_2 1_555 1_555
H13_2 C15_2 1_555 1_555
H15_2 C15_2 1_555 1_555
N9_2 C3_2 1_555 1_555
N12_2 Rh1_2 1_555 1_555
C21_2 N12_2 1_555 1_555
C22_3 C19_3 1_555 1_555
C24_2 C21_2 1_555 1_555
C28_3 C19_3 1_555 1_555
H25_3 C28_3 1_555 1_555
H26_3 C28_3 1_555 1_555
C30_2 C21_2 1_555 1_555
H31_2 C30_2 1_555 1_555
H32_2 C30_2 1_555 1_555
H33_2 C30_2 1_555 1_555
C31_3 C25_3 1_555 1_555
H34_3 C31_3 1_555 1_555
H35_3 C31_3 1_555 1_555
H36_3 C31_3 1_555 1_555
C55_3 C22_3 1_555 1_555
C58_3 C55_3 1_555 1_555
H55_3 C58_3 1_555 1_555
H57_2 C60_2 1_555 1_555
C61_3 C58_3 1_555 1_555
H58_3 C61_3 1_555 1_555
C64_3 C61_3 1_555 1_555
C67_3 C64_3 1_555 1_555
H61_3 C67_3 1_555 1_555
C70_3 C55_3 1_555 1_555
H64_3 C70_3 1_555 1_555
C73_3 C64_3 1_555 1_555
O7_3 C73_3 1_555 1_555
O17 C73_3 1_555 1_555
C76_2 Rh1_2 1_555 1_555
O13_2 C76_2 1_555 1_555
C77_2 Rh1_2 1_555 1_555
O14_2 C77_2 1_555 1_555
N9_2 N12_2 1_555 1_555
C22_3 C25_3 1_555 1_555
C67_3 C70_3 1_555 1_555
C22_4 C19_4 1_555 1_555
C28_4 C19_4 1_555 1_555
H25_4 C28_4 1_555 1_555
H26_4 C28_4 1_555 1_555
C31_4 C25_4 1_555 1_555
H34_4 C31_4 1_555 1_555
H35_4 C31_4 1_555 1_555
H36_4 C31_4 1_555 1_555
C55_4 C22_4 1_555 1_555
C58_4 C55_4 1_555 1_555
H55_4 C58_4 1_555 1_555
C61_4 C58_4 1_555 1_555
H58_4 C61_4 1_555 1_555
C64_4 C61_4 1_555 1_555
C67_4 C64_4 1_555 1_555
H61_4 C67_4 1_555 1_555
C70_4 C55_4 1_555 1_555
H64_4 C70_4 1_555 1_555
C73_4 C64_4 1_555 1_555
O7_4 C73_4 1_555 1_555
O17_2 C73_4 1_555 1_555
C22_4 C25_4 1_555 1_555
C67_4 C70_4 1_555 1_555
C2_4 H3_4 1_555 1_555
H4_4 C2_4 1_555 1_555
Mn10 O5_4 1_555 1_555
N2_4 C2_4 1_555 1_555
N14_2 N2_4 1_555 1_555
C5_4 N14_2 1_555 1_555
C8_4 C5_4 1_555 1_555
C11_4 N2_4 1_555 1_555
C14_4 C5_4 1_555 1_555
H10_4 C14_4 1_555 1_555
H11_4 C14_4 1_555 1_555
H12_4 C14_4 1_555 1_555
C17_4 C11_4 1_555 1_555
H19_4 C17_4 1_555 1_555
H20_4 C17_4 1_555 1_555
H21_4 C17_4 1_555 1_555
C18_4 C12_4 1_555 1_555
H22_4 C18_4 1_555 1_555
H23_4 C18_4 1_555 1_555
H24_4 C18_4 1_555 1_555
N8_4 C2_4 1_555 1_555
N16_2 N8_4 1_555 1_555
C20_4 N16_2 1_555 1_555
C26_4 N8_4 1_555 1_555
C29_4 C20_4 1_555 1_555
H28_4 C29_4 1_555 1_555
H29_4 C29_4 1_555 1_555
H30_4 C29_4 1_555 1_555
C32_4 C26_4 1_555 1_555
H37_4 C32_4 1_555 1_555
H39_4 C32_4 1_555 1_555
C33_4 C27_4 1_555 1_555
H40_4 C33_4 1_555 1_555
H41_4 C33_4 1_555 1_555
H42_4 C33_4 1_555 1_555
C35_4 C8_4 1_555 1_555
C36_4 C9_4 1_555 1_555
C38_4 C35_4 1_555 1_555
H44_4 C38_4 1_555 1_555
C39_4 C36_4 1_555 1_555
H45_4 C39_4 1_555 1_555
C41_4 C38_4 1_555 1_555
H47_4 C41_4 1_555 1_555
C42_4 C39_4 1_555 1_555
H48_4 C42_4 1_555 1_555
C44_4 C41_4 1_555 1_555
C45_4 C42_4 1_555 1_555
C47_4 C44_4 1_555 1_555
H50_4 C47_4 1_555 1_555
C48_4 C45_4 1_555 1_555
H51_4 C48_4 1_555 1_555
C50_4 C35_4 1_555 1_555
H53_4 C50_4 1_555 1_555
C51_4 C36_4 1_555 1_555
H54_4 C51_4 1_555 1_555
C53_4 C44_4 1_555 1_555
C54_4 C45_4 1_555 1_555
O2_4 C53_4 1_555 1_555
O5_4 C53_4 1_555 1_555
H60_4 C63_4 1_555 1_555
C66_4 C63_4 1_555 1_555
C69_4 C66_4 1_555 1_555
H63_4 C69_4 1_555 1_555
C72_4 C57_4 1_555 1_555
H66_4 C72_4 1_555 1_555
C75_4 C66_4 1_555 1_555
O16_2 C75_4 1_555 1_555
O19_2 C75_4 1_555 1_555
C8_4 C11_4 1_555 1_555
C9_4 C12_4 1_555 1_555
C47_4 C50_4 1_555 1_555
C48_4 C51_4 1_555 1_555
C54_4 O6_4 1_555 1_555
C69_4 C72_4 1_555 1_555
Mn4 O1_4 1_555 1_555
C37_4 C34_4 1_555 1_555
H43_4 C37_4 1_555 1_555
C40_4 C37_4 1_555 1_555
H46_4 C40_4 1_555 1_555
C43_4 C40_4 1_555 1_555
C46_4 C43_4 1_555 1_555
H49_4 C46_4 1_555 1_555
C49_4 C34_4 1_555 1_555
H52_4 C49_4 1_555 1_555
C52_4 C43_4 1_555 1_555
O1_4 C52_4 1_555 1_555
O3_4 Mn4 1_555 1_555
O4_4 Mn7 1_555 1_555
C46_4 C49_4 1_555 1_555
C52_4 O4_4 1_555 1_555
C1_4 H1_4 1_555 1_555
H2_4 C1_4 1_555 1_555
N1_4 C1_4 1_555 1_555
N13_2 N1_4 1_555 1_555
C4_4 N13_2 1_555 1_555
C7_4 C4_4 1_555 1_555
C10_4 N1_4 1_555 1_555
C13_4 C4_4 1_555 1_555
H7_4 C13_4 1_555 1_555
H9_4 C13_4 1_555 1_555
C16_4 C10_4 1_555 1_555
H18_4 C16_4 1_555 1_555
N7_4 C1_4 1_555 1_555
N15_2 N7_4 1_555 1_555
C7_4 C10_4 1_555 1_555
C56_4 C23_4 1_555 1_555
C59_4 C56_4 1_555 1_555
H56_4 C59_4 1_555 1_555
C62_4 C59_4 1_555 1_555
H59_4 C62_4 1_555 1_555
C65_4 C62_4 1_555 1_555
C68_4 C65_4 1_555 1_555
H62_4 C68_4 1_555 1_555
C71_4 C56_4 1_555 1_555
H65_4 C71_4 1_555 1_555
C74_4 C65_4 1_555 1_555
O15_2 C74_4 1_555 1_555
O18_2 C74_4 1_555 1_555
C68_4 C71_4 1_555 1_555
Rh1_3 N6_3 1_555 1_555
C3_3 H5_3 1_555 1_555
H6_3 C3_3 1_555 1_555
N3_3 C3_3 1_555 1_555
N6_3 N3_3 1_555 1_555
C6_3 N6_3 1_555 1_555
C15_3 C6_3 1_555 1_555
H13_3 C15_3 1_555 1_555
H15_3 C15_3 1_555 1_555
N9_3 C3_3 1_555 1_555
N12_3 Rh1_3 1_555 1_555
C21_3 N12_3 1_555 1_555
C24_3 C21_3 1_555 1_555
C30_3 C21_3 1_555 1_555
H31_3 C30_3 1_555 1_555
H32_3 C30_3 1_555 1_555
H33_3 C30_3 1_555 1_555
H57_3 C60_3 1_555 1_555
C76_3 Rh1_3 1_555 1_555
O13_3 C76_3 1_555 1_555
C77_3 Rh1_3 1_555 1_555
O14_3 C77_3 1_555 1_555
N9_3 N12_3 1_555 1_555
Rh1_4 N6_4 1_555 1_555
C3_4 H5_4 1_555 1_555
H6_4 C3_4 1_555 1_555
N3_4 C3_4 1_555 1_555
N6_4 N3_4 1_555 1_555
C6_4 N6_4 1_555 1_555
C15_4 C6_4 1_555 1_555
H13_4 C15_4 1_555 1_555
H15_4 C15_4 1_555 1_555
N9_4 C3_4 1_555 1_555
N12_4 Rh1_4 1_555 1_555
C21_4 N12_4 1_555 1_555
C24_4 C21_4 1_555 1_555
C30_4 C21_4 1_555 1_555
H31_4 C30_4 1_555 1_555
H32_4 C30_4 1_555 1_555
H33_4 C30_4 1_555 1_555
H57_4 C60_4 1_555 1_555
C76_4 Rh1_4 1_555 1_555
O13_4 C76_4 1_555 1_555
C77_4 Rh1_4 1_555 1_555
O14_4 C77_4 1_555 1_555
N9_4 N12_4 1_555 1_555
Cl1 Rh2 1_555 1_555
Rh2 Cl2 1_555 1_555
C78 Rh2 1_555 1_555
O20 C78 1_555 1_555
C79 Rh2 1_555 1_555
O21 C79 1_555 1_555
Cl1_2 Rh2_2 1_555 1_555
Rh2_2 Cl2_2 1_555 1_555
C78_2 Rh2_2 1_555 1_555
O20_2 C78_2 1_555 1_555
C79_2 Rh2_2 1_555 1_555
O21_2 C79_2 1_555 1_555
Cl1_3 Rh2_3 1_555 1_555
Rh2_3 Cl2_3 1_555 1_555
C78_3 Rh2_3 1_555 1_555
O20_3 C78_3 1_555 1_555
C79_3 Rh2_3 1_555 1_555
O21_3 C79_3 1_555 1_555
Cl1_4 Rh2_4 1_555 1_555
Rh2_4 Cl2_4 1_555 1_555
C78_4 Rh2_4 1_555 1_555
O20_4 C78_4 1_555 1_555
C79_4 Rh2_4 1_555 1_555
O21_4 C79_4 1_555 1_555

#END
