
###############################################################################
#
# This file contains modified crystal structure data generated from the
# MOF subset of the Cambridge Structural Database (CSD) v543 
# hosted by the Cambridge Crystallographic Data Centre (CCDC).
#
# This work is licensed under the Creative Commons
# Attribution-NonCommercial-ShareAlike 4.0 International License.
# To view a copy of this license, visit
# http://creativecommons.org/licenses/by-nc-sa/4.0/
# or send a letter to
# Creative Commons, PO Box 1866, Mountain View, CA 94042, USA.
#
# CIF created using the CSD Python API on 29 September 2022
# The structure has been converted into the P1 space group
# The structure has a 3D framework
# The original CSD entry SAHNIZ is in the hexagonal crystal system
# The framework has been calculated to contain at least 10.0% void space
# The void calculation uses a probe of radius 1.32A, grid spacing 0.4
# The framework is charged, counterions have been retained in the structure
# H atom positions have been added when not included in the experimental data
# Generated hydrogen atom positions removed from atoms on special positions
#
###############################################################################

data_SAHNIZ
_chemical_formula_moiety         '(C84 H156 Fe9 N12 Na12 O102 11-)n'
_symmetry_cell_setting           triclinic
_symmetry_space_group_name_H-M   'P 1'
_symmetry_Int_Tables_number      1
_space_group_name_Hall           'P 1'
loop_
_symmetry_equiv_pos_site_id
_symmetry_equiv_pos_as_xyz
1 x,y,z
_cell_length_a                   17.8474(4)
_cell_length_b                   17.8474(4)
_cell_length_c                   18.0638(4)
_cell_angle_alpha                90
_cell_angle_beta                 90
_cell_angle_gamma                120
_cell_volume                     4982.99
loop_
_atom_site_label
_atom_site_type_symbol
_atom_site_fract_x
_atom_site_fract_y
_atom_site_fract_z
O15 O 0.0629(2) 0.5315(3) 0.1326(2)
Na5 Na 0.06167(13) 0.39431(19) 0.15882(10)
Na7 Na 0.06167(13) 0.39431(19) 0.34118(10)
O64 O 0.1624(2) 0.4084(3) 0.06120(18)
O65 O 0.1640(6) 0.4512(8) 0.2500
O48 O 0.0390(3) 0.7060(5) 0.9209(3)
O59 O 0.0530(3) 0.6669(3) 0.7500
Fe1 Fe 0.72267(4) 0.12235(4) 0.16531(3)
N1 N 0.6337(2) 0.1571(2) 0.1025(2)
C1 C 0.8740(4) 0.2671(4) 0.2500
C2 C 0.8022(6) 0.0365(6) 0.2500
O1 O 0.7707(2) 0.1414(2) 0.05792(17)
O3 O 0.6132(2) 0.0022(2) 0.13341(19)
O5 O 0.83498(19) 0.2323(2) 0.18742(17)
O6 O 0.9470(3) 0.3331(3) 0.2500
O7 O 0.7770(2) 0.0505(2) 0.1880(2)
O8 O 0.8716(9) 0.0282(9) 0.2500
O9 O 0.6720(3) 0.1259(3) 0.2500
C3 C 0.7380(3) 0.3154(3) 0.0944(2)
C4 C 0.6492(3) 0.2451(3) 0.1222(2)
C5 C 0.6454(3) 0.1467(3) 0.0224(3)
H2 H 0.5982 0.0915 0.0058
C6 C 0.7296(3) 0.1508(3) 0.0048(2)
C7 C 0.5475(3) 0.0902(3) 0.1268(3)
H3 H 0.5044 0.0874 0.0925
H4 H 0.5354 0.1053 0.1752
C8 C 0.5417(3) 0.0023(3) 0.1308(3)
C9 C 0.7549(3) 0.4041(4) 0.1222(2)
N2 N 0.8429(2) 0.4766(3) 0.1025(2)
C10 C 0.8533(3) 0.4987(4) 0.0224(3)
H6 H 0.9085 0.5067 0.0058
C11 C 0.8492(3) 0.5788(4) 0.0048(2)
O12 O 0.8586(2) 0.6293(3) 0.05792(17)
C12 C 0.9098(3) 0.4573(4) 0.1268(3)
H7 H 0.9126 0.4170 0.0925
H8 H 0.8947 0.4301 0.1752
C13 C 0.9977(3) 0.5394(4) 0.1308(3)
O14 O 0.9978(2) 0.6110(3) 0.13341(19)
C14 C 0.6846(3) 0.4226(4) 0.0944(2)
C15 C 0.5959(4) 0.3508(3) 0.1222(2)
N3 N 0.5234(3) 0.3663(2) 0.1025(2)
C16 C 0.5013(4) 0.3546(3) 0.0224(3)
H10 H 0.4933 0.4018 0.0058
C17 C 0.4212(4) 0.2704(3) 0.0048(2)
O16 O 0.3707(3) 0.2293(2) 0.05792(17)
C18 C 0.5427(4) 0.4525(3) 0.1268(3)
H11 H 0.5830 0.4956 0.0925
H12 H 0.5699 0.4646 0.1752
C19 C 0.4606(4) 0.4583(3) 0.1308(3)
O18 O 0.3890(3) 0.3868(2) 0.13341(19)
O19 O 0.4685(3) 0.5314(2) 0.1326(2)
C20 C 0.5774(4) 0.2620(3) 0.0944(2)
O20 O 0.83498(19) 0.2323(2) 0.31258(17)
O21 O 0.7770(2) 0.0505(2) 0.3120(2)
Fe2 Fe 0.87765(4) 0.60032(6) 0.16531(3)
Fe3 Fe 0.39968(6) 0.27733(4) 0.16531(3)
Fe4 Fe 0.72267(4) 0.12235(4) 0.33469(3)
Na6 Na 0.60569(19) 0.66736(14) 0.15882(10)
C40 C 0.7329(4) 0.6069(6) 0.2500
O37 O 0.7677(2) 0.60268(28) 0.18742(17)
O38 O 0.6669(3) 0.6139(4) 0.2500
O39 O 0.7677(2) 0.60268(28) 0.31258(17)
C41 C 0.9635(6) 0.7657(8) 0.2500
O40 O 0.9495(2) 0.7265(3) 0.1880(2)
O41 O 0.9718(9) 0.8434(13) 0.2500
O42 O 0.9495(2) 0.7265(3) 0.3120(2)
O43 O 0.8741(3) 0.5461(4) 0.2500
C42 C 0.2343(8) 0.1978(6) 0.2500
O44 O 0.2735(3) 0.2230(2) 0.1880(2)
O45 O 0.1566(13) 0.1284(9) 0.2500
O46 O 0.2735(3) 0.2230(2) 0.3120(2)
O47 O 0.4539(4) 0.3280(3) 0.2500
O52 O 0.3330(4) 0.0390(3) 0.0791(3)
O53 O 0.9610(3) 0.2940(5) 0.0791(3)
O54 O 0.7060(5) 0.6670(4) 0.0791(3)
O55 O 0.39732(28) 0.16502(19) 0.18742(17)
N7 N 0.6337(2) 0.1571(2) 0.3975(2)
O56 O 0.7707(2) 0.1414(2) 0.44208(17)
O57 O 0.6132(2) 0.0022(2) 0.36659(19)
O62 O 0.3861(4) 0.0530(3) 0.2500
O66 O 0.5916(3) 0.7540(2) 0.06120(18)
O67 O 0.5488(8) 0.7128(6) 0.2500
Na13 Na 0.60569(19) 0.66736(14) 0.34118(10)
Fe9 Fe 0.87765(4) 0.60032(6) 0.33469(3)
Fe10 Fe 0.39968(6) 0.27733(4) 0.33469(3)
H27 H 0.650085 0.249232 0.182371
H28 H 0.7389 0.3151 0.0341232
H29 H 0.787938 0.302997 0.115498
H30 H 0.750768 0.400853 0.182371
H31 H 0.6849 0.4238 0.0341232
H32 H 0.697003 0.484942 0.115498
H33 H 0.599147 0.349915 0.182371
H35 H 0.515058 0.212062 0.115498
H36 H 0.5762 0.2611 0.0341232
Na1 Na 0.66736(14) 0.06167(13) 0.84118(10)
O2 O 0.7540(2) 0.1624(2) 0.93880(18)
O11 O 0.7128(6) 0.1640(6) 0.7500
H1 H 0.6422 0.1918 0.9950
H5 H 0.8082 0.4504 0.9950
O13 O 0.8376(2) 0.5916(3) 0.93880(18)
H9 H 0.5496 0.3578 0.9950
O17 O 0.4084(3) 0.2460(2) 0.93880(18)
Na2 Na 0.93833(13) 0.60569(19) 0.84118(10)
Na3 Na 0.39431(19) 0.33264(14) 0.84118(10)
O25 O 0.5314(2) 0.0629(2) 0.8674(2)
O49 O 0.8360(6) 0.5488(8) 0.7500
O50 O 0.2940(5) 0.3330(4) 0.9209(3)
O51 O 0.4512(8) 0.2872(6) 0.7500
Na8 Na 0.66736(14) 0.06167(13) 0.65882(10)
O58 O 0.9371(2) 0.4685(3) 0.8674(2)
O60 O 0.5315(3) 0.4686(2) 0.8674(2)
O61 O 0.3331(3) 0.3861(4) 0.7500
Na14 Na 0.93833(13) 0.60569(19) 0.65882(10)
Na15 Na 0.39431(19) 0.33264(14) 0.65882(10)
O4 O 0.4686(2) 0.9371(2) 0.1326(2)
Na4 Na 0.33264(14) 0.93833(13) 0.15882(10)
O23 O 0.2460(2) 0.8376(2) 0.06120(18)
H13 H 0.3578 0.8082 0.0050
H17 H 0.1918 0.5496 0.0050
H21 H 0.4504 0.6422 0.0050
O63 O 0.2872(6) 0.8360(6) 0.2500
O10 O 0.6670(4) 0.9610(3) 0.9209(3)
N4 N 0.3663(2) 0.8429(2) 0.8975(2)
O22 O 0.2293(2) 0.8586(2) 0.94208(17)
O24 O 0.3868(2) 0.9978(2) 0.86659(19)
C21 C 0.2620(3) 0.6846(3) 0.9056(2)
C22 C 0.3508(3) 0.7549(3) 0.8778(2)
C23 C 0.3546(3) 0.8533(3) 0.9776(3)
H14 H 0.4018 0.9085 0.9942
C24 C 0.2704(3) 0.8492(3) 0.9952(2)
C25 C 0.4525(3) 0.9098(3) 0.8732(3)
H15 H 0.4956 0.9126 0.9075
H16 H 0.4646 0.8947 0.8248
C26 C 0.4583(3) 0.9977(3) 0.8692(3)
C27 C 0.2451(3) 0.5959(4) 0.8778(2)
N5 N 0.1571(2) 0.5234(3) 0.8975(2)
C28 C 0.1467(3) 0.5013(4) 0.9776(3)
H18 H 0.0915 0.4933 0.9942
C29 C 0.1508(3) 0.4212(4) 0.9952(2)
O26 O 0.1414(2) 0.3707(3) 0.94208(17)
C30 C 0.0902(3) 0.5427(4) 0.8732(3)
H19 H 0.0874 0.5830 0.9075
H20 H 0.1053 0.5699 0.8248
C31 C 0.0023(3) 0.4606(4) 0.8692(3)
O28 O 0.0022(2) 0.3890(3) 0.86659(19)
C32 C 0.3154(3) 0.5774(4) 0.9056(2)
C33 C 0.4041(4) 0.6492(3) 0.8778(2)
N6 N 0.4766(3) 0.6337(2) 0.8975(2)
C34 C 0.4987(4) 0.6454(3) 0.9776(3)
H22 H 0.5067 0.5982 0.9942
C35 C 0.5788(4) 0.7296(3) 0.9952(2)
O30 O 0.6293(3) 0.7707(2) 0.94208(17)
C36 C 0.4573(4) 0.5475(3) 0.8732(3)
H23 H 0.4170 0.5044 0.9075
H24 H 0.4301 0.5354 0.8248
C37 C 0.5394(4) 0.5417(3) 0.8692(3)
O32 O 0.6110(3) 0.6132(2) 0.86659(19)
C38 C 0.4226(4) 0.7380(3) 0.9056(2)
C39 C 0.6069(6) 0.8740(4) 0.7500
O34 O 0.60268(28) 0.83498(19) 0.68742(17)
O35 O 0.6139(4) 0.9470(3) 0.7500
O36 O 0.60268(28) 0.83498(19) 0.81258(17)
Fe5 Fe 0.27733(4) 0.87765(4) 0.83469(3)
Fe6 Fe 0.12235(4) 0.39968(6) 0.83469(3)
Fe7 Fe 0.60032(6) 0.72267(4) 0.83469(3)
Fe8 Fe 0.60032(6) 0.72267(4) 0.66531(3)
O68 O 0.16502(19) 0.7677(2) 0.81258(17)
O69 O 0.2230(2) 0.9495(2) 0.8120(2)
O70 O 0.3280(3) 0.8741(3) 0.7500
O71 O 0.2323(2) 0.39732(28) 0.81258(17)
O72 O 0.0505(2) 0.2735(3) 0.8120(2)
O73 O 0.1259(3) 0.4539(4) 0.7500
H34 H 0.349915 0.750768 0.817629
H37 H 0.212062 0.697003 0.884502
H38 H 0.2611 0.6849 0.965877
H39 H 0.400853 0.650085 0.817629
H40 H 0.249232 0.599147 0.817629
H41 H 0.302997 0.515058 0.884502
H42 H 0.3151 0.5762 0.965877
H43 H 0.4238 0.7389 0.965877
H44 H 0.484942 0.787938 0.884502
C39_2 C 0.1260(4) 0.7329(7) 0.7500
O34_2 O 0.16502(19) 0.76770(34) 0.68742(17)
Fe8_2 Fe 0.27733(4) 0.87765(7) 0.66531(3)
O72_2 O 0.7265(3) 0.7770(4) 0.8120(2)
O73_2 O 0.5461(4) 0.6720(5) 0.7500
C40_2 C 0.3931(6) 0.1260(7) 0.2500
O39_2 O 0.39732(28) 0.16502(34) 0.31258(17)
N7_2 N 0.8429(2) 0.4766(3) 0.3975(2)
O56_2 O 0.8586(2) 0.6293(3) 0.44208(17)
O57_2 O 0.9978(2) 0.6110(3) 0.36659(19)
Na13_2 Na 0.33264(14) 0.93833(24) 0.34118(10)
N7_3 N 0.5234(3) 0.3663(2) 0.3975(2)
O56_3 O 0.3707(3) 0.2293(2) 0.44208(17)
O57_3 O 0.3890(3) 0.3868(2) 0.36659(19)
C39_3 C 0.2671(7) 0.3931(6) 0.7500
O34_3 O 0.23230(34) 0.39732(28) 0.68742(17)
Fe8_3 Fe 0.12235(7) 0.39968(6) 0.66531(3)
O33 O 0.0629(4) 0.5315(3) 0.3674(2)
O15_2 O 0.5314(4) 0.0629(2) 0.6326(2)
O48_2 O 0.3330(6) 0.0390(3) 0.4209(3)
O64_2 O 0.7540(4) 0.1624(2) 0.56120(18)
N1_2 N 0.4766(3) 0.6337(2) 0.6025(2)
C2_2 C 0.7657(8) 0.8022(6) 0.7500
O1_2 O 0.6293(3) 0.7707(2) 0.55792(17)
O2_2 O 0.5916(3) 0.7540(2) 0.43880(18)
O3_2 O 0.6110(3) 0.6132(2) 0.63341(19)
O4_2 O 0.5315(3) 0.4686(2) 0.6326(2)
O7_2 O 0.7265(3) 0.7770(2) 0.6880(2)
O8_2 O 0.8434(13) 0.8716(9) 0.7500
O10_2 O 0.7060(5) 0.6670(4) 0.4209(3)
C3_2 C 0.4226(4) 0.7380(3) 0.5944(2)
C4_2 C 0.4041(4) 0.6492(3) 0.6222(2)
C5_2 C 0.4987(4) 0.6454(3) 0.5224(3)
H1_2 H 0.4504 0.6422 0.4950
H2_2 H 0.5067 0.5982 0.5058
C6_2 C 0.5788(4) 0.7296(3) 0.5048(2)
C7_2 C 0.4573(4) 0.5475(3) 0.6268(3)
H3_2 H 0.4170 0.5044 0.5925
H4_2 H 0.4301 0.5354 0.6752
C8_2 C 0.5394(4) 0.5417(3) 0.6308(3)
C9_2 C 0.3508(5) 0.7549(3) 0.6222(2)
N2_2 N 0.3663(4) 0.8429(2) 0.6025(2)
C10_2 C 0.3546(5) 0.8533(3) 0.5224(3)
H5_2 H 0.3578 0.8082 0.4950
H6_2 H 0.4018 0.9085 0.5058
C11_2 C 0.2704(5) 0.8492(3) 0.5048(2)
O12_2 O 0.2293(4) 0.8586(2) 0.55792(17)
O13_2 O 0.2460(4) 0.8376(2) 0.43880(18)
C12_2 C 0.4525(5) 0.9098(3) 0.6268(3)
H7_2 H 0.4956 0.9126 0.5925
H8_2 H 0.4646 0.8947 0.6752
C13_2 C 0.4583(5) 0.9977(3) 0.6308(3)
O14_2 O 0.3868(4) 0.9978(2) 0.63341(19)
C14_2 C 0.2620(5) 0.6846(3) 0.5944(2)
C15_2 C 0.2451(5) 0.5959(4) 0.6222(2)
N3_2 N 0.1571(4) 0.5234(3) 0.6025(2)
C16_2 C 0.1467(5) 0.5013(4) 0.5224(3)
H9_2 H 0.1918 0.5496 0.4950
H10_2 H 0.0915 0.4933 0.5058
C17_2 C 0.1508(5) 0.4212(4) 0.5048(2)
O16_2 O 0.1414(4) 0.3707(3) 0.55792(17)
O17_2 O 0.1624(4) 0.4084(3) 0.43880(18)
C18_2 C 0.0902(5) 0.5427(4) 0.6268(3)
H11_2 H 0.0874 0.5830 0.5925
H12_2 H 0.1053 0.5699 0.6752
C19_2 C 0.0023(5) 0.4606(4) 0.6308(3)
O18_2 O 0.0022(4) 0.3890(3) 0.63341(19)
C20_2 C 0.3154(5) 0.5774(4) 0.5944(2)
O23_2 O 0.4084(3) 0.2460(2) 0.56120(18)
O25_2 O 0.4685(3) 0.5314(2) 0.3674(2)
C21_2 C 0.5774(4) 0.2620(3) 0.4056(2)
C22_2 C 0.5959(4) 0.3508(3) 0.3778(2)
C23_2 C 0.5013(4) 0.3546(3) 0.4776(3)
H13_2 H 0.5496 0.3578 0.5050
H14_2 H 0.4933 0.4018 0.4942
C24_2 C 0.4212(4) 0.2704(3) 0.4952(2)
C25_2 C 0.5427(4) 0.4525(3) 0.3732(3)
H15_2 H 0.5830 0.4956 0.4075
H16_2 H 0.5699 0.4646 0.3248
C26_2 C 0.4606(4) 0.4583(3) 0.3692(3)
C27_2 C 0.6492(5) 0.2451(3) 0.3778(2)
C28_2 C 0.6454(5) 0.1467(3) 0.4776(3)
H17_2 H 0.6422 0.1918 0.5050
H18_2 H 0.5982 0.0915 0.4942
C29_2 C 0.7296(5) 0.1508(3) 0.4952(2)
C30_2 C 0.5475(5) 0.0902(3) 0.3732(3)
H19_2 H 0.5044 0.0874 0.4075
H20_2 H 0.5354 0.1053 0.3248
C31_2 C 0.5417(5) 0.0023(3) 0.3692(3)
C32_2 C 0.7380(5) 0.3154(3) 0.4056(2)
C33_2 C 0.7549(5) 0.4041(4) 0.3778(2)
C34_2 C 0.8533(5) 0.4987(4) 0.4776(3)
H21_2 H 0.8082 0.4504 0.5050
H22_2 H 0.9085 0.5067 0.4942
C35_2 C 0.8492(5) 0.5788(4) 0.4952(2)
O31 O 0.8376(4) 0.5916(3) 0.56120(18)
C36_2 C 0.9098(5) 0.4573(4) 0.3732(3)
H23_2 H 0.9126 0.4170 0.4075
H24_2 H 0.8947 0.4301 0.3248
C37_2 C 0.9977(5) 0.5394(4) 0.3692(3)
C38_2 C 0.6846(5) 0.4226(4) 0.4056(2)
C41_2 C 0.1978(10) 0.9635(6) 0.7500
O40_2 O 0.2230(4) 0.9495(2) 0.6880(2)
O41_2 O 0.1284(16) 0.9718(9) 0.7500
C42_2 C 0.0365(10) 0.2343(8) 0.7500
O44_2 O 0.0505(4) 0.2735(3) 0.6880(2)
O45_2 O 0.0282(16) 0.1566(13) 0.7500
O52_2 O 0.2940(5) 0.3330(4) 0.5791(3)
O53_2 O 0.6670(6) 0.9610(3) 0.5791(3)
O54_2 O 0.0390(6) 0.7060(5) 0.5791(3)
O58_2 O 0.4686(4) 0.9371(2) 0.3674(2)
H27_2 H 0.400853 0.650085 0.682371
H28_2 H 0.4238 0.7389 0.534123
H29_2 H 0.484942 0.787938 0.615498
H30_2 H 0.349915 0.750768 0.682371
H31_2 H 0.2611 0.6849 0.534123
H32_2 H 0.212062 0.697003 0.615498
H33_2 H 0.249232 0.599147 0.682371
H34_2 H 0.599147 0.349915 0.317629
H35_2 H 0.302997 0.515058 0.615498
H36_2 H 0.3151 0.5762 0.534123
H37_2 H 0.515058 0.212062 0.384502
H38_2 H 0.5762 0.2611 0.465877
H39_2 H 0.750768 0.400853 0.317629
H40_2 H 0.650085 0.249232 0.317629
H41_2 H 0.787938 0.302997 0.384502
H42_2 H 0.7389 0.3151 0.465877
H43_2 H 0.6849 0.4238 0.465877
H44_2 H 0.697003 0.484942 0.384502
O19_2 O 0.9371(4) 0.4685(3) 0.6326(2)
O50_2 O 0.9610(6) 0.2940(5) 0.4209(3)
loop_
_geom_bond_atom_site_label_1
_geom_bond_atom_site_label_2
_geom_bond_site_symmetry_1
_geom_bond_site_symmetry_2
O64 Na5 1_555 1_555
O65 Na5 1_555 1_555
O15 Na5 1_555 1_555
Na7 O65 1_555 1_555
Fe1 N1 1_555 1_555
N1 C4 1_555 1_555
C1 O5 1_555 1_555
C2 O7 1_555 1_555
O1 Fe1 1_555 1_555
O3 Fe1 1_555 1_555
O5 Fe1 1_555 1_555
O6 C1 1_555 1_555
O7 Fe1 1_555 1_555
O8 C2 1_555 1_555
O9 Fe1 1_555 1_555
C3 C4 1_555 1_555
C4 C20 1_555 1_555
C5 N1 1_555 1_555
H2 C5 1_555 1_555
C6 O1 1_555 1_555
C7 N1 1_555 1_555
H3 C7 1_555 1_555
H4 C7 1_555 1_555
C8 O3 1_555 1_555
C9 C3 1_555 1_555
N2 C9 1_555 1_555
C10 N2 1_555 1_555
H6 C10 1_555 1_555
C11 C10 1_555 1_555
O12 C11 1_555 1_555
C12 N2 1_555 1_555
H7 C12 1_555 1_555
H8 C12 1_555 1_555
C13 C12 1_555 1_555
O14 C13 1_555 1_555
C14 C9 1_555 1_555
C15 C14 1_555 1_555
N3 C15 1_555 1_555
C16 N3 1_555 1_555
H10 C16 1_555 1_555
C17 C16 1_555 1_555
O16 C17 1_555 1_555
C18 N3 1_555 1_555
H11 C18 1_555 1_555
H12 C18 1_555 1_555
C19 C18 1_555 1_555
O18 C19 1_555 1_555
O19 C19 1_555 1_555
C20 C15 1_555 1_555
O20 C1 1_555 1_555
O21 C2 1_555 1_555
Fe2 N2 1_555 1_555
Fe3 N3 1_555 1_555
Fe4 O9 1_555 1_555
Na6 O19 1_555 1_555
C40 O37 1_555 1_555
O37 Fe2 1_555 1_555
O38 Na6 1_555 1_555
O39 C40 1_555 1_555
C41 O40 1_555 1_555
O40 Fe2 1_555 1_555
O41 C41 1_555 1_555
O42 C41 1_555 1_555
O43 Fe2 1_555 1_555
C42 O44 1_555 1_555
O44 Fe3 1_555 1_555
O45 C42 1_555 1_555
O46 C42 1_555 1_555
O47 Fe3 1_555 1_555
O54 Na6 1_555 1_555
O55 Fe3 1_555 1_555
N7 Fe4 1_555 1_555
O56 Fe4 1_555 1_555
O57 Fe4 1_555 1_555
O66 Na6 1_555 1_555
O67 Na6 1_555 1_555
Na13 O38 1_555 1_555
Fe9 O39 1_555 1_555
Fe10 O46 1_555 1_555
C5 C6 1_555 1_555
C7 C8 1_555 1_555
O12 Fe2 1_555 1_555
O14 Fe2 1_555 1_555
O16 Fe3 1_555 1_555
O18 Fe3 1_555 1_555
O20 Fe4 1_555 1_555
O21 Fe4 1_555 1_555
C40 O38 1_555 1_555
O42 Fe9 1_555 1_555
O43 Fe9 1_555 1_555
O47 Fe10 1_555 1_555
O67 Na13 1_555 1_555
C4 H27 1_555 1_555
C3 H28 1_555 1_555
C3 H29 1_555 1_555
C9 H30 1_555 1_555
C14 H31 1_555 1_555
C14 H32 1_555 1_555
C15 H33 1_555 1_555
C20 H35 1_555 1_555
C20 H36 1_555 1_555
Na1 O2 1_555 1_555
O11 Na1 1_555 1_555
Na2 O13 1_555 1_555
Na3 O17 1_555 1_555
O25 Na1 1_555 1_555
O49 Na2 1_555 1_555
O50 Na3 1_555 1_555
O51 Na3 1_555 1_555
Na8 O11 1_555 1_555
O58 Na2 1_555 1_555
O60 Na3 1_555 1_555
O61 Na3 1_555 1_555
Na14 O49 1_555 1_555
Na15 O51 1_555 1_555
O61 Na15 1_555 1_555
Na4 O4 1_555 1_555
O23 Na4 1_555 1_555
O63 Na4 1_555 1_555
N4 C22 1_555 1_555
O22 C24 1_555 1_555
O24 C26 1_555 1_555
C21 C22 1_555 1_555
C22 C38 1_555 1_555
C23 N4 1_555 1_555
H14 C23 1_555 1_555
C25 N4 1_555 1_555
H15 C25 1_555 1_555
H16 C25 1_555 1_555
C27 C21 1_555 1_555
N5 C27 1_555 1_555
C28 N5 1_555 1_555
H18 C28 1_555 1_555
C29 C28 1_555 1_555
O26 C29 1_555 1_555
C30 N5 1_555 1_555
H19 C30 1_555 1_555
H20 C30 1_555 1_555
C31 C30 1_555 1_555
O28 C31 1_555 1_555
C32 C27 1_555 1_555
C33 C32 1_555 1_555
N6 C33 1_555 1_555
C34 N6 1_555 1_555
H22 C34 1_555 1_555
C35 C34 1_555 1_555
O30 C35 1_555 1_555
C36 N6 1_555 1_555
H23 C36 1_555 1_555
H24 C36 1_555 1_555
C37 C36 1_555 1_555
O32 C37 1_555 1_555
O60 C37 1_555 1_555
C38 C33 1_555 1_555
C39 O34 1_555 1_555
O34 Fe8 1_555 1_555
O36 C39 1_555 1_555
Fe5 N4 1_555 1_555
Fe6 N5 1_555 1_555
Fe7 N6 1_555 1_555
O68 Fe5 1_555 1_555
O69 Fe5 1_555 1_555
O70 Fe5 1_555 1_555
O71 Fe6 1_555 1_555
O72 Fe6 1_555 1_555
O73 Fe6 1_555 1_555
O22 Fe5 1_555 1_555
O24 Fe5 1_555 1_555
C23 C24 1_555 1_555
C25 C26 1_555 1_555
O26 Fe6 1_555 1_555
O28 Fe6 1_555 1_555
O30 Fe7 1_555 1_555
O32 Fe7 1_555 1_555
C39 O35 1_555 1_555
O36 Fe7 1_555 1_555
C22 H34 1_555 1_555
C21 H37 1_555 1_555
C21 H38 1_555 1_555
C33 H39 1_555 1_555
C27 H40 1_555 1_555
C32 H41 1_555 1_555
C32 H42 1_555 1_555
C38 H43 1_555 1_555
C38 H44 1_555 1_555
C39_2 O34_2 1_555 1_555
O34_2 Fe8_2 1_555 1_555
O68 C39_2 1_555 1_555
O72_2 Fe7 1_555 1_555
O73_2 Fe7 1_555 1_555
C39_2 O59 1_555 1_555
C40_2 O55 1_555 1_555
O39_2 C40_2 1_555 1_555
N7_2 Fe9 1_555 1_555
O56_2 Fe9 1_555 1_555
O57_2 Fe9 1_555 1_555
Fe10 O39_2 1_555 1_555
C40_2 O62 1_555 1_555
O63 Na13_2 1_555 1_555
N7_3 Fe10 1_555 1_555
O56_3 Fe10 1_555 1_555
O57_3 Fe10 1_555 1_555
C39_3 O34_3 1_555 1_555
O34_3 Fe8_3 1_555 1_555
O71 C39_3 1_555 1_555
C39_3 O61 1_555 1_555
Na7 O33 1_555 1_555
O64_2 Na8 1_555 1_555
O15_2 Na8 1_555 1_555
Fe8 N1_2 1_555 1_555
Na13 O2_2 1_555 1_555
N1_2 C4_2 1_555 1_555
C2_2 O7_2 1_555 1_555
O1_2 Fe8 1_555 1_555
O2_2 C6_2 1_555 1_555
O3_2 Fe8 1_555 1_555
O4_2 C8_2 1_555 1_555
O7_2 Fe8 1_555 1_555
O8_2 C2_2 1_555 1_555
O73_2 Fe8 1_555 1_555
O10_2 Na13 1_555 1_555
C3_2 C4_2 1_555 1_555
C4_2 C20_2 1_555 1_555
C5_2 N1_2 1_555 1_555
H1_2 C5_2 1_555 1_555
H2_2 C5_2 1_555 1_555
C6_2 O1_2 1_555 1_555
C7_2 N1_2 1_555 1_555
H3_2 C7_2 1_555 1_555
H4_2 C7_2 1_555 1_555
C8_2 O3_2 1_555 1_555
C9_2 C3_2 1_555 1_555
N2_2 C9_2 1_555 1_555
C10_2 N2_2 1_555 1_555
H5_2 C10_2 1_555 1_555
H6_2 C10_2 1_555 1_555
C11_2 C10_2 1_555 1_555
O12_2 C11_2 1_555 1_555
O13_2 C11_2 1_555 1_555
C12_2 N2_2 1_555 1_555
H7_2 C12_2 1_555 1_555
H8_2 C12_2 1_555 1_555
C13_2 C12_2 1_555 1_555
O14_2 C13_2 1_555 1_555
C14_2 C9_2 1_555 1_555
C15_2 C14_2 1_555 1_555
N3_2 C15_2 1_555 1_555
C16_2 N3_2 1_555 1_555
H9_2 C16_2 1_555 1_555
H10_2 C16_2 1_555 1_555
C17_2 C16_2 1_555 1_555
O16_2 C17_2 1_555 1_555
O17_2 C17_2 1_555 1_555
C18_2 N3_2 1_555 1_555
H11_2 C18_2 1_555 1_555
H12_2 C18_2 1_555 1_555
C19_2 C18_2 1_555 1_555
O18_2 C19_2 1_555 1_555
C20_2 C15_2 1_555 1_555
O72_2 C2_2 1_555 1_555
Fe8_2 N2_2 1_555 1_555
Fe8_3 N3_2 1_555 1_555
Na13_2 O13_2 1_555 1_555
Na7 O17_2 1_555 1_555
Na15 O4_2 1_555 1_555
N7_3 C22_2 1_555 1_555
O56_3 C24_2 1_555 1_555
O23_2 Na15 1_555 1_555
O57_3 C26_2 1_555 1_555
O25_2 Na13 1_555 1_555
C21_2 C22_2 1_555 1_555
C22_2 C38_2 1_555 1_555
C23_2 N7_3 1_555 1_555
H13_2 C23_2 1_555 1_555
H14_2 C23_2 1_555 1_555
C24_2 O23_2 1_555 1_555
C25_2 N7_3 1_555 1_555
H15_2 C25_2 1_555 1_555
H16_2 C25_2 1_555 1_555
C26_2 O25_2 1_555 1_555
C27_2 C21_2 1_555 1_555
N7 C27_2 1_555 1_555
C28_2 N7 1_555 1_555
H17_2 C28_2 1_555 1_555
H18_2 C28_2 1_555 1_555
C29_2 C28_2 1_555 1_555
O56 C29_2 1_555 1_555
O64_2 C29_2 1_555 1_555
C30_2 N7 1_555 1_555
H19_2 C30_2 1_555 1_555
H20_2 C30_2 1_555 1_555
C31_2 C30_2 1_555 1_555
O57 C31_2 1_555 1_555
C32_2 C27_2 1_555 1_555
C33_2 C32_2 1_555 1_555
N7_2 C33_2 1_555 1_555
C34_2 N7_2 1_555 1_555
H21_2 C34_2 1_555 1_555
H22_2 C34_2 1_555 1_555
C35_2 C34_2 1_555 1_555
O56_2 C35_2 1_555 1_555
O31 C35_2 1_555 1_555
C36_2 N7_2 1_555 1_555
H23_2 C36_2 1_555 1_555
H24_2 C36_2 1_555 1_555
C37_2 C36_2 1_555 1_555
O57_2 C37_2 1_555 1_555
C38_2 C33_2 1_555 1_555
C41_2 O40_2 1_555 1_555
O40_2 Fe8_2 1_555 1_555
O41_2 C41_2 1_555 1_555
O69 C41_2 1_555 1_555
O70 Fe8_2 1_555 1_555
C42_2 O44_2 1_555 1_555
O44_2 Fe8_3 1_555 1_555
O45_2 C42_2 1_555 1_555
O72 C42_2 1_555 1_555
O73 Fe8_3 1_555 1_555
O52_2 Na15 1_555 1_555
O58_2 Na13_2 1_555 1_555
Na14 O31 1_555 1_555
C5_2 C6_2 1_555 1_555
C7_2 C8_2 1_555 1_555
O12_2 Fe8_2 1_555 1_555
O14_2 Fe8_2 1_555 1_555
O16_2 Fe8_3 1_555 1_555
O18_2 Fe8_3 1_555 1_555
C23_2 C24_2 1_555 1_555
C25_2 C26_2 1_555 1_555
C4_2 H27_2 1_555 1_555
C3_2 H28_2 1_555 1_555
C3_2 H29_2 1_555 1_555
C9_2 H30_2 1_555 1_555
C14_2 H31_2 1_555 1_555
C14_2 H32_2 1_555 1_555
C15_2 H33_2 1_555 1_555
C22_2 H34_2 1_555 1_555
C20_2 H35_2 1_555 1_555
C20_2 H36_2 1_555 1_555
C21_2 H37_2 1_555 1_555
C21_2 H38_2 1_555 1_555
C33_2 H39_2 1_555 1_555
C27_2 H40_2 1_555 1_555
C32_2 H41_2 1_555 1_555
C32_2 H42_2 1_555 1_555
C38_2 H43_2 1_555 1_555
C38_2 H44_2 1_555 1_555
Na14 O19_2 1_555 1_555

#END
