
###############################################################################
#
# This file contains modified crystal structure data generated from the
# MOF subset of the Cambridge Structural Database (CSD) v543 
# hosted by the Cambridge Crystallographic Data Centre (CCDC).
#
# This work is licensed under the Creative Commons
# Attribution-NonCommercial-ShareAlike 4.0 International License.
# To view a copy of this license, visit
# http://creativecommons.org/licenses/by-nc-sa/4.0/
# or send a letter to
# Creative Commons, PO Box 1866, Mountain View, CA 94042, USA.
#
# CIF created using the CSD Python API on 29 September 2022
# The structure has been converted into the P1 space group
# The structure has a 3D framework
# The original CSD entry SAHXAD is in the orthorhombic crystal system
# The framework has been calculated to contain at least 10.0% void space
# The void calculation uses a probe of radius 1.32A, grid spacing 0.4
#
###############################################################################

data_SAHXAD
_chemical_formula_moiety         '(C49 H36 O30 Zn7)n'
_symmetry_cell_setting           triclinic
_symmetry_space_group_name_H-M   'P 1'
_symmetry_Int_Tables_number      1
_space_group_name_Hall           'P 1'
loop_
_symmetry_equiv_pos_site_id
_symmetry_equiv_pos_as_xyz
1 x,y,z
_cell_length_a                   20.137(11)
_cell_length_b                   10.702(6)
_cell_length_c                   11.418(6)
_cell_angle_alpha                90
_cell_angle_beta                 90
_cell_angle_gamma                90
_cell_volume                     2460.65
loop_
_atom_site_label
_atom_site_type_symbol
_atom_site_fract_x
_atom_site_fract_y
_atom_site_fract_z
Zn2 Zn 0.07895(3) 0.12913(5) 0.45551(7)
O2 O 0.1047(2) 0.0162(4) 0.3317(5)
O6 O 0.0000 0.0627(5) 0.5342(5)
H8 H 0.0000 0.1087 0.5919
O15 O 0.1538(2) 0.1913(5) 0.5388(6)
O17 O 0.0552(2) 0.2828(4) 0.3705(5)
Zn1 Zn 0.0000 0.86070(8) 0.54570(8)
C1 C 0.1035(3) 0.8964(5) 0.3426(5)
C2 C 0.1420(3) 0.8257(5) 0.2509(5)
C3 C 0.1247(3) 0.7074(6) 0.2111(6)
C4 C 0.1696(4) 0.6439(6) 0.1392(8)
H1 H 0.1594 0.5634 0.1145
C5 C 0.2280(3) 0.6963(7) 0.1043(8)
H2 H 0.2563 0.6531 0.0543
C6 C 0.2452(3) 0.8168(7) 0.1447(7)
C7 C 0.2035(3) 0.8779(5) 0.2158(6)
H3 H 0.2152 0.9568 0.2429
C8 C 0.3096(4) 0.8731(6) 0.1036(7)
C9 C -0.0000 0.7062(7) 0.2204(8)
H4 H -0.0000 0.7883 0.1936
C10 C 0.0607(3) 0.6454(5) 0.2402(6)
C11 C 0.0608(3) 0.5229(5) 0.2829(6)
H5 H 0.1008 0.4825 0.2979
C12 C -0.0000 0.4605(7) 0.3032(8)
C13 C -0.0000 0.3347(8) 0.3517(8)
O1 O 0.0737(2) 0.8383(4) 0.4189(4)
O3 O 0.3220(3) 0.9826(6) 0.1357(6)
O4 O 0.3462(2) 0.8087(5) 0.0388(6)
O7 O 0.0733(3) 0.8673(4) 0.6729(6)
O8 O 0.0000 0.6675(7) 0.5699(8)
H6 H 0.1094 0.8517 0.7153
H7 H 0.0609 0.9419 0.7115
H9 H -0.0000 0.6279 0.6344
H10 H 0.0000 0.6158 0.5134
Zn5 Zn 0.42105(3) 0.87087(5) 0.95551(7)
O6_2 O 1.0000 0.0627(5) 0.5342(5)
H8_2 H 1.0000 0.1087 0.5919
O10 O 0.8953(2) 0.0162(4) 0.3317(5)
Zn3 Zn 0.92105(3) 0.12913(5) 0.45551(7)
O16 O 0.8462(2) 0.1913(5) 0.5388(6)
O18 O 0.9448(2) 0.2828(4) 0.3705(5)
Zn1_2 Zn 1.0000 0.86070(8) 0.54570(8)
C9_2 C 1.0000 0.7062(7) 0.2204(8)
H4_2 H 1.0000 0.7883 0.1936
C12_2 C 1.0000 0.4605(7) 0.3032(8)
C13_2 C 1.0000 0.3347(8) 0.3517(8)
O8_2 O 1.0000 0.6675(7) 0.5699(8)
H9_2 H 1.0000 0.6279 0.6344
H10_2 H 1.0000 0.6158 0.5134
C14 C 0.8965(3) 0.8964(5) 0.3426(5)
C15 C 0.8580(3) 0.8257(5) 0.2509(5)
C16 C 0.8753(3) 0.7074(6) 0.2111(6)
C17 C 0.8304(4) 0.6439(6) 0.1392(8)
H11 H 0.8406 0.5634 0.1145
C18 C 0.7720(3) 0.6963(7) 0.1043(8)
H12 H 0.7437 0.6531 0.0543
C19 C 0.7548(3) 0.8168(7) 0.1447(7)
C20 C 0.7965(3) 0.8779(5) 0.2158(6)
H13 H 0.7848 0.9568 0.2429
C21 C 0.6904(4) 0.8731(6) 0.1036(7)
C22 C 0.9393(3) 0.6454(5) 0.2402(6)
C23 C 0.9392(3) 0.5229(5) 0.2829(6)
H14 H 0.8992 0.4825 0.2979
O9 O 0.9263(2) 0.8383(4) 0.4189(4)
O11 O 0.6780(3) 0.9826(6) 0.1357(6)
O12 O 0.6538(2) 0.8087(5) 0.0388(6)
O14 O 0.9267(3) 0.8673(4) 0.6729(6)
H15 H 0.8906 0.8517 0.7153
H16 H 0.9391 0.9419 0.7115
Zn7 Zn 0.57895(3) 0.87087(5) 0.95551(7)
C1_2 C 0.3965(3) 0.1036(5) 0.8426(5)
C2_2 C 0.3580(3) 0.1743(5) 0.7509(5)
C3_2 C 0.3753(3) 0.2926(6) 0.7111(6)
C4_2 C 0.3304(4) 0.3561(6) 0.6392(8)
H1_2 H 0.3406 0.4366 0.6145
C5_2 C 0.2720(3) 0.3037(7) 0.6043(8)
H2_2 H 0.2437 0.3469 0.5543
C6_2 C 0.2548(3) 0.1832(7) 0.6447(7)
C7_2 C 0.2965(3) 0.1221(5) 0.7158(6)
H3_2 H 0.2848 0.0432 0.7429
C8_2 C 0.1904(4) 0.1269(6) 0.6036(7)
C9_3 C 0.5000 0.2938(7) 0.7204(8)
H4_3 H 0.5000 0.2117 0.6936
C10_2 C 0.4393(3) 0.3546(5) 0.7402(6)
C11_2 C 0.4392(3) 0.4771(5) 0.7829(6)
H5_2 H 0.3992 0.5175 0.7979
C12_3 C 0.5000 0.5395(7) 0.8032(8)
C13_3 C 0.5000 0.6653(8) 0.8517(8)
O1_2 O 0.4263(2) 0.1617(4) 0.9189(4)
O3_2 O 0.1780(3) 0.0174(6) 0.6357(6)
O5 O 0.4448(2) 0.7172(4) 0.8705(5)
C14_2 C 0.6035(3) 0.1036(5) 0.8426(5)
C15_2 C 0.6420(3) 0.1743(5) 0.7509(5)
C16_2 C 0.6247(3) 0.2926(6) 0.7111(6)
C17_2 C 0.6696(4) 0.3561(6) 0.6392(8)
H11_2 H 0.6594 0.4366 0.6145
C18_2 C 0.7280(3) 0.3037(7) 0.6043(8)
H12_2 H 0.7563 0.3469 0.5543
C19_2 C 0.7452(3) 0.1832(7) 0.6447(7)
C20_2 C 0.7035(3) 0.1221(5) 0.7158(6)
H13_2 H 0.7152 0.0432 0.7429
C21_2 C 0.8096(4) 0.1269(6) 0.6036(7)
C22_2 C 0.5607(3) 0.3546(5) 0.7402(6)
C23_2 C 0.5608(3) 0.4771(5) 0.7829(6)
H14_2 H 0.6008 0.5175 0.7979
O9_2 O 0.5737(2) 0.1617(4) 0.9189(4)
O11_2 O 0.8220(3) 0.0174(6) 0.6357(6)
O13 O 0.5552(2) 0.7172(4) 0.8705(5)
O6_3 O 0.5000 0.9373(5) 0.0342(5)
H8_3 H 0.5000 0.8913 0.0919
O2_2 O 0.3953(2) 0.9838(4) 0.8317(5)
O10_2 O 0.6047(2) 0.9838(4) 0.8317(5)
Zn1_3 Zn 0.5000 0.13930(8) 0.04570(8)
O7_2 O 0.4267(3) 0.1327(4) 0.1729(6)
O8_3 O 0.5000 0.3325(7) 0.0699(8)
H6_2 H 0.3906 0.1483 0.2153
H7_2 H 0.4391 0.0581 0.2115
H9_3 H 0.5000 0.3721 0.1344
H10_3 H 0.5000 0.3842 0.0134
O14_2 O 0.5733(3) 0.1327(4) 0.1729(6)
H15_2 H 0.6094 0.1483 0.2153
H16_2 H 0.5609 0.0581 0.2115
loop_
_geom_bond_atom_site_label_1
_geom_bond_atom_site_label_2
_geom_bond_site_symmetry_1
_geom_bond_site_symmetry_2
Zn2 O2 1_555 1_555
H8 O6 1_555 1_555
O15 Zn2 1_555 1_555
O17 Zn2 1_555 1_555
Zn2 O6 1_555 1_555
Zn1 O1 1_555 1_555
C1 C2 1_555 1_555
C2 C3 1_555 1_555
C3 C4 1_555 1_555
C4 H1 1_555 1_555
C5 C4 1_555 1_555
H2 C5 1_555 1_555
C6 C5 1_555 1_555
C7 C2 1_555 1_555
H3 C7 1_555 1_555
C8 C6 1_555 1_555
C9 H4 1_555 1_555
C10 C3 1_555 1_555
C11 C10 1_555 1_555
H5 C11 1_555 1_555
C12 C11 1_555 1_555
C13 C12 1_555 1_555
O1 C1 1_555 1_555
O3 C8 1_555 1_555
O4 C8 1_555 1_555
O17 C13 1_555 1_555
O7 Zn1 1_555 1_555
O8 Zn1 1_555 1_555
H6 O7 1_555 1_555
H7 O7 1_555 1_555
H9 O8 1_555 1_555
H10 O8 1_555 1_555
C6 C7 1_555 1_555
C9 C10 1_555 1_555
H8_2 O6_2 1_555 1_555
Zn3 O6_2 1_555 1_555
O16 Zn3 1_555 1_555
O18 Zn3 1_555 1_555
O10 Zn3 1_555 1_555
C9_2 H4_2 1_555 1_555
C13_2 C12_2 1_555 1_555
O8_2 Zn1_2 1_555 1_555
H9_2 O8_2 1_555 1_555
H10_2 O8_2 1_555 1_555
C14 C15 1_555 1_555
C15 C16 1_555 1_555
C16 C17 1_555 1_555
C17 H11 1_555 1_555
C18 C17 1_555 1_555
H12 C18 1_555 1_555
C19 C18 1_555 1_555
C20 C15 1_555 1_555
H13 C20 1_555 1_555
C21 C19 1_555 1_555
C22 C9_2 1_555 1_555
C23 C12_2 1_555 1_555
H14 C23 1_555 1_555
O9 Zn1_2 1_555 1_555
O11 C21 1_555 1_555
O12 C21 1_555 1_555
O18 C13_2 1_555 1_555
O14 Zn1_2 1_555 1_555
H15 O14 1_555 1_555
H16 O14 1_555 1_555
C14 O9 1_555 1_555
C16 C22 1_555 1_555
C19 C20 1_555 1_555
C22 C23 1_555 1_555
C1_2 C2_2 1_555 1_555
C2_2 C3_2 1_555 1_555
C3_2 C4_2 1_555 1_555
C4_2 H1_2 1_555 1_555
C5_2 C4_2 1_555 1_555
H2_2 C5_2 1_555 1_555
C6_2 C5_2 1_555 1_555
C7_2 C2_2 1_555 1_555
H3_2 C7_2 1_555 1_555
C8_2 C6_2 1_555 1_555
C9_3 H4_3 1_555 1_555
C10_2 C3_2 1_555 1_555
C11_2 C10_2 1_555 1_555
H5_2 C11_2 1_555 1_555
C12_3 C11_2 1_555 1_555
C13_3 C12_3 1_555 1_555
O1_2 C1_2 1_555 1_555
O3_2 C8_2 1_555 1_555
O15 C8_2 1_555 1_555
O5 C13_3 1_555 1_555
C14_2 C15_2 1_555 1_555
C15_2 C16_2 1_555 1_555
C16_2 C17_2 1_555 1_555
C17_2 H11_2 1_555 1_555
C18_2 C17_2 1_555 1_555
H12_2 C18_2 1_555 1_555
C19_2 C18_2 1_555 1_555
C20_2 C15_2 1_555 1_555
H13_2 C20_2 1_555 1_555
C21_2 C19_2 1_555 1_555
C22_2 C9_3 1_555 1_555
C23_2 C12_3 1_555 1_555
H14_2 C23_2 1_555 1_555
O11_2 C21_2 1_555 1_555
O16 C21_2 1_555 1_555
O13 C13_3 1_555 1_555
Zn5 O5 1_555 1_555
Zn7 O13 1_555 1_555
C6_2 C7_2 1_555 1_555
C9_3 C10_2 1_555 1_555
C14_2 O9_2 1_555 1_555
C16_2 C22_2 1_555 1_555
C19_2 C20_2 1_555 1_555
C22_2 C23_2 1_555 1_555
H8_3 O6_3 1_555 1_555
Zn5 O2_2 1_555 1_555
O10_2 Zn7 1_555 1_555
O7_2 Zn1_3 1_555 1_555
O8_3 Zn1_3 1_555 1_555
H6_2 O7_2 1_555 1_555
H7_2 O7_2 1_555 1_555
H9_3 O8_3 1_555 1_555
H10_3 O8_3 1_555 1_555
O14_2 Zn1_3 1_555 1_555
H15_2 O14_2 1_555 1_555
H16_2 O14_2 1_555 1_555

#END
