
###############################################################################
#
# This file contains modified crystal structure data generated from the
# MOF subset of the Cambridge Structural Database (CSD) v543 
# hosted by the Cambridge Crystallographic Data Centre (CCDC).
#
# This work is licensed under the Creative Commons
# Attribution-NonCommercial-ShareAlike 4.0 International License.
# To view a copy of this license, visit
# http://creativecommons.org/licenses/by-nc-sa/4.0/
# or send a letter to
# Creative Commons, PO Box 1866, Mountain View, CA 94042, USA.
#
# CIF created using the CSD Python API on 29 September 2022
# The structure has been converted into the P1 space group
# The structure has a 3D framework
# The original CSD entry SAHYOQ is in the cubic crystal system
# The framework has been calculated to contain at least 10.0% void space
# The void calculation uses a probe of radius 1.32A, grid spacing 0.4
#
###############################################################################

data_SAHYOQ
_chemical_formula_moiety         '(C192 H96 O104 Zn32)n'
_symmetry_cell_setting           triclinic
_symmetry_space_group_name_H-M   'P 1'
_symmetry_Int_Tables_number      1
_space_group_name_Hall           'P 1'
loop_
_symmetry_equiv_pos_site_id
_symmetry_equiv_pos_as_xyz
1 x,y,z
_cell_length_a                   25.8849(7)
_cell_length_b                   25.8849(7)
_cell_length_c                   25.8849(7)
_cell_angle_alpha                90
_cell_angle_beta                 90
_cell_angle_gamma                90
_cell_volume                     17343.6
loop_
_atom_site_label
_atom_site_type_symbol
_atom_site_fract_x
_atom_site_fract_y
_atom_site_fract_z
Zn1 Zn 0.293490(9) 0.2065 0.2065
O1 O 0.28070(5) 0.2193 0.13387(6)
O2 O 0.2500 0.2500 0.2500
C1 C 0.2500 0.2500 0.11170(13)
C2 C 0.2500 0.2500 0.05377(12)
C3 C 0.28248(8) 0.2175 0.02645(10)
H1 H 0.3055 0.1945 0.0453
O3 O 0.21930(5) 0.2807 0.13387(6)
Zn2 Zn 0.206510(9) 0.2935 0.2065
O4 O 0.2193 0.36613(6) 0.21930(5)
O5 O 0.2807 0.36613(6) 0.28070(5)
Zn3 Zn 0.2935 0.2935 0.293490(9)
O6 O 0.36613(6) 0.28070(5) 0.2807
C4 C 0.38830(13) 0.2500 0.2500
O7 O 0.36613(6) 0.21930(5) 0.2193
O8 O 0.2807 0.13387(6) 0.21930(5)
C5 C 0.2500 0.11170(13) 0.2500
O9 O 0.2193 0.13387(6) 0.28070(5)
Zn4 Zn 0.2065 0.2065 0.293490(9)
O10 O 0.13387(6) 0.21930(5) 0.2807
O11 O 0.13387(6) 0.28070(5) 0.2193
O12 O 0.21930(5) 0.2193 0.36613(6)
O13 O 0.28070(5) 0.2807 0.36613(6)
C6 C 0.2500 0.05377(12) 0.2500
C7 C 0.44623(12) 0.2500 0.2500
C9 C 0.21752(8) 0.2825 0.02645(10)
H2 H 0.1945 0.3055 0.0453
C11 C 0.2175 0.02645(10) 0.28248(8)
C12 C 0.2825 0.02645(10) 0.21752(8)
C13 C 0.47355(10) 0.28248(8) 0.2825
C14 C 0.47355(10) 0.21752(8) 0.2175
H5 H 0.1945 0.0453 0.3055
H6 H 0.3055 0.0453 0.1945
C18 C 0.52645(10) 0.2825 0.28248(8)
H7 H 0.4547 0.3055 0.3055
C19 C 0.52645(10) 0.2175 0.21752(8)
H8 H 0.4547 0.1945 0.1945
C22 C 0.55377(12) 0.2500 0.2500
H11 H 0.5453 0.3055 0.3055
H12 H 0.5453 0.1945 0.1945
C24 C 0.61170(13) 0.2500 0.2500
O18 O 0.63387(6) 0.2193 0.21930(5)
O19 O 0.63387(6) 0.2807 0.28070(5)
Zn9 Zn 0.706510(9) 0.2065 0.2065
Zn10 Zn 0.706510(9) 0.2935 0.2935
C8 C 0.2825 0.21752(8) 0.97355(10)
C10 C 0.2175 0.28248(8) 0.97355(10)
C15 C 0.2500 0.2500 0.94623(12)
H3 H 0.3055 0.1945 0.9547
H4 H 0.1945 0.3055 0.9547
C20 C 0.2500 0.2500 0.88830(13)
O14 O 0.2193 0.28070(5) 0.86613(6)
O15 O 0.2807 0.21930(5) 0.86613(6)
Zn5 Zn 0.2065 0.293490(9) 0.7935
Zn6 Zn 0.293490(9) 0.2065 0.7935
C16 C 0.21752(8) 0.97355(10) 0.2825
C17 C 0.28248(8) 0.97355(10) 0.2175
C21 C 0.2500 0.94623(12) 0.2500
H9 H 0.1945 0.9547 0.3055
H10 H 0.3055 0.9547 0.1945
C23 C 0.2500 0.88830(13) 0.2500
O16 O 0.28070(5) 0.86613(6) 0.2193
O17 O 0.21930(5) 0.86613(6) 0.2807
Zn7 Zn 0.293490(9) 0.7935 0.2065
Zn8 Zn 0.2065 0.7935 0.293490(9)
C16_2 C 0.02645(10) 0.21752(8) 0.2825
C17_2 C 0.02645(10) 0.28248(8) 0.2175
C21_2 C 0.05377(12) 0.2500 0.2500
H9_2 H 0.0453 0.1945 0.3055
H10_2 H 0.0453 0.3055 0.1945
C23_2 C 0.11170(13) 0.2500 0.2500
Zn1_2 Zn 0.7935 0.293490(9) 0.2065
O1_2 O 0.7807 0.28070(5) 0.13387(6)
O2_2 O 0.7500 0.2500 0.2500
C1_2 C 0.7500 0.2500 0.11170(13)
C2_2 C 0.7500 0.2500 0.05377(12)
C3_2 C 0.7825 0.28248(8) 0.02645(10)
H1_2 H 0.8055 0.3055 0.0453
O3_2 O 0.7193 0.21930(5) 0.13387(6)
O6_2 O 0.71930(5) 0.36613(6) 0.2807
C4_2 C 0.7500 0.38830(13) 0.2500
O7_2 O 0.78070(5) 0.36613(6) 0.2193
O8_2 O 0.86613(6) 0.2807 0.21930(5)
C5_2 C 0.88830(13) 0.2500 0.2500
O9_2 O 0.86613(6) 0.2193 0.28070(5)
Zn4_2 Zn 0.7935 0.2065 0.293490(9)
O10_2 O 0.78070(5) 0.13387(6) 0.2807
O11_2 O 0.71930(5) 0.13387(6) 0.2193
O12_2 O 0.7807 0.21930(5) 0.36613(6)
O13_2 O 0.7193 0.28070(5) 0.36613(6)
C6_2 C 0.94623(12) 0.2500 0.2500
C7_2 C 0.7500 0.44623(12) 0.2500
C9_2 C 0.7175 0.21752(8) 0.02645(10)
H2_2 H 0.6945 0.1945 0.0453
C11_2 C 0.97355(10) 0.2175 0.28248(8)
C12_2 C 0.97355(10) 0.2825 0.21752(8)
C13_2 C 0.71752(8) 0.47355(10) 0.2825
C14_2 C 0.78248(8) 0.47355(10) 0.2175
H5_2 H 0.9547 0.1945 0.3055
H6_2 H 0.9547 0.3055 0.1945
C18_2 C 0.7175 0.52645(10) 0.28248(8)
H7_2 H 0.6945 0.4547 0.3055
C19_2 C 0.7825 0.52645(10) 0.21752(8)
H8_2 H 0.8055 0.4547 0.1945
C22_2 C 0.7500 0.55377(12) 0.2500
H11_2 H 0.6945 0.5453 0.3055
H12_2 H 0.8055 0.5453 0.1945
C24_2 C 0.7500 0.61170(13) 0.2500
O18_2 O 0.7807 0.63387(6) 0.21930(5)
O19_2 O 0.7193 0.63387(6) 0.28070(5)
Zn9_2 Zn 0.7935 0.706510(9) 0.2065
Zn10_2 Zn 0.7065 0.706510(9) 0.2935
C8_2 C 0.78248(8) 0.2825 0.97355(10)
C10_2 C 0.71752(8) 0.2175 0.97355(10)
C15_2 C 0.7500 0.2500 0.94623(12)
H3_2 H 0.8055 0.3055 0.9547
H4_2 H 0.6945 0.1945 0.9547
C20_2 C 0.7500 0.2500 0.88830(13)
O14_2 O 0.71930(5) 0.2193 0.86613(6)
O15_2 O 0.78070(5) 0.2807 0.86613(6)
Zn5_2 Zn 0.706510(9) 0.2065 0.7935
Zn6_2 Zn 0.7935 0.293490(9) 0.7935
C16_3 C 0.21752(8) 0.02645(10) 0.7175
C17_3 C 0.28248(8) 0.02645(10) 0.7825
C21_3 C 0.2500 0.05377(12) 0.7500
H9_3 H 0.1945 0.0453 0.6945
H10_3 H 0.3055 0.0453 0.8055
C23_3 C 0.2500 0.11170(13) 0.7500
O16_2 O 0.28070(5) 0.13387(6) 0.7807
O17_2 O 0.21930(5) 0.13387(6) 0.7193
Zn8_2 Zn 0.2065 0.2065 0.706510(9)
C8_3 C 0.2825 0.78248(8) 0.02645(10)
C10_3 C 0.2175 0.71752(8) 0.02645(10)
C15_3 C 0.2500 0.7500 0.05377(12)
H3_3 H 0.3055 0.8055 0.0453
H4_3 H 0.1945 0.6945 0.0453
C20_3 C 0.2500 0.7500 0.11170(13)
O14_3 O 0.2193 0.71930(5) 0.13387(6)
O15_3 O 0.2807 0.78070(5) 0.13387(6)
Zn5_3 Zn 0.2065 0.706510(9) 0.2065
Zn1_3 Zn 0.293490(9) 0.7935 0.7935
O1_3 O 0.28070(5) 0.7807 0.86613(6)
O2_3 O 0.2500 0.7500 0.7500
C1_3 C 0.2500 0.7500 0.88830(13)
C2_3 C 0.2500 0.7500 0.94623(12)
C3_3 C 0.28248(8) 0.7825 0.97355(10)
H1_3 H 0.3055 0.8055 0.9547
O3_3 O 0.21930(5) 0.7193 0.86613(6)
Zn2_2 Zn 0.206510(9) 0.7065 0.7935
O4_2 O 0.2193 0.63387(6) 0.78070(5)
O5_2 O 0.2807 0.63387(6) 0.71930(5)
Zn3_2 Zn 0.2935 0.7065 0.706510(9)
O6_3 O 0.36613(6) 0.71930(5) 0.7193
C4_3 C 0.38830(13) 0.7500 0.7500
O7_3 O 0.36613(6) 0.78070(5) 0.7807
O8_3 O 0.2807 0.86613(6) 0.78070(5)
C5_3 C 0.2500 0.88830(13) 0.7500
O9_3 O 0.2193 0.86613(6) 0.71930(5)
Zn4_3 Zn 0.2065 0.7935 0.706510(9)
O10_3 O 0.13387(6) 0.78070(5) 0.7193
O11_3 O 0.13387(6) 0.71930(5) 0.7807
O12_3 O 0.21930(5) 0.7807 0.63387(6)
O13_3 O 0.28070(5) 0.7193 0.63387(6)
C6_3 C 0.2500 0.94623(12) 0.7500
C7_3 C 0.44623(12) 0.7500 0.7500
C9_3 C 0.21752(8) 0.7175 0.97355(10)
H2_3 H 0.1945 0.6945 0.9547
C11_3 C 0.2175 0.97355(10) 0.71752(8)
C12_3 C 0.2825 0.97355(10) 0.78248(8)
C13_3 C 0.47355(10) 0.71752(8) 0.7175
C14_3 C 0.47355(10) 0.78248(8) 0.7825
H5_3 H 0.1945 0.9547 0.6945
H6_3 H 0.3055 0.9547 0.8055
C18_3 C 0.52645(10) 0.7175 0.71752(8)
H7_3 H 0.4547 0.6945 0.6945
C19_3 C 0.52645(10) 0.7825 0.78248(8)
H8_3 H 0.4547 0.8055 0.8055
C22_3 C 0.55377(12) 0.7500 0.7500
H11_3 H 0.5453 0.6945 0.6945
H12_3 H 0.5453 0.8055 0.8055
C24_3 C 0.61170(13) 0.7500 0.7500
O18_3 O 0.63387(6) 0.7807 0.78070(5)
O19_3 O 0.63387(6) 0.7193 0.71930(5)
Zn9_3 Zn 0.706510(9) 0.7935 0.7935
Zn10_3 Zn 0.706510(9) 0.7065 0.7065
C4_4 C 0.2500 0.38830(13) 0.2500
C7_4 C 0.2500 0.44623(12) 0.2500
C13_4 C 0.2825 0.47355(10) 0.28248(8)
C14_4 C 0.2175 0.47355(10) 0.21752(8)
C18_4 C 0.28248(8) 0.52645(10) 0.2825
H7_4 H 0.3055 0.4547 0.3055
C19_4 C 0.21752(8) 0.52645(10) 0.2175
H8_4 H 0.1945 0.4547 0.1945
C22_4 C 0.2500 0.55377(12) 0.2500
H11_4 H 0.3055 0.5453 0.3055
H12_4 H 0.1945 0.5453 0.1945
C24_4 C 0.2500 0.61170(13) 0.2500
O18_4 O 0.21930(5) 0.63387(6) 0.2193
O19_4 O 0.28070(5) 0.63387(6) 0.2807
Zn10_4 Zn 0.2935 0.706510(9) 0.2935
C16_4 C 0.78248(8) 0.02645(10) 0.2825
C17_4 C 0.71752(8) 0.02645(10) 0.2175
C21_4 C 0.7500 0.05377(12) 0.2500
H9_4 H 0.8055 0.0453 0.3055
H10_4 H 0.6945 0.0453 0.1945
C23_4 C 0.7500 0.11170(13) 0.2500
Zn1_4 Zn 0.706510(9) 0.7935 0.2065
O1_4 O 0.71930(5) 0.7807 0.13387(6)
O2_4 O 0.7500 0.7500 0.2500
C1_4 C 0.7500 0.7500 0.11170(13)
C2_4 C 0.7500 0.7500 0.05377(12)
C3_4 C 0.71752(8) 0.7825 0.02645(10)
H1_4 H 0.6945 0.8055 0.0453
O3_4 O 0.78070(5) 0.7193 0.13387(6)
O6_4 O 0.63387(6) 0.71930(5) 0.2807
C4_5 C 0.61170(13) 0.7500 0.2500
O7_4 O 0.63387(6) 0.78070(5) 0.2193
O8_4 O 0.7193 0.86613(6) 0.21930(5)
C5_4 C 0.7500 0.88830(13) 0.2500
O9_4 O 0.7807 0.86613(6) 0.28070(5)
Zn4_4 Zn 0.7935 0.7935 0.293490(9)
O10_4 O 0.86613(6) 0.78070(5) 0.2807
O11_4 O 0.86613(6) 0.71930(5) 0.2193
O12_4 O 0.78070(5) 0.7807 0.36613(6)
O13_4 O 0.71930(5) 0.7193 0.36613(6)
C6_4 C 0.7500 0.94623(12) 0.2500
C7_5 C 0.55377(12) 0.7500 0.2500
C9_4 C 0.78248(8) 0.7175 0.02645(10)
H2_4 H 0.8055 0.6945 0.0453
C11_4 C 0.7825 0.97355(10) 0.28248(8)
C12_4 C 0.7175 0.97355(10) 0.21752(8)
C13_5 C 0.52645(10) 0.71752(8) 0.2825
C14_5 C 0.52645(10) 0.78248(8) 0.2175
H5_4 H 0.8055 0.9547 0.3055
H6_4 H 0.6945 0.9547 0.1945
C18_5 C 0.47355(10) 0.7175 0.28248(8)
H7_5 H 0.5453 0.6945 0.3055
C19_5 C 0.47355(10) 0.7825 0.21752(8)
H8_5 H 0.5453 0.8055 0.1945
C22_5 C 0.44623(12) 0.7500 0.2500
H11_5 H 0.4547 0.6945 0.3055
H12_5 H 0.4547 0.8055 0.1945
C24_5 C 0.38830(13) 0.7500 0.2500
O18_5 O 0.36613(6) 0.7807 0.21930(5)
O19_5 O 0.36613(6) 0.7193 0.28070(5)
C8_4 C 0.7175 0.78248(8) 0.97355(10)
C10_4 C 0.7825 0.71752(8) 0.97355(10)
C15_4 C 0.7500 0.7500 0.94623(12)
H3_4 H 0.6945 0.8055 0.9547
H4_4 H 0.8055 0.6945 0.9547
C20_4 C 0.7500 0.7500 0.88830(13)
O14_4 O 0.7807 0.71930(5) 0.86613(6)
O15_4 O 0.7193 0.78070(5) 0.86613(6)
Zn5_4 Zn 0.7935 0.706510(9) 0.7935
O2_5 O 0.2500 0.2500 0.7500
O4_3 O 0.36613(6) 0.2193 0.78070(5)
O5_3 O 0.36613(6) 0.2807 0.71930(5)
Zn3_3 Zn 0.2935 0.2935 0.706510(9)
O6_5 O 0.28070(5) 0.36613(6) 0.7193
C4_6 C 0.2500 0.38830(13) 0.7500
O7_5 O 0.21930(5) 0.36613(6) 0.7807
O8_5 O 0.13387(6) 0.2807 0.78070(5)
C5_5 C 0.11170(13) 0.2500 0.7500
O9_5 O 0.13387(6) 0.2193 0.71930(5)
O12_5 O 0.2193 0.21930(5) 0.63387(6)
O13_5 O 0.2807 0.28070(5) 0.63387(6)
C6_5 C 0.05377(12) 0.2500 0.7500
C7_6 C 0.2500 0.44623(12) 0.7500
C11_5 C 0.02645(10) 0.2175 0.71752(8)
C12_5 C 0.02645(10) 0.2825 0.78248(8)
C13_6 C 0.28248(8) 0.47355(10) 0.7175
C14_6 C 0.21752(8) 0.47355(10) 0.7825
H5_5 H 0.0453 0.1945 0.6945
H6_5 H 0.0453 0.3055 0.8055
C18_6 C 0.2825 0.52645(10) 0.71752(8)
H7_6 H 0.3055 0.4547 0.6945
C19_6 C 0.2175 0.52645(10) 0.78248(8)
H8_6 H 0.1945 0.4547 0.8055
C22_6 C 0.2500 0.55377(12) 0.7500
H11_6 H 0.3055 0.5453 0.6945
H12_6 H 0.1945 0.5453 0.8055
C24_6 C 0.2500 0.61170(13) 0.7500
C16_5 C 0.97355(10) 0.21752(8) 0.7175
C17_5 C 0.97355(10) 0.28248(8) 0.7825
C21_5 C 0.94623(12) 0.2500 0.7500
H9_5 H 0.9547 0.1945 0.6945
H10_5 H 0.9547 0.3055 0.8055
C23_5 C 0.88830(13) 0.2500 0.7500
O16_3 O 0.86613(6) 0.28070(5) 0.7807
O17_3 O 0.86613(6) 0.21930(5) 0.7193
Zn8_3 Zn 0.7935 0.2065 0.706510(9)
O2_6 O 0.2500 0.7500 0.2500
O8_6 O 0.13387(6) 0.7193 0.21930(5)
C5_6 C 0.11170(13) 0.7500 0.2500
O9_6 O 0.13387(6) 0.7807 0.28070(5)
O12_6 O 0.2193 0.78070(5) 0.36613(6)
O13_6 O 0.2807 0.71930(5) 0.36613(6)
C6_6 C 0.05377(12) 0.7500 0.2500
C11_6 C 0.02645(10) 0.7825 0.28248(8)
C12_6 C 0.02645(10) 0.7175 0.21752(8)
H5_6 H 0.0453 0.8055 0.3055
H6_6 H 0.0453 0.6945 0.1945
C16_6 C 0.97355(10) 0.78248(8) 0.2825
C17_6 C 0.97355(10) 0.71752(8) 0.2175
C21_6 C 0.94623(12) 0.7500 0.2500
H9_6 H 0.9547 0.8055 0.3055
H10_6 H 0.9547 0.6945 0.1945
C23_6 C 0.88830(13) 0.7500 0.2500
O2_7 O 0.7500 0.2500 0.7500
O4_4 O 0.7807 0.36613(6) 0.78070(5)
O5_4 O 0.7193 0.36613(6) 0.71930(5)
Zn3_4 Zn 0.7065 0.2935 0.706510(9)
O6_6 O 0.63387(6) 0.28070(5) 0.7193
C4_7 C 0.61170(13) 0.2500 0.7500
O7_6 O 0.63387(6) 0.21930(5) 0.7807
O8_7 O 0.7193 0.13387(6) 0.78070(5)
C5_7 C 0.7500 0.11170(13) 0.7500
O9_7 O 0.7807 0.13387(6) 0.71930(5)
O12_7 O 0.78070(5) 0.2193 0.63387(6)
O13_7 O 0.71930(5) 0.2807 0.63387(6)
C6_7 C 0.7500 0.05377(12) 0.7500
C7_7 C 0.55377(12) 0.2500 0.7500
C11_7 C 0.7825 0.02645(10) 0.71752(8)
C12_7 C 0.7175 0.02645(10) 0.78248(8)
C13_7 C 0.52645(10) 0.28248(8) 0.7175
C14_7 C 0.52645(10) 0.21752(8) 0.7825
H5_7 H 0.8055 0.0453 0.6945
H6_7 H 0.6945 0.0453 0.8055
C18_7 C 0.47355(10) 0.2825 0.71752(8)
H7_7 H 0.5453 0.3055 0.6945
C19_7 C 0.47355(10) 0.2175 0.78248(8)
H8_7 H 0.5453 0.1945 0.8055
C22_7 C 0.44623(12) 0.2500 0.7500
H11_7 H 0.4547 0.3055 0.6945
H12_7 H 0.4547 0.1945 0.8055
C24_7 C 0.38830(13) 0.2500 0.7500
C16_7 C 0.78248(8) 0.97355(10) 0.7175
C17_7 C 0.71752(8) 0.97355(10) 0.7825
C21_7 C 0.7500 0.94623(12) 0.7500
H9_7 H 0.8055 0.9547 0.6945
H10_7 H 0.6945 0.9547 0.8055
C23_7 C 0.7500 0.88830(13) 0.7500
O16_4 O 0.71930(5) 0.86613(6) 0.7807
O17_4 O 0.78070(5) 0.86613(6) 0.7193
Zn8_4 Zn 0.7935 0.7935 0.706510(9)
C16_8 C 0.02645(10) 0.78248(8) 0.7175
C17_8 C 0.02645(10) 0.71752(8) 0.7825
C21_8 C 0.05377(12) 0.7500 0.7500
H9_8 H 0.0453 0.8055 0.6945
H10_8 H 0.0453 0.6945 0.8055
C23_8 C 0.11170(13) 0.7500 0.7500
O2_8 O 0.7500 0.7500 0.7500
O6_7 O 0.71930(5) 0.63387(6) 0.7193
C4_8 C 0.7500 0.61170(13) 0.7500
O7_7 O 0.78070(5) 0.63387(6) 0.7807
O8_8 O 0.86613(6) 0.7193 0.78070(5)
C5_8 C 0.88830(13) 0.7500 0.7500
O9_8 O 0.86613(6) 0.7807 0.71930(5)
O12_8 O 0.7807 0.78070(5) 0.63387(6)
O13_8 O 0.7193 0.71930(5) 0.63387(6)
C6_8 C 0.94623(12) 0.7500 0.7500
C7_8 C 0.7500 0.55377(12) 0.7500
C11_8 C 0.97355(10) 0.7825 0.71752(8)
C12_8 C 0.97355(10) 0.7175 0.78248(8)
C13_8 C 0.71752(8) 0.52645(10) 0.7175
C14_8 C 0.78248(8) 0.52645(10) 0.7825
H5_8 H 0.9547 0.8055 0.6945
H6_8 H 0.9547 0.6945 0.8055
C18_8 C 0.7175 0.47355(10) 0.71752(8)
H7_8 H 0.6945 0.5453 0.6945
C19_8 C 0.7825 0.47355(10) 0.78248(8)
H8_8 H 0.8055 0.5453 0.8055
C22_8 C 0.7500 0.44623(12) 0.7500
H11_8 H 0.6945 0.4547 0.6945
H12_8 H 0.8055 0.4547 0.8055
C24_8 C 0.7500 0.38830(13) 0.7500
C4_9 C 0.2500 0.2500 0.38830(13)
C7_9 C 0.2500 0.2500 0.44623(12)
C13_9 C 0.28248(8) 0.2825 0.47355(10)
C14_9 C 0.21752(8) 0.2175 0.47355(10)
C18_9 C 0.2825 0.28248(8) 0.52645(10)
H7_9 H 0.3055 0.3055 0.4547
C19_9 C 0.2175 0.21752(8) 0.52645(10)
H8_9 H 0.1945 0.1945 0.4547
C22_9 C 0.2500 0.2500 0.55377(12)
H11_9 H 0.3055 0.3055 0.5453
H12_9 H 0.1945 0.1945 0.5453
C24_9 C 0.2500 0.2500 0.61170(13)
C4_10 C 0.2500 0.7500 0.38830(13)
C7_10 C 0.2500 0.7500 0.44623(12)
C13_10 C 0.2825 0.71752(8) 0.47355(10)
C14_10 C 0.2175 0.78248(8) 0.47355(10)
C18_10 C 0.28248(8) 0.7175 0.52645(10)
H7_10 H 0.3055 0.6945 0.4547
C19_10 C 0.21752(8) 0.7825 0.52645(10)
H8_10 H 0.1945 0.8055 0.4547
C22_10 C 0.2500 0.7500 0.55377(12)
H11_10 H 0.3055 0.6945 0.5453
H12_10 H 0.1945 0.8055 0.5453
C24_10 C 0.2500 0.7500 0.61170(13)
C4_11 C 0.7500 0.2500 0.38830(13)
C7_11 C 0.7500 0.2500 0.44623(12)
C13_11 C 0.7175 0.28248(8) 0.47355(10)
C14_11 C 0.7825 0.21752(8) 0.47355(10)
C18_11 C 0.71752(8) 0.2825 0.52645(10)
H7_11 H 0.6945 0.3055 0.4547
C19_11 C 0.78248(8) 0.2175 0.52645(10)
H8_11 H 0.8055 0.1945 0.4547
C22_11 C 0.7500 0.2500 0.55377(12)
H11_11 H 0.6945 0.3055 0.5453
H12_11 H 0.8055 0.1945 0.5453
C24_11 C 0.7500 0.2500 0.61170(13)
C4_12 C 0.7500 0.7500 0.61170(13)
C7_12 C 0.7500 0.7500 0.55377(12)
C13_12 C 0.7175 0.71752(8) 0.52645(10)
C14_12 C 0.7825 0.78248(8) 0.52645(10)
C18_12 C 0.71752(8) 0.7175 0.47355(10)
H7_12 H 0.6945 0.6945 0.5453
C19_12 C 0.78248(8) 0.7825 0.47355(10)
H8_12 H 0.8055 0.8055 0.5453
C22_12 C 0.7500 0.7500 0.44623(12)
H11_12 H 0.6945 0.6945 0.4547
H12_12 H 0.8055 0.8055 0.4547
C24_12 C 0.7500 0.7500 0.38830(13)
loop_
_geom_bond_atom_site_label_1
_geom_bond_atom_site_label_2
_geom_bond_site_symmetry_1
_geom_bond_site_symmetry_2
Zn1 O1 1_555 1_555
O1 C1 1_555 1_555
O2 Zn1 1_555 1_555
C1 C2 1_555 1_555
C2 C3 1_555 1_555
C3 H1 1_555 1_555
O3 C1 1_555 1_555
Zn2 O2 1_555 1_555
O4 Zn2 1_555 1_555
O5 Zn3 1_555 1_555
Zn3 O2 1_555 1_555
O6 Zn3 1_555 1_555
C4 O6 1_555 1_555
O7 Zn1 1_555 1_555
O8 Zn1 1_555 1_555
C5 O8 1_555 1_555
O9 C5 1_555 1_555
Zn4 O2 1_555 1_555
O10 Zn4 1_555 1_555
O11 Zn2 1_555 1_555
O12 Zn4 1_555 1_555
O13 Zn3 1_555 1_555
C6 C5 1_555 1_555
C7 C4 1_555 1_555
C9 C2 1_555 1_555
H2 C9 1_555 1_555
C11 C6 1_555 1_555
C12 C6 1_555 1_555
C13 C7 1_555 1_555
C14 C7 1_555 1_555
H5 C11 1_555 1_555
H6 C12 1_555 1_555
C18 C13 1_555 1_555
H7 C13 1_555 1_555
C19 C14 1_555 1_555
H8 C14 1_555 1_555
C22 C18 1_555 1_555
H11 C18 1_555 1_555
H12 C19 1_555 1_555
C24 C22 1_555 1_555
O18 C24 1_555 1_555
O19 C24 1_555 1_555
Zn9 O18 1_555 1_555
Zn10 O19 1_555 1_555
O3 Zn2 1_555 1_555
C4 O7 1_555 1_555
O9 Zn4 1_555 1_555
C19 C22 1_555 1_555
C15 C8 1_555 1_555
H3 C8 1_555 1_555
H4 C10 1_555 1_555
C20 C15 1_555 1_555
O14 C20 1_555 1_555
O15 C20 1_555 1_555
Zn5 O14 1_555 1_555
Zn6 O15 1_555 1_555
C10 C15 1_555 1_555
C21 C16 1_555 1_555
H9 C16 1_555 1_555
H10 C17 1_555 1_555
C23 C21 1_555 1_555
O16 C23 1_555 1_555
O17 C23 1_555 1_555
Zn7 O16 1_555 1_555
Zn8 O17 1_555 1_555
C17 C21 1_555 1_555
C21_2 C16_2 1_555 1_555
H9_2 C16_2 1_555 1_555
H10_2 C17_2 1_555 1_555
C23_2 C21_2 1_555 1_555
O11 C23_2 1_555 1_555
O10 C23_2 1_555 1_555
C17_2 C21_2 1_555 1_555
Zn1_2 O1_2 1_555 1_555
O1_2 C1_2 1_555 1_555
O2_2 Zn1_2 1_555 1_555
C1_2 C2_2 1_555 1_555
C2_2 C3_2 1_555 1_555
C3_2 H1_2 1_555 1_555
O3_2 C1_2 1_555 1_555
Zn9 O2_2 1_555 1_555
Zn10 O2_2 1_555 1_555
O6_2 Zn10 1_555 1_555
C4_2 O6_2 1_555 1_555
O7_2 Zn1_2 1_555 1_555
O8_2 Zn1_2 1_555 1_555
C5_2 O8_2 1_555 1_555
O9_2 C5_2 1_555 1_555
Zn4_2 O2_2 1_555 1_555
O10_2 Zn4_2 1_555 1_555
O11_2 Zn9 1_555 1_555
O12_2 Zn4_2 1_555 1_555
O13_2 Zn10 1_555 1_555
C6_2 C5_2 1_555 1_555
C7_2 C4_2 1_555 1_555
C9_2 C2_2 1_555 1_555
H2_2 C9_2 1_555 1_555
C11_2 C6_2 1_555 1_555
C12_2 C6_2 1_555 1_555
C13_2 C7_2 1_555 1_555
C14_2 C7_2 1_555 1_555
H5_2 C11_2 1_555 1_555
H6_2 C12_2 1_555 1_555
C18_2 C13_2 1_555 1_555
H7_2 C13_2 1_555 1_555
C19_2 C14_2 1_555 1_555
H8_2 C14_2 1_555 1_555
C22_2 C18_2 1_555 1_555
H11_2 C18_2 1_555 1_555
H12_2 C19_2 1_555 1_555
C24_2 C22_2 1_555 1_555
O18_2 C24_2 1_555 1_555
O19_2 C24_2 1_555 1_555
Zn9_2 O18_2 1_555 1_555
Zn10_2 O19_2 1_555 1_555
O3_2 Zn9 1_555 1_555
C4_2 O7_2 1_555 1_555
O9_2 Zn4_2 1_555 1_555
C19_2 C22_2 1_555 1_555
C15_2 C8_2 1_555 1_555
H3_2 C8_2 1_555 1_555
H4_2 C10_2 1_555 1_555
C20_2 C15_2 1_555 1_555
O14_2 C20_2 1_555 1_555
O15_2 C20_2 1_555 1_555
Zn5_2 O14_2 1_555 1_555
Zn6_2 O15_2 1_555 1_555
C10_2 C15_2 1_555 1_555
C21_3 C16_3 1_555 1_555
H9_3 C16_3 1_555 1_555
H10_3 C17_3 1_555 1_555
C23_3 C21_3 1_555 1_555
O16_2 C23_3 1_555 1_555
O17_2 C23_3 1_555 1_555
Zn6 O16_2 1_555 1_555
Zn8_2 O17_2 1_555 1_555
C17_3 C21_3 1_555 1_555
C15_3 C8_3 1_555 1_555
H3_3 C8_3 1_555 1_555
H4_3 C10_3 1_555 1_555
C20_3 C15_3 1_555 1_555
O14_3 C20_3 1_555 1_555
O15_3 C20_3 1_555 1_555
Zn5_3 O14_3 1_555 1_555
Zn7 O15_3 1_555 1_555
C10_3 C15_3 1_555 1_555
Zn1_3 O1_3 1_555 1_555
O1_3 C1_3 1_555 1_555
O2_3 Zn1_3 1_555 1_555
C1_3 C2_3 1_555 1_555
C2_3 C3_3 1_555 1_555
C3_3 H1_3 1_555 1_555
O3_3 C1_3 1_555 1_555
Zn2_2 O2_3 1_555 1_555
O4_2 Zn2_2 1_555 1_555
O5_2 Zn3_2 1_555 1_555
Zn3_2 O2_3 1_555 1_555
O6_3 Zn3_2 1_555 1_555
C4_3 O6_3 1_555 1_555
O7_3 Zn1_3 1_555 1_555
O8_3 Zn1_3 1_555 1_555
C5_3 O8_3 1_555 1_555
O9_3 C5_3 1_555 1_555
Zn4_3 O2_3 1_555 1_555
O10_3 Zn4_3 1_555 1_555
O11_3 Zn2_2 1_555 1_555
O12_3 Zn4_3 1_555 1_555
O13_3 Zn3_2 1_555 1_555
C6_3 C5_3 1_555 1_555
C7_3 C4_3 1_555 1_555
C9_3 C2_3 1_555 1_555
H2_3 C9_3 1_555 1_555
C11_3 C6_3 1_555 1_555
C12_3 C6_3 1_555 1_555
C13_3 C7_3 1_555 1_555
C14_3 C7_3 1_555 1_555
H5_3 C11_3 1_555 1_555
H6_3 C12_3 1_555 1_555
C18_3 C13_3 1_555 1_555
H7_3 C13_3 1_555 1_555
C19_3 C14_3 1_555 1_555
H8_3 C14_3 1_555 1_555
C22_3 C18_3 1_555 1_555
H11_3 C18_3 1_555 1_555
H12_3 C19_3 1_555 1_555
C24_3 C22_3 1_555 1_555
O18_3 C24_3 1_555 1_555
O19_3 C24_3 1_555 1_555
Zn9_3 O18_3 1_555 1_555
Zn10_3 O19_3 1_555 1_555
O3_3 Zn2_2 1_555 1_555
C4_3 O7_3 1_555 1_555
O9_3 Zn4_3 1_555 1_555
C19_3 C22_3 1_555 1_555
C4_4 O5 1_555 1_555
C7_4 C4_4 1_555 1_555
C13_4 C7_4 1_555 1_555
C14_4 C7_4 1_555 1_555
C18_4 C13_4 1_555 1_555
H7_4 C13_4 1_555 1_555
C19_4 C14_4 1_555 1_555
H8_4 C14_4 1_555 1_555
C22_4 C18_4 1_555 1_555
H11_4 C18_4 1_555 1_555
H12_4 C19_4 1_555 1_555
C24_4 C22_4 1_555 1_555
O18_4 C24_4 1_555 1_555
O19_4 C24_4 1_555 1_555
Zn5_3 O18_4 1_555 1_555
Zn10_4 O19_4 1_555 1_555
C4_4 O4 1_555 1_555
C19_4 C22_4 1_555 1_555
C21_4 C16_4 1_555 1_555
H9_4 C16_4 1_555 1_555
H10_4 C17_4 1_555 1_555
C23_4 C21_4 1_555 1_555
O11_2 C23_4 1_555 1_555
O10_2 C23_4 1_555 1_555
C17_4 C21_4 1_555 1_555
Zn1_4 O1_4 1_555 1_555
O1_4 C1_4 1_555 1_555
O2_4 Zn1_4 1_555 1_555
C1_4 C2_4 1_555 1_555
C2_4 C3_4 1_555 1_555
C3_4 H1_4 1_555 1_555
O3_4 C1_4 1_555 1_555
Zn9_2 O2_4 1_555 1_555
Zn10_2 O2_4 1_555 1_555
O6_4 Zn10_2 1_555 1_555
C4_5 O6_4 1_555 1_555
O7_4 Zn1_4 1_555 1_555
O8_4 Zn1_4 1_555 1_555
C5_4 O8_4 1_555 1_555
O9_4 C5_4 1_555 1_555
Zn4_4 O2_4 1_555 1_555
O10_4 Zn4_4 1_555 1_555
O11_4 Zn9_2 1_555 1_555
O12_4 Zn4_4 1_555 1_555
O13_4 Zn10_2 1_555 1_555
C6_4 C5_4 1_555 1_555
C7_5 C4_5 1_555 1_555
C9_4 C2_4 1_555 1_555
H2_4 C9_4 1_555 1_555
C11_4 C6_4 1_555 1_555
C12_4 C6_4 1_555 1_555
C13_5 C7_5 1_555 1_555
C14_5 C7_5 1_555 1_555
H5_4 C11_4 1_555 1_555
H6_4 C12_4 1_555 1_555
C18_5 C13_5 1_555 1_555
H7_5 C13_5 1_555 1_555
C19_5 C14_5 1_555 1_555
H8_5 C14_5 1_555 1_555
C22_5 C18_5 1_555 1_555
H11_5 C18_5 1_555 1_555
H12_5 C19_5 1_555 1_555
C24_5 C22_5 1_555 1_555
O18_5 C24_5 1_555 1_555
O19_5 C24_5 1_555 1_555
Zn7 O18_5 1_555 1_555
Zn10_4 O19_5 1_555 1_555
O3_4 Zn9_2 1_555 1_555
C4_5 O7_4 1_555 1_555
O9_4 Zn4_4 1_555 1_555
C19_5 C22_5 1_555 1_555
C15_4 C8_4 1_555 1_555
H3_4 C8_4 1_555 1_555
H4_4 C10_4 1_555 1_555
C20_4 C15_4 1_555 1_555
O14_4 C20_4 1_555 1_555
O15_4 C20_4 1_555 1_555
Zn5_4 O14_4 1_555 1_555
Zn9_3 O15_4 1_555 1_555
C10_4 C15_4 1_555 1_555
O2_5 Zn5 1_555 1_555
Zn6 O2_5 1_555 1_555
O4_3 Zn6 1_555 1_555
O5_3 Zn3_3 1_555 1_555
Zn3_3 O2_5 1_555 1_555
O6_5 Zn3_3 1_555 1_555
C4_6 O6_5 1_555 1_555
O7_5 Zn5 1_555 1_555
O8_5 Zn5 1_555 1_555
C5_5 O8_5 1_555 1_555
O9_5 C5_5 1_555 1_555
Zn8_2 O2_5 1_555 1_555
O12_5 Zn8_2 1_555 1_555
O13_5 Zn3_3 1_555 1_555
C6_5 C5_5 1_555 1_555
C7_6 C4_6 1_555 1_555
C11_5 C6_5 1_555 1_555
C12_5 C6_5 1_555 1_555
C13_6 C7_6 1_555 1_555
C14_6 C7_6 1_555 1_555
H5_5 C11_5 1_555 1_555
H6_5 C12_5 1_555 1_555
C18_6 C13_6 1_555 1_555
H7_6 C13_6 1_555 1_555
C19_6 C14_6 1_555 1_555
H8_6 C14_6 1_555 1_555
C22_6 C18_6 1_555 1_555
H11_6 C18_6 1_555 1_555
H12_6 C19_6 1_555 1_555
C24_6 C22_6 1_555 1_555
O4_2 C24_6 1_555 1_555
O5_2 C24_6 1_555 1_555
C4_6 O7_5 1_555 1_555
O9_5 Zn8_2 1_555 1_555
C19_6 C22_6 1_555 1_555
C21_5 C16_5 1_555 1_555
H9_5 C16_5 1_555 1_555
H10_5 C17_5 1_555 1_555
C23_5 C21_5 1_555 1_555
O16_3 C23_5 1_555 1_555
O17_3 C23_5 1_555 1_555
Zn6_2 O16_3 1_555 1_555
Zn8_3 O17_3 1_555 1_555
C17_5 C21_5 1_555 1_555
O2_6 Zn5_3 1_555 1_555
Zn7 O2_6 1_555 1_555
Zn10_4 O2_6 1_555 1_555
O8_6 Zn5_3 1_555 1_555
C5_6 O8_6 1_555 1_555
O9_6 C5_6 1_555 1_555
Zn8 O2_6 1_555 1_555
O12_6 Zn8 1_555 1_555
O13_6 Zn10_4 1_555 1_555
C6_6 C5_6 1_555 1_555
C11_6 C6_6 1_555 1_555
C12_6 C6_6 1_555 1_555
H5_6 C11_6 1_555 1_555
H6_6 C12_6 1_555 1_555
O9_6 Zn8 1_555 1_555
C21_6 C16_6 1_555 1_555
H9_6 C16_6 1_555 1_555
H10_6 C17_6 1_555 1_555
C23_6 C21_6 1_555 1_555
O11_4 C23_6 1_555 1_555
O10_4 C23_6 1_555 1_555
C17_6 C21_6 1_555 1_555
O2_7 Zn5_2 1_555 1_555
Zn6_2 O2_7 1_555 1_555
O4_4 Zn6_2 1_555 1_555
O5_4 Zn3_4 1_555 1_555
Zn3_4 O2_7 1_555 1_555
O6_6 Zn3_4 1_555 1_555
C4_7 O6_6 1_555 1_555
O7_6 Zn5_2 1_555 1_555
O8_7 Zn5_2 1_555 1_555
C5_7 O8_7 1_555 1_555
O9_7 C5_7 1_555 1_555
Zn8_3 O2_7 1_555 1_555
O12_7 Zn8_3 1_555 1_555
O13_7 Zn3_4 1_555 1_555
C6_7 C5_7 1_555 1_555
C7_7 C4_7 1_555 1_555
C11_7 C6_7 1_555 1_555
C12_7 C6_7 1_555 1_555
C13_7 C7_7 1_555 1_555
C14_7 C7_7 1_555 1_555
H5_7 C11_7 1_555 1_555
H6_7 C12_7 1_555 1_555
C18_7 C13_7 1_555 1_555
H7_7 C13_7 1_555 1_555
C19_7 C14_7 1_555 1_555
H8_7 C14_7 1_555 1_555
C22_7 C18_7 1_555 1_555
H11_7 C18_7 1_555 1_555
H12_7 C19_7 1_555 1_555
C24_7 C22_7 1_555 1_555
O4_3 C24_7 1_555 1_555
O5_3 C24_7 1_555 1_555
C4_7 O7_6 1_555 1_555
O9_7 Zn8_3 1_555 1_555
C19_7 C22_7 1_555 1_555
C21_7 C16_7 1_555 1_555
H9_7 C16_7 1_555 1_555
H10_7 C17_7 1_555 1_555
C23_7 C21_7 1_555 1_555
O16_4 C23_7 1_555 1_555
O17_4 C23_7 1_555 1_555
Zn9_3 O16_4 1_555 1_555
Zn8_4 O17_4 1_555 1_555
C17_7 C21_7 1_555 1_555
C21_8 C16_8 1_555 1_555
H9_8 C16_8 1_555 1_555
H10_8 C17_8 1_555 1_555
C23_8 C21_8 1_555 1_555
O11_3 C23_8 1_555 1_555
O10_3 C23_8 1_555 1_555
C17_8 C21_8 1_555 1_555
O2_8 Zn5_4 1_555 1_555
Zn9_3 O2_8 1_555 1_555
Zn10_3 O2_8 1_555 1_555
O6_7 Zn10_3 1_555 1_555
C4_8 O6_7 1_555 1_555
O7_7 Zn5_4 1_555 1_555
O8_8 Zn5_4 1_555 1_555
C5_8 O8_8 1_555 1_555
O9_8 C5_8 1_555 1_555
Zn8_4 O2_8 1_555 1_555
O12_8 Zn8_4 1_555 1_555
O13_8 Zn10_3 1_555 1_555
C6_8 C5_8 1_555 1_555
C7_8 C4_8 1_555 1_555
C11_8 C6_8 1_555 1_555
C12_8 C6_8 1_555 1_555
C13_8 C7_8 1_555 1_555
C14_8 C7_8 1_555 1_555
H5_8 C11_8 1_555 1_555
H6_8 C12_8 1_555 1_555
C18_8 C13_8 1_555 1_555
H7_8 C13_8 1_555 1_555
C19_8 C14_8 1_555 1_555
H8_8 C14_8 1_555 1_555
C22_8 C18_8 1_555 1_555
H11_8 C18_8 1_555 1_555
H12_8 C19_8 1_555 1_555
C24_8 C22_8 1_555 1_555
O4_4 C24_8 1_555 1_555
O5_4 C24_8 1_555 1_555
C4_8 O7_7 1_555 1_555
O9_8 Zn8_4 1_555 1_555
C19_8 C22_8 1_555 1_555
C4_9 O13 1_555 1_555
C7_9 C4_9 1_555 1_555
C13_9 C7_9 1_555 1_555
C14_9 C7_9 1_555 1_555
C18_9 C13_9 1_555 1_555
H7_9 C13_9 1_555 1_555
C19_9 C14_9 1_555 1_555
H8_9 C14_9 1_555 1_555
C22_9 C18_9 1_555 1_555
H11_9 C18_9 1_555 1_555
H12_9 C19_9 1_555 1_555
C24_9 C22_9 1_555 1_555
O12_5 C24_9 1_555 1_555
O13_5 C24_9 1_555 1_555
C4_9 O12 1_555 1_555
C19_9 C22_9 1_555 1_555
C4_10 O13_6 1_555 1_555
C7_10 C4_10 1_555 1_555
C13_10 C7_10 1_555 1_555
C14_10 C7_10 1_555 1_555
C18_10 C13_10 1_555 1_555
H7_10 C13_10 1_555 1_555
C19_10 C14_10 1_555 1_555
H8_10 C14_10 1_555 1_555
C22_10 C18_10 1_555 1_555
H11_10 C18_10 1_555 1_555
H12_10 C19_10 1_555 1_555
C24_10 C22_10 1_555 1_555
O12_3 C24_10 1_555 1_555
O13_3 C24_10 1_555 1_555
C4_10 O12_6 1_555 1_555
C19_10 C22_10 1_555 1_555
C4_11 O13_2 1_555 1_555
C7_11 C4_11 1_555 1_555
C13_11 C7_11 1_555 1_555
C14_11 C7_11 1_555 1_555
C18_11 C13_11 1_555 1_555
H7_11 C13_11 1_555 1_555
C19_11 C14_11 1_555 1_555
H8_11 C14_11 1_555 1_555
C22_11 C18_11 1_555 1_555
H11_11 C18_11 1_555 1_555
H12_11 C19_11 1_555 1_555
C24_11 C22_11 1_555 1_555
O12_7 C24_11 1_555 1_555
O13_7 C24_11 1_555 1_555
C4_11 O12_2 1_555 1_555
C19_11 C22_11 1_555 1_555
C4_12 O13_8 1_555 1_555
C7_12 C4_12 1_555 1_555
C13_12 C7_12 1_555 1_555
C14_12 C7_12 1_555 1_555
C18_12 C13_12 1_555 1_555
H7_12 C13_12 1_555 1_555
C19_12 C14_12 1_555 1_555
H8_12 C14_12 1_555 1_555
C22_12 C18_12 1_555 1_555
H11_12 C18_12 1_555 1_555
H12_12 C19_12 1_555 1_555
C24_12 C22_12 1_555 1_555
O12_4 C24_12 1_555 1_555
O13_4 C24_12 1_555 1_555
C4_12 O12_8 1_555 1_555
C19_12 C22_12 1_555 1_555

#END
