
###############################################################################
#
# This file contains modified crystal structure data generated from the
# MOF subset of the Cambridge Structural Database (CSD) v543 
# hosted by the Cambridge Crystallographic Data Centre (CCDC).
#
# This work is licensed under the Creative Commons
# Attribution-NonCommercial-ShareAlike 4.0 International License.
# To view a copy of this license, visit
# http://creativecommons.org/licenses/by-nc-sa/4.0/
# or send a letter to
# Creative Commons, PO Box 1866, Mountain View, CA 94042, USA.
#
# CIF created using the CSD Python API on 29 September 2022
# The structure has been converted into the P1 space group
# The structure has a 3D framework
# The original CSD entry SAHYAD03 is in the tetragonal crystal system
# The original CSD entry SAHYAD03 is in a Sohncke space group
# The framework has been calculated to contain at least 10.0% void space
# The void calculation uses a probe of radius 1.32A, grid spacing 0.4
# The framework is charged, counterions have been retained in the structure
#
###############################################################################

data_SAHYAD03
_chemical_formula_moiety         '(C192 H144 Cd5 Cl5 N48 O16 6+)n'
_symmetry_cell_setting           triclinic
_symmetry_space_group_name_H-M   'P 1'
_symmetry_Int_Tables_number      1
_space_group_name_Hall           'P 1'
loop_
_symmetry_equiv_pos_site_id
_symmetry_equiv_pos_as_xyz
1 x,y,z
_cell_length_a                   15.8633(10)
_cell_length_b                   15.8633(10)
_cell_length_c                   21.586(3)
_cell_angle_alpha                90
_cell_angle_beta                 90
_cell_angle_gamma                90
_cell_volume                     5431.99
loop_
_atom_site_label
_atom_site_type_symbol
_atom_site_fract_x
_atom_site_fract_y
_atom_site_fract_z
H7 H 0.0070 0.2031 0.0425
C13 C 0.0908(3) 0.0761(3) 0.8680(2)
C14 C 0.1612(3) 0.0675(4) 0.8235(2)
C17 C 0.2916(4) 0.0446(4) 0.7411(3)
H11 H 0.3363 0.0364 0.7125
C18 C 0.2907(4) 0.1165(4) 0.7774(3)
C19 C 0.2248(4) 0.1264(4) 0.8193(3)
H12 H 0.2237 0.1746 0.8454
C20 C 0.3575(4) 0.1820(4) 0.7719(3)
C21 C 0.4052(4) 0.1912(4) 0.7183(3)
H13 H 0.3988 0.1523 0.6852
C22 C 0.4617(4) 0.2567(4) 0.7131(3)
H14 H 0.4931 0.2618 0.6758
C23 C 0.4310(4) 0.3035(4) 0.8103(3)
H15 H 0.4400 0.3424 0.8430
C24 C 0.3735(4) 0.2395(4) 0.8194(3)
H16 H 0.3449 0.2346 0.8579
N3 N 0.0542(3) 0.0117(3) 0.8955(2)
N4 N 0.0560(3) 0.1491(3) 0.8888(2)
N5 N 0.0744(4) 0.2309(3) 0.8683(3)
H17 H 0.0290 0.2575 0.8554
H18 H 0.0865 0.2599 0.9022
N6 N 0.4746(3) 0.3137(3) 0.7579(2)
Cd3 Cd 0.55905(2) 0.44095(2) 0.7500
Cd4 Cd 0.05905(2) 0.05905(2) 0.5000
C1 C 0.6398(4) 0.4127(4) 0.8910(3)
H1 H 0.6104 0.4626 0.9020
C2 C 0.7014(4) 0.3838(4) 0.9308(3)
H2 H 0.7141 0.4141 0.9676
C3 C 0.7449(4) 0.3098(4) 0.9169(3)
C4 C 0.7166(4) 0.2658(4) 0.8644(3)
H3 H 0.7394 0.2119 0.8550
C5 C 0.6567(4) 0.3002(4) 0.8268(3)
H4 H 0.6408 0.2696 0.7908
C6 C 0.8172(4) 0.2790(4) 0.9538(3)
C10 C 0.9400(4) 0.1896(3) 0.9614(2)
C11 C 0.8711(4) 0.2185(4) 0.9287(3)
H8 H 0.8602 0.1968 0.8885
C12 C 0.9962(3) 0.1273(4) 0.9306(2)
N1 N 0.6188(3) 0.3743(3) 0.8375(2)
N2 N 0.9936(3) 0.0441(3) 0.9345(2)
C25 C 0.5873(4) 0.3602(4) 0.6090(3)
H19 H 0.5374 0.3896 0.5980
C26 C 0.6162(4) 0.2986(4) 0.5692(3)
H20 H 0.5859 0.2859 0.5324
C27 C 0.6902(4) 0.2551(4) 0.5831(3)
C28 C 0.7342(4) 0.2834(4) 0.6356(3)
H21 H 0.7881 0.2606 0.6450
C29 C 0.6998(4) 0.3433(4) 0.6732(3)
H22 H 0.7304 0.3592 0.7092
C30 C 0.7210(4) 0.1828(4) 0.5462(3)
C31 C 0.6904(4) 0.1645(4) 0.4867(3)
H23 H 0.6491 0.2000 0.4685
C32 C 0.7193(4) 0.0962(4) 0.4548(3)
H24 H 0.6982 0.0859 0.4143
C33 C 0.7786(4) 0.0414(4) 0.4797(3)
C34 C 0.8104(3) 0.0600(4) 0.5386(2)
C35 C 0.7815(4) 0.1289(4) 0.5713(3)
H26 H 0.8032 0.1398 0.6115
C36 C 0.8727(4) 0.0038(3) 0.5694(2)
N7 N 0.6257(3) 0.3812(3) 0.6625(2)
N8 N 0.9559(3) 0.0064(3) 0.5655(2)
N9 N 0.4559(3) 0.4936(3) 0.6845(2)
N10 N 0.5064(3) 0.5441(3) 0.8155(2)
N16 N 0.6863(3) 0.5254(3) 0.7421(2)
Cd2 Cd 0.94095(2) 0.94095(2) 0.0000
H25 H 0.7969 0.9930 0.4575
C37 C 0.9239(3) 0.9092(3) 0.6320(2)
C38 C 0.9325(4) 0.8388(3) 0.6765(2)
C41 C 0.9554(4) 0.7084(4) 0.7589(3)
H29 H 0.9636 0.6637 0.7875
C42 C 0.8835(4) 0.7093(4) 0.7226(3)
C43 C 0.8736(4) 0.7752(4) 0.6807(3)
H30 H 0.8254 0.7763 0.6546
C44 C 0.8180(4) 0.6425(4) 0.7281(3)
C45 C 0.8088(4) 0.5948(4) 0.7817(3)
H31 H 0.8477 0.6012 0.8148
C46 C 0.7433(4) 0.5383(4) 0.7869(3)
H32 H 0.7382 0.5069 0.8242
C47 C 0.6965(4) 0.5690(4) 0.6897(3)
H33 H 0.6576 0.5600 0.6570
C48 C 0.7605(4) 0.6265(4) 0.6806(3)
H34 H 0.7654 0.6551 0.6421
Cd2_2 Cd 0.94095(2) 0.94095(2) 1.0000
N11 N 0.9883(3) 0.9458(3) 0.6045(2)
N12 N 0.8509(3) 0.9440(3) 0.6112(2)
N13 N 0.7691(3) 0.9256(4) 0.6317(3)
H35 H 0.7425 0.9710 0.6446
H36 H 0.7401 0.9135 0.5978
C37_2 C 0.0761(3) 0.0908(3) 0.1320(2)
C38_2 C 0.0675(4) 0.1612(3) 0.1765(2)
C41_2 C 0.0446(4) 0.2916(4) 0.2589(3)
H29_2 H 0.0364 0.3363 0.2875
C42_2 C 0.1165(4) 0.2907(4) 0.2226(3)
C43_2 C 0.1264(4) 0.2248(4) 0.1807(3)
H30_2 H 0.1746 0.2237 0.1546
C44_2 C 0.1820(4) 0.3575(4) 0.2281(3)
C45_2 C 0.1912(4) 0.4052(4) 0.2817(3)
H31_2 H 0.1523 0.3988 0.3148
C46_2 C 0.2567(4) 0.4617(4) 0.2869(3)
H32_2 H 0.2618 0.4931 0.3242
C47_2 C 0.3035(4) 0.4310(4) 0.1897(3)
H33_2 H 0.3424 0.4400 0.1570
C48_2 C 0.2395(4) 0.3735(4) 0.1806(3)
H34_2 H 0.2346 0.3449 0.1421
Cd5 Cd 0.44095(2) 0.55905(2) 0.2500
N11_2 N 0.0117(3) 0.0542(3) 0.1045(2)
N12_2 N 0.1491(3) 0.0560(3) 0.1112(2)
N13_2 N 0.2309(3) 0.0744(4) 0.1317(3)
H35_2 H 0.2575 0.0290 0.1446
H36_2 H 0.2599 0.0865 0.0978
N14 N 0.3137(3) 0.4746(3) 0.2421(2)
C1_2 C 0.3602(4) 0.5873(4) 0.3910(3)
H1_2 H 0.3896 0.5374 0.4020
C2_2 C 0.2986(4) 0.6162(4) 0.4308(3)
H2_2 H 0.2859 0.5859 0.4676
C3_2 C 0.2551(4) 0.6902(4) 0.4169(3)
C4_2 C 0.2834(4) 0.7342(4) 0.3644(3)
H3_2 H 0.2606 0.7881 0.3550
C5_2 C 0.3433(4) 0.6998(4) 0.3268(3)
H4_2 H 0.3592 0.7304 0.2908
C6_2 C 0.1828(4) 0.7210(4) 0.4538(3)
C7 C 0.1645(4) 0.6904(4) 0.5133(3)
H5 H 0.2000 0.6491 0.5315
C8 C 0.0962(4) 0.7193(4) 0.5452(3)
H6 H 0.0859 0.6982 0.5857
C9 C 0.0414(4) 0.7786(4) 0.5203(3)
C10_2 C 0.0600(4) 0.8104(3) 0.4614(2)
C11_2 C 0.1289(4) 0.7815(4) 0.4287(3)
H8_2 H 0.1398 0.8032 0.3885
C12_2 C 0.0038(3) 0.8727(4) 0.4306(2)
N1_2 N 0.3812(3) 0.6257(3) 0.3375(2)
N2_2 N 0.0064(3) 0.9559(3) 0.4345(2)
C25_2 C 0.4127(4) 0.6398(4) 0.1090(3)
H19_2 H 0.4626 0.6104 0.0980
C26_2 C 0.3838(4) 0.7014(4) 0.0692(3)
H20_2 H 0.4141 0.7141 0.0324
C27_2 C 0.3098(4) 0.7449(4) 0.0831(3)
C28_2 C 0.2658(4) 0.7166(4) 0.1356(3)
H21_2 H 0.2119 0.7394 0.1450
C29_2 C 0.3002(4) 0.6567(4) 0.1732(3)
H22_2 H 0.2696 0.6408 0.2092
C30_2 C 0.2790(4) 0.8172(4) 0.0462(3)
C34_2 C 0.1896(3) 0.9400(4) 0.0386(2)
C35_2 C 0.2185(4) 0.8711(4) 0.0713(3)
H26_2 H 0.1968 0.8602 0.1115
C36_2 C 0.1273(4) 0.9962(3) 0.0694(2)
N7_2 N 0.3743(3) 0.6188(3) 0.1625(2)
N8_2 N 0.0441(3) 0.9936(3) 0.0655(2)
N9_2 N 0.5441(3) 0.5064(3) 0.1845(2)
N10_2 N 0.4936(3) 0.4559(3) 0.3155(2)
N15 N 0.5254(3) 0.6863(3) 0.2579(2)
H7_2 H 0.9930 0.7969 0.5425
C13_2 C 0.9092(3) 0.9239(3) 0.3680(2)
C14_2 C 0.8388(3) 0.9325(4) 0.3235(2)
C17_2 C 0.7084(4) 0.9554(4) 0.2411(3)
H11_2 H 0.6637 0.9636 0.2125
C18_2 C 0.7093(4) 0.8835(4) 0.2774(3)
C19_2 C 0.7752(4) 0.8736(4) 0.3193(3)
H12_2 H 0.7763 0.8254 0.3454
C20_2 C 0.6425(4) 0.8180(4) 0.2719(3)
C21_2 C 0.5948(4) 0.8088(4) 0.2183(3)
H13_2 H 0.6012 0.8477 0.1852
C22_2 C 0.5383(4) 0.7433(4) 0.2131(3)
H14_2 H 0.5069 0.7382 0.1758
C23_2 C 0.5690(4) 0.6965(4) 0.3103(3)
H15_2 H 0.5600 0.6576 0.3430
C24_2 C 0.6265(4) 0.7605(4) 0.3194(3)
H16_2 H 0.6551 0.7654 0.3579
N3_2 N 0.9458(3) 0.9883(3) 0.3955(2)
N4_2 N 0.9440(3) 0.8509(3) 0.3888(2)
N5_2 N 0.9256(4) 0.7691(3) 0.3683(3)
H17_2 H 0.9710 0.7425 0.3554
H18_2 H 0.9135 0.7401 0.4022
C1_3 C 0.0873(4) 0.1398(4) 0.6410(3)
H1_3 H 0.0374 0.1104 0.6520
C2_3 C 0.1162(4) 0.2014(4) 0.6808(3)
H2_3 H 0.0859 0.2141 0.7176
C3_3 C 0.1902(4) 0.2449(4) 0.6669(3)
C4_3 C 0.2342(4) 0.2166(4) 0.6144(3)
H3_3 H 0.2881 0.2394 0.6050
C5_3 C 0.1998(4) 0.1567(4) 0.5768(3)
H4_3 H 0.2304 0.1408 0.5408
C6_3 C 0.2210(4) 0.3172(4) 0.7038(3)
C7_2 C 0.1904(4) 0.3355(4) 0.7633(3)
H5_2 H 0.1491 0.3000 0.7815
C8_2 C 0.2193(4) 0.4038(4) 0.7952(3)
H6_2 H 0.1982 0.4141 0.8357
C9_2 C 0.2786(4) 0.4586(4) 0.7703(3)
H7_3 H 0.2969 0.5070 0.7925
C10_3 C 0.3104(3) 0.4400(4) 0.7114(2)
C11_3 C 0.2815(4) 0.3711(4) 0.6787(3)
H8_3 H 0.3032 0.3602 0.6385
C12_3 C 0.3727(4) 0.4962(3) 0.6806(2)
C13_3 C 0.4239(3) 0.5908(3) 0.6180(2)
C14_3 C 0.4325(4) 0.6612(3) 0.5735(2)
C15 C 0.5048(4) 0.6627(4) 0.5368(3)
H9 H 0.5459 0.6193 0.5400
C16 C 0.5155(4) 0.7289(4) 0.4957(4)
H10 H 0.5645 0.7311 0.4704
C17_3 C 0.4554(4) 0.7916(4) 0.4911(3)
H11_3 H 0.4636 0.8363 0.4625
C18_3 C 0.3835(4) 0.7907(4) 0.5274(3)
C19_3 C 0.3736(4) 0.7248(4) 0.5693(3)
H12_3 H 0.3254 0.7237 0.5954
C20_3 C 0.3180(4) 0.8575(4) 0.5219(3)
C21_3 C 0.3088(4) 0.9052(4) 0.4683(3)
H13_3 H 0.3477 0.8988 0.4352
C22_3 C 0.2433(4) 0.9617(4) 0.4631(3)
H14_3 H 0.2382 0.9931 0.4258
C23_3 C 0.1965(4) 0.9310(4) 0.5603(3)
H15_3 H 0.1576 0.9400 0.5930
C24_3 C 0.2605(4) 0.8735(4) 0.5694(3)
H16_3 H 0.2654 0.8449 0.6079
N1_3 N 0.1257(3) 0.1188(3) 0.5875(2)
N3_3 N 0.4883(3) 0.5542(3) 0.6455(2)
N4_3 N 0.3509(3) 0.5560(3) 0.6388(2)
N5_3 N 0.2691(3) 0.5744(4) 0.6183(3)
H17_3 H 0.2425 0.5290 0.6054
H18_3 H 0.2401 0.5865 0.6522
N6_2 N 0.1863(3) 0.9746(3) 0.5079(2)
C25_3 C 0.1398(4) 0.0873(4) 0.3590(3)
H19_3 H 0.1104 0.0374 0.3480
C26_3 C 0.2014(4) 0.1162(4) 0.3192(3)
H20_3 H 0.2141 0.0859 0.2824
C27_3 C 0.2449(4) 0.1902(4) 0.3331(3)
C28_3 C 0.2166(4) 0.2342(4) 0.3856(3)
H21_3 H 0.2394 0.2881 0.3950
C29_3 C 0.1567(4) 0.1998(4) 0.4232(3)
H22_3 H 0.1408 0.2304 0.4592
C30_3 C 0.3172(4) 0.2210(4) 0.2962(3)
C31_2 C 0.3355(4) 0.1904(4) 0.2367(3)
H23_2 H 0.3000 0.1491 0.2185
C32_2 C 0.4038(4) 0.2193(4) 0.2048(3)
H24_2 H 0.4141 0.1982 0.1643
C33_2 C 0.4586(4) 0.2786(4) 0.2297(3)
H25_2 H 0.5070 0.2969 0.2075
C34_3 C 0.4400(4) 0.3104(3) 0.2886(2)
C35_3 C 0.3711(4) 0.2815(4) 0.3213(3)
H26_3 H 0.3602 0.3032 0.3615
C36_3 C 0.4962(3) 0.3727(4) 0.3194(2)
C37_3 C 0.5908(3) 0.4239(3) 0.3820(2)
C38_3 C 0.6612(3) 0.4325(4) 0.4265(2)
C39 C 0.6627(4) 0.5048(4) 0.4632(3)
H27 H 0.6193 0.5459 0.4600
C40 C 0.7289(4) 0.5155(4) 0.5043(4)
H28 H 0.7311 0.5645 0.5296
C41_3 C 0.7916(4) 0.4554(4) 0.5089(3)
H29_3 H 0.8363 0.4636 0.5375
C42_3 C 0.7907(4) 0.3835(4) 0.4726(3)
C43_3 C 0.7248(4) 0.3736(4) 0.4307(3)
H30_3 H 0.7237 0.3254 0.4046
C44_3 C 0.8575(4) 0.3180(4) 0.4781(3)
C45_3 C 0.9052(4) 0.3088(4) 0.5317(3)
H31_3 H 0.8988 0.3477 0.5648
C46_3 C 0.9617(4) 0.2433(4) 0.5369(3)
H32_3 H 0.9931 0.2382 0.5742
C47_3 C 0.9310(4) 0.1965(4) 0.4397(3)
H33_3 H 0.9400 0.1576 0.4070
C48_3 C 0.8735(4) 0.2605(4) 0.4306(3)
H34_3 H 0.8449 0.2654 0.3921
N7_3 N 0.1188(3) 0.1257(3) 0.4125(2)
N11_3 N 0.5542(3) 0.4883(3) 0.3545(2)
N12_3 N 0.5560(3) 0.3509(3) 0.3612(2)
N13_3 N 0.5744(4) 0.2691(3) 0.3817(3)
H35_3 H 0.5290 0.2425 0.3946
H36_3 H 0.5865 0.2401 0.3478
N14_2 N 0.9746(3) 0.1863(3) 0.4921(2)
N16_2 N 0.0254(3) 0.8137(3) 0.9921(2)
N15_2 N 0.8137(3) 0.0254(3) 0.0079(2)
C1_4 C 0.9127(4) 0.8602(4) 0.1410(3)
H1_4 H 0.9626 0.8896 0.1520
C2_4 C 0.8838(4) 0.7986(4) 0.1808(3)
H2_4 H 0.9141 0.7859 0.2176
C3_4 C 0.8098(4) 0.7551(4) 0.1669(3)
C4_4 C 0.7658(4) 0.7834(4) 0.1144(3)
H3_4 H 0.7119 0.7606 0.1050
C5_4 C 0.8002(4) 0.8433(4) 0.0768(3)
H4_4 H 0.7696 0.8592 0.0408
C6_4 C 0.7790(4) 0.6828(4) 0.2038(3)
C7_3 C 0.8096(4) 0.6645(4) 0.2633(3)
H5_3 H 0.8509 0.7000 0.2815
C8_3 C 0.7807(4) 0.5962(4) 0.2952(3)
H6_3 H 0.8018 0.5859 0.3357
C9_3 C 0.7214(4) 0.5414(4) 0.2703(3)
H7_4 H 0.7031 0.4930 0.2925
C10_4 C 0.6896(3) 0.5600(4) 0.2114(2)
C11_4 C 0.7185(4) 0.6289(4) 0.1787(3)
H8_4 H 0.6968 0.6398 0.1385
C12_4 C 0.6273(4) 0.5038(3) 0.1806(2)
C13_4 C 0.5761(3) 0.4092(3) 0.1180(2)
C14_4 C 0.5675(4) 0.3388(3) 0.0735(2)
C15_2 C 0.4952(4) 0.3373(4) 0.0368(3)
H9_2 H 0.4541 0.3807 0.0400
C18_4 C 0.6165(4) 0.2093(4) 0.0274(3)
C19_4 C 0.6264(4) 0.2752(4) 0.0693(3)
H12_4 H 0.6746 0.2763 0.0954
C20_4 C 0.6820(4) 0.1425(4) 0.0219(3)
C23_4 C 0.8035(4) 0.0690(4) 0.0603(3)
H15_4 H 0.8424 0.0600 0.0930
C24_4 C 0.7395(4) 0.1265(4) 0.0694(3)
H16_4 H 0.7346 0.1551 0.1079
N1_4 N 0.8743(3) 0.8812(3) 0.0875(2)
N3_4 N 0.5117(3) 0.4458(3) 0.1455(2)
N4_4 N 0.6491(3) 0.4440(3) 0.1388(2)
N5_4 N 0.7309(3) 0.4256(4) 0.1183(3)
H17_4 H 0.7575 0.4710 0.1054
H18_4 H 0.7599 0.4135 0.1522
C40_2 C 0.2711(4) 0.4845(4) 0.0043(4)
H28_2 H 0.2689 0.4355 0.0296
C41_4 C 0.2084(4) 0.5446(4) 0.0089(3)
H29_4 H 0.1637 0.5364 0.0375
C45_4 C 0.0948(4) 0.6912(4) 0.0317(3)
H31_4 H 0.1012 0.6523 0.0648
C46_4 C 0.0383(4) 0.7567(4) 0.0369(3)
H32_4 H 0.0069 0.7618 0.0742
C16_2 C 0.4845(4) 0.2711(4) 0.9957(4)
H10_2 H 0.4355 0.2689 0.9704
C17_4 C 0.5446(4) 0.2084(4) 0.9911(3)
H11_4 H 0.5364 0.1637 0.9625
C21_4 C 0.6912(4) 0.0948(4) 0.9683(3)
H13_4 H 0.6523 0.1012 0.9352
C22_4 C 0.7567(4) 0.0383(4) 0.9631(3)
H14_4 H 0.7618 0.0069 0.9258
C25_4 C 0.8602(4) 0.9127(4) 0.8590(3)
H19_4 H 0.8896 0.9626 0.8480
C26_4 C 0.7986(4) 0.8838(4) 0.8192(3)
H20_4 H 0.7859 0.9141 0.7824
C27_4 C 0.7551(4) 0.8098(4) 0.8331(3)
C28_4 C 0.7834(4) 0.7658(4) 0.8856(3)
H21_4 H 0.7606 0.7119 0.8950
C29_4 C 0.8433(4) 0.8002(4) 0.9232(3)
H22_4 H 0.8592 0.7696 0.9592
C30_4 C 0.6828(4) 0.7790(4) 0.7962(3)
C31_3 C 0.6645(4) 0.8096(4) 0.7367(3)
H23_3 H 0.7000 0.8509 0.7185
C32_3 C 0.5962(4) 0.7807(4) 0.7048(3)
H24_3 H 0.5859 0.8018 0.6643
C33_3 C 0.5414(4) 0.7214(4) 0.7297(3)
H25_3 H 0.4930 0.7031 0.7075
C34_4 C 0.5600(4) 0.6896(3) 0.7886(2)
C35_4 C 0.6289(4) 0.7185(4) 0.8213(3)
H26_4 H 0.6398 0.6968 0.8615
C36_4 C 0.5038(3) 0.6273(4) 0.8194(2)
C37_4 C 0.4092(3) 0.5761(3) 0.8820(2)
C38_4 C 0.3388(3) 0.5675(4) 0.9265(2)
C39_2 C 0.3373(4) 0.4952(4) 0.9632(3)
H27_2 H 0.3807 0.4541 0.9600
C42_4 C 0.2093(4) 0.6165(4) 0.9726(3)
C43_4 C 0.2752(4) 0.6264(4) 0.9307(3)
H30_4 H 0.2763 0.6746 0.9046
C44_4 C 0.1425(4) 0.6820(4) 0.9781(3)
C47_4 C 0.0690(4) 0.8035(4) 0.9397(3)
H33_4 H 0.0600 0.8424 0.9070
C48_4 C 0.1265(4) 0.7395(4) 0.9306(3)
H34_4 H 0.1551 0.7346 0.8921
N7_4 N 0.8812(3) 0.8743(3) 0.9125(2)
N11_4 N 0.4458(3) 0.5117(3) 0.8545(2)
N12_4 N 0.4440(3) 0.6491(3) 0.8612(2)
N13_4 N 0.4256(4) 0.7309(3) 0.8817(3)
H35_4 H 0.4710 0.7575 0.8946
H36_4 H 0.4135 0.7599 0.8478
C15_3 C 0.1627(4) 0.9952(4) 0.7868(3)
H9_3 H 0.1193 0.9541 0.7900
C16_3 C 0.2289(4) 0.9845(4) 0.7457(4)
H10_3 H 0.2311 0.9355 0.7204
C39_3 C 0.0048(4) 0.8373(4) 0.7132(3)
H27_3 H 0.0459 0.8807 0.7100
C40_3 C 0.0155(4) 0.7711(4) 0.7543(4)
H28_3 H 0.0645 0.7689 0.7796
C7_4 C 0.8355(4) 0.3096(4) 0.0133(3)
H5_4 H 0.8000 0.3509 0.0315
C8_4 C 0.9038(4) 0.2807(4) 0.0452(3)
H6_4 H 0.9141 0.3018 0.0857
C9_4 C 0.9586(4) 0.2214(4) 0.0203(3)
H25_4 H 0.2031 0.0070 0.9575
C31_4 C 0.3096(4) 0.8355(4) 0.9867(3)
H23_4 H 0.3509 0.8000 0.9685
C32_4 C 0.2807(4) 0.9038(4) 0.9548(3)
H24_4 H 0.3018 0.9141 0.9143
C33_4 C 0.2214(4) 0.9586(4) 0.9797(3)
C15_4 C 0.8373(4) 0.0048(4) 0.2868(3)
H9_4 H 0.8807 0.0459 0.2900
C16_4 C 0.7711(4) 0.0155(4) 0.2457(4)
H10_4 H 0.7689 0.0645 0.2204
C39_4 C 0.9952(4) 0.1627(4) 0.2132(3)
H27_4 H 0.9541 0.1193 0.2100
C40_4 C 0.9845(4) 0.2289(4) 0.2543(4)
H28_4 H 0.9355 0.2311 0.2796
Cl1 Cl 0.23112(12) 0.23112(12) 0.0000
O3 O 0.2725(6) 0.2552(8) 0.0522(3)
O4 O 0.1583(14) 0.2941(12) 0.0223(19)
Cl1_2 Cl 0.23112(12) 0.23112(12) 1.0000
O1 O 0.2552(8) 0.2725(6) 0.9478(3)
O2 O 0.2941(12) 0.1583(14) 0.9777(19)
Cl1_3 Cl 0.76888(12) 0.76888(12) 0.5000
O1_2 O 0.7448(8) 0.7275(6) 0.4478(3)
O2_2 O 0.7059(12) 0.8417(14) 0.4777(19)
O3_2 O 0.7275(6) 0.7448(8) 0.5522(3)
O4_2 O 0.8417(14) 0.7059(12) 0.5223(19)
Cl1_4 Cl 0.26888(12) 0.73112(12) 0.7500
O1_3 O 0.2275(6) 0.7552(8) 0.6978(3)
O2_3 O 0.3417(14) 0.7941(12) 0.7277(19)
O3_3 O 0.2448(8) 0.7725(6) 0.8022(3)
O4_3 O 0.2059(12) 0.6583(14) 0.7723(19)
Cl1_5 Cl 0.73112(12) 0.26888(12) 0.2500
O1_4 O 0.7725(6) 0.2448(8) 0.1978(3)
O2_4 O 0.6583(14) 0.2059(12) 0.2277(19)
O3_4 O 0.7552(8) 0.2275(6) 0.3022(3)
O4_4 O 0.7941(12) 0.3417(14) 0.2723(19)
loop_
_geom_bond_atom_site_label_1
_geom_bond_atom_site_label_2
_geom_bond_site_symmetry_1
_geom_bond_site_symmetry_2
C13 C14 1_555 1_555
H11 C17 1_555 1_555
C18 C17 1_555 1_555
C19 C14 1_555 1_555
H12 C19 1_555 1_555
C20 C18 1_555 1_555
C21 C20 1_555 1_555
H13 C21 1_555 1_555
C22 C21 1_555 1_555
H14 C22 1_555 1_555
C23 H15 1_555 1_555
C24 C20 1_555 1_555
H16 C24 1_555 1_555
N3 C13 1_555 1_555
N5 N4 1_555 1_555
H17 N5 1_555 1_555
H18 N5 1_555 1_555
N6 C22 1_555 1_555
Cd3 N6 1_555 1_555
C13 N4 1_555 1_555
C18 C19 1_555 1_555
C23 C24 1_555 1_555
C23 N6 1_555 1_555
C1 H1 1_555 1_555
C2 C1 1_555 1_555
H2 C2 1_555 1_555
C3 C2 1_555 1_555
C4 C3 1_555 1_555
H3 C4 1_555 1_555
C5 C4 1_555 1_555
H4 C5 1_555 1_555
C6 C3 1_555 1_555
C11 C6 1_555 1_555
H8 C11 1_555 1_555
C12 C10 1_555 1_555
Cd3 N1 1_555 1_555
N1 C1 1_555 1_555
N2 C12 1_555 1_555
C25 H19 1_555 1_555
C26 C25 1_555 1_555
H20 C26 1_555 1_555
C27 C26 1_555 1_555
C28 C27 1_555 1_555
H21 C28 1_555 1_555
C29 C28 1_555 1_555
H22 C29 1_555 1_555
C30 C27 1_555 1_555
C31 C30 1_555 1_555
H23 C31 1_555 1_555
C32 C31 1_555 1_555
H24 C32 1_555 1_555
C33 C32 1_555 1_555
C34 C33 1_555 1_555
C35 C30 1_555 1_555
H26 C35 1_555 1_555
C36 C34 1_555 1_555
N7 Cd3 1_555 1_555
N8 C36 1_555 1_555
N9 Cd3 1_555 1_555
N10 Cd3 1_555 1_555
N16 Cd3 1_555 1_555
C5 N1 1_555 1_555
C10 C11 1_555 1_555
C25 N7 1_555 1_555
C29 N7 1_555 1_555
C34 C35 1_555 1_555
C37 C38 1_555 1_555
H29 C41 1_555 1_555
C42 C41 1_555 1_555
C43 C38 1_555 1_555
H30 C43 1_555 1_555
C44 C42 1_555 1_555
C45 C44 1_555 1_555
H31 C45 1_555 1_555
C46 C45 1_555 1_555
H32 C46 1_555 1_555
C47 H33 1_555 1_555
C48 C44 1_555 1_555
H34 C48 1_555 1_555
N11 C37 1_555 1_555
N13 N12 1_555 1_555
H35 N13 1_555 1_555
H36 N13 1_555 1_555
N16 C46 1_555 1_555
C37 N12 1_555 1_555
C42 C43 1_555 1_555
C47 C48 1_555 1_555
C47 N16 1_555 1_555
C37_2 C38_2 1_555 1_555
H29_2 C41_2 1_555 1_555
C42_2 C41_2 1_555 1_555
C43_2 C38_2 1_555 1_555
H30_2 C43_2 1_555 1_555
C44_2 C42_2 1_555 1_555
C45_2 C44_2 1_555 1_555
H31_2 C45_2 1_555 1_555
C46_2 C45_2 1_555 1_555
H32_2 C46_2 1_555 1_555
C47_2 H33_2 1_555 1_555
C48_2 C44_2 1_555 1_555
H34_2 C48_2 1_555 1_555
Cd5 N14 1_555 1_555
N11_2 C37_2 1_555 1_555
N13_2 N12_2 1_555 1_555
H35_2 N13_2 1_555 1_555
H36_2 N13_2 1_555 1_555
N14 C46_2 1_555 1_555
C37_2 N12_2 1_555 1_555
C42_2 C43_2 1_555 1_555
C47_2 C48_2 1_555 1_555
C47_2 N14 1_555 1_555
C1_2 H1_2 1_555 1_555
C2_2 C1_2 1_555 1_555
H2_2 C2_2 1_555 1_555
C3_2 C2_2 1_555 1_555
C4_2 C3_2 1_555 1_555
H3_2 C4_2 1_555 1_555
C5_2 C4_2 1_555 1_555
H4_2 C5_2 1_555 1_555
C6_2 C3_2 1_555 1_555
C7 C6_2 1_555 1_555
H5 C7 1_555 1_555
C8 C7 1_555 1_555
H6 C8 1_555 1_555
C9 C8 1_555 1_555
C10_2 C9 1_555 1_555
C11_2 C6_2 1_555 1_555
H8_2 C11_2 1_555 1_555
C12_2 C10_2 1_555 1_555
Cd5 N1_2 1_555 1_555
N1_2 C1_2 1_555 1_555
N2_2 C12_2 1_555 1_555
C25_2 H19_2 1_555 1_555
C26_2 C25_2 1_555 1_555
H20_2 C26_2 1_555 1_555
C27_2 C26_2 1_555 1_555
C28_2 C27_2 1_555 1_555
H21_2 C28_2 1_555 1_555
C29_2 C28_2 1_555 1_555
H22_2 C29_2 1_555 1_555
C30_2 C27_2 1_555 1_555
C35_2 C30_2 1_555 1_555
H26_2 C35_2 1_555 1_555
C36_2 C34_2 1_555 1_555
N7_2 Cd5 1_555 1_555
N8_2 C36_2 1_555 1_555
N9_2 Cd5 1_555 1_555
N10_2 Cd5 1_555 1_555
N15 Cd5 1_555 1_555
C5_2 N1_2 1_555 1_555
C10_2 C11_2 1_555 1_555
C25_2 N7_2 1_555 1_555
C29_2 N7_2 1_555 1_555
C34_2 C35_2 1_555 1_555
C13_2 C14_2 1_555 1_555
H11_2 C17_2 1_555 1_555
C18_2 C17_2 1_555 1_555
C19_2 C14_2 1_555 1_555
H12_2 C19_2 1_555 1_555
C20_2 C18_2 1_555 1_555
C21_2 C20_2 1_555 1_555
H13_2 C21_2 1_555 1_555
C22_2 C21_2 1_555 1_555
H14_2 C22_2 1_555 1_555
C23_2 H15_2 1_555 1_555
C24_2 C20_2 1_555 1_555
H16_2 C24_2 1_555 1_555
N3_2 C13_2 1_555 1_555
N5_2 N4_2 1_555 1_555
H17_2 N5_2 1_555 1_555
H18_2 N5_2 1_555 1_555
N15 C22_2 1_555 1_555
C13_2 N4_2 1_555 1_555
C18_2 C19_2 1_555 1_555
C23_2 C24_2 1_555 1_555
C23_2 N15 1_555 1_555
C1_3 H1_3 1_555 1_555
C2_3 C1_3 1_555 1_555
H2_3 C2_3 1_555 1_555
C3_3 C2_3 1_555 1_555
C4_3 C3_3 1_555 1_555
H3_3 C4_3 1_555 1_555
C5_3 C4_3 1_555 1_555
H4_3 C5_3 1_555 1_555
C6_3 C3_3 1_555 1_555
C7_2 C6_3 1_555 1_555
H5_2 C7_2 1_555 1_555
C8_2 C7_2 1_555 1_555
H6_2 C8_2 1_555 1_555
C9_2 C8_2 1_555 1_555
H7_3 C9_2 1_555 1_555
C10_3 C9_2 1_555 1_555
C11_3 C6_3 1_555 1_555
H8_3 C11_3 1_555 1_555
C12_3 C10_3 1_555 1_555
C13_3 C14_3 1_555 1_555
C14_3 C15 1_555 1_555
C15 H9 1_555 1_555
C16 C15 1_555 1_555
H10 C16 1_555 1_555
C17_3 C16 1_555 1_555
H11_3 C17_3 1_555 1_555
C18_3 C17_3 1_555 1_555
C19_3 C14_3 1_555 1_555
H12_3 C19_3 1_555 1_555
C20_3 C18_3 1_555 1_555
C21_3 C20_3 1_555 1_555
H13_3 C21_3 1_555 1_555
C22_3 C21_3 1_555 1_555
H14_3 C22_3 1_555 1_555
C23_3 H15_3 1_555 1_555
C24_3 C20_3 1_555 1_555
H16_3 C24_3 1_555 1_555
Cd4 N1_3 1_555 1_555
N1_3 C1_3 1_555 1_555
N9 C12_3 1_555 1_555
N3_3 C13_3 1_555 1_555
N4_3 C12_3 1_555 1_555
N5_3 N4_3 1_555 1_555
H17_3 N5_3 1_555 1_555
H18_3 N5_3 1_555 1_555
N6_2 C22_3 1_555 1_555
C25_3 H19_3 1_555 1_555
C26_3 C25_3 1_555 1_555
H20_3 C26_3 1_555 1_555
C27_3 C26_3 1_555 1_555
C28_3 C27_3 1_555 1_555
H21_3 C28_3 1_555 1_555
C29_3 C28_3 1_555 1_555
H22_3 C29_3 1_555 1_555
C30_3 C27_3 1_555 1_555
C31_2 C30_3 1_555 1_555
H23_2 C31_2 1_555 1_555
C32_2 C31_2 1_555 1_555
H24_2 C32_2 1_555 1_555
C33_2 C32_2 1_555 1_555
H25_2 C33_2 1_555 1_555
C34_3 C33_2 1_555 1_555
C35_3 C30_3 1_555 1_555
H26_3 C35_3 1_555 1_555
C36_3 C34_3 1_555 1_555
C37_3 C38_3 1_555 1_555
C38_3 C39 1_555 1_555
C39 H27 1_555 1_555
C40 C39 1_555 1_555
H28 C40 1_555 1_555
C41_3 C40 1_555 1_555
H29_3 C41_3 1_555 1_555
C42_3 C41_3 1_555 1_555
C43_3 C38_3 1_555 1_555
H30_3 C43_3 1_555 1_555
C44_3 C42_3 1_555 1_555
C45_3 C44_3 1_555 1_555
H31_3 C45_3 1_555 1_555
C46_3 C45_3 1_555 1_555
H32_3 C46_3 1_555 1_555
C47_3 H33_3 1_555 1_555
C48_3 C44_3 1_555 1_555
H34_3 C48_3 1_555 1_555
N7_3 Cd4 1_555 1_555
N10_2 C36_3 1_555 1_555
N11_3 C37_3 1_555 1_555
N12_3 C36_3 1_555 1_555
N13_3 N12_3 1_555 1_555
H35_3 N13_3 1_555 1_555
H36_3 N13_3 1_555 1_555
N14_2 C46_3 1_555 1_555
C5_3 N1_3 1_555 1_555
C10_3 C11_3 1_555 1_555
C13_3 N4_3 1_555 1_555
C18_3 C19_3 1_555 1_555
C23_3 C24_3 1_555 1_555
C23_3 N6_2 1_555 1_555
N9 N3_3 1_555 1_555
C25_3 N7_3 1_555 1_555
C29_3 N7_3 1_555 1_555
C34_3 C35_3 1_555 1_555
C37_3 N12_3 1_555 1_555
C42_3 C43_3 1_555 1_555
C47_3 C48_3 1_555 1_555
C47_3 N14_2 1_555 1_555
N10_2 N11_3 1_555 1_555
C1_4 H1_4 1_555 1_555
C2_4 C1_4 1_555 1_555
H2_4 C2_4 1_555 1_555
C3_4 C2_4 1_555 1_555
C4_4 C3_4 1_555 1_555
H3_4 C4_4 1_555 1_555
C5_4 C4_4 1_555 1_555
H4_4 C5_4 1_555 1_555
C6_4 C3_4 1_555 1_555
C7_3 C6_4 1_555 1_555
H5_3 C7_3 1_555 1_555
C8_3 C7_3 1_555 1_555
H6_3 C8_3 1_555 1_555
C9_3 C8_3 1_555 1_555
H7_4 C9_3 1_555 1_555
C10_4 C9_3 1_555 1_555
C11_4 C6_4 1_555 1_555
H8_4 C11_4 1_555 1_555
C12_4 C10_4 1_555 1_555
C13_4 C14_4 1_555 1_555
C14_4 C15_2 1_555 1_555
C15_2 H9_2 1_555 1_555
C19_4 C14_4 1_555 1_555
H12_4 C19_4 1_555 1_555
C20_4 C18_4 1_555 1_555
C23_4 H15_4 1_555 1_555
C24_4 C20_4 1_555 1_555
H16_4 C24_4 1_555 1_555
Cd2 N1_4 1_555 1_555
N1_4 C1_4 1_555 1_555
N9_2 C12_4 1_555 1_555
N3_4 C13_4 1_555 1_555
N4_4 C12_4 1_555 1_555
N5_4 N4_4 1_555 1_555
H17_4 N5_4 1_555 1_555
H18_4 N5_4 1_555 1_555
H28_2 C40_2 1_555 1_555
C41_4 C40_2 1_555 1_555
H29_4 C41_4 1_555 1_555
H31_4 C45_4 1_555 1_555
C46_4 C45_4 1_555 1_555
H32_4 C46_4 1_555 1_555
C5_4 N1_4 1_555 1_555
C10_4 C11_4 1_555 1_555
C13_4 N4_4 1_555 1_555
C18_4 C19_4 1_555 1_555
C23_4 C24_4 1_555 1_555
C23_4 N15_2 1_555 1_555
N9_2 N3_4 1_555 1_555
H10_2 C16_2 1_555 1_555
C17_4 C16_2 1_555 1_555
H11_4 C17_4 1_555 1_555
H13_4 C21_4 1_555 1_555
C22_4 C21_4 1_555 1_555
H14_4 C22_4 1_555 1_555
C25_4 H19_4 1_555 1_555
C26_4 C25_4 1_555 1_555
H20_4 C26_4 1_555 1_555
C27_4 C26_4 1_555 1_555
C28_4 C27_4 1_555 1_555
H21_4 C28_4 1_555 1_555
C29_4 C28_4 1_555 1_555
H22_4 C29_4 1_555 1_555
C30_4 C27_4 1_555 1_555
C31_3 C30_4 1_555 1_555
H23_3 C31_3 1_555 1_555
C32_3 C31_3 1_555 1_555
H24_3 C32_3 1_555 1_555
C33_3 C32_3 1_555 1_555
H25_3 C33_3 1_555 1_555
C34_4 C33_3 1_555 1_555
C35_4 C30_4 1_555 1_555
H26_4 C35_4 1_555 1_555
C36_4 C34_4 1_555 1_555
C37_4 C38_4 1_555 1_555
C38_4 C39_2 1_555 1_555
C39_2 H27_2 1_555 1_555
C43_4 C38_4 1_555 1_555
H30_4 C43_4 1_555 1_555
C44_4 C42_4 1_555 1_555
C47_4 H33_4 1_555 1_555
C48_4 C44_4 1_555 1_555
H34_4 C48_4 1_555 1_555
N7_4 Cd2_2 1_555 1_555
N10 C36_4 1_555 1_555
N11_4 C37_4 1_555 1_555
N12_4 C36_4 1_555 1_555
N13_4 N12_4 1_555 1_555
H35_4 N13_4 1_555 1_555
H36_4 N13_4 1_555 1_555
C25_4 N7_4 1_555 1_555
C29_4 N7_4 1_555 1_555
C34_4 C35_4 1_555 1_555
C37_4 N12_4 1_555 1_555
C42_4 C43_4 1_555 1_555
C47_4 C48_4 1_555 1_555
C47_4 N16_2 1_555 1_555
N10 N11_4 1_555 1_555
C15_3 H9_3 1_555 1_555
C16_3 C15_3 1_555 1_555
H10_3 C16_3 1_555 1_555
C39_3 H27_3 1_555 1_555
C40_3 C39_3 1_555 1_555
H28_3 C40_3 1_555 1_555
H5_4 C7_4 1_555 1_555
C8_4 C7_4 1_555 1_555
H6_4 C8_4 1_555 1_555
C9_4 C8_4 1_555 1_555
H23_4 C31_4 1_555 1_555
C32_4 C31_4 1_555 1_555
H24_4 C32_4 1_555 1_555
C33_4 C32_4 1_555 1_555
C15_4 H9_4 1_555 1_555
C16_4 C15_4 1_555 1_555
H10_4 C16_4 1_555 1_555
C39_4 H27_4 1_555 1_555
C40_4 C39_4 1_555 1_555
H28_4 C40_4 1_555 1_555
O3 Cl1 1_555 1_555
O4 Cl1 1_555 1_555
Cl1_2 O1 1_555 1_555
O2 Cl1_2 1_555 1_555
Cl1_3 O1_2 1_555 1_555
O2_2 Cl1_3 1_555 1_555
O3_2 Cl1_3 1_555 1_555
O4_2 Cl1_3 1_555 1_555
Cl1_4 O1_3 1_555 1_555
O2_3 Cl1_4 1_555 1_555
O3_3 Cl1_4 1_555 1_555
O4_3 Cl1_4 1_555 1_555
Cl1_5 O1_4 1_555 1_555
O2_4 Cl1_5 1_555 1_555
O3_4 Cl1_5 1_555 1_555
O4_4 Cl1_5 1_555 1_555

#END
