
###############################################################################
#
# This file contains modified crystal structure data generated from the
# MOF subset of the Cambridge Structural Database (CSD) v543 
# hosted by the Cambridge Crystallographic Data Centre (CCDC).
#
# This work is licensed under the Creative Commons
# Attribution-NonCommercial-ShareAlike 4.0 International License.
# To view a copy of this license, visit
# http://creativecommons.org/licenses/by-nc-sa/4.0/
# or send a letter to
# Creative Commons, PO Box 1866, Mountain View, CA 94042, USA.
#
# CIF created using the CSD Python API on 29 September 2022
# The structure has been converted into the P1 space group
# The structure has a 3D framework
# The original CSD entry SAHYAD01 is in the tetragonal crystal system
# The original CSD entry SAHYAD01 is in a Sohncke space group
# The framework has been calculated to contain at least 10.0% void space
# The void calculation uses a probe of radius 1.32A, grid spacing 0.4
# The framework is charged, counterions have been retained in the structure
#
###############################################################################

data_SAHYAD01
_chemical_formula_moiety         '(C192 H144 Cd3 Cl10 N48 O32 2-)n'
_symmetry_cell_setting           triclinic
_symmetry_space_group_name_H-M   'P 1'
_symmetry_Int_Tables_number      1
_space_group_name_Hall           'P 1'
loop_
_symmetry_equiv_pos_site_id
_symmetry_equiv_pos_as_xyz
1 x,y,z
_cell_length_a                   15.8632(18)
_cell_length_b                   15.8632(18)
_cell_length_c                   21.760(3)
_cell_angle_alpha                90
_cell_angle_beta                 90
_cell_angle_gamma                90
_cell_volume                     5475.71
loop_
_atom_site_label
_atom_site_type_symbol
_atom_site_fract_x
_atom_site_fract_y
_atom_site_fract_z
Cd2 Cd 0.05816(2) 0.05816(2) 0.0000
Cd2_2 Cd 0.05816(2) 0.05816(2) 1.0000
C8 C 0.0136(4) 0.7724(4) 0.7462(3)
H6 H 0.0627 0.7703 0.7212
C9 C 0.0030(4) 0.8382(4) 0.7874(3)
H7 H 0.0443 0.8814 0.7908
C13 C 0.8716(4) 0.0046(3) 0.9304(2)
C14 C 0.8098(3) 0.0605(4) 0.9607(2)
C18 C 0.7197(3) 0.1829(3) 0.9526(2)
C19 C 0.7803(4) 0.1294(4) 0.9281(2)
H12 H 0.8019 0.1403 0.8882
C20 C 0.6887(4) 0.2551(4) 0.9157(3)
C21 C 0.6150(4) 0.2986(4) 0.9294(2)
H13 H 0.5844 0.2855 0.9657
C22 C 0.5862(4) 0.3609(4) 0.8902(3)
H14 H 0.5369 0.3912 0.9016
C23 C 0.6989(4) 0.3433(4) 0.8264(3)
H15 H 0.7298 0.3593 0.7909
C24 C 0.7326(4) 0.2835(4) 0.8638(3)
H16 H 0.7865 0.2608 0.8547
N3 N 0.9546(3) 0.0059(3) 0.9349(2)
N6 N 0.6242(3) 0.3810(3) 0.8370(2)
Cd3 Cd 0.55816(2) 0.44184(2) 0.7500
C1 C 0.7410(4) 0.5395(4) 0.7146(3)
H1 H 0.7354 0.5087 0.6774
C2 C 0.8074(4) 0.5964(4) 0.7196(3)
H2 H 0.8464 0.6028 0.6868
C3 C 0.8163(4) 0.6436(4) 0.7725(3)
C4 C 0.7585(4) 0.6278(4) 0.8193(3)
H3 H 0.7624 0.6574 0.8571
C5 C 0.6959(4) 0.5695(4) 0.8106(3)
H4 H 0.6578 0.5595 0.8434
C6 C 0.8816(4) 0.7105(4) 0.7780(3)
C7 C 0.9537(4) 0.7103(4) 0.7412(3)
H5 H 0.9615 0.6664 0.7121
C10 C 0.9306(3) 0.8400(3) 0.8238(2)
C11 C 0.8721(3) 0.7767(4) 0.8195(3)
H8 H 0.8240 0.7779 0.8455
C12 C 0.9229(3) 0.9100(3) 0.8682(2)
N1 N 0.6855(3) 0.5261(3) 0.7587(2)
N2 N 0.9866(3) 0.9454(3) 0.8962(2)
N4 N 0.8502(3) 0.9452(3) 0.8881(2)
N5 N 0.7685(3) 0.9283(4) 0.8667(3)
H17 H 0.7475 0.9740 0.8498
H18 H 0.7399 0.9158 0.9003
N8 N 0.4739(3) 0.3145(3) 0.7413(2)
N11 N 0.4546(3) 0.4941(3) 0.8151(2)
N12 N 0.5059(3) 0.5454(3) 0.6849(2)
N16 N 0.6190(3) 0.3758(3) 0.6630(2)
C25 C 0.2590(4) 0.4605(4) 0.2146(3)
H19 H 0.2646 0.4913 0.1774
C26 C 0.1926(4) 0.4036(4) 0.2196(3)
H20 H 0.1536 0.3972 0.1868
C27 C 0.1837(4) 0.3564(4) 0.2725(3)
C28 C 0.2415(4) 0.3722(4) 0.3193(3)
H21 H 0.2376 0.3426 0.3571
C29 C 0.3041(4) 0.4305(4) 0.3106(3)
H22 H 0.3422 0.4405 0.3434
C30 C 0.1184(4) 0.2895(4) 0.2780(3)
C31 C 0.0463(4) 0.2897(4) 0.2412(3)
H23 H 0.0385 0.3336 0.2121
C34 C 0.0694(3) 0.1600(3) 0.3238(2)
C35 C 0.1279(3) 0.2233(4) 0.3195(3)
H26 H 0.1760 0.2221 0.3455
C36 C 0.0771(3) 0.0900(3) 0.3682(2)
H27 H 0.2022 0.0051 0.5407
Cd4 Cd 0.44184(2) 0.55816(2) 0.2500
N7 N 0.3145(3) 0.4739(3) 0.2587(2)
N9 N 0.0134(3) 0.0546(3) 0.3962(2)
N13 N 0.1498(3) 0.0548(3) 0.3881(2)
N14 N 0.2315(3) 0.0717(4) 0.3667(3)
H35 H 0.2525 0.0260 0.3498
H36 H 0.2601 0.0842 0.4003
C37 C 0.1284(4) 0.9954(3) 0.4304(2)
C38 C 0.1902(3) 0.9395(4) 0.4607(2)
C39 C 0.2214(4) 0.9571(4) 0.5186(3)
C40 C 0.2816(4) 0.9031(4) 0.5441(3)
H28 H 0.3025 0.9138 0.5843
C41 C 0.3108(4) 0.8349(4) 0.5117(2)
H29 H 0.3522 0.7992 0.5296
C42 C 0.2803(3) 0.8171(3) 0.4526(2)
C43 C 0.2197(4) 0.8706(4) 0.4281(2)
H30 H 0.1981 0.8597 0.3882
C44 C 0.3113(4) 0.7449(4) 0.4157(3)
C45 C 0.3850(4) 0.7014(4) 0.4294(2)
H31 H 0.4156 0.7145 0.4657
C46 C 0.4138(4) 0.6391(4) 0.3902(3)
H32 H 0.4631 0.6088 0.4016
C47 C 0.3011(4) 0.6567(4) 0.3264(3)
H33 H 0.2702 0.6407 0.2909
C48 C 0.2674(4) 0.7165(4) 0.3638(3)
H34 H 0.2135 0.7392 0.3547
N8_2 N 0.5261(3) 0.6855(3) 0.2413(2)
N10 N 0.0454(3) 0.9941(3) 0.4349(2)
N11_2 N 0.5454(3) 0.5059(3) 0.3151(2)
N12_2 N 0.4941(3) 0.4546(3) 0.1849(2)
N15 N 0.3758(3) 0.6190(3) 0.3370(2)
N16_2 N 0.3810(3) 0.6242(3) 0.1630(2)
C32 C 0.9864(4) 0.2276(4) 0.2462(3)
H24 H 0.9373 0.2297 0.2212
C33 C 0.9970(4) 0.1618(4) 0.2874(3)
H25 H 0.9557 0.1186 0.2908
Cd5 Cd 0.94184(2) 0.94184(2) 0.5000
C27_2 C 0.8564(4) 0.3163(4) 0.0225(3)
C28_2 C 0.8722(4) 0.2585(4) 0.0693(3)
H21_2 H 0.8426 0.2624 0.1071
C29_2 C 0.9305(4) 0.1959(4) 0.0606(3)
H22_2 H 0.9405 0.1578 0.0934
C30_2 C 0.7895(4) 0.3816(4) 0.0280(3)
C33_2 C 0.6618(4) 0.5030(4) 0.0374(3)
H25_2 H 0.6186 0.5443 0.0408
C34_2 C 0.6600(3) 0.4306(3) 0.0738(2)
C35_2 C 0.7233(4) 0.3721(3) 0.0695(3)
H26_2 H 0.7221 0.3240 0.0955
C36_2 C 0.5900(3) 0.4229(3) 0.1182(2)
C37_2 C 0.4954(3) 0.3716(4) 0.1804(2)
C38_2 C 0.4395(4) 0.3098(3) 0.2107(2)
C39_2 C 0.4571(4) 0.2786(4) 0.2686(3)
H27_2 H 0.5051 0.2978 0.2907
C40_2 C 0.4031(4) 0.2184(4) 0.2941(3)
H28_2 H 0.4138 0.1975 0.3343
C41_2 C 0.3349(4) 0.1892(4) 0.2617(2)
H29_2 H 0.2992 0.1478 0.2796
C42_2 C 0.3171(3) 0.2197(3) 0.2026(2)
C43_2 C 0.3706(4) 0.2803(4) 0.1781(2)
H30_2 H 0.3597 0.3019 0.1382
C44_2 C 0.2449(4) 0.1887(4) 0.1657(3)
C45_2 C 0.2014(4) 0.1150(4) 0.1794(2)
H31_2 H 0.2145 0.0844 0.2157
C46_2 C 0.1391(4) 0.0862(4) 0.1402(3)
H32_2 H 0.1088 0.0369 0.1516
C47_2 C 0.1567(4) 0.1989(4) 0.0764(3)
H33_2 H 0.1407 0.2298 0.0409
C48_2 C 0.2165(4) 0.2326(4) 0.1138(3)
H34_2 H 0.2392 0.2865 0.1047
N7_2 N 0.9739(3) 0.1855(3) 0.0087(2)
N9_2 N 0.5546(3) 0.4866(3) 0.1462(2)
N13_2 N 0.5548(3) 0.3502(3) 0.1381(2)
N14_2 N 0.5717(4) 0.2685(3) 0.1167(3)
H35_2 H 0.5260 0.2475 0.0998
H36_2 H 0.5842 0.2399 0.1503
N15_2 N 0.1190(3) 0.1242(3) 0.0870(2)
C25_2 C 0.9605(4) 0.2410(4) 0.9646(3)
H19_2 H 0.9913 0.2354 0.9274
C26_2 C 0.9036(4) 0.3074(4) 0.9696(3)
H20_2 H 0.8972 0.3464 0.9368
C31_2 C 0.7897(4) 0.4537(4) 0.9912(3)
H23_2 H 0.8336 0.4615 0.9621
C32_2 C 0.7276(4) 0.5136(4) 0.9962(3)
H24_2 H 0.7297 0.5627 0.9712
N16_3 N 0.1242(3) 0.1190(3) 0.9130(2)
N11_3 N 0.0059(3) 0.9546(3) 0.0651(2)
N8_3 N 0.1855(3) 0.9739(3) 0.9913(2)
C1_2 C 0.0395(4) 0.7590(4) 0.4646(3)
H1_2 H 0.0087 0.7646 0.4274
C2_2 C 0.0964(4) 0.6926(4) 0.4696(3)
H2_2 H 0.1028 0.6536 0.4368
C3_2 C 0.1436(4) 0.6837(4) 0.5225(3)
C4_2 C 0.1278(4) 0.7415(4) 0.5693(3)
H3_2 H 0.1574 0.7376 0.6071
C5_2 C 0.0695(4) 0.8041(4) 0.5606(3)
H4_2 H 0.0595 0.8422 0.5934
C6_2 C 0.2105(4) 0.6184(4) 0.5280(3)
C7_2 C 0.2103(4) 0.5463(4) 0.4912(3)
H5_2 H 0.1664 0.5385 0.4621
C8_2 C 0.2724(4) 0.4864(4) 0.4962(3)
H6_2 H 0.2703 0.4373 0.4712
C9_2 C 0.3382(4) 0.4970(4) 0.5374(3)
H7_2 H 0.3814 0.4557 0.5408
C10_2 C 0.3400(3) 0.5694(3) 0.5738(2)
C11_2 C 0.2767(4) 0.6279(3) 0.5695(3)
H8_2 H 0.2779 0.6760 0.5955
C12_2 C 0.4100(3) 0.5771(3) 0.6182(2)
C13_2 C 0.5046(3) 0.6284(4) 0.6804(2)
C14_2 C 0.5605(4) 0.6902(3) 0.7107(2)
C15 C 0.5429(4) 0.7214(4) 0.7686(3)
H9 H 0.4949 0.7022 0.7907
C16 C 0.5969(4) 0.7816(4) 0.7941(3)
H10 H 0.5862 0.8025 0.8343
C17 C 0.6651(4) 0.8108(4) 0.7617(2)
H11 H 0.7008 0.8522 0.7796
C18_2 C 0.6829(3) 0.7803(3) 0.7026(2)
C19_2 C 0.6294(4) 0.7197(4) 0.6781(2)
H12_2 H 0.6403 0.6981 0.6382
C20_2 C 0.7551(4) 0.8113(4) 0.6657(3)
C21_2 C 0.7986(4) 0.8850(4) 0.6794(2)
H13_2 H 0.7855 0.9156 0.7157
C22_2 C 0.8609(4) 0.9138(4) 0.6402(3)
H14_2 H 0.8912 0.9631 0.6516
C23_2 C 0.8433(4) 0.8011(4) 0.5764(3)
H15_2 H 0.8593 0.7702 0.5409
C24_2 C 0.7835(4) 0.7674(4) 0.6138(3)
H16_2 H 0.7608 0.7135 0.6047
N1_2 N 0.0261(3) 0.8145(3) 0.5087(2)
N2_2 N 0.4454(3) 0.5134(3) 0.6462(2)
N4_2 N 0.4452(3) 0.6498(3) 0.6381(2)
N5_2 N 0.4283(4) 0.7315(3) 0.6167(3)
H17_2 H 0.4740 0.7525 0.5998
H18_2 H 0.4158 0.7601 0.6503
N6_2 N 0.8810(3) 0.8758(3) 0.5870(2)
N8_4 N 0.8145(3) 0.0261(3) 0.4913(2)
N11_4 N 0.9941(3) 0.0454(3) 0.5651(2)
N16_4 N 0.8758(3) 0.8810(3) 0.4130(2)
C1_3 C 0.7590(4) 0.0395(4) 0.5354(3)
H1_3 H 0.7646 0.0087 0.5726
C2_3 C 0.6926(4) 0.0964(4) 0.5304(3)
H2_3 H 0.6536 0.1028 0.5632
C3_3 C 0.6837(4) 0.1436(4) 0.4775(3)
C4_3 C 0.7415(4) 0.1278(4) 0.4307(3)
H3_3 H 0.7376 0.1574 0.3929
C5_3 C 0.8041(4) 0.0695(4) 0.4394(3)
H4_3 H 0.8422 0.0595 0.4066
C6_3 C 0.6184(4) 0.2105(4) 0.4720(3)
C7_3 C 0.5463(4) 0.2103(4) 0.5088(3)
H5_3 H 0.5385 0.1664 0.5379
C8_3 C 0.4864(4) 0.2724(4) 0.5038(3)
H6_3 H 0.4373 0.2703 0.5288
C9_3 C 0.4970(4) 0.3382(4) 0.4626(3)
H7_3 H 0.4557 0.3814 0.4592
C10_3 C 0.5694(3) 0.3400(3) 0.4262(2)
C11_3 C 0.6279(3) 0.2767(4) 0.4305(3)
H8_3 H 0.6760 0.2779 0.4045
C12_3 C 0.5771(3) 0.4100(3) 0.3818(2)
C13_3 C 0.6284(4) 0.5046(3) 0.3196(2)
C14_3 C 0.6902(3) 0.5605(4) 0.2893(2)
C15_2 C 0.7214(4) 0.5429(4) 0.2314(3)
H9_2 H 0.7022 0.4949 0.2093
C16_2 C 0.7816(4) 0.5969(4) 0.2059(3)
H10_2 H 0.8025 0.5862 0.1657
C17_2 C 0.8108(4) 0.6651(4) 0.2383(2)
H11_2 H 0.8522 0.7008 0.2204
C18_3 C 0.7803(3) 0.6829(3) 0.2974(2)
C19_3 C 0.7197(4) 0.6294(4) 0.3219(2)
H12_3 H 0.6981 0.6403 0.3618
C20_3 C 0.8113(4) 0.7551(4) 0.3343(3)
C21_3 C 0.8850(4) 0.7986(4) 0.3206(2)
H13_3 H 0.9156 0.7855 0.2843
C22_3 C 0.9138(4) 0.8609(4) 0.3598(3)
H14_3 H 0.9631 0.8912 0.3484
C23_3 C 0.8011(4) 0.8433(4) 0.4236(3)
H15_3 H 0.7702 0.8593 0.4591
C24_3 C 0.7674(4) 0.7835(4) 0.3862(3)
H16_3 H 0.7135 0.7608 0.3953
N2_3 N 0.5134(3) 0.4454(3) 0.3538(2)
N4_3 N 0.6498(3) 0.4452(3) 0.3619(2)
N5_3 N 0.7315(3) 0.4283(4) 0.3833(3)
H17_3 H 0.7525 0.4740 0.4002
H18_3 H 0.7601 0.4158 0.3497
C25_3 C 0.2410(4) 0.9605(4) 0.0354(3)
H19_3 H 0.2354 0.9913 0.0726
C26_3 C 0.3074(4) 0.9036(4) 0.0304(3)
H20_3 H 0.3464 0.8972 0.0632
C31_3 C 0.4537(4) 0.7897(4) 0.0088(3)
H23_3 H 0.4615 0.8336 0.0379
C32_3 C 0.5136(4) 0.7276(4) 0.0038(3)
H24_3 H 0.5627 0.7297 0.0288
C27_3 C 0.3163(4) 0.8564(4) 0.9775(3)
C28_3 C 0.2585(4) 0.8722(4) 0.9307(3)
H21_3 H 0.2624 0.8426 0.8929
C29_3 C 0.1959(4) 0.9305(4) 0.9394(3)
H22_3 H 0.1578 0.9405 0.9066
C30_3 C 0.3816(4) 0.7895(4) 0.9720(3)
C33_3 C 0.5030(4) 0.6618(4) 0.9626(3)
H25_3 H 0.5443 0.6186 0.9592
C34_3 C 0.4306(3) 0.6600(3) 0.9262(2)
C35_3 C 0.3721(3) 0.7233(4) 0.9305(3)
H26_3 H 0.3240 0.7221 0.9045
C36_3 C 0.4229(3) 0.5900(3) 0.8818(2)
C37_3 C 0.3716(4) 0.4954(3) 0.8196(2)
C38_3 C 0.3098(3) 0.4395(4) 0.7893(2)
C39_3 C 0.2786(4) 0.4571(4) 0.7314(3)
H27_3 H 0.2978 0.5051 0.7093
C40_3 C 0.2184(4) 0.4031(4) 0.7059(3)
H28_3 H 0.1975 0.4138 0.6657
C41_3 C 0.1892(4) 0.3349(4) 0.7383(2)
H29_3 H 0.1478 0.2992 0.7204
C42_3 C 0.2197(3) 0.3171(3) 0.7974(2)
C43_3 C 0.2803(4) 0.3706(4) 0.8219(2)
H30_3 H 0.3019 0.3597 0.8618
C44_3 C 0.1887(4) 0.2449(4) 0.8343(3)
C45_3 C 0.1150(4) 0.2014(4) 0.8206(2)
H31_3 H 0.0844 0.2145 0.7843
C46_3 C 0.0862(4) 0.1391(4) 0.8598(3)
H32_3 H 0.0369 0.1088 0.8484
C47_3 C 0.1989(4) 0.1567(4) 0.9236(3)
H33_3 H 0.2298 0.1407 0.9591
C48_3 C 0.2326(4) 0.2165(4) 0.8862(3)
H34_3 H 0.2865 0.2392 0.8953
N9_3 N 0.4866(3) 0.5546(3) 0.8538(2)
N13_3 N 0.3502(3) 0.5548(3) 0.8619(2)
N14_3 N 0.2685(3) 0.5717(4) 0.8833(3)
H35_3 H 0.2475 0.5260 0.9002
H36_3 H 0.2399 0.5842 0.8497
C13_4 C 0.0046(3) 0.8716(4) 0.0696(2)
C14_4 C 0.0605(4) 0.8098(3) 0.0393(2)
C18_4 C 0.1829(3) 0.7197(3) 0.0474(2)
C19_4 C 0.1294(4) 0.7803(4) 0.0719(2)
H12_4 H 0.1403 0.8019 0.1118
C20_4 C 0.2551(4) 0.6887(4) 0.0843(3)
C21_4 C 0.2986(4) 0.6150(4) 0.0706(2)
H13_4 H 0.2855 0.5844 0.0343
C22_4 C 0.3609(4) 0.5862(4) 0.1098(3)
H14_4 H 0.3912 0.5369 0.0984
C23_4 C 0.3433(4) 0.6989(4) 0.1736(3)
H15_4 H 0.3593 0.7298 0.2091
C24_4 C 0.2835(4) 0.7326(4) 0.1362(3)
H16_4 H 0.2608 0.7865 0.1453
C8_4 C 0.7724(4) 0.0136(4) 0.2538(3)
H6_4 H 0.7703 0.0627 0.2788
C9_4 C 0.8382(4) 0.0030(4) 0.2126(3)
H7_4 H 0.8814 0.0443 0.2092
C1_4 C 0.5395(4) 0.7410(4) 0.2854(3)
H1_4 H 0.5087 0.7354 0.3226
C2_4 C 0.5964(4) 0.8074(4) 0.2804(3)
H2_4 H 0.6028 0.8464 0.3132
C3_4 C 0.6436(4) 0.8163(4) 0.2275(3)
C4_4 C 0.6278(4) 0.7585(4) 0.1807(3)
H3_4 H 0.6574 0.7624 0.1429
C5_4 C 0.5695(4) 0.6959(4) 0.1894(3)
H4_4 H 0.5595 0.6578 0.1566
C6_4 C 0.7105(4) 0.8816(4) 0.2220(3)
C7_4 C 0.7103(4) 0.9537(4) 0.2588(3)
H5_4 H 0.6664 0.9615 0.2879
C10_4 C 0.8400(3) 0.9306(3) 0.1762(2)
C11_4 C 0.7767(4) 0.8721(3) 0.1805(3)
H8_4 H 0.7779 0.8240 0.1545
C12_4 C 0.9100(3) 0.9229(3) 0.1318(2)
N2_4 N 0.9454(3) 0.9866(3) 0.1038(2)
N4_4 N 0.9452(3) 0.8502(3) 0.1119(2)
N5_4 N 0.9283(4) 0.7685(3) 0.1333(3)
H17_4 H 0.9740 0.7475 0.1502
H18_4 H 0.9158 0.7399 0.0997
C25_4 C 0.4605(4) 0.2590(4) 0.7854(3)
H19_4 H 0.4913 0.2646 0.8226
C26_4 C 0.4036(4) 0.1926(4) 0.7804(3)
H20_4 H 0.3972 0.1536 0.8132
C27_4 C 0.3564(4) 0.1837(4) 0.7275(3)
C28_4 C 0.3722(4) 0.2415(4) 0.6807(3)
H21_4 H 0.3426 0.2376 0.6429
C29_4 C 0.4305(4) 0.3041(4) 0.6894(3)
H22_4 H 0.4405 0.3422 0.6566
C30_4 C 0.2895(4) 0.1184(4) 0.7220(3)
C31_4 C 0.2897(4) 0.0463(4) 0.7588(3)
H23_4 H 0.3336 0.0385 0.7879
C34_4 C 0.1600(3) 0.0694(3) 0.6762(2)
C35_4 C 0.2233(4) 0.1279(3) 0.6805(3)
H26_4 H 0.2221 0.1760 0.6545
C36_4 C 0.0900(3) 0.0771(3) 0.6318(2)
H27_4 H 0.0051 0.2022 0.4593
N9_4 N 0.0546(3) 0.0134(3) 0.6038(2)
N13_4 N 0.0548(3) 0.1498(3) 0.6119(2)
N14_4 N 0.0717(4) 0.2315(3) 0.6333(3)
H35_4 H 0.0260 0.2525 0.6502
H36_4 H 0.0842 0.2601 0.5997
C32_4 C 0.2276(4) 0.9864(4) 0.7538(3)
H24_4 H 0.2297 0.9373 0.7788
C33_4 C 0.1618(4) 0.9970(4) 0.7126(3)
H25_4 H 0.1186 0.9557 0.7092
C37_4 C 0.9954(3) 0.1284(4) 0.5696(2)
C38_4 C 0.9395(4) 0.1902(3) 0.5393(2)
C39_4 C 0.9571(4) 0.2214(4) 0.4814(3)
C40_4 C 0.9031(4) 0.2816(4) 0.4559(3)
H28_4 H 0.9138 0.3025 0.4157
C41_4 C 0.8349(4) 0.3108(4) 0.4883(2)
H29_4 H 0.7992 0.3522 0.4704
C42_4 C 0.8171(3) 0.2803(3) 0.5474(2)
C43_4 C 0.8706(4) 0.2197(4) 0.5719(2)
H30_4 H 0.8597 0.1981 0.6118
C44_4 C 0.7449(4) 0.3113(4) 0.5843(3)
C45_4 C 0.7014(4) 0.3850(4) 0.5706(2)
H31_4 H 0.7145 0.4156 0.5343
C46_4 C 0.6391(4) 0.4138(4) 0.6098(3)
H32_4 H 0.6088 0.4631 0.5984
C47_4 C 0.6567(4) 0.3011(4) 0.6736(3)
H33_4 H 0.6407 0.2702 0.7091
C48_4 C 0.7165(4) 0.2674(4) 0.6362(3)
H34_4 H 0.7392 0.2135 0.6453
C15_3 C 0.7786(4) 0.0429(4) 0.0186(3)
C16_3 C 0.7184(4) 0.0969(4) 0.0441(3)
H10_3 H 0.6975 0.0862 0.0843
C17_3 C 0.6892(4) 0.1651(4) 0.0117(2)
H11_3 H 0.6478 0.2008 0.0296
H9_3 H 0.7978 0.9949 0.0407
C15_4 C 0.0429(4) 0.7786(4) 0.9814(3)
C16_4 C 0.0969(4) 0.7184(4) 0.9559(3)
H10_4 H 0.0862 0.6975 0.9157
C17_4 C 0.1651(4) 0.6892(4) 0.9883(2)
H11_4 H 0.2008 0.6478 0.9704
H9_4 H 0.9949 0.7978 0.9593
Cl1 Cl 0.12554(14) 0.87446(14) 0.2500
O1 O 0.1133(13) 0.7878(9) 0.2453(13)
O2 O 0.0744(13) 0.8864(12) 0.2053(8)
O3 O 0.2122(9) 0.8867(13) 0.2547(13)
O4 O 0.1136(12) 0.9256(13) 0.2947(8)
Cl1_2 Cl 0.87446(14) 0.12554(14) 0.7500
O1_2 O 0.8867(13) 0.2122(9) 0.7453(13)
O2_2 O 0.9256(13) 0.1136(12) 0.7053(8)
O3_2 O 0.7878(9) 0.1133(13) 0.7547(13)
O4_2 O 0.8864(12) 0.0744(13) 0.7947(8)
Cl1_3 Cl 0.62554(14) 0.62554(14) 0.5000
O1_3 O 0.7122(9) 0.6133(13) 0.4953(13)
O2_3 O 0.6136(12) 0.5744(13) 0.4553(8)
O3_3 O 0.6133(13) 0.7122(9) 0.5047(13)
O4_3 O 0.5744(13) 0.6136(12) 0.5447(8)
Cl1_4 Cl 0.37446(14) 0.37446(14) 0.0000
O3_4 O 0.3867(13) 0.2878(9) 0.0047(13)
O4_4 O 0.4256(13) 0.3864(12) 0.0447(8)
Cl1_5 Cl 0.37446(14) 0.37446(14) 1.0000
O1_4 O 0.2878(9) 0.3867(13) 0.9953(13)
O2_4 O 0.3864(12) 0.4256(13) 0.9553(8)
Cl2 Cl 0.76932(13) 0.76932(13) 0.0000
O6 O 0.7096(13) 0.8367(14) 0.0251(14)
O7 O 0.7457(7) 0.7269(7) 0.0503(4)
Cl2_2 Cl 0.76932(13) 0.76932(13) 1.0000
O5 O 0.7269(7) 0.7457(7) 0.9497(4)
O8 O 0.8367(14) 0.7096(13) 0.9749(14)
Cl2_3 Cl 0.23068(13) 0.23068(13) 0.5000
O5_2 O 0.2731(7) 0.2543(7) 0.4497(4)
O6_2 O 0.2904(13) 0.1633(14) 0.5251(14)
O7_2 O 0.2543(7) 0.2731(7) 0.5503(4)
O8_2 O 0.1633(14) 0.2904(13) 0.4749(14)
Cl2_4 Cl 0.73068(13) 0.26932(13) 0.2500
O5_3 O 0.7543(7) 0.2269(7) 0.1997(4)
O6_3 O 0.6633(14) 0.2096(13) 0.2751(14)
O7_3 O 0.7731(7) 0.2457(7) 0.3003(4)
O8_3 O 0.7904(13) 0.3367(14) 0.2249(14)
Cl2_5 Cl 0.26932(13) 0.73068(13) 0.7500
O5_4 O 0.2457(7) 0.7731(7) 0.6997(4)
O6_4 O 0.3367(14) 0.7904(13) 0.7751(14)
O7_4 O 0.2269(7) 0.7543(7) 0.8003(4)
O8_4 O 0.2096(13) 0.6633(14) 0.7249(14)
loop_
_geom_bond_atom_site_label_1
_geom_bond_atom_site_label_2
_geom_bond_site_symmetry_1
_geom_bond_site_symmetry_2
H6 C8 1_555 1_555
C9 C8 1_555 1_555
H7 C9 1_555 1_555
C13 C14 1_555 1_555
C19 C14 1_555 1_555
H12 C19 1_555 1_555
C20 C18 1_555 1_555
C21 C20 1_555 1_555
H13 C21 1_555 1_555
C22 C21 1_555 1_555
H14 C22 1_555 1_555
C23 H15 1_555 1_555
C24 C20 1_555 1_555
H16 C24 1_555 1_555
N3 C13 1_555 1_555
N6 C22 1_555 1_555
Cd3 N6 1_555 1_555
C18 C19 1_555 1_555
C23 C24 1_555 1_555
C23 N6 1_555 1_555
C1 H1 1_555 1_555
C2 C1 1_555 1_555
H2 C2 1_555 1_555
C3 C2 1_555 1_555
C4 C3 1_555 1_555
H3 C4 1_555 1_555
C5 C4 1_555 1_555
H4 C5 1_555 1_555
C6 C3 1_555 1_555
C7 C6 1_555 1_555
H5 C7 1_555 1_555
C11 C6 1_555 1_555
H8 C11 1_555 1_555
C12 C10 1_555 1_555
Cd3 N1 1_555 1_555
N1 C1 1_555 1_555
N2 C12 1_555 1_555
N4 C12 1_555 1_555
N5 N4 1_555 1_555
H17 N5 1_555 1_555
H18 N5 1_555 1_555
N8 Cd3 1_555 1_555
N11 Cd3 1_555 1_555
N12 Cd3 1_555 1_555
N16 Cd3 1_555 1_555
C5 N1 1_555 1_555
C10 C11 1_555 1_555
C25 H19 1_555 1_555
C26 C25 1_555 1_555
H20 C26 1_555 1_555
C27 C26 1_555 1_555
C28 C27 1_555 1_555
H21 C28 1_555 1_555
C29 C28 1_555 1_555
H22 C29 1_555 1_555
C30 C27 1_555 1_555
C31 C30 1_555 1_555
H23 C31 1_555 1_555
C35 C30 1_555 1_555
H26 C35 1_555 1_555
C36 C34 1_555 1_555
Cd4 N7 1_555 1_555
N7 C25 1_555 1_555
N9 C36 1_555 1_555
N13 C36 1_555 1_555
N14 N13 1_555 1_555
H35 N14 1_555 1_555
H36 N14 1_555 1_555
C29 N7 1_555 1_555
C34 C35 1_555 1_555
C37 C38 1_555 1_555
C38 C39 1_555 1_555
C40 C39 1_555 1_555
H28 C40 1_555 1_555
C41 C40 1_555 1_555
H29 C41 1_555 1_555
C42 C41 1_555 1_555
C43 C38 1_555 1_555
H30 C43 1_555 1_555
C44 C42 1_555 1_555
C45 C44 1_555 1_555
H31 C45 1_555 1_555
C46 C45 1_555 1_555
H32 C46 1_555 1_555
C47 H33 1_555 1_555
C48 C44 1_555 1_555
H34 C48 1_555 1_555
N8_2 Cd4 1_555 1_555
N10 C37 1_555 1_555
N11_2 Cd4 1_555 1_555
N12_2 Cd4 1_555 1_555
N15 Cd4 1_555 1_555
N16_2 Cd4 1_555 1_555
C42 C43 1_555 1_555
C46 N15 1_555 1_555
C47 C48 1_555 1_555
C47 N15 1_555 1_555
H24 C32 1_555 1_555
C33 C32 1_555 1_555
H25 C33 1_555 1_555
C28_2 C27_2 1_555 1_555
H21_2 C28_2 1_555 1_555
C29_2 C28_2 1_555 1_555
H22_2 C29_2 1_555 1_555
C30_2 C27_2 1_555 1_555
H25_2 C33_2 1_555 1_555
C34_2 C33_2 1_555 1_555
C35_2 C30_2 1_555 1_555
H26_2 C35_2 1_555 1_555
C36_2 C34_2 1_555 1_555
C37_2 C38_2 1_555 1_555
C38_2 C39_2 1_555 1_555
C39_2 H27_2 1_555 1_555
C40_2 C39_2 1_555 1_555
H28_2 C40_2 1_555 1_555
C41_2 C40_2 1_555 1_555
H29_2 C41_2 1_555 1_555
C42_2 C41_2 1_555 1_555
C43_2 C38_2 1_555 1_555
H30_2 C43_2 1_555 1_555
C44_2 C42_2 1_555 1_555
C45_2 C44_2 1_555 1_555
H31_2 C45_2 1_555 1_555
C46_2 C45_2 1_555 1_555
H32_2 C46_2 1_555 1_555
C47_2 H33_2 1_555 1_555
C48_2 C44_2 1_555 1_555
H34_2 C48_2 1_555 1_555
N9_2 C36_2 1_555 1_555
N12_2 C37_2 1_555 1_555
N13_2 C36_2 1_555 1_555
N14_2 N13_2 1_555 1_555
H35_2 N14_2 1_555 1_555
H36_2 N14_2 1_555 1_555
N15_2 Cd2 1_555 1_555
C29_2 N7_2 1_555 1_555
C34_2 C35_2 1_555 1_555
C37_2 N13_2 1_555 1_555
C42_2 C43_2 1_555 1_555
C46_2 N15_2 1_555 1_555
C47_2 C48_2 1_555 1_555
C47_2 N15_2 1_555 1_555
N9_2 N12_2 1_555 1_555
C25_2 H19_2 1_555 1_555
C26_2 C25_2 1_555 1_555
H20_2 C26_2 1_555 1_555
H23_2 C31_2 1_555 1_555
C32_2 C31_2 1_555 1_555
H24_2 C32_2 1_555 1_555
N16_3 Cd2_2 1_555 1_555
C1_2 H1_2 1_555 1_555
C2_2 C1_2 1_555 1_555
H2_2 C2_2 1_555 1_555
C3_2 C2_2 1_555 1_555
C4_2 C3_2 1_555 1_555
H3_2 C4_2 1_555 1_555
C5_2 C4_2 1_555 1_555
H4_2 C5_2 1_555 1_555
C6_2 C3_2 1_555 1_555
C7_2 C6_2 1_555 1_555
H5_2 C7_2 1_555 1_555
C8_2 C7_2 1_555 1_555
H6_2 C8_2 1_555 1_555
C9_2 C8_2 1_555 1_555
H7_2 C9_2 1_555 1_555
C10_2 C9_2 1_555 1_555
C11_2 C6_2 1_555 1_555
H8_2 C11_2 1_555 1_555
C12_2 C10_2 1_555 1_555
C13_2 C14_2 1_555 1_555
C14_2 C15 1_555 1_555
C15 H9 1_555 1_555
C16 C15 1_555 1_555
H10 C16 1_555 1_555
C17 C16 1_555 1_555
H11 C17 1_555 1_555
C18_2 C17 1_555 1_555
C19_2 C14_2 1_555 1_555
H12_2 C19_2 1_555 1_555
C20_2 C18_2 1_555 1_555
C21_2 C20_2 1_555 1_555
H13_2 C21_2 1_555 1_555
C22_2 C21_2 1_555 1_555
H14_2 C22_2 1_555 1_555
C23_2 H15_2 1_555 1_555
C24_2 C20_2 1_555 1_555
H16_2 C24_2 1_555 1_555
N1_2 C1_2 1_555 1_555
N2_2 C12_2 1_555 1_555
N12 C13_2 1_555 1_555
N4_2 C12_2 1_555 1_555
N5_2 N4_2 1_555 1_555
H17_2 N5_2 1_555 1_555
H18_2 N5_2 1_555 1_555
N6_2 C22_2 1_555 1_555
Cd5 N6_2 1_555 1_555
C5_2 N1_2 1_555 1_555
C10_2 C11_2 1_555 1_555
C13_2 N4_2 1_555 1_555
C18_2 C19_2 1_555 1_555
C23_2 C24_2 1_555 1_555
C23_2 N6_2 1_555 1_555
N2_2 N12 1_555 1_555
N16_4 Cd5 1_555 1_555
C1_3 H1_3 1_555 1_555
C2_3 C1_3 1_555 1_555
H2_3 C2_3 1_555 1_555
C3_3 C2_3 1_555 1_555
C4_3 C3_3 1_555 1_555
H3_3 C4_3 1_555 1_555
C5_3 C4_3 1_555 1_555
H4_3 C5_3 1_555 1_555
C6_3 C3_3 1_555 1_555
C7_3 C6_3 1_555 1_555
H5_3 C7_3 1_555 1_555
C8_3 C7_3 1_555 1_555
H6_3 C8_3 1_555 1_555
C9_3 C8_3 1_555 1_555
H7_3 C9_3 1_555 1_555
C10_3 C9_3 1_555 1_555
C11_3 C6_3 1_555 1_555
H8_3 C11_3 1_555 1_555
C12_3 C10_3 1_555 1_555
C13_3 C14_3 1_555 1_555
C14_3 C15_2 1_555 1_555
C15_2 H9_2 1_555 1_555
C16_2 C15_2 1_555 1_555
H10_2 C16_2 1_555 1_555
C17_2 C16_2 1_555 1_555
H11_2 C17_2 1_555 1_555
C18_3 C17_2 1_555 1_555
C19_3 C14_3 1_555 1_555
H12_3 C19_3 1_555 1_555
C20_3 C18_3 1_555 1_555
C21_3 C20_3 1_555 1_555
H13_3 C21_3 1_555 1_555
C22_3 C21_3 1_555 1_555
H14_3 C22_3 1_555 1_555
C23_3 H15_3 1_555 1_555
C24_3 C20_3 1_555 1_555
H16_3 C24_3 1_555 1_555
N8_4 C1_3 1_555 1_555
N2_3 C12_3 1_555 1_555
N11_2 C13_3 1_555 1_555
N4_3 C12_3 1_555 1_555
N5_3 N4_3 1_555 1_555
H17_3 N5_3 1_555 1_555
H18_3 N5_3 1_555 1_555
N16_4 C22_3 1_555 1_555
C5_3 N8_4 1_555 1_555
C10_3 C11_3 1_555 1_555
C13_3 N4_3 1_555 1_555
C18_3 C19_3 1_555 1_555
C23_3 C24_3 1_555 1_555
C23_3 N16_4 1_555 1_555
N2_3 N11_2 1_555 1_555
C25_3 H19_3 1_555 1_555
C26_3 C25_3 1_555 1_555
H20_3 C26_3 1_555 1_555
H23_3 C31_3 1_555 1_555
C32_3 C31_3 1_555 1_555
H24_3 C32_3 1_555 1_555
C28_3 C27_3 1_555 1_555
H21_3 C28_3 1_555 1_555
C29_3 C28_3 1_555 1_555
H22_3 C29_3 1_555 1_555
C30_3 C27_3 1_555 1_555
H25_3 C33_3 1_555 1_555
C34_3 C33_3 1_555 1_555
C35_3 C30_3 1_555 1_555
H26_3 C35_3 1_555 1_555
C36_3 C34_3 1_555 1_555
C37_3 C38_3 1_555 1_555
C38_3 C39_3 1_555 1_555
C39_3 H27_3 1_555 1_555
C40_3 C39_3 1_555 1_555
H28_3 C40_3 1_555 1_555
C41_3 C40_3 1_555 1_555
H29_3 C41_3 1_555 1_555
C42_3 C41_3 1_555 1_555
C43_3 C38_3 1_555 1_555
H30_3 C43_3 1_555 1_555
C44_3 C42_3 1_555 1_555
C45_3 C44_3 1_555 1_555
H31_3 C45_3 1_555 1_555
C46_3 C45_3 1_555 1_555
H32_3 C46_3 1_555 1_555
C47_3 H33_3 1_555 1_555
C48_3 C44_3 1_555 1_555
H34_3 C48_3 1_555 1_555
N9_3 C36_3 1_555 1_555
N11 C37_3 1_555 1_555
N13_3 C36_3 1_555 1_555
N14_3 N13_3 1_555 1_555
H35_3 N14_3 1_555 1_555
H36_3 N14_3 1_555 1_555
C29_3 N8_3 1_555 1_555
C34_3 C35_3 1_555 1_555
C37_3 N13_3 1_555 1_555
C42_3 C43_3 1_555 1_555
C46_3 N16_3 1_555 1_555
C47_3 C48_3 1_555 1_555
C47_3 N16_3 1_555 1_555
N9_3 N11 1_555 1_555
C13_4 C14_4 1_555 1_555
C19_4 C14_4 1_555 1_555
H12_4 C19_4 1_555 1_555
C20_4 C18_4 1_555 1_555
C21_4 C20_4 1_555 1_555
H13_4 C21_4 1_555 1_555
C22_4 C21_4 1_555 1_555
H14_4 C22_4 1_555 1_555
C23_4 H15_4 1_555 1_555
C24_4 C20_4 1_555 1_555
H16_4 C24_4 1_555 1_555
N11_3 C13_4 1_555 1_555
N16_2 C22_4 1_555 1_555
C18_4 C19_4 1_555 1_555
C23_4 C24_4 1_555 1_555
C23_4 N16_2 1_555 1_555
H6_4 C8_4 1_555 1_555
C9_4 C8_4 1_555 1_555
H7_4 C9_4 1_555 1_555
C1_4 H1_4 1_555 1_555
C2_4 C1_4 1_555 1_555
H2_4 C2_4 1_555 1_555
C3_4 C2_4 1_555 1_555
C4_4 C3_4 1_555 1_555
H3_4 C4_4 1_555 1_555
C5_4 C4_4 1_555 1_555
H4_4 C5_4 1_555 1_555
C6_4 C3_4 1_555 1_555
C7_4 C6_4 1_555 1_555
H5_4 C7_4 1_555 1_555
C11_4 C6_4 1_555 1_555
H8_4 C11_4 1_555 1_555
C12_4 C10_4 1_555 1_555
N8_2 C1_4 1_555 1_555
N2_4 C12_4 1_555 1_555
N4_4 C12_4 1_555 1_555
N5_4 N4_4 1_555 1_555
H17_4 N5_4 1_555 1_555
H18_4 N5_4 1_555 1_555
C5_4 N8_2 1_555 1_555
C10_4 C11_4 1_555 1_555
C25_4 H19_4 1_555 1_555
C26_4 C25_4 1_555 1_555
H20_4 C26_4 1_555 1_555
C27_4 C26_4 1_555 1_555
C28_4 C27_4 1_555 1_555
H21_4 C28_4 1_555 1_555
C29_4 C28_4 1_555 1_555
H22_4 C29_4 1_555 1_555
C30_4 C27_4 1_555 1_555
C31_4 C30_4 1_555 1_555
H23_4 C31_4 1_555 1_555
C35_4 C30_4 1_555 1_555
H26_4 C35_4 1_555 1_555
C36_4 C34_4 1_555 1_555
N8 C25_4 1_555 1_555
N9_4 C36_4 1_555 1_555
N13_4 C36_4 1_555 1_555
N14_4 N13_4 1_555 1_555
H35_4 N14_4 1_555 1_555
H36_4 N14_4 1_555 1_555
C29_4 N8 1_555 1_555
C34_4 C35_4 1_555 1_555
H24_4 C32_4 1_555 1_555
C33_4 C32_4 1_555 1_555
H25_4 C33_4 1_555 1_555
C37_4 C38_4 1_555 1_555
C38_4 C39_4 1_555 1_555
C40_4 C39_4 1_555 1_555
H28_4 C40_4 1_555 1_555
C41_4 C40_4 1_555 1_555
H29_4 C41_4 1_555 1_555
C42_4 C41_4 1_555 1_555
C43_4 C38_4 1_555 1_555
H30_4 C43_4 1_555 1_555
C44_4 C42_4 1_555 1_555
C45_4 C44_4 1_555 1_555
H31_4 C45_4 1_555 1_555
C46_4 C45_4 1_555 1_555
H32_4 C46_4 1_555 1_555
C47_4 H33_4 1_555 1_555
C48_4 C44_4 1_555 1_555
H34_4 C48_4 1_555 1_555
N11_4 C37_4 1_555 1_555
C42_4 C43_4 1_555 1_555
C46_4 N16 1_555 1_555
C47_4 C48_4 1_555 1_555
C47_4 N16 1_555 1_555
C16_3 C15_3 1_555 1_555
H10_3 C16_3 1_555 1_555
C17_3 C16_3 1_555 1_555
H11_3 C17_3 1_555 1_555
C16_4 C15_4 1_555 1_555
H10_4 C16_4 1_555 1_555
C17_4 C16_4 1_555 1_555
H11_4 C17_4 1_555 1_555
Cl1 O1 1_555 1_555
O2 Cl1 1_555 1_555
O3 Cl1 1_555 1_555
O4 Cl1 1_555 1_555
Cl1_2 O1_2 1_555 1_555
O2_2 Cl1_2 1_555 1_555
O3_2 Cl1_2 1_555 1_555
O4_2 Cl1_2 1_555 1_555
Cl1_3 O1_3 1_555 1_555
O2_3 Cl1_3 1_555 1_555
O3_3 Cl1_3 1_555 1_555
O4_3 Cl1_3 1_555 1_555
O3_4 Cl1_4 1_555 1_555
O4_4 Cl1_4 1_555 1_555
Cl1_5 O1_4 1_555 1_555
O2_4 Cl1_5 1_555 1_555
O6 Cl2 1_555 1_555
O7 Cl2 1_555 1_555
Cl2_2 O5 1_555 1_555
O8 Cl2_2 1_555 1_555
Cl2_3 O5_2 1_555 1_555
O6_2 Cl2_3 1_555 1_555
O7_2 Cl2_3 1_555 1_555
O8_2 Cl2_3 1_555 1_555
Cl2_4 O5_3 1_555 1_555
O6_3 Cl2_4 1_555 1_555
O7_3 Cl2_4 1_555 1_555
O8_3 Cl2_4 1_555 1_555
Cl2_5 O5_4 1_555 1_555
O6_4 Cl2_5 1_555 1_555
O7_4 Cl2_5 1_555 1_555
O8_4 Cl2_5 1_555 1_555

#END
