
###############################################################################
#
# This file contains modified crystal structure data generated from the
# MOF subset of the Cambridge Structural Database (CSD) v543 
# hosted by the Cambridge Crystallographic Data Centre (CCDC).
#
# This work is licensed under the Creative Commons
# Attribution-NonCommercial-ShareAlike 4.0 International License.
# To view a copy of this license, visit
# http://creativecommons.org/licenses/by-nc-sa/4.0/
# or send a letter to
# Creative Commons, PO Box 1866, Mountain View, CA 94042, USA.
#
# CIF created using the CSD Python API on 29 September 2022
# The structure has been converted into the P1 space group
# The structure has a 3D framework
# The original CSD entry SAHYIK is in the cubic crystal system
# The framework has been calculated to contain at least 10.0% void space
# The void calculation uses a probe of radius 1.32A, grid spacing 0.4
#
###############################################################################

data_SAHYIK
_chemical_formula_moiety         '(C192 H96 O104 Zn32)n'
_symmetry_cell_setting           triclinic
_symmetry_space_group_name_H-M   'P 1'
_symmetry_Int_Tables_number      1
_space_group_name_Hall           'P 1'
loop_
_symmetry_equiv_pos_site_id
_symmetry_equiv_pos_as_xyz
1 x,y,z
_cell_length_a                   25.6690(3)
_cell_length_b                   25.6690(3)
_cell_length_c                   25.6690(3)
_cell_angle_alpha                90
_cell_angle_beta                 90
_cell_angle_gamma                90
_cell_volume                     16913.2
loop_
_atom_site_label
_atom_site_type_symbol
_atom_site_fract_x
_atom_site_fract_y
_atom_site_fract_z
Zn1 Zn 0.2935(1) 0.2065(1) 0.2065(1)
O1 O 0.2500 0.2500 0.2500
O2 O 0.2818(3) 0.2182(3) 0.1339(4)
C1 C 0.2500 0.2500 0.1105(7)
C2 C 0.2831(4) 0.2169(4) 0.0263(6)
C3 C 0.2500 0.2500 0.0538(6)
H1 H 0.3059 0.1941 0.0452
Zn2 Zn 0.2065(1) 0.2065(1) 0.2935(1)
O3 O 0.2182(3) 0.1339(4) 0.2818(3)
C4 C 0.2500 0.1105(7) 0.2500
O4 O 0.2818(3) 0.1339(4) 0.2182(3)
O5 O 0.2182(3) 0.2818(3) 0.1339(4)
Zn3 Zn 0.2065(1) 0.2935(1) 0.2065(1)
Zn4 Zn 0.2935(1) 0.2935(1) 0.2935(1)
O6 O 0.2818(3) 0.2818(3) 0.3661(4)
O7 O 0.2182(3) 0.2182(3) 0.3661(4)
O8 O 0.1339(4) 0.2182(3) 0.2818(3)
O9 O 0.1339(4) 0.2818(3) 0.2182(3)
O10 O 0.2182(3) 0.3661(4) 0.2182(3)
O11 O 0.2818(3) 0.3661(4) 0.2818(3)
O12 O 0.3661(4) 0.2818(3) 0.2818(3)
C5 C 0.3895(7) 0.2500 0.2500
O13 O 0.3661(4) 0.2182(3) 0.2182(3)
C6 C 0.4462(6) 0.2500 0.2500
C7 C 0.4737(6) 0.2831(4) 0.2831(4)
C8 C 0.5263(6) 0.2831(4) 0.2831(4)
C9 C 0.5538(6) 0.2500 0.2500
C10 C 0.6105(7) 0.2500 0.2500
O14 O 0.6339(4) 0.2818(3) 0.2818(3)
Zn5 Zn 0.7065(1) 0.2935(1) 0.2935(1)
Zn6 Zn 0.7065(1) 0.2065(1) 0.2065(1)
O15 O 0.6339(4) 0.2182(3) 0.2182(3)
C11 C 0.5263(6) 0.2169(4) 0.2169(4)
C12 C 0.4737(6) 0.2169(4) 0.2169(4)
H2 H 0.4548 0.1941 0.1941
H3 H 0.5452 0.1941 0.1941
H4 H 0.5452 0.3059 0.3059
H5 H 0.4548 0.3059 0.3059
C13 C 0.2500 0.0538(6) 0.2500
C15 C 0.2169(4) 0.2831(4) 0.0263(6)
H6 H 0.1941 0.3059 0.0452
C17 C 0.2169(4) 0.0263(6) 0.2831(4)
C18 C 0.2831(4) 0.0263(6) 0.2169(4)
H9 H 0.1941 0.0452 0.3059
H10 H 0.3059 0.0452 0.1941
C14 C 0.2831(4) 0.2169(4) 0.9737(6)
C16 C 0.2169(4) 0.2831(4) 0.9737(6)
C19 C 0.2500 0.2500 0.9462(6)
H7 H 0.3059 0.1941 0.9548
H8 H 0.1941 0.3059 0.9548
C22 C 0.2500 0.2500 0.8895(7)
O16 O 0.2182(3) 0.2818(3) 0.8661(4)
O17 O 0.2818(3) 0.2182(3) 0.8661(4)
Zn7 Zn 0.2065(1) 0.2935(1) 0.7935(1)
Zn8 Zn 0.2935(1) 0.2065(1) 0.7935(1)
C20 C 0.2169(4) 0.9737(6) 0.2831(4)
C21 C 0.2831(4) 0.9737(6) 0.2169(4)
C23 C 0.2500 0.9462(6) 0.2500
H11 H 0.1941 0.9548 0.3059
H12 H 0.3059 0.9548 0.1941
C24 C 0.2500 0.8895(7) 0.2500
O18 O 0.2818(3) 0.8661(4) 0.2182(3)
O19 O 0.2182(3) 0.8661(4) 0.2818(3)
Zn9 Zn 0.2935(1) 0.7935(1) 0.2065(1)
Zn10 Zn 0.2065(1) 0.7935(1) 0.2935(1)
C20_2 C 0.0263(6) 0.2169(4) 0.2831(4)
C21_2 C 0.0263(6) 0.2831(4) 0.2169(4)
C23_2 C 0.0538(6) 0.2500 0.2500
H11_2 H 0.0452 0.1941 0.3059
H12_2 H 0.0452 0.3059 0.1941
C24_2 C 0.1105(7) 0.2500 0.2500
Zn1_2 Zn 0.7935(1) 0.2935(1) 0.2065(1)
O1_2 O 0.7500 0.2500 0.2500
O2_2 O 0.7818(3) 0.2818(3) 0.1339(4)
C1_2 C 0.7500 0.2500 0.1105(7)
C2_2 C 0.7831(4) 0.2831(4) 0.0263(6)
C3_2 C 0.7500 0.2500 0.0538(6)
H1_2 H 0.8059 0.3059 0.0452
Zn2_2 Zn 0.7935(1) 0.2065(1) 0.2935(1)
O3_2 O 0.8661(4) 0.2182(3) 0.2818(3)
C4_2 C 0.8895(7) 0.2500 0.2500
O4_2 O 0.8661(4) 0.2818(3) 0.2182(3)
O5_2 O 0.7182(3) 0.2182(3) 0.1339(4)
O6_2 O 0.7182(3) 0.2818(3) 0.3661(4)
O7_2 O 0.7818(3) 0.2182(3) 0.3661(4)
O8_2 O 0.7818(3) 0.1339(4) 0.2818(3)
O9_2 O 0.7182(3) 0.1339(4) 0.2182(3)
O12_2 O 0.7182(3) 0.3661(4) 0.2818(3)
C5_2 C 0.7500 0.3895(7) 0.2500
O13_2 O 0.7818(3) 0.3661(4) 0.2182(3)
C6_2 C 0.7500 0.4462(6) 0.2500
C7_2 C 0.7169(4) 0.4737(6) 0.2831(4)
C8_2 C 0.7169(4) 0.5263(6) 0.2831(4)
C9_2 C 0.7500 0.5538(6) 0.2500
C10_2 C 0.7500 0.6105(7) 0.2500
O14_2 O 0.7182(3) 0.6339(4) 0.2818(3)
Zn5_2 Zn 0.7065(1) 0.7065(1) 0.2935(1)
Zn6_2 Zn 0.7935(1) 0.7065(1) 0.2065(1)
O15_2 O 0.7818(3) 0.6339(4) 0.2182(3)
C11_2 C 0.7831(4) 0.5263(6) 0.2169(4)
C12_2 C 0.7831(4) 0.4737(6) 0.2169(4)
H2_2 H 0.8059 0.4548 0.1941
H3_2 H 0.8059 0.5452 0.1941
H4_2 H 0.6941 0.5452 0.3059
H5_2 H 0.6941 0.4548 0.3059
C13_2 C 0.9462(6) 0.2500 0.2500
C15_2 C 0.7169(4) 0.2169(4) 0.0263(6)
H6_2 H 0.6941 0.1941 0.0452
C17_2 C 0.9737(6) 0.2169(4) 0.2831(4)
C18_2 C 0.9737(6) 0.2831(4) 0.2169(4)
H9_2 H 0.9548 0.1941 0.3059
H10_2 H 0.9548 0.3059 0.1941
C14_2 C 0.7831(4) 0.2831(4) 0.9737(6)
C16_2 C 0.7169(4) 0.2169(4) 0.9737(6)
C19_2 C 0.7500 0.2500 0.9462(6)
H7_2 H 0.8059 0.3059 0.9548
H8_2 H 0.6941 0.1941 0.9548
C22_2 C 0.7500 0.2500 0.8895(7)
O16_2 O 0.7182(3) 0.2182(3) 0.8661(4)
O17_2 O 0.7818(3) 0.2818(3) 0.8661(4)
Zn7_2 Zn 0.7065(1) 0.2065(1) 0.7935(1)
Zn8_2 Zn 0.7935(1) 0.2935(1) 0.7935(1)
C20_3 C 0.2169(4) 0.0263(6) 0.7169(4)
C21_3 C 0.2831(4) 0.0263(6) 0.7831(4)
C23_3 C 0.2500 0.0538(6) 0.7500
H11_3 H 0.1941 0.0452 0.6941
H12_3 H 0.3059 0.0452 0.8059
C24_3 C 0.2500 0.1105(7) 0.7500
O18_2 O 0.2818(3) 0.1339(4) 0.7818(3)
O19_2 O 0.2182(3) 0.1339(4) 0.7182(3)
Zn10_2 Zn 0.2065(1) 0.2065(1) 0.7065(1)
C14_3 C 0.2831(4) 0.7831(4) 0.0263(6)
C16_3 C 0.2169(4) 0.7169(4) 0.0263(6)
C19_3 C 0.2500 0.7500 0.0538(6)
H7_3 H 0.3059 0.8059 0.0452
H8_3 H 0.1941 0.6941 0.0452
C22_3 C 0.2500 0.7500 0.1105(7)
O16_3 O 0.2182(3) 0.7182(3) 0.1339(4)
O17_3 O 0.2818(3) 0.7818(3) 0.1339(4)
Zn7_3 Zn 0.2065(1) 0.7065(1) 0.2065(1)
Zn1_3 Zn 0.2935(1) 0.7935(1) 0.7935(1)
O1_3 O 0.2500 0.7500 0.7500
O2_3 O 0.2818(3) 0.7818(3) 0.8661(4)
C1_3 C 0.2500 0.7500 0.8895(7)
C2_3 C 0.2831(4) 0.7831(4) 0.9737(6)
C3_3 C 0.2500 0.7500 0.9462(6)
H1_3 H 0.3059 0.8059 0.9548
Zn2_3 Zn 0.2065(1) 0.7935(1) 0.7065(1)
O3_3 O 0.2182(3) 0.8661(4) 0.7182(3)
C4_3 C 0.2500 0.8895(7) 0.7500
O4_3 O 0.2818(3) 0.8661(4) 0.7818(3)
O5_3 O 0.2182(3) 0.7182(3) 0.8661(4)
Zn3_2 Zn 0.2065(1) 0.7065(1) 0.7935(1)
Zn4_2 Zn 0.2935(1) 0.7065(1) 0.7065(1)
O6_3 O 0.2818(3) 0.7182(3) 0.6339(4)
O7_3 O 0.2182(3) 0.7818(3) 0.6339(4)
O8_3 O 0.1339(4) 0.7818(3) 0.7182(3)
O9_3 O 0.1339(4) 0.7182(3) 0.7818(3)
O10_2 O 0.2182(3) 0.6339(4) 0.7818(3)
O11_2 O 0.2818(3) 0.6339(4) 0.7182(3)
O12_3 O 0.3661(4) 0.7182(3) 0.7182(3)
C5_3 C 0.3895(7) 0.7500 0.7500
O13_3 O 0.3661(4) 0.7818(3) 0.7818(3)
C6_3 C 0.4462(6) 0.7500 0.7500
C7_3 C 0.4737(6) 0.7169(4) 0.7169(4)
C8_3 C 0.5263(6) 0.7169(4) 0.7169(4)
C9_3 C 0.5538(6) 0.7500 0.7500
C10_3 C 0.6105(7) 0.7500 0.7500
O14_3 O 0.6339(4) 0.7182(3) 0.7182(3)
Zn5_3 Zn 0.7065(1) 0.7065(1) 0.7065(1)
Zn6_3 Zn 0.7065(1) 0.7935(1) 0.7935(1)
O15_3 O 0.6339(4) 0.7818(3) 0.7818(3)
C11_3 C 0.5263(6) 0.7831(4) 0.7831(4)
C12_3 C 0.4737(6) 0.7831(4) 0.7831(4)
H2_3 H 0.4548 0.8059 0.8059
H3_3 H 0.5452 0.8059 0.8059
H4_3 H 0.5452 0.6941 0.6941
H5_3 H 0.4548 0.6941 0.6941
C13_3 C 0.2500 0.9462(6) 0.7500
C15_3 C 0.2169(4) 0.7169(4) 0.9737(6)
H6_3 H 0.1941 0.6941 0.9548
C17_3 C 0.2169(4) 0.9737(6) 0.7169(4)
C18_3 C 0.2831(4) 0.9737(6) 0.7831(4)
H9_3 H 0.1941 0.9548 0.6941
H10_3 H 0.3059 0.9548 0.8059
C5_4 C 0.2500 0.3895(7) 0.2500
C6_4 C 0.2500 0.4462(6) 0.2500
C7_4 C 0.2831(4) 0.4737(6) 0.2831(4)
C8_4 C 0.2831(4) 0.5263(6) 0.2831(4)
C9_4 C 0.2500 0.5538(6) 0.2500
C10_4 C 0.2500 0.6105(7) 0.2500
O14_4 O 0.2818(3) 0.6339(4) 0.2818(3)
Zn5_4 Zn 0.2935(1) 0.7065(1) 0.2935(1)
O15_4 O 0.2182(3) 0.6339(4) 0.2182(3)
C11_4 C 0.2169(4) 0.5263(6) 0.2169(4)
C12_4 C 0.2169(4) 0.4737(6) 0.2169(4)
H2_4 H 0.1941 0.4548 0.1941
H3_4 H 0.1941 0.5452 0.1941
H4_4 H 0.3059 0.5452 0.3059
H5_4 H 0.3059 0.4548 0.3059
C20_4 C 0.7831(4) 0.0263(6) 0.2831(4)
C21_4 C 0.7169(4) 0.0263(6) 0.2169(4)
C23_4 C 0.7500 0.0538(6) 0.2500
H11_4 H 0.8059 0.0452 0.3059
H12_4 H 0.6941 0.0452 0.1941
C24_4 C 0.7500 0.1105(7) 0.2500
Zn1_4 Zn 0.7065(1) 0.7935(1) 0.2065(1)
O1_4 O 0.7500 0.7500 0.2500
O2_4 O 0.7182(3) 0.7818(3) 0.1339(4)
C1_4 C 0.7500 0.7500 0.1105(7)
C2_4 C 0.7169(4) 0.7831(4) 0.0263(6)
C3_4 C 0.7500 0.7500 0.0538(6)
H1_4 H 0.6941 0.8059 0.0452
Zn2_4 Zn 0.7935(1) 0.7935(1) 0.2935(1)
O3_4 O 0.7818(3) 0.8661(4) 0.2818(3)
C4_4 C 0.7500 0.8895(7) 0.2500
O4_4 O 0.7182(3) 0.8661(4) 0.2182(3)
O5_4 O 0.7818(3) 0.7182(3) 0.1339(4)
O6_4 O 0.7182(3) 0.7182(3) 0.3661(4)
O7_4 O 0.7818(3) 0.7818(3) 0.3661(4)
O8_4 O 0.8661(4) 0.7818(3) 0.2818(3)
O9_4 O 0.8661(4) 0.7182(3) 0.2182(3)
O12_4 O 0.6339(4) 0.7182(3) 0.2818(3)
C5_5 C 0.6105(7) 0.7500 0.2500
O13_4 O 0.6339(4) 0.7818(3) 0.2182(3)
C6_5 C 0.5538(6) 0.7500 0.2500
C7_5 C 0.5263(6) 0.7169(4) 0.2831(4)
C8_5 C 0.4737(6) 0.7169(4) 0.2831(4)
C9_5 C 0.4462(6) 0.7500 0.2500
C10_5 C 0.3895(7) 0.7500 0.2500
O14_5 O 0.3661(4) 0.7182(3) 0.2818(3)
O15_5 O 0.3661(4) 0.7818(3) 0.2182(3)
C11_5 C 0.4737(6) 0.7831(4) 0.2169(4)
C12_5 C 0.5263(6) 0.7831(4) 0.2169(4)
H2_5 H 0.5452 0.8059 0.1941
H3_5 H 0.4548 0.8059 0.1941
H4_5 H 0.4548 0.6941 0.3059
H5_5 H 0.5452 0.6941 0.3059
C13_4 C 0.7500 0.9462(6) 0.2500
C15_4 C 0.7831(4) 0.7169(4) 0.0263(6)
H6_4 H 0.8059 0.6941 0.0452
C17_4 C 0.7831(4) 0.9737(6) 0.2831(4)
C18_4 C 0.7169(4) 0.9737(6) 0.2169(4)
H9_4 H 0.8059 0.9548 0.3059
H10_4 H 0.6941 0.9548 0.1941
C14_4 C 0.7169(4) 0.7831(4) 0.9737(6)
C16_4 C 0.7831(4) 0.7169(4) 0.9737(6)
C19_4 C 0.7500 0.7500 0.9462(6)
H7_4 H 0.6941 0.8059 0.9548
H8_4 H 0.8059 0.6941 0.9548
C22_4 C 0.7500 0.7500 0.8895(7)
O16_4 O 0.7818(3) 0.7182(3) 0.8661(4)
O17_4 O 0.7182(3) 0.7818(3) 0.8661(4)
Zn7_4 Zn 0.7935(1) 0.7065(1) 0.7935(1)
O1_5 O 0.2500 0.2500 0.7500
O3_5 O 0.1339(4) 0.2182(3) 0.7182(3)
C4_5 C 0.1105(7) 0.2500 0.7500
O4_5 O 0.1339(4) 0.2818(3) 0.7818(3)
Zn4_3 Zn 0.2935(1) 0.2935(1) 0.7065(1)
O6_5 O 0.2818(3) 0.2818(3) 0.6339(4)
O7_5 O 0.2182(3) 0.2182(3) 0.6339(4)
O10_3 O 0.3661(4) 0.2182(3) 0.7818(3)
O11_3 O 0.3661(4) 0.2818(3) 0.7182(3)
O12_5 O 0.2818(3) 0.3661(4) 0.7182(3)
C5_6 C 0.2500 0.3895(7) 0.7500
O13_5 O 0.2182(3) 0.3661(4) 0.7818(3)
C6_6 C 0.2500 0.4462(6) 0.7500
C7_6 C 0.2831(4) 0.4737(6) 0.7169(4)
C8_6 C 0.2831(4) 0.5263(6) 0.7169(4)
C9_6 C 0.2500 0.5538(6) 0.7500
C10_6 C 0.2500 0.6105(7) 0.7500
C11_6 C 0.2169(4) 0.5263(6) 0.7831(4)
C12_6 C 0.2169(4) 0.4737(6) 0.7831(4)
H2_6 H 0.1941 0.4548 0.8059
H3_6 H 0.1941 0.5452 0.8059
H4_6 H 0.3059 0.5452 0.6941
H5_6 H 0.3059 0.4548 0.6941
C13_5 C 0.0538(6) 0.2500 0.7500
C17_5 C 0.0263(6) 0.2169(4) 0.7169(4)
C18_5 C 0.0263(6) 0.2831(4) 0.7831(4)
H9_5 H 0.0452 0.1941 0.6941
H10_5 H 0.0452 0.3059 0.8059
C20_5 C 0.9737(6) 0.2169(4) 0.7169(4)
C21_5 C 0.9737(6) 0.2831(4) 0.7831(4)
C23_5 C 0.9462(6) 0.2500 0.7500
H11_5 H 0.9548 0.1941 0.6941
H12_5 H 0.9548 0.3059 0.8059
C24_5 C 0.8895(7) 0.2500 0.7500
O18_3 O 0.8661(4) 0.2818(3) 0.7818(3)
O19_3 O 0.8661(4) 0.2182(3) 0.7182(3)
Zn10_3 Zn 0.7935(1) 0.2065(1) 0.7065(1)
O1_6 O 0.2500 0.7500 0.2500
O3_6 O 0.1339(4) 0.7818(3) 0.2818(3)
C4_6 C 0.1105(7) 0.7500 0.2500
O4_6 O 0.1339(4) 0.7182(3) 0.2182(3)
O6_6 O 0.2818(3) 0.7182(3) 0.3661(4)
O7_6 O 0.2182(3) 0.7818(3) 0.3661(4)
C13_6 C 0.0538(6) 0.7500 0.2500
C17_6 C 0.0263(6) 0.7831(4) 0.2831(4)
C18_6 C 0.0263(6) 0.7169(4) 0.2169(4)
H9_6 H 0.0452 0.8059 0.3059
H10_6 H 0.0452 0.6941 0.1941
C20_6 C 0.9737(6) 0.7831(4) 0.2831(4)
C21_6 C 0.9737(6) 0.7169(4) 0.2169(4)
C23_6 C 0.9462(6) 0.7500 0.2500
H11_6 H 0.9548 0.8059 0.3059
H12_6 H 0.9548 0.6941 0.1941
C24_6 C 0.8895(7) 0.7500 0.2500
O1_7 O 0.7500 0.2500 0.7500
O3_7 O 0.7818(3) 0.1339(4) 0.7182(3)
C4_7 C 0.7500 0.1105(7) 0.7500
O4_7 O 0.7182(3) 0.1339(4) 0.7818(3)
Zn4_4 Zn 0.7065(1) 0.2935(1) 0.7065(1)
O6_7 O 0.7182(3) 0.2818(3) 0.6339(4)
O7_7 O 0.7818(3) 0.2182(3) 0.6339(4)
O10_4 O 0.7818(3) 0.3661(4) 0.7818(3)
O11_4 O 0.7182(3) 0.3661(4) 0.7182(3)
O12_6 O 0.6339(4) 0.2818(3) 0.7182(3)
C5_7 C 0.6105(7) 0.2500 0.7500
O13_6 O 0.6339(4) 0.2182(3) 0.7818(3)
C6_7 C 0.5538(6) 0.2500 0.7500
C7_7 C 0.5263(6) 0.2831(4) 0.7169(4)
C8_7 C 0.4737(6) 0.2831(4) 0.7169(4)
C9_7 C 0.4462(6) 0.2500 0.7500
C10_7 C 0.3895(7) 0.2500 0.7500
C11_7 C 0.4737(6) 0.2169(4) 0.7831(4)
C12_7 C 0.5263(6) 0.2169(4) 0.7831(4)
H2_7 H 0.5452 0.1941 0.8059
H3_7 H 0.4548 0.1941 0.8059
H4_7 H 0.4548 0.3059 0.6941
H5_7 H 0.5452 0.3059 0.6941
C13_7 C 0.7500 0.0538(6) 0.7500
C17_7 C 0.7831(4) 0.0263(6) 0.7169(4)
C18_7 C 0.7169(4) 0.0263(6) 0.7831(4)
H9_7 H 0.8059 0.0452 0.6941
H10_7 H 0.6941 0.0452 0.8059
C20_7 C 0.7831(4) 0.9737(6) 0.7169(4)
C21_7 C 0.7169(4) 0.9737(6) 0.7831(4)
C23_7 C 0.7500 0.9462(6) 0.7500
H11_7 H 0.8059 0.9548 0.6941
H12_7 H 0.6941 0.9548 0.8059
C24_7 C 0.7500 0.8895(7) 0.7500
O18_4 O 0.7182(3) 0.8661(4) 0.7818(3)
O19_4 O 0.7818(3) 0.8661(4) 0.7182(3)
Zn10_4 Zn 0.7935(1) 0.7935(1) 0.7065(1)
C20_8 C 0.0263(6) 0.7831(4) 0.7169(4)
C21_8 C 0.0263(6) 0.7169(4) 0.7831(4)
C23_8 C 0.0538(6) 0.7500 0.7500
H11_8 H 0.0452 0.8059 0.6941
H12_8 H 0.0452 0.6941 0.8059
C24_8 C 0.1105(7) 0.7500 0.7500
O1_8 O 0.7500 0.7500 0.7500
O3_8 O 0.8661(4) 0.7818(3) 0.7182(3)
C4_8 C 0.8895(7) 0.7500 0.7500
O4_8 O 0.8661(4) 0.7182(3) 0.7818(3)
O6_8 O 0.7182(3) 0.7182(3) 0.6339(4)
O7_8 O 0.7818(3) 0.7818(3) 0.6339(4)
O12_7 O 0.7182(3) 0.6339(4) 0.7182(3)
C5_8 C 0.7500 0.6105(7) 0.7500
O13_7 O 0.7818(3) 0.6339(4) 0.7818(3)
C6_8 C 0.7500 0.5538(6) 0.7500
C7_8 C 0.7169(4) 0.5263(6) 0.7169(4)
C8_8 C 0.7169(4) 0.4737(6) 0.7169(4)
C9_8 C 0.7500 0.4462(6) 0.7500
C10_8 C 0.7500 0.3895(7) 0.7500
C11_8 C 0.7831(4) 0.4737(6) 0.7831(4)
C12_8 C 0.7831(4) 0.5263(6) 0.7831(4)
H2_8 H 0.8059 0.5452 0.8059
H3_8 H 0.8059 0.4548 0.8059
H4_8 H 0.6941 0.4548 0.6941
H5_8 H 0.6941 0.5452 0.6941
C13_8 C 0.9462(6) 0.7500 0.7500
C17_8 C 0.9737(6) 0.7831(4) 0.7169(4)
C18_8 C 0.9737(6) 0.7169(4) 0.7831(4)
H9_8 H 0.9548 0.8059 0.6941
H10_8 H 0.9548 0.6941 0.8059
C5_9 C 0.2500 0.2500 0.3895(7)
C6_9 C 0.2500 0.2500 0.4462(6)
C7_9 C 0.2831(4) 0.2831(4) 0.4737(6)
C8_9 C 0.2831(4) 0.2831(4) 0.5263(6)
C9_9 C 0.2500 0.2500 0.5538(6)
C10_9 C 0.2500 0.2500 0.6105(7)
C11_9 C 0.2169(4) 0.2169(4) 0.5263(6)
C12_9 C 0.2169(4) 0.2169(4) 0.4737(6)
H2_9 H 0.1941 0.1941 0.4548
H3_9 H 0.1941 0.1941 0.5452
H4_9 H 0.3059 0.3059 0.5452
H5_9 H 0.3059 0.3059 0.4548
C5_10 C 0.2500 0.7500 0.3895(7)
C6_10 C 0.2500 0.7500 0.4462(6)
C7_10 C 0.2831(4) 0.7169(4) 0.4737(6)
C8_10 C 0.2831(4) 0.7169(4) 0.5263(6)
C9_10 C 0.2500 0.7500 0.5538(6)
C10_10 C 0.2500 0.7500 0.6105(7)
C11_10 C 0.2169(4) 0.7831(4) 0.5263(6)
C12_10 C 0.2169(4) 0.7831(4) 0.4737(6)
H2_10 H 0.1941 0.8059 0.4548
H3_10 H 0.1941 0.8059 0.5452
H4_10 H 0.3059 0.6941 0.5452
H5_10 H 0.3059 0.6941 0.4548
C5_11 C 0.7500 0.2500 0.3895(7)
C6_11 C 0.7500 0.2500 0.4462(6)
C7_11 C 0.7169(4) 0.2831(4) 0.4737(6)
C8_11 C 0.7169(4) 0.2831(4) 0.5263(6)
C9_11 C 0.7500 0.2500 0.5538(6)
C10_11 C 0.7500 0.2500 0.6105(7)
C11_11 C 0.7831(4) 0.2169(4) 0.5263(6)
C12_11 C 0.7831(4) 0.2169(4) 0.4737(6)
H2_11 H 0.8059 0.1941 0.4548
H3_11 H 0.8059 0.1941 0.5452
H4_11 H 0.6941 0.3059 0.5452
H5_11 H 0.6941 0.3059 0.4548
C5_12 C 0.7500 0.7500 0.6105(7)
C6_12 C 0.7500 0.7500 0.5538(6)
C7_12 C 0.7169(4) 0.7169(4) 0.5263(6)
C8_12 C 0.7169(4) 0.7169(4) 0.4737(6)
C9_12 C 0.7500 0.7500 0.4462(6)
C10_12 C 0.7500 0.7500 0.3895(7)
C11_12 C 0.7831(4) 0.7831(4) 0.4737(6)
C12_12 C 0.7831(4) 0.7831(4) 0.5263(6)
H2_12 H 0.8059 0.8059 0.5452
H3_12 H 0.8059 0.8059 0.4548
H4_12 H 0.6941 0.6941 0.4548
H5_12 H 0.6941 0.6941 0.5452
loop_
_geom_bond_atom_site_label_1
_geom_bond_atom_site_label_2
_geom_bond_site_symmetry_1
_geom_bond_site_symmetry_2
Zn1 O1 1_555 1_555
O1 Zn2 1_555 1_555
O2 Zn1 1_555 1_555
C1 O2 1_555 1_555
C2 C3 1_555 1_555
C3 C1 1_555 1_555
H1 C2 1_555 1_555
Zn2 O3 1_555 1_555
O3 C4 1_555 1_555
C4 O4 1_555 1_555
O4 Zn1 1_555 1_555
O5 C1 1_555 1_555
Zn3 O1 1_555 1_555
Zn4 O1 1_555 1_555
O6 Zn4 1_555 1_555
O7 Zn2 1_555 1_555
O8 Zn2 1_555 1_555
O9 Zn3 1_555 1_555
O10 Zn3 1_555 1_555
O11 Zn4 1_555 1_555
O12 Zn4 1_555 1_555
C5 O12 1_555 1_555
O13 Zn1 1_555 1_555
C6 C5 1_555 1_555
C7 C6 1_555 1_555
C8 C7 1_555 1_555
C9 C8 1_555 1_555
C10 C9 1_555 1_555
O14 C10 1_555 1_555
Zn5 O14 1_555 1_555
Zn6 O15 1_555 1_555
O15 C10 1_555 1_555
C11 C9 1_555 1_555
C12 C6 1_555 1_555
H2 C12 1_555 1_555
H3 C11 1_555 1_555
H4 C8 1_555 1_555
H5 C7 1_555 1_555
C13 C4 1_555 1_555
C15 C3 1_555 1_555
H6 C15 1_555 1_555
C17 C13 1_555 1_555
C18 C13 1_555 1_555
H9 C17 1_555 1_555
H10 C18 1_555 1_555
O5 Zn3 1_555 1_555
C5 O13 1_555 1_555
C11 C12 1_555 1_555
C19 C14 1_555 1_555
H7 C14 1_555 1_555
H8 C16 1_555 1_555
C22 C19 1_555 1_555
O16 C22 1_555 1_555
O17 C22 1_555 1_555
Zn7 O16 1_555 1_555
Zn8 O17 1_555 1_555
C16 C19 1_555 1_555
C23 C20 1_555 1_555
H11 C20 1_555 1_555
H12 C21 1_555 1_555
C24 C23 1_555 1_555
O18 C24 1_555 1_555
O19 C24 1_555 1_555
Zn9 O18 1_555 1_555
Zn10 O19 1_555 1_555
C21 C23 1_555 1_555
C23_2 C20_2 1_555 1_555
H11_2 C20_2 1_555 1_555
H12_2 C21_2 1_555 1_555
C24_2 C23_2 1_555 1_555
O9 C24_2 1_555 1_555
O8 C24_2 1_555 1_555
C21_2 C23_2 1_555 1_555
Zn1_2 O1_2 1_555 1_555
O1_2 Zn2_2 1_555 1_555
O2_2 Zn1_2 1_555 1_555
C1_2 O2_2 1_555 1_555
C2_2 C3_2 1_555 1_555
C3_2 C1_2 1_555 1_555
H1_2 C2_2 1_555 1_555
Zn2_2 O3_2 1_555 1_555
O3_2 C4_2 1_555 1_555
C4_2 O4_2 1_555 1_555
O4_2 Zn1_2 1_555 1_555
O5_2 C1_2 1_555 1_555
Zn6 O1_2 1_555 1_555
Zn5 O1_2 1_555 1_555
O6_2 Zn5 1_555 1_555
O7_2 Zn2_2 1_555 1_555
O8_2 Zn2_2 1_555 1_555
O9_2 Zn6 1_555 1_555
O12_2 Zn5 1_555 1_555
C5_2 O12_2 1_555 1_555
O13_2 Zn1_2 1_555 1_555
C6_2 C5_2 1_555 1_555
C7_2 C6_2 1_555 1_555
C8_2 C7_2 1_555 1_555
C9_2 C8_2 1_555 1_555
C10_2 C9_2 1_555 1_555
O14_2 C10_2 1_555 1_555
Zn5_2 O14_2 1_555 1_555
Zn6_2 O15_2 1_555 1_555
O15_2 C10_2 1_555 1_555
C11_2 C9_2 1_555 1_555
C12_2 C6_2 1_555 1_555
H2_2 C12_2 1_555 1_555
H3_2 C11_2 1_555 1_555
H4_2 C8_2 1_555 1_555
H5_2 C7_2 1_555 1_555
C13_2 C4_2 1_555 1_555
C15_2 C3_2 1_555 1_555
H6_2 C15_2 1_555 1_555
C17_2 C13_2 1_555 1_555
C18_2 C13_2 1_555 1_555
H9_2 C17_2 1_555 1_555
H10_2 C18_2 1_555 1_555
O5_2 Zn6 1_555 1_555
C5_2 O13_2 1_555 1_555
C11_2 C12_2 1_555 1_555
C19_2 C14_2 1_555 1_555
H7_2 C14_2 1_555 1_555
H8_2 C16_2 1_555 1_555
C22_2 C19_2 1_555 1_555
O16_2 C22_2 1_555 1_555
O17_2 C22_2 1_555 1_555
Zn7_2 O16_2 1_555 1_555
Zn8_2 O17_2 1_555 1_555
C16_2 C19_2 1_555 1_555
C23_3 C20_3 1_555 1_555
H11_3 C20_3 1_555 1_555
H12_3 C21_3 1_555 1_555
C24_3 C23_3 1_555 1_555
O18_2 C24_3 1_555 1_555
O19_2 C24_3 1_555 1_555
Zn8 O18_2 1_555 1_555
Zn10_2 O19_2 1_555 1_555
C21_3 C23_3 1_555 1_555
C19_3 C14_3 1_555 1_555
H7_3 C14_3 1_555 1_555
H8_3 C16_3 1_555 1_555
C22_3 C19_3 1_555 1_555
O16_3 C22_3 1_555 1_555
O17_3 C22_3 1_555 1_555
Zn7_3 O16_3 1_555 1_555
Zn9 O17_3 1_555 1_555
C16_3 C19_3 1_555 1_555
Zn1_3 O1_3 1_555 1_555
O1_3 Zn2_3 1_555 1_555
O2_3 Zn1_3 1_555 1_555
C1_3 O2_3 1_555 1_555
C2_3 C3_3 1_555 1_555
C3_3 C1_3 1_555 1_555
H1_3 C2_3 1_555 1_555
Zn2_3 O3_3 1_555 1_555
O3_3 C4_3 1_555 1_555
C4_3 O4_3 1_555 1_555
O4_3 Zn1_3 1_555 1_555
O5_3 C1_3 1_555 1_555
Zn3_2 O1_3 1_555 1_555
Zn4_2 O1_3 1_555 1_555
O6_3 Zn4_2 1_555 1_555
O7_3 Zn2_3 1_555 1_555
O8_3 Zn2_3 1_555 1_555
O9_3 Zn3_2 1_555 1_555
O10_2 Zn3_2 1_555 1_555
O11_2 Zn4_2 1_555 1_555
O12_3 Zn4_2 1_555 1_555
C5_3 O12_3 1_555 1_555
O13_3 Zn1_3 1_555 1_555
C6_3 C5_3 1_555 1_555
C7_3 C6_3 1_555 1_555
C8_3 C7_3 1_555 1_555
C9_3 C8_3 1_555 1_555
C10_3 C9_3 1_555 1_555
O14_3 C10_3 1_555 1_555
Zn5_3 O14_3 1_555 1_555
Zn6_3 O15_3 1_555 1_555
O15_3 C10_3 1_555 1_555
C11_3 C9_3 1_555 1_555
C12_3 C6_3 1_555 1_555
H2_3 C12_3 1_555 1_555
H3_3 C11_3 1_555 1_555
H4_3 C8_3 1_555 1_555
H5_3 C7_3 1_555 1_555
C13_3 C4_3 1_555 1_555
C15_3 C3_3 1_555 1_555
H6_3 C15_3 1_555 1_555
C17_3 C13_3 1_555 1_555
C18_3 C13_3 1_555 1_555
H9_3 C17_3 1_555 1_555
H10_3 C18_3 1_555 1_555
O5_3 Zn3_2 1_555 1_555
C5_3 O13_3 1_555 1_555
C11_3 C12_3 1_555 1_555
C5_4 O11 1_555 1_555
C6_4 C5_4 1_555 1_555
C7_4 C6_4 1_555 1_555
C8_4 C7_4 1_555 1_555
C9_4 C8_4 1_555 1_555
C10_4 C9_4 1_555 1_555
O14_4 C10_4 1_555 1_555
Zn5_4 O14_4 1_555 1_555
Zn7_3 O15_4 1_555 1_555
O15_4 C10_4 1_555 1_555
C11_4 C9_4 1_555 1_555
C12_4 C6_4 1_555 1_555
H2_4 C12_4 1_555 1_555
H3_4 C11_4 1_555 1_555
H4_4 C8_4 1_555 1_555
H5_4 C7_4 1_555 1_555
C5_4 O10 1_555 1_555
C11_4 C12_4 1_555 1_555
C23_4 C20_4 1_555 1_555
H11_4 C20_4 1_555 1_555
H12_4 C21_4 1_555 1_555
C24_4 C23_4 1_555 1_555
O9_2 C24_4 1_555 1_555
O8_2 C24_4 1_555 1_555
C21_4 C23_4 1_555 1_555
Zn1_4 O1_4 1_555 1_555
O1_4 Zn2_4 1_555 1_555
O2_4 Zn1_4 1_555 1_555
C1_4 O2_4 1_555 1_555
C2_4 C3_4 1_555 1_555
C3_4 C1_4 1_555 1_555
H1_4 C2_4 1_555 1_555
Zn2_4 O3_4 1_555 1_555
O3_4 C4_4 1_555 1_555
C4_4 O4_4 1_555 1_555
O4_4 Zn1_4 1_555 1_555
O5_4 C1_4 1_555 1_555
Zn6_2 O1_4 1_555 1_555
Zn5_2 O1_4 1_555 1_555
O6_4 Zn5_2 1_555 1_555
O7_4 Zn2_4 1_555 1_555
O8_4 Zn2_4 1_555 1_555
O9_4 Zn6_2 1_555 1_555
O12_4 Zn5_2 1_555 1_555
C5_5 O12_4 1_555 1_555
O13_4 Zn1_4 1_555 1_555
C6_5 C5_5 1_555 1_555
C7_5 C6_5 1_555 1_555
C8_5 C7_5 1_555 1_555
C9_5 C8_5 1_555 1_555
C10_5 C9_5 1_555 1_555
O14_5 C10_5 1_555 1_555
Zn5_4 O14_5 1_555 1_555
Zn9 O15_5 1_555 1_555
O15_5 C10_5 1_555 1_555
C11_5 C9_5 1_555 1_555
C12_5 C6_5 1_555 1_555
H2_5 C12_5 1_555 1_555
H3_5 C11_5 1_555 1_555
H4_5 C8_5 1_555 1_555
H5_5 C7_5 1_555 1_555
C13_4 C4_4 1_555 1_555
C15_4 C3_4 1_555 1_555
H6_4 C15_4 1_555 1_555
C17_4 C13_4 1_555 1_555
C18_4 C13_4 1_555 1_555
H9_4 C17_4 1_555 1_555
H10_4 C18_4 1_555 1_555
O5_4 Zn6_2 1_555 1_555
C5_5 O13_4 1_555 1_555
C11_5 C12_5 1_555 1_555
C19_4 C14_4 1_555 1_555
H7_4 C14_4 1_555 1_555
H8_4 C16_4 1_555 1_555
C22_4 C19_4 1_555 1_555
O16_4 C22_4 1_555 1_555
O17_4 C22_4 1_555 1_555
Zn7_4 O16_4 1_555 1_555
Zn6_3 O17_4 1_555 1_555
C16_4 C19_4 1_555 1_555
Zn7 O1_5 1_555 1_555
O1_5 Zn10_2 1_555 1_555
Zn10_2 O3_5 1_555 1_555
O3_5 C4_5 1_555 1_555
C4_5 O4_5 1_555 1_555
O4_5 Zn7 1_555 1_555
Zn8 O1_5 1_555 1_555
Zn4_3 O1_5 1_555 1_555
O6_5 Zn4_3 1_555 1_555
O7_5 Zn10_2 1_555 1_555
O10_3 Zn8 1_555 1_555
O11_3 Zn4_3 1_555 1_555
O12_5 Zn4_3 1_555 1_555
C5_6 O12_5 1_555 1_555
O13_5 Zn7 1_555 1_555
C6_6 C5_6 1_555 1_555
C7_6 C6_6 1_555 1_555
C8_6 C7_6 1_555 1_555
C9_6 C8_6 1_555 1_555
C10_6 C9_6 1_555 1_555
O11_2 C10_6 1_555 1_555
O10_2 C10_6 1_555 1_555
C11_6 C9_6 1_555 1_555
C12_6 C6_6 1_555 1_555
H2_6 C12_6 1_555 1_555
H3_6 C11_6 1_555 1_555
H4_6 C8_6 1_555 1_555
H5_6 C7_6 1_555 1_555
C13_5 C4_5 1_555 1_555
C17_5 C13_5 1_555 1_555
C18_5 C13_5 1_555 1_555
H9_5 C17_5 1_555 1_555
H10_5 C18_5 1_555 1_555
C5_6 O13_5 1_555 1_555
C11_6 C12_6 1_555 1_555
C23_5 C20_5 1_555 1_555
H11_5 C20_5 1_555 1_555
H12_5 C21_5 1_555 1_555
C24_5 C23_5 1_555 1_555
O18_3 C24_5 1_555 1_555
O19_3 C24_5 1_555 1_555
Zn8_2 O18_3 1_555 1_555
Zn10_3 O19_3 1_555 1_555
C21_5 C23_5 1_555 1_555
Zn7_3 O1_6 1_555 1_555
O1_6 Zn10 1_555 1_555
Zn10 O3_6 1_555 1_555
O3_6 C4_6 1_555 1_555
C4_6 O4_6 1_555 1_555
O4_6 Zn7_3 1_555 1_555
Zn9 O1_6 1_555 1_555
Zn5_4 O1_6 1_555 1_555
O6_6 Zn5_4 1_555 1_555
O7_6 Zn10 1_555 1_555
C13_6 C4_6 1_555 1_555
C17_6 C13_6 1_555 1_555
C18_6 C13_6 1_555 1_555
H9_6 C17_6 1_555 1_555
H10_6 C18_6 1_555 1_555
C23_6 C20_6 1_555 1_555
H11_6 C20_6 1_555 1_555
H12_6 C21_6 1_555 1_555
C24_6 C23_6 1_555 1_555
O9_4 C24_6 1_555 1_555
O8_4 C24_6 1_555 1_555
C21_6 C23_6 1_555 1_555
Zn7_2 O1_7 1_555 1_555
O1_7 Zn10_3 1_555 1_555
Zn10_3 O3_7 1_555 1_555
O3_7 C4_7 1_555 1_555
C4_7 O4_7 1_555 1_555
O4_7 Zn7_2 1_555 1_555
Zn8_2 O1_7 1_555 1_555
Zn4_4 O1_7 1_555 1_555
O6_7 Zn4_4 1_555 1_555
O7_7 Zn10_3 1_555 1_555
O10_4 Zn8_2 1_555 1_555
O11_4 Zn4_4 1_555 1_555
O12_6 Zn4_4 1_555 1_555
C5_7 O12_6 1_555 1_555
O13_6 Zn7_2 1_555 1_555
C6_7 C5_7 1_555 1_555
C7_7 C6_7 1_555 1_555
C8_7 C7_7 1_555 1_555
C9_7 C8_7 1_555 1_555
C10_7 C9_7 1_555 1_555
O11_3 C10_7 1_555 1_555
O10_3 C10_7 1_555 1_555
C11_7 C9_7 1_555 1_555
C12_7 C6_7 1_555 1_555
H2_7 C12_7 1_555 1_555
H3_7 C11_7 1_555 1_555
H4_7 C8_7 1_555 1_555
H5_7 C7_7 1_555 1_555
C13_7 C4_7 1_555 1_555
C17_7 C13_7 1_555 1_555
C18_7 C13_7 1_555 1_555
H9_7 C17_7 1_555 1_555
H10_7 C18_7 1_555 1_555
C5_7 O13_6 1_555 1_555
C11_7 C12_7 1_555 1_555
C23_7 C20_7 1_555 1_555
H11_7 C20_7 1_555 1_555
H12_7 C21_7 1_555 1_555
C24_7 C23_7 1_555 1_555
O18_4 C24_7 1_555 1_555
O19_4 C24_7 1_555 1_555
Zn6_3 O18_4 1_555 1_555
Zn10_4 O19_4 1_555 1_555
C21_7 C23_7 1_555 1_555
C23_8 C20_8 1_555 1_555
H11_8 C20_8 1_555 1_555
H12_8 C21_8 1_555 1_555
C24_8 C23_8 1_555 1_555
O9_3 C24_8 1_555 1_555
O8_3 C24_8 1_555 1_555
C21_8 C23_8 1_555 1_555
Zn7_4 O1_8 1_555 1_555
O1_8 Zn10_4 1_555 1_555
Zn10_4 O3_8 1_555 1_555
O3_8 C4_8 1_555 1_555
C4_8 O4_8 1_555 1_555
O4_8 Zn7_4 1_555 1_555
Zn6_3 O1_8 1_555 1_555
Zn5_3 O1_8 1_555 1_555
O6_8 Zn5_3 1_555 1_555
O7_8 Zn10_4 1_555 1_555
O12_7 Zn5_3 1_555 1_555
C5_8 O12_7 1_555 1_555
O13_7 Zn7_4 1_555 1_555
C6_8 C5_8 1_555 1_555
C7_8 C6_8 1_555 1_555
C8_8 C7_8 1_555 1_555
C9_8 C8_8 1_555 1_555
C10_8 C9_8 1_555 1_555
O11_4 C10_8 1_555 1_555
O10_4 C10_8 1_555 1_555
C11_8 C9_8 1_555 1_555
C12_8 C6_8 1_555 1_555
H2_8 C12_8 1_555 1_555
H3_8 C11_8 1_555 1_555
H4_8 C8_8 1_555 1_555
H5_8 C7_8 1_555 1_555
C13_8 C4_8 1_555 1_555
C17_8 C13_8 1_555 1_555
C18_8 C13_8 1_555 1_555
H9_8 C17_8 1_555 1_555
H10_8 C18_8 1_555 1_555
C5_8 O13_7 1_555 1_555
C11_8 C12_8 1_555 1_555
C5_9 O6 1_555 1_555
C6_9 C5_9 1_555 1_555
C7_9 C6_9 1_555 1_555
C8_9 C7_9 1_555 1_555
C9_9 C8_9 1_555 1_555
C10_9 C9_9 1_555 1_555
O6_5 C10_9 1_555 1_555
O7_5 C10_9 1_555 1_555
C11_9 C9_9 1_555 1_555
C12_9 C6_9 1_555 1_555
H2_9 C12_9 1_555 1_555
H3_9 C11_9 1_555 1_555
H4_9 C8_9 1_555 1_555
H5_9 C7_9 1_555 1_555
C5_9 O7 1_555 1_555
C11_9 C12_9 1_555 1_555
C5_10 O6_6 1_555 1_555
C6_10 C5_10 1_555 1_555
C7_10 C6_10 1_555 1_555
C8_10 C7_10 1_555 1_555
C9_10 C8_10 1_555 1_555
C10_10 C9_10 1_555 1_555
O6_3 C10_10 1_555 1_555
O7_3 C10_10 1_555 1_555
C11_10 C9_10 1_555 1_555
C12_10 C6_10 1_555 1_555
H2_10 C12_10 1_555 1_555
H3_10 C11_10 1_555 1_555
H4_10 C8_10 1_555 1_555
H5_10 C7_10 1_555 1_555
C5_10 O7_6 1_555 1_555
C11_10 C12_10 1_555 1_555
C5_11 O6_2 1_555 1_555
C6_11 C5_11 1_555 1_555
C7_11 C6_11 1_555 1_555
C8_11 C7_11 1_555 1_555
C9_11 C8_11 1_555 1_555
C10_11 C9_11 1_555 1_555
O6_7 C10_11 1_555 1_555
O7_7 C10_11 1_555 1_555
C11_11 C9_11 1_555 1_555
C12_11 C6_11 1_555 1_555
H2_11 C12_11 1_555 1_555
H3_11 C11_11 1_555 1_555
H4_11 C8_11 1_555 1_555
H5_11 C7_11 1_555 1_555
C5_11 O7_2 1_555 1_555
C11_11 C12_11 1_555 1_555
C5_12 O6_8 1_555 1_555
C6_12 C5_12 1_555 1_555
C7_12 C6_12 1_555 1_555
C8_12 C7_12 1_555 1_555
C9_12 C8_12 1_555 1_555
C10_12 C9_12 1_555 1_555
O6_4 C10_12 1_555 1_555
O7_4 C10_12 1_555 1_555
C11_12 C9_12 1_555 1_555
C12_12 C6_12 1_555 1_555
H2_12 C12_12 1_555 1_555
H3_12 C11_12 1_555 1_555
H4_12 C8_12 1_555 1_555
H5_12 C7_12 1_555 1_555
C5_12 O7_8 1_555 1_555
C11_12 C12_12 1_555 1_555

#END
