
###############################################################################
#
# This file contains modified crystal structure data generated from the
# MOF subset of the Cambridge Structural Database (CSD) v543 
# hosted by the Cambridge Crystallographic Data Centre (CCDC).
#
# This work is licensed under the Creative Commons
# Attribution-NonCommercial-ShareAlike 4.0 International License.
# To view a copy of this license, visit
# http://creativecommons.org/licenses/by-nc-sa/4.0/
# or send a letter to
# Creative Commons, PO Box 1866, Mountain View, CA 94042, USA.
#
# CIF created using the CSD Python API on 29 September 2022
# The structure has been converted into the P1 space group
# The structure has a 3D framework
# The original CSD entry SAHYAD02 is in the tetragonal crystal system
# The original CSD entry SAHYAD02 is in a Sohncke space group
# The framework has been calculated to contain at least 10.0% void space
# The void calculation uses a probe of radius 1.32A, grid spacing 0.4
# The framework is charged, counterions have been retained in the structure
#
###############################################################################

data_SAHYAD02
_chemical_formula_moiety         '(C192 H144 Cd3 Cl5 N48 O16 2+)n'
_symmetry_cell_setting           triclinic
_symmetry_space_group_name_H-M   'P 1'
_symmetry_Int_Tables_number      1
_space_group_name_Hall           'P 1'
loop_
_symmetry_equiv_pos_site_id
_symmetry_equiv_pos_as_xyz
1 x,y,z
_cell_length_a                   15.8545(8)
_cell_length_b                   15.8545(8)
_cell_length_c                   21.596(2)
_cell_angle_alpha                90
_cell_angle_beta                 90
_cell_angle_gamma                90
_cell_volume                     5428.48
loop_
_atom_site_label
_atom_site_type_symbol
_atom_site_fract_x
_atom_site_fract_y
_atom_site_fract_z
C31 C 0.6644(4) 0.1902(3) 0.0133(2)
H23 H 0.6998 0.1485 0.0313
C32 C 0.5963(4) 0.2193(4) 0.0454(3)
H24 H 0.5861 0.1988 0.0861
C33 C 0.5416(4) 0.2783(4) 0.0201(3)
H25 H 0.4928 0.2962 0.0420
Cd5 Cd 0.55898(2) 0.55898(2) 0.0000
C25 C 0.8602(3) 0.0870(3) 0.8913(2)
H19 H 0.8896 0.0370 0.9023
C26 C 0.7986(4) 0.1162(4) 0.9310(2)
H20 H 0.7859 0.0861 0.9679
C27 C 0.7553(3) 0.1899(4) 0.9167(2)
C28 C 0.7829(4) 0.2340(3) 0.8643(2)
H21 H 0.7597 0.2878 0.8549
C29 C 0.8432(4) 0.1996(4) 0.8267(2)
H22 H 0.8592 0.2302 0.7908
C30 C 0.6827(3) 0.2211(3) 0.9539(2)
C34 C 0.5599(3) 0.3105(3) 0.9616(2)
C35 C 0.6292(3) 0.2815(3) 0.9285(2)
H26 H 0.6402 0.3030 0.8883
C36 C 0.5040(3) 0.3728(3) 0.9308(2)
C37 C 0.4093(3) 0.4236(3) 0.8680(2)
C38 C 0.3389(3) 0.4326(4) 0.8236(2)
C39 C 0.3373(4) 0.5043(4) 0.7870(3)
H27 H 0.3809 0.5452 0.7900
C40 C 0.2708(4) 0.5158(4) 0.7456(3)
H28 H 0.2682 0.5652 0.7207
C41 C 0.2085(4) 0.4550(4) 0.7410(3)
H29 H 0.1641 0.4627 0.7120
C42 C 0.2093(3) 0.3833(3) 0.7775(2)
C43 C 0.2754(3) 0.3734(3) 0.8193(2)
H30 H 0.2768 0.3251 0.8453
C44 C 0.1425(4) 0.3179(4) 0.7719(2)
C45 C 0.0947(4) 0.3086(3) 0.7184(3)
H31 H 0.1010 0.3476 0.6853
C46 C 0.0382(3) 0.2430(4) 0.7131(3)
H32 H 0.0068 0.2378 0.6758
C47 C 0.0689(4) 0.1963(4) 0.8104(2)
H33 H 0.0595 0.1574 0.8431
C48 C 0.1268(4) 0.2602(4) 0.8195(3)
H34 H 0.1557 0.2650 0.8579
Cd4 Cd 0.94102(2) 0.05898(2) 0.7500
Cd5_2 Cd 0.55898(2) 0.55898(2) 1.0000
N7 N 0.8812(3) 0.1256(3) 0.8375(2)
N9 N 0.5063(3) 0.4559(3) 0.9345(2)
N10 N 0.0441(3) 0.0063(3) 0.6845(2)
N12 N 0.4461(3) 0.4882(3) 0.8954(2)
N13 N 0.4440(3) 0.3508(3) 0.8888(2)
N14 N 0.4260(4) 0.2689(3) 0.8682(3)
H35 H 0.4712 0.2402 0.8568
H36 H 0.4141 0.2405 0.9025
N15 N 0.0255(3) 0.1864(3) 0.7580(2)
N8 N 0.8744(3) 0.1188(3) 0.6625(2)
N11 N 0.9937(3) 0.9559(3) 0.8155(2)
N16 N 0.8136(3) 0.9745(3) 0.7420(2)
Cd3 Cd 0.05898(2) 0.94102(2) 0.2500
N11_2 N 0.0063(3) 0.0441(3) 0.3155(2)
N16_2 N 0.1864(3) 0.0255(3) 0.2420(2)
C1 C 0.1398(3) 0.9130(3) 0.3913(2)
H1 H 0.1104 0.9630 0.4023
C2 C 0.2014(4) 0.8838(4) 0.4310(2)
H2 H 0.2141 0.9139 0.4679
C3 C 0.2447(3) 0.8101(4) 0.4167(2)
C4 C 0.2171(4) 0.7660(3) 0.3643(2)
H3 H 0.2403 0.7122 0.3549
C5 C 0.1568(4) 0.8004(4) 0.3267(2)
H4 H 0.1408 0.7698 0.2908
C6 C 0.3173(3) 0.7789(3) 0.4539(2)
C7 C 0.3356(4) 0.8098(3) 0.5133(2)
H5 H 0.3002 0.8515 0.5313
C8 C 0.4037(4) 0.7807(4) 0.5454(3)
H6 H 0.4139 0.8012 0.5861
C9 C 0.4584(4) 0.7217(4) 0.5201(3)
H7 H 0.5072 0.7038 0.5420
C10 C 0.4401(3) 0.6895(3) 0.4616(2)
C11 C 0.3708(3) 0.7185(3) 0.4285(2)
H8 H 0.3598 0.6970 0.3883
C12 C 0.4960(3) 0.6272(3) 0.4308(2)
C13 C 0.5907(3) 0.5764(3) 0.3680(2)
C14 C 0.6611(3) 0.5674(4) 0.3236(2)
C15 C 0.6627(4) 0.4957(4) 0.2870(3)
H9 H 0.6191 0.4548 0.2900
C16 C 0.7292(4) 0.4842(4) 0.2456(3)
H10 H 0.7318 0.4348 0.2207
C17 C 0.7915(4) 0.5450(4) 0.2410(3)
H11 H 0.8359 0.5373 0.2120
C18 C 0.7907(3) 0.6167(3) 0.2775(2)
C19 C 0.7246(3) 0.6266(3) 0.3193(2)
H12 H 0.7232 0.6749 0.3453
C20 C 0.8575(4) 0.6821(4) 0.2719(2)
C21 C 0.9053(4) 0.6914(3) 0.2184(3)
H13 H 0.8990 0.6524 0.1853
C22 C 0.9618(3) 0.7570(4) 0.2131(3)
H14 H 0.9932 0.7622 0.1758
C23 C 0.9311(4) 0.8037(4) 0.3104(2)
H15 H 0.9405 0.8426 0.3431
C24 C 0.8732(4) 0.7398(4) 0.3195(3)
H16 H 0.8443 0.7350 0.3579
N1 N 0.1188(3) 0.8744(3) 0.3375(2)
N2 N 0.4937(3) 0.5441(3) 0.4345(2)
N3 N 0.5539(3) 0.5118(3) 0.3954(2)
N4 N 0.5560(3) 0.6492(3) 0.3888(2)
N5 N 0.5740(4) 0.7311(3) 0.3682(3)
H17 H 0.5288 0.7598 0.3568
H18 H 0.5859 0.7595 0.4025
N6 N 0.9745(3) 0.8136(3) 0.2580(2)
Cd2 Cd 0.44102(2) 0.44102(2) 0.5000
N8_2 N 0.1256(3) 0.8812(3) 0.1625(2)
N10_2 N 0.9559(3) 0.9937(3) 0.1845(2)
C25_2 C 0.4130(3) 0.3602(3) 0.6413(2)
H19_2 H 0.4630 0.3896 0.6523
C26_2 C 0.3838(4) 0.2986(4) 0.6810(2)
H20_2 H 0.4139 0.2859 0.7179
C27_2 C 0.3101(4) 0.2553(3) 0.6667(2)
C28_2 C 0.2660(3) 0.2829(4) 0.6143(2)
H21_2 H 0.2122 0.2597 0.6049
C29_2 C 0.3004(4) 0.3432(4) 0.5767(2)
H22_2 H 0.2698 0.3592 0.5408
C30_2 C 0.2789(3) 0.1827(3) 0.7039(2)
C31_2 C 0.3098(3) 0.1644(4) 0.7633(2)
H23_2 H 0.3515 0.1998 0.7813
C32_2 C 0.2807(4) 0.0963(4) 0.7954(3)
H24_2 H 0.3012 0.0861 0.8361
C33_2 C 0.2217(4) 0.0416(4) 0.7701(3)
C34_2 C 0.1895(3) 0.0599(3) 0.7116(2)
C35_2 C 0.2185(3) 0.1292(3) 0.6785(2)
H26_2 H 0.1970 0.1402 0.6383
C36_2 C 0.1272(3) 0.0040(3) 0.6808(2)
N7_2 N 0.3744(3) 0.3812(3) 0.5875(2)
H25_2 H 0.2038 0.9928 0.7920
C37_2 C 0.0764(3) 0.9093(3) 0.6180(2)
C38_2 C 0.0674(4) 0.8389(3) 0.5736(2)
C41_2 C 0.0450(4) 0.7085(4) 0.4910(3)
H29_2 H 0.0373 0.6641 0.4620
C42_2 C 0.1167(3) 0.7093(3) 0.5275(2)
C43_2 C 0.1266(3) 0.7754(3) 0.5693(2)
H30_2 H 0.1749 0.7768 0.5953
C44_2 C 0.1821(4) 0.6425(4) 0.5219(2)
C45_2 C 0.1914(3) 0.5947(4) 0.4684(3)
H31_2 H 0.1524 0.6010 0.4353
C46_2 C 0.2570(4) 0.5382(3) 0.4631(3)
H32_2 H 0.2622 0.5068 0.4258
C47_2 C 0.3037(4) 0.5689(4) 0.5604(2)
H33_2 H 0.3426 0.5595 0.5931
C48_2 C 0.2398(4) 0.6268(4) 0.5695(3)
H34_2 H 0.2350 0.6557 0.6079
N8_3 N 0.3812(3) 0.3744(3) 0.4125(2)
N11_3 N 0.5441(3) 0.4937(3) 0.5655(2)
N12_2 N 0.0118(3) 0.9461(3) 0.6454(2)
N13_2 N 0.1492(3) 0.9440(3) 0.6388(2)
N14_2 N 0.2311(3) 0.9260(4) 0.6182(3)
H35_2 H 0.2598 0.9712 0.6068
H36_2 H 0.2595 0.9141 0.6525
N15_2 N 0.3136(3) 0.5255(3) 0.5080(2)
N16_3 N 0.5255(3) 0.3136(3) 0.4920(2)
C39_2 C 0.9957(4) 0.8373(4) 0.5370(3)
H27_2 H 0.9548 0.8809 0.5400
C40_2 C 0.9842(4) 0.7708(4) 0.4956(3)
H28_2 H 0.9348 0.7682 0.4707
C15_2 C 0.0043(4) 0.1627(4) 0.0370(3)
H9_2 H 0.0452 0.1191 0.0400
H7_2 H 0.7962 0.0072 0.2920
C13_2 C 0.9236(3) 0.0907(3) 0.1180(2)
C14_2 C 0.9326(4) 0.1611(3) 0.0736(2)
C18_2 C 0.8833(3) 0.2907(3) 0.0275(2)
C19_2 C 0.8734(3) 0.2246(3) 0.0693(2)
H12_2 H 0.8251 0.2232 0.0953
C20_2 C 0.8179(4) 0.3575(4) 0.0219(2)
C23_2 C 0.6963(4) 0.4311(4) 0.0604(2)
H15_2 H 0.6574 0.4405 0.0931
C24_2 C 0.7602(4) 0.3732(4) 0.0695(3)
H16_2 H 0.7650 0.3443 0.1079
N3_2 N 0.9882(3) 0.0539(3) 0.1454(2)
N4_2 N 0.8508(3) 0.0560(3) 0.1388(2)
N5_2 N 0.7689(3) 0.0740(4) 0.1182(3)
H17_2 H 0.7402 0.0288 0.1068
H18_2 H 0.7405 0.0859 0.1525
N6_2 N 0.6864(3) 0.4745(3) 0.0080(2)
C17_2 C 0.9550(4) 0.2915(4) 0.9910(3)
H11_2 H 0.9627 0.3359 0.9620
C21_2 C 0.8086(3) 0.4053(4) 0.9684(3)
H13_2 H 0.8476 0.3990 0.9353
C22_2 C 0.7430(4) 0.4618(3) 0.9631(3)
H14_2 H 0.7378 0.4932 0.9258
C1_2 C 0.5870(3) 0.6398(3) 0.1413(2)
H1_2 H 0.5370 0.6104 0.1523
C2_2 C 0.6162(4) 0.7014(4) 0.1810(2)
H2_2 H 0.5861 0.7141 0.2179
C3_2 C 0.6899(4) 0.7447(3) 0.1667(2)
C4_2 C 0.7340(3) 0.7171(4) 0.1143(2)
H3_2 H 0.7878 0.7403 0.1049
C5_2 C 0.6996(4) 0.6568(4) 0.0767(2)
H4_2 H 0.7302 0.6408 0.0408
C6_2 C 0.7211(3) 0.8173(3) 0.2039(2)
C7_2 C 0.6902(3) 0.8356(4) 0.2633(2)
H5_2 H 0.6485 0.8002 0.2813
C8_2 C 0.7193(4) 0.9037(4) 0.2954(3)
H6_2 H 0.6988 0.9139 0.3361
C9_2 C 0.7783(4) 0.9584(4) 0.2701(3)
C10_2 C 0.8105(3) 0.9401(3) 0.2116(2)
C11_2 C 0.7815(3) 0.8708(3) 0.1785(2)
H8_2 H 0.8030 0.8598 0.1383
C12_2 C 0.8728(3) 0.9960(3) 0.1808(2)
N1_2 N 0.6256(3) 0.6188(3) 0.0875(2)
N11_4 N 0.4559(3) 0.5063(3) 0.0655(2)
N8_4 N 0.6188(3) 0.6256(3) 0.9125(2)
N16_4 N 0.4745(3) 0.6864(3) 0.9920(2)
C15_3 C 0.1627(4) 0.0043(4) 0.9630(3)
H9_3 H 0.1191 0.0452 0.9600
C17_3 C 0.2915(4) 0.9550(4) 0.0090(3)
H11_3 H 0.3359 0.9627 0.0380
C21_3 C 0.4053(4) 0.8086(3) 0.0316(3)
H13_3 H 0.3990 0.8476 0.0647
C22_3 C 0.4618(3) 0.7430(4) 0.0369(3)
H14_3 H 0.4932 0.7378 0.0742
H7_3 H 0.0072 0.7962 0.7080
C13_3 C 0.0907(3) 0.9236(3) 0.8820(2)
C14_3 C 0.1611(3) 0.9326(4) 0.9264(2)
C18_3 C 0.2907(3) 0.8833(3) 0.9725(2)
C19_3 C 0.2246(3) 0.8734(3) 0.9307(2)
H12_3 H 0.2232 0.8251 0.9047
C20_3 C 0.3575(4) 0.8179(4) 0.9781(2)
C23_3 C 0.4311(4) 0.6963(4) 0.9396(2)
H15_3 H 0.4405 0.6574 0.9069
C24_3 C 0.3732(4) 0.7602(4) 0.9305(3)
H16_3 H 0.3443 0.7650 0.8921
N3_3 N 0.0539(3) 0.9882(3) 0.8546(2)
N4_3 N 0.0560(3) 0.8508(3) 0.8612(2)
N5_3 N 0.0740(4) 0.7689(3) 0.8818(3)
H17_3 H 0.0288 0.7402 0.8932
H18_3 H 0.0859 0.7405 0.8475
C1_3 C 0.6398(3) 0.5870(3) 0.8587(2)
H1_3 H 0.6104 0.5370 0.8477
C2_3 C 0.7014(4) 0.6162(4) 0.8190(2)
H2_3 H 0.7141 0.5861 0.7821
C3_3 C 0.7447(3) 0.6899(4) 0.8333(2)
C4_3 C 0.7171(4) 0.7340(3) 0.8857(2)
H3_3 H 0.7403 0.7878 0.8951
C5_3 C 0.6568(4) 0.6996(4) 0.9233(2)
H4_3 H 0.6408 0.7302 0.9592
C6_3 C 0.8173(3) 0.7211(3) 0.7961(2)
C7_3 C 0.8356(4) 0.6902(3) 0.7367(2)
H5_3 H 0.8002 0.6485 0.7187
C8_3 C 0.9037(4) 0.7193(4) 0.7046(3)
H6_3 H 0.9139 0.6988 0.6639
C9_3 C 0.9584(4) 0.7783(4) 0.7299(3)
C10_3 C 0.9401(3) 0.8105(3) 0.7884(2)
C11_3 C 0.8708(3) 0.7815(3) 0.8215(2)
H8_3 H 0.8598 0.8030 0.8617
C12_3 C 0.9960(3) 0.8728(3) 0.8192(2)
C25_3 C 0.3602(3) 0.4130(3) 0.3587(2)
H19_3 H 0.3896 0.4630 0.3477
C26_3 C 0.2986(4) 0.3838(4) 0.3190(2)
H20_3 H 0.2859 0.4139 0.2821
C27_3 C 0.2553(3) 0.3101(4) 0.3333(2)
C28_3 C 0.2829(4) 0.2660(3) 0.3857(2)
H21_3 H 0.2597 0.2122 0.3951
C29_3 C 0.3432(4) 0.3004(4) 0.4233(2)
H22_3 H 0.3592 0.2698 0.4592
C30_3 C 0.1827(3) 0.2789(3) 0.2961(2)
C31_3 C 0.1644(4) 0.3098(3) 0.2367(2)
H23_3 H 0.1998 0.3515 0.2187
C32_3 C 0.0963(4) 0.2807(4) 0.2046(3)
H24_3 H 0.0861 0.3012 0.1639
C33_3 C 0.0416(4) 0.2217(4) 0.2299(3)
C34_3 C 0.0599(3) 0.1895(3) 0.2884(2)
C35_3 C 0.1292(3) 0.2185(3) 0.3215(2)
H26_3 H 0.1402 0.1970 0.3617
C36_3 C 0.0040(3) 0.1272(3) 0.3192(2)
H25_3 H 0.9928 0.2038 0.2080
C37_3 C 0.9093(3) 0.0764(3) 0.3820(2)
C38_3 C 0.8389(3) 0.0674(4) 0.4264(2)
C41_3 C 0.7085(4) 0.0450(4) 0.5090(3)
H29_3 H 0.6641 0.0373 0.5380
C42_3 C 0.7093(3) 0.1167(3) 0.4725(2)
C43_3 C 0.7754(3) 0.1266(3) 0.4307(2)
H30_3 H 0.7768 0.1749 0.4047
C44_3 C 0.6425(4) 0.1821(4) 0.4781(2)
C45_3 C 0.5947(4) 0.1914(3) 0.5316(3)
H31_3 H 0.6010 0.1524 0.5647
C46_3 C 0.5382(3) 0.2570(4) 0.5369(3)
H32_3 H 0.5068 0.2622 0.5742
C47_3 C 0.5689(4) 0.3037(4) 0.4396(2)
H33_3 H 0.5595 0.3426 0.4069
C48_3 C 0.6268(4) 0.2398(4) 0.4305(3)
H34_3 H 0.6557 0.2350 0.3921
N12_3 N 0.9461(3) 0.0118(3) 0.3546(2)
N13_3 N 0.9440(3) 0.1492(3) 0.3612(2)
N14_3 N 0.9260(4) 0.2311(3) 0.3818(3)
H35_3 H 0.9712 0.2598 0.3932
H36_3 H 0.9141 0.2595 0.3475
C39_3 C 0.8373(4) 0.9957(4) 0.4630(3)
H27_3 H 0.8809 0.9548 0.4600
C40_3 C 0.7708(4) 0.9842(4) 0.5044(3)
H28_3 H 0.7682 0.9348 0.5293
C25_4 C 0.0870(3) 0.8602(3) 0.1087(2)
H19_4 H 0.0370 0.8896 0.0977
C26_4 C 0.1162(4) 0.7986(4) 0.0690(2)
H20_4 H 0.0861 0.7859 0.0321
C27_4 C 0.1899(4) 0.7553(3) 0.0833(2)
C28_4 C 0.2340(3) 0.7829(4) 0.1357(2)
H21_4 H 0.2878 0.7597 0.1451
C29_4 C 0.1996(4) 0.8432(4) 0.1733(2)
H22_4 H 0.2302 0.8592 0.2092
C30_4 C 0.2211(3) 0.6827(3) 0.0461(2)
C34_4 C 0.3105(3) 0.5599(3) 0.0384(2)
C35_4 C 0.2815(3) 0.6292(3) 0.0715(2)
H26_4 H 0.3030 0.6402 0.1117
C36_4 C 0.3728(3) 0.5040(3) 0.0692(2)
C37_4 C 0.4236(3) 0.4093(3) 0.1320(2)
C38_4 C 0.4326(4) 0.3389(3) 0.1764(2)
C39_4 C 0.5043(4) 0.3373(4) 0.2130(3)
H27_4 H 0.5452 0.3809 0.2100
C40_4 C 0.5158(4) 0.2708(4) 0.2544(3)
H28_4 H 0.5652 0.2682 0.2793
C41_4 C 0.4550(4) 0.2085(4) 0.2590(3)
H29_4 H 0.4627 0.1641 0.2880
C42_4 C 0.3833(3) 0.2093(3) 0.2225(2)
C43_4 C 0.3734(3) 0.2754(3) 0.1807(2)
H30_4 H 0.3251 0.2768 0.1547
C44_4 C 0.3179(4) 0.1425(4) 0.2281(2)
C45_4 C 0.3086(3) 0.0947(4) 0.2816(3)
H31_4 H 0.3476 0.1010 0.3147
C46_4 C 0.2430(4) 0.0382(3) 0.2869(3)
H32_4 H 0.2378 0.0068 0.3242
C47_4 C 0.1963(4) 0.0689(4) 0.1896(2)
H33_4 H 0.1574 0.0595 0.1569
C48_4 C 0.2602(4) 0.1268(4) 0.1805(3)
H34_4 H 0.2650 0.1557 0.1421
N12_4 N 0.4882(3) 0.4461(3) 0.1046(2)
N13_4 N 0.3508(3) 0.4440(3) 0.1112(2)
N14_4 N 0.2689(3) 0.4260(4) 0.1318(3)
H35_4 H 0.2402 0.4712 0.1432
H36_4 H 0.2405 0.4141 0.0975
C31_4 C 0.1902(3) 0.6644(4) 0.9867(2)
H23_4 H 0.1485 0.6998 0.9687
C32_4 C 0.2193(4) 0.5963(4) 0.9546(3)
H24_4 H 0.1988 0.5861 0.9139
C33_4 C 0.2783(4) 0.5416(4) 0.9799(3)
H25_4 H 0.2962 0.4928 0.9580
C1_4 C 0.9130(3) 0.1398(3) 0.6087(2)
H1_4 H 0.9630 0.1104 0.5977
C2_4 C 0.8838(4) 0.2014(4) 0.5690(2)
H2_4 H 0.9139 0.2141 0.5321
C3_4 C 0.8101(4) 0.2447(3) 0.5833(2)
C4_4 C 0.7660(3) 0.2171(4) 0.6357(2)
H3_4 H 0.7122 0.2403 0.6451
C5_4 C 0.8004(4) 0.1568(4) 0.6733(2)
H4_4 H 0.7698 0.1408 0.7092
C6_4 C 0.7789(3) 0.3173(3) 0.5461(2)
C7_4 C 0.8098(3) 0.3356(4) 0.4867(2)
H5_4 H 0.8515 0.3002 0.4687
C8_4 C 0.7807(4) 0.4037(4) 0.4546(3)
H6_4 H 0.8012 0.4139 0.4139
C9_4 C 0.7217(4) 0.4584(4) 0.4799(3)
H7_4 H 0.7038 0.5072 0.4580
C10_4 C 0.6895(3) 0.4401(3) 0.5384(2)
C11_4 C 0.7185(3) 0.3708(3) 0.5715(2)
H8_4 H 0.6970 0.3598 0.6117
C12_4 C 0.6272(3) 0.4960(3) 0.5692(2)
C13_4 C 0.5764(3) 0.5907(3) 0.6320(2)
C14_4 C 0.5674(4) 0.6611(3) 0.6764(2)
C15_4 C 0.4957(4) 0.6627(4) 0.7130(3)
H9_4 H 0.4548 0.6191 0.7100
C16_2 C 0.4842(4) 0.7292(4) 0.7544(3)
H10_2 H 0.4348 0.7318 0.7793
C17_4 C 0.5450(4) 0.7915(4) 0.7590(3)
H11_4 H 0.5373 0.8359 0.7880
C18_4 C 0.6167(3) 0.7907(3) 0.7225(2)
C19_4 C 0.6266(3) 0.7246(3) 0.6807(2)
H12_4 H 0.6749 0.7232 0.6547
C20_4 C 0.6821(4) 0.8575(4) 0.7281(2)
C21_4 C 0.6914(3) 0.9053(4) 0.7816(3)
H13_4 H 0.6524 0.8990 0.8147
C22_4 C 0.7570(4) 0.9618(3) 0.7869(3)
H14_4 H 0.7622 0.9932 0.8242
C23_4 C 0.8037(4) 0.9311(4) 0.6896(2)
H15_4 H 0.8426 0.9405 0.6569
C24_4 C 0.7398(4) 0.8732(4) 0.6805(3)
H16_4 H 0.7350 0.8443 0.6421
N3_4 N 0.5118(3) 0.5539(3) 0.6046(2)
N4_4 N 0.6492(3) 0.5560(3) 0.6112(2)
N5_4 N 0.7311(3) 0.5740(4) 0.6318(3)
H17_4 H 0.7598 0.5288 0.6432
H18_4 H 0.7595 0.5859 0.5975
C16_3 C 0.0158(4) 0.2292(4) 0.9956(3)
H10_3 H 0.0652 0.2318 0.9707
C16_4 C 0.2292(4) 0.0158(4) 0.0044(3)
H10_4 H 0.2318 0.0652 0.0293
Cl1 Cl 0.26882(12) 0.26882(12) 0.0000
O3 O 0.2268(5) 0.2452(8) 0.0523(3)
O4 O 0.3372(13) 0.2131(10) 0.0207(18)
Cl1_2 Cl 0.26882(12) 0.26882(12) 1.0000
O1 O 0.2452(8) 0.2268(5) 0.9477(3)
O2 O 0.2131(10) 0.3372(13) 0.9793(18)
Cl1_3 Cl 0.73118(12) 0.73118(12) 0.5000
O1_2 O 0.7548(8) 0.7732(5) 0.4477(3)
O2_2 O 0.7869(10) 0.6628(13) 0.4793(18)
O3_2 O 0.7732(5) 0.7548(8) 0.5523(3)
O4_2 O 0.6628(13) 0.7869(10) 0.5207(18)
Cl1_4 Cl 0.23118(12) 0.76882(12) 0.7500
O1_3 O 0.2732(5) 0.7452(8) 0.6977(3)
O2_3 O 0.1628(13) 0.7131(10) 0.7293(18)
O3_3 O 0.2548(8) 0.7268(5) 0.8023(3)
O4_3 O 0.2869(10) 0.8372(13) 0.7707(18)
Cl1_5 Cl 0.76882(12) 0.23118(12) 0.2500
O1_4 O 0.7268(5) 0.2548(8) 0.1977(3)
O2_4 O 0.8372(13) 0.2869(10) 0.2293(18)
O3_4 O 0.7452(8) 0.2732(5) 0.3023(3)
O4_4 O 0.7131(10) 0.1628(13) 0.2707(18)
loop_
_geom_bond_atom_site_label_1
_geom_bond_atom_site_label_2
_geom_bond_site_symmetry_1
_geom_bond_site_symmetry_2
H23 C31 1_555 1_555
C32 C31 1_555 1_555
H24 C32 1_555 1_555
C33 C32 1_555 1_555
H25 C33 1_555 1_555
C25 H19 1_555 1_555
C26 C25 1_555 1_555
H20 C26 1_555 1_555
C27 C26 1_555 1_555
C28 C27 1_555 1_555
H21 C28 1_555 1_555
C29 C28 1_555 1_555
H22 C29 1_555 1_555
C30 C27 1_555 1_555
C35 C30 1_555 1_555
H26 C35 1_555 1_555
C36 C34 1_555 1_555
C37 C38 1_555 1_555
C38 C39 1_555 1_555
C39 H27 1_555 1_555
C40 C39 1_555 1_555
H28 C40 1_555 1_555
C41 C40 1_555 1_555
H29 C41 1_555 1_555
C42 C41 1_555 1_555
C43 C38 1_555 1_555
H30 C43 1_555 1_555
C44 C42 1_555 1_555
C45 C44 1_555 1_555
H31 C45 1_555 1_555
C46 C45 1_555 1_555
H32 C46 1_555 1_555
C47 H33 1_555 1_555
C48 C44 1_555 1_555
H34 C48 1_555 1_555
Cd4 N7 1_555 1_555
Cd5_2 N9 1_555 1_555
N7 C25 1_555 1_555
N9 C36 1_555 1_555
N12 C37 1_555 1_555
N13 C36 1_555 1_555
N14 N13 1_555 1_555
H35 N14 1_555 1_555
H36 N14 1_555 1_555
C29 N7 1_555 1_555
C34 C35 1_555 1_555
C37 N13 1_555 1_555
C42 C43 1_555 1_555
C46 N15 1_555 1_555
C47 C48 1_555 1_555
C47 N15 1_555 1_555
N9 N12 1_555 1_555
N8 Cd4 1_555 1_555
C1 H1 1_555 1_555
C2 C1 1_555 1_555
H2 C2 1_555 1_555
C3 C2 1_555 1_555
C4 C3 1_555 1_555
H3 C4 1_555 1_555
C5 C4 1_555 1_555
H4 C5 1_555 1_555
C6 C3 1_555 1_555
C7 C6 1_555 1_555
H5 C7 1_555 1_555
C8 C7 1_555 1_555
H6 C8 1_555 1_555
C9 C8 1_555 1_555
H7 C9 1_555 1_555
C10 C9 1_555 1_555
C11 C6 1_555 1_555
H8 C11 1_555 1_555
C12 C10 1_555 1_555
C13 C14 1_555 1_555
C14 C15 1_555 1_555
C15 H9 1_555 1_555
C16 C15 1_555 1_555
H10 C16 1_555 1_555
C17 C16 1_555 1_555
H11 C17 1_555 1_555
C18 C17 1_555 1_555
C19 C14 1_555 1_555
H12 C19 1_555 1_555
C20 C18 1_555 1_555
C21 C20 1_555 1_555
H13 C21 1_555 1_555
C22 C21 1_555 1_555
H14 C22 1_555 1_555
C23 H15 1_555 1_555
C24 C20 1_555 1_555
H16 C24 1_555 1_555
Cd3 N1 1_555 1_555
N1 C1 1_555 1_555
N2 C12 1_555 1_555
N3 C13 1_555 1_555
N4 C12 1_555 1_555
N5 N4 1_555 1_555
H17 N5 1_555 1_555
H18 N5 1_555 1_555
N6 C22 1_555 1_555
Cd2 N2 1_555 1_555
N8_2 Cd3 1_555 1_555
C5 N1 1_555 1_555
C10 C11 1_555 1_555
C13 N4 1_555 1_555
C18 C19 1_555 1_555
C23 C24 1_555 1_555
C23 N6 1_555 1_555
N2 N3 1_555 1_555
C25_2 H19_2 1_555 1_555
C26_2 C25_2 1_555 1_555
H20_2 C26_2 1_555 1_555
C27_2 C26_2 1_555 1_555
C28_2 C27_2 1_555 1_555
H21_2 C28_2 1_555 1_555
C29_2 C28_2 1_555 1_555
H22_2 C29_2 1_555 1_555
C30_2 C27_2 1_555 1_555
C31_2 C30_2 1_555 1_555
H23_2 C31_2 1_555 1_555
C32_2 C31_2 1_555 1_555
H24_2 C32_2 1_555 1_555
C33_2 C32_2 1_555 1_555
C34_2 C33_2 1_555 1_555
C35_2 C30_2 1_555 1_555
H26_2 C35_2 1_555 1_555
C36_2 C34_2 1_555 1_555
Cd2 N7_2 1_555 1_555
N7_2 C25_2 1_555 1_555
N10 C36_2 1_555 1_555
C29_2 N7_2 1_555 1_555
C34_2 C35_2 1_555 1_555
C37_2 C38_2 1_555 1_555
H29_2 C41_2 1_555 1_555
C42_2 C41_2 1_555 1_555
C43_2 C38_2 1_555 1_555
H30_2 C43_2 1_555 1_555
C44_2 C42_2 1_555 1_555
C45_2 C44_2 1_555 1_555
H31_2 C45_2 1_555 1_555
C46_2 C45_2 1_555 1_555
H32_2 C46_2 1_555 1_555
C47_2 H33_2 1_555 1_555
C48_2 C44_2 1_555 1_555
H34_2 C48_2 1_555 1_555
N8_3 Cd2 1_555 1_555
N11_3 Cd2 1_555 1_555
N12_2 C37_2 1_555 1_555
N14_2 N13_2 1_555 1_555
H35_2 N14_2 1_555 1_555
H36_2 N14_2 1_555 1_555
N15_2 Cd2 1_555 1_555
N16_3 Cd2 1_555 1_555
C37_2 N13_2 1_555 1_555
C42_2 C43_2 1_555 1_555
C46_2 N15_2 1_555 1_555
C47_2 C48_2 1_555 1_555
C47_2 N15_2 1_555 1_555
C39_2 H27_2 1_555 1_555
C40_2 C39_2 1_555 1_555
H28_2 C40_2 1_555 1_555
C15_2 H9_2 1_555 1_555
C13_2 C14_2 1_555 1_555
C19_2 C14_2 1_555 1_555
H12_2 C19_2 1_555 1_555
C20_2 C18_2 1_555 1_555
C23_2 H15_2 1_555 1_555
C24_2 C20_2 1_555 1_555
H16_2 C24_2 1_555 1_555
N3_2 C13_2 1_555 1_555
N5_2 N4_2 1_555 1_555
H17_2 N5_2 1_555 1_555
H18_2 N5_2 1_555 1_555
Cd5 N6_2 1_555 1_555
C13_2 N4_2 1_555 1_555
C18_2 C19_2 1_555 1_555
C23_2 C24_2 1_555 1_555
C23_2 N6_2 1_555 1_555
H11_2 C17_2 1_555 1_555
H13_2 C21_2 1_555 1_555
C22_2 C21_2 1_555 1_555
H14_2 C22_2 1_555 1_555
C1_2 H1_2 1_555 1_555
C2_2 C1_2 1_555 1_555
H2_2 C2_2 1_555 1_555
C3_2 C2_2 1_555 1_555
C4_2 C3_2 1_555 1_555
H3_2 C4_2 1_555 1_555
C5_2 C4_2 1_555 1_555
H4_2 C5_2 1_555 1_555
C6_2 C3_2 1_555 1_555
C7_2 C6_2 1_555 1_555
H5_2 C7_2 1_555 1_555
C8_2 C7_2 1_555 1_555
H6_2 C8_2 1_555 1_555
C9_2 C8_2 1_555 1_555
C10_2 C9_2 1_555 1_555
C11_2 C6_2 1_555 1_555
H8_2 C11_2 1_555 1_555
C12_2 C10_2 1_555 1_555
Cd5 N1_2 1_555 1_555
N1_2 C1_2 1_555 1_555
N10_2 C12_2 1_555 1_555
N11_4 Cd5 1_555 1_555
C5_2 N1_2 1_555 1_555
C10_2 C11_2 1_555 1_555
N8_4 Cd5_2 1_555 1_555
N16_4 Cd5_2 1_555 1_555
C15_3 H9_3 1_555 1_555
H11_3 C17_3 1_555 1_555
H13_3 C21_3 1_555 1_555
C22_3 C21_3 1_555 1_555
H14_3 C22_3 1_555 1_555
C13_3 C14_3 1_555 1_555
C19_3 C14_3 1_555 1_555
H12_3 C19_3 1_555 1_555
C20_3 C18_3 1_555 1_555
C23_3 H15_3 1_555 1_555
C24_3 C20_3 1_555 1_555
H16_3 C24_3 1_555 1_555
N3_3 C13_3 1_555 1_555
N5_3 N4_3 1_555 1_555
H17_3 N5_3 1_555 1_555
H18_3 N5_3 1_555 1_555
C13_3 N4_3 1_555 1_555
C18_3 C19_3 1_555 1_555
C23_3 C24_3 1_555 1_555
C23_3 N16_4 1_555 1_555
C1_3 H1_3 1_555 1_555
C2_3 C1_3 1_555 1_555
H2_3 C2_3 1_555 1_555
C3_3 C2_3 1_555 1_555
C4_3 C3_3 1_555 1_555
H3_3 C4_3 1_555 1_555
C5_3 C4_3 1_555 1_555
H4_3 C5_3 1_555 1_555
C6_3 C3_3 1_555 1_555
C7_3 C6_3 1_555 1_555
H5_3 C7_3 1_555 1_555
C8_3 C7_3 1_555 1_555
H6_3 C8_3 1_555 1_555
C9_3 C8_3 1_555 1_555
C10_3 C9_3 1_555 1_555
C11_3 C6_3 1_555 1_555
H8_3 C11_3 1_555 1_555
C12_3 C10_3 1_555 1_555
N8_4 C1_3 1_555 1_555
N11 C12_3 1_555 1_555
C5_3 N8_4 1_555 1_555
C10_3 C11_3 1_555 1_555
C25_3 H19_3 1_555 1_555
C26_3 C25_3 1_555 1_555
H20_3 C26_3 1_555 1_555
C27_3 C26_3 1_555 1_555
C28_3 C27_3 1_555 1_555
H21_3 C28_3 1_555 1_555
C29_3 C28_3 1_555 1_555
H22_3 C29_3 1_555 1_555
C30_3 C27_3 1_555 1_555
C31_3 C30_3 1_555 1_555
H23_3 C31_3 1_555 1_555
C32_3 C31_3 1_555 1_555
H24_3 C32_3 1_555 1_555
C33_3 C32_3 1_555 1_555
C34_3 C33_3 1_555 1_555
C35_3 C30_3 1_555 1_555
H26_3 C35_3 1_555 1_555
C36_3 C34_3 1_555 1_555
N8_3 C25_3 1_555 1_555
N11_2 C36_3 1_555 1_555
C29_3 N8_3 1_555 1_555
C34_3 C35_3 1_555 1_555
C37_3 C38_3 1_555 1_555
H29_3 C41_3 1_555 1_555
C42_3 C41_3 1_555 1_555
C43_3 C38_3 1_555 1_555
H30_3 C43_3 1_555 1_555
C44_3 C42_3 1_555 1_555
C45_3 C44_3 1_555 1_555
H31_3 C45_3 1_555 1_555
C46_3 C45_3 1_555 1_555
H32_3 C46_3 1_555 1_555
C47_3 H33_3 1_555 1_555
C48_3 C44_3 1_555 1_555
H34_3 C48_3 1_555 1_555
N12_3 C37_3 1_555 1_555
N14_3 N13_3 1_555 1_555
H35_3 N14_3 1_555 1_555
H36_3 N14_3 1_555 1_555
C37_3 N13_3 1_555 1_555
C42_3 C43_3 1_555 1_555
C46_3 N16_3 1_555 1_555
C47_3 C48_3 1_555 1_555
C47_3 N16_3 1_555 1_555
C39_3 H27_3 1_555 1_555
C40_3 C39_3 1_555 1_555
H28_3 C40_3 1_555 1_555
C25_4 H19_4 1_555 1_555
C26_4 C25_4 1_555 1_555
H20_4 C26_4 1_555 1_555
C27_4 C26_4 1_555 1_555
C28_4 C27_4 1_555 1_555
H21_4 C28_4 1_555 1_555
C29_4 C28_4 1_555 1_555
H22_4 C29_4 1_555 1_555
C30_4 C27_4 1_555 1_555
C35_4 C30_4 1_555 1_555
H26_4 C35_4 1_555 1_555
C36_4 C34_4 1_555 1_555
C37_4 C38_4 1_555 1_555
C38_4 C39_4 1_555 1_555
C39_4 H27_4 1_555 1_555
C40_4 C39_4 1_555 1_555
H28_4 C40_4 1_555 1_555
C41_4 C40_4 1_555 1_555
H29_4 C41_4 1_555 1_555
C42_4 C41_4 1_555 1_555
C43_4 C38_4 1_555 1_555
H30_4 C43_4 1_555 1_555
C44_4 C42_4 1_555 1_555
C45_4 C44_4 1_555 1_555
H31_4 C45_4 1_555 1_555
C46_4 C45_4 1_555 1_555
H32_4 C46_4 1_555 1_555
C47_4 H33_4 1_555 1_555
C48_4 C44_4 1_555 1_555
H34_4 C48_4 1_555 1_555
N8_2 C25_4 1_555 1_555
N11_4 C36_4 1_555 1_555
N12_4 C37_4 1_555 1_555
N13_4 C36_4 1_555 1_555
N14_4 N13_4 1_555 1_555
H35_4 N14_4 1_555 1_555
H36_4 N14_4 1_555 1_555
C29_4 N8_2 1_555 1_555
C34_4 C35_4 1_555 1_555
C37_4 N13_4 1_555 1_555
C42_4 C43_4 1_555 1_555
C46_4 N16_2 1_555 1_555
C47_4 C48_4 1_555 1_555
C47_4 N16_2 1_555 1_555
N11_4 N12_4 1_555 1_555
H23_4 C31_4 1_555 1_555
C32_4 C31_4 1_555 1_555
H24_4 C32_4 1_555 1_555
C33_4 C32_4 1_555 1_555
H25_4 C33_4 1_555 1_555
C1_4 H1_4 1_555 1_555
C2_4 C1_4 1_555 1_555
H2_4 C2_4 1_555 1_555
C3_4 C2_4 1_555 1_555
C4_4 C3_4 1_555 1_555
H3_4 C4_4 1_555 1_555
C5_4 C4_4 1_555 1_555
H4_4 C5_4 1_555 1_555
C6_4 C3_4 1_555 1_555
C7_4 C6_4 1_555 1_555
H5_4 C7_4 1_555 1_555
C8_4 C7_4 1_555 1_555
H6_4 C8_4 1_555 1_555
C9_4 C8_4 1_555 1_555
H7_4 C9_4 1_555 1_555
C10_4 C9_4 1_555 1_555
C11_4 C6_4 1_555 1_555
H8_4 C11_4 1_555 1_555
C12_4 C10_4 1_555 1_555
C13_4 C14_4 1_555 1_555
C14_4 C15_4 1_555 1_555
C15_4 H9_4 1_555 1_555
C16_2 C15_4 1_555 1_555
H10_2 C16_2 1_555 1_555
C17_4 C16_2 1_555 1_555
H11_4 C17_4 1_555 1_555
C18_4 C17_4 1_555 1_555
C19_4 C14_4 1_555 1_555
H12_4 C19_4 1_555 1_555
C20_4 C18_4 1_555 1_555
C21_4 C20_4 1_555 1_555
H13_4 C21_4 1_555 1_555
C22_4 C21_4 1_555 1_555
H14_4 C22_4 1_555 1_555
C23_4 H15_4 1_555 1_555
C24_4 C20_4 1_555 1_555
H16_4 C24_4 1_555 1_555
N8 C1_4 1_555 1_555
N11_3 C12_4 1_555 1_555
N3_4 C13_4 1_555 1_555
N4_4 C12_4 1_555 1_555
N5_4 N4_4 1_555 1_555
H17_4 N5_4 1_555 1_555
H18_4 N5_4 1_555 1_555
N16 C22_4 1_555 1_555
C5_4 N8 1_555 1_555
C10_4 C11_4 1_555 1_555
C13_4 N4_4 1_555 1_555
C18_4 C19_4 1_555 1_555
C23_4 C24_4 1_555 1_555
C23_4 N16 1_555 1_555
N11_3 N3_4 1_555 1_555
H10_3 C16_3 1_555 1_555
H10_4 C16_4 1_555 1_555
O3 Cl1 1_555 1_555
O4 Cl1 1_555 1_555
Cl1_2 O1 1_555 1_555
O2 Cl1_2 1_555 1_555
Cl1_3 O1_2 1_555 1_555
O2_2 Cl1_3 1_555 1_555
O3_2 Cl1_3 1_555 1_555
O4_2 Cl1_3 1_555 1_555
Cl1_4 O1_3 1_555 1_555
O2_3 Cl1_4 1_555 1_555
O3_3 Cl1_4 1_555 1_555
O4_3 Cl1_4 1_555 1_555
Cl1_5 O1_4 1_555 1_555
O2_4 Cl1_5 1_555 1_555
O3_4 Cl1_5 1_555 1_555
O4_4 Cl1_5 1_555 1_555

#END
