
###############################################################################
#
# This file contains modified crystal structure data generated from the
# MOF subset of the Cambridge Structural Database (CSD) v543 
# hosted by the Cambridge Crystallographic Data Centre (CCDC).
#
# This work is licensed under the Creative Commons
# Attribution-NonCommercial-ShareAlike 4.0 International License.
# To view a copy of this license, visit
# http://creativecommons.org/licenses/by-nc-sa/4.0/
# or send a letter to
# Creative Commons, PO Box 1866, Mountain View, CA 94042, USA.
#
# CIF created using the CSD Python API on 29 September 2022
# The structure has been converted into the P1 space group
# The structure has a 3D framework
# The original CSD entry SAJDIT is in the monoclinic crystal system
# The framework has been calculated to contain at least 10.0% void space
# The void calculation uses a probe of radius 1.32A, grid spacing 0.4
#
###############################################################################

data_SAJDIT
_chemical_formula_moiety         '(C264 H232 O80 Tb4)n'
_symmetry_cell_setting           triclinic
_symmetry_space_group_name_H-M   'P 1'
_symmetry_Int_Tables_number      1
_space_group_name_Hall           'P 1'
loop_
_symmetry_equiv_pos_site_id
_symmetry_equiv_pos_as_xyz
1 x,y,z
_cell_length_a                   30.773(2)
_cell_length_b                   9.3088(4)
_cell_length_c                   30.411(2)
_cell_angle_alpha                90
_cell_angle_beta                 111.272(8)
_cell_angle_gamma                90
_cell_volume                     8118
loop_
_atom_site_label
_atom_site_type_symbol
_atom_site_fract_x
_atom_site_fract_y
_atom_site_fract_z
H6 H 0.5384 0.0522 0.8095
C13 C 0.5821(4) 0.0380(12) 0.8756(4)
H7 H 0.5704 0.1160 0.8869
C15 C 0.6903(3) 0.3043(9) 0.5449(3)
C16 C 0.6504(3) 0.3208(9) 0.5624(3)
C17 C 0.6333(4) 0.4544(10) 0.5685(4)
H9 H 0.6468 0.5374 0.5620
C18 C 0.5974(5) 0.4641(11) 0.5836(5)
H10 H 0.5870 0.5547 0.5882
C19 C 0.5750(3) 0.3412(11) 0.5928(4)
H11 H 0.5498 0.3488 0.6027
C20 C 0.5927(3) 0.2067(10) 0.5862(3)
C21 C 0.6297(3) 0.1980(10) 0.5718(3)
H12 H 0.6412 0.1082 0.5682
C24 C 0.5352(4) 0.0808(12) 0.6084(4)
H17 H 0.5073 0.1066 0.5819
H18 H 0.5397 0.1511 0.6332
C32 C 0.5919(4) 0.0057(16) 0.7035(4)
H22 H 0.6011 0.0690 0.6835
H24 H 0.5789 0.0610 0.7224
O5 O 0.7010(2) 0.4132(7) 0.5259(2)
O6 O 0.7089(3) 0.1865(7) 0.5508(3)
O9 O 0.5749(3) 0.0795(8) 0.5941(3)
Tb3 Tb 0.744872(16) 0.45471(5) 0.477798(17)
Tb4 Tb 0.755128(16) 0.04529(5) 0.522202(17)
Tb2 Tb 0.755128(16) 0.95471(5) 0.022202(17)
C1 C 0.3181(3) 0.2436(10) 0.5202(4)
C2 C 0.3653(3) 0.2699(9) 0.5175(4)
C3 C 0.3813(4) 0.1795(11) 0.4898(4)
H1 H 0.3636 0.1006 0.4748
C4 C 0.4230(4) 0.2074(11) 0.4849(4)
H2 H 0.4322 0.1524 0.4642
C5 C 0.4523(3) 0.3189(12) 0.5109(4)
H3 H 0.4814 0.3356 0.5090
C6 C 0.4360(3) 0.4022(10) 0.5394(3)
C7 C 0.3930(3) 0.3835(9) 0.5417(3)
H4 H 0.3823 0.4461 0.5594
C8 C 0.6763(3) 0.7517(11) 0.9221(3)
C9 C 0.6364(3) 0.8406(10) 0.8905(3)
C10 C 0.6144(3) 0.7943(11) 0.8436(3)
H5 H 0.6244 0.7116 0.8330
C11 C 0.5771(3) 0.8746(13) 0.8133(3)
C12 C 0.5624(4) 0.9971(16) 0.8301(4)
C14 C 0.6205(4) 0.9606(12) 0.9056(4)
H8 H 0.6356 0.9917 0.9365
C22 C 0.4495(3) 0.6120(11) 0.5883(3)
H13 H 0.4362 0.5632 0.6086
H14 H 0.4253 0.6689 0.5656
C23 C 0.5744(4) 0.7426(14) 0.7443(3)
H15 H 0.5701 0.6439 0.7522
H16 H 0.6075 0.7613 0.7531
C25 C 0.4891(3) 0.7079(10) 0.6173(3)
C26 C 0.5151(3) 0.6720(11) 0.6636(3)
C27 C 0.5480(3) 0.7720(11) 0.6916(3)
C28 C 0.5554(3) 0.9000(12) 0.6731(3)
C29 C 0.5297(3) 0.9348(11) 0.6258(3)
C30 C 0.4968(3) 0.8370(11) 0.5974(3)
C31 C 0.5068(5) 0.5306(14) 0.6837(5)
H19 H 0.4880 0.5464 0.7025
H20 H 0.5362 0.4898 0.7031
H21 H 0.4910 0.4657 0.6585
H23 H 0.6186 0.9537 0.7237
C33 C 0.4697(4) 0.8712(14) 0.5460(3)
H25 H 0.4863 0.9421 0.5353
H26 H 0.4395 0.9077 0.5427
H27 H 0.4662 0.7855 0.5275
O1 O 0.3015(2) 0.1217(6) 0.5095(3)
O2 O 0.3009(2) 0.3437(6) 0.5344(2)
O3 O 0.6791(3) 0.6263(7) 0.9131(2)
O4 O 0.7063(2) 0.8110(7) 0.9590(2)
O7 O 0.4674(2) 0.5101(8) 0.5646(2)
O8 O 0.5535(2) 0.8415(11) 0.7675(2)
O10 O 0.2513(4) 0.0784(10) 0.4092(4)
H28 H 0.2309 0.0420 0.3847
H29 H 0.2458 0.1676 0.4104
Tb5 Tb 0.255128(16) 0.54529(5) 0.522202(17)
Tb6 Tb 0.744872(16) 0.54529(5) 0.977798(17)
O11 O 0.1991(2) 0.1563(6) 0.4656(2)
Tb1 Tb 0.244872(16) 0.95471(5) 0.477798(17)
O12 O 0.1791(3) 0.8737(7) 0.4131(2)
O13 O 0.2937(2) 0.8110(7) 0.5410(2)
O14 O 0.2063(2) 0.6890(7) 0.4590(2)
O15 O 0.2010(2) 0.9132(7) 0.5259(2)
O16 O 0.2911(3) 0.8135(7) 0.4492(3)
Tb3_2 Tb 0.255128(16) 0.45471(5) 0.022202(17)
H6_2 H 0.4616 0.0522 0.6905
C13_2 C 0.4179(4) 0.0380(12) 0.6244(4)
H7_2 H 0.4296 0.1160 0.6131
C15_2 C 0.3097(3) 0.3043(9) 0.9551(3)
C16_2 C 0.3496(3) 0.3208(9) 0.9376(3)
C17_2 C 0.3667(4) 0.4544(10) 0.9315(4)
H9_2 H 0.3532 0.5374 0.9380
C18_2 C 0.4026(5) 0.4641(11) 0.9164(5)
H10_2 H 0.4130 0.5547 0.9118
C19_2 C 0.4250(3) 0.3412(11) 0.9072(4)
H11_2 H 0.4502 0.3488 0.8973
C20_2 C 0.4073(3) 0.2067(10) 0.9138(3)
C21_2 C 0.3703(3) 0.1980(10) 0.9282(3)
H12_2 H 0.3588 0.1082 0.9318
C24_2 C 0.4648(4) 0.0808(12) 0.8916(4)
H17_2 H 0.4927 0.1066 0.9181
H18_2 H 0.4603 0.1511 0.8668
C32_2 C 0.4081(4) 0.0057(16) 0.7965(4)
H22_2 H 0.3989 0.0690 0.8165
H24_2 H 0.4211 0.0610 0.7776
O5_2 O 0.2990(2) 0.4132(7) 0.9741(2)
O6_2 O 0.2911(3) 0.1865(7) 0.9492(3)
O9_2 O 0.4251(3) 0.0795(8) 0.9059(3)
Tb4_2 Tb 0.244872(16) 0.04529(5) 0.977798(17)
C3_2 C 0.6187(4) 0.1795(11) 0.0102(4)
H1_2 H 0.6364 0.1006 0.0252
C4_2 C 0.5770(4) 0.2074(11) 0.0151(4)
H2_2 H 0.5678 0.1524 0.0358
O10_2 O 0.7487(4) 0.0784(10) 0.0908(4)
H28_2 H 0.7691 0.0420 0.1153
H29_2 H 0.7542 0.1676 0.0896
O11_2 O 0.8009(2) 0.1563(6) 0.0344(2)
C1_2 C 0.6819(3) 0.2436(10) 0.9798(4)
C2_2 C 0.6347(3) 0.2699(9) 0.9825(4)
C5_2 C 0.5477(3) 0.3189(12) 0.9891(4)
H3_2 H 0.5186 0.3356 0.9910
C6_2 C 0.5640(3) 0.4022(10) 0.9606(3)
C7_2 C 0.6070(3) 0.3835(9) 0.9583(3)
H4_2 H 0.6177 0.4461 0.9406
C8_2 C 0.3237(3) 0.7517(11) 0.5779(3)
C9_2 C 0.3636(3) 0.8406(10) 0.6095(3)
C10_2 C 0.3856(3) 0.7943(11) 0.6564(3)
H5_2 H 0.3756 0.7116 0.6670
C11_2 C 0.4229(3) 0.8746(13) 0.6867(3)
C12_2 C 0.4376(4) 0.9971(16) 0.6699(4)
C14_2 C 0.3795(4) 0.9606(12) 0.5944(4)
H8_2 H 0.3644 0.9917 0.5635
C22_2 C 0.5505(3) 0.6120(11) 0.9117(3)
H13_2 H 0.5638 0.5632 0.8914
H14_2 H 0.5747 0.6689 0.9344
C23_2 C 0.4256(4) 0.7426(14) 0.7557(3)
H15_2 H 0.4299 0.6439 0.7478
H16_2 H 0.3925 0.7613 0.7469
C25_2 C 0.5109(3) 0.7079(10) 0.8827(3)
C26_2 C 0.4849(3) 0.6720(11) 0.8364(3)
C27_2 C 0.4520(3) 0.7720(11) 0.8084(3)
C28_2 C 0.4446(3) 0.9000(12) 0.8269(3)
C29_2 C 0.4703(3) 0.9348(11) 0.8742(3)
C30_2 C 0.5032(3) 0.8370(11) 0.9026(3)
C31_2 C 0.4932(5) 0.5306(14) 0.8163(5)
H19_2 H 0.5120 0.5464 0.7975
H20_2 H 0.4638 0.4898 0.7969
H21_2 H 0.5090 0.4657 0.8415
H23_2 H 0.3814 0.9537 0.7763
C33_2 C 0.5303(4) 0.8712(14) 0.9540(3)
H25_2 H 0.5137 0.9421 0.9647
H26_2 H 0.5605 0.9077 0.9573
H27_2 H 0.5338 0.7855 0.9725
O1_2 O 0.6985(2) 0.1217(6) 0.9905(3)
O2_2 O 0.6991(2) 0.3437(6) 0.9656(2)
O3_2 O 0.3209(3) 0.6263(7) 0.5869(2)
O7_2 O 0.5326(2) 0.5101(8) 0.9354(2)
O8_2 O 0.4465(2) 0.8415(11) 0.7325(2)
O12_2 O 0.8209(3) 0.8737(7) 0.0869(2)
O14_2 O 0.7937(2) 0.6890(7) 0.0410(2)
O16_2 O 0.7089(3) 0.8135(7) 0.0508(3)
O15_2 O 0.7990(2) 0.9132(7) 0.9741(2)
C8_3 C 0.1763(3) 0.2517(11) 0.9221(3)
C9_3 C 0.1364(3) 0.3406(10) 0.8905(3)
C10_3 C 0.1144(3) 0.2943(11) 0.8436(3)
H5_3 H 0.1244 0.2116 0.8330
C11_3 C 0.0771(3) 0.3746(13) 0.8133(3)
C12_3 C 0.0624(4) 0.4971(16) 0.8301(4)
H6_3 H 0.0384 0.5522 0.8095
C13_3 C 0.0821(4) 0.5380(12) 0.8756(4)
H7_3 H 0.0704 0.6160 0.8869
C14_3 C 0.1205(4) 0.4606(12) 0.9056(4)
H8_3 H 0.1356 0.4917 0.9365
C15_3 C 0.1903(3) 0.8043(9) 0.5449(3)
C16_3 C 0.1504(3) 0.8208(9) 0.5624(3)
C17_3 C 0.1333(4) 0.9544(10) 0.5685(4)
C18_3 C 0.0974(5) 0.9641(11) 0.5836(5)
C19_3 C 0.0750(3) 0.8412(11) 0.5928(4)
H11_3 H 0.0498 0.8488 0.6027
C20_3 C 0.0927(3) 0.7067(10) 0.5862(3)
C21_3 C 0.1297(3) 0.6980(10) 0.5718(3)
H12_3 H 0.1412 0.6082 0.5682
C23_3 C 0.0744(4) 0.2426(14) 0.7443(3)
H15_3 H 0.0701 0.1439 0.7522
H16_3 H 0.1075 0.2613 0.7531
C24_3 C 0.0352(4) 0.5808(12) 0.6084(4)
H17_3 H 0.0073 0.6066 0.5819
H18_3 H 0.0397 0.6511 0.6332
C26_3 C 0.0151(3) 0.1720(11) 0.6636(3)
C27_3 C 0.0480(3) 0.2720(11) 0.6916(3)
C28_3 C 0.0554(3) 0.4000(12) 0.6731(3)
C29_3 C 0.0297(3) 0.4348(11) 0.6258(3)
C31_3 C 0.0068(5) 0.0306(14) 0.6837(5)
C32_3 C 0.0919(4) 0.5057(16) 0.7035(4)
H22_3 H 0.1011 0.5690 0.6835
H23_3 H 0.1186 0.4537 0.7237
H24_3 H 0.0789 0.5610 0.7224
O3_3 O 0.1791(3) 0.1263(7) 0.9131(2)
O4_2 O 0.2063(2) 0.3110(7) 0.9590(2)
O6_3 O 0.2089(3) 0.6865(7) 0.5508(3)
O8_3 O 0.0535(2) 0.3415(11) 0.7675(2)
O9_3 O 0.0749(3) 0.5795(8) 0.5941(3)
C22_3 C 0.9495(3) 0.1120(11) 0.5883(3)
H13_3 H 0.9362 0.0632 0.6086
H14_3 H 0.9253 0.1689 0.5656
C25_3 C 0.9891(3) 0.2079(10) 0.6173(3)
C30_3 C 0.9968(3) 0.3370(11) 0.5974(3)
H19_3 H 0.9880 0.0464 0.7025
C33_3 C 0.9697(4) 0.3712(14) 0.5460(3)
H25_3 H 0.9863 0.4421 0.5353
H26_3 H 0.9395 0.4077 0.5427
H27_3 H 0.9662 0.2855 0.5275
O7_3 O 0.9674(2) 0.0101(8) 0.5646(2)
C1_3 C 0.8181(3) 0.7436(10) 0.5202(4)
C2_3 C 0.8653(3) 0.7699(9) 0.5175(4)
C3_3 C 0.8813(4) 0.6795(11) 0.4898(4)
H1_3 H 0.8636 0.6006 0.4748
C4_3 C 0.9230(4) 0.7074(11) 0.4849(4)
H2_3 H 0.9322 0.6524 0.4642
C5_3 C 0.9523(3) 0.8189(12) 0.5109(4)
H3_3 H 0.9814 0.8356 0.5090
C6_3 C 0.9360(3) 0.9022(10) 0.5394(3)
C7_3 C 0.8930(3) 0.8835(9) 0.5417(3)
H4_3 H 0.8823 0.9461 0.5594
H21_3 H 0.9910 0.9657 0.6585
O1_3 O 0.8015(2) 0.6217(6) 0.5095(3)
O2_3 O 0.8009(2) 0.8437(6) 0.5344(2)
O10_3 O 0.7513(4) 0.5784(10) 0.4092(4)
H28_3 H 0.7309 0.5420 0.3847
H29_3 H 0.7458 0.6676 0.4104
O11_3 O 0.6991(2) 0.6563(6) 0.4656(2)
O12_3 O 0.6791(3) 0.3737(7) 0.4131(2)
O13_2 O 0.7937(2) 0.3110(7) 0.5410(2)
O14_3 O 0.7063(2) 0.1890(7) 0.4590(2)
O16_3 O 0.7911(3) 0.3135(7) 0.4492(3)
C22_4 C 0.0505(3) 0.1120(11) 0.9117(3)
H13_4 H 0.0638 0.0632 0.8914
H14_4 H 0.0747 0.1689 0.9344
C25_4 C 0.0109(3) 0.2079(10) 0.8827(3)
C30_4 C 0.0032(3) 0.3370(11) 0.9026(3)
H19_4 H 0.0120 0.0464 0.7975
C33_4 C 0.0303(4) 0.3712(14) 0.9540(3)
H25_4 H 0.0137 0.4421 0.9647
H26_4 H 0.0605 0.4077 0.9573
H27_4 H 0.0338 0.2855 0.9725
O7_4 O 0.0326(2) 0.0101(8) 0.9354(2)
C3_4 C 0.1187(4) 0.6795(11) 0.0102(4)
H1_4 H 0.1364 0.6006 0.0252
C4_4 C 0.0770(4) 0.7074(11) 0.0151(4)
H2_4 H 0.0678 0.6524 0.0358
O10_4 O 0.2487(4) 0.5784(10) 0.0908(4)
H28_4 H 0.2691 0.5420 0.1153
H29_4 H 0.2542 0.6676 0.0896
O11_4 O 0.3009(2) 0.6563(6) 0.0344(2)
O12_4 O 0.3209(3) 0.3737(7) 0.0869(2)
O14_4 O 0.2937(2) 0.1890(7) 0.0410(2)
O16_4 O 0.2089(3) 0.3135(7) 0.0508(3)
C1_4 C 0.1819(3) 0.7436(10) 0.9798(4)
C2_4 C 0.1347(3) 0.7699(9) 0.9825(4)
C5_4 C 0.0477(3) 0.8189(12) 0.9891(4)
H3_4 H 0.0186 0.8356 0.9910
C6_4 C 0.0640(3) 0.9022(10) 0.9606(3)
C7_4 C 0.1070(3) 0.8835(9) 0.9583(3)
H4_4 H 0.1177 0.9461 0.9406
H21_4 H 0.0090 0.9657 0.8415
O1_4 O 0.1985(2) 0.6217(6) 0.9905(3)
O2_4 O 0.1991(2) 0.8437(6) 0.9656(2)
C8_4 C 0.8237(3) 0.2517(11) 0.5779(3)
C9_4 C 0.8636(3) 0.3406(10) 0.6095(3)
C10_4 C 0.8856(3) 0.2943(11) 0.6564(3)
H5_4 H 0.8756 0.2116 0.6670
C11_4 C 0.9229(3) 0.3746(13) 0.6867(3)
C12_4 C 0.9376(4) 0.4971(16) 0.6699(4)
H6_4 H 0.9616 0.5522 0.6905
C13_4 C 0.9179(4) 0.5380(12) 0.6244(4)
H7_4 H 0.9296 0.6160 0.6131
C14_4 C 0.8795(4) 0.4606(12) 0.5944(4)
H8_4 H 0.8644 0.4917 0.5635
C15_4 C 0.8097(3) 0.8043(9) 0.9551(3)
C16_4 C 0.8496(3) 0.8208(9) 0.9376(3)
C17_4 C 0.8667(4) 0.9544(10) 0.9315(4)
C18_4 C 0.9026(5) 0.9641(11) 0.9164(5)
C19_4 C 0.9250(3) 0.8412(11) 0.9072(4)
H11_4 H 0.9502 0.8488 0.8973
C20_4 C 0.9073(3) 0.7067(10) 0.9138(3)
C21_4 C 0.8703(3) 0.6980(10) 0.9282(3)
H12_4 H 0.8588 0.6082 0.9318
C23_4 C 0.9256(4) 0.2426(14) 0.7557(3)
H15_4 H 0.9299 0.1439 0.7478
H16_4 H 0.8925 0.2613 0.7469
C24_4 C 0.9648(4) 0.5808(12) 0.8916(4)
H17_4 H 0.9927 0.6066 0.9181
H18_4 H 0.9603 0.6511 0.8668
C26_4 C 0.9849(3) 0.1720(11) 0.8364(3)
C27_4 C 0.9520(3) 0.2720(11) 0.8084(3)
C28_4 C 0.9446(3) 0.4000(12) 0.8269(3)
C29_4 C 0.9703(3) 0.4348(11) 0.8742(3)
C31_4 C 0.9932(5) 0.0306(14) 0.8163(5)
C32_4 C 0.9081(4) 0.5057(16) 0.7965(4)
H22_4 H 0.8989 0.5690 0.8165
H23_4 H 0.8814 0.4537 0.7763
H24_4 H 0.9211 0.5610 0.7776
O3_4 O 0.8209(3) 0.1263(7) 0.5869(2)
O6_4 O 0.7911(3) 0.6865(7) 0.9492(3)
O8_4 O 0.9465(2) 0.3415(11) 0.7325(2)
O9_4 O 0.9251(3) 0.5795(8) 0.9059(3)
O15_3 O 0.7990(2) 0.0868(7) 0.4741(2)
C1_5 C 0.6819(3) 0.7564(10) 0.4798(4)
C2_5 C 0.6347(3) 0.7301(9) 0.4825(4)
C3_5 C 0.6187(4) 0.8205(11) 0.5102(4)
H1_5 H 0.6364 0.8994 0.5252
C4_5 C 0.5770(4) 0.7926(11) 0.5151(4)
H2_5 H 0.5678 0.8476 0.5358
C5_5 C 0.5477(3) 0.6811(12) 0.4891(4)
H3_5 H 0.5186 0.6644 0.4910
C6_5 C 0.5640(3) 0.5978(10) 0.4606(3)
C7_5 C 0.6070(3) 0.6165(9) 0.4583(3)
H4_5 H 0.6177 0.5539 0.4406
C8_5 C 0.3237(3) 0.2483(11) 0.0779(3)
C9_5 C 0.3636(3) 0.1594(10) 0.1095(3)
C10_5 C 0.3856(3) 0.2057(11) 0.1564(3)
H5_5 H 0.3756 0.2884 0.1670
C11_5 C 0.4229(3) 0.1254(13) 0.1867(3)
C12_5 C 0.4376(4) 0.0029(16) 0.1699(4)
C14_5 C 0.3795(4) 0.0394(12) 0.0944(4)
H8_5 H 0.3644 0.0083 0.0635
C22_5 C 0.5505(3) 0.3880(11) 0.4117(3)
H13_5 H 0.5638 0.4368 0.3914
H14_5 H 0.5747 0.3311 0.4344
C23_5 C 0.4256(4) 0.2574(14) 0.2557(3)
H15_5 H 0.4299 0.3561 0.2478
H16_5 H 0.3925 0.2387 0.2469
C25_5 C 0.5109(3) 0.2921(10) 0.3827(3)
C26_5 C 0.4849(3) 0.3280(11) 0.3364(3)
C27_5 C 0.4520(3) 0.2280(11) 0.3084(3)
C28_5 C 0.4446(3) 0.1000(12) 0.3269(3)
C29_5 C 0.4703(3) 0.0652(11) 0.3742(3)
C30_5 C 0.5032(3) 0.1630(11) 0.4026(3)
C31_5 C 0.4932(5) 0.4694(14) 0.3163(5)
H19_5 H 0.5120 0.4536 0.2975
H20_3 H 0.4638 0.5102 0.2969
H21_5 H 0.5090 0.5343 0.3415
H23_5 H 0.3814 0.0463 0.2763
C33_5 C 0.5303(4) 0.1288(14) 0.4540(3)
H25_5 H 0.5137 0.0579 0.4647
H26_5 H 0.5605 0.0923 0.4573
H27_5 H 0.5338 0.2145 0.4725
O1_5 O 0.6985(2) 0.8783(6) 0.4905(3)
O7_5 O 0.5326(2) 0.4899(8) 0.4354(2)
O8_5 O 0.4465(2) 0.1585(11) 0.2325(2)
O10_5 O 0.7487(4) 0.9216(10) 0.5908(4)
H28_5 H 0.7691 0.9580 0.6153
H29_5 H 0.7542 0.8324 0.5896
H6_5 H 0.4616 0.9478 0.1905
C13_5 C 0.4179(4) 0.9620(12) 0.1244(4)
H7_5 H 0.4296 0.8840 0.1131
C15_5 C 0.3097(3) 0.6957(9) 0.4551(3)
C16_5 C 0.3496(3) 0.6792(9) 0.4376(3)
C17_5 C 0.3667(4) 0.5456(10) 0.4315(4)
H9_3 H 0.3532 0.4626 0.4380
C18_5 C 0.4026(5) 0.5359(11) 0.4164(5)
H10_3 H 0.4130 0.4453 0.4118
C19_5 C 0.4250(3) 0.6588(11) 0.4072(4)
H11_5 H 0.4502 0.6512 0.3973
C20_5 C 0.4073(3) 0.7933(10) 0.4138(3)
C21_5 C 0.3703(3) 0.8020(10) 0.4282(3)
H12_5 H 0.3588 0.8918 0.4318
C24_5 C 0.4648(4) 0.9192(12) 0.3916(4)
H17_5 H 0.4927 0.8934 0.4181
H18_5 H 0.4603 0.8489 0.3668
C32_5 C 0.4081(4) 0.9943(16) 0.2965(4)
H22_5 H 0.3989 0.9310 0.3165
H24_5 H 0.4211 0.9390 0.2776
O5_3 O 0.2990(2) 0.5868(7) 0.4741(2)
O9_5 O 0.4251(3) 0.9205(8) 0.4059(3)
O15_4 O 0.2010(2) 0.0868(7) 0.0259(2)
C1_6 C 0.3181(3) 0.7564(10) 0.0202(4)
C2_6 C 0.3653(3) 0.7301(9) 0.0175(4)
C5_6 C 0.4523(3) 0.6811(12) 0.0109(4)
H3_6 H 0.4814 0.6644 0.0090
C6_6 C 0.4360(3) 0.5978(10) 0.0394(3)
C7_6 C 0.3930(3) 0.6165(9) 0.0417(3)
H4_6 H 0.3823 0.5539 0.0594
C8_6 C 0.6763(3) 0.2483(11) 0.4221(3)
C9_6 C 0.6364(3) 0.1594(10) 0.3905(3)
C10_6 C 0.6144(3) 0.2057(11) 0.3436(3)
H5_6 H 0.6244 0.2884 0.3330
C11_6 C 0.5771(3) 0.1254(13) 0.3133(3)
C12_6 C 0.5624(4) 0.0029(16) 0.3301(4)
C14_6 C 0.6205(4) 0.0394(12) 0.4056(4)
H8_6 H 0.6356 0.0083 0.4365
C22_6 C 0.4495(3) 0.3880(11) 0.0883(3)
H13_6 H 0.4362 0.4368 0.1086
H14_6 H 0.4253 0.3311 0.0656
C23_6 C 0.5744(4) 0.2574(14) 0.2443(3)
H15_6 H 0.5701 0.3561 0.2522
H16_6 H 0.6075 0.2387 0.2531
C25_6 C 0.4891(3) 0.2921(10) 0.1173(3)
C26_6 C 0.5151(3) 0.3280(11) 0.1636(3)
C27_6 C 0.5480(3) 0.2280(11) 0.1916(3)
C28_6 C 0.5554(3) 0.1000(12) 0.1731(3)
C29_6 C 0.5297(3) 0.0652(11) 0.1258(3)
C30_6 C 0.4968(3) 0.1630(11) 0.0974(3)
C31_6 C 0.5068(5) 0.4694(14) 0.1837(5)
H19_6 H 0.4880 0.4536 0.2025
H20_4 H 0.5362 0.5102 0.2031
H21_6 H 0.4910 0.5343 0.1585
H23_6 H 0.6186 0.0463 0.2237
C33_6 C 0.4697(4) 0.1288(14) 0.0460(3)
H25_6 H 0.4863 0.0579 0.0353
H26_6 H 0.4395 0.0923 0.0427
H27_6 H 0.4662 0.2145 0.0275
O1_6 O 0.3015(2) 0.8783(6) 0.0095(3)
O7_6 O 0.4674(2) 0.4899(8) 0.0646(2)
O8_6 O 0.5535(2) 0.1585(11) 0.2675(2)
C3_6 C 0.3813(4) 0.8205(11) 0.9898(4)
H1_6 H 0.3636 0.8994 0.9748
C4_6 C 0.4230(4) 0.7926(11) 0.9849(4)
H2_6 H 0.4322 0.8476 0.9642
O10_6 O 0.2513(4) 0.9216(10) 0.9092(4)
H28_6 H 0.2309 0.9580 0.8847
H29_6 H 0.2458 0.8324 0.9104
H6_6 H 0.5384 0.9478 0.3095
C13_6 C 0.5821(4) 0.9620(12) 0.3756(4)
H7_6 H 0.5704 0.8840 0.3869
C15_6 C 0.6903(3) 0.6957(9) 0.0449(3)
C16_6 C 0.6504(3) 0.6792(9) 0.0624(3)
C17_6 C 0.6333(4) 0.5456(10) 0.0685(4)
H9_4 H 0.6468 0.4626 0.0620
C18_6 C 0.5974(5) 0.5359(11) 0.0836(5)
H10_4 H 0.5870 0.4453 0.0882
C19_6 C 0.5750(3) 0.6588(11) 0.0928(4)
H11_6 H 0.5498 0.6512 0.1027
C20_6 C 0.5927(3) 0.7933(10) 0.0862(3)
C21_6 C 0.6297(3) 0.8020(10) 0.0718(3)
H12_6 H 0.6412 0.8918 0.0682
C24_6 C 0.5352(4) 0.9192(12) 0.1084(4)
H17_6 H 0.5073 0.8934 0.0819
H18_6 H 0.5397 0.8489 0.1332
C32_6 C 0.5919(4) 0.9943(16) 0.2035(4)
H22_6 H 0.6011 0.9310 0.1835
H24_6 H 0.5789 0.9390 0.2224
O5_4 O 0.7010(2) 0.5868(7) 0.0259(2)
O9_6 O 0.5749(3) 0.9205(8) 0.0941(3)
C1_7 C 0.1819(3) 0.2564(10) 0.4798(4)
C2_7 C 0.1347(3) 0.2301(9) 0.4825(4)
C3_7 C 0.1187(4) 0.3205(11) 0.5102(4)
H1_7 H 0.1364 0.3994 0.5252
C4_7 C 0.0770(4) 0.2926(11) 0.5151(4)
H2_7 H 0.0678 0.3476 0.5358
C5_7 C 0.0477(3) 0.1811(12) 0.4891(4)
H3_7 H 0.0186 0.1644 0.4910
C6_7 C 0.0640(3) 0.0978(10) 0.4606(3)
C7_7 C 0.1070(3) 0.1165(9) 0.4583(3)
H4_7 H 0.1177 0.0539 0.4406
H21_7 H 0.0090 0.0343 0.3415
O1_7 O 0.1985(2) 0.3783(6) 0.4905(3)
O10_7 O 0.2487(4) 0.4216(10) 0.5908(4)
H28_7 H 0.2691 0.4580 0.6153
H29_7 H 0.2542 0.3324 0.5896
C22_7 C 0.0505(3) 0.8880(11) 0.4117(3)
H13_7 H 0.0638 0.9368 0.3914
H14_7 H 0.0747 0.8311 0.4344
C25_7 C 0.0109(3) 0.7921(10) 0.3827(3)
C30_7 C 0.0032(3) 0.6630(11) 0.4026(3)
H19_7 H 0.0120 0.9536 0.2975
C33_7 C 0.0303(4) 0.6288(14) 0.4540(3)
H25_7 H 0.0137 0.5579 0.4647
H26_7 H 0.0605 0.5923 0.4573
H27_7 H 0.0338 0.7145 0.4725
O7_7 O 0.0326(2) 0.9899(8) 0.4354(2)
C8_7 C 0.8237(3) 0.7483(11) 0.0779(3)
C9_7 C 0.8636(3) 0.6594(10) 0.1095(3)
C10_7 C 0.8856(3) 0.7057(11) 0.1564(3)
H5_7 H 0.8756 0.7884 0.1670
C11_7 C 0.9229(3) 0.6254(13) 0.1867(3)
C12_7 C 0.9376(4) 0.5029(16) 0.1699(4)
H6_7 H 0.9616 0.4478 0.1905
C13_7 C 0.9179(4) 0.4620(12) 0.1244(4)
H7_7 H 0.9296 0.3840 0.1131
C14_7 C 0.8795(4) 0.5394(12) 0.0944(4)
H8_7 H 0.8644 0.5083 0.0635
C15_7 C 0.8097(3) 0.1957(9) 0.4551(3)
C16_7 C 0.8496(3) 0.1792(9) 0.4376(3)
C17_7 C 0.8667(4) 0.0456(10) 0.4315(4)
C18_7 C 0.9026(5) 0.0359(11) 0.4164(5)
C19_7 C 0.9250(3) 0.1588(11) 0.4072(4)
H11_7 H 0.9502 0.1512 0.3973
C20_7 C 0.9073(3) 0.2933(10) 0.4138(3)
C21_7 C 0.8703(3) 0.3020(10) 0.4282(3)
H12_7 H 0.8588 0.3918 0.4318
C23_7 C 0.9256(4) 0.7574(14) 0.2557(3)
H15_7 H 0.9299 0.8561 0.2478
H16_7 H 0.8925 0.7387 0.2469
C24_7 C 0.9648(4) 0.4192(12) 0.3916(4)
H17_7 H 0.9927 0.3934 0.4181
H18_7 H 0.9603 0.3489 0.3668
C26_7 C 0.9849(3) 0.8280(11) 0.3364(3)
C27_7 C 0.9520(3) 0.7280(11) 0.3084(3)
C28_7 C 0.9446(3) 0.6000(12) 0.3269(3)
C29_7 C 0.9703(3) 0.5652(11) 0.3742(3)
C31_7 C 0.9932(5) 0.9694(14) 0.3163(5)
C32_7 C 0.9081(4) 0.4943(16) 0.2965(4)
H22_7 H 0.8989 0.4310 0.3165
H23_7 H 0.8814 0.5463 0.2763
H24_7 H 0.9211 0.4390 0.2776
O8_7 O 0.9465(2) 0.6585(11) 0.2325(2)
O9_7 O 0.9251(3) 0.4205(8) 0.4059(3)
C8_8 C 0.1763(3) 0.7483(11) 0.4221(3)
C9_8 C 0.1364(3) 0.6594(10) 0.3905(3)
C10_8 C 0.1144(3) 0.7057(11) 0.3436(3)
H5_8 H 0.1244 0.7884 0.3330
C11_8 C 0.0771(3) 0.6254(13) 0.3133(3)
C12_8 C 0.0624(4) 0.5029(16) 0.3301(4)
H6_8 H 0.0384 0.4478 0.3095
C13_8 C 0.0821(4) 0.4620(12) 0.3756(4)
H7_8 H 0.0704 0.3840 0.3869
C14_8 C 0.1205(4) 0.5394(12) 0.4056(4)
H8_8 H 0.1356 0.5083 0.4365
C15_8 C 0.1903(3) 0.1957(9) 0.0449(3)
C16_8 C 0.1504(3) 0.1792(9) 0.0624(3)
C17_8 C 0.1333(4) 0.0456(10) 0.0685(4)
C18_8 C 0.0974(5) 0.0359(11) 0.0836(5)
C19_8 C 0.0750(3) 0.1588(11) 0.0928(4)
H11_8 H 0.0498 0.1512 0.1027
C20_8 C 0.0927(3) 0.2933(10) 0.0862(3)
C21_8 C 0.1297(3) 0.3020(10) 0.0718(3)
H12_8 H 0.1412 0.3918 0.0682
C23_8 C 0.0744(4) 0.7574(14) 0.2443(3)
H15_8 H 0.0701 0.8561 0.2522
H16_8 H 0.1075 0.7387 0.2531
C24_8 C 0.0352(4) 0.4192(12) 0.1084(4)
H17_8 H 0.0073 0.3934 0.0819
H18_8 H 0.0397 0.3489 0.1332
C26_8 C 0.0151(3) 0.8280(11) 0.1636(3)
C27_8 C 0.0480(3) 0.7280(11) 0.1916(3)
C28_8 C 0.0554(3) 0.6000(12) 0.1731(3)
C29_8 C 0.0297(3) 0.5652(11) 0.1258(3)
C31_8 C 0.0068(5) 0.9694(14) 0.1837(5)
C32_8 C 0.0919(4) 0.4943(16) 0.2035(4)
H22_8 H 0.1011 0.4310 0.1835
H23_8 H 0.1186 0.5463 0.2237
H24_8 H 0.0789 0.4390 0.2224
O8_8 O 0.0535(2) 0.6585(11) 0.2675(2)
O9_8 O 0.0749(3) 0.4205(8) 0.0941(3)
C1_8 C 0.8181(3) 0.2564(10) 0.0202(4)
C2_8 C 0.8653(3) 0.2301(9) 0.0175(4)
C5_8 C 0.9523(3) 0.1811(12) 0.0109(4)
H3_8 H 0.9814 0.1644 0.0090
C6_8 C 0.9360(3) 0.0978(10) 0.0394(3)
C7_8 C 0.8930(3) 0.1165(9) 0.0417(3)
H4_8 H 0.8823 0.0539 0.0594
H21_8 H 0.9910 0.0343 0.1585
O1_8 O 0.8015(2) 0.3783(6) 0.0095(3)
C3_8 C 0.8813(4) 0.3205(11) 0.9898(4)
H1_8 H 0.8636 0.3994 0.9748
C4_8 C 0.9230(4) 0.2926(11) 0.9849(4)
H2_8 H 0.9322 0.3476 0.9642
O10_8 O 0.7513(4) 0.4216(10) 0.9092(4)
H28_8 H 0.7309 0.4580 0.8847
H29_8 H 0.7458 0.3324 0.9104
C22_8 C 0.9495(3) 0.8880(11) 0.0883(3)
H13_8 H 0.9362 0.9368 0.1086
H14_8 H 0.9253 0.8311 0.0656
C25_8 C 0.9891(3) 0.7921(10) 0.1173(3)
C30_8 C 0.9968(3) 0.6630(11) 0.0974(3)
H19_8 H 0.9880 0.9536 0.2025
C33_8 C 0.9697(4) 0.6288(14) 0.0460(3)
H25_8 H 0.9863 0.5579 0.0353
H26_8 H 0.9395 0.5923 0.0427
H27_8 H 0.9662 0.7145 0.0275
O7_8 O 0.9674(2) 0.9899(8) 0.0646(2)
H9_5 H 0.1468 0.0374 0.5620
H10_5 H 0.0870 0.0547 0.5882
H20_5 H 0.0362 0.9898 0.7031
H9_6 H 0.8532 0.0374 0.9380
H10_6 H 0.9130 0.0547 0.9118
H20_6 H 0.9638 0.9898 0.7969
H20_7 H 0.9638 0.0102 0.2969
H9_7 H 0.8532 0.9626 0.4380
H10_7 H 0.9130 0.9453 0.4118
H20_8 H 0.0362 0.0102 0.2031
H9_8 H 0.1468 0.9626 0.0620
H10_8 H 0.0870 0.9453 0.0882
loop_
_geom_bond_atom_site_label_1
_geom_bond_atom_site_label_2
_geom_bond_site_symmetry_1
_geom_bond_site_symmetry_2
H7 C13 1_555 1_555
C15 C16 1_555 1_555
C16 C17 1_555 1_555
C17 H9 1_555 1_555
C18 C17 1_555 1_555
H10 C18 1_555 1_555
C19 C18 1_555 1_555
H11 C19 1_555 1_555
C20 C19 1_555 1_555
C21 C16 1_555 1_555
H12 C21 1_555 1_555
C24 H17 1_555 1_555
H18 C24 1_555 1_555
H22 C32 1_555 1_555
H24 C32 1_555 1_555
O5 C15 1_555 1_555
O6 C15 1_555 1_555
O9 C20 1_555 1_555
Tb3 O5 1_555 1_555
Tb4 O6 1_555 1_555
C20 C21 1_555 1_555
C24 O9 1_555 1_555
C1 C2 1_555 1_555
C2 C3 1_555 1_555
C3 H1 1_555 1_555
C4 C3 1_555 1_555
H2 C4 1_555 1_555
C5 C4 1_555 1_555
H3 C5 1_555 1_555
C6 C5 1_555 1_555
C7 C2 1_555 1_555
H4 C7 1_555 1_555
C8 C9 1_555 1_555
C9 C10 1_555 1_555
C10 H5 1_555 1_555
C11 C10 1_555 1_555
C12 C11 1_555 1_555
C14 C9 1_555 1_555
H8 C14 1_555 1_555
C22 H13 1_555 1_555
H14 C22 1_555 1_555
C23 H15 1_555 1_555
H16 C23 1_555 1_555
C25 C22 1_555 1_555
C26 C25 1_555 1_555
C27 C23 1_555 1_555
C28 C27 1_555 1_555
C30 C25 1_555 1_555
C31 C26 1_555 1_555
H19 C31 1_555 1_555
H20 C31 1_555 1_555
H21 C31 1_555 1_555
C33 C30 1_555 1_555
H25 C33 1_555 1_555
H26 C33 1_555 1_555
H27 C33 1_555 1_555
O1 C1 1_555 1_555
O2 C1 1_555 1_555
O3 C8 1_555 1_555
O4 C8 1_555 1_555
O7 C6 1_555 1_555
O8 C11 1_555 1_555
H28 O10 1_555 1_555
H29 O10 1_555 1_555
Tb5 O2 1_555 1_555
Tb6 O3 1_555 1_555
C6 C7 1_555 1_555
C22 O7 1_555 1_555
C23 O8 1_555 1_555
C26 C27 1_555 1_555
C28 C29 1_555 1_555
C29 C30 1_555 1_555
O4 Tb6 1_555 1_555
O12 Tb1 1_555 1_555
O13 Tb1 1_555 1_555
O14 Tb1 1_555 1_555
O15 Tb1 1_555 1_555
O16 Tb1 1_555 1_555
H7_2 C13_2 1_555 1_555
C15_2 C16_2 1_555 1_555
C16_2 C17_2 1_555 1_555
C17_2 H9_2 1_555 1_555
C18_2 C17_2 1_555 1_555
H10_2 C18_2 1_555 1_555
C19_2 C18_2 1_555 1_555
H11_2 C19_2 1_555 1_555
C20_2 C19_2 1_555 1_555
C21_2 C16_2 1_555 1_555
H12_2 C21_2 1_555 1_555
C24_2 H17_2 1_555 1_555
H18_2 C24_2 1_555 1_555
H22_2 C32_2 1_555 1_555
H24_2 C32_2 1_555 1_555
O5_2 C15_2 1_555 1_555
O6_2 C15_2 1_555 1_555
O9_2 C20_2 1_555 1_555
Tb4_2 O6_2 1_555 1_555
C20_2 C21_2 1_555 1_555
C24_2 O9_2 1_555 1_555
C3_2 H1_2 1_555 1_555
C4_2 C3_2 1_555 1_555
H2_2 C4_2 1_555 1_555
H28_2 O10_2 1_555 1_555
H29_2 O10_2 1_555 1_555
C1_2 C2_2 1_555 1_555
H3_2 C5_2 1_555 1_555
C6_2 C5_2 1_555 1_555
C7_2 C2_2 1_555 1_555
H4_2 C7_2 1_555 1_555
C8_2 C9_2 1_555 1_555
C9_2 C10_2 1_555 1_555
C10_2 H5_2 1_555 1_555
C11_2 C10_2 1_555 1_555
C12_2 C11_2 1_555 1_555
C14_2 C9_2 1_555 1_555
H8_2 C14_2 1_555 1_555
C22_2 H13_2 1_555 1_555
H14_2 C22_2 1_555 1_555
C23_2 H15_2 1_555 1_555
H16_2 C23_2 1_555 1_555
C25_2 C22_2 1_555 1_555
C26_2 C25_2 1_555 1_555
C27_2 C23_2 1_555 1_555
C28_2 C27_2 1_555 1_555
C30_2 C25_2 1_555 1_555
C31_2 C26_2 1_555 1_555
H19_2 C31_2 1_555 1_555
H20_2 C31_2 1_555 1_555
H21_2 C31_2 1_555 1_555
C33_2 C30_2 1_555 1_555
H25_2 C33_2 1_555 1_555
H26_2 C33_2 1_555 1_555
H27_2 C33_2 1_555 1_555
O1_2 C1_2 1_555 1_555
O2_2 C1_2 1_555 1_555
O3_2 C8_2 1_555 1_555
O13 C8_2 1_555 1_555
O7_2 C6_2 1_555 1_555
O8_2 C11_2 1_555 1_555
Tb6 O2_2 1_555 1_555
Tb5 O3_2 1_555 1_555
C6_2 C7_2 1_555 1_555
C22_2 O7_2 1_555 1_555
C23_2 O8_2 1_555 1_555
C26_2 C27_2 1_555 1_555
C28_2 C29_2 1_555 1_555
C29_2 C30_2 1_555 1_555
O13 Tb5 1_555 1_555
O12_2 Tb2 1_555 1_555
O14_2 Tb2 1_555 1_555
O16_2 Tb2 1_555 1_555
C8_3 C9_3 1_555 1_555
C9_3 C10_3 1_555 1_555
C10_3 H5_3 1_555 1_555
C11_3 C10_3 1_555 1_555
C12_3 C11_3 1_555 1_555
H6_3 C12_3 1_555 1_555
C13_3 C12_3 1_555 1_555
H7_3 C13_3 1_555 1_555
C14_3 C9_3 1_555 1_555
H8_3 C14_3 1_555 1_555
C15_3 C16_3 1_555 1_555
C16_3 C17_3 1_555 1_555
C18_3 C17_3 1_555 1_555
C19_3 C18_3 1_555 1_555
H11_3 C19_3 1_555 1_555
C20_3 C19_3 1_555 1_555
C21_3 C16_3 1_555 1_555
H12_3 C21_3 1_555 1_555
C23_3 H15_3 1_555 1_555
H16_3 C23_3 1_555 1_555
C24_3 H17_3 1_555 1_555
H18_3 C24_3 1_555 1_555
C27_3 C23_3 1_555 1_555
C28_3 C27_3 1_555 1_555
C29_3 C24_3 1_555 1_555
C31_3 C26_3 1_555 1_555
C32_3 C28_3 1_555 1_555
H22_3 C32_3 1_555 1_555
H23_3 C32_3 1_555 1_555
H24_3 C32_3 1_555 1_555
O3_3 C8_3 1_555 1_555
O4_2 C8_3 1_555 1_555
O15 C15_3 1_555 1_555
O6_3 C15_3 1_555 1_555
O8_3 C11_3 1_555 1_555
O9_3 C20_3 1_555 1_555
Tb5 O6_3 1_555 1_555
Tb4_2 O3_3 1_555 1_555
C13_3 C14_3 1_555 1_555
C20_3 C21_3 1_555 1_555
C23_3 O8_3 1_555 1_555
C24_3 O9_3 1_555 1_555
C26_3 C27_3 1_555 1_555
C28_3 C29_3 1_555 1_555
O4_2 Tb4_2 1_555 1_555
C22_3 H13_3 1_555 1_555
H14_3 C22_3 1_555 1_555
C25_3 C22_3 1_555 1_555
C30_3 C25_3 1_555 1_555
C33_3 C30_3 1_555 1_555
H25_3 C33_3 1_555 1_555
H26_3 C33_3 1_555 1_555
H27_3 C33_3 1_555 1_555
C22_3 O7_3 1_555 1_555
Tb3 O1_3 1_555 1_555
C1_3 C2_3 1_555 1_555
C2_3 C3_3 1_555 1_555
C3_3 H1_3 1_555 1_555
C4_3 C3_3 1_555 1_555
H2_3 C4_3 1_555 1_555
C5_3 C4_3 1_555 1_555
H3_3 C5_3 1_555 1_555
C6_3 C5_3 1_555 1_555
C7_3 C2_3 1_555 1_555
H4_3 C7_3 1_555 1_555
O1_3 C1_3 1_555 1_555
O2_3 C1_3 1_555 1_555
O10_3 Tb3 1_555 1_555
H28_3 O10_3 1_555 1_555
H29_3 O10_3 1_555 1_555
O11_3 Tb3 1_555 1_555
O12_3 Tb3 1_555 1_555
O13_2 Tb3 1_555 1_555
O14_3 Tb3 1_555 1_555
O16_3 Tb3 1_555 1_555
C6_3 C7_3 1_555 1_555
C22_4 H13_4 1_555 1_555
H14_4 C22_4 1_555 1_555
C25_4 C22_4 1_555 1_555
C30_4 C25_4 1_555 1_555
C33_4 C30_4 1_555 1_555
H25_4 C33_4 1_555 1_555
H26_4 C33_4 1_555 1_555
H27_4 C33_4 1_555 1_555
C22_4 O7_4 1_555 1_555
C3_4 H1_4 1_555 1_555
C4_4 C3_4 1_555 1_555
H2_4 C4_4 1_555 1_555
O10_4 Tb3_2 1_555 1_555
H28_4 O10_4 1_555 1_555
H29_4 O10_4 1_555 1_555
O11_4 Tb3_2 1_555 1_555
O12_4 Tb3_2 1_555 1_555
O14_4 Tb3_2 1_555 1_555
O16_4 Tb3_2 1_555 1_555
C1_4 C2_4 1_555 1_555
H3_4 C5_4 1_555 1_555
C6_4 C5_4 1_555 1_555
C7_4 C2_4 1_555 1_555
H4_4 C7_4 1_555 1_555
O1_4 C1_4 1_555 1_555
O2_4 C1_4 1_555 1_555
C6_4 C7_4 1_555 1_555
C8_4 C9_4 1_555 1_555
C9_4 C10_4 1_555 1_555
C10_4 H5_4 1_555 1_555
C11_4 C10_4 1_555 1_555
C12_4 C11_4 1_555 1_555
H6_4 C12_4 1_555 1_555
C13_4 C12_4 1_555 1_555
H7_4 C13_4 1_555 1_555
C14_4 C9_4 1_555 1_555
H8_4 C14_4 1_555 1_555
C15_4 C16_4 1_555 1_555
C16_4 C17_4 1_555 1_555
C18_4 C17_4 1_555 1_555
C19_4 C18_4 1_555 1_555
H11_4 C19_4 1_555 1_555
C20_4 C19_4 1_555 1_555
C21_4 C16_4 1_555 1_555
H12_4 C21_4 1_555 1_555
C23_4 H15_4 1_555 1_555
H16_4 C23_4 1_555 1_555
C24_4 H17_4 1_555 1_555
H18_4 C24_4 1_555 1_555
C27_4 C23_4 1_555 1_555
C28_4 C27_4 1_555 1_555
C29_4 C24_4 1_555 1_555
C31_4 C26_4 1_555 1_555
C32_4 C28_4 1_555 1_555
H22_4 C32_4 1_555 1_555
H23_4 C32_4 1_555 1_555
H24_4 C32_4 1_555 1_555
O3_4 C8_4 1_555 1_555
O13_2 C8_4 1_555 1_555
O15_2 C15_4 1_555 1_555
O6_4 C15_4 1_555 1_555
O8_4 C11_4 1_555 1_555
O9_4 C20_4 1_555 1_555
Tb6 O6_4 1_555 1_555
Tb4 O3_4 1_555 1_555
C13_4 C14_4 1_555 1_555
C20_4 C21_4 1_555 1_555
C23_4 O8_4 1_555 1_555
C24_4 O9_4 1_555 1_555
C26_4 C27_4 1_555 1_555
C28_4 C29_4 1_555 1_555
O13_2 Tb4 1_555 1_555
O14_3 Tb4 1_555 1_555
O15_3 Tb4 1_555 1_555
C1_5 C2_5 1_555 1_555
C2_5 C3_5 1_555 1_555
C3_5 H1_5 1_555 1_555
C4_5 C3_5 1_555 1_555
H2_5 C4_5 1_555 1_555
C5_5 C4_5 1_555 1_555
H3_5 C5_5 1_555 1_555
C6_5 C5_5 1_555 1_555
C7_5 C2_5 1_555 1_555
H4_5 C7_5 1_555 1_555
C8_5 C9_5 1_555 1_555
C9_5 C10_5 1_555 1_555
C10_5 H5_5 1_555 1_555
C11_5 C10_5 1_555 1_555
C12_5 C11_5 1_555 1_555
C14_5 C9_5 1_555 1_555
H8_5 C14_5 1_555 1_555
C22_5 H13_5 1_555 1_555
H14_5 C22_5 1_555 1_555
C23_5 H15_5 1_555 1_555
H16_5 C23_5 1_555 1_555
C25_5 C22_5 1_555 1_555
C26_5 C25_5 1_555 1_555
C27_5 C23_5 1_555 1_555
C28_5 C27_5 1_555 1_555
C30_5 C25_5 1_555 1_555
C31_5 C26_5 1_555 1_555
H19_5 C31_5 1_555 1_555
H20_3 C31_5 1_555 1_555
H21_5 C31_5 1_555 1_555
C33_5 C30_5 1_555 1_555
H25_5 C33_5 1_555 1_555
H26_5 C33_5 1_555 1_555
H27_5 C33_5 1_555 1_555
O1_5 C1_5 1_555 1_555
O11_3 C1_5 1_555 1_555
O12_4 C8_5 1_555 1_555
O14_4 C8_5 1_555 1_555
O7_5 C6_5 1_555 1_555
O8_5 C11_5 1_555 1_555
H28_5 O10_5 1_555 1_555
H29_5 O10_5 1_555 1_555
C6_5 C7_5 1_555 1_555
C22_5 O7_5 1_555 1_555
C23_5 O8_5 1_555 1_555
C26_5 C27_5 1_555 1_555
C28_5 C29_5 1_555 1_555
C29_5 C30_5 1_555 1_555
H7_5 C13_5 1_555 1_555
C15_5 C16_5 1_555 1_555
C16_5 C17_5 1_555 1_555
C17_5 H9_3 1_555 1_555
C18_5 C17_5 1_555 1_555
H10_3 C18_5 1_555 1_555
C19_5 C18_5 1_555 1_555
H11_5 C19_5 1_555 1_555
C20_5 C19_5 1_555 1_555
C21_5 C16_5 1_555 1_555
H12_5 C21_5 1_555 1_555
C24_5 H17_5 1_555 1_555
H18_5 C24_5 1_555 1_555
H22_5 C32_5 1_555 1_555
H24_5 C32_5 1_555 1_555
O5_3 C15_5 1_555 1_555
O16 C15_5 1_555 1_555
O9_5 C20_5 1_555 1_555
Tb5 O5_3 1_555 1_555
C20_5 C21_5 1_555 1_555
C24_5 O9_5 1_555 1_555
C1_6 C2_6 1_555 1_555
H3_6 C5_6 1_555 1_555
C6_6 C5_6 1_555 1_555
C7_6 C2_6 1_555 1_555
H4_6 C7_6 1_555 1_555
C8_6 C9_6 1_555 1_555
C9_6 C10_6 1_555 1_555
C10_6 H5_6 1_555 1_555
C11_6 C10_6 1_555 1_555
C12_6 C11_6 1_555 1_555
C14_6 C9_6 1_555 1_555
H8_6 C14_6 1_555 1_555
C22_6 H13_6 1_555 1_555
H14_6 C22_6 1_555 1_555
C23_6 H15_6 1_555 1_555
H16_6 C23_6 1_555 1_555
C25_6 C22_6 1_555 1_555
C26_6 C25_6 1_555 1_555
C27_6 C23_6 1_555 1_555
C28_6 C27_6 1_555 1_555
C30_6 C25_6 1_555 1_555
C31_6 C26_6 1_555 1_555
H19_6 C31_6 1_555 1_555
H20_4 C31_6 1_555 1_555
H21_6 C31_6 1_555 1_555
C33_6 C30_6 1_555 1_555
H25_6 C33_6 1_555 1_555
H26_6 C33_6 1_555 1_555
H27_6 C33_6 1_555 1_555
O1_6 C1_6 1_555 1_555
O11_4 C1_6 1_555 1_555
O12_3 C8_6 1_555 1_555
O14_3 C8_6 1_555 1_555
O7_6 C6_6 1_555 1_555
O8_6 C11_6 1_555 1_555
C6_6 C7_6 1_555 1_555
C22_6 O7_6 1_555 1_555
C23_6 O8_6 1_555 1_555
C26_6 C27_6 1_555 1_555
C28_6 C29_6 1_555 1_555
C29_6 C30_6 1_555 1_555
C3_6 H1_6 1_555 1_555
C4_6 C3_6 1_555 1_555
H2_6 C4_6 1_555 1_555
H28_6 O10_6 1_555 1_555
H29_6 O10_6 1_555 1_555
H7_6 C13_6 1_555 1_555
C15_6 C16_6 1_555 1_555
C16_6 C17_6 1_555 1_555
C17_6 H9_4 1_555 1_555
C18_6 C17_6 1_555 1_555
H10_4 C18_6 1_555 1_555
C19_6 C18_6 1_555 1_555
H11_6 C19_6 1_555 1_555
C20_6 C19_6 1_555 1_555
C21_6 C16_6 1_555 1_555
H12_6 C21_6 1_555 1_555
C24_6 H17_6 1_555 1_555
H18_6 C24_6 1_555 1_555
H22_6 C32_6 1_555 1_555
H24_6 C32_6 1_555 1_555
O5_4 C15_6 1_555 1_555
O16_2 C15_6 1_555 1_555
O9_6 C20_6 1_555 1_555
C20_6 C21_6 1_555 1_555
C24_6 O9_6 1_555 1_555
Tb5 O1_7 1_555 1_555
C1_7 C2_7 1_555 1_555
C2_7 C3_7 1_555 1_555
C3_7 H1_7 1_555 1_555
C4_7 C3_7 1_555 1_555
H2_7 C4_7 1_555 1_555
C5_7 C4_7 1_555 1_555
H3_7 C5_7 1_555 1_555
C6_7 C5_7 1_555 1_555
C7_7 C2_7 1_555 1_555
H4_7 C7_7 1_555 1_555
O1_7 C1_7 1_555 1_555
O11 C1_7 1_555 1_555
O10_7 Tb5 1_555 1_555
H28_7 O10_7 1_555 1_555
H29_7 O10_7 1_555 1_555
O14 Tb5 1_555 1_555
C6_7 C7_7 1_555 1_555
C22_7 H13_7 1_555 1_555
H14_7 C22_7 1_555 1_555
C25_7 C22_7 1_555 1_555
C30_7 C25_7 1_555 1_555
C33_7 C30_7 1_555 1_555
H25_7 C33_7 1_555 1_555
H26_7 C33_7 1_555 1_555
H27_7 C33_7 1_555 1_555
C22_7 O7_7 1_555 1_555
C8_7 C9_7 1_555 1_555
C9_7 C10_7 1_555 1_555
C10_7 H5_7 1_555 1_555
C11_7 C10_7 1_555 1_555
C12_7 C11_7 1_555 1_555
H6_7 C12_7 1_555 1_555
C13_7 C12_7 1_555 1_555
H7_7 C13_7 1_555 1_555
C14_7 C9_7 1_555 1_555
H8_7 C14_7 1_555 1_555
C15_7 C16_7 1_555 1_555
C16_7 C17_7 1_555 1_555
C18_7 C17_7 1_555 1_555
C19_7 C18_7 1_555 1_555
H11_7 C19_7 1_555 1_555
C20_7 C19_7 1_555 1_555
C21_7 C16_7 1_555 1_555
H12_7 C21_7 1_555 1_555
C23_7 H15_7 1_555 1_555
H16_7 C23_7 1_555 1_555
C24_7 H17_7 1_555 1_555
H18_7 C24_7 1_555 1_555
C27_7 C23_7 1_555 1_555
C28_7 C27_7 1_555 1_555
C29_7 C24_7 1_555 1_555
C31_7 C26_7 1_555 1_555
C32_7 C28_7 1_555 1_555
H22_7 C32_7 1_555 1_555
H23_7 C32_7 1_555 1_555
H24_7 C32_7 1_555 1_555
O12_2 C8_7 1_555 1_555
O14_2 C8_7 1_555 1_555
O15_3 C15_7 1_555 1_555
O16_3 C15_7 1_555 1_555
O8_7 C11_7 1_555 1_555
O9_7 C20_7 1_555 1_555
C13_7 C14_7 1_555 1_555
C20_7 C21_7 1_555 1_555
C23_7 O8_7 1_555 1_555
C24_7 O9_7 1_555 1_555
C26_7 C27_7 1_555 1_555
C28_7 C29_7 1_555 1_555
C8_8 C9_8 1_555 1_555
C9_8 C10_8 1_555 1_555
C10_8 H5_8 1_555 1_555
C11_8 C10_8 1_555 1_555
C12_8 C11_8 1_555 1_555
H6_8 C12_8 1_555 1_555
C13_8 C12_8 1_555 1_555
H7_8 C13_8 1_555 1_555
C14_8 C9_8 1_555 1_555
H8_8 C14_8 1_555 1_555
C15_8 C16_8 1_555 1_555
C16_8 C17_8 1_555 1_555
C18_8 C17_8 1_555 1_555
C19_8 C18_8 1_555 1_555
H11_8 C19_8 1_555 1_555
C20_8 C19_8 1_555 1_555
C21_8 C16_8 1_555 1_555
H12_8 C21_8 1_555 1_555
C23_8 H15_8 1_555 1_555
H16_8 C23_8 1_555 1_555
C24_8 H17_8 1_555 1_555
H18_8 C24_8 1_555 1_555
C27_8 C23_8 1_555 1_555
C28_8 C27_8 1_555 1_555
C29_8 C24_8 1_555 1_555
C31_8 C26_8 1_555 1_555
C32_8 C28_8 1_555 1_555
H22_8 C32_8 1_555 1_555
H23_8 C32_8 1_555 1_555
H24_8 C32_8 1_555 1_555
O12 C8_8 1_555 1_555
O14 C8_8 1_555 1_555
O15_4 C15_8 1_555 1_555
O16_4 C15_8 1_555 1_555
O8_8 C11_8 1_555 1_555
O9_8 C20_8 1_555 1_555
C13_8 C14_8 1_555 1_555
C20_8 C21_8 1_555 1_555
C23_8 O8_8 1_555 1_555
C24_8 O9_8 1_555 1_555
C26_8 C27_8 1_555 1_555
C28_8 C29_8 1_555 1_555
C1_8 C2_8 1_555 1_555
H3_8 C5_8 1_555 1_555
C6_8 C5_8 1_555 1_555
C7_8 C2_8 1_555 1_555
H4_8 C7_8 1_555 1_555
O1_8 C1_8 1_555 1_555
O11_2 C1_8 1_555 1_555
C6_8 C7_8 1_555 1_555
C3_8 H1_8 1_555 1_555
C4_8 C3_8 1_555 1_555
H2_8 C4_8 1_555 1_555
O10_8 Tb6 1_555 1_555
H28_8 O10_8 1_555 1_555
H29_8 O10_8 1_555 1_555
C22_8 H13_8 1_555 1_555
H14_8 C22_8 1_555 1_555
C25_8 C22_8 1_555 1_555
C30_8 C25_8 1_555 1_555
C33_8 C30_8 1_555 1_555
H25_8 C33_8 1_555 1_555
H26_8 C33_8 1_555 1_555
H27_8 C33_8 1_555 1_555
C22_8 O7_8 1_555 1_555

#END
