
###############################################################################
#
# This file contains modified crystal structure data generated from the
# MOF subset of the Cambridge Structural Database (CSD) v543 
# hosted by the Cambridge Crystallographic Data Centre (CCDC).
#
# This work is licensed under the Creative Commons
# Attribution-NonCommercial-ShareAlike 4.0 International License.
# To view a copy of this license, visit
# http://creativecommons.org/licenses/by-nc-sa/4.0/
# or send a letter to
# Creative Commons, PO Box 1866, Mountain View, CA 94042, USA.
#
# CIF created using the CSD Python API on 29 September 2022
# The structure has been converted into the P1 space group
# The structure has a 3D framework
# The original CSD entry SAJJOF is in the monoclinic crystal system
# The framework has been calculated to contain at least 10.0% void space
# The void calculation uses a probe of radius 1.32A, grid spacing 0.4
#
###############################################################################

data_SAJJOF
_chemical_formula_moiety         '(C164 H128 N12 O30 Zn3)n'
_symmetry_cell_setting           triclinic
_symmetry_space_group_name_H-M   'P 1'
_symmetry_Int_Tables_number      1
_space_group_name_Hall           'P 1'
loop_
_symmetry_equiv_pos_site_id
_symmetry_equiv_pos_as_xyz
1 x,y,z
_cell_length_a                   11.4221(4)
_cell_length_b                   21.2742(8)
_cell_length_c                   19.0647(7)
_cell_angle_alpha                90
_cell_angle_beta                 95.4192(19)
_cell_angle_gamma                90
_cell_volume                     4611.94
loop_
_atom_site_label
_atom_site_type_symbol
_atom_site_fract_x
_atom_site_fract_y
_atom_site_fract_z
C23 C 0.0304(3) 0.02203(17) 0.4358(2)
H12 H 0.050903 0.037260 0.391709
O9 O 0.2256(3) 0.03535(15) 0.93186(15)
O10 O 0.2366(3) 0.09456(19) 0.83826(19)
C42 C 0.1800(4) 0.0717(2) 0.8837(2)
C43 C 0.0496(4) 0.08273(19) 0.8840(2)
H34 H 0.027141 0.115113 0.782365
H37 H 0.031679 0.053042 0.983241
Zn5 Zn 0.38434(5) 0.01347(3) 0.91516(3)
O3 O 0.3972(3) 0.57302(14) 0.45043(17)
O4 O 0.5107(3) 0.58012(15) 0.54851(18)
N1 N 0.0952(3) 0.92197(14) 0.33609(15)
N2 N 0.1837(3) 0.87298(14) 0.43087(15)
H1 H 0.200875 0.862834 0.475399
C3 C 0.0136(4) 0.89488(17) 0.17787(19)
C4 C 0.1350(3) 0.88717(17) 0.1815(2)
C5 C 0.1930(4) 0.9030(2) 0.1232(2)
H3 H 0.276146 0.899263 0.125395
C6 C 0.1308(4) 0.9242(2) 0.0618(2)
H4 H 0.171176 0.933666 0.021722
C7 C 0.0102(4) 0.9317(2) 0.0587(2)
C8 C 0.1995(3) 0.86064(17) 0.24622(19)
C9 C 0.1733(3) 0.87653(16) 0.31432(19)
C10 C 0.2303(3) 0.84654(17) 0.37367(19)
C11 C 0.3161(3) 0.80002(17) 0.36915(19)
C12 C 0.3433(4) 0.78652(18) 0.3018(2)
H6 H 0.402395 0.756156 0.295545
C13 C 0.2871(3) 0.81586(18) 0.2427(2)
H7 H 0.309745 0.804680 0.197700
C14 C 0.3765(3) 0.76873(17) 0.43277(19)
C15 C 0.4312(3) 0.80325(18) 0.4877(2)
H8 H 0.428806 0.847851 0.485517
C16 C 0.4898(4) 0.77399(19) 0.5462(2)
H9 H 0.524739 0.798590 0.584125
C17 C 0.4971(3) 0.70959(19) 0.5490(2)
H10 H 0.540257 0.689604 0.587826
C18 C 0.4413(3) 0.67389(17) 0.49493(19)
C19 C 0.3816(3) 0.70335(18) 0.43736(19)
H11 H 0.343467 0.678620 0.400482
C20 C 0.4516(3) 0.60357(18) 0.4978(2)
C21 C 0.1061(3) 0.91767(17) 0.40543(19)
C22 C 0.0478(3) 0.95917(18) 0.45294(18)
C24 C 0.0166(3) 0.93733(18) 0.5178(2)
H13 H 0.027689 0.894311 0.530039
Zn4 Zn 0.38434(5) 0.48653(3) 0.41516(3)
Zn7 Zn 0.61566(5) 0.51347(3) 0.58484(3)
O8 O 0.2217(3) 0.15763(14) 0.45755(17)
N3 N 0.5394(3) 0.00149(16) 0.17452(19)
C25 C 0.2806(4) 0.1045(2) 0.4406(3)
C26 C 0.3227(4) 0.0936(2) 0.3765(2)
H14 H 0.315620 0.124772 0.340635
C27 C 0.3769(4) 0.0352(2) 0.3647(2)
C29 C 0.3436(4) 0.0021(2) 0.4814(2)
C30 C 0.2932(4) 0.0593(2) 0.4943(2)
H16 H 0.267209 0.068009 0.539217
C36 C 0.1936(4) 0.2034(2) 0.4039(3)
H27 H 0.172731 0.182413 0.358098
H28 H 0.262174 0.231056 0.399285
C37 C 0.4275(4) 0.02388(19) 0.2974(2)
C38 C 0.4616(4) 0.0725(2) 0.2552(2)
H29 H 0.446269 0.114780 0.267452
C39 C 0.5167(4) 0.0602(2) 0.1965(2)
H30 H 0.540479 0.094724 0.169617
O11 O 0.6028(3) 0.42698(14) 0.54957(17)
O12 O 0.4893(3) 0.41988(15) 0.45149(18)
N4 N 0.9048(3) 0.07803(14) 0.66391(15)
N5 N 0.8163(3) 0.12702(14) 0.56913(15)
H33 H 0.799125 0.137166 0.524601
C44 C 0.9864(4) 0.10512(17) 0.82213(19)
C45 C 0.8650(3) 0.11283(17) 0.8185(2)
C46 C 0.8070(4) 0.0970(2) 0.8768(2)
H35 H 0.723854 0.100737 0.874605
C47 C 0.8692(4) 0.0758(2) 0.9382(2)
H36 H 0.828824 0.066334 0.978278
C48 C 0.9898(4) 0.0683(2) 0.9413(2)
C49 C 0.8005(3) 0.13936(17) 0.75378(19)
C50 C 0.8267(3) 0.12347(16) 0.68568(19)
C51 C 0.7697(3) 0.15346(17) 0.62633(19)
C52 C 0.6839(3) 0.19998(17) 0.63085(19)
C53 C 0.6567(4) 0.21348(18) 0.6982(2)
H38 H 0.597605 0.243844 0.704455
C54 C 0.7129(3) 0.18414(18) 0.7573(2)
H39 H 0.690255 0.195320 0.802300
C55 C 0.6235(3) 0.23127(17) 0.56723(19)
C56 C 0.5688(3) 0.19675(18) 0.5123(2)
H40 H 0.571194 0.152149 0.514483
C57 C 0.5102(4) 0.22601(19) 0.4538(2)
H41 H 0.475261 0.201410 0.415875
C58 C 0.5029(3) 0.29041(19) 0.4510(2)
H42 H 0.459743 0.310396 0.412174
C59 C 0.5587(3) 0.32611(17) 0.50507(19)
C60 C 0.6184(3) 0.29665(18) 0.56264(19)
H43 H 0.656533 0.321380 0.599518
C61 C 0.5484(3) 0.39643(18) 0.5022(2)
C62 C 0.8939(3) 0.08233(17) 0.59457(19)
C63 C 0.9522(3) 0.04083(18) 0.54706(18)
C65 C 0.9834(3) 0.06267(18) 0.4822(2)
H45 H 0.972311 0.105689 0.469961
C76 C 0.0923(5) 0.2412(2) 0.4242(3)
H57 H 0.086826 0.281195 0.397573
H58 H 0.102655 0.250997 0.475116
O18 O 0.6028(3) 0.07302(14) 0.04957(17)
Zn1 Zn 0.61566(5) 0.98653(3) 0.08484(3)
O1 O 0.7744(3) 0.96465(15) 0.06814(15)
O2 O 0.7634(3) 0.90544(19) 0.16174(19)
O5 O 0.3548(2) 0.95399(13) 0.52815(15)
O6 O 0.2283(2) 0.85707(14) 0.58366(14)
O7 O 0.0105(3) 0.79453(15) 0.5916(2)
C1 C 0.8200(4) 0.9283(2) 0.1163(2)
C2 C 0.9504(4) 0.91727(19) 0.1160(2)
H2 H 0.972859 0.884887 0.217635
H5 H 0.968321 0.946958 0.016759
C28 C 0.3865(3) 0.9904(2) 0.4166(2)
H15 H 0.422572 0.951236 0.408347
C31 C 0.3055(4) 0.9602(2) 0.5934(2)
H17 H 0.223893 0.976081 0.585670
H18 H 0.352439 0.989900 0.624507
C32 C 0.3072(4) 0.8964(2) 0.6258(2)
H19 H 0.387699 0.878714 0.628414
H20 H 0.282945 0.898996 0.674212
C33 C 0.2163(4) 0.7971(2) 0.6143(3)
H21 H 0.203107 0.801855 0.664604
H22 H 0.289478 0.772629 0.611523
C34 C 0.1158(5) 0.7633(2) 0.5765(3)
H23 H 0.122806 0.763618 0.525179
H24 H 0.114538 0.719018 0.592536
C40 C 0.5042(4) 0.9545(2) 0.2135(2)
H31 H 0.518742 0.912692 0.198954
C41 C 0.4485(4) 0.9627(2) 0.2730(3)
H32 H 0.423800 0.927256 0.298001
C64 C 0.9696(3) 0.97797(17) 0.5642(2)
H44 H 0.949097 0.962740 0.608291
O21 O 0.5107(3) 0.91988(15) 0.04851(18)
O13 O 0.6452(2) 0.04601(13) 0.47185(15)
O14 O 0.7717(2) 0.14293(14) 0.41634(14)
O15 O 0.9895(3) 0.20547(15) 0.4084(2)
C69 C 0.6135(3) 0.0096(2) 0.5834(2)
H47 H 0.577428 0.048764 0.591653
C72 C 0.6945(4) 0.0398(2) 0.4066(2)
H49 H 0.776107 0.023919 0.414330
H50 H 0.647561 0.010100 0.375493
C73 C 0.6928(4) 0.1036(2) 0.3742(2)
H51 H 0.612301 0.121286 0.371586
H52 H 0.717055 0.101004 0.325788
C74 C 0.7837(4) 0.2029(2) 0.3857(3)
H53 H 0.796893 0.198145 0.335396
H54 H 0.710522 0.227371 0.388477
C75 C 0.8842(5) 0.2367(2) 0.4235(3)
H55 H 0.877194 0.236382 0.474821
H56 H 0.885462 0.280982 0.407464
C81 C 0.4958(4) 0.0455(2) 0.7865(2)
H63 H 0.481258 0.087308 0.801046
C82 C 0.5515(4) 0.0373(2) 0.7270(3)
H64 H 0.576200 0.072744 0.701999
O20 O 0.4893(3) 0.08012(15) 0.95149(18)
C35 C 0.9077(5) 0.7588(2) 0.5758(3)
H25 H 0.913174 0.718805 0.602427
H26 H 0.897345 0.749003 0.524884
O16 O 0.7783(3) 0.84237(14) 0.54245(17)
N6 N 0.4606(3) 0.99851(16) 0.82548(19)
C66 C 0.7194(4) 0.8955(2) 0.5594(3)
C67 C 0.6773(4) 0.9064(2) 0.6235(2)
H46 H 0.684380 0.875228 0.659365
C68 C 0.6231(4) 0.9648(2) 0.6353(2)
C70 C 0.6564(4) 0.9979(2) 0.5186(2)
C71 C 0.7068(4) 0.9407(2) 0.5057(2)
H48 H 0.732791 0.931991 0.460783
C77 C 0.8064(4) 0.7966(2) 0.5961(3)
H59 H 0.827269 0.817587 0.641902
H60 H 0.737826 0.768944 0.600715
C78 C 0.5725(4) 0.97612(19) 0.7026(2)
C79 C 0.5384(4) 0.9275(2) 0.7448(2)
H61 H 0.553731 0.885220 0.732548
C80 C 0.4833(4) 0.9398(2) 0.8035(2)
H62 H 0.459521 0.905276 0.830383
O19 O 0.3972(3) 0.92698(14) 0.95043(17)
O13_2 O 0.3548(2) 0.54601(13) 0.02815(15)
O14_2 O 0.2283(2) 0.64293(14) 0.08366(14)
O15_2 O 0.0105(3) 0.70547(15) 0.0916(2)
H48_2 H 0.267209 0.431991 0.039217
C72_2 C 0.3055(4) 0.5398(2) 0.0934(2)
H49_2 H 0.223893 0.523919 0.085670
H50_2 H 0.352439 0.510100 0.124507
C73_2 C 0.3072(4) 0.6036(2) 0.1258(2)
H51_2 H 0.387699 0.621286 0.128414
H52_2 H 0.282945 0.601004 0.174212
C74_2 C 0.2163(4) 0.7029(2) 0.1143(3)
H53_2 H 0.203107 0.698145 0.164604
H54_2 H 0.289478 0.727371 0.111523
C75_2 C 0.1158(5) 0.7367(2) 0.0765(3)
H55_2 H 0.122806 0.736382 0.025179
H56_2 H 0.114538 0.780982 0.092536
C35_2 C 0.0923(5) 0.2588(2) 0.9242(3)
H25_2 H 0.086826 0.218805 0.897573
H26_2 H 0.102655 0.249003 0.975116
O16_2 O 0.2217(3) 0.34237(14) 0.95755(17)
N6_2 N 0.5394(3) 0.49851(16) 0.67452(19)
C66_2 C 0.2806(4) 0.3955(2) 0.9406(3)
C67_2 C 0.3227(4) 0.4064(2) 0.8765(2)
H46_2 H 0.315620 0.375228 0.840635
C68_2 C 0.3769(4) 0.4648(2) 0.8647(2)
C69_2 C 0.3865(3) 0.5096(2) 0.9166(2)
H47_2 H 0.422572 0.548764 0.908347
C70_2 C 0.3436(4) 0.4979(2) 0.9814(2)
C71_2 C 0.2932(4) 0.4407(2) 0.9943(2)
C77_2 C 0.1936(4) 0.2966(2) 0.9039(3)
H59_2 H 0.172731 0.317587 0.858098
H60_2 H 0.262174 0.268944 0.899285
C78_2 C 0.4275(4) 0.47612(19) 0.7974(2)
C79_2 C 0.4616(4) 0.4275(2) 0.7552(2)
H61_2 H 0.446269 0.385220 0.767452
C80_2 C 0.5167(4) 0.4398(2) 0.6965(2)
H62_2 H 0.540479 0.405276 0.669617
C81_2 C 0.5042(4) 0.5455(2) 0.7135(2)
H63_2 H 0.518742 0.587308 0.698954
C82_2 C 0.4485(4) 0.5373(2) 0.7730(3)
H64_2 H 0.423800 0.572744 0.798001
O17 O 0.7744(3) 0.53535(15) 0.56814(15)
O1_2 O 0.2256(3) 0.46465(15) 0.43186(15)
O2_2 O 0.2366(3) 0.40544(19) 0.33826(19)
O8_2 O 0.7783(3) 0.65763(14) 0.04245(17)
N3_2 N 0.4606(3) 0.50149(16) 0.32548(19)
C1_2 C 0.1800(4) 0.4283(2) 0.3837(2)
C2_2 C 0.0496(4) 0.41727(19) 0.3840(2)
H2_2 H 0.027141 0.384887 0.282365
H5_2 H 0.031679 0.446958 0.483241
C25_2 C 0.7194(4) 0.6045(2) 0.0594(3)
C26_2 C 0.6773(4) 0.5936(2) 0.1235(2)
H14_2 H 0.684380 0.624772 0.159365
C27_2 C 0.6231(4) 0.5352(2) 0.1353(2)
C28_2 C 0.6135(3) 0.4904(2) 0.0834(2)
H15_2 H 0.577428 0.451236 0.091653
C29_2 C 0.6564(4) 0.5021(2) 0.0186(2)
C30_2 C 0.7068(4) 0.5593(2) 0.0057(2)
C36_2 C 0.8064(4) 0.7034(2) 0.0961(3)
H27_2 H 0.827269 0.682413 0.141902
H28_2 H 0.737826 0.731056 0.100715
C37_2 C 0.5725(4) 0.52388(19) 0.2026(2)
C38_2 C 0.5384(4) 0.5725(2) 0.2448(2)
H29_2 H 0.553731 0.614780 0.232548
C39_2 C 0.4833(4) 0.5602(2) 0.3035(2)
H30_2 H 0.459521 0.594724 0.330383
C40_2 C 0.4958(4) 0.4545(2) 0.2865(2)
H31_2 H 0.481258 0.412692 0.301046
C41_2 C 0.5515(4) 0.4627(2) 0.2270(3)
H32_2 H 0.576200 0.427256 0.201999
C57_2 C 0.4898(4) 0.72601(19) 0.0462(2)
H41_2 H 0.524739 0.701410 0.084125
C58_2 C 0.4971(3) 0.79041(19) 0.0490(2)
H42_2 H 0.540257 0.810396 0.087826
C65_2 C 0.0166(3) 0.56267(18) 0.0178(2)
H45_2 H 0.027689 0.605689 0.030039
C76_2 C 0.9077(5) 0.7412(2) 0.0758(3)
H57_2 H 0.913174 0.781195 0.102427
H58_2 H 0.897345 0.750997 0.024884
O5_2 O 0.6452(2) 0.45399(13) 0.97185(15)
O6_2 O 0.7717(2) 0.35707(14) 0.91634(14)
O7_2 O 0.9895(3) 0.29453(15) 0.9084(2)
H16_2 H 0.732791 0.568009 0.960783
C31_2 C 0.6945(4) 0.4602(2) 0.9066(2)
H17_2 H 0.776107 0.476081 0.914330
H18_2 H 0.647561 0.489900 0.875493
C32_2 C 0.6928(4) 0.3964(2) 0.8742(2)
H19_2 H 0.612301 0.378714 0.871586
H20_2 H 0.717055 0.398996 0.825788
C33_2 C 0.7837(4) 0.2971(2) 0.8857(3)
H21_2 H 0.796893 0.301855 0.835396
H22_2 H 0.710522 0.272629 0.888477
C34_2 C 0.8842(5) 0.2633(2) 0.9235(3)
H23_2 H 0.877194 0.263618 0.974821
H24_2 H 0.885462 0.219018 0.907464
N4_2 N 0.0952(3) 0.57803(14) 0.83609(15)
N5_2 N 0.1837(3) 0.62702(14) 0.93087(15)
H33_2 H 0.200875 0.637166 0.975399
C44_2 C 0.0136(4) 0.60512(17) 0.67787(19)
C45_2 C 0.1350(3) 0.61283(17) 0.6815(2)
C46_2 C 0.1930(4) 0.5970(2) 0.6232(2)
H35_2 H 0.276146 0.600737 0.625395
C47_2 C 0.1308(4) 0.5758(2) 0.5618(2)
H36_2 H 0.171176 0.566334 0.521722
C48_2 C 0.0102(4) 0.5683(2) 0.5587(2)
C49_2 C 0.1995(3) 0.63936(17) 0.74622(19)
C50_2 C 0.1733(3) 0.62347(16) 0.81432(19)
C51_2 C 0.2303(3) 0.65346(17) 0.87367(19)
C52_2 C 0.3161(3) 0.69998(17) 0.86915(19)
C53_2 C 0.3433(4) 0.71348(18) 0.8018(2)
H38_2 H 0.402395 0.743844 0.795545
C54_2 C 0.2871(3) 0.68414(18) 0.7427(2)
H39_2 H 0.309745 0.695320 0.697700
C55_2 C 0.3765(3) 0.73127(17) 0.93277(19)
C56_2 C 0.4312(3) 0.69675(18) 0.9877(2)
H40_2 H 0.428806 0.652149 0.985517
C59_2 C 0.4413(3) 0.82611(17) 0.99493(19)
C60_2 C 0.3816(3) 0.79665(18) 0.93736(19)
H43_2 H 0.343467 0.821380 0.900482
C61_2 C 0.4516(3) 0.89643(18) 0.9978(2)
C62_2 C 0.1061(3) 0.58233(17) 0.90543(19)
C63_2 C 0.0478(3) 0.54083(18) 0.95294(18)
C64_2 C 0.0304(3) 0.47797(17) 0.9358(2)
H44_2 H 0.050903 0.462740 0.891709
N1_2 N 0.9048(3) 0.42197(14) 0.16391(15)
N2_2 N 0.8163(3) 0.37298(14) 0.06913(15)
H1_2 H 0.799125 0.362834 0.024601
C3_2 C 0.9864(4) 0.39488(17) 0.32213(19)
C4_2 C 0.8650(3) 0.38717(17) 0.3185(2)
C5_2 C 0.8070(4) 0.4030(2) 0.3768(2)
H3_2 H 0.723854 0.399263 0.374605
C6_2 C 0.8692(4) 0.4242(2) 0.4382(2)
H4_2 H 0.828824 0.433666 0.478278
C7_2 C 0.9898(4) 0.4317(2) 0.4413(2)
C8_2 C 0.8005(3) 0.36064(17) 0.25378(19)
C9_2 C 0.8267(3) 0.37653(16) 0.18568(19)
C10_2 C 0.7697(3) 0.34654(17) 0.12633(19)
C11_2 C 0.6839(3) 0.30002(17) 0.13085(19)
C12_2 C 0.6567(4) 0.28652(18) 0.1982(2)
H6_2 H 0.597605 0.256156 0.204455
C13_2 C 0.7129(3) 0.31586(18) 0.2573(2)
H7_2 H 0.690255 0.304680 0.302300
C14_2 C 0.6235(3) 0.26873(17) 0.06723(19)
C15_2 C 0.5688(3) 0.30325(18) 0.0123(2)
H8_2 H 0.571194 0.347851 0.014483
C18_2 C 0.5587(3) 0.17389(17) 0.00507(19)
C19_2 C 0.6184(3) 0.20335(18) 0.06264(19)
H11_2 H 0.656533 0.178620 0.099518
C20_2 C 0.5484(3) 0.10357(18) 0.0022(2)
C21_2 C 0.8939(3) 0.41767(17) 0.09457(19)
C22_2 C 0.9522(3) 0.45917(18) 0.04706(18)
C23_2 C 0.9696(3) 0.52203(17) 0.0642(2)
H12_2 H 0.949097 0.537260 0.108291
C16_2 C 0.5102(4) 0.27399(19) 0.9538(2)
H9_2 H 0.475261 0.298590 0.915875
C17_2 C 0.5029(3) 0.20959(19) 0.9510(2)
H10_2 H 0.459743 0.189604 0.912174
C24_2 C 0.9834(3) 0.43733(18) 0.9822(2)
H13_2 H 0.972311 0.394311 0.969961
O10_2 O 0.7634(3) 0.59456(19) 0.66174(19)
C42_2 C 0.8200(4) 0.5717(2) 0.6163(2)
C43_2 C 0.9504(4) 0.58273(19) 0.6160(2)
H34_2 H 0.972859 0.615113 0.717635
H37_2 H 0.968321 0.553042 0.516759
loop_
_geom_bond_atom_site_label_1
_geom_bond_atom_site_label_2
_geom_bond_site_symmetry_1
_geom_bond_site_symmetry_2
H12 C23 1_555 1_555
O9 C42 1_555 1_555
O10 C42 1_555 1_555
C42 C43 1_555 1_555
Zn5 O9 1_555 1_555
O3 C20 1_555 1_555
O4 C20 1_555 1_555
N1 C9 1_555 1_555
N2 H1 1_555 1_555
C4 C3 1_555 1_555
C5 C4 1_555 1_555
H3 C5 1_555 1_555
C6 C5 1_555 1_555
H4 C6 1_555 1_555
C8 C4 1_555 1_555
C9 C8 1_555 1_555
C10 N2 1_555 1_555
C11 C10 1_555 1_555
C12 C11 1_555 1_555
H6 C12 1_555 1_555
C13 C8 1_555 1_555
H7 C13 1_555 1_555
C14 C11 1_555 1_555
C15 C14 1_555 1_555
H8 C15 1_555 1_555
C16 C15 1_555 1_555
H9 C16 1_555 1_555
C17 C16 1_555 1_555
H10 C17 1_555 1_555
C18 C17 1_555 1_555
C19 C14 1_555 1_555
H11 C19 1_555 1_555
C20 C18 1_555 1_555
C21 N1 1_555 1_555
C22 C21 1_555 1_555
C24 C22 1_555 1_555
H13 C24 1_555 1_555
Zn4 O3 1_555 1_555
Zn7 O4 1_555 1_555
N2 C21 1_555 1_555
C6 C7 1_555 1_555
C9 C10 1_555 1_555
C12 C13 1_555 1_555
C18 C19 1_555 1_555
O8 C25 1_555 1_555
C25 C26 1_555 1_555
C26 H14 1_555 1_555
C27 C26 1_555 1_555
C30 C25 1_555 1_555
H16 C30 1_555 1_555
C36 O8 1_555 1_555
H27 C36 1_555 1_555
H28 C36 1_555 1_555
C37 C27 1_555 1_555
C38 C37 1_555 1_555
H29 C38 1_555 1_555
C39 N3 1_555 1_555
H30 C39 1_555 1_555
O11 C61 1_555 1_555
O12 C61 1_555 1_555
N4 C50 1_555 1_555
N5 H33 1_555 1_555
C45 C44 1_555 1_555
C46 C45 1_555 1_555
H35 C46 1_555 1_555
C47 C46 1_555 1_555
H36 C47 1_555 1_555
C49 C45 1_555 1_555
C50 C49 1_555 1_555
C51 N5 1_555 1_555
C52 C51 1_555 1_555
C53 C52 1_555 1_555
H38 C53 1_555 1_555
C54 C49 1_555 1_555
H39 C54 1_555 1_555
C55 C52 1_555 1_555
C56 C55 1_555 1_555
H40 C56 1_555 1_555
C57 C56 1_555 1_555
H41 C57 1_555 1_555
C58 C57 1_555 1_555
H42 C58 1_555 1_555
C59 C58 1_555 1_555
C60 C55 1_555 1_555
H43 C60 1_555 1_555
C61 C59 1_555 1_555
C62 N4 1_555 1_555
C63 C62 1_555 1_555
H45 C65 1_555 1_555
C76 C36 1_555 1_555
H57 C76 1_555 1_555
H58 C76 1_555 1_555
Zn4 O12 1_555 1_555
Zn7 O11 1_555 1_555
C29 C30 1_555 1_555
C38 C39 1_555 1_555
N5 C62 1_555 1_555
C47 C48 1_555 1_555
C50 C51 1_555 1_555
C53 C54 1_555 1_555
C59 C60 1_555 1_555
C63 C65 1_555 1_555
Zn1 O1 1_555 1_555
O1 C1 1_555 1_555
O2 C1 1_555 1_555
O6 C32 1_555 1_555
O7 C34 1_555 1_555
C1 C2 1_555 1_555
H15 C28 1_555 1_555
C31 O5 1_555 1_555
H17 C31 1_555 1_555
H18 C31 1_555 1_555
C32 C31 1_555 1_555
H19 C32 1_555 1_555
H20 C32 1_555 1_555
C33 O6 1_555 1_555
H21 C33 1_555 1_555
H22 C33 1_555 1_555
C34 C33 1_555 1_555
H23 C34 1_555 1_555
H24 C34 1_555 1_555
H31 C40 1_555 1_555
H32 C41 1_555 1_555
H44 C64 1_555 1_555
O21 Zn1 1_555 1_555
C40 C41 1_555 1_555
O14 C73 1_555 1_555
O15 C75 1_555 1_555
H47 C69 1_555 1_555
C72 O13 1_555 1_555
H49 C72 1_555 1_555
H50 C72 1_555 1_555
C73 C72 1_555 1_555
H51 C73 1_555 1_555
H52 C73 1_555 1_555
C74 O14 1_555 1_555
H53 C74 1_555 1_555
H54 C74 1_555 1_555
C75 C74 1_555 1_555
H55 C75 1_555 1_555
H56 C75 1_555 1_555
H63 C81 1_555 1_555
H64 C82 1_555 1_555
O20 Zn5 1_555 1_555
C81 C82 1_555 1_555
H25 C35 1_555 1_555
H26 C35 1_555 1_555
O16 C66 1_555 1_555
N6 C80 1_555 1_555
C66 C67 1_555 1_555
C67 H46 1_555 1_555
C68 C67 1_555 1_555
C71 C66 1_555 1_555
H48 C71 1_555 1_555
C77 C35 1_555 1_555
H59 C77 1_555 1_555
H60 C77 1_555 1_555
C78 C68 1_555 1_555
C79 C78 1_555 1_555
H61 C79 1_555 1_555
C80 C79 1_555 1_555
H62 C80 1_555 1_555
O16 C77 1_555 1_555
C70 C71 1_555 1_555
O14_2 C73_2 1_555 1_555
O15_2 C75_2 1_555 1_555
C72_2 O13_2 1_555 1_555
H49_2 C72_2 1_555 1_555
H50_2 C72_2 1_555 1_555
C73_2 C72_2 1_555 1_555
H51_2 C73_2 1_555 1_555
H52_2 C73_2 1_555 1_555
C74_2 O14_2 1_555 1_555
H53_2 C74_2 1_555 1_555
H54_2 C74_2 1_555 1_555
C75_2 C74_2 1_555 1_555
H55_2 C75_2 1_555 1_555
H56_2 C75_2 1_555 1_555
H25_2 C35_2 1_555 1_555
H26_2 C35_2 1_555 1_555
O16_2 C66_2 1_555 1_555
N6_2 C80_2 1_555 1_555
C66_2 C67_2 1_555 1_555
C67_2 H46_2 1_555 1_555
C68_2 C67_2 1_555 1_555
C69_2 C68_2 1_555 1_555
H47_2 C69_2 1_555 1_555
C70_2 C69_2 1_555 1_555
C71_2 C66_2 1_555 1_555
C77_2 C35_2 1_555 1_555
H59_2 C77_2 1_555 1_555
H60_2 C77_2 1_555 1_555
C78_2 C68_2 1_555 1_555
C79_2 C78_2 1_555 1_555
H61_2 C79_2 1_555 1_555
C80_2 C79_2 1_555 1_555
H62_2 C80_2 1_555 1_555
C81_2 N6_2 1_555 1_555
H63_2 C81_2 1_555 1_555
C82_2 C78_2 1_555 1_555
H64_2 C82_2 1_555 1_555
Zn7 N6_2 1_555 1_555
O17 Zn7 1_555 1_555
O16_2 C77_2 1_555 1_555
C70_2 C71_2 1_555 1_555
C81_2 C82_2 1_555 1_555
Zn4 O1_2 1_555 1_555
O1_2 C1_2 1_555 1_555
O2_2 C1_2 1_555 1_555
O8_2 C25_2 1_555 1_555
N3_2 Zn4 1_555 1_555
C1_2 C2_2 1_555 1_555
C25_2 C26_2 1_555 1_555
C26_2 H14_2 1_555 1_555
C27_2 C26_2 1_555 1_555
C28_2 C27_2 1_555 1_555
H15_2 C28_2 1_555 1_555
C29_2 C28_2 1_555 1_555
C30_2 C25_2 1_555 1_555
C36_2 O8_2 1_555 1_555
H27_2 C36_2 1_555 1_555
H28_2 C36_2 1_555 1_555
C37_2 C27_2 1_555 1_555
C38_2 C37_2 1_555 1_555
H29_2 C38_2 1_555 1_555
C39_2 N3_2 1_555 1_555
H30_2 C39_2 1_555 1_555
C40_2 N3_2 1_555 1_555
H31_2 C40_2 1_555 1_555
C41_2 C37_2 1_555 1_555
H32_2 C41_2 1_555 1_555
H41_2 C57_2 1_555 1_555
C58_2 C57_2 1_555 1_555
H42_2 C58_2 1_555 1_555
H45_2 C65_2 1_555 1_555
C76_2 C36_2 1_555 1_555
H57_2 C76_2 1_555 1_555
H58_2 C76_2 1_555 1_555
C29_2 C30_2 1_555 1_555
C38_2 C39_2 1_555 1_555
C40_2 C41_2 1_555 1_555
O6_2 C32_2 1_555 1_555
O7_2 C34_2 1_555 1_555
C31_2 O5_2 1_555 1_555
H17_2 C31_2 1_555 1_555
H18_2 C31_2 1_555 1_555
C32_2 C31_2 1_555 1_555
H19_2 C32_2 1_555 1_555
H20_2 C32_2 1_555 1_555
C33_2 O6_2 1_555 1_555
H21_2 C33_2 1_555 1_555
H22_2 C33_2 1_555 1_555
C34_2 C33_2 1_555 1_555
H23_2 C34_2 1_555 1_555
H24_2 C34_2 1_555 1_555
O19 C61_2 1_555 1_555
N4_2 C50_2 1_555 1_555
N5_2 H33_2 1_555 1_555
C45_2 C44_2 1_555 1_555
C46_2 C45_2 1_555 1_555
H35_2 C46_2 1_555 1_555
C47_2 C46_2 1_555 1_555
H36_2 C47_2 1_555 1_555
C49_2 C45_2 1_555 1_555
C50_2 C49_2 1_555 1_555
C51_2 N5_2 1_555 1_555
C52_2 C51_2 1_555 1_555
C53_2 C52_2 1_555 1_555
H38_2 C53_2 1_555 1_555
C54_2 C49_2 1_555 1_555
H39_2 C54_2 1_555 1_555
C55_2 C52_2 1_555 1_555
C56_2 C55_2 1_555 1_555
H40_2 C56_2 1_555 1_555
C60_2 C55_2 1_555 1_555
H43_2 C60_2 1_555 1_555
C61_2 C59_2 1_555 1_555
C62_2 N4_2 1_555 1_555
C63_2 C62_2 1_555 1_555
H44_2 C64_2 1_555 1_555
N5_2 C62_2 1_555 1_555
C47_2 C48_2 1_555 1_555
C50_2 C51_2 1_555 1_555
C53_2 C54_2 1_555 1_555
C59_2 C60_2 1_555 1_555
C63_2 C64_2 1_555 1_555
O18 C20_2 1_555 1_555
N1_2 C9_2 1_555 1_555
N2_2 H1_2 1_555 1_555
C4_2 C3_2 1_555 1_555
C5_2 C4_2 1_555 1_555
H3_2 C5_2 1_555 1_555
C6_2 C5_2 1_555 1_555
H4_2 C6_2 1_555 1_555
C8_2 C4_2 1_555 1_555
C9_2 C8_2 1_555 1_555
C10_2 N2_2 1_555 1_555
C11_2 C10_2 1_555 1_555
C12_2 C11_2 1_555 1_555
H6_2 C12_2 1_555 1_555
C13_2 C8_2 1_555 1_555
H7_2 C13_2 1_555 1_555
C14_2 C11_2 1_555 1_555
C15_2 C14_2 1_555 1_555
H8_2 C15_2 1_555 1_555
C19_2 C14_2 1_555 1_555
H11_2 C19_2 1_555 1_555
C20_2 C18_2 1_555 1_555
C21_2 N1_2 1_555 1_555
C22_2 C21_2 1_555 1_555
C23_2 C22_2 1_555 1_555
H12_2 C23_2 1_555 1_555
N2_2 C21_2 1_555 1_555
C6_2 C7_2 1_555 1_555
C9_2 C10_2 1_555 1_555
C12_2 C13_2 1_555 1_555
C18_2 C19_2 1_555 1_555
H9_2 C16_2 1_555 1_555
C17_2 C16_2 1_555 1_555
H10_2 C17_2 1_555 1_555
H13_2 C24_2 1_555 1_555
O17 C42_2 1_555 1_555
O10_2 C42_2 1_555 1_555
C42_2 C43_2 1_555 1_555

#END
