
###############################################################################
#
# This file contains modified crystal structure data generated from the
# MOF subset of the Cambridge Structural Database (CSD) v543 
# hosted by the Cambridge Crystallographic Data Centre (CCDC).
#
# This work is licensed under the Creative Commons
# Attribution-NonCommercial-ShareAlike 4.0 International License.
# To view a copy of this license, visit
# http://creativecommons.org/licenses/by-nc-sa/4.0/
# or send a letter to
# Creative Commons, PO Box 1866, Mountain View, CA 94042, USA.
#
# CIF created using the CSD Python API on 29 September 2022
# The structure has been converted into the P1 space group
# The structure has a 3D framework
# The original CSD entry SAJRUT is in the monoclinic crystal system
# The framework has been calculated to contain at least 10.0% void space
# The void calculation uses a probe of radius 1.32A, grid spacing 0.4
#
###############################################################################

data_SAJRUT
_chemical_formula_moiety         '(C224 H264 Fe16 N24 O88)n'
_symmetry_cell_setting           triclinic
_symmetry_space_group_name_H-M   'P 1'
_symmetry_Int_Tables_number      1
_space_group_name_Hall           'P 1'
loop_
_symmetry_equiv_pos_site_id
_symmetry_equiv_pos_as_xyz
1 x,y,z
_cell_length_a                   18.698(7)
_cell_length_b                   19.292(7)
_cell_length_c                   19.383(7)
_cell_angle_alpha                90
_cell_angle_beta                 91.045(4)
_cell_angle_gamma                90
_cell_volume                     6990.71
loop_
_atom_site_label
_atom_site_type_symbol
_atom_site_fract_x
_atom_site_fract_y
_atom_site_fract_z
O1 O 0.1807(3) 0.0382(3) 0.5820(3)
O3 O 0.2763(4) 0.0019(4) 0.6421(4)
C2 C 0.2124(5) 0.0162(5) 0.6408(5)
C3 C 0.1674(5) 0.0060(5) 0.7021(5)
C4 C 0.0928(5) 0.0042(5) 0.6917(5)
H4 H 0.0729 0.0115 0.6480
Fe6 Fe 0.27052(6) 0.01409(6) 0.52093(7)
Fe10 Fe 0.13038(7) 0.13337(7) 0.54432(7)
Fe9 Fe 0.22984(6) 0.97724(6) 0.01696(7)
O12 O 0.1452(3) 0.9910(3) 0.9454(3)
O16 O 0.2522(4) 0.9774(4) 0.9028(4)
C14 C 0.0795(5) 0.9882(5) 0.8143(6)
H6 H 0.0503 0.9851 0.8525
N1 N 0.0755(5) 0.8633(5) 0.3927(7)
C21 C 0.0328(8) 0.8912(6) 0.4347(8)
C22 C 0.1857(5) 0.9842(5) 0.8942(5)
C25 C 0.1544(5) 0.9899(6) 0.8244(6)
C27 C 0.0484(5) 0.9910(6) 0.7487(6)
C34 C 0.0672(7) 0.9092(7) 0.5041(7)
H15 H 0.1100 0.8824 0.5107
H16 H 0.0344 0.8990 0.5403
H17 H 0.0788 0.9577 0.5051
C36 C 0.1966(6) 0.9978(5) 0.7655(6)
H18 H 0.2461 0.9973 0.7706
C38 C 0.0510(7) 0.6952(9) 0.4697(10)
H19 H 0.0493 0.6868 0.4209
H20 H 0.0895 0.6692 0.4904
H21 H 0.0586 0.7438 0.4780
C40 C 0.0370(8) 0.8393(7) 0.3257(7)
H26 H 0.0363 0.7895 0.3240
H27 H 0.0619 0.8569 0.2865
C42 C 0.1486(6) 0.8518(7) 0.3975(7)
H31 H 0.1670 0.8710 0.4399
H32 H 0.1716 0.8737 0.3593
H33 H 0.1579 0.8029 0.3965
H42 H 0.0216 0.5762 0.4945
O6 O 0.7310(3) 0.0269(4) 0.8197(4)
O7 O 0.8243(3) 0.0230(4) 0.8940(3)
C9 C 0.8476(5) 0.0052(5) 0.7766(5)
C28 C 0.7961(5) 0.0202(5) 0.8342(5)
C30 C 0.9209(5) 0.0047(5) 0.7883(5)
H12 H 0.9389 0.0168 0.8316
Fe7 Fe 0.77016(6) 0.02276(6) 0.98304(7)
Fe11 Fe 0.63244(7) 0.05582(8) 0.86202(8)
O29 O 0.7422(3) 0.0970(3) 0.4787(4)
O32 O 0.6393(4) 0.0516(3) 0.5097(4)
C1 C 0.7559(12) 0.6710(10) 0.2850(12)
H1 H 0.7194 0.6618 0.3179
H2 H 0.7744 0.6280 0.2680
H3 H 0.7360 0.6974 0.2473
O2 O 0.8579(4) 0.8148(5) 0.3568(5)
Fe1 Fe 0.72948(6) 0.98591(6) 0.47907(7)
Fe2 Fe 0.22984(6) 0.52276(6) 0.51696(7)
Fe3 Fe 0.86962(7) 0.86663(7) 0.45568(7)
Fe4 Fe 0.36756(7) 0.55582(8) 0.63798(8)
O4 O 0.9672(3) 0.9034(4) 0.4244(3)
O5 O 0.7786(3) 0.9724(3) 0.5714(3)
O8 O 0.3201(3) 0.5846(3) 0.5381(3)
O9 O 0.2244(3) 0.6423(3) 0.5021(4)
O10 O 0.4672(3) 0.5865(4) 0.6010(4)
O11 O 0.7704(3) 0.8210(3) 0.4795(4)
O13 O 0.7185(3) 0.5699(3) 0.4603(4)
O14 O 0.2578(3) 0.9030(3) 0.5213(4)
O15 O 0.6775(3) 0.8954(3) 0.4795(4)
O17 O 0.6171(4) 0.5432(4) 0.4037(5)
O18 O 0.8807(3) 0.9141(3) 0.5517(4)
O19 O 0.3607(4) 0.9484(3) 0.4903(4)
C5 C 0.2906(5) 0.6408(5) 0.5155(5)
O20 O 0.4304(4) 0.5324(5) 0.7309(5)
C6 C 0.4526(5) 0.7475(5) 0.4796(5)
C7 C 0.8669(5) 0.9703(4) 0.6594(5)
C8 C 0.9677(5) 0.9867(6) 0.7371(5)
C10 C 0.6303(5) 0.6557(5) 0.4503(6)
O21 O 0.9330(3) 0.7761(4) 0.4896(5)
C11 C 0.8212(5) 0.9883(4) 0.7110(5)
H5 H 0.7721 0.9892 0.7022
C12 C 0.3507(4) 0.8251(4) 0.4956(5)
C13 C 0.6541(4) 0.7763(5) 0.4719(6)
C15 C 0.8396(5) 0.9515(5) 0.5891(5)
C16 C 0.7067(6) 0.8367(5) 0.4779(6)
C17 C 0.5319(5) 0.7354(5) 0.4694(5)
C18 C 0.4063(5) 0.6938(5) 0.4932(5)
H7 H 0.4251 0.6492 0.4946
C19 C 0.5331(9) 0.5793(10) 0.6078(7)
C20 C 0.3362(5) 0.7012(4) 0.5045(5)
C23 C 0.5806(5) 0.7883(5) 0.4775(5)
H8 H 0.5644 0.8329 0.4868
C24 C 0.9416(4) 0.9683(5) 0.6740(5)
H9 H 0.9728 0.9543 0.6400
C26 C 0.3078(5) 0.7688(5) 0.5050(5)
H10 H 0.2592 0.7752 0.5119
C29 C 0.6789(5) 0.7100(5) 0.4605(6)
H11 H 0.7278 0.7014 0.4595
N2 N 0.9841(6) 0.6742(6) 0.4996(9)
C31 C 0.4218(5) 0.8147(5) 0.4822(6)
H13 H 0.4508 0.8531 0.4746
C32 C 0.5570(5) 0.6686(5) 0.4535(6)
H14 H 0.5246 0.6329 0.4452
C33 C 0.3217(5) 0.8962(5) 0.5021(5)
N3 N 0.4899(6) 0.5116(7) 0.8300(6)
C35 C 0.6595(5) 0.5840(5) 0.4373(6)
N4 N 0.5801(6) 0.6213(7) 0.6274(6)
C37 C 0.9322(6) 0.7166(7) 0.5115(9)
C39 C 0.5653(7) 0.5030(6) 0.5862(9)
H22 H 0.5891 0.4824 0.6254
H23 H 0.5988 0.5086 0.5496
H24 H 0.5268 0.4735 0.5709
H25 H 0.9888 0.8565 0.3249
C41 C 0.5432(11) 0.6896(9) 0.6513(10)
H28 H 0.5508 0.7254 0.6178
H29 H 0.5632 0.7036 0.6951
H30 H 0.4928 0.6817 0.6558
C43 C 0.3759(12) 0.4491(12) 0.7989(14)
H34 H 0.3657 0.4246 0.7568
H35 H 0.3327 0.4696 0.8155
H36 H 0.3948 0.4175 0.8328
C44 C 0.4346(7) 0.5099(10) 0.7845(7)
C45 C 0.6561(5) 0.6142(9) 0.6318(9)
H37 H 0.6717 0.5826 0.5968
H38 H 0.6697 0.5966 0.6765
H39 H 0.6781 0.6586 0.6249
C46 C 0.9835(10) 0.5993(10) 0.5177(12)
H40 H 0.9385 0.5794 0.5037
H41 H 0.9900 0.5942 0.5667
C47 C 0.8652(8) 0.6840(9) 0.5475(10)
H43 H 0.8601 0.7041 0.5924
H44 H 0.8717 0.6348 0.5519
H45 H 0.8230 0.6932 0.5201
C48 C 0.5018(14) 0.4873(12) 0.8967(15)
H46 H 0.5515 0.4921 0.9088
H47 H 0.4884 0.4393 0.8991
H48 H 0.4736 0.5137 0.9282
C49 C 0.5412(12) 0.5667(11) 0.8241(17)
H49 H 0.5717 0.5577 0.7859
H50 H 0.5695 0.5695 0.8659
H51 H 0.5165 0.6098 0.8167
C50 C 0.7409(15) 0.8101(15) 0.3054(17)
H52 H 0.7408 0.8587 0.3161
H53 H 0.7039 0.7873 0.3305
H54 H 0.7325 0.8038 0.2568
C51 C 0.8199(14) 0.7763(13) 0.3276(15)
C52 C 0.8782(11) 0.6766(15) 0.3455(14)
H55 H 0.9172 0.6851 0.3151
H56 H 0.8701 0.6276 0.3489
H57 H 0.8897 0.6949 0.3904
N5 N 0.8136(9) 0.7104(9) 0.3182(10)
O22 O 0.3508(4) 0.6587(4) 0.6756(4)
C53 C 0.3430(11) 0.6965(11) 0.7317(15)
N6 N 0.3398(15) 0.7600(9) 0.7396(11)
C54 C 0.3844(14) 0.8019(15) 0.6959(16)
H58 H 0.3730 0.7923 0.6484
H59 H 0.4338 0.7913 0.7052
H60 H 0.3759 0.8501 0.7052
C55 C 0.3230(12) 0.6544(12) 0.7998(13)
H61 H 0.3518 0.6707 0.8380
H62 H 0.3320 0.6059 0.7928
H63 H 0.2734 0.6612 0.8095
C56 C 0.342(2) 0.8031(16) 0.8046(15)
H64 H 0.3255 0.8492 0.7943
H65 H 0.3898 0.8049 0.8228
H66 H 0.3111 0.7826 0.8382
O23 O 0.8193(3) 0.9618(3) 0.4180(3)
O24 O 0.7237(4) 0.9981(4) 0.3579(4)
Fe8 Fe 0.77016(6) 0.47724(6) 0.48304(7)
Fe12 Fe 0.63244(7) 0.44418(8) 0.36202(8)
O25 O 0.2690(3) 0.5269(4) 0.6803(4)
O26 O 0.1757(3) 0.5230(4) 0.6060(3)
O27 O 0.1452(3) 0.5090(3) 0.4454(3)
O28 O 0.2815(3) 0.4301(3) 0.5397(4)
O30 O 0.2522(4) 0.5226(4) 0.4028(4)
O31 O 0.3829(4) 0.4568(4) 0.5963(5)
C1_2 C 0.2441(12) 0.1710(10) 0.2150(12)
H1_2 H 0.2806 0.1618 0.1821
H2_2 H 0.2256 0.1280 0.2320
H3_2 H 0.2640 0.1974 0.2527
O2_2 O 0.1421(4) 0.3148(5) 0.1432(5)
Fe1_2 Fe 0.27052(6) 0.48591(6) 0.02093(7)
Fe3_2 Fe 0.13038(7) 0.36663(7) 0.04432(7)
O4_2 O 0.0328(3) 0.4034(4) 0.0756(3)
O11_2 O 0.2296(3) 0.3210(3) 0.0205(4)
O13_2 O 0.2815(3) 0.0699(3) 0.0397(4)
O15_2 O 0.3225(3) 0.3954(3) 0.0205(4)
O17_2 O 0.3829(4) 0.0432(4) 0.0963(5)
O19_2 O 0.6393(4) 0.4484(3) 0.0097(4)
C6_2 C 0.5474(5) 0.2475(5) 0.0204(5)
C10_2 C 0.3697(5) 0.1557(5) 0.0497(6)
O21_2 O 0.0670(3) 0.2761(4) 0.0104(5)
C12_2 C 0.6493(4) 0.3251(4) 0.0044(5)
C13_2 C 0.3459(4) 0.2763(5) 0.0281(6)
C16_2 C 0.2933(6) 0.3367(5) 0.0221(6)
C17_2 C 0.4681(5) 0.2354(5) 0.0306(5)
C18_2 C 0.5937(5) 0.1938(5) 0.0068(5)
H7_2 H 0.5749 0.1492 0.0054
C23_2 C 0.4194(5) 0.2883(5) 0.0225(5)
H8_2 H 0.4356 0.3329 0.0132
C29_2 C 0.3211(5) 0.2100(5) 0.0395(6)
H11_2 H 0.2722 0.2014 0.0405
N2_2 N 0.0159(6) 0.1742(6) 0.0004(9)
C31_2 C 0.5782(5) 0.3147(5) 0.0178(6)
H13_2 H 0.5492 0.3531 0.0254
C32_2 C 0.4430(5) 0.1686(5) 0.0465(6)
H14_2 H 0.4754 0.1329 0.0548
C35_2 C 0.3405(5) 0.0840(5) 0.0627(6)
H25_2 H 0.0112 0.3565 0.1751
C50_2 C 0.2591(15) 0.3101(15) 0.1946(17)
H52_2 H 0.2592 0.3587 0.1839
H53_2 H 0.2961 0.2873 0.1695
H54_2 H 0.2675 0.3038 0.2432
C51_2 C 0.1801(14) 0.2763(13) 0.1724(15)
C52_2 C 0.1218(11) 0.1766(15) 0.1545(14)
H55_2 H 0.0828 0.1851 0.1849
H56_2 H 0.1299 0.1276 0.1511
H57_2 H 0.1103 0.1949 0.1096
N5_2 N 0.1864(9) 0.2104(9) 0.1818(10)
O23_2 O 0.1807(3) 0.4618(3) 0.0820(3)
O24_2 O 0.2763(4) 0.4981(4) 0.1421(4)
O27_2 O 0.8548(3) 0.0090(3) 0.0546(3)
O29_2 O 0.2578(3) 0.5970(3) 0.0213(4)
O30_2 O 0.7478(4) 0.0226(4) 0.0972(4)
O5_2 O 0.2214(3) 0.4724(3) 0.9286(3)
O8_2 O 0.6799(3) 0.0846(3) 0.9619(3)
O9_2 O 0.7756(3) 0.1423(3) 0.9979(4)
O10_2 O 0.5328(3) 0.0865(4) 0.8990(4)
O14_2 O 0.7422(3) 0.4030(3) 0.9787(4)
O18_2 O 0.1193(3) 0.4141(3) 0.9483(4)
C5_2 C 0.7094(5) 0.1408(5) 0.9845(5)
O20_2 O 0.5696(4) 0.0324(5) 0.7691(5)
C7_2 C 0.1331(5) 0.4703(4) 0.8406(5)
C8_2 C 0.0323(5) 0.4867(6) 0.7629(5)
C9_2 C 0.1524(5) 0.5052(5) 0.7234(5)
C11_2 C 0.1788(5) 0.4883(4) 0.7890(5)
H5_2 H 0.2279 0.4892 0.7978
C15_2 C 0.1604(5) 0.4515(5) 0.9109(5)
C19_2 C 0.4669(9) 0.0793(10) 0.8922(7)
C20_2 C 0.6638(5) 0.2012(4) 0.9955(5)
C24_2 C 0.0584(4) 0.4683(5) 0.8260(5)
H9_2 H 0.0272 0.4543 0.8600
C26_2 C 0.6922(5) 0.2688(5) 0.9950(5)
H10_2 H 0.7408 0.2752 0.9881
C28_2 C 0.2039(5) 0.5202(5) 0.6658(5)
C30_2 C 0.0791(5) 0.5047(5) 0.7117(5)
H12_2 H 0.0611 0.5168 0.6684
C33_2 C 0.6783(5) 0.3962(5) 0.9979(5)
N3_2 N 0.5101(6) 0.0116(7) 0.6700(6)
N4_2 N 0.4199(6) 0.1213(7) 0.8726(6)
C37_2 C 0.0678(6) 0.2166(7) 0.9885(9)
C39_2 C 0.4347(7) 0.0030(6) 0.9138(9)
H23_2 H 0.4012 0.0086 0.9504
C41_2 C 0.4568(11) 0.1896(9) 0.8487(10)
H28_2 H 0.4492 0.2254 0.8822
H29_2 H 0.4368 0.2036 0.8049
H30_2 H 0.5072 0.1817 0.8442
C44_2 C 0.5654(7) 0.0099(10) 0.7155(7)
C45_2 C 0.3439(5) 0.1142(9) 0.8682(9)
H37_2 H 0.3283 0.0826 0.9032
H38_2 H 0.3303 0.0966 0.8235
H39_2 H 0.3219 0.1586 0.8751
C46_2 C 0.0165(10) 0.0993(10) 0.9823(12)
H40_2 H 0.0615 0.0794 0.9963
H41_2 H 0.0100 0.0942 0.9333
C47_2 C 0.1348(8) 0.1840(9) 0.9525(10)
H43_2 H 0.1399 0.2041 0.9076
H44_2 H 0.1283 0.1348 0.9481
H45_2 H 0.1770 0.1932 0.9799
H48_2 H 0.5264 0.0137 0.5718
C49_2 C 0.4588(12) 0.0667(11) 0.6759(17)
H49_2 H 0.4283 0.0577 0.7141
H50_2 H 0.4305 0.0695 0.6341
H51_2 H 0.4835 0.1098 0.6833
O22_2 O 0.6492(4) 0.1587(4) 0.8244(4)
C53_2 C 0.6570(11) 0.1965(11) 0.7683(15)
N6_2 N 0.6602(15) 0.2600(9) 0.7604(11)
C54_2 C 0.6156(14) 0.3019(15) 0.8041(16)
H58_2 H 0.6270 0.2923 0.8516
H59_2 H 0.5662 0.2913 0.7948
H60_2 H 0.6241 0.3501 0.7948
C55_2 C 0.6770(12) 0.1544(12) 0.7002(13)
H61_2 H 0.6482 0.1707 0.6620
H62_2 H 0.6680 0.1059 0.7072
H63_2 H 0.7266 0.1612 0.6905
C56_2 C 0.658(2) 0.3031(16) 0.6954(15)
H64_2 H 0.6745 0.3492 0.7057
H65_2 H 0.6102 0.3049 0.6772
H66_2 H 0.6889 0.2826 0.6618
Fe5 Fe 0.72948(6) 0.51409(6) 0.97907(7)
O32_2 O 0.3607(4) 0.5516(3) 0.9903(4)
Fe12_2 Fe 0.36756(7) 0.94418(8) 0.13798(8)
H22_2 H 0.4109 0.9824 0.8746
H24_2 H 0.4732 0.9735 0.9291
C43_2 C 0.6241(12) 0.9491(12) 0.7011(14)
H34_2 H 0.6343 0.9246 0.7432
H35_2 H 0.6673 0.9696 0.6845
H36_2 H 0.6052 0.9175 0.6672
C48_2 C 0.4982(14) 0.9873(12) 0.6033(15)
H46_2 H 0.4485 0.9921 0.5912
H47_2 H 0.5116 0.9393 0.6009
O28_2 O 0.7185(3) 0.9301(3) 0.9603(4)
O31_2 O 0.6171(4) 0.9568(4) 0.9037(5)
O1_2 O 0.8193(3) 0.5382(3) 0.9180(3)
O3_2 O 0.7237(4) 0.5019(4) 0.8579(4)
C2_2 C 0.7876(5) 0.5162(5) 0.8592(5)
C3_2 C 0.8326(5) 0.5060(5) 0.7979(5)
C4_2 C 0.9072(5) 0.5042(5) 0.8083(5)
H4_2 H 0.9271 0.5115 0.8520
O12_2 O 0.8548(3) 0.4910(3) 0.5546(3)
O16_2 O 0.7478(4) 0.4774(4) 0.5972(4)
C14_2 C 0.9205(5) 0.4882(5) 0.6857(6)
H6_2 H 0.9497 0.4851 0.6475
C22_2 C 0.8143(5) 0.4842(5) 0.6058(5)
C25_2 C 0.8456(5) 0.4899(6) 0.6756(6)
C27_2 C 0.9516(5) 0.4910(6) 0.7513(6)
C34_2 C 0.9328(7) 0.4092(7) 0.9959(7)
H15_2 H 0.8900 0.3824 0.9893
H16_2 H 0.9656 0.3990 0.9597
H17_2 H 0.9212 0.4577 0.9949
C36_2 C 0.8034(6) 0.4978(5) 0.7345(6)
H18_2 H 0.7539 0.4973 0.7294
Fe10_2 Fe 0.86962(7) 0.63337(7) 0.95568(7)
C1_3 C 0.2441(12) 0.3290(10) 0.7150(12)
H1_3 H 0.2806 0.3382 0.6821
H2_3 H 0.2256 0.3720 0.7320
H3_3 H 0.2640 0.3026 0.7527
O2_3 O 0.1421(4) 0.1852(5) 0.6432(5)
O4_3 O 0.0328(3) 0.0966(4) 0.5756(3)
O5_3 O 0.2214(3) 0.0276(3) 0.4286(3)
O8_3 O 0.6799(3) 0.4154(3) 0.4619(3)
O9_3 O 0.7756(3) 0.3577(3) 0.4979(4)
O10_3 O 0.5328(3) 0.4135(4) 0.3990(4)
O11_3 O 0.2296(3) 0.1790(3) 0.5205(4)
O15_3 O 0.3225(3) 0.1046(3) 0.5205(4)
O18_3 O 0.1193(3) 0.0859(3) 0.4483(4)
C5_3 C 0.7094(5) 0.3592(5) 0.4845(5)
O20_3 O 0.5696(4) 0.4676(5) 0.2691(5)
C6_3 C 0.5474(5) 0.2525(5) 0.5204(5)
C7_3 C 0.1331(5) 0.0297(4) 0.3406(5)
C8_3 C 0.0323(5) 0.0133(6) 0.2629(5)
C10_3 C 0.3697(5) 0.3443(5) 0.5497(6)
O21_3 O 0.0670(3) 0.2239(4) 0.5104(5)
C11_3 C 0.1788(5) 0.0117(4) 0.2890(5)
H5_3 H 0.2279 0.0108 0.2978
C12_3 C 0.6493(4) 0.1749(4) 0.5044(5)
C13_3 C 0.3459(4) 0.2237(5) 0.5281(6)
C15_3 C 0.1604(5) 0.0485(5) 0.4109(5)
C16_3 C 0.2933(6) 0.1633(5) 0.5221(6)
C17_3 C 0.4681(5) 0.2646(5) 0.5306(5)
C18_3 C 0.5937(5) 0.3062(5) 0.5068(5)
H7_3 H 0.5749 0.3508 0.5054
C19_3 C 0.4669(9) 0.4207(10) 0.3922(7)
C20_3 C 0.6638(5) 0.2988(4) 0.4955(5)
C23_3 C 0.4194(5) 0.2117(5) 0.5225(5)
H8_3 H 0.4356 0.1671 0.5132
C24_3 C 0.0584(4) 0.0317(5) 0.3260(5)
H9_3 H 0.0272 0.0457 0.3600
C26_3 C 0.6922(5) 0.2312(5) 0.4950(5)
H10_3 H 0.7408 0.2248 0.4881
C29_3 C 0.3211(5) 0.2900(5) 0.5395(6)
H11_3 H 0.2722 0.2986 0.5405
N2_3 N 0.0159(6) 0.3258(6) 0.5004(9)
C31_3 C 0.5782(5) 0.1853(5) 0.5178(6)
H13_3 H 0.5492 0.1469 0.5254
C32_3 C 0.4430(5) 0.3314(5) 0.5465(6)
H14_3 H 0.4754 0.3671 0.5548
C33_3 C 0.6783(5) 0.1038(5) 0.4979(5)
N3_3 N 0.5101(6) 0.4884(7) 0.1700(6)
C35_3 C 0.3405(5) 0.4160(5) 0.5627(6)
N4_3 N 0.4199(6) 0.3787(7) 0.3726(6)
C37_3 C 0.0678(6) 0.2834(7) 0.4885(9)
C39_3 C 0.4347(7) 0.4970(6) 0.4138(9)
H22_3 H 0.4109 0.5176 0.3746
H23_3 H 0.4012 0.4914 0.4504
H24_3 H 0.4732 0.5265 0.4291
H25_3 H 0.0112 0.1435 0.6751
C41_3 C 0.4568(11) 0.3104(9) 0.3487(10)
H28_3 H 0.4492 0.2746 0.3822
H29_3 H 0.4368 0.2964 0.3049
H30_3 H 0.5072 0.3183 0.3442
C43_3 C 0.6241(12) 0.5509(12) 0.2011(14)
H34_3 H 0.6343 0.5754 0.2432
H35_3 H 0.6673 0.5304 0.1845
H36_3 H 0.6052 0.5825 0.1672
C44_3 C 0.5654(7) 0.4901(10) 0.2155(7)
C45_3 C 0.3439(5) 0.3858(9) 0.3682(9)
H37_3 H 0.3283 0.4174 0.4032
H38_3 H 0.3303 0.4034 0.3235
H39_3 H 0.3219 0.3414 0.3751
C46_3 C 0.0165(10) 0.4007(10) 0.4823(12)
H40_3 H 0.0615 0.4206 0.4963
H41_3 H 0.0100 0.4058 0.4333
C47_3 C 0.1348(8) 0.3160(9) 0.4525(10)
H43_3 H 0.1399 0.2959 0.4076
H44_3 H 0.1283 0.3652 0.4481
H45_3 H 0.1770 0.3068 0.4799
C48_3 C 0.4982(14) 0.5127(12) 0.1033(15)
H46_3 H 0.4485 0.5079 0.0912
H47_3 H 0.5116 0.5607 0.1009
H48_3 H 0.5264 0.4863 0.0718
C49_3 C 0.4588(12) 0.4333(11) 0.1759(17)
H49_3 H 0.4283 0.4423 0.2141
H50_3 H 0.4305 0.4305 0.1341
H51_3 H 0.4835 0.3902 0.1833
C50_3 C 0.2591(15) 0.1899(15) 0.6946(17)
H52_3 H 0.2592 0.1413 0.6839
H53_3 H 0.2961 0.2127 0.6695
H54_3 H 0.2675 0.1962 0.7432
C51_3 C 0.1801(14) 0.2237(13) 0.6724(15)
C52_3 C 0.1218(11) 0.3234(15) 0.6545(14)
H55_3 H 0.0828 0.3149 0.6849
H56_3 H 0.1299 0.3724 0.6511
H57_3 H 0.1103 0.3051 0.6096
N5_3 N 0.1864(9) 0.2896(9) 0.6818(10)
O22_3 O 0.6492(4) 0.3413(4) 0.3244(4)
C53_3 C 0.6570(11) 0.3035(11) 0.2683(15)
N6_3 N 0.6602(15) 0.2400(9) 0.2604(11)
C54_3 C 0.6156(14) 0.1981(15) 0.3041(16)
H58_3 H 0.6270 0.2077 0.3516
H59_3 H 0.5662 0.2087 0.2948
H60_3 H 0.6241 0.1499 0.2948
C55_3 C 0.6770(12) 0.3456(12) 0.2002(13)
H61_3 H 0.6482 0.3293 0.1620
H62_3 H 0.6680 0.3941 0.2072
H63_3 H 0.7266 0.3388 0.1905
C56_3 C 0.658(2) 0.1969(16) 0.1954(15)
H64_3 H 0.6745 0.1508 0.2057
H65_3 H 0.6102 0.1951 0.1772
H66_3 H 0.6889 0.2174 0.1618
O25_2 O 0.7310(3) 0.4731(4) 0.3197(4)
O26_2 O 0.8243(3) 0.4770(4) 0.3940(3)
O6_2 O 0.2690(3) 0.9731(4) 0.1803(4)
O7_2 O 0.1757(3) 0.9770(4) 0.1060(3)
C9_3 C 0.1524(5) 0.9948(5) 0.2234(5)
C28_3 C 0.2039(5) 0.9798(5) 0.1658(5)
C30_3 C 0.0791(5) 0.9953(5) 0.2117(5)
H12_3 H 0.0611 0.9832 0.1684
C14_3 C 0.9205(5) 0.0118(5) 0.1857(6)
H6_3 H 0.9497 0.0149 0.1475
N1_2 N 0.9245(5) 0.1367(5) 0.6073(7)
C21_2 C 0.9672(8) 0.1088(6) 0.5653(8)
C22_3 C 0.8143(5) 0.0158(5) 0.1058(5)
C25_3 C 0.8456(5) 0.0101(6) 0.1756(6)
C27_3 C 0.9516(5) 0.0090(6) 0.2513(6)
C34_3 C 0.9328(7) 0.0908(7) 0.4959(7)
H15_3 H 0.8900 0.1176 0.4893
H16_3 H 0.9656 0.1010 0.4597
H17_3 H 0.9212 0.0423 0.4949
C36_3 C 0.8034(6) 0.0022(5) 0.2345(6)
H18_3 H 0.7539 0.0027 0.2294
C38_2 C 0.9490(7) 0.3048(9) 0.5303(10)
H19_2 H 0.9507 0.3132 0.5791
H20_2 H 0.9105 0.3308 0.5096
H21_2 H 0.9414 0.2562 0.5220
C40_2 C 0.9630(8) 0.1607(7) 0.6743(7)
H26_2 H 0.9637 0.2105 0.6760
H27_2 H 0.9381 0.1431 0.7135
C42_2 C 0.8514(6) 0.1482(7) 0.6025(7)
H31_2 H 0.8330 0.1290 0.5601
H32_2 H 0.8284 0.1263 0.6407
H33_2 H 0.8421 0.1971 0.6035
H42_2 H 0.9784 0.4238 0.5055
C2_3 C 0.7876(5) 0.9838(5) 0.3592(5)
C3_3 C 0.8326(5) 0.9940(5) 0.2979(5)
C4_3 C 0.9072(5) 0.9958(5) 0.3083(5)
H4_3 H 0.9271 0.9885 0.3520
C2_4 C 0.2124(5) 0.4838(5) 0.1408(5)
C3_4 C 0.1674(5) 0.4940(5) 0.2021(5)
C4_4 C 0.0928(5) 0.4958(5) 0.1917(5)
H4_4 H 0.0729 0.4885 0.1480
C14_4 C 0.0795(5) 0.5118(5) 0.3143(6)
H6_4 H 0.0503 0.5149 0.3525
C22_4 C 0.1857(5) 0.5158(5) 0.3942(5)
C25_4 C 0.1544(5) 0.5101(6) 0.3244(6)
C27_4 C 0.0484(5) 0.5090(6) 0.2487(6)
C34_4 C 0.0672(7) 0.5908(7) 0.0041(7)
H15_4 H 0.1100 0.6176 0.0107
H16_4 H 0.0344 0.6010 0.0403
H17_4 H 0.0788 0.5423 0.0051
C36_4 C 0.1966(6) 0.5022(5) 0.2655(6)
H18_4 H 0.2461 0.5027 0.2706
H22_4 H 0.5891 0.0176 0.1254
H24_4 H 0.5268 0.0265 0.0709
C43_4 C 0.3759(12) 0.0509(12) 0.2989(14)
H34_4 H 0.3657 0.0754 0.2568
H35_4 H 0.3327 0.0304 0.3155
H36_4 H 0.3948 0.0825 0.3328
C48_4 C 0.5018(14) 0.0127(12) 0.3967(15)
H46_4 H 0.5515 0.0079 0.4088
H47_4 H 0.4884 0.0607 0.3991
O5_4 O 0.7786(3) 0.5276(3) 0.0714(3)
O8_4 O 0.3201(3) 0.9154(3) 0.0381(3)
O9_4 O 0.2244(3) 0.8577(3) 0.0021(4)
O10_4 O 0.4672(3) 0.9135(4) 0.1010(4)
O18_4 O 0.8807(3) 0.5859(3) 0.0517(4)
C5_4 C 0.2906(5) 0.8592(5) 0.0155(5)
O20_4 O 0.4304(4) 0.9676(5) 0.2309(5)
C7_4 C 0.8669(5) 0.5297(4) 0.1594(5)
C8_4 C 0.9677(5) 0.5133(6) 0.2371(5)
C9_4 C 0.8476(5) 0.4948(5) 0.2766(5)
C11_4 C 0.8212(5) 0.5117(4) 0.2110(5)
H5_4 H 0.7721 0.5108 0.2022
C15_4 C 0.8396(5) 0.5485(5) 0.0891(5)
C19_4 C 0.5331(9) 0.9207(10) 0.1078(7)
C20_4 C 0.3362(5) 0.7988(4) 0.0045(5)
C24_4 C 0.9416(4) 0.5317(5) 0.1740(5)
H9_4 H 0.9728 0.5457 0.1400
C26_4 C 0.3078(5) 0.7312(5) 0.0050(5)
H10_4 H 0.2592 0.7248 0.0119
C28_4 C 0.7961(5) 0.4798(5) 0.3342(5)
C30_4 C 0.9209(5) 0.4953(5) 0.2883(5)
H12_4 H 0.9389 0.4832 0.3316
C33_4 C 0.3217(5) 0.6038(5) 0.0021(5)
N3_4 N 0.4899(6) 0.9884(7) 0.3300(6)
N4_4 N 0.5801(6) 0.8787(7) 0.1274(6)
C37_4 C 0.9322(6) 0.7834(7) 0.0115(9)
C39_4 C 0.5653(7) 0.9970(6) 0.0862(9)
H23_4 H 0.5988 0.9914 0.0496
C41_4 C 0.5432(11) 0.8104(9) 0.1513(10)
H28_4 H 0.5508 0.7746 0.1178
H29_4 H 0.5632 0.7964 0.1951
H30_4 H 0.4928 0.8183 0.1558
C44_4 C 0.4346(7) 0.9901(10) 0.2845(7)
C45_4 C 0.6561(5) 0.8858(9) 0.1318(9)
H37_4 H 0.6717 0.9174 0.0968
H38_4 H 0.6697 0.9034 0.1765
H39_4 H 0.6781 0.8414 0.1249
C46_4 C 0.9835(10) 0.9007(10) 0.0177(12)
H40_4 H 0.9385 0.9206 0.0037
H41_4 H 0.9900 0.9058 0.0667
C47_4 C 0.8652(8) 0.8160(9) 0.0475(10)
H43_4 H 0.8601 0.7959 0.0924
H44_4 H 0.8717 0.8652 0.0519
H45_4 H 0.8230 0.8068 0.0201
H48_4 H 0.4736 0.9863 0.4282
C49_4 C 0.5412(12) 0.9333(11) 0.3241(17)
H49_4 H 0.5717 0.9423 0.2859
H50_4 H 0.5695 0.9305 0.3659
H51_4 H 0.5165 0.8902 0.3167
O22_4 O 0.3508(4) 0.8413(4) 0.1756(4)
C53_4 C 0.3430(11) 0.8035(11) 0.2317(15)
N6_4 N 0.3398(15) 0.7400(9) 0.2396(11)
C54_4 C 0.3844(14) 0.6981(15) 0.1959(16)
H58_4 H 0.3730 0.7077 0.1484
H59_4 H 0.4338 0.7087 0.2052
H60_4 H 0.3759 0.6499 0.2052
C55_4 C 0.3230(12) 0.8456(12) 0.2998(13)
H61_4 H 0.3518 0.8293 0.3380
H62_4 H 0.3320 0.8941 0.2928
H63_4 H 0.2734 0.8388 0.3095
C56_4 C 0.342(2) 0.6969(16) 0.3046(15)
H64_4 H 0.3255 0.6508 0.2943
H65_4 H 0.3898 0.6951 0.3228
H66_4 H 0.3111 0.7174 0.3382
C1_4 C 0.7559(12) 0.8290(10) 0.7850(12)
H1_4 H 0.7194 0.8382 0.8179
H2_4 H 0.7744 0.8720 0.7680
H3_4 H 0.7360 0.8026 0.7473
O2_4 O 0.8579(4) 0.6852(5) 0.8568(5)
O4_4 O 0.9672(3) 0.5966(4) 0.9244(3)
O11_4 O 0.7704(3) 0.6790(3) 0.9795(4)
O15_4 O 0.6775(3) 0.6046(3) 0.9795(4)
C6_4 C 0.4526(5) 0.7525(5) 0.9796(5)
C10_4 C 0.6303(5) 0.8443(5) 0.9503(6)
O21_4 O 0.9330(3) 0.7239(4) 0.9896(5)
C12_4 C 0.3507(4) 0.6749(4) 0.9956(5)
C13_4 C 0.6541(4) 0.7237(5) 0.9719(6)
C16_4 C 0.7067(6) 0.6633(5) 0.9779(6)
C17_4 C 0.5319(5) 0.7646(5) 0.9694(5)
C18_4 C 0.4063(5) 0.8062(5) 0.9932(5)
H7_4 H 0.4251 0.8508 0.9946
C23_4 C 0.5806(5) 0.7117(5) 0.9775(5)
H8_4 H 0.5644 0.6671 0.9868
C29_4 C 0.6789(5) 0.7900(5) 0.9605(6)
H11_4 H 0.7278 0.7986 0.9595
N2_4 N 0.9841(6) 0.8258(6) 0.9996(9)
C31_4 C 0.4218(5) 0.6853(5) 0.9822(6)
H13_4 H 0.4508 0.6469 0.9746
C32_4 C 0.5570(5) 0.8314(5) 0.9535(6)
H14_4 H 0.5246 0.8671 0.9452
C35_4 C 0.6595(5) 0.9160(5) 0.9373(6)
H25_4 H 0.9888 0.6435 0.8249
C50_4 C 0.7409(15) 0.6899(15) 0.8054(17)
H52_4 H 0.7408 0.6413 0.8161
H53_4 H 0.7039 0.7127 0.8305
H54_4 H 0.7325 0.6962 0.7568
C51_4 C 0.8199(14) 0.7237(13) 0.8276(15)
C52_4 C 0.8782(11) 0.8234(15) 0.8455(14)
H55_4 H 0.9172 0.8149 0.8151
H56_4 H 0.8701 0.8724 0.8489
H57_4 H 0.8897 0.8051 0.8904
N5_4 N 0.8136(9) 0.7896(9) 0.8182(10)
N1_3 N 0.9245(5) 0.3633(5) 0.1073(7)
C21_3 C 0.9672(8) 0.3912(6) 0.0653(8)
C38_3 C 0.9490(7) 0.1952(9) 0.0303(10)
H19_3 H 0.9507 0.1868 0.0791
H20_3 H 0.9105 0.1692 0.0096
H21_3 H 0.9414 0.2438 0.0220
C40_3 C 0.9630(8) 0.3393(7) 0.1743(7)
H26_3 H 0.9637 0.2895 0.1760
H27_3 H 0.9381 0.3569 0.2135
C42_3 C 0.8514(6) 0.3518(7) 0.1025(7)
H31_3 H 0.8330 0.3710 0.0601
H32_3 H 0.8284 0.3737 0.1407
H33_3 H 0.8421 0.3029 0.1035
H42_3 H 0.9784 0.0762 0.0055
N1_4 N 0.0755(5) 0.6367(5) 0.8927(7)
C21_4 C 0.0328(8) 0.6088(6) 0.9347(8)
C38_4 C 0.0510(7) 0.8048(9) 0.9697(10)
H19_4 H 0.0493 0.8132 0.9209
H20_4 H 0.0895 0.8308 0.9904
H21_4 H 0.0586 0.7562 0.9780
C40_4 C 0.0370(8) 0.6607(7) 0.8257(7)
H26_4 H 0.0363 0.7105 0.8240
H27_4 H 0.0619 0.6431 0.7865
C42_4 C 0.1486(6) 0.6482(7) 0.8975(7)
H31_4 H 0.1670 0.6290 0.9399
H32_4 H 0.1716 0.6263 0.8593
H33_4 H 0.1579 0.6971 0.8965
H42_4 H 0.0216 0.9238 0.9945
loop_
_geom_bond_atom_site_label_1
_geom_bond_atom_site_label_2
_geom_bond_site_symmetry_1
_geom_bond_site_symmetry_2
O1 C2 1_555 1_555
O3 C2 1_555 1_555
C2 C3 1_555 1_555
C3 C4 1_555 1_555
C4 H4 1_555 1_555
Fe6 O1 1_555 1_555
Fe10 O1 1_555 1_555
O3 Fe6 1_555 1_555
O12 C22 1_555 1_555
O16 C22 1_555 1_555
C14 H6 1_555 1_555
N1 C21 1_555 1_555
C21 C34 1_555 1_555
C22 C25 1_555 1_555
C25 C14 1_555 1_555
C34 H15 1_555 1_555
H16 C34 1_555 1_555
H17 C34 1_555 1_555
H18 C36 1_555 1_555
H19 C38 1_555 1_555
H20 C38 1_555 1_555
H21 C38 1_555 1_555
C40 N1 1_555 1_555
H26 C40 1_555 1_555
H27 C40 1_555 1_555
C42 N1 1_555 1_555
H31 C42 1_555 1_555
H32 C42 1_555 1_555
H33 C42 1_555 1_555
C14 C27 1_555 1_555
C25 C36 1_555 1_555
O6 C28 1_555 1_555
O7 C28 1_555 1_555
C28 C9 1_555 1_555
H12 C30 1_555 1_555
Fe7 O7 1_555 1_555
Fe11 O6 1_555 1_555
C9 C30 1_555 1_555
C1 H1 1_555 1_555
H2 C1 1_555 1_555
H3 C1 1_555 1_555
O2 Fe3 1_555 1_555
Fe1 O5 1_555 1_555
Fe2 O8 1_555 1_555
Fe3 O4 1_555 1_555
Fe4 O8 1_555 1_555
O5 C15 1_555 1_555
O8 C5 1_555 1_555
O9 Fe2 1_555 1_555
O10 Fe4 1_555 1_555
O11 Fe3 1_555 1_555
O13 C35 1_555 1_555
O14 C33 1_555 1_555
O15 Fe1 1_555 1_555
O17 C35 1_555 1_555
O18 Fe3 1_555 1_555
O19 C33 1_555 1_555
C5 O9 1_555 1_555
O20 Fe4 1_555 1_555
C6 C17 1_555 1_555
C7 C11 1_555 1_555
C8 C24 1_555 1_555
C10 C29 1_555 1_555
O21 Fe3 1_555 1_555
C11 H5 1_555 1_555
C12 C26 1_555 1_555
C13 C16 1_555 1_555
C15 O18 1_555 1_555
C16 O11 1_555 1_555
C17 C23 1_555 1_555
C18 C6 1_555 1_555
H7 C18 1_555 1_555
C19 O10 1_555 1_555
C20 C5 1_555 1_555
C23 C13 1_555 1_555
H8 C23 1_555 1_555
C24 C7 1_555 1_555
H9 C24 1_555 1_555
C26 C20 1_555 1_555
H10 C26 1_555 1_555
C29 C13 1_555 1_555
H11 C29 1_555 1_555
N2 C37 1_555 1_555
C31 C6 1_555 1_555
H13 C31 1_555 1_555
C32 C10 1_555 1_555
H14 C32 1_555 1_555
C33 C12 1_555 1_555
N3 C44 1_555 1_555
C35 C10 1_555 1_555
N4 C19 1_555 1_555
C37 O21 1_555 1_555
C39 C19 1_555 1_555
H22 C39 1_555 1_555
H23 C39 1_555 1_555
H24 C39 1_555 1_555
C41 N4 1_555 1_555
H28 C41 1_555 1_555
H29 C41 1_555 1_555
H30 C41 1_555 1_555
C43 H34 1_555 1_555
H35 C43 1_555 1_555
H36 C43 1_555 1_555
C44 O20 1_555 1_555
C45 N4 1_555 1_555
H37 C45 1_555 1_555
H38 C45 1_555 1_555
H39 C45 1_555 1_555
C46 N2 1_555 1_555
H40 C46 1_555 1_555
H41 C46 1_555 1_555
C47 C37 1_555 1_555
H43 C47 1_555 1_555
H44 C47 1_555 1_555
H45 C47 1_555 1_555
C48 N3 1_555 1_555
H46 C48 1_555 1_555
H47 C48 1_555 1_555
H48 C48 1_555 1_555
C49 N3 1_555 1_555
H49 C49 1_555 1_555
H50 C49 1_555 1_555
H51 C49 1_555 1_555
C50 H52 1_555 1_555
H53 C50 1_555 1_555
H54 C50 1_555 1_555
C51 O2 1_555 1_555
C52 H55 1_555 1_555
H56 C52 1_555 1_555
H57 C52 1_555 1_555
N5 C1 1_555 1_555
O22 Fe4 1_555 1_555
C53 O22 1_555 1_555
N6 C53 1_555 1_555
C54 N6 1_555 1_555
H58 C54 1_555 1_555
H59 C54 1_555 1_555
H60 C54 1_555 1_555
C55 C53 1_555 1_555
H61 C55 1_555 1_555
H62 C55 1_555 1_555
H63 C55 1_555 1_555
C56 N6 1_555 1_555
H64 C56 1_555 1_555
H65 C56 1_555 1_555
H66 C56 1_555 1_555
O23 Fe1 1_555 1_555
O24 Fe1 1_555 1_555
Fe8 O13 1_555 1_555
Fe12 O17 1_555 1_555
O25 Fe4 1_555 1_555
O26 Fe2 1_555 1_555
O27 Fe2 1_555 1_555
O28 Fe2 1_555 1_555
O30 Fe2 1_555 1_555
O31 Fe4 1_555 1_555
Fe3 O23 1_555 1_555
O15 C16 1_555 1_555
C7 C15 1_555 1_555
C12 C31 1_555 1_555
C17 C32 1_555 1_555
C18 C20 1_555 1_555
C43 C44 1_555 1_555
C50 C51 1_555 1_555
C51 N5 1_555 1_555
C52 N5 1_555 1_555
C1_2 H1_2 1_555 1_555
H2_2 C1_2 1_555 1_555
H3_2 C1_2 1_555 1_555
O2_2 Fe3_2 1_555 1_555
Fe3_2 O4_2 1_555 1_555
O11_2 Fe3_2 1_555 1_555
O13_2 C35_2 1_555 1_555
O15_2 Fe1_2 1_555 1_555
O17_2 C35_2 1_555 1_555
C6_2 C17_2 1_555 1_555
C10_2 C29_2 1_555 1_555
O21_2 Fe3_2 1_555 1_555
C13_2 C16_2 1_555 1_555
C16_2 O11_2 1_555 1_555
C17_2 C23_2 1_555 1_555
C18_2 C6_2 1_555 1_555
H7_2 C18_2 1_555 1_555
C23_2 C13_2 1_555 1_555
H8_2 C23_2 1_555 1_555
C29_2 C13_2 1_555 1_555
H11_2 C29_2 1_555 1_555
C31_2 C6_2 1_555 1_555
H13_2 C31_2 1_555 1_555
C32_2 C10_2 1_555 1_555
H14_2 C32_2 1_555 1_555
C35_2 C10_2 1_555 1_555
C50_2 H52_2 1_555 1_555
H53_2 C50_2 1_555 1_555
H54_2 C50_2 1_555 1_555
C51_2 O2_2 1_555 1_555
C52_2 H55_2 1_555 1_555
H56_2 C52_2 1_555 1_555
H57_2 C52_2 1_555 1_555
N5_2 C1_2 1_555 1_555
O23_2 Fe1_2 1_555 1_555
O24_2 Fe1_2 1_555 1_555
O29_2 Fe1_2 1_555 1_555
Fe3_2 O23_2 1_555 1_555
O15_2 C16_2 1_555 1_555
C12_2 C31_2 1_555 1_555
C17_2 C32_2 1_555 1_555
C50_2 C51_2 1_555 1_555
C51_2 N5_2 1_555 1_555
C52_2 N5_2 1_555 1_555
Fe7 O8_2 1_555 1_555
Fe11 O8_2 1_555 1_555
O5_2 C15_2 1_555 1_555
O25 C28_2 1_555 1_555
O26 C28_2 1_555 1_555
O8_2 C5_2 1_555 1_555
O9_2 Fe7 1_555 1_555
O10_2 Fe11 1_555 1_555
O14_2 C33_2 1_555 1_555
C5_2 O9_2 1_555 1_555
O20_2 Fe11 1_555 1_555
C7_2 C11_2 1_555 1_555
C8_2 C24_2 1_555 1_555
C9_2 C11_2 1_555 1_555
C11_2 H5_2 1_555 1_555
C15_2 O18_2 1_555 1_555
C19_2 O10_2 1_555 1_555
C20_2 C5_2 1_555 1_555
C24_2 C7_2 1_555 1_555
H9_2 C24_2 1_555 1_555
C26_2 C20_2 1_555 1_555
H10_2 C26_2 1_555 1_555
C28_2 C9_2 1_555 1_555
C30_2 C8_2 1_555 1_555
H12_2 C30_2 1_555 1_555
N3_2 C44_2 1_555 1_555
N4_2 C19_2 1_555 1_555
C39_2 C19_2 1_555 1_555
H23_2 C39_2 1_555 1_555
C41_2 N4_2 1_555 1_555
H28_2 C41_2 1_555 1_555
H29_2 C41_2 1_555 1_555
H30_2 C41_2 1_555 1_555
C44_2 O20_2 1_555 1_555
C45_2 N4_2 1_555 1_555
H37_2 C45_2 1_555 1_555
H38_2 C45_2 1_555 1_555
H39_2 C45_2 1_555 1_555
H40_2 C46_2 1_555 1_555
H41_2 C46_2 1_555 1_555
C47_2 C37_2 1_555 1_555
H43_2 C47_2 1_555 1_555
H44_2 C47_2 1_555 1_555
H45_2 C47_2 1_555 1_555
C49_2 N3_2 1_555 1_555
H49_2 C49_2 1_555 1_555
H50_2 C49_2 1_555 1_555
H51_2 C49_2 1_555 1_555
O22_2 Fe11 1_555 1_555
C53_2 O22_2 1_555 1_555
N6_2 C53_2 1_555 1_555
C54_2 N6_2 1_555 1_555
H58_2 C54_2 1_555 1_555
H59_2 C54_2 1_555 1_555
H60_2 C54_2 1_555 1_555
C55_2 C53_2 1_555 1_555
H61_2 C55_2 1_555 1_555
H62_2 C55_2 1_555 1_555
H63_2 C55_2 1_555 1_555
C56_2 N6_2 1_555 1_555
H64_2 C56_2 1_555 1_555
H65_2 C56_2 1_555 1_555
H66_2 C56_2 1_555 1_555
Fe5 O14_2 1_555 1_555
C7_2 C15_2 1_555 1_555
C9_2 C30_2 1_555 1_555
C43_2 H34_2 1_555 1_555
H35_2 C43_2 1_555 1_555
H36_2 C43_2 1_555 1_555
H46_2 C48_2 1_555 1_555
H47_2 C48_2 1_555 1_555
O1_2 C2_2 1_555 1_555
O3_2 C2_2 1_555 1_555
C2_2 C3_2 1_555 1_555
C3_2 C4_2 1_555 1_555
C4_2 H4_2 1_555 1_555
O12_2 C22_2 1_555 1_555
O16_2 C22_2 1_555 1_555
C14_2 H6_2 1_555 1_555
C22_2 C25_2 1_555 1_555
C25_2 C14_2 1_555 1_555
C27_2 C4_2 1_555 1_555
C34_2 H15_2 1_555 1_555
H16_2 C34_2 1_555 1_555
H17_2 C34_2 1_555 1_555
C36_2 C3_2 1_555 1_555
H18_2 C36_2 1_555 1_555
Fe5 O1_2 1_555 1_555
Fe8 O12_2 1_555 1_555
Fe10_2 O1_2 1_555 1_555
O3_2 Fe5 1_555 1_555
O16_2 Fe8 1_555 1_555
C14_2 C27_2 1_555 1_555
C25_2 C36_2 1_555 1_555
C1_3 H1_3 1_555 1_555
H2_3 C1_3 1_555 1_555
H3_3 C1_3 1_555 1_555
O2_3 Fe10 1_555 1_555
Fe6 O5_3 1_555 1_555
Fe8 O8_3 1_555 1_555
Fe10 O4_3 1_555 1_555
Fe12 O8_3 1_555 1_555
O5_3 C15_3 1_555 1_555
O8_3 C5_3 1_555 1_555
O9_3 Fe8 1_555 1_555
O10_3 Fe12 1_555 1_555
O11_3 Fe10 1_555 1_555
O28 C35_3 1_555 1_555
O29 C33_3 1_555 1_555
O15_3 Fe6 1_555 1_555
O31 C35_3 1_555 1_555
O18_3 Fe10 1_555 1_555
O32 C33_3 1_555 1_555
C5_3 O9_3 1_555 1_555
O20_3 Fe12 1_555 1_555
C6_3 C17_3 1_555 1_555
C7_3 C11_3 1_555 1_555
C8_3 C24_3 1_555 1_555
C10_3 C29_3 1_555 1_555
O21_3 Fe10 1_555 1_555
C11_3 H5_3 1_555 1_555
C12_3 C26_3 1_555 1_555
C13_3 C16_3 1_555 1_555
C15_3 O18_3 1_555 1_555
C16_3 O11_3 1_555 1_555
C17_3 C23_3 1_555 1_555
C18_3 C6_3 1_555 1_555
H7_3 C18_3 1_555 1_555
C19_3 O10_3 1_555 1_555
C20_3 C5_3 1_555 1_555
C23_3 C13_3 1_555 1_555
H8_3 C23_3 1_555 1_555
C24_3 C7_3 1_555 1_555
H9_3 C24_3 1_555 1_555
C26_3 C20_3 1_555 1_555
H10_3 C26_3 1_555 1_555
C29_3 C13_3 1_555 1_555
H11_3 C29_3 1_555 1_555
N2_3 C37_3 1_555 1_555
C31_3 C6_3 1_555 1_555
H13_3 C31_3 1_555 1_555
C32_3 C10_3 1_555 1_555
H14_3 C32_3 1_555 1_555
C33_3 C12_3 1_555 1_555
N3_3 C44_3 1_555 1_555
C35_3 C10_3 1_555 1_555
N4_3 C19_3 1_555 1_555
C37_3 O21_3 1_555 1_555
C39_3 C19_3 1_555 1_555
H22_3 C39_3 1_555 1_555
H23_3 C39_3 1_555 1_555
H24_3 C39_3 1_555 1_555
C41_3 N4_3 1_555 1_555
H28_3 C41_3 1_555 1_555
H29_3 C41_3 1_555 1_555
H30_3 C41_3 1_555 1_555
C43_3 H34_3 1_555 1_555
H35_3 C43_3 1_555 1_555
H36_3 C43_3 1_555 1_555
C44_3 O20_3 1_555 1_555
C45_3 N4_3 1_555 1_555
H37_3 C45_3 1_555 1_555
H38_3 C45_3 1_555 1_555
H39_3 C45_3 1_555 1_555
C46_3 N2_3 1_555 1_555
H40_3 C46_3 1_555 1_555
H41_3 C46_3 1_555 1_555
C47_3 C37_3 1_555 1_555
H43_3 C47_3 1_555 1_555
H44_3 C47_3 1_555 1_555
H45_3 C47_3 1_555 1_555
C48_3 N3_3 1_555 1_555
H46_3 C48_3 1_555 1_555
H47_3 C48_3 1_555 1_555
H48_3 C48_3 1_555 1_555
C49_3 N3_3 1_555 1_555
H49_3 C49_3 1_555 1_555
H50_3 C49_3 1_555 1_555
H51_3 C49_3 1_555 1_555
C50_3 H52_3 1_555 1_555
H53_3 C50_3 1_555 1_555
H54_3 C50_3 1_555 1_555
C51_3 O2_3 1_555 1_555
C52_3 H55_3 1_555 1_555
H56_3 C52_3 1_555 1_555
H57_3 C52_3 1_555 1_555
N5_3 C1_3 1_555 1_555
O22_3 Fe12 1_555 1_555
C53_3 O22_3 1_555 1_555
N6_3 C53_3 1_555 1_555
C54_3 N6_3 1_555 1_555
H58_3 C54_3 1_555 1_555
H59_3 C54_3 1_555 1_555
H60_3 C54_3 1_555 1_555
C55_3 C53_3 1_555 1_555
H61_3 C55_3 1_555 1_555
H62_3 C55_3 1_555 1_555
H63_3 C55_3 1_555 1_555
C56_3 N6_3 1_555 1_555
H64_3 C56_3 1_555 1_555
H65_3 C56_3 1_555 1_555
H66_3 C56_3 1_555 1_555
O25_2 Fe12 1_555 1_555
O26_2 Fe8 1_555 1_555
O15_3 C16_3 1_555 1_555
C7_3 C15_3 1_555 1_555
C12_3 C31_3 1_555 1_555
C17_3 C32_3 1_555 1_555
C18_3 C20_3 1_555 1_555
C43_3 C44_3 1_555 1_555
C50_3 C51_3 1_555 1_555
C51_3 N5_3 1_555 1_555
C52_3 N5_3 1_555 1_555
O6_2 C28_3 1_555 1_555
O7_2 C28_3 1_555 1_555
C28_3 C9_3 1_555 1_555
H12_3 C30_3 1_555 1_555
Fe9 O7_2 1_555 1_555
Fe12_2 O6_2 1_555 1_555
C9_3 C30_3 1_555 1_555
O27_2 C22_3 1_555 1_555
O30_2 C22_3 1_555 1_555
C14_3 H6_3 1_555 1_555
N1_2 C21_2 1_555 1_555
C21_2 C34_3 1_555 1_555
C22_3 C25_3 1_555 1_555
C25_3 C14_3 1_555 1_555
C34_3 H15_3 1_555 1_555
H16_3 C34_3 1_555 1_555
H17_3 C34_3 1_555 1_555
H18_3 C36_3 1_555 1_555
H19_2 C38_2 1_555 1_555
H20_2 C38_2 1_555 1_555
H21_2 C38_2 1_555 1_555
C40_2 N1_2 1_555 1_555
H26_2 C40_2 1_555 1_555
H27_2 C40_2 1_555 1_555
C42_2 N1_2 1_555 1_555
H31_2 C42_2 1_555 1_555
H32_2 C42_2 1_555 1_555
H33_2 C42_2 1_555 1_555
C14_3 C27_3 1_555 1_555
C25_3 C36_3 1_555 1_555
O23 C2_3 1_555 1_555
O24 C2_3 1_555 1_555
C2_3 C3_3 1_555 1_555
C3_3 C4_3 1_555 1_555
C4_3 H4_3 1_555 1_555
O23_2 C2_4 1_555 1_555
O24_2 C2_4 1_555 1_555
C2_4 C3_4 1_555 1_555
C3_4 C4_4 1_555 1_555
C4_4 H4_4 1_555 1_555
O27 C22_4 1_555 1_555
O30 C22_4 1_555 1_555
C14_4 H6_4 1_555 1_555
C22_4 C25_4 1_555 1_555
C25_4 C14_4 1_555 1_555
C27_4 C4_4 1_555 1_555
C34_4 H15_4 1_555 1_555
H16_4 C34_4 1_555 1_555
H17_4 C34_4 1_555 1_555
C36_4 C3_4 1_555 1_555
H18_4 C36_4 1_555 1_555
C14_4 C27_4 1_555 1_555
C25_4 C36_4 1_555 1_555
C43_4 H34_4 1_555 1_555
H35_4 C43_4 1_555 1_555
H36_4 C43_4 1_555 1_555
H46_4 C48_4 1_555 1_555
H47_4 C48_4 1_555 1_555
Fe9 O8_4 1_555 1_555
Fe12_2 O8_4 1_555 1_555
O5_4 C15_4 1_555 1_555
O25_2 C28_4 1_555 1_555
O26_2 C28_4 1_555 1_555
O8_4 C5_4 1_555 1_555
O9_4 Fe9 1_555 1_555
O10_4 Fe12_2 1_555 1_555
O29_2 C33_4 1_555 1_555
C5_4 O9_4 1_555 1_555
O20_4 Fe12_2 1_555 1_555
C7_4 C11_4 1_555 1_555
C8_4 C24_4 1_555 1_555
C9_4 C11_4 1_555 1_555
C11_4 H5_4 1_555 1_555
C15_4 O18_4 1_555 1_555
C19_4 O10_4 1_555 1_555
C20_4 C5_4 1_555 1_555
C24_4 C7_4 1_555 1_555
H9_4 C24_4 1_555 1_555
C26_4 C20_4 1_555 1_555
H10_4 C26_4 1_555 1_555
C28_4 C9_4 1_555 1_555
C30_4 C8_4 1_555 1_555
H12_4 C30_4 1_555 1_555
N3_4 C44_4 1_555 1_555
N4_4 C19_4 1_555 1_555
C39_4 C19_4 1_555 1_555
H23_4 C39_4 1_555 1_555
C41_4 N4_4 1_555 1_555
H28_4 C41_4 1_555 1_555
H29_4 C41_4 1_555 1_555
H30_4 C41_4 1_555 1_555
C44_4 O20_4 1_555 1_555
C45_4 N4_4 1_555 1_555
H37_4 C45_4 1_555 1_555
H38_4 C45_4 1_555 1_555
H39_4 C45_4 1_555 1_555
H40_4 C46_4 1_555 1_555
H41_4 C46_4 1_555 1_555
C47_4 C37_4 1_555 1_555
H43_4 C47_4 1_555 1_555
H44_4 C47_4 1_555 1_555
H45_4 C47_4 1_555 1_555
C49_4 N3_4 1_555 1_555
H49_4 C49_4 1_555 1_555
H50_4 C49_4 1_555 1_555
H51_4 C49_4 1_555 1_555
O22_4 Fe12_2 1_555 1_555
C53_4 O22_4 1_555 1_555
N6_4 C53_4 1_555 1_555
C54_4 N6_4 1_555 1_555
H58_4 C54_4 1_555 1_555
H59_4 C54_4 1_555 1_555
H60_4 C54_4 1_555 1_555
C55_4 C53_4 1_555 1_555
H61_4 C55_4 1_555 1_555
H62_4 C55_4 1_555 1_555
H63_4 C55_4 1_555 1_555
C56_4 N6_4 1_555 1_555
H64_4 C56_4 1_555 1_555
H65_4 C56_4 1_555 1_555
H66_4 C56_4 1_555 1_555
C7_4 C15_4 1_555 1_555
C9_4 C30_4 1_555 1_555
C1_4 H1_4 1_555 1_555
H2_4 C1_4 1_555 1_555
H3_4 C1_4 1_555 1_555
O2_4 Fe10_2 1_555 1_555
Fe10_2 O4_4 1_555 1_555
O11_4 Fe10_2 1_555 1_555
O28_2 C35_4 1_555 1_555
O15_4 Fe5 1_555 1_555
O31_2 C35_4 1_555 1_555
C6_4 C17_4 1_555 1_555
C10_4 C29_4 1_555 1_555
O21_4 Fe10_2 1_555 1_555
C13_4 C16_4 1_555 1_555
C16_4 O11_4 1_555 1_555
C17_4 C23_4 1_555 1_555
C18_4 C6_4 1_555 1_555
H7_4 C18_4 1_555 1_555
C23_4 C13_4 1_555 1_555
H8_4 C23_4 1_555 1_555
C29_4 C13_4 1_555 1_555
H11_4 C29_4 1_555 1_555
C31_4 C6_4 1_555 1_555
H13_4 C31_4 1_555 1_555
C32_4 C10_4 1_555 1_555
H14_4 C32_4 1_555 1_555
C35_4 C10_4 1_555 1_555
C50_4 H52_4 1_555 1_555
H53_4 C50_4 1_555 1_555
H54_4 C50_4 1_555 1_555
C51_4 O2_4 1_555 1_555
C52_4 H55_4 1_555 1_555
H56_4 C52_4 1_555 1_555
H57_4 C52_4 1_555 1_555
N5_4 C1_4 1_555 1_555
O15_4 C16_4 1_555 1_555
C12_4 C31_4 1_555 1_555
C17_4 C32_4 1_555 1_555
C50_4 C51_4 1_555 1_555
C51_4 N5_4 1_555 1_555
C52_4 N5_4 1_555 1_555
N1_3 C21_3 1_555 1_555
H19_3 C38_3 1_555 1_555
H20_3 C38_3 1_555 1_555
H21_3 C38_3 1_555 1_555
C40_3 N1_3 1_555 1_555
H26_3 C40_3 1_555 1_555
H27_3 C40_3 1_555 1_555
C42_3 N1_3 1_555 1_555
H31_3 C42_3 1_555 1_555
H32_3 C42_3 1_555 1_555
H33_3 C42_3 1_555 1_555
N1_4 C21_4 1_555 1_555
H19_4 C38_4 1_555 1_555
H20_4 C38_4 1_555 1_555
H21_4 C38_4 1_555 1_555
C40_4 N1_4 1_555 1_555
H26_4 C40_4 1_555 1_555
H27_4 C40_4 1_555 1_555
C42_4 N1_4 1_555 1_555
H31_4 C42_4 1_555 1_555
H32_4 C42_4 1_555 1_555
H33_4 C42_4 1_555 1_555

#END
