
###############################################################################
#
# This file contains modified crystal structure data generated from the
# MOF subset of the Cambridge Structural Database (CSD) v543 
# hosted by the Cambridge Crystallographic Data Centre (CCDC).
#
# This work is licensed under the Creative Commons
# Attribution-NonCommercial-ShareAlike 4.0 International License.
# To view a copy of this license, visit
# http://creativecommons.org/licenses/by-nc-sa/4.0/
# or send a letter to
# Creative Commons, PO Box 1866, Mountain View, CA 94042, USA.
#
# CIF created using the CSD Python API on 29 September 2022
# The structure has been converted into the P1 space group
# The structure has a 3D framework
# The original CSD entry SAKCIT is in the monoclinic crystal system
# The original CSD entry SAKCIT is in a Sohncke space group
# The framework has been calculated to contain at least 10.0% void space
# The void calculation uses a probe of radius 1.32A, grid spacing 0.4
#
###############################################################################

data_SAKCIT
_chemical_formula_moiety         '(C160 H144 Co8 N32 O32)n'
_symmetry_cell_setting           triclinic
_symmetry_space_group_name_H-M   'P 1'
_symmetry_Int_Tables_number      1
_space_group_name_Hall           'P 1'
loop_
_symmetry_equiv_pos_site_id
_symmetry_equiv_pos_as_xyz
1 x,y,z
_cell_length_a                   15.5117(18)
_cell_length_b                   13.9926(15)
_cell_length_c                   21.434(2)
_cell_angle_alpha                90
_cell_angle_beta                 92.104(5)
_cell_angle_gamma                90
_cell_volume                     4649.09
loop_
_atom_site_label
_atom_site_type_symbol
_atom_site_fract_x
_atom_site_fract_y
_atom_site_fract_z
C4 C 0.1058(9) 0.1734(10) 0.0929(6)
C44 C 0.1608(11) 0.1375(12) 0.3760(8)
H28 H 0.1483 0.2010 0.3664
C49 C 0.1661(8) 0.0690(10) 0.3206(6)
C53 C 0.1477(14) 0.1692(16) 0.5383(10)
H37 H 0.1437 0.1047 0.5483
C59 C 0.1715(15) 0.1181(18) 0.4328(11)
H44 H 0.1906 0.0576 0.4449
C71 C 0.1459(10) 0.2380(11) 0.5930(7)
C74 C 0.1543(16) 0.1886(19) 0.4792(11)
H66 H 0.1475 0.2518 0.4664
N10 N 0.0004(6) 0.0430(7) 0.1860(5)
C79 C 0.1042(8) 0.2443(9) 0.0411(6)
H71 H 0.0884 0.3068 0.0499
O7 O 0.1459(8) 0.3284(8) 0.5799(5)
O8 O 0.1459(7) 0.2077(8) 0.6453(5)
O9 O 0.1152(7) 0.0864(7) 0.0820(4)
O10 O 0.1052(5) 0.2055(7) 0.1498(4)
O12 O 0.1299(6) 0.0967(7) 0.2726(4)
Co3 Co 0.12742(11) 0.05900(12) 0.18231(8)
N19 N 0.2667(7) 0.0818(7) 0.1789(5)
Co9 Co 0.15988(11) 0.35158(14) 0.68191(8)
C2 C 0.1239(8) 0.2899(10) 0.9340(6)
H2 H 0.1044 0.3515 0.9417
C20 C 0.1504(9) 0.2695(10) 0.8766(6)
H11 H 0.1718 0.2083 0.8702
C50 C 0.1486(8) 0.3352(9) 0.8227(6)
C80 C 0.1241(8) 0.2234(10) 0.9829(6)
H72 H 0.1391 0.1607 0.9741
O4 O 0.1225(6) 0.4206(7) 0.8329(4)
O6 O 0.1724(6) 0.3054(7) 0.7709(5)
Co6 Co 0.10772(11) 0.55841(13) 0.81757(8)
H5 H 0.0172 0.8035 0.2348
C9 C 0.1268(9) 0.7215(10) 0.0163(6)
H6 H 0.1464 0.6595 0.0234
C26 C 0.1308(8) 0.7886(9) 0.0672(6)
H15 H 0.1089 0.8498 0.0604
C30 C 0.1663(9) 0.8364(10) 0.1771(6)
C31 C 0.0177(9) 0.9140(10) 0.3625(6)
H18 H 0.0480 0.9487 0.3931
C33 C 0.1644(10) 0.7673(11) 0.1237(7)
H20 H 0.1878 0.7067 0.1303
N13 N 0.0826(7) 0.8571(8) 0.3189(5)
O11 O 0.1402(6) 0.9203(7) 0.1665(4)
O13 O 0.2104(7) 0.9943(7) 0.3292(5)
O14 O 0.1948(6) 0.8074(6) 0.2287(4)
Co4 Co 0.19057(11) 0.85038(13) 0.31861(8)
N20 N 0.3293(8) 0.8292(9) 0.3237(5)
O21 O 0.1759(7) 0.7073(8) 0.3546(5)
O22 O 0.1842(8) 0.8294(8) 0.4213(5)
C1 C 0.0961(8) 0.7446(9) 0.9595(6)
H1 H 0.0755 0.8061 0.9520
H10 H 0.0022 0.2994 0.7585
C17 C 0.0944(8) 0.6735(9) 0.9080(6)
C27 C 0.1252(10) 0.6406(11) 0.6271(7)
H16 H 0.0996 0.6997 0.6336
H27 H 0.0202 0.4480 0.6061
C45 C 0.1785(10) 0.7393(12) 0.4112(7)
C46 C 0.1836(14) 0.6721(16) 0.4629(10)
H29 H 0.2073 0.6123 0.4556
C54 C 0.1362(8) 0.5706(10) 0.6793(6)
C57 C 0.1534(14) 0.6165(16) 0.5696(9)
H42 H 0.1704 0.5540 0.5618
C64 C 0.1572(14) 0.6900(16) 0.5189(10)
H53 H 0.1397 0.7519 0.5278
N6 N 0.0210(8) 0.3690(9) 0.6849(5)
O1 O 0.0903(6) 0.7040(7) 0.8520(4)
O2 O 0.1052(6) 0.5848(6) 0.9183(4)
O3 O 0.1015(6) 0.5969(7) 0.7290(4)
O5 O 0.1810(7) 0.4939(7) 0.6734(5)
N17 N 0.2385(7) 0.5786(7) 0.8186(5)
N18 N 0.2727(7) 0.3424(9) 0.6794(5)
C3 C 0.7141(9) 0.0100(10) 0.1743(6)
C12 C 0.8512(8) 0.0753(9) 0.2255(6)
H8 H 0.8177 0.1066 0.2543
C13 C 0.4438(9) 0.1129(10) 0.1761(6)
C37 C 0.9408(9) 0.0816(10) 0.2271(7)
H24 H 0.9650 0.1165 0.2603
C42 C 0.5401(10) 0.1299(11) 0.1780(7)
H34 H 0.7938 0.0169 0.3809
H35 H 0.7099 0.0191 0.3379
C60 C 0.5745(12) 0.2192(13) 0.1558(9)
H45 H 0.5279 0.2620 0.1451
H46 H 0.6109 0.2473 0.1879
H47 H 0.6076 0.2075 0.1195
C66 C 0.4088(12) 0.0223(14) 0.1926(9)
C67 C 0.3011(13) 0.1678(15) 0.1820(9)
H56 H 0.2658 0.2195 0.1907
C68 C 0.3869(14) 0.1843(17) 0.1729(10)
H57 H 0.4056 0.2460 0.1644
C69 C 0.3239(11) 0.0160(12) 0.1909(8)
N11 N 0.5854(7) 0.0570(10) 0.1961(5)
N12 N 0.6749(9) 0.0685(11) 0.2037(7)
C77 C 0.8135(9) 0.0161(10) 0.1755(7)
C6 C 0.9311(8) 0.9257(10) 0.3673(6)
H4 H 0.9104 0.9575 0.4018
C7 C 0.8739(10) 0.8917(11) 0.3227(7)
C8 C 0.9996(8) 0.8299(8) 0.2721(5)
C10 C 0.5086(10) 0.7949(11) 0.3257(7)
C14 C 0.5999(11) 0.7806(12) 0.3250(8)
C15 C 0.3599(10) 0.7379(11) 0.3247(7)
H9 H 0.3226 0.6859 0.3245
C25 C 0.8612(9) 0.9723(10) 0.1401(6)
H14 H 0.8366 0.9325 0.1096
C28 C 0.7792(9) 0.8985(10) 0.3279(6)
C34 C 0.9526(10) 0.9812(11) 0.1449(7)
H21 H 0.9842 0.9429 0.1186
C36 C 0.4505(9) 0.7249(10) 0.3261(7)
H23 H 0.4711 0.6625 0.3273
C52 C 0.7462(12) 0.9797(13) 0.3645(8)
H36 H 0.7135 0.9558 0.3982
C55 C 0.6460(14) 0.6940(15) 0.3521(10)
H38 H 0.6043 0.6489 0.3662
H39 H 0.6797 0.6649 0.3206
H40 H 0.6831 0.7132 0.3866
C56 C 0.4734(14) 0.8884(16) 0.3296(10)
H41 H 0.5092 0.9417 0.3300
C61 C 0.3805(13) 0.8992(14) 0.3331(9)
H48 H 0.3578 0.9589 0.3423
H55 H 0.4439 0.9707 0.2040
H58 H 0.3019 0.9558 0.1996
C75 C 0.6734(17) 0.9315(19) 0.1337(11)
H67 H 0.7180 0.8945 0.1153
H68 H 0.6392 0.8907 0.1590
H69 H 0.6374 0.9597 0.1013
N15 N 0.6456(7) 0.8462(10) 0.3045(5)
N16 N 0.7323(9) 0.8356(10) 0.2999(6)
C76 C 0.9116(8) 0.8357(9) 0.2735(5)
H70 H 0.8768 0.8046 0.2437
C5 C 0.8502(9) 0.4715(10) 0.8588(6)
H3 H 0.8284 0.4325 0.8897
C11 C 0.8290(9) 0.5749(10) 0.7749(6)
H7 H 0.7940 0.6085 0.7464
C16 C 0.9747(7) 0.3322(8) 0.7256(5)
C18 C 0.6971(11) 0.5112(12) 0.8260(8)
C19 C 0.5217(10) 0.6300(11) 0.8222(7)
C21 C 0.4221(11) 0.2249(12) 0.6777(7)
H12 H 0.4429 0.1626 0.6782
C22 C 0.5712(10) 0.2837(11) 0.6774(7)
C23 C 0.4751(11) 0.2946(13) 0.6770(8)
C24 C 0.3330(11) 0.2411(12) 0.6777(7)
H13 H 0.3004 0.1853 0.6765
C29 C 0.8846(9) 0.3375(10) 0.7247(6)
H17 H 0.8542 0.3068 0.7555
C32 C 0.3670(14) 0.6843(17) 0.8204(10)
H19 H 0.3851 0.7473 0.8162
C35 C 0.9376(8) 0.4794(9) 0.8560(6)
H22 H 0.9737 0.4449 0.8833
C38 C 0.8986(9) 0.4308(11) 0.6315(7)
H25 H 0.8734 0.4655 0.5986
C39 C 0.9175(9) 0.5798(10) 0.7751(7)
H26 H 0.9410 0.6177 0.7444
C40 C 0.9854(8) 0.4207(9) 0.6357(6)
C41 C 0.7494(10) 0.3956(10) 0.6751(7)
C43 C 0.4251(10) 0.6137(11) 0.8252(7)
C47 C 0.8420(8) 0.3862(8) 0.6797(5)
C48 C 0.7104(12) 0.4835(13) 0.6356(8)
H30 H 0.7566 0.5195 0.6185
H31 H 0.6733 0.4598 0.6023
H32 H 0.6780 0.5239 0.6623
C51 C 0.4433(12) 0.3891(13) 0.6716(8)
H33 H 0.4796 0.4417 0.6689
C58 C 0.3547(14) 0.3981(16) 0.6706(10)
H43 H 0.3404 0.4611 0.6610
C62 C 0.5591(13) 0.7260(14) 0.8403(9)
H49 H 0.5141 0.7665 0.8550
H50 H 0.6026 0.7177 0.8729
H51 H 0.5842 0.7549 0.8047
C63 C 0.2978(11) 0.5150(12) 0.8055(8)
H52 H 0.2764 0.4553 0.7938
C65 C 0.3905(12) 0.5232(13) 0.8063(9)
H54 H 0.4257 0.4726 0.7952
C70 C 0.2797(15) 0.6631(17) 0.8215(10)
H59 H 0.2438 0.7160 0.8249
C72 C 0.6620(16) 0.4339(18) 0.8655(11)
H60 H 0.7088 0.3989 0.8851
H61 H 0.6272 0.4615 0.8969
H62 H 0.6273 0.3914 0.8399
C73 C 0.6099(14) 0.1854(15) 0.6581(10)
H63 H 0.5644 0.1444 0.6426
H64 H 0.6507 0.1953 0.6261
H65 H 0.6384 0.1563 0.6938
N2 N 0.9713(7) 0.5380(8) 0.8129(5)
N3 N 0.6552(8) 0.5693(10) 0.7945(6)
N4 N 0.5649(8) 0.5583(10) 0.8004(5)
N7 N 0.7047(7) 0.3386(9) 0.7017(5)
N8 N 0.6159(9) 0.3453(11) 0.6979(6)
C78 C 0.7948(9) 0.5152(10) 0.8209(6)
C3_2 C 0.2859(9) 0.0100(10) 0.8257(6)
C12_2 C 0.1488(8) 0.0753(9) 0.7745(6)
H8_2 H 0.1823 0.1066 0.7457
C13_2 C 0.5562(9) 0.1129(10) 0.8239(6)
C37_2 C 0.0592(9) 0.0816(10) 0.7729(7)
H24_2 H 0.0350 0.1165 0.7397
C42_2 C 0.4599(10) 0.1299(11) 0.8220(7)
H34_2 H 0.2062 0.0169 0.6191
H35_2 H 0.2901 0.0191 0.6621
C60_2 C 0.4255(12) 0.2192(13) 0.8442(9)
H45_2 H 0.4721 0.2620 0.8549
H46_2 H 0.3891 0.2473 0.8121
H47_2 H 0.3924 0.2075 0.8805
C66_2 C 0.5912(12) 0.0223(14) 0.8074(9)
C67_2 C 0.6989(13) 0.1678(15) 0.8180(9)
H56_2 H 0.7342 0.2195 0.8093
C68_2 C 0.6131(14) 0.1843(17) 0.8271(10)
H57_2 H 0.5944 0.2460 0.8356
C69_2 C 0.6761(11) 0.0160(12) 0.8091(8)
N9 N 0.7333(7) 0.0818(7) 0.8211(5)
N11_2 N 0.4146(7) 0.0570(10) 0.8039(5)
N12_2 N 0.3251(9) 0.0685(11) 0.7963(7)
C77_2 C 0.1865(9) 0.0161(10) 0.8245(7)
Co10 Co 0.87258(11) 0.05900(12) 0.81769(8)
C5_2 C 0.1498(9) 0.4715(10) 0.1412(6)
H3_2 H 0.1716 0.4325 0.1103
C11_2 C 0.1710(9) 0.5749(10) 0.2251(6)
H7_2 H 0.2060 0.6085 0.2536
C16_2 C 0.0253(7) 0.3322(8) 0.2744(5)
C18_2 C 0.3029(11) 0.5112(12) 0.1740(8)
C19_2 C 0.4783(10) 0.6300(11) 0.1778(7)
C21_2 C 0.5779(11) 0.2249(12) 0.3223(7)
H12_2 H 0.5571 0.1626 0.3218
C22_2 C 0.4288(10) 0.2837(11) 0.3226(7)
C23_2 C 0.5249(11) 0.2946(13) 0.3230(8)
C24_2 C 0.6670(11) 0.2411(12) 0.3223(7)
H13_2 H 0.6996 0.1853 0.3235
C29_2 C 0.1154(9) 0.3375(10) 0.2753(6)
H17_2 H 0.1458 0.3068 0.2445
C32_2 C 0.6330(14) 0.6843(17) 0.1796(10)
H19_2 H 0.6149 0.7473 0.1838
C35_2 C 0.0624(8) 0.4794(9) 0.1440(6)
H22_2 H 0.0263 0.4449 0.1167
C38_2 C 0.1014(9) 0.4308(11) 0.3685(7)
H25_2 H 0.1266 0.4655 0.4014
C39_2 C 0.0825(9) 0.5798(10) 0.2249(7)
H26_2 H 0.0590 0.6177 0.2556
C40_2 C 0.0146(8) 0.4207(9) 0.3643(6)
C41_2 C 0.2506(10) 0.3956(10) 0.3249(7)
C43_2 C 0.5749(10) 0.6137(11) 0.1748(7)
C47_2 C 0.1580(8) 0.3862(8) 0.3203(5)
C48_2 C 0.2896(12) 0.4835(13) 0.3644(8)
H30_2 H 0.2434 0.5195 0.3815
H31_2 H 0.3267 0.4598 0.3977
H32_2 H 0.3220 0.5239 0.3377
C51_2 C 0.5567(12) 0.3891(13) 0.3284(8)
H33_2 H 0.5204 0.4417 0.3311
C58_2 C 0.6453(14) 0.3981(16) 0.3294(10)
H43_2 H 0.6596 0.4611 0.3390
C62_2 C 0.4409(13) 0.7260(14) 0.1597(9)
H49_2 H 0.4859 0.7665 0.1450
H50_2 H 0.3974 0.7177 0.1271
H51_2 H 0.4158 0.7549 0.1953
C63_2 C 0.7022(11) 0.5150(12) 0.1945(8)
H52_2 H 0.7236 0.4553 0.2062
C65_2 C 0.6095(12) 0.5232(13) 0.1937(9)
H54_2 H 0.5743 0.4726 0.2048
C70_2 C 0.7203(15) 0.6631(17) 0.1785(10)
H59_2 H 0.7562 0.7160 0.1751
C72_2 C 0.3380(16) 0.4339(18) 0.1345(11)
H60_2 H 0.2912 0.3989 0.1149
H61_2 H 0.3728 0.4615 0.1031
H62_2 H 0.3727 0.3914 0.1601
C73_2 C 0.3901(14) 0.1854(15) 0.3419(10)
H63_2 H 0.4356 0.1444 0.3574
H64_2 H 0.3493 0.1953 0.3739
H65_2 H 0.3616 0.1563 0.3062
N1 N 0.7615(7) 0.5786(7) 0.1814(5)
N2_2 N 0.0287(7) 0.5380(8) 0.1871(5)
N3_2 N 0.3448(8) 0.5693(10) 0.2055(6)
N4_2 N 0.4351(8) 0.5583(10) 0.1996(5)
N5 N 0.7273(7) 0.3424(9) 0.3206(5)
N7_2 N 0.2953(7) 0.3386(9) 0.2983(5)
N8_2 N 0.3841(9) 0.3453(11) 0.3021(6)
C78_2 C 0.2052(9) 0.5152(10) 0.1791(6)
Co5 Co 0.89228(11) 0.55841(13) 0.18243(8)
Co7 Co 0.84012(11) 0.35158(14) 0.31809(8)
C6_2 C 0.0689(8) 0.9257(10) 0.6327(6)
H4_2 H 0.0896 0.9575 0.5982
C7_2 C 0.1261(10) 0.8917(11) 0.6773(7)
C8_2 C 0.0004(8) 0.8299(8) 0.7279(5)
C10_2 C 0.4914(10) 0.7949(11) 0.6743(7)
C14_2 C 0.4001(11) 0.7806(12) 0.6750(8)
C15_2 C 0.6401(10) 0.7379(11) 0.6753(7)
H9_2 H 0.6774 0.6859 0.6755
C25_2 C 0.1388(9) 0.9723(10) 0.8599(6)
H14_2 H 0.1634 0.9325 0.8904
C28_2 C 0.2208(9) 0.8985(10) 0.6721(6)
C34_2 C 0.0474(10) 0.9812(11) 0.8551(7)
H21_2 H 0.0158 0.9429 0.8814
C36_2 C 0.5495(9) 0.7249(10) 0.6739(7)
H23_2 H 0.5289 0.6625 0.6727
C52_2 C 0.2538(12) 0.9797(13) 0.6355(8)
H36_2 H 0.2865 0.9558 0.6018
C55_2 C 0.3540(14) 0.6940(15) 0.6479(10)
H38_2 H 0.3957 0.6489 0.6338
H39_2 H 0.3203 0.6649 0.6794
H40_2 H 0.3169 0.7132 0.6134
C56_2 C 0.5266(14) 0.8884(16) 0.6704(10)
H41_2 H 0.4908 0.9417 0.6700
C61_2 C 0.6195(13) 0.8992(14) 0.6669(9)
H48_2 H 0.6422 0.9589 0.6577
H55_2 H 0.5561 0.9707 0.7960
H58_2 H 0.6981 0.9558 0.8004
C75_2 C 0.3266(17) 0.9315(19) 0.8663(11)
H67_2 H 0.2820 0.8945 0.8847
H68_2 H 0.3608 0.8907 0.8410
H69_2 H 0.3626 0.9597 0.8987
N14 N 0.6707(8) 0.8292(9) 0.6763(5)
N15_2 N 0.3544(7) 0.8462(10) 0.6955(5)
N16_2 N 0.2677(9) 0.8356(10) 0.7001(6)
C76_2 C 0.0884(8) 0.8357(9) 0.7265(5)
H70_2 H 0.1232 0.8046 0.7563
Co11 Co 0.80943(11) 0.85038(13) 0.68139(8)
C2_2 C 0.8761(8) 0.2899(10) 0.0660(6)
H2_2 H 0.8956 0.3515 0.0583
C20_2 C 0.8496(9) 0.2695(10) 0.1234(6)
H11_2 H 0.8282 0.2083 0.1298
C50_2 C 0.8514(8) 0.3352(9) 0.1773(6)
C80_2 C 0.8759(8) 0.2234(10) 0.0171(6)
H72_2 H 0.8609 0.1607 0.0259
O4_2 O 0.8775(6) 0.4206(7) 0.1671(4)
O6_2 O 0.8276(6) 0.3054(7) 0.2291(5)
C4_2 C 0.8942(9) 0.1734(10) 0.9071(6)
C44_2 C 0.8392(11) 0.1375(12) 0.6240(8)
H28_2 H 0.8517 0.2010 0.6336
C49_2 C 0.8339(8) 0.0690(10) 0.6794(6)
C53_2 C 0.8523(14) 0.1692(16) 0.4617(10)
H37_2 H 0.8563 0.1047 0.4517
C59_2 C 0.8285(15) 0.1181(18) 0.5672(11)
H44_2 H 0.8094 0.0576 0.5551
C71_2 C 0.8541(10) 0.2380(11) 0.4070(7)
C74_2 C 0.8457(16) 0.1886(19) 0.5208(11)
H66_2 H 0.8525 0.2518 0.5336
N10_2 N 0.9996(6) 0.0430(7) 0.8140(5)
C79_2 C 0.8958(8) 0.2443(9) 0.9589(6)
H71_2 H 0.9116 0.3068 0.9501
O7_2 O 0.8541(8) 0.3284(8) 0.4201(5)
O8_2 O 0.8541(7) 0.2077(8) 0.3547(5)
O9_2 O 0.8848(7) 0.0864(7) 0.9180(4)
O10_2 O 0.8948(5) 0.2055(7) 0.8502(4)
O12_2 O 0.8701(6) 0.0967(7) 0.7274(4)
C1_2 C 0.9039(8) 0.7446(9) 0.0405(6)
H1_2 H 0.9245 0.8061 0.0480
H10_2 H 0.9978 0.2994 0.2415
C17_2 C 0.9056(8) 0.6735(9) 0.0920(6)
C27_2 C 0.8748(10) 0.6406(11) 0.3729(7)
H16_2 H 0.9004 0.6997 0.3664
H27_2 H 0.9798 0.4480 0.3939
C45_2 C 0.8215(10) 0.7393(12) 0.5888(7)
C46_2 C 0.8164(14) 0.6721(16) 0.5371(10)
H29_2 H 0.7927 0.6123 0.5444
C54_2 C 0.8638(8) 0.5706(10) 0.3207(6)
C57_2 C 0.8466(14) 0.6165(16) 0.4304(9)
H42_2 H 0.8296 0.5540 0.4382
C64_2 C 0.8428(14) 0.6900(16) 0.4811(10)
H53_2 H 0.8603 0.7519 0.4722
N6_2 N 0.9790(8) 0.3690(9) 0.3151(5)
O1_2 O 0.9097(6) 0.7040(7) 0.1480(4)
O2_2 O 0.8948(6) 0.5848(6) 0.0817(4)
O3_2 O 0.8985(6) 0.5969(7) 0.2710(4)
O5_2 O 0.8190(7) 0.4939(7) 0.3266(5)
O15 O 0.8241(7) 0.7073(8) 0.6454(5)
O16 O 0.8158(8) 0.8294(8) 0.5787(5)
H5_2 H 0.9828 0.8035 0.7652
C9_2 C 0.8732(9) 0.7215(10) 0.9837(6)
H6_2 H 0.8536 0.6595 0.9766
C26_2 C 0.8692(8) 0.7886(9) 0.9328(6)
H15_2 H 0.8911 0.8498 0.9396
C30_2 C 0.8337(9) 0.8364(10) 0.8229(6)
C31_2 C 0.9823(9) 0.9140(10) 0.6375(6)
H18_2 H 0.9520 0.9487 0.6069
C33_2 C 0.8356(10) 0.7673(11) 0.8763(7)
H20_2 H 0.8122 0.7067 0.8697
N13_2 N 0.9174(7) 0.8571(8) 0.6811(5)
O11_2 O 0.8598(6) 0.9203(7) 0.8335(4)
O13_2 O 0.7896(7) 0.9943(7) 0.6708(5)
O14_2 O 0.8052(6) 0.8074(6) 0.7713(4)
loop_
_geom_bond_atom_site_label_1
_geom_bond_atom_site_label_2
_geom_bond_site_symmetry_1
_geom_bond_site_symmetry_2
C4 C79 1_555 1_555
C44 H28 1_555 1_555
C49 C44 1_555 1_555
C53 H37 1_555 1_555
C59 C44 1_555 1_555
H44 C59 1_555 1_555
C71 C53 1_555 1_555
C74 C53 1_555 1_555
H66 C74 1_555 1_555
C79 H71 1_555 1_555
O7 C71 1_555 1_555
O8 C71 1_555 1_555
O9 C4 1_555 1_555
O10 C4 1_555 1_555
O12 C49 1_555 1_555
Co3 N10 1_555 1_555
N19 Co3 1_555 1_555
Co9 O7 1_555 1_555
C59 C74 1_555 1_555
O8 Co9 1_555 1_555
O9 Co3 1_555 1_555
O10 Co3 1_555 1_555
O12 Co3 1_555 1_555
C2 H2 1_555 1_555
C20 C2 1_555 1_555
H11 C20 1_555 1_555
C50 C20 1_555 1_555
C80 C2 1_555 1_555
H72 C80 1_555 1_555
O4 C50 1_555 1_555
O6 C50 1_555 1_555
Co6 O4 1_555 1_555
Co9 O6 1_555 1_555
H6 C9 1_555 1_555
C26 C9 1_555 1_555
H15 C26 1_555 1_555
C30 C33 1_555 1_555
H18 C31 1_555 1_555
C33 C26 1_555 1_555
H20 C33 1_555 1_555
O11 C30 1_555 1_555
O14 C30 1_555 1_555
Co4 N13 1_555 1_555
N20 Co4 1_555 1_555
O21 Co4 1_555 1_555
O22 Co4 1_555 1_555
C31 N13 1_555 1_555
O13 Co4 1_555 1_555
O14 Co4 1_555 1_555
C1 H1 1_555 1_555
C17 C1 1_555 1_555
C27 H16 1_555 1_555
C45 C46 1_555 1_555
C46 H29 1_555 1_555
C54 C27 1_555 1_555
C57 C27 1_555 1_555
H42 C57 1_555 1_555
C64 C46 1_555 1_555
H53 C64 1_555 1_555
O1 C17 1_555 1_555
O2 C17 1_555 1_555
O3 C54 1_555 1_555
O5 C54 1_555 1_555
O21 C45 1_555 1_555
O22 C45 1_555 1_555
Co9 N6 1_555 1_555
N17 Co6 1_555 1_555
N18 Co9 1_555 1_555
C57 C64 1_555 1_555
O1 Co6 1_555 1_555
O2 Co6 1_555 1_555
O3 Co6 1_555 1_555
O5 Co9 1_555 1_555
C12 H8 1_555 1_555
C13 C42 1_555 1_555
C37 C12 1_555 1_555
H24 C37 1_555 1_555
C42 C60 1_555 1_555
C60 H45 1_555 1_555
H46 C60 1_555 1_555
H47 C60 1_555 1_555
C66 C13 1_555 1_555
C67 H56 1_555 1_555
C68 C13 1_555 1_555
H57 C68 1_555 1_555
C69 C66 1_555 1_555
N19 C67 1_555 1_555
N11 C42 1_555 1_555
N12 C3 1_555 1_555
C77 C3 1_555 1_555
C12 C77 1_555 1_555
C67 C68 1_555 1_555
C69 N19 1_555 1_555
N11 N12 1_555 1_555
C6 H4 1_555 1_555
C7 C6 1_555 1_555
C10 C14 1_555 1_555
C14 C55 1_555 1_555
C15 H9 1_555 1_555
C25 H14 1_555 1_555
C28 C7 1_555 1_555
C34 C25 1_555 1_555
H21 C34 1_555 1_555
C36 C10 1_555 1_555
H23 C36 1_555 1_555
C52 C28 1_555 1_555
H36 C52 1_555 1_555
C55 H38 1_555 1_555
H39 C55 1_555 1_555
H40 C55 1_555 1_555
C56 C10 1_555 1_555
H41 C56 1_555 1_555
C61 C56 1_555 1_555
H48 C61 1_555 1_555
C75 H67 1_555 1_555
H68 C75 1_555 1_555
H69 C75 1_555 1_555
N20 C15 1_555 1_555
N15 C14 1_555 1_555
N16 C28 1_555 1_555
C76 C7 1_555 1_555
H70 C76 1_555 1_555
C8 C76 1_555 1_555
C15 C36 1_555 1_555
C61 N20 1_555 1_555
N15 N16 1_555 1_555
C5 H3 1_555 1_555
C11 H7 1_555 1_555
C18 C72 1_555 1_555
C19 C43 1_555 1_555
C21 H12 1_555 1_555
C22 C23 1_555 1_555
C23 C21 1_555 1_555
C24 C21 1_555 1_555
H13 C24 1_555 1_555
C29 C16 1_555 1_555
H17 C29 1_555 1_555
C32 H19 1_555 1_555
C35 C5 1_555 1_555
H22 C35 1_555 1_555
C38 H25 1_555 1_555
C39 C11 1_555 1_555
H26 C39 1_555 1_555
C40 C38 1_555 1_555
C41 C47 1_555 1_555
C43 C32 1_555 1_555
C47 C29 1_555 1_555
C48 C41 1_555 1_555
H30 C48 1_555 1_555
H31 C48 1_555 1_555
H32 C48 1_555 1_555
C51 C23 1_555 1_555
H33 C51 1_555 1_555
C58 C51 1_555 1_555
H43 C58 1_555 1_555
C62 C19 1_555 1_555
H49 C62 1_555 1_555
H50 C62 1_555 1_555
H51 C62 1_555 1_555
C63 H52 1_555 1_555
C65 C43 1_555 1_555
H54 C65 1_555 1_555
C70 C32 1_555 1_555
H59 C70 1_555 1_555
C72 H60 1_555 1_555
H61 C72 1_555 1_555
H62 C72 1_555 1_555
C73 C22 1_555 1_555
H63 C73 1_555 1_555
H64 C73 1_555 1_555
H65 C73 1_555 1_555
N17 C63 1_555 1_555
N2 C35 1_555 1_555
N3 C18 1_555 1_555
N4 C19 1_555 1_555
N18 C24 1_555 1_555
N7 C41 1_555 1_555
N8 C22 1_555 1_555
C78 C5 1_555 1_555
C11 C78 1_555 1_555
C18 C78 1_555 1_555
C38 C47 1_555 1_555
C39 N2 1_555 1_555
C58 N18 1_555 1_555
C63 C65 1_555 1_555
C70 N17 1_555 1_555
N3 N4 1_555 1_555
N7 N8 1_555 1_555
C12_2 H8_2 1_555 1_555
C13_2 C42_2 1_555 1_555
C37_2 C12_2 1_555 1_555
H24_2 C37_2 1_555 1_555
C42_2 C60_2 1_555 1_555
C60_2 H45_2 1_555 1_555
H46_2 C60_2 1_555 1_555
H47_2 C60_2 1_555 1_555
C66_2 C13_2 1_555 1_555
C67_2 H56_2 1_555 1_555
C68_2 C13_2 1_555 1_555
H57_2 C68_2 1_555 1_555
C69_2 C66_2 1_555 1_555
N9 C67_2 1_555 1_555
N11_2 C42_2 1_555 1_555
N12_2 C3_2 1_555 1_555
C77_2 C3_2 1_555 1_555
Co10 N9 1_555 1_555
C12_2 C77_2 1_555 1_555
C67_2 C68_2 1_555 1_555
C69_2 N9 1_555 1_555
N11_2 N12_2 1_555 1_555
C5_2 H3_2 1_555 1_555
C11_2 H7_2 1_555 1_555
C18_2 C72_2 1_555 1_555
C19_2 C43_2 1_555 1_555
C21_2 H12_2 1_555 1_555
C22_2 C23_2 1_555 1_555
C23_2 C21_2 1_555 1_555
C24_2 C21_2 1_555 1_555
H13_2 C24_2 1_555 1_555
C29_2 C16_2 1_555 1_555
H17_2 C29_2 1_555 1_555
C32_2 H19_2 1_555 1_555
C35_2 C5_2 1_555 1_555
H22_2 C35_2 1_555 1_555
C38_2 H25_2 1_555 1_555
C39_2 C11_2 1_555 1_555
H26_2 C39_2 1_555 1_555
C40_2 C38_2 1_555 1_555
C41_2 C47_2 1_555 1_555
C43_2 C32_2 1_555 1_555
C47_2 C29_2 1_555 1_555
C48_2 C41_2 1_555 1_555
H30_2 C48_2 1_555 1_555
H31_2 C48_2 1_555 1_555
H32_2 C48_2 1_555 1_555
C51_2 C23_2 1_555 1_555
H33_2 C51_2 1_555 1_555
C58_2 C51_2 1_555 1_555
H43_2 C58_2 1_555 1_555
C62_2 C19_2 1_555 1_555
H49_2 C62_2 1_555 1_555
H50_2 C62_2 1_555 1_555
H51_2 C62_2 1_555 1_555
C63_2 H52_2 1_555 1_555
C65_2 C43_2 1_555 1_555
H54_2 C65_2 1_555 1_555
C70_2 C32_2 1_555 1_555
H59_2 C70_2 1_555 1_555
C72_2 H60_2 1_555 1_555
H61_2 C72_2 1_555 1_555
H62_2 C72_2 1_555 1_555
C73_2 C22_2 1_555 1_555
H63_2 C73_2 1_555 1_555
H64_2 C73_2 1_555 1_555
H65_2 C73_2 1_555 1_555
N1 C63_2 1_555 1_555
N2_2 C35_2 1_555 1_555
N3_2 C18_2 1_555 1_555
N4_2 C19_2 1_555 1_555
N5 C24_2 1_555 1_555
N7_2 C41_2 1_555 1_555
N8_2 C22_2 1_555 1_555
C78_2 C5_2 1_555 1_555
Co5 N1 1_555 1_555
Co7 N5 1_555 1_555
C11_2 C78_2 1_555 1_555
C18_2 C78_2 1_555 1_555
C38_2 C47_2 1_555 1_555
C39_2 N2_2 1_555 1_555
C58_2 N5 1_555 1_555
C63_2 C65_2 1_555 1_555
C70_2 N1 1_555 1_555
N3_2 N4_2 1_555 1_555
N7_2 N8_2 1_555 1_555
C6_2 H4_2 1_555 1_555
C7_2 C6_2 1_555 1_555
C10_2 C14_2 1_555 1_555
C14_2 C55_2 1_555 1_555
C15_2 H9_2 1_555 1_555
C25_2 H14_2 1_555 1_555
C28_2 C7_2 1_555 1_555
C34_2 C25_2 1_555 1_555
H21_2 C34_2 1_555 1_555
C36_2 C10_2 1_555 1_555
H23_2 C36_2 1_555 1_555
C52_2 C28_2 1_555 1_555
H36_2 C52_2 1_555 1_555
C55_2 H38_2 1_555 1_555
H39_2 C55_2 1_555 1_555
H40_2 C55_2 1_555 1_555
C56_2 C10_2 1_555 1_555
H41_2 C56_2 1_555 1_555
C61_2 C56_2 1_555 1_555
H48_2 C61_2 1_555 1_555
C75_2 H67_2 1_555 1_555
H68_2 C75_2 1_555 1_555
H69_2 C75_2 1_555 1_555
N14 C15_2 1_555 1_555
N15_2 C14_2 1_555 1_555
N16_2 C28_2 1_555 1_555
C76_2 C7_2 1_555 1_555
H70_2 C76_2 1_555 1_555
Co11 N14 1_555 1_555
C8_2 C76_2 1_555 1_555
C15_2 C36_2 1_555 1_555
C61_2 N14 1_555 1_555
N15_2 N16_2 1_555 1_555
C2_2 H2_2 1_555 1_555
C20_2 C2_2 1_555 1_555
H11_2 C20_2 1_555 1_555
C50_2 C20_2 1_555 1_555
C80_2 C2_2 1_555 1_555
H72_2 C80_2 1_555 1_555
O4_2 C50_2 1_555 1_555
O6_2 C50_2 1_555 1_555
Co5 O4_2 1_555 1_555
Co7 O6_2 1_555 1_555
C4_2 C79_2 1_555 1_555
C44_2 H28_2 1_555 1_555
C49_2 C44_2 1_555 1_555
C53_2 H37_2 1_555 1_555
C59_2 C44_2 1_555 1_555
H44_2 C59_2 1_555 1_555
C71_2 C53_2 1_555 1_555
C74_2 C53_2 1_555 1_555
H66_2 C74_2 1_555 1_555
C79_2 H71_2 1_555 1_555
O7_2 C71_2 1_555 1_555
O8_2 C71_2 1_555 1_555
O9_2 C4_2 1_555 1_555
O10_2 C4_2 1_555 1_555
O12_2 C49_2 1_555 1_555
Co10 N10_2 1_555 1_555
Co7 O7_2 1_555 1_555
C59_2 C74_2 1_555 1_555
O8_2 Co7 1_555 1_555
O9_2 Co10 1_555 1_555
O10_2 Co10 1_555 1_555
O12_2 Co10 1_555 1_555
C1_2 H1_2 1_555 1_555
C17_2 C1_2 1_555 1_555
C27_2 H16_2 1_555 1_555
C45_2 C46_2 1_555 1_555
C46_2 H29_2 1_555 1_555
C54_2 C27_2 1_555 1_555
C57_2 C27_2 1_555 1_555
H42_2 C57_2 1_555 1_555
C64_2 C46_2 1_555 1_555
H53_2 C64_2 1_555 1_555
O1_2 C17_2 1_555 1_555
O2_2 C17_2 1_555 1_555
O3_2 C54_2 1_555 1_555
O5_2 C54_2 1_555 1_555
O15 C45_2 1_555 1_555
O16 C45_2 1_555 1_555
Co7 N6_2 1_555 1_555
Co11 O15 1_555 1_555
C57_2 C64_2 1_555 1_555
O1_2 Co5 1_555 1_555
O2_2 Co5 1_555 1_555
O3_2 Co5 1_555 1_555
O5_2 Co7 1_555 1_555
O16 Co11 1_555 1_555
H6_2 C9_2 1_555 1_555
C26_2 C9_2 1_555 1_555
H15_2 C26_2 1_555 1_555
C30_2 C33_2 1_555 1_555
H18_2 C31_2 1_555 1_555
C33_2 C26_2 1_555 1_555
H20_2 C33_2 1_555 1_555
O11_2 C30_2 1_555 1_555
O14_2 C30_2 1_555 1_555
Co11 N13_2 1_555 1_555
C31_2 N13_2 1_555 1_555
O13_2 Co11 1_555 1_555
O14_2 Co11 1_555 1_555

#END
