
###############################################################################
#
# This file contains modified crystal structure data generated from the
# MOF subset of the Cambridge Structural Database (CSD) v543 
# hosted by the Cambridge Crystallographic Data Centre (CCDC).
#
# This work is licensed under the Creative Commons
# Attribution-NonCommercial-ShareAlike 4.0 International License.
# To view a copy of this license, visit
# http://creativecommons.org/licenses/by-nc-sa/4.0/
# or send a letter to
# Creative Commons, PO Box 1866, Mountain View, CA 94042, USA.
#
# CIF created using the CSD Python API on 29 September 2022
# The structure has been converted into the P1 space group
# The structure has a 3D framework
# The original CSD entry SAKDEP is in the tetragonal crystal system
# The framework has been calculated to contain at least 10.0% void space
# The void calculation uses a probe of radius 1.32A, grid spacing 0.4
#
###############################################################################

data_SAKDEP
_chemical_formula_moiety         '(C384 H288 Fe22 N64 O32)n'
_symmetry_cell_setting           triclinic
_symmetry_space_group_name_H-M   'P 1'
_symmetry_Int_Tables_number      1
_space_group_name_Hall           'P 1'
loop_
_symmetry_equiv_pos_site_id
_symmetry_equiv_pos_as_xyz
1 x,y,z
_cell_length_a                   19.3307(2)
_cell_length_b                   19.3307(2)
_cell_length_c                   27.7612(8)
_cell_angle_alpha                90
_cell_angle_beta                 90
_cell_angle_gamma                90
_cell_volume                     10373.7
loop_
_atom_site_label
_atom_site_type_symbol
_atom_site_fract_x
_atom_site_fract_y
_atom_site_fract_z
C2 C 0.1502(3) 0.1922(3) 0.0064(2)
H1 H 0.1148 0.1585 0.0025
C3 C 0.1677(4) 0.2146(4) 0.0522(2)
H2 H 0.1442 0.1958 0.0792
C4 C 0.2187(3) 0.2638(3) 0.0593(2)
H3 H 0.2296 0.2797 0.0908
C5 C 0.2526(3) 0.2889(3) 0.02020(18)
H4 H 0.2887 0.3215 0.0249
C26 C 0.8498(3) 0.8078(3) 0.0064(2)
H19 H 0.8852 0.8415 0.0025
C27 C 0.8323(4) 0.7854(4) 0.0522(2)
H20 H 0.8558 0.8042 0.0792
C28 C 0.7813(3) 0.7362(3) 0.0593(2)
H21 H 0.7704 0.7203 0.0908
C29 C 0.7474(3) 0.7111(3) 0.02020(18)
H22 H 0.7113 0.6785 0.0249
Fe1 Fe 0.5000 0.5000 0.77955(4)
Fe2 Fe 0.2500 0.20476(5) 0.8750
O1 O 0.16874(19) 0.19944(18) 0.92142(14)
C1 C 0.1843(3) 0.2188(3) 0.9656(2)
C6 C 0.2367(3) 0.2688(2) 0.9740(2)
N1 N 0.2739(2) 0.2901(2) 0.93251(15)
C7 C 0.2975(3) 0.3525(3) 0.93338(19)
H5 H 0.2820 0.3818 0.9586
C8 C 0.3462(3) 0.3815(3) 0.8986(2)
C9 C 0.3593(4) 0.4531(3) 0.9005(2)
H6 H 0.3365 0.4818 0.9234
C10 C 0.4063(4) 0.4806(3) 0.8680(2)
H7 H 0.4136 0.5292 0.8684
N2 N 0.4418(3) 0.4435(2) 0.83634(17)
C11 C 0.4287(3) 0.3753(3) 0.8349(2)
H8 H 0.4521 0.3482 0.8115
C12 C 0.3836(3) 0.3428(3) 0.86530(19)
H9 H 0.3778 0.2940 0.8637
O2 O 0.5787(2) 0.43155(18) 0.78068(15)
C13 C 0.6368(3) 0.4534(3) 0.7619(2)
C14 C 0.6994(4) 0.4170(3) 0.7670(2)
H10 H 0.6998 0.3753 0.7852
C15 C 0.7598(3) 0.4399(3) 0.7467(3)
H11 H 0.8018 0.4157 0.7526
C16 C 0.7600(3) 0.4996(3) 0.7168(2)
H12 H 0.8009 0.5138 0.7005
C17 C 0.6999(3) 0.5360(3) 0.7121(2)
H13 H 0.6997 0.5765 0.6928
C18 C 0.6388(3) 0.5156(2) 0.7346(2)
N3 N 0.5739(2) 0.5494(2) 0.72862(16)
C19 C 0.5704(3) 0.6116(3) 0.71102(19)
H14 H 0.6115 0.6380 0.7076
C20 C 0.5044(3) 0.6413(3) 0.69653(18)
C21 C 0.4918(3) 0.7123(3) 0.7015(2)
H15 H 0.5256 0.7419 0.7154
C22 C 0.4292(3) 0.7385(3) 0.6858(2)
H16 H 0.4213 0.7867 0.6895
N4 N 0.3797(2) 0.7010(3) 0.66616(17)
C23 C 0.3920(3) 0.6328(3) 0.6621(2)
H17 H 0.3569 0.6045 0.6484
C24 C 0.4525(3) 0.6017(3) 0.6765(2)
H18 H 0.4585 0.5532 0.6727
Fe3 Fe 0.29524(5) 0.7500 0.6250
Fe4 Fe 0.7500 0.79524(5) 0.8750
Fe5 Fe 0.70476(5) 0.2500 0.6250
O3 O 0.83126(19) 0.80056(18) 0.92142(14)
O4 O 0.33126(19) 0.19944(18) 0.82858(14)
C25 C 0.8157(3) 0.7812(3) 0.9656(2)
C30 C 0.7633(3) 0.7312(2) 0.9740(2)
N5 N 0.7261(2) 0.7099(2) 0.93251(15)
N6 N 0.2261(2) 0.2901(2) 0.81749(15)
C31 C 0.7025(3) 0.6475(3) 0.93338(19)
H23 H 0.7180 0.6182 0.9586
C32 C 0.6538(3) 0.6185(3) 0.8986(2)
C33 C 0.6407(4) 0.5469(3) 0.9005(2)
H24 H 0.6635 0.5182 0.9234
C34 C 0.5937(4) 0.5194(3) 0.8680(2)
H25 H 0.5864 0.4708 0.8684
N7 N 0.5582(3) 0.5565(2) 0.83634(17)
C35 C 0.5713(3) 0.6247(3) 0.8349(2)
H26 H 0.5479 0.6518 0.8115
C36 C 0.6164(3) 0.6572(3) 0.86530(19)
H27 H 0.6222 0.7060 0.8637
O5 O 0.4213(2) 0.56845(18) 0.78068(15)
C37 C 0.3632(3) 0.5466(3) 0.7619(2)
C38 C 0.3006(4) 0.5830(3) 0.7670(2)
H28 H 0.3002 0.6247 0.7852
C39 C 0.2402(3) 0.5601(3) 0.7467(3)
H29 H 0.1982 0.5843 0.7526
C40 C 0.2400(3) 0.5004(3) 0.7168(2)
H30 H 0.1991 0.4862 0.7005
C41 C 0.3001(3) 0.4640(3) 0.7121(2)
H31 H 0.3003 0.4235 0.6928
C42 C 0.3612(3) 0.4844(2) 0.7346(2)
N8 N 0.4261(2) 0.4506(2) 0.72862(16)
C43 C 0.4296(3) 0.3884(3) 0.71102(19)
H32 H 0.3885 0.3620 0.7076
C44 C 0.4956(3) 0.3587(3) 0.69653(18)
C45 C 0.5082(3) 0.2877(3) 0.7015(2)
H33 H 0.4744 0.2581 0.7154
C46 C 0.5708(3) 0.2615(3) 0.6858(2)
H34 H 0.5787 0.2133 0.6895
N9 N 0.6203(2) 0.2990(3) 0.66616(17)
N10 N 0.2010(3) 0.1203(2) 0.83384(17)
N11 N 0.2990(3) 0.1203(2) 0.91616(17)
C47 C 0.6080(3) 0.3672(3) 0.6621(2)
H35 H 0.6431 0.3955 0.6484
C48 C 0.5475(3) 0.3983(3) 0.6765(2)
H36 H 0.5415 0.4468 0.6727
Fe1_2 Fe 0.5000 0.5000 0.22045(4)
Fe2_2 Fe 0.20476(5) 0.7500 0.1250
O1_2 O 0.19944(18) 0.83126(19) 0.07858(14)
C1_2 C 0.2188(3) 0.8157(3) 0.0344(2)
C6_2 C 0.2688(2) 0.7633(3) 0.0260(2)
N1_2 N 0.2901(2) 0.7261(2) 0.06749(15)
C7_2 C 0.3525(3) 0.7025(3) 0.06662(19)
H5_2 H 0.3818 0.7180 0.0414
C8_2 C 0.3815(3) 0.6538(3) 0.1014(2)
C9_2 C 0.4531(3) 0.6407(4) 0.0995(2)
H6_2 H 0.4818 0.6635 0.0766
C10_2 C 0.4806(3) 0.5937(4) 0.1320(2)
H7_2 H 0.5292 0.5864 0.1316
N2_2 N 0.4435(2) 0.5582(3) 0.16366(17)
C11_2 C 0.3753(3) 0.5713(3) 0.1651(2)
H8_2 H 0.3482 0.5479 0.1885
C12_2 C 0.3428(3) 0.6164(3) 0.13470(19)
H9_2 H 0.2940 0.6222 0.1363
O2_2 O 0.43155(18) 0.4213(2) 0.21932(15)
C13_2 C 0.4534(3) 0.3632(3) 0.2381(2)
C14_2 C 0.4170(3) 0.3006(4) 0.2330(2)
H10_2 H 0.3753 0.3002 0.2148
C15_2 C 0.4399(3) 0.2402(3) 0.2533(3)
H11_2 H 0.4157 0.1982 0.2474
C16_2 C 0.4996(3) 0.2400(3) 0.2832(2)
H12_2 H 0.5138 0.1991 0.2995
C17_2 C 0.5360(3) 0.3001(3) 0.2879(2)
H13_2 H 0.5765 0.3003 0.3072
C18_2 C 0.5156(2) 0.3612(3) 0.2654(2)
N3_2 N 0.5494(2) 0.4261(2) 0.27138(16)
C19_2 C 0.6116(3) 0.4296(3) 0.28898(19)
H14_2 H 0.6380 0.3885 0.2924
C20_2 C 0.6413(3) 0.4956(3) 0.30347(18)
C21_2 C 0.7123(3) 0.5082(3) 0.2985(2)
H15_2 H 0.7419 0.4744 0.2846
C22_2 C 0.7385(3) 0.5708(3) 0.3142(2)
H16_2 H 0.7867 0.5787 0.3105
N4_2 N 0.7010(3) 0.6203(2) 0.33384(17)
C23_2 C 0.6328(3) 0.6080(3) 0.3379(2)
H17_2 H 0.6045 0.6431 0.3516
C24_2 C 0.6017(3) 0.5475(3) 0.3235(2)
H18_2 H 0.5532 0.5415 0.3273
Fe3_2 Fe 0.7500 0.70476(5) 0.3750
Fe4_2 Fe 0.79524(5) 0.2500 0.1250
Fe5_2 Fe 0.2500 0.29524(5) 0.3750
O3_2 O 0.80056(18) 0.16874(19) 0.07858(14)
O4_2 O 0.19944(18) 0.66874(19) 0.17142(14)
C25_2 C 0.7812(3) 0.1843(3) 0.0344(2)
C30_2 C 0.7312(2) 0.2367(3) 0.0260(2)
N5_2 N 0.7099(2) 0.2739(2) 0.06749(15)
N6_2 N 0.2901(2) 0.7739(2) 0.18251(15)
C31_2 C 0.6475(3) 0.2975(3) 0.06662(19)
H23_2 H 0.6182 0.2820 0.0414
C32_2 C 0.6185(3) 0.3462(3) 0.1014(2)
C33_2 C 0.5469(3) 0.3593(4) 0.0995(2)
H24_2 H 0.5182 0.3365 0.0766
C34_2 C 0.5194(3) 0.4063(4) 0.1320(2)
H25_2 H 0.4708 0.4136 0.1316
N7_2 N 0.5565(2) 0.4418(3) 0.16366(17)
C35_2 C 0.6247(3) 0.4287(3) 0.1651(2)
H26_2 H 0.6518 0.4521 0.1885
C36_2 C 0.6572(3) 0.3836(3) 0.13470(19)
H27_2 H 0.7060 0.3778 0.1363
O5_2 O 0.56845(18) 0.5787(2) 0.21932(15)
C37_2 C 0.5466(3) 0.6368(3) 0.2381(2)
C38_2 C 0.5830(3) 0.6994(4) 0.2330(2)
H28_2 H 0.6247 0.6998 0.2148
C39_2 C 0.5601(3) 0.7598(3) 0.2533(3)
H29_2 H 0.5843 0.8018 0.2474
C40_2 C 0.5004(3) 0.7600(3) 0.2832(2)
H30_2 H 0.4862 0.8009 0.2995
C41_2 C 0.4640(3) 0.6999(3) 0.2879(2)
H31_2 H 0.4235 0.6997 0.3072
C42_2 C 0.4844(2) 0.6388(3) 0.2654(2)
N8_2 N 0.4506(2) 0.5739(2) 0.27138(16)
C43_2 C 0.3884(3) 0.5704(3) 0.28898(19)
H32_2 H 0.3620 0.6115 0.2924
C44_2 C 0.3587(3) 0.5044(3) 0.30347(18)
C45_2 C 0.2877(3) 0.4918(3) 0.2985(2)
H33_2 H 0.2581 0.5256 0.2846
C46_2 C 0.2615(3) 0.4292(3) 0.3142(2)
H34_2 H 0.2133 0.4213 0.3105
N9_2 N 0.2990(3) 0.3797(2) 0.33384(17)
N10_2 N 0.1203(2) 0.7990(3) 0.16616(17)
N11_2 N 0.1203(2) 0.7010(3) 0.08384(17)
C47_2 C 0.3672(3) 0.3920(3) 0.3379(2)
H35_2 H 0.3955 0.3569 0.3516
C48_2 C 0.3983(3) 0.4525(3) 0.3235(2)
H36_2 H 0.4468 0.4585 0.3273
O4_3 O 0.66874(19) 0.80056(18) 0.82858(14)
N6_3 N 0.7739(2) 0.7099(2) 0.81749(15)
N10_3 N 0.7990(3) 0.8797(2) 0.83384(17)
N11_3 N 0.7010(3) 0.8797(2) 0.91616(17)
O4_4 O 0.80056(18) 0.33126(19) 0.17142(14)
N6_4 N 0.7099(2) 0.2261(2) 0.18251(15)
N10_4 N 0.8797(2) 0.2010(3) 0.16616(17)
N11_4 N 0.8797(2) 0.2990(3) 0.08384(17)
Fe1_3 Fe 0.5000 0.0000 0.47045(4)
O1_3 O 0.16874(19) 0.30056(18) 0.32858(14)
C1_3 C 0.1843(3) 0.2812(3) 0.2844(2)
C2_2 C 0.1502(3) 0.3078(3) 0.2436(2)
H1_2 H 0.1148 0.3415 0.2475
C3_2 C 0.1677(4) 0.2854(4) 0.1978(2)
H2_2 H 0.1442 0.3042 0.1708
C4_2 C 0.2187(3) 0.2362(3) 0.1907(2)
H3_2 H 0.2296 0.2203 0.1592
C5_2 C 0.2526(3) 0.2111(3) 0.22980(18)
H4_2 H 0.2887 0.1785 0.2251
C6_3 C 0.2367(3) 0.2312(2) 0.2760(2)
N1_3 N 0.2739(2) 0.2099(2) 0.31749(15)
C7_3 C 0.2975(3) 0.1475(3) 0.31662(19)
H5_3 H 0.2820 0.1182 0.2914
C8_3 C 0.3462(3) 0.1185(3) 0.3514(2)
C9_3 C 0.3593(4) 0.0469(3) 0.3495(2)
H6_3 H 0.3365 0.0182 0.3266
C10_3 C 0.4063(4) 0.0194(3) 0.3820(2)
N2_3 N 0.4418(3) 0.0565(2) 0.41366(17)
C11_3 C 0.4287(3) 0.1247(3) 0.4151(2)
H8_3 H 0.4521 0.1518 0.4385
C12_3 C 0.3836(3) 0.1572(3) 0.38470(19)
H9_3 H 0.3778 0.2060 0.3863
O2_3 O 0.5787(2) 0.06845(18) 0.46932(15)
C13_3 C 0.6368(3) 0.0466(3) 0.4881(2)
C14_3 C 0.6994(4) 0.0830(3) 0.4830(2)
H10_3 H 0.6998 0.1247 0.4648
C15_3 C 0.7598(3) 0.0601(3) 0.5033(3)
H11_3 H 0.8018 0.0843 0.4974
C16_3 C 0.7600(3) 0.0004(3) 0.5332(2)
O4_5 O 0.33126(19) 0.30056(18) 0.42142(14)
N6_5 N 0.2261(2) 0.2099(2) 0.43251(15)
H25_3 H 0.5864 0.0292 0.3816
H30_3 H 0.1991 0.0138 0.5495
C41_3 C 0.3001(3) 0.0360(3) 0.5379(2)
H31_3 H 0.3003 0.0765 0.5572
C42_3 C 0.3612(3) 0.0156(2) 0.5154(2)
N8_3 N 0.4261(2) 0.0494(2) 0.52138(16)
C43_3 C 0.4296(3) 0.1116(3) 0.53898(19)
H32_3 H 0.3885 0.1380 0.5424
C44_3 C 0.4956(3) 0.1413(3) 0.55347(18)
C45_3 C 0.5082(3) 0.2123(3) 0.5485(2)
H33_3 H 0.4744 0.2419 0.5346
C46_3 C 0.5708(3) 0.2385(3) 0.5642(2)
H34_3 H 0.5787 0.2867 0.5605
N9_3 N 0.6203(2) 0.2010(3) 0.58384(17)
N10_5 N 0.2010(3) 0.3797(2) 0.41616(17)
C47_3 C 0.6080(3) 0.1328(3) 0.5879(2)
H35_3 H 0.6431 0.1045 0.6016
C48_3 C 0.5475(3) 0.1017(3) 0.5735(2)
H36_3 H 0.5415 0.0532 0.5773
Fe1_4 Fe 0.5000 1.0000 0.47045(4)
H7_3 H 0.4136 0.9708 0.3816
H12_3 H 0.8009 0.9862 0.5495
C17_3 C 0.6999(3) 0.9640(3) 0.5379(2)
H13_3 H 0.6997 0.9235 0.5572
C18_3 C 0.6388(3) 0.9844(2) 0.5154(2)
N3_3 N 0.5739(2) 0.9506(2) 0.52138(16)
C19_3 C 0.5704(3) 0.8884(3) 0.53898(19)
H14_3 H 0.6115 0.8620 0.5424
C20_3 C 0.5044(3) 0.8587(3) 0.55347(18)
C21_3 C 0.4918(3) 0.7877(3) 0.5485(2)
H15_3 H 0.5256 0.7581 0.5346
C22_3 C 0.4292(3) 0.7615(3) 0.5642(2)
H16_3 H 0.4213 0.7133 0.5605
N4_3 N 0.3797(2) 0.7990(3) 0.58384(17)
C23_3 C 0.3920(3) 0.8672(3) 0.5879(2)
H17_3 H 0.3569 0.8955 0.6016
C24_3 C 0.4525(3) 0.8983(3) 0.5735(2)
H18_3 H 0.4585 0.9468 0.5773
O3_3 O 0.83126(19) 0.69944(18) 0.32858(14)
C25_3 C 0.8157(3) 0.7188(3) 0.2844(2)
C26_2 C 0.8498(3) 0.6922(3) 0.2436(2)
H19_2 H 0.8852 0.6585 0.2475
C27_2 C 0.8323(4) 0.7146(4) 0.1978(2)
H20_2 H 0.8558 0.6958 0.1708
C28_2 C 0.7813(3) 0.7638(3) 0.1907(2)
H21_2 H 0.7704 0.7797 0.1592
C29_2 C 0.7474(3) 0.7889(3) 0.22980(18)
H22_2 H 0.7113 0.8215 0.2251
C30_3 C 0.7633(3) 0.7688(2) 0.2760(2)
N5_3 N 0.7261(2) 0.7901(2) 0.31749(15)
C31_3 C 0.7025(3) 0.8525(3) 0.31662(19)
H23_3 H 0.7180 0.8818 0.2914
C32_3 C 0.6538(3) 0.8815(3) 0.3514(2)
C33_3 C 0.6407(4) 0.9531(3) 0.3495(2)
H24_3 H 0.6635 0.9818 0.3266
C34_3 C 0.5937(4) 0.9806(3) 0.3820(2)
N7_3 N 0.5582(3) 0.9435(2) 0.41366(17)
C35_3 C 0.5713(3) 0.8753(3) 0.4151(2)
H26_3 H 0.5479 0.8482 0.4385
C36_3 C 0.6164(3) 0.8428(3) 0.38470(19)
H27_3 H 0.6222 0.7940 0.3863
O5_3 O 0.4213(2) 0.93155(18) 0.46932(15)
C37_3 C 0.3632(3) 0.9534(3) 0.4881(2)
C38_3 C 0.3006(4) 0.9170(3) 0.4830(2)
H28_3 H 0.3002 0.8753 0.4648
C39_3 C 0.2402(3) 0.9399(3) 0.5033(3)
H29_3 H 0.1982 0.9157 0.4974
C40_3 C 0.2400(3) 0.9996(3) 0.5332(2)
Fe1_5 Fe 0.0000 0.5000 0.52955(4)
O1_4 O 0.30056(18) 0.83126(19) 0.67142(14)
C1_4 C 0.2812(3) 0.8157(3) 0.7156(2)
C2_3 C 0.3078(3) 0.8498(3) 0.7564(2)
H1_3 H 0.3415 0.8852 0.7525
C3_3 C 0.2854(4) 0.8323(4) 0.8022(2)
H2_3 H 0.3042 0.8558 0.8292
C4_3 C 0.2362(3) 0.7813(3) 0.8093(2)
H3_3 H 0.2203 0.7704 0.8408
C5_3 C 0.2111(3) 0.7474(3) 0.77020(18)
H4_3 H 0.1785 0.7113 0.7749
C6_4 C 0.2312(2) 0.7633(3) 0.7240(2)
N1_4 N 0.2099(2) 0.7261(2) 0.68251(15)
C7_4 C 0.1475(3) 0.7025(3) 0.68338(19)
H5_4 H 0.1182 0.7180 0.7086
C8_4 C 0.1185(3) 0.6538(3) 0.6486(2)
C9_4 C 0.0469(3) 0.6407(4) 0.6505(2)
H6_4 H 0.0182 0.6635 0.6734
C10_4 C 0.0194(3) 0.5937(4) 0.6180(2)
N2_4 N 0.0565(2) 0.5582(3) 0.58634(17)
C11_4 C 0.1247(3) 0.5713(3) 0.5849(2)
H8_4 H 0.1518 0.5479 0.5615
C12_4 C 0.1572(3) 0.6164(3) 0.61530(19)
H9_4 H 0.2060 0.6222 0.6137
O2_4 O 0.06845(18) 0.4213(2) 0.53068(15)
C13_4 C 0.0466(3) 0.3632(3) 0.5119(2)
C14_4 C 0.0830(3) 0.3006(4) 0.5170(2)
H10_4 H 0.1247 0.3002 0.5352
C15_4 C 0.0601(3) 0.2402(3) 0.4967(3)
H11_4 H 0.0843 0.1982 0.5026
C16_4 C 0.0004(3) 0.2400(3) 0.4668(2)
O4_6 O 0.30056(18) 0.66874(19) 0.57858(14)
N6_6 N 0.2099(2) 0.7739(2) 0.56749(15)
H25_4 H 0.0292 0.4136 0.6184
H30_4 H 0.0138 0.8009 0.4505
C41_4 C 0.0360(3) 0.6999(3) 0.4621(2)
H31_4 H 0.0765 0.6997 0.4428
C42_4 C 0.0156(2) 0.6388(3) 0.4846(2)
N8_4 N 0.0494(2) 0.5739(2) 0.47862(16)
C43_4 C 0.1116(3) 0.5704(3) 0.46102(19)
H32_4 H 0.1380 0.6115 0.4576
C44_4 C 0.1413(3) 0.5044(3) 0.44653(18)
C45_4 C 0.2123(3) 0.4918(3) 0.4515(2)
H33_4 H 0.2419 0.5256 0.4654
C46_4 C 0.2385(3) 0.4292(3) 0.4358(2)
H34_4 H 0.2867 0.4213 0.4395
C47_4 C 0.1328(3) 0.3920(3) 0.4121(2)
H35_4 H 0.1045 0.3569 0.3984
C48_4 C 0.1017(3) 0.4525(3) 0.4265(2)
H36_4 H 0.0532 0.4585 0.4227
Fe1_6 Fe 1.0000 0.5000 0.52955(4)
H7_4 H 0.9708 0.5864 0.6184
H12_4 H 0.9862 0.1991 0.4505
C17_4 C 0.9640(3) 0.3001(3) 0.4621(2)
H13_4 H 0.9235 0.3003 0.4428
C18_4 C 0.9844(2) 0.3612(3) 0.4846(2)
N3_4 N 0.9506(2) 0.4261(2) 0.47862(16)
C19_4 C 0.8884(3) 0.4296(3) 0.46102(19)
H14_4 H 0.8620 0.3885 0.4576
C20_4 C 0.8587(3) 0.4956(3) 0.44653(18)
C21_4 C 0.7877(3) 0.5082(3) 0.4515(2)
H15_4 H 0.7581 0.4744 0.4654
C22_4 C 0.7615(3) 0.5708(3) 0.4358(2)
H16_4 H 0.7133 0.5787 0.4395
N4_4 N 0.7990(3) 0.6203(2) 0.41616(17)
C23_4 C 0.8672(3) 0.6080(3) 0.4121(2)
H17_4 H 0.8955 0.6431 0.3984
C24_4 C 0.8983(3) 0.5475(3) 0.4265(2)
H18_4 H 0.9468 0.5415 0.4227
O3_4 O 0.69944(18) 0.16874(19) 0.67142(14)
C25_4 C 0.7188(3) 0.1843(3) 0.7156(2)
C26_3 C 0.6922(3) 0.1502(3) 0.7564(2)
H19_3 H 0.6585 0.1148 0.7525
C27_3 C 0.7146(4) 0.1677(4) 0.8022(2)
H20_3 H 0.6958 0.1442 0.8292
C28_3 C 0.7638(3) 0.2187(3) 0.8093(2)
H21_3 H 0.7797 0.2296 0.8408
C29_3 C 0.7889(3) 0.2526(3) 0.77020(18)
H22_3 H 0.8215 0.2887 0.7749
C30_4 C 0.7688(2) 0.2367(3) 0.7240(2)
N5_4 N 0.7901(2) 0.2739(2) 0.68251(15)
C31_4 C 0.8525(3) 0.2975(3) 0.68338(19)
H23_4 H 0.8818 0.2820 0.7086
C32_4 C 0.8815(3) 0.3462(3) 0.6486(2)
C33_4 C 0.9531(3) 0.3593(4) 0.6505(2)
H24_4 H 0.9818 0.3365 0.6734
C34_4 C 0.9806(3) 0.4063(4) 0.6180(2)
N7_4 N 0.9435(2) 0.4418(3) 0.58634(17)
C35_4 C 0.8753(3) 0.4287(3) 0.5849(2)
H26_4 H 0.8482 0.4521 0.5615
C36_4 C 0.8428(3) 0.3836(3) 0.61530(19)
H27_4 H 0.7940 0.3778 0.6137
O5_4 O 0.93155(18) 0.5787(2) 0.53068(15)
C37_4 C 0.9534(3) 0.6368(3) 0.5119(2)
C38_4 C 0.9170(3) 0.6994(4) 0.5170(2)
H28_4 H 0.8753 0.6998 0.5352
C39_4 C 0.9399(3) 0.7598(3) 0.4967(3)
H29_4 H 0.9157 0.8018 0.5026
C40_4 C 0.9996(3) 0.7600(3) 0.4668(2)
O4_7 O 0.66874(19) 0.69944(18) 0.42142(14)
N6_7 N 0.7739(2) 0.7901(2) 0.43251(15)
O4_8 O 0.69944(18) 0.33126(19) 0.57858(14)
N6_8 N 0.7901(2) 0.2261(2) 0.56749(15)
Fe1_7 Fe 0.0000 0.0000 0.27955(4)
H12_5 H 0.3009 0.0138 0.2005
C17_5 C 0.1999(3) 0.0360(3) 0.2121(2)
H13_5 H 0.1997 0.0765 0.1928
C18_5 C 0.1388(3) 0.0156(2) 0.2346(2)
N3_5 N 0.0739(2) 0.0494(2) 0.22862(16)
C19_5 C 0.0704(3) 0.1116(3) 0.21102(19)
H14_5 H 0.1115 0.1380 0.2076
C20_5 C 0.0044(3) 0.1413(3) 0.19653(18)
H15_5 H 0.0256 0.2419 0.2154
C25_5 C 0.3157(3) 0.2812(3) 0.4656(2)
C26_4 C 0.3498(3) 0.3078(3) 0.5064(2)
H19_4 H 0.3852 0.3415 0.5025
C27_4 C 0.3323(4) 0.2854(4) 0.5522(2)
H20_4 H 0.3558 0.3042 0.5792
C28_4 C 0.2813(3) 0.2362(3) 0.5593(2)
H21_4 H 0.2704 0.2203 0.5908
C29_4 C 0.2474(3) 0.2111(3) 0.52020(18)
H22_4 H 0.2113 0.1785 0.5249
C30_5 C 0.2633(3) 0.2312(2) 0.4740(2)
C31_5 C 0.2025(3) 0.1475(3) 0.43338(19)
H23_5 H 0.2180 0.1182 0.4586
C32_5 C 0.1538(3) 0.1185(3) 0.3986(2)
C33_5 C 0.1407(4) 0.0469(3) 0.4005(2)
H24_5 H 0.1635 0.0182 0.4234
C34_5 C 0.0937(4) 0.0194(3) 0.3680(2)
N7_5 N 0.0582(3) 0.0565(2) 0.33634(17)
C35_5 C 0.0713(3) 0.1247(3) 0.3349(2)
H26_5 H 0.0479 0.1518 0.3115
C36_5 C 0.1164(3) 0.1572(3) 0.36530(19)
H27_5 H 0.1222 0.2060 0.3637
Fe1_8 Fe 0.0000 1.0000 0.27955(4)
O2_5 O 0.0787(2) 0.93155(18) 0.28068(15)
C13_5 C 0.1368(3) 0.9534(3) 0.2619(2)
C14_5 C 0.1994(4) 0.9170(3) 0.2670(2)
H10_5 H 0.1998 0.8753 0.2852
C15_5 C 0.2598(3) 0.9399(3) 0.2467(3)
H11_5 H 0.3018 0.9157 0.2526
C16_5 C 0.2600(3) 0.9996(3) 0.2168(2)
H25_5 H 0.0864 0.9708 0.3684
C45_5 C 0.0082(3) 0.7877(3) 0.2015(2)
C46_5 C 0.0708(3) 0.7615(3) 0.1858(2)
H34_5 H 0.0787 0.7133 0.1895
C47_5 C 0.1080(3) 0.8672(3) 0.1621(2)
H35_5 H 0.1431 0.8955 0.1484
C48_5 C 0.0475(3) 0.8983(3) 0.1765(2)
H36_5 H 0.0415 0.9468 0.1727
Fe1_9 Fe 1.0000 0.0000 0.27955(4)
H7_5 H 0.9136 0.0292 0.3684
C21_5 C 0.9918(3) 0.2123(3) 0.2015(2)
C22_5 C 0.9292(3) 0.2385(3) 0.1858(2)
H16_5 H 0.9213 0.2867 0.1895
C23_5 C 0.8920(3) 0.1328(3) 0.1621(2)
H17_5 H 0.8569 0.1045 0.1484
C24_5 C 0.9525(3) 0.1017(3) 0.1765(2)
H18_5 H 0.9585 0.0532 0.1727
O5_5 O 0.9213(2) 0.06845(18) 0.28068(15)
C37_5 C 0.8632(3) 0.0466(3) 0.2619(2)
C38_5 C 0.8006(4) 0.0830(3) 0.2670(2)
H28_5 H 0.8002 0.1247 0.2852
C39_5 C 0.7402(3) 0.0601(3) 0.2467(3)
H29_5 H 0.6982 0.0843 0.2526
C40_5 C 0.7400(3) 0.0004(3) 0.2168(2)
Fe1_10 Fe 1.0000 1.0000 0.27955(4)
C1_5 C 0.6843(3) 0.7188(3) 0.4656(2)
C2_4 C 0.6502(3) 0.6922(3) 0.5064(2)
H1_4 H 0.6148 0.6585 0.5025
C3_4 C 0.6677(4) 0.7146(4) 0.5522(2)
H2_4 H 0.6442 0.6958 0.5792
C4_4 C 0.7187(3) 0.7638(3) 0.5593(2)
H3_4 H 0.7296 0.7797 0.5908
C5_4 C 0.7526(3) 0.7889(3) 0.52020(18)
H4_4 H 0.7887 0.8215 0.5249
C6_5 C 0.7367(3) 0.7688(2) 0.4740(2)
C7_5 C 0.7975(3) 0.8525(3) 0.43338(19)
H5_5 H 0.7820 0.8818 0.4586
C8_5 C 0.8462(3) 0.8815(3) 0.3986(2)
C9_5 C 0.8593(4) 0.9531(3) 0.4005(2)
H6_5 H 0.8365 0.9818 0.4234
C10_5 C 0.9063(4) 0.9806(3) 0.3680(2)
N2_5 N 0.9418(3) 0.9435(2) 0.33634(17)
C11_5 C 0.9287(3) 0.8753(3) 0.3349(2)
H8_5 H 0.9521 0.8482 0.3115
C12_5 C 0.8836(3) 0.8428(3) 0.36530(19)
H9_5 H 0.8778 0.7940 0.3637
H30_5 H 0.6991 0.9862 0.2005
C41_5 C 0.8001(3) 0.9640(3) 0.2121(2)
H31_5 H 0.8003 0.9235 0.1928
C42_5 C 0.8612(3) 0.9844(2) 0.2346(2)
N8_5 N 0.9261(2) 0.9506(2) 0.22862(16)
C43_5 C 0.9296(3) 0.8884(3) 0.21102(19)
H32_5 H 0.8885 0.8620 0.2076
C44_5 C 0.9956(3) 0.8587(3) 0.19653(18)
H33_5 H 0.9744 0.7581 0.2154
Fe1_11 Fe 0.0000 0.0000 0.72045(4)
H7_6 H 0.0292 0.0864 0.6316
C21_6 C 0.2123(3) 0.0082(3) 0.7985(2)
C22_6 C 0.2385(3) 0.0708(3) 0.8142(2)
H16_6 H 0.2867 0.0787 0.8105
C23_6 C 0.1328(3) 0.1080(3) 0.8379(2)
H17_6 H 0.1045 0.1431 0.8516
C24_6 C 0.1017(3) 0.0475(3) 0.8235(2)
H18_6 H 0.0532 0.0415 0.8273
O5_6 O 0.06845(18) 0.0787(2) 0.71932(15)
C37_6 C 0.0466(3) 0.1368(3) 0.7381(2)
C38_6 C 0.0830(3) 0.1994(4) 0.7330(2)
H28_6 H 0.1247 0.1998 0.7148
C39_6 C 0.0601(3) 0.2598(3) 0.7533(3)
H29_6 H 0.0843 0.3018 0.7474
C40_6 C 0.0004(3) 0.2600(3) 0.7832(2)
Fe1_12 Fe -0.0000 1.0000 0.72045(4)
H12_6 H 0.0138 0.6991 0.7995
C17_6 C 0.0360(3) 0.8001(3) 0.7879(2)
H13_6 H 0.0765 0.8003 0.8072
C18_6 C 0.0156(2) 0.8612(3) 0.7654(2)
N3_6 N 0.0494(2) 0.9261(2) 0.77138(16)
C19_6 C 0.1116(3) 0.9296(3) 0.78898(19)
H14_6 H 0.1380 0.8885 0.7924
C20_6 C 0.1413(3) 0.9956(3) 0.80347(18)
H15_6 H 0.2419 0.9744 0.7846
C25_6 C 0.2812(3) 0.6843(3) 0.5344(2)
C26_5 C 0.3078(3) 0.6502(3) 0.4936(2)
H19_5 H 0.3415 0.6148 0.4975
C27_5 C 0.2854(4) 0.6677(4) 0.4478(2)
H20_5 H 0.3042 0.6442 0.4208
C28_5 C 0.2362(3) 0.7187(3) 0.4407(2)
H21_5 H 0.2203 0.7296 0.4092
C29_5 C 0.2111(3) 0.7526(3) 0.47980(18)
H22_5 H 0.1785 0.7887 0.4751
C30_6 C 0.2312(2) 0.7367(3) 0.5260(2)
C31_6 C 0.1475(3) 0.7975(3) 0.56662(19)
H23_6 H 0.1182 0.7820 0.5414
C32_6 C 0.1185(3) 0.8462(3) 0.6014(2)
C33_6 C 0.0469(3) 0.8593(4) 0.5995(2)
H24_6 H 0.0182 0.8365 0.5766
C34_6 C 0.0194(3) 0.9063(4) 0.6320(2)
N7_6 N 0.0565(2) 0.9418(3) 0.66366(17)
C35_6 C 0.1247(3) 0.9287(3) 0.6651(2)
H26_6 H 0.1518 0.9521 0.6885
C36_6 C 0.1572(3) 0.8836(3) 0.63470(19)
H27_6 H 0.2060 0.8778 0.6363
Fe1_13 Fe 1.0000 0.0000 0.72045(4)
C1_6 C 0.7188(3) 0.3157(3) 0.5344(2)
C2_5 C 0.6922(3) 0.3498(3) 0.4936(2)
H1_5 H 0.6585 0.3852 0.4975
C3_5 C 0.7146(4) 0.3323(4) 0.4478(2)
H2_5 H 0.6958 0.3558 0.4208
C4_5 C 0.7638(3) 0.2813(3) 0.4407(2)
H3_5 H 0.7797 0.2704 0.4092
C5_5 C 0.7889(3) 0.2474(3) 0.47980(18)
H4_5 H 0.8215 0.2113 0.4751
C6_6 C 0.7688(2) 0.2633(3) 0.5260(2)
C7_6 C 0.8525(3) 0.2025(3) 0.56662(19)
H5_6 H 0.8818 0.2180 0.5414
C8_6 C 0.8815(3) 0.1538(3) 0.6014(2)
C9_6 C 0.9531(3) 0.1407(4) 0.5995(2)
H6_6 H 0.9818 0.1635 0.5766
C10_6 C 0.9806(3) 0.0937(4) 0.6320(2)
N2_6 N 0.9435(2) 0.0582(3) 0.66366(17)
C11_6 C 0.8753(3) 0.0713(3) 0.6651(2)
H8_6 H 0.8482 0.0479 0.6885
C12_6 C 0.8428(3) 0.1164(3) 0.63470(19)
H9_6 H 0.7940 0.1222 0.6363
H30_6 H 0.9862 0.3009 0.7995
C41_6 C 0.9640(3) 0.1999(3) 0.7879(2)
H31_6 H 0.9235 0.1997 0.8072
C42_6 C 0.9844(2) 0.1388(3) 0.7654(2)
N8_6 N 0.9506(2) 0.0739(2) 0.77138(16)
C43_6 C 0.8884(3) 0.0704(3) 0.78898(19)
H32_6 H 0.8620 0.1115 0.7924
C44_6 C 0.8587(3) 0.0044(3) 0.80347(18)
H33_6 H 0.7581 0.0256 0.7846
Fe1_14 Fe 1.0000 1.0000 0.72045(4)
O2_6 O 0.93155(18) 0.9213(2) 0.71932(15)
C13_6 C 0.9534(3) 0.8632(3) 0.7381(2)
C14_6 C 0.9170(3) 0.8006(4) 0.7330(2)
H10_6 H 0.8753 0.8002 0.7148
C15_6 C 0.9399(3) 0.7402(3) 0.7533(3)
H11_6 H 0.9157 0.6982 0.7474
C16_6 C 0.9996(3) 0.7400(3) 0.7832(2)
H25_6 H 0.9708 0.9136 0.6316
C45_6 C 0.7877(3) 0.9918(3) 0.7985(2)
C46_6 C 0.7615(3) 0.9292(3) 0.8142(2)
H34_6 H 0.7133 0.9213 0.8105
C47_6 C 0.8672(3) 0.8920(3) 0.8379(2)
H35_6 H 0.8955 0.8569 0.8516
C48_6 C 0.8983(3) 0.9525(3) 0.8235(2)
H36_6 H 0.9468 0.9585 0.8273
C15_7 C 0.2598(3) 0.5601(3) 0.0033(3)
C16_7 C 0.2600(3) 0.5004(3) 0.0332(2)
H12_7 H 0.3009 0.4862 0.0495
C17_7 C 0.1999(3) 0.4640(3) 0.0379(2)
H13_7 H 0.1997 0.4235 0.0572
C18_7 C 0.1388(3) 0.4844(2) 0.0154(2)
N3_7 N 0.0739(2) 0.4506(2) 0.02138(16)
C19_7 C 0.0704(3) 0.3884(3) 0.03898(19)
H14_7 H 0.1115 0.3620 0.0424
C20_7 C 0.0044(3) 0.3587(3) 0.05347(18)
H15_7 H 0.0256 0.2581 0.0346
C45_7 C 0.0082(3) 0.7123(3) 0.0485(2)
C46_7 C 0.0708(3) 0.7385(3) 0.0642(2)
H34_7 H 0.0787 0.7867 0.0605
C47_7 C 0.1080(3) 0.6328(3) 0.0879(2)
H35_7 H 0.1431 0.6045 0.1016
C48_7 C 0.0475(3) 0.6017(3) 0.0735(2)
H36_7 H 0.0415 0.5532 0.0773
Fe1_15 Fe 0.0000 0.5000 0.97045(4)
O2_7 O 0.0787(2) 0.56845(18) 0.96932(15)
C13_7 C 0.1368(3) 0.5466(3) 0.9881(2)
C14_7 C 0.1994(4) 0.5830(3) 0.9830(2)
H10_7 H 0.1998 0.6247 0.9648
H11_7 H 0.3018 0.5843 0.9974
C25_7 C 0.3157(3) 0.2188(3) 0.7844(2)
C26_6 C 0.3498(3) 0.1922(3) 0.7436(2)
H19_6 H 0.3852 0.1585 0.7475
C27_6 C 0.3323(4) 0.2146(4) 0.6978(2)
H20_6 H 0.3558 0.1958 0.6708
C28_6 C 0.2813(3) 0.2638(3) 0.6907(2)
H21_6 H 0.2704 0.2797 0.6592
C29_6 C 0.2474(3) 0.2889(3) 0.72980(18)
H22_6 H 0.2113 0.3215 0.7251
C30_7 C 0.2633(3) 0.2688(2) 0.7760(2)
C31_7 C 0.2025(3) 0.3525(3) 0.81662(19)
H23_7 H 0.2180 0.3818 0.7914
C32_7 C 0.1538(3) 0.3815(3) 0.8514(2)
C33_7 C 0.1407(4) 0.4531(3) 0.8495(2)
H24_7 H 0.1635 0.4818 0.8266
C34_7 C 0.0937(4) 0.4806(3) 0.8820(2)
H25_7 H 0.0864 0.5292 0.8816
N7_7 N 0.0582(3) 0.4435(2) 0.91366(17)
C35_7 C 0.0713(3) 0.3753(3) 0.9151(2)
H26_7 H 0.0479 0.3482 0.9385
C36_7 C 0.1164(3) 0.3428(3) 0.88470(19)
H27_7 H 0.1222 0.2940 0.8863
C21_7 C 0.9918(3) 0.2877(3) 0.0485(2)
C22_7 C 0.9292(3) 0.2615(3) 0.0642(2)
H16_7 H 0.9213 0.2133 0.0605
C23_7 C 0.8920(3) 0.3672(3) 0.0879(2)
H17_7 H 0.8569 0.3955 0.1016
C24_7 C 0.9525(3) 0.3983(3) 0.0735(2)
H18_7 H 0.9585 0.4468 0.0773
C39_7 C 0.7402(3) 0.4399(3) 0.0033(3)
C40_7 C 0.7400(3) 0.4996(3) 0.0332(2)
H30_7 H 0.6991 0.5138 0.0495
C41_7 C 0.8001(3) 0.5360(3) 0.0379(2)
H31_7 H 0.8003 0.5765 0.0572
C42_7 C 0.8612(3) 0.5156(2) 0.0154(2)
N8_7 N 0.9261(2) 0.5494(2) 0.02138(16)
C43_7 C 0.9296(3) 0.6116(3) 0.03898(19)
H32_7 H 0.8885 0.6380 0.0424
C44_7 C 0.9956(3) 0.6413(3) 0.05347(18)
H33_7 H 0.9744 0.7419 0.0346
Fe1_16 Fe 1.0000 0.5000 0.97045(4)
C1_7 C 0.6843(3) 0.7812(3) 0.7844(2)
C2_6 C 0.6502(3) 0.8078(3) 0.7436(2)
H1_6 H 0.6148 0.8415 0.7475
C3_6 C 0.6677(4) 0.7854(4) 0.6978(2)
H2_6 H 0.6442 0.8042 0.6708
C4_6 C 0.7187(3) 0.7362(3) 0.6907(2)
H3_6 H 0.7296 0.7203 0.6592
C5_6 C 0.7526(3) 0.7111(3) 0.72980(18)
H4_6 H 0.7887 0.6785 0.7251
C6_7 C 0.7367(3) 0.7312(2) 0.7760(2)
C7_7 C 0.7975(3) 0.6475(3) 0.81662(19)
H5_7 H 0.7820 0.6182 0.7914
C8_7 C 0.8462(3) 0.6185(3) 0.8514(2)
C9_7 C 0.8593(4) 0.5469(3) 0.8495(2)
H6_7 H 0.8365 0.5182 0.8266
C10_7 C 0.9063(4) 0.5194(3) 0.8820(2)
H7_7 H 0.9136 0.4708 0.8816
N2_7 N 0.9418(3) 0.5565(2) 0.91366(17)
C11_7 C 0.9287(3) 0.6247(3) 0.9151(2)
H8_7 H 0.9521 0.6518 0.9385
C12_7 C 0.8836(3) 0.6572(3) 0.88470(19)
H9_7 H 0.8778 0.7060 0.8863
O5_7 O 0.9213(2) 0.43155(18) 0.96932(15)
C37_7 C 0.8632(3) 0.4534(3) 0.9881(2)
C38_7 C 0.8006(4) 0.4170(3) 0.9830(2)
H28_7 H 0.8002 0.3753 0.9648
H29_7 H 0.6982 0.4157 0.9974
Fe1_17 Fe 0.5000 0.0000 0.02955(4)
C1_8 C 0.7812(3) 0.3157(3) 0.2156(2)
C2_7 C 0.8078(3) 0.3498(3) 0.2564(2)
H1_7 H 0.8415 0.3852 0.2525
C3_7 C 0.7854(4) 0.3323(4) 0.3022(2)
H2_7 H 0.8042 0.3558 0.3292
C4_7 C 0.7362(3) 0.2813(3) 0.3093(2)
H3_7 H 0.7203 0.2704 0.3408
C5_7 C 0.7111(3) 0.2474(3) 0.27020(18)
H4_7 H 0.6785 0.2113 0.2749
C6_8 C 0.7312(2) 0.2633(3) 0.2240(2)
C7_8 C 0.6475(3) 0.2025(3) 0.18338(19)
H5_8 H 0.6182 0.2180 0.2086
C8_8 C 0.6185(3) 0.1538(3) 0.1486(2)
C9_8 C 0.5469(3) 0.1407(4) 0.1505(2)
H6_8 H 0.5182 0.1635 0.1734
C10_8 C 0.5194(3) 0.0937(4) 0.1180(2)
H7_8 H 0.4708 0.0864 0.1184
N2_8 N 0.5565(2) 0.0582(3) 0.08634(17)
C11_8 C 0.6247(3) 0.0713(3) 0.0849(2)
H8_8 H 0.6518 0.0479 0.0615
C12_8 C 0.6572(3) 0.1164(3) 0.11530(19)
H9_8 H 0.7060 0.1222 0.1137
O5_8 O 0.43155(18) 0.0787(2) 0.03068(15)
C37_8 C 0.4534(3) 0.1368(3) 0.0119(2)
C38_8 C 0.4170(3) 0.1994(4) 0.0170(2)
H28_8 H 0.3753 0.1998 0.0352
H29_8 H 0.4157 0.3018 0.0026
C21_8 C 0.2877(3) 0.0082(3) 0.9515(2)
C22_8 C 0.2615(3) 0.0708(3) 0.9358(2)
H16_8 H 0.2133 0.0787 0.9395
C23_8 C 0.3672(3) 0.1080(3) 0.9121(2)
H17_8 H 0.3955 0.1431 0.8984
C24_8 C 0.3983(3) 0.0475(3) 0.9265(2)
H18_8 H 0.4468 0.0415 0.9227
C39_8 C 0.4399(3) 0.2598(3) 0.9967(3)
C40_8 C 0.4996(3) 0.2600(3) 0.9668(2)
H30_8 H 0.5138 0.3009 0.9505
C41_8 C 0.5360(3) 0.1999(3) 0.9621(2)
H31_8 H 0.5765 0.1997 0.9428
C42_8 C 0.5156(2) 0.1388(3) 0.9846(2)
N8_8 N 0.5494(2) 0.0739(2) 0.97862(16)
C43_8 C 0.6116(3) 0.0704(3) 0.96102(19)
H32_8 H 0.6380 0.1115 0.9576
C44_8 C 0.6413(3) 0.0044(3) 0.94653(18)
H33_8 H 0.7419 0.0256 0.9654
Fe1_18 Fe 0.5000 1.0000 0.02955(4)
O2_8 O 0.56845(18) 0.9213(2) 0.03068(15)
C13_8 C 0.5466(3) 0.8632(3) 0.0119(2)
C14_8 C 0.5830(3) 0.8006(4) 0.0170(2)
H10_8 H 0.6247 0.8002 0.0352
H11_8 H 0.5843 0.6982 0.0026
C25_8 C 0.2188(3) 0.6843(3) 0.2156(2)
C26_7 C 0.1922(3) 0.6502(3) 0.2564(2)
H19_7 H 0.1585 0.6148 0.2525
C27_7 C 0.2146(4) 0.6677(4) 0.3022(2)
H20_7 H 0.1958 0.6442 0.3292
C28_7 C 0.2638(3) 0.7187(3) 0.3093(2)
H21_7 H 0.2797 0.7296 0.3408
C29_7 C 0.2889(3) 0.7526(3) 0.27020(18)
H22_7 H 0.3215 0.7887 0.2749
C30_8 C 0.2688(2) 0.7367(3) 0.2240(2)
C31_8 C 0.3525(3) 0.7975(3) 0.18338(19)
H23_8 H 0.3818 0.7820 0.2086
C32_8 C 0.3815(3) 0.8462(3) 0.1486(2)
C33_8 C 0.4531(3) 0.8593(4) 0.1505(2)
H24_8 H 0.4818 0.8365 0.1734
C34_8 C 0.4806(3) 0.9063(4) 0.1180(2)
H25_8 H 0.5292 0.9136 0.1184
N7_8 N 0.4435(2) 0.9418(3) 0.08634(17)
C35_8 C 0.3753(3) 0.9287(3) 0.0849(2)
H26_8 H 0.3482 0.9521 0.0615
C36_8 C 0.3428(3) 0.8836(3) 0.11530(19)
H27_8 H 0.2940 0.8778 0.1137
C15_8 C 0.5601(3) 0.7402(3) 0.9967(3)
C16_8 C 0.5004(3) 0.7400(3) 0.9668(2)
H12_8 H 0.4862 0.6991 0.9505
C17_8 C 0.4640(3) 0.8001(3) 0.9621(2)
H13_8 H 0.4235 0.8003 0.9428
C18_8 C 0.4844(2) 0.8612(3) 0.9846(2)
N3_8 N 0.4506(2) 0.9261(2) 0.97862(16)
C19_8 C 0.3884(3) 0.9296(3) 0.96102(19)
H14_8 H 0.3620 0.8885 0.9576
C20_8 C 0.3587(3) 0.9956(3) 0.94653(18)
H15_8 H 0.2581 0.9744 0.9654
C45_8 C 0.7123(3) 0.9918(3) 0.9515(2)
C46_8 C 0.7385(3) 0.9292(3) 0.9358(2)
H34_8 H 0.7867 0.9213 0.9395
C47_8 C 0.6328(3) 0.8920(3) 0.9121(2)
H35_8 H 0.6045 0.8569 0.8984
C48_8 C 0.6017(3) 0.9525(3) 0.9265(2)
H36_8 H 0.5532 0.9585 0.9227
C2_8 C 0.1922(3) 0.8498(3) 0.9936(2)
H1_8 H 0.1585 0.8852 0.9975
C3_8 C 0.2146(4) 0.8323(4) 0.9478(2)
H2_8 H 0.1958 0.8558 0.9208
C4_8 C 0.2638(3) 0.7813(3) 0.9407(2)
H3_8 H 0.2797 0.7704 0.9092
C5_8 C 0.2889(3) 0.7474(3) 0.97980(18)
H4_8 H 0.3215 0.7113 0.9751
C26_8 C 0.8078(3) 0.1502(3) 0.9936(2)
H19_8 H 0.8415 0.1148 0.9975
C27_8 C 0.7854(4) 0.1677(4) 0.9478(2)
H20_8 H 0.8042 0.1442 0.9208
C28_8 C 0.7362(3) 0.2187(3) 0.9407(2)
H21_8 H 0.7203 0.2296 0.9092
C29_8 C 0.7111(3) 0.2526(3) 0.97980(18)
H22_8 H 0.6785 0.2887 0.9751
loop_
_geom_bond_atom_site_label_1
_geom_bond_atom_site_label_2
_geom_bond_site_symmetry_1
_geom_bond_site_symmetry_2
C2 H1 1_555 1_555
C3 C2 1_555 1_555
H2 C3 1_555 1_555
C4 C3 1_555 1_555
H3 C4 1_555 1_555
C5 C4 1_555 1_555
H4 C5 1_555 1_555
C26 H19 1_555 1_555
C27 C26 1_555 1_555
H20 C27 1_555 1_555
C28 C27 1_555 1_555
H21 C28 1_555 1_555
C29 C28 1_555 1_555
H22 C29 1_555 1_555
Fe1 N2 1_555 1_555
Fe2 O1 1_555 1_555
O1 C1 1_555 1_555
C6 C1 1_555 1_555
N1 Fe2 1_555 1_555
C7 N1 1_555 1_555
H5 C7 1_555 1_555
C8 C7 1_555 1_555
C9 C8 1_555 1_555
H6 C9 1_555 1_555
C10 C9 1_555 1_555
H7 C10 1_555 1_555
N2 C10 1_555 1_555
C11 N2 1_555 1_555
H8 C11 1_555 1_555
C12 C8 1_555 1_555
H9 C12 1_555 1_555
O2 Fe1 1_555 1_555
C13 O2 1_555 1_555
C14 C13 1_555 1_555
H10 C14 1_555 1_555
C15 C14 1_555 1_555
H11 C15 1_555 1_555
C16 C15 1_555 1_555
H12 C16 1_555 1_555
C17 C16 1_555 1_555
H13 C17 1_555 1_555
C18 C13 1_555 1_555
N3 Fe1 1_555 1_555
C19 N3 1_555 1_555
H14 C19 1_555 1_555
C20 C19 1_555 1_555
C21 C20 1_555 1_555
H15 C21 1_555 1_555
C22 C21 1_555 1_555
H16 C22 1_555 1_555
N4 C22 1_555 1_555
C23 N4 1_555 1_555
H17 C23 1_555 1_555
C24 C20 1_555 1_555
H18 C24 1_555 1_555
Fe3 N4 1_555 1_555
Fe4 O3 1_555 1_555
Fe5 N9 1_555 1_555
O3 C25 1_555 1_555
O4 Fe2 1_555 1_555
C30 C25 1_555 1_555
N5 Fe4 1_555 1_555
N6 Fe2 1_555 1_555
C31 N5 1_555 1_555
H23 C31 1_555 1_555
C32 C31 1_555 1_555
C33 C32 1_555 1_555
H24 C33 1_555 1_555
C34 C33 1_555 1_555
H25 C34 1_555 1_555
N7 Fe1 1_555 1_555
C35 N7 1_555 1_555
H26 C35 1_555 1_555
C36 C32 1_555 1_555
H27 C36 1_555 1_555
O5 Fe1 1_555 1_555
C37 O5 1_555 1_555
C38 C37 1_555 1_555
H28 C38 1_555 1_555
C39 C38 1_555 1_555
H29 C39 1_555 1_555
C40 C39 1_555 1_555
H30 C40 1_555 1_555
C41 C40 1_555 1_555
H31 C41 1_555 1_555
C42 C37 1_555 1_555
N8 Fe1 1_555 1_555
C43 N8 1_555 1_555
H32 C43 1_555 1_555
C44 C43 1_555 1_555
C45 C44 1_555 1_555
H33 C45 1_555 1_555
C46 C45 1_555 1_555
H34 C46 1_555 1_555
N9 C46 1_555 1_555
N10 Fe2 1_555 1_555
N11 Fe2 1_555 1_555
C47 N9 1_555 1_555
H35 C47 1_555 1_555
C48 C44 1_555 1_555
H36 C48 1_555 1_555
C6 N1 1_555 1_555
C11 C12 1_555 1_555
C17 C18 1_555 1_555
C18 N3 1_555 1_555
C23 C24 1_555 1_555
C30 N5 1_555 1_555
C34 N7 1_555 1_555
C35 C36 1_555 1_555
C41 C42 1_555 1_555
C42 N8 1_555 1_555
C47 C48 1_555 1_555
Fe1_2 N2_2 1_555 1_555
Fe2_2 O1_2 1_555 1_555
O1_2 C1_2 1_555 1_555
C6_2 C1_2 1_555 1_555
N1_2 Fe2_2 1_555 1_555
C7_2 N1_2 1_555 1_555
H5_2 C7_2 1_555 1_555
C8_2 C7_2 1_555 1_555
C9_2 C8_2 1_555 1_555
H6_2 C9_2 1_555 1_555
C10_2 C9_2 1_555 1_555
H7_2 C10_2 1_555 1_555
N2_2 C10_2 1_555 1_555
C11_2 N2_2 1_555 1_555
H8_2 C11_2 1_555 1_555
C12_2 C8_2 1_555 1_555
H9_2 C12_2 1_555 1_555
O2_2 Fe1_2 1_555 1_555
C13_2 O2_2 1_555 1_555
C14_2 C13_2 1_555 1_555
H10_2 C14_2 1_555 1_555
C15_2 C14_2 1_555 1_555
H11_2 C15_2 1_555 1_555
C16_2 C15_2 1_555 1_555
H12_2 C16_2 1_555 1_555
C17_2 C16_2 1_555 1_555
H13_2 C17_2 1_555 1_555
C18_2 C13_2 1_555 1_555
N3_2 Fe1_2 1_555 1_555
C19_2 N3_2 1_555 1_555
H14_2 C19_2 1_555 1_555
C20_2 C19_2 1_555 1_555
C21_2 C20_2 1_555 1_555
H15_2 C21_2 1_555 1_555
C22_2 C21_2 1_555 1_555
H16_2 C22_2 1_555 1_555
N4_2 C22_2 1_555 1_555
C23_2 N4_2 1_555 1_555
H17_2 C23_2 1_555 1_555
C24_2 C20_2 1_555 1_555
H18_2 C24_2 1_555 1_555
Fe3_2 N4_2 1_555 1_555
Fe4_2 O3_2 1_555 1_555
Fe5_2 N9_2 1_555 1_555
O3_2 C25_2 1_555 1_555
O4_2 Fe2_2 1_555 1_555
C30_2 C25_2 1_555 1_555
N5_2 Fe4_2 1_555 1_555
N6_2 Fe2_2 1_555 1_555
C31_2 N5_2 1_555 1_555
H23_2 C31_2 1_555 1_555
C32_2 C31_2 1_555 1_555
C33_2 C32_2 1_555 1_555
H24_2 C33_2 1_555 1_555
C34_2 C33_2 1_555 1_555
H25_2 C34_2 1_555 1_555
N7_2 Fe1_2 1_555 1_555
C35_2 N7_2 1_555 1_555
H26_2 C35_2 1_555 1_555
C36_2 C32_2 1_555 1_555
H27_2 C36_2 1_555 1_555
O5_2 Fe1_2 1_555 1_555
C37_2 O5_2 1_555 1_555
C38_2 C37_2 1_555 1_555
H28_2 C38_2 1_555 1_555
C39_2 C38_2 1_555 1_555
H29_2 C39_2 1_555 1_555
C40_2 C39_2 1_555 1_555
H30_2 C40_2 1_555 1_555
C41_2 C40_2 1_555 1_555
H31_2 C41_2 1_555 1_555
C42_2 C37_2 1_555 1_555
N8_2 Fe1_2 1_555 1_555
C43_2 N8_2 1_555 1_555
H32_2 C43_2 1_555 1_555
C44_2 C43_2 1_555 1_555
C45_2 C44_2 1_555 1_555
H33_2 C45_2 1_555 1_555
C46_2 C45_2 1_555 1_555
H34_2 C46_2 1_555 1_555
N9_2 C46_2 1_555 1_555
N10_2 Fe2_2 1_555 1_555
N11_2 Fe2_2 1_555 1_555
C47_2 N9_2 1_555 1_555
H35_2 C47_2 1_555 1_555
C48_2 C44_2 1_555 1_555
H36_2 C48_2 1_555 1_555
C6_2 N1_2 1_555 1_555
C11_2 C12_2 1_555 1_555
C17_2 C18_2 1_555 1_555
C18_2 N3_2 1_555 1_555
C23_2 C24_2 1_555 1_555
C30_2 N5_2 1_555 1_555
C34_2 N7_2 1_555 1_555
C35_2 C36_2 1_555 1_555
C41_2 C42_2 1_555 1_555
C42_2 N8_2 1_555 1_555
C47_2 C48_2 1_555 1_555
O4_3 Fe4 1_555 1_555
N6_3 Fe4 1_555 1_555
N10_3 Fe4 1_555 1_555
N11_3 Fe4 1_555 1_555
O4_4 Fe4_2 1_555 1_555
N6_4 Fe4_2 1_555 1_555
N10_4 Fe4_2 1_555 1_555
N11_4 Fe4_2 1_555 1_555
Fe1_3 N2_3 1_555 1_555
Fe5_2 O1_3 1_555 1_555
O1_3 C1_3 1_555 1_555
C1_3 C2_2 1_555 1_555
C2_2 H1_2 1_555 1_555
C3_2 C2_2 1_555 1_555
H2_2 C3_2 1_555 1_555
C4_2 C3_2 1_555 1_555
H3_2 C4_2 1_555 1_555
C5_2 C4_2 1_555 1_555
H4_2 C5_2 1_555 1_555
C6_3 C1_3 1_555 1_555
N1_3 Fe5_2 1_555 1_555
C7_3 N1_3 1_555 1_555
H5_3 C7_3 1_555 1_555
C8_3 C7_3 1_555 1_555
C9_3 C8_3 1_555 1_555
H6_3 C9_3 1_555 1_555
C10_3 C9_3 1_555 1_555
N2_3 C10_3 1_555 1_555
C11_3 N2_3 1_555 1_555
H8_3 C11_3 1_555 1_555
C12_3 C8_3 1_555 1_555
H9_3 C12_3 1_555 1_555
O2_3 Fe1_3 1_555 1_555
C13_3 O2_3 1_555 1_555
C14_3 C13_3 1_555 1_555
H10_3 C14_3 1_555 1_555
C15_3 C14_3 1_555 1_555
H11_3 C15_3 1_555 1_555
C16_3 C15_3 1_555 1_555
Fe5 N9_3 1_555 1_555
O4_5 Fe5_2 1_555 1_555
N6_5 Fe5_2 1_555 1_555
H31_3 C41_3 1_555 1_555
N8_3 Fe1_3 1_555 1_555
C43_3 N8_3 1_555 1_555
H32_3 C43_3 1_555 1_555
C44_3 C43_3 1_555 1_555
C45_3 C44_3 1_555 1_555
H33_3 C45_3 1_555 1_555
C46_3 C45_3 1_555 1_555
H34_3 C46_3 1_555 1_555
N9_3 C46_3 1_555 1_555
N10_5 Fe5_2 1_555 1_555
C47_3 N9_3 1_555 1_555
H35_3 C47_3 1_555 1_555
C48_3 C44_3 1_555 1_555
H36_3 C48_3 1_555 1_555
C5_2 C6_3 1_555 1_555
C6_3 N1_3 1_555 1_555
C11_3 C12_3 1_555 1_555
C41_3 C42_3 1_555 1_555
C42_3 N8_3 1_555 1_555
C47_3 C48_3 1_555 1_555
H13_3 C17_3 1_555 1_555
N3_3 Fe1_4 1_555 1_555
C19_3 N3_3 1_555 1_555
H14_3 C19_3 1_555 1_555
C20_3 C19_3 1_555 1_555
C21_3 C20_3 1_555 1_555
H15_3 C21_3 1_555 1_555
C22_3 C21_3 1_555 1_555
H16_3 C22_3 1_555 1_555
N4_3 C22_3 1_555 1_555
C23_3 N4_3 1_555 1_555
H17_3 C23_3 1_555 1_555
C24_3 C20_3 1_555 1_555
H18_3 C24_3 1_555 1_555
Fe3 N4_3 1_555 1_555
Fe3_2 O3_3 1_555 1_555
O3_3 C25_3 1_555 1_555
C25_3 C26_2 1_555 1_555
C26_2 H19_2 1_555 1_555
C27_2 C26_2 1_555 1_555
H20_2 C27_2 1_555 1_555
C28_2 C27_2 1_555 1_555
H21_2 C28_2 1_555 1_555
C29_2 C28_2 1_555 1_555
H22_2 C29_2 1_555 1_555
C30_3 C25_3 1_555 1_555
N5_3 Fe3_2 1_555 1_555
C31_3 N5_3 1_555 1_555
H23_3 C31_3 1_555 1_555
C32_3 C31_3 1_555 1_555
C33_3 C32_3 1_555 1_555
H24_3 C33_3 1_555 1_555
C34_3 C33_3 1_555 1_555
N7_3 Fe1_4 1_555 1_555
C35_3 N7_3 1_555 1_555
H26_3 C35_3 1_555 1_555
C36_3 C32_3 1_555 1_555
H27_3 C36_3 1_555 1_555
O5_3 Fe1_4 1_555 1_555
C37_3 O5_3 1_555 1_555
C38_3 C37_3 1_555 1_555
H28_3 C38_3 1_555 1_555
C39_3 C38_3 1_555 1_555
H29_3 C39_3 1_555 1_555
C40_3 C39_3 1_555 1_555
C17_3 C18_3 1_555 1_555
C18_3 N3_3 1_555 1_555
C23_3 C24_3 1_555 1_555
C29_2 C30_3 1_555 1_555
C30_3 N5_3 1_555 1_555
C34_3 N7_3 1_555 1_555
C35_3 C36_3 1_555 1_555
Fe1_5 N2_4 1_555 1_555
Fe3 O1_4 1_555 1_555
O1_4 C1_4 1_555 1_555
C1_4 C2_3 1_555 1_555
C2_3 H1_3 1_555 1_555
C3_3 C2_3 1_555 1_555
H2_3 C3_3 1_555 1_555
C4_3 C3_3 1_555 1_555
H3_3 C4_3 1_555 1_555
C5_3 C4_3 1_555 1_555
H4_3 C5_3 1_555 1_555
C6_4 C1_4 1_555 1_555
N1_4 Fe3 1_555 1_555
C7_4 N1_4 1_555 1_555
H5_4 C7_4 1_555 1_555
C8_4 C7_4 1_555 1_555
C9_4 C8_4 1_555 1_555
H6_4 C9_4 1_555 1_555
C10_4 C9_4 1_555 1_555
N2_4 C10_4 1_555 1_555
C11_4 N2_4 1_555 1_555
H8_4 C11_4 1_555 1_555
C12_4 C8_4 1_555 1_555
H9_4 C12_4 1_555 1_555
O2_4 Fe1_5 1_555 1_555
C13_4 O2_4 1_555 1_555
C14_4 C13_4 1_555 1_555
H10_4 C14_4 1_555 1_555
C15_4 C14_4 1_555 1_555
H11_4 C15_4 1_555 1_555
C16_4 C15_4 1_555 1_555
O4_6 Fe3 1_555 1_555
N6_6 Fe3 1_555 1_555
H31_4 C41_4 1_555 1_555
N8_4 Fe1_5 1_555 1_555
C43_4 N8_4 1_555 1_555
H32_4 C43_4 1_555 1_555
C44_4 C43_4 1_555 1_555
C45_4 C44_4 1_555 1_555
H33_4 C45_4 1_555 1_555
C46_4 C45_4 1_555 1_555
H34_4 C46_4 1_555 1_555
N10_5 C46_4 1_555 1_555
C47_4 N10_5 1_555 1_555
H35_4 C47_4 1_555 1_555
C48_4 C44_4 1_555 1_555
H36_4 C48_4 1_555 1_555
C5_3 C6_4 1_555 1_555
C6_4 N1_4 1_555 1_555
C11_4 C12_4 1_555 1_555
C41_4 C42_4 1_555 1_555
C42_4 N8_4 1_555 1_555
C47_4 C48_4 1_555 1_555
H13_4 C17_4 1_555 1_555
N3_4 Fe1_6 1_555 1_555
C19_4 N3_4 1_555 1_555
H14_4 C19_4 1_555 1_555
C20_4 C19_4 1_555 1_555
C21_4 C20_4 1_555 1_555
H15_4 C21_4 1_555 1_555
C22_4 C21_4 1_555 1_555
H16_4 C22_4 1_555 1_555
N4_4 C22_4 1_555 1_555
C23_4 N4_4 1_555 1_555
H17_4 C23_4 1_555 1_555
C24_4 C20_4 1_555 1_555
H18_4 C24_4 1_555 1_555
Fe3_2 N4_4 1_555 1_555
Fe5 O3_4 1_555 1_555
O3_4 C25_4 1_555 1_555
C25_4 C26_3 1_555 1_555
C26_3 H19_3 1_555 1_555
C27_3 C26_3 1_555 1_555
H20_3 C27_3 1_555 1_555
C28_3 C27_3 1_555 1_555
H21_3 C28_3 1_555 1_555
C29_3 C28_3 1_555 1_555
H22_3 C29_3 1_555 1_555
C30_4 C25_4 1_555 1_555
N5_4 Fe5 1_555 1_555
C31_4 N5_4 1_555 1_555
H23_4 C31_4 1_555 1_555
C32_4 C31_4 1_555 1_555
C33_4 C32_4 1_555 1_555
H24_4 C33_4 1_555 1_555
C34_4 C33_4 1_555 1_555
N7_4 Fe1_6 1_555 1_555
C35_4 N7_4 1_555 1_555
H26_4 C35_4 1_555 1_555
C36_4 C32_4 1_555 1_555
H27_4 C36_4 1_555 1_555
O5_4 Fe1_6 1_555 1_555
C37_4 O5_4 1_555 1_555
C38_4 C37_4 1_555 1_555
H28_4 C38_4 1_555 1_555
C39_4 C38_4 1_555 1_555
H29_4 C39_4 1_555 1_555
C40_4 C39_4 1_555 1_555
C17_4 C18_4 1_555 1_555
C18_4 N3_4 1_555 1_555
C23_4 C24_4 1_555 1_555
C29_3 C30_4 1_555 1_555
C30_4 N5_4 1_555 1_555
C34_4 N7_4 1_555 1_555
C35_4 C36_4 1_555 1_555
O4_7 Fe3_2 1_555 1_555
N6_7 Fe3_2 1_555 1_555
O4_8 Fe5 1_555 1_555
N6_8 Fe5 1_555 1_555
H13_5 C17_5 1_555 1_555
N3_5 Fe1_7 1_555 1_555
C19_5 N3_5 1_555 1_555
H14_5 C19_5 1_555 1_555
C20_5 C19_5 1_555 1_555
O4_5 C25_5 1_555 1_555
C25_5 C26_4 1_555 1_555
C26_4 H19_4 1_555 1_555
C27_4 C26_4 1_555 1_555
H20_4 C27_4 1_555 1_555
C28_4 C27_4 1_555 1_555
H21_4 C28_4 1_555 1_555
C29_4 C28_4 1_555 1_555
H22_4 C29_4 1_555 1_555
C30_5 C25_5 1_555 1_555
C31_5 N6_5 1_555 1_555
H23_5 C31_5 1_555 1_555
C32_5 C31_5 1_555 1_555
C33_5 C32_5 1_555 1_555
H24_5 C33_5 1_555 1_555
C34_5 C33_5 1_555 1_555
N7_5 Fe1_7 1_555 1_555
C35_5 N7_5 1_555 1_555
H26_5 C35_5 1_555 1_555
C36_5 C32_5 1_555 1_555
H27_5 C36_5 1_555 1_555
C17_5 C18_5 1_555 1_555
C18_5 N3_5 1_555 1_555
C29_4 C30_5 1_555 1_555
C30_5 N6_5 1_555 1_555
C34_5 N7_5 1_555 1_555
C35_5 C36_5 1_555 1_555
O2_5 Fe1_8 1_555 1_555
C13_5 O2_5 1_555 1_555
C14_5 C13_5 1_555 1_555
H10_5 C14_5 1_555 1_555
C15_5 C14_5 1_555 1_555
H11_5 C15_5 1_555 1_555
C16_5 C15_5 1_555 1_555
C46_5 C45_5 1_555 1_555
H34_5 C46_5 1_555 1_555
N10_2 C46_5 1_555 1_555
C47_5 N10_2 1_555 1_555
H35_5 C47_5 1_555 1_555
H36_5 C48_5 1_555 1_555
C47_5 C48_5 1_555 1_555
C22_5 C21_5 1_555 1_555
H16_5 C22_5 1_555 1_555
N10_4 C22_5 1_555 1_555
C23_5 N10_4 1_555 1_555
H17_5 C23_5 1_555 1_555
H18_5 C24_5 1_555 1_555
O5_5 Fe1_9 1_555 1_555
C37_5 O5_5 1_555 1_555
C38_5 C37_5 1_555 1_555
H28_5 C38_5 1_555 1_555
C39_5 C38_5 1_555 1_555
H29_5 C39_5 1_555 1_555
C40_5 C39_5 1_555 1_555
C23_5 C24_5 1_555 1_555
Fe1_10 N2_5 1_555 1_555
O4_7 C1_5 1_555 1_555
C1_5 C2_4 1_555 1_555
C2_4 H1_4 1_555 1_555
C3_4 C2_4 1_555 1_555
H2_4 C3_4 1_555 1_555
C4_4 C3_4 1_555 1_555
H3_4 C4_4 1_555 1_555
C5_4 C4_4 1_555 1_555
H4_4 C5_4 1_555 1_555
C6_5 C1_5 1_555 1_555
C7_5 N6_7 1_555 1_555
H5_5 C7_5 1_555 1_555
C8_5 C7_5 1_555 1_555
C9_5 C8_5 1_555 1_555
H6_5 C9_5 1_555 1_555
C10_5 C9_5 1_555 1_555
N2_5 C10_5 1_555 1_555
C11_5 N2_5 1_555 1_555
H8_5 C11_5 1_555 1_555
C12_5 C8_5 1_555 1_555
H9_5 C12_5 1_555 1_555
H31_5 C41_5 1_555 1_555
N8_5 Fe1_10 1_555 1_555
C43_5 N8_5 1_555 1_555
H32_5 C43_5 1_555 1_555
C44_5 C43_5 1_555 1_555
C5_4 C6_5 1_555 1_555
C6_5 N6_7 1_555 1_555
C11_5 C12_5 1_555 1_555
C41_5 C42_5 1_555 1_555
C42_5 N8_5 1_555 1_555
C22_6 C21_6 1_555 1_555
H16_6 C22_6 1_555 1_555
N10 C22_6 1_555 1_555
C23_6 N10 1_555 1_555
H17_6 C23_6 1_555 1_555
H18_6 C24_6 1_555 1_555
O5_6 Fe1_11 1_555 1_555
C37_6 O5_6 1_555 1_555
C38_6 C37_6 1_555 1_555
H28_6 C38_6 1_555 1_555
C39_6 C38_6 1_555 1_555
H29_6 C39_6 1_555 1_555
C40_6 C39_6 1_555 1_555
C23_6 C24_6 1_555 1_555
H13_6 C17_6 1_555 1_555
N3_6 Fe1_12 1_555 1_555
C19_6 N3_6 1_555 1_555
H14_6 C19_6 1_555 1_555
C20_6 C19_6 1_555 1_555
O4_6 C25_6 1_555 1_555
C25_6 C26_5 1_555 1_555
C26_5 H19_5 1_555 1_555
C27_5 C26_5 1_555 1_555
H20_5 C27_5 1_555 1_555
C28_5 C27_5 1_555 1_555
H21_5 C28_5 1_555 1_555
C29_5 C28_5 1_555 1_555
H22_5 C29_5 1_555 1_555
C30_6 C25_6 1_555 1_555
C31_6 N6_6 1_555 1_555
H23_6 C31_6 1_555 1_555
C32_6 C31_6 1_555 1_555
C33_6 C32_6 1_555 1_555
H24_6 C33_6 1_555 1_555
C34_6 C33_6 1_555 1_555
N7_6 Fe1_12 1_555 1_555
C35_6 N7_6 1_555 1_555
H26_6 C35_6 1_555 1_555
C36_6 C32_6 1_555 1_555
H27_6 C36_6 1_555 1_555
C17_6 C18_6 1_555 1_555
C18_6 N3_6 1_555 1_555
C29_5 C30_6 1_555 1_555
C30_6 N6_6 1_555 1_555
C34_6 N7_6 1_555 1_555
C35_6 C36_6 1_555 1_555
Fe1_13 N2_6 1_555 1_555
O4_8 C1_6 1_555 1_555
C1_6 C2_5 1_555 1_555
C2_5 H1_5 1_555 1_555
C3_5 C2_5 1_555 1_555
H2_5 C3_5 1_555 1_555
C4_5 C3_5 1_555 1_555
H3_5 C4_5 1_555 1_555
C5_5 C4_5 1_555 1_555
H4_5 C5_5 1_555 1_555
C6_6 C1_6 1_555 1_555
C7_6 N6_8 1_555 1_555
H5_6 C7_6 1_555 1_555
C8_6 C7_6 1_555 1_555
C9_6 C8_6 1_555 1_555
H6_6 C9_6 1_555 1_555
C10_6 C9_6 1_555 1_555
N2_6 C10_6 1_555 1_555
C11_6 N2_6 1_555 1_555
H8_6 C11_6 1_555 1_555
C12_6 C8_6 1_555 1_555
H9_6 C12_6 1_555 1_555
H31_6 C41_6 1_555 1_555
N8_6 Fe1_13 1_555 1_555
C43_6 N8_6 1_555 1_555
H32_6 C43_6 1_555 1_555
C44_6 C43_6 1_555 1_555
C5_5 C6_6 1_555 1_555
C6_6 N6_8 1_555 1_555
C11_6 C12_6 1_555 1_555
C41_6 C42_6 1_555 1_555
C42_6 N8_6 1_555 1_555
O2_6 Fe1_14 1_555 1_555
C13_6 O2_6 1_555 1_555
C14_6 C13_6 1_555 1_555
H10_6 C14_6 1_555 1_555
C15_6 C14_6 1_555 1_555
H11_6 C15_6 1_555 1_555
C16_6 C15_6 1_555 1_555
C46_6 C45_6 1_555 1_555
H34_6 C46_6 1_555 1_555
N10_3 C46_6 1_555 1_555
C47_6 N10_3 1_555 1_555
H35_6 C47_6 1_555 1_555
H36_6 C48_6 1_555 1_555
C47_6 C48_6 1_555 1_555
C16_7 C15_7 1_555 1_555
H12_7 C16_7 1_555 1_555
C17_7 C16_7 1_555 1_555
H13_7 C17_7 1_555 1_555
C19_7 N3_7 1_555 1_555
H14_7 C19_7 1_555 1_555
C20_7 C19_7 1_555 1_555
C46_7 C45_7 1_555 1_555
H34_7 C46_7 1_555 1_555
N11_2 C46_7 1_555 1_555
C47_7 N11_2 1_555 1_555
H35_7 C47_7 1_555 1_555
H36_7 C48_7 1_555 1_555
C17_7 C18_7 1_555 1_555
C18_7 N3_7 1_555 1_555
C47_7 C48_7 1_555 1_555
O2_7 Fe1_15 1_555 1_555
C13_7 O2_7 1_555 1_555
C14_7 C13_7 1_555 1_555
H10_7 C14_7 1_555 1_555
O4 C25_7 1_555 1_555
C25_7 C26_6 1_555 1_555
C26_6 H19_6 1_555 1_555
C27_6 C26_6 1_555 1_555
H20_6 C27_6 1_555 1_555
C28_6 C27_6 1_555 1_555
H21_6 C28_6 1_555 1_555
C29_6 C28_6 1_555 1_555
H22_6 C29_6 1_555 1_555
C30_7 C25_7 1_555 1_555
C31_7 N6 1_555 1_555
H23_7 C31_7 1_555 1_555
C32_7 C31_7 1_555 1_555
C33_7 C32_7 1_555 1_555
H24_7 C33_7 1_555 1_555
C34_7 C33_7 1_555 1_555
H25_7 C34_7 1_555 1_555
N7_7 Fe1_15 1_555 1_555
C35_7 N7_7 1_555 1_555
H26_7 C35_7 1_555 1_555
C36_7 C32_7 1_555 1_555
H27_7 C36_7 1_555 1_555
C29_6 C30_7 1_555 1_555
C30_7 N6 1_555 1_555
C34_7 N7_7 1_555 1_555
C35_7 C36_7 1_555 1_555
C22_7 C21_7 1_555 1_555
H16_7 C22_7 1_555 1_555
N11_4 C22_7 1_555 1_555
C23_7 N11_4 1_555 1_555
H17_7 C23_7 1_555 1_555
H18_7 C24_7 1_555 1_555
C40_7 C39_7 1_555 1_555
H30_7 C40_7 1_555 1_555
C41_7 C40_7 1_555 1_555
H31_7 C41_7 1_555 1_555
C43_7 N8_7 1_555 1_555
H32_7 C43_7 1_555 1_555
C44_7 C43_7 1_555 1_555
C23_7 C24_7 1_555 1_555
C41_7 C42_7 1_555 1_555
C42_7 N8_7 1_555 1_555
Fe1_16 N2_7 1_555 1_555
O4_3 C1_7 1_555 1_555
C1_7 C2_6 1_555 1_555
C2_6 H1_6 1_555 1_555
C3_6 C2_6 1_555 1_555
H2_6 C3_6 1_555 1_555
C4_6 C3_6 1_555 1_555
H3_6 C4_6 1_555 1_555
C5_6 C4_6 1_555 1_555
H4_6 C5_6 1_555 1_555
C6_7 C1_7 1_555 1_555
C7_7 N6_3 1_555 1_555
H5_7 C7_7 1_555 1_555
C8_7 C7_7 1_555 1_555
C9_7 C8_7 1_555 1_555
H6_7 C9_7 1_555 1_555
C10_7 C9_7 1_555 1_555
H7_7 C10_7 1_555 1_555
N2_7 C10_7 1_555 1_555
C11_7 N2_7 1_555 1_555
H8_7 C11_7 1_555 1_555
C12_7 C8_7 1_555 1_555
H9_7 C12_7 1_555 1_555
O5_7 Fe1_16 1_555 1_555
C37_7 O5_7 1_555 1_555
C38_7 C37_7 1_555 1_555
H28_7 C38_7 1_555 1_555
C5_6 C6_7 1_555 1_555
C6_7 N6_3 1_555 1_555
C11_7 C12_7 1_555 1_555
Fe1_17 N2_8 1_555 1_555
O4_4 C1_8 1_555 1_555
C1_8 C2_7 1_555 1_555
C2_7 H1_7 1_555 1_555
C3_7 C2_7 1_555 1_555
H2_7 C3_7 1_555 1_555
C4_7 C3_7 1_555 1_555
H3_7 C4_7 1_555 1_555
C5_7 C4_7 1_555 1_555
H4_7 C5_7 1_555 1_555
C6_8 C1_8 1_555 1_555
C7_8 N6_4 1_555 1_555
H5_8 C7_8 1_555 1_555
C8_8 C7_8 1_555 1_555
C9_8 C8_8 1_555 1_555
H6_8 C9_8 1_555 1_555
C10_8 C9_8 1_555 1_555
H7_8 C10_8 1_555 1_555
N2_8 C10_8 1_555 1_555
C11_8 N2_8 1_555 1_555
H8_8 C11_8 1_555 1_555
C12_8 C8_8 1_555 1_555
H9_8 C12_8 1_555 1_555
O5_8 Fe1_17 1_555 1_555
C37_8 O5_8 1_555 1_555
C38_8 C37_8 1_555 1_555
H28_8 C38_8 1_555 1_555
C5_7 C6_8 1_555 1_555
C6_8 N6_4 1_555 1_555
C11_8 C12_8 1_555 1_555
C22_8 C21_8 1_555 1_555
H16_8 C22_8 1_555 1_555
N11 C22_8 1_555 1_555
C23_8 N11 1_555 1_555
H17_8 C23_8 1_555 1_555
H18_8 C24_8 1_555 1_555
C40_8 C39_8 1_555 1_555
H30_8 C40_8 1_555 1_555
C41_8 C40_8 1_555 1_555
H31_8 C41_8 1_555 1_555
C43_8 N8_8 1_555 1_555
H32_8 C43_8 1_555 1_555
C44_8 C43_8 1_555 1_555
C23_8 C24_8 1_555 1_555
C41_8 C42_8 1_555 1_555
C42_8 N8_8 1_555 1_555
O2_8 Fe1_18 1_555 1_555
C13_8 O2_8 1_555 1_555
C14_8 C13_8 1_555 1_555
H10_8 C14_8 1_555 1_555
O4_2 C25_8 1_555 1_555
C25_8 C26_7 1_555 1_555
C26_7 H19_7 1_555 1_555
C27_7 C26_7 1_555 1_555
H20_7 C27_7 1_555 1_555
C28_7 C27_7 1_555 1_555
H21_7 C28_7 1_555 1_555
C29_7 C28_7 1_555 1_555
H22_7 C29_7 1_555 1_555
C30_8 C25_8 1_555 1_555
C31_8 N6_2 1_555 1_555
H23_8 C31_8 1_555 1_555
C32_8 C31_8 1_555 1_555
C33_8 C32_8 1_555 1_555
H24_8 C33_8 1_555 1_555
C34_8 C33_8 1_555 1_555
H25_8 C34_8 1_555 1_555
N7_8 Fe1_18 1_555 1_555
C35_8 N7_8 1_555 1_555
H26_8 C35_8 1_555 1_555
C36_8 C32_8 1_555 1_555
H27_8 C36_8 1_555 1_555
C29_7 C30_8 1_555 1_555
C30_8 N6_2 1_555 1_555
C34_8 N7_8 1_555 1_555
C35_8 C36_8 1_555 1_555
C16_8 C15_8 1_555 1_555
H12_8 C16_8 1_555 1_555
C17_8 C16_8 1_555 1_555
H13_8 C17_8 1_555 1_555
C19_8 N3_8 1_555 1_555
H14_8 C19_8 1_555 1_555
C20_8 C19_8 1_555 1_555
C46_8 C45_8 1_555 1_555
H34_8 C46_8 1_555 1_555
N11_3 C46_8 1_555 1_555
C47_8 N11_3 1_555 1_555
H35_8 C47_8 1_555 1_555
H36_8 C48_8 1_555 1_555
C17_8 C18_8 1_555 1_555
C18_8 N3_8 1_555 1_555
C47_8 C48_8 1_555 1_555
C2_8 H1_8 1_555 1_555
C3_8 C2_8 1_555 1_555
H2_8 C3_8 1_555 1_555
C4_8 C3_8 1_555 1_555
H3_8 C4_8 1_555 1_555
C5_8 C4_8 1_555 1_555
H4_8 C5_8 1_555 1_555
C26_8 H19_8 1_555 1_555
C27_8 C26_8 1_555 1_555
H20_8 C27_8 1_555 1_555
C28_8 C27_8 1_555 1_555
H21_8 C28_8 1_555 1_555
C29_8 C28_8 1_555 1_555
H22_8 C29_8 1_555 1_555

#END
