
###############################################################################
#
# This file contains modified crystal structure data generated from the
# MOF subset of the Cambridge Structural Database (CSD) v543 
# hosted by the Cambridge Crystallographic Data Centre (CCDC).
#
# This work is licensed under the Creative Commons
# Attribution-NonCommercial-ShareAlike 4.0 International License.
# To view a copy of this license, visit
# http://creativecommons.org/licenses/by-nc-sa/4.0/
# or send a letter to
# Creative Commons, PO Box 1866, Mountain View, CA 94042, USA.
#
# CIF created using the CSD Python API on 29 September 2022
# The structure has been converted into the P1 space group
# The structure has a 3D framework
# The original CSD entry SAKNOJ is in the cubic crystal system
# The framework has been calculated to contain at least 10.0% void space
# The void calculation uses a probe of radius 1.32A, grid spacing 0.4
# H atom positions have been added when not included in the experimental data
# Generated hydrogen atom positions removed from atoms on special positions
#
###############################################################################

data_SAKNOJ
_chemical_formula_moiety         '(C1680 H1632 Cd48 N528 Na54 O636)n'
_symmetry_cell_setting           triclinic
_symmetry_space_group_name_H-M   'P 1'
_symmetry_Int_Tables_number      1
_space_group_name_Hall           'P 1'
loop_
_symmetry_equiv_pos_site_id
_symmetry_equiv_pos_as_xyz
1 x,y,z
_cell_length_a                   45.300(5)
_cell_length_b                   45.300(5)
_cell_length_c                   45.300(5)
_cell_angle_alpha                90
_cell_angle_beta                 90
_cell_angle_gamma                90
_cell_volume                     92959.7
loop_
_atom_site_label
_atom_site_type_symbol
_atom_site_fract_x
_atom_site_fract_y
_atom_site_fract_z
Cd1 Cd 0.063160(9) 0.0632 0.250000(9)
Na1 Na 0.0000 0.2500 0.0000
O1 O 0.04418(17) 0.08730(18) 0.20886(18)
O2 O 0.08750(12) 0.10129(12) 0.2157(2)
O3 O 0.00000(10) 0.25178(11) 0.0518
O4 O 0.0000(3) 0.3036 0.0000
N1 N 0.04994(15) 0.19040(15) 0.11201(14)
H1 H 0.0661 0.1983 0.1052
N2 N 0.00000(17) 0.18906(19) 0.1131
N3 N 0.02597(10) 0.22169(9) 0.08162(9)
C1 C 0.0644(2) 0.1032(2) 0.2039(2)
C2 C 0.06151(14) 0.12487(13) 0.17842(12)
C3 C 0.08406(12) 0.14422(11) 0.17078(11)
H2 H 0.1023 0.1433 0.1807
C4 C 0.07967(12) 0.16488(12) 0.14851(9)
H3 H 0.0949 0.1780 0.1433
C5 C 0.05273(7) 0.16617(7) 0.13388(8)
C6 C 0.03018(12) 0.14682(16) 0.14152(10)
H4 H 0.0120 0.1477 0.1316
C7 C 0.03457(16) 0.1262(2) 0.16380(13)
H5 H 0.0193 0.1131 0.1690
C8 C 0.02487(7) 0.20057(7) 0.10240(10)
C9 C 0.00001(10) 0.23260(10) 0.07117(15)
Cd5 Cd 0.0632 0.250000(9) 0.063160(9)
Cd9 Cd 0.250000(9) 0.4368 0.063160(9)
O8 O 0.20886(18) 0.41270(18) 0.04418(17)
O12 O 0.08730(18) 0.04418(17) 0.29114(18)
O19 O 0.2157(2) 0.39871(12) 0.08750(12)
O23 O 0.10129(12) 0.08750(12) 0.2843(2)
O28 O 0.0518 0.24822(11) 0.00000(10)
O30 O 0.0000 0.1964 0.0000(3)
N7 N 0.11201(14) 0.30960(15) 0.04994(15)
H9 H 0.1052 0.3017 0.0661
N12 N 0.1131 0.31094(19) 0.00000(17)
N17 N 0.08162(9) 0.27831(9) 0.02597(10)
N21 N 0.08162(9) 0.02597(10) 0.22169(9)
N22 N 0.02597(10) 0.08162(9) 0.27831(9)
C13 C 0.2039(2) 0.3968(2) 0.0644(2)
C20 C 0.17842(12) 0.37513(13) 0.06151(14)
C27 C 0.17078(11) 0.35578(11) 0.08406(12)
H16 H 0.1807 0.3567 0.1023
C34 C 0.14851(9) 0.33512(12) 0.07967(12)
H23 H 0.1433 0.3220 0.0949
C41 C 0.13388(8) 0.33383(7) 0.05273(7)
C48 C 0.14152(10) 0.35318(16) 0.03018(12)
H30 H 0.1316 0.3523 0.0120
C55 C 0.16380(13) 0.3738(2) 0.03457(16)
H37 H 0.1690 0.3869 0.0193
C62 C 0.10240(10) 0.29943(7) 0.02487(7)
C67 C 0.07117(15) 0.26740(10) 0.00001(10)
Na1_2 Na 0.0000 0.2500 1.0000
O4_2 O 0.0000(3) 0.3036 1.0000
Cd4 Cd 0.063160(9) 0.0632 0.750000(9)
Cd8 Cd 0.0632 0.250000(9) 0.936840(9)
Cd10 Cd 0.250000(9) 0.4368 0.936840(9)
O7 O 0.04418(17) 0.08730(18) 0.79114(18)
O9 O 0.20886(18) 0.41270(18) 0.95582(17)
O15 O 0.08730(18) 0.04418(17) 0.70886(18)
O18 O 0.08750(12) 0.10129(12) 0.7843(2)
O20 O 0.2157(2) 0.39871(12) 0.91250(12)
O26 O 0.10129(12) 0.08750(12) 0.7157(2)
O27 O 0.00000(10) 0.25178(11) 0.9482
O28_2 O 0.0518 0.24822(11) 1.00000(10)
O30_2 O 0.0000 0.1964 1.0000(3)
N6 N 0.04994(15) 0.19040(15) 0.88799(14)
N8 N 0.11201(14) 0.30960(15) 0.95006(15)
H8 H 0.0661 0.1983 0.8948
H10 H 0.1052 0.3017 0.9339
N11 N 0.00000(17) 0.18906(19) 0.8869
N12_2 N 0.1131 0.31094(19) 1.00000(17)
N16 N 0.02597(10) 0.22169(9) 0.91838(9)
N18 N 0.08162(9) 0.27831(9) 0.97403(10)
N27 N 0.08162(9) 0.02597(10) 0.77831(9)
N28 N 0.02597(10) 0.08162(9) 0.72169(9)
C12 C 0.0644(2) 0.1032(2) 0.7961(2)
C14 C 0.2039(2) 0.3968(2) 0.9356(2)
C19 C 0.06151(14) 0.12487(13) 0.82158(12)
C21 C 0.17842(12) 0.37513(13) 0.93849(14)
C26 C 0.08406(12) 0.14422(11) 0.82922(11)
C28 C 0.17078(11) 0.35578(11) 0.91594(12)
H15 H 0.1023 0.1433 0.8193
H17 H 0.1807 0.3567 0.8977
C33 C 0.07967(12) 0.16488(12) 0.85149(9)
C35 C 0.14851(9) 0.33512(12) 0.92033(12)
H22 H 0.0949 0.1780 0.8567
H24 H 0.1433 0.3220 0.9051
C40 C 0.05273(7) 0.16617(7) 0.86612(8)
C42 C 0.13388(8) 0.33383(7) 0.94727(7)
C47 C 0.03018(12) 0.14682(16) 0.85848(10)
C49 C 0.14152(10) 0.35318(16) 0.96982(12)
H29 H 0.0120 0.1477 0.8684
H31 H 0.1316 0.3523 0.9880
C54 C 0.03457(16) 0.1262(2) 0.83620(13)
C56 C 0.16380(13) 0.3738(2) 0.96543(16)
H36 H 0.0193 0.1131 0.8310
H38 H 0.1690 0.3869 0.9807
C61 C 0.02487(7) 0.20057(7) 0.89760(10)
C63 C 0.10240(10) 0.29943(7) 0.97513(7)
C66 C -0.00001(10) 0.23260(10) 0.92883(15)
C67_2 C 0.07117(15) 0.26740(10) 1.00001(10)
Na1_3 Na 1.0000 0.2500 0.0000
O3_2 O 1.00000(10) 0.25178(11) 0.0518
O4_3 O 1.0000(3) 0.3036 0.0000
N2_2 N 1.00000(17) 0.18906(19) 0.1131
C9_2 C 1.00001(10) 0.23260(10) 0.07117(15)
Cd2 Cd 0.936840(9) 0.0632 0.250000(9)
Cd6 Cd 0.9368 0.250000(9) 0.063160(9)
Cd12 Cd 0.750000(9) 0.4368 0.063160(9)
O5 O 0.95582(17) 0.08730(18) 0.20886(18)
O11 O 0.79114(18) 0.41270(18) 0.04418(17)
O13 O 0.91270(18) 0.04418(17) 0.29114(18)
O16 O 0.91250(12) 0.10129(12) 0.2157(2)
O22 O 0.7843(2) 0.39871(12) 0.08750(12)
O24 O 0.89871(12) 0.08750(12) 0.2843(2)
O29 O 0.9482 0.24822(11) 0.00000(10)
O30_3 O 1.0000 0.1964 0.0000(3)
N4 N 0.95006(15) 0.19040(15) 0.11201(14)
N10 N 0.88799(14) 0.30960(15) 0.04994(15)
H6 H 0.9339 0.1983 0.1052
H12 H 0.8948 0.3017 0.0661
N13 N 0.8869 0.31094(19) 0.00000(17)
N14 N 0.97403(10) 0.22169(9) 0.08162(9)
N20 N 0.91838(9) 0.27831(9) 0.02597(10)
N23 N 0.91838(9) 0.02597(10) 0.22169(9)
N24 N 0.97403(10) 0.08162(9) 0.27831(9)
C10 C 0.9356(2) 0.1032(2) 0.2039(2)
C16 C 0.7961(2) 0.3968(2) 0.0644(2)
C17 C 0.93849(14) 0.12487(13) 0.17842(12)
C23 C 0.82158(12) 0.37513(13) 0.06151(14)
C24 C 0.91594(12) 0.14422(11) 0.17078(11)
C30 C 0.82922(11) 0.35578(11) 0.08406(12)
H13 H 0.8977 0.1433 0.1807
H19 H 0.8193 0.3567 0.1023
C31 C 0.92033(12) 0.16488(12) 0.14851(9)
C37 C 0.85149(9) 0.33512(12) 0.07967(12)
H20 H 0.9051 0.1780 0.1433
H26 H 0.8567 0.3220 0.0949
C38 C 0.94727(7) 0.16617(7) 0.13388(8)
C44 C 0.86612(8) 0.33383(7) 0.05273(7)
C45 C 0.96982(12) 0.14682(16) 0.14152(10)
C51 C 0.85848(10) 0.35318(16) 0.03018(12)
H27 H 0.9880 0.1477 0.1316
H33 H 0.8684 0.3523 0.0120
C52 C 0.96543(16) 0.1262(2) 0.16380(13)
C58 C 0.83620(13) 0.3738(2) 0.03457(16)
H34 H 0.9807 0.1131 0.1690
H40 H 0.8310 0.3869 0.0193
C59 C 0.97513(7) 0.20057(7) 0.10240(10)
C65 C 0.89760(10) 0.29943(7) 0.02487(7)
C68 C 0.92883(15) 0.26740(10) -0.00001(10)
Na1_4 Na 1.0000 0.2500 1.0000
O4_4 O 1.0000(3) 0.3036 1.0000
Cd3 Cd 0.936840(9) 0.0632 0.750000(9)
Cd7 Cd 0.9368 0.250000(9) 0.936840(9)
Cd11 Cd 0.750000(9) 0.4368 0.936840(9)
O6 O 0.95582(17) 0.08730(18) 0.79114(18)
O10 O 0.79114(18) 0.41270(18) 0.95582(17)
O14 O 0.91270(18) 0.04418(17) 0.70886(18)
O17 O 0.91250(12) 0.10129(12) 0.7843(2)
O21 O 0.7843(2) 0.39871(12) 0.91250(12)
O25 O 0.89871(12) 0.08750(12) 0.7157(2)
O27_2 O 1.00000(10) 0.25178(11) 0.9482
O29_2 O 0.9482 0.24822(11) 1.00000(10)
O30_4 O 1.0000 0.1964 1.0000(3)
N5 N 0.95006(15) 0.19040(15) 0.88799(14)
N9 N 0.88799(14) 0.30960(15) 0.95006(15)
H7 H 0.9339 0.1983 0.8948
H11 H 0.8948 0.3017 0.9339
N11_2 N 1.00000(17) 0.18906(19) 0.8869
N13_2 N 0.8869 0.31094(19) 1.00000(17)
N15 N 0.97403(10) 0.22169(9) 0.91838(9)
N19 N 0.91838(9) 0.27831(9) 0.97403(10)
N25 N 0.91838(9) 0.02597(10) 0.77831(9)
N26 N 0.97403(10) 0.08162(9) 0.72169(9)
C11 C 0.9356(2) 0.1032(2) 0.7961(2)
C15 C 0.7961(2) 0.3968(2) 0.9356(2)
C18 C 0.93849(14) 0.12487(13) 0.82158(12)
C22 C 0.82158(12) 0.37513(13) 0.93849(14)
C25 C 0.91594(12) 0.14422(11) 0.82922(11)
C29 C 0.82922(11) 0.35578(11) 0.91594(12)
H14 H 0.8977 0.1433 0.8193
H18 H 0.8193 0.3567 0.8977
C32 C 0.92033(12) 0.16488(12) 0.85149(9)
C36 C 0.85149(9) 0.33512(12) 0.92033(12)
H21 H 0.9051 0.1780 0.8567
H25 H 0.8567 0.3220 0.9051
C39 C 0.94727(7) 0.16617(7) 0.86612(8)
C43 C 0.86612(8) 0.33383(7) 0.94727(7)
C46 C 0.96982(12) 0.14682(16) 0.85848(10)
C50 C 0.85848(10) 0.35318(16) 0.96982(12)
H28 H 0.9880 0.1477 0.8684
H32 H 0.8684 0.3523 0.9880
C53 C 0.96543(16) 0.1262(2) 0.83620(13)
C57 C 0.83620(13) 0.3738(2) 0.96543(16)
H35 H 0.9807 0.1131 0.8310
H39 H 0.8310 0.3869 0.9807
C60 C 0.97513(7) 0.20057(7) 0.89760(10)
C64 C 0.89760(10) 0.29943(7) 0.97513(7)
C66_2 C 0.99999(10) 0.23260(10) 0.92883(15)
C68_2 C 0.92883(15) 0.26740(10) 0.99999(10)
Na1_5 Na 0.7500 0.0000 0.5000
O3_3 O 0.74822(11) 0.00000(10) 0.5518
O4_5 O 0.6964 0.0000(3) 0.5000
N1_2 N 0.80960(15) 0.04994(15) 0.61201(14)
H1_2 H 0.8017 0.0661 0.6052
N2_3 N 0.81094(19) 0.00000(17) 0.6131
N3_2 N 0.77831(9) 0.02597(10) 0.58162(9)
C1_2 C 0.8968(2) 0.0644(2) 0.7039(2)
C2_2 C 0.87513(13) 0.06151(14) 0.67842(12)
C3_2 C 0.85578(11) 0.08406(12) 0.67078(11)
H2_2 H 0.8567 0.1023 0.6807
C4_2 C 0.83512(12) 0.07967(12) 0.64851(9)
H3_2 H 0.8220 0.0949 0.6433
C5_2 C 0.83383(7) 0.05273(7) 0.63388(8)
C6_2 C 0.85318(16) 0.03018(12) 0.64152(10)
H4_2 H 0.8523 0.0120 0.6316
C7_2 C 0.8738(2) 0.03457(16) 0.66380(13)
H5_2 H 0.8869 0.0193 0.6690
C8_2 C 0.79943(7) 0.02487(7) 0.60240(10)
C9_3 C 0.76740(10) 0.00001(10) 0.57117(15)
Cd5_2 Cd 0.750000(9) 0.0632 0.563160(9)
Cd8_2 Cd 0.750000(9) 0.0632 0.436840(9)
Cd9_2 Cd 0.5632 0.250000(9) 0.563160(9)
Cd10_2 Cd 0.5632 0.250000(9) 0.436840(9)
O8_2 O 0.58730(18) 0.20886(18) 0.54418(17)
O9_2 O 0.58730(18) 0.20886(18) 0.45582(17)
O19_2 O 0.60129(12) 0.2157(2) 0.58750(12)
O20_2 O 0.60129(12) 0.2157(2) 0.41250(12)
O27_3 O 0.74822(11) 0.00000(10) 0.4482
O28_3 O 0.75178(11) 0.0518 0.50000(10)
O30_5 O 0.8036 0.0000 0.5000(3)
N6_2 N 0.80960(15) 0.04994(15) 0.38799(14)
N7_2 N 0.69040(15) 0.11201(14) 0.54994(15)
N8_2 N 0.69040(15) 0.11201(14) 0.45006(15)
H8_2 H 0.8017 0.0661 0.3948
H9_2 H 0.6983 0.1052 0.5661
H10_2 H 0.6983 0.1052 0.4339
N11_3 N 0.81094(19) 0.00000(17) 0.3869
N12_3 N 0.68906(19) 0.1131 0.50000(17)
N16_2 N 0.77831(9) 0.02597(10) 0.41838(9)
N17_2 N 0.72169(9) 0.08162(9) 0.52597(10)
N18_2 N 0.72169(9) 0.08162(9) 0.47403(10)
C12_2 C 0.8968(2) 0.0644(2) 0.2961(2)
C13_2 C 0.6032(2) 0.2039(2) 0.5644(2)
C14_2 C 0.6032(2) 0.2039(2) 0.4356(2)
C19_2 C 0.87513(13) 0.06151(14) 0.32158(12)
C20_2 C 0.62487(13) 0.17842(12) 0.56151(14)
C21_2 C 0.62487(13) 0.17842(12) 0.43849(14)
C26_2 C 0.85578(11) 0.08406(12) 0.32922(11)
C27_2 C 0.64422(11) 0.17078(11) 0.58406(12)
C28_2 C 0.64422(11) 0.17078(11) 0.41594(12)
H15_2 H 0.8567 0.1023 0.3193
H16_2 H 0.6433 0.1807 0.6023
H17_2 H 0.6433 0.1807 0.3977
C33_2 C 0.83512(12) 0.07967(12) 0.35149(9)
C34_2 C 0.66488(12) 0.14851(9) 0.57967(12)
C35_2 C 0.66488(12) 0.14851(9) 0.42033(12)
H22_2 H 0.8220 0.0949 0.3567
H23_2 H 0.6780 0.1433 0.5949
H24_2 H 0.6780 0.1433 0.4051
C40_2 C 0.83383(7) 0.05273(7) 0.36612(8)
C41_2 C 0.66617(7) 0.13388(8) 0.55273(7)
C42_2 C 0.66617(7) 0.13388(8) 0.44727(7)
C47_2 C 0.85318(16) 0.03018(12) 0.35848(10)
C48_2 C 0.64682(16) 0.14152(10) 0.53018(12)
C49_2 C 0.64682(16) 0.14152(10) 0.46982(12)
H29_2 H 0.8523 0.0120 0.3684
H30_2 H 0.6477 0.1316 0.5120
H31_2 H 0.6477 0.1316 0.4880
C54_2 C 0.8738(2) 0.03457(16) 0.33620(13)
C55_2 C 0.6262(2) 0.16380(13) 0.53457(16)
C56_2 C 0.6262(2) 0.16380(13) 0.46543(16)
H36_2 H 0.8869 0.0193 0.3310
H37_2 H 0.6131 0.1690 0.5193
H38_2 H 0.6131 0.1690 0.4807
C61_2 C 0.79943(7) 0.02487(7) 0.39760(10)
C62_2 C 0.70057(7) 0.10240(10) 0.52487(7)
C63_2 C 0.70057(7) 0.10240(10) 0.47513(7)
C66_3 C 0.76740(10) -0.00001(10) 0.42883(15)
C67_3 C 0.73260(10) 0.07117(15) 0.50001(10)
Na1_6 Na 0.7500 1.0000 0.5000
O3_4 O 0.74822(11) 1.00000(10) 0.5518
O4_6 O 0.6964 1.0000(3) 0.5000
N2_4 N 0.81094(19) 1.00000(17) 0.6131
C9_4 C 0.76740(10) 1.00001(10) 0.57117(15)
Cd2_2 Cd 0.9368 0.936840(9) 0.750000(9)
Cd3_2 Cd 0.9368 0.936840(9) 0.250000(9)
Cd6_2 Cd 0.750000(9) 0.9368 0.563160(9)
Cd7_2 Cd 0.750000(9) 0.9368 0.436840(9)
Cd11_2 Cd 0.5632 0.750000(9) 0.436840(9)
Cd12_2 Cd 0.5632 0.750000(9) 0.563160(9)
O5_2 O 0.91270(18) 0.95582(17) 0.70886(18)
O6_2 O 0.91270(18) 0.95582(17) 0.29114(18)
O10_2 O 0.58730(18) 0.79114(18) 0.45582(17)
O11_2 O 0.58730(18) 0.79114(18) 0.54418(17)
O13_2 O 0.95582(17) 0.91270(18) 0.79114(18)
O14_2 O 0.95582(17) 0.91270(18) 0.20886(18)
O16_2 O 0.89871(12) 0.91250(12) 0.7157(2)
O17_2 O 0.89871(12) 0.91250(12) 0.2843(2)
O21_2 O 0.60129(12) 0.7843(2) 0.41250(12)
O22_2 O 0.60129(12) 0.7843(2) 0.58750(12)
O24_2 O 0.91250(12) 0.89871(12) 0.7843(2)
O25_2 O 0.91250(12) 0.89871(12) 0.2157(2)
O27_4 O 0.74822(11) 1.00000(10) 0.4482
O29_3 O 0.75178(11) 0.9482 0.50000(10)
O30_6 O 0.8036 1.0000 0.5000(3)
N4_2 N 0.80960(15) 0.95006(15) 0.61201(14)
N5_2 N 0.80960(15) 0.95006(15) 0.38799(14)
N9_2 N 0.69040(15) 0.88799(14) 0.45006(15)
N10_2 N 0.69040(15) 0.88799(14) 0.54994(15)
H6_2 H 0.8017 0.9339 0.6052
H7_2 H 0.8017 0.9339 0.3948
H11_2 H 0.6983 0.8948 0.4339
H12_2 H 0.6983 0.8948 0.5661
N11_4 N 0.81094(19) 1.00000(17) 0.3869
N13_3 N 0.68906(19) 0.8869 0.50000(17)
N14_2 N 0.77831(9) 0.97403(10) 0.58162(9)
N15_2 N 0.77831(9) 0.97403(10) 0.41838(9)
N19_2 N 0.72169(9) 0.91838(9) 0.47403(10)
N20_2 N 0.72169(9) 0.91838(9) 0.52597(10)
N23_2 N 0.97403(10) 0.91838(9) 0.72169(9)
N24_2 N 0.91838(9) 0.97403(10) 0.77831(9)
N25_2 N 0.97403(10) 0.91838(9) 0.27831(9)
N26_2 N 0.91838(9) 0.97403(10) 0.22169(9)
C10_2 C 0.8968(2) 0.9356(2) 0.7039(2)
C11_2 C 0.8968(2) 0.9356(2) 0.2961(2)
C15_2 C 0.6032(2) 0.7961(2) 0.4356(2)
C16_2 C 0.6032(2) 0.7961(2) 0.5644(2)
C17_2 C 0.87513(13) 0.93849(14) 0.67842(12)
C18_2 C 0.87513(13) 0.93849(14) 0.32158(12)
C22_2 C 0.62487(13) 0.82158(12) 0.43849(14)
C23_2 C 0.62487(13) 0.82158(12) 0.56151(14)
C24_2 C 0.85578(11) 0.91594(12) 0.67078(11)
C25_2 C 0.85578(11) 0.91594(12) 0.32922(11)
C29_2 C 0.64422(11) 0.82922(11) 0.41594(12)
C30_2 C 0.64422(11) 0.82922(11) 0.58406(12)
H13_2 H 0.8567 0.8977 0.6807
H14_2 H 0.8567 0.8977 0.3193
H18_2 H 0.6433 0.8193 0.3977
H19_2 H 0.6433 0.8193 0.6023
C31_2 C 0.83512(12) 0.92033(12) 0.64851(9)
C32_2 C 0.83512(12) 0.92033(12) 0.35149(9)
C36_2 C 0.66488(12) 0.85149(9) 0.42033(12)
C37_2 C 0.66488(12) 0.85149(9) 0.57967(12)
H20_2 H 0.8220 0.9051 0.6433
H21_2 H 0.8220 0.9051 0.3567
H25_2 H 0.6780 0.8567 0.4051
H26_2 H 0.6780 0.8567 0.5949
C38_2 C 0.83383(7) 0.94727(7) 0.63388(8)
C39_2 C 0.83383(7) 0.94727(7) 0.36612(8)
C43_2 C 0.66617(7) 0.86612(8) 0.44727(7)
C44_2 C 0.66617(7) 0.86612(8) 0.55273(7)
C45_2 C 0.85318(16) 0.96982(12) 0.64152(10)
C46_2 C 0.85318(16) 0.96982(12) 0.35848(10)
C50_2 C 0.64682(16) 0.85848(10) 0.46982(12)
C51_2 C 0.64682(16) 0.85848(10) 0.53018(12)
H27_2 H 0.8523 0.9880 0.6316
H28_2 H 0.8523 0.9880 0.3684
H32_2 H 0.6477 0.8684 0.4880
H33_2 H 0.6477 0.8684 0.5120
C52_2 C 0.8738(2) 0.96543(16) 0.66380(13)
C53_2 C 0.8738(2) 0.96543(16) 0.33620(13)
C57_2 C 0.6262(2) 0.83620(13) 0.46543(16)
C58_2 C 0.6262(2) 0.83620(13) 0.53457(16)
H34_2 H 0.8869 0.9807 0.6690
H35_2 H 0.8869 0.9807 0.3310
H39_2 H 0.6131 0.8310 0.4807
H40_2 H 0.6131 0.8310 0.5193
C59_2 C 0.79943(7) 0.97513(7) 0.60240(10)
C60_2 C 0.79943(7) 0.97513(7) 0.39760(10)
C64_2 C 0.70057(7) 0.89760(10) 0.47513(7)
C65_2 C 0.70057(7) 0.89760(10) 0.52487(7)
C66_4 C 0.76740(10) 0.99999(10) 0.42883(15)
C68_3 C 0.73260(10) 0.92883(15) 0.49999(10)
Na1_7 Na 0.0000 0.7500 0.0000
O3_5 O -0.00000(10) 0.74822(11) 0.0518
O4_7 O 0.0000(3) 0.6964 0.0000
N2_5 N 0.00000(17) 0.81094(19) 0.1131
C9_5 C -0.00001(10) 0.76740(10) 0.07117(15)
Cd2_3 Cd 0.063160(9) 0.9368 0.250000(9)
Cd6_3 Cd 0.0632 0.750000(9) 0.063160(9)
Cd12_3 Cd 0.250000(9) 0.5632 0.063160(9)
O5_3 O 0.04418(17) 0.91270(18) 0.20886(18)
O11_3 O 0.20886(18) 0.58730(18) 0.04418(17)
O13_3 O 0.08730(18) 0.95582(17) 0.29114(18)
O16_3 O 0.08750(12) 0.89871(12) 0.2157(2)
O22_3 O 0.2157(2) 0.60129(12) 0.08750(12)
O24_3 O 0.10129(12) 0.91250(12) 0.2843(2)
O29_4 O 0.0518 0.75178(11) 0.00000(10)
O30_7 O 0.0000 0.8036 0.0000(3)
N4_3 N 0.04994(15) 0.80960(15) 0.11201(14)
N10_3 N 0.11201(14) 0.69040(15) 0.04994(15)
H6_3 H 0.0661 0.8017 0.1052
H12_3 H 0.1052 0.6983 0.0661
N13_4 N 0.1131 0.68906(19) 0.00000(17)
N14_3 N 0.02597(10) 0.77831(9) 0.08162(9)
N20_3 N 0.08162(9) 0.72169(9) 0.02597(10)
N23_3 N 0.08162(9) 0.97403(10) 0.22169(9)
N24_3 N 0.02597(10) 0.91838(9) 0.27831(9)
C10_3 C 0.0644(2) 0.8968(2) 0.2039(2)
C16_3 C 0.2039(2) 0.6032(2) 0.0644(2)
C17_3 C 0.06151(14) 0.87513(13) 0.17842(12)
C23_3 C 0.17842(12) 0.62487(13) 0.06151(14)
C24_3 C 0.08406(12) 0.85578(11) 0.17078(11)
C30_3 C 0.17078(11) 0.64422(11) 0.08406(12)
H13_3 H 0.1023 0.8567 0.1807
H19_3 H 0.1807 0.6433 0.1023
C31_3 C 0.07967(12) 0.83512(12) 0.14851(9)
C37_3 C 0.14851(9) 0.66488(12) 0.07967(12)
H20_3 H 0.0949 0.8220 0.1433
H26_3 H 0.1433 0.6780 0.0949
C38_3 C 0.05273(7) 0.83383(7) 0.13388(8)
C44_3 C 0.13388(8) 0.66617(7) 0.05273(7)
C45_3 C 0.03018(12) 0.85318(16) 0.14152(10)
C51_3 C 0.14152(10) 0.64682(16) 0.03018(12)
H27_3 H 0.0120 0.8523 0.1316
H33_3 H 0.1316 0.6477 0.0120
C52_3 C 0.03457(16) 0.8738(2) 0.16380(13)
C58_3 C 0.16380(13) 0.6262(2) 0.03457(16)
H34_3 H 0.0193 0.8869 0.1690
H40_3 H 0.1690 0.6131 0.0193
C59_3 C 0.02487(7) 0.79943(7) 0.10240(10)
C65_3 C 0.10240(10) 0.70057(7) 0.02487(7)
C68_4 C 0.07117(15) 0.73260(10) -0.00001(10)
Na1_8 Na 0.0000 0.7500 1.0000
O4_8 O 0.0000(3) 0.6964 1.0000
Cd3_3 Cd 0.063160(9) 0.9368 0.750000(9)
Cd7_3 Cd 0.0632 0.750000(9) 0.936840(9)
Cd11_3 Cd 0.250000(9) 0.5632 0.936840(9)
O6_3 O 0.04418(17) 0.91270(18) 0.79114(18)
O10_3 O 0.20886(18) 0.58730(18) 0.95582(17)
O14_3 O 0.08730(18) 0.95582(17) 0.70886(18)
O17_3 O 0.08750(12) 0.89871(12) 0.7843(2)
O21_3 O 0.2157(2) 0.60129(12) 0.91250(12)
O25_3 O 0.10129(12) 0.91250(12) 0.7157(2)
O27_5 O 0.00000(10) 0.74822(11) 0.9482
O29_5 O 0.0518 0.75178(11) 1.00000(10)
O30_8 O 0.0000 0.8036 1.0000(3)
N5_3 N 0.04994(15) 0.80960(15) 0.88799(14)
N9_3 N 0.11201(14) 0.69040(15) 0.95006(15)
H7_3 H 0.0661 0.8017 0.8948
H11_3 H 0.1052 0.6983 0.9339
N11_5 N 0.00000(17) 0.81094(19) 0.8869
N13_5 N 0.1131 0.68906(19) 1.00000(17)
N15_3 N 0.02597(10) 0.77831(9) 0.91838(9)
N19_3 N 0.08162(9) 0.72169(9) 0.97403(10)
N25_3 N 0.08162(9) 0.97403(10) 0.77831(9)
N26_3 N 0.02597(10) 0.91838(9) 0.72169(9)
C11_3 C 0.0644(2) 0.8968(2) 0.7961(2)
C15_3 C 0.2039(2) 0.6032(2) 0.9356(2)
C18_3 C 0.06151(14) 0.87513(13) 0.82158(12)
C22_3 C 0.17842(12) 0.62487(13) 0.93849(14)
C25_3 C 0.08406(12) 0.85578(11) 0.82922(11)
C29_3 C 0.17078(11) 0.64422(11) 0.91594(12)
H14_3 H 0.1023 0.8567 0.8193
H18_3 H 0.1807 0.6433 0.8977
C32_3 C 0.07967(12) 0.83512(12) 0.85149(9)
C36_3 C 0.14851(9) 0.66488(12) 0.92033(12)
H21_3 H 0.0949 0.8220 0.8567
H25_3 H 0.1433 0.6780 0.9051
C39_3 C 0.05273(7) 0.83383(7) 0.86612(8)
C43_3 C 0.13388(8) 0.66617(7) 0.94727(7)
C46_3 C 0.03018(12) 0.85318(16) 0.85848(10)
C50_3 C 0.14152(10) 0.64682(16) 0.96982(12)
H28_3 H 0.0120 0.8523 0.8684
H32_3 H 0.1316 0.6477 0.9880
C53_3 C 0.03457(16) 0.8738(2) 0.83620(13)
C57_3 C 0.16380(13) 0.6262(2) 0.96543(16)
H35_3 H 0.0193 0.8869 0.8310
H39_3 H 0.1690 0.6131 0.9807
C60_3 C 0.02487(7) 0.79943(7) 0.89760(10)
C64_3 C 0.10240(10) 0.70057(7) 0.97513(7)
C66_5 C 0.00001(10) 0.76740(10) 0.92883(15)
C68_5 C 0.07117(15) 0.73260(10) 0.99999(10)
Na1_9 Na 1.0000 0.7500 0.0000
O3_6 O 1.00000(10) 0.74822(11) 0.0518
O4_9 O 1.0000(3) 0.6964 0.0000
N1_3 N 0.95006(15) 0.80960(15) 0.11201(14)
H1_3 H 0.9339 0.8017 0.1052
N2_6 N 1.00000(17) 0.81094(19) 0.1131
N3_3 N 0.97403(10) 0.77831(9) 0.08162(9)
C1_3 C 0.9356(2) 0.8968(2) 0.2039(2)
C2_3 C 0.93849(14) 0.87513(13) 0.17842(12)
C3_3 C 0.91594(12) 0.85578(11) 0.17078(11)
H2_3 H 0.8977 0.8567 0.1807
C4_3 C 0.92033(12) 0.83512(12) 0.14851(9)
H3_3 H 0.9051 0.8220 0.1433
C5_3 C 0.94727(7) 0.83383(7) 0.13388(8)
C6_3 C 0.96982(12) 0.85318(16) 0.14152(10)
H4_3 H 0.9880 0.8523 0.1316
C7_3 C 0.96543(16) 0.8738(2) 0.16380(13)
H5_3 H 0.9807 0.8869 0.1690
C8_3 C 0.97513(7) 0.79943(7) 0.10240(10)
C9_6 C 0.99999(10) 0.76740(10) 0.07117(15)
Cd5_3 Cd 0.9368 0.750000(9) 0.063160(9)
Cd9_3 Cd 0.750000(9) 0.5632 0.063160(9)
O8_3 O 0.79114(18) 0.58730(18) 0.04418(17)
O19_3 O 0.7843(2) 0.60129(12) 0.08750(12)
O28_4 O 0.9482 0.75178(11) 0.00000(10)
O30_9 O 1.0000 0.8036 0.0000(3)
N7_3 N 0.88799(14) 0.69040(15) 0.04994(15)
H9_3 H 0.8948 0.6983 0.0661
N12_4 N 0.8869 0.68906(19) 0.00000(17)
N17_3 N 0.91838(9) 0.72169(9) 0.02597(10)
C13_3 C 0.7961(2) 0.6032(2) 0.0644(2)
C20_3 C 0.82158(12) 0.62487(13) 0.06151(14)
C27_3 C 0.82922(11) 0.64422(11) 0.08406(12)
H16_3 H 0.8193 0.6433 0.1023
C34_3 C 0.85149(9) 0.66488(12) 0.07967(12)
H23_3 H 0.8567 0.6780 0.0949
C41_3 C 0.86612(8) 0.66617(7) 0.05273(7)
C48_3 C 0.85848(10) 0.64682(16) 0.03018(12)
H30_3 H 0.8684 0.6477 0.0120
C55_3 C 0.83620(13) 0.6262(2) 0.03457(16)
H37_3 H 0.8310 0.6131 0.0193
C62_3 C 0.89760(10) 0.70057(7) 0.02487(7)
C67_4 C 0.92883(15) 0.73260(10) 0.00001(10)
Na1_10 Na 1.0000 0.7500 1.0000
O4_10 O 1.0000(3) 0.6964 1.0000
Cd8_3 Cd 0.9368 0.750000(9) 0.936840(9)
Cd10_3 Cd 0.750000(9) 0.5632 0.936840(9)
O9_3 O 0.79114(18) 0.58730(18) 0.95582(17)
O20_3 O 0.7843(2) 0.60129(12) 0.91250(12)
O27_6 O 1.00000(10) 0.74822(11) 0.9482
O28_5 O 0.9482 0.75178(11) 1.00000(10)
O30_10 O 1.0000 0.8036 1.0000(3)
N6_3 N 0.95006(15) 0.80960(15) 0.88799(14)
N8_3 N 0.88799(14) 0.69040(15) 0.95006(15)
H8_3 H 0.9339 0.8017 0.8948
H10_3 H 0.8948 0.6983 0.9339
N11_6 N 1.00000(17) 0.81094(19) 0.8869
N12_5 N 0.8869 0.68906(19) 1.00000(17)
N16_3 N 0.97403(10) 0.77831(9) 0.91838(9)
N18_3 N 0.91838(9) 0.72169(9) 0.97403(10)
C12_3 C 0.9356(2) 0.8968(2) 0.7961(2)
C14_3 C 0.7961(2) 0.6032(2) 0.9356(2)
C19_3 C 0.93849(14) 0.87513(13) 0.82158(12)
C21_3 C 0.82158(12) 0.62487(13) 0.93849(14)
C26_3 C 0.91594(12) 0.85578(11) 0.82922(11)
C28_3 C 0.82922(11) 0.64422(11) 0.91594(12)
H15_3 H 0.8977 0.8567 0.8193
H17_3 H 0.8193 0.6433 0.8977
C33_3 C 0.92033(12) 0.83512(12) 0.85149(9)
C35_3 C 0.85149(9) 0.66488(12) 0.92033(12)
H22_3 H 0.9051 0.8220 0.8567
H24_3 H 0.8567 0.6780 0.9051
C40_3 C 0.94727(7) 0.83383(7) 0.86612(8)
C42_3 C 0.86612(8) 0.66617(7) 0.94727(7)
C47_3 C 0.96982(12) 0.85318(16) 0.85848(10)
C49_3 C 0.85848(10) 0.64682(16) 0.96982(12)
H29_3 H 0.9880 0.8523 0.8684
H31_3 H 0.8684 0.6477 0.9880
C54_3 C 0.96543(16) 0.8738(2) 0.83620(13)
C56_3 C 0.83620(13) 0.6262(2) 0.96543(16)
H36_3 H 0.9807 0.8869 0.8310
H38_3 H 0.8310 0.6131 0.9807
C61_3 C 0.97513(7) 0.79943(7) 0.89760(10)
C63_3 C 0.89760(10) 0.70057(7) 0.97513(7)
C66_6 C 1.00001(10) 0.76740(10) 0.92883(15)
C67_5 C 0.92883(15) 0.73260(10) 1.00001(10)
Na1_11 Na 0.2500 0.0000 0.5000
O3_7 O 0.25178(11) 0.00000(10) 0.5518
O4_11 O 0.3036 0.0000(3) 0.5000
N2_7 N 0.18906(19) 0.00000(17) 0.6131
C9_7 C 0.23260(10) -0.00001(10) 0.57117(15)
Cd6_4 Cd 0.250000(9) 0.0632 0.563160(9)
Cd7_4 Cd 0.250000(9) 0.0632 0.436840(9)
Cd11_4 Cd 0.4368 0.250000(9) 0.436840(9)
Cd12_4 Cd 0.4368 0.250000(9) 0.563160(9)
O10_4 O 0.41270(18) 0.20886(18) 0.45582(17)
O11_4 O 0.41270(18) 0.20886(18) 0.54418(17)
O21_4 O 0.39871(12) 0.2157(2) 0.41250(12)
O22_4 O 0.39871(12) 0.2157(2) 0.58750(12)
O27_7 O 0.25178(11) 0.00000(10) 0.4482
O29_6 O 0.24822(11) 0.0518 0.50000(10)
O30_11 O 0.1964 0.0000 0.5000(3)
N4_4 N 0.19040(15) 0.04994(15) 0.61201(14)
N5_4 N 0.19040(15) 0.04994(15) 0.38799(14)
N9_4 N 0.30960(15) 0.11201(14) 0.45006(15)
N10_4 N 0.30960(15) 0.11201(14) 0.54994(15)
H6_4 H 0.1983 0.0661 0.6052
H7_4 H 0.1983 0.0661 0.3948
H11_4 H 0.3017 0.1052 0.4339
H12_4 H 0.3017 0.1052 0.5661
N11_7 N 0.18906(19) 0.00000(17) 0.3869
N13_6 N 0.31094(19) 0.1131 0.50000(17)
N14_4 N 0.22169(9) 0.02597(10) 0.58162(9)
N15_4 N 0.22169(9) 0.02597(10) 0.41838(9)
N19_4 N 0.27831(9) 0.08162(9) 0.47403(10)
N20_4 N 0.27831(9) 0.08162(9) 0.52597(10)
C10_4 C 0.1032(2) 0.0644(2) 0.7039(2)
C11_4 C 0.1032(2) 0.0644(2) 0.2961(2)
C15_4 C 0.3968(2) 0.2039(2) 0.4356(2)
C16_4 C 0.3968(2) 0.2039(2) 0.5644(2)
C17_4 C 0.12487(13) 0.06151(14) 0.67842(12)
C18_4 C 0.12487(13) 0.06151(14) 0.32158(12)
C22_4 C 0.37513(13) 0.17842(12) 0.43849(14)
C23_4 C 0.37513(13) 0.17842(12) 0.56151(14)
C24_4 C 0.14422(11) 0.08406(12) 0.67078(11)
C25_4 C 0.14422(11) 0.08406(12) 0.32922(11)
C29_4 C 0.35578(11) 0.17078(11) 0.41594(12)
C30_4 C 0.35578(11) 0.17078(11) 0.58406(12)
H13_4 H 0.1433 0.1023 0.6807
H14_4 H 0.1433 0.1023 0.3193
H18_4 H 0.3567 0.1807 0.3977
H19_4 H 0.3567 0.1807 0.6023
C31_4 C 0.16488(12) 0.07967(12) 0.64851(9)
C32_4 C 0.16488(12) 0.07967(12) 0.35149(9)
C36_4 C 0.33512(12) 0.14851(9) 0.42033(12)
C37_4 C 0.33512(12) 0.14851(9) 0.57967(12)
H20_4 H 0.1780 0.0949 0.6433
H21_4 H 0.1780 0.0949 0.3567
H25_4 H 0.3220 0.1433 0.4051
H26_4 H 0.3220 0.1433 0.5949
C38_4 C 0.16617(7) 0.05273(7) 0.63388(8)
C39_4 C 0.16617(7) 0.05273(7) 0.36612(8)
C43_4 C 0.33383(7) 0.13388(8) 0.44727(7)
C44_4 C 0.33383(7) 0.13388(8) 0.55273(7)
C45_4 C 0.14682(16) 0.03018(12) 0.64152(10)
C46_4 C 0.14682(16) 0.03018(12) 0.35848(10)
C50_4 C 0.35318(16) 0.14152(10) 0.46982(12)
C51_4 C 0.35318(16) 0.14152(10) 0.53018(12)
H27_4 H 0.1477 0.0120 0.6316
H28_4 H 0.1477 0.0120 0.3684
H32_4 H 0.3523 0.1316 0.4880
H33_4 H 0.3523 0.1316 0.5120
C52_4 C 0.1262(2) 0.03457(16) 0.66380(13)
C53_4 C 0.1262(2) 0.03457(16) 0.33620(13)
C57_4 C 0.3738(2) 0.16380(13) 0.46543(16)
C58_4 C 0.3738(2) 0.16380(13) 0.53457(16)
H34_4 H 0.1131 0.0193 0.6690
H35_4 H 0.1131 0.0193 0.3310
H39_4 H 0.3869 0.1690 0.4807
H40_4 H 0.3869 0.1690 0.5193
C59_4 C 0.20057(7) 0.02487(7) 0.60240(10)
C60_4 C 0.20057(7) 0.02487(7) 0.39760(10)
C64_4 C 0.29943(7) 0.10240(10) 0.47513(7)
C65_4 C 0.29943(7) 0.10240(10) 0.52487(7)
C66_7 C 0.23260(10) 0.00001(10) 0.42883(15)
C68_6 C 0.26740(10) 0.07117(15) 0.49999(10)
Na1_12 Na 0.2500 1.0000 0.5000
O3_8 O 0.25178(11) 1.00000(10) 0.5518
O4_12 O 0.3036 1.0000(3) 0.5000
N1_4 N 0.19040(15) 0.95006(15) 0.61201(14)
H1_4 H 0.1983 0.9339 0.6052
N2_8 N 0.18906(19) 1.00000(17) 0.6131
N3_4 N 0.22169(9) 0.97403(10) 0.58162(9)
C1_4 C 0.1032(2) 0.9356(2) 0.7039(2)
C2_4 C 0.12487(13) 0.93849(14) 0.67842(12)
C3_4 C 0.14422(11) 0.91594(12) 0.67078(11)
H2_4 H 0.1433 0.8977 0.6807
C4_4 C 0.16488(12) 0.92033(12) 0.64851(9)
H3_4 H 0.1780 0.9051 0.6433
C5_4 C 0.16617(7) 0.94727(7) 0.63388(8)
C6_4 C 0.14682(16) 0.96982(12) 0.64152(10)
H4_4 H 0.1477 0.9880 0.6316
C7_4 C 0.1262(2) 0.96543(16) 0.66380(13)
H5_4 H 0.1131 0.9807 0.6690
C8_4 C 0.20057(7) 0.97513(7) 0.60240(10)
C9_8 C 0.23260(10) 0.99999(10) 0.57117(15)
Cd5_4 Cd 0.250000(9) 0.9368 0.563160(9)
Cd8_4 Cd 0.250000(9) 0.9368 0.436840(9)
Cd9_4 Cd 0.4368 0.750000(9) 0.563160(9)
Cd10_4 Cd 0.4368 0.750000(9) 0.436840(9)
O8_4 O 0.41270(18) 0.79114(18) 0.54418(17)
O9_4 O 0.41270(18) 0.79114(18) 0.45582(17)
O19_4 O 0.39871(12) 0.7843(2) 0.58750(12)
O20_4 O 0.39871(12) 0.7843(2) 0.41250(12)
O27_8 O 0.25178(11) 1.00000(10) 0.4482
O28_6 O 0.24822(11) 0.9482 0.50000(10)
O30_12 O 0.1964 1.0000 0.5000(3)
N6_4 N 0.19040(15) 0.95006(15) 0.38799(14)
N7_4 N 0.30960(15) 0.88799(14) 0.54994(15)
N8_4 N 0.30960(15) 0.88799(14) 0.45006(15)
H8_4 H 0.1983 0.9339 0.3948
H9_4 H 0.3017 0.8948 0.5661
H10_4 H 0.3017 0.8948 0.4339
N11_8 N 0.18906(19) 1.00000(17) 0.3869
N12_6 N 0.31094(19) 0.8869 0.50000(17)
N16_4 N 0.22169(9) 0.97403(10) 0.41838(9)
N17_4 N 0.27831(9) 0.91838(9) 0.52597(10)
N18_4 N 0.27831(9) 0.91838(9) 0.47403(10)
C12_4 C 0.1032(2) 0.9356(2) 0.2961(2)
C13_4 C 0.3968(2) 0.7961(2) 0.5644(2)
C14_4 C 0.3968(2) 0.7961(2) 0.4356(2)
C19_4 C 0.12487(13) 0.93849(14) 0.32158(12)
C20_4 C 0.37513(13) 0.82158(12) 0.56151(14)
C21_4 C 0.37513(13) 0.82158(12) 0.43849(14)
C26_4 C 0.14422(11) 0.91594(12) 0.32922(11)
C27_4 C 0.35578(11) 0.82922(11) 0.58406(12)
C28_4 C 0.35578(11) 0.82922(11) 0.41594(12)
H15_4 H 0.1433 0.8977 0.3193
H16_4 H 0.3567 0.8193 0.6023
H17_4 H 0.3567 0.8193 0.3977
C33_4 C 0.16488(12) 0.92033(12) 0.35149(9)
C34_4 C 0.33512(12) 0.85149(9) 0.57967(12)
C35_4 C 0.33512(12) 0.85149(9) 0.42033(12)
H22_4 H 0.1780 0.9051 0.3567
H23_4 H 0.3220 0.8567 0.5949
H24_4 H 0.3220 0.8567 0.4051
C40_4 C 0.16617(7) 0.94727(7) 0.36612(8)
C41_4 C 0.33383(7) 0.86612(8) 0.55273(7)
C42_4 C 0.33383(7) 0.86612(8) 0.44727(7)
C47_4 C 0.14682(16) 0.96982(12) 0.35848(10)
C48_4 C 0.35318(16) 0.85848(10) 0.53018(12)
C49_4 C 0.35318(16) 0.85848(10) 0.46982(12)
H29_4 H 0.1477 0.9880 0.3684
H30_4 H 0.3523 0.8684 0.5120
H31_4 H 0.3523 0.8684 0.4880
C54_4 C 0.1262(2) 0.96543(16) 0.33620(13)
C55_4 C 0.3738(2) 0.83620(13) 0.53457(16)
C56_4 C 0.3738(2) 0.83620(13) 0.46543(16)
H36_4 H 0.1131 0.9807 0.3310
H37_4 H 0.3869 0.8310 0.5193
H38_4 H 0.3869 0.8310 0.4807
C61_4 C 0.20057(7) 0.97513(7) 0.39760(10)
C62_4 C 0.29943(7) 0.89760(10) 0.52487(7)
C63_4 C 0.29943(7) 0.89760(10) 0.47513(7)
C66_8 C 0.23260(10) 1.00001(10) 0.42883(15)
C67_6 C 0.26740(10) 0.92883(15) 0.50001(10)
Na1_13 Na 0.0000 0.0000 0.7500
O4_13 O 0.0000(3) 0.0000 0.8036
Cd4_2 Cd 0.063160(9) 0.250000(9) 0.5632
Cd10_5 Cd 0.250000(9) 0.063160(9) 0.9368
O7_2 O 0.04418(17) 0.20886(18) 0.58730(18)
O9_5 O 0.20886(18) 0.04418(17) 0.91270(18)
O15_2 O 0.08730(18) 0.29114(18) 0.54418(17)
O18_2 O 0.08750(12) 0.2157(2) 0.60129(12)
O20_5 O 0.2157(2) 0.08750(12) 0.89871(12)
O26_2 O 0.10129(12) 0.2843(2) 0.58750(12)
O27_9 O -0.00000(10) 0.0518 0.75178(11)
O28_7 O 0.0518 0.00000(10) 0.74822(11)
O30_13 O 0.0000 0.0000(3) 0.6964
N6_5 N 0.04994(15) 0.11201(14) 0.69040(15)
N8_5 N 0.11201(14) 0.04994(15) 0.80960(15)
H8_5 H 0.0661 0.1052 0.6983
H10_5 H 0.1052 0.0661 0.8017
N11_9 N 0.00000(17) 0.1131 0.68906(19)
N12_7 N 0.1131 0.00000(17) 0.81094(19)
N27_2 N 0.08162(9) 0.22169(9) 0.52597(10)
N28_2 N 0.02597(10) 0.27831(9) 0.58162(9)
C12_5 C 0.0644(2) 0.2039(2) 0.6032(2)
C14_5 C 0.2039(2) 0.0644(2) 0.8968(2)
C19_5 C 0.06151(14) 0.17842(12) 0.62487(13)
C21_5 C 0.17842(12) 0.06151(14) 0.87513(13)
C26_5 C 0.08406(12) 0.17078(11) 0.64422(11)
C28_5 C 0.17078(11) 0.08406(12) 0.85578(11)
H15_5 H 0.1023 0.1807 0.6433
H17_5 H 0.1807 0.1023 0.8567
C33_5 C 0.07967(12) 0.14851(9) 0.66488(12)
C35_5 C 0.14851(9) 0.07967(12) 0.83512(12)
H22_5 H 0.0949 0.1433 0.6780
H24_5 H 0.1433 0.0949 0.8220
C40_5 C 0.05273(7) 0.13388(8) 0.66617(7)
C42_5 C 0.13388(8) 0.05273(7) 0.83383(7)
C47_5 C 0.03018(12) 0.14152(10) 0.64682(16)
C49_5 C 0.14152(10) 0.03018(12) 0.85318(16)
H29_5 H 0.0120 0.1316 0.6477
H31_5 H 0.1316 0.0120 0.8523
C54_5 C 0.03457(16) 0.16380(13) 0.6262(2)
C56_5 C 0.16380(13) 0.03457(16) 0.8738(2)
H36_5 H 0.0193 0.1690 0.6131
H38_5 H 0.1690 0.0193 0.8869
C61_5 C 0.02487(7) 0.10240(10) 0.70057(7)
C63_5 C 0.10240(10) 0.02487(7) 0.79943(7)
C66_9 C -0.00001(10) 0.07117(15) 0.73260(10)
C67_7 C 0.07117(15) -0.00001(10) 0.76740(10)
Cd1_2 Cd 0.063160(9) 0.750000(9) 0.5632
Na1_14 Na 0.0000 1.0000 0.7500
O1_2 O 0.04418(17) 0.79114(18) 0.58730(18)
O2_2 O 0.08750(12) 0.7843(2) 0.60129(12)
O3_9 O -0.00000(10) 0.9482 0.75178(11)
O4_14 O 0.0000(3) 1.0000 0.8036
N1_5 N 0.04994(15) 0.88799(14) 0.69040(15)
H1_5 H 0.0661 0.8948 0.6983
N2_9 N 0.00000(17) 0.8869 0.68906(19)
C1_5 C 0.0644(2) 0.7961(2) 0.6032(2)
C2_5 C 0.06151(14) 0.82158(12) 0.62487(13)
C3_5 C 0.08406(12) 0.82922(11) 0.64422(11)
H2_5 H 0.1023 0.8193 0.6433
C4_5 C 0.07967(12) 0.85149(9) 0.66488(12)
H3_5 H 0.0949 0.8567 0.6780
C5_5 C 0.05273(7) 0.86612(8) 0.66617(7)
C6_5 C 0.03018(12) 0.85848(10) 0.64682(16)
H4_5 H 0.0120 0.8684 0.6477
C7_5 C 0.03457(16) 0.83620(13) 0.6262(2)
H5_5 H 0.0193 0.8310 0.6131
C8_5 C 0.02487(7) 0.89760(10) 0.70057(7)
C9_9 C 0.00001(10) 0.92883(15) 0.73260(10)
Cd9_5 Cd 0.250000(9) 0.936840(9) 0.9368
O8_5 O 0.20886(18) 0.95582(17) 0.91270(18)
O12_2 O 0.08730(18) 0.70886(18) 0.54418(17)
O19_5 O 0.2157(2) 0.91250(12) 0.89871(12)
O23_2 O 0.10129(12) 0.7157(2) 0.58750(12)
O28_8 O 0.0518 1.00000(10) 0.74822(11)
O30_14 O 0.0000 1.0000(3) 0.6964
N7_5 N 0.11201(14) 0.95006(15) 0.80960(15)
H9_5 H 0.1052 0.9339 0.8017
N12_8 N 0.1131 1.00000(17) 0.81094(19)
N21_2 N 0.08162(9) 0.77831(9) 0.52597(10)
N22_2 N 0.02597(10) 0.72169(9) 0.58162(9)
C13_5 C 0.2039(2) 0.9356(2) 0.8968(2)
C20_5 C 0.17842(12) 0.93849(14) 0.87513(13)
C27_5 C 0.17078(11) 0.91594(12) 0.85578(11)
H16_5 H 0.1807 0.8977 0.8567
C34_5 C 0.14851(9) 0.92033(12) 0.83512(12)
H23_5 H 0.1433 0.9051 0.8220
C41_5 C 0.13388(8) 0.94727(7) 0.83383(7)
C48_5 C 0.14152(10) 0.96982(12) 0.85318(16)
H30_5 H 0.1316 0.9880 0.8523
C55_5 C 0.16380(13) 0.96543(16) 0.8738(2)
H37_5 H 0.1690 0.9807 0.8869
C62_5 C 0.10240(10) 0.97513(7) 0.79943(7)
C67_8 C 0.07117(15) 0.99999(10) 0.76740(10)
Na1_15 Na 1.0000 0.0000 0.7500
O4_15 O 1.0000(3) 0.0000 0.8036
Cd3_4 Cd 0.936840(9) 0.250000(9) 0.5632
Cd11_5 Cd 0.750000(9) 0.063160(9) 0.9368
O6_4 O 0.95582(17) 0.20886(18) 0.58730(18)
O10_5 O 0.79114(18) 0.04418(17) 0.91270(18)
O14_4 O 0.91270(18) 0.29114(18) 0.54418(17)
O17_4 O 0.91250(12) 0.2157(2) 0.60129(12)
O21_5 O 0.7843(2) 0.08750(12) 0.89871(12)
O25_4 O 0.89871(12) 0.2843(2) 0.58750(12)
O27_10 O 1.00000(10) 0.0518 0.75178(11)
O29_7 O 0.9482 0.00000(10) 0.74822(11)
O30_15 O 1.0000 0.0000(3) 0.6964
N5_5 N 0.95006(15) 0.11201(14) 0.69040(15)
N9_5 N 0.88799(14) 0.04994(15) 0.80960(15)
H7_5 H 0.9339 0.1052 0.6983
H11_5 H 0.8948 0.0661 0.8017
N11_10 N 1.00000(17) 0.1131 0.68906(19)
N13_7 N 0.8869 0.00000(17) 0.81094(19)
N25_4 N 0.91838(9) 0.22169(9) 0.52597(10)
N26_4 N 0.97403(10) 0.27831(9) 0.58162(9)
C11_5 C 0.9356(2) 0.2039(2) 0.6032(2)
C15_5 C 0.7961(2) 0.0644(2) 0.8968(2)
C18_5 C 0.93849(14) 0.17842(12) 0.62487(13)
C22_5 C 0.82158(12) 0.06151(14) 0.87513(13)
C25_5 C 0.91594(12) 0.17078(11) 0.64422(11)
C29_5 C 0.82922(11) 0.08406(12) 0.85578(11)
H14_5 H 0.8977 0.1807 0.6433
H18_5 H 0.8193 0.1023 0.8567
C32_5 C 0.92033(12) 0.14851(9) 0.66488(12)
C36_5 C 0.85149(9) 0.07967(12) 0.83512(12)
H21_5 H 0.9051 0.1433 0.6780
H25_5 H 0.8567 0.0949 0.8220
C39_5 C 0.94727(7) 0.13388(8) 0.66617(7)
C43_5 C 0.86612(8) 0.05273(7) 0.83383(7)
C46_5 C 0.96982(12) 0.14152(10) 0.64682(16)
C50_5 C 0.85848(10) 0.03018(12) 0.85318(16)
H28_5 H 0.9880 0.1316 0.6477
H32_5 H 0.8684 0.0120 0.8523
C53_5 C 0.96543(16) 0.16380(13) 0.6262(2)
C57_5 C 0.83620(13) 0.03457(16) 0.8738(2)
H35_5 H 0.9807 0.1690 0.6131
H39_5 H 0.8310 0.0193 0.8869
C60_5 C 0.97513(7) 0.10240(10) 0.70057(7)
C64_5 C 0.89760(10) 0.02487(7) 0.79943(7)
C66_10 C 0.99999(10) 0.07117(15) 0.73260(10)
C68_7 C 0.92883(15) 0.00001(10) 0.76740(10)
Na1_16 Na 1.0000 1.0000 0.7500
O3_10 O 1.00000(10) 0.9482 0.75178(11)
O4_16 O 1.0000(3) 1.0000 0.8036
N2_10 N 1.00000(17) 0.8869 0.68906(19)
C9_10 C 1.00001(10) 0.92883(15) 0.73260(10)
Cd2_4 Cd 0.936840(9) 0.750000(9) 0.5632
Cd12_5 Cd 0.750000(9) 0.936840(9) 0.9368
O5_4 O 0.95582(17) 0.79114(18) 0.58730(18)
O11_5 O 0.79114(18) 0.95582(17) 0.91270(18)
O13_4 O 0.91270(18) 0.70886(18) 0.54418(17)
O16_4 O 0.91250(12) 0.7843(2) 0.60129(12)
O22_5 O 0.7843(2) 0.91250(12) 0.89871(12)
O24_4 O 0.89871(12) 0.7157(2) 0.58750(12)
O29_8 O 0.9482 1.00000(10) 0.74822(11)
O30_16 O 1.0000 1.0000(3) 0.6964
N4_5 N 0.95006(15) 0.88799(14) 0.69040(15)
N10_5 N 0.88799(14) 0.95006(15) 0.80960(15)
H6_5 H 0.9339 0.8948 0.6983
H12_5 H 0.8948 0.9339 0.8017
N13_8 N 0.8869 1.00000(17) 0.81094(19)
N23_4 N 0.91838(9) 0.77831(9) 0.52597(10)
N24_4 N 0.97403(10) 0.72169(9) 0.58162(9)
C10_5 C 0.9356(2) 0.7961(2) 0.6032(2)
C16_5 C 0.7961(2) 0.9356(2) 0.8968(2)
C17_5 C 0.93849(14) 0.82158(12) 0.62487(13)
C23_5 C 0.82158(12) 0.93849(14) 0.87513(13)
C24_5 C 0.91594(12) 0.82922(11) 0.64422(11)
C30_5 C 0.82922(11) 0.91594(12) 0.85578(11)
H13_5 H 0.8977 0.8193 0.6433
H19_5 H 0.8193 0.8977 0.8567
C31_5 C 0.92033(12) 0.85149(9) 0.66488(12)
C37_5 C 0.85149(9) 0.92033(12) 0.83512(12)
H20_5 H 0.9051 0.8567 0.6780
H26_5 H 0.8567 0.9051 0.8220
C38_5 C 0.94727(7) 0.86612(8) 0.66617(7)
C44_5 C 0.86612(8) 0.94727(7) 0.83383(7)
C45_5 C 0.96982(12) 0.85848(10) 0.64682(16)
C51_5 C 0.85848(10) 0.96982(12) 0.85318(16)
H27_5 H 0.9880 0.8684 0.6477
H33_5 H 0.8684 0.9880 0.8523
C52_5 C 0.96543(16) 0.83620(13) 0.6262(2)
C58_5 C 0.83620(13) 0.96543(16) 0.8738(2)
H34_5 H 0.9807 0.8310 0.6131
H40_5 H 0.8310 0.9807 0.8869
C59_5 C 0.97513(7) 0.89760(10) 0.70057(7)
C65_5 C 0.89760(10) 0.97513(7) 0.79943(7)
C68_8 C 0.92883(15) 1.00001(10) 0.76740(10)
Cd1_3 Cd 0.063160(9) 0.250000(9) 0.4368
Na1_17 Na 0.0000 0.0000 0.2500
O1_3 O 0.04418(17) 0.20886(18) 0.41270(18)
O2_3 O 0.08750(12) 0.2157(2) 0.39871(12)
O3_11 O 0.00000(10) 0.0518 0.24822(11)
O4_17 O 0.0000(3) 0.0000 0.1964
N1_6 N 0.04994(15) 0.11201(14) 0.30960(15)
H1_6 H 0.0661 0.1052 0.3017
N2_11 N 0.00000(17) 0.1131 0.31094(19)
C1_6 C 0.0644(2) 0.2039(2) 0.3968(2)
C2_6 C 0.06151(14) 0.17842(12) 0.37513(13)
C3_6 C 0.08406(12) 0.17078(11) 0.35578(11)
H2_6 H 0.1023 0.1807 0.3567
C4_6 C 0.07967(12) 0.14851(9) 0.33512(12)
H3_6 H 0.0949 0.1433 0.3220
C5_6 C 0.05273(7) 0.13388(8) 0.33383(7)
C6_6 C 0.03018(12) 0.14152(10) 0.35318(16)
H4_6 H 0.0120 0.1316 0.3523
C7_6 C 0.03457(16) 0.16380(13) 0.3738(2)
H5_6 H 0.0193 0.1690 0.3869
C8_6 C 0.02487(7) 0.10240(10) 0.29943(7)
C9_11 C 0.00001(10) 0.07117(15) 0.26740(10)
Cd9_6 Cd 0.250000(9) 0.063160(9) 0.0632
O8_6 O 0.20886(18) 0.04418(17) 0.08730(18)
O12_3 O 0.08730(18) 0.29114(18) 0.45582(17)
O19_6 O 0.2157(2) 0.08750(12) 0.10129(12)
O23_3 O 0.10129(12) 0.2843(2) 0.41250(12)
O28_9 O 0.0518 0.00000(10) 0.25178(11)
O30_17 O 0.0000 0.0000(3) 0.3036
N7_6 N 0.11201(14) 0.04994(15) 0.19040(15)
H9_6 H 0.1052 0.0661 0.1983
N12_9 N 0.1131 0.00000(17) 0.18906(19)
N21_3 N 0.08162(9) 0.22169(9) 0.47403(10)
N22_3 N 0.02597(10) 0.27831(9) 0.41838(9)
C13_6 C 0.2039(2) 0.0644(2) 0.1032(2)
C20_6 C 0.17842(12) 0.06151(14) 0.12487(13)
C27_6 C 0.17078(11) 0.08406(12) 0.14422(11)
H16_6 H 0.1807 0.1023 0.1433
C34_6 C 0.14851(9) 0.07967(12) 0.16488(12)
H23_6 H 0.1433 0.0949 0.1780
C41_6 C 0.13388(8) 0.05273(7) 0.16617(7)
C48_6 C 0.14152(10) 0.03018(12) 0.14682(16)
H30_6 H 0.1316 0.0120 0.1477
C55_6 C 0.16380(13) 0.03457(16) 0.1262(2)
H37_6 H 0.1690 0.0193 0.1131
C62_6 C 0.10240(10) 0.02487(7) 0.20057(7)
C67_9 C 0.07117(15) 0.00001(10) 0.23260(10)
Na1_18 Na 0.0000 1.0000 0.2500
O4_18 O 0.0000(3) 1.0000 0.1964
Cd4_3 Cd 0.063160(9) 0.750000(9) 0.4368
Cd10_6 Cd 0.250000(9) 0.936840(9) 0.0632
O7_3 O 0.04418(17) 0.79114(18) 0.41270(18)
O9_6 O 0.20886(18) 0.95582(17) 0.08730(18)
O15_3 O 0.08730(18) 0.70886(18) 0.45582(17)
O18_3 O 0.08750(12) 0.7843(2) 0.39871(12)
O20_6 O 0.2157(2) 0.91250(12) 0.10129(12)
O26_3 O 0.10129(12) 0.7157(2) 0.41250(12)
O27_11 O 0.00000(10) 0.9482 0.24822(11)
O28_10 O 0.0518 1.00000(10) 0.25178(11)
O30_18 O 0.0000 1.0000(3) 0.3036
N6_6 N 0.04994(15) 0.88799(14) 0.30960(15)
N8_6 N 0.11201(14) 0.95006(15) 0.19040(15)
H8_6 H 0.0661 0.8948 0.3017
H10_6 H 0.1052 0.9339 0.1983
N11_11 N 0.00000(17) 0.8869 0.31094(19)
N12_10 N 0.1131 1.00000(17) 0.18906(19)
N27_3 N 0.08162(9) 0.77831(9) 0.47403(10)
N28_3 N 0.02597(10) 0.72169(9) 0.41838(9)
C12_6 C 0.0644(2) 0.7961(2) 0.3968(2)
C14_6 C 0.2039(2) 0.9356(2) 0.1032(2)
C19_6 C 0.06151(14) 0.82158(12) 0.37513(13)
C21_6 C 0.17842(12) 0.93849(14) 0.12487(13)
C26_6 C 0.08406(12) 0.82922(11) 0.35578(11)
C28_6 C 0.17078(11) 0.91594(12) 0.14422(11)
H15_6 H 0.1023 0.8193 0.3567
H17_6 H 0.1807 0.8977 0.1433
C33_6 C 0.07967(12) 0.85149(9) 0.33512(12)
C35_6 C 0.14851(9) 0.92033(12) 0.16488(12)
H22_6 H 0.0949 0.8567 0.3220
H24_6 H 0.1433 0.9051 0.1780
C40_6 C 0.05273(7) 0.86612(8) 0.33383(7)
C42_6 C 0.13388(8) 0.94727(7) 0.16617(7)
C47_6 C 0.03018(12) 0.85848(10) 0.35318(16)
C49_6 C 0.14152(10) 0.96982(12) 0.14682(16)
H29_6 H 0.0120 0.8684 0.3523
H31_6 H 0.1316 0.9880 0.1477
C54_6 C 0.03457(16) 0.83620(13) 0.3738(2)
C56_6 C 0.16380(13) 0.96543(16) 0.1262(2)
H36_6 H 0.0193 0.8310 0.3869
H38_6 H 0.1690 0.9807 0.1131
C61_6 C 0.02487(7) 0.89760(10) 0.29943(7)
C63_6 C 0.10240(10) 0.97513(7) 0.20057(7)
C66_11 C -0.00001(10) 0.92883(15) 0.26740(10)
C67_10 C 0.07117(15) 1.00001(10) 0.23260(10)
Na1_19 Na 1.0000 0.0000 0.2500
O3_12 O 1.00000(10) 0.0518 0.24822(11)
O4_19 O 1.0000(3) 0.0000 0.1964
N2_12 N 1.00000(17) 0.1131 0.31094(19)
C9_12 C 1.00001(10) 0.07117(15) 0.26740(10)
Cd2_5 Cd 0.936840(9) 0.250000(9) 0.4368
Cd12_6 Cd 0.750000(9) 0.063160(9) 0.0632
O5_5 O 0.95582(17) 0.20886(18) 0.41270(18)
O11_6 O 0.79114(18) 0.04418(17) 0.08730(18)
O13_5 O 0.91270(18) 0.29114(18) 0.45582(17)
O16_5 O 0.91250(12) 0.2157(2) 0.39871(12)
O22_6 O 0.7843(2) 0.08750(12) 0.10129(12)
O24_5 O 0.89871(12) 0.2843(2) 0.41250(12)
O29_9 O 0.9482 0.00000(10) 0.25178(11)
O30_19 O 1.0000 0.0000(3) 0.3036
N4_6 N 0.95006(15) 0.11201(14) 0.30960(15)
N10_6 N 0.88799(14) 0.04994(15) 0.19040(15)
H6_6 H 0.9339 0.1052 0.3017
H12_6 H 0.8948 0.0661 0.1983
N13_9 N 0.8869 0.00000(17) 0.18906(19)
N23_5 N 0.91838(9) 0.22169(9) 0.47403(10)
N24_5 N 0.97403(10) 0.27831(9) 0.41838(9)
C10_6 C 0.9356(2) 0.2039(2) 0.3968(2)
C16_6 C 0.7961(2) 0.0644(2) 0.1032(2)
C17_6 C 0.93849(14) 0.17842(12) 0.37513(13)
C23_6 C 0.82158(12) 0.06151(14) 0.12487(13)
C24_6 C 0.91594(12) 0.17078(11) 0.35578(11)
C30_6 C 0.82922(11) 0.08406(12) 0.14422(11)
H13_6 H 0.8977 0.1807 0.3567
H19_6 H 0.8193 0.1023 0.1433
C31_6 C 0.92033(12) 0.14851(9) 0.33512(12)
C37_6 C 0.85149(9) 0.07967(12) 0.16488(12)
H20_6 H 0.9051 0.1433 0.3220
H26_6 H 0.8567 0.0949 0.1780
C38_6 C 0.94727(7) 0.13388(8) 0.33383(7)
C44_6 C 0.86612(8) 0.05273(7) 0.16617(7)
C45_6 C 0.96982(12) 0.14152(10) 0.35318(16)
C51_6 C 0.85848(10) 0.03018(12) 0.14682(16)
H27_6 H 0.9880 0.1316 0.3523
H33_6 H 0.8684 0.0120 0.1477
C52_6 C 0.96543(16) 0.16380(13) 0.3738(2)
C58_6 C 0.83620(13) 0.03457(16) 0.1262(2)
H34_6 H 0.9807 0.1690 0.3869
H40_6 H 0.8310 0.0193 0.1131
C59_6 C 0.97513(7) 0.10240(10) 0.29943(7)
C65_6 C 0.89760(10) 0.02487(7) 0.20057(7)
C68_9 C 0.92883(15) -0.00001(10) 0.23260(10)
Na1_20 Na 1.0000 1.0000 0.2500
O4_20 O 1.0000(3) 1.0000 0.1964
Cd3_5 Cd 0.936840(9) 0.750000(9) 0.4368
Cd11_6 Cd 0.750000(9) 0.936840(9) 0.0632
O6_5 O 0.95582(17) 0.79114(18) 0.41270(18)
O10_6 O 0.79114(18) 0.95582(17) 0.08730(18)
O14_5 O 0.91270(18) 0.70886(18) 0.45582(17)
O17_5 O 0.91250(12) 0.7843(2) 0.39871(12)
O21_6 O 0.7843(2) 0.91250(12) 0.10129(12)
O25_5 O 0.89871(12) 0.7157(2) 0.41250(12)
O27_12 O 1.00000(10) 0.9482 0.24822(11)
O29_10 O 0.9482 1.00000(10) 0.25178(11)
O30_20 O 1.0000 1.0000(3) 0.3036
N5_6 N 0.95006(15) 0.88799(14) 0.30960(15)
N9_6 N 0.88799(14) 0.95006(15) 0.19040(15)
H7_6 H 0.9339 0.8948 0.3017
H11_6 H 0.8948 0.9339 0.1983
N11_12 N 1.00000(17) 0.8869 0.31094(19)
N13_10 N 0.8869 1.00000(17) 0.18906(19)
N25_5 N 0.91838(9) 0.77831(9) 0.47403(10)
N26_5 N 0.97403(10) 0.72169(9) 0.41838(9)
C11_6 C 0.9356(2) 0.7961(2) 0.3968(2)
C15_6 C 0.7961(2) 0.9356(2) 0.1032(2)
C18_6 C 0.93849(14) 0.82158(12) 0.37513(13)
C22_6 C 0.82158(12) 0.93849(14) 0.12487(13)
C25_6 C 0.91594(12) 0.82922(11) 0.35578(11)
C29_6 C 0.82922(11) 0.91594(12) 0.14422(11)
H14_6 H 0.8977 0.8193 0.3567
H18_6 H 0.8193 0.8977 0.1433
C32_6 C 0.92033(12) 0.85149(9) 0.33512(12)
C36_6 C 0.85149(9) 0.92033(12) 0.16488(12)
H21_6 H 0.9051 0.8567 0.3220
H25_6 H 0.8567 0.9051 0.1780
C39_6 C 0.94727(7) 0.86612(8) 0.33383(7)
C43_6 C 0.86612(8) 0.94727(7) 0.16617(7)
C46_6 C 0.96982(12) 0.85848(10) 0.35318(16)
C50_6 C 0.85848(10) 0.96982(12) 0.14682(16)
H28_6 H 0.9880 0.8684 0.3523
H32_6 H 0.8684 0.9880 0.1477
C53_6 C 0.96543(16) 0.83620(13) 0.3738(2)
C57_6 C 0.83620(13) 0.96543(16) 0.1262(2)
H35_6 H 0.9807 0.8310 0.3869
H39_6 H 0.8310 0.9807 0.1131
C60_6 C 0.97513(7) 0.89760(10) 0.29943(7)
C64_6 C 0.89760(10) 0.97513(7) 0.20057(7)
C66_12 C 0.99999(10) 0.92883(15) 0.26740(10)
C68_10 C 0.92883(15) 0.99999(10) 0.23260(10)
Na1_21 Na 0.0000 0.2500 0.5000
O1_4 O 0.20886(18) 0.08730(18) 0.45582(17)
O2_4 O 0.2157(2) 0.10129(12) 0.41250(12)
O3_13 O 0.0518 0.25178(11) 0.50000(10)
O4_21 O 0.0000 0.3036 0.5000(3)
N1_7 N 0.11201(14) 0.19040(15) 0.45006(15)
H1_7 H 0.1052 0.1983 0.4339
N2_13 N 0.1131 0.18906(19) 0.50000(17)
C1_7 C 0.2039(2) 0.1032(2) 0.4356(2)
C2_7 C 0.17842(12) 0.12487(13) 0.43849(14)
C3_7 C 0.17078(11) 0.14422(11) 0.41594(12)
H2_7 H 0.1807 0.1433 0.3977
C4_7 C 0.14851(9) 0.16488(12) 0.42033(12)
H3_7 H 0.1433 0.1780 0.4051
C5_7 C 0.13388(8) 0.16617(7) 0.44727(7)
C6_7 C 0.14152(10) 0.14682(16) 0.46982(12)
H4_7 H 0.1316 0.1477 0.4880
C7_7 C 0.16380(13) 0.1262(2) 0.46543(16)
H5_7 H 0.1690 0.1131 0.4807
C8_7 C 0.10240(10) 0.20057(7) 0.47513(7)
C9_13 C 0.07117(15) 0.23260(10) 0.49999(10)
Cd9_7 Cd 0.063160(9) 0.4368 0.250000(9)
Cd12_7 Cd 0.063160(9) 0.4368 0.750000(9)
O5_6 O 0.20886(18) 0.08730(18) 0.54418(17)
O8_7 O 0.04418(17) 0.41270(18) 0.29114(18)
O11_7 O 0.04418(17) 0.41270(18) 0.70886(18)
O12_4 O 0.29114(18) 0.04418(17) 0.41270(18)
O13_6 O 0.29114(18) 0.04418(17) 0.58730(18)
O16_6 O 0.2157(2) 0.10129(12) 0.58750(12)
O19_7 O 0.08750(12) 0.39871(12) 0.2843(2)
O22_7 O 0.08750(12) 0.39871(12) 0.7157(2)
O23_4 O 0.2843(2) 0.08750(12) 0.39871(12)
O24_6 O 0.2843(2) 0.08750(12) 0.60129(12)
O28_11 O 0.00000(10) 0.24822(11) 0.4482
O29_11 O 0.00000(10) 0.24822(11) 0.5518
O30_21 O 0.0000(3) 0.1964 0.5000
N4_7 N 0.11201(14) 0.19040(15) 0.54994(15)
N7_7 N 0.04994(15) 0.30960(15) 0.38799(14)
N10_7 N 0.04994(15) 0.30960(15) 0.61201(14)
H6_7 H 0.1052 0.1983 0.5661
H9_7 H 0.0661 0.3017 0.3948
H12_7 H 0.0661 0.3017 0.6052
N12_11 N 0.00000(17) 0.31094(19) 0.3869
N13_11 N 0.00000(17) 0.31094(19) 0.6131
C10_7 C 0.2039(2) 0.1032(2) 0.5644(2)
C13_7 C 0.0644(2) 0.3968(2) 0.2961(2)
C16_7 C 0.0644(2) 0.3968(2) 0.7039(2)
C17_7 C 0.17842(12) 0.12487(13) 0.56151(14)
C20_7 C 0.06151(14) 0.37513(13) 0.32158(12)
C23_7 C 0.06151(14) 0.37513(13) 0.67842(12)
C24_7 C 0.17078(11) 0.14422(11) 0.58406(12)
C27_7 C 0.08406(12) 0.35578(11) 0.32922(11)
C30_7 C 0.08406(12) 0.35578(11) 0.67078(11)
H13_7 H 0.1807 0.1433 0.6023
H16_7 H 0.1023 0.3567 0.3193
H19_7 H 0.1023 0.3567 0.6807
C31_7 C 0.14851(9) 0.16488(12) 0.57967(12)
C34_7 C 0.07967(12) 0.33512(12) 0.35149(9)
C37_7 C 0.07967(12) 0.33512(12) 0.64851(9)
H20_7 H 0.1433 0.1780 0.5949
H23_7 H 0.0949 0.3220 0.3567
H26_7 H 0.0949 0.3220 0.6433
C38_7 C 0.13388(8) 0.16617(7) 0.55273(7)
C41_7 C 0.05273(7) 0.33383(7) 0.36612(8)
C44_7 C 0.05273(7) 0.33383(7) 0.63388(8)
C45_7 C 0.14152(10) 0.14682(16) 0.53018(12)
C48_7 C 0.03018(12) 0.35318(16) 0.35848(10)
C51_7 C 0.03018(12) 0.35318(16) 0.64152(10)
H27_7 H 0.1316 0.1477 0.5120
H30_7 H 0.0120 0.3523 0.3684
H33_7 H 0.0120 0.3523 0.6316
C52_7 C 0.16380(13) 0.1262(2) 0.53457(16)
C55_7 C 0.03457(16) 0.3738(2) 0.33620(13)
C58_7 C 0.03457(16) 0.3738(2) 0.66380(13)
H34_7 H 0.1690 0.1131 0.5193
H37_7 H 0.0193 0.3869 0.3310
H40_7 H 0.0193 0.3869 0.6690
C59_7 C 0.10240(10) 0.20057(7) 0.52487(7)
C62_7 C 0.02487(7) 0.29943(7) 0.39760(10)
C65_7 C 0.02487(7) 0.29943(7) 0.60240(10)
C67_11 C 0.00001(10) 0.26740(10) 0.42883(15)
C68_11 C -0.00001(10) 0.26740(10) 0.57117(15)
Na1_22 Na 1.0000 0.2500 0.5000
O4_22 O 1.0000 0.3036 0.5000(3)
Cd10_7 Cd 0.936840(9) 0.4368 0.250000(9)
Cd11_7 Cd 0.936840(9) 0.4368 0.750000(9)
O6_6 O 0.79114(18) 0.08730(18) 0.54418(17)
O7_4 O 0.79114(18) 0.08730(18) 0.45582(17)
O9_7 O 0.95582(17) 0.41270(18) 0.29114(18)
O10_7 O 0.95582(17) 0.41270(18) 0.70886(18)
O14_6 O 0.70886(18) 0.04418(17) 0.58730(18)
O15_4 O 0.70886(18) 0.04418(17) 0.41270(18)
O17_6 O 0.7843(2) 0.10129(12) 0.58750(12)
O18_4 O 0.7843(2) 0.10129(12) 0.41250(12)
O20_7 O 0.91250(12) 0.39871(12) 0.2843(2)
O21_7 O 0.91250(12) 0.39871(12) 0.7157(2)
O25_6 O 0.7157(2) 0.08750(12) 0.60129(12)
O26_4 O 0.7157(2) 0.08750(12) 0.39871(12)
O27_13 O 0.9482 0.25178(11) 0.50000(10)
O28_12 O 1.00000(10) 0.24822(11) 0.4482
O29_12 O 1.00000(10) 0.24822(11) 0.5518
O30_22 O 1.0000(3) 0.1964 0.5000
N5_7 N 0.88799(14) 0.19040(15) 0.54994(15)
N6_7 N 0.88799(14) 0.19040(15) 0.45006(15)
N8_7 N 0.95006(15) 0.30960(15) 0.38799(14)
N9_7 N 0.95006(15) 0.30960(15) 0.61201(14)
H7_7 H 0.8948 0.1983 0.5661
H8_7 H 0.8948 0.1983 0.4339
H10_7 H 0.9339 0.3017 0.3948
H11_7 H 0.9339 0.3017 0.6052
N11_13 N 0.8869 0.18906(19) 0.50000(17)
N12_12 N 1.00000(17) 0.31094(19) 0.3869
N13_12 N 1.00000(17) 0.31094(19) 0.6131
C11_7 C 0.7961(2) 0.1032(2) 0.5644(2)
C12_7 C 0.7961(2) 0.1032(2) 0.4356(2)
C14_7 C 0.9356(2) 0.3968(2) 0.2961(2)
C15_7 C 0.9356(2) 0.3968(2) 0.7039(2)
C18_7 C 0.82158(12) 0.12487(13) 0.56151(14)
C19_7 C 0.82158(12) 0.12487(13) 0.43849(14)
C21_7 C 0.93849(14) 0.37513(13) 0.32158(12)
C22_7 C 0.93849(14) 0.37513(13) 0.67842(12)
C25_7 C 0.82922(11) 0.14422(11) 0.58406(12)
C26_7 C 0.82922(11) 0.14422(11) 0.41594(12)
C28_7 C 0.91594(12) 0.35578(11) 0.32922(11)
C29_7 C 0.91594(12) 0.35578(11) 0.67078(11)
H14_7 H 0.8193 0.1433 0.6023
H15_7 H 0.8193 0.1433 0.3977
H17_7 H 0.8977 0.3567 0.3193
H18_7 H 0.8977 0.3567 0.6807
C32_7 C 0.85149(9) 0.16488(12) 0.57967(12)
C33_7 C 0.85149(9) 0.16488(12) 0.42033(12)
C35_7 C 0.92033(12) 0.33512(12) 0.35149(9)
C36_7 C 0.92033(12) 0.33512(12) 0.64851(9)
H21_7 H 0.8567 0.1780 0.5949
H22_7 H 0.8567 0.1780 0.4051
H24_7 H 0.9051 0.3220 0.3567
H25_7 H 0.9051 0.3220 0.6433
C39_7 C 0.86612(8) 0.16617(7) 0.55273(7)
C40_7 C 0.86612(8) 0.16617(7) 0.44727(7)
C42_7 C 0.94727(7) 0.33383(7) 0.36612(8)
C43_7 C 0.94727(7) 0.33383(7) 0.63388(8)
C46_7 C 0.85848(10) 0.14682(16) 0.53018(12)
C47_7 C 0.85848(10) 0.14682(16) 0.46982(12)
C49_7 C 0.96982(12) 0.35318(16) 0.35848(10)
C50_7 C 0.96982(12) 0.35318(16) 0.64152(10)
H28_7 H 0.8684 0.1477 0.5120
H29_7 H 0.8684 0.1477 0.4880
H31_7 H 0.9880 0.3523 0.3684
H32_7 H 0.9880 0.3523 0.6316
C53_7 C 0.83620(13) 0.1262(2) 0.53457(16)
C54_7 C 0.83620(13) 0.1262(2) 0.46543(16)
C56_7 C 0.96543(16) 0.3738(2) 0.33620(13)
C57_7 C 0.96543(16) 0.3738(2) 0.66380(13)
H35_7 H 0.8310 0.1131 0.5193
H36_7 H 0.8310 0.1131 0.4807
H38_7 H 0.9807 0.3869 0.3310
H39_7 H 0.9807 0.3869 0.6690
C60_7 C 0.89760(10) 0.20057(7) 0.52487(7)
C61_7 C 0.89760(10) 0.20057(7) 0.47513(7)
C63_7 C 0.97513(7) 0.29943(7) 0.39760(10)
C64_7 C 0.97513(7) 0.29943(7) 0.60240(10)
C66_13 C 0.92883(15) 0.23260(10) 0.50001(10)
C67_12 C 1.00001(10) 0.26740(10) 0.42883(15)
C68_12 C 0.99999(10) 0.26740(10) 0.57117(15)
O12_5 O 0.29114(18) 0.08730(18) 0.04418(17)
O23_5 O 0.2843(2) 0.10129(12) 0.08750(12)
N21_4 N 0.22169(9) 0.08162(9) 0.02597(10)
N22_4 N 0.27831(9) 0.02597(10) 0.08162(9)
O13_7 O 0.29114(18) 0.91270(18) 0.04418(17)
O24_7 O 0.2843(2) 0.89871(12) 0.08750(12)
N23_6 N 0.22169(9) 0.91838(9) 0.02597(10)
N24_6 N 0.27831(9) 0.97403(10) 0.08162(9)
O15_5 O 0.70886(18) 0.08730(18) 0.04418(17)
O26_5 O 0.7157(2) 0.10129(12) 0.08750(12)
N27_4 N 0.77831(9) 0.08162(9) 0.02597(10)
N28_4 N 0.72169(9) 0.02597(10) 0.08162(9)
O14_7 O 0.70886(18) 0.91270(18) 0.04418(17)
O25_7 O 0.7157(2) 0.89871(12) 0.08750(12)
N25_6 N 0.77831(9) 0.91838(9) 0.02597(10)
N26_6 N 0.72169(9) 0.97403(10) 0.08162(9)
Na1_23 Na 0.2500 0.0000 0.0000
O1_5 O 0.08730(18) 0.20886(18) 0.04418(17)
O2_5 O 0.10129(12) 0.2157(2) 0.08750(12)
O3_14 O 0.25178(11) 0.0518 0.00000(10)
O4_23 O 0.3036 0.0000 0.0000(3)
N1_8 N 0.19040(15) 0.11201(14) 0.04994(15)
H1_8 H 0.1983 0.1052 0.0661
N2_14 N 0.18906(19) 0.1131 0.00000(17)
C1_8 C 0.1032(2) 0.2039(2) 0.0644(2)
C2_8 C 0.12487(13) 0.17842(12) 0.06151(14)
C3_8 C 0.14422(11) 0.17078(11) 0.08406(12)
H2_8 H 0.1433 0.1807 0.1023
C4_8 C 0.16488(12) 0.14851(9) 0.07967(12)
H3_8 H 0.1780 0.1433 0.0949
C5_8 C 0.16617(7) 0.13388(8) 0.05273(7)
C6_8 C 0.14682(16) 0.14152(10) 0.03018(12)
H4_8 H 0.1477 0.1316 0.0120
C7_8 C 0.1262(2) 0.16380(13) 0.03457(16)
H5_8 H 0.1131 0.1690 0.0193
C8_8 C 0.20057(7) 0.10240(10) 0.02487(7)
C9_14 C 0.23260(10) 0.07117(15) 0.00001(10)
Cd9_8 Cd 0.4368 0.063160(9) 0.250000(9)
O8_8 O 0.41270(18) 0.04418(17) 0.20886(18)
O12_6 O 0.04418(17) 0.29114(18) 0.08730(18)
O19_8 O 0.39871(12) 0.08750(12) 0.2157(2)
O23_6 O 0.08750(12) 0.2843(2) 0.10129(12)
O28_13 O 0.24822(11) 0.00000(10) 0.0518
O30_23 O 0.1964 0.0000(3) 0.0000
N7_8 N 0.30960(15) 0.04994(15) 0.11201(14)
H9_8 H 0.3017 0.0661 0.1052
N12_13 N 0.31094(19) 0.00000(17) 0.1131
C13_8 C 0.3968(2) 0.0644(2) 0.2039(2)
C20_8 C 0.37513(13) 0.06151(14) 0.17842(12)
C27_8 C 0.35578(11) 0.08406(12) 0.17078(11)
H16_8 H 0.3567 0.1023 0.1807
C34_8 C 0.33512(12) 0.07967(12) 0.14851(9)
H23_8 H 0.3220 0.0949 0.1433
C41_8 C 0.33383(7) 0.05273(7) 0.13388(8)
C48_8 C 0.35318(16) 0.03018(12) 0.14152(10)
H30_8 H 0.3523 0.0120 0.1316
C55_8 C 0.3738(2) 0.03457(16) 0.16380(13)
H37_8 H 0.3869 0.0193 0.1690
C62_8 C 0.29943(7) 0.02487(7) 0.10240(10)
C67_13 C 0.26740(10) 0.00001(10) 0.07117(15)
Na1_24 Na 0.2500 0.0000 1.0000
O3_15 O 0.25178(11) 0.0518 1.00000(10)
O4_24 O 0.3036 0.0000 1.0000(3)
N2_15 N 0.18906(19) 0.1131 1.00000(17)
C9_15 C 0.23260(10) 0.07117(15) 1.00001(10)
Cd12_8 Cd 0.4368 0.063160(9) 0.750000(9)
O5_7 O 0.08730(18) 0.20886(18) 0.95582(17)
O11_8 O 0.41270(18) 0.04418(17) 0.79114(18)
O13_8 O 0.04418(17) 0.29114(18) 0.91270(18)
O16_7 O 0.10129(12) 0.2157(2) 0.91250(12)
O22_8 O 0.39871(12) 0.08750(12) 0.7843(2)
O24_8 O 0.08750(12) 0.2843(2) 0.89871(12)
O29_13 O 0.24822(11) 0.00000(10) 0.9482
O30_24 O 0.1964 0.0000(3) 1.0000
N4_8 N 0.19040(15) 0.11201(14) 0.95006(15)
N10_8 N 0.30960(15) 0.04994(15) 0.88799(14)
H6_8 H 0.1983 0.1052 0.9339
H12_8 H 0.3017 0.0661 0.8948
N13_13 N 0.31094(19) 0.00000(17) 0.8869
N14_5 N 0.22169(9) 0.08162(9) 0.97403(10)
N20_5 N 0.27831(9) 0.02597(10) 0.91838(9)
C10_8 C 0.1032(2) 0.2039(2) 0.9356(2)
C16_8 C 0.3968(2) 0.0644(2) 0.7961(2)
C17_8 C 0.12487(13) 0.17842(12) 0.93849(14)
C23_8 C 0.37513(13) 0.06151(14) 0.82158(12)
C24_8 C 0.14422(11) 0.17078(11) 0.91594(12)
C30_8 C 0.35578(11) 0.08406(12) 0.82922(11)
H13_8 H 0.1433 0.1807 0.8977
H19_8 H 0.3567 0.1023 0.8193
C31_8 C 0.16488(12) 0.14851(9) 0.92033(12)
C37_8 C 0.33512(12) 0.07967(12) 0.85149(9)
H20_8 H 0.1780 0.1433 0.9051
H26_8 H 0.3220 0.0949 0.8567
C38_8 C 0.16617(7) 0.13388(8) 0.94727(7)
C44_8 C 0.33383(7) 0.05273(7) 0.86612(8)
C45_8 C 0.14682(16) 0.14152(10) 0.96982(12)
C51_8 C 0.35318(16) 0.03018(12) 0.85848(10)
H27_8 H 0.1477 0.1316 0.9880
H33_8 H 0.3523 0.0120 0.8684
C52_8 C 0.1262(2) 0.16380(13) 0.96543(16)
C58_8 C 0.3738(2) 0.03457(16) 0.83620(13)
H34_8 H 0.1131 0.1690 0.9807
H40_8 H 0.3869 0.0193 0.8310
C59_8 C 0.20057(7) 0.10240(10) 0.97513(7)
C65_8 C 0.29943(7) 0.02487(7) 0.89760(10)
C68_13 C 0.26740(10) -0.00001(10) 0.92883(15)
Na1_25 Na 0.2500 1.0000 0.0000
O4_25 O 0.3036 1.0000 0.0000(3)
Cd10_8 Cd 0.4368 0.936840(9) 0.250000(9)
O7_5 O 0.08730(18) 0.79114(18) 0.04418(17)
O9_8 O 0.41270(18) 0.95582(17) 0.20886(18)
O15_6 O 0.04418(17) 0.70886(18) 0.08730(18)
O18_5 O 0.10129(12) 0.7843(2) 0.08750(12)
O20_8 O 0.39871(12) 0.91250(12) 0.2157(2)
O26_6 O 0.08750(12) 0.7157(2) 0.10129(12)
O27_14 O 0.25178(11) 0.9482 0.00000(10)
O28_14 O 0.24822(11) 1.00000(10) 0.0518
O30_25 O 0.1964 1.0000(3) 0.0000
N6_8 N 0.19040(15) 0.88799(14) 0.04994(15)
N8_8 N 0.30960(15) 0.95006(15) 0.11201(14)
H8_8 H 0.1983 0.8948 0.0661
H10_8 H 0.3017 0.9339 0.1052
N11_14 N 0.18906(19) 0.8869 -0.00000(17)
N12_14 N 0.31094(19) 1.00000(17) 0.1131
C12_8 C 0.1032(2) 0.7961(2) 0.0644(2)
C14_8 C 0.3968(2) 0.9356(2) 0.2039(2)
C19_8 C 0.12487(13) 0.82158(12) 0.06151(14)
C21_8 C 0.37513(13) 0.93849(14) 0.17842(12)
C26_8 C 0.14422(11) 0.82922(11) 0.08406(12)
C28_8 C 0.35578(11) 0.91594(12) 0.17078(11)
H15_8 H 0.1433 0.8193 0.1023
H17_8 H 0.3567 0.8977 0.1807
C33_8 C 0.16488(12) 0.85149(9) 0.07967(12)
C35_8 C 0.33512(12) 0.92033(12) 0.14851(9)
H22_8 H 0.1780 0.8567 0.0949
H24_8 H 0.3220 0.9051 0.1433
C40_8 C 0.16617(7) 0.86612(8) 0.05273(7)
C42_8 C 0.33383(7) 0.94727(7) 0.13388(8)
C47_8 C 0.14682(16) 0.85848(10) 0.03018(12)
C49_8 C 0.35318(16) 0.96982(12) 0.14152(10)
H29_8 H 0.1477 0.8684 0.0120
H31_8 H 0.3523 0.9880 0.1316
C54_8 C 0.1262(2) 0.83620(13) 0.03457(16)
C56_8 C 0.3738(2) 0.96543(16) 0.16380(13)
H36_8 H 0.1131 0.8310 0.0193
H38_8 H 0.3869 0.9807 0.1690
C61_8 C 0.20057(7) 0.89760(10) 0.02487(7)
C63_8 C 0.29943(7) 0.97513(7) 0.10240(10)
C66_14 C 0.23260(10) 0.92883(15) -0.00001(10)
C67_14 C 0.26740(10) 1.00001(10) 0.07117(15)
Na1_26 Na 0.2500 1.0000 1.0000
O4_26 O 0.3036 1.0000 1.0000(3)
Cd11_8 Cd 0.4368 0.936840(9) 0.750000(9)
O6_7 O 0.08730(18) 0.79114(18) 0.95582(17)
O10_8 O 0.41270(18) 0.95582(17) 0.79114(18)
O14_8 O 0.04418(17) 0.70886(18) 0.91270(18)
O17_7 O 0.10129(12) 0.7843(2) 0.91250(12)
O21_8 O 0.39871(12) 0.91250(12) 0.7843(2)
O25_8 O 0.08750(12) 0.7157(2) 0.89871(12)
O27_15 O 0.25178(11) 0.9482 1.00000(10)
O29_14 O 0.24822(11) 1.00000(10) 0.9482
O30_26 O 0.1964 1.0000(3) 1.0000
N5_8 N 0.19040(15) 0.88799(14) 0.95006(15)
N9_8 N 0.30960(15) 0.95006(15) 0.88799(14)
H7_8 H 0.1983 0.8948 0.9339
H11_8 H 0.3017 0.9339 0.8948
N11_15 N 0.18906(19) 0.8869 1.00000(17)
N13_14 N 0.31094(19) 1.00000(17) 0.8869
N15_5 N 0.22169(9) 0.91838(9) 0.97403(10)
N19_5 N 0.27831(9) 0.97403(10) 0.91838(9)
C11_8 C 0.1032(2) 0.7961(2) 0.9356(2)
C15_8 C 0.3968(2) 0.9356(2) 0.7961(2)
C18_8 C 0.12487(13) 0.82158(12) 0.93849(14)
C22_8 C 0.37513(13) 0.93849(14) 0.82158(12)
C25_8 C 0.14422(11) 0.82922(11) 0.91594(12)
C29_8 C 0.35578(11) 0.91594(12) 0.82922(11)
H14_8 H 0.1433 0.8193 0.8977
H18_8 H 0.3567 0.8977 0.8193
C32_8 C 0.16488(12) 0.85149(9) 0.92033(12)
C36_8 C 0.33512(12) 0.92033(12) 0.85149(9)
H21_8 H 0.1780 0.8567 0.9051
H25_8 H 0.3220 0.9051 0.8567
C39_8 C 0.16617(7) 0.86612(8) 0.94727(7)
C43_8 C 0.33383(7) 0.94727(7) 0.86612(8)
C46_8 C 0.14682(16) 0.85848(10) 0.96982(12)
C50_8 C 0.35318(16) 0.96982(12) 0.85848(10)
H28_8 H 0.1477 0.8684 0.9880
H32_8 H 0.3523 0.9880 0.8684
C53_8 C 0.1262(2) 0.83620(13) 0.96543(16)
C57_8 C 0.3738(2) 0.96543(16) 0.83620(13)
H35_8 H 0.1131 0.8310 0.9807
H39_8 H 0.3869 0.9807 0.8310
C60_8 C 0.20057(7) 0.89760(10) 0.97513(7)
C64_8 C 0.29943(7) 0.97513(7) 0.89760(10)
C66_15 C 0.23260(10) 0.92883(15) 0.99999(10)
C68_14 C 0.26740(10) 0.99999(10) 0.92883(15)
Na1_27 Na 0.7500 0.0000 0.0000
O4_27 O 0.6964 0.0000 0.0000(3)
Cd10_9 Cd 0.5632 0.063160(9) 0.250000(9)
O7_6 O 0.91270(18) 0.20886(18) 0.04418(17)
O9_9 O 0.58730(18) 0.04418(17) 0.20886(18)
O15_7 O 0.95582(17) 0.29114(18) 0.08730(18)
O18_6 O 0.89871(12) 0.2157(2) 0.08750(12)
O20_9 O 0.60129(12) 0.08750(12) 0.2157(2)
O26_7 O 0.91250(12) 0.2843(2) 0.10129(12)
O27_16 O 0.74822(11) 0.0518 0.00000(10)
O28_15 O 0.75178(11) 0.00000(10) 0.0518
O30_27 O 0.8036 0.0000(3) 0.0000
N6_9 N 0.80960(15) 0.11201(14) 0.04994(15)
N8_9 N 0.69040(15) 0.04994(15) 0.11201(14)
H8_9 H 0.8017 0.1052 0.0661
H10_9 H 0.6983 0.0661 0.1052
N11_16 N 0.81094(19) 0.1131 -0.00000(17)
N12_15 N 0.68906(19) 0.00000(17) 0.1131
C12_9 C 0.8968(2) 0.2039(2) 0.0644(2)
C14_9 C 0.6032(2) 0.0644(2) 0.2039(2)
C19_9 C 0.87513(13) 0.17842(12) 0.06151(14)
C21_9 C 0.62487(13) 0.06151(14) 0.17842(12)
C26_9 C 0.85578(11) 0.17078(11) 0.08406(12)
C28_9 C 0.64422(11) 0.08406(12) 0.17078(11)
H15_9 H 0.8567 0.1807 0.1023
H17_9 H 0.6433 0.1023 0.1807
C33_9 C 0.83512(12) 0.14851(9) 0.07967(12)
C35_9 C 0.66488(12) 0.07967(12) 0.14851(9)
H22_9 H 0.8220 0.1433 0.0949
H24_9 H 0.6780 0.0949 0.1433
C40_9 C 0.83383(7) 0.13388(8) 0.05273(7)
C42_9 C 0.66617(7) 0.05273(7) 0.13388(8)
C47_9 C 0.85318(16) 0.14152(10) 0.03018(12)
C49_9 C 0.64682(16) 0.03018(12) 0.14152(10)
H29_9 H 0.8523 0.1316 0.0120
H31_9 H 0.6477 0.0120 0.1316
C54_9 C 0.8738(2) 0.16380(13) 0.03457(16)
C56_9 C 0.6262(2) 0.03457(16) 0.16380(13)
H36_9 H 0.8869 0.1690 0.0193
H38_9 H 0.6131 0.0193 0.1690
C61_9 C 0.79943(7) 0.10240(10) 0.02487(7)
C63_9 C 0.70057(7) 0.02487(7) 0.10240(10)
C66_16 C 0.76740(10) 0.07117(15) -0.00001(10)
C67_15 C 0.73260(10) -0.00001(10) 0.07117(15)
Na1_28 Na 0.7500 0.0000 1.0000
O4_28 O 0.6964 0.0000 1.0000(3)
Cd11_9 Cd 0.5632 0.063160(9) 0.750000(9)
O6_8 O 0.91270(18) 0.20886(18) 0.95582(17)
O10_9 O 0.58730(18) 0.04418(17) 0.79114(18)
O14_9 O 0.95582(17) 0.29114(18) 0.91270(18)
O17_8 O 0.89871(12) 0.2157(2) 0.91250(12)
O21_9 O 0.60129(12) 0.08750(12) 0.7843(2)
O25_9 O 0.91250(12) 0.2843(2) 0.89871(12)
O27_17 O 0.74822(11) 0.0518 1.00000(10)
O29_15 O 0.75178(11) 0.00000(10) 0.9482
O30_28 O 0.8036 0.0000(3) 1.0000
N5_9 N 0.80960(15) 0.11201(14) 0.95006(15)
N9_9 N 0.69040(15) 0.04994(15) 0.88799(14)
H7_9 H 0.8017 0.1052 0.9339
H11_9 H 0.6983 0.0661 0.8948
N11_17 N 0.81094(19) 0.1131 1.00000(17)
N13_15 N 0.68906(19) 0.00000(17) 0.8869
N15_6 N 0.77831(9) 0.08162(9) 0.97403(10)
N19_6 N 0.72169(9) 0.02597(10) 0.91838(9)
C11_9 C 0.8968(2) 0.2039(2) 0.9356(2)
C15_9 C 0.6032(2) 0.0644(2) 0.7961(2)
C18_9 C 0.87513(13) 0.17842(12) 0.93849(14)
C22_9 C 0.62487(13) 0.06151(14) 0.82158(12)
C25_9 C 0.85578(11) 0.17078(11) 0.91594(12)
C29_9 C 0.64422(11) 0.08406(12) 0.82922(11)
H14_9 H 0.8567 0.1807 0.8977
H18_9 H 0.6433 0.1023 0.8193
C32_9 C 0.83512(12) 0.14851(9) 0.92033(12)
C36_9 C 0.66488(12) 0.07967(12) 0.85149(9)
H21_9 H 0.8220 0.1433 0.9051
H25_9 H 0.6780 0.0949 0.8567
C39_9 C 0.83383(7) 0.13388(8) 0.94727(7)
C43_9 C 0.66617(7) 0.05273(7) 0.86612(8)
C46_9 C 0.85318(16) 0.14152(10) 0.96982(12)
C50_9 C 0.64682(16) 0.03018(12) 0.85848(10)
H28_9 H 0.8523 0.1316 0.9880
H32_9 H 0.6477 0.0120 0.8684
C53_9 C 0.8738(2) 0.16380(13) 0.96543(16)
C57_9 C 0.6262(2) 0.03457(16) 0.83620(13)
H35_9 H 0.8869 0.1690 0.9807
H39_9 H 0.6131 0.0193 0.8310
C60_9 C 0.79943(7) 0.10240(10) 0.97513(7)
C64_9 C 0.70057(7) 0.02487(7) 0.89760(10)
C66_17 C 0.76740(10) 0.07117(15) 0.99999(10)
C68_15 C 0.73260(10) 0.00001(10) 0.92883(15)
Na1_29 Na 0.7500 1.0000 0.0000
O1_6 O 0.91270(18) 0.79114(18) 0.04418(17)
O2_6 O 0.89871(12) 0.7843(2) 0.08750(12)
O3_16 O 0.74822(11) 0.9482 0.00000(10)
O4_29 O 0.6964 1.0000 0.0000(3)
N1_9 N 0.80960(15) 0.88799(14) 0.04994(15)
H1_9 H 0.8017 0.8948 0.0661
N2_16 N 0.81094(19) 0.8869 0.00000(17)
C1_9 C 0.8968(2) 0.7961(2) 0.0644(2)
C2_9 C 0.87513(13) 0.82158(12) 0.06151(14)
C3_9 C 0.85578(11) 0.82922(11) 0.08406(12)
H2_9 H 0.8567 0.8193 0.1023
C4_9 C 0.83512(12) 0.85149(9) 0.07967(12)
H3_9 H 0.8220 0.8567 0.0949
C5_9 C 0.83383(7) 0.86612(8) 0.05273(7)
C6_9 C 0.85318(16) 0.85848(10) 0.03018(12)
H4_9 H 0.8523 0.8684 0.0120
C7_9 C 0.8738(2) 0.83620(13) 0.03457(16)
H5_9 H 0.8869 0.8310 0.0193
C8_9 C 0.79943(7) 0.89760(10) 0.02487(7)
C9_16 C 0.76740(10) 0.92883(15) 0.00001(10)
Cd9_9 Cd 0.5632 0.936840(9) 0.250000(9)
O8_9 O 0.58730(18) 0.95582(17) 0.20886(18)
O12_7 O 0.95582(17) 0.70886(18) 0.08730(18)
O19_9 O 0.60129(12) 0.91250(12) 0.2157(2)
O23_7 O 0.91250(12) 0.7157(2) 0.10129(12)
O28_16 O 0.75178(11) 1.00000(10) 0.0518
O30_29 O 0.8036 1.0000(3) 0.0000
N7_9 N 0.69040(15) 0.95006(15) 0.11201(14)
H9_9 H 0.6983 0.9339 0.1052
N12_16 N 0.68906(19) 1.00000(17) 0.1131
C13_9 C 0.6032(2) 0.9356(2) 0.2039(2)
C20_9 C 0.62487(13) 0.93849(14) 0.17842(12)
C27_9 C 0.64422(11) 0.91594(12) 0.17078(11)
H16_9 H 0.6433 0.8977 0.1807
C34_9 C 0.66488(12) 0.92033(12) 0.14851(9)
H23_9 H 0.6780 0.9051 0.1433
C41_9 C 0.66617(7) 0.94727(7) 0.13388(8)
C48_9 C 0.64682(16) 0.96982(12) 0.14152(10)
H30_9 H 0.6477 0.9880 0.1316
C55_9 C 0.6262(2) 0.96543(16) 0.16380(13)
H37_9 H 0.6131 0.9807 0.1690
C62_9 C 0.70057(7) 0.97513(7) 0.10240(10)
C67_16 C 0.73260(10) 0.99999(10) 0.07117(15)
Na1_30 Na 0.7500 1.0000 1.0000
O3_17 O 0.74822(11) 0.9482 1.00000(10)
O4_30 O 0.6964 1.0000 1.0000(3)
N2_17 N 0.81094(19) 0.8869 1.00000(17)
C9_17 C 0.76740(10) 0.92883(15) 1.00001(10)
Cd12_9 Cd 0.5632 0.936840(9) 0.750000(9)
O5_8 O 0.91270(18) 0.79114(18) 0.95582(17)
O11_9 O 0.58730(18) 0.95582(17) 0.79114(18)
O13_9 O 0.95582(17) 0.70886(18) 0.91270(18)
O16_8 O 0.89871(12) 0.7843(2) 0.91250(12)
O22_9 O 0.60129(12) 0.91250(12) 0.7843(2)
O24_9 O 0.91250(12) 0.7157(2) 0.89871(12)
O29_16 O 0.75178(11) 1.00000(10) 0.9482
O30_30 O 0.8036 1.0000(3) 1.0000
N4_9 N 0.80960(15) 0.88799(14) 0.95006(15)
N10_9 N 0.69040(15) 0.95006(15) 0.88799(14)
H6_9 H 0.8017 0.8948 0.9339
H12_9 H 0.6983 0.9339 0.8948
N13_16 N 0.68906(19) 1.00000(17) 0.8869
N14_6 N 0.77831(9) 0.91838(9) 0.97403(10)
N20_6 N 0.72169(9) 0.97403(10) 0.91838(9)
C10_9 C 0.8968(2) 0.7961(2) 0.9356(2)
C16_9 C 0.6032(2) 0.9356(2) 0.7961(2)
C17_9 C 0.87513(13) 0.82158(12) 0.93849(14)
C23_9 C 0.62487(13) 0.93849(14) 0.82158(12)
C24_9 C 0.85578(11) 0.82922(11) 0.91594(12)
C30_9 C 0.64422(11) 0.91594(12) 0.82922(11)
H13_9 H 0.8567 0.8193 0.8977
H19_9 H 0.6433 0.8977 0.8193
C31_9 C 0.83512(12) 0.85149(9) 0.92033(12)
C37_9 C 0.66488(12) 0.92033(12) 0.85149(9)
H20_9 H 0.8220 0.8567 0.9051
H26_9 H 0.6780 0.9051 0.8567
C38_9 C 0.83383(7) 0.86612(8) 0.94727(7)
C44_9 C 0.66617(7) 0.94727(7) 0.86612(8)
C45_9 C 0.85318(16) 0.85848(10) 0.96982(12)
C51_9 C 0.64682(16) 0.96982(12) 0.85848(10)
H27_9 H 0.8523 0.8684 0.9880
H33_9 H 0.6477 0.9880 0.8684
C52_9 C 0.8738(2) 0.83620(13) 0.96543(16)
C58_9 C 0.6262(2) 0.96543(16) 0.83620(13)
H34_9 H 0.8869 0.8310 0.9807
H40_9 H 0.6131 0.9807 0.8310
C59_9 C 0.79943(7) 0.89760(10) 0.97513(7)
C65_9 C 0.70057(7) 0.97513(7) 0.89760(10)
C68_16 C 0.73260(10) 1.00001(10) 0.92883(15)
O13_10 O 0.29114(18) 0.08730(18) 0.95582(17)
O24_10 O 0.2843(2) 0.10129(12) 0.91250(12)
O12_8 O 0.29114(18) 0.91270(18) 0.95582(17)
O23_8 O 0.2843(2) 0.89871(12) 0.91250(12)
O14_10 O 0.70886(18) 0.08730(18) 0.95582(17)
O25_10 O 0.7157(2) 0.10129(12) 0.91250(12)
O15_8 O 0.70886(18) 0.91270(18) 0.95582(17)
O26_8 O 0.7157(2) 0.89871(12) 0.91250(12)
Na1_31 Na 0.0000 0.7500 0.5000
O1_7 O 0.20886(18) 0.91270(18) 0.54418(17)
O2_7 O 0.2157(2) 0.89871(12) 0.58750(12)
O3_18 O 0.0518 0.74822(11) 0.50000(10)
O4_31 O 0.0000 0.6964 0.5000(3)
N1_10 N 0.11201(14) 0.80960(15) 0.54994(15)
H1_10 H 0.1052 0.8017 0.5661
N2_18 N 0.1131 0.81094(19) 0.50000(17)
C1_10 C 0.2039(2) 0.8968(2) 0.5644(2)
C2_10 C 0.17842(12) 0.87513(13) 0.56151(14)
C3_10 C 0.17078(11) 0.85578(11) 0.58406(12)
H2_10 H 0.1807 0.8567 0.6023
C4_10 C 0.14851(9) 0.83512(12) 0.57967(12)
H3_10 H 0.1433 0.8220 0.5949
C5_10 C 0.13388(8) 0.83383(7) 0.55273(7)
C6_10 C 0.14152(10) 0.85318(16) 0.53018(12)
H4_10 H 0.1316 0.8523 0.5120
C7_10 C 0.16380(13) 0.8738(2) 0.53457(16)
H5_10 H 0.1690 0.8869 0.5193
C8_10 C 0.10240(10) 0.79943(7) 0.52487(7)
C9_18 C 0.07117(15) 0.76740(10) 0.50001(10)
Cd9_10 Cd 0.063160(9) 0.5632 0.750000(9)
Cd12_10 Cd 0.063160(9) 0.5632 0.250000(9)
O5_9 O 0.20886(18) 0.91270(18) 0.45582(17)
O8_10 O 0.04418(17) 0.58730(18) 0.70886(18)
O11_10 O 0.04418(17) 0.58730(18) 0.29114(18)
O12_9 O 0.29114(18) 0.95582(17) 0.58730(18)
O13_11 O 0.29114(18) 0.95582(17) 0.41270(18)
O16_9 O 0.2157(2) 0.89871(12) 0.41250(12)
O19_10 O 0.08750(12) 0.60129(12) 0.7157(2)
O22_10 O 0.08750(12) 0.60129(12) 0.2843(2)
O23_9 O 0.2843(2) 0.91250(12) 0.60129(12)
O24_11 O 0.2843(2) 0.91250(12) 0.39871(12)
O28_17 O 0.00000(10) 0.75178(11) 0.5518
O29_17 O 0.00000(10) 0.75178(11) 0.4482
O30_31 O 0.0000(3) 0.8036 0.5000
N4_10 N 0.11201(14) 0.80960(15) 0.45006(15)
N7_10 N 0.04994(15) 0.69040(15) 0.61201(14)
N10_10 N 0.04994(15) 0.69040(15) 0.38799(14)
H6_10 H 0.1052 0.8017 0.4339
H9_10 H 0.0661 0.6983 0.6052
H12_10 H 0.0661 0.6983 0.3948
N12_17 N 0.00000(17) 0.68906(19) 0.6131
N13_17 N 0.00000(17) 0.68906(19) 0.3869
C10_10 C 0.2039(2) 0.8968(2) 0.4356(2)
C13_10 C 0.0644(2) 0.6032(2) 0.7039(2)
C16_10 C 0.0644(2) 0.6032(2) 0.2961(2)
C17_10 C 0.17842(12) 0.87513(13) 0.43849(14)
C20_10 C 0.06151(14) 0.62487(13) 0.67842(12)
C23_10 C 0.06151(14) 0.62487(13) 0.32158(12)
C24_10 C 0.17078(11) 0.85578(11) 0.41594(12)
C27_10 C 0.08406(12) 0.64422(11) 0.67078(11)
C30_10 C 0.08406(12) 0.64422(11) 0.32922(11)
H13_10 H 0.1807 0.8567 0.3977
H16_10 H 0.1023 0.6433 0.6807
H19_10 H 0.1023 0.6433 0.3193
C31_10 C 0.14851(9) 0.83512(12) 0.42033(12)
C34_10 C 0.07967(12) 0.66488(12) 0.64851(9)
C37_10 C 0.07967(12) 0.66488(12) 0.35149(9)
H20_10 H 0.1433 0.8220 0.4051
H23_10 H 0.0949 0.6780 0.6433
H26_10 H 0.0949 0.6780 0.3567
C38_10 C 0.13388(8) 0.83383(7) 0.44727(7)
C41_10 C 0.05273(7) 0.66617(7) 0.63388(8)
C44_10 C 0.05273(7) 0.66617(7) 0.36612(8)
C45_10 C 0.14152(10) 0.85318(16) 0.46982(12)
C48_10 C 0.03018(12) 0.64682(16) 0.64152(10)
C51_10 C 0.03018(12) 0.64682(16) 0.35848(10)
H27_10 H 0.1316 0.8523 0.4880
H30_10 H 0.0120 0.6477 0.6316
H33_10 H 0.0120 0.6477 0.3684
C52_10 C 0.16380(13) 0.8738(2) 0.46543(16)
C55_10 C 0.03457(16) 0.6262(2) 0.66380(13)
C58_10 C 0.03457(16) 0.6262(2) 0.33620(13)
H34_10 H 0.1690 0.8869 0.4807
H37_10 H 0.0193 0.6131 0.6690
H40_10 H 0.0193 0.6131 0.3310
C59_10 C 0.10240(10) 0.79943(7) 0.47513(7)
C62_10 C 0.02487(7) 0.70057(7) 0.60240(10)
C65_10 C 0.02487(7) 0.70057(7) 0.39760(10)
C67_17 C 0.00001(10) 0.73260(10) 0.57117(15)
C68_17 C -0.00001(10) 0.73260(10) 0.42883(15)
Na1_32 Na 1.0000 0.7500 0.5000
O4_32 O 1.0000 0.6964 0.5000(3)
Cd10_10 Cd 0.936840(9) 0.5632 0.750000(9)
Cd11_10 Cd 0.936840(9) 0.5632 0.250000(9)
O6_9 O 0.79114(18) 0.91270(18) 0.45582(17)
O7_7 O 0.79114(18) 0.91270(18) 0.54418(17)
O9_10 O 0.95582(17) 0.58730(18) 0.70886(18)
O10_10 O 0.95582(17) 0.58730(18) 0.29114(18)
O14_11 O 0.70886(18) 0.95582(17) 0.41270(18)
O15_9 O 0.70886(18) 0.95582(17) 0.58730(18)
O17_9 O 0.7843(2) 0.89871(12) 0.41250(12)
O18_7 O 0.7843(2) 0.89871(12) 0.58750(12)
O20_10 O 0.91250(12) 0.60129(12) 0.7157(2)
O21_10 O 0.91250(12) 0.60129(12) 0.2843(2)
O25_11 O 0.7157(2) 0.91250(12) 0.39871(12)
O26_9 O 0.7157(2) 0.91250(12) 0.60129(12)
O27_18 O 0.9482 0.74822(11) 0.50000(10)
O28_18 O 1.00000(10) 0.75178(11) 0.5518
O29_18 O 1.00000(10) 0.75178(11) 0.4482
O30_32 O 1.0000(3) 0.8036 0.5000
N5_10 N 0.88799(14) 0.80960(15) 0.45006(15)
N6_10 N 0.88799(14) 0.80960(15) 0.54994(15)
N8_10 N 0.95006(15) 0.69040(15) 0.61201(14)
N9_10 N 0.95006(15) 0.69040(15) 0.38799(14)
H7_10 H 0.8948 0.8017 0.4339
H8_10 H 0.8948 0.8017 0.5661
H10_10 H 0.9339 0.6983 0.6052
H11_10 H 0.9339 0.6983 0.3948
N11_18 N 0.8869 0.81094(19) 0.50000(17)
N12_18 N 1.00000(17) 0.68906(19) 0.6131
N13_18 N 1.00000(17) 0.68906(19) 0.3869
C11_10 C 0.7961(2) 0.8968(2) 0.4356(2)
C12_10 C 0.7961(2) 0.8968(2) 0.5644(2)
C14_10 C 0.9356(2) 0.6032(2) 0.7039(2)
C15_10 C 0.9356(2) 0.6032(2) 0.2961(2)
C18_10 C 0.82158(12) 0.87513(13) 0.43849(14)
C19_10 C 0.82158(12) 0.87513(13) 0.56151(14)
C21_10 C 0.93849(14) 0.62487(13) 0.67842(12)
C22_10 C 0.93849(14) 0.62487(13) 0.32158(12)
C25_10 C 0.82922(11) 0.85578(11) 0.41594(12)
C26_10 C 0.82922(11) 0.85578(11) 0.58406(12)
C28_10 C 0.91594(12) 0.64422(11) 0.67078(11)
C29_10 C 0.91594(12) 0.64422(11) 0.32922(11)
H14_10 H 0.8193 0.8567 0.3977
H15_10 H 0.8193 0.8567 0.6023
H17_10 H 0.8977 0.6433 0.6807
H18_10 H 0.8977 0.6433 0.3193
C32_10 C 0.85149(9) 0.83512(12) 0.42033(12)
C33_10 C 0.85149(9) 0.83512(12) 0.57967(12)
C35_10 C 0.92033(12) 0.66488(12) 0.64851(9)
C36_10 C 0.92033(12) 0.66488(12) 0.35149(9)
H21_10 H 0.8567 0.8220 0.4051
H22_10 H 0.8567 0.8220 0.5949
H24_10 H 0.9051 0.6780 0.6433
H25_10 H 0.9051 0.6780 0.3567
C39_10 C 0.86612(8) 0.83383(7) 0.44727(7)
C40_10 C 0.86612(8) 0.83383(7) 0.55273(7)
C42_10 C 0.94727(7) 0.66617(7) 0.63388(8)
C43_10 C 0.94727(7) 0.66617(7) 0.36612(8)
C46_10 C 0.85848(10) 0.85318(16) 0.46982(12)
C47_10 C 0.85848(10) 0.85318(16) 0.53018(12)
C49_10 C 0.96982(12) 0.64682(16) 0.64152(10)
C50_10 C 0.96982(12) 0.64682(16) 0.35848(10)
H28_10 H 0.8684 0.8523 0.4880
H29_10 H 0.8684 0.8523 0.5120
H31_10 H 0.9880 0.6477 0.6316
H32_10 H 0.9880 0.6477 0.3684
C53_10 C 0.83620(13) 0.8738(2) 0.46543(16)
C54_10 C 0.83620(13) 0.8738(2) 0.53457(16)
C56_10 C 0.96543(16) 0.6262(2) 0.66380(13)
C57_10 C 0.96543(16) 0.6262(2) 0.33620(13)
H35_10 H 0.8310 0.8869 0.4807
H36_10 H 0.8310 0.8869 0.5193
H38_10 H 0.9807 0.6131 0.6690
H39_10 H 0.9807 0.6131 0.3310
C60_10 C 0.89760(10) 0.79943(7) 0.47513(7)
C61_10 C 0.89760(10) 0.79943(7) 0.52487(7)
C63_10 C 0.97513(7) 0.70057(7) 0.60240(10)
C64_10 C 0.97513(7) 0.70057(7) 0.39760(10)
C66_18 C 0.92883(15) 0.76740(10) 0.49999(10)
C67_18 C 1.00001(10) 0.73260(10) 0.57117(15)
C68_18 C 0.99999(10) 0.73260(10) 0.42883(15)
O12_10 O 0.08730(18) 0.54418(17) 0.79114(18)
O15_10 O 0.08730(18) 0.54418(17) 0.20886(18)
O23_10 O 0.10129(12) 0.58750(12) 0.7843(2)
O26_10 O 0.10129(12) 0.58750(12) 0.2157(2)
N21_5 N 0.08162(9) 0.52597(10) 0.72169(9)
N22_5 N 0.02597(10) 0.58162(9) 0.77831(9)
N27_5 N 0.08162(9) 0.52597(10) 0.27831(9)
N28_5 N 0.02597(10) 0.58162(9) 0.22169(9)
O13_12 O 0.91270(18) 0.54418(17) 0.79114(18)
O14_12 O 0.91270(18) 0.54418(17) 0.20886(18)
O24_12 O 0.89871(12) 0.58750(12) 0.7843(2)
O25_12 O 0.89871(12) 0.58750(12) 0.2157(2)
N23_7 N 0.91838(9) 0.52597(10) 0.72169(9)
N24_7 N 0.97403(10) 0.58162(9) 0.77831(9)
N25_7 N 0.91838(9) 0.52597(10) 0.27831(9)
N26_7 N 0.97403(10) 0.58162(9) 0.22169(9)
Na1_33 Na 0.7500 0.5000 0.0000
O3_19 O 0.74822(11) 0.50000(10) 0.0518
O4_33 O 0.6964 0.5000(3) 0.0000
N1_11 N 0.80960(15) 0.54994(15) 0.11201(14)
H1_11 H 0.8017 0.5661 0.1052
N2_19 N 0.81094(19) 0.50000(17) 0.1131
N3_5 N 0.77831(9) 0.52597(10) 0.08162(9)
C1_11 C 0.8968(2) 0.5644(2) 0.2039(2)
C2_11 C 0.87513(13) 0.56151(14) 0.17842(12)
C3_11 C 0.85578(11) 0.58406(12) 0.17078(11)
H2_11 H 0.8567 0.6023 0.1807
C4_11 C 0.83512(12) 0.57967(12) 0.14851(9)
H3_11 H 0.8220 0.5949 0.1433
C5_11 C 0.83383(7) 0.55273(7) 0.13388(8)
C6_11 C 0.85318(16) 0.53018(12) 0.14152(10)
H4_11 H 0.8523 0.5120 0.1316
C7_11 C 0.8738(2) 0.53457(16) 0.16380(13)
H5_11 H 0.8869 0.5193 0.1690
C8_11 C 0.79943(7) 0.52487(7) 0.10240(10)
C9_19 C 0.76740(10) 0.50001(10) 0.07117(15)
Cd9_11 Cd 0.5632 0.750000(9) 0.063160(9)
Cd12_11 Cd 0.5632 0.250000(9) 0.063160(9)
O5_10 O 0.91270(18) 0.45582(17) 0.20886(18)
O8_11 O 0.58730(18) 0.70886(18) 0.04418(17)
O11_11 O 0.58730(18) 0.29114(18) 0.04418(17)
O16_10 O 0.89871(12) 0.41250(12) 0.2157(2)
O19_11 O 0.60129(12) 0.7157(2) 0.08750(12)
O22_11 O 0.60129(12) 0.2843(2) 0.08750(12)
O28_19 O 0.75178(11) 0.5518 0.00000(10)
O29_19 O 0.75178(11) 0.4482 0.00000(10)
O30_33 O 0.8036 0.5000 0.0000(3)
N4_11 N 0.80960(15) 0.45006(15) 0.11201(14)
N7_11 N 0.69040(15) 0.61201(14) 0.04994(15)
N10_11 N 0.69040(15) 0.38799(14) 0.04994(15)
H6_11 H 0.8017 0.4339 0.1052
H9_11 H 0.6983 0.6052 0.0661
H12_11 H 0.6983 0.3948 0.0661
N12_19 N 0.68906(19) 0.6131 0.00000(17)
N13_19 N 0.68906(19) 0.3869 0.00000(17)
N14_7 N 0.77831(9) 0.47403(10) 0.08162(9)
N17_5 N 0.72169(9) 0.58162(9) 0.02597(10)
N20_7 N 0.72169(9) 0.41838(9) 0.02597(10)
N23_8 N 0.97403(10) 0.41838(9) 0.22169(9)
N24_8 N 0.91838(9) 0.47403(10) 0.27831(9)
C10_11 C 0.8968(2) 0.4356(2) 0.2039(2)
C13_11 C 0.6032(2) 0.7039(2) 0.0644(2)
C16_11 C 0.6032(2) 0.2961(2) 0.0644(2)
C17_11 C 0.87513(13) 0.43849(14) 0.17842(12)
C20_11 C 0.62487(13) 0.67842(12) 0.06151(14)
C23_11 C 0.62487(13) 0.32158(12) 0.06151(14)
C24_11 C 0.85578(11) 0.41594(12) 0.17078(11)
C27_11 C 0.64422(11) 0.67078(11) 0.08406(12)
C30_11 C 0.64422(11) 0.32922(11) 0.08406(12)
H13_11 H 0.8567 0.3977 0.1807
H16_11 H 0.6433 0.6807 0.1023
H19_11 H 0.6433 0.3193 0.1023
C31_11 C 0.83512(12) 0.42033(12) 0.14851(9)
C34_11 C 0.66488(12) 0.64851(9) 0.07967(12)
C37_11 C 0.66488(12) 0.35149(9) 0.07967(12)
H20_11 H 0.8220 0.4051 0.1433
H23_11 H 0.6780 0.6433 0.0949
H26_11 H 0.6780 0.3567 0.0949
C38_11 C 0.83383(7) 0.44727(7) 0.13388(8)
C41_11 C 0.66617(7) 0.63388(8) 0.05273(7)
C44_11 C 0.66617(7) 0.36612(8) 0.05273(7)
C45_11 C 0.85318(16) 0.46982(12) 0.14152(10)
C48_11 C 0.64682(16) 0.64152(10) 0.03018(12)
C51_11 C 0.64682(16) 0.35848(10) 0.03018(12)
H27_11 H 0.8523 0.4880 0.1316
H30_11 H 0.6477 0.6316 0.0120
H33_11 H 0.6477 0.3684 0.0120
C52_11 C 0.8738(2) 0.46543(16) 0.16380(13)
C55_11 C 0.6262(2) 0.66380(13) 0.03457(16)
C58_11 C 0.6262(2) 0.33620(13) 0.03457(16)
H34_11 H 0.8869 0.4807 0.1690
H37_11 H 0.6131 0.6690 0.0193
H40_11 H 0.6131 0.3310 0.0193
C59_11 C 0.79943(7) 0.47513(7) 0.10240(10)
C62_11 C 0.70057(7) 0.60240(10) 0.02487(7)
C65_11 C 0.70057(7) 0.39760(10) 0.02487(7)
C67_19 C 0.73260(10) 0.57117(15) 0.00001(10)
C68_19 C 0.73260(10) 0.42883(15) -0.00001(10)
Na1_34 Na 0.7500 0.5000 1.0000
O4_34 O 0.6964 0.5000(3) 1.0000
Cd10_11 Cd 0.5632 0.750000(9) 0.936840(9)
Cd11_11 Cd 0.5632 0.250000(9) 0.936840(9)
O6_10 O 0.91270(18) 0.45582(17) 0.79114(18)
O9_11 O 0.58730(18) 0.70886(18) 0.95582(17)
O10_11 O 0.58730(18) 0.29114(18) 0.95582(17)
O17_10 O 0.89871(12) 0.41250(12) 0.7843(2)
O20_11 O 0.60129(12) 0.7157(2) 0.91250(12)
O21_11 O 0.60129(12) 0.2843(2) 0.91250(12)
O27_19 O 0.74822(11) 0.50000(10) 0.9482
O28_20 O 0.75178(11) 0.5518 1.00000(10)
O29_20 O 0.75178(11) 0.4482 1.00000(10)
O30_34 O 0.8036 0.5000 1.0000(3)
N5_11 N 0.80960(15) 0.45006(15) 0.88799(14)
N6_11 N 0.80960(15) 0.54994(15) 0.88799(14)
N8_11 N 0.69040(15) 0.61201(14) 0.95006(15)
N9_11 N 0.69040(15) 0.38799(14) 0.95006(15)
H7_11 H 0.8017 0.4339 0.8948
H8_11 H 0.8017 0.5661 0.8948
H10_11 H 0.6983 0.6052 0.9339
H11_11 H 0.6983 0.3948 0.9339
N11_19 N 0.81094(19) 0.50000(17) 0.8869
N12_20 N 0.68906(19) 0.6131 1.00000(17)
N13_20 N 0.68906(19) 0.3869 1.00000(17)
N15_7 N 0.77831(9) 0.47403(10) 0.91838(9)
N16_5 N 0.77831(9) 0.52597(10) 0.91838(9)
N18_5 N 0.72169(9) 0.58162(9) 0.97403(10)
N19_7 N 0.72169(9) 0.41838(9) 0.97403(10)
N25_8 N 0.97403(10) 0.41838(9) 0.77831(9)
N26_8 N 0.91838(9) 0.47403(10) 0.72169(9)
C11_11 C 0.8968(2) 0.4356(2) 0.7961(2)
C12_11 C 0.8968(2) 0.5644(2) 0.7961(2)
C14_11 C 0.6032(2) 0.7039(2) 0.9356(2)
C15_11 C 0.6032(2) 0.2961(2) 0.9356(2)
C18_11 C 0.87513(13) 0.43849(14) 0.82158(12)
C19_11 C 0.87513(13) 0.56151(14) 0.82158(12)
C21_11 C 0.62487(13) 0.67842(12) 0.93849(14)
C22_11 C 0.62487(13) 0.32158(12) 0.93849(14)
C25_11 C 0.85578(11) 0.41594(12) 0.82922(11)
C26_11 C 0.85578(11) 0.58406(12) 0.82922(11)
C28_11 C 0.64422(11) 0.67078(11) 0.91594(12)
C29_11 C 0.64422(11) 0.32922(11) 0.91594(12)
H14_11 H 0.8567 0.3977 0.8193
H15_11 H 0.8567 0.6023 0.8193
H17_11 H 0.6433 0.6807 0.8977
H18_11 H 0.6433 0.3193 0.8977
C32_11 C 0.83512(12) 0.42033(12) 0.85149(9)
C33_11 C 0.83512(12) 0.57967(12) 0.85149(9)
C35_11 C 0.66488(12) 0.64851(9) 0.92033(12)
C36_11 C 0.66488(12) 0.35149(9) 0.92033(12)
H21_11 H 0.8220 0.4051 0.8567
H22_11 H 0.8220 0.5949 0.8567
H24_11 H 0.6780 0.6433 0.9051
H25_11 H 0.6780 0.3567 0.9051
C39_11 C 0.83383(7) 0.44727(7) 0.86612(8)
C40_11 C 0.83383(7) 0.55273(7) 0.86612(8)
C42_11 C 0.66617(7) 0.63388(8) 0.94727(7)
C43_11 C 0.66617(7) 0.36612(8) 0.94727(7)
C46_11 C 0.85318(16) 0.46982(12) 0.85848(10)
C47_11 C 0.85318(16) 0.53018(12) 0.85848(10)
C49_11 C 0.64682(16) 0.64152(10) 0.96982(12)
C50_11 C 0.64682(16) 0.35848(10) 0.96982(12)
H28_11 H 0.8523 0.4880 0.8684
H29_11 H 0.8523 0.5120 0.8684
H31_11 H 0.6477 0.6316 0.9880
H32_11 H 0.6477 0.3684 0.9880
C53_11 C 0.8738(2) 0.46543(16) 0.83620(13)
C54_11 C 0.8738(2) 0.53457(16) 0.83620(13)
C56_11 C 0.6262(2) 0.66380(13) 0.96543(16)
C57_11 C 0.6262(2) 0.33620(13) 0.96543(16)
H35_11 H 0.8869 0.4807 0.8310
H36_11 H 0.8869 0.5193 0.8310
H38_11 H 0.6131 0.6690 0.9807
H39_11 H 0.6131 0.3310 0.9807
C60_11 C 0.79943(7) 0.47513(7) 0.89760(10)
C61_11 C 0.79943(7) 0.52487(7) 0.89760(10)
C63_11 C 0.70057(7) 0.60240(10) 0.97513(7)
C64_11 C 0.70057(7) 0.39760(10) 0.97513(7)
C66_19 C 0.76740(10) 0.49999(10) 0.92883(15)
C67_20 C 0.73260(10) 0.57117(15) 1.00001(10)
C68_20 C 0.73260(10) 0.42883(15) 0.99999(10)
O13_13 O 0.08730(18) 0.45582(17) 0.79114(18)
O14_13 O 0.08730(18) 0.45582(17) 0.20886(18)
O24_13 O 0.10129(12) 0.41250(12) 0.7843(2)
O25_13 O 0.10129(12) 0.41250(12) 0.2157(2)
N23_9 N 0.08162(9) 0.47403(10) 0.72169(9)
N24_9 N 0.02597(10) 0.41838(9) 0.77831(9)
N25_9 N 0.08162(9) 0.47403(10) 0.27831(9)
N26_9 N 0.02597(10) 0.41838(9) 0.22169(9)
Na1_35 Na 0.2500 0.5000 0.0000
O3_20 O 0.25178(11) 0.50000(10) 0.0518
O4_35 O 0.3036 0.5000(3) 0.0000
N1_12 N 0.19040(15) 0.45006(15) 0.11201(14)
H1_12 H 0.1983 0.4339 0.1052
N2_20 N 0.18906(19) 0.50000(17) 0.1131
N3_6 N 0.22169(9) 0.47403(10) 0.08162(9)
C1_12 C 0.1032(2) 0.4356(2) 0.2039(2)
C2_12 C 0.12487(13) 0.43849(14) 0.17842(12)
C3_12 C 0.14422(11) 0.41594(12) 0.17078(11)
H2_12 H 0.1433 0.3977 0.1807
C4_12 C 0.16488(12) 0.42033(12) 0.14851(9)
H3_12 H 0.1780 0.4051 0.1433
C5_12 C 0.16617(7) 0.44727(7) 0.13388(8)
C6_12 C 0.14682(16) 0.46982(12) 0.14152(10)
H4_12 H 0.1477 0.4880 0.1316
C7_12 C 0.1262(2) 0.46543(16) 0.16380(13)
H5_12 H 0.1131 0.4807 0.1690
C8_12 C 0.20057(7) 0.47513(7) 0.10240(10)
C9_20 C 0.23260(10) 0.49999(10) 0.07117(15)
Cd9_12 Cd 0.4368 0.250000(9) 0.063160(9)
Cd12_12 Cd 0.4368 0.750000(9) 0.063160(9)
O8_12 O 0.41270(18) 0.29114(18) 0.04418(17)
O11_12 O 0.41270(18) 0.70886(18) 0.04418(17)
O19_12 O 0.39871(12) 0.2843(2) 0.08750(12)
O22_12 O 0.39871(12) 0.7157(2) 0.08750(12)
O28_21 O 0.24822(11) 0.4482 0.00000(10)
O29_21 O 0.24822(11) 0.5518 0.00000(10)
O30_35 O 0.1964 0.5000 0.0000(3)
N4_12 N 0.19040(15) 0.54994(15) 0.11201(14)
N7_12 N 0.30960(15) 0.38799(14) 0.04994(15)
N10_12 N 0.30960(15) 0.61201(14) 0.04994(15)
H6_12 H 0.1983 0.5661 0.1052
H9_12 H 0.3017 0.3948 0.0661
H12_12 H 0.3017 0.6052 0.0661
N12_21 N 0.31094(19) 0.3869 0.00000(17)
N13_21 N 0.31094(19) 0.6131 0.00000(17)
N14_8 N 0.22169(9) 0.52597(10) 0.08162(9)
N17_6 N 0.27831(9) 0.41838(9) 0.02597(10)
N20_8 N 0.27831(9) 0.58162(9) 0.02597(10)
C10_12 C 0.1032(2) 0.5644(2) 0.2039(2)
C13_12 C 0.3968(2) 0.2961(2) 0.0644(2)
C16_12 C 0.3968(2) 0.7039(2) 0.0644(2)
C17_12 C 0.12487(13) 0.56151(14) 0.17842(12)
C20_12 C 0.37513(13) 0.32158(12) 0.06151(14)
C23_12 C 0.37513(13) 0.67842(12) 0.06151(14)
C24_12 C 0.14422(11) 0.58406(12) 0.17078(11)
C27_12 C 0.35578(11) 0.32922(11) 0.08406(12)
C30_12 C 0.35578(11) 0.67078(11) 0.08406(12)
H13_12 H 0.1433 0.6023 0.1807
H16_12 H 0.3567 0.3193 0.1023
H19_12 H 0.3567 0.6807 0.1023
C31_12 C 0.16488(12) 0.57967(12) 0.14851(9)
C34_12 C 0.33512(12) 0.35149(9) 0.07967(12)
C37_12 C 0.33512(12) 0.64851(9) 0.07967(12)
H20_12 H 0.1780 0.5949 0.1433
H23_12 H 0.3220 0.3567 0.0949
H26_12 H 0.3220 0.6433 0.0949
C38_12 C 0.16617(7) 0.55273(7) 0.13388(8)
C41_12 C 0.33383(7) 0.36612(8) 0.05273(7)
C44_12 C 0.33383(7) 0.63388(8) 0.05273(7)
C45_12 C 0.14682(16) 0.53018(12) 0.14152(10)
C48_12 C 0.35318(16) 0.35848(10) 0.03018(12)
C51_12 C 0.35318(16) 0.64152(10) 0.03018(12)
H27_12 H 0.1477 0.5120 0.1316
H30_12 H 0.3523 0.3684 0.0120
H33_12 H 0.3523 0.6316 0.0120
C52_12 C 0.1262(2) 0.53457(16) 0.16380(13)
C55_12 C 0.3738(2) 0.33620(13) 0.03457(16)
C58_12 C 0.3738(2) 0.66380(13) 0.03457(16)
H34_12 H 0.1131 0.5193 0.1690
H37_12 H 0.3869 0.3310 0.0193
H40_12 H 0.3869 0.6690 0.0193
C59_12 C 0.20057(7) 0.52487(7) 0.10240(10)
C62_12 C 0.29943(7) 0.39760(10) 0.02487(7)
C65_12 C 0.29943(7) 0.60240(10) 0.02487(7)
C67_21 C 0.26740(10) 0.42883(15) 0.00001(10)
C68_21 C 0.26740(10) 0.57117(15) -0.00001(10)
Na1_36 Na 0.2500 0.5000 1.0000
O4_36 O 0.3036 0.5000(3) 1.0000
Cd10_12 Cd 0.4368 0.250000(9) 0.936840(9)
Cd11_12 Cd 0.4368 0.750000(9) 0.936840(9)
O9_12 O 0.41270(18) 0.29114(18) 0.95582(17)
O10_12 O 0.41270(18) 0.70886(18) 0.95582(17)
O20_12 O 0.39871(12) 0.2843(2) 0.91250(12)
O21_12 O 0.39871(12) 0.7157(2) 0.91250(12)
O27_20 O 0.25178(11) 0.50000(10) 0.9482
O28_22 O 0.24822(11) 0.4482 1.00000(10)
O29_22 O 0.24822(11) 0.5518 1.00000(10)
O30_36 O 0.1964 0.5000 1.0000(3)
N5_12 N 0.19040(15) 0.54994(15) 0.88799(14)
N6_12 N 0.19040(15) 0.45006(15) 0.88799(14)
N8_12 N 0.30960(15) 0.38799(14) 0.95006(15)
N9_12 N 0.30960(15) 0.61201(14) 0.95006(15)
H7_12 H 0.1983 0.5661 0.8948
H8_12 H 0.1983 0.4339 0.8948
H10_12 H 0.3017 0.3948 0.9339
H11_12 H 0.3017 0.6052 0.9339
N11_20 N 0.18906(19) 0.50000(17) 0.8869
N12_22 N 0.31094(19) 0.3869 1.00000(17)
N13_22 N 0.31094(19) 0.6131 1.00000(17)
N15_8 N 0.22169(9) 0.52597(10) 0.91838(9)
N16_6 N 0.22169(9) 0.47403(10) 0.91838(9)
N18_6 N 0.27831(9) 0.41838(9) 0.97403(10)
N19_8 N 0.27831(9) 0.58162(9) 0.97403(10)
C11_12 C 0.1032(2) 0.5644(2) 0.7961(2)
C12_12 C 0.1032(2) 0.4356(2) 0.7961(2)
C14_12 C 0.3968(2) 0.2961(2) 0.9356(2)
C15_12 C 0.3968(2) 0.7039(2) 0.9356(2)
C18_12 C 0.12487(13) 0.56151(14) 0.82158(12)
C19_12 C 0.12487(13) 0.43849(14) 0.82158(12)
C21_12 C 0.37513(13) 0.32158(12) 0.93849(14)
C22_12 C 0.37513(13) 0.67842(12) 0.93849(14)
C25_12 C 0.14422(11) 0.58406(12) 0.82922(11)
C26_12 C 0.14422(11) 0.41594(12) 0.82922(11)
C28_12 C 0.35578(11) 0.32922(11) 0.91594(12)
C29_12 C 0.35578(11) 0.67078(11) 0.91594(12)
H14_12 H 0.1433 0.6023 0.8193
H15_12 H 0.1433 0.3977 0.8193
H17_12 H 0.3567 0.3193 0.8977
H18_12 H 0.3567 0.6807 0.8977
C32_12 C 0.16488(12) 0.57967(12) 0.85149(9)
C33_12 C 0.16488(12) 0.42033(12) 0.85149(9)
C35_12 C 0.33512(12) 0.35149(9) 0.92033(12)
C36_12 C 0.33512(12) 0.64851(9) 0.92033(12)
H21_12 H 0.1780 0.5949 0.8567
H22_12 H 0.1780 0.4051 0.8567
H24_12 H 0.3220 0.3567 0.9051
H25_12 H 0.3220 0.6433 0.9051
C39_12 C 0.16617(7) 0.55273(7) 0.86612(8)
C40_12 C 0.16617(7) 0.44727(7) 0.86612(8)
C42_12 C 0.33383(7) 0.36612(8) 0.94727(7)
C43_12 C 0.33383(7) 0.63388(8) 0.94727(7)
C46_12 C 0.14682(16) 0.53018(12) 0.85848(10)
C47_12 C 0.14682(16) 0.46982(12) 0.85848(10)
C49_12 C 0.35318(16) 0.35848(10) 0.96982(12)
C50_12 C 0.35318(16) 0.64152(10) 0.96982(12)
H28_12 H 0.1477 0.5120 0.8684
H29_12 H 0.1477 0.4880 0.8684
H31_12 H 0.3523 0.3684 0.9880
H32_12 H 0.3523 0.6316 0.9880
C53_12 C 0.1262(2) 0.53457(16) 0.83620(13)
C54_12 C 0.1262(2) 0.46543(16) 0.83620(13)
C56_12 C 0.3738(2) 0.33620(13) 0.96543(16)
C57_12 C 0.3738(2) 0.66380(13) 0.96543(16)
H35_12 H 0.1131 0.5193 0.8310
H36_12 H 0.1131 0.4807 0.8310
H38_12 H 0.3869 0.3310 0.9807
H39_12 H 0.3869 0.6690 0.9807
C60_12 C 0.20057(7) 0.52487(7) 0.89760(10)
C61_12 C 0.20057(7) 0.47513(7) 0.89760(10)
C63_12 C 0.29943(7) 0.39760(10) 0.97513(7)
C64_12 C 0.29943(7) 0.60240(10) 0.97513(7)
C66_20 C 0.23260(10) 0.50001(10) 0.92883(15)
C67_22 C 0.26740(10) 0.42883(15) 1.00001(10)
C68_22 C 0.26740(10) 0.57117(15) 0.99999(10)
Na1_37 Na 0.0000 0.5000 0.2500
O3_21 O 0.00000(10) 0.4482 0.25178(11)
O4_37 O 0.0000(3) 0.5000 0.3036
N1_13 N 0.04994(15) 0.38799(14) 0.19040(15)
H1_13 H 0.0661 0.3948 0.1983
N2_21 N 0.00000(17) 0.3869 0.18906(19)
C1_13 C 0.0644(2) 0.2961(2) 0.1032(2)
C2_13 C 0.06151(14) 0.32158(12) 0.12487(13)
C3_13 C 0.08406(12) 0.32922(11) 0.14422(11)
H2_13 H 0.1023 0.3193 0.1433
C4_13 C 0.07967(12) 0.35149(9) 0.16488(12)
H3_13 H 0.0949 0.3567 0.1780
C5_13 C 0.05273(7) 0.36612(8) 0.16617(7)
C6_13 C 0.03018(12) 0.35848(10) 0.14682(16)
H4_13 H 0.0120 0.3684 0.1477
C7_13 C 0.03457(16) 0.33620(13) 0.1262(2)
H5_13 H 0.0193 0.3310 0.1131
C8_13 C 0.02487(7) 0.39760(10) 0.20057(7)
C9_21 C 0.00001(10) 0.42883(15) 0.23260(10)
Cd9_13 Cd 0.250000(9) 0.436840(9) 0.4368
Cd10_13 Cd 0.250000(9) 0.563160(9) 0.4368
O8_13 O 0.20886(18) 0.45582(17) 0.41270(18)
O9_13 O 0.20886(18) 0.54418(17) 0.41270(18)
O19_13 O 0.2157(2) 0.41250(12) 0.39871(12)
O20_13 O 0.2157(2) 0.58750(12) 0.39871(12)
O27_21 O 0.00000(10) 0.5518 0.25178(11)
O28_23 O 0.0518 0.50000(10) 0.24822(11)
O30_37 O 0.0000 0.5000(3) 0.1964
N6_13 N 0.04994(15) 0.61201(14) 0.19040(15)
N7_13 N 0.11201(14) 0.45006(15) 0.30960(15)
N8_13 N 0.11201(14) 0.54994(15) 0.30960(15)
H8_13 H 0.0661 0.6052 0.1983
H9_13 H 0.1052 0.4339 0.3017
H10_13 H 0.1052 0.5661 0.3017
N11_21 N 0.00000(17) 0.6131 0.18906(19)
N12_23 N 0.1131 0.50000(17) 0.31094(19)
C12_13 C 0.0644(2) 0.7039(2) 0.1032(2)
C13_13 C 0.2039(2) 0.4356(2) 0.3968(2)
C14_13 C 0.2039(2) 0.5644(2) 0.3968(2)
C19_13 C 0.06151(14) 0.67842(12) 0.12487(13)
C20_13 C 0.17842(12) 0.43849(14) 0.37513(13)
C21_13 C 0.17842(12) 0.56151(14) 0.37513(13)
C26_13 C 0.08406(12) 0.67078(11) 0.14422(11)
C27_13 C 0.17078(11) 0.41594(12) 0.35578(11)
C28_13 C 0.17078(11) 0.58406(12) 0.35578(11)
H15_13 H 0.1023 0.6807 0.1433
H16_13 H 0.1807 0.3977 0.3567
H17_13 H 0.1807 0.6023 0.3567
C33_13 C 0.07967(12) 0.64851(9) 0.16488(12)
C34_13 C 0.14851(9) 0.42033(12) 0.33512(12)
C35_13 C 0.14851(9) 0.57967(12) 0.33512(12)
H22_13 H 0.0949 0.6433 0.1780
H23_13 H 0.1433 0.4051 0.3220
H24_13 H 0.1433 0.5949 0.3220
C40_13 C 0.05273(7) 0.63388(8) 0.16617(7)
C41_13 C 0.13388(8) 0.44727(7) 0.33383(7)
C42_13 C 0.13388(8) 0.55273(7) 0.33383(7)
C47_13 C 0.03018(12) 0.64152(10) 0.14682(16)
C48_13 C 0.14152(10) 0.46982(12) 0.35318(16)
C49_13 C 0.14152(10) 0.53018(12) 0.35318(16)
H29_13 H 0.0120 0.6316 0.1477
H30_13 H 0.1316 0.4880 0.3523
H31_13 H 0.1316 0.5120 0.3523
C54_13 C 0.03457(16) 0.66380(13) 0.1262(2)
C55_13 C 0.16380(13) 0.46543(16) 0.3738(2)
C56_13 C 0.16380(13) 0.53457(16) 0.3738(2)
H36_13 H 0.0193 0.6690 0.1131
H37_13 H 0.1690 0.4807 0.3869
H38_13 H 0.1690 0.5193 0.3869
C61_13 C 0.02487(7) 0.60240(10) 0.20057(7)
C62_13 C 0.10240(10) 0.47513(7) 0.29943(7)
C63_13 C 0.10240(10) 0.52487(7) 0.29943(7)
C66_21 C -0.00001(10) 0.57117(15) 0.23260(10)
C67_23 C 0.07117(15) 0.49999(10) 0.26740(10)
Na1_38 Na 1.0000 0.5000 0.2500
O3_22 O 1.00000(10) 0.4482 0.25178(11)
O4_38 O 1.0000(3) 0.5000 0.3036
N2_22 N 1.00000(17) 0.3869 0.18906(19)
C9_22 C 1.00001(10) 0.42883(15) 0.23260(10)
Cd11_13 Cd 0.750000(9) 0.563160(9) 0.4368
Cd12_13 Cd 0.750000(9) 0.436840(9) 0.4368
O10_13 O 0.79114(18) 0.54418(17) 0.41270(18)
O11_13 O 0.79114(18) 0.45582(17) 0.41270(18)
O21_13 O 0.7843(2) 0.58750(12) 0.39871(12)
O22_13 O 0.7843(2) 0.41250(12) 0.39871(12)
O27_22 O 1.00000(10) 0.5518 0.25178(11)
O29_23 O 0.9482 0.50000(10) 0.24822(11)
O30_38 O 1.0000 0.5000(3) 0.1964
N4_13 N 0.95006(15) 0.38799(14) 0.19040(15)
N5_13 N 0.95006(15) 0.61201(14) 0.19040(15)
N9_13 N 0.88799(14) 0.54994(15) 0.30960(15)
N10_13 N 0.88799(14) 0.45006(15) 0.30960(15)
H6_13 H 0.9339 0.3948 0.1983
H7_13 H 0.9339 0.6052 0.1983
H11_13 H 0.8948 0.5661 0.3017
H12_13 H 0.8948 0.4339 0.3017
N11_22 N 1.00000(17) 0.6131 0.18906(19)
N13_23 N 0.8869 0.50000(17) 0.31094(19)
C10_13 C 0.9356(2) 0.2961(2) 0.1032(2)
C11_13 C 0.9356(2) 0.7039(2) 0.1032(2)
C15_13 C 0.7961(2) 0.5644(2) 0.3968(2)
C16_13 C 0.7961(2) 0.4356(2) 0.3968(2)
C17_13 C 0.93849(14) 0.32158(12) 0.12487(13)
C18_13 C 0.93849(14) 0.67842(12) 0.12487(13)
C22_13 C 0.82158(12) 0.56151(14) 0.37513(13)
C23_13 C 0.82158(12) 0.43849(14) 0.37513(13)
C24_13 C 0.91594(12) 0.32922(11) 0.14422(11)
C25_13 C 0.91594(12) 0.67078(11) 0.14422(11)
C29_13 C 0.82922(11) 0.58406(12) 0.35578(11)
C30_13 C 0.82922(11) 0.41594(12) 0.35578(11)
H13_13 H 0.8977 0.3193 0.1433
H14_13 H 0.8977 0.6807 0.1433
H18_13 H 0.8193 0.6023 0.3567
H19_13 H 0.8193 0.3977 0.3567
C31_13 C 0.92033(12) 0.35149(9) 0.16488(12)
C32_13 C 0.92033(12) 0.64851(9) 0.16488(12)
C36_13 C 0.85149(9) 0.57967(12) 0.33512(12)
C37_13 C 0.85149(9) 0.42033(12) 0.33512(12)
H20_13 H 0.9051 0.3567 0.1780
H21_13 H 0.9051 0.6433 0.1780
H25_13 H 0.8567 0.5949 0.3220
H26_13 H 0.8567 0.4051 0.3220
C38_13 C 0.94727(7) 0.36612(8) 0.16617(7)
C39_13 C 0.94727(7) 0.63388(8) 0.16617(7)
C43_13 C 0.86612(8) 0.55273(7) 0.33383(7)
C44_13 C 0.86612(8) 0.44727(7) 0.33383(7)
C45_13 C 0.96982(12) 0.35848(10) 0.14682(16)
C46_13 C 0.96982(12) 0.64152(10) 0.14682(16)
C50_13 C 0.85848(10) 0.53018(12) 0.35318(16)
C51_13 C 0.85848(10) 0.46982(12) 0.35318(16)
H27_13 H 0.9880 0.3684 0.1477
H28_13 H 0.9880 0.6316 0.1477
H32_13 H 0.8684 0.5120 0.3523
H33_13 H 0.8684 0.4880 0.3523
C52_13 C 0.96543(16) 0.33620(13) 0.1262(2)
C53_13 C 0.96543(16) 0.66380(13) 0.1262(2)
C57_13 C 0.83620(13) 0.53457(16) 0.3738(2)
C58_13 C 0.83620(13) 0.46543(16) 0.3738(2)
H34_13 H 0.9807 0.3310 0.1131
H35_13 H 0.9807 0.6690 0.1131
H39_13 H 0.8310 0.5193 0.3869
H40_13 H 0.8310 0.4807 0.3869
C59_13 C 0.97513(7) 0.39760(10) 0.20057(7)
C60_13 C 0.97513(7) 0.60240(10) 0.20057(7)
C64_13 C 0.89760(10) 0.52487(7) 0.29943(7)
C65_13 C 0.89760(10) 0.47513(7) 0.29943(7)
C66_22 C 0.99999(10) 0.57117(15) 0.23260(10)
C68_23 C 0.92883(15) 0.50001(10) 0.26740(10)
Na1_39 Na 0.0000 0.5000 0.7500
O3_23 O 0.00000(10) 0.5518 0.74822(11)
O4_39 O 0.0000(3) 0.5000 0.6964
N1_14 N 0.04994(15) 0.61201(14) 0.80960(15)
H1_14 H 0.0661 0.6052 0.8017
N2_23 N 0.00000(17) 0.6131 0.81094(19)
C1_14 C 0.0644(2) 0.7039(2) 0.8968(2)
C2_14 C 0.06151(14) 0.67842(12) 0.87513(13)
C3_14 C 0.08406(12) 0.67078(11) 0.85578(11)
H2_14 H 0.1023 0.6807 0.8567
C4_14 C 0.07967(12) 0.64851(9) 0.83512(12)
H3_14 H 0.0949 0.6433 0.8220
C5_14 C 0.05273(7) 0.63388(8) 0.83383(7)
C6_14 C 0.03018(12) 0.64152(10) 0.85318(16)
H4_14 H 0.0120 0.6316 0.8523
C7_14 C 0.03457(16) 0.66380(13) 0.8738(2)
H5_14 H 0.0193 0.6690 0.8869
C8_14 C 0.02487(7) 0.60240(10) 0.79943(7)
C9_23 C 0.00001(10) 0.57117(15) 0.76740(10)
Cd9_14 Cd 0.250000(9) 0.563160(9) 0.5632
Cd10_14 Cd 0.250000(9) 0.436840(9) 0.5632
O8_14 O 0.20886(18) 0.54418(17) 0.58730(18)
O9_14 O 0.20886(18) 0.45582(17) 0.58730(18)
O19_14 O 0.2157(2) 0.58750(12) 0.60129(12)
O20_14 O 0.2157(2) 0.41250(12) 0.60129(12)
O27_23 O 0.00000(10) 0.4482 0.74822(11)
O28_24 O 0.0518 0.50000(10) 0.75178(11)
O30_39 O 0.0000 0.5000(3) 0.8036
N6_14 N 0.04994(15) 0.38799(14) 0.80960(15)
N7_14 N 0.11201(14) 0.54994(15) 0.69040(15)
N8_14 N 0.11201(14) 0.45006(15) 0.69040(15)
H8_14 H 0.0661 0.3948 0.8017
H9_14 H 0.1052 0.5661 0.6983
H10_14 H 0.1052 0.4339 0.6983
N11_23 N 0.00000(17) 0.3869 0.81094(19)
N12_24 N 0.1131 0.50000(17) 0.68906(19)
C12_14 C 0.0644(2) 0.2961(2) 0.8968(2)
C13_14 C 0.2039(2) 0.5644(2) 0.6032(2)
C14_14 C 0.2039(2) 0.4356(2) 0.6032(2)
C19_14 C 0.06151(14) 0.32158(12) 0.87513(13)
C20_14 C 0.17842(12) 0.56151(14) 0.62487(13)
C21_14 C 0.17842(12) 0.43849(14) 0.62487(13)
C26_14 C 0.08406(12) 0.32922(11) 0.85578(11)
C27_14 C 0.17078(11) 0.58406(12) 0.64422(11)
C28_14 C 0.17078(11) 0.41594(12) 0.64422(11)
H15_14 H 0.1023 0.3193 0.8567
H16_14 H 0.1807 0.6023 0.6433
H17_14 H 0.1807 0.3977 0.6433
C33_14 C 0.07967(12) 0.35149(9) 0.83512(12)
C34_14 C 0.14851(9) 0.57967(12) 0.66488(12)
C35_14 C 0.14851(9) 0.42033(12) 0.66488(12)
H22_14 H 0.0949 0.3567 0.8220
H23_14 H 0.1433 0.5949 0.6780
H24_14 H 0.1433 0.4051 0.6780
C40_14 C 0.05273(7) 0.36612(8) 0.83383(7)
C41_14 C 0.13388(8) 0.55273(7) 0.66617(7)
C42_14 C 0.13388(8) 0.44727(7) 0.66617(7)
C47_14 C 0.03018(12) 0.35848(10) 0.85318(16)
C48_14 C 0.14152(10) 0.53018(12) 0.64682(16)
C49_14 C 0.14152(10) 0.46982(12) 0.64682(16)
H29_14 H 0.0120 0.3684 0.8523
H30_14 H 0.1316 0.5120 0.6477
H31_14 H 0.1316 0.4880 0.6477
C54_14 C 0.03457(16) 0.33620(13) 0.8738(2)
C55_14 C 0.16380(13) 0.53457(16) 0.6262(2)
C56_14 C 0.16380(13) 0.46543(16) 0.6262(2)
H36_14 H 0.0193 0.3310 0.8869
H37_14 H 0.1690 0.5193 0.6131
H38_14 H 0.1690 0.4807 0.6131
C61_14 C 0.02487(7) 0.39760(10) 0.79943(7)
C62_14 C 0.10240(10) 0.52487(7) 0.70057(7)
C63_14 C 0.10240(10) 0.47513(7) 0.70057(7)
C66_23 C -0.00001(10) 0.42883(15) 0.76740(10)
C67_24 C 0.07117(15) 0.50001(10) 0.73260(10)
Na1_40 Na 1.0000 0.5000 0.7500
O3_24 O 1.00000(10) 0.5518 0.74822(11)
O4_40 O 1.0000(3) 0.5000 0.6964
N2_24 N 1.00000(17) 0.6131 0.81094(19)
C9_24 C 1.00001(10) 0.57117(15) 0.76740(10)
Cd11_14 Cd 0.750000(9) 0.436840(9) 0.5632
Cd12_14 Cd 0.750000(9) 0.563160(9) 0.5632
O10_14 O 0.79114(18) 0.45582(17) 0.58730(18)
O11_14 O 0.79114(18) 0.54418(17) 0.58730(18)
O21_14 O 0.7843(2) 0.41250(12) 0.60129(12)
O22_14 O 0.7843(2) 0.58750(12) 0.60129(12)
O27_24 O 1.00000(10) 0.4482 0.74822(11)
O29_24 O 0.9482 0.50000(10) 0.75178(11)
O30_40 O 1.0000 0.5000(3) 0.8036
N4_14 N 0.95006(15) 0.61201(14) 0.80960(15)
N5_14 N 0.95006(15) 0.38799(14) 0.80960(15)
N9_14 N 0.88799(14) 0.45006(15) 0.69040(15)
N10_14 N 0.88799(14) 0.54994(15) 0.69040(15)
H6_14 H 0.9339 0.6052 0.8017
H7_14 H 0.9339 0.3948 0.8017
H11_14 H 0.8948 0.4339 0.6983
H12_14 H 0.8948 0.5661 0.6983
N11_24 N 1.00000(17) 0.3869 0.81094(19)
N13_24 N 0.8869 0.50000(17) 0.68906(19)
C10_14 C 0.9356(2) 0.7039(2) 0.8968(2)
C11_14 C 0.9356(2) 0.2961(2) 0.8968(2)
C15_14 C 0.7961(2) 0.4356(2) 0.6032(2)
C16_14 C 0.7961(2) 0.5644(2) 0.6032(2)
C17_14 C 0.93849(14) 0.67842(12) 0.87513(13)
C18_14 C 0.93849(14) 0.32158(12) 0.87513(13)
C22_14 C 0.82158(12) 0.43849(14) 0.62487(13)
C23_14 C 0.82158(12) 0.56151(14) 0.62487(13)
C24_14 C 0.91594(12) 0.67078(11) 0.85578(11)
C25_14 C 0.91594(12) 0.32922(11) 0.85578(11)
C29_14 C 0.82922(11) 0.41594(12) 0.64422(11)
C30_14 C 0.82922(11) 0.58406(12) 0.64422(11)
H13_14 H 0.8977 0.6807 0.8567
H14_14 H 0.8977 0.3193 0.8567
H18_14 H 0.8193 0.3977 0.6433
H19_14 H 0.8193 0.6023 0.6433
C31_14 C 0.92033(12) 0.64851(9) 0.83512(12)
C32_14 C 0.92033(12) 0.35149(9) 0.83512(12)
C36_14 C 0.85149(9) 0.42033(12) 0.66488(12)
C37_14 C 0.85149(9) 0.57967(12) 0.66488(12)
H20_14 H 0.9051 0.6433 0.8220
H21_14 H 0.9051 0.3567 0.8220
H25_14 H 0.8567 0.4051 0.6780
H26_14 H 0.8567 0.5949 0.6780
C38_14 C 0.94727(7) 0.63388(8) 0.83383(7)
C39_14 C 0.94727(7) 0.36612(8) 0.83383(7)
C43_14 C 0.86612(8) 0.44727(7) 0.66617(7)
C44_14 C 0.86612(8) 0.55273(7) 0.66617(7)
C45_14 C 0.96982(12) 0.64152(10) 0.85318(16)
C46_14 C 0.96982(12) 0.35848(10) 0.85318(16)
C50_14 C 0.85848(10) 0.46982(12) 0.64682(16)
C51_14 C 0.85848(10) 0.53018(12) 0.64682(16)
H27_14 H 0.9880 0.6316 0.8523
H28_14 H 0.9880 0.3684 0.8523
H32_14 H 0.8684 0.4880 0.6477
H33_14 H 0.8684 0.5120 0.6477
C52_14 C 0.96543(16) 0.66380(13) 0.8738(2)
C53_14 C 0.96543(16) 0.33620(13) 0.8738(2)
C57_14 C 0.83620(13) 0.46543(16) 0.6262(2)
C58_14 C 0.83620(13) 0.53457(16) 0.6262(2)
H34_14 H 0.9807 0.6690 0.8869
H35_14 H 0.9807 0.3310 0.8869
H39_14 H 0.8310 0.4807 0.6131
H40_14 H 0.8310 0.5193 0.6131
C59_14 C 0.97513(7) 0.60240(10) 0.79943(7)
C60_14 C 0.97513(7) 0.39760(10) 0.79943(7)
C64_14 C 0.89760(10) 0.47513(7) 0.70057(7)
C65_14 C 0.89760(10) 0.52487(7) 0.70057(7)
C66_24 C 0.99999(10) 0.42883(15) 0.76740(10)
C68_24 C 0.92883(15) 0.49999(10) 0.73260(10)
O13_14 O 0.29114(18) 0.54418(17) 0.08730(18)
O24_14 O 0.2843(2) 0.58750(12) 0.10129(12)
O12_11 O 0.29114(18) 0.54418(17) 0.91270(18)
O23_11 O 0.2843(2) 0.58750(12) 0.89871(12)
O14_14 O 0.70886(18) 0.54418(17) 0.08730(18)
O25_14 O 0.7157(2) 0.58750(12) 0.10129(12)
O15_11 O 0.70886(18) 0.54418(17) 0.91270(18)
O26_11 O 0.7157(2) 0.58750(12) 0.89871(12)
O12_12 O 0.29114(18) 0.58730(18) 0.54418(17)
O13_15 O 0.29114(18) 0.41270(18) 0.54418(17)
O23_12 O 0.2843(2) 0.60129(12) 0.58750(12)
O24_15 O 0.2843(2) 0.39871(12) 0.58750(12)
N21_6 N 0.22169(9) 0.58162(9) 0.52597(10)
N22_6 N 0.27831(9) 0.52597(10) 0.58162(9)
N23_10 N 0.22169(9) 0.41838(9) 0.52597(10)
N24_10 N 0.27831(9) 0.47403(10) 0.58162(9)
O14_15 O 0.70886(18) 0.41270(18) 0.54418(17)
O15_12 O 0.70886(18) 0.58730(18) 0.54418(17)
O25_15 O 0.7157(2) 0.39871(12) 0.58750(12)
O26_12 O 0.7157(2) 0.60129(12) 0.58750(12)
N25_10 N 0.77831(9) 0.41838(9) 0.52597(10)
N26_10 N 0.72169(9) 0.47403(10) 0.58162(9)
N27_6 N 0.77831(9) 0.58162(9) 0.52597(10)
N28_6 N 0.72169(9) 0.52597(10) 0.58162(9)
Na1_41 Na 0.2500 0.5000 0.5000
O3_25 O 0.25178(11) 0.5518 0.50000(10)
O4_41 O 0.3036 0.5000 0.5000(3)
N1_15 N 0.19040(15) 0.61201(14) 0.54994(15)
H1_15 H 0.1983 0.6052 0.5661
N2_25 N 0.18906(19) 0.6131 0.50000(17)
C1_15 C 0.1032(2) 0.7039(2) 0.5644(2)
C2_15 C 0.12487(13) 0.67842(12) 0.56151(14)
C3_15 C 0.14422(11) 0.67078(11) 0.58406(12)
H2_15 H 0.1433 0.6807 0.6023
C4_15 C 0.16488(12) 0.64851(9) 0.57967(12)
H3_15 H 0.1780 0.6433 0.5949
C5_15 C 0.16617(7) 0.63388(8) 0.55273(7)
C6_15 C 0.14682(16) 0.64152(10) 0.53018(12)
H4_15 H 0.1477 0.6316 0.5120
C7_15 C 0.1262(2) 0.66380(13) 0.53457(16)
H5_15 H 0.1131 0.6690 0.5193
C8_15 C 0.20057(7) 0.60240(10) 0.52487(7)
C9_25 C 0.23260(10) 0.57117(15) 0.50001(10)
Cd9_15 Cd 0.4368 0.563160(9) 0.750000(9)
Cd10_15 Cd 0.4368 0.436840(9) 0.750000(9)
Cd11_15 Cd 0.4368 0.436840(9) 0.250000(9)
Cd12_15 Cd 0.4368 0.563160(9) 0.250000(9)
O8_15 O 0.41270(18) 0.54418(17) 0.70886(18)
O9_15 O 0.41270(18) 0.45582(17) 0.70886(18)
O10_15 O 0.41270(18) 0.45582(17) 0.29114(18)
O11_15 O 0.41270(18) 0.54418(17) 0.29114(18)
O19_15 O 0.39871(12) 0.58750(12) 0.7157(2)
O20_15 O 0.39871(12) 0.41250(12) 0.7157(2)
O21_15 O 0.39871(12) 0.41250(12) 0.2843(2)
O22_15 O 0.39871(12) 0.58750(12) 0.2843(2)
O27_25 O 0.25178(11) 0.4482 0.50000(10)
O28_25 O 0.24822(11) 0.50000(10) 0.5518
O29_25 O 0.24822(11) 0.50000(10) 0.4482
O30_41 O 0.1964 0.5000(3) 0.5000
N4_15 N 0.19040(15) 0.61201(14) 0.45006(15)
N5_15 N 0.19040(15) 0.38799(14) 0.45006(15)
N6_15 N 0.19040(15) 0.38799(14) 0.54994(15)
N7_15 N 0.30960(15) 0.54994(15) 0.61201(14)
N8_15 N 0.30960(15) 0.45006(15) 0.61201(14)
N9_15 N 0.30960(15) 0.45006(15) 0.38799(14)
N10_15 N 0.30960(15) 0.54994(15) 0.38799(14)
H6_15 H 0.1983 0.6052 0.4339
H7_15 H 0.1983 0.3948 0.4339
H8_15 H 0.1983 0.3948 0.5661
H9_15 H 0.3017 0.5661 0.6052
H10_15 H 0.3017 0.4339 0.6052
H11_15 H 0.3017 0.4339 0.3948
H12_15 H 0.3017 0.5661 0.3948
N11_25 N 0.18906(19) 0.3869 0.50000(17)
N12_25 N 0.31094(19) 0.50000(17) 0.6131
N13_25 N 0.31094(19) 0.50000(17) 0.3869
N14_9 N 0.22169(9) 0.58162(9) 0.47403(10)
N15_9 N 0.22169(9) 0.41838(9) 0.47403(10)
N19_9 N 0.27831(9) 0.47403(10) 0.41838(9)
N20_9 N 0.27831(9) 0.52597(10) 0.41838(9)
C10_15 C 0.1032(2) 0.7039(2) 0.4356(2)
C11_15 C 0.1032(2) 0.2961(2) 0.4356(2)
C12_15 C 0.1032(2) 0.2961(2) 0.5644(2)
C13_15 C 0.3968(2) 0.5644(2) 0.7039(2)
C14_15 C 0.3968(2) 0.4356(2) 0.7039(2)
C15_15 C 0.3968(2) 0.4356(2) 0.2961(2)
C16_15 C 0.3968(2) 0.5644(2) 0.2961(2)
C17_15 C 0.12487(13) 0.67842(12) 0.43849(14)
C18_15 C 0.12487(13) 0.32158(12) 0.43849(14)
C19_15 C 0.12487(13) 0.32158(12) 0.56151(14)
C20_15 C 0.37513(13) 0.56151(14) 0.67842(12)
C21_15 C 0.37513(13) 0.43849(14) 0.67842(12)
C22_15 C 0.37513(13) 0.43849(14) 0.32158(12)
C23_15 C 0.37513(13) 0.56151(14) 0.32158(12)
C24_15 C 0.14422(11) 0.67078(11) 0.41594(12)
C25_15 C 0.14422(11) 0.32922(11) 0.41594(12)
C26_15 C 0.14422(11) 0.32922(11) 0.58406(12)
C27_15 C 0.35578(11) 0.58406(12) 0.67078(11)
C28_15 C 0.35578(11) 0.41594(12) 0.67078(11)
C29_15 C 0.35578(11) 0.41594(12) 0.32922(11)
C30_15 C 0.35578(11) 0.58406(12) 0.32922(11)
H13_15 H 0.1433 0.6807 0.3977
H14_15 H 0.1433 0.3193 0.3977
H15_15 H 0.1433 0.3193 0.6023
H16_15 H 0.3567 0.6023 0.6807
H17_15 H 0.3567 0.3977 0.6807
H18_15 H 0.3567 0.3977 0.3193
H19_15 H 0.3567 0.6023 0.3193
C31_15 C 0.16488(12) 0.64851(9) 0.42033(12)
C32_15 C 0.16488(12) 0.35149(9) 0.42033(12)
C33_15 C 0.16488(12) 0.35149(9) 0.57967(12)
C34_15 C 0.33512(12) 0.57967(12) 0.64851(9)
C35_15 C 0.33512(12) 0.42033(12) 0.64851(9)
C36_15 C 0.33512(12) 0.42033(12) 0.35149(9)
C37_15 C 0.33512(12) 0.57967(12) 0.35149(9)
H20_15 H 0.1780 0.6433 0.4051
H21_15 H 0.1780 0.3567 0.4051
H22_15 H 0.1780 0.3567 0.5949
H23_15 H 0.3220 0.5949 0.6433
H24_15 H 0.3220 0.4051 0.6433
H25_15 H 0.3220 0.4051 0.3567
H26_15 H 0.3220 0.5949 0.3567
C38_15 C 0.16617(7) 0.63388(8) 0.44727(7)
C39_15 C 0.16617(7) 0.36612(8) 0.44727(7)
C40_15 C 0.16617(7) 0.36612(8) 0.55273(7)
C41_15 C 0.33383(7) 0.55273(7) 0.63388(8)
C42_15 C 0.33383(7) 0.44727(7) 0.63388(8)
C43_15 C 0.33383(7) 0.44727(7) 0.36612(8)
C44_15 C 0.33383(7) 0.55273(7) 0.36612(8)
C45_15 C 0.14682(16) 0.64152(10) 0.46982(12)
C46_15 C 0.14682(16) 0.35848(10) 0.46982(12)
C47_15 C 0.14682(16) 0.35848(10) 0.53018(12)
C48_15 C 0.35318(16) 0.53018(12) 0.64152(10)
C49_15 C 0.35318(16) 0.46982(12) 0.64152(10)
C50_15 C 0.35318(16) 0.46982(12) 0.35848(10)
C51_15 C 0.35318(16) 0.53018(12) 0.35848(10)
H27_15 H 0.1477 0.6316 0.4880
H28_15 H 0.1477 0.3684 0.4880
H29_15 H 0.1477 0.3684 0.5120
H30_15 H 0.3523 0.5120 0.6316
H31_15 H 0.3523 0.4880 0.6316
H32_15 H 0.3523 0.4880 0.3684
H33_15 H 0.3523 0.5120 0.3684
C52_15 C 0.1262(2) 0.66380(13) 0.46543(16)
C53_15 C 0.1262(2) 0.33620(13) 0.46543(16)
C54_15 C 0.1262(2) 0.33620(13) 0.53457(16)
C55_15 C 0.3738(2) 0.53457(16) 0.66380(13)
C56_15 C 0.3738(2) 0.46543(16) 0.66380(13)
C57_15 C 0.3738(2) 0.46543(16) 0.33620(13)
C58_15 C 0.3738(2) 0.53457(16) 0.33620(13)
H34_15 H 0.1131 0.6690 0.4807
H35_15 H 0.1131 0.3310 0.4807
H36_15 H 0.1131 0.3310 0.5193
H37_15 H 0.3869 0.5193 0.6690
H38_15 H 0.3869 0.4807 0.6690
H39_15 H 0.3869 0.4807 0.3310
H40_15 H 0.3869 0.5193 0.3310
C59_15 C 0.20057(7) 0.60240(10) 0.47513(7)
C60_15 C 0.20057(7) 0.39760(10) 0.47513(7)
C61_15 C 0.20057(7) 0.39760(10) 0.52487(7)
C62_15 C 0.29943(7) 0.52487(7) 0.60240(10)
C63_15 C 0.29943(7) 0.47513(7) 0.60240(10)
C64_15 C 0.29943(7) 0.47513(7) 0.39760(10)
C65_15 C 0.29943(7) 0.52487(7) 0.39760(10)
C66_25 C 0.23260(10) 0.42883(15) 0.49999(10)
C67_25 C 0.26740(10) 0.50001(10) 0.57117(15)
C68_25 C 0.26740(10) 0.49999(10) 0.42883(15)
Na1_42 Na 0.7500 0.5000 0.5000
O3_26 O 0.74822(11) 0.4482 0.50000(10)
O4_42 O 0.6964 0.5000 0.5000(3)
N1_16 N 0.80960(15) 0.38799(14) 0.54994(15)
H1_16 H 0.8017 0.3948 0.5661
N2_26 N 0.81094(19) 0.3869 0.50000(17)
C1_16 C 0.8968(2) 0.2961(2) 0.5644(2)
C2_16 C 0.87513(13) 0.32158(12) 0.56151(14)
C3_16 C 0.85578(11) 0.32922(11) 0.58406(12)
H2_16 H 0.8567 0.3193 0.6023
C4_16 C 0.83512(12) 0.35149(9) 0.57967(12)
H3_16 H 0.8220 0.3567 0.5949
C5_16 C 0.83383(7) 0.36612(8) 0.55273(7)
C6_16 C 0.85318(16) 0.35848(10) 0.53018(12)
H4_16 H 0.8523 0.3684 0.5120
C7_16 C 0.8738(2) 0.33620(13) 0.53457(16)
H5_16 H 0.8869 0.3310 0.5193
C8_16 C 0.79943(7) 0.39760(10) 0.52487(7)
C9_26 C 0.76740(10) 0.42883(15) 0.50001(10)
Cd9_16 Cd 0.5632 0.436840(9) 0.750000(9)
Cd10_16 Cd 0.5632 0.563160(9) 0.750000(9)
Cd11_16 Cd 0.5632 0.563160(9) 0.250000(9)
Cd12_16 Cd 0.5632 0.436840(9) 0.250000(9)
O8_16 O 0.58730(18) 0.45582(17) 0.70886(18)
O9_16 O 0.58730(18) 0.54418(17) 0.70886(18)
O10_16 O 0.58730(18) 0.54418(17) 0.29114(18)
O11_16 O 0.58730(18) 0.45582(17) 0.29114(18)
O19_16 O 0.60129(12) 0.41250(12) 0.7157(2)
O20_16 O 0.60129(12) 0.58750(12) 0.7157(2)
O21_16 O 0.60129(12) 0.58750(12) 0.2843(2)
O22_16 O 0.60129(12) 0.41250(12) 0.2843(2)
O27_26 O 0.74822(11) 0.5518 0.50000(10)
O28_26 O 0.75178(11) 0.50000(10) 0.5518
O29_26 O 0.75178(11) 0.50000(10) 0.4482
O30_42 O 0.8036 0.5000(3) 0.5000
N4_16 N 0.80960(15) 0.38799(14) 0.45006(15)
N5_16 N 0.80960(15) 0.61201(14) 0.45006(15)
N6_16 N 0.80960(15) 0.61201(14) 0.54994(15)
N7_16 N 0.69040(15) 0.45006(15) 0.61201(14)
N8_16 N 0.69040(15) 0.54994(15) 0.61201(14)
N9_16 N 0.69040(15) 0.54994(15) 0.38799(14)
N10_16 N 0.69040(15) 0.45006(15) 0.38799(14)
H6_16 H 0.8017 0.3948 0.4339
H7_16 H 0.8017 0.6052 0.4339
H8_16 H 0.8017 0.6052 0.5661
H9_16 H 0.6983 0.4339 0.6052
H10_16 H 0.6983 0.5661 0.6052
H11_16 H 0.6983 0.5661 0.3948
H12_16 H 0.6983 0.4339 0.3948
N11_26 N 0.81094(19) 0.6131 0.50000(17)
N12_26 N 0.68906(19) 0.50000(17) 0.6131
N13_26 N 0.68906(19) 0.50000(17) 0.3869
N14_10 N 0.77831(9) 0.41838(9) 0.47403(10)
N15_10 N 0.77831(9) 0.58162(9) 0.47403(10)
N19_10 N 0.72169(9) 0.52597(10) 0.41838(9)
N20_10 N 0.72169(9) 0.47403(10) 0.41838(9)
C10_16 C 0.8968(2) 0.2961(2) 0.4356(2)
C11_16 C 0.8968(2) 0.7039(2) 0.4356(2)
C12_16 C 0.8968(2) 0.7039(2) 0.5644(2)
C13_16 C 0.6032(2) 0.4356(2) 0.7039(2)
C14_16 C 0.6032(2) 0.5644(2) 0.7039(2)
C15_16 C 0.6032(2) 0.5644(2) 0.2961(2)
C16_16 C 0.6032(2) 0.4356(2) 0.2961(2)
C17_16 C 0.87513(13) 0.32158(12) 0.43849(14)
C18_16 C 0.87513(13) 0.67842(12) 0.43849(14)
C19_16 C 0.87513(13) 0.67842(12) 0.56151(14)
C20_16 C 0.62487(13) 0.43849(14) 0.67842(12)
C21_16 C 0.62487(13) 0.56151(14) 0.67842(12)
C22_16 C 0.62487(13) 0.56151(14) 0.32158(12)
C23_16 C 0.62487(13) 0.43849(14) 0.32158(12)
C24_16 C 0.85578(11) 0.32922(11) 0.41594(12)
C25_16 C 0.85578(11) 0.67078(11) 0.41594(12)
C26_16 C 0.85578(11) 0.67078(11) 0.58406(12)
C27_16 C 0.64422(11) 0.41594(12) 0.67078(11)
C28_16 C 0.64422(11) 0.58406(12) 0.67078(11)
C29_16 C 0.64422(11) 0.58406(12) 0.32922(11)
C30_16 C 0.64422(11) 0.41594(12) 0.32922(11)
H13_16 H 0.8567 0.3193 0.3977
H14_16 H 0.8567 0.6807 0.3977
H15_16 H 0.8567 0.6807 0.6023
H16_16 H 0.6433 0.3977 0.6807
H17_16 H 0.6433 0.6023 0.6807
H18_16 H 0.6433 0.6023 0.3193
H19_16 H 0.6433 0.3977 0.3193
C31_16 C 0.83512(12) 0.35149(9) 0.42033(12)
C32_16 C 0.83512(12) 0.64851(9) 0.42033(12)
C33_16 C 0.83512(12) 0.64851(9) 0.57967(12)
C34_16 C 0.66488(12) 0.42033(12) 0.64851(9)
C35_16 C 0.66488(12) 0.57967(12) 0.64851(9)
C36_16 C 0.66488(12) 0.57967(12) 0.35149(9)
C37_16 C 0.66488(12) 0.42033(12) 0.35149(9)
H20_16 H 0.8220 0.3567 0.4051
H21_16 H 0.8220 0.6433 0.4051
H22_16 H 0.8220 0.6433 0.5949
H23_16 H 0.6780 0.4051 0.6433
H24_16 H 0.6780 0.5949 0.6433
H25_16 H 0.6780 0.5949 0.3567
H26_16 H 0.6780 0.4051 0.3567
C38_16 C 0.83383(7) 0.36612(8) 0.44727(7)
C39_16 C 0.83383(7) 0.63388(8) 0.44727(7)
C40_16 C 0.83383(7) 0.63388(8) 0.55273(7)
C41_16 C 0.66617(7) 0.44727(7) 0.63388(8)
C42_16 C 0.66617(7) 0.55273(7) 0.63388(8)
C43_16 C 0.66617(7) 0.55273(7) 0.36612(8)
C44_16 C 0.66617(7) 0.44727(7) 0.36612(8)
C45_16 C 0.85318(16) 0.35848(10) 0.46982(12)
C46_16 C 0.85318(16) 0.64152(10) 0.46982(12)
C47_16 C 0.85318(16) 0.64152(10) 0.53018(12)
C48_16 C 0.64682(16) 0.46982(12) 0.64152(10)
C49_16 C 0.64682(16) 0.53018(12) 0.64152(10)
C50_16 C 0.64682(16) 0.53018(12) 0.35848(10)
C51_16 C 0.64682(16) 0.46982(12) 0.35848(10)
H27_16 H 0.8523 0.3684 0.4880
H28_16 H 0.8523 0.6316 0.4880
H29_16 H 0.8523 0.6316 0.5120
H30_16 H 0.6477 0.4880 0.6316
H31_16 H 0.6477 0.5120 0.6316
H32_16 H 0.6477 0.5120 0.3684
H33_16 H 0.6477 0.4880 0.3684
C52_16 C 0.8738(2) 0.33620(13) 0.46543(16)
C53_16 C 0.8738(2) 0.66380(13) 0.46543(16)
C54_16 C 0.8738(2) 0.66380(13) 0.53457(16)
C55_16 C 0.6262(2) 0.46543(16) 0.66380(13)
C56_16 C 0.6262(2) 0.53457(16) 0.66380(13)
C57_16 C 0.6262(2) 0.53457(16) 0.33620(13)
C58_16 C 0.6262(2) 0.46543(16) 0.33620(13)
H34_16 H 0.8869 0.3310 0.4807
H35_16 H 0.8869 0.6690 0.4807
H36_16 H 0.8869 0.6690 0.5193
H37_16 H 0.6131 0.4807 0.6690
H38_16 H 0.6131 0.5193 0.6690
H39_16 H 0.6131 0.5193 0.3310
H40_16 H 0.6131 0.4807 0.3310
C59_16 C 0.79943(7) 0.39760(10) 0.47513(7)
C60_16 C 0.79943(7) 0.60240(10) 0.47513(7)
C61_16 C 0.79943(7) 0.60240(10) 0.52487(7)
C62_16 C 0.70057(7) 0.47513(7) 0.60240(10)
C63_16 C 0.70057(7) 0.52487(7) 0.60240(10)
C64_16 C 0.70057(7) 0.52487(7) 0.39760(10)
C65_16 C 0.70057(7) 0.47513(7) 0.39760(10)
C66_26 C 0.76740(10) 0.57117(15) 0.49999(10)
C67_26 C 0.73260(10) 0.49999(10) 0.57117(15)
C68_26 C 0.73260(10) 0.50001(10) 0.42883(15)
O12_13 O 0.29114(18) 0.41270(18) 0.45582(17)
O13_16 O 0.29114(18) 0.58730(18) 0.45582(17)
O23_13 O 0.2843(2) 0.39871(12) 0.41250(12)
O24_16 O 0.2843(2) 0.60129(12) 0.41250(12)
O14_16 O 0.70886(18) 0.58730(18) 0.45582(17)
O15_13 O 0.70886(18) 0.41270(18) 0.45582(17)
O25_16 O 0.7157(2) 0.60129(12) 0.41250(12)
O26_13 O 0.7157(2) 0.39871(12) 0.41250(12)
O12_14 O 0.29114(18) 0.45582(17) 0.08730(18)
O23_14 O 0.2843(2) 0.41250(12) 0.10129(12)
O13_17 O 0.29114(18) 0.45582(17) 0.91270(18)
O24_17 O 0.2843(2) 0.41250(12) 0.89871(12)
O15_14 O 0.70886(18) 0.45582(17) 0.08730(18)
O26_14 O 0.7157(2) 0.41250(12) 0.10129(12)
O14_17 O 0.70886(18) 0.45582(17) 0.91270(18)
O25_17 O 0.7157(2) 0.41250(12) 0.89871(12)
Na1_43 Na 0.5000 0.2500 0.5000
O1_8 O 0.54418(17) 0.08730(18) 0.70886(18)
O2_8 O 0.58750(12) 0.10129(12) 0.7157(2)
O3_27 O 0.50000(10) 0.25178(11) 0.5518
O4_43 O 0.5000(3) 0.3036 0.5000
N1_17 N 0.54994(15) 0.19040(15) 0.61201(14)
H1_17 H 0.5661 0.1983 0.6052
N2_27 N 0.50000(17) 0.18906(19) 0.6131
N3_7 N 0.52597(10) 0.22169(9) 0.58162(9)
C1_17 C 0.5644(2) 0.1032(2) 0.7039(2)
C2_17 C 0.56151(14) 0.12487(13) 0.67842(12)
C3_17 C 0.58406(12) 0.14422(11) 0.67078(11)
H2_17 H 0.6023 0.1433 0.6807
C4_17 C 0.57967(12) 0.16488(12) 0.64851(9)
H3_17 H 0.5949 0.1780 0.6433
C5_17 C 0.55273(7) 0.16617(7) 0.63388(8)
C6_17 C 0.53018(12) 0.14682(16) 0.64152(10)
H4_17 H 0.5120 0.1477 0.6316
C7_17 C 0.53457(16) 0.1262(2) 0.66380(13)
H5_17 H 0.5193 0.1131 0.6690
C8_17 C 0.52487(7) 0.20057(7) 0.60240(10)
C9_27 C 0.50001(10) 0.23260(10) 0.57117(15)
O5_11 O 0.45582(17) 0.08730(18) 0.70886(18)
O6_11 O 0.45582(17) 0.08730(18) 0.29114(18)
O7_8 O 0.54418(17) 0.08730(18) 0.29114(18)
O16_11 O 0.41250(12) 0.10129(12) 0.7157(2)
O17_11 O 0.41250(12) 0.10129(12) 0.2843(2)
O18_8 O 0.58750(12) 0.10129(12) 0.2843(2)
O27_27 O 0.50000(10) 0.25178(11) 0.4482
O28_27 O 0.5518 0.24822(11) 0.50000(10)
O29_27 O 0.4482 0.24822(11) 0.50000(10)
O30_43 O 0.5000 0.1964 0.5000(3)
N4_17 N 0.45006(15) 0.19040(15) 0.61201(14)
N5_17 N 0.45006(15) 0.19040(15) 0.38799(14)
N6_17 N 0.54994(15) 0.19040(15) 0.38799(14)
N7_17 N 0.61201(14) 0.30960(15) 0.54994(15)
N8_17 N 0.61201(14) 0.30960(15) 0.45006(15)
N9_17 N 0.38799(14) 0.30960(15) 0.45006(15)
N10_17 N 0.38799(14) 0.30960(15) 0.54994(15)
H6_17 H 0.4339 0.1983 0.6052
H7_17 H 0.4339 0.1983 0.3948
H8_17 H 0.5661 0.1983 0.3948
H9_17 H 0.6052 0.3017 0.5661
H10_17 H 0.6052 0.3017 0.4339
H11_17 H 0.3948 0.3017 0.4339
H12_17 H 0.3948 0.3017 0.5661
N11_27 N 0.50000(17) 0.18906(19) 0.3869
N12_27 N 0.6131 0.31094(19) 0.50000(17)
N13_27 N 0.3869 0.31094(19) 0.50000(17)
N14_11 N 0.47403(10) 0.22169(9) 0.58162(9)
N15_11 N 0.47403(10) 0.22169(9) 0.41838(9)
N16_7 N 0.52597(10) 0.22169(9) 0.41838(9)
N17_7 N 0.58162(9) 0.27831(9) 0.52597(10)
N18_7 N 0.58162(9) 0.27831(9) 0.47403(10)
N19_11 N 0.41838(9) 0.27831(9) 0.47403(10)
N20_11 N 0.41838(9) 0.27831(9) 0.52597(10)
N21_7 N 0.58162(9) 0.02597(10) 0.72169(9)
N22_7 N 0.52597(10) 0.08162(9) 0.77831(9)
N23_11 N 0.41838(9) 0.02597(10) 0.72169(9)
N24_11 N 0.47403(10) 0.08162(9) 0.77831(9)
N25_11 N 0.41838(9) 0.02597(10) 0.27831(9)
N26_11 N 0.47403(10) 0.08162(9) 0.22169(9)
N27_7 N 0.58162(9) 0.02597(10) 0.27831(9)
N28_7 N 0.52597(10) 0.08162(9) 0.22169(9)
C10_17 C 0.4356(2) 0.1032(2) 0.7039(2)
C11_17 C 0.4356(2) 0.1032(2) 0.2961(2)
C12_17 C 0.5644(2) 0.1032(2) 0.2961(2)
C13_17 C 0.7039(2) 0.3968(2) 0.5644(2)
C14_17 C 0.7039(2) 0.3968(2) 0.4356(2)
C15_17 C 0.2961(2) 0.3968(2) 0.4356(2)
C16_17 C 0.2961(2) 0.3968(2) 0.5644(2)
C17_17 C 0.43849(14) 0.12487(13) 0.67842(12)
C18_17 C 0.43849(14) 0.12487(13) 0.32158(12)
C19_17 C 0.56151(14) 0.12487(13) 0.32158(12)
C20_17 C 0.67842(12) 0.37513(13) 0.56151(14)
C21_17 C 0.67842(12) 0.37513(13) 0.43849(14)
C22_17 C 0.32158(12) 0.37513(13) 0.43849(14)
C23_17 C 0.32158(12) 0.37513(13) 0.56151(14)
C24_17 C 0.41594(12) 0.14422(11) 0.67078(11)
C25_17 C 0.41594(12) 0.14422(11) 0.32922(11)
C26_17 C 0.58406(12) 0.14422(11) 0.32922(11)
C27_17 C 0.67078(11) 0.35578(11) 0.58406(12)
C28_17 C 0.67078(11) 0.35578(11) 0.41594(12)
C29_17 C 0.32922(11) 0.35578(11) 0.41594(12)
C30_17 C 0.32922(11) 0.35578(11) 0.58406(12)
H13_17 H 0.3977 0.1433 0.6807
H14_17 H 0.3977 0.1433 0.3193
H15_17 H 0.6023 0.1433 0.3193
H16_17 H 0.6807 0.3567 0.6023
H17_17 H 0.6807 0.3567 0.3977
H18_17 H 0.3193 0.3567 0.3977
H19_17 H 0.3193 0.3567 0.6023
C31_17 C 0.42033(12) 0.16488(12) 0.64851(9)
C32_17 C 0.42033(12) 0.16488(12) 0.35149(9)
C33_17 C 0.57967(12) 0.16488(12) 0.35149(9)
C34_17 C 0.64851(9) 0.33512(12) 0.57967(12)
C35_17 C 0.64851(9) 0.33512(12) 0.42033(12)
C36_17 C 0.35149(9) 0.33512(12) 0.42033(12)
C37_17 C 0.35149(9) 0.33512(12) 0.57967(12)
H20_17 H 0.4051 0.1780 0.6433
H21_17 H 0.4051 0.1780 0.3567
H22_17 H 0.5949 0.1780 0.3567
H23_17 H 0.6433 0.3220 0.5949
H24_17 H 0.6433 0.3220 0.4051
H25_17 H 0.3567 0.3220 0.4051
H26_17 H 0.3567 0.3220 0.5949
C38_17 C 0.44727(7) 0.16617(7) 0.63388(8)
C39_17 C 0.44727(7) 0.16617(7) 0.36612(8)
C40_17 C 0.55273(7) 0.16617(7) 0.36612(8)
C41_17 C 0.63388(8) 0.33383(7) 0.55273(7)
C42_17 C 0.63388(8) 0.33383(7) 0.44727(7)
C43_17 C 0.36612(8) 0.33383(7) 0.44727(7)
C44_17 C 0.36612(8) 0.33383(7) 0.55273(7)
C45_17 C 0.46982(12) 0.14682(16) 0.64152(10)
C46_17 C 0.46982(12) 0.14682(16) 0.35848(10)
C47_17 C 0.53018(12) 0.14682(16) 0.35848(10)
C48_17 C 0.64152(10) 0.35318(16) 0.53018(12)
C49_17 C 0.64152(10) 0.35318(16) 0.46982(12)
C50_17 C 0.35848(10) 0.35318(16) 0.46982(12)
C51_17 C 0.35848(10) 0.35318(16) 0.53018(12)
H27_17 H 0.4880 0.1477 0.6316
H28_17 H 0.4880 0.1477 0.3684
H29_17 H 0.5120 0.1477 0.3684
H30_17 H 0.6316 0.3523 0.5120
H31_17 H 0.6316 0.3523 0.4880
H32_17 H 0.3684 0.3523 0.4880
H33_17 H 0.3684 0.3523 0.5120
C52_17 C 0.46543(16) 0.1262(2) 0.66380(13)
C53_17 C 0.46543(16) 0.1262(2) 0.33620(13)
C54_17 C 0.53457(16) 0.1262(2) 0.33620(13)
C55_17 C 0.66380(13) 0.3738(2) 0.53457(16)
C56_17 C 0.66380(13) 0.3738(2) 0.46543(16)
C57_17 C 0.33620(13) 0.3738(2) 0.46543(16)
C58_17 C 0.33620(13) 0.3738(2) 0.53457(16)
H34_17 H 0.4807 0.1131 0.6690
H35_17 H 0.4807 0.1131 0.3310
H36_17 H 0.5193 0.1131 0.3310
H37_17 H 0.6690 0.3869 0.5193
H38_17 H 0.6690 0.3869 0.4807
H39_17 H 0.3310 0.3869 0.4807
H40_17 H 0.3310 0.3869 0.5193
C59_17 C 0.47513(7) 0.20057(7) 0.60240(10)
C60_17 C 0.47513(7) 0.20057(7) 0.39760(10)
C61_17 C 0.52487(7) 0.20057(7) 0.39760(10)
C62_17 C 0.60240(10) 0.29943(7) 0.52487(7)
C63_17 C 0.60240(10) 0.29943(7) 0.47513(7)
C64_17 C 0.39760(10) 0.29943(7) 0.47513(7)
C65_17 C 0.39760(10) 0.29943(7) 0.52487(7)
C66_27 C 0.49999(10) 0.23260(10) 0.42883(15)
C67_27 C 0.57117(15) 0.26740(10) 0.50001(10)
C68_27 C 0.42883(15) 0.26740(10) 0.49999(10)
O13_18 O 0.45582(17) 0.91270(18) 0.29114(18)
O24_18 O 0.41250(12) 0.89871(12) 0.2843(2)
N23_12 N 0.47403(10) 0.91838(9) 0.22169(9)
N24_12 N 0.41838(9) 0.97403(10) 0.27831(9)
O14_18 O 0.45582(17) 0.91270(18) 0.70886(18)
O25_18 O 0.41250(12) 0.89871(12) 0.7157(2)
N25_12 N 0.47403(10) 0.91838(9) 0.77831(9)
N26_12 N 0.41838(9) 0.97403(10) 0.72169(9)
Na1_44 Na 0.5000 0.7500 0.5000
O3_28 O 0.50000(10) 0.74822(11) 0.5518
O4_44 O 0.5000(3) 0.6964 0.5000
N1_18 N 0.45006(15) 0.80960(15) 0.61201(14)
H1_18 H 0.4339 0.8017 0.6052
N2_28 N 0.50000(17) 0.81094(19) 0.6131
N3_8 N 0.47403(10) 0.77831(9) 0.58162(9)
C1_18 C 0.4356(2) 0.8968(2) 0.7039(2)
C2_18 C 0.43849(14) 0.87513(13) 0.67842(12)
C3_18 C 0.41594(12) 0.85578(11) 0.67078(11)
H2_18 H 0.3977 0.8567 0.6807
C4_18 C 0.42033(12) 0.83512(12) 0.64851(9)
H3_18 H 0.4051 0.8220 0.6433
C5_18 C 0.44727(7) 0.83383(7) 0.63388(8)
C6_18 C 0.46982(12) 0.85318(16) 0.64152(10)
H4_18 H 0.4880 0.8523 0.6316
C7_18 C 0.46543(16) 0.8738(2) 0.66380(13)
H5_18 H 0.4807 0.8869 0.6690
C8_18 C 0.47513(7) 0.79943(7) 0.60240(10)
C9_28 C 0.49999(10) 0.76740(10) 0.57117(15)
O5_12 O 0.54418(17) 0.91270(18) 0.70886(18)
O6_12 O 0.54418(17) 0.91270(18) 0.29114(18)
O16_12 O 0.58750(12) 0.89871(12) 0.7157(2)
O17_12 O 0.58750(12) 0.89871(12) 0.2843(2)
O27_28 O 0.50000(10) 0.74822(11) 0.4482
O28_28 O 0.4482 0.75178(11) 0.50000(10)
O29_28 O 0.5518 0.75178(11) 0.50000(10)
O30_44 O 0.5000 0.8036 0.5000(3)
N4_18 N 0.54994(15) 0.80960(15) 0.61201(14)
N5_18 N 0.54994(15) 0.80960(15) 0.38799(14)
N6_18 N 0.45006(15) 0.80960(15) 0.38799(14)
N7_18 N 0.38799(14) 0.69040(15) 0.54994(15)
N8_18 N 0.38799(14) 0.69040(15) 0.45006(15)
N9_18 N 0.61201(14) 0.69040(15) 0.45006(15)
N10_18 N 0.61201(14) 0.69040(15) 0.54994(15)
H6_18 H 0.5661 0.8017 0.6052
H7_18 H 0.5661 0.8017 0.3948
H8_18 H 0.4339 0.8017 0.3948
H9_18 H 0.3948 0.6983 0.5661
H10_18 H 0.3948 0.6983 0.4339
H11_18 H 0.6052 0.6983 0.4339
H12_18 H 0.6052 0.6983 0.5661
N11_28 N 0.50000(17) 0.81094(19) 0.3869
N12_28 N 0.3869 0.68906(19) 0.50000(17)
N13_28 N 0.6131 0.68906(19) 0.50000(17)
N14_12 N 0.52597(10) 0.77831(9) 0.58162(9)
N15_12 N 0.52597(10) 0.77831(9) 0.41838(9)
N16_8 N 0.47403(10) 0.77831(9) 0.41838(9)
N17_8 N 0.41838(9) 0.72169(9) 0.52597(10)
N18_8 N 0.41838(9) 0.72169(9) 0.47403(10)
N19_12 N 0.58162(9) 0.72169(9) 0.47403(10)
N20_12 N 0.58162(9) 0.72169(9) 0.52597(10)
N23_13 N 0.58162(9) 0.97403(10) 0.72169(9)
N24_13 N 0.52597(10) 0.91838(9) 0.77831(9)
N25_13 N 0.58162(9) 0.97403(10) 0.27831(9)
N26_13 N 0.52597(10) 0.91838(9) 0.22169(9)
C10_18 C 0.5644(2) 0.8968(2) 0.7039(2)
C11_18 C 0.5644(2) 0.8968(2) 0.2961(2)
C12_18 C 0.4356(2) 0.8968(2) 0.2961(2)
C13_18 C 0.2961(2) 0.6032(2) 0.5644(2)
C14_18 C 0.2961(2) 0.6032(2) 0.4356(2)
C15_18 C 0.7039(2) 0.6032(2) 0.4356(2)
C16_18 C 0.7039(2) 0.6032(2) 0.5644(2)
C17_18 C 0.56151(14) 0.87513(13) 0.67842(12)
C18_18 C 0.56151(14) 0.87513(13) 0.32158(12)
C19_18 C 0.43849(14) 0.87513(13) 0.32158(12)
C20_18 C 0.32158(12) 0.62487(13) 0.56151(14)
C21_18 C 0.32158(12) 0.62487(13) 0.43849(14)
C22_18 C 0.67842(12) 0.62487(13) 0.43849(14)
C23_18 C 0.67842(12) 0.62487(13) 0.56151(14)
C24_18 C 0.58406(12) 0.85578(11) 0.67078(11)
C25_18 C 0.58406(12) 0.85578(11) 0.32922(11)
C26_18 C 0.41594(12) 0.85578(11) 0.32922(11)
C27_18 C 0.32922(11) 0.64422(11) 0.58406(12)
C28_18 C 0.32922(11) 0.64422(11) 0.41594(12)
C29_18 C 0.67078(11) 0.64422(11) 0.41594(12)
C30_18 C 0.67078(11) 0.64422(11) 0.58406(12)
H13_18 H 0.6023 0.8567 0.6807
H14_18 H 0.6023 0.8567 0.3193
H15_18 H 0.3977 0.8567 0.3193
H16_18 H 0.3193 0.6433 0.6023
H17_18 H 0.3193 0.6433 0.3977
H18_18 H 0.6807 0.6433 0.3977
H19_18 H 0.6807 0.6433 0.6023
C31_18 C 0.57967(12) 0.83512(12) 0.64851(9)
C32_18 C 0.57967(12) 0.83512(12) 0.35149(9)
C33_18 C 0.42033(12) 0.83512(12) 0.35149(9)
C34_18 C 0.35149(9) 0.66488(12) 0.57967(12)
C35_18 C 0.35149(9) 0.66488(12) 0.42033(12)
C36_18 C 0.64851(9) 0.66488(12) 0.42033(12)
C37_18 C 0.64851(9) 0.66488(12) 0.57967(12)
H20_18 H 0.5949 0.8220 0.6433
H21_18 H 0.5949 0.8220 0.3567
H22_18 H 0.4051 0.8220 0.3567
H23_18 H 0.3567 0.6780 0.5949
H24_18 H 0.3567 0.6780 0.4051
H25_18 H 0.6433 0.6780 0.4051
H26_18 H 0.6433 0.6780 0.5949
C38_18 C 0.55273(7) 0.83383(7) 0.63388(8)
C39_18 C 0.55273(7) 0.83383(7) 0.36612(8)
C40_18 C 0.44727(7) 0.83383(7) 0.36612(8)
C41_18 C 0.36612(8) 0.66617(7) 0.55273(7)
C42_18 C 0.36612(8) 0.66617(7) 0.44727(7)
C43_18 C 0.63388(8) 0.66617(7) 0.44727(7)
C44_18 C 0.63388(8) 0.66617(7) 0.55273(7)
C45_18 C 0.53018(12) 0.85318(16) 0.64152(10)
C46_18 C 0.53018(12) 0.85318(16) 0.35848(10)
C47_18 C 0.46982(12) 0.85318(16) 0.35848(10)
C48_18 C 0.35848(10) 0.64682(16) 0.53018(12)
C49_18 C 0.35848(10) 0.64682(16) 0.46982(12)
C50_18 C 0.64152(10) 0.64682(16) 0.46982(12)
C51_18 C 0.64152(10) 0.64682(16) 0.53018(12)
H27_18 H 0.5120 0.8523 0.6316
H28_18 H 0.5120 0.8523 0.3684
H29_18 H 0.4880 0.8523 0.3684
H30_18 H 0.3684 0.6477 0.5120
H31_18 H 0.3684 0.6477 0.4880
H32_18 H 0.6316 0.6477 0.4880
H33_18 H 0.6316 0.6477 0.5120
C52_18 C 0.53457(16) 0.8738(2) 0.66380(13)
C53_18 C 0.53457(16) 0.8738(2) 0.33620(13)
C54_18 C 0.46543(16) 0.8738(2) 0.33620(13)
C55_18 C 0.33620(13) 0.6262(2) 0.53457(16)
C56_18 C 0.33620(13) 0.6262(2) 0.46543(16)
C57_18 C 0.66380(13) 0.6262(2) 0.46543(16)
C58_18 C 0.66380(13) 0.6262(2) 0.53457(16)
H34_18 H 0.5193 0.8869 0.6690
H35_18 H 0.5193 0.8869 0.3310
H36_18 H 0.4807 0.8869 0.3310
H37_18 H 0.3310 0.6131 0.5193
H38_18 H 0.3310 0.6131 0.4807
H39_18 H 0.6690 0.6131 0.4807
H40_18 H 0.6690 0.6131 0.5193
C59_18 C 0.52487(7) 0.79943(7) 0.60240(10)
C60_18 C 0.52487(7) 0.79943(7) 0.39760(10)
C61_18 C 0.47513(7) 0.79943(7) 0.39760(10)
C62_18 C 0.39760(10) 0.70057(7) 0.52487(7)
C63_18 C 0.39760(10) 0.70057(7) 0.47513(7)
C64_18 C 0.60240(10) 0.70057(7) 0.47513(7)
C65_18 C 0.60240(10) 0.70057(7) 0.52487(7)
C66_28 C 0.50001(10) 0.76740(10) 0.42883(15)
C67_28 C 0.42883(15) 0.73260(10) 0.50001(10)
C68_28 C 0.57117(15) 0.73260(10) 0.49999(10)
Na1_45 Na 0.5000 0.0000 0.2500
O4_45 O 0.5000(3) 0.0000 0.3036
O6_13 O 0.45582(17) 0.20886(18) 0.08730(18)
O7_9 O 0.54418(17) 0.20886(18) 0.08730(18)
O17_13 O 0.41250(12) 0.2157(2) 0.10129(12)
O18_9 O 0.58750(12) 0.2157(2) 0.10129(12)
O27_29 O 0.50000(10) 0.0518 0.25178(11)
O28_29 O 0.5518 0.00000(10) 0.24822(11)
O29_29 O 0.4482 0.00000(10) 0.24822(11)
O30_45 O 0.5000 0.0000(3) 0.1964
N5_19 N 0.45006(15) 0.11201(14) 0.19040(15)
N6_19 N 0.54994(15) 0.11201(14) 0.19040(15)
N8_19 N 0.61201(14) 0.04994(15) 0.30960(15)
N9_19 N 0.38799(14) 0.04994(15) 0.30960(15)
H7_19 H 0.4339 0.1052 0.1983
H8_19 H 0.5661 0.1052 0.1983
H10_19 H 0.6052 0.0661 0.3017
H11_19 H 0.3948 0.0661 0.3017
N11_29 N 0.50000(17) 0.1131 0.18906(19)
N12_29 N 0.6131 0.00000(17) 0.31094(19)
N13_29 N 0.3869 0.00000(17) 0.31094(19)
N25_14 N 0.41838(9) 0.22169(9) 0.02597(10)
N26_14 N 0.47403(10) 0.27831(9) 0.08162(9)
N27_8 N 0.58162(9) 0.22169(9) 0.02597(10)
N28_8 N 0.52597(10) 0.27831(9) 0.08162(9)
C11_19 C 0.4356(2) 0.2039(2) 0.1032(2)
C12_19 C 0.5644(2) 0.2039(2) 0.1032(2)
C14_19 C 0.7039(2) 0.0644(2) 0.3968(2)
C15_19 C 0.2961(2) 0.0644(2) 0.3968(2)
C18_19 C 0.43849(14) 0.17842(12) 0.12487(13)
C19_19 C 0.56151(14) 0.17842(12) 0.12487(13)
C21_19 C 0.67842(12) 0.06151(14) 0.37513(13)
C22_19 C 0.32158(12) 0.06151(14) 0.37513(13)
C25_19 C 0.41594(12) 0.17078(11) 0.14422(11)
C26_19 C 0.58406(12) 0.17078(11) 0.14422(11)
C28_19 C 0.67078(11) 0.08406(12) 0.35578(11)
C29_19 C 0.32922(11) 0.08406(12) 0.35578(11)
H14_19 H 0.3977 0.1807 0.1433
H15_19 H 0.6023 0.1807 0.1433
H17_19 H 0.6807 0.1023 0.3567
H18_19 H 0.3193 0.1023 0.3567
C32_19 C 0.42033(12) 0.14851(9) 0.16488(12)
C33_19 C 0.57967(12) 0.14851(9) 0.16488(12)
C35_19 C 0.64851(9) 0.07967(12) 0.33512(12)
C36_19 C 0.35149(9) 0.07967(12) 0.33512(12)
H21_19 H 0.4051 0.1433 0.1780
H22_19 H 0.5949 0.1433 0.1780
H24_19 H 0.6433 0.0949 0.3220
H25_19 H 0.3567 0.0949 0.3220
C39_19 C 0.44727(7) 0.13388(8) 0.16617(7)
C40_19 C 0.55273(7) 0.13388(8) 0.16617(7)
C42_19 C 0.63388(8) 0.05273(7) 0.33383(7)
C43_19 C 0.36612(8) 0.05273(7) 0.33383(7)
C46_19 C 0.46982(12) 0.14152(10) 0.14682(16)
C47_19 C 0.53018(12) 0.14152(10) 0.14682(16)
C49_19 C 0.64152(10) 0.03018(12) 0.35318(16)
C50_19 C 0.35848(10) 0.03018(12) 0.35318(16)
H28_19 H 0.4880 0.1316 0.1477
H29_19 H 0.5120 0.1316 0.1477
H31_19 H 0.6316 0.0120 0.3523
H32_19 H 0.3684 0.0120 0.3523
C53_19 C 0.46543(16) 0.16380(13) 0.1262(2)
C54_19 C 0.53457(16) 0.16380(13) 0.1262(2)
C56_19 C 0.66380(13) 0.03457(16) 0.3738(2)
C57_19 C 0.33620(13) 0.03457(16) 0.3738(2)
H35_19 H 0.4807 0.1690 0.1131
H36_19 H 0.5193 0.1690 0.1131
H38_19 H 0.6690 0.0193 0.3869
H39_19 H 0.3310 0.0193 0.3869
C60_19 C 0.47513(7) 0.10240(10) 0.20057(7)
C61_19 C 0.52487(7) 0.10240(10) 0.20057(7)
C63_19 C 0.60240(10) 0.02487(7) 0.29943(7)
C64_19 C 0.39760(10) 0.02487(7) 0.29943(7)
C66_29 C 0.49999(10) 0.07117(15) 0.23260(10)
C67_29 C 0.57117(15) -0.00001(10) 0.26740(10)
C68_29 C 0.42883(15) 0.00001(10) 0.26740(10)
Na1_46 Na 0.5000 1.0000 0.2500
O1_9 O 0.54418(17) 0.79114(18) 0.08730(18)
O2_9 O 0.58750(12) 0.7843(2) 0.10129(12)
O3_29 O 0.50000(10) 0.9482 0.25178(11)
O4_46 O 0.5000(3) 1.0000 0.3036
N1_19 N 0.54994(15) 0.88799(14) 0.19040(15)
H1_19 H 0.5661 0.8948 0.1983
N2_29 N 0.50000(17) 0.8869 0.18906(19)
C1_19 C 0.5644(2) 0.7961(2) 0.1032(2)
C2_19 C 0.56151(14) 0.82158(12) 0.12487(13)
C3_19 C 0.58406(12) 0.82922(11) 0.14422(11)
H2_19 H 0.6023 0.8193 0.1433
C4_19 C 0.57967(12) 0.85149(9) 0.16488(12)
H3_19 H 0.5949 0.8567 0.1780
C5_19 C 0.55273(7) 0.86612(8) 0.16617(7)
C6_19 C 0.53018(12) 0.85848(10) 0.14682(16)
H4_19 H 0.5120 0.8684 0.1477
C7_19 C 0.53457(16) 0.83620(13) 0.1262(2)
H5_19 H 0.5193 0.8310 0.1131
C8_19 C 0.52487(7) 0.89760(10) 0.20057(7)
C9_29 C 0.50001(10) 0.92883(15) 0.23260(10)
O5_13 O 0.45582(17) 0.79114(18) 0.08730(18)
O16_13 O 0.41250(12) 0.7843(2) 0.10129(12)
O28_30 O 0.5518 1.00000(10) 0.24822(11)
O29_30 O 0.4482 1.00000(10) 0.24822(11)
O30_46 O 0.5000 1.0000(3) 0.1964
N4_19 N 0.45006(15) 0.88799(14) 0.19040(15)
N7_19 N 0.61201(14) 0.95006(15) 0.30960(15)
N10_19 N 0.38799(14) 0.95006(15) 0.30960(15)
H6_19 H 0.4339 0.8948 0.1983
H9_19 H 0.6052 0.9339 0.3017
H12_19 H 0.3948 0.9339 0.3017
N12_30 N 0.6131 1.00000(17) 0.31094(19)
N13_30 N 0.3869 1.00000(17) 0.31094(19)
N21_8 N 0.58162(9) 0.77831(9) 0.02597(10)
N22_8 N 0.52597(10) 0.72169(9) 0.08162(9)
N23_14 N 0.41838(9) 0.77831(9) 0.02597(10)
N24_14 N 0.47403(10) 0.72169(9) 0.08162(9)
C10_19 C 0.4356(2) 0.7961(2) 0.1032(2)
C13_19 C 0.7039(2) 0.9356(2) 0.3968(2)
C16_19 C 0.2961(2) 0.9356(2) 0.3968(2)
C17_19 C 0.43849(14) 0.82158(12) 0.12487(13)
C20_19 C 0.67842(12) 0.93849(14) 0.37513(13)
C23_19 C 0.32158(12) 0.93849(14) 0.37513(13)
C24_19 C 0.41594(12) 0.82922(11) 0.14422(11)
C27_19 C 0.67078(11) 0.91594(12) 0.35578(11)
C30_19 C 0.32922(11) 0.91594(12) 0.35578(11)
H13_19 H 0.3977 0.8193 0.1433
H16_19 H 0.6807 0.8977 0.3567
H19_19 H 0.3193 0.8977 0.3567
C31_19 C 0.42033(12) 0.85149(9) 0.16488(12)
C34_19 C 0.64851(9) 0.92033(12) 0.33512(12)
C37_19 C 0.35149(9) 0.92033(12) 0.33512(12)
H20_19 H 0.4051 0.8567 0.1780
H23_19 H 0.6433 0.9051 0.3220
H26_19 H 0.3567 0.9051 0.3220
C38_19 C 0.44727(7) 0.86612(8) 0.16617(7)
C41_19 C 0.63388(8) 0.94727(7) 0.33383(7)
C44_19 C 0.36612(8) 0.94727(7) 0.33383(7)
C45_19 C 0.46982(12) 0.85848(10) 0.14682(16)
C48_19 C 0.64152(10) 0.96982(12) 0.35318(16)
C51_19 C 0.35848(10) 0.96982(12) 0.35318(16)
H27_19 H 0.4880 0.8684 0.1477
H30_19 H 0.6316 0.9880 0.3523
H33_19 H 0.3684 0.9880 0.3523
C52_19 C 0.46543(16) 0.83620(13) 0.1262(2)
C55_19 C 0.66380(13) 0.96543(16) 0.3738(2)
C58_19 C 0.33620(13) 0.96543(16) 0.3738(2)
H34_19 H 0.4807 0.8310 0.1131
H37_19 H 0.6690 0.9807 0.3869
H40_19 H 0.3310 0.9807 0.3869
C59_19 C 0.47513(7) 0.89760(10) 0.20057(7)
C62_19 C 0.60240(10) 0.97513(7) 0.29943(7)
C65_19 C 0.39760(10) 0.97513(7) 0.29943(7)
C67_30 C 0.57117(15) 0.99999(10) 0.26740(10)
C68_30 C 0.42883(15) 1.00001(10) 0.26740(10)
Na1_47 Na 0.5000 0.0000 0.7500
O1_10 O 0.54418(17) 0.20886(18) 0.91270(18)
O2_10 O 0.58750(12) 0.2157(2) 0.89871(12)
O3_30 O 0.50000(10) 0.0518 0.74822(11)
O4_47 O 0.5000(3) 0.0000 0.6964
N1_20 N 0.54994(15) 0.11201(14) 0.80960(15)
H1_20 H 0.5661 0.1052 0.8017
N2_30 N 0.50000(17) 0.1131 0.81094(19)
C1_20 C 0.5644(2) 0.2039(2) 0.8968(2)
C2_20 C 0.56151(14) 0.17842(12) 0.87513(13)
C3_20 C 0.58406(12) 0.17078(11) 0.85578(11)
H2_20 H 0.6023 0.1807 0.8567
C4_20 C 0.57967(12) 0.14851(9) 0.83512(12)
H3_20 H 0.5949 0.1433 0.8220
C5_20 C 0.55273(7) 0.13388(8) 0.83383(7)
C6_20 C 0.53018(12) 0.14152(10) 0.85318(16)
H4_20 H 0.5120 0.1316 0.8523
C7_20 C 0.53457(16) 0.16380(13) 0.8738(2)
H5_20 H 0.5193 0.1690 0.8869
C8_20 C 0.52487(7) 0.10240(10) 0.79943(7)
C9_30 C 0.50001(10) 0.07117(15) 0.76740(10)
O5_14 O 0.45582(17) 0.20886(18) 0.91270(18)
O16_14 O 0.41250(12) 0.2157(2) 0.89871(12)
O28_31 O 0.5518 0.00000(10) 0.75178(11)
O29_31 O 0.4482 0.00000(10) 0.75178(11)
O30_47 O 0.5000 0.0000(3) 0.8036
N4_20 N 0.45006(15) 0.11201(14) 0.80960(15)
N7_20 N 0.61201(14) 0.04994(15) 0.69040(15)
N10_20 N 0.38799(14) 0.04994(15) 0.69040(15)
H6_20 H 0.4339 0.1052 0.8017
H9_20 H 0.6052 0.0661 0.6983
H12_20 H 0.3948 0.0661 0.6983
N12_31 N 0.6131 0.00000(17) 0.68906(19)
N13_31 N 0.3869 0.00000(17) 0.68906(19)
N21_9 N 0.58162(9) 0.22169(9) 0.97403(10)
N22_9 N 0.52597(10) 0.27831(9) 0.91838(9)
N23_15 N 0.41838(9) 0.22169(9) 0.97403(10)
N24_15 N 0.47403(10) 0.27831(9) 0.91838(9)
C10_20 C 0.4356(2) 0.2039(2) 0.8968(2)
C13_20 C 0.7039(2) 0.0644(2) 0.6032(2)
C16_20 C 0.2961(2) 0.0644(2) 0.6032(2)
C17_20 C 0.43849(14) 0.17842(12) 0.87513(13)
C20_20 C 0.67842(12) 0.06151(14) 0.62487(13)
C23_20 C 0.32158(12) 0.06151(14) 0.62487(13)
C24_20 C 0.41594(12) 0.17078(11) 0.85578(11)
C27_20 C 0.67078(11) 0.08406(12) 0.64422(11)
C30_20 C 0.32922(11) 0.08406(12) 0.64422(11)
H13_20 H 0.3977 0.1807 0.8567
H16_20 H 0.6807 0.1023 0.6433
H19_20 H 0.3193 0.1023 0.6433
C31_20 C 0.42033(12) 0.14851(9) 0.83512(12)
C34_20 C 0.64851(9) 0.07967(12) 0.66488(12)
C37_20 C 0.35149(9) 0.07967(12) 0.66488(12)
H20_20 H 0.4051 0.1433 0.8220
H23_20 H 0.6433 0.0949 0.6780
H26_20 H 0.3567 0.0949 0.6780
C38_20 C 0.44727(7) 0.13388(8) 0.83383(7)
C41_20 C 0.63388(8) 0.05273(7) 0.66617(7)
C44_20 C 0.36612(8) 0.05273(7) 0.66617(7)
C45_20 C 0.46982(12) 0.14152(10) 0.85318(16)
C48_20 C 0.64152(10) 0.03018(12) 0.64682(16)
C51_20 C 0.35848(10) 0.03018(12) 0.64682(16)
H27_20 H 0.4880 0.1316 0.8523
H30_20 H 0.6316 0.0120 0.6477
H33_20 H 0.3684 0.0120 0.6477
C52_20 C 0.46543(16) 0.16380(13) 0.8738(2)
C55_20 C 0.66380(13) 0.03457(16) 0.6262(2)
C58_20 C 0.33620(13) 0.03457(16) 0.6262(2)
H34_20 H 0.4807 0.1690 0.8869
H37_20 H 0.6690 0.0193 0.6131
H40_20 H 0.3310 0.0193 0.6131
C59_20 C 0.47513(7) 0.10240(10) 0.79943(7)
C62_20 C 0.60240(10) 0.02487(7) 0.70057(7)
C65_20 C 0.39760(10) 0.02487(7) 0.70057(7)
C67_31 C 0.57117(15) 0.00001(10) 0.73260(10)
C68_31 C 0.42883(15) -0.00001(10) 0.73260(10)
Na1_48 Na 0.5000 1.0000 0.7500
O4_48 O 0.5000(3) 1.0000 0.6964
O6_14 O 0.45582(17) 0.79114(18) 0.91270(18)
O7_10 O 0.54418(17) 0.79114(18) 0.91270(18)
O17_14 O 0.41250(12) 0.7843(2) 0.89871(12)
O18_10 O 0.58750(12) 0.7843(2) 0.89871(12)
O27_30 O 0.50000(10) 0.9482 0.74822(11)
O28_32 O 0.5518 1.00000(10) 0.75178(11)
O29_32 O 0.4482 1.00000(10) 0.75178(11)
O30_48 O 0.5000 1.0000(3) 0.8036
N5_20 N 0.45006(15) 0.88799(14) 0.80960(15)
N6_20 N 0.54994(15) 0.88799(14) 0.80960(15)
N8_20 N 0.61201(14) 0.95006(15) 0.69040(15)
N9_20 N 0.38799(14) 0.95006(15) 0.69040(15)
H7_20 H 0.4339 0.8948 0.8017
H8_20 H 0.5661 0.8948 0.8017
H10_20 H 0.6052 0.9339 0.6983
H11_20 H 0.3948 0.9339 0.6983
N11_30 N 0.50000(17) 0.8869 0.81094(19)
N12_32 N 0.6131 1.00000(17) 0.68906(19)
N13_32 N 0.3869 1.00000(17) 0.68906(19)
N25_15 N 0.41838(9) 0.77831(9) 0.97403(10)
N26_15 N 0.47403(10) 0.72169(9) 0.91838(9)
N27_9 N 0.58162(9) 0.77831(9) 0.97403(10)
N28_9 N 0.52597(10) 0.72169(9) 0.91838(9)
C11_20 C 0.4356(2) 0.7961(2) 0.8968(2)
C12_20 C 0.5644(2) 0.7961(2) 0.8968(2)
C14_20 C 0.7039(2) 0.9356(2) 0.6032(2)
C15_20 C 0.2961(2) 0.9356(2) 0.6032(2)
C18_20 C 0.43849(14) 0.82158(12) 0.87513(13)
C19_20 C 0.56151(14) 0.82158(12) 0.87513(13)
C21_20 C 0.67842(12) 0.93849(14) 0.62487(13)
C22_20 C 0.32158(12) 0.93849(14) 0.62487(13)
C25_20 C 0.41594(12) 0.82922(11) 0.85578(11)
C26_20 C 0.58406(12) 0.82922(11) 0.85578(11)
C28_20 C 0.67078(11) 0.91594(12) 0.64422(11)
C29_20 C 0.32922(11) 0.91594(12) 0.64422(11)
H14_20 H 0.3977 0.8193 0.8567
H15_20 H 0.6023 0.8193 0.8567
H17_20 H 0.6807 0.8977 0.6433
H18_20 H 0.3193 0.8977 0.6433
C32_20 C 0.42033(12) 0.85149(9) 0.83512(12)
C33_20 C 0.57967(12) 0.85149(9) 0.83512(12)
C35_20 C 0.64851(9) 0.92033(12) 0.66488(12)
C36_20 C 0.35149(9) 0.92033(12) 0.66488(12)
H21_20 H 0.4051 0.8567 0.8220
H22_20 H 0.5949 0.8567 0.8220
H24_20 H 0.6433 0.9051 0.6780
H25_20 H 0.3567 0.9051 0.6780
C39_20 C 0.44727(7) 0.86612(8) 0.83383(7)
C40_20 C 0.55273(7) 0.86612(8) 0.83383(7)
C42_20 C 0.63388(8) 0.94727(7) 0.66617(7)
C43_20 C 0.36612(8) 0.94727(7) 0.66617(7)
C46_20 C 0.46982(12) 0.85848(10) 0.85318(16)
C47_20 C 0.53018(12) 0.85848(10) 0.85318(16)
C49_20 C 0.64152(10) 0.96982(12) 0.64682(16)
C50_20 C 0.35848(10) 0.96982(12) 0.64682(16)
H28_20 H 0.4880 0.8684 0.8523
H29_20 H 0.5120 0.8684 0.8523
H31_20 H 0.6316 0.9880 0.6477
H32_20 H 0.3684 0.9880 0.6477
C53_20 C 0.46543(16) 0.83620(13) 0.8738(2)
C54_20 C 0.53457(16) 0.83620(13) 0.8738(2)
C56_20 C 0.66380(13) 0.96543(16) 0.6262(2)
C57_20 C 0.33620(13) 0.96543(16) 0.6262(2)
H35_20 H 0.4807 0.8310 0.8869
H36_20 H 0.5193 0.8310 0.8869
H38_20 H 0.6690 0.9807 0.6131
H39_20 H 0.3310 0.9807 0.6131
C60_20 C 0.47513(7) 0.89760(10) 0.79943(7)
C61_20 C 0.52487(7) 0.89760(10) 0.79943(7)
C63_20 C 0.60240(10) 0.97513(7) 0.70057(7)
C64_20 C 0.39760(10) 0.97513(7) 0.70057(7)
C66_30 C 0.49999(10) 0.92883(15) 0.76740(10)
C67_32 C 0.57117(15) 1.00001(10) 0.73260(10)
C68_32 C 0.42883(15) 0.99999(10) 0.73260(10)
Na1_49 Na 0.5000 0.2500 -0.0000
O3_31 O 0.5518 0.25178(11) -0.00000(10)
O4_49 O 0.5000 0.3036 -0.0000(3)
N2_31 N 0.6131 0.18906(19) 0.00000(17)
C9_31 C 0.57117(15) 0.23260(10) -0.00001(10)
O10_17 O 0.45582(17) 0.41270(18) 0.20886(18)
O11_17 O 0.54418(17) 0.41270(18) 0.20886(18)
O21_17 O 0.41250(12) 0.39871(12) 0.2157(2)
O22_17 O 0.58750(12) 0.39871(12) 0.2157(2)
O27_31 O 0.4482 0.25178(11) -0.00000(10)
O29_33 O 0.50000(10) 0.24822(11) 0.0518
O30_49 O 0.5000(3) 0.1964 0.0000
N4_21 N 0.61201(14) 0.19040(15) 0.04994(15)
N5_21 N 0.38799(14) 0.19040(15) 0.04994(15)
N9_21 N 0.45006(15) 0.30960(15) 0.11201(14)
N10_21 N 0.54994(15) 0.30960(15) 0.11201(14)
H6_21 H 0.6052 0.1983 0.0661
H7_21 H 0.3948 0.1983 0.0661
H11_21 H 0.4339 0.3017 0.1052
H12_21 H 0.5661 0.3017 0.1052
N11_31 N 0.3869 0.18906(19) 0.00000(17)
N13_33 N 0.50000(17) 0.31094(19) 0.1131
C10_21 C 0.7039(2) 0.1032(2) 0.0644(2)
C11_21 C 0.2961(2) 0.1032(2) 0.0644(2)
C15_21 C 0.4356(2) 0.3968(2) 0.2039(2)
C16_21 C 0.5644(2) 0.3968(2) 0.2039(2)
C17_21 C 0.67842(12) 0.12487(13) 0.06151(14)
C18_21 C 0.32158(12) 0.12487(13) 0.06151(14)
C22_21 C 0.43849(14) 0.37513(13) 0.17842(12)
C23_21 C 0.56151(14) 0.37513(13) 0.17842(12)
C24_21 C 0.67078(11) 0.14422(11) 0.08406(12)
C25_21 C 0.32922(11) 0.14422(11) 0.08406(12)
C29_21 C 0.41594(12) 0.35578(11) 0.17078(11)
C30_21 C 0.58406(12) 0.35578(11) 0.17078(11)
H13_21 H 0.6807 0.1433 0.1023
H14_21 H 0.3193 0.1433 0.1023
H18_21 H 0.3977 0.3567 0.1807
H19_21 H 0.6023 0.3567 0.1807
C31_21 C 0.64851(9) 0.16488(12) 0.07967(12)
C32_21 C 0.35149(9) 0.16488(12) 0.07967(12)
C36_21 C 0.42033(12) 0.33512(12) 0.14851(9)
C37_21 C 0.57967(12) 0.33512(12) 0.14851(9)
H20_21 H 0.6433 0.1780 0.0949
H21_21 H 0.3567 0.1780 0.0949
H25_21 H 0.4051 0.3220 0.1433
H26_21 H 0.5949 0.3220 0.1433
C38_21 C 0.63388(8) 0.16617(7) 0.05273(7)
C39_21 C 0.36612(8) 0.16617(7) 0.05273(7)
C43_21 C 0.44727(7) 0.33383(7) 0.13388(8)
C44_21 C 0.55273(7) 0.33383(7) 0.13388(8)
C45_21 C 0.64152(10) 0.14682(16) 0.03018(12)
C46_21 C 0.35848(10) 0.14682(16) 0.03018(12)
C50_21 C 0.46982(12) 0.35318(16) 0.14152(10)
C51_21 C 0.53018(12) 0.35318(16) 0.14152(10)
H27_21 H 0.6316 0.1477 0.0120
H28_21 H 0.3684 0.1477 0.0120
H32_21 H 0.4880 0.3523 0.1316
H33_21 H 0.5120 0.3523 0.1316
C52_21 C 0.66380(13) 0.1262(2) 0.03457(16)
C53_21 C 0.33620(13) 0.1262(2) 0.03457(16)
C57_21 C 0.46543(16) 0.3738(2) 0.16380(13)
C58_21 C 0.53457(16) 0.3738(2) 0.16380(13)
H34_21 H 0.6690 0.1131 0.0193
H35_21 H 0.3310 0.1131 0.0193
H39_21 H 0.4807 0.3869 0.1690
H40_21 H 0.5193 0.3869 0.1690
C59_21 C 0.60240(10) 0.20057(7) 0.02487(7)
C60_21 C 0.39760(10) 0.20057(7) 0.02487(7)
C64_21 C 0.47513(7) 0.29943(7) 0.10240(10)
C65_21 C 0.52487(7) 0.29943(7) 0.10240(10)
C66_31 C 0.42883(15) 0.23260(10) 0.00001(10)
C68_33 C 0.49999(10) 0.26740(10) 0.07117(15)
Na1_50 Na 0.5000 0.2500 1.0000
O3_32 O 0.5518 0.25178(11) 1.00000(10)
O4_50 O 0.5000 0.3036 1.0000(3)
N1_21 N 0.61201(14) 0.19040(15) 0.95006(15)
H1_21 H 0.6052 0.1983 0.9339
N2_32 N 0.6131 0.18906(19) 1.00000(17)
C1_21 C 0.7039(2) 0.1032(2) 0.9356(2)
C2_21 C 0.67842(12) 0.12487(13) 0.93849(14)
C3_21 C 0.67078(11) 0.14422(11) 0.91594(12)
H2_21 H 0.6807 0.1433 0.8977
C4_21 C 0.64851(9) 0.16488(12) 0.92033(12)
H3_21 H 0.6433 0.1780 0.9051
C5_21 C 0.63388(8) 0.16617(7) 0.94727(7)
C6_21 C 0.64152(10) 0.14682(16) 0.96982(12)
H4_21 H 0.6316 0.1477 0.9880
C7_21 C 0.66380(13) 0.1262(2) 0.96543(16)
H5_21 H 0.6690 0.1131 0.9807
C8_21 C 0.60240(10) 0.20057(7) 0.97513(7)
C9_32 C 0.57117(15) 0.23260(10) 0.99999(10)
O8_17 O 0.54418(17) 0.41270(18) 0.79114(18)
O9_17 O 0.45582(17) 0.41270(18) 0.79114(18)
O19_17 O 0.58750(12) 0.39871(12) 0.7843(2)
O20_17 O 0.41250(12) 0.39871(12) 0.7843(2)
O27_32 O 0.4482 0.25178(11) 1.00000(10)
O28_33 O 0.50000(10) 0.24822(11) 0.9482
O30_50 O 0.5000(3) 0.1964 1.0000
N6_21 N 0.38799(14) 0.19040(15) 0.95006(15)
N7_21 N 0.54994(15) 0.30960(15) 0.88799(14)
N8_21 N 0.45006(15) 0.30960(15) 0.88799(14)
H8_21 H 0.3948 0.1983 0.9339
H9_21 H 0.5661 0.3017 0.8948
H10_21 H 0.4339 0.3017 0.8948
N11_32 N 0.3869 0.18906(19) 1.00000(17)
N12_33 N 0.50000(17) 0.31094(19) 0.8869
C12_21 C 0.2961(2) 0.1032(2) 0.9356(2)
C13_21 C 0.5644(2) 0.3968(2) 0.7961(2)
C14_21 C 0.4356(2) 0.3968(2) 0.7961(2)
C19_21 C 0.32158(12) 0.12487(13) 0.93849(14)
C20_21 C 0.56151(14) 0.37513(13) 0.82158(12)
C21_21 C 0.43849(14) 0.37513(13) 0.82158(12)
C26_21 C 0.32922(11) 0.14422(11) 0.91594(12)
C27_21 C 0.58406(12) 0.35578(11) 0.82922(11)
C28_21 C 0.41594(12) 0.35578(11) 0.82922(11)
H15_21 H 0.3193 0.1433 0.8977
H16_21 H 0.6023 0.3567 0.8193
H17_21 H 0.3977 0.3567 0.8193
C33_21 C 0.35149(9) 0.16488(12) 0.92033(12)
C34_21 C 0.57967(12) 0.33512(12) 0.85149(9)
C35_21 C 0.42033(12) 0.33512(12) 0.85149(9)
H22_21 H 0.3567 0.1780 0.9051
H23_21 H 0.5949 0.3220 0.8567
H24_21 H 0.4051 0.3220 0.8567
C40_21 C 0.36612(8) 0.16617(7) 0.94727(7)
C41_21 C 0.55273(7) 0.33383(7) 0.86612(8)
C42_21 C 0.44727(7) 0.33383(7) 0.86612(8)
C47_21 C 0.35848(10) 0.14682(16) 0.96982(12)
C48_21 C 0.53018(12) 0.35318(16) 0.85848(10)
C49_21 C 0.46982(12) 0.35318(16) 0.85848(10)
H29_21 H 0.3684 0.1477 0.9880
H30_21 H 0.5120 0.3523 0.8684
H31_21 H 0.4880 0.3523 0.8684
C54_21 C 0.33620(13) 0.1262(2) 0.96543(16)
C55_21 C 0.53457(16) 0.3738(2) 0.83620(13)
C56_21 C 0.46543(16) 0.3738(2) 0.83620(13)
H36_21 H 0.3310 0.1131 0.9807
H37_21 H 0.5193 0.3869 0.8310
H38_21 H 0.4807 0.3869 0.8310
C61_21 C 0.39760(10) 0.20057(7) 0.97513(7)
C62_21 C 0.52487(7) 0.29943(7) 0.89760(10)
C63_21 C 0.47513(7) 0.29943(7) 0.89760(10)
C66_32 C 0.42883(15) 0.23260(10) 1.00001(10)
C67_33 C 0.50001(10) 0.26740(10) 0.92883(15)
O12_15 O 0.54418(17) 0.29114(18) 0.58730(18)
O13_19 O 0.54418(17) 0.29114(18) 0.41270(18)
O23_15 O 0.58750(12) 0.2843(2) 0.60129(12)
O24_19 O 0.58750(12) 0.2843(2) 0.39871(12)
O14_19 O 0.54418(17) 0.70886(18) 0.41270(18)
O15_15 O 0.54418(17) 0.70886(18) 0.58730(18)
O25_19 O 0.58750(12) 0.7157(2) 0.39871(12)
O26_15 O 0.58750(12) 0.7157(2) 0.60129(12)
O14_20 O 0.45582(17) 0.29114(18) 0.41270(18)
O15_16 O 0.45582(17) 0.29114(18) 0.58730(18)
O25_20 O 0.41250(12) 0.2843(2) 0.39871(12)
O26_16 O 0.41250(12) 0.2843(2) 0.60129(12)
O12_16 O 0.45582(17) 0.70886(18) 0.58730(18)
O13_20 O 0.45582(17) 0.70886(18) 0.41270(18)
O23_16 O 0.41250(12) 0.7157(2) 0.60129(12)
O24_20 O 0.41250(12) 0.7157(2) 0.39871(12)
Na1_51 Na 0.5000 0.7500 0.0000
O3_33 O 0.5518 0.74822(11) 0.00000(10)
O4_51 O 0.5000 0.6964 0.0000(3)
N1_22 N 0.61201(14) 0.80960(15) 0.04994(15)
H1_22 H 0.6052 0.8017 0.0661
N2_33 N 0.6131 0.81094(19) 0.00000(17)
C1_22 C 0.7039(2) 0.8968(2) 0.0644(2)
C2_22 C 0.67842(12) 0.87513(13) 0.06151(14)
C3_22 C 0.67078(11) 0.85578(11) 0.08406(12)
H2_22 H 0.6807 0.8567 0.1023
C4_22 C 0.64851(9) 0.83512(12) 0.07967(12)
H3_22 H 0.6433 0.8220 0.0949
C5_22 C 0.63388(8) 0.83383(7) 0.05273(7)
C6_22 C 0.64152(10) 0.85318(16) 0.03018(12)
H4_22 H 0.6316 0.8523 0.0120
C7_22 C 0.66380(13) 0.8738(2) 0.03457(16)
H5_22 H 0.6690 0.8869 0.0193
C8_22 C 0.60240(10) 0.79943(7) 0.02487(7)
C9_33 C 0.57117(15) 0.76740(10) 0.00001(10)
O8_18 O 0.54418(17) 0.58730(18) 0.20886(18)
O9_18 O 0.45582(17) 0.58730(18) 0.20886(18)
O19_18 O 0.58750(12) 0.60129(12) 0.2157(2)
O20_18 O 0.41250(12) 0.60129(12) 0.2157(2)
O27_33 O 0.4482 0.74822(11) 0.00000(10)
O28_34 O 0.50000(10) 0.75178(11) 0.0518
O30_51 O 0.5000(3) 0.8036 0.0000
N6_22 N 0.38799(14) 0.80960(15) 0.04994(15)
N7_22 N 0.54994(15) 0.69040(15) 0.11201(14)
N8_22 N 0.45006(15) 0.69040(15) 0.11201(14)
H8_22 H 0.3948 0.8017 0.0661
H9_22 H 0.5661 0.6983 0.1052
H10_22 H 0.4339 0.6983 0.1052
N11_33 N 0.3869 0.81094(19) -0.00000(17)
N12_34 N 0.50000(17) 0.68906(19) 0.1131
C12_22 C 0.2961(2) 0.8968(2) 0.0644(2)
C13_22 C 0.5644(2) 0.6032(2) 0.2039(2)
C14_22 C 0.4356(2) 0.6032(2) 0.2039(2)
C19_22 C 0.32158(12) 0.87513(13) 0.06151(14)
C20_22 C 0.56151(14) 0.62487(13) 0.17842(12)
C21_22 C 0.43849(14) 0.62487(13) 0.17842(12)
C26_22 C 0.32922(11) 0.85578(11) 0.08406(12)
C27_22 C 0.58406(12) 0.64422(11) 0.17078(11)
C28_22 C 0.41594(12) 0.64422(11) 0.17078(11)
H15_22 H 0.3193 0.8567 0.1023
H16_22 H 0.6023 0.6433 0.1807
H17_22 H 0.3977 0.6433 0.1807
C33_22 C 0.35149(9) 0.83512(12) 0.07967(12)
C34_22 C 0.57967(12) 0.66488(12) 0.14851(9)
C35_22 C 0.42033(12) 0.66488(12) 0.14851(9)
H22_22 H 0.3567 0.8220 0.0949
H23_22 H 0.5949 0.6780 0.1433
H24_22 H 0.4051 0.6780 0.1433
C40_22 C 0.36612(8) 0.83383(7) 0.05273(7)
C41_22 C 0.55273(7) 0.66617(7) 0.13388(8)
C42_22 C 0.44727(7) 0.66617(7) 0.13388(8)
C47_22 C 0.35848(10) 0.85318(16) 0.03018(12)
C48_22 C 0.53018(12) 0.64682(16) 0.14152(10)
C49_22 C 0.46982(12) 0.64682(16) 0.14152(10)
H29_22 H 0.3684 0.8523 0.0120
H30_22 H 0.5120 0.6477 0.1316
H31_22 H 0.4880 0.6477 0.1316
C54_22 C 0.33620(13) 0.8738(2) 0.03457(16)
C55_22 C 0.53457(16) 0.6262(2) 0.16380(13)
C56_22 C 0.46543(16) 0.6262(2) 0.16380(13)
H36_22 H 0.3310 0.8869 0.0193
H37_22 H 0.5193 0.6131 0.1690
H38_22 H 0.4807 0.6131 0.1690
C61_22 C 0.39760(10) 0.79943(7) 0.02487(7)
C62_22 C 0.52487(7) 0.70057(7) 0.10240(10)
C63_22 C 0.47513(7) 0.70057(7) 0.10240(10)
C66_33 C 0.42883(15) 0.76740(10) -0.00001(10)
C67_34 C 0.50001(10) 0.73260(10) 0.07117(15)
Na1_52 Na 0.5000 0.7500 1.0000
O3_34 O 0.5518 0.74822(11) 1.00000(10)
O4_52 O 0.5000 0.6964 1.0000(3)
N2_34 N 0.6131 0.81094(19) 1.00000(17)
C9_34 C 0.57117(15) 0.76740(10) 1.00001(10)
O10_18 O 0.45582(17) 0.58730(18) 0.79114(18)
O11_18 O 0.54418(17) 0.58730(18) 0.79114(18)
O21_18 O 0.41250(12) 0.60129(12) 0.7843(2)
O22_18 O 0.58750(12) 0.60129(12) 0.7843(2)
O27_34 O 0.4482 0.74822(11) 1.00000(10)
O29_34 O 0.50000(10) 0.75178(11) 0.9482
O30_52 O 0.5000(3) 0.8036 1.0000
N4_22 N 0.61201(14) 0.80960(15) 0.95006(15)
N5_22 N 0.38799(14) 0.80960(15) 0.95006(15)
N9_22 N 0.45006(15) 0.69040(15) 0.88799(14)
N10_22 N 0.54994(15) 0.69040(15) 0.88799(14)
H6_22 H 0.6052 0.8017 0.9339
H7_22 H 0.3948 0.8017 0.9339
H11_22 H 0.4339 0.6983 0.8948
H12_22 H 0.5661 0.6983 0.8948
N11_34 N 0.3869 0.81094(19) 1.00000(17)
N13_34 N 0.50000(17) 0.68906(19) 0.8869
C10_22 C 0.7039(2) 0.8968(2) 0.9356(2)
C11_22 C 0.2961(2) 0.8968(2) 0.9356(2)
C15_22 C 0.4356(2) 0.6032(2) 0.7961(2)
C16_22 C 0.5644(2) 0.6032(2) 0.7961(2)
C17_22 C 0.67842(12) 0.87513(13) 0.93849(14)
C18_22 C 0.32158(12) 0.87513(13) 0.93849(14)
C22_22 C 0.43849(14) 0.62487(13) 0.82158(12)
C23_22 C 0.56151(14) 0.62487(13) 0.82158(12)
C24_22 C 0.67078(11) 0.85578(11) 0.91594(12)
C25_22 C 0.32922(11) 0.85578(11) 0.91594(12)
C29_22 C 0.41594(12) 0.64422(11) 0.82922(11)
C30_22 C 0.58406(12) 0.64422(11) 0.82922(11)
H13_22 H 0.6807 0.8567 0.8977
H14_22 H 0.3193 0.8567 0.8977
H18_22 H 0.3977 0.6433 0.8193
H19_22 H 0.6023 0.6433 0.8193
C31_22 C 0.64851(9) 0.83512(12) 0.92033(12)
C32_22 C 0.35149(9) 0.83512(12) 0.92033(12)
C36_22 C 0.42033(12) 0.66488(12) 0.85149(9)
C37_22 C 0.57967(12) 0.66488(12) 0.85149(9)
H20_22 H 0.6433 0.8220 0.9051
H21_22 H 0.3567 0.8220 0.9051
H25_22 H 0.4051 0.6780 0.8567
H26_22 H 0.5949 0.6780 0.8567
C38_22 C 0.63388(8) 0.83383(7) 0.94727(7)
C39_22 C 0.36612(8) 0.83383(7) 0.94727(7)
C43_22 C 0.44727(7) 0.66617(7) 0.86612(8)
C44_22 C 0.55273(7) 0.66617(7) 0.86612(8)
C45_22 C 0.64152(10) 0.85318(16) 0.96982(12)
C46_22 C 0.35848(10) 0.85318(16) 0.96982(12)
C50_22 C 0.46982(12) 0.64682(16) 0.85848(10)
C51_22 C 0.53018(12) 0.64682(16) 0.85848(10)
H27_22 H 0.6316 0.8523 0.9880
H28_22 H 0.3684 0.8523 0.9880
H32_22 H 0.4880 0.6477 0.8684
H33_22 H 0.5120 0.6477 0.8684
C52_22 C 0.66380(13) 0.8738(2) 0.96543(16)
C53_22 C 0.33620(13) 0.8738(2) 0.96543(16)
C57_22 C 0.46543(16) 0.6262(2) 0.83620(13)
C58_22 C 0.53457(16) 0.6262(2) 0.83620(13)
H34_22 H 0.6690 0.8869 0.9807
H35_22 H 0.3310 0.8869 0.9807
H39_22 H 0.4807 0.6131 0.8310
H40_22 H 0.5193 0.6131 0.8310
C59_22 C 0.60240(10) 0.79943(7) 0.97513(7)
C60_22 C 0.39760(10) 0.79943(7) 0.97513(7)
C64_22 C 0.47513(7) 0.70057(7) 0.89760(10)
C65_22 C 0.52487(7) 0.70057(7) 0.89760(10)
C66_34 C 0.42883(15) 0.76740(10) 0.99999(10)
C68_34 C 0.49999(10) 0.73260(10) 0.92883(15)
N21_10 N 0.58162(9) 0.52597(10) 0.22169(9)
N22_10 N 0.52597(10) 0.58162(9) 0.27831(9)
N23_16 N 0.41838(9) 0.52597(10) 0.22169(9)
N24_16 N 0.47403(10) 0.58162(9) 0.27831(9)
N25_16 N 0.41838(9) 0.52597(10) 0.77831(9)
N26_16 N 0.47403(10) 0.58162(9) 0.72169(9)
N27_10 N 0.58162(9) 0.52597(10) 0.77831(9)
N28_10 N 0.52597(10) 0.58162(9) 0.72169(9)
N23_17 N 0.47403(10) 0.41838(9) 0.72169(9)
N24_17 N 0.41838(9) 0.47403(10) 0.77831(9)
N25_17 N 0.47403(10) 0.41838(9) 0.27831(9)
N26_17 N 0.41838(9) 0.47403(10) 0.22169(9)
N23_18 N 0.58162(9) 0.47403(10) 0.22169(9)
N24_18 N 0.52597(10) 0.41838(9) 0.27831(9)
N25_18 N 0.58162(9) 0.47403(10) 0.77831(9)
N26_18 N 0.52597(10) 0.41838(9) 0.72169(9)
Na1_53 Na 0.5000 0.5000 0.7500
O3_35 O 0.50000(10) 0.4482 0.75178(11)
O4_53 O 0.5000(3) 0.5000 0.8036
N1_23 N 0.54994(15) 0.38799(14) 0.69040(15)
H1_23 H 0.5661 0.3948 0.6983
N2_35 N 0.50000(17) 0.3869 0.68906(19)
C1_23 C 0.5644(2) 0.2961(2) 0.6032(2)
C2_23 C 0.56151(14) 0.32158(12) 0.62487(13)
C3_23 C 0.58406(12) 0.32922(11) 0.64422(11)
H2_23 H 0.6023 0.3193 0.6433
C4_23 C 0.57967(12) 0.35149(9) 0.66488(12)
H3_23 H 0.5949 0.3567 0.6780
C5_23 C 0.55273(7) 0.36612(8) 0.66617(7)
C6_23 C 0.53018(12) 0.35848(10) 0.64682(16)
H4_23 H 0.5120 0.3684 0.6477
C7_23 C 0.53457(16) 0.33620(13) 0.6262(2)
H5_23 H 0.5193 0.3310 0.6131
C8_23 C 0.52487(7) 0.39760(10) 0.70057(7)
C9_35 C 0.50001(10) 0.42883(15) 0.73260(10)
O27_35 O 0.50000(10) 0.5518 0.75178(11)
O28_35 O 0.5518 0.50000(10) 0.74822(11)
O29_35 O 0.4482 0.50000(10) 0.74822(11)
O30_53 O 0.5000 0.5000(3) 0.6964
N4_23 N 0.45006(15) 0.38799(14) 0.69040(15)
N5_23 N 0.45006(15) 0.61201(14) 0.69040(15)
N6_23 N 0.54994(15) 0.61201(14) 0.69040(15)
N7_23 N 0.61201(14) 0.45006(15) 0.80960(15)
N8_23 N 0.61201(14) 0.54994(15) 0.80960(15)
N9_23 N 0.38799(14) 0.54994(15) 0.80960(15)
N10_23 N 0.38799(14) 0.45006(15) 0.80960(15)
H6_23 H 0.4339 0.3948 0.6983
H7_23 H 0.4339 0.6052 0.6983
H8_23 H 0.5661 0.6052 0.6983
H9_23 H 0.6052 0.4339 0.8017
H10_23 H 0.6052 0.5661 0.8017
H11_23 H 0.3948 0.5661 0.8017
H12_23 H 0.3948 0.4339 0.8017
N11_35 N 0.50000(17) 0.6131 0.68906(19)
N12_35 N 0.6131 0.50000(17) 0.81094(19)
N13_35 N 0.3869 0.50000(17) 0.81094(19)
C10_23 C 0.4356(2) 0.2961(2) 0.6032(2)
C11_23 C 0.4356(2) 0.7039(2) 0.6032(2)
C12_23 C 0.5644(2) 0.7039(2) 0.6032(2)
C13_23 C 0.7039(2) 0.4356(2) 0.8968(2)
C14_23 C 0.7039(2) 0.5644(2) 0.8968(2)
C15_23 C 0.2961(2) 0.5644(2) 0.8968(2)
C16_23 C 0.2961(2) 0.4356(2) 0.8968(2)
C17_23 C 0.43849(14) 0.32158(12) 0.62487(13)
C18_23 C 0.43849(14) 0.67842(12) 0.62487(13)
C19_23 C 0.56151(14) 0.67842(12) 0.62487(13)
C20_23 C 0.67842(12) 0.43849(14) 0.87513(13)
C21_23 C 0.67842(12) 0.56151(14) 0.87513(13)
C22_23 C 0.32158(12) 0.56151(14) 0.87513(13)
C23_23 C 0.32158(12) 0.43849(14) 0.87513(13)
C24_23 C 0.41594(12) 0.32922(11) 0.64422(11)
C25_23 C 0.41594(12) 0.67078(11) 0.64422(11)
C26_23 C 0.58406(12) 0.67078(11) 0.64422(11)
C27_23 C 0.67078(11) 0.41594(12) 0.85578(11)
C28_23 C 0.67078(11) 0.58406(12) 0.85578(11)
C29_23 C 0.32922(11) 0.58406(12) 0.85578(11)
C30_23 C 0.32922(11) 0.41594(12) 0.85578(11)
H13_23 H 0.3977 0.3193 0.6433
H14_23 H 0.3977 0.6807 0.6433
H15_23 H 0.6023 0.6807 0.6433
H16_23 H 0.6807 0.3977 0.8567
H17_23 H 0.6807 0.6023 0.8567
H18_23 H 0.3193 0.6023 0.8567
H19_23 H 0.3193 0.3977 0.8567
C31_23 C 0.42033(12) 0.35149(9) 0.66488(12)
C32_23 C 0.42033(12) 0.64851(9) 0.66488(12)
C33_23 C 0.57967(12) 0.64851(9) 0.66488(12)
C34_23 C 0.64851(9) 0.42033(12) 0.83512(12)
C35_23 C 0.64851(9) 0.57967(12) 0.83512(12)
C36_23 C 0.35149(9) 0.57967(12) 0.83512(12)
C37_23 C 0.35149(9) 0.42033(12) 0.83512(12)
H20_23 H 0.4051 0.3567 0.6780
H21_23 H 0.4051 0.6433 0.6780
H22_23 H 0.5949 0.6433 0.6780
H23_23 H 0.6433 0.4051 0.8220
H24_23 H 0.6433 0.5949 0.8220
H25_23 H 0.3567 0.5949 0.8220
H26_23 H 0.3567 0.4051 0.8220
C38_23 C 0.44727(7) 0.36612(8) 0.66617(7)
C39_23 C 0.44727(7) 0.63388(8) 0.66617(7)
C40_23 C 0.55273(7) 0.63388(8) 0.66617(7)
C41_23 C 0.63388(8) 0.44727(7) 0.83383(7)
C42_23 C 0.63388(8) 0.55273(7) 0.83383(7)
C43_23 C 0.36612(8) 0.55273(7) 0.83383(7)
C44_23 C 0.36612(8) 0.44727(7) 0.83383(7)
C45_23 C 0.46982(12) 0.35848(10) 0.64682(16)
C46_23 C 0.46982(12) 0.64152(10) 0.64682(16)
C47_23 C 0.53018(12) 0.64152(10) 0.64682(16)
C48_23 C 0.64152(10) 0.46982(12) 0.85318(16)
C49_23 C 0.64152(10) 0.53018(12) 0.85318(16)
C50_23 C 0.35848(10) 0.53018(12) 0.85318(16)
C51_23 C 0.35848(10) 0.46982(12) 0.85318(16)
H27_23 H 0.4880 0.3684 0.6477
H28_23 H 0.4880 0.6316 0.6477
H29_23 H 0.5120 0.6316 0.6477
H30_23 H 0.6316 0.4880 0.8523
H31_23 H 0.6316 0.5120 0.8523
H32_23 H 0.3684 0.5120 0.8523
H33_23 H 0.3684 0.4880 0.8523
C52_23 C 0.46543(16) 0.33620(13) 0.6262(2)
C53_23 C 0.46543(16) 0.66380(13) 0.6262(2)
C54_23 C 0.53457(16) 0.66380(13) 0.6262(2)
C55_23 C 0.66380(13) 0.46543(16) 0.8738(2)
C56_23 C 0.66380(13) 0.53457(16) 0.8738(2)
C57_23 C 0.33620(13) 0.53457(16) 0.8738(2)
C58_23 C 0.33620(13) 0.46543(16) 0.8738(2)
H34_23 H 0.4807 0.3310 0.6131
H35_23 H 0.4807 0.6690 0.6131
H36_23 H 0.5193 0.6690 0.6131
H37_23 H 0.6690 0.4807 0.8869
H38_23 H 0.6690 0.5193 0.8869
H39_23 H 0.3310 0.5193 0.8869
H40_23 H 0.3310 0.4807 0.8869
C59_23 C 0.47513(7) 0.39760(10) 0.70057(7)
C60_23 C 0.47513(7) 0.60240(10) 0.70057(7)
C61_23 C 0.52487(7) 0.60240(10) 0.70057(7)
C62_23 C 0.60240(10) 0.47513(7) 0.79943(7)
C63_23 C 0.60240(10) 0.52487(7) 0.79943(7)
C64_23 C 0.39760(10) 0.52487(7) 0.79943(7)
C65_23 C 0.39760(10) 0.47513(7) 0.79943(7)
C66_35 C 0.49999(10) 0.57117(15) 0.73260(10)
C67_35 C 0.57117(15) 0.49999(10) 0.76740(10)
C68_35 C 0.42883(15) 0.50001(10) 0.76740(10)
Na1_54 Na 0.5000 0.5000 0.2500
O3_36 O 0.50000(10) 0.5518 0.24822(11)
O4_54 O 0.5000(3) 0.5000 0.1964
N1_24 N 0.54994(15) 0.61201(14) 0.30960(15)
H1_24 H 0.5661 0.6052 0.3017
N2_36 N 0.50000(17) 0.6131 0.31094(19)
C1_24 C 0.5644(2) 0.7039(2) 0.3968(2)
C2_24 C 0.56151(14) 0.67842(12) 0.37513(13)
C3_24 C 0.58406(12) 0.67078(11) 0.35578(11)
H2_24 H 0.6023 0.6807 0.3567
C4_24 C 0.57967(12) 0.64851(9) 0.33512(12)
H3_24 H 0.5949 0.6433 0.3220
C5_24 C 0.55273(7) 0.63388(8) 0.33383(7)
C6_24 C 0.53018(12) 0.64152(10) 0.35318(16)
H4_24 H 0.5120 0.6316 0.3523
C7_24 C 0.53457(16) 0.66380(13) 0.3738(2)
H5_24 H 0.5193 0.6690 0.3869
C8_24 C 0.52487(7) 0.60240(10) 0.29943(7)
C9_36 C 0.50001(10) 0.57117(15) 0.26740(10)
O27_36 O 0.50000(10) 0.4482 0.24822(11)
O28_36 O 0.5518 0.50000(10) 0.25178(11)
O29_36 O 0.4482 0.50000(10) 0.25178(11)
O30_54 O 0.5000 0.5000(3) 0.3036
N4_24 N 0.45006(15) 0.61201(14) 0.30960(15)
N5_24 N 0.45006(15) 0.38799(14) 0.30960(15)
N6_24 N 0.54994(15) 0.38799(14) 0.30960(15)
N7_24 N 0.61201(14) 0.54994(15) 0.19040(15)
N8_24 N 0.61201(14) 0.45006(15) 0.19040(15)
N9_24 N 0.38799(14) 0.45006(15) 0.19040(15)
N10_24 N 0.38799(14) 0.54994(15) 0.19040(15)
H6_24 H 0.4339 0.6052 0.3017
H7_24 H 0.4339 0.3948 0.3017
H8_24 H 0.5661 0.3948 0.3017
H9_24 H 0.6052 0.5661 0.1983
H10_24 H 0.6052 0.4339 0.1983
H11_24 H 0.3948 0.4339 0.1983
H12_24 H 0.3948 0.5661 0.1983
N11_36 N 0.50000(17) 0.3869 0.31094(19)
N12_36 N 0.6131 0.50000(17) 0.18906(19)
N13_36 N 0.3869 0.50000(17) 0.18906(19)
C10_24 C 0.4356(2) 0.7039(2) 0.3968(2)
C11_24 C 0.4356(2) 0.2961(2) 0.3968(2)
C12_24 C 0.5644(2) 0.2961(2) 0.3968(2)
C13_24 C 0.7039(2) 0.5644(2) 0.1032(2)
C14_24 C 0.7039(2) 0.4356(2) 0.1032(2)
C15_24 C 0.2961(2) 0.4356(2) 0.1032(2)
C16_24 C 0.2961(2) 0.5644(2) 0.1032(2)
C17_24 C 0.43849(14) 0.67842(12) 0.37513(13)
C18_24 C 0.43849(14) 0.32158(12) 0.37513(13)
C19_24 C 0.56151(14) 0.32158(12) 0.37513(13)
C20_24 C 0.67842(12) 0.56151(14) 0.12487(13)
C21_24 C 0.67842(12) 0.43849(14) 0.12487(13)
C22_24 C 0.32158(12) 0.43849(14) 0.12487(13)
C23_24 C 0.32158(12) 0.56151(14) 0.12487(13)
C24_24 C 0.41594(12) 0.67078(11) 0.35578(11)
C25_24 C 0.41594(12) 0.32922(11) 0.35578(11)
C26_24 C 0.58406(12) 0.32922(11) 0.35578(11)
C27_24 C 0.67078(11) 0.58406(12) 0.14422(11)
C28_24 C 0.67078(11) 0.41594(12) 0.14422(11)
C29_24 C 0.32922(11) 0.41594(12) 0.14422(11)
C30_24 C 0.32922(11) 0.58406(12) 0.14422(11)
H13_24 H 0.3977 0.6807 0.3567
H14_24 H 0.3977 0.3193 0.3567
H15_24 H 0.6023 0.3193 0.3567
H16_24 H 0.6807 0.6023 0.1433
H17_24 H 0.6807 0.3977 0.1433
H18_24 H 0.3193 0.3977 0.1433
H19_24 H 0.3193 0.6023 0.1433
C31_24 C 0.42033(12) 0.64851(9) 0.33512(12)
C32_24 C 0.42033(12) 0.35149(9) 0.33512(12)
C33_24 C 0.57967(12) 0.35149(9) 0.33512(12)
C34_24 C 0.64851(9) 0.57967(12) 0.16488(12)
C35_24 C 0.64851(9) 0.42033(12) 0.16488(12)
C36_24 C 0.35149(9) 0.42033(12) 0.16488(12)
C37_24 C 0.35149(9) 0.57967(12) 0.16488(12)
H20_24 H 0.4051 0.6433 0.3220
H21_24 H 0.4051 0.3567 0.3220
H22_24 H 0.5949 0.3567 0.3220
H23_24 H 0.6433 0.5949 0.1780
H24_24 H 0.6433 0.4051 0.1780
H25_24 H 0.3567 0.4051 0.1780
H26_24 H 0.3567 0.5949 0.1780
C38_24 C 0.44727(7) 0.63388(8) 0.33383(7)
C39_24 C 0.44727(7) 0.36612(8) 0.33383(7)
C40_24 C 0.55273(7) 0.36612(8) 0.33383(7)
C41_24 C 0.63388(8) 0.55273(7) 0.16617(7)
C42_24 C 0.63388(8) 0.44727(7) 0.16617(7)
C43_24 C 0.36612(8) 0.44727(7) 0.16617(7)
C44_24 C 0.36612(8) 0.55273(7) 0.16617(7)
C45_24 C 0.46982(12) 0.64152(10) 0.35318(16)
C46_24 C 0.46982(12) 0.35848(10) 0.35318(16)
C47_24 C 0.53018(12) 0.35848(10) 0.35318(16)
C48_24 C 0.64152(10) 0.53018(12) 0.14682(16)
C49_24 C 0.64152(10) 0.46982(12) 0.14682(16)
C50_24 C 0.35848(10) 0.46982(12) 0.14682(16)
C51_24 C 0.35848(10) 0.53018(12) 0.14682(16)
H27_24 H 0.4880 0.6316 0.3523
H28_24 H 0.4880 0.3684 0.3523
H29_24 H 0.5120 0.3684 0.3523
H30_24 H 0.6316 0.5120 0.1477
H31_24 H 0.6316 0.4880 0.1477
H32_24 H 0.3684 0.4880 0.1477
H33_24 H 0.3684 0.5120 0.1477
C52_24 C 0.46543(16) 0.66380(13) 0.3738(2)
C53_24 C 0.46543(16) 0.33620(13) 0.3738(2)
C54_24 C 0.53457(16) 0.33620(13) 0.3738(2)
C55_24 C 0.66380(13) 0.53457(16) 0.1262(2)
C56_24 C 0.66380(13) 0.46543(16) 0.1262(2)
C57_24 C 0.33620(13) 0.46543(16) 0.1262(2)
C58_24 C 0.33620(13) 0.53457(16) 0.1262(2)
H34_24 H 0.4807 0.6690 0.3869
H35_24 H 0.4807 0.3310 0.3869
H36_24 H 0.5193 0.3310 0.3869
H37_24 H 0.6690 0.5193 0.1131
H38_24 H 0.6690 0.4807 0.1131
H39_24 H 0.3310 0.4807 0.1131
H40_24 H 0.3310 0.5193 0.1131
C59_24 C 0.47513(7) 0.60240(10) 0.29943(7)
C60_24 C 0.47513(7) 0.39760(10) 0.29943(7)
C61_24 C 0.52487(7) 0.39760(10) 0.29943(7)
C62_24 C 0.60240(10) 0.52487(7) 0.20057(7)
C63_24 C 0.60240(10) 0.47513(7) 0.20057(7)
C64_24 C 0.39760(10) 0.47513(7) 0.20057(7)
C65_24 C 0.39760(10) 0.52487(7) 0.20057(7)
C66_36 C 0.49999(10) 0.42883(15) 0.26740(10)
C67_36 C 0.57117(15) 0.50001(10) 0.23260(10)
C68_36 C 0.42883(15) 0.49999(10) 0.23260(10)
loop_
_geom_bond_atom_site_label_1
_geom_bond_atom_site_label_2
_geom_bond_site_symmetry_1
_geom_bond_site_symmetry_2
Cd1 O1 1_555 1_555
Na1 O3 1_555 1_555
O1 C1 1_555 1_555
O2 Cd1 1_555 1_555
O3 C9 1_555 1_555
O4 Na1 1_555 1_555
N1 H1 1_555 1_555
N2 C8 1_555 1_555
N3 C8 1_555 1_555
C1 O2 1_555 1_555
C2 C1 1_555 1_555
C3 C2 1_555 1_555
H2 C3 1_555 1_555
C4 C3 1_555 1_555
H3 C4 1_555 1_555
C5 N1 1_555 1_555
C6 C5 1_555 1_555
H4 C6 1_555 1_555
C7 C2 1_555 1_555
H5 C7 1_555 1_555
C8 N1 1_555 1_555
C9 N3 1_555 1_555
Cd5 N3 1_555 1_555
Cd9 O8 1_555 1_555
O8 C13 1_555 1_555
O12 Cd1 1_555 1_555
O19 Cd9 1_555 1_555
O23 Cd1 1_555 1_555
O28 Na1 1_555 1_555
O30 Na1 1_555 1_555
N7 H9 1_555 1_555
N12 C62 1_555 1_555
N17 Cd5 1_555 1_555
N21 Cd1 1_555 1_555
N22 Cd1 1_555 1_555
C13 O19 1_555 1_555
C20 C13 1_555 1_555
C27 C20 1_555 1_555
H16 C27 1_555 1_555
C34 C27 1_555 1_555
H23 C34 1_555 1_555
C41 N7 1_555 1_555
C48 C41 1_555 1_555
H30 C48 1_555 1_555
C55 C20 1_555 1_555
H37 C55 1_555 1_555
C62 N7 1_555 1_555
C67 O28 1_555 1_555
C4 C5 1_555 1_555
C6 C7 1_555 1_555
N17 C62 1_555 1_555
N17 C67 1_555 1_555
C34 C41 1_555 1_555
C48 C55 1_555 1_555
O4_2 Na1_2 1_555 1_555
Cd4 O7 1_555 1_555
Cd8 N16 1_555 1_555
Cd10 O9 1_555 1_555
O7 C12 1_555 1_555
O9 C14 1_555 1_555
O15 Cd4 1_555 1_555
O18 Cd4 1_555 1_555
O20 Cd10 1_555 1_555
O26 Cd4 1_555 1_555
O27 Na1_2 1_555 1_555
O28_2 Na1_2 1_555 1_555
O30_2 Na1_2 1_555 1_555
N6 H8 1_555 1_555
N8 H10 1_555 1_555
N16 C61 1_555 1_555
N18 Cd8 1_555 1_555
N27 Cd4 1_555 1_555
N28 Cd4 1_555 1_555
C12 O18 1_555 1_555
C14 O20 1_555 1_555
C19 C12 1_555 1_555
C21 C14 1_555 1_555
C26 C19 1_555 1_555
C28 C21 1_555 1_555
H15 C26 1_555 1_555
H17 C28 1_555 1_555
C33 C26 1_555 1_555
C35 C28 1_555 1_555
H22 C33 1_555 1_555
H24 C35 1_555 1_555
C40 N6 1_555 1_555
C42 N8 1_555 1_555
C47 C40 1_555 1_555
C49 C42 1_555 1_555
H29 C47 1_555 1_555
H31 C49 1_555 1_555
C54 C19 1_555 1_555
C56 C21 1_555 1_555
H36 C54 1_555 1_555
H38 C56 1_555 1_555
C61 N6 1_555 1_555
C63 N8 1_555 1_555
C66 O27 1_555 1_555
C67_2 O28_2 1_555 1_555
N11 C61 1_555 1_555
N12_2 C63 1_555 1_555
N16 C66 1_555 1_555
N18 C63 1_555 1_555
N18 C67_2 1_555 1_555
C33 C40 1_555 1_555
C35 C42 1_555 1_555
C47 C54 1_555 1_555
C49 C56 1_555 1_555
Na1_3 O3_2 1_555 1_555
O3_2 C9_2 1_555 1_555
O4_3 Na1_3 1_555 1_555
Cd2 O5 1_555 1_555
Cd6 N14 1_555 1_555
Cd12 O11 1_555 1_555
O5 C10 1_555 1_555
O11 C16 1_555 1_555
O13 Cd2 1_555 1_555
O16 Cd2 1_555 1_555
O22 Cd12 1_555 1_555
O24 Cd2 1_555 1_555
O29 Na1_3 1_555 1_555
O30_3 Na1_3 1_555 1_555
N4 H6 1_555 1_555
N10 H12 1_555 1_555
N14 C9_2 1_555 1_555
N20 Cd6 1_555 1_555
N23 Cd2 1_555 1_555
N24 Cd2 1_555 1_555
C10 O16 1_555 1_555
C16 O22 1_555 1_555
C17 C10 1_555 1_555
C23 C16 1_555 1_555
C24 C17 1_555 1_555
C30 C23 1_555 1_555
H13 C24 1_555 1_555
H19 C30 1_555 1_555
C31 C24 1_555 1_555
C37 C30 1_555 1_555
H20 C31 1_555 1_555
H26 C37 1_555 1_555
C38 N4 1_555 1_555
C44 N10 1_555 1_555
C45 C38 1_555 1_555
C51 C44 1_555 1_555
H27 C45 1_555 1_555
H33 C51 1_555 1_555
C52 C17 1_555 1_555
C58 C23 1_555 1_555
H34 C52 1_555 1_555
H40 C58 1_555 1_555
C59 N2_2 1_555 1_555
C65 N10 1_555 1_555
C68 O29 1_555 1_555
N4 C59 1_555 1_555
N13 C65 1_555 1_555
N14 C59 1_555 1_555
N20 C65 1_555 1_555
N20 C68 1_555 1_555
C31 C38 1_555 1_555
C37 C44 1_555 1_555
C45 C52 1_555 1_555
C51 C58 1_555 1_555
O4_4 Na1_4 1_555 1_555
Cd3 O6 1_555 1_555
Cd7 N15 1_555 1_555
Cd11 O10 1_555 1_555
O6 C11 1_555 1_555
O10 C15 1_555 1_555
O14 Cd3 1_555 1_555
O17 Cd3 1_555 1_555
O21 Cd11 1_555 1_555
O25 Cd3 1_555 1_555
O27_2 Na1_4 1_555 1_555
O29_2 Na1_4 1_555 1_555
O30_4 Na1_4 1_555 1_555
N5 H7 1_555 1_555
N9 H11 1_555 1_555
N11_2 C60 1_555 1_555
N13_2 C64 1_555 1_555
N15 C60 1_555 1_555
N19 Cd7 1_555 1_555
N25 Cd3 1_555 1_555
N26 Cd3 1_555 1_555
C11 O17 1_555 1_555
C15 O21 1_555 1_555
C18 C11 1_555 1_555
C22 C15 1_555 1_555
C25 C18 1_555 1_555
C29 C22 1_555 1_555
H14 C25 1_555 1_555
H18 C29 1_555 1_555
C32 C25 1_555 1_555
C36 C29 1_555 1_555
H21 C32 1_555 1_555
H25 C36 1_555 1_555
C39 N5 1_555 1_555
C43 N9 1_555 1_555
C46 C39 1_555 1_555
C50 C43 1_555 1_555
H28 C46 1_555 1_555
H32 C50 1_555 1_555
C53 C18 1_555 1_555
C57 C22 1_555 1_555
H35 C53 1_555 1_555
H39 C57 1_555 1_555
C60 N5 1_555 1_555
C64 N9 1_555 1_555
C66_2 O27_2 1_555 1_555
C68_2 O29_2 1_555 1_555
N15 C66_2 1_555 1_555
N19 C64 1_555 1_555
N19 C68_2 1_555 1_555
C32 C39 1_555 1_555
C36 C43 1_555 1_555
C46 C53 1_555 1_555
C50 C57 1_555 1_555
Na1_5 O3_3 1_555 1_555
O14 C1_2 1_555 1_555
O3_3 C9_3 1_555 1_555
O4_5 Na1_5 1_555 1_555
N1_2 H1_2 1_555 1_555
N2_3 C8_2 1_555 1_555
N3_2 C8_2 1_555 1_555
C1_2 O25 1_555 1_555
C2_2 C1_2 1_555 1_555
C3_2 C2_2 1_555 1_555
H2_2 C3_2 1_555 1_555
C4_2 C3_2 1_555 1_555
H3_2 C4_2 1_555 1_555
C5_2 N1_2 1_555 1_555
C6_2 C5_2 1_555 1_555
H4_2 C6_2 1_555 1_555
C7_2 C2_2 1_555 1_555
H5_2 C7_2 1_555 1_555
C8_2 N1_2 1_555 1_555
C9_3 N3_2 1_555 1_555
Cd5_2 N3_2 1_555 1_555
Cd8_2 N16_2 1_555 1_555
Cd9_2 O8_2 1_555 1_555
Cd10_2 O9_2 1_555 1_555
O13 C12_2 1_555 1_555
O8_2 C13_2 1_555 1_555
O9_2 C14_2 1_555 1_555
O19_2 Cd9_2 1_555 1_555
O20_2 Cd10_2 1_555 1_555
O27_3 Na1_5 1_555 1_555
O28_3 Na1_5 1_555 1_555
O30_5 Na1_5 1_555 1_555
N6_2 H8_2 1_555 1_555
N7_2 H9_2 1_555 1_555
N8_2 H10_2 1_555 1_555
N12_3 C62_2 1_555 1_555
N16_2 C61_2 1_555 1_555
N17_2 Cd5_2 1_555 1_555
N18_2 Cd8_2 1_555 1_555
C12_2 O24 1_555 1_555
C13_2 O19_2 1_555 1_555
C14_2 O20_2 1_555 1_555
C19_2 C12_2 1_555 1_555
C20_2 C13_2 1_555 1_555
C21_2 C14_2 1_555 1_555
C26_2 C19_2 1_555 1_555
C27_2 C20_2 1_555 1_555
C28_2 C21_2 1_555 1_555
H15_2 C26_2 1_555 1_555
H16_2 C27_2 1_555 1_555
H17_2 C28_2 1_555 1_555
C33_2 C26_2 1_555 1_555
C34_2 C27_2 1_555 1_555
C35_2 C28_2 1_555 1_555
H22_2 C33_2 1_555 1_555
H23_2 C34_2 1_555 1_555
H24_2 C35_2 1_555 1_555
C40_2 N6_2 1_555 1_555
C41_2 N7_2 1_555 1_555
C42_2 N8_2 1_555 1_555
C47_2 C40_2 1_555 1_555
C48_2 C41_2 1_555 1_555
C49_2 C42_2 1_555 1_555
H29_2 C47_2 1_555 1_555
H30_2 C48_2 1_555 1_555
H31_2 C49_2 1_555 1_555
C54_2 C19_2 1_555 1_555
C55_2 C20_2 1_555 1_555
C56_2 C21_2 1_555 1_555
H36_2 C54_2 1_555 1_555
H37_2 C55_2 1_555 1_555
H38_2 C56_2 1_555 1_555
C61_2 N6_2 1_555 1_555
C62_2 N7_2 1_555 1_555
C63_2 N8_2 1_555 1_555
C66_3 O27_3 1_555 1_555
C67_3 O28_3 1_555 1_555
C4_2 C5_2 1_555 1_555
C6_2 C7_2 1_555 1_555
N11_3 C61_2 1_555 1_555
N12_3 C63_2 1_555 1_555
N16_2 C66_3 1_555 1_555
N17_2 C62_2 1_555 1_555
N17_2 C67_3 1_555 1_555
N18_2 C63_2 1_555 1_555
N18_2 C67_3 1_555 1_555
C33_2 C40_2 1_555 1_555
C34_2 C41_2 1_555 1_555
C35_2 C42_2 1_555 1_555
C47_2 C54_2 1_555 1_555
C48_2 C55_2 1_555 1_555
C49_2 C56_2 1_555 1_555
Na1_6 O3_4 1_555 1_555
O3_4 C9_4 1_555 1_555
O4_6 Na1_6 1_555 1_555
Cd2_2 O5_2 1_555 1_555
Cd3_2 O6_2 1_555 1_555
Cd6_2 N14_2 1_555 1_555
Cd7_2 N15_2 1_555 1_555
Cd11_2 O10_2 1_555 1_555
Cd12_2 O11_2 1_555 1_555
O5_2 C10_2 1_555 1_555
O6_2 C11_2 1_555 1_555
O10_2 C15_2 1_555 1_555
O11_2 C16_2 1_555 1_555
O13_2 Cd2_2 1_555 1_555
O14_2 Cd3_2 1_555 1_555
O16_2 Cd2_2 1_555 1_555
O17_2 Cd3_2 1_555 1_555
O21_2 Cd11_2 1_555 1_555
O22_2 Cd12_2 1_555 1_555
O24_2 Cd2_2 1_555 1_555
O25_2 Cd3_2 1_555 1_555
O27_4 Na1_6 1_555 1_555
O29_3 Na1_6 1_555 1_555
O30_6 Na1_6 1_555 1_555
N4_2 H6_2 1_555 1_555
N5_2 H7_2 1_555 1_555
N9_2 H11_2 1_555 1_555
N10_2 H12_2 1_555 1_555
N11_4 C60_2 1_555 1_555
N13_3 C64_2 1_555 1_555
N14_2 C9_4 1_555 1_555
N15_2 C60_2 1_555 1_555
N19_2 Cd7_2 1_555 1_555
N20_2 Cd6_2 1_555 1_555
N23_2 Cd2_2 1_555 1_555
N24_2 Cd2_2 1_555 1_555
N25_2 Cd3_2 1_555 1_555
N26_2 Cd3_2 1_555 1_555
C10_2 O16_2 1_555 1_555
C11_2 O17_2 1_555 1_555
C15_2 O21_2 1_555 1_555
C16_2 O22_2 1_555 1_555
C17_2 C10_2 1_555 1_555
C18_2 C11_2 1_555 1_555
C22_2 C15_2 1_555 1_555
C23_2 C16_2 1_555 1_555
C24_2 C17_2 1_555 1_555
C25_2 C18_2 1_555 1_555
C29_2 C22_2 1_555 1_555
C30_2 C23_2 1_555 1_555
H13_2 C24_2 1_555 1_555
H14_2 C25_2 1_555 1_555
H18_2 C29_2 1_555 1_555
H19_2 C30_2 1_555 1_555
C31_2 C24_2 1_555 1_555
C32_2 C25_2 1_555 1_555
C36_2 C29_2 1_555 1_555
C37_2 C30_2 1_555 1_555
H20_2 C31_2 1_555 1_555
H21_2 C32_2 1_555 1_555
H25_2 C36_2 1_555 1_555
H26_2 C37_2 1_555 1_555
C38_2 N4_2 1_555 1_555
C39_2 N5_2 1_555 1_555
C43_2 N9_2 1_555 1_555
C44_2 N10_2 1_555 1_555
C45_2 C38_2 1_555 1_555
C46_2 C39_2 1_555 1_555
C50_2 C43_2 1_555 1_555
C51_2 C44_2 1_555 1_555
H27_2 C45_2 1_555 1_555
H28_2 C46_2 1_555 1_555
H32_2 C50_2 1_555 1_555
H33_2 C51_2 1_555 1_555
C52_2 C17_2 1_555 1_555
C53_2 C18_2 1_555 1_555
C57_2 C22_2 1_555 1_555
C58_2 C23_2 1_555 1_555
H34_2 C52_2 1_555 1_555
H35_2 C53_2 1_555 1_555
H39_2 C57_2 1_555 1_555
H40_2 C58_2 1_555 1_555
C59_2 N2_4 1_555 1_555
C60_2 N5_2 1_555 1_555
C64_2 N9_2 1_555 1_555
C65_2 N10_2 1_555 1_555
C66_4 O27_4 1_555 1_555
C68_3 O29_3 1_555 1_555
N4_2 C59_2 1_555 1_555
N13_3 C65_2 1_555 1_555
N14_2 C59_2 1_555 1_555
N15_2 C66_4 1_555 1_555
N19_2 C64_2 1_555 1_555
N19_2 C68_3 1_555 1_555
N20_2 C65_2 1_555 1_555
N20_2 C68_3 1_555 1_555
C31_2 C38_2 1_555 1_555
C32_2 C39_2 1_555 1_555
C36_2 C43_2 1_555 1_555
C37_2 C44_2 1_555 1_555
C45_2 C52_2 1_555 1_555
C46_2 C53_2 1_555 1_555
C50_2 C57_2 1_555 1_555
C51_2 C58_2 1_555 1_555
Na1_7 O3_5 1_555 1_555
O3_5 C9_5 1_555 1_555
O4_7 Na1_7 1_555 1_555
Cd2_3 O5_3 1_555 1_555
Cd6_3 N14_3 1_555 1_555
Cd12_3 O11_3 1_555 1_555
O5_3 C10_3 1_555 1_555
O11_3 C16_3 1_555 1_555
O13_3 Cd2_3 1_555 1_555
O16_3 Cd2_3 1_555 1_555
O22_3 Cd12_3 1_555 1_555
O24_3 Cd2_3 1_555 1_555
O29_4 Na1_7 1_555 1_555
O30_7 Na1_7 1_555 1_555
N4_3 H6_3 1_555 1_555
N10_3 H12_3 1_555 1_555
N14_3 C9_5 1_555 1_555
N20_3 Cd6_3 1_555 1_555
N23_3 Cd2_3 1_555 1_555
N24_3 Cd2_3 1_555 1_555
C10_3 O16_3 1_555 1_555
C16_3 O22_3 1_555 1_555
C17_3 C10_3 1_555 1_555
C23_3 C16_3 1_555 1_555
C24_3 C17_3 1_555 1_555
C30_3 C23_3 1_555 1_555
H13_3 C24_3 1_555 1_555
H19_3 C30_3 1_555 1_555
C31_3 C24_3 1_555 1_555
C37_3 C30_3 1_555 1_555
H20_3 C31_3 1_555 1_555
H26_3 C37_3 1_555 1_555
C38_3 N4_3 1_555 1_555
C44_3 N10_3 1_555 1_555
C45_3 C38_3 1_555 1_555
C51_3 C44_3 1_555 1_555
H27_3 C45_3 1_555 1_555
H33_3 C51_3 1_555 1_555
C52_3 C17_3 1_555 1_555
C58_3 C23_3 1_555 1_555
H34_3 C52_3 1_555 1_555
H40_3 C58_3 1_555 1_555
C59_3 N2_5 1_555 1_555
C65_3 N10_3 1_555 1_555
C68_4 O29_4 1_555 1_555
N4_3 C59_3 1_555 1_555
N13_4 C65_3 1_555 1_555
N14_3 C59_3 1_555 1_555
N20_3 C65_3 1_555 1_555
N20_3 C68_4 1_555 1_555
C31_3 C38_3 1_555 1_555
C37_3 C44_3 1_555 1_555
C45_3 C52_3 1_555 1_555
C51_3 C58_3 1_555 1_555
O4_8 Na1_8 1_555 1_555
Cd3_3 O6_3 1_555 1_555
Cd7_3 N15_3 1_555 1_555
Cd11_3 O10_3 1_555 1_555
O6_3 C11_3 1_555 1_555
O10_3 C15_3 1_555 1_555
O14_3 Cd3_3 1_555 1_555
O17_3 Cd3_3 1_555 1_555
O21_3 Cd11_3 1_555 1_555
O25_3 Cd3_3 1_555 1_555
O27_5 Na1_8 1_555 1_555
O29_5 Na1_8 1_555 1_555
O30_8 Na1_8 1_555 1_555
N5_3 H7_3 1_555 1_555
N9_3 H11_3 1_555 1_555
N11_5 C60_3 1_555 1_555
N13_5 C64_3 1_555 1_555
N15_3 C60_3 1_555 1_555
N19_3 Cd7_3 1_555 1_555
N25_3 Cd3_3 1_555 1_555
N26_3 Cd3_3 1_555 1_555
C11_3 O17_3 1_555 1_555
C15_3 O21_3 1_555 1_555
C18_3 C11_3 1_555 1_555
C22_3 C15_3 1_555 1_555
C25_3 C18_3 1_555 1_555
C29_3 C22_3 1_555 1_555
H14_3 C25_3 1_555 1_555
H18_3 C29_3 1_555 1_555
C32_3 C25_3 1_555 1_555
C36_3 C29_3 1_555 1_555
H21_3 C32_3 1_555 1_555
H25_3 C36_3 1_555 1_555
C39_3 N5_3 1_555 1_555
C43_3 N9_3 1_555 1_555
C46_3 C39_3 1_555 1_555
C50_3 C43_3 1_555 1_555
H28_3 C46_3 1_555 1_555
H32_3 C50_3 1_555 1_555
C53_3 C18_3 1_555 1_555
C57_3 C22_3 1_555 1_555
H35_3 C53_3 1_555 1_555
H39_3 C57_3 1_555 1_555
C60_3 N5_3 1_555 1_555
C64_3 N9_3 1_555 1_555
C66_5 O27_5 1_555 1_555
C68_5 O29_5 1_555 1_555
N15_3 C66_5 1_555 1_555
N19_3 C64_3 1_555 1_555
N19_3 C68_5 1_555 1_555
C32_3 C39_3 1_555 1_555
C36_3 C43_3 1_555 1_555
C46_3 C53_3 1_555 1_555
C50_3 C57_3 1_555 1_555
Na1_9 O3_6 1_555 1_555
O14_2 C1_3 1_555 1_555
O3_6 C9_6 1_555 1_555
O4_9 Na1_9 1_555 1_555
N1_3 H1_3 1_555 1_555
N2_6 C8_3 1_555 1_555
N3_3 C8_3 1_555 1_555
C1_3 O25_2 1_555 1_555
C2_3 C1_3 1_555 1_555
C3_3 C2_3 1_555 1_555
H2_3 C3_3 1_555 1_555
C4_3 C3_3 1_555 1_555
H3_3 C4_3 1_555 1_555
C5_3 N1_3 1_555 1_555
C6_3 C5_3 1_555 1_555
H4_3 C6_3 1_555 1_555
C7_3 C2_3 1_555 1_555
H5_3 C7_3 1_555 1_555
C8_3 N1_3 1_555 1_555
C9_6 N3_3 1_555 1_555
Cd5_3 N3_3 1_555 1_555
Cd9_3 O8_3 1_555 1_555
O8_3 C13_3 1_555 1_555
O19_3 Cd9_3 1_555 1_555
O28_4 Na1_9 1_555 1_555
O30_9 Na1_9 1_555 1_555
N7_3 H9_3 1_555 1_555
N12_4 C62_3 1_555 1_555
N17_3 Cd5_3 1_555 1_555
C13_3 O19_3 1_555 1_555
C20_3 C13_3 1_555 1_555
C27_3 C20_3 1_555 1_555
H16_3 C27_3 1_555 1_555
C34_3 C27_3 1_555 1_555
H23_3 C34_3 1_555 1_555
C41_3 N7_3 1_555 1_555
C48_3 C41_3 1_555 1_555
H30_3 C48_3 1_555 1_555
C55_3 C20_3 1_555 1_555
H37_3 C55_3 1_555 1_555
C62_3 N7_3 1_555 1_555
C67_4 O28_4 1_555 1_555
C4_3 C5_3 1_555 1_555
C6_3 C7_3 1_555 1_555
N17_3 C62_3 1_555 1_555
N17_3 C67_4 1_555 1_555
C34_3 C41_3 1_555 1_555
C48_3 C55_3 1_555 1_555
O4_10 Na1_10 1_555 1_555
Cd8_3 N16_3 1_555 1_555
Cd10_3 O9_3 1_555 1_555
O13_2 C12_3 1_555 1_555
O9_3 C14_3 1_555 1_555
O20_3 Cd10_3 1_555 1_555
O27_6 Na1_10 1_555 1_555
O28_5 Na1_10 1_555 1_555
O30_10 Na1_10 1_555 1_555
N6_3 H8_3 1_555 1_555
N8_3 H10_3 1_555 1_555
N16_3 C61_3 1_555 1_555
N18_3 Cd8_3 1_555 1_555
C12_3 O24_2 1_555 1_555
C14_3 O20_3 1_555 1_555
C19_3 C12_3 1_555 1_555
C21_3 C14_3 1_555 1_555
C26_3 C19_3 1_555 1_555
C28_3 C21_3 1_555 1_555
H15_3 C26_3 1_555 1_555
H17_3 C28_3 1_555 1_555
C33_3 C26_3 1_555 1_555
C35_3 C28_3 1_555 1_555
H22_3 C33_3 1_555 1_555
H24_3 C35_3 1_555 1_555
C40_3 N6_3 1_555 1_555
C42_3 N8_3 1_555 1_555
C47_3 C40_3 1_555 1_555
C49_3 C42_3 1_555 1_555
H29_3 C47_3 1_555 1_555
H31_3 C49_3 1_555 1_555
C54_3 C19_3 1_555 1_555
C56_3 C21_3 1_555 1_555
H36_3 C54_3 1_555 1_555
H38_3 C56_3 1_555 1_555
C61_3 N6_3 1_555 1_555
C63_3 N8_3 1_555 1_555
C66_6 O27_6 1_555 1_555
C67_5 O28_5 1_555 1_555
N11_6 C61_3 1_555 1_555
N12_5 C63_3 1_555 1_555
N16_3 C66_6 1_555 1_555
N18_3 C63_3 1_555 1_555
N18_3 C67_5 1_555 1_555
C33_3 C40_3 1_555 1_555
C35_3 C42_3 1_555 1_555
C47_3 C54_3 1_555 1_555
C49_3 C56_3 1_555 1_555
Na1_11 O3_7 1_555 1_555
O3_7 C9_7 1_555 1_555
O4_11 Na1_11 1_555 1_555
Cd6_4 N14_4 1_555 1_555
Cd7_4 N15_4 1_555 1_555
Cd11_4 O10_4 1_555 1_555
Cd12_4 O11_4 1_555 1_555
O15 C10_4 1_555 1_555
O12 C11_4 1_555 1_555
O10_4 C15_4 1_555 1_555
O11_4 C16_4 1_555 1_555
O21_4 Cd11_4 1_555 1_555
O22_4 Cd12_4 1_555 1_555
O27_7 Na1_11 1_555 1_555
O29_6 Na1_11 1_555 1_555
O30_11 Na1_11 1_555 1_555
N4_4 H6_4 1_555 1_555
N5_4 H7_4 1_555 1_555
N9_4 H11_4 1_555 1_555
N10_4 H12_4 1_555 1_555
N11_7 C60_4 1_555 1_555
N13_6 C64_4 1_555 1_555
N14_4 C9_7 1_555 1_555
N15_4 C60_4 1_555 1_555
N19_4 Cd7_4 1_555 1_555
N20_4 Cd6_4 1_555 1_555
C10_4 O26 1_555 1_555
C11_4 O23 1_555 1_555
C15_4 O21_4 1_555 1_555
C16_4 O22_4 1_555 1_555
C17_4 C10_4 1_555 1_555
C18_4 C11_4 1_555 1_555
C22_4 C15_4 1_555 1_555
C23_4 C16_4 1_555 1_555
C24_4 C17_4 1_555 1_555
C25_4 C18_4 1_555 1_555
C29_4 C22_4 1_555 1_555
C30_4 C23_4 1_555 1_555
H13_4 C24_4 1_555 1_555
H14_4 C25_4 1_555 1_555
H18_4 C29_4 1_555 1_555
H19_4 C30_4 1_555 1_555
C31_4 C24_4 1_555 1_555
C32_4 C25_4 1_555 1_555
C36_4 C29_4 1_555 1_555
C37_4 C30_4 1_555 1_555
H20_4 C31_4 1_555 1_555
H21_4 C32_4 1_555 1_555
H25_4 C36_4 1_555 1_555
H26_4 C37_4 1_555 1_555
C38_4 N4_4 1_555 1_555
C39_4 N5_4 1_555 1_555
C43_4 N9_4 1_555 1_555
C44_4 N10_4 1_555 1_555
C45_4 C38_4 1_555 1_555
C46_4 C39_4 1_555 1_555
C50_4 C43_4 1_555 1_555
C51_4 C44_4 1_555 1_555
H27_4 C45_4 1_555 1_555
H28_4 C46_4 1_555 1_555
H32_4 C50_4 1_555 1_555
H33_4 C51_4 1_555 1_555
C52_4 C17_4 1_555 1_555
C53_4 C18_4 1_555 1_555
C57_4 C22_4 1_555 1_555
C58_4 C23_4 1_555 1_555
H34_4 C52_4 1_555 1_555
H35_4 C53_4 1_555 1_555
H39_4 C57_4 1_555 1_555
H40_4 C58_4 1_555 1_555
C59_4 N2_7 1_555 1_555
C60_4 N5_4 1_555 1_555
C64_4 N9_4 1_555 1_555
C65_4 N10_4 1_555 1_555
C66_7 O27_7 1_555 1_555
C68_6 O29_6 1_555 1_555
N4_4 C59_4 1_555 1_555
N13_6 C65_4 1_555 1_555
N14_4 C59_4 1_555 1_555
N15_4 C66_7 1_555 1_555
N19_4 C64_4 1_555 1_555
N19_4 C68_6 1_555 1_555
N20_4 C65_4 1_555 1_555
N20_4 C68_6 1_555 1_555
C31_4 C38_4 1_555 1_555
C32_4 C39_4 1_555 1_555
C36_4 C43_4 1_555 1_555
C37_4 C44_4 1_555 1_555
C45_4 C52_4 1_555 1_555
C46_4 C53_4 1_555 1_555
C50_4 C57_4 1_555 1_555
C51_4 C58_4 1_555 1_555
Na1_12 O3_8 1_555 1_555
O14_3 C1_4 1_555 1_555
O3_8 C9_8 1_555 1_555
O4_12 Na1_12 1_555 1_555
N1_4 H1_4 1_555 1_555
N2_8 C8_4 1_555 1_555
N3_4 C8_4 1_555 1_555
C1_4 O25_3 1_555 1_555
C2_4 C1_4 1_555 1_555
C3_4 C2_4 1_555 1_555
H2_4 C3_4 1_555 1_555
C4_4 C3_4 1_555 1_555
H3_4 C4_4 1_555 1_555
C5_4 N1_4 1_555 1_555
C6_4 C5_4 1_555 1_555
H4_4 C6_4 1_555 1_555
C7_4 C2_4 1_555 1_555
H5_4 C7_4 1_555 1_555
C8_4 N1_4 1_555 1_555
C9_8 N3_4 1_555 1_555
Cd5_4 N3_4 1_555 1_555
Cd8_4 N16_4 1_555 1_555
Cd9_4 O8_4 1_555 1_555
Cd10_4 O9_4 1_555 1_555
O13_3 C12_4 1_555 1_555
O8_4 C13_4 1_555 1_555
O9_4 C14_4 1_555 1_555
O19_4 Cd9_4 1_555 1_555
O20_4 Cd10_4 1_555 1_555
O27_8 Na1_12 1_555 1_555
O28_6 Na1_12 1_555 1_555
O30_12 Na1_12 1_555 1_555
N6_4 H8_4 1_555 1_555
N7_4 H9_4 1_555 1_555
N8_4 H10_4 1_555 1_555
N12_6 C62_4 1_555 1_555
N16_4 C61_4 1_555 1_555
N17_4 Cd5_4 1_555 1_555
N18_4 Cd8_4 1_555 1_555
C12_4 O24_3 1_555 1_555
C13_4 O19_4 1_555 1_555
C14_4 O20_4 1_555 1_555
C19_4 C12_4 1_555 1_555
C20_4 C13_4 1_555 1_555
C21_4 C14_4 1_555 1_555
C26_4 C19_4 1_555 1_555
C27_4 C20_4 1_555 1_555
C28_4 C21_4 1_555 1_555
H15_4 C26_4 1_555 1_555
H16_4 C27_4 1_555 1_555
H17_4 C28_4 1_555 1_555
C33_4 C26_4 1_555 1_555
C34_4 C27_4 1_555 1_555
C35_4 C28_4 1_555 1_555
H22_4 C33_4 1_555 1_555
H23_4 C34_4 1_555 1_555
H24_4 C35_4 1_555 1_555
C40_4 N6_4 1_555 1_555
C41_4 N7_4 1_555 1_555
C42_4 N8_4 1_555 1_555
C47_4 C40_4 1_555 1_555
C48_4 C41_4 1_555 1_555
C49_4 C42_4 1_555 1_555
H29_4 C47_4 1_555 1_555
H30_4 C48_4 1_555 1_555
H31_4 C49_4 1_555 1_555
C54_4 C19_4 1_555 1_555
C55_4 C20_4 1_555 1_555
C56_4 C21_4 1_555 1_555
H36_4 C54_4 1_555 1_555
H37_4 C55_4 1_555 1_555
H38_4 C56_4 1_555 1_555
C61_4 N6_4 1_555 1_555
C62_4 N7_4 1_555 1_555
C63_4 N8_4 1_555 1_555
C66_8 O27_8 1_555 1_555
C67_6 O28_6 1_555 1_555
C4_4 C5_4 1_555 1_555
C6_4 C7_4 1_555 1_555
N11_8 C61_4 1_555 1_555
N12_6 C63_4 1_555 1_555
N16_4 C66_8 1_555 1_555
N17_4 C62_4 1_555 1_555
N17_4 C67_6 1_555 1_555
N18_4 C63_4 1_555 1_555
N18_4 C67_6 1_555 1_555
C33_4 C40_4 1_555 1_555
C34_4 C41_4 1_555 1_555
C35_4 C42_4 1_555 1_555
C47_4 C54_4 1_555 1_555
C48_4 C55_4 1_555 1_555
C49_4 C56_4 1_555 1_555
O4_13 Na1_13 1_555 1_555
Cd4_2 O7_2 1_555 1_555
Cd10_5 O9_5 1_555 1_555
O7_2 C12_5 1_555 1_555
O9_5 C14_5 1_555 1_555
O15_2 Cd4_2 1_555 1_555
O18_2 Cd4_2 1_555 1_555
O20_5 Cd10_5 1_555 1_555
O26_2 Cd4_2 1_555 1_555
O27_9 Na1_13 1_555 1_555
O28_7 Na1_13 1_555 1_555
O30_13 Na1_13 1_555 1_555
N6_5 H8_5 1_555 1_555
N8_5 H10_5 1_555 1_555
N28 C61_5 1_555 1_555
N27_2 Cd4_2 1_555 1_555
N28_2 Cd4_2 1_555 1_555
C12_5 O18_2 1_555 1_555
C14_5 O20_5 1_555 1_555
C19_5 C12_5 1_555 1_555
C21_5 C14_5 1_555 1_555
C26_5 C19_5 1_555 1_555
C28_5 C21_5 1_555 1_555
H15_5 C26_5 1_555 1_555
H17_5 C28_5 1_555 1_555
C33_5 C26_5 1_555 1_555
C35_5 C28_5 1_555 1_555
H22_5 C33_5 1_555 1_555
H24_5 C35_5 1_555 1_555
C40_5 N6_5 1_555 1_555
C42_5 N8_5 1_555 1_555
C47_5 C40_5 1_555 1_555
C49_5 C42_5 1_555 1_555
H29_5 C47_5 1_555 1_555
H31_5 C49_5 1_555 1_555
C54_5 C19_5 1_555 1_555
C56_5 C21_5 1_555 1_555
H36_5 C54_5 1_555 1_555
H38_5 C56_5 1_555 1_555
C61_5 N6_5 1_555 1_555
C63_5 N8_5 1_555 1_555
C66_9 O27_9 1_555 1_555
C67_7 O28_7 1_555 1_555
N11_9 C61_5 1_555 1_555
N12_7 C63_5 1_555 1_555
N28 C66_9 1_555 1_555
N27 C63_5 1_555 1_555
N27 C67_7 1_555 1_555
C33_5 C40_5 1_555 1_555
C35_5 C42_5 1_555 1_555
C47_5 C54_5 1_555 1_555
C49_5 C56_5 1_555 1_555
Cd1_2 O1_2 1_555 1_555
Na1_14 O3_9 1_555 1_555
O1_2 C1_5 1_555 1_555
O2_2 Cd1_2 1_555 1_555
O3_9 C9_9 1_555 1_555
O4_14 Na1_14 1_555 1_555
N1_5 H1_5 1_555 1_555
N2_9 C8_5 1_555 1_555
N26_3 C8_5 1_555 1_555
C1_5 O2_2 1_555 1_555
C2_5 C1_5 1_555 1_555
C3_5 C2_5 1_555 1_555
H2_5 C3_5 1_555 1_555
C4_5 C3_5 1_555 1_555
H3_5 C4_5 1_555 1_555
C5_5 N1_5 1_555 1_555
C6_5 C5_5 1_555 1_555
H4_5 C6_5 1_555 1_555
C7_5 C2_5 1_555 1_555
H5_5 C7_5 1_555 1_555
C8_5 N1_5 1_555 1_555
C9_9 N26_3 1_555 1_555
Cd9_5 O8_5 1_555 1_555
O8_5 C13_5 1_555 1_555
O12_2 Cd1_2 1_555 1_555
O19_5 Cd9_5 1_555 1_555
O23_2 Cd1_2 1_555 1_555
O28_8 Na1_14 1_555 1_555
O30_14 Na1_14 1_555 1_555
N7_5 H9_5 1_555 1_555
N12_8 C62_5 1_555 1_555
N21_2 Cd1_2 1_555 1_555
N22_2 Cd1_2 1_555 1_555
C13_5 O19_5 1_555 1_555
C20_5 C13_5 1_555 1_555
C27_5 C20_5 1_555 1_555
H16_5 C27_5 1_555 1_555
C34_5 C27_5 1_555 1_555
H23_5 C34_5 1_555 1_555
C41_5 N7_5 1_555 1_555
C48_5 C41_5 1_555 1_555
H30_5 C48_5 1_555 1_555
C55_5 C20_5 1_555 1_555
H37_5 C55_5 1_555 1_555
C62_5 N7_5 1_555 1_555
C67_8 O28_8 1_555 1_555
C4_5 C5_5 1_555 1_555
C6_5 C7_5 1_555 1_555
N25_3 C62_5 1_555 1_555
N25_3 C67_8 1_555 1_555
C34_5 C41_5 1_555 1_555
C48_5 C55_5 1_555 1_555
O4_15 Na1_15 1_555 1_555
Cd3_4 O6_4 1_555 1_555
Cd11_5 O10_5 1_555 1_555
O6_4 C11_5 1_555 1_555
O10_5 C15_5 1_555 1_555
O14_4 Cd3_4 1_555 1_555
O17_4 Cd3_4 1_555 1_555
O21_5 Cd11_5 1_555 1_555
O25_4 Cd3_4 1_555 1_555
O27_10 Na1_15 1_555 1_555
O29_7 Na1_15 1_555 1_555
O30_15 Na1_15 1_555 1_555
N5_5 H7_5 1_555 1_555
N9_5 H11_5 1_555 1_555
N11_10 C60_5 1_555 1_555
N13_7 C64_5 1_555 1_555
N26 C60_5 1_555 1_555
N25_4 Cd3_4 1_555 1_555
N26_4 Cd3_4 1_555 1_555
C11_5 O17_4 1_555 1_555
C15_5 O21_5 1_555 1_555
C18_5 C11_5 1_555 1_555
C22_5 C15_5 1_555 1_555
C25_5 C18_5 1_555 1_555
C29_5 C22_5 1_555 1_555
H14_5 C25_5 1_555 1_555
H18_5 C29_5 1_555 1_555
C32_5 C25_5 1_555 1_555
C36_5 C29_5 1_555 1_555
H21_5 C32_5 1_555 1_555
H25_5 C36_5 1_555 1_555
C39_5 N5_5 1_555 1_555
C43_5 N9_5 1_555 1_555
C46_5 C39_5 1_555 1_555
C50_5 C43_5 1_555 1_555
H28_5 C46_5 1_555 1_555
H32_5 C50_5 1_555 1_555
C53_5 C18_5 1_555 1_555
C57_5 C22_5 1_555 1_555
H35_5 C53_5 1_555 1_555
H39_5 C57_5 1_555 1_555
C60_5 N5_5 1_555 1_555
C64_5 N9_5 1_555 1_555
C66_10 O27_10 1_555 1_555
C68_7 O29_7 1_555 1_555
N26 C66_10 1_555 1_555
N25 C64_5 1_555 1_555
N25 C68_7 1_555 1_555
C32_5 C39_5 1_555 1_555
C36_5 C43_5 1_555 1_555
C46_5 C53_5 1_555 1_555
C50_5 C57_5 1_555 1_555
Na1_16 O3_10 1_555 1_555
O3_10 C9_10 1_555 1_555
O4_16 Na1_16 1_555 1_555
Cd2_4 O5_4 1_555 1_555
Cd12_5 O11_5 1_555 1_555
O5_4 C10_5 1_555 1_555
O11_5 C16_5 1_555 1_555
O13_4 Cd2_4 1_555 1_555
O16_4 Cd2_4 1_555 1_555
O22_5 Cd12_5 1_555 1_555
O24_4 Cd2_4 1_555 1_555
O29_8 Na1_16 1_555 1_555
O30_16 Na1_16 1_555 1_555
N4_5 H6_5 1_555 1_555
N10_5 H12_5 1_555 1_555
N23_2 C9_10 1_555 1_555
N23_4 Cd2_4 1_555 1_555
N24_4 Cd2_4 1_555 1_555
C10_5 O16_4 1_555 1_555
C16_5 O22_5 1_555 1_555
C17_5 C10_5 1_555 1_555
C23_5 C16_5 1_555 1_555
C24_5 C17_5 1_555 1_555
C30_5 C23_5 1_555 1_555
H13_5 C24_5 1_555 1_555
H19_5 C30_5 1_555 1_555
C31_5 C24_5 1_555 1_555
C37_5 C30_5 1_555 1_555
H20_5 C31_5 1_555 1_555
H26_5 C37_5 1_555 1_555
C38_5 N4_5 1_555 1_555
C44_5 N10_5 1_555 1_555
C45_5 C38_5 1_555 1_555
C51_5 C44_5 1_555 1_555
H27_5 C45_5 1_555 1_555
H33_5 C51_5 1_555 1_555
C52_5 C17_5 1_555 1_555
C58_5 C23_5 1_555 1_555
H34_5 C52_5 1_555 1_555
H40_5 C58_5 1_555 1_555
C59_5 N2_10 1_555 1_555
C65_5 N10_5 1_555 1_555
C68_8 O29_8 1_555 1_555
N4_5 C59_5 1_555 1_555
N13_8 C65_5 1_555 1_555
N23_2 C59_5 1_555 1_555
N24_2 C65_5 1_555 1_555
N24_2 C68_8 1_555 1_555
C31_5 C38_5 1_555 1_555
C37_5 C44_5 1_555 1_555
C45_5 C52_5 1_555 1_555
C51_5 C58_5 1_555 1_555
Cd1_3 O1_3 1_555 1_555
Na1_17 O3_11 1_555 1_555
O1_3 C1_6 1_555 1_555
O2_3 Cd1_3 1_555 1_555
O3_11 C9_11 1_555 1_555
O4_17 Na1_17 1_555 1_555
N1_6 H1_6 1_555 1_555
N2_11 C8_6 1_555 1_555
N22 C8_6 1_555 1_555
C1_6 O2_3 1_555 1_555
C2_6 C1_6 1_555 1_555
C3_6 C2_6 1_555 1_555
H2_6 C3_6 1_555 1_555
C4_6 C3_6 1_555 1_555
H3_6 C4_6 1_555 1_555
C5_6 N1_6 1_555 1_555
C6_6 C5_6 1_555 1_555
H4_6 C6_6 1_555 1_555
C7_6 C2_6 1_555 1_555
H5_6 C7_6 1_555 1_555
C8_6 N1_6 1_555 1_555
C9_11 N22 1_555 1_555
Cd9_6 O8_6 1_555 1_555
O8_6 C13_6 1_555 1_555
O12_3 Cd1_3 1_555 1_555
O19_6 Cd9_6 1_555 1_555
O23_3 Cd1_3 1_555 1_555
O28_9 Na1_17 1_555 1_555
O30_17 Na1_17 1_555 1_555
N7_6 H9_6 1_555 1_555
N12_9 C62_6 1_555 1_555
N21_3 Cd1_3 1_555 1_555
N22_3 Cd1_3 1_555 1_555
C13_6 O19_6 1_555 1_555
C20_6 C13_6 1_555 1_555
C27_6 C20_6 1_555 1_555
H16_6 C27_6 1_555 1_555
C34_6 C27_6 1_555 1_555
H23_6 C34_6 1_555 1_555
C41_6 N7_6 1_555 1_555
C48_6 C41_6 1_555 1_555
H30_6 C48_6 1_555 1_555
C55_6 C20_6 1_555 1_555
H37_6 C55_6 1_555 1_555
C62_6 N7_6 1_555 1_555
C67_9 O28_9 1_555 1_555
C4_6 C5_6 1_555 1_555
C6_6 C7_6 1_555 1_555
N21 C62_6 1_555 1_555
N21 C67_9 1_555 1_555
C34_6 C41_6 1_555 1_555
C48_6 C55_6 1_555 1_555
O4_18 Na1_18 1_555 1_555
Cd4_3 O7_3 1_555 1_555
Cd10_6 O9_6 1_555 1_555
O7_3 C12_6 1_555 1_555
O9_6 C14_6 1_555 1_555
O15_3 Cd4_3 1_555 1_555
O18_3 Cd4_3 1_555 1_555
O20_6 Cd10_6 1_555 1_555
O26_3 Cd4_3 1_555 1_555
O27_11 Na1_18 1_555 1_555
O28_10 Na1_18 1_555 1_555
O30_18 Na1_18 1_555 1_555
N6_6 H8_6 1_555 1_555
N8_6 H10_6 1_555 1_555
N24_3 C61_6 1_555 1_555
N27_3 Cd4_3 1_555 1_555
N28_3 Cd4_3 1_555 1_555
C12_6 O18_3 1_555 1_555
C14_6 O20_6 1_555 1_555
C19_6 C12_6 1_555 1_555
C21_6 C14_6 1_555 1_555
C26_6 C19_6 1_555 1_555
C28_6 C21_6 1_555 1_555
H15_6 C26_6 1_555 1_555
H17_6 C28_6 1_555 1_555
C33_6 C26_6 1_555 1_555
C35_6 C28_6 1_555 1_555
H22_6 C33_6 1_555 1_555
H24_6 C35_6 1_555 1_555
C40_6 N6_6 1_555 1_555
C42_6 N8_6 1_555 1_555
C47_6 C40_6 1_555 1_555
C49_6 C42_6 1_555 1_555
H29_6 C47_6 1_555 1_555
H31_6 C49_6 1_555 1_555
C54_6 C19_6 1_555 1_555
C56_6 C21_6 1_555 1_555
H36_6 C54_6 1_555 1_555
H38_6 C56_6 1_555 1_555
C61_6 N6_6 1_555 1_555
C63_6 N8_6 1_555 1_555
C66_11 O27_11 1_555 1_555
C67_10 O28_10 1_555 1_555
N11_11 C61_6 1_555 1_555
N12_10 C63_6 1_555 1_555
N24_3 C66_11 1_555 1_555
N23_3 C63_6 1_555 1_555
N23_3 C67_10 1_555 1_555
C33_6 C40_6 1_555 1_555
C35_6 C42_6 1_555 1_555
C47_6 C54_6 1_555 1_555
C49_6 C56_6 1_555 1_555
Na1_19 O3_12 1_555 1_555
O3_12 C9_12 1_555 1_555
O4_19 Na1_19 1_555 1_555
Cd2_5 O5_5 1_555 1_555
Cd12_6 O11_6 1_555 1_555
O5_5 C10_6 1_555 1_555
O11_6 C16_6 1_555 1_555
O13_5 Cd2_5 1_555 1_555
O16_5 Cd2_5 1_555 1_555
O22_6 Cd12_6 1_555 1_555
O24_5 Cd2_5 1_555 1_555
O29_9 Na1_19 1_555 1_555
O30_19 Na1_19 1_555 1_555
N4_6 H6_6 1_555 1_555
N10_6 H12_6 1_555 1_555
N24 C9_12 1_555 1_555
N23_5 Cd2_5 1_555 1_555
N24_5 Cd2_5 1_555 1_555
C10_6 O16_5 1_555 1_555
C16_6 O22_6 1_555 1_555
C17_6 C10_6 1_555 1_555
C23_6 C16_6 1_555 1_555
C24_6 C17_6 1_555 1_555
C30_6 C23_6 1_555 1_555
H13_6 C24_6 1_555 1_555
H19_6 C30_6 1_555 1_555
C31_6 C24_6 1_555 1_555
C37_6 C30_6 1_555 1_555
H20_6 C31_6 1_555 1_555
H26_6 C37_6 1_555 1_555
C38_6 N4_6 1_555 1_555
C44_6 N10_6 1_555 1_555
C45_6 C38_6 1_555 1_555
C51_6 C44_6 1_555 1_555
H27_6 C45_6 1_555 1_555
H33_6 C51_6 1_555 1_555
C52_6 C17_6 1_555 1_555
C58_6 C23_6 1_555 1_555
H34_6 C52_6 1_555 1_555
H40_6 C58_6 1_555 1_555
C59_6 N2_12 1_555 1_555
C65_6 N10_6 1_555 1_555
C68_9 O29_9 1_555 1_555
N4_6 C59_6 1_555 1_555
N13_9 C65_6 1_555 1_555
N24 C59_6 1_555 1_555
N23 C65_6 1_555 1_555
N23 C68_9 1_555 1_555
C31_6 C38_6 1_555 1_555
C37_6 C44_6 1_555 1_555
C45_6 C52_6 1_555 1_555
C51_6 C58_6 1_555 1_555
O4_20 Na1_20 1_555 1_555
Cd3_5 O6_5 1_555 1_555
Cd11_6 O10_6 1_555 1_555
O6_5 C11_6 1_555 1_555
O10_6 C15_6 1_555 1_555
O14_5 Cd3_5 1_555 1_555
O17_5 Cd3_5 1_555 1_555
O21_6 Cd11_6 1_555 1_555
O25_5 Cd3_5 1_555 1_555
O27_12 Na1_20 1_555 1_555
O29_10 Na1_20 1_555 1_555
O30_20 Na1_20 1_555 1_555
N5_6 H7_6 1_555 1_555
N9_6 H11_6 1_555 1_555
N11_12 C60_6 1_555 1_555
N13_10 C64_6 1_555 1_555
N25_2 C60_6 1_555 1_555
N25_5 Cd3_5 1_555 1_555
N26_5 Cd3_5 1_555 1_555
C11_6 O17_5 1_555 1_555
C15_6 O21_6 1_555 1_555
C18_6 C11_6 1_555 1_555
C22_6 C15_6 1_555 1_555
C25_6 C18_6 1_555 1_555
C29_6 C22_6 1_555 1_555
H14_6 C25_6 1_555 1_555
H18_6 C29_6 1_555 1_555
C32_6 C25_6 1_555 1_555
C36_6 C29_6 1_555 1_555
H21_6 C32_6 1_555 1_555
H25_6 C36_6 1_555 1_555
C39_6 N5_6 1_555 1_555
C43_6 N9_6 1_555 1_555
C46_6 C39_6 1_555 1_555
C50_6 C43_6 1_555 1_555
H28_6 C46_6 1_555 1_555
H32_6 C50_6 1_555 1_555
C53_6 C18_6 1_555 1_555
C57_6 C22_6 1_555 1_555
H35_6 C53_6 1_555 1_555
H39_6 C57_6 1_555 1_555
C60_6 N5_6 1_555 1_555
C64_6 N9_6 1_555 1_555
C66_12 O27_12 1_555 1_555
C68_10 O29_10 1_555 1_555
N25_2 C66_12 1_555 1_555
N26_2 C64_6 1_555 1_555
N26_2 C68_10 1_555 1_555
C32_6 C39_6 1_555 1_555
C36_6 C43_6 1_555 1_555
C46_6 C53_6 1_555 1_555
C50_6 C57_6 1_555 1_555
Cd7_4 O1_4 1_555 1_555
Na1_21 O3_13 1_555 1_555
O1_4 C1_7 1_555 1_555
O2_4 Cd7_4 1_555 1_555
O3_13 C9_13 1_555 1_555
O4_21 Na1_21 1_555 1_555
N1_7 H1_7 1_555 1_555
N2_13 C8_7 1_555 1_555
N21_3 C8_7 1_555 1_555
C1_7 O2_4 1_555 1_555
C2_7 C1_7 1_555 1_555
C3_7 C2_7 1_555 1_555
H2_7 C3_7 1_555 1_555
C4_7 C3_7 1_555 1_555
H3_7 C4_7 1_555 1_555
C5_7 N1_7 1_555 1_555
C6_7 C5_7 1_555 1_555
H4_7 C6_7 1_555 1_555
C7_7 C2_7 1_555 1_555
H5_7 C7_7 1_555 1_555
C8_7 N1_7 1_555 1_555
C9_13 N21_3 1_555 1_555
Cd6_4 O5_6 1_555 1_555
Cd9_7 O8_7 1_555 1_555
Cd12_7 O11_7 1_555 1_555
O5_6 C10_7 1_555 1_555
O8_7 C13_7 1_555 1_555
O11_7 C16_7 1_555 1_555
O12_4 Cd7_4 1_555 1_555
O13_6 Cd6_4 1_555 1_555
O16_6 Cd6_4 1_555 1_555
O19_7 Cd9_7 1_555 1_555
O22_7 Cd12_7 1_555 1_555
O23_4 Cd7_4 1_555 1_555
O24_6 Cd6_4 1_555 1_555
O28_11 Na1_21 1_555 1_555
O29_11 Na1_21 1_555 1_555
O30_21 Na1_21 1_555 1_555
N4_7 H6_7 1_555 1_555
N7_7 H9_7 1_555 1_555
N10_7 H12_7 1_555 1_555
N12_11 C62_7 1_555 1_555
N27_2 C9_13 1_555 1_555
C10_7 O16_6 1_555 1_555
C13_7 O19_7 1_555 1_555
C16_7 O22_7 1_555 1_555
C17_7 C10_7 1_555 1_555
C20_7 C13_7 1_555 1_555
C23_7 C16_7 1_555 1_555
C24_7 C17_7 1_555 1_555
C27_7 C20_7 1_555 1_555
C30_7 C23_7 1_555 1_555
H13_7 C24_7 1_555 1_555
H16_7 C27_7 1_555 1_555
H19_7 C30_7 1_555 1_555
C31_7 C24_7 1_555 1_555
C34_7 C27_7 1_555 1_555
C37_7 C30_7 1_555 1_555
H20_7 C31_7 1_555 1_555
H23_7 C34_7 1_555 1_555
H26_7 C37_7 1_555 1_555
C38_7 N4_7 1_555 1_555
C41_7 N7_7 1_555 1_555
C44_7 N10_7 1_555 1_555
C45_7 C38_7 1_555 1_555
C48_7 C41_7 1_555 1_555
C51_7 C44_7 1_555 1_555
H27_7 C45_7 1_555 1_555
H30_7 C48_7 1_555 1_555
H33_7 C51_7 1_555 1_555
C52_7 C17_7 1_555 1_555
C55_7 C20_7 1_555 1_555
C58_7 C23_7 1_555 1_555
H34_7 C52_7 1_555 1_555
H37_7 C55_7 1_555 1_555
H40_7 C58_7 1_555 1_555
C59_7 N2_13 1_555 1_555
C62_7 N7_7 1_555 1_555
C65_7 N10_7 1_555 1_555
C67_11 O28_11 1_555 1_555
C68_11 O29_11 1_555 1_555
C4_7 C5_7 1_555 1_555
C6_7 C7_7 1_555 1_555
N4_7 C59_7 1_555 1_555
N13_11 C65_7 1_555 1_555
N27_2 C59_7 1_555 1_555
N22_3 C62_7 1_555 1_555
N22_3 C67_11 1_555 1_555
N28_2 C65_7 1_555 1_555
N28_2 C68_11 1_555 1_555
C31_7 C38_7 1_555 1_555
C34_7 C41_7 1_555 1_555
C37_7 C44_7 1_555 1_555
C45_7 C52_7 1_555 1_555
C48_7 C55_7 1_555 1_555
C51_7 C58_7 1_555 1_555
O4_22 Na1_22 1_555 1_555
Cd5_2 O6_6 1_555 1_555
Cd8_2 O7_4 1_555 1_555
Cd10_7 O9_7 1_555 1_555
Cd11_7 O10_7 1_555 1_555
O6_6 C11_7 1_555 1_555
O7_4 C12_7 1_555 1_555
O9_7 C14_7 1_555 1_555
O10_7 C15_7 1_555 1_555
O14_6 Cd5_2 1_555 1_555
O15_4 Cd8_2 1_555 1_555
O17_6 Cd5_2 1_555 1_555
O18_4 Cd8_2 1_555 1_555
O20_7 Cd10_7 1_555 1_555
O21_7 Cd11_7 1_555 1_555
O25_6 Cd5_2 1_555 1_555
O26_4 Cd8_2 1_555 1_555
O27_13 Na1_22 1_555 1_555
O28_12 Na1_22 1_555 1_555
O29_12 Na1_22 1_555 1_555
O30_22 Na1_22 1_555 1_555
N5_7 H7_7 1_555 1_555
N6_7 H8_7 1_555 1_555
N8_7 H10_7 1_555 1_555
N9_7 H11_7 1_555 1_555
N11_13 C60_7 1_555 1_555
N13_12 C64_7 1_555 1_555
N25_4 C60_7 1_555 1_555
N23_5 C61_7 1_555 1_555
C11_7 O17_6 1_555 1_555
C12_7 O18_4 1_555 1_555
C14_7 O20_7 1_555 1_555
C15_7 O21_7 1_555 1_555
C18_7 C11_7 1_555 1_555
C19_7 C12_7 1_555 1_555
C21_7 C14_7 1_555 1_555
C22_7 C15_7 1_555 1_555
C25_7 C18_7 1_555 1_555
C26_7 C19_7 1_555 1_555
C28_7 C21_7 1_555 1_555
C29_7 C22_7 1_555 1_555
H14_7 C25_7 1_555 1_555
H15_7 C26_7 1_555 1_555
H17_7 C28_7 1_555 1_555
H18_7 C29_7 1_555 1_555
C32_7 C25_7 1_555 1_555
C33_7 C26_7 1_555 1_555
C35_7 C28_7 1_555 1_555
C36_7 C29_7 1_555 1_555
H21_7 C32_7 1_555 1_555
H22_7 C33_7 1_555 1_555
H24_7 C35_7 1_555 1_555
H25_7 C36_7 1_555 1_555
C39_7 N5_7 1_555 1_555
C40_7 N6_7 1_555 1_555
C42_7 N8_7 1_555 1_555
C43_7 N9_7 1_555 1_555
C46_7 C39_7 1_555 1_555
C47_7 C40_7 1_555 1_555
C49_7 C42_7 1_555 1_555
C50_7 C43_7 1_555 1_555
H28_7 C46_7 1_555 1_555
H29_7 C47_7 1_555 1_555
H31_7 C49_7 1_555 1_555
H32_7 C50_7 1_555 1_555
C53_7 C18_7 1_555 1_555
C54_7 C19_7 1_555 1_555
C56_7 C21_7 1_555 1_555
C57_7 C22_7 1_555 1_555
H35_7 C53_7 1_555 1_555
H36_7 C54_7 1_555 1_555
H38_7 C56_7 1_555 1_555
H39_7 C57_7 1_555 1_555
C60_7 N5_7 1_555 1_555
C61_7 N6_7 1_555 1_555
C63_7 N8_7 1_555 1_555
C64_7 N9_7 1_555 1_555
C66_13 O27_13 1_555 1_555
C67_12 O28_12 1_555 1_555
C68_12 O29_12 1_555 1_555
N11_13 C61_7 1_555 1_555
N12_12 C63_7 1_555 1_555
N25_4 C66_13 1_555 1_555
N23_5 C66_13 1_555 1_555
N24_5 C63_7 1_555 1_555
N24_5 C67_12 1_555 1_555
N26_4 C64_7 1_555 1_555
N26_4 C68_12 1_555 1_555
C32_7 C39_7 1_555 1_555
C33_7 C40_7 1_555 1_555
C35_7 C42_7 1_555 1_555
C36_7 C43_7 1_555 1_555
C46_7 C53_7 1_555 1_555
C47_7 C54_7 1_555 1_555
C49_7 C56_7 1_555 1_555
C50_7 C57_7 1_555 1_555
O12_5 Cd9_6 1_555 1_555
O23_5 Cd9_6 1_555 1_555
N21_4 Cd9_6 1_555 1_555
N22_4 Cd9_6 1_555 1_555
O13_7 Cd10_6 1_555 1_555
O24_7 Cd10_6 1_555 1_555
N23_6 Cd10_6 1_555 1_555
N24_6 Cd10_6 1_555 1_555
O15_5 Cd12_6 1_555 1_555
O26_5 Cd12_6 1_555 1_555
N27_4 Cd12_6 1_555 1_555
N28_4 Cd12_6 1_555 1_555
O14_7 Cd11_6 1_555 1_555
O25_7 Cd11_6 1_555 1_555
N25_6 Cd11_6 1_555 1_555
N26_6 Cd11_6 1_555 1_555
Cd5 O1_5 1_555 1_555
Na1_23 O3_14 1_555 1_555
O1_5 C1_8 1_555 1_555
O2_5 Cd5 1_555 1_555
O3_14 C9_14 1_555 1_555
O4_23 Na1_23 1_555 1_555
N1_8 H1_8 1_555 1_555
N2_14 C8_8 1_555 1_555
N21_4 C8_8 1_555 1_555
C1_8 O2_5 1_555 1_555
C2_8 C1_8 1_555 1_555
C3_8 C2_8 1_555 1_555
H2_8 C3_8 1_555 1_555
C4_8 C3_8 1_555 1_555
H3_8 C4_8 1_555 1_555
C5_8 N1_8 1_555 1_555
C6_8 C5_8 1_555 1_555
H4_8 C6_8 1_555 1_555
C7_8 C2_8 1_555 1_555
H5_8 C7_8 1_555 1_555
C8_8 N1_8 1_555 1_555
C9_14 N21_4 1_555 1_555
Cd9_8 O8_8 1_555 1_555
O8_8 C13_8 1_555 1_555
O12_6 Cd5 1_555 1_555
O19_8 Cd9_8 1_555 1_555
O23_6 Cd5 1_555 1_555
O28_13 Na1_23 1_555 1_555
O30_23 Na1_23 1_555 1_555
N7_8 H9_8 1_555 1_555
N12_13 C62_8 1_555 1_555
C13_8 O19_8 1_555 1_555
C20_8 C13_8 1_555 1_555
C27_8 C20_8 1_555 1_555
H16_8 C27_8 1_555 1_555
C34_8 C27_8 1_555 1_555
H23_8 C34_8 1_555 1_555
C41_8 N7_8 1_555 1_555
C48_8 C41_8 1_555 1_555
H30_8 C48_8 1_555 1_555
C55_8 C20_8 1_555 1_555
H37_8 C55_8 1_555 1_555
C62_8 N7_8 1_555 1_555
C67_13 O28_13 1_555 1_555
C4_8 C5_8 1_555 1_555
C6_8 C7_8 1_555 1_555
N22_4 C62_8 1_555 1_555
N22_4 C67_13 1_555 1_555
C34_8 C41_8 1_555 1_555
C48_8 C55_8 1_555 1_555
Na1_24 O3_15 1_555 1_555
O3_15 C9_15 1_555 1_555
O4_24 Na1_24 1_555 1_555
Cd8 O5_7 1_555 1_555
Cd10_5 N14_5 1_555 1_555
Cd12_8 O11_8 1_555 1_555
O5_7 C10_8 1_555 1_555
O11_8 C16_8 1_555 1_555
O13_8 Cd8 1_555 1_555
O16_7 Cd8 1_555 1_555
O22_8 Cd12_8 1_555 1_555
O24_8 Cd8 1_555 1_555
O29_13 Na1_24 1_555 1_555
O30_24 Na1_24 1_555 1_555
N4_8 H6_8 1_555 1_555
N10_8 H12_8 1_555 1_555
N14_5 C9_15 1_555 1_555
N20_5 Cd10_5 1_555 1_555
C10_8 O16_7 1_555 1_555
C16_8 O22_8 1_555 1_555
C17_8 C10_8 1_555 1_555
C23_8 C16_8 1_555 1_555
C24_8 C17_8 1_555 1_555
C30_8 C23_8 1_555 1_555
H13_8 C24_8 1_555 1_555
H19_8 C30_8 1_555 1_555
C31_8 C24_8 1_555 1_555
C37_8 C30_8 1_555 1_555
H20_8 C31_8 1_555 1_555
H26_8 C37_8 1_555 1_555
C38_8 N4_8 1_555 1_555
C44_8 N10_8 1_555 1_555
C45_8 C38_8 1_555 1_555
C51_8 C44_8 1_555 1_555
H27_8 C45_8 1_555 1_555
H33_8 C51_8 1_555 1_555
C52_8 C17_8 1_555 1_555
C58_8 C23_8 1_555 1_555
H34_8 C52_8 1_555 1_555
H40_8 C58_8 1_555 1_555
C59_8 N2_15 1_555 1_555
C65_8 N10_8 1_555 1_555
C68_13 O29_13 1_555 1_555
N4_8 C59_8 1_555 1_555
N13_13 C65_8 1_555 1_555
N14_5 C59_8 1_555 1_555
N20_5 C65_8 1_555 1_555
N20_5 C68_13 1_555 1_555
C31_8 C38_8 1_555 1_555
C37_8 C44_8 1_555 1_555
C45_8 C52_8 1_555 1_555
C51_8 C58_8 1_555 1_555
O4_25 Na1_25 1_555 1_555
Cd6_3 O7_5 1_555 1_555
Cd10_8 O9_8 1_555 1_555
O7_5 C12_8 1_555 1_555
O9_8 C14_8 1_555 1_555
O15_6 Cd6_3 1_555 1_555
O18_5 Cd6_3 1_555 1_555
O20_8 Cd10_8 1_555 1_555
O26_6 Cd6_3 1_555 1_555
O27_14 Na1_25 1_555 1_555
O28_14 Na1_25 1_555 1_555
O30_25 Na1_25 1_555 1_555
N6_8 H8_8 1_555 1_555
N8_8 H10_8 1_555 1_555
N23_6 C61_8 1_555 1_555
C12_8 O18_5 1_555 1_555
C14_8 O20_8 1_555 1_555
C19_8 C12_8 1_555 1_555
C21_8 C14_8 1_555 1_555
C26_8 C19_8 1_555 1_555
C28_8 C21_8 1_555 1_555
H15_8 C26_8 1_555 1_555
H17_8 C28_8 1_555 1_555
C33_8 C26_8 1_555 1_555
C35_8 C28_8 1_555 1_555
H22_8 C33_8 1_555 1_555
H24_8 C35_8 1_555 1_555
C40_8 N6_8 1_555 1_555
C42_8 N8_8 1_555 1_555
C47_8 C40_8 1_555 1_555
C49_8 C42_8 1_555 1_555
H29_8 C47_8 1_555 1_555
H31_8 C49_8 1_555 1_555
C54_8 C19_8 1_555 1_555
C56_8 C21_8 1_555 1_555
H36_8 C54_8 1_555 1_555
H38_8 C56_8 1_555 1_555
C61_8 N6_8 1_555 1_555
C63_8 N8_8 1_555 1_555
C66_14 O27_14 1_555 1_555
C67_14 O28_14 1_555 1_555
N11_14 C61_8 1_555 1_555
N12_14 C63_8 1_555 1_555
N23_6 C66_14 1_555 1_555
N24_6 C63_8 1_555 1_555
N24_6 C67_14 1_555 1_555
C33_8 C40_8 1_555 1_555
C35_8 C42_8 1_555 1_555
C47_8 C54_8 1_555 1_555
C49_8 C56_8 1_555 1_555
O4_26 Na1_26 1_555 1_555
Cd7_3 O6_7 1_555 1_555
Cd9_5 N15_5 1_555 1_555
Cd11_8 O10_8 1_555 1_555
O6_7 C11_8 1_555 1_555
O10_8 C15_8 1_555 1_555
O14_8 Cd7_3 1_555 1_555
O17_7 Cd7_3 1_555 1_555
O21_8 Cd11_8 1_555 1_555
O25_8 Cd7_3 1_555 1_555
O27_15 Na1_26 1_555 1_555
O29_14 Na1_26 1_555 1_555
O30_26 Na1_26 1_555 1_555
N5_8 H7_8 1_555 1_555
N9_8 H11_8 1_555 1_555
N11_15 C60_8 1_555 1_555
N13_14 C64_8 1_555 1_555
N15_5 C60_8 1_555 1_555
N19_5 Cd9_5 1_555 1_555
C11_8 O17_7 1_555 1_555
C15_8 O21_8 1_555 1_555
C18_8 C11_8 1_555 1_555
C22_8 C15_8 1_555 1_555
C25_8 C18_8 1_555 1_555
C29_8 C22_8 1_555 1_555
H14_8 C25_8 1_555 1_555
H18_8 C29_8 1_555 1_555
C32_8 C25_8 1_555 1_555
C36_8 C29_8 1_555 1_555
H21_8 C32_8 1_555 1_555
H25_8 C36_8 1_555 1_555
C39_8 N5_8 1_555 1_555
C43_8 N9_8 1_555 1_555
C46_8 C39_8 1_555 1_555
C50_8 C43_8 1_555 1_555
H28_8 C46_8 1_555 1_555
H32_8 C50_8 1_555 1_555
C53_8 C18_8 1_555 1_555
C57_8 C22_8 1_555 1_555
H35_8 C53_8 1_555 1_555
H39_8 C57_8 1_555 1_555
C60_8 N5_8 1_555 1_555
C64_8 N9_8 1_555 1_555
C66_15 O27_15 1_555 1_555
C68_14 O29_14 1_555 1_555
N15_5 C66_15 1_555 1_555
N19_5 C64_8 1_555 1_555
N19_5 C68_14 1_555 1_555
C32_8 C39_8 1_555 1_555
C36_8 C43_8 1_555 1_555
C46_8 C53_8 1_555 1_555
C50_8 C57_8 1_555 1_555
O4_27 Na1_27 1_555 1_555
Cd6 O7_6 1_555 1_555
Cd10_9 O9_9 1_555 1_555
O7_6 C12_9 1_555 1_555
O9_9 C14_9 1_555 1_555
O15_7 Cd6 1_555 1_555
O18_6 Cd6 1_555 1_555
O20_9 Cd10_9 1_555 1_555
O26_7 Cd6 1_555 1_555
O27_16 Na1_27 1_555 1_555
O28_15 Na1_27 1_555 1_555
O30_27 Na1_27 1_555 1_555
N6_9 H8_9 1_555 1_555
N8_9 H10_9 1_555 1_555
N27_4 C61_9 1_555 1_555
C12_9 O18_6 1_555 1_555
C14_9 O20_9 1_555 1_555
C19_9 C12_9 1_555 1_555
C21_9 C14_9 1_555 1_555
C26_9 C19_9 1_555 1_555
C28_9 C21_9 1_555 1_555
H15_9 C26_9 1_555 1_555
H17_9 C28_9 1_555 1_555
C33_9 C26_9 1_555 1_555
C35_9 C28_9 1_555 1_555
H22_9 C33_9 1_555 1_555
H24_9 C35_9 1_555 1_555
C40_9 N6_9 1_555 1_555
C42_9 N8_9 1_555 1_555
C47_9 C40_9 1_555 1_555
C49_9 C42_9 1_555 1_555
H29_9 C47_9 1_555 1_555
H31_9 C49_9 1_555 1_555
C54_9 C19_9 1_555 1_555
C56_9 C21_9 1_555 1_555
H36_9 C54_9 1_555 1_555
H38_9 C56_9 1_555 1_555
C61_9 N6_9 1_555 1_555
C63_9 N8_9 1_555 1_555
C66_16 O27_16 1_555 1_555
C67_15 O28_15 1_555 1_555
N11_16 C61_9 1_555 1_555
N12_15 C63_9 1_555 1_555
N27_4 C66_16 1_555 1_555
N28_4 C63_9 1_555 1_555
N28_4 C67_15 1_555 1_555
C33_9 C40_9 1_555 1_555
C35_9 C42_9 1_555 1_555
C47_9 C54_9 1_555 1_555
C49_9 C56_9 1_555 1_555
O4_28 Na1_28 1_555 1_555
Cd7 O6_8 1_555 1_555
Cd11_5 N15_6 1_555 1_555
Cd11_9 O10_9 1_555 1_555
O6_8 C11_9 1_555 1_555
O10_9 C15_9 1_555 1_555
O14_9 Cd7 1_555 1_555
O17_8 Cd7 1_555 1_555
O21_9 Cd11_9 1_555 1_555
O25_9 Cd7 1_555 1_555
O27_17 Na1_28 1_555 1_555
O29_15 Na1_28 1_555 1_555
O30_28 Na1_28 1_555 1_555
N5_9 H7_9 1_555 1_555
N9_9 H11_9 1_555 1_555
N11_17 C60_9 1_555 1_555
N13_15 C64_9 1_555 1_555
N15_6 C60_9 1_555 1_555
N19_6 Cd11_5 1_555 1_555
C11_9 O17_8 1_555 1_555
C15_9 O21_9 1_555 1_555
C18_9 C11_9 1_555 1_555
C22_9 C15_9 1_555 1_555
C25_9 C18_9 1_555 1_555
C29_9 C22_9 1_555 1_555
H14_9 C25_9 1_555 1_555
H18_9 C29_9 1_555 1_555
C32_9 C25_9 1_555 1_555
C36_9 C29_9 1_555 1_555
H21_9 C32_9 1_555 1_555
H25_9 C36_9 1_555 1_555
C39_9 N5_9 1_555 1_555
C43_9 N9_9 1_555 1_555
C46_9 C39_9 1_555 1_555
C50_9 C43_9 1_555 1_555
H28_9 C46_9 1_555 1_555
H32_9 C50_9 1_555 1_555
C53_9 C18_9 1_555 1_555
C57_9 C22_9 1_555 1_555
H35_9 C53_9 1_555 1_555
H39_9 C57_9 1_555 1_555
C60_9 N5_9 1_555 1_555
C64_9 N9_9 1_555 1_555
C66_17 O27_17 1_555 1_555
C68_15 O29_15 1_555 1_555
N15_6 C66_17 1_555 1_555
N19_6 C64_9 1_555 1_555
N19_6 C68_15 1_555 1_555
C32_9 C39_9 1_555 1_555
C36_9 C43_9 1_555 1_555
C46_9 C53_9 1_555 1_555
C50_9 C57_9 1_555 1_555
Cd5_3 O1_6 1_555 1_555
Na1_29 O3_16 1_555 1_555
O1_6 C1_9 1_555 1_555
O2_6 Cd5_3 1_555 1_555
O3_16 C9_16 1_555 1_555
O4_29 Na1_29 1_555 1_555
N1_9 H1_9 1_555 1_555
N2_16 C8_9 1_555 1_555
N25_6 C8_9 1_555 1_555
C1_9 O2_6 1_555 1_555
C2_9 C1_9 1_555 1_555
C3_9 C2_9 1_555 1_555
H2_9 C3_9 1_555 1_555
C4_9 C3_9 1_555 1_555
H3_9 C4_9 1_555 1_555
C5_9 N1_9 1_555 1_555
C6_9 C5_9 1_555 1_555
H4_9 C6_9 1_555 1_555
C7_9 C2_9 1_555 1_555
H5_9 C7_9 1_555 1_555
C8_9 N1_9 1_555 1_555
C9_16 N25_6 1_555 1_555
Cd9_9 O8_9 1_555 1_555
O8_9 C13_9 1_555 1_555
O12_7 Cd5_3 1_555 1_555
O19_9 Cd9_9 1_555 1_555
O23_7 Cd5_3 1_555 1_555
O28_16 Na1_29 1_555 1_555
O30_29 Na1_29 1_555 1_555
N7_9 H9_9 1_555 1_555
N12_16 C62_9 1_555 1_555
C13_9 O19_9 1_555 1_555
C20_9 C13_9 1_555 1_555
C27_9 C20_9 1_555 1_555
H16_9 C27_9 1_555 1_555
C34_9 C27_9 1_555 1_555
H23_9 C34_9 1_555 1_555
C41_9 N7_9 1_555 1_555
C48_9 C41_9 1_555 1_555
H30_9 C48_9 1_555 1_555
C55_9 C20_9 1_555 1_555
H37_9 C55_9 1_555 1_555
C62_9 N7_9 1_555 1_555
C67_16 O28_16 1_555 1_555
C4_9 C5_9 1_555 1_555
C6_9 C7_9 1_555 1_555
N26_6 C62_9 1_555 1_555
N26_6 C67_16 1_555 1_555
C34_9 C41_9 1_555 1_555
C48_9 C55_9 1_555 1_555
Na1_30 O3_17 1_555 1_555
O3_17 C9_17 1_555 1_555
O4_30 Na1_30 1_555 1_555
Cd8_3 O5_8 1_555 1_555
Cd12_5 N14_6 1_555 1_555
Cd12_9 O11_9 1_555 1_555
O5_8 C10_9 1_555 1_555
O11_9 C16_9 1_555 1_555
O13_9 Cd8_3 1_555 1_555
O16_8 Cd8_3 1_555 1_555
O22_9 Cd12_9 1_555 1_555
O24_9 Cd8_3 1_555 1_555
O29_16 Na1_30 1_555 1_555
O30_30 Na1_30 1_555 1_555
N4_9 H6_9 1_555 1_555
N10_9 H12_9 1_555 1_555
N14_6 C9_17 1_555 1_555
N20_6 Cd12_5 1_555 1_555
C10_9 O16_8 1_555 1_555
C16_9 O22_9 1_555 1_555
C17_9 C10_9 1_555 1_555
C23_9 C16_9 1_555 1_555
C24_9 C17_9 1_555 1_555
C30_9 C23_9 1_555 1_555
H13_9 C24_9 1_555 1_555
H19_9 C30_9 1_555 1_555
C31_9 C24_9 1_555 1_555
C37_9 C30_9 1_555 1_555
H20_9 C31_9 1_555 1_555
H26_9 C37_9 1_555 1_555
C38_9 N4_9 1_555 1_555
C44_9 N10_9 1_555 1_555
C45_9 C38_9 1_555 1_555
C51_9 C44_9 1_555 1_555
H27_9 C45_9 1_555 1_555
H33_9 C51_9 1_555 1_555
C52_9 C17_9 1_555 1_555
C58_9 C23_9 1_555 1_555
H34_9 C52_9 1_555 1_555
H40_9 C58_9 1_555 1_555
C59_9 N2_17 1_555 1_555
C65_9 N10_9 1_555 1_555
C68_16 O29_16 1_555 1_555
N4_9 C59_9 1_555 1_555
N13_16 C65_9 1_555 1_555
N14_6 C59_9 1_555 1_555
N20_6 C65_9 1_555 1_555
N20_6 C68_16 1_555 1_555
C31_9 C38_9 1_555 1_555
C37_9 C44_9 1_555 1_555
C45_9 C52_9 1_555 1_555
C51_9 C58_9 1_555 1_555
O13_10 Cd10_5 1_555 1_555
O24_10 Cd10_5 1_555 1_555
O12_8 Cd9_5 1_555 1_555
O23_8 Cd9_5 1_555 1_555
O14_10 Cd11_5 1_555 1_555
O25_10 Cd11_5 1_555 1_555
O15_8 Cd12_5 1_555 1_555
O26_8 Cd12_5 1_555 1_555
Cd5_4 O1_7 1_555 1_555
Na1_31 O3_18 1_555 1_555
O1_7 C1_10 1_555 1_555
O2_7 Cd5_4 1_555 1_555
O3_18 C9_18 1_555 1_555
O4_31 Na1_31 1_555 1_555
N1_10 H1_10 1_555 1_555
N2_18 C8_10 1_555 1_555
N21_2 C8_10 1_555 1_555
C1_10 O2_7 1_555 1_555
C2_10 C1_10 1_555 1_555
C3_10 C2_10 1_555 1_555
H2_10 C3_10 1_555 1_555
C4_10 C3_10 1_555 1_555
H3_10 C4_10 1_555 1_555
C5_10 N1_10 1_555 1_555
C6_10 C5_10 1_555 1_555
H4_10 C6_10 1_555 1_555
C7_10 C2_10 1_555 1_555
H5_10 C7_10 1_555 1_555
C8_10 N1_10 1_555 1_555
C9_18 N21_2 1_555 1_555
Cd8_4 O5_9 1_555 1_555
Cd9_10 O8_10 1_555 1_555
Cd12_10 O11_10 1_555 1_555
O5_9 C10_10 1_555 1_555
O8_10 C13_10 1_555 1_555
O11_10 C16_10 1_555 1_555
O12_9 Cd5_4 1_555 1_555
O13_11 Cd8_4 1_555 1_555
O16_9 Cd8_4 1_555 1_555
O19_10 Cd9_10 1_555 1_555
O22_10 Cd12_10 1_555 1_555
O23_9 Cd5_4 1_555 1_555
O24_11 Cd8_4 1_555 1_555
O28_17 Na1_31 1_555 1_555
O29_17 Na1_31 1_555 1_555
O30_31 Na1_31 1_555 1_555
N4_10 H6_10 1_555 1_555
N7_10 H9_10 1_555 1_555
N10_10 H12_10 1_555 1_555
N12_17 C62_10 1_555 1_555
N27_3 C9_18 1_555 1_555
C10_10 O16_9 1_555 1_555
C13_10 O19_10 1_555 1_555
C16_10 O22_10 1_555 1_555
C17_10 C10_10 1_555 1_555
C20_10 C13_10 1_555 1_555
C23_10 C16_10 1_555 1_555
C24_10 C17_10 1_555 1_555
C27_10 C20_10 1_555 1_555
C30_10 C23_10 1_555 1_555
H13_10 C24_10 1_555 1_555
H16_10 C27_10 1_555 1_555
H19_10 C30_10 1_555 1_555
C31_10 C24_10 1_555 1_555
C34_10 C27_10 1_555 1_555
C37_10 C30_10 1_555 1_555
H20_10 C31_10 1_555 1_555
H23_10 C34_10 1_555 1_555
H26_10 C37_10 1_555 1_555
C38_10 N4_10 1_555 1_555
C41_10 N7_10 1_555 1_555
C44_10 N10_10 1_555 1_555
C45_10 C38_10 1_555 1_555
C48_10 C41_10 1_555 1_555
C51_10 C44_10 1_555 1_555
H27_10 C45_10 1_555 1_555
H30_10 C48_10 1_555 1_555
H33_10 C51_10 1_555 1_555
C52_10 C17_10 1_555 1_555
C55_10 C20_10 1_555 1_555
C58_10 C23_10 1_555 1_555
H34_10 C52_10 1_555 1_555
H37_10 C55_10 1_555 1_555
H40_10 C58_10 1_555 1_555
C59_10 N2_18 1_555 1_555
C62_10 N7_10 1_555 1_555
C65_10 N10_10 1_555 1_555
C67_17 O28_17 1_555 1_555
C68_17 O29_17 1_555 1_555
C4_10 C5_10 1_555 1_555
C6_10 C7_10 1_555 1_555
N4_10 C59_10 1_555 1_555
N13_17 C65_10 1_555 1_555
N27_3 C59_10 1_555 1_555
N22_2 C62_10 1_555 1_555
N22_2 C67_17 1_555 1_555
N28_3 C65_10 1_555 1_555
N28_3 C68_17 1_555 1_555
C31_10 C38_10 1_555 1_555
C34_10 C41_10 1_555 1_555
C37_10 C44_10 1_555 1_555
C45_10 C52_10 1_555 1_555
C48_10 C55_10 1_555 1_555
C51_10 C58_10 1_555 1_555
O4_32 Na1_32 1_555 1_555
Cd7_2 O6_9 1_555 1_555
Cd6_2 O7_7 1_555 1_555
Cd10_10 O9_10 1_555 1_555
Cd11_10 O10_10 1_555 1_555
O6_9 C11_10 1_555 1_555
O7_7 C12_10 1_555 1_555
O9_10 C14_10 1_555 1_555
O10_10 C15_10 1_555 1_555
O14_11 Cd7_2 1_555 1_555
O15_9 Cd6_2 1_555 1_555
O17_9 Cd7_2 1_555 1_555
O18_7 Cd6_2 1_555 1_555
O20_10 Cd10_10 1_555 1_555
O21_10 Cd11_10 1_555 1_555
O25_11 Cd7_2 1_555 1_555
O26_9 Cd6_2 1_555 1_555
O27_18 Na1_32 1_555 1_555
O28_18 Na1_32 1_555 1_555
O29_18 Na1_32 1_555 1_555
O30_32 Na1_32 1_555 1_555
N5_10 H7_10 1_555 1_555
N6_10 H8_10 1_555 1_555
N8_10 H10_10 1_555 1_555
N9_10 H11_10 1_555 1_555
N11_18 C60_10 1_555 1_555
N13_18 C64_10 1_555 1_555
N25_5 C60_10 1_555 1_555
N23_4 C61_10 1_555 1_555
C11_10 O17_9 1_555 1_555
C12_10 O18_7 1_555 1_555
C14_10 O20_10 1_555 1_555
C15_10 O21_10 1_555 1_555
C18_10 C11_10 1_555 1_555
C19_10 C12_10 1_555 1_555
C21_10 C14_10 1_555 1_555
C22_10 C15_10 1_555 1_555
C25_10 C18_10 1_555 1_555
C26_10 C19_10 1_555 1_555
C28_10 C21_10 1_555 1_555
C29_10 C22_10 1_555 1_555
H14_10 C25_10 1_555 1_555
H15_10 C26_10 1_555 1_555
H17_10 C28_10 1_555 1_555
H18_10 C29_10 1_555 1_555
C32_10 C25_10 1_555 1_555
C33_10 C26_10 1_555 1_555
C35_10 C28_10 1_555 1_555
C36_10 C29_10 1_555 1_555
H21_10 C32_10 1_555 1_555
H22_10 C33_10 1_555 1_555
H24_10 C35_10 1_555 1_555
H25_10 C36_10 1_555 1_555
C39_10 N5_10 1_555 1_555
C40_10 N6_10 1_555 1_555
C42_10 N8_10 1_555 1_555
C43_10 N9_10 1_555 1_555
C46_10 C39_10 1_555 1_555
C47_10 C40_10 1_555 1_555
C49_10 C42_10 1_555 1_555
C50_10 C43_10 1_555 1_555
H28_10 C46_10 1_555 1_555
H29_10 C47_10 1_555 1_555
H31_10 C49_10 1_555 1_555
H32_10 C50_10 1_555 1_555
C53_10 C18_10 1_555 1_555
C54_10 C19_10 1_555 1_555
C56_10 C21_10 1_555 1_555
C57_10 C22_10 1_555 1_555
H35_10 C53_10 1_555 1_555
H36_10 C54_10 1_555 1_555
H38_10 C56_10 1_555 1_555
H39_10 C57_10 1_555 1_555
C60_10 N5_10 1_555 1_555
C61_10 N6_10 1_555 1_555
C63_10 N8_10 1_555 1_555
C64_10 N9_10 1_555 1_555
C66_18 O27_18 1_555 1_555
C67_18 O28_18 1_555 1_555
C68_18 O29_18 1_555 1_555
N11_18 C61_10 1_555 1_555
N12_18 C63_10 1_555 1_555
N25_5 C66_18 1_555 1_555
N23_4 C66_18 1_555 1_555
N24_4 C63_10 1_555 1_555
N24_4 C67_18 1_555 1_555
N26_5 C64_10 1_555 1_555
N26_5 C68_18 1_555 1_555
C32_10 C39_10 1_555 1_555
C33_10 C40_10 1_555 1_555
C35_10 C42_10 1_555 1_555
C36_10 C43_10 1_555 1_555
C46_10 C53_10 1_555 1_555
C47_10 C54_10 1_555 1_555
C49_10 C56_10 1_555 1_555
C50_10 C57_10 1_555 1_555
O12_10 Cd9_10 1_555 1_555
O15_10 Cd12_10 1_555 1_555
O23_10 Cd9_10 1_555 1_555
O26_10 Cd12_10 1_555 1_555
N21_5 Cd9_10 1_555 1_555
N22_5 Cd9_10 1_555 1_555
N27_5 Cd12_10 1_555 1_555
N28_5 Cd12_10 1_555 1_555
O13_12 Cd10_10 1_555 1_555
O14_12 Cd11_10 1_555 1_555
O24_12 Cd10_10 1_555 1_555
O25_12 Cd11_10 1_555 1_555
N23_7 Cd10_10 1_555 1_555
N24_7 Cd10_10 1_555 1_555
N25_7 Cd11_10 1_555 1_555
N26_7 Cd11_10 1_555 1_555
Na1_33 O3_19 1_555 1_555
O14_12 C1_11 1_555 1_555
O3_19 C9_19 1_555 1_555
O4_33 Na1_33 1_555 1_555
N1_11 H1_11 1_555 1_555
N2_19 C8_11 1_555 1_555
N3_5 C8_11 1_555 1_555
C1_11 O25_12 1_555 1_555
C2_11 C1_11 1_555 1_555
C3_11 C2_11 1_555 1_555
H2_11 C3_11 1_555 1_555
C4_11 C3_11 1_555 1_555
H3_11 C4_11 1_555 1_555
C5_11 N1_11 1_555 1_555
C6_11 C5_11 1_555 1_555
H4_11 C6_11 1_555 1_555
C7_11 C2_11 1_555 1_555
H5_11 C7_11 1_555 1_555
C8_11 N1_11 1_555 1_555
C9_19 N3_5 1_555 1_555
Cd10_7 O5_10 1_555 1_555
Cd9_3 N3_5 1_555 1_555
Cd12 N14_7 1_555 1_555
Cd9_11 O8_11 1_555 1_555
Cd12_11 O11_11 1_555 1_555
O5_10 C10_11 1_555 1_555
O8_11 C13_11 1_555 1_555
O11_11 C16_11 1_555 1_555
O16_10 Cd10_7 1_555 1_555
O19_11 Cd9_11 1_555 1_555
O22_11 Cd12_11 1_555 1_555
O28_19 Na1_33 1_555 1_555
O29_19 Na1_33 1_555 1_555
O30_33 Na1_33 1_555 1_555
N4_11 H6_11 1_555 1_555
N7_11 H9_11 1_555 1_555
N10_11 H12_11 1_555 1_555
N12_19 C62_11 1_555 1_555
N14_7 C9_19 1_555 1_555
N17_5 Cd9_3 1_555 1_555
N20_7 Cd12 1_555 1_555
N23_8 Cd10_7 1_555 1_555
N24_8 Cd10_7 1_555 1_555
C10_11 O16_10 1_555 1_555
C13_11 O19_11 1_555 1_555
C16_11 O22_11 1_555 1_555
C17_11 C10_11 1_555 1_555
C20_11 C13_11 1_555 1_555
C23_11 C16_11 1_555 1_555
C24_11 C17_11 1_555 1_555
C27_11 C20_11 1_555 1_555
C30_11 C23_11 1_555 1_555
H13_11 C24_11 1_555 1_555
H16_11 C27_11 1_555 1_555
H19_11 C30_11 1_555 1_555
C31_11 C24_11 1_555 1_555
C34_11 C27_11 1_555 1_555
C37_11 C30_11 1_555 1_555
H20_11 C31_11 1_555 1_555
H23_11 C34_11 1_555 1_555
H26_11 C37_11 1_555 1_555
C38_11 N4_11 1_555 1_555
C41_11 N7_11 1_555 1_555
C44_11 N10_11 1_555 1_555
C45_11 C38_11 1_555 1_555
C48_11 C41_11 1_555 1_555
C51_11 C44_11 1_555 1_555
H27_11 C45_11 1_555 1_555
H30_11 C48_11 1_555 1_555
H33_11 C51_11 1_555 1_555
C52_11 C17_11 1_555 1_555
C55_11 C20_11 1_555 1_555
C58_11 C23_11 1_555 1_555
H34_11 C52_11 1_555 1_555
H37_11 C55_11 1_555 1_555
H40_11 C58_11 1_555 1_555
C59_11 N2_19 1_555 1_555
C62_11 N7_11 1_555 1_555
C65_11 N10_11 1_555 1_555
C67_19 O28_19 1_555 1_555
C68_19 O29_19 1_555 1_555
C4_11 C5_11 1_555 1_555
C6_11 C7_11 1_555 1_555
N4_11 C59_11 1_555 1_555
N13_19 C65_11 1_555 1_555
N14_7 C59_11 1_555 1_555
N17_5 C62_11 1_555 1_555
N17_5 C67_19 1_555 1_555
N20_7 C65_11 1_555 1_555
N20_7 C68_19 1_555 1_555
C31_11 C38_11 1_555 1_555
C34_11 C41_11 1_555 1_555
C37_11 C44_11 1_555 1_555
C45_11 C52_11 1_555 1_555
C48_11 C55_11 1_555 1_555
C51_11 C58_11 1_555 1_555
O4_34 Na1_34 1_555 1_555
Cd11_7 O6_10 1_555 1_555
Cd11 N15_7 1_555 1_555
Cd10_3 N16_5 1_555 1_555
Cd10_11 O9_11 1_555 1_555
Cd11_11 O10_11 1_555 1_555
O6_10 C11_11 1_555 1_555
O13_12 C12_11 1_555 1_555
O9_11 C14_11 1_555 1_555
O10_11 C15_11 1_555 1_555
O17_10 Cd11_7 1_555 1_555
O20_11 Cd10_11 1_555 1_555
O21_11 Cd11_11 1_555 1_555
O27_19 Na1_34 1_555 1_555
O28_20 Na1_34 1_555 1_555
O29_20 Na1_34 1_555 1_555
O30_34 Na1_34 1_555 1_555
N5_11 H7_11 1_555 1_555
N6_11 H8_11 1_555 1_555
N8_11 H10_11 1_555 1_555
N9_11 H11_11 1_555 1_555
N11_19 C60_11 1_555 1_555
N13_20 C64_11 1_555 1_555
N15_7 C60_11 1_555 1_555
N16_5 C61_11 1_555 1_555
N18_5 Cd10_3 1_555 1_555
N19_7 Cd11 1_555 1_555
N25_8 Cd11_7 1_555 1_555
N26_8 Cd11_7 1_555 1_555
C11_11 O17_10 1_555 1_555
C12_11 O24_12 1_555 1_555
C14_11 O20_11 1_555 1_555
C15_11 O21_11 1_555 1_555
C18_11 C11_11 1_555 1_555
C19_11 C12_11 1_555 1_555
C21_11 C14_11 1_555 1_555
C22_11 C15_11 1_555 1_555
C25_11 C18_11 1_555 1_555
C26_11 C19_11 1_555 1_555
C28_11 C21_11 1_555 1_555
C29_11 C22_11 1_555 1_555
H14_11 C25_11 1_555 1_555
H15_11 C26_11 1_555 1_555
H17_11 C28_11 1_555 1_555
H18_11 C29_11 1_555 1_555
C32_11 C25_11 1_555 1_555
C33_11 C26_11 1_555 1_555
C35_11 C28_11 1_555 1_555
C36_11 C29_11 1_555 1_555
H21_11 C32_11 1_555 1_555
H22_11 C33_11 1_555 1_555
H24_11 C35_11 1_555 1_555
H25_11 C36_11 1_555 1_555
C39_11 N5_11 1_555 1_555
C40_11 N6_11 1_555 1_555
C42_11 N8_11 1_555 1_555
C43_11 N9_11 1_555 1_555
C46_11 C39_11 1_555 1_555
C47_11 C40_11 1_555 1_555
C49_11 C42_11 1_555 1_555
C50_11 C43_11 1_555 1_555
H28_11 C46_11 1_555 1_555
H29_11 C47_11 1_555 1_555
H31_11 C49_11 1_555 1_555
H32_11 C50_11 1_555 1_555
C53_11 C18_11 1_555 1_555
C54_11 C19_11 1_555 1_555
C56_11 C21_11 1_555 1_555
C57_11 C22_11 1_555 1_555
H35_11 C53_11 1_555 1_555
H36_11 C54_11 1_555 1_555
H38_11 C56_11 1_555 1_555
H39_11 C57_11 1_555 1_555
C60_11 N5_11 1_555 1_555
C61_11 N6_11 1_555 1_555
C63_11 N8_11 1_555 1_555
C64_11 N9_11 1_555 1_555
C66_19 O27_19 1_555 1_555
C67_20 O28_20 1_555 1_555
C68_20 O29_20 1_555 1_555
N11_19 C61_11 1_555 1_555
N12_20 C63_11 1_555 1_555
N15_7 C66_19 1_555 1_555
N16_5 C66_19 1_555 1_555
N18_5 C63_11 1_555 1_555
N18_5 C67_20 1_555 1_555
N19_7 C64_11 1_555 1_555
N19_7 C68_20 1_555 1_555
C32_11 C39_11 1_555 1_555
C33_11 C40_11 1_555 1_555
C35_11 C42_11 1_555 1_555
C36_11 C43_11 1_555 1_555
C46_11 C53_11 1_555 1_555
C47_11 C54_11 1_555 1_555
C49_11 C56_11 1_555 1_555
C50_11 C57_11 1_555 1_555
O13_13 Cd12_7 1_555 1_555
O14_13 Cd9_7 1_555 1_555
O24_13 Cd12_7 1_555 1_555
O25_13 Cd9_7 1_555 1_555
N23_9 Cd12_7 1_555 1_555
N24_9 Cd12_7 1_555 1_555
N25_9 Cd9_7 1_555 1_555
N26_9 Cd9_7 1_555 1_555
Na1_35 O3_20 1_555 1_555
O14_13 C1_12 1_555 1_555
O3_20 C9_20 1_555 1_555
O4_35 Na1_35 1_555 1_555
N1_12 H1_12 1_555 1_555
N2_20 C8_12 1_555 1_555
N3_6 C8_12 1_555 1_555
C1_12 O25_13 1_555 1_555
C2_12 C1_12 1_555 1_555
C3_12 C2_12 1_555 1_555
H2_12 C3_12 1_555 1_555
C4_12 C3_12 1_555 1_555
H3_12 C4_12 1_555 1_555
C5_12 N1_12 1_555 1_555
C6_12 C5_12 1_555 1_555
H4_12 C6_12 1_555 1_555
C7_12 C2_12 1_555 1_555
H5_12 C7_12 1_555 1_555
C8_12 N1_12 1_555 1_555
C9_20 N3_6 1_555 1_555
Cd9 N3_6 1_555 1_555
Cd12_3 N14_8 1_555 1_555
Cd9_12 O8_12 1_555 1_555
Cd12_12 O11_12 1_555 1_555
O15_10 C10_12 1_555 1_555
O8_12 C13_12 1_555 1_555
O11_12 C16_12 1_555 1_555
O19_12 Cd9_12 1_555 1_555
O22_12 Cd12_12 1_555 1_555
O28_21 Na1_35 1_555 1_555
O29_21 Na1_35 1_555 1_555
O30_35 Na1_35 1_555 1_555
N4_12 H6_12 1_555 1_555
N7_12 H9_12 1_555 1_555
N10_12 H12_12 1_555 1_555
N12_21 C62_12 1_555 1_555
N14_8 C9_20 1_555 1_555
N17_6 Cd9 1_555 1_555
N20_8 Cd12_3 1_555 1_555
C10_12 O26_10 1_555 1_555
C13_12 O19_12 1_555 1_555
C16_12 O22_12 1_555 1_555
C17_12 C10_12 1_555 1_555
C20_12 C13_12 1_555 1_555
C23_12 C16_12 1_555 1_555
C24_12 C17_12 1_555 1_555
C27_12 C20_12 1_555 1_555
C30_12 C23_12 1_555 1_555
H13_12 C24_12 1_555 1_555
H16_12 C27_12 1_555 1_555
H19_12 C30_12 1_555 1_555
C31_12 C24_12 1_555 1_555
C34_12 C27_12 1_555 1_555
C37_12 C30_12 1_555 1_555
H20_12 C31_12 1_555 1_555
H23_12 C34_12 1_555 1_555
H26_12 C37_12 1_555 1_555
C38_12 N4_12 1_555 1_555
C41_12 N7_12 1_555 1_555
C44_12 N10_12 1_555 1_555
C45_12 C38_12 1_555 1_555
C48_12 C41_12 1_555 1_555
C51_12 C44_12 1_555 1_555
H27_12 C45_12 1_555 1_555
H30_12 C48_12 1_555 1_555
H33_12 C51_12 1_555 1_555
C52_12 C17_12 1_555 1_555
C55_12 C20_12 1_555 1_555
C58_12 C23_12 1_555 1_555
H34_12 C52_12 1_555 1_555
H37_12 C55_12 1_555 1_555
H40_12 C58_12 1_555 1_555
C59_12 N2_20 1_555 1_555
C62_12 N7_12 1_555 1_555
C65_12 N10_12 1_555 1_555
C67_21 O28_21 1_555 1_555
C68_21 O29_21 1_555 1_555
C4_12 C5_12 1_555 1_555
C6_12 C7_12 1_555 1_555
N4_12 C59_12 1_555 1_555
N13_21 C65_12 1_555 1_555
N14_8 C59_12 1_555 1_555
N17_6 C62_12 1_555 1_555
N17_6 C67_21 1_555 1_555
N20_8 C65_12 1_555 1_555
N20_8 C68_21 1_555 1_555
C31_12 C38_12 1_555 1_555
C34_12 C41_12 1_555 1_555
C37_12 C44_12 1_555 1_555
C45_12 C52_12 1_555 1_555
C48_12 C55_12 1_555 1_555
C51_12 C58_12 1_555 1_555
O4_36 Na1_36 1_555 1_555
Cd11_3 N15_8 1_555 1_555
Cd10 N16_6 1_555 1_555
Cd10_12 O9_12 1_555 1_555
Cd11_12 O10_12 1_555 1_555
O12_10 C11_12 1_555 1_555
O13_13 C12_12 1_555 1_555
O9_12 C14_12 1_555 1_555
O10_12 C15_12 1_555 1_555
O20_12 Cd10_12 1_555 1_555
O21_12 Cd11_12 1_555 1_555
O27_20 Na1_36 1_555 1_555
O28_22 Na1_36 1_555 1_555
O29_22 Na1_36 1_555 1_555
O30_36 Na1_36 1_555 1_555
N5_12 H7_12 1_555 1_555
N6_12 H8_12 1_555 1_555
N8_12 H10_12 1_555 1_555
N9_12 H11_12 1_555 1_555
N11_20 C60_12 1_555 1_555
N13_22 C64_12 1_555 1_555
N15_8 C60_12 1_555 1_555
N16_6 C61_12 1_555 1_555
N18_6 Cd10 1_555 1_555
N19_8 Cd11_3 1_555 1_555
C11_12 O23_10 1_555 1_555
C12_12 O24_13 1_555 1_555
C14_12 O20_12 1_555 1_555
C15_12 O21_12 1_555 1_555
C18_12 C11_12 1_555 1_555
C19_12 C12_12 1_555 1_555
C21_12 C14_12 1_555 1_555
C22_12 C15_12 1_555 1_555
C25_12 C18_12 1_555 1_555
C26_12 C19_12 1_555 1_555
C28_12 C21_12 1_555 1_555
C29_12 C22_12 1_555 1_555
H14_12 C25_12 1_555 1_555
H15_12 C26_12 1_555 1_555
H17_12 C28_12 1_555 1_555
H18_12 C29_12 1_555 1_555
C32_12 C25_12 1_555 1_555
C33_12 C26_12 1_555 1_555
C35_12 C28_12 1_555 1_555
C36_12 C29_12 1_555 1_555
H21_12 C32_12 1_555 1_555
H22_12 C33_12 1_555 1_555
H24_12 C35_12 1_555 1_555
H25_12 C36_12 1_555 1_555
C39_12 N5_12 1_555 1_555
C40_12 N6_12 1_555 1_555
C42_12 N8_12 1_555 1_555
C43_12 N9_12 1_555 1_555
C46_12 C39_12 1_555 1_555
C47_12 C40_12 1_555 1_555
C49_12 C42_12 1_555 1_555
C50_12 C43_12 1_555 1_555
H28_12 C46_12 1_555 1_555
H29_12 C47_12 1_555 1_555
H31_12 C49_12 1_555 1_555
H32_12 C50_12 1_555 1_555
C53_12 C18_12 1_555 1_555
C54_12 C19_12 1_555 1_555
C56_12 C21_12 1_555 1_555
C57_12 C22_12 1_555 1_555
H35_12 C53_12 1_555 1_555
H36_12 C54_12 1_555 1_555
H38_12 C56_12 1_555 1_555
H39_12 C57_12 1_555 1_555
C60_12 N5_12 1_555 1_555
C61_12 N6_12 1_555 1_555
C63_12 N8_12 1_555 1_555
C64_12 N9_12 1_555 1_555
C66_20 O27_20 1_555 1_555
C67_22 O28_22 1_555 1_555
C68_22 O29_22 1_555 1_555
N11_20 C61_12 1_555 1_555
N12_22 C63_12 1_555 1_555
N15_8 C66_20 1_555 1_555
N16_6 C66_20 1_555 1_555
N18_6 C63_12 1_555 1_555
N18_6 C67_22 1_555 1_555
N19_8 C64_12 1_555 1_555
N19_8 C68_22 1_555 1_555
C32_12 C39_12 1_555 1_555
C33_12 C40_12 1_555 1_555
C35_12 C42_12 1_555 1_555
C36_12 C43_12 1_555 1_555
C46_12 C53_12 1_555 1_555
C47_12 C54_12 1_555 1_555
C49_12 C56_12 1_555 1_555
C50_12 C57_12 1_555 1_555
Na1_37 O3_21 1_555 1_555
O12_6 C1_13 1_555 1_555
O3_21 C9_21 1_555 1_555
O4_37 Na1_37 1_555 1_555
N1_13 H1_13 1_555 1_555
N2_21 C8_13 1_555 1_555
N26_9 C8_13 1_555 1_555
C1_13 O23_6 1_555 1_555
C2_13 C1_13 1_555 1_555
C3_13 C2_13 1_555 1_555
H2_13 C3_13 1_555 1_555
C4_13 C3_13 1_555 1_555
H3_13 C4_13 1_555 1_555
C5_13 N1_13 1_555 1_555
C6_13 C5_13 1_555 1_555
H4_13 C6_13 1_555 1_555
C7_13 C2_13 1_555 1_555
H5_13 C7_13 1_555 1_555
C8_13 N1_13 1_555 1_555
C9_21 N26_9 1_555 1_555
Cd9_13 O8_13 1_555 1_555
Cd10_13 O9_13 1_555 1_555
O15_6 C12_13 1_555 1_555
O8_13 C13_13 1_555 1_555
O9_13 C14_13 1_555 1_555
O19_13 Cd9_13 1_555 1_555
O20_13 Cd10_13 1_555 1_555
O27_21 Na1_37 1_555 1_555
O28_23 Na1_37 1_555 1_555
O30_37 Na1_37 1_555 1_555
N6_13 H8_13 1_555 1_555
N7_13 H9_13 1_555 1_555
N8_13 H10_13 1_555 1_555
N12_23 C62_13 1_555 1_555
N28_5 C61_13 1_555 1_555
C12_13 O26_6 1_555 1_555
C13_13 O19_13 1_555 1_555
C14_13 O20_13 1_555 1_555
C19_13 C12_13 1_555 1_555
C20_13 C13_13 1_555 1_555
C21_13 C14_13 1_555 1_555
C26_13 C19_13 1_555 1_555
C27_13 C20_13 1_555 1_555
C28_13 C21_13 1_555 1_555
H15_13 C26_13 1_555 1_555
H16_13 C27_13 1_555 1_555
H17_13 C28_13 1_555 1_555
C33_13 C26_13 1_555 1_555
C34_13 C27_13 1_555 1_555
C35_13 C28_13 1_555 1_555
H22_13 C33_13 1_555 1_555
H23_13 C34_13 1_555 1_555
H24_13 C35_13 1_555 1_555
C40_13 N6_13 1_555 1_555
C41_13 N7_13 1_555 1_555
C42_13 N8_13 1_555 1_555
C47_13 C40_13 1_555 1_555
C48_13 C41_13 1_555 1_555
C49_13 C42_13 1_555 1_555
H29_13 C47_13 1_555 1_555
H30_13 C48_13 1_555 1_555
H31_13 C49_13 1_555 1_555
C54_13 C19_13 1_555 1_555
C55_13 C20_13 1_555 1_555
C56_13 C21_13 1_555 1_555
H36_13 C54_13 1_555 1_555
H37_13 C55_13 1_555 1_555
H38_13 C56_13 1_555 1_555
C61_13 N6_13 1_555 1_555
C62_13 N7_13 1_555 1_555
C63_13 N8_13 1_555 1_555
C66_21 O27_21 1_555 1_555
C67_23 O28_23 1_555 1_555
C4_13 C5_13 1_555 1_555
C6_13 C7_13 1_555 1_555
N11_21 C61_13 1_555 1_555
N12_23 C63_13 1_555 1_555
N28_5 C66_21 1_555 1_555
N25_9 C62_13 1_555 1_555
N25_9 C67_23 1_555 1_555
N27_5 C63_13 1_555 1_555
N27_5 C67_23 1_555 1_555
C33_13 C40_13 1_555 1_555
C34_13 C41_13 1_555 1_555
C35_13 C42_13 1_555 1_555
C47_13 C54_13 1_555 1_555
C48_13 C55_13 1_555 1_555
C49_13 C56_13 1_555 1_555
Na1_38 O3_22 1_555 1_555
O3_22 C9_22 1_555 1_555
O4_38 Na1_38 1_555 1_555
Cd11_13 O10_13 1_555 1_555
Cd12_13 O11_13 1_555 1_555
O15_7 C10_13 1_555 1_555
O12_7 C11_13 1_555 1_555
O10_13 C15_13 1_555 1_555
O11_13 C16_13 1_555 1_555
O21_13 Cd11_13 1_555 1_555
O22_13 Cd12_13 1_555 1_555
O27_22 Na1_38 1_555 1_555
O29_23 Na1_38 1_555 1_555
O30_38 Na1_38 1_555 1_555
N4_13 H6_13 1_555 1_555
N5_13 H7_13 1_555 1_555
N9_13 H11_13 1_555 1_555
N10_13 H12_13 1_555 1_555
N11_22 C60_13 1_555 1_555
N13_23 C64_13 1_555 1_555
N23_8 C9_22 1_555 1_555
N26_7 C60_13 1_555 1_555
C10_13 O26_7 1_555 1_555
C11_13 O23_7 1_555 1_555
C15_13 O21_13 1_555 1_555
C16_13 O22_13 1_555 1_555
C17_13 C10_13 1_555 1_555
C18_13 C11_13 1_555 1_555
C22_13 C15_13 1_555 1_555
C23_13 C16_13 1_555 1_555
C24_13 C17_13 1_555 1_555
C25_13 C18_13 1_555 1_555
C29_13 C22_13 1_555 1_555
C30_13 C23_13 1_555 1_555
H13_13 C24_13 1_555 1_555
H14_13 C25_13 1_555 1_555
H18_13 C29_13 1_555 1_555
H19_13 C30_13 1_555 1_555
C31_13 C24_13 1_555 1_555
C32_13 C25_13 1_555 1_555
C36_13 C29_13 1_555 1_555
C37_13 C30_13 1_555 1_555
H20_13 C31_13 1_555 1_555
H21_13 C32_13 1_555 1_555
H25_13 C36_13 1_555 1_555
H26_13 C37_13 1_555 1_555
C38_13 N4_13 1_555 1_555
C39_13 N5_13 1_555 1_555
C43_13 N9_13 1_555 1_555
C44_13 N10_13 1_555 1_555
C45_13 C38_13 1_555 1_555
C46_13 C39_13 1_555 1_555
C50_13 C43_13 1_555 1_555
C51_13 C44_13 1_555 1_555
H27_13 C45_13 1_555 1_555
H28_13 C46_13 1_555 1_555
H32_13 C50_13 1_555 1_555
H33_13 C51_13 1_555 1_555
C52_13 C17_13 1_555 1_555
C53_13 C18_13 1_555 1_555
C57_13 C22_13 1_555 1_555
C58_13 C23_13 1_555 1_555
H34_13 C52_13 1_555 1_555
H35_13 C53_13 1_555 1_555
H39_13 C57_13 1_555 1_555
H40_13 C58_13 1_555 1_555
C59_13 N2_22 1_555 1_555
C60_13 N5_13 1_555 1_555
C64_13 N9_13 1_555 1_555
C65_13 N10_13 1_555 1_555
C66_22 O27_22 1_555 1_555
C68_23 O29_23 1_555 1_555
N4_13 C59_13 1_555 1_555
N13_23 C65_13 1_555 1_555
N23_8 C59_13 1_555 1_555
N26_7 C66_22 1_555 1_555
N25_7 C64_13 1_555 1_555
N25_7 C68_23 1_555 1_555
N24_8 C65_13 1_555 1_555
N24_8 C68_23 1_555 1_555
C31_13 C38_13 1_555 1_555
C32_13 C39_13 1_555 1_555
C36_13 C43_13 1_555 1_555
C37_13 C44_13 1_555 1_555
C45_13 C52_13 1_555 1_555
C46_13 C53_13 1_555 1_555
C50_13 C57_13 1_555 1_555
C51_13 C58_13 1_555 1_555
Na1_39 O3_23 1_555 1_555
O14_8 C1_14 1_555 1_555
O3_23 C9_23 1_555 1_555
O4_39 Na1_39 1_555 1_555
N1_14 H1_14 1_555 1_555
N2_23 C8_14 1_555 1_555
N22_5 C8_14 1_555 1_555
C1_14 O25_8 1_555 1_555
C2_14 C1_14 1_555 1_555
C3_14 C2_14 1_555 1_555
H2_14 C3_14 1_555 1_555
C4_14 C3_14 1_555 1_555
H3_14 C4_14 1_555 1_555
C5_14 N1_14 1_555 1_555
C6_14 C5_14 1_555 1_555
H4_14 C6_14 1_555 1_555
C7_14 C2_14 1_555 1_555
H5_14 C7_14 1_555 1_555
C8_14 N1_14 1_555 1_555
C9_23 N22_5 1_555 1_555
Cd9_14 O8_14 1_555 1_555
Cd10_14 O9_14 1_555 1_555
O13_8 C12_14 1_555 1_555
O8_14 C13_14 1_555 1_555
O9_14 C14_14 1_555 1_555
O19_14 Cd9_14 1_555 1_555
O20_14 Cd10_14 1_555 1_555
O27_23 Na1_39 1_555 1_555
O28_24 Na1_39 1_555 1_555
O30_39 Na1_39 1_555 1_555
N6_14 H8_14 1_555 1_555
N7_14 H9_14 1_555 1_555
N8_14 H10_14 1_555 1_555
N12_24 C62_14 1_555 1_555
N24_9 C61_14 1_555 1_555
C12_14 O24_8 1_555 1_555
C13_14 O19_14 1_555 1_555
C14_14 O20_14 1_555 1_555
C19_14 C12_14 1_555 1_555
C20_14 C13_14 1_555 1_555
C21_14 C14_14 1_555 1_555
C26_14 C19_14 1_555 1_555
C27_14 C20_14 1_555 1_555
C28_14 C21_14 1_555 1_555
H15_14 C26_14 1_555 1_555
H16_14 C27_14 1_555 1_555
H17_14 C28_14 1_555 1_555
C33_14 C26_14 1_555 1_555
C34_14 C27_14 1_555 1_555
C35_14 C28_14 1_555 1_555
H22_14 C33_14 1_555 1_555
H23_14 C34_14 1_555 1_555
H24_14 C35_14 1_555 1_555
C40_14 N6_14 1_555 1_555
C41_14 N7_14 1_555 1_555
C42_14 N8_14 1_555 1_555
C47_14 C40_14 1_555 1_555
C48_14 C41_14 1_555 1_555
C49_14 C42_14 1_555 1_555
H29_14 C47_14 1_555 1_555
H30_14 C48_14 1_555 1_555
H31_14 C49_14 1_555 1_555
C54_14 C19_14 1_555 1_555
C55_14 C20_14 1_555 1_555
C56_14 C21_14 1_555 1_555
H36_14 C54_14 1_555 1_555
H37_14 C55_14 1_555 1_555
H38_14 C56_14 1_555 1_555
C61_14 N6_14 1_555 1_555
C62_14 N7_14 1_555 1_555
C63_14 N8_14 1_555 1_555
C66_23 O27_23 1_555 1_555
C67_24 O28_24 1_555 1_555
C4_14 C5_14 1_555 1_555
C6_14 C7_14 1_555 1_555
N11_23 C61_14 1_555 1_555
N12_24 C63_14 1_555 1_555
N24_9 C66_23 1_555 1_555
N21_5 C62_14 1_555 1_555
N21_5 C67_24 1_555 1_555
N23_9 C63_14 1_555 1_555
N23_9 C67_24 1_555 1_555
C33_14 C40_14 1_555 1_555
C34_14 C41_14 1_555 1_555
C35_14 C42_14 1_555 1_555
C47_14 C54_14 1_555 1_555
C48_14 C55_14 1_555 1_555
C49_14 C56_14 1_555 1_555
Na1_40 O3_24 1_555 1_555
O3_24 C9_24 1_555 1_555
O4_40 Na1_40 1_555 1_555
Cd11_14 O10_14 1_555 1_555
Cd12_14 O11_14 1_555 1_555
O13_9 C10_14 1_555 1_555
O14_9 C11_14 1_555 1_555
O10_14 C15_14 1_555 1_555
O11_14 C16_14 1_555 1_555
O21_14 Cd11_14 1_555 1_555
O22_14 Cd12_14 1_555 1_555
O27_24 Na1_40 1_555 1_555
O29_24 Na1_40 1_555 1_555
O30_40 Na1_40 1_555 1_555
N4_14 H6_14 1_555 1_555
N5_14 H7_14 1_555 1_555
N9_14 H11_14 1_555 1_555
N10_14 H12_14 1_555 1_555
N11_24 C60_14 1_555 1_555
N13_24 C64_14 1_555 1_555
N24_7 C9_24 1_555 1_555
N25_8 C60_14 1_555 1_555
C10_14 O24_9 1_555 1_555
C11_14 O25_9 1_555 1_555
C15_14 O21_14 1_555 1_555
C16_14 O22_14 1_555 1_555
C17_14 C10_14 1_555 1_555
C18_14 C11_14 1_555 1_555
C22_14 C15_14 1_555 1_555
C23_14 C16_14 1_555 1_555
C24_14 C17_14 1_555 1_555
C25_14 C18_14 1_555 1_555
C29_14 C22_14 1_555 1_555
C30_14 C23_14 1_555 1_555
H13_14 C24_14 1_555 1_555
H14_14 C25_14 1_555 1_555
H18_14 C29_14 1_555 1_555
H19_14 C30_14 1_555 1_555
C31_14 C24_14 1_555 1_555
C32_14 C25_14 1_555 1_555
C36_14 C29_14 1_555 1_555
C37_14 C30_14 1_555 1_555
H20_14 C31_14 1_555 1_555
H21_14 C32_14 1_555 1_555
H25_14 C36_14 1_555 1_555
H26_14 C37_14 1_555 1_555
C38_14 N4_14 1_555 1_555
C39_14 N5_14 1_555 1_555
C43_14 N9_14 1_555 1_555
C44_14 N10_14 1_555 1_555
C45_14 C38_14 1_555 1_555
C46_14 C39_14 1_555 1_555
C50_14 C43_14 1_555 1_555
C51_14 C44_14 1_555 1_555
H27_14 C45_14 1_555 1_555
H28_14 C46_14 1_555 1_555
H32_14 C50_14 1_555 1_555
H33_14 C51_14 1_555 1_555
C52_14 C17_14 1_555 1_555
C53_14 C18_14 1_555 1_555
C57_14 C22_14 1_555 1_555
C58_14 C23_14 1_555 1_555
H34_14 C52_14 1_555 1_555
H35_14 C53_14 1_555 1_555
H39_14 C57_14 1_555 1_555
H40_14 C58_14 1_555 1_555
C59_14 N2_24 1_555 1_555
C60_14 N5_14 1_555 1_555
C64_14 N9_14 1_555 1_555
C65_14 N10_14 1_555 1_555
C66_24 O27_24 1_555 1_555
C68_24 O29_24 1_555 1_555
N4_14 C59_14 1_555 1_555
N13_24 C65_14 1_555 1_555
N24_7 C59_14 1_555 1_555
N25_8 C66_24 1_555 1_555
N26_8 C64_14 1_555 1_555
N26_8 C68_24 1_555 1_555
N23_7 C65_14 1_555 1_555
N23_7 C68_24 1_555 1_555
C31_14 C38_14 1_555 1_555
C32_14 C39_14 1_555 1_555
C36_14 C43_14 1_555 1_555
C37_14 C44_14 1_555 1_555
C45_14 C52_14 1_555 1_555
C46_14 C53_14 1_555 1_555
C50_14 C57_14 1_555 1_555
C51_14 C58_14 1_555 1_555
O13_14 Cd12_3 1_555 1_555
O24_14 Cd12_3 1_555 1_555
O12_11 Cd11_3 1_555 1_555
O23_11 Cd11_3 1_555 1_555
O14_14 Cd9_3 1_555 1_555
O25_14 Cd9_3 1_555 1_555
O15_11 Cd10_3 1_555 1_555
O26_11 Cd10_3 1_555 1_555
O12_12 Cd9_14 1_555 1_555
O13_15 Cd10_14 1_555 1_555
O23_12 Cd9_14 1_555 1_555
O24_15 Cd10_14 1_555 1_555
N21_6 Cd9_14 1_555 1_555
N22_6 Cd9_14 1_555 1_555
N23_10 Cd10_14 1_555 1_555
N24_10 Cd10_14 1_555 1_555
O14_15 Cd11_14 1_555 1_555
O15_12 Cd12_14 1_555 1_555
O25_15 Cd11_14 1_555 1_555
O26_12 Cd12_14 1_555 1_555
N25_10 Cd11_14 1_555 1_555
N26_10 Cd11_14 1_555 1_555
N27_6 Cd12_14 1_555 1_555
N28_6 Cd12_14 1_555 1_555
Na1_41 O3_25 1_555 1_555
O12_2 C1_15 1_555 1_555
O3_25 C9_25 1_555 1_555
O4_41 Na1_41 1_555 1_555
N1_15 H1_15 1_555 1_555
N2_25 C8_15 1_555 1_555
N21_6 C8_15 1_555 1_555
C1_15 O23_2 1_555 1_555
C2_15 C1_15 1_555 1_555
C3_15 C2_15 1_555 1_555
H2_15 C3_15 1_555 1_555
C4_15 C3_15 1_555 1_555
H3_15 C4_15 1_555 1_555
C5_15 N1_15 1_555 1_555
C6_15 C5_15 1_555 1_555
H4_15 C6_15 1_555 1_555
C7_15 C2_15 1_555 1_555
H5_15 C7_15 1_555 1_555
C8_15 N1_15 1_555 1_555
C9_25 N21_6 1_555 1_555
Cd10_13 N14_9 1_555 1_555
Cd9_13 N15_9 1_555 1_555
Cd9_15 O8_15 1_555 1_555
Cd10_15 O9_15 1_555 1_555
Cd11_15 O10_15 1_555 1_555
Cd12_15 O11_15 1_555 1_555
O15_3 C10_15 1_555 1_555
O12_3 C11_15 1_555 1_555
O15_2 C12_15 1_555 1_555
O8_15 C13_15 1_555 1_555
O9_15 C14_15 1_555 1_555
O10_15 C15_15 1_555 1_555
O11_15 C16_15 1_555 1_555
O19_15 Cd9_15 1_555 1_555
O20_15 Cd10_15 1_555 1_555
O21_15 Cd11_15 1_555 1_555
O22_15 Cd12_15 1_555 1_555
O27_25 Na1_41 1_555 1_555
O28_25 Na1_41 1_555 1_555
O29_25 Na1_41 1_555 1_555
O30_41 Na1_41 1_555 1_555
N4_15 H6_15 1_555 1_555
N5_15 H7_15 1_555 1_555
N6_15 H8_15 1_555 1_555
N7_15 H9_15 1_555 1_555
N8_15 H10_15 1_555 1_555
N9_15 H11_15 1_555 1_555
N10_15 H12_15 1_555 1_555
N11_25 C60_15 1_555 1_555
N12_25 C62_15 1_555 1_555
N13_25 C64_15 1_555 1_555
N14_9 C9_25 1_555 1_555
N15_9 C60_15 1_555 1_555
N23_10 C61_15 1_555 1_555
N19_9 Cd9_13 1_555 1_555
N20_9 Cd10_13 1_555 1_555
C10_15 O26_3 1_555 1_555
C11_15 O23_3 1_555 1_555
C12_15 O26_2 1_555 1_555
C13_15 O19_15 1_555 1_555
C14_15 O20_15 1_555 1_555
C15_15 O21_15 1_555 1_555
C16_15 O22_15 1_555 1_555
C17_15 C10_15 1_555 1_555
C18_15 C11_15 1_555 1_555
C19_15 C12_15 1_555 1_555
C20_15 C13_15 1_555 1_555
C21_15 C14_15 1_555 1_555
C22_15 C15_15 1_555 1_555
C23_15 C16_15 1_555 1_555
C24_15 C17_15 1_555 1_555
C25_15 C18_15 1_555 1_555
C26_15 C19_15 1_555 1_555
C27_15 C20_15 1_555 1_555
C28_15 C21_15 1_555 1_555
C29_15 C22_15 1_555 1_555
C30_15 C23_15 1_555 1_555
H13_15 C24_15 1_555 1_555
H14_15 C25_15 1_555 1_555
H15_15 C26_15 1_555 1_555
H16_15 C27_15 1_555 1_555
H17_15 C28_15 1_555 1_555
H18_15 C29_15 1_555 1_555
H19_15 C30_15 1_555 1_555
C31_15 C24_15 1_555 1_555
C32_15 C25_15 1_555 1_555
C33_15 C26_15 1_555 1_555
C34_15 C27_15 1_555 1_555
C35_15 C28_15 1_555 1_555
C36_15 C29_15 1_555 1_555
C37_15 C30_15 1_555 1_555
H20_15 C31_15 1_555 1_555
H21_15 C32_15 1_555 1_555
H22_15 C33_15 1_555 1_555
H23_15 C34_15 1_555 1_555
H24_15 C35_15 1_555 1_555
H25_15 C36_15 1_555 1_555
H26_15 C37_15 1_555 1_555
C38_15 N4_15 1_555 1_555
C39_15 N5_15 1_555 1_555
C40_15 N6_15 1_555 1_555
C41_15 N7_15 1_555 1_555
C42_15 N8_15 1_555 1_555
C43_15 N9_15 1_555 1_555
C44_15 N10_15 1_555 1_555
C45_15 C38_15 1_555 1_555
C46_15 C39_15 1_555 1_555
C47_15 C40_15 1_555 1_555
C48_15 C41_15 1_555 1_555
C49_15 C42_15 1_555 1_555
C50_15 C43_15 1_555 1_555
C51_15 C44_15 1_555 1_555
H27_15 C45_15 1_555 1_555
H28_15 C46_15 1_555 1_555
H29_15 C47_15 1_555 1_555
H30_15 C48_15 1_555 1_555
H31_15 C49_15 1_555 1_555
H32_15 C50_15 1_555 1_555
H33_15 C51_15 1_555 1_555
C52_15 C17_15 1_555 1_555
C53_15 C18_15 1_555 1_555
C54_15 C19_15 1_555 1_555
C55_15 C20_15 1_555 1_555
C56_15 C21_15 1_555 1_555
C57_15 C22_15 1_555 1_555
C58_15 C23_15 1_555 1_555
H34_15 C52_15 1_555 1_555
H35_15 C53_15 1_555 1_555
H36_15 C54_15 1_555 1_555
H37_15 C55_15 1_555 1_555
H38_15 C56_15 1_555 1_555
H39_15 C57_15 1_555 1_555
H40_15 C58_15 1_555 1_555
C59_15 N2_25 1_555 1_555
C60_15 N5_15 1_555 1_555
C61_15 N6_15 1_555 1_555
C62_15 N7_15 1_555 1_555
C63_15 N8_15 1_555 1_555
C64_15 N9_15 1_555 1_555
C65_15 N10_15 1_555 1_555
C66_25 O27_25 1_555 1_555
C67_25 O28_25 1_555 1_555
C68_25 O29_25 1_555 1_555
C4_15 C5_15 1_555 1_555
C6_15 C7_15 1_555 1_555
N4_15 C59_15 1_555 1_555
N11_25 C61_15 1_555 1_555
N12_25 C63_15 1_555 1_555
N13_25 C65_15 1_555 1_555
N14_9 C59_15 1_555 1_555
N15_9 C66_25 1_555 1_555
N23_10 C66_25 1_555 1_555
N22_6 C62_15 1_555 1_555
N22_6 C67_25 1_555 1_555
N24_10 C63_15 1_555 1_555
N24_10 C67_25 1_555 1_555
N19_9 C64_15 1_555 1_555
N19_9 C68_25 1_555 1_555
N20_9 C65_15 1_555 1_555
N20_9 C68_25 1_555 1_555
C31_15 C38_15 1_555 1_555
C32_15 C39_15 1_555 1_555
C33_15 C40_15 1_555 1_555
C34_15 C41_15 1_555 1_555
C35_15 C42_15 1_555 1_555
C36_15 C43_15 1_555 1_555
C37_15 C44_15 1_555 1_555
C45_15 C52_15 1_555 1_555
C46_15 C53_15 1_555 1_555
C47_15 C54_15 1_555 1_555
C48_15 C55_15 1_555 1_555
C49_15 C56_15 1_555 1_555
C50_15 C57_15 1_555 1_555
C51_15 C58_15 1_555 1_555
Na1_42 O3_26 1_555 1_555
O14_4 C1_16 1_555 1_555
O3_26 C9_26 1_555 1_555
O4_42 Na1_42 1_555 1_555
N1_16 H1_16 1_555 1_555
N2_26 C8_16 1_555 1_555
N25_10 C8_16 1_555 1_555
C1_16 O25_4 1_555 1_555
C2_16 C1_16 1_555 1_555
C3_16 C2_16 1_555 1_555
H2_16 C3_16 1_555 1_555
C4_16 C3_16 1_555 1_555
H3_16 C4_16 1_555 1_555
C5_16 N1_16 1_555 1_555
C6_16 C5_16 1_555 1_555
H4_16 C6_16 1_555 1_555
C7_16 C2_16 1_555 1_555
H5_16 C7_16 1_555 1_555
C8_16 N1_16 1_555 1_555
C9_26 N25_10 1_555 1_555
Cd12_13 N14_10 1_555 1_555
Cd11_13 N15_10 1_555 1_555
Cd9_16 O8_16 1_555 1_555
Cd10_16 O9_16 1_555 1_555
Cd11_16 O10_16 1_555 1_555
Cd12_16 O11_16 1_555 1_555
O13_5 C10_16 1_555 1_555
O14_5 C11_16 1_555 1_555
O13_4 C12_16 1_555 1_555
O8_16 C13_16 1_555 1_555
O9_16 C14_16 1_555 1_555
O10_16 C15_16 1_555 1_555
O11_16 C16_16 1_555 1_555
O19_16 Cd9_16 1_555 1_555
O20_16 Cd10_16 1_555 1_555
O21_16 Cd11_16 1_555 1_555
O22_16 Cd12_16 1_555 1_555
O27_26 Na1_42 1_555 1_555
O28_26 Na1_42 1_555 1_555
O29_26 Na1_42 1_555 1_555
O30_42 Na1_42 1_555 1_555
N4_16 H6_16 1_555 1_555
N5_16 H7_16 1_555 1_555
N6_16 H8_16 1_555 1_555
N7_16 H9_16 1_555 1_555
N8_16 H10_16 1_555 1_555
N9_16 H11_16 1_555 1_555
N10_16 H12_16 1_555 1_555
N11_26 C60_16 1_555 1_555
N12_26 C62_16 1_555 1_555
N13_26 C64_16 1_555 1_555
N14_10 C9_26 1_555 1_555
N15_10 C60_16 1_555 1_555
N27_6 C61_16 1_555 1_555
N19_10 Cd11_13 1_555 1_555
N20_10 Cd12_13 1_555 1_555
C10_16 O24_5 1_555 1_555
C11_16 O25_5 1_555 1_555
C12_16 O24_4 1_555 1_555
C13_16 O19_16 1_555 1_555
C14_16 O20_16 1_555 1_555
C15_16 O21_16 1_555 1_555
C16_16 O22_16 1_555 1_555
C17_16 C10_16 1_555 1_555
C18_16 C11_16 1_555 1_555
C19_16 C12_16 1_555 1_555
C20_16 C13_16 1_555 1_555
C21_16 C14_16 1_555 1_555
C22_16 C15_16 1_555 1_555
C23_16 C16_16 1_555 1_555
C24_16 C17_16 1_555 1_555
C25_16 C18_16 1_555 1_555
C26_16 C19_16 1_555 1_555
C27_16 C20_16 1_555 1_555
C28_16 C21_16 1_555 1_555
C29_16 C22_16 1_555 1_555
C30_16 C23_16 1_555 1_555
H13_16 C24_16 1_555 1_555
H14_16 C25_16 1_555 1_555
H15_16 C26_16 1_555 1_555
H16_16 C27_16 1_555 1_555
H17_16 C28_16 1_555 1_555
H18_16 C29_16 1_555 1_555
H19_16 C30_16 1_555 1_555
C31_16 C24_16 1_555 1_555
C32_16 C25_16 1_555 1_555
C33_16 C26_16 1_555 1_555
C34_16 C27_16 1_555 1_555
C35_16 C28_16 1_555 1_555
C36_16 C29_16 1_555 1_555
C37_16 C30_16 1_555 1_555
H20_16 C31_16 1_555 1_555
H21_16 C32_16 1_555 1_555
H22_16 C33_16 1_555 1_555
H23_16 C34_16 1_555 1_555
H24_16 C35_16 1_555 1_555
H25_16 C36_16 1_555 1_555
H26_16 C37_16 1_555 1_555
C38_16 N4_16 1_555 1_555
C39_16 N5_16 1_555 1_555
C40_16 N6_16 1_555 1_555
C41_16 N7_16 1_555 1_555
C42_16 N8_16 1_555 1_555
C43_16 N9_16 1_555 1_555
C44_16 N10_16 1_555 1_555
C45_16 C38_16 1_555 1_555
C46_16 C39_16 1_555 1_555
C47_16 C40_16 1_555 1_555
C48_16 C41_16 1_555 1_555
C49_16 C42_16 1_555 1_555
C50_16 C43_16 1_555 1_555
C51_16 C44_16 1_555 1_555
H27_16 C45_16 1_555 1_555
H28_16 C46_16 1_555 1_555
H29_16 C47_16 1_555 1_555
H30_16 C48_16 1_555 1_555
H31_16 C49_16 1_555 1_555
H32_16 C50_16 1_555 1_555
H33_16 C51_16 1_555 1_555
C52_16 C17_16 1_555 1_555
C53_16 C18_16 1_555 1_555
C54_16 C19_16 1_555 1_555
C55_16 C20_16 1_555 1_555
C56_16 C21_16 1_555 1_555
C57_16 C22_16 1_555 1_555
C58_16 C23_16 1_555 1_555
H34_16 C52_16 1_555 1_555
H35_16 C53_16 1_555 1_555
H36_16 C54_16 1_555 1_555
H37_16 C55_16 1_555 1_555
H38_16 C56_16 1_555 1_555
H39_16 C57_16 1_555 1_555
H40_16 C58_16 1_555 1_555
C59_16 N2_26 1_555 1_555
C60_16 N5_16 1_555 1_555
C61_16 N6_16 1_555 1_555
C62_16 N7_16 1_555 1_555
C63_16 N8_16 1_555 1_555
C64_16 N9_16 1_555 1_555
C65_16 N10_16 1_555 1_555
C66_26 O27_26 1_555 1_555
C67_26 O28_26 1_555 1_555
C68_26 O29_26 1_555 1_555
C4_16 C5_16 1_555 1_555
C6_16 C7_16 1_555 1_555
N4_16 C59_16 1_555 1_555
N11_26 C61_16 1_555 1_555
N12_26 C63_16 1_555 1_555
N13_26 C65_16 1_555 1_555
N14_10 C59_16 1_555 1_555
N15_10 C66_26 1_555 1_555
N27_6 C66_26 1_555 1_555
N26_10 C62_16 1_555 1_555
N26_10 C67_26 1_555 1_555
N28_6 C63_16 1_555 1_555
N28_6 C67_26 1_555 1_555
N19_10 C64_16 1_555 1_555
N19_10 C68_26 1_555 1_555
N20_10 C65_16 1_555 1_555
N20_10 C68_26 1_555 1_555
C31_16 C38_16 1_555 1_555
C32_16 C39_16 1_555 1_555
C33_16 C40_16 1_555 1_555
C34_16 C41_16 1_555 1_555
C35_16 C42_16 1_555 1_555
C36_16 C43_16 1_555 1_555
C37_16 C44_16 1_555 1_555
C45_16 C52_16 1_555 1_555
C46_16 C53_16 1_555 1_555
C47_16 C54_16 1_555 1_555
C48_16 C55_16 1_555 1_555
C49_16 C56_16 1_555 1_555
C50_16 C57_16 1_555 1_555
C51_16 C58_16 1_555 1_555
O12_13 Cd9_13 1_555 1_555
O13_16 Cd10_13 1_555 1_555
O23_13 Cd9_13 1_555 1_555
O24_16 Cd10_13 1_555 1_555
O14_16 Cd11_13 1_555 1_555
O15_13 Cd12_13 1_555 1_555
O25_16 Cd11_13 1_555 1_555
O26_13 Cd12_13 1_555 1_555
O12_14 Cd9 1_555 1_555
O23_14 Cd9 1_555 1_555
O13_17 Cd10 1_555 1_555
O24_17 Cd10 1_555 1_555
O15_14 Cd12 1_555 1_555
O26_14 Cd12 1_555 1_555
O14_17 Cd11 1_555 1_555
O25_17 Cd11 1_555 1_555
Cd11_9 O1_8 1_555 1_555
Na1_43 O3_27 1_555 1_555
O1_8 C1_17 1_555 1_555
O2_8 Cd11_9 1_555 1_555
O3_27 C9_27 1_555 1_555
O4_43 Na1_43 1_555 1_555
N1_17 H1_17 1_555 1_555
N2_27 C8_17 1_555 1_555
N3_7 C8_17 1_555 1_555
C1_17 O2_8 1_555 1_555
C2_17 C1_17 1_555 1_555
C3_17 C2_17 1_555 1_555
H2_17 C3_17 1_555 1_555
C4_17 C3_17 1_555 1_555
H3_17 C4_17 1_555 1_555
C5_17 N1_17 1_555 1_555
C6_17 C5_17 1_555 1_555
H4_17 C6_17 1_555 1_555
C7_17 C2_17 1_555 1_555
H5_17 C7_17 1_555 1_555
C8_17 N1_17 1_555 1_555
C9_27 N3_7 1_555 1_555
Cd12_8 O5_11 1_555 1_555
Cd9_8 O6_11 1_555 1_555
Cd10_9 O7_8 1_555 1_555
Cd9_2 N3_7 1_555 1_555
Cd12_4 N14_11 1_555 1_555
Cd11_4 N15_11 1_555 1_555
Cd10_2 N16_7 1_555 1_555
O5_11 C10_17 1_555 1_555
O6_11 C11_17 1_555 1_555
O7_8 C12_17 1_555 1_555
O14_15 C13_17 1_555 1_555
O15_13 C14_17 1_555 1_555
O12_13 C15_17 1_555 1_555
O13_15 C16_17 1_555 1_555
O16_11 Cd12_8 1_555 1_555
O17_11 Cd9_8 1_555 1_555
O18_8 Cd10_9 1_555 1_555
O27_27 Na1_43 1_555 1_555
O28_27 Na1_43 1_555 1_555
O29_27 Na1_43 1_555 1_555
O30_43 Na1_43 1_555 1_555
N4_17 H6_17 1_555 1_555
N5_17 H7_17 1_555 1_555
N6_17 H8_17 1_555 1_555
N7_17 H9_17 1_555 1_555
N8_17 H10_17 1_555 1_555
N9_17 H11_17 1_555 1_555
N10_17 H12_17 1_555 1_555
N11_27 C60_17 1_555 1_555
N12_27 C62_17 1_555 1_555
N13_27 C64_17 1_555 1_555
N14_11 C9_27 1_555 1_555
N15_11 C60_17 1_555 1_555
N16_7 C61_17 1_555 1_555
N17_7 Cd9_2 1_555 1_555
N18_7 Cd10_2 1_555 1_555
N19_11 Cd11_4 1_555 1_555
N20_11 Cd12_4 1_555 1_555
N21_7 Cd11_9 1_555 1_555
N22_7 Cd11_9 1_555 1_555
N23_11 Cd12_8 1_555 1_555
N24_11 Cd12_8 1_555 1_555
N25_11 Cd9_8 1_555 1_555
N26_11 Cd9_8 1_555 1_555
N27_7 Cd10_9 1_555 1_555
N28_7 Cd10_9 1_555 1_555
C10_17 O16_11 1_555 1_555
C11_17 O17_11 1_555 1_555
C12_17 O18_8 1_555 1_555
C13_17 O25_15 1_555 1_555
C14_17 O26_13 1_555 1_555
C15_17 O23_13 1_555 1_555
C16_17 O24_15 1_555 1_555
C17_17 C10_17 1_555 1_555
C18_17 C11_17 1_555 1_555
C19_17 C12_17 1_555 1_555
C20_17 C13_17 1_555 1_555
C21_17 C14_17 1_555 1_555
C22_17 C15_17 1_555 1_555
C23_17 C16_17 1_555 1_555
C24_17 C17_17 1_555 1_555
C25_17 C18_17 1_555 1_555
C26_17 C19_17 1_555 1_555
C27_17 C20_17 1_555 1_555
C28_17 C21_17 1_555 1_555
C29_17 C22_17 1_555 1_555
C30_17 C23_17 1_555 1_555
H13_17 C24_17 1_555 1_555
H14_17 C25_17 1_555 1_555
H15_17 C26_17 1_555 1_555
H16_17 C27_17 1_555 1_555
H17_17 C28_17 1_555 1_555
H18_17 C29_17 1_555 1_555
H19_17 C30_17 1_555 1_555
C31_17 C24_17 1_555 1_555
C32_17 C25_17 1_555 1_555
C33_17 C26_17 1_555 1_555
C34_17 C27_17 1_555 1_555
C35_17 C28_17 1_555 1_555
C36_17 C29_17 1_555 1_555
C37_17 C30_17 1_555 1_555
H20_17 C31_17 1_555 1_555
H21_17 C32_17 1_555 1_555
H22_17 C33_17 1_555 1_555
H23_17 C34_17 1_555 1_555
H24_17 C35_17 1_555 1_555
H25_17 C36_17 1_555 1_555
H26_17 C37_17 1_555 1_555
C38_17 N4_17 1_555 1_555
C39_17 N5_17 1_555 1_555
C40_17 N6_17 1_555 1_555
C41_17 N7_17 1_555 1_555
C42_17 N8_17 1_555 1_555
C43_17 N9_17 1_555 1_555
C44_17 N10_17 1_555 1_555
C45_17 C38_17 1_555 1_555
C46_17 C39_17 1_555 1_555
C47_17 C40_17 1_555 1_555
C48_17 C41_17 1_555 1_555
C49_17 C42_17 1_555 1_555
C50_17 C43_17 1_555 1_555
C51_17 C44_17 1_555 1_555
H27_17 C45_17 1_555 1_555
H28_17 C46_17 1_555 1_555
H29_17 C47_17 1_555 1_555
H30_17 C48_17 1_555 1_555
H31_17 C49_17 1_555 1_555
H32_17 C50_17 1_555 1_555
H33_17 C51_17 1_555 1_555
C52_17 C17_17 1_555 1_555
C53_17 C18_17 1_555 1_555
C54_17 C19_17 1_555 1_555
C55_17 C20_17 1_555 1_555
C56_17 C21_17 1_555 1_555
C57_17 C22_17 1_555 1_555
C58_17 C23_17 1_555 1_555
H34_17 C52_17 1_555 1_555
H35_17 C53_17 1_555 1_555
H36_17 C54_17 1_555 1_555
H37_17 C55_17 1_555 1_555
H38_17 C56_17 1_555 1_555
H39_17 C57_17 1_555 1_555
H40_17 C58_17 1_555 1_555
C59_17 N2_27 1_555 1_555
C60_17 N5_17 1_555 1_555
C61_17 N6_17 1_555 1_555
C62_17 N7_17 1_555 1_555
C63_17 N8_17 1_555 1_555
C64_17 N9_17 1_555 1_555
C65_17 N10_17 1_555 1_555
C66_27 O27_27 1_555 1_555
C67_27 O28_27 1_555 1_555
C68_27 O29_27 1_555 1_555
C4_17 C5_17 1_555 1_555
C6_17 C7_17 1_555 1_555
N4_17 C59_17 1_555 1_555
N11_27 C61_17 1_555 1_555
N12_27 C63_17 1_555 1_555
N13_27 C65_17 1_555 1_555
N14_11 C59_17 1_555 1_555
N15_11 C66_27 1_555 1_555
N16_7 C66_27 1_555 1_555
N17_7 C62_17 1_555 1_555
N17_7 C67_27 1_555 1_555
N18_7 C63_17 1_555 1_555
N18_7 C67_27 1_555 1_555
N19_11 C64_17 1_555 1_555
N19_11 C68_27 1_555 1_555
N20_11 C65_17 1_555 1_555
N20_11 C68_27 1_555 1_555
C31_17 C38_17 1_555 1_555
C32_17 C39_17 1_555 1_555
C33_17 C40_17 1_555 1_555
C34_17 C41_17 1_555 1_555
C35_17 C42_17 1_555 1_555
C36_17 C43_17 1_555 1_555
C37_17 C44_17 1_555 1_555
C45_17 C52_17 1_555 1_555
C46_17 C53_17 1_555 1_555
C47_17 C54_17 1_555 1_555
C48_17 C55_17 1_555 1_555
C49_17 C56_17 1_555 1_555
C50_17 C57_17 1_555 1_555
C51_17 C58_17 1_555 1_555
O13_18 Cd10_8 1_555 1_555
O24_18 Cd10_8 1_555 1_555
N23_12 Cd10_8 1_555 1_555
N24_12 Cd10_8 1_555 1_555
O14_18 Cd11_8 1_555 1_555
O25_18 Cd11_8 1_555 1_555
N25_12 Cd11_8 1_555 1_555
N26_12 Cd11_8 1_555 1_555
Na1_44 O3_28 1_555 1_555
O14_18 C1_18 1_555 1_555
O3_28 C9_28 1_555 1_555
O4_44 Na1_44 1_555 1_555
N1_18 H1_18 1_555 1_555
N2_28 C8_18 1_555 1_555
N3_8 C8_18 1_555 1_555
C1_18 O25_18 1_555 1_555
C2_18 C1_18 1_555 1_555
C3_18 C2_18 1_555 1_555
H2_18 C3_18 1_555 1_555
C4_18 C3_18 1_555 1_555
H3_18 C4_18 1_555 1_555
C5_18 N1_18 1_555 1_555
C6_18 C5_18 1_555 1_555
H4_18 C6_18 1_555 1_555
C7_18 C2_18 1_555 1_555
H5_18 C7_18 1_555 1_555
C8_18 N1_18 1_555 1_555
C9_28 N3_8 1_555 1_555
Cd12_9 O5_12 1_555 1_555
Cd9_9 O6_12 1_555 1_555
Cd9_4 N3_8 1_555 1_555
Cd12_2 N14_12 1_555 1_555
Cd11_2 N15_12 1_555 1_555
Cd10_4 N16_8 1_555 1_555
O5_12 C10_18 1_555 1_555
O6_12 C11_18 1_555 1_555
O13_18 C12_18 1_555 1_555
O12_12 C13_18 1_555 1_555
O13_16 C14_18 1_555 1_555
O14_16 C15_18 1_555 1_555
O15_12 C16_18 1_555 1_555
O16_12 Cd12_9 1_555 1_555
O17_12 Cd9_9 1_555 1_555
O27_28 Na1_44 1_555 1_555
O28_28 Na1_44 1_555 1_555
O29_28 Na1_44 1_555 1_555
O30_44 Na1_44 1_555 1_555
N4_18 H6_18 1_555 1_555
N5_18 H7_18 1_555 1_555
N6_18 H8_18 1_555 1_555
N7_18 H9_18 1_555 1_555
N8_18 H10_18 1_555 1_555
N9_18 H11_18 1_555 1_555
N10_18 H12_18 1_555 1_555
N11_28 C60_18 1_555 1_555
N12_28 C62_18 1_555 1_555
N13_28 C64_18 1_555 1_555
N14_12 C9_28 1_555 1_555
N15_12 C60_18 1_555 1_555
N16_8 C61_18 1_555 1_555
N17_8 Cd9_4 1_555 1_555
N18_8 Cd10_4 1_555 1_555
N19_12 Cd11_2 1_555 1_555
N20_12 Cd12_2 1_555 1_555
N23_13 Cd12_9 1_555 1_555
N24_13 Cd12_9 1_555 1_555
N25_13 Cd9_9 1_555 1_555
N26_13 Cd9_9 1_555 1_555
C10_18 O16_12 1_555 1_555
C11_18 O17_12 1_555 1_555
C12_18 O24_18 1_555 1_555
C13_18 O23_12 1_555 1_555
C14_18 O24_16 1_555 1_555
C15_18 O25_16 1_555 1_555
C16_18 O26_12 1_555 1_555
C17_18 C10_18 1_555 1_555
C18_18 C11_18 1_555 1_555
C19_18 C12_18 1_555 1_555
C20_18 C13_18 1_555 1_555
C21_18 C14_18 1_555 1_555
C22_18 C15_18 1_555 1_555
C23_18 C16_18 1_555 1_555
C24_18 C17_18 1_555 1_555
C25_18 C18_18 1_555 1_555
C26_18 C19_18 1_555 1_555
C27_18 C20_18 1_555 1_555
C28_18 C21_18 1_555 1_555
C29_18 C22_18 1_555 1_555
C30_18 C23_18 1_555 1_555
H13_18 C24_18 1_555 1_555
H14_18 C25_18 1_555 1_555
H15_18 C26_18 1_555 1_555
H16_18 C27_18 1_555 1_555
H17_18 C28_18 1_555 1_555
H18_18 C29_18 1_555 1_555
H19_18 C30_18 1_555 1_555
C31_18 C24_18 1_555 1_555
C32_18 C25_18 1_555 1_555
C33_18 C26_18 1_555 1_555
C34_18 C27_18 1_555 1_555
C35_18 C28_18 1_555 1_555
C36_18 C29_18 1_555 1_555
C37_18 C30_18 1_555 1_555
H20_18 C31_18 1_555 1_555
H21_18 C32_18 1_555 1_555
H22_18 C33_18 1_555 1_555
H23_18 C34_18 1_555 1_555
H24_18 C35_18 1_555 1_555
H25_18 C36_18 1_555 1_555
H26_18 C37_18 1_555 1_555
C38_18 N4_18 1_555 1_555
C39_18 N5_18 1_555 1_555
C40_18 N6_18 1_555 1_555
C41_18 N7_18 1_555 1_555
C42_18 N8_18 1_555 1_555
C43_18 N9_18 1_555 1_555
C44_18 N10_18 1_555 1_555
C45_18 C38_18 1_555 1_555
C46_18 C39_18 1_555 1_555
C47_18 C40_18 1_555 1_555
C48_18 C41_18 1_555 1_555
C49_18 C42_18 1_555 1_555
C50_18 C43_18 1_555 1_555
C51_18 C44_18 1_555 1_555
H27_18 C45_18 1_555 1_555
H28_18 C46_18 1_555 1_555
H29_18 C47_18 1_555 1_555
H30_18 C48_18 1_555 1_555
H31_18 C49_18 1_555 1_555
H32_18 C50_18 1_555 1_555
H33_18 C51_18 1_555 1_555
C52_18 C17_18 1_555 1_555
C53_18 C18_18 1_555 1_555
C54_18 C19_18 1_555 1_555
C55_18 C20_18 1_555 1_555
C56_18 C21_18 1_555 1_555
C57_18 C22_18 1_555 1_555
C58_18 C23_18 1_555 1_555
H34_18 C52_18 1_555 1_555
H35_18 C53_18 1_555 1_555
H36_18 C54_18 1_555 1_555
H37_18 C55_18 1_555 1_555
H38_18 C56_18 1_555 1_555
H39_18 C57_18 1_555 1_555
H40_18 C58_18 1_555 1_555
C59_18 N2_28 1_555 1_555
C60_18 N5_18 1_555 1_555
C61_18 N6_18 1_555 1_555
C62_18 N7_18 1_555 1_555
C63_18 N8_18 1_555 1_555
C64_18 N9_18 1_555 1_555
C65_18 N10_18 1_555 1_555
C66_28 O27_28 1_555 1_555
C67_28 O28_28 1_555 1_555
C68_28 O29_28 1_555 1_555
C4_18 C5_18 1_555 1_555
C6_18 C7_18 1_555 1_555
N4_18 C59_18 1_555 1_555
N11_28 C61_18 1_555 1_555
N12_28 C63_18 1_555 1_555
N13_28 C65_18 1_555 1_555
N14_12 C59_18 1_555 1_555
N15_12 C66_28 1_555 1_555
N16_8 C66_28 1_555 1_555
N17_8 C62_18 1_555 1_555
N17_8 C67_28 1_555 1_555
N18_8 C63_18 1_555 1_555
N18_8 C67_28 1_555 1_555
N19_12 C64_18 1_555 1_555
N19_12 C68_28 1_555 1_555
N20_12 C65_18 1_555 1_555
N20_12 C68_28 1_555 1_555
C31_18 C38_18 1_555 1_555
C32_18 C39_18 1_555 1_555
C33_18 C40_18 1_555 1_555
C34_18 C41_18 1_555 1_555
C35_18 C42_18 1_555 1_555
C36_18 C43_18 1_555 1_555
C37_18 C44_18 1_555 1_555
C45_18 C52_18 1_555 1_555
C46_18 C53_18 1_555 1_555
C47_18 C54_18 1_555 1_555
C48_18 C55_18 1_555 1_555
C49_18 C56_18 1_555 1_555
C50_18 C57_18 1_555 1_555
C51_18 C58_18 1_555 1_555
O4_45 Na1_45 1_555 1_555
Cd9_12 O6_13 1_555 1_555
Cd12_11 O7_9 1_555 1_555
O6_13 C11_19 1_555 1_555
O7_9 C12_19 1_555 1_555
O15_4 C14_19 1_555 1_555
O12_4 C15_19 1_555 1_555
O17_13 Cd9_12 1_555 1_555
O18_9 Cd12_11 1_555 1_555
O27_29 Na1_45 1_555 1_555
O28_29 Na1_45 1_555 1_555
O29_29 Na1_45 1_555 1_555
O30_45 Na1_45 1_555 1_555
N5_19 H7_19 1_555 1_555
N6_19 H8_19 1_555 1_555
N8_19 H10_19 1_555 1_555
N9_19 H11_19 1_555 1_555
N11_29 C60_19 1_555 1_555
N13_29 C64_19 1_555 1_555
N26_11 C60_19 1_555 1_555
N28_7 C61_19 1_555 1_555
N25_14 Cd9_12 1_555 1_555
N26_14 Cd9_12 1_555 1_555
N27_8 Cd12_11 1_555 1_555
N28_8 Cd12_11 1_555 1_555
C11_19 O17_13 1_555 1_555
C12_19 O18_9 1_555 1_555
C14_19 O26_4 1_555 1_555
C15_19 O23_4 1_555 1_555
C18_19 C11_19 1_555 1_555
C19_19 C12_19 1_555 1_555
C21_19 C14_19 1_555 1_555
C22_19 C15_19 1_555 1_555
C25_19 C18_19 1_555 1_555
C26_19 C19_19 1_555 1_555
C28_19 C21_19 1_555 1_555
C29_19 C22_19 1_555 1_555
H14_19 C25_19 1_555 1_555
H15_19 C26_19 1_555 1_555
H17_19 C28_19 1_555 1_555
H18_19 C29_19 1_555 1_555
C32_19 C25_19 1_555 1_555
C33_19 C26_19 1_555 1_555
C35_19 C28_19 1_555 1_555
C36_19 C29_19 1_555 1_555
H21_19 C32_19 1_555 1_555
H22_19 C33_19 1_555 1_555
H24_19 C35_19 1_555 1_555
H25_19 C36_19 1_555 1_555
C39_19 N5_19 1_555 1_555
C40_19 N6_19 1_555 1_555
C42_19 N8_19 1_555 1_555
C43_19 N9_19 1_555 1_555
C46_19 C39_19 1_555 1_555
C47_19 C40_19 1_555 1_555
C49_19 C42_19 1_555 1_555
C50_19 C43_19 1_555 1_555
H28_19 C46_19 1_555 1_555
H29_19 C47_19 1_555 1_555
H31_19 C49_19 1_555 1_555
H32_19 C50_19 1_555 1_555
C53_19 C18_19 1_555 1_555
C54_19 C19_19 1_555 1_555
C56_19 C21_19 1_555 1_555
C57_19 C22_19 1_555 1_555
H35_19 C53_19 1_555 1_555
H36_19 C54_19 1_555 1_555
H38_19 C56_19 1_555 1_555
H39_19 C57_19 1_555 1_555
C60_19 N5_19 1_555 1_555
C61_19 N6_19 1_555 1_555
C63_19 N8_19 1_555 1_555
C64_19 N9_19 1_555 1_555
C66_29 O27_29 1_555 1_555
C67_29 O28_29 1_555 1_555
C68_29 O29_29 1_555 1_555
N11_29 C61_19 1_555 1_555
N12_29 C63_19 1_555 1_555
N26_11 C66_29 1_555 1_555
N28_7 C66_29 1_555 1_555
N27_7 C63_19 1_555 1_555
N27_7 C67_29 1_555 1_555
N25_11 C64_19 1_555 1_555
N25_11 C68_29 1_555 1_555
C32_19 C39_19 1_555 1_555
C33_19 C40_19 1_555 1_555
C35_19 C42_19 1_555 1_555
C36_19 C43_19 1_555 1_555
C46_19 C53_19 1_555 1_555
C47_19 C54_19 1_555 1_555
C49_19 C56_19 1_555 1_555
C50_19 C57_19 1_555 1_555
Cd9_11 O1_9 1_555 1_555
Na1_46 O3_29 1_555 1_555
O1_9 C1_19 1_555 1_555
O2_9 Cd9_11 1_555 1_555
O3_29 C9_29 1_555 1_555
O4_46 Na1_46 1_555 1_555
N1_19 H1_19 1_555 1_555
N2_29 C8_19 1_555 1_555
N26_13 C8_19 1_555 1_555
C1_19 O2_9 1_555 1_555
C2_19 C1_19 1_555 1_555
C3_19 C2_19 1_555 1_555
H2_19 C3_19 1_555 1_555
C4_19 C3_19 1_555 1_555
H3_19 C4_19 1_555 1_555
C5_19 N1_19 1_555 1_555
C6_19 C5_19 1_555 1_555
H4_19 C6_19 1_555 1_555
C7_19 C2_19 1_555 1_555
H5_19 C7_19 1_555 1_555
C8_19 N1_19 1_555 1_555
C9_29 N26_13 1_555 1_555
Cd12_12 O5_13 1_555 1_555
O5_13 C10_19 1_555 1_555
O14_11 C13_19 1_555 1_555
O13_11 C16_19 1_555 1_555
O16_13 Cd12_12 1_555 1_555
O28_30 Na1_46 1_555 1_555
O29_30 Na1_46 1_555 1_555
O30_46 Na1_46 1_555 1_555
N4_19 H6_19 1_555 1_555
N7_19 H9_19 1_555 1_555
N10_19 H12_19 1_555 1_555
N12_30 C62_19 1_555 1_555
N23_12 C9_29 1_555 1_555
N21_8 Cd9_11 1_555 1_555
N22_8 Cd9_11 1_555 1_555
N23_14 Cd12_12 1_555 1_555
N24_14 Cd12_12 1_555 1_555
C10_19 O16_13 1_555 1_555
C13_19 O25_11 1_555 1_555
C16_19 O24_11 1_555 1_555
C17_19 C10_19 1_555 1_555
C20_19 C13_19 1_555 1_555
C23_19 C16_19 1_555 1_555
C24_19 C17_19 1_555 1_555
C27_19 C20_19 1_555 1_555
C30_19 C23_19 1_555 1_555
H13_19 C24_19 1_555 1_555
H16_19 C27_19 1_555 1_555
H19_19 C30_19 1_555 1_555
C31_19 C24_19 1_555 1_555
C34_19 C27_19 1_555 1_555
C37_19 C30_19 1_555 1_555
H20_19 C31_19 1_555 1_555
H23_19 C34_19 1_555 1_555
H26_19 C37_19 1_555 1_555
C38_19 N4_19 1_555 1_555
C41_19 N7_19 1_555 1_555
C44_19 N10_19 1_555 1_555
C45_19 C38_19 1_555 1_555
C48_19 C41_19 1_555 1_555
C51_19 C44_19 1_555 1_555
H27_19 C45_19 1_555 1_555
H30_19 C48_19 1_555 1_555
H33_19 C51_19 1_555 1_555
C52_19 C17_19 1_555 1_555
C55_19 C20_19 1_555 1_555
C58_19 C23_19 1_555 1_555
H34_19 C52_19 1_555 1_555
H37_19 C55_19 1_555 1_555
H40_19 C58_19 1_555 1_555
C59_19 N2_29 1_555 1_555
C62_19 N7_19 1_555 1_555
C65_19 N10_19 1_555 1_555
C67_30 O28_30 1_555 1_555
C68_30 O29_30 1_555 1_555
C4_19 C5_19 1_555 1_555
C6_19 C7_19 1_555 1_555
N4_19 C59_19 1_555 1_555
N13_30 C65_19 1_555 1_555
N23_12 C59_19 1_555 1_555
N25_13 C62_19 1_555 1_555
N25_13 C67_30 1_555 1_555
N24_12 C65_19 1_555 1_555
N24_12 C68_30 1_555 1_555
C31_19 C38_19 1_555 1_555
C34_19 C41_19 1_555 1_555
C37_19 C44_19 1_555 1_555
C45_19 C52_19 1_555 1_555
C48_19 C55_19 1_555 1_555
C51_19 C58_19 1_555 1_555
Cd11_11 O1_10 1_555 1_555
Na1_47 O3_30 1_555 1_555
O1_10 C1_20 1_555 1_555
O2_10 Cd11_11 1_555 1_555
O3_30 C9_30 1_555 1_555
O4_47 Na1_47 1_555 1_555
N1_20 H1_20 1_555 1_555
N2_30 C8_20 1_555 1_555
N22_7 C8_20 1_555 1_555
C1_20 O2_10 1_555 1_555
C2_20 C1_20 1_555 1_555
C3_20 C2_20 1_555 1_555
H2_20 C3_20 1_555 1_555
C4_20 C3_20 1_555 1_555
H3_20 C4_20 1_555 1_555
C5_20 N1_20 1_555 1_555
C6_20 C5_20 1_555 1_555
H4_20 C6_20 1_555 1_555
C7_20 C2_20 1_555 1_555
H5_20 C7_20 1_555 1_555
C8_20 N1_20 1_555 1_555
C9_30 N22_7 1_555 1_555
Cd10_12 O5_14 1_555 1_555
O5_14 C10_20 1_555 1_555
O14_6 C13_20 1_555 1_555
O13_6 C16_20 1_555 1_555
O16_14 Cd10_12 1_555 1_555
O28_31 Na1_47 1_555 1_555
O29_31 Na1_47 1_555 1_555
O30_47 Na1_47 1_555 1_555
N4_20 H6_20 1_555 1_555
N7_20 H9_20 1_555 1_555
N10_20 H12_20 1_555 1_555
N12_31 C62_20 1_555 1_555
N24_11 C9_30 1_555 1_555
N21_9 Cd11_11 1_555 1_555
N22_9 Cd11_11 1_555 1_555
N23_15 Cd10_12 1_555 1_555
N24_15 Cd10_12 1_555 1_555
C10_20 O16_14 1_555 1_555
C13_20 O25_6 1_555 1_555
C16_20 O24_6 1_555 1_555
C17_20 C10_20 1_555 1_555
C20_20 C13_20 1_555 1_555
C23_20 C16_20 1_555 1_555
C24_20 C17_20 1_555 1_555
C27_20 C20_20 1_555 1_555
C30_20 C23_20 1_555 1_555
H13_20 C24_20 1_555 1_555
H16_20 C27_20 1_555 1_555
H19_20 C30_20 1_555 1_555
C31_20 C24_20 1_555 1_555
C34_20 C27_20 1_555 1_555
C37_20 C30_20 1_555 1_555
H20_20 C31_20 1_555 1_555
H23_20 C34_20 1_555 1_555
H26_20 C37_20 1_555 1_555
C38_20 N4_20 1_555 1_555
C41_20 N7_20 1_555 1_555
C44_20 N10_20 1_555 1_555
C45_20 C38_20 1_555 1_555
C48_20 C41_20 1_555 1_555
C51_20 C44_20 1_555 1_555
H27_20 C45_20 1_555 1_555
H30_20 C48_20 1_555 1_555
H33_20 C51_20 1_555 1_555
C52_20 C17_20 1_555 1_555
C55_20 C20_20 1_555 1_555
C58_20 C23_20 1_555 1_555
H34_20 C52_20 1_555 1_555
H37_20 C55_20 1_555 1_555
H40_20 C58_20 1_555 1_555
C59_20 N2_30 1_555 1_555
C62_20 N7_20 1_555 1_555
C65_20 N10_20 1_555 1_555
C67_31 O28_31 1_555 1_555
C68_31 O29_31 1_555 1_555
C4_20 C5_20 1_555 1_555
C6_20 C7_20 1_555 1_555
N4_20 C59_20 1_555 1_555
N13_31 C65_20 1_555 1_555
N24_11 C59_20 1_555 1_555
N21_7 C62_20 1_555 1_555
N21_7 C67_31 1_555 1_555
N23_11 C65_20 1_555 1_555
N23_11 C68_31 1_555 1_555
C31_20 C38_20 1_555 1_555
C34_20 C41_20 1_555 1_555
C37_20 C44_20 1_555 1_555
C45_20 C52_20 1_555 1_555
C48_20 C55_20 1_555 1_555
C51_20 C58_20 1_555 1_555
O4_48 Na1_48 1_555 1_555
Cd11_12 O6_14 1_555 1_555
Cd10_11 O7_10 1_555 1_555
O6_14 C11_20 1_555 1_555
O7_10 C12_20 1_555 1_555
O15_9 C14_20 1_555 1_555
O12_9 C15_20 1_555 1_555
O17_14 Cd11_12 1_555 1_555
O18_10 Cd10_11 1_555 1_555
O27_30 Na1_48 1_555 1_555
O28_32 Na1_48 1_555 1_555
O29_32 Na1_48 1_555 1_555
O30_48 Na1_48 1_555 1_555
N5_20 H7_20 1_555 1_555
N6_20 H8_20 1_555 1_555
N8_20 H10_20 1_555 1_555
N9_20 H11_20 1_555 1_555
N11_30 C60_20 1_555 1_555
N13_32 C64_20 1_555 1_555
N25_12 C60_20 1_555 1_555
N24_13 C61_20 1_555 1_555
N25_15 Cd11_12 1_555 1_555
N26_15 Cd11_12 1_555 1_555
N27_9 Cd10_11 1_555 1_555
N28_9 Cd10_11 1_555 1_555
C11_20 O17_14 1_555 1_555
C12_20 O18_10 1_555 1_555
C14_20 O26_9 1_555 1_555
C15_20 O23_9 1_555 1_555
C18_20 C11_20 1_555 1_555
C19_20 C12_20 1_555 1_555
C21_20 C14_20 1_555 1_555
C22_20 C15_20 1_555 1_555
C25_20 C18_20 1_555 1_555
C26_20 C19_20 1_555 1_555
C28_20 C21_20 1_555 1_555
C29_20 C22_20 1_555 1_555
H14_20 C25_20 1_555 1_555
H15_20 C26_20 1_555 1_555
H17_20 C28_20 1_555 1_555
H18_20 C29_20 1_555 1_555
C32_20 C25_20 1_555 1_555
C33_20 C26_20 1_555 1_555
C35_20 C28_20 1_555 1_555
C36_20 C29_20 1_555 1_555
H21_20 C32_20 1_555 1_555
H22_20 C33_20 1_555 1_555
H24_20 C35_20 1_555 1_555
H25_20 C36_20 1_555 1_555
C39_20 N5_20 1_555 1_555
C40_20 N6_20 1_555 1_555
C42_20 N8_20 1_555 1_555
C43_20 N9_20 1_555 1_555
C46_20 C39_20 1_555 1_555
C47_20 C40_20 1_555 1_555
C49_20 C42_20 1_555 1_555
C50_20 C43_20 1_555 1_555
H28_20 C46_20 1_555 1_555
H29_20 C47_20 1_555 1_555
H31_20 C49_20 1_555 1_555
H32_20 C50_20 1_555 1_555
C53_20 C18_20 1_555 1_555
C54_20 C19_20 1_555 1_555
C56_20 C21_20 1_555 1_555
C57_20 C22_20 1_555 1_555
H35_20 C53_20 1_555 1_555
H36_20 C54_20 1_555 1_555
H38_20 C56_20 1_555 1_555
H39_20 C57_20 1_555 1_555
C60_20 N5_20 1_555 1_555
C61_20 N6_20 1_555 1_555
C63_20 N8_20 1_555 1_555
C64_20 N9_20 1_555 1_555
C66_30 O27_30 1_555 1_555
C67_32 O28_32 1_555 1_555
C68_32 O29_32 1_555 1_555
N11_30 C61_20 1_555 1_555
N12_32 C63_20 1_555 1_555
N25_12 C66_30 1_555 1_555
N24_13 C66_30 1_555 1_555
N23_13 C63_20 1_555 1_555
N23_13 C67_32 1_555 1_555
N26_12 C64_20 1_555 1_555
N26_12 C68_32 1_555 1_555
C32_20 C39_20 1_555 1_555
C33_20 C40_20 1_555 1_555
C35_20 C42_20 1_555 1_555
C36_20 C43_20 1_555 1_555
C46_20 C53_20 1_555 1_555
C47_20 C54_20 1_555 1_555
C49_20 C56_20 1_555 1_555
C50_20 C57_20 1_555 1_555
Na1_49 O3_31 1_555 1_555
O3_31 C9_31 1_555 1_555
O4_49 Na1_49 1_555 1_555
Cd11_15 O10_17 1_555 1_555
Cd12_16 O11_17 1_555 1_555
O15_5 C10_21 1_555 1_555
O12_5 C11_21 1_555 1_555
O10_17 C15_21 1_555 1_555
O11_17 C16_21 1_555 1_555
O21_17 Cd11_15 1_555 1_555
O22_17 Cd12_16 1_555 1_555
O27_31 Na1_49 1_555 1_555
O29_33 Na1_49 1_555 1_555
O30_49 Na1_49 1_555 1_555
N4_21 H6_21 1_555 1_555
N5_21 H7_21 1_555 1_555
N9_21 H11_21 1_555 1_555
N10_21 H12_21 1_555 1_555
N11_31 C60_21 1_555 1_555
N13_33 C64_21 1_555 1_555
N27_8 C9_31 1_555 1_555
N25_14 C60_21 1_555 1_555
C10_21 O26_5 1_555 1_555
C11_21 O23_5 1_555 1_555
C15_21 O21_17 1_555 1_555
C16_21 O22_17 1_555 1_555
C17_21 C10_21 1_555 1_555
C18_21 C11_21 1_555 1_555
C22_21 C15_21 1_555 1_555
C23_21 C16_21 1_555 1_555
C24_21 C17_21 1_555 1_555
C25_21 C18_21 1_555 1_555
C29_21 C22_21 1_555 1_555
C30_21 C23_21 1_555 1_555
H13_21 C24_21 1_555 1_555
H14_21 C25_21 1_555 1_555
H18_21 C29_21 1_555 1_555
H19_21 C30_21 1_555 1_555
C31_21 C24_21 1_555 1_555
C32_21 C25_21 1_555 1_555
C36_21 C29_21 1_555 1_555
C37_21 C30_21 1_555 1_555
H20_21 C31_21 1_555 1_555
H21_21 C32_21 1_555 1_555
H25_21 C36_21 1_555 1_555
H26_21 C37_21 1_555 1_555
C38_21 N4_21 1_555 1_555
C39_21 N5_21 1_555 1_555
C43_21 N9_21 1_555 1_555
C44_21 N10_21 1_555 1_555
C45_21 C38_21 1_555 1_555
C46_21 C39_21 1_555 1_555
C50_21 C43_21 1_555 1_555
C51_21 C44_21 1_555 1_555
H27_21 C45_21 1_555 1_555
H28_21 C46_21 1_555 1_555
H32_21 C50_21 1_555 1_555
H33_21 C51_21 1_555 1_555
C52_21 C17_21 1_555 1_555
C53_21 C18_21 1_555 1_555
C57_21 C22_21 1_555 1_555
C58_21 C23_21 1_555 1_555
H34_21 C52_21 1_555 1_555
H35_21 C53_21 1_555 1_555
H39_21 C57_21 1_555 1_555
H40_21 C58_21 1_555 1_555
C59_21 N2_31 1_555 1_555
C60_21 N5_21 1_555 1_555
C64_21 N9_21 1_555 1_555
C65_21 N10_21 1_555 1_555
C66_31 O27_31 1_555 1_555
C68_33 O29_33 1_555 1_555
N4_21 C59_21 1_555 1_555
N13_33 C65_21 1_555 1_555
N27_8 C59_21 1_555 1_555
N25_14 C66_31 1_555 1_555
N26_14 C64_21 1_555 1_555
N26_14 C68_33 1_555 1_555
N28_8 C65_21 1_555 1_555
N28_8 C68_33 1_555 1_555
C31_21 C38_21 1_555 1_555
C32_21 C39_21 1_555 1_555
C36_21 C43_21 1_555 1_555
C37_21 C44_21 1_555 1_555
C45_21 C52_21 1_555 1_555
C46_21 C53_21 1_555 1_555
C50_21 C57_21 1_555 1_555
C51_21 C58_21 1_555 1_555
Na1_50 O3_32 1_555 1_555
O14_10 C1_21 1_555 1_555
O3_32 C9_32 1_555 1_555
O4_50 Na1_50 1_555 1_555
N1_21 H1_21 1_555 1_555
N2_32 C8_21 1_555 1_555
N21_9 C8_21 1_555 1_555
C1_21 O25_10 1_555 1_555
C2_21 C1_21 1_555 1_555
C3_21 C2_21 1_555 1_555
H2_21 C3_21 1_555 1_555
C4_21 C3_21 1_555 1_555
H3_21 C4_21 1_555 1_555
C5_21 N1_21 1_555 1_555
C6_21 C5_21 1_555 1_555
H4_21 C6_21 1_555 1_555
C7_21 C2_21 1_555 1_555
H5_21 C7_21 1_555 1_555
C8_21 N1_21 1_555 1_555
C9_32 N21_9 1_555 1_555
Cd9_16 O8_17 1_555 1_555
Cd10_15 O9_17 1_555 1_555
O13_10 C12_21 1_555 1_555
O8_17 C13_21 1_555 1_555
O9_17 C14_21 1_555 1_555
O19_17 Cd9_16 1_555 1_555
O20_17 Cd10_15 1_555 1_555
O27_32 Na1_50 1_555 1_555
O28_33 Na1_50 1_555 1_555
O30_50 Na1_50 1_555 1_555
N6_21 H8_21 1_555 1_555
N7_21 H9_21 1_555 1_555
N8_21 H10_21 1_555 1_555
N12_33 C62_21 1_555 1_555
N23_15 C61_21 1_555 1_555
C12_21 O24_10 1_555 1_555
C13_21 O19_17 1_555 1_555
C14_21 O20_17 1_555 1_555
C19_21 C12_21 1_555 1_555
C20_21 C13_21 1_555 1_555
C21_21 C14_21 1_555 1_555
C26_21 C19_21 1_555 1_555
C27_21 C20_21 1_555 1_555
C28_21 C21_21 1_555 1_555
H15_21 C26_21 1_555 1_555
H16_21 C27_21 1_555 1_555
H17_21 C28_21 1_555 1_555
C33_21 C26_21 1_555 1_555
C34_21 C27_21 1_555 1_555
C35_21 C28_21 1_555 1_555
H22_21 C33_21 1_555 1_555
H23_21 C34_21 1_555 1_555
H24_21 C35_21 1_555 1_555
C40_21 N6_21 1_555 1_555
C41_21 N7_21 1_555 1_555
C42_21 N8_21 1_555 1_555
C47_21 C40_21 1_555 1_555
C48_21 C41_21 1_555 1_555
C49_21 C42_21 1_555 1_555
H29_21 C47_21 1_555 1_555
H30_21 C48_21 1_555 1_555
H31_21 C49_21 1_555 1_555
C54_21 C19_21 1_555 1_555
C55_21 C20_21 1_555 1_555
C56_21 C21_21 1_555 1_555
H36_21 C54_21 1_555 1_555
H37_21 C55_21 1_555 1_555
H38_21 C56_21 1_555 1_555
C61_21 N6_21 1_555 1_555
C62_21 N7_21 1_555 1_555
C63_21 N8_21 1_555 1_555
C66_32 O27_32 1_555 1_555
C67_33 O28_33 1_555 1_555
C4_21 C5_21 1_555 1_555
C6_21 C7_21 1_555 1_555
N11_32 C61_21 1_555 1_555
N12_33 C63_21 1_555 1_555
N23_15 C66_32 1_555 1_555
N22_9 C62_21 1_555 1_555
N22_9 C67_33 1_555 1_555
N24_15 C63_21 1_555 1_555
N24_15 C67_33 1_555 1_555
C33_21 C40_21 1_555 1_555
C34_21 C41_21 1_555 1_555
C35_21 C42_21 1_555 1_555
C47_21 C54_21 1_555 1_555
C48_21 C55_21 1_555 1_555
C49_21 C56_21 1_555 1_555
O12_15 Cd9_2 1_555 1_555
O13_19 Cd10_2 1_555 1_555
O23_15 Cd9_2 1_555 1_555
O24_19 Cd10_2 1_555 1_555
O14_19 Cd11_2 1_555 1_555
O15_15 Cd12_2 1_555 1_555
O25_19 Cd11_2 1_555 1_555
O26_15 Cd12_2 1_555 1_555
O14_20 Cd11_4 1_555 1_555
O15_16 Cd12_4 1_555 1_555
O25_20 Cd11_4 1_555 1_555
O26_16 Cd12_4 1_555 1_555
O12_16 Cd9_4 1_555 1_555
O13_20 Cd10_4 1_555 1_555
O23_16 Cd9_4 1_555 1_555
O24_20 Cd10_4 1_555 1_555
Na1_51 O3_33 1_555 1_555
O14_7 C1_22 1_555 1_555
O3_33 C9_33 1_555 1_555
O4_51 Na1_51 1_555 1_555
N1_22 H1_22 1_555 1_555
N2_33 C8_22 1_555 1_555
N21_8 C8_22 1_555 1_555
C1_22 O25_7 1_555 1_555
C2_22 C1_22 1_555 1_555
C3_22 C2_22 1_555 1_555
H2_22 C3_22 1_555 1_555
C4_22 C3_22 1_555 1_555
H3_22 C4_22 1_555 1_555
C5_22 N1_22 1_555 1_555
C6_22 C5_22 1_555 1_555
H4_22 C6_22 1_555 1_555
C7_22 C2_22 1_555 1_555
H5_22 C7_22 1_555 1_555
C8_22 N1_22 1_555 1_555
C9_33 N21_8 1_555 1_555
Cd11_16 O8_18 1_555 1_555
Cd12_15 O9_18 1_555 1_555
O13_7 C12_22 1_555 1_555
O8_18 C13_22 1_555 1_555
O9_18 C14_22 1_555 1_555
O19_18 Cd11_16 1_555 1_555
O20_18 Cd12_15 1_555 1_555
O27_33 Na1_51 1_555 1_555
O28_34 Na1_51 1_555 1_555
O30_51 Na1_51 1_555 1_555
N6_22 H8_22 1_555 1_555
N7_22 H9_22 1_555 1_555
N8_22 H10_22 1_555 1_555
N12_34 C62_22 1_555 1_555
N23_14 C61_22 1_555 1_555
C12_22 O24_7 1_555 1_555
C13_22 O19_18 1_555 1_555
C14_22 O20_18 1_555 1_555
C19_22 C12_22 1_555 1_555
C20_22 C13_22 1_555 1_555
C21_22 C14_22 1_555 1_555
C26_22 C19_22 1_555 1_555
C27_22 C20_22 1_555 1_555
C28_22 C21_22 1_555 1_555
H15_22 C26_22 1_555 1_555
H16_22 C27_22 1_555 1_555
H17_22 C28_22 1_555 1_555
C33_22 C26_22 1_555 1_555
C34_22 C27_22 1_555 1_555
C35_22 C28_22 1_555 1_555
H22_22 C33_22 1_555 1_555
H23_22 C34_22 1_555 1_555
H24_22 C35_22 1_555 1_555
C40_22 N6_22 1_555 1_555
C41_22 N7_22 1_555 1_555
C42_22 N8_22 1_555 1_555
C47_22 C40_22 1_555 1_555
C48_22 C41_22 1_555 1_555
C49_22 C42_22 1_555 1_555
H29_22 C47_22 1_555 1_555
H30_22 C48_22 1_555 1_555
H31_22 C49_22 1_555 1_555
C54_22 C19_22 1_555 1_555
C55_22 C20_22 1_555 1_555
C56_22 C21_22 1_555 1_555
H36_22 C54_22 1_555 1_555
H37_22 C55_22 1_555 1_555
H38_22 C56_22 1_555 1_555
C61_22 N6_22 1_555 1_555
C62_22 N7_22 1_555 1_555
C63_22 N8_22 1_555 1_555
C66_33 O27_33 1_555 1_555
C67_34 O28_34 1_555 1_555
C4_22 C5_22 1_555 1_555
C6_22 C7_22 1_555 1_555
N11_33 C61_22 1_555 1_555
N12_34 C63_22 1_555 1_555
N23_14 C66_33 1_555 1_555
N22_8 C62_22 1_555 1_555
N22_8 C67_34 1_555 1_555
N24_14 C63_22 1_555 1_555
N24_14 C67_34 1_555 1_555
C33_22 C40_22 1_555 1_555
C34_22 C41_22 1_555 1_555
C35_22 C42_22 1_555 1_555
C47_22 C54_22 1_555 1_555
C48_22 C55_22 1_555 1_555
C49_22 C56_22 1_555 1_555
Na1_52 O3_34 1_555 1_555
O3_34 C9_34 1_555 1_555
O4_52 Na1_52 1_555 1_555
Cd9_15 O10_18 1_555 1_555
Cd10_16 O11_18 1_555 1_555
O15_8 C10_22 1_555 1_555
O12_8 C11_22 1_555 1_555
O10_18 C15_22 1_555 1_555
O11_18 C16_22 1_555 1_555
O21_18 Cd9_15 1_555 1_555
O22_18 Cd10_16 1_555 1_555
O27_34 Na1_52 1_555 1_555
O29_34 Na1_52 1_555 1_555
O30_52 Na1_52 1_555 1_555
N4_22 H6_22 1_555 1_555
N5_22 H7_22 1_555 1_555
N9_22 H11_22 1_555 1_555
N10_22 H12_22 1_555 1_555
N11_34 C60_22 1_555 1_555
N13_34 C64_22 1_555 1_555
N27_9 C9_34 1_555 1_555
N25_15 C60_22 1_555 1_555
C10_22 O26_8 1_555 1_555
C11_22 O23_8 1_555 1_555
C15_22 O21_18 1_555 1_555
C16_22 O22_18 1_555 1_555
C17_22 C10_22 1_555 1_555
C18_22 C11_22 1_555 1_555
C22_22 C15_22 1_555 1_555
C23_22 C16_22 1_555 1_555
C24_22 C17_22 1_555 1_555
C25_22 C18_22 1_555 1_555
C29_22 C22_22 1_555 1_555
C30_22 C23_22 1_555 1_555
H13_22 C24_22 1_555 1_555
H14_22 C25_22 1_555 1_555
H18_22 C29_22 1_555 1_555
H19_22 C30_22 1_555 1_555
C31_22 C24_22 1_555 1_555
C32_22 C25_22 1_555 1_555
C36_22 C29_22 1_555 1_555
C37_22 C30_22 1_555 1_555
H20_22 C31_22 1_555 1_555
H21_22 C32_22 1_555 1_555
H25_22 C36_22 1_555 1_555
H26_22 C37_22 1_555 1_555
C38_22 N4_22 1_555 1_555
C39_22 N5_22 1_555 1_555
C43_22 N9_22 1_555 1_555
C44_22 N10_22 1_555 1_555
C45_22 C38_22 1_555 1_555
C46_22 C39_22 1_555 1_555
C50_22 C43_22 1_555 1_555
C51_22 C44_22 1_555 1_555
H27_22 C45_22 1_555 1_555
H28_22 C46_22 1_555 1_555
H32_22 C50_22 1_555 1_555
H33_22 C51_22 1_555 1_555
C52_22 C17_22 1_555 1_555
C53_22 C18_22 1_555 1_555
C57_22 C22_22 1_555 1_555
C58_22 C23_22 1_555 1_555
H34_22 C52_22 1_555 1_555
H35_22 C53_22 1_555 1_555
H39_22 C57_22 1_555 1_555
H40_22 C58_22 1_555 1_555
C59_22 N2_34 1_555 1_555
C60_22 N5_22 1_555 1_555
C64_22 N9_22 1_555 1_555
C65_22 N10_22 1_555 1_555
C66_34 O27_34 1_555 1_555
C68_34 O29_34 1_555 1_555
N4_22 C59_22 1_555 1_555
N13_34 C65_22 1_555 1_555
N27_9 C59_22 1_555 1_555
N25_15 C66_34 1_555 1_555
N26_15 C64_22 1_555 1_555
N26_15 C68_34 1_555 1_555
N28_9 C65_22 1_555 1_555
N28_9 C68_34 1_555 1_555
C31_22 C38_22 1_555 1_555
C32_22 C39_22 1_555 1_555
C36_22 C43_22 1_555 1_555
C37_22 C44_22 1_555 1_555
C45_22 C52_22 1_555 1_555
C46_22 C53_22 1_555 1_555
C50_22 C57_22 1_555 1_555
C51_22 C58_22 1_555 1_555
N21_10 Cd11_16 1_555 1_555
N22_10 Cd11_16 1_555 1_555
N23_16 Cd12_15 1_555 1_555
N24_16 Cd12_15 1_555 1_555
N25_16 Cd9_15 1_555 1_555
N26_16 Cd9_15 1_555 1_555
N27_10 Cd10_16 1_555 1_555
N28_10 Cd10_16 1_555 1_555
N23_17 Cd10_15 1_555 1_555
N24_17 Cd10_15 1_555 1_555
N25_17 Cd11_15 1_555 1_555
N26_17 Cd11_15 1_555 1_555
N23_18 Cd12_16 1_555 1_555
N24_18 Cd12_16 1_555 1_555
N25_18 Cd9_16 1_555 1_555
N26_18 Cd9_16 1_555 1_555
Na1_53 O3_35 1_555 1_555
O12_15 C1_23 1_555 1_555
O3_35 C9_35 1_555 1_555
O4_53 Na1_53 1_555 1_555
N1_23 H1_23 1_555 1_555
N2_35 C8_23 1_555 1_555
N26_18 C8_23 1_555 1_555
C1_23 O23_15 1_555 1_555
C2_23 C1_23 1_555 1_555
C3_23 C2_23 1_555 1_555
H2_23 C3_23 1_555 1_555
C4_23 C3_23 1_555 1_555
H3_23 C4_23 1_555 1_555
C5_23 N1_23 1_555 1_555
C6_23 C5_23 1_555 1_555
H4_23 C6_23 1_555 1_555
C7_23 C2_23 1_555 1_555
H5_23 C7_23 1_555 1_555
C8_23 N1_23 1_555 1_555
C9_35 N26_18 1_555 1_555
O15_16 C10_23 1_555 1_555
O12_16 C11_23 1_555 1_555
O15_15 C12_23 1_555 1_555
O14_17 C13_23 1_555 1_555
O15_11 C14_23 1_555 1_555
O12_11 C15_23 1_555 1_555
O13_17 C16_23 1_555 1_555
O27_35 Na1_53 1_555 1_555
O28_35 Na1_53 1_555 1_555
O29_35 Na1_53 1_555 1_555
O30_53 Na1_53 1_555 1_555
N4_23 H6_23 1_555 1_555
N5_23 H7_23 1_555 1_555
N6_23 H8_23 1_555 1_555
N7_23 H9_23 1_555 1_555
N8_23 H10_23 1_555 1_555
N9_23 H11_23 1_555 1_555
N10_23 H12_23 1_555 1_555
N11_35 C60_23 1_555 1_555
N12_35 C62_23 1_555 1_555
N13_35 C64_23 1_555 1_555
N23_17 C9_35 1_555 1_555
N26_16 C60_23 1_555 1_555
N28_10 C61_23 1_555 1_555
C10_23 O26_16 1_555 1_555
C11_23 O23_16 1_555 1_555
C12_23 O26_15 1_555 1_555
C13_23 O25_17 1_555 1_555
C14_23 O26_11 1_555 1_555
C15_23 O23_11 1_555 1_555
C16_23 O24_17 1_555 1_555
C17_23 C10_23 1_555 1_555
C18_23 C11_23 1_555 1_555
C19_23 C12_23 1_555 1_555
C20_23 C13_23 1_555 1_555
C21_23 C14_23 1_555 1_555
C22_23 C15_23 1_555 1_555
C23_23 C16_23 1_555 1_555
C24_23 C17_23 1_555 1_555
C25_23 C18_23 1_555 1_555
C26_23 C19_23 1_555 1_555
C27_23 C20_23 1_555 1_555
C28_23 C21_23 1_555 1_555
C29_23 C22_23 1_555 1_555
C30_23 C23_23 1_555 1_555
H13_23 C24_23 1_555 1_555
H14_23 C25_23 1_555 1_555
H15_23 C26_23 1_555 1_555
H16_23 C27_23 1_555 1_555
H17_23 C28_23 1_555 1_555
H18_23 C29_23 1_555 1_555
H19_23 C30_23 1_555 1_555
C31_23 C24_23 1_555 1_555
C32_23 C25_23 1_555 1_555
C33_23 C26_23 1_555 1_555
C34_23 C27_23 1_555 1_555
C35_23 C28_23 1_555 1_555
C36_23 C29_23 1_555 1_555
C37_23 C30_23 1_555 1_555
H20_23 C31_23 1_555 1_555
H21_23 C32_23 1_555 1_555
H22_23 C33_23 1_555 1_555
H23_23 C34_23 1_555 1_555
H24_23 C35_23 1_555 1_555
H25_23 C36_23 1_555 1_555
H26_23 C37_23 1_555 1_555
C38_23 N4_23 1_555 1_555
C39_23 N5_23 1_555 1_555
C40_23 N6_23 1_555 1_555
C41_23 N7_23 1_555 1_555
C42_23 N8_23 1_555 1_555
C43_23 N9_23 1_555 1_555
C44_23 N10_23 1_555 1_555
C45_23 C38_23 1_555 1_555
C46_23 C39_23 1_555 1_555
C47_23 C40_23 1_555 1_555
C48_23 C41_23 1_555 1_555
C49_23 C42_23 1_555 1_555
C50_23 C43_23 1_555 1_555
C51_23 C44_23 1_555 1_555
H27_23 C45_23 1_555 1_555
H28_23 C46_23 1_555 1_555
H29_23 C47_23 1_555 1_555
H30_23 C48_23 1_555 1_555
H31_23 C49_23 1_555 1_555
H32_23 C50_23 1_555 1_555
H33_23 C51_23 1_555 1_555
C52_23 C17_23 1_555 1_555
C53_23 C18_23 1_555 1_555
C54_23 C19_23 1_555 1_555
C55_23 C20_23 1_555 1_555
C56_23 C21_23 1_555 1_555
C57_23 C22_23 1_555 1_555
C58_23 C23_23 1_555 1_555
H34_23 C52_23 1_555 1_555
H35_23 C53_23 1_555 1_555
H36_23 C54_23 1_555 1_555
H37_23 C55_23 1_555 1_555
H38_23 C56_23 1_555 1_555
H39_23 C57_23 1_555 1_555
H40_23 C58_23 1_555 1_555
C59_23 N2_35 1_555 1_555
C60_23 N5_23 1_555 1_555
C61_23 N6_23 1_555 1_555
C62_23 N7_23 1_555 1_555
C63_23 N8_23 1_555 1_555
C64_23 N9_23 1_555 1_555
C65_23 N10_23 1_555 1_555
C66_35 O27_35 1_555 1_555
C67_35 O28_35 1_555 1_555
C68_35 O29_35 1_555 1_555
C4_23 C5_23 1_555 1_555
C6_23 C7_23 1_555 1_555
N4_23 C59_23 1_555 1_555
N11_35 C61_23 1_555 1_555
N12_35 C63_23 1_555 1_555
N13_35 C65_23 1_555 1_555
N23_17 C59_23 1_555 1_555
N26_16 C66_35 1_555 1_555
N28_10 C66_35 1_555 1_555
N25_18 C62_23 1_555 1_555
N25_18 C67_35 1_555 1_555
N27_10 C63_23 1_555 1_555
N27_10 C67_35 1_555 1_555
N25_16 C64_23 1_555 1_555
N25_16 C68_35 1_555 1_555
N24_17 C65_23 1_555 1_555
N24_17 C68_35 1_555 1_555
C31_23 C38_23 1_555 1_555
C32_23 C39_23 1_555 1_555
C33_23 C40_23 1_555 1_555
C34_23 C41_23 1_555 1_555
C35_23 C42_23 1_555 1_555
C36_23 C43_23 1_555 1_555
C37_23 C44_23 1_555 1_555
C45_23 C52_23 1_555 1_555
C46_23 C53_23 1_555 1_555
C47_23 C54_23 1_555 1_555
C48_23 C55_23 1_555 1_555
C49_23 C56_23 1_555 1_555
C50_23 C57_23 1_555 1_555
C51_23 C58_23 1_555 1_555
Na1_54 O3_36 1_555 1_555
O14_19 C1_24 1_555 1_555
O3_36 C9_36 1_555 1_555
O4_54 Na1_54 1_555 1_555
N1_24 H1_24 1_555 1_555
N2_36 C8_24 1_555 1_555
N22_10 C8_24 1_555 1_555
C1_24 O25_19 1_555 1_555
C2_24 C1_24 1_555 1_555
C3_24 C2_24 1_555 1_555
H2_24 C3_24 1_555 1_555
C4_24 C3_24 1_555 1_555
H3_24 C4_24 1_555 1_555
C5_24 N1_24 1_555 1_555
C6_24 C5_24 1_555 1_555
H4_24 C6_24 1_555 1_555
C7_24 C2_24 1_555 1_555
H5_24 C7_24 1_555 1_555
C8_24 N1_24 1_555 1_555
C9_36 N22_10 1_555 1_555
O13_20 C10_24 1_555 1_555
O14_20 C11_24 1_555 1_555
O13_19 C12_24 1_555 1_555
O14_14 C13_24 1_555 1_555
O15_14 C14_24 1_555 1_555
O12_14 C15_24 1_555 1_555
O13_14 C16_24 1_555 1_555
O27_36 Na1_54 1_555 1_555
O28_36 Na1_54 1_555 1_555
O29_36 Na1_54 1_555 1_555
O30_54 Na1_54 1_555 1_555
N4_24 H6_24 1_555 1_555
N5_24 H7_24 1_555 1_555
N6_24 H8_24 1_555 1_555
N7_24 H9_24 1_555 1_555
N8_24 H10_24 1_555 1_555
N9_24 H11_24 1_555 1_555
N10_24 H12_24 1_555 1_555
N11_36 C60_24 1_555 1_555
N12_36 C62_24 1_555 1_555
N13_36 C64_24 1_555 1_555
N24_16 C9_36 1_555 1_555
N25_17 C60_24 1_555 1_555
N24_18 C61_24 1_555 1_555
C10_24 O24_20 1_555 1_555
C11_24 O25_20 1_555 1_555
C12_24 O24_19 1_555 1_555
C13_24 O25_14 1_555 1_555
C14_24 O26_14 1_555 1_555
C15_24 O23_14 1_555 1_555
C16_24 O24_14 1_555 1_555
C17_24 C10_24 1_555 1_555
C18_24 C11_24 1_555 1_555
C19_24 C12_24 1_555 1_555
C20_24 C13_24 1_555 1_555
C21_24 C14_24 1_555 1_555
C22_24 C15_24 1_555 1_555
C23_24 C16_24 1_555 1_555
C24_24 C17_24 1_555 1_555
C25_24 C18_24 1_555 1_555
C26_24 C19_24 1_555 1_555
C27_24 C20_24 1_555 1_555
C28_24 C21_24 1_555 1_555
C29_24 C22_24 1_555 1_555
C30_24 C23_24 1_555 1_555
H13_24 C24_24 1_555 1_555
H14_24 C25_24 1_555 1_555
H15_24 C26_24 1_555 1_555
H16_24 C27_24 1_555 1_555
H17_24 C28_24 1_555 1_555
H18_24 C29_24 1_555 1_555
H19_24 C30_24 1_555 1_555
C31_24 C24_24 1_555 1_555
C32_24 C25_24 1_555 1_555
C33_24 C26_24 1_555 1_555
C34_24 C27_24 1_555 1_555
C35_24 C28_24 1_555 1_555
C36_24 C29_24 1_555 1_555
C37_24 C30_24 1_555 1_555
H20_24 C31_24 1_555 1_555
H21_24 C32_24 1_555 1_555
H22_24 C33_24 1_555 1_555
H23_24 C34_24 1_555 1_555
H24_24 C35_24 1_555 1_555
H25_24 C36_24 1_555 1_555
H26_24 C37_24 1_555 1_555
C38_24 N4_24 1_555 1_555
C39_24 N5_24 1_555 1_555
C40_24 N6_24 1_555 1_555
C41_24 N7_24 1_555 1_555
C42_24 N8_24 1_555 1_555
C43_24 N9_24 1_555 1_555
C44_24 N10_24 1_555 1_555
C45_24 C38_24 1_555 1_555
C46_24 C39_24 1_555 1_555
C47_24 C40_24 1_555 1_555
C48_24 C41_24 1_555 1_555
C49_24 C42_24 1_555 1_555
C50_24 C43_24 1_555 1_555
C51_24 C44_24 1_555 1_555
H27_24 C45_24 1_555 1_555
H28_24 C46_24 1_555 1_555
H29_24 C47_24 1_555 1_555
H30_24 C48_24 1_555 1_555
H31_24 C49_24 1_555 1_555
H32_24 C50_24 1_555 1_555
H33_24 C51_24 1_555 1_555
C52_24 C17_24 1_555 1_555
C53_24 C18_24 1_555 1_555
C54_24 C19_24 1_555 1_555
C55_24 C20_24 1_555 1_555
C56_24 C21_24 1_555 1_555
C57_24 C22_24 1_555 1_555
C58_24 C23_24 1_555 1_555
H34_24 C52_24 1_555 1_555
H35_24 C53_24 1_555 1_555
H36_24 C54_24 1_555 1_555
H37_24 C55_24 1_555 1_555
H38_24 C56_24 1_555 1_555
H39_24 C57_24 1_555 1_555
H40_24 C58_24 1_555 1_555
C59_24 N2_36 1_555 1_555
C60_24 N5_24 1_555 1_555
C61_24 N6_24 1_555 1_555
C62_24 N7_24 1_555 1_555
C63_24 N8_24 1_555 1_555
C64_24 N9_24 1_555 1_555
C65_24 N10_24 1_555 1_555
C66_36 O27_36 1_555 1_555
C67_36 O28_36 1_555 1_555
C68_36 O29_36 1_555 1_555
C4_24 C5_24 1_555 1_555
C6_24 C7_24 1_555 1_555
N4_24 C59_24 1_555 1_555
N11_36 C61_24 1_555 1_555
N12_36 C63_24 1_555 1_555
N13_36 C65_24 1_555 1_555
N24_16 C59_24 1_555 1_555
N25_17 C66_36 1_555 1_555
N24_18 C66_36 1_555 1_555
N21_10 C62_24 1_555 1_555
N21_10 C67_36 1_555 1_555
N23_18 C63_24 1_555 1_555
N23_18 C67_36 1_555 1_555
N26_17 C64_24 1_555 1_555
N26_17 C68_36 1_555 1_555
N23_16 C65_24 1_555 1_555
N23_16 C68_36 1_555 1_555
C31_24 C38_24 1_555 1_555
C32_24 C39_24 1_555 1_555
C33_24 C40_24 1_555 1_555
C34_24 C41_24 1_555 1_555
C35_24 C42_24 1_555 1_555
C36_24 C43_24 1_555 1_555
C37_24 C44_24 1_555 1_555
C45_24 C52_24 1_555 1_555
C46_24 C53_24 1_555 1_555
C47_24 C54_24 1_555 1_555
C48_24 C55_24 1_555 1_555
C49_24 C56_24 1_555 1_555
C50_24 C57_24 1_555 1_555
C51_24 C58_24 1_555 1_555

#END
