
###############################################################################
#
# This file contains modified crystal structure data generated from the
# MOF subset of the Cambridge Structural Database (CSD) v543 
# hosted by the Cambridge Crystallographic Data Centre (CCDC).
#
# This work is licensed under the Creative Commons
# Attribution-NonCommercial-ShareAlike 4.0 International License.
# To view a copy of this license, visit
# http://creativecommons.org/licenses/by-nc-sa/4.0/
# or send a letter to
# Creative Commons, PO Box 1866, Mountain View, CA 94042, USA.
#
# CIF created using the CSD Python API on 29 September 2022
# The structure has been converted into the P1 space group
# The structure has a 3D framework
# The original CSD entry SALXEL is in the hexagonal crystal system
# The framework has been calculated to contain at least 10.0% void space
# The void calculation uses a probe of radius 1.32A, grid spacing 0.4
# H atom positions have been added when not included in the experimental data
# Generated hydrogen atom positions removed from atoms on special positions
#
###############################################################################

data_SALXEL
_chemical_formula_moiety         '(C144 H240 O194 Zr36)n'
_symmetry_cell_setting           triclinic
_symmetry_space_group_name_H-M   'P 1'
_symmetry_Int_Tables_number      1
_space_group_name_Hall           'P 1'
loop_
_symmetry_equiv_pos_site_id
_symmetry_equiv_pos_as_xyz
1 x,y,z
_cell_length_a                   24.99187(88)
_cell_length_b                   24.99187(88)
_cell_length_c                   24.76880(94)
_cell_angle_alpha                90
_cell_angle_beta                 90
_cell_angle_gamma                120
_cell_volume                     13397.8
loop_
_atom_site_label
_atom_site_type_symbol
_atom_site_fract_x
_atom_site_fract_y
_atom_site_fract_z
Zr1 Zr 0.38893(42) 0.46909(62) 0.47478(30)
Zr2 Zr 0.48144(30) 0.51855(67) 0.59274(43)
O1 O 0.4304(17) 0.4438(15) 0.5420(15)
O2 O 0.3684(21) 0.5324(16) 0.4351(20)
O3 O 0.3093(29) 0.3790(23) 0.4832(26)
O4 O 0.4697(13) 0.5303(13) 0.4342(31)
O5 O 0.4552(23) 0.5448(23) 0.5176(20)
O6 O 0.3316(19) 0.4635(30) 0.5386(12)
O7 O 0.3933(13) 0.5044(21) 0.6082(17)
O8 O 0.2396(14) 0.4793(28) 0.5853(23)
C1 C 0.3382(17) 0.4824(20) 0.5889(13)
C2 C 0.2907(19) 0.4943(19) 0.6184(11)
C3 C 0.2926(23) 0.5235(23) 0.6693(14)
O9 O 0.3691(25) 0.4383(26) 0.39095(90)
O10 O 0.4474(16) 0.4487(28) 0.3511(17)
O11 O 0.3760(25) 0.4105(33) 0.250
C4 C 0.3930(19) 0.4390(20) 0.3449(12)
C5 C 0.3496(17) 0.4186(19) 0.2966(15)
C6 C 0.2913(17) 0.4116(32) 0.2791(17)
O12 O 0.1319(36) 0.4635(30) 0.5386(12)
O13 O 0.1111(25) 0.5044(21) 0.6082(17)
C7 C 0.1442(26) 0.4824(20) 0.5889(13)
C8 C 0.2036(27) 0.4943(19) 0.6184(11)
C9 C 0.2309(33) 0.5235(23) 0.6693(14)
O14 O 0.3691(25) 0.4383(26) 0.10905(90)
O15 O 0.4474(16) 0.4487(28) 0.1489(17)
C10 C 0.3930(19) 0.4390(20) 0.1551(12)
C11 C 0.3496(17) 0.4186(19) 0.2034(15)
C12 C 0.2913(17) 0.4116(32) 0.2209(17)
Zr3 Zr 0.46909(62) 0.38893(42) 0.52522(30)
O16 O 0.4438(15) 0.4304(17) 0.4580(15)
O17 O 0.5324(16) 0.3684(21) 0.5649(20)
O18 O 0.3790(23) 0.3093(29) 0.5168(26)
Zr4 Zr 0.08016(75) 0.46909(62) 0.47478(30)
Zr5 Zr 0.53091(62) 0.61107(42) 0.47478(30)
Zr6 Zr 0.38893(42) 0.46909(62) 0.02522(30)
Zr7 Zr 0.51856(30) 0.48145(67) 0.40726(43)
Zr8 Zr 0.51856(30) 0.48145(67) 0.09274(43)
Zr9 Zr 0.03711(73) 0.51856(30) 0.59274(43)
O19 O 0.5562(15) 0.5696(17) 0.5420(15)
O20 O 0.5303(13) 0.4697(13) 0.5658(31)
O21 O 0.5448(23) 0.4552(23) 0.4824(20)
O22 O 0.4635(30) 0.3316(19) 0.4614(12)
O23 O 0.4956(21) 0.6067(13) 0.6082(17)
O24 O 0.4383(26) 0.3691(25) 0.60905(90)
O25 O 0.5526(16) 0.5513(28) 0.6489(17)
O26 O 0.4487(28) 0.4474(16) 0.6489(17)
H5 H 0.328623 0.541107 0.699992
H8 H 0.212484 0.541107 0.699992
H11 H 0.254151 0.40714 0.30511
H12 H 0.254151 0.40714 0.19489
Zr1_2 Zr 0.61107(42) 0.08016(75) 0.52522(30)
Zr2_2 Zr 0.51856(30) 0.03711(73) 0.40726(43)
O1_2 O 0.5696(17) 0.0134(23) 0.4580(15)
O2_2 O 0.6316(21) 0.1640(26) 0.5649(20)
O3_2 O 0.6907(29) 0.0697(37) 0.5168(26)
O4_2 O 0.5303(13) 0.0606(18) 0.5658(31)
O5_2 O 0.5448(23) 0.0896(33) 0.4824(20)
O6_2 O 0.6684(19) 0.1319(36) 0.4614(12)
O7_2 O 0.6067(13) 0.1111(25) 0.3918(17)
O8_2 O 0.7604(14) 0.2397(31) 0.4147(23)
C1_2 C 0.6618(17) 0.1442(26) 0.4111(13)
C2_2 C 0.7093(19) 0.2036(27) 0.3816(11)
C3_2 C 0.7074(23) 0.2309(33) 0.3307(14)
O9_2 O 0.6309(25) 0.0692(36) 0.60905(90)
O10_2 O 0.5526(16) 0.0013(32) 0.6489(17)
O11_2 O 0.6240(25) 0.0345(41) 0.750
C4_2 C 0.6070(19) 0.0460(28) 0.6551(12)
C5_2 C 0.6504(17) 0.0690(25) 0.7034(15)
C6_2 C 0.7087(17) 0.1203(36) 0.7209(17)
O12_2 O 0.8681(36) 0.3316(47) 0.4614(12)
O13_2 O 0.8889(25) 0.3933(33) 0.3918(17)
C7_2 C 0.8558(26) 0.3382(33) 0.4111(13)
C8_2 C 0.7964(27) 0.2907(33) 0.3816(11)
C9_2 C 0.7691(33) 0.2926(40) 0.3307(14)
O14_2 O 0.6309(25) 0.0692(36) 0.89095(90)
O15_2 O 0.5526(16) 0.0013(32) 0.8511(17)
C10_2 C 0.6070(19) 0.0460(28) 0.8449(12)
C11_2 C 0.6504(17) 0.0690(25) 0.7966(15)
C12_2 C 0.7087(17) 0.1203(36) 0.7791(17)
Zr4_2 Zr 0.91984(75) 0.38893(97) 0.52522(30)
Zr5_2 Zr 0.46909(62) 0.08016(75) 0.52522(30)
Zr6_2 Zr 0.61107(42) 0.08016(75) 0.97478(30)
Zr9_2 Zr 0.96289(73) 0.48145(79) 0.40726(43)
O19_2 O 0.4438(15) 0.0134(23) 0.4580(15)
O23_2 O 0.5044(21) 0.1111(25) 0.3918(17)
H5_2 H 0.671377 0.212484 0.300008
H8_2 H 0.787516 0.328623 0.300008
H11_2 H 0.745849 0.152988 0.69489
H12_2 H 0.745849 0.152988 0.80511
Zr3_2 Zr 0.53091(62) 0.91984(75) 0.47478(30)
O16_2 O 0.5562(15) 0.9866(23) 0.5420(15)
O17_2 O 0.4676(16) 0.8360(26) 0.4351(20)
O18_2 O 0.6210(23) 0.9303(37) 0.4832(26)
Zr7_2 Zr 0.48144(30) 0.96289(73) 0.59274(43)
Zr8_2 Zr 0.48144(30) 0.96289(73) 0.90726(43)
O20_2 O 0.4697(13) 0.9394(18) 0.4342(31)
O21_2 O 0.4552(23) 0.9104(33) 0.5176(20)
O22_2 O 0.5365(30) 0.8681(36) 0.5386(12)
O24_2 O 0.5617(26) 0.9308(36) 0.39095(90)
O25_2 O 0.4474(16) 0.9987(32) 0.3511(17)
O26_2 O 0.5513(28) 0.9987(32) 0.3511(17)
O1_3 O 0.5696(17) 0.5562(15) 0.0420(15)
O5_3 O 0.5448(23) 0.4552(23) 0.0176(20)
O6_3 O 0.6684(19) 0.5365(30) 0.0386(12)
O7_3 O 0.6067(13) 0.4956(21) 0.1082(17)
O8_3 O 0.7604(14) 0.5207(28) 0.0853(23)
C1_3 C 0.6618(17) 0.5176(20) 0.0889(13)
C2_3 C 0.7093(19) 0.5057(19) 0.1184(11)
C3_3 C 0.7074(23) 0.4765(23) 0.1693(14)
O12_3 O 0.8681(36) 0.5365(30) 0.0386(12)
O13_3 O 0.8889(25) 0.4956(21) 0.1082(17)
C7_3 C 0.8558(26) 0.5176(20) 0.0889(13)
C8_3 C 0.7964(27) 0.5057(19) 0.1184(11)
C9_3 C 0.7691(33) 0.4765(23) 0.1693(14)
Zr3_3 Zr 0.53091(62) 0.61107(42) 0.02522(30)
O17_3 O 0.4676(16) 0.6316(21) 0.0649(20)
O18_3 O 0.6210(23) 0.6907(29) 0.0168(26)
Zr9_3 Zr 0.96289(73) 0.48144(30) 0.09274(43)
O19_3 O 0.4438(15) 0.4304(17) 0.0420(15)
O20_3 O 0.4697(13) 0.5303(13) 0.0658(31)
O23_3 O 0.5044(21) 0.3933(13) 0.1082(17)
O24_3 O 0.5617(26) 0.6309(25) 0.10905(90)
O26_3 O 0.5513(28) 0.5526(16) 0.1489(17)
H3 H 0.707961 0.625641 0.0201265
H5_3 H 0.671377 0.458893 0.199992
H7 H 0.61697 0.727288 0.0079826
H8_3 H 0.787516 0.458893 0.199992
Zr1_3 Zr 0.61107(42) 0.53091(62) 0.97478(30)
O2_3 O 0.6316(21) 0.4676(16) 0.9351(20)
O3_3 O 0.6907(29) 0.6210(23) 0.9832(26)
O4_3 O 0.5303(13) 0.4697(13) 0.9342(31)
O9_3 O 0.6309(25) 0.5617(26) 0.89095(90)
O10_3 O 0.5526(16) 0.5513(28) 0.8511(17)
O11_3 O 0.6240(25) 0.5895(33) 0.750
C4_3 C 0.6070(19) 0.5610(20) 0.8449(12)
C5_3 C 0.6504(17) 0.5814(19) 0.7966(15)
C6_3 C 0.7087(17) 0.5884(32) 0.7791(17)
O14_3 O 0.6309(25) 0.5617(26) 0.60905(90)
C10_3 C 0.6070(19) 0.5610(20) 0.6551(12)
C11_3 C 0.6504(17) 0.5814(19) 0.7034(15)
C12_3 C 0.7087(17) 0.5884(32) 0.7209(17)
O16_3 O 0.5562(15) 0.5696(17) 0.9580(15)
Zr4_3 Zr 0.91984(75) 0.53091(62) 0.97478(30)
Zr5_3 Zr 0.46909(62) 0.38893(42) 0.97478(30)
Zr6_3 Zr 0.61107(42) 0.53091(62) 0.52522(30)
Zr7_3 Zr 0.48144(30) 0.51855(67) 0.90726(43)
O21_3 O 0.4552(23) 0.5448(23) 0.9824(20)
O22_3 O 0.5365(30) 0.6684(19) 0.9614(12)
H4 H 0.722364 0.626245 0.956225
H6 H 0.643655 0.683559 0.987336
H11_3 H 0.745849 0.59286 0.80511
H12_3 H 0.745849 0.59286 0.69489
Zr1_4 Zr 0.08016(75) 0.61107(42) 0.47478(30)
O1_4 O 0.0134(23) 0.5696(17) 0.5420(15)
O2_4 O 0.1640(26) 0.6316(21) 0.4351(20)
O3_4 O 0.0697(37) 0.6907(29) 0.4832(26)
O4_4 O 0.0606(18) 0.5303(13) 0.4342(31)
O5_4 O 0.0896(33) 0.5448(23) 0.5176(20)
O6_4 O 0.1319(36) 0.6684(19) 0.5386(12)
O7_4 O 0.1111(25) 0.6067(13) 0.6082(17)
O8_4 O 0.2397(31) 0.7604(14) 0.5853(23)
C1_4 C 0.1442(26) 0.6618(17) 0.5889(13)
C2_4 C 0.2036(27) 0.7093(19) 0.6184(11)
C3_4 C 0.2309(33) 0.7074(23) 0.6693(14)
O9_4 O 0.0692(36) 0.6309(25) 0.39095(90)
O10_4 O 0.0013(32) 0.5526(16) 0.3511(17)
O11_4 O 0.0345(41) 0.6240(25) 0.250
C4_4 C 0.0460(28) 0.6070(19) 0.3449(12)
C5_4 C 0.0690(25) 0.6504(17) 0.2966(15)
C6_4 C 0.1203(36) 0.7087(17) 0.2791(17)
O12_4 O 0.3316(47) 0.8681(36) 0.5386(12)
O13_4 O 0.3933(33) 0.8889(25) 0.6082(17)
C7_4 C 0.3382(33) 0.8558(26) 0.5889(13)
C8_4 C 0.2907(33) 0.7964(27) 0.6184(11)
C9_4 C 0.2926(40) 0.7691(33) 0.6693(14)
O14_4 O 0.0692(36) 0.6309(25) 0.10905(90)
O15_3 O 0.0013(32) 0.5526(16) 0.1489(17)
C10_4 C 0.0460(28) 0.6070(19) 0.1551(12)
C11_4 C 0.0690(25) 0.6504(17) 0.2034(15)
C12_4 C 0.1203(36) 0.7087(17) 0.2209(17)
Zr4_4 Zr 0.38893(97) 0.91984(75) 0.47478(30)
Zr6_4 Zr 0.08016(75) 0.61107(42) 0.02522(30)
O19_4 O 0.0134(23) 0.4438(15) 0.5420(15)
H5_4 H 0.212484 0.671377 0.699992
H8_4 H 0.328623 0.787516 0.699992
H11_4 H 0.152988 0.745849 0.30511
H12_4 H 0.152988 0.745849 0.19489
Zr3_4 Zr 0.91984(75) 0.53091(62) 0.52522(30)
O16_4 O 0.9866(23) 0.5562(15) 0.4580(15)
O17_4 O 0.8360(26) 0.4676(16) 0.5649(20)
O18_4 O 0.9303(37) 0.6210(23) 0.5168(26)
O20_4 O 0.9394(18) 0.4697(13) 0.5658(31)
O21_4 O 0.9104(33) 0.4552(23) 0.4824(20)
O22_4 O 0.8681(36) 0.5365(30) 0.4614(12)
O24_4 O 0.9308(36) 0.5617(26) 0.60905(90)
O25_3 O 0.9987(32) 0.4474(16) 0.6489(17)
O26_4 O 0.9987(32) 0.5513(28) 0.6489(17)
Zr1_5 Zr 0.08016(75) 0.46909(62) 0.02522(30)
O2_5 O 0.1640(26) 0.5324(16) 0.0649(20)
O3_5 O 0.0697(37) 0.3790(23) 0.0168(26)
O4_5 O 0.0606(18) 0.5303(13) 0.0658(31)
O9_5 O 0.0692(36) 0.4383(26) 0.10905(90)
O10_5 O 0.0013(32) 0.4487(28) 0.1489(17)
O11_5 O 0.0345(41) 0.4105(33) 0.250
C4_5 C 0.0460(28) 0.4390(20) 0.1551(12)
C5_5 C 0.0690(25) 0.4186(19) 0.2034(15)
C6_5 C 0.1203(36) 0.4116(32) 0.2209(17)
O14_5 O 0.0692(36) 0.4383(26) 0.39095(90)
O15_4 O 0.0013(32) 0.4487(28) 0.3511(17)
C10_5 C 0.0460(28) 0.4390(20) 0.3449(12)
C11_5 C 0.0690(25) 0.4186(19) 0.2966(15)
C12_5 C 0.1203(36) 0.4116(32) 0.2791(17)
H4_2 H 0.0961185 0.373755 0.0437745
H11_5 H 0.152988 0.40714 0.19489
H12_5 H 0.152988 0.40714 0.30511
Zr2_3 Zr 0.03711(73) 0.51855(67) 0.90726(43)
O1_5 O 0.0134(23) 0.4438(15) 0.9580(15)
O5_5 O 0.0896(33) 0.5448(23) 0.9824(20)
O6_5 O 0.1319(36) 0.4635(30) 0.9614(12)
O7_5 O 0.1111(25) 0.5044(21) 0.8918(17)
O8_5 O 0.2397(31) 0.4793(28) 0.9147(23)
C1_5 C 0.1442(26) 0.4824(20) 0.9111(13)
C2_5 C 0.2036(27) 0.4943(19) 0.8816(11)
C3_5 C 0.2309(33) 0.5235(23) 0.8307(14)
O12_5 O 0.3316(47) 0.4635(30) 0.9614(12)
O13_5 O 0.3933(33) 0.5044(21) 0.8918(17)
C7_5 C 0.3382(33) 0.4824(20) 0.9111(13)
C8_5 C 0.2907(33) 0.4943(19) 0.8816(11)
C9_5 C 0.2926(40) 0.5235(23) 0.8307(14)
O19_5 O 0.0134(23) 0.5696(17) 0.9580(15)
O23_4 O 0.1111(25) 0.6067(13) 0.8918(17)
H3_2 H 0.0823199 0.374359 0.979873
H5_5 H 0.212484 0.541107 0.800008
H8_5 H 0.328623 0.541107 0.800008
O16_5 O 0.9866(23) 0.4304(17) 0.0420(15)
O21_5 O 0.9104(33) 0.4552(23) 0.0176(20)
O22_5 O 0.8681(36) 0.3316(19) 0.0386(12)
H6_2 H 0.960096 0.316441 0.0126636
Zr3_5 Zr 0.91984(75) 0.38893(42) 0.97478(30)
O17_5 O 0.8360(26) 0.3684(21) 0.9351(20)
O18_5 O 0.9303(37) 0.3093(29) 0.9832(26)
O20_5 O 0.9394(18) 0.4697(13) 0.9342(31)
O24_5 O 0.9308(36) 0.3691(25) 0.89095(90)
O25_4 O 0.9987(32) 0.5513(28) 0.8511(17)
O26_5 O 0.9987(32) 0.4474(16) 0.8511(17)
H7_2 H 0.889682 0.272712 0.992017
O11_6 O 0.5895(33) 0.6240(25) 0.250
C4_6 C 0.5610(20) 0.6070(19) 0.1551(12)
C5_6 C 0.5814(19) 0.6504(17) 0.2034(15)
C6_6 C 0.5884(32) 0.7087(17) 0.2209(17)
O14_6 O 0.5617(26) 0.6309(25) 0.39095(90)
O15_5 O 0.5513(28) 0.5526(16) 0.3511(17)
C10_6 C 0.5610(20) 0.6070(19) 0.3449(12)
C11_6 C 0.5814(19) 0.6504(17) 0.2966(15)
C12_6 C 0.5884(32) 0.7087(17) 0.2791(17)
Zr4_5 Zr 0.53091(62) 0.91984(75) 0.02522(30)
H4_3 H 0.626245 0.722364 0.0437745
H6_3 H 0.683559 0.643655 0.0126636
H11_6 H 0.59286 0.745849 0.19489
H12_6 H 0.59286 0.745849 0.30511
O7_6 O 0.4956(21) 0.6067(13) 0.8918(17)
O8_6 O 0.5207(28) 0.7604(14) 0.9147(23)
C1_6 C 0.5176(20) 0.6618(17) 0.9111(13)
C2_6 C 0.5057(19) 0.7093(19) 0.8816(11)
C3_6 C 0.4765(23) 0.7074(23) 0.8307(14)
O12_6 O 0.5365(30) 0.8681(36) 0.9614(12)
O13_6 O 0.4956(21) 0.8889(25) 0.8918(17)
C7_6 C 0.5176(20) 0.8558(26) 0.9111(13)
C8_6 C 0.5057(19) 0.7964(27) 0.8816(11)
C9_6 C 0.4765(23) 0.7691(33) 0.8307(14)
O19_6 O 0.4304(17) 0.4438(15) 0.9580(15)
O25_5 O 0.4487(28) 0.4474(16) 0.8511(17)
H3_3 H 0.625641 0.707961 0.979873
H5_6 H 0.458893 0.671377 0.800008
H7_3 H 0.727288 0.61697 0.992017
H8_6 H 0.458893 0.787516 0.800008
Zr8_3 Zr 0.51855(67) 0.03711(73) 0.09274(43)
O25_6 O 0.4487(28) 0.0013(32) 0.6489(17)
O7_7 O 0.4956(21) 0.8889(25) 0.6082(17)
O8_7 O 0.5207(28) 0.7603(31) 0.5853(23)
C1_7 C 0.5176(20) 0.8558(26) 0.5889(13)
C2_7 C 0.5057(19) 0.7964(27) 0.6184(11)
C3_7 C 0.4765(23) 0.7691(33) 0.6693(14)
O11_7 O 0.5895(33) 0.9655(41) 0.250
C4_7 C 0.5610(20) 0.9540(28) 0.3449(12)
C5_7 C 0.5814(19) 0.9310(25) 0.2966(15)
C6_7 C 0.5884(32) 0.8797(36) 0.2791(17)
O12_7 O 0.5365(30) 0.6684(47) 0.5386(12)
C7_7 C 0.5176(20) 0.6618(33) 0.5889(13)
C8_7 C 0.5057(19) 0.7093(33) 0.6184(11)
C9_7 C 0.4765(23) 0.7074(40) 0.6693(14)
O14_7 O 0.5617(26) 0.9308(36) 0.10905(90)
O15_6 O 0.5513(28) 0.9987(32) 0.1489(17)
C10_7 C 0.5610(20) 0.9540(28) 0.1551(12)
C11_7 C 0.5814(19) 0.9310(25) 0.2034(15)
C12_7 C 0.5884(32) 0.8797(36) 0.2209(17)
O19_7 O 0.4304(17) 0.9866(23) 0.5420(15)
H5_7 H 0.458893 0.787516 0.699992
H8_7 H 0.458893 0.671377 0.699992
H11_7 H 0.59286 0.847012 0.30511
H12_7 H 0.59286 0.847012 0.19489
O1_6 O 0.4438(15) 0.0134(23) 0.0420(15)
O5_6 O 0.5448(23) 0.0896(33) 0.0176(20)
O6_6 O 0.4635(30) 0.1319(36) 0.0386(12)
O7_8 O 0.5044(21) 0.1111(25) 0.1082(17)
O8_8 O 0.4793(28) 0.2397(31) 0.0853(23)
C1_8 C 0.4824(20) 0.1442(26) 0.0889(13)
C2_8 C 0.4943(19) 0.2036(27) 0.1184(11)
C3_8 C 0.5235(23) 0.2309(33) 0.1693(14)
O12_8 O 0.4635(30) 0.3316(47) 0.0386(12)
C7_8 C 0.4824(20) 0.3382(33) 0.0889(13)
C8_8 C 0.4943(19) 0.2907(33) 0.1184(11)
C9_8 C 0.5235(23) 0.2926(40) 0.1693(14)
O19_8 O 0.5696(17) 0.0134(23) 0.0420(15)
O23_5 O 0.6067(13) 0.1111(25) 0.1082(17)
H3_4 H 0.374359 0.0823199 0.0201265
H5_8 H 0.541107 0.212484 0.199992
H8_8 H 0.541107 0.328623 0.199992
Zr1_6 Zr 0.46909(62) 0.08016(75) 0.97478(30)
O2_6 O 0.5324(16) 0.1640(26) 0.9351(20)
O3_6 O 0.3790(23) 0.0697(37) 0.9832(26)
O4_6 O 0.5303(13) 0.0606(18) 0.9342(31)
O9_6 O 0.4383(26) 0.0692(36) 0.89095(90)
O10_6 O 0.4487(28) 0.0013(32) 0.8511(17)
O11_8 O 0.4105(33) 0.0345(41) 0.750
C4_8 C 0.4390(20) 0.0460(28) 0.8449(12)
C5_8 C 0.4186(19) 0.0690(25) 0.7966(15)
C6_8 C 0.4116(32) 0.1203(36) 0.7791(17)
O14_8 O 0.4383(26) 0.0692(36) 0.60905(90)
C10_8 C 0.4390(20) 0.0460(28) 0.6551(12)
C11_8 C 0.4186(19) 0.0690(25) 0.7034(15)
C12_8 C 0.4116(32) 0.1203(36) 0.7209(17)
H4_4 H 0.373755 0.0961185 0.956225
H11_8 H 0.40714 0.152988 0.80511
H12_8 H 0.40714 0.152988 0.69489
Zr3_6 Zr 0.38893(42) 0.91984(75) 0.02522(30)
O17_6 O 0.3684(21) 0.8360(26) 0.0649(20)
O18_6 O 0.3093(29) 0.9303(37) 0.0168(26)
O20_6 O 0.4697(13) 0.9394(18) 0.0658(31)
O24_6 O 0.3691(25) 0.9308(36) 0.10905(90)
O26_6 O 0.4474(16) 0.9987(32) 0.1489(17)
H7_4 H 0.272712 0.889682 0.0079826
O16_6 O 0.4304(17) 0.9866(23) 0.9580(15)
O21_6 O 0.4552(23) 0.9104(33) 0.9824(20)
O22_6 O 0.3316(19) 0.8681(36) 0.9614(12)
H6_4 H 0.316441 0.960096 0.987336
O7_9 O 0.5044(21) 0.3933(13) 0.3918(17)
O8_9 O 0.4793(28) 0.2396(14) 0.4147(23)
C1_9 C 0.4824(20) 0.3382(17) 0.4111(13)
C2_9 C 0.4943(19) 0.2907(19) 0.3816(11)
C3_9 C 0.5235(23) 0.2926(23) 0.3307(14)
O11_9 O 0.4105(33) 0.3760(25) 0.750
C4_9 C 0.4390(20) 0.3930(19) 0.6551(12)
C5_9 C 0.4186(19) 0.3496(17) 0.7034(15)
C6_9 C 0.4116(32) 0.2913(17) 0.7209(17)
O12_9 O 0.4635(30) 0.1319(36) 0.4614(12)
C7_9 C 0.4824(20) 0.1442(26) 0.4111(13)
C8_9 C 0.4943(19) 0.2036(27) 0.3816(11)
C9_9 C 0.5235(23) 0.2309(33) 0.3307(14)
O14_9 O 0.4383(26) 0.3691(25) 0.89095(90)
C10_9 C 0.4390(20) 0.3930(19) 0.8449(12)
C11_9 C 0.4186(19) 0.3496(17) 0.7966(15)
C12_9 C 0.4116(32) 0.2913(17) 0.7791(17)
O19_9 O 0.5696(17) 0.5562(15) 0.4580(15)
O23_6 O 0.6067(13) 0.4956(21) 0.3918(17)
H5_9 H 0.541107 0.328623 0.300008
H8_9 H 0.541107 0.212484 0.300008
H11_9 H 0.40714 0.254151 0.69489
H12_9 H 0.40714 0.254151 0.80511
O7_10 O 0.8889(25) 0.4956(21) 0.3918(17)
O8_10 O 0.7603(31) 0.5207(28) 0.4147(23)
C1_10 C 0.8558(26) 0.5176(20) 0.4111(13)
C2_10 C 0.7964(27) 0.5057(19) 0.3816(11)
C3_10 C 0.7691(33) 0.4765(23) 0.3307(14)
O11_10 O 0.9655(41) 0.5895(33) 0.750
C4_10 C 0.9540(28) 0.5610(20) 0.6551(12)
C5_10 C 0.9310(25) 0.5814(19) 0.7034(15)
C6_10 C 0.8797(36) 0.5884(32) 0.7209(17)
O12_10 O 0.6684(47) 0.5365(30) 0.4614(12)
C7_10 C 0.6618(33) 0.5176(20) 0.4111(13)
C8_10 C 0.7093(33) 0.5057(19) 0.3816(11)
C9_10 C 0.7074(40) 0.4765(23) 0.3307(14)
O14_10 O 0.9308(36) 0.5617(26) 0.89095(90)
C10_10 C 0.9540(28) 0.5610(20) 0.8449(12)
C11_10 C 0.9310(25) 0.5814(19) 0.7966(15)
C12_10 C 0.8797(36) 0.5884(32) 0.7791(17)
O19_10 O 0.9866(23) 0.4304(17) 0.4580(15)
H5_10 H 0.787516 0.458893 0.300008
H8_10 H 0.671377 0.458893 0.300008
H11_10 H 0.847012 0.59286 0.69489
H12_10 H 0.847012 0.59286 0.80511
H7_5 H 0.110318 0.38303 0.0079826
H6_5 H 0.0399039 0.356345 0.987336
O7_11 O 0.8889(25) 0.3933(13) 0.1082(17)
O8_11 O 0.7603(31) 0.2396(14) 0.0853(23)
C1_11 C 0.8558(26) 0.3382(17) 0.0889(13)
C2_11 C 0.7964(27) 0.2907(19) 0.1184(11)
C3_11 C 0.7691(33) 0.2926(23) 0.1693(14)
O12_11 O 0.6684(47) 0.1319(36) 0.0386(12)
C7_11 C 0.6618(33) 0.1442(26) 0.0889(13)
C8_11 C 0.7093(33) 0.2036(27) 0.1184(11)
C9_11 C 0.7074(40) 0.2309(33) 0.1693(14)
O19_11 O 0.9866(23) 0.5562(15) 0.0420(15)
H3_5 H 0.91768 0.292039 0.0201265
H5_11 H 0.787516 0.328623 0.199992
H8_11 H 0.671377 0.212484 0.199992
O11_11 O 0.9655(41) 0.3760(25) 0.750
C4_11 C 0.9540(28) 0.3930(19) 0.8449(12)
C5_11 C 0.9310(25) 0.3496(17) 0.7966(15)
C6_11 C 0.8797(36) 0.2913(17) 0.7791(17)
O14_11 O 0.9308(36) 0.3691(25) 0.60905(90)
C10_11 C 0.9540(28) 0.3930(19) 0.6551(12)
C11_11 C 0.9310(25) 0.3496(17) 0.7034(15)
C12_11 C 0.8797(36) 0.2913(17) 0.7209(17)
H4_5 H 0.903882 0.277636 0.956225
H11_11 H 0.847012 0.254151 0.80511
H12_11 H 0.847012 0.254151 0.69489
H6_6 H 0.356345 0.0399039 0.0126636
H7_6 H 0.38303 0.110318 0.992017
O11_12 O 0.3760(25) 0.9655(41) 0.250
C4_12 C 0.3930(19) 0.9540(28) 0.1551(12)
C5_12 C 0.3496(17) 0.9310(25) 0.2034(15)
C6_12 C 0.2913(17) 0.8797(36) 0.2209(17)
O14_12 O 0.3691(25) 0.9308(36) 0.39095(90)
C10_12 C 0.3930(19) 0.9540(28) 0.3449(12)
C11_12 C 0.3496(17) 0.9310(25) 0.2966(15)
C12_12 C 0.2913(17) 0.8797(36) 0.2791(17)
H4_6 H 0.277636 0.903882 0.0437745
H11_12 H 0.254151 0.847012 0.19489
H12_12 H 0.254151 0.847012 0.30511
O7_12 O 0.3933(13) 0.8889(25) 0.8918(17)
O8_12 O 0.2396(14) 0.7603(31) 0.9147(23)
C1_12 C 0.3382(17) 0.8558(26) 0.9111(13)
C2_12 C 0.2907(19) 0.7964(27) 0.8816(11)
C3_12 C 0.2926(23) 0.7691(33) 0.8307(14)
O12_12 O 0.1319(36) 0.6684(47) 0.9614(12)
C7_12 C 0.1442(26) 0.6618(33) 0.9111(13)
C8_12 C 0.2036(27) 0.7093(33) 0.8816(11)
C9_12 C 0.2309(33) 0.7074(40) 0.8307(14)
O19_12 O 0.5562(15) 0.9866(23) 0.9580(15)
H3_6 H 0.292039 0.91768 0.979873
H5_12 H 0.328623 0.787516 0.800008
H8_12 H 0.212484 0.671377 0.800008
O2_7 O 0.6316(21) 0.4676(16) 0.5649(20)
O3_7 O 0.6907(29) 0.6210(23) 0.5168(26)
O17_7 O 0.4676(16) 0.6316(21) 0.4351(20)
O18_7 O 0.6210(23) 0.6907(29) 0.4832(26)
O17_8 O 0.5324(16) 0.1640(26) 0.5649(20)
O18_8 O 0.3790(23) 0.0697(37) 0.5168(26)
O2_8 O 0.3684(21) 0.8360(26) 0.4351(20)
O3_8 O 0.3093(29) 0.9303(37) 0.4832(26)
O2_9 O 0.3684(21) 0.5324(16) 0.0649(20)
O3_9 O 0.3093(29) 0.3790(23) 0.0168(26)
H4_7 H 0.277636 0.373755 0.0437745
H6_7 H 0.356345 0.316441 0.0126636
O17_9 O 0.5324(16) 0.3684(21) 0.9351(20)
O18_9 O 0.3790(23) 0.3093(29) 0.9832(26)
H3_7 H 0.292039 0.374359 0.979873
H7_7 H 0.38303 0.272712 0.992017
O17_10 O 0.1640(26) 0.5324(16) 0.4351(20)
O18_10 O 0.0697(37) 0.3790(23) 0.4832(26)
O2_10 O 0.8360(26) 0.3684(21) 0.5649(20)
O3_10 O 0.9303(37) 0.3093(29) 0.5168(26)
O17_11 O 0.1640(26) 0.6316(21) 0.0649(20)
O18_11 O 0.0697(37) 0.6907(29) 0.0168(26)
H7_8 H 0.110318 0.727288 0.0079826
H6_8 H 0.0399039 0.683559 0.987336
H3_8 H 0.91768 0.625641 0.0201265
O2_11 O 0.8360(26) 0.4676(16) 0.9351(20)
O3_11 O 0.9303(37) 0.6210(23) 0.9832(26)
H4_8 H 0.903882 0.626245 0.956225
H3_9 H 0.374359 0.292039 0.0201265
H7_9 H 0.272712 0.38303 0.0079826
H4_9 H 0.373755 0.277636 0.956225
H6_9 H 0.316441 0.356345 0.987336
H6_10 H 0.683559 0.0399039 0.0126636
O17_12 O 0.6316(21) 0.1640(26) 0.9351(20)
O18_12 O 0.6907(29) 0.0697(37) 0.9832(26)
H7_10 H 0.727288 0.110318 0.992017
O2_12 O 0.4676(16) 0.8360(26) 0.0649(20)
O3_12 O 0.6210(23) 0.9303(37) 0.0168(26)
H4_10 H 0.626245 0.903882 0.0437745
H3_10 H 0.625641 0.91768 0.979873
H4_11 H 0.0961185 0.722364 0.0437745
H3_11 H 0.0823199 0.707961 0.979873
H6_11 H 0.960096 0.643655 0.0126636
H7_11 H 0.889682 0.61697 0.992017
H3_12 H 0.707961 0.0823199 0.0201265
H4_12 H 0.722364 0.0961185 0.956225
H7_12 H 0.61697 0.889682 0.0079826
H6_12 H 0.643655 0.960096 0.987336
loop_
_geom_bond_atom_site_label_1
_geom_bond_atom_site_label_2
_geom_bond_site_symmetry_1
_geom_bond_site_symmetry_2
Zr1 O1 1_555 1_555
Zr2 O1 1_555 1_555
O1 Zr3 1_555 1_555
O2 Zr1 1_555 1_555
O3 Zr1 1_555 1_555
O4 Zr1 1_555 1_555
O5 Zr1 1_555 1_555
O6 Zr1 1_555 1_555
O7 Zr2 1_555 1_555
O8 C2 1_555 1_555
C1 O6 1_555 1_555
C2 C1 1_555 1_555
C3 C2 1_555 1_555
O9 Zr1 1_555 1_555
O10 C4 1_555 1_555
O11 C5 1_555 1_555
C4 O9 1_555 1_555
C5 C4 1_555 1_555
C6 C5 1_555 1_555
O12 C7 1_555 1_555
O13 C7 1_555 1_555
C7 C8 1_555 1_555
C8 O8 1_555 1_555
C9 C3 1_555 1_555
O14 C10 1_555 1_555
O15 C10 1_555 1_555
C10 C11 1_555 1_555
C11 O11 1_555 1_555
C12 C6 1_555 1_555
Zr3 O16 1_555 1_555
O16 Zr1 1_555 1_555
O17 Zr3 1_555 1_555
O18 Zr3 1_555 1_555
Zr4 O12 1_555 1_555
Zr5 O4 1_555 1_555
Zr6 O14 1_555 1_555
Zr7 O4 1_555 1_555
Zr8 O15 1_555 1_555
Zr9 O13 1_555 1_555
O19 Zr2 1_555 1_555
O20 Zr2 1_555 1_555
O21 Zr3 1_555 1_555
O22 Zr3 1_555 1_555
O23 Zr2 1_555 1_555
O24 Zr3 1_555 1_555
O25 Zr2 1_555 1_555
O26 Zr2 1_555 1_555
Zr2 O5 1_555 1_555
O5 Zr5 1_555 1_555
O7 C1 1_555 1_555
O10 Zr7 1_555 1_555
C8 C9 1_555 1_555
C11 C12 1_555 1_555
Zr3 O20 1_555 1_555
O16 Zr7 1_555 1_555
Zr5 O19 1_555 1_555
Zr7 O21 1_555 1_555
C3 H5 1_555 1_555
C9 H8 1_555 1_555
C6 H11 1_555 1_555
C12 H12 1_555 1_555
Zr1_2 O1_2 1_555 1_555
Zr2_2 O1_2 1_555 1_555
O2_2 Zr1_2 1_555 1_555
O3_2 Zr1_2 1_555 1_555
O4_2 Zr1_2 1_555 1_555
O5_2 Zr1_2 1_555 1_555
O6_2 Zr1_2 1_555 1_555
O7_2 Zr2_2 1_555 1_555
O8_2 C2_2 1_555 1_555
C1_2 O6_2 1_555 1_555
C2_2 C1_2 1_555 1_555
C3_2 C2_2 1_555 1_555
O9_2 Zr1_2 1_555 1_555
O10_2 C4_2 1_555 1_555
O11_2 C5_2 1_555 1_555
C4_2 O9_2 1_555 1_555
C5_2 C4_2 1_555 1_555
C6_2 C5_2 1_555 1_555
O12_2 C7_2 1_555 1_555
O13_2 C7_2 1_555 1_555
C7_2 C8_2 1_555 1_555
C8_2 O8_2 1_555 1_555
C9_2 C3_2 1_555 1_555
O14_2 C10_2 1_555 1_555
O15_2 C10_2 1_555 1_555
C10_2 C11_2 1_555 1_555
C11_2 O11_2 1_555 1_555
C12_2 C6_2 1_555 1_555
Zr4_2 O12_2 1_555 1_555
Zr5_2 O4_2 1_555 1_555
Zr6_2 O14_2 1_555 1_555
Zr9_2 O13_2 1_555 1_555
O19_2 Zr2_2 1_555 1_555
O23_2 Zr2_2 1_555 1_555
Zr2_2 O5_2 1_555 1_555
O5_2 Zr5_2 1_555 1_555
O7_2 C1_2 1_555 1_555
C8_2 C9_2 1_555 1_555
C11_2 C12_2 1_555 1_555
Zr5_2 O19_2 1_555 1_555
C3_2 H5_2 1_555 1_555
C9_2 H8_2 1_555 1_555
C6_2 H11_2 1_555 1_555
C12_2 H12_2 1_555 1_555
Zr3_2 O16_2 1_555 1_555
O17_2 Zr3_2 1_555 1_555
O18_2 Zr3_2 1_555 1_555
O21_2 Zr3_2 1_555 1_555
O22_2 Zr3_2 1_555 1_555
O24_2 Zr3_2 1_555 1_555
Zr3_2 O20_2 1_555 1_555
O16_2 Zr7_2 1_555 1_555
Zr7_2 O21_2 1_555 1_555
Zr8 O1_3 1_555 1_555
O1_3 Zr3_3 1_555 1_555
O7_3 Zr8 1_555 1_555
O8_3 C2_3 1_555 1_555
C1_3 O6_3 1_555 1_555
C2_3 C1_3 1_555 1_555
C3_3 C2_3 1_555 1_555
O12_3 C7_3 1_555 1_555
O13_3 C7_3 1_555 1_555
C7_3 C8_3 1_555 1_555
C8_3 O8_3 1_555 1_555
C9_3 C3_3 1_555 1_555
O17_3 Zr3_3 1_555 1_555
O18_3 Zr3_3 1_555 1_555
Zr9_3 O13_3 1_555 1_555
O19_3 Zr8 1_555 1_555
O20_3 Zr8 1_555 1_555
O23_3 Zr8 1_555 1_555
O24_3 Zr3_3 1_555 1_555
O26_3 Zr8 1_555 1_555
Zr8 O5_3 1_555 1_555
O7_3 C1_3 1_555 1_555
C8_3 C9_3 1_555 1_555
Zr3_3 O20_3 1_555 1_555
C3_3 H5_3 1_555 1_555
O18_3 H7 1_555 1_555
C9_3 H8_3 1_555 1_555
O2_3 Zr1_3 1_555 1_555
O3_3 Zr1_3 1_555 1_555
O4_3 Zr1_3 1_555 1_555
O9_3 Zr1_3 1_555 1_555
O10_3 C4_3 1_555 1_555
O11_3 C5_3 1_555 1_555
C4_3 O9_3 1_555 1_555
C5_3 C4_3 1_555 1_555
C6_3 C5_3 1_555 1_555
O14_3 C10_3 1_555 1_555
O25 C10_3 1_555 1_555
C10_3 C11_3 1_555 1_555
C11_3 O11_3 1_555 1_555
C12_3 C6_3 1_555 1_555
O16_3 Zr1_3 1_555 1_555
Zr5_3 O4_3 1_555 1_555
Zr6_3 O14_3 1_555 1_555
Zr7_3 O4_3 1_555 1_555
O10_3 Zr7_3 1_555 1_555
C11_3 C12_3 1_555 1_555
O16_3 Zr7_3 1_555 1_555
Zr7_3 O21_3 1_555 1_555
O3_3 H4 1_555 1_555
C6_3 H11_3 1_555 1_555
C12_3 H12_3 1_555 1_555
Zr1_4 O1_4 1_555 1_555
Zr9 O1_4 1_555 1_555
O2_4 Zr1_4 1_555 1_555
O3_4 Zr1_4 1_555 1_555
O4_4 Zr1_4 1_555 1_555
O5_4 Zr1_4 1_555 1_555
O6_4 Zr1_4 1_555 1_555
O7_4 Zr9 1_555 1_555
O8_4 C2_4 1_555 1_555
C1_4 O6_4 1_555 1_555
C2_4 C1_4 1_555 1_555
C3_4 C2_4 1_555 1_555
O9_4 Zr1_4 1_555 1_555
O10_4 C4_4 1_555 1_555
O11_4 C5_4 1_555 1_555
C4_4 O9_4 1_555 1_555
C5_4 C4_4 1_555 1_555
C6_4 C5_4 1_555 1_555
O12_4 C7_4 1_555 1_555
O13_4 C7_4 1_555 1_555
C7_4 C8_4 1_555 1_555
C8_4 O8_4 1_555 1_555
C9_4 C3_4 1_555 1_555
O14_4 C10_4 1_555 1_555
O15_3 C10_4 1_555 1_555
C10_4 C11_4 1_555 1_555
C11_4 O11_4 1_555 1_555
C12_4 C6_4 1_555 1_555
Zr4_4 O12_4 1_555 1_555
Zr4 O4_4 1_555 1_555
Zr6_4 O14_4 1_555 1_555
Zr7_2 O13_4 1_555 1_555
O19_4 Zr9 1_555 1_555
Zr9 O5_4 1_555 1_555
O5_4 Zr4 1_555 1_555
O7_4 C1_4 1_555 1_555
C8_4 C9_4 1_555 1_555
C11_4 C12_4 1_555 1_555
Zr4 O19_4 1_555 1_555
C3_4 H5_4 1_555 1_555
C9_4 H8_4 1_555 1_555
C6_4 H11_4 1_555 1_555
C12_4 H12_4 1_555 1_555
Zr3_4 O16_4 1_555 1_555
O17_4 Zr3_4 1_555 1_555
O18_4 Zr3_4 1_555 1_555
O21_4 Zr3_4 1_555 1_555
O22_4 Zr3_4 1_555 1_555
O24_4 Zr3_4 1_555 1_555
Zr3_4 O20_4 1_555 1_555
O16_4 Zr9_2 1_555 1_555
Zr9_2 O21_4 1_555 1_555
O2_5 Zr1_5 1_555 1_555
O3_5 Zr1_5 1_555 1_555
O4_5 Zr1_5 1_555 1_555
O9_5 Zr1_5 1_555 1_555
O10_5 C4_5 1_555 1_555
O11_5 C5_5 1_555 1_555
C4_5 O9_5 1_555 1_555
C5_5 C4_5 1_555 1_555
C6_5 C5_5 1_555 1_555
O14_5 C10_5 1_555 1_555
O15_4 C10_5 1_555 1_555
C10_5 C11_5 1_555 1_555
C11_5 O11_5 1_555 1_555
C12_5 C6_5 1_555 1_555
Zr6_4 O4_5 1_555 1_555
Zr4 O14_5 1_555 1_555
C11_5 C12_5 1_555 1_555
O3_5 H4_2 1_555 1_555
C6_5 H11_5 1_555 1_555
C12_5 H12_5 1_555 1_555
Zr2_3 O1_5 1_555 1_555
O7_5 Zr2_3 1_555 1_555
O8_5 C2_5 1_555 1_555
C1_5 O6_5 1_555 1_555
C2_5 C1_5 1_555 1_555
C3_5 C2_5 1_555 1_555
O12_5 C7_5 1_555 1_555
O13_5 C7_5 1_555 1_555
C7_5 C8_5 1_555 1_555
C8_5 O8_5 1_555 1_555
C9_5 C3_5 1_555 1_555
Zr7_3 O13_5 1_555 1_555
O19_5 Zr2_3 1_555 1_555
O23_4 Zr2_3 1_555 1_555
Zr2_3 O5_5 1_555 1_555
O7_5 C1_5 1_555 1_555
C8_5 C9_5 1_555 1_555
C3_5 H5_5 1_555 1_555
C9_5 H8_5 1_555 1_555
O16_5 Zr9_3 1_555 1_555
Zr9_3 O21_5 1_555 1_555
O17_5 Zr3_5 1_555 1_555
O18_5 Zr3_5 1_555 1_555
O24_5 Zr3_5 1_555 1_555
Zr3_5 O20_5 1_555 1_555
O18_5 H7_2 1_555 1_555
O26_3 C4_6 1_555 1_555
O11_6 C5_6 1_555 1_555
C4_6 O24_3 1_555 1_555
C5_6 C4_6 1_555 1_555
C6_6 C5_6 1_555 1_555
O14_6 C10_6 1_555 1_555
O15_5 C10_6 1_555 1_555
C10_6 C11_6 1_555 1_555
C11_6 O11_6 1_555 1_555
C12_6 C6_6 1_555 1_555
Zr6 O20_3 1_555 1_555
Zr5 O14_6 1_555 1_555
Zr7 O15_5 1_555 1_555
C11_6 C12_6 1_555 1_555
O18_3 H4_3 1_555 1_555
C6_6 H11_6 1_555 1_555
C12_6 H12_6 1_555 1_555
O7_6 Zr7_3 1_555 1_555
O8_6 C2_6 1_555 1_555
C1_6 O22_3 1_555 1_555
C2_6 C1_6 1_555 1_555
C3_6 C2_6 1_555 1_555
O12_6 C7_6 1_555 1_555
O13_6 C7_6 1_555 1_555
C7_6 C8_6 1_555 1_555
C8_6 O8_6 1_555 1_555
C9_6 C3_6 1_555 1_555
Zr8_2 O13_6 1_555 1_555
O19_6 Zr7_3 1_555 1_555
O25_5 Zr7_3 1_555 1_555
O7_6 C1_6 1_555 1_555
C8_6 C9_6 1_555 1_555
C3_6 H5_6 1_555 1_555
O3_3 H7_3 1_555 1_555
C9_6 H8_6 1_555 1_555
O7_7 Zr7_2 1_555 1_555
O8_7 C2_7 1_555 1_555
C1_7 O22_2 1_555 1_555
C2_7 C1_7 1_555 1_555
C3_7 C2_7 1_555 1_555
O26_2 C4_7 1_555 1_555
O11_7 C5_7 1_555 1_555
C4_7 O24_2 1_555 1_555
C5_7 C4_7 1_555 1_555
C6_7 C5_7 1_555 1_555
O12_7 C7_7 1_555 1_555
O23 C7_7 1_555 1_555
C7_7 C8_7 1_555 1_555
C8_7 O8_7 1_555 1_555
C9_7 C3_7 1_555 1_555
O14_7 C10_7 1_555 1_555
O15_6 C10_7 1_555 1_555
C10_7 C11_7 1_555 1_555
C11_7 O11_7 1_555 1_555
C12_7 C6_7 1_555 1_555
Zr5 O12_7 1_555 1_555
Zr4_4 O20_2 1_555 1_555
Zr4_5 O14_7 1_555 1_555
O19_7 Zr7_2 1_555 1_555
O21_2 Zr4_4 1_555 1_555
O7_7 C1_7 1_555 1_555
C8_7 C9_7 1_555 1_555
C11_7 C12_7 1_555 1_555
Zr4_4 O19_7 1_555 1_555
C3_7 H5_7 1_555 1_555
C9_7 H8_7 1_555 1_555
C6_7 H11_7 1_555 1_555
C12_7 H12_7 1_555 1_555
Zr8_3 O1_6 1_555 1_555
O7_8 Zr8_3 1_555 1_555
O8_8 C2_8 1_555 1_555
C1_8 O6_6 1_555 1_555
C2_8 C1_8 1_555 1_555
C3_8 C2_8 1_555 1_555
O12_8 C7_8 1_555 1_555
O23_3 C7_8 1_555 1_555
C7_8 C8_8 1_555 1_555
C8_8 O8_8 1_555 1_555
C9_8 C3_8 1_555 1_555
O19_8 Zr8_3 1_555 1_555
O23_5 Zr8_3 1_555 1_555
Zr8_3 O5_6 1_555 1_555
O7_8 C1_8 1_555 1_555
C8_8 C9_8 1_555 1_555
C3_8 H5_8 1_555 1_555
C9_8 H8_8 1_555 1_555
O2_6 Zr1_6 1_555 1_555
O3_6 Zr1_6 1_555 1_555
O4_6 Zr1_6 1_555 1_555
O9_6 Zr1_6 1_555 1_555
O10_6 C4_8 1_555 1_555
O11_8 C5_8 1_555 1_555
C4_8 O9_6 1_555 1_555
C5_8 C4_8 1_555 1_555
C6_8 C5_8 1_555 1_555
O14_8 C10_8 1_555 1_555
O25_6 C10_8 1_555 1_555
C10_8 C11_8 1_555 1_555
C11_8 O11_8 1_555 1_555
C12_8 C6_8 1_555 1_555
Zr6_2 O4_6 1_555 1_555
Zr5_2 O14_8 1_555 1_555
C11_8 C12_8 1_555 1_555
O3_6 H4_4 1_555 1_555
C6_8 H11_8 1_555 1_555
C12_8 H12_8 1_555 1_555
O17_6 Zr3_6 1_555 1_555
O18_6 Zr3_6 1_555 1_555
O24_6 Zr3_6 1_555 1_555
Zr3_6 O20_6 1_555 1_555
O18_6 H7_4 1_555 1_555
O16_6 Zr8_2 1_555 1_555
Zr8_2 O21_6 1_555 1_555
O7_9 Zr7 1_555 1_555
O8_9 C2_9 1_555 1_555
C1_9 O22 1_555 1_555
C2_9 C1_9 1_555 1_555
C3_9 C2_9 1_555 1_555
O26 C4_9 1_555 1_555
O11_9 C5_9 1_555 1_555
C4_9 O24 1_555 1_555
C5_9 C4_9 1_555 1_555
C6_9 C5_9 1_555 1_555
O12_9 C7_9 1_555 1_555
O23_2 C7_9 1_555 1_555
C7_9 C8_9 1_555 1_555
C8_9 O8_9 1_555 1_555
C9_9 C3_9 1_555 1_555
O14_9 C10_9 1_555 1_555
O25_5 C10_9 1_555 1_555
C10_9 C11_9 1_555 1_555
C11_9 O11_9 1_555 1_555
C12_9 C6_9 1_555 1_555
Zr5_2 O12_9 1_555 1_555
Zr6_3 O20 1_555 1_555
Zr5_3 O14_9 1_555 1_555
O19_9 Zr7 1_555 1_555
O23_6 Zr7 1_555 1_555
O21 Zr6_3 1_555 1_555
O7_9 C1_9 1_555 1_555
C8_9 C9_9 1_555 1_555
C11_9 C12_9 1_555 1_555
Zr6_3 O19_9 1_555 1_555
C3_9 H5_9 1_555 1_555
C9_9 H8_9 1_555 1_555
C6_9 H11_9 1_555 1_555
C12_9 H12_9 1_555 1_555
O7_10 Zr9_2 1_555 1_555
O8_10 C2_10 1_555 1_555
C1_10 O22_4 1_555 1_555
C2_10 C1_10 1_555 1_555
C3_10 C2_10 1_555 1_555
O26_4 C4_10 1_555 1_555
O11_10 C5_10 1_555 1_555
C4_10 O24_4 1_555 1_555
C5_10 C4_10 1_555 1_555
C6_10 C5_10 1_555 1_555
O12_10 C7_10 1_555 1_555
O23_6 C7_10 1_555 1_555
C7_10 C8_10 1_555 1_555
C8_10 O8_10 1_555 1_555
C9_10 C3_10 1_555 1_555
O14_10 C10_10 1_555 1_555
O25_4 C10_10 1_555 1_555
C10_10 C11_10 1_555 1_555
C11_10 O11_10 1_555 1_555
C12_10 C6_10 1_555 1_555
Zr6_3 O12_10 1_555 1_555
Zr4_2 O20_4 1_555 1_555
Zr4_3 O14_10 1_555 1_555
O19_10 Zr9_2 1_555 1_555
O21_4 Zr4_2 1_555 1_555
O7_10 C1_10 1_555 1_555
C8_10 C9_10 1_555 1_555
C11_10 C12_10 1_555 1_555
Zr4_2 O19_10 1_555 1_555
C3_10 H5_10 1_555 1_555
C9_10 H8_10 1_555 1_555
C6_10 H11_10 1_555 1_555
C12_10 H12_10 1_555 1_555
O3_5 H7_5 1_555 1_555
O7_11 Zr9_3 1_555 1_555
O8_11 C2_11 1_555 1_555
C1_11 O22_5 1_555 1_555
C2_11 C1_11 1_555 1_555
C3_11 C2_11 1_555 1_555
O12_11 C7_11 1_555 1_555
O23_5 C7_11 1_555 1_555
C7_11 C8_11 1_555 1_555
C8_11 O8_11 1_555 1_555
C9_11 C3_11 1_555 1_555
O19_11 Zr9_3 1_555 1_555
O7_11 C1_11 1_555 1_555
C8_11 C9_11 1_555 1_555
C3_11 H5_11 1_555 1_555
C9_11 H8_11 1_555 1_555
O26_5 C4_11 1_555 1_555
O11_11 C5_11 1_555 1_555
C4_11 O24_5 1_555 1_555
C5_11 C4_11 1_555 1_555
C6_11 C5_11 1_555 1_555
O14_11 C10_11 1_555 1_555
O25_3 C10_11 1_555 1_555
C10_11 C11_11 1_555 1_555
C11_11 O11_11 1_555 1_555
C12_11 C6_11 1_555 1_555
Zr4_3 O20_5 1_555 1_555
Zr4_2 O14_11 1_555 1_555
C11_11 C12_11 1_555 1_555
O18_5 H4_5 1_555 1_555
C6_11 H11_11 1_555 1_555
C12_11 H12_11 1_555 1_555
O3_6 H7_6 1_555 1_555
O26_6 C4_12 1_555 1_555
O11_12 C5_12 1_555 1_555
C4_12 O24_6 1_555 1_555
C5_12 C4_12 1_555 1_555
C6_12 C5_12 1_555 1_555
O14_12 C10_12 1_555 1_555
O25_2 C10_12 1_555 1_555
C10_12 C11_12 1_555 1_555
C11_12 O11_12 1_555 1_555
C12_12 C6_12 1_555 1_555
Zr4_5 O20_6 1_555 1_555
Zr4_4 O14_12 1_555 1_555
C11_12 C12_12 1_555 1_555
O18_6 H4_6 1_555 1_555
C6_12 H11_12 1_555 1_555
C12_12 H12_12 1_555 1_555
O7_12 Zr8_2 1_555 1_555
O8_12 C2_12 1_555 1_555
C1_12 O22_6 1_555 1_555
C2_12 C1_12 1_555 1_555
C3_12 C2_12 1_555 1_555
O12_12 C7_12 1_555 1_555
O23_4 C7_12 1_555 1_555
C7_12 C8_12 1_555 1_555
C8_12 O8_12 1_555 1_555
C9_12 C3_12 1_555 1_555
O19_12 Zr8_2 1_555 1_555
O7_12 C1_12 1_555 1_555
C8_12 C9_12 1_555 1_555
C3_12 H5_12 1_555 1_555
C9_12 H8_12 1_555 1_555
O19_9 Zr5 1_555 1_555
O2_7 Zr6_3 1_555 1_555
O3_7 Zr6_3 1_555 1_555
O19 Zr6_3 1_555 1_555
O17_7 Zr5 1_555 1_555
O18_7 Zr5 1_555 1_555
O17_8 Zr5_2 1_555 1_555
O18_8 Zr5_2 1_555 1_555
O2_8 Zr4_4 1_555 1_555
O3_8 Zr4_4 1_555 1_555
O2_9 Zr6 1_555 1_555
O3_9 Zr6 1_555 1_555
O19_3 Zr6 1_555 1_555
O3_9 H4_7 1_555 1_555
O19_6 Zr5_3 1_555 1_555
O17_9 Zr5_3 1_555 1_555
O18_9 Zr5_3 1_555 1_555
O18_9 H7_7 1_555 1_555
O17_10 Zr4 1_555 1_555
O18_10 Zr4 1_555 1_555
O2_10 Zr4_2 1_555 1_555
O3_10 Zr4_2 1_555 1_555
O17_11 Zr6_4 1_555 1_555
O18_11 Zr6_4 1_555 1_555
O18_11 H7_8 1_555 1_555
O2_11 Zr4_3 1_555 1_555
O3_11 Zr4_3 1_555 1_555
O3_11 H4_8 1_555 1_555
O3_9 H7_9 1_555 1_555
O18_9 H4_9 1_555 1_555
O17_12 Zr6_2 1_555 1_555
O18_12 Zr6_2 1_555 1_555
O18_12 H7_10 1_555 1_555
O2_12 Zr4_5 1_555 1_555
O3_12 Zr4_5 1_555 1_555
O3_12 H4_10 1_555 1_555
O18_11 H4_11 1_555 1_555
O3_11 H7_11 1_555 1_555
O18_12 H4_12 1_555 1_555
O3_12 H7_12 1_555 1_555

#END
