
###############################################################################
#
# This file contains modified crystal structure data generated from the
# MOF subset of the Cambridge Structural Database (CSD) v543 
# hosted by the Cambridge Crystallographic Data Centre (CCDC).
#
# This work is licensed under the Creative Commons
# Attribution-NonCommercial-ShareAlike 4.0 International License.
# To view a copy of this license, visit
# http://creativecommons.org/licenses/by-nc-sa/4.0/
# or send a letter to
# Creative Commons, PO Box 1866, Mountain View, CA 94042, USA.
#
# CIF created using the CSD Python API on 29 September 2022
# The structure has been converted into the P1 space group
# The structure has a 3D framework
# The original CSD entry SALXIP is in the hexagonal crystal system
# The framework has been calculated to contain at least 10.0% void space
# The void calculation uses a probe of radius 1.32A, grid spacing 0.4
# H atom positions have been added when not included in the experimental data
# Generated hydrogen atom positions removed from atoms on special positions
#
###############################################################################

data_SALXIP
_chemical_formula_moiety         '(C144 H240 Ce36 O178)n'
_symmetry_cell_setting           triclinic
_symmetry_space_group_name_H-M   'P 1'
_symmetry_Int_Tables_number      1
_space_group_name_Hall           'P 1'
loop_
_symmetry_equiv_pos_site_id
_symmetry_equiv_pos_as_xyz
1 x,y,z
_cell_length_a                   25.8627(12)
_cell_length_b                   25.8627(12)
_cell_length_c                   25.4591(13)
_cell_angle_alpha                90
_cell_angle_beta                 90
_cell_angle_gamma                120
_cell_volume                     14747.6
loop_
_atom_site_label
_atom_site_type_symbol
_atom_site_fract_x
_atom_site_fract_y
_atom_site_fract_z
_atom_site_U_iso_or_equiv
_atom_site_thermal_displace_type
Ce1 Ce 0.38348(28) 0.46705(30) 0.47570(20) 0.0144 Uiso
Ce2 Ce 0.48003(20) 0.51997(20) 0.59957(27) 0.0144 Uiso
O1 O 0.4182(11) 0.4365(12) 0.5474(11) 0.0536 Uiso
O2 O 0.4675(10) 0.5325(10) 0.4244(19) 0.0536 Uiso
O3 O 0.4497(10) 0.5503(10) 0.5255(17) 0.0536 Uiso
O4 O 0.3669(21) 0.5429(15) 0.4411(15) 0.0536 Uiso
O5 O 0.3039(28) 0.3700(10) 0.4915(20) 0.0536 Uiso
O6 O 0.3241(12) 0.4748(11) 0.53667(96) 0.0536 Uiso
O7 O 0.37897(92) 0.4968(11) 0.60917(69) 0.0536 Uiso
C1 C 0.3314(13) 0.4889(16) 0.58485(96) 0.0536 Uiso
C2 C 0.2969(15) 0.5004(16) 0.62635(88) 0.0536 Uiso
C3 C 0.2779(17) 0.5034(14) 0.6774(13) 0.0536 Uiso
O8 O 0.2462(10) 0.4924(21) 0.5981(15) 0.0536 Uiso
O9 O 0.3712(11) 0.4527(12) 0.38734(58) 0.0536 Uiso
O10 O 0.4413(11) 0.4406(13) 0.34578(79) 0.0536 Uiso
C4 C 0.3921(15) 0.4415(17) 0.34500(88) 0.0536 Uiso
C5 C 0.3551(13) 0.4322(16) 0.2957(11) 0.0536 Uiso
C6 C 0.3036(13) 0.4284(21) 0.2774(11) 0.0536 Uiso
O11 O 0.3858(27) 0.4332(31) 0.250 0.0536 Uiso
O12 O 0.1507(16) 0.4748(11) 0.53667(96) 0.0536 Uiso
O13 O 0.1178(14) 0.4968(11) 0.60917(69) 0.0536 Uiso
C7 C 0.1575(21) 0.4889(16) 0.58485(96) 0.0536 Uiso
C8 C 0.2035(22) 0.5004(16) 0.62635(88) 0.0536 Uiso
C9 C 0.2255(22) 0.5034(14) 0.6774(13) 0.0536 Uiso
O14 O 0.3712(11) 0.4527(12) 0.11266(58) 0.0536 Uiso
O15 O 0.4413(11) 0.4406(13) 0.15422(79) 0.0536 Uiso
C10 C 0.3921(15) 0.4415(17) 0.15500(88) 0.0536 Uiso
C11 C 0.3551(13) 0.4322(16) 0.2043(11) 0.0536 Uiso
C12 C 0.3036(13) 0.4284(21) 0.2226(11) 0.0536 Uiso
Ce3 Ce 0.46705(30) 0.38348(28) 0.52430(20) 0.0144 Uiso
O16 O 0.4365(12) 0.4182(11) 0.4526(11) 0.0536 Uiso
O17 O 0.5429(15) 0.3669(21) 0.5589(15) 0.0536 Uiso
O18 O 0.3700(10) 0.3039(28) 0.5085(20) 0.0536 Uiso
Ce4 Ce 0.08357(41) 0.46705(30) 0.47570(20) 0.0144 Uiso
Ce5 Ce 0.53295(30) 0.61652(28) 0.47570(20) 0.0144 Uiso
Ce6 Ce 0.38348(28) 0.46705(30) 0.02430(20) 0.0144 Uiso
Ce7 Ce 0.51997(20) 0.48003(20) 0.40043(27) 0.0144 Uiso
Ce8 Ce 0.51997(20) 0.48003(20) 0.09957(27) 0.0144 Uiso
Ce9 Ce 0.03994(28) 0.51997(20) 0.59957(27) 0.0144 Uiso
O19 O 0.5635(12) 0.5818(11) 0.5474(11) 0.0536 Uiso
O20 O 0.5325(10) 0.4675(10) 0.5756(19) 0.0536 Uiso
O21 O 0.5503(10) 0.4497(10) 0.4745(17) 0.0536 Uiso
O22 O 0.4748(11) 0.3241(12) 0.46333(96) 0.0536 Uiso
O23 O 0.5032(11) 0.62103(92) 0.60917(69) 0.0536 Uiso
O24 O 0.4527(12) 0.3712(11) 0.61266(58) 0.0536 Uiso
O25 O 0.5587(11) 0.5594(13) 0.65422(79) 0.0536 Uiso
O26 O 0.4406(13) 0.4413(11) 0.65422(79) 0.0536 Uiso
H1 H 0.302437 0.505483 0.712849 . .
H8 H 0.203046 0.505483 0.712849 . .
H11 H 0.267883 0.425765 0.198041 . .
H12 H 0.267883 0.425765 0.301959 . .
Ce1_2 Ce 0.61652(28) 0.08357(41) 0.52430(20) 0.0144 Uiso
Ce2_2 Ce 0.51997(20) 0.03994(28) 0.40043(27) 0.0144 Uiso
O1_2 O 0.5818(11) 0.0183(16) 0.4526(11) 0.0536 Uiso
O2_2 O 0.5325(10) 0.0650(14) 0.5756(19) 0.0536 Uiso
O3_2 O 0.5503(10) 0.1006(14) 0.4745(17) 0.0536 Uiso
O4_2 O 0.6331(21) 0.1760(26) 0.5589(15) 0.0536 Uiso
O5_2 O 0.6961(28) 0.0661(30) 0.5085(20) 0.0536 Uiso
O6_2 O 0.6759(12) 0.1507(16) 0.46333(96) 0.0536 Uiso
O7_2 O 0.62103(92) 0.1178(14) 0.39083(69) 0.0536 Uiso
C1_2 C 0.6686(13) 0.1575(21) 0.41515(96) 0.0536 Uiso
C2_2 C 0.7031(15) 0.2035(22) 0.37365(88) 0.0536 Uiso
C3_2 C 0.7221(17) 0.2255(22) 0.3226(13) 0.0536 Uiso
O8_2 O 0.7538(10) 0.2462(23) 0.4019(15) 0.0536 Uiso
O9_2 O 0.6288(11) 0.0815(16) 0.61266(58) 0.0536 Uiso
C4_2 C 0.6079(15) 0.0494(23) 0.65500(88) 0.0536 Uiso
C5_2 C 0.6449(13) 0.0771(21) 0.7043(11) 0.0536 Uiso
C6_2 C 0.6964(13) 0.1248(25) 0.7226(11) 0.0536 Uiso
O11_2 O 0.6142(27) 0.0474(41) 0.750 0.0536 Uiso
O12_2 O 0.8493(16) 0.3241(19) 0.46333(96) 0.0536 Uiso
O13_2 O 0.8822(14) 0.3790(18) 0.39083(69) 0.0536 Uiso
C7_2 C 0.8425(21) 0.3314(26) 0.41515(96) 0.0536 Uiso
C8_2 C 0.7965(22) 0.2969(27) 0.37365(88) 0.0536 Uiso
C9_2 C 0.7745(22) 0.2779(26) 0.3226(13) 0.0536 Uiso
O14_2 O 0.6288(11) 0.0815(16) 0.88734(58) 0.0536 Uiso
C10_2 C 0.6079(15) 0.0494(23) 0.84500(88) 0.0536 Uiso
C11_2 C 0.6449(13) 0.0771(21) 0.7957(11) 0.0536 Uiso
C12_2 C 0.6964(13) 0.1248(25) 0.7774(11) 0.0536 Uiso
Ce4_2 Ce 0.91643(41) 0.38348(51) 0.52430(20) 0.0144 Uiso
Ce5_2 Ce 0.46705(30) 0.08357(41) 0.52430(20) 0.0144 Uiso
Ce6_2 Ce 0.61652(28) 0.08357(41) 0.97570(20) 0.0144 Uiso
Ce9_2 Ce 0.96006(28) 0.48003(34) 0.40043(27) 0.0144 Uiso
O19_2 O 0.4365(12) 0.0183(16) 0.4526(11) 0.0536 Uiso
O23_2 O 0.4968(11) 0.1178(14) 0.39083(69) 0.0536 Uiso
O25_2 O 0.4413(11) 0.0007(17) 0.34578(79) 0.0536 Uiso
O26_2 O 0.5594(13) 0.0007(17) 0.34578(79) 0.0536 Uiso
H1_2 H 0.697563 0.203046 0.287151 . .
H8_2 H 0.796954 0.302437 0.287151 . .
H11_2 H 0.732117 0.157882 0.801959 . .
H12_2 H 0.732117 0.157882 0.698041 . .
O10_2 O 0.5587(11) 0.9993(17) 0.65422(79) 0.0536 Uiso
O15_2 O 0.5587(11) 0.9993(17) 0.84578(79) 0.0536 Uiso
Ce3_2 Ce 0.53295(30) 0.91643(41) 0.47570(20) 0.0144 Uiso
O16_2 O 0.5635(12) 0.9817(16) 0.5474(11) 0.0536 Uiso
O17_2 O 0.4571(15) 0.8240(26) 0.4411(15) 0.0536 Uiso
O18_2 O 0.6300(10) 0.9339(30) 0.4915(20) 0.0536 Uiso
Ce7_2 Ce 0.48003(20) 0.96006(28) 0.59957(27) 0.0144 Uiso
Ce8_2 Ce 0.48003(20) 0.96006(28) 0.90043(27) 0.0144 Uiso
O20_2 O 0.4675(10) 0.9350(14) 0.4244(19) 0.0536 Uiso
O21_2 O 0.4497(10) 0.8994(14) 0.5255(17) 0.0536 Uiso
O22_2 O 0.5252(11) 0.8493(16) 0.53667(96) 0.0536 Uiso
O24_2 O 0.5473(12) 0.9185(16) 0.38734(58) 0.0536 Uiso
O1_3 O 0.5818(11) 0.5635(12) 0.0474(11) 0.0536 Uiso
O3_3 O 0.5503(10) 0.4497(10) 0.0255(17) 0.0536 Uiso
O6_3 O 0.6759(12) 0.5252(11) 0.03667(96) 0.0536 Uiso
O7_3 O 0.62103(92) 0.5032(11) 0.10917(69) 0.0536 Uiso
C1_3 C 0.6686(13) 0.5111(16) 0.08485(96) 0.0536 Uiso
C2_3 C 0.7031(15) 0.4996(16) 0.12635(88) 0.0536 Uiso
C3_3 C 0.7221(17) 0.4966(14) 0.1774(13) 0.0536 Uiso
O8_3 O 0.7538(10) 0.5076(21) 0.0981(15) 0.0536 Uiso
O12_3 O 0.8493(16) 0.5252(11) 0.03667(96) 0.0536 Uiso
O13_3 O 0.8822(14) 0.5032(11) 0.10917(69) 0.0536 Uiso
C7_3 C 0.8425(21) 0.5111(16) 0.08485(96) 0.0536 Uiso
C8_3 C 0.7965(22) 0.4996(16) 0.12635(88) 0.0536 Uiso
C9_3 C 0.7745(22) 0.4966(14) 0.1774(13) 0.0536 Uiso
Ce3_3 Ce 0.53295(30) 0.61652(28) 0.02430(20) 0.0144 Uiso
O17_3 O 0.4571(15) 0.6331(21) 0.0589(15) 0.0536 Uiso
O18_3 O 0.6300(10) 0.6961(28) 0.0085(20) 0.0536 Uiso
Ce9_3 Ce 0.96006(28) 0.48003(20) 0.09957(27) 0.0144 Uiso
O19_3 O 0.4365(12) 0.4182(11) 0.0474(11) 0.0536 Uiso
O20_3 O 0.4675(10) 0.5325(10) 0.0756(19) 0.0536 Uiso
O23_3 O 0.4968(11) 0.37897(92) 0.10917(69) 0.0536 Uiso
O24_3 O 0.5473(12) 0.6288(11) 0.11266(58) 0.0536 Uiso
O26_3 O 0.5594(13) 0.5587(11) 0.15422(79) 0.0536 Uiso
H1_3 H 0.697563 0.494517 0.212849 . .
H4 H 0.711552 0.632284 0.0276378 . .
H8_3 H 0.796954 0.494517 0.212849 . .
Ce1_3 Ce 0.61652(28) 0.53295(30) 0.97570(20) 0.0144 Uiso
O2_3 O 0.5325(10) 0.4675(10) 0.9244(19) 0.0536 Uiso
O4_3 O 0.6331(21) 0.4571(15) 0.9411(15) 0.0536 Uiso
O5_3 O 0.6961(28) 0.6300(10) 0.9915(20) 0.0536 Uiso
O9_3 O 0.6288(11) 0.5473(12) 0.88734(58) 0.0536 Uiso
O10_3 O 0.5587(11) 0.5594(13) 0.84578(79) 0.0536 Uiso
C4_3 C 0.6079(15) 0.5585(17) 0.84500(88) 0.0536 Uiso
C5_3 C 0.6449(13) 0.5678(16) 0.7957(11) 0.0536 Uiso
C6_3 C 0.6964(13) 0.5716(21) 0.7774(11) 0.0536 Uiso
O11_3 O 0.6142(27) 0.5668(31) 0.750 0.0536 Uiso
O14_3 O 0.6288(11) 0.5473(12) 0.61266(58) 0.0536 Uiso
C10_3 C 0.6079(15) 0.5585(17) 0.65500(88) 0.0536 Uiso
C11_3 C 0.6449(13) 0.5678(16) 0.7043(11) 0.0536 Uiso
C12_3 C 0.6964(13) 0.5716(21) 0.7226(11) 0.0536 Uiso
O16_3 O 0.5635(12) 0.5818(11) 0.9526(11) 0.0536 Uiso
Ce4_3 Ce 0.91643(41) 0.53295(30) 0.97570(20) 0.0144 Uiso
Ce5_3 Ce 0.46705(30) 0.38348(28) 0.97570(20) 0.0144 Uiso
Ce6_3 Ce 0.61652(28) 0.53295(30) 0.52430(20) 0.0144 Uiso
Ce7_3 Ce 0.48003(20) 0.51997(20) 0.90043(27) 0.0144 Uiso
O21_3 O 0.4497(10) 0.5503(10) 0.9745(17) 0.0536 Uiso
O22_3 O 0.5252(11) 0.6759(12) 0.96333(96) 0.0536 Uiso
H5 H 0.728503 0.639645 0.965726 . .
H9 H 0.649353 0.684332 0.980988 . .
H10 H 0.627895 0.731519 0.99645 . .
H11_3 H 0.732117 0.574235 0.698041 . .
H12_3 H 0.732117 0.574235 0.801959 . .
Ce1_4 Ce 0.08357(41) 0.61652(28) 0.47570(20) 0.0144 Uiso
O1_4 O 0.0183(16) 0.5818(11) 0.5474(11) 0.0536 Uiso
O2_4 O 0.0650(14) 0.5325(10) 0.4244(19) 0.0536 Uiso
O3_4 O 0.1006(14) 0.5503(10) 0.5255(17) 0.0536 Uiso
O4_4 O 0.1760(26) 0.6331(21) 0.4411(15) 0.0536 Uiso
O5_4 O 0.0661(30) 0.6961(28) 0.4915(20) 0.0536 Uiso
O6_4 O 0.1507(16) 0.6759(12) 0.53667(96) 0.0536 Uiso
O7_4 O 0.1178(14) 0.62103(92) 0.60917(69) 0.0536 Uiso
C1_4 C 0.1575(21) 0.6686(13) 0.58485(96) 0.0536 Uiso
C2_4 C 0.2035(22) 0.7031(15) 0.62635(88) 0.0536 Uiso
C3_4 C 0.2255(22) 0.7221(17) 0.6774(13) 0.0536 Uiso
O8_4 O 0.2462(23) 0.7538(10) 0.5981(15) 0.0536 Uiso
O9_4 O 0.0815(16) 0.6288(11) 0.38734(58) 0.0536 Uiso
C4_4 C 0.0494(23) 0.6079(15) 0.34500(88) 0.0536 Uiso
C5_4 C 0.0771(21) 0.6449(13) 0.2957(11) 0.0536 Uiso
C6_4 C 0.1248(25) 0.6964(13) 0.2774(11) 0.0536 Uiso
O11_4 O 0.0474(41) 0.6142(27) 0.250 0.0536 Uiso
O12_4 O 0.3241(19) 0.8493(16) 0.53667(96) 0.0536 Uiso
O13_4 O 0.3790(18) 0.8822(14) 0.60917(69) 0.0536 Uiso
C7_4 C 0.3314(26) 0.8425(21) 0.58485(96) 0.0536 Uiso
C8_4 C 0.2969(27) 0.7965(22) 0.62635(88) 0.0536 Uiso
C9_4 C 0.2779(26) 0.7745(22) 0.6774(13) 0.0536 Uiso
O14_4 O 0.0815(16) 0.6288(11) 0.11266(58) 0.0536 Uiso
C10_4 C 0.0494(23) 0.6079(15) 0.15500(88) 0.0536 Uiso
C11_4 C 0.0771(21) 0.6449(13) 0.2043(11) 0.0536 Uiso
C12_4 C 0.1248(25) 0.6964(13) 0.2226(11) 0.0536 Uiso
Ce4_4 Ce 0.38348(51) 0.91643(41) 0.47570(20) 0.0144 Uiso
Ce6_4 Ce 0.08357(41) 0.61652(28) 0.02430(20) 0.0144 Uiso
O19_4 O 0.0183(16) 0.4365(12) 0.5474(11) 0.0536 Uiso
O25_3 O 0.0007(17) 0.4413(11) 0.65422(79) 0.0536 Uiso
O26_4 O 0.0007(17) 0.5594(13) 0.65422(79) 0.0536 Uiso
H1_4 H 0.203046 0.697563 0.712849 . .
H8_4 H 0.302437 0.796954 0.712849 . .
H11_4 H 0.157882 0.732117 0.198041 . .
H12_4 H 0.157882 0.732117 0.301959 . .
O10_4 O 0.9993(17) 0.5587(11) 0.34578(79) 0.0536 Uiso
O15_3 O 0.9993(17) 0.5587(11) 0.15422(79) 0.0536 Uiso
Ce3_4 Ce 0.91643(41) 0.53295(30) 0.52430(20) 0.0144 Uiso
O16_4 O 0.9817(16) 0.5635(12) 0.4526(11) 0.0536 Uiso
O17_4 O 0.8240(26) 0.4571(15) 0.5589(15) 0.0536 Uiso
O18_4 O 0.9339(30) 0.6300(10) 0.5085(20) 0.0536 Uiso
O20_4 O 0.9350(14) 0.4675(10) 0.5756(19) 0.0536 Uiso
O21_4 O 0.8994(14) 0.4497(10) 0.4745(17) 0.0536 Uiso
O22_4 O 0.8493(16) 0.5252(11) 0.46333(96) 0.0536 Uiso
O24_4 O 0.9185(16) 0.5473(12) 0.61266(58) 0.0536 Uiso
Ce1_5 Ce 0.08357(41) 0.46705(30) 0.02430(20) 0.0144 Uiso
O2_5 O 0.0650(14) 0.5325(10) 0.0756(19) 0.0536 Uiso
O4_5 O 0.1760(26) 0.5429(15) 0.0589(15) 0.0536 Uiso
O5_5 O 0.0661(30) 0.3700(10) 0.0085(20) 0.0536 Uiso
O9_5 O 0.0815(16) 0.4527(12) 0.11266(58) 0.0536 Uiso
C4_5 C 0.0494(23) 0.4415(17) 0.15500(88) 0.0536 Uiso
C5_5 C 0.0771(21) 0.4322(16) 0.2043(11) 0.0536 Uiso
C6_5 C 0.1248(25) 0.4284(21) 0.2226(11) 0.0536 Uiso
O11_5 O 0.0474(41) 0.4332(31) 0.250 0.0536 Uiso
O14_5 O 0.0815(16) 0.4527(12) 0.38734(58) 0.0536 Uiso
C10_5 C 0.0494(23) 0.4415(17) 0.34500(88) 0.0536 Uiso
C11_5 C 0.0771(21) 0.4322(16) 0.2957(11) 0.0536 Uiso
C12_5 C 0.1248(25) 0.4284(21) 0.2774(11) 0.0536 Uiso
H5_2 H 0.0888579 0.360355 0.0342743 . .
H11_5 H 0.157882 0.425765 0.301959 . .
H12_5 H 0.157882 0.425765 0.198041 . .
Ce2_3 Ce 0.03994(28) 0.51997(20) 0.90043(27) 0.0144 Uiso
O1_5 O 0.0183(16) 0.4365(12) 0.9526(11) 0.0536 Uiso
O3_5 O 0.1006(14) 0.5503(10) 0.9745(17) 0.0536 Uiso
O6_5 O 0.1507(16) 0.4748(11) 0.96333(96) 0.0536 Uiso
O7_5 O 0.1178(14) 0.4968(11) 0.89083(69) 0.0536 Uiso
C1_5 C 0.1575(21) 0.4889(16) 0.91515(96) 0.0536 Uiso
C2_5 C 0.2035(22) 0.5004(16) 0.87365(88) 0.0536 Uiso
C3_5 C 0.2255(22) 0.5034(14) 0.8226(13) 0.0536 Uiso
O8_5 O 0.2462(23) 0.4924(21) 0.9019(15) 0.0536 Uiso
O12_5 O 0.3241(19) 0.4748(11) 0.96333(96) 0.0536 Uiso
O13_5 O 0.3790(18) 0.4968(11) 0.89083(69) 0.0536 Uiso
C7_5 C 0.3314(26) 0.4889(16) 0.91515(96) 0.0536 Uiso
C8_5 C 0.2969(27) 0.5004(16) 0.87365(88) 0.0536 Uiso
C9_5 C 0.2779(26) 0.5034(14) 0.8226(13) 0.0536 Uiso
O19_5 O 0.0183(16) 0.5818(11) 0.9526(11) 0.0536 Uiso
O23_4 O 0.1178(14) 0.62103(92) 0.89083(69) 0.0536 Uiso
O25_4 O 0.0007(17) 0.5594(13) 0.84578(79) 0.0536 Uiso
O26_5 O 0.0007(17) 0.4413(11) 0.84578(79) 0.0536 Uiso
H1_5 H 0.203046 0.505483 0.787151 . .
H4_2 H 0.0792681 0.367716 0.972362 . .
H8_5 H 0.302437 0.505483 0.787151 . .
O10_5 O 0.9993(17) 0.4406(13) 0.15422(79) 0.0536 Uiso
O15_4 O 0.9993(17) 0.4406(13) 0.34578(79) 0.0536 Uiso
O16_5 O 0.9817(16) 0.4182(11) 0.0474(11) 0.0536 Uiso
O21_5 O 0.8994(14) 0.4497(10) 0.0255(17) 0.0536 Uiso
O22_5 O 0.8493(16) 0.3241(12) 0.03667(96) 0.0536 Uiso
H9_2 H 0.96502 0.315668 0.0190116 . .
H10_2 H 0.896376 0.268481 0.00354987 . .
Ce3_5 Ce 0.91643(41) 0.38348(28) 0.97570(20) 0.0144 Uiso
O17_5 O 0.8240(26) 0.3669(21) 0.9411(15) 0.0536 Uiso
O18_5 O 0.9339(30) 0.3039(28) 0.9915(20) 0.0536 Uiso
O20_5 O 0.9350(14) 0.4675(10) 0.9244(19) 0.0536 Uiso
O24_5 O 0.9185(16) 0.3712(11) 0.88734(58) 0.0536 Uiso
C4_6 C 0.5585(17) 0.6079(15) 0.15500(88) 0.0536 Uiso
C5_6 C 0.5678(16) 0.6449(13) 0.2043(11) 0.0536 Uiso
C6_6 C 0.5716(21) 0.6964(13) 0.2226(11) 0.0536 Uiso
O11_6 O 0.5668(31) 0.6142(27) 0.250 0.0536 Uiso
O14_6 O 0.5473(12) 0.6288(11) 0.38734(58) 0.0536 Uiso
O15_5 O 0.5594(13) 0.5587(11) 0.34578(79) 0.0536 Uiso
C10_6 C 0.5585(17) 0.6079(15) 0.34500(88) 0.0536 Uiso
C11_6 C 0.5678(16) 0.6449(13) 0.2957(11) 0.0536 Uiso
C12_6 C 0.5716(21) 0.6964(13) 0.2774(11) 0.0536 Uiso
Ce4_5 Ce 0.53295(30) 0.91643(41) 0.02430(20) 0.0144 Uiso
H5_3 H 0.639645 0.728503 0.0342743 . .
H9_3 H 0.684332 0.649353 0.0190116 . .
H10_3 H 0.731519 0.627895 0.00354987 . .
H11_6 H 0.574235 0.732117 0.301959 . .
H12_6 H 0.574235 0.732117 0.198041 . .
O7_6 O 0.5032(11) 0.62103(92) 0.89083(69) 0.0536 Uiso
C1_6 C 0.5111(16) 0.6686(13) 0.91515(96) 0.0536 Uiso
C2_6 C 0.4996(16) 0.7031(15) 0.87365(88) 0.0536 Uiso
C3_6 C 0.4966(14) 0.7221(17) 0.8226(13) 0.0536 Uiso
O8_6 O 0.5076(21) 0.7538(10) 0.9019(15) 0.0536 Uiso
O12_6 O 0.5252(11) 0.8493(16) 0.96333(96) 0.0536 Uiso
O13_6 O 0.5032(11) 0.8822(14) 0.89083(69) 0.0536 Uiso
C7_6 C 0.5111(16) 0.8425(21) 0.91515(96) 0.0536 Uiso
C8_6 C 0.4996(16) 0.7965(22) 0.87365(88) 0.0536 Uiso
C9_6 C 0.4966(14) 0.7745(22) 0.8226(13) 0.0536 Uiso
O19_6 O 0.4182(11) 0.4365(12) 0.9526(11) 0.0536 Uiso
O25_5 O 0.4406(13) 0.4413(11) 0.84578(79) 0.0536 Uiso
H1_6 H 0.494517 0.697563 0.787151 . .
H4_3 H 0.632284 0.711552 0.972362 . .
H8_6 H 0.494517 0.796954 0.787151 . .
O15_6 O 0.5594(13) 0.0007(17) 0.15422(79) 0.0536 Uiso
Ce8_3 Ce 0.51997(20) 0.03994(28) 0.09957(27) 0.0144 Uiso
O7_7 O 0.5032(11) 0.8822(14) 0.60917(69) 0.0536 Uiso
C1_7 C 0.5111(16) 0.8425(21) 0.58485(96) 0.0536 Uiso
C2_7 C 0.4996(16) 0.7965(22) 0.62635(88) 0.0536 Uiso
C3_7 C 0.4966(14) 0.7745(22) 0.6774(13) 0.0536 Uiso
O8_7 O 0.5076(21) 0.7538(23) 0.5981(15) 0.0536 Uiso
C4_7 C 0.5585(17) 0.9506(23) 0.34500(88) 0.0536 Uiso
C5_7 C 0.5678(16) 0.9229(21) 0.2957(11) 0.0536 Uiso
C6_7 C 0.5716(21) 0.8752(25) 0.2774(11) 0.0536 Uiso
O11_7 O 0.5668(31) 0.9526(41) 0.250 0.0536 Uiso
O12_7 O 0.5252(11) 0.6759(19) 0.53667(96) 0.0536 Uiso
C7_7 C 0.5111(16) 0.6686(26) 0.58485(96) 0.0536 Uiso
C8_7 C 0.4996(16) 0.7031(27) 0.62635(88) 0.0536 Uiso
C9_7 C 0.4966(14) 0.7221(26) 0.6774(13) 0.0536 Uiso
O14_7 O 0.5473(12) 0.9185(16) 0.11266(58) 0.0536 Uiso
C10_7 C 0.5585(17) 0.9506(23) 0.15500(88) 0.0536 Uiso
C11_7 C 0.5678(16) 0.9229(21) 0.2043(11) 0.0536 Uiso
C12_7 C 0.5716(21) 0.8752(25) 0.2226(11) 0.0536 Uiso
O19_7 O 0.4182(11) 0.9817(16) 0.5474(11) 0.0536 Uiso
O25_6 O 0.4406(13) 0.9993(17) 0.65422(79) 0.0536 Uiso
H1_7 H 0.494517 0.796954 0.712849 . .
H8_7 H 0.494517 0.697563 0.712849 . .
H11_7 H 0.574235 0.842118 0.198041 . .
H12_7 H 0.574235 0.842118 0.301959 . .
O1_6 O 0.4365(12) 0.0183(16) 0.0474(11) 0.0536 Uiso
O3_6 O 0.5503(10) 0.1006(14) 0.0255(17) 0.0536 Uiso
O6_6 O 0.4748(11) 0.1507(16) 0.03667(96) 0.0536 Uiso
O7_8 O 0.4968(11) 0.1178(14) 0.10917(69) 0.0536 Uiso
C1_8 C 0.4889(16) 0.1575(21) 0.08485(96) 0.0536 Uiso
C2_8 C 0.5004(16) 0.2035(22) 0.12635(88) 0.0536 Uiso
C3_8 C 0.5034(14) 0.2255(22) 0.1774(13) 0.0536 Uiso
O8_8 O 0.4924(21) 0.2462(23) 0.0981(15) 0.0536 Uiso
O12_8 O 0.4748(11) 0.3241(19) 0.03667(96) 0.0536 Uiso
C7_8 C 0.4889(16) 0.3314(26) 0.08485(96) 0.0536 Uiso
C8_8 C 0.5004(16) 0.2969(27) 0.12635(88) 0.0536 Uiso
C9_8 C 0.5034(14) 0.2779(26) 0.1774(13) 0.0536 Uiso
O19_8 O 0.5818(11) 0.0183(16) 0.0474(11) 0.0536 Uiso
O23_5 O 0.62103(92) 0.1178(14) 0.10917(69) 0.0536 Uiso
O26_6 O 0.4413(11) 0.0007(17) 0.15422(79) 0.0536 Uiso
H1_8 H 0.505483 0.203046 0.212849 . .
H4_4 H 0.367716 0.0792681 0.0276378 . .
H8_8 H 0.505483 0.302437 0.212849 . .
Ce1_6 Ce 0.46705(30) 0.08357(41) 0.97570(20) 0.0144 Uiso
O2_6 O 0.5325(10) 0.0650(14) 0.9244(19) 0.0536 Uiso
O4_6 O 0.5429(15) 0.1760(26) 0.9411(15) 0.0536 Uiso
O5_6 O 0.3700(10) 0.0661(30) 0.9915(20) 0.0536 Uiso
O9_6 O 0.4527(12) 0.0815(16) 0.88734(58) 0.0536 Uiso
C4_8 C 0.4415(17) 0.0494(23) 0.84500(88) 0.0536 Uiso
C5_8 C 0.4322(16) 0.0771(21) 0.7957(11) 0.0536 Uiso
C6_8 C 0.4284(21) 0.1248(25) 0.7774(11) 0.0536 Uiso
O11_8 O 0.4332(31) 0.0474(41) 0.750 0.0536 Uiso
O14_8 O 0.4527(12) 0.0815(16) 0.61266(58) 0.0536 Uiso
C10_8 C 0.4415(17) 0.0494(23) 0.65500(88) 0.0536 Uiso
C11_8 C 0.4322(16) 0.0771(21) 0.7043(11) 0.0536 Uiso
C12_8 C 0.4284(21) 0.1248(25) 0.7226(11) 0.0536 Uiso
H5_4 H 0.360355 0.0888579 0.965726 . .
H11_8 H 0.425765 0.157882 0.698041 . .
H12_8 H 0.425765 0.157882 0.801959 . .
Ce3_6 Ce 0.38348(28) 0.91643(41) 0.02430(20) 0.0144 Uiso
O17_6 O 0.3669(21) 0.8240(26) 0.0589(15) 0.0536 Uiso
O18_6 O 0.3039(28) 0.9339(30) 0.0085(20) 0.0536 Uiso
O20_6 O 0.4675(10) 0.9350(14) 0.0756(19) 0.0536 Uiso
O24_6 O 0.3712(11) 0.9185(16) 0.11266(58) 0.0536 Uiso
O10_6 O 0.4406(13) 0.9993(17) 0.84578(79) 0.0536 Uiso
O16_6 O 0.4182(11) 0.9817(16) 0.9526(11) 0.0536 Uiso
O21_6 O 0.4497(10) 0.8994(14) 0.9745(17) 0.0536 Uiso
O22_6 O 0.3241(12) 0.8493(16) 0.96333(96) 0.0536 Uiso
H9_4 H 0.315668 0.96502 0.980988 . .
H10_4 H 0.268481 0.896376 0.99645 . .
O7_9 O 0.4968(11) 0.37897(92) 0.39083(69) 0.0536 Uiso
C1_9 C 0.4889(16) 0.3314(13) 0.41515(96) 0.0536 Uiso
C2_9 C 0.5004(16) 0.2969(15) 0.37365(88) 0.0536 Uiso
C3_9 C 0.5034(14) 0.2779(17) 0.3226(13) 0.0536 Uiso
O8_9 O 0.4924(21) 0.2462(10) 0.4019(15) 0.0536 Uiso
C4_9 C 0.4415(17) 0.3921(15) 0.65500(88) 0.0536 Uiso
C5_9 C 0.4322(16) 0.3551(13) 0.7043(11) 0.0536 Uiso
C6_9 C 0.4284(21) 0.3036(13) 0.7226(11) 0.0536 Uiso
O11_9 O 0.4332(31) 0.3858(27) 0.750 0.0536 Uiso
O12_9 O 0.4748(11) 0.1507(16) 0.46333(96) 0.0536 Uiso
C7_9 C 0.4889(16) 0.1575(21) 0.41515(96) 0.0536 Uiso
C8_9 C 0.5004(16) 0.2035(22) 0.37365(88) 0.0536 Uiso
C9_9 C 0.5034(14) 0.2255(22) 0.3226(13) 0.0536 Uiso
O14_9 O 0.4527(12) 0.3712(11) 0.88734(58) 0.0536 Uiso
C10_9 C 0.4415(17) 0.3921(15) 0.84500(88) 0.0536 Uiso
C11_9 C 0.4322(16) 0.3551(13) 0.7957(11) 0.0536 Uiso
C12_9 C 0.4284(21) 0.3036(13) 0.7774(11) 0.0536 Uiso
O19_9 O 0.5818(11) 0.5635(12) 0.4526(11) 0.0536 Uiso
O23_6 O 0.62103(92) 0.5032(11) 0.39083(69) 0.0536 Uiso
H1_9 H 0.505483 0.302437 0.287151 . .
H8_9 H 0.505483 0.203046 0.287151 . .
H11_9 H 0.425765 0.267883 0.801959 . .
H12_9 H 0.425765 0.267883 0.698041 . .
O7_10 O 0.8822(14) 0.5032(11) 0.39083(69) 0.0536 Uiso
C1_10 C 0.8425(21) 0.5111(16) 0.41515(96) 0.0536 Uiso
C2_10 C 0.7965(22) 0.4996(16) 0.37365(88) 0.0536 Uiso
C3_10 C 0.7745(22) 0.4966(14) 0.3226(13) 0.0536 Uiso
O8_10 O 0.7538(23) 0.5076(21) 0.4019(15) 0.0536 Uiso
C4_10 C 0.9506(23) 0.5585(17) 0.65500(88) 0.0536 Uiso
C5_10 C 0.9229(21) 0.5678(16) 0.7043(11) 0.0536 Uiso
C6_10 C 0.8752(25) 0.5716(21) 0.7226(11) 0.0536 Uiso
O11_10 O 0.9526(41) 0.5668(31) 0.750 0.0536 Uiso
O12_10 O 0.6759(19) 0.5252(11) 0.46333(96) 0.0536 Uiso
C7_10 C 0.6686(26) 0.5111(16) 0.41515(96) 0.0536 Uiso
C8_10 C 0.7031(27) 0.4996(16) 0.37365(88) 0.0536 Uiso
C9_10 C 0.7221(26) 0.4966(14) 0.3226(13) 0.0536 Uiso
O14_10 O 0.9185(16) 0.5473(12) 0.88734(58) 0.0536 Uiso
C10_10 C 0.9506(23) 0.5585(17) 0.84500(88) 0.0536 Uiso
C11_10 C 0.9229(21) 0.5678(16) 0.7957(11) 0.0536 Uiso
C12_10 C 0.8752(25) 0.5716(21) 0.7774(11) 0.0536 Uiso
O19_10 O 0.9817(16) 0.4182(11) 0.4526(11) 0.0536 Uiso
H1_10 H 0.796954 0.494517 0.287151 . .
H8_10 H 0.697563 0.494517 0.287151 . .
H11_10 H 0.842118 0.574235 0.801959 . .
H12_10 H 0.842118 0.574235 0.698041 . .
H9_5 H 0.0349798 0.350647 0.980988 . .
H10_5 H 0.103624 0.372105 0.99645 . .
O7_11 O 0.8822(14) 0.37897(92) 0.10917(69) 0.0536 Uiso
C1_11 C 0.8425(21) 0.3314(13) 0.08485(96) 0.0536 Uiso
C2_11 C 0.7965(22) 0.2969(15) 0.12635(88) 0.0536 Uiso
C3_11 C 0.7745(22) 0.2779(17) 0.1774(13) 0.0536 Uiso
O8_11 O 0.7538(23) 0.2462(10) 0.0981(15) 0.0536 Uiso
O12_11 O 0.6759(19) 0.1507(16) 0.03667(96) 0.0536 Uiso
C7_11 C 0.6686(26) 0.1575(21) 0.08485(96) 0.0536 Uiso
C8_11 C 0.7031(27) 0.2035(22) 0.12635(88) 0.0536 Uiso
C9_11 C 0.7221(26) 0.2255(22) 0.1774(13) 0.0536 Uiso
O19_11 O 0.9817(16) 0.5635(12) 0.0474(11) 0.0536 Uiso
H1_11 H 0.796954 0.302437 0.212849 . .
H4_5 H 0.920732 0.288448 0.0276378 . .
H8_11 H 0.697563 0.203046 0.212849 . .
C4_11 C 0.9506(23) 0.3921(15) 0.84500(88) 0.0536 Uiso
C5_11 C 0.9229(21) 0.3551(13) 0.7957(11) 0.0536 Uiso
C6_11 C 0.8752(25) 0.3036(13) 0.7774(11) 0.0536 Uiso
O11_11 O 0.9526(41) 0.3858(27) 0.750 0.0536 Uiso
O14_11 O 0.9185(16) 0.3712(11) 0.61266(58) 0.0536 Uiso
C10_11 C 0.9506(23) 0.3921(15) 0.65500(88) 0.0536 Uiso
C11_11 C 0.9229(21) 0.3551(13) 0.7043(11) 0.0536 Uiso
C12_11 C 0.8752(25) 0.3036(13) 0.7226(11) 0.0536 Uiso
H5_5 H 0.911142 0.271497 0.965726 . .
H11_11 H 0.842118 0.267883 0.698041 . .
H12_11 H 0.842118 0.267883 0.801959 . .
H9_6 H 0.350647 0.0349798 0.0190116 . .
H10_6 H 0.372105 0.103624 0.00354987 . .
C4_12 C 0.3921(15) 0.9506(23) 0.15500(88) 0.0536 Uiso
C5_12 C 0.3551(13) 0.9229(21) 0.2043(11) 0.0536 Uiso
C6_12 C 0.3036(13) 0.8752(25) 0.2226(11) 0.0536 Uiso
O11_12 O 0.3858(27) 0.9526(41) 0.250 0.0536 Uiso
O14_12 O 0.3712(11) 0.9185(16) 0.38734(58) 0.0536 Uiso
C10_12 C 0.3921(15) 0.9506(23) 0.34500(88) 0.0536 Uiso
C11_12 C 0.3551(13) 0.9229(21) 0.2957(11) 0.0536 Uiso
C12_12 C 0.3036(13) 0.8752(25) 0.2774(11) 0.0536 Uiso
H5_6 H 0.271497 0.911142 0.0342743 . .
H11_12 H 0.267883 0.842118 0.301959 . .
H12_12 H 0.267883 0.842118 0.198041 . .
O7_12 O 0.37897(92) 0.8822(14) 0.89083(69) 0.0536 Uiso
C1_12 C 0.3314(13) 0.8425(21) 0.91515(96) 0.0536 Uiso
C2_12 C 0.2969(15) 0.7965(22) 0.87365(88) 0.0536 Uiso
C3_12 C 0.2779(17) 0.7745(22) 0.8226(13) 0.0536 Uiso
O8_12 O 0.2462(10) 0.7538(23) 0.9019(15) 0.0536 Uiso
O12_12 O 0.1507(16) 0.6759(19) 0.96333(96) 0.0536 Uiso
C7_12 C 0.1575(21) 0.6686(26) 0.91515(96) 0.0536 Uiso
C8_12 C 0.2035(22) 0.7031(27) 0.87365(88) 0.0536 Uiso
C9_12 C 0.2255(22) 0.7221(26) 0.8226(13) 0.0536 Uiso
O19_12 O 0.5635(12) 0.9817(16) 0.9526(11) 0.0536 Uiso
H1_12 H 0.302437 0.796954 0.787151 . .
H4_6 H 0.288448 0.920732 0.972362 . .
H8_12 H 0.203046 0.697563 0.787151 . .
O4_7 O 0.6331(21) 0.4571(15) 0.5589(15) 0.0536 Uiso
O5_7 O 0.6961(28) 0.6300(10) 0.5085(20) 0.0536 Uiso
O17_7 O 0.4571(15) 0.6331(21) 0.4411(15) 0.0536 Uiso
O18_7 O 0.6300(10) 0.6961(28) 0.4915(20) 0.0536 Uiso
O17_8 O 0.5429(15) 0.1760(26) 0.5589(15) 0.0536 Uiso
O18_8 O 0.3700(10) 0.0661(30) 0.5085(20) 0.0536 Uiso
O4_8 O 0.3669(21) 0.8240(26) 0.4411(15) 0.0536 Uiso
O5_8 O 0.3039(28) 0.9339(30) 0.4915(20) 0.0536 Uiso
O4_9 O 0.3669(21) 0.5429(15) 0.0589(15) 0.0536 Uiso
O5_9 O 0.3039(28) 0.3700(10) 0.0085(20) 0.0536 Uiso
H5_7 H 0.271497 0.360355 0.0342743 . .
H9_7 H 0.350647 0.315668 0.0190116 . .
H10_7 H 0.372105 0.268481 0.00354987 . .
O17_9 O 0.5429(15) 0.3669(21) 0.9411(15) 0.0536 Uiso
O18_9 O 0.3700(10) 0.3039(28) 0.9915(20) 0.0536 Uiso
H4_7 H 0.288448 0.367716 0.972362 . .
O17_10 O 0.1760(26) 0.5429(15) 0.4411(15) 0.0536 Uiso
O18_10 O 0.0661(30) 0.3700(10) 0.4915(20) 0.0536 Uiso
O4_10 O 0.8240(26) 0.3669(21) 0.5589(15) 0.0536 Uiso
O5_10 O 0.9339(30) 0.3039(28) 0.5085(20) 0.0536 Uiso
O17_11 O 0.1760(26) 0.6331(21) 0.0589(15) 0.0536 Uiso
O18_11 O 0.0661(30) 0.6961(28) 0.0085(20) 0.0536 Uiso
H9_8 H 0.0349798 0.684332 0.980988 . .
H10_8 H 0.103624 0.731519 0.99645 . .
H4_8 H 0.920732 0.632284 0.0276378 . .
O4_11 O 0.8240(26) 0.4571(15) 0.9411(15) 0.0536 Uiso
O5_11 O 0.9339(30) 0.6300(10) 0.9915(20) 0.0536 Uiso
H5_8 H 0.911142 0.639645 0.965726 . .
H4_9 H 0.367716 0.288448 0.0276378 . .
H5_9 H 0.360355 0.271497 0.965726 . .
H9_9 H 0.315668 0.350647 0.980988 . .
H10_9 H 0.268481 0.372105 0.99645 . .
H9_10 H 0.684332 0.0349798 0.0190116 . .
H10_10 H 0.731519 0.103624 0.00354987 . .
O17_12 O 0.6331(21) 0.1760(26) 0.9411(15) 0.0536 Uiso
O18_12 O 0.6961(28) 0.0661(30) 0.9915(20) 0.0536 Uiso
O4_12 O 0.4571(15) 0.8240(26) 0.0589(15) 0.0536 Uiso
O5_12 O 0.6300(10) 0.9339(30) 0.0085(20) 0.0536 Uiso
H5_10 H 0.639645 0.911142 0.0342743 . .
H4_10 H 0.632284 0.920732 0.972362 . .
H5_11 H 0.0888579 0.728503 0.0342743 . .
H4_11 H 0.0792681 0.711552 0.972362 . .
H9_11 H 0.96502 0.649353 0.0190116 . .
H10_11 H 0.896376 0.627895 0.00354987 . .
H4_12 H 0.711552 0.0792681 0.0276378 . .
H5_12 H 0.728503 0.0888579 0.965726 . .
H9_12 H 0.649353 0.96502 0.980988 . .
H10_12 H 0.627895 0.896376 0.99645 . .
loop_
_geom_bond_atom_site_label_1
_geom_bond_atom_site_label_2
_geom_bond_site_symmetry_1
_geom_bond_site_symmetry_2
Ce1 O1 1_555 1_555
Ce2 O1 1_555 1_555
O1 Ce3 1_555 1_555
O2 Ce1 1_555 1_555
O3 Ce1 1_555 1_555
O4 Ce1 1_555 1_555
O5 Ce1 1_555 1_555
O6 Ce1 1_555 1_555
O7 Ce2 1_555 1_555
C1 O6 1_555 1_555
C2 C1 1_555 1_555
C3 C2 1_555 1_555
O8 C2 1_555 1_555
O9 Ce1 1_555 1_555
O10 C4 1_555 1_555
C4 O9 1_555 1_555
C5 C4 1_555 1_555
C6 C5 1_555 1_555
O11 C5 1_555 1_555
O12 C7 1_555 1_555
O13 C7 1_555 1_555
C7 C8 1_555 1_555
C8 O8 1_555 1_555
C9 C3 1_555 1_555
O14 C10 1_555 1_555
O15 C10 1_555 1_555
C10 C11 1_555 1_555
C11 O11 1_555 1_555
C12 C6 1_555 1_555
Ce3 O16 1_555 1_555
O16 Ce1 1_555 1_555
O17 Ce3 1_555 1_555
O18 Ce3 1_555 1_555
Ce4 O12 1_555 1_555
Ce5 O2 1_555 1_555
Ce6 O14 1_555 1_555
Ce7 O2 1_555 1_555
Ce8 O15 1_555 1_555
Ce9 O13 1_555 1_555
O19 Ce2 1_555 1_555
O20 Ce2 1_555 1_555
O21 Ce3 1_555 1_555
O22 Ce3 1_555 1_555
O23 Ce2 1_555 1_555
O24 Ce3 1_555 1_555
O25 Ce2 1_555 1_555
O26 Ce2 1_555 1_555
Ce2 O3 1_555 1_555
O3 Ce5 1_555 1_555
O7 C1 1_555 1_555
O10 Ce7 1_555 1_555
C8 C9 1_555 1_555
C11 C12 1_555 1_555
Ce3 O20 1_555 1_555
O16 Ce7 1_555 1_555
Ce5 O19 1_555 1_555
Ce7 O21 1_555 1_555
C3 H1 1_555 1_555
C9 H8 1_555 1_555
C12 H11 1_555 1_555
C6 H12 1_555 1_555
Ce1_2 O1_2 1_555 1_555
Ce2_2 O1_2 1_555 1_555
O2_2 Ce1_2 1_555 1_555
O3_2 Ce1_2 1_555 1_555
O4_2 Ce1_2 1_555 1_555
O5_2 Ce1_2 1_555 1_555
O6_2 Ce1_2 1_555 1_555
O7_2 Ce2_2 1_555 1_555
C1_2 O6_2 1_555 1_555
C2_2 C1_2 1_555 1_555
C3_2 C2_2 1_555 1_555
O8_2 C2_2 1_555 1_555
O9_2 Ce1_2 1_555 1_555
C4_2 O9_2 1_555 1_555
C5_2 C4_2 1_555 1_555
C6_2 C5_2 1_555 1_555
O11_2 C5_2 1_555 1_555
O12_2 C7_2 1_555 1_555
O13_2 C7_2 1_555 1_555
C7_2 C8_2 1_555 1_555
C8_2 O8_2 1_555 1_555
C9_2 C3_2 1_555 1_555
O14_2 C10_2 1_555 1_555
C10_2 C11_2 1_555 1_555
C11_2 O11_2 1_555 1_555
C12_2 C6_2 1_555 1_555
Ce4_2 O12_2 1_555 1_555
Ce5_2 O2_2 1_555 1_555
Ce6_2 O14_2 1_555 1_555
Ce9_2 O13_2 1_555 1_555
O19_2 Ce2_2 1_555 1_555
O23_2 Ce2_2 1_555 1_555
O25_2 Ce2_2 1_555 1_555
O26_2 Ce2_2 1_555 1_555
Ce2_2 O3_2 1_555 1_555
O3_2 Ce5_2 1_555 1_555
O7_2 C1_2 1_555 1_555
C8_2 C9_2 1_555 1_555
C11_2 C12_2 1_555 1_555
Ce5_2 O19_2 1_555 1_555
C3_2 H1_2 1_555 1_555
C9_2 H8_2 1_555 1_555
C12_2 H11_2 1_555 1_555
C6_2 H12_2 1_555 1_555
Ce3_2 O16_2 1_555 1_555
O17_2 Ce3_2 1_555 1_555
O18_2 Ce3_2 1_555 1_555
Ce8_2 O15_2 1_555 1_555
O21_2 Ce3_2 1_555 1_555
O22_2 Ce3_2 1_555 1_555
O24_2 Ce3_2 1_555 1_555
O10_2 Ce7_2 1_555 1_555
Ce3_2 O20_2 1_555 1_555
O16_2 Ce7_2 1_555 1_555
Ce7_2 O21_2 1_555 1_555
Ce8 O1_3 1_555 1_555
O1_3 Ce3_3 1_555 1_555
O7_3 Ce8 1_555 1_555
C1_3 O6_3 1_555 1_555
C2_3 C1_3 1_555 1_555
C3_3 C2_3 1_555 1_555
O8_3 C2_3 1_555 1_555
O12_3 C7_3 1_555 1_555
O13_3 C7_3 1_555 1_555
C7_3 C8_3 1_555 1_555
C8_3 O8_3 1_555 1_555
C9_3 C3_3 1_555 1_555
O17_3 Ce3_3 1_555 1_555
O18_3 Ce3_3 1_555 1_555
Ce9_3 O13_3 1_555 1_555
O19_3 Ce8 1_555 1_555
O20_3 Ce8 1_555 1_555
O23_3 Ce8 1_555 1_555
O24_3 Ce3_3 1_555 1_555
O26_3 Ce8 1_555 1_555
Ce8 O3_3 1_555 1_555
O7_3 C1_3 1_555 1_555
C8_3 C9_3 1_555 1_555
Ce3_3 O20_3 1_555 1_555
C3_3 H1_3 1_555 1_555
C9_3 H8_3 1_555 1_555
O2_3 Ce1_3 1_555 1_555
O4_3 Ce1_3 1_555 1_555
O5_3 Ce1_3 1_555 1_555
O9_3 Ce1_3 1_555 1_555
O10_3 C4_3 1_555 1_555
C4_3 O9_3 1_555 1_555
C5_3 C4_3 1_555 1_555
C6_3 C5_3 1_555 1_555
O11_3 C5_3 1_555 1_555
O14_3 C10_3 1_555 1_555
O25 C10_3 1_555 1_555
C10_3 C11_3 1_555 1_555
C11_3 O11_3 1_555 1_555
C12_3 C6_3 1_555 1_555
O16_3 Ce1_3 1_555 1_555
Ce5_3 O2_3 1_555 1_555
Ce6_3 O14_3 1_555 1_555
Ce7_3 O2_3 1_555 1_555
O10_3 Ce7_3 1_555 1_555
C11_3 C12_3 1_555 1_555
O16_3 Ce7_3 1_555 1_555
Ce7_3 O21_3 1_555 1_555
O5_3 H5 1_555 1_555
C12_3 H11_3 1_555 1_555
C6_3 H12_3 1_555 1_555
Ce1_4 O1_4 1_555 1_555
Ce9 O1_4 1_555 1_555
O2_4 Ce1_4 1_555 1_555
O3_4 Ce1_4 1_555 1_555
O4_4 Ce1_4 1_555 1_555
O5_4 Ce1_4 1_555 1_555
O6_4 Ce1_4 1_555 1_555
O7_4 Ce9 1_555 1_555
C1_4 O6_4 1_555 1_555
C2_4 C1_4 1_555 1_555
C3_4 C2_4 1_555 1_555
O8_4 C2_4 1_555 1_555
O9_4 Ce1_4 1_555 1_555
C4_4 O9_4 1_555 1_555
C5_4 C4_4 1_555 1_555
C6_4 C5_4 1_555 1_555
O11_4 C5_4 1_555 1_555
O12_4 C7_4 1_555 1_555
O13_4 C7_4 1_555 1_555
C7_4 C8_4 1_555 1_555
C8_4 O8_4 1_555 1_555
C9_4 C3_4 1_555 1_555
O14_4 C10_4 1_555 1_555
C10_4 C11_4 1_555 1_555
C11_4 O11_4 1_555 1_555
C12_4 C6_4 1_555 1_555
Ce4_4 O12_4 1_555 1_555
Ce4 O2_4 1_555 1_555
Ce6_4 O14_4 1_555 1_555
Ce7_2 O13_4 1_555 1_555
O19_4 Ce9 1_555 1_555
O25_3 Ce9 1_555 1_555
O26_4 Ce9 1_555 1_555
Ce9 O3_4 1_555 1_555
O3_4 Ce4 1_555 1_555
O7_4 C1_4 1_555 1_555
C8_4 C9_4 1_555 1_555
C11_4 C12_4 1_555 1_555
Ce4 O19_4 1_555 1_555
C3_4 H1_4 1_555 1_555
C9_4 H8_4 1_555 1_555
C12_4 H11_4 1_555 1_555
C6_4 H12_4 1_555 1_555
Ce3_4 O16_4 1_555 1_555
O17_4 Ce3_4 1_555 1_555
O18_4 Ce3_4 1_555 1_555
Ce9_3 O15_3 1_555 1_555
O21_4 Ce3_4 1_555 1_555
O22_4 Ce3_4 1_555 1_555
O24_4 Ce3_4 1_555 1_555
O10_4 Ce9_2 1_555 1_555
Ce3_4 O20_4 1_555 1_555
O16_4 Ce9_2 1_555 1_555
Ce9_2 O21_4 1_555 1_555
O2_5 Ce1_5 1_555 1_555
O4_5 Ce1_5 1_555 1_555
O5_5 Ce1_5 1_555 1_555
O9_5 Ce1_5 1_555 1_555
C4_5 O9_5 1_555 1_555
C5_5 C4_5 1_555 1_555
C6_5 C5_5 1_555 1_555
O11_5 C5_5 1_555 1_555
O14_5 C10_5 1_555 1_555
C10_5 C11_5 1_555 1_555
C11_5 O11_5 1_555 1_555
C12_5 C6_5 1_555 1_555
Ce6_4 O2_5 1_555 1_555
Ce4 O14_5 1_555 1_555
C11_5 C12_5 1_555 1_555
O5_5 H5_2 1_555 1_555
C12_5 H11_5 1_555 1_555
C6_5 H12_5 1_555 1_555
Ce2_3 O1_5 1_555 1_555
O7_5 Ce2_3 1_555 1_555
C1_5 O6_5 1_555 1_555
C2_5 C1_5 1_555 1_555
C3_5 C2_5 1_555 1_555
O8_5 C2_5 1_555 1_555
O12_5 C7_5 1_555 1_555
O13_5 C7_5 1_555 1_555
C7_5 C8_5 1_555 1_555
C8_5 O8_5 1_555 1_555
C9_5 C3_5 1_555 1_555
Ce7_3 O13_5 1_555 1_555
O19_5 Ce2_3 1_555 1_555
O23_4 Ce2_3 1_555 1_555
O25_4 Ce2_3 1_555 1_555
O26_5 Ce2_3 1_555 1_555
Ce2_3 O3_5 1_555 1_555
O7_5 C1_5 1_555 1_555
C8_5 C9_5 1_555 1_555
C3_5 H1_5 1_555 1_555
C9_5 H8_5 1_555 1_555
Ce9_2 O15_4 1_555 1_555
O10_5 Ce9_3 1_555 1_555
O16_5 Ce9_3 1_555 1_555
Ce9_3 O21_5 1_555 1_555
O17_5 Ce3_5 1_555 1_555
O18_5 Ce3_5 1_555 1_555
O24_5 Ce3_5 1_555 1_555
Ce3_5 O20_5 1_555 1_555
O26_3 C4_6 1_555 1_555
C4_6 O24_3 1_555 1_555
C5_6 C4_6 1_555 1_555
C6_6 C5_6 1_555 1_555
O11_6 C5_6 1_555 1_555
O14_6 C10_6 1_555 1_555
O15_5 C10_6 1_555 1_555
C10_6 C11_6 1_555 1_555
C11_6 O11_6 1_555 1_555
C12_6 C6_6 1_555 1_555
Ce6 O20_3 1_555 1_555
Ce5 O14_6 1_555 1_555
Ce7 O15_5 1_555 1_555
C11_6 C12_6 1_555 1_555
O18_3 H5_3 1_555 1_555
C12_6 H11_6 1_555 1_555
C6_6 H12_6 1_555 1_555
O7_6 Ce7_3 1_555 1_555
C1_6 O22_3 1_555 1_555
C2_6 C1_6 1_555 1_555
C3_6 C2_6 1_555 1_555
O8_6 C2_6 1_555 1_555
O12_6 C7_6 1_555 1_555
O13_6 C7_6 1_555 1_555
C7_6 C8_6 1_555 1_555
C8_6 O8_6 1_555 1_555
C9_6 C3_6 1_555 1_555
Ce8_2 O13_6 1_555 1_555
O19_6 Ce7_3 1_555 1_555
O25_5 Ce7_3 1_555 1_555
O7_6 C1_6 1_555 1_555
C8_6 C9_6 1_555 1_555
C3_6 H1_6 1_555 1_555
C9_6 H8_6 1_555 1_555
Ce8_3 O15_6 1_555 1_555
O7_7 Ce7_2 1_555 1_555
C1_7 O22_2 1_555 1_555
C2_7 C1_7 1_555 1_555
C3_7 C2_7 1_555 1_555
O8_7 C2_7 1_555 1_555
C4_7 O24_2 1_555 1_555
C5_7 C4_7 1_555 1_555
C6_7 C5_7 1_555 1_555
O11_7 C5_7 1_555 1_555
O12_7 C7_7 1_555 1_555
O23 C7_7 1_555 1_555
C7_7 C8_7 1_555 1_555
C8_7 O8_7 1_555 1_555
C9_7 C3_7 1_555 1_555
O14_7 C10_7 1_555 1_555
C10_7 C11_7 1_555 1_555
C11_7 O11_7 1_555 1_555
C12_7 C6_7 1_555 1_555
Ce5 O12_7 1_555 1_555
Ce4_4 O20_2 1_555 1_555
Ce4_5 O14_7 1_555 1_555
O19_7 Ce7_2 1_555 1_555
O25_6 Ce7_2 1_555 1_555
O21_2 Ce4_4 1_555 1_555
O7_7 C1_7 1_555 1_555
C8_7 C9_7 1_555 1_555
C11_7 C12_7 1_555 1_555
Ce4_4 O19_7 1_555 1_555
C3_7 H1_7 1_555 1_555
C9_7 H8_7 1_555 1_555
C12_7 H11_7 1_555 1_555
C6_7 H12_7 1_555 1_555
Ce8_3 O1_6 1_555 1_555
O7_8 Ce8_3 1_555 1_555
C1_8 O6_6 1_555 1_555
C2_8 C1_8 1_555 1_555
C3_8 C2_8 1_555 1_555
O8_8 C2_8 1_555 1_555
O12_8 C7_8 1_555 1_555
O23_3 C7_8 1_555 1_555
C7_8 C8_8 1_555 1_555
C8_8 O8_8 1_555 1_555
C9_8 C3_8 1_555 1_555
O19_8 Ce8_3 1_555 1_555
O23_5 Ce8_3 1_555 1_555
O26_6 Ce8_3 1_555 1_555
Ce8_3 O3_6 1_555 1_555
O7_8 C1_8 1_555 1_555
C8_8 C9_8 1_555 1_555
C3_8 H1_8 1_555 1_555
C9_8 H8_8 1_555 1_555
O2_6 Ce1_6 1_555 1_555
O4_6 Ce1_6 1_555 1_555
O5_6 Ce1_6 1_555 1_555
O9_6 Ce1_6 1_555 1_555
C4_8 O9_6 1_555 1_555
C5_8 C4_8 1_555 1_555
C6_8 C5_8 1_555 1_555
O11_8 C5_8 1_555 1_555
O14_8 C10_8 1_555 1_555
C10_8 C11_8 1_555 1_555
C11_8 O11_8 1_555 1_555
C12_8 C6_8 1_555 1_555
Ce6_2 O2_6 1_555 1_555
Ce5_2 O14_8 1_555 1_555
C11_8 C12_8 1_555 1_555
O5_6 H5_4 1_555 1_555
C12_8 H11_8 1_555 1_555
C6_8 H12_8 1_555 1_555
O17_6 Ce3_6 1_555 1_555
O18_6 Ce3_6 1_555 1_555
O24_6 Ce3_6 1_555 1_555
Ce3_6 O20_6 1_555 1_555
O10_6 Ce8_2 1_555 1_555
O16_6 Ce8_2 1_555 1_555
Ce8_2 O21_6 1_555 1_555
O7_9 Ce7 1_555 1_555
C1_9 O22 1_555 1_555
C2_9 C1_9 1_555 1_555
C3_9 C2_9 1_555 1_555
O8_9 C2_9 1_555 1_555
O26 C4_9 1_555 1_555
C4_9 O24 1_555 1_555
C5_9 C4_9 1_555 1_555
C6_9 C5_9 1_555 1_555
O11_9 C5_9 1_555 1_555
O12_9 C7_9 1_555 1_555
O23_2 C7_9 1_555 1_555
C7_9 C8_9 1_555 1_555
C8_9 O8_9 1_555 1_555
C9_9 C3_9 1_555 1_555
O14_9 C10_9 1_555 1_555
O25_5 C10_9 1_555 1_555
C10_9 C11_9 1_555 1_555
C11_9 O11_9 1_555 1_555
C12_9 C6_9 1_555 1_555
Ce5_2 O12_9 1_555 1_555
Ce6_3 O20 1_555 1_555
Ce5_3 O14_9 1_555 1_555
O19_9 Ce7 1_555 1_555
O23_6 Ce7 1_555 1_555
O21 Ce6_3 1_555 1_555
O7_9 C1_9 1_555 1_555
C8_9 C9_9 1_555 1_555
C11_9 C12_9 1_555 1_555
Ce6_3 O19_9 1_555 1_555
C3_9 H1_9 1_555 1_555
C9_9 H8_9 1_555 1_555
C12_9 H11_9 1_555 1_555
C6_9 H12_9 1_555 1_555
O7_10 Ce9_2 1_555 1_555
C1_10 O22_4 1_555 1_555
C2_10 C1_10 1_555 1_555
C3_10 C2_10 1_555 1_555
O8_10 C2_10 1_555 1_555
C4_10 O24_4 1_555 1_555
C5_10 C4_10 1_555 1_555
C6_10 C5_10 1_555 1_555
O11_10 C5_10 1_555 1_555
O12_10 C7_10 1_555 1_555
O23_6 C7_10 1_555 1_555
C7_10 C8_10 1_555 1_555
C8_10 O8_10 1_555 1_555
C9_10 C3_10 1_555 1_555
O14_10 C10_10 1_555 1_555
C10_10 C11_10 1_555 1_555
C11_10 O11_10 1_555 1_555
C12_10 C6_10 1_555 1_555
Ce6_3 O12_10 1_555 1_555
Ce4_2 O20_4 1_555 1_555
Ce4_3 O14_10 1_555 1_555
O19_10 Ce9_2 1_555 1_555
O21_4 Ce4_2 1_555 1_555
O7_10 C1_10 1_555 1_555
C8_10 C9_10 1_555 1_555
C11_10 C12_10 1_555 1_555
Ce4_2 O19_10 1_555 1_555
C3_10 H1_10 1_555 1_555
C9_10 H8_10 1_555 1_555
C12_10 H11_10 1_555 1_555
C6_10 H12_10 1_555 1_555
O7_11 Ce9_3 1_555 1_555
C1_11 O22_5 1_555 1_555
C2_11 C1_11 1_555 1_555
C3_11 C2_11 1_555 1_555
O8_11 C2_11 1_555 1_555
O12_11 C7_11 1_555 1_555
O23_5 C7_11 1_555 1_555
C7_11 C8_11 1_555 1_555
C8_11 O8_11 1_555 1_555
C9_11 C3_11 1_555 1_555
O19_11 Ce9_3 1_555 1_555
O7_11 C1_11 1_555 1_555
C8_11 C9_11 1_555 1_555
C3_11 H1_11 1_555 1_555
C9_11 H8_11 1_555 1_555
C4_11 O24_5 1_555 1_555
C5_11 C4_11 1_555 1_555
C6_11 C5_11 1_555 1_555
O11_11 C5_11 1_555 1_555
O14_11 C10_11 1_555 1_555
C10_11 C11_11 1_555 1_555
C11_11 O11_11 1_555 1_555
C12_11 C6_11 1_555 1_555
Ce4_3 O20_5 1_555 1_555
Ce4_2 O14_11 1_555 1_555
C11_11 C12_11 1_555 1_555
O18_5 H5_5 1_555 1_555
C12_11 H11_11 1_555 1_555
C6_11 H12_11 1_555 1_555
C4_12 O24_6 1_555 1_555
C5_12 C4_12 1_555 1_555
C6_12 C5_12 1_555 1_555
O11_12 C5_12 1_555 1_555
O14_12 C10_12 1_555 1_555
C10_12 C11_12 1_555 1_555
C11_12 O11_12 1_555 1_555
C12_12 C6_12 1_555 1_555
Ce4_5 O20_6 1_555 1_555
Ce4_4 O14_12 1_555 1_555
C11_12 C12_12 1_555 1_555
O18_6 H5_6 1_555 1_555
C12_12 H11_12 1_555 1_555
C6_12 H12_12 1_555 1_555
O7_12 Ce8_2 1_555 1_555
C1_12 O22_6 1_555 1_555
C2_12 C1_12 1_555 1_555
C3_12 C2_12 1_555 1_555
O8_12 C2_12 1_555 1_555
O12_12 C7_12 1_555 1_555
O23_4 C7_12 1_555 1_555
C7_12 C8_12 1_555 1_555
C8_12 O8_12 1_555 1_555
C9_12 C3_12 1_555 1_555
O19_12 Ce8_2 1_555 1_555
O7_12 C1_12 1_555 1_555
C8_12 C9_12 1_555 1_555
C3_12 H1_12 1_555 1_555
C9_12 H8_12 1_555 1_555
O19_9 Ce5 1_555 1_555
O4_7 Ce6_3 1_555 1_555
O5_7 Ce6_3 1_555 1_555
O19 Ce6_3 1_555 1_555
O17_7 Ce5 1_555 1_555
O18_7 Ce5 1_555 1_555
O17_8 Ce5_2 1_555 1_555
O18_8 Ce5_2 1_555 1_555
O4_8 Ce4_4 1_555 1_555
O5_8 Ce4_4 1_555 1_555
O4_9 Ce6 1_555 1_555
O5_9 Ce6 1_555 1_555
O19_3 Ce6 1_555 1_555
O5_9 H5_7 1_555 1_555
O19_6 Ce5_3 1_555 1_555
O17_9 Ce5_3 1_555 1_555
O18_9 Ce5_3 1_555 1_555
O17_10 Ce4 1_555 1_555
O18_10 Ce4 1_555 1_555
O4_10 Ce4_2 1_555 1_555
O5_10 Ce4_2 1_555 1_555
O17_11 Ce6_4 1_555 1_555
O18_11 Ce6_4 1_555 1_555
O4_11 Ce4_3 1_555 1_555
O5_11 Ce4_3 1_555 1_555
O5_11 H5_8 1_555 1_555
O18_9 H5_9 1_555 1_555
O17_12 Ce6_2 1_555 1_555
O18_12 Ce6_2 1_555 1_555
O4_12 Ce4_5 1_555 1_555
O5_12 Ce4_5 1_555 1_555
O5_12 H5_10 1_555 1_555
O18_11 H5_11 1_555 1_555
O18_12 H5_12 1_555 1_555

#END
