
###############################################################################
#
# This file contains modified crystal structure data generated from the
# MOF subset of the Cambridge Structural Database (CSD) v543 
# hosted by the Cambridge Crystallographic Data Centre (CCDC).
#
# This work is licensed under the Creative Commons
# Attribution-NonCommercial-ShareAlike 4.0 International License.
# To view a copy of this license, visit
# http://creativecommons.org/licenses/by-nc-sa/4.0/
# or send a letter to
# Creative Commons, PO Box 1866, Mountain View, CA 94042, USA.
#
# CIF created using the CSD Python API on 29 September 2022
# The structure has been converted into the P1 space group
# The structure has a 3D framework
# The original CSD entry SALZAH is in the monoclinic crystal system
# The framework has been calculated to contain at least 10.0% void space
# The void calculation uses a probe of radius 1.32A, grid spacing 0.4
# The framework is charged, counterions have been retained in the structure
#
###############################################################################

data_SALZAH
_chemical_formula_moiety         '(C80 H176 Cd14 N32 O61 7+)n'
_symmetry_cell_setting           triclinic
_symmetry_space_group_name_H-M   'P 1'
_symmetry_Int_Tables_number      1
_space_group_name_Hall           'P 1'
loop_
_symmetry_equiv_pos_site_id
_symmetry_equiv_pos_as_xyz
1 x,y,z
_cell_length_a                   22.624(3)
_cell_length_b                   12.645(1)
_cell_length_c                   14.735(2)
_cell_angle_alpha                90
_cell_angle_beta                 94.92(1)
_cell_angle_gamma                90
_cell_volume                     4199.86
loop_
_atom_site_label
_atom_site_type_symbol
_atom_site_fract_x
_atom_site_fract_y
_atom_site_fract_z
O11 O 0.33501(16) 0.0018(3) 0.2124(3)
Cd7 Cd 0.254390(16) 0.08444(3) 0.25341(3)
Cd2 Cd 0.0000 0.16791(4) 0.7500
C1 C 0.1344(2) 0.0640(4) 0.7691(4)
H1 H 0.1304 0.0635 0.7030
H2 H 0.1150 0.0011 0.7899
C2 C 0.2255(2) 0.1622(4) 0.7713(4)
H3 H 0.2673 0.1631 0.7924
H4 H 0.2225 0.1635 0.7053
C3 C 0.2026(2) 0.0644(4) 0.9048(4)
H5 H 0.1848 0.0010 0.9276
H6 H 0.2440 0.0658 0.9283
C4 C 0.1125(2) 0.1563(4) 0.9026(4)
H7 H 0.0918 0.2167 0.9253
H8 H 0.0942 0.0929 0.9245
C5 C 0.1343(2) 0.2547(4) 0.7698(4)
H9 H 0.1305 0.2569 0.7037
H10 H 0.1147 0.3167 0.7919
C6 C 0.2025(2) 0.2521(4) 0.9047(4)
H11 H 0.2436 0.2503 0.9264
H12 H 0.1854 0.3159 0.9280
C7 C 0.3409(2) 0.0490(4) 0.4333(4)
C8 C 0.3839(2) 0.0952(4) 0.5065(4)
H13 H 0.4174 0.1290 0.4884
C9 C 0.3773(2) 0.0910(4) 0.5945(4)
H14 H 0.4065 0.1207 0.6349
C10 C 0.3240(2) 0.0396(4) 0.6327(4)
N1 N 0.1047(2) 0.1571(3) 0.8013(3)
N2 N 0.19875(19) 0.0605(3) 0.8019(3)
N3 N 0.1718(2) 0.1595(3) 0.9385(3)
N4 N 0.19806(19) 0.2564(3) 0.8033(3)
O2 O 0.27572(16) 0.0369(3) 0.5917(3)
O4 O 0.30733(15) 0.1176(3) 0.3893(3)
H19 H 0.0066 0.3662 0.8275
O9 O 0.0099(3) 0.3030(5) 0.6487(5)
H36 H 0.0514 0.3132 0.6429
O10 O 0.0165(3) 0.0511(5) 0.6401(5)
H38 H 0.0306 0.0734 0.5920
O13 O 0.34163(15) 0.0476(3) 0.9179(2)
Cd4 Cd 0.245610(16) 0.41556(3) 0.74659(3)
C18 C 0.3839(2) 0.9048(4) 0.0065(4)
C19 C 0.3773(2) 0.9090(4) 0.0945(4)
H40 H 0.4065 0.8793 0.1349
C20 C 0.3240(2) 0.9604(4) 0.1327(4)
O12 O 0.27572(16) 0.9631(3) 0.0917(3)
Cd1 Cd 0.254390(16) 0.91556(3) 0.75341(3)
O1 O 0.33501(16) 0.9982(3) 0.7124(3)
O3 O 0.34163(15) 0.9524(3) 0.4179(2)
O5 O 0.17693(15) 0.8821(3) 0.6405(3)
H15 H 0.1605 0.8136 0.6505
H16 H 0.1920 0.8839 0.5815
O6 O 0.18772(16) 0.8124(3) 0.8310(3)
H17 H 0.1621 0.8584 0.8617
H18 H 0.2095 0.7680 0.8749
H37 H 0.0239 0.9871 0.6545
C17 C 0.3409(2) 0.9510(4) 0.9333(4)
H39 H 0.4174 0.8710 0.9884
O14 O 0.30733(15) 0.8824(3) 0.8893(3)
N9 N 0.30194(19) 0.7564(3) 0.6967(3)
Cd2_2 Cd 1.0000 0.16791(4) 0.7500
O7 O 0.9901(3) 0.3030(5) 0.8513(5)
H20 H 0.9486 0.3132 0.8571
O8 O 0.9835(3) 0.0511(5) 0.8599(5)
H22 H 0.9694 0.0734 0.9080
C11 C 0.8656(2) 0.0640(4) 0.7309(4)
H23 H 0.8696 0.0635 0.7970
H24 H 0.8850 0.0011 0.7101
C12 C 0.7745(2) 0.1622(4) 0.7287(4)
H25 H 0.7327 0.1631 0.7076
H26 H 0.7775 0.1635 0.7947
C13 C 0.7974(2) 0.0644(4) 0.5952(4)
H27 H 0.8152 0.0010 0.5724
H28 H 0.7560 0.0658 0.5717
C14 C 0.8875(2) 0.1563(4) 0.5974(4)
H29 H 0.9082 0.2167 0.5747
H30 H 0.9058 0.0929 0.5755
C15 C 0.8657(2) 0.2547(4) 0.7302(4)
H31 H 0.8695 0.2569 0.7963
H32 H 0.8853 0.3167 0.7081
C16 C 0.7975(2) 0.2521(4) 0.5953(4)
H33 H 0.7564 0.2503 0.5736
H34 H 0.8146 0.3159 0.5720
N5 N 0.8953(2) 0.1571(3) 0.6987(3)
N6 N 0.80125(19) 0.0605(3) 0.6981(3)
N7 N 0.8282(2) 0.1595(3) 0.5615(3)
N8 N 0.80194(19) 0.2564(3) 0.6967(3)
H35 H 0.9934 0.3662 0.6725
Cd6 Cd 0.754390(16) 0.41556(3) 0.75341(3)
H21 H 0.9761 0.9871 0.8455
Cd3 Cd 0.745610(16) 0.91556(3) 0.74659(3)
O15 O 0.82307(15) 0.8821(3) 0.8595(3)
H41 H 0.8395 0.8136 0.8495
H42 H 0.8080 0.8839 0.9185
O16 O 0.81228(16) 0.8124(3) 0.6690(3)
H43 H 0.8379 0.8584 0.6383
H44 H 0.7905 0.7680 0.6251
N10 N 0.69806(19) 0.7564(3) 0.8033(3)
O17 O 0.66499(16) 0.9982(3) 0.7876(3)
O18 O 0.69267(15) 0.8824(3) 0.6107(3)
C7_2 C 0.6591(2) 0.0490(4) 0.0667(4)
H13_2 H 0.5826 0.1290 0.0116
O4_2 O 0.69267(15) 0.1176(3) 0.1107(3)
Cd5 Cd 0.745610(16) 0.08444(3) 0.24659(3)
C8_2 C 0.6161(2) 0.0952(4) 0.9935(4)
C9_2 C 0.6227(2) 0.0910(4) 0.9055(4)
H14_2 H 0.5935 0.1207 0.8651
C10_2 C 0.6760(2) 0.0396(4) 0.8673(4)
O2_2 O 0.72428(16) 0.0369(3) 0.9083(3)
O11_2 O 0.66499(16) 0.0018(3) 0.2876(3)
O13_2 O 0.65837(15) 0.0476(3) 0.5821(2)
O3_2 O 0.65837(15) 0.9524(3) 0.0821(2)
C17_2 C 0.6591(2) 0.9510(4) 0.5667(4)
C18_2 C 0.6161(2) 0.9048(4) 0.4935(4)
H39_2 H 0.5826 0.8710 0.5116
C19_2 C 0.6227(2) 0.9090(4) 0.4055(4)
H40_2 H 0.5935 0.8793 0.3651
C20_2 C 0.6760(2) 0.9604(4) 0.3673(4)
O12_2 O 0.72428(16) 0.9631(3) 0.4083(3)
C18_3 C 0.8839(2) 0.4048(4) 0.0065(4)
C19_3 C 0.8773(2) 0.4090(4) 0.0945(4)
H40_3 H 0.9065 0.3793 0.1349
C20_3 C 0.8240(2) 0.4604(4) 0.1327(4)
O11_3 O 0.83501(16) 0.5018(3) 0.2124(3)
O12_3 O 0.77572(16) 0.4631(3) 0.0917(3)
Cd7_2 Cd 0.754390(16) 0.58444(3) 0.25341(3)
Cd2_3 Cd 0.5000 0.66791(4) 0.7500
C1_2 C 0.6344(2) 0.5640(4) 0.7691(4)
H1_2 H 0.6304 0.5635 0.7030
H2_2 H 0.6150 0.5011 0.7899
C2_2 C 0.7255(2) 0.6622(4) 0.7713(4)
H3_2 H 0.7673 0.6631 0.7924
H4_2 H 0.7225 0.6635 0.7053
C3_2 C 0.7026(2) 0.5644(4) 0.9048(4)
H5_2 H 0.6848 0.5010 0.9276
H6_2 H 0.7440 0.5658 0.9283
C4_2 C 0.6125(2) 0.6563(4) 0.9026(4)
H7_2 H 0.5918 0.7167 0.9253
H8_2 H 0.5942 0.5929 0.9245
C5_2 C 0.6343(2) 0.7547(4) 0.7698(4)
H9_2 H 0.6305 0.7569 0.7037
H10_2 H 0.6147 0.8167 0.7919
C6_2 C 0.7025(2) 0.7521(4) 0.9047(4)
H11_2 H 0.7436 0.7503 0.9264
H12_2 H 0.6854 0.8159 0.9280
C7_3 C 0.8409(2) 0.5490(4) 0.4333(4)
C8_3 C 0.8839(2) 0.5952(4) 0.5065(4)
H13_3 H 0.9174 0.6290 0.4884
C9_3 C 0.8773(2) 0.5910(4) 0.5945(4)
H14_3 H 0.9065 0.6207 0.6349
C10_3 C 0.8240(2) 0.5396(4) 0.6327(4)
N1_2 N 0.6047(2) 0.6571(3) 0.8013(3)
N2_2 N 0.69875(19) 0.5605(3) 0.8019(3)
N3_2 N 0.6718(2) 0.6595(3) 0.9385(3)
O1_2 O 0.83501(16) 0.4982(3) 0.7124(3)
O2_3 O 0.77572(16) 0.5369(3) 0.5917(3)
O3_3 O 0.84163(15) 0.4524(3) 0.4179(2)
O4_3 O 0.80733(15) 0.6176(3) 0.3893(3)
O5_2 O 0.67693(15) 0.3821(3) 0.6405(3)
H15_2 H 0.6605 0.3136 0.6505
H16_2 H 0.6920 0.3839 0.5815
O6_2 O 0.68772(16) 0.3124(3) 0.8310(3)
H17_2 H 0.6621 0.3584 0.8617
H18_2 H 0.7095 0.2680 0.8749
O7_2 O 0.4901(3) 0.8030(5) 0.8513(5)
H19_2 H 0.5066 0.8662 0.8275
H20_2 H 0.4486 0.8132 0.8571
O8_2 O 0.4835(3) 0.5511(5) 0.8599(5)
H21_2 H 0.4761 0.4871 0.8455
H22_2 H 0.4694 0.5734 0.9080
C11_2 C 0.3656(2) 0.5640(4) 0.7309(4)
H23_2 H 0.3696 0.5635 0.7970
H24_2 H 0.3850 0.5011 0.7101
C12_2 C 0.2745(2) 0.6622(4) 0.7287(4)
H25_2 H 0.2327 0.6631 0.7076
H26_2 H 0.2775 0.6635 0.7947
C13_2 C 0.2974(2) 0.5644(4) 0.5952(4)
H27_2 H 0.3152 0.5010 0.5724
H28_2 H 0.2560 0.5658 0.5717
C14_2 C 0.3875(2) 0.6563(4) 0.5974(4)
H29_2 H 0.4082 0.7167 0.5747
H30_2 H 0.4058 0.5929 0.5755
C15_2 C 0.3657(2) 0.7547(4) 0.7302(4)
H31_2 H 0.3695 0.7569 0.7963
H32_2 H 0.3853 0.8167 0.7081
C16_2 C 0.2975(2) 0.7521(4) 0.5953(4)
H33_2 H 0.2564 0.7503 0.5736
H34_2 H 0.3146 0.8159 0.5720
N5_2 N 0.3953(2) 0.6571(3) 0.6987(3)
N6_2 N 0.30125(19) 0.5605(3) 0.6981(3)
N7_2 N 0.3282(2) 0.6595(3) 0.5615(3)
O9_2 O 0.5099(3) 0.8030(5) 0.6487(5)
H35_2 H 0.4934 0.8662 0.6725
H36_2 H 0.5514 0.8132 0.6429
O10_2 O 0.5165(3) 0.5511(5) 0.6401(5)
H37_2 H 0.5239 0.4871 0.6545
H38_2 H 0.5306 0.5734 0.5920
C17_3 C 0.8409(2) 0.4510(4) 0.9333(4)
H39_3 H 0.9174 0.3710 0.9884
O13_3 O 0.84163(15) 0.5476(3) 0.9179(2)
O14_2 O 0.80733(15) 0.3824(3) 0.8893(3)
O15_2 O 0.32307(15) 0.3821(3) 0.8595(3)
H41_2 H 0.3395 0.3136 0.8495
H42_2 H 0.3080 0.3839 0.9185
O16_2 O 0.31228(16) 0.3124(3) 0.6690(3)
H43_2 H 0.3379 0.3584 0.6383
H44_2 H 0.2905 0.2680 0.6251
O17_2 O 0.16499(16) 0.4982(3) 0.7876(3)
O18_2 O 0.19267(15) 0.3824(3) 0.6107(3)
C7_4 C 0.1591(2) 0.5490(4) 0.0667(4)
H13_4 H 0.0826 0.6290 0.0116
O3_4 O 0.15837(15) 0.4524(3) 0.0821(2)
O4_4 O 0.19267(15) 0.6176(3) 0.1107(3)
Cd5_2 Cd 0.245610(16) 0.58444(3) 0.24659(3)
C8_4 C 0.1161(2) 0.5952(4) 0.9935(4)
C9_4 C 0.1227(2) 0.5910(4) 0.9055(4)
H14_4 H 0.0935 0.6207 0.8651
C10_4 C 0.1760(2) 0.5396(4) 0.8673(4)
O2_4 O 0.22428(16) 0.5369(3) 0.9083(3)
C17_4 C 0.1591(2) 0.4510(4) 0.5667(4)
C18_4 C 0.1161(2) 0.4048(4) 0.4935(4)
H39_4 H 0.0826 0.3710 0.5116
C19_4 C 0.1227(2) 0.4090(4) 0.4055(4)
H40_4 H 0.0935 0.3793 0.3651
C20_4 C 0.1760(2) 0.4604(4) 0.3673(4)
O11_4 O 0.16499(16) 0.5018(3) 0.2876(3)
O12_4 O 0.22428(16) 0.4631(3) 0.4083(3)
O13_4 O 0.15837(15) 0.5476(3) 0.5821(2)
H21_3 H 0.0239 0.0129 0.1545
O15_3 O 0.17693(15) 0.1179(3) 0.1405(3)
H41_3 H 0.1605 0.1864 0.1505
H42_3 H 0.1920 0.1161 0.0815
O16_3 O 0.18772(16) 0.1876(3) 0.3310(3)
H43_3 H 0.1621 0.1416 0.3617
H44_3 H 0.2095 0.2320 0.3749
N10_2 N 0.30194(19) 0.2436(3) 0.1967(3)
Cd2_4 Cd 0.0000 0.83209(4) 0.2500
O7_3 O 0.0099(3) 0.6970(5) 0.1487(5)
H20_3 H 0.0514 0.6868 0.1429
O8_3 O 0.0165(3) 0.9489(5) 0.1401(5)
H22_3 H 0.0306 0.9266 0.0920
C11_3 C 0.1344(2) 0.9360(4) 0.2691(4)
H23_3 H 0.1304 0.9365 0.2030
H24_3 H 0.1150 0.9989 0.2899
C12_3 C 0.2255(2) 0.8378(4) 0.2713(4)
H25_3 H 0.2673 0.8369 0.2924
H26_3 H 0.2225 0.8365 0.2053
C13_3 C 0.2026(2) 0.9356(4) 0.4048(4)
H27_3 H 0.1848 0.9990 0.4276
H28_3 H 0.2440 0.9342 0.4283
C14_3 C 0.1125(2) 0.8437(4) 0.4026(4)
H29_3 H 0.0918 0.7833 0.4253
H30_3 H 0.0942 0.9071 0.4245
C15_3 C 0.1343(2) 0.7453(4) 0.2698(4)
H31_3 H 0.1305 0.7431 0.2037
H32_3 H 0.1147 0.6833 0.2919
C16_3 C 0.2025(2) 0.7479(4) 0.4047(4)
H33_3 H 0.2436 0.7497 0.4264
H34_3 H 0.1854 0.6841 0.4280
N5_3 N 0.1047(2) 0.8429(3) 0.3013(3)
N6_3 N 0.19875(19) 0.9395(3) 0.3019(3)
N7_3 N 0.1718(2) 0.8405(3) 0.4385(3)
N8_2 N 0.19806(19) 0.7436(3) 0.3033(3)
H35_3 H 0.0066 0.6338 0.3275
O5_3 O 0.82307(15) 0.1179(3) 0.3595(3)
H15_3 H 0.8395 0.1864 0.3495
H16_3 H 0.8080 0.1161 0.4185
O6_3 O 0.81228(16) 0.1876(3) 0.1690(3)
H17_3 H 0.8379 0.1416 0.1383
H18_3 H 0.7905 0.2320 0.1251
H37_3 H 0.9761 0.0129 0.3455
N9_2 N 0.69806(19) 0.2436(3) 0.3033(3)
Cd2_5 Cd 1.0000 0.83209(4) 0.2500
C1_3 C 0.8656(2) 0.9360(4) 0.2309(4)
H1_3 H 0.8696 0.9365 0.2970
H2_3 H 0.8850 0.9989 0.2101
C2_3 C 0.7745(2) 0.8378(4) 0.2287(4)
H3_3 H 0.7327 0.8369 0.2076
H4_3 H 0.7775 0.8365 0.2947
C3_3 C 0.7974(2) 0.9356(4) 0.0952(4)
H5_3 H 0.8152 0.9990 0.0724
H6_3 H 0.7560 0.9342 0.0717
C4_3 C 0.8875(2) 0.8437(4) 0.0974(4)
H7_3 H 0.9082 0.7833 0.0747
H8_3 H 0.9058 0.9071 0.0755
C5_3 C 0.8657(2) 0.7453(4) 0.2302(4)
H9_3 H 0.8695 0.7431 0.2963
H10_3 H 0.8853 0.6833 0.2081
C6_3 C 0.7975(2) 0.7479(4) 0.0953(4)
H11_3 H 0.7564 0.7497 0.0736
H12_3 H 0.8146 0.6841 0.0720
N1_3 N 0.8953(2) 0.8429(3) 0.1987(3)
N2_3 N 0.80125(19) 0.9395(3) 0.1981(3)
N3_3 N 0.8282(2) 0.8405(3) 0.0615(3)
N4_2 N 0.80194(19) 0.7436(3) 0.1967(3)
H19_3 H 0.9934 0.6338 0.1725
O9_3 O 0.9901(3) 0.6970(5) 0.3513(5)
H36_3 H 0.9486 0.6868 0.3571
O10_3 O 0.9835(3) 0.9489(5) 0.3599(5)
H38_3 H 0.9694 0.9266 0.4080
Cd2_6 Cd 0.5000 0.33209(4) 0.2500
C1_4 C 0.3656(2) 0.4360(4) 0.2309(4)
H1_4 H 0.3696 0.4365 0.2970
H2_4 H 0.3850 0.4989 0.2101
C2_4 C 0.2745(2) 0.3378(4) 0.2287(4)
H3_4 H 0.2327 0.3369 0.2076
H4_4 H 0.2775 0.3365 0.2947
C3_4 C 0.2974(2) 0.4356(4) 0.0952(4)
H5_4 H 0.3152 0.4990 0.0724
H6_4 H 0.2560 0.4342 0.0717
C4_4 C 0.3875(2) 0.3437(4) 0.0974(4)
H7_4 H 0.4082 0.2833 0.0747
H8_4 H 0.4058 0.4071 0.0755
C5_4 C 0.3657(2) 0.2453(4) 0.2302(4)
H9_4 H 0.3695 0.2431 0.2963
H10_4 H 0.3853 0.1833 0.2081
C6_4 C 0.2975(2) 0.2479(4) 0.0953(4)
H11_4 H 0.2564 0.2497 0.0736
H12_4 H 0.3146 0.1841 0.0720
N1_4 N 0.3953(2) 0.3429(3) 0.1987(3)
N2_4 N 0.30125(19) 0.4395(3) 0.1981(3)
N3_4 N 0.3282(2) 0.3405(3) 0.0615(3)
O5_4 O 0.32307(15) 0.6179(3) 0.3595(3)
H15_4 H 0.3395 0.6864 0.3495
H16_4 H 0.3080 0.6161 0.4185
O6_4 O 0.31228(16) 0.6876(3) 0.1690(3)
H17_4 H 0.3379 0.6416 0.1383
H18_4 H 0.2905 0.7320 0.1251
O7_4 O 0.5099(3) 0.1970(5) 0.1487(5)
H19_4 H 0.4934 0.1338 0.1725
H20_4 H 0.5514 0.1868 0.1429
O8_4 O 0.5165(3) 0.4489(5) 0.1401(5)
H21_4 H 0.5239 0.5129 0.1545
H22_4 H 0.5306 0.4266 0.0920
C11_4 C 0.6344(2) 0.4360(4) 0.2691(4)
H23_4 H 0.6304 0.4365 0.2030
H24_4 H 0.6150 0.4989 0.2899
C12_4 C 0.7255(2) 0.3378(4) 0.2713(4)
H25_4 H 0.7673 0.3369 0.2924
H26_4 H 0.7225 0.3365 0.2053
C13_4 C 0.7026(2) 0.4356(4) 0.4048(4)
H27_4 H 0.6848 0.4990 0.4276
H28_4 H 0.7440 0.4342 0.4283
C14_4 C 0.6125(2) 0.3437(4) 0.4026(4)
H29_4 H 0.5918 0.2833 0.4253
H30_4 H 0.5942 0.4071 0.4245
C15_4 C 0.6343(2) 0.2453(4) 0.2698(4)
H31_4 H 0.6305 0.2431 0.2037
H32_4 H 0.6147 0.1833 0.2919
C16_4 C 0.7025(2) 0.2479(4) 0.4047(4)
H33_4 H 0.7436 0.2497 0.4264
H34_4 H 0.6854 0.1841 0.4280
N5_4 N 0.6047(2) 0.3429(3) 0.3013(3)
N6_4 N 0.69875(19) 0.4395(3) 0.3019(3)
N7_4 N 0.6718(2) 0.3405(3) 0.4385(3)
O9_4 O 0.4901(3) 0.1970(5) 0.3513(5)
H35_4 H 0.5066 0.1338 0.3275
H36_4 H 0.4486 0.1868 0.3571
O10_4 O 0.4835(3) 0.4489(5) 0.3599(5)
H37_4 H 0.4761 0.5129 0.3455
H38_4 H 0.4694 0.4266 0.4080
O15_4 O 0.67693(15) 0.6179(3) 0.1405(3)
H41_4 H 0.6605 0.6864 0.1505
H42_4 H 0.6920 0.6161 0.0815
O16_4 O 0.68772(16) 0.6876(3) 0.3310(3)
H43_4 H 0.6621 0.6416 0.3617
H44_4 H 0.7095 0.7320 0.3749
loop_
_geom_bond_atom_site_label_1
_geom_bond_atom_site_label_2
_geom_bond_site_symmetry_1
_geom_bond_site_symmetry_2
Cd7 O11 1_555 1_555
Cd2 N1 1_555 1_555
C1 H1 1_555 1_555
H2 C1 1_555 1_555
C2 H3 1_555 1_555
H4 C2 1_555 1_555
C3 H5 1_555 1_555
H6 C3 1_555 1_555
C4 H7 1_555 1_555
H8 C4 1_555 1_555
C5 H9 1_555 1_555
H10 C5 1_555 1_555
C6 H11 1_555 1_555
H12 C6 1_555 1_555
C7 C8 1_555 1_555
C8 H13 1_555 1_555
C9 C8 1_555 1_555
H14 C9 1_555 1_555
C10 C9 1_555 1_555
N1 C1 1_555 1_555
N2 C1 1_555 1_555
N3 C3 1_555 1_555
N4 C2 1_555 1_555
O2 C10 1_555 1_555
O4 C7 1_555 1_555
O9 Cd2 1_555 1_555
H36 O9 1_555 1_555
O10 Cd2 1_555 1_555
H38 O10 1_555 1_555
Cd4 N4 1_555 1_555
Cd7 O4 1_555 1_555
C2 N2 1_555 1_555
C3 N2 1_555 1_555
C4 N1 1_555 1_555
C4 N3 1_555 1_555
C5 N1 1_555 1_555
C5 N4 1_555 1_555
C6 N3 1_555 1_555
C6 N4 1_555 1_555
C19 C18 1_555 1_555
H40 C19 1_555 1_555
C20 C19 1_555 1_555
O12 C20 1_555 1_555
O1 Cd1 1_555 1_555
O5 Cd1 1_555 1_555
H15 O5 1_555 1_555
H16 O5 1_555 1_555
O6 Cd1 1_555 1_555
H17 O6 1_555 1_555
H18 O6 1_555 1_555
O14 Cd1 1_555 1_555
N9 Cd1 1_555 1_555
C17 O14 1_555 1_555
O7 Cd2_2 1_555 1_555
H20 O7 1_555 1_555
O8 Cd2_2 1_555 1_555
H22 O8 1_555 1_555
C11 H23 1_555 1_555
H24 C11 1_555 1_555
C12 H25 1_555 1_555
H26 C12 1_555 1_555
C13 H27 1_555 1_555
H28 C13 1_555 1_555
C14 H29 1_555 1_555
H30 C14 1_555 1_555
C15 H31 1_555 1_555
H32 C15 1_555 1_555
C16 H33 1_555 1_555
H34 C16 1_555 1_555
N5 Cd2_2 1_555 1_555
N6 C11 1_555 1_555
N7 C13 1_555 1_555
N8 C12 1_555 1_555
Cd6 N8 1_555 1_555
C11 N5 1_555 1_555
C12 N6 1_555 1_555
C13 N6 1_555 1_555
C14 N5 1_555 1_555
C14 N7 1_555 1_555
C15 N5 1_555 1_555
C15 N8 1_555 1_555
C16 N7 1_555 1_555
C16 N8 1_555 1_555
O15 Cd3 1_555 1_555
H41 O15 1_555 1_555
H42 O15 1_555 1_555
O16 Cd3 1_555 1_555
H43 O16 1_555 1_555
H44 O16 1_555 1_555
N10 Cd3 1_555 1_555
O17 Cd3 1_555 1_555
O18 Cd3 1_555 1_555
O4_2 C7_2 1_555 1_555
Cd5 O4_2 1_555 1_555
C9_2 C8_2 1_555 1_555
H14_2 C9_2 1_555 1_555
C10_2 C9_2 1_555 1_555
O2_2 C10_2 1_555 1_555
Cd5 O11_2 1_555 1_555
C17_2 C18_2 1_555 1_555
C18_2 H39_2 1_555 1_555
C19_2 C18_2 1_555 1_555
H40_2 C19_2 1_555 1_555
C20_2 C19_2 1_555 1_555
O12_2 C20_2 1_555 1_555
C17_2 O18 1_555 1_555
C19_3 C18_3 1_555 1_555
H40_3 C19_3 1_555 1_555
C20_3 C19_3 1_555 1_555
O11_3 C20_3 1_555 1_555
O12_3 C20_3 1_555 1_555
Cd7_2 O11_3 1_555 1_555
Cd6 N2_2 1_555 1_555
Cd2_3 N1_2 1_555 1_555
C1_2 H1_2 1_555 1_555
H2_2 C1_2 1_555 1_555
C2_2 H3_2 1_555 1_555
H4_2 C2_2 1_555 1_555
C3_2 H5_2 1_555 1_555
H6_2 C3_2 1_555 1_555
C4_2 H7_2 1_555 1_555
H8_2 C4_2 1_555 1_555
C5_2 H9_2 1_555 1_555
H10_2 C5_2 1_555 1_555
C6_2 H11_2 1_555 1_555
H12_2 C6_2 1_555 1_555
C7_3 C8_3 1_555 1_555
C8_3 H13_3 1_555 1_555
C9_3 C8_3 1_555 1_555
H14_3 C9_3 1_555 1_555
C10_3 C9_3 1_555 1_555
N1_2 C1_2 1_555 1_555
N2_2 C1_2 1_555 1_555
N3_2 C3_2 1_555 1_555
N10 C2_2 1_555 1_555
O1_2 Cd6 1_555 1_555
O2_3 C10_3 1_555 1_555
O3_3 C7_3 1_555 1_555
O4_3 C7_3 1_555 1_555
O5_2 Cd6 1_555 1_555
H15_2 O5_2 1_555 1_555
H16_2 O5_2 1_555 1_555
O6_2 Cd6 1_555 1_555
H17_2 O6_2 1_555 1_555
H18_2 O6_2 1_555 1_555
O7_2 Cd2_3 1_555 1_555
H19_2 O7_2 1_555 1_555
H20_2 O7_2 1_555 1_555
O8_2 Cd2_3 1_555 1_555
H21_2 O8_2 1_555 1_555
H22_2 O8_2 1_555 1_555
C11_2 H23_2 1_555 1_555
H24_2 C11_2 1_555 1_555
C12_2 H25_2 1_555 1_555
H26_2 C12_2 1_555 1_555
C13_2 H27_2 1_555 1_555
H28_2 C13_2 1_555 1_555
C14_2 H29_2 1_555 1_555
H30_2 C14_2 1_555 1_555
C15_2 H31_2 1_555 1_555
H32_2 C15_2 1_555 1_555
C16_2 H33_2 1_555 1_555
H34_2 C16_2 1_555 1_555
N5_2 Cd2_3 1_555 1_555
N6_2 C11_2 1_555 1_555
N7_2 C13_2 1_555 1_555
N9 C12_2 1_555 1_555
O9_2 Cd2_3 1_555 1_555
H35_2 O9_2 1_555 1_555
H36_2 O9_2 1_555 1_555
O10_2 Cd2_3 1_555 1_555
H37_2 O10_2 1_555 1_555
H38_2 O10_2 1_555 1_555
Cd4 N6_2 1_555 1_555
O13_3 C17_3 1_555 1_555
O14_2 Cd6 1_555 1_555
O15_2 Cd4 1_555 1_555
H41_2 O15_2 1_555 1_555
H42_2 O15_2 1_555 1_555
O16_2 Cd4 1_555 1_555
H43_2 O16_2 1_555 1_555
H44_2 O16_2 1_555 1_555
Cd7_2 O4_3 1_555 1_555
O17_2 Cd4 1_555 1_555
O18_2 Cd4 1_555 1_555
C2_2 N2_2 1_555 1_555
C3_2 N2_2 1_555 1_555
C4_2 N1_2 1_555 1_555
C4_2 N3_2 1_555 1_555
C5_2 N1_2 1_555 1_555
C5_2 N10 1_555 1_555
C6_2 N3_2 1_555 1_555
C6_2 N10 1_555 1_555
C10_3 O1_2 1_555 1_555
C11_2 N5_2 1_555 1_555
C12_2 N6_2 1_555 1_555
C13_2 N6_2 1_555 1_555
C14_2 N5_2 1_555 1_555
C14_2 N7_2 1_555 1_555
C15_2 N5_2 1_555 1_555
C15_2 N9 1_555 1_555
C16_2 N7_2 1_555 1_555
C16_2 N9 1_555 1_555
C17_3 O14_2 1_555 1_555
O3_4 C7_4 1_555 1_555
O4_4 C7_4 1_555 1_555
Cd5_2 O4_4 1_555 1_555
C9_4 C8_4 1_555 1_555
H14_4 C9_4 1_555 1_555
C10_4 C9_4 1_555 1_555
O2_4 C10_4 1_555 1_555
C17_4 C18_4 1_555 1_555
C18_4 H39_4 1_555 1_555
C19_4 C18_4 1_555 1_555
H40_4 C19_4 1_555 1_555
C20_4 C19_4 1_555 1_555
O11_4 C20_4 1_555 1_555
O12_4 C20_4 1_555 1_555
O13_4 C17_4 1_555 1_555
Cd5_2 O11_4 1_555 1_555
C10_4 O17_2 1_555 1_555
C17_4 O18_2 1_555 1_555
O15_3 Cd7 1_555 1_555
H41_3 O15_3 1_555 1_555
H42_3 O15_3 1_555 1_555
O16_3 Cd7 1_555 1_555
H43_3 O16_3 1_555 1_555
H44_3 O16_3 1_555 1_555
N10_2 Cd7 1_555 1_555
O7_3 Cd2_4 1_555 1_555
H20_3 O7_3 1_555 1_555
O8_3 Cd2_4 1_555 1_555
H22_3 O8_3 1_555 1_555
C11_3 H23_3 1_555 1_555
H24_3 C11_3 1_555 1_555
C12_3 H25_3 1_555 1_555
H26_3 C12_3 1_555 1_555
C13_3 H27_3 1_555 1_555
H28_3 C13_3 1_555 1_555
C14_3 H29_3 1_555 1_555
H30_3 C14_3 1_555 1_555
C15_3 H31_3 1_555 1_555
H32_3 C15_3 1_555 1_555
C16_3 H33_3 1_555 1_555
H34_3 C16_3 1_555 1_555
N5_3 Cd2_4 1_555 1_555
N6_3 C11_3 1_555 1_555
N7_3 C13_3 1_555 1_555
N8_2 C12_3 1_555 1_555
Cd5_2 N8_2 1_555 1_555
C11_3 N5_3 1_555 1_555
C12_3 N6_3 1_555 1_555
C13_3 N6_3 1_555 1_555
C14_3 N5_3 1_555 1_555
C14_3 N7_3 1_555 1_555
C15_3 N5_3 1_555 1_555
C15_3 N8_2 1_555 1_555
C16_3 N7_3 1_555 1_555
C16_3 N8_2 1_555 1_555
O5_3 Cd5 1_555 1_555
H15_3 O5_3 1_555 1_555
H16_3 O5_3 1_555 1_555
O6_3 Cd5 1_555 1_555
H17_3 O6_3 1_555 1_555
H18_3 O6_3 1_555 1_555
N9_2 Cd5 1_555 1_555
Cd2_5 N1_3 1_555 1_555
C1_3 H1_3 1_555 1_555
H2_3 C1_3 1_555 1_555
C2_3 H3_3 1_555 1_555
H4_3 C2_3 1_555 1_555
C3_3 H5_3 1_555 1_555
H6_3 C3_3 1_555 1_555
C4_3 H7_3 1_555 1_555
H8_3 C4_3 1_555 1_555
C5_3 H9_3 1_555 1_555
H10_3 C5_3 1_555 1_555
C6_3 H11_3 1_555 1_555
H12_3 C6_3 1_555 1_555
N1_3 C1_3 1_555 1_555
N2_3 C1_3 1_555 1_555
N3_3 C3_3 1_555 1_555
N4_2 C2_3 1_555 1_555
O9_3 Cd2_5 1_555 1_555
H36_3 O9_3 1_555 1_555
O10_3 Cd2_5 1_555 1_555
H38_3 O10_3 1_555 1_555
Cd7_2 N4_2 1_555 1_555
C2_3 N2_3 1_555 1_555
C3_3 N2_3 1_555 1_555
C4_3 N1_3 1_555 1_555
C4_3 N3_3 1_555 1_555
C5_3 N1_3 1_555 1_555
C5_3 N4_2 1_555 1_555
C6_3 N3_3 1_555 1_555
C6_3 N4_2 1_555 1_555
Cd5_2 N2_4 1_555 1_555
Cd2_6 N1_4 1_555 1_555
C1_4 H1_4 1_555 1_555
H2_4 C1_4 1_555 1_555
C2_4 H3_4 1_555 1_555
H4_4 C2_4 1_555 1_555
C3_4 H5_4 1_555 1_555
H6_4 C3_4 1_555 1_555
C4_4 H7_4 1_555 1_555
H8_4 C4_4 1_555 1_555
C5_4 H9_4 1_555 1_555
H10_4 C5_4 1_555 1_555
C6_4 H11_4 1_555 1_555
H12_4 C6_4 1_555 1_555
N1_4 C1_4 1_555 1_555
N2_4 C1_4 1_555 1_555
N3_4 C3_4 1_555 1_555
N10_2 C2_4 1_555 1_555
O5_4 Cd5_2 1_555 1_555
H15_4 O5_4 1_555 1_555
H16_4 O5_4 1_555 1_555
O6_4 Cd5_2 1_555 1_555
H17_4 O6_4 1_555 1_555
H18_4 O6_4 1_555 1_555
O7_4 Cd2_6 1_555 1_555
H19_4 O7_4 1_555 1_555
H20_4 O7_4 1_555 1_555
O8_4 Cd2_6 1_555 1_555
H21_4 O8_4 1_555 1_555
H22_4 O8_4 1_555 1_555
C11_4 H23_4 1_555 1_555
H24_4 C11_4 1_555 1_555
C12_4 H25_4 1_555 1_555
H26_4 C12_4 1_555 1_555
C13_4 H27_4 1_555 1_555
H28_4 C13_4 1_555 1_555
C14_4 H29_4 1_555 1_555
H30_4 C14_4 1_555 1_555
C15_4 H31_4 1_555 1_555
H32_4 C15_4 1_555 1_555
C16_4 H33_4 1_555 1_555
H34_4 C16_4 1_555 1_555
N5_4 Cd2_6 1_555 1_555
N6_4 C11_4 1_555 1_555
N7_4 C13_4 1_555 1_555
N9_2 C12_4 1_555 1_555
O9_4 Cd2_6 1_555 1_555
H35_4 O9_4 1_555 1_555
H36_4 O9_4 1_555 1_555
O10_4 Cd2_6 1_555 1_555
H37_4 O10_4 1_555 1_555
H38_4 O10_4 1_555 1_555
Cd7_2 N6_4 1_555 1_555
O15_4 Cd7_2 1_555 1_555
H41_4 O15_4 1_555 1_555
H42_4 O15_4 1_555 1_555
O16_4 Cd7_2 1_555 1_555
H43_4 O16_4 1_555 1_555
H44_4 O16_4 1_555 1_555
C2_4 N2_4 1_555 1_555
C3_4 N2_4 1_555 1_555
C4_4 N1_4 1_555 1_555
C4_4 N3_4 1_555 1_555
C5_4 N1_4 1_555 1_555
C5_4 N10_2 1_555 1_555
C6_4 N3_4 1_555 1_555
C6_4 N10_2 1_555 1_555
C11_4 N5_4 1_555 1_555
C12_4 N6_4 1_555 1_555
C13_4 N6_4 1_555 1_555
C14_4 N5_4 1_555 1_555
C14_4 N7_4 1_555 1_555
C15_4 N5_4 1_555 1_555
C15_4 N9_2 1_555 1_555
C16_4 N7_4 1_555 1_555
C16_4 N9_2 1_555 1_555

#END
