
###############################################################################
#
# This file contains modified crystal structure data generated from the
# MOF subset of the Cambridge Structural Database (CSD) v543 
# hosted by the Cambridge Crystallographic Data Centre (CCDC).
#
# This work is licensed under the Creative Commons
# Attribution-NonCommercial-ShareAlike 4.0 International License.
# To view a copy of this license, visit
# http://creativecommons.org/licenses/by-nc-sa/4.0/
# or send a letter to
# Creative Commons, PO Box 1866, Mountain View, CA 94042, USA.
#
# CIF created using the CSD Python API on 29 September 2022
# The structure has been converted into the P1 space group
# The structure has a 3D framework
# The original CSD entry SAMLAV02 is in the monoclinic crystal system
# The framework has been calculated to contain at least 10.0% void space
# The void calculation uses a probe of radius 1.32A, grid spacing 0.4
#
###############################################################################

data_SAMLAV02
_chemical_formula_moiety         '(C48 H28 Cd4 N12 O24)n'
_symmetry_cell_setting           triclinic
_symmetry_space_group_name_H-M   'P 1'
_symmetry_Int_Tables_number      1
_space_group_name_Hall           'P 1'
loop_
_symmetry_equiv_pos_site_id
_symmetry_equiv_pos_as_xyz
1 x,y,z
_cell_length_a                   7.4378(3)
_cell_length_b                   20.9108(7)
_cell_length_c                   14.3257(6)
_cell_angle_alpha                90
_cell_angle_beta                 92.650(4)
_cell_angle_gamma                90
_cell_volume                     2225.7
loop_
_atom_site_label
_atom_site_type_symbol
_atom_site_fract_x
_atom_site_fract_y
_atom_site_fract_z
Cd4 Cd 0.51160(6) 0.06360(2) 0.10200(3)
Cd1 Cd 0.51160(6) 0.43640(2) 0.60200(3)
C1 C 0.5102(11) 0.2546(3) 0.7277(5)
C2 C 0.5049(14) 0.1997(4) 0.6741(5)
C3 C 0.4979(12) 0.1394(4) 0.7160(6)
H1 H 0.4936 0.1020 0.6783
C4 C 0.4970(9) 0.1342(3) 0.8109(5)
C5 C 0.5089(11) 0.1891(3) 0.8664(6)
H2 H 0.5166 0.1857 0.9326
C6 C 0.5092(11) 0.2479(3) 0.8240(6)
H3 H 0.5086 0.2852 0.8618
C7 C 0.5168(11) 0.3196(3) 0.6833(6)
C8 C 0.4915(10) 0.0688(3) 0.8537(5)
C9 C 0.0960(9) 0.4110(4) 0.5314(6)
H4 H 0.1545 0.3891 0.4834
C12 C 0.1093(9) 0.4710(4) 0.6614(6)
H7 H 0.1751 0.4928 0.7101
N1 N 0.512(2) 0.1940(6) 0.5645(7)
N2 N 0.1963(8) 0.4412(2) 0.5968(4)
O1 O 0.5023(8) 0.3252(3) 0.5988(4)
O2 O 0.5283(10) 0.3667(4) 0.7341(5)
O3 O 0.4962(9) 0.0616(2) 0.9402(4)
O4 O 0.4812(7) 0.0212(2) 0.7982(4)
O5 O 0.355(2) 0.1974(7) 0.5363(10)
O6 O 0.667(2) 0.2033(7) 0.5447(10)
N4 N 0.8238(9) 0.4408(3) 0.5949(5)
O7 O 0.5038(9) 0.5616(2) 0.5598(4)
O8 O 0.4962(9) 0.4384(2) 0.4402(4)
O9 O 0.5188(7) 0.5212(2) 0.7018(4)
Cd3 Cd 0.48840(6) 0.93640(2) 0.89800(3)
C10 C 0.9111(8) 0.4103(4) 0.5305(6)
H5 H 0.8454 0.3876 0.4828
C11 C 0.9241(9) 0.4713(4) 0.6598(6)
H6 H 0.8657 0.4943 0.7069
C10_2 C 0.0889(8) 0.9103(4) 0.9695(6)
C11_2 C 0.0759(9) 0.9713(4) 0.8402(6)
H6_2 H 0.1343 0.9943 0.7931
N3 N 0.1762(9) 0.9408(3) 0.9051(5)
H4_2 H 0.8455 0.8891 0.0166
O8_2 O 0.5038(9) 0.9384(2) 0.0598(4)
C1_2 C 0.4898(11) 0.7546(3) 0.7723(5)
C2_2 C 0.4951(14) 0.6997(4) 0.8259(5)
C3_2 C 0.5021(12) 0.6394(4) 0.7840(6)
H1_2 H 0.5064 0.6020 0.8217
C4_2 C 0.5030(9) 0.6342(3) 0.6891(5)
C5_2 C 0.4911(11) 0.6891(3) 0.6336(6)
H2_2 H 0.4834 0.6857 0.5674
C6_2 C 0.4908(11) 0.7479(3) 0.6760(6)
H3_2 H 0.4914 0.7852 0.6382
C7_2 C 0.4832(11) 0.8196(3) 0.8167(6)
C8_2 C 0.5085(10) 0.5688(3) 0.6463(5)
C9_2 C 0.9040(9) 0.9110(4) 0.9686(6)
C12_2 C 0.8907(9) 0.9710(4) 0.8386(6)
H7_2 H 0.8249 0.9928 0.7899
N1_2 N 0.488(2) 0.6940(6) 0.9355(7)
N2_2 N 0.8037(8) 0.9412(2) 0.9032(4)
O1_2 O 0.4977(8) 0.8252(3) 0.9012(4)
O2_2 O 0.4717(10) 0.8667(4) 0.7659(5)
O5_2 O 0.645(2) 0.6974(7) 0.9637(10)
O6_2 O 0.333(2) 0.7033(7) 0.9553(10)
Cd4_2 Cd 0.48840(6) 0.56360(2) 0.39800(3)
C10_3 C 0.0889(8) 0.5897(4) 0.4695(6)
H5_2 H 0.1546 0.6124 0.5172
C11_3 C 0.0759(9) 0.5287(4) 0.3402(6)
H6_3 H 0.1343 0.5057 0.2931
N3_2 N 0.1762(9) 0.5592(3) 0.4051(5)
C1_3 C 0.4898(11) 0.7454(3) 0.2723(5)
C2_3 C 0.4951(14) 0.8003(4) 0.3259(5)
C3_3 C 0.5021(12) 0.8606(4) 0.2840(6)
H1_3 H 0.5064 0.8980 0.3217
C4_3 C 0.5030(9) 0.8658(3) 0.1891(5)
C5_3 C 0.4911(11) 0.8109(3) 0.1336(6)
H2_3 H 0.4834 0.8143 0.0674
C6_3 C 0.4908(11) 0.7521(3) 0.1760(6)
H3_3 H 0.4914 0.7148 0.1382
C7_3 C 0.4832(11) 0.6804(3) 0.3167(6)
C8_3 C 0.5085(10) 0.9312(3) 0.1463(5)
C9_3 C 0.9040(9) 0.5890(4) 0.4686(6)
H4_3 H 0.8455 0.6109 0.5166
C12_3 C 0.8907(9) 0.5290(4) 0.3386(6)
H7_3 H 0.8249 0.5072 0.2899
N1_3 N 0.488(2) 0.8060(6) 0.4355(7)
N2_3 N 0.8037(8) 0.5588(2) 0.4032(4)
O1_3 O 0.4977(8) 0.6748(3) 0.4012(4)
O2_3 O 0.4717(10) 0.6333(4) 0.2659(5)
O4_2 O 0.5188(7) 0.9788(2) 0.2018(4)
O5_3 O 0.645(2) 0.8026(7) 0.4637(10)
O6_3 O 0.333(2) 0.7967(7) 0.4553(10)
O9_2 O 0.4812(7) 0.4788(2) 0.2982(4)
C1_4 C 0.5102(11) 0.2454(3) 0.2277(5)
C2_4 C 0.5049(14) 0.3003(4) 0.1741(5)
C3_4 C 0.4979(12) 0.3606(4) 0.2160(6)
H1_4 H 0.4936 0.3980 0.1783
C4_4 C 0.4970(9) 0.3658(3) 0.3109(5)
C5_4 C 0.5089(11) 0.3109(3) 0.3664(6)
H2_4 H 0.5166 0.3143 0.4326
C6_4 C 0.5092(11) 0.2521(3) 0.3240(6)
H3_4 H 0.5086 0.2148 0.3618
C7_4 C 0.5168(11) 0.1804(3) 0.1833(6)
C8_4 C 0.4915(10) 0.4312(3) 0.3537(5)
C9_4 C 0.0960(9) 0.0890(4) 0.0314(6)
C12_4 C 0.1093(9) 0.0290(4) 0.1614(6)
H7_4 H 0.1751 0.0072 0.2101
N1_4 N 0.512(2) 0.3060(6) 0.0645(7)
N2_4 N 0.1963(8) 0.0588(2) 0.0968(4)
O1_4 O 0.5023(8) 0.1748(3) 0.0988(4)
O2_4 O 0.5283(10) 0.1333(4) 0.2341(5)
O5_4 O 0.355(2) 0.3026(7) 0.0363(10)
O6_4 O 0.667(2) 0.2967(7) 0.0447(10)
N4_2 N 0.8238(9) 0.0592(3) 0.0949(5)
H4_4 H 0.1545 0.1109 0.9834
C10_4 C 0.9111(8) 0.0897(4) 0.0305(6)
C11_4 C 0.9241(9) 0.0287(4) 0.1598(6)
H6_4 H 0.8657 0.0057 0.2069
H5_3 H 0.1546 0.8876 0.0172
H5_4 H 0.8454 0.1124 0.9828
loop_
_geom_bond_atom_site_label_1
_geom_bond_atom_site_label_2
_geom_bond_site_symmetry_1
_geom_bond_site_symmetry_2
Cd1 N2 1_555 1_555
C1 C2 1_555 1_555
C2 C3 1_555 1_555
C3 H1 1_555 1_555
C4 C3 1_555 1_555
C5 C4 1_555 1_555
H2 C5 1_555 1_555
C6 C1 1_555 1_555
H3 C6 1_555 1_555
C7 C1 1_555 1_555
C8 C4 1_555 1_555
C9 H4 1_555 1_555
H7 C12 1_555 1_555
N1 C2 1_555 1_555
N2 C9 1_555 1_555
O1 Cd1 1_555 1_555
O2 Cd1 1_555 1_555
O3 C8 1_555 1_555
O4 C8 1_555 1_555
O5 N1 1_555 1_555
O6 N1 1_555 1_555
N4 Cd1 1_555 1_555
O7 Cd1 1_555 1_555
O8 Cd1 1_555 1_555
O9 Cd1 1_555 1_555
C5 C6 1_555 1_555
C7 O1 1_555 1_555
C7 O2 1_555 1_555
C12 N2 1_555 1_555
H5 C10 1_555 1_555
C11 H6 1_555 1_555
N4 C10 1_555 1_555
C11 N4 1_555 1_555
C11_2 H6_2 1_555 1_555
N3 C10_2 1_555 1_555
Cd3 N3 1_555 1_555
C11_2 N3 1_555 1_555
Cd3 N2_2 1_555 1_555
C1_2 C2_2 1_555 1_555
C2_2 C3_2 1_555 1_555
C3_2 H1_2 1_555 1_555
C4_2 C3_2 1_555 1_555
C5_2 C4_2 1_555 1_555
H2_2 C5_2 1_555 1_555
C6_2 C1_2 1_555 1_555
H3_2 C6_2 1_555 1_555
C7_2 C1_2 1_555 1_555
C8_2 C4_2 1_555 1_555
H7_2 C12_2 1_555 1_555
N1_2 C2_2 1_555 1_555
N2_2 C9_2 1_555 1_555
O1_2 Cd3 1_555 1_555
O2_2 Cd3 1_555 1_555
O7 C8_2 1_555 1_555
O9 C8_2 1_555 1_555
O5_2 N1_2 1_555 1_555
O6_2 N1_2 1_555 1_555
Cd4_2 O7 1_555 1_555
C5_2 C6_2 1_555 1_555
C7_2 O1_2 1_555 1_555
C7_2 O2_2 1_555 1_555
C12_2 N2_2 1_555 1_555
H5_2 C10_3 1_555 1_555
C11_3 H6_3 1_555 1_555
N3_2 C10_3 1_555 1_555
Cd4_2 N3_2 1_555 1_555
C11_3 N3_2 1_555 1_555
Cd4_2 N2_3 1_555 1_555
C1_3 C2_3 1_555 1_555
C2_3 C3_3 1_555 1_555
C3_3 H1_3 1_555 1_555
C4_3 C3_3 1_555 1_555
C5_3 C4_3 1_555 1_555
H2_3 C5_3 1_555 1_555
C6_3 C1_3 1_555 1_555
H3_3 C6_3 1_555 1_555
C7_3 C1_3 1_555 1_555
C8_3 C4_3 1_555 1_555
C9_3 H4_3 1_555 1_555
H7_3 C12_3 1_555 1_555
N1_3 C2_3 1_555 1_555
N2_3 C9_3 1_555 1_555
O1_3 Cd4_2 1_555 1_555
O2_3 Cd4_2 1_555 1_555
O8_2 C8_3 1_555 1_555
O4_2 C8_3 1_555 1_555
O5_3 N1_3 1_555 1_555
O6_3 N1_3 1_555 1_555
O8 Cd4_2 1_555 1_555
O9_2 Cd4_2 1_555 1_555
C5_3 C6_3 1_555 1_555
C7_3 O1_3 1_555 1_555
C7_3 O2_3 1_555 1_555
C12_3 N2_3 1_555 1_555
Cd4 N2_4 1_555 1_555
C1_4 C2_4 1_555 1_555
C2_4 C3_4 1_555 1_555
C3_4 H1_4 1_555 1_555
C4_4 C3_4 1_555 1_555
C5_4 C4_4 1_555 1_555
H2_4 C5_4 1_555 1_555
C6_4 C1_4 1_555 1_555
H3_4 C6_4 1_555 1_555
C7_4 C1_4 1_555 1_555
C8_4 C4_4 1_555 1_555
H7_4 C12_4 1_555 1_555
N1_4 C2_4 1_555 1_555
N2_4 C9_4 1_555 1_555
O1_4 Cd4 1_555 1_555
O2_4 Cd4 1_555 1_555
O8 C8_4 1_555 1_555
O9_2 C8_4 1_555 1_555
O5_4 N1_4 1_555 1_555
O6_4 N1_4 1_555 1_555
N4_2 Cd4 1_555 1_555
C5_4 C6_4 1_555 1_555
C7_4 O1_4 1_555 1_555
C7_4 O2_4 1_555 1_555
C12_4 N2_4 1_555 1_555
C11_4 H6_4 1_555 1_555
N4_2 C10_4 1_555 1_555
C11_4 N4_2 1_555 1_555

#END
