
###############################################################################
#
# This file contains modified crystal structure data generated from the
# MOF subset of the Cambridge Structural Database (CSD) v543 
# hosted by the Cambridge Crystallographic Data Centre (CCDC).
#
# This work is licensed under the Creative Commons
# Attribution-NonCommercial-ShareAlike 4.0 International License.
# To view a copy of this license, visit
# http://creativecommons.org/licenses/by-nc-sa/4.0/
# or send a letter to
# Creative Commons, PO Box 1866, Mountain View, CA 94042, USA.
#
# CIF created using the CSD Python API on 29 September 2022
# The structure has been converted into the P1 space group
# The structure has a 3D framework
# The original CSD entry SAMLAV01 is in the monoclinic crystal system
# The framework has been calculated to contain at least 10.0% void space
# The void calculation uses a probe of radius 1.32A, grid spacing 0.4
#
###############################################################################

data_SAMLAV01
_chemical_formula_moiety         '(C48 H28 Cd4 N12 O24)n'
_symmetry_cell_setting           triclinic
_symmetry_space_group_name_H-M   'P 1'
_symmetry_Int_Tables_number      1
_space_group_name_Hall           'P 1'
loop_
_symmetry_equiv_pos_site_id
_symmetry_equiv_pos_as_xyz
1 x,y,z
_cell_length_a                   7.4058(3)
_cell_length_b                   20.7757(7)
_cell_length_c                   14.2332(6)
_cell_angle_alpha                90
_cell_angle_beta                 99.132(4)
_cell_angle_gamma                90
_cell_volume                     2162.17
loop_
_atom_site_label
_atom_site_type_symbol
_atom_site_fract_x
_atom_site_fract_y
_atom_site_fract_z
Cd4 Cd 0.53821(7) 0.06419(2) 0.10134(3)
Cd1 Cd 0.53821(7) 0.43581(2) 0.60134(3)
C1 C 0.5349(12) 0.2520(4) 0.7240(5)
C2 C 0.5190(16) 0.1961(4) 0.6707(6)
C3 C 0.4944(14) 0.1365(4) 0.7091(6)
H1 H 0.4812 0.0993 0.6700
C4 C 0.4893(11) 0.1317(3) 0.8064(5)
C5 C 0.5091(11) 0.1864(4) 0.8627(6)
H2 H 0.5094 0.1834 0.9293
C6 C 0.5286(12) 0.2466(3) 0.8199(5)
H3 H 0.5375 0.2843 0.8580
C7 C 0.5438(10) 0.3182(3) 0.6800(5)
C8 C 0.4673(9) 0.0662(3) 0.8471(5)
C9 C 0.1101(10) 0.4121(4) 0.5260(5)
H4 H 0.1621 0.3923 0.4764
C12 C 0.1481(10) 0.4690(4) 0.6659(6)
H7 H 0.2272 0.4897 0.7159
N1 N 0.5552(18) 0.1946(6) 0.5713(9)
N2 N 0.2137(7) 0.4404(2) 0.5980(3)
O1 O 0.5017(9) 0.3238(3) 0.5924(4)
O2 O 0.5941(11) 0.3639(3) 0.7327(4)
O3 O 0.4853(7) 0.0589(2) 0.9367(4)
O4 O 0.4357(7) 0.0191(2) 0.7909(4)
O5 O 0.4263(17) 0.1755(6) 0.5147(8)
O6 O 0.706(2) 0.2148(6) 0.5532(8)
N4 N 0.8437(8) 0.4386(2) 0.5949(4)
O7 O 0.5147(7) 0.5589(2) 0.5633(4)
O8 O 0.4853(7) 0.4411(2) 0.4367(4)
O9 O 0.5643(7) 0.5191(2) 0.7091(4)
Cd3 Cd 0.46179(7) 0.93581(2) 0.89866(3)
C10 C 0.9215(10) 0.4122(4) 0.5250(5)
H5 H 0.8450 0.3929 0.4727
C11 C 0.9601(10) 0.4689(4) 0.6648(5)
H6 H 0.9115 0.4905 0.7141
C10_2 C 0.0785(10) 0.9122(4) 0.9750(5)
C11_2 C 0.0399(10) 0.9689(4) 0.8352(5)
H6_2 H 0.0885 0.9905 0.7859
N3 N 0.1563(8) 0.9386(2) 0.9051(4)
H4_2 H 0.8379 0.8923 0.0236
O8_2 O 0.5147(7) 0.9411(2) 0.0633(4)
C1_2 C 0.4651(12) 0.7520(4) 0.7760(5)
C2_2 C 0.4810(16) 0.6961(4) 0.8293(6)
C3_2 C 0.5056(14) 0.6365(4) 0.7909(6)
H1_2 H 0.5188 0.5993 0.8300
C4_2 C 0.5107(11) 0.6317(3) 0.6936(5)
C5_2 C 0.4909(11) 0.6864(4) 0.6373(6)
H2_2 H 0.4906 0.6834 0.5707
C6_2 C 0.4714(12) 0.7466(3) 0.6801(5)
H3_2 H 0.4625 0.7843 0.6420
C7_2 C 0.4562(10) 0.8182(3) 0.8200(5)
C8_2 C 0.5327(9) 0.5662(3) 0.6529(5)
C9_2 C 0.8899(10) 0.9121(4) 0.9740(5)
C12_2 C 0.8519(10) 0.9690(4) 0.8341(6)
H7_2 H 0.7728 0.9897 0.7841
N1_2 N 0.4448(18) 0.6946(6) 0.9287(9)
N2_2 N 0.7863(7) 0.9404(2) 0.9020(3)
O1_2 O 0.4983(9) 0.8238(3) 0.9076(4)
O2_2 O 0.4059(11) 0.8639(3) 0.7673(4)
O5_2 O 0.5737(17) 0.6755(6) 0.9853(8)
O6_2 O 0.294(2) 0.7148(6) 0.9468(8)
Cd4_2 Cd 0.46179(7) 0.56419(2) 0.39866(3)
C10_3 C 0.0785(10) 0.5878(4) 0.4750(5)
H5_2 H 0.1550 0.6071 0.5273
C11_3 C 0.0399(10) 0.5311(4) 0.3352(5)
H6_3 H 0.0885 0.5095 0.2859
N3_2 N 0.1563(8) 0.5614(2) 0.4051(4)
C1_3 C 0.4651(12) 0.7480(4) 0.2760(5)
C2_3 C 0.4810(16) 0.8039(4) 0.3293(6)
C3_3 C 0.5056(14) 0.8635(4) 0.2909(6)
H1_3 H 0.5188 0.9007 0.3300
C4_3 C 0.5107(11) 0.8683(3) 0.1936(5)
C5_3 C 0.4909(11) 0.8136(4) 0.1373(6)
H2_3 H 0.4906 0.8166 0.0707
C6_3 C 0.4714(12) 0.7534(3) 0.1801(5)
H3_3 H 0.4625 0.7157 0.1420
C7_3 C 0.4562(10) 0.6818(3) 0.3200(5)
C8_3 C 0.5327(9) 0.9338(3) 0.1529(5)
C9_3 C 0.8899(10) 0.5879(4) 0.4740(5)
H4_3 H 0.8379 0.6077 0.5236
C12_3 C 0.8519(10) 0.5310(4) 0.3341(6)
H7_3 H 0.7728 0.5103 0.2841
N1_3 N 0.4448(18) 0.8054(6) 0.4287(9)
N2_3 N 0.7863(7) 0.5596(2) 0.4020(3)
O1_3 O 0.4983(9) 0.6762(3) 0.4076(4)
O2_3 O 0.4059(11) 0.6361(3) 0.2673(4)
O4_2 O 0.5643(7) 0.9809(2) 0.2091(4)
O5_3 O 0.5737(17) 0.8245(6) 0.4853(8)
O6_3 O 0.294(2) 0.7852(6) 0.4468(8)
O9_2 O 0.4357(7) 0.4809(2) 0.2909(4)
C1_4 C 0.5349(12) 0.2480(4) 0.2240(5)
C2_4 C 0.5190(16) 0.3039(4) 0.1707(6)
C3_4 C 0.4944(14) 0.3635(4) 0.2091(6)
H1_4 H 0.4812 0.4007 0.1700
C4_4 C 0.4893(11) 0.3683(3) 0.3064(5)
C5_4 C 0.5091(11) 0.3136(4) 0.3627(6)
H2_4 H 0.5094 0.3166 0.4293
C6_4 C 0.5286(12) 0.2534(3) 0.3199(5)
H3_4 H 0.5375 0.2157 0.3580
C7_4 C 0.5438(10) 0.1818(3) 0.1800(5)
C8_4 C 0.4673(9) 0.4338(3) 0.3471(5)
C9_4 C 0.1101(10) 0.0879(4) 0.0260(5)
C12_4 C 0.1481(10) 0.0310(4) 0.1659(6)
H7_4 H 0.2272 0.0103 0.2159
N1_4 N 0.5552(18) 0.3054(6) 0.0713(9)
N2_4 N 0.2137(7) 0.0596(2) 0.0980(3)
O1_4 O 0.5017(9) 0.1762(3) 0.0924(4)
O2_4 O 0.5941(11) 0.1361(3) 0.2327(4)
O5_4 O 0.4263(17) 0.3245(6) 0.0147(8)
O6_4 O 0.706(2) 0.2852(6) 0.0532(8)
N4_2 N 0.8437(8) 0.0614(2) 0.0949(4)
H4_4 H 0.1621 0.1077 0.9764
C10_4 C 0.9215(10) 0.0878(4) 0.0250(5)
C11_4 C 0.9601(10) 0.0311(4) 0.1648(5)
H6_4 H 0.9115 0.0095 0.2141
H5_3 H 0.1550 0.8929 0.0273
H5_4 H 0.8450 0.1071 0.9727
loop_
_geom_bond_atom_site_label_1
_geom_bond_atom_site_label_2
_geom_bond_site_symmetry_1
_geom_bond_site_symmetry_2
Cd1 N2 1_555 1_555
C1 C2 1_555 1_555
C2 C3 1_555 1_555
C3 H1 1_555 1_555
C4 C3 1_555 1_555
C5 C4 1_555 1_555
H2 C5 1_555 1_555
C6 C1 1_555 1_555
H3 C6 1_555 1_555
C7 C1 1_555 1_555
C8 C4 1_555 1_555
C9 H4 1_555 1_555
H7 C12 1_555 1_555
N1 C2 1_555 1_555
N2 C9 1_555 1_555
O1 Cd1 1_555 1_555
O2 Cd1 1_555 1_555
O3 C8 1_555 1_555
O4 C8 1_555 1_555
O5 N1 1_555 1_555
O6 N1 1_555 1_555
N4 Cd1 1_555 1_555
O7 Cd1 1_555 1_555
O8 Cd1 1_555 1_555
O9 Cd1 1_555 1_555
C5 C6 1_555 1_555
C7 O1 1_555 1_555
C7 O2 1_555 1_555
C12 N2 1_555 1_555
H5 C10 1_555 1_555
C11 H6 1_555 1_555
N4 C10 1_555 1_555
C11 N4 1_555 1_555
C11_2 H6_2 1_555 1_555
N3 C10_2 1_555 1_555
Cd3 N3 1_555 1_555
C11_2 N3 1_555 1_555
Cd3 N2_2 1_555 1_555
C1_2 C2_2 1_555 1_555
C2_2 C3_2 1_555 1_555
C3_2 H1_2 1_555 1_555
C4_2 C3_2 1_555 1_555
C5_2 C4_2 1_555 1_555
H2_2 C5_2 1_555 1_555
C6_2 C1_2 1_555 1_555
H3_2 C6_2 1_555 1_555
C7_2 C1_2 1_555 1_555
C8_2 C4_2 1_555 1_555
H7_2 C12_2 1_555 1_555
N1_2 C2_2 1_555 1_555
N2_2 C9_2 1_555 1_555
O1_2 Cd3 1_555 1_555
O2_2 Cd3 1_555 1_555
O7 C8_2 1_555 1_555
O9 C8_2 1_555 1_555
O5_2 N1_2 1_555 1_555
O6_2 N1_2 1_555 1_555
Cd4_2 O7 1_555 1_555
C5_2 C6_2 1_555 1_555
C7_2 O1_2 1_555 1_555
C7_2 O2_2 1_555 1_555
C12_2 N2_2 1_555 1_555
H5_2 C10_3 1_555 1_555
C11_3 H6_3 1_555 1_555
N3_2 C10_3 1_555 1_555
Cd4_2 N3_2 1_555 1_555
C11_3 N3_2 1_555 1_555
Cd4_2 N2_3 1_555 1_555
C1_3 C2_3 1_555 1_555
C2_3 C3_3 1_555 1_555
C3_3 H1_3 1_555 1_555
C4_3 C3_3 1_555 1_555
C5_3 C4_3 1_555 1_555
H2_3 C5_3 1_555 1_555
C6_3 C1_3 1_555 1_555
H3_3 C6_3 1_555 1_555
C7_3 C1_3 1_555 1_555
C8_3 C4_3 1_555 1_555
C9_3 H4_3 1_555 1_555
H7_3 C12_3 1_555 1_555
N1_3 C2_3 1_555 1_555
N2_3 C9_3 1_555 1_555
O1_3 Cd4_2 1_555 1_555
O2_3 Cd4_2 1_555 1_555
O8_2 C8_3 1_555 1_555
O4_2 C8_3 1_555 1_555
O5_3 N1_3 1_555 1_555
O6_3 N1_3 1_555 1_555
O8 Cd4_2 1_555 1_555
O9_2 Cd4_2 1_555 1_555
C5_3 C6_3 1_555 1_555
C7_3 O1_3 1_555 1_555
C7_3 O2_3 1_555 1_555
C12_3 N2_3 1_555 1_555
Cd4 N2_4 1_555 1_555
C1_4 C2_4 1_555 1_555
C2_4 C3_4 1_555 1_555
C3_4 H1_4 1_555 1_555
C4_4 C3_4 1_555 1_555
C5_4 C4_4 1_555 1_555
H2_4 C5_4 1_555 1_555
C6_4 C1_4 1_555 1_555
H3_4 C6_4 1_555 1_555
C7_4 C1_4 1_555 1_555
C8_4 C4_4 1_555 1_555
H7_4 C12_4 1_555 1_555
N1_4 C2_4 1_555 1_555
N2_4 C9_4 1_555 1_555
O1_4 Cd4 1_555 1_555
O2_4 Cd4 1_555 1_555
O8 C8_4 1_555 1_555
O9_2 C8_4 1_555 1_555
O5_4 N1_4 1_555 1_555
O6_4 N1_4 1_555 1_555
N4_2 Cd4 1_555 1_555
C5_4 C6_4 1_555 1_555
C7_4 O1_4 1_555 1_555
C7_4 O2_4 1_555 1_555
C12_4 N2_4 1_555 1_555
C11_4 H6_4 1_555 1_555
N4_2 C10_4 1_555 1_555
C11_4 N4_2 1_555 1_555

#END
