
###############################################################################
#
# This file contains modified crystal structure data generated from the
# MOF subset of the Cambridge Structural Database (CSD) v543 
# hosted by the Cambridge Crystallographic Data Centre (CCDC).
#
# This work is licensed under the Creative Commons
# Attribution-NonCommercial-ShareAlike 4.0 International License.
# To view a copy of this license, visit
# http://creativecommons.org/licenses/by-nc-sa/4.0/
# or send a letter to
# Creative Commons, PO Box 1866, Mountain View, CA 94042, USA.
#
# CIF created using the CSD Python API on 29 September 2022
# The structure has been converted into the P1 space group
# The structure has a 3D framework
# The original CSD entry SAMLAV03 is in the orthorhombic crystal system
# The framework has been calculated to contain at least 10.0% void space
# The void calculation uses a probe of radius 1.32A, grid spacing 0.4
#
###############################################################################

data_SAMLAV03
_chemical_formula_moiety         '(C48 H28 Cd4 N12 O24)n'
_symmetry_cell_setting           triclinic
_symmetry_space_group_name_H-M   'P 1'
_symmetry_Int_Tables_number      1
_space_group_name_Hall           'P 1'
loop_
_symmetry_equiv_pos_site_id
_symmetry_equiv_pos_as_xyz
1 x,y,z
_cell_length_a                   20.993(4)
_cell_length_b                   14.236(3)
_cell_length_c                   7.4471(15)
_cell_angle_alpha                90
_cell_angle_beta                 90
_cell_angle_gamma                90
_cell_volume                     2225.61
loop_
_atom_site_label
_atom_site_type_symbol
_atom_site_fract_x
_atom_site_fract_y
_atom_site_fract_z
Cd3 Cd 0.06344(3) 0.10171(5) 0.5000
Cd4 Cd 0.56344(3) 0.39829(5) 0.5000
C11 C 0.5877(4) 0.4696(7) 0.0939(12)
H6 H 0.6081 0.5183 0.1541
C12 C 0.5320(5) 0.3367(6) 0.0943(11)
H7 H 0.5116 0.2880 0.1546
N3 N 0.5599(3) 0.4033(5) 0.1885(10)
C1 C 0.7445(5) 0.2745(7) 0.5000
C2 C 0.7983(6) 0.3271(8) 0.5000
C3 C 0.8592(6) 0.2868(8) 0.5000
H1 H 0.8953 0.3247 0.5000
C4 C 0.8649(5) 0.1902(6) 0.5000
C5 C 0.8135(8) 0.1400(8) 0.5000
H2 H 0.8177 0.0749 0.5000
C6 C 0.7527(6) 0.1774(8) 0.5000
H3 H 0.7174 0.1379 0.5000
C7 C 0.6795(5) 0.3155(7) 0.5000
C8 C 0.9317(5) 0.1503(7) 0.5000
C9 C 0.5877(4) 0.4696(7) 0.9061(12)
H4 H 0.6081 0.5183 0.8459
C10 C 0.5320(5) 0.3367(6) 0.9057(11)
H5 H 0.5116 0.2880 0.8454
N1 N 0.8068(15) 0.4324(17) 0.5000
N2 N 0.5599(3) 0.4033(5) 0.8115(10)
O1 O 0.6743(4) 0.4014(6) 0.5000
O2 O 0.6328(5) 0.2663(6) 0.5000
O3 O 0.9404(4) 0.0627(7) 0.5000
O4 O 0.9790(3) 0.2031(5) 0.5000
O5 O 0.8005(13) 0.4592(19) 0.342(3)
O6 O 0.5596(4) 0.5627(7) 0.5000
O7 O 0.4404(4) 0.4373(7) 0.5000
O8 O 0.4790(3) 0.2969(5) 0.5000
O9 O 0.8005(13) 0.4592(19) 0.658(3)
Cd2 Cd 0.93656(3) 0.89829(5) 0.5000
Cd4_2 Cd 0.43656(3) 0.60171(5) 0.5000
C11_2 C 0.4123(4) 0.5304(7) 0.0939(12)
H6_2 H 0.3919 0.4817 0.1541
C12_2 C 0.4680(5) 0.6633(6) 0.0943(11)
H7_2 H 0.4884 0.7120 0.1546
N3_2 N 0.4401(3) 0.5967(5) 0.1885(10)
C1_2 C 0.2555(5) 0.7255(7) 0.5000
C2_2 C 0.2017(6) 0.6729(8) 0.5000
C3_2 C 0.1408(6) 0.7132(8) 0.5000
H1_2 H 0.1047 0.6753 0.5000
C4_2 C 0.1351(5) 0.8098(6) 0.5000
C5_2 C 0.1865(8) 0.8600(8) 0.5000
H2_2 H 0.1823 0.9251 0.5000
C6_2 C 0.2473(6) 0.8226(8) 0.5000
H3_2 H 0.2826 0.8621 0.5000
C7_2 C 0.3205(5) 0.6845(7) 0.5000
C8_2 C 0.0683(5) 0.8497(7) 0.5000
C9_2 C 0.4123(4) 0.5304(7) 0.9061(12)
H4_2 H 0.3919 0.4817 0.8459
C10_2 C 0.4680(5) 0.6633(6) 0.9057(11)
H5_2 H 0.4884 0.7120 0.8454
N1_2 N 0.1932(15) 0.5676(17) 0.5000
N2_2 N 0.4401(3) 0.5967(5) 0.8115(10)
O1_2 O 0.3257(4) 0.5986(6) 0.5000
O2_2 O 0.3672(5) 0.7337(6) 0.5000
O3_2 O 0.0596(4) 0.9373(7) 0.5000
O4_2 O 0.0210(3) 0.7969(5) 0.5000
O5_2 O 0.1995(13) 0.5408(19) 0.342(3)
O8_2 O 0.5210(3) 0.7031(5) 0.5000
O9_2 O 0.1995(13) 0.5408(19) 0.658(3)
H4_3 H 0.8919 0.0183 0.1541
H6_3 H 0.8919 0.0183 0.8459
C1_3 C 0.7555(5) 0.7745(7) 0.5000
C2_3 C 0.7017(6) 0.8271(8) 0.5000
C3_3 C 0.6408(6) 0.7868(8) 0.5000
H1_3 H 0.6047 0.8247 0.5000
C4_3 C 0.6351(5) 0.6902(6) 0.5000
C5_3 C 0.6865(8) 0.6400(8) 0.5000
H2_3 H 0.6823 0.5749 0.5000
C6_3 C 0.7473(6) 0.6774(8) 0.5000
H3_3 H 0.7826 0.6379 0.5000
C7_3 C 0.8205(5) 0.8155(7) 0.5000
C8_3 C 0.5683(5) 0.6503(7) 0.5000
C9_3 C 0.9123(4) 0.9696(7) 0.0939(12)
C10_3 C 0.9680(5) 0.8367(6) 0.0943(11)
H5_3 H 0.9884 0.7880 0.1546
N1_3 N 0.6932(15) 0.9324(17) 0.5000
N2_3 N 0.9401(3) 0.9033(5) 0.1885(10)
O1_3 O 0.8257(4) 0.9014(6) 0.5000
O2_3 O 0.8672(5) 0.7663(6) 0.5000
O5_3 O 0.6995(13) 0.9592(19) 0.658(3)
N4 N 0.9401(3) 0.9033(5) 0.8115(10)
O9_3 O 0.6995(13) 0.9592(19) 0.342(3)
C11_3 C 0.9123(4) 0.9696(7) 0.9061(12)
C12_3 C 0.9680(5) 0.8367(6) 0.9057(11)
H7_3 H 0.9884 0.7880 0.8454
C1_4 C 0.2445(5) 0.2255(7) 0.5000
C2_4 C 0.2983(6) 0.1729(8) 0.5000
C3_4 C 0.3592(6) 0.2132(8) 0.5000
H1_4 H 0.3953 0.1753 0.5000
C4_4 C 0.3649(5) 0.3098(6) 0.5000
C5_4 C 0.3135(8) 0.3600(8) 0.5000
H2_4 H 0.3177 0.4251 0.5000
C6_4 C 0.2527(6) 0.3226(8) 0.5000
H3_4 H 0.2174 0.3621 0.5000
C7_4 C 0.1795(5) 0.1845(7) 0.5000
C8_4 C 0.4317(5) 0.3497(7) 0.5000
C9_4 C 0.0877(4) 0.0304(7) 0.0939(12)
C10_4 C 0.0320(5) 0.1633(6) 0.0943(11)
H5_4 H 0.0116 0.2120 0.1546
N1_4 N 0.3068(15) 0.0676(17) 0.5000
N2_4 N 0.0599(3) 0.0967(5) 0.1885(10)
O1_4 O 0.1743(4) 0.0986(6) 0.5000
O2_4 O 0.1328(5) 0.2337(6) 0.5000
O5_4 O 0.3005(13) 0.0408(19) 0.658(3)
N4_2 N 0.0599(3) 0.0967(5) 0.8115(10)
O9_4 O 0.3005(13) 0.0408(19) 0.342(3)
C11_4 C 0.0877(4) 0.0304(7) 0.9061(12)
C12_4 C 0.0320(5) 0.1633(6) 0.9057(11)
H7_4 H 0.0116 0.2120 0.8454
H4_4 H 0.1081 0.9817 0.1541
H6_4 H 0.1081 0.9817 0.8459
loop_
_geom_bond_atom_site_label_1
_geom_bond_atom_site_label_2
_geom_bond_site_symmetry_1
_geom_bond_site_symmetry_2
Cd4 N3 1_555 1_555
H6 C11 1_555 1_555
H7 C12 1_555 1_555
N3 C11 1_555 1_555
C12 N3 1_555 1_555
Cd4 N2 1_555 1_555
C1 C2 1_555 1_555
C2 C3 1_555 1_555
C3 H1 1_555 1_555
C4 C3 1_555 1_555
C5 C4 1_555 1_555
H2 C5 1_555 1_555
C6 C1 1_555 1_555
H3 C6 1_555 1_555
C7 C1 1_555 1_555
C8 C4 1_555 1_555
C9 H4 1_555 1_555
C10 H5 1_555 1_555
N1 C2 1_555 1_555
N2 C9 1_555 1_555
O1 Cd4 1_555 1_555
O2 Cd4 1_555 1_555
O3 C8 1_555 1_555
O4 C8 1_555 1_555
O5 N1 1_555 1_555
O6 Cd4 1_555 1_555
O7 Cd4 1_555 1_555
O8 Cd4 1_555 1_555
O9 N1 1_555 1_555
C5 C6 1_555 1_555
C7 O1 1_555 1_555
C7 O2 1_555 1_555
C10 N2 1_555 1_555
Cd4_2 N3_2 1_555 1_555
H6_2 C11_2 1_555 1_555
H7_2 C12_2 1_555 1_555
N3_2 C11_2 1_555 1_555
C12_2 N3_2 1_555 1_555
Cd4_2 N2_2 1_555 1_555
C1_2 C2_2 1_555 1_555
C2_2 C3_2 1_555 1_555
C3_2 H1_2 1_555 1_555
C4_2 C3_2 1_555 1_555
C5_2 C4_2 1_555 1_555
H2_2 C5_2 1_555 1_555
C6_2 C1_2 1_555 1_555
H3_2 C6_2 1_555 1_555
C7_2 C1_2 1_555 1_555
C8_2 C4_2 1_555 1_555
C9_2 H4_2 1_555 1_555
C10_2 H5_2 1_555 1_555
N1_2 C2_2 1_555 1_555
N2_2 C9_2 1_555 1_555
O1_2 Cd4_2 1_555 1_555
O2_2 Cd4_2 1_555 1_555
O3_2 C8_2 1_555 1_555
O4_2 C8_2 1_555 1_555
O5_2 N1_2 1_555 1_555
O7 Cd4_2 1_555 1_555
O6 Cd4_2 1_555 1_555
O8_2 Cd4_2 1_555 1_555
O9_2 N1_2 1_555 1_555
C5_2 C6_2 1_555 1_555
C7_2 O1_2 1_555 1_555
C7_2 O2_2 1_555 1_555
C10_2 N2_2 1_555 1_555
Cd2 N2_3 1_555 1_555
C1_3 C2_3 1_555 1_555
C2_3 C3_3 1_555 1_555
C3_3 H1_3 1_555 1_555
C4_3 C3_3 1_555 1_555
C5_3 C4_3 1_555 1_555
H2_3 C5_3 1_555 1_555
C6_3 C1_3 1_555 1_555
H3_3 C6_3 1_555 1_555
C7_3 C1_3 1_555 1_555
C8_3 C4_3 1_555 1_555
C10_3 H5_3 1_555 1_555
N1_3 C2_3 1_555 1_555
N2_3 C9_3 1_555 1_555
O1_3 Cd2 1_555 1_555
O2_3 Cd2 1_555 1_555
O6 C8_3 1_555 1_555
O8_2 C8_3 1_555 1_555
O5_3 N1_3 1_555 1_555
N4 Cd2 1_555 1_555
O9_3 N1_3 1_555 1_555
C5_3 C6_3 1_555 1_555
C7_3 O1_3 1_555 1_555
C7_3 O2_3 1_555 1_555
C10_3 N2_3 1_555 1_555
H7_3 C12_3 1_555 1_555
N4 C11_3 1_555 1_555
C12_3 N4 1_555 1_555
Cd3 N2_4 1_555 1_555
C1_4 C2_4 1_555 1_555
C2_4 C3_4 1_555 1_555
C3_4 H1_4 1_555 1_555
C4_4 C3_4 1_555 1_555
C5_4 C4_4 1_555 1_555
H2_4 C5_4 1_555 1_555
C6_4 C1_4 1_555 1_555
H3_4 C6_4 1_555 1_555
C7_4 C1_4 1_555 1_555
C8_4 C4_4 1_555 1_555
C10_4 H5_4 1_555 1_555
N1_4 C2_4 1_555 1_555
N2_4 C9_4 1_555 1_555
O1_4 Cd3 1_555 1_555
O2_4 Cd3 1_555 1_555
O7 C8_4 1_555 1_555
O8 C8_4 1_555 1_555
O5_4 N1_4 1_555 1_555
N4_2 Cd3 1_555 1_555
O9_4 N1_4 1_555 1_555
C5_4 C6_4 1_555 1_555
C7_4 O1_4 1_555 1_555
C7_4 O2_4 1_555 1_555
C10_4 N2_4 1_555 1_555
H7_4 C12_4 1_555 1_555
N4_2 C11_4 1_555 1_555
C12_4 N4_2 1_555 1_555

#END
