
###############################################################################
#
# This file contains modified crystal structure data generated from the
# MOF subset of the Cambridge Structural Database (CSD) v543 
# hosted by the Cambridge Crystallographic Data Centre (CCDC).
#
# This work is licensed under the Creative Commons
# Attribution-NonCommercial-ShareAlike 4.0 International License.
# To view a copy of this license, visit
# http://creativecommons.org/licenses/by-nc-sa/4.0/
# or send a letter to
# Creative Commons, PO Box 1866, Mountain View, CA 94042, USA.
#
# CIF created using the CSD Python API on 29 September 2022
# The structure has been converted into the P1 space group
# The structure has a 3D framework
# The original CSD entry SAMVEK is in the orthorhombic crystal system
# The original CSD entry SAMVEK is in a Sohncke space group
# The framework has been calculated to contain at least 10.0% void space
# The void calculation uses a probe of radius 1.32A, grid spacing 0.4
# H atom positions have been added when not included in the experimental data
#
###############################################################################

data_SAMVEK
_chemical_formula_moiety         '(C80 H76 Mn8 N4 O38)n'
_symmetry_cell_setting           triclinic
_symmetry_space_group_name_H-M   'P 1'
_symmetry_Int_Tables_number      1
_space_group_name_Hall           'P 1'
loop_
_symmetry_equiv_pos_site_id
_symmetry_equiv_pos_as_xyz
1 x,y,z
_cell_length_a                   12.73(4)
_cell_length_b                   15.81(5)
_cell_length_c                   16.73(5)
_cell_angle_alpha                90
_cell_angle_beta                 90
_cell_angle_gamma                90
_cell_volume                     3367.1
loop_
_atom_site_label
_atom_site_type_symbol
_atom_site_fract_x
_atom_site_fract_y
_atom_site_fract_z
O8 O 0.0350(3) 0.35979(19) 0.40621(19)
C14 C 0.0360(3) 0.4331(2) 0.2834(3)
C15 C 0.0955(3) 0.4636(3) 0.2205(3)
H7 H 0.1622 0.4417 0.2114
C16 C 0.0563(4) 0.5270(3) 0.1703(3)
H8 H 0.0975 0.5481 0.1289
C17 C 0.0823(3) 0.3701(3) 0.3424(3)
O10 O 0.1674(2) 0.3349(2) 0.32105(19)
Mn4 Mn 0.26880(4) 0.25736(3) 0.38913(3)
Mn7 Mn 0.02082(4) 0.26447(3) 0.50016(3)
Mn1 Mn 0.73120(4) 0.75736(3) 0.11087(3)
Mn2 Mn 0.47918(4) 0.73553(3) 0.00016(3)
O2 O 0.6121(2) 0.7079(2) 0.18312(18)
O3 O 0.4889(3) 0.65307(19) 0.1028(2)
O4 O 0.3617(2) 0.37246(17) 0.40967(19)
O5 O 0.5326(3) 0.34318(18) 0.41831(19)
O6 O 0.9812(3) 0.67022(19) 0.0914(2)
O7 O 0.8192(2) 0.6454(2) 0.1351(2)
C2 C 0.5401(3) 0.6553(2) 0.1656(3)
C3 C 0.5178(3) 0.5881(3) 0.2285(3)
C4 C 0.4587(4) 0.3850(2) 0.3922(3)
C5 C 0.4795(3) 0.4578(3) 0.3362(3)
C6 C 0.5709(4) 0.5056(3) 0.3431(3)
H1 H 0.6202 0.4933 0.3825
C7 C 0.5873(3) 0.5723(3) 0.2898(3)
H2 H 0.6461 0.6067 0.2957
C8 C 0.4274(4) 0.5397(3) 0.2215(3)
H3 H 0.3797 0.5502 0.1805
C9 C 0.4090(4) 0.4757(3) 0.2761(3)
H4 H 0.3476 0.4441 0.2722
C10 C 0.9147(4) 0.6303(3) 0.1315(3)
C11 C 0.9561(3) 0.5583(2) 0.1826(2)
C12 C 0.8949(4) 0.5253(3) 0.2436(3)
H5 H 0.8266 0.5448 0.2506
C13 C 0.9342(3) 0.4634(3) 0.2944(3)
H6 H 0.8928 0.4423 0.3356
Mn6 Mn 0.52082(4) 0.23553(3) 0.49984(3)
O11 O 0.6383(2) 0.87246(17) 0.09033(19)
O12 O 0.4674(3) 0.84318(18) 0.08169(19)
O15 O 0.3061(2) 0.72522(17) 0.00955(16)
O16 O 0.8326(2) 0.8349(2) 0.17895(19)
O1 O 0.6510(2) 0.71614(17) 0.99014(16)
C1 C 0.7289(3) 0.7447(2) 0.9525(2)
O9 O 0.8061(2) 0.77478(17) 0.99045(16)
C18 C 0.7314(4) 0.7424(4) 0.8619(3)
H9 H 0.7961 0.7666 0.8433
H10 H 0.6734 0.7743 0.8411
H11 H 0.7264 0.6849 0.8440
Mn5 Mn 0.97918(4) 0.76447(3) 0.99984(3)
O13 O 0.4812(3) 0.82978(19) 0.9086(2)
O14 O 0.4650(3) 0.64021(19) 0.90621(19)
O5_2 O 0.0326(3) 0.15682(18) 0.58169(19)
O8_2 O 0.5350(3) 0.14021(19) 0.59379(19)
H1_2 H 0.1202 0.0067 0.6175
C13_2 C 0.4342(3) 0.0366(3) 0.7056(3)
H6_2 H 0.3928 0.0577 0.6644
C14_2 C 0.5360(3) 0.0669(2) 0.7166(3)
C15_2 C 0.5955(3) 0.0364(3) 0.7795(3)
H7_2 H 0.6622 0.0583 0.7886
C17_2 C 0.5823(3) 0.1299(3) 0.6576(3)
O10_2 O 0.6674(2) 0.1651(2) 0.67895(19)
Mn4_2 Mn 0.76880(4) 0.24264(3) 0.61087(3)
O1_2 O 0.1510(2) 0.78386(17) 0.00986(16)
C1_2 C 0.2289(3) 0.7553(2) 0.0475(2)
C18_2 C 0.2314(4) 0.7576(4) 0.1381(3)
H9_2 H 0.2961 0.7334 0.1567
H10_2 H 0.1734 0.7257 0.1589
H11_2 H 0.2264 0.8151 0.1560
Mn1_2 Mn 0.23120(4) 0.74264(3) 0.88913(3)
O2_2 O 0.1121(2) 0.7921(2) 0.81688(18)
O7_2 O 0.3192(2) 0.8546(2) 0.8649(2)
C2_2 C 0.0401(3) 0.8447(2) 0.8344(3)
C3_2 C 0.0178(3) 0.9119(3) 0.7715(3)
C6_2 C 0.0709(4) 0.9944(3) 0.6569(3)
C7_2 C 0.0873(3) 0.9277(3) 0.7102(3)
H2_2 H 0.1461 0.8933 0.7043
C10_2 C 0.4147(4) 0.8697(3) 0.8685(3)
C11_2 C 0.4561(3) 0.9417(2) 0.8174(2)
C12_2 C 0.3949(4) 0.9747(3) 0.7564(3)
H5_2 H 0.3266 0.9552 0.7494
C16_2 C 0.5563(4) 0.9730(3) 0.8297(3)
H8_2 H 0.5975 0.9519 0.8711
O11_2 O 0.1383(2) 0.62754(17) 0.90967(19)
O16_2 O 0.3326(2) 0.6651(2) 0.82105(19)
O4_2 O 0.8617(2) 0.12754(17) 0.59033(19)
C4_2 C 0.9587(4) 0.1150(2) 0.6078(3)
C5_2 C 0.9795(3) 0.0422(3) 0.6638(3)
C9_2 C 0.9090(4) 0.0243(3) 0.7239(3)
H4_2 H 0.8476 0.0559 0.7278
O14_2 O 0.9650(3) 0.85979(19) 0.09379(19)
O3_2 O 0.9889(3) 0.84693(19) 0.8972(2)
C8_2 C 0.9274(4) 0.9603(3) 0.7785(3)
H3_2 H 0.8797 0.9498 0.8195
O12_2 O 0.9674(3) 0.65682(18) 0.91831(19)
O1_3 O 0.3490(2) 0.21614(17) 0.50986(16)
O2_3 O 0.3879(2) 0.2079(2) 0.31688(18)
O3_3 O 0.5111(3) 0.15307(19) 0.3972(2)
O6_2 O 0.0188(3) 0.17022(19) 0.4086(2)
O7_3 O 0.1808(2) 0.1454(2) 0.3649(2)
C1_3 C 0.2711(3) 0.2447(2) 0.5475(2)
O9_2 O 0.1939(2) 0.27478(17) 0.50955(16)
C2_3 C 0.4599(3) 0.1553(2) 0.3344(3)
C3_3 C 0.4822(3) 0.0881(3) 0.2715(3)
C6_3 C 0.4291(4) 0.0056(3) 0.1569(3)
C7_3 C 0.4127(3) 0.0723(3) 0.2102(3)
H2_3 H 0.3539 0.1067 0.2043
C8_3 C 0.5726(4) 0.0397(3) 0.2785(3)
H3_3 H 0.6203 0.0502 0.3195
C10_3 C 0.0853(4) 0.1303(3) 0.3685(3)
C11_3 C 0.0439(3) 0.0583(2) 0.3174(2)
C12_3 C 0.1051(4) 0.0253(3) 0.2564(3)
H5_3 H 0.1734 0.0448 0.2494
C18_3 C 0.2686(4) 0.2424(4) 0.6381(3)
H9_3 H 0.2039 0.2666 0.6567
H10_3 H 0.3266 0.2743 0.6589
H11_3 H 0.2736 0.1849 0.6560
O13_2 O 0.5188(3) 0.32978(19) 0.5914(2)
O15_2 O 0.6939(2) 0.22522(17) 0.49045(16)
C4_3 C 0.5413(4) 0.8850(2) 0.1078(3)
C5_3 C 0.5205(3) 0.9578(3) 0.1638(3)
H1_3 H 0.3798 0.9933 0.1175
C9_3 C 0.5910(4) 0.9757(3) 0.2239(3)
H4_3 H 0.6524 0.9441 0.2278
C13_3 C 0.0658(3) 0.9634(3) 0.2056(3)
H6_3 H 0.1072 0.9423 0.1644
C14_3 C 0.9640(3) 0.9331(2) 0.2166(3)
C15_3 C 0.9045(3) 0.9636(3) 0.2795(3)
H7_3 H 0.8378 0.9417 0.2886
C17_3 C 0.9177(3) 0.8701(3) 0.1576(3)
O3_4 O 0.0111(3) 0.34693(19) 0.6028(2)
C4_4 C 0.0413(4) 0.6150(2) 0.8922(3)
C5_4 C 0.0205(3) 0.5422(3) 0.8362(3)
C8_4 C 0.0726(4) 0.4603(3) 0.7215(3)
H3_4 H 0.1203 0.4498 0.6805
C9_4 C 0.0910(4) 0.5243(3) 0.7761(3)
H4_4 H 0.1524 0.5559 0.7722
O1_4 O 0.8490(2) 0.28386(17) 0.49014(16)
O2_4 O 0.8879(2) 0.2921(2) 0.68312(18)
O7_4 O 0.6808(2) 0.3546(2) 0.6351(2)
C1_4 C 0.7711(3) 0.2553(2) 0.4525(2)
C2_4 C 0.9599(3) 0.3447(2) 0.6656(3)
C3_4 C 0.9822(3) 0.4119(3) 0.7285(3)
C6_4 C 0.9291(4) 0.4944(3) 0.8431(3)
H1_4 H 0.8798 0.5067 0.8825
C7_4 C 0.9127(3) 0.4277(3) 0.7898(3)
H2_4 H 0.8539 0.3933 0.7957
C10_4 C 0.5853(4) 0.3697(3) 0.6315(3)
C11_4 C 0.5439(3) 0.4417(2) 0.6826(2)
C12_4 C 0.6051(4) 0.4747(3) 0.7436(3)
H5_4 H 0.6734 0.4552 0.7506
C13_4 C 0.5658(3) 0.5366(3) 0.7944(3)
H6_4 H 0.6072 0.5577 0.8356
C14_4 C 0.4640(3) 0.5669(2) 0.7834(3)
C15_4 C 0.4045(3) 0.5364(3) 0.7205(3)
H7_4 H 0.3378 0.5583 0.7114
C16_3 C 0.4437(4) 0.4730(3) 0.6703(3)
H8_3 H 0.4025 0.4519 0.6289
C17_4 C 0.4177(3) 0.6299(3) 0.8424(3)
C18_4 C 0.7686(4) 0.2576(4) 0.3619(3)
H9_4 H 0.7039 0.2334 0.3433
H10_4 H 0.8266 0.2257 0.3411
H11_4 H 0.7736 0.3151 0.3440
C16_4 C 0.9437(4) 0.0270(3) 0.3297(3)
H8_4 H 0.9025 0.0481 0.3711
C20 C 0.3049(6) 0.5096(4) 0.0231(4)
H15 H 0.2624 0.5444 0.0573
H16 H 0.3629 0.5421 0.0032
H17 H 0.3309 0.4622 0.0530
C19 C 0.2945(6) 0.4254(4) 0.8983(4)
H12 H 0.2459 0.4093 0.8571
H13 H 0.3202 0.3756 0.9247
H14 H 0.3523 0.4556 0.8750
N1 N 0.2415(4) 0.4794(3) 0.9560(3)
H18 H 0.18013 0.446296 0.978835
H19 H 0.214124 0.530833 0.92626
C19_2 C 0.7945(6) 0.0746(4) 0.1017(4)
H12_2 H 0.7459 0.0907 0.1429
H13_2 H 0.8202 0.1244 0.0753
H14_2 H 0.8523 0.0444 0.1250
N1_2 N 0.7415(4) 0.0206(3) 0.0440(3)
H18_2 H 0.68013 0.0537044 0.0211646
H17_2 H 0.8309 0.0378 0.9470
H19_2 H 0.714124 0.969167 0.0737399
C20_2 C 0.8049(6) 0.9904(4) 0.9769(4)
H15_2 H 0.7624 0.9556 0.9427
H16_2 H 0.8629 0.9579 0.9968
C20_3 C 0.6951(6) 0.0096(4) 0.4769(4)
H15_3 H 0.7376 0.0444 0.4427
H16_3 H 0.6371 0.0421 0.4968
H19_3 H 0.785876 0.0308329 0.57374
C19_3 C 0.7055(6) 0.9254(4) 0.6017(4)
H12_3 H 0.7541 0.9093 0.6429
H13_3 H 0.6798 0.8756 0.5753
H14_3 H 0.6477 0.9556 0.6250
N1_3 N 0.7585(4) 0.9794(3) 0.5440(3)
H17_3 H 0.6691 0.9622 0.4470
H18_3 H 0.81987 0.946296 0.521165
C19_4 C 0.2055(6) 0.5746(4) 0.3983(4)
H12_4 H 0.2541 0.5907 0.3571
H13_4 H 0.1798 0.6244 0.4247
H14_4 H 0.1477 0.5444 0.3750
N1_4 N 0.2585(4) 0.5206(3) 0.4560(3)
C20_4 C 0.1951(6) 0.4904(4) 0.5231(4)
H15_4 H 0.2376 0.4556 0.5573
H16_4 H 0.1371 0.4579 0.5032
H17_4 H 0.1691 0.5378 0.5530
H18_4 H 0.31987 0.553704 0.478835
H19_4 H 0.285876 0.469167 0.42626
loop_
_geom_bond_atom_site_label_1
_geom_bond_atom_site_label_2
_geom_bond_site_symmetry_1
_geom_bond_site_symmetry_2
O8 C17 1_555 1_555
C15 C14 1_555 1_555
H7 C15 1_555 1_555
H8 C16 1_555 1_555
C17 C14 1_555 1_555
O10 C17 1_555 1_555
Mn4 O10 1_555 1_555
Mn7 O8 1_555 1_555
C15 C16 1_555 1_555
O2 Mn1 1_555 1_555
O3 Mn2 1_555 1_555
O4 C4 1_555 1_555
O5 C4 1_555 1_555
O6 C10 1_555 1_555
O7 Mn1 1_555 1_555
C2 O2 1_555 1_555
C3 C2 1_555 1_555
C4 C5 1_555 1_555
C5 C6 1_555 1_555
C6 H1 1_555 1_555
C7 C3 1_555 1_555
H2 C7 1_555 1_555
C8 C3 1_555 1_555
H3 C8 1_555 1_555
C9 C5 1_555 1_555
H4 C9 1_555 1_555
C10 O7 1_555 1_555
C11 C10 1_555 1_555
C12 C11 1_555 1_555
H5 C12 1_555 1_555
C13 C12 1_555 1_555
H6 C13 1_555 1_555
Mn4 O4 1_555 1_555
Mn6 O5 1_555 1_555
O11 Mn1 1_555 1_555
O12 Mn2 1_555 1_555
O15 Mn2 1_555 1_555
O16 Mn1 1_555 1_555
O3 C2 1_555 1_555
C6 C7 1_555 1_555
C8 C9 1_555 1_555
O1 C1 1_555 1_555
C1 O9 1_555 1_555
C18 C1 1_555 1_555
H9 C18 1_555 1_555
H10 C18 1_555 1_555
H11 C18 1_555 1_555
O9 Mn5 1_555 1_555
O8_2 C17_2 1_555 1_555
H6_2 C13_2 1_555 1_555
C14_2 C13_2 1_555 1_555
C15_2 C14_2 1_555 1_555
H7_2 C15_2 1_555 1_555
C17_2 C14_2 1_555 1_555
O10_2 C17_2 1_555 1_555
Mn4_2 O10_2 1_555 1_555
Mn7 O5_2 1_555 1_555
Mn6 O8_2 1_555 1_555
O1_2 C1_2 1_555 1_555
C1_2 O15 1_555 1_555
C18_2 C1_2 1_555 1_555
H9_2 C18_2 1_555 1_555
H10_2 C18_2 1_555 1_555
H11_2 C18_2 1_555 1_555
O2_2 Mn1_2 1_555 1_555
O13 C10_2 1_555 1_555
O7_2 Mn1_2 1_555 1_555
C2_2 O2_2 1_555 1_555
C3_2 C2_2 1_555 1_555
C7_2 C3_2 1_555 1_555
H2_2 C7_2 1_555 1_555
C10_2 O7_2 1_555 1_555
C11_2 C10_2 1_555 1_555
C12_2 C11_2 1_555 1_555
H5_2 C12_2 1_555 1_555
C16_2 C11_2 1_555 1_555
H8_2 C16_2 1_555 1_555
O11_2 Mn1_2 1_555 1_555
O16_2 Mn1_2 1_555 1_555
C6_2 C7_2 1_555 1_555
O4_2 C4_2 1_555 1_555
C4_2 C5_2 1_555 1_555
C9_2 C5_2 1_555 1_555
H4_2 C9_2 1_555 1_555
Mn4_2 O4_2 1_555 1_555
O3_2 Mn5 1_555 1_555
H3_2 C8_2 1_555 1_555
O12_2 Mn5 1_555 1_555
Mn4 O1_3 1_555 1_555
Mn6 O1_3 1_555 1_555
O1_3 C1_3 1_555 1_555
O2_3 Mn4 1_555 1_555
O3_3 Mn6 1_555 1_555
O6_2 C10_3 1_555 1_555
O7_3 Mn4 1_555 1_555
C1_3 O9_2 1_555 1_555
O9_2 Mn4 1_555 1_555
C2_3 O2_3 1_555 1_555
C3_3 C2_3 1_555 1_555
C7_3 C3_3 1_555 1_555
H2_3 C7_3 1_555 1_555
C8_3 C3_3 1_555 1_555
H3_3 C8_3 1_555 1_555
C10_3 O7_3 1_555 1_555
C11_3 C10_3 1_555 1_555
C12_3 C11_3 1_555 1_555
H5_3 C12_3 1_555 1_555
C18_3 C1_3 1_555 1_555
H9_3 C18_3 1_555 1_555
H10_3 C18_3 1_555 1_555
H11_3 C18_3 1_555 1_555
Mn7 O6_2 1_555 1_555
O13_2 Mn6 1_555 1_555
O15_2 Mn6 1_555 1_555
O3_3 C2_3 1_555 1_555
O9_2 Mn7 1_555 1_555
C6_3 C7_3 1_555 1_555
O11 C4_3 1_555 1_555
O12 C4_3 1_555 1_555
C4_3 C5_3 1_555 1_555
C9_3 C5_3 1_555 1_555
H4_3 C9_3 1_555 1_555
H6_3 C13_3 1_555 1_555
O14_2 C17_3 1_555 1_555
C15_3 C14_3 1_555 1_555
H7_3 C15_3 1_555 1_555
C17_3 C14_3 1_555 1_555
O16 C17_3 1_555 1_555
O3_4 Mn7 1_555 1_555
O11_2 C4_4 1_555 1_555
C4_4 C5_4 1_555 1_555
H3_4 C8_4 1_555 1_555
C9_4 C5_4 1_555 1_555
H4_4 C9_4 1_555 1_555
C8_4 C9_4 1_555 1_555
Mn4_2 O1_4 1_555 1_555
O1_4 C1_4 1_555 1_555
O2_4 Mn4_2 1_555 1_555
O13_2 C10_4 1_555 1_555
O7_4 Mn4_2 1_555 1_555
O14 C17_4 1_555 1_555
C1_4 O15_2 1_555 1_555
O15_2 Mn4_2 1_555 1_555
C2_4 O2_4 1_555 1_555
C3_4 C2_4 1_555 1_555
C6_4 H1_4 1_555 1_555
C7_4 C3_4 1_555 1_555
H2_4 C7_4 1_555 1_555
C10_4 O7_4 1_555 1_555
C11_4 C10_4 1_555 1_555
C12_4 C11_4 1_555 1_555
H5_4 C12_4 1_555 1_555
C13_4 C12_4 1_555 1_555
H6_4 C13_4 1_555 1_555
C14_4 C13_4 1_555 1_555
C15_4 C14_4 1_555 1_555
H7_4 C15_4 1_555 1_555
C16_3 C11_4 1_555 1_555
H8_3 C16_3 1_555 1_555
C17_4 C14_4 1_555 1_555
O16_2 C17_4 1_555 1_555
C18_4 C1_4 1_555 1_555
H9_4 C18_4 1_555 1_555
H10_4 C18_4 1_555 1_555
H11_4 C18_4 1_555 1_555
C6_4 C7_4 1_555 1_555
C15_4 C16_3 1_555 1_555
H8_4 C16_4 1_555 1_555
H15 C20 1_555 1_555
H16 C20 1_555 1_555
H17 C20 1_555 1_555
C19 H12 1_555 1_555
H13 C19 1_555 1_555
H14 C19 1_555 1_555
N1 C19 1_555 1_555
N1 H18 1_555 1_555
N1 H19 1_555 1_555
C19_2 H12_2 1_555 1_555
H13_2 C19_2 1_555 1_555
H14_2 C19_2 1_555 1_555
N1_2 C19_2 1_555 1_555
N1_2 H18_2 1_555 1_555
H15_2 C20_2 1_555 1_555
H16_2 C20_2 1_555 1_555
H15_3 C20_3 1_555 1_555
H16_3 C20_3 1_555 1_555
C19_3 H12_3 1_555 1_555
H13_3 C19_3 1_555 1_555
H14_3 C19_3 1_555 1_555
N1_3 C19_3 1_555 1_555
N1_3 H18_3 1_555 1_555
C19_4 H12_4 1_555 1_555
H13_4 C19_4 1_555 1_555
H14_4 C19_4 1_555 1_555
N1_4 C19_4 1_555 1_555
C20_4 N1_4 1_555 1_555
H15_4 C20_4 1_555 1_555
H16_4 C20_4 1_555 1_555
H17_4 C20_4 1_555 1_555
N1_4 H18_4 1_555 1_555
N1_4 H19_4 1_555 1_555

#END
