
###############################################################################
#
# This file contains modified crystal structure data generated from the
# MOF subset of the Cambridge Structural Database (CSD) v543 
# hosted by the Cambridge Crystallographic Data Centre (CCDC).
#
# This work is licensed under the Creative Commons
# Attribution-NonCommercial-ShareAlike 4.0 International License.
# To view a copy of this license, visit
# http://creativecommons.org/licenses/by-nc-sa/4.0/
# or send a letter to
# Creative Commons, PO Box 1866, Mountain View, CA 94042, USA.
#
# CIF created using the CSD Python API on 29 September 2022
# The structure has been converted into the P1 space group
# The structure has a 3D framework
# The original CSD entry SANLOK is in the trigonal crystal system
# The framework has been calculated to contain at least 10.0% void space
# The void calculation uses a probe of radius 1.32A, grid spacing 0.4
# The framework is charged, counterions have been retained in the structure
#
###############################################################################

data_SANLOK
_chemical_formula_moiety         '(C12 H12 Fe13 O24 3-)n'
_symmetry_cell_setting           triclinic
_symmetry_space_group_name_H-M   'P 1'
_symmetry_Int_Tables_number      1
_space_group_name_Hall           'P 1'
loop_
_symmetry_equiv_pos_site_id
_symmetry_equiv_pos_as_xyz
1 x,y,z
_cell_length_a                   8.2311(2)
_cell_length_b                   8.2311(2)
_cell_length_c                   14.8432(4)
_cell_angle_alpha                90
_cell_angle_beta                 90
_cell_angle_gamma                120
_cell_volume                     870.911
loop_
_atom_site_label
_atom_site_type_symbol
_atom_site_fract_x
_atom_site_fract_y
_atom_site_fract_z
Fe1 Fe 0.0000 0.0000 0.0000
Fe6 Fe 0.3333 0.6666 0.2500
O5 O 0.2184(2) 0.0118(3) 0.08181(12)
O11 O 0.1146(3) 0.4578(4) 0.16892(11)
C5 C 0.1156(4) 0.3267(5) 0.12801(17)
H5 H 0.2239 0.3186 0.1328
Fe1_2 Fe 0.0000 0.0000 1.0000
Fe3 Fe 0.6666 0.3333 0.7500
O3 O 0.2066(4) 0.2184(2) 0.91819(12)
O8 O 0.4578(4) 0.3432(2) 0.83108(11)
C2 C 0.3267(5) 0.2111(3) 0.87199(17)
H2 H 0.3186 0.0947 0.8672
Fe1_3 Fe -0.0000 1.0000 0.0000
O10 O 0.3432(2) 0.8854(3) 0.16892(11)
C4 C 0.2111(3) 0.8844(4) 0.12801(17)
H4 H 0.0947 0.7761 0.1328
Fe1_4 Fe 1.0000 0.0000 1.0000
O2 O 0.6568(2) 0.1146(3) 0.83108(11)
C1 C 0.7889(3) 0.1156(4) 0.87199(17)
H1 H 0.9053 0.2239 0.8672
O13 O 0.8854(3) 0.5422(4) 0.83108(11)
O15 O 0.8854(3) 0.3432(2) 0.66892(11)
O16 O 0.4578(4) 0.1146(3) 0.66892(11)
O17 O 0.6568(2) 0.5422(4) 0.66892(11)
Fe1_5 Fe 1.0000 1.0000 0.0000
O7 O 0.7934(4) 0.7816(2) 0.08181(12)
O12 O 0.5422(4) 0.6568(2) 0.16892(11)
C6 C 0.6733(5) 0.7889(3) 0.12801(17)
H6 H 0.6814 0.9053 0.1328
Fe1_6 Fe 1.0000 1.0000 1.0000
O1 O 0.7816(2) 0.9882(3) 0.91819(12)
C3 C 0.8844(4) 0.6733(5) 0.87199(17)
H3 H 0.7761 0.6814 0.8672
Fe1_7 Fe 0.0000 0.0000 0.5000
O1_2 O 0.0118(3) 0.2184(2) 0.58181(12)
O7_2 O 0.2184(2) 0.2066(4) 0.41819(12)
O12_2 O 0.3432(2) 0.4578(4) 0.33108(11)
C3_2 C 0.3267(5) 0.1156(4) 0.62801(17)
C6_2 C 0.2111(3) 0.3267(5) 0.37199(17)
H3_2 H 0.3186 0.2239 0.6328
H6_2 H 0.0947 0.3186 0.3672
Fe1_8 Fe 0.0000 1.0000 0.5000
O4 O 0.2066(4) 0.9882(3) 0.58181(12)
O10_2 O 0.1146(3) 0.6568(2) 0.33108(11)
C4_2 C 0.1156(4) 0.7889(3) 0.37199(17)
H4_2 H 0.2239 0.9053 0.3672
Fe1_9 Fe 1.0000 0.0000 0.5000
C1_2 C 0.8844(4) 0.2111(3) 0.62801(17)
H1_2 H 0.7761 0.0947 0.6328
O6 O 0.7934(4) 0.0118(3) 0.41819(12)
Fe1_10 Fe 1.0000 1.0000 0.5000
O3_2 O 0.7816(2) 0.7934(4) 0.58181(12)
O5_2 O 0.9882(3) 0.7816(2) 0.41819(12)
O11_2 O 0.5422(4) 0.8854(3) 0.33108(11)
C2_2 C 0.7889(3) 0.6733(5) 0.62801(17)
C5_2 C 0.6733(5) 0.8844(4) 0.37199(17)
H2_2 H 0.9053 0.6814 0.6328
H5_2 H 0.6814 0.7761 0.3672
Fe1_11 Fe 0.0000 1.0000 1.0000
O4_2 O 0.0118(3) 0.7934(4) 0.91819(12)
Fe1_12 Fe 1.0000 0.0000 0.0000
O6_2 O 0.9882(3) 0.2066(4) 0.08181(12)
loop_
_geom_bond_atom_site_label_1
_geom_bond_atom_site_label_2
_geom_bond_site_symmetry_1
_geom_bond_site_symmetry_2
Fe6 O11 1_555 1_555
O5 Fe1 1_555 1_555
O11 C5 1_555 1_555
H5 C5 1_555 1_555
Fe3 O8 1_555 1_555
O3 Fe1_2 1_555 1_555
O8 C2 1_555 1_555
C2 O3 1_555 1_555
H2 C2 1_555 1_555
Fe6 O10 1_555 1_555
O10 C4 1_555 1_555
H4 C4 1_555 1_555
Fe3 O2 1_555 1_555
O2 C1 1_555 1_555
C1 H1 1_555 1_555
O13 Fe3 1_555 1_555
O15 Fe3 1_555 1_555
O16 Fe3 1_555 1_555
O17 Fe3 1_555 1_555
Fe6 O12 1_555 1_555
O7 Fe1_5 1_555 1_555
O12 C6 1_555 1_555
C6 O7 1_555 1_555
H6 C6 1_555 1_555
Fe1_6 O1 1_555 1_555
O13 C3 1_555 1_555
H3 C3 1_555 1_555
Fe1_7 O1_2 1_555 1_555
Fe6 O12_2 1_555 1_555
O7_2 Fe1_7 1_555 1_555
O16 C3_2 1_555 1_555
O12_2 C6_2 1_555 1_555
C6_2 O7_2 1_555 1_555
H3_2 C3_2 1_555 1_555
H6_2 C6_2 1_555 1_555
Fe6 O10_2 1_555 1_555
O4 Fe1_8 1_555 1_555
O10_2 C4_2 1_555 1_555
H4_2 C4_2 1_555 1_555
O15 C1_2 1_555 1_555
C1_2 H1_2 1_555 1_555
O6 Fe1_9 1_555 1_555
Fe6 O11_2 1_555 1_555
O3_2 Fe1_10 1_555 1_555
O5_2 Fe1_10 1_555 1_555
O17 C2_2 1_555 1_555
O11_2 C5_2 1_555 1_555
C2_2 O3_2 1_555 1_555
H2_2 C2_2 1_555 1_555
H5_2 C5_2 1_555 1_555
O4_2 Fe1_11 1_555 1_555
O6_2 Fe1_12 1_555 1_555

#END
