
###############################################################################
#
# This file contains modified crystal structure data generated from the
# MOF subset of the Cambridge Structural Database (CSD) v543 
# hosted by the Cambridge Crystallographic Data Centre (CCDC).
#
# This work is licensed under the Creative Commons
# Attribution-NonCommercial-ShareAlike 4.0 International License.
# To view a copy of this license, visit
# http://creativecommons.org/licenses/by-nc-sa/4.0/
# or send a letter to
# Creative Commons, PO Box 1866, Mountain View, CA 94042, USA.
#
# CIF created using the CSD Python API on 29 September 2022
# The structure has been converted into the P1 space group
# The structure has a 3D framework
# The original CSD entry SANMEB is in the trigonal crystal system
# The framework has been calculated to contain at least 10.0% void space
# The void calculation uses a probe of radius 1.32A, grid spacing 0.4
# The framework is charged, counterions have been retained in the structure
#
###############################################################################

data_SANMEB
_chemical_formula_moiety         '(C12 H12 O24 Zn13 3-)n'
_symmetry_cell_setting           triclinic
_symmetry_space_group_name_H-M   'P 1'
_symmetry_Int_Tables_number      1
_space_group_name_Hall           'P 1'
loop_
_symmetry_equiv_pos_site_id
_symmetry_equiv_pos_as_xyz
1 x,y,z
_cell_length_a                   8.1794(2)
_cell_length_b                   8.1794(2)
_cell_length_c                   14.6957(4)
_cell_angle_alpha                90
_cell_angle_beta                 90
_cell_angle_gamma                120
_cell_volume                     851.459
loop_
_atom_site_label
_atom_site_type_symbol
_atom_site_fract_x
_atom_site_fract_y
_atom_site_fract_z
Zn1 Zn 0.0000 0.0000 0.0000
Zn6 Zn 0.3333 0.6666 0.2500
O6 O 0.2189(3) 0.2075(4) 0.08103(10)
O11 O 0.3438(3) 0.4590(4) 0.16946(10)
C5 C 0.2100(4) 0.3267(5) 0.12845(13)
H5 H 0.0922 0.3170 0.1342
Zn1_2 Zn 0.0000 0.0000 1.0000
O1 O 0.0114(2) 0.2189(3) 0.91897(10)
Zn3 Zn 0.6666 0.3333 0.7500
O8 O 0.4590(4) 0.1152(2) 0.83054(10)
C2 C 0.3267(5) 0.1167(3) 0.87155(13)
H2 H 0.3170 0.2248 0.8658
Zn1_3 Zn 0.0000 1.0000 0.0000
O10 O 0.1152(2) 0.6562(3) 0.16946(10)
C4 C 0.1167(3) 0.7900(4) 0.12845(13)
H4 H 0.2248 0.9078 0.1342
Zn1_4 Zn 1.0000 0.0000 1.0000
O2 O 0.8848(2) 0.3438(3) 0.83054(10)
C1 C 0.8833(3) 0.2100(4) 0.87155(13)
H1 H 0.7752 0.0922 0.8658
O13 O 0.6562(3) 0.5410(4) 0.83054(10)
O15 O 0.6562(3) 0.1152(2) 0.66946(10)
O16 O 0.4590(4) 0.3438(3) 0.66946(10)
O17 O 0.8848(2) 0.5410(4) 0.66946(10)
Zn1_5 Zn 1.0000 1.0000 0.0000
O5 O 0.9886(2) 0.7811(3) 0.08103(10)
O12 O 0.5410(4) 0.8848(2) 0.16946(10)
C6 C 0.6733(5) 0.8833(3) 0.12845(13)
H6 H 0.6830 0.7752 0.1342
Zn1_6 Zn 1.0000 1.0000 1.0000
O4 O 0.7811(3) 0.7925(4) 0.91897(10)
C3 C 0.7900(4) 0.6733(5) 0.87155(13)
H3 H 0.9078 0.6830 0.8658
Zn1_7 Zn 0.0000 0.0000 0.5000
O4_2 O 0.2075(4) 0.2189(3) 0.58103(10)
O5_2 O 0.2189(3) 0.0114(2) 0.41897(10)
O12_2 O 0.1152(2) 0.4590(4) 0.33054(10)
C3_2 C 0.3267(5) 0.2100(4) 0.62845(13)
C6_2 C 0.1167(3) 0.3267(5) 0.37155(13)
H3_2 H 0.3170 0.0922 0.6342
H6_2 H 0.2248 0.3170 0.3658
Zn1_8 Zn 0.0000 1.0000 0.5000
O3 O 0.0114(2) 0.7925(4) 0.58103(10)
O10_2 O 0.3438(3) 0.8848(2) 0.33054(10)
C4_2 C 0.2100(4) 0.8833(3) 0.37155(13)
H4_2 H 0.0922 0.7752 0.3658
Zn1_9 Zn 1.0000 0.0000 0.5000
C1_2 C 0.7900(4) 0.1167(3) 0.62845(13)
H1_2 H 0.9078 0.2248 0.6342
O7 O 0.9886(2) 0.2075(4) 0.41897(10)
Zn1_10 Zn 1.0000 1.0000 0.5000
O1_2 O 0.7811(3) 0.9886(2) 0.58103(10)
O6_2 O 0.7925(4) 0.7811(3) 0.41897(10)
O11_2 O 0.5410(4) 0.6562(3) 0.33054(10)
C2_2 C 0.8833(3) 0.6733(5) 0.62845(13)
C5_2 C 0.6733(5) 0.7900(4) 0.37155(13)
H2_2 H 0.7752 0.6830 0.6342
H5_2 H 0.6830 0.9078 0.3658
Zn1_11 Zn 0.0000 1.0000 1.0000
O3_2 O 0.2075(4) 0.9886(2) 0.91897(10)
Zn1_12 Zn 1.0000 0.0000 0.0000
O7_2 O 0.7925(4) 0.0114(2) 0.08103(10)
loop_
_geom_bond_atom_site_label_1
_geom_bond_atom_site_label_2
_geom_bond_site_symmetry_1
_geom_bond_site_symmetry_2
Zn6 O11 1_555 1_555
O6 Zn1 1_555 1_555
O11 C5 1_555 1_555
C5 O6 1_555 1_555
H5 C5 1_555 1_555
Zn1_2 O1 1_555 1_555
Zn3 O8 1_555 1_555
O8 C2 1_555 1_555
H2 C2 1_555 1_555
Zn6 O10 1_555 1_555
O10 C4 1_555 1_555
H4 C4 1_555 1_555
Zn3 O2 1_555 1_555
O2 C1 1_555 1_555
C1 H1 1_555 1_555
O13 Zn3 1_555 1_555
O15 Zn3 1_555 1_555
O16 Zn3 1_555 1_555
O17 Zn3 1_555 1_555
Zn6 O12 1_555 1_555
O5 Zn1_5 1_555 1_555
O12 C6 1_555 1_555
H6 C6 1_555 1_555
O4 Zn1_6 1_555 1_555
O13 C3 1_555 1_555
C3 O4 1_555 1_555
H3 C3 1_555 1_555
Zn6 O12_2 1_555 1_555
O4_2 Zn1_7 1_555 1_555
O5_2 Zn1_7 1_555 1_555
O16 C3_2 1_555 1_555
O12_2 C6_2 1_555 1_555
C3_2 O4_2 1_555 1_555
H3_2 C3_2 1_555 1_555
H6_2 C6_2 1_555 1_555
Zn6 O10_2 1_555 1_555
O3 Zn1_8 1_555 1_555
O10_2 C4_2 1_555 1_555
H4_2 C4_2 1_555 1_555
O15 C1_2 1_555 1_555
C1_2 H1_2 1_555 1_555
O7 Zn1_9 1_555 1_555
Zn1_10 O1_2 1_555 1_555
Zn6 O11_2 1_555 1_555
O6_2 Zn1_10 1_555 1_555
O17 C2_2 1_555 1_555
O11_2 C5_2 1_555 1_555
C5_2 O6_2 1_555 1_555
H2_2 C2_2 1_555 1_555
H5_2 C5_2 1_555 1_555
O3_2 Zn1_11 1_555 1_555
O7_2 Zn1_12 1_555 1_555

#END
