
###############################################################################
#
# This file contains modified crystal structure data generated from the
# MOF subset of the Cambridge Structural Database (CSD) v543 
# hosted by the Cambridge Crystallographic Data Centre (CCDC).
#
# This work is licensed under the Creative Commons
# Attribution-NonCommercial-ShareAlike 4.0 International License.
# To view a copy of this license, visit
# http://creativecommons.org/licenses/by-nc-sa/4.0/
# or send a letter to
# Creative Commons, PO Box 1866, Mountain View, CA 94042, USA.
#
# CIF created using the CSD Python API on 29 September 2022
# The structure has been converted into the P1 space group
# The structure has a 3D framework
# The original CSD entry SAPBIW is in the cubic crystal system
# The framework has been calculated to contain at least 10.0% void space
# The void calculation uses a probe of radius 1.32A, grid spacing 0.4
# The framework is charged, counterions have been retained in the structure
#
###############################################################################

data_SAPBIW
_chemical_formula_moiety         '(C2496 H1536 N480 O648 Zn192 72-)n'
_symmetry_cell_setting           triclinic
_symmetry_space_group_name_H-M   'P 1'
_symmetry_Int_Tables_number      1
_space_group_name_Hall           'P 1'
loop_
_symmetry_equiv_pos_site_id
_symmetry_equiv_pos_as_xyz
1 x,y,z
_cell_length_a                   69.12(2)
_cell_length_b                   69.12(2)
_cell_length_c                   69.12(2)
_cell_angle_alpha                90
_cell_angle_beta                 90
_cell_angle_gamma                90
_cell_volume                     330226
loop_
_atom_site_label
_atom_site_type_symbol
_atom_site_fract_x
_atom_site_fract_y
_atom_site_fract_z
Zn1 Zn 0.48946(2) 0.22986(2) 0.18967(2)
Zn2 Zn 0.436884(18) 0.224604(18) 0.12422(2)
N1 N 0.45012(12) 0.24370(14) 0.14342(14)
C1 C 0.45954(14) 0.23611(17) 0.15833(16)
H1 H 0.4566 0.2233 0.1613
N2 N 0.47283(12) 0.24486(13) 0.16962(12)
C2 C 0.47555(16) 0.26318(16) 0.16400(18)
C3 C 0.46633(16) 0.27318(17) 0.14825(18)
C4 C 0.45317(19) 0.26317(19) 0.13844(19)
N3 N 0.47379(13) 0.29166(12) 0.14588(15)
C5 C 0.48642(17) 0.29169(18) 0.16084(17)
H2 H 0.4937 0.3027 0.1636
N4 N 0.48835(13) 0.27558(14) 0.17179(14)
N5 N 0.44332(13) 0.27191(12) 0.12346(15)
H3 H 0.4457 0.2838 0.1205
H4 H 0.4348 0.2655 0.1171
O1 O 0.5000 0.2500 0.20618(13)
C6 C 0.4709(2) 0.1973(2) 0.1955(2)
O2 O 0.47684(16) 0.21104(14) 0.20520(17)
O3 O 0.47244(17) 0.19581(15) 0.17792(16)
C7 C 0.45977(17) 0.18176(18) 0.2061(2)
C8 C 0.4512(2) 0.16717(18) 0.19656(19)
H5 H 0.4518 0.1668 0.1831
C9 C 0.4412(2) 0.15233(19) 0.20649(18)
H6 H 0.4356 0.1422 0.1995
C10 C 0.4395(2) 0.15267(18) 0.22581(19)
C11 C 0.4471(3) 0.1681(2) 0.2348(2)
H7 H 0.4447 0.1697 0.2480
C12 C 0.4584(3) 0.1821(2) 0.2254(2)
H8 H 0.4649 0.1916 0.2325
C13 C 0.3988(2) 0.0930(2) 0.2678(2)
O4 O 0.38807(12) 0.08232(10) 0.25832(11)
O5 O 0.3996(2) 0.09167(18) 0.28525(14)
C14 C 0.40962(17) 0.10843(17) 0.25668(19)
C15 C 0.4099(2) 0.10877(18) 0.23774(18)
H9 H 0.4034 0.0992 0.2308
C16 C 0.4198(2) 0.1235(2) 0.22766(19)
H10 H 0.4200 0.1232 0.2142
C17 C 0.4290(2) 0.13786(18) 0.2366(2)
C18 C 0.4296(3) 0.1369(2) 0.2560(2)
H11 H 0.4371 0.1456 0.2630
C19 C 0.4191(3) 0.1228(2) 0.2656(2)
H12 H 0.4185 0.1233 0.2791
C20 C 0.4252(2) 0.1952(2) 0.1457(2)
O6 O 0.43832(11) 0.19874(11) 0.13372(14)
O7 O 0.41450(14) 0.20772(12) 0.15138(18)
C21 C 0.42114(16) 0.17411(17) 0.15106(15)
C22 C 0.40605(19) 0.16913(18) 0.16246(18)
H13 H 0.3982 0.1788 0.1676
C23 C 0.40208(19) 0.14982(18) 0.1666(2)
H14 H 0.3915 0.1466 0.1743
C24 C 0.41367(18) 0.13582(16) 0.15948(17)
C25 C 0.42890(17) 0.14068(18) 0.14821(17)
H15 H 0.4369 0.1310 0.1434
C26 C 0.43270(17) 0.16000(16) 0.14380(18)
H16 H 0.4431 0.1632 0.1359
Zn3 Zn 0.51054(2) 0.27014(2) 0.18967(2)
Zn4 Zn 0.27014(2) 0.31033(2) 0.01054(2)
Zn5 Zn 0.563116(18) 0.275396(18) 0.12422(2)
Zn6 Zn 0.474604(18) 0.313116(18) 0.12578(2)
Zn7 Zn 0.37578(2) 0.063116(18) 0.275396(18)
Zn8 Zn 0.37422(2) 0.025396(18) 0.186884(18)
Zn9 Zn 0.525396(18) 0.186884(18) 0.12578(2)
N6 N 0.54988(12) 0.25630(14) 0.14342(14)
C27 C 0.54046(14) 0.26389(17) 0.15833(16)
H17 H 0.5434 0.2767 0.1613
N7 N 0.52717(12) 0.25514(13) 0.16962(12)
C28 C 0.52445(16) 0.23682(16) 0.16400(18)
C29 C 0.53367(16) 0.22682(17) 0.14825(18)
C30 C 0.54683(19) 0.23683(19) 0.13844(19)
N8 N 0.52621(13) 0.20834(12) 0.14588(15)
N9 N 0.45834(12) 0.22379(13) 0.10412(15)
N10 N 0.54166(12) 0.27621(13) 0.10412(15)
C31 C 0.51358(17) 0.20831(18) 0.16084(17)
H18 H 0.5063 0.1973 0.1636
N11 N 0.51165(13) 0.22442(14) 0.17179(14)
N12 N 0.55668(13) 0.22809(12) 0.12346(15)
H19 H 0.5543 0.2162 0.1205
H20 H 0.5652 0.2345 0.1171
C32 C 0.3027(2) 0.3045(2) 0.0291(2)
O8 O 0.28896(14) 0.29480(17) 0.02316(16)
O9 O 0.52316(16) 0.28896(14) 0.20520(17)
O10 O 0.30419(15) 0.32208(16) 0.02756(17)
C33 C 0.31824(18) 0.2939(2) 0.04023(17)
C34 C 0.33283(18) 0.30344(19) 0.0488(2)
H21 H 0.3332 0.3169 0.0482
C35 C 0.34767(19) 0.29351(18) 0.0588(2)
H22 H 0.3578 0.3005 0.0644
C36 C 0.34733(18) 0.27419(19) 0.0605(2)
C37 C 0.3319(2) 0.2652(2) 0.0529(3)
H23 H 0.3303 0.2520 0.0553
C38 C 0.3179(2) 0.2746(2) 0.0416(3)
H24 H 0.3084 0.2675 0.0351
C39 C 0.4070(2) 0.2322(2) 0.1012(2)
O11 O 0.41768(10) 0.24168(11) 0.11193(12)
O12 O 0.58232(10) 0.25832(11) 0.11193(12)
O13 O 0.40833(18) 0.21475(14) 0.1004(2)
C40 C 0.39157(17) 0.24332(19) 0.09038(17)
C41 C 0.39123(18) 0.26226(18) 0.0901(2)
H25 H 0.4008 0.2692 0.0966
C42 C 0.3765(2) 0.27234(19) 0.0802(2)
H26 H 0.3768 0.2858 0.0800
C43 C 0.36214(18) 0.2634(2) 0.0710(2)
C44 C 0.3631(2) 0.2440(2) 0.0704(3)
H27 H 0.3544 0.2370 0.0629
C45 C 0.3772(2) 0.2344(2) 0.0809(3)
H28 H 0.3767 0.2209 0.0815
C46 C 0.3957(2) 0.0548(2) 0.1752(2)
O14 O 0.38372(14) 0.05126(11) 0.18832(11)
O15 O 0.56168(11) 0.30126(11) 0.13372(14)
O16 O 0.40138(18) 0.04228(12) 0.16450(14)
C47 C 0.40106(15) 0.07589(17) 0.17114(16)
C48 C 0.41246(18) 0.08087(18) 0.15605(19)
H29 H 0.4176 0.0712 0.1482
C49 C 0.4166(2) 0.10018(18) 0.15208(19)
H30 H 0.4243 0.1034 0.1415
C50 C 0.40948(17) 0.11418(16) 0.16367(18)
C51 C 0.39821(17) 0.10932(18) 0.17890(17)
H31 H 0.3934 0.1190 0.1869
C52 C 0.39380(18) 0.09000(16) 0.18270(17)
H32 H 0.3859 0.0868 0.1931
Zn1_2 Zn 0.01054(2) 0.77014(2) 0.68967(2)
Zn2_2 Zn 0.063116(18) 0.775396(18) 0.62422(2)
N1_2 N 0.04988(12) 0.75630(14) 0.64342(14)
C1_2 C 0.04046(14) 0.76389(17) 0.65833(16)
H1_2 H 0.0434 0.7767 0.6613
N2_2 N 0.02717(12) 0.75514(13) 0.66962(12)
C2_2 C 0.02445(16) 0.73682(16) 0.66400(18)
C3_2 C 0.03367(16) 0.72682(17) 0.64825(18)
C4_2 C 0.04683(19) 0.73683(19) 0.63844(19)
N3_2 N 0.02621(13) 0.70834(12) 0.64588(15)
C5_2 C 0.01358(17) 0.70831(18) 0.66084(17)
H2_2 H 0.0063 0.6973 0.6636
N4_2 N 0.01165(13) 0.72442(14) 0.67179(14)
N5_2 N 0.05668(13) 0.72809(12) 0.62346(15)
H3_2 H 0.0543 0.7162 0.6205
H4_2 H 0.0652 0.7345 0.6171
O1_2 O -0.0000 0.7500 0.70618(13)
C6_2 C 0.0291(2) 0.8027(2) 0.6955(2)
O2_2 O 0.02316(16) 0.78896(14) 0.70520(17)
O3_2 O 0.02756(17) 0.80419(15) 0.67792(16)
C7_2 C 0.04023(17) 0.81824(18) 0.7061(2)
C8_2 C 0.0488(2) 0.83283(18) 0.69656(19)
H5_2 H 0.0482 0.8332 0.6831
C9_2 C 0.0588(2) 0.84767(19) 0.70649(18)
H6_2 H 0.0644 0.8578 0.6995
C10_2 C 0.0605(2) 0.84733(18) 0.72581(19)
C11_2 C 0.0529(3) 0.8319(2) 0.7348(2)
H7_2 H 0.0553 0.8303 0.7480
C12_2 C 0.0416(3) 0.8179(2) 0.7254(2)
H8_2 H 0.0351 0.8084 0.7325
C13_2 C 0.1012(2) 0.9070(2) 0.7678(2)
O4_2 O 0.11193(12) 0.91768(10) 0.75832(11)
O5_2 O 0.1004(2) 0.90833(18) 0.78525(14)
C14_2 C 0.09038(17) 0.89157(17) 0.75668(19)
C15_2 C 0.0901(2) 0.89123(18) 0.73774(18)
H9_2 H 0.0966 0.9008 0.7308
C16_2 C 0.0802(2) 0.8765(2) 0.72766(19)
H10_2 H 0.0800 0.8768 0.7142
C17_2 C 0.0710(2) 0.86214(18) 0.7366(2)
C18_2 C 0.0704(3) 0.8631(2) 0.7560(2)
H11_2 H 0.0629 0.8544 0.7630
C19_2 C 0.0809(3) 0.8772(2) 0.7656(2)
H12_2 H 0.0815 0.8767 0.7791
C20_2 C 0.0748(2) 0.8048(2) 0.6457(2)
O6_2 O 0.06168(11) 0.80126(11) 0.63372(14)
O7_2 O 0.08550(14) 0.79228(12) 0.65138(18)
C21_2 C 0.07886(16) 0.82589(17) 0.65106(15)
C22_2 C 0.09395(19) 0.83087(18) 0.66246(18)
H13_2 H 0.1018 0.8212 0.6676
C23_2 C 0.09792(19) 0.85018(18) 0.6666(2)
H14_2 H 0.1085 0.8534 0.6743
C24_2 C 0.08633(18) 0.86418(16) 0.65948(17)
C25_2 C 0.07110(17) 0.85932(18) 0.64821(17)
H15_2 H 0.0631 0.8690 0.6434
C26_2 C 0.06730(17) 0.84000(16) 0.64380(18)
H16_2 H 0.0569 0.8368 0.6359
Zn4_2 Zn 0.22986(2) 0.68967(2) 0.51054(2)
Zn6_2 Zn 0.025396(18) 0.686884(18) 0.62578(2)
Zn7_2 Zn 0.12422(2) 0.936884(18) 0.775396(18)
Zn8_2 Zn 0.12578(2) 0.974604(18) 0.686884(18)
N9_2 N 0.04166(12) 0.77621(13) 0.60412(15)
C32_2 C 0.1973(2) 0.6955(2) 0.5291(2)
O8_2 O 0.21104(14) 0.70520(17) 0.52316(16)
O10_2 O 0.19581(15) 0.67792(16) 0.52756(17)
C33_2 C 0.18176(18) 0.7061(2) 0.54023(17)
C34_2 C 0.16717(18) 0.69656(19) 0.5488(2)
H21_2 H 0.1668 0.6831 0.5482
C35_2 C 0.15233(19) 0.70649(18) 0.5588(2)
H22_2 H 0.1422 0.6995 0.5644
C36_2 C 0.15267(18) 0.72581(19) 0.5605(2)
C37_2 C 0.1681(2) 0.7348(2) 0.5529(3)
H23_2 H 0.1697 0.7480 0.5553
C38_2 C 0.1821(2) 0.7254(2) 0.5416(3)
H24_2 H 0.1916 0.7325 0.5351
C39_2 C 0.0930(2) 0.7678(2) 0.6012(2)
O11_2 O 0.08232(10) 0.75832(11) 0.61193(12)
O13_2 O 0.09167(18) 0.78525(14) 0.6004(2)
C40_2 C 0.10843(17) 0.75668(19) 0.59038(17)
C41_2 C 0.10877(18) 0.73774(18) 0.5901(2)
H25_2 H 0.0992 0.7308 0.5966
C42_2 C 0.1235(2) 0.72766(19) 0.5802(2)
H26_2 H 0.1232 0.7142 0.5800
C43_2 C 0.13786(18) 0.7366(2) 0.5710(2)
C44_2 C 0.1369(2) 0.7560(2) 0.5704(3)
H27_2 H 0.1456 0.7630 0.5629
C45_2 C 0.1228(2) 0.7656(2) 0.5809(3)
H28_2 H 0.1233 0.7791 0.5815
C46_2 C 0.1043(2) 0.9452(2) 0.6752(2)
O14_2 O 0.11628(14) 0.94874(11) 0.68832(11)
O16_2 O 0.09862(18) 0.95772(12) 0.66450(14)
C47_2 C 0.09894(15) 0.92411(17) 0.67114(16)
C48_2 C 0.08754(18) 0.91913(18) 0.65605(19)
H29_2 H 0.0824 0.9288 0.6482
C49_2 C 0.0834(2) 0.89982(18) 0.65208(19)
H30_2 H 0.0757 0.8966 0.6415
C50_2 C 0.09052(17) 0.88582(16) 0.66367(18)
C51_2 C 0.10179(17) 0.89068(18) 0.67890(17)
H31_2 H 0.1066 0.8810 0.6869
C52_2 C 0.10620(18) 0.91000(16) 0.68270(17)
H32_2 H 0.1141 0.9132 0.6931
O1_3 O 1.0000 0.7500 0.70618(13)
Zn3_2 Zn 0.98946(2) 0.72986(2) 0.68967(2)
Zn5_2 Zn 0.936884(18) 0.724604(18) 0.62422(2)
Zn9_2 Zn 0.974604(18) 0.813116(18) 0.62578(2)
N6_2 N 0.95012(12) 0.74370(14) 0.64342(14)
C27_2 C 0.95954(14) 0.73611(17) 0.65833(16)
H17_2 H 0.9566 0.7233 0.6613
N7_2 N 0.97283(12) 0.74486(13) 0.66962(12)
C28_2 C 0.97555(16) 0.76318(16) 0.66400(18)
C29_2 C 0.96633(16) 0.77318(17) 0.64825(18)
C30_2 C 0.95317(19) 0.76317(19) 0.63844(19)
N8_2 N 0.97379(13) 0.79166(12) 0.64588(15)
N10_2 N 0.95834(12) 0.72379(13) 0.60412(15)
C31_2 C 0.98642(17) 0.79169(18) 0.66084(17)
H18_2 H 0.9937 0.8027 0.6636
N11_2 N 0.98835(13) 0.77558(14) 0.67179(14)
N12_2 N 0.94332(13) 0.77191(12) 0.62346(15)
H19_2 H 0.9457 0.7838 0.6205
H20_2 H 0.9348 0.7655 0.6171
O9_2 O 0.97684(16) 0.71104(14) 0.70520(17)
O12_2 O 0.91768(10) 0.74168(11) 0.61193(12)
O15_2 O 0.93832(11) 0.69874(11) 0.63372(14)
Zn1_3 Zn 0.51054(2) 0.72986(2) 0.31033(2)
Zn2_3 Zn 0.563116(18) 0.724604(18) 0.37578(2)
N1_3 N 0.54988(12) 0.74370(14) 0.35658(14)
C1_3 C 0.54046(14) 0.73611(17) 0.34167(16)
H1_3 H 0.5434 0.7233 0.3387
N2_3 N 0.52717(12) 0.74486(13) 0.33038(12)
C2_3 C 0.52445(16) 0.76318(16) 0.33600(18)
C3_3 C 0.53367(16) 0.77318(17) 0.35175(18)
C4_3 C 0.54683(19) 0.76317(19) 0.36156(19)
N3_3 N 0.52621(13) 0.79166(12) 0.35412(15)
C5_3 C 0.51358(17) 0.79169(18) 0.33916(17)
H2_3 H 0.5063 0.8027 0.3364
N4_3 N 0.51165(13) 0.77558(14) 0.32821(14)
N5_3 N 0.55668(13) 0.77191(12) 0.37654(15)
H3_3 H 0.5543 0.7838 0.3795
H4_3 H 0.5652 0.7655 0.3829
O1_4 O 0.5000 0.7500 0.29382(13)
C6_3 C 0.5291(2) 0.6973(2) 0.3045(2)
O2_3 O 0.52316(16) 0.71104(14) 0.29480(17)
O3_3 O 0.52756(17) 0.69581(15) 0.32208(16)
C7_3 C 0.54023(17) 0.68176(18) 0.2939(2)
C8_3 C 0.5488(2) 0.66717(18) 0.30344(19)
H5_3 H 0.5482 0.6668 0.3169
C9_3 C 0.5588(2) 0.65233(19) 0.29351(18)
H6_3 H 0.5644 0.6422 0.3005
C10_3 C 0.5605(2) 0.65267(18) 0.27419(19)
C11_3 C 0.5529(3) 0.6681(2) 0.2652(2)
H7_3 H 0.5553 0.6697 0.2520
C12_3 C 0.5416(3) 0.6821(2) 0.2746(2)
H8_3 H 0.5351 0.6916 0.2675
C13_3 C 0.6012(2) 0.5930(2) 0.2322(2)
O4_3 O 0.61193(12) 0.58232(10) 0.24168(11)
O5_3 O 0.6004(2) 0.59167(18) 0.21475(14)
C14_3 C 0.59038(17) 0.60843(17) 0.24332(19)
C15_3 C 0.5901(2) 0.60877(18) 0.26226(18)
H9_3 H 0.5966 0.5992 0.2692
C16_3 C 0.5802(2) 0.6235(2) 0.27234(19)
H10_3 H 0.5800 0.6232 0.2858
C17_3 C 0.5710(2) 0.63786(18) 0.2634(2)
C18_3 C 0.5704(3) 0.6369(2) 0.2440(2)
H11_3 H 0.5629 0.6456 0.2370
C19_3 C 0.5809(3) 0.6228(2) 0.2344(2)
H12_3 H 0.5815 0.6233 0.2209
C20_3 C 0.5748(2) 0.6952(2) 0.3543(2)
O6_3 O 0.56168(11) 0.69874(11) 0.36628(14)
O7_3 O 0.58550(14) 0.70772(12) 0.34862(18)
C21_3 C 0.57886(16) 0.67411(17) 0.34894(15)
C22_3 C 0.59395(19) 0.66913(18) 0.33754(18)
H13_3 H 0.6018 0.6788 0.3324
C23_3 C 0.59792(19) 0.64982(18) 0.3334(2)
H14_3 H 0.6085 0.6466 0.3257
C24_3 C 0.58633(18) 0.63582(16) 0.34052(17)
C25_3 C 0.57110(17) 0.64068(18) 0.35179(17)
H15_3 H 0.5631 0.6310 0.3566
C26_3 C 0.56730(17) 0.66000(16) 0.35620(18)
H16_3 H 0.5569 0.6632 0.3641
Zn3_3 Zn 0.48946(2) 0.77014(2) 0.31033(2)
Zn4_3 Zn 0.72986(2) 0.81033(2) 0.48946(2)
Zn5_3 Zn 0.436884(18) 0.775396(18) 0.37578(2)
Zn6_3 Zn 0.525396(18) 0.813116(18) 0.37422(2)
Zn7_3 Zn 0.62422(2) 0.563116(18) 0.224604(18)
Zn8_3 Zn 0.62578(2) 0.525396(18) 0.313116(18)
Zn9_3 Zn 0.474604(18) 0.686884(18) 0.37422(2)
N6_3 N 0.45012(12) 0.75630(14) 0.35658(14)
C27_3 C 0.45954(14) 0.76389(17) 0.34167(16)
H17_3 H 0.4566 0.7767 0.3387
N7_3 N 0.47283(12) 0.75514(13) 0.33038(12)
C28_3 C 0.47555(16) 0.73682(16) 0.33600(18)
C29_3 C 0.46633(16) 0.72682(17) 0.35175(18)
C30_3 C 0.45317(19) 0.73683(19) 0.36156(19)
N8_3 N 0.47379(13) 0.70834(12) 0.35412(15)
N9_3 N 0.54166(12) 0.72379(13) 0.39588(15)
N10_3 N 0.45834(12) 0.77621(13) 0.39588(15)
C31_3 C 0.48642(17) 0.70831(18) 0.33916(17)
H18_3 H 0.4937 0.6973 0.3364
N11_3 N 0.48835(13) 0.72442(14) 0.32821(14)
N12_3 N 0.44332(13) 0.72809(12) 0.37654(15)
H19_3 H 0.4457 0.7162 0.3795
H20_3 H 0.4348 0.7345 0.3829
C32_3 C 0.6973(2) 0.8045(2) 0.4709(2)
O8_3 O 0.71104(14) 0.79480(17) 0.47684(16)
O9_3 O 0.47684(16) 0.78896(14) 0.29480(17)
O10_3 O 0.69581(15) 0.82208(16) 0.47244(17)
C33_3 C 0.68176(18) 0.7939(2) 0.45977(17)
C34_3 C 0.66717(18) 0.80344(19) 0.4512(2)
H21_3 H 0.6668 0.8169 0.4518
C35_3 C 0.65233(19) 0.79351(18) 0.4412(2)
H22_3 H 0.6422 0.8005 0.4356
C36_3 C 0.65267(18) 0.77419(19) 0.4395(2)
C37_3 C 0.6681(2) 0.7652(2) 0.4471(3)
H23_3 H 0.6697 0.7520 0.4447
C38_3 C 0.6821(2) 0.7746(2) 0.4584(3)
H24_3 H 0.6916 0.7675 0.4649
C39_3 C 0.5930(2) 0.7322(2) 0.3988(2)
O11_3 O 0.58232(10) 0.74168(11) 0.38807(12)
O12_3 O 0.41768(10) 0.75832(11) 0.38807(12)
O13_3 O 0.59167(18) 0.71475(14) 0.3996(2)
C40_3 C 0.60843(17) 0.74332(19) 0.40962(17)
C41_3 C 0.60877(18) 0.76226(18) 0.4099(2)
H25_3 H 0.5992 0.7692 0.4034
C42_3 C 0.6235(2) 0.77234(19) 0.4198(2)
H26_3 H 0.6232 0.7858 0.4200
C43_3 C 0.63786(18) 0.7634(2) 0.4290(2)
C44_3 C 0.6369(2) 0.7440(2) 0.4296(3)
H27_3 H 0.6456 0.7370 0.4371
C45_3 C 0.6228(2) 0.7344(2) 0.4191(3)
H28_3 H 0.6233 0.7209 0.4185
C46_3 C 0.6043(2) 0.5548(2) 0.3248(2)
O14_3 O 0.61628(14) 0.55126(11) 0.31168(11)
O15_3 O 0.43832(11) 0.80126(11) 0.36628(14)
O16_3 O 0.59862(18) 0.54228(12) 0.33550(14)
C47_3 C 0.59894(15) 0.57589(17) 0.32886(16)
C48_3 C 0.58754(18) 0.58087(18) 0.34395(19)
H29_3 H 0.5824 0.5712 0.3518
C49_3 C 0.5834(2) 0.60018(18) 0.34792(19)
H30_3 H 0.5757 0.6034 0.3585
C50_3 C 0.59052(17) 0.61418(16) 0.33633(18)
C51_3 C 0.60179(17) 0.60932(18) 0.32110(17)
H31_3 H 0.6066 0.6190 0.3131
C52_3 C 0.60620(18) 0.59000(16) 0.31730(17)
H32_3 H 0.6141 0.5868 0.3069
O1_5 O 0.0000 0.2500 0.79382(13)
Zn3_4 Zn 0.01054(2) 0.22986(2) 0.81033(2)
Zn5_4 Zn 0.063116(18) 0.224604(18) 0.87578(2)
Zn9_4 Zn 0.025396(18) 0.313116(18) 0.87422(2)
N6_4 N 0.04988(12) 0.24370(14) 0.85658(14)
C27_4 C 0.04046(14) 0.23611(17) 0.84167(16)
H17_4 H 0.0434 0.2233 0.8387
N7_4 N 0.02717(12) 0.24486(13) 0.83038(12)
C28_4 C 0.02445(16) 0.26318(16) 0.83600(18)
C29_4 C 0.03367(16) 0.27318(17) 0.85175(18)
C30_4 C 0.04683(19) 0.26317(19) 0.86156(19)
N8_4 N 0.02621(13) 0.29166(12) 0.85412(15)
N10_4 N 0.04166(12) 0.22379(13) 0.89588(15)
C31_4 C 0.01358(17) 0.29169(18) 0.83916(17)
H18_4 H 0.0063 0.3027 0.8364
N11_4 N 0.01165(13) 0.27558(14) 0.82821(14)
N12_4 N 0.05668(13) 0.27191(12) 0.87654(15)
H19_4 H 0.0543 0.2838 0.8795
H20_4 H 0.0652 0.2655 0.8829
O9_4 O 0.02316(16) 0.21104(14) 0.79480(17)
O12_4 O 0.08232(10) 0.24168(11) 0.88807(12)
O15_4 O 0.06168(11) 0.19874(11) 0.86628(14)
Zn1_4 Zn 0.98946(2) 0.27014(2) 0.81033(2)
Zn2_4 Zn 0.936884(18) 0.275396(18) 0.87578(2)
N1_4 N 0.95012(12) 0.25630(14) 0.85658(14)
C1_4 C 0.95954(14) 0.26389(17) 0.84167(16)
H1_4 H 0.9566 0.2767 0.8387
N2_4 N 0.97283(12) 0.25514(13) 0.83038(12)
C2_4 C 0.97555(16) 0.23682(16) 0.83600(18)
C3_4 C 0.96633(16) 0.22682(17) 0.85175(18)
C4_4 C 0.95317(19) 0.23683(19) 0.86156(19)
N3_4 N 0.97379(13) 0.20834(12) 0.85412(15)
C5_4 C 0.98642(17) 0.20831(18) 0.83916(17)
H2_4 H 0.9937 0.1973 0.8364
N4_4 N 0.98835(13) 0.22442(14) 0.82821(14)
N5_4 N 0.94332(13) 0.22809(12) 0.87654(15)
H3_4 H 0.9457 0.2162 0.8795
H4_4 H 0.9348 0.2345 0.8829
O1_6 O 1.0000 0.2500 0.79382(13)
C6_4 C 0.9709(2) 0.3027(2) 0.8045(2)
O2_4 O 0.97684(16) 0.28896(14) 0.79480(17)
O3_4 O 0.97244(17) 0.30419(15) 0.82208(16)
C7_4 C 0.95977(17) 0.31824(18) 0.7939(2)
C8_4 C 0.9512(2) 0.33283(18) 0.80344(19)
H5_4 H 0.9518 0.3332 0.8169
C9_4 C 0.9412(2) 0.34767(19) 0.79351(18)
H6_4 H 0.9356 0.3578 0.8005
C10_4 C 0.9395(2) 0.34733(18) 0.77419(19)
C11_4 C 0.9471(3) 0.3319(2) 0.7652(2)
H7_4 H 0.9447 0.3303 0.7520
C12_4 C 0.9584(3) 0.3179(2) 0.7746(2)
H8_4 H 0.9649 0.3084 0.7675
C13_4 C 0.8988(2) 0.4070(2) 0.7322(2)
O4_4 O 0.88807(12) 0.41768(10) 0.74168(11)
O5_4 O 0.8996(2) 0.40833(18) 0.71475(14)
C14_4 C 0.90962(17) 0.39157(17) 0.74332(19)
C15_4 C 0.9099(2) 0.39123(18) 0.76226(18)
H9_4 H 0.9034 0.4008 0.7692
C16_4 C 0.9198(2) 0.3765(2) 0.77234(19)
H10_4 H 0.9200 0.3768 0.7858
C17_4 C 0.9290(2) 0.36214(18) 0.7634(2)
C18_4 C 0.9296(3) 0.3631(2) 0.7440(2)
H11_4 H 0.9371 0.3544 0.7370
C19_4 C 0.9191(3) 0.3772(2) 0.7344(2)
H12_4 H 0.9185 0.3767 0.7209
C20_4 C 0.9252(2) 0.3048(2) 0.8543(2)
O6_4 O 0.93832(11) 0.30126(11) 0.86628(14)
O7_4 O 0.91450(14) 0.29228(12) 0.84862(18)
C21_4 C 0.92114(16) 0.32589(17) 0.84894(15)
C22_4 C 0.90605(19) 0.33087(18) 0.83754(18)
H13_4 H 0.8982 0.3212 0.8324
C23_4 C 0.90208(19) 0.35018(18) 0.8334(2)
H14_4 H 0.8915 0.3534 0.8257
C24_4 C 0.91367(18) 0.36418(16) 0.84052(17)
C25_4 C 0.92890(17) 0.35932(18) 0.85179(17)
H15_4 H 0.9369 0.3690 0.8566
C26_4 C 0.93270(17) 0.34000(16) 0.85620(18)
H16_4 H 0.9431 0.3368 0.8641
Zn4_4 Zn 0.77014(2) 0.18967(2) 0.98946(2)
Zn6_4 Zn 0.974604(18) 0.186884(18) 0.87422(2)
Zn7_4 Zn 0.87578(2) 0.436884(18) 0.724604(18)
Zn8_4 Zn 0.87422(2) 0.474604(18) 0.813116(18)
N9_4 N 0.95834(12) 0.27621(13) 0.89588(15)
C32_4 C 0.8027(2) 0.1955(2) 0.9709(2)
O8_4 O 0.78896(14) 0.20520(17) 0.97684(16)
O10_4 O 0.80419(15) 0.17792(16) 0.97244(17)
C33_4 C 0.81824(18) 0.2061(2) 0.95977(17)
C34_4 C 0.83283(18) 0.19656(19) 0.9512(2)
H21_4 H 0.8332 0.1831 0.9518
C35_4 C 0.84767(19) 0.20649(18) 0.9412(2)
H22_4 H 0.8578 0.1995 0.9356
C36_4 C 0.84733(18) 0.22581(19) 0.9395(2)
C37_4 C 0.8319(2) 0.2348(2) 0.9471(3)
H23_4 H 0.8303 0.2480 0.9447
C38_4 C 0.8179(2) 0.2254(2) 0.9584(3)
H24_4 H 0.8084 0.2325 0.9649
C39_4 C 0.9070(2) 0.2678(2) 0.8988(2)
O11_4 O 0.91768(10) 0.25832(11) 0.88807(12)
O13_4 O 0.90833(18) 0.28525(14) 0.8996(2)
C40_4 C 0.89157(17) 0.25668(19) 0.90962(17)
C41_4 C 0.89123(18) 0.23774(18) 0.9099(2)
H25_4 H 0.9008 0.2308 0.9034
C42_4 C 0.8765(2) 0.22766(19) 0.9198(2)
H26_4 H 0.8768 0.2142 0.9200
C43_4 C 0.86214(18) 0.2366(2) 0.9290(2)
C44_4 C 0.8631(2) 0.2560(2) 0.9296(3)
H27_4 H 0.8544 0.2630 0.9371
C45_4 C 0.8772(2) 0.2656(2) 0.9191(3)
H28_4 H 0.8767 0.2791 0.9185
C46_4 C 0.8957(2) 0.4452(2) 0.8248(2)
O14_4 O 0.88372(14) 0.44874(11) 0.81168(11)
O16_4 O 0.90138(18) 0.45772(12) 0.83550(14)
C47_4 C 0.90106(15) 0.42411(17) 0.82886(16)
C48_4 C 0.91246(18) 0.41913(18) 0.84395(19)
H29_4 H 0.9176 0.4288 0.8518
C49_4 C 0.9166(2) 0.39982(18) 0.84792(19)
H30_4 H 0.9243 0.3966 0.8585
C50_4 C 0.90948(17) 0.38582(16) 0.83633(18)
C51_4 C 0.89821(17) 0.39068(18) 0.82110(17)
H31_4 H 0.8934 0.3810 0.8131
C52_4 C 0.89380(18) 0.41000(16) 0.81730(17)
H32_4 H 0.8859 0.4132 0.8069
Zn1_5 Zn 0.18967(2) 0.48946(2) 0.22986(2)
Zn2_5 Zn 0.12422(2) 0.436884(18) 0.224604(18)
N1_5 N 0.14342(14) 0.45012(12) 0.24370(14)
C1_5 C 0.15833(16) 0.45954(14) 0.23611(17)
H1_5 H 0.1613 0.4566 0.2233
N2_5 N 0.16962(12) 0.47283(12) 0.24486(13)
C2_5 C 0.16400(18) 0.47555(16) 0.26318(16)
C3_5 C 0.14825(18) 0.46633(16) 0.27318(17)
C4_5 C 0.13844(19) 0.45317(19) 0.26317(19)
N3_5 N 0.14588(15) 0.47379(13) 0.29166(12)
C5_5 C 0.16084(17) 0.48642(17) 0.29169(18)
H2_5 H 0.1636 0.4937 0.3027
N4_5 N 0.17179(14) 0.48835(13) 0.27558(14)
N5_5 N 0.12346(15) 0.44332(13) 0.27191(12)
H3_5 H 0.1205 0.4457 0.2838
H4_5 H 0.1171 0.4348 0.2655
O1_7 O 0.20618(13) 0.5000 0.2500
C6_5 C 0.1955(2) 0.4709(2) 0.1973(2)
O2_5 O 0.20520(17) 0.47684(16) 0.21104(14)
O3_5 O 0.17792(16) 0.47244(17) 0.19581(15)
C7_5 C 0.2061(2) 0.45977(17) 0.18176(18)
C8_5 C 0.19656(19) 0.4512(2) 0.16717(18)
H5_5 H 0.1831 0.4518 0.1668
C9_5 C 0.20649(18) 0.4412(2) 0.15233(19)
H6_5 H 0.1995 0.4356 0.1422
C10_5 C 0.22581(19) 0.4395(2) 0.15267(18)
C11_5 C 0.2348(2) 0.4471(3) 0.1681(2)
H7_5 H 0.2480 0.4447 0.1697
C12_5 C 0.2254(2) 0.4584(3) 0.1821(2)
H8_5 H 0.2325 0.4649 0.1916
C13_5 C 0.2678(2) 0.3988(2) 0.0930(2)
O4_5 O 0.25832(11) 0.38807(12) 0.08232(10)
O5_5 O 0.28525(14) 0.3996(2) 0.09167(18)
C14_5 C 0.25668(19) 0.40962(17) 0.10843(17)
C15_5 C 0.23774(18) 0.4099(2) 0.10877(18)
H9_5 H 0.2308 0.4034 0.0992
C16_5 C 0.22766(19) 0.4198(2) 0.1235(2)
H10_5 H 0.2142 0.4200 0.1232
C17_5 C 0.2366(2) 0.4290(2) 0.13786(18)
C18_5 C 0.2560(2) 0.4296(3) 0.1369(2)
H11_5 H 0.2630 0.4371 0.1456
C19_5 C 0.2656(2) 0.4191(3) 0.1228(2)
H12_5 H 0.2791 0.4185 0.1233
C20_5 C 0.1457(2) 0.4252(2) 0.1952(2)
O6_5 O 0.13372(14) 0.43832(11) 0.19874(11)
O7_5 O 0.15138(18) 0.41450(14) 0.20772(12)
C21_5 C 0.15106(15) 0.42114(16) 0.17411(17)
C22_5 C 0.16246(18) 0.40605(19) 0.16913(18)
H13_5 H 0.1676 0.3982 0.1788
C23_5 C 0.1666(2) 0.40208(19) 0.14982(18)
H14_5 H 0.1743 0.3915 0.1466
C24_5 C 0.15948(17) 0.41367(18) 0.13582(16)
C25_5 C 0.14821(17) 0.42890(17) 0.14068(18)
H15_5 H 0.1434 0.4369 0.1310
C26_5 C 0.14380(18) 0.43270(17) 0.16000(16)
H16_5 H 0.1359 0.4431 0.1632
Zn3_5 Zn 0.18967(2) 0.51054(2) 0.27014(2)
Zn4_5 Zn 0.01054(2) 0.27014(2) 0.31033(2)
Zn5_5 Zn 0.12422(2) 0.563116(18) 0.275396(18)
Zn6_5 Zn 0.12578(2) 0.474604(18) 0.313116(18)
Zn7_5 Zn 0.275396(18) 0.37578(2) 0.063116(18)
Zn8_5 Zn 0.186884(18) 0.37422(2) 0.025396(18)
Zn9_5 Zn 0.12578(2) 0.525396(18) 0.186884(18)
N6_5 N 0.14342(14) 0.54988(12) 0.25630(14)
C27_5 C 0.15833(16) 0.54046(14) 0.26389(17)
H17_5 H 0.1613 0.5434 0.2767
N7_5 N 0.16962(12) 0.52717(12) 0.25514(13)
C28_5 C 0.16400(18) 0.52445(16) 0.23682(16)
C29_5 C 0.14825(18) 0.53367(16) 0.22682(17)
C30_5 C 0.13844(19) 0.54683(19) 0.23683(19)
N8_5 N 0.14588(15) 0.52621(13) 0.20834(12)
N9_5 N 0.10412(15) 0.45834(12) 0.22379(13)
N10_5 N 0.10412(15) 0.54166(12) 0.27621(13)
C31_5 C 0.16084(17) 0.51358(17) 0.20831(18)
H18_5 H 0.1636 0.5063 0.1973
N11_5 N 0.17179(14) 0.51165(13) 0.22442(14)
N12_5 N 0.12346(15) 0.55668(13) 0.22809(12)
H19_5 H 0.1205 0.5543 0.2162
H20_5 H 0.1171 0.5652 0.2345
C32_5 C 0.0291(2) 0.3027(2) 0.3045(2)
O8_5 O 0.02316(16) 0.28896(14) 0.29480(17)
O9_5 O 0.20520(17) 0.52316(16) 0.28896(14)
O10_5 O 0.02756(17) 0.30419(15) 0.32208(16)
C33_5 C 0.04023(17) 0.31824(18) 0.2939(2)
C34_5 C 0.0488(2) 0.33283(18) 0.30344(19)
H21_5 H 0.0482 0.3332 0.3169
C35_5 C 0.0588(2) 0.34767(19) 0.29351(18)
H22_5 H 0.0644 0.3578 0.3005
C36_5 C 0.0605(2) 0.34733(18) 0.27419(19)
C37_5 C 0.0529(3) 0.3319(2) 0.2652(2)
H23_5 H 0.0553 0.3303 0.2520
C38_5 C 0.0416(3) 0.3179(2) 0.2746(2)
H24_5 H 0.0351 0.3084 0.2675
C39_5 C 0.1012(2) 0.4070(2) 0.2322(2)
O11_5 O 0.11193(12) 0.41768(10) 0.24168(11)
O12_5 O 0.11193(12) 0.58232(10) 0.25832(11)
O13_5 O 0.1004(2) 0.40833(18) 0.21475(14)
C40_5 C 0.09038(17) 0.39157(17) 0.24332(19)
C41_5 C 0.0901(2) 0.39123(18) 0.26226(18)
H25_5 H 0.0966 0.4008 0.2692
C42_5 C 0.0802(2) 0.3765(2) 0.27234(19)
H26_5 H 0.0800 0.3768 0.2858
C43_5 C 0.0710(2) 0.36214(18) 0.2634(2)
C44_5 C 0.0704(3) 0.3631(2) 0.2440(2)
H27_5 H 0.0629 0.3544 0.2370
C45_5 C 0.0809(3) 0.3772(2) 0.2344(2)
H28_5 H 0.0815 0.3767 0.2209
C46_5 C 0.1752(2) 0.3957(2) 0.0548(2)
O14_5 O 0.18832(11) 0.38372(14) 0.05126(11)
O15_5 O 0.13372(14) 0.56168(11) 0.30126(11)
O16_5 O 0.16450(14) 0.40138(18) 0.04228(12)
C47_5 C 0.17114(16) 0.40106(15) 0.07589(17)
C48_5 C 0.15605(19) 0.41246(18) 0.08087(18)
H29_5 H 0.1482 0.4176 0.0712
C49_5 C 0.15208(19) 0.4166(2) 0.10018(18)
H30_5 H 0.1415 0.4243 0.1034
C50_5 C 0.16367(18) 0.40948(17) 0.11418(16)
C51_5 C 0.17890(17) 0.39821(17) 0.10932(18)
H31_5 H 0.1869 0.3934 0.1190
C52_5 C 0.18270(17) 0.39380(18) 0.09000(16)
H32_5 H 0.1931 0.3859 0.0868
Zn1_6 Zn 0.68967(2) 0.01054(2) 0.77014(2)
Zn2_6 Zn 0.62422(2) 0.063116(18) 0.775396(18)
N1_6 N 0.64342(14) 0.04988(12) 0.75630(14)
C1_6 C 0.65833(16) 0.04046(14) 0.76389(17)
H1_6 H 0.6613 0.0434 0.7767
N2_6 N 0.66962(12) 0.02717(12) 0.75514(13)
C2_6 C 0.66400(18) 0.02445(16) 0.73682(16)
C3_6 C 0.64825(18) 0.03367(16) 0.72682(17)
C4_6 C 0.63844(19) 0.04683(19) 0.73683(19)
N3_6 N 0.64588(15) 0.02621(13) 0.70834(12)
C5_6 C 0.66084(17) 0.01358(17) 0.70831(18)
H2_6 H 0.6636 0.0063 0.6973
N4_6 N 0.67179(14) 0.01165(13) 0.72442(14)
N5_6 N 0.62346(15) 0.05668(13) 0.72809(12)
H3_6 H 0.6205 0.0543 0.7162
H4_6 H 0.6171 0.0652 0.7345
O1_8 O 0.70618(13) 0.0000 0.7500
C6_6 C 0.6955(2) 0.0291(2) 0.8027(2)
O2_6 O 0.70520(17) 0.02316(16) 0.78896(14)
O3_6 O 0.67792(16) 0.02756(17) 0.80419(15)
C7_6 C 0.7061(2) 0.04023(17) 0.81824(18)
C8_6 C 0.69656(19) 0.0488(2) 0.83283(18)
H5_6 H 0.6831 0.0482 0.8332
C9_6 C 0.70649(18) 0.0588(2) 0.84767(19)
H6_6 H 0.6995 0.0644 0.8578
C10_6 C 0.72581(19) 0.0605(2) 0.84733(18)
C11_6 C 0.7348(2) 0.0529(3) 0.8319(2)
H7_6 H 0.7480 0.0553 0.8303
C12_6 C 0.7254(2) 0.0416(3) 0.8179(2)
H8_6 H 0.7325 0.0351 0.8084
C13_6 C 0.7678(2) 0.1012(2) 0.9070(2)
O4_6 O 0.75832(11) 0.11193(12) 0.91768(10)
O5_6 O 0.78525(14) 0.1004(2) 0.90833(18)
C14_6 C 0.75668(19) 0.09038(17) 0.89157(17)
C15_6 C 0.73774(18) 0.0901(2) 0.89123(18)
H9_6 H 0.7308 0.0966 0.9008
C16_6 C 0.72766(19) 0.0802(2) 0.8765(2)
H10_6 H 0.7142 0.0800 0.8768
C17_6 C 0.7366(2) 0.0710(2) 0.86214(18)
C18_6 C 0.7560(2) 0.0704(3) 0.8631(2)
H11_6 H 0.7630 0.0629 0.8544
C19_6 C 0.7656(2) 0.0809(3) 0.8772(2)
H12_6 H 0.7791 0.0815 0.8767
C20_6 C 0.6457(2) 0.0748(2) 0.8048(2)
O6_6 O 0.63372(14) 0.06168(11) 0.80126(11)
O7_6 O 0.65138(18) 0.08550(14) 0.79228(12)
C21_6 C 0.65106(15) 0.07886(16) 0.82589(17)
C22_6 C 0.66246(18) 0.09395(19) 0.83087(18)
H13_6 H 0.6676 0.1018 0.8212
C23_6 C 0.6666(2) 0.09792(19) 0.85018(18)
H14_6 H 0.6743 0.1085 0.8534
C24_6 C 0.65948(17) 0.08633(18) 0.86418(16)
C25_6 C 0.64821(17) 0.07110(17) 0.85932(18)
H15_6 H 0.6434 0.0631 0.8690
C26_6 C 0.64380(18) 0.06730(17) 0.84000(16)
H16_6 H 0.6359 0.0569 0.8368
Zn4_6 Zn 0.51054(2) 0.22986(2) 0.68967(2)
Zn6_6 Zn 0.62578(2) 0.025396(18) 0.686884(18)
Zn7_6 Zn 0.775396(18) 0.12422(2) 0.936884(18)
Zn8_6 Zn 0.686884(18) 0.12578(2) 0.974604(18)
N9_6 N 0.60412(15) 0.04166(12) 0.77621(13)
C32_6 C 0.5291(2) 0.1973(2) 0.6955(2)
O8_6 O 0.52316(16) 0.21104(14) 0.70520(17)
O10_6 O 0.52756(17) 0.19581(15) 0.67792(16)
C33_6 C 0.54023(17) 0.18176(18) 0.7061(2)
C34_6 C 0.5488(2) 0.16717(18) 0.69656(19)
H21_6 H 0.5482 0.1668 0.6831
C35_6 C 0.5588(2) 0.15233(19) 0.70649(18)
H22_6 H 0.5644 0.1422 0.6995
C36_6 C 0.5605(2) 0.15267(18) 0.72581(19)
C37_6 C 0.5529(3) 0.1681(2) 0.7348(2)
H23_6 H 0.5553 0.1697 0.7480
C38_6 C 0.5416(3) 0.1821(2) 0.7254(2)
H24_6 H 0.5351 0.1916 0.7325
C39_6 C 0.6012(2) 0.0930(2) 0.7678(2)
O11_6 O 0.61193(12) 0.08232(10) 0.75832(11)
O13_6 O 0.6004(2) 0.09167(18) 0.78525(14)
C40_6 C 0.59038(17) 0.10843(17) 0.75668(19)
C41_6 C 0.5901(2) 0.10877(18) 0.73774(18)
H25_6 H 0.5966 0.0992 0.7308
C42_6 C 0.5802(2) 0.1235(2) 0.72766(19)
H26_6 H 0.5800 0.1232 0.7142
C43_6 C 0.5710(2) 0.13786(18) 0.7366(2)
C44_6 C 0.5704(3) 0.1369(2) 0.7560(2)
H27_6 H 0.5629 0.1456 0.7630
C45_6 C 0.5809(3) 0.1228(2) 0.7656(2)
H28_6 H 0.5815 0.1233 0.7791
C46_6 C 0.6752(2) 0.1043(2) 0.9452(2)
O14_6 O 0.68832(11) 0.11628(14) 0.94874(11)
O16_6 O 0.66450(14) 0.09862(18) 0.95772(12)
C47_6 C 0.67114(16) 0.09894(15) 0.92411(17)
C48_6 C 0.65605(19) 0.08754(18) 0.91913(18)
H29_6 H 0.6482 0.0824 0.9288
C49_6 C 0.65208(19) 0.0834(2) 0.89982(18)
H30_6 H 0.6415 0.0757 0.8966
C50_6 C 0.66367(18) 0.09052(17) 0.88582(16)
C51_6 C 0.67890(17) 0.10179(17) 0.89068(18)
H31_6 H 0.6869 0.1066 0.8810
C52_6 C 0.68270(17) 0.10620(18) 0.91000(16)
H32_6 H 0.6931 0.1141 0.9132
O1_9 O 0.70618(13) 1.0000 0.7500
Zn3_6 Zn 0.68967(2) 0.98946(2) 0.72986(2)
Zn5_6 Zn 0.62422(2) 0.936884(18) 0.724604(18)
Zn9_6 Zn 0.62578(2) 0.974604(18) 0.813116(18)
N6_6 N 0.64342(14) 0.95012(12) 0.74370(14)
C27_6 C 0.65833(16) 0.95954(14) 0.73611(17)
H17_6 H 0.6613 0.9566 0.7233
N7_6 N 0.66962(12) 0.97283(12) 0.74486(13)
C28_6 C 0.66400(18) 0.97555(16) 0.76318(16)
C29_6 C 0.64825(18) 0.96633(16) 0.77318(17)
C30_6 C 0.63844(19) 0.95317(19) 0.76317(19)
N8_6 N 0.64588(15) 0.97379(13) 0.79166(12)
N10_6 N 0.60412(15) 0.95834(12) 0.72379(13)
C31_6 C 0.66084(17) 0.98642(17) 0.79169(18)
H18_6 H 0.6636 0.9937 0.8027
N11_6 N 0.67179(14) 0.98835(13) 0.77558(14)
N12_6 N 0.62346(15) 0.94332(13) 0.77191(12)
H19_6 H 0.6205 0.9457 0.7838
H20_6 H 0.6171 0.9348 0.7655
O9_6 O 0.70520(17) 0.97684(16) 0.71104(14)
O12_6 O 0.61193(12) 0.91768(10) 0.74168(11)
O15_6 O 0.63372(14) 0.93832(11) 0.69874(11)
Zn1_7 Zn 0.31033(2) 0.51054(2) 0.72986(2)
Zn2_7 Zn 0.37578(2) 0.563116(18) 0.724604(18)
N1_7 N 0.35658(14) 0.54988(12) 0.74370(14)
C1_7 C 0.34167(16) 0.54046(14) 0.73611(17)
H1_7 H 0.3387 0.5434 0.7233
N2_7 N 0.33038(12) 0.52717(12) 0.74486(13)
C2_7 C 0.33600(18) 0.52445(16) 0.76318(16)
C3_7 C 0.35175(18) 0.53367(16) 0.77318(17)
C4_7 C 0.36156(19) 0.54683(19) 0.76317(19)
N3_7 N 0.35412(15) 0.52621(13) 0.79166(12)
C5_7 C 0.33916(17) 0.51358(17) 0.79169(18)
H2_7 H 0.3364 0.5063 0.8027
N4_7 N 0.32821(14) 0.51165(13) 0.77558(14)
N5_7 N 0.37654(15) 0.55668(13) 0.77191(12)
H3_7 H 0.3795 0.5543 0.7838
H4_7 H 0.3829 0.5652 0.7655
O1_10 O 0.29382(13) 0.5000 0.7500
C6_7 C 0.3045(2) 0.5291(2) 0.6973(2)
O2_7 O 0.29480(17) 0.52316(16) 0.71104(14)
O3_7 O 0.32208(16) 0.52756(17) 0.69581(15)
C7_7 C 0.2939(2) 0.54023(17) 0.68176(18)
C8_7 C 0.30344(19) 0.5488(2) 0.66717(18)
H5_7 H 0.3169 0.5482 0.6668
C9_7 C 0.29351(18) 0.5588(2) 0.65233(19)
H6_7 H 0.3005 0.5644 0.6422
C10_7 C 0.27419(19) 0.5605(2) 0.65267(18)
C11_7 C 0.2652(2) 0.5529(3) 0.6681(2)
H7_7 H 0.2520 0.5553 0.6697
C12_7 C 0.2746(2) 0.5416(3) 0.6821(2)
H8_7 H 0.2675 0.5351 0.6916
C13_7 C 0.2322(2) 0.6012(2) 0.5930(2)
O4_7 O 0.24168(11) 0.61193(12) 0.58232(10)
O5_7 O 0.21475(14) 0.6004(2) 0.59167(18)
C14_7 C 0.24332(19) 0.59038(17) 0.60843(17)
C15_7 C 0.26226(18) 0.5901(2) 0.60877(18)
H9_7 H 0.2692 0.5966 0.5992
C16_7 C 0.27234(19) 0.5802(2) 0.6235(2)
H10_7 H 0.2858 0.5800 0.6232
C17_7 C 0.2634(2) 0.5710(2) 0.63786(18)
C18_7 C 0.2440(2) 0.5704(3) 0.6369(2)
H11_7 H 0.2370 0.5629 0.6456
C19_7 C 0.2344(2) 0.5809(3) 0.6228(2)
H12_7 H 0.2209 0.5815 0.6233
C20_7 C 0.3543(2) 0.5748(2) 0.6952(2)
O6_7 O 0.36628(14) 0.56168(11) 0.69874(11)
O7_7 O 0.34862(18) 0.58550(14) 0.70772(12)
C21_7 C 0.34894(15) 0.57886(16) 0.67411(17)
C22_7 C 0.33754(18) 0.59395(19) 0.66913(18)
H13_7 H 0.3324 0.6018 0.6788
C23_7 C 0.3334(2) 0.59792(19) 0.64982(18)
H14_7 H 0.3257 0.6085 0.6466
C24_7 C 0.34052(17) 0.58633(18) 0.63582(16)
C25_7 C 0.35179(17) 0.57110(17) 0.64068(18)
H15_7 H 0.3566 0.5631 0.6310
C26_7 C 0.35620(18) 0.56730(17) 0.66000(16)
H16_7 H 0.3641 0.5569 0.6632
Zn3_7 Zn 0.31033(2) 0.48946(2) 0.77014(2)
Zn4_7 Zn 0.48946(2) 0.72986(2) 0.81033(2)
Zn5_7 Zn 0.37578(2) 0.436884(18) 0.775396(18)
Zn6_7 Zn 0.37422(2) 0.525396(18) 0.813116(18)
Zn7_7 Zn 0.224604(18) 0.62422(2) 0.563116(18)
Zn8_7 Zn 0.313116(18) 0.62578(2) 0.525396(18)
Zn9_7 Zn 0.37422(2) 0.474604(18) 0.686884(18)
N6_7 N 0.35658(14) 0.45012(12) 0.75630(14)
C27_7 C 0.34167(16) 0.45954(14) 0.76389(17)
H17_7 H 0.3387 0.4566 0.7767
N7_7 N 0.33038(12) 0.47283(12) 0.75514(13)
C28_7 C 0.33600(18) 0.47555(16) 0.73682(16)
C29_7 C 0.35175(18) 0.46633(16) 0.72682(17)
C30_7 C 0.36156(19) 0.45317(19) 0.73683(19)
N8_7 N 0.35412(15) 0.47379(13) 0.70834(12)
N9_7 N 0.39588(15) 0.54166(12) 0.72379(13)
N10_7 N 0.39588(15) 0.45834(12) 0.77621(13)
C31_7 C 0.33916(17) 0.48642(17) 0.70831(18)
H18_7 H 0.3364 0.4937 0.6973
N11_7 N 0.32821(14) 0.48835(13) 0.72442(14)
N12_7 N 0.37654(15) 0.44332(13) 0.72809(12)
H19_7 H 0.3795 0.4457 0.7162
H20_7 H 0.3829 0.4348 0.7345
C32_7 C 0.4709(2) 0.6973(2) 0.8045(2)
O8_7 O 0.47684(16) 0.71104(14) 0.79480(17)
O9_7 O 0.29480(17) 0.47684(16) 0.78896(14)
O10_7 O 0.47244(17) 0.69581(15) 0.82208(16)
C33_7 C 0.45977(17) 0.68176(18) 0.7939(2)
C34_7 C 0.4512(2) 0.66717(18) 0.80344(19)
H21_7 H 0.4518 0.6668 0.8169
C35_7 C 0.4412(2) 0.65233(19) 0.79351(18)
H22_7 H 0.4356 0.6422 0.8005
C36_7 C 0.4395(2) 0.65267(18) 0.77419(19)
C37_7 C 0.4471(3) 0.6681(2) 0.7652(2)
H23_7 H 0.4447 0.6697 0.7520
C38_7 C 0.4584(3) 0.6821(2) 0.7746(2)
H24_7 H 0.4649 0.6916 0.7675
C39_7 C 0.3988(2) 0.5930(2) 0.7322(2)
O11_7 O 0.38807(12) 0.58232(10) 0.74168(11)
O12_7 O 0.38807(12) 0.41768(10) 0.75832(11)
O13_7 O 0.3996(2) 0.59167(18) 0.71475(14)
C40_7 C 0.40962(17) 0.60843(17) 0.74332(19)
C41_7 C 0.4099(2) 0.60877(18) 0.76226(18)
H25_7 H 0.4034 0.5992 0.7692
C42_7 C 0.4198(2) 0.6235(2) 0.77234(19)
H26_7 H 0.4200 0.6232 0.7858
C43_7 C 0.4290(2) 0.63786(18) 0.7634(2)
C44_7 C 0.4296(3) 0.6369(2) 0.7440(2)
H27_7 H 0.4371 0.6456 0.7370
C45_7 C 0.4191(3) 0.6228(2) 0.7344(2)
H28_7 H 0.4185 0.6233 0.7209
C46_7 C 0.3248(2) 0.6043(2) 0.5548(2)
O14_7 O 0.31168(11) 0.61628(14) 0.55126(11)
O15_7 O 0.36628(14) 0.43832(11) 0.80126(11)
O16_7 O 0.33550(14) 0.59862(18) 0.54228(12)
C47_7 C 0.32886(16) 0.59894(15) 0.57589(17)
C48_7 C 0.34395(19) 0.58754(18) 0.58087(18)
H29_7 H 0.3518 0.5824 0.5712
C49_7 C 0.34792(19) 0.5834(2) 0.60018(18)
H30_7 H 0.3585 0.5757 0.6034
C50_7 C 0.33633(18) 0.59052(17) 0.61418(16)
C51_7 C 0.32110(17) 0.60179(17) 0.60932(18)
H31_7 H 0.3131 0.6066 0.6190
C52_7 C 0.31730(17) 0.60620(18) 0.59000(16)
H32_7 H 0.3069 0.6141 0.5868
O1_11 O 0.79382(13) 0.0000 0.2500
Zn3_8 Zn 0.81033(2) 0.01054(2) 0.22986(2)
Zn5_8 Zn 0.87578(2) 0.063116(18) 0.224604(18)
Zn9_8 Zn 0.87422(2) 0.025396(18) 0.313116(18)
N6_8 N 0.85658(14) 0.04988(12) 0.24370(14)
C27_8 C 0.84167(16) 0.04046(14) 0.23611(17)
H17_8 H 0.8387 0.0434 0.2233
N7_8 N 0.83038(12) 0.02717(12) 0.24486(13)
C28_8 C 0.83600(18) 0.02445(16) 0.26318(16)
C29_8 C 0.85175(18) 0.03367(16) 0.27318(17)
C30_8 C 0.86156(19) 0.04683(19) 0.26317(19)
N8_8 N 0.85412(15) 0.02621(13) 0.29166(12)
N10_8 N 0.89588(15) 0.04166(12) 0.22379(13)
C31_8 C 0.83916(17) 0.01358(17) 0.29169(18)
H18_8 H 0.8364 0.0063 0.3027
N11_8 N 0.82821(14) 0.01165(13) 0.27558(14)
N12_8 N 0.87654(15) 0.05668(13) 0.27191(12)
H19_8 H 0.8795 0.0543 0.2838
H20_8 H 0.8829 0.0652 0.2655
O9_8 O 0.79480(17) 0.02316(16) 0.21104(14)
O12_8 O 0.88807(12) 0.08232(10) 0.24168(11)
O15_8 O 0.86628(14) 0.06168(11) 0.19874(11)
Zn1_8 Zn 0.81033(2) 0.98946(2) 0.27014(2)
Zn2_8 Zn 0.87578(2) 0.936884(18) 0.275396(18)
N1_8 N 0.85658(14) 0.95012(12) 0.25630(14)
C1_8 C 0.84167(16) 0.95954(14) 0.26389(17)
H1_8 H 0.8387 0.9566 0.2767
N2_8 N 0.83038(12) 0.97283(12) 0.25514(13)
C2_8 C 0.83600(18) 0.97555(16) 0.23682(16)
C3_8 C 0.85175(18) 0.96633(16) 0.22682(17)
C4_8 C 0.86156(19) 0.95317(19) 0.23683(19)
N3_8 N 0.85412(15) 0.97379(13) 0.20834(12)
C5_8 C 0.83916(17) 0.98642(17) 0.20831(18)
H2_8 H 0.8364 0.9937 0.1973
N4_8 N 0.82821(14) 0.98835(13) 0.22442(14)
N5_8 N 0.87654(15) 0.94332(13) 0.22809(12)
H3_8 H 0.8795 0.9457 0.2162
H4_8 H 0.8829 0.9348 0.2345
O1_12 O 0.79382(13) 1.0000 0.2500
C6_8 C 0.8045(2) 0.9709(2) 0.3027(2)
O2_8 O 0.79480(17) 0.97684(16) 0.28896(14)
O3_8 O 0.82208(16) 0.97244(17) 0.30419(15)
C7_8 C 0.7939(2) 0.95977(17) 0.31824(18)
C8_8 C 0.80344(19) 0.9512(2) 0.33283(18)
H5_8 H 0.8169 0.9518 0.3332
C9_8 C 0.79351(18) 0.9412(2) 0.34767(19)
H6_8 H 0.8005 0.9356 0.3578
C10_8 C 0.77419(19) 0.9395(2) 0.34733(18)
C11_8 C 0.7652(2) 0.9471(3) 0.3319(2)
H7_8 H 0.7520 0.9447 0.3303
C12_8 C 0.7746(2) 0.9584(3) 0.3179(2)
H8_8 H 0.7675 0.9649 0.3084
C13_8 C 0.7322(2) 0.8988(2) 0.4070(2)
O4_8 O 0.74168(11) 0.88807(12) 0.41768(10)
O5_8 O 0.71475(14) 0.8996(2) 0.40833(18)
C14_8 C 0.74332(19) 0.90962(17) 0.39157(17)
C15_8 C 0.76226(18) 0.9099(2) 0.39123(18)
H9_8 H 0.7692 0.9034 0.4008
C16_8 C 0.77234(19) 0.9198(2) 0.3765(2)
H10_8 H 0.7858 0.9200 0.3768
C17_8 C 0.7634(2) 0.9290(2) 0.36214(18)
C18_8 C 0.7440(2) 0.9296(3) 0.3631(2)
H11_8 H 0.7370 0.9371 0.3544
C19_8 C 0.7344(2) 0.9191(3) 0.3772(2)
H12_8 H 0.7209 0.9185 0.3767
C20_8 C 0.8543(2) 0.9252(2) 0.3048(2)
O6_8 O 0.86628(14) 0.93832(11) 0.30126(11)
O7_8 O 0.84862(18) 0.91450(14) 0.29228(12)
C21_8 C 0.84894(15) 0.92114(16) 0.32589(17)
C22_8 C 0.83754(18) 0.90605(19) 0.33087(18)
H13_8 H 0.8324 0.8982 0.3212
C23_8 C 0.8334(2) 0.90208(19) 0.35018(18)
H14_8 H 0.8257 0.8915 0.3534
C24_8 C 0.84052(17) 0.91367(18) 0.36418(16)
C25_8 C 0.85179(17) 0.92890(17) 0.35932(18)
H15_8 H 0.8566 0.9369 0.3690
C26_8 C 0.85620(18) 0.93270(17) 0.34000(16)
H16_8 H 0.8641 0.9431 0.3368
Zn4_8 Zn 0.98946(2) 0.77014(2) 0.18967(2)
Zn6_8 Zn 0.87422(2) 0.974604(18) 0.186884(18)
Zn7_8 Zn 0.724604(18) 0.87578(2) 0.436884(18)
Zn8_8 Zn 0.813116(18) 0.87422(2) 0.474604(18)
N9_8 N 0.89588(15) 0.95834(12) 0.27621(13)
C32_8 C 0.9709(2) 0.8027(2) 0.1955(2)
O8_8 O 0.97684(16) 0.78896(14) 0.20520(17)
O10_8 O 0.97244(17) 0.80419(15) 0.17792(16)
C33_8 C 0.95977(17) 0.81824(18) 0.2061(2)
C34_8 C 0.9512(2) 0.83283(18) 0.19656(19)
H21_8 H 0.9518 0.8332 0.1831
C35_8 C 0.9412(2) 0.84767(19) 0.20649(18)
H22_8 H 0.9356 0.8578 0.1995
C36_8 C 0.9395(2) 0.84733(18) 0.22581(19)
C37_8 C 0.9471(3) 0.8319(2) 0.2348(2)
H23_8 H 0.9447 0.8303 0.2480
C38_8 C 0.9584(3) 0.8179(2) 0.2254(2)
H24_8 H 0.9649 0.8084 0.2325
C39_8 C 0.8988(2) 0.9070(2) 0.2678(2)
O11_8 O 0.88807(12) 0.91768(10) 0.25832(11)
O13_8 O 0.8996(2) 0.90833(18) 0.28525(14)
C40_8 C 0.90962(17) 0.89157(17) 0.25668(19)
C41_8 C 0.9099(2) 0.89123(18) 0.23774(18)
H25_8 H 0.9034 0.9008 0.2308
C42_8 C 0.9198(2) 0.8765(2) 0.22766(19)
H26_8 H 0.9200 0.8768 0.2142
C43_8 C 0.9290(2) 0.86214(18) 0.2366(2)
C44_8 C 0.9296(3) 0.8631(2) 0.2560(2)
H27_8 H 0.9371 0.8544 0.2630
C45_8 C 0.9191(3) 0.8772(2) 0.2656(2)
H28_8 H 0.9185 0.8767 0.2791
C46_8 C 0.8248(2) 0.8957(2) 0.4452(2)
O14_8 O 0.81168(11) 0.88372(14) 0.44874(11)
O16_8 O 0.83550(14) 0.90138(18) 0.45772(12)
C47_8 C 0.82886(16) 0.90106(15) 0.42411(17)
C48_8 C 0.84395(19) 0.91246(18) 0.41913(18)
H29_8 H 0.8518 0.9176 0.4288
C49_8 C 0.84792(19) 0.9166(2) 0.39982(18)
H30_8 H 0.8585 0.9243 0.3966
C50_8 C 0.83633(18) 0.90948(17) 0.38582(16)
C51_8 C 0.82110(17) 0.89821(17) 0.39068(18)
H31_8 H 0.8131 0.8934 0.3810
C52_8 C 0.81730(17) 0.89380(18) 0.41000(16)
H32_8 H 0.8069 0.8859 0.4132
Zn1_9 Zn 0.22986(2) 0.18967(2) 0.48946(2)
Zn2_9 Zn 0.224604(18) 0.12422(2) 0.436884(18)
N1_9 N 0.24370(14) 0.14342(14) 0.45012(12)
C1_9 C 0.23611(17) 0.15833(16) 0.45954(14)
H1_9 H 0.2233 0.1613 0.4566
N2_9 N 0.24486(13) 0.16962(12) 0.47283(12)
C2_9 C 0.26318(16) 0.16400(18) 0.47555(16)
C3_9 C 0.27318(17) 0.14825(18) 0.46633(16)
C4_9 C 0.26317(19) 0.13844(19) 0.45317(19)
N3_9 N 0.29166(12) 0.14588(15) 0.47379(13)
C5_9 C 0.29169(18) 0.16084(17) 0.48642(17)
H2_9 H 0.3027 0.1636 0.4937
N4_9 N 0.27558(14) 0.17179(14) 0.48835(13)
N5_9 N 0.27191(12) 0.12346(15) 0.44332(13)
H3_9 H 0.2838 0.1205 0.4457
H4_9 H 0.2655 0.1171 0.4348
O1_13 O 0.2500 0.20618(13) 0.5000
C6_9 C 0.1973(2) 0.1955(2) 0.4709(2)
O2_9 O 0.21104(14) 0.20520(17) 0.47684(16)
O3_9 O 0.19581(15) 0.17792(16) 0.47244(17)
C7_9 C 0.18176(18) 0.2061(2) 0.45977(17)
C8_9 C 0.16717(18) 0.19656(19) 0.4512(2)
H5_9 H 0.1668 0.1831 0.4518
C9_9 C 0.15233(19) 0.20649(18) 0.4412(2)
H6_9 H 0.1422 0.1995 0.4356
C10_9 C 0.15267(18) 0.22581(19) 0.4395(2)
C11_9 C 0.1681(2) 0.2348(2) 0.4471(3)
H7_9 H 0.1697 0.2480 0.4447
C12_9 C 0.1821(2) 0.2254(2) 0.4584(3)
H8_9 H 0.1916 0.2325 0.4649
C13_9 C 0.0930(2) 0.2678(2) 0.3988(2)
O4_9 O 0.08232(10) 0.25832(11) 0.38807(12)
O5_9 O 0.09167(18) 0.28525(14) 0.3996(2)
C14_9 C 0.10843(17) 0.25668(19) 0.40962(17)
C15_9 C 0.10877(18) 0.23774(18) 0.4099(2)
H9_9 H 0.0992 0.2308 0.4034
C16_9 C 0.1235(2) 0.22766(19) 0.4198(2)
H10_9 H 0.1232 0.2142 0.4200
C17_9 C 0.13786(18) 0.2366(2) 0.4290(2)
C18_9 C 0.1369(2) 0.2560(2) 0.4296(3)
H11_9 H 0.1456 0.2630 0.4371
C19_9 C 0.1228(2) 0.2656(2) 0.4191(3)
H12_9 H 0.1233 0.2791 0.4185
C20_9 C 0.1952(2) 0.1457(2) 0.4252(2)
O6_9 O 0.19874(11) 0.13372(14) 0.43832(11)
O7_9 O 0.20772(12) 0.15138(18) 0.41450(14)
C21_9 C 0.17411(17) 0.15106(15) 0.42114(16)
C22_9 C 0.16913(18) 0.16246(18) 0.40605(19)
H13_9 H 0.1788 0.1676 0.3982
C23_9 C 0.14982(18) 0.1666(2) 0.40208(19)
H14_9 H 0.1466 0.1743 0.3915
C24_9 C 0.13582(16) 0.15948(17) 0.41367(18)
C25_9 C 0.14068(18) 0.14821(17) 0.42890(17)
H15_9 H 0.1310 0.1434 0.4369
C26_9 C 0.16000(16) 0.14380(18) 0.43270(17)
H16_9 H 0.1632 0.1359 0.4431
Zn3_9 Zn 0.27014(2) 0.18967(2) 0.51054(2)
Zn4_9 Zn 0.31033(2) 0.01054(2) 0.27014(2)
Zn5_9 Zn 0.275396(18) 0.12422(2) 0.563116(18)
Zn6_9 Zn 0.313116(18) 0.12578(2) 0.474604(18)
Zn7_9 Zn 0.063116(18) 0.275396(18) 0.37578(2)
Zn8_9 Zn 0.025396(18) 0.186884(18) 0.37422(2)
Zn9_9 Zn 0.186884(18) 0.12578(2) 0.525396(18)
N6_9 N 0.25630(14) 0.14342(14) 0.54988(12)
C27_9 C 0.26389(17) 0.15833(16) 0.54046(14)
H17_9 H 0.2767 0.1613 0.5434
N7_9 N 0.25514(13) 0.16962(12) 0.52717(12)
C28_9 C 0.23682(16) 0.16400(18) 0.52445(16)
C29_9 C 0.22682(17) 0.14825(18) 0.53367(16)
C30_9 C 0.23683(19) 0.13844(19) 0.54683(19)
N8_9 N 0.20834(12) 0.14588(15) 0.52621(13)
N9_9 N 0.22379(13) 0.10412(15) 0.45834(12)
N10_9 N 0.27621(13) 0.10412(15) 0.54166(12)
C31_9 C 0.20831(18) 0.16084(17) 0.51358(17)
H18_9 H 0.1973 0.1636 0.5063
N11_9 N 0.22442(14) 0.17179(14) 0.51165(13)
N12_9 N 0.22809(12) 0.12346(15) 0.55668(13)
H19_9 H 0.2162 0.1205 0.5543
H20_9 H 0.2345 0.1171 0.5652
C32_9 C 0.3045(2) 0.0291(2) 0.3027(2)
O8_9 O 0.29480(17) 0.02316(16) 0.28896(14)
O9_9 O 0.28896(14) 0.20520(17) 0.52316(16)
O10_9 O 0.32208(16) 0.02756(17) 0.30419(15)
C33_9 C 0.2939(2) 0.04023(17) 0.31824(18)
C34_9 C 0.30344(19) 0.0488(2) 0.33283(18)
H21_9 H 0.3169 0.0482 0.3332
C35_9 C 0.29351(18) 0.0588(2) 0.34767(19)
H22_9 H 0.3005 0.0644 0.3578
C36_9 C 0.27419(19) 0.0605(2) 0.34733(18)
C37_9 C 0.2652(2) 0.0529(3) 0.3319(2)
H23_9 H 0.2520 0.0553 0.3303
C38_9 C 0.2746(2) 0.0416(3) 0.3179(2)
H24_9 H 0.2675 0.0351 0.3084
C39_9 C 0.2322(2) 0.1012(2) 0.4070(2)
O11_9 O 0.24168(11) 0.11193(12) 0.41768(10)
O12_9 O 0.25832(11) 0.11193(12) 0.58232(10)
O13_9 O 0.21475(14) 0.1004(2) 0.40833(18)
C40_9 C 0.24332(19) 0.09038(17) 0.39157(17)
C41_9 C 0.26226(18) 0.0901(2) 0.39123(18)
H25_9 H 0.2692 0.0966 0.4008
C42_9 C 0.27234(19) 0.0802(2) 0.3765(2)
H26_9 H 0.2858 0.0800 0.3768
C43_9 C 0.2634(2) 0.0710(2) 0.36214(18)
C44_9 C 0.2440(2) 0.0704(3) 0.3631(2)
H27_9 H 0.2370 0.0629 0.3544
C45_9 C 0.2344(2) 0.0809(3) 0.3772(2)
H28_9 H 0.2209 0.0815 0.3767
C46_9 C 0.0548(2) 0.1752(2) 0.3957(2)
O14_9 O 0.05126(11) 0.18832(11) 0.38372(14)
O15_9 O 0.30126(11) 0.13372(14) 0.56168(11)
O16_9 O 0.04228(12) 0.16450(14) 0.40138(18)
C47_9 C 0.07589(17) 0.17114(16) 0.40106(15)
C48_9 C 0.08087(18) 0.15605(19) 0.41246(18)
H29_9 H 0.0712 0.1482 0.4176
C49_9 C 0.10018(18) 0.15208(19) 0.4166(2)
H30_9 H 0.1034 0.1415 0.4243
C50_9 C 0.11418(16) 0.16367(18) 0.40948(17)
C51_9 C 0.10932(18) 0.17890(17) 0.39821(17)
H31_9 H 0.1190 0.1869 0.3934
C52_9 C 0.09000(16) 0.18270(17) 0.39380(18)
H32_9 H 0.0868 0.1931 0.3859
Zn1_10 Zn 0.77014(2) 0.68967(2) 0.01054(2)
Zn2_10 Zn 0.775396(18) 0.62422(2) 0.063116(18)
N1_10 N 0.75630(14) 0.64342(14) 0.04988(12)
C1_10 C 0.76389(17) 0.65833(16) 0.04046(14)
H1_10 H 0.7767 0.6613 0.0434
N2_10 N 0.75514(13) 0.66962(12) 0.02717(12)
C2_10 C 0.73682(16) 0.66400(18) 0.02445(16)
C3_10 C 0.72682(17) 0.64825(18) 0.03367(16)
C4_10 C 0.73683(19) 0.63844(19) 0.04683(19)
N3_10 N 0.70834(12) 0.64588(15) 0.02621(13)
C5_10 C 0.70831(18) 0.66084(17) 0.01358(17)
H2_10 H 0.6973 0.6636 0.0063
N4_10 N 0.72442(14) 0.67179(14) 0.01165(13)
N5_10 N 0.72809(12) 0.62346(15) 0.05668(13)
H3_10 H 0.7162 0.6205 0.0543
H4_10 H 0.7345 0.6171 0.0652
O1_14 O 0.7500 0.70618(13) 0.0000
C6_10 C 0.8027(2) 0.6955(2) 0.0291(2)
O2_10 O 0.78896(14) 0.70520(17) 0.02316(16)
O3_10 O 0.80419(15) 0.67792(16) 0.02756(17)
C7_10 C 0.81824(18) 0.7061(2) 0.04023(17)
C8_10 C 0.83283(18) 0.69656(19) 0.0488(2)
H5_10 H 0.8332 0.6831 0.0482
C9_10 C 0.84767(19) 0.70649(18) 0.0588(2)
H6_10 H 0.8578 0.6995 0.0644
C10_10 C 0.84733(18) 0.72581(19) 0.0605(2)
C11_10 C 0.8319(2) 0.7348(2) 0.0529(3)
H7_10 H 0.8303 0.7480 0.0553
C12_10 C 0.8179(2) 0.7254(2) 0.0416(3)
H8_10 H 0.8084 0.7325 0.0351
C13_10 C 0.9070(2) 0.7678(2) 0.1012(2)
O4_10 O 0.91768(10) 0.75832(11) 0.11193(12)
O5_10 O 0.90833(18) 0.78525(14) 0.1004(2)
C14_10 C 0.89157(17) 0.75668(19) 0.09038(17)
C15_10 C 0.89123(18) 0.73774(18) 0.0901(2)
H9_10 H 0.9008 0.7308 0.0966
C16_10 C 0.8765(2) 0.72766(19) 0.0802(2)
H10_10 H 0.8768 0.7142 0.0800
C17_10 C 0.86214(18) 0.7366(2) 0.0710(2)
C18_10 C 0.8631(2) 0.7560(2) 0.0704(3)
H11_10 H 0.8544 0.7630 0.0629
C19_10 C 0.8772(2) 0.7656(2) 0.0809(3)
H12_10 H 0.8767 0.7791 0.0815
C20_10 C 0.8048(2) 0.6457(2) 0.0748(2)
O6_10 O 0.80126(11) 0.63372(14) 0.06168(11)
O7_10 O 0.79228(12) 0.65138(18) 0.08550(14)
C21_10 C 0.82589(17) 0.65106(15) 0.07886(16)
C22_10 C 0.83087(18) 0.66246(18) 0.09395(19)
H13_10 H 0.8212 0.6676 0.1018
C23_10 C 0.85018(18) 0.6666(2) 0.09792(19)
H14_10 H 0.8534 0.6743 0.1085
C24_10 C 0.86418(16) 0.65948(17) 0.08633(18)
C25_10 C 0.85932(18) 0.64821(17) 0.07110(17)
H15_10 H 0.8690 0.6434 0.0631
C26_10 C 0.84000(16) 0.64380(18) 0.06730(17)
H16_10 H 0.8368 0.6359 0.0569
Zn4_10 Zn 0.68967(2) 0.51054(2) 0.22986(2)
Zn6_10 Zn 0.686884(18) 0.62578(2) 0.025396(18)
Zn7_10 Zn 0.936884(18) 0.775396(18) 0.12422(2)
Zn8_10 Zn 0.974604(18) 0.686884(18) 0.12578(2)
N9_10 N 0.77621(13) 0.60412(15) 0.04166(12)
C32_10 C 0.6955(2) 0.5291(2) 0.1973(2)
O8_10 O 0.70520(17) 0.52316(16) 0.21104(14)
O10_10 O 0.67792(16) 0.52756(17) 0.19581(15)
C33_10 C 0.7061(2) 0.54023(17) 0.18176(18)
C34_10 C 0.69656(19) 0.5488(2) 0.16717(18)
H21_10 H 0.6831 0.5482 0.1668
C35_10 C 0.70649(18) 0.5588(2) 0.15233(19)
H22_10 H 0.6995 0.5644 0.1422
C36_10 C 0.72581(19) 0.5605(2) 0.15267(18)
C37_10 C 0.7348(2) 0.5529(3) 0.1681(2)
H23_10 H 0.7480 0.5553 0.1697
C38_10 C 0.7254(2) 0.5416(3) 0.1821(2)
H24_10 H 0.7325 0.5351 0.1916
C39_10 C 0.7678(2) 0.6012(2) 0.0930(2)
O11_10 O 0.75832(11) 0.61193(12) 0.08232(10)
O13_10 O 0.78525(14) 0.6004(2) 0.09167(18)
C40_10 C 0.75668(19) 0.59038(17) 0.10843(17)
C41_10 C 0.73774(18) 0.5901(2) 0.10877(18)
H25_10 H 0.7308 0.5966 0.0992
C42_10 C 0.72766(19) 0.5802(2) 0.1235(2)
H26_10 H 0.7142 0.5800 0.1232
C43_10 C 0.7366(2) 0.5710(2) 0.13786(18)
C44_10 C 0.7560(2) 0.5704(3) 0.1369(2)
H27_10 H 0.7630 0.5629 0.1456
C45_10 C 0.7656(2) 0.5809(3) 0.1228(2)
H28_10 H 0.7791 0.5815 0.1233
C46_10 C 0.9452(2) 0.6752(2) 0.1043(2)
O14_10 O 0.94874(11) 0.68832(11) 0.11628(14)
O16_10 O 0.95772(12) 0.66450(14) 0.09862(18)
C47_10 C 0.92411(17) 0.67114(16) 0.09894(15)
C48_10 C 0.91913(18) 0.65605(19) 0.08754(18)
H29_10 H 0.9288 0.6482 0.0824
C49_10 C 0.89982(18) 0.65208(19) 0.0834(2)
H30_10 H 0.8966 0.6415 0.0757
C50_10 C 0.88582(16) 0.66367(18) 0.09052(17)
C51_10 C 0.89068(18) 0.67890(17) 0.10179(17)
H31_10 H 0.8810 0.6869 0.1066
C52_10 C 0.91000(16) 0.68270(17) 0.10620(18)
H32_10 H 0.9132 0.6931 0.1141
O1_15 O 0.7500 0.70618(13) 1.0000
Zn3_10 Zn 0.72986(2) 0.68967(2) 0.98946(2)
Zn5_10 Zn 0.724604(18) 0.62422(2) 0.936884(18)
Zn9_10 Zn 0.813116(18) 0.62578(2) 0.974604(18)
N6_10 N 0.74370(14) 0.64342(14) 0.95012(12)
C27_10 C 0.73611(17) 0.65833(16) 0.95954(14)
H17_10 H 0.7233 0.6613 0.9566
N7_10 N 0.74486(13) 0.66962(12) 0.97283(12)
C28_10 C 0.76318(16) 0.66400(18) 0.97555(16)
C29_10 C 0.77318(17) 0.64825(18) 0.96633(16)
C30_10 C 0.76317(19) 0.63844(19) 0.95317(19)
N8_10 N 0.79166(12) 0.64588(15) 0.97379(13)
N10_10 N 0.72379(13) 0.60412(15) 0.95834(12)
C31_10 C 0.79169(18) 0.66084(17) 0.98642(17)
H18_10 H 0.8027 0.6636 0.9937
N11_10 N 0.77558(14) 0.67179(14) 0.98835(13)
N12_10 N 0.77191(12) 0.62346(15) 0.94332(13)
H19_10 H 0.7838 0.6205 0.9457
H20_10 H 0.7655 0.6171 0.9348
O9_10 O 0.71104(14) 0.70520(17) 0.97684(16)
O12_10 O 0.74168(11) 0.61193(12) 0.91768(10)
O15_10 O 0.69874(11) 0.63372(14) 0.93832(11)
Zn1_11 Zn 0.72986(2) 0.31033(2) 0.51054(2)
Zn2_11 Zn 0.724604(18) 0.37578(2) 0.563116(18)
N1_11 N 0.74370(14) 0.35658(14) 0.54988(12)
C1_11 C 0.73611(17) 0.34167(16) 0.54046(14)
H1_11 H 0.7233 0.3387 0.5434
N2_11 N 0.74486(13) 0.33038(12) 0.52717(12)
C2_11 C 0.76318(16) 0.33600(18) 0.52445(16)
C3_11 C 0.77318(17) 0.35175(18) 0.53367(16)
C4_11 C 0.76317(19) 0.36156(19) 0.54683(19)
N3_11 N 0.79166(12) 0.35412(15) 0.52621(13)
C5_11 C 0.79169(18) 0.33916(17) 0.51358(17)
H2_11 H 0.8027 0.3364 0.5063
N4_11 N 0.77558(14) 0.32821(14) 0.51165(13)
N5_11 N 0.77191(12) 0.37654(15) 0.55668(13)
H3_11 H 0.7838 0.3795 0.5543
H4_11 H 0.7655 0.3829 0.5652
O1_16 O 0.7500 0.29382(13) 0.5000
C6_11 C 0.6973(2) 0.3045(2) 0.5291(2)
O2_11 O 0.71104(14) 0.29480(17) 0.52316(16)
O3_11 O 0.69581(15) 0.32208(16) 0.52756(17)
C7_11 C 0.68176(18) 0.2939(2) 0.54023(17)
C8_11 C 0.66717(18) 0.30344(19) 0.5488(2)
H5_11 H 0.6668 0.3169 0.5482
C9_11 C 0.65233(19) 0.29351(18) 0.5588(2)
H6_11 H 0.6422 0.3005 0.5644
C10_11 C 0.65267(18) 0.27419(19) 0.5605(2)
C11_11 C 0.6681(2) 0.2652(2) 0.5529(3)
H7_11 H 0.6697 0.2520 0.5553
C12_11 C 0.6821(2) 0.2746(2) 0.5416(3)
H8_11 H 0.6916 0.2675 0.5351
C13_11 C 0.5930(2) 0.2322(2) 0.6012(2)
O4_11 O 0.58232(10) 0.24168(11) 0.61193(12)
O5_11 O 0.59167(18) 0.21475(14) 0.6004(2)
C14_11 C 0.60843(17) 0.24332(19) 0.59038(17)
C15_11 C 0.60877(18) 0.26226(18) 0.5901(2)
H9_11 H 0.5992 0.2692 0.5966
C16_11 C 0.6235(2) 0.27234(19) 0.5802(2)
H10_11 H 0.6232 0.2858 0.5800
C17_11 C 0.63786(18) 0.2634(2) 0.5710(2)
C18_11 C 0.6369(2) 0.2440(2) 0.5704(3)
H11_11 H 0.6456 0.2370 0.5629
C19_11 C 0.6228(2) 0.2344(2) 0.5809(3)
H12_11 H 0.6233 0.2209 0.5815
C20_11 C 0.6952(2) 0.3543(2) 0.5748(2)
O6_11 O 0.69874(11) 0.36628(14) 0.56168(11)
O7_11 O 0.70772(12) 0.34862(18) 0.58550(14)
C21_11 C 0.67411(17) 0.34894(15) 0.57886(16)
C22_11 C 0.66913(18) 0.33754(18) 0.59395(19)
H13_11 H 0.6788 0.3324 0.6018
C23_11 C 0.64982(18) 0.3334(2) 0.59792(19)
H14_11 H 0.6466 0.3257 0.6085
C24_11 C 0.63582(16) 0.34052(17) 0.58633(18)
C25_11 C 0.64068(18) 0.35179(17) 0.57110(17)
H15_11 H 0.6310 0.3566 0.5631
C26_11 C 0.66000(16) 0.35620(18) 0.56730(17)
H16_11 H 0.6632 0.3641 0.5569
Zn3_11 Zn 0.77014(2) 0.31033(2) 0.48946(2)
Zn4_11 Zn 0.81033(2) 0.48946(2) 0.72986(2)
Zn5_11 Zn 0.775396(18) 0.37578(2) 0.436884(18)
Zn6_11 Zn 0.813116(18) 0.37422(2) 0.525396(18)
Zn7_11 Zn 0.563116(18) 0.224604(18) 0.62422(2)
Zn8_11 Zn 0.525396(18) 0.313116(18) 0.62578(2)
Zn9_11 Zn 0.686884(18) 0.37422(2) 0.474604(18)
N6_11 N 0.75630(14) 0.35658(14) 0.45012(12)
C27_11 C 0.76389(17) 0.34167(16) 0.45954(14)
H17_11 H 0.7767 0.3387 0.4566
N7_11 N 0.75514(13) 0.33038(12) 0.47283(12)
C28_11 C 0.73682(16) 0.33600(18) 0.47555(16)
C29_11 C 0.72682(17) 0.35175(18) 0.46633(16)
C30_11 C 0.73683(19) 0.36156(19) 0.45317(19)
N8_11 N 0.70834(12) 0.35412(15) 0.47379(13)
N9_11 N 0.72379(13) 0.39588(15) 0.54166(12)
N10_11 N 0.77621(13) 0.39588(15) 0.45834(12)
C31_11 C 0.70831(18) 0.33916(17) 0.48642(17)
H18_11 H 0.6973 0.3364 0.4937
N11_11 N 0.72442(14) 0.32821(14) 0.48835(13)
N12_11 N 0.72809(12) 0.37654(15) 0.44332(13)
H19_11 H 0.7162 0.3795 0.4457
H20_11 H 0.7345 0.3829 0.4348
C32_11 C 0.8045(2) 0.4709(2) 0.6973(2)
O8_11 O 0.79480(17) 0.47684(16) 0.71104(14)
O9_11 O 0.78896(14) 0.29480(17) 0.47684(16)
O10_11 O 0.82208(16) 0.47244(17) 0.69581(15)
C33_11 C 0.7939(2) 0.45977(17) 0.68176(18)
C34_11 C 0.80344(19) 0.4512(2) 0.66717(18)
H21_11 H 0.8169 0.4518 0.6668
C35_11 C 0.79351(18) 0.4412(2) 0.65233(19)
H22_11 H 0.8005 0.4356 0.6422
C36_11 C 0.77419(19) 0.4395(2) 0.65267(18)
C37_11 C 0.7652(2) 0.4471(3) 0.6681(2)
H23_11 H 0.7520 0.4447 0.6697
C38_11 C 0.7746(2) 0.4584(3) 0.6821(2)
H24_11 H 0.7675 0.4649 0.6916
C39_11 C 0.7322(2) 0.3988(2) 0.5930(2)
O11_11 O 0.74168(11) 0.38807(12) 0.58232(10)
O12_11 O 0.75832(11) 0.38807(12) 0.41768(10)
O13_11 O 0.71475(14) 0.3996(2) 0.59167(18)
C40_11 C 0.74332(19) 0.40962(17) 0.60843(17)
C41_11 C 0.76226(18) 0.4099(2) 0.60877(18)
H25_11 H 0.7692 0.4034 0.5992
C42_11 C 0.77234(19) 0.4198(2) 0.6235(2)
H26_11 H 0.7858 0.4200 0.6232
C43_11 C 0.7634(2) 0.4290(2) 0.63786(18)
C44_11 C 0.7440(2) 0.4296(3) 0.6369(2)
H27_11 H 0.7370 0.4371 0.6456
C45_11 C 0.7344(2) 0.4191(3) 0.6228(2)
H28_11 H 0.7209 0.4185 0.6233
C46_11 C 0.5548(2) 0.3248(2) 0.6043(2)
O14_11 O 0.55126(11) 0.31168(11) 0.61628(14)
O15_11 O 0.80126(11) 0.36628(14) 0.43832(11)
O16_11 O 0.54228(12) 0.33550(14) 0.59862(18)
C47_11 C 0.57589(17) 0.32886(16) 0.59894(15)
C48_11 C 0.58087(18) 0.34395(19) 0.58754(18)
H29_11 H 0.5712 0.3518 0.5824
C49_11 C 0.60018(18) 0.34792(19) 0.5834(2)
H30_11 H 0.6034 0.3585 0.5757
C50_11 C 0.61418(16) 0.33633(18) 0.59052(17)
C51_11 C 0.60932(18) 0.32110(17) 0.60179(17)
H31_11 H 0.6190 0.3131 0.6066
C52_11 C 0.59000(16) 0.31730(17) 0.60620(18)
H32_11 H 0.5868 0.3069 0.6141
O1_17 O 0.2500 0.79382(13) 0.0000
Zn3_12 Zn 0.22986(2) 0.81033(2) 0.01054(2)
Zn5_12 Zn 0.224604(18) 0.87578(2) 0.063116(18)
Zn9_12 Zn 0.313116(18) 0.87422(2) 0.025396(18)
N6_12 N 0.24370(14) 0.85658(14) 0.04988(12)
C27_12 C 0.23611(17) 0.84167(16) 0.04046(14)
H17_12 H 0.2233 0.8387 0.0434
N7_12 N 0.24486(13) 0.83038(12) 0.02717(12)
C28_12 C 0.26318(16) 0.83600(18) 0.02445(16)
C29_12 C 0.27318(17) 0.85175(18) 0.03367(16)
C30_12 C 0.26317(19) 0.86156(19) 0.04683(19)
N8_12 N 0.29166(12) 0.85412(15) 0.02621(13)
N10_12 N 0.22379(13) 0.89588(15) 0.04166(12)
C31_12 C 0.29169(18) 0.83916(17) 0.01358(17)
H18_12 H 0.3027 0.8364 0.0063
N11_12 N 0.27558(14) 0.82821(14) 0.01165(13)
N12_12 N 0.27191(12) 0.87654(15) 0.05668(13)
H19_12 H 0.2838 0.8795 0.0543
H20_12 H 0.2655 0.8829 0.0652
O9_12 O 0.21104(14) 0.79480(17) 0.02316(16)
O12_12 O 0.24168(11) 0.88807(12) 0.08232(10)
O15_12 O 0.19874(11) 0.86628(14) 0.06168(11)
Zn1_12 Zn 0.27014(2) 0.81033(2) 0.98946(2)
Zn2_12 Zn 0.275396(18) 0.87578(2) 0.936884(18)
N1_12 N 0.25630(14) 0.85658(14) 0.95012(12)
C1_12 C 0.26389(17) 0.84167(16) 0.95954(14)
H1_12 H 0.2767 0.8387 0.9566
N2_12 N 0.25514(13) 0.83038(12) 0.97283(12)
C2_12 C 0.23682(16) 0.83600(18) 0.97555(16)
C3_12 C 0.22682(17) 0.85175(18) 0.96633(16)
C4_12 C 0.23683(19) 0.86156(19) 0.95317(19)
N3_12 N 0.20834(12) 0.85412(15) 0.97379(13)
C5_12 C 0.20831(18) 0.83916(17) 0.98642(17)
H2_12 H 0.1973 0.8364 0.9937
N4_12 N 0.22442(14) 0.82821(14) 0.98835(13)
N5_12 N 0.22809(12) 0.87654(15) 0.94332(13)
H3_12 H 0.2162 0.8795 0.9457
H4_12 H 0.2345 0.8829 0.9348
O1_18 O 0.2500 0.79382(13) 1.0000
C6_12 C 0.3027(2) 0.8045(2) 0.9709(2)
O2_12 O 0.28896(14) 0.79480(17) 0.97684(16)
O3_12 O 0.30419(15) 0.82208(16) 0.97244(17)
C7_12 C 0.31824(18) 0.7939(2) 0.95977(17)
C8_12 C 0.33283(18) 0.80344(19) 0.9512(2)
H5_12 H 0.3332 0.8169 0.9518
C9_12 C 0.34767(19) 0.79351(18) 0.9412(2)
H6_12 H 0.3578 0.8005 0.9356
C10_12 C 0.34733(18) 0.77419(19) 0.9395(2)
C11_12 C 0.3319(2) 0.7652(2) 0.9471(3)
H7_12 H 0.3303 0.7520 0.9447
C12_12 C 0.3179(2) 0.7746(2) 0.9584(3)
H8_12 H 0.3084 0.7675 0.9649
C13_12 C 0.4070(2) 0.7322(2) 0.8988(2)
O4_12 O 0.41768(10) 0.74168(11) 0.88807(12)
O5_12 O 0.40833(18) 0.71475(14) 0.8996(2)
C14_12 C 0.39157(17) 0.74332(19) 0.90962(17)
C15_12 C 0.39123(18) 0.76226(18) 0.9099(2)
H9_12 H 0.4008 0.7692 0.9034
C16_12 C 0.3765(2) 0.77234(19) 0.9198(2)
H10_12 H 0.3768 0.7858 0.9200
C17_12 C 0.36214(18) 0.7634(2) 0.9290(2)
C18_12 C 0.3631(2) 0.7440(2) 0.9296(3)
H11_12 H 0.3544 0.7370 0.9371
C19_12 C 0.3772(2) 0.7344(2) 0.9191(3)
H12_12 H 0.3767 0.7209 0.9185
C20_12 C 0.3048(2) 0.8543(2) 0.9252(2)
O6_12 O 0.30126(11) 0.86628(14) 0.93832(11)
O7_12 O 0.29228(12) 0.84862(18) 0.91450(14)
C21_12 C 0.32589(17) 0.84894(15) 0.92114(16)
C22_12 C 0.33087(18) 0.83754(18) 0.90605(19)
H13_12 H 0.3212 0.8324 0.8982
C23_12 C 0.35018(18) 0.8334(2) 0.90208(19)
H14_12 H 0.3534 0.8257 0.8915
C24_12 C 0.36418(16) 0.84052(17) 0.91367(18)
C25_12 C 0.35932(18) 0.85179(17) 0.92890(17)
H15_12 H 0.3690 0.8566 0.9369
C26_12 C 0.34000(16) 0.85620(18) 0.93270(17)
H16_12 H 0.3368 0.8641 0.9431
Zn4_12 Zn 0.18967(2) 0.98946(2) 0.77014(2)
Zn6_12 Zn 0.186884(18) 0.87422(2) 0.974604(18)
Zn7_12 Zn 0.436884(18) 0.724604(18) 0.87578(2)
Zn8_12 Zn 0.474604(18) 0.813116(18) 0.87422(2)
N9_12 N 0.27621(13) 0.89588(15) 0.95834(12)
C32_12 C 0.1955(2) 0.9709(2) 0.8027(2)
O8_12 O 0.20520(17) 0.97684(16) 0.78896(14)
O10_12 O 0.17792(16) 0.97244(17) 0.80419(15)
C33_12 C 0.2061(2) 0.95977(17) 0.81824(18)
C34_12 C 0.19656(19) 0.9512(2) 0.83283(18)
H21_12 H 0.1831 0.9518 0.8332
C35_12 C 0.20649(18) 0.9412(2) 0.84767(19)
H22_12 H 0.1995 0.9356 0.8578
C36_12 C 0.22581(19) 0.9395(2) 0.84733(18)
C37_12 C 0.2348(2) 0.9471(3) 0.8319(2)
H23_12 H 0.2480 0.9447 0.8303
C38_12 C 0.2254(2) 0.9584(3) 0.8179(2)
H24_12 H 0.2325 0.9649 0.8084
C39_12 C 0.2678(2) 0.8988(2) 0.9070(2)
O11_12 O 0.25832(11) 0.88807(12) 0.91768(10)
O13_12 O 0.28525(14) 0.8996(2) 0.90833(18)
C40_12 C 0.25668(19) 0.90962(17) 0.89157(17)
C41_12 C 0.23774(18) 0.9099(2) 0.89123(18)
H25_12 H 0.2308 0.9034 0.9008
C42_12 C 0.22766(19) 0.9198(2) 0.8765(2)
H26_12 H 0.2142 0.9200 0.8768
C43_12 C 0.2366(2) 0.9290(2) 0.86214(18)
C44_12 C 0.2560(2) 0.9296(3) 0.8631(2)
H27_12 H 0.2630 0.9371 0.8544
C45_12 C 0.2656(2) 0.9191(3) 0.8772(2)
H28_12 H 0.2791 0.9185 0.8767
C46_12 C 0.4452(2) 0.8248(2) 0.8957(2)
O14_12 O 0.44874(11) 0.81168(11) 0.88372(14)
O16_12 O 0.45772(12) 0.83550(14) 0.90138(18)
C47_12 C 0.42411(17) 0.82886(16) 0.90106(15)
C48_12 C 0.41913(18) 0.84395(19) 0.91246(18)
H29_12 H 0.4288 0.8518 0.9176
C49_12 C 0.39982(18) 0.84792(19) 0.9166(2)
H30_12 H 0.3966 0.8585 0.9243
C50_12 C 0.38582(16) 0.83633(18) 0.90948(17)
C51_12 C 0.39068(18) 0.82110(17) 0.89821(17)
H31_12 H 0.3810 0.8131 0.8934
C52_12 C 0.41000(16) 0.81730(17) 0.89380(18)
H32_12 H 0.4132 0.8069 0.8859
C2_13 C 0.01318(16) 0.72555(16) 0.08600(18)
C3_13 C 0.02318(17) 0.71633(16) 0.10175(18)
C4_13 C 0.01317(19) 0.70317(19) 0.11156(19)
N3_13 N 0.04166(12) 0.72379(13) 0.10412(15)
C5_13 C 0.04169(18) 0.73642(17) 0.08916(17)
H2_13 H 0.0527 0.7437 0.0864
N4_13 N 0.02558(14) 0.73835(13) 0.07821(14)
N5_13 N 0.02191(12) 0.69332(13) 0.12654(15)
H3_13 H 0.0338 0.6957 0.1295
H4_13 H 0.0155 0.6848 0.1329
O1_19 O -0.0000 0.7500 0.04382(13)
Zn3_13 Zn 0.02014(2) 0.76054(2) 0.06033(2)
Zn4_13 Zn 0.06033(2) 0.52014(2) 0.23946(2)
Zn5_13 Zn 0.025396(18) 0.813116(18) 0.12578(2)
Zn6_13 Zn 0.063116(18) 0.724604(18) 0.12422(2)
N6_13 N 0.00630(14) 0.79988(12) 0.10658(14)
C27_13 C 0.01389(17) 0.79046(14) 0.09167(16)
H17_13 H 0.0267 0.7934 0.0887
N7_13 N 0.00514(13) 0.77717(12) 0.08038(12)
N10_13 N 0.02621(13) 0.79166(12) 0.14588(15)
C32_13 C 0.0545(2) 0.5527(2) 0.2209(2)
O8_13 O 0.04480(17) 0.53896(14) 0.22684(16)
O9_13 O 0.03896(14) 0.77316(16) 0.04480(17)
O10_13 O 0.07208(16) 0.55419(15) 0.22244(17)
C33_13 C 0.0439(2) 0.56824(18) 0.20977(17)
C34_13 C 0.05344(19) 0.58283(18) 0.2012(2)
H21_13 H 0.0669 0.5832 0.2018
C35_13 C 0.04351(18) 0.59767(19) 0.1912(2)
H22_13 H 0.0505 0.6078 0.1856
C36_13 C 0.02419(19) 0.59733(18) 0.1895(2)
C37_13 C 0.0152(2) 0.5819(2) 0.1971(3)
H23_13 H 0.0020 0.5803 0.1947
C38_13 C 0.0246(2) 0.5679(2) 0.2084(3)
H24_13 H 0.0175 0.5584 0.2149
O12_13 O 0.00832(11) 0.83232(10) 0.13807(12)
C41_13 C 0.01226(18) 0.64123(18) 0.1599(2)
H25_13 H 0.0192 0.6508 0.1534
C42_13 C 0.02234(19) 0.6265(2) 0.1698(2)
H26_13 H 0.0358 0.6268 0.1700
C43_13 C 0.0134(2) 0.61214(18) 0.1790(2)
O15_13 O 0.05126(11) 0.81168(11) 0.11628(14)
Zn1_13 Zn 0.97986(2) 0.73946(2) 0.06033(2)
N1_13 N 0.99370(14) 0.70012(12) 0.10658(14)
C1_13 C 0.98611(17) 0.70954(14) 0.09167(16)
H1_13 H 0.9733 0.7066 0.0887
N2_13 N 0.99486(13) 0.72283(12) 0.08038(12)
O1_20 O 1.0000 0.7500 0.04382(13)
C6_13 C 0.9473(2) 0.7209(2) 0.0545(2)
O2_13 O 0.96104(14) 0.72684(16) 0.04480(17)
O3_13 O 0.94581(15) 0.72244(17) 0.07208(16)
C7_13 C 0.93176(18) 0.70977(17) 0.0439(2)
C8_13 C 0.91717(18) 0.7012(2) 0.05344(19)
H5_13 H 0.9168 0.7018 0.0669
C9_13 C 0.90233(19) 0.6912(2) 0.04351(18)
H6_13 H 0.8922 0.6856 0.0505
C10_13 C 0.90267(18) 0.6895(2) 0.02419(19)
C11_13 C 0.9181(2) 0.6971(3) 0.0152(2)
H7_13 H 0.9197 0.6947 0.0020
C12_13 C 0.9321(2) 0.7084(3) 0.0246(2)
H8_13 H 0.9416 0.7149 0.0175
C15_13 C 0.85877(18) 0.6599(2) 0.01226(18)
H9_13 H 0.8492 0.6534 0.0192
C16_13 C 0.8735(2) 0.6698(2) 0.02234(19)
H10_13 H 0.8732 0.6700 0.0358
C17_13 C 0.88786(18) 0.6790(2) 0.0134(2)
C28_13 C 0.98682(16) 0.77445(16) 0.08600(18)
C29_13 C 0.97682(17) 0.78367(16) 0.10175(18)
C30_13 C 0.98683(19) 0.79683(19) 0.11156(19)
N8_13 N 0.95834(12) 0.77621(13) 0.10412(15)
N9_13 N 0.97379(13) 0.70834(12) 0.14588(15)
C31_13 C 0.95831(18) 0.76358(17) 0.08916(17)
H18_13 H 0.9473 0.7563 0.0864
N11_13 N 0.97442(14) 0.76165(13) 0.07821(14)
N12_13 N 0.97809(12) 0.80668(13) 0.12654(15)
H19_13 H 0.9662 0.8043 0.1295
H20_13 H 0.9845 0.8152 0.1329
C39_13 C 0.9822(2) 0.6570(2) 0.1488(2)
O11_13 O 0.99168(11) 0.66768(10) 0.13807(12)
O13_13 O 0.96475(14) 0.65833(18) 0.1496(2)
C40_13 C 0.99332(19) 0.64157(17) 0.15962(17)
C44_13 C 0.9940(2) 0.6131(2) 0.1796(3)
H27_13 H 0.9870 0.6044 0.1871
C45_13 C 0.9844(2) 0.6272(2) 0.1691(3)
H28_13 H 0.9709 0.6267 0.1685
C13_13 C 0.8430(2) 0.6488(2) 0.9822(2)
O4_13 O 0.83232(10) 0.63807(12) 0.99168(11)
O5_13 O 0.84167(18) 0.6496(2) 0.96475(14)
C14_13 C 0.85843(17) 0.65962(17) 0.99332(19)
C18_13 C 0.8869(2) 0.6796(3) 0.9940(2)
H11_13 H 0.8956 0.6871 0.9870
C19_13 C 0.8728(2) 0.6691(3) 0.9844(2)
H12_13 H 0.8733 0.6685 0.9709
Zn1_14 Zn 0.52014(2) 0.26054(2) 0.56033(2)
N1_14 N 0.50630(14) 0.29988(12) 0.60658(14)
C1_14 C 0.51389(17) 0.29046(14) 0.59167(16)
H1_14 H 0.5267 0.2934 0.5887
N2_14 N 0.50514(13) 0.27717(12) 0.58038(12)
C2_14 C 0.48682(16) 0.27445(16) 0.58600(18)
C3_14 C 0.47682(17) 0.28367(16) 0.60175(18)
C4_14 C 0.48683(19) 0.29683(19) 0.61156(19)
N3_14 N 0.45834(12) 0.27621(13) 0.60412(15)
C5_14 C 0.45831(18) 0.26358(17) 0.58916(17)
H2_14 H 0.4473 0.2563 0.5864
N4_14 N 0.47442(14) 0.26165(13) 0.57821(14)
N5_14 N 0.47809(12) 0.30668(13) 0.62654(15)
H3_14 H 0.4662 0.3043 0.6295
H4_14 H 0.4845 0.3152 0.6329
O1_21 O 0.5000 0.2500 0.54382(13)
C6_14 C 0.5527(2) 0.2791(2) 0.5545(2)
O2_14 O 0.53896(14) 0.27316(16) 0.54480(17)
O3_14 O 0.55419(15) 0.27756(17) 0.57208(16)
C7_14 C 0.56824(18) 0.29023(17) 0.5439(2)
C8_14 C 0.58283(18) 0.2988(2) 0.55344(19)
H5_14 H 0.5832 0.2982 0.5669
C9_14 C 0.59767(19) 0.3088(2) 0.54351(18)
H6_14 H 0.6078 0.3144 0.5505
C10_14 C 0.59733(18) 0.3105(2) 0.52419(19)
C11_14 C 0.5819(2) 0.3029(3) 0.5152(2)
H7_14 H 0.5803 0.3053 0.5020
C12_14 C 0.5679(2) 0.2916(3) 0.5246(2)
H8_14 H 0.5584 0.2851 0.5175
C13_14 C 0.6570(2) 0.3512(2) 0.4822(2)
O4_14 O 0.66768(10) 0.36193(12) 0.49168(11)
O5_14 O 0.65833(18) 0.3504(2) 0.46475(14)
C14_14 C 0.64157(17) 0.34038(17) 0.49332(19)
C15_14 C 0.64123(18) 0.3401(2) 0.51226(18)
H9_14 H 0.6508 0.3466 0.5192
C16_14 C 0.6265(2) 0.3302(2) 0.52234(19)
H10_14 H 0.6268 0.3300 0.5358
C17_14 C 0.61214(18) 0.3210(2) 0.5134(2)
C18_14 C 0.6131(2) 0.3204(3) 0.4940(2)
H11_14 H 0.6044 0.3129 0.4870
C19_14 C 0.6272(2) 0.3309(3) 0.4844(2)
H12_14 H 0.6267 0.3315 0.4709
Zn3_14 Zn 0.47986(2) 0.23946(2) 0.56033(2)
Zn4_14 Zn 0.43967(2) 0.47986(2) 0.73946(2)
Zn5_14 Zn 0.474604(18) 0.186884(18) 0.62578(2)
Zn6_14 Zn 0.436884(18) 0.275396(18) 0.62422(2)
N6_14 N 0.49370(14) 0.20012(12) 0.60658(14)
C27_14 C 0.48611(17) 0.20954(14) 0.59167(16)
H17_14 H 0.4733 0.2066 0.5887
N7_14 N 0.49486(13) 0.22283(12) 0.58038(12)
C28_14 C 0.51318(16) 0.22555(16) 0.58600(18)
C29_14 C 0.52318(17) 0.21633(16) 0.60175(18)
C30_14 C 0.51317(19) 0.20317(19) 0.61156(19)
N8_14 N 0.54166(12) 0.22379(13) 0.60412(15)
N9_14 N 0.52621(13) 0.29166(12) 0.64588(15)
N10_14 N 0.47379(13) 0.20834(12) 0.64588(15)
C31_14 C 0.54169(18) 0.23642(17) 0.58916(17)
H18_14 H 0.5527 0.2437 0.5864
N11_14 N 0.52558(14) 0.23835(13) 0.57821(14)
N12_14 N 0.52191(12) 0.19332(13) 0.62654(15)
H19_14 H 0.5338 0.1957 0.6295
H20_14 H 0.5155 0.1848 0.6329
C32_14 C 0.4455(2) 0.4473(2) 0.7209(2)
O8_14 O 0.45520(17) 0.46104(14) 0.72684(16)
O9_14 O 0.46104(14) 0.22684(16) 0.54480(17)
O10_14 O 0.42792(16) 0.44581(15) 0.72244(17)
C33_14 C 0.4561(2) 0.43176(18) 0.70977(17)
C34_14 C 0.44656(19) 0.41717(18) 0.7012(2)
H21_14 H 0.4331 0.4168 0.7018
C35_14 C 0.45649(18) 0.40233(19) 0.6912(2)
H22_14 H 0.4495 0.3922 0.6856
C36_14 C 0.47581(19) 0.40267(18) 0.6895(2)
C37_14 C 0.4848(2) 0.4181(2) 0.6971(3)
H23_14 H 0.4980 0.4197 0.6947
C38_14 C 0.4754(2) 0.4321(2) 0.7084(3)
H24_14 H 0.4825 0.4416 0.7149
C39_14 C 0.5178(2) 0.3430(2) 0.6488(2)
O11_14 O 0.50832(11) 0.33232(10) 0.63807(12)
O12_14 O 0.49168(11) 0.16768(10) 0.63807(12)
O13_14 O 0.53525(14) 0.34167(18) 0.6496(2)
C40_14 C 0.50668(19) 0.35843(17) 0.65962(17)
C41_14 C 0.48774(18) 0.35877(18) 0.6599(2)
H25_14 H 0.4808 0.3492 0.6534
C42_14 C 0.47766(19) 0.3735(2) 0.6698(2)
H26_14 H 0.4642 0.3732 0.6700
C43_14 C 0.4866(2) 0.38786(18) 0.6790(2)
C44_14 C 0.5060(2) 0.3869(2) 0.6796(3)
H27_14 H 0.5130 0.3956 0.6871
C45_14 C 0.5156(2) 0.3728(2) 0.6691(3)
H28_14 H 0.5291 0.3733 0.6685
O15_14 O 0.44874(11) 0.18832(11) 0.61628(14)
C13_15 C 0.3430(2) 0.8512(2) 0.0178(2)
O4_15 O 0.33232(10) 0.86193(12) 0.00832(11)
O5_15 O 0.34167(18) 0.8504(2) 0.03525(14)
C14_15 C 0.35843(17) 0.84038(17) 0.00668(19)
C18_15 C 0.3869(2) 0.8204(3) 0.0060(2)
H11_15 H 0.3956 0.8129 0.0130
C19_15 C 0.3728(2) 0.8309(3) 0.0156(2)
H12_15 H 0.3733 0.8315 0.0291
Zn1_15 Zn 0.47986(2) 0.76054(2) 0.93967(2)
N1_15 N 0.49370(14) 0.79988(12) 0.89342(14)
C1_15 C 0.48611(17) 0.79046(14) 0.90833(16)
H1_15 H 0.4733 0.7934 0.9113
N2_15 N 0.49486(13) 0.77717(12) 0.91962(12)
C2_15 C 0.51318(16) 0.77445(16) 0.91400(18)
C3_15 C 0.52318(17) 0.78367(16) 0.89825(18)
C4_15 C 0.51317(19) 0.79683(19) 0.88844(19)
N3_15 N 0.54166(12) 0.77621(13) 0.89588(15)
C5_15 C 0.54169(18) 0.76358(17) 0.91084(17)
H2_15 H 0.5527 0.7563 0.9136
N4_15 N 0.52558(14) 0.76165(13) 0.92179(14)
N5_15 N 0.52191(12) 0.80668(13) 0.87346(15)
H3_15 H 0.5338 0.8043 0.8705
H4_15 H 0.5155 0.8152 0.8671
O1_22 O 0.5000 0.7500 0.95618(13)
C6_15 C 0.4473(2) 0.7791(2) 0.9455(2)
O2_15 O 0.46104(14) 0.77316(16) 0.95520(17)
O3_15 O 0.44581(15) 0.77756(17) 0.92792(16)
C7_15 C 0.43176(18) 0.79023(17) 0.9561(2)
C8_15 C 0.41717(18) 0.7988(2) 0.94656(19)
H5_15 H 0.4168 0.7982 0.9331
C9_15 C 0.40233(19) 0.8088(2) 0.95649(18)
H6_15 H 0.3922 0.8144 0.9495
C10_15 C 0.40267(18) 0.8105(2) 0.97581(19)
C11_15 C 0.4181(2) 0.8029(3) 0.9848(2)
H7_15 H 0.4197 0.8053 0.9980
C12_15 C 0.4321(2) 0.7916(3) 0.9754(2)
H8_15 H 0.4416 0.7851 0.9825
C15_15 C 0.35877(18) 0.8401(2) 0.98774(18)
H9_15 H 0.3492 0.8466 0.9808
C16_15 C 0.3735(2) 0.8302(2) 0.97766(19)
H10_15 H 0.3732 0.8300 0.9642
C17_15 C 0.38786(18) 0.8210(2) 0.9866(2)
Zn3_15 Zn 0.52014(2) 0.73946(2) 0.93967(2)
Zn4_15 Zn 0.56033(2) 0.97986(2) 0.76054(2)
Zn5_15 Zn 0.525396(18) 0.686884(18) 0.87422(2)
Zn6_15 Zn 0.563116(18) 0.775396(18) 0.87578(2)
N6_15 N 0.50630(14) 0.70012(12) 0.89342(14)
C27_15 C 0.51389(17) 0.70954(14) 0.90833(16)
H17_15 H 0.5267 0.7066 0.9113
N7_15 N 0.50514(13) 0.72283(12) 0.91962(12)
C28_15 C 0.48682(16) 0.72555(16) 0.91400(18)
C29_15 C 0.47682(17) 0.71633(16) 0.89825(18)
C30_15 C 0.48683(19) 0.70317(19) 0.88844(19)
N8_15 N 0.45834(12) 0.72379(13) 0.89588(15)
N9_15 N 0.47379(13) 0.79166(12) 0.85412(15)
N10_15 N 0.52621(13) 0.70834(12) 0.85412(15)
C31_15 C 0.45831(18) 0.73642(17) 0.91084(17)
H18_15 H 0.4473 0.7437 0.9136
N11_15 N 0.47442(14) 0.73835(13) 0.92179(14)
N12_15 N 0.47809(12) 0.69332(13) 0.87346(15)
H19_15 H 0.4662 0.6957 0.8705
H20_15 H 0.4845 0.6848 0.8671
C32_15 C 0.5545(2) 0.9473(2) 0.7791(2)
O8_15 O 0.54480(17) 0.96104(14) 0.77316(16)
O9_15 O 0.53896(14) 0.72684(16) 0.95520(17)
O10_15 O 0.57208(16) 0.94581(15) 0.77756(17)
C33_15 C 0.5439(2) 0.93176(18) 0.79023(17)
C34_15 C 0.55344(19) 0.91717(18) 0.7988(2)
H21_15 H 0.5669 0.9168 0.7982
C35_15 C 0.54351(18) 0.90233(19) 0.8088(2)
H22_15 H 0.5505 0.8922 0.8144
C36_15 C 0.52419(19) 0.90267(18) 0.8105(2)
C37_15 C 0.5152(2) 0.9181(2) 0.8029(3)
H23_15 H 0.5020 0.9197 0.8053
C38_15 C 0.5246(2) 0.9321(2) 0.7916(3)
H24_15 H 0.5175 0.9416 0.7851
C39_15 C 0.4822(2) 0.8430(2) 0.8512(2)
O11_15 O 0.49168(11) 0.83232(10) 0.86193(12)
O12_15 O 0.50832(11) 0.66768(10) 0.86193(12)
O13_15 O 0.46475(14) 0.84167(18) 0.8504(2)
C40_15 C 0.49332(19) 0.85843(17) 0.84038(17)
C41_15 C 0.51226(18) 0.85877(18) 0.8401(2)
H25_15 H 0.5192 0.8492 0.8466
C42_15 C 0.52234(19) 0.8735(2) 0.8302(2)
H26_15 H 0.5358 0.8732 0.8300
C43_15 C 0.5134(2) 0.88786(18) 0.8210(2)
C44_15 C 0.4940(2) 0.8869(2) 0.8204(3)
H27_15 H 0.4870 0.8956 0.8129
C45_15 C 0.4844(2) 0.8728(2) 0.8309(3)
H28_15 H 0.4709 0.8733 0.8315
O15_15 O 0.55126(11) 0.68832(11) 0.88372(14)
Zn1_16 Zn 0.02014(2) 0.23946(2) 0.43967(2)
N1_16 N 0.00630(14) 0.20012(12) 0.39342(14)
C1_16 C 0.01389(17) 0.20954(14) 0.40833(16)
H1_16 H 0.0267 0.2066 0.4113
N2_16 N 0.00514(13) 0.22283(12) 0.41962(12)
O1_23 O 0.0000 0.2500 0.45618(13)
C6_16 C 0.0527(2) 0.2209(2) 0.4455(2)
O2_16 O 0.03896(14) 0.22684(16) 0.45520(17)
O3_16 O 0.05419(15) 0.22244(17) 0.42792(16)
C7_16 C 0.06824(18) 0.20977(17) 0.4561(2)
C8_16 C 0.08283(18) 0.2012(2) 0.44656(19)
H5_16 H 0.0832 0.2018 0.4331
C9_16 C 0.09767(19) 0.1912(2) 0.45649(18)
H6_16 H 0.1078 0.1856 0.4495
C10_16 C 0.09733(18) 0.1895(2) 0.47581(19)
C11_16 C 0.0819(2) 0.1971(3) 0.4848(2)
H7_16 H 0.0803 0.1947 0.4980
C12_16 C 0.0679(2) 0.2084(3) 0.4754(2)
H8_16 H 0.0584 0.2149 0.4825
C13_16 C 0.1570(2) 0.1488(2) 0.5178(2)
O4_16 O 0.16768(10) 0.13807(12) 0.50832(11)
O5_16 O 0.15833(18) 0.1496(2) 0.53525(14)
C14_16 C 0.14157(17) 0.15962(17) 0.50668(19)
C15_16 C 0.14123(18) 0.1599(2) 0.48774(18)
H9_16 H 0.1508 0.1534 0.4808
C16_16 C 0.1265(2) 0.1698(2) 0.47766(19)
H10_16 H 0.1268 0.1700 0.4642
C17_16 C 0.11214(18) 0.1790(2) 0.4866(2)
C18_16 C 0.1131(2) 0.1796(3) 0.5060(2)
H11_16 H 0.1044 0.1871 0.5130
C19_16 C 0.1272(2) 0.1691(3) 0.5156(2)
H12_16 H 0.1267 0.1685 0.5291
C28_16 C 0.01318(16) 0.27445(16) 0.41400(18)
C29_16 C 0.02318(17) 0.28367(16) 0.39825(18)
C30_16 C 0.01317(19) 0.29683(19) 0.38844(19)
N8_16 N 0.04166(12) 0.27621(13) 0.39588(15)
N9_16 N 0.02621(13) 0.20834(12) 0.35412(15)
C31_16 C 0.04169(18) 0.26358(17) 0.41084(17)
H18_16 H 0.0527 0.2563 0.4136
N11_16 N 0.02558(14) 0.26165(13) 0.42179(14)
N12_16 N 0.02191(12) 0.30668(13) 0.37346(15)
H19_16 H 0.0338 0.3043 0.3705
H20_16 H 0.0155 0.3152 0.3671
C39_16 C 0.0178(2) 0.1570(2) 0.3512(2)
O11_16 O 0.00832(11) 0.16768(10) 0.36193(12)
O13_16 O 0.03525(14) 0.15833(18) 0.3504(2)
C40_16 C 0.00668(19) 0.14157(17) 0.34038(17)
C44_16 C 0.0060(2) 0.1131(2) 0.3204(3)
H27_16 H 0.0130 0.1044 0.3129
C45_16 C 0.0156(2) 0.1272(2) 0.3309(3)
H28_16 H 0.0291 0.1267 0.3315
C2_16 C 0.98682(16) 0.22555(16) 0.41400(18)
C3_16 C 0.97682(17) 0.21633(16) 0.39825(18)
C4_16 C 0.98683(19) 0.20317(19) 0.38844(19)
N3_16 N 0.95834(12) 0.22379(13) 0.39588(15)
C5_16 C 0.95831(18) 0.23642(17) 0.41084(17)
H2_16 H 0.9473 0.2437 0.4136
N4_16 N 0.97442(14) 0.23835(13) 0.42179(14)
N5_16 N 0.97809(12) 0.19332(13) 0.37346(15)
H3_16 H 0.9662 0.1957 0.3705
H4_16 H 0.9845 0.1848 0.3671
O1_24 O 1.0000 0.2500 0.45618(13)
Zn3_16 Zn 0.97986(2) 0.26054(2) 0.43967(2)
Zn4_16 Zn 0.93967(2) 0.02014(2) 0.26054(2)
Zn5_16 Zn 0.974604(18) 0.313116(18) 0.37422(2)
Zn6_16 Zn 0.936884(18) 0.224604(18) 0.37578(2)
N6_16 N 0.99370(14) 0.29988(12) 0.39342(14)
C27_16 C 0.98611(17) 0.29046(14) 0.40833(16)
H17_16 H 0.9733 0.2934 0.4113
N7_16 N 0.99486(13) 0.27717(12) 0.41962(12)
N10_16 N 0.97379(13) 0.29166(12) 0.35412(15)
C32_16 C 0.9455(2) 0.0527(2) 0.2791(2)
O8_16 O 0.95520(17) 0.03896(14) 0.27316(16)
O9_16 O 0.96104(14) 0.27316(16) 0.45520(17)
O10_16 O 0.92792(16) 0.05419(15) 0.27756(17)
C33_16 C 0.9561(2) 0.06824(18) 0.29023(17)
C34_16 C 0.94656(19) 0.08283(18) 0.2988(2)
H21_16 H 0.9331 0.0832 0.2982
C35_16 C 0.95649(18) 0.09767(19) 0.3088(2)
H22_16 H 0.9495 0.1078 0.3144
C36_16 C 0.97581(19) 0.09733(18) 0.3105(2)
C37_16 C 0.9848(2) 0.0819(2) 0.3029(3)
H23_16 H 0.9980 0.0803 0.3053
C38_16 C 0.9754(2) 0.0679(2) 0.2916(3)
H24_16 H 0.9825 0.0584 0.2851
O12_16 O 0.99168(11) 0.33232(10) 0.36193(12)
C41_16 C 0.98774(18) 0.14123(18) 0.3401(2)
H25_16 H 0.9808 0.1508 0.3466
C42_16 C 0.97766(19) 0.1265(2) 0.3302(2)
H26_16 H 0.9642 0.1268 0.3300
C43_16 C 0.9866(2) 0.11214(18) 0.3210(2)
O15_16 O 0.94874(11) 0.31168(11) 0.38372(14)
Zn1_17 Zn 0.23946(2) 0.43967(2) 0.02014(2)
N1_17 N 0.20012(12) 0.39342(14) 0.00630(14)
C1_17 C 0.20954(14) 0.40833(16) 0.01389(17)
H1_17 H 0.2066 0.4113 0.0267
N2_17 N 0.22283(12) 0.41962(12) 0.00514(13)
O1_25 O 0.2500 0.45618(13) 0.0000
C6_17 C 0.2209(2) 0.4455(2) 0.0527(2)
O2_17 O 0.22684(16) 0.45520(17) 0.03896(14)
O3_17 O 0.22244(17) 0.42792(16) 0.05419(15)
C7_17 C 0.20977(17) 0.4561(2) 0.06824(18)
C8_17 C 0.2012(2) 0.44656(19) 0.08283(18)
H5_17 H 0.2018 0.4331 0.0832
C9_17 C 0.1912(2) 0.45649(18) 0.09767(19)
H6_17 H 0.1856 0.4495 0.1078
C10_17 C 0.1895(2) 0.47581(19) 0.09733(18)
C11_17 C 0.1971(3) 0.4848(2) 0.0819(2)
H7_17 H 0.1947 0.4980 0.0803
C12_17 C 0.2084(3) 0.4754(2) 0.0679(2)
H8_17 H 0.2149 0.4825 0.0584
C13_17 C 0.1488(2) 0.5178(2) 0.1570(2)
O4_17 O 0.13807(12) 0.50832(11) 0.16768(10)
O5_17 O 0.1496(2) 0.53525(14) 0.15833(18)
C14_17 C 0.15962(17) 0.50668(19) 0.14157(17)
C15_17 C 0.1599(2) 0.48774(18) 0.14123(18)
H9_17 H 0.1534 0.4808 0.1508
C16_17 C 0.1698(2) 0.47766(19) 0.1265(2)
H10_17 H 0.1700 0.4642 0.1268
C17_17 C 0.1790(2) 0.4866(2) 0.11214(18)
C18_17 C 0.1796(3) 0.5060(2) 0.1131(2)
H11_17 H 0.1871 0.5130 0.1044
C19_17 C 0.1691(3) 0.5156(2) 0.1272(2)
H12_17 H 0.1685 0.5291 0.1267
C28_17 C 0.27445(16) 0.41400(18) 0.01318(16)
C29_17 C 0.28367(16) 0.39825(18) 0.02318(17)
C30_17 C 0.29683(19) 0.38844(19) 0.01317(19)
N8_17 N 0.27621(13) 0.39588(15) 0.04166(12)
N9_17 N 0.20834(12) 0.35412(15) 0.02621(13)
C31_17 C 0.26358(17) 0.41084(17) 0.04169(18)
H18_17 H 0.2563 0.4136 0.0527
N11_17 N 0.26165(13) 0.42179(14) 0.02558(14)
N12_17 N 0.30668(13) 0.37346(15) 0.02191(12)
H19_17 H 0.3043 0.3705 0.0338
H20_17 H 0.3152 0.3671 0.0155
C39_17 C 0.1570(2) 0.3512(2) 0.0178(2)
O11_17 O 0.16768(10) 0.36193(12) 0.00832(11)
O13_17 O 0.15833(18) 0.3504(2) 0.03525(14)
C40_17 C 0.14157(17) 0.34038(17) 0.00668(19)
C44_17 C 0.1131(2) 0.3204(3) 0.0060(2)
H27_17 H 0.1044 0.3129 0.0130
C45_17 C 0.1272(2) 0.3309(3) 0.0156(2)
H28_17 H 0.1267 0.3315 0.0291
C2_17 C 0.22555(16) 0.41400(18) 0.98682(16)
C3_17 C 0.21633(16) 0.39825(18) 0.97682(17)
C4_17 C 0.20317(19) 0.38844(19) 0.98683(19)
N3_17 N 0.22379(13) 0.39588(15) 0.95834(12)
C5_17 C 0.23642(17) 0.41084(17) 0.95831(18)
H2_17 H 0.2437 0.4136 0.9473
N4_17 N 0.23835(13) 0.42179(14) 0.97442(14)
N5_17 N 0.19332(13) 0.37346(15) 0.97809(12)
H3_17 H 0.1957 0.3705 0.9662
H4_17 H 0.1848 0.3671 0.9845
O1_26 O 0.2500 0.45618(13) 1.0000
Zn3_17 Zn 0.26054(2) 0.43967(2) 0.97986(2)
Zn4_17 Zn 0.02014(2) 0.26054(2) 0.93967(2)
Zn5_17 Zn 0.313116(18) 0.37422(2) 0.974604(18)
Zn6_17 Zn 0.224604(18) 0.37578(2) 0.936884(18)
N6_17 N 0.29988(12) 0.39342(14) 0.99370(14)
C27_17 C 0.29046(14) 0.40833(16) 0.98611(17)
H17_17 H 0.2934 0.4113 0.9733
N7_17 N 0.27717(12) 0.41962(12) 0.99486(13)
N10_17 N 0.29166(12) 0.35412(15) 0.97379(13)
C32_17 C 0.0527(2) 0.2791(2) 0.9455(2)
O8_17 O 0.03896(14) 0.27316(16) 0.95520(17)
O9_17 O 0.27316(16) 0.45520(17) 0.96104(14)
O10_17 O 0.05419(15) 0.27756(17) 0.92792(16)
C33_17 C 0.06824(18) 0.29023(17) 0.9561(2)
C34_17 C 0.08283(18) 0.2988(2) 0.94656(19)
H21_17 H 0.0832 0.2982 0.9331
C35_17 C 0.09767(19) 0.3088(2) 0.95649(18)
H22_17 H 0.1078 0.3144 0.9495
C36_17 C 0.09733(18) 0.3105(2) 0.97581(19)
C37_17 C 0.0819(2) 0.3029(3) 0.9848(2)
H23_17 H 0.0803 0.3053 0.9980
C38_17 C 0.0679(2) 0.2916(3) 0.9754(2)
H24_17 H 0.0584 0.2851 0.9825
O12_17 O 0.33232(10) 0.36193(12) 0.99168(11)
C41_17 C 0.14123(18) 0.3401(2) 0.98774(18)
H25_17 H 0.1508 0.3466 0.9808
C42_17 C 0.1265(2) 0.3302(2) 0.97766(19)
H26_17 H 0.1268 0.3300 0.9642
C43_17 C 0.11214(18) 0.3210(2) 0.9866(2)
O15_17 O 0.31168(11) 0.38372(14) 0.94874(11)
C13_18 C 0.8512(2) 0.0178(2) 0.3430(2)
O4_18 O 0.86193(12) 0.00832(11) 0.33232(10)
O5_18 O 0.8504(2) 0.03525(14) 0.34167(18)
C14_18 C 0.84038(17) 0.00668(19) 0.35843(17)
C18_18 C 0.8204(3) 0.0060(2) 0.3869(2)
H11_18 H 0.8129 0.0130 0.3956
C19_18 C 0.8309(3) 0.0156(2) 0.3728(2)
H12_18 H 0.8315 0.0291 0.3733
Zn1_18 Zn 0.76054(2) 0.93967(2) 0.47986(2)
N1_18 N 0.79988(12) 0.89342(14) 0.49370(14)
C1_18 C 0.79046(14) 0.90833(16) 0.48611(17)
H1_18 H 0.7934 0.9113 0.4733
N2_18 N 0.77717(12) 0.91962(12) 0.49486(13)
C2_18 C 0.77445(16) 0.91400(18) 0.51318(16)
C3_18 C 0.78367(16) 0.89825(18) 0.52318(17)
C4_18 C 0.79683(19) 0.88844(19) 0.51317(19)
N3_18 N 0.77621(13) 0.89588(15) 0.54166(12)
C5_18 C 0.76358(17) 0.91084(17) 0.54169(18)
H2_18 H 0.7563 0.9136 0.5527
N4_18 N 0.76165(13) 0.92179(14) 0.52558(14)
N5_18 N 0.80668(13) 0.87346(15) 0.52191(12)
H3_18 H 0.8043 0.8705 0.5338
H4_18 H 0.8152 0.8671 0.5155
O1_27 O 0.7500 0.95618(13) 0.5000
C6_18 C 0.7791(2) 0.9455(2) 0.4473(2)
O2_18 O 0.77316(16) 0.95520(17) 0.46104(14)
O3_18 O 0.77756(17) 0.92792(16) 0.44581(15)
C7_18 C 0.79023(17) 0.9561(2) 0.43176(18)
C8_18 C 0.7988(2) 0.94656(19) 0.41717(18)
H5_18 H 0.7982 0.9331 0.4168
C9_18 C 0.8088(2) 0.95649(18) 0.40233(19)
H6_18 H 0.8144 0.9495 0.3922
C10_18 C 0.8105(2) 0.97581(19) 0.40267(18)
C11_18 C 0.8029(3) 0.9848(2) 0.4181(2)
H7_18 H 0.8053 0.9980 0.4197
C12_18 C 0.7916(3) 0.9754(2) 0.4321(2)
H8_18 H 0.7851 0.9825 0.4416
C15_18 C 0.8401(2) 0.98774(18) 0.35877(18)
H9_18 H 0.8466 0.9808 0.3492
C16_18 C 0.8302(2) 0.97766(19) 0.3735(2)
H10_18 H 0.8300 0.9642 0.3732
C17_18 C 0.8210(2) 0.9866(2) 0.38786(18)
Zn3_18 Zn 0.73946(2) 0.93967(2) 0.52014(2)
Zn4_18 Zn 0.97986(2) 0.76054(2) 0.56033(2)
Zn5_18 Zn 0.686884(18) 0.87422(2) 0.525396(18)
Zn6_18 Zn 0.775396(18) 0.87578(2) 0.563116(18)
N6_18 N 0.70012(12) 0.89342(14) 0.50630(14)
C27_18 C 0.70954(14) 0.90833(16) 0.51389(17)
H17_18 H 0.7066 0.9113 0.5267
N7_18 N 0.72283(12) 0.91962(12) 0.50514(13)
C28_18 C 0.72555(16) 0.91400(18) 0.48682(16)
C29_18 C 0.71633(16) 0.89825(18) 0.47682(17)
C30_18 C 0.70317(19) 0.88844(19) 0.48683(19)
N8_18 N 0.72379(13) 0.89588(15) 0.45834(12)
N9_18 N 0.79166(12) 0.85412(15) 0.47379(13)
N10_18 N 0.70834(12) 0.85412(15) 0.52621(13)
C31_18 C 0.73642(17) 0.91084(17) 0.45831(18)
H18_18 H 0.7437 0.9136 0.4473
N11_18 N 0.73835(13) 0.92179(14) 0.47442(14)
N12_18 N 0.69332(13) 0.87346(15) 0.47809(12)
H19_18 H 0.6957 0.8705 0.4662
H20_18 H 0.6848 0.8671 0.4845
C32_18 C 0.9473(2) 0.7791(2) 0.5545(2)
O8_18 O 0.96104(14) 0.77316(16) 0.54480(17)
O9_18 O 0.72684(16) 0.95520(17) 0.53896(14)
O10_18 O 0.94581(15) 0.77756(17) 0.57208(16)
C33_18 C 0.93176(18) 0.79023(17) 0.5439(2)
C34_18 C 0.91717(18) 0.7988(2) 0.55344(19)
H21_18 H 0.9168 0.7982 0.5669
C35_18 C 0.90233(19) 0.8088(2) 0.54351(18)
H22_18 H 0.8922 0.8144 0.5505
C36_18 C 0.90267(18) 0.8105(2) 0.52419(19)
C37_18 C 0.9181(2) 0.8029(3) 0.5152(2)
H23_18 H 0.9197 0.8053 0.5020
C38_18 C 0.9321(2) 0.7916(3) 0.5246(2)
H24_18 H 0.9416 0.7851 0.5175
C39_18 C 0.8430(2) 0.8512(2) 0.4822(2)
O11_18 O 0.83232(10) 0.86193(12) 0.49168(11)
O12_18 O 0.66768(10) 0.86193(12) 0.50832(11)
O13_18 O 0.84167(18) 0.8504(2) 0.46475(14)
C40_18 C 0.85843(17) 0.84038(17) 0.49332(19)
C41_18 C 0.85877(18) 0.8401(2) 0.51226(18)
H25_18 H 0.8492 0.8466 0.5192
C42_18 C 0.8735(2) 0.8302(2) 0.52234(19)
H26_18 H 0.8732 0.8300 0.5358
C43_18 C 0.88786(18) 0.8210(2) 0.5134(2)
C44_18 C 0.8869(2) 0.8204(3) 0.4940(2)
H27_18 H 0.8956 0.8129 0.4870
C45_18 C 0.8728(2) 0.8309(3) 0.4844(2)
H28_18 H 0.8733 0.8315 0.4709
O15_18 O 0.68832(11) 0.88372(14) 0.55126(11)
Zn1_19 Zn 0.26054(2) 0.56033(2) 0.52014(2)
N1_19 N 0.29988(12) 0.60658(14) 0.50630(14)
C1_19 C 0.29046(14) 0.59167(16) 0.51389(17)
H1_19 H 0.2934 0.5887 0.5267
N2_19 N 0.27717(12) 0.58038(12) 0.50514(13)
C2_19 C 0.27445(16) 0.58600(18) 0.48682(16)
C3_19 C 0.28367(16) 0.60175(18) 0.47682(17)
C4_19 C 0.29683(19) 0.61156(19) 0.48683(19)
N3_19 N 0.27621(13) 0.60412(15) 0.45834(12)
C5_19 C 0.26358(17) 0.58916(17) 0.45831(18)
H2_19 H 0.2563 0.5864 0.4473
N4_19 N 0.26165(13) 0.57821(14) 0.47442(14)
N5_19 N 0.30668(13) 0.62654(15) 0.47809(12)
H3_19 H 0.3043 0.6295 0.4662
H4_19 H 0.3152 0.6329 0.4845
O1_28 O 0.2500 0.54382(13) 0.5000
C6_19 C 0.2791(2) 0.5545(2) 0.5527(2)
O2_19 O 0.27316(16) 0.54480(17) 0.53896(14)
O3_19 O 0.27756(17) 0.57208(16) 0.55419(15)
C7_19 C 0.29023(17) 0.5439(2) 0.56824(18)
C8_19 C 0.2988(2) 0.55344(19) 0.58283(18)
H5_19 H 0.2982 0.5669 0.5832
C9_19 C 0.3088(2) 0.54351(18) 0.59767(19)
H6_19 H 0.3144 0.5505 0.6078
C10_19 C 0.3105(2) 0.52419(19) 0.59733(18)
C11_19 C 0.3029(3) 0.5152(2) 0.5819(2)
H7_19 H 0.3053 0.5020 0.5803
C12_19 C 0.2916(3) 0.5246(2) 0.5679(2)
H8_19 H 0.2851 0.5175 0.5584
C13_19 C 0.3512(2) 0.4822(2) 0.6570(2)
O4_19 O 0.36193(12) 0.49168(11) 0.66768(10)
O5_19 O 0.3504(2) 0.46475(14) 0.65833(18)
C14_19 C 0.34038(17) 0.49332(19) 0.64157(17)
C15_19 C 0.3401(2) 0.51226(18) 0.64123(18)
H9_19 H 0.3466 0.5192 0.6508
C16_19 C 0.3302(2) 0.52234(19) 0.6265(2)
H10_19 H 0.3300 0.5358 0.6268
C17_19 C 0.3210(2) 0.5134(2) 0.61214(18)
C18_19 C 0.3204(3) 0.4940(2) 0.6131(2)
H11_19 H 0.3129 0.4870 0.6044
C19_19 C 0.3309(3) 0.4844(2) 0.6272(2)
H12_19 H 0.3315 0.4709 0.6267
Zn3_19 Zn 0.23946(2) 0.56033(2) 0.47986(2)
Zn4_19 Zn 0.47986(2) 0.73946(2) 0.43967(2)
Zn5_19 Zn 0.186884(18) 0.62578(2) 0.474604(18)
Zn6_19 Zn 0.275396(18) 0.62422(2) 0.436884(18)
N6_19 N 0.20012(12) 0.60658(14) 0.49370(14)
C27_19 C 0.20954(14) 0.59167(16) 0.48611(17)
H17_19 H 0.2066 0.5887 0.4733
N7_19 N 0.22283(12) 0.58038(12) 0.49486(13)
C28_19 C 0.22555(16) 0.58600(18) 0.51318(16)
C29_19 C 0.21633(16) 0.60175(18) 0.52318(17)
C30_19 C 0.20317(19) 0.61156(19) 0.51317(19)
N8_19 N 0.22379(13) 0.60412(15) 0.54166(12)
N9_19 N 0.29166(12) 0.64588(15) 0.52621(13)
N10_19 N 0.20834(12) 0.64588(15) 0.47379(13)
C31_19 C 0.23642(17) 0.58916(17) 0.54169(18)
H18_19 H 0.2437 0.5864 0.5527
N11_19 N 0.23835(13) 0.57821(14) 0.52558(14)
N12_19 N 0.19332(13) 0.62654(15) 0.52191(12)
H19_19 H 0.1957 0.6295 0.5338
H20_19 H 0.1848 0.6329 0.5155
C32_19 C 0.4473(2) 0.7209(2) 0.4455(2)
O8_19 O 0.46104(14) 0.72684(16) 0.45520(17)
O9_19 O 0.22684(16) 0.54480(17) 0.46104(14)
O10_19 O 0.44581(15) 0.72244(17) 0.42792(16)
C33_19 C 0.43176(18) 0.70977(17) 0.4561(2)
C34_19 C 0.41717(18) 0.7012(2) 0.44656(19)
H21_19 H 0.4168 0.7018 0.4331
C35_19 C 0.40233(19) 0.6912(2) 0.45649(18)
H22_19 H 0.3922 0.6856 0.4495
C36_19 C 0.40267(18) 0.6895(2) 0.47581(19)
C37_19 C 0.4181(2) 0.6971(3) 0.4848(2)
H23_19 H 0.4197 0.6947 0.4980
C38_19 C 0.4321(2) 0.7084(3) 0.4754(2)
H24_19 H 0.4416 0.7149 0.4825
C39_19 C 0.3430(2) 0.6488(2) 0.5178(2)
O11_19 O 0.33232(10) 0.63807(12) 0.50832(11)
O12_19 O 0.16768(10) 0.63807(12) 0.49168(11)
O13_19 O 0.34167(18) 0.6496(2) 0.53525(14)
C40_19 C 0.35843(17) 0.65962(17) 0.50668(19)
C41_19 C 0.35877(18) 0.6599(2) 0.48774(18)
H25_19 H 0.3492 0.6534 0.4808
C42_19 C 0.3735(2) 0.6698(2) 0.47766(19)
H26_19 H 0.3732 0.6700 0.4642
C43_19 C 0.38786(18) 0.6790(2) 0.4866(2)
C44_19 C 0.3869(2) 0.6796(3) 0.5060(2)
H27_19 H 0.3956 0.6871 0.5130
C45_19 C 0.3728(2) 0.6691(3) 0.5156(2)
H28_19 H 0.3733 0.6685 0.5291
O15_19 O 0.18832(11) 0.61628(14) 0.44874(11)
C2_20 C 0.72555(16) 0.08600(18) 0.01318(16)
C3_20 C 0.71633(16) 0.10175(18) 0.02318(17)
C4_20 C 0.70317(19) 0.11156(19) 0.01317(19)
N3_20 N 0.72379(13) 0.10412(15) 0.04166(12)
C5_20 C 0.73642(17) 0.08916(17) 0.04169(18)
H2_20 H 0.7437 0.0864 0.0527
N4_20 N 0.73835(13) 0.07821(14) 0.02558(14)
N5_20 N 0.69332(13) 0.12654(15) 0.02191(12)
H3_20 H 0.6957 0.1295 0.0338
H4_20 H 0.6848 0.1329 0.0155
O1_29 O 0.7500 0.04382(13) 0.0000
Zn3_20 Zn 0.76054(2) 0.06033(2) 0.02014(2)
Zn4_20 Zn 0.52014(2) 0.23946(2) 0.06033(2)
Zn5_20 Zn 0.813116(18) 0.12578(2) 0.025396(18)
Zn6_20 Zn 0.724604(18) 0.12422(2) 0.063116(18)
N6_20 N 0.79988(12) 0.10658(14) 0.00630(14)
C27_20 C 0.79046(14) 0.09167(16) 0.01389(17)
H17_20 H 0.7934 0.0887 0.0267
N7_20 N 0.77717(12) 0.08038(12) 0.00514(13)
N10_20 N 0.79166(12) 0.14588(15) 0.02621(13)
C32_20 C 0.5527(2) 0.2209(2) 0.0545(2)
O8_20 O 0.53896(14) 0.22684(16) 0.04480(17)
O9_20 O 0.77316(16) 0.04480(17) 0.03896(14)
O10_20 O 0.55419(15) 0.22244(17) 0.07208(16)
C33_20 C 0.56824(18) 0.20977(17) 0.0439(2)
C34_20 C 0.58283(18) 0.2012(2) 0.05344(19)
H21_20 H 0.5832 0.2018 0.0669
C35_20 C 0.59767(19) 0.1912(2) 0.04351(18)
H22_20 H 0.6078 0.1856 0.0505
C36_20 C 0.59733(18) 0.1895(2) 0.02419(19)
C37_20 C 0.5819(2) 0.1971(3) 0.0152(2)
H23_20 H 0.5803 0.1947 0.0020
C38_20 C 0.5679(2) 0.2084(3) 0.0246(2)
H24_20 H 0.5584 0.2149 0.0175
O12_20 O 0.83232(10) 0.13807(12) 0.00832(11)
C41_20 C 0.64123(18) 0.1599(2) 0.01226(18)
H25_20 H 0.6508 0.1534 0.0192
C42_20 C 0.6265(2) 0.1698(2) 0.02234(19)
H26_20 H 0.6268 0.1700 0.0358
C43_20 C 0.61214(18) 0.1790(2) 0.0134(2)
O15_20 O 0.81168(11) 0.11628(14) 0.05126(11)
Zn1_20 Zn 0.73946(2) 0.06033(2) 0.97986(2)
N1_20 N 0.70012(12) 0.10658(14) 0.99370(14)
C1_20 C 0.70954(14) 0.09167(16) 0.98611(17)
H1_20 H 0.7066 0.0887 0.9733
N2_20 N 0.72283(12) 0.08038(12) 0.99486(13)
O1_30 O 0.7500 0.04382(13) 1.0000
C6_20 C 0.7209(2) 0.0545(2) 0.9473(2)
O2_20 O 0.72684(16) 0.04480(17) 0.96104(14)
O3_20 O 0.72244(17) 0.07208(16) 0.94581(15)
C7_20 C 0.70977(17) 0.0439(2) 0.93176(18)
C8_20 C 0.7012(2) 0.05344(19) 0.91717(18)
H5_20 H 0.7018 0.0669 0.9168
C9_20 C 0.6912(2) 0.04351(18) 0.90233(19)
H6_20 H 0.6856 0.0505 0.8922
C10_20 C 0.6895(2) 0.02419(19) 0.90267(18)
C11_20 C 0.6971(3) 0.0152(2) 0.9181(2)
H7_20 H 0.6947 0.0020 0.9197
C12_20 C 0.7084(3) 0.0246(2) 0.9321(2)
H8_20 H 0.7149 0.0175 0.9416
C15_20 C 0.6599(2) 0.01226(18) 0.85877(18)
H9_20 H 0.6534 0.0192 0.8492
C16_20 C 0.6698(2) 0.02234(19) 0.8735(2)
H10_20 H 0.6700 0.0358 0.8732
C17_20 C 0.6790(2) 0.0134(2) 0.88786(18)
C28_20 C 0.77445(16) 0.08600(18) 0.98682(16)
C29_20 C 0.78367(16) 0.10175(18) 0.97682(17)
C30_20 C 0.79683(19) 0.11156(19) 0.98683(19)
N8_20 N 0.77621(13) 0.10412(15) 0.95834(12)
N9_20 N 0.70834(12) 0.14588(15) 0.97379(13)
C31_20 C 0.76358(17) 0.08916(17) 0.95831(18)
H18_20 H 0.7563 0.0864 0.9473
N11_20 N 0.76165(13) 0.07821(14) 0.97442(14)
N12_20 N 0.80668(13) 0.12654(15) 0.97809(12)
H19_20 H 0.8043 0.1295 0.9662
H20_20 H 0.8152 0.1329 0.9845
C39_20 C 0.6570(2) 0.1488(2) 0.9822(2)
O11_20 O 0.66768(10) 0.13807(12) 0.99168(11)
O13_20 O 0.65833(18) 0.1496(2) 0.96475(14)
C40_20 C 0.64157(17) 0.15962(17) 0.99332(19)
C44_20 C 0.6131(2) 0.1796(3) 0.9940(2)
H27_20 H 0.6044 0.1871 0.9870
C45_20 C 0.6272(2) 0.1691(3) 0.9844(2)
H28_20 H 0.6267 0.1685 0.9709
C13_20 C 0.6488(2) 0.9822(2) 0.8430(2)
O4_20 O 0.63807(12) 0.99168(11) 0.83232(10)
O5_20 O 0.6496(2) 0.96475(14) 0.84167(18)
C14_20 C 0.65962(17) 0.99332(19) 0.85843(17)
C18_20 C 0.6796(3) 0.9940(2) 0.8869(2)
H11_20 H 0.6871 0.9870 0.8956
C19_20 C 0.6691(3) 0.9844(2) 0.8728(2)
H12_20 H 0.6685 0.9709 0.8733
C13_21 C 0.0178(2) 0.3430(2) 0.8512(2)
O4_21 O 0.00832(11) 0.33232(10) 0.86193(12)
O5_21 O 0.03525(14) 0.34167(18) 0.8504(2)
C14_21 C 0.00668(19) 0.35843(17) 0.84038(17)
C18_21 C 0.0060(2) 0.3869(2) 0.8204(3)
H11_21 H 0.0130 0.3956 0.8129
C19_21 C 0.0156(2) 0.3728(2) 0.8309(3)
H12_21 H 0.0291 0.3733 0.8315
Zn1_21 Zn 0.93967(2) 0.47986(2) 0.76054(2)
N1_21 N 0.89342(14) 0.49370(14) 0.79988(12)
C1_21 C 0.90833(16) 0.48611(17) 0.79046(14)
H1_21 H 0.9113 0.4733 0.7934
N2_21 N 0.91962(12) 0.49486(13) 0.77717(12)
C2_21 C 0.91400(18) 0.51318(16) 0.77445(16)
C3_21 C 0.89825(18) 0.52318(17) 0.78367(16)
C4_21 C 0.88844(19) 0.51317(19) 0.79683(19)
N3_21 N 0.89588(15) 0.54166(12) 0.77621(13)
C5_21 C 0.91084(17) 0.54169(18) 0.76358(17)
H2_21 H 0.9136 0.5527 0.7563
N4_21 N 0.92179(14) 0.52558(14) 0.76165(13)
N5_21 N 0.87346(15) 0.52191(12) 0.80668(13)
H3_21 H 0.8705 0.5338 0.8043
H4_21 H 0.8671 0.5155 0.8152
O1_31 O 0.95618(13) 0.5000 0.7500
C6_21 C 0.9455(2) 0.4473(2) 0.7791(2)
O2_21 O 0.95520(17) 0.46104(14) 0.77316(16)
O3_21 O 0.92792(16) 0.44581(15) 0.77756(17)
C7_21 C 0.9561(2) 0.43176(18) 0.79023(17)
C8_21 C 0.94656(19) 0.41717(18) 0.7988(2)
H5_21 H 0.9331 0.4168 0.7982
C9_21 C 0.95649(18) 0.40233(19) 0.8088(2)
H6_21 H 0.9495 0.3922 0.8144
C10_21 C 0.97581(19) 0.40267(18) 0.8105(2)
C11_21 C 0.9848(2) 0.4181(2) 0.8029(3)
H7_21 H 0.9980 0.4197 0.8053
C12_21 C 0.9754(2) 0.4321(2) 0.7916(3)
H8_21 H 0.9825 0.4416 0.7851
C15_21 C 0.98774(18) 0.35877(18) 0.8401(2)
H9_21 H 0.9808 0.3492 0.8466
C16_21 C 0.97766(19) 0.3735(2) 0.8302(2)
H10_21 H 0.9642 0.3732 0.8300
C17_21 C 0.9866(2) 0.38786(18) 0.8210(2)
Zn3_21 Zn 0.93967(2) 0.52014(2) 0.73946(2)
Zn4_21 Zn 0.76054(2) 0.56033(2) 0.97986(2)
Zn5_21 Zn 0.87422(2) 0.525396(18) 0.686884(18)
Zn6_21 Zn 0.87578(2) 0.563116(18) 0.775396(18)
N6_21 N 0.89342(14) 0.50630(14) 0.70012(12)
C27_21 C 0.90833(16) 0.51389(17) 0.70954(14)
H17_21 H 0.9113 0.5267 0.7066
N7_21 N 0.91962(12) 0.50514(13) 0.72283(12)
C28_21 C 0.91400(18) 0.48682(16) 0.72555(16)
C29_21 C 0.89825(18) 0.47682(17) 0.71633(16)
C30_21 C 0.88844(19) 0.48683(19) 0.70317(19)
N8_21 N 0.89588(15) 0.45834(12) 0.72379(13)
N9_21 N 0.85412(15) 0.47379(13) 0.79166(12)
N10_21 N 0.85412(15) 0.52621(13) 0.70834(12)
C31_21 C 0.91084(17) 0.45831(18) 0.73642(17)
H18_21 H 0.9136 0.4473 0.7437
N11_21 N 0.92179(14) 0.47442(14) 0.73835(13)
N12_21 N 0.87346(15) 0.47809(12) 0.69332(13)
H19_21 H 0.8705 0.4662 0.6957
H20_21 H 0.8671 0.4845 0.6848
C32_21 C 0.7791(2) 0.5545(2) 0.9473(2)
O8_21 O 0.77316(16) 0.54480(17) 0.96104(14)
O9_21 O 0.95520(17) 0.53896(14) 0.72684(16)
O10_21 O 0.77756(17) 0.57208(16) 0.94581(15)
C33_21 C 0.79023(17) 0.5439(2) 0.93176(18)
C34_21 C 0.7988(2) 0.55344(19) 0.91717(18)
H21_21 H 0.7982 0.5669 0.9168
C35_21 C 0.8088(2) 0.54351(18) 0.90233(19)
H22_21 H 0.8144 0.5505 0.8922
C36_21 C 0.8105(2) 0.52419(19) 0.90267(18)
C37_21 C 0.8029(3) 0.5152(2) 0.9181(2)
H23_21 H 0.8053 0.5020 0.9197
C38_21 C 0.7916(3) 0.5246(2) 0.9321(2)
H24_21 H 0.7851 0.5175 0.9416
C39_21 C 0.8512(2) 0.4822(2) 0.8430(2)
O11_21 O 0.86193(12) 0.49168(11) 0.83232(10)
O12_21 O 0.86193(12) 0.50832(11) 0.66768(10)
O13_21 O 0.8504(2) 0.46475(14) 0.84167(18)
C40_21 C 0.84038(17) 0.49332(19) 0.85843(17)
C41_21 C 0.8401(2) 0.51226(18) 0.85877(18)
H25_21 H 0.8466 0.5192 0.8492
C42_21 C 0.8302(2) 0.52234(19) 0.8735(2)
H26_21 H 0.8300 0.5358 0.8732
C43_21 C 0.8210(2) 0.5134(2) 0.88786(18)
C44_21 C 0.8204(3) 0.4940(2) 0.8869(2)
H27_21 H 0.8129 0.4870 0.8956
C45_21 C 0.8309(3) 0.4844(2) 0.8728(2)
H28_21 H 0.8315 0.4709 0.8733
O15_21 O 0.88372(14) 0.55126(11) 0.68832(11)
Zn1_22 Zn 0.43967(2) 0.02014(2) 0.23946(2)
N1_22 N 0.39342(14) 0.00630(14) 0.20012(12)
C1_22 C 0.40833(16) 0.01389(17) 0.20954(14)
H1_22 H 0.4113 0.0267 0.2066
N2_22 N 0.41962(12) 0.00514(13) 0.22283(12)
O1_32 O 0.45618(13) 0.0000 0.2500
C6_22 C 0.4455(2) 0.0527(2) 0.2209(2)
O2_22 O 0.45520(17) 0.03896(14) 0.22684(16)
O3_22 O 0.42792(16) 0.05419(15) 0.22244(17)
C7_22 C 0.4561(2) 0.06824(18) 0.20977(17)
C8_22 C 0.44656(19) 0.08283(18) 0.2012(2)
H5_22 H 0.4331 0.0832 0.2018
C9_22 C 0.45649(18) 0.09767(19) 0.1912(2)
H6_22 H 0.4495 0.1078 0.1856
C10_22 C 0.47581(19) 0.09733(18) 0.1895(2)
C11_22 C 0.4848(2) 0.0819(2) 0.1971(3)
H7_22 H 0.4980 0.0803 0.1947
C12_22 C 0.4754(2) 0.0679(2) 0.2084(3)
H8_22 H 0.4825 0.0584 0.2149
C13_22 C 0.5178(2) 0.1570(2) 0.1488(2)
O4_22 O 0.50832(11) 0.16768(10) 0.13807(12)
O5_22 O 0.53525(14) 0.15833(18) 0.1496(2)
C14_22 C 0.50668(19) 0.14157(17) 0.15962(17)
C15_22 C 0.48774(18) 0.14123(18) 0.1599(2)
H9_22 H 0.4808 0.1508 0.1534
C16_22 C 0.47766(19) 0.1265(2) 0.1698(2)
H10_22 H 0.4642 0.1268 0.1700
C17_22 C 0.4866(2) 0.11214(18) 0.1790(2)
C18_22 C 0.5060(2) 0.1131(2) 0.1796(3)
H11_22 H 0.5130 0.1044 0.1871
C19_22 C 0.5156(2) 0.1272(2) 0.1691(3)
H12_22 H 0.5291 0.1267 0.1685
C28_22 C 0.41400(18) 0.01318(16) 0.27445(16)
C29_22 C 0.39825(18) 0.02318(17) 0.28367(16)
C30_22 C 0.38844(19) 0.01317(19) 0.29683(19)
N8_22 N 0.39588(15) 0.04166(12) 0.27621(13)
N9_22 N 0.35412(15) 0.02621(13) 0.20834(12)
C31_22 C 0.41084(17) 0.04169(18) 0.26358(17)
H18_22 H 0.4136 0.0527 0.2563
N11_22 N 0.42179(14) 0.02558(14) 0.26165(13)
N12_22 N 0.37346(15) 0.02191(12) 0.30668(13)
H19_22 H 0.3705 0.0338 0.3043
H20_22 H 0.3671 0.0155 0.3152
C39_22 C 0.3512(2) 0.0178(2) 0.1570(2)
O11_22 O 0.36193(12) 0.00832(11) 0.16768(10)
O13_22 O 0.3504(2) 0.03525(14) 0.15833(18)
C40_22 C 0.34038(17) 0.00668(19) 0.14157(17)
C44_22 C 0.3204(3) 0.0060(2) 0.1131(2)
H27_22 H 0.3129 0.0130 0.1044
C45_22 C 0.3309(3) 0.0156(2) 0.1272(2)
H28_22 H 0.3315 0.0291 0.1267
C2_22 C 0.41400(18) 0.98682(16) 0.22555(16)
C3_22 C 0.39825(18) 0.97682(17) 0.21633(16)
C4_22 C 0.38844(19) 0.98683(19) 0.20317(19)
N3_22 N 0.39588(15) 0.95834(12) 0.22379(13)
C5_22 C 0.41084(17) 0.95831(18) 0.23642(17)
H2_22 H 0.4136 0.9473 0.2437
N4_22 N 0.42179(14) 0.97442(14) 0.23835(13)
N5_22 N 0.37346(15) 0.97809(12) 0.19332(13)
H3_22 H 0.3705 0.9662 0.1957
H4_22 H 0.3671 0.9845 0.1848
O1_33 O 0.45618(13) 1.0000 0.2500
Zn3_22 Zn 0.43967(2) 0.97986(2) 0.26054(2)
Zn4_22 Zn 0.26054(2) 0.93967(2) 0.02014(2)
Zn5_22 Zn 0.37422(2) 0.974604(18) 0.313116(18)
Zn6_22 Zn 0.37578(2) 0.936884(18) 0.224604(18)
N6_22 N 0.39342(14) 0.99370(14) 0.29988(12)
C27_22 C 0.40833(16) 0.98611(17) 0.29046(14)
H17_22 H 0.4113 0.9733 0.2934
N7_22 N 0.41962(12) 0.99486(13) 0.27717(12)
N10_22 N 0.35412(15) 0.97379(13) 0.29166(12)
C32_22 C 0.2791(2) 0.9455(2) 0.0527(2)
O8_22 O 0.27316(16) 0.95520(17) 0.03896(14)
O9_22 O 0.45520(17) 0.96104(14) 0.27316(16)
O10_22 O 0.27756(17) 0.92792(16) 0.05419(15)
C33_22 C 0.29023(17) 0.9561(2) 0.06824(18)
C34_22 C 0.2988(2) 0.94656(19) 0.08283(18)
H21_22 H 0.2982 0.9331 0.0832
C35_22 C 0.3088(2) 0.95649(18) 0.09767(19)
H22_22 H 0.3144 0.9495 0.1078
C36_22 C 0.3105(2) 0.97581(19) 0.09733(18)
C37_22 C 0.3029(3) 0.9848(2) 0.0819(2)
H23_22 H 0.3053 0.9980 0.0803
C38_22 C 0.2916(3) 0.9754(2) 0.0679(2)
H24_22 H 0.2851 0.9825 0.0584
O12_22 O 0.36193(12) 0.99168(11) 0.33232(10)
C41_22 C 0.3401(2) 0.98774(18) 0.14123(18)
H25_22 H 0.3466 0.9808 0.1508
C42_22 C 0.3302(2) 0.97766(19) 0.1265(2)
H26_22 H 0.3300 0.9642 0.1268
C43_22 C 0.3210(2) 0.9866(2) 0.11214(18)
O15_22 O 0.38372(14) 0.94874(11) 0.31168(11)
C2_23 C 0.08600(18) 0.01318(16) 0.72555(16)
C3_23 C 0.10175(18) 0.02318(17) 0.71633(16)
C4_23 C 0.11156(19) 0.01317(19) 0.70317(19)
N3_23 N 0.10412(15) 0.04166(12) 0.72379(13)
C5_23 C 0.08916(17) 0.04169(18) 0.73642(17)
H2_23 H 0.0864 0.0527 0.7437
N4_23 N 0.07821(14) 0.02558(14) 0.73835(13)
N5_23 N 0.12654(15) 0.02191(12) 0.69332(13)
H3_23 H 0.1295 0.0338 0.6957
H4_23 H 0.1329 0.0155 0.6848
O1_34 O 0.04382(13) 0.0000 0.7500
Zn3_23 Zn 0.06033(2) 0.02014(2) 0.76054(2)
Zn4_23 Zn 0.23946(2) 0.06033(2) 0.52014(2)
Zn5_23 Zn 0.12578(2) 0.025396(18) 0.813116(18)
Zn6_23 Zn 0.12422(2) 0.063116(18) 0.724604(18)
N6_23 N 0.10658(14) 0.00630(14) 0.79988(12)
C27_23 C 0.09167(16) 0.01389(17) 0.79046(14)
H17_23 H 0.0887 0.0267 0.7934
N7_23 N 0.08038(12) 0.00514(13) 0.77717(12)
N10_23 N 0.14588(15) 0.02621(13) 0.79166(12)
C32_23 C 0.2209(2) 0.0545(2) 0.5527(2)
O8_23 O 0.22684(16) 0.04480(17) 0.53896(14)
O9_23 O 0.04480(17) 0.03896(14) 0.77316(16)
O10_23 O 0.22244(17) 0.07208(16) 0.55419(15)
C33_23 C 0.20977(17) 0.0439(2) 0.56824(18)
C34_23 C 0.2012(2) 0.05344(19) 0.58283(18)
H21_23 H 0.2018 0.0669 0.5832
C35_23 C 0.1912(2) 0.04351(18) 0.59767(19)
H22_23 H 0.1856 0.0505 0.6078
C36_23 C 0.1895(2) 0.02419(19) 0.59733(18)
C37_23 C 0.1971(3) 0.0152(2) 0.5819(2)
H23_23 H 0.1947 0.0020 0.5803
C38_23 C 0.2084(3) 0.0246(2) 0.5679(2)
H24_23 H 0.2149 0.0175 0.5584
O12_23 O 0.13807(12) 0.00832(11) 0.83232(10)
C41_23 C 0.1599(2) 0.01226(18) 0.64123(18)
H25_23 H 0.1534 0.0192 0.6508
C42_23 C 0.1698(2) 0.02234(19) 0.6265(2)
H26_23 H 0.1700 0.0358 0.6268
C43_23 C 0.1790(2) 0.0134(2) 0.61214(18)
O15_23 O 0.11628(14) 0.05126(11) 0.81168(11)
Zn1_23 Zn 0.06033(2) 0.97986(2) 0.73946(2)
N1_23 N 0.10658(14) 0.99370(14) 0.70012(12)
C1_23 C 0.09167(16) 0.98611(17) 0.70954(14)
H1_23 H 0.0887 0.9733 0.7066
N2_23 N 0.08038(12) 0.99486(13) 0.72283(12)
O1_35 O 0.04382(13) 1.0000 0.7500
C6_23 C 0.0545(2) 0.9473(2) 0.7209(2)
O2_23 O 0.04480(17) 0.96104(14) 0.72684(16)
O3_23 O 0.07208(16) 0.94581(15) 0.72244(17)
C7_23 C 0.0439(2) 0.93176(18) 0.70977(17)
C8_23 C 0.05344(19) 0.91717(18) 0.7012(2)
H5_23 H 0.0669 0.9168 0.7018
C9_23 C 0.04351(18) 0.90233(19) 0.6912(2)
H6_23 H 0.0505 0.8922 0.6856
C10_23 C 0.02419(19) 0.90267(18) 0.6895(2)
C11_23 C 0.0152(2) 0.9181(2) 0.6971(3)
H7_23 H 0.0020 0.9197 0.6947
C12_23 C 0.0246(2) 0.9321(2) 0.7084(3)
H8_23 H 0.0175 0.9416 0.7149
C15_23 C 0.01226(18) 0.85877(18) 0.6599(2)
H9_23 H 0.0192 0.8492 0.6534
C16_23 C 0.02234(19) 0.8735(2) 0.6698(2)
H10_23 H 0.0358 0.8732 0.6700
C17_23 C 0.0134(2) 0.88786(18) 0.6790(2)
C28_23 C 0.08600(18) 0.98682(16) 0.77445(16)
C29_23 C 0.10175(18) 0.97682(17) 0.78367(16)
C30_23 C 0.11156(19) 0.98683(19) 0.79683(19)
N8_23 N 0.10412(15) 0.95834(12) 0.77621(13)
N9_23 N 0.14588(15) 0.97379(13) 0.70834(12)
C31_23 C 0.08916(17) 0.95831(18) 0.76358(17)
H18_23 H 0.0864 0.9473 0.7563
N11_23 N 0.07821(14) 0.97442(14) 0.76165(13)
N12_23 N 0.12654(15) 0.97809(12) 0.80668(13)
H19_23 H 0.1295 0.9662 0.8043
H20_23 H 0.1329 0.9845 0.8152
C39_23 C 0.1488(2) 0.9822(2) 0.6570(2)
O11_23 O 0.13807(12) 0.99168(11) 0.66768(10)
O13_23 O 0.1496(2) 0.96475(14) 0.65833(18)
C40_23 C 0.15962(17) 0.99332(19) 0.64157(17)
C44_23 C 0.1796(3) 0.9940(2) 0.6131(2)
H27_23 H 0.1871 0.9870 0.6044
C45_23 C 0.1691(3) 0.9844(2) 0.6272(2)
H28_23 H 0.1685 0.9709 0.6267
C13_23 C 0.9822(2) 0.8430(2) 0.6488(2)
O4_23 O 0.99168(11) 0.83232(10) 0.63807(12)
O5_23 O 0.96475(14) 0.84167(18) 0.6496(2)
C14_23 C 0.99332(19) 0.85843(17) 0.65962(17)
C18_23 C 0.9940(2) 0.8869(2) 0.6796(3)
H11_23 H 0.9870 0.8956 0.6871
C19_23 C 0.9844(2) 0.8728(2) 0.6691(3)
H12_23 H 0.9709 0.8733 0.6685
Zn1_24 Zn 0.56033(2) 0.52014(2) 0.26054(2)
N1_24 N 0.60658(14) 0.50630(14) 0.29988(12)
C1_24 C 0.59167(16) 0.51389(17) 0.29046(14)
H1_24 H 0.5887 0.5267 0.2934
N2_24 N 0.58038(12) 0.50514(13) 0.27717(12)
C2_24 C 0.58600(18) 0.48682(16) 0.27445(16)
C3_24 C 0.60175(18) 0.47682(17) 0.28367(16)
C4_24 C 0.61156(19) 0.48683(19) 0.29683(19)
N3_24 N 0.60412(15) 0.45834(12) 0.27621(13)
C5_24 C 0.58916(17) 0.45831(18) 0.26358(17)
H2_24 H 0.5864 0.4473 0.2563
N4_24 N 0.57821(14) 0.47442(14) 0.26165(13)
N5_24 N 0.62654(15) 0.47809(12) 0.30668(13)
H3_24 H 0.6295 0.4662 0.3043
H4_24 H 0.6329 0.4845 0.3152
O1_36 O 0.54382(13) 0.5000 0.2500
C6_24 C 0.5545(2) 0.5527(2) 0.2791(2)
O2_24 O 0.54480(17) 0.53896(14) 0.27316(16)
O3_24 O 0.57208(16) 0.55419(15) 0.27756(17)
C7_24 C 0.5439(2) 0.56824(18) 0.29023(17)
C8_24 C 0.55344(19) 0.58283(18) 0.2988(2)
H5_24 H 0.5669 0.5832 0.2982
C9_24 C 0.54351(18) 0.59767(19) 0.3088(2)
H6_24 H 0.5505 0.6078 0.3144
C10_24 C 0.52419(19) 0.59733(18) 0.3105(2)
C11_24 C 0.5152(2) 0.5819(2) 0.3029(3)
H7_24 H 0.5020 0.5803 0.3053
C12_24 C 0.5246(2) 0.5679(2) 0.2916(3)
H8_24 H 0.5175 0.5584 0.2851
C13_24 C 0.4822(2) 0.6570(2) 0.3512(2)
O4_24 O 0.49168(11) 0.66768(10) 0.36193(12)
O5_24 O 0.46475(14) 0.65833(18) 0.3504(2)
C14_24 C 0.49332(19) 0.64157(17) 0.34038(17)
C15_24 C 0.51226(18) 0.64123(18) 0.3401(2)
H9_24 H 0.5192 0.6508 0.3466
C16_24 C 0.52234(19) 0.6265(2) 0.3302(2)
H10_24 H 0.5358 0.6268 0.3300
C17_24 C 0.5134(2) 0.61214(18) 0.3210(2)
C18_24 C 0.4940(2) 0.6131(2) 0.3204(3)
H11_24 H 0.4870 0.6044 0.3129
C19_24 C 0.4844(2) 0.6272(2) 0.3309(3)
H12_24 H 0.4709 0.6267 0.3315
Zn3_24 Zn 0.56033(2) 0.47986(2) 0.23946(2)
Zn4_24 Zn 0.73946(2) 0.43967(2) 0.47986(2)
Zn5_24 Zn 0.62578(2) 0.474604(18) 0.186884(18)
Zn6_24 Zn 0.62422(2) 0.436884(18) 0.275396(18)
N6_24 N 0.60658(14) 0.49370(14) 0.20012(12)
C27_24 C 0.59167(16) 0.48611(17) 0.20954(14)
H17_24 H 0.5887 0.4733 0.2066
N7_24 N 0.58038(12) 0.49486(13) 0.22283(12)
C28_24 C 0.58600(18) 0.51318(16) 0.22555(16)
C29_24 C 0.60175(18) 0.52318(17) 0.21633(16)
C30_24 C 0.61156(19) 0.51317(19) 0.20317(19)
N8_24 N 0.60412(15) 0.54166(12) 0.22379(13)
N9_24 N 0.64588(15) 0.52621(13) 0.29166(12)
N10_24 N 0.64588(15) 0.47379(13) 0.20834(12)
C31_24 C 0.58916(17) 0.54169(18) 0.23642(17)
H18_24 H 0.5864 0.5527 0.2437
N11_24 N 0.57821(14) 0.52558(14) 0.23835(13)
N12_24 N 0.62654(15) 0.52191(12) 0.19332(13)
H19_24 H 0.6295 0.5338 0.1957
H20_24 H 0.6329 0.5155 0.1848
C32_24 C 0.7209(2) 0.4455(2) 0.4473(2)
O8_24 O 0.72684(16) 0.45520(17) 0.46104(14)
O9_24 O 0.54480(17) 0.46104(14) 0.22684(16)
O10_24 O 0.72244(17) 0.42792(16) 0.44581(15)
C33_24 C 0.70977(17) 0.4561(2) 0.43176(18)
C34_24 C 0.7012(2) 0.44656(19) 0.41717(18)
H21_24 H 0.7018 0.4331 0.4168
C35_24 C 0.6912(2) 0.45649(18) 0.40233(19)
H22_24 H 0.6856 0.4495 0.3922
C36_24 C 0.6895(2) 0.47581(19) 0.40267(18)
C37_24 C 0.6971(3) 0.4848(2) 0.4181(2)
H23_24 H 0.6947 0.4980 0.4197
C38_24 C 0.7084(3) 0.4754(2) 0.4321(2)
H24_24 H 0.7149 0.4825 0.4416
C39_24 C 0.6488(2) 0.5178(2) 0.3430(2)
O11_24 O 0.63807(12) 0.50832(11) 0.33232(10)
O12_24 O 0.63807(12) 0.49168(11) 0.16768(10)
O13_24 O 0.6496(2) 0.53525(14) 0.34167(18)
C40_24 C 0.65962(17) 0.50668(19) 0.35843(17)
C41_24 C 0.6599(2) 0.48774(18) 0.35877(18)
H25_24 H 0.6534 0.4808 0.3492
C42_24 C 0.6698(2) 0.47766(19) 0.3735(2)
H26_24 H 0.6700 0.4642 0.3732
C43_24 C 0.6790(2) 0.4866(2) 0.38786(18)
C44_24 C 0.6796(3) 0.5060(2) 0.3869(2)
H27_24 H 0.6871 0.5130 0.3956
C45_24 C 0.6691(3) 0.5156(2) 0.3728(2)
H28_24 H 0.6685 0.5291 0.3733
O15_24 O 0.61628(14) 0.44874(11) 0.18832(11)
C6_25 C 0.9709(2) 0.6973(2) 0.6955(2)
O3_25 O 0.97244(17) 0.69581(15) 0.67792(16)
C7_25 C 0.95977(17) 0.68176(18) 0.7061(2)
C8_25 C 0.9512(2) 0.66717(18) 0.69656(19)
H5_25 H 0.9518 0.6668 0.6831
C9_25 C 0.9412(2) 0.65233(19) 0.70649(18)
H6_25 H 0.9356 0.6422 0.6995
C10_25 C 0.9395(2) 0.65267(18) 0.72581(19)
C11_25 C 0.9471(3) 0.6681(2) 0.7348(2)
H7_25 H 0.9447 0.6697 0.7480
C12_25 C 0.9584(3) 0.6821(2) 0.7254(2)
H8_25 H 0.9649 0.6916 0.7325
C13_25 C 0.8988(2) 0.5930(2) 0.7678(2)
O4_25 O 0.88807(12) 0.58232(10) 0.75832(11)
O5_25 O 0.8996(2) 0.59167(18) 0.78525(14)
C14_25 C 0.90962(17) 0.60843(17) 0.75668(19)
C15_25 C 0.9099(2) 0.60877(18) 0.73774(18)
H9_25 H 0.9034 0.5992 0.7308
C16_25 C 0.9198(2) 0.6235(2) 0.72766(19)
H10_25 H 0.9200 0.6232 0.7142
C17_25 C 0.9290(2) 0.63786(18) 0.7366(2)
C18_25 C 0.9296(3) 0.6369(2) 0.7560(2)
H11_25 H 0.9371 0.6456 0.7630
C19_25 C 0.9191(3) 0.6228(2) 0.7656(2)
H12_25 H 0.9185 0.6233 0.7791
C20_13 C 0.9252(2) 0.6952(2) 0.6457(2)
O7_13 O 0.91450(14) 0.70772(12) 0.65138(18)
C21_13 C 0.92114(16) 0.67411(17) 0.65106(15)
C22_13 C 0.90605(19) 0.66913(18) 0.66246(18)
H13_13 H 0.8982 0.6788 0.6676
C23_13 C 0.90208(19) 0.64982(18) 0.6666(2)
H14_13 H 0.8915 0.6466 0.6743
C24_13 C 0.91367(18) 0.63582(16) 0.65948(17)
C25_13 C 0.92890(17) 0.64068(18) 0.64821(17)
H15_13 H 0.9369 0.6310 0.6434
C26_13 C 0.93270(17) 0.66000(16) 0.64380(18)
H16_13 H 0.9431 0.6632 0.6359
Zn4_25 Zn 0.77014(2) 0.81033(2) 0.51054(2)
C32_25 C 0.8027(2) 0.8045(2) 0.5291(2)
O8_25 O 0.78896(14) 0.79480(17) 0.52316(16)
O10_25 O 0.80419(15) 0.82208(16) 0.52756(17)
C33_25 C 0.81824(18) 0.7939(2) 0.54023(17)
C34_25 C 0.83283(18) 0.80344(19) 0.5488(2)
H21_25 H 0.8332 0.8169 0.5482
C35_25 C 0.84767(19) 0.79351(18) 0.5588(2)
H22_25 H 0.8578 0.8005 0.5644
C36_25 C 0.84733(18) 0.77419(19) 0.5605(2)
C37_25 C 0.8319(2) 0.7652(2) 0.5529(3)
H23_25 H 0.8303 0.7520 0.5553
C38_25 C 0.8179(2) 0.7746(2) 0.5416(3)
H24_25 H 0.8084 0.7675 0.5351
C39_25 C 0.9070(2) 0.7322(2) 0.6012(2)
O13_25 O 0.90833(18) 0.71475(14) 0.6004(2)
C40_25 C 0.89157(17) 0.74332(19) 0.59038(17)
C41_25 C 0.89123(18) 0.76226(18) 0.5901(2)
H25_25 H 0.9008 0.7692 0.5966
C42_25 C 0.8765(2) 0.77234(19) 0.5802(2)
H26_25 H 0.8768 0.7858 0.5800
C43_25 C 0.86214(18) 0.7634(2) 0.5710(2)
C44_25 C 0.8631(2) 0.7440(2) 0.5704(3)
H27_25 H 0.8544 0.7370 0.5629
C45_25 C 0.8772(2) 0.7344(2) 0.5809(3)
H28_25 H 0.8767 0.7209 0.5815
C46_13 C 0.8957(2) 0.5548(2) 0.6752(2)
O16_13 O 0.90138(18) 0.54228(12) 0.66450(14)
C47_13 C 0.90106(15) 0.57589(17) 0.67114(16)
C48_13 C 0.91246(18) 0.58087(18) 0.65605(19)
H29_13 H 0.9176 0.5712 0.6482
C49_13 C 0.9166(2) 0.60018(18) 0.65208(19)
H30_13 H 0.9243 0.6034 0.6415
C50_13 C 0.90948(17) 0.61418(16) 0.66367(18)
C51_13 C 0.89821(17) 0.60932(18) 0.67890(17)
H31_13 H 0.8934 0.6190 0.6869
C52_13 C 0.89380(18) 0.59000(16) 0.68270(17)
H32_13 H 0.8859 0.5868 0.6931
C6_26 C 0.5291(2) 0.3027(2) 0.1955(2)
O3_26 O 0.52756(17) 0.30419(15) 0.17792(16)
C7_26 C 0.54023(17) 0.31824(18) 0.2061(2)
C8_26 C 0.5488(2) 0.33283(18) 0.19656(19)
H5_26 H 0.5482 0.3332 0.1831
C9_26 C 0.5588(2) 0.34767(19) 0.20649(18)
H6_26 H 0.5644 0.3578 0.1995
C10_26 C 0.5605(2) 0.34733(18) 0.22581(19)
C11_26 C 0.5529(3) 0.3319(2) 0.2348(2)
H7_26 H 0.5553 0.3303 0.2480
C12_26 C 0.5416(3) 0.3179(2) 0.2254(2)
H8_26 H 0.5351 0.3084 0.2325
C13_26 C 0.6012(2) 0.4070(2) 0.2678(2)
O4_26 O 0.61193(12) 0.41768(10) 0.25832(11)
O5_26 O 0.6004(2) 0.40833(18) 0.28525(14)
C14_26 C 0.59038(17) 0.39157(17) 0.25668(19)
C15_26 C 0.5901(2) 0.39123(18) 0.23774(18)
H9_26 H 0.5966 0.4008 0.2308
C16_26 C 0.5802(2) 0.3765(2) 0.22766(19)
H10_26 H 0.5800 0.3768 0.2142
C17_26 C 0.5710(2) 0.36214(18) 0.2366(2)
C18_26 C 0.5704(3) 0.3631(2) 0.2560(2)
H11_26 H 0.5629 0.3544 0.2630
C19_26 C 0.5809(3) 0.3772(2) 0.2656(2)
H12_26 H 0.5815 0.3767 0.2791
C20_14 C 0.5748(2) 0.3048(2) 0.1457(2)
O7_14 O 0.58550(14) 0.29228(12) 0.15138(18)
C21_14 C 0.57886(16) 0.32589(17) 0.15106(15)
C22_14 C 0.59395(19) 0.33087(18) 0.16246(18)
H13_14 H 0.6018 0.3212 0.1676
C23_14 C 0.59792(19) 0.35018(18) 0.1666(2)
H14_14 H 0.6085 0.3534 0.1743
C24_14 C 0.58633(18) 0.36418(16) 0.15948(17)
C25_14 C 0.57110(17) 0.35932(18) 0.14821(17)
H15_14 H 0.5631 0.3690 0.1434
C26_14 C 0.56730(17) 0.34000(16) 0.14380(18)
H16_14 H 0.5569 0.3368 0.1359
Zn4_26 Zn 0.72986(2) 0.18967(2) 0.01054(2)
C32_26 C 0.6973(2) 0.1955(2) 0.0291(2)
O8_26 O 0.71104(14) 0.20520(17) 0.02316(16)
O10_26 O 0.69581(15) 0.17792(16) 0.02756(17)
C33_26 C 0.68176(18) 0.2061(2) 0.04023(17)
C34_26 C 0.66717(18) 0.19656(19) 0.0488(2)
H21_26 H 0.6668 0.1831 0.0482
C35_26 C 0.65233(19) 0.20649(18) 0.0588(2)
H22_26 H 0.6422 0.1995 0.0644
C36_26 C 0.65267(18) 0.22581(19) 0.0605(2)
C37_26 C 0.6681(2) 0.2348(2) 0.0529(3)
H23_26 H 0.6697 0.2480 0.0553
C38_26 C 0.6821(2) 0.2254(2) 0.0416(3)
H24_26 H 0.6916 0.2325 0.0351
C39_26 C 0.5930(2) 0.2678(2) 0.1012(2)
O13_26 O 0.59167(18) 0.28525(14) 0.1004(2)
C40_26 C 0.60843(17) 0.25668(19) 0.09038(17)
C41_26 C 0.60877(18) 0.23774(18) 0.0901(2)
H25_26 H 0.5992 0.2308 0.0966
C42_26 C 0.6235(2) 0.22766(19) 0.0802(2)
H26_26 H 0.6232 0.2142 0.0800
C43_26 C 0.63786(18) 0.2366(2) 0.0710(2)
C44_26 C 0.6369(2) 0.2560(2) 0.0704(3)
H27_26 H 0.6456 0.2630 0.0629
C45_26 C 0.6228(2) 0.2656(2) 0.0809(3)
H28_26 H 0.6233 0.2791 0.0815
C46_14 C 0.6043(2) 0.4452(2) 0.1752(2)
O16_14 O 0.59862(18) 0.45772(12) 0.16450(14)
C47_14 C 0.59894(15) 0.42411(17) 0.17114(16)
C48_14 C 0.58754(18) 0.41913(18) 0.15605(19)
H29_14 H 0.5824 0.4288 0.1482
C49_14 C 0.5834(2) 0.39982(18) 0.15208(19)
H30_14 H 0.5757 0.3966 0.1415
C50_14 C 0.59052(17) 0.38582(16) 0.16367(18)
C51_14 C 0.60179(17) 0.39068(18) 0.17890(17)
H31_14 H 0.6066 0.3810 0.1869
C52_14 C 0.60620(18) 0.41000(16) 0.18270(17)
H32_14 H 0.6141 0.4132 0.1931
C6_27 C 0.0291(2) 0.1973(2) 0.8045(2)
O3_27 O 0.02756(17) 0.19581(15) 0.82208(16)
C7_27 C 0.04023(17) 0.18176(18) 0.7939(2)
C8_27 C 0.0488(2) 0.16717(18) 0.80344(19)
H5_27 H 0.0482 0.1668 0.8169
C9_27 C 0.0588(2) 0.15233(19) 0.79351(18)
H6_27 H 0.0644 0.1422 0.8005
C10_27 C 0.0605(2) 0.15267(18) 0.77419(19)
C11_27 C 0.0529(3) 0.1681(2) 0.7652(2)
H7_27 H 0.0553 0.1697 0.7520
C12_27 C 0.0416(3) 0.1821(2) 0.7746(2)
H8_27 H 0.0351 0.1916 0.7675
C13_27 C 0.1012(2) 0.0930(2) 0.7322(2)
O4_27 O 0.11193(12) 0.08232(10) 0.74168(11)
O5_27 O 0.1004(2) 0.09167(18) 0.71475(14)
C14_27 C 0.09038(17) 0.10843(17) 0.74332(19)
C15_27 C 0.0901(2) 0.10877(18) 0.76226(18)
H9_27 H 0.0966 0.0992 0.7692
C16_27 C 0.0802(2) 0.1235(2) 0.77234(19)
H10_27 H 0.0800 0.1232 0.7858
C17_27 C 0.0710(2) 0.13786(18) 0.7634(2)
C18_27 C 0.0704(3) 0.1369(2) 0.7440(2)
H11_27 H 0.0629 0.1456 0.7370
C19_27 C 0.0809(3) 0.1228(2) 0.7344(2)
H12_27 H 0.0815 0.1233 0.7209
C20_15 C 0.0748(2) 0.1952(2) 0.8543(2)
O7_15 O 0.08550(14) 0.20772(12) 0.84862(18)
C21_15 C 0.07886(16) 0.17411(17) 0.84894(15)
C22_15 C 0.09395(19) 0.16913(18) 0.83754(18)
H13_15 H 0.1018 0.1788 0.8324
C23_15 C 0.09792(19) 0.14982(18) 0.8334(2)
H14_15 H 0.1085 0.1466 0.8257
C24_15 C 0.08633(18) 0.13582(16) 0.84052(17)
C25_15 C 0.07110(17) 0.14068(18) 0.85179(17)
H15_15 H 0.0631 0.1310 0.8566
C26_15 C 0.06730(17) 0.16000(16) 0.85620(18)
H16_15 H 0.0569 0.1632 0.8641
Zn4_27 Zn 0.22986(2) 0.31033(2) 0.98946(2)
C32_27 C 0.1973(2) 0.3045(2) 0.9709(2)
O8_27 O 0.21104(14) 0.29480(17) 0.97684(16)
O10_27 O 0.19581(15) 0.32208(16) 0.97244(17)
C33_27 C 0.18176(18) 0.2939(2) 0.95977(17)
C34_27 C 0.16717(18) 0.30344(19) 0.9512(2)
H21_27 H 0.1668 0.3169 0.9518
C35_27 C 0.15233(19) 0.29351(18) 0.9412(2)
H22_27 H 0.1422 0.3005 0.9356
C36_27 C 0.15267(18) 0.27419(19) 0.9395(2)
C37_27 C 0.1681(2) 0.2652(2) 0.9471(3)
H23_27 H 0.1697 0.2520 0.9447
C38_27 C 0.1821(2) 0.2746(2) 0.9584(3)
H24_27 H 0.1916 0.2675 0.9649
C39_27 C 0.0930(2) 0.2322(2) 0.8988(2)
O13_27 O 0.09167(18) 0.21475(14) 0.8996(2)
C40_27 C 0.10843(17) 0.24332(19) 0.90962(17)
C41_27 C 0.10877(18) 0.26226(18) 0.9099(2)
H25_27 H 0.0992 0.2692 0.9034
C42_27 C 0.1235(2) 0.27234(19) 0.9198(2)
H26_27 H 0.1232 0.2858 0.9200
C43_27 C 0.13786(18) 0.2634(2) 0.9290(2)
C44_27 C 0.1369(2) 0.2440(2) 0.9296(3)
H27_27 H 0.1456 0.2370 0.9371
C45_27 C 0.1228(2) 0.2344(2) 0.9191(3)
H28_27 H 0.1233 0.2209 0.9185
C46_15 C 0.1043(2) 0.0548(2) 0.8248(2)
O16_15 O 0.09862(18) 0.04228(12) 0.83550(14)
C47_15 C 0.09894(15) 0.07589(17) 0.82886(16)
C48_15 C 0.08754(18) 0.08087(18) 0.84395(19)
H29_15 H 0.0824 0.0712 0.8518
C49_15 C 0.0834(2) 0.10018(18) 0.84792(19)
H30_15 H 0.0757 0.1034 0.8585
C50_15 C 0.09052(17) 0.11418(16) 0.83633(18)
C51_15 C 0.10179(17) 0.10932(18) 0.82110(17)
H31_15 H 0.1066 0.1190 0.8131
C52_15 C 0.10620(18) 0.09000(16) 0.81730(17)
H32_15 H 0.1141 0.0868 0.8069
C6_28 C 0.4709(2) 0.8027(2) 0.3045(2)
O3_28 O 0.47244(17) 0.80419(15) 0.32208(16)
C7_28 C 0.45977(17) 0.81824(18) 0.2939(2)
C8_28 C 0.4512(2) 0.83283(18) 0.30344(19)
H5_28 H 0.4518 0.8332 0.3169
C9_28 C 0.4412(2) 0.84767(19) 0.29351(18)
H6_28 H 0.4356 0.8578 0.3005
C10_28 C 0.4395(2) 0.84733(18) 0.27419(19)
C11_28 C 0.4471(3) 0.8319(2) 0.2652(2)
H7_28 H 0.4447 0.8303 0.2520
C12_28 C 0.4584(3) 0.8179(2) 0.2746(2)
H8_28 H 0.4649 0.8084 0.2675
C13_28 C 0.3988(2) 0.9070(2) 0.2322(2)
O4_28 O 0.38807(12) 0.91768(10) 0.24168(11)
O5_28 O 0.3996(2) 0.90833(18) 0.21475(14)
C14_28 C 0.40962(17) 0.89157(17) 0.24332(19)
C15_28 C 0.4099(2) 0.89123(18) 0.26226(18)
H9_28 H 0.4034 0.9008 0.2692
C16_28 C 0.4198(2) 0.8765(2) 0.27234(19)
H10_28 H 0.4200 0.8768 0.2858
C17_28 C 0.4290(2) 0.86214(18) 0.2634(2)
C18_28 C 0.4296(3) 0.8631(2) 0.2440(2)
H11_28 H 0.4371 0.8544 0.2370
C19_28 C 0.4191(3) 0.8772(2) 0.2344(2)
H12_28 H 0.4185 0.8767 0.2209
C20_16 C 0.4252(2) 0.8048(2) 0.3543(2)
O7_16 O 0.41450(14) 0.79228(12) 0.34862(18)
C21_16 C 0.42114(16) 0.82589(17) 0.34894(15)
C22_16 C 0.40605(19) 0.83087(18) 0.33754(18)
H13_16 H 0.3982 0.8212 0.3324
C23_16 C 0.40208(19) 0.85018(18) 0.3334(2)
H14_16 H 0.3915 0.8534 0.3257
C24_16 C 0.41367(18) 0.86418(16) 0.34052(17)
C25_16 C 0.42890(17) 0.85932(18) 0.35179(17)
H15_16 H 0.4369 0.8690 0.3566
C26_16 C 0.43270(17) 0.84000(16) 0.35620(18)
H16_16 H 0.4431 0.8368 0.3641
Zn4_28 Zn 0.27014(2) 0.68967(2) 0.48946(2)
C32_28 C 0.3027(2) 0.6955(2) 0.4709(2)
O8_28 O 0.28896(14) 0.70520(17) 0.47684(16)
O10_28 O 0.30419(15) 0.67792(16) 0.47244(17)
C33_28 C 0.31824(18) 0.7061(2) 0.45977(17)
C34_28 C 0.33283(18) 0.69656(19) 0.4512(2)
H21_28 H 0.3332 0.6831 0.4518
C35_28 C 0.34767(19) 0.70649(18) 0.4412(2)
H22_28 H 0.3578 0.6995 0.4356
C36_28 C 0.34733(18) 0.72581(19) 0.4395(2)
C37_28 C 0.3319(2) 0.7348(2) 0.4471(3)
H23_28 H 0.3303 0.7480 0.4447
C38_28 C 0.3179(2) 0.7254(2) 0.4584(3)
H24_28 H 0.3084 0.7325 0.4649
C39_28 C 0.4070(2) 0.7678(2) 0.3988(2)
O13_28 O 0.40833(18) 0.78525(14) 0.3996(2)
C40_28 C 0.39157(17) 0.75668(19) 0.40962(17)
C41_28 C 0.39123(18) 0.73774(18) 0.4099(2)
H25_28 H 0.4008 0.7308 0.4034
C42_28 C 0.3765(2) 0.72766(19) 0.4198(2)
H26_28 H 0.3768 0.7142 0.4200
C43_28 C 0.36214(18) 0.7366(2) 0.4290(2)
C44_28 C 0.3631(2) 0.7560(2) 0.4296(3)
H27_28 H 0.3544 0.7630 0.4371
C45_28 C 0.3772(2) 0.7656(2) 0.4191(3)
H28_28 H 0.3767 0.7791 0.4185
C46_16 C 0.3957(2) 0.9452(2) 0.3248(2)
O16_16 O 0.40138(18) 0.95772(12) 0.33550(14)
C47_16 C 0.40106(15) 0.92411(17) 0.32886(16)
C48_16 C 0.41246(18) 0.91913(18) 0.34395(19)
H29_16 H 0.4176 0.9288 0.3518
C49_16 C 0.4166(2) 0.89982(18) 0.34792(19)
H30_16 H 0.4243 0.8966 0.3585
C50_16 C 0.40948(17) 0.88582(16) 0.33633(18)
C51_16 C 0.39821(17) 0.89068(18) 0.32110(17)
H31_16 H 0.3934 0.8810 0.3131
C52_16 C 0.39380(18) 0.91000(16) 0.31730(17)
H32_16 H 0.3859 0.9132 0.3069
C6_29 C 0.6955(2) 0.9709(2) 0.6973(2)
O3_29 O 0.67792(16) 0.97244(17) 0.69581(15)
C7_29 C 0.7061(2) 0.95977(17) 0.68176(18)
C8_29 C 0.69656(19) 0.9512(2) 0.66717(18)
H5_29 H 0.6831 0.9518 0.6668
C9_29 C 0.70649(18) 0.9412(2) 0.65233(19)
H6_29 H 0.6995 0.9356 0.6422
C10_29 C 0.72581(19) 0.9395(2) 0.65267(18)
C11_29 C 0.7348(2) 0.9471(3) 0.6681(2)
H7_29 H 0.7480 0.9447 0.6697
C12_29 C 0.7254(2) 0.9584(3) 0.6821(2)
H8_29 H 0.7325 0.9649 0.6916
C13_29 C 0.7678(2) 0.8988(2) 0.5930(2)
O4_29 O 0.75832(11) 0.88807(12) 0.58232(10)
O5_29 O 0.78525(14) 0.8996(2) 0.59167(18)
C14_29 C 0.75668(19) 0.90962(17) 0.60843(17)
C15_29 C 0.73774(18) 0.9099(2) 0.60877(18)
H9_29 H 0.7308 0.9034 0.5992
C16_29 C 0.72766(19) 0.9198(2) 0.6235(2)
H10_29 H 0.7142 0.9200 0.6232
C17_29 C 0.7366(2) 0.9290(2) 0.63786(18)
C18_29 C 0.7560(2) 0.9296(3) 0.6369(2)
H11_29 H 0.7630 0.9371 0.6456
C19_29 C 0.7656(2) 0.9191(3) 0.6228(2)
H12_29 H 0.7791 0.9185 0.6233
C20_17 C 0.6457(2) 0.9252(2) 0.6952(2)
O7_17 O 0.65138(18) 0.91450(14) 0.70772(12)
C21_17 C 0.65106(15) 0.92114(16) 0.67411(17)
C22_17 C 0.66246(18) 0.90605(19) 0.66913(18)
H13_17 H 0.6676 0.8982 0.6788
C23_17 C 0.6666(2) 0.90208(19) 0.64982(18)
H14_17 H 0.6743 0.8915 0.6466
C24_17 C 0.65948(17) 0.91367(18) 0.63582(16)
C25_17 C 0.64821(17) 0.92890(17) 0.64068(18)
H15_17 H 0.6434 0.9369 0.6310
C26_17 C 0.64380(18) 0.93270(17) 0.66000(16)
H16_17 H 0.6359 0.9431 0.6632
Zn4_29 Zn 0.51054(2) 0.77014(2) 0.81033(2)
C32_29 C 0.5291(2) 0.8027(2) 0.8045(2)
O8_29 O 0.52316(16) 0.78896(14) 0.79480(17)
O10_29 O 0.52756(17) 0.80419(15) 0.82208(16)
C33_29 C 0.54023(17) 0.81824(18) 0.7939(2)
C34_29 C 0.5488(2) 0.83283(18) 0.80344(19)
H21_29 H 0.5482 0.8332 0.8169
C35_29 C 0.5588(2) 0.84767(19) 0.79351(18)
H22_29 H 0.5644 0.8578 0.8005
C36_29 C 0.5605(2) 0.84733(18) 0.77419(19)
C37_29 C 0.5529(3) 0.8319(2) 0.7652(2)
H23_29 H 0.5553 0.8303 0.7520
C38_29 C 0.5416(3) 0.8179(2) 0.7746(2)
H24_29 H 0.5351 0.8084 0.7675
C39_29 C 0.6012(2) 0.9070(2) 0.7322(2)
O13_29 O 0.6004(2) 0.90833(18) 0.71475(14)
C40_29 C 0.59038(17) 0.89157(17) 0.74332(19)
C41_29 C 0.5901(2) 0.89123(18) 0.76226(18)
H25_29 H 0.5966 0.9008 0.7692
C42_29 C 0.5802(2) 0.8765(2) 0.77234(19)
H26_29 H 0.5800 0.8768 0.7858
C43_29 C 0.5710(2) 0.86214(18) 0.7634(2)
C44_29 C 0.5704(3) 0.8631(2) 0.7440(2)
H27_29 H 0.5629 0.8544 0.7370
C45_29 C 0.5809(3) 0.8772(2) 0.7344(2)
H28_29 H 0.5815 0.8767 0.7209
C46_17 C 0.6752(2) 0.8957(2) 0.5548(2)
O16_17 O 0.66450(14) 0.90138(18) 0.54228(12)
C47_17 C 0.67114(16) 0.90106(15) 0.57589(17)
C48_17 C 0.65605(19) 0.91246(18) 0.58087(18)
H29_17 H 0.6482 0.9176 0.5712
C49_17 C 0.65208(19) 0.9166(2) 0.60018(18)
H30_17 H 0.6415 0.9243 0.6034
C50_17 C 0.66367(18) 0.90948(17) 0.61418(16)
C51_17 C 0.67890(17) 0.89821(17) 0.60932(18)
H31_17 H 0.6869 0.8934 0.6190
C52_17 C 0.68270(17) 0.89380(18) 0.59000(16)
H32_17 H 0.6931 0.8859 0.5868
C6_30 C 0.1955(2) 0.5291(2) 0.3027(2)
O3_30 O 0.17792(16) 0.52756(17) 0.30419(15)
C7_30 C 0.2061(2) 0.54023(17) 0.31824(18)
C8_30 C 0.19656(19) 0.5488(2) 0.33283(18)
H5_30 H 0.1831 0.5482 0.3332
C9_30 C 0.20649(18) 0.5588(2) 0.34767(19)
H6_30 H 0.1995 0.5644 0.3578
C10_30 C 0.22581(19) 0.5605(2) 0.34733(18)
C11_30 C 0.2348(2) 0.5529(3) 0.3319(2)
H7_30 H 0.2480 0.5553 0.3303
C12_30 C 0.2254(2) 0.5416(3) 0.3179(2)
H8_30 H 0.2325 0.5351 0.3084
C13_30 C 0.2678(2) 0.6012(2) 0.4070(2)
O4_30 O 0.25832(11) 0.61193(12) 0.41768(10)
O5_30 O 0.28525(14) 0.6004(2) 0.40833(18)
C14_30 C 0.25668(19) 0.59038(17) 0.39157(17)
C15_30 C 0.23774(18) 0.5901(2) 0.39123(18)
H9_30 H 0.2308 0.5966 0.4008
C16_30 C 0.22766(19) 0.5802(2) 0.3765(2)
H10_30 H 0.2142 0.5800 0.3768
C17_30 C 0.2366(2) 0.5710(2) 0.36214(18)
C18_30 C 0.2560(2) 0.5704(3) 0.3631(2)
H11_30 H 0.2630 0.5629 0.3544
C19_30 C 0.2656(2) 0.5809(3) 0.3772(2)
H12_30 H 0.2791 0.5815 0.3767
C20_18 C 0.1457(2) 0.5748(2) 0.3048(2)
O7_18 O 0.15138(18) 0.58550(14) 0.29228(12)
C21_18 C 0.15106(15) 0.57886(16) 0.32589(17)
C22_18 C 0.16246(18) 0.59395(19) 0.33087(18)
H13_18 H 0.1676 0.6018 0.3212
C23_18 C 0.1666(2) 0.59792(19) 0.35018(18)
H14_18 H 0.1743 0.6085 0.3534
C24_18 C 0.15948(17) 0.58633(18) 0.36418(16)
C25_18 C 0.14821(17) 0.57110(17) 0.35932(18)
H15_18 H 0.1434 0.5631 0.3690
C26_18 C 0.14380(18) 0.56730(17) 0.34000(16)
H16_18 H 0.1359 0.5569 0.3368
Zn4_30 Zn 0.01054(2) 0.72986(2) 0.18967(2)
C32_30 C 0.0291(2) 0.6973(2) 0.1955(2)
O8_30 O 0.02316(16) 0.71104(14) 0.20520(17)
O10_30 O 0.02756(17) 0.69581(15) 0.17792(16)
C33_30 C 0.04023(17) 0.68176(18) 0.2061(2)
C34_30 C 0.0488(2) 0.66717(18) 0.19656(19)
H21_30 H 0.0482 0.6668 0.1831
C35_30 C 0.0588(2) 0.65233(19) 0.20649(18)
H22_30 H 0.0644 0.6422 0.1995
C36_30 C 0.0605(2) 0.65267(18) 0.22581(19)
C37_30 C 0.0529(3) 0.6681(2) 0.2348(2)
H23_30 H 0.0553 0.6697 0.2480
C38_30 C 0.0416(3) 0.6821(2) 0.2254(2)
H24_30 H 0.0351 0.6916 0.2325
C39_30 C 0.1012(2) 0.5930(2) 0.2678(2)
O13_30 O 0.1004(2) 0.59167(18) 0.28525(14)
C40_30 C 0.09038(17) 0.60843(17) 0.25668(19)
C41_30 C 0.0901(2) 0.60877(18) 0.23774(18)
H25_30 H 0.0966 0.5992 0.2308
C42_30 C 0.0802(2) 0.6235(2) 0.22766(19)
H26_30 H 0.0800 0.6232 0.2142
C43_30 C 0.0710(2) 0.63786(18) 0.2366(2)
C44_30 C 0.0704(3) 0.6369(2) 0.2560(2)
H27_30 H 0.0629 0.6456 0.2630
C45_30 C 0.0809(3) 0.6228(2) 0.2656(2)
H28_30 H 0.0815 0.6233 0.2791
C46_18 C 0.1752(2) 0.6043(2) 0.4452(2)
O16_18 O 0.16450(14) 0.59862(18) 0.45772(12)
C47_18 C 0.17114(16) 0.59894(15) 0.42411(17)
C48_18 C 0.15605(19) 0.58754(18) 0.41913(18)
H29_18 H 0.1482 0.5824 0.4288
C49_18 C 0.15208(19) 0.5834(2) 0.39982(18)
H30_18 H 0.1415 0.5757 0.3966
C50_18 C 0.16367(18) 0.59052(17) 0.38582(16)
C51_18 C 0.17890(17) 0.60179(17) 0.39068(18)
H31_18 H 0.1869 0.6066 0.3810
C52_18 C 0.18270(17) 0.60620(18) 0.41000(16)
H32_18 H 0.1931 0.6141 0.4132
C6_31 C 0.8045(2) 0.0291(2) 0.1973(2)
O3_31 O 0.82208(16) 0.02756(17) 0.19581(15)
C7_31 C 0.7939(2) 0.04023(17) 0.18176(18)
C8_31 C 0.80344(19) 0.0488(2) 0.16717(18)
H5_31 H 0.8169 0.0482 0.1668
C9_31 C 0.79351(18) 0.0588(2) 0.15233(19)
H6_31 H 0.8005 0.0644 0.1422
C10_31 C 0.77419(19) 0.0605(2) 0.15267(18)
C11_31 C 0.7652(2) 0.0529(3) 0.1681(2)
H7_31 H 0.7520 0.0553 0.1697
C12_31 C 0.7746(2) 0.0416(3) 0.1821(2)
H8_31 H 0.7675 0.0351 0.1916
C13_31 C 0.7322(2) 0.1012(2) 0.0930(2)
O4_31 O 0.74168(11) 0.11193(12) 0.08232(10)
O5_31 O 0.71475(14) 0.1004(2) 0.09167(18)
C14_31 C 0.74332(19) 0.09038(17) 0.10843(17)
C15_31 C 0.76226(18) 0.0901(2) 0.10877(18)
H9_31 H 0.7692 0.0966 0.0992
C16_31 C 0.77234(19) 0.0802(2) 0.1235(2)
H10_31 H 0.7858 0.0800 0.1232
C17_31 C 0.7634(2) 0.0710(2) 0.13786(18)
C18_31 C 0.7440(2) 0.0704(3) 0.1369(2)
H11_31 H 0.7370 0.0629 0.1456
C19_31 C 0.7344(2) 0.0809(3) 0.1228(2)
H12_31 H 0.7209 0.0815 0.1233
C20_19 C 0.8543(2) 0.0748(2) 0.1952(2)
O7_19 O 0.84862(18) 0.08550(14) 0.20772(12)
C21_19 C 0.84894(15) 0.07886(16) 0.17411(17)
C22_19 C 0.83754(18) 0.09395(19) 0.16913(18)
H13_19 H 0.8324 0.1018 0.1788
C23_19 C 0.8334(2) 0.09792(19) 0.14982(18)
H14_19 H 0.8257 0.1085 0.1466
C24_19 C 0.84052(17) 0.08633(18) 0.13582(16)
C25_19 C 0.85179(17) 0.07110(17) 0.14068(18)
H15_19 H 0.8566 0.0631 0.1310
C26_19 C 0.85620(18) 0.06730(17) 0.16000(16)
H16_19 H 0.8641 0.0569 0.1632
Zn4_31 Zn 0.98946(2) 0.22986(2) 0.31033(2)
C32_31 C 0.9709(2) 0.1973(2) 0.3045(2)
O8_31 O 0.97684(16) 0.21104(14) 0.29480(17)
O10_31 O 0.97244(17) 0.19581(15) 0.32208(16)
C33_31 C 0.95977(17) 0.18176(18) 0.2939(2)
C34_31 C 0.9512(2) 0.16717(18) 0.30344(19)
H21_31 H 0.9518 0.1668 0.3169
C35_31 C 0.9412(2) 0.15233(19) 0.29351(18)
H22_31 H 0.9356 0.1422 0.3005
C36_31 C 0.9395(2) 0.15267(18) 0.27419(19)
C37_31 C 0.9471(3) 0.1681(2) 0.2652(2)
H23_31 H 0.9447 0.1697 0.2520
C38_31 C 0.9584(3) 0.1821(2) 0.2746(2)
H24_31 H 0.9649 0.1916 0.2675
C39_31 C 0.8988(2) 0.0930(2) 0.2322(2)
O13_31 O 0.8996(2) 0.09167(18) 0.21475(14)
C40_31 C 0.90962(17) 0.10843(17) 0.24332(19)
C41_31 C 0.9099(2) 0.10877(18) 0.26226(18)
H25_31 H 0.9034 0.0992 0.2692
C42_31 C 0.9198(2) 0.1235(2) 0.27234(19)
H26_31 H 0.9200 0.1232 0.2858
C43_31 C 0.9290(2) 0.13786(18) 0.2634(2)
C44_31 C 0.9296(3) 0.1369(2) 0.2440(2)
H27_31 H 0.9371 0.1456 0.2370
C45_31 C 0.9191(3) 0.1228(2) 0.2344(2)
H28_31 H 0.9185 0.1233 0.2209
C46_19 C 0.8248(2) 0.1043(2) 0.0548(2)
O16_19 O 0.83550(14) 0.09862(18) 0.04228(12)
C47_19 C 0.82886(16) 0.09894(15) 0.07589(17)
C48_19 C 0.84395(19) 0.08754(18) 0.08087(18)
H29_19 H 0.8518 0.0824 0.0712
C49_19 C 0.84792(19) 0.0834(2) 0.10018(18)
H30_19 H 0.8585 0.0757 0.1034
C50_19 C 0.83633(18) 0.09052(17) 0.11418(16)
C51_19 C 0.82110(17) 0.10179(17) 0.10932(18)
H31_19 H 0.8131 0.1066 0.1190
C52_19 C 0.81730(17) 0.10620(18) 0.09000(16)
H32_19 H 0.8069 0.1141 0.0868
C6_32 C 0.3045(2) 0.4709(2) 0.8027(2)
O3_32 O 0.32208(16) 0.47244(17) 0.80419(15)
C7_32 C 0.2939(2) 0.45977(17) 0.81824(18)
C8_32 C 0.30344(19) 0.4512(2) 0.83283(18)
H5_32 H 0.3169 0.4518 0.8332
C9_32 C 0.29351(18) 0.4412(2) 0.84767(19)
H6_32 H 0.3005 0.4356 0.8578
C10_32 C 0.27419(19) 0.4395(2) 0.84733(18)
C11_32 C 0.2652(2) 0.4471(3) 0.8319(2)
H7_32 H 0.2520 0.4447 0.8303
C12_32 C 0.2746(2) 0.4584(3) 0.8179(2)
H8_32 H 0.2675 0.4649 0.8084
C13_32 C 0.2322(2) 0.3988(2) 0.9070(2)
O4_32 O 0.24168(11) 0.38807(12) 0.91768(10)
O5_32 O 0.21475(14) 0.3996(2) 0.90833(18)
C14_32 C 0.24332(19) 0.40962(17) 0.89157(17)
C15_32 C 0.26226(18) 0.4099(2) 0.89123(18)
H9_32 H 0.2692 0.4034 0.9008
C16_32 C 0.27234(19) 0.4198(2) 0.8765(2)
H10_32 H 0.2858 0.4200 0.8768
C17_32 C 0.2634(2) 0.4290(2) 0.86214(18)
C18_32 C 0.2440(2) 0.4296(3) 0.8631(2)
H11_32 H 0.2370 0.4371 0.8544
C19_32 C 0.2344(2) 0.4191(3) 0.8772(2)
H12_32 H 0.2209 0.4185 0.8767
C20_20 C 0.3543(2) 0.4252(2) 0.8048(2)
O7_20 O 0.34862(18) 0.41450(14) 0.79228(12)
C21_20 C 0.34894(15) 0.42114(16) 0.82589(17)
C22_20 C 0.33754(18) 0.40605(19) 0.83087(18)
H13_20 H 0.3324 0.3982 0.8212
C23_20 C 0.3334(2) 0.40208(19) 0.85018(18)
H14_20 H 0.3257 0.3915 0.8534
C24_20 C 0.34052(17) 0.41367(18) 0.86418(16)
C25_20 C 0.35179(17) 0.42890(17) 0.85932(18)
H15_20 H 0.3566 0.4369 0.8690
C26_20 C 0.35620(18) 0.43270(17) 0.84000(16)
H16_20 H 0.3641 0.4431 0.8368
Zn4_32 Zn 0.48946(2) 0.27014(2) 0.68967(2)
C32_32 C 0.4709(2) 0.3027(2) 0.6955(2)
O8_32 O 0.47684(16) 0.28896(14) 0.70520(17)
O10_32 O 0.47244(17) 0.30419(15) 0.67792(16)
C33_32 C 0.45977(17) 0.31824(18) 0.7061(2)
C34_32 C 0.4512(2) 0.33283(18) 0.69656(19)
H21_32 H 0.4518 0.3332 0.6831
C35_32 C 0.4412(2) 0.34767(19) 0.70649(18)
H22_32 H 0.4356 0.3578 0.6995
C36_32 C 0.4395(2) 0.34733(18) 0.72581(19)
C37_32 C 0.4471(3) 0.3319(2) 0.7348(2)
H23_32 H 0.4447 0.3303 0.7480
C38_32 C 0.4584(3) 0.3179(2) 0.7254(2)
H24_32 H 0.4649 0.3084 0.7325
C39_32 C 0.3988(2) 0.4070(2) 0.7678(2)
O13_32 O 0.3996(2) 0.40833(18) 0.78525(14)
C40_32 C 0.40962(17) 0.39157(17) 0.75668(19)
C41_32 C 0.4099(2) 0.39123(18) 0.73774(18)
H25_32 H 0.4034 0.4008 0.7308
C42_32 C 0.4198(2) 0.3765(2) 0.72766(19)
H26_32 H 0.4200 0.3768 0.7142
C43_32 C 0.4290(2) 0.36214(18) 0.7366(2)
C44_32 C 0.4296(3) 0.3631(2) 0.7560(2)
H27_32 H 0.4371 0.3544 0.7630
C45_32 C 0.4191(3) 0.3772(2) 0.7656(2)
H28_32 H 0.4185 0.3767 0.7791
C46_20 C 0.3248(2) 0.3957(2) 0.9452(2)
O16_20 O 0.33550(14) 0.40138(18) 0.95772(12)
C47_20 C 0.32886(16) 0.40106(15) 0.92411(17)
C48_20 C 0.34395(19) 0.41246(18) 0.91913(18)
H29_20 H 0.3518 0.4176 0.9288
C49_20 C 0.34792(19) 0.4166(2) 0.89982(18)
H30_20 H 0.3585 0.4243 0.8966
C50_20 C 0.33633(18) 0.40948(17) 0.88582(16)
C51_20 C 0.32110(17) 0.39821(17) 0.89068(18)
H31_20 H 0.3131 0.3934 0.8810
C52_20 C 0.31730(17) 0.39380(18) 0.91000(16)
H32_20 H 0.3069 0.3859 0.9132
C6_33 C 0.6973(2) 0.6955(2) 0.9709(2)
O3_33 O 0.69581(15) 0.67792(16) 0.97244(17)
C7_33 C 0.68176(18) 0.7061(2) 0.95977(17)
C8_33 C 0.66717(18) 0.69656(19) 0.9512(2)
H5_33 H 0.6668 0.6831 0.9518
C9_33 C 0.65233(19) 0.70649(18) 0.9412(2)
H6_33 H 0.6422 0.6995 0.9356
C10_33 C 0.65267(18) 0.72581(19) 0.9395(2)
C11_33 C 0.6681(2) 0.7348(2) 0.9471(3)
H7_33 H 0.6697 0.7480 0.9447
C12_33 C 0.6821(2) 0.7254(2) 0.9584(3)
H8_33 H 0.6916 0.7325 0.9649
C13_33 C 0.5930(2) 0.7678(2) 0.8988(2)
O4_33 O 0.58232(10) 0.75832(11) 0.88807(12)
O5_33 O 0.59167(18) 0.78525(14) 0.8996(2)
C14_33 C 0.60843(17) 0.75668(19) 0.90962(17)
C15_33 C 0.60877(18) 0.73774(18) 0.9099(2)
H9_33 H 0.5992 0.7308 0.9034
C16_33 C 0.6235(2) 0.72766(19) 0.9198(2)
H10_33 H 0.6232 0.7142 0.9200
C17_33 C 0.63786(18) 0.7366(2) 0.9290(2)
C18_33 C 0.6369(2) 0.7560(2) 0.9296(3)
H11_33 H 0.6456 0.7630 0.9371
C19_33 C 0.6228(2) 0.7656(2) 0.9191(3)
H12_33 H 0.6233 0.7791 0.9185
C20_21 C 0.6952(2) 0.6457(2) 0.9252(2)
O7_21 O 0.70772(12) 0.65138(18) 0.91450(14)
C21_21 C 0.67411(17) 0.65106(15) 0.92114(16)
C22_21 C 0.66913(18) 0.66246(18) 0.90605(19)
H13_21 H 0.6788 0.6676 0.8982
C23_21 C 0.64982(18) 0.6666(2) 0.90208(19)
H14_21 H 0.6466 0.6743 0.8915
C24_21 C 0.63582(16) 0.65948(17) 0.91367(18)
C25_21 C 0.64068(18) 0.64821(17) 0.92890(17)
H15_21 H 0.6310 0.6434 0.9369
C26_21 C 0.66000(16) 0.64380(18) 0.93270(17)
H16_21 H 0.6632 0.6359 0.9431
Zn4_33 Zn 0.81033(2) 0.51054(2) 0.77014(2)
C32_33 C 0.8045(2) 0.5291(2) 0.8027(2)
O8_33 O 0.79480(17) 0.52316(16) 0.78896(14)
O10_33 O 0.82208(16) 0.52756(17) 0.80419(15)
C33_33 C 0.7939(2) 0.54023(17) 0.81824(18)
C34_33 C 0.80344(19) 0.5488(2) 0.83283(18)
H21_33 H 0.8169 0.5482 0.8332
C35_33 C 0.79351(18) 0.5588(2) 0.84767(19)
H22_33 H 0.8005 0.5644 0.8578
C36_33 C 0.77419(19) 0.5605(2) 0.84733(18)
C37_33 C 0.7652(2) 0.5529(3) 0.8319(2)
H23_33 H 0.7520 0.5553 0.8303
C38_33 C 0.7746(2) 0.5416(3) 0.8179(2)
H24_33 H 0.7675 0.5351 0.8084
C39_33 C 0.7322(2) 0.6012(2) 0.9070(2)
O13_33 O 0.71475(14) 0.6004(2) 0.90833(18)
C40_33 C 0.74332(19) 0.59038(17) 0.89157(17)
C41_33 C 0.76226(18) 0.5901(2) 0.89123(18)
H25_33 H 0.7692 0.5966 0.9008
C42_33 C 0.77234(19) 0.5802(2) 0.8765(2)
H26_33 H 0.7858 0.5800 0.8768
C43_33 C 0.7634(2) 0.5710(2) 0.86214(18)
C44_33 C 0.7440(2) 0.5704(3) 0.8631(2)
H27_33 H 0.7370 0.5629 0.8544
C45_33 C 0.7344(2) 0.5809(3) 0.8772(2)
H28_33 H 0.7209 0.5815 0.8767
C46_21 C 0.5548(2) 0.6752(2) 0.8957(2)
O16_21 O 0.54228(12) 0.66450(14) 0.90138(18)
C47_21 C 0.57589(17) 0.67114(16) 0.90106(15)
C48_21 C 0.58087(18) 0.65605(19) 0.91246(18)
H29_21 H 0.5712 0.6482 0.9176
C49_21 C 0.60018(18) 0.65208(19) 0.9166(2)
H30_21 H 0.6034 0.6415 0.9243
C50_21 C 0.61418(16) 0.66367(18) 0.90948(17)
C51_21 C 0.60932(18) 0.67890(17) 0.89821(17)
H31_21 H 0.6190 0.6869 0.8934
C52_21 C 0.59000(16) 0.68270(17) 0.89380(18)
H32_21 H 0.5868 0.6931 0.8859
C6_34 C 0.3027(2) 0.1955(2) 0.5291(2)
O3_34 O 0.30419(15) 0.17792(16) 0.52756(17)
C7_34 C 0.31824(18) 0.2061(2) 0.54023(17)
C8_34 C 0.33283(18) 0.19656(19) 0.5488(2)
H5_34 H 0.3332 0.1831 0.5482
C9_34 C 0.34767(19) 0.20649(18) 0.5588(2)
H6_34 H 0.3578 0.1995 0.5644
C10_34 C 0.34733(18) 0.22581(19) 0.5605(2)
C11_34 C 0.3319(2) 0.2348(2) 0.5529(3)
H7_34 H 0.3303 0.2480 0.5553
C12_34 C 0.3179(2) 0.2254(2) 0.5416(3)
H8_34 H 0.3084 0.2325 0.5351
C13_34 C 0.4070(2) 0.2678(2) 0.6012(2)
O4_34 O 0.41768(10) 0.25832(11) 0.61193(12)
O5_34 O 0.40833(18) 0.28525(14) 0.6004(2)
C14_34 C 0.39157(17) 0.25668(19) 0.59038(17)
C15_34 C 0.39123(18) 0.23774(18) 0.5901(2)
H9_34 H 0.4008 0.2308 0.5966
C16_34 C 0.3765(2) 0.22766(19) 0.5802(2)
H10_34 H 0.3768 0.2142 0.5800
C17_34 C 0.36214(18) 0.2366(2) 0.5710(2)
C18_34 C 0.3631(2) 0.2560(2) 0.5704(3)
H11_34 H 0.3544 0.2630 0.5629
C19_34 C 0.3772(2) 0.2656(2) 0.5809(3)
H12_34 H 0.3767 0.2791 0.5815
C20_22 C 0.3048(2) 0.1457(2) 0.5748(2)
O7_22 O 0.29228(12) 0.15138(18) 0.58550(14)
C21_22 C 0.32589(17) 0.15106(15) 0.57886(16)
C22_22 C 0.33087(18) 0.16246(18) 0.59395(19)
H13_22 H 0.3212 0.1676 0.6018
C23_22 C 0.35018(18) 0.1666(2) 0.59792(19)
H14_22 H 0.3534 0.1743 0.6085
C24_22 C 0.36418(16) 0.15948(17) 0.58633(18)
C25_22 C 0.35932(18) 0.14821(17) 0.57110(17)
H15_22 H 0.3690 0.1434 0.5631
C26_22 C 0.34000(16) 0.14380(18) 0.56730(17)
H16_22 H 0.3368 0.1359 0.5569
Zn4_34 Zn 0.18967(2) 0.01054(2) 0.72986(2)
C32_34 C 0.1955(2) 0.0291(2) 0.6973(2)
O8_34 O 0.20520(17) 0.02316(16) 0.71104(14)
O10_34 O 0.17792(16) 0.02756(17) 0.69581(15)
C33_34 C 0.2061(2) 0.04023(17) 0.68176(18)
C34_34 C 0.19656(19) 0.0488(2) 0.66717(18)
H21_34 H 0.1831 0.0482 0.6668
C35_34 C 0.20649(18) 0.0588(2) 0.65233(19)
H22_34 H 0.1995 0.0644 0.6422
C36_34 C 0.22581(19) 0.0605(2) 0.65267(18)
C37_34 C 0.2348(2) 0.0529(3) 0.6681(2)
H23_34 H 0.2480 0.0553 0.6697
C38_34 C 0.2254(2) 0.0416(3) 0.6821(2)
H24_34 H 0.2325 0.0351 0.6916
C39_34 C 0.2678(2) 0.1012(2) 0.5930(2)
O13_34 O 0.28525(14) 0.1004(2) 0.59167(18)
C40_34 C 0.25668(19) 0.09038(17) 0.60843(17)
C41_34 C 0.23774(18) 0.0901(2) 0.60877(18)
H25_34 H 0.2308 0.0966 0.5992
C42_34 C 0.22766(19) 0.0802(2) 0.6235(2)
H26_34 H 0.2142 0.0800 0.6232
C43_34 C 0.2366(2) 0.0710(2) 0.63786(18)
C44_34 C 0.2560(2) 0.0704(3) 0.6369(2)
H27_34 H 0.2630 0.0629 0.6456
C45_34 C 0.2656(2) 0.0809(3) 0.6228(2)
H28_34 H 0.2791 0.0815 0.6233
C46_22 C 0.4452(2) 0.1752(2) 0.6043(2)
O16_22 O 0.45772(12) 0.16450(14) 0.59862(18)
C47_22 C 0.42411(17) 0.17114(16) 0.59894(15)
C48_22 C 0.41913(18) 0.15605(19) 0.58754(18)
H29_22 H 0.4288 0.1482 0.5824
C49_22 C 0.39982(18) 0.15208(19) 0.5834(2)
H30_22 H 0.3966 0.1415 0.5757
C50_22 C 0.38582(16) 0.16367(18) 0.59052(17)
C51_22 C 0.39068(18) 0.17890(17) 0.60179(17)
H31_22 H 0.3810 0.1869 0.6066
C52_22 C 0.41000(16) 0.18270(17) 0.60620(18)
H32_22 H 0.4132 0.1931 0.6141
C6_35 C 0.1973(2) 0.8045(2) 0.0291(2)
O3_35 O 0.19581(15) 0.82208(16) 0.02756(17)
C7_35 C 0.18176(18) 0.7939(2) 0.04023(17)
C8_35 C 0.16717(18) 0.80344(19) 0.0488(2)
H5_35 H 0.1668 0.8169 0.0482
C9_35 C 0.15233(19) 0.79351(18) 0.0588(2)
H6_35 H 0.1422 0.8005 0.0644
C10_35 C 0.15267(18) 0.77419(19) 0.0605(2)
C11_35 C 0.1681(2) 0.7652(2) 0.0529(3)
H7_35 H 0.1697 0.7520 0.0553
C12_35 C 0.1821(2) 0.7746(2) 0.0416(3)
H8_35 H 0.1916 0.7675 0.0351
C13_35 C 0.0930(2) 0.7322(2) 0.1012(2)
O4_35 O 0.08232(10) 0.74168(11) 0.11193(12)
O5_35 O 0.09167(18) 0.71475(14) 0.1004(2)
C14_35 C 0.10843(17) 0.74332(19) 0.09038(17)
C15_35 C 0.10877(18) 0.76226(18) 0.0901(2)
H9_35 H 0.0992 0.7692 0.0966
C16_35 C 0.1235(2) 0.77234(19) 0.0802(2)
H10_35 H 0.1232 0.7858 0.0800
C17_35 C 0.13786(18) 0.7634(2) 0.0710(2)
C18_35 C 0.1369(2) 0.7440(2) 0.0704(3)
H11_35 H 0.1456 0.7370 0.0629
C19_35 C 0.1228(2) 0.7344(2) 0.0809(3)
H12_35 H 0.1233 0.7209 0.0815
C20_23 C 0.1952(2) 0.8543(2) 0.0748(2)
O7_23 O 0.20772(12) 0.84862(18) 0.08550(14)
C21_23 C 0.17411(17) 0.84894(15) 0.07886(16)
C22_23 C 0.16913(18) 0.83754(18) 0.09395(19)
H13_23 H 0.1788 0.8324 0.1018
C23_23 C 0.14982(18) 0.8334(2) 0.09792(19)
H14_23 H 0.1466 0.8257 0.1085
C24_23 C 0.13582(16) 0.84052(17) 0.08633(18)
C25_23 C 0.14068(18) 0.85179(17) 0.07110(17)
H15_23 H 0.1310 0.8566 0.0631
C26_23 C 0.16000(16) 0.85620(18) 0.06730(17)
H16_23 H 0.1632 0.8641 0.0569
Zn4_35 Zn 0.31033(2) 0.98946(2) 0.22986(2)
C32_35 C 0.3045(2) 0.9709(2) 0.1973(2)
O8_35 O 0.29480(17) 0.97684(16) 0.21104(14)
O10_35 O 0.32208(16) 0.97244(17) 0.19581(15)
C33_35 C 0.2939(2) 0.95977(17) 0.18176(18)
C34_35 C 0.30344(19) 0.9512(2) 0.16717(18)
H21_35 H 0.3169 0.9518 0.1668
C35_35 C 0.29351(18) 0.9412(2) 0.15233(19)
H22_35 H 0.3005 0.9356 0.1422
C36_35 C 0.27419(19) 0.9395(2) 0.15267(18)
C37_35 C 0.2652(2) 0.9471(3) 0.1681(2)
H23_35 H 0.2520 0.9447 0.1697
C38_35 C 0.2746(2) 0.9584(3) 0.1821(2)
H24_35 H 0.2675 0.9649 0.1916
C39_35 C 0.2322(2) 0.8988(2) 0.0930(2)
O13_35 O 0.21475(14) 0.8996(2) 0.09167(18)
C40_35 C 0.24332(19) 0.90962(17) 0.10843(17)
C41_35 C 0.26226(18) 0.9099(2) 0.10877(18)
H25_35 H 0.2692 0.9034 0.0992
C42_35 C 0.27234(19) 0.9198(2) 0.1235(2)
H26_35 H 0.2858 0.9200 0.1232
C43_35 C 0.2634(2) 0.9290(2) 0.13786(18)
C44_35 C 0.2440(2) 0.9296(3) 0.1369(2)
H27_35 H 0.2370 0.9371 0.1456
C45_35 C 0.2344(2) 0.9191(3) 0.1228(2)
H28_35 H 0.2209 0.9185 0.1233
C46_23 C 0.0548(2) 0.8248(2) 0.1043(2)
O16_23 O 0.04228(12) 0.83550(14) 0.09862(18)
C47_23 C 0.07589(17) 0.82886(16) 0.09894(15)
C48_23 C 0.08087(18) 0.84395(19) 0.08754(18)
H29_23 H 0.0712 0.8518 0.0824
C49_23 C 0.10018(18) 0.84792(19) 0.0834(2)
H30_23 H 0.1034 0.8585 0.0757
C50_23 C 0.11418(16) 0.83633(18) 0.09052(17)
C51_23 C 0.10932(18) 0.82110(17) 0.10179(17)
H31_23 H 0.1190 0.8131 0.1066
C52_23 C 0.09000(16) 0.81730(17) 0.10620(18)
H32_23 H 0.0868 0.8069 0.1141
C6_36 C 0.8027(2) 0.3045(2) 0.4709(2)
O3_36 O 0.80419(15) 0.32208(16) 0.47244(17)
C7_36 C 0.81824(18) 0.2939(2) 0.45977(17)
C8_36 C 0.83283(18) 0.30344(19) 0.4512(2)
H5_36 H 0.8332 0.3169 0.4518
C9_36 C 0.84767(19) 0.29351(18) 0.4412(2)
H6_36 H 0.8578 0.3005 0.4356
C10_36 C 0.84733(18) 0.27419(19) 0.4395(2)
C11_36 C 0.8319(2) 0.2652(2) 0.4471(3)
H7_36 H 0.8303 0.2520 0.4447
C12_36 C 0.8179(2) 0.2746(2) 0.4584(3)
H8_36 H 0.8084 0.2675 0.4649
C13_36 C 0.9070(2) 0.2322(2) 0.3988(2)
O4_36 O 0.91768(10) 0.24168(11) 0.38807(12)
O5_36 O 0.90833(18) 0.21475(14) 0.3996(2)
C14_36 C 0.89157(17) 0.24332(19) 0.40962(17)
C15_36 C 0.89123(18) 0.26226(18) 0.4099(2)
H9_36 H 0.9008 0.2692 0.4034
C16_36 C 0.8765(2) 0.27234(19) 0.4198(2)
H10_36 H 0.8768 0.2858 0.4200
C17_36 C 0.86214(18) 0.2634(2) 0.4290(2)
C18_36 C 0.8631(2) 0.2440(2) 0.4296(3)
H11_36 H 0.8544 0.2370 0.4371
C19_36 C 0.8772(2) 0.2344(2) 0.4191(3)
H12_36 H 0.8767 0.2209 0.4185
C20_24 C 0.8048(2) 0.3543(2) 0.4252(2)
O7_24 O 0.79228(12) 0.34862(18) 0.41450(14)
C21_24 C 0.82589(17) 0.34894(15) 0.42114(16)
C22_24 C 0.83087(18) 0.33754(18) 0.40605(19)
H13_24 H 0.8212 0.3324 0.3982
C23_24 C 0.85018(18) 0.3334(2) 0.40208(19)
H14_24 H 0.8534 0.3257 0.3915
C24_24 C 0.86418(16) 0.34052(17) 0.41367(18)
C25_24 C 0.85932(18) 0.35179(17) 0.42890(17)
H15_24 H 0.8690 0.3566 0.4369
C26_24 C 0.84000(16) 0.35620(18) 0.43270(17)
H16_24 H 0.8368 0.3641 0.4431
Zn4_36 Zn 0.68967(2) 0.48946(2) 0.27014(2)
C32_36 C 0.6955(2) 0.4709(2) 0.3027(2)
O8_36 O 0.70520(17) 0.47684(16) 0.28896(14)
O10_36 O 0.67792(16) 0.47244(17) 0.30419(15)
C33_36 C 0.7061(2) 0.45977(17) 0.31824(18)
C34_36 C 0.69656(19) 0.4512(2) 0.33283(18)
H21_36 H 0.6831 0.4518 0.3332
C35_36 C 0.70649(18) 0.4412(2) 0.34767(19)
H22_36 H 0.6995 0.4356 0.3578
C36_36 C 0.72581(19) 0.4395(2) 0.34733(18)
C37_36 C 0.7348(2) 0.4471(3) 0.3319(2)
H23_36 H 0.7480 0.4447 0.3303
C38_36 C 0.7254(2) 0.4584(3) 0.3179(2)
H24_36 H 0.7325 0.4649 0.3084
C39_36 C 0.7678(2) 0.3988(2) 0.4070(2)
O13_36 O 0.78525(14) 0.3996(2) 0.40833(18)
C40_36 C 0.75668(19) 0.40962(17) 0.39157(17)
C41_36 C 0.73774(18) 0.4099(2) 0.39123(18)
H25_36 H 0.7308 0.4034 0.4008
C42_36 C 0.72766(19) 0.4198(2) 0.3765(2)
H26_36 H 0.7142 0.4200 0.3768
C43_36 C 0.7366(2) 0.4290(2) 0.36214(18)
C44_36 C 0.7560(2) 0.4296(3) 0.3631(2)
H27_36 H 0.7630 0.4371 0.3544
C45_36 C 0.7656(2) 0.4191(3) 0.3772(2)
H28_36 H 0.7791 0.4185 0.3767
C46_24 C 0.9452(2) 0.3248(2) 0.3957(2)
O16_24 O 0.95772(12) 0.33550(14) 0.40138(18)
C47_24 C 0.92411(17) 0.32886(16) 0.40106(15)
C48_24 C 0.91913(18) 0.34395(19) 0.41246(18)
H29_24 H 0.9288 0.3518 0.4176
C49_24 C 0.89982(18) 0.34792(19) 0.4166(2)
H30_24 H 0.8966 0.3585 0.4243
C50_24 C 0.88582(16) 0.33633(18) 0.40948(17)
C51_24 C 0.89068(18) 0.32110(17) 0.39821(17)
H31_24 H 0.8810 0.3131 0.3934
C52_24 C 0.91000(16) 0.31730(17) 0.39380(18)
H32_24 H 0.9132 0.3069 0.3859
C6_37 C 0.4473(2) 0.2209(2) 0.5545(2)
O3_37 O 0.44581(15) 0.22244(17) 0.57208(16)
C7_37 C 0.43176(18) 0.20977(17) 0.5439(2)
C8_37 C 0.41717(18) 0.2012(2) 0.55344(19)
H5_37 H 0.4168 0.2018 0.5669
C9_37 C 0.40233(19) 0.1912(2) 0.54351(18)
H6_37 H 0.3922 0.1856 0.5505
C10_37 C 0.40267(18) 0.1895(2) 0.52419(19)
C11_37 C 0.4181(2) 0.1971(3) 0.5152(2)
H7_37 H 0.4197 0.1947 0.5020
C12_37 C 0.4321(2) 0.2084(3) 0.5246(2)
H8_37 H 0.4416 0.2149 0.5175
C13_37 C 0.3430(2) 0.1488(2) 0.4822(2)
O4_37 O 0.33232(10) 0.13807(12) 0.49168(11)
O5_37 O 0.34167(18) 0.1496(2) 0.46475(14)
C14_37 C 0.35843(17) 0.15962(17) 0.49332(19)
C15_37 C 0.35877(18) 0.1599(2) 0.51226(18)
H9_37 H 0.3492 0.1534 0.5192
C16_37 C 0.3735(2) 0.1698(2) 0.52234(19)
H10_37 H 0.3732 0.1700 0.5358
C17_37 C 0.38786(18) 0.1790(2) 0.5134(2)
C18_37 C 0.3869(2) 0.1796(3) 0.4940(2)
H11_37 H 0.3956 0.1871 0.4870
C19_37 C 0.3728(2) 0.1691(3) 0.4844(2)
H12_37 H 0.3733 0.1685 0.4709
Zn4_37 Zn 0.56033(2) 0.02014(2) 0.73946(2)
C32_37 C 0.5545(2) 0.0527(2) 0.7209(2)
O8_37 O 0.54480(17) 0.03896(14) 0.72684(16)
O10_37 O 0.57208(16) 0.05419(15) 0.72244(17)
C33_37 C 0.5439(2) 0.06824(18) 0.70977(17)
C34_37 C 0.55344(19) 0.08283(18) 0.7012(2)
H21_37 H 0.5669 0.0832 0.7018
C35_37 C 0.54351(18) 0.09767(19) 0.6912(2)
H22_37 H 0.5505 0.1078 0.6856
C36_37 C 0.52419(19) 0.09733(18) 0.6895(2)
C37_37 C 0.5152(2) 0.0819(2) 0.6971(3)
H23_37 H 0.5020 0.0803 0.6947
C38_37 C 0.5246(2) 0.0679(2) 0.7084(3)
H24_37 H 0.5175 0.0584 0.7149
C39_37 C 0.4822(2) 0.1570(2) 0.6488(2)
O13_37 O 0.46475(14) 0.15833(18) 0.6496(2)
C40_37 C 0.49332(19) 0.14157(17) 0.65962(17)
C41_37 C 0.51226(18) 0.14123(18) 0.6599(2)
H25_37 H 0.5192 0.1508 0.6534
C42_37 C 0.52234(19) 0.1265(2) 0.6698(2)
H26_37 H 0.5358 0.1268 0.6700
C43_37 C 0.5134(2) 0.11214(18) 0.6790(2)
C44_37 C 0.4940(2) 0.1131(2) 0.6796(3)
H27_37 H 0.4870 0.1044 0.6871
C45_37 C 0.4844(2) 0.1272(2) 0.6691(3)
H28_37 H 0.4709 0.1267 0.6685
C6_38 C 0.0527(2) 0.7791(2) 0.0545(2)
O3_38 O 0.05419(15) 0.77756(17) 0.07208(16)
C7_38 C 0.06824(18) 0.79023(17) 0.0439(2)
C8_38 C 0.08283(18) 0.7988(2) 0.05344(19)
H5_38 H 0.0832 0.7982 0.0669
C9_38 C 0.09767(19) 0.8088(2) 0.04351(18)
H6_38 H 0.1078 0.8144 0.0505
C10_38 C 0.09733(18) 0.8105(2) 0.02419(19)
C11_38 C 0.0819(2) 0.8029(3) 0.0152(2)
H7_38 H 0.0803 0.8053 0.0020
C12_38 C 0.0679(2) 0.7916(3) 0.0246(2)
H8_38 H 0.0584 0.7851 0.0175
C15_38 C 0.14123(18) 0.8401(2) 0.01226(18)
H9_38 H 0.1508 0.8466 0.0192
C16_38 C 0.1265(2) 0.8302(2) 0.02234(19)
H10_38 H 0.1268 0.8300 0.0358
C17_38 C 0.11214(18) 0.8210(2) 0.0134(2)
C39_38 C 0.0178(2) 0.8430(2) 0.1488(2)
O13_38 O 0.03525(14) 0.84167(18) 0.1496(2)
C40_38 C 0.00668(19) 0.85843(17) 0.15962(17)
C44_38 C 0.0060(2) 0.8869(2) 0.1796(3)
H27_38 H 0.0130 0.8956 0.1871
C45_38 C 0.0156(2) 0.8728(2) 0.1691(3)
H28_38 H 0.0291 0.8733 0.1685
C13_38 C 0.1570(2) 0.8512(2) 0.9822(2)
O4_38 O 0.16768(10) 0.86193(12) 0.99168(11)
O5_38 O 0.15833(18) 0.8504(2) 0.96475(14)
C14_38 C 0.14157(17) 0.84038(17) 0.99332(19)
C18_38 C 0.1131(2) 0.8204(3) 0.9940(2)
H11_38 H 0.1044 0.8129 0.9870
C19_38 C 0.1272(2) 0.8309(3) 0.9844(2)
H12_38 H 0.1267 0.8315 0.9709
Zn4_38 Zn 0.93967(2) 0.97986(2) 0.23946(2)
C32_38 C 0.9455(2) 0.9473(2) 0.2209(2)
O8_38 O 0.95520(17) 0.96104(14) 0.22684(16)
O10_38 O 0.92792(16) 0.94581(15) 0.22244(17)
C33_38 C 0.9561(2) 0.93176(18) 0.20977(17)
C34_38 C 0.94656(19) 0.91717(18) 0.2012(2)
H21_38 H 0.9331 0.9168 0.2018
C35_38 C 0.95649(18) 0.90233(19) 0.1912(2)
H22_38 H 0.9495 0.8922 0.1856
C36_38 C 0.97581(19) 0.90267(18) 0.1895(2)
C37_38 C 0.9848(2) 0.9181(2) 0.1971(3)
H23_38 H 0.9980 0.9197 0.1947
C38_38 C 0.9754(2) 0.9321(2) 0.2084(3)
H24_38 H 0.9825 0.9416 0.2149
C41_38 C 0.98774(18) 0.85877(18) 0.1599(2)
H25_38 H 0.9808 0.8492 0.1534
C42_38 C 0.97766(19) 0.8735(2) 0.1698(2)
H26_38 H 0.9642 0.8732 0.1700
C43_38 C 0.9866(2) 0.88786(18) 0.1790(2)
Zn4_39 Zn 0.06033(2) 0.47986(2) 0.26054(2)
C32_39 C 0.0545(2) 0.4473(2) 0.2791(2)
O8_39 O 0.04480(17) 0.46104(14) 0.27316(16)
O10_39 O 0.07208(16) 0.44581(15) 0.27756(17)
C33_39 C 0.0439(2) 0.43176(18) 0.29023(17)
C34_39 C 0.05344(19) 0.41717(18) 0.2988(2)
H21_39 H 0.0669 0.4168 0.2982
C35_39 C 0.04351(18) 0.40233(19) 0.3088(2)
H22_39 H 0.0505 0.3922 0.3144
C36_39 C 0.02419(19) 0.40267(18) 0.3105(2)
C37_39 C 0.0152(2) 0.4181(2) 0.3029(3)
H23_39 H 0.0020 0.4197 0.3053
C38_39 C 0.0246(2) 0.4321(2) 0.2916(3)
H24_39 H 0.0175 0.4416 0.2851
C41_39 C 0.01226(18) 0.35877(18) 0.3401(2)
H25_39 H 0.0192 0.3492 0.3466
C42_39 C 0.02234(19) 0.3735(2) 0.3302(2)
H26_39 H 0.0358 0.3732 0.3300
C43_39 C 0.0134(2) 0.38786(18) 0.3210(2)
C6_39 C 0.9473(2) 0.2791(2) 0.4455(2)
O3_39 O 0.94581(15) 0.27756(17) 0.42792(16)
C7_39 C 0.93176(18) 0.29023(17) 0.4561(2)
C8_39 C 0.91717(18) 0.2988(2) 0.44656(19)
H5_39 H 0.9168 0.2982 0.4331
C9_39 C 0.90233(19) 0.3088(2) 0.45649(18)
H6_39 H 0.8922 0.3144 0.4495
C10_39 C 0.90267(18) 0.3105(2) 0.47581(19)
C11_39 C 0.9181(2) 0.3029(3) 0.4848(2)
H7_39 H 0.9197 0.3053 0.4980
C12_39 C 0.9321(2) 0.2916(3) 0.4754(2)
H8_39 H 0.9416 0.2851 0.4825
C13_39 C 0.8430(2) 0.3512(2) 0.5178(2)
O4_39 O 0.83232(10) 0.36193(12) 0.50832(11)
O5_39 O 0.84167(18) 0.3504(2) 0.53525(14)
C14_39 C 0.85843(17) 0.34038(17) 0.50668(19)
C15_39 C 0.85877(18) 0.3401(2) 0.48774(18)
H9_39 H 0.8492 0.3466 0.4808
C16_39 C 0.8735(2) 0.3302(2) 0.47766(19)
H10_39 H 0.8732 0.3300 0.4642
C17_39 C 0.88786(18) 0.3210(2) 0.4866(2)
C18_39 C 0.8869(2) 0.3204(3) 0.5060(2)
H11_39 H 0.8956 0.3129 0.5130
C19_39 C 0.8728(2) 0.3309(3) 0.5156(2)
H12_39 H 0.8733 0.3315 0.5291
C39_39 C 0.9822(2) 0.3430(2) 0.3512(2)
O13_39 O 0.96475(14) 0.34167(18) 0.3504(2)
C40_39 C 0.99332(19) 0.35843(17) 0.34038(17)
C44_39 C 0.9940(2) 0.3869(2) 0.3204(3)
H27_39 H 0.9870 0.3956 0.3129
C45_39 C 0.9844(2) 0.3728(2) 0.3309(3)
H28_39 H 0.9709 0.3733 0.3315
C13_40 C 0.6570(2) 0.6488(2) 0.0178(2)
O4_40 O 0.66768(10) 0.63807(12) 0.00832(11)
O5_40 O 0.65833(18) 0.6496(2) 0.03525(14)
C14_40 C 0.64157(17) 0.65962(17) 0.00668(19)
C18_40 C 0.6131(2) 0.6796(3) 0.0060(2)
H11_40 H 0.6044 0.6871 0.0130
C19_40 C 0.6272(2) 0.6691(3) 0.0156(2)
H12_40 H 0.6267 0.6685 0.0291
C6_40 C 0.5527(2) 0.7209(2) 0.9455(2)
O3_40 O 0.55419(15) 0.72244(17) 0.92792(16)
C7_40 C 0.56824(18) 0.70977(17) 0.9561(2)
C8_40 C 0.58283(18) 0.7012(2) 0.94656(19)
H5_40 H 0.5832 0.7018 0.9331
C9_40 C 0.59767(19) 0.6912(2) 0.95649(18)
H6_40 H 0.6078 0.6856 0.9495
C10_40 C 0.59733(18) 0.6895(2) 0.97581(19)
C11_40 C 0.5819(2) 0.6971(3) 0.9848(2)
H7_40 H 0.5803 0.6947 0.9980
C12_40 C 0.5679(2) 0.7084(3) 0.9754(2)
H8_40 H 0.5584 0.7149 0.9825
C15_40 C 0.64123(18) 0.6599(2) 0.98774(18)
H9_40 H 0.6508 0.6534 0.9808
C16_40 C 0.6265(2) 0.6698(2) 0.97766(19)
H10_40 H 0.6268 0.6700 0.9642
C17_40 C 0.61214(18) 0.6790(2) 0.9866(2)
Zn4_40 Zn 0.43967(2) 0.52014(2) 0.76054(2)
C32_40 C 0.4455(2) 0.5527(2) 0.7791(2)
O8_40 O 0.45520(17) 0.53896(14) 0.77316(16)
O10_40 O 0.42792(16) 0.55419(15) 0.77756(17)
C33_40 C 0.4561(2) 0.56824(18) 0.79023(17)
C34_40 C 0.44656(19) 0.58283(18) 0.7988(2)
H21_40 H 0.4331 0.5832 0.7982
C35_40 C 0.45649(18) 0.59767(19) 0.8088(2)
H22_40 H 0.4495 0.6078 0.8144
C36_40 C 0.47581(19) 0.59733(18) 0.8105(2)
C37_40 C 0.4848(2) 0.5819(2) 0.8029(3)
H23_40 H 0.4980 0.5803 0.8053
C38_40 C 0.4754(2) 0.5679(2) 0.7916(3)
H24_40 H 0.4825 0.5584 0.7851
C39_40 C 0.5178(2) 0.6570(2) 0.8512(2)
O13_40 O 0.53525(14) 0.65833(18) 0.8504(2)
C40_40 C 0.50668(19) 0.64157(17) 0.84038(17)
C41_40 C 0.48774(18) 0.64123(18) 0.8401(2)
H25_40 H 0.4808 0.6508 0.8466
C42_40 C 0.47766(19) 0.6265(2) 0.8302(2)
H26_40 H 0.4642 0.6268 0.8300
C43_40 C 0.4866(2) 0.61214(18) 0.8210(2)
C44_40 C 0.5060(2) 0.6131(2) 0.8204(3)
H27_40 H 0.5130 0.6044 0.8129
C45_40 C 0.5156(2) 0.6272(2) 0.8309(3)
H28_40 H 0.5291 0.6267 0.8315
C13_41 C 0.6488(2) 0.0178(2) 0.6570(2)
O4_41 O 0.63807(12) 0.00832(11) 0.66768(10)
O5_41 O 0.6496(2) 0.03525(14) 0.65833(18)
C14_41 C 0.65962(17) 0.00668(19) 0.64157(17)
C18_41 C 0.6796(3) 0.0060(2) 0.6131(2)
H11_41 H 0.6871 0.0130 0.6044
C19_41 C 0.6691(3) 0.0156(2) 0.6272(2)
H12_41 H 0.6685 0.0291 0.6267
C6_41 C 0.7209(2) 0.9455(2) 0.5527(2)
O3_41 O 0.72244(17) 0.92792(16) 0.55419(15)
C7_41 C 0.70977(17) 0.9561(2) 0.56824(18)
C8_41 C 0.7012(2) 0.94656(19) 0.58283(18)
H5_41 H 0.7018 0.9331 0.5832
C9_41 C 0.6912(2) 0.95649(18) 0.59767(19)
H6_41 H 0.6856 0.9495 0.6078
C10_41 C 0.6895(2) 0.97581(19) 0.59733(18)
C11_41 C 0.6971(3) 0.9848(2) 0.5819(2)
H7_41 H 0.6947 0.9980 0.5803
C12_41 C 0.7084(3) 0.9754(2) 0.5679(2)
H8_41 H 0.7149 0.9825 0.5584
C15_41 C 0.6599(2) 0.98774(18) 0.64123(18)
H9_41 H 0.6534 0.9808 0.6508
C16_41 C 0.6698(2) 0.97766(19) 0.6265(2)
H10_41 H 0.6700 0.9642 0.6268
C17_41 C 0.6790(2) 0.9866(2) 0.61214(18)
Zn4_41 Zn 0.52014(2) 0.76054(2) 0.43967(2)
C32_41 C 0.5527(2) 0.7791(2) 0.4455(2)
O8_41 O 0.53896(14) 0.77316(16) 0.45520(17)
O10_41 O 0.55419(15) 0.77756(17) 0.42792(16)
C33_41 C 0.56824(18) 0.79023(17) 0.4561(2)
C34_41 C 0.58283(18) 0.7988(2) 0.44656(19)
H21_41 H 0.5832 0.7982 0.4331
C35_41 C 0.59767(19) 0.8088(2) 0.45649(18)
H22_41 H 0.6078 0.8144 0.4495
C36_41 C 0.59733(18) 0.8105(2) 0.47581(19)
C37_41 C 0.5819(2) 0.8029(3) 0.4848(2)
H23_41 H 0.5803 0.8053 0.4980
C38_41 C 0.5679(2) 0.7916(3) 0.4754(2)
H24_41 H 0.5584 0.7851 0.4825
C39_41 C 0.6570(2) 0.8512(2) 0.5178(2)
O13_41 O 0.65833(18) 0.8504(2) 0.53525(14)
C40_41 C 0.64157(17) 0.84038(17) 0.50668(19)
C41_41 C 0.64123(18) 0.8401(2) 0.48774(18)
H25_41 H 0.6508 0.8466 0.4808
C42_41 C 0.6265(2) 0.8302(2) 0.47766(19)
H26_41 H 0.6268 0.8300 0.4642
C43_41 C 0.61214(18) 0.8210(2) 0.4866(2)
C44_41 C 0.6131(2) 0.8204(3) 0.5060(2)
H27_41 H 0.6044 0.8129 0.5130
C45_41 C 0.6272(2) 0.8309(3) 0.5156(2)
H28_41 H 0.6267 0.8315 0.5291
Zn4_42 Zn 0.47986(2) 0.26054(2) 0.06033(2)
C32_42 C 0.4473(2) 0.2791(2) 0.0545(2)
O8_42 O 0.46104(14) 0.27316(16) 0.04480(17)
O10_42 O 0.44581(15) 0.27756(17) 0.07208(16)
C33_42 C 0.43176(18) 0.29023(17) 0.0439(2)
C34_42 C 0.41717(18) 0.2988(2) 0.05344(19)
H21_42 H 0.4168 0.2982 0.0669
C35_42 C 0.40233(19) 0.3088(2) 0.04351(18)
H22_42 H 0.3922 0.3144 0.0505
C36_42 C 0.40267(18) 0.3105(2) 0.02419(19)
C37_42 C 0.4181(2) 0.3029(3) 0.0152(2)
H23_42 H 0.4197 0.3053 0.0020
C38_42 C 0.4321(2) 0.2916(3) 0.0246(2)
H24_42 H 0.4416 0.2851 0.0175
C41_42 C 0.35877(18) 0.3401(2) 0.01226(18)
H25_42 H 0.3492 0.3466 0.0192
C42_42 C 0.3735(2) 0.3302(2) 0.02234(19)
H26_42 H 0.3732 0.3300 0.0358
C43_42 C 0.38786(18) 0.3210(2) 0.0134(2)
C6_42 C 0.2791(2) 0.4455(2) 0.9473(2)
O3_42 O 0.27756(17) 0.42792(16) 0.94581(15)
C7_42 C 0.29023(17) 0.4561(2) 0.93176(18)
C8_42 C 0.2988(2) 0.44656(19) 0.91717(18)
H5_42 H 0.2982 0.4331 0.9168
C9_42 C 0.3088(2) 0.45649(18) 0.90233(19)
H6_42 H 0.3144 0.4495 0.8922
C10_42 C 0.3105(2) 0.47581(19) 0.90267(18)
C11_42 C 0.3029(3) 0.4848(2) 0.9181(2)
H7_42 H 0.3053 0.4980 0.9197
C12_42 C 0.2916(3) 0.4754(2) 0.9321(2)
H8_42 H 0.2851 0.4825 0.9416
C13_42 C 0.3512(2) 0.5178(2) 0.8430(2)
O4_42 O 0.36193(12) 0.50832(11) 0.83232(10)
O5_42 O 0.3504(2) 0.53525(14) 0.84167(18)
C14_42 C 0.34038(17) 0.50668(19) 0.85843(17)
C15_42 C 0.3401(2) 0.48774(18) 0.85877(18)
H9_42 H 0.3466 0.4808 0.8492
C16_42 C 0.3302(2) 0.47766(19) 0.8735(2)
H10_42 H 0.3300 0.4642 0.8732
C17_42 C 0.3210(2) 0.4866(2) 0.88786(18)
C18_42 C 0.3204(3) 0.5060(2) 0.8869(2)
H11_42 H 0.3129 0.5130 0.8956
C19_42 C 0.3309(3) 0.5156(2) 0.8728(2)
H12_42 H 0.3315 0.5291 0.8733
C39_42 C 0.3430(2) 0.3512(2) 0.9822(2)
O13_42 O 0.34167(18) 0.3504(2) 0.96475(14)
C40_42 C 0.35843(17) 0.34038(17) 0.99332(19)
C44_42 C 0.3869(2) 0.3204(3) 0.9940(2)
H27_42 H 0.3956 0.3129 0.9870
C45_42 C 0.3728(2) 0.3309(3) 0.9844(2)
H28_42 H 0.3733 0.3315 0.9709
C6_43 C 0.7791(2) 0.0545(2) 0.0527(2)
O3_43 O 0.77756(17) 0.07208(16) 0.05419(15)
C7_43 C 0.79023(17) 0.0439(2) 0.06824(18)
C8_43 C 0.7988(2) 0.05344(19) 0.08283(18)
H5_43 H 0.7982 0.0669 0.0832
C9_43 C 0.8088(2) 0.04351(18) 0.09767(19)
H6_43 H 0.8144 0.0505 0.1078
C10_43 C 0.8105(2) 0.02419(19) 0.09733(18)
C11_43 C 0.8029(3) 0.0152(2) 0.0819(2)
H7_43 H 0.8053 0.0020 0.0803
C12_43 C 0.7916(3) 0.0246(2) 0.0679(2)
H8_43 H 0.7851 0.0175 0.0584
C15_43 C 0.8401(2) 0.01226(18) 0.14123(18)
H9_43 H 0.8466 0.0192 0.1508
C16_43 C 0.8302(2) 0.02234(19) 0.1265(2)
H10_43 H 0.8300 0.0358 0.1268
C17_43 C 0.8210(2) 0.0134(2) 0.11214(18)
C39_43 C 0.8430(2) 0.1488(2) 0.0178(2)
O13_43 O 0.84167(18) 0.1496(2) 0.03525(14)
C40_43 C 0.85843(17) 0.15962(17) 0.00668(19)
C44_43 C 0.8869(2) 0.1796(3) 0.0060(2)
H27_43 H 0.8956 0.1871 0.0130
C45_43 C 0.8728(2) 0.1691(3) 0.0156(2)
H28_43 H 0.8733 0.1685 0.0291
Zn4_43 Zn 0.97986(2) 0.23946(2) 0.93967(2)
C32_43 C 0.9473(2) 0.2209(2) 0.9455(2)
O8_43 O 0.96104(14) 0.22684(16) 0.95520(17)
O10_43 O 0.94581(15) 0.22244(17) 0.92792(16)
C33_43 C 0.93176(18) 0.20977(17) 0.9561(2)
C34_43 C 0.91717(18) 0.2012(2) 0.94656(19)
H21_43 H 0.9168 0.2018 0.9331
C35_43 C 0.90233(19) 0.1912(2) 0.95649(18)
H22_43 H 0.8922 0.1856 0.9495
C36_43 C 0.90267(18) 0.1895(2) 0.97581(19)
C37_43 C 0.9181(2) 0.1971(3) 0.9848(2)
H23_43 H 0.9197 0.1947 0.9980
C38_43 C 0.9321(2) 0.2084(3) 0.9754(2)
H24_43 H 0.9416 0.2149 0.9825
C41_43 C 0.85877(18) 0.1599(2) 0.98774(18)
H25_43 H 0.8492 0.1534 0.9808
C42_43 C 0.8735(2) 0.1698(2) 0.97766(19)
H26_43 H 0.8732 0.1700 0.9642
C43_43 C 0.88786(18) 0.1790(2) 0.9866(2)
C13_43 C 0.8512(2) 0.9822(2) 0.1570(2)
O4_43 O 0.86193(12) 0.99168(11) 0.16768(10)
O5_43 O 0.8504(2) 0.96475(14) 0.15833(18)
C14_43 C 0.84038(17) 0.99332(19) 0.14157(17)
C18_43 C 0.8204(3) 0.9940(2) 0.1131(2)
H11_43 H 0.8129 0.9870 0.1044
C19_43 C 0.8309(3) 0.9844(2) 0.1272(2)
H12_43 H 0.8315 0.9709 0.1267
C6_44 C 0.2209(2) 0.5545(2) 0.4473(2)
O3_44 O 0.22244(17) 0.57208(16) 0.44581(15)
C7_44 C 0.20977(17) 0.5439(2) 0.43176(18)
C8_44 C 0.2012(2) 0.55344(19) 0.41717(18)
H5_44 H 0.2018 0.5669 0.4168
C9_44 C 0.1912(2) 0.54351(18) 0.40233(19)
H6_44 H 0.1856 0.5505 0.3922
C10_44 C 0.1895(2) 0.52419(19) 0.40267(18)
C11_44 C 0.1971(3) 0.5152(2) 0.4181(2)
H7_44 H 0.1947 0.5020 0.4197
C12_44 C 0.2084(3) 0.5246(2) 0.4321(2)
H8_44 H 0.2149 0.5175 0.4416
C13_44 C 0.1488(2) 0.4822(2) 0.3430(2)
O4_44 O 0.13807(12) 0.49168(11) 0.33232(10)
O5_44 O 0.1496(2) 0.46475(14) 0.34167(18)
C14_44 C 0.15962(17) 0.49332(19) 0.35843(17)
C15_44 C 0.1599(2) 0.51226(18) 0.35877(18)
H9_44 H 0.1534 0.5192 0.3492
C16_44 C 0.1698(2) 0.52234(19) 0.3735(2)
H10_44 H 0.1700 0.5358 0.3732
C17_44 C 0.1790(2) 0.5134(2) 0.38786(18)
C18_44 C 0.1796(3) 0.4940(2) 0.3869(2)
H11_44 H 0.1871 0.4870 0.3956
C19_44 C 0.1691(3) 0.4844(2) 0.3728(2)
H12_44 H 0.1685 0.4709 0.3733
Zn4_44 Zn 0.02014(2) 0.73946(2) 0.56033(2)
C32_44 C 0.0527(2) 0.7209(2) 0.5545(2)
O8_44 O 0.03896(14) 0.72684(16) 0.54480(17)
O10_44 O 0.05419(15) 0.72244(17) 0.57208(16)
C33_44 C 0.06824(18) 0.70977(17) 0.5439(2)
C34_44 C 0.08283(18) 0.7012(2) 0.55344(19)
H21_44 H 0.0832 0.7018 0.5669
C35_44 C 0.09767(19) 0.6912(2) 0.54351(18)
H22_44 H 0.1078 0.6856 0.5505
C36_44 C 0.09733(18) 0.6895(2) 0.52419(19)
C37_44 C 0.0819(2) 0.6971(3) 0.5152(2)
H23_44 H 0.0803 0.6947 0.5020
C38_44 C 0.0679(2) 0.7084(3) 0.5246(2)
H24_44 H 0.0584 0.7149 0.5175
C39_44 C 0.1570(2) 0.6488(2) 0.4822(2)
O13_44 O 0.15833(18) 0.6496(2) 0.46475(14)
C40_44 C 0.14157(17) 0.65962(17) 0.49332(19)
C41_44 C 0.14123(18) 0.6599(2) 0.51226(18)
H25_44 H 0.1508 0.6534 0.5192
C42_44 C 0.1265(2) 0.6698(2) 0.52234(19)
H26_44 H 0.1268 0.6700 0.5358
C43_44 C 0.11214(18) 0.6790(2) 0.5134(2)
C44_44 C 0.1131(2) 0.6796(3) 0.4940(2)
H27_44 H 0.1044 0.6871 0.4870
C45_44 C 0.1272(2) 0.6691(3) 0.4844(2)
H28_44 H 0.1267 0.6685 0.4709
Zn4_45 Zn 0.26054(2) 0.06033(2) 0.47986(2)
C32_45 C 0.2791(2) 0.0545(2) 0.4473(2)
O8_45 O 0.27316(16) 0.04480(17) 0.46104(14)
O10_45 O 0.27756(17) 0.07208(16) 0.44581(15)
C33_45 C 0.29023(17) 0.0439(2) 0.43176(18)
C34_45 C 0.2988(2) 0.05344(19) 0.41717(18)
H21_45 H 0.2982 0.0669 0.4168
C35_45 C 0.3088(2) 0.04351(18) 0.40233(19)
H22_45 H 0.3144 0.0505 0.3922
C36_45 C 0.3105(2) 0.02419(19) 0.40267(18)
C37_45 C 0.3029(3) 0.0152(2) 0.4181(2)
H23_45 H 0.3053 0.0020 0.4197
C38_45 C 0.2916(3) 0.0246(2) 0.4321(2)
H24_45 H 0.2851 0.0175 0.4416
C41_45 C 0.3401(2) 0.01226(18) 0.35877(18)
H25_45 H 0.3466 0.0192 0.3492
C42_45 C 0.3302(2) 0.02234(19) 0.3735(2)
H26_45 H 0.3300 0.0358 0.3732
C43_45 C 0.3210(2) 0.0134(2) 0.38786(18)
C6_45 C 0.4455(2) 0.9473(2) 0.2791(2)
O3_45 O 0.42792(16) 0.94581(15) 0.27756(17)
C7_45 C 0.4561(2) 0.93176(18) 0.29023(17)
C8_45 C 0.44656(19) 0.91717(18) 0.2988(2)
H5_45 H 0.4331 0.9168 0.2982
C9_45 C 0.45649(18) 0.90233(19) 0.3088(2)
H6_45 H 0.4495 0.8922 0.3144
C10_45 C 0.47581(19) 0.90267(18) 0.3105(2)
C11_45 C 0.4848(2) 0.9181(2) 0.3029(3)
H7_45 H 0.4980 0.9197 0.3053
C12_45 C 0.4754(2) 0.9321(2) 0.2916(3)
H8_45 H 0.4825 0.9416 0.2851
C13_45 C 0.5178(2) 0.8430(2) 0.3512(2)
O4_45 O 0.50832(11) 0.83232(10) 0.36193(12)
O5_45 O 0.53525(14) 0.84167(18) 0.3504(2)
C14_45 C 0.50668(19) 0.85843(17) 0.34038(17)
C15_45 C 0.48774(18) 0.85877(18) 0.3401(2)
H9_45 H 0.4808 0.8492 0.3466
C16_45 C 0.47766(19) 0.8735(2) 0.3302(2)
H10_45 H 0.4642 0.8732 0.3300
C17_45 C 0.4866(2) 0.88786(18) 0.3210(2)
C18_45 C 0.5060(2) 0.8869(2) 0.3204(3)
H11_45 H 0.5130 0.8956 0.3129
C19_45 C 0.5156(2) 0.8728(2) 0.3309(3)
H12_45 H 0.5291 0.8733 0.3315
C39_45 C 0.3512(2) 0.9822(2) 0.3430(2)
O13_45 O 0.3504(2) 0.96475(14) 0.34167(18)
C40_45 C 0.34038(17) 0.99332(19) 0.35843(17)
C44_45 C 0.3204(3) 0.9940(2) 0.3869(2)
H27_45 H 0.3129 0.9870 0.3956
C45_45 C 0.3309(3) 0.9844(2) 0.3728(2)
H28_45 H 0.3315 0.9709 0.3733
C13_46 C 0.0178(2) 0.6570(2) 0.6488(2)
O4_46 O 0.00832(11) 0.66768(10) 0.63807(12)
O5_46 O 0.03525(14) 0.65833(18) 0.6496(2)
C14_46 C 0.00668(19) 0.64157(17) 0.65962(17)
C18_46 C 0.0060(2) 0.6131(2) 0.6796(3)
H11_46 H 0.0130 0.6044 0.6871
C19_46 C 0.0156(2) 0.6272(2) 0.6691(3)
H12_46 H 0.0291 0.6267 0.6685
C6_46 C 0.9455(2) 0.5527(2) 0.7209(2)
O3_46 O 0.92792(16) 0.55419(15) 0.72244(17)
C7_46 C 0.9561(2) 0.56824(18) 0.70977(17)
C8_46 C 0.94656(19) 0.58283(18) 0.7012(2)
H5_46 H 0.9331 0.5832 0.7018
C9_46 C 0.95649(18) 0.59767(19) 0.6912(2)
H6_46 H 0.9495 0.6078 0.6856
C10_46 C 0.97581(19) 0.59733(18) 0.6895(2)
C11_46 C 0.9848(2) 0.5819(2) 0.6971(3)
H7_46 H 0.9980 0.5803 0.6947
C12_46 C 0.9754(2) 0.5679(2) 0.7084(3)
H8_46 H 0.9825 0.5584 0.7149
C15_46 C 0.98774(18) 0.64123(18) 0.6599(2)
H9_46 H 0.9808 0.6508 0.6534
C16_46 C 0.97766(19) 0.6265(2) 0.6698(2)
H10_46 H 0.9642 0.6268 0.6700
C17_46 C 0.9866(2) 0.61214(18) 0.6790(2)
Zn4_46 Zn 0.76054(2) 0.43967(2) 0.52014(2)
C32_46 C 0.7791(2) 0.4455(2) 0.5527(2)
O8_46 O 0.77316(16) 0.45520(17) 0.53896(14)
O10_46 O 0.77756(17) 0.42792(16) 0.55419(15)
C33_46 C 0.79023(17) 0.4561(2) 0.56824(18)
C34_46 C 0.7988(2) 0.44656(19) 0.58283(18)
H21_46 H 0.7982 0.4331 0.5832
C35_46 C 0.8088(2) 0.45649(18) 0.59767(19)
H22_46 H 0.8144 0.4495 0.6078
C36_46 C 0.8105(2) 0.47581(19) 0.59733(18)
C37_46 C 0.8029(3) 0.4848(2) 0.5819(2)
H23_46 H 0.8053 0.4980 0.5803
C38_46 C 0.7916(3) 0.4754(2) 0.5679(2)
H24_46 H 0.7851 0.4825 0.5584
C39_46 C 0.8512(2) 0.5178(2) 0.6570(2)
O13_46 O 0.8504(2) 0.53525(14) 0.65833(18)
C40_46 C 0.84038(17) 0.50668(19) 0.64157(17)
C41_46 C 0.8401(2) 0.48774(18) 0.64123(18)
H25_46 H 0.8466 0.4808 0.6508
C42_46 C 0.8302(2) 0.47766(19) 0.6265(2)
H26_46 H 0.8300 0.4642 0.6268
C43_46 C 0.8210(2) 0.4866(2) 0.61214(18)
C44_46 C 0.8204(3) 0.5060(2) 0.6131(2)
H27_46 H 0.8129 0.5130 0.6044
C45_46 C 0.8309(3) 0.5156(2) 0.6272(2)
H28_46 H 0.8315 0.5291 0.6267
C6_47 C 0.5545(2) 0.4473(2) 0.2209(2)
O3_47 O 0.57208(16) 0.44581(15) 0.22244(17)
C7_47 C 0.5439(2) 0.43176(18) 0.20977(17)
C8_47 C 0.55344(19) 0.41717(18) 0.2012(2)
H5_47 H 0.5669 0.4168 0.2018
C9_47 C 0.54351(18) 0.40233(19) 0.1912(2)
H6_47 H 0.5505 0.3922 0.1856
C10_47 C 0.52419(19) 0.40267(18) 0.1895(2)
C11_47 C 0.5152(2) 0.4181(2) 0.1971(3)
H7_47 H 0.5020 0.4197 0.1947
C12_47 C 0.5246(2) 0.4321(2) 0.2084(3)
H8_47 H 0.5175 0.4416 0.2149
C13_47 C 0.4822(2) 0.3430(2) 0.1488(2)
O4_47 O 0.49168(11) 0.33232(10) 0.13807(12)
O5_47 O 0.46475(14) 0.34167(18) 0.1496(2)
C14_47 C 0.49332(19) 0.35843(17) 0.15962(17)
C15_47 C 0.51226(18) 0.35877(18) 0.1599(2)
H9_47 H 0.5192 0.3492 0.1534
C16_47 C 0.52234(19) 0.3735(2) 0.1698(2)
H10_47 H 0.5358 0.3732 0.1700
C17_47 C 0.5134(2) 0.38786(18) 0.1790(2)
C18_47 C 0.4940(2) 0.3869(2) 0.1796(3)
H11_47 H 0.4870 0.3956 0.1871
C19_47 C 0.4844(2) 0.3728(2) 0.1691(3)
H12_47 H 0.4709 0.3733 0.1685
Zn4_47 Zn 0.73946(2) 0.56033(2) 0.02014(2)
C32_47 C 0.7209(2) 0.5545(2) 0.0527(2)
O8_47 O 0.72684(16) 0.54480(17) 0.03896(14)
O10_47 O 0.72244(17) 0.57208(16) 0.05419(15)
C33_47 C 0.70977(17) 0.5439(2) 0.06824(18)
C34_47 C 0.7012(2) 0.55344(19) 0.08283(18)
H21_47 H 0.7018 0.5669 0.0832
C35_47 C 0.6912(2) 0.54351(18) 0.09767(19)
H22_47 H 0.6856 0.5505 0.1078
C36_47 C 0.6895(2) 0.52419(19) 0.09733(18)
C37_47 C 0.6971(3) 0.5152(2) 0.0819(2)
H23_47 H 0.6947 0.5020 0.0803
C38_47 C 0.7084(3) 0.5246(2) 0.0679(2)
H24_47 H 0.7149 0.5175 0.0584
C39_47 C 0.6488(2) 0.4822(2) 0.1570(2)
O13_47 O 0.6496(2) 0.46475(14) 0.15833(18)
C40_47 C 0.65962(17) 0.49332(19) 0.14157(17)
C41_47 C 0.6599(2) 0.51226(18) 0.14123(18)
H25_47 H 0.6534 0.5192 0.1508
C42_47 C 0.6698(2) 0.52234(19) 0.1265(2)
H26_47 H 0.6700 0.5358 0.1268
C43_47 C 0.6790(2) 0.5134(2) 0.11214(18)
C44_47 C 0.6796(3) 0.4940(2) 0.1131(2)
H27_47 H 0.6871 0.4870 0.1044
C45_47 C 0.6691(3) 0.4844(2) 0.1272(2)
H28_47 H 0.6685 0.4709 0.1267
C6_48 C 0.0545(2) 0.0527(2) 0.7791(2)
O3_48 O 0.07208(16) 0.05419(15) 0.77756(17)
C7_48 C 0.0439(2) 0.06824(18) 0.79023(17)
C8_48 C 0.05344(19) 0.08283(18) 0.7988(2)
H5_48 H 0.0669 0.0832 0.7982
C9_48 C 0.04351(18) 0.09767(19) 0.8088(2)
H6_48 H 0.0505 0.1078 0.8144
C10_48 C 0.02419(19) 0.09733(18) 0.8105(2)
C11_48 C 0.0152(2) 0.0819(2) 0.8029(3)
H7_48 H 0.0020 0.0803 0.8053
C12_48 C 0.0246(2) 0.0679(2) 0.7916(3)
H8_48 H 0.0175 0.0584 0.7851
C15_48 C 0.01226(18) 0.14123(18) 0.8401(2)
H9_48 H 0.0192 0.1508 0.8466
C16_48 C 0.02234(19) 0.1265(2) 0.8302(2)
H10_48 H 0.0358 0.1268 0.8300
C17_48 C 0.0134(2) 0.11214(18) 0.8210(2)
C39_48 C 0.1488(2) 0.0178(2) 0.8430(2)
O13_48 O 0.1496(2) 0.03525(14) 0.84167(18)
C40_48 C 0.15962(17) 0.00668(19) 0.85843(17)
C44_48 C 0.1796(3) 0.0060(2) 0.8869(2)
H27_48 H 0.1871 0.0130 0.8956
C45_48 C 0.1691(3) 0.0156(2) 0.8728(2)
H28_48 H 0.1685 0.0291 0.8733
Zn4_48 Zn 0.23946(2) 0.93967(2) 0.97986(2)
C32_48 C 0.2209(2) 0.9455(2) 0.9473(2)
O8_48 O 0.22684(16) 0.95520(17) 0.96104(14)
O10_48 O 0.22244(17) 0.92792(16) 0.94581(15)
C33_48 C 0.20977(17) 0.9561(2) 0.93176(18)
C34_48 C 0.2012(2) 0.94656(19) 0.91717(18)
H21_48 H 0.2018 0.9331 0.9168
C35_48 C 0.1912(2) 0.95649(18) 0.90233(19)
H22_48 H 0.1856 0.9495 0.8922
C36_48 C 0.1895(2) 0.97581(19) 0.90267(18)
C37_48 C 0.1971(3) 0.9848(2) 0.9181(2)
H23_48 H 0.1947 0.9980 0.9197
C38_48 C 0.2084(3) 0.9754(2) 0.9321(2)
H24_48 H 0.2149 0.9825 0.9416
C41_48 C 0.1599(2) 0.98774(18) 0.85877(18)
H25_48 H 0.1534 0.9808 0.8492
C42_48 C 0.1698(2) 0.97766(19) 0.8735(2)
H26_48 H 0.1700 0.9642 0.8732
C43_48 C 0.1790(2) 0.9866(2) 0.88786(18)
C13_48 C 0.9822(2) 0.1570(2) 0.8512(2)
O4_48 O 0.99168(11) 0.16768(10) 0.86193(12)
O5_48 O 0.96475(14) 0.15833(18) 0.8504(2)
C14_48 C 0.99332(19) 0.14157(17) 0.84038(17)
C18_48 C 0.9940(2) 0.1131(2) 0.8204(3)
H11_48 H 0.9870 0.1044 0.8129
C19_48 C 0.9844(2) 0.1272(2) 0.8309(3)
H12_48 H 0.9709 0.1267 0.8315
N1_25 N 0.54988(12) 0.75630(14) 0.85658(14)
C1_25 C 0.54046(14) 0.76389(17) 0.84167(16)
H1_25 H 0.5434 0.7767 0.8387
N2_25 N 0.52717(12) 0.75514(13) 0.83038(12)
C2_25 C 0.52445(16) 0.73682(16) 0.83600(18)
C3_25 C 0.53367(16) 0.72682(17) 0.85175(18)
C4_25 C 0.54683(19) 0.73683(19) 0.86156(19)
C5_25 C 0.51358(17) 0.70831(18) 0.83916(17)
H2_25 H 0.5063 0.6973 0.8364
N4_25 N 0.51165(13) 0.72442(14) 0.82821(14)
N5_25 N 0.55668(13) 0.72809(12) 0.87654(15)
H3_25 H 0.5543 0.7162 0.8795
H4_25 H 0.5652 0.7345 0.8829
O1_37 O 0.5000 0.7500 0.79382(13)
C20_25 C 0.5748(2) 0.8048(2) 0.8543(2)
O6_13 O 0.56168(11) 0.80126(11) 0.86628(14)
O7_25 O 0.58550(14) 0.79228(12) 0.84862(18)
C21_25 C 0.57886(16) 0.82589(17) 0.84894(15)
C22_25 C 0.59395(19) 0.83087(18) 0.83754(18)
H13_25 H 0.6018 0.8212 0.8324
C23_25 C 0.59792(19) 0.85018(18) 0.8334(2)
H14_25 H 0.6085 0.8534 0.8257
C24_25 C 0.58633(18) 0.86418(16) 0.84052(17)
C25_25 C 0.57110(17) 0.85932(18) 0.85179(17)
H15_25 H 0.5631 0.8690 0.8566
C26_25 C 0.56730(17) 0.84000(16) 0.85620(18)
H16_25 H 0.5569 0.8368 0.8641
N6_25 N 0.45012(12) 0.74370(14) 0.85658(14)
C27_25 C 0.45954(14) 0.73611(17) 0.84167(16)
H17_25 H 0.4566 0.7233 0.8387
N7_25 N 0.47283(12) 0.74486(13) 0.83038(12)
C28_25 C 0.47555(16) 0.76318(16) 0.83600(18)
C29_25 C 0.46633(16) 0.77318(17) 0.85175(18)
C30_25 C 0.45317(19) 0.76317(19) 0.86156(19)
C31_25 C 0.48642(17) 0.79169(18) 0.83916(17)
H18_25 H 0.4937 0.8027 0.8364
N11_25 N 0.48835(13) 0.77558(14) 0.82821(14)
N12_25 N 0.44332(13) 0.77191(12) 0.87654(15)
H19_25 H 0.4457 0.7838 0.8795
H20_25 H 0.4348 0.7655 0.8829
C46_25 C 0.6043(2) 0.9452(2) 0.8248(2)
O14_13 O 0.61628(14) 0.94874(11) 0.81168(11)
O15_25 O 0.43832(11) 0.69874(11) 0.86628(14)
O16_25 O 0.59862(18) 0.95772(12) 0.83550(14)
C47_25 C 0.59894(15) 0.92411(17) 0.82886(16)
C48_25 C 0.58754(18) 0.91913(18) 0.84395(19)
H29_25 H 0.5824 0.9288 0.8518
C49_25 C 0.5834(2) 0.89982(18) 0.84792(19)
H30_25 H 0.5757 0.8966 0.8585
C50_25 C 0.59052(17) 0.88582(16) 0.83633(18)
C51_25 C 0.60179(17) 0.89068(18) 0.82110(17)
H31_25 H 0.6066 0.8810 0.8131
C52_25 C 0.60620(18) 0.91000(16) 0.81730(17)
H32_25 H 0.6141 0.9132 0.8069
O1_38 O 0.0000 0.2500 0.29382(13)
N6_26 N 0.04988(12) 0.25630(14) 0.35658(14)
C27_26 C 0.04046(14) 0.26389(17) 0.34167(16)
H17_26 H 0.0434 0.2767 0.3387
N7_26 N 0.02717(12) 0.25514(13) 0.33038(12)
C28_26 C 0.02445(16) 0.23682(16) 0.33600(18)
C29_26 C 0.03367(16) 0.22682(17) 0.35175(18)
C30_26 C 0.04683(19) 0.23683(19) 0.36156(19)
C31_26 C 0.01358(17) 0.20831(18) 0.33916(17)
H18_26 H 0.0063 0.1973 0.3364
N11_26 N 0.01165(13) 0.22442(14) 0.32821(14)
N12_26 N 0.05668(13) 0.22809(12) 0.37654(15)
H19_26 H 0.0543 0.2162 0.3795
H20_26 H 0.0652 0.2345 0.3829
O15_26 O 0.06168(11) 0.30126(11) 0.36628(14)
N1_26 N 0.95012(12) 0.24370(14) 0.35658(14)
C1_26 C 0.95954(14) 0.23611(17) 0.34167(16)
H1_26 H 0.9566 0.2233 0.3387
N2_26 N 0.97283(12) 0.24486(13) 0.33038(12)
C2_26 C 0.97555(16) 0.26318(16) 0.33600(18)
C3_26 C 0.96633(16) 0.27318(17) 0.35175(18)
C4_26 C 0.95317(19) 0.26317(19) 0.36156(19)
C5_26 C 0.98642(17) 0.29169(18) 0.33916(17)
H2_26 H 0.9937 0.3027 0.3364
N4_26 N 0.98835(13) 0.27558(14) 0.32821(14)
N5_26 N 0.94332(13) 0.27191(12) 0.37654(15)
H3_26 H 0.9457 0.2838 0.3795
H4_26 H 0.9348 0.2655 0.3829
O1_39 O 1.0000 0.2500 0.29382(13)
C20_26 C 0.9252(2) 0.1952(2) 0.3543(2)
O6_14 O 0.93832(11) 0.19874(11) 0.36628(14)
O7_26 O 0.91450(14) 0.20772(12) 0.34862(18)
C21_26 C 0.92114(16) 0.17411(17) 0.34894(15)
C22_26 C 0.90605(19) 0.16913(18) 0.33754(18)
H13_26 H 0.8982 0.1788 0.3324
C23_26 C 0.90208(19) 0.14982(18) 0.3334(2)
H14_26 H 0.8915 0.1466 0.3257
C24_26 C 0.91367(18) 0.13582(16) 0.34052(17)
C25_26 C 0.92890(17) 0.14068(18) 0.35179(17)
H15_26 H 0.9369 0.1310 0.3566
C26_26 C 0.93270(17) 0.16000(16) 0.35620(18)
H16_26 H 0.9431 0.1632 0.3641
C46_26 C 0.8957(2) 0.0548(2) 0.3248(2)
O14_14 O 0.88372(14) 0.05126(11) 0.31168(11)
O16_26 O 0.90138(18) 0.04228(12) 0.33550(14)
C47_26 C 0.90106(15) 0.07589(17) 0.32886(16)
C48_26 C 0.91246(18) 0.08087(18) 0.34395(19)
H29_26 H 0.9176 0.0712 0.3518
C49_26 C 0.9166(2) 0.10018(18) 0.34792(19)
H30_26 H 0.9243 0.1034 0.3585
C50_26 C 0.90948(17) 0.11418(16) 0.33633(18)
C51_26 C 0.89821(17) 0.10932(18) 0.32110(17)
H31_26 H 0.8934 0.1190 0.3131
C52_26 C 0.89380(18) 0.09000(16) 0.31730(17)
H32_26 H 0.8859 0.0868 0.3069
N1_27 N 0.45012(12) 0.25630(14) 0.64342(14)
C1_27 C 0.45954(14) 0.26389(17) 0.65833(16)
H1_27 H 0.4566 0.2767 0.6613
N2_27 N 0.47283(12) 0.25514(13) 0.66962(12)
C2_27 C 0.47555(16) 0.23682(16) 0.66400(18)
C3_27 C 0.46633(16) 0.22682(17) 0.64825(18)
C4_27 C 0.45317(19) 0.23683(19) 0.63844(19)
C5_27 C 0.48642(17) 0.20831(18) 0.66084(17)
H2_27 H 0.4937 0.1973 0.6636
N4_27 N 0.48835(13) 0.22442(14) 0.67179(14)
N5_27 N 0.44332(13) 0.22809(12) 0.62346(15)
H3_27 H 0.4457 0.2162 0.6205
H4_27 H 0.4348 0.2345 0.6171
O1_40 O 0.5000 0.2500 0.70618(13)
C20_27 C 0.4252(2) 0.3048(2) 0.6457(2)
O6_15 O 0.43832(11) 0.30126(11) 0.63372(14)
O7_27 O 0.41450(14) 0.29228(12) 0.65138(18)
C21_27 C 0.42114(16) 0.32589(17) 0.65106(15)
C22_27 C 0.40605(19) 0.33087(18) 0.66246(18)
H13_27 H 0.3982 0.3212 0.6676
C23_27 C 0.40208(19) 0.35018(18) 0.6666(2)
H14_27 H 0.3915 0.3534 0.6743
C24_27 C 0.41367(18) 0.36418(16) 0.65948(17)
C25_27 C 0.42890(17) 0.35932(18) 0.64821(17)
H15_27 H 0.4369 0.3690 0.6434
C26_27 C 0.43270(17) 0.34000(16) 0.64380(18)
H16_27 H 0.4431 0.3368 0.6359
N6_27 N 0.54988(12) 0.24370(14) 0.64342(14)
C27_27 C 0.54046(14) 0.23611(17) 0.65833(16)
H17_27 H 0.5434 0.2233 0.6613
N7_27 N 0.52717(12) 0.24486(13) 0.66962(12)
C28_27 C 0.52445(16) 0.26318(16) 0.66400(18)
C29_27 C 0.53367(16) 0.27318(17) 0.64825(18)
C30_27 C 0.54683(19) 0.26317(19) 0.63844(19)
C31_27 C 0.51358(17) 0.29169(18) 0.66084(17)
H18_27 H 0.5063 0.3027 0.6636
N11_27 N 0.51165(13) 0.27558(14) 0.67179(14)
N12_27 N 0.55668(13) 0.27191(12) 0.62346(15)
H19_27 H 0.5543 0.2838 0.6205
H20_27 H 0.5652 0.2655 0.6171
C46_27 C 0.3957(2) 0.4452(2) 0.6752(2)
O14_15 O 0.38372(14) 0.44874(11) 0.68832(11)
O15_27 O 0.56168(11) 0.19874(11) 0.63372(14)
O16_27 O 0.40138(18) 0.45772(12) 0.66450(14)
C47_27 C 0.40106(15) 0.42411(17) 0.67114(16)
C48_27 C 0.41246(18) 0.41913(18) 0.65605(19)
H29_27 H 0.4176 0.4288 0.6482
C49_27 C 0.4166(2) 0.39982(18) 0.65208(19)
H30_27 H 0.4243 0.3966 0.6415
C50_27 C 0.40948(17) 0.38582(16) 0.66367(18)
C51_27 C 0.39821(17) 0.39068(18) 0.67890(17)
H31_27 H 0.3934 0.3810 0.6869
C52_27 C 0.39380(18) 0.41000(16) 0.68270(17)
H32_27 H 0.3859 0.4132 0.6931
N1_28 N 0.04988(12) 0.74370(14) 0.14342(14)
C1_28 C 0.04046(14) 0.73611(17) 0.15833(16)
H1_28 H 0.0434 0.7233 0.1613
N2_28 N 0.02717(12) 0.74486(13) 0.16962(12)
C2_28 C 0.02445(16) 0.76318(16) 0.16400(18)
C3_28 C 0.03367(16) 0.77318(17) 0.14825(18)
C4_28 C 0.04683(19) 0.76317(19) 0.13844(19)
C5_28 C 0.01358(17) 0.79169(18) 0.16084(17)
H2_28 H 0.0063 0.8027 0.1636
N4_28 N 0.01165(13) 0.77558(14) 0.17179(14)
N5_28 N 0.05668(13) 0.77191(12) 0.12346(15)
H3_28 H 0.0543 0.7838 0.1205
H4_28 H 0.0652 0.7655 0.1171
O1_41 O 0.0000 0.7500 0.20618(13)
C20_28 C 0.0748(2) 0.6952(2) 0.1457(2)
O6_16 O 0.06168(11) 0.69874(11) 0.13372(14)
O7_28 O 0.08550(14) 0.70772(12) 0.15138(18)
C21_28 C 0.07886(16) 0.67411(17) 0.15106(15)
C22_28 C 0.09395(19) 0.66913(18) 0.16246(18)
H13_28 H 0.1018 0.6788 0.1676
C23_28 C 0.09792(19) 0.64982(18) 0.1666(2)
H14_28 H 0.1085 0.6466 0.1743
C24_28 C 0.08633(18) 0.63582(16) 0.15948(17)
C25_28 C 0.07110(17) 0.64068(18) 0.14821(17)
H15_28 H 0.0631 0.6310 0.1434
C26_28 C 0.06730(17) 0.66000(16) 0.14380(18)
H16_28 H 0.0569 0.6632 0.1359
C46_28 C 0.1043(2) 0.5548(2) 0.1752(2)
O14_16 O 0.11628(14) 0.55126(11) 0.18832(11)
O16_28 O 0.09862(18) 0.54228(12) 0.16450(14)
C47_28 C 0.09894(15) 0.57589(17) 0.17114(16)
C48_28 C 0.08754(18) 0.58087(18) 0.15605(19)
H29_28 H 0.0824 0.5712 0.1482
C49_28 C 0.0834(2) 0.60018(18) 0.15208(19)
H30_28 H 0.0757 0.6034 0.1415
C50_28 C 0.09052(17) 0.61418(16) 0.16367(18)
C51_28 C 0.10179(17) 0.60932(18) 0.17890(17)
H31_28 H 0.1066 0.6190 0.1869
C52_28 C 0.10620(18) 0.59000(16) 0.18270(17)
H32_28 H 0.1141 0.5868 0.1931
O1_42 O 1.0000 0.7500 0.20618(13)
N6_28 N 0.95012(12) 0.75630(14) 0.14342(14)
C27_28 C 0.95954(14) 0.76389(17) 0.15833(16)
H17_28 H 0.9566 0.7767 0.1613
N7_28 N 0.97283(12) 0.75514(13) 0.16962(12)
C28_28 C 0.97555(16) 0.73682(16) 0.16400(18)
C29_28 C 0.96633(16) 0.72682(17) 0.14825(18)
C30_28 C 0.95317(19) 0.73683(19) 0.13844(19)
C31_28 C 0.98642(17) 0.70831(18) 0.16084(17)
H18_28 H 0.9937 0.6973 0.1636
N11_28 N 0.98835(13) 0.72442(14) 0.17179(14)
N12_28 N 0.94332(13) 0.72809(12) 0.12346(15)
H19_28 H 0.9457 0.7162 0.1205
H20_28 H 0.9348 0.7345 0.1171
O15_28 O 0.93832(11) 0.80126(11) 0.13372(14)
N1_29 N 0.85658(14) 0.54988(12) 0.75630(14)
C1_29 C 0.84167(16) 0.54046(14) 0.76389(17)
H1_29 H 0.8387 0.5434 0.7767
N2_29 N 0.83038(12) 0.52717(12) 0.75514(13)
C2_29 C 0.83600(18) 0.52445(16) 0.73682(16)
C3_29 C 0.85175(18) 0.53367(16) 0.72682(17)
C4_29 C 0.86156(19) 0.54683(19) 0.73683(19)
C5_29 C 0.83916(17) 0.51358(17) 0.70831(18)
H2_29 H 0.8364 0.5063 0.6973
N4_29 N 0.82821(14) 0.51165(13) 0.72442(14)
N5_29 N 0.87654(15) 0.55668(13) 0.72809(12)
H3_29 H 0.8795 0.5543 0.7162
H4_29 H 0.8829 0.5652 0.7345
O1_43 O 0.79382(13) 0.5000 0.7500
C20_29 C 0.8543(2) 0.5748(2) 0.8048(2)
O6_17 O 0.86628(14) 0.56168(11) 0.80126(11)
O7_29 O 0.84862(18) 0.58550(14) 0.79228(12)
C21_29 C 0.84894(15) 0.57886(16) 0.82589(17)
C22_29 C 0.83754(18) 0.59395(19) 0.83087(18)
H13_29 H 0.8324 0.6018 0.8212
C23_29 C 0.8334(2) 0.59792(19) 0.85018(18)
H14_29 H 0.8257 0.6085 0.8534
C24_29 C 0.84052(17) 0.58633(18) 0.86418(16)
C25_29 C 0.85179(17) 0.57110(17) 0.85932(18)
H15_29 H 0.8566 0.5631 0.8690
C26_29 C 0.85620(18) 0.56730(17) 0.84000(16)
H16_29 H 0.8641 0.5569 0.8368
N6_29 N 0.85658(14) 0.45012(12) 0.74370(14)
C27_29 C 0.84167(16) 0.45954(14) 0.73611(17)
H17_29 H 0.8387 0.4566 0.7233
N7_29 N 0.83038(12) 0.47283(12) 0.74486(13)
C28_29 C 0.83600(18) 0.47555(16) 0.76318(16)
C29_29 C 0.85175(18) 0.46633(16) 0.77318(17)
C30_29 C 0.86156(19) 0.45317(19) 0.76317(19)
C31_29 C 0.83916(17) 0.48642(17) 0.79169(18)
H18_29 H 0.8364 0.4937 0.8027
N11_29 N 0.82821(14) 0.48835(13) 0.77558(14)
N12_29 N 0.87654(15) 0.44332(13) 0.77191(12)
H19_29 H 0.8795 0.4457 0.7838
H20_29 H 0.8829 0.4348 0.7655
C46_29 C 0.8248(2) 0.6043(2) 0.9452(2)
O14_17 O 0.81168(11) 0.61628(14) 0.94874(11)
O15_29 O 0.86628(14) 0.43832(11) 0.69874(11)
O16_29 O 0.83550(14) 0.59862(18) 0.95772(12)
C47_29 C 0.82886(16) 0.59894(15) 0.92411(17)
C48_29 C 0.84395(19) 0.58754(18) 0.91913(18)
H29_29 H 0.8518 0.5824 0.9288
C49_29 C 0.84792(19) 0.5834(2) 0.89982(18)
H30_29 H 0.8585 0.5757 0.8966
C50_29 C 0.83633(18) 0.59052(17) 0.88582(16)
C51_29 C 0.82110(17) 0.60179(17) 0.89068(18)
H31_29 H 0.8131 0.6066 0.8810
C52_29 C 0.81730(17) 0.60620(18) 0.91000(16)
H32_29 H 0.8069 0.6141 0.9132
O1_44 O 0.29382(13) 0.0000 0.2500
N6_30 N 0.35658(14) 0.04988(12) 0.25630(14)
C27_30 C 0.34167(16) 0.04046(14) 0.26389(17)
H17_30 H 0.3387 0.0434 0.2767
N7_30 N 0.33038(12) 0.02717(12) 0.25514(13)
C28_30 C 0.33600(18) 0.02445(16) 0.23682(16)
C29_30 C 0.35175(18) 0.03367(16) 0.22682(17)
C30_30 C 0.36156(19) 0.04683(19) 0.23683(19)
C31_30 C 0.33916(17) 0.01358(17) 0.20831(18)
H18_30 H 0.3364 0.0063 0.1973
N11_30 N 0.32821(14) 0.01165(13) 0.22442(14)
N12_30 N 0.37654(15) 0.05668(13) 0.22809(12)
H19_30 H 0.3795 0.0543 0.2162
H20_30 H 0.3829 0.0652 0.2345
O15_30 O 0.36628(14) 0.06168(11) 0.30126(11)
N1_30 N 0.35658(14) 0.95012(12) 0.24370(14)
C1_30 C 0.34167(16) 0.95954(14) 0.23611(17)
H1_30 H 0.3387 0.9566 0.2233
N2_30 N 0.33038(12) 0.97283(12) 0.24486(13)
C2_30 C 0.33600(18) 0.97555(16) 0.26318(16)
C3_30 C 0.35175(18) 0.96633(16) 0.27318(17)
C4_30 C 0.36156(19) 0.95317(19) 0.26317(19)
C5_30 C 0.33916(17) 0.98642(17) 0.29169(18)
H2_30 H 0.3364 0.9937 0.3027
N4_30 N 0.32821(14) 0.98835(13) 0.27558(14)
N5_30 N 0.37654(15) 0.94332(13) 0.27191(12)
H3_30 H 0.3795 0.9457 0.2838
H4_30 H 0.3829 0.9348 0.2655
O1_45 O 0.29382(13) 1.0000 0.2500
C20_30 C 0.3543(2) 0.9252(2) 0.1952(2)
O6_18 O 0.36628(14) 0.93832(11) 0.19874(11)
O7_30 O 0.34862(18) 0.91450(14) 0.20772(12)
C21_30 C 0.34894(15) 0.92114(16) 0.17411(17)
C22_30 C 0.33754(18) 0.90605(19) 0.16913(18)
H13_30 H 0.3324 0.8982 0.1788
C23_30 C 0.3334(2) 0.90208(19) 0.14982(18)
H14_30 H 0.3257 0.8915 0.1466
C24_30 C 0.34052(17) 0.91367(18) 0.13582(16)
C25_30 C 0.35179(17) 0.92890(17) 0.14068(18)
H15_30 H 0.3566 0.9369 0.1310
C26_30 C 0.35620(18) 0.93270(17) 0.16000(16)
H16_30 H 0.3641 0.9431 0.1632
C46_30 C 0.3248(2) 0.8957(2) 0.0548(2)
O14_18 O 0.31168(11) 0.88372(14) 0.05126(11)
O16_30 O 0.33550(14) 0.90138(18) 0.04228(12)
C47_30 C 0.32886(16) 0.90106(15) 0.07589(17)
C48_30 C 0.34395(19) 0.91246(18) 0.08087(18)
H29_30 H 0.3518 0.9176 0.0712
C49_30 C 0.34792(19) 0.9166(2) 0.10018(18)
H30_30 H 0.3585 0.9243 0.1034
C50_30 C 0.33633(18) 0.90948(17) 0.11418(16)
C51_30 C 0.32110(17) 0.89821(17) 0.10932(18)
H31_30 H 0.3131 0.8934 0.1190
C52_30 C 0.31730(17) 0.89380(18) 0.09000(16)
H32_30 H 0.3069 0.8859 0.0868
N1_31 N 0.64342(14) 0.45012(12) 0.25630(14)
C1_31 C 0.65833(16) 0.45954(14) 0.26389(17)
H1_31 H 0.6613 0.4566 0.2767
N2_31 N 0.66962(12) 0.47283(12) 0.25514(13)
C2_31 C 0.66400(18) 0.47555(16) 0.23682(16)
C3_31 C 0.64825(18) 0.46633(16) 0.22682(17)
C4_31 C 0.63844(19) 0.45317(19) 0.23683(19)
C5_31 C 0.66084(17) 0.48642(17) 0.20831(18)
H2_31 H 0.6636 0.4937 0.1973
N4_31 N 0.67179(14) 0.48835(13) 0.22442(14)
N5_31 N 0.62346(15) 0.44332(13) 0.22809(12)
H3_31 H 0.6205 0.4457 0.2162
H4_31 H 0.6171 0.4348 0.2345
O1_46 O 0.70618(13) 0.5000 0.2500
C20_31 C 0.6457(2) 0.4252(2) 0.3048(2)
O6_19 O 0.63372(14) 0.43832(11) 0.30126(11)
O7_31 O 0.65138(18) 0.41450(14) 0.29228(12)
C21_31 C 0.65106(15) 0.42114(16) 0.32589(17)
C22_31 C 0.66246(18) 0.40605(19) 0.33087(18)
H13_31 H 0.6676 0.3982 0.3212
C23_31 C 0.6666(2) 0.40208(19) 0.35018(18)
H14_31 H 0.6743 0.3915 0.3534
C24_31 C 0.65948(17) 0.41367(18) 0.36418(16)
C25_31 C 0.64821(17) 0.42890(17) 0.35932(18)
H15_31 H 0.6434 0.4369 0.3690
C26_31 C 0.64380(18) 0.43270(17) 0.34000(16)
H16_31 H 0.6359 0.4431 0.3368
N6_31 N 0.64342(14) 0.54988(12) 0.24370(14)
C27_31 C 0.65833(16) 0.54046(14) 0.23611(17)
H17_31 H 0.6613 0.5434 0.2233
N7_31 N 0.66962(12) 0.52717(12) 0.24486(13)
C28_31 C 0.66400(18) 0.52445(16) 0.26318(16)
C29_31 C 0.64825(18) 0.53367(16) 0.27318(17)
C30_31 C 0.63844(19) 0.54683(19) 0.26317(19)
C31_31 C 0.66084(17) 0.51358(17) 0.29169(18)
H18_31 H 0.6636 0.5063 0.3027
N11_31 N 0.67179(14) 0.51165(13) 0.27558(14)
N12_31 N 0.62346(15) 0.55668(13) 0.27191(12)
H19_31 H 0.6205 0.5543 0.2838
H20_31 H 0.6171 0.5652 0.2655
C46_31 C 0.6752(2) 0.3957(2) 0.4452(2)
O14_19 O 0.68832(11) 0.38372(14) 0.44874(11)
O15_31 O 0.63372(14) 0.56168(11) 0.19874(11)
O16_31 O 0.66450(14) 0.40138(18) 0.45772(12)
C47_31 C 0.67114(16) 0.40106(15) 0.42411(17)
C48_31 C 0.65605(19) 0.41246(18) 0.41913(18)
H29_31 H 0.6482 0.4176 0.4288
C49_31 C 0.65208(19) 0.4166(2) 0.39982(18)
H30_31 H 0.6415 0.4243 0.3966
C50_31 C 0.66367(18) 0.40948(17) 0.38582(16)
C51_31 C 0.67890(17) 0.39821(17) 0.39068(18)
H31_31 H 0.6869 0.3934 0.3810
C52_31 C 0.68270(17) 0.39380(18) 0.41000(16)
H32_31 H 0.6931 0.3859 0.4132
N1_32 N 0.14342(14) 0.04988(12) 0.74370(14)
C1_32 C 0.15833(16) 0.04046(14) 0.73611(17)
H1_32 H 0.1613 0.0434 0.7233
N2_32 N 0.16962(12) 0.02717(12) 0.74486(13)
C2_32 C 0.16400(18) 0.02445(16) 0.76318(16)
C3_32 C 0.14825(18) 0.03367(16) 0.77318(17)
C4_32 C 0.13844(19) 0.04683(19) 0.76317(19)
C5_32 C 0.16084(17) 0.01358(17) 0.79169(18)
H2_32 H 0.1636 0.0063 0.8027
N4_32 N 0.17179(14) 0.01165(13) 0.77558(14)
N5_32 N 0.12346(15) 0.05668(13) 0.77191(12)
H3_32 H 0.1205 0.0543 0.7838
H4_32 H 0.1171 0.0652 0.7655
O1_47 O 0.20618(13) 0.0000 0.7500
C20_32 C 0.1457(2) 0.0748(2) 0.6952(2)
O6_20 O 0.13372(14) 0.06168(11) 0.69874(11)
O7_32 O 0.15138(18) 0.08550(14) 0.70772(12)
C21_32 C 0.15106(15) 0.07886(16) 0.67411(17)
C22_32 C 0.16246(18) 0.09395(19) 0.66913(18)
H13_32 H 0.1676 0.1018 0.6788
C23_32 C 0.1666(2) 0.09792(19) 0.64982(18)
H14_32 H 0.1743 0.1085 0.6466
C24_32 C 0.15948(17) 0.08633(18) 0.63582(16)
C25_32 C 0.14821(17) 0.07110(17) 0.64068(18)
H15_32 H 0.1434 0.0631 0.6310
C26_32 C 0.14380(18) 0.06730(17) 0.66000(16)
H16_32 H 0.1359 0.0569 0.6632
C46_32 C 0.1752(2) 0.1043(2) 0.5548(2)
O14_20 O 0.18832(11) 0.11628(14) 0.55126(11)
O16_32 O 0.16450(14) 0.09862(18) 0.54228(12)
C47_32 C 0.17114(16) 0.09894(15) 0.57589(17)
C48_32 C 0.15605(19) 0.08754(18) 0.58087(18)
H29_32 H 0.1482 0.0824 0.5712
C49_32 C 0.15208(19) 0.0834(2) 0.60018(18)
H30_32 H 0.1415 0.0757 0.6034
C50_32 C 0.16367(18) 0.09052(17) 0.61418(16)
C51_32 C 0.17890(17) 0.10179(17) 0.60932(18)
H31_32 H 0.1869 0.1066 0.6190
C52_32 C 0.18270(17) 0.10620(18) 0.59000(16)
H32_32 H 0.1931 0.1141 0.5868
O1_48 O 0.20618(13) 1.0000 0.7500
N6_32 N 0.14342(14) 0.95012(12) 0.75630(14)
C27_32 C 0.15833(16) 0.95954(14) 0.76389(17)
H17_32 H 0.1613 0.9566 0.7767
N7_32 N 0.16962(12) 0.97283(12) 0.75514(13)
C28_32 C 0.16400(18) 0.97555(16) 0.73682(16)
C29_32 C 0.14825(18) 0.96633(16) 0.72682(17)
C30_32 C 0.13844(19) 0.95317(19) 0.73683(19)
C31_32 C 0.16084(17) 0.98642(17) 0.70831(18)
H18_32 H 0.1636 0.9937 0.6973
N11_32 N 0.17179(14) 0.98835(13) 0.72442(14)
N12_32 N 0.12346(15) 0.94332(13) 0.72809(12)
H19_32 H 0.1205 0.9457 0.7162
H20_32 H 0.1171 0.9348 0.7345
O15_32 O 0.13372(14) 0.93832(11) 0.80126(11)
N1_33 N 0.75630(14) 0.85658(14) 0.54988(12)
C1_33 C 0.76389(17) 0.84167(16) 0.54046(14)
H1_33 H 0.7767 0.8387 0.5434
N2_33 N 0.75514(13) 0.83038(12) 0.52717(12)
C2_33 C 0.73682(16) 0.83600(18) 0.52445(16)
C3_33 C 0.72682(17) 0.85175(18) 0.53367(16)
C4_33 C 0.73683(19) 0.86156(19) 0.54683(19)
C5_33 C 0.70831(18) 0.83916(17) 0.51358(17)
H2_33 H 0.6973 0.8364 0.5063
N4_33 N 0.72442(14) 0.82821(14) 0.51165(13)
N5_33 N 0.72809(12) 0.87654(15) 0.55668(13)
H3_33 H 0.7162 0.8795 0.5543
H4_33 H 0.7345 0.8829 0.5652
O1_49 O 0.7500 0.79382(13) 0.5000
C20_33 C 0.8048(2) 0.8543(2) 0.5748(2)
O6_21 O 0.80126(11) 0.86628(14) 0.56168(11)
O7_33 O 0.79228(12) 0.84862(18) 0.58550(14)
C21_33 C 0.82589(17) 0.84894(15) 0.57886(16)
C22_33 C 0.83087(18) 0.83754(18) 0.59395(19)
H13_33 H 0.8212 0.8324 0.6018
C23_33 C 0.85018(18) 0.8334(2) 0.59792(19)
H14_33 H 0.8534 0.8257 0.6085
C24_33 C 0.86418(16) 0.84052(17) 0.58633(18)
C25_33 C 0.85932(18) 0.85179(17) 0.57110(17)
H15_33 H 0.8690 0.8566 0.5631
C26_33 C 0.84000(16) 0.85620(18) 0.56730(17)
H16_33 H 0.8368 0.8641 0.5569
N6_33 N 0.74370(14) 0.85658(14) 0.45012(12)
C27_33 C 0.73611(17) 0.84167(16) 0.45954(14)
H17_33 H 0.7233 0.8387 0.4566
N7_33 N 0.74486(13) 0.83038(12) 0.47283(12)
C28_33 C 0.76318(16) 0.83600(18) 0.47555(16)
C29_33 C 0.77318(17) 0.85175(18) 0.46633(16)
C30_33 C 0.76317(19) 0.86156(19) 0.45317(19)
C31_33 C 0.79169(18) 0.83916(17) 0.48642(17)
H18_33 H 0.8027 0.8364 0.4937
N11_33 N 0.77558(14) 0.82821(14) 0.48835(13)
N12_33 N 0.77191(12) 0.87654(15) 0.44332(13)
H19_33 H 0.7838 0.8795 0.4457
H20_33 H 0.7655 0.8829 0.4348
C46_33 C 0.9452(2) 0.8248(2) 0.6043(2)
O14_21 O 0.94874(11) 0.81168(11) 0.61628(14)
O15_33 O 0.69874(11) 0.86628(14) 0.43832(11)
O16_33 O 0.95772(12) 0.83550(14) 0.59862(18)
C47_33 C 0.92411(17) 0.82886(16) 0.59894(15)
C48_33 C 0.91913(18) 0.84395(19) 0.58754(18)
H29_33 H 0.9288 0.8518 0.5824
C49_33 C 0.89982(18) 0.84792(19) 0.5834(2)
H30_33 H 0.8966 0.8585 0.5757
C50_33 C 0.88582(16) 0.83633(18) 0.59052(17)
C51_33 C 0.89068(18) 0.82110(17) 0.60179(17)
H31_33 H 0.8810 0.8131 0.6066
C52_33 C 0.91000(16) 0.81730(17) 0.60620(18)
H32_33 H 0.9132 0.8069 0.6141
O1_50 O 0.2500 0.29382(13) 0.0000
N6_34 N 0.25630(14) 0.35658(14) 0.04988(12)
C27_34 C 0.26389(17) 0.34167(16) 0.04046(14)
H17_34 H 0.2767 0.3387 0.0434
N7_34 N 0.25514(13) 0.33038(12) 0.02717(12)
C28_34 C 0.23682(16) 0.33600(18) 0.02445(16)
C29_34 C 0.22682(17) 0.35175(18) 0.03367(16)
C30_34 C 0.23683(19) 0.36156(19) 0.04683(19)
C31_34 C 0.20831(18) 0.33916(17) 0.01358(17)
H18_34 H 0.1973 0.3364 0.0063
N11_34 N 0.22442(14) 0.32821(14) 0.01165(13)
N12_34 N 0.22809(12) 0.37654(15) 0.05668(13)
H19_34 H 0.2162 0.3795 0.0543
H20_34 H 0.2345 0.3829 0.0652
O15_34 O 0.30126(11) 0.36628(14) 0.06168(11)
N1_34 N 0.24370(14) 0.35658(14) 0.95012(12)
C1_34 C 0.23611(17) 0.34167(16) 0.95954(14)
H1_34 H 0.2233 0.3387 0.9566
N2_34 N 0.24486(13) 0.33038(12) 0.97283(12)
C2_34 C 0.26318(16) 0.33600(18) 0.97555(16)
C3_34 C 0.27318(17) 0.35175(18) 0.96633(16)
C4_34 C 0.26317(19) 0.36156(19) 0.95317(19)
C5_34 C 0.29169(18) 0.33916(17) 0.98642(17)
H2_34 H 0.3027 0.3364 0.9937
N4_34 N 0.27558(14) 0.32821(14) 0.98835(13)
N5_34 N 0.27191(12) 0.37654(15) 0.94332(13)
H3_34 H 0.2838 0.3795 0.9457
H4_34 H 0.2655 0.3829 0.9348
O1_51 O 0.2500 0.29382(13) 1.0000
C20_34 C 0.1952(2) 0.3543(2) 0.9252(2)
O6_22 O 0.19874(11) 0.36628(14) 0.93832(11)
O7_34 O 0.20772(12) 0.34862(18) 0.91450(14)
C21_34 C 0.17411(17) 0.34894(15) 0.92114(16)
C22_34 C 0.16913(18) 0.33754(18) 0.90605(19)
H13_34 H 0.1788 0.3324 0.8982
C23_34 C 0.14982(18) 0.3334(2) 0.90208(19)
H14_34 H 0.1466 0.3257 0.8915
C24_34 C 0.13582(16) 0.34052(17) 0.91367(18)
C25_34 C 0.14068(18) 0.35179(17) 0.92890(17)
H15_34 H 0.1310 0.3566 0.9369
C26_34 C 0.16000(16) 0.35620(18) 0.93270(17)
H16_34 H 0.1632 0.3641 0.9431
C46_34 C 0.0548(2) 0.3248(2) 0.8957(2)
O14_22 O 0.05126(11) 0.31168(11) 0.88372(14)
O16_34 O 0.04228(12) 0.33550(14) 0.90138(18)
C47_34 C 0.07589(17) 0.32886(16) 0.90106(15)
C48_34 C 0.08087(18) 0.34395(19) 0.91246(18)
H29_34 H 0.0712 0.3518 0.9176
C49_34 C 0.10018(18) 0.34792(19) 0.9166(2)
H30_34 H 0.1034 0.3585 0.9243
C50_34 C 0.11418(16) 0.33633(18) 0.90948(17)
C51_34 C 0.10932(18) 0.32110(17) 0.89821(17)
H31_34 H 0.1190 0.3131 0.8934
C52_34 C 0.09000(16) 0.31730(17) 0.89380(18)
H32_34 H 0.0868 0.3069 0.8859
N1_35 N 0.25630(14) 0.64342(14) 0.45012(12)
C1_35 C 0.26389(17) 0.65833(16) 0.45954(14)
H1_35 H 0.2767 0.6613 0.4566
N2_35 N 0.25514(13) 0.66962(12) 0.47283(12)
C2_35 C 0.23682(16) 0.66400(18) 0.47555(16)
C3_35 C 0.22682(17) 0.64825(18) 0.46633(16)
C4_35 C 0.23683(19) 0.63844(19) 0.45317(19)
C5_35 C 0.20831(18) 0.66084(17) 0.48642(17)
H2_35 H 0.1973 0.6636 0.4937
N4_35 N 0.22442(14) 0.67179(14) 0.48835(13)
N5_35 N 0.22809(12) 0.62346(15) 0.44332(13)
H3_35 H 0.2162 0.6205 0.4457
H4_35 H 0.2345 0.6171 0.4348
O1_52 O 0.2500 0.70618(13) 0.5000
C20_35 C 0.3048(2) 0.6457(2) 0.4252(2)
O6_23 O 0.30126(11) 0.63372(14) 0.43832(11)
O7_35 O 0.29228(12) 0.65138(18) 0.41450(14)
C21_35 C 0.32589(17) 0.65106(15) 0.42114(16)
C22_35 C 0.33087(18) 0.66246(18) 0.40605(19)
H13_35 H 0.3212 0.6676 0.3982
C23_35 C 0.35018(18) 0.6666(2) 0.40208(19)
H14_35 H 0.3534 0.6743 0.3915
C24_35 C 0.36418(16) 0.65948(17) 0.41367(18)
C25_35 C 0.35932(18) 0.64821(17) 0.42890(17)
H15_35 H 0.3690 0.6434 0.4369
C26_35 C 0.34000(16) 0.64380(18) 0.43270(17)
H16_35 H 0.3368 0.6359 0.4431
N6_35 N 0.24370(14) 0.64342(14) 0.54988(12)
C27_35 C 0.23611(17) 0.65833(16) 0.54046(14)
H17_35 H 0.2233 0.6613 0.5434
N7_35 N 0.24486(13) 0.66962(12) 0.52717(12)
C28_35 C 0.26318(16) 0.66400(18) 0.52445(16)
C29_35 C 0.27318(17) 0.64825(18) 0.53367(16)
C30_35 C 0.26317(19) 0.63844(19) 0.54683(19)
C31_35 C 0.29169(18) 0.66084(17) 0.51358(17)
H18_35 H 0.3027 0.6636 0.5063
N11_35 N 0.27558(14) 0.67179(14) 0.51165(13)
N12_35 N 0.27191(12) 0.62346(15) 0.55668(13)
H19_35 H 0.2838 0.6205 0.5543
H20_35 H 0.2655 0.6171 0.5652
C46_35 C 0.4452(2) 0.6752(2) 0.3957(2)
O14_23 O 0.44874(11) 0.68832(11) 0.38372(14)
O15_35 O 0.19874(11) 0.63372(14) 0.56168(11)
O16_35 O 0.45772(12) 0.66450(14) 0.40138(18)
C47_35 C 0.42411(17) 0.67114(16) 0.40106(15)
C48_35 C 0.41913(18) 0.65605(19) 0.41246(18)
H29_35 H 0.4288 0.6482 0.4176
C49_35 C 0.39982(18) 0.65208(19) 0.4166(2)
H30_35 H 0.3966 0.6415 0.4243
C50_35 C 0.38582(16) 0.66367(18) 0.40948(17)
C51_35 C 0.39068(18) 0.67890(17) 0.39821(17)
H31_35 H 0.3810 0.6869 0.3934
C52_35 C 0.41000(16) 0.68270(17) 0.39380(18)
H32_35 H 0.4132 0.6931 0.3859
N1_36 N 0.74370(14) 0.14342(14) 0.04988(12)
C1_36 C 0.73611(17) 0.15833(16) 0.04046(14)
H1_36 H 0.7233 0.1613 0.0434
N2_36 N 0.74486(13) 0.16962(12) 0.02717(12)
C2_36 C 0.76318(16) 0.16400(18) 0.02445(16)
C3_36 C 0.77318(17) 0.14825(18) 0.03367(16)
C4_36 C 0.76317(19) 0.13844(19) 0.04683(19)
C5_36 C 0.79169(18) 0.16084(17) 0.01358(17)
H2_36 H 0.8027 0.1636 0.0063
N4_36 N 0.77558(14) 0.17179(14) 0.01165(13)
N5_36 N 0.77191(12) 0.12346(15) 0.05668(13)
H3_36 H 0.7838 0.1205 0.0543
H4_36 H 0.7655 0.1171 0.0652
O1_53 O 0.7500 0.20618(13) 0.0000
C20_36 C 0.6952(2) 0.1457(2) 0.0748(2)
O6_24 O 0.69874(11) 0.13372(14) 0.06168(11)
O7_36 O 0.70772(12) 0.15138(18) 0.08550(14)
C21_36 C 0.67411(17) 0.15106(15) 0.07886(16)
C22_36 C 0.66913(18) 0.16246(18) 0.09395(19)
H13_36 H 0.6788 0.1676 0.1018
C23_36 C 0.64982(18) 0.1666(2) 0.09792(19)
H14_36 H 0.6466 0.1743 0.1085
C24_36 C 0.63582(16) 0.15948(17) 0.08633(18)
C25_36 C 0.64068(18) 0.14821(17) 0.07110(17)
H15_36 H 0.6310 0.1434 0.0631
C26_36 C 0.66000(16) 0.14380(18) 0.06730(17)
H16_36 H 0.6632 0.1359 0.0569
C46_36 C 0.5548(2) 0.1752(2) 0.1043(2)
O14_24 O 0.55126(11) 0.18832(11) 0.11628(14)
O16_36 O 0.54228(12) 0.16450(14) 0.09862(18)
C47_36 C 0.57589(17) 0.17114(16) 0.09894(15)
C48_36 C 0.58087(18) 0.15605(19) 0.08754(18)
H29_36 H 0.5712 0.1482 0.0824
C49_36 C 0.60018(18) 0.15208(19) 0.0834(2)
H30_36 H 0.6034 0.1415 0.0757
C50_36 C 0.61418(16) 0.16367(18) 0.09052(17)
C51_36 C 0.60932(18) 0.17890(17) 0.10179(17)
H31_36 H 0.6190 0.1869 0.1066
C52_36 C 0.59000(16) 0.18270(17) 0.10620(18)
H32_36 H 0.5868 0.1931 0.1141
O1_54 O 0.7500 0.20618(13) 1.0000
N6_36 N 0.75630(14) 0.14342(14) 0.95012(12)
C27_36 C 0.76389(17) 0.15833(16) 0.95954(14)
H17_36 H 0.7767 0.1613 0.9566
N7_36 N 0.75514(13) 0.16962(12) 0.97283(12)
C28_36 C 0.73682(16) 0.16400(18) 0.97555(16)
C29_36 C 0.72682(17) 0.14825(18) 0.96633(16)
C30_36 C 0.73683(19) 0.13844(19) 0.95317(19)
C31_36 C 0.70831(18) 0.16084(17) 0.98642(17)
H18_36 H 0.6973 0.1636 0.9937
N11_36 N 0.72442(14) 0.17179(14) 0.98835(13)
N12_36 N 0.72809(12) 0.12346(15) 0.94332(13)
H19_36 H 0.7162 0.1205 0.9457
H20_36 H 0.7345 0.1171 0.9348
O15_36 O 0.80126(11) 0.13372(14) 0.93832(11)
N1_37 N 0.00630(14) 0.29988(12) 0.89342(14)
C1_37 C 0.01389(17) 0.29046(14) 0.90833(16)
H1_37 H 0.0267 0.2934 0.9113
N2_37 N 0.00514(13) 0.27717(12) 0.91962(12)
O1_55 O -0.0000 0.2500 0.95618(13)
C28_37 C 0.01318(16) 0.22555(16) 0.91400(18)
C29_37 C 0.02318(17) 0.21633(16) 0.89825(18)
C30_37 C 0.01317(19) 0.20317(19) 0.88844(19)
C31_37 C 0.04169(18) 0.23642(17) 0.91084(17)
H18_37 H 0.0527 0.2437 0.9136
N11_37 N 0.02558(14) 0.23835(13) 0.92179(14)
N12_37 N 0.02191(12) 0.19332(13) 0.87346(15)
H19_37 H 0.0338 0.1957 0.8705
H20_37 H 0.0155 0.1848 0.8671
C2_37 C 0.98682(16) 0.27445(16) 0.91400(18)
C3_37 C 0.97682(17) 0.28367(16) 0.89825(18)
C4_37 C 0.98683(19) 0.29683(19) 0.88844(19)
C5_37 C 0.95831(18) 0.26358(17) 0.91084(17)
H2_37 H 0.9473 0.2563 0.9136
N4_37 N 0.97442(14) 0.26165(13) 0.92179(14)
N5_37 N 0.97809(12) 0.30668(13) 0.87346(15)
H3_37 H 0.9662 0.3043 0.8705
H4_37 H 0.9845 0.3152 0.8671
O1_56 O 1.0000 0.2500 0.95618(13)
N6_37 N 0.99370(14) 0.20012(12) 0.89342(14)
C27_37 C 0.98611(17) 0.20954(14) 0.90833(16)
H17_37 H 0.9733 0.2066 0.9113
N7_37 N 0.99486(13) 0.22283(12) 0.91962(12)
O15_37 O 0.94874(11) 0.18832(11) 0.88372(14)
N1_38 N 0.49370(14) 0.70012(12) 0.39342(14)
C1_38 C 0.48611(17) 0.70954(14) 0.40833(16)
H1_38 H 0.4733 0.7066 0.4113
N2_38 N 0.49486(13) 0.72283(12) 0.41962(12)
C2_38 C 0.51318(16) 0.72555(16) 0.41400(18)
C3_38 C 0.52318(17) 0.71633(16) 0.39825(18)
C4_38 C 0.51317(19) 0.70317(19) 0.38844(19)
C5_38 C 0.54169(18) 0.73642(17) 0.41084(17)
H2_38 H 0.5527 0.7437 0.4136
N4_38 N 0.52558(14) 0.73835(13) 0.42179(14)
N5_38 N 0.52191(12) 0.69332(13) 0.37346(15)
H3_38 H 0.5338 0.6957 0.3705
H4_38 H 0.5155 0.6848 0.3671
O1_57 O 0.5000 0.7500 0.45618(13)
N6_38 N 0.50630(14) 0.79988(12) 0.39342(14)
C27_38 C 0.51389(17) 0.79046(14) 0.40833(16)
H17_38 H 0.5267 0.7934 0.4113
N7_38 N 0.50514(13) 0.77717(12) 0.41962(12)
C28_38 C 0.48682(16) 0.77445(16) 0.41400(18)
C29_38 C 0.47682(17) 0.78367(16) 0.39825(18)
C30_38 C 0.48683(19) 0.79683(19) 0.38844(19)
C31_38 C 0.45831(18) 0.76358(17) 0.41084(17)
H18_38 H 0.4473 0.7563 0.4136
N11_38 N 0.47442(14) 0.76165(13) 0.42179(14)
N12_38 N 0.47809(12) 0.80668(13) 0.37346(15)
H19_38 H 0.4662 0.8043 0.3705
H20_38 H 0.4845 0.8152 0.3671
O15_38 O 0.55126(11) 0.81168(11) 0.38372(14)
N1_39 N 0.50630(14) 0.20012(12) 0.10658(14)
C1_39 C 0.51389(17) 0.20954(14) 0.09167(16)
H1_39 H 0.5267 0.2066 0.0887
N2_39 N 0.50514(13) 0.22283(12) 0.08038(12)
C2_39 C 0.48682(16) 0.22555(16) 0.08600(18)
C3_39 C 0.47682(17) 0.21633(16) 0.10175(18)
C4_39 C 0.48683(19) 0.20317(19) 0.11156(19)
C5_39 C 0.45831(18) 0.23642(17) 0.08916(17)
H2_39 H 0.4473 0.2437 0.0864
N4_39 N 0.47442(14) 0.23835(13) 0.07821(14)
N5_39 N 0.47809(12) 0.19332(13) 0.12654(15)
H3_39 H 0.4662 0.1957 0.1295
H4_39 H 0.4845 0.1848 0.1329
O1_58 O 0.5000 0.2500 0.04382(13)
N6_39 N 0.49370(14) 0.29988(12) 0.10658(14)
C27_39 C 0.48611(17) 0.29046(14) 0.09167(16)
H17_39 H 0.4733 0.2934 0.0887
N7_39 N 0.49486(13) 0.27717(12) 0.08038(12)
C28_39 C 0.51318(16) 0.27445(16) 0.08600(18)
C29_39 C 0.52318(17) 0.28367(16) 0.10175(18)
C30_39 C 0.51317(19) 0.29683(19) 0.11156(19)
C31_39 C 0.54169(18) 0.26358(17) 0.08916(17)
H18_39 H 0.5527 0.2563 0.0864
N11_39 N 0.52558(14) 0.26165(13) 0.07821(14)
N12_39 N 0.52191(12) 0.30668(13) 0.12654(15)
H19_39 H 0.5338 0.3043 0.1295
H20_39 H 0.5155 0.3152 0.1329
O15_39 O 0.44874(11) 0.31168(11) 0.11628(14)
C2_40 C 0.01318(16) 0.77445(16) 0.58600(18)
C3_40 C 0.02318(17) 0.78367(16) 0.60175(18)
C4_40 C 0.01317(19) 0.79683(19) 0.61156(19)
C5_40 C 0.04169(18) 0.76358(17) 0.58916(17)
H2_40 H 0.0527 0.7563 0.5864
N4_40 N 0.02558(14) 0.76165(13) 0.57821(14)
N5_40 N 0.02191(12) 0.80668(13) 0.62654(15)
H3_40 H 0.0338 0.8043 0.6295
H4_40 H 0.0155 0.8152 0.6329
O1_59 O 0.0000 0.7500 0.54382(13)
N6_40 N 0.00630(14) 0.70012(12) 0.60658(14)
C27_40 C 0.01389(17) 0.70954(14) 0.59167(16)
H17_40 H 0.0267 0.7066 0.5887
N7_40 N 0.00514(13) 0.72283(12) 0.58038(12)
O15_40 O 0.05126(11) 0.68832(11) 0.61628(14)
N1_40 N 0.99370(14) 0.79988(12) 0.60658(14)
C1_40 C 0.98611(17) 0.79046(14) 0.59167(16)
H1_40 H 0.9733 0.7934 0.5887
N2_40 N 0.99486(13) 0.77717(12) 0.58038(12)
O1_60 O 1.0000 0.7500 0.54382(13)
C28_40 C 0.98682(16) 0.72555(16) 0.58600(18)
C29_40 C 0.97682(17) 0.71633(16) 0.60175(18)
C30_40 C 0.98683(19) 0.70317(19) 0.61156(19)
C31_40 C 0.95831(18) 0.73642(17) 0.58916(17)
H18_40 H 0.9473 0.7437 0.5864
N11_40 N 0.97442(14) 0.73835(13) 0.57821(14)
N12_40 N 0.97809(12) 0.69332(13) 0.62654(15)
H19_40 H 0.9662 0.6957 0.6295
H20_40 H 0.9845 0.6848 0.6329
C2_41 C 0.77445(16) 0.58600(18) 0.01318(16)
C3_41 C 0.78367(16) 0.60175(18) 0.02318(17)
C4_41 C 0.79683(19) 0.61156(19) 0.01317(19)
C5_41 C 0.76358(17) 0.58916(17) 0.04169(18)
H2_41 H 0.7563 0.5864 0.0527
N4_41 N 0.76165(13) 0.57821(14) 0.02558(14)
N5_41 N 0.80668(13) 0.62654(15) 0.02191(12)
H3_41 H 0.8043 0.6295 0.0338
H4_41 H 0.8152 0.6329 0.0155
O1_61 O 0.7500 0.54382(13) 0.0000
N6_41 N 0.70012(12) 0.60658(14) 0.00630(14)
C27_41 C 0.70954(14) 0.59167(16) 0.01389(17)
H17_41 H 0.7066 0.5887 0.0267
N7_41 N 0.72283(12) 0.58038(12) 0.00514(13)
O15_41 O 0.68832(11) 0.61628(14) 0.05126(11)
N1_41 N 0.79988(12) 0.60658(14) 0.99370(14)
C1_41 C 0.79046(14) 0.59167(16) 0.98611(17)
H1_41 H 0.7934 0.5887 0.9733
N2_41 N 0.77717(12) 0.58038(12) 0.99486(13)
O1_62 O 0.7500 0.54382(13) 1.0000
C28_41 C 0.72555(16) 0.58600(18) 0.98682(16)
C29_41 C 0.71633(16) 0.60175(18) 0.97682(17)
C30_41 C 0.70317(19) 0.61156(19) 0.98683(19)
C31_41 C 0.73642(17) 0.58916(17) 0.95831(18)
H18_41 H 0.7437 0.5864 0.9473
N11_41 N 0.73835(13) 0.57821(14) 0.97442(14)
N12_41 N 0.69332(13) 0.62654(15) 0.97809(12)
H19_41 H 0.6957 0.6295 0.9662
H20_41 H 0.6848 0.6329 0.9845
N1_42 N 0.20012(12) 0.10658(14) 0.50630(14)
C1_42 C 0.20954(14) 0.09167(16) 0.51389(17)
H1_42 H 0.2066 0.0887 0.5267
N2_42 N 0.22283(12) 0.08038(12) 0.50514(13)
C2_42 C 0.22555(16) 0.08600(18) 0.48682(16)
C3_42 C 0.21633(16) 0.10175(18) 0.47682(17)
C4_42 C 0.20317(19) 0.11156(19) 0.48683(19)
C5_42 C 0.23642(17) 0.08916(17) 0.45831(18)
H2_42 H 0.2437 0.0864 0.4473
N4_42 N 0.23835(13) 0.07821(14) 0.47442(14)
N5_42 N 0.19332(13) 0.12654(15) 0.47809(12)
H3_42 H 0.1957 0.1295 0.4662
H4_42 H 0.1848 0.1329 0.4845
O1_63 O 0.2500 0.04382(13) 0.5000
N6_42 N 0.29988(12) 0.10658(14) 0.49370(14)
C27_42 C 0.29046(14) 0.09167(16) 0.48611(17)
H17_42 H 0.2934 0.0887 0.4733
N7_42 N 0.27717(12) 0.08038(12) 0.49486(13)
C28_42 C 0.27445(16) 0.08600(18) 0.51318(16)
C29_42 C 0.28367(16) 0.10175(18) 0.52318(17)
C30_42 C 0.29683(19) 0.11156(19) 0.51317(19)
C31_42 C 0.26358(17) 0.08916(17) 0.54169(18)
H18_42 H 0.2563 0.0864 0.5527
N11_42 N 0.26165(13) 0.07821(14) 0.52558(14)
N12_42 N 0.30668(13) 0.12654(15) 0.52191(12)
H19_42 H 0.3043 0.1295 0.5338
H20_42 H 0.3152 0.1329 0.5155
O15_42 O 0.31168(11) 0.11628(14) 0.44874(11)
N1_43 N 0.70012(12) 0.39342(14) 0.49370(14)
C1_43 C 0.70954(14) 0.40833(16) 0.48611(17)
H1_43 H 0.7066 0.4113 0.4733
N2_43 N 0.72283(12) 0.41962(12) 0.49486(13)
C2_43 C 0.72555(16) 0.41400(18) 0.51318(16)
C3_43 C 0.71633(16) 0.39825(18) 0.52318(17)
C4_43 C 0.70317(19) 0.38844(19) 0.51317(19)
C5_43 C 0.73642(17) 0.41084(17) 0.54169(18)
H2_43 H 0.7437 0.4136 0.5527
N4_43 N 0.73835(13) 0.42179(14) 0.52558(14)
N5_43 N 0.69332(13) 0.37346(15) 0.52191(12)
H3_43 H 0.6957 0.3705 0.5338
H4_43 H 0.6848 0.3671 0.5155
O1_64 O 0.7500 0.45618(13) 0.5000
N6_43 N 0.79988(12) 0.39342(14) 0.50630(14)
C27_43 C 0.79046(14) 0.40833(16) 0.51389(17)
H17_43 H 0.7934 0.4113 0.5267
N7_43 N 0.77717(12) 0.41962(12) 0.50514(13)
C28_43 C 0.77445(16) 0.41400(18) 0.48682(16)
C29_43 C 0.78367(16) 0.39825(18) 0.47682(17)
C30_43 C 0.79683(19) 0.38844(19) 0.48683(19)
C31_43 C 0.76358(17) 0.41084(17) 0.45831(18)
H18_43 H 0.7563 0.4136 0.4473
N11_43 N 0.76165(13) 0.42179(14) 0.47442(14)
N12_43 N 0.80668(13) 0.37346(15) 0.47809(12)
H19_43 H 0.8043 0.3705 0.4662
H20_43 H 0.8152 0.3671 0.4845
O15_43 O 0.81168(11) 0.38372(14) 0.55126(11)
N1_44 N 0.29988(12) 0.89342(14) 0.00630(14)
C1_44 C 0.29046(14) 0.90833(16) 0.01389(17)
H1_44 H 0.2934 0.9113 0.0267
N2_44 N 0.27717(12) 0.91962(12) 0.00514(13)
O1_65 O 0.2500 0.95618(13) 0.0000
C28_44 C 0.22555(16) 0.91400(18) 0.01318(16)
C29_44 C 0.21633(16) 0.89825(18) 0.02318(17)
C30_44 C 0.20317(19) 0.88844(19) 0.01317(19)
C31_44 C 0.23642(17) 0.91084(17) 0.04169(18)
H18_44 H 0.2437 0.9136 0.0527
N11_44 N 0.23835(13) 0.92179(14) 0.02558(14)
N12_44 N 0.19332(13) 0.87346(15) 0.02191(12)
H19_44 H 0.1957 0.8705 0.0338
H20_44 H 0.1848 0.8671 0.0155
C2_44 C 0.27445(16) 0.91400(18) 0.98682(16)
C3_44 C 0.28367(16) 0.89825(18) 0.97682(17)
C4_44 C 0.29683(19) 0.88844(19) 0.98683(19)
C5_44 C 0.26358(17) 0.91084(17) 0.95831(18)
H2_44 H 0.2563 0.9136 0.9473
N4_44 N 0.26165(13) 0.92179(14) 0.97442(14)
N5_44 N 0.30668(13) 0.87346(15) 0.97809(12)
H3_44 H 0.3043 0.8705 0.9662
H4_44 H 0.3152 0.8671 0.9845
O1_66 O 0.2500 0.95618(13) 1.0000
N6_44 N 0.20012(12) 0.89342(14) 0.99370(14)
C27_44 C 0.20954(14) 0.90833(16) 0.98611(17)
H17_44 H 0.2066 0.9113 0.9733
N7_44 N 0.22283(12) 0.91962(12) 0.99486(13)
O15_44 O 0.18832(11) 0.88372(14) 0.94874(11)
N1_45 N 0.10658(14) 0.50630(14) 0.20012(12)
C1_45 C 0.09167(16) 0.51389(17) 0.20954(14)
H1_45 H 0.0887 0.5267 0.2066
N2_45 N 0.08038(12) 0.50514(13) 0.22283(12)
C2_45 C 0.08600(18) 0.48682(16) 0.22555(16)
C3_45 C 0.10175(18) 0.47682(17) 0.21633(16)
C4_45 C 0.11156(19) 0.48683(19) 0.20317(19)
C5_45 C 0.08916(17) 0.45831(18) 0.23642(17)
H2_45 H 0.0864 0.4473 0.2437
N4_45 N 0.07821(14) 0.47442(14) 0.23835(13)
N5_45 N 0.12654(15) 0.47809(12) 0.19332(13)
H3_45 H 0.1295 0.4662 0.1957
H4_45 H 0.1329 0.4845 0.1848
O1_67 O 0.04382(13) 0.5000 0.2500
N6_45 N 0.10658(14) 0.49370(14) 0.29988(12)
C27_45 C 0.09167(16) 0.48611(17) 0.29046(14)
H17_45 H 0.0887 0.4733 0.2934
N7_45 N 0.08038(12) 0.49486(13) 0.27717(12)
C28_45 C 0.08600(18) 0.51318(16) 0.27445(16)
C29_45 C 0.10175(18) 0.52318(17) 0.28367(16)
C30_45 C 0.11156(19) 0.51317(19) 0.29683(19)
C31_45 C 0.08916(17) 0.54169(18) 0.26358(17)
H18_45 H 0.0864 0.5527 0.2563
N11_45 N 0.07821(14) 0.52558(14) 0.26165(13)
N12_45 N 0.12654(15) 0.52191(12) 0.30668(13)
H19_45 H 0.1295 0.5338 0.3043
H20_45 H 0.1329 0.5155 0.3152
O15_45 O 0.11628(14) 0.44874(11) 0.31168(11)
C2_46 C 0.58600(18) 0.01318(16) 0.77445(16)
C3_46 C 0.60175(18) 0.02318(17) 0.78367(16)
C4_46 C 0.61156(19) 0.01317(19) 0.79683(19)
C5_46 C 0.58916(17) 0.04169(18) 0.76358(17)
H2_46 H 0.5864 0.0527 0.7563
N4_46 N 0.57821(14) 0.02558(14) 0.76165(13)
N5_46 N 0.62654(15) 0.02191(12) 0.80668(13)
H3_46 H 0.6295 0.0338 0.8043
H4_46 H 0.6329 0.0155 0.8152
O1_68 O 0.54382(13) 0.0000 0.7500
N6_46 N 0.60658(14) 0.00630(14) 0.70012(12)
C27_46 C 0.59167(16) 0.01389(17) 0.70954(14)
H17_46 H 0.5887 0.0267 0.7066
N7_46 N 0.58038(12) 0.00514(13) 0.72283(12)
O15_46 O 0.61628(14) 0.05126(11) 0.68832(11)
N1_46 N 0.60658(14) 0.99370(14) 0.79988(12)
C1_46 C 0.59167(16) 0.98611(17) 0.79046(14)
H1_46 H 0.5887 0.9733 0.7934
N2_46 N 0.58038(12) 0.99486(13) 0.77717(12)
O1_69 O 0.54382(13) 1.0000 0.7500
C28_46 C 0.58600(18) 0.98682(16) 0.72555(16)
C29_46 C 0.60175(18) 0.97682(17) 0.71633(16)
C30_46 C 0.61156(19) 0.98683(19) 0.70317(19)
C31_46 C 0.58916(17) 0.95831(18) 0.73642(17)
H18_46 H 0.5864 0.9473 0.7437
N11_46 N 0.57821(14) 0.97442(14) 0.73835(13)
N12_46 N 0.62654(15) 0.97809(12) 0.69332(13)
H19_46 H 0.6295 0.9662 0.6957
H20_46 H 0.6329 0.9845 0.6848
N1_47 N 0.89342(14) 0.00630(14) 0.29988(12)
C1_47 C 0.90833(16) 0.01389(17) 0.29046(14)
H1_47 H 0.9113 0.0267 0.2934
N2_47 N 0.91962(12) 0.00514(13) 0.27717(12)
O1_70 O 0.95618(13) 0.0000 0.2500
C28_47 C 0.91400(18) 0.01318(16) 0.22555(16)
C29_47 C 0.89825(18) 0.02318(17) 0.21633(16)
C30_47 C 0.88844(19) 0.01317(19) 0.20317(19)
C31_47 C 0.91084(17) 0.04169(18) 0.23642(17)
H18_47 H 0.9136 0.0527 0.2437
N11_47 N 0.92179(14) 0.02558(14) 0.23835(13)
N12_47 N 0.87346(15) 0.02191(12) 0.19332(13)
H19_47 H 0.8705 0.0338 0.1957
H20_47 H 0.8671 0.0155 0.1848
C2_47 C 0.91400(18) 0.98682(16) 0.27445(16)
C3_47 C 0.89825(18) 0.97682(17) 0.28367(16)
C4_47 C 0.88844(19) 0.98683(19) 0.29683(19)
C5_47 C 0.91084(17) 0.95831(18) 0.26358(17)
H2_47 H 0.9136 0.9473 0.2563
N4_47 N 0.92179(14) 0.97442(14) 0.26165(13)
N5_47 N 0.87346(15) 0.97809(12) 0.30668(13)
H3_47 H 0.8705 0.9662 0.3043
H4_47 H 0.8671 0.9845 0.3152
O1_71 O 0.95618(13) 1.0000 0.2500
N6_47 N 0.89342(14) 0.99370(14) 0.20012(12)
C27_47 C 0.90833(16) 0.98611(17) 0.20954(14)
H17_47 H 0.9113 0.9733 0.2066
N7_47 N 0.91962(12) 0.99486(13) 0.22283(12)
O15_47 O 0.88372(14) 0.94874(11) 0.18832(11)
N1_48 N 0.39342(14) 0.49370(14) 0.70012(12)
C1_48 C 0.40833(16) 0.48611(17) 0.70954(14)
H1_48 H 0.4113 0.4733 0.7066
N2_48 N 0.41962(12) 0.49486(13) 0.72283(12)
C2_48 C 0.41400(18) 0.51318(16) 0.72555(16)
C3_48 C 0.39825(18) 0.52318(17) 0.71633(16)
C4_48 C 0.38844(19) 0.51317(19) 0.70317(19)
C5_48 C 0.41084(17) 0.54169(18) 0.73642(17)
H2_48 H 0.4136 0.5527 0.7437
N4_48 N 0.42179(14) 0.52558(14) 0.73835(13)
N5_48 N 0.37346(15) 0.52191(12) 0.69332(13)
H3_48 H 0.3705 0.5338 0.6957
H4_48 H 0.3671 0.5155 0.6848
O1_72 O 0.45618(13) 0.5000 0.7500
N6_48 N 0.39342(14) 0.50630(14) 0.79988(12)
C27_48 C 0.40833(16) 0.51389(17) 0.79046(14)
H17_48 H 0.4113 0.5267 0.7934
N7_48 N 0.41962(12) 0.50514(13) 0.77717(12)
C28_48 C 0.41400(18) 0.48682(16) 0.77445(16)
C29_48 C 0.39825(18) 0.47682(17) 0.78367(16)
C30_48 C 0.38844(19) 0.48683(19) 0.79683(19)
C31_48 C 0.41084(17) 0.45831(18) 0.76358(17)
H18_48 H 0.4136 0.4473 0.7563
N11_48 N 0.42179(14) 0.47442(14) 0.76165(13)
N12_48 N 0.37346(15) 0.47809(12) 0.80668(13)
H19_48 H 0.3705 0.4662 0.8043
H20_48 H 0.3671 0.4845 0.8152
O15_48 O 0.38372(14) 0.55126(11) 0.81168(11)
C20_37 C 0.0748(2) 0.3048(2) 0.3543(2)
O7_37 O 0.08550(14) 0.29228(12) 0.34862(18)
C21_37 C 0.07886(16) 0.32589(17) 0.34894(15)
C22_37 C 0.09395(19) 0.33087(18) 0.33754(18)
H13_37 H 0.1018 0.3212 0.3324
C23_37 C 0.09792(19) 0.35018(18) 0.3334(2)
H14_37 H 0.1085 0.3534 0.3257
C24_37 C 0.08633(18) 0.36418(16) 0.34052(17)
C25_37 C 0.07110(17) 0.35932(18) 0.35179(17)
H15_37 H 0.0631 0.3690 0.3566
C26_37 C 0.06730(17) 0.34000(16) 0.35620(18)
H16_37 H 0.0569 0.3368 0.3641
C46_37 C 0.1043(2) 0.4452(2) 0.3248(2)
O16_37 O 0.09862(18) 0.45772(12) 0.33550(14)
C47_37 C 0.09894(15) 0.42411(17) 0.32886(16)
C48_37 C 0.08754(18) 0.41913(18) 0.34395(19)
H29_37 H 0.0824 0.4288 0.3518
C49_37 C 0.0834(2) 0.39982(18) 0.34792(19)
H30_37 H 0.0757 0.3966 0.3585
C50_37 C 0.09052(17) 0.38582(16) 0.33633(18)
C51_37 C 0.10179(17) 0.39068(18) 0.32110(17)
H31_37 H 0.1066 0.3810 0.3131
C52_37 C 0.10620(18) 0.41000(16) 0.31730(17)
H32_37 H 0.1141 0.4132 0.3069
C20_38 C 0.4252(2) 0.6952(2) 0.8543(2)
O7_38 O 0.41450(14) 0.70772(12) 0.84862(18)
C21_38 C 0.42114(16) 0.67411(17) 0.84894(15)
C22_38 C 0.40605(19) 0.66913(18) 0.83754(18)
H13_38 H 0.3982 0.6788 0.8324
C23_38 C 0.40208(19) 0.64982(18) 0.8334(2)
H14_38 H 0.3915 0.6466 0.8257
C24_38 C 0.41367(18) 0.63582(16) 0.84052(17)
C25_38 C 0.42890(17) 0.64068(18) 0.85179(17)
H15_38 H 0.4369 0.6310 0.8566
C26_38 C 0.43270(17) 0.66000(16) 0.85620(18)
H16_38 H 0.4431 0.6632 0.8641
C46_38 C 0.3957(2) 0.5548(2) 0.8248(2)
O16_38 O 0.40138(18) 0.54228(12) 0.83550(14)
C47_38 C 0.40106(15) 0.57589(17) 0.82886(16)
C48_38 C 0.41246(18) 0.58087(18) 0.84395(19)
H29_38 H 0.4176 0.5712 0.8518
C49_38 C 0.4166(2) 0.60018(18) 0.84792(19)
H30_38 H 0.4243 0.6034 0.8585
C50_38 C 0.40948(17) 0.61418(16) 0.83633(18)
C51_38 C 0.39821(17) 0.60932(18) 0.82110(17)
H31_38 H 0.3934 0.6190 0.8131
C52_38 C 0.39380(18) 0.59000(16) 0.81730(17)
H32_38 H 0.3859 0.5868 0.8069
C20_39 C 0.9252(2) 0.8048(2) 0.1457(2)
O7_39 O 0.91450(14) 0.79228(12) 0.15138(18)
C21_39 C 0.92114(16) 0.82589(17) 0.15106(15)
C22_39 C 0.90605(19) 0.83087(18) 0.16246(18)
H13_39 H 0.8982 0.8212 0.1676
C23_39 C 0.90208(19) 0.85018(18) 0.1666(2)
H14_39 H 0.8915 0.8534 0.1743
C24_39 C 0.91367(18) 0.86418(16) 0.15948(17)
C25_39 C 0.92890(17) 0.85932(18) 0.14821(17)
H15_39 H 0.9369 0.8690 0.1434
C26_39 C 0.93270(17) 0.84000(16) 0.14380(18)
H16_39 H 0.9431 0.8368 0.1359
C46_39 C 0.8957(2) 0.9452(2) 0.1752(2)
O16_39 O 0.90138(18) 0.95772(12) 0.16450(14)
C47_39 C 0.90106(15) 0.92411(17) 0.17114(16)
C48_39 C 0.91246(18) 0.91913(18) 0.15605(19)
H29_39 H 0.9176 0.9288 0.1482
C49_39 C 0.9166(2) 0.89982(18) 0.15208(19)
H30_39 H 0.9243 0.8966 0.1415
C50_39 C 0.90948(17) 0.88582(16) 0.16367(18)
C51_39 C 0.89821(17) 0.89068(18) 0.17890(17)
H31_39 H 0.8934 0.8810 0.1869
C52_39 C 0.89380(18) 0.91000(16) 0.18270(17)
H32_39 H 0.8859 0.9132 0.1931
C20_40 C 0.5748(2) 0.1952(2) 0.6457(2)
O7_40 O 0.58550(14) 0.20772(12) 0.65138(18)
C21_40 C 0.57886(16) 0.17411(17) 0.65106(15)
C22_40 C 0.59395(19) 0.16913(18) 0.66246(18)
H13_40 H 0.6018 0.1788 0.6676
C23_40 C 0.59792(19) 0.14982(18) 0.6666(2)
H14_40 H 0.6085 0.1466 0.6743
C24_40 C 0.58633(18) 0.13582(16) 0.65948(17)
C25_40 C 0.57110(17) 0.14068(18) 0.64821(17)
H15_40 H 0.5631 0.1310 0.6434
C26_40 C 0.56730(17) 0.16000(16) 0.64380(18)
H16_40 H 0.5569 0.1632 0.6359
C46_40 C 0.6043(2) 0.0548(2) 0.6752(2)
O16_40 O 0.59862(18) 0.04228(12) 0.66450(14)
C47_40 C 0.59894(15) 0.07589(17) 0.67114(16)
C48_40 C 0.58754(18) 0.08087(18) 0.65605(19)
H29_40 H 0.5824 0.0712 0.6482
C49_40 C 0.5834(2) 0.10018(18) 0.65208(19)
H30_40 H 0.5757 0.1034 0.6415
C50_40 C 0.59052(17) 0.11418(16) 0.66367(18)
C51_40 C 0.60179(17) 0.10932(18) 0.67890(17)
H31_40 H 0.6066 0.1190 0.6869
C52_40 C 0.60620(18) 0.09000(16) 0.68270(17)
H32_40 H 0.6141 0.0868 0.6931
C20_41 C 0.3543(2) 0.0748(2) 0.3048(2)
O7_41 O 0.34862(18) 0.08550(14) 0.29228(12)
C21_41 C 0.34894(15) 0.07886(16) 0.32589(17)
C22_41 C 0.33754(18) 0.09395(19) 0.33087(18)
H13_41 H 0.3324 0.1018 0.3212
C23_41 C 0.3334(2) 0.09792(19) 0.35018(18)
H14_41 H 0.3257 0.1085 0.3534
C24_41 C 0.34052(17) 0.08633(18) 0.36418(16)
C25_41 C 0.35179(17) 0.07110(17) 0.35932(18)
H15_41 H 0.3566 0.0631 0.3690
C26_41 C 0.35620(18) 0.06730(17) 0.34000(16)
H16_41 H 0.3641 0.0569 0.3368
C46_41 C 0.3248(2) 0.1043(2) 0.4452(2)
O16_41 O 0.33550(14) 0.09862(18) 0.45772(12)
C47_41 C 0.32886(16) 0.09894(15) 0.42411(17)
C48_41 C 0.34395(19) 0.08754(18) 0.41913(18)
H29_41 H 0.3518 0.0824 0.4288
C49_41 C 0.34792(19) 0.0834(2) 0.39982(18)
H30_41 H 0.3585 0.0757 0.3966
C50_41 C 0.33633(18) 0.09052(17) 0.38582(16)
C51_41 C 0.32110(17) 0.10179(17) 0.39068(18)
H31_41 H 0.3131 0.1066 0.3810
C52_41 C 0.31730(17) 0.10620(18) 0.41000(16)
H32_41 H 0.3069 0.1141 0.4132
C20_42 C 0.8543(2) 0.4252(2) 0.6952(2)
O7_42 O 0.84862(18) 0.41450(14) 0.70772(12)
C21_42 C 0.84894(15) 0.42114(16) 0.67411(17)
C22_42 C 0.83754(18) 0.40605(19) 0.66913(18)
H13_42 H 0.8324 0.3982 0.6788
C23_42 C 0.8334(2) 0.40208(19) 0.64982(18)
H14_42 H 0.8257 0.3915 0.6466
C24_42 C 0.84052(17) 0.41367(18) 0.63582(16)
C25_42 C 0.85179(17) 0.42890(17) 0.64068(18)
H15_42 H 0.8566 0.4369 0.6310
C26_42 C 0.85620(18) 0.43270(17) 0.66000(16)
H16_42 H 0.8641 0.4431 0.6632
C46_42 C 0.8248(2) 0.3957(2) 0.5548(2)
O16_42 O 0.83550(14) 0.40138(18) 0.54228(12)
C47_42 C 0.82886(16) 0.40106(15) 0.57589(17)
C48_42 C 0.84395(19) 0.41246(18) 0.58087(18)
H29_42 H 0.8518 0.4176 0.5712
C49_42 C 0.84792(19) 0.4166(2) 0.60018(18)
H30_42 H 0.8585 0.4243 0.6034
C50_42 C 0.83633(18) 0.40948(17) 0.61418(16)
C51_42 C 0.82110(17) 0.39821(17) 0.60932(18)
H31_42 H 0.8131 0.3934 0.6190
C52_42 C 0.81730(17) 0.39380(18) 0.59000(16)
H32_42 H 0.8069 0.3859 0.5868
C20_43 C 0.1457(2) 0.9252(2) 0.8048(2)
O7_43 O 0.15138(18) 0.91450(14) 0.79228(12)
C21_43 C 0.15106(15) 0.92114(16) 0.82589(17)
C22_43 C 0.16246(18) 0.90605(19) 0.83087(18)
H13_43 H 0.1676 0.8982 0.8212
C23_43 C 0.1666(2) 0.90208(19) 0.85018(18)
H14_43 H 0.1743 0.8915 0.8534
C24_43 C 0.15948(17) 0.91367(18) 0.86418(16)
C25_43 C 0.14821(17) 0.92890(17) 0.85932(18)
H15_43 H 0.1434 0.9369 0.8690
C26_43 C 0.14380(18) 0.93270(17) 0.84000(16)
H16_43 H 0.1359 0.9431 0.8368
C46_43 C 0.1752(2) 0.8957(2) 0.9452(2)
O16_43 O 0.16450(14) 0.90138(18) 0.95772(12)
C47_43 C 0.17114(16) 0.90106(15) 0.92411(17)
C48_43 C 0.15605(19) 0.91246(18) 0.91913(18)
H29_43 H 0.1482 0.9176 0.9288
C49_43 C 0.15208(19) 0.9166(2) 0.89982(18)
H30_43 H 0.1415 0.9243 0.8966
C50_43 C 0.16367(18) 0.90948(17) 0.88582(16)
C51_43 C 0.17890(17) 0.89821(17) 0.89068(18)
H31_43 H 0.1869 0.8934 0.8810
C52_43 C 0.18270(17) 0.89380(18) 0.91000(16)
H32_43 H 0.1931 0.8859 0.9132
C20_44 C 0.6457(2) 0.5748(2) 0.1952(2)
O7_44 O 0.65138(18) 0.58550(14) 0.20772(12)
C21_44 C 0.65106(15) 0.57886(16) 0.17411(17)
C22_44 C 0.66246(18) 0.59395(19) 0.16913(18)
H13_44 H 0.6676 0.6018 0.1788
C23_44 C 0.6666(2) 0.59792(19) 0.14982(18)
H14_44 H 0.6743 0.6085 0.1466
C24_44 C 0.65948(17) 0.58633(18) 0.13582(16)
C25_44 C 0.64821(17) 0.57110(17) 0.14068(18)
H15_44 H 0.6434 0.5631 0.1310
C26_44 C 0.64380(18) 0.56730(17) 0.16000(16)
H16_44 H 0.6359 0.5569 0.1632
C46_44 C 0.6752(2) 0.6043(2) 0.0548(2)
O16_44 O 0.66450(14) 0.59862(18) 0.04228(12)
C47_44 C 0.67114(16) 0.59894(15) 0.07589(17)
C48_44 C 0.65605(19) 0.58754(18) 0.08087(18)
H29_44 H 0.6482 0.5824 0.0712
C49_44 C 0.65208(19) 0.5834(2) 0.10018(18)
H30_44 H 0.6415 0.5757 0.1034
C50_44 C 0.66367(18) 0.59052(17) 0.11418(16)
C51_44 C 0.67890(17) 0.60179(17) 0.10932(18)
H31_44 H 0.6869 0.6066 0.1190
C52_44 C 0.68270(17) 0.60620(18) 0.09000(16)
H32_44 H 0.6931 0.6141 0.0868
C20_45 C 0.3048(2) 0.3543(2) 0.0748(2)
O7_45 O 0.29228(12) 0.34862(18) 0.08550(14)
C21_45 C 0.32589(17) 0.34894(15) 0.07886(16)
C22_45 C 0.33087(18) 0.33754(18) 0.09395(19)
H13_45 H 0.3212 0.3324 0.1018
C23_45 C 0.35018(18) 0.3334(2) 0.09792(19)
H14_45 H 0.3534 0.3257 0.1085
C24_45 C 0.36418(16) 0.34052(17) 0.08633(18)
C25_45 C 0.35932(18) 0.35179(17) 0.07110(17)
H15_45 H 0.3690 0.3566 0.0631
C26_45 C 0.34000(16) 0.35620(18) 0.06730(17)
H16_45 H 0.3368 0.3641 0.0569
C46_45 C 0.4452(2) 0.3248(2) 0.1043(2)
O16_45 O 0.45772(12) 0.33550(14) 0.09862(18)
C47_45 C 0.42411(17) 0.32886(16) 0.09894(15)
C48_45 C 0.41913(18) 0.34395(19) 0.08754(18)
H29_45 H 0.4288 0.3518 0.0824
C49_45 C 0.39982(18) 0.34792(19) 0.0834(2)
H30_45 H 0.3966 0.3585 0.0757
C50_45 C 0.38582(16) 0.33633(18) 0.09052(17)
C51_45 C 0.39068(18) 0.32110(17) 0.10179(17)
H31_45 H 0.3810 0.3131 0.1066
C52_45 C 0.41000(16) 0.31730(17) 0.10620(18)
H32_45 H 0.4132 0.3069 0.1141
C20_46 C 0.6952(2) 0.8543(2) 0.4252(2)
O7_46 O 0.70772(12) 0.84862(18) 0.41450(14)
C21_46 C 0.67411(17) 0.84894(15) 0.42114(16)
C22_46 C 0.66913(18) 0.83754(18) 0.40605(19)
H13_46 H 0.6788 0.8324 0.3982
C23_46 C 0.64982(18) 0.8334(2) 0.40208(19)
H14_46 H 0.6466 0.8257 0.3915
C24_46 C 0.63582(16) 0.84052(17) 0.41367(18)
C25_46 C 0.64068(18) 0.85179(17) 0.42890(17)
H15_46 H 0.6310 0.8566 0.4369
C26_46 C 0.66000(16) 0.85620(18) 0.43270(17)
H16_46 H 0.6632 0.8641 0.4431
C46_46 C 0.5548(2) 0.8248(2) 0.3957(2)
O16_46 O 0.54228(12) 0.83550(14) 0.40138(18)
C47_46 C 0.57589(17) 0.82886(16) 0.40106(15)
C48_46 C 0.58087(18) 0.84395(19) 0.41246(18)
H29_46 H 0.5712 0.8518 0.4176
C49_46 C 0.60018(18) 0.84792(19) 0.4166(2)
H30_46 H 0.6034 0.8585 0.4243
C50_46 C 0.61418(16) 0.83633(18) 0.40948(17)
C51_46 C 0.60932(18) 0.82110(17) 0.39821(17)
H31_46 H 0.6190 0.8131 0.3934
C52_46 C 0.59000(16) 0.81730(17) 0.39380(18)
H32_46 H 0.5868 0.8069 0.3859
C20_47 C 0.8048(2) 0.1457(2) 0.9252(2)
O7_47 O 0.79228(12) 0.15138(18) 0.91450(14)
C21_47 C 0.82589(17) 0.15106(15) 0.92114(16)
C22_47 C 0.83087(18) 0.16246(18) 0.90605(19)
H13_47 H 0.8212 0.1676 0.8982
C23_47 C 0.85018(18) 0.1666(2) 0.90208(19)
H14_47 H 0.8534 0.1743 0.8915
C24_47 C 0.86418(16) 0.15948(17) 0.91367(18)
C25_47 C 0.85932(18) 0.14821(17) 0.92890(17)
H15_47 H 0.8690 0.1434 0.9369
C26_47 C 0.84000(16) 0.14380(18) 0.93270(17)
H16_47 H 0.8368 0.1359 0.9431
C46_47 C 0.9452(2) 0.1752(2) 0.8957(2)
O16_47 O 0.95772(12) 0.16450(14) 0.90138(18)
C47_47 C 0.92411(17) 0.17114(16) 0.90106(15)
C48_47 C 0.91913(18) 0.15605(19) 0.91246(18)
H29_47 H 0.9288 0.1482 0.9176
C49_47 C 0.89982(18) 0.15208(19) 0.9166(2)
H30_47 H 0.8966 0.1415 0.9243
C50_47 C 0.88582(16) 0.16367(18) 0.90948(17)
C51_47 C 0.89068(18) 0.17890(17) 0.89821(17)
H31_47 H 0.8810 0.1869 0.8934
C52_47 C 0.91000(16) 0.18270(17) 0.89380(18)
H32_47 H 0.9132 0.1931 0.8859
C20_48 C 0.1952(2) 0.6457(2) 0.5748(2)
O7_48 O 0.20772(12) 0.65138(18) 0.58550(14)
C21_48 C 0.17411(17) 0.65106(15) 0.57886(16)
C22_48 C 0.16913(18) 0.66246(18) 0.59395(19)
H13_48 H 0.1788 0.6676 0.6018
C23_48 C 0.14982(18) 0.6666(2) 0.59792(19)
H14_48 H 0.1466 0.6743 0.6085
C24_48 C 0.13582(16) 0.65948(17) 0.58633(18)
C25_48 C 0.14068(18) 0.64821(17) 0.57110(17)
H15_48 H 0.1310 0.6434 0.5631
C26_48 C 0.16000(16) 0.64380(18) 0.56730(17)
H16_48 H 0.1632 0.6359 0.5569
C46_48 C 0.0548(2) 0.6752(2) 0.6043(2)
O16_48 O 0.04228(12) 0.66450(14) 0.59862(18)
C47_48 C 0.07589(17) 0.67114(16) 0.59894(15)
C48_48 C 0.08087(18) 0.65605(19) 0.58754(18)
H29_48 H 0.0712 0.6482 0.5824
C49_48 C 0.10018(18) 0.65208(19) 0.5834(2)
H30_48 H 0.1034 0.6415 0.5757
C50_48 C 0.11418(16) 0.66367(18) 0.59052(17)
C51_48 C 0.10932(18) 0.67890(17) 0.60179(17)
H31_48 H 0.1190 0.6869 0.6066
C52_48 C 0.09000(16) 0.68270(17) 0.60620(18)
H32_48 H 0.0868 0.6931 0.6141
loop_
_geom_bond_atom_site_label_1
_geom_bond_atom_site_label_2
_geom_bond_site_symmetry_1
_geom_bond_site_symmetry_2
Zn1 N2 1_555 1_555
Zn2 N1 1_555 1_555
N1 C1 1_555 1_555
C1 H1 1_555 1_555
N2 C1 1_555 1_555
C2 N2 1_555 1_555
C3 C2 1_555 1_555
C4 N1 1_555 1_555
N3 C3 1_555 1_555
C5 N3 1_555 1_555
H2 C5 1_555 1_555
N4 C2 1_555 1_555
N5 C4 1_555 1_555
H3 N5 1_555 1_555
H4 N5 1_555 1_555
O1 Zn1 1_555 1_555
C6 O2 1_555 1_555
O2 Zn1 1_555 1_555
O3 C6 1_555 1_555
C7 C6 1_555 1_555
C8 C7 1_555 1_555
H5 C8 1_555 1_555
C9 C8 1_555 1_555
H6 C9 1_555 1_555
C10 C9 1_555 1_555
C11 C10 1_555 1_555
H7 C11 1_555 1_555
C12 C7 1_555 1_555
H8 C12 1_555 1_555
C13 O4 1_555 1_555
O4 Zn7 1_555 1_555
O5 C13 1_555 1_555
C14 C13 1_555 1_555
C15 C14 1_555 1_555
H9 C15 1_555 1_555
C16 C15 1_555 1_555
H10 C16 1_555 1_555
C17 C10 1_555 1_555
C18 C17 1_555 1_555
H11 C18 1_555 1_555
C19 C14 1_555 1_555
H12 C19 1_555 1_555
C20 O6 1_555 1_555
O6 Zn2 1_555 1_555
O7 C20 1_555 1_555
C21 C20 1_555 1_555
C22 C21 1_555 1_555
H13 C22 1_555 1_555
C23 C22 1_555 1_555
H14 C23 1_555 1_555
C24 C23 1_555 1_555
C25 C24 1_555 1_555
H15 C25 1_555 1_555
C26 C21 1_555 1_555
H16 C26 1_555 1_555
Zn3 N4 1_555 1_555
Zn4 O8 1_555 1_555
Zn5 N6 1_555 1_555
Zn6 N3 1_555 1_555
Zn8 O14 1_555 1_555
Zn9 N8 1_555 1_555
N6 C27 1_555 1_555
C27 H17 1_555 1_555
N7 Zn3 1_555 1_555
C28 N7 1_555 1_555
C29 C28 1_555 1_555
C30 N6 1_555 1_555
N8 C29 1_555 1_555
N9 Zn2 1_555 1_555
N10 Zn5 1_555 1_555
C31 N8 1_555 1_555
H18 C31 1_555 1_555
N11 Zn1 1_555 1_555
N12 C30 1_555 1_555
H19 N12 1_555 1_555
H20 N12 1_555 1_555
C32 O8 1_555 1_555
O9 Zn3 1_555 1_555
O10 C32 1_555 1_555
C33 C32 1_555 1_555
C34 C33 1_555 1_555
H21 C34 1_555 1_555
C35 C34 1_555 1_555
H22 C35 1_555 1_555
C36 C35 1_555 1_555
C37 C36 1_555 1_555
H23 C37 1_555 1_555
C38 C33 1_555 1_555
H24 C38 1_555 1_555
C39 O11 1_555 1_555
O11 Zn2 1_555 1_555
O12 Zn5 1_555 1_555
O13 C39 1_555 1_555
C40 C39 1_555 1_555
C41 C40 1_555 1_555
H25 C41 1_555 1_555
C42 C41 1_555 1_555
H26 C42 1_555 1_555
C43 C36 1_555 1_555
C44 C43 1_555 1_555
H27 C44 1_555 1_555
C45 C40 1_555 1_555
H28 C45 1_555 1_555
C46 O14 1_555 1_555
O15 Zn5 1_555 1_555
O16 C46 1_555 1_555
C47 C46 1_555 1_555
C48 C47 1_555 1_555
H29 C48 1_555 1_555
C49 C48 1_555 1_555
H30 C49 1_555 1_555
C50 C24 1_555 1_555
C51 C50 1_555 1_555
H31 C51 1_555 1_555
C52 C47 1_555 1_555
H32 C52 1_555 1_555
C3 C4 1_555 1_555
C5 N4 1_555 1_555
O1 Zn3 1_555 1_555
C11 C12 1_555 1_555
C16 C17 1_555 1_555
C18 C19 1_555 1_555
C25 C26 1_555 1_555
C27 N7 1_555 1_555
C28 N11 1_555 1_555
C29 C30 1_555 1_555
C31 N11 1_555 1_555
C37 C38 1_555 1_555
C42 C43 1_555 1_555
C44 C45 1_555 1_555
C49 C50 1_555 1_555
C51 C52 1_555 1_555
Zn1_2 N2_2 1_555 1_555
Zn2_2 N1_2 1_555 1_555
N1_2 C1_2 1_555 1_555
C1_2 H1_2 1_555 1_555
N2_2 C1_2 1_555 1_555
C2_2 N2_2 1_555 1_555
C3_2 C2_2 1_555 1_555
C4_2 N1_2 1_555 1_555
N3_2 C3_2 1_555 1_555
C5_2 N3_2 1_555 1_555
H2_2 C5_2 1_555 1_555
N4_2 C2_2 1_555 1_555
N5_2 C4_2 1_555 1_555
H3_2 N5_2 1_555 1_555
H4_2 N5_2 1_555 1_555
O1_2 Zn1_2 1_555 1_555
C6_2 O2_2 1_555 1_555
O2_2 Zn1_2 1_555 1_555
O3_2 C6_2 1_555 1_555
C7_2 C6_2 1_555 1_555
C8_2 C7_2 1_555 1_555
H5_2 C8_2 1_555 1_555
C9_2 C8_2 1_555 1_555
H6_2 C9_2 1_555 1_555
C10_2 C9_2 1_555 1_555
C11_2 C10_2 1_555 1_555
H7_2 C11_2 1_555 1_555
C12_2 C7_2 1_555 1_555
H8_2 C12_2 1_555 1_555
C13_2 O4_2 1_555 1_555
O4_2 Zn7_2 1_555 1_555
O5_2 C13_2 1_555 1_555
C14_2 C13_2 1_555 1_555
C15_2 C14_2 1_555 1_555
H9_2 C15_2 1_555 1_555
C16_2 C15_2 1_555 1_555
H10_2 C16_2 1_555 1_555
C17_2 C10_2 1_555 1_555
C18_2 C17_2 1_555 1_555
H11_2 C18_2 1_555 1_555
C19_2 C14_2 1_555 1_555
H12_2 C19_2 1_555 1_555
C20_2 O6_2 1_555 1_555
O6_2 Zn2_2 1_555 1_555
O7_2 C20_2 1_555 1_555
C21_2 C20_2 1_555 1_555
C22_2 C21_2 1_555 1_555
H13_2 C22_2 1_555 1_555
C23_2 C22_2 1_555 1_555
H14_2 C23_2 1_555 1_555
C24_2 C23_2 1_555 1_555
C25_2 C24_2 1_555 1_555
H15_2 C25_2 1_555 1_555
C26_2 C21_2 1_555 1_555
H16_2 C26_2 1_555 1_555
Zn4_2 O8_2 1_555 1_555
Zn6_2 N3_2 1_555 1_555
Zn8_2 O14_2 1_555 1_555
N9_2 Zn2_2 1_555 1_555
C32_2 O8_2 1_555 1_555
O10_2 C32_2 1_555 1_555
C33_2 C32_2 1_555 1_555
C34_2 C33_2 1_555 1_555
H21_2 C34_2 1_555 1_555
C35_2 C34_2 1_555 1_555
H22_2 C35_2 1_555 1_555
C36_2 C35_2 1_555 1_555
C37_2 C36_2 1_555 1_555
H23_2 C37_2 1_555 1_555
C38_2 C33_2 1_555 1_555
H24_2 C38_2 1_555 1_555
C39_2 O11_2 1_555 1_555
O11_2 Zn2_2 1_555 1_555
O13_2 C39_2 1_555 1_555
C40_2 C39_2 1_555 1_555
C41_2 C40_2 1_555 1_555
H25_2 C41_2 1_555 1_555
C42_2 C41_2 1_555 1_555
H26_2 C42_2 1_555 1_555
C43_2 C36_2 1_555 1_555
C44_2 C43_2 1_555 1_555
H27_2 C44_2 1_555 1_555
C45_2 C40_2 1_555 1_555
H28_2 C45_2 1_555 1_555
C46_2 O14_2 1_555 1_555
O16_2 C46_2 1_555 1_555
C47_2 C46_2 1_555 1_555
C48_2 C47_2 1_555 1_555
H29_2 C48_2 1_555 1_555
C49_2 C48_2 1_555 1_555
H30_2 C49_2 1_555 1_555
C50_2 C24_2 1_555 1_555
C51_2 C50_2 1_555 1_555
H31_2 C51_2 1_555 1_555
C52_2 C47_2 1_555 1_555
H32_2 C52_2 1_555 1_555
C3_2 C4_2 1_555 1_555
C5_2 N4_2 1_555 1_555
C11_2 C12_2 1_555 1_555
C16_2 C17_2 1_555 1_555
C18_2 C19_2 1_555 1_555
C25_2 C26_2 1_555 1_555
C37_2 C38_2 1_555 1_555
C42_2 C43_2 1_555 1_555
C44_2 C45_2 1_555 1_555
C49_2 C50_2 1_555 1_555
C51_2 C52_2 1_555 1_555
Zn5_2 N6_2 1_555 1_555
Zn9_2 N8_2 1_555 1_555
N6_2 C27_2 1_555 1_555
C27_2 H17_2 1_555 1_555
N7_2 Zn3_2 1_555 1_555
C28_2 N7_2 1_555 1_555
C29_2 C28_2 1_555 1_555
C30_2 N6_2 1_555 1_555
N8_2 C29_2 1_555 1_555
N10_2 Zn5_2 1_555 1_555
C31_2 N8_2 1_555 1_555
H18_2 C31_2 1_555 1_555
N12_2 C30_2 1_555 1_555
H19_2 N12_2 1_555 1_555
H20_2 N12_2 1_555 1_555
O9_2 Zn3_2 1_555 1_555
O12_2 Zn5_2 1_555 1_555
O15_2 Zn5_2 1_555 1_555
O1_3 Zn3_2 1_555 1_555
C27_2 N7_2 1_555 1_555
C28_2 N11_2 1_555 1_555
C29_2 C30_2 1_555 1_555
C31_2 N11_2 1_555 1_555
Zn1_3 N2_3 1_555 1_555
Zn2_3 N1_3 1_555 1_555
N1_3 C1_3 1_555 1_555
C1_3 H1_3 1_555 1_555
N2_3 C1_3 1_555 1_555
C2_3 N2_3 1_555 1_555
C3_3 C2_3 1_555 1_555
C4_3 N1_3 1_555 1_555
N3_3 C3_3 1_555 1_555
C5_3 N3_3 1_555 1_555
H2_3 C5_3 1_555 1_555
N4_3 C2_3 1_555 1_555
N5_3 C4_3 1_555 1_555
H3_3 N5_3 1_555 1_555
H4_3 N5_3 1_555 1_555
O1_4 Zn1_3 1_555 1_555
C6_3 O2_3 1_555 1_555
O2_3 Zn1_3 1_555 1_555
O3_3 C6_3 1_555 1_555
C7_3 C6_3 1_555 1_555
C8_3 C7_3 1_555 1_555
H5_3 C8_3 1_555 1_555
C9_3 C8_3 1_555 1_555
H6_3 C9_3 1_555 1_555
C10_3 C9_3 1_555 1_555
C11_3 C10_3 1_555 1_555
H7_3 C11_3 1_555 1_555
C12_3 C7_3 1_555 1_555
H8_3 C12_3 1_555 1_555
C13_3 O4_3 1_555 1_555
O4_3 Zn7_3 1_555 1_555
O5_3 C13_3 1_555 1_555
C14_3 C13_3 1_555 1_555
C15_3 C14_3 1_555 1_555
H9_3 C15_3 1_555 1_555
C16_3 C15_3 1_555 1_555
H10_3 C16_3 1_555 1_555
C17_3 C10_3 1_555 1_555
C18_3 C17_3 1_555 1_555
H11_3 C18_3 1_555 1_555
C19_3 C14_3 1_555 1_555
H12_3 C19_3 1_555 1_555
C20_3 O6_3 1_555 1_555
O6_3 Zn2_3 1_555 1_555
O7_3 C20_3 1_555 1_555
C21_3 C20_3 1_555 1_555
C22_3 C21_3 1_555 1_555
H13_3 C22_3 1_555 1_555
C23_3 C22_3 1_555 1_555
H14_3 C23_3 1_555 1_555
C24_3 C23_3 1_555 1_555
C25_3 C24_3 1_555 1_555
H15_3 C25_3 1_555 1_555
C26_3 C21_3 1_555 1_555
H16_3 C26_3 1_555 1_555
Zn3_3 N4_3 1_555 1_555
Zn4_3 O8_3 1_555 1_555
Zn5_3 N6_3 1_555 1_555
Zn6_3 N3_3 1_555 1_555
Zn8_3 O14_3 1_555 1_555
Zn9_3 N8_3 1_555 1_555
N6_3 C27_3 1_555 1_555
C27_3 H17_3 1_555 1_555
N7_3 Zn3_3 1_555 1_555
C28_3 N7_3 1_555 1_555
C29_3 C28_3 1_555 1_555
C30_3 N6_3 1_555 1_555
N8_3 C29_3 1_555 1_555
N9_3 Zn2_3 1_555 1_555
N10_3 Zn5_3 1_555 1_555
C31_3 N8_3 1_555 1_555
H18_3 C31_3 1_555 1_555
N11_3 Zn1_3 1_555 1_555
N12_3 C30_3 1_555 1_555
H19_3 N12_3 1_555 1_555
H20_3 N12_3 1_555 1_555
C32_3 O8_3 1_555 1_555
O9_3 Zn3_3 1_555 1_555
O10_3 C32_3 1_555 1_555
C33_3 C32_3 1_555 1_555
C34_3 C33_3 1_555 1_555
H21_3 C34_3 1_555 1_555
C35_3 C34_3 1_555 1_555
H22_3 C35_3 1_555 1_555
C36_3 C35_3 1_555 1_555
C37_3 C36_3 1_555 1_555
H23_3 C37_3 1_555 1_555
C38_3 C33_3 1_555 1_555
H24_3 C38_3 1_555 1_555
C39_3 O11_3 1_555 1_555
O11_3 Zn2_3 1_555 1_555
O12_3 Zn5_3 1_555 1_555
O13_3 C39_3 1_555 1_555
C40_3 C39_3 1_555 1_555
C41_3 C40_3 1_555 1_555
H25_3 C41_3 1_555 1_555
C42_3 C41_3 1_555 1_555
H26_3 C42_3 1_555 1_555
C43_3 C36_3 1_555 1_555
C44_3 C43_3 1_555 1_555
H27_3 C44_3 1_555 1_555
C45_3 C40_3 1_555 1_555
H28_3 C45_3 1_555 1_555
C46_3 O14_3 1_555 1_555
O15_3 Zn5_3 1_555 1_555
O16_3 C46_3 1_555 1_555
C47_3 C46_3 1_555 1_555
C48_3 C47_3 1_555 1_555
H29_3 C48_3 1_555 1_555
C49_3 C48_3 1_555 1_555
H30_3 C49_3 1_555 1_555
C50_3 C24_3 1_555 1_555
C51_3 C50_3 1_555 1_555
H31_3 C51_3 1_555 1_555
C52_3 C47_3 1_555 1_555
H32_3 C52_3 1_555 1_555
C3_3 C4_3 1_555 1_555
C5_3 N4_3 1_555 1_555
O1_4 Zn3_3 1_555 1_555
C11_3 C12_3 1_555 1_555
C16_3 C17_3 1_555 1_555
C18_3 C19_3 1_555 1_555
C25_3 C26_3 1_555 1_555
C27_3 N7_3 1_555 1_555
C28_3 N11_3 1_555 1_555
C29_3 C30_3 1_555 1_555
C31_3 N11_3 1_555 1_555
C37_3 C38_3 1_555 1_555
C42_3 C43_3 1_555 1_555
C44_3 C45_3 1_555 1_555
C49_3 C50_3 1_555 1_555
C51_3 C52_3 1_555 1_555
Zn5_4 N6_4 1_555 1_555
Zn9_4 N8_4 1_555 1_555
N6_4 C27_4 1_555 1_555
C27_4 H17_4 1_555 1_555
N7_4 Zn3_4 1_555 1_555
C28_4 N7_4 1_555 1_555
C29_4 C28_4 1_555 1_555
C30_4 N6_4 1_555 1_555
N8_4 C29_4 1_555 1_555
N10_4 Zn5_4 1_555 1_555
C31_4 N8_4 1_555 1_555
H18_4 C31_4 1_555 1_555
N12_4 C30_4 1_555 1_555
H19_4 N12_4 1_555 1_555
H20_4 N12_4 1_555 1_555
O9_4 Zn3_4 1_555 1_555
O12_4 Zn5_4 1_555 1_555
O15_4 Zn5_4 1_555 1_555
O1_5 Zn3_4 1_555 1_555
C27_4 N7_4 1_555 1_555
C28_4 N11_4 1_555 1_555
C29_4 C30_4 1_555 1_555
C31_4 N11_4 1_555 1_555
Zn1_4 N2_4 1_555 1_555
Zn2_4 N1_4 1_555 1_555
N1_4 C1_4 1_555 1_555
C1_4 H1_4 1_555 1_555
N2_4 C1_4 1_555 1_555
C2_4 N2_4 1_555 1_555
C3_4 C2_4 1_555 1_555
C4_4 N1_4 1_555 1_555
N3_4 C3_4 1_555 1_555
C5_4 N3_4 1_555 1_555
H2_4 C5_4 1_555 1_555
N4_4 C2_4 1_555 1_555
N5_4 C4_4 1_555 1_555
H3_4 N5_4 1_555 1_555
H4_4 N5_4 1_555 1_555
O1_6 Zn1_4 1_555 1_555
C6_4 O2_4 1_555 1_555
O2_4 Zn1_4 1_555 1_555
O3_4 C6_4 1_555 1_555
C7_4 C6_4 1_555 1_555
C8_4 C7_4 1_555 1_555
H5_4 C8_4 1_555 1_555
C9_4 C8_4 1_555 1_555
H6_4 C9_4 1_555 1_555
C10_4 C9_4 1_555 1_555
C11_4 C10_4 1_555 1_555
H7_4 C11_4 1_555 1_555
C12_4 C7_4 1_555 1_555
H8_4 C12_4 1_555 1_555
C13_4 O4_4 1_555 1_555
O4_4 Zn7_4 1_555 1_555
O5_4 C13_4 1_555 1_555
C14_4 C13_4 1_555 1_555
C15_4 C14_4 1_555 1_555
H9_4 C15_4 1_555 1_555
C16_4 C15_4 1_555 1_555
H10_4 C16_4 1_555 1_555
C17_4 C10_4 1_555 1_555
C18_4 C17_4 1_555 1_555
H11_4 C18_4 1_555 1_555
C19_4 C14_4 1_555 1_555
H12_4 C19_4 1_555 1_555
C20_4 O6_4 1_555 1_555
O6_4 Zn2_4 1_555 1_555
O7_4 C20_4 1_555 1_555
C21_4 C20_4 1_555 1_555
C22_4 C21_4 1_555 1_555
H13_4 C22_4 1_555 1_555
C23_4 C22_4 1_555 1_555
H14_4 C23_4 1_555 1_555
C24_4 C23_4 1_555 1_555
C25_4 C24_4 1_555 1_555
H15_4 C25_4 1_555 1_555
C26_4 C21_4 1_555 1_555
H16_4 C26_4 1_555 1_555
Zn4_4 O8_4 1_555 1_555
Zn6_4 N3_4 1_555 1_555
Zn8_4 O14_4 1_555 1_555
N9_4 Zn2_4 1_555 1_555
C32_4 O8_4 1_555 1_555
O10_4 C32_4 1_555 1_555
C33_4 C32_4 1_555 1_555
C34_4 C33_4 1_555 1_555
H21_4 C34_4 1_555 1_555
C35_4 C34_4 1_555 1_555
H22_4 C35_4 1_555 1_555
C36_4 C35_4 1_555 1_555
C37_4 C36_4 1_555 1_555
H23_4 C37_4 1_555 1_555
C38_4 C33_4 1_555 1_555
H24_4 C38_4 1_555 1_555
C39_4 O11_4 1_555 1_555
O11_4 Zn2_4 1_555 1_555
O13_4 C39_4 1_555 1_555
C40_4 C39_4 1_555 1_555
C41_4 C40_4 1_555 1_555
H25_4 C41_4 1_555 1_555
C42_4 C41_4 1_555 1_555
H26_4 C42_4 1_555 1_555
C43_4 C36_4 1_555 1_555
C44_4 C43_4 1_555 1_555
H27_4 C44_4 1_555 1_555
C45_4 C40_4 1_555 1_555
H28_4 C45_4 1_555 1_555
C46_4 O14_4 1_555 1_555
O16_4 C46_4 1_555 1_555
C47_4 C46_4 1_555 1_555
C48_4 C47_4 1_555 1_555
H29_4 C48_4 1_555 1_555
C49_4 C48_4 1_555 1_555
H30_4 C49_4 1_555 1_555
C50_4 C24_4 1_555 1_555
C51_4 C50_4 1_555 1_555
H31_4 C51_4 1_555 1_555
C52_4 C47_4 1_555 1_555
H32_4 C52_4 1_555 1_555
C3_4 C4_4 1_555 1_555
C5_4 N4_4 1_555 1_555
C11_4 C12_4 1_555 1_555
C16_4 C17_4 1_555 1_555
C18_4 C19_4 1_555 1_555
C25_4 C26_4 1_555 1_555
C37_4 C38_4 1_555 1_555
C42_4 C43_4 1_555 1_555
C44_4 C45_4 1_555 1_555
C49_4 C50_4 1_555 1_555
C51_4 C52_4 1_555 1_555
Zn1_5 N2_5 1_555 1_555
Zn2_5 N1_5 1_555 1_555
N1_5 C1_5 1_555 1_555
C1_5 H1_5 1_555 1_555
N2_5 C1_5 1_555 1_555
C2_5 N2_5 1_555 1_555
C3_5 C2_5 1_555 1_555
C4_5 N1_5 1_555 1_555
N3_5 C3_5 1_555 1_555
C5_5 N3_5 1_555 1_555
H2_5 C5_5 1_555 1_555
N4_5 C2_5 1_555 1_555
N5_5 C4_5 1_555 1_555
H3_5 N5_5 1_555 1_555
H4_5 N5_5 1_555 1_555
O1_7 Zn1_5 1_555 1_555
C6_5 O2_5 1_555 1_555
O2_5 Zn1_5 1_555 1_555
O3_5 C6_5 1_555 1_555
C7_5 C6_5 1_555 1_555
C8_5 C7_5 1_555 1_555
H5_5 C8_5 1_555 1_555
C9_5 C8_5 1_555 1_555
H6_5 C9_5 1_555 1_555
C10_5 C9_5 1_555 1_555
C11_5 C10_5 1_555 1_555
H7_5 C11_5 1_555 1_555
C12_5 C7_5 1_555 1_555
H8_5 C12_5 1_555 1_555
C13_5 O4_5 1_555 1_555
O4_5 Zn7_5 1_555 1_555
O5_5 C13_5 1_555 1_555
C14_5 C13_5 1_555 1_555
C15_5 C14_5 1_555 1_555
H9_5 C15_5 1_555 1_555
C16_5 C15_5 1_555 1_555
H10_5 C16_5 1_555 1_555
C17_5 C10_5 1_555 1_555
C18_5 C17_5 1_555 1_555
H11_5 C18_5 1_555 1_555
C19_5 C14_5 1_555 1_555
H12_5 C19_5 1_555 1_555
C20_5 O6_5 1_555 1_555
O6_5 Zn2_5 1_555 1_555
O7_5 C20_5 1_555 1_555
C21_5 C20_5 1_555 1_555
C22_5 C21_5 1_555 1_555
H13_5 C22_5 1_555 1_555
C23_5 C22_5 1_555 1_555
H14_5 C23_5 1_555 1_555
C24_5 C23_5 1_555 1_555
C25_5 C24_5 1_555 1_555
H15_5 C25_5 1_555 1_555
C26_5 C21_5 1_555 1_555
H16_5 C26_5 1_555 1_555
Zn3_5 N4_5 1_555 1_555
Zn4_5 O8_5 1_555 1_555
Zn5_5 N6_5 1_555 1_555
Zn6_5 N3_5 1_555 1_555
Zn8_5 O14_5 1_555 1_555
Zn9_5 N8_5 1_555 1_555
N6_5 C27_5 1_555 1_555
C27_5 H17_5 1_555 1_555
N7_5 Zn3_5 1_555 1_555
C28_5 N7_5 1_555 1_555
C29_5 C28_5 1_555 1_555
C30_5 N6_5 1_555 1_555
N8_5 C29_5 1_555 1_555
N9_5 Zn2_5 1_555 1_555
N10_5 Zn5_5 1_555 1_555
C31_5 N8_5 1_555 1_555
H18_5 C31_5 1_555 1_555
N11_5 Zn1_5 1_555 1_555
N12_5 C30_5 1_555 1_555
H19_5 N12_5 1_555 1_555
H20_5 N12_5 1_555 1_555
C32_5 O8_5 1_555 1_555
O9_5 Zn3_5 1_555 1_555
O10_5 C32_5 1_555 1_555
C33_5 C32_5 1_555 1_555
C34_5 C33_5 1_555 1_555
H21_5 C34_5 1_555 1_555
C35_5 C34_5 1_555 1_555
H22_5 C35_5 1_555 1_555
C36_5 C35_5 1_555 1_555
C37_5 C36_5 1_555 1_555
H23_5 C37_5 1_555 1_555
C38_5 C33_5 1_555 1_555
H24_5 C38_5 1_555 1_555
C39_5 O11_5 1_555 1_555
O11_5 Zn2_5 1_555 1_555
O12_5 Zn5_5 1_555 1_555
O13_5 C39_5 1_555 1_555
C40_5 C39_5 1_555 1_555
C41_5 C40_5 1_555 1_555
H25_5 C41_5 1_555 1_555
C42_5 C41_5 1_555 1_555
H26_5 C42_5 1_555 1_555
C43_5 C36_5 1_555 1_555
C44_5 C43_5 1_555 1_555
H27_5 C44_5 1_555 1_555
C45_5 C40_5 1_555 1_555
H28_5 C45_5 1_555 1_555
C46_5 O14_5 1_555 1_555
O15_5 Zn5_5 1_555 1_555
O16_5 C46_5 1_555 1_555
C47_5 C46_5 1_555 1_555
C48_5 C47_5 1_555 1_555
H29_5 C48_5 1_555 1_555
C49_5 C48_5 1_555 1_555
H30_5 C49_5 1_555 1_555
C50_5 C24_5 1_555 1_555
C51_5 C50_5 1_555 1_555
H31_5 C51_5 1_555 1_555
C52_5 C47_5 1_555 1_555
H32_5 C52_5 1_555 1_555
C3_5 C4_5 1_555 1_555
C5_5 N4_5 1_555 1_555
O1_7 Zn3_5 1_555 1_555
C11_5 C12_5 1_555 1_555
C16_5 C17_5 1_555 1_555
C18_5 C19_5 1_555 1_555
C25_5 C26_5 1_555 1_555
C27_5 N7_5 1_555 1_555
C28_5 N11_5 1_555 1_555
C29_5 C30_5 1_555 1_555
C31_5 N11_5 1_555 1_555
C37_5 C38_5 1_555 1_555
C42_5 C43_5 1_555 1_555
C44_5 C45_5 1_555 1_555
C49_5 C50_5 1_555 1_555
C51_5 C52_5 1_555 1_555
Zn1_6 N2_6 1_555 1_555
Zn2_6 N1_6 1_555 1_555
N1_6 C1_6 1_555 1_555
C1_6 H1_6 1_555 1_555
N2_6 C1_6 1_555 1_555
C2_6 N2_6 1_555 1_555
C3_6 C2_6 1_555 1_555
C4_6 N1_6 1_555 1_555
N3_6 C3_6 1_555 1_555
C5_6 N3_6 1_555 1_555
H2_6 C5_6 1_555 1_555
N4_6 C2_6 1_555 1_555
N5_6 C4_6 1_555 1_555
H3_6 N5_6 1_555 1_555
H4_6 N5_6 1_555 1_555
O1_8 Zn1_6 1_555 1_555
C6_6 O2_6 1_555 1_555
O2_6 Zn1_6 1_555 1_555
O3_6 C6_6 1_555 1_555
C7_6 C6_6 1_555 1_555
C8_6 C7_6 1_555 1_555
H5_6 C8_6 1_555 1_555
C9_6 C8_6 1_555 1_555
H6_6 C9_6 1_555 1_555
C10_6 C9_6 1_555 1_555
C11_6 C10_6 1_555 1_555
H7_6 C11_6 1_555 1_555
C12_6 C7_6 1_555 1_555
H8_6 C12_6 1_555 1_555
C13_6 O4_6 1_555 1_555
O4_6 Zn7_6 1_555 1_555
O5_6 C13_6 1_555 1_555
C14_6 C13_6 1_555 1_555
C15_6 C14_6 1_555 1_555
H9_6 C15_6 1_555 1_555
C16_6 C15_6 1_555 1_555
H10_6 C16_6 1_555 1_555
C17_6 C10_6 1_555 1_555
C18_6 C17_6 1_555 1_555
H11_6 C18_6 1_555 1_555
C19_6 C14_6 1_555 1_555
H12_6 C19_6 1_555 1_555
C20_6 O6_6 1_555 1_555
O6_6 Zn2_6 1_555 1_555
O7_6 C20_6 1_555 1_555
C21_6 C20_6 1_555 1_555
C22_6 C21_6 1_555 1_555
H13_6 C22_6 1_555 1_555
C23_6 C22_6 1_555 1_555
H14_6 C23_6 1_555 1_555
C24_6 C23_6 1_555 1_555
C25_6 C24_6 1_555 1_555
H15_6 C25_6 1_555 1_555
C26_6 C21_6 1_555 1_555
H16_6 C26_6 1_555 1_555
Zn4_6 O8_6 1_555 1_555
Zn6_6 N3_6 1_555 1_555
Zn8_6 O14_6 1_555 1_555
N9_6 Zn2_6 1_555 1_555
C32_6 O8_6 1_555 1_555
O10_6 C32_6 1_555 1_555
C33_6 C32_6 1_555 1_555
C34_6 C33_6 1_555 1_555
H21_6 C34_6 1_555 1_555
C35_6 C34_6 1_555 1_555
H22_6 C35_6 1_555 1_555
C36_6 C35_6 1_555 1_555
C37_6 C36_6 1_555 1_555
H23_6 C37_6 1_555 1_555
C38_6 C33_6 1_555 1_555
H24_6 C38_6 1_555 1_555
C39_6 O11_6 1_555 1_555
O11_6 Zn2_6 1_555 1_555
O13_6 C39_6 1_555 1_555
C40_6 C39_6 1_555 1_555
C41_6 C40_6 1_555 1_555
H25_6 C41_6 1_555 1_555
C42_6 C41_6 1_555 1_555
H26_6 C42_6 1_555 1_555
C43_6 C36_6 1_555 1_555
C44_6 C43_6 1_555 1_555
H27_6 C44_6 1_555 1_555
C45_6 C40_6 1_555 1_555
H28_6 C45_6 1_555 1_555
C46_6 O14_6 1_555 1_555
O16_6 C46_6 1_555 1_555
C47_6 C46_6 1_555 1_555
C48_6 C47_6 1_555 1_555
H29_6 C48_6 1_555 1_555
C49_6 C48_6 1_555 1_555
H30_6 C49_6 1_555 1_555
C50_6 C24_6 1_555 1_555
C51_6 C50_6 1_555 1_555
H31_6 C51_6 1_555 1_555
C52_6 C47_6 1_555 1_555
H32_6 C52_6 1_555 1_555
C3_6 C4_6 1_555 1_555
C5_6 N4_6 1_555 1_555
C11_6 C12_6 1_555 1_555
C16_6 C17_6 1_555 1_555
C18_6 C19_6 1_555 1_555
C25_6 C26_6 1_555 1_555
C37_6 C38_6 1_555 1_555
C42_6 C43_6 1_555 1_555
C44_6 C45_6 1_555 1_555
C49_6 C50_6 1_555 1_555
C51_6 C52_6 1_555 1_555
Zn5_6 N6_6 1_555 1_555
Zn9_6 N8_6 1_555 1_555
N6_6 C27_6 1_555 1_555
C27_6 H17_6 1_555 1_555
N7_6 Zn3_6 1_555 1_555
C28_6 N7_6 1_555 1_555
C29_6 C28_6 1_555 1_555
C30_6 N6_6 1_555 1_555
N8_6 C29_6 1_555 1_555
N10_6 Zn5_6 1_555 1_555
C31_6 N8_6 1_555 1_555
H18_6 C31_6 1_555 1_555
N12_6 C30_6 1_555 1_555
H19_6 N12_6 1_555 1_555
H20_6 N12_6 1_555 1_555
O9_6 Zn3_6 1_555 1_555
O12_6 Zn5_6 1_555 1_555
O15_6 Zn5_6 1_555 1_555
O1_9 Zn3_6 1_555 1_555
C27_6 N7_6 1_555 1_555
C28_6 N11_6 1_555 1_555
C29_6 C30_6 1_555 1_555
C31_6 N11_6 1_555 1_555
Zn1_7 N2_7 1_555 1_555
Zn2_7 N1_7 1_555 1_555
N1_7 C1_7 1_555 1_555
C1_7 H1_7 1_555 1_555
N2_7 C1_7 1_555 1_555
C2_7 N2_7 1_555 1_555
C3_7 C2_7 1_555 1_555
C4_7 N1_7 1_555 1_555
N3_7 C3_7 1_555 1_555
C5_7 N3_7 1_555 1_555
H2_7 C5_7 1_555 1_555
N4_7 C2_7 1_555 1_555
N5_7 C4_7 1_555 1_555
H3_7 N5_7 1_555 1_555
H4_7 N5_7 1_555 1_555
O1_10 Zn1_7 1_555 1_555
C6_7 O2_7 1_555 1_555
O2_7 Zn1_7 1_555 1_555
O3_7 C6_7 1_555 1_555
C7_7 C6_7 1_555 1_555
C8_7 C7_7 1_555 1_555
H5_7 C8_7 1_555 1_555
C9_7 C8_7 1_555 1_555
H6_7 C9_7 1_555 1_555
C10_7 C9_7 1_555 1_555
C11_7 C10_7 1_555 1_555
H7_7 C11_7 1_555 1_555
C12_7 C7_7 1_555 1_555
H8_7 C12_7 1_555 1_555
C13_7 O4_7 1_555 1_555
O4_7 Zn7_7 1_555 1_555
O5_7 C13_7 1_555 1_555
C14_7 C13_7 1_555 1_555
C15_7 C14_7 1_555 1_555
H9_7 C15_7 1_555 1_555
C16_7 C15_7 1_555 1_555
H10_7 C16_7 1_555 1_555
C17_7 C10_7 1_555 1_555
C18_7 C17_7 1_555 1_555
H11_7 C18_7 1_555 1_555
C19_7 C14_7 1_555 1_555
H12_7 C19_7 1_555 1_555
C20_7 O6_7 1_555 1_555
O6_7 Zn2_7 1_555 1_555
O7_7 C20_7 1_555 1_555
C21_7 C20_7 1_555 1_555
C22_7 C21_7 1_555 1_555
H13_7 C22_7 1_555 1_555
C23_7 C22_7 1_555 1_555
H14_7 C23_7 1_555 1_555
C24_7 C23_7 1_555 1_555
C25_7 C24_7 1_555 1_555
H15_7 C25_7 1_555 1_555
C26_7 C21_7 1_555 1_555
H16_7 C26_7 1_555 1_555
Zn3_7 N4_7 1_555 1_555
Zn4_7 O8_7 1_555 1_555
Zn5_7 N6_7 1_555 1_555
Zn6_7 N3_7 1_555 1_555
Zn8_7 O14_7 1_555 1_555
Zn9_7 N8_7 1_555 1_555
N6_7 C27_7 1_555 1_555
C27_7 H17_7 1_555 1_555
N7_7 Zn3_7 1_555 1_555
C28_7 N7_7 1_555 1_555
C29_7 C28_7 1_555 1_555
C30_7 N6_7 1_555 1_555
N8_7 C29_7 1_555 1_555
N9_7 Zn2_7 1_555 1_555
N10_7 Zn5_7 1_555 1_555
C31_7 N8_7 1_555 1_555
H18_7 C31_7 1_555 1_555
N11_7 Zn1_7 1_555 1_555
N12_7 C30_7 1_555 1_555
H19_7 N12_7 1_555 1_555
H20_7 N12_7 1_555 1_555
C32_7 O8_7 1_555 1_555
O9_7 Zn3_7 1_555 1_555
O10_7 C32_7 1_555 1_555
C33_7 C32_7 1_555 1_555
C34_7 C33_7 1_555 1_555
H21_7 C34_7 1_555 1_555
C35_7 C34_7 1_555 1_555
H22_7 C35_7 1_555 1_555
C36_7 C35_7 1_555 1_555
C37_7 C36_7 1_555 1_555
H23_7 C37_7 1_555 1_555
C38_7 C33_7 1_555 1_555
H24_7 C38_7 1_555 1_555
C39_7 O11_7 1_555 1_555
O11_7 Zn2_7 1_555 1_555
O12_7 Zn5_7 1_555 1_555
O13_7 C39_7 1_555 1_555
C40_7 C39_7 1_555 1_555
C41_7 C40_7 1_555 1_555
H25_7 C41_7 1_555 1_555
C42_7 C41_7 1_555 1_555
H26_7 C42_7 1_555 1_555
C43_7 C36_7 1_555 1_555
C44_7 C43_7 1_555 1_555
H27_7 C44_7 1_555 1_555
C45_7 C40_7 1_555 1_555
H28_7 C45_7 1_555 1_555
C46_7 O14_7 1_555 1_555
O15_7 Zn5_7 1_555 1_555
O16_7 C46_7 1_555 1_555
C47_7 C46_7 1_555 1_555
C48_7 C47_7 1_555 1_555
H29_7 C48_7 1_555 1_555
C49_7 C48_7 1_555 1_555
H30_7 C49_7 1_555 1_555
C50_7 C24_7 1_555 1_555
C51_7 C50_7 1_555 1_555
H31_7 C51_7 1_555 1_555
C52_7 C47_7 1_555 1_555
H32_7 C52_7 1_555 1_555
C3_7 C4_7 1_555 1_555
C5_7 N4_7 1_555 1_555
O1_10 Zn3_7 1_555 1_555
C11_7 C12_7 1_555 1_555
C16_7 C17_7 1_555 1_555
C18_7 C19_7 1_555 1_555
C25_7 C26_7 1_555 1_555
C27_7 N7_7 1_555 1_555
C28_7 N11_7 1_555 1_555
C29_7 C30_7 1_555 1_555
C31_7 N11_7 1_555 1_555
C37_7 C38_7 1_555 1_555
C42_7 C43_7 1_555 1_555
C44_7 C45_7 1_555 1_555
C49_7 C50_7 1_555 1_555
C51_7 C52_7 1_555 1_555
Zn5_8 N6_8 1_555 1_555
Zn9_8 N8_8 1_555 1_555
N6_8 C27_8 1_555 1_555
C27_8 H17_8 1_555 1_555
N7_8 Zn3_8 1_555 1_555
C28_8 N7_8 1_555 1_555
C29_8 C28_8 1_555 1_555
C30_8 N6_8 1_555 1_555
N8_8 C29_8 1_555 1_555
N10_8 Zn5_8 1_555 1_555
C31_8 N8_8 1_555 1_555
H18_8 C31_8 1_555 1_555
N12_8 C30_8 1_555 1_555
H19_8 N12_8 1_555 1_555
H20_8 N12_8 1_555 1_555
O9_8 Zn3_8 1_555 1_555
O12_8 Zn5_8 1_555 1_555
O15_8 Zn5_8 1_555 1_555
O1_11 Zn3_8 1_555 1_555
C27_8 N7_8 1_555 1_555
C28_8 N11_8 1_555 1_555
C29_8 C30_8 1_555 1_555
C31_8 N11_8 1_555 1_555
Zn1_8 N2_8 1_555 1_555
Zn2_8 N1_8 1_555 1_555
N1_8 C1_8 1_555 1_555
C1_8 H1_8 1_555 1_555
N2_8 C1_8 1_555 1_555
C2_8 N2_8 1_555 1_555
C3_8 C2_8 1_555 1_555
C4_8 N1_8 1_555 1_555
N3_8 C3_8 1_555 1_555
C5_8 N3_8 1_555 1_555
H2_8 C5_8 1_555 1_555
N4_8 C2_8 1_555 1_555
N5_8 C4_8 1_555 1_555
H3_8 N5_8 1_555 1_555
H4_8 N5_8 1_555 1_555
O1_12 Zn1_8 1_555 1_555
C6_8 O2_8 1_555 1_555
O2_8 Zn1_8 1_555 1_555
O3_8 C6_8 1_555 1_555
C7_8 C6_8 1_555 1_555
C8_8 C7_8 1_555 1_555
H5_8 C8_8 1_555 1_555
C9_8 C8_8 1_555 1_555
H6_8 C9_8 1_555 1_555
C10_8 C9_8 1_555 1_555
C11_8 C10_8 1_555 1_555
H7_8 C11_8 1_555 1_555
C12_8 C7_8 1_555 1_555
H8_8 C12_8 1_555 1_555
C13_8 O4_8 1_555 1_555
O4_8 Zn7_8 1_555 1_555
O5_8 C13_8 1_555 1_555
C14_8 C13_8 1_555 1_555
C15_8 C14_8 1_555 1_555
H9_8 C15_8 1_555 1_555
C16_8 C15_8 1_555 1_555
H10_8 C16_8 1_555 1_555
C17_8 C10_8 1_555 1_555
C18_8 C17_8 1_555 1_555
H11_8 C18_8 1_555 1_555
C19_8 C14_8 1_555 1_555
H12_8 C19_8 1_555 1_555
C20_8 O6_8 1_555 1_555
O6_8 Zn2_8 1_555 1_555
O7_8 C20_8 1_555 1_555
C21_8 C20_8 1_555 1_555
C22_8 C21_8 1_555 1_555
H13_8 C22_8 1_555 1_555
C23_8 C22_8 1_555 1_555
H14_8 C23_8 1_555 1_555
C24_8 C23_8 1_555 1_555
C25_8 C24_8 1_555 1_555
H15_8 C25_8 1_555 1_555
C26_8 C21_8 1_555 1_555
H16_8 C26_8 1_555 1_555
Zn4_8 O8_8 1_555 1_555
Zn6_8 N3_8 1_555 1_555
Zn8_8 O14_8 1_555 1_555
N9_8 Zn2_8 1_555 1_555
C32_8 O8_8 1_555 1_555
O10_8 C32_8 1_555 1_555
C33_8 C32_8 1_555 1_555
C34_8 C33_8 1_555 1_555
H21_8 C34_8 1_555 1_555
C35_8 C34_8 1_555 1_555
H22_8 C35_8 1_555 1_555
C36_8 C35_8 1_555 1_555
C37_8 C36_8 1_555 1_555
H23_8 C37_8 1_555 1_555
C38_8 C33_8 1_555 1_555
H24_8 C38_8 1_555 1_555
C39_8 O11_8 1_555 1_555
O11_8 Zn2_8 1_555 1_555
O13_8 C39_8 1_555 1_555
C40_8 C39_8 1_555 1_555
C41_8 C40_8 1_555 1_555
H25_8 C41_8 1_555 1_555
C42_8 C41_8 1_555 1_555
H26_8 C42_8 1_555 1_555
C43_8 C36_8 1_555 1_555
C44_8 C43_8 1_555 1_555
H27_8 C44_8 1_555 1_555
C45_8 C40_8 1_555 1_555
H28_8 C45_8 1_555 1_555
C46_8 O14_8 1_555 1_555
O16_8 C46_8 1_555 1_555
C47_8 C46_8 1_555 1_555
C48_8 C47_8 1_555 1_555
H29_8 C48_8 1_555 1_555
C49_8 C48_8 1_555 1_555
H30_8 C49_8 1_555 1_555
C50_8 C24_8 1_555 1_555
C51_8 C50_8 1_555 1_555
H31_8 C51_8 1_555 1_555
C52_8 C47_8 1_555 1_555
H32_8 C52_8 1_555 1_555
C3_8 C4_8 1_555 1_555
C5_8 N4_8 1_555 1_555
C11_8 C12_8 1_555 1_555
C16_8 C17_8 1_555 1_555
C18_8 C19_8 1_555 1_555
C25_8 C26_8 1_555 1_555
C37_8 C38_8 1_555 1_555
C42_8 C43_8 1_555 1_555
C44_8 C45_8 1_555 1_555
C49_8 C50_8 1_555 1_555
C51_8 C52_8 1_555 1_555
Zn1_9 N2_9 1_555 1_555
Zn2_9 N1_9 1_555 1_555
N1_9 C1_9 1_555 1_555
C1_9 H1_9 1_555 1_555
N2_9 C1_9 1_555 1_555
C2_9 N2_9 1_555 1_555
C3_9 C2_9 1_555 1_555
C4_9 N1_9 1_555 1_555
N3_9 C3_9 1_555 1_555
C5_9 N3_9 1_555 1_555
H2_9 C5_9 1_555 1_555
N4_9 C2_9 1_555 1_555
N5_9 C4_9 1_555 1_555
H3_9 N5_9 1_555 1_555
H4_9 N5_9 1_555 1_555
O1_13 Zn1_9 1_555 1_555
C6_9 O2_9 1_555 1_555
O2_9 Zn1_9 1_555 1_555
O3_9 C6_9 1_555 1_555
C7_9 C6_9 1_555 1_555
C8_9 C7_9 1_555 1_555
H5_9 C8_9 1_555 1_555
C9_9 C8_9 1_555 1_555
H6_9 C9_9 1_555 1_555
C10_9 C9_9 1_555 1_555
C11_9 C10_9 1_555 1_555
H7_9 C11_9 1_555 1_555
C12_9 C7_9 1_555 1_555
H8_9 C12_9 1_555 1_555
C13_9 O4_9 1_555 1_555
O4_9 Zn7_9 1_555 1_555
O5_9 C13_9 1_555 1_555
C14_9 C13_9 1_555 1_555
C15_9 C14_9 1_555 1_555
H9_9 C15_9 1_555 1_555
C16_9 C15_9 1_555 1_555
H10_9 C16_9 1_555 1_555
C17_9 C10_9 1_555 1_555
C18_9 C17_9 1_555 1_555
H11_9 C18_9 1_555 1_555
C19_9 C14_9 1_555 1_555
H12_9 C19_9 1_555 1_555
C20_9 O6_9 1_555 1_555
O6_9 Zn2_9 1_555 1_555
O7_9 C20_9 1_555 1_555
C21_9 C20_9 1_555 1_555
C22_9 C21_9 1_555 1_555
H13_9 C22_9 1_555 1_555
C23_9 C22_9 1_555 1_555
H14_9 C23_9 1_555 1_555
C24_9 C23_9 1_555 1_555
C25_9 C24_9 1_555 1_555
H15_9 C25_9 1_555 1_555
C26_9 C21_9 1_555 1_555
H16_9 C26_9 1_555 1_555
Zn3_9 N4_9 1_555 1_555
Zn4_9 O8_9 1_555 1_555
Zn5_9 N6_9 1_555 1_555
Zn6_9 N3_9 1_555 1_555
Zn8_9 O14_9 1_555 1_555
Zn9_9 N8_9 1_555 1_555
N6_9 C27_9 1_555 1_555
C27_9 H17_9 1_555 1_555
N7_9 Zn3_9 1_555 1_555
C28_9 N7_9 1_555 1_555
C29_9 C28_9 1_555 1_555
C30_9 N6_9 1_555 1_555
N8_9 C29_9 1_555 1_555
N9_9 Zn2_9 1_555 1_555
N10_9 Zn5_9 1_555 1_555
C31_9 N8_9 1_555 1_555
H18_9 C31_9 1_555 1_555
N11_9 Zn1_9 1_555 1_555
N12_9 C30_9 1_555 1_555
H19_9 N12_9 1_555 1_555
H20_9 N12_9 1_555 1_555
C32_9 O8_9 1_555 1_555
O9_9 Zn3_9 1_555 1_555
O10_9 C32_9 1_555 1_555
C33_9 C32_9 1_555 1_555
C34_9 C33_9 1_555 1_555
H21_9 C34_9 1_555 1_555
C35_9 C34_9 1_555 1_555
H22_9 C35_9 1_555 1_555
C36_9 C35_9 1_555 1_555
C37_9 C36_9 1_555 1_555
H23_9 C37_9 1_555 1_555
C38_9 C33_9 1_555 1_555
H24_9 C38_9 1_555 1_555
C39_9 O11_9 1_555 1_555
O11_9 Zn2_9 1_555 1_555
O12_9 Zn5_9 1_555 1_555
O13_9 C39_9 1_555 1_555
C40_9 C39_9 1_555 1_555
C41_9 C40_9 1_555 1_555
H25_9 C41_9 1_555 1_555
C42_9 C41_9 1_555 1_555
H26_9 C42_9 1_555 1_555
C43_9 C36_9 1_555 1_555
C44_9 C43_9 1_555 1_555
H27_9 C44_9 1_555 1_555
C45_9 C40_9 1_555 1_555
H28_9 C45_9 1_555 1_555
C46_9 O14_9 1_555 1_555
O15_9 Zn5_9 1_555 1_555
O16_9 C46_9 1_555 1_555
C47_9 C46_9 1_555 1_555
C48_9 C47_9 1_555 1_555
H29_9 C48_9 1_555 1_555
C49_9 C48_9 1_555 1_555
H30_9 C49_9 1_555 1_555
C50_9 C24_9 1_555 1_555
C51_9 C50_9 1_555 1_555
H31_9 C51_9 1_555 1_555
C52_9 C47_9 1_555 1_555
H32_9 C52_9 1_555 1_555
C3_9 C4_9 1_555 1_555
C5_9 N4_9 1_555 1_555
O1_13 Zn3_9 1_555 1_555
C11_9 C12_9 1_555 1_555
C16_9 C17_9 1_555 1_555
C18_9 C19_9 1_555 1_555
C25_9 C26_9 1_555 1_555
C27_9 N7_9 1_555 1_555
C28_9 N11_9 1_555 1_555
C29_9 C30_9 1_555 1_555
C31_9 N11_9 1_555 1_555
C37_9 C38_9 1_555 1_555
C42_9 C43_9 1_555 1_555
C44_9 C45_9 1_555 1_555
C49_9 C50_9 1_555 1_555
C51_9 C52_9 1_555 1_555
Zn1_10 N2_10 1_555 1_555
Zn2_10 N1_10 1_555 1_555
N1_10 C1_10 1_555 1_555
C1_10 H1_10 1_555 1_555
N2_10 C1_10 1_555 1_555
C2_10 N2_10 1_555 1_555
C3_10 C2_10 1_555 1_555
C4_10 N1_10 1_555 1_555
N3_10 C3_10 1_555 1_555
C5_10 N3_10 1_555 1_555
H2_10 C5_10 1_555 1_555
N4_10 C2_10 1_555 1_555
N5_10 C4_10 1_555 1_555
H3_10 N5_10 1_555 1_555
H4_10 N5_10 1_555 1_555
O1_14 Zn1_10 1_555 1_555
C6_10 O2_10 1_555 1_555
O2_10 Zn1_10 1_555 1_555
O3_10 C6_10 1_555 1_555
C7_10 C6_10 1_555 1_555
C8_10 C7_10 1_555 1_555
H5_10 C8_10 1_555 1_555
C9_10 C8_10 1_555 1_555
H6_10 C9_10 1_555 1_555
C10_10 C9_10 1_555 1_555
C11_10 C10_10 1_555 1_555
H7_10 C11_10 1_555 1_555
C12_10 C7_10 1_555 1_555
H8_10 C12_10 1_555 1_555
C13_10 O4_10 1_555 1_555
O4_10 Zn7_10 1_555 1_555
O5_10 C13_10 1_555 1_555
C14_10 C13_10 1_555 1_555
C15_10 C14_10 1_555 1_555
H9_10 C15_10 1_555 1_555
C16_10 C15_10 1_555 1_555
H10_10 C16_10 1_555 1_555
C17_10 C10_10 1_555 1_555
C18_10 C17_10 1_555 1_555
H11_10 C18_10 1_555 1_555
C19_10 C14_10 1_555 1_555
H12_10 C19_10 1_555 1_555
C20_10 O6_10 1_555 1_555
O6_10 Zn2_10 1_555 1_555
O7_10 C20_10 1_555 1_555
C21_10 C20_10 1_555 1_555
C22_10 C21_10 1_555 1_555
H13_10 C22_10 1_555 1_555
C23_10 C22_10 1_555 1_555
H14_10 C23_10 1_555 1_555
C24_10 C23_10 1_555 1_555
C25_10 C24_10 1_555 1_555
H15_10 C25_10 1_555 1_555
C26_10 C21_10 1_555 1_555
H16_10 C26_10 1_555 1_555
Zn4_10 O8_10 1_555 1_555
Zn6_10 N3_10 1_555 1_555
Zn8_10 O14_10 1_555 1_555
N9_10 Zn2_10 1_555 1_555
C32_10 O8_10 1_555 1_555
O10_10 C32_10 1_555 1_555
C33_10 C32_10 1_555 1_555
C34_10 C33_10 1_555 1_555
H21_10 C34_10 1_555 1_555
C35_10 C34_10 1_555 1_555
H22_10 C35_10 1_555 1_555
C36_10 C35_10 1_555 1_555
C37_10 C36_10 1_555 1_555
H23_10 C37_10 1_555 1_555
C38_10 C33_10 1_555 1_555
H24_10 C38_10 1_555 1_555
C39_10 O11_10 1_555 1_555
O11_10 Zn2_10 1_555 1_555
O13_10 C39_10 1_555 1_555
C40_10 C39_10 1_555 1_555
C41_10 C40_10 1_555 1_555
H25_10 C41_10 1_555 1_555
C42_10 C41_10 1_555 1_555
H26_10 C42_10 1_555 1_555
C43_10 C36_10 1_555 1_555
C44_10 C43_10 1_555 1_555
H27_10 C44_10 1_555 1_555
C45_10 C40_10 1_555 1_555
H28_10 C45_10 1_555 1_555
C46_10 O14_10 1_555 1_555
O16_10 C46_10 1_555 1_555
C47_10 C46_10 1_555 1_555
C48_10 C47_10 1_555 1_555
H29_10 C48_10 1_555 1_555
C49_10 C48_10 1_555 1_555
H30_10 C49_10 1_555 1_555
C50_10 C24_10 1_555 1_555
C51_10 C50_10 1_555 1_555
H31_10 C51_10 1_555 1_555
C52_10 C47_10 1_555 1_555
H32_10 C52_10 1_555 1_555
C3_10 C4_10 1_555 1_555
C5_10 N4_10 1_555 1_555
C11_10 C12_10 1_555 1_555
C16_10 C17_10 1_555 1_555
C18_10 C19_10 1_555 1_555
C25_10 C26_10 1_555 1_555
C37_10 C38_10 1_555 1_555
C42_10 C43_10 1_555 1_555
C44_10 C45_10 1_555 1_555
C49_10 C50_10 1_555 1_555
C51_10 C52_10 1_555 1_555
Zn5_10 N6_10 1_555 1_555
Zn9_10 N8_10 1_555 1_555
N6_10 C27_10 1_555 1_555
C27_10 H17_10 1_555 1_555
N7_10 Zn3_10 1_555 1_555
C28_10 N7_10 1_555 1_555
C29_10 C28_10 1_555 1_555
C30_10 N6_10 1_555 1_555
N8_10 C29_10 1_555 1_555
N10_10 Zn5_10 1_555 1_555
C31_10 N8_10 1_555 1_555
H18_10 C31_10 1_555 1_555
N12_10 C30_10 1_555 1_555
H19_10 N12_10 1_555 1_555
H20_10 N12_10 1_555 1_555
O9_10 Zn3_10 1_555 1_555
O12_10 Zn5_10 1_555 1_555
O15_10 Zn5_10 1_555 1_555
O1_15 Zn3_10 1_555 1_555
C27_10 N7_10 1_555 1_555
C28_10 N11_10 1_555 1_555
C29_10 C30_10 1_555 1_555
C31_10 N11_10 1_555 1_555
Zn1_11 N2_11 1_555 1_555
Zn2_11 N1_11 1_555 1_555
N1_11 C1_11 1_555 1_555
C1_11 H1_11 1_555 1_555
N2_11 C1_11 1_555 1_555
C2_11 N2_11 1_555 1_555
C3_11 C2_11 1_555 1_555
C4_11 N1_11 1_555 1_555
N3_11 C3_11 1_555 1_555
C5_11 N3_11 1_555 1_555
H2_11 C5_11 1_555 1_555
N4_11 C2_11 1_555 1_555
N5_11 C4_11 1_555 1_555
H3_11 N5_11 1_555 1_555
H4_11 N5_11 1_555 1_555
O1_16 Zn1_11 1_555 1_555
C6_11 O2_11 1_555 1_555
O2_11 Zn1_11 1_555 1_555
O3_11 C6_11 1_555 1_555
C7_11 C6_11 1_555 1_555
C8_11 C7_11 1_555 1_555
H5_11 C8_11 1_555 1_555
C9_11 C8_11 1_555 1_555
H6_11 C9_11 1_555 1_555
C10_11 C9_11 1_555 1_555
C11_11 C10_11 1_555 1_555
H7_11 C11_11 1_555 1_555
C12_11 C7_11 1_555 1_555
H8_11 C12_11 1_555 1_555
C13_11 O4_11 1_555 1_555
O4_11 Zn7_11 1_555 1_555
O5_11 C13_11 1_555 1_555
C14_11 C13_11 1_555 1_555
C15_11 C14_11 1_555 1_555
H9_11 C15_11 1_555 1_555
C16_11 C15_11 1_555 1_555
H10_11 C16_11 1_555 1_555
C17_11 C10_11 1_555 1_555
C18_11 C17_11 1_555 1_555
H11_11 C18_11 1_555 1_555
C19_11 C14_11 1_555 1_555
H12_11 C19_11 1_555 1_555
C20_11 O6_11 1_555 1_555
O6_11 Zn2_11 1_555 1_555
O7_11 C20_11 1_555 1_555
C21_11 C20_11 1_555 1_555
C22_11 C21_11 1_555 1_555
H13_11 C22_11 1_555 1_555
C23_11 C22_11 1_555 1_555
H14_11 C23_11 1_555 1_555
C24_11 C23_11 1_555 1_555
C25_11 C24_11 1_555 1_555
H15_11 C25_11 1_555 1_555
C26_11 C21_11 1_555 1_555
H16_11 C26_11 1_555 1_555
Zn3_11 N4_11 1_555 1_555
Zn4_11 O8_11 1_555 1_555
Zn5_11 N6_11 1_555 1_555
Zn6_11 N3_11 1_555 1_555
Zn8_11 O14_11 1_555 1_555
Zn9_11 N8_11 1_555 1_555
N6_11 C27_11 1_555 1_555
C27_11 H17_11 1_555 1_555
N7_11 Zn3_11 1_555 1_555
C28_11 N7_11 1_555 1_555
C29_11 C28_11 1_555 1_555
C30_11 N6_11 1_555 1_555
N8_11 C29_11 1_555 1_555
N9_11 Zn2_11 1_555 1_555
N10_11 Zn5_11 1_555 1_555
C31_11 N8_11 1_555 1_555
H18_11 C31_11 1_555 1_555
N11_11 Zn1_11 1_555 1_555
N12_11 C30_11 1_555 1_555
H19_11 N12_11 1_555 1_555
H20_11 N12_11 1_555 1_555
C32_11 O8_11 1_555 1_555
O9_11 Zn3_11 1_555 1_555
O10_11 C32_11 1_555 1_555
C33_11 C32_11 1_555 1_555
C34_11 C33_11 1_555 1_555
H21_11 C34_11 1_555 1_555
C35_11 C34_11 1_555 1_555
H22_11 C35_11 1_555 1_555
C36_11 C35_11 1_555 1_555
C37_11 C36_11 1_555 1_555
H23_11 C37_11 1_555 1_555
C38_11 C33_11 1_555 1_555
H24_11 C38_11 1_555 1_555
C39_11 O11_11 1_555 1_555
O11_11 Zn2_11 1_555 1_555
O12_11 Zn5_11 1_555 1_555
O13_11 C39_11 1_555 1_555
C40_11 C39_11 1_555 1_555
C41_11 C40_11 1_555 1_555
H25_11 C41_11 1_555 1_555
C42_11 C41_11 1_555 1_555
H26_11 C42_11 1_555 1_555
C43_11 C36_11 1_555 1_555
C44_11 C43_11 1_555 1_555
H27_11 C44_11 1_555 1_555
C45_11 C40_11 1_555 1_555
H28_11 C45_11 1_555 1_555
C46_11 O14_11 1_555 1_555
O15_11 Zn5_11 1_555 1_555
O16_11 C46_11 1_555 1_555
C47_11 C46_11 1_555 1_555
C48_11 C47_11 1_555 1_555
H29_11 C48_11 1_555 1_555
C49_11 C48_11 1_555 1_555
H30_11 C49_11 1_555 1_555
C50_11 C24_11 1_555 1_555
C51_11 C50_11 1_555 1_555
H31_11 C51_11 1_555 1_555
C52_11 C47_11 1_555 1_555
H32_11 C52_11 1_555 1_555
C3_11 C4_11 1_555 1_555
C5_11 N4_11 1_555 1_555
O1_16 Zn3_11 1_555 1_555
C11_11 C12_11 1_555 1_555
C16_11 C17_11 1_555 1_555
C18_11 C19_11 1_555 1_555
C25_11 C26_11 1_555 1_555
C27_11 N7_11 1_555 1_555
C28_11 N11_11 1_555 1_555
C29_11 C30_11 1_555 1_555
C31_11 N11_11 1_555 1_555
C37_11 C38_11 1_555 1_555
C42_11 C43_11 1_555 1_555
C44_11 C45_11 1_555 1_555
C49_11 C50_11 1_555 1_555
C51_11 C52_11 1_555 1_555
Zn5_12 N6_12 1_555 1_555
Zn9_12 N8_12 1_555 1_555
N6_12 C27_12 1_555 1_555
C27_12 H17_12 1_555 1_555
N7_12 Zn3_12 1_555 1_555
C28_12 N7_12 1_555 1_555
C29_12 C28_12 1_555 1_555
C30_12 N6_12 1_555 1_555
N8_12 C29_12 1_555 1_555
N10_12 Zn5_12 1_555 1_555
C31_12 N8_12 1_555 1_555
H18_12 C31_12 1_555 1_555
N12_12 C30_12 1_555 1_555
H19_12 N12_12 1_555 1_555
H20_12 N12_12 1_555 1_555
O9_12 Zn3_12 1_555 1_555
O12_12 Zn5_12 1_555 1_555
O15_12 Zn5_12 1_555 1_555
O1_17 Zn3_12 1_555 1_555
C27_12 N7_12 1_555 1_555
C28_12 N11_12 1_555 1_555
C29_12 C30_12 1_555 1_555
C31_12 N11_12 1_555 1_555
Zn1_12 N2_12 1_555 1_555
Zn2_12 N1_12 1_555 1_555
N1_12 C1_12 1_555 1_555
C1_12 H1_12 1_555 1_555
N2_12 C1_12 1_555 1_555
C2_12 N2_12 1_555 1_555
C3_12 C2_12 1_555 1_555
C4_12 N1_12 1_555 1_555
N3_12 C3_12 1_555 1_555
C5_12 N3_12 1_555 1_555
H2_12 C5_12 1_555 1_555
N4_12 C2_12 1_555 1_555
N5_12 C4_12 1_555 1_555
H3_12 N5_12 1_555 1_555
H4_12 N5_12 1_555 1_555
O1_18 Zn1_12 1_555 1_555
C6_12 O2_12 1_555 1_555
O2_12 Zn1_12 1_555 1_555
O3_12 C6_12 1_555 1_555
C7_12 C6_12 1_555 1_555
C8_12 C7_12 1_555 1_555
H5_12 C8_12 1_555 1_555
C9_12 C8_12 1_555 1_555
H6_12 C9_12 1_555 1_555
C10_12 C9_12 1_555 1_555
C11_12 C10_12 1_555 1_555
H7_12 C11_12 1_555 1_555
C12_12 C7_12 1_555 1_555
H8_12 C12_12 1_555 1_555
C13_12 O4_12 1_555 1_555
O4_12 Zn7_12 1_555 1_555
O5_12 C13_12 1_555 1_555
C14_12 C13_12 1_555 1_555
C15_12 C14_12 1_555 1_555
H9_12 C15_12 1_555 1_555
C16_12 C15_12 1_555 1_555
H10_12 C16_12 1_555 1_555
C17_12 C10_12 1_555 1_555
C18_12 C17_12 1_555 1_555
H11_12 C18_12 1_555 1_555
C19_12 C14_12 1_555 1_555
H12_12 C19_12 1_555 1_555
C20_12 O6_12 1_555 1_555
O6_12 Zn2_12 1_555 1_555
O7_12 C20_12 1_555 1_555
C21_12 C20_12 1_555 1_555
C22_12 C21_12 1_555 1_555
H13_12 C22_12 1_555 1_555
C23_12 C22_12 1_555 1_555
H14_12 C23_12 1_555 1_555
C24_12 C23_12 1_555 1_555
C25_12 C24_12 1_555 1_555
H15_12 C25_12 1_555 1_555
C26_12 C21_12 1_555 1_555
H16_12 C26_12 1_555 1_555
Zn4_12 O8_12 1_555 1_555
Zn6_12 N3_12 1_555 1_555
Zn8_12 O14_12 1_555 1_555
N9_12 Zn2_12 1_555 1_555
C32_12 O8_12 1_555 1_555
O10_12 C32_12 1_555 1_555
C33_12 C32_12 1_555 1_555
C34_12 C33_12 1_555 1_555
H21_12 C34_12 1_555 1_555
C35_12 C34_12 1_555 1_555
H22_12 C35_12 1_555 1_555
C36_12 C35_12 1_555 1_555
C37_12 C36_12 1_555 1_555
H23_12 C37_12 1_555 1_555
C38_12 C33_12 1_555 1_555
H24_12 C38_12 1_555 1_555
C39_12 O11_12 1_555 1_555
O11_12 Zn2_12 1_555 1_555
O13_12 C39_12 1_555 1_555
C40_12 C39_12 1_555 1_555
C41_12 C40_12 1_555 1_555
H25_12 C41_12 1_555 1_555
C42_12 C41_12 1_555 1_555
H26_12 C42_12 1_555 1_555
C43_12 C36_12 1_555 1_555
C44_12 C43_12 1_555 1_555
H27_12 C44_12 1_555 1_555
C45_12 C40_12 1_555 1_555
H28_12 C45_12 1_555 1_555
C46_12 O14_12 1_555 1_555
O16_12 C46_12 1_555 1_555
C47_12 C46_12 1_555 1_555
C48_12 C47_12 1_555 1_555
H29_12 C48_12 1_555 1_555
C49_12 C48_12 1_555 1_555
H30_12 C49_12 1_555 1_555
C50_12 C24_12 1_555 1_555
C51_12 C50_12 1_555 1_555
H31_12 C51_12 1_555 1_555
C52_12 C47_12 1_555 1_555
H32_12 C52_12 1_555 1_555
C3_12 C4_12 1_555 1_555
C5_12 N4_12 1_555 1_555
C11_12 C12_12 1_555 1_555
C16_12 C17_12 1_555 1_555
C18_12 C19_12 1_555 1_555
C25_12 C26_12 1_555 1_555
C37_12 C38_12 1_555 1_555
C42_12 C43_12 1_555 1_555
C44_12 C45_12 1_555 1_555
C49_12 C50_12 1_555 1_555
C51_12 C52_12 1_555 1_555
C3_13 C2_13 1_555 1_555
N3_13 C3_13 1_555 1_555
C5_13 N3_13 1_555 1_555
H2_13 C5_13 1_555 1_555
N4_13 C2_13 1_555 1_555
N5_13 C4_13 1_555 1_555
H3_13 N5_13 1_555 1_555
H4_13 N5_13 1_555 1_555
Zn3_13 N4_13 1_555 1_555
Zn4_13 O8_13 1_555 1_555
Zn5_13 N6_13 1_555 1_555
Zn6_13 N3_13 1_555 1_555
N6_13 C27_13 1_555 1_555
C27_13 H17_13 1_555 1_555
N7_13 Zn3_13 1_555 1_555
N10_13 Zn5_13 1_555 1_555
C32_13 O8_13 1_555 1_555
O9_13 Zn3_13 1_555 1_555
O10_13 C32_13 1_555 1_555
C33_13 C32_13 1_555 1_555
C34_13 C33_13 1_555 1_555
H21_13 C34_13 1_555 1_555
C35_13 C34_13 1_555 1_555
H22_13 C35_13 1_555 1_555
C36_13 C35_13 1_555 1_555
C37_13 C36_13 1_555 1_555
H23_13 C37_13 1_555 1_555
C38_13 C33_13 1_555 1_555
H24_13 C38_13 1_555 1_555
O12_13 Zn5_13 1_555 1_555
H25_13 C41_13 1_555 1_555
C42_13 C41_13 1_555 1_555
H26_13 C42_13 1_555 1_555
C43_13 C36_13 1_555 1_555
O15_13 Zn5_13 1_555 1_555
C3_13 C4_13 1_555 1_555
C5_13 N4_13 1_555 1_555
O1_19 Zn3_13 1_555 1_555
C27_13 N7_13 1_555 1_555
C37_13 C38_13 1_555 1_555
C42_13 C43_13 1_555 1_555
Zn1_13 N2_13 1_555 1_555
Zn8_10 N1_13 1_555 1_555
N1_13 C1_13 1_555 1_555
C1_13 H1_13 1_555 1_555
N2_13 C1_13 1_555 1_555
O1_20 Zn1_13 1_555 1_555
C6_13 O2_13 1_555 1_555
O2_13 Zn1_13 1_555 1_555
O3_13 C6_13 1_555 1_555
C7_13 C6_13 1_555 1_555
C8_13 C7_13 1_555 1_555
H5_13 C8_13 1_555 1_555
C9_13 C8_13 1_555 1_555
H6_13 C9_13 1_555 1_555
C10_13 C9_13 1_555 1_555
C11_13 C10_13 1_555 1_555
H7_13 C11_13 1_555 1_555
C12_13 C7_13 1_555 1_555
H8_13 C12_13 1_555 1_555
H9_13 C15_13 1_555 1_555
C16_13 C15_13 1_555 1_555
H10_13 C16_13 1_555 1_555
C17_13 C10_13 1_555 1_555
Zn7_10 N8_13 1_555 1_555
C29_13 C28_13 1_555 1_555
N8_13 C29_13 1_555 1_555
N9_13 Zn8_10 1_555 1_555
C31_13 N8_13 1_555 1_555
H18_13 C31_13 1_555 1_555
N11_13 Zn1_13 1_555 1_555
N12_13 C30_13 1_555 1_555
H19_13 N12_13 1_555 1_555
H20_13 N12_13 1_555 1_555
C39_13 O11_13 1_555 1_555
O11_13 Zn8_10 1_555 1_555
O13_13 C39_13 1_555 1_555
C40_13 C39_13 1_555 1_555
H27_13 C44_13 1_555 1_555
C45_13 C40_13 1_555 1_555
H28_13 C45_13 1_555 1_555
C11_13 C12_13 1_555 1_555
C16_13 C17_13 1_555 1_555
C28_13 N11_13 1_555 1_555
C29_13 C30_13 1_555 1_555
C31_13 N11_13 1_555 1_555
C44_13 C45_13 1_555 1_555
C13_13 O4_13 1_555 1_555
O4_13 Zn9_10 1_555 1_555
O5_13 C13_13 1_555 1_555
C14_13 C13_13 1_555 1_555
H11_13 C18_13 1_555 1_555
C19_13 C14_13 1_555 1_555
H12_13 C19_13 1_555 1_555
C18_13 C19_13 1_555 1_555
Zn1_14 N2_14 1_555 1_555
Zn8_11 N1_14 1_555 1_555
N1_14 C1_14 1_555 1_555
C1_14 H1_14 1_555 1_555
N2_14 C1_14 1_555 1_555
C2_14 N2_14 1_555 1_555
C3_14 C2_14 1_555 1_555
C4_14 N1_14 1_555 1_555
N3_14 C3_14 1_555 1_555
C5_14 N3_14 1_555 1_555
H2_14 C5_14 1_555 1_555
N4_14 C2_14 1_555 1_555
N5_14 C4_14 1_555 1_555
H3_14 N5_14 1_555 1_555
H4_14 N5_14 1_555 1_555
O1_21 Zn1_14 1_555 1_555
C6_14 O2_14 1_555 1_555
O2_14 Zn1_14 1_555 1_555
O3_14 C6_14 1_555 1_555
C7_14 C6_14 1_555 1_555
C8_14 C7_14 1_555 1_555
H5_14 C8_14 1_555 1_555
C9_14 C8_14 1_555 1_555
H6_14 C9_14 1_555 1_555
C10_14 C9_14 1_555 1_555
C11_14 C10_14 1_555 1_555
H7_14 C11_14 1_555 1_555
C12_14 C7_14 1_555 1_555
H8_14 C12_14 1_555 1_555
C13_14 O4_14 1_555 1_555
O4_14 Zn9_11 1_555 1_555
O5_14 C13_14 1_555 1_555
C14_14 C13_14 1_555 1_555
C15_14 C14_14 1_555 1_555
H9_14 C15_14 1_555 1_555
C16_14 C15_14 1_555 1_555
H10_14 C16_14 1_555 1_555
C17_14 C10_14 1_555 1_555
C18_14 C17_14 1_555 1_555
H11_14 C18_14 1_555 1_555
C19_14 C14_14 1_555 1_555
H12_14 C19_14 1_555 1_555
Zn3_14 N4_14 1_555 1_555
Zn4_14 O8_14 1_555 1_555
Zn5_14 N6_14 1_555 1_555
Zn6_14 N3_14 1_555 1_555
Zn7_11 N8_14 1_555 1_555
N6_14 C27_14 1_555 1_555
C27_14 H17_14 1_555 1_555
N7_14 Zn3_14 1_555 1_555
C28_14 N7_14 1_555 1_555
C29_14 C28_14 1_555 1_555
C30_14 N6_14 1_555 1_555
N8_14 C29_14 1_555 1_555
N9_14 Zn8_11 1_555 1_555
N10_14 Zn5_14 1_555 1_555
C31_14 N8_14 1_555 1_555
H18_14 C31_14 1_555 1_555
N11_14 Zn1_14 1_555 1_555
N12_14 C30_14 1_555 1_555
H19_14 N12_14 1_555 1_555
H20_14 N12_14 1_555 1_555
C32_14 O8_14 1_555 1_555
O9_14 Zn3_14 1_555 1_555
O10_14 C32_14 1_555 1_555
C33_14 C32_14 1_555 1_555
C34_14 C33_14 1_555 1_555
H21_14 C34_14 1_555 1_555
C35_14 C34_14 1_555 1_555
H22_14 C35_14 1_555 1_555
C36_14 C35_14 1_555 1_555
C37_14 C36_14 1_555 1_555
H23_14 C37_14 1_555 1_555
C38_14 C33_14 1_555 1_555
H24_14 C38_14 1_555 1_555
C39_14 O11_14 1_555 1_555
O11_14 Zn8_11 1_555 1_555
O12_14 Zn5_14 1_555 1_555
O13_14 C39_14 1_555 1_555
C40_14 C39_14 1_555 1_555
C41_14 C40_14 1_555 1_555
H25_14 C41_14 1_555 1_555
C42_14 C41_14 1_555 1_555
H26_14 C42_14 1_555 1_555
C43_14 C36_14 1_555 1_555
C44_14 C43_14 1_555 1_555
H27_14 C44_14 1_555 1_555
C45_14 C40_14 1_555 1_555
H28_14 C45_14 1_555 1_555
O15_14 Zn5_14 1_555 1_555
C3_14 C4_14 1_555 1_555
C5_14 N4_14 1_555 1_555
O1_21 Zn3_14 1_555 1_555
C11_14 C12_14 1_555 1_555
C16_14 C17_14 1_555 1_555
C18_14 C19_14 1_555 1_555
C27_14 N7_14 1_555 1_555
C28_14 N11_14 1_555 1_555
C29_14 C30_14 1_555 1_555
C31_14 N11_14 1_555 1_555
C37_14 C38_14 1_555 1_555
C42_14 C43_14 1_555 1_555
C44_14 C45_14 1_555 1_555
C13_15 O4_15 1_555 1_555
O4_15 Zn9_12 1_555 1_555
O5_15 C13_15 1_555 1_555
C14_15 C13_15 1_555 1_555
H11_15 C18_15 1_555 1_555
C19_15 C14_15 1_555 1_555
H12_15 C19_15 1_555 1_555
C18_15 C19_15 1_555 1_555
Zn1_15 N2_15 1_555 1_555
Zn8_12 N1_15 1_555 1_555
N1_15 C1_15 1_555 1_555
C1_15 H1_15 1_555 1_555
N2_15 C1_15 1_555 1_555
C2_15 N2_15 1_555 1_555
C3_15 C2_15 1_555 1_555
C4_15 N1_15 1_555 1_555
N3_15 C3_15 1_555 1_555
C5_15 N3_15 1_555 1_555
H2_15 C5_15 1_555 1_555
N4_15 C2_15 1_555 1_555
N5_15 C4_15 1_555 1_555
H3_15 N5_15 1_555 1_555
H4_15 N5_15 1_555 1_555
O1_22 Zn1_15 1_555 1_555
C6_15 O2_15 1_555 1_555
O2_15 Zn1_15 1_555 1_555
O3_15 C6_15 1_555 1_555
C7_15 C6_15 1_555 1_555
C8_15 C7_15 1_555 1_555
H5_15 C8_15 1_555 1_555
C9_15 C8_15 1_555 1_555
H6_15 C9_15 1_555 1_555
C10_15 C9_15 1_555 1_555
C11_15 C10_15 1_555 1_555
H7_15 C11_15 1_555 1_555
C12_15 C7_15 1_555 1_555
H8_15 C12_15 1_555 1_555
H9_15 C15_15 1_555 1_555
C16_15 C15_15 1_555 1_555
H10_15 C16_15 1_555 1_555
C17_15 C10_15 1_555 1_555
Zn3_15 N4_15 1_555 1_555
Zn4_15 O8_15 1_555 1_555
Zn5_15 N6_15 1_555 1_555
Zn6_15 N3_15 1_555 1_555
Zn7_12 N8_15 1_555 1_555
N6_15 C27_15 1_555 1_555
C27_15 H17_15 1_555 1_555
N7_15 Zn3_15 1_555 1_555
C28_15 N7_15 1_555 1_555
C29_15 C28_15 1_555 1_555
C30_15 N6_15 1_555 1_555
N8_15 C29_15 1_555 1_555
N9_15 Zn8_12 1_555 1_555
N10_15 Zn5_15 1_555 1_555
C31_15 N8_15 1_555 1_555
H18_15 C31_15 1_555 1_555
N11_15 Zn1_15 1_555 1_555
N12_15 C30_15 1_555 1_555
H19_15 N12_15 1_555 1_555
H20_15 N12_15 1_555 1_555
C32_15 O8_15 1_555 1_555
O9_15 Zn3_15 1_555 1_555
O10_15 C32_15 1_555 1_555
C33_15 C32_15 1_555 1_555
C34_15 C33_15 1_555 1_555
H21_15 C34_15 1_555 1_555
C35_15 C34_15 1_555 1_555
H22_15 C35_15 1_555 1_555
C36_15 C35_15 1_555 1_555
C37_15 C36_15 1_555 1_555
H23_15 C37_15 1_555 1_555
C38_15 C33_15 1_555 1_555
H24_15 C38_15 1_555 1_555
C39_15 O11_15 1_555 1_555
O11_15 Zn8_12 1_555 1_555
O12_15 Zn5_15 1_555 1_555
O13_15 C39_15 1_555 1_555
C40_15 C39_15 1_555 1_555
C41_15 C40_15 1_555 1_555
H25_15 C41_15 1_555 1_555
C42_15 C41_15 1_555 1_555
H26_15 C42_15 1_555 1_555
C43_15 C36_15 1_555 1_555
C44_15 C43_15 1_555 1_555
H27_15 C44_15 1_555 1_555
C45_15 C40_15 1_555 1_555
H28_15 C45_15 1_555 1_555
O15_15 Zn5_15 1_555 1_555
C3_15 C4_15 1_555 1_555
C5_15 N4_15 1_555 1_555
O1_22 Zn3_15 1_555 1_555
C11_15 C12_15 1_555 1_555
C16_15 C17_15 1_555 1_555
C27_15 N7_15 1_555 1_555
C28_15 N11_15 1_555 1_555
C29_15 C30_15 1_555 1_555
C31_15 N11_15 1_555 1_555
C37_15 C38_15 1_555 1_555
C42_15 C43_15 1_555 1_555
C44_15 C45_15 1_555 1_555
Zn1_16 N2_16 1_555 1_555
Zn8_9 N1_16 1_555 1_555
N1_16 C1_16 1_555 1_555
C1_16 H1_16 1_555 1_555
N2_16 C1_16 1_555 1_555
O1_23 Zn1_16 1_555 1_555
C6_16 O2_16 1_555 1_555
O2_16 Zn1_16 1_555 1_555
O3_16 C6_16 1_555 1_555
C7_16 C6_16 1_555 1_555
C8_16 C7_16 1_555 1_555
H5_16 C8_16 1_555 1_555
C9_16 C8_16 1_555 1_555
H6_16 C9_16 1_555 1_555
C10_16 C9_16 1_555 1_555
C11_16 C10_16 1_555 1_555
H7_16 C11_16 1_555 1_555
C12_16 C7_16 1_555 1_555
H8_16 C12_16 1_555 1_555
C13_16 O4_16 1_555 1_555
O4_16 Zn9_9 1_555 1_555
O5_16 C13_16 1_555 1_555
C14_16 C13_16 1_555 1_555
C15_16 C14_16 1_555 1_555
H9_16 C15_16 1_555 1_555
C16_16 C15_16 1_555 1_555
H10_16 C16_16 1_555 1_555
C17_16 C10_16 1_555 1_555
C18_16 C17_16 1_555 1_555
H11_16 C18_16 1_555 1_555
C19_16 C14_16 1_555 1_555
H12_16 C19_16 1_555 1_555
Zn7_9 N8_16 1_555 1_555
C29_16 C28_16 1_555 1_555
N8_16 C29_16 1_555 1_555
N9_16 Zn8_9 1_555 1_555
C31_16 N8_16 1_555 1_555
H18_16 C31_16 1_555 1_555
N11_16 Zn1_16 1_555 1_555
N12_16 C30_16 1_555 1_555
H19_16 N12_16 1_555 1_555
H20_16 N12_16 1_555 1_555
C39_16 O11_16 1_555 1_555
O11_16 Zn8_9 1_555 1_555
O13_16 C39_16 1_555 1_555
C40_16 C39_16 1_555 1_555
H27_16 C44_16 1_555 1_555
C45_16 C40_16 1_555 1_555
H28_16 C45_16 1_555 1_555
C11_16 C12_16 1_555 1_555
C16_16 C17_16 1_555 1_555
C18_16 C19_16 1_555 1_555
C28_16 N11_16 1_555 1_555
C29_16 C30_16 1_555 1_555
C31_16 N11_16 1_555 1_555
C44_16 C45_16 1_555 1_555
C3_16 C2_16 1_555 1_555
N3_16 C3_16 1_555 1_555
C5_16 N3_16 1_555 1_555
H2_16 C5_16 1_555 1_555
N4_16 C2_16 1_555 1_555
N5_16 C4_16 1_555 1_555
H3_16 N5_16 1_555 1_555
H4_16 N5_16 1_555 1_555
Zn3_16 N4_16 1_555 1_555
Zn4_16 O8_16 1_555 1_555
Zn5_16 N6_16 1_555 1_555
Zn6_16 N3_16 1_555 1_555
N6_16 C27_16 1_555 1_555
C27_16 H17_16 1_555 1_555
N7_16 Zn3_16 1_555 1_555
N10_16 Zn5_16 1_555 1_555
C32_16 O8_16 1_555 1_555
O9_16 Zn3_16 1_555 1_555
O10_16 C32_16 1_555 1_555
C33_16 C32_16 1_555 1_555
C34_16 C33_16 1_555 1_555
H21_16 C34_16 1_555 1_555
C35_16 C34_16 1_555 1_555
H22_16 C35_16 1_555 1_555
C36_16 C35_16 1_555 1_555
C37_16 C36_16 1_555 1_555
H23_16 C37_16 1_555 1_555
C38_16 C33_16 1_555 1_555
H24_16 C38_16 1_555 1_555
O12_16 Zn5_16 1_555 1_555
H25_16 C41_16 1_555 1_555
C42_16 C41_16 1_555 1_555
H26_16 C42_16 1_555 1_555
C43_16 C36_16 1_555 1_555
O15_16 Zn5_16 1_555 1_555
C3_16 C4_16 1_555 1_555
C5_16 N4_16 1_555 1_555
O1_24 Zn3_16 1_555 1_555
C27_16 N7_16 1_555 1_555
C37_16 C38_16 1_555 1_555
C42_16 C43_16 1_555 1_555
Zn1_17 N2_17 1_555 1_555
Zn8_5 N1_17 1_555 1_555
N1_17 C1_17 1_555 1_555
C1_17 H1_17 1_555 1_555
N2_17 C1_17 1_555 1_555
O1_25 Zn1_17 1_555 1_555
C6_17 O2_17 1_555 1_555
O2_17 Zn1_17 1_555 1_555
O3_17 C6_17 1_555 1_555
C7_17 C6_17 1_555 1_555
C8_17 C7_17 1_555 1_555
H5_17 C8_17 1_555 1_555
C9_17 C8_17 1_555 1_555
H6_17 C9_17 1_555 1_555
C10_17 C9_17 1_555 1_555
C11_17 C10_17 1_555 1_555
H7_17 C11_17 1_555 1_555
C12_17 C7_17 1_555 1_555
H8_17 C12_17 1_555 1_555
C13_17 O4_17 1_555 1_555
O4_17 Zn9_5 1_555 1_555
O5_17 C13_17 1_555 1_555
C14_17 C13_17 1_555 1_555
C15_17 C14_17 1_555 1_555
H9_17 C15_17 1_555 1_555
C16_17 C15_17 1_555 1_555
H10_17 C16_17 1_555 1_555
C17_17 C10_17 1_555 1_555
C18_17 C17_17 1_555 1_555
H11_17 C18_17 1_555 1_555
C19_17 C14_17 1_555 1_555
H12_17 C19_17 1_555 1_555
Zn7_5 N8_17 1_555 1_555
C29_17 C28_17 1_555 1_555
N8_17 C29_17 1_555 1_555
N9_17 Zn8_5 1_555 1_555
C31_17 N8_17 1_555 1_555
H18_17 C31_17 1_555 1_555
N11_17 Zn1_17 1_555 1_555
N12_17 C30_17 1_555 1_555
H19_17 N12_17 1_555 1_555
H20_17 N12_17 1_555 1_555
C39_17 O11_17 1_555 1_555
O11_17 Zn8_5 1_555 1_555
O13_17 C39_17 1_555 1_555
C40_17 C39_17 1_555 1_555
H27_17 C44_17 1_555 1_555
C45_17 C40_17 1_555 1_555
H28_17 C45_17 1_555 1_555
C11_17 C12_17 1_555 1_555
C16_17 C17_17 1_555 1_555
C18_17 C19_17 1_555 1_555
C28_17 N11_17 1_555 1_555
C29_17 C30_17 1_555 1_555
C31_17 N11_17 1_555 1_555
C44_17 C45_17 1_555 1_555
C3_17 C2_17 1_555 1_555
N3_17 C3_17 1_555 1_555
C5_17 N3_17 1_555 1_555
H2_17 C5_17 1_555 1_555
N4_17 C2_17 1_555 1_555
N5_17 C4_17 1_555 1_555
H3_17 N5_17 1_555 1_555
H4_17 N5_17 1_555 1_555
Zn3_17 N4_17 1_555 1_555
Zn4_17 O8_17 1_555 1_555
Zn5_17 N6_17 1_555 1_555
Zn6_17 N3_17 1_555 1_555
N6_17 C27_17 1_555 1_555
C27_17 H17_17 1_555 1_555
N7_17 Zn3_17 1_555 1_555
N10_17 Zn5_17 1_555 1_555
C32_17 O8_17 1_555 1_555
O9_17 Zn3_17 1_555 1_555
O10_17 C32_17 1_555 1_555
C33_17 C32_17 1_555 1_555
C34_17 C33_17 1_555 1_555
H21_17 C34_17 1_555 1_555
C35_17 C34_17 1_555 1_555
H22_17 C35_17 1_555 1_555
C36_17 C35_17 1_555 1_555
C37_17 C36_17 1_555 1_555
H23_17 C37_17 1_555 1_555
C38_17 C33_17 1_555 1_555
H24_17 C38_17 1_555 1_555
O12_17 Zn5_17 1_555 1_555
H25_17 C41_17 1_555 1_555
C42_17 C41_17 1_555 1_555
H26_17 C42_17 1_555 1_555
C43_17 C36_17 1_555 1_555
O15_17 Zn5_17 1_555 1_555
C3_17 C4_17 1_555 1_555
C5_17 N4_17 1_555 1_555
O1_26 Zn3_17 1_555 1_555
C27_17 N7_17 1_555 1_555
C37_17 C38_17 1_555 1_555
C42_17 C43_17 1_555 1_555
C13_18 O4_18 1_555 1_555
O4_18 Zn9_8 1_555 1_555
O5_18 C13_18 1_555 1_555
C14_18 C13_18 1_555 1_555
H11_18 C18_18 1_555 1_555
C19_18 C14_18 1_555 1_555
H12_18 C19_18 1_555 1_555
C18_18 C19_18 1_555 1_555
Zn1_18 N2_18 1_555 1_555
Zn8_8 N1_18 1_555 1_555
N1_18 C1_18 1_555 1_555
C1_18 H1_18 1_555 1_555
N2_18 C1_18 1_555 1_555
C2_18 N2_18 1_555 1_555
C3_18 C2_18 1_555 1_555
C4_18 N1_18 1_555 1_555
N3_18 C3_18 1_555 1_555
C5_18 N3_18 1_555 1_555
H2_18 C5_18 1_555 1_555
N4_18 C2_18 1_555 1_555
N5_18 C4_18 1_555 1_555
H3_18 N5_18 1_555 1_555
H4_18 N5_18 1_555 1_555
O1_27 Zn1_18 1_555 1_555
C6_18 O2_18 1_555 1_555
O2_18 Zn1_18 1_555 1_555
O3_18 C6_18 1_555 1_555
C7_18 C6_18 1_555 1_555
C8_18 C7_18 1_555 1_555
H5_18 C8_18 1_555 1_555
C9_18 C8_18 1_555 1_555
H6_18 C9_18 1_555 1_555
C10_18 C9_18 1_555 1_555
C11_18 C10_18 1_555 1_555
H7_18 C11_18 1_555 1_555
C12_18 C7_18 1_555 1_555
H8_18 C12_18 1_555 1_555
H9_18 C15_18 1_555 1_555
C16_18 C15_18 1_555 1_555
H10_18 C16_18 1_555 1_555
C17_18 C10_18 1_555 1_555
Zn3_18 N4_18 1_555 1_555
Zn4_18 O8_18 1_555 1_555
Zn5_18 N6_18 1_555 1_555
Zn6_18 N3_18 1_555 1_555
Zn7_8 N8_18 1_555 1_555
N6_18 C27_18 1_555 1_555
C27_18 H17_18 1_555 1_555
N7_18 Zn3_18 1_555 1_555
C28_18 N7_18 1_555 1_555
C29_18 C28_18 1_555 1_555
C30_18 N6_18 1_555 1_555
N8_18 C29_18 1_555 1_555
N9_18 Zn8_8 1_555 1_555
N10_18 Zn5_18 1_555 1_555
C31_18 N8_18 1_555 1_555
H18_18 C31_18 1_555 1_555
N11_18 Zn1_18 1_555 1_555
N12_18 C30_18 1_555 1_555
H19_18 N12_18 1_555 1_555
H20_18 N12_18 1_555 1_555
C32_18 O8_18 1_555 1_555
O9_18 Zn3_18 1_555 1_555
O10_18 C32_18 1_555 1_555
C33_18 C32_18 1_555 1_555
C34_18 C33_18 1_555 1_555
H21_18 C34_18 1_555 1_555
C35_18 C34_18 1_555 1_555
H22_18 C35_18 1_555 1_555
C36_18 C35_18 1_555 1_555
C37_18 C36_18 1_555 1_555
H23_18 C37_18 1_555 1_555
C38_18 C33_18 1_555 1_555
H24_18 C38_18 1_555 1_555
C39_18 O11_18 1_555 1_555
O11_18 Zn8_8 1_555 1_555
O12_18 Zn5_18 1_555 1_555
O13_18 C39_18 1_555 1_555
C40_18 C39_18 1_555 1_555
C41_18 C40_18 1_555 1_555
H25_18 C41_18 1_555 1_555
C42_18 C41_18 1_555 1_555
H26_18 C42_18 1_555 1_555
C43_18 C36_18 1_555 1_555
C44_18 C43_18 1_555 1_555
H27_18 C44_18 1_555 1_555
C45_18 C40_18 1_555 1_555
H28_18 C45_18 1_555 1_555
O15_18 Zn5_18 1_555 1_555
C3_18 C4_18 1_555 1_555
C5_18 N4_18 1_555 1_555
O1_27 Zn3_18 1_555 1_555
C11_18 C12_18 1_555 1_555
C16_18 C17_18 1_555 1_555
C27_18 N7_18 1_555 1_555
C28_18 N11_18 1_555 1_555
C29_18 C30_18 1_555 1_555
C31_18 N11_18 1_555 1_555
C37_18 C38_18 1_555 1_555
C42_18 C43_18 1_555 1_555
C44_18 C45_18 1_555 1_555
Zn1_19 N2_19 1_555 1_555
Zn8_7 N1_19 1_555 1_555
N1_19 C1_19 1_555 1_555
C1_19 H1_19 1_555 1_555
N2_19 C1_19 1_555 1_555
C2_19 N2_19 1_555 1_555
C3_19 C2_19 1_555 1_555
C4_19 N1_19 1_555 1_555
N3_19 C3_19 1_555 1_555
C5_19 N3_19 1_555 1_555
H2_19 C5_19 1_555 1_555
N4_19 C2_19 1_555 1_555
N5_19 C4_19 1_555 1_555
H3_19 N5_19 1_555 1_555
H4_19 N5_19 1_555 1_555
O1_28 Zn1_19 1_555 1_555
C6_19 O2_19 1_555 1_555
O2_19 Zn1_19 1_555 1_555
O3_19 C6_19 1_555 1_555
C7_19 C6_19 1_555 1_555
C8_19 C7_19 1_555 1_555
H5_19 C8_19 1_555 1_555
C9_19 C8_19 1_555 1_555
H6_19 C9_19 1_555 1_555
C10_19 C9_19 1_555 1_555
C11_19 C10_19 1_555 1_555
H7_19 C11_19 1_555 1_555
C12_19 C7_19 1_555 1_555
H8_19 C12_19 1_555 1_555
C13_19 O4_19 1_555 1_555
O4_19 Zn9_7 1_555 1_555
O5_19 C13_19 1_555 1_555
C14_19 C13_19 1_555 1_555
C15_19 C14_19 1_555 1_555
H9_19 C15_19 1_555 1_555
C16_19 C15_19 1_555 1_555
H10_19 C16_19 1_555 1_555
C17_19 C10_19 1_555 1_555
C18_19 C17_19 1_555 1_555
H11_19 C18_19 1_555 1_555
C19_19 C14_19 1_555 1_555
H12_19 C19_19 1_555 1_555
Zn3_19 N4_19 1_555 1_555
Zn4_19 O8_19 1_555 1_555
Zn5_19 N6_19 1_555 1_555
Zn6_19 N3_19 1_555 1_555
Zn7_7 N8_19 1_555 1_555
N6_19 C27_19 1_555 1_555
C27_19 H17_19 1_555 1_555
N7_19 Zn3_19 1_555 1_555
C28_19 N7_19 1_555 1_555
C29_19 C28_19 1_555 1_555
C30_19 N6_19 1_555 1_555
N8_19 C29_19 1_555 1_555
N9_19 Zn8_7 1_555 1_555
N10_19 Zn5_19 1_555 1_555
C31_19 N8_19 1_555 1_555
H18_19 C31_19 1_555 1_555
N11_19 Zn1_19 1_555 1_555
N12_19 C30_19 1_555 1_555
H19_19 N12_19 1_555 1_555
H20_19 N12_19 1_555 1_555
C32_19 O8_19 1_555 1_555
O9_19 Zn3_19 1_555 1_555
O10_19 C32_19 1_555 1_555
C33_19 C32_19 1_555 1_555
C34_19 C33_19 1_555 1_555
H21_19 C34_19 1_555 1_555
C35_19 C34_19 1_555 1_555
H22_19 C35_19 1_555 1_555
C36_19 C35_19 1_555 1_555
C37_19 C36_19 1_555 1_555
H23_19 C37_19 1_555 1_555
C38_19 C33_19 1_555 1_555
H24_19 C38_19 1_555 1_555
C39_19 O11_19 1_555 1_555
O11_19 Zn8_7 1_555 1_555
O12_19 Zn5_19 1_555 1_555
O13_19 C39_19 1_555 1_555
C40_19 C39_19 1_555 1_555
C41_19 C40_19 1_555 1_555
H25_19 C41_19 1_555 1_555
C42_19 C41_19 1_555 1_555
H26_19 C42_19 1_555 1_555
C43_19 C36_19 1_555 1_555
C44_19 C43_19 1_555 1_555
H27_19 C44_19 1_555 1_555
C45_19 C40_19 1_555 1_555
H28_19 C45_19 1_555 1_555
O15_19 Zn5_19 1_555 1_555
C3_19 C4_19 1_555 1_555
C5_19 N4_19 1_555 1_555
O1_28 Zn3_19 1_555 1_555
C11_19 C12_19 1_555 1_555
C16_19 C17_19 1_555 1_555
C18_19 C19_19 1_555 1_555
C27_19 N7_19 1_555 1_555
C28_19 N11_19 1_555 1_555
C29_19 C30_19 1_555 1_555
C31_19 N11_19 1_555 1_555
C37_19 C38_19 1_555 1_555
C42_19 C43_19 1_555 1_555
C44_19 C45_19 1_555 1_555
C3_20 C2_20 1_555 1_555
N3_20 C3_20 1_555 1_555
C5_20 N3_20 1_555 1_555
H2_20 C5_20 1_555 1_555
N4_20 C2_20 1_555 1_555
N5_20 C4_20 1_555 1_555
H3_20 N5_20 1_555 1_555
H4_20 N5_20 1_555 1_555
Zn3_20 N4_20 1_555 1_555
Zn4_20 O8_20 1_555 1_555
Zn5_20 N6_20 1_555 1_555
Zn6_20 N3_20 1_555 1_555
N6_20 C27_20 1_555 1_555
C27_20 H17_20 1_555 1_555
N7_20 Zn3_20 1_555 1_555
N10_20 Zn5_20 1_555 1_555
C32_20 O8_20 1_555 1_555
O9_20 Zn3_20 1_555 1_555
O10_20 C32_20 1_555 1_555
C33_20 C32_20 1_555 1_555
C34_20 C33_20 1_555 1_555
H21_20 C34_20 1_555 1_555
C35_20 C34_20 1_555 1_555
H22_20 C35_20 1_555 1_555
C36_20 C35_20 1_555 1_555
C37_20 C36_20 1_555 1_555
H23_20 C37_20 1_555 1_555
C38_20 C33_20 1_555 1_555
H24_20 C38_20 1_555 1_555
O12_20 Zn5_20 1_555 1_555
H25_20 C41_20 1_555 1_555
C42_20 C41_20 1_555 1_555
H26_20 C42_20 1_555 1_555
C43_20 C36_20 1_555 1_555
O15_20 Zn5_20 1_555 1_555
C3_20 C4_20 1_555 1_555
C5_20 N4_20 1_555 1_555
O1_29 Zn3_20 1_555 1_555
C27_20 N7_20 1_555 1_555
C37_20 C38_20 1_555 1_555
C42_20 C43_20 1_555 1_555
Zn1_20 N2_20 1_555 1_555
Zn8_6 N1_20 1_555 1_555
N1_20 C1_20 1_555 1_555
C1_20 H1_20 1_555 1_555
N2_20 C1_20 1_555 1_555
O1_30 Zn1_20 1_555 1_555
C6_20 O2_20 1_555 1_555
O2_20 Zn1_20 1_555 1_555
O3_20 C6_20 1_555 1_555
C7_20 C6_20 1_555 1_555
C8_20 C7_20 1_555 1_555
H5_20 C8_20 1_555 1_555
C9_20 C8_20 1_555 1_555
H6_20 C9_20 1_555 1_555
C10_20 C9_20 1_555 1_555
C11_20 C10_20 1_555 1_555
H7_20 C11_20 1_555 1_555
C12_20 C7_20 1_555 1_555
H8_20 C12_20 1_555 1_555
H9_20 C15_20 1_555 1_555
C16_20 C15_20 1_555 1_555
H10_20 C16_20 1_555 1_555
C17_20 C10_20 1_555 1_555
Zn7_6 N8_20 1_555 1_555
C29_20 C28_20 1_555 1_555
N8_20 C29_20 1_555 1_555
N9_20 Zn8_6 1_555 1_555
C31_20 N8_20 1_555 1_555
H18_20 C31_20 1_555 1_555
N11_20 Zn1_20 1_555 1_555
N12_20 C30_20 1_555 1_555
H19_20 N12_20 1_555 1_555
H20_20 N12_20 1_555 1_555
C39_20 O11_20 1_555 1_555
O11_20 Zn8_6 1_555 1_555
O13_20 C39_20 1_555 1_555
C40_20 C39_20 1_555 1_555
H27_20 C44_20 1_555 1_555
C45_20 C40_20 1_555 1_555
H28_20 C45_20 1_555 1_555
C11_20 C12_20 1_555 1_555
C16_20 C17_20 1_555 1_555
C28_20 N11_20 1_555 1_555
C29_20 C30_20 1_555 1_555
C31_20 N11_20 1_555 1_555
C44_20 C45_20 1_555 1_555
C13_20 O4_20 1_555 1_555
O4_20 Zn9_6 1_555 1_555
O5_20 C13_20 1_555 1_555
C14_20 C13_20 1_555 1_555
H11_20 C18_20 1_555 1_555
C19_20 C14_20 1_555 1_555
H12_20 C19_20 1_555 1_555
C18_20 C19_20 1_555 1_555
C13_21 O4_21 1_555 1_555
O4_21 Zn9_4 1_555 1_555
O5_21 C13_21 1_555 1_555
C14_21 C13_21 1_555 1_555
H11_21 C18_21 1_555 1_555
C19_21 C14_21 1_555 1_555
H12_21 C19_21 1_555 1_555
C18_21 C19_21 1_555 1_555
Zn1_21 N2_21 1_555 1_555
Zn8_4 N1_21 1_555 1_555
N1_21 C1_21 1_555 1_555
C1_21 H1_21 1_555 1_555
N2_21 C1_21 1_555 1_555
C2_21 N2_21 1_555 1_555
C3_21 C2_21 1_555 1_555
C4_21 N1_21 1_555 1_555
N3_21 C3_21 1_555 1_555
C5_21 N3_21 1_555 1_555
H2_21 C5_21 1_555 1_555
N4_21 C2_21 1_555 1_555
N5_21 C4_21 1_555 1_555
H3_21 N5_21 1_555 1_555
H4_21 N5_21 1_555 1_555
O1_31 Zn1_21 1_555 1_555
C6_21 O2_21 1_555 1_555
O2_21 Zn1_21 1_555 1_555
O3_21 C6_21 1_555 1_555
C7_21 C6_21 1_555 1_555
C8_21 C7_21 1_555 1_555
H5_21 C8_21 1_555 1_555
C9_21 C8_21 1_555 1_555
H6_21 C9_21 1_555 1_555
C10_21 C9_21 1_555 1_555
C11_21 C10_21 1_555 1_555
H7_21 C11_21 1_555 1_555
C12_21 C7_21 1_555 1_555
H8_21 C12_21 1_555 1_555
H9_21 C15_21 1_555 1_555
C16_21 C15_21 1_555 1_555
H10_21 C16_21 1_555 1_555
C17_21 C10_21 1_555 1_555
Zn3_21 N4_21 1_555 1_555
Zn4_21 O8_21 1_555 1_555
Zn5_21 N6_21 1_555 1_555
Zn6_21 N3_21 1_555 1_555
Zn7_4 N8_21 1_555 1_555
N6_21 C27_21 1_555 1_555
C27_21 H17_21 1_555 1_555
N7_21 Zn3_21 1_555 1_555
C28_21 N7_21 1_555 1_555
C29_21 C28_21 1_555 1_555
C30_21 N6_21 1_555 1_555
N8_21 C29_21 1_555 1_555
N9_21 Zn8_4 1_555 1_555
N10_21 Zn5_21 1_555 1_555
C31_21 N8_21 1_555 1_555
H18_21 C31_21 1_555 1_555
N11_21 Zn1_21 1_555 1_555
N12_21 C30_21 1_555 1_555
H19_21 N12_21 1_555 1_555
H20_21 N12_21 1_555 1_555
C32_21 O8_21 1_555 1_555
O9_21 Zn3_21 1_555 1_555
O10_21 C32_21 1_555 1_555
C33_21 C32_21 1_555 1_555
C34_21 C33_21 1_555 1_555
H21_21 C34_21 1_555 1_555
C35_21 C34_21 1_555 1_555
H22_21 C35_21 1_555 1_555
C36_21 C35_21 1_555 1_555
C37_21 C36_21 1_555 1_555
H23_21 C37_21 1_555 1_555
C38_21 C33_21 1_555 1_555
H24_21 C38_21 1_555 1_555
C39_21 O11_21 1_555 1_555
O11_21 Zn8_4 1_555 1_555
O12_21 Zn5_21 1_555 1_555
O13_21 C39_21 1_555 1_555
C40_21 C39_21 1_555 1_555
C41_21 C40_21 1_555 1_555
H25_21 C41_21 1_555 1_555
C42_21 C41_21 1_555 1_555
H26_21 C42_21 1_555 1_555
C43_21 C36_21 1_555 1_555
C44_21 C43_21 1_555 1_555
H27_21 C44_21 1_555 1_555
C45_21 C40_21 1_555 1_555
H28_21 C45_21 1_555 1_555
O15_21 Zn5_21 1_555 1_555
C3_21 C4_21 1_555 1_555
C5_21 N4_21 1_555 1_555
O1_31 Zn3_21 1_555 1_555
C11_21 C12_21 1_555 1_555
C16_21 C17_21 1_555 1_555
C27_21 N7_21 1_555 1_555
C28_21 N11_21 1_555 1_555
C29_21 C30_21 1_555 1_555
C31_21 N11_21 1_555 1_555
C37_21 C38_21 1_555 1_555
C42_21 C43_21 1_555 1_555
C44_21 C45_21 1_555 1_555
Zn1_22 N2_22 1_555 1_555
Zn8 N1_22 1_555 1_555
N1_22 C1_22 1_555 1_555
C1_22 H1_22 1_555 1_555
N2_22 C1_22 1_555 1_555
O1_32 Zn1_22 1_555 1_555
C6_22 O2_22 1_555 1_555
O2_22 Zn1_22 1_555 1_555
O3_22 C6_22 1_555 1_555
C7_22 C6_22 1_555 1_555
C8_22 C7_22 1_555 1_555
H5_22 C8_22 1_555 1_555
C9_22 C8_22 1_555 1_555
H6_22 C9_22 1_555 1_555
C10_22 C9_22 1_555 1_555
C11_22 C10_22 1_555 1_555
H7_22 C11_22 1_555 1_555
C12_22 C7_22 1_555 1_555
H8_22 C12_22 1_555 1_555
C13_22 O4_22 1_555 1_555
O4_22 Zn9 1_555 1_555
O5_22 C13_22 1_555 1_555
C14_22 C13_22 1_555 1_555
C15_22 C14_22 1_555 1_555
H9_22 C15_22 1_555 1_555
C16_22 C15_22 1_555 1_555
H10_22 C16_22 1_555 1_555
C17_22 C10_22 1_555 1_555
C18_22 C17_22 1_555 1_555
H11_22 C18_22 1_555 1_555
C19_22 C14_22 1_555 1_555
H12_22 C19_22 1_555 1_555
Zn7 N8_22 1_555 1_555
C29_22 C28_22 1_555 1_555
N8_22 C29_22 1_555 1_555
N9_22 Zn8 1_555 1_555
C31_22 N8_22 1_555 1_555
H18_22 C31_22 1_555 1_555
N11_22 Zn1_22 1_555 1_555
N12_22 C30_22 1_555 1_555
H19_22 N12_22 1_555 1_555
H20_22 N12_22 1_555 1_555
C39_22 O11_22 1_555 1_555
O11_22 Zn8 1_555 1_555
O13_22 C39_22 1_555 1_555
C40_22 C39_22 1_555 1_555
H27_22 C44_22 1_555 1_555
C45_22 C40_22 1_555 1_555
H28_22 C45_22 1_555 1_555
C11_22 C12_22 1_555 1_555
C16_22 C17_22 1_555 1_555
C18_22 C19_22 1_555 1_555
C28_22 N11_22 1_555 1_555
C29_22 C30_22 1_555 1_555
C31_22 N11_22 1_555 1_555
C44_22 C45_22 1_555 1_555
C3_22 C2_22 1_555 1_555
N3_22 C3_22 1_555 1_555
C5_22 N3_22 1_555 1_555
H2_22 C5_22 1_555 1_555
N4_22 C2_22 1_555 1_555
N5_22 C4_22 1_555 1_555
H3_22 N5_22 1_555 1_555
H4_22 N5_22 1_555 1_555
Zn3_22 N4_22 1_555 1_555
Zn4_22 O8_22 1_555 1_555
Zn5_22 N6_22 1_555 1_555
Zn6_22 N3_22 1_555 1_555
N6_22 C27_22 1_555 1_555
C27_22 H17_22 1_555 1_555
N7_22 Zn3_22 1_555 1_555
N10_22 Zn5_22 1_555 1_555
C32_22 O8_22 1_555 1_555
O9_22 Zn3_22 1_555 1_555
O10_22 C32_22 1_555 1_555
C33_22 C32_22 1_555 1_555
C34_22 C33_22 1_555 1_555
H21_22 C34_22 1_555 1_555
C35_22 C34_22 1_555 1_555
H22_22 C35_22 1_555 1_555
C36_22 C35_22 1_555 1_555
C37_22 C36_22 1_555 1_555
H23_22 C37_22 1_555 1_555
C38_22 C33_22 1_555 1_555
H24_22 C38_22 1_555 1_555
O12_22 Zn5_22 1_555 1_555
H25_22 C41_22 1_555 1_555
C42_22 C41_22 1_555 1_555
H26_22 C42_22 1_555 1_555
C43_22 C36_22 1_555 1_555
O15_22 Zn5_22 1_555 1_555
C3_22 C4_22 1_555 1_555
C5_22 N4_22 1_555 1_555
O1_33 Zn3_22 1_555 1_555
C27_22 N7_22 1_555 1_555
C37_22 C38_22 1_555 1_555
C42_22 C43_22 1_555 1_555
C3_23 C2_23 1_555 1_555
N3_23 C3_23 1_555 1_555
C5_23 N3_23 1_555 1_555
H2_23 C5_23 1_555 1_555
N4_23 C2_23 1_555 1_555
N5_23 C4_23 1_555 1_555
H3_23 N5_23 1_555 1_555
H4_23 N5_23 1_555 1_555
Zn3_23 N4_23 1_555 1_555
Zn4_23 O8_23 1_555 1_555
Zn5_23 N6_23 1_555 1_555
Zn6_23 N3_23 1_555 1_555
N6_23 C27_23 1_555 1_555
C27_23 H17_23 1_555 1_555
N7_23 Zn3_23 1_555 1_555
N10_23 Zn5_23 1_555 1_555
C32_23 O8_23 1_555 1_555
O9_23 Zn3_23 1_555 1_555
O10_23 C32_23 1_555 1_555
C33_23 C32_23 1_555 1_555
C34_23 C33_23 1_555 1_555
H21_23 C34_23 1_555 1_555
C35_23 C34_23 1_555 1_555
H22_23 C35_23 1_555 1_555
C36_23 C35_23 1_555 1_555
C37_23 C36_23 1_555 1_555
H23_23 C37_23 1_555 1_555
C38_23 C33_23 1_555 1_555
H24_23 C38_23 1_555 1_555
O12_23 Zn5_23 1_555 1_555
H25_23 C41_23 1_555 1_555
C42_23 C41_23 1_555 1_555
H26_23 C42_23 1_555 1_555
C43_23 C36_23 1_555 1_555
O15_23 Zn5_23 1_555 1_555
C3_23 C4_23 1_555 1_555
C5_23 N4_23 1_555 1_555
O1_34 Zn3_23 1_555 1_555
C27_23 N7_23 1_555 1_555
C37_23 C38_23 1_555 1_555
C42_23 C43_23 1_555 1_555
Zn1_23 N2_23 1_555 1_555
Zn8_2 N1_23 1_555 1_555
N1_23 C1_23 1_555 1_555
C1_23 H1_23 1_555 1_555
N2_23 C1_23 1_555 1_555
O1_35 Zn1_23 1_555 1_555
C6_23 O2_23 1_555 1_555
O2_23 Zn1_23 1_555 1_555
O3_23 C6_23 1_555 1_555
C7_23 C6_23 1_555 1_555
C8_23 C7_23 1_555 1_555
H5_23 C8_23 1_555 1_555
C9_23 C8_23 1_555 1_555
H6_23 C9_23 1_555 1_555
C10_23 C9_23 1_555 1_555
C11_23 C10_23 1_555 1_555
H7_23 C11_23 1_555 1_555
C12_23 C7_23 1_555 1_555
H8_23 C12_23 1_555 1_555
H9_23 C15_23 1_555 1_555
C16_23 C15_23 1_555 1_555
H10_23 C16_23 1_555 1_555
C17_23 C10_23 1_555 1_555
Zn7_2 N8_23 1_555 1_555
C29_23 C28_23 1_555 1_555
N8_23 C29_23 1_555 1_555
N9_23 Zn8_2 1_555 1_555
C31_23 N8_23 1_555 1_555
H18_23 C31_23 1_555 1_555
N11_23 Zn1_23 1_555 1_555
N12_23 C30_23 1_555 1_555
H19_23 N12_23 1_555 1_555
H20_23 N12_23 1_555 1_555
C39_23 O11_23 1_555 1_555
O11_23 Zn8_2 1_555 1_555
O13_23 C39_23 1_555 1_555
C40_23 C39_23 1_555 1_555
H27_23 C44_23 1_555 1_555
C45_23 C40_23 1_555 1_555
H28_23 C45_23 1_555 1_555
C11_23 C12_23 1_555 1_555
C16_23 C17_23 1_555 1_555
C28_23 N11_23 1_555 1_555
C29_23 C30_23 1_555 1_555
C31_23 N11_23 1_555 1_555
C44_23 C45_23 1_555 1_555
C13_23 O4_23 1_555 1_555
O4_23 Zn9_2 1_555 1_555
O5_23 C13_23 1_555 1_555
C14_23 C13_23 1_555 1_555
H11_23 C18_23 1_555 1_555
C19_23 C14_23 1_555 1_555
H12_23 C19_23 1_555 1_555
C18_23 C19_23 1_555 1_555
Zn1_24 N2_24 1_555 1_555
Zn8_3 N1_24 1_555 1_555
N1_24 C1_24 1_555 1_555
C1_24 H1_24 1_555 1_555
N2_24 C1_24 1_555 1_555
C2_24 N2_24 1_555 1_555
C3_24 C2_24 1_555 1_555
C4_24 N1_24 1_555 1_555
N3_24 C3_24 1_555 1_555
C5_24 N3_24 1_555 1_555
H2_24 C5_24 1_555 1_555
N4_24 C2_24 1_555 1_555
N5_24 C4_24 1_555 1_555
H3_24 N5_24 1_555 1_555
H4_24 N5_24 1_555 1_555
O1_36 Zn1_24 1_555 1_555
C6_24 O2_24 1_555 1_555
O2_24 Zn1_24 1_555 1_555
O3_24 C6_24 1_555 1_555
C7_24 C6_24 1_555 1_555
C8_24 C7_24 1_555 1_555
H5_24 C8_24 1_555 1_555
C9_24 C8_24 1_555 1_555
H6_24 C9_24 1_555 1_555
C10_24 C9_24 1_555 1_555
C11_24 C10_24 1_555 1_555
H7_24 C11_24 1_555 1_555
C12_24 C7_24 1_555 1_555
H8_24 C12_24 1_555 1_555
C13_24 O4_24 1_555 1_555
O4_24 Zn9_3 1_555 1_555
O5_24 C13_24 1_555 1_555
C14_24 C13_24 1_555 1_555
C15_24 C14_24 1_555 1_555
H9_24 C15_24 1_555 1_555
C16_24 C15_24 1_555 1_555
H10_24 C16_24 1_555 1_555
C17_24 C10_24 1_555 1_555
C18_24 C17_24 1_555 1_555
H11_24 C18_24 1_555 1_555
C19_24 C14_24 1_555 1_555
H12_24 C19_24 1_555 1_555
Zn3_24 N4_24 1_555 1_555
Zn4_24 O8_24 1_555 1_555
Zn5_24 N6_24 1_555 1_555
Zn6_24 N3_24 1_555 1_555
Zn7_3 N8_24 1_555 1_555
N6_24 C27_24 1_555 1_555
C27_24 H17_24 1_555 1_555
N7_24 Zn3_24 1_555 1_555
C28_24 N7_24 1_555 1_555
C29_24 C28_24 1_555 1_555
C30_24 N6_24 1_555 1_555
N8_24 C29_24 1_555 1_555
N9_24 Zn8_3 1_555 1_555
N10_24 Zn5_24 1_555 1_555
C31_24 N8_24 1_555 1_555
H18_24 C31_24 1_555 1_555
N11_24 Zn1_24 1_555 1_555
N12_24 C30_24 1_555 1_555
H19_24 N12_24 1_555 1_555
H20_24 N12_24 1_555 1_555
C32_24 O8_24 1_555 1_555
O9_24 Zn3_24 1_555 1_555
O10_24 C32_24 1_555 1_555
C33_24 C32_24 1_555 1_555
C34_24 C33_24 1_555 1_555
H21_24 C34_24 1_555 1_555
C35_24 C34_24 1_555 1_555
H22_24 C35_24 1_555 1_555
C36_24 C35_24 1_555 1_555
C37_24 C36_24 1_555 1_555
H23_24 C37_24 1_555 1_555
C38_24 C33_24 1_555 1_555
H24_24 C38_24 1_555 1_555
C39_24 O11_24 1_555 1_555
O11_24 Zn8_3 1_555 1_555
O12_24 Zn5_24 1_555 1_555
O13_24 C39_24 1_555 1_555
C40_24 C39_24 1_555 1_555
C41_24 C40_24 1_555 1_555
H25_24 C41_24 1_555 1_555
C42_24 C41_24 1_555 1_555
H26_24 C42_24 1_555 1_555
C43_24 C36_24 1_555 1_555
C44_24 C43_24 1_555 1_555
H27_24 C44_24 1_555 1_555
C45_24 C40_24 1_555 1_555
H28_24 C45_24 1_555 1_555
O15_24 Zn5_24 1_555 1_555
C3_24 C4_24 1_555 1_555
C5_24 N4_24 1_555 1_555
O1_36 Zn3_24 1_555 1_555
C11_24 C12_24 1_555 1_555
C16_24 C17_24 1_555 1_555
C18_24 C19_24 1_555 1_555
C27_24 N7_24 1_555 1_555
C28_24 N11_24 1_555 1_555
C29_24 C30_24 1_555 1_555
C31_24 N11_24 1_555 1_555
C37_24 C38_24 1_555 1_555
C42_24 C43_24 1_555 1_555
C44_24 C45_24 1_555 1_555
C6_25 O9_2 1_555 1_555
O3_25 C6_25 1_555 1_555
C7_25 C6_25 1_555 1_555
C8_25 C7_25 1_555 1_555
H5_25 C8_25 1_555 1_555
C9_25 C8_25 1_555 1_555
H6_25 C9_25 1_555 1_555
C10_25 C9_25 1_555 1_555
C11_25 C10_25 1_555 1_555
H7_25 C11_25 1_555 1_555
C12_25 C7_25 1_555 1_555
H8_25 C12_25 1_555 1_555
C13_25 O4_25 1_555 1_555
O4_25 Zn6_21 1_555 1_555
O5_25 C13_25 1_555 1_555
C14_25 C13_25 1_555 1_555
C15_25 C14_25 1_555 1_555
H9_25 C15_25 1_555 1_555
C16_25 C15_25 1_555 1_555
H10_25 C16_25 1_555 1_555
C17_25 C10_25 1_555 1_555
C18_25 C17_25 1_555 1_555
H11_25 C18_25 1_555 1_555
C19_25 C14_25 1_555 1_555
H12_25 C19_25 1_555 1_555
C20_13 O15_2 1_555 1_555
O7_13 C20_13 1_555 1_555
C21_13 C20_13 1_555 1_555
C22_13 C21_13 1_555 1_555
H13_13 C22_13 1_555 1_555
C23_13 C22_13 1_555 1_555
H14_13 C23_13 1_555 1_555
C24_13 C23_13 1_555 1_555
C25_13 C24_13 1_555 1_555
H15_13 C25_13 1_555 1_555
C26_13 C21_13 1_555 1_555
H16_13 C26_13 1_555 1_555
Zn4_25 O8_25 1_555 1_555
C32_25 O8_25 1_555 1_555
O10_25 C32_25 1_555 1_555
C33_25 C32_25 1_555 1_555
C34_25 C33_25 1_555 1_555
H21_25 C34_25 1_555 1_555
C35_25 C34_25 1_555 1_555
H22_25 C35_25 1_555 1_555
C36_25 C35_25 1_555 1_555
C37_25 C36_25 1_555 1_555
H23_25 C37_25 1_555 1_555
C38_25 C33_25 1_555 1_555
H24_25 C38_25 1_555 1_555
C39_25 O12_2 1_555 1_555
O13_25 C39_25 1_555 1_555
C40_25 C39_25 1_555 1_555
C41_25 C40_25 1_555 1_555
H25_25 C41_25 1_555 1_555
C42_25 C41_25 1_555 1_555
H26_25 C42_25 1_555 1_555
C43_25 C36_25 1_555 1_555
C44_25 C43_25 1_555 1_555
H27_25 C44_25 1_555 1_555
C45_25 C40_25 1_555 1_555
H28_25 C45_25 1_555 1_555
C46_13 O15_21 1_555 1_555
O16_13 C46_13 1_555 1_555
C47_13 C46_13 1_555 1_555
C48_13 C47_13 1_555 1_555
H29_13 C48_13 1_555 1_555
C49_13 C48_13 1_555 1_555
H30_13 C49_13 1_555 1_555
C50_13 C24_13 1_555 1_555
C51_13 C50_13 1_555 1_555
H31_13 C51_13 1_555 1_555
C52_13 C47_13 1_555 1_555
H32_13 C52_13 1_555 1_555
C11_25 C12_25 1_555 1_555
C16_25 C17_25 1_555 1_555
C18_25 C19_25 1_555 1_555
C25_13 C26_13 1_555 1_555
C37_25 C38_25 1_555 1_555
C42_25 C43_25 1_555 1_555
C44_25 C45_25 1_555 1_555
C49_13 C50_13 1_555 1_555
C51_13 C52_13 1_555 1_555
C6_26 O9 1_555 1_555
O3_26 C6_26 1_555 1_555
C7_26 C6_26 1_555 1_555
C8_26 C7_26 1_555 1_555
H5_26 C8_26 1_555 1_555
C9_26 C8_26 1_555 1_555
H6_26 C9_26 1_555 1_555
C10_26 C9_26 1_555 1_555
C11_26 C10_26 1_555 1_555
H7_26 C11_26 1_555 1_555
C12_26 C7_26 1_555 1_555
H8_26 C12_26 1_555 1_555
C13_26 O4_26 1_555 1_555
O4_26 Zn6_24 1_555 1_555
O5_26 C13_26 1_555 1_555
C14_26 C13_26 1_555 1_555
C15_26 C14_26 1_555 1_555
H9_26 C15_26 1_555 1_555
C16_26 C15_26 1_555 1_555
H10_26 C16_26 1_555 1_555
C17_26 C10_26 1_555 1_555
C18_26 C17_26 1_555 1_555
H11_26 C18_26 1_555 1_555
C19_26 C14_26 1_555 1_555
H12_26 C19_26 1_555 1_555
C20_14 O15 1_555 1_555
O7_14 C20_14 1_555 1_555
C21_14 C20_14 1_555 1_555
C22_14 C21_14 1_555 1_555
H13_14 C22_14 1_555 1_555
C23_14 C22_14 1_555 1_555
H14_14 C23_14 1_555 1_555
C24_14 C23_14 1_555 1_555
C25_14 C24_14 1_555 1_555
H15_14 C25_14 1_555 1_555
C26_14 C21_14 1_555 1_555
H16_14 C26_14 1_555 1_555
Zn4_26 O8_26 1_555 1_555
C32_26 O8_26 1_555 1_555
O10_26 C32_26 1_555 1_555
C33_26 C32_26 1_555 1_555
C34_26 C33_26 1_555 1_555
H21_26 C34_26 1_555 1_555
C35_26 C34_26 1_555 1_555
H22_26 C35_26 1_555 1_555
C36_26 C35_26 1_555 1_555
C37_26 C36_26 1_555 1_555
H23_26 C37_26 1_555 1_555
C38_26 C33_26 1_555 1_555
H24_26 C38_26 1_555 1_555
C39_26 O12 1_555 1_555
O13_26 C39_26 1_555 1_555
C40_26 C39_26 1_555 1_555
C41_26 C40_26 1_555 1_555
H25_26 C41_26 1_555 1_555
C42_26 C41_26 1_555 1_555
H26_26 C42_26 1_555 1_555
C43_26 C36_26 1_555 1_555
C44_26 C43_26 1_555 1_555
H27_26 C44_26 1_555 1_555
C45_26 C40_26 1_555 1_555
H28_26 C45_26 1_555 1_555
C46_14 O15_24 1_555 1_555
O16_14 C46_14 1_555 1_555
C47_14 C46_14 1_555 1_555
C48_14 C47_14 1_555 1_555
H29_14 C48_14 1_555 1_555
C49_14 C48_14 1_555 1_555
H30_14 C49_14 1_555 1_555
C50_14 C24_14 1_555 1_555
C51_14 C50_14 1_555 1_555
H31_14 C51_14 1_555 1_555
C52_14 C47_14 1_555 1_555
H32_14 C52_14 1_555 1_555
C11_26 C12_26 1_555 1_555
C16_26 C17_26 1_555 1_555
C18_26 C19_26 1_555 1_555
C25_14 C26_14 1_555 1_555
C37_26 C38_26 1_555 1_555
C42_26 C43_26 1_555 1_555
C44_26 C45_26 1_555 1_555
C49_14 C50_14 1_555 1_555
C51_14 C52_14 1_555 1_555
C6_27 O9_4 1_555 1_555
O3_27 C6_27 1_555 1_555
C7_27 C6_27 1_555 1_555
C8_27 C7_27 1_555 1_555
H5_27 C8_27 1_555 1_555
C9_27 C8_27 1_555 1_555
H6_27 C9_27 1_555 1_555
C10_27 C9_27 1_555 1_555
C11_27 C10_27 1_555 1_555
H7_27 C11_27 1_555 1_555
C12_27 C7_27 1_555 1_555
H8_27 C12_27 1_555 1_555
C13_27 O4_27 1_555 1_555
O4_27 Zn6_23 1_555 1_555
O5_27 C13_27 1_555 1_555
C14_27 C13_27 1_555 1_555
C15_27 C14_27 1_555 1_555
H9_27 C15_27 1_555 1_555
C16_27 C15_27 1_555 1_555
H10_27 C16_27 1_555 1_555
C17_27 C10_27 1_555 1_555
C18_27 C17_27 1_555 1_555
H11_27 C18_27 1_555 1_555
C19_27 C14_27 1_555 1_555
H12_27 C19_27 1_555 1_555
C20_15 O15_4 1_555 1_555
O7_15 C20_15 1_555 1_555
C21_15 C20_15 1_555 1_555
C22_15 C21_15 1_555 1_555
H13_15 C22_15 1_555 1_555
C23_15 C22_15 1_555 1_555
H14_15 C23_15 1_555 1_555
C24_15 C23_15 1_555 1_555
C25_15 C24_15 1_555 1_555
H15_15 C25_15 1_555 1_555
C26_15 C21_15 1_555 1_555
H16_15 C26_15 1_555 1_555
Zn4_27 O8_27 1_555 1_555
C32_27 O8_27 1_555 1_555
O10_27 C32_27 1_555 1_555
C33_27 C32_27 1_555 1_555
C34_27 C33_27 1_555 1_555
H21_27 C34_27 1_555 1_555
C35_27 C34_27 1_555 1_555
H22_27 C35_27 1_555 1_555
C36_27 C35_27 1_555 1_555
C37_27 C36_27 1_555 1_555
H23_27 C37_27 1_555 1_555
C38_27 C33_27 1_555 1_555
H24_27 C38_27 1_555 1_555
C39_27 O12_4 1_555 1_555
O13_27 C39_27 1_555 1_555
C40_27 C39_27 1_555 1_555
C41_27 C40_27 1_555 1_555
H25_27 C41_27 1_555 1_555
C42_27 C41_27 1_555 1_555
H26_27 C42_27 1_555 1_555
C43_27 C36_27 1_555 1_555
C44_27 C43_27 1_555 1_555
H27_27 C44_27 1_555 1_555
C45_27 C40_27 1_555 1_555
H28_27 C45_27 1_555 1_555
C46_15 O15_23 1_555 1_555
O16_15 C46_15 1_555 1_555
C47_15 C46_15 1_555 1_555
C48_15 C47_15 1_555 1_555
H29_15 C48_15 1_555 1_555
C49_15 C48_15 1_555 1_555
H30_15 C49_15 1_555 1_555
C50_15 C24_15 1_555 1_555
C51_15 C50_15 1_555 1_555
H31_15 C51_15 1_555 1_555
C52_15 C47_15 1_555 1_555
H32_15 C52_15 1_555 1_555
C11_27 C12_27 1_555 1_555
C16_27 C17_27 1_555 1_555
C18_27 C19_27 1_555 1_555
C25_15 C26_15 1_555 1_555
C37_27 C38_27 1_555 1_555
C42_27 C43_27 1_555 1_555
C44_27 C45_27 1_555 1_555
C49_15 C50_15 1_555 1_555
C51_15 C52_15 1_555 1_555
C6_28 O9_3 1_555 1_555
O3_28 C6_28 1_555 1_555
C7_28 C6_28 1_555 1_555
C8_28 C7_28 1_555 1_555
H5_28 C8_28 1_555 1_555
C9_28 C8_28 1_555 1_555
H6_28 C9_28 1_555 1_555
C10_28 C9_28 1_555 1_555
C11_28 C10_28 1_555 1_555
H7_28 C11_28 1_555 1_555
C12_28 C7_28 1_555 1_555
H8_28 C12_28 1_555 1_555
C13_28 O4_28 1_555 1_555
O4_28 Zn6_22 1_555 1_555
O5_28 C13_28 1_555 1_555
C14_28 C13_28 1_555 1_555
C15_28 C14_28 1_555 1_555
H9_28 C15_28 1_555 1_555
C16_28 C15_28 1_555 1_555
H10_28 C16_28 1_555 1_555
C17_28 C10_28 1_555 1_555
C18_28 C17_28 1_555 1_555
H11_28 C18_28 1_555 1_555
C19_28 C14_28 1_555 1_555
H12_28 C19_28 1_555 1_555
C20_16 O15_3 1_555 1_555
O7_16 C20_16 1_555 1_555
C21_16 C20_16 1_555 1_555
C22_16 C21_16 1_555 1_555
H13_16 C22_16 1_555 1_555
C23_16 C22_16 1_555 1_555
H14_16 C23_16 1_555 1_555
C24_16 C23_16 1_555 1_555
C25_16 C24_16 1_555 1_555
H15_16 C25_16 1_555 1_555
C26_16 C21_16 1_555 1_555
H16_16 C26_16 1_555 1_555
Zn4_28 O8_28 1_555 1_555
C32_28 O8_28 1_555 1_555
O10_28 C32_28 1_555 1_555
C33_28 C32_28 1_555 1_555
C34_28 C33_28 1_555 1_555
H21_28 C34_28 1_555 1_555
C35_28 C34_28 1_555 1_555
H22_28 C35_28 1_555 1_555
C36_28 C35_28 1_555 1_555
C37_28 C36_28 1_555 1_555
H23_28 C37_28 1_555 1_555
C38_28 C33_28 1_555 1_555
H24_28 C38_28 1_555 1_555
C39_28 O12_3 1_555 1_555
O13_28 C39_28 1_555 1_555
C40_28 C39_28 1_555 1_555
C41_28 C40_28 1_555 1_555
H25_28 C41_28 1_555 1_555
C42_28 C41_28 1_555 1_555
H26_28 C42_28 1_555 1_555
C43_28 C36_28 1_555 1_555
C44_28 C43_28 1_555 1_555
H27_28 C44_28 1_555 1_555
C45_28 C40_28 1_555 1_555
H28_28 C45_28 1_555 1_555
C46_16 O15_22 1_555 1_555
O16_16 C46_16 1_555 1_555
C47_16 C46_16 1_555 1_555
C48_16 C47_16 1_555 1_555
H29_16 C48_16 1_555 1_555
C49_16 C48_16 1_555 1_555
H30_16 C49_16 1_555 1_555
C50_16 C24_16 1_555 1_555
C51_16 C50_16 1_555 1_555
H31_16 C51_16 1_555 1_555
C52_16 C47_16 1_555 1_555
H32_16 C52_16 1_555 1_555
C11_28 C12_28 1_555 1_555
C16_28 C17_28 1_555 1_555
C18_28 C19_28 1_555 1_555
C25_16 C26_16 1_555 1_555
C37_28 C38_28 1_555 1_555
C42_28 C43_28 1_555 1_555
C44_28 C45_28 1_555 1_555
C49_16 C50_16 1_555 1_555
C51_16 C52_16 1_555 1_555
C6_29 O9_6 1_555 1_555
O3_29 C6_29 1_555 1_555
C7_29 C6_29 1_555 1_555
C8_29 C7_29 1_555 1_555
H5_29 C8_29 1_555 1_555
C9_29 C8_29 1_555 1_555
H6_29 C9_29 1_555 1_555
C10_29 C9_29 1_555 1_555
C11_29 C10_29 1_555 1_555
H7_29 C11_29 1_555 1_555
C12_29 C7_29 1_555 1_555
H8_29 C12_29 1_555 1_555
C13_29 O4_29 1_555 1_555
O4_29 Zn6_18 1_555 1_555
O5_29 C13_29 1_555 1_555
C14_29 C13_29 1_555 1_555
C15_29 C14_29 1_555 1_555
H9_29 C15_29 1_555 1_555
C16_29 C15_29 1_555 1_555
H10_29 C16_29 1_555 1_555
C17_29 C10_29 1_555 1_555
C18_29 C17_29 1_555 1_555
H11_29 C18_29 1_555 1_555
C19_29 C14_29 1_555 1_555
H12_29 C19_29 1_555 1_555
C20_17 O15_6 1_555 1_555
O7_17 C20_17 1_555 1_555
C21_17 C20_17 1_555 1_555
C22_17 C21_17 1_555 1_555
H13_17 C22_17 1_555 1_555
C23_17 C22_17 1_555 1_555
H14_17 C23_17 1_555 1_555
C24_17 C23_17 1_555 1_555
C25_17 C24_17 1_555 1_555
H15_17 C25_17 1_555 1_555
C26_17 C21_17 1_555 1_555
H16_17 C26_17 1_555 1_555
Zn4_29 O8_29 1_555 1_555
C32_29 O8_29 1_555 1_555
O10_29 C32_29 1_555 1_555
C33_29 C32_29 1_555 1_555
C34_29 C33_29 1_555 1_555
H21_29 C34_29 1_555 1_555
C35_29 C34_29 1_555 1_555
H22_29 C35_29 1_555 1_555
C36_29 C35_29 1_555 1_555
C37_29 C36_29 1_555 1_555
H23_29 C37_29 1_555 1_555
C38_29 C33_29 1_555 1_555
H24_29 C38_29 1_555 1_555
C39_29 O12_6 1_555 1_555
O13_29 C39_29 1_555 1_555
C40_29 C39_29 1_555 1_555
C41_29 C40_29 1_555 1_555
H25_29 C41_29 1_555 1_555
C42_29 C41_29 1_555 1_555
H26_29 C42_29 1_555 1_555
C43_29 C36_29 1_555 1_555
C44_29 C43_29 1_555 1_555
H27_29 C44_29 1_555 1_555
C45_29 C40_29 1_555 1_555
H28_29 C45_29 1_555 1_555
C46_17 O15_18 1_555 1_555
O16_17 C46_17 1_555 1_555
C47_17 C46_17 1_555 1_555
C48_17 C47_17 1_555 1_555
H29_17 C48_17 1_555 1_555
C49_17 C48_17 1_555 1_555
H30_17 C49_17 1_555 1_555
C50_17 C24_17 1_555 1_555
C51_17 C50_17 1_555 1_555
H31_17 C51_17 1_555 1_555
C52_17 C47_17 1_555 1_555
H32_17 C52_17 1_555 1_555
C11_29 C12_29 1_555 1_555
C16_29 C17_29 1_555 1_555
C18_29 C19_29 1_555 1_555
C25_17 C26_17 1_555 1_555
C37_29 C38_29 1_555 1_555
C42_29 C43_29 1_555 1_555
C44_29 C45_29 1_555 1_555
C49_17 C50_17 1_555 1_555
C51_17 C52_17 1_555 1_555
C6_30 O9_5 1_555 1_555
O3_30 C6_30 1_555 1_555
C7_30 C6_30 1_555 1_555
C8_30 C7_30 1_555 1_555
H5_30 C8_30 1_555 1_555
C9_30 C8_30 1_555 1_555
H6_30 C9_30 1_555 1_555
C10_30 C9_30 1_555 1_555
C11_30 C10_30 1_555 1_555
H7_30 C11_30 1_555 1_555
C12_30 C7_30 1_555 1_555
H8_30 C12_30 1_555 1_555
C13_30 O4_30 1_555 1_555
O4_30 Zn6_19 1_555 1_555
O5_30 C13_30 1_555 1_555
C14_30 C13_30 1_555 1_555
C15_30 C14_30 1_555 1_555
H9_30 C15_30 1_555 1_555
C16_30 C15_30 1_555 1_555
H10_30 C16_30 1_555 1_555
C17_30 C10_30 1_555 1_555
C18_30 C17_30 1_555 1_555
H11_30 C18_30 1_555 1_555
C19_30 C14_30 1_555 1_555
H12_30 C19_30 1_555 1_555
C20_18 O15_5 1_555 1_555
O7_18 C20_18 1_555 1_555
C21_18 C20_18 1_555 1_555
C22_18 C21_18 1_555 1_555
H13_18 C22_18 1_555 1_555
C23_18 C22_18 1_555 1_555
H14_18 C23_18 1_555 1_555
C24_18 C23_18 1_555 1_555
C25_18 C24_18 1_555 1_555
H15_18 C25_18 1_555 1_555
C26_18 C21_18 1_555 1_555
H16_18 C26_18 1_555 1_555
Zn4_30 O8_30 1_555 1_555
C32_30 O8_30 1_555 1_555
O10_30 C32_30 1_555 1_555
C33_30 C32_30 1_555 1_555
C34_30 C33_30 1_555 1_555
H21_30 C34_30 1_555 1_555
C35_30 C34_30 1_555 1_555
H22_30 C35_30 1_555 1_555
C36_30 C35_30 1_555 1_555
C37_30 C36_30 1_555 1_555
H23_30 C37_30 1_555 1_555
C38_30 C33_30 1_555 1_555
H24_30 C38_30 1_555 1_555
C39_30 O12_5 1_555 1_555
O13_30 C39_30 1_555 1_555
C40_30 C39_30 1_555 1_555
C41_30 C40_30 1_555 1_555
H25_30 C41_30 1_555 1_555
C42_30 C41_30 1_555 1_555
H26_30 C42_30 1_555 1_555
C43_30 C36_30 1_555 1_555
C44_30 C43_30 1_555 1_555
H27_30 C44_30 1_555 1_555
C45_30 C40_30 1_555 1_555
H28_30 C45_30 1_555 1_555
C46_18 O15_19 1_555 1_555
O16_18 C46_18 1_555 1_555
C47_18 C46_18 1_555 1_555
C48_18 C47_18 1_555 1_555
H29_18 C48_18 1_555 1_555
C49_18 C48_18 1_555 1_555
H30_18 C49_18 1_555 1_555
C50_18 C24_18 1_555 1_555
C51_18 C50_18 1_555 1_555
H31_18 C51_18 1_555 1_555
C52_18 C47_18 1_555 1_555
H32_18 C52_18 1_555 1_555
C11_30 C12_30 1_555 1_555
C16_30 C17_30 1_555 1_555
C18_30 C19_30 1_555 1_555
C25_18 C26_18 1_555 1_555
C37_30 C38_30 1_555 1_555
C42_30 C43_30 1_555 1_555
C44_30 C45_30 1_555 1_555
C49_18 C50_18 1_555 1_555
C51_18 C52_18 1_555 1_555
C6_31 O9_8 1_555 1_555
O3_31 C6_31 1_555 1_555
C7_31 C6_31 1_555 1_555
C8_31 C7_31 1_555 1_555
H5_31 C8_31 1_555 1_555
C9_31 C8_31 1_555 1_555
H6_31 C9_31 1_555 1_555
C10_31 C9_31 1_555 1_555
C11_31 C10_31 1_555 1_555
H7_31 C11_31 1_555 1_555
C12_31 C7_31 1_555 1_555
H8_31 C12_31 1_555 1_555
C13_31 O4_31 1_555 1_555
O4_31 Zn6_20 1_555 1_555
O5_31 C13_31 1_555 1_555
C14_31 C13_31 1_555 1_555
C15_31 C14_31 1_555 1_555
H9_31 C15_31 1_555 1_555
C16_31 C15_31 1_555 1_555
H10_31 C16_31 1_555 1_555
C17_31 C10_31 1_555 1_555
C18_31 C17_31 1_555 1_555
H11_31 C18_31 1_555 1_555
C19_31 C14_31 1_555 1_555
H12_31 C19_31 1_555 1_555
C20_19 O15_8 1_555 1_555
O7_19 C20_19 1_555 1_555
C21_19 C20_19 1_555 1_555
C22_19 C21_19 1_555 1_555
H13_19 C22_19 1_555 1_555
C23_19 C22_19 1_555 1_555
H14_19 C23_19 1_555 1_555
C24_19 C23_19 1_555 1_555
C25_19 C24_19 1_555 1_555
H15_19 C25_19 1_555 1_555
C26_19 C21_19 1_555 1_555
H16_19 C26_19 1_555 1_555
Zn4_31 O8_31 1_555 1_555
C32_31 O8_31 1_555 1_555
O10_31 C32_31 1_555 1_555
C33_31 C32_31 1_555 1_555
C34_31 C33_31 1_555 1_555
H21_31 C34_31 1_555 1_555
C35_31 C34_31 1_555 1_555
H22_31 C35_31 1_555 1_555
C36_31 C35_31 1_555 1_555
C37_31 C36_31 1_555 1_555
H23_31 C37_31 1_555 1_555
C38_31 C33_31 1_555 1_555
H24_31 C38_31 1_555 1_555
C39_31 O12_8 1_555 1_555
O13_31 C39_31 1_555 1_555
C40_31 C39_31 1_555 1_555
C41_31 C40_31 1_555 1_555
H25_31 C41_31 1_555 1_555
C42_31 C41_31 1_555 1_555
H26_31 C42_31 1_555 1_555
C43_31 C36_31 1_555 1_555
C44_31 C43_31 1_555 1_555
H27_31 C44_31 1_555 1_555
C45_31 C40_31 1_555 1_555
H28_31 C45_31 1_555 1_555
C46_19 O15_20 1_555 1_555
O16_19 C46_19 1_555 1_555
C47_19 C46_19 1_555 1_555
C48_19 C47_19 1_555 1_555
H29_19 C48_19 1_555 1_555
C49_19 C48_19 1_555 1_555
H30_19 C49_19 1_555 1_555
C50_19 C24_19 1_555 1_555
C51_19 C50_19 1_555 1_555
H31_19 C51_19 1_555 1_555
C52_19 C47_19 1_555 1_555
H32_19 C52_19 1_555 1_555
C11_31 C12_31 1_555 1_555
C16_31 C17_31 1_555 1_555
C18_31 C19_31 1_555 1_555
C25_19 C26_19 1_555 1_555
C37_31 C38_31 1_555 1_555
C42_31 C43_31 1_555 1_555
C44_31 C45_31 1_555 1_555
C49_19 C50_19 1_555 1_555
C51_19 C52_19 1_555 1_555
C6_32 O9_7 1_555 1_555
O3_32 C6_32 1_555 1_555
C7_32 C6_32 1_555 1_555
C8_32 C7_32 1_555 1_555
H5_32 C8_32 1_555 1_555
C9_32 C8_32 1_555 1_555
H6_32 C9_32 1_555 1_555
C10_32 C9_32 1_555 1_555
C11_32 C10_32 1_555 1_555
H7_32 C11_32 1_555 1_555
C12_32 C7_32 1_555 1_555
H8_32 C12_32 1_555 1_555
C13_32 O4_32 1_555 1_555
O4_32 Zn6_17 1_555 1_555
O5_32 C13_32 1_555 1_555
C14_32 C13_32 1_555 1_555
C15_32 C14_32 1_555 1_555
H9_32 C15_32 1_555 1_555
C16_32 C15_32 1_555 1_555
H10_32 C16_32 1_555 1_555
C17_32 C10_32 1_555 1_555
C18_32 C17_32 1_555 1_555
H11_32 C18_32 1_555 1_555
C19_32 C14_32 1_555 1_555
H12_32 C19_32 1_555 1_555
C20_20 O15_7 1_555 1_555
O7_20 C20_20 1_555 1_555
C21_20 C20_20 1_555 1_555
C22_20 C21_20 1_555 1_555
H13_20 C22_20 1_555 1_555
C23_20 C22_20 1_555 1_555
H14_20 C23_20 1_555 1_555
C24_20 C23_20 1_555 1_555
C25_20 C24_20 1_555 1_555
H15_20 C25_20 1_555 1_555
C26_20 C21_20 1_555 1_555
H16_20 C26_20 1_555 1_555
Zn4_32 O8_32 1_555 1_555
C32_32 O8_32 1_555 1_555
O10_32 C32_32 1_555 1_555
C33_32 C32_32 1_555 1_555
C34_32 C33_32 1_555 1_555
H21_32 C34_32 1_555 1_555
C35_32 C34_32 1_555 1_555
H22_32 C35_32 1_555 1_555
C36_32 C35_32 1_555 1_555
C37_32 C36_32 1_555 1_555
H23_32 C37_32 1_555 1_555
C38_32 C33_32 1_555 1_555
H24_32 C38_32 1_555 1_555
C39_32 O12_7 1_555 1_555
O13_32 C39_32 1_555 1_555
C40_32 C39_32 1_555 1_555
C41_32 C40_32 1_555 1_555
H25_32 C41_32 1_555 1_555
C42_32 C41_32 1_555 1_555
H26_32 C42_32 1_555 1_555
C43_32 C36_32 1_555 1_555
C44_32 C43_32 1_555 1_555
H27_32 C44_32 1_555 1_555
C45_32 C40_32 1_555 1_555
H28_32 C45_32 1_555 1_555
C46_20 O15_17 1_555 1_555
O16_20 C46_20 1_555 1_555
C47_20 C46_20 1_555 1_555
C48_20 C47_20 1_555 1_555
H29_20 C48_20 1_555 1_555
C49_20 C48_20 1_555 1_555
H30_20 C49_20 1_555 1_555
C50_20 C24_20 1_555 1_555
C51_20 C50_20 1_555 1_555
H31_20 C51_20 1_555 1_555
C52_20 C47_20 1_555 1_555
H32_20 C52_20 1_555 1_555
C11_32 C12_32 1_555 1_555
C16_32 C17_32 1_555 1_555
C18_32 C19_32 1_555 1_555
C25_20 C26_20 1_555 1_555
C37_32 C38_32 1_555 1_555
C42_32 C43_32 1_555 1_555
C44_32 C45_32 1_555 1_555
C49_20 C50_20 1_555 1_555
C51_20 C52_20 1_555 1_555
C6_33 O9_10 1_555 1_555
O3_33 C6_33 1_555 1_555
C7_33 C6_33 1_555 1_555
C8_33 C7_33 1_555 1_555
H5_33 C8_33 1_555 1_555
C9_33 C8_33 1_555 1_555
H6_33 C9_33 1_555 1_555
C10_33 C9_33 1_555 1_555
C11_33 C10_33 1_555 1_555
H7_33 C11_33 1_555 1_555
C12_33 C7_33 1_555 1_555
H8_33 C12_33 1_555 1_555
C13_33 O4_33 1_555 1_555
O4_33 Zn6_15 1_555 1_555
O5_33 C13_33 1_555 1_555
C14_33 C13_33 1_555 1_555
C15_33 C14_33 1_555 1_555
H9_33 C15_33 1_555 1_555
C16_33 C15_33 1_555 1_555
H10_33 C16_33 1_555 1_555
C17_33 C10_33 1_555 1_555
C18_33 C17_33 1_555 1_555
H11_33 C18_33 1_555 1_555
C19_33 C14_33 1_555 1_555
H12_33 C19_33 1_555 1_555
C20_21 O15_10 1_555 1_555
O7_21 C20_21 1_555 1_555
C21_21 C20_21 1_555 1_555
C22_21 C21_21 1_555 1_555
H13_21 C22_21 1_555 1_555
C23_21 C22_21 1_555 1_555
H14_21 C23_21 1_555 1_555
C24_21 C23_21 1_555 1_555
C25_21 C24_21 1_555 1_555
H15_21 C25_21 1_555 1_555
C26_21 C21_21 1_555 1_555
H16_21 C26_21 1_555 1_555
Zn4_33 O8_33 1_555 1_555
C32_33 O8_33 1_555 1_555
O10_33 C32_33 1_555 1_555
C33_33 C32_33 1_555 1_555
C34_33 C33_33 1_555 1_555
H21_33 C34_33 1_555 1_555
C35_33 C34_33 1_555 1_555
H22_33 C35_33 1_555 1_555
C36_33 C35_33 1_555 1_555
C37_33 C36_33 1_555 1_555
H23_33 C37_33 1_555 1_555
C38_33 C33_33 1_555 1_555
H24_33 C38_33 1_555 1_555
C39_33 O12_10 1_555 1_555
O13_33 C39_33 1_555 1_555
C40_33 C39_33 1_555 1_555
C41_33 C40_33 1_555 1_555
H25_33 C41_33 1_555 1_555
C42_33 C41_33 1_555 1_555
H26_33 C42_33 1_555 1_555
C43_33 C36_33 1_555 1_555
C44_33 C43_33 1_555 1_555
H27_33 C44_33 1_555 1_555
C45_33 C40_33 1_555 1_555
H28_33 C45_33 1_555 1_555
C46_21 O15_15 1_555 1_555
O16_21 C46_21 1_555 1_555
C47_21 C46_21 1_555 1_555
C48_21 C47_21 1_555 1_555
H29_21 C48_21 1_555 1_555
C49_21 C48_21 1_555 1_555
H30_21 C49_21 1_555 1_555
C50_21 C24_21 1_555 1_555
C51_21 C50_21 1_555 1_555
H31_21 C51_21 1_555 1_555
C52_21 C47_21 1_555 1_555
H32_21 C52_21 1_555 1_555
C11_33 C12_33 1_555 1_555
C16_33 C17_33 1_555 1_555
C18_33 C19_33 1_555 1_555
C25_21 C26_21 1_555 1_555
C37_33 C38_33 1_555 1_555
C42_33 C43_33 1_555 1_555
C44_33 C45_33 1_555 1_555
C49_21 C50_21 1_555 1_555
C51_21 C52_21 1_555 1_555
C6_34 O9_9 1_555 1_555
O3_34 C6_34 1_555 1_555
C7_34 C6_34 1_555 1_555
C8_34 C7_34 1_555 1_555
H5_34 C8_34 1_555 1_555
C9_34 C8_34 1_555 1_555
H6_34 C9_34 1_555 1_555
C10_34 C9_34 1_555 1_555
C11_34 C10_34 1_555 1_555
H7_34 C11_34 1_555 1_555
C12_34 C7_34 1_555 1_555
H8_34 C12_34 1_555 1_555
C13_34 O4_34 1_555 1_555
O4_34 Zn6_14 1_555 1_555
O5_34 C13_34 1_555 1_555
C14_34 C13_34 1_555 1_555
C15_34 C14_34 1_555 1_555
H9_34 C15_34 1_555 1_555
C16_34 C15_34 1_555 1_555
H10_34 C16_34 1_555 1_555
C17_34 C10_34 1_555 1_555
C18_34 C17_34 1_555 1_555
H11_34 C18_34 1_555 1_555
C19_34 C14_34 1_555 1_555
H12_34 C19_34 1_555 1_555
C20_22 O15_9 1_555 1_555
O7_22 C20_22 1_555 1_555
C21_22 C20_22 1_555 1_555
C22_22 C21_22 1_555 1_555
H13_22 C22_22 1_555 1_555
C23_22 C22_22 1_555 1_555
H14_22 C23_22 1_555 1_555
C24_22 C23_22 1_555 1_555
C25_22 C24_22 1_555 1_555
H15_22 C25_22 1_555 1_555
C26_22 C21_22 1_555 1_555
H16_22 C26_22 1_555 1_555
Zn4_34 O8_34 1_555 1_555
C32_34 O8_34 1_555 1_555
O10_34 C32_34 1_555 1_555
C33_34 C32_34 1_555 1_555
C34_34 C33_34 1_555 1_555
H21_34 C34_34 1_555 1_555
C35_34 C34_34 1_555 1_555
H22_34 C35_34 1_555 1_555
C36_34 C35_34 1_555 1_555
C37_34 C36_34 1_555 1_555
H23_34 C37_34 1_555 1_555
C38_34 C33_34 1_555 1_555
H24_34 C38_34 1_555 1_555
C39_34 O12_9 1_555 1_555
O13_34 C39_34 1_555 1_555
C40_34 C39_34 1_555 1_555
C41_34 C40_34 1_555 1_555
H25_34 C41_34 1_555 1_555
C42_34 C41_34 1_555 1_555
H26_34 C42_34 1_555 1_555
C43_34 C36_34 1_555 1_555
C44_34 C43_34 1_555 1_555
H27_34 C44_34 1_555 1_555
C45_34 C40_34 1_555 1_555
H28_34 C45_34 1_555 1_555
C46_22 O15_14 1_555 1_555
O16_22 C46_22 1_555 1_555
C47_22 C46_22 1_555 1_555
C48_22 C47_22 1_555 1_555
H29_22 C48_22 1_555 1_555
C49_22 C48_22 1_555 1_555
H30_22 C49_22 1_555 1_555
C50_22 C24_22 1_555 1_555
C51_22 C50_22 1_555 1_555
H31_22 C51_22 1_555 1_555
C52_22 C47_22 1_555 1_555
H32_22 C52_22 1_555 1_555
C11_34 C12_34 1_555 1_555
C16_34 C17_34 1_555 1_555
C18_34 C19_34 1_555 1_555
C25_22 C26_22 1_555 1_555
C37_34 C38_34 1_555 1_555
C42_34 C43_34 1_555 1_555
C44_34 C45_34 1_555 1_555
C49_22 C50_22 1_555 1_555
C51_22 C52_22 1_555 1_555
C6_35 O9_12 1_555 1_555
O3_35 C6_35 1_555 1_555
C7_35 C6_35 1_555 1_555
C8_35 C7_35 1_555 1_555
H5_35 C8_35 1_555 1_555
C9_35 C8_35 1_555 1_555
H6_35 C9_35 1_555 1_555
C10_35 C9_35 1_555 1_555
C11_35 C10_35 1_555 1_555
H7_35 C11_35 1_555 1_555
C12_35 C7_35 1_555 1_555
H8_35 C12_35 1_555 1_555
C13_35 O4_35 1_555 1_555
O4_35 Zn6_13 1_555 1_555
O5_35 C13_35 1_555 1_555
C14_35 C13_35 1_555 1_555
C15_35 C14_35 1_555 1_555
H9_35 C15_35 1_555 1_555
C16_35 C15_35 1_555 1_555
H10_35 C16_35 1_555 1_555
C17_35 C10_35 1_555 1_555
C18_35 C17_35 1_555 1_555
H11_35 C18_35 1_555 1_555
C19_35 C14_35 1_555 1_555
H12_35 C19_35 1_555 1_555
C20_23 O15_12 1_555 1_555
O7_23 C20_23 1_555 1_555
C21_23 C20_23 1_555 1_555
C22_23 C21_23 1_555 1_555
H13_23 C22_23 1_555 1_555
C23_23 C22_23 1_555 1_555
H14_23 C23_23 1_555 1_555
C24_23 C23_23 1_555 1_555
C25_23 C24_23 1_555 1_555
H15_23 C25_23 1_555 1_555
C26_23 C21_23 1_555 1_555
H16_23 C26_23 1_555 1_555
Zn4_35 O8_35 1_555 1_555
C32_35 O8_35 1_555 1_555
O10_35 C32_35 1_555 1_555
C33_35 C32_35 1_555 1_555
C34_35 C33_35 1_555 1_555
H21_35 C34_35 1_555 1_555
C35_35 C34_35 1_555 1_555
H22_35 C35_35 1_555 1_555
C36_35 C35_35 1_555 1_555
C37_35 C36_35 1_555 1_555
H23_35 C37_35 1_555 1_555
C38_35 C33_35 1_555 1_555
H24_35 C38_35 1_555 1_555
C39_35 O12_12 1_555 1_555
O13_35 C39_35 1_555 1_555
C40_35 C39_35 1_555 1_555
C41_35 C40_35 1_555 1_555
H25_35 C41_35 1_555 1_555
C42_35 C41_35 1_555 1_555
H26_35 C42_35 1_555 1_555
C43_35 C36_35 1_555 1_555
C44_35 C43_35 1_555 1_555
H27_35 C44_35 1_555 1_555
C45_35 C40_35 1_555 1_555
H28_35 C45_35 1_555 1_555
C46_23 O15_13 1_555 1_555
O16_23 C46_23 1_555 1_555
C47_23 C46_23 1_555 1_555
C48_23 C47_23 1_555 1_555
H29_23 C48_23 1_555 1_555
C49_23 C48_23 1_555 1_555
H30_23 C49_23 1_555 1_555
C50_23 C24_23 1_555 1_555
C51_23 C50_23 1_555 1_555
H31_23 C51_23 1_555 1_555
C52_23 C47_23 1_555 1_555
H32_23 C52_23 1_555 1_555
C11_35 C12_35 1_555 1_555
C16_35 C17_35 1_555 1_555
C18_35 C19_35 1_555 1_555
C25_23 C26_23 1_555 1_555
C37_35 C38_35 1_555 1_555
C42_35 C43_35 1_555 1_555
C44_35 C45_35 1_555 1_555
C49_23 C50_23 1_555 1_555
C51_23 C52_23 1_555 1_555
C6_36 O9_11 1_555 1_555
O3_36 C6_36 1_555 1_555
C7_36 C6_36 1_555 1_555
C8_36 C7_36 1_555 1_555
H5_36 C8_36 1_555 1_555
C9_36 C8_36 1_555 1_555
H6_36 C9_36 1_555 1_555
C10_36 C9_36 1_555 1_555
C11_36 C10_36 1_555 1_555
H7_36 C11_36 1_555 1_555
C12_36 C7_36 1_555 1_555
H8_36 C12_36 1_555 1_555
C13_36 O4_36 1_555 1_555
O4_36 Zn6_16 1_555 1_555
O5_36 C13_36 1_555 1_555
C14_36 C13_36 1_555 1_555
C15_36 C14_36 1_555 1_555
H9_36 C15_36 1_555 1_555
C16_36 C15_36 1_555 1_555
H10_36 C16_36 1_555 1_555
C17_36 C10_36 1_555 1_555
C18_36 C17_36 1_555 1_555
H11_36 C18_36 1_555 1_555
C19_36 C14_36 1_555 1_555
H12_36 C19_36 1_555 1_555
C20_24 O15_11 1_555 1_555
O7_24 C20_24 1_555 1_555
C21_24 C20_24 1_555 1_555
C22_24 C21_24 1_555 1_555
H13_24 C22_24 1_555 1_555
C23_24 C22_24 1_555 1_555
H14_24 C23_24 1_555 1_555
C24_24 C23_24 1_555 1_555
C25_24 C24_24 1_555 1_555
H15_24 C25_24 1_555 1_555
C26_24 C21_24 1_555 1_555
H16_24 C26_24 1_555 1_555
Zn4_36 O8_36 1_555 1_555
C32_36 O8_36 1_555 1_555
O10_36 C32_36 1_555 1_555
C33_36 C32_36 1_555 1_555
C34_36 C33_36 1_555 1_555
H21_36 C34_36 1_555 1_555
C35_36 C34_36 1_555 1_555
H22_36 C35_36 1_555 1_555
C36_36 C35_36 1_555 1_555
C37_36 C36_36 1_555 1_555
H23_36 C37_36 1_555 1_555
C38_36 C33_36 1_555 1_555
H24_36 C38_36 1_555 1_555
C39_36 O12_11 1_555 1_555
O13_36 C39_36 1_555 1_555
C40_36 C39_36 1_555 1_555
C41_36 C40_36 1_555 1_555
H25_36 C41_36 1_555 1_555
C42_36 C41_36 1_555 1_555
H26_36 C42_36 1_555 1_555
C43_36 C36_36 1_555 1_555
C44_36 C43_36 1_555 1_555
H27_36 C44_36 1_555 1_555
C45_36 C40_36 1_555 1_555
H28_36 C45_36 1_555 1_555
C46_24 O15_16 1_555 1_555
O16_24 C46_24 1_555 1_555
C47_24 C46_24 1_555 1_555
C48_24 C47_24 1_555 1_555
H29_24 C48_24 1_555 1_555
C49_24 C48_24 1_555 1_555
H30_24 C49_24 1_555 1_555
C50_24 C24_24 1_555 1_555
C51_24 C50_24 1_555 1_555
H31_24 C51_24 1_555 1_555
C52_24 C47_24 1_555 1_555
H32_24 C52_24 1_555 1_555
C11_36 C12_36 1_555 1_555
C16_36 C17_36 1_555 1_555
C18_36 C19_36 1_555 1_555
C25_24 C26_24 1_555 1_555
C37_36 C38_36 1_555 1_555
C42_36 C43_36 1_555 1_555
C44_36 C45_36 1_555 1_555
C49_24 C50_24 1_555 1_555
C51_24 C52_24 1_555 1_555
C6_37 O9_14 1_555 1_555
O3_37 C6_37 1_555 1_555
C7_37 C6_37 1_555 1_555
C8_37 C7_37 1_555 1_555
H5_37 C8_37 1_555 1_555
C9_37 C8_37 1_555 1_555
H6_37 C9_37 1_555 1_555
C10_37 C9_37 1_555 1_555
C11_37 C10_37 1_555 1_555
H7_37 C11_37 1_555 1_555
C12_37 C7_37 1_555 1_555
H8_37 C12_37 1_555 1_555
C13_37 O4_37 1_555 1_555
O4_37 Zn6_9 1_555 1_555
O5_37 C13_37 1_555 1_555
C14_37 C13_37 1_555 1_555
C15_37 C14_37 1_555 1_555
H9_37 C15_37 1_555 1_555
C16_37 C15_37 1_555 1_555
H10_37 C16_37 1_555 1_555
C17_37 C10_37 1_555 1_555
C18_37 C17_37 1_555 1_555
H11_37 C18_37 1_555 1_555
C19_37 C14_37 1_555 1_555
H12_37 C19_37 1_555 1_555
Zn4_37 O8_37 1_555 1_555
C32_37 O8_37 1_555 1_555
O10_37 C32_37 1_555 1_555
C33_37 C32_37 1_555 1_555
C34_37 C33_37 1_555 1_555
H21_37 C34_37 1_555 1_555
C35_37 C34_37 1_555 1_555
H22_37 C35_37 1_555 1_555
C36_37 C35_37 1_555 1_555
C37_37 C36_37 1_555 1_555
H23_37 C37_37 1_555 1_555
C38_37 C33_37 1_555 1_555
H24_37 C38_37 1_555 1_555
C39_37 O12_14 1_555 1_555
O13_37 C39_37 1_555 1_555
C40_37 C39_37 1_555 1_555
C41_37 C40_37 1_555 1_555
H25_37 C41_37 1_555 1_555
C42_37 C41_37 1_555 1_555
H26_37 C42_37 1_555 1_555
C43_37 C36_37 1_555 1_555
C44_37 C43_37 1_555 1_555
H27_37 C44_37 1_555 1_555
C45_37 C40_37 1_555 1_555
H28_37 C45_37 1_555 1_555
C11_37 C12_37 1_555 1_555
C16_37 C17_37 1_555 1_555
C18_37 C19_37 1_555 1_555
C37_37 C38_37 1_555 1_555
C42_37 C43_37 1_555 1_555
C44_37 C45_37 1_555 1_555
C6_38 O9_13 1_555 1_555
O3_38 C6_38 1_555 1_555
C7_38 C6_38 1_555 1_555
C8_38 C7_38 1_555 1_555
H5_38 C8_38 1_555 1_555
C9_38 C8_38 1_555 1_555
H6_38 C9_38 1_555 1_555
C10_38 C9_38 1_555 1_555
C11_38 C10_38 1_555 1_555
H7_38 C11_38 1_555 1_555
C12_38 C7_38 1_555 1_555
H8_38 C12_38 1_555 1_555
H9_38 C15_38 1_555 1_555
C16_38 C15_38 1_555 1_555
H10_38 C16_38 1_555 1_555
C17_38 C10_38 1_555 1_555
C39_38 O12_13 1_555 1_555
O13_38 C39_38 1_555 1_555
C40_38 C39_38 1_555 1_555
H27_38 C44_38 1_555 1_555
C45_38 C40_38 1_555 1_555
H28_38 C45_38 1_555 1_555
C11_38 C12_38 1_555 1_555
C16_38 C17_38 1_555 1_555
C44_38 C45_38 1_555 1_555
C13_38 O4_38 1_555 1_555
O4_38 Zn6_12 1_555 1_555
O5_38 C13_38 1_555 1_555
C14_38 C13_38 1_555 1_555
H11_38 C18_38 1_555 1_555
C19_38 C14_38 1_555 1_555
H12_38 C19_38 1_555 1_555
C18_38 C19_38 1_555 1_555
Zn4_38 O8_38 1_555 1_555
C32_38 O8_38 1_555 1_555
O10_38 C32_38 1_555 1_555
C33_38 C32_38 1_555 1_555
C34_38 C33_38 1_555 1_555
H21_38 C34_38 1_555 1_555
C35_38 C34_38 1_555 1_555
H22_38 C35_38 1_555 1_555
C36_38 C35_38 1_555 1_555
C37_38 C36_38 1_555 1_555
H23_38 C37_38 1_555 1_555
C38_38 C33_38 1_555 1_555
H24_38 C38_38 1_555 1_555
H25_38 C41_38 1_555 1_555
C42_38 C41_38 1_555 1_555
H26_38 C42_38 1_555 1_555
C43_38 C36_38 1_555 1_555
C37_38 C38_38 1_555 1_555
C42_38 C43_38 1_555 1_555
Zn4_39 O8_39 1_555 1_555
C32_39 O8_39 1_555 1_555
O10_39 C32_39 1_555 1_555
C33_39 C32_39 1_555 1_555
C34_39 C33_39 1_555 1_555
H21_39 C34_39 1_555 1_555
C35_39 C34_39 1_555 1_555
H22_39 C35_39 1_555 1_555
C36_39 C35_39 1_555 1_555
C37_39 C36_39 1_555 1_555
H23_39 C37_39 1_555 1_555
C38_39 C33_39 1_555 1_555
H24_39 C38_39 1_555 1_555
H25_39 C41_39 1_555 1_555
C42_39 C41_39 1_555 1_555
H26_39 C42_39 1_555 1_555
C43_39 C36_39 1_555 1_555
C37_39 C38_39 1_555 1_555
C42_39 C43_39 1_555 1_555
C6_39 O9_16 1_555 1_555
O3_39 C6_39 1_555 1_555
C7_39 C6_39 1_555 1_555
C8_39 C7_39 1_555 1_555
H5_39 C8_39 1_555 1_555
C9_39 C8_39 1_555 1_555
H6_39 C9_39 1_555 1_555
C10_39 C9_39 1_555 1_555
C11_39 C10_39 1_555 1_555
H7_39 C11_39 1_555 1_555
C12_39 C7_39 1_555 1_555
H8_39 C12_39 1_555 1_555
C13_39 O4_39 1_555 1_555
O4_39 Zn6_11 1_555 1_555
O5_39 C13_39 1_555 1_555
C14_39 C13_39 1_555 1_555
C15_39 C14_39 1_555 1_555
H9_39 C15_39 1_555 1_555
C16_39 C15_39 1_555 1_555
H10_39 C16_39 1_555 1_555
C17_39 C10_39 1_555 1_555
C18_39 C17_39 1_555 1_555
H11_39 C18_39 1_555 1_555
C19_39 C14_39 1_555 1_555
H12_39 C19_39 1_555 1_555
C39_39 O12_16 1_555 1_555
O13_39 C39_39 1_555 1_555
C40_39 C39_39 1_555 1_555
H27_39 C44_39 1_555 1_555
C45_39 C40_39 1_555 1_555
H28_39 C45_39 1_555 1_555
C11_39 C12_39 1_555 1_555
C16_39 C17_39 1_555 1_555
C18_39 C19_39 1_555 1_555
C44_39 C45_39 1_555 1_555
C13_40 O4_40 1_555 1_555
O4_40 Zn6_10 1_555 1_555
O5_40 C13_40 1_555 1_555
C14_40 C13_40 1_555 1_555
H11_40 C18_40 1_555 1_555
C19_40 C14_40 1_555 1_555
H12_40 C19_40 1_555 1_555
C18_40 C19_40 1_555 1_555
C6_40 O9_15 1_555 1_555
O3_40 C6_40 1_555 1_555
C7_40 C6_40 1_555 1_555
C8_40 C7_40 1_555 1_555
H5_40 C8_40 1_555 1_555
C9_40 C8_40 1_555 1_555
H6_40 C9_40 1_555 1_555
C10_40 C9_40 1_555 1_555
C11_40 C10_40 1_555 1_555
H7_40 C11_40 1_555 1_555
C12_40 C7_40 1_555 1_555
H8_40 C12_40 1_555 1_555
H9_40 C15_40 1_555 1_555
C16_40 C15_40 1_555 1_555
H10_40 C16_40 1_555 1_555
C17_40 C10_40 1_555 1_555
Zn4_40 O8_40 1_555 1_555
C32_40 O8_40 1_555 1_555
O10_40 C32_40 1_555 1_555
C33_40 C32_40 1_555 1_555
C34_40 C33_40 1_555 1_555
H21_40 C34_40 1_555 1_555
C35_40 C34_40 1_555 1_555
H22_40 C35_40 1_555 1_555
C36_40 C35_40 1_555 1_555
C37_40 C36_40 1_555 1_555
H23_40 C37_40 1_555 1_555
C38_40 C33_40 1_555 1_555
H24_40 C38_40 1_555 1_555
C39_40 O12_15 1_555 1_555
O13_40 C39_40 1_555 1_555
C40_40 C39_40 1_555 1_555
C41_40 C40_40 1_555 1_555
H25_40 C41_40 1_555 1_555
C42_40 C41_40 1_555 1_555
H26_40 C42_40 1_555 1_555
C43_40 C36_40 1_555 1_555
C44_40 C43_40 1_555 1_555
H27_40 C44_40 1_555 1_555
C45_40 C40_40 1_555 1_555
H28_40 C45_40 1_555 1_555
C11_40 C12_40 1_555 1_555
C16_40 C17_40 1_555 1_555
C37_40 C38_40 1_555 1_555
C42_40 C43_40 1_555 1_555
C44_40 C45_40 1_555 1_555
C13_41 O4_41 1_555 1_555
O4_41 Zn6_6 1_555 1_555
O5_41 C13_41 1_555 1_555
C14_41 C13_41 1_555 1_555
H11_41 C18_41 1_555 1_555
C19_41 C14_41 1_555 1_555
H12_41 C19_41 1_555 1_555
C18_41 C19_41 1_555 1_555
C6_41 O9_18 1_555 1_555
O3_41 C6_41 1_555 1_555
C7_41 C6_41 1_555 1_555
C8_41 C7_41 1_555 1_555
H5_41 C8_41 1_555 1_555
C9_41 C8_41 1_555 1_555
H6_41 C9_41 1_555 1_555
C10_41 C9_41 1_555 1_555
C11_41 C10_41 1_555 1_555
H7_41 C11_41 1_555 1_555
C12_41 C7_41 1_555 1_555
H8_41 C12_41 1_555 1_555
H9_41 C15_41 1_555 1_555
C16_41 C15_41 1_555 1_555
H10_41 C16_41 1_555 1_555
C17_41 C10_41 1_555 1_555
Zn4_41 O8_41 1_555 1_555
C32_41 O8_41 1_555 1_555
O10_41 C32_41 1_555 1_555
C33_41 C32_41 1_555 1_555
C34_41 C33_41 1_555 1_555
H21_41 C34_41 1_555 1_555
C35_41 C34_41 1_555 1_555
H22_41 C35_41 1_555 1_555
C36_41 C35_41 1_555 1_555
C37_41 C36_41 1_555 1_555
H23_41 C37_41 1_555 1_555
C38_41 C33_41 1_555 1_555
H24_41 C38_41 1_555 1_555
C39_41 O12_18 1_555 1_555
O13_41 C39_41 1_555 1_555
C40_41 C39_41 1_555 1_555
C41_41 C40_41 1_555 1_555
H25_41 C41_41 1_555 1_555
C42_41 C41_41 1_555 1_555
H26_41 C42_41 1_555 1_555
C43_41 C36_41 1_555 1_555
C44_41 C43_41 1_555 1_555
H27_41 C44_41 1_555 1_555
C45_41 C40_41 1_555 1_555
H28_41 C45_41 1_555 1_555
C11_41 C12_41 1_555 1_555
C16_41 C17_41 1_555 1_555
C37_41 C38_41 1_555 1_555
C42_41 C43_41 1_555 1_555
C44_41 C45_41 1_555 1_555
Zn4_42 O8_42 1_555 1_555
C32_42 O8_42 1_555 1_555
O10_42 C32_42 1_555 1_555
C33_42 C32_42 1_555 1_555
C34_42 C33_42 1_555 1_555
H21_42 C34_42 1_555 1_555
C35_42 C34_42 1_555 1_555
H22_42 C35_42 1_555 1_555
C36_42 C35_42 1_555 1_555
C37_42 C36_42 1_555 1_555
H23_42 C37_42 1_555 1_555
C38_42 C33_42 1_555 1_555
H24_42 C38_42 1_555 1_555
H25_42 C41_42 1_555 1_555
C42_42 C41_42 1_555 1_555
H26_42 C42_42 1_555 1_555
C43_42 C36_42 1_555 1_555
C37_42 C38_42 1_555 1_555
C42_42 C43_42 1_555 1_555
C6_42 O9_17 1_555 1_555
O3_42 C6_42 1_555 1_555
C7_42 C6_42 1_555 1_555
C8_42 C7_42 1_555 1_555
H5_42 C8_42 1_555 1_555
C9_42 C8_42 1_555 1_555
H6_42 C9_42 1_555 1_555
C10_42 C9_42 1_555 1_555
C11_42 C10_42 1_555 1_555
H7_42 C11_42 1_555 1_555
C12_42 C7_42 1_555 1_555
H8_42 C12_42 1_555 1_555
C13_42 O4_42 1_555 1_555
O4_42 Zn6_7 1_555 1_555
O5_42 C13_42 1_555 1_555
C14_42 C13_42 1_555 1_555
C15_42 C14_42 1_555 1_555
H9_42 C15_42 1_555 1_555
C16_42 C15_42 1_555 1_555
H10_42 C16_42 1_555 1_555
C17_42 C10_42 1_555 1_555
C18_42 C17_42 1_555 1_555
H11_42 C18_42 1_555 1_555
C19_42 C14_42 1_555 1_555
H12_42 C19_42 1_555 1_555
C39_42 O12_17 1_555 1_555
O13_42 C39_42 1_555 1_555
C40_42 C39_42 1_555 1_555
H27_42 C44_42 1_555 1_555
C45_42 C40_42 1_555 1_555
H28_42 C45_42 1_555 1_555
C11_42 C12_42 1_555 1_555
C16_42 C17_42 1_555 1_555
C18_42 C19_42 1_555 1_555
C44_42 C45_42 1_555 1_555
C6_43 O9_20 1_555 1_555
O3_43 C6_43 1_555 1_555
C7_43 C6_43 1_555 1_555
C8_43 C7_43 1_555 1_555
H5_43 C8_43 1_555 1_555
C9_43 C8_43 1_555 1_555
H6_43 C9_43 1_555 1_555
C10_43 C9_43 1_555 1_555
C11_43 C10_43 1_555 1_555
H7_43 C11_43 1_555 1_555
C12_43 C7_43 1_555 1_555
H8_43 C12_43 1_555 1_555
H9_43 C15_43 1_555 1_555
C16_43 C15_43 1_555 1_555
H10_43 C16_43 1_555 1_555
C17_43 C10_43 1_555 1_555
C39_43 O12_20 1_555 1_555
O13_43 C39_43 1_555 1_555
C40_43 C39_43 1_555 1_555
H27_43 C44_43 1_555 1_555
C45_43 C40_43 1_555 1_555
H28_43 C45_43 1_555 1_555
C11_43 C12_43 1_555 1_555
C16_43 C17_43 1_555 1_555
C44_43 C45_43 1_555 1_555
Zn4_43 O8_43 1_555 1_555
C32_43 O8_43 1_555 1_555
O10_43 C32_43 1_555 1_555
C33_43 C32_43 1_555 1_555
C34_43 C33_43 1_555 1_555
H21_43 C34_43 1_555 1_555
C35_43 C34_43 1_555 1_555
H22_43 C35_43 1_555 1_555
C36_43 C35_43 1_555 1_555
C37_43 C36_43 1_555 1_555
H23_43 C37_43 1_555 1_555
C38_43 C33_43 1_555 1_555
H24_43 C38_43 1_555 1_555
H25_43 C41_43 1_555 1_555
C42_43 C41_43 1_555 1_555
H26_43 C42_43 1_555 1_555
C43_43 C36_43 1_555 1_555
C37_43 C38_43 1_555 1_555
C42_43 C43_43 1_555 1_555
C13_43 O4_43 1_555 1_555
O4_43 Zn6_8 1_555 1_555
O5_43 C13_43 1_555 1_555
C14_43 C13_43 1_555 1_555
H11_43 C18_43 1_555 1_555
C19_43 C14_43 1_555 1_555
H12_43 C19_43 1_555 1_555
C18_43 C19_43 1_555 1_555
C6_44 O9_19 1_555 1_555
O3_44 C6_44 1_555 1_555
C7_44 C6_44 1_555 1_555
C8_44 C7_44 1_555 1_555
H5_44 C8_44 1_555 1_555
C9_44 C8_44 1_555 1_555
H6_44 C9_44 1_555 1_555
C10_44 C9_44 1_555 1_555
C11_44 C10_44 1_555 1_555
H7_44 C11_44 1_555 1_555
C12_44 C7_44 1_555 1_555
H8_44 C12_44 1_555 1_555
C13_44 O4_44 1_555 1_555
O4_44 Zn6_5 1_555 1_555
O5_44 C13_44 1_555 1_555
C14_44 C13_44 1_555 1_555
C15_44 C14_44 1_555 1_555
H9_44 C15_44 1_555 1_555
C16_44 C15_44 1_555 1_555
H10_44 C16_44 1_555 1_555
C17_44 C10_44 1_555 1_555
C18_44 C17_44 1_555 1_555
H11_44 C18_44 1_555 1_555
C19_44 C14_44 1_555 1_555
H12_44 C19_44 1_555 1_555
Zn4_44 O8_44 1_555 1_555
C32_44 O8_44 1_555 1_555
O10_44 C32_44 1_555 1_555
C33_44 C32_44 1_555 1_555
C34_44 C33_44 1_555 1_555
H21_44 C34_44 1_555 1_555
C35_44 C34_44 1_555 1_555
H22_44 C35_44 1_555 1_555
C36_44 C35_44 1_555 1_555
C37_44 C36_44 1_555 1_555
H23_44 C37_44 1_555 1_555
C38_44 C33_44 1_555 1_555
H24_44 C38_44 1_555 1_555
C39_44 O12_19 1_555 1_555
O13_44 C39_44 1_555 1_555
C40_44 C39_44 1_555 1_555
C41_44 C40_44 1_555 1_555
H25_44 C41_44 1_555 1_555
C42_44 C41_44 1_555 1_555
H26_44 C42_44 1_555 1_555
C43_44 C36_44 1_555 1_555
C44_44 C43_44 1_555 1_555
H27_44 C44_44 1_555 1_555
C45_44 C40_44 1_555 1_555
H28_44 C45_44 1_555 1_555
C11_44 C12_44 1_555 1_555
C16_44 C17_44 1_555 1_555
C18_44 C19_44 1_555 1_555
C37_44 C38_44 1_555 1_555
C42_44 C43_44 1_555 1_555
C44_44 C45_44 1_555 1_555
Zn4_45 O8_45 1_555 1_555
C32_45 O8_45 1_555 1_555
O10_45 C32_45 1_555 1_555
C33_45 C32_45 1_555 1_555
C34_45 C33_45 1_555 1_555
H21_45 C34_45 1_555 1_555
C35_45 C34_45 1_555 1_555
H22_45 C35_45 1_555 1_555
C36_45 C35_45 1_555 1_555
C37_45 C36_45 1_555 1_555
H23_45 C37_45 1_555 1_555
C38_45 C33_45 1_555 1_555
H24_45 C38_45 1_555 1_555
H25_45 C41_45 1_555 1_555
C42_45 C41_45 1_555 1_555
H26_45 C42_45 1_555 1_555
C43_45 C36_45 1_555 1_555
C37_45 C38_45 1_555 1_555
C42_45 C43_45 1_555 1_555
C6_45 O9_22 1_555 1_555
O3_45 C6_45 1_555 1_555
C7_45 C6_45 1_555 1_555
C8_45 C7_45 1_555 1_555
H5_45 C8_45 1_555 1_555
C9_45 C8_45 1_555 1_555
H6_45 C9_45 1_555 1_555
C10_45 C9_45 1_555 1_555
C11_45 C10_45 1_555 1_555
H7_45 C11_45 1_555 1_555
C12_45 C7_45 1_555 1_555
H8_45 C12_45 1_555 1_555
C13_45 O4_45 1_555 1_555
O4_45 Zn6_3 1_555 1_555
O5_45 C13_45 1_555 1_555
C14_45 C13_45 1_555 1_555
C15_45 C14_45 1_555 1_555
H9_45 C15_45 1_555 1_555
C16_45 C15_45 1_555 1_555
H10_45 C16_45 1_555 1_555
C17_45 C10_45 1_555 1_555
C18_45 C17_45 1_555 1_555
H11_45 C18_45 1_555 1_555
C19_45 C14_45 1_555 1_555
H12_45 C19_45 1_555 1_555
C39_45 O12_22 1_555 1_555
O13_45 C39_45 1_555 1_555
C40_45 C39_45 1_555 1_555
H27_45 C44_45 1_555 1_555
C45_45 C40_45 1_555 1_555
H28_45 C45_45 1_555 1_555
C11_45 C12_45 1_555 1_555
C16_45 C17_45 1_555 1_555
C18_45 C19_45 1_555 1_555
C44_45 C45_45 1_555 1_555
C13_46 O4_46 1_555 1_555
O4_46 Zn6_2 1_555 1_555
O5_46 C13_46 1_555 1_555
C14_46 C13_46 1_555 1_555
H11_46 C18_46 1_555 1_555
C19_46 C14_46 1_555 1_555
H12_46 C19_46 1_555 1_555
C18_46 C19_46 1_555 1_555
C6_46 O9_21 1_555 1_555
O3_46 C6_46 1_555 1_555
C7_46 C6_46 1_555 1_555
C8_46 C7_46 1_555 1_555
H5_46 C8_46 1_555 1_555
C9_46 C8_46 1_555 1_555
H6_46 C9_46 1_555 1_555
C10_46 C9_46 1_555 1_555
C11_46 C10_46 1_555 1_555
H7_46 C11_46 1_555 1_555
C12_46 C7_46 1_555 1_555
H8_46 C12_46 1_555 1_555
H9_46 C15_46 1_555 1_555
C16_46 C15_46 1_555 1_555
H10_46 C16_46 1_555 1_555
C17_46 C10_46 1_555 1_555
Zn4_46 O8_46 1_555 1_555
C32_46 O8_46 1_555 1_555
O10_46 C32_46 1_555 1_555
C33_46 C32_46 1_555 1_555
C34_46 C33_46 1_555 1_555
H21_46 C34_46 1_555 1_555
C35_46 C34_46 1_555 1_555
H22_46 C35_46 1_555 1_555
C36_46 C35_46 1_555 1_555
C37_46 C36_46 1_555 1_555
H23_46 C37_46 1_555 1_555
C38_46 C33_46 1_555 1_555
H24_46 C38_46 1_555 1_555
C39_46 O12_21 1_555 1_555
O13_46 C39_46 1_555 1_555
C40_46 C39_46 1_555 1_555
C41_46 C40_46 1_555 1_555
H25_46 C41_46 1_555 1_555
C42_46 C41_46 1_555 1_555
H26_46 C42_46 1_555 1_555
C43_46 C36_46 1_555 1_555
C44_46 C43_46 1_555 1_555
H27_46 C44_46 1_555 1_555
C45_46 C40_46 1_555 1_555
H28_46 C45_46 1_555 1_555
C11_46 C12_46 1_555 1_555
C16_46 C17_46 1_555 1_555
C37_46 C38_46 1_555 1_555
C42_46 C43_46 1_555 1_555
C44_46 C45_46 1_555 1_555
C6_47 O9_24 1_555 1_555
O3_47 C6_47 1_555 1_555
C7_47 C6_47 1_555 1_555
C8_47 C7_47 1_555 1_555
H5_47 C8_47 1_555 1_555
C9_47 C8_47 1_555 1_555
H6_47 C9_47 1_555 1_555
C10_47 C9_47 1_555 1_555
C11_47 C10_47 1_555 1_555
H7_47 C11_47 1_555 1_555
C12_47 C7_47 1_555 1_555
H8_47 C12_47 1_555 1_555
C13_47 O4_47 1_555 1_555
O4_47 Zn6 1_555 1_555
O5_47 C13_47 1_555 1_555
C14_47 C13_47 1_555 1_555
C15_47 C14_47 1_555 1_555
H9_47 C15_47 1_555 1_555
C16_47 C15_47 1_555 1_555
H10_47 C16_47 1_555 1_555
C17_47 C10_47 1_555 1_555
C18_47 C17_47 1_555 1_555
H11_47 C18_47 1_555 1_555
C19_47 C14_47 1_555 1_555
H12_47 C19_47 1_555 1_555
Zn4_47 O8_47 1_555 1_555
C32_47 O8_47 1_555 1_555
O10_47 C32_47 1_555 1_555
C33_47 C32_47 1_555 1_555
C34_47 C33_47 1_555 1_555
H21_47 C34_47 1_555 1_555
C35_47 C34_47 1_555 1_555
H22_47 C35_47 1_555 1_555
C36_47 C35_47 1_555 1_555
C37_47 C36_47 1_555 1_555
H23_47 C37_47 1_555 1_555
C38_47 C33_47 1_555 1_555
H24_47 C38_47 1_555 1_555
C39_47 O12_24 1_555 1_555
O13_47 C39_47 1_555 1_555
C40_47 C39_47 1_555 1_555
C41_47 C40_47 1_555 1_555
H25_47 C41_47 1_555 1_555
C42_47 C41_47 1_555 1_555
H26_47 C42_47 1_555 1_555
C43_47 C36_47 1_555 1_555
C44_47 C43_47 1_555 1_555
H27_47 C44_47 1_555 1_555
C45_47 C40_47 1_555 1_555
H28_47 C45_47 1_555 1_555
C11_47 C12_47 1_555 1_555
C16_47 C17_47 1_555 1_555
C18_47 C19_47 1_555 1_555
C37_47 C38_47 1_555 1_555
C42_47 C43_47 1_555 1_555
C44_47 C45_47 1_555 1_555
C6_48 O9_23 1_555 1_555
O3_48 C6_48 1_555 1_555
C7_48 C6_48 1_555 1_555
C8_48 C7_48 1_555 1_555
H5_48 C8_48 1_555 1_555
C9_48 C8_48 1_555 1_555
H6_48 C9_48 1_555 1_555
C10_48 C9_48 1_555 1_555
C11_48 C10_48 1_555 1_555
H7_48 C11_48 1_555 1_555
C12_48 C7_48 1_555 1_555
H8_48 C12_48 1_555 1_555
H9_48 C15_48 1_555 1_555
C16_48 C15_48 1_555 1_555
H10_48 C16_48 1_555 1_555
C17_48 C10_48 1_555 1_555
C39_48 O12_23 1_555 1_555
O13_48 C39_48 1_555 1_555
C40_48 C39_48 1_555 1_555
H27_48 C44_48 1_555 1_555
C45_48 C40_48 1_555 1_555
H28_48 C45_48 1_555 1_555
C11_48 C12_48 1_555 1_555
C16_48 C17_48 1_555 1_555
C44_48 C45_48 1_555 1_555
Zn4_48 O8_48 1_555 1_555
C32_48 O8_48 1_555 1_555
O10_48 C32_48 1_555 1_555
C33_48 C32_48 1_555 1_555
C34_48 C33_48 1_555 1_555
H21_48 C34_48 1_555 1_555
C35_48 C34_48 1_555 1_555
H22_48 C35_48 1_555 1_555
C36_48 C35_48 1_555 1_555
C37_48 C36_48 1_555 1_555
H23_48 C37_48 1_555 1_555
C38_48 C33_48 1_555 1_555
H24_48 C38_48 1_555 1_555
H25_48 C41_48 1_555 1_555
C42_48 C41_48 1_555 1_555
H26_48 C42_48 1_555 1_555
C43_48 C36_48 1_555 1_555
C37_48 C38_48 1_555 1_555
C42_48 C43_48 1_555 1_555
C13_48 O4_48 1_555 1_555
O4_48 Zn6_4 1_555 1_555
O5_48 C13_48 1_555 1_555
C14_48 C13_48 1_555 1_555
H11_48 C18_48 1_555 1_555
C19_48 C14_48 1_555 1_555
H12_48 C19_48 1_555 1_555
C18_48 C19_48 1_555 1_555
Zn4_29 N2_25 1_555 1_555
Zn6_15 N1_25 1_555 1_555
N1_25 C1_25 1_555 1_555
C1_25 H1_25 1_555 1_555
N2_25 C1_25 1_555 1_555
C2_25 N2_25 1_555 1_555
C3_25 C2_25 1_555 1_555
C4_25 N1_25 1_555 1_555
N10_15 C3_25 1_555 1_555
C5_25 N10_15 1_555 1_555
H2_25 C5_25 1_555 1_555
N4_25 C2_25 1_555 1_555
N5_25 C4_25 1_555 1_555
H3_25 N5_25 1_555 1_555
H4_25 N5_25 1_555 1_555
O1_37 Zn4_29 1_555 1_555
C20_25 O6_13 1_555 1_555
O6_13 Zn6_15 1_555 1_555
O7_25 C20_25 1_555 1_555
C21_25 C20_25 1_555 1_555
C22_25 C21_25 1_555 1_555
H13_25 C22_25 1_555 1_555
C23_25 C22_25 1_555 1_555
H14_25 C23_25 1_555 1_555
C24_25 C23_25 1_555 1_555
C25_25 C24_25 1_555 1_555
H15_25 C25_25 1_555 1_555
C26_25 C21_25 1_555 1_555
H16_25 C26_25 1_555 1_555
Zn4_7 N4_25 1_555 1_555
Zn7_12 N6_25 1_555 1_555
Zn9_6 O14_13 1_555 1_555
N6_25 C27_25 1_555 1_555
C27_25 H17_25 1_555 1_555
N7_25 Zn4_7 1_555 1_555
C28_25 N7_25 1_555 1_555
C29_25 C28_25 1_555 1_555
C30_25 N6_25 1_555 1_555
N9_15 C29_25 1_555 1_555
C31_25 N9_15 1_555 1_555
H18_25 C31_25 1_555 1_555
N11_25 Zn4_29 1_555 1_555
N12_25 C30_25 1_555 1_555
H19_25 N12_25 1_555 1_555
H20_25 N12_25 1_555 1_555
C46_25 O14_13 1_555 1_555
O15_25 Zn7_12 1_555 1_555
O16_25 C46_25 1_555 1_555
C47_25 C46_25 1_555 1_555
C48_25 C47_25 1_555 1_555
H29_25 C48_25 1_555 1_555
C49_25 C48_25 1_555 1_555
H30_25 C49_25 1_555 1_555
C50_25 C24_25 1_555 1_555
C51_25 C50_25 1_555 1_555
H31_25 C51_25 1_555 1_555
C52_25 C47_25 1_555 1_555
H32_25 C52_25 1_555 1_555
C3_25 C4_25 1_555 1_555
C5_25 N4_25 1_555 1_555
O1_37 Zn4_7 1_555 1_555
C25_25 C26_25 1_555 1_555
C27_25 N7_25 1_555 1_555
C28_25 N11_25 1_555 1_555
C29_25 C30_25 1_555 1_555
C31_25 N11_25 1_555 1_555
C49_25 C50_25 1_555 1_555
C51_25 C52_25 1_555 1_555
Zn7_9 N6_26 1_555 1_555
N6_26 C27_26 1_555 1_555
C27_26 H17_26 1_555 1_555
N7_26 Zn4_5 1_555 1_555
C28_26 N7_26 1_555 1_555
C29_26 C28_26 1_555 1_555
C30_26 N6_26 1_555 1_555
N9_16 C29_26 1_555 1_555
C31_26 N9_16 1_555 1_555
H18_26 C31_26 1_555 1_555
N12_26 C30_26 1_555 1_555
H19_26 N12_26 1_555 1_555
H20_26 N12_26 1_555 1_555
O15_26 Zn7_9 1_555 1_555
O1_38 Zn4_5 1_555 1_555
C27_26 N7_26 1_555 1_555
C28_26 N11_26 1_555 1_555
C29_26 C30_26 1_555 1_555
C31_26 N11_26 1_555 1_555
Zn4_31 N2_26 1_555 1_555
Zn6_16 N1_26 1_555 1_555
N1_26 C1_26 1_555 1_555
C1_26 H1_26 1_555 1_555
N2_26 C1_26 1_555 1_555
C2_26 N2_26 1_555 1_555
C3_26 C2_26 1_555 1_555
C4_26 N1_26 1_555 1_555
N10_16 C3_26 1_555 1_555
C5_26 N10_16 1_555 1_555
H2_26 C5_26 1_555 1_555
N4_26 C2_26 1_555 1_555
N5_26 C4_26 1_555 1_555
H3_26 N5_26 1_555 1_555
H4_26 N5_26 1_555 1_555
O1_39 Zn4_31 1_555 1_555
C20_26 O6_14 1_555 1_555
O6_14 Zn6_16 1_555 1_555
O7_26 C20_26 1_555 1_555
C21_26 C20_26 1_555 1_555
C22_26 C21_26 1_555 1_555
H13_26 C22_26 1_555 1_555
C23_26 C22_26 1_555 1_555
H14_26 C23_26 1_555 1_555
C24_26 C23_26 1_555 1_555
C25_26 C24_26 1_555 1_555
H15_26 C25_26 1_555 1_555
C26_26 C21_26 1_555 1_555
H16_26 C26_26 1_555 1_555
Zn9_8 O14_14 1_555 1_555
C46_26 O14_14 1_555 1_555
O16_26 C46_26 1_555 1_555
C47_26 C46_26 1_555 1_555
C48_26 C47_26 1_555 1_555
H29_26 C48_26 1_555 1_555
C49_26 C48_26 1_555 1_555
H30_26 C49_26 1_555 1_555
C50_26 C24_26 1_555 1_555
C51_26 C50_26 1_555 1_555
H31_26 C51_26 1_555 1_555
C52_26 C47_26 1_555 1_555
H32_26 C52_26 1_555 1_555
C3_26 C4_26 1_555 1_555
C5_26 N4_26 1_555 1_555
C25_26 C26_26 1_555 1_555
C49_26 C50_26 1_555 1_555
C51_26 C52_26 1_555 1_555
Zn4_32 N2_27 1_555 1_555
Zn6_14 N1_27 1_555 1_555
N1_27 C1_27 1_555 1_555
C1_27 H1_27 1_555 1_555
N2_27 C1_27 1_555 1_555
C2_27 N2_27 1_555 1_555
C3_27 C2_27 1_555 1_555
C4_27 N1_27 1_555 1_555
N10_14 C3_27 1_555 1_555
C5_27 N10_14 1_555 1_555
H2_27 C5_27 1_555 1_555
N4_27 C2_27 1_555 1_555
N5_27 C4_27 1_555 1_555
H3_27 N5_27 1_555 1_555
H4_27 N5_27 1_555 1_555
O1_40 Zn4_32 1_555 1_555
C20_27 O6_15 1_555 1_555
O6_15 Zn6_14 1_555 1_555
O7_27 C20_27 1_555 1_555
C21_27 C20_27 1_555 1_555
C22_27 C21_27 1_555 1_555
H13_27 C22_27 1_555 1_555
C23_27 C22_27 1_555 1_555
H14_27 C23_27 1_555 1_555
C24_27 C23_27 1_555 1_555
C25_27 C24_27 1_555 1_555
H15_27 C25_27 1_555 1_555
C26_27 C21_27 1_555 1_555
H16_27 C26_27 1_555 1_555
Zn4_6 N4_27 1_555 1_555
Zn7_11 N6_27 1_555 1_555
Zn9_7 O14_15 1_555 1_555
N6_27 C27_27 1_555 1_555
C27_27 H17_27 1_555 1_555
N7_27 Zn4_6 1_555 1_555
C28_27 N7_27 1_555 1_555
C29_27 C28_27 1_555 1_555
C30_27 N6_27 1_555 1_555
N9_14 C29_27 1_555 1_555
C31_27 N9_14 1_555 1_555
H18_27 C31_27 1_555 1_555
N11_27 Zn4_32 1_555 1_555
N12_27 C30_27 1_555 1_555
H19_27 N12_27 1_555 1_555
H20_27 N12_27 1_555 1_555
C46_27 O14_15 1_555 1_555
O15_27 Zn7_11 1_555 1_555
O16_27 C46_27 1_555 1_555
C47_27 C46_27 1_555 1_555
C48_27 C47_27 1_555 1_555
H29_27 C48_27 1_555 1_555
C49_27 C48_27 1_555 1_555
H30_27 C49_27 1_555 1_555
C50_27 C24_27 1_555 1_555
C51_27 C50_27 1_555 1_555
H31_27 C51_27 1_555 1_555
C52_27 C47_27 1_555 1_555
H32_27 C52_27 1_555 1_555
C3_27 C4_27 1_555 1_555
C5_27 N4_27 1_555 1_555
O1_40 Zn4_6 1_555 1_555
C25_27 C26_27 1_555 1_555
C27_27 N7_27 1_555 1_555
C28_27 N11_27 1_555 1_555
C29_27 C30_27 1_555 1_555
C31_27 N11_27 1_555 1_555
C49_27 C50_27 1_555 1_555
C51_27 C52_27 1_555 1_555
Zn4_30 N2_28 1_555 1_555
Zn6_13 N1_28 1_555 1_555
N1_28 C1_28 1_555 1_555
C1_28 H1_28 1_555 1_555
N2_28 C1_28 1_555 1_555
C2_28 N2_28 1_555 1_555
C3_28 C2_28 1_555 1_555
C4_28 N1_28 1_555 1_555
N10_13 C3_28 1_555 1_555
C5_28 N10_13 1_555 1_555
H2_28 C5_28 1_555 1_555
N4_28 C2_28 1_555 1_555
N5_28 C4_28 1_555 1_555
H3_28 N5_28 1_555 1_555
H4_28 N5_28 1_555 1_555
O1_41 Zn4_30 1_555 1_555
C20_28 O6_16 1_555 1_555
O6_16 Zn6_13 1_555 1_555
O7_28 C20_28 1_555 1_555
C21_28 C20_28 1_555 1_555
C22_28 C21_28 1_555 1_555
H13_28 C22_28 1_555 1_555
C23_28 C22_28 1_555 1_555
H14_28 C23_28 1_555 1_555
C24_28 C23_28 1_555 1_555
C25_28 C24_28 1_555 1_555
H15_28 C25_28 1_555 1_555
C26_28 C21_28 1_555 1_555
H16_28 C26_28 1_555 1_555
Zn9_5 O14_16 1_555 1_555
C46_28 O14_16 1_555 1_555
O16_28 C46_28 1_555 1_555
C47_28 C46_28 1_555 1_555
C48_28 C47_28 1_555 1_555
H29_28 C48_28 1_555 1_555
C49_28 C48_28 1_555 1_555
H30_28 C49_28 1_555 1_555
C50_28 C24_28 1_555 1_555
C51_28 C50_28 1_555 1_555
H31_28 C51_28 1_555 1_555
C52_28 C47_28 1_555 1_555
H32_28 C52_28 1_555 1_555
C3_28 C4_28 1_555 1_555
C5_28 N4_28 1_555 1_555
C25_28 C26_28 1_555 1_555
C49_28 C50_28 1_555 1_555
C51_28 C52_28 1_555 1_555
Zn7_10 N6_28 1_555 1_555
N6_28 C27_28 1_555 1_555
C27_28 H17_28 1_555 1_555
N7_28 Zn4_8 1_555 1_555
C28_28 N7_28 1_555 1_555
C29_28 C28_28 1_555 1_555
C30_28 N6_28 1_555 1_555
N9_13 C29_28 1_555 1_555
C31_28 N9_13 1_555 1_555
H18_28 C31_28 1_555 1_555
N12_28 C30_28 1_555 1_555
H19_28 N12_28 1_555 1_555
H20_28 N12_28 1_555 1_555
O15_28 Zn7_10 1_555 1_555
O1_42 Zn4_8 1_555 1_555
C27_28 N7_28 1_555 1_555
C28_28 N11_28 1_555 1_555
C29_28 C30_28 1_555 1_555
C31_28 N11_28 1_555 1_555
Zn4_33 N2_29 1_555 1_555
Zn6_21 N1_29 1_555 1_555
N1_29 C1_29 1_555 1_555
C1_29 H1_29 1_555 1_555
N2_29 C1_29 1_555 1_555
C2_29 N2_29 1_555 1_555
C3_29 C2_29 1_555 1_555
C4_29 N1_29 1_555 1_555
N10_21 C3_29 1_555 1_555
C5_29 N10_21 1_555 1_555
H2_29 C5_29 1_555 1_555
N4_29 C2_29 1_555 1_555
N5_29 C4_29 1_555 1_555
H3_29 N5_29 1_555 1_555
H4_29 N5_29 1_555 1_555
O1_43 Zn4_33 1_555 1_555
C20_29 O6_17 1_555 1_555
O6_17 Zn6_21 1_555 1_555
O7_29 C20_29 1_555 1_555
C21_29 C20_29 1_555 1_555
C22_29 C21_29 1_555 1_555
H13_29 C22_29 1_555 1_555
C23_29 C22_29 1_555 1_555
H14_29 C23_29 1_555 1_555
C24_29 C23_29 1_555 1_555
C25_29 C24_29 1_555 1_555
H15_29 C25_29 1_555 1_555
C26_29 C21_29 1_555 1_555
H16_29 C26_29 1_555 1_555
Zn4_11 N4_29 1_555 1_555
Zn7_4 N6_29 1_555 1_555
Zn9_10 O14_17 1_555 1_555
N6_29 C27_29 1_555 1_555
C27_29 H17_29 1_555 1_555
N7_29 Zn4_11 1_555 1_555
C28_29 N7_29 1_555 1_555
C29_29 C28_29 1_555 1_555
C30_29 N6_29 1_555 1_555
N9_21 C29_29 1_555 1_555
C31_29 N9_21 1_555 1_555
H18_29 C31_29 1_555 1_555
N11_29 Zn4_33 1_555 1_555
N12_29 C30_29 1_555 1_555
H19_29 N12_29 1_555 1_555
H20_29 N12_29 1_555 1_555
C46_29 O14_17 1_555 1_555
O15_29 Zn7_4 1_555 1_555
O16_29 C46_29 1_555 1_555
C47_29 C46_29 1_555 1_555
C48_29 C47_29 1_555 1_555
H29_29 C48_29 1_555 1_555
C49_29 C48_29 1_555 1_555
H30_29 C49_29 1_555 1_555
C50_29 C24_29 1_555 1_555
C51_29 C50_29 1_555 1_555
H31_29 C51_29 1_555 1_555
C52_29 C47_29 1_555 1_555
H32_29 C52_29 1_555 1_555
C3_29 C4_29 1_555 1_555
C5_29 N4_29 1_555 1_555
O1_43 Zn4_11 1_555 1_555
C25_29 C26_29 1_555 1_555
C27_29 N7_29 1_555 1_555
C28_29 N11_29 1_555 1_555
C29_29 C30_29 1_555 1_555
C31_29 N11_29 1_555 1_555
C49_29 C50_29 1_555 1_555
C51_29 C52_29 1_555 1_555
Zn7 N6_30 1_555 1_555
N6_30 C27_30 1_555 1_555
C27_30 H17_30 1_555 1_555
N7_30 Zn4_9 1_555 1_555
C28_30 N7_30 1_555 1_555
C29_30 C28_30 1_555 1_555
C30_30 N6_30 1_555 1_555
N9_22 C29_30 1_555 1_555
C31_30 N9_22 1_555 1_555
H18_30 C31_30 1_555 1_555
N12_30 C30_30 1_555 1_555
H19_30 N12_30 1_555 1_555
H20_30 N12_30 1_555 1_555
O15_30 Zn7 1_555 1_555
O1_44 Zn4_9 1_555 1_555
C27_30 N7_30 1_555 1_555
C28_30 N11_30 1_555 1_555
C29_30 C30_30 1_555 1_555
C31_30 N11_30 1_555 1_555
Zn4_35 N2_30 1_555 1_555
Zn6_22 N1_30 1_555 1_555
N1_30 C1_30 1_555 1_555
C1_30 H1_30 1_555 1_555
N2_30 C1_30 1_555 1_555
C2_30 N2_30 1_555 1_555
C3_30 C2_30 1_555 1_555
C4_30 N1_30 1_555 1_555
N10_22 C3_30 1_555 1_555
C5_30 N10_22 1_555 1_555
H2_30 C5_30 1_555 1_555
N4_30 C2_30 1_555 1_555
N5_30 C4_30 1_555 1_555
H3_30 N5_30 1_555 1_555
H4_30 N5_30 1_555 1_555
O1_45 Zn4_35 1_555 1_555
C20_30 O6_18 1_555 1_555
O6_18 Zn6_22 1_555 1_555
O7_30 C20_30 1_555 1_555
C21_30 C20_30 1_555 1_555
C22_30 C21_30 1_555 1_555
H13_30 C22_30 1_555 1_555
C23_30 C22_30 1_555 1_555
H14_30 C23_30 1_555 1_555
C24_30 C23_30 1_555 1_555
C25_30 C24_30 1_555 1_555
H15_30 C25_30 1_555 1_555
C26_30 C21_30 1_555 1_555
H16_30 C26_30 1_555 1_555
Zn9_12 O14_18 1_555 1_555
C46_30 O14_18 1_555 1_555
O16_30 C46_30 1_555 1_555
C47_30 C46_30 1_555 1_555
C48_30 C47_30 1_555 1_555
H29_30 C48_30 1_555 1_555
C49_30 C48_30 1_555 1_555
H30_30 C49_30 1_555 1_555
C50_30 C24_30 1_555 1_555
C51_30 C50_30 1_555 1_555
H31_30 C51_30 1_555 1_555
C52_30 C47_30 1_555 1_555
H32_30 C52_30 1_555 1_555
C3_30 C4_30 1_555 1_555
C5_30 N4_30 1_555 1_555
C25_30 C26_30 1_555 1_555
C49_30 C50_30 1_555 1_555
C51_30 C52_30 1_555 1_555
Zn4_36 N2_31 1_555 1_555
Zn6_24 N1_31 1_555 1_555
N1_31 C1_31 1_555 1_555
C1_31 H1_31 1_555 1_555
N2_31 C1_31 1_555 1_555
C2_31 N2_31 1_555 1_555
C3_31 C2_31 1_555 1_555
C4_31 N1_31 1_555 1_555
N10_24 C3_31 1_555 1_555
C5_31 N10_24 1_555 1_555
H2_31 C5_31 1_555 1_555
N4_31 C2_31 1_555 1_555
N5_31 C4_31 1_555 1_555
H3_31 N5_31 1_555 1_555
H4_31 N5_31 1_555 1_555
O1_46 Zn4_36 1_555 1_555
C20_31 O6_19 1_555 1_555
O6_19 Zn6_24 1_555 1_555
O7_31 C20_31 1_555 1_555
C21_31 C20_31 1_555 1_555
C22_31 C21_31 1_555 1_555
H13_31 C22_31 1_555 1_555
C23_31 C22_31 1_555 1_555
H14_31 C23_31 1_555 1_555
C24_31 C23_31 1_555 1_555
C25_31 C24_31 1_555 1_555
H15_31 C25_31 1_555 1_555
C26_31 C21_31 1_555 1_555
H16_31 C26_31 1_555 1_555
Zn4_10 N4_31 1_555 1_555
Zn7_3 N6_31 1_555 1_555
Zn9_11 O14_19 1_555 1_555
N6_31 C27_31 1_555 1_555
C27_31 H17_31 1_555 1_555
N7_31 Zn4_10 1_555 1_555
C28_31 N7_31 1_555 1_555
C29_31 C28_31 1_555 1_555
C30_31 N6_31 1_555 1_555
N9_24 C29_31 1_555 1_555
C31_31 N9_24 1_555 1_555
H18_31 C31_31 1_555 1_555
N11_31 Zn4_36 1_555 1_555
N12_31 C30_31 1_555 1_555
H19_31 N12_31 1_555 1_555
H20_31 N12_31 1_555 1_555
C46_31 O14_19 1_555 1_555
O15_31 Zn7_3 1_555 1_555
O16_31 C46_31 1_555 1_555
C47_31 C46_31 1_555 1_555
C48_31 C47_31 1_555 1_555
H29_31 C48_31 1_555 1_555
C49_31 C48_31 1_555 1_555
H30_31 C49_31 1_555 1_555
C50_31 C24_31 1_555 1_555
C51_31 C50_31 1_555 1_555
H31_31 C51_31 1_555 1_555
C52_31 C47_31 1_555 1_555
H32_31 C52_31 1_555 1_555
C3_31 C4_31 1_555 1_555
C5_31 N4_31 1_555 1_555
O1_46 Zn4_10 1_555 1_555
C25_31 C26_31 1_555 1_555
C27_31 N7_31 1_555 1_555
C28_31 N11_31 1_555 1_555
C29_31 C30_31 1_555 1_555
C31_31 N11_31 1_555 1_555
C49_31 C50_31 1_555 1_555
C51_31 C52_31 1_555 1_555
Zn4_34 N2_32 1_555 1_555
Zn6_23 N1_32 1_555 1_555
N1_32 C1_32 1_555 1_555
C1_32 H1_32 1_555 1_555
N2_32 C1_32 1_555 1_555
C2_32 N2_32 1_555 1_555
C3_32 C2_32 1_555 1_555
C4_32 N1_32 1_555 1_555
N10_23 C3_32 1_555 1_555
C5_32 N10_23 1_555 1_555
H2_32 C5_32 1_555 1_555
N4_32 C2_32 1_555 1_555
N5_32 C4_32 1_555 1_555
H3_32 N5_32 1_555 1_555
H4_32 N5_32 1_555 1_555
O1_47 Zn4_34 1_555 1_555
C20_32 O6_20 1_555 1_555
O6_20 Zn6_23 1_555 1_555
O7_32 C20_32 1_555 1_555
C21_32 C20_32 1_555 1_555
C22_32 C21_32 1_555 1_555
H13_32 C22_32 1_555 1_555
C23_32 C22_32 1_555 1_555
H14_32 C23_32 1_555 1_555
C24_32 C23_32 1_555 1_555
C25_32 C24_32 1_555 1_555
H15_32 C25_32 1_555 1_555
C26_32 C21_32 1_555 1_555
H16_32 C26_32 1_555 1_555
Zn9_9 O14_20 1_555 1_555
C46_32 O14_20 1_555 1_555
O16_32 C46_32 1_555 1_555
C47_32 C46_32 1_555 1_555
C48_32 C47_32 1_555 1_555
H29_32 C48_32 1_555 1_555
C49_32 C48_32 1_555 1_555
H30_32 C49_32 1_555 1_555
C50_32 C24_32 1_555 1_555
C51_32 C50_32 1_555 1_555
H31_32 C51_32 1_555 1_555
C52_32 C47_32 1_555 1_555
H32_32 C52_32 1_555 1_555
C3_32 C4_32 1_555 1_555
C5_32 N4_32 1_555 1_555
C25_32 C26_32 1_555 1_555
C49_32 C50_32 1_555 1_555
C51_32 C52_32 1_555 1_555
Zn7_2 N6_32 1_555 1_555
N6_32 C27_32 1_555 1_555
C27_32 H17_32 1_555 1_555
N7_32 Zn4_12 1_555 1_555
C28_32 N7_32 1_555 1_555
C29_32 C28_32 1_555 1_555
C30_32 N6_32 1_555 1_555
N9_23 C29_32 1_555 1_555
C31_32 N9_23 1_555 1_555
H18_32 C31_32 1_555 1_555
N12_32 C30_32 1_555 1_555
H19_32 N12_32 1_555 1_555
H20_32 N12_32 1_555 1_555
O15_32 Zn7_2 1_555 1_555
O1_48 Zn4_12 1_555 1_555
C27_32 N7_32 1_555 1_555
C28_32 N11_32 1_555 1_555
C29_32 C30_32 1_555 1_555
C31_32 N11_32 1_555 1_555
Zn4_25 N2_33 1_555 1_555
Zn6_18 N1_33 1_555 1_555
N1_33 C1_33 1_555 1_555
C1_33 H1_33 1_555 1_555
N2_33 C1_33 1_555 1_555
C2_33 N2_33 1_555 1_555
C3_33 C2_33 1_555 1_555
C4_33 N1_33 1_555 1_555
N10_18 C3_33 1_555 1_555
C5_33 N10_18 1_555 1_555
H2_33 C5_33 1_555 1_555
N4_33 C2_33 1_555 1_555
N5_33 C4_33 1_555 1_555
H3_33 N5_33 1_555 1_555
H4_33 N5_33 1_555 1_555
O1_49 Zn4_25 1_555 1_555
C20_33 O6_21 1_555 1_555
O6_21 Zn6_18 1_555 1_555
O7_33 C20_33 1_555 1_555
C21_33 C20_33 1_555 1_555
C22_33 C21_33 1_555 1_555
H13_33 C22_33 1_555 1_555
C23_33 C22_33 1_555 1_555
H14_33 C23_33 1_555 1_555
C24_33 C23_33 1_555 1_555
C25_33 C24_33 1_555 1_555
H15_33 C25_33 1_555 1_555
C26_33 C21_33 1_555 1_555
H16_33 C26_33 1_555 1_555
Zn4_3 N4_33 1_555 1_555
Zn7_8 N6_33 1_555 1_555
Zn9_2 O14_21 1_555 1_555
N6_33 C27_33 1_555 1_555
C27_33 H17_33 1_555 1_555
N7_33 Zn4_3 1_555 1_555
C28_33 N7_33 1_555 1_555
C29_33 C28_33 1_555 1_555
C30_33 N6_33 1_555 1_555
N9_18 C29_33 1_555 1_555
C31_33 N9_18 1_555 1_555
H18_33 C31_33 1_555 1_555
N11_33 Zn4_25 1_555 1_555
N12_33 C30_33 1_555 1_555
H19_33 N12_33 1_555 1_555
H20_33 N12_33 1_555 1_555
C46_33 O14_21 1_555 1_555
O15_33 Zn7_8 1_555 1_555
O16_33 C46_33 1_555 1_555
C47_33 C46_33 1_555 1_555
C48_33 C47_33 1_555 1_555
H29_33 C48_33 1_555 1_555
C49_33 C48_33 1_555 1_555
H30_33 C49_33 1_555 1_555
C50_33 C24_33 1_555 1_555
C51_33 C50_33 1_555 1_555
H31_33 C51_33 1_555 1_555
C52_33 C47_33 1_555 1_555
H32_33 C52_33 1_555 1_555
C3_33 C4_33 1_555 1_555
C5_33 N4_33 1_555 1_555
O1_49 Zn4_3 1_555 1_555
C25_33 C26_33 1_555 1_555
C27_33 N7_33 1_555 1_555
C28_33 N11_33 1_555 1_555
C29_33 C30_33 1_555 1_555
C31_33 N11_33 1_555 1_555
C49_33 C50_33 1_555 1_555
C51_33 C52_33 1_555 1_555
Zn7_5 N6_34 1_555 1_555
N6_34 C27_34 1_555 1_555
C27_34 H17_34 1_555 1_555
N7_34 Zn4 1_555 1_555
C28_34 N7_34 1_555 1_555
C29_34 C28_34 1_555 1_555
C30_34 N6_34 1_555 1_555
N9_17 C29_34 1_555 1_555
C31_34 N9_17 1_555 1_555
H18_34 C31_34 1_555 1_555
N12_34 C30_34 1_555 1_555
H19_34 N12_34 1_555 1_555
H20_34 N12_34 1_555 1_555
O15_34 Zn7_5 1_555 1_555
O1_50 Zn4 1_555 1_555
C27_34 N7_34 1_555 1_555
C28_34 N11_34 1_555 1_555
C29_34 C30_34 1_555 1_555
C31_34 N11_34 1_555 1_555
Zn4_27 N2_34 1_555 1_555
Zn6_17 N1_34 1_555 1_555
N1_34 C1_34 1_555 1_555
C1_34 H1_34 1_555 1_555
N2_34 C1_34 1_555 1_555
C2_34 N2_34 1_555 1_555
C3_34 C2_34 1_555 1_555
C4_34 N1_34 1_555 1_555
N10_17 C3_34 1_555 1_555
C5_34 N10_17 1_555 1_555
H2_34 C5_34 1_555 1_555
N4_34 C2_34 1_555 1_555
N5_34 C4_34 1_555 1_555
H3_34 N5_34 1_555 1_555
H4_34 N5_34 1_555 1_555
O1_51 Zn4_27 1_555 1_555
C20_34 O6_22 1_555 1_555
O6_22 Zn6_17 1_555 1_555
O7_34 C20_34 1_555 1_555
C21_34 C20_34 1_555 1_555
C22_34 C21_34 1_555 1_555
H13_34 C22_34 1_555 1_555
C23_34 C22_34 1_555 1_555
H14_34 C23_34 1_555 1_555
C24_34 C23_34 1_555 1_555
C25_34 C24_34 1_555 1_555
H15_34 C25_34 1_555 1_555
C26_34 C21_34 1_555 1_555
H16_34 C26_34 1_555 1_555
Zn9_4 O14_22 1_555 1_555
C46_34 O14_22 1_555 1_555
O16_34 C46_34 1_555 1_555
C47_34 C46_34 1_555 1_555
C48_34 C47_34 1_555 1_555
H29_34 C48_34 1_555 1_555
C49_34 C48_34 1_555 1_555
H30_34 C49_34 1_555 1_555
C50_34 C24_34 1_555 1_555
C51_34 C50_34 1_555 1_555
H31_34 C51_34 1_555 1_555
C52_34 C47_34 1_555 1_555
H32_34 C52_34 1_555 1_555
C3_34 C4_34 1_555 1_555
C5_34 N4_34 1_555 1_555
C25_34 C26_34 1_555 1_555
C49_34 C50_34 1_555 1_555
C51_34 C52_34 1_555 1_555
Zn4_28 N2_35 1_555 1_555
Zn6_19 N1_35 1_555 1_555
N1_35 C1_35 1_555 1_555
C1_35 H1_35 1_555 1_555
N2_35 C1_35 1_555 1_555
C2_35 N2_35 1_555 1_555
C3_35 C2_35 1_555 1_555
C4_35 N1_35 1_555 1_555
N10_19 C3_35 1_555 1_555
C5_35 N10_19 1_555 1_555
H2_35 C5_35 1_555 1_555
N4_35 C2_35 1_555 1_555
N5_35 C4_35 1_555 1_555
H3_35 N5_35 1_555 1_555
H4_35 N5_35 1_555 1_555
O1_52 Zn4_28 1_555 1_555
C20_35 O6_23 1_555 1_555
O6_23 Zn6_19 1_555 1_555
O7_35 C20_35 1_555 1_555
C21_35 C20_35 1_555 1_555
C22_35 C21_35 1_555 1_555
H13_35 C22_35 1_555 1_555
C23_35 C22_35 1_555 1_555
H14_35 C23_35 1_555 1_555
C24_35 C23_35 1_555 1_555
C25_35 C24_35 1_555 1_555
H15_35 C25_35 1_555 1_555
C26_35 C21_35 1_555 1_555
H16_35 C26_35 1_555 1_555
Zn4_2 N4_35 1_555 1_555
Zn7_7 N6_35 1_555 1_555
Zn9_3 O14_23 1_555 1_555
N6_35 C27_35 1_555 1_555
C27_35 H17_35 1_555 1_555
N7_35 Zn4_2 1_555 1_555
C28_35 N7_35 1_555 1_555
C29_35 C28_35 1_555 1_555
C30_35 N6_35 1_555 1_555
N9_19 C29_35 1_555 1_555
C31_35 N9_19 1_555 1_555
H18_35 C31_35 1_555 1_555
N11_35 Zn4_28 1_555 1_555
N12_35 C30_35 1_555 1_555
H19_35 N12_35 1_555 1_555
H20_35 N12_35 1_555 1_555
C46_35 O14_23 1_555 1_555
O15_35 Zn7_7 1_555 1_555
O16_35 C46_35 1_555 1_555
C47_35 C46_35 1_555 1_555
C48_35 C47_35 1_555 1_555
H29_35 C48_35 1_555 1_555
C49_35 C48_35 1_555 1_555
H30_35 C49_35 1_555 1_555
C50_35 C24_35 1_555 1_555
C51_35 C50_35 1_555 1_555
H31_35 C51_35 1_555 1_555
C52_35 C47_35 1_555 1_555
H32_35 C52_35 1_555 1_555
C3_35 C4_35 1_555 1_555
C5_35 N4_35 1_555 1_555
O1_52 Zn4_2 1_555 1_555
C25_35 C26_35 1_555 1_555
C27_35 N7_35 1_555 1_555
C28_35 N11_35 1_555 1_555
C29_35 C30_35 1_555 1_555
C31_35 N11_35 1_555 1_555
C49_35 C50_35 1_555 1_555
C51_35 C52_35 1_555 1_555
Zn4_26 N2_36 1_555 1_555
Zn6_20 N1_36 1_555 1_555
N1_36 C1_36 1_555 1_555
C1_36 H1_36 1_555 1_555
N2_36 C1_36 1_555 1_555
C2_36 N2_36 1_555 1_555
C3_36 C2_36 1_555 1_555
C4_36 N1_36 1_555 1_555
N10_20 C3_36 1_555 1_555
C5_36 N10_20 1_555 1_555
H2_36 C5_36 1_555 1_555
N4_36 C2_36 1_555 1_555
N5_36 C4_36 1_555 1_555
H3_36 N5_36 1_555 1_555
H4_36 N5_36 1_555 1_555
O1_53 Zn4_26 1_555 1_555
C20_36 O6_24 1_555 1_555
O6_24 Zn6_20 1_555 1_555
O7_36 C20_36 1_555 1_555
C21_36 C20_36 1_555 1_555
C22_36 C21_36 1_555 1_555
H13_36 C22_36 1_555 1_555
C23_36 C22_36 1_555 1_555
H14_36 C23_36 1_555 1_555
C24_36 C23_36 1_555 1_555
C25_36 C24_36 1_555 1_555
H15_36 C25_36 1_555 1_555
C26_36 C21_36 1_555 1_555
H16_36 C26_36 1_555 1_555
Zn9 O14_24 1_555 1_555
C46_36 O14_24 1_555 1_555
O16_36 C46_36 1_555 1_555
C47_36 C46_36 1_555 1_555
C48_36 C47_36 1_555 1_555
H29_36 C48_36 1_555 1_555
C49_36 C48_36 1_555 1_555
H30_36 C49_36 1_555 1_555
C50_36 C24_36 1_555 1_555
C51_36 C50_36 1_555 1_555
H31_36 C51_36 1_555 1_555
C52_36 C47_36 1_555 1_555
H32_36 C52_36 1_555 1_555
C3_36 C4_36 1_555 1_555
C5_36 N4_36 1_555 1_555
C25_36 C26_36 1_555 1_555
C49_36 C50_36 1_555 1_555
C51_36 C52_36 1_555 1_555
Zn7_6 N6_36 1_555 1_555
N6_36 C27_36 1_555 1_555
C27_36 H17_36 1_555 1_555
N7_36 Zn4_4 1_555 1_555
C28_36 N7_36 1_555 1_555
C29_36 C28_36 1_555 1_555
C30_36 N6_36 1_555 1_555
N9_20 C29_36 1_555 1_555
C31_36 N9_20 1_555 1_555
H18_36 C31_36 1_555 1_555
N12_36 C30_36 1_555 1_555
H19_36 N12_36 1_555 1_555
H20_36 N12_36 1_555 1_555
O15_36 Zn7_6 1_555 1_555
O1_54 Zn4_4 1_555 1_555
C27_36 N7_36 1_555 1_555
C28_36 N11_36 1_555 1_555
C29_36 C30_36 1_555 1_555
C31_36 N11_36 1_555 1_555
Zn4_17 N2_37 1_555 1_555
Zn9_4 N1_37 1_555 1_555
N1_37 C1_37 1_555 1_555
C1_37 H1_37 1_555 1_555
N2_37 C1_37 1_555 1_555
O1_55 Zn4_17 1_555 1_555
C29_37 C28_37 1_555 1_555
N10_4 C29_37 1_555 1_555
C31_37 N10_4 1_555 1_555
H18_37 C31_37 1_555 1_555
N11_37 Zn4_17 1_555 1_555
N12_37 C30_37 1_555 1_555
H19_37 N12_37 1_555 1_555
H20_37 N12_37 1_555 1_555
C28_37 N11_37 1_555 1_555
C29_37 C30_37 1_555 1_555
C31_37 N11_37 1_555 1_555
C3_37 C2_37 1_555 1_555
N9_4 C3_37 1_555 1_555
C5_37 N9_4 1_555 1_555
H2_37 C5_37 1_555 1_555
N4_37 C2_37 1_555 1_555
N5_37 C4_37 1_555 1_555
H3_37 N5_37 1_555 1_555
H4_37 N5_37 1_555 1_555
Zn4_43 N4_37 1_555 1_555
Zn6_4 N6_37 1_555 1_555
N6_37 C27_37 1_555 1_555
C27_37 H17_37 1_555 1_555
N7_37 Zn4_43 1_555 1_555
O15_37 Zn6_4 1_555 1_555
C3_37 C4_37 1_555 1_555
C5_37 N4_37 1_555 1_555
O1_56 Zn4_43 1_555 1_555
C27_37 N7_37 1_555 1_555
Zn4_19 N2_38 1_555 1_555
Zn9_3 N1_38 1_555 1_555
N1_38 C1_38 1_555 1_555
C1_38 H1_38 1_555 1_555
N2_38 C1_38 1_555 1_555
C2_38 N2_38 1_555 1_555
C3_38 C2_38 1_555 1_555
C4_38 N1_38 1_555 1_555
N9_3 C3_38 1_555 1_555
C5_38 N9_3 1_555 1_555
H2_38 C5_38 1_555 1_555
N4_38 C2_38 1_555 1_555
N5_38 C4_38 1_555 1_555
H3_38 N5_38 1_555 1_555
H4_38 N5_38 1_555 1_555
O1_57 Zn4_19 1_555 1_555
Zn4_41 N4_38 1_555 1_555
Zn6_3 N6_38 1_555 1_555
N6_38 C27_38 1_555 1_555
C27_38 H17_38 1_555 1_555
N7_38 Zn4_41 1_555 1_555
C28_38 N7_38 1_555 1_555
C29_38 C28_38 1_555 1_555
C30_38 N6_38 1_555 1_555
N10_3 C29_38 1_555 1_555
C31_38 N10_3 1_555 1_555
H18_38 C31_38 1_555 1_555
N11_38 Zn4_19 1_555 1_555
N12_38 C30_38 1_555 1_555
H19_38 N12_38 1_555 1_555
H20_38 N12_38 1_555 1_555
O15_38 Zn6_3 1_555 1_555
C3_38 C4_38 1_555 1_555
C5_38 N4_38 1_555 1_555
O1_57 Zn4_41 1_555 1_555
C27_38 N7_38 1_555 1_555
C28_38 N11_38 1_555 1_555
C29_38 C30_38 1_555 1_555
C31_38 N11_38 1_555 1_555
Zn4_20 N2_39 1_555 1_555
Zn9 N1_39 1_555 1_555
N1_39 C1_39 1_555 1_555
C1_39 H1_39 1_555 1_555
N2_39 C1_39 1_555 1_555
C2_39 N2_39 1_555 1_555
C3_39 C2_39 1_555 1_555
C4_39 N1_39 1_555 1_555
N9 C3_39 1_555 1_555
C5_39 N9 1_555 1_555
H2_39 C5_39 1_555 1_555
N4_39 C2_39 1_555 1_555
N5_39 C4_39 1_555 1_555
H3_39 N5_39 1_555 1_555
H4_39 N5_39 1_555 1_555
O1_58 Zn4_20 1_555 1_555
Zn4_42 N4_39 1_555 1_555
Zn6 N6_39 1_555 1_555
N6_39 C27_39 1_555 1_555
C27_39 H17_39 1_555 1_555
N7_39 Zn4_42 1_555 1_555
C28_39 N7_39 1_555 1_555
C29_39 C28_39 1_555 1_555
C30_39 N6_39 1_555 1_555
N10 C29_39 1_555 1_555
C31_39 N10 1_555 1_555
H18_39 C31_39 1_555 1_555
N11_39 Zn4_20 1_555 1_555
N12_39 C30_39 1_555 1_555
H19_39 N12_39 1_555 1_555
H20_39 N12_39 1_555 1_555
O15_39 Zn6 1_555 1_555
C3_39 C4_39 1_555 1_555
C5_39 N4_39 1_555 1_555
O1_58 Zn4_42 1_555 1_555
C27_39 N7_39 1_555 1_555
C28_39 N11_39 1_555 1_555
C29_39 C30_39 1_555 1_555
C31_39 N11_39 1_555 1_555
C3_40 C2_40 1_555 1_555
N9_2 C3_40 1_555 1_555
C5_40 N9_2 1_555 1_555
H2_40 C5_40 1_555 1_555
N4_40 C2_40 1_555 1_555
N5_40 C4_40 1_555 1_555
H3_40 N5_40 1_555 1_555
H4_40 N5_40 1_555 1_555
Zn4_44 N4_40 1_555 1_555
Zn6_2 N6_40 1_555 1_555
N6_40 C27_40 1_555 1_555
C27_40 H17_40 1_555 1_555
N7_40 Zn4_44 1_555 1_555
O15_40 Zn6_2 1_555 1_555
C3_40 C4_40 1_555 1_555
C5_40 N4_40 1_555 1_555
O1_59 Zn4_44 1_555 1_555
C27_40 N7_40 1_555 1_555
Zn4_18 N2_40 1_555 1_555
Zn9_2 N1_40 1_555 1_555
N1_40 C1_40 1_555 1_555
C1_40 H1_40 1_555 1_555
N2_40 C1_40 1_555 1_555
O1_60 Zn4_18 1_555 1_555
C29_40 C28_40 1_555 1_555
N10_2 C29_40 1_555 1_555
C31_40 N10_2 1_555 1_555
H18_40 C31_40 1_555 1_555
N11_40 Zn4_18 1_555 1_555
N12_40 C30_40 1_555 1_555
H19_40 N12_40 1_555 1_555
H20_40 N12_40 1_555 1_555
C28_40 N11_40 1_555 1_555
C29_40 C30_40 1_555 1_555
C31_40 N11_40 1_555 1_555
C3_41 C2_41 1_555 1_555
N9_10 C3_41 1_555 1_555
C5_41 N9_10 1_555 1_555
H2_41 C5_41 1_555 1_555
N4_41 C2_41 1_555 1_555
N5_41 C4_41 1_555 1_555
H3_41 N5_41 1_555 1_555
H4_41 N5_41 1_555 1_555
Zn4_47 N4_41 1_555 1_555
Zn6_10 N6_41 1_555 1_555
N6_41 C27_41 1_555 1_555
C27_41 H17_41 1_555 1_555
N7_41 Zn4_47 1_555 1_555
O15_41 Zn6_10 1_555 1_555
C3_41 C4_41 1_555 1_555
C5_41 N4_41 1_555 1_555
O1_61 Zn4_47 1_555 1_555
C27_41 N7_41 1_555 1_555
Zn4_21 N2_41 1_555 1_555
Zn9_10 N1_41 1_555 1_555
N1_41 C1_41 1_555 1_555
C1_41 H1_41 1_555 1_555
N2_41 C1_41 1_555 1_555
O1_62 Zn4_21 1_555 1_555
C29_41 C28_41 1_555 1_555
N10_10 C29_41 1_555 1_555
C31_41 N10_10 1_555 1_555
H18_41 C31_41 1_555 1_555
N11_41 Zn4_21 1_555 1_555
N12_41 C30_41 1_555 1_555
H19_41 N12_41 1_555 1_555
H20_41 N12_41 1_555 1_555
C28_41 N11_41 1_555 1_555
C29_41 C30_41 1_555 1_555
C31_41 N11_41 1_555 1_555
Zn4_23 N2_42 1_555 1_555
Zn9_9 N1_42 1_555 1_555
N1_42 C1_42 1_555 1_555
C1_42 H1_42 1_555 1_555
N2_42 C1_42 1_555 1_555
C2_42 N2_42 1_555 1_555
C3_42 C2_42 1_555 1_555
C4_42 N1_42 1_555 1_555
N9_9 C3_42 1_555 1_555
C5_42 N9_9 1_555 1_555
H2_42 C5_42 1_555 1_555
N4_42 C2_42 1_555 1_555
N5_42 C4_42 1_555 1_555
H3_42 N5_42 1_555 1_555
H4_42 N5_42 1_555 1_555
O1_63 Zn4_23 1_555 1_555
Zn4_45 N4_42 1_555 1_555
Zn6_9 N6_42 1_555 1_555
N6_42 C27_42 1_555 1_555
C27_42 H17_42 1_555 1_555
N7_42 Zn4_45 1_555 1_555
C28_42 N7_42 1_555 1_555
C29_42 C28_42 1_555 1_555
C30_42 N6_42 1_555 1_555
N10_9 C29_42 1_555 1_555
C31_42 N10_9 1_555 1_555
H18_42 C31_42 1_555 1_555
N11_42 Zn4_23 1_555 1_555
N12_42 C30_42 1_555 1_555
H19_42 N12_42 1_555 1_555
H20_42 N12_42 1_555 1_555
O15_42 Zn6_9 1_555 1_555
C3_42 C4_42 1_555 1_555
C5_42 N4_42 1_555 1_555
O1_63 Zn4_45 1_555 1_555
C27_42 N7_42 1_555 1_555
C28_42 N11_42 1_555 1_555
C29_42 C30_42 1_555 1_555
C31_42 N11_42 1_555 1_555
Zn4_24 N2_43 1_555 1_555
Zn9_11 N1_43 1_555 1_555
N1_43 C1_43 1_555 1_555
C1_43 H1_43 1_555 1_555
N2_43 C1_43 1_555 1_555
C2_43 N2_43 1_555 1_555
C3_43 C2_43 1_555 1_555
C4_43 N1_43 1_555 1_555
N9_11 C3_43 1_555 1_555
C5_43 N9_11 1_555 1_555
H2_43 C5_43 1_555 1_555
N4_43 C2_43 1_555 1_555
N5_43 C4_43 1_555 1_555
H3_43 N5_43 1_555 1_555
H4_43 N5_43 1_555 1_555
O1_64 Zn4_24 1_555 1_555
Zn4_46 N4_43 1_555 1_555
Zn6_11 N6_43 1_555 1_555
N6_43 C27_43 1_555 1_555
C27_43 H17_43 1_555 1_555
N7_43 Zn4_46 1_555 1_555
C28_43 N7_43 1_555 1_555
C29_43 C28_43 1_555 1_555
C30_43 N6_43 1_555 1_555
N10_11 C29_43 1_555 1_555
C31_43 N10_11 1_555 1_555
H18_43 C31_43 1_555 1_555
N11_43 Zn4_24 1_555 1_555
N12_43 C30_43 1_555 1_555
H19_43 N12_43 1_555 1_555
H20_43 N12_43 1_555 1_555
O15_43 Zn6_11 1_555 1_555
C3_43 C4_43 1_555 1_555
C5_43 N4_43 1_555 1_555
O1_64 Zn4_46 1_555 1_555
C27_43 N7_43 1_555 1_555
C28_43 N11_43 1_555 1_555
C29_43 C30_43 1_555 1_555
C31_43 N11_43 1_555 1_555
Zn4_22 N2_44 1_555 1_555
Zn9_12 N1_44 1_555 1_555
N1_44 C1_44 1_555 1_555
C1_44 H1_44 1_555 1_555
N2_44 C1_44 1_555 1_555
O1_65 Zn4_22 1_555 1_555
C29_44 C28_44 1_555 1_555
N10_12 C29_44 1_555 1_555
C31_44 N10_12 1_555 1_555
H18_44 C31_44 1_555 1_555
N11_44 Zn4_22 1_555 1_555
N12_44 C30_44 1_555 1_555
H19_44 N12_44 1_555 1_555
H20_44 N12_44 1_555 1_555
C28_44 N11_44 1_555 1_555
C29_44 C30_44 1_555 1_555
C31_44 N11_44 1_555 1_555
C3_44 C2_44 1_555 1_555
N9_12 C3_44 1_555 1_555
C5_44 N9_12 1_555 1_555
H2_44 C5_44 1_555 1_555
N4_44 C2_44 1_555 1_555
N5_44 C4_44 1_555 1_555
H3_44 N5_44 1_555 1_555
H4_44 N5_44 1_555 1_555
Zn4_48 N4_44 1_555 1_555
Zn6_12 N6_44 1_555 1_555
N6_44 C27_44 1_555 1_555
C27_44 H17_44 1_555 1_555
N7_44 Zn4_48 1_555 1_555
O15_44 Zn6_12 1_555 1_555
C3_44 C4_44 1_555 1_555
C5_44 N4_44 1_555 1_555
O1_66 Zn4_48 1_555 1_555
C27_44 N7_44 1_555 1_555
Zn4_13 N2_45 1_555 1_555
Zn9_5 N1_45 1_555 1_555
N1_45 C1_45 1_555 1_555
C1_45 H1_45 1_555 1_555
N2_45 C1_45 1_555 1_555
C2_45 N2_45 1_555 1_555
C3_45 C2_45 1_555 1_555
C4_45 N1_45 1_555 1_555
N9_5 C3_45 1_555 1_555
C5_45 N9_5 1_555 1_555
H2_45 C5_45 1_555 1_555
N4_45 C2_45 1_555 1_555
N5_45 C4_45 1_555 1_555
H3_45 N5_45 1_555 1_555
H4_45 N5_45 1_555 1_555
O1_67 Zn4_13 1_555 1_555
Zn4_39 N4_45 1_555 1_555
Zn6_5 N6_45 1_555 1_555
N6_45 C27_45 1_555 1_555
C27_45 H17_45 1_555 1_555
N7_45 Zn4_39 1_555 1_555
C28_45 N7_45 1_555 1_555
C29_45 C28_45 1_555 1_555
C30_45 N6_45 1_555 1_555
N10_5 C29_45 1_555 1_555
C31_45 N10_5 1_555 1_555
H18_45 C31_45 1_555 1_555
N11_45 Zn4_13 1_555 1_555
N12_45 C30_45 1_555 1_555
H19_45 N12_45 1_555 1_555
H20_45 N12_45 1_555 1_555
O15_45 Zn6_5 1_555 1_555
C3_45 C4_45 1_555 1_555
C5_45 N4_45 1_555 1_555
O1_67 Zn4_39 1_555 1_555
C27_45 N7_45 1_555 1_555
C28_45 N11_45 1_555 1_555
C29_45 C30_45 1_555 1_555
C31_45 N11_45 1_555 1_555
C3_46 C2_46 1_555 1_555
N9_6 C3_46 1_555 1_555
C5_46 N9_6 1_555 1_555
H2_46 C5_46 1_555 1_555
N4_46 C2_46 1_555 1_555
N5_46 C4_46 1_555 1_555
H3_46 N5_46 1_555 1_555
H4_46 N5_46 1_555 1_555
Zn4_37 N4_46 1_555 1_555
Zn6_6 N6_46 1_555 1_555
N6_46 C27_46 1_555 1_555
C27_46 H17_46 1_555 1_555
N7_46 Zn4_37 1_555 1_555
O15_46 Zn6_6 1_555 1_555
C3_46 C4_46 1_555 1_555
C5_46 N4_46 1_555 1_555
O1_68 Zn4_37 1_555 1_555
C27_46 N7_46 1_555 1_555
Zn4_15 N2_46 1_555 1_555
Zn9_6 N1_46 1_555 1_555
N1_46 C1_46 1_555 1_555
C1_46 H1_46 1_555 1_555
N2_46 C1_46 1_555 1_555
O1_69 Zn4_15 1_555 1_555
C29_46 C28_46 1_555 1_555
N10_6 C29_46 1_555 1_555
C31_46 N10_6 1_555 1_555
H18_46 C31_46 1_555 1_555
N11_46 Zn4_15 1_555 1_555
N12_46 C30_46 1_555 1_555
H19_46 N12_46 1_555 1_555
H20_46 N12_46 1_555 1_555
C28_46 N11_46 1_555 1_555
C29_46 C30_46 1_555 1_555
C31_46 N11_46 1_555 1_555
Zn4_16 N2_47 1_555 1_555
Zn9_8 N1_47 1_555 1_555
N1_47 C1_47 1_555 1_555
C1_47 H1_47 1_555 1_555
N2_47 C1_47 1_555 1_555
O1_70 Zn4_16 1_555 1_555
C29_47 C28_47 1_555 1_555
N10_8 C29_47 1_555 1_555
C31_47 N10_8 1_555 1_555
H18_47 C31_47 1_555 1_555
N11_47 Zn4_16 1_555 1_555
N12_47 C30_47 1_555 1_555
H19_47 N12_47 1_555 1_555
H20_47 N12_47 1_555 1_555
C28_47 N11_47 1_555 1_555
C29_47 C30_47 1_555 1_555
C31_47 N11_47 1_555 1_555
C3_47 C2_47 1_555 1_555
N9_8 C3_47 1_555 1_555
C5_47 N9_8 1_555 1_555
H2_47 C5_47 1_555 1_555
N4_47 C2_47 1_555 1_555
N5_47 C4_47 1_555 1_555
H3_47 N5_47 1_555 1_555
H4_47 N5_47 1_555 1_555
Zn4_38 N4_47 1_555 1_555
Zn6_8 N6_47 1_555 1_555
N6_47 C27_47 1_555 1_555
C27_47 H17_47 1_555 1_555
N7_47 Zn4_38 1_555 1_555
O15_47 Zn6_8 1_555 1_555
C3_47 C4_47 1_555 1_555
C5_47 N4_47 1_555 1_555
O1_71 Zn4_38 1_555 1_555
C27_47 N7_47 1_555 1_555
Zn4_14 N2_48 1_555 1_555
Zn9_7 N1_48 1_555 1_555
N1_48 C1_48 1_555 1_555
C1_48 H1_48 1_555 1_555
N2_48 C1_48 1_555 1_555
C2_48 N2_48 1_555 1_555
C3_48 C2_48 1_555 1_555
C4_48 N1_48 1_555 1_555
N9_7 C3_48 1_555 1_555
C5_48 N9_7 1_555 1_555
H2_48 C5_48 1_555 1_555
N4_48 C2_48 1_555 1_555
N5_48 C4_48 1_555 1_555
H3_48 N5_48 1_555 1_555
H4_48 N5_48 1_555 1_555
O1_72 Zn4_14 1_555 1_555
Zn4_40 N4_48 1_555 1_555
Zn6_7 N6_48 1_555 1_555
N6_48 C27_48 1_555 1_555
C27_48 H17_48 1_555 1_555
N7_48 Zn4_40 1_555 1_555
C28_48 N7_48 1_555 1_555
C29_48 C28_48 1_555 1_555
C30_48 N6_48 1_555 1_555
N10_7 C29_48 1_555 1_555
C31_48 N10_7 1_555 1_555
H18_48 C31_48 1_555 1_555
N11_48 Zn4_14 1_555 1_555
N12_48 C30_48 1_555 1_555
H19_48 N12_48 1_555 1_555
H20_48 N12_48 1_555 1_555
O15_48 Zn6_7 1_555 1_555
C3_48 C4_48 1_555 1_555
C5_48 N4_48 1_555 1_555
O1_72 Zn4_40 1_555 1_555
C27_48 N7_48 1_555 1_555
C28_48 N11_48 1_555 1_555
C29_48 C30_48 1_555 1_555
C31_48 N11_48 1_555 1_555
C20_37 O15_26 1_555 1_555
O7_37 C20_37 1_555 1_555
C21_37 C20_37 1_555 1_555
C22_37 C21_37 1_555 1_555
H13_37 C22_37 1_555 1_555
C23_37 C22_37 1_555 1_555
H14_37 C23_37 1_555 1_555
C24_37 C23_37 1_555 1_555
C25_37 C24_37 1_555 1_555
H15_37 C25_37 1_555 1_555
C26_37 C21_37 1_555 1_555
H16_37 C26_37 1_555 1_555
C46_37 O15_45 1_555 1_555
O16_37 C46_37 1_555 1_555
C47_37 C46_37 1_555 1_555
C48_37 C47_37 1_555 1_555
H29_37 C48_37 1_555 1_555
C49_37 C48_37 1_555 1_555
H30_37 C49_37 1_555 1_555
C50_37 C24_37 1_555 1_555
C51_37 C50_37 1_555 1_555
H31_37 C51_37 1_555 1_555
C52_37 C47_37 1_555 1_555
H32_37 C52_37 1_555 1_555
C25_37 C26_37 1_555 1_555
C49_37 C50_37 1_555 1_555
C51_37 C52_37 1_555 1_555
C20_38 O15_25 1_555 1_555
O7_38 C20_38 1_555 1_555
C21_38 C20_38 1_555 1_555
C22_38 C21_38 1_555 1_555
H13_38 C22_38 1_555 1_555
C23_38 C22_38 1_555 1_555
H14_38 C23_38 1_555 1_555
C24_38 C23_38 1_555 1_555
C25_38 C24_38 1_555 1_555
H15_38 C25_38 1_555 1_555
C26_38 C21_38 1_555 1_555
H16_38 C26_38 1_555 1_555
C46_38 O15_48 1_555 1_555
O16_38 C46_38 1_555 1_555
C47_38 C46_38 1_555 1_555
C48_38 C47_38 1_555 1_555
H29_38 C48_38 1_555 1_555
C49_38 C48_38 1_555 1_555
H30_38 C49_38 1_555 1_555
C50_38 C24_38 1_555 1_555
C51_38 C50_38 1_555 1_555
H31_38 C51_38 1_555 1_555
C52_38 C47_38 1_555 1_555
H32_38 C52_38 1_555 1_555
C25_38 C26_38 1_555 1_555
C49_38 C50_38 1_555 1_555
C51_38 C52_38 1_555 1_555
C20_39 O15_28 1_555 1_555
O7_39 C20_39 1_555 1_555
C21_39 C20_39 1_555 1_555
C22_39 C21_39 1_555 1_555
H13_39 C22_39 1_555 1_555
C23_39 C22_39 1_555 1_555
H14_39 C23_39 1_555 1_555
C24_39 C23_39 1_555 1_555
C25_39 C24_39 1_555 1_555
H15_39 C25_39 1_555 1_555
C26_39 C21_39 1_555 1_555
H16_39 C26_39 1_555 1_555
C46_39 O15_47 1_555 1_555
O16_39 C46_39 1_555 1_555
C47_39 C46_39 1_555 1_555
C48_39 C47_39 1_555 1_555
H29_39 C48_39 1_555 1_555
C49_39 C48_39 1_555 1_555
H30_39 C49_39 1_555 1_555
C50_39 C24_39 1_555 1_555
C51_39 C50_39 1_555 1_555
H31_39 C51_39 1_555 1_555
C52_39 C47_39 1_555 1_555
H32_39 C52_39 1_555 1_555
C25_39 C26_39 1_555 1_555
C49_39 C50_39 1_555 1_555
C51_39 C52_39 1_555 1_555
C20_40 O15_27 1_555 1_555
O7_40 C20_40 1_555 1_555
C21_40 C20_40 1_555 1_555
C22_40 C21_40 1_555 1_555
H13_40 C22_40 1_555 1_555
C23_40 C22_40 1_555 1_555
H14_40 C23_40 1_555 1_555
C24_40 C23_40 1_555 1_555
C25_40 C24_40 1_555 1_555
H15_40 C25_40 1_555 1_555
C26_40 C21_40 1_555 1_555
H16_40 C26_40 1_555 1_555
C46_40 O15_46 1_555 1_555
O16_40 C46_40 1_555 1_555
C47_40 C46_40 1_555 1_555
C48_40 C47_40 1_555 1_555
H29_40 C48_40 1_555 1_555
C49_40 C48_40 1_555 1_555
H30_40 C49_40 1_555 1_555
C50_40 C24_40 1_555 1_555
C51_40 C50_40 1_555 1_555
H31_40 C51_40 1_555 1_555
C52_40 C47_40 1_555 1_555
H32_40 C52_40 1_555 1_555
C25_40 C26_40 1_555 1_555
C49_40 C50_40 1_555 1_555
C51_40 C52_40 1_555 1_555
C20_41 O15_30 1_555 1_555
O7_41 C20_41 1_555 1_555
C21_41 C20_41 1_555 1_555
C22_41 C21_41 1_555 1_555
H13_41 C22_41 1_555 1_555
C23_41 C22_41 1_555 1_555
H14_41 C23_41 1_555 1_555
C24_41 C23_41 1_555 1_555
C25_41 C24_41 1_555 1_555
H15_41 C25_41 1_555 1_555
C26_41 C21_41 1_555 1_555
H16_41 C26_41 1_555 1_555
C46_41 O15_42 1_555 1_555
O16_41 C46_41 1_555 1_555
C47_41 C46_41 1_555 1_555
C48_41 C47_41 1_555 1_555
H29_41 C48_41 1_555 1_555
C49_41 C48_41 1_555 1_555
H30_41 C49_41 1_555 1_555
C50_41 C24_41 1_555 1_555
C51_41 C50_41 1_555 1_555
H31_41 C51_41 1_555 1_555
C52_41 C47_41 1_555 1_555
H32_41 C52_41 1_555 1_555
C25_41 C26_41 1_555 1_555
C49_41 C50_41 1_555 1_555
C51_41 C52_41 1_555 1_555
C20_42 O15_29 1_555 1_555
O7_42 C20_42 1_555 1_555
C21_42 C20_42 1_555 1_555
C22_42 C21_42 1_555 1_555
H13_42 C22_42 1_555 1_555
C23_42 C22_42 1_555 1_555
H14_42 C23_42 1_555 1_555
C24_42 C23_42 1_555 1_555
C25_42 C24_42 1_555 1_555
H15_42 C25_42 1_555 1_555
C26_42 C21_42 1_555 1_555
H16_42 C26_42 1_555 1_555
C46_42 O15_43 1_555 1_555
O16_42 C46_42 1_555 1_555
C47_42 C46_42 1_555 1_555
C48_42 C47_42 1_555 1_555
H29_42 C48_42 1_555 1_555
C49_42 C48_42 1_555 1_555
H30_42 C49_42 1_555 1_555
C50_42 C24_42 1_555 1_555
C51_42 C50_42 1_555 1_555
H31_42 C51_42 1_555 1_555
C52_42 C47_42 1_555 1_555
H32_42 C52_42 1_555 1_555
C25_42 C26_42 1_555 1_555
C49_42 C50_42 1_555 1_555
C51_42 C52_42 1_555 1_555
C20_43 O15_32 1_555 1_555
O7_43 C20_43 1_555 1_555
C21_43 C20_43 1_555 1_555
C22_43 C21_43 1_555 1_555
H13_43 C22_43 1_555 1_555
C23_43 C22_43 1_555 1_555
H14_43 C23_43 1_555 1_555
C24_43 C23_43 1_555 1_555
C25_43 C24_43 1_555 1_555
H15_43 C25_43 1_555 1_555
C26_43 C21_43 1_555 1_555
H16_43 C26_43 1_555 1_555
C46_43 O15_44 1_555 1_555
O16_43 C46_43 1_555 1_555
C47_43 C46_43 1_555 1_555
C48_43 C47_43 1_555 1_555
H29_43 C48_43 1_555 1_555
C49_43 C48_43 1_555 1_555
H30_43 C49_43 1_555 1_555
C50_43 C24_43 1_555 1_555
C51_43 C50_43 1_555 1_555
H31_43 C51_43 1_555 1_555
C52_43 C47_43 1_555 1_555
H32_43 C52_43 1_555 1_555
C25_43 C26_43 1_555 1_555
C49_43 C50_43 1_555 1_555
C51_43 C52_43 1_555 1_555
C20_44 O15_31 1_555 1_555
O7_44 C20_44 1_555 1_555
C21_44 C20_44 1_555 1_555
C22_44 C21_44 1_555 1_555
H13_44 C22_44 1_555 1_555
C23_44 C22_44 1_555 1_555
H14_44 C23_44 1_555 1_555
C24_44 C23_44 1_555 1_555
C25_44 C24_44 1_555 1_555
H15_44 C25_44 1_555 1_555
C26_44 C21_44 1_555 1_555
H16_44 C26_44 1_555 1_555
C46_44 O15_41 1_555 1_555
O16_44 C46_44 1_555 1_555
C47_44 C46_44 1_555 1_555
C48_44 C47_44 1_555 1_555
H29_44 C48_44 1_555 1_555
C49_44 C48_44 1_555 1_555
H30_44 C49_44 1_555 1_555
C50_44 C24_44 1_555 1_555
C51_44 C50_44 1_555 1_555
H31_44 C51_44 1_555 1_555
C52_44 C47_44 1_555 1_555
H32_44 C52_44 1_555 1_555
C25_44 C26_44 1_555 1_555
C49_44 C50_44 1_555 1_555
C51_44 C52_44 1_555 1_555
C20_45 O15_34 1_555 1_555
O7_45 C20_45 1_555 1_555
C21_45 C20_45 1_555 1_555
C22_45 C21_45 1_555 1_555
H13_45 C22_45 1_555 1_555
C23_45 C22_45 1_555 1_555
H14_45 C23_45 1_555 1_555
C24_45 C23_45 1_555 1_555
C25_45 C24_45 1_555 1_555
H15_45 C25_45 1_555 1_555
C26_45 C21_45 1_555 1_555
H16_45 C26_45 1_555 1_555
C46_45 O15_39 1_555 1_555
O16_45 C46_45 1_555 1_555
C47_45 C46_45 1_555 1_555
C48_45 C47_45 1_555 1_555
H29_45 C48_45 1_555 1_555
C49_45 C48_45 1_555 1_555
H30_45 C49_45 1_555 1_555
C50_45 C24_45 1_555 1_555
C51_45 C50_45 1_555 1_555
H31_45 C51_45 1_555 1_555
C52_45 C47_45 1_555 1_555
H32_45 C52_45 1_555 1_555
C25_45 C26_45 1_555 1_555
C49_45 C50_45 1_555 1_555
C51_45 C52_45 1_555 1_555
C20_46 O15_33 1_555 1_555
O7_46 C20_46 1_555 1_555
C21_46 C20_46 1_555 1_555
C22_46 C21_46 1_555 1_555
H13_46 C22_46 1_555 1_555
C23_46 C22_46 1_555 1_555
H14_46 C23_46 1_555 1_555
C24_46 C23_46 1_555 1_555
C25_46 C24_46 1_555 1_555
H15_46 C25_46 1_555 1_555
C26_46 C21_46 1_555 1_555
H16_46 C26_46 1_555 1_555
C46_46 O15_38 1_555 1_555
O16_46 C46_46 1_555 1_555
C47_46 C46_46 1_555 1_555
C48_46 C47_46 1_555 1_555
H29_46 C48_46 1_555 1_555
C49_46 C48_46 1_555 1_555
H30_46 C49_46 1_555 1_555
C50_46 C24_46 1_555 1_555
C51_46 C50_46 1_555 1_555
H31_46 C51_46 1_555 1_555
C52_46 C47_46 1_555 1_555
H32_46 C52_46 1_555 1_555
C25_46 C26_46 1_555 1_555
C49_46 C50_46 1_555 1_555
C51_46 C52_46 1_555 1_555
C20_47 O15_36 1_555 1_555
O7_47 C20_47 1_555 1_555
C21_47 C20_47 1_555 1_555
C22_47 C21_47 1_555 1_555
H13_47 C22_47 1_555 1_555
C23_47 C22_47 1_555 1_555
H14_47 C23_47 1_555 1_555
C24_47 C23_47 1_555 1_555
C25_47 C24_47 1_555 1_555
H15_47 C25_47 1_555 1_555
C26_47 C21_47 1_555 1_555
H16_47 C26_47 1_555 1_555
C46_47 O15_37 1_555 1_555
O16_47 C46_47 1_555 1_555
C47_47 C46_47 1_555 1_555
C48_47 C47_47 1_555 1_555
H29_47 C48_47 1_555 1_555
C49_47 C48_47 1_555 1_555
H30_47 C49_47 1_555 1_555
C50_47 C24_47 1_555 1_555
C51_47 C50_47 1_555 1_555
H31_47 C51_47 1_555 1_555
C52_47 C47_47 1_555 1_555
H32_47 C52_47 1_555 1_555
C25_47 C26_47 1_555 1_555
C49_47 C50_47 1_555 1_555
C51_47 C52_47 1_555 1_555
C20_48 O15_35 1_555 1_555
O7_48 C20_48 1_555 1_555
C21_48 C20_48 1_555 1_555
C22_48 C21_48 1_555 1_555
H13_48 C22_48 1_555 1_555
C23_48 C22_48 1_555 1_555
H14_48 C23_48 1_555 1_555
C24_48 C23_48 1_555 1_555
C25_48 C24_48 1_555 1_555
H15_48 C25_48 1_555 1_555
C26_48 C21_48 1_555 1_555
H16_48 C26_48 1_555 1_555
C46_48 O15_40 1_555 1_555
O16_48 C46_48 1_555 1_555
C47_48 C46_48 1_555 1_555
C48_48 C47_48 1_555 1_555
H29_48 C48_48 1_555 1_555
C49_48 C48_48 1_555 1_555
H30_48 C49_48 1_555 1_555
C50_48 C24_48 1_555 1_555
C51_48 C50_48 1_555 1_555
H31_48 C51_48 1_555 1_555
C52_48 C47_48 1_555 1_555
H32_48 C52_48 1_555 1_555
C25_48 C26_48 1_555 1_555
C49_48 C50_48 1_555 1_555
C51_48 C52_48 1_555 1_555

#END
