
###############################################################################
#
# This file contains modified crystal structure data generated from the
# MOF subset of the Cambridge Structural Database (CSD) v543 
# hosted by the Cambridge Crystallographic Data Centre (CCDC).
#
# This work is licensed under the Creative Commons
# Attribution-NonCommercial-ShareAlike 4.0 International License.
# To view a copy of this license, visit
# http://creativecommons.org/licenses/by-nc-sa/4.0/
# or send a letter to
# Creative Commons, PO Box 1866, Mountain View, CA 94042, USA.
#
# CIF created using the CSD Python API on 29 September 2022
# The structure has been converted into the P1 space group
# The structure has a 3D framework
# The original CSD entry SAPCOE is in the rhombohedral crystal system
# The framework has been calculated to contain at least 10.0% void space
# The void calculation uses a probe of radius 1.32A, grid spacing 0.4
#
###############################################################################

data_SAPCOE
_chemical_formula_moiety         '(C162 H126 Cu18 N18 O47)n'
_symmetry_cell_setting           triclinic
_symmetry_space_group_name_H-M   'P 1'
_symmetry_Int_Tables_number      1
_space_group_name_Hall           'P 1'
loop_
_symmetry_equiv_pos_site_id
_symmetry_equiv_pos_as_xyz
1 x,y,z
_cell_length_a                   27.012(4)
_cell_length_b                   27.012(4)
_cell_length_c                   6.9820(10)
_cell_angle_alpha                90
_cell_angle_beta                 90
_cell_angle_gamma                120
_cell_volume                     4411.88
loop_
_atom_site_label
_atom_site_type_symbol
_atom_site_fract_x
_atom_site_fract_y
_atom_site_fract_z
Cu1 Cu 0.123703(17) 0.345744(18) 0.73918(6)
O1 O 0.15486(9) 0.29467(10) 0.7092(3)
O2 O 0.09642(13) 0.39991(13) 0.7477(4)
O3 O 0.05376(14) 0.43726(13) 0.5818(4)
N1 N 0.09273(12) 0.33126(12) 0.4839(4)
C1 C 0.07322(16) 0.40487(17) 0.5973(5)
C2 C 0.09237(14) 0.29524(15) 0.3635(5)
H1 H 0.0777 0.2944 0.2392
C3 C 0.11244(14) 0.25598(14) 0.4020(5)
C4 C 0.14029(13) 0.25502(14) 0.5729(5)
C5 C 0.06919(17) 0.36742(17) 0.4281(5)
H2 H 0.0288 0.3433 0.3890
H3 H 0.0908 0.3917 0.3180
C6 C 0.10227(17) 0.21575(17) 0.2571(7)
H4 H 0.0849 0.2174 0.1406
C7 C 0.15261(18) 0.21060(18) 0.5941(7)
H5 H 0.1692 0.2075 0.7102
C8 C 0.1169(2) 0.1744(2) 0.2807(9)
H6 H 0.1103 0.1480 0.1807
C9 C 0.1412(2) 0.1714(2) 0.4507(8)
H7 H 0.1502 0.1419 0.4689
Cu3 Cu 0.209630(17) 0.320923(18) 0.92749(6)
O4 O 0.17847(9) 0.37200(10) 0.9575(3)
O5 O 0.05017(19) 0.27957(14) 0.9151(4)
Cu2 Cu 0.987589(18) 0.444626(25) 0.40585(6)
Cu1_2 Cu 0.654256(18) 0.777959(25) 0.73918(6)
O1_2 O 0.70533(10) 0.86019(13) 0.7092(3)
O2_2 O 0.60009(13) 0.69651(18) 0.7477(4)
O3_2 O 0.56274(13) 0.61650(19) 0.5818(4)
N1_2 N 0.66874(12) 0.76147(17) 0.4839(4)
C1_2 C 0.59513(17) 0.66835(23) 0.5973(5)
C2_2 C 0.70476(15) 0.79713(21) 0.3635(5)
H1_2 H 0.7056 0.7833 0.2392
C3_2 C 0.74402(14) 0.85646(20) 0.4020(5)
C4_2 C 0.74498(14) 0.88527(19) 0.5729(5)
C5_2 C 0.63258(17) 0.70177(24) 0.4281(5)
H2_2 H 0.6567 0.6855 0.3890
H3_2 H 0.6083 0.6991 0.3180
C6_2 C 0.78425(17) 0.88652(24) 0.2571(7)
H4_2 H 0.7826 0.8675 0.1406
C7_2 C 0.78940(18) 0.94201(25) 0.5941(7)
H5_2 H 0.7925 0.9617 0.7102
C8_2 C 0.8256(2) 0.9425(3) 0.2807(9)
H6_2 H 0.8520 0.9623 0.1807
C9_2 C 0.8286(2) 0.9698(3) 0.4507(8)
Cu2_2 Cu 0.555374(25) 0.542964(31) 0.40585(6)
Cu3_2 Cu 0.679077(18) 0.888708(25) 0.92749(6)
O4_2 O 0.62800(10) 0.80648(13) 0.9575(3)
O5_2 O 0.72043(14) 0.77059(24) 0.9151(4)
Cu2_3 Cu 0.457036(31) 0.012411(18) 0.40585(6)
Cu1_3 Cu 0.222041(25) 0.876297(17) 0.73918(6)
O1_3 O 0.13981(13) 0.84514(9) 0.7092(3)
O2_3 O 0.30349(18) 0.90358(13) 0.7477(4)
O3_3 O 0.38350(19) 0.94624(14) 0.5818(4)
N1_3 N 0.23853(17) 0.90727(12) 0.4839(4)
C1_3 C 0.33165(23) 0.92678(16) 0.5973(5)
C2_3 C 0.20287(21) 0.90763(14) 0.3635(5)
H1_3 H 0.2167 0.9223 0.2392
C3_3 C 0.14354(20) 0.88756(14) 0.4020(5)
C4_3 C 0.11473(19) 0.85971(13) 0.5729(5)
C5_3 C 0.29823(24) 0.93081(17) 0.4281(5)
H2_3 H 0.3145 0.9712 0.3890
H3_3 H 0.3009 0.9092 0.3180
C6_3 C 0.11348(24) 0.89773(17) 0.2571(7)
H4_3 H 0.1325 0.9151 0.1406
C7_3 C 0.05799(25) 0.84739(18) 0.5941(7)
H5_3 H 0.0383 0.8308 0.7102
C8_3 C 0.0575(3) 0.8831(2) 0.2807(9)
H6_3 H 0.0377 0.8897 0.1807
C9_3 C 0.0302(3) 0.8588(2) 0.4507(8)
Cu3_3 Cu 0.111292(25) 0.790370(17) 0.92749(6)
O4_3 O 0.19352(13) 0.82153(9) 0.9575(3)
O5_3 O 0.22941(24) 0.94983(19) 0.9151(4)
Cu1_4 Cu 0.790370(17) 0.679077(18) 0.07251(6)
O1_4 O 0.82153(9) 0.62800(10) 0.0425(3)
O2_4 O 0.76309(13) 0.73324(13) 0.0810(4)
H5_4 H 0.8359 0.5408 0.0435
Cu3_4 Cu 0.876297(17) 0.654256(18) 0.26082(6)
O4_4 O 0.84514(9) 0.70533(10) 0.2908(3)
O5_4 O 0.71683(19) 0.61291(14) 0.2485(4)
N1_4 N 0.75940(12) 0.66459(12) 0.8172(4)
C1_4 C 0.73989(16) 0.73820(17) 0.9306(5)
C2_4 C 0.75904(14) 0.62857(15) 0.6968(5)
H1_4 H 0.7444 0.6277 0.5725
C3_4 C 0.77911(14) 0.58931(14) 0.7353(5)
C4_4 C 0.80696(13) 0.58835(14) 0.9062(5)
C5_4 C 0.73586(17) 0.70075(17) 0.7614(5)
H2_4 H 0.6955 0.6766 0.7223
H3_4 H 0.7575 0.7250 0.6513
C6_4 C 0.76894(17) 0.54908(17) 0.5904(7)
H4_4 H 0.7516 0.5507 0.4739
C7_4 C 0.81928(18) 0.54393(18) 0.9274(7)
C8_4 C 0.7836(2) 0.5077(2) 0.6140(9)
H6_4 H 0.7770 0.4813 0.5140
C9_4 C 0.8079(2) 0.5047(2) 0.7840(8)
H7_2 H 0.8169 0.4752 0.8022
Cu1_5 Cu 0.320923(18) 0.111292(25) 0.07251(6)
O1_5 O 0.37200(10) 0.19352(13) 0.0425(3)
O2_5 O 0.26676(13) 0.02984(18) 0.0810(4)
H5_5 H 0.4592 0.2950 0.0435
Cu3_5 Cu 0.345744(18) 0.222041(25) 0.26082(6)
O4_5 O 0.29467(10) 0.13981(13) 0.2908(3)
O5_5 O 0.38709(14) 0.10393(24) 0.2485(4)
Cu1_6 Cu 0.888708(25) 0.209630(17) 0.07251(6)
O1_6 O 0.80648(13) 0.17847(9) 0.0425(3)
O2_6 O 0.97016(18) 0.23691(13) 0.0810(4)
H5_6 H 0.7050 0.1641 0.0435
Cu3_6 Cu 0.777959(25) 0.123703(17) 0.26082(6)
O4_6 O 0.86019(13) 0.15486(9) 0.2908(3)
O5_6 O 0.89607(24) 0.28317(19) 0.2485(4)
O2_7 O 0.42975(13) 0.06658(13) 0.4144(4)
C1_5 C 0.40655(16) 0.07154(17) 0.2640(5)
C5_5 C 0.40252(17) 0.03409(17) 0.0948(5)
H2_5 H 0.3621 0.0100 0.0557
O4_7 O 0.51181(9) 0.03866(10) 0.6241(3)
O1_7 O 0.48819(9) 0.96134(10) 0.3759(3)
N1_5 N 0.42606(12) 0.99793(12) 0.1506(4)
C2_5 C 0.42570(14) 0.96191(15) 0.0302(5)
C3_5 C 0.44577(14) 0.92265(14) 0.0687(5)
C4_5 C 0.47362(13) 0.92169(14) 0.2396(5)
C7_5 C 0.48594(18) 0.87727(18) 0.2608(7)
H5_7 H 0.5025 0.8742 0.3769
C9_5 C 0.4745(2) 0.8381(2) 0.1174(8)
H7_3 H 0.4835 0.8086 0.1356
Cu3_7 Cu 0.542964(17) 0.987589(18) 0.59415(6)
O1_8 O 0.03866(10) 0.52686(13) 0.3759(3)
N1_6 N 0.00207(12) 0.42814(17) 0.1506(4)
C2_6 C 0.03809(15) 0.46380(21) 0.0302(5)
C3_6 C 0.07735(14) 0.52313(20) 0.0687(5)
C4_6 C 0.07831(14) 0.55194(19) 0.2396(5)
C7_6 C 0.12273(18) 0.60868(25) 0.2608(7)
H5_8 H 0.1258 0.6284 0.3769
C9_6 C 0.1619(2) 0.6365(3) 0.1174(8)
H7_4 H 0.1914 0.6750 0.1356
Cu3_8 Cu 0.012411(18) 0.555374(25) 0.59415(6)
O2_8 O 0.93342(13) 0.36318(18) 0.4144(4)
C1_6 C 0.92846(17) 0.33502(23) 0.2640(5)
C5_6 C 0.96591(17) 0.36844(24) 0.0948(5)
H2_6 H 0.9900 0.3522 0.0557
O4_8 O 0.96134(10) 0.47314(13) 0.6241(3)
O1_9 O 0.47314(13) 0.51181(9) 0.3759(3)
O2_9 O 0.63682(18) 0.57025(13) 0.4144(4)
N1_7 N 0.57186(17) 0.57394(12) 0.1506(4)
C1_7 C 0.66498(23) 0.59345(16) 0.2640(5)
C2_7 C 0.53620(21) 0.57430(14) 0.0302(5)
C3_7 C 0.47687(20) 0.55423(14) 0.0687(5)
C4_7 C 0.44806(19) 0.52638(13) 0.2396(5)
C5_7 C 0.63156(24) 0.59748(17) 0.0948(5)
H2_7 H 0.6478 0.6379 0.0557
C7_7 C 0.39132(25) 0.51406(18) 0.2608(7)
H5_9 H 0.3716 0.4975 0.3769
C9_7 C 0.3635(3) 0.5255(2) 0.1174(8)
H7_5 H 0.3250 0.5165 0.1356
Cu3_9 Cu 0.444626(25) 0.457036(17) 0.59415(6)
O4_9 O 0.52686(13) 0.48819(9) 0.6241(3)
O2_10 O 0.90358(13) 0.60009(13) 0.2523(4)
O3_4 O 0.94624(14) 0.56274(13) 0.4182(4)
N1_8 N 0.90727(12) 0.66874(12) 0.5161(4)
C1_8 C 0.92678(16) 0.59513(17) 0.4027(5)
C2_8 C 0.90763(14) 0.70476(15) 0.6365(5)
H1_5 H 0.9223 0.7056 0.7608
C3_8 C 0.88756(14) 0.74402(14) 0.5980(5)
C4_8 C 0.85971(13) 0.74498(14) 0.4271(5)
C5_8 C 0.93081(17) 0.63258(17) 0.5719(5)
H2_8 H 0.9712 0.6567 0.6110
H3_5 H 0.9092 0.6083 0.6820
C6_5 C 0.89773(17) 0.78425(17) 0.7429(7)
H4_5 H 0.9151 0.7826 0.8594
C7_8 C 0.84739(18) 0.78940(18) 0.4059(7)
H5_10 H 0.8308 0.7925 0.2898
C8_5 C 0.8831(2) 0.8256(2) 0.7193(9)
H6_5 H 0.8897 0.8520 0.8193
C9_8 C 0.8588(2) 0.8286(2) 0.5493(8)
H7_6 H 0.8498 0.8581 0.5311
O5_7 O 0.94983(19) 0.72043(14) 0.0849(4)
O2_11 O 0.39991(13) 0.30349(18) 0.2523(4)
O3_5 O 0.43726(13) 0.38350(19) 0.4182(4)
N1_9 N 0.33126(12) 0.23853(17) 0.5161(4)
C1_9 C 0.40487(17) 0.33165(23) 0.4027(5)
C2_9 C 0.29524(15) 0.20287(21) 0.6365(5)
H1_6 H 0.2944 0.2167 0.7608
C3_9 C 0.25598(14) 0.14354(20) 0.5980(5)
C4_9 C 0.25502(14) 0.11473(19) 0.4271(5)
C5_9 C 0.36742(17) 0.29823(24) 0.5719(5)
H2_9 H 0.3433 0.3145 0.6110
H3_6 H 0.3917 0.3009 0.6820
C6_6 C 0.21575(17) 0.11348(24) 0.7429(7)
H4_6 H 0.2174 0.1325 0.8594
C7_9 C 0.21060(18) 0.05799(25) 0.4059(7)
H5_11 H 0.2075 0.0383 0.2898
C8_6 C 0.1744(2) 0.0575(3) 0.7193(9)
H6_6 H 0.1480 0.0377 0.8193
C9_9 C 0.1714(2) 0.0302(3) 0.5493(8)
O5_8 O 0.27957(14) 0.22941(24) 0.0849(4)
O2_12 O 0.69651(18) 0.09642(13) 0.2523(4)
O3_6 O 0.61650(19) 0.05376(14) 0.4182(4)
N1_10 N 0.76147(17) 0.09273(12) 0.5161(4)
C1_10 C 0.66835(23) 0.07322(16) 0.4027(5)
C2_10 C 0.79713(21) 0.09237(14) 0.6365(5)
H1_7 H 0.7833 0.0777 0.7608
C3_10 C 0.85646(20) 0.11244(14) 0.5980(5)
C4_10 C 0.88527(19) 0.14029(13) 0.4271(5)
C5_10 C 0.70177(24) 0.06919(17) 0.5719(5)
H2_10 H 0.6855 0.0288 0.6110
H3_7 H 0.6991 0.0908 0.6820
C6_7 C 0.88652(24) 0.10227(17) 0.7429(7)
H4_7 H 0.8675 0.0849 0.8594
C7_10 C 0.94201(25) 0.15261(18) 0.4059(7)
H5_12 H 0.9617 0.1692 0.2898
C8_7 C 0.9425(3) 0.1169(2) 0.7193(9)
H6_7 H 0.9623 0.1103 0.8193
C9_10 C 0.9698(3) 0.1412(2) 0.5493(8)
O5_9 O 0.77059(24) 0.05017(19) 0.0849(4)
N1_11 N 0.24060(12) 0.33541(12) 0.1828(4)
C1_11 C 0.26011(16) 0.26180(17) 0.0694(5)
C2_11 C 0.24096(14) 0.37143(15) 0.3032(5)
H1_8 H 0.2556 0.3723 0.4275
C3_11 C 0.22089(14) 0.41069(14) 0.2647(5)
C4_11 C 0.19304(13) 0.41165(14) 0.0938(5)
C5_11 C 0.26414(17) 0.29925(17) 0.2386(5)
H2_11 H 0.3045 0.3234 0.2777
H3_8 H 0.2425 0.2750 0.3487
C6_8 C 0.23106(17) 0.45092(17) 0.4096(7)
H4_8 H 0.2484 0.4493 0.5261
C7_11 C 0.18072(18) 0.45607(18) 0.0726(7)
C8_8 C 0.2164(2) 0.4923(2) 0.3860(9)
H6_8 H 0.2230 0.5187 0.4860
C9_11 C 0.1921(2) 0.4953(2) 0.2160(8)
H7_7 H 0.1831 0.5248 0.1978
O2_13 O 0.23691(13) 0.26676(13) 0.9190(4)
H5_13 H 0.1641 0.4592 0.9565
O5_10 O 0.28317(19) 0.38709(14) 0.7515(4)
O2_14 O 0.73324(13) 0.97016(18) 0.9190(4)
H5_14 H 0.5408 0.7050 0.9565
O5_11 O 0.61291(14) 0.89607(24) 0.7515(4)
O2_15 O 0.02984(18) 0.76309(13) 0.9190(4)
H5_15 H 0.2950 0.8359 0.9565
O5_12 O 0.10393(24) 0.71683(19) 0.7515(4)
N1_12 N 0.57394(12) 0.00207(12) 0.8494(4)
C2_12 C 0.57430(14) 0.03809(15) 0.9698(5)
C3_12 C 0.55423(14) 0.07735(14) 0.9313(5)
C4_12 C 0.52638(13) 0.07831(14) 0.7604(5)
C7_12 C 0.51406(18) 0.12273(18) 0.7392(7)
H5_16 H 0.4975 0.1258 0.6231
C9_12 C 0.5255(2) 0.1619(2) 0.8826(8)
H7_8 H 0.5165 0.1914 0.8644
O2_16 O 0.57025(13) 0.93342(13) 0.5856(4)
C1_12 C 0.59345(16) 0.92846(17) 0.7360(5)
C5_12 C 0.59748(17) 0.96591(17) 0.9052(5)
H2_12 H 0.6379 0.9900 0.9443
O2_17 O 0.06658(13) 0.63682(18) 0.5856(4)
C1_13 C 0.07154(17) 0.66498(23) 0.7360(5)
C5_13 C 0.03409(17) 0.63156(24) 0.9052(5)
H2_13 H 0.0100 0.6478 0.9443
N1_13 N 0.99793(12) 0.57186(17) 0.8494(4)
C2_13 C 0.96191(15) 0.53620(21) 0.9698(5)
C3_13 C 0.92265(14) 0.47687(20) 0.9313(5)
C4_13 C 0.92169(14) 0.44806(19) 0.7604(5)
C7_13 C 0.87727(18) 0.39132(25) 0.7392(7)
H5_17 H 0.8742 0.3716 0.6231
C9_13 C 0.8381(2) 0.3635(3) 0.8826(8)
H7_9 H 0.8086 0.3250 0.8644
O2_18 O 0.36318(18) 0.42975(13) 0.5856(4)
N1_14 N 0.42814(17) 0.42606(12) 0.8494(4)
C1_14 C 0.33502(23) 0.40655(16) 0.7360(5)
C2_14 C 0.46380(21) 0.42570(14) 0.9698(5)
C3_14 C 0.52313(20) 0.44577(14) 0.9313(5)
C4_14 C 0.55194(19) 0.47362(13) 0.7604(5)
C5_14 C 0.36844(24) 0.40252(17) 0.9052(5)
H2_14 H 0.3522 0.3621 0.9443
C7_14 C 0.60868(25) 0.48594(18) 0.7392(7)
H5_18 H 0.6284 0.5025 0.6231
C9_14 C 0.6365(3) 0.4745(2) 0.8826(8)
H7_10 H 0.6750 0.4835 0.8644
H7_11 H 0.8581 0.0083 0.4689
H7_12 H 0.9917 0.8498 0.4689
N1_15 N 0.33541(12) 0.09480(17) 0.8172(4)
C1_15 C 0.26180(17) 0.00168(23) 0.9306(5)
C2_15 C 0.37143(15) 0.13046(21) 0.6968(5)
H1_9 H 0.3723 0.1166 0.5725
C3_15 C 0.41069(14) 0.18979(20) 0.7353(5)
C4_15 C 0.41165(14) 0.21860(19) 0.9062(5)
C5_15 C 0.29925(17) 0.03510(24) 0.7614(5)
H2_15 H 0.3234 0.0188 0.7223
H3_9 H 0.2750 0.0324 0.6513
C6_9 C 0.45092(17) 0.21985(24) 0.5904(7)
H4_9 H 0.4493 0.2008 0.4739
C7_15 C 0.45607(18) 0.27534(25) 0.9274(7)
C8_9 C 0.4923(2) 0.2758(3) 0.6140(9)
H6_9 H 0.5187 0.2956 0.5140
C9_15 C 0.4953(2) 0.3031(3) 0.7840(8)
H7_13 H 0.5248 0.3416 0.8022
N1_16 N 0.90520(17) 0.24060(12) 0.8172(4)
C1_16 C 0.99832(23) 0.26011(16) 0.9306(5)
C2_16 C 0.86954(21) 0.24096(14) 0.6968(5)
H1_10 H 0.8834 0.2556 0.5725
C3_16 C 0.81021(20) 0.22089(14) 0.7353(5)
C4_16 C 0.78140(19) 0.19304(13) 0.9062(5)
C5_16 C 0.96490(24) 0.26414(17) 0.7614(5)
H2_16 H 0.9812 0.3045 0.7223
H3_10 H 0.9676 0.2425 0.6513
C6_10 C 0.78015(24) 0.23106(17) 0.5904(7)
H4_10 H 0.7992 0.2484 0.4739
C7_16 C 0.72466(25) 0.18072(18) 0.9274(7)
C8_10 C 0.7242(3) 0.2164(2) 0.6140(9)
H6_10 H 0.7044 0.2230 0.5140
C9_16 C 0.6969(3) 0.1921(2) 0.7840(8)
H7_14 H 0.6584 0.1831 0.8022
H3_11 H 0.4241 0.0584 0.9847
H1_11 H 0.4110 0.9611 0.9059
C6_11 C 0.43560(17) 0.88242(17) 0.9238(7)
H4_11 H 0.4182 0.8841 0.8073
C8_11 C 0.4502(2) 0.8411(2) 0.9474(9)
H6_11 H 0.4436 0.8147 0.8474
H1_12 H 0.0389 0.4500 0.9059
C6_12 C 0.11758(17) 0.55319(24) 0.9238(7)
H4_12 H 0.1159 0.5342 0.8073
C8_12 C 0.1589(2) 0.6092(3) 0.9474(9)
H6_12 H 0.1853 0.6290 0.8474
H3_12 H 0.9416 0.3658 0.9847
H1_13 H 0.5500 0.5890 0.9059
H3_13 H 0.6342 0.5759 0.9847
C6_13 C 0.44681(24) 0.56440(17) 0.9238(7)
H4_13 H 0.4658 0.5818 0.8073
C8_13 C 0.3908(3) 0.5498(2) 0.9474(9)
H6_13 H 0.3710 0.5564 0.8474
H7_15 H 0.1419 0.9917 0.5311
H7_16 H 0.0083 0.1502 0.5311
N1_17 N 0.66459(12) 0.90520(17) 0.1828(4)
C1_17 C 0.73820(17) 0.99832(23) 0.0694(5)
C2_17 C 0.62857(15) 0.86954(21) 0.3032(5)
H1_14 H 0.6277 0.8834 0.4275
C3_17 C 0.58931(14) 0.81021(20) 0.2647(5)
C4_17 C 0.58835(14) 0.78140(19) 0.0938(5)
C5_17 C 0.70075(17) 0.96490(24) 0.2386(5)
H2_17 H 0.6766 0.9812 0.2777
H3_14 H 0.7250 0.9676 0.3487
C6_14 C 0.54908(17) 0.78015(24) 0.4096(7)
H4_14 H 0.5507 0.7992 0.5261
C7_17 C 0.54393(18) 0.72466(25) 0.0726(7)
C8_14 C 0.5077(2) 0.7242(3) 0.3860(9)
H6_14 H 0.4813 0.7044 0.4860
C9_17 C 0.5047(2) 0.6969(3) 0.2160(8)
H7_17 H 0.4752 0.6584 0.1978
N1_18 N 0.09480(17) 0.75940(12) 0.1828(4)
C1_18 C 0.00168(23) 0.73989(16) 0.0694(5)
C2_18 C 0.13046(21) 0.75904(14) 0.3032(5)
H1_15 H 0.1166 0.7444 0.4275
C3_18 C 0.18979(20) 0.77911(14) 0.2647(5)
C4_18 C 0.21860(19) 0.80696(13) 0.0938(5)
C5_18 C 0.03510(24) 0.73586(17) 0.2386(5)
H2_18 H 0.0188 0.6955 0.2777
H3_15 H 0.0324 0.7575 0.3487
C6_15 C 0.21985(24) 0.76894(17) 0.4096(7)
H4_15 H 0.2008 0.7516 0.5261
C7_18 C 0.27534(25) 0.81928(18) 0.0726(7)
C8_15 C 0.2758(3) 0.7836(2) 0.3860(9)
H6_15 H 0.2956 0.7770 0.4860
C9_18 C 0.3031(3) 0.8079(2) 0.2160(8)
H7_18 H 0.3416 0.8169 0.1978
H1_16 H 0.5890 0.0389 0.0941
C6_16 C 0.56440(17) 0.11758(17) 0.0762(7)
H4_16 H 0.5818 0.1159 0.1927
C8_16 C 0.5498(2) 0.1589(2) 0.0526(9)
H6_16 H 0.5564 0.1853 0.1526
H3_16 H 0.5759 0.9416 0.0153
H3_17 H 0.0584 0.6342 0.0153
H1_17 H 0.9611 0.5500 0.0941
C6_17 C 0.88242(17) 0.44681(24) 0.0762(7)
H4_17 H 0.8841 0.4658 0.1927
C8_17 C 0.8411(2) 0.3908(3) 0.0526(9)
H6_17 H 0.8147 0.3710 0.1526
H1_18 H 0.4500 0.4110 0.0941
H3_18 H 0.3658 0.4241 0.0153
C6_18 C 0.55319(24) 0.43560(17) 0.0762(7)
H4_18 H 0.5342 0.4182 0.1927
C8_18 C 0.6092(3) 0.4502(2) 0.0526(9)
H6_18 H 0.6290 0.4436 0.1526
loop_
_geom_bond_atom_site_label_1
_geom_bond_atom_site_label_2
_geom_bond_site_symmetry_1
_geom_bond_site_symmetry_2
Cu1 O1 1_555 1_555
O1 C4 1_555 1_555
O2 Cu1 1_555 1_555
O3 C1 1_555 1_555
N1 Cu1 1_555 1_555
C1 O2 1_555 1_555
C2 N1 1_555 1_555
H1 C2 1_555 1_555
C3 C2 1_555 1_555
C4 C3 1_555 1_555
C5 N1 1_555 1_555
H2 C5 1_555 1_555
H3 C5 1_555 1_555
C6 C3 1_555 1_555
H4 C6 1_555 1_555
C7 C4 1_555 1_555
H5 C7 1_555 1_555
C8 C6 1_555 1_555
H6 C8 1_555 1_555
C9 C7 1_555 1_555
H7 C9 1_555 1_555
Cu3 O1 1_555 1_555
O4 Cu1 1_555 1_555
O5 Cu1 1_555 1_555
C1 C5 1_555 1_555
C8 C9 1_555 1_555
Cu3 O4 1_555 1_555
Cu1_2 O1_2 1_555 1_555
O1_2 C4_2 1_555 1_555
O2_2 Cu1_2 1_555 1_555
O3_2 C1_2 1_555 1_555
N1_2 Cu1_2 1_555 1_555
C1_2 O2_2 1_555 1_555
C2_2 N1_2 1_555 1_555
H1_2 C2_2 1_555 1_555
C3_2 C2_2 1_555 1_555
C4_2 C3_2 1_555 1_555
C5_2 N1_2 1_555 1_555
H2_2 C5_2 1_555 1_555
H3_2 C5_2 1_555 1_555
C6_2 C3_2 1_555 1_555
H4_2 C6_2 1_555 1_555
C7_2 C4_2 1_555 1_555
H5_2 C7_2 1_555 1_555
C8_2 C6_2 1_555 1_555
H6_2 C8_2 1_555 1_555
C9_2 C7_2 1_555 1_555
Cu2_2 O3_2 1_555 1_555
Cu3_2 O1_2 1_555 1_555
O4_2 Cu1_2 1_555 1_555
O5_2 Cu1_2 1_555 1_555
C1_2 C5_2 1_555 1_555
C8_2 C9_2 1_555 1_555
Cu3_2 O4_2 1_555 1_555
Cu1_3 O1_3 1_555 1_555
O1_3 C4_3 1_555 1_555
O2_3 Cu1_3 1_555 1_555
O3_3 C1_3 1_555 1_555
N1_3 Cu1_3 1_555 1_555
C1_3 O2_3 1_555 1_555
C2_3 N1_3 1_555 1_555
H1_3 C2_3 1_555 1_555
C3_3 C2_3 1_555 1_555
C4_3 C3_3 1_555 1_555
C5_3 N1_3 1_555 1_555
H2_3 C5_3 1_555 1_555
H3_3 C5_3 1_555 1_555
C6_3 C3_3 1_555 1_555
H4_3 C6_3 1_555 1_555
C7_3 C4_3 1_555 1_555
H5_3 C7_3 1_555 1_555
C8_3 C6_3 1_555 1_555
H6_3 C8_3 1_555 1_555
C9_3 C7_3 1_555 1_555
Cu3_3 O1_3 1_555 1_555
O4_3 Cu1_3 1_555 1_555
O5_3 Cu1_3 1_555 1_555
C1_3 C5_3 1_555 1_555
C8_3 C9_3 1_555 1_555
Cu3_3 O4_3 1_555 1_555
Cu1_4 O1_4 1_555 1_555
O2_4 Cu1_4 1_555 1_555
Cu3_4 O1_4 1_555 1_555
O4_4 Cu1_4 1_555 1_555
O5_4 Cu1_4 1_555 1_555
Cu3_4 O4_4 1_555 1_555
O5_2 C1_4 1_555 1_555
C2_4 N1_4 1_555 1_555
H1_4 C2_4 1_555 1_555
C3_4 C2_4 1_555 1_555
C4_4 C3_4 1_555 1_555
C5_4 N1_4 1_555 1_555
H2_4 C5_4 1_555 1_555
H3_4 C5_4 1_555 1_555
C6_4 C3_4 1_555 1_555
H4_4 C6_4 1_555 1_555
C7_4 C4_4 1_555 1_555
C8_4 C6_4 1_555 1_555
H6_4 C8_4 1_555 1_555
C9_4 C7_4 1_555 1_555
H7_2 C9_4 1_555 1_555
C1_4 C5_4 1_555 1_555
C8_4 C9_4 1_555 1_555
Cu1_5 O1_5 1_555 1_555
O2_5 Cu1_5 1_555 1_555
Cu3_5 O1_5 1_555 1_555
O4_5 Cu1_5 1_555 1_555
O5_5 Cu1_5 1_555 1_555
Cu3_5 O4_5 1_555 1_555
Cu1_6 O1_6 1_555 1_555
O2_6 Cu1_6 1_555 1_555
Cu3_6 O1_6 1_555 1_555
O4_6 Cu1_6 1_555 1_555
O5_6 Cu1_6 1_555 1_555
Cu3_6 O4_6 1_555 1_555
O2_7 Cu2_3 1_555 1_555
O5_5 C1_5 1_555 1_555
C1_5 O2_7 1_555 1_555
H2_5 C5_5 1_555 1_555
O4_7 Cu2_3 1_555 1_555
C1_5 C5_5 1_555 1_555
O1_7 C4_5 1_555 1_555
C2_5 N1_5 1_555 1_555
C3_5 C2_5 1_555 1_555
C4_5 C3_5 1_555 1_555
C7_5 C4_5 1_555 1_555
H5_7 C7_5 1_555 1_555
C9_5 C7_5 1_555 1_555
H7_3 C9_5 1_555 1_555
Cu3_7 O1_7 1_555 1_555
O1_8 C4_6 1_555 1_555
C2_6 N1_6 1_555 1_555
C3_6 C2_6 1_555 1_555
C4_6 C3_6 1_555 1_555
C7_6 C4_6 1_555 1_555
H5_8 C7_6 1_555 1_555
C9_6 C7_6 1_555 1_555
H7_4 C9_6 1_555 1_555
Cu3_8 O1_8 1_555 1_555
O2_8 Cu2 1_555 1_555
O5_6 C1_6 1_555 1_555
C1_6 O2_8 1_555 1_555
H2_6 C5_6 1_555 1_555
O4_8 Cu2 1_555 1_555
C1_6 C5_6 1_555 1_555
Cu2_2 O1_9 1_555 1_555
O1_9 C4_7 1_555 1_555
O2_9 Cu2_2 1_555 1_555
O5_4 C1_7 1_555 1_555
N1_7 Cu2_2 1_555 1_555
C1_7 O2_9 1_555 1_555
C2_7 N1_7 1_555 1_555
C3_7 C2_7 1_555 1_555
C4_7 C3_7 1_555 1_555
C5_7 N1_7 1_555 1_555
H2_7 C5_7 1_555 1_555
C7_7 C4_7 1_555 1_555
H5_9 C7_7 1_555 1_555
C9_7 C7_7 1_555 1_555
H7_5 C9_7 1_555 1_555
Cu3_9 O1_9 1_555 1_555
O4_9 Cu2_2 1_555 1_555
C1_7 C5_7 1_555 1_555
Cu3_9 O4_9 1_555 1_555
O4_4 C4_8 1_555 1_555
O2_10 Cu3_4 1_555 1_555
O3_4 C1_8 1_555 1_555
N1_8 Cu3_4 1_555 1_555
C1_8 O2_10 1_555 1_555
C2_8 N1_8 1_555 1_555
H1_5 C2_8 1_555 1_555
C3_8 C2_8 1_555 1_555
C4_8 C3_8 1_555 1_555
C5_8 N1_8 1_555 1_555
H2_8 C5_8 1_555 1_555
H3_5 C5_8 1_555 1_555
C6_5 C3_8 1_555 1_555
H4_5 C6_5 1_555 1_555
C7_8 C4_8 1_555 1_555
H5_10 C7_8 1_555 1_555
C8_5 C6_5 1_555 1_555
H6_5 C8_5 1_555 1_555
C9_8 C7_8 1_555 1_555
H7_6 C9_8 1_555 1_555
O5_7 Cu3_4 1_555 1_555
C1_8 C5_8 1_555 1_555
C8_5 C9_8 1_555 1_555
O4_5 C4_9 1_555 1_555
O2_11 Cu3_5 1_555 1_555
O3_5 C1_9 1_555 1_555
N1_9 Cu3_5 1_555 1_555
C1_9 O2_11 1_555 1_555
C2_9 N1_9 1_555 1_555
H1_6 C2_9 1_555 1_555
C3_9 C2_9 1_555 1_555
C4_9 C3_9 1_555 1_555
C5_9 N1_9 1_555 1_555
H2_9 C5_9 1_555 1_555
H3_6 C5_9 1_555 1_555
C6_6 C3_9 1_555 1_555
H4_6 C6_6 1_555 1_555
C7_9 C4_9 1_555 1_555
H5_11 C7_9 1_555 1_555
C8_6 C6_6 1_555 1_555
H6_6 C8_6 1_555 1_555
C9_9 C7_9 1_555 1_555
Cu3_9 O3_5 1_555 1_555
O5_8 Cu3_5 1_555 1_555
C1_9 C5_9 1_555 1_555
C8_6 C9_9 1_555 1_555
O4_6 C4_10 1_555 1_555
O2_12 Cu3_6 1_555 1_555
O3_6 C1_10 1_555 1_555
N1_10 Cu3_6 1_555 1_555
C1_10 O2_12 1_555 1_555
C2_10 N1_10 1_555 1_555
H1_7 C2_10 1_555 1_555
C3_10 C2_10 1_555 1_555
C4_10 C3_10 1_555 1_555
C5_10 N1_10 1_555 1_555
H2_10 C5_10 1_555 1_555
H3_7 C5_10 1_555 1_555
C6_7 C3_10 1_555 1_555
H4_7 C6_7 1_555 1_555
C7_10 C4_10 1_555 1_555
H5_12 C7_10 1_555 1_555
C8_7 C6_7 1_555 1_555
H6_7 C8_7 1_555 1_555
C9_10 C7_10 1_555 1_555
O5_9 Cu3_6 1_555 1_555
C1_10 C5_10 1_555 1_555
C8_7 C9_10 1_555 1_555
O5_8 C1_11 1_555 1_555
C2_11 N1_11 1_555 1_555
H1_8 C2_11 1_555 1_555
C3_11 C2_11 1_555 1_555
C4_11 C3_11 1_555 1_555
C5_11 N1_11 1_555 1_555
H2_11 C5_11 1_555 1_555
H3_8 C5_11 1_555 1_555
C6_8 C3_11 1_555 1_555
H4_8 C6_8 1_555 1_555
C7_11 C4_11 1_555 1_555
C8_8 C6_8 1_555 1_555
H6_8 C8_8 1_555 1_555
C9_11 C7_11 1_555 1_555
H7_7 C9_11 1_555 1_555
C1_11 C5_11 1_555 1_555
C8_8 C9_11 1_555 1_555
O2_13 Cu3 1_555 1_555
O5_10 Cu3 1_555 1_555
O2_14 Cu3_2 1_555 1_555
O5_11 Cu3_2 1_555 1_555
O2_15 Cu3_3 1_555 1_555
O5_12 Cu3_3 1_555 1_555
O4_7 C4_12 1_555 1_555
C2_12 N1_12 1_555 1_555
C3_12 C2_12 1_555 1_555
C4_12 C3_12 1_555 1_555
C7_12 C4_12 1_555 1_555
H5_16 C7_12 1_555 1_555
C9_12 C7_12 1_555 1_555
H7_8 C9_12 1_555 1_555
O2_16 Cu3_7 1_555 1_555
O5_11 C1_12 1_555 1_555
C1_12 O2_16 1_555 1_555
H2_12 C5_12 1_555 1_555
C1_12 C5_12 1_555 1_555
O2_17 Cu3_8 1_555 1_555
O5_12 C1_13 1_555 1_555
C1_13 O2_17 1_555 1_555
H2_13 C5_13 1_555 1_555
C1_13 C5_13 1_555 1_555
O4_8 C4_13 1_555 1_555
C2_13 N1_13 1_555 1_555
C3_13 C2_13 1_555 1_555
C4_13 C3_13 1_555 1_555
C7_13 C4_13 1_555 1_555
H5_17 C7_13 1_555 1_555
C9_13 C7_13 1_555 1_555
H7_9 C9_13 1_555 1_555
O4_9 C4_14 1_555 1_555
O2_18 Cu3_9 1_555 1_555
O5_10 C1_14 1_555 1_555
N1_14 Cu3_9 1_555 1_555
C1_14 O2_18 1_555 1_555
C2_14 N1_14 1_555 1_555
C3_14 C2_14 1_555 1_555
C4_14 C3_14 1_555 1_555
C5_14 N1_14 1_555 1_555
H2_14 C5_14 1_555 1_555
C7_14 C4_14 1_555 1_555
H5_18 C7_14 1_555 1_555
C9_14 C7_14 1_555 1_555
H7_10 C9_14 1_555 1_555
C1_14 C5_14 1_555 1_555
C2_15 N1_15 1_555 1_555
H1_9 C2_15 1_555 1_555
C3_15 C2_15 1_555 1_555
C4_15 C3_15 1_555 1_555
C5_15 N1_15 1_555 1_555
H2_15 C5_15 1_555 1_555
H3_9 C5_15 1_555 1_555
C6_9 C3_15 1_555 1_555
H4_9 C6_9 1_555 1_555
C7_15 C4_15 1_555 1_555
C8_9 C6_9 1_555 1_555
H6_9 C8_9 1_555 1_555
C9_15 C7_15 1_555 1_555
H7_13 C9_15 1_555 1_555
C1_15 C5_15 1_555 1_555
C8_9 C9_15 1_555 1_555
C2_16 N1_16 1_555 1_555
H1_10 C2_16 1_555 1_555
C3_16 C2_16 1_555 1_555
C4_16 C3_16 1_555 1_555
C5_16 N1_16 1_555 1_555
H2_16 C5_16 1_555 1_555
H3_10 C5_16 1_555 1_555
C6_10 C3_16 1_555 1_555
H4_10 C6_10 1_555 1_555
C7_16 C4_16 1_555 1_555
C8_10 C6_10 1_555 1_555
H6_10 C8_10 1_555 1_555
C9_16 C7_16 1_555 1_555
H7_14 C9_16 1_555 1_555
C1_16 C5_16 1_555 1_555
C8_10 C9_16 1_555 1_555
H4_11 C6_11 1_555 1_555
C8_11 C6_11 1_555 1_555
H6_11 C8_11 1_555 1_555
H4_12 C6_12 1_555 1_555
C8_12 C6_12 1_555 1_555
H6_12 C8_12 1_555 1_555
H4_13 C6_13 1_555 1_555
C8_13 C6_13 1_555 1_555
H6_13 C8_13 1_555 1_555
C2_17 N1_17 1_555 1_555
H1_14 C2_17 1_555 1_555
C3_17 C2_17 1_555 1_555
C4_17 C3_17 1_555 1_555
C5_17 N1_17 1_555 1_555
H2_17 C5_17 1_555 1_555
H3_14 C5_17 1_555 1_555
C6_14 C3_17 1_555 1_555
H4_14 C6_14 1_555 1_555
C7_17 C4_17 1_555 1_555
C8_14 C6_14 1_555 1_555
H6_14 C8_14 1_555 1_555
C9_17 C7_17 1_555 1_555
H7_17 C9_17 1_555 1_555
C1_17 C5_17 1_555 1_555
C8_14 C9_17 1_555 1_555
C2_18 N1_18 1_555 1_555
H1_15 C2_18 1_555 1_555
C3_18 C2_18 1_555 1_555
C4_18 C3_18 1_555 1_555
C5_18 N1_18 1_555 1_555
H2_18 C5_18 1_555 1_555
H3_15 C5_18 1_555 1_555
C6_15 C3_18 1_555 1_555
H4_15 C6_15 1_555 1_555
C7_18 C4_18 1_555 1_555
C8_15 C6_15 1_555 1_555
H6_15 C8_15 1_555 1_555
C9_18 C7_18 1_555 1_555
H7_18 C9_18 1_555 1_555
C1_18 C5_18 1_555 1_555
C8_15 C9_18 1_555 1_555
H4_16 C6_16 1_555 1_555
C8_16 C6_16 1_555 1_555
H6_16 C8_16 1_555 1_555
H4_17 C6_17 1_555 1_555
C8_17 C6_17 1_555 1_555
H6_17 C8_17 1_555 1_555
H4_18 C6_18 1_555 1_555
C8_18 C6_18 1_555 1_555
H6_18 C8_18 1_555 1_555

#END
