
###############################################################################
#
# This file contains modified crystal structure data generated from the
# MOF subset of the Cambridge Structural Database (CSD) v543 
# hosted by the Cambridge Crystallographic Data Centre (CCDC).
#
# This work is licensed under the Creative Commons
# Attribution-NonCommercial-ShareAlike 4.0 International License.
# To view a copy of this license, visit
# http://creativecommons.org/licenses/by-nc-sa/4.0/
# or send a letter to
# Creative Commons, PO Box 1866, Mountain View, CA 94042, USA.
#
# CIF created using the CSD Python API on 29 September 2022
# The structure has been converted into the P1 space group
# The structure has a 3D framework
# The original CSD entry SAPFOI01 is in the rhombohedral crystal system
# The framework has been calculated to contain at least 10.0% void space
# The void calculation uses a probe of radius 1.32A, grid spacing 0.4
# The framework is charged, counterions have been retained in the structure
#
###############################################################################

data_SAPFOI01
_chemical_formula_moiety         '(C324 H144 O164 Y34 16-)n'
_symmetry_cell_setting           triclinic
_symmetry_space_group_name_H-M   'P 1'
_symmetry_Int_Tables_number      1
_space_group_name_Hall           'P 1'
loop_
_symmetry_equiv_pos_site_id
_symmetry_equiv_pos_as_xyz
1 x,y,z
_cell_length_a                   18.2108(12)
_cell_length_b                   18.2108(12)
_cell_length_c                   45.406(7)
_cell_angle_alpha                90
_cell_angle_beta                 90
_cell_angle_gamma                120
_cell_volume                     13040.7
loop_
_atom_site_label
_atom_site_type_symbol
_atom_site_fract_x
_atom_site_fract_y
_atom_site_fract_z
Y28 Y 0.01226(12) 0.88427(18) 0.46543(4)
Y1 Y 0.67893(12) 0.46133(13) 0.29876(4)
O1 O 0.6767(8) 0.4499(8) 0.3495(3)
O2 O 0.666667 0.333333 0.2854(5)
O3 O 0.5158(11) 0.4416(11) 0.3515(4)
C1 C 0.5165(18) 0.4704(17) 0.3266(5)
O4 O 0.5833(11) 0.5084(10) 0.3116(4)
C2 C 0.4395(18) 0.4646(19) 0.3153(6)
O5 O 0.4153(11) 0.5830(12) 0.2402(3)
C3 C 0.3573(19) 0.410(2) 0.3307(7)
H1 H 0.356473 0.384972 0.349095
O6 O 0.2744(11) 0.4993(11) 0.2395(4)
C4 C 0.2822(19) 0.437(2) 0.2954(7)
H2 H 0.229429 0.431286 0.289757
C5 C 0.3554(18) 0.4887(19) 0.2775(6)
C6 C 0.4324(17) 0.5015(19) 0.2884(6)
H3 H 0.482577 0.536345 0.277484
C7 C 0.3512(18) 0.5340(18) 0.2503(6)
C8 C 0.2039(18) 0.339(2) 0.3364(7)
H4 H 0.209109 0.309279 0.352739
C9 C 0.2843(19) 0.398(2) 0.3186(6)
O10 O 0.0589(11) 0.1674(11) 0.4272(4)
C13 C 0.0511(19) 0.230(2) 0.3713(7)
H6 H 0.103904 0.235381 0.376910
C17 C 0.1294(18) 0.328(2) 0.3303(7)
H8 H 0.124224 0.357388 0.313928
C18 C 0.0490(19) 0.269(2) 0.3481(6)
Y2 Y 0.53867(13) 0.21760(18) 0.29876(4)
O11 O 0.5501(8) 0.2268(11) 0.3495(3)
O12 O 0.5584(11) 0.0742(16) 0.3515(4)
C19 C 0.5296(17) 0.0461(25) 0.3266(5)
O13 O 0.4916(10) 0.0749(15) 0.3116(4)
O25 O 0.4075(16) 0.1825(11) 0.3152(4)
C46 C 0.3794(25) 0.1832(18) 0.3401(5)
O26 O 0.4082(15) 0.2500(11) 0.3551(4)
C47 C 0.3082(26) 0.1062(18) 0.3514(6)
O27 O 0.1656(16) 0.0820(11) 0.4265(3)
C48 C 0.2806(28) 0.0240(19) 0.3360(7)
H21 H 0.304834 0.023140 0.317572
C50 C 0.2000(26) 0.0221(18) 0.3892(6)
C51 C 0.2642(25) 0.0991(17) 0.3783(6)
H23 H 0.279565 0.149244 0.389183
C52 C 0.1505(25) 0.0179(18) 0.4164(6)
Y12 Y 0.78240(18) 0.32107(12) 0.29876(4)
Y14 Y 0.46133(13) 0.67893(12) 0.20124(4)
Y16 Y 0.21760(18) 0.53867(13) 0.20124(4)
Y19 Y 0.65440(12) 0.20534(13) 0.36791(4)
Y22 Y 0.79466(13) 0.44907(18) 0.36791(4)
Y23 Y 0.55093(18) 0.34560(12) 0.36791(4)
Y26 Y 0.11573(18) 0.12800(13) 0.46543(4)
O38 O 0.6566(8) 0.2168(8) 0.3172(3)
O39 O 0.7832(8) 0.4399(11) 0.3172(3)
O40 O 0.5601(11) 0.3434(8) 0.3172(3)
O46 O 0.7749(11) 0.5925(16) 0.3152(4)
O49 O 0.5830(12) 0.4153(11) 0.2598(3)
O51 O 0.5847(11) 0.1677(16) 0.2598(3)
O55 O 0.4993(11) 0.2744(11) 0.2605(4)
O56 O 0.7751(16) 0.5007(11) 0.2605(4)
C20 C 0.5354(19) 0.9749(26) 0.3153(6)
O14 O 0.4170(12) 0.8323(16) 0.2402(3)
C21 C 0.590(2) 0.9473(28) 0.3307(7)
H9 H 0.615028 0.971501 0.349095
O15 O 0.5007(11) 0.7751(16) 0.2395(4)
C22 C 0.563(2) 0.8452(28) 0.2954(7)
H10 H 0.568714 0.798143 0.289757
C23 C 0.5113(19) 0.8667(26) 0.2775(6)
C24 C 0.4985(19) 0.9309(25) 0.2884(6)
H11 H 0.463655 0.946232 0.277484
C25 C 0.4660(18) 0.8172(25) 0.2503(6)
C26 C 0.661(2) 0.8649(27) 0.3364(7)
H12 H 0.690721 0.899830 0.352739
C27 C 0.602(2) 0.8863(28) 0.3186(6)
C28 C 0.8037(17) 0.6206(25) 0.3401(5)
O17 O 0.8417(10) 0.5918(15) 0.3551(4)
C29 C 0.7979(19) 0.6918(26) 0.3514(6)
O18 O 0.9163(12) 0.8344(16) 0.4265(3)
C30 C 0.743(2) 0.7194(28) 0.3360(7)
H13 H 0.718305 0.695166 0.317572
O19 O 0.8326(11) 0.8916(16) 0.4272(4)
C31 C 0.770(2) 0.8215(28) 0.3713(7)
H14 H 0.764619 0.868524 0.376910
C32 C 0.8220(19) 0.8000(26) 0.3892(6)
C33 C 0.8348(19) 0.7358(25) 0.3783(6)
H15 H 0.869678 0.720435 0.389183
C34 C 0.8673(18) 0.8495(25) 0.4164(6)
C35 C 0.672(2) 0.8018(27) 0.3303(7)
H16 H 0.642612 0.766837 0.313928
C36 C 0.731(2) 0.7804(28) 0.3481(6)
C38 C 0.0251(26) 0.5605(18) 0.3153(6)
O23 O 0.1677(16) 0.5847(11) 0.2402(3)
C39 C 0.0527(28) 0.6427(19) 0.3307(7)
H17 H 0.028499 0.643527 0.349095
O24 O 0.2249(16) 0.7256(11) 0.2395(4)
C40 C 0.1548(28) 0.7178(19) 0.2954(7)
H18 H 0.201857 0.770571 0.289757
C41 C 0.1333(26) 0.6446(18) 0.2775(6)
C42 C 0.0691(25) 0.5676(17) 0.2884(6)
H19 H 0.053768 0.517423 0.277484
C43 C 0.1828(25) 0.6488(18) 0.2503(6)
C44 C 0.1351(27) 0.7961(18) 0.3364(7)
H20 H 0.100170 0.790891 0.352739
C45 C 0.1137(28) 0.7157(19) 0.3186(6)
O28 O 0.1084(16) 0.9411(11) 0.4272(4)
C49 C 0.1785(28) 0.9489(19) 0.3713(7)
H22 H 0.131476 0.896096 0.376910
C53 C 0.1982(27) 0.8706(18) 0.3303(7)
H24 H 0.233163 0.875776 0.313928
C54 C 0.2196(28) 0.9510(19) 0.3481(6)
Y17 Y 0.32107(12) 0.78240(18) 0.20124(4)
Y25 Y 0.87200(13) 0.98774(12) 0.46543(4)
O7 O 0.8175(11) 0.2251(11) 0.3152(4)
C10 C 0.8168(18) 0.1963(17) 0.3401(5)
O8 O 0.7500(11) 0.1583(10) 0.3551(4)
C11 C 0.8938(18) 0.2021(19) 0.3514(6)
O9 O 0.9180(11) 0.0837(12) 0.4265(3)
C12 C 0.9760(19) 0.257(2) 0.3360(7)
H5 H 0.976860 0.281695 0.317572
C14 C 0.9779(18) 0.1780(19) 0.3892(6)
C15 C 0.9009(17) 0.1652(19) 0.3783(6)
H7 H 0.850756 0.130322 0.389183
C16 C 0.9821(18) 0.1327(18) 0.4164(6)
O30 O 0.666666 0.333334 0.3813(5)
O36 O 0.7732(11) 0.3233(8) 0.3495(3)
O52 O 0.7503(12) 0.2514(11) 0.4069(3)
O53 O 0.5010(16) 0.2497(12) 0.4069(3)
O59 O 0.5582(16) 0.1660(11) 0.4062(4)
O60 O 0.6077(11) 0.4418(16) 0.4062(4)
O21 O 0.9258(16) 0.4842(11) 0.3515(4)
C37 C 0.9539(25) 0.4835(18) 0.3266(5)
O22 O 0.9251(15) 0.4167(11) 0.3116(4)
O50 O 0.8323(16) 0.4170(12) 0.2598(3)
O54 O 0.7486(11) 0.4990(16) 0.4069(3)
O57 O 0.7256(11) 0.2249(16) 0.2605(4)
O58 O 0.8340(11) 0.3923(11) 0.4062(4)
O1_2 O 0.4499(8) 0.6767(8) 0.1505(3)
O2_2 O 0.333333 0.666667 0.2146(5)
O3_2 O 0.4416(11) 0.5158(11) 0.1485(4)
C1_2 C 0.4704(17) 0.5165(18) 0.1734(5)
O4_2 O 0.5084(10) 0.5833(11) 0.1884(4)
C2_2 C 0.4646(19) 0.4395(18) 0.1847(6)
C3_2 C 0.410(2) 0.3573(19) 0.1693(7)
H1_2 H 0.384972 0.356473 0.150905
C4_2 C 0.437(2) 0.2822(19) 0.2046(7)
H2_2 H 0.431286 0.229429 0.210243
C5_2 C 0.4887(19) 0.3554(18) 0.2225(6)
C6_2 C 0.5015(19) 0.4324(17) 0.2116(6)
H3_2 H 0.536345 0.482577 0.222516
C7_2 C 0.5340(18) 0.3512(18) 0.2497(6)
C8_2 C 0.339(2) 0.2039(18) 0.1636(7)
H4_2 H 0.309279 0.209109 0.147261
C9_2 C 0.398(2) 0.2843(19) 0.1814(6)
O10_2 O 0.1674(11) 0.0589(11) 0.0728(4)
C13_2 C 0.230(2) 0.0511(19) 0.1287(7)
H6_2 H 0.235381 0.103904 0.123090
C17_2 C 0.328(2) 0.1294(18) 0.1697(7)
H8_2 H 0.357388 0.124224 0.186072
C18_2 C 0.269(2) 0.0490(19) 0.1519(6)
O11_2 O 0.2268(11) 0.5501(8) 0.1505(3)
O12_2 O 0.0742(16) 0.5584(11) 0.1485(4)
C19_2 C 0.0461(25) 0.5296(17) 0.1734(5)
O13_2 O 0.0749(15) 0.4916(10) 0.1884(4)
O25_2 O 0.1825(11) 0.4075(16) 0.1848(4)
C46_2 C 0.1832(18) 0.3794(25) 0.1599(5)
O26_2 O 0.2500(11) 0.4082(15) 0.1449(4)
C47_2 C 0.1062(18) 0.3082(26) 0.1486(6)
O27_2 O 0.0820(11) 0.1656(16) 0.0735(3)
C48_2 C 0.0240(19) 0.2806(28) 0.1640(7)
H21_2 H 0.023140 0.304834 0.182428
C50_2 C 0.0221(18) 0.2000(26) 0.1108(6)
C51_2 C 0.0991(17) 0.2642(25) 0.1217(6)
H23_2 H 0.149244 0.279565 0.110817
C52_2 C 0.0179(18) 0.1505(25) 0.0836(6)
Y19_2 Y 0.20534(13) 0.65440(12) 0.13209(4)
Y22_2 Y 0.44907(18) 0.79466(13) 0.13209(4)
Y23_2 Y 0.34560(12) 0.55093(18) 0.13209(4)
Y26_2 Y 0.12800(13) 0.11573(18) 0.03457(4)
O38_2 O 0.2168(8) 0.6566(8) 0.1828(3)
O39_2 O 0.4399(11) 0.7832(8) 0.1828(3)
O40_2 O 0.3434(8) 0.5601(11) 0.1828(3)
O46_2 O 0.5925(16) 0.7749(11) 0.1848(4)
O7_2 O 0.2251(11) 0.8175(11) 0.1848(4)
C10_2 C 0.1963(17) 0.8168(18) 0.1599(5)
O8_2 O 0.1583(10) 0.7500(11) 0.1449(4)
C11_2 C 0.2021(19) 0.8938(18) 0.1486(6)
O9_2 O 0.0837(12) 0.9180(11) 0.0735(3)
C12_2 C 0.257(2) 0.9760(19) 0.1640(7)
H5_2 H 0.281695 0.976860 0.182428
C14_2 C 0.1780(19) 0.9779(18) 0.1108(6)
C15_2 C 0.1652(19) 0.9009(17) 0.1217(6)
H7_2 H 0.130322 0.850756 0.110817
C16_2 C 0.1327(18) 0.9821(18) 0.0836(6)
O30_2 O 0.333334 0.666666 0.1187(5)
O36_2 O 0.3233(8) 0.7732(11) 0.1505(3)
O52_2 O 0.2514(11) 0.7503(12) 0.0931(3)
O53_2 O 0.2497(12) 0.5010(16) 0.0931(3)
O59_2 O 0.1660(11) 0.5582(16) 0.0938(4)
O60_2 O 0.4418(16) 0.6077(11) 0.0938(4)
Y28_2 Y 0.88427(18) 0.01226(12) 0.03457(4)
C20_2 C 0.9749(26) 0.5354(19) 0.1847(6)
C21_2 C 0.9473(28) 0.590(2) 0.1693(7)
H9_2 H 0.971501 0.615028 0.150905
C22_2 C 0.8452(28) 0.563(2) 0.2046(7)
H10_2 H 0.798143 0.568714 0.210243
C23_2 C 0.8667(26) 0.5113(19) 0.2225(6)
C24_2 C 0.9309(25) 0.4985(19) 0.2116(6)
H11_2 H 0.946232 0.463655 0.222516
C25_2 C 0.8172(25) 0.4660(18) 0.2497(6)
C26_2 C 0.8649(27) 0.661(2) 0.1636(7)
H12_2 H 0.899830 0.690721 0.147261
C27_2 C 0.8863(28) 0.602(2) 0.1814(6)
C28_2 C 0.6206(25) 0.8037(17) 0.1599(5)
O17_2 O 0.5918(15) 0.8417(10) 0.1449(4)
C29_2 C 0.6918(26) 0.7979(19) 0.1486(6)
O18_2 O 0.8344(16) 0.9163(12) 0.0735(3)
C30_2 C 0.7194(28) 0.743(2) 0.1640(7)
H13_2 H 0.695166 0.718305 0.182428
O19_2 O 0.8916(16) 0.8326(11) 0.0728(4)
C31_2 C 0.8215(28) 0.770(2) 0.1287(7)
H14_2 H 0.868524 0.764619 0.123090
C32_2 C 0.8000(26) 0.8220(19) 0.1108(6)
C33_2 C 0.7358(25) 0.8348(19) 0.1217(6)
H15_2 H 0.720435 0.869678 0.110817
C34_2 C 0.8495(25) 0.8673(18) 0.0836(6)
C35_2 C 0.8018(27) 0.672(2) 0.1697(7)
H16_2 H 0.766837 0.642612 0.186072
C36_2 C 0.7804(28) 0.731(2) 0.1519(6)
C38_2 C 0.5605(18) 0.0251(26) 0.1847(6)
C39_2 C 0.6427(19) 0.0527(28) 0.1693(7)
H17_2 H 0.643527 0.028499 0.150905
C40_2 C 0.7178(19) 0.1548(28) 0.2046(7)
H18_2 H 0.770571 0.201857 0.210243
C41_2 C 0.6446(18) 0.1333(26) 0.2225(6)
C42_2 C 0.5676(17) 0.0691(25) 0.2116(6)
H19_2 H 0.517423 0.053768 0.222516
C43_2 C 0.6488(18) 0.1828(25) 0.2497(6)
C44_2 C 0.7961(18) 0.1351(27) 0.1636(7)
H20_2 H 0.790891 0.100170 0.147261
C45_2 C 0.7157(19) 0.1137(28) 0.1814(6)
O28_2 O 0.9411(11) 0.1084(16) 0.0728(4)
C49_2 C 0.9489(19) 0.1785(28) 0.1287(7)
H22_2 H 0.896096 0.131476 0.123090
C53_2 C 0.8706(18) 0.1982(27) 0.1697(7)
H24_2 H 0.875776 0.233163 0.186072
C54_2 C 0.9510(19) 0.2196(28) 0.1519(6)
Y25_2 Y 0.98774(12) 0.87200(13) 0.03457(4)
O21_2 O 0.4842(11) 0.9258(16) 0.1485(4)
C37_2 C 0.4835(18) 0.9539(25) 0.1734(5)
O22_2 O 0.4167(11) 0.9251(15) 0.1884(4)
O54_2 O 0.4990(16) 0.7486(11) 0.0931(3)
O58_2 O 0.3923(11) 0.8340(11) 0.0938(4)
Y14_2 Y 0.12800(13) 0.01226(12) 0.53457(4)
Y1_2 Y 0.34560(12) 0.79466(13) 0.63209(4)
O1_3 O 0.3434(8) 0.7832(8) 0.6828(3)
O2_3 O 0.333334 0.666666 0.6187(5)
O3_3 O 0.1825(11) 0.7749(11) 0.6848(4)
C1_3 C 0.1832(18) 0.8037(17) 0.6599(5)
O4_3 O 0.2500(11) 0.8417(10) 0.6449(4)
C2_3 C 0.1062(18) 0.7979(19) 0.6486(6)
O5_2 O 0.0820(11) 0.9163(12) 0.5735(3)
C3_3 C 0.0240(19) 0.743(2) 0.6640(7)
H1_3 H 0.023140 0.718305 0.682428
C5_3 C 0.0221(18) 0.8220(19) 0.6108(6)
C6_3 C 0.0991(17) 0.8348(19) 0.6217(6)
H3_3 H 0.149244 0.869678 0.610817
C7_3 C 0.0179(18) 0.8673(18) 0.5836(6)
Y2_2 Y 0.20534(13) 0.55093(18) 0.63209(4)
O11_3 O 0.2168(8) 0.5601(11) 0.6828(3)
O12_3 O 0.2251(11) 0.4075(16) 0.6848(4)
C19_3 C 0.1963(17) 0.3794(25) 0.6599(5)
O13_3 O 0.1583(10) 0.4082(15) 0.6449(4)
C20_3 C 0.2021(19) 0.3082(26) 0.6486(6)
O14_2 O 0.0837(12) 0.1656(16) 0.5735(3)
C21_3 C 0.257(2) 0.2806(28) 0.6640(7)
H9_3 H 0.281695 0.304834 0.682428
O15_2 O 0.1674(11) 0.1084(16) 0.5728(4)
C22_3 C 0.230(2) 0.1785(28) 0.6287(7)
H10_3 H 0.235381 0.131476 0.623090
C23_3 C 0.1780(19) 0.2000(26) 0.6108(6)
C24_3 C 0.1652(19) 0.2642(25) 0.6217(6)
H11_3 H 0.130322 0.279565 0.610817
C25_3 C 0.1327(18) 0.1505(25) 0.5836(6)
C26_3 C 0.328(2) 0.1982(27) 0.6697(7)
H12_3 H 0.357388 0.233163 0.686072
C27_3 C 0.269(2) 0.2196(28) 0.6519(6)
C29_3 C 0.4646(19) 0.0251(26) 0.6847(6)
O18_3 O 0.5830(12) 0.1677(16) 0.7598(3)
C30_3 C 0.410(2) 0.0527(28) 0.6693(7)
H13_3 H 0.384972 0.028499 0.650905
O19_3 O 0.4993(11) 0.2249(16) 0.7605(4)
C31_3 C 0.437(2) 0.1548(28) 0.7046(7)
H14_3 H 0.431286 0.201857 0.710243
C32_3 C 0.4887(19) 0.1333(26) 0.7225(6)
C33_3 C 0.5015(19) 0.0691(25) 0.7116(6)
H15_3 H 0.536345 0.053768 0.722516
C34_3 C 0.5340(18) 0.1828(25) 0.7497(6)
C35_3 C 0.339(2) 0.1351(27) 0.6636(7)
H16_3 H 0.309279 0.100170 0.647261
C36_3 C 0.398(2) 0.1137(28) 0.6814(6)
O25_3 O 0.0742(16) 0.5158(11) 0.6485(4)
C46_3 C 0.0461(25) 0.5165(18) 0.6734(5)
O26_3 O 0.0749(15) 0.5833(11) 0.6884(4)
Y12_2 Y 0.44907(18) 0.65440(12) 0.63209(4)
Y19_3 Y 0.32107(12) 0.53867(13) 0.70124(4)
Y22_3 Y 0.46133(13) 0.78240(18) 0.70124(4)
Y23_3 Y 0.21760(18) 0.67893(12) 0.70124(4)
Y25_3 Y 0.53867(13) 0.32107(12) 0.79876(4)
Y28_3 Y 0.67893(12) 0.21760(18) 0.79876(4)
O38_3 O 0.3233(8) 0.5501(8) 0.6505(3)
O39_3 O 0.4499(8) 0.7732(11) 0.6505(3)
O40_3 O 0.2268(11) 0.6767(8) 0.6505(3)
O46_3 O 0.4416(11) 0.9258(16) 0.6485(4)
O49_2 O 0.2497(12) 0.7486(11) 0.5931(3)
O51_2 O 0.2514(11) 0.5010(16) 0.5931(3)
O55_2 O 0.1660(11) 0.6077(11) 0.5938(4)
O56_2 O 0.4418(16) 0.8340(11) 0.5938(4)
C28_3 C 0.4704(17) 0.9539(25) 0.6734(5)
O17_3 O 0.5084(10) 0.9251(15) 0.6884(4)
O6_2 O 0.9411(11) 0.8326(11) 0.5728(4)
C4_3 C 0.9489(19) 0.770(2) 0.6287(7)
H2_3 H 0.896096 0.764619 0.623090
C8_3 C 0.8706(18) 0.672(2) 0.6697(7)
H4_3 H 0.875776 0.642612 0.686072
C9_3 C 0.9510(19) 0.731(2) 0.6519(6)
O7_3 O 0.4842(11) 0.5584(11) 0.6485(4)
C10_3 C 0.4835(18) 0.5296(17) 0.6734(5)
O8_3 O 0.4167(11) 0.4916(10) 0.6884(4)
C11_3 C 0.5605(18) 0.5354(19) 0.6847(6)
O9_3 O 0.5847(11) 0.4170(12) 0.7598(3)
C12_3 C 0.6427(19) 0.590(2) 0.6693(7)
H5_3 H 0.643527 0.615028 0.650905
O10_3 O 0.7256(11) 0.5007(11) 0.7605(4)
C13_3 C 0.7178(19) 0.563(2) 0.7046(7)
H6_3 H 0.770571 0.568714 0.710243
C14_3 C 0.6446(18) 0.5113(19) 0.7225(6)
C15_3 C 0.5676(17) 0.4985(19) 0.7116(6)
H7_3 H 0.517423 0.463655 0.722516
C16_3 C 0.6488(18) 0.4660(18) 0.7497(6)
C17_3 C 0.7961(18) 0.661(2) 0.6636(7)
H8_3 H 0.790891 0.690721 0.647261
C18_3 C 0.7157(19) 0.602(2) 0.6814(6)
O24_2 O 0.8916(16) 0.0589(11) 0.5728(4)
C40_3 C 0.8215(28) 0.0511(19) 0.6287(7)
H18_3 H 0.868524 0.103904 0.623090
C44_3 C 0.8018(27) 0.1294(18) 0.6697(7)
H20_3 H 0.766837 0.124224 0.686072
C45_3 C 0.7804(28) 0.0490(19) 0.6519(6)
C47_3 C 0.9749(26) 0.4395(18) 0.6847(6)
O27_3 O 0.8323(16) 0.4153(11) 0.7598(3)
C48_3 C 0.9473(28) 0.3573(19) 0.6693(7)
H21_3 H 0.971501 0.356473 0.650905
O28_3 O 0.7751(16) 0.2744(11) 0.7605(4)
C49_3 C 0.8452(28) 0.2822(19) 0.7046(7)
H22_3 H 0.798143 0.229429 0.710243
C50_3 C 0.8667(26) 0.3554(18) 0.7225(6)
C51_3 C 0.9309(25) 0.4324(17) 0.7116(6)
H23_3 H 0.946232 0.482577 0.722516
C52_3 C 0.8172(25) 0.3512(18) 0.7497(6)
C53_3 C 0.8649(27) 0.2039(18) 0.6636(7)
H24_3 H 0.899830 0.209109 0.647261
C54_3 C 0.8863(28) 0.2843(19) 0.6814(6)
O30_3 O 0.333333 0.666667 0.7146(5)
Y16_2 Y 0.88427(18) 0.87200(13) 0.53457(4)
Y17_2 Y 0.98774(12) 0.11573(18) 0.53457(4)
Y26_3 Y 0.78240(18) 0.46133(13) 0.79876(4)
O36_3 O 0.4399(11) 0.6566(8) 0.6828(3)
O52_3 O 0.4170(12) 0.5847(11) 0.7402(3)
O53_3 O 0.1677(16) 0.5830(12) 0.7402(3)
O59_3 O 0.2249(16) 0.4993(11) 0.7395(4)
O60_3 O 0.2744(11) 0.7751(16) 0.7395(4)
O21_3 O 0.5925(16) 0.8175(11) 0.6848(4)
C37_3 C 0.6206(25) 0.8168(18) 0.6599(5)
O22_3 O 0.5918(15) 0.7500(11) 0.6449(4)
C38_3 C 0.6918(26) 0.8938(18) 0.6486(6)
O23_2 O 0.8344(16) 0.9180(11) 0.5735(3)
C39_3 C 0.7194(28) 0.9760(19) 0.6640(7)
H17_3 H 0.695166 0.976860 0.682428
C41_3 C 0.8000(26) 0.9779(18) 0.6108(6)
C42_3 C 0.7358(25) 0.9009(17) 0.6217(6)
H19_3 H 0.720435 0.850756 0.610817
C43_3 C 0.8495(25) 0.9821(18) 0.5836(6)
O50_2 O 0.4990(16) 0.7503(12) 0.5931(3)
O54_3 O 0.4153(11) 0.8323(16) 0.7402(3)
O57_2 O 0.3923(11) 0.5582(16) 0.5938(4)
O58_3 O 0.5007(11) 0.7256(11) 0.7395(4)
O1_4 O 0.1166(8) 0.0100(8) 0.4838(3)
O2_4 O -0.000000 0.000000 0.5479(5)
O39_4 O 0.1065(11) 0.1166(8) 0.5162(3)
O46_4 O 0.2591(16) 0.1083(11) 0.5182(4)
O2_5 O -0.000000 1.000000 0.5479(5)
O3_4 O 0.1083(11) 0.8491(11) 0.4818(4)
C1_4 C 0.1371(17) 0.8498(18) 0.5067(5)
O4_4 O 0.1751(10) 0.9166(11) 0.5217(4)
C2_4 C 0.1313(19) 0.7728(18) 0.5180(6)
C3_4 C 0.077(2) 0.6906(19) 0.5026(7)
H1_4 H 0.051639 0.689806 0.484238
C4_4 C 0.104(2) 0.6155(19) 0.5379(7)
H2_4 H 0.097953 0.562762 0.543576
C5_4 C 0.1554(19) 0.6887(18) 0.5558(6)
C6_4 C 0.1682(19) 0.7657(17) 0.5449(6)
H3_4 H 0.203012 0.815910 0.555849
C7_4 C 0.2007(18) 0.6845(18) 0.5830(6)
C8_4 C 0.006(2) 0.5372(18) 0.4969(7)
C9_4 C 0.065(2) 0.6176(19) 0.5147(6)
H8_4 H 0.024054 0.457558 0.519406
O30_4 O 0.000000 -0.000000 0.4521(5)
O40_4 O 0.0100(8) 0.8935(11) 0.5162(3)
O30_5 O 0.000000 1.000000 0.4521(5)
O2_6 O 1.000000 0.000000 0.5479(5)
H12_4 H 0.566497 0.024054 0.480594
C28_4 C 0.2872(25) 0.1371(17) 0.4933(5)
O17_4 O 0.2584(15) 0.1751(10) 0.4783(4)
C29_4 C 0.3584(26) 0.1313(19) 0.4820(6)
C30_4 C 0.3860(28) 0.077(2) 0.4974(7)
H13_4 H 0.361832 0.051639 0.515762
C31_4 C 0.4881(28) 0.104(2) 0.4621(7)
H14_4 H 0.535190 0.097953 0.456424
C32_4 C 0.4666(26) 0.1554(19) 0.4442(6)
C33_4 C 0.4024(25) 0.1682(19) 0.4551(6)
H15_4 H 0.387101 0.203012 0.444151
C34_4 C 0.5161(25) 0.2007(18) 0.4170(6)
C35_4 C 0.4684(27) 0.006(2) 0.5031(7)
C36_4 C 0.4470(28) 0.065(2) 0.4853(6)
O2_7 O 1.000000 1.000000 0.5479(5)
H4_4 H 0.975946 0.542442 0.480594
O7_4 O 0.8917(11) 0.1509(11) 0.5182(4)
C10_4 C 0.8629(17) 0.1502(18) 0.4933(5)
O8_4 O 0.8249(10) 0.0834(11) 0.4783(4)
C11_4 C 0.8687(19) 0.2272(18) 0.4820(6)
C12_4 C 0.923(2) 0.3094(19) 0.4974(7)
H5_4 H 0.948361 0.310194 0.515762
C13_4 C 0.896(2) 0.3845(19) 0.4621(7)
H6_4 H 0.902047 0.437238 0.456424
C14_4 C 0.8446(19) 0.3113(18) 0.4442(6)
C15_4 C 0.8318(19) 0.2343(17) 0.4551(6)
H7_4 H 0.796988 0.184090 0.444151
C16_4 C 0.7993(18) 0.3155(18) 0.4170(6)
C17_4 C 0.994(2) 0.4628(18) 0.5031(7)
C18_4 C 0.935(2) 0.3824(19) 0.4853(6)
O11_4 O 0.8935(11) 0.8834(8) 0.4838(3)
O12_4 O 0.7409(16) 0.8917(11) 0.4818(4)
C19_4 C 0.7128(25) 0.8629(17) 0.5067(5)
O13_4 O 0.7416(15) 0.8249(10) 0.5217(4)
C20_4 C 0.6416(26) 0.8687(19) 0.5180(6)
C21_4 C 0.6140(28) 0.923(2) 0.5026(7)
H9_4 H 0.638168 0.948361 0.484238
C22_4 C 0.5119(28) 0.896(2) 0.5379(7)
H10_4 H 0.464810 0.902047 0.543576
C23_4 C 0.5334(26) 0.8446(19) 0.5558(6)
C24_4 C 0.5976(25) 0.8318(19) 0.5449(6)
H11_4 H 0.612899 0.796988 0.555849
C25_4 C 0.4839(25) 0.7993(18) 0.5830(6)
C26_4 C 0.5316(27) 0.994(2) 0.4969(7)
C27_4 C 0.5530(28) 0.935(2) 0.5147(6)
H16_4 H 0.433503 0.975946 0.519406
O21_4 O 0.1509(11) 0.2591(16) 0.4818(4)
C37_4 C 0.1502(18) 0.2872(25) 0.5067(5)
O22_4 O 0.0834(11) 0.2584(15) 0.5217(4)
C38_4 C 0.2272(18) 0.3584(26) 0.5180(6)
C39_4 C 0.3094(19) 0.3860(28) 0.5026(7)
H17_4 H 0.310194 0.361832 0.484238
C40_4 C 0.3845(19) 0.4881(28) 0.5379(7)
H18_4 H 0.437238 0.535190 0.543576
C41_4 C 0.3113(18) 0.4666(26) 0.5558(6)
C42_4 C 0.2343(17) 0.4024(25) 0.5449(6)
H19_4 H 0.184090 0.387101 0.555849
C43_4 C 0.3155(18) 0.5161(25) 0.5830(6)
C44_4 C 0.4628(18) 0.4684(27) 0.4969(7)
H20_4 H 0.457558 0.433503 0.480594
C45_4 C 0.3824(19) 0.4470(28) 0.5147(6)
O25_4 O 0.8491(11) 0.7409(16) 0.5182(4)
C46_4 C 0.8498(18) 0.7128(25) 0.4933(5)
O26_4 O 0.9166(11) 0.7416(15) 0.4783(4)
C47_4 C 0.7728(18) 0.6416(26) 0.4820(6)
C48_4 C 0.6906(19) 0.6140(28) 0.4974(7)
H21_4 H 0.689806 0.638168 0.515762
C49_4 C 0.6155(19) 0.5119(28) 0.4621(7)
H22_4 H 0.562762 0.464810 0.456424
C50_4 C 0.6887(18) 0.5334(26) 0.4442(6)
C51_4 C 0.7657(17) 0.5976(25) 0.4551(6)
H23_4 H 0.815910 0.612899 0.444151
C52_4 C 0.6845(18) 0.4839(25) 0.4170(6)
C53_4 C 0.5372(18) 0.5316(27) 0.5031(7)
H24_4 H 0.542442 0.566497 0.519406
C54_4 C 0.6176(19) 0.5530(28) 0.4853(6)
O30_6 O 1.000000 -0.000000 0.4521(5)
O36_4 O 0.9900(8) 0.1065(11) 0.4838(3)
O38_4 O 0.8834(8) 0.9900(8) 0.5162(3)
O30_7 O 1.000000 1.000000 0.4521(5)
O1_5 O 0.0100(8) 0.1166(8) 0.0162(3)
Y1_3 Y 0.01226(12) 0.12800(13) 0.96543(4)
O2_8 O 0.000000 -0.000000 0.9521(5)
O39_5 O 0.1166(8) 0.1065(11) 0.9838(3)
O46_5 O 0.1083(11) 0.2591(16) 0.9818(4)
O56_3 O 0.1084(16) 0.1674(11) 0.9272(4)
H12_5 H 0.024054 0.566497 0.019406
C28_5 C 0.1371(17) 0.2872(25) 0.0067(5)
O17_5 O 0.1751(10) 0.2584(15) 0.0217(4)
C29_5 C 0.1313(19) 0.3584(26) 0.0180(6)
C30_5 C 0.077(2) 0.3860(28) 0.0026(7)
C31_5 C 0.104(2) 0.4881(28) 0.0379(7)
H14_5 H 0.097953 0.535190 0.043576
C32_5 C 0.1554(19) 0.4666(26) 0.0558(6)
C33_5 C 0.1682(19) 0.4024(25) 0.0449(6)
H15_5 H 0.203012 0.387101 0.055849
C34_5 C 0.2007(18) 0.5161(25) 0.0830(6)
C36_5 C 0.065(2) 0.4470(28) 0.0147(6)
O2_9 O 0.000000 1.000000 0.9521(5)
H13_5 H 0.051639 0.361832 0.984238
C35_5 C 0.006(2) 0.4684(27) 0.9969(7)
Y12_3 Y 0.11573(18) 0.98774(12) 0.96543(4)
O3_5 O 0.8491(11) 0.1083(11) 0.0182(4)
H1_5 H 0.689806 0.051639 0.015762
C8_5 C 0.5372(18) 0.006(2) 0.0031(7)
O30_8 O -0.000000 0.000000 0.0479(5)
O2_10 O 1.000000 -0.000000 0.9521(5)
C1_5 C 0.8498(18) 0.1371(17) 0.9933(5)
O4_5 O 0.9166(11) 0.1751(10) 0.9783(4)
C2_5 C 0.7728(18) 0.1313(19) 0.9820(6)
O5_3 O 0.7486(11) 0.2497(12) 0.9069(3)
C3_5 C 0.6906(19) 0.077(2) 0.9974(7)
O6_3 O 0.6077(11) 0.1660(11) 0.9062(4)
C4_5 C 0.6155(19) 0.104(2) 0.9621(7)
H2_5 H 0.562762 0.097953 0.956424
C5_5 C 0.6887(18) 0.1554(19) 0.9442(6)
C6_5 C 0.7657(17) 0.1682(19) 0.9551(6)
H3_5 H 0.815910 0.203012 0.944151
C7_5 C 0.6845(18) 0.2007(18) 0.9170(6)
C9_5 C 0.6176(19) 0.065(2) 0.9853(6)
H8_5 H 0.457558 0.024054 0.980594
Y14_3 Y 0.79466(13) 0.34560(12) 0.86791(4)
Y16_3 Y 0.55093(18) 0.20534(13) 0.86791(4)
O40_5 O 0.8935(11) 0.0100(8) 0.9838(3)
O49_3 O 0.9163(12) 0.0820(11) 0.9265(3)
H4_5 H 0.542442 0.975946 0.019406
C10_5 C 0.1502(18) 0.8629(17) 0.0067(5)
O8_5 O 0.0834(11) 0.8249(10) 0.0217(4)
C11_5 C 0.2272(18) 0.8687(19) 0.0180(6)
C12_5 C 0.3094(19) 0.923(2) 0.0026(7)
C13_5 C 0.3845(19) 0.896(2) 0.0379(7)
H6_5 H 0.437238 0.902047 0.043576
C14_5 C 0.3113(18) 0.8446(19) 0.0558(6)
C15_5 C 0.2343(17) 0.8318(19) 0.0449(6)
H7_5 H 0.184090 0.796988 0.055849
C16_5 C 0.3155(18) 0.7993(18) 0.0830(6)
C18_5 C 0.3824(19) 0.935(2) 0.0147(6)
O11_5 O 0.8834(8) 0.8935(11) 0.0162(3)
O12_5 O 0.8917(11) 0.7409(16) 0.0182(4)
H9_5 H 0.948361 0.638168 0.015762
C26_5 C 0.994(2) 0.5316(27) 0.0031(7)
O21_5 O 0.2591(16) 0.1509(11) 0.0182(4)
H17_5 H 0.361832 0.310194 0.015762
C44_5 C 0.4684(27) 0.4628(18) 0.0031(7)
H20_5 H 0.433503 0.457558 0.019406
C46_5 C 0.7128(25) 0.8498(18) 0.0067(5)
O26_5 O 0.7416(15) 0.9166(11) 0.0217(4)
C47_5 C 0.6416(26) 0.7728(18) 0.0180(6)
C48_5 C 0.6140(28) 0.6906(19) 0.0026(7)
C49_5 C 0.5119(28) 0.6155(19) 0.0379(7)
H22_5 H 0.464810 0.562762 0.043576
C50_5 C 0.5334(26) 0.6887(18) 0.0558(6)
C51_5 C 0.5976(25) 0.7657(17) 0.0449(6)
H23_5 H 0.612899 0.815910 0.055849
C52_5 C 0.4839(25) 0.6845(18) 0.0830(6)
C54_5 C 0.5530(28) 0.6176(19) 0.0147(6)
O30_9 O -0.000000 1.000000 0.0479(5)
O36_5 O 0.1065(11) 0.9900(8) 0.0162(3)
O2_11 O 1.000000 1.000000 0.9521(5)
O7_5 O 0.1509(11) 0.8917(11) 0.9818(4)
H5_5 H 0.310194 0.948361 0.984238
C17_5 C 0.4628(18) 0.994(2) 0.9969(7)
Y2_3 Y 0.87200(13) 0.88427(18) 0.96543(4)
C19_5 C 0.8629(17) 0.7128(25) 0.9933(5)
O13_5 O 0.8249(10) 0.7416(15) 0.9783(4)
C20_5 C 0.8687(19) 0.6416(26) 0.9820(6)
O14_3 O 0.7503(12) 0.4990(16) 0.9069(3)
C21_5 C 0.923(2) 0.6140(28) 0.9974(7)
O15_3 O 0.8340(11) 0.4418(16) 0.9062(4)
C22_5 C 0.896(2) 0.5119(28) 0.9621(7)
H10_5 H 0.902047 0.464810 0.956424
C23_5 C 0.8446(19) 0.5334(26) 0.9442(6)
C24_5 C 0.8318(19) 0.5976(25) 0.9551(6)
H11_5 H 0.796988 0.612899 0.944151
C25_5 C 0.7993(18) 0.4839(25) 0.9170(6)
C27_5 C 0.935(2) 0.5530(28) 0.9853(6)
H16_5 H 0.975946 0.433503 0.980594
C37_5 C 0.2872(25) 0.1502(18) 0.9933(5)
O22_5 O 0.2584(15) 0.0834(11) 0.9783(4)
C38_5 C 0.3584(26) 0.2272(18) 0.9820(6)
O23_3 O 0.5010(16) 0.2514(11) 0.9069(3)
C39_5 C 0.3860(28) 0.3094(19) 0.9974(7)
O24_3 O 0.5582(16) 0.3923(11) 0.9062(4)
C40_5 C 0.4881(28) 0.3845(19) 0.9621(7)
H18_5 H 0.535190 0.437238 0.956424
C41_5 C 0.4666(26) 0.3113(18) 0.9442(6)
C42_5 C 0.4024(25) 0.2343(17) 0.9551(6)
H19_5 H 0.387101 0.184090 0.944151
C43_5 C 0.5161(25) 0.3155(18) 0.9170(6)
C45_5 C 0.4470(28) 0.3824(19) 0.9853(6)
O25_5 O 0.7409(16) 0.8491(11) 0.9818(4)
H21_5 H 0.638168 0.689806 0.984238
C53_5 C 0.5316(27) 0.5372(18) 0.9969(7)
H24_5 H 0.566497 0.542442 0.980594
Y17_3 Y 0.65440(12) 0.44907(18) 0.86791(4)
O38_5 O 0.9900(8) 0.8834(8) 0.9838(3)
O50_3 O 0.1656(16) 0.0837(12) 0.9265(3)
O51_3 O 0.9180(11) 0.8344(16) 0.9265(3)
O55_3 O 0.8326(11) 0.9411(11) 0.9272(4)
O57_3 O 0.0589(11) 0.8916(16) 0.9272(4)
O30_10 O 1.000000 0.000000 0.0479(5)
O30_11 O 1.000000 1.000000 0.0479(5)
O1_6 O 0.7832(8) 0.3434(8) 0.8172(3)
O2_12 O 0.666666 0.333334 0.8813(5)
O3_6 O 0.7749(11) 0.1825(11) 0.8152(4)
C1_6 C 0.8037(17) 0.1832(18) 0.8401(5)
O4_6 O 0.8417(10) 0.2500(11) 0.8551(4)
C2_6 C 0.7979(19) 0.1062(18) 0.8514(6)
C3_6 C 0.743(2) 0.0240(19) 0.8360(7)
H1_6 H 0.718305 0.023140 0.817572
C5_6 C 0.8220(19) 0.0221(18) 0.8892(6)
C6_6 C 0.8348(19) 0.0991(17) 0.8783(6)
H3_6 H 0.869678 0.149244 0.889183
C7_6 C 0.8673(18) 0.0179(18) 0.9164(6)
O11_6 O 0.5601(11) 0.2168(8) 0.8172(3)
O12_6 O 0.4075(16) 0.2251(11) 0.8152(4)
C19_6 C 0.3794(25) 0.1963(17) 0.8401(5)
O13_6 O 0.4082(15) 0.1583(10) 0.8551(4)
C20_6 C 0.3082(26) 0.2021(19) 0.8514(6)
C21_6 C 0.2806(28) 0.257(2) 0.8360(7)
H9_6 H 0.304834 0.281695 0.817572
C22_6 C 0.1785(28) 0.230(2) 0.8713(7)
H10_6 H 0.131476 0.235381 0.876910
C23_6 C 0.2000(26) 0.1780(19) 0.8892(6)
C24_6 C 0.2642(25) 0.1652(19) 0.8783(6)
H11_6 H 0.279565 0.130322 0.889183
C25_6 C 0.1505(25) 0.1327(18) 0.9164(6)
C26_6 C 0.1982(27) 0.328(2) 0.8303(7)
H12_6 H 0.233163 0.357388 0.813928
C27_6 C 0.2196(28) 0.269(2) 0.8481(6)
C29_6 C 0.0251(26) 0.4646(19) 0.8153(6)
C30_6 C 0.0527(28) 0.410(2) 0.8307(7)
H13_6 H 0.028499 0.384972 0.849095
C31_6 C 0.1548(28) 0.437(2) 0.7954(7)
H14_6 H 0.201857 0.431286 0.789757
C32_6 C 0.1333(26) 0.4887(19) 0.7775(6)
C33_6 C 0.0691(25) 0.5015(19) 0.7884(6)
H15_6 H 0.053768 0.536345 0.777484
C34_6 C 0.1828(25) 0.5340(18) 0.7503(6)
C35_6 C 0.1351(27) 0.339(2) 0.8364(7)
H16_6 H 0.100170 0.309279 0.852739
C36_6 C 0.1137(28) 0.398(2) 0.8186(6)
O25_6 O 0.5158(11) 0.0742(16) 0.8515(4)
C46_6 C 0.5165(18) 0.0461(25) 0.8266(5)
O26_6 O 0.5833(11) 0.0749(15) 0.8116(4)
O38_6 O 0.5501(8) 0.3233(8) 0.8495(3)
O39_6 O 0.7732(11) 0.4499(8) 0.8495(3)
O40_6 O 0.6767(8) 0.2268(11) 0.8495(3)
O46_6 O 0.9258(16) 0.4416(11) 0.8515(4)
C4_6 C 0.770(2) 0.9489(19) 0.8713(7)
H2_6 H 0.764619 0.896096 0.876910
C8_6 C 0.672(2) 0.8706(18) 0.8303(7)
H4_6 H 0.642612 0.875776 0.813928
C9_6 C 0.731(2) 0.9510(19) 0.8481(6)
O7_6 O 0.5584(11) 0.4842(11) 0.8515(4)
C10_6 C 0.5296(17) 0.4835(18) 0.8266(5)
O8_6 O 0.4916(10) 0.4167(11) 0.8116(4)
C11_6 C 0.5354(19) 0.5605(18) 0.8153(6)
C12_6 C 0.590(2) 0.6427(19) 0.8307(7)
H5_6 H 0.615028 0.643527 0.849095
C13_6 C 0.563(2) 0.7178(19) 0.7954(7)
H6_6 H 0.568714 0.770571 0.789757
C14_6 C 0.5113(19) 0.6446(18) 0.7775(6)
C15_6 C 0.4985(19) 0.5676(17) 0.7884(6)
H7_6 H 0.463655 0.517423 0.777484
C16_6 C 0.4660(18) 0.6488(18) 0.7503(6)
C17_6 C 0.661(2) 0.7961(18) 0.8364(7)
H8_6 H 0.690721 0.790891 0.852739
C18_6 C 0.602(2) 0.7157(19) 0.8186(6)
C40_6 C 0.0511(19) 0.8215(28) 0.8713(7)
H18_6 H 0.103904 0.868524 0.876910
C44_6 C 0.1294(18) 0.8018(27) 0.8303(7)
H20_6 H 0.124224 0.766837 0.813928
C45_6 C 0.0490(19) 0.7804(28) 0.8481(6)
C47_6 C 0.4395(18) 0.9749(26) 0.8153(6)
C48_6 C 0.3573(19) 0.9473(28) 0.8307(7)
H21_6 H 0.356473 0.971501 0.849095
C49_6 C 0.2822(19) 0.8452(28) 0.7954(7)
H22_6 H 0.229429 0.798143 0.789757
C50_6 C 0.3554(18) 0.8667(26) 0.7775(6)
C51_6 C 0.4324(17) 0.9309(25) 0.7884(6)
H23_6 H 0.482577 0.946232 0.777484
C52_6 C 0.3512(18) 0.8172(25) 0.7503(6)
C53_6 C 0.2039(18) 0.8649(27) 0.8364(7)
H24_6 H 0.209109 0.899830 0.852739
C54_6 C 0.2843(19) 0.8863(28) 0.8186(6)
O30_12 O 0.666667 0.333333 0.7854(5)
O36_6 O 0.6566(8) 0.4399(11) 0.8172(3)
C28_6 C 0.9539(25) 0.4704(17) 0.8266(5)
O17_6 O 0.9251(15) 0.5084(10) 0.8116(4)
O21_6 O 0.8175(11) 0.5925(16) 0.8152(4)
C37_6 C 0.8168(18) 0.6206(25) 0.8401(5)
O22_6 O 0.7500(11) 0.5918(15) 0.8551(4)
C38_6 C 0.8938(18) 0.6918(26) 0.8514(6)
C39_6 C 0.9760(19) 0.7194(28) 0.8360(7)
H17_6 H 0.976860 0.695166 0.817572
C41_6 C 0.9779(18) 0.8000(26) 0.8892(6)
C42_6 C 0.9009(17) 0.7358(25) 0.8783(6)
H19_6 H 0.850756 0.720435 0.889183
C43_6 C 0.9821(18) 0.8495(25) 0.9164(6)
loop_
_geom_bond_atom_site_label_1
_geom_bond_atom_site_label_2
_geom_bond_site_symmetry_1
_geom_bond_site_symmetry_2
Y1 O1 1_555 1_555
O1 Y22 1_555 1_555
O2 Y1 1_555 1_555
O3 C1 1_555 1_555
C1 O4 1_555 1_555
O4 Y1 1_555 1_555
C2 C1 1_555 1_555
O5 C7 1_555 1_555
C3 C2 1_555 1_555
H1 C3 1_555 1_555
O6 C7 1_555 1_555
C4 H2 1_555 1_555
C5 C4 1_555 1_555
C6 C2 1_555 1_555
H3 C6 1_555 1_555
C7 C5 1_555 1_555
C8 H4 1_555 1_555
C9 C3 1_555 1_555
C13 H6 1_555 1_555
C17 C8 1_555 1_555
H8 C17 1_555 1_555
Y2 O2 1_555 1_555
O11 Y2 1_555 1_555
O12 C19 1_555 1_555
C19 O13 1_555 1_555
O13 Y2 1_555 1_555
O25 Y2 1_555 1_555
C46 O25 1_555 1_555
O26 C46 1_555 1_555
C47 C46 1_555 1_555
O27 C52 1_555 1_555
C48 C47 1_555 1_555
H21 C48 1_555 1_555
C51 C47 1_555 1_555
H23 C51 1_555 1_555
C52 C50 1_555 1_555
Y12 O2 1_555 1_555
Y14 O5 1_555 1_555
Y16 O6 1_555 1_555
Y19 O11 1_555 1_555
Y22 O39 1_555 1_555
Y23 O1 1_555 1_555
Y26 O10 1_555 1_555
O38 Y2 1_555 1_555
O39 Y1 1_555 1_555
O40 Y1 1_555 1_555
O46 Y1 1_555 1_555
O49 Y1 1_555 1_555
O51 Y2 1_555 1_555
O55 Y2 1_555 1_555
O56 Y1 1_555 1_555
O3 Y23 1_555 1_555
C4 C9 1_555 1_555
C5 C6 1_555 1_555
C8 C9 1_555 1_555
C13 C18 1_555 1_555
C17 C18 1_555 1_555
Y2 O40 1_555 1_555
O11 Y23 1_555 1_555
O12 Y19 1_555 1_555
O26 Y23 1_555 1_555
O27 Y26 1_555 1_555
C50 C51 1_555 1_555
Y12 O38 1_555 1_555
Y12 O39 1_555 1_555
Y19 O38 1_555 1_555
Y23 O40 1_555 1_555
O14 C25 1_555 1_555
C21 C20 1_555 1_555
H9 C21 1_555 1_555
O15 C25 1_555 1_555
C22 H10 1_555 1_555
C23 C22 1_555 1_555
C24 C20 1_555 1_555
H11 C24 1_555 1_555
C25 C23 1_555 1_555
C26 H12 1_555 1_555
C27 C21 1_555 1_555
O46 C28 1_555 1_555
C28 O17 1_555 1_555
O17 Y22 1_555 1_555
C29 C28 1_555 1_555
O18 C34 1_555 1_555
C30 C29 1_555 1_555
H13 C30 1_555 1_555
O19 C34 1_555 1_555
C31 H14 1_555 1_555
C32 C31 1_555 1_555
C33 C29 1_555 1_555
H15 C33 1_555 1_555
C34 C32 1_555 1_555
C35 C26 1_555 1_555
H16 C35 1_555 1_555
C36 C30 1_555 1_555
O23 C43 1_555 1_555
C39 C38 1_555 1_555
H17 C39 1_555 1_555
O24 C43 1_555 1_555
C40 H18 1_555 1_555
C41 C40 1_555 1_555
C42 C38 1_555 1_555
H19 C42 1_555 1_555
C43 C41 1_555 1_555
C44 H20 1_555 1_555
C45 C39 1_555 1_555
C49 H22 1_555 1_555
C53 C44 1_555 1_555
H24 C53 1_555 1_555
Y14 O15 1_555 1_555
Y16 O23 1_555 1_555
Y17 O14 1_555 1_555
Y25 O19 1_555 1_555
Y28 O28 1_555 1_555
C22 C27 1_555 1_555
C23 C24 1_555 1_555
C26 C27 1_555 1_555
C31 C36 1_555 1_555
C32 C33 1_555 1_555
C35 C36 1_555 1_555
O24 Y17 1_555 1_555
C40 C45 1_555 1_555
C41 C42 1_555 1_555
C44 C45 1_555 1_555
C49 C54 1_555 1_555
C53 C54 1_555 1_555
O7 C10 1_555 1_555
C10 O8 1_555 1_555
O8 Y19 1_555 1_555
C11 C10 1_555 1_555
O9 C16 1_555 1_555
C12 C11 1_555 1_555
H5 C12 1_555 1_555
C15 C11 1_555 1_555
H7 C15 1_555 1_555
C16 C14 1_555 1_555
O30 Y19 1_555 1_555
Y23 O30 1_555 1_555
Y12 O7 1_555 1_555
Y22 O30 1_555 1_555
O36 Y19 1_555 1_555
O52 Y19 1_555 1_555
O53 Y23 1_555 1_555
O59 Y19 1_555 1_555
O60 Y23 1_555 1_555
C14 C15 1_555 1_555
Y12 O36 1_555 1_555
Y22 O36 1_555 1_555
O21 C37 1_555 1_555
C37 O22 1_555 1_555
O22 Y12 1_555 1_555
Y22 O21 1_555 1_555
O50 Y12 1_555 1_555
O54 Y22 1_555 1_555
O57 Y12 1_555 1_555
O58 Y22 1_555 1_555
Y14 O1_2 1_555 1_555
O1_2 Y22_2 1_555 1_555
O2_2 Y14 1_555 1_555
O3_2 C1_2 1_555 1_555
C1_2 O4_2 1_555 1_555
O4_2 Y14 1_555 1_555
C2_2 C1_2 1_555 1_555
O49 C7_2 1_555 1_555
C3_2 C2_2 1_555 1_555
H1_2 C3_2 1_555 1_555
O55 C7_2 1_555 1_555
C4_2 H2_2 1_555 1_555
C5_2 C4_2 1_555 1_555
C6_2 C2_2 1_555 1_555
H3_2 C6_2 1_555 1_555
C7_2 C5_2 1_555 1_555
C8_2 H4_2 1_555 1_555
C9_2 C3_2 1_555 1_555
C13_2 H6_2 1_555 1_555
C17_2 C8_2 1_555 1_555
H8_2 C17_2 1_555 1_555
Y16 O2_2 1_555 1_555
O11_2 Y16 1_555 1_555
O12_2 C19_2 1_555 1_555
C19_2 O13_2 1_555 1_555
O13_2 Y16 1_555 1_555
O25_2 Y16 1_555 1_555
C46_2 O25_2 1_555 1_555
O26_2 C46_2 1_555 1_555
C47_2 C46_2 1_555 1_555
O27_2 C52_2 1_555 1_555
C48_2 C47_2 1_555 1_555
H21_2 C48_2 1_555 1_555
C51_2 C47_2 1_555 1_555
H23_2 C51_2 1_555 1_555
C52_2 C50_2 1_555 1_555
Y17 O2_2 1_555 1_555
Y19_2 O11_2 1_555 1_555
Y22_2 O39_2 1_555 1_555
Y23_2 O1_2 1_555 1_555
Y26_2 O10_2 1_555 1_555
O38_2 Y16 1_555 1_555
O39_2 Y14 1_555 1_555
O40_2 Y14 1_555 1_555
O46_2 Y14 1_555 1_555
O3_2 Y23_2 1_555 1_555
C4_2 C9_2 1_555 1_555
C5_2 C6_2 1_555 1_555
C8_2 C9_2 1_555 1_555
C13_2 C18_2 1_555 1_555
C17_2 C18_2 1_555 1_555
Y16 O40_2 1_555 1_555
O11_2 Y23_2 1_555 1_555
O12_2 Y19_2 1_555 1_555
O26_2 Y23_2 1_555 1_555
O27_2 Y26_2 1_555 1_555
C50_2 C51_2 1_555 1_555
Y17 O38_2 1_555 1_555
Y17 O39_2 1_555 1_555
Y19_2 O38_2 1_555 1_555
Y23_2 O40_2 1_555 1_555
O7_2 C10_2 1_555 1_555
C10_2 O8_2 1_555 1_555
O8_2 Y19_2 1_555 1_555
C11_2 C10_2 1_555 1_555
O9_2 C16_2 1_555 1_555
C12_2 C11_2 1_555 1_555
H5_2 C12_2 1_555 1_555
C15_2 C11_2 1_555 1_555
H7_2 C15_2 1_555 1_555
C16_2 C14_2 1_555 1_555
O30_2 Y19_2 1_555 1_555
Y23_2 O30_2 1_555 1_555
Y17 O7_2 1_555 1_555
Y22_2 O30_2 1_555 1_555
O36_2 Y19_2 1_555 1_555
O52_2 Y19_2 1_555 1_555
O53_2 Y23_2 1_555 1_555
O59_2 Y19_2 1_555 1_555
O60_2 Y23_2 1_555 1_555
C14_2 C15_2 1_555 1_555
Y17 O36_2 1_555 1_555
Y22_2 O36_2 1_555 1_555
O50 C25_2 1_555 1_555
C21_2 C20_2 1_555 1_555
H9_2 C21_2 1_555 1_555
O56 C25_2 1_555 1_555
C22_2 H10_2 1_555 1_555
C23_2 C22_2 1_555 1_555
C24_2 C20_2 1_555 1_555
H11_2 C24_2 1_555 1_555
C25_2 C23_2 1_555 1_555
C26_2 H12_2 1_555 1_555
C27_2 C21_2 1_555 1_555
O46_2 C28_2 1_555 1_555
C28_2 O17_2 1_555 1_555
O17_2 Y22_2 1_555 1_555
C29_2 C28_2 1_555 1_555
O18_2 C34_2 1_555 1_555
C30_2 C29_2 1_555 1_555
H13_2 C30_2 1_555 1_555
O19_2 C34_2 1_555 1_555
C31_2 H14_2 1_555 1_555
C32_2 C31_2 1_555 1_555
C33_2 C29_2 1_555 1_555
H15_2 C33_2 1_555 1_555
C34_2 C32_2 1_555 1_555
C35_2 C26_2 1_555 1_555
H16_2 C35_2 1_555 1_555
C36_2 C30_2 1_555 1_555
O51 C43_2 1_555 1_555
C39_2 C38_2 1_555 1_555
H17_2 C39_2 1_555 1_555
O57 C43_2 1_555 1_555
C40_2 H18_2 1_555 1_555
C41_2 C40_2 1_555 1_555
C42_2 C38_2 1_555 1_555
H19_2 C42_2 1_555 1_555
C43_2 C41_2 1_555 1_555
C44_2 H20_2 1_555 1_555
C45_2 C39_2 1_555 1_555
C49_2 H22_2 1_555 1_555
C53_2 C44_2 1_555 1_555
H24_2 C53_2 1_555 1_555
Y25_2 O19_2 1_555 1_555
Y28_2 O28_2 1_555 1_555
C22_2 C27_2 1_555 1_555
C23_2 C24_2 1_555 1_555
C26_2 C27_2 1_555 1_555
C31_2 C36_2 1_555 1_555
C32_2 C33_2 1_555 1_555
C35_2 C36_2 1_555 1_555
C40_2 C45_2 1_555 1_555
C41_2 C42_2 1_555 1_555
C44_2 C45_2 1_555 1_555
C49_2 C54_2 1_555 1_555
C53_2 C54_2 1_555 1_555
O21_2 C37_2 1_555 1_555
C37_2 O22_2 1_555 1_555
O22_2 Y17 1_555 1_555
Y22_2 O21_2 1_555 1_555
O54_2 Y22_2 1_555 1_555
O58_2 Y22_2 1_555 1_555
Y1_2 O1_3 1_555 1_555
O1_3 Y22_3 1_555 1_555
O2_3 Y1_2 1_555 1_555
O3_3 C1_3 1_555 1_555
C1_3 O4_3 1_555 1_555
O4_3 Y1_2 1_555 1_555
C2_3 C1_3 1_555 1_555
O5_2 C7_3 1_555 1_555
C3_3 C2_3 1_555 1_555
H1_3 C3_3 1_555 1_555
C6_3 C2_3 1_555 1_555
H3_3 C6_3 1_555 1_555
C7_3 C5_3 1_555 1_555
Y2_2 O2_3 1_555 1_555
O11_3 Y2_2 1_555 1_555
O12_3 C19_3 1_555 1_555
C19_3 O13_3 1_555 1_555
O13_3 Y2_2 1_555 1_555
C20_3 C19_3 1_555 1_555
O14_2 C25_3 1_555 1_555
C21_3 C20_3 1_555 1_555
H9_3 C21_3 1_555 1_555
O15_2 C25_3 1_555 1_555
C22_3 H10_3 1_555 1_555
C23_3 C22_3 1_555 1_555
C24_3 C20_3 1_555 1_555
H11_3 C24_3 1_555 1_555
C25_3 C23_3 1_555 1_555
C26_3 H12_3 1_555 1_555
C27_3 C21_3 1_555 1_555
O18_3 C34_3 1_555 1_555
C30_3 C29_3 1_555 1_555
H13_3 C30_3 1_555 1_555
O19_3 C34_3 1_555 1_555
C31_3 H14_3 1_555 1_555
C32_3 C31_3 1_555 1_555
C33_3 C29_3 1_555 1_555
H15_3 C33_3 1_555 1_555
C34_3 C32_3 1_555 1_555
C35_3 C26_3 1_555 1_555
H16_3 C35_3 1_555 1_555
C36_3 C30_3 1_555 1_555
O25_3 Y2_2 1_555 1_555
C46_3 O25_3 1_555 1_555
O26_3 C46_3 1_555 1_555
Y12_2 O2_3 1_555 1_555
Y14_2 O15_2 1_555 1_555
Y19_3 O11_3 1_555 1_555
Y22_3 O39_3 1_555 1_555
Y23_3 O1_3 1_555 1_555
Y25_3 O19_3 1_555 1_555
Y28_3 O18_3 1_555 1_555
O38_3 Y2_2 1_555 1_555
O39_3 Y1_2 1_555 1_555
O40_3 Y1_2 1_555 1_555
O46_3 Y1_2 1_555 1_555
O49_2 Y1_2 1_555 1_555
O51_2 Y2_2 1_555 1_555
O55_2 Y2_2 1_555 1_555
O56_2 Y1_2 1_555 1_555
O3_3 Y23_3 1_555 1_555
C5_3 C6_3 1_555 1_555
Y2_2 O40_3 1_555 1_555
O11_3 Y23_3 1_555 1_555
O12_3 Y19_3 1_555 1_555
C22_3 C27_3 1_555 1_555
C23_3 C24_3 1_555 1_555
C26_3 C27_3 1_555 1_555
C31_3 C36_3 1_555 1_555
C32_3 C33_3 1_555 1_555
C35_3 C36_3 1_555 1_555
O26_3 Y23_3 1_555 1_555
Y12_2 O38_3 1_555 1_555
Y12_2 O39_3 1_555 1_555
Y19_3 O38_3 1_555 1_555
Y23_3 O40_3 1_555 1_555
O46_3 C28_3 1_555 1_555
C28_3 O17_3 1_555 1_555
O17_3 Y22_3 1_555 1_555
C4_3 H2_3 1_555 1_555
C8_3 H4_3 1_555 1_555
O7_3 C10_3 1_555 1_555
C10_3 O8_3 1_555 1_555
O8_3 Y19_3 1_555 1_555
C11_3 C10_3 1_555 1_555
O9_3 C16_3 1_555 1_555
C12_3 C11_3 1_555 1_555
H5_3 C12_3 1_555 1_555
O10_3 C16_3 1_555 1_555
C13_3 H6_3 1_555 1_555
C14_3 C13_3 1_555 1_555
C15_3 C11_3 1_555 1_555
H7_3 C15_3 1_555 1_555
C16_3 C14_3 1_555 1_555
C17_3 C8_3 1_555 1_555
H8_3 C17_3 1_555 1_555
C18_3 C12_3 1_555 1_555
C40_3 H18_3 1_555 1_555
C44_3 H20_3 1_555 1_555
O27_3 C52_3 1_555 1_555
C48_3 C47_3 1_555 1_555
H21_3 C48_3 1_555 1_555
O28_3 C52_3 1_555 1_555
C49_3 H22_3 1_555 1_555
C50_3 C49_3 1_555 1_555
C51_3 C47_3 1_555 1_555
H23_3 C51_3 1_555 1_555
C52_3 C50_3 1_555 1_555
C53_3 C44_3 1_555 1_555
H24_3 C53_3 1_555 1_555
C54_3 C48_3 1_555 1_555
O30_3 Y19_3 1_555 1_555
Y23_3 O30_3 1_555 1_555
Y12_2 O7_3 1_555 1_555
Y16_2 O6_2 1_555 1_555
Y22_3 O30_3 1_555 1_555
Y25_3 O9_3 1_555 1_555
Y26_3 O10_3 1_555 1_555
Y28_3 O28_3 1_555 1_555
O36_3 Y19_3 1_555 1_555
O52_3 Y19_3 1_555 1_555
O53_3 Y23_3 1_555 1_555
O59_3 Y19_3 1_555 1_555
O60_3 Y23_3 1_555 1_555
C4_3 C9_3 1_555 1_555
C8_3 C9_3 1_555 1_555
C13_3 C18_3 1_555 1_555
C14_3 C15_3 1_555 1_555
C17_3 C18_3 1_555 1_555
O24_2 Y17_2 1_555 1_555
C40_3 C45_3 1_555 1_555
C44_3 C45_3 1_555 1_555
O27_3 Y26_3 1_555 1_555
C49_3 C54_3 1_555 1_555
C50_3 C51_3 1_555 1_555
C53_3 C54_3 1_555 1_555
Y12_2 O36_3 1_555 1_555
Y22_3 O36_3 1_555 1_555
O21_3 C37_3 1_555 1_555
C37_3 O22_3 1_555 1_555
O22_3 Y12_2 1_555 1_555
C38_3 C37_3 1_555 1_555
O23_2 C43_3 1_555 1_555
C39_3 C38_3 1_555 1_555
H17_3 C39_3 1_555 1_555
C42_3 C38_3 1_555 1_555
H19_3 C42_3 1_555 1_555
C43_3 C41_3 1_555 1_555
Y22_3 O21_3 1_555 1_555
Y16_2 O23_2 1_555 1_555
O50_2 Y12_2 1_555 1_555
O54_3 Y22_3 1_555 1_555
O57_2 Y12_2 1_555 1_555
O58_3 Y22_3 1_555 1_555
C41_3 C42_3 1_555 1_555
Y14_2 O1_4 1_555 1_555
O1_4 Y26 1_555 1_555
O2_4 Y14_2 1_555 1_555
Y26 O39_4 1_555 1_555
O39_4 Y14_2 1_555 1_555
O46_4 Y14_2 1_555 1_555
O3_4 C1_4 1_555 1_555
C1_4 O4_4 1_555 1_555
C2_4 C1_4 1_555 1_555
O49_2 C7_4 1_555 1_555
C3_4 C2_4 1_555 1_555
H1_4 C3_4 1_555 1_555
O55_2 C7_4 1_555 1_555
C4_4 H2_4 1_555 1_555
C5_4 C4_4 1_555 1_555
C6_4 C2_4 1_555 1_555
H3_4 C6_4 1_555 1_555
C7_4 C5_4 1_555 1_555
C9_4 C3_4 1_555 1_555
Y26 O30_4 1_555 1_555
O3_4 Y28 1_555 1_555
C4_4 C9_4 1_555 1_555
C5_4 C6_4 1_555 1_555
C8_4 C9_4 1_555 1_555
Y28 O40_4 1_555 1_555
Y28 O30_5 1_555 1_555
O46_4 C28_4 1_555 1_555
C28_4 O17_4 1_555 1_555
O17_4 Y26 1_555 1_555
C29_4 C28_4 1_555 1_555
O53 C34_4 1_555 1_555
C30_4 C29_4 1_555 1_555
H13_4 C30_4 1_555 1_555
O59 C34_4 1_555 1_555
C31_4 H14_4 1_555 1_555
C32_4 C31_4 1_555 1_555
C33_4 C29_4 1_555 1_555
H15_4 C33_4 1_555 1_555
C34_4 C32_4 1_555 1_555
C36_4 C30_4 1_555 1_555
Y17_2 O2_6 1_555 1_555
C31_4 C36_4 1_555 1_555
C32_4 C33_4 1_555 1_555
C35_4 C36_4 1_555 1_555
O7_4 C10_4 1_555 1_555
C10_4 O8_4 1_555 1_555
C11_4 C10_4 1_555 1_555
O52 C16_4 1_555 1_555
C12_4 C11_4 1_555 1_555
H5_4 C12_4 1_555 1_555
O58 C16_4 1_555 1_555
C13_4 H6_4 1_555 1_555
C14_4 C13_4 1_555 1_555
C15_4 C11_4 1_555 1_555
H7_4 C15_4 1_555 1_555
C16_4 C14_4 1_555 1_555
C18_4 C12_4 1_555 1_555
Y16_2 O2_7 1_555 1_555
O11_4 Y16_2 1_555 1_555
O12_4 C19_4 1_555 1_555
C19_4 O13_4 1_555 1_555
O13_4 Y16_2 1_555 1_555
C20_4 C19_4 1_555 1_555
O50_2 C25_4 1_555 1_555
C21_4 C20_4 1_555 1_555
H9_4 C21_4 1_555 1_555
O56_2 C25_4 1_555 1_555
C22_4 H10_4 1_555 1_555
C23_4 C22_4 1_555 1_555
C24_4 C20_4 1_555 1_555
H11_4 C24_4 1_555 1_555
C25_4 C23_4 1_555 1_555
C27_4 C21_4 1_555 1_555
O21_4 C37_4 1_555 1_555
C37_4 O22_4 1_555 1_555
C38_4 C37_4 1_555 1_555
O51_2 C43_4 1_555 1_555
C39_4 C38_4 1_555 1_555
H17_4 C39_4 1_555 1_555
O57_2 C43_4 1_555 1_555
C40_4 H18_4 1_555 1_555
C41_4 C40_4 1_555 1_555
C42_4 C38_4 1_555 1_555
H19_4 C42_4 1_555 1_555
C43_4 C41_4 1_555 1_555
C44_4 H20_4 1_555 1_555
C45_4 C39_4 1_555 1_555
O25_4 Y16_2 1_555 1_555
C46_4 O25_4 1_555 1_555
O26_4 C46_4 1_555 1_555
C47_4 C46_4 1_555 1_555
O54 C52_4 1_555 1_555
C48_4 C47_4 1_555 1_555
H21_4 C48_4 1_555 1_555
O60 C52_4 1_555 1_555
C49_4 H22_4 1_555 1_555
C50_4 C49_4 1_555 1_555
C51_4 C47_4 1_555 1_555
H23_4 C51_4 1_555 1_555
C52_4 C50_4 1_555 1_555
C53_4 C44_4 1_555 1_555
H24_4 C53_4 1_555 1_555
C54_4 C48_4 1_555 1_555
Y26 O21_4 1_555 1_555
Y17_2 O7_4 1_555 1_555
Y25 O11_4 1_555 1_555
O38_4 Y16_2 1_555 1_555
C13_4 C18_4 1_555 1_555
C14_4 C15_4 1_555 1_555
C17_4 C18_4 1_555 1_555
O12_4 Y25 1_555 1_555
C22_4 C27_4 1_555 1_555
C23_4 C24_4 1_555 1_555
C26_4 C27_4 1_555 1_555
C40_4 C45_4 1_555 1_555
C41_4 C42_4 1_555 1_555
C44_4 C45_4 1_555 1_555
C49_4 C54_4 1_555 1_555
C50_4 C51_4 1_555 1_555
C53_4 C54_4 1_555 1_555
Y17_2 O36_4 1_555 1_555
Y25 O38_4 1_555 1_555
O30_7 Y25 1_555 1_555
O1_5 Y26_2 1_555 1_555
O2_8 Y1_3 1_555 1_555
O39_5 Y1_3 1_555 1_555
O46_5 Y1_3 1_555 1_555
O56_3 Y1_3 1_555 1_555
C28_5 O17_5 1_555 1_555
O17_5 Y26_2 1_555 1_555
C29_5 C28_5 1_555 1_555
O53_2 C34_5 1_555 1_555
C30_5 C29_5 1_555 1_555
O59_2 C34_5 1_555 1_555
C31_5 H14_5 1_555 1_555
C32_5 C31_5 1_555 1_555
C33_5 C29_5 1_555 1_555
H15_5 C33_5 1_555 1_555
C34_5 C32_5 1_555 1_555
C36_5 C30_5 1_555 1_555
C31_5 C36_5 1_555 1_555
C32_5 C33_5 1_555 1_555
Y12_3 O2_9 1_555 1_555
Y26_2 O30_8 1_555 1_555
O3_5 Y28_2 1_555 1_555
C1_5 O4_5 1_555 1_555
C2_5 C1_5 1_555 1_555
O5_3 C7_5 1_555 1_555
C3_5 C2_5 1_555 1_555
O6_3 C7_5 1_555 1_555
C4_5 H2_5 1_555 1_555
C5_5 C4_5 1_555 1_555
C6_5 C2_5 1_555 1_555
H3_5 C6_5 1_555 1_555
C7_5 C5_5 1_555 1_555
C9_5 C3_5 1_555 1_555
Y14_3 O5_3 1_555 1_555
Y16_3 O6_3 1_555 1_555
C4_5 C9_5 1_555 1_555
C5_5 C6_5 1_555 1_555
C10_5 O8_5 1_555 1_555
C11_5 C10_5 1_555 1_555
O52_2 C16_5 1_555 1_555
C12_5 C11_5 1_555 1_555
O58_2 C16_5 1_555 1_555
C13_5 H6_5 1_555 1_555
C14_5 C13_5 1_555 1_555
C15_5 C11_5 1_555 1_555
H7_5 C15_5 1_555 1_555
C16_5 C14_5 1_555 1_555
C18_5 C12_5 1_555 1_555
C44_5 H20_5 1_555 1_555
O26_5 C46_5 1_555 1_555
C47_5 C46_5 1_555 1_555
O54_2 C52_5 1_555 1_555
C48_5 C47_5 1_555 1_555
O60_2 C52_5 1_555 1_555
C49_5 H22_5 1_555 1_555
C50_5 C49_5 1_555 1_555
C51_5 C47_5 1_555 1_555
H23_5 C51_5 1_555 1_555
C52_5 C50_5 1_555 1_555
C54_5 C48_5 1_555 1_555
Y26_2 O21_5 1_555 1_555
Y25_2 O11_5 1_555 1_555
C13_5 C18_5 1_555 1_555
C14_5 C15_5 1_555 1_555
O12_5 Y25_2 1_555 1_555
C49_5 C54_5 1_555 1_555
C50_5 C51_5 1_555 1_555
Y2_3 O2_11 1_555 1_555
C19_5 O13_5 1_555 1_555
O13_5 Y2_3 1_555 1_555
C20_5 C19_5 1_555 1_555
O14_3 C25_5 1_555 1_555
C21_5 C20_5 1_555 1_555
O15_3 C25_5 1_555 1_555
C22_5 H10_5 1_555 1_555
C23_5 C22_5 1_555 1_555
C24_5 C20_5 1_555 1_555
H11_5 C24_5 1_555 1_555
C25_5 C23_5 1_555 1_555
C27_5 C21_5 1_555 1_555
C37_5 O22_5 1_555 1_555
C38_5 C37_5 1_555 1_555
O23_3 C43_5 1_555 1_555
C39_5 C38_5 1_555 1_555
O24_3 C43_5 1_555 1_555
C40_5 H18_5 1_555 1_555
C41_5 C40_5 1_555 1_555
C42_5 C38_5 1_555 1_555
H19_5 C42_5 1_555 1_555
C43_5 C41_5 1_555 1_555
C45_5 C39_5 1_555 1_555
O25_5 Y2_3 1_555 1_555
H24_5 C53_5 1_555 1_555
Y12_3 O7_5 1_555 1_555
Y14_3 O15_3 1_555 1_555
Y16_3 O23_3 1_555 1_555
Y17_3 O14_3 1_555 1_555
O38_5 Y2_3 1_555 1_555
O51_3 Y2_3 1_555 1_555
O55_3 Y2_3 1_555 1_555
C22_5 C27_5 1_555 1_555
C23_5 C24_5 1_555 1_555
O24_3 Y17_3 1_555 1_555
C40_5 C45_5 1_555 1_555
C41_5 C42_5 1_555 1_555
O57_3 Y12_3 1_555 1_555
Y28_2 O30_10 1_555 1_555
O30_11 Y25_2 1_555 1_555
Y14_3 O1_6 1_555 1_555
O1_6 Y26_3 1_555 1_555
O2_12 Y14_3 1_555 1_555
O3_6 C1_6 1_555 1_555
C1_6 O4_6 1_555 1_555
O4_6 Y14_3 1_555 1_555
C2_6 C1_6 1_555 1_555
O49_3 C7_6 1_555 1_555
C3_6 C2_6 1_555 1_555
H1_6 C3_6 1_555 1_555
C6_6 C2_6 1_555 1_555
H3_6 C6_6 1_555 1_555
C7_6 C5_6 1_555 1_555
Y16_3 O2_12 1_555 1_555
O11_6 Y16_3 1_555 1_555
O12_6 C19_6 1_555 1_555
C19_6 O13_6 1_555 1_555
O13_6 Y16_3 1_555 1_555
C20_6 C19_6 1_555 1_555
O50_3 C25_6 1_555 1_555
C21_6 C20_6 1_555 1_555
H9_6 C21_6 1_555 1_555
O56_3 C25_6 1_555 1_555
C22_6 H10_6 1_555 1_555
C23_6 C22_6 1_555 1_555
C24_6 C20_6 1_555 1_555
H11_6 C24_6 1_555 1_555
C25_6 C23_6 1_555 1_555
C26_6 H12_6 1_555 1_555
C27_6 C21_6 1_555 1_555
O53_3 C34_6 1_555 1_555
C30_6 C29_6 1_555 1_555
H13_6 C30_6 1_555 1_555
O59_3 C34_6 1_555 1_555
C31_6 H14_6 1_555 1_555
C32_6 C31_6 1_555 1_555
C33_6 C29_6 1_555 1_555
H15_6 C33_6 1_555 1_555
C34_6 C32_6 1_555 1_555
C35_6 C26_6 1_555 1_555
H16_6 C35_6 1_555 1_555
C36_6 C30_6 1_555 1_555
O25_6 Y16_3 1_555 1_555
C46_6 O25_6 1_555 1_555
O26_6 C46_6 1_555 1_555
Y17_3 O2_12 1_555 1_555
Y25_3 O11_6 1_555 1_555
Y26_3 O39_6 1_555 1_555
Y28_3 O1_6 1_555 1_555
O38_6 Y16_3 1_555 1_555
O39_6 Y14_3 1_555 1_555
O40_6 Y14_3 1_555 1_555
O46_6 Y14_3 1_555 1_555
O3_6 Y28_3 1_555 1_555
C5_6 C6_6 1_555 1_555
Y16_3 O40_6 1_555 1_555
O11_6 Y28_3 1_555 1_555
O12_6 Y25_3 1_555 1_555
C22_6 C27_6 1_555 1_555
C23_6 C24_6 1_555 1_555
C26_6 C27_6 1_555 1_555
C31_6 C36_6 1_555 1_555
C32_6 C33_6 1_555 1_555
C35_6 C36_6 1_555 1_555
O26_6 Y28_3 1_555 1_555
Y17_3 O38_6 1_555 1_555
Y17_3 O39_6 1_555 1_555
Y25_3 O38_6 1_555 1_555
Y28_3 O40_6 1_555 1_555
C4_6 H2_6 1_555 1_555
C8_6 H4_6 1_555 1_555
O7_6 C10_6 1_555 1_555
C10_6 O8_6 1_555 1_555
O8_6 Y25_3 1_555 1_555
C11_6 C10_6 1_555 1_555
O52_3 C16_6 1_555 1_555
C12_6 C11_6 1_555 1_555
H5_6 C12_6 1_555 1_555
O58_3 C16_6 1_555 1_555
C13_6 H6_6 1_555 1_555
C14_6 C13_6 1_555 1_555
C15_6 C11_6 1_555 1_555
H7_6 C15_6 1_555 1_555
C16_6 C14_6 1_555 1_555
C17_6 C8_6 1_555 1_555
H8_6 C17_6 1_555 1_555
C18_6 C12_6 1_555 1_555
C40_6 H18_6 1_555 1_555
C44_6 H20_6 1_555 1_555
O54_3 C52_6 1_555 1_555
C48_6 C47_6 1_555 1_555
H21_6 C48_6 1_555 1_555
O60_3 C52_6 1_555 1_555
C49_6 H22_6 1_555 1_555
C50_6 C49_6 1_555 1_555
C51_6 C47_6 1_555 1_555
H23_6 C51_6 1_555 1_555
C52_6 C50_6 1_555 1_555
C53_6 C44_6 1_555 1_555
H24_6 C53_6 1_555 1_555
C54_6 C48_6 1_555 1_555
O30_12 Y25_3 1_555 1_555
Y28_3 O30_12 1_555 1_555
Y17_3 O7_6 1_555 1_555
Y26_3 O30_12 1_555 1_555
O36_6 Y25_3 1_555 1_555
C4_6 C9_6 1_555 1_555
C8_6 C9_6 1_555 1_555
C13_6 C18_6 1_555 1_555
C14_6 C15_6 1_555 1_555
C17_6 C18_6 1_555 1_555
C40_6 C45_6 1_555 1_555
C44_6 C45_6 1_555 1_555
C49_6 C54_6 1_555 1_555
C50_6 C51_6 1_555 1_555
C53_6 C54_6 1_555 1_555
Y17_3 O36_6 1_555 1_555
Y26_3 O36_6 1_555 1_555
O46_6 C28_6 1_555 1_555
C28_6 O17_6 1_555 1_555
O17_6 Y26_3 1_555 1_555
O21_6 C37_6 1_555 1_555
C37_6 O22_6 1_555 1_555
O22_6 Y17_3 1_555 1_555
C38_6 C37_6 1_555 1_555
O51_3 C43_6 1_555 1_555
C39_6 C38_6 1_555 1_555
H17_6 C39_6 1_555 1_555
C42_6 C38_6 1_555 1_555
H19_6 C42_6 1_555 1_555
C43_6 C41_6 1_555 1_555
Y26_3 O21_6 1_555 1_555
C41_6 C42_6 1_555 1_555

#END
