
###############################################################################
#
# This file contains modified crystal structure data generated from the
# MOF subset of the Cambridge Structural Database (CSD) v543 
# hosted by the Cambridge Crystallographic Data Centre (CCDC).
#
# This work is licensed under the Creative Commons
# Attribution-NonCommercial-ShareAlike 4.0 International License.
# To view a copy of this license, visit
# http://creativecommons.org/licenses/by-nc-sa/4.0/
# or send a letter to
# Creative Commons, PO Box 1866, Mountain View, CA 94042, USA.
#
# CIF created using the CSD Python API on 29 September 2022
# The structure has been converted into the P1 space group
# The structure has a 3D framework
# The original CSD entry SAPMAB is in the orthorhombic crystal system
# The original CSD entry SAPMAB is in a Sohncke space group
# The framework has been calculated to contain at least 10.0% void space
# The void calculation uses a probe of radius 1.32A, grid spacing 0.4
#
###############################################################################

data_SAPMAB
_chemical_formula_moiety         '(C180 H156 Co24 O114)n'
_symmetry_cell_setting           triclinic
_symmetry_space_group_name_H-M   'P 1'
_symmetry_Int_Tables_number      1
_space_group_name_Hall           'P 1'
loop_
_symmetry_equiv_pos_site_id
_symmetry_equiv_pos_as_xyz
1 x,y,z
_cell_length_a                   22.57(5)
_cell_length_b                   28.68(6)
_cell_length_c                   10.94(3)
_cell_angle_alpha                90
_cell_angle_beta                 90
_cell_angle_gamma                90
_cell_volume                     7081.55
loop_
_atom_site_label
_atom_site_type_symbol
_atom_site_fract_x
_atom_site_fract_y
_atom_site_fract_z
Co7 Co 0.04731(14) 0.38102(10) 0.1240(3)
Co3 Co 0.03526(12) 0.20496(8) 0.4102(2)
Co5 Co 0.08585(13) 0.33796(9) 0.4019(3)
Co6 Co 0.40747(12) 0.33557(9) 0.7325(3)
O1 O 0.0903(7) 0.4288(5) 0.2383(16)
O2 O 0.0481(5) 0.3249(3) 0.2439(11)
H1 H 0.0731 0.3013 0.2048
O6 O 0.1594(15) 0.5463(5) 0.6649(19)
O7 O 0.0314(6) 0.5952(4) 0.1979(13)
O8 O 0.0999(8) 0.4048(4) 0.4348(15)
O9 O 0.1612(6) 0.3072(4) 0.4308(14)
O10 O 0.0115(8) 0.3408(6) 0.9901(12)
H3 H 0.0462 0.4637 0.0105
O12 O 0.1338(10) 0.3571(6) 0.062(2)
H5 H 0.1673 0.3770 0.0835
O13 O 0.0637(6) 0.6461(4) 0.3392(11)
O15 O 0.3863(6) 0.2422(5) 0.7115(12)
O16 O 0.3354(6) 0.3067(5) 0.6761(19)
O18 O 0.0120(5) 0.2282(4) 0.2259(9)
O19 O 0.0343(6) 0.3267(4) 0.5443(11)
O20 O 0.0700(5) 0.1459(4) 0.3442(13)
O22 O 0.1121(6) 0.2436(4) 0.3815(12)
O26 O 0.0339(7) 0.0945(4) 0.4744(13)
O29 O 0.2531(8) 0.1164(6) 0.553(3)
O31 O 0.1696(10) 0.0466(7) 0.023(2)
C1 C 0.1029(10) 0.4862(6) 0.398(2)
C2 C 0.1259(14) 0.4935(7) 0.5121(19)
H11 H 0.1403 0.4692 0.5599
C3 C 0.127(2) 0.5397(9) 0.552(2)
C4 C 0.1085(12) 0.5747(6) 0.484(2)
H12 H 0.1130 0.6052 0.5114
C5 C 0.0826(8) 0.5664(6) 0.3695(16)
C6 C 0.0791(7) 0.5226(6) 0.328(2)
H13 H 0.0611 0.5164 0.2536
C7 C 0.0956(9) 0.4363(7) 0.354(2)
C11 C 0.0404(8) 0.2066(6) 0.0331(17)
C12 C 0.0956(8) 0.2285(7) 0.0351(19)
H15 H 0.1106 0.2376 0.1107
C15 C 0.156(2) 0.5838(17) 0.724(6)
H17 H 0.1800 0.5822 0.7952
H18 H 0.1685 0.6092 0.6730
H19 H 0.1151 0.5888 0.7475
C16 C 0.0575(10) 0.6049(7) 0.2979(18)
C17 C 0.1555(7) 0.2621(6) 0.4300(17)
C18 C 0.2037(8) 0.2354(5) 0.4937(18)
C19 C 0.2041(9) 0.1873(7) 0.494(3)
H20 H 0.1724 0.1713 0.4595
C20 C 0.2494(9) 0.1626(9) 0.543(3)
C21 C 0.2956(9) 0.1875(7) 0.603(2)
H21 H 0.3261 0.1715 0.6417
C22 C 0.2949(8) 0.2342(6) 0.6027(18)
C23 C 0.2506(8) 0.2582(7) 0.5470(16)
H22 H 0.2520 0.2906 0.5449
H25 H 0.0096 0.3264 0.7698
C31 C 0.3410(8) 0.2611(8) 0.668(2)
C32 C 0.0068(10) 0.2012(6) 0.1319(14)
C34 C 0.0598(8) 0.1056(6) 0.3792(18)
C35 C 0.0864(9) 0.0659(6) 0.3019(18)
C36 C 0.0827(9) 0.0202(5) 0.3450(17)
H26 H 0.0656 0.0144 0.4208
C39 C 0.1367(14) 0.0414(8) 0.120(3)
C40 C 0.1136(14) 0.0766(8) 0.200(3)
H28 H 0.1180 0.1078 0.1786
C43 C 0.2316(19) 0.0819(18) 0.468(4)
H32 H 0.2404 0.0513 0.4980
H33 H 0.1895 0.0853 0.4582
H34 H 0.2506 0.0863 0.3900
H40 H 0.1874 0.1146 0.0311
Co10 Co 0.03429(13) 0.70625(9) 0.2646(2)
Co11 Co 0.46571(13) 0.20625(9) 0.7354(2)
O33 O 0.4535(5) 0.3275(3) 0.5770(11)
O39 O 0.4618(6) 0.3283(4) 0.8705(11)
O40 O 0.0580(6) 0.2024(4) 0.5893(9)
O42 O 0.3951(7) 0.4015(4) 0.7563(13)
O11 O 0.0447(10) 0.4341(6) 0.9976(16)
H4 H 0.0466 0.4322 0.9105
H6 H 0.1398 0.3566 0.9735
O28 O 0.1818(10) 0.2571(11) 0.9494(15)
C8 C 0.0337(10) 0.1829(7) 0.6822(17)
C9 C 0.0550(8) 0.1982(6) 0.8055(14)
C10 C 0.0214(9) 0.1911(6) 0.9059(14)
C13 C 0.1289(11) 0.2376(9) 0.934(2)
C14 C 0.1122(11) 0.2213(9) 0.816(2)
H16 H 0.1368 0.2253 0.7491
C42 C 0.2213(19) 0.265(3) 0.850(4)
H29 H 0.2570 0.2790 0.8798
H30 H 0.2308 0.2353 0.8125
H31 H 0.2029 0.2847 0.7912
C45 C 0.1720(18) 0.0933(11) 0.971(3)
H38 H 0.1972 0.0932 0.9007
H39 H 0.1328 0.1029 0.9480
O23 O 0.0922(8) 0.9278(5) 0.4272(17)
O24 O 0.1049(7) 0.9015(4) 0.2437(13)
C37 C 0.1041(10) 0.9836(6) 0.2759(17)
C38 C 0.1315(12) 0.9942(7) 0.172(3)
H27 H 0.1486 0.9698 0.1280
C41 C 0.0999(9) 0.9339(6) 0.322(2)
Co14 Co 0.04603(13) 0.88251(9) 0.5457(3)
Co16 Co 0.09253(12) 0.83557(9) 0.2675(3)
O14 O 0.9416(6) 0.2997(5) 0.0859(12)
Co9 Co 0.96571(13) 0.29375(9) 0.2646(2)
O3 O 0.9851(5) 0.2695(4) 0.4476(10)
O4 O 0.9535(5) 0.1725(3) 0.4230(11)
H2 H 0.9299 0.1959 0.4665
O17 O 0.9618(6) 0.1717(4) 0.1295(11)
O30 O 0.8248(10) 0.2265(11) 0.7322(17)
C24 C 0.9676(9) 0.3115(7) 0.9896(17)
C25 C 0.9447(10) 0.2970(7) 0.8699(17)
C26 C 0.8921(11) 0.2728(8) 0.8646(18)
H23 H 0.8686 0.2701 0.9341
C27 C 0.8740(12) 0.2521(10) 0.755(3)
C28 C 0.9088(12) 0.2630(10) 0.6407(16)
H24 H 0.8959 0.2522 0.5651
C29 C 0.9608(7) 0.2894(6) 0.6499(14)
C30 C 0.9766(8) 0.3072(6) 0.7641(16)
C33 C 0.9957(9) 0.2953(8) 0.5382(17)
C44 C 0.7769(17) 0.234(2) 0.825(3)
H35 H 0.7432 0.2150 0.8050
H36 H 0.7913 0.2252 0.9047
H37 H 0.7655 0.2661 0.8260
Co8 Co 0.95269(14) 0.61898(10) 0.1240(3)
Co13 Co 0.95397(13) 0.11749(9) 0.5457(3)
Co15 Co 0.90747(12) 0.16443(9) 0.2675(3)
O34 O 0.9686(6) 0.4048(4) 0.1979(13)
O36 O 0.9363(6) 0.3539(4) 0.3392(11)
O38 O 0.8863(6) 0.2578(5) 0.2885(12)
O5 O 0.9908(7) 0.1558(5) 0.6823(10)
O25 O 0.9539(8) 0.0648(5) 0.6791(14)
H7 H 0.9592 0.0746 0.7642
H8 H 0.9869 0.0429 0.6750
O27 O 0.8690(8) 0.1387(7) 0.6087(16)
H9 H 0.8517 0.1192 0.5624
H10 H 0.8704 0.1637 0.5670
H14 H 0.9850 0.1762 0.8970
O41 O 0.9078(8) 0.0722(5) 0.4272(17)
O14_2 O 0.0584(6) 0.7003(5) 0.0859(12)
O3_2 O 0.0149(5) 0.7305(4) 0.4476(10)
O4_2 O 0.0465(5) 0.8275(3) 0.4230(11)
H2_2 H 0.0701 0.8041 0.4665
O17_2 O 0.0382(6) 0.8283(4) 0.1295(11)
O30_2 O 0.1752(10) 0.7735(11) 0.7322(17)
C24_2 C 0.0324(9) 0.6885(7) 0.9896(17)
C25_2 C 0.0553(10) 0.7030(7) 0.8699(17)
C26_2 C 0.1079(11) 0.7272(8) 0.8646(18)
H23_2 H 0.1314 0.7299 0.9341
C27_2 C 0.1260(12) 0.7479(10) 0.755(3)
C28_2 C 0.0912(12) 0.7370(10) 0.6407(16)
H24_2 H 0.1041 0.7478 0.5651
C29_2 C 0.0392(7) 0.7106(6) 0.6499(14)
C30_2 C 0.0234(8) 0.6928(6) 0.7641(16)
C33_2 C 0.0043(9) 0.7047(8) 0.5382(17)
C44_2 C 0.2231(17) 0.766(2) 0.825(3)
H35_2 H 0.2568 0.7850 0.8050
H36_2 H 0.2087 0.7748 0.9047
H37_2 H 0.2345 0.7339 0.8260
O38_2 O 0.1137(6) 0.7422(5) 0.2885(12)
O5_2 O 0.0092(7) 0.8442(5) 0.6823(10)
O25_2 O 0.0461(8) 0.9352(5) 0.6791(14)
H7_2 H 0.0408 0.9254 0.7642
H8_2 H 0.0131 0.9571 0.6750
O27_2 O 0.1310(8) 0.8613(7) 0.6087(16)
H9_2 H 0.1483 0.8808 0.5624
H10_2 H 0.1296 0.8363 0.5670
H14_2 H 0.0150 0.8238 0.8970
O24_2 O 0.8951(7) 0.0985(4) 0.2437(13)
C37_2 C 0.8959(10) 0.0164(6) 0.2759(17)
C38_2 C 0.8685(12) 0.0058(7) 0.172(3)
H27_2 H 0.8514 0.0302 0.1280
C41_2 C 0.9001(9) 0.0661(6) 0.322(2)
Co3_2 Co 0.96474(12) 0.79504(8) 0.4102(2)
Co5_2 Co 0.91415(13) 0.66204(9) 0.4019(3)
Co6_2 Co 0.59253(12) 0.66443(9) 0.7325(3)
O1_2 O 0.9097(7) 0.5712(5) 0.2383(16)
O2_2 O 0.9519(5) 0.6751(3) 0.2439(11)
H1_2 H 0.9269 0.6987 0.2048
O6_2 O 0.8406(15) 0.4537(5) 0.6649(19)
O8_2 O 0.9001(8) 0.5952(4) 0.4348(15)
O9_2 O 0.8388(6) 0.6928(4) 0.4308(14)
O10_2 O 0.9885(8) 0.6592(6) 0.9901(12)
H3_2 H 0.9538 0.5363 0.0105
O12_2 O 0.8662(10) 0.6429(6) 0.062(2)
H5_2 H 0.8327 0.6230 0.0835
O15_2 O 0.6137(6) 0.7578(5) 0.7115(12)
O16_2 O 0.6646(6) 0.6933(5) 0.6761(19)
O18_2 O 0.9880(5) 0.7718(4) 0.2259(9)
O19_2 O 0.9657(6) 0.6733(4) 0.5443(11)
O20_2 O 0.9300(5) 0.8541(4) 0.3442(13)
O22_2 O 0.8879(6) 0.7564(4) 0.3815(12)
O26_2 O 0.9661(7) 0.9055(4) 0.4744(13)
O29_2 O 0.7469(8) 0.8836(6) 0.553(3)
O31_2 O 0.8304(10) 0.9534(7) 0.023(2)
C1_2 C 0.8971(10) 0.5138(6) 0.398(2)
C2_2 C 0.8741(14) 0.5065(7) 0.5121(19)
H11_2 H 0.8597 0.5308 0.5599
C3_2 C 0.873(2) 0.4603(9) 0.552(2)
C4_2 C 0.8915(12) 0.4253(6) 0.484(2)
H12_2 H 0.8870 0.3948 0.5114
C5_2 C 0.9174(8) 0.4336(6) 0.3695(16)
C6_2 C 0.9209(7) 0.4774(6) 0.328(2)
H13_2 H 0.9389 0.4836 0.2536
C7_2 C 0.9044(9) 0.5637(7) 0.354(2)
C11_2 C 0.9596(8) 0.7934(6) 0.0331(17)
C12_2 C 0.9044(8) 0.7715(7) 0.0351(19)
H15_2 H 0.8894 0.7624 0.1107
C15_2 C 0.844(2) 0.4162(17) 0.724(6)
H17_2 H 0.8200 0.4178 0.7952
H18_2 H 0.8315 0.3908 0.6730
H19_2 H 0.8849 0.4112 0.7475
C16_2 C 0.9425(10) 0.3951(7) 0.2979(18)
C17_2 C 0.8445(7) 0.7379(6) 0.4300(17)
C18_2 C 0.7963(8) 0.7646(5) 0.4937(18)
C19_2 C 0.7959(9) 0.8127(7) 0.494(3)
H20_2 H 0.8276 0.8287 0.4595
C20_2 C 0.7506(9) 0.8374(9) 0.543(3)
C21_2 C 0.7044(9) 0.8125(7) 0.603(2)
H21_2 H 0.6739 0.8285 0.6417
C22_2 C 0.7051(8) 0.7658(6) 0.6027(18)
C23_2 C 0.7494(8) 0.7418(7) 0.5470(16)
H22_2 H 0.7480 0.7094 0.5449
H25_2 H 0.9904 0.6736 0.7698
C31_2 C 0.6590(8) 0.7389(8) 0.668(2)
C32_2 C 0.9932(10) 0.7988(6) 0.1319(14)
C34_2 C 0.9402(8) 0.8944(6) 0.3792(18)
C35_2 C 0.9136(9) 0.9341(6) 0.3019(18)
C36_2 C 0.9173(9) 0.9798(5) 0.3450(17)
H26_2 H 0.9344 0.9856 0.4208
C39_2 C 0.8633(14) 0.9586(8) 0.120(3)
C40_2 C 0.8864(14) 0.9234(8) 0.200(3)
H28_2 H 0.8820 0.8922 0.1786
C43_2 C 0.7684(19) 0.9181(18) 0.468(4)
H32_2 H 0.7596 0.9487 0.4980
H33_2 H 0.8105 0.9147 0.4582
H34_2 H 0.7494 0.9137 0.3900
H40_2 H 0.8126 0.8854 0.0311
Co11_2 Co 0.53429(13) 0.79375(9) 0.7354(2)
O33_2 O 0.5465(5) 0.6725(3) 0.5770(11)
O39_2 O 0.5382(6) 0.6717(4) 0.8705(11)
O40_2 O 0.9420(6) 0.7976(4) 0.5893(9)
O42_2 O 0.6049(7) 0.5985(4) 0.7563(13)
O11_2 O 0.9553(10) 0.5659(6) 0.9976(16)
H4_2 H 0.9534 0.5678 0.9105
H6_2 H 0.8602 0.6434 0.9735
O28_2 O 0.8182(10) 0.7429(11) 0.9494(15)
C8_2 C 0.9663(10) 0.8171(7) 0.6822(17)
C9_2 C 0.9450(8) 0.8018(6) 0.8055(14)
C10_2 C 0.9786(9) 0.8089(6) 0.9059(14)
C13_2 C 0.8711(11) 0.7624(9) 0.934(2)
C14_2 C 0.8878(11) 0.7787(9) 0.816(2)
H16_2 H 0.8632 0.7747 0.7491
C42_2 C 0.7787(19) 0.735(3) 0.850(4)
H29_2 H 0.7430 0.7210 0.8798
H30_2 H 0.7692 0.7647 0.8125
H31_2 H 0.7971 0.7153 0.7912
C45_2 C 0.8280(18) 0.9067(11) 0.971(3)
H38_2 H 0.8028 0.9068 0.9007
H39_2 H 0.8672 0.8971 0.9480
Co4 Co 0.45397(13) 0.38251(9) 0.4543(3)
O5_3 O 0.4908(7) 0.3442(5) 0.3177(10)
O11_3 O 0.5447(10) 0.0659(6) 0.0024(16)
H4_3 H 0.5466 0.0678 0.0895
H6_3 H 0.6398 0.1434 0.0265
O21 O 0.5580(6) 0.2976(4) 0.4107(9)
O25_3 O 0.4539(8) 0.4352(5) 0.3209(14)
H7_3 H 0.4592 0.4254 0.2358
H8_3 H 0.4869 0.4571 0.3250
O27_3 O 0.3690(8) 0.3613(7) 0.3913(16)
H9_3 H 0.3517 0.3808 0.4376
H10_3 H 0.3704 0.3363 0.4330
O28_3 O 0.6818(10) 0.2429(11) 0.0506(15)
C8_3 C 0.5337(10) 0.3171(7) 0.3178(17)
C9_3 C 0.5550(8) 0.3018(6) 0.1945(14)
C10_3 C 0.5214(9) 0.3089(6) 0.0941(14)
H14_3 H 0.4850 0.3238 0.1030
C13_3 C 0.6289(11) 0.2624(9) 0.066(2)
C14_3 C 0.6122(11) 0.2787(9) 0.184(2)
H16_3 H 0.6368 0.2747 0.2509
C42_3 C 0.7213(19) 0.235(3) 0.150(4)
H29_3 H 0.7570 0.2210 0.1202
H30_3 H 0.7308 0.2647 0.1875
H31_3 H 0.7029 0.2153 0.2088
C45_3 C 0.6720(18) 0.4067(11) 0.029(3)
H38_3 H 0.6972 0.4068 0.0993
H39_3 H 0.6328 0.3971 0.0520
Co12 Co 0.53526(12) 0.29504(8) 0.5898(2)
O35 O 0.5115(8) 0.1592(6) 0.0099(12)
O41_2 O 0.4078(8) 0.4278(5) 0.5728(17)
O43 O 0.5339(7) 0.4055(4) 0.5256(13)
Co1 Co 0.54731(14) 0.11898(10) 0.8760(3)
Co5_3 Co 0.58585(13) 0.16204(9) 0.5981(3)
O1_3 O 0.5903(7) 0.0712(5) 0.7617(16)
O2_3 O 0.5481(5) 0.1751(3) 0.7561(11)
H1_3 H 0.5731 0.1987 0.7952
O3_3 O 0.4851(5) 0.2305(4) 0.5524(10)
H2_3 H 0.4299 0.3041 0.5335
O8_3 O 0.5999(8) 0.0952(4) 0.5652(15)
O9_3 O 0.6612(6) 0.1928(4) 0.5692(14)
H3_3 H 0.5462 0.0363 0.9895
O12_3 O 0.6338(10) 0.1429(6) 0.938(2)
H5_3 H 0.6673 0.1230 0.9165
O16_3 O 0.8354(6) 0.1933(5) 0.3239(19)
O18_3 O 0.5120(5) 0.2718(4) 0.7741(9)
O19_3 O 0.5343(6) 0.1733(4) 0.4557(11)
O20_3 O 0.5700(5) 0.3541(4) 0.6558(13)
O22_3 O 0.6121(6) 0.2564(4) 0.6185(12)
O23_2 O 0.5922(8) 0.5722(5) 0.5728(17)
O29_3 O 0.7531(8) 0.3836(6) 0.447(3)
O30_3 O 0.3248(10) 0.2735(11) 0.2678(17)
O31_3 O 0.6696(10) 0.4534(7) 0.977(2)
C1_3 C 0.6029(10) 0.0138(6) 0.602(2)
C2_3 C 0.6259(14) 0.0065(7) 0.4879(19)
H11_3 H 0.6403 0.0308 0.4401
C7_3 C 0.5956(9) 0.0637(7) 0.646(2)
C11_3 C 0.5404(8) 0.2934(6) 0.9669(17)
C12_3 C 0.5956(8) 0.2715(7) 0.9649(19)
H15_3 H 0.6106 0.2624 0.8893
C17_3 C 0.6555(7) 0.2379(6) 0.5700(17)
C18_3 C 0.7037(8) 0.2646(5) 0.5063(18)
C19_3 C 0.7041(9) 0.3127(7) 0.506(3)
H20_3 H 0.6724 0.3287 0.5405
C20_3 C 0.7494(9) 0.3374(9) 0.457(3)
C21_3 C 0.7956(9) 0.3125(7) 0.397(2)
H21_3 H 0.8261 0.3285 0.3583
C22_3 C 0.7949(8) 0.2658(6) 0.3973(18)
C23_3 C 0.7506(8) 0.2418(7) 0.4530(16)
H22_3 H 0.7520 0.2094 0.4551
C24_3 C 0.4676(9) 0.1885(7) 0.0104(17)
C25_3 C 0.4447(10) 0.2030(7) 0.1301(17)
C26_3 C 0.3921(11) 0.2272(8) 0.1354(18)
H23_3 H 0.3686 0.2299 0.0659
C27_3 C 0.3740(12) 0.2479(10) 0.245(3)
C28_3 C 0.4088(12) 0.2370(10) 0.3593(16)
H24_3 H 0.3959 0.2478 0.4349
C29_3 C 0.4608(7) 0.2106(6) 0.3501(14)
C30_3 C 0.4766(8) 0.1928(6) 0.2359(16)
H25_3 H 0.5096 0.1736 0.2302
C31_3 C 0.8410(8) 0.2389(8) 0.332(2)
C32_3 C 0.5068(10) 0.2988(6) 0.8681(14)
C33_3 C 0.4957(9) 0.2047(8) 0.4618(17)
C34_3 C 0.5598(8) 0.3944(6) 0.6208(18)
C35_3 C 0.5864(9) 0.4341(6) 0.6981(18)
C36_3 C 0.5827(9) 0.4798(5) 0.6550(17)
H26_3 H 0.5656 0.4856 0.5792
C37_3 C 0.6041(10) 0.5164(6) 0.7241(17)
C38_3 C 0.6315(12) 0.5058(7) 0.828(3)
H27_3 H 0.6486 0.5302 0.8720
C39_3 C 0.6367(14) 0.4586(8) 0.880(3)
C40_3 C 0.6136(14) 0.4234(8) 0.800(3)
H28_3 H 0.6180 0.3922 0.8214
C41_3 C 0.5999(9) 0.5661(6) 0.678(2)
C43_3 C 0.7316(19) 0.4181(18) 0.532(4)
H32_3 H 0.7404 0.4487 0.5020
H33_3 H 0.6895 0.4147 0.5418
H34_3 H 0.7506 0.4137 0.6100
C44_3 C 0.2769(17) 0.266(2) 0.175(3)
H35_3 H 0.2432 0.2850 0.1950
H36_3 H 0.2913 0.2748 0.0953
H37_3 H 0.2655 0.2339 0.1740
H40_3 H 0.6874 0.3854 0.9689
Co14_2 Co 0.54603(13) 0.61749(9) 0.4543(3)
O34_2 O 0.4686(6) 0.0952(4) 0.8021(13)
O36_2 O 0.4363(6) 0.1461(4) 0.6608(11)
O37 O 0.4416(6) 0.2003(5) 0.9141(12)
O6_3 O 0.6594(15) 0.9537(5) 0.3351(19)
O7_2 O 0.5314(6) 0.9048(4) 0.8021(13)
O13_2 O 0.5637(6) 0.8539(4) 0.6608(11)
C3_3 C 0.627(2) 0.9603(9) 0.448(2)
C4_3 C 0.6085(12) 0.9253(6) 0.516(2)
H12_3 H 0.6130 0.8948 0.4886
C5_3 C 0.5826(8) 0.9336(6) 0.6305(16)
C6_3 C 0.5791(7) 0.9774(6) 0.672(2)
H13_3 H 0.5611 0.9836 0.7464
C15_3 C 0.656(2) 0.9162(17) 0.276(6)
H17_3 H 0.6800 0.9178 0.2048
H18_3 H 0.6685 0.8908 0.3270
H19_3 H 0.6151 0.9112 0.2525
C16_3 C 0.5575(10) 0.8951(7) 0.7021(18)
Co8_2 Co 0.45269(14) 0.88102(10) 0.8760(3)
O6_4 O 0.3406(15) 0.0463(5) 0.3351(19)
C3_4 C 0.373(2) 0.0397(9) 0.448(2)
C4_4 C 0.3915(12) 0.0747(6) 0.516(2)
H12_4 H 0.3870 0.1052 0.4886
C5_4 C 0.4174(8) 0.0664(6) 0.6305(16)
C6_4 C 0.4209(7) 0.0226(6) 0.672(2)
H13_4 H 0.4389 0.0164 0.7464
C15_4 C 0.344(2) 0.0838(17) 0.276(6)
H17_4 H 0.3200 0.0822 0.2048
H18_4 H 0.3315 0.1092 0.3270
H19_4 H 0.3849 0.0888 0.2525
C16_4 C 0.4425(10) 0.1049(7) 0.7021(18)
O5_4 O 0.5092(7) 0.6558(5) 0.3177(10)
O11_4 O 0.4553(10) 0.9341(6) 0.0024(16)
H4_4 H 0.4534 0.9322 0.0895
H6_4 H 0.3602 0.8566 0.0265
O21_2 O 0.4420(6) 0.7024(4) 0.4107(9)
O25_4 O 0.5461(8) 0.5648(5) 0.3209(14)
H7_4 H 0.5408 0.5746 0.2358
H8_4 H 0.5131 0.5429 0.3250
O27_4 O 0.6310(8) 0.6387(7) 0.3913(16)
H9_4 H 0.6483 0.6192 0.4376
H10_4 H 0.6296 0.6637 0.4330
O28_4 O 0.3182(10) 0.7571(11) 0.0506(15)
C8_4 C 0.4663(10) 0.6829(7) 0.3178(17)
C9_4 C 0.4450(8) 0.6982(6) 0.1945(14)
C10_4 C 0.4786(9) 0.6911(6) 0.0941(14)
H14_4 H 0.5150 0.6762 0.1030
C13_4 C 0.3711(11) 0.7376(9) 0.066(2)
C14_4 C 0.3878(11) 0.7213(9) 0.184(2)
H16_4 H 0.3632 0.7253 0.2509
C42_4 C 0.2787(19) 0.765(3) 0.150(4)
H29_4 H 0.2430 0.7790 0.1202
H30_4 H 0.2692 0.7353 0.1875
H31_4 H 0.2971 0.7847 0.2088
C45_4 C 0.3280(18) 0.5933(11) 0.029(3)
H38_4 H 0.3028 0.5932 0.0993
H39_4 H 0.3672 0.6029 0.0520
Co12_2 Co 0.46474(12) 0.70496(8) 0.5898(2)
O35_2 O 0.4885(8) 0.8408(6) 0.0099(12)
O43_2 O 0.4661(7) 0.5945(4) 0.5256(13)
Co5_4 Co 0.41415(13) 0.83796(9) 0.5981(3)
O1_4 O 0.4097(7) 0.9288(5) 0.7617(16)
O2_4 O 0.4519(5) 0.8249(3) 0.7561(11)
H1_4 H 0.4269 0.8013 0.7952
O3_4 O 0.5149(5) 0.7695(4) 0.5524(10)
H2_4 H 0.5701 0.6959 0.5335
O8_4 O 0.4001(8) 0.9048(4) 0.5652(15)
O9_4 O 0.3388(6) 0.8072(4) 0.5692(14)
H3_4 H 0.4538 0.9637 0.9895
O12_4 O 0.3662(10) 0.8571(6) 0.938(2)
H5_4 H 0.3327 0.8770 0.9165
O16_4 O 0.1646(6) 0.8067(5) 0.3239(19)
O18_4 O 0.4880(5) 0.7282(4) 0.7741(9)
O19_4 O 0.4657(6) 0.8267(4) 0.4557(11)
O20_4 O 0.4300(5) 0.6459(4) 0.6558(13)
O22_4 O 0.3879(6) 0.7436(4) 0.6185(12)
O29_4 O 0.2469(8) 0.6164(6) 0.447(3)
O30_4 O 0.6752(10) 0.7265(11) 0.2678(17)
O31_4 O 0.3304(10) 0.5466(7) 0.977(2)
C1_4 C 0.3971(10) 0.9862(6) 0.602(2)
C2_4 C 0.3741(14) 0.9935(7) 0.4879(19)
H11_4 H 0.3597 0.9692 0.4401
C7_4 C 0.4044(9) 0.9363(7) 0.646(2)
C11_4 C 0.4596(8) 0.7066(6) 0.9669(17)
C12_4 C 0.4044(8) 0.7285(7) 0.9649(19)
H15_4 H 0.3894 0.7376 0.8893
C17_4 C 0.3445(7) 0.7621(6) 0.5700(17)
C18_4 C 0.2963(8) 0.7354(5) 0.5063(18)
C19_4 C 0.2959(9) 0.6873(7) 0.506(3)
H20_4 H 0.3276 0.6713 0.5405
C20_4 C 0.2506(9) 0.6626(9) 0.457(3)
C21_4 C 0.2044(9) 0.6875(7) 0.397(2)
H21_4 H 0.1739 0.6715 0.3583
C22_4 C 0.2051(8) 0.7342(6) 0.3973(18)
C23_4 C 0.2494(8) 0.7582(7) 0.4530(16)
H22_4 H 0.2480 0.7906 0.4551
C24_4 C 0.5324(9) 0.8115(7) 0.0104(17)
C25_4 C 0.5553(10) 0.7970(7) 0.1301(17)
C26_4 C 0.6079(11) 0.7728(8) 0.1354(18)
H23_4 H 0.6314 0.7701 0.0659
C27_4 C 0.6260(12) 0.7521(10) 0.245(3)
C28_4 C 0.5912(12) 0.7630(10) 0.3593(16)
H24_4 H 0.6041 0.7522 0.4349
C29_4 C 0.5392(7) 0.7894(6) 0.3501(14)
C30_4 C 0.5234(8) 0.8072(6) 0.2359(16)
H25_4 H 0.4904 0.8264 0.2302
C31_4 C 0.1590(8) 0.7611(8) 0.332(2)
C32_4 C 0.4932(10) 0.7012(6) 0.8681(14)
C33_4 C 0.5043(9) 0.7953(8) 0.4618(17)
C34_4 C 0.4402(8) 0.6056(6) 0.6208(18)
C35_4 C 0.4136(9) 0.5659(6) 0.6981(18)
C36_4 C 0.4173(9) 0.5202(5) 0.6550(17)
H26_4 H 0.4344 0.5144 0.5792
C37_4 C 0.3959(10) 0.4836(6) 0.7241(17)
C38_4 C 0.3685(12) 0.4942(7) 0.828(3)
H27_4 H 0.3514 0.4698 0.8720
C39_4 C 0.3633(14) 0.5414(8) 0.880(3)
C40_4 C 0.3864(14) 0.5766(8) 0.800(3)
H28_4 H 0.3820 0.6078 0.8214
C41_4 C 0.4001(9) 0.4339(6) 0.678(2)
C43_4 C 0.2684(19) 0.5819(18) 0.532(4)
H32_4 H 0.2596 0.5513 0.5020
H33_4 H 0.3105 0.5853 0.5418
H34_4 H 0.2494 0.5863 0.6100
C44_4 C 0.7231(17) 0.734(2) 0.175(3)
H35_4 H 0.7568 0.7150 0.1950
H36_4 H 0.7087 0.7252 0.0953
H37_4 H 0.7345 0.7661 0.1740
H40_4 H 0.3126 0.6146 0.9689
O37_2 O 0.5584(6) 0.7997(5) 0.9141(12)
loop_
_geom_bond_atom_site_label_1
_geom_bond_atom_site_label_2
_geom_bond_site_symmetry_1
_geom_bond_site_symmetry_2
Co7 O1 1_555 1_555
Co5 O2 1_555 1_555
Co6 O16 1_555 1_555
O1 C7 1_555 1_555
O2 Co7 1_555 1_555
H1 O2 1_555 1_555
O6 C3 1_555 1_555
O7 C16 1_555 1_555
O8 Co5 1_555 1_555
O9 Co5 1_555 1_555
O12 Co7 1_555 1_555
H5 O12 1_555 1_555
O13 C16 1_555 1_555
O15 C31 1_555 1_555
O16 C31 1_555 1_555
O19 Co5 1_555 1_555
O20 Co3 1_555 1_555
O22 Co3 1_555 1_555
O26 C34 1_555 1_555
O29 C20 1_555 1_555
O31 C39 1_555 1_555
C1 C2 1_555 1_555
C2 H11 1_555 1_555
C3 C2 1_555 1_555
C4 C3 1_555 1_555
H12 C4 1_555 1_555
C5 C4 1_555 1_555
C6 C1 1_555 1_555
H13 C6 1_555 1_555
C7 O8 1_555 1_555
C12 C11 1_555 1_555
H15 C12 1_555 1_555
C15 O6 1_555 1_555
H17 C15 1_555 1_555
H18 C15 1_555 1_555
H19 C15 1_555 1_555
C16 C5 1_555 1_555
C17 O9 1_555 1_555
C18 C17 1_555 1_555
C19 C18 1_555 1_555
H20 C19 1_555 1_555
C20 C19 1_555 1_555
C21 C20 1_555 1_555
H21 C21 1_555 1_555
C22 C21 1_555 1_555
C23 C18 1_555 1_555
H22 C23 1_555 1_555
C31 C22 1_555 1_555
C32 O18 1_555 1_555
C34 O20 1_555 1_555
C35 C34 1_555 1_555
C36 C35 1_555 1_555
H26 C36 1_555 1_555
C40 C35 1_555 1_555
H28 C40 1_555 1_555
C43 O29 1_555 1_555
H32 C43 1_555 1_555
H33 C43 1_555 1_555
H34 C43 1_555 1_555
Co10 O13 1_555 1_555
Co11 O15 1_555 1_555
O33 Co6 1_555 1_555
O39 Co6 1_555 1_555
O40 Co3 1_555 1_555
O42 Co6 1_555 1_555
Co3 O18 1_555 1_555
O22 C17 1_555 1_555
C1 C7 1_555 1_555
C5 C6 1_555 1_555
C11 C32 1_555 1_555
C22 C23 1_555 1_555
C39 C40 1_555 1_555
H4 O11 1_555 1_555
O40 C8 1_555 1_555
O28 C13 1_555 1_555
C8 C9 1_555 1_555
C9 C10 1_555 1_555
C14 C9 1_555 1_555
H16 C14 1_555 1_555
C42 O28 1_555 1_555
H29 C42 1_555 1_555
H30 C42 1_555 1_555
H31 C42 1_555 1_555
H38 C45 1_555 1_555
H39 C45 1_555 1_555
C13 C14 1_555 1_555
O23 C41 1_555 1_555
O24 C41 1_555 1_555
C38 C37 1_555 1_555
H27 C38 1_555 1_555
C41 C37 1_555 1_555
Co14 O23 1_555 1_555
Co16 O24 1_555 1_555
Co9 O14 1_555 1_555
O3 Co9 1_555 1_555
H2 O4 1_555 1_555
O30 C27 1_555 1_555
C24 C25 1_555 1_555
C25 C26 1_555 1_555
C26 H23 1_555 1_555
C27 C26 1_555 1_555
C28 C27 1_555 1_555
H24 C28 1_555 1_555
C29 C28 1_555 1_555
C30 C25 1_555 1_555
C33 O3 1_555 1_555
C44 O30 1_555 1_555
H35 C44 1_555 1_555
H36 C44 1_555 1_555
H37 C44 1_555 1_555
Co13 O4 1_555 1_555
Co15 O4 1_555 1_555
O36 Co9 1_555 1_555
O38 Co9 1_555 1_555
O17 Co15 1_555 1_555
C29 C30 1_555 1_555
C29 C33 1_555 1_555
Co13 O5 1_555 1_555
O25 Co13 1_555 1_555
H7 O25 1_555 1_555
H8 O25 1_555 1_555
O27 Co13 1_555 1_555
H9 O27 1_555 1_555
H10 O27 1_555 1_555
O41 Co13 1_555 1_555
Co10 O14_2 1_555 1_555
O3_2 Co10 1_555 1_555
H2_2 O4_2 1_555 1_555
O30_2 C27_2 1_555 1_555
C24_2 C25_2 1_555 1_555
C25_2 C26_2 1_555 1_555
C26_2 H23_2 1_555 1_555
C27_2 C26_2 1_555 1_555
C28_2 C27_2 1_555 1_555
H24_2 C28_2 1_555 1_555
C29_2 C28_2 1_555 1_555
C30_2 C25_2 1_555 1_555
C33_2 O3_2 1_555 1_555
C44_2 O30_2 1_555 1_555
H35_2 C44_2 1_555 1_555
H36_2 C44_2 1_555 1_555
H37_2 C44_2 1_555 1_555
Co14 O4_2 1_555 1_555
Co16 O4_2 1_555 1_555
O38_2 Co10 1_555 1_555
O17_2 Co16 1_555 1_555
C29_2 C30_2 1_555 1_555
C29_2 C33_2 1_555 1_555
Co14 O5_2 1_555 1_555
O25_2 Co14 1_555 1_555
H7_2 O25_2 1_555 1_555
H8_2 O25_2 1_555 1_555
O27_2 Co14 1_555 1_555
H9_2 O27_2 1_555 1_555
H10_2 O27_2 1_555 1_555
O41 C41_2 1_555 1_555
O24_2 C41_2 1_555 1_555
C38_2 C37_2 1_555 1_555
H27_2 C38_2 1_555 1_555
C41_2 C37_2 1_555 1_555
Co15 O24_2 1_555 1_555
Co8 O1_2 1_555 1_555
Co5_2 O2_2 1_555 1_555
Co6_2 O16_2 1_555 1_555
O1_2 C7_2 1_555 1_555
O2_2 Co8 1_555 1_555
H1_2 O2_2 1_555 1_555
O6_2 C3_2 1_555 1_555
O34 C16_2 1_555 1_555
O8_2 Co5_2 1_555 1_555
O9_2 Co5_2 1_555 1_555
O12_2 Co8 1_555 1_555
H5_2 O12_2 1_555 1_555
O36 C16_2 1_555 1_555
O15_2 C31_2 1_555 1_555
O16_2 C31_2 1_555 1_555
O19_2 Co5_2 1_555 1_555
O20_2 Co3_2 1_555 1_555
O22_2 Co3_2 1_555 1_555
O26_2 C34_2 1_555 1_555
O29_2 C20_2 1_555 1_555
O31_2 C39_2 1_555 1_555
C1_2 C2_2 1_555 1_555
C2_2 H11_2 1_555 1_555
C3_2 C2_2 1_555 1_555
C4_2 C3_2 1_555 1_555
H12_2 C4_2 1_555 1_555
C5_2 C4_2 1_555 1_555
C6_2 C1_2 1_555 1_555
H13_2 C6_2 1_555 1_555
C7_2 O8_2 1_555 1_555
C12_2 C11_2 1_555 1_555
H15_2 C12_2 1_555 1_555
C15_2 O6_2 1_555 1_555
H17_2 C15_2 1_555 1_555
H18_2 C15_2 1_555 1_555
H19_2 C15_2 1_555 1_555
C16_2 C5_2 1_555 1_555
C17_2 O9_2 1_555 1_555
C18_2 C17_2 1_555 1_555
C19_2 C18_2 1_555 1_555
H20_2 C19_2 1_555 1_555
C20_2 C19_2 1_555 1_555
C21_2 C20_2 1_555 1_555
H21_2 C21_2 1_555 1_555
C22_2 C21_2 1_555 1_555
C23_2 C18_2 1_555 1_555
H22_2 C23_2 1_555 1_555
C31_2 C22_2 1_555 1_555
C32_2 O18_2 1_555 1_555
C34_2 O20_2 1_555 1_555
C35_2 C34_2 1_555 1_555
C36_2 C35_2 1_555 1_555
H26_2 C36_2 1_555 1_555
C40_2 C35_2 1_555 1_555
H28_2 C40_2 1_555 1_555
C43_2 O29_2 1_555 1_555
H32_2 C43_2 1_555 1_555
H33_2 C43_2 1_555 1_555
H34_2 C43_2 1_555 1_555
Co11_2 O15_2 1_555 1_555
O33_2 Co6_2 1_555 1_555
O39_2 Co6_2 1_555 1_555
O40_2 Co3_2 1_555 1_555
O42_2 Co6_2 1_555 1_555
Co3_2 O18_2 1_555 1_555
O22_2 C17_2 1_555 1_555
C1_2 C7_2 1_555 1_555
C5_2 C6_2 1_555 1_555
C11_2 C32_2 1_555 1_555
C22_2 C23_2 1_555 1_555
C39_2 C40_2 1_555 1_555
H4_2 O11_2 1_555 1_555
O40_2 C8_2 1_555 1_555
O28_2 C13_2 1_555 1_555
C8_2 C9_2 1_555 1_555
C9_2 C10_2 1_555 1_555
C14_2 C9_2 1_555 1_555
H16_2 C14_2 1_555 1_555
C42_2 O28_2 1_555 1_555
H29_2 C42_2 1_555 1_555
H30_2 C42_2 1_555 1_555
H31_2 C42_2 1_555 1_555
H38_2 C45_2 1_555 1_555
H39_2 C45_2 1_555 1_555
C13_2 C14_2 1_555 1_555
Co4 O5_3 1_555 1_555
O5_3 C8_3 1_555 1_555
H4_3 O11_3 1_555 1_555
O21 C8_3 1_555 1_555
O25_3 Co4 1_555 1_555
H7_3 O25_3 1_555 1_555
H8_3 O25_3 1_555 1_555
O27_3 Co4 1_555 1_555
H9_3 O27_3 1_555 1_555
H10_3 O27_3 1_555 1_555
O28_3 C13_3 1_555 1_555
C8_3 C9_3 1_555 1_555
C9_3 C10_3 1_555 1_555
C10_3 H14_3 1_555 1_555
C14_3 C9_3 1_555 1_555
H16_3 C14_3 1_555 1_555
C42_3 O28_3 1_555 1_555
H29_3 C42_3 1_555 1_555
H30_3 C42_3 1_555 1_555
H31_3 C42_3 1_555 1_555
H38_3 C45_3 1_555 1_555
H39_3 C45_3 1_555 1_555
Co12 O21 1_555 1_555
O33 Co4 1_555 1_555
O41_2 Co4 1_555 1_555
O43 Co4 1_555 1_555
C13_3 C14_3 1_555 1_555
Co12 O33 1_555 1_555
Co1 O1_3 1_555 1_555
Co11 O2_3 1_555 1_555
Co12 O3_3 1_555 1_555
Co5_3 O2_3 1_555 1_555
Co15 O16_3 1_555 1_555
O1_3 C7_3 1_555 1_555
O2_3 Co1 1_555 1_555
H1_3 O2_3 1_555 1_555
O3_3 Co11 1_555 1_555
H2_3 O33 1_555 1_555
O8_3 Co5_3 1_555 1_555
O9_3 Co5_3 1_555 1_555
O35 C24_3 1_555 1_555
O12_3 Co1 1_555 1_555
H5_3 O12_3 1_555 1_555
O38 C31_3 1_555 1_555
O16_3 C31_3 1_555 1_555
O39 C32_3 1_555 1_555
O18_3 Co11 1_555 1_555
O19_3 Co5_3 1_555 1_555
O20_3 Co12 1_555 1_555
O22_3 Co12 1_555 1_555
O23_2 C41_3 1_555 1_555
O42_2 C41_3 1_555 1_555
O43 C34_3 1_555 1_555
O29_3 C20_3 1_555 1_555
O30_3 C27_3 1_555 1_555
O31_3 C39_3 1_555 1_555
C1_3 C2_3 1_555 1_555
C2_3 H11_3 1_555 1_555
C7_3 O8_3 1_555 1_555
C12_3 C11_3 1_555 1_555
H15_3 C12_3 1_555 1_555
C17_3 O9_3 1_555 1_555
C18_3 C17_3 1_555 1_555
C19_3 C18_3 1_555 1_555
H20_3 C19_3 1_555 1_555
C20_3 C19_3 1_555 1_555
C21_3 C20_3 1_555 1_555
H21_3 C21_3 1_555 1_555
C22_3 C21_3 1_555 1_555
C23_3 C18_3 1_555 1_555
H22_3 C23_3 1_555 1_555
C24_3 C25_3 1_555 1_555
C25_3 C26_3 1_555 1_555
C26_3 H23_3 1_555 1_555
C27_3 C26_3 1_555 1_555
C28_3 C27_3 1_555 1_555
H24_3 C28_3 1_555 1_555
C29_3 C28_3 1_555 1_555
C30_3 C25_3 1_555 1_555
H25_3 C30_3 1_555 1_555
C31_3 C22_3 1_555 1_555
C32_3 O18_3 1_555 1_555
C33_3 O3_3 1_555 1_555
C34_3 O20_3 1_555 1_555
C35_3 C34_3 1_555 1_555
C36_3 C35_3 1_555 1_555
H26_3 C36_3 1_555 1_555
C37_3 C36_3 1_555 1_555
C38_3 C37_3 1_555 1_555
H27_3 C38_3 1_555 1_555
C39_3 C38_3 1_555 1_555
C40_3 C35_3 1_555 1_555
H28_3 C40_3 1_555 1_555
C41_3 C37_3 1_555 1_555
C43_3 O29_3 1_555 1_555
H32_3 C43_3 1_555 1_555
H33_3 C43_3 1_555 1_555
H34_3 C43_3 1_555 1_555
C44_3 O30_3 1_555 1_555
H35_3 C44_3 1_555 1_555
H36_3 C44_3 1_555 1_555
H37_3 C44_3 1_555 1_555
Co14_2 O23_2 1_555 1_555
O34_2 Co1 1_555 1_555
O36_2 Co11 1_555 1_555
O37 Co11 1_555 1_555
Co12 O18_3 1_555 1_555
O19_3 C33_3 1_555 1_555
O22_3 C17_3 1_555 1_555
C1_3 C7_3 1_555 1_555
C11_3 C32_3 1_555 1_555
C22_3 C23_3 1_555 1_555
C29_3 C30_3 1_555 1_555
C29_3 C33_3 1_555 1_555
C39_3 C40_3 1_555 1_555
O6_3 C3_3 1_555 1_555
O7_2 C16_3 1_555 1_555
O13_2 C16_3 1_555 1_555
C4_3 C3_3 1_555 1_555
H12_3 C4_3 1_555 1_555
C5_3 C4_3 1_555 1_555
H13_3 C6_3 1_555 1_555
C15_3 O6_3 1_555 1_555
H17_3 C15_3 1_555 1_555
H18_3 C15_3 1_555 1_555
H19_3 C15_3 1_555 1_555
C16_3 C5_3 1_555 1_555
Co8_2 O7_2 1_555 1_555
Co11_2 O13_2 1_555 1_555
C5_3 C6_3 1_555 1_555
O6_4 C3_4 1_555 1_555
O34_2 C16_4 1_555 1_555
O36_2 C16_4 1_555 1_555
C4_4 C3_4 1_555 1_555
H12_4 C4_4 1_555 1_555
C5_4 C4_4 1_555 1_555
H13_4 C6_4 1_555 1_555
C15_4 O6_4 1_555 1_555
H17_4 C15_4 1_555 1_555
H18_4 C15_4 1_555 1_555
H19_4 C15_4 1_555 1_555
C16_4 C5_4 1_555 1_555
C5_4 C6_4 1_555 1_555
Co14_2 O5_4 1_555 1_555
O5_4 C8_4 1_555 1_555
H4_4 O11_4 1_555 1_555
O21_2 C8_4 1_555 1_555
O25_4 Co14_2 1_555 1_555
H7_4 O25_4 1_555 1_555
H8_4 O25_4 1_555 1_555
O27_4 Co14_2 1_555 1_555
H9_4 O27_4 1_555 1_555
H10_4 O27_4 1_555 1_555
O28_4 C13_4 1_555 1_555
C8_4 C9_4 1_555 1_555
C9_4 C10_4 1_555 1_555
C10_4 H14_4 1_555 1_555
C14_4 C9_4 1_555 1_555
H16_4 C14_4 1_555 1_555
C42_4 O28_4 1_555 1_555
H29_4 C42_4 1_555 1_555
H30_4 C42_4 1_555 1_555
H31_4 C42_4 1_555 1_555
H38_4 C45_4 1_555 1_555
H39_4 C45_4 1_555 1_555
Co12_2 O21_2 1_555 1_555
O33_2 Co14_2 1_555 1_555
O43_2 Co14_2 1_555 1_555
C13_4 C14_4 1_555 1_555
Co12_2 O33_2 1_555 1_555
Co8_2 O1_4 1_555 1_555
Co11_2 O2_4 1_555 1_555
Co12_2 O3_4 1_555 1_555
Co5_4 O2_4 1_555 1_555
Co16 O16_4 1_555 1_555
O1_4 C7_4 1_555 1_555
O2_4 Co8_2 1_555 1_555
H1_4 O2_4 1_555 1_555
O3_4 Co11_2 1_555 1_555
H2_4 O33_2 1_555 1_555
O8_4 Co5_4 1_555 1_555
O9_4 Co5_4 1_555 1_555
O35_2 C24_4 1_555 1_555
O12_4 Co8_2 1_555 1_555
H5_4 O12_4 1_555 1_555
O38_2 C31_4 1_555 1_555
O16_4 C31_4 1_555 1_555
O39_2 C32_4 1_555 1_555
O18_4 Co11_2 1_555 1_555
O19_4 Co5_4 1_555 1_555
O20_4 Co12_2 1_555 1_555
O22_4 Co12_2 1_555 1_555
O41_2 C41_4 1_555 1_555
O42 C41_4 1_555 1_555
O43_2 C34_4 1_555 1_555
O29_4 C20_4 1_555 1_555
O30_4 C27_4 1_555 1_555
O31_4 C39_4 1_555 1_555
C1_4 C2_4 1_555 1_555
C2_4 H11_4 1_555 1_555
C7_4 O8_4 1_555 1_555
C12_4 C11_4 1_555 1_555
H15_4 C12_4 1_555 1_555
C17_4 O9_4 1_555 1_555
C18_4 C17_4 1_555 1_555
C19_4 C18_4 1_555 1_555
H20_4 C19_4 1_555 1_555
C20_4 C19_4 1_555 1_555
C21_4 C20_4 1_555 1_555
H21_4 C21_4 1_555 1_555
C22_4 C21_4 1_555 1_555
C23_4 C18_4 1_555 1_555
H22_4 C23_4 1_555 1_555
C24_4 C25_4 1_555 1_555
C25_4 C26_4 1_555 1_555
C26_4 H23_4 1_555 1_555
C27_4 C26_4 1_555 1_555
C28_4 C27_4 1_555 1_555
H24_4 C28_4 1_555 1_555
C29_4 C28_4 1_555 1_555
C30_4 C25_4 1_555 1_555
H25_4 C30_4 1_555 1_555
C31_4 C22_4 1_555 1_555
C32_4 O18_4 1_555 1_555
C33_4 O3_4 1_555 1_555
C34_4 O20_4 1_555 1_555
C35_4 C34_4 1_555 1_555
C36_4 C35_4 1_555 1_555
H26_4 C36_4 1_555 1_555
C37_4 C36_4 1_555 1_555
C38_4 C37_4 1_555 1_555
H27_4 C38_4 1_555 1_555
C39_4 C38_4 1_555 1_555
C40_4 C35_4 1_555 1_555
H28_4 C40_4 1_555 1_555
C41_4 C37_4 1_555 1_555
C43_4 O29_4 1_555 1_555
H32_4 C43_4 1_555 1_555
H33_4 C43_4 1_555 1_555
H34_4 C43_4 1_555 1_555
C44_4 O30_4 1_555 1_555
H35_4 C44_4 1_555 1_555
H36_4 C44_4 1_555 1_555
H37_4 C44_4 1_555 1_555
O37_2 Co11_2 1_555 1_555
Co12_2 O18_4 1_555 1_555
O19_4 C33_4 1_555 1_555
O22_4 C17_4 1_555 1_555
C1_4 C7_4 1_555 1_555
C11_4 C32_4 1_555 1_555
C22_4 C23_4 1_555 1_555
C29_4 C30_4 1_555 1_555
C29_4 C33_4 1_555 1_555
C39_4 C40_4 1_555 1_555

#END
