
###############################################################################
#
# This file contains modified crystal structure data generated from the
# MOF subset of the Cambridge Structural Database (CSD) v543 
# hosted by the Cambridge Crystallographic Data Centre (CCDC).
#
# This work is licensed under the Creative Commons
# Attribution-NonCommercial-ShareAlike 4.0 International License.
# To view a copy of this license, visit
# http://creativecommons.org/licenses/by-nc-sa/4.0/
# or send a letter to
# Creative Commons, PO Box 1866, Mountain View, CA 94042, USA.
#
# CIF created using the CSD Python API on 29 September 2022
# The structure has been converted into the P1 space group
# The structure has a 3D framework
# The original CSD entry SAPRAF is in the cubic crystal system
# The framework has been calculated to contain at least 10.0% void space
# The void calculation uses a probe of radius 1.32A, grid spacing 0.4
# The framework is charged, counterions have been retained in the structure
#
###############################################################################

data_SAPRAF
_chemical_formula_moiety         '(C480 H336 N48 O240 Sm24 12-)n'
_symmetry_cell_setting           triclinic
_symmetry_space_group_name_H-M   'P 1'
_symmetry_Int_Tables_number      1
_space_group_name_Hall           'P 1'
loop_
_symmetry_equiv_pos_site_id
_symmetry_equiv_pos_as_xyz
1 x,y,z
_cell_length_a                   26.6581(12)
_cell_length_b                   26.6581(12)
_cell_length_c                   26.6581(12)
_cell_angle_alpha                90
_cell_angle_beta                 90
_cell_angle_gamma                90
_cell_volume                     18944.7
loop_
_atom_site_label
_atom_site_type_symbol
_atom_site_fract_x
_atom_site_fract_y
_atom_site_fract_z
C35 C 0.00866(18) 0.18199(18) 0.2003(2)
C36 C 0.0618(2) 0.17131(19) 0.1883(2)
H24 H 0.0155 0.1790 0.2769
O18 O 0.09359(13) 0.16555(13) 0.22328(14)
O19 O 0.07629(14) 0.16968(15) 0.14266(14)
Sm7 Sm 0.16585(2) 0.16585(2) 0.16585(2)
Sm1 Sm 0.7500 0.2500 0.2500
Sm2 Sm 0.66585(2) 0.16585(2) 0.33415(2)
C1 C 0.64109(18) 0.27045(18) 0.2656(2)
C2 C 0.58922(18) 0.28896(19) 0.2769(2)
C3 C 0.57428(19) 0.2932(2) 0.3260(2)
H1 H 0.5969 0.2856 0.3515
C4 C 0.5257(2) 0.3088(2) 0.3384(2)
H2 H 0.5164 0.3129 0.3718
C5 C 0.49134(18) 0.31801(18) 0.2997(2)
C6 C 0.4382(2) 0.32869(19) 0.3117(2)
C7 C 0.5069(2) 0.3141(2) 0.2489(2)
H3 H 0.4845 0.3210 0.2231
C8 C 0.5558(2) 0.2999(2) 0.2381(2)
C9 C 0.5424(8) 0.3035(7) 0.1414(7)
C10 C 0.5741(7) 0.3010(6) 0.0941(7)
H4 H 0.5942 0.2711 0.0946
H5 H 0.5956 0.3299 0.0926
H6 H 0.5526 0.3006 0.0653
N1 N 0.5697(4) 0.2976(4) 0.1883(4)
H7 H 0.6011 0.2915 0.1841
O1 O 0.65945(13) 0.27441(14) 0.22279(14)
O2 O 0.66657(12) 0.25113(12) 0.30102(13)
O3 O 0.40641(13) 0.33445(13) 0.27672(14)
O4 O 0.42371(14) 0.33032(15) 0.35734(14)
O5 O 0.5028(6) 0.3224(6) 0.1454(6)
C11 C 0.7344(2) 0.14109(18) 0.22955(18)
C12 C 0.7231(2) 0.08922(18) 0.21104(19)
C13 C 0.6740(2) 0.07428(19) 0.2068(2)
H8 H 0.6485 0.0969 0.2144
C14 C 0.6616(2) 0.0257(2) 0.1912(2)
H9 H 0.6282 0.0164 0.1871
C17 C 0.7511(2) 0.0069(2) 0.1859(2)
C18 C 0.7619(2) 0.0558(2) 0.2001(2)
C19 C 0.8586(7) 0.0424(8) 0.1965(7)
C20 C 0.9059(7) 0.0741(7) 0.1990(6)
H11 H 0.9054 0.0942 0.2289
H12 H 0.9074 0.0956 0.1701
H13 H 0.9347 0.0526 0.1994
N2 N 0.8117(4) 0.0697(4) 0.2024(4)
H14 H 0.8159 0.1011 0.2085
O6 O 0.77721(14) 0.15945(13) 0.22559(14)
O7 O 0.69898(13) 0.16657(12) 0.24887(12)
O10 O 0.8546(6) 0.0028(6) 0.1776(6)
C21 C 0.77045(18) 0.2344(2) 0.35891(18)
C22 C 0.78896(19) 0.2231(2) 0.41078(18)
C23 C 0.7932(2) 0.1740(2) 0.42572(19)
H15 H 0.7856 0.1485 0.4031
C24 C 0.8088(2) 0.1616(2) 0.4743(2)
H16 H 0.8129 0.1282 0.4836
C25 C 0.81801(18) 0.2003(2) 0.50866(18)
C26 C 0.82869(19) 0.1883(2) 0.5618(2)
C27 C 0.8141(2) 0.2511(2) 0.4931(2)
H17 H 0.8210 0.2769 0.5155
C28 C 0.7999(2) 0.2619(2) 0.4442(2)
C29 C 0.8035(7) 0.3586(7) 0.4576(8)
C30 C 0.8010(6) 0.4059(7) 0.4259(7)
H18 H 0.7711 0.4054 0.4058
H19 H 0.8299 0.4074 0.4044
H20 H 0.8006 0.4347 0.4474
N3 N 0.7976(4) 0.3117(4) 0.4303(4)
H21 H 0.7915 0.3159 0.3989
O11 O 0.77441(14) 0.27721(14) 0.34055(13)
O12 O 0.75113(12) 0.19898(13) 0.33343(12)
O13 O 0.83445(13) 0.22328(14) 0.59359(13)
O14 O 0.83032(15) 0.14266(14) 0.57629(14)
O15 O 0.8224(6) 0.3546(6) 0.4972(6)
Sm3 Sm 0.83415(2) 0.33415(2) 0.16585(2)
C31 C 0.85891(18) 0.22955(18) 0.2344(2)
C32 C 0.91078(18) 0.21104(19) 0.2231(2)
C33 C 0.92572(19) 0.2068(2) 0.1740(2)
H22 H 0.9031 0.2144 0.1485
C34 C 0.9743(2) 0.1912(2) 0.1616(2)
H23 H 0.9836 0.1871 0.1282
C37 C 0.9931(2) 0.1859(2) 0.2511(2)
C38 C 0.9442(2) 0.2001(2) 0.2619(2)
C39 C 0.9576(8) 0.1965(7) 0.3586(7)
C40 C 0.9259(7) 0.1990(6) 0.4059(7)
H25 H 0.9058 0.2289 0.4054
H26 H 0.9044 0.1701 0.4074
H27 H 0.9474 0.1994 0.4347
N4 N 0.9303(4) 0.2024(4) 0.3117(4)
H28 H 0.8989 0.2085 0.3159
O16 O 0.84055(13) 0.22559(14) 0.27721(14)
O17 O 0.83343(12) 0.24887(12) 0.19898(13)
O20 O 0.9972(6) 0.1776(6) 0.3546(6)
C41 C 0.7656(2) 0.35891(18) 0.27045(18)
C42 C 0.7769(2) 0.41078(18) 0.28896(19)
C43 C 0.8260(2) 0.42572(19) 0.2932(2)
H29 H 0.8515 0.4031 0.2856
C44 C 0.8384(2) 0.4743(2) 0.3088(2)
H30 H 0.8718 0.4836 0.3129
C45 C 0.7997(2) 0.50866(18) 0.31801(18)
C46 C 0.8117(2) 0.5618(2) 0.32869(19)
C47 C 0.7489(2) 0.4931(2) 0.3141(2)
H31 H 0.7231 0.5155 0.3210
C48 C 0.7381(2) 0.4442(2) 0.2999(2)
C49 C 0.6414(7) 0.4576(8) 0.3035(7)
C50 C 0.5941(7) 0.4259(7) 0.3010(6)
H32 H 0.5946 0.4058 0.2711
H33 H 0.5926 0.4044 0.3299
H34 H 0.5653 0.4474 0.3006
N5 N 0.6883(4) 0.4303(4) 0.2976(4)
H35 H 0.6841 0.3989 0.2915
O21 O 0.72279(14) 0.34055(13) 0.27441(14)
O22 O 0.80102(13) 0.33343(12) 0.25113(12)
O23 O 0.77672(14) 0.59359(13) 0.33445(13)
O24 O 0.85734(14) 0.57629(14) 0.33032(15)
O25 O 0.6454(6) 0.4972(6) 0.3224(6)
C51 C 0.72955(18) 0.2656(2) 0.14109(18)
C52 C 0.71104(19) 0.2769(2) 0.08922(18)
C53 C 0.7068(2) 0.3260(2) 0.07428(19)
H36 H 0.7144 0.3515 0.0969
C54 C 0.6912(2) 0.3384(2) 0.0257(2)
H37 H 0.6871 0.3718 0.0164
C57 C 0.6859(2) 0.2489(2) 0.0069(2)
C58 C 0.7001(2) 0.2381(2) 0.0558(2)
C59 C 0.6965(7) 0.1414(7) 0.0424(8)
C60 C 0.6990(6) 0.0941(7) 0.0741(7)
H39 H 0.7289 0.0946 0.0942
H40 H 0.6701 0.0926 0.0956
H41 H 0.6994 0.0653 0.0526
N6 N 0.7024(4) 0.1883(4) 0.0697(4)
H42 H 0.7085 0.1841 0.1011
O26 O 0.72559(14) 0.22279(14) 0.15945(13)
O27 O 0.74887(12) 0.30102(13) 0.16657(12)
O30 O 0.6776(6) 0.1454(6) 0.0028(6)
Sm4 Sm 0.33415(2) 0.33415(2) 0.33415(2)
Sm5 Sm 0.83415(2) 0.16585(2) 0.66585(2)
Sm9 Sm 0.83415(2) 0.66585(2) 0.33415(2)
O31 O 0.59359(13) 0.16555(13) 0.27672(14)
O32 O 0.72328(14) 0.09359(13) 0.33445(13)
O33 O 0.66555(13) 0.22328(14) 0.40641(13)
O34 O 0.90641(13) 0.33445(13) 0.22328(14)
O35 O 0.77672(14) 0.40641(13) 0.16555(13)
O36 O 0.83445(13) 0.27672(14) 0.09359(13)
O37 O 0.57629(14) 0.16968(15) 0.35734(14)
O38 O 0.64266(14) 0.07629(14) 0.33032(15)
O39 O 0.66968(15) 0.14266(14) 0.42371(14)
O40 O 0.92371(14) 0.33032(15) 0.14266(14)
O41 O 0.85734(14) 0.42371(14) 0.16968(15)
O42 O 0.83032(15) 0.35734(14) 0.07629(14)
C55 C 0.68199(18) 0.2997(2) 0.99134(18)
C56 C 0.67131(19) 0.3117(2) 0.9382(2)
H38 H 0.6790 0.2231 0.9845
O28 O 0.66555(13) 0.27672(14) 0.90641(13)
O29 O 0.66968(15) 0.35734(14) 0.92371(14)
Sm8 Sm 0.66585(2) 0.33415(2) 0.83415(2)
C15 C 0.7003(2) 0.99134(18) 0.18199(18)
C16 C 0.6883(2) 0.9382(2) 0.17131(19)
H10 H 0.7769 0.9845 0.1790
O8 O 0.72328(14) 0.90641(13) 0.16555(13)
O9 O 0.64266(14) 0.92371(14) 0.16968(15)
Sm6 Sm 0.66585(2) 0.83415(2) 0.16585(2)
C5_2 C 0.00866(18) 0.68199(18) 0.7997(2)
C6_2 C 0.0618(2) 0.67131(19) 0.8117(2)
H3_2 H 0.0155 0.6790 0.7231
O3_2 O 0.09359(13) 0.66555(13) 0.77672(14)
O4_2 O 0.07629(14) 0.66968(15) 0.85734(14)
Sm4_2 Sm 0.16585(2) 0.66585(2) 0.83415(2)
C15_2 C 0.7997(2) 0.00866(18) 0.68199(18)
C16_2 C 0.8117(2) 0.0618(2) 0.67131(19)
H10_2 H 0.7231 0.0155 0.6790
O8_2 O 0.77672(14) 0.09359(13) 0.66555(13)
O9_2 O 0.85734(14) 0.07629(14) 0.66968(15)
C25_2 C 0.68199(18) 0.7997(2) 0.00866(18)
C26_2 C 0.67131(19) 0.8117(2) 0.0618(2)
H17_2 H 0.6790 0.7231 0.0155
O13_2 O 0.66555(13) 0.77672(14) 0.09359(13)
O14_2 O 0.66968(15) 0.85734(14) 0.07629(14)
Sm1_2 Sm 0.7500 0.7500 0.7500
Sm2_2 Sm 0.83415(2) 0.83415(2) 0.83415(2)
C1_2 C 0.85891(18) 0.72955(18) 0.7656(2)
C2_2 C 0.91078(18) 0.71104(19) 0.7769(2)
C3_2 C 0.92572(19) 0.7068(2) 0.8260(2)
H1_2 H 0.9031 0.7144 0.8515
C4_2 C 0.9743(2) 0.6912(2) 0.8384(2)
H2_2 H 0.9836 0.6871 0.8718
C7_2 C 0.9931(2) 0.6859(2) 0.7489(2)
C8_2 C 0.9442(2) 0.7001(2) 0.7381(2)
C9_2 C 0.9576(8) 0.6965(7) 0.6414(7)
C10_2 C 0.9259(7) 0.6990(6) 0.5941(7)
H4_2 H 0.9058 0.7289 0.5946
H5_2 H 0.9044 0.6701 0.5926
H6_2 H 0.9474 0.6994 0.5653
N1_2 N 0.9303(4) 0.7024(4) 0.6883(4)
H7_2 H 0.8989 0.7085 0.6841
O1_2 O 0.84055(13) 0.72559(14) 0.72279(14)
O2_2 O 0.83343(12) 0.74887(12) 0.80102(13)
O5_2 O 0.9972(6) 0.6776(6) 0.6454(6)
C11_2 C 0.7656(2) 0.85891(18) 0.72955(18)
C12_2 C 0.7769(2) 0.91078(18) 0.71104(19)
C13_2 C 0.8260(2) 0.92572(19) 0.7068(2)
H8_2 H 0.8515 0.9031 0.7144
C14_2 C 0.8384(2) 0.9743(2) 0.6912(2)
H9_2 H 0.8718 0.9836 0.6871
C17_2 C 0.7489(2) 0.9931(2) 0.6859(2)
C18_2 C 0.7381(2) 0.9442(2) 0.7001(2)
C19_2 C 0.6414(7) 0.9576(8) 0.6965(7)
C20_2 C 0.5941(7) 0.9259(7) 0.6990(6)
H11_2 H 0.5946 0.9058 0.7289
H12_2 H 0.5926 0.9044 0.6701
H13_2 H 0.5653 0.9474 0.6994
N2_2 N 0.6883(4) 0.9303(4) 0.7024(4)
H14_2 H 0.6841 0.8989 0.7085
O6_2 O 0.72279(14) 0.84055(13) 0.72559(14)
O7_2 O 0.80102(13) 0.83343(12) 0.74887(12)
O10_2 O 0.6454(6) 0.9972(6) 0.6776(6)
C21_2 C 0.72955(18) 0.7656(2) 0.85891(18)
C22_2 C 0.71104(19) 0.7769(2) 0.91078(18)
C23_2 C 0.7068(2) 0.8260(2) 0.92572(19)
H15_2 H 0.7144 0.8515 0.9031
C24_2 C 0.6912(2) 0.8384(2) 0.9743(2)
H16_2 H 0.6871 0.8718 0.9836
C27_2 C 0.6859(2) 0.7489(2) 0.9931(2)
C28_2 C 0.7001(2) 0.7381(2) 0.9442(2)
C29_2 C 0.6965(7) 0.6414(7) 0.9576(8)
C30_2 C 0.6990(6) 0.5941(7) 0.9259(7)
H18_2 H 0.7289 0.5946 0.9058
H19_2 H 0.6701 0.5926 0.9044
H20_2 H 0.6994 0.5653 0.9474
N3_2 N 0.7024(4) 0.6883(4) 0.9303(4)
H21_2 H 0.7085 0.6841 0.8989
O11_2 O 0.72559(14) 0.72279(14) 0.84055(13)
O12_2 O 0.74887(12) 0.80102(13) 0.83343(12)
O15_2 O 0.6776(6) 0.6454(6) 0.9972(6)
Sm3_2 Sm 0.66585(2) 0.66585(2) 0.66585(2)
C31_2 C 0.64109(18) 0.77045(18) 0.7344(2)
C32_2 C 0.58922(18) 0.78896(19) 0.7231(2)
C33_2 C 0.57428(19) 0.7932(2) 0.6740(2)
H22_2 H 0.5969 0.7856 0.6485
C34_2 C 0.5257(2) 0.8088(2) 0.6616(2)
H23_2 H 0.5164 0.8129 0.6282
C35_2 C 0.49134(18) 0.81801(18) 0.7003(2)
C36_2 C 0.4382(2) 0.82869(19) 0.6883(2)
C37_2 C 0.5069(2) 0.8141(2) 0.7511(2)
H24_2 H 0.4845 0.8210 0.7769
C38_2 C 0.5558(2) 0.7999(2) 0.7619(2)
C39_2 C 0.5424(8) 0.8035(7) 0.8586(7)
C40_2 C 0.5741(7) 0.8010(6) 0.9059(7)
H25_2 H 0.5942 0.7711 0.9054
H26_2 H 0.5956 0.8299 0.9074
H27_2 H 0.5526 0.8006 0.9347
N4_2 N 0.5697(4) 0.7976(4) 0.8117(4)
H28_2 H 0.6011 0.7915 0.8159
O16_2 O 0.65945(13) 0.77441(14) 0.77721(14)
O17_2 O 0.66657(12) 0.75113(12) 0.69898(13)
O18_2 O 0.40641(13) 0.83445(13) 0.72328(14)
O19_2 O 0.42371(14) 0.83032(15) 0.64266(14)
O20_2 O 0.5028(6) 0.8224(6) 0.8546(6)
C41_2 C 0.7344(2) 0.64109(18) 0.77045(18)
C42_2 C 0.7231(2) 0.58922(18) 0.78896(19)
C43_2 C 0.6740(2) 0.57428(19) 0.7932(2)
H29_2 H 0.6485 0.5969 0.7856
C44_2 C 0.6616(2) 0.5257(2) 0.8088(2)
H30_2 H 0.6282 0.5164 0.8129
C45_2 C 0.7003(2) 0.49134(18) 0.81801(18)
C46_2 C 0.6883(2) 0.4382(2) 0.82869(19)
C47_2 C 0.7511(2) 0.5069(2) 0.8141(2)
H31_2 H 0.7769 0.4845 0.8210
C48_2 C 0.7619(2) 0.5558(2) 0.7999(2)
C49_2 C 0.8586(7) 0.5424(8) 0.8035(7)
C50_2 C 0.9059(7) 0.5741(7) 0.8010(6)
H32_2 H 0.9054 0.5942 0.7711
H33_2 H 0.9074 0.5956 0.8299
H34_2 H 0.9347 0.5526 0.8006
N5_2 N 0.8117(4) 0.5697(4) 0.7976(4)
H35_2 H 0.8159 0.6011 0.7915
O21_2 O 0.77721(14) 0.65945(13) 0.77441(14)
O22_2 O 0.69898(13) 0.66657(12) 0.75113(12)
O23_2 O 0.72328(14) 0.40641(13) 0.83445(13)
O24_2 O 0.64266(14) 0.42371(14) 0.83032(15)
O25_2 O 0.8546(6) 0.5028(6) 0.8224(6)
C51_2 C 0.77045(18) 0.7344(2) 0.64109(18)
C52_2 C 0.78896(19) 0.7231(2) 0.58922(18)
C53_2 C 0.7932(2) 0.6740(2) 0.57428(19)
H36_2 H 0.7856 0.6485 0.5969
C54_2 C 0.8088(2) 0.6616(2) 0.5257(2)
H37_2 H 0.8129 0.6282 0.5164
C55_2 C 0.81801(18) 0.7003(2) 0.49134(18)
C56_2 C 0.82869(19) 0.6883(2) 0.4382(2)
C57_2 C 0.8141(2) 0.7511(2) 0.5069(2)
H38_2 H 0.8210 0.7769 0.4845
C58_2 C 0.7999(2) 0.7619(2) 0.5558(2)
C59_2 C 0.8035(7) 0.8586(7) 0.5424(8)
C60_2 C 0.8010(6) 0.9059(7) 0.5741(7)
H39_2 H 0.7711 0.9054 0.5942
H40_2 H 0.8299 0.9074 0.5956
H41_2 H 0.8006 0.9347 0.5526
N6_2 N 0.7976(4) 0.8117(4) 0.5697(4)
H42_2 H 0.7915 0.8159 0.6011
O26_2 O 0.77441(14) 0.77721(14) 0.65945(13)
O27_2 O 0.75113(12) 0.69898(13) 0.66657(12)
O28_2 O 0.83445(13) 0.72328(14) 0.40641(13)
O29_2 O 0.83032(15) 0.64266(14) 0.42371(14)
O30_2 O 0.8224(6) 0.8546(6) 0.5028(6)
Sm7_2 Sm 0.33415(2) 0.83415(2) 0.66585(2)
O31_2 O 0.90641(13) 0.83445(13) 0.77672(14)
O32_2 O 0.77672(14) 0.90641(13) 0.83445(13)
O33_2 O 0.83445(13) 0.77672(14) 0.90641(13)
O34_2 O 0.59359(13) 0.66555(13) 0.72328(14)
O35_2 O 0.72328(14) 0.59359(13) 0.66555(13)
O36_2 O 0.66555(13) 0.72328(14) 0.59359(13)
O37_2 O 0.92371(14) 0.83032(15) 0.85734(14)
O38_2 O 0.85734(14) 0.92371(14) 0.83032(15)
O39_2 O 0.83032(15) 0.85734(14) 0.92371(14)
O40_2 O 0.57629(14) 0.66968(15) 0.64266(14)
O41_2 O 0.64266(14) 0.57629(14) 0.66968(15)
O42_2 O 0.66968(15) 0.64266(14) 0.57629(14)
C45_3 C 0.2003(2) 0.00866(18) 0.18199(18)
C46_3 C 0.1883(2) 0.0618(2) 0.17131(19)
H31_3 H 0.2769 0.0155 0.1790
O23_3 O 0.22328(14) 0.09359(13) 0.16555(13)
O24_3 O 0.14266(14) 0.07629(14) 0.16968(15)
Sm1_3 Sm 0.2500 0.7500 0.2500
Sm2_3 Sm 0.33415(2) 0.66585(2) 0.16585(2)
C1_3 C 0.35891(18) 0.77045(18) 0.2344(2)
C2_3 C 0.41078(18) 0.78896(19) 0.2231(2)
C3_3 C 0.42572(19) 0.7932(2) 0.1740(2)
H1_3 H 0.4031 0.7856 0.1485
C4_3 C 0.4743(2) 0.8088(2) 0.1616(2)
H2_3 H 0.4836 0.8129 0.1282
C5_3 C 0.50866(18) 0.81801(18) 0.2003(2)
C6_3 C 0.5618(2) 0.82869(19) 0.1883(2)
C7_3 C 0.4931(2) 0.8141(2) 0.2511(2)
H3_3 H 0.5155 0.8210 0.2769
C8_3 C 0.4442(2) 0.7999(2) 0.2619(2)
C9_3 C 0.4576(8) 0.8035(7) 0.3586(7)
C10_3 C 0.4259(7) 0.8010(6) 0.4059(7)
H4_3 H 0.4058 0.7711 0.4054
H5_3 H 0.4044 0.8299 0.4074
H6_3 H 0.4474 0.8006 0.4347
N1_3 N 0.4303(4) 0.7976(4) 0.3117(4)
H7_3 H 0.3989 0.7915 0.3159
O1_3 O 0.34055(13) 0.77441(14) 0.27721(14)
O2_3 O 0.33343(12) 0.75113(12) 0.19898(13)
O3_3 O 0.59359(13) 0.83445(13) 0.22328(14)
O4_3 O 0.57629(14) 0.83032(15) 0.14266(14)
O5_3 O 0.4972(6) 0.8224(6) 0.3546(6)
C11_3 C 0.2656(2) 0.64109(18) 0.27045(18)
C12_3 C 0.2769(2) 0.58922(18) 0.28896(19)
C13_3 C 0.3260(2) 0.57428(19) 0.2932(2)
H8_3 H 0.3515 0.5969 0.2856
C14_3 C 0.3384(2) 0.5257(2) 0.3088(2)
H9_3 H 0.3718 0.5164 0.3129
C15_3 C 0.2997(2) 0.49134(18) 0.31801(18)
C16_3 C 0.3117(2) 0.4382(2) 0.32869(19)
C17_3 C 0.2489(2) 0.5069(2) 0.3141(2)
H10_3 H 0.2231 0.4845 0.3210
C18_3 C 0.2381(2) 0.5558(2) 0.2999(2)
C19_3 C 0.1414(7) 0.5424(8) 0.3035(7)
C20_3 C 0.0941(7) 0.5741(7) 0.3010(6)
H11_3 H 0.0946 0.5942 0.2711
H12_3 H 0.0926 0.5956 0.3299
H13_3 H 0.0653 0.5526 0.3006
N2_3 N 0.1883(4) 0.5697(4) 0.2976(4)
H14_3 H 0.1841 0.6011 0.2915
O6_3 O 0.22279(14) 0.65945(13) 0.27441(14)
O7_3 O 0.30102(13) 0.66657(12) 0.25113(12)
O8_3 O 0.27672(14) 0.40641(13) 0.33445(13)
O9_3 O 0.35734(14) 0.42371(14) 0.33032(15)
O10_3 O 0.1454(6) 0.5028(6) 0.3224(6)
C21_3 C 0.22955(18) 0.7344(2) 0.14109(18)
C22_3 C 0.21104(19) 0.7231(2) 0.08922(18)
C23_3 C 0.2068(2) 0.6740(2) 0.07428(19)
H15_3 H 0.2144 0.6485 0.0969
C24_3 C 0.1912(2) 0.6616(2) 0.0257(2)
H16_3 H 0.1871 0.6282 0.0164
C27_3 C 0.1859(2) 0.7511(2) 0.0069(2)
C28_3 C 0.2001(2) 0.7619(2) 0.0558(2)
C29_3 C 0.1965(7) 0.8586(7) 0.0424(8)
C30_3 C 0.1990(6) 0.9059(7) 0.0741(7)
H18_3 H 0.2289 0.9054 0.0942
H19_3 H 0.1701 0.9074 0.0956
H20_3 H 0.1994 0.9347 0.0526
N3_3 N 0.2024(4) 0.8117(4) 0.0697(4)
H21_3 H 0.2085 0.8159 0.1011
O11_3 O 0.22559(14) 0.77721(14) 0.15945(13)
O12_3 O 0.24887(12) 0.69898(13) 0.16657(12)
O15_3 O 0.1776(6) 0.8546(6) 0.0028(6)
Sm3_3 Sm 0.16585(2) 0.83415(2) 0.33415(2)
C31_3 C 0.14109(18) 0.72955(18) 0.2656(2)
C32_3 C 0.08922(18) 0.71104(19) 0.2769(2)
C33_3 C 0.07428(19) 0.7068(2) 0.3260(2)
H22_3 H 0.0969 0.7144 0.3515
C34_3 C 0.0257(2) 0.6912(2) 0.3384(2)
H23_3 H 0.0164 0.6871 0.3718
C37_3 C 0.0069(2) 0.6859(2) 0.2489(2)
C38_3 C 0.0558(2) 0.7001(2) 0.2381(2)
C39_3 C 0.0424(8) 0.6965(7) 0.1414(7)
C40_3 C 0.0741(7) 0.6990(6) 0.0941(7)
H25_3 H 0.0942 0.7289 0.0946
H26_3 H 0.0956 0.6701 0.0926
H27_3 H 0.0526 0.6994 0.0653
N4_3 N 0.0697(4) 0.7024(4) 0.1883(4)
H28_3 H 0.1011 0.7085 0.1841
O16_3 O 0.15945(13) 0.72559(14) 0.22279(14)
O17_3 O 0.16657(12) 0.74887(12) 0.30102(13)
O20_3 O 0.0028(6) 0.6776(6) 0.1454(6)
C41_3 C 0.2344(2) 0.85891(18) 0.22955(18)
C42_3 C 0.2231(2) 0.91078(18) 0.21104(19)
C43_3 C 0.1740(2) 0.92572(19) 0.2068(2)
H29_3 H 0.1485 0.9031 0.2144
C44_3 C 0.1616(2) 0.9743(2) 0.1912(2)
H30_3 H 0.1282 0.9836 0.1871
C47_3 C 0.2511(2) 0.9931(2) 0.1859(2)
C48_3 C 0.2619(2) 0.9442(2) 0.2001(2)
C49_3 C 0.3586(7) 0.9576(8) 0.1965(7)
C50_3 C 0.4059(7) 0.9259(7) 0.1990(6)
H32_3 H 0.4054 0.9058 0.2289
H33_3 H 0.4074 0.9044 0.1701
H34_3 H 0.4347 0.9474 0.1994
N5_3 N 0.3117(4) 0.9303(4) 0.2024(4)
H35_3 H 0.3159 0.8989 0.2085
O21_3 O 0.27721(14) 0.84055(13) 0.22559(14)
O22_3 O 0.19898(13) 0.83343(12) 0.24887(12)
O25_3 O 0.3546(6) 0.9972(6) 0.1776(6)
C51_3 C 0.27045(18) 0.7656(2) 0.35891(18)
C52_3 C 0.28896(19) 0.7769(2) 0.41078(18)
C53_3 C 0.2932(2) 0.8260(2) 0.42572(19)
H36_3 H 0.2856 0.8515 0.4031
C54_3 C 0.3088(2) 0.8384(2) 0.4743(2)
H37_3 H 0.3129 0.8718 0.4836
C55_3 C 0.31801(18) 0.7997(2) 0.50866(18)
C56_3 C 0.32869(19) 0.8117(2) 0.5618(2)
C57_3 C 0.3141(2) 0.7489(2) 0.4931(2)
H38_3 H 0.3210 0.7231 0.5155
C58_3 C 0.2999(2) 0.7381(2) 0.4442(2)
C59_3 C 0.3035(7) 0.6414(7) 0.4576(8)
C60_3 C 0.3010(6) 0.5941(7) 0.4259(7)
H39_3 H 0.2711 0.5946 0.4058
H40_3 H 0.3299 0.5926 0.4044
H41_3 H 0.3006 0.5653 0.4474
N6_3 N 0.2976(4) 0.6883(4) 0.4303(4)
H42_3 H 0.2915 0.6841 0.3989
O26_3 O 0.27441(14) 0.72279(14) 0.34055(13)
O27_3 O 0.25113(12) 0.80102(13) 0.33343(12)
O28_3 O 0.33445(13) 0.77672(14) 0.59359(13)
O29_3 O 0.33032(15) 0.85734(14) 0.57629(14)
O30_3 O 0.3224(6) 0.6454(6) 0.4972(6)
O31_3 O 0.40641(13) 0.66555(13) 0.22328(14)
O32_3 O 0.27672(14) 0.59359(13) 0.16555(13)
O33_3 O 0.33445(13) 0.72328(14) 0.09359(13)
O34_3 O 0.09359(13) 0.83445(13) 0.27672(14)
O35_3 O 0.22328(14) 0.90641(13) 0.33445(13)
O36_3 O 0.16555(13) 0.77672(14) 0.40641(13)
O37_3 O 0.42371(14) 0.66968(15) 0.14266(14)
O38_3 O 0.35734(14) 0.57629(14) 0.16968(15)
O39_3 O 0.33032(15) 0.64266(14) 0.07629(14)
O40_3 O 0.07629(14) 0.83032(15) 0.35734(14)
O41_3 O 0.14266(14) 0.92371(14) 0.33032(15)
O42_3 O 0.16968(15) 0.85734(14) 0.42371(14)
C25_3 C 0.18199(18) 0.7003(2) 0.99134(18)
C26_3 C 0.17131(19) 0.6883(2) 0.9382(2)
H17_3 H 0.1790 0.7769 0.9845
O13_3 O 0.16555(13) 0.72328(14) 0.90641(13)
O14_3 O 0.16968(15) 0.64266(14) 0.92371(14)
C35_3 C 0.99134(18) 0.68199(18) 0.2997(2)
C36_3 C 0.9382(2) 0.67131(19) 0.3117(2)
H24_3 H 0.9845 0.6790 0.2231
O18_3 O 0.90641(13) 0.66555(13) 0.27672(14)
O19_3 O 0.92371(14) 0.66968(15) 0.35734(14)
C55_4 C 0.18199(18) 0.2003(2) 0.00866(18)
C56_4 C 0.17131(19) 0.1883(2) 0.0618(2)
H38_4 H 0.1790 0.2769 0.0155
O28_4 O 0.16555(13) 0.22328(14) 0.09359(13)
O29_4 O 0.16968(15) 0.14266(14) 0.07629(14)
Sm1_4 Sm 0.2500 0.2500 0.7500
Sm2_4 Sm 0.16585(2) 0.33415(2) 0.66585(2)
C1_4 C 0.14109(18) 0.22955(18) 0.7344(2)
C2_4 C 0.08922(18) 0.21104(19) 0.7231(2)
C3_4 C 0.07428(19) 0.2068(2) 0.6740(2)
H1_4 H 0.0969 0.2144 0.6485
C4_4 C 0.0257(2) 0.1912(2) 0.6616(2)
H2_4 H 0.0164 0.1871 0.6282
C7_4 C 0.0069(2) 0.1859(2) 0.7511(2)
C8_4 C 0.0558(2) 0.2001(2) 0.7619(2)
C9_4 C 0.0424(8) 0.1965(7) 0.8586(7)
C10_4 C 0.0741(7) 0.1990(6) 0.9059(7)
H4_4 H 0.0942 0.2289 0.9054
H5_4 H 0.0956 0.1701 0.9074
H6_4 H 0.0526 0.1994 0.9347
N1_4 N 0.0697(4) 0.2024(4) 0.8117(4)
H7_4 H 0.1011 0.2085 0.8159
O1_4 O 0.15945(13) 0.22559(14) 0.77721(14)
O2_4 O 0.16657(12) 0.24887(12) 0.69898(13)
O5_4 O 0.0028(6) 0.1776(6) 0.8546(6)
C11_4 C 0.2344(2) 0.35891(18) 0.77045(18)
C12_4 C 0.2231(2) 0.41078(18) 0.78896(19)
C13_4 C 0.1740(2) 0.42572(19) 0.7932(2)
H8_4 H 0.1485 0.4031 0.7856
C14_4 C 0.1616(2) 0.4743(2) 0.8088(2)
H9_4 H 0.1282 0.4836 0.8129
C15_4 C 0.2003(2) 0.50866(18) 0.81801(18)
C16_4 C 0.1883(2) 0.5618(2) 0.82869(19)
C17_4 C 0.2511(2) 0.4931(2) 0.8141(2)
H10_4 H 0.2769 0.5155 0.8210
C18_4 C 0.2619(2) 0.4442(2) 0.7999(2)
C19_4 C 0.3586(7) 0.4576(8) 0.8035(7)
C20_4 C 0.4059(7) 0.4259(7) 0.8010(6)
H11_4 H 0.4054 0.4058 0.7711
H12_4 H 0.4074 0.4044 0.8299
H13_4 H 0.4347 0.4474 0.8006
N2_4 N 0.3117(4) 0.4303(4) 0.7976(4)
H14_4 H 0.3159 0.3989 0.7915
O6_4 O 0.27721(14) 0.34055(13) 0.77441(14)
O7_4 O 0.19898(13) 0.33343(12) 0.75113(12)
O8_4 O 0.22328(14) 0.59359(13) 0.83445(13)
O9_4 O 0.14266(14) 0.57629(14) 0.83032(15)
O10_4 O 0.3546(6) 0.4972(6) 0.8224(6)
C21_4 C 0.27045(18) 0.2656(2) 0.64109(18)
C22_4 C 0.28896(19) 0.2769(2) 0.58922(18)
C23_4 C 0.2932(2) 0.3260(2) 0.57428(19)
H15_4 H 0.2856 0.3515 0.5969
C24_4 C 0.3088(2) 0.3384(2) 0.5257(2)
H16_4 H 0.3129 0.3718 0.5164
C25_4 C 0.31801(18) 0.2997(2) 0.49134(18)
C26_4 C 0.32869(19) 0.3117(2) 0.4382(2)
C27_4 C 0.3141(2) 0.2489(2) 0.5069(2)
H17_4 H 0.3210 0.2231 0.4845
C28_4 C 0.2999(2) 0.2381(2) 0.5558(2)
C29_4 C 0.3035(7) 0.1414(7) 0.5424(8)
C30_4 C 0.3010(6) 0.0941(7) 0.5741(7)
H18_4 H 0.2711 0.0946 0.5942
H19_4 H 0.3299 0.0926 0.5956
H20_4 H 0.3006 0.0653 0.5526
N3_4 N 0.2976(4) 0.1883(4) 0.5697(4)
H21_4 H 0.2915 0.1841 0.6011
O11_4 O 0.27441(14) 0.22279(14) 0.65945(13)
O12_4 O 0.25113(12) 0.30102(13) 0.66657(12)
O13_4 O 0.33445(13) 0.27672(14) 0.40641(13)
O14_4 O 0.33032(15) 0.35734(14) 0.42371(14)
O15_4 O 0.3224(6) 0.1454(6) 0.5028(6)
Sm3_4 Sm 0.33415(2) 0.16585(2) 0.83415(2)
C31_4 C 0.35891(18) 0.27045(18) 0.7656(2)
C32_4 C 0.41078(18) 0.28896(19) 0.7769(2)
C33_4 C 0.42572(19) 0.2932(2) 0.8260(2)
H22_4 H 0.4031 0.2856 0.8515
C34_4 C 0.4743(2) 0.3088(2) 0.8384(2)
H23_4 H 0.4836 0.3129 0.8718
C35_4 C 0.50866(18) 0.31801(18) 0.7997(2)
C36_4 C 0.5618(2) 0.32869(19) 0.8117(2)
C37_4 C 0.4931(2) 0.3141(2) 0.7489(2)
H24_4 H 0.5155 0.3210 0.7231
C38_4 C 0.4442(2) 0.2999(2) 0.7381(2)
C39_4 C 0.4576(8) 0.3035(7) 0.6414(7)
C40_4 C 0.4259(7) 0.3010(6) 0.5941(7)
H25_4 H 0.4058 0.2711 0.5946
H26_4 H 0.4044 0.3299 0.5926
H27_4 H 0.4474 0.3006 0.5653
N4_4 N 0.4303(4) 0.2976(4) 0.6883(4)
H28_4 H 0.3989 0.2915 0.6841
O16_4 O 0.34055(13) 0.27441(14) 0.72279(14)
O17_4 O 0.33343(12) 0.25113(12) 0.80102(13)
O18_4 O 0.59359(13) 0.33445(13) 0.77672(14)
O19_4 O 0.57629(14) 0.33032(15) 0.85734(14)
O20_4 O 0.4972(6) 0.3224(6) 0.6454(6)
C41_4 C 0.2656(2) 0.14109(18) 0.72955(18)
C42_4 C 0.2769(2) 0.08922(18) 0.71104(19)
C43_4 C 0.3260(2) 0.07428(19) 0.7068(2)
H29_4 H 0.3515 0.0969 0.7144
C44_4 C 0.3384(2) 0.0257(2) 0.6912(2)
H30_4 H 0.3718 0.0164 0.6871
C47_4 C 0.2489(2) 0.0069(2) 0.6859(2)
C48_4 C 0.2381(2) 0.0558(2) 0.7001(2)
C49_4 C 0.1414(7) 0.0424(8) 0.6965(7)
C50_4 C 0.0941(7) 0.0741(7) 0.6990(6)
H32_4 H 0.0946 0.0942 0.7289
H33_4 H 0.0926 0.0956 0.6701
H34_4 H 0.0653 0.0526 0.6994
N5_4 N 0.1883(4) 0.0697(4) 0.7024(4)
H35_4 H 0.1841 0.1011 0.7085
O21_4 O 0.22279(14) 0.15945(13) 0.72559(14)
O22_4 O 0.30102(13) 0.16657(12) 0.74887(12)
O25_4 O 0.1454(6) 0.0028(6) 0.6776(6)
C51_4 C 0.22955(18) 0.2344(2) 0.85891(18)
C52_4 C 0.21104(19) 0.2231(2) 0.91078(18)
C53_4 C 0.2068(2) 0.1740(2) 0.92572(19)
H36_4 H 0.2144 0.1485 0.9031
C54_4 C 0.1912(2) 0.1616(2) 0.9743(2)
H37_4 H 0.1871 0.1282 0.9836
C57_4 C 0.1859(2) 0.2511(2) 0.9931(2)
C58_4 C 0.2001(2) 0.2619(2) 0.9442(2)
C59_4 C 0.1965(7) 0.3586(7) 0.9576(8)
C60_4 C 0.1990(6) 0.4059(7) 0.9259(7)
H39_4 H 0.2289 0.4054 0.9058
H40_4 H 0.1701 0.4074 0.9044
H41_4 H 0.1994 0.4347 0.9474
N6_4 N 0.2024(4) 0.3117(4) 0.9303(4)
H42_4 H 0.2085 0.3159 0.8989
O26_4 O 0.22559(14) 0.27721(14) 0.84055(13)
O27_4 O 0.24887(12) 0.19898(13) 0.83343(12)
O30_4 O 0.1776(6) 0.3546(6) 0.9972(6)
O31_4 O 0.09359(13) 0.33445(13) 0.72328(14)
O32_4 O 0.22328(14) 0.40641(13) 0.66555(13)
O33_4 O 0.16555(13) 0.27672(14) 0.59359(13)
O34_4 O 0.40641(13) 0.16555(13) 0.77672(14)
O35_4 O 0.27672(14) 0.09359(13) 0.83445(13)
O36_4 O 0.33445(13) 0.22328(14) 0.90641(13)
O37_4 O 0.07629(14) 0.33032(15) 0.64266(14)
O38_4 O 0.14266(14) 0.42371(14) 0.66968(15)
O39_4 O 0.16968(15) 0.35734(14) 0.57629(14)
O40_4 O 0.42371(14) 0.16968(15) 0.85734(14)
O41_4 O 0.35734(14) 0.07629(14) 0.83032(15)
O42_4 O 0.33032(15) 0.14266(14) 0.92371(14)
C45_4 C 0.2997(2) 0.99134(18) 0.68199(18)
C46_4 C 0.3117(2) 0.9382(2) 0.67131(19)
H31_4 H 0.2231 0.9845 0.6790
O23_4 O 0.27672(14) 0.90641(13) 0.66555(13)
O24_4 O 0.35734(14) 0.92371(14) 0.66968(15)
C5_4 C 0.99134(18) 0.18199(18) 0.7003(2)
C6_4 C 0.9382(2) 0.17131(19) 0.6883(2)
H3_4 H 0.9845 0.1790 0.7769
O3_4 O 0.90641(13) 0.16555(13) 0.72328(14)
O4_4 O 0.92371(14) 0.16968(15) 0.64266(14)
C45_5 C 0.2997(2) 0.00866(18) 0.81801(18)
C46_5 C 0.3117(2) 0.0618(2) 0.82869(19)
H31_5 H 0.2231 0.0155 0.8210
C25_5 C 0.31801(18) 0.7003(2) 0.00866(18)
C26_5 C 0.32869(19) 0.6883(2) 0.0618(2)
H17_5 H 0.3210 0.7769 0.0155
Sm1_5 Sm 0.2500 0.7500 0.7500
C1_5 C 0.14109(18) 0.77045(18) 0.7656(2)
C2_5 C 0.08922(18) 0.78896(19) 0.7769(2)
C3_5 C 0.07428(19) 0.7932(2) 0.8260(2)
H1_5 H 0.0969 0.7856 0.8515
C4_5 C 0.0257(2) 0.8088(2) 0.8384(2)
H2_5 H 0.0164 0.8129 0.8718
C7_5 C 0.0069(2) 0.8141(2) 0.7489(2)
C8_5 C 0.0558(2) 0.7999(2) 0.7381(2)
C9_5 C 0.0424(8) 0.8035(7) 0.6414(7)
C10_5 C 0.0741(7) 0.8010(6) 0.5941(7)
H4_5 H 0.0942 0.7711 0.5946
H5_5 H 0.0956 0.8299 0.5926
H6_5 H 0.0526 0.8006 0.5653
N1_5 N 0.0697(4) 0.7976(4) 0.6883(4)
H7_5 H 0.1011 0.7915 0.6841
O1_5 O 0.15945(13) 0.77441(14) 0.72279(14)
O2_5 O 0.16657(12) 0.75113(12) 0.80102(13)
O5_5 O 0.0028(6) 0.8224(6) 0.6454(6)
C11_5 C 0.2344(2) 0.64109(18) 0.72955(18)
C12_5 C 0.2231(2) 0.58922(18) 0.71104(19)
C13_5 C 0.1740(2) 0.57428(19) 0.7068(2)
H8_5 H 0.1485 0.5969 0.7144
C14_5 C 0.1616(2) 0.5257(2) 0.6912(2)
H9_5 H 0.1282 0.5164 0.6871
C15_5 C 0.2003(2) 0.49134(18) 0.68199(18)
C16_5 C 0.1883(2) 0.4382(2) 0.67131(19)
C17_5 C 0.2511(2) 0.5069(2) 0.6859(2)
H10_5 H 0.2769 0.4845 0.6790
C18_5 C 0.2619(2) 0.5558(2) 0.7001(2)
C19_5 C 0.3586(7) 0.5424(8) 0.6965(7)
C20_5 C 0.4059(7) 0.5741(7) 0.6990(6)
H11_5 H 0.4054 0.5942 0.7289
H12_5 H 0.4074 0.5956 0.6701
H13_5 H 0.4347 0.5526 0.6994
N2_5 N 0.3117(4) 0.5697(4) 0.7024(4)
H14_5 H 0.3159 0.6011 0.7085
O6_5 O 0.27721(14) 0.65945(13) 0.72559(14)
O7_5 O 0.19898(13) 0.66657(12) 0.74887(12)
O10_5 O 0.3546(6) 0.5028(6) 0.6776(6)
C21_5 C 0.27045(18) 0.7344(2) 0.85891(18)
C22_5 C 0.28896(19) 0.7231(2) 0.91078(18)
C23_5 C 0.2932(2) 0.6740(2) 0.92572(19)
H15_5 H 0.2856 0.6485 0.9031
C24_5 C 0.3088(2) 0.6616(2) 0.9743(2)
H16_5 H 0.3129 0.6282 0.9836
C27_5 C 0.3141(2) 0.7511(2) 0.9931(2)
C28_5 C 0.2999(2) 0.7619(2) 0.9442(2)
C29_5 C 0.3035(7) 0.8586(7) 0.9576(8)
C30_5 C 0.3010(6) 0.9059(7) 0.9259(7)
H18_5 H 0.2711 0.9054 0.9058
H19_5 H 0.3299 0.9074 0.9044
H20_5 H 0.3006 0.9347 0.9474
N3_5 N 0.2976(4) 0.8117(4) 0.9303(4)
H21_5 H 0.2915 0.8159 0.8989
O11_5 O 0.27441(14) 0.77721(14) 0.84055(13)
O12_5 O 0.25113(12) 0.69898(13) 0.83343(12)
O15_5 O 0.3224(6) 0.8546(6) 0.9972(6)
C31_5 C 0.35891(18) 0.72955(18) 0.7344(2)
C32_5 C 0.41078(18) 0.71104(19) 0.7231(2)
C33_5 C 0.42572(19) 0.7068(2) 0.6740(2)
H22_5 H 0.4031 0.7144 0.6485
C34_5 C 0.4743(2) 0.6912(2) 0.6616(2)
H23_5 H 0.4836 0.6871 0.6282
C35_5 C 0.50866(18) 0.68199(18) 0.7003(2)
C36_5 C 0.5618(2) 0.67131(19) 0.6883(2)
C37_5 C 0.4931(2) 0.6859(2) 0.7511(2)
H24_5 H 0.5155 0.6790 0.7769
C38_5 C 0.4442(2) 0.7001(2) 0.7619(2)
C39_5 C 0.4576(8) 0.6965(7) 0.8586(7)
C40_5 C 0.4259(7) 0.6990(6) 0.9059(7)
H25_5 H 0.4058 0.7289 0.9054
H26_5 H 0.4044 0.6701 0.9074
H27_5 H 0.4474 0.6994 0.9347
N4_5 N 0.4303(4) 0.7024(4) 0.8117(4)
H28_5 H 0.3989 0.7085 0.8159
O16_5 O 0.34055(13) 0.72559(14) 0.77721(14)
O17_5 O 0.33343(12) 0.74887(12) 0.69898(13)
O20_5 O 0.4972(6) 0.6776(6) 0.8546(6)
C41_5 C 0.2656(2) 0.85891(18) 0.77045(18)
C42_5 C 0.2769(2) 0.91078(18) 0.78896(19)
C43_5 C 0.3260(2) 0.92572(19) 0.7932(2)
H29_5 H 0.3515 0.9031 0.7856
C44_5 C 0.3384(2) 0.9743(2) 0.8088(2)
H30_5 H 0.3718 0.9836 0.8129
C47_5 C 0.2489(2) 0.9931(2) 0.8141(2)
C48_5 C 0.2381(2) 0.9442(2) 0.7999(2)
C49_5 C 0.1414(7) 0.9576(8) 0.8035(7)
C50_5 C 0.0941(7) 0.9259(7) 0.8010(6)
H32_5 H 0.0946 0.9058 0.7711
H33_5 H 0.0926 0.9044 0.8299
H34_5 H 0.0653 0.9474 0.8006
N5_5 N 0.1883(4) 0.9303(4) 0.7976(4)
H35_5 H 0.1841 0.8989 0.7915
O21_5 O 0.22279(14) 0.84055(13) 0.77441(14)
O22_5 O 0.30102(13) 0.83343(12) 0.75113(12)
O25_5 O 0.1454(6) 0.9972(6) 0.8224(6)
C51_5 C 0.22955(18) 0.7656(2) 0.64109(18)
C52_5 C 0.21104(19) 0.7769(2) 0.58922(18)
C53_5 C 0.2068(2) 0.8260(2) 0.57428(19)
H36_5 H 0.2144 0.8515 0.5969
C54_5 C 0.1912(2) 0.8384(2) 0.5257(2)
H37_5 H 0.1871 0.8718 0.5164
C55_5 C 0.18199(18) 0.7997(2) 0.49134(18)
C56_5 C 0.17131(19) 0.8117(2) 0.4382(2)
C57_5 C 0.1859(2) 0.7489(2) 0.5069(2)
H38_5 H 0.1790 0.7231 0.4845
C58_5 C 0.2001(2) 0.7381(2) 0.5558(2)
C59_5 C 0.1965(7) 0.6414(7) 0.5424(8)
C60_5 C 0.1990(6) 0.5941(7) 0.5741(7)
H39_5 H 0.2289 0.5946 0.5942
H40_5 H 0.1701 0.5926 0.5956
H41_5 H 0.1994 0.5653 0.5526
N6_5 N 0.2024(4) 0.6883(4) 0.5697(4)
H42_5 H 0.2085 0.6841 0.6011
O26_5 O 0.22559(14) 0.72279(14) 0.65945(13)
O27_5 O 0.24887(12) 0.80102(13) 0.66657(12)
O30_5 O 0.1776(6) 0.6454(6) 0.5028(6)
C5_5 C 0.99134(18) 0.81801(18) 0.7997(2)
C6_5 C 0.9382(2) 0.82869(19) 0.8117(2)
H3_5 H 0.9845 0.8210 0.7231
Sm1_6 Sm 0.2500 0.2500 0.2500
C1_6 C 0.35891(18) 0.22955(18) 0.2656(2)
C2_6 C 0.41078(18) 0.21104(19) 0.2769(2)
C3_6 C 0.42572(19) 0.2068(2) 0.3260(2)
H1_6 H 0.4031 0.2144 0.3515
C4_6 C 0.4743(2) 0.1912(2) 0.3384(2)
H2_6 H 0.4836 0.1871 0.3718
C5_6 C 0.50866(18) 0.18199(18) 0.2997(2)
C6_6 C 0.5618(2) 0.17131(19) 0.3117(2)
C7_6 C 0.4931(2) 0.1859(2) 0.2489(2)
H3_6 H 0.5155 0.1790 0.2231
C8_6 C 0.4442(2) 0.2001(2) 0.2381(2)
C9_6 C 0.4576(8) 0.1965(7) 0.1414(7)
C10_6 C 0.4259(7) 0.1990(6) 0.0941(7)
H4_6 H 0.4058 0.2289 0.0946
H5_6 H 0.4044 0.1701 0.0926
H6_6 H 0.4474 0.1994 0.0653
N1_6 N 0.4303(4) 0.2024(4) 0.1883(4)
H7_6 H 0.3989 0.2085 0.1841
O1_6 O 0.34055(13) 0.22559(14) 0.22279(14)
O2_6 O 0.33343(12) 0.24887(12) 0.30102(13)
O5_6 O 0.4972(6) 0.1776(6) 0.1454(6)
C11_6 C 0.2656(2) 0.35891(18) 0.22955(18)
C12_6 C 0.2769(2) 0.41078(18) 0.21104(19)
C13_6 C 0.3260(2) 0.42572(19) 0.2068(2)
H8_6 H 0.3515 0.4031 0.2144
C14_6 C 0.3384(2) 0.4743(2) 0.1912(2)
H9_6 H 0.3718 0.4836 0.1871
C15_6 C 0.2997(2) 0.50866(18) 0.18199(18)
C16_6 C 0.3117(2) 0.5618(2) 0.17131(19)
C17_6 C 0.2489(2) 0.4931(2) 0.1859(2)
H10_6 H 0.2231 0.5155 0.1790
C18_6 C 0.2381(2) 0.4442(2) 0.2001(2)
C19_6 C 0.1414(7) 0.4576(8) 0.1965(7)
C20_6 C 0.0941(7) 0.4259(7) 0.1990(6)
H11_6 H 0.0946 0.4058 0.2289
H12_6 H 0.0926 0.4044 0.1701
H13_6 H 0.0653 0.4474 0.1994
N2_6 N 0.1883(4) 0.4303(4) 0.2024(4)
H14_6 H 0.1841 0.3989 0.2085
O6_6 O 0.22279(14) 0.34055(13) 0.22559(14)
O7_6 O 0.30102(13) 0.33343(12) 0.24887(12)
O10_6 O 0.1454(6) 0.4972(6) 0.1776(6)
C21_6 C 0.22955(18) 0.2656(2) 0.35891(18)
C22_6 C 0.21104(19) 0.2769(2) 0.41078(18)
C23_6 C 0.2068(2) 0.3260(2) 0.42572(19)
H15_6 H 0.2144 0.3515 0.4031
C24_6 C 0.1912(2) 0.3384(2) 0.4743(2)
H16_6 H 0.1871 0.3718 0.4836
C25_6 C 0.18199(18) 0.2997(2) 0.50866(18)
C26_6 C 0.17131(19) 0.3117(2) 0.5618(2)
C27_6 C 0.1859(2) 0.2489(2) 0.4931(2)
H17_6 H 0.1790 0.2231 0.5155
C28_6 C 0.2001(2) 0.2381(2) 0.4442(2)
C29_6 C 0.1965(7) 0.1414(7) 0.4576(8)
C30_6 C 0.1990(6) 0.0941(7) 0.4259(7)
H18_6 H 0.2289 0.0946 0.4058
H19_6 H 0.1701 0.0926 0.4044
H20_6 H 0.1994 0.0653 0.4474
N3_6 N 0.2024(4) 0.1883(4) 0.4303(4)
H21_6 H 0.2085 0.1841 0.3989
O11_6 O 0.22559(14) 0.22279(14) 0.34055(13)
O12_6 O 0.24887(12) 0.30102(13) 0.33343(12)
O15_6 O 0.1776(6) 0.1454(6) 0.4972(6)
C31_6 C 0.14109(18) 0.27045(18) 0.2344(2)
C32_6 C 0.08922(18) 0.28896(19) 0.2231(2)
C33_6 C 0.07428(19) 0.2932(2) 0.1740(2)
H22_6 H 0.0969 0.2856 0.1485
C34_6 C 0.0257(2) 0.3088(2) 0.1616(2)
H23_6 H 0.0164 0.3129 0.1282
C37_6 C 0.0069(2) 0.3141(2) 0.2511(2)
C38_6 C 0.0558(2) 0.2999(2) 0.2619(2)
C39_6 C 0.0424(8) 0.3035(7) 0.3586(7)
C40_6 C 0.0741(7) 0.3010(6) 0.4059(7)
H25_6 H 0.0942 0.2711 0.4054
H26_6 H 0.0956 0.3299 0.4074
H27_6 H 0.0526 0.3006 0.4347
N4_6 N 0.0697(4) 0.2976(4) 0.3117(4)
H28_6 H 0.1011 0.2915 0.3159
O16_6 O 0.15945(13) 0.27441(14) 0.27721(14)
O17_6 O 0.16657(12) 0.25113(12) 0.19898(13)
O20_6 O 0.0028(6) 0.3224(6) 0.3546(6)
C41_6 C 0.2344(2) 0.14109(18) 0.27045(18)
C42_6 C 0.2231(2) 0.08922(18) 0.28896(19)
C43_6 C 0.1740(2) 0.07428(19) 0.2932(2)
H29_6 H 0.1485 0.0969 0.2856
C44_6 C 0.1616(2) 0.0257(2) 0.3088(2)
H30_6 H 0.1282 0.0164 0.3129
C47_6 C 0.2511(2) 0.0069(2) 0.3141(2)
C48_6 C 0.2619(2) 0.0558(2) 0.2999(2)
C49_6 C 0.3586(7) 0.0424(8) 0.3035(7)
C50_6 C 0.4059(7) 0.0741(7) 0.3010(6)
H32_6 H 0.4054 0.0942 0.2711
H33_6 H 0.4074 0.0956 0.3299
H34_6 H 0.4347 0.0526 0.3006
N5_6 N 0.3117(4) 0.0697(4) 0.2976(4)
H35_6 H 0.3159 0.1011 0.2915
O21_6 O 0.27721(14) 0.15945(13) 0.27441(14)
O22_6 O 0.19898(13) 0.16657(12) 0.25113(12)
O25_6 O 0.3546(6) 0.0028(6) 0.3224(6)
C51_6 C 0.27045(18) 0.2344(2) 0.14109(18)
C52_6 C 0.28896(19) 0.2231(2) 0.08922(18)
C53_6 C 0.2932(2) 0.1740(2) 0.07428(19)
H36_6 H 0.2856 0.1485 0.0969
C54_6 C 0.3088(2) 0.1616(2) 0.0257(2)
H37_6 H 0.3129 0.1282 0.0164
C57_6 C 0.3141(2) 0.2511(2) 0.0069(2)
C58_6 C 0.2999(2) 0.2619(2) 0.0558(2)
C59_6 C 0.3035(7) 0.3586(7) 0.0424(8)
C60_6 C 0.3010(6) 0.4059(7) 0.0741(7)
H39_6 H 0.2711 0.4054 0.0942
H40_6 H 0.3299 0.4074 0.0956
H41_6 H 0.3006 0.4347 0.0526
N6_6 N 0.2976(4) 0.3117(4) 0.0697(4)
H42_6 H 0.2915 0.3159 0.1011
O26_6 O 0.27441(14) 0.27721(14) 0.15945(13)
O27_6 O 0.25113(12) 0.19898(13) 0.16657(12)
O30_6 O 0.3224(6) 0.3546(6) 0.0028(6)
C55_6 C 0.31801(18) 0.2003(2) 0.99134(18)
C56_6 C 0.32869(19) 0.1883(2) 0.9382(2)
H38_6 H 0.3210 0.2769 0.9845
C45_6 C 0.2003(2) 0.99134(18) 0.31801(18)
C46_6 C 0.1883(2) 0.9382(2) 0.32869(19)
H31_6 H 0.2769 0.9845 0.3210
C35_6 C 0.99134(18) 0.31801(18) 0.2003(2)
C36_6 C 0.9382(2) 0.32869(19) 0.1883(2)
H24_6 H 0.9845 0.3210 0.2769
C5_7 C 0.00866(18) 0.31801(18) 0.7003(2)
C6_7 C 0.0618(2) 0.32869(19) 0.6883(2)
H3_7 H 0.0155 0.3210 0.7769
C55_7 C 0.81801(18) 0.2997(2) 0.00866(18)
C56_7 C 0.82869(19) 0.3117(2) 0.0618(2)
H38_7 H 0.8210 0.2231 0.0155
Sm1_7 Sm 0.7500 0.2500 0.7500
C1_7 C 0.85891(18) 0.27045(18) 0.7344(2)
C2_7 C 0.91078(18) 0.28896(19) 0.7231(2)
C3_7 C 0.92572(19) 0.2932(2) 0.6740(2)
H1_7 H 0.9031 0.2856 0.6485
C4_7 C 0.9743(2) 0.3088(2) 0.6616(2)
H2_7 H 0.9836 0.3129 0.6282
C7_7 C 0.9931(2) 0.3141(2) 0.7511(2)
C8_7 C 0.9442(2) 0.2999(2) 0.7619(2)
C9_7 C 0.9576(8) 0.3035(7) 0.8586(7)
C10_7 C 0.9259(7) 0.3010(6) 0.9059(7)
H4_7 H 0.9058 0.2711 0.9054
H5_7 H 0.9044 0.3299 0.9074
H6_7 H 0.9474 0.3006 0.9347
N1_7 N 0.9303(4) 0.2976(4) 0.8117(4)
H7_7 H 0.8989 0.2915 0.8159
O1_7 O 0.84055(13) 0.27441(14) 0.77721(14)
O2_7 O 0.83343(12) 0.25113(12) 0.69898(13)
O5_7 O 0.9972(6) 0.3224(6) 0.8546(6)
C11_7 C 0.7656(2) 0.14109(18) 0.77045(18)
C12_7 C 0.7769(2) 0.08922(18) 0.78896(19)
C13_7 C 0.8260(2) 0.07428(19) 0.7932(2)
H8_7 H 0.8515 0.0969 0.7856
C14_7 C 0.8384(2) 0.0257(2) 0.8088(2)
H9_7 H 0.8718 0.0164 0.8129
C17_7 C 0.7489(2) 0.0069(2) 0.8141(2)
C18_7 C 0.7381(2) 0.0558(2) 0.7999(2)
C19_7 C 0.6414(7) 0.0424(8) 0.8035(7)
C20_7 C 0.5941(7) 0.0741(7) 0.8010(6)
H11_7 H 0.5946 0.0942 0.7711
H12_7 H 0.5926 0.0956 0.8299
H13_7 H 0.5653 0.0526 0.8006
N2_7 N 0.6883(4) 0.0697(4) 0.7976(4)
H14_7 H 0.6841 0.1011 0.7915
O6_7 O 0.72279(14) 0.15945(13) 0.77441(14)
O7_7 O 0.80102(13) 0.16657(12) 0.75113(12)
O10_7 O 0.6454(6) 0.0028(6) 0.8224(6)
C21_7 C 0.72955(18) 0.2344(2) 0.64109(18)
C22_7 C 0.71104(19) 0.2231(2) 0.58922(18)
C23_7 C 0.7068(2) 0.1740(2) 0.57428(19)
H15_7 H 0.7144 0.1485 0.5969
C24_7 C 0.6912(2) 0.1616(2) 0.5257(2)
H16_7 H 0.6871 0.1282 0.5164
C25_7 C 0.68199(18) 0.2003(2) 0.49134(18)
C26_7 C 0.67131(19) 0.1883(2) 0.4382(2)
C27_7 C 0.6859(2) 0.2511(2) 0.5069(2)
H17_7 H 0.6790 0.2769 0.4845
C28_7 C 0.7001(2) 0.2619(2) 0.5558(2)
C29_7 C 0.6965(7) 0.3586(7) 0.5424(8)
C30_7 C 0.6990(6) 0.4059(7) 0.5741(7)
H18_7 H 0.7289 0.4054 0.5942
H19_7 H 0.6701 0.4074 0.5956
H20_7 H 0.6994 0.4347 0.5526
N3_7 N 0.7024(4) 0.3117(4) 0.5697(4)
H21_7 H 0.7085 0.3159 0.6011
O11_7 O 0.72559(14) 0.27721(14) 0.65945(13)
O12_7 O 0.74887(12) 0.19898(13) 0.66657(12)
O15_7 O 0.6776(6) 0.3546(6) 0.5028(6)
C31_7 C 0.64109(18) 0.22955(18) 0.7656(2)
C32_7 C 0.58922(18) 0.21104(19) 0.7769(2)
C33_7 C 0.57428(19) 0.2068(2) 0.8260(2)
H22_7 H 0.5969 0.2144 0.8515
C34_7 C 0.5257(2) 0.1912(2) 0.8384(2)
H23_7 H 0.5164 0.1871 0.8718
C35_7 C 0.49134(18) 0.18199(18) 0.7997(2)
C36_7 C 0.4382(2) 0.17131(19) 0.8117(2)
C37_7 C 0.5069(2) 0.1859(2) 0.7489(2)
H24_7 H 0.4845 0.1790 0.7231
C38_7 C 0.5558(2) 0.2001(2) 0.7381(2)
C39_7 C 0.5424(8) 0.1965(7) 0.6414(7)
C40_7 C 0.5741(7) 0.1990(6) 0.5941(7)
H25_7 H 0.5942 0.2289 0.5946
H26_7 H 0.5956 0.1701 0.5926
H27_7 H 0.5526 0.1994 0.5653
N4_7 N 0.5697(4) 0.2024(4) 0.6883(4)
H28_7 H 0.6011 0.2085 0.6841
O16_7 O 0.65945(13) 0.22559(14) 0.72279(14)
O17_7 O 0.66657(12) 0.24887(12) 0.80102(13)
O20_7 O 0.5028(6) 0.1776(6) 0.6454(6)
C41_7 C 0.7344(2) 0.35891(18) 0.72955(18)
C42_7 C 0.7231(2) 0.41078(18) 0.71104(19)
C43_7 C 0.6740(2) 0.42572(19) 0.7068(2)
H29_7 H 0.6485 0.4031 0.7144
C44_7 C 0.6616(2) 0.4743(2) 0.6912(2)
H30_7 H 0.6282 0.4836 0.6871
C45_7 C 0.7003(2) 0.50866(18) 0.68199(18)
C46_7 C 0.6883(2) 0.5618(2) 0.67131(19)
C47_7 C 0.7511(2) 0.4931(2) 0.6859(2)
H31_7 H 0.7769 0.5155 0.6790
C48_7 C 0.7619(2) 0.4442(2) 0.7001(2)
C49_7 C 0.8586(7) 0.4576(8) 0.6965(7)
C50_7 C 0.9059(7) 0.4259(7) 0.6990(6)
H32_7 H 0.9054 0.4058 0.7289
H33_7 H 0.9074 0.4044 0.6701
H34_7 H 0.9347 0.4474 0.6994
N5_7 N 0.8117(4) 0.4303(4) 0.7024(4)
H35_7 H 0.8159 0.3989 0.7085
O21_7 O 0.77721(14) 0.34055(13) 0.72559(14)
O22_7 O 0.69898(13) 0.33343(12) 0.74887(12)
O25_7 O 0.8546(6) 0.4972(6) 0.6776(6)
C51_7 C 0.77045(18) 0.2656(2) 0.85891(18)
C52_7 C 0.78896(19) 0.2769(2) 0.91078(18)
C53_7 C 0.7932(2) 0.3260(2) 0.92572(19)
H36_7 H 0.7856 0.3515 0.9031
C54_7 C 0.8088(2) 0.3384(2) 0.9743(2)
H37_7 H 0.8129 0.3718 0.9836
C57_7 C 0.8141(2) 0.2489(2) 0.9931(2)
C58_7 C 0.7999(2) 0.2381(2) 0.9442(2)
C59_7 C 0.8035(7) 0.1414(7) 0.9576(8)
C60_7 C 0.8010(6) 0.0941(7) 0.9259(7)
H39_7 H 0.7711 0.0946 0.9058
H40_7 H 0.8299 0.0926 0.9044
H41_7 H 0.8006 0.0653 0.9474
N6_7 N 0.7976(4) 0.1883(4) 0.9303(4)
H42_7 H 0.7915 0.1841 0.8989
O26_7 O 0.77441(14) 0.22279(14) 0.84055(13)
O27_7 O 0.75113(12) 0.30102(13) 0.83343(12)
O30_7 O 0.8224(6) 0.1454(6) 0.9972(6)
C15_7 C 0.7997(2) 0.99134(18) 0.81801(18)
C16_7 C 0.8117(2) 0.9382(2) 0.82869(19)
H10_7 H 0.7231 0.9845 0.8210
C35_8 C 0.00866(18) 0.81801(18) 0.2997(2)
C36_8 C 0.0618(2) 0.82869(19) 0.3117(2)
H24_8 H 0.0155 0.8210 0.2231
C15_8 C 0.7003(2) 0.00866(18) 0.31801(18)
C16_8 C 0.6883(2) 0.0618(2) 0.32869(19)
H10_8 H 0.7769 0.0155 0.3210
Sm1_8 Sm 0.7500 0.7500 0.2500
C1_8 C 0.64109(18) 0.72955(18) 0.2344(2)
C2_8 C 0.58922(18) 0.71104(19) 0.2231(2)
C3_8 C 0.57428(19) 0.7068(2) 0.1740(2)
H1_8 H 0.5969 0.7144 0.1485
C4_8 C 0.5257(2) 0.6912(2) 0.1616(2)
H2_8 H 0.5164 0.6871 0.1282
C5_8 C 0.49134(18) 0.68199(18) 0.2003(2)
C6_8 C 0.4382(2) 0.67131(19) 0.1883(2)
C7_8 C 0.5069(2) 0.6859(2) 0.2511(2)
H3_8 H 0.4845 0.6790 0.2769
C8_8 C 0.5558(2) 0.7001(2) 0.2619(2)
C9_8 C 0.5424(8) 0.6965(7) 0.3586(7)
C10_8 C 0.5741(7) 0.6990(6) 0.4059(7)
H4_8 H 0.5942 0.7289 0.4054
H5_8 H 0.5956 0.6701 0.4074
H6_8 H 0.5526 0.6994 0.4347
N1_8 N 0.5697(4) 0.7024(4) 0.3117(4)
H7_8 H 0.6011 0.7085 0.3159
O1_8 O 0.65945(13) 0.72559(14) 0.27721(14)
O2_8 O 0.66657(12) 0.74887(12) 0.19898(13)
O5_8 O 0.5028(6) 0.6776(6) 0.3546(6)
C11_8 C 0.7344(2) 0.85891(18) 0.27045(18)
C12_8 C 0.7231(2) 0.91078(18) 0.28896(19)
C13_8 C 0.6740(2) 0.92572(19) 0.2932(2)
H8_8 H 0.6485 0.9031 0.2856
C14_8 C 0.6616(2) 0.9743(2) 0.3088(2)
H9_8 H 0.6282 0.9836 0.3129
C17_8 C 0.7511(2) 0.9931(2) 0.3141(2)
C18_8 C 0.7619(2) 0.9442(2) 0.2999(2)
C19_8 C 0.8586(7) 0.9576(8) 0.3035(7)
C20_8 C 0.9059(7) 0.9259(7) 0.3010(6)
H11_8 H 0.9054 0.9058 0.2711
H12_8 H 0.9074 0.9044 0.3299
H13_8 H 0.9347 0.9474 0.3006
N2_8 N 0.8117(4) 0.9303(4) 0.2976(4)
H14_8 H 0.8159 0.8989 0.2915
O6_8 O 0.77721(14) 0.84055(13) 0.27441(14)
O7_8 O 0.69898(13) 0.83343(12) 0.25113(12)
O10_8 O 0.8546(6) 0.9972(6) 0.3224(6)
C21_8 C 0.77045(18) 0.7656(2) 0.14109(18)
C22_8 C 0.78896(19) 0.7769(2) 0.08922(18)
C23_8 C 0.7932(2) 0.8260(2) 0.07428(19)
H15_8 H 0.7856 0.8515 0.0969
C24_8 C 0.8088(2) 0.8384(2) 0.0257(2)
H16_8 H 0.8129 0.8718 0.0164
C27_8 C 0.8141(2) 0.7489(2) 0.0069(2)
C28_8 C 0.7999(2) 0.7381(2) 0.0558(2)
C29_8 C 0.8035(7) 0.6414(7) 0.0424(8)
C30_8 C 0.8010(6) 0.5941(7) 0.0741(7)
H18_8 H 0.7711 0.5946 0.0942
H19_8 H 0.8299 0.5926 0.0956
H20_8 H 0.8006 0.5653 0.0526
N3_8 N 0.7976(4) 0.6883(4) 0.0697(4)
H21_8 H 0.7915 0.6841 0.1011
O11_8 O 0.77441(14) 0.72279(14) 0.15945(13)
O12_8 O 0.75113(12) 0.80102(13) 0.16657(12)
O15_8 O 0.8224(6) 0.6454(6) 0.0028(6)
C31_8 C 0.85891(18) 0.77045(18) 0.2656(2)
C32_8 C 0.91078(18) 0.78896(19) 0.2769(2)
C33_8 C 0.92572(19) 0.7932(2) 0.3260(2)
H22_8 H 0.9031 0.7856 0.3515
C34_8 C 0.9743(2) 0.8088(2) 0.3384(2)
H23_8 H 0.9836 0.8129 0.3718
C37_8 C 0.9931(2) 0.8141(2) 0.2489(2)
C38_8 C 0.9442(2) 0.7999(2) 0.2381(2)
C39_8 C 0.9576(8) 0.8035(7) 0.1414(7)
C40_8 C 0.9259(7) 0.8010(6) 0.0941(7)
H25_8 H 0.9058 0.7711 0.0946
H26_8 H 0.9044 0.8299 0.0926
H27_8 H 0.9474 0.8006 0.0653
N4_8 N 0.9303(4) 0.7976(4) 0.1883(4)
H28_8 H 0.8989 0.7915 0.1841
O16_8 O 0.84055(13) 0.77441(14) 0.22279(14)
O17_8 O 0.83343(12) 0.75113(12) 0.30102(13)
O20_8 O 0.9972(6) 0.8224(6) 0.1454(6)
C41_8 C 0.7656(2) 0.64109(18) 0.22955(18)
C42_8 C 0.7769(2) 0.58922(18) 0.21104(19)
C43_8 C 0.8260(2) 0.57428(19) 0.2068(2)
H29_8 H 0.8515 0.5969 0.2144
C44_8 C 0.8384(2) 0.5257(2) 0.1912(2)
H30_8 H 0.8718 0.5164 0.1871
C45_8 C 0.7997(2) 0.49134(18) 0.18199(18)
C46_8 C 0.8117(2) 0.4382(2) 0.17131(19)
C47_8 C 0.7489(2) 0.5069(2) 0.1859(2)
H31_8 H 0.7231 0.4845 0.1790
C48_8 C 0.7381(2) 0.5558(2) 0.2001(2)
C49_8 C 0.6414(7) 0.5424(8) 0.1965(7)
C50_8 C 0.5941(7) 0.5741(7) 0.1990(6)
H32_8 H 0.5946 0.5942 0.2289
H33_8 H 0.5926 0.5956 0.1701
H34_8 H 0.5653 0.5526 0.1994
N5_8 N 0.6883(4) 0.5697(4) 0.2024(4)
H35_8 H 0.6841 0.6011 0.2085
O21_8 O 0.72279(14) 0.65945(13) 0.22559(14)
O22_8 O 0.80102(13) 0.66657(12) 0.24887(12)
O25_8 O 0.6454(6) 0.5028(6) 0.1776(6)
C51_8 C 0.72955(18) 0.7344(2) 0.35891(18)
C52_8 C 0.71104(19) 0.7231(2) 0.41078(18)
C53_8 C 0.7068(2) 0.6740(2) 0.42572(19)
H36_8 H 0.7144 0.6485 0.4031
C54_8 C 0.6912(2) 0.6616(2) 0.4743(2)
H37_8 H 0.6871 0.6282 0.4836
C55_8 C 0.68199(18) 0.7003(2) 0.50866(18)
C56_8 C 0.67131(19) 0.6883(2) 0.5618(2)
C57_8 C 0.6859(2) 0.7511(2) 0.4931(2)
H38_8 H 0.6790 0.7769 0.5155
C58_8 C 0.7001(2) 0.7619(2) 0.4442(2)
C59_8 C 0.6965(7) 0.8586(7) 0.4576(8)
C60_8 C 0.6990(6) 0.9059(7) 0.4259(7)
H39_8 H 0.7289 0.9054 0.4058
H40_8 H 0.6701 0.9074 0.4044
H41_8 H 0.6994 0.9347 0.4474
N6_8 N 0.7024(4) 0.8117(4) 0.4303(4)
H42_8 H 0.7085 0.8159 0.3989
O26_8 O 0.72559(14) 0.77721(14) 0.34055(13)
O27_8 O 0.74887(12) 0.69898(13) 0.33343(12)
O30_8 O 0.6776(6) 0.8546(6) 0.4972(6)
C25_8 C 0.81801(18) 0.7997(2) 0.99134(18)
C26_8 C 0.82869(19) 0.8117(2) 0.9382(2)
H17_8 H 0.8210 0.7231 0.9845
loop_
_geom_bond_atom_site_label_1
_geom_bond_atom_site_label_2
_geom_bond_site_symmetry_1
_geom_bond_site_symmetry_2
C36 C35 1_555 1_555
O18 C36 1_555 1_555
O19 C36 1_555 1_555
Sm7 O18 1_555 1_555
O19 Sm7 1_555 1_555
Sm1 O1 1_555 1_555
Sm2 O2 1_555 1_555
C1 C2 1_555 1_555
C2 C3 1_555 1_555
C3 H1 1_555 1_555
C4 C3 1_555 1_555
H2 C4 1_555 1_555
C5 C4 1_555 1_555
C6 C5 1_555 1_555
C7 C5 1_555 1_555
H3 C7 1_555 1_555
C8 C2 1_555 1_555
C9 C10 1_555 1_555
C10 H4 1_555 1_555
H5 C10 1_555 1_555
H6 C10 1_555 1_555
N1 C8 1_555 1_555
H7 N1 1_555 1_555
O1 C1 1_555 1_555
O2 Sm1 1_555 1_555
O3 C6 1_555 1_555
O4 C6 1_555 1_555
O5 C9 1_555 1_555
C11 C12 1_555 1_555
C12 C13 1_555 1_555
C13 H8 1_555 1_555
C14 C13 1_555 1_555
H9 C14 1_555 1_555
C18 C12 1_555 1_555
C19 C20 1_555 1_555
C20 H11 1_555 1_555
H12 C20 1_555 1_555
H13 C20 1_555 1_555
N2 C18 1_555 1_555
H14 N2 1_555 1_555
O6 Sm1 1_555 1_555
O7 Sm1 1_555 1_555
O10 C19 1_555 1_555
C21 C22 1_555 1_555
C22 C23 1_555 1_555
C23 H15 1_555 1_555
C24 C23 1_555 1_555
H16 C24 1_555 1_555
C25 C24 1_555 1_555
C26 C25 1_555 1_555
C27 C25 1_555 1_555
H17 C27 1_555 1_555
C28 C22 1_555 1_555
C29 C30 1_555 1_555
C30 H18 1_555 1_555
H19 C30 1_555 1_555
H20 C30 1_555 1_555
N3 C28 1_555 1_555
H21 N3 1_555 1_555
O11 Sm1 1_555 1_555
O12 Sm1 1_555 1_555
O13 C26 1_555 1_555
O14 C26 1_555 1_555
O15 C29 1_555 1_555
Sm3 O17 1_555 1_555
C31 C32 1_555 1_555
C32 C33 1_555 1_555
C33 H22 1_555 1_555
C34 C33 1_555 1_555
H23 C34 1_555 1_555
C38 C32 1_555 1_555
C39 C40 1_555 1_555
C40 H25 1_555 1_555
H26 C40 1_555 1_555
H27 C40 1_555 1_555
N4 C38 1_555 1_555
H28 N4 1_555 1_555
O16 Sm1 1_555 1_555
O17 Sm1 1_555 1_555
O20 C39 1_555 1_555
C41 C42 1_555 1_555
C42 C43 1_555 1_555
C43 H29 1_555 1_555
C44 C43 1_555 1_555
H30 C44 1_555 1_555
C45 C44 1_555 1_555
C46 C45 1_555 1_555
C47 C45 1_555 1_555
H31 C47 1_555 1_555
C48 C42 1_555 1_555
C49 C50 1_555 1_555
C50 H32 1_555 1_555
H33 C50 1_555 1_555
H34 C50 1_555 1_555
N5 C48 1_555 1_555
H35 N5 1_555 1_555
O21 Sm1 1_555 1_555
O22 Sm1 1_555 1_555
O23 C46 1_555 1_555
O24 C46 1_555 1_555
O25 C49 1_555 1_555
C51 C52 1_555 1_555
C52 C53 1_555 1_555
C53 H36 1_555 1_555
C54 C53 1_555 1_555
H37 C54 1_555 1_555
C58 C52 1_555 1_555
C59 C60 1_555 1_555
C60 H39 1_555 1_555
H40 C60 1_555 1_555
H41 C60 1_555 1_555
N6 C58 1_555 1_555
H42 N6 1_555 1_555
O26 Sm1 1_555 1_555
O27 Sm1 1_555 1_555
O30 C59 1_555 1_555
Sm4 O3 1_555 1_555
Sm5 O13 1_555 1_555
Sm9 O23 1_555 1_555
O31 Sm2 1_555 1_555
O32 Sm2 1_555 1_555
O33 Sm2 1_555 1_555
O34 Sm3 1_555 1_555
O35 Sm3 1_555 1_555
O36 Sm3 1_555 1_555
O37 Sm2 1_555 1_555
O38 Sm2 1_555 1_555
O39 Sm2 1_555 1_555
O40 Sm3 1_555 1_555
O41 Sm3 1_555 1_555
O42 Sm3 1_555 1_555
Sm2 O7 1_555 1_555
Sm2 O12 1_555 1_555
C1 O2 1_555 1_555
C7 C8 1_555 1_555
C9 N1 1_555 1_555
O4 Sm4 1_555 1_555
C11 O6 1_555 1_555
C11 O7 1_555 1_555
C17 C18 1_555 1_555
C19 N2 1_555 1_555
C21 O11 1_555 1_555
C21 O12 1_555 1_555
C27 C28 1_555 1_555
C29 N3 1_555 1_555
O14 Sm5 1_555 1_555
Sm3 O22 1_555 1_555
Sm3 O27 1_555 1_555
C31 O16 1_555 1_555
C31 O17 1_555 1_555
C37 C38 1_555 1_555
C39 N4 1_555 1_555
C41 O21 1_555 1_555
C41 O22 1_555 1_555
C47 C48 1_555 1_555
C49 N5 1_555 1_555
O24 Sm9 1_555 1_555
C51 O26 1_555 1_555
C51 O27 1_555 1_555
C57 C58 1_555 1_555
C59 N6 1_555 1_555
C56 C55 1_555 1_555
O28 C56 1_555 1_555
O29 C56 1_555 1_555
Sm8 O28 1_555 1_555
O29 Sm8 1_555 1_555
C16 C15 1_555 1_555
O8 C16 1_555 1_555
O9 C16 1_555 1_555
Sm6 O8 1_555 1_555
O9 Sm6 1_555 1_555
C6_2 C5_2 1_555 1_555
O3_2 C6_2 1_555 1_555
O4_2 C6_2 1_555 1_555
Sm4_2 O3_2 1_555 1_555
O4_2 Sm4_2 1_555 1_555
C16_2 C15_2 1_555 1_555
O8_2 C16_2 1_555 1_555
O9_2 C16_2 1_555 1_555
Sm5 O8_2 1_555 1_555
O9_2 Sm5 1_555 1_555
C26_2 C25_2 1_555 1_555
O13_2 C26_2 1_555 1_555
O14_2 C26_2 1_555 1_555
Sm6 O13_2 1_555 1_555
O14_2 Sm6 1_555 1_555
Sm1_2 O1_2 1_555 1_555
Sm2_2 O2_2 1_555 1_555
C1_2 C2_2 1_555 1_555
C2_2 C3_2 1_555 1_555
C3_2 H1_2 1_555 1_555
C4_2 C3_2 1_555 1_555
H2_2 C4_2 1_555 1_555
C8_2 C2_2 1_555 1_555
C9_2 C10_2 1_555 1_555
C10_2 H4_2 1_555 1_555
H5_2 C10_2 1_555 1_555
H6_2 C10_2 1_555 1_555
N1_2 C8_2 1_555 1_555
H7_2 N1_2 1_555 1_555
O1_2 C1_2 1_555 1_555
O2_2 Sm1_2 1_555 1_555
O5_2 C9_2 1_555 1_555
C11_2 C12_2 1_555 1_555
C12_2 C13_2 1_555 1_555
C13_2 H8_2 1_555 1_555
C14_2 C13_2 1_555 1_555
H9_2 C14_2 1_555 1_555
C18_2 C12_2 1_555 1_555
C19_2 C20_2 1_555 1_555
C20_2 H11_2 1_555 1_555
H12_2 C20_2 1_555 1_555
H13_2 C20_2 1_555 1_555
N2_2 C18_2 1_555 1_555
H14_2 N2_2 1_555 1_555
O6_2 Sm1_2 1_555 1_555
O7_2 Sm1_2 1_555 1_555
O10_2 C19_2 1_555 1_555
C21_2 C22_2 1_555 1_555
C22_2 C23_2 1_555 1_555
C23_2 H15_2 1_555 1_555
C24_2 C23_2 1_555 1_555
H16_2 C24_2 1_555 1_555
C28_2 C22_2 1_555 1_555
C29_2 C30_2 1_555 1_555
C30_2 H18_2 1_555 1_555
H19_2 C30_2 1_555 1_555
H20_2 C30_2 1_555 1_555
N3_2 C28_2 1_555 1_555
H21_2 N3_2 1_555 1_555
O11_2 Sm1_2 1_555 1_555
O12_2 Sm1_2 1_555 1_555
O15_2 C29_2 1_555 1_555
Sm3_2 O17_2 1_555 1_555
C31_2 C32_2 1_555 1_555
C32_2 C33_2 1_555 1_555
C33_2 H22_2 1_555 1_555
C34_2 C33_2 1_555 1_555
H23_2 C34_2 1_555 1_555
C35_2 C34_2 1_555 1_555
C36_2 C35_2 1_555 1_555
C37_2 C35_2 1_555 1_555
H24_2 C37_2 1_555 1_555
C38_2 C32_2 1_555 1_555
C39_2 C40_2 1_555 1_555
C40_2 H25_2 1_555 1_555
H26_2 C40_2 1_555 1_555
H27_2 C40_2 1_555 1_555
N4_2 C38_2 1_555 1_555
H28_2 N4_2 1_555 1_555
O16_2 Sm1_2 1_555 1_555
O17_2 Sm1_2 1_555 1_555
O18_2 C36_2 1_555 1_555
O19_2 C36_2 1_555 1_555
O20_2 C39_2 1_555 1_555
C41_2 C42_2 1_555 1_555
C42_2 C43_2 1_555 1_555
C43_2 H29_2 1_555 1_555
C44_2 C43_2 1_555 1_555
H30_2 C44_2 1_555 1_555
C45_2 C44_2 1_555 1_555
C46_2 C45_2 1_555 1_555
C47_2 C45_2 1_555 1_555
H31_2 C47_2 1_555 1_555
C48_2 C42_2 1_555 1_555
C49_2 C50_2 1_555 1_555
C50_2 H32_2 1_555 1_555
H33_2 C50_2 1_555 1_555
H34_2 C50_2 1_555 1_555
N5_2 C48_2 1_555 1_555
H35_2 N5_2 1_555 1_555
O21_2 Sm1_2 1_555 1_555
O22_2 Sm1_2 1_555 1_555
O23_2 C46_2 1_555 1_555
O24_2 C46_2 1_555 1_555
O25_2 C49_2 1_555 1_555
C51_2 C52_2 1_555 1_555
C52_2 C53_2 1_555 1_555
C53_2 H36_2 1_555 1_555
C54_2 C53_2 1_555 1_555
H37_2 C54_2 1_555 1_555
C55_2 C54_2 1_555 1_555
C56_2 C55_2 1_555 1_555
C57_2 C55_2 1_555 1_555
H38_2 C57_2 1_555 1_555
C58_2 C52_2 1_555 1_555
C59_2 C60_2 1_555 1_555
C60_2 H39_2 1_555 1_555
H40_2 C60_2 1_555 1_555
H41_2 C60_2 1_555 1_555
N6_2 C58_2 1_555 1_555
H42_2 N6_2 1_555 1_555
O26_2 Sm1_2 1_555 1_555
O27_2 Sm1_2 1_555 1_555
O28_2 C56_2 1_555 1_555
O29_2 C56_2 1_555 1_555
O30_2 C59_2 1_555 1_555
Sm7_2 O18_2 1_555 1_555
Sm9 O28_2 1_555 1_555
Sm8 O23_2 1_555 1_555
O31_2 Sm2_2 1_555 1_555
O32_2 Sm2_2 1_555 1_555
O33_2 Sm2_2 1_555 1_555
O34_2 Sm3_2 1_555 1_555
O35_2 Sm3_2 1_555 1_555
O36_2 Sm3_2 1_555 1_555
O37_2 Sm2_2 1_555 1_555
O38_2 Sm2_2 1_555 1_555
O39_2 Sm2_2 1_555 1_555
O40_2 Sm3_2 1_555 1_555
O41_2 Sm3_2 1_555 1_555
O42_2 Sm3_2 1_555 1_555
Sm2_2 O7_2 1_555 1_555
Sm2_2 O12_2 1_555 1_555
C1_2 O2_2 1_555 1_555
C7_2 C8_2 1_555 1_555
C9_2 N1_2 1_555 1_555
C11_2 O6_2 1_555 1_555
C11_2 O7_2 1_555 1_555
C17_2 C18_2 1_555 1_555
C19_2 N2_2 1_555 1_555
C21_2 O11_2 1_555 1_555
C21_2 O12_2 1_555 1_555
C27_2 C28_2 1_555 1_555
C29_2 N3_2 1_555 1_555
Sm3_2 O22_2 1_555 1_555
Sm3_2 O27_2 1_555 1_555
C31_2 O16_2 1_555 1_555
C31_2 O17_2 1_555 1_555
C37_2 C38_2 1_555 1_555
C39_2 N4_2 1_555 1_555
O19_2 Sm7_2 1_555 1_555
C41_2 O21_2 1_555 1_555
C41_2 O22_2 1_555 1_555
C47_2 C48_2 1_555 1_555
C49_2 N5_2 1_555 1_555
O24_2 Sm8 1_555 1_555
C51_2 O26_2 1_555 1_555
C51_2 O27_2 1_555 1_555
C57_2 C58_2 1_555 1_555
C59_2 N6_2 1_555 1_555
O29_2 Sm9 1_555 1_555
C46_3 C45_3 1_555 1_555
O23_3 C46_3 1_555 1_555
O24_3 C46_3 1_555 1_555
Sm7 O23_3 1_555 1_555
O24_3 Sm7 1_555 1_555
Sm1_3 O1_3 1_555 1_555
Sm2_3 O2_3 1_555 1_555
C1_3 C2_3 1_555 1_555
C2_3 C3_3 1_555 1_555
C3_3 H1_3 1_555 1_555
C4_3 C3_3 1_555 1_555
H2_3 C4_3 1_555 1_555
C5_3 C4_3 1_555 1_555
C6_3 C5_3 1_555 1_555
C7_3 C5_3 1_555 1_555
H3_3 C7_3 1_555 1_555
C8_3 C2_3 1_555 1_555
C9_3 C10_3 1_555 1_555
C10_3 H4_3 1_555 1_555
H5_3 C10_3 1_555 1_555
H6_3 C10_3 1_555 1_555
N1_3 C8_3 1_555 1_555
H7_3 N1_3 1_555 1_555
O1_3 C1_3 1_555 1_555
O2_3 Sm1_3 1_555 1_555
O3_3 C6_3 1_555 1_555
O4_3 C6_3 1_555 1_555
O5_3 C9_3 1_555 1_555
C11_3 C12_3 1_555 1_555
C12_3 C13_3 1_555 1_555
C13_3 H8_3 1_555 1_555
C14_3 C13_3 1_555 1_555
H9_3 C14_3 1_555 1_555
C15_3 C14_3 1_555 1_555
C16_3 C15_3 1_555 1_555
C17_3 C15_3 1_555 1_555
H10_3 C17_3 1_555 1_555
C18_3 C12_3 1_555 1_555
C19_3 C20_3 1_555 1_555
C20_3 H11_3 1_555 1_555
H12_3 C20_3 1_555 1_555
H13_3 C20_3 1_555 1_555
N2_3 C18_3 1_555 1_555
H14_3 N2_3 1_555 1_555
O6_3 Sm1_3 1_555 1_555
O7_3 Sm1_3 1_555 1_555
O8_3 C16_3 1_555 1_555
O9_3 C16_3 1_555 1_555
O10_3 C19_3 1_555 1_555
C21_3 C22_3 1_555 1_555
C22_3 C23_3 1_555 1_555
C23_3 H15_3 1_555 1_555
C24_3 C23_3 1_555 1_555
H16_3 C24_3 1_555 1_555
C28_3 C22_3 1_555 1_555
C29_3 C30_3 1_555 1_555
C30_3 H18_3 1_555 1_555
H19_3 C30_3 1_555 1_555
H20_3 C30_3 1_555 1_555
N3_3 C28_3 1_555 1_555
H21_3 N3_3 1_555 1_555
O11_3 Sm1_3 1_555 1_555
O12_3 Sm1_3 1_555 1_555
O15_3 C29_3 1_555 1_555
Sm3_3 O17_3 1_555 1_555
C31_3 C32_3 1_555 1_555
C32_3 C33_3 1_555 1_555
C33_3 H22_3 1_555 1_555
C34_3 C33_3 1_555 1_555
H23_3 C34_3 1_555 1_555
C38_3 C32_3 1_555 1_555
C39_3 C40_3 1_555 1_555
C40_3 H25_3 1_555 1_555
H26_3 C40_3 1_555 1_555
H27_3 C40_3 1_555 1_555
N4_3 C38_3 1_555 1_555
H28_3 N4_3 1_555 1_555
O16_3 Sm1_3 1_555 1_555
O17_3 Sm1_3 1_555 1_555
O20_3 C39_3 1_555 1_555
C41_3 C42_3 1_555 1_555
C42_3 C43_3 1_555 1_555
C43_3 H29_3 1_555 1_555
C44_3 C43_3 1_555 1_555
H30_3 C44_3 1_555 1_555
C48_3 C42_3 1_555 1_555
C49_3 C50_3 1_555 1_555
C50_3 H32_3 1_555 1_555
H33_3 C50_3 1_555 1_555
H34_3 C50_3 1_555 1_555
N5_3 C48_3 1_555 1_555
H35_3 N5_3 1_555 1_555
O21_3 Sm1_3 1_555 1_555
O22_3 Sm1_3 1_555 1_555
O25_3 C49_3 1_555 1_555
C51_3 C52_3 1_555 1_555
C52_3 C53_3 1_555 1_555
C53_3 H36_3 1_555 1_555
C54_3 C53_3 1_555 1_555
H37_3 C54_3 1_555 1_555
C55_3 C54_3 1_555 1_555
C56_3 C55_3 1_555 1_555
C57_3 C55_3 1_555 1_555
H38_3 C57_3 1_555 1_555
C58_3 C52_3 1_555 1_555
C59_3 C60_3 1_555 1_555
C60_3 H39_3 1_555 1_555
H40_3 C60_3 1_555 1_555
H41_3 C60_3 1_555 1_555
N6_3 C58_3 1_555 1_555
H42_3 N6_3 1_555 1_555
O26_3 Sm1_3 1_555 1_555
O27_3 Sm1_3 1_555 1_555
O28_3 C56_3 1_555 1_555
O29_3 C56_3 1_555 1_555
O30_3 C59_3 1_555 1_555
Sm6 O3_3 1_555 1_555
Sm4 O8_3 1_555 1_555
Sm7_2 O28_3 1_555 1_555
O31_3 Sm2_3 1_555 1_555
O32_3 Sm2_3 1_555 1_555
O33_3 Sm2_3 1_555 1_555
O34_3 Sm3_3 1_555 1_555
O35_3 Sm3_3 1_555 1_555
O36_3 Sm3_3 1_555 1_555
O37_3 Sm2_3 1_555 1_555
O38_3 Sm2_3 1_555 1_555
O39_3 Sm2_3 1_555 1_555
O40_3 Sm3_3 1_555 1_555
O41_3 Sm3_3 1_555 1_555
O42_3 Sm3_3 1_555 1_555
Sm2_3 O7_3 1_555 1_555
Sm2_3 O12_3 1_555 1_555
C1_3 O2_3 1_555 1_555
C7_3 C8_3 1_555 1_555
C9_3 N1_3 1_555 1_555
O4_3 Sm6 1_555 1_555
C11_3 O6_3 1_555 1_555
C11_3 O7_3 1_555 1_555
C17_3 C18_3 1_555 1_555
C19_3 N2_3 1_555 1_555
O9_3 Sm4 1_555 1_555
C21_3 O11_3 1_555 1_555
C21_3 O12_3 1_555 1_555
C27_3 C28_3 1_555 1_555
C29_3 N3_3 1_555 1_555
Sm3_3 O22_3 1_555 1_555
Sm3_3 O27_3 1_555 1_555
C31_3 O16_3 1_555 1_555
C31_3 O17_3 1_555 1_555
C37_3 C38_3 1_555 1_555
C39_3 N4_3 1_555 1_555
C41_3 O21_3 1_555 1_555
C41_3 O22_3 1_555 1_555
C47_3 C48_3 1_555 1_555
C49_3 N5_3 1_555 1_555
C51_3 O26_3 1_555 1_555
C51_3 O27_3 1_555 1_555
C57_3 C58_3 1_555 1_555
C59_3 N6_3 1_555 1_555
O29_3 Sm7_2 1_555 1_555
C26_3 C25_3 1_555 1_555
O13_3 C26_3 1_555 1_555
O14_3 C26_3 1_555 1_555
Sm4_2 O13_3 1_555 1_555
O14_3 Sm4_2 1_555 1_555
C36_3 C35_3 1_555 1_555
O18_3 C36_3 1_555 1_555
O19_3 C36_3 1_555 1_555
Sm9 O18_3 1_555 1_555
O19_3 Sm9 1_555 1_555
C56_4 C55_4 1_555 1_555
O28_4 C56_4 1_555 1_555
O29_4 C56_4 1_555 1_555
Sm7 O28_4 1_555 1_555
O29_4 Sm7 1_555 1_555
Sm1_4 O1_4 1_555 1_555
Sm2_4 O2_4 1_555 1_555
C1_4 C2_4 1_555 1_555
C2_4 C3_4 1_555 1_555
C3_4 H1_4 1_555 1_555
C4_4 C3_4 1_555 1_555
H2_4 C4_4 1_555 1_555
C8_4 C2_4 1_555 1_555
C9_4 C10_4 1_555 1_555
C10_4 H4_4 1_555 1_555
H5_4 C10_4 1_555 1_555
H6_4 C10_4 1_555 1_555
N1_4 C8_4 1_555 1_555
H7_4 N1_4 1_555 1_555
O1_4 C1_4 1_555 1_555
O2_4 Sm1_4 1_555 1_555
O5_4 C9_4 1_555 1_555
C11_4 C12_4 1_555 1_555
C12_4 C13_4 1_555 1_555
C13_4 H8_4 1_555 1_555
C14_4 C13_4 1_555 1_555
H9_4 C14_4 1_555 1_555
C15_4 C14_4 1_555 1_555
C16_4 C15_4 1_555 1_555
C17_4 C15_4 1_555 1_555
H10_4 C17_4 1_555 1_555
C18_4 C12_4 1_555 1_555
C19_4 C20_4 1_555 1_555
C20_4 H11_4 1_555 1_555
H12_4 C20_4 1_555 1_555
H13_4 C20_4 1_555 1_555
N2_4 C18_4 1_555 1_555
H14_4 N2_4 1_555 1_555
O6_4 Sm1_4 1_555 1_555
O7_4 Sm1_4 1_555 1_555
O8_4 C16_4 1_555 1_555
O9_4 C16_4 1_555 1_555
O10_4 C19_4 1_555 1_555
C21_4 C22_4 1_555 1_555
C22_4 C23_4 1_555 1_555
C23_4 H15_4 1_555 1_555
C24_4 C23_4 1_555 1_555
H16_4 C24_4 1_555 1_555
C25_4 C24_4 1_555 1_555
C26_4 C25_4 1_555 1_555
C27_4 C25_4 1_555 1_555
H17_4 C27_4 1_555 1_555
C28_4 C22_4 1_555 1_555
C29_4 C30_4 1_555 1_555
C30_4 H18_4 1_555 1_555
H19_4 C30_4 1_555 1_555
H20_4 C30_4 1_555 1_555
N3_4 C28_4 1_555 1_555
H21_4 N3_4 1_555 1_555
O11_4 Sm1_4 1_555 1_555
O12_4 Sm1_4 1_555 1_555
O13_4 C26_4 1_555 1_555
O14_4 C26_4 1_555 1_555
O15_4 C29_4 1_555 1_555
Sm3_4 O17_4 1_555 1_555
C31_4 C32_4 1_555 1_555
C32_4 C33_4 1_555 1_555
C33_4 H22_4 1_555 1_555
C34_4 C33_4 1_555 1_555
H23_4 C34_4 1_555 1_555
C35_4 C34_4 1_555 1_555
C36_4 C35_4 1_555 1_555
C37_4 C35_4 1_555 1_555
H24_4 C37_4 1_555 1_555
C38_4 C32_4 1_555 1_555
C39_4 C40_4 1_555 1_555
C40_4 H25_4 1_555 1_555
H26_4 C40_4 1_555 1_555
H27_4 C40_4 1_555 1_555
N4_4 C38_4 1_555 1_555
H28_4 N4_4 1_555 1_555
O16_4 Sm1_4 1_555 1_555
O17_4 Sm1_4 1_555 1_555
O18_4 C36_4 1_555 1_555
O19_4 C36_4 1_555 1_555
O20_4 C39_4 1_555 1_555
C41_4 C42_4 1_555 1_555
C42_4 C43_4 1_555 1_555
C43_4 H29_4 1_555 1_555
C44_4 C43_4 1_555 1_555
H30_4 C44_4 1_555 1_555
C48_4 C42_4 1_555 1_555
C49_4 C50_4 1_555 1_555
C50_4 H32_4 1_555 1_555
H33_4 C50_4 1_555 1_555
H34_4 C50_4 1_555 1_555
N5_4 C48_4 1_555 1_555
H35_4 N5_4 1_555 1_555
O21_4 Sm1_4 1_555 1_555
O22_4 Sm1_4 1_555 1_555
O25_4 C49_4 1_555 1_555
C51_4 C52_4 1_555 1_555
C52_4 C53_4 1_555 1_555
C53_4 H36_4 1_555 1_555
C54_4 C53_4 1_555 1_555
H37_4 C54_4 1_555 1_555
C58_4 C52_4 1_555 1_555
C59_4 C60_4 1_555 1_555
C60_4 H39_4 1_555 1_555
H40_4 C60_4 1_555 1_555
H41_4 C60_4 1_555 1_555
N6_4 C58_4 1_555 1_555
H42_4 N6_4 1_555 1_555
O26_4 Sm1_4 1_555 1_555
O27_4 Sm1_4 1_555 1_555
O30_4 C59_4 1_555 1_555
Sm4 O13_4 1_555 1_555
Sm4_2 O8_4 1_555 1_555
Sm8 O18_4 1_555 1_555
O31_4 Sm2_4 1_555 1_555
O32_4 Sm2_4 1_555 1_555
O33_4 Sm2_4 1_555 1_555
O34_4 Sm3_4 1_555 1_555
O35_4 Sm3_4 1_555 1_555
O36_4 Sm3_4 1_555 1_555
O37_4 Sm2_4 1_555 1_555
O38_4 Sm2_4 1_555 1_555
O39_4 Sm2_4 1_555 1_555
O40_4 Sm3_4 1_555 1_555
O41_4 Sm3_4 1_555 1_555
O42_4 Sm3_4 1_555 1_555
Sm2_4 O7_4 1_555 1_555
Sm2_4 O12_4 1_555 1_555
C1_4 O2_4 1_555 1_555
C7_4 C8_4 1_555 1_555
C9_4 N1_4 1_555 1_555
C11_4 O6_4 1_555 1_555
C11_4 O7_4 1_555 1_555
C17_4 C18_4 1_555 1_555
C19_4 N2_4 1_555 1_555
O9_4 Sm4_2 1_555 1_555
C21_4 O11_4 1_555 1_555
C21_4 O12_4 1_555 1_555
C27_4 C28_4 1_555 1_555
C29_4 N3_4 1_555 1_555
O14_4 Sm4 1_555 1_555
Sm3_4 O22_4 1_555 1_555
Sm3_4 O27_4 1_555 1_555
C31_4 O16_4 1_555 1_555
C31_4 O17_4 1_555 1_555
C37_4 C38_4 1_555 1_555
C39_4 N4_4 1_555 1_555
O19_4 Sm8 1_555 1_555
C41_4 O21_4 1_555 1_555
C41_4 O22_4 1_555 1_555
C47_4 C48_4 1_555 1_555
C49_4 N5_4 1_555 1_555
C51_4 O26_4 1_555 1_555
C51_4 O27_4 1_555 1_555
C57_4 C58_4 1_555 1_555
C59_4 N6_4 1_555 1_555
C46_4 C45_4 1_555 1_555
O23_4 C46_4 1_555 1_555
O24_4 C46_4 1_555 1_555
Sm7_2 O23_4 1_555 1_555
O24_4 Sm7_2 1_555 1_555
C6_4 C5_4 1_555 1_555
O3_4 C6_4 1_555 1_555
O4_4 C6_4 1_555 1_555
Sm5 O3_4 1_555 1_555
O4_4 Sm5 1_555 1_555
C46_5 C45_5 1_555 1_555
O35_4 C46_5 1_555 1_555
O41_4 C46_5 1_555 1_555
C26_5 C25_5 1_555 1_555
O33_3 C26_5 1_555 1_555
O39_3 C26_5 1_555 1_555
Sm1_5 O1_5 1_555 1_555
Sm4_2 O2_5 1_555 1_555
C1_5 C2_5 1_555 1_555
C2_5 C3_5 1_555 1_555
C3_5 H1_5 1_555 1_555
C4_5 C3_5 1_555 1_555
H2_5 C4_5 1_555 1_555
C8_5 C2_5 1_555 1_555
C9_5 C10_5 1_555 1_555
C10_5 H4_5 1_555 1_555
H5_5 C10_5 1_555 1_555
H6_5 C10_5 1_555 1_555
N1_5 C8_5 1_555 1_555
H7_5 N1_5 1_555 1_555
O1_5 C1_5 1_555 1_555
O2_5 Sm1_5 1_555 1_555
O5_5 C9_5 1_555 1_555
C11_5 C12_5 1_555 1_555
C12_5 C13_5 1_555 1_555
C13_5 H8_5 1_555 1_555
C14_5 C13_5 1_555 1_555
H9_5 C14_5 1_555 1_555
C15_5 C14_5 1_555 1_555
C16_5 C15_5 1_555 1_555
C17_5 C15_5 1_555 1_555
H10_5 C17_5 1_555 1_555
C18_5 C12_5 1_555 1_555
C19_5 C20_5 1_555 1_555
C20_5 H11_5 1_555 1_555
H12_5 C20_5 1_555 1_555
H13_5 C20_5 1_555 1_555
N2_5 C18_5 1_555 1_555
H14_5 N2_5 1_555 1_555
O6_5 Sm1_5 1_555 1_555
O7_5 Sm1_5 1_555 1_555
O32_4 C16_5 1_555 1_555
O38_4 C16_5 1_555 1_555
O10_5 C19_5 1_555 1_555
C21_5 C22_5 1_555 1_555
C22_5 C23_5 1_555 1_555
C23_5 H15_5 1_555 1_555
C24_5 C23_5 1_555 1_555
H16_5 C24_5 1_555 1_555
C28_5 C22_5 1_555 1_555
C29_5 C30_5 1_555 1_555
C30_5 H18_5 1_555 1_555
H19_5 C30_5 1_555 1_555
H20_5 C30_5 1_555 1_555
N3_5 C28_5 1_555 1_555
H21_5 N3_5 1_555 1_555
O11_5 Sm1_5 1_555 1_555
O12_5 Sm1_5 1_555 1_555
O15_5 C29_5 1_555 1_555
Sm7_2 O17_5 1_555 1_555
C31_5 C32_5 1_555 1_555
C32_5 C33_5 1_555 1_555
C33_5 H22_5 1_555 1_555
C34_5 C33_5 1_555 1_555
H23_5 C34_5 1_555 1_555
C35_5 C34_5 1_555 1_555
C36_5 C35_5 1_555 1_555
C37_5 C35_5 1_555 1_555
H24_5 C37_5 1_555 1_555
C38_5 C32_5 1_555 1_555
C39_5 C40_5 1_555 1_555
C40_5 H25_5 1_555 1_555
H26_5 C40_5 1_555 1_555
H27_5 C40_5 1_555 1_555
N4_5 C38_5 1_555 1_555
H28_5 N4_5 1_555 1_555
O16_5 Sm1_5 1_555 1_555
O17_5 Sm1_5 1_555 1_555
O34_2 C36_5 1_555 1_555
O40_2 C36_5 1_555 1_555
O20_5 C39_5 1_555 1_555
C41_5 C42_5 1_555 1_555
C42_5 C43_5 1_555 1_555
C43_5 H29_5 1_555 1_555
C44_5 C43_5 1_555 1_555
H30_5 C44_5 1_555 1_555
C48_5 C42_5 1_555 1_555
C49_5 C50_5 1_555 1_555
C50_5 H32_5 1_555 1_555
H33_5 C50_5 1_555 1_555
H34_5 C50_5 1_555 1_555
N5_5 C48_5 1_555 1_555
H35_5 N5_5 1_555 1_555
O21_5 Sm1_5 1_555 1_555
O22_5 Sm1_5 1_555 1_555
O25_5 C49_5 1_555 1_555
C51_5 C52_5 1_555 1_555
C52_5 C53_5 1_555 1_555
C53_5 H36_5 1_555 1_555
C54_5 C53_5 1_555 1_555
H37_5 C54_5 1_555 1_555
C55_5 C54_5 1_555 1_555
C56_5 C55_5 1_555 1_555
C57_5 C55_5 1_555 1_555
H38_5 C57_5 1_555 1_555
C58_5 C52_5 1_555 1_555
C59_5 C60_5 1_555 1_555
C60_5 H39_5 1_555 1_555
H40_5 C60_5 1_555 1_555
H41_5 C60_5 1_555 1_555
N6_5 C58_5 1_555 1_555
H42_5 N6_5 1_555 1_555
O26_5 Sm1_5 1_555 1_555
O27_5 Sm1_5 1_555 1_555
O36_3 C56_5 1_555 1_555
O42_3 C56_5 1_555 1_555
O30_5 C59_5 1_555 1_555
Sm4_2 O7_5 1_555 1_555
Sm4_2 O12_5 1_555 1_555
C1_5 O2_5 1_555 1_555
C7_5 C8_5 1_555 1_555
C9_5 N1_5 1_555 1_555
C11_5 O6_5 1_555 1_555
C11_5 O7_5 1_555 1_555
C17_5 C18_5 1_555 1_555
C19_5 N2_5 1_555 1_555
C21_5 O11_5 1_555 1_555
C21_5 O12_5 1_555 1_555
C27_5 C28_5 1_555 1_555
C29_5 N3_5 1_555 1_555
Sm7_2 O22_5 1_555 1_555
Sm7_2 O27_5 1_555 1_555
C31_5 O16_5 1_555 1_555
C31_5 O17_5 1_555 1_555
C37_5 C38_5 1_555 1_555
C39_5 N4_5 1_555 1_555
C41_5 O21_5 1_555 1_555
C41_5 O22_5 1_555 1_555
C47_5 C48_5 1_555 1_555
C49_5 N5_5 1_555 1_555
C51_5 O26_5 1_555 1_555
C51_5 O27_5 1_555 1_555
C57_5 C58_5 1_555 1_555
C59_5 N6_5 1_555 1_555
C6_5 C5_5 1_555 1_555
O31_2 C6_5 1_555 1_555
O37_2 C6_5 1_555 1_555
Sm1_6 O1_6 1_555 1_555
Sm4 O2_6 1_555 1_555
C1_6 C2_6 1_555 1_555
C2_6 C3_6 1_555 1_555
C3_6 H1_6 1_555 1_555
C4_6 C3_6 1_555 1_555
H2_6 C4_6 1_555 1_555
C5_6 C4_6 1_555 1_555
C6_6 C5_6 1_555 1_555
C7_6 C5_6 1_555 1_555
H3_6 C7_6 1_555 1_555
C8_6 C2_6 1_555 1_555
C9_6 C10_6 1_555 1_555
C10_6 H4_6 1_555 1_555
H5_6 C10_6 1_555 1_555
H6_6 C10_6 1_555 1_555
N1_6 C8_6 1_555 1_555
H7_6 N1_6 1_555 1_555
O1_6 C1_6 1_555 1_555
O2_6 Sm1_6 1_555 1_555
O31 C6_6 1_555 1_555
O37 C6_6 1_555 1_555
O5_6 C9_6 1_555 1_555
C11_6 C12_6 1_555 1_555
C12_6 C13_6 1_555 1_555
C13_6 H8_6 1_555 1_555
C14_6 C13_6 1_555 1_555
H9_6 C14_6 1_555 1_555
C15_6 C14_6 1_555 1_555
C16_6 C15_6 1_555 1_555
C17_6 C15_6 1_555 1_555
H10_6 C17_6 1_555 1_555
C18_6 C12_6 1_555 1_555
C19_6 C20_6 1_555 1_555
C20_6 H11_6 1_555 1_555
H12_6 C20_6 1_555 1_555
H13_6 C20_6 1_555 1_555
N2_6 C18_6 1_555 1_555
H14_6 N2_6 1_555 1_555
O6_6 Sm1_6 1_555 1_555
O7_6 Sm1_6 1_555 1_555
O32_3 C16_6 1_555 1_555
O38_3 C16_6 1_555 1_555
O10_6 C19_6 1_555 1_555
C21_6 C22_6 1_555 1_555
C22_6 C23_6 1_555 1_555
C23_6 H15_6 1_555 1_555
C24_6 C23_6 1_555 1_555
H16_6 C24_6 1_555 1_555
C25_6 C24_6 1_555 1_555
C26_6 C25_6 1_555 1_555
C27_6 C25_6 1_555 1_555
H17_6 C27_6 1_555 1_555
C28_6 C22_6 1_555 1_555
C29_6 C30_6 1_555 1_555
C30_6 H18_6 1_555 1_555
H19_6 C30_6 1_555 1_555
H20_6 C30_6 1_555 1_555
N3_6 C28_6 1_555 1_555
H21_6 N3_6 1_555 1_555
O11_6 Sm1_6 1_555 1_555
O12_6 Sm1_6 1_555 1_555
O33_4 C26_6 1_555 1_555
O39_4 C26_6 1_555 1_555
O15_6 C29_6 1_555 1_555
Sm7 O17_6 1_555 1_555
C31_6 C32_6 1_555 1_555
C32_6 C33_6 1_555 1_555
C33_6 H22_6 1_555 1_555
C34_6 C33_6 1_555 1_555
H23_6 C34_6 1_555 1_555
C38_6 C32_6 1_555 1_555
C39_6 C40_6 1_555 1_555
C40_6 H25_6 1_555 1_555
H26_6 C40_6 1_555 1_555
H27_6 C40_6 1_555 1_555
N4_6 C38_6 1_555 1_555
H28_6 N4_6 1_555 1_555
O16_6 Sm1_6 1_555 1_555
O17_6 Sm1_6 1_555 1_555
O20_6 C39_6 1_555 1_555
C41_6 C42_6 1_555 1_555
C42_6 C43_6 1_555 1_555
C43_6 H29_6 1_555 1_555
C44_6 C43_6 1_555 1_555
H30_6 C44_6 1_555 1_555
C48_6 C42_6 1_555 1_555
C49_6 C50_6 1_555 1_555
C50_6 H32_6 1_555 1_555
H33_6 C50_6 1_555 1_555
H34_6 C50_6 1_555 1_555
N5_6 C48_6 1_555 1_555
H35_6 N5_6 1_555 1_555
O21_6 Sm1_6 1_555 1_555
O22_6 Sm1_6 1_555 1_555
O25_6 C49_6 1_555 1_555
C51_6 C52_6 1_555 1_555
C52_6 C53_6 1_555 1_555
C53_6 H36_6 1_555 1_555
C54_6 C53_6 1_555 1_555
H37_6 C54_6 1_555 1_555
C58_6 C52_6 1_555 1_555
C59_6 C60_6 1_555 1_555
C60_6 H39_6 1_555 1_555
H40_6 C60_6 1_555 1_555
H41_6 C60_6 1_555 1_555
N6_6 C58_6 1_555 1_555
H42_6 N6_6 1_555 1_555
O26_6 Sm1_6 1_555 1_555
O27_6 Sm1_6 1_555 1_555
O30_6 C59_6 1_555 1_555
Sm4 O7_6 1_555 1_555
Sm4 O12_6 1_555 1_555
C1_6 O2_6 1_555 1_555
C7_6 C8_6 1_555 1_555
C9_6 N1_6 1_555 1_555
C11_6 O6_6 1_555 1_555
C11_6 O7_6 1_555 1_555
C17_6 C18_6 1_555 1_555
C19_6 N2_6 1_555 1_555
C21_6 O11_6 1_555 1_555
C21_6 O12_6 1_555 1_555
C27_6 C28_6 1_555 1_555
C29_6 N3_6 1_555 1_555
Sm7 O22_6 1_555 1_555
Sm7 O27_6 1_555 1_555
C31_6 O16_6 1_555 1_555
C31_6 O17_6 1_555 1_555
C37_6 C38_6 1_555 1_555
C39_6 N4_6 1_555 1_555
C41_6 O21_6 1_555 1_555
C41_6 O22_6 1_555 1_555
C47_6 C48_6 1_555 1_555
C49_6 N5_6 1_555 1_555
C51_6 O26_6 1_555 1_555
C51_6 O27_6 1_555 1_555
C57_6 C58_6 1_555 1_555
C59_6 N6_6 1_555 1_555
C56_6 C55_6 1_555 1_555
O36_4 C56_6 1_555 1_555
O42_4 C56_6 1_555 1_555
C46_6 C45_6 1_555 1_555
O35_3 C46_6 1_555 1_555
O41_3 C46_6 1_555 1_555
C36_6 C35_6 1_555 1_555
O34 C36_6 1_555 1_555
O40 C36_6 1_555 1_555
C6_7 C5_7 1_555 1_555
O31_4 C6_7 1_555 1_555
O37_4 C6_7 1_555 1_555
C56_7 C55_7 1_555 1_555
O36 C56_7 1_555 1_555
O42 C56_7 1_555 1_555
Sm1_7 O1_7 1_555 1_555
Sm5 O2_7 1_555 1_555
C1_7 C2_7 1_555 1_555
C2_7 C3_7 1_555 1_555
C3_7 H1_7 1_555 1_555
C4_7 C3_7 1_555 1_555
H2_7 C4_7 1_555 1_555
C8_7 C2_7 1_555 1_555
C9_7 C10_7 1_555 1_555
C10_7 H4_7 1_555 1_555
H5_7 C10_7 1_555 1_555
H6_7 C10_7 1_555 1_555
N1_7 C8_7 1_555 1_555
H7_7 N1_7 1_555 1_555
O1_7 C1_7 1_555 1_555
O2_7 Sm1_7 1_555 1_555
O5_7 C9_7 1_555 1_555
C11_7 C12_7 1_555 1_555
C12_7 C13_7 1_555 1_555
C13_7 H8_7 1_555 1_555
C14_7 C13_7 1_555 1_555
H9_7 C14_7 1_555 1_555
C18_7 C12_7 1_555 1_555
C19_7 C20_7 1_555 1_555
C20_7 H11_7 1_555 1_555
H12_7 C20_7 1_555 1_555
H13_7 C20_7 1_555 1_555
N2_7 C18_7 1_555 1_555
H14_7 N2_7 1_555 1_555
O6_7 Sm1_7 1_555 1_555
O7_7 Sm1_7 1_555 1_555
O10_7 C19_7 1_555 1_555
C21_7 C22_7 1_555 1_555
C22_7 C23_7 1_555 1_555
C23_7 H15_7 1_555 1_555
C24_7 C23_7 1_555 1_555
H16_7 C24_7 1_555 1_555
C25_7 C24_7 1_555 1_555
C26_7 C25_7 1_555 1_555
C27_7 C25_7 1_555 1_555
H17_7 C27_7 1_555 1_555
C28_7 C22_7 1_555 1_555
C29_7 C30_7 1_555 1_555
C30_7 H18_7 1_555 1_555
H19_7 C30_7 1_555 1_555
H20_7 C30_7 1_555 1_555
N3_7 C28_7 1_555 1_555
H21_7 N3_7 1_555 1_555
O11_7 Sm1_7 1_555 1_555
O12_7 Sm1_7 1_555 1_555
O33 C26_7 1_555 1_555
O39 C26_7 1_555 1_555
O15_7 C29_7 1_555 1_555
Sm8 O17_7 1_555 1_555
C31_7 C32_7 1_555 1_555
C32_7 C33_7 1_555 1_555
C33_7 H22_7 1_555 1_555
C34_7 C33_7 1_555 1_555
H23_7 C34_7 1_555 1_555
C35_7 C34_7 1_555 1_555
C36_7 C35_7 1_555 1_555
C37_7 C35_7 1_555 1_555
H24_7 C37_7 1_555 1_555
C38_7 C32_7 1_555 1_555
C39_7 C40_7 1_555 1_555
C40_7 H25_7 1_555 1_555
H26_7 C40_7 1_555 1_555
H27_7 C40_7 1_555 1_555
N4_7 C38_7 1_555 1_555
H28_7 N4_7 1_555 1_555
O16_7 Sm1_7 1_555 1_555
O17_7 Sm1_7 1_555 1_555
O34_4 C36_7 1_555 1_555
O40_4 C36_7 1_555 1_555
O20_7 C39_7 1_555 1_555
C41_7 C42_7 1_555 1_555
C42_7 C43_7 1_555 1_555
C43_7 H29_7 1_555 1_555
C44_7 C43_7 1_555 1_555
H30_7 C44_7 1_555 1_555
C45_7 C44_7 1_555 1_555
C46_7 C45_7 1_555 1_555
C47_7 C45_7 1_555 1_555
H31_7 C47_7 1_555 1_555
C48_7 C42_7 1_555 1_555
C49_7 C50_7 1_555 1_555
C50_7 H32_7 1_555 1_555
H33_7 C50_7 1_555 1_555
H34_7 C50_7 1_555 1_555
N5_7 C48_7 1_555 1_555
H35_7 N5_7 1_555 1_555
O21_7 Sm1_7 1_555 1_555
O22_7 Sm1_7 1_555 1_555
O35_2 C46_7 1_555 1_555
O41_2 C46_7 1_555 1_555
O25_7 C49_7 1_555 1_555
C51_7 C52_7 1_555 1_555
C52_7 C53_7 1_555 1_555
C53_7 H36_7 1_555 1_555
C54_7 C53_7 1_555 1_555
H37_7 C54_7 1_555 1_555
C58_7 C52_7 1_555 1_555
C59_7 C60_7 1_555 1_555
C60_7 H39_7 1_555 1_555
H40_7 C60_7 1_555 1_555
H41_7 C60_7 1_555 1_555
N6_7 C58_7 1_555 1_555
H42_7 N6_7 1_555 1_555
O26_7 Sm1_7 1_555 1_555
O27_7 Sm1_7 1_555 1_555
O30_7 C59_7 1_555 1_555
Sm5 O7_7 1_555 1_555
Sm5 O12_7 1_555 1_555
C1_7 O2_7 1_555 1_555
C7_7 C8_7 1_555 1_555
C9_7 N1_7 1_555 1_555
C11_7 O6_7 1_555 1_555
C11_7 O7_7 1_555 1_555
C17_7 C18_7 1_555 1_555
C19_7 N2_7 1_555 1_555
C21_7 O11_7 1_555 1_555
C21_7 O12_7 1_555 1_555
C27_7 C28_7 1_555 1_555
C29_7 N3_7 1_555 1_555
Sm8 O22_7 1_555 1_555
Sm8 O27_7 1_555 1_555
C31_7 O16_7 1_555 1_555
C31_7 O17_7 1_555 1_555
C37_7 C38_7 1_555 1_555
C39_7 N4_7 1_555 1_555
C41_7 O21_7 1_555 1_555
C41_7 O22_7 1_555 1_555
C47_7 C48_7 1_555 1_555
C49_7 N5_7 1_555 1_555
C51_7 O26_7 1_555 1_555
C51_7 O27_7 1_555 1_555
C57_7 C58_7 1_555 1_555
C59_7 N6_7 1_555 1_555
C16_7 C15_7 1_555 1_555
O32_2 C16_7 1_555 1_555
O38_2 C16_7 1_555 1_555
C36_8 C35_8 1_555 1_555
O34_3 C36_8 1_555 1_555
O40_3 C36_8 1_555 1_555
C16_8 C15_8 1_555 1_555
O32 C16_8 1_555 1_555
O38 C16_8 1_555 1_555
Sm1_8 O1_8 1_555 1_555
Sm6 O2_8 1_555 1_555
C1_8 C2_8 1_555 1_555
C2_8 C3_8 1_555 1_555
C3_8 H1_8 1_555 1_555
C4_8 C3_8 1_555 1_555
H2_8 C4_8 1_555 1_555
C5_8 C4_8 1_555 1_555
C6_8 C5_8 1_555 1_555
C7_8 C5_8 1_555 1_555
H3_8 C7_8 1_555 1_555
C8_8 C2_8 1_555 1_555
C9_8 C10_8 1_555 1_555
C10_8 H4_8 1_555 1_555
H5_8 C10_8 1_555 1_555
H6_8 C10_8 1_555 1_555
N1_8 C8_8 1_555 1_555
H7_8 N1_8 1_555 1_555
O1_8 C1_8 1_555 1_555
O2_8 Sm1_8 1_555 1_555
O31_3 C6_8 1_555 1_555
O37_3 C6_8 1_555 1_555
O5_8 C9_8 1_555 1_555
C11_8 C12_8 1_555 1_555
C12_8 C13_8 1_555 1_555
C13_8 H8_8 1_555 1_555
C14_8 C13_8 1_555 1_555
H9_8 C14_8 1_555 1_555
C18_8 C12_8 1_555 1_555
C19_8 C20_8 1_555 1_555
C20_8 H11_8 1_555 1_555
H12_8 C20_8 1_555 1_555
H13_8 C20_8 1_555 1_555
N2_8 C18_8 1_555 1_555
H14_8 N2_8 1_555 1_555
O6_8 Sm1_8 1_555 1_555
O7_8 Sm1_8 1_555 1_555
O10_8 C19_8 1_555 1_555
C21_8 C22_8 1_555 1_555
C22_8 C23_8 1_555 1_555
C23_8 H15_8 1_555 1_555
C24_8 C23_8 1_555 1_555
H16_8 C24_8 1_555 1_555
C28_8 C22_8 1_555 1_555
C29_8 C30_8 1_555 1_555
C30_8 H18_8 1_555 1_555
H19_8 C30_8 1_555 1_555
H20_8 C30_8 1_555 1_555
N3_8 C28_8 1_555 1_555
H21_8 N3_8 1_555 1_555
O11_8 Sm1_8 1_555 1_555
O12_8 Sm1_8 1_555 1_555
O15_8 C29_8 1_555 1_555
Sm9 O17_8 1_555 1_555
C31_8 C32_8 1_555 1_555
C32_8 C33_8 1_555 1_555
C33_8 H22_8 1_555 1_555
C34_8 C33_8 1_555 1_555
H23_8 C34_8 1_555 1_555
C38_8 C32_8 1_555 1_555
C39_8 C40_8 1_555 1_555
C40_8 H25_8 1_555 1_555
H26_8 C40_8 1_555 1_555
H27_8 C40_8 1_555 1_555
N4_8 C38_8 1_555 1_555
H28_8 N4_8 1_555 1_555
O16_8 Sm1_8 1_555 1_555
O17_8 Sm1_8 1_555 1_555
O20_8 C39_8 1_555 1_555
C41_8 C42_8 1_555 1_555
C42_8 C43_8 1_555 1_555
C43_8 H29_8 1_555 1_555
C44_8 C43_8 1_555 1_555
H30_8 C44_8 1_555 1_555
C45_8 C44_8 1_555 1_555
C46_8 C45_8 1_555 1_555
C47_8 C45_8 1_555 1_555
H31_8 C47_8 1_555 1_555
C48_8 C42_8 1_555 1_555
C49_8 C50_8 1_555 1_555
C50_8 H32_8 1_555 1_555
H33_8 C50_8 1_555 1_555
H34_8 C50_8 1_555 1_555
N5_8 C48_8 1_555 1_555
H35_8 N5_8 1_555 1_555
O21_8 Sm1_8 1_555 1_555
O22_8 Sm1_8 1_555 1_555
O35 C46_8 1_555 1_555
O41 C46_8 1_555 1_555
O25_8 C49_8 1_555 1_555
C51_8 C52_8 1_555 1_555
C52_8 C53_8 1_555 1_555
C53_8 H36_8 1_555 1_555
C54_8 C53_8 1_555 1_555
H37_8 C54_8 1_555 1_555
C55_8 C54_8 1_555 1_555
C56_8 C55_8 1_555 1_555
C57_8 C55_8 1_555 1_555
H38_8 C57_8 1_555 1_555
C58_8 C52_8 1_555 1_555
C59_8 C60_8 1_555 1_555
C60_8 H39_8 1_555 1_555
H40_8 C60_8 1_555 1_555
H41_8 C60_8 1_555 1_555
N6_8 C58_8 1_555 1_555
H42_8 N6_8 1_555 1_555
O26_8 Sm1_8 1_555 1_555
O27_8 Sm1_8 1_555 1_555
O36_2 C56_8 1_555 1_555
O42_2 C56_8 1_555 1_555
O30_8 C59_8 1_555 1_555
Sm6 O7_8 1_555 1_555
Sm6 O12_8 1_555 1_555
C1_8 O2_8 1_555 1_555
C7_8 C8_8 1_555 1_555
C9_8 N1_8 1_555 1_555
C11_8 O6_8 1_555 1_555
C11_8 O7_8 1_555 1_555
C17_8 C18_8 1_555 1_555
C19_8 N2_8 1_555 1_555
C21_8 O11_8 1_555 1_555
C21_8 O12_8 1_555 1_555
C27_8 C28_8 1_555 1_555
C29_8 N3_8 1_555 1_555
Sm9 O22_8 1_555 1_555
Sm9 O27_8 1_555 1_555
C31_8 O16_8 1_555 1_555
C31_8 O17_8 1_555 1_555
C37_8 C38_8 1_555 1_555
C39_8 N4_8 1_555 1_555
C41_8 O21_8 1_555 1_555
C41_8 O22_8 1_555 1_555
C47_8 C48_8 1_555 1_555
C49_8 N5_8 1_555 1_555
C51_8 O26_8 1_555 1_555
C51_8 O27_8 1_555 1_555
C57_8 C58_8 1_555 1_555
C59_8 N6_8 1_555 1_555
C26_8 C25_8 1_555 1_555
O33_2 C26_8 1_555 1_555
O39_2 C26_8 1_555 1_555

#END
