
###############################################################################
#
# This file contains modified crystal structure data generated from the
# MOF subset of the Cambridge Structural Database (CSD) v543 
# hosted by the Cambridge Crystallographic Data Centre (CCDC).
#
# This work is licensed under the Creative Commons
# Attribution-NonCommercial-ShareAlike 4.0 International License.
# To view a copy of this license, visit
# http://creativecommons.org/licenses/by-nc-sa/4.0/
# or send a letter to
# Creative Commons, PO Box 1866, Mountain View, CA 94042, USA.
#
# CIF created using the CSD Python API on 29 September 2022
# The structure has been converted into the P1 space group
# The structure has a 3D framework
# The original CSD entry SAQQIL is in the monoclinic crystal system
# The framework has been calculated to contain at least 10.0% void space
# The void calculation uses a probe of radius 1.32A, grid spacing 0.4
# H atom positions have been added when not included in the experimental data
# Generated hydrogen atom positions removed from atoms on special positions
#
###############################################################################

data_SAQQIL
_chemical_formula_moiety         '(C168 H128 Er8 O54)n'
_symmetry_cell_setting           triclinic
_symmetry_space_group_name_H-M   'P 1'
_symmetry_Int_Tables_number      1
_space_group_name_Hall           'P 1'
loop_
_symmetry_equiv_pos_site_id
_symmetry_equiv_pos_as_xyz
1 x,y,z
_cell_length_a                   25.1508(11)
_cell_length_b                   17.0903(11)
_cell_length_c                   18.5354(10)
_cell_angle_alpha                90
_cell_angle_beta                 106.6730(10)
_cell_angle_gamma                90
_cell_volume                     7632.2
loop_
_atom_site_label
_atom_site_type_symbol
_atom_site_fract_x
_atom_site_fract_y
_atom_site_fract_z
O1 O 0.0618(2) 0.1046(4) 0.0604(3)
C3 C 0.1499(4) 0.2030(7) 0.0544(6)
H1 H 0.1341 0.2116 0.0933
C4 C 0.1977(4) 0.2438(7) 0.0541(6)
H2 H 0.2122 0.2808 0.0913
Er8 Er 0.497210(11) 0.540640(18) 0.104550(17)
O13 O 0.4516(2) 0.4275(3) 0.0596(3)
O19 O 0.0521(2) 0.0694(4) 0.2190(3)
C24 C 0.4255(3) 0.3945(4) 0.0003(4)
C27 C 0.3745(3) 0.3495(5) 0.0012(5)
C36 C 0.2761(4) 0.2701(6) 0.0007(5)
C39 C 0.3013(4) 0.3222(8) 0.0575(6)
H21 H 0.2852 0.3319 0.0959
C42 C 0.3505(4) 0.3603(8) 0.0581(6)
H24 H 0.3672 0.3936 0.0978
C1 C 0.0745(3) 0.1055(4) 0.9997(4)
C2 C 0.1255(3) 0.1505(5) 0.9988(5)
C5 C 0.2239(4) 0.2299(6) 0.9993(5)
C6 C 0.1987(4) 0.1778(8) 0.9425(6)
H3 H 0.2148 0.1681 0.9041
C7 C 0.1495(4) 0.1397(8) 0.9419(6)
H4 H 0.1328 0.1064 0.9022
Er7 Er 0.502790(11) 0.459360(18) 0.895450(17)
O10 O 0.4382(2) 0.3954(4) 0.9396(3)
O11 O 0.0484(2) 0.0725(3) 0.9404(3)
C30 C 0.3501(4) 0.2970(7) 0.9456(6)
H15 H 0.3659 0.2884 0.9067
C33 C 0.3023(4) 0.2562(7) 0.9459(6)
H18 H 0.2878 0.2192 0.9087
O14 O 0.0581(2) 0.9290(4) 0.0108(3)
O15 O 0.0656(2) 0.9442(3) 0.1314(3)
Er2 Er 0.002790(11) 0.959360(18) 0.895450(17)
O16 O 0.07088(18) 0.9712(3) 0.8379(3)
O20 O 0.0260(3) 0.8268(4) 0.8808(4)
Er1 Er 0.997210(11) 0.040640(18) 0.104550(17)
O7 O 0.9740(3) 0.1732(4) 0.1192(4)
H5 H 0.8685 0.1614 0.0050
O17 O 0.92912(18) 0.0288(3) 0.1621(3)
O3 O 0.9419(2) 0.0710(4) 0.9892(3)
O4 O 0.9344(2) 0.0558(3) 0.8686(3)
O5 O 0.57088(18) 0.4712(3) 0.8379(3)
O6 O 0.5521(2) 0.4306(4) 0.7190(3)
C8 C 0.9205(3) 0.0875(5) 0.9208(5)
C9 C 0.8740(3) 0.1443(5) 0.9003(5)
C10 C 0.8530(4) 0.1752(8) 0.9548(5)
C11 C 0.8081(4) 0.2275(7) 0.9348(5)
H6 H 0.7949 0.2490 0.9724
C12 C 0.7831(3) 0.2478(6) 0.8603(5)
C13 C 0.8056(4) 0.2172(8) 0.8075(5)
H7 H 0.7903 0.2309 0.7572
C14 C 0.8505(4) 0.1667(7) 0.8263(5)
H8 H 0.8650 0.1476 0.7889
C15 C 0.5826(3) 0.4340(4) 0.7851(4)
C16 C 0.6361(3) 0.3898(5) 0.8032(4)
C17 C 0.6766(3) 0.4002(6) 0.8723(5)
H9 H 0.6710 0.4369 0.9064
C18 C 0.7247(4) 0.3562(6) 0.8902(5)
H10 H 0.7513 0.3643 0.9362
C19 C 0.7341(3) 0.3004(6) 0.8410(5)
C20 C 0.6942(4) 0.2910(7) 0.7699(5)
H11 H 0.6999 0.2549 0.7353
C21 C 0.6461(4) 0.3367(7) 0.7523(5)
H12 H 0.6202 0.3312 0.7053
Er6 Er 0.497210(11) 0.459360(18) 0.604550(17)
O2 O 0.9516(2) 0.9275(3) 0.0596(3)
O9 O 0.5618(2) 0.6046(4) 0.0604(3)
C22 C 0.9255(3) 0.8945(4) 0.0003(4)
C25 C 0.8745(3) 0.8495(5) 0.0012(5)
C29 C 0.6499(4) 0.7030(7) 0.0544(6)
H14 H 0.6341 0.7116 0.0933
C32 C 0.6977(4) 0.7438(7) 0.0541(6)
H17 H 0.7122 0.7808 0.0913
C34 C 0.7761(4) 0.7701(6) 0.0007(5)
C38 C 0.8013(4) 0.8222(8) 0.0575(6)
H20 H 0.7852 0.8319 0.0959
C41 C 0.8505(4) 0.8603(8) 0.0581(6)
H23 H 0.8672 0.8936 0.0978
O8 O 0.9382(2) 0.8954(4) 0.9396(3)
O12 O 0.5484(2) 0.5725(3) 0.9404(3)
O18 O 0.9479(2) 0.9306(4) 0.7810(3)
C23 C 0.5745(3) 0.6055(4) 0.9997(4)
C26 C 0.6255(3) 0.6505(5) 0.9988(5)
C28 C 0.8501(4) 0.7970(7) 0.9456(6)
H13 H 0.8659 0.7884 0.9067
C31 C 0.8023(4) 0.7562(7) 0.9459(6)
H16 H 0.7878 0.7192 0.9087
C35 C 0.7239(4) 0.7299(6) 0.9993(5)
C37 C 0.6987(4) 0.6778(8) 0.9425(6)
H19 H 0.7148 0.6681 0.9041
C40 C 0.6495(4) 0.6397(8) 0.9419(6)
H22 H 0.6328 0.6064 0.9022
O7_2 O 0.4740(3) 0.6732(4) 0.1192(4)
H5_2 H 0.3685 0.6614 0.0050
O14_2 O 0.5581(2) 0.4290(4) 0.0108(3)
O15_2 O 0.5656(2) 0.4442(3) 0.1314(3)
O17_2 O 0.42912(18) 0.5288(3) 0.1621(3)
O19_2 O 0.5521(2) 0.5694(4) 0.2190(3)
O3_2 O 0.4419(2) 0.5710(4) 0.9892(3)
O4_2 O 0.4344(2) 0.5558(3) 0.8686(3)
O6_2 O 0.0521(2) 0.9306(4) 0.7190(3)
C8_2 C 0.4205(3) 0.5875(5) 0.9208(5)
C9_2 C 0.3740(3) 0.6443(5) 0.9003(5)
C10_2 C 0.3530(4) 0.6752(8) 0.9548(5)
C11_2 C 0.3081(4) 0.7275(7) 0.9348(5)
H6_2 H 0.2949 0.7490 0.9724
C12_2 C 0.2831(3) 0.7478(6) 0.8603(5)
C13_2 C 0.3056(4) 0.7172(8) 0.8075(5)
H7_2 H 0.2903 0.7309 0.7572
C14_2 C 0.3505(4) 0.6667(7) 0.8263(5)
H8_2 H 0.3650 0.6476 0.7889
C15_2 C 0.0826(3) 0.9340(4) 0.7851(4)
C16_2 C 0.1361(3) 0.8898(5) 0.8032(4)
C17_2 C 0.1766(3) 0.9002(6) 0.8723(5)
H9_2 H 0.1710 0.9369 0.9064
C18_2 C 0.2247(4) 0.8562(6) 0.8902(5)
H10_2 H 0.2513 0.8643 0.9362
C19_2 C 0.2341(3) 0.8004(6) 0.8410(5)
C20_2 C 0.1942(4) 0.7910(7) 0.7699(5)
H11_2 H 0.1999 0.7549 0.7353
C21_2 C 0.1461(4) 0.8367(7) 0.7523(5)
H12_2 H 0.1202 0.8312 0.7053
O18_2 O 0.4479(2) 0.4306(4) 0.7810(3)
O20_2 O 0.5260(3) 0.3268(4) 0.8808(4)
Er6_2 Er 0.997210(11) 0.959360(18) 0.604550(17)
Er1_2 Er 0.002790(11) 0.040640(18) 0.395450(17)
O3_3 O 0.0581(2) 0.0710(4) 0.5108(3)
O4_3 O 0.0656(2) 0.0558(3) 0.6314(3)
O5_2 O 0.42912(18) 0.4712(3) 0.6621(3)
O7_3 O 0.0260(3) 0.1732(4) 0.3808(4)
C8_3 C 0.0795(3) 0.0875(5) 0.5792(5)
C9_3 C 0.1260(3) 0.1443(5) 0.5997(5)
C10_3 C 0.1470(4) 0.1752(8) 0.5452(5)
H5_3 H 0.1315 0.1614 0.4950
C11_3 C 0.1919(4) 0.2275(7) 0.5652(5)
H6_3 H 0.2051 0.2490 0.5276
C12_3 C 0.2169(3) 0.2478(6) 0.6397(5)
C13_3 C 0.1944(4) 0.2172(8) 0.6925(5)
H7_3 H 0.2097 0.2309 0.7428
C14_3 C 0.1495(4) 0.1667(7) 0.6737(5)
H8_3 H 0.1350 0.1476 0.7111
C15_3 C 0.4174(3) 0.4340(4) 0.7149(4)
C16_3 C 0.3639(3) 0.3898(5) 0.6968(4)
C17_3 C 0.3234(3) 0.4002(6) 0.6277(5)
H9_3 H 0.3290 0.4369 0.5936
C18_3 C 0.2753(4) 0.3562(6) 0.6098(5)
H10_3 H 0.2487 0.3643 0.5638
C19_3 C 0.2659(3) 0.3004(6) 0.6590(5)
C20_3 C 0.3058(4) 0.2910(7) 0.7301(5)
H11_3 H 0.3001 0.2549 0.7647
C21_3 C 0.3539(4) 0.3367(7) 0.7477(5)
H12_3 H 0.3798 0.3312 0.7947
O17_3 O 0.07088(18) 0.0288(3) 0.3379(3)
O2_2 O 0.0484(2) 0.9275(3) 0.4404(3)
Er4 Er 0.502790(11) 0.540640(18) 0.395450(17)
O8_2 O 0.0618(2) 0.8954(4) 0.5604(3)
O9_2 O 0.4382(2) 0.6046(4) 0.4396(3)
O12_2 O 0.4516(2) 0.5725(3) 0.5596(3)
C22_2 C 0.0745(3) 0.8945(4) 0.4997(4)
C23_2 C 0.4255(3) 0.6055(4) 0.5003(4)
C25_2 C 0.1255(3) 0.8495(5) 0.4988(5)
C26_2 C 0.3745(3) 0.6505(5) 0.5012(5)
C28_2 C 0.1499(4) 0.7970(7) 0.5544(6)
C29_2 C 0.3501(4) 0.7030(7) 0.4456(6)
H13_2 H 0.1341 0.7884 0.5933
H14_2 H 0.3659 0.7116 0.4067
C31_2 C 0.1977(4) 0.7562(7) 0.5541(6)
C32_2 C 0.3023(4) 0.7438(7) 0.4459(6)
H16_2 H 0.2122 0.7192 0.5913
H17_2 H 0.2878 0.7808 0.4087
C34_2 C 0.2239(4) 0.7701(6) 0.4993(5)
C35_2 C 0.2761(4) 0.7299(6) 0.5007(5)
C37_2 C 0.3013(4) 0.6778(8) 0.5575(6)
C38_2 C 0.1987(4) 0.8222(8) 0.4425(6)
H19_2 H 0.2852 0.6681 0.5959
H20_2 H 0.2148 0.8319 0.4041
C40_2 C 0.3505(4) 0.6397(8) 0.5581(6)
C41_2 C 0.1495(4) 0.8603(8) 0.4419(6)
H22_2 H 0.3672 0.6064 0.5978
H23_2 H 0.1328 0.8936 0.4022
O1_2 O 0.9382(2) 0.1046(4) 0.4396(3)
C1_2 C 0.9255(3) 0.1055(4) 0.5003(4)
C2_2 C 0.8745(3) 0.1505(5) 0.5012(5)
C3_2 C 0.8501(4) 0.2030(7) 0.4456(6)
H1_2 H 0.8659 0.2116 0.4067
C4_2 C 0.8023(4) 0.2438(7) 0.4459(6)
H2_2 H 0.7878 0.2808 0.4087
C5_2 C 0.7761(4) 0.2299(6) 0.5007(5)
C6_2 C 0.8013(4) 0.1778(8) 0.5575(6)
H3_2 H 0.7852 0.1681 0.5959
C7_2 C 0.8505(4) 0.1397(8) 0.5581(6)
H4_2 H 0.8672 0.1064 0.5978
O10_2 O 0.5618(2) 0.3954(4) 0.5604(3)
O11_2 O 0.9516(2) 0.0725(3) 0.5596(3)
O13_2 O 0.5484(2) 0.4275(3) 0.4404(3)
O19_3 O 0.9479(2) 0.0694(4) 0.2810(3)
C24_2 C 0.5745(3) 0.3945(4) 0.4997(4)
C27_2 C 0.6255(3) 0.3495(5) 0.4988(5)
C30_2 C 0.6499(4) 0.2970(7) 0.5544(6)
H15_2 H 0.6341 0.2884 0.5933
C33_2 C 0.6977(4) 0.2562(7) 0.5541(6)
H18_2 H 0.7122 0.2192 0.5913
C36_2 C 0.7239(4) 0.2701(6) 0.4993(5)
C39_2 C 0.6987(4) 0.3222(8) 0.4425(6)
H21_2 H 0.7148 0.3319 0.4041
C42_2 C 0.6495(4) 0.3603(8) 0.4419(6)
H24_2 H 0.6328 0.3936 0.4022
O14_3 O 0.9419(2) 0.9290(4) 0.4892(3)
O15_3 O 0.9344(2) 0.9442(3) 0.3686(3)
O16_2 O 0.92912(18) 0.9712(3) 0.6621(3)
O20_3 O 0.9740(3) 0.8268(4) 0.6192(4)
O3_4 O 0.5581(2) 0.5710(4) 0.5108(3)
O4_4 O 0.5656(2) 0.5558(3) 0.6314(3)
O7_4 O 0.5260(3) 0.6732(4) 0.3808(4)
C8_4 C 0.5795(3) 0.5875(5) 0.5792(5)
C9_4 C 0.6260(3) 0.6443(5) 0.5997(5)
C10_4 C 0.6470(4) 0.6752(8) 0.5452(5)
H5_4 H 0.6315 0.6614 0.4950
C11_4 C 0.6919(4) 0.7275(7) 0.5652(5)
H6_4 H 0.7051 0.7490 0.5276
C12_4 C 0.7169(3) 0.7478(6) 0.6397(5)
C13_4 C 0.6944(4) 0.7172(8) 0.6925(5)
H7_4 H 0.7097 0.7309 0.7428
C14_4 C 0.6495(4) 0.6667(7) 0.6737(5)
H8_4 H 0.6350 0.6476 0.7111
C15_4 C 0.9174(3) 0.9340(4) 0.7149(4)
C16_4 C 0.8639(3) 0.8898(5) 0.6968(4)
C17_4 C 0.8234(3) 0.9002(6) 0.6277(5)
H9_4 H 0.8290 0.9369 0.5936
C18_4 C 0.7753(4) 0.8562(6) 0.6098(5)
H10_4 H 0.7487 0.8643 0.5638
C19_4 C 0.7659(3) 0.8004(6) 0.6590(5)
C20_4 C 0.8058(4) 0.7910(7) 0.7301(5)
H11_4 H 0.8001 0.7549 0.7647
C21_4 C 0.8539(4) 0.8367(7) 0.7477(5)
H12_4 H 0.8798 0.8312 0.7947
O14_4 O 0.4419(2) 0.4290(4) 0.4892(3)
O15_4 O 0.4344(2) 0.4442(3) 0.3686(3)
O17_4 O 0.57088(18) 0.5288(3) 0.3379(3)
O19_4 O 0.4479(2) 0.5694(4) 0.2810(3)
O20_4 O 0.4740(3) 0.3268(4) 0.6192(4)
C8_5 C 0.0795(3) 0.9125(5) 0.0792(5)
C9_5 C 0.1260(3) 0.8557(5) 0.0997(5)
C10_5 C 0.1470(4) 0.8248(8) 0.0452(5)
C11_5 C 0.1919(4) 0.7725(7) 0.0652(5)
H6_5 H 0.2051 0.7510 0.0276
C12_5 C 0.2169(3) 0.7522(6) 0.1397(5)
C13_5 C 0.1944(4) 0.7828(8) 0.1925(5)
H7_5 H 0.2097 0.7691 0.2428
C14_5 C 0.1495(4) 0.8333(7) 0.1737(5)
H8_5 H 0.1350 0.8524 0.2111
C15_5 C 0.4174(3) 0.5660(4) 0.2149(4)
C16_5 C 0.3639(3) 0.6102(5) 0.1968(4)
C17_5 C 0.3234(3) 0.5998(6) 0.1277(5)
H9_5 H 0.3290 0.5631 0.0936
C18_5 C 0.2753(4) 0.6438(6) 0.1098(5)
H10_5 H 0.2487 0.6357 0.0638
C19_5 C 0.2659(3) 0.6996(6) 0.1590(5)
C20_5 C 0.3058(4) 0.7090(7) 0.2301(5)
H11_5 H 0.3001 0.7451 0.2647
C21_5 C 0.3539(4) 0.6633(7) 0.2477(5)
H12_5 H 0.3798 0.6688 0.2947
H5_5 H 0.1315 0.8386 0.9950
C8_6 C 0.5795(3) 0.4125(5) 0.0792(5)
C9_6 C 0.6260(3) 0.3557(5) 0.0997(5)
C10_6 C 0.6470(4) 0.3248(8) 0.0452(5)
C11_6 C 0.6919(4) 0.2725(7) 0.0652(5)
H6_6 H 0.7051 0.2510 0.0276
C12_6 C 0.7169(3) 0.2522(6) 0.1397(5)
C13_6 C 0.6944(4) 0.2828(8) 0.1925(5)
H7_6 H 0.7097 0.2691 0.2428
C14_6 C 0.6495(4) 0.3333(7) 0.1737(5)
H8_6 H 0.6350 0.3524 0.2111
C15_6 C 0.9174(3) 0.0660(4) 0.2149(4)
C16_6 C 0.8639(3) 0.1102(5) 0.1968(4)
C17_6 C 0.8234(3) 0.0998(6) 0.1277(5)
H9_6 H 0.8290 0.0631 0.0936
C18_6 C 0.7753(4) 0.1438(6) 0.1098(5)
H10_6 H 0.7487 0.1357 0.0638
C19_6 C 0.7659(3) 0.1996(6) 0.1590(5)
C20_6 C 0.8058(4) 0.2090(7) 0.2301(5)
H11_6 H 0.8001 0.2451 0.2647
C21_6 C 0.8539(4) 0.1633(7) 0.2477(5)
H12_6 H 0.8798 0.1688 0.2947
H5_6 H 0.6315 0.3386 0.9950
C8_7 C 0.9205(3) 0.9125(5) 0.4208(5)
C9_7 C 0.8740(3) 0.8557(5) 0.4003(5)
C10_7 C 0.8530(4) 0.8248(8) 0.4548(5)
H5_7 H 0.8685 0.8386 0.5050
C11_7 C 0.8081(4) 0.7725(7) 0.4348(5)
H6_7 H 0.7949 0.7510 0.4724
C12_7 C 0.7831(3) 0.7522(6) 0.3603(5)
C13_7 C 0.8056(4) 0.7828(8) 0.3075(5)
H7_7 H 0.7903 0.7691 0.2572
C14_7 C 0.8505(4) 0.8333(7) 0.3263(5)
H8_7 H 0.8650 0.8524 0.2889
C15_7 C 0.5826(3) 0.5660(4) 0.2851(4)
C16_7 C 0.6361(3) 0.6102(5) 0.3032(4)
C17_7 C 0.6766(3) 0.5998(6) 0.3723(5)
H9_7 H 0.6710 0.5631 0.4064
C18_7 C 0.7247(4) 0.6438(6) 0.3902(5)
H10_7 H 0.7513 0.6357 0.4362
C19_7 C 0.7341(3) 0.6996(6) 0.3410(5)
C20_7 C 0.6942(4) 0.7090(7) 0.2699(5)
H11_7 H 0.6999 0.7451 0.2353
C21_7 C 0.6461(4) 0.6633(7) 0.2523(5)
H12_7 H 0.6202 0.6688 0.2053
C8_8 C 0.4205(3) 0.4125(5) 0.4208(5)
C9_8 C 0.3740(3) 0.3557(5) 0.4003(5)
C10_8 C 0.3530(4) 0.3248(8) 0.4548(5)
H5_8 H 0.3685 0.3386 0.5050
C11_8 C 0.3081(4) 0.2725(7) 0.4348(5)
H6_8 H 0.2949 0.2510 0.4724
C12_8 C 0.2831(3) 0.2522(6) 0.3603(5)
C13_8 C 0.3056(4) 0.2828(8) 0.3075(5)
H7_8 H 0.2903 0.2691 0.2572
C14_8 C 0.3505(4) 0.3333(7) 0.3263(5)
H8_8 H 0.3650 0.3524 0.2889
C15_8 C 0.0826(3) 0.0660(4) 0.2851(4)
C16_8 C 0.1361(3) 0.1102(5) 0.3032(4)
C17_8 C 0.1766(3) 0.0998(6) 0.3723(5)
H9_8 H 0.1710 0.0631 0.4064
C18_8 C 0.2247(4) 0.1438(6) 0.3902(5)
H10_8 H 0.2513 0.1357 0.4362
C19_8 C 0.2341(3) 0.1996(6) 0.3410(5)
C20_8 C 0.1942(4) 0.2090(7) 0.2699(5)
H11_8 H 0.1999 0.2451 0.2353
C21_8 C 0.1461(4) 0.1633(7) 0.2523(5)
H12_8 H 0.1202 0.1688 0.2053
loop_
_geom_bond_atom_site_label_1
_geom_bond_atom_site_label_2
_geom_bond_site_symmetry_1
_geom_bond_site_symmetry_2
C3 H1 1_555 1_555
C4 C3 1_555 1_555
H2 C4 1_555 1_555
Er8 O13 1_555 1_555
O13 C24 1_555 1_555
C24 C27 1_555 1_555
C39 C36 1_555 1_555
H21 C39 1_555 1_555
C42 C27 1_555 1_555
H24 C42 1_555 1_555
C39 C42 1_555 1_555
C1 C2 1_555 1_555
C6 C5 1_555 1_555
H3 C6 1_555 1_555
C7 C2 1_555 1_555
H4 C7 1_555 1_555
Er7 O10 1_555 1_555
O11 C1 1_555 1_555
C30 H15 1_555 1_555
C33 C30 1_555 1_555
H18 C33 1_555 1_555
C6 C7 1_555 1_555
O16 Er2 1_555 1_555
O20 Er2 1_555 1_555
O7 Er1 1_555 1_555
O17 Er1 1_555 1_555
O4 C8 1_555 1_555
O5 C15 1_555 1_555
O6 C15 1_555 1_555
C8 O3 1_555 1_555
C9 C8 1_555 1_555
C10 C9 1_555 1_555
C11 C10 1_555 1_555
H6 C11 1_555 1_555
C12 C11 1_555 1_555
C13 C12 1_555 1_555
H7 C13 1_555 1_555
C14 C9 1_555 1_555
H8 C14 1_555 1_555
C15 C16 1_555 1_555
C16 C17 1_555 1_555
C17 H9 1_555 1_555
C18 C17 1_555 1_555
H10 C18 1_555 1_555
C19 C12 1_555 1_555
C20 C19 1_555 1_555
H11 C20 1_555 1_555
C21 C16 1_555 1_555
H12 C21 1_555 1_555
Er7 O5 1_555 1_555
Er6 O6 1_555 1_555
C13 C14 1_555 1_555
C18 C19 1_555 1_555
C20 C21 1_555 1_555
Er8 O9 1_555 1_555
C22 O2 1_555 1_555
C25 C22 1_555 1_555
C29 H14 1_555 1_555
C32 C29 1_555 1_555
H17 C32 1_555 1_555
C38 C34 1_555 1_555
H20 C38 1_555 1_555
C41 C25 1_555 1_555
H23 C41 1_555 1_555
C38 C41 1_555 1_555
Er7 O12 1_555 1_555
O12 C23 1_555 1_555
C23 C26 1_555 1_555
H13 C28 1_555 1_555
C31 C28 1_555 1_555
H16 C31 1_555 1_555
C37 C35 1_555 1_555
H19 C37 1_555 1_555
C40 C26 1_555 1_555
H22 C40 1_555 1_555
C37 C40 1_555 1_555
O7_2 Er8 1_555 1_555
O15_2 Er8 1_555 1_555
O17_2 Er8 1_555 1_555
O19_2 Er8 1_555 1_555
O4_2 C8_2 1_555 1_555
O16 C15_2 1_555 1_555
O6_2 C15_2 1_555 1_555
C8_2 O3_2 1_555 1_555
C9_2 C8_2 1_555 1_555
C10_2 C9_2 1_555 1_555
C11_2 C10_2 1_555 1_555
H6_2 C11_2 1_555 1_555
C12_2 C11_2 1_555 1_555
C13_2 C12_2 1_555 1_555
H7_2 C13_2 1_555 1_555
C14_2 C9_2 1_555 1_555
H8_2 C14_2 1_555 1_555
C15_2 C16_2 1_555 1_555
C16_2 C17_2 1_555 1_555
C17_2 H9_2 1_555 1_555
C18_2 C17_2 1_555 1_555
H10_2 C18_2 1_555 1_555
C19_2 C12_2 1_555 1_555
C20_2 C19_2 1_555 1_555
H11_2 C20_2 1_555 1_555
C21_2 C16_2 1_555 1_555
H12_2 C21_2 1_555 1_555
Er7 O4_2 1_555 1_555
O18_2 Er7 1_555 1_555
O20_2 Er7 1_555 1_555
C13_2 C14_2 1_555 1_555
C18_2 C19_2 1_555 1_555
C20_2 C21_2 1_555 1_555
O3_3 Er1_2 1_555 1_555
O4_3 C8_3 1_555 1_555
O5_2 C15_3 1_555 1_555
O18_2 C15_3 1_555 1_555
O7_3 Er1_2 1_555 1_555
C8_3 O3_3 1_555 1_555
C9_3 C8_3 1_555 1_555
C10_3 C9_3 1_555 1_555
H5_3 C10_3 1_555 1_555
C11_3 C10_3 1_555 1_555
H6_3 C11_3 1_555 1_555
C12_3 C11_3 1_555 1_555
C13_3 C12_3 1_555 1_555
H7_3 C13_3 1_555 1_555
C14_3 C9_3 1_555 1_555
H8_3 C14_3 1_555 1_555
C15_3 C16_3 1_555 1_555
C16_3 C17_3 1_555 1_555
C17_3 H9_3 1_555 1_555
C18_3 C17_3 1_555 1_555
H10_3 C18_3 1_555 1_555
C19_3 C12_3 1_555 1_555
C20_3 C19_3 1_555 1_555
H11_3 C20_3 1_555 1_555
C21_3 C16_3 1_555 1_555
H12_3 C21_3 1_555 1_555
Er6 O5_2 1_555 1_555
O17_3 Er1_2 1_555 1_555
C13_3 C14_3 1_555 1_555
C18_3 C19_3 1_555 1_555
C20_3 C21_3 1_555 1_555
Er4 O9_2 1_555 1_555
Er6 O12_2 1_555 1_555
O9_2 C23_2 1_555 1_555
O12_2 C23_2 1_555 1_555
C22_2 O2_2 1_555 1_555
C23_2 C26_2 1_555 1_555
C25_2 C22_2 1_555 1_555
C26_2 C29_2 1_555 1_555
C28_2 C25_2 1_555 1_555
C29_2 H14_2 1_555 1_555
H13_2 C28_2 1_555 1_555
C31_2 C28_2 1_555 1_555
C32_2 C29_2 1_555 1_555
H16_2 C31_2 1_555 1_555
H17_2 C32_2 1_555 1_555
C34_2 C31_2 1_555 1_555
C35_2 C32_2 1_555 1_555
C37_2 C35_2 1_555 1_555
C38_2 C34_2 1_555 1_555
H19_2 C37_2 1_555 1_555
H20_2 C38_2 1_555 1_555
C40_2 C26_2 1_555 1_555
C41_2 C25_2 1_555 1_555
H22_2 C40_2 1_555 1_555
H23_2 C41_2 1_555 1_555
O8_2 C22_2 1_555 1_555
C34_2 C35_2 1_555 1_555
C37_2 C40_2 1_555 1_555
C38_2 C41_2 1_555 1_555
O1_2 C1_2 1_555 1_555
C1_2 C2_2 1_555 1_555
C2_2 C3_2 1_555 1_555
C3_2 H1_2 1_555 1_555
C4_2 C3_2 1_555 1_555
H2_2 C4_2 1_555 1_555
C5_2 C4_2 1_555 1_555
C6_2 C5_2 1_555 1_555
H3_2 C6_2 1_555 1_555
C7_2 C2_2 1_555 1_555
H4_2 C7_2 1_555 1_555
Er6 O10_2 1_555 1_555
Er4 O13_2 1_555 1_555
O10_2 C24_2 1_555 1_555
O11_2 C1_2 1_555 1_555
O13_2 C24_2 1_555 1_555
C24_2 C27_2 1_555 1_555
C27_2 C30_2 1_555 1_555
C30_2 H15_2 1_555 1_555
C33_2 C30_2 1_555 1_555
H18_2 C33_2 1_555 1_555
C36_2 C5_2 1_555 1_555
C39_2 C36_2 1_555 1_555
H21_2 C39_2 1_555 1_555
C42_2 C27_2 1_555 1_555
H24_2 C42_2 1_555 1_555
C6_2 C7_2 1_555 1_555
C33_2 C36_2 1_555 1_555
C39_2 C42_2 1_555 1_555
O14_3 Er6_2 1_555 1_555
O16_2 Er6_2 1_555 1_555
O20_3 Er6_2 1_555 1_555
O3_4 Er4 1_555 1_555
O4_4 C8_4 1_555 1_555
O16_2 C15_4 1_555 1_555
O18 C15_4 1_555 1_555
O7_4 Er4 1_555 1_555
C8_4 O3_4 1_555 1_555
C9_4 C8_4 1_555 1_555
C10_4 C9_4 1_555 1_555
H5_4 C10_4 1_555 1_555
C11_4 C10_4 1_555 1_555
H6_4 C11_4 1_555 1_555
C12_4 C11_4 1_555 1_555
C13_4 C12_4 1_555 1_555
H7_4 C13_4 1_555 1_555
C14_4 C9_4 1_555 1_555
H8_4 C14_4 1_555 1_555
C15_4 C16_4 1_555 1_555
C16_4 C17_4 1_555 1_555
C17_4 H9_4 1_555 1_555
C18_4 C17_4 1_555 1_555
H10_4 C18_4 1_555 1_555
C19_4 C12_4 1_555 1_555
C20_4 C19_4 1_555 1_555
H11_4 C20_4 1_555 1_555
C21_4 C16_4 1_555 1_555
H12_4 C21_4 1_555 1_555
Er6 O4_4 1_555 1_555
O14_4 Er6 1_555 1_555
O15_4 Er4 1_555 1_555
O17_4 Er4 1_555 1_555
O19_4 Er4 1_555 1_555
O20_4 Er6 1_555 1_555
C13_4 C14_4 1_555 1_555
C18_4 C19_4 1_555 1_555
C20_4 C21_4 1_555 1_555
O15 C8_5 1_555 1_555
O17_2 C15_5 1_555 1_555
O19_4 C15_5 1_555 1_555
C8_5 O14 1_555 1_555
C9_5 C8_5 1_555 1_555
C10_5 C9_5 1_555 1_555
C11_5 C10_5 1_555 1_555
H6_5 C11_5 1_555 1_555
C12_5 C11_5 1_555 1_555
C13_5 C12_5 1_555 1_555
H7_5 C13_5 1_555 1_555
C14_5 C9_5 1_555 1_555
H8_5 C14_5 1_555 1_555
C15_5 C16_5 1_555 1_555
C16_5 C17_5 1_555 1_555
C17_5 H9_5 1_555 1_555
C18_5 C17_5 1_555 1_555
H10_5 C18_5 1_555 1_555
C19_5 C12_5 1_555 1_555
C20_5 C19_5 1_555 1_555
H11_5 C20_5 1_555 1_555
C21_5 C16_5 1_555 1_555
H12_5 C21_5 1_555 1_555
C13_5 C14_5 1_555 1_555
C18_5 C19_5 1_555 1_555
C20_5 C21_5 1_555 1_555
O15_2 C8_6 1_555 1_555
O17 C15_6 1_555 1_555
O19_3 C15_6 1_555 1_555
C8_6 O14_2 1_555 1_555
C9_6 C8_6 1_555 1_555
C10_6 C9_6 1_555 1_555
C11_6 C10_6 1_555 1_555
H6_6 C11_6 1_555 1_555
C12_6 C11_6 1_555 1_555
C13_6 C12_6 1_555 1_555
H7_6 C13_6 1_555 1_555
C14_6 C9_6 1_555 1_555
H8_6 C14_6 1_555 1_555
C15_6 C16_6 1_555 1_555
C16_6 C17_6 1_555 1_555
C17_6 H9_6 1_555 1_555
C18_6 C17_6 1_555 1_555
H10_6 C18_6 1_555 1_555
C19_6 C12_6 1_555 1_555
C20_6 C19_6 1_555 1_555
H11_6 C20_6 1_555 1_555
C21_6 C16_6 1_555 1_555
H12_6 C21_6 1_555 1_555
C13_6 C14_6 1_555 1_555
C18_6 C19_6 1_555 1_555
C20_6 C21_6 1_555 1_555
O15_3 C8_7 1_555 1_555
O17_4 C15_7 1_555 1_555
O19_2 C15_7 1_555 1_555
C8_7 O14_3 1_555 1_555
C9_7 C8_7 1_555 1_555
C10_7 C9_7 1_555 1_555
H5_7 C10_7 1_555 1_555
C11_7 C10_7 1_555 1_555
H6_7 C11_7 1_555 1_555
C12_7 C11_7 1_555 1_555
C13_7 C12_7 1_555 1_555
H7_7 C13_7 1_555 1_555
C14_7 C9_7 1_555 1_555
H8_7 C14_7 1_555 1_555
C15_7 C16_7 1_555 1_555
C16_7 C17_7 1_555 1_555
C17_7 H9_7 1_555 1_555
C18_7 C17_7 1_555 1_555
H10_7 C18_7 1_555 1_555
C19_7 C12_7 1_555 1_555
C20_7 C19_7 1_555 1_555
H11_7 C20_7 1_555 1_555
C21_7 C16_7 1_555 1_555
H12_7 C21_7 1_555 1_555
C13_7 C14_7 1_555 1_555
C18_7 C19_7 1_555 1_555
C20_7 C21_7 1_555 1_555
O15_4 C8_8 1_555 1_555
O17_3 C15_8 1_555 1_555
O19 C15_8 1_555 1_555
C8_8 O14_4 1_555 1_555
C9_8 C8_8 1_555 1_555
C10_8 C9_8 1_555 1_555
H5_8 C10_8 1_555 1_555
C11_8 C10_8 1_555 1_555
H6_8 C11_8 1_555 1_555
C12_8 C11_8 1_555 1_555
C13_8 C12_8 1_555 1_555
H7_8 C13_8 1_555 1_555
C14_8 C9_8 1_555 1_555
H8_8 C14_8 1_555 1_555
C15_8 C16_8 1_555 1_555
C16_8 C17_8 1_555 1_555
C17_8 H9_8 1_555 1_555
C18_8 C17_8 1_555 1_555
H10_8 C18_8 1_555 1_555
C19_8 C12_8 1_555 1_555
C20_8 C19_8 1_555 1_555
H11_8 C20_8 1_555 1_555
C21_8 C16_8 1_555 1_555
H12_8 C21_8 1_555 1_555
C13_8 C14_8 1_555 1_555
C18_8 C19_8 1_555 1_555
C20_8 C21_8 1_555 1_555

#END
