
###############################################################################
#
# This file contains modified crystal structure data generated from the
# MOF subset of the Cambridge Structural Database (CSD) v543 
# hosted by the Cambridge Crystallographic Data Centre (CCDC).
#
# This work is licensed under the Creative Commons
# Attribution-NonCommercial-ShareAlike 4.0 International License.
# To view a copy of this license, visit
# http://creativecommons.org/licenses/by-nc-sa/4.0/
# or send a letter to
# Creative Commons, PO Box 1866, Mountain View, CA 94042, USA.
#
# CIF created using the CSD Python API on 29 September 2022
# The structure has been converted into the P1 space group
# The structure has a 3D framework
# The original CSD entry SAQQAD is in the monoclinic crystal system
# The framework has been calculated to contain at least 10.0% void space
# The void calculation uses a probe of radius 1.32A, grid spacing 0.4
# H atom positions have been added when not included in the experimental data
# Generated hydrogen atom positions removed from atoms on special positions
#
###############################################################################

data_SAQQAD
_chemical_formula_moiety         '(C168 H128 O55 Tb8)n'
_symmetry_cell_setting           triclinic
_symmetry_space_group_name_H-M   'P 1'
_symmetry_Int_Tables_number      1
_space_group_name_Hall           'P 1'
loop_
_symmetry_equiv_pos_site_id
_symmetry_equiv_pos_as_xyz
1 x,y,z
_cell_length_a                   25.3477(8)
_cell_length_b                   17.1399(8)
_cell_length_c                   18.4904(8)
_cell_angle_alpha                90
_cell_angle_beta                 107.3250(10)
_cell_angle_gamma                90
_cell_volume                     7668.82
loop_
_atom_site_label
_atom_site_type_symbol
_atom_site_fract_x
_atom_site_fract_y
_atom_site_fract_z
Tb4 Tb 0.002480(8) 0.958942(14) 0.395959(12)
Tb5 Tb 0.002480(8) 0.041058(14) 0.895959(12)
Tb1 Tb 0.497520(8) 0.458942(14) 0.104041(12)
O1 O 0.56619(15) 0.5568(2) 0.1376(2)
O2 O 0.55676(16) 0.5679(3) 0.0170(3)
O3 O 0.45108(14) 0.5737(2) 0.0598(2)
O5 O 0.92744(13) 0.9681(2) 0.1596(2)
O6 O 0.94779(15) 0.9250(3) 0.2791(2)
O7 O 0.4725(2) 0.3247(3) 0.1161(3)
C1 C 0.5792(2) 0.5875(3) 0.0845(4)
C2 C 0.6262(2) 0.6434(4) 0.1031(3)
C3 C 0.6501(3) 0.6680(5) 0.1773(4)
H1 H 0.6356 0.6513 0.2153
C4 C 0.6951(3) 0.7167(5) 0.1947(4)
H2 H 0.7115 0.7307 0.2450
C5 C 0.7168(2) 0.7457(4) 0.1401(3)
C6 C 0.6910(3) 0.7218(5) 0.0657(4)
H3 H 0.7046 0.7395 0.0273
C7 C 0.6464(3) 0.6732(5) 0.0479(4)
C8 C 0.42467(19) 0.6068(3) 0.0003(3)
C9 C 0.3736(2) 0.6499(3) 0.0010(3)
C12 C 0.2760(2) 0.7298(4) 0.0003(4)
C13 C 0.3013(3) 0.6768(5) 0.0574(4)
H7 H 0.2856 0.6670 0.0960
C14 C 0.3493(3) 0.6388(4) 0.0574(4)
H8 H 0.3657 0.6046 0.0968
C15 C 0.91624(17) 0.9309(3) 0.2128(3)
C16 C 0.8632(2) 0.8871(3) 0.1954(3)
C17 C 0.8222(2) 0.8971(4) 0.1264(3)
H9 H 0.8272 0.9335 0.0917
C18 C 0.7735(2) 0.8530(5) 0.1088(4)
H10 H 0.7464 0.8607 0.0628
C19 C 0.7654(2) 0.7983(4) 0.1588(3)
C20 C 0.8061(3) 0.7894(5) 0.2289(3)
H11 H 0.8005 0.7542 0.2641
C21 C 0.8544(3) 0.8322(4) 0.2464(3)
H12 H 0.8814 0.8243 0.2925
Tb3 Tb 0.997520(8) 0.958942(14) 0.104041(12)
O12 O 0.06293(14) 0.8935(3) 0.0607(2)
O13 O 0.56293(14) 0.3935(3) 0.0607(2)
O15 O 0.42744(13) 0.4681(2) 0.1596(2)
O18 O 0.55221(15) 0.4250(3) 0.2209(2)
H16 H 0.3706 0.3399 0.0024
C31 C 0.1509(3) 0.7953(5) 0.0544(4)
H17 H 0.1350 0.7855 0.0929
C32 C 0.1979(3) 0.7551(5) 0.0541(4)
H18 H 0.2123 0.7175 0.0909
O4 O 0.43707(14) 0.6065(3) 0.9393(2)
H4 H 0.6294 0.6601 0.9976
C10 C 0.3491(3) 0.7047(5) 0.9456(4)
H5 H 0.3650 0.7145 0.9071
C11 C 0.3021(3) 0.7449(5) 0.9459(4)
H6 H 0.2877 0.7825 0.9091
Tb2 Tb 0.502480(8) 0.541058(14) 0.895959(12)
O8 O 0.43381(15) 0.4432(2) 0.8624(2)
O9 O 0.44324(16) 0.4321(3) 0.9830(3)
O10 O 0.04892(14) 0.9263(2) 0.9402(2)
O11 O 0.54892(14) 0.4263(2) 0.9402(2)
O14 O 0.07256(13) 0.0319(2) 0.8404(2)
O16 O 0.57256(13) 0.5319(2) 0.8404(2)
O17 O 0.05221(15) 0.0750(3) 0.7209(2)
O19 O 0.44779(15) 0.5750(3) 0.7791(2)
O20 O 0.5275(2) 0.6753(3) 0.8839(3)
C22 C 0.4208(2) 0.4125(3) 0.9155(4)
C23 C 0.3738(2) 0.3566(4) 0.8969(3)
C24 C 0.3499(3) 0.3320(5) 0.8227(4)
H13 H 0.3644 0.3487 0.7847
C25 C 0.3049(3) 0.2833(5) 0.8053(4)
H14 H 0.2885 0.2693 0.7550
C26 C 0.2832(2) 0.2543(4) 0.8599(3)
C27 C 0.3090(3) 0.2782(5) 0.9343(4)
H15 H 0.2954 0.2605 0.9727
C28 C 0.3536(3) 0.3268(5) 0.9521(4)
C29 C 0.07533(19) 0.8932(3) 0.9997(3)
C30 C 0.1264(2) 0.8501(3) 0.9990(3)
C33 C 0.2240(2) 0.7702(4) 0.9997(4)
C34 C 0.1987(3) 0.8232(5) 0.9426(4)
H19 H 0.2144 0.8330 0.9040
C35 C 0.1507(3) 0.8612(4) 0.9426(4)
H20 H 0.1343 0.8954 0.9032
C36 C 0.08376(17) 0.0691(3) 0.7872(3)
C37 C 0.1368(2) 0.1129(3) 0.8046(3)
C38 C 0.1778(2) 0.1029(4) 0.8736(3)
H21 H 0.1728 0.0665 0.9083
C39 C 0.2265(2) 0.1470(5) 0.8912(4)
H22 H 0.2536 0.1393 0.9372
C40 C 0.2346(2) 0.2017(4) 0.8412(3)
C41 C 0.1939(3) 0.2106(5) 0.7711(3)
H23 H 0.1995 0.2458 0.7359
C42 C 0.1456(3) 0.1678(4) 0.7536(3)
H24 H 0.1186 0.1757 0.7075
Tb8 Tb 0.997520(8) 0.041058(14) 0.604041(12)
O1_2 O 0.06619(15) 0.0568(2) 0.1376(2)
O2_2 O 0.05676(16) 0.0679(3) 0.0170(3)
O6_2 O 0.44779(15) 0.4250(3) 0.2791(2)
C1_2 C 0.0792(2) 0.0875(3) 0.0845(4)
C2_2 C 0.1262(2) 0.1434(4) 0.1031(3)
C3_2 C 0.1501(3) 0.1680(5) 0.1773(4)
H1_2 H 0.1356 0.1513 0.2153
C4_2 C 0.1951(3) 0.2167(5) 0.1947(4)
H2_2 H 0.2115 0.2307 0.2450
C5_2 C 0.2168(2) 0.2457(4) 0.1401(3)
C6_2 C 0.1910(3) 0.2218(5) 0.0657(4)
H3_2 H 0.2046 0.2395 0.0273
C7_2 C 0.1464(3) 0.1732(5) 0.0479(4)
C15_2 C 0.41624(17) 0.4309(3) 0.2128(3)
C16_2 C 0.3632(2) 0.3871(3) 0.1954(3)
C17_2 C 0.3222(2) 0.3971(4) 0.1264(3)
H9_2 H 0.3272 0.4335 0.0917
C18_2 C 0.2735(2) 0.3530(5) 0.1088(4)
H10_2 H 0.2464 0.3607 0.0628
C19_2 C 0.2654(2) 0.2983(4) 0.1588(3)
C20_2 C 0.3061(3) 0.2894(5) 0.2289(3)
H11_2 H 0.3005 0.2542 0.2641
C21_2 C 0.3544(3) 0.3322(4) 0.2464(3)
H12_2 H 0.3814 0.3243 0.2925
Tb4_2 Tb 0.502480(8) 0.458942(14) 0.395959(12)
H4_2 H 0.1294 0.1601 0.9976
O20_2 O 0.0275(2) 0.1753(3) 0.8839(3)
O18_2 O 0.05221(15) 0.9250(3) 0.2209(2)
O3_2 O 0.95108(14) 0.0737(2) 0.0598(2)
C8_2 C 0.92467(19) 0.1068(3) 0.0003(3)
C9_2 C 0.8736(2) 0.1499(3) 0.0010(3)
C12_2 C 0.7760(2) 0.2298(4) 0.0003(4)
C13_2 C 0.8013(3) 0.1768(5) 0.0574(4)
H7_2 H 0.7856 0.1670 0.0960
C14_2 C 0.8493(3) 0.1388(4) 0.0574(4)
H8_2 H 0.8657 0.1046 0.0968
C31_2 C 0.6509(3) 0.2953(5) 0.0544(4)
H17_2 H 0.6350 0.2855 0.0929
C32_2 C 0.6979(3) 0.2551(5) 0.0541(4)
H18_2 H 0.7123 0.2175 0.0909
O4_2 O 0.93707(14) 0.1065(3) 0.9393(2)
C10_2 C 0.8491(3) 0.2047(5) 0.9456(4)
H5_2 H 0.8650 0.2145 0.9071
C11_2 C 0.8021(3) 0.2449(5) 0.9459(4)
H6_2 H 0.7877 0.2825 0.9091
O19_2 O 0.94779(15) 0.0750(3) 0.7791(2)
C29_2 C 0.57533(19) 0.3932(3) 0.9997(3)
C30_2 C 0.6264(2) 0.3501(3) 0.9990(3)
C33_2 C 0.7240(2) 0.2702(4) 0.9997(4)
C34_2 C 0.6987(3) 0.3232(5) 0.9426(4)
H19_2 H 0.7144 0.3330 0.9040
C35_2 C 0.6507(3) 0.3612(4) 0.9426(4)
H20_2 H 0.6343 0.3954 0.9032
O7_2 O 0.9725(2) 0.8247(3) 0.1161(3)
H16_2 H 0.8706 0.8399 0.0024
Tb8_2 Tb 0.497520(8) 0.541058(14) 0.604041(12)
O8_2 O 0.93381(15) 0.9432(2) 0.8624(2)
O9_2 O 0.94324(16) 0.9321(3) 0.9830(3)
O17_2 O 0.55221(15) 0.5750(3) 0.7209(2)
C22_2 C 0.9208(2) 0.9125(3) 0.9155(4)
C23_2 C 0.8738(2) 0.8566(4) 0.8969(3)
C24_2 C 0.8499(3) 0.8320(5) 0.8227(4)
H13_2 H 0.8644 0.8487 0.7847
C25_2 C 0.8049(3) 0.7833(5) 0.8053(4)
H14_2 H 0.7885 0.7693 0.7550
C26_2 C 0.7832(2) 0.7543(4) 0.8599(3)
C27_2 C 0.8090(3) 0.7782(5) 0.9343(4)
H15_2 H 0.7954 0.7605 0.9727
C28_2 C 0.8536(3) 0.8268(5) 0.9521(4)
C36_2 C 0.58376(17) 0.5691(3) 0.7872(3)
C37_2 C 0.6368(2) 0.6129(3) 0.8046(3)
C38_2 C 0.6778(2) 0.6029(4) 0.8736(3)
H21_2 H 0.6728 0.5665 0.9083
C39_2 C 0.7265(2) 0.6470(5) 0.8912(4)
H22_2 H 0.7536 0.6393 0.9372
C40_2 C 0.7346(2) 0.7017(4) 0.8412(3)
C41_2 C 0.6939(3) 0.7106(5) 0.7711(3)
H23_2 H 0.6995 0.7458 0.7359
C42_2 C 0.6456(3) 0.6678(4) 0.7536(3)
H24_2 H 0.6186 0.6757 0.7075
O1_3 O 0.43381(15) 0.5568(2) 0.3624(2)
O2_3 O 0.44324(16) 0.5679(3) 0.4830(3)
O3_3 O 0.54892(14) 0.5737(2) 0.4402(2)
O4_3 O 0.56293(14) 0.6065(3) 0.5607(2)
O5_2 O 0.07256(13) 0.9681(2) 0.3404(2)
O7_3 O 0.5275(2) 0.3247(3) 0.3839(3)
C1_3 C 0.4208(2) 0.5875(3) 0.4155(4)
C2_3 C 0.3738(2) 0.6434(4) 0.3969(3)
C3_3 C 0.3499(3) 0.6680(5) 0.3227(4)
H1_3 H 0.3644 0.6513 0.2847
C4_3 C 0.3049(3) 0.7167(5) 0.3053(4)
H2_3 H 0.2885 0.7307 0.2550
C5_3 C 0.2832(2) 0.7457(4) 0.3599(3)
C6_3 C 0.3090(3) 0.7218(5) 0.4343(4)
H3_3 H 0.2954 0.7395 0.4727
C7_3 C 0.3536(3) 0.6732(5) 0.4521(4)
H4_3 H 0.3706 0.6601 0.5024
C8_3 C 0.57533(19) 0.6068(3) 0.4997(3)
C9_3 C 0.6264(2) 0.6499(3) 0.4990(3)
C10_3 C 0.6509(3) 0.7047(5) 0.5544(4)
H5_3 H 0.6350 0.7145 0.5929
C11_3 C 0.6979(3) 0.7449(5) 0.5541(4)
H6_3 H 0.7123 0.7825 0.5909
C12_3 C 0.7240(2) 0.7298(4) 0.4997(4)
C13_3 C 0.6987(3) 0.6768(5) 0.4426(4)
H7_3 H 0.7144 0.6670 0.4040
C14_3 C 0.6507(3) 0.6388(4) 0.4426(4)
H8_3 H 0.6343 0.6046 0.4032
C15_3 C 0.08376(17) 0.9309(3) 0.2872(3)
C16_3 C 0.1368(2) 0.8871(3) 0.3046(3)
C17_3 C 0.1778(2) 0.8971(4) 0.3736(3)
H9_3 H 0.1728 0.9335 0.4083
C18_3 C 0.2265(2) 0.8530(5) 0.3912(4)
H10_3 H 0.2536 0.8607 0.4372
C19_3 C 0.2346(2) 0.7983(4) 0.3412(3)
C20_3 C 0.1939(3) 0.7894(5) 0.2711(3)
H11_3 H 0.1995 0.7542 0.2359
C21_3 C 0.1456(3) 0.8322(4) 0.2536(3)
H12_3 H 0.1186 0.8243 0.2075
O8_3 O 0.56619(15) 0.4432(2) 0.6376(2)
O9_3 O 0.55676(16) 0.4321(3) 0.5170(3)
O10_2 O 0.95108(14) 0.9263(2) 0.5598(2)
O11_2 O 0.45108(14) 0.4263(2) 0.5598(2)
O12_2 O 0.93707(14) 0.8935(3) 0.4393(2)
O13_2 O 0.43707(14) 0.3935(3) 0.4393(2)
O14_2 O 0.92744(13) 0.0319(2) 0.6596(2)
O15_2 O 0.57256(13) 0.4681(2) 0.3404(2)
O16_2 O 0.42744(13) 0.5319(2) 0.6596(2)
O20_3 O 0.4725(2) 0.6753(3) 0.6161(3)
C22_3 C 0.5792(2) 0.4125(3) 0.5845(4)
C23_3 C 0.6262(2) 0.3566(4) 0.6031(3)
C24_3 C 0.6501(3) 0.3320(5) 0.6773(4)
H13_3 H 0.6356 0.3487 0.7153
C25_3 C 0.6951(3) 0.2833(5) 0.6947(4)
H14_3 H 0.7115 0.2693 0.7450
C26_3 C 0.7168(2) 0.2543(4) 0.6401(3)
C27_3 C 0.6910(3) 0.2782(5) 0.5657(4)
H15_3 H 0.7046 0.2605 0.5273
C28_3 C 0.6464(3) 0.3268(5) 0.5479(4)
H16_3 H 0.6294 0.3399 0.4976
C29_3 C 0.92467(19) 0.8932(3) 0.5003(3)
C30_3 C 0.8736(2) 0.8501(3) 0.5010(3)
C31_3 C 0.8491(3) 0.7953(5) 0.4456(4)
H17_3 H 0.8650 0.7855 0.4071
C32_3 C 0.8021(3) 0.7551(5) 0.4459(4)
H18_3 H 0.7877 0.7175 0.4091
C33_3 C 0.7760(2) 0.7702(4) 0.5003(4)
C34_3 C 0.8013(3) 0.8232(5) 0.5574(4)
H19_3 H 0.7856 0.8330 0.5960
C35_3 C 0.8493(3) 0.8612(4) 0.5574(4)
H20_3 H 0.8657 0.8954 0.5968
C36_3 C 0.91624(17) 0.0691(3) 0.7128(3)
C37_3 C 0.8632(2) 0.1129(3) 0.6954(3)
C38_3 C 0.8222(2) 0.1029(4) 0.6264(3)
H21_3 H 0.8272 0.0665 0.5917
C39_3 C 0.7735(2) 0.1470(5) 0.6088(4)
H22_3 H 0.7464 0.1393 0.5628
C40_3 C 0.7654(2) 0.2017(4) 0.6588(3)
C41_3 C 0.8061(3) 0.2106(5) 0.7289(3)
H23_3 H 0.8005 0.2458 0.7641
C42_3 C 0.8544(3) 0.1678(4) 0.7464(3)
H24_3 H 0.8814 0.1757 0.7925
O3_4 O 0.04892(14) 0.0737(2) 0.4402(2)
O4_4 O 0.06293(14) 0.1065(3) 0.5607(2)
C8_4 C 0.07533(19) 0.1068(3) 0.4997(3)
C9_4 C 0.1264(2) 0.1499(3) 0.4990(3)
C10_4 C 0.1509(3) 0.2047(5) 0.5544(4)
H5_4 H 0.1350 0.2145 0.5929
C11_4 C 0.1979(3) 0.2449(5) 0.5541(4)
H6_4 H 0.2123 0.2825 0.5909
C12_4 C 0.2240(2) 0.2298(4) 0.4997(4)
C13_4 C 0.1987(3) 0.1768(5) 0.4426(4)
H7_4 H 0.2144 0.1670 0.4040
C14_4 C 0.1507(3) 0.1388(4) 0.4426(4)
H8_4 H 0.1343 0.1046 0.4032
C29_4 C 0.42467(19) 0.3932(3) 0.5003(3)
C30_4 C 0.3736(2) 0.3501(3) 0.5010(3)
C31_4 C 0.3491(3) 0.2953(5) 0.4456(4)
H17_4 H 0.3650 0.2855 0.4071
C32_4 C 0.3021(3) 0.2551(5) 0.4459(4)
H18_4 H 0.2877 0.2175 0.4091
C33_4 C 0.2760(2) 0.2702(4) 0.5003(4)
C34_4 C 0.3013(3) 0.3232(5) 0.5574(4)
H19_4 H 0.2856 0.3330 0.5960
C35_4 C 0.3493(3) 0.3612(4) 0.5574(4)
H20_4 H 0.3657 0.3954 0.5968
O7_4 O 0.0275(2) 0.8247(3) 0.3839(3)
O8_4 O 0.06619(15) 0.9432(2) 0.6376(2)
O9_4 O 0.05676(16) 0.9321(3) 0.5170(3)
C22_4 C 0.0792(2) 0.9125(3) 0.5845(4)
C23_4 C 0.1262(2) 0.8566(4) 0.6031(3)
C24_4 C 0.1501(3) 0.8320(5) 0.6773(4)
H13_4 H 0.1356 0.8487 0.7153
C25_4 C 0.1951(3) 0.7833(5) 0.6947(4)
H14_4 H 0.2115 0.7693 0.7450
C26_4 C 0.2168(2) 0.7543(4) 0.6401(3)
C27_4 C 0.1910(3) 0.7782(5) 0.5657(4)
H15_4 H 0.2046 0.7605 0.5273
C28_4 C 0.1464(3) 0.8268(5) 0.5479(4)
H16_4 H 0.1294 0.8399 0.4976
C36_4 C 0.41624(17) 0.5691(3) 0.7128(3)
C37_4 C 0.3632(2) 0.6129(3) 0.6954(3)
C38_4 C 0.3222(2) 0.6029(4) 0.6264(3)
H21_4 H 0.3272 0.5665 0.5917
C39_4 C 0.2735(2) 0.6470(5) 0.6088(4)
H22_4 H 0.2464 0.6393 0.5628
C40_4 C 0.2654(2) 0.7017(4) 0.6588(3)
C41_4 C 0.3061(3) 0.7106(5) 0.7289(3)
H23_4 H 0.3005 0.7458 0.7641
C42_4 C 0.3544(3) 0.6678(4) 0.7464(3)
H24_4 H 0.3814 0.6757 0.7925
O1_4 O 0.93381(15) 0.0568(2) 0.3624(2)
O2_4 O 0.94324(16) 0.0679(3) 0.4830(3)
C1_4 C 0.9208(2) 0.0875(3) 0.4155(4)
C2_4 C 0.8738(2) 0.1434(4) 0.3969(3)
C3_4 C 0.8499(3) 0.1680(5) 0.3227(4)
H1_4 H 0.8644 0.1513 0.2847
C4_4 C 0.8049(3) 0.2167(5) 0.3053(4)
H2_4 H 0.7885 0.2307 0.2550
C5_4 C 0.7832(2) 0.2457(4) 0.3599(3)
C6_4 C 0.8090(3) 0.2218(5) 0.4343(4)
H3_4 H 0.7954 0.2395 0.4727
C7_4 C 0.8536(3) 0.1732(5) 0.4521(4)
H4_4 H 0.8706 0.1601 0.5024
C15_4 C 0.58376(17) 0.4309(3) 0.2872(3)
C16_4 C 0.6368(2) 0.3871(3) 0.3046(3)
C17_4 C 0.6778(2) 0.3971(4) 0.3736(3)
H9_4 H 0.6728 0.4335 0.4083
C18_4 C 0.7265(2) 0.3530(5) 0.3912(4)
H10_4 H 0.7536 0.3607 0.4372
C19_4 C 0.7346(2) 0.2983(4) 0.3412(3)
C20_4 C 0.6939(3) 0.2894(5) 0.2711(3)
H11_4 H 0.6995 0.2542 0.2359
C21_4 C 0.6456(3) 0.3322(4) 0.2536(3)
H12_4 H 0.6186 0.3243 0.2075
O20_4 O 0.9725(2) 0.1753(3) 0.6161(3)
loop_
_geom_bond_atom_site_label_1
_geom_bond_atom_site_label_2
_geom_bond_site_symmetry_1
_geom_bond_site_symmetry_2
Tb1 O1 1_555 1_555
O1 C1 1_555 1_555
O2 C1 1_555 1_555
O3 Tb1 1_555 1_555
O5 C15 1_555 1_555
O6 C15 1_555 1_555
O7 Tb1 1_555 1_555
C1 C2 1_555 1_555
C2 C3 1_555 1_555
C3 H1 1_555 1_555
C4 C3 1_555 1_555
H2 C4 1_555 1_555
C5 C4 1_555 1_555
C6 C5 1_555 1_555
H3 C6 1_555 1_555
C7 C2 1_555 1_555
C8 O3 1_555 1_555
C9 C8 1_555 1_555
C13 C12 1_555 1_555
H7 C13 1_555 1_555
C14 C9 1_555 1_555
H8 C14 1_555 1_555
C15 C16 1_555 1_555
C16 C17 1_555 1_555
C17 H9 1_555 1_555
C18 C17 1_555 1_555
H10 C18 1_555 1_555
C19 C5 1_555 1_555
C20 C19 1_555 1_555
H11 C20 1_555 1_555
C21 C16 1_555 1_555
H12 C21 1_555 1_555
Tb3 O5 1_555 1_555
O13 Tb1 1_555 1_555
O15 Tb1 1_555 1_555
O18 Tb1 1_555 1_555
C31 H17 1_555 1_555
C32 C31 1_555 1_555
H18 C32 1_555 1_555
C6 C7 1_555 1_555
C13 C14 1_555 1_555
C18 C19 1_555 1_555
C20 C21 1_555 1_555
H5 C10 1_555 1_555
C11 C10 1_555 1_555
H6 C11 1_555 1_555
Tb5 O14 1_555 1_555
O8 Tb2 1_555 1_555
O10 C29 1_555 1_555
O11 Tb2 1_555 1_555
O14 C36 1_555 1_555
O16 Tb2 1_555 1_555
O17 C36 1_555 1_555
O19 Tb2 1_555 1_555
O20 Tb2 1_555 1_555
C22 O8 1_555 1_555
C23 C22 1_555 1_555
C24 C23 1_555 1_555
H13 C24 1_555 1_555
C25 C24 1_555 1_555
H14 C25 1_555 1_555
C26 C25 1_555 1_555
C27 C26 1_555 1_555
H15 C27 1_555 1_555
C28 C23 1_555 1_555
C29 C30 1_555 1_555
C34 C33 1_555 1_555
H19 C34 1_555 1_555
C35 C30 1_555 1_555
H20 C35 1_555 1_555
C36 C37 1_555 1_555
C37 C38 1_555 1_555
C38 H21 1_555 1_555
C39 C38 1_555 1_555
H22 C39 1_555 1_555
C40 C26 1_555 1_555
C41 C40 1_555 1_555
H23 C41 1_555 1_555
C42 C37 1_555 1_555
H24 C42 1_555 1_555
O4 Tb2 1_555 1_555
O9 C22 1_555 1_555
C27 C28 1_555 1_555
C34 C35 1_555 1_555
C39 C40 1_555 1_555
C41 C42 1_555 1_555
O1_2 C1_2 1_555 1_555
O2_2 C1_2 1_555 1_555
O15 C15_2 1_555 1_555
O6_2 C15_2 1_555 1_555
C1_2 C2_2 1_555 1_555
C2_2 C3_2 1_555 1_555
C3_2 H1_2 1_555 1_555
C4_2 C3_2 1_555 1_555
H2_2 C4_2 1_555 1_555
C5_2 C4_2 1_555 1_555
C6_2 C5_2 1_555 1_555
H3_2 C6_2 1_555 1_555
C7_2 C2_2 1_555 1_555
C15_2 C16_2 1_555 1_555
C16_2 C17_2 1_555 1_555
C17_2 H9_2 1_555 1_555
C18_2 C17_2 1_555 1_555
H10_2 C18_2 1_555 1_555
C19_2 C5_2 1_555 1_555
C20_2 C19_2 1_555 1_555
H11_2 C20_2 1_555 1_555
C21_2 C16_2 1_555 1_555
H12_2 C21_2 1_555 1_555
Tb4_2 O6_2 1_555 1_555
C6_2 C7_2 1_555 1_555
C18_2 C19_2 1_555 1_555
C20_2 C21_2 1_555 1_555
O20_2 Tb5 1_555 1_555
C8_2 O3_2 1_555 1_555
C9_2 C8_2 1_555 1_555
C13_2 C12_2 1_555 1_555
H7_2 C13_2 1_555 1_555
C14_2 C9_2 1_555 1_555
H8_2 C14_2 1_555 1_555
C31_2 H17_2 1_555 1_555
C32_2 C31_2 1_555 1_555
H18_2 C32_2 1_555 1_555
C13_2 C14_2 1_555 1_555
H5_2 C10_2 1_555 1_555
C11_2 C10_2 1_555 1_555
H6_2 C11_2 1_555 1_555
O11 C29_2 1_555 1_555
C29_2 C30_2 1_555 1_555
C34_2 C33_2 1_555 1_555
H19_2 C34_2 1_555 1_555
C35_2 C30_2 1_555 1_555
H20_2 C35_2 1_555 1_555
C34_2 C35_2 1_555 1_555
O7_2 Tb3 1_555 1_555
Tb8_2 O17_2 1_555 1_555
O16 C36_2 1_555 1_555
O17_2 C36_2 1_555 1_555
C22_2 O8_2 1_555 1_555
C23_2 C22_2 1_555 1_555
C24_2 C23_2 1_555 1_555
H13_2 C24_2 1_555 1_555
C25_2 C24_2 1_555 1_555
H14_2 C25_2 1_555 1_555
C26_2 C25_2 1_555 1_555
C27_2 C26_2 1_555 1_555
H15_2 C27_2 1_555 1_555
C28_2 C23_2 1_555 1_555
C36_2 C37_2 1_555 1_555
C37_2 C38_2 1_555 1_555
C38_2 H21_2 1_555 1_555
C39_2 C38_2 1_555 1_555
H22_2 C39_2 1_555 1_555
C40_2 C26_2 1_555 1_555
C41_2 C40_2 1_555 1_555
H23_2 C41_2 1_555 1_555
C42_2 C37_2 1_555 1_555
H24_2 C42_2 1_555 1_555
O9_2 C22_2 1_555 1_555
C27_2 C28_2 1_555 1_555
C39_2 C40_2 1_555 1_555
C41_2 C42_2 1_555 1_555
Tb4_2 O1_3 1_555 1_555
O1_3 C1_3 1_555 1_555
O2_3 C1_3 1_555 1_555
O3_3 Tb4_2 1_555 1_555
O4_3 C8_3 1_555 1_555
O5_2 C15_3 1_555 1_555
O18_2 C15_3 1_555 1_555
O7_3 Tb4_2 1_555 1_555
C1_3 C2_3 1_555 1_555
C2_3 C3_3 1_555 1_555
C3_3 H1_3 1_555 1_555
C4_3 C3_3 1_555 1_555
H2_3 C4_3 1_555 1_555
C5_3 C4_3 1_555 1_555
C6_3 C5_3 1_555 1_555
H3_3 C6_3 1_555 1_555
C7_3 C2_3 1_555 1_555
H4_3 C7_3 1_555 1_555
C8_3 O3_3 1_555 1_555
C9_3 C8_3 1_555 1_555
C10_3 C9_3 1_555 1_555
H5_3 C10_3 1_555 1_555
C11_3 C10_3 1_555 1_555
H6_3 C11_3 1_555 1_555
C12_3 C11_3 1_555 1_555
C13_3 C12_3 1_555 1_555
H7_3 C13_3 1_555 1_555
C14_3 C9_3 1_555 1_555
H8_3 C14_3 1_555 1_555
C15_3 C16_3 1_555 1_555
C16_3 C17_3 1_555 1_555
C17_3 H9_3 1_555 1_555
C18_3 C17_3 1_555 1_555
H10_3 C18_3 1_555 1_555
C19_3 C5_3 1_555 1_555
C20_3 C19_3 1_555 1_555
H11_3 C20_3 1_555 1_555
C21_3 C16_3 1_555 1_555
H12_3 C21_3 1_555 1_555
Tb8_2 O2_3 1_555 1_555
Tb4 O5_2 1_555 1_555
Tb8 O14_2 1_555 1_555
O8_3 Tb8_2 1_555 1_555
O9_3 Tb4_2 1_555 1_555
O10_2 C29_3 1_555 1_555
O11_2 Tb8_2 1_555 1_555
O12_2 C29_3 1_555 1_555
O13_2 Tb4_2 1_555 1_555
O14_2 C36_3 1_555 1_555
O15_2 Tb4_2 1_555 1_555
O16_2 Tb8_2 1_555 1_555
O19_2 C36_3 1_555 1_555
O20_3 Tb8_2 1_555 1_555
C22_3 O8_3 1_555 1_555
C23_3 C22_3 1_555 1_555
C24_3 C23_3 1_555 1_555
H13_3 C24_3 1_555 1_555
C25_3 C24_3 1_555 1_555
H14_3 C25_3 1_555 1_555
C26_3 C25_3 1_555 1_555
C27_3 C26_3 1_555 1_555
H15_3 C27_3 1_555 1_555
C28_3 C23_3 1_555 1_555
H16_3 C28_3 1_555 1_555
C29_3 C30_3 1_555 1_555
C30_3 C31_3 1_555 1_555
C31_3 H17_3 1_555 1_555
C32_3 C31_3 1_555 1_555
H18_3 C32_3 1_555 1_555
C33_3 C12_3 1_555 1_555
C34_3 C33_3 1_555 1_555
H19_3 C34_3 1_555 1_555
C35_3 C30_3 1_555 1_555
H20_3 C35_3 1_555 1_555
C36_3 C37_3 1_555 1_555
C37_3 C38_3 1_555 1_555
C38_3 H21_3 1_555 1_555
C39_3 C38_3 1_555 1_555
H22_3 C39_3 1_555 1_555
C40_3 C26_3 1_555 1_555
C41_3 C40_3 1_555 1_555
H23_3 C41_3 1_555 1_555
C42_3 C37_3 1_555 1_555
H24_3 C42_3 1_555 1_555
O4_3 Tb8_2 1_555 1_555
C6_3 C7_3 1_555 1_555
C13_3 C14_3 1_555 1_555
C18_3 C19_3 1_555 1_555
C20_3 C21_3 1_555 1_555
O9_3 C22_3 1_555 1_555
C27_3 C28_3 1_555 1_555
C32_3 C33_3 1_555 1_555
C34_3 C35_3 1_555 1_555
C39_3 C40_3 1_555 1_555
C41_3 C42_3 1_555 1_555
O4_4 C8_4 1_555 1_555
C8_4 O3_4 1_555 1_555
C9_4 C8_4 1_555 1_555
C10_4 C9_4 1_555 1_555
H5_4 C10_4 1_555 1_555
C11_4 C10_4 1_555 1_555
H6_4 C11_4 1_555 1_555
C12_4 C11_4 1_555 1_555
C13_4 C12_4 1_555 1_555
H7_4 C13_4 1_555 1_555
C14_4 C9_4 1_555 1_555
H8_4 C14_4 1_555 1_555
O11_2 C29_4 1_555 1_555
O13_2 C29_4 1_555 1_555
C29_4 C30_4 1_555 1_555
C30_4 C31_4 1_555 1_555
C31_4 H17_4 1_555 1_555
C32_4 C31_4 1_555 1_555
H18_4 C32_4 1_555 1_555
C33_4 C12_4 1_555 1_555
C34_4 C33_4 1_555 1_555
H19_4 C34_4 1_555 1_555
C35_4 C30_4 1_555 1_555
H20_4 C35_4 1_555 1_555
C13_4 C14_4 1_555 1_555
C32_4 C33_4 1_555 1_555
C34_4 C35_4 1_555 1_555
O7_4 Tb4 1_555 1_555
O9_4 Tb4 1_555 1_555
O16_2 C36_4 1_555 1_555
O19 C36_4 1_555 1_555
C22_4 O8_4 1_555 1_555
C23_4 C22_4 1_555 1_555
C24_4 C23_4 1_555 1_555
H13_4 C24_4 1_555 1_555
C25_4 C24_4 1_555 1_555
H14_4 C25_4 1_555 1_555
C26_4 C25_4 1_555 1_555
C27_4 C26_4 1_555 1_555
H15_4 C27_4 1_555 1_555
C28_4 C23_4 1_555 1_555
H16_4 C28_4 1_555 1_555
C36_4 C37_4 1_555 1_555
C37_4 C38_4 1_555 1_555
C38_4 H21_4 1_555 1_555
C39_4 C38_4 1_555 1_555
H22_4 C39_4 1_555 1_555
C40_4 C26_4 1_555 1_555
C41_4 C40_4 1_555 1_555
H23_4 C41_4 1_555 1_555
C42_4 C37_4 1_555 1_555
H24_4 C42_4 1_555 1_555
O9_4 C22_4 1_555 1_555
C27_4 C28_4 1_555 1_555
C39_4 C40_4 1_555 1_555
C41_4 C42_4 1_555 1_555
O1_4 C1_4 1_555 1_555
O2_4 C1_4 1_555 1_555
O15_2 C15_4 1_555 1_555
O18 C15_4 1_555 1_555
C1_4 C2_4 1_555 1_555
C2_4 C3_4 1_555 1_555
C3_4 H1_4 1_555 1_555
C4_4 C3_4 1_555 1_555
H2_4 C4_4 1_555 1_555
C5_4 C4_4 1_555 1_555
C6_4 C5_4 1_555 1_555
H3_4 C6_4 1_555 1_555
C7_4 C2_4 1_555 1_555
H4_4 C7_4 1_555 1_555
C15_4 C16_4 1_555 1_555
C16_4 C17_4 1_555 1_555
C17_4 H9_4 1_555 1_555
C18_4 C17_4 1_555 1_555
H10_4 C18_4 1_555 1_555
C19_4 C5_4 1_555 1_555
C20_4 C19_4 1_555 1_555
H11_4 C20_4 1_555 1_555
C21_4 C16_4 1_555 1_555
H12_4 C21_4 1_555 1_555
Tb8 O2_4 1_555 1_555
O20_4 Tb8 1_555 1_555
C6_4 C7_4 1_555 1_555
C18_4 C19_4 1_555 1_555
C20_4 C21_4 1_555 1_555

#END
