
###############################################################################
#
# This file contains modified crystal structure data generated from the
# MOF subset of the Cambridge Structural Database (CSD) v543 
# hosted by the Cambridge Crystallographic Data Centre (CCDC).
#
# This work is licensed under the Creative Commons
# Attribution-NonCommercial-ShareAlike 4.0 International License.
# To view a copy of this license, visit
# http://creativecommons.org/licenses/by-nc-sa/4.0/
# or send a letter to
# Creative Commons, PO Box 1866, Mountain View, CA 94042, USA.
#
# CIF created using the CSD Python API on 29 September 2022
# The structure has been converted into the P1 space group
# The structure has a 3D framework
# The original CSD entry SAQQOR is in the monoclinic crystal system
# The framework has been calculated to contain at least 10.0% void space
# The void calculation uses a probe of radius 1.32A, grid spacing 0.4
# H atom positions have been added when not included in the experimental data
# Generated hydrogen atom positions removed from atoms on special positions
#
###############################################################################

data_SAQQOR
_chemical_formula_moiety         '(C168 H128 O55 Y8)n'
_symmetry_cell_setting           triclinic
_symmetry_space_group_name_H-M   'P 1'
_symmetry_Int_Tables_number      1
_space_group_name_Hall           'P 1'
loop_
_symmetry_equiv_pos_site_id
_symmetry_equiv_pos_as_xyz
1 x,y,z
_cell_length_a                   25.1904(14)
_cell_length_b                   17.1122(14)
_cell_length_c                   18.5799(12)
_cell_angle_alpha                90
_cell_angle_beta                 106.789(2)
_cell_angle_gamma                90
_cell_volume                     7667.72
loop_
_atom_site_label
_atom_site_type_symbol
_atom_site_fract_x
_atom_site_fract_y
_atom_site_fract_z
O1 O 0.06483(15) 0.5559(2) 0.1307(2)
C21 C 0.0794(2) 0.5883(3) 0.0796(3)
Y3 Y 0.497250(17) 0.95918(3) 0.10460(3)
Y8 Y 0.502750(17) 0.95918(3) 0.39540(3)
O10 O 0.05239(15) 0.4300(2) 0.2193(2)
O11 O 0.44761(15) 0.9300(2) 0.2807(2)
O16 O 0.42894(13) 0.9686(2) 0.1624(2)
O18 O 0.05735(15) 0.5728(3) 0.0113(2)
O19 O 0.06198(15) 0.3937(2) 0.0609(2)
C22 C 0.1944(3) 0.7178(5) 0.1926(4)
C23 C 0.2164(2) 0.7475(4) 0.1389(3)
C24 C 0.2656(2) 0.8006(4) 0.1583(3)
C25 C 0.3064(3) 0.7912(5) 0.2298(4)
C26 C 0.3529(3) 0.8376(4) 0.2475(3)
C27 C 0.3634(2) 0.8898(3) 0.1964(3)
C28 C 0.3234(2) 0.8984(4) 0.1274(3)
C29 C 0.2755(3) 0.8547(4) 0.1097(4)
C30 C 0.41681(19) 0.9343(3) 0.2150(3)
C38 C 0.1922(3) 0.7256(5) 0.0650(4)
C39 C 0.1471(3) 0.6764(5) 0.0451(4)
C40 C 0.1253(2) 0.6444(4) 0.0993(3)
C41 C 0.1490(3) 0.6671(5) 0.1747(4)
H8 H 0.212924 0.734274 0.251109
H12 H 0.300576 0.747725 0.269649
H15 H 0.382309 0.833164 0.303305
H16 H 0.330079 0.940327 0.086783
H22 H 0.20928 0.747868 0.0214573
H27 H 0.132081 0.645324 0.21858
H28 H 0.244702 0.86349 0.0555468
Y2 Y 0.002750(17) 0.54082(3) 0.89540(3)
O12 O 0.04895(15) 0.4275(2) 0.9412(2)
O14 O 0.07106(13) 0.5314(2) 0.8376(2)
O17 O 0.0263(2) 0.6735(2) 0.8810(3)
H24 H 0.128204 0.662313 0.986072
Y6 Y 0.502750(17) 0.04082(3) 0.89540(3)
Y1 Y 0.997250(17) 0.45918(3) 0.10460(3)
O3 O 0.95105(15) 0.5725(2) 0.0588(2)
O5 O 0.9737(2) 0.3265(2) 0.1190(3)
C10 C 0.7751(2) 0.7294(4) 0.0003(3)
C11 C 0.8021(3) 0.6789(5) 0.0585(4)
C12 C 0.8504(3) 0.6403(5) 0.0582(4)
C13 C 0.8746(2) 0.6504(3) 0.0021(3)
C16 C 0.9254(2) 0.6059(3) 0.0002(3)
O15 O 0.92894(13) 0.4686(2) 0.1624(2)
O20 O 0.56198(15) 0.8937(2) 0.0609(2)
C35 C 0.6498(3) 0.7951(5) 0.0540(4)
C36 C 0.6982(3) 0.7584(5) 0.0548(4)
H5 H 0.869592 0.60068 0.104229
H17 H 0.871796 0.337687 0.0139278
H18 H 0.784776 0.669672 0.105171
H21 H 0.62999 0.781813 0.0974709
H23 H 0.716646 0.717945 0.100414
O2 O 0.55239(15) 0.0700(2) 0.7193(2)
O4 O 0.57106(13) 0.0314(2) 0.8376(2)
O6 O 0.94265(15) 0.4272(3) 0.9887(2)
O7 O 0.93802(15) 0.6063(2) 0.9391(2)
C1 C 0.8056(3) 0.2822(5) 0.8074(4)
C2 C 0.7836(2) 0.2525(4) 0.8611(3)
C3 C 0.7344(2) 0.1994(4) 0.8417(3)
C4 C 0.6936(3) 0.2088(5) 0.7702(4)
C5 C 0.6471(3) 0.1624(4) 0.7525(3)
C6 C 0.6366(2) 0.1102(3) 0.8036(3)
C7 C 0.6766(2) 0.1016(4) 0.8726(3)
C8 C 0.7245(3) 0.1453(4) 0.8903(4)
C9 C 0.58319(19) 0.0657(3) 0.7850(3)
C14 C 0.8502(3) 0.7049(5) 0.9460(4)
C15 C 0.8018(3) 0.7416(5) 0.9452(4)
C17 C 0.8078(3) 0.2744(5) 0.9350(4)
C18 C 0.8529(3) 0.3236(5) 0.9549(4)
C19 C 0.8747(2) 0.3556(4) 0.9007(3)
C20 C 0.8510(3) 0.3329(5) 0.8253(4)
Y7 Y 0.497250(17) 0.04082(3) 0.60460(3)
O8 O 0.93517(15) 0.4441(2) 0.8693(2)
O9 O 0.94761(15) 0.5700(2) 0.7807(2)
O13 O 0.54895(15) 0.9275(2) 0.9412(2)
C31 C 0.7249(2) 0.7706(4) 0.9997(3)
C32 C 0.6979(3) 0.8211(5) 0.9415(4)
C33 C 0.6496(3) 0.8597(5) 0.9418(4)
C34 C 0.6254(2) 0.8496(3) 0.9979(3)
C37 C 0.5746(2) 0.8941(3) 0.9998(3)
C42 C 0.9206(2) 0.4117(3) 0.9204(3)
H1 H 0.699424 0.252275 0.730351
H2 H 0.617691 0.166836 0.696695
H3 H 0.787076 0.265726 0.748891
H4 H 0.867919 0.354676 0.78142
H9 H 0.755298 0.13651 0.944453
H10 H 0.669921 0.0596734 0.913217
H11 H 0.79072 0.252132 0.978543
H13 H 0.87001 0.718187 0.902529
H14 H 0.783354 0.782055 0.899586
H25 H 0.715224 0.830328 0.894829
H26 H 0.630408 0.89932 0.895771
Y8_2 Y 0.002750(17) 0.45918(3) 0.39540(3)
O1_2 O 0.56483(15) 0.0559(2) 0.1307(2)
O3_2 O 0.45105(15) 0.0725(2) 0.0588(2)
C10_2 C 0.2751(2) 0.2294(4) 0.0003(3)
C11_2 C 0.3021(3) 0.1789(5) 0.0585(4)
C12_2 C 0.3504(3) 0.1403(5) 0.0582(4)
C13_2 C 0.3746(2) 0.1504(3) 0.0021(3)
C16_2 C 0.4254(2) 0.1059(3) 0.0002(3)
C21_2 C 0.5794(2) 0.0883(3) 0.0796(3)
O11_2 O 0.94761(15) 0.4300(2) 0.2807(2)
O18_2 O 0.55735(15) 0.0728(3) 0.0113(2)
C22_2 C 0.6944(3) 0.2178(5) 0.1926(4)
C23_2 C 0.7164(2) 0.2475(4) 0.1389(3)
C24_2 C 0.7656(2) 0.3006(4) 0.1583(3)
C25_2 C 0.8064(3) 0.2912(5) 0.2298(4)
C26_2 C 0.8529(3) 0.3376(4) 0.2475(3)
C27_2 C 0.8634(2) 0.3898(3) 0.1964(3)
C28_2 C 0.8234(2) 0.3984(4) 0.1274(3)
C29_2 C 0.7755(3) 0.3547(4) 0.1097(4)
C30_2 C 0.91681(19) 0.4343(3) 0.2150(3)
C35_2 C 0.1498(3) 0.2951(5) 0.0540(4)
C36_2 C 0.1982(3) 0.2584(5) 0.0548(4)
C38_2 C 0.6922(3) 0.2256(5) 0.0650(4)
C39_2 C 0.6471(3) 0.1764(5) 0.0451(4)
C40_2 C 0.6253(2) 0.1444(4) 0.0993(3)
C41_2 C 0.6490(3) 0.1671(5) 0.1747(4)
H5_2 H 0.369592 0.10068 0.104229
H8_2 H 0.712924 0.234274 0.251109
H12_2 H 0.800576 0.247725 0.269649
H15_2 H 0.882309 0.333164 0.303305
H16_2 H 0.830079 0.440327 0.086783
H18_2 H 0.284776 0.169672 0.105171
H21_2 H 0.12999 0.281813 0.0974709
H22_2 H 0.70928 0.247868 0.0214573
H23_2 H 0.216646 0.217945 0.100414
H27_2 H 0.632081 0.145324 0.21858
H28_2 H 0.744702 0.36349 0.0555468
O7_2 O 0.43802(15) 0.1063(2) 0.9391(2)
C14_2 C 0.3502(3) 0.2049(5) 0.9460(4)
C15_2 C 0.3018(3) 0.2416(5) 0.9452(4)
O9_2 O 0.44761(15) 0.0700(2) 0.7807(2)
O17_2 O 0.5263(2) 0.1735(2) 0.8810(3)
C31_2 C 0.2249(2) 0.2706(4) 0.9997(3)
C32_2 C 0.1979(3) 0.3211(5) 0.9415(4)
C33_2 C 0.1496(3) 0.3597(5) 0.9418(4)
C34_2 C 0.1254(2) 0.3496(3) 0.9979(3)
C37_2 C 0.0746(2) 0.3941(3) 0.9998(3)
H13_2 H 0.37001 0.218187 0.902529
H14_2 H 0.283354 0.282055 0.899586
H24_2 H 0.628204 0.162313 0.986072
H25_2 H 0.215224 0.330328 0.894829
H26_2 H 0.130408 0.39932 0.895771
O5_2 O 0.4737(2) 0.8265(2) 0.1190(3)
O10_2 O 0.55239(15) 0.9300(2) 0.2193(2)
H17_2 H 0.371796 0.837687 0.0139278
O2_2 O 0.05239(15) 0.5700(2) 0.7193(2)
O6_2 O 0.44265(15) 0.9272(3) 0.9887(2)
C1_2 C 0.3056(3) 0.7822(5) 0.8074(4)
C2_2 C 0.2836(2) 0.7525(4) 0.8611(3)
C3_2 C 0.2344(2) 0.6994(4) 0.8417(3)
C4_2 C 0.1936(3) 0.7088(5) 0.7702(4)
C5_2 C 0.1471(3) 0.6624(4) 0.7525(3)
C6_2 C 0.1366(2) 0.6102(3) 0.8036(3)
C7_2 C 0.1766(2) 0.6016(4) 0.8726(3)
C8_2 C 0.2245(3) 0.6453(4) 0.8903(4)
C9_2 C 0.08319(19) 0.5657(3) 0.7850(3)
C17_2 C 0.3078(3) 0.7744(5) 0.9350(4)
C18_2 C 0.3529(3) 0.8236(5) 0.9549(4)
C19_2 C 0.3747(2) 0.8556(4) 0.9007(3)
C20_2 C 0.3510(3) 0.8329(5) 0.8253(4)
O8_2 O 0.43517(15) 0.9441(2) 0.8693(2)
C42_2 C 0.4206(2) 0.9117(3) 0.9204(3)
H1_2 H 0.199424 0.752275 0.730351
H2_2 H 0.117691 0.666836 0.696695
H3_2 H 0.287076 0.765726 0.748891
H4_2 H 0.367919 0.854676 0.78142
H9_2 H 0.255298 0.63651 0.944453
H10_2 H 0.169921 0.559673 0.913217
H11_2 H 0.29072 0.752132 0.978543
Y7_2 Y 0.997250(17) 0.54082(3) 0.60460(3)
O3_3 O 0.04895(15) 0.5725(2) 0.4412(2)
O4_2 O 0.42894(13) 0.0314(2) 0.6624(2)
O5_3 O 0.0263(2) 0.3265(2) 0.3810(3)
O6_3 O 0.05735(15) 0.4272(3) 0.5113(2)
O7_3 O 0.06198(15) 0.6063(2) 0.5609(2)
C1_3 C 0.1944(3) 0.2822(5) 0.6926(4)
C2_3 C 0.2164(2) 0.2525(4) 0.6389(3)
C3_3 C 0.2656(2) 0.1994(4) 0.6583(3)
C4_3 C 0.3064(3) 0.2088(5) 0.7298(4)
C5_3 C 0.3529(3) 0.1624(4) 0.7475(3)
C6_3 C 0.3634(2) 0.1102(3) 0.6964(3)
C7_3 C 0.3234(2) 0.1016(4) 0.6274(3)
C8_3 C 0.2755(3) 0.1453(4) 0.6097(4)
C9_3 C 0.41681(19) 0.0657(3) 0.7150(3)
C10_3 C 0.2249(2) 0.7294(4) 0.4997(3)
C11_3 C 0.1979(3) 0.6789(5) 0.4415(4)
C12_3 C 0.1496(3) 0.6403(5) 0.4418(4)
C13_3 C 0.1254(2) 0.6504(3) 0.4979(3)
C14_3 C 0.1498(3) 0.7049(5) 0.5540(4)
C15_3 C 0.1982(3) 0.7416(5) 0.5548(4)
C16_3 C 0.0746(2) 0.6059(3) 0.4998(3)
C17_3 C 0.1922(3) 0.2744(5) 0.5650(4)
C18_3 C 0.1471(3) 0.3236(5) 0.5451(4)
C19_3 C 0.1253(2) 0.3556(4) 0.5993(3)
C20_3 C 0.1490(3) 0.3329(5) 0.6747(4)
O8_3 O 0.06483(15) 0.4441(2) 0.6307(2)
O13_2 O 0.45105(15) 0.9275(2) 0.5588(2)
O15_2 O 0.07106(13) 0.4686(2) 0.3376(2)
O20_2 O 0.43802(15) 0.8937(2) 0.4391(2)
C31_3 C 0.2751(2) 0.7706(4) 0.5003(3)
C32_3 C 0.3021(3) 0.8211(5) 0.5585(4)
C33_3 C 0.3504(3) 0.8597(5) 0.5582(4)
C34_3 C 0.3746(2) 0.8496(3) 0.5021(3)
C35_3 C 0.3502(3) 0.7951(5) 0.4460(4)
C36_3 C 0.3018(3) 0.7584(5) 0.4452(4)
C37_3 C 0.4254(2) 0.8941(3) 0.5002(3)
C42_3 C 0.0794(2) 0.4117(3) 0.5796(3)
H1_3 H 0.300576 0.252275 0.769649
H2_3 H 0.382309 0.166836 0.803305
H3_3 H 0.212924 0.265726 0.751109
H4_3 H 0.132081 0.354676 0.71858
H5_3 H 0.130408 0.60068 0.395771
H9_3 H 0.244702 0.13651 0.555547
H10_3 H 0.330079 0.0596734 0.586783
H11_3 H 0.20928 0.252132 0.521457
H13_3 H 0.12999 0.718187 0.597471
H14_3 H 0.216646 0.782055 0.600414
H17_3 H 0.128204 0.337687 0.486072
H18_3 H 0.215224 0.669672 0.394829
H21_3 H 0.37001 0.781813 0.402529
H23_3 H 0.283354 0.717945 0.399586
H25_3 H 0.284776 0.830328 0.605171
H26_3 H 0.369592 0.89932 0.604229
O1_3 O 0.93517(15) 0.5559(2) 0.3693(2)
C21_3 C 0.9206(2) 0.5883(3) 0.4204(3)
O12_2 O 0.95105(15) 0.4275(2) 0.5588(2)
O14_2 O 0.92894(13) 0.5314(2) 0.6624(2)
O16_2 O 0.57106(13) 0.9686(2) 0.3376(2)
O17_3 O 0.9737(2) 0.6735(2) 0.6190(3)
O18_3 O 0.94265(15) 0.5728(3) 0.4887(2)
O19_2 O 0.93802(15) 0.3937(2) 0.4391(2)
C22_3 C 0.8056(3) 0.7178(5) 0.3074(4)
C23_3 C 0.7836(2) 0.7475(4) 0.3611(3)
C24_3 C 0.7344(2) 0.8006(4) 0.3417(3)
C25_3 C 0.6936(3) 0.7912(5) 0.2702(4)
C26_3 C 0.6471(3) 0.8376(4) 0.2525(3)
C27_3 C 0.6366(2) 0.8898(3) 0.3036(3)
C28_3 C 0.6766(2) 0.8984(4) 0.3726(3)
C29_3 C 0.7245(3) 0.8547(4) 0.3903(4)
C30_3 C 0.58319(19) 0.9343(3) 0.2850(3)
C38_3 C 0.8078(3) 0.7256(5) 0.4350(4)
C39_3 C 0.8529(3) 0.6764(5) 0.4549(4)
C40_3 C 0.8747(2) 0.6444(4) 0.4007(3)
C41_3 C 0.8510(3) 0.6671(5) 0.3253(4)
H8_3 H 0.787076 0.734274 0.248891
H12_3 H 0.699424 0.747725 0.230351
H15_3 H 0.617691 0.833164 0.196695
H16_3 H 0.669921 0.940327 0.413217
H22_3 H 0.79072 0.747868 0.478543
H24_3 H 0.871796 0.662313 0.513928
H27_3 H 0.867919 0.645324 0.28142
H28_3 H 0.755298 0.86349 0.444453
O1_4 O 0.43517(15) 0.0559(2) 0.3693(2)
O3_4 O 0.54895(15) 0.0725(2) 0.4412(2)
O7_4 O 0.56198(15) 0.1063(2) 0.5609(2)
C10_4 C 0.7249(2) 0.2294(4) 0.4997(3)
C11_4 C 0.6979(3) 0.1789(5) 0.4415(4)
C12_4 C 0.6496(3) 0.1403(5) 0.4418(4)
C13_4 C 0.6254(2) 0.1504(3) 0.4979(3)
C14_4 C 0.6498(3) 0.2049(5) 0.5540(4)
C15_4 C 0.6982(3) 0.2416(5) 0.5548(4)
C16_4 C 0.5746(2) 0.1059(3) 0.4998(3)
C21_4 C 0.4206(2) 0.0883(3) 0.4204(3)
O17_4 O 0.4737(2) 0.1735(2) 0.6190(3)
O18_4 O 0.44265(15) 0.0728(3) 0.4887(2)
C22_4 C 0.3056(3) 0.2178(5) 0.3074(4)
C23_4 C 0.2836(2) 0.2475(4) 0.3611(3)
C24_4 C 0.2344(2) 0.3006(4) 0.3417(3)
C25_4 C 0.1936(3) 0.2912(5) 0.2702(4)
C26_4 C 0.1471(3) 0.3376(4) 0.2525(3)
C27_4 C 0.1366(2) 0.3898(3) 0.3036(3)
C28_4 C 0.1766(2) 0.3984(4) 0.3726(3)
C29_4 C 0.2245(3) 0.3547(4) 0.3903(4)
C30_4 C 0.08319(19) 0.4343(3) 0.2850(3)
C31_4 C 0.7751(2) 0.2706(4) 0.5003(3)
C32_4 C 0.8021(3) 0.3211(5) 0.5585(4)
C33_4 C 0.8504(3) 0.3597(5) 0.5582(4)
C34_4 C 0.8746(2) 0.3496(3) 0.5021(3)
C35_4 C 0.8502(3) 0.2951(5) 0.4460(4)
C36_4 C 0.8018(3) 0.2584(5) 0.4452(4)
C37_4 C 0.9254(2) 0.3941(3) 0.5002(3)
C38_4 C 0.3078(3) 0.2256(5) 0.4350(4)
C39_4 C 0.3529(3) 0.1764(5) 0.4549(4)
C40_4 C 0.3747(2) 0.1444(4) 0.4007(3)
C41_4 C 0.3510(3) 0.1671(5) 0.3253(4)
H5_4 H 0.630408 0.10068 0.395771
H8_4 H 0.287076 0.234274 0.248891
H12_4 H 0.199424 0.247725 0.230351
H13_4 H 0.62999 0.218187 0.597471
H14_4 H 0.716646 0.282055 0.600414
H15_4 H 0.117691 0.333164 0.196695
H16_4 H 0.169921 0.440327 0.413217
H18_4 H 0.715224 0.169672 0.394829
H21_4 H 0.87001 0.281813 0.402529
H22_4 H 0.29072 0.247868 0.478543
H23_4 H 0.783354 0.217945 0.399586
H24_4 H 0.371796 0.162313 0.513928
H25_4 H 0.784776 0.330328 0.605171
H26_4 H 0.869592 0.39932 0.604229
H27_4 H 0.367919 0.145324 0.28142
H28_4 H 0.255298 0.36349 0.444453
O5_4 O 0.5263(2) 0.8265(2) 0.3810(3)
O6_4 O 0.55735(15) 0.9272(3) 0.5113(2)
C1_4 C 0.6944(3) 0.7822(5) 0.6926(4)
C2_4 C 0.7164(2) 0.7525(4) 0.6389(3)
C3_4 C 0.7656(2) 0.6994(4) 0.6583(3)
C4_4 C 0.8064(3) 0.7088(5) 0.7298(4)
C5_4 C 0.8529(3) 0.6624(4) 0.7475(3)
C6_4 C 0.8634(2) 0.6102(3) 0.6964(3)
C7_4 C 0.8234(2) 0.6016(4) 0.6274(3)
C8_4 C 0.7755(3) 0.6453(4) 0.6097(4)
C9_4 C 0.91681(19) 0.5657(3) 0.7150(3)
C17_4 C 0.6922(3) 0.7744(5) 0.5650(4)
C18_4 C 0.6471(3) 0.8236(5) 0.5451(4)
C19_4 C 0.6253(2) 0.8556(4) 0.5993(3)
C20_4 C 0.6490(3) 0.8329(5) 0.6747(4)
O8_4 O 0.56483(15) 0.9441(2) 0.6307(2)
C42_4 C 0.5794(2) 0.9117(3) 0.5796(3)
H1_4 H 0.800576 0.752275 0.769649
H2_4 H 0.882309 0.666836 0.803305
H3_4 H 0.712924 0.765726 0.751109
H4_4 H 0.632081 0.854676 0.71858
H9_4 H 0.744702 0.63651 0.555547
H10_4 H 0.830079 0.559673 0.586783
H11_4 H 0.70928 0.752132 0.521457
H17_4 H 0.628204 0.837687 0.486072
loop_
_geom_bond_atom_site_label_1
_geom_bond_atom_site_label_2
_geom_bond_site_symmetry_1
_geom_bond_site_symmetry_2
O1 C21 1_555 1_555
C21 O18 1_555 1_555
Y3 O16 1_555 1_555
Y8 O11 1_555 1_555
O11 C30 1_555 1_555
O16 C30 1_555 1_555
C22 C23 1_555 1_555
C23 C24 1_555 1_555
C24 C25 1_555 1_555
C25 C26 1_555 1_555
C26 C27 1_555 1_555
C27 C28 1_555 1_555
C28 C29 1_555 1_555
C29 C24 1_555 1_555
C30 C27 1_555 1_555
C38 C23 1_555 1_555
C39 C38 1_555 1_555
C40 C21 1_555 1_555
C41 C22 1_555 1_555
C39 C40 1_555 1_555
C40 C41 1_555 1_555
C22 H8 1_555 1_555
C25 H12 1_555 1_555
C26 H15 1_555 1_555
C28 H16 1_555 1_555
C38 H22 1_555 1_555
C41 H27 1_555 1_555
C29 H28 1_555 1_555
O12 Y2 1_555 1_555
O14 Y2 1_555 1_555
O17 Y2 1_555 1_555
O3 Y1 1_555 1_555
O5 Y1 1_555 1_555
C10 C11 1_555 1_555
C11 C12 1_555 1_555
C12 C13 1_555 1_555
C16 O3 1_555 1_555
Y3 O20 1_555 1_555
O15 Y1 1_555 1_555
C13 C16 1_555 1_555
C35 C36 1_555 1_555
C12 H5 1_555 1_555
C11 H18 1_555 1_555
C35 H21 1_555 1_555
C36 H23 1_555 1_555
O2 C9 1_555 1_555
O4 C9 1_555 1_555
C1 C2 1_555 1_555
C2 C3 1_555 1_555
C3 C4 1_555 1_555
C4 C5 1_555 1_555
C5 C6 1_555 1_555
C6 C7 1_555 1_555
C7 C8 1_555 1_555
C8 C3 1_555 1_555
C9 C6 1_555 1_555
C14 C15 1_555 1_555
C17 C2 1_555 1_555
C18 C17 1_555 1_555
C19 C18 1_555 1_555
C20 C1 1_555 1_555
Y6 O4 1_555 1_555
Y7 O2 1_555 1_555
O13 C37 1_555 1_555
C32 C31 1_555 1_555
C33 C32 1_555 1_555
C34 C33 1_555 1_555
C37 C34 1_555 1_555
C42 O6 1_555 1_555
C19 C20 1_555 1_555
C19 C42 1_555 1_555
O8 C42 1_555 1_555
C4 H1 1_555 1_555
C5 H2 1_555 1_555
C1 H3 1_555 1_555
C20 H4 1_555 1_555
C8 H9 1_555 1_555
C7 H10 1_555 1_555
C17 H11 1_555 1_555
C14 H13 1_555 1_555
C15 H14 1_555 1_555
C32 H25 1_555 1_555
C33 H26 1_555 1_555
O1_2 C21_2 1_555 1_555
C10_2 C11_2 1_555 1_555
C11_2 C12_2 1_555 1_555
C12_2 C13_2 1_555 1_555
C16_2 O3_2 1_555 1_555
C21_2 O18_2 1_555 1_555
O11_2 C30_2 1_555 1_555
O15 C30_2 1_555 1_555
C22_2 C23_2 1_555 1_555
C23_2 C24_2 1_555 1_555
C24_2 C25_2 1_555 1_555
C25_2 C26_2 1_555 1_555
C26_2 C27_2 1_555 1_555
C27_2 C28_2 1_555 1_555
C28_2 C29_2 1_555 1_555
C29_2 C24_2 1_555 1_555
C30_2 C27_2 1_555 1_555
C38_2 C23_2 1_555 1_555
C39_2 C38_2 1_555 1_555
C40_2 C21_2 1_555 1_555
C41_2 C22_2 1_555 1_555
C13_2 C16_2 1_555 1_555
C35_2 C36_2 1_555 1_555
C39_2 C40_2 1_555 1_555
C40_2 C41_2 1_555 1_555
C12_2 H5_2 1_555 1_555
C22_2 H8_2 1_555 1_555
C25_2 H12_2 1_555 1_555
C26_2 H15_2 1_555 1_555
C28_2 H16_2 1_555 1_555
C11_2 H18_2 1_555 1_555
C35_2 H21_2 1_555 1_555
C38_2 H22_2 1_555 1_555
C36_2 H23_2 1_555 1_555
C41_2 H27_2 1_555 1_555
C29_2 H28_2 1_555 1_555
C14_2 C15_2 1_555 1_555
Y6 O7_2 1_555 1_555
O9_2 Y6 1_555 1_555
O12 C37_2 1_555 1_555
O17_2 Y6 1_555 1_555
C32_2 C31_2 1_555 1_555
C33_2 C32_2 1_555 1_555
C34_2 C33_2 1_555 1_555
C37_2 C34_2 1_555 1_555
C14_2 H13_2 1_555 1_555
C15_2 H14_2 1_555 1_555
C32_2 H25_2 1_555 1_555
C33_2 H26_2 1_555 1_555
O5_2 Y3 1_555 1_555
O10_2 Y3 1_555 1_555
O2_2 C9_2 1_555 1_555
O14 C9_2 1_555 1_555
C1_2 C2_2 1_555 1_555
C2_2 C3_2 1_555 1_555
C3_2 C4_2 1_555 1_555
C4_2 C5_2 1_555 1_555
C5_2 C6_2 1_555 1_555
C6_2 C7_2 1_555 1_555
C7_2 C8_2 1_555 1_555
C8_2 C3_2 1_555 1_555
C9_2 C6_2 1_555 1_555
C17_2 C2_2 1_555 1_555
C18_2 C17_2 1_555 1_555
C19_2 C18_2 1_555 1_555
C20_2 C1_2 1_555 1_555
C42_2 O6_2 1_555 1_555
C19_2 C20_2 1_555 1_555
C19_2 C42_2 1_555 1_555
O8_2 C42_2 1_555 1_555
C4_2 H1_2 1_555 1_555
C5_2 H2_2 1_555 1_555
C1_2 H3_2 1_555 1_555
C20_2 H4_2 1_555 1_555
C8_2 H9_2 1_555 1_555
C7_2 H10_2 1_555 1_555
C17_2 H11_2 1_555 1_555
O9_2 C9_3 1_555 1_555
O3_3 Y8_2 1_555 1_555
O4_2 C9_3 1_555 1_555
O5_3 Y8_2 1_555 1_555
O6_3 Y8_2 1_555 1_555
O7_3 C16_3 1_555 1_555
C1_3 C2_3 1_555 1_555
C2_3 C3_3 1_555 1_555
C3_3 C4_3 1_555 1_555
C4_3 C5_3 1_555 1_555
C5_3 C6_3 1_555 1_555
C6_3 C7_3 1_555 1_555
C7_3 C8_3 1_555 1_555
C8_3 C3_3 1_555 1_555
C9_3 C6_3 1_555 1_555
C10_3 C11_3 1_555 1_555
C11_3 C12_3 1_555 1_555
C12_3 C13_3 1_555 1_555
C13_3 C14_3 1_555 1_555
C14_3 C15_3 1_555 1_555
C15_3 C10_3 1_555 1_555
C16_3 O3_3 1_555 1_555
C17_3 C2_3 1_555 1_555
C18_3 C17_3 1_555 1_555
C19_3 C18_3 1_555 1_555
C20_3 C1_3 1_555 1_555
Y7 O4_2 1_555 1_555
Y8 O20_2 1_555 1_555
O13_2 C37_3 1_555 1_555
O15_2 Y8_2 1_555 1_555
O20_2 C37_3 1_555 1_555
C31_3 C10_3 1_555 1_555
C32_3 C31_3 1_555 1_555
C33_3 C32_3 1_555 1_555
C34_3 C33_3 1_555 1_555
C35_3 C34_3 1_555 1_555
C36_3 C31_3 1_555 1_555
C37_3 C34_3 1_555 1_555
C42_3 O6_3 1_555 1_555
C13_3 C16_3 1_555 1_555
C19_3 C20_3 1_555 1_555
C19_3 C42_3 1_555 1_555
O8_3 C42_3 1_555 1_555
C35_3 C36_3 1_555 1_555
C4_3 H1_3 1_555 1_555
C5_3 H2_3 1_555 1_555
C1_3 H3_3 1_555 1_555
C20_3 H4_3 1_555 1_555
C12_3 H5_3 1_555 1_555
C8_3 H9_3 1_555 1_555
C7_3 H10_3 1_555 1_555
C17_3 H11_3 1_555 1_555
C14_3 H13_3 1_555 1_555
C15_3 H14_3 1_555 1_555
C18_3 H17_3 1_555 1_555
C11_3 H18_3 1_555 1_555
C35_3 H21_3 1_555 1_555
C36_3 H23_3 1_555 1_555
C32_3 H25_3 1_555 1_555
C33_3 H26_3 1_555 1_555
O1_3 C21_3 1_555 1_555
C21_3 O18_3 1_555 1_555
Y8 O16_2 1_555 1_555
O10_2 C30_3 1_555 1_555
O12_2 Y7_2 1_555 1_555
O14_2 Y7_2 1_555 1_555
O16_2 C30_3 1_555 1_555
O17_3 Y7_2 1_555 1_555
O18_3 Y7_2 1_555 1_555
C22_3 C23_3 1_555 1_555
C23_3 C24_3 1_555 1_555
C24_3 C25_3 1_555 1_555
C25_3 C26_3 1_555 1_555
C26_3 C27_3 1_555 1_555
C27_3 C28_3 1_555 1_555
C28_3 C29_3 1_555 1_555
C29_3 C24_3 1_555 1_555
C30_3 C27_3 1_555 1_555
C38_3 C23_3 1_555 1_555
C39_3 C38_3 1_555 1_555
C40_3 C21_3 1_555 1_555
C41_3 C22_3 1_555 1_555
C39_3 C40_3 1_555 1_555
C40_3 C41_3 1_555 1_555
C22_3 H8_3 1_555 1_555
C25_3 H12_3 1_555 1_555
C26_3 H15_3 1_555 1_555
C28_3 H16_3 1_555 1_555
C38_3 H22_3 1_555 1_555
C39_3 H24_3 1_555 1_555
C41_3 H27_3 1_555 1_555
C29_3 H28_3 1_555 1_555
O1_4 C21_4 1_555 1_555
O7_4 C16_4 1_555 1_555
C10_4 C11_4 1_555 1_555
C11_4 C12_4 1_555 1_555
C12_4 C13_4 1_555 1_555
C13_4 C14_4 1_555 1_555
C14_4 C15_4 1_555 1_555
C15_4 C10_4 1_555 1_555
C16_4 O3_4 1_555 1_555
C21_4 O18_4 1_555 1_555
Y7 O7_4 1_555 1_555
O10 C30_4 1_555 1_555
O12_2 C37_4 1_555 1_555
O15_2 C30_4 1_555 1_555
O17_4 Y7 1_555 1_555
O18_4 Y7 1_555 1_555
O19_2 C37_4 1_555 1_555
C22_4 C23_4 1_555 1_555
C23_4 C24_4 1_555 1_555
C24_4 C25_4 1_555 1_555
C25_4 C26_4 1_555 1_555
C26_4 C27_4 1_555 1_555
C27_4 C28_4 1_555 1_555
C28_4 C29_4 1_555 1_555
C29_4 C24_4 1_555 1_555
C30_4 C27_4 1_555 1_555
C31_4 C10_4 1_555 1_555
C32_4 C31_4 1_555 1_555
C33_4 C32_4 1_555 1_555
C34_4 C33_4 1_555 1_555
C35_4 C34_4 1_555 1_555
C36_4 C31_4 1_555 1_555
C37_4 C34_4 1_555 1_555
C38_4 C23_4 1_555 1_555
C39_4 C38_4 1_555 1_555
C40_4 C21_4 1_555 1_555
C41_4 C22_4 1_555 1_555
C13_4 C16_4 1_555 1_555
C35_4 C36_4 1_555 1_555
C39_4 C40_4 1_555 1_555
C40_4 C41_4 1_555 1_555
C12_4 H5_4 1_555 1_555
C22_4 H8_4 1_555 1_555
C25_4 H12_4 1_555 1_555
C14_4 H13_4 1_555 1_555
C15_4 H14_4 1_555 1_555
C26_4 H15_4 1_555 1_555
C28_4 H16_4 1_555 1_555
C11_4 H18_4 1_555 1_555
C35_4 H21_4 1_555 1_555
C38_4 H22_4 1_555 1_555
C36_4 H23_4 1_555 1_555
C39_4 H24_4 1_555 1_555
C32_4 H25_4 1_555 1_555
C33_4 H26_4 1_555 1_555
C41_4 H27_4 1_555 1_555
C29_4 H28_4 1_555 1_555
O9 C9_4 1_555 1_555
O14_2 C9_4 1_555 1_555
O5_4 Y8 1_555 1_555
O6_4 Y8 1_555 1_555
C1_4 C2_4 1_555 1_555
C2_4 C3_4 1_555 1_555
C3_4 C4_4 1_555 1_555
C4_4 C5_4 1_555 1_555
C5_4 C6_4 1_555 1_555
C6_4 C7_4 1_555 1_555
C7_4 C8_4 1_555 1_555
C8_4 C3_4 1_555 1_555
C9_4 C6_4 1_555 1_555
C17_4 C2_4 1_555 1_555
C18_4 C17_4 1_555 1_555
C19_4 C18_4 1_555 1_555
C20_4 C1_4 1_555 1_555
C42_4 O6_4 1_555 1_555
C19_4 C20_4 1_555 1_555
C19_4 C42_4 1_555 1_555
O8_4 C42_4 1_555 1_555
C4_4 H1_4 1_555 1_555
C5_4 H2_4 1_555 1_555
C1_4 H3_4 1_555 1_555
C20_4 H4_4 1_555 1_555
C8_4 H9_4 1_555 1_555
C7_4 H10_4 1_555 1_555
C17_4 H11_4 1_555 1_555
C18_4 H17_4 1_555 1_555

#END
