
###############################################################################
#
# This file contains modified crystal structure data generated from the
# MOF subset of the Cambridge Structural Database (CSD) v543 
# hosted by the Cambridge Crystallographic Data Centre (CCDC).
#
# This work is licensed under the Creative Commons
# Attribution-NonCommercial-ShareAlike 4.0 International License.
# To view a copy of this license, visit
# http://creativecommons.org/licenses/by-nc-sa/4.0/
# or send a letter to
# Creative Commons, PO Box 1866, Mountain View, CA 94042, USA.
#
# CIF created using the CSD Python API on 29 September 2022
# The structure has been converted into the P1 space group
# The structure has a 3D framework
# The original CSD entry SAQQEH is in the monoclinic crystal system
# The framework has been calculated to contain at least 10.0% void space
# The void calculation uses a probe of radius 1.32A, grid spacing 0.4
# H atom positions have been added when not included in the experimental data
# Generated hydrogen atom positions removed from atoms on special positions
#
###############################################################################

data_SAQQEH
_chemical_formula_moiety         '(C168 H128 Ho8 O55)n'
_symmetry_cell_setting           triclinic
_symmetry_space_group_name_H-M   'P 1'
_symmetry_Int_Tables_number      1
_space_group_name_Hall           'P 1'
loop_
_symmetry_equiv_pos_site_id
_symmetry_equiv_pos_as_xyz
1 x,y,z
_cell_length_a                   25.2219(14)
_cell_length_b                   17.0779(14)
_cell_length_c                   18.5141(12)
_cell_angle_alpha                90
_cell_angle_beta                 106.887(2)
_cell_angle_gamma                90
_cell_volume                     7630.84
loop_
_atom_site_label
_atom_site_type_symbol
_atom_site_fract_x
_atom_site_fract_y
_atom_site_fract_z
O5 O 0.0652(3) 0.0547(4) 0.1334(4)
Ho4 Ho 0.497250(14) 0.45909(2) 0.104340(19)
Ho8 Ho 0.502750(14) 0.45909(2) 0.395660(19)
O8 O 0.0579(2) 0.0711(4) 0.0127(3)
O11 O 0.42866(19) 0.4679(3) 0.1610(3)
O16 O 0.4477(2) 0.4282(4) 0.2791(3)
C22 C 0.0793(4) 0.0870(5) 0.0804(5)
C23 C 0.1258(3) 0.1433(5) 0.0997(5)
C24 C 0.1505(5) 0.1676(7) 0.1754(5)
H13 H 0.1362 0.1493 0.2132
C25 C 0.1942(5) 0.2164(7) 0.1934(6)
H14 H 0.2094 0.2302 0.2437
C26 C 0.2175(4) 0.2473(6) 0.1406(5)
C27 C 0.1911(4) 0.2250(7) 0.0665(5)
H15 H 0.2044 0.2449 0.0283
C28 C 0.1469(4) 0.1757(8) 0.0471(6)
C36 C 0.4172(3) 0.4331(4) 0.2142(5)
C37 C 0.3640(3) 0.3882(5) 0.1954(5)
C38 C 0.3234(4) 0.3975(6) 0.1280(5)
H21 H 0.3288 0.4337 0.0933
C39 C 0.2750(4) 0.3548(6) 0.1102(5)
H22 H 0.2480 0.3640 0.0647
C40 C 0.2659(4) 0.2980(6) 0.1593(5)
C41 C 0.3073(4) 0.2903(7) 0.2293(5)
H23 H 0.3024 0.2540 0.2643
C42 C 0.3536(4) 0.3341(6) 0.2466(5)
H24 H 0.3793 0.3283 0.2937
Ho2 Ho 0.002750(14) 0.04091(2) 0.895660(19)
O9 O 0.07134(19) 0.0321(3) 0.8390(3)
O20 O 0.0275(3) 0.1749(4) 0.8819(4)
H16 H 0.1307 0.1638 0.9965
O3 O 0.0617(2) 0.8943(4) 0.0603(3)
C10 C 0.1508(5) 0.7969(9) 0.0544(7)
H5 H 0.1351 0.7882 0.0934
C11 C 0.1981(5) 0.7566(7) 0.0538(6)
H6 H 0.2128 0.7195 0.0910
O15 O 0.0523(2) 0.9282(4) 0.2209(3)
O19 O 0.4511(2) 0.5734(3) 0.0595(3)
C29 C 0.4254(3) 0.6063(5) 0.0009(5)
C30 C 0.3740(4) 0.6495(5) 0.0021(5)
C33 C 0.2763(4) 0.7294(6) 0.0010(5)
C34 C 0.3027(5) 0.6784(7) 0.0575(6)
H19 H 0.2879 0.6710 0.0976
C35 C 0.3496(4) 0.6378(7) 0.0577(6)
H20 H 0.3649 0.6021 0.0961
O6 O 0.0489(2) 0.9266(3) 0.9405(3)
C8 C 0.0746(3) 0.8937(5) 0.9991(5)
C9 C 0.1260(4) 0.8505(5) 0.9979(5)
C12 C 0.2237(4) 0.7706(6) 0.9990(5)
C13 C 0.1973(5) 0.8216(7) 0.9425(6)
H7 H 0.2121 0.8290 0.9024
C14 C 0.1504(4) 0.8622(7) 0.9423(6)
H8 H 0.1351 0.8979 0.9039
Ho6 Ho 0.502750(14) 0.54091(2) 0.895660(19)
O13 O 0.4383(2) 0.6057(4) 0.9397(3)
C31 C 0.3492(5) 0.7031(9) 0.9456(7)
H17 H 0.3649 0.7118 0.9066
C32 C 0.3019(5) 0.7434(7) 0.9462(6)
H18 H 0.2872 0.7805 0.9090
O18 O 0.9511(2) 0.0734(3) 0.0595(3)
O12 O 0.9383(2) 0.1057(4) 0.9397(3)
O14 O 0.9477(2) 0.0718(4) 0.7791(3)
H28 H 0.993435 0.205917 0.859132
Ho1 Ho 0.997250(14) 0.95909(2) 0.104340(19)
O7 O 0.9725(3) 0.8251(4) 0.1181(4)
H4 H 0.8693 0.8362 0.0035
O10 O 0.92866(19) 0.9679(3) 0.1610(3)
O1 O 0.9421(2) 0.9289(4) 0.9873(3)
O2 O 0.57134(19) 0.5321(3) 0.8390(3)
O4 O 0.5523(2) 0.5718(4) 0.7209(3)
C1 C 0.9207(4) 0.9130(5) 0.9196(5)
C2 C 0.8742(3) 0.8567(5) 0.9003(5)
C3 C 0.8495(5) 0.8324(7) 0.8246(5)
H1 H 0.8638 0.8507 0.7868
C4 C 0.8058(5) 0.7836(7) 0.8066(6)
H2 H 0.7906 0.7698 0.7563
C5 C 0.7825(4) 0.7527(6) 0.8594(5)
C6 C 0.8089(4) 0.7750(7) 0.9335(5)
H3 H 0.7956 0.7551 0.9717
C7 C 0.8531(4) 0.8243(8) 0.9529(6)
C15 C 0.5828(3) 0.5669(4) 0.7858(5)
C16 C 0.6360(3) 0.6118(5) 0.8046(5)
C17 C 0.6766(4) 0.6025(6) 0.8720(5)
H9 H 0.6712 0.5663 0.9067
C18 C 0.7250(4) 0.6452(6) 0.8898(5)
H10 H 0.7520 0.6360 0.9353
C19 C 0.7341(4) 0.7020(6) 0.8407(5)
C20 C 0.6927(4) 0.7097(7) 0.7707(5)
H11 H 0.6976 0.7460 0.7357
C21 C 0.6464(4) 0.6659(6) 0.7534(5)
H12 H 0.6207 0.6717 0.7063
Ho3 Ho 0.497250(14) 0.54091(2) 0.604340(19)
O17 O 0.9348(3) 0.9453(4) 0.8666(4)
Ho8_2 Ho 0.002750(14) 0.95909(2) 0.395660(19)
O3_2 O 0.5617(2) 0.3943(4) 0.0603(3)
O5_2 O 0.5652(3) 0.5547(4) 0.1334(4)
O7_2 O 0.4725(3) 0.3251(4) 0.1181(4)
H4_2 H 0.3693 0.3362 0.0035
C10_2 C 0.6508(5) 0.2969(9) 0.0544(7)
H5_2 H 0.6351 0.2882 0.0934
C11_2 C 0.6981(5) 0.2566(7) 0.0538(6)
H6_2 H 0.7128 0.2195 0.0910
O8_2 O 0.5579(2) 0.5711(4) 0.0127(3)
O15_2 O 0.5523(2) 0.4282(4) 0.2209(3)
O16_2 O 0.9477(2) 0.9282(4) 0.2791(3)
C22_2 C 0.5793(4) 0.5870(5) 0.0804(5)
C23_2 C 0.6258(3) 0.6433(5) 0.0997(5)
C24_2 C 0.6505(5) 0.6676(7) 0.1754(5)
H13_2 H 0.6362 0.6493 0.2132
C25_2 C 0.6942(5) 0.7164(7) 0.1934(6)
H14_2 H 0.7094 0.7302 0.2437
C26_2 C 0.7175(4) 0.7473(6) 0.1406(5)
C27_2 C 0.6911(4) 0.7250(7) 0.0665(5)
H15_2 H 0.7044 0.7449 0.0283
C28_2 C 0.6469(4) 0.6757(8) 0.0471(6)
C29_2 C 0.9254(3) 0.1063(5) 0.0009(5)
C30_2 C 0.8740(4) 0.1495(5) 0.0021(5)
C33_2 C 0.7763(4) 0.2294(6) 0.0010(5)
C34_2 C 0.8027(5) 0.1784(7) 0.0575(6)
H19_2 H 0.7879 0.1710 0.0976
C35_2 C 0.8496(4) 0.1378(7) 0.0577(6)
H20_2 H 0.8649 0.1021 0.0961
C36_2 C 0.9172(3) 0.9331(4) 0.2142(5)
C37_2 C 0.8640(3) 0.8882(5) 0.1954(5)
C38_2 C 0.8234(4) 0.8975(6) 0.1280(5)
H21_2 H 0.8288 0.9337 0.0933
C39_2 C 0.7750(4) 0.8548(6) 0.1102(5)
H22_2 H 0.7480 0.8640 0.0647
C40_2 C 0.7659(4) 0.7980(6) 0.1593(5)
C41_2 C 0.8073(4) 0.7903(7) 0.2293(5)
H23_2 H 0.8024 0.7540 0.2643
C42_2 C 0.8536(4) 0.8341(6) 0.2466(5)
H24_2 H 0.8793 0.8283 0.2937
O1_2 O 0.4421(2) 0.4289(4) 0.9873(3)
O4_2 O 0.0523(2) 0.0718(4) 0.7209(3)
O6_2 O 0.5489(2) 0.4266(3) 0.9405(3)
C1_2 C 0.4207(4) 0.4130(5) 0.9196(5)
C2_2 C 0.3742(3) 0.3567(5) 0.9003(5)
C3_2 C 0.3495(5) 0.3324(7) 0.8246(5)
H1_2 H 0.3638 0.3507 0.7868
C4_2 C 0.3058(5) 0.2836(7) 0.8066(6)
H2_2 H 0.2906 0.2698 0.7563
C5_2 C 0.2825(4) 0.2527(6) 0.8594(5)
C6_2 C 0.3089(4) 0.2750(7) 0.9335(5)
H3_2 H 0.2956 0.2551 0.9717
C7_2 C 0.3531(4) 0.3243(8) 0.9529(6)
C8_2 C 0.5746(3) 0.3937(5) 0.9991(5)
C9_2 C 0.6260(4) 0.3505(5) 0.9979(5)
C12_2 C 0.7237(4) 0.2706(6) 0.9990(5)
C13_2 C 0.6973(5) 0.3216(7) 0.9425(6)
H7_2 H 0.7121 0.3290 0.9024
C14_2 C 0.6504(4) 0.3622(7) 0.9423(6)
H8_2 H 0.6351 0.3979 0.9039
C15_2 C 0.0828(3) 0.0669(4) 0.7858(5)
C16_2 C 0.1360(3) 0.1118(5) 0.8046(5)
C17_2 C 0.1766(4) 0.1025(6) 0.8720(5)
H9_2 H 0.1712 0.0663 0.9067
C18_2 C 0.2250(4) 0.1452(6) 0.8898(5)
H10_2 H 0.2520 0.1360 0.9353
C19_2 C 0.2341(4) 0.2020(6) 0.8407(5)
C20_2 C 0.1927(4) 0.2097(7) 0.7707(5)
H11_2 H 0.1976 0.2460 0.7357
C21_2 C 0.1464(4) 0.1659(6) 0.7534(5)
H12_2 H 0.1207 0.1717 0.7063
O14_2 O 0.4477(2) 0.5718(4) 0.7791(3)
O17_2 O 0.4348(3) 0.4453(4) 0.8666(4)
O20_2 O 0.5275(3) 0.6749(4) 0.8819(4)
H16_2 H 0.6307 0.6638 0.9965
C31_2 C 0.8492(5) 0.2031(9) 0.9456(7)
H17_2 H 0.8649 0.2118 0.9066
C32_2 C 0.8019(5) 0.2434(7) 0.9462(6)
H18_2 H 0.7872 0.2805 0.9090
Ho3_2 Ho 0.997250(14) 0.04091(2) 0.604340(19)
O12_2 O 0.0617(2) 0.1057(4) 0.5603(3)
O18_2 O 0.0489(2) 0.0734(3) 0.4405(3)
H28_2 H 0.00656491 0.205917 0.640868
O1_3 O 0.0579(2) 0.9289(4) 0.5127(3)
O2_2 O 0.42866(19) 0.5321(3) 0.6610(3)
O7_3 O 0.0275(3) 0.8251(4) 0.3819(4)
C1_3 C 0.0793(4) 0.9130(5) 0.5804(5)
C2_3 C 0.1258(3) 0.8567(5) 0.5997(5)
C3_3 C 0.1505(5) 0.8324(7) 0.6754(5)
H1_3 H 0.1362 0.8507 0.7132
C4_3 C 0.1942(5) 0.7836(7) 0.6934(6)
H2_3 H 0.2094 0.7698 0.7437
C5_3 C 0.2175(4) 0.7527(6) 0.6406(5)
C6_3 C 0.1911(4) 0.7750(7) 0.5665(5)
H3_3 H 0.2044 0.7551 0.5283
C7_3 C 0.1469(4) 0.8243(8) 0.5471(6)
H4_3 H 0.1307 0.8362 0.4965
C15_3 C 0.4172(3) 0.5669(4) 0.7142(5)
C16_3 C 0.3640(3) 0.6118(5) 0.6954(5)
C17_3 C 0.3234(4) 0.6025(6) 0.6280(5)
H9_3 H 0.3288 0.5663 0.5933
C18_3 C 0.2750(4) 0.6452(6) 0.6102(5)
H10_3 H 0.2480 0.6360 0.5647
C19_3 C 0.2659(4) 0.7020(6) 0.6593(5)
C20_3 C 0.3073(4) 0.7097(7) 0.7293(5)
H11_3 H 0.3024 0.7460 0.7643
C21_3 C 0.3536(4) 0.6659(6) 0.7466(5)
H12_3 H 0.3793 0.6717 0.7937
O10_2 O 0.07134(19) 0.9679(3) 0.3390(3)
O17_3 O 0.0652(3) 0.9453(4) 0.6334(4)
O5_3 O 0.9348(3) 0.0547(4) 0.3666(4)
O8_3 O 0.9421(2) 0.0711(4) 0.4873(3)
O9_2 O 0.92866(19) 0.0321(3) 0.6610(3)
O11_2 O 0.57134(19) 0.4679(3) 0.3390(3)
O20_3 O 0.9725(3) 0.1749(4) 0.6181(4)
C22_3 C 0.9207(4) 0.0870(5) 0.4196(5)
C23_3 C 0.8742(3) 0.1433(5) 0.4003(5)
C24_3 C 0.8495(5) 0.1676(7) 0.3246(5)
H13_3 H 0.8638 0.1493 0.2868
C25_3 C 0.8058(5) 0.2164(7) 0.3066(6)
H14_3 H 0.7906 0.2302 0.2563
C26_3 C 0.7825(4) 0.2473(6) 0.3594(5)
C27_3 C 0.8089(4) 0.2250(7) 0.4335(5)
H15_3 H 0.7956 0.2449 0.4717
C28_3 C 0.8531(4) 0.1757(8) 0.4529(6)
H16_3 H 0.8693 0.1638 0.5035
C36_3 C 0.5828(3) 0.4331(4) 0.2858(5)
C37_3 C 0.6360(3) 0.3882(5) 0.3046(5)
C38_3 C 0.6766(4) 0.3975(6) 0.3720(5)
H21_3 H 0.6712 0.4337 0.4067
C39_3 C 0.7250(4) 0.3548(6) 0.3898(5)
H22_3 H 0.7520 0.3640 0.4353
C40_3 C 0.7341(4) 0.2980(6) 0.3407(5)
C41_3 C 0.6927(4) 0.2903(7) 0.2707(5)
H23_3 H 0.6976 0.2540 0.2357
C42_3 C 0.6464(4) 0.3341(6) 0.2534(5)
H24_3 H 0.6207 0.3283 0.2063
O3_3 O 0.9383(2) 0.8943(4) 0.4397(3)
O6_3 O 0.9511(2) 0.9266(3) 0.5595(3)
C8_3 C 0.9254(3) 0.8937(5) 0.5009(5)
C9_3 C 0.8740(4) 0.8505(5) 0.5021(5)
C10_3 C 0.8492(5) 0.7969(9) 0.4456(7)
H5_3 H 0.8649 0.7882 0.4066
C11_3 C 0.8019(5) 0.7566(7) 0.4462(6)
H6_3 H 0.7872 0.7195 0.4090
C12_3 C 0.7763(4) 0.7706(6) 0.5010(5)
C13_3 C 0.8027(5) 0.8216(7) 0.5575(6)
H7_3 H 0.7879 0.8290 0.5976
C14_3 C 0.8496(4) 0.8622(7) 0.5577(6)
H8_3 H 0.8649 0.8979 0.5961
O13_2 O 0.5617(2) 0.6057(4) 0.5603(3)
O19_2 O 0.5489(2) 0.5734(3) 0.4405(3)
C29_3 C 0.5746(3) 0.6063(5) 0.4991(5)
C30_3 C 0.6260(4) 0.6495(5) 0.4979(5)
C31_3 C 0.6508(5) 0.7031(9) 0.5544(7)
H17_3 H 0.6351 0.7118 0.5934
C32_3 C 0.6981(5) 0.7434(7) 0.5538(6)
H18_3 H 0.7128 0.7805 0.5910
C33_3 C 0.7237(4) 0.7294(6) 0.4990(5)
C34_3 C 0.6973(5) 0.6784(7) 0.4425(6)
H19_3 H 0.7121 0.6710 0.4024
C35_3 C 0.6504(4) 0.6378(7) 0.4423(6)
H20_3 H 0.6351 0.6021 0.4039
O1_4 O 0.5579(2) 0.4289(4) 0.5127(3)
O3_4 O 0.4383(2) 0.3943(4) 0.4397(3)
O5_4 O 0.4348(3) 0.5547(4) 0.3666(4)
O6_4 O 0.4511(2) 0.4266(3) 0.5595(3)
O7_4 O 0.5275(3) 0.3251(4) 0.3819(4)
C1_4 C 0.5793(4) 0.4130(5) 0.5804(5)
C2_4 C 0.6258(3) 0.3567(5) 0.5997(5)
C3_4 C 0.6505(5) 0.3324(7) 0.6754(5)
H1_4 H 0.6362 0.3507 0.7132
C4_4 C 0.6942(5) 0.2836(7) 0.6934(6)
H2_4 H 0.7094 0.2698 0.7437
C5_4 C 0.7175(4) 0.2527(6) 0.6406(5)
C6_4 C 0.6911(4) 0.2750(7) 0.5665(5)
H3_4 H 0.7044 0.2551 0.5283
C7_4 C 0.6469(4) 0.3243(8) 0.5471(6)
H4_4 H 0.6307 0.3362 0.4965
C8_4 C 0.4254(3) 0.3937(5) 0.5009(5)
C9_4 C 0.3740(4) 0.3505(5) 0.5021(5)
C10_4 C 0.3492(5) 0.2969(9) 0.4456(7)
H5_4 H 0.3649 0.2882 0.4066
C11_4 C 0.3019(5) 0.2566(7) 0.4462(6)
H6_4 H 0.2872 0.2195 0.4090
C12_4 C 0.2763(4) 0.2706(6) 0.5010(5)
C13_4 C 0.3027(5) 0.3216(7) 0.5575(6)
H7_4 H 0.2879 0.3290 0.5976
C14_4 C 0.3496(4) 0.3622(7) 0.5577(6)
H8_4 H 0.3649 0.3979 0.5961
C15_4 C 0.9172(3) 0.0669(4) 0.7142(5)
C16_4 C 0.8640(3) 0.1118(5) 0.6954(5)
C17_4 C 0.8234(4) 0.1025(6) 0.6280(5)
H9_4 H 0.8288 0.0663 0.5933
C18_4 C 0.7750(4) 0.1452(6) 0.6102(5)
H10_4 H 0.7480 0.1360 0.5647
C19_4 C 0.7659(4) 0.2020(6) 0.6593(5)
C20_4 C 0.8073(4) 0.2097(7) 0.7293(5)
H11_4 H 0.8024 0.2460 0.7643
C21_4 C 0.8536(4) 0.1659(6) 0.7466(5)
H12_4 H 0.8793 0.1717 0.7937
O8_4 O 0.4421(2) 0.5711(4) 0.4873(3)
O17_4 O 0.5652(3) 0.4453(4) 0.6334(4)
O20_4 O 0.4725(3) 0.6749(4) 0.6181(4)
C22_4 C 0.4207(4) 0.5870(5) 0.4196(5)
C23_4 C 0.3742(3) 0.6433(5) 0.4003(5)
C24_4 C 0.3495(5) 0.6676(7) 0.3246(5)
H13_4 H 0.3638 0.6493 0.2868
C25_4 C 0.3058(5) 0.7164(7) 0.3066(6)
H14_4 H 0.2906 0.7302 0.2563
C26_4 C 0.2825(4) 0.7473(6) 0.3594(5)
C27_4 C 0.3089(4) 0.7250(7) 0.4335(5)
H15_4 H 0.2956 0.7449 0.4717
C28_4 C 0.3531(4) 0.6757(8) 0.4529(6)
H16_4 H 0.3693 0.6638 0.5035
C29_4 C 0.0746(3) 0.1063(5) 0.4991(5)
C30_4 C 0.1260(4) 0.1495(5) 0.4979(5)
C31_4 C 0.1508(5) 0.2031(9) 0.5544(7)
H17_4 H 0.1351 0.2118 0.5934
C32_4 C 0.1981(5) 0.2434(7) 0.5538(6)
H18_4 H 0.2128 0.2805 0.5910
C33_4 C 0.2237(4) 0.2294(6) 0.4990(5)
C34_4 C 0.1973(5) 0.1784(7) 0.4425(6)
H19_4 H 0.2121 0.1710 0.4024
C35_4 C 0.1504(4) 0.1378(7) 0.4423(6)
H20_4 H 0.1351 0.1021 0.4039
C36_4 C 0.0828(3) 0.9331(4) 0.2858(5)
C37_4 C 0.1360(3) 0.8882(5) 0.3046(5)
C38_4 C 0.1766(4) 0.8975(6) 0.3720(5)
H21_4 H 0.1712 0.9337 0.4067
C39_4 C 0.2250(4) 0.8548(6) 0.3898(5)
H22_4 H 0.2520 0.8640 0.4353
C40_4 C 0.2341(4) 0.7980(6) 0.3407(5)
C41_4 C 0.1927(4) 0.7903(7) 0.2707(5)
H23_4 H 0.1976 0.7540 0.2357
C42_4 C 0.1464(4) 0.8341(6) 0.2534(5)
H24_4 H 0.1207 0.8283 0.2063
H28_3 H 0.00656491 0.794083 0.140868
H28_4 H 0.993435 0.794083 0.359132
loop_
_geom_bond_atom_site_label_1
_geom_bond_atom_site_label_2
_geom_bond_site_symmetry_1
_geom_bond_site_symmetry_2
Ho4 O11 1_555 1_555
Ho8 O16 1_555 1_555
O11 C36 1_555 1_555
O16 C36 1_555 1_555
C22 O5 1_555 1_555
C23 C22 1_555 1_555
C24 C23 1_555 1_555
H13 C24 1_555 1_555
C25 C24 1_555 1_555
H14 C25 1_555 1_555
C26 C25 1_555 1_555
C27 C26 1_555 1_555
H15 C27 1_555 1_555
C28 C23 1_555 1_555
C36 C37 1_555 1_555
C37 C38 1_555 1_555
C38 H21 1_555 1_555
C39 C38 1_555 1_555
H22 C39 1_555 1_555
C40 C26 1_555 1_555
C41 C40 1_555 1_555
H23 C41 1_555 1_555
C42 C37 1_555 1_555
H24 C42 1_555 1_555
O8 C22 1_555 1_555
C27 C28 1_555 1_555
C39 C40 1_555 1_555
C41 C42 1_555 1_555
O9 Ho2 1_555 1_555
O20 Ho2 1_555 1_555
H5 C10 1_555 1_555
C11 C10 1_555 1_555
H6 C11 1_555 1_555
Ho4 O19 1_555 1_555
O19 C29 1_555 1_555
C29 C30 1_555 1_555
C34 C33 1_555 1_555
H19 C34 1_555 1_555
C35 C30 1_555 1_555
H20 C35 1_555 1_555
C34 C35 1_555 1_555
O6 C8 1_555 1_555
C9 C8 1_555 1_555
C13 C12 1_555 1_555
H7 C13 1_555 1_555
C14 C9 1_555 1_555
H8 C14 1_555 1_555
Ho6 O13 1_555 1_555
C31 H17 1_555 1_555
C32 C31 1_555 1_555
H18 C32 1_555 1_555
C13 C14 1_555 1_555
O7 Ho1 1_555 1_555
O10 Ho1 1_555 1_555
O1 C1 1_555 1_555
O2 C15 1_555 1_555
O4 C15 1_555 1_555
C1 C2 1_555 1_555
C2 C3 1_555 1_555
C3 H1 1_555 1_555
C4 C3 1_555 1_555
H2 C4 1_555 1_555
C5 C4 1_555 1_555
C6 C5 1_555 1_555
H3 C6 1_555 1_555
C7 C2 1_555 1_555
C15 C16 1_555 1_555
C16 C17 1_555 1_555
C17 H9 1_555 1_555
C18 C17 1_555 1_555
H10 C18 1_555 1_555
C19 C5 1_555 1_555
C20 C19 1_555 1_555
H11 C20 1_555 1_555
C21 C16 1_555 1_555
H12 C21 1_555 1_555
Ho3 O4 1_555 1_555
Ho6 O2 1_555 1_555
O17 C1 1_555 1_555
C6 C7 1_555 1_555
C18 C19 1_555 1_555
C20 C21 1_555 1_555
O3_2 Ho4 1_555 1_555
O5_2 Ho4 1_555 1_555
O7_2 Ho4 1_555 1_555
H5_2 C10_2 1_555 1_555
C11_2 C10_2 1_555 1_555
H6_2 C11_2 1_555 1_555
O10 C36_2 1_555 1_555
O15_2 Ho4 1_555 1_555
O16_2 C36_2 1_555 1_555
O18 C29_2 1_555 1_555
C22_2 O5_2 1_555 1_555
C23_2 C22_2 1_555 1_555
C24_2 C23_2 1_555 1_555
H13_2 C24_2 1_555 1_555
C25_2 C24_2 1_555 1_555
H14_2 C25_2 1_555 1_555
C26_2 C25_2 1_555 1_555
C27_2 C26_2 1_555 1_555
H15_2 C27_2 1_555 1_555
C28_2 C23_2 1_555 1_555
C29_2 C30_2 1_555 1_555
C34_2 C33_2 1_555 1_555
H19_2 C34_2 1_555 1_555
C35_2 C30_2 1_555 1_555
H20_2 C35_2 1_555 1_555
C36_2 C37_2 1_555 1_555
C37_2 C38_2 1_555 1_555
C38_2 H21_2 1_555 1_555
C39_2 C38_2 1_555 1_555
H22_2 C39_2 1_555 1_555
C40_2 C26_2 1_555 1_555
C41_2 C40_2 1_555 1_555
H23_2 C41_2 1_555 1_555
C42_2 C37_2 1_555 1_555
H24_2 C42_2 1_555 1_555
O8_2 C22_2 1_555 1_555
C27_2 C28_2 1_555 1_555
C34_2 C35_2 1_555 1_555
C39_2 C40_2 1_555 1_555
C41_2 C42_2 1_555 1_555
O1_2 C1_2 1_555 1_555
O9 C15_2 1_555 1_555
O4_2 C15_2 1_555 1_555
O6_2 C8_2 1_555 1_555
C1_2 C2_2 1_555 1_555
C2_2 C3_2 1_555 1_555
C3_2 H1_2 1_555 1_555
C4_2 C3_2 1_555 1_555
H2_2 C4_2 1_555 1_555
C5_2 C4_2 1_555 1_555
C6_2 C5_2 1_555 1_555
H3_2 C6_2 1_555 1_555
C7_2 C2_2 1_555 1_555
C9_2 C8_2 1_555 1_555
C13_2 C12_2 1_555 1_555
H7_2 C13_2 1_555 1_555
C14_2 C9_2 1_555 1_555
H8_2 C14_2 1_555 1_555
C15_2 C16_2 1_555 1_555
C16_2 C17_2 1_555 1_555
C17_2 H9_2 1_555 1_555
C18_2 C17_2 1_555 1_555
H10_2 C18_2 1_555 1_555
C19_2 C5_2 1_555 1_555
C20_2 C19_2 1_555 1_555
H11_2 C20_2 1_555 1_555
C21_2 C16_2 1_555 1_555
H12_2 C21_2 1_555 1_555
Ho6 O6_2 1_555 1_555
O14_2 Ho6 1_555 1_555
O17_2 C1_2 1_555 1_555
O20_2 Ho6 1_555 1_555
C31_2 H17_2 1_555 1_555
C32_2 C31_2 1_555 1_555
H18_2 C32_2 1_555 1_555
C6_2 C7_2 1_555 1_555
C13_2 C14_2 1_555 1_555
C18_2 C19_2 1_555 1_555
C20_2 C21_2 1_555 1_555
Ho6 O17_2 1_555 1_555
Ho8_2 O1_3 1_555 1_555
O1_3 C1_3 1_555 1_555
O2_2 C15_3 1_555 1_555
O14_2 C15_3 1_555 1_555
O7_3 Ho8_2 1_555 1_555
C1_3 C2_3 1_555 1_555
C2_3 C3_3 1_555 1_555
C3_3 H1_3 1_555 1_555
C4_3 C3_3 1_555 1_555
H2_3 C4_3 1_555 1_555
C5_3 C4_3 1_555 1_555
C6_3 C5_3 1_555 1_555
H3_3 C6_3 1_555 1_555
C7_3 C2_3 1_555 1_555
H4_3 C7_3 1_555 1_555
C15_3 C16_3 1_555 1_555
C16_3 C17_3 1_555 1_555
C17_3 H9_3 1_555 1_555
C18_3 C17_3 1_555 1_555
H10_3 C18_3 1_555 1_555
C19_3 C5_3 1_555 1_555
C20_3 C19_3 1_555 1_555
H11_3 C20_3 1_555 1_555
C21_3 C16_3 1_555 1_555
H12_3 C21_3 1_555 1_555
Ho3 O2_2 1_555 1_555
O10_2 Ho8_2 1_555 1_555
O17_3 C1_3 1_555 1_555
C6_3 C7_3 1_555 1_555
C18_3 C19_3 1_555 1_555
C20_3 C21_3 1_555 1_555
Ho8 O11_2 1_555 1_555
O8_3 Ho3_2 1_555 1_555
O9_2 Ho3_2 1_555 1_555
O11_2 C36_3 1_555 1_555
O15_2 C36_3 1_555 1_555
O20_3 Ho3_2 1_555 1_555
C22_3 O5_3 1_555 1_555
C23_3 C22_3 1_555 1_555
C24_3 C23_3 1_555 1_555
H13_3 C24_3 1_555 1_555
C25_3 C24_3 1_555 1_555
H14_3 C25_3 1_555 1_555
C26_3 C25_3 1_555 1_555
C27_3 C26_3 1_555 1_555
H15_3 C27_3 1_555 1_555
C28_3 C23_3 1_555 1_555
H16_3 C28_3 1_555 1_555
C36_3 C37_3 1_555 1_555
C37_3 C38_3 1_555 1_555
C38_3 H21_3 1_555 1_555
C39_3 C38_3 1_555 1_555
H22_3 C39_3 1_555 1_555
C40_3 C26_3 1_555 1_555
C41_3 C40_3 1_555 1_555
H23_3 C41_3 1_555 1_555
C42_3 C37_3 1_555 1_555
H24_3 C42_3 1_555 1_555
O8_3 C22_3 1_555 1_555
C27_3 C28_3 1_555 1_555
C39_3 C40_3 1_555 1_555
C41_3 C42_3 1_555 1_555
O6_3 C8_3 1_555 1_555
C8_3 O3_3 1_555 1_555
C9_3 C8_3 1_555 1_555
C10_3 C9_3 1_555 1_555
H5_3 C10_3 1_555 1_555
C11_3 C10_3 1_555 1_555
H6_3 C11_3 1_555 1_555
C12_3 C11_3 1_555 1_555
C13_3 C12_3 1_555 1_555
H7_3 C13_3 1_555 1_555
C14_3 C9_3 1_555 1_555
H8_3 C14_3 1_555 1_555
Ho3 O13_2 1_555 1_555
Ho8 O19_2 1_555 1_555
O13_2 C29_3 1_555 1_555
O19_2 C29_3 1_555 1_555
C29_3 C30_3 1_555 1_555
C30_3 C31_3 1_555 1_555
C31_3 H17_3 1_555 1_555
C32_3 C31_3 1_555 1_555
H18_3 C32_3 1_555 1_555
C33_3 C12_3 1_555 1_555
C34_3 C33_3 1_555 1_555
H19_3 C34_3 1_555 1_555
C35_3 C30_3 1_555 1_555
H20_3 C35_3 1_555 1_555
C13_3 C14_3 1_555 1_555
C32_3 C33_3 1_555 1_555
C34_3 C35_3 1_555 1_555
Ho8 O1_4 1_555 1_555
O1_4 C1_4 1_555 1_555
O9_2 C15_4 1_555 1_555
O3_4 Ho8 1_555 1_555
O14 C15_4 1_555 1_555
O5_4 Ho8 1_555 1_555
O6_4 C8_4 1_555 1_555
O7_4 Ho8 1_555 1_555
C1_4 C2_4 1_555 1_555
C2_4 C3_4 1_555 1_555
C3_4 H1_4 1_555 1_555
C4_4 C3_4 1_555 1_555
H2_4 C4_4 1_555 1_555
C5_4 C4_4 1_555 1_555
C6_4 C5_4 1_555 1_555
H3_4 C6_4 1_555 1_555
C7_4 C2_4 1_555 1_555
H4_4 C7_4 1_555 1_555
C8_4 O3_4 1_555 1_555
C9_4 C8_4 1_555 1_555
C10_4 C9_4 1_555 1_555
H5_4 C10_4 1_555 1_555
C11_4 C10_4 1_555 1_555
H6_4 C11_4 1_555 1_555
C12_4 C11_4 1_555 1_555
C13_4 C12_4 1_555 1_555
H7_4 C13_4 1_555 1_555
C14_4 C9_4 1_555 1_555
H8_4 C14_4 1_555 1_555
C15_4 C16_4 1_555 1_555
C16_4 C17_4 1_555 1_555
C17_4 H9_4 1_555 1_555
C18_4 C17_4 1_555 1_555
H10_4 C18_4 1_555 1_555
C19_4 C5_4 1_555 1_555
C20_4 C19_4 1_555 1_555
H11_4 C20_4 1_555 1_555
C21_4 C16_4 1_555 1_555
H12_4 C21_4 1_555 1_555
Ho3 O6_4 1_555 1_555
O8_4 Ho3 1_555 1_555
O10_2 C36_4 1_555 1_555
O12_2 C29_4 1_555 1_555
O15 C36_4 1_555 1_555
O17_4 C1_4 1_555 1_555
O18_2 C29_4 1_555 1_555
O20_4 Ho3 1_555 1_555
C22_4 O5_4 1_555 1_555
C23_4 C22_4 1_555 1_555
C24_4 C23_4 1_555 1_555
H13_4 C24_4 1_555 1_555
C25_4 C24_4 1_555 1_555
H14_4 C25_4 1_555 1_555
C26_4 C25_4 1_555 1_555
C27_4 C26_4 1_555 1_555
H15_4 C27_4 1_555 1_555
C28_4 C23_4 1_555 1_555
H16_4 C28_4 1_555 1_555
C29_4 C30_4 1_555 1_555
C30_4 C31_4 1_555 1_555
C31_4 H17_4 1_555 1_555
C32_4 C31_4 1_555 1_555
H18_4 C32_4 1_555 1_555
C33_4 C12_4 1_555 1_555
C34_4 C33_4 1_555 1_555
H19_4 C34_4 1_555 1_555
C35_4 C30_4 1_555 1_555
H20_4 C35_4 1_555 1_555
C36_4 C37_4 1_555 1_555
C37_4 C38_4 1_555 1_555
C38_4 H21_4 1_555 1_555
C39_4 C38_4 1_555 1_555
H22_4 C39_4 1_555 1_555
C40_4 C26_4 1_555 1_555
C41_4 C40_4 1_555 1_555
H23_4 C41_4 1_555 1_555
C42_4 C37_4 1_555 1_555
H24_4 C42_4 1_555 1_555
C6_4 C7_4 1_555 1_555
C13_4 C14_4 1_555 1_555
C18_4 C19_4 1_555 1_555
C20_4 C21_4 1_555 1_555
Ho3 O17_4 1_555 1_555
O8_4 C22_4 1_555 1_555
C27_4 C28_4 1_555 1_555
C32_4 C33_4 1_555 1_555
C34_4 C35_4 1_555 1_555
C39_4 C40_4 1_555 1_555
C41_4 C42_4 1_555 1_555

#END
