
###############################################################################
#
# This file contains modified crystal structure data generated from the
# MOF subset of the Cambridge Structural Database (CSD) v543 
# hosted by the Cambridge Crystallographic Data Centre (CCDC).
#
# This work is licensed under the Creative Commons
# Attribution-NonCommercial-ShareAlike 4.0 International License.
# To view a copy of this license, visit
# http://creativecommons.org/licenses/by-nc-sa/4.0/
# or send a letter to
# Creative Commons, PO Box 1866, Mountain View, CA 94042, USA.
#
# CIF created using the CSD Python API on 29 September 2022
# The structure has been converted into the P1 space group
# The structure has a 3D framework
# The original CSD entry SARBOE is in the orthorhombic crystal system
# The original CSD entry SARBOE is in a Sohncke space group
# The framework has been calculated to contain at least 10.0% void space
# The void calculation uses a probe of radius 1.32A, grid spacing 0.4
#
###############################################################################

data_SARBOE
_chemical_formula_moiety         '(C48 H40 N16 O12 Zn4)n'
_symmetry_cell_setting           triclinic
_symmetry_space_group_name_H-M   'P 1'
_symmetry_Int_Tables_number      1
_space_group_name_Hall           'P 1'
loop_
_symmetry_equiv_pos_site_id
_symmetry_equiv_pos_as_xyz
1 x,y,z
_cell_length_a                   14.3885(5)
_cell_length_b                   15.4745(6)
_cell_length_c                   8.4241(3)
_cell_angle_alpha                90
_cell_angle_beta                 90
_cell_angle_gamma                90
_cell_volume                     1875.67
loop_
_atom_site_label
_atom_site_type_symbol
_atom_site_fract_x
_atom_site_fract_y
_atom_site_fract_z
Zn1 Zn 0.24968(4) 0.18986(3) 0.21275(5)
O1 O 0.0471(3) 0.2435(4) 0.1448(4)
O2 O 0.1428(2) 0.2134(3) 0.3435(4)
C2 C 0.0126(3) 0.2542(3) 0.5657(5)
H1 H 0.0734 0.2448 0.5986
C6 C 0.0662(3) 0.2351(4) 0.2897(6)
C7 C 0.1959(4) 0.0241(3) 0.0551(5)
C11 C 0.3213(4) 0.0151(3) 0.2254(6)
H6 H 0.3641 0.0428 0.2908
H8 H 0.0192 0.2589 0.8626
N3 N 0.2570(3) 0.0631(2) 0.1565(4)
H9 H 0.1294 0.1259 0.0007
O5 O 0.2774(2) 0.2659(2) 0.0385(4)
N5 N 0.3544(3) 0.2164(3) 0.3658(4)
C1 C 0.9425(3) 0.2690(4) 0.6803(6)
C3 C 0.9922(3) 0.2535(4) 0.4081(5)
C4 C 0.8998(3) 0.2666(4) 0.3614(6)
H2 H 0.8837 0.2659 0.2545
C5 C 0.8331(3) 0.2805(4) 0.4761(5)
H3 H 0.7716 0.2880 0.4449
N1 N 0.8544(3) 0.2836(3) 0.6342(4)
N2 N 0.9630(3) 0.2682(4) 0.8324(5)
H7 H 0.9201 0.2770 0.9018
Zn3 Zn 0.74968(4) 0.31014(3) 0.78725(5)
O3 O 0.7774(2) 0.2341(2) 0.9615(4)
H4 H 0.8387 0.0908 0.9594
H4_2 H 0.3387 0.4092 0.0406
N4 N 0.3678(3) 0.5712(3) 0.0166(5)
H10 H 0.4066 0.5473 0.0806
O1_2 O 0.5471(3) 0.2565(4) 0.8552(4)
O2_2 O 0.6428(2) 0.2866(3) 0.6565(4)
O4 O 0.8279(3) 0.7525(2) 0.8473(4)
C1_2 C 0.4425(3) 0.2310(4) 0.3197(6)
C2_2 C 0.5126(3) 0.2458(3) 0.4343(5)
H1_2 H 0.5734 0.2552 0.4014
C3_2 C 0.4922(3) 0.2465(4) 0.5919(5)
C4_2 C 0.3998(3) 0.2334(4) 0.6386(6)
H2_2 H 0.3837 0.2341 0.7455
C5_2 C 0.3331(3) 0.2195(4) 0.5239(5)
H3_2 H 0.2716 0.2120 0.5551
C6_2 C 0.5662(3) 0.2649(4) 0.7103(6)
C7_2 C 0.6959(4) 0.4759(3) 0.9449(5)
C8 C 0.7019(3) 0.5640(3) 0.9701(5)
C9 C 0.7674(3) 0.6118(3) 0.8917(5)
C10 C 0.8293(4) 0.5707(3) 0.7923(6)
H5 H 0.8752 0.6016 0.7391
C11_2 C 0.8213(4) 0.4849(3) 0.7746(6)
H6_2 H 0.8641 0.4572 0.7092
C12 C 0.7755(3) 0.7084(3) 0.9228(5)
N2_2 N 0.4630(3) 0.2318(4) 0.1676(5)
H7_2 H 0.4201 0.2230 0.0982
H8_2 H 0.5192 0.2411 0.1374
N3_2 N 0.7570(3) 0.4369(2) 0.8435(4)
H9_2 H 0.6294 0.3741 0.9993
N4_2 N 0.1322(3) 0.0712(3) 0.9834(5)
H10_2 H 0.0934 0.0473 0.9194
O4_2 O 0.3279(3) 0.7475(2) 0.1527(4)
C8_2 C 0.2019(3) 0.9360(3) 0.0299(5)
C9_2 C 0.2674(3) 0.8882(3) 0.1083(5)
C10_2 C 0.3293(4) 0.9293(3) 0.2077(6)
H5_2 H 0.3752 0.8984 0.2609
C12_2 C 0.2755(3) 0.7916(3) 0.0772(5)
O3_2 O 0.2226(2) 0.7659(2) 0.9615(4)
H4_3 H 0.1613 0.9092 0.9594
Zn2 Zn 0.25032(4) 0.68986(3) 0.78725(5)
C1_3 C 0.0575(3) 0.7310(4) 0.6803(6)
C3_3 C 0.0078(3) 0.7465(4) 0.4081(5)
C4_3 C 0.1002(3) 0.7334(4) 0.3614(6)
H2_3 H 0.1163 0.7341 0.2545
C5_3 C 0.1669(3) 0.7195(4) 0.4761(5)
H3_3 H 0.2284 0.7120 0.4449
N1_2 N 0.1456(3) 0.7164(3) 0.6342(4)
N2_3 N 0.0370(3) 0.7318(4) 0.8324(5)
H7_3 H 0.0799 0.7230 0.9018
Zn1_2 Zn 0.75032(4) 0.81014(3) 0.21275(5)
O1_3 O 0.9529(3) 0.7565(4) 0.1448(4)
O2_3 O 0.8572(2) 0.7866(3) 0.3435(4)
C2_3 C 0.9874(3) 0.7458(3) 0.5657(5)
H1_3 H 0.9266 0.7552 0.5986
C6_3 C 0.9338(3) 0.7649(4) 0.2897(6)
C7_3 C 0.8041(4) 0.9759(3) 0.0551(5)
C11_3 C 0.6787(4) 0.9849(3) 0.2254(6)
H6_3 H 0.6359 0.9572 0.2908
H8_3 H 0.9808 0.7411 0.8626
N3_3 N 0.7430(3) 0.9369(2) 0.1565(4)
H9_3 H 0.8706 0.8741 0.0007
O5_2 O 0.7226(2) 0.7341(2) 0.0385(4)
N5_2 N 0.6456(3) 0.7836(3) 0.3658(4)
O1_4 O 0.4529(3) 0.7435(4) 0.8552(4)
O2_4 O 0.3572(2) 0.7134(3) 0.6565(4)
O4_3 O 0.1721(3) 0.2475(2) 0.8473(4)
C1_4 C 0.5575(3) 0.7690(4) 0.3197(6)
C2_4 C 0.4874(3) 0.7542(3) 0.4343(5)
H1_4 H 0.4266 0.7448 0.4014
C3_4 C 0.5078(3) 0.7535(4) 0.5919(5)
C4_4 C 0.6002(3) 0.7666(4) 0.6386(6)
H2_4 H 0.6163 0.7659 0.7455
C5_4 C 0.6669(3) 0.7805(4) 0.5239(5)
H3_4 H 0.7284 0.7880 0.5551
C6_4 C 0.4338(3) 0.7351(4) 0.7103(6)
C7_4 C 0.3041(4) 0.5241(3) 0.9449(5)
C8_3 C 0.2981(3) 0.4360(3) 0.9701(5)
C9_3 C 0.2326(3) 0.3882(3) 0.8917(5)
C10_3 C 0.1707(4) 0.4293(3) 0.7923(6)
H5_3 H 0.1248 0.3984 0.7391
C11_4 C 0.1787(4) 0.5151(3) 0.7746(6)
H6_4 H 0.1359 0.5428 0.7092
C12_3 C 0.2245(3) 0.2916(3) 0.9228(5)
N2_4 N 0.5370(3) 0.7682(4) 0.1676(5)
H7_4 H 0.5799 0.7770 0.0982
H8_4 H 0.4808 0.7589 0.1374
N3_4 N 0.2430(3) 0.5631(2) 0.8435(4)
H9_4 H 0.3706 0.6259 0.9993
H4_4 H 0.6613 0.5908 0.0406
N4_3 N 0.6322(3) 0.4288(3) 0.0166(5)
H10_3 H 0.5934 0.4527 0.0806
O4_4 O 0.6721(3) 0.2525(2) 0.1527(4)
C8_4 C 0.7981(3) 0.0640(3) 0.0299(5)
C9_4 C 0.7326(3) 0.1118(3) 0.1083(5)
C10_4 C 0.6707(4) 0.0707(3) 0.2077(6)
H5_4 H 0.6248 0.1016 0.2609
C12_4 C 0.7245(3) 0.2084(3) 0.0772(5)
N4_4 N 0.8678(3) 0.9288(3) 0.9834(5)
H10_4 H 0.9066 0.9527 0.9194
loop_
_geom_bond_atom_site_label_1
_geom_bond_atom_site_label_2
_geom_bond_site_symmetry_1
_geom_bond_site_symmetry_2
Zn1 O2 1_555 1_555
O1 C6 1_555 1_555
O2 C6 1_555 1_555
C2 H1 1_555 1_555
H6 C11 1_555 1_555
N3 Zn1 1_555 1_555
O5 Zn1 1_555 1_555
N5 Zn1 1_555 1_555
C7 N3 1_555 1_555
C11 N3 1_555 1_555
C4 C3 1_555 1_555
H2 C4 1_555 1_555
C5 C4 1_555 1_555
H3 C5 1_555 1_555
N1 C1 1_555 1_555
N2 C1 1_555 1_555
H7 N2 1_555 1_555
Zn3 N1 1_555 1_555
C5 N1 1_555 1_555
Zn3 O3 1_555 1_555
H10 N4 1_555 1_555
Zn3 O2_2 1_555 1_555
O1_2 C6_2 1_555 1_555
O2_2 C6_2 1_555 1_555
O4 C12 1_555 1_555
C1_2 C2_2 1_555 1_555
C2_2 H1_2 1_555 1_555
C3_2 C2_2 1_555 1_555
C4_2 C3_2 1_555 1_555
H2_2 C4_2 1_555 1_555
C5_2 C4_2 1_555 1_555
H3_2 C5_2 1_555 1_555
C6_2 C3_2 1_555 1_555
C7_2 C8 1_555 1_555
C9 C8 1_555 1_555
C10 C9 1_555 1_555
H5 C10 1_555 1_555
C11_2 C10 1_555 1_555
H6_2 C11_2 1_555 1_555
C12 C9 1_555 1_555
N5 C1_2 1_555 1_555
N2_2 C1_2 1_555 1_555
H7_2 N2_2 1_555 1_555
H8_2 N2_2 1_555 1_555
N3_2 Zn3 1_555 1_555
C5_2 N5 1_555 1_555
C7_2 N3_2 1_555 1_555
C11_2 N3_2 1_555 1_555
H10_2 N4_2 1_555 1_555
O4_2 C12_2 1_555 1_555
C9_2 C8_2 1_555 1_555
C10_2 C9_2 1_555 1_555
H5_2 C10_2 1_555 1_555
C12_2 C9_2 1_555 1_555
Zn2 O3_2 1_555 1_555
C4_3 C3_3 1_555 1_555
H2_3 C4_3 1_555 1_555
C5_3 C4_3 1_555 1_555
H3_3 C5_3 1_555 1_555
N1_2 C1_3 1_555 1_555
N2_3 C1_3 1_555 1_555
H7_3 N2_3 1_555 1_555
Zn2 N1_2 1_555 1_555
C5_3 N1_2 1_555 1_555
Zn1_2 O2_3 1_555 1_555
O1_3 C6_3 1_555 1_555
O2_3 C6_3 1_555 1_555
C2_3 H1_3 1_555 1_555
H6_3 C11_3 1_555 1_555
N3_3 Zn1_2 1_555 1_555
O5_2 Zn1_2 1_555 1_555
N5_2 Zn1_2 1_555 1_555
C7_3 N3_3 1_555 1_555
C11_3 N3_3 1_555 1_555
Zn2 O2_4 1_555 1_555
O1_4 C6_4 1_555 1_555
O2_4 C6_4 1_555 1_555
O4_3 C12_3 1_555 1_555
C1_4 C2_4 1_555 1_555
C2_4 H1_4 1_555 1_555
C3_4 C2_4 1_555 1_555
C4_4 C3_4 1_555 1_555
H2_4 C4_4 1_555 1_555
C5_4 C4_4 1_555 1_555
H3_4 C5_4 1_555 1_555
C6_4 C3_4 1_555 1_555
C7_4 C8_3 1_555 1_555
C9_3 C8_3 1_555 1_555
C10_3 C9_3 1_555 1_555
H5_3 C10_3 1_555 1_555
C11_4 C10_3 1_555 1_555
H6_4 C11_4 1_555 1_555
C12_3 C9_3 1_555 1_555
N5_2 C1_4 1_555 1_555
N2_4 C1_4 1_555 1_555
H7_4 N2_4 1_555 1_555
H8_4 N2_4 1_555 1_555
N3_4 Zn2 1_555 1_555
C5_4 N5_2 1_555 1_555
C7_4 N3_4 1_555 1_555
C11_4 N3_4 1_555 1_555
H10_3 N4_3 1_555 1_555
O4_4 C12_4 1_555 1_555
C9_4 C8_4 1_555 1_555
C10_4 C9_4 1_555 1_555
H5_4 C10_4 1_555 1_555
C12_4 C9_4 1_555 1_555
H10_4 N4_4 1_555 1_555

#END
