
###############################################################################
#
# This file contains modified crystal structure data generated from the
# MOF subset of the Cambridge Structural Database (CSD) v543 
# hosted by the Cambridge Crystallographic Data Centre (CCDC).
#
# This work is licensed under the Creative Commons
# Attribution-NonCommercial-ShareAlike 4.0 International License.
# To view a copy of this license, visit
# http://creativecommons.org/licenses/by-nc-sa/4.0/
# or send a letter to
# Creative Commons, PO Box 1866, Mountain View, CA 94042, USA.
#
# CIF created using the CSD Python API on 29 September 2022
# The structure has been converted into the P1 space group
# The structure has a 3D framework
# The original CSD entry SARBUK01 is in the orthorhombic crystal system
# The framework has been calculated to contain at least 10.0% void space
# The void calculation uses a probe of radius 1.32A, grid spacing 0.4
#
###############################################################################

data_SARBUK01
_chemical_formula_moiety         '(C192 H160 N64 O64 Zn16)n'
_symmetry_cell_setting           triclinic
_symmetry_space_group_name_H-M   'P 1'
_symmetry_Int_Tables_number      1
_space_group_name_Hall           'P 1'
loop_
_symmetry_equiv_pos_site_id
_symmetry_equiv_pos_as_xyz
1 x,y,z
_cell_length_a                   12.9026(9)
_cell_length_b                   22.8687(15)
_cell_length_c                   23.8896(16)
_cell_angle_alpha                90
_cell_angle_beta                 90
_cell_angle_gamma                90
_cell_volume                     7049
loop_
_atom_site_label
_atom_site_type_symbol
_atom_site_fract_x
_atom_site_fract_y
_atom_site_fract_z
Zn1 Zn 0.625000 0.33531(2) 0.125000
N1 N 0.54836(11) 0.27638(6) 0.07440(6)
C1 C 0.44612(14) 0.27280(8) 0.06685(7)
C2 C 0.40382(15) 0.23595(9) 0.02553(8)
H1 H 0.332588 0.235235 0.019607
C4 C 0.57416(15) 0.20389(8) 0.00314(8)
C5 C 0.61016(14) 0.24151(9) 0.04304(8)
H3 H 0.681314 0.243277 0.049024
N2 N 0.38344(12) 0.30431(10) 0.10017(8)
H4 H 0.409430 0.326287 0.125785
H5 H 0.317341 0.302502 0.095858
N3 N 0.70164(11) 0.27638(6) 0.17560(6)
C7 C 0.80388(14) 0.27280(8) 0.18315(7)
C8 C 0.84618(15) 0.23595(9) 0.22447(8)
H6 H 0.917412 0.235235 0.230393
C9 C 0.78241(14) 0.20116(8) 0.25592(7)
C10 C 0.67584(15) 0.20389(8) 0.24686(8)
H7 H 0.630468 0.180716 0.267427
C11 C 0.63984(14) 0.24151(9) 0.20696(8)
H8 H 0.568686 0.243277 0.200976
C12 C 0.82964(16) 0.16104(8) 0.29920(7)
O3 O 0.77204(11) 0.12276(5) 0.32142(5)
O4 O 0.92292(12) 0.16524(6) 0.31034(6)
N4 N 0.86656(12) 0.30431(10) 0.14983(8)
H9 H 0.840570 0.326287 0.124215
H10 H 0.932659 0.302502 0.154142
Zn2 Zn 0.875000 0.08531(2) 0.375000
O5 O 0.72796(11) 0.37276(5) 0.07142(5)
O6 O 0.52204(11) 0.37276(5) 0.17858(5)
O7 O 0.57708(12) 0.41524(6) 0.06034(6)
O8 O 0.67292(12) 0.41524(6) 0.18966(6)
C3 C 0.46759(14) 0.20116(8) 0.99408(7)
H2 H 0.619532 0.180716 0.982573
C6 C 0.42036(16) 0.16104(8) 0.95080(7)
O1 O 0.47796(11) 0.12276(5) 0.92858(5)
O2 O 0.32708(12) 0.16524(6) 0.93966(6)
Zn3 Zn 0.375000 0.08531(2) 0.875000
Zn1_2 Zn 0.125000 0.33531(2) 0.625000
N1_2 N 0.20164(11) 0.27638(6) 0.67560(6)
C1_2 C 0.30388(14) 0.27280(8) 0.68315(7)
C2_2 C 0.34618(15) 0.23595(9) 0.72447(8)
H1_2 H 0.417412 0.235235 0.730393
C3_2 C 0.28241(14) 0.20116(8) 0.75592(7)
C4_2 C 0.17584(15) 0.20389(8) 0.74686(8)
H2_2 H 0.130468 0.180716 0.767427
C5_2 C 0.13984(14) 0.24151(9) 0.70696(8)
H3_2 H 0.068686 0.243277 0.700976
C6_2 C 0.32964(16) 0.16104(8) 0.79920(7)
O1_2 O 0.27204(11) 0.12276(5) 0.82142(5)
O2_2 O 0.42292(12) 0.16524(6) 0.81034(6)
N2_2 N 0.36656(12) 0.30431(10) 0.64983(8)
H4_2 H 0.340570 0.326287 0.624215
H5_2 H 0.432659 0.302502 0.654142
N3_2 N 0.04836(11) 0.27638(6) 0.57440(6)
C10_2 C 0.07416(15) 0.20389(8) 0.50314(8)
H7_2 H 0.119532 0.180716 0.482573
C11_2 C 0.11016(14) 0.24151(9) 0.54304(8)
H8_2 H 0.181314 0.243277 0.549024
O5_2 O 0.02204(11) 0.37276(5) 0.67858(5)
O6_2 O 0.22796(11) 0.37276(5) 0.57142(5)
O7_2 O 0.17292(12) 0.41524(6) 0.68966(6)
O8_2 O 0.07708(12) 0.41524(6) 0.56034(6)
C7_2 C 0.94612(14) 0.27280(8) 0.56685(7)
C8_2 C 0.90382(15) 0.23595(9) 0.52553(8)
H6_2 H 0.832588 0.235235 0.519607
C9_2 C 0.96759(14) 0.20116(8) 0.49408(7)
C12_2 C 0.92036(16) 0.16104(8) 0.45080(7)
O3_2 O 0.97796(11) 0.12276(5) 0.42858(5)
O4_2 O 0.82708(12) 0.16524(6) 0.43966(6)
N4_2 N 0.88344(12) 0.30431(10) 0.60017(8)
H9_2 H 0.909430 0.326287 0.625785
H10_2 H 0.817341 0.302502 0.595858
Zn1_3 Zn 0.625000 0.83531(2) 0.625000
N1_3 N 0.54836(11) 0.77638(6) 0.57440(6)
C1_3 C 0.44612(14) 0.77280(8) 0.56685(7)
C2_3 C 0.40382(15) 0.73595(9) 0.52553(8)
H1_3 H 0.332588 0.735235 0.519607
C3_3 C 0.46759(14) 0.70116(8) 0.49408(7)
C4_3 C 0.57416(15) 0.70389(8) 0.50314(8)
H2_3 H 0.619532 0.680716 0.482573
C5_3 C 0.61016(14) 0.74151(9) 0.54304(8)
H3_3 H 0.681314 0.743277 0.549024
C6_3 C 0.42036(16) 0.66104(8) 0.45080(7)
O1_3 O 0.47796(11) 0.62276(5) 0.42858(5)
O2_3 O 0.32708(12) 0.66524(6) 0.43966(6)
N2_3 N 0.38344(12) 0.80431(10) 0.60017(8)
H4_3 H 0.409430 0.826287 0.625785
H5_3 H 0.317341 0.802502 0.595858
N3_3 N 0.70164(11) 0.77638(6) 0.67560(6)
C7_3 C 0.80388(14) 0.77280(8) 0.68315(7)
C8_3 C 0.84618(15) 0.73595(9) 0.72447(8)
H6_3 H 0.917412 0.735235 0.730393
C9_3 C 0.78241(14) 0.70116(8) 0.75592(7)
C10_3 C 0.67584(15) 0.70389(8) 0.74686(8)
H7_3 H 0.630468 0.680716 0.767427
C11_3 C 0.63984(14) 0.74151(9) 0.70696(8)
H8_3 H 0.568686 0.743277 0.700976
C12_3 C 0.82964(16) 0.66104(8) 0.79920(7)
O3_3 O 0.77204(11) 0.62276(5) 0.82142(5)
O4_3 O 0.92292(12) 0.66524(6) 0.81034(6)
N4_3 N 0.86656(12) 0.80431(10) 0.64983(8)
H9_3 H 0.840570 0.826287 0.624215
H10_3 H 0.932659 0.802502 0.654142
Zn2_2 Zn 0.875000 0.58531(2) 0.875000
Zn3_2 Zn 0.375000 0.58531(2) 0.375000
O5_3 O 0.72796(11) 0.87276(5) 0.57142(5)
O6_3 O 0.52204(11) 0.87276(5) 0.67858(5)
O7_3 O 0.57708(12) 0.91524(6) 0.56034(6)
O8_3 O 0.67292(12) 0.91524(6) 0.68966(6)
Zn1_4 Zn 0.125000 0.83531(2) 0.125000
N1_4 N 0.20164(11) 0.77638(6) 0.17560(6)
C1_4 C 0.30388(14) 0.77280(8) 0.18315(7)
C2_4 C 0.34618(15) 0.73595(9) 0.22447(8)
H1_4 H 0.417412 0.735235 0.230393
C3_4 C 0.28241(14) 0.70116(8) 0.25592(7)
C4_4 C 0.17584(15) 0.70389(8) 0.24686(8)
H2_4 H 0.130468 0.680716 0.267427
C5_4 C 0.13984(14) 0.74151(9) 0.20696(8)
H3_4 H 0.068686 0.743277 0.200976
C6_4 C 0.32964(16) 0.66104(8) 0.29920(7)
O1_4 O 0.27204(11) 0.62276(5) 0.32142(5)
O2_4 O 0.42292(12) 0.66524(6) 0.31034(6)
N2_4 N 0.36656(12) 0.80431(10) 0.14983(8)
H4_4 H 0.340570 0.826287 0.124215
H5_4 H 0.432659 0.802502 0.154142
N3_4 N 0.04836(11) 0.77638(6) 0.07440(6)
C10_4 C 0.07416(15) 0.70389(8) 0.00314(8)
C11_4 C 0.11016(14) 0.74151(9) 0.04304(8)
H8_4 H 0.181314 0.743277 0.049024
O5_4 O 0.02204(11) 0.87276(5) 0.17858(5)
O6_4 O 0.22796(11) 0.87276(5) 0.07142(5)
O7_4 O 0.17292(12) 0.91524(6) 0.18966(6)
O8_4 O 0.07708(12) 0.91524(6) 0.06034(6)
C9_4 C 0.96759(14) 0.70116(8) 0.99408(7)
C12_4 C 0.92036(16) 0.66104(8) 0.95080(7)
O3_4 O 0.97796(11) 0.62276(5) 0.92858(5)
O4_4 O 0.82708(12) 0.66524(6) 0.93966(6)
C7_4 C 0.05388(14) 0.52280(8) 0.81685(7)
C8_4 C 0.09618(15) 0.48595(9) 0.77553(8)
H6_4 H 0.167412 0.485235 0.769607
C9_5 C 0.03241(14) 0.45116(8) 0.74408(7)
C12_5 C 0.07964(16) 0.41104(8) 0.70080(7)
N4_4 N 0.11656(12) 0.55431(10) 0.85017(8)
H9_4 H 0.090570 0.576287 0.875785
H10_4 H 0.182659 0.552502 0.845858
C3_5 C 0.71759(14) 0.45116(8) 0.00592(7)
H2_5 H 0.869532 0.430716 0.017427
C6_5 C 0.67036(16) 0.41104(8) 0.04920(7)
N1_5 N 0.79836(11) 0.52638(6) 0.92560(6)
C1_5 C 0.69612(14) 0.52280(8) 0.93315(7)
C2_5 C 0.65382(15) 0.48595(9) 0.97447(8)
H1_5 H 0.582588 0.485235 0.980393
C4_5 C 0.82416(15) 0.45389(8) 0.99686(8)
C5_5 C 0.86016(14) 0.49151(9) 0.95696(8)
H3_5 H 0.931314 0.493277 0.950976
N2_5 N 0.63344(12) 0.55431(10) 0.89983(8)
H4_5 H 0.659430 0.576287 0.874215
H5_5 H 0.567341 0.552502 0.904142
N3_5 N 0.95164(11) 0.52638(6) 0.82440(6)
C10_5 C 0.92584(15) 0.45389(8) 0.75314(8)
H7_4 H 0.880468 0.430716 0.732573
C11_5 C 0.88984(14) 0.49151(9) 0.79304(8)
H8_5 H 0.818686 0.493277 0.799024
N1_6 N 0.45164(11) 0.52638(6) 0.32440(6)
C1_6 C 0.55388(14) 0.52280(8) 0.31685(7)
C2_6 C 0.59618(15) 0.48595(9) 0.27553(8)
H1_6 H 0.667412 0.485235 0.269607
C3_6 C 0.53241(14) 0.45116(8) 0.24408(7)
C4_6 C 0.42584(15) 0.45389(8) 0.25314(8)
H2_6 H 0.380468 0.430716 0.232573
C5_6 C 0.38984(14) 0.49151(9) 0.29304(8)
H3_6 H 0.318686 0.493277 0.299024
C6_6 C 0.57964(16) 0.41104(8) 0.20080(7)
N2_6 N 0.61656(12) 0.55431(10) 0.35017(8)
H4_6 H 0.590570 0.576287 0.375785
H5_6 H 0.682659 0.552502 0.345858
N3_6 N 0.29836(11) 0.52638(6) 0.42560(6)
C7_5 C 0.19612(14) 0.52280(8) 0.43315(7)
C8_5 C 0.15382(15) 0.48595(9) 0.47447(8)
H6_5 H 0.082588 0.485235 0.480393
C9_6 C 0.21759(14) 0.45116(8) 0.50592(7)
C10_6 C 0.32416(15) 0.45389(8) 0.49686(8)
H7_5 H 0.369532 0.430716 0.517427
C11_6 C 0.36016(14) 0.49151(9) 0.45696(8)
H8_6 H 0.431314 0.493277 0.450976
C12_6 C 0.17036(16) 0.41104(8) 0.54920(7)
N4_5 N 0.13344(12) 0.55431(10) 0.39983(8)
H9_5 H 0.159430 0.576287 0.374215
H10_5 H 0.067341 0.552502 0.404142
C8_6 C 0.09618(15) 0.98595(9) 0.27553(8)
H6_6 H 0.167412 0.985235 0.269607
C9_7 C 0.03241(14) 0.95116(8) 0.24408(7)
C12_7 C 0.07964(16) 0.91104(8) 0.20080(7)
N1_7 N 0.79836(11) 0.02638(6) 0.42560(6)
C1_7 C 0.69612(14) 0.02280(8) 0.43315(7)
N2_7 N 0.63344(12) 0.05431(10) 0.39983(8)
H4_7 H 0.659430 0.076287 0.374215
H5_7 H 0.567341 0.052502 0.404142
N3_7 N 0.95164(11) 0.02638(6) 0.32440(6)
C2_7 C 0.65382(15) 0.98595(9) 0.47447(8)
H1_7 H 0.582588 0.985235 0.480393
C3_7 C 0.71759(14) 0.95116(8) 0.50592(7)
C4_7 C 0.82416(15) 0.95389(8) 0.49686(8)
H2_7 H 0.869532 0.930716 0.517427
C5_7 C 0.86016(14) 0.99151(9) 0.45696(8)
H3_7 H 0.931314 0.993277 0.450976
C6_7 C 0.67036(16) 0.91104(8) 0.54920(7)
C10_7 C 0.92584(15) 0.95389(8) 0.25314(8)
H7_6 H 0.880468 0.930716 0.232573
C11_7 C 0.88984(14) 0.99151(9) 0.29304(8)
H8_7 H 0.818686 0.993277 0.299024
N1_8 N 0.45164(11) 0.02638(6) 0.82440(6)
C1_8 C 0.55388(14) 0.02280(8) 0.81685(7)
N2_8 N 0.61656(12) 0.05431(10) 0.85017(8)
H4_8 H 0.590570 0.076287 0.875785
H5_8 H 0.682659 0.052502 0.845858
N3_8 N 0.29836(11) 0.02638(6) 0.92560(6)
C7_6 C 0.19612(14) 0.02280(8) 0.93315(7)
N4_6 N 0.13344(12) 0.05431(10) 0.89983(8)
H9_6 H 0.159430 0.076287 0.874215
H10_6 H 0.067341 0.052502 0.904142
C9_8 C 0.21759(14) 0.95116(8) 0.00592(7)
H7_7 H 0.369532 0.930716 0.017427
C12_8 C 0.17036(16) 0.91104(8) 0.04920(7)
C2_8 C 0.59618(15) 0.98595(9) 0.77553(8)
H1_8 H 0.667412 0.985235 0.769607
C3_8 C 0.53241(14) 0.95116(8) 0.74408(7)
C4_8 C 0.42584(15) 0.95389(8) 0.75314(8)
H2_8 H 0.380468 0.930716 0.732573
C5_8 C 0.38984(14) 0.99151(9) 0.79304(8)
H3_8 H 0.318686 0.993277 0.799024
C6_8 C 0.57964(16) 0.91104(8) 0.70080(7)
C8_7 C 0.15382(15) 0.98595(9) 0.97447(8)
H6_7 H 0.082588 0.985235 0.980393
C10_8 C 0.32416(15) 0.95389(8) 0.99686(8)
C11_8 C 0.36016(14) 0.99151(9) 0.95696(8)
H8_8 H 0.431314 0.993277 0.950976
Zn1_5 Zn 0.125000 0.41469(2) 0.125000
N1_9 N 0.20164(11) 0.47362(6) 0.07440(6)
C1_9 C 0.30388(14) 0.47720(8) 0.06685(7)
C2_9 C 0.34618(15) 0.51405(9) 0.02553(8)
H1_9 H 0.417412 0.514765 0.019607
C4_9 C 0.17584(15) 0.54611(8) 0.00314(8)
C5_9 C 0.13984(14) 0.50849(9) 0.04304(8)
H3_9 H 0.068686 0.506723 0.049024
N2_9 N 0.36656(12) 0.44569(10) 0.10017(8)
H4_9 H 0.340570 0.423713 0.125785
H5_9 H 0.432659 0.447498 0.095858
N3_9 N 0.04836(11) 0.47362(6) 0.17560(6)
C10_9 C 0.07416(15) 0.54611(8) 0.24686(8)
H7_8 H 0.119532 0.569284 0.267427
C11_9 C 0.11016(14) 0.50849(9) 0.20696(8)
H8_9 H 0.181314 0.506723 0.200976
O5_5 O 0.02204(11) 0.37724(5) 0.07142(5)
O6_5 O 0.22796(11) 0.37724(5) 0.17858(5)
O7_5 O 0.17292(12) 0.33476(6) 0.06034(6)
O8_5 O 0.07708(12) 0.33476(6) 0.18966(6)
C3_9 C 0.28241(14) 0.54884(8) 0.99408(7)
H2_9 H 0.130468 0.569284 0.982573
C6_9 C 0.32964(16) 0.58896(8) 0.95080(7)
O1_5 O 0.27204(11) 0.62724(5) 0.92858(5)
O2_5 O 0.42292(12) 0.58476(6) 0.93966(6)
Zn3_3 Zn 0.375000 0.66469(2) 0.875000
C7_7 C 0.94612(14) 0.47720(8) 0.18315(7)
C8_8 C 0.90382(15) 0.51405(9) 0.22447(8)
H6_8 H 0.832588 0.514765 0.230393
C9_9 C 0.96759(14) 0.54884(8) 0.25592(7)
C12_9 C 0.92036(16) 0.58896(8) 0.29920(7)
O3_5 O 0.97796(11) 0.62724(5) 0.32142(5)
O4_5 O 0.82708(12) 0.58476(6) 0.31034(6)
N4_7 N 0.88344(12) 0.44569(10) 0.14983(8)
H9_7 H 0.909430 0.423713 0.124215
H10_7 H 0.817341 0.447498 0.154142
Zn2_3 Zn 0.875000 0.66469(2) 0.375000
Zn1_6 Zn 0.625000 0.41469(2) 0.625000
N1_10 N 0.54836(11) 0.47362(6) 0.67560(6)
C1_10 C 0.44612(14) 0.47720(8) 0.68315(7)
C2_10 C 0.40382(15) 0.51405(9) 0.72447(8)
H1_10 H 0.332588 0.514765 0.730393
C3_10 C 0.46759(14) 0.54884(8) 0.75592(7)
C4_10 C 0.57416(15) 0.54611(8) 0.74686(8)
H2_10 H 0.619532 0.569284 0.767427
C5_10 C 0.61016(14) 0.50849(9) 0.70696(8)
H3_10 H 0.681314 0.506723 0.700976
C6_10 C 0.42036(16) 0.58896(8) 0.79920(7)
O1_6 O 0.47796(11) 0.62724(5) 0.82142(5)
O2_6 O 0.32708(12) 0.58476(6) 0.81034(6)
N2_10 N 0.38344(12) 0.44569(10) 0.64983(8)
H4_10 H 0.409430 0.423713 0.624215
H5_10 H 0.317341 0.447498 0.654142
N3_10 N 0.70164(11) 0.47362(6) 0.57440(6)
C7_8 C 0.80388(14) 0.47720(8) 0.56685(7)
C8_9 C 0.84618(15) 0.51405(9) 0.52553(8)
H6_9 H 0.917412 0.514765 0.519607
C9_10 C 0.78241(14) 0.54884(8) 0.49408(7)
C10_10 C 0.67584(15) 0.54611(8) 0.50314(8)
H7_9 H 0.630468 0.569284 0.482573
C11_10 C 0.63984(14) 0.50849(9) 0.54304(8)
H8_10 H 0.568686 0.506723 0.549024
C12_10 C 0.82964(16) 0.58896(8) 0.45080(7)
O3_6 O 0.77204(11) 0.62724(5) 0.42858(5)
O4_6 O 0.92292(12) 0.58476(6) 0.43966(6)
N4_8 N 0.86656(12) 0.44569(10) 0.60017(8)
H9_8 H 0.840570 0.423713 0.625785
H10_8 H 0.932659 0.447498 0.595858
O5_6 O 0.72796(11) 0.37724(5) 0.67858(5)
O6_6 O 0.52204(11) 0.37724(5) 0.57142(5)
O7_6 O 0.57708(12) 0.33476(6) 0.68966(6)
O8_6 O 0.67292(12) 0.33476(6) 0.56034(6)
C2_11 C 0.34618(15) 0.01405(9) 0.52553(8)
H1_11 H 0.417412 0.014765 0.519607
C3_11 C 0.28241(14) 0.04884(8) 0.49408(7)
C4_11 C 0.17584(15) 0.04611(8) 0.50314(8)
H2_11 H 0.130468 0.069284 0.482573
C5_11 C 0.13984(14) 0.00849(9) 0.54304(8)
H3_11 H 0.068686 0.006723 0.549024
C6_11 C 0.32964(16) 0.08896(8) 0.45080(7)
O1_7 O 0.27204(11) 0.12724(5) 0.42858(5)
O2_7 O 0.42292(12) 0.08476(6) 0.43966(6)
C10_11 C 0.07416(15) 0.04611(8) 0.74686(8)
H7_10 H 0.119532 0.069284 0.767427
C11_11 C 0.11016(14) 0.00849(9) 0.70696(8)
H8_11 H 0.181314 0.006723 0.700976
Zn3_4 Zn 0.375000 0.16469(2) 0.375000
Zn1_7 Zn 0.125000 0.91469(2) 0.625000
N1_11 N 0.20164(11) 0.97362(6) 0.57440(6)
C1_11 C 0.30388(14) 0.97720(8) 0.56685(7)
N2_11 N 0.36656(12) 0.94569(10) 0.60017(8)
H4_11 H 0.340570 0.923713 0.625785
H5_11 H 0.432659 0.947498 0.595858
N3_11 N 0.04836(11) 0.97362(6) 0.67560(6)
O5_7 O 0.02204(11) 0.87724(5) 0.57142(5)
O6_7 O 0.22796(11) 0.87724(5) 0.67858(5)
O7_7 O 0.17292(12) 0.83476(6) 0.56034(6)
O8_7 O 0.07708(12) 0.83476(6) 0.68966(6)
C8_10 C 0.90382(15) 0.01405(9) 0.72447(8)
H6_10 H 0.832588 0.014765 0.730393
C9_11 C 0.96759(14) 0.04884(8) 0.75592(7)
C12_11 C 0.92036(16) 0.08896(8) 0.79920(7)
O3_7 O 0.97796(11) 0.12724(5) 0.82142(5)
O4_7 O 0.82708(12) 0.08476(6) 0.81034(6)
Zn2_4 Zn 0.875000 0.16469(2) 0.875000
C2_12 C 0.40382(15) 0.01405(9) 0.22447(8)
H1_12 H 0.332588 0.014765 0.230393
C3_12 C 0.46759(14) 0.04884(8) 0.25592(7)
C4_12 C 0.57416(15) 0.04611(8) 0.24686(8)
H2_12 H 0.619532 0.069284 0.267427
C5_12 C 0.61016(14) 0.00849(9) 0.20696(8)
H3_12 H 0.681314 0.006723 0.200976
C6_12 C 0.42036(16) 0.08896(8) 0.29920(7)
O1_8 O 0.47796(11) 0.12724(5) 0.32142(5)
O2_8 O 0.32708(12) 0.08476(6) 0.31034(6)
C8_11 C 0.84618(15) 0.01405(9) 0.02553(8)
H6_11 H 0.917412 0.014765 0.019607
C10_12 C 0.67584(15) 0.04611(8) 0.00314(8)
C11_12 C 0.63984(14) 0.00849(9) 0.04304(8)
H8_12 H 0.568686 0.006723 0.049024
C9_12 C 0.78241(14) 0.04884(8) 0.99408(7)
H7_11 H 0.630468 0.069284 0.982573
C12_12 C 0.82964(16) 0.08896(8) 0.95080(7)
O3_8 O 0.77204(11) 0.12724(5) 0.92858(5)
O4_8 O 0.92292(12) 0.08476(6) 0.93966(6)
Zn1_8 Zn 0.625000 0.91469(2) 0.125000
N1_12 N 0.54836(11) 0.97362(6) 0.17560(6)
C1_12 C 0.44612(14) 0.97720(8) 0.18315(7)
N2_12 N 0.38344(12) 0.94569(10) 0.14983(8)
H4_12 H 0.409430 0.923713 0.124215
H5_12 H 0.317341 0.947498 0.154142
N3_12 N 0.70164(11) 0.97362(6) 0.07440(6)
C7_9 C 0.80388(14) 0.97720(8) 0.06685(7)
N4_9 N 0.86656(12) 0.94569(10) 0.10017(8)
H9_9 H 0.840570 0.923713 0.125785
H10_9 H 0.932659 0.947498 0.095858
O5_8 O 0.72796(11) 0.87724(5) 0.17858(5)
O6_8 O 0.52204(11) 0.87724(5) 0.07142(5)
O7_8 O 0.57708(12) 0.83476(6) 0.18966(6)
O8_8 O 0.67292(12) 0.83476(6) 0.06034(6)
C3_13 C 0.53241(14) 0.79884(8) 0.00592(7)
H2_13 H 0.380468 0.819284 0.017427
C6_13 C 0.57964(16) 0.83896(8) 0.04920(7)
N1_13 N 0.45164(11) 0.72362(6) 0.92560(6)
C1_13 C 0.55388(14) 0.72720(8) 0.93315(7)
C2_13 C 0.59618(15) 0.76405(9) 0.97447(8)
H1_13 H 0.667412 0.764765 0.980393
C4_13 C 0.42584(15) 0.79611(8) 0.99686(8)
C5_13 C 0.38984(14) 0.75849(9) 0.95696(8)
H3_13 H 0.318686 0.756723 0.950976
N2_13 N 0.61656(12) 0.69569(10) 0.89983(8)
H4_13 H 0.590570 0.673713 0.874215
H5_13 H 0.682659 0.697498 0.904142
N3_13 N 0.29836(11) 0.72362(6) 0.82440(6)
C7_10 C 0.19612(14) 0.72720(8) 0.81685(7)
C8_12 C 0.15382(15) 0.76405(9) 0.77553(8)
H6_12 H 0.082588 0.764765 0.769607
C9_13 C 0.21759(14) 0.79884(8) 0.74408(7)
C10_13 C 0.32416(15) 0.79611(8) 0.75314(8)
H7_12 H 0.369532 0.819284 0.732573
C11_13 C 0.36016(14) 0.75849(9) 0.79304(8)
H8_13 H 0.431314 0.756723 0.799024
C12_13 C 0.17036(16) 0.83896(8) 0.70080(7)
N4_10 N 0.13344(12) 0.69569(10) 0.85017(8)
H9_10 H 0.159430 0.673713 0.875785
H10_10 H 0.067341 0.697498 0.845858
C7_11 C 0.05388(14) 0.72720(8) 0.43315(7)
C8_13 C 0.09618(15) 0.76405(9) 0.47447(8)
H6_13 H 0.167412 0.764765 0.480393
C9_14 C 0.03241(14) 0.79884(8) 0.50592(7)
C12_14 C 0.07964(16) 0.83896(8) 0.54920(7)
N4_11 N 0.11656(12) 0.69569(10) 0.39983(8)
H9_11 H 0.090570 0.673713 0.374215
H10_11 H 0.182659 0.697498 0.404142
N1_14 N 0.79836(11) 0.72362(6) 0.32440(6)
C1_14 C 0.69612(14) 0.72720(8) 0.31685(7)
C2_14 C 0.65382(15) 0.76405(9) 0.27553(8)
H1_14 H 0.582588 0.764765 0.269607
C3_14 C 0.71759(14) 0.79884(8) 0.24408(7)
C4_14 C 0.82416(15) 0.79611(8) 0.25314(8)
H2_14 H 0.869532 0.819284 0.232573
C5_14 C 0.86016(14) 0.75849(9) 0.29304(8)
H3_14 H 0.931314 0.756723 0.299024
C6_14 C 0.67036(16) 0.83896(8) 0.20080(7)
N2_14 N 0.63344(12) 0.69569(10) 0.35017(8)
H4_14 H 0.659430 0.673713 0.375785
H5_14 H 0.567341 0.697498 0.345858
N3_14 N 0.95164(11) 0.72362(6) 0.42560(6)
C10_14 C 0.92584(15) 0.79611(8) 0.49686(8)
H7_13 H 0.880468 0.819284 0.517427
C11_14 C 0.88984(14) 0.75849(9) 0.45696(8)
H8_14 H 0.818686 0.756723 0.450976
N1_15 N 0.45164(11) 0.22362(6) 0.42560(6)
C1_15 C 0.55388(14) 0.22720(8) 0.43315(7)
C2_15 C 0.59618(15) 0.26405(9) 0.47447(8)
H1_15 H 0.667412 0.264765 0.480393
C3_15 C 0.53241(14) 0.29884(8) 0.50592(7)
C4_15 C 0.42584(15) 0.29611(8) 0.49686(8)
H2_15 H 0.380468 0.319284 0.517427
C5_15 C 0.38984(14) 0.25849(9) 0.45696(8)
H3_15 H 0.318686 0.256723 0.450976
C6_15 C 0.57964(16) 0.33896(8) 0.54920(7)
N2_15 N 0.61656(12) 0.19569(10) 0.39983(8)
H4_15 H 0.590570 0.173713 0.374215
H5_15 H 0.682659 0.197498 0.404142
N3_15 N 0.29836(11) 0.22362(6) 0.32440(6)
C7_12 C 0.19612(14) 0.22720(8) 0.31685(7)
C8_14 C 0.15382(15) 0.26405(9) 0.27553(8)
H6_14 H 0.082588 0.264765 0.269607
C9_15 C 0.21759(14) 0.29884(8) 0.24408(7)
C10_15 C 0.32416(15) 0.29611(8) 0.25314(8)
H7_14 H 0.369532 0.319284 0.232573
C11_15 C 0.36016(14) 0.25849(9) 0.29304(8)
H8_15 H 0.431314 0.256723 0.299024
C12_15 C 0.17036(16) 0.33896(8) 0.20080(7)
N4_12 N 0.13344(12) 0.19569(10) 0.35017(8)
H9_12 H 0.159430 0.173713 0.375785
H10_12 H 0.067341 0.197498 0.345858
C9_16 C 0.03241(14) 0.29884(8) 0.00592(7)
C12_16 C 0.07964(16) 0.33896(8) 0.04920(7)
N1_16 N 0.79836(11) 0.22362(6) 0.82440(6)
C1_16 C 0.69612(14) 0.22720(8) 0.81685(7)
C2_16 C 0.65382(15) 0.26405(9) 0.77553(8)
H1_16 H 0.582588 0.264765 0.769607
C3_16 C 0.71759(14) 0.29884(8) 0.74408(7)
C4_16 C 0.82416(15) 0.29611(8) 0.75314(8)
H2_16 H 0.869532 0.319284 0.732573
C5_16 C 0.86016(14) 0.25849(9) 0.79304(8)
H3_16 H 0.931314 0.256723 0.799024
C6_16 C 0.67036(16) 0.33896(8) 0.70080(7)
N2_16 N 0.63344(12) 0.19569(10) 0.85017(8)
H4_16 H 0.659430 0.173713 0.875785
H5_16 H 0.567341 0.197498 0.845858
N3_16 N 0.95164(11) 0.22362(6) 0.92560(6)
C10_16 C 0.92584(15) 0.29611(8) 0.99686(8)
C11_16 C 0.88984(14) 0.25849(9) 0.95696(8)
H8_16 H 0.818686 0.256723 0.950976
C7_13 C 0.94612(14) 0.97720(8) 0.68315(7)
N4_13 N 0.88344(12) 0.94569(10) 0.64983(8)
H9_13 H 0.909430 0.923713 0.624215
H10_13 H 0.817341 0.947498 0.654142
H7_15 H 0.119532 0.680716 0.982573
C7_14 C 0.94612(14) 0.77280(8) 0.06685(7)
C8_15 C 0.90382(15) 0.73595(9) 0.02553(8)
H6_15 H 0.832588 0.735235 0.019607
N4_14 N 0.88344(12) 0.80431(10) 0.10017(8)
H9_14 H 0.909430 0.826287 0.125785
H10_14 H 0.817341 0.802502 0.095858
C7_15 C 0.05388(14) 0.02280(8) 0.31685(7)
N4_15 N 0.11656(12) 0.05431(10) 0.35017(8)
H9_15 H 0.090570 0.076287 0.375785
H10_15 H 0.182659 0.052502 0.345858
C7_16 C 0.05388(14) 0.22720(8) 0.93315(7)
C8_16 C 0.09618(15) 0.26405(9) 0.97447(8)
H6_16 H 0.167412 0.264765 0.980393
N4_16 N 0.11656(12) 0.19569(10) 0.89983(8)
H9_16 H 0.090570 0.173713 0.874215
H10_16 H 0.182659 0.197498 0.904142
H7_16 H 0.880468 0.319284 0.017427
loop_
_geom_bond_atom_site_label_1
_geom_bond_atom_site_label_2
_geom_bond_site_symmetry_1
_geom_bond_site_symmetry_2
Zn1 N1 1_555 1_555
N1 C1 1_555 1_555
C1 C2 1_555 1_555
C2 H1 1_555 1_555
C5 N1 1_555 1_555
H3 C5 1_555 1_555
N2 C1 1_555 1_555
H4 N2 1_555 1_555
H5 N2 1_555 1_555
N3 Zn1 1_555 1_555
C7 N3 1_555 1_555
C8 C7 1_555 1_555
H6 C8 1_555 1_555
C9 C8 1_555 1_555
C10 C9 1_555 1_555
H7 C10 1_555 1_555
C11 N3 1_555 1_555
H8 C11 1_555 1_555
C12 C9 1_555 1_555
O3 C12 1_555 1_555
O4 C12 1_555 1_555
N4 C7 1_555 1_555
H9 N4 1_555 1_555
H10 N4 1_555 1_555
Zn2 O3 1_555 1_555
O5 Zn1 1_555 1_555
O6 Zn1 1_555 1_555
O7 Zn1 1_555 1_555
O8 Zn1 1_555 1_555
C4 C5 1_555 1_555
C10 C11 1_555 1_555
O4 Zn2 1_555 1_555
C6 C3 1_555 1_555
O1 C6 1_555 1_555
O2 C6 1_555 1_555
Zn3 O1 1_555 1_555
O2 Zn3 1_555 1_555
Zn1_2 N1_2 1_555 1_555
N1_2 C1_2 1_555 1_555
C1_2 C2_2 1_555 1_555
C2_2 H1_2 1_555 1_555
C3_2 C2_2 1_555 1_555
C4_2 C3_2 1_555 1_555
H2_2 C4_2 1_555 1_555
C5_2 N1_2 1_555 1_555
H3_2 C5_2 1_555 1_555
C6_2 C3_2 1_555 1_555
O1_2 C6_2 1_555 1_555
O2_2 C6_2 1_555 1_555
N2_2 C1_2 1_555 1_555
H4_2 N2_2 1_555 1_555
H5_2 N2_2 1_555 1_555
N3_2 Zn1_2 1_555 1_555
H7_2 C10_2 1_555 1_555
C11_2 N3_2 1_555 1_555
H8_2 C11_2 1_555 1_555
Zn3 O1_2 1_555 1_555
O5_2 Zn1_2 1_555 1_555
O6_2 Zn1_2 1_555 1_555
O7_2 Zn1_2 1_555 1_555
O8_2 Zn1_2 1_555 1_555
C4_2 C5_2 1_555 1_555
O2_2 Zn3 1_555 1_555
C10_2 C11_2 1_555 1_555
C8_2 C7_2 1_555 1_555
H6_2 C8_2 1_555 1_555
C9_2 C8_2 1_555 1_555
C12_2 C9_2 1_555 1_555
O3_2 C12_2 1_555 1_555
O4_2 C12_2 1_555 1_555
N4_2 C7_2 1_555 1_555
H9_2 N4_2 1_555 1_555
H10_2 N4_2 1_555 1_555
Zn2 O3_2 1_555 1_555
O4_2 Zn2 1_555 1_555
Zn1_3 N1_3 1_555 1_555
N1_3 C1_3 1_555 1_555
C1_3 C2_3 1_555 1_555
C2_3 H1_3 1_555 1_555
C3_3 C2_3 1_555 1_555
C4_3 C3_3 1_555 1_555
H2_3 C4_3 1_555 1_555
C5_3 N1_3 1_555 1_555
H3_3 C5_3 1_555 1_555
C6_3 C3_3 1_555 1_555
O1_3 C6_3 1_555 1_555
O2_3 C6_3 1_555 1_555
N2_3 C1_3 1_555 1_555
H4_3 N2_3 1_555 1_555
H5_3 N2_3 1_555 1_555
N3_3 Zn1_3 1_555 1_555
C7_3 N3_3 1_555 1_555
C8_3 C7_3 1_555 1_555
H6_3 C8_3 1_555 1_555
C9_3 C8_3 1_555 1_555
C10_3 C9_3 1_555 1_555
H7_3 C10_3 1_555 1_555
C11_3 N3_3 1_555 1_555
H8_3 C11_3 1_555 1_555
C12_3 C9_3 1_555 1_555
O3_3 C12_3 1_555 1_555
O4_3 C12_3 1_555 1_555
N4_3 C7_3 1_555 1_555
H9_3 N4_3 1_555 1_555
H10_3 N4_3 1_555 1_555
Zn2_2 O3_3 1_555 1_555
Zn3_2 O1_3 1_555 1_555
O5_3 Zn1_3 1_555 1_555
O6_3 Zn1_3 1_555 1_555
O7_3 Zn1_3 1_555 1_555
O8_3 Zn1_3 1_555 1_555
C4_3 C5_3 1_555 1_555
O2_3 Zn3_2 1_555 1_555
C10_3 C11_3 1_555 1_555
O4_3 Zn2_2 1_555 1_555
Zn1_4 N1_4 1_555 1_555
N1_4 C1_4 1_555 1_555
C1_4 C2_4 1_555 1_555
C2_4 H1_4 1_555 1_555
C3_4 C2_4 1_555 1_555
C4_4 C3_4 1_555 1_555
H2_4 C4_4 1_555 1_555
C5_4 N1_4 1_555 1_555
H3_4 C5_4 1_555 1_555
C6_4 C3_4 1_555 1_555
O1_4 C6_4 1_555 1_555
O2_4 C6_4 1_555 1_555
N2_4 C1_4 1_555 1_555
H4_4 N2_4 1_555 1_555
H5_4 N2_4 1_555 1_555
N3_4 Zn1_4 1_555 1_555
C11_4 N3_4 1_555 1_555
H8_4 C11_4 1_555 1_555
Zn3_2 O1_4 1_555 1_555
O5_4 Zn1_4 1_555 1_555
O6_4 Zn1_4 1_555 1_555
O7_4 Zn1_4 1_555 1_555
O8_4 Zn1_4 1_555 1_555
C4_4 C5_4 1_555 1_555
O2_4 Zn3_2 1_555 1_555
C10_4 C11_4 1_555 1_555
C12_4 C9_4 1_555 1_555
O3_4 C12_4 1_555 1_555
O4_4 C12_4 1_555 1_555
Zn2_2 O3_4 1_555 1_555
O4_4 Zn2_2 1_555 1_555
C8_4 C7_4 1_555 1_555
H6_4 C8_4 1_555 1_555
C9_5 C8_4 1_555 1_555
C12_5 C9_5 1_555 1_555
O5_2 C12_5 1_555 1_555
O7_2 C12_5 1_555 1_555
N4_4 C7_4 1_555 1_555
H9_4 N4_4 1_555 1_555
H10_4 N4_4 1_555 1_555
C6_5 C3_5 1_555 1_555
O5 C6_5 1_555 1_555
O7 C6_5 1_555 1_555
Zn2_2 N1_5 1_555 1_555
N1_5 C1_5 1_555 1_555
C1_5 C2_5 1_555 1_555
C2_5 H1_5 1_555 1_555
C5_5 N1_5 1_555 1_555
H3_5 C5_5 1_555 1_555
N2_5 C1_5 1_555 1_555
H4_5 N2_5 1_555 1_555
H5_5 N2_5 1_555 1_555
N3_5 Zn2_2 1_555 1_555
H7_4 C10_5 1_555 1_555
C11_5 N3_5 1_555 1_555
H8_5 C11_5 1_555 1_555
C4_5 C5_5 1_555 1_555
C10_5 C11_5 1_555 1_555
Zn3_2 N1_6 1_555 1_555
N1_6 C1_6 1_555 1_555
C1_6 C2_6 1_555 1_555
C2_6 H1_6 1_555 1_555
C3_6 C2_6 1_555 1_555
C4_6 C3_6 1_555 1_555
H2_6 C4_6 1_555 1_555
C5_6 N1_6 1_555 1_555
H3_6 C5_6 1_555 1_555
C6_6 C3_6 1_555 1_555
O6 C6_6 1_555 1_555
O8 C6_6 1_555 1_555
N2_6 C1_6 1_555 1_555
H4_6 N2_6 1_555 1_555
H5_6 N2_6 1_555 1_555
N3_6 Zn3_2 1_555 1_555
C7_5 N3_6 1_555 1_555
C8_5 C7_5 1_555 1_555
H6_5 C8_5 1_555 1_555
C9_6 C8_5 1_555 1_555
C10_6 C9_6 1_555 1_555
H7_5 C10_6 1_555 1_555
C11_6 N3_6 1_555 1_555
H8_6 C11_6 1_555 1_555
C12_6 C9_6 1_555 1_555
O6_2 C12_6 1_555 1_555
O8_2 C12_6 1_555 1_555
N4_5 C7_5 1_555 1_555
H9_5 N4_5 1_555 1_555
H10_5 N4_5 1_555 1_555
C4_6 C5_6 1_555 1_555
C10_6 C11_6 1_555 1_555
H6_6 C8_6 1_555 1_555
C9_7 C8_6 1_555 1_555
C12_7 C9_7 1_555 1_555
O5_4 C12_7 1_555 1_555
O7_4 C12_7 1_555 1_555
Zn2 N1_7 1_555 1_555
N1_7 C1_7 1_555 1_555
N2_7 C1_7 1_555 1_555
H4_7 N2_7 1_555 1_555
H5_7 N2_7 1_555 1_555
N3_7 Zn2 1_555 1_555
C2_7 H1_7 1_555 1_555
C3_7 C2_7 1_555 1_555
C4_7 C3_7 1_555 1_555
H2_7 C4_7 1_555 1_555
H3_7 C5_7 1_555 1_555
C6_7 C3_7 1_555 1_555
O5_3 C6_7 1_555 1_555
O7_3 C6_7 1_555 1_555
H7_6 C10_7 1_555 1_555
H8_7 C11_7 1_555 1_555
C4_7 C5_7 1_555 1_555
C10_7 C11_7 1_555 1_555
Zn3 N1_8 1_555 1_555
N1_8 C1_8 1_555 1_555
N2_8 C1_8 1_555 1_555
H4_8 N2_8 1_555 1_555
H5_8 N2_8 1_555 1_555
N3_8 Zn3 1_555 1_555
C7_6 N3_8 1_555 1_555
N4_6 C7_6 1_555 1_555
H9_6 N4_6 1_555 1_555
H10_6 N4_6 1_555 1_555
C12_8 C9_8 1_555 1_555
O6_4 C12_8 1_555 1_555
O8_4 C12_8 1_555 1_555
C2_8 H1_8 1_555 1_555
C3_8 C2_8 1_555 1_555
C4_8 C3_8 1_555 1_555
H2_8 C4_8 1_555 1_555
H3_8 C5_8 1_555 1_555
C6_8 C3_8 1_555 1_555
O6_3 C6_8 1_555 1_555
O8_3 C6_8 1_555 1_555
H6_7 C8_7 1_555 1_555
H8_8 C11_8 1_555 1_555
C4_8 C5_8 1_555 1_555
C10_8 C11_8 1_555 1_555
Zn1_5 N1_9 1_555 1_555
N1_9 C1_9 1_555 1_555
C1_9 C2_9 1_555 1_555
C2_9 H1_9 1_555 1_555
C5_9 N1_9 1_555 1_555
H3_9 C5_9 1_555 1_555
N2_9 C1_9 1_555 1_555
H4_9 N2_9 1_555 1_555
H5_9 N2_9 1_555 1_555
N3_9 Zn1_5 1_555 1_555
H7_8 C10_9 1_555 1_555
C11_9 N3_9 1_555 1_555
H8_9 C11_9 1_555 1_555
O5_5 Zn1_5 1_555 1_555
O6_5 Zn1_5 1_555 1_555
O7_5 Zn1_5 1_555 1_555
O8_5 Zn1_5 1_555 1_555
C4_9 C5_9 1_555 1_555
C10_9 C11_9 1_555 1_555
C6_9 C3_9 1_555 1_555
O1_5 C6_9 1_555 1_555
O2_5 C6_9 1_555 1_555
Zn3_3 O1_5 1_555 1_555
O2_5 Zn3_3 1_555 1_555
C8_8 C7_7 1_555 1_555
H6_8 C8_8 1_555 1_555
C9_9 C8_8 1_555 1_555
C12_9 C9_9 1_555 1_555
O3_5 C12_9 1_555 1_555
O4_5 C12_9 1_555 1_555
N4_7 C7_7 1_555 1_555
H9_7 N4_7 1_555 1_555
H10_7 N4_7 1_555 1_555
Zn2_3 O3_5 1_555 1_555
O4_5 Zn2_3 1_555 1_555
Zn1_6 N1_10 1_555 1_555
N1_10 C1_10 1_555 1_555
C1_10 C2_10 1_555 1_555
C2_10 H1_10 1_555 1_555
C3_10 C2_10 1_555 1_555
C4_10 C3_10 1_555 1_555
H2_10 C4_10 1_555 1_555
C5_10 N1_10 1_555 1_555
H3_10 C5_10 1_555 1_555
C6_10 C3_10 1_555 1_555
O1_6 C6_10 1_555 1_555
O2_6 C6_10 1_555 1_555
N2_10 C1_10 1_555 1_555
H4_10 N2_10 1_555 1_555
H5_10 N2_10 1_555 1_555
N3_10 Zn1_6 1_555 1_555
C7_8 N3_10 1_555 1_555
C8_9 C7_8 1_555 1_555
H6_9 C8_9 1_555 1_555
C9_10 C8_9 1_555 1_555
C10_10 C9_10 1_555 1_555
H7_9 C10_10 1_555 1_555
C11_10 N3_10 1_555 1_555
H8_10 C11_10 1_555 1_555
C12_10 C9_10 1_555 1_555
O3_6 C12_10 1_555 1_555
O4_6 C12_10 1_555 1_555
N4_8 C7_8 1_555 1_555
H9_8 N4_8 1_555 1_555
H10_8 N4_8 1_555 1_555
Zn2_3 O3_6 1_555 1_555
Zn3_3 O1_6 1_555 1_555
O5_6 Zn1_6 1_555 1_555
O6_6 Zn1_6 1_555 1_555
O7_6 Zn1_6 1_555 1_555
O8_6 Zn1_6 1_555 1_555
C4_10 C5_10 1_555 1_555
O2_6 Zn3_3 1_555 1_555
C10_10 C11_10 1_555 1_555
O4_6 Zn2_3 1_555 1_555
C2_11 H1_11 1_555 1_555
C3_11 C2_11 1_555 1_555
C4_11 C3_11 1_555 1_555
H2_11 C4_11 1_555 1_555
H3_11 C5_11 1_555 1_555
C6_11 C3_11 1_555 1_555
O1_7 C6_11 1_555 1_555
O2_7 C6_11 1_555 1_555
H7_10 C10_11 1_555 1_555
H8_11 C11_11 1_555 1_555
Zn3_4 O1_7 1_555 1_555
C4_11 C5_11 1_555 1_555
O2_7 Zn3_4 1_555 1_555
C10_11 C11_11 1_555 1_555
Zn1_7 N1_11 1_555 1_555
N1_11 C1_11 1_555 1_555
N2_11 C1_11 1_555 1_555
H4_11 N2_11 1_555 1_555
H5_11 N2_11 1_555 1_555
N3_11 Zn1_7 1_555 1_555
O5_7 Zn1_7 1_555 1_555
O6_7 Zn1_7 1_555 1_555
O7_7 Zn1_7 1_555 1_555
O8_7 Zn1_7 1_555 1_555
H6_10 C8_10 1_555 1_555
C9_11 C8_10 1_555 1_555
C12_11 C9_11 1_555 1_555
O3_7 C12_11 1_555 1_555
O4_7 C12_11 1_555 1_555
Zn2_4 O3_7 1_555 1_555
O4_7 Zn2_4 1_555 1_555
C2_12 H1_12 1_555 1_555
C3_12 C2_12 1_555 1_555
C4_12 C3_12 1_555 1_555
H2_12 C4_12 1_555 1_555
H3_12 C5_12 1_555 1_555
C6_12 C3_12 1_555 1_555
O1_8 C6_12 1_555 1_555
O2_8 C6_12 1_555 1_555
H6_11 C8_11 1_555 1_555
H8_12 C11_12 1_555 1_555
Zn3_4 O1_8 1_555 1_555
C4_12 C5_12 1_555 1_555
O2_8 Zn3_4 1_555 1_555
C10_12 C11_12 1_555 1_555
C12_12 C9_12 1_555 1_555
O3_8 C12_12 1_555 1_555
O4_8 C12_12 1_555 1_555
Zn2_4 O3_8 1_555 1_555
O4_8 Zn2_4 1_555 1_555
Zn1_8 N1_12 1_555 1_555
N1_12 C1_12 1_555 1_555
N2_12 C1_12 1_555 1_555
H4_12 N2_12 1_555 1_555
H5_12 N2_12 1_555 1_555
N3_12 Zn1_8 1_555 1_555
C7_9 N3_12 1_555 1_555
N4_9 C7_9 1_555 1_555
H9_9 N4_9 1_555 1_555
H10_9 N4_9 1_555 1_555
O5_8 Zn1_8 1_555 1_555
O6_8 Zn1_8 1_555 1_555
O7_8 Zn1_8 1_555 1_555
O8_8 Zn1_8 1_555 1_555
C6_13 C3_13 1_555 1_555
O6_8 C6_13 1_555 1_555
O8_8 C6_13 1_555 1_555
Zn3_3 N1_13 1_555 1_555
N1_13 C1_13 1_555 1_555
C1_13 C2_13 1_555 1_555
C2_13 H1_13 1_555 1_555
C5_13 N1_13 1_555 1_555
H3_13 C5_13 1_555 1_555
N2_13 C1_13 1_555 1_555
H4_13 N2_13 1_555 1_555
H5_13 N2_13 1_555 1_555
N3_13 Zn3_3 1_555 1_555
C7_10 N3_13 1_555 1_555
C8_12 C7_10 1_555 1_555
H6_12 C8_12 1_555 1_555
C9_13 C8_12 1_555 1_555
C10_13 C9_13 1_555 1_555
H7_12 C10_13 1_555 1_555
C11_13 N3_13 1_555 1_555
H8_13 C11_13 1_555 1_555
C12_13 C9_13 1_555 1_555
O6_7 C12_13 1_555 1_555
O8_7 C12_13 1_555 1_555
N4_10 C7_10 1_555 1_555
H9_10 N4_10 1_555 1_555
H10_10 N4_10 1_555 1_555
C4_13 C5_13 1_555 1_555
C10_13 C11_13 1_555 1_555
C8_13 C7_11 1_555 1_555
H6_13 C8_13 1_555 1_555
C9_14 C8_13 1_555 1_555
C12_14 C9_14 1_555 1_555
O5_7 C12_14 1_555 1_555
O7_7 C12_14 1_555 1_555
N4_11 C7_11 1_555 1_555
H9_11 N4_11 1_555 1_555
H10_11 N4_11 1_555 1_555
Zn2_3 N1_14 1_555 1_555
N1_14 C1_14 1_555 1_555
C1_14 C2_14 1_555 1_555
C2_14 H1_14 1_555 1_555
C3_14 C2_14 1_555 1_555
C4_14 C3_14 1_555 1_555
H2_14 C4_14 1_555 1_555
C5_14 N1_14 1_555 1_555
H3_14 C5_14 1_555 1_555
C6_14 C3_14 1_555 1_555
O5_8 C6_14 1_555 1_555
O7_8 C6_14 1_555 1_555
N2_14 C1_14 1_555 1_555
H4_14 N2_14 1_555 1_555
H5_14 N2_14 1_555 1_555
N3_14 Zn2_3 1_555 1_555
H7_13 C10_14 1_555 1_555
C11_14 N3_14 1_555 1_555
H8_14 C11_14 1_555 1_555
C4_14 C5_14 1_555 1_555
C10_14 C11_14 1_555 1_555
Zn3_4 N1_15 1_555 1_555
N1_15 C1_15 1_555 1_555
C1_15 C2_15 1_555 1_555
C2_15 H1_15 1_555 1_555
C3_15 C2_15 1_555 1_555
C4_15 C3_15 1_555 1_555
H2_15 C4_15 1_555 1_555
C5_15 N1_15 1_555 1_555
H3_15 C5_15 1_555 1_555
C6_15 C3_15 1_555 1_555
O6_6 C6_15 1_555 1_555
O8_6 C6_15 1_555 1_555
N2_15 C1_15 1_555 1_555
H4_15 N2_15 1_555 1_555
H5_15 N2_15 1_555 1_555
N3_15 Zn3_4 1_555 1_555
C7_12 N3_15 1_555 1_555
C8_14 C7_12 1_555 1_555
H6_14 C8_14 1_555 1_555
C9_15 C8_14 1_555 1_555
C10_15 C9_15 1_555 1_555
H7_14 C10_15 1_555 1_555
C11_15 N3_15 1_555 1_555
H8_15 C11_15 1_555 1_555
C12_15 C9_15 1_555 1_555
O6_5 C12_15 1_555 1_555
O8_5 C12_15 1_555 1_555
N4_12 C7_12 1_555 1_555
H9_12 N4_12 1_555 1_555
H10_12 N4_12 1_555 1_555
C4_15 C5_15 1_555 1_555
C10_15 C11_15 1_555 1_555
C12_16 C9_16 1_555 1_555
O5_5 C12_16 1_555 1_555
O7_5 C12_16 1_555 1_555
Zn2_4 N1_16 1_555 1_555
N1_16 C1_16 1_555 1_555
C1_16 C2_16 1_555 1_555
C2_16 H1_16 1_555 1_555
C3_16 C2_16 1_555 1_555
C4_16 C3_16 1_555 1_555
H2_16 C4_16 1_555 1_555
C5_16 N1_16 1_555 1_555
H3_16 C5_16 1_555 1_555
C6_16 C3_16 1_555 1_555
O5_6 C6_16 1_555 1_555
O7_6 C6_16 1_555 1_555
N2_16 C1_16 1_555 1_555
H4_16 N2_16 1_555 1_555
H5_16 N2_16 1_555 1_555
N3_16 Zn2_4 1_555 1_555
C11_16 N3_16 1_555 1_555
H8_16 C11_16 1_555 1_555
C4_16 C5_16 1_555 1_555
C10_16 C11_16 1_555 1_555
N4_13 C7_13 1_555 1_555
H9_13 N4_13 1_555 1_555
H10_13 N4_13 1_555 1_555
C8_15 C7_14 1_555 1_555
H6_15 C8_15 1_555 1_555
N4_14 C7_14 1_555 1_555
H9_14 N4_14 1_555 1_555
H10_14 N4_14 1_555 1_555
N4_15 C7_15 1_555 1_555
H9_15 N4_15 1_555 1_555
H10_15 N4_15 1_555 1_555
C8_16 C7_16 1_555 1_555
H6_16 C8_16 1_555 1_555
N4_16 C7_16 1_555 1_555
H9_16 N4_16 1_555 1_555
H10_16 N4_16 1_555 1_555

#END
