
###############################################################################
#
# This file contains modified crystal structure data generated from the
# MOF subset of the Cambridge Structural Database (CSD) v543 
# hosted by the Cambridge Crystallographic Data Centre (CCDC).
#
# This work is licensed under the Creative Commons
# Attribution-NonCommercial-ShareAlike 4.0 International License.
# To view a copy of this license, visit
# http://creativecommons.org/licenses/by-nc-sa/4.0/
# or send a letter to
# Creative Commons, PO Box 1866, Mountain View, CA 94042, USA.
#
# CIF created using the CSD Python API on 29 September 2022
# The structure has been converted into the P1 space group
# The structure has a 3D framework
# The original CSD entry SARBUK is in the orthorhombic crystal system
# The framework has been calculated to contain at least 10.0% void space
# The void calculation uses a probe of radius 1.32A, grid spacing 0.4
#
###############################################################################

data_SARBUK
_chemical_formula_moiety         '(C192 H160 N63 O64 Zn8)n'
_symmetry_cell_setting           triclinic
_symmetry_space_group_name_H-M   'P 1'
_symmetry_Int_Tables_number      1
_space_group_name_Hall           'P 1'
loop_
_symmetry_equiv_pos_site_id
_symmetry_equiv_pos_as_xyz
1 x,y,z
_cell_length_a                   12.7589(13)
_cell_length_b                   22.66(3)
_cell_length_c                   24.053(4)
_cell_angle_alpha                90
_cell_angle_beta                 90
_cell_angle_gamma                90
_cell_volume                     6954.12
loop_
_atom_site_label
_atom_site_type_symbol
_atom_site_fract_x
_atom_site_fract_y
_atom_site_fract_z
Zn1 Zn 0.1250 0.334000(19) 0.6250
C4 C 0.0748(2) 0.20195(15) 0.50372(12)
H2 H 0.1210 0.1796 0.4825
C5 C 0.1101(2) 0.23932(14) 0.54347(13)
H3 H 0.1822 0.2416 0.5490
N1 N 0.04814(16) 0.27351(10) 0.57562(9)
Zn3 Zn 0.3750 0.584000(19) 0.3750
O3 O 0.07520(16) 0.41220(11) 0.55904(9)
O4 O 0.22846(15) 0.37108(8) 0.57148(7)
O5 O 0.02154(15) 0.37108(8) 0.67852(7)
C7 C 0.1937(2) 0.51868(13) 0.43113(12)
C8 C 0.1523(2) 0.48152(15) 0.47195(13)
H6 H 0.0801 0.4796 0.4770
C9 C 0.2165(2) 0.44806(13) 0.50431(11)
C10 C 0.3248(2) 0.45195(15) 0.49628(12)
H7 H 0.3710 0.4296 0.5175
C11 C 0.3601(2) 0.48932(14) 0.45653(13)
H8 H 0.4322 0.4916 0.4510
C12 C 0.1698(2) 0.40791(14) 0.54770(11)
N3 N 0.29814(16) 0.52351(10) 0.42438(9)
N4 N 0.20186(16) 0.27351(10) 0.67438(9)
N5 N 0.13090(18) 0.55041(15) 0.39808(13)
H9 H 0.1574 0.5732 0.3732
H10 H 0.0640 0.5480 0.4017
O1 O 0.82520(16) 0.16220(11) 0.44096(9)
O2 O 0.97846(15) 0.12108(8) 0.42852(7)
C1 C 0.9437(2) 0.26868(13) 0.56887(12)
C2 C 0.9023(2) 0.23152(15) 0.52805(13)
H1 H 0.8301 0.2296 0.5230
C3 C 0.9665(2) 0.19806(13) 0.49569(11)
C6 C 0.9198(2) 0.15791(14) 0.45230(11)
N2 N 0.88090(18) 0.30041(15) 0.60192(13)
H4 H 0.9074 0.3232 0.6268
H5 H 0.8140 0.2980 0.5983
Zn2 Zn 0.8750 0.084000(19) 0.3750
Zn1_2 Zn 0.6250 0.334000(19) 0.1250
O1_2 O 0.92480(16) 0.16220(11) 0.30904(9)
O2_2 O 0.77154(15) 0.12108(8) 0.32148(7)
C1_2 C 0.8063(2) 0.26868(13) 0.18113(12)
C2_2 C 0.8477(2) 0.23152(15) 0.22195(13)
H1_2 H 0.9199 0.2296 0.2270
C3_2 C 0.7835(2) 0.19806(13) 0.25431(11)
C4_2 C 0.6752(2) 0.20195(15) 0.24628(12)
H2_2 H 0.6290 0.1796 0.2675
C5_2 C 0.6399(2) 0.23932(14) 0.20653(13)
H3_2 H 0.5678 0.2416 0.2010
C6_2 C 0.8302(2) 0.15791(14) 0.29770(11)
N1_2 N 0.70186(16) 0.27351(10) 0.17438(9)
N2_2 N 0.86910(18) 0.30041(15) 0.14808(13)
H4_2 H 0.8426 0.3232 0.1232
H5_2 H 0.9360 0.2980 0.1517
O3_2 O 0.67480(16) 0.41220(11) 0.19096(9)
O4_2 O 0.52154(15) 0.37108(8) 0.17852(7)
O5_2 O 0.72846(15) 0.37108(8) 0.07148(7)
C7_2 C 0.5563(2) 0.51868(13) 0.31887(12)
C8_2 C 0.5977(2) 0.48152(15) 0.27805(13)
H6_2 H 0.6699 0.4796 0.2730
C9_2 C 0.5335(2) 0.44806(13) 0.24569(11)
C10_2 C 0.4252(2) 0.45195(15) 0.25372(12)
H7_2 H 0.3790 0.4296 0.2325
C11_2 C 0.3899(2) 0.48932(14) 0.29347(13)
H8_2 H 0.3178 0.4916 0.2990
C12_2 C 0.5802(2) 0.40791(14) 0.20230(11)
N3_2 N 0.45186(16) 0.52351(10) 0.32562(9)
N4_2 N 0.54814(16) 0.27351(10) 0.07562(9)
N5_2 N 0.61910(18) 0.55041(15) 0.35192(13)
H9_2 H 0.5926 0.5732 0.3768
H10_2 H 0.6860 0.5480 0.3483
Zn3_2 Zn 0.3750 0.084000(19) 0.8750
C7_3 C 0.1937(2) 0.01868(13) 0.93113(12)
N3_3 N 0.29814(16) 0.02351(10) 0.92438(9)
N5_3 N 0.13090(18) 0.05041(15) 0.89808(13)
H9_3 H 0.1574 0.0732 0.8732
H10_3 H 0.0640 0.0480 0.9017
Zn1_3 Zn 0.1250 0.834000(19) 0.1250
C4_3 C 0.0748(2) 0.70195(15) 0.00372(12)
C5_3 C 0.1101(2) 0.73932(14) 0.04347(13)
H3_3 H 0.1822 0.7416 0.0490
N1_3 N 0.04814(16) 0.77351(10) 0.07562(9)
O3_3 O 0.07520(16) 0.91220(11) 0.05904(9)
O4_3 O 0.22846(15) 0.87108(8) 0.07148(7)
O5_3 O 0.02154(15) 0.87108(8) 0.17852(7)
C9_3 C 0.2165(2) 0.94806(13) 0.00431(11)
H7_3 H 0.3710 0.9296 0.0175
C12_3 C 0.1698(2) 0.90791(14) 0.04770(11)
N4_3 N 0.20186(16) 0.77351(10) 0.17438(9)
C1_3 C 0.9437(2) 0.76868(13) 0.06887(12)
C2_3 C 0.9023(2) 0.73152(15) 0.02805(13)
H1_3 H 0.8301 0.7296 0.0230
N2_3 N 0.88090(18) 0.80041(15) 0.10192(13)
H4_3 H 0.9074 0.8232 0.1268
H5_3 H 0.8140 0.7980 0.0983
O1_3 O 0.82520(16) 0.66220(11) 0.94096(9)
O2_3 O 0.97846(15) 0.62108(8) 0.92852(7)
C3_3 C 0.9665(2) 0.69806(13) 0.99569(11)
C6_3 C 0.9198(2) 0.65791(14) 0.95230(11)
Zn2_2 Zn 0.8750 0.584000(19) 0.8750
C7_4 C 0.5563(2) 0.01868(13) 0.81887(12)
N3_4 N 0.45186(16) 0.02351(10) 0.82562(9)
N5_4 N 0.61910(18) 0.05041(15) 0.85192(13)
H9_4 H 0.5926 0.0732 0.8768
H10_4 H 0.6860 0.0480 0.8483
Zn1_4 Zn 0.6250 0.834000(19) 0.6250
O1_4 O 0.92480(16) 0.66220(11) 0.80904(9)
O2_4 O 0.77154(15) 0.62108(8) 0.82148(7)
C1_4 C 0.8063(2) 0.76868(13) 0.68113(12)
C2_4 C 0.8477(2) 0.73152(15) 0.72195(13)
H1_4 H 0.9199 0.7296 0.7270
C3_4 C 0.7835(2) 0.69806(13) 0.75431(11)
C4_4 C 0.6752(2) 0.70195(15) 0.74628(12)
H2_3 H 0.6290 0.6796 0.7675
C5_4 C 0.6399(2) 0.73932(14) 0.70653(13)
H3_4 H 0.5678 0.7416 0.7010
C6_4 C 0.8302(2) 0.65791(14) 0.79770(11)
N1_4 N 0.70186(16) 0.77351(10) 0.67438(9)
N2_4 N 0.86910(18) 0.80041(15) 0.64808(13)
H4_4 H 0.8426 0.8232 0.6232
H5_4 H 0.9360 0.7980 0.6517
O3_4 O 0.67480(16) 0.91220(11) 0.69096(9)
O4_4 O 0.52154(15) 0.87108(8) 0.67852(7)
O5_4 O 0.72846(15) 0.87108(8) 0.57148(7)
C8_3 C 0.5977(2) 0.98152(15) 0.77805(13)
H6_3 H 0.6699 0.9796 0.7730
C9_4 C 0.5335(2) 0.94806(13) 0.74569(11)
C10_3 C 0.4252(2) 0.95195(15) 0.75372(12)
H7_4 H 0.3790 0.9296 0.7325
C11_3 C 0.3899(2) 0.98932(14) 0.79347(13)
H8_3 H 0.3178 0.9916 0.7990
C12_4 C 0.5802(2) 0.90791(14) 0.70230(11)
N4_4 N 0.54814(16) 0.77351(10) 0.57562(9)
C1_5 C 0.4437(2) 0.26868(13) 0.06887(12)
C2_5 C 0.4023(2) 0.23152(15) 0.02805(13)
H1_5 H 0.3301 0.2296 0.0230
C4_5 C 0.5748(2) 0.20195(15) 0.00372(12)
C5_5 C 0.6101(2) 0.23932(14) 0.04347(13)
H3_5 H 0.6822 0.2416 0.0490
N2_5 N 0.38090(18) 0.30041(15) 0.10192(13)
H4_5 H 0.4074 0.3232 0.1268
H5_5 H 0.3140 0.2980 0.0983
O3_5 O 0.57520(16) 0.41220(11) 0.05904(9)
C9_5 C 0.7165(2) 0.44806(13) 0.00431(11)
H7_5 H 0.8710 0.4296 0.0175
C12_5 C 0.6698(2) 0.40791(14) 0.04770(11)
O1_5 O 0.32520(16) 0.16220(11) 0.94096(9)
O2_5 O 0.47846(15) 0.12108(8) 0.92852(7)
C3_5 C 0.4665(2) 0.19806(13) 0.99569(11)
H2_4 H 0.6210 0.1796 0.9825
C6_5 C 0.4198(2) 0.15791(14) 0.95230(11)
C7_5 C 0.6937(2) 0.51868(13) 0.93113(12)
C8_4 C 0.6523(2) 0.48152(15) 0.97195(13)
H6_4 H 0.5801 0.4796 0.9770
C10_4 C 0.8248(2) 0.45195(15) 0.99628(12)
C11_4 C 0.8601(2) 0.48932(14) 0.95653(13)
H8_4 H 0.9322 0.4916 0.9510
N3_5 N 0.79814(16) 0.52351(10) 0.92438(9)
N5_5 N 0.63090(18) 0.55041(15) 0.89808(13)
H9_5 H 0.6574 0.5732 0.8732
H10_5 H 0.5640 0.5480 0.9017
O1_6 O 0.42480(16) 0.16220(11) 0.80904(9)
O2_6 O 0.27154(15) 0.12108(8) 0.82148(7)
C1_6 C 0.3063(2) 0.26868(13) 0.68113(12)
C2_6 C 0.3477(2) 0.23152(15) 0.72195(13)
H1_6 H 0.4199 0.2296 0.7270
C3_6 C 0.2835(2) 0.19806(13) 0.75431(11)
C4_6 C 0.1752(2) 0.20195(15) 0.74628(12)
H2_5 H 0.1290 0.1796 0.7675
C5_6 C 0.1399(2) 0.23932(14) 0.70653(13)
H3_6 H 0.0678 0.2416 0.7010
C6_6 C 0.3302(2) 0.15791(14) 0.79770(11)
N2_6 N 0.36910(18) 0.30041(15) 0.64808(13)
H4_6 H 0.3426 0.3232 0.6232
H5_6 H 0.4360 0.2980 0.6517
O3_6 O 0.17480(16) 0.41220(11) 0.69096(9)
C7_6 C 0.0563(2) 0.51868(13) 0.81887(12)
C8_5 C 0.0977(2) 0.48152(15) 0.77805(13)
H6_5 H 0.1699 0.4796 0.7730
C9_6 C 0.0335(2) 0.44806(13) 0.74569(11)
C12_6 C 0.0802(2) 0.40791(14) 0.70230(11)
N5_6 N 0.11910(18) 0.55041(15) 0.85192(13)
H9_6 H 0.0926 0.5732 0.8768
H10_6 H 0.1860 0.5480 0.8483
C10_5 C 0.9252(2) 0.45195(15) 0.75372(12)
H7_6 H 0.8790 0.4296 0.7325
C11_5 C 0.8899(2) 0.48932(14) 0.79347(13)
H8_5 H 0.8178 0.4916 0.7990
N3_6 N 0.95186(16) 0.52351(10) 0.82562(9)
C7_7 C 0.6937(2) 0.01868(13) 0.43113(12)
N3_7 N 0.79814(16) 0.02351(10) 0.42438(9)
N5_7 N 0.63090(18) 0.05041(15) 0.39808(13)
H9_7 H 0.6574 0.0732 0.3732
H10_7 H 0.5640 0.0480 0.4017
O1_7 O 0.32520(16) 0.66220(11) 0.44096(9)
O2_7 O 0.47846(15) 0.62108(8) 0.42852(7)
C1_7 C 0.4437(2) 0.76868(13) 0.56887(12)
C2_7 C 0.4023(2) 0.73152(15) 0.52805(13)
H1_7 H 0.3301 0.7296 0.5230
C3_7 C 0.4665(2) 0.69806(13) 0.49569(11)
C4_7 C 0.5748(2) 0.70195(15) 0.50372(12)
H2_6 H 0.6210 0.6796 0.4825
C5_7 C 0.6101(2) 0.73932(14) 0.54347(13)
H3_7 H 0.6822 0.7416 0.5490
C6_7 C 0.4198(2) 0.65791(14) 0.45230(11)
N2_7 N 0.38090(18) 0.80041(15) 0.60192(13)
H4_7 H 0.4074 0.8232 0.6268
H5_7 H 0.3140 0.7980 0.5983
O3_7 O 0.57520(16) 0.91220(11) 0.55904(9)
C8_6 C 0.6523(2) 0.98152(15) 0.47195(13)
H6_6 H 0.5801 0.9796 0.4770
C9_7 C 0.7165(2) 0.94806(13) 0.50431(11)
C10_6 C 0.8248(2) 0.95195(15) 0.49628(12)
H7_7 H 0.8710 0.9296 0.5175
C11_6 C 0.8601(2) 0.98932(14) 0.45653(13)
H8_6 H 0.9322 0.9916 0.4510
C12_7 C 0.6698(2) 0.90791(14) 0.54770(11)
O1_8 O 0.42480(16) 0.66220(11) 0.30904(9)
O2_8 O 0.27154(15) 0.62108(8) 0.32148(7)
C1_8 C 0.3063(2) 0.76868(13) 0.18113(12)
C2_8 C 0.3477(2) 0.73152(15) 0.22195(13)
H1_8 H 0.4199 0.7296 0.2270
C3_8 C 0.2835(2) 0.69806(13) 0.25431(11)
C4_8 C 0.1752(2) 0.70195(15) 0.24628(12)
H2_7 H 0.1290 0.6796 0.2675
C5_8 C 0.1399(2) 0.73932(14) 0.20653(13)
H3_8 H 0.0678 0.7416 0.2010
C6_8 C 0.3302(2) 0.65791(14) 0.29770(11)
N2_8 N 0.36910(18) 0.80041(15) 0.14808(13)
H4_8 H 0.3426 0.8232 0.1232
H5_8 H 0.4360 0.7980 0.1517
O3_8 O 0.17480(16) 0.91220(11) 0.19096(9)
C8_7 C 0.0977(2) 0.98152(15) 0.27805(13)
H6_7 H 0.1699 0.9796 0.2730
C9_8 C 0.0335(2) 0.94806(13) 0.24569(11)
C12_8 C 0.0802(2) 0.90791(14) 0.20230(11)
N3_8 N 0.95186(16) 0.02351(10) 0.32562(9)
Zn1_5 Zn 0.6250 0.416000(19) 0.6250
O1_9 O 0.92480(16) 0.58780(11) 0.44096(9)
O2_9 O 0.77154(15) 0.62892(8) 0.42852(7)
C1_9 C 0.8063(2) 0.48132(13) 0.56887(12)
C2_9 C 0.8477(2) 0.51848(15) 0.52805(13)
H1_9 H 0.9199 0.5204 0.5230
C3_9 C 0.7835(2) 0.55194(13) 0.49569(11)
C4_9 C 0.6752(2) 0.54805(15) 0.50372(12)
H2_8 H 0.6290 0.5704 0.4825
C5_9 C 0.6399(2) 0.51068(14) 0.54347(13)
H3_9 H 0.5678 0.5084 0.5490
C6_9 C 0.8302(2) 0.59209(14) 0.45230(11)
N1_5 N 0.70186(16) 0.47649(10) 0.57562(9)
N2_9 N 0.86910(18) 0.44959(15) 0.60192(13)
H4_9 H 0.8426 0.4268 0.6268
H5_9 H 0.9360 0.4520 0.5983
Zn2_3 Zn 0.8750 0.666000(19) 0.3750
Zn3_3 Zn 0.3750 0.166000(19) 0.3750
O3_9 O 0.67480(16) 0.33780(11) 0.55904(9)
O4_5 O 0.52154(15) 0.37892(8) 0.57148(7)
O5_5 O 0.72846(15) 0.37892(8) 0.67852(7)
C7_8 C 0.5563(2) 0.23132(13) 0.43113(12)
C8_8 C 0.5977(2) 0.26848(15) 0.47195(13)
H6_8 H 0.6699 0.2704 0.4770
C9_9 C 0.5335(2) 0.30194(13) 0.50431(11)
C10_7 C 0.4252(2) 0.29805(15) 0.49628(12)
H7_8 H 0.3790 0.3204 0.5175
C11_7 C 0.3899(2) 0.26068(14) 0.45653(13)
H8_7 H 0.3178 0.2584 0.4510
C12_9 C 0.5802(2) 0.34209(14) 0.54770(11)
N3_9 N 0.45186(16) 0.22649(10) 0.42438(9)
N4_5 N 0.54814(16) 0.47649(10) 0.67438(9)
N5_8 N 0.61910(18) 0.19959(15) 0.39808(13)
H9_8 H 0.5926 0.1768 0.3732
H10_8 H 0.6860 0.2020 0.4017
Zn1_6 Zn 0.1250 0.416000(19) 0.1250
C4_10 C 0.0748(2) 0.54805(15) 0.24628(12)
H2_9 H 0.1210 0.5704 0.2675
C5_10 C 0.1101(2) 0.51068(14) 0.20653(13)
H3_10 H 0.1822 0.5084 0.2010
N1_6 N 0.04814(16) 0.47649(10) 0.17438(9)
O3_10 O 0.07520(16) 0.33780(11) 0.19096(9)
O4_6 O 0.22846(15) 0.37892(8) 0.17852(7)
O5_6 O 0.02154(15) 0.37892(8) 0.07148(7)
C7_9 C 0.1937(2) 0.23132(13) 0.31887(12)
C8_9 C 0.1523(2) 0.26848(15) 0.27805(13)
H6_9 H 0.0801 0.2704 0.2730
C9_10 C 0.2165(2) 0.30194(13) 0.24569(11)
C10_8 C 0.3248(2) 0.29805(15) 0.25372(12)
H7_9 H 0.3710 0.3204 0.2325
C11_8 C 0.3601(2) 0.26068(14) 0.29347(13)
H8_8 H 0.4322 0.2584 0.2990
C12_10 C 0.1698(2) 0.34209(14) 0.20230(11)
N3_10 N 0.29814(16) 0.22649(10) 0.32562(9)
N4_6 N 0.20186(16) 0.47649(10) 0.07562(9)
N5_9 N 0.13090(18) 0.19959(15) 0.35192(13)
H9_9 H 0.1574 0.1768 0.3768
H10_9 H 0.0640 0.2020 0.3483
O1_10 O 0.82520(16) 0.58780(11) 0.30904(9)
O2_10 O 0.97846(15) 0.62892(8) 0.32148(7)
C1_10 C 0.9437(2) 0.48132(13) 0.18113(12)
C2_10 C 0.9023(2) 0.51848(15) 0.22195(13)
H1_10 H 0.8301 0.5204 0.2270
C3_10 C 0.9665(2) 0.55194(13) 0.25431(11)
C6_10 C 0.9198(2) 0.59209(14) 0.29770(11)
N2_10 N 0.88090(18) 0.44959(15) 0.14808(13)
H4_10 H 0.9074 0.4268 0.1232
H5_10 H 0.8140 0.4520 0.1517
O1_11 O 0.92480(16) 0.08780(11) 0.94096(9)
O2_11 O 0.77154(15) 0.12892(8) 0.92852(7)
C3_11 C 0.7835(2) 0.05194(13) 0.99569(11)
H2_10 H 0.6290 0.0704 0.9825
C6_11 C 0.8302(2) 0.09209(14) 0.95230(11)
Zn2_4 Zn 0.8750 0.166000(19) 0.8750
Zn1_7 Zn 0.6250 0.916000(19) 0.1250
C1_11 C 0.8063(2) 0.98132(13) 0.06887(12)
N1_7 N 0.70186(16) 0.97649(10) 0.07562(9)
N2_11 N 0.86910(18) 0.94959(15) 0.10192(13)
H4_11 H 0.8426 0.9268 0.1268
H5_11 H 0.9360 0.9520 0.0983
O3_11 O 0.67480(16) 0.83780(11) 0.05904(9)
O4_7 O 0.52154(15) 0.87892(8) 0.07148(7)
O5_7 O 0.72846(15) 0.87892(8) 0.17852(7)
C9_11 C 0.5335(2) 0.80194(13) 0.00431(11)
H7_10 H 0.3790 0.8204 0.0175
C12_11 C 0.5802(2) 0.84209(14) 0.04770(11)
N4_7 N 0.54814(16) 0.97649(10) 0.17438(9)
Zn3_4 Zn 0.3750 0.666000(19) 0.8750
C7_10 C 0.5563(2) 0.73132(13) 0.93113(12)
C8_10 C 0.5977(2) 0.76848(15) 0.97195(13)
H6_10 H 0.6699 0.7704 0.9770
C10_9 C 0.4252(2) 0.79805(15) 0.99628(12)
C11_9 C 0.3899(2) 0.76068(14) 0.95653(13)
H8_9 H 0.3178 0.7584 0.9510
N3_11 N 0.45186(16) 0.72649(10) 0.92438(9)
N5_10 N 0.61910(18) 0.69959(15) 0.89808(13)
H9_10 H 0.5926 0.6768 0.8732
H10_10 H 0.6860 0.7020 0.9017
Zn1_8 Zn 0.1250 0.916000(19) 0.6250
N1_8 N 0.04814(16) 0.97649(10) 0.67438(9)
O3_12 O 0.07520(16) 0.83780(11) 0.69096(9)
O4_8 O 0.22846(15) 0.87892(8) 0.67852(7)
O5_8 O 0.02154(15) 0.87892(8) 0.57148(7)
C7_11 C 0.1937(2) 0.73132(13) 0.81887(12)
C8_11 C 0.1523(2) 0.76848(15) 0.77805(13)
H6_11 H 0.0801 0.7704 0.7730
C9_12 C 0.2165(2) 0.80194(13) 0.74569(11)
C10_10 C 0.3248(2) 0.79805(15) 0.75372(12)
H7_11 H 0.3710 0.8204 0.7325
C11_10 C 0.3601(2) 0.76068(14) 0.79347(13)
H8_10 H 0.4322 0.7584 0.7990
C12_12 C 0.1698(2) 0.84209(14) 0.70230(11)
N3_12 N 0.29814(16) 0.72649(10) 0.82562(9)
N4_8 N 0.20186(16) 0.97649(10) 0.57562(9)
N5_11 N 0.13090(18) 0.69959(15) 0.85192(13)
H9_11 H 0.1574 0.6768 0.8768
H10_11 H 0.0640 0.7020 0.8483
O1_12 O 0.82520(16) 0.08780(11) 0.80904(9)
O2_12 O 0.97846(15) 0.12892(8) 0.82148(7)
C2_11 C 0.9023(2) 0.01848(15) 0.72195(13)
H1_11 H 0.8301 0.0204 0.7270
C3_12 C 0.9665(2) 0.05194(13) 0.75431(11)
C6_12 C 0.9198(2) 0.09209(14) 0.79770(11)
C1_12 C 0.3063(2) 0.48132(13) 0.06887(12)
C2_12 C 0.3477(2) 0.51848(15) 0.02805(13)
H1_12 H 0.4199 0.5204 0.0230
C4_11 C 0.1752(2) 0.54805(15) 0.00372(12)
C5_11 C 0.1399(2) 0.51068(14) 0.04347(13)
H3_11 H 0.0678 0.5084 0.0490
N2_12 N 0.36910(18) 0.44959(15) 0.10192(13)
H4_12 H 0.3426 0.4268 0.1268
H5_12 H 0.4360 0.4520 0.0983
O3_13 O 0.17480(16) 0.33780(11) 0.05904(9)
C9_13 C 0.0335(2) 0.30194(13) 0.00431(11)
C12_13 C 0.0802(2) 0.34209(14) 0.04770(11)
O1_13 O 0.42480(16) 0.58780(11) 0.94096(9)
O2_13 O 0.27154(15) 0.62892(8) 0.92852(7)
C3_13 C 0.2835(2) 0.55194(13) 0.99569(11)
H2_11 H 0.1290 0.5704 0.9825
C6_13 C 0.3302(2) 0.59209(14) 0.95230(11)
C7_12 C 0.0563(2) 0.23132(13) 0.93113(12)
C8_12 C 0.0977(2) 0.26848(15) 0.97195(13)
H6_12 H 0.1699 0.2704 0.9770
N5_12 N 0.11910(18) 0.19959(15) 0.89808(13)
H9_12 H 0.0926 0.1768 0.8732
H10_12 H 0.1860 0.2020 0.9017
C10_11 C 0.9252(2) 0.29805(15) 0.99628(12)
C11_11 C 0.8899(2) 0.26068(14) 0.95653(13)
H8_11 H 0.8178 0.2584 0.9510
N3_13 N 0.95186(16) 0.22649(10) 0.92438(9)
O1_14 O 0.32520(16) 0.58780(11) 0.80904(9)
O2_14 O 0.47846(15) 0.62892(8) 0.82148(7)
C1_13 C 0.4437(2) 0.48132(13) 0.68113(12)
C2_13 C 0.4023(2) 0.51848(15) 0.72195(13)
H1_13 H 0.3301 0.5204 0.7270
C3_14 C 0.4665(2) 0.55194(13) 0.75431(11)
C4_12 C 0.5748(2) 0.54805(15) 0.74628(12)
H2_12 H 0.6210 0.5704 0.7675
C5_12 C 0.6101(2) 0.51068(14) 0.70653(13)
H3_12 H 0.6822 0.5084 0.7010
C6_14 C 0.4198(2) 0.59209(14) 0.79770(11)
N2_13 N 0.38090(18) 0.44959(15) 0.64808(13)
H4_13 H 0.4074 0.4268 0.6232
H5_13 H 0.3140 0.4520 0.6517
O3_14 O 0.57520(16) 0.33780(11) 0.69096(9)
C7_13 C 0.6937(2) 0.23132(13) 0.81887(12)
C8_13 C 0.6523(2) 0.26848(15) 0.77805(13)
H6_13 H 0.5801 0.2704 0.7730
C9_14 C 0.7165(2) 0.30194(13) 0.74569(11)
C10_12 C 0.8248(2) 0.29805(15) 0.75372(12)
H7_12 H 0.8710 0.3204 0.7325
C11_12 C 0.8601(2) 0.26068(14) 0.79347(13)
H8_12 H 0.9322 0.2584 0.7990
C12_14 C 0.6698(2) 0.34209(14) 0.70230(11)
N3_14 N 0.79814(16) 0.22649(10) 0.82562(9)
N5_13 N 0.63090(18) 0.19959(15) 0.85192(13)
H9_13 H 0.6574 0.1768 0.8768
H10_13 H 0.5640 0.2020 0.8483
O1_15 O 0.42480(16) 0.08780(11) 0.44096(9)
O2_15 O 0.27154(15) 0.12892(8) 0.42852(7)
C2_14 C 0.3477(2) 0.01848(15) 0.52805(13)
H1_14 H 0.4199 0.0204 0.5230
C3_15 C 0.2835(2) 0.05194(13) 0.49569(11)
C4_13 C 0.1752(2) 0.04805(15) 0.50372(12)
H2_13 H 0.1290 0.0704 0.4825
C5_13 C 0.1399(2) 0.01068(14) 0.54347(13)
H3_13 H 0.0678 0.0084 0.5490
C6_15 C 0.3302(2) 0.09209(14) 0.45230(11)
C1_14 C 0.3063(2) 0.98132(13) 0.56887(12)
N2_14 N 0.36910(18) 0.94959(15) 0.60192(13)
H4_14 H 0.3426 0.9268 0.6268
H5_14 H 0.4360 0.9520 0.5983
O3_15 O 0.17480(16) 0.83780(11) 0.55904(9)
C7_14 C 0.0563(2) 0.73132(13) 0.43113(12)
C8_14 C 0.0977(2) 0.76848(15) 0.47195(13)
H6_14 H 0.1699 0.7704 0.4770
C9_15 C 0.0335(2) 0.80194(13) 0.50431(11)
C12_15 C 0.0802(2) 0.84209(14) 0.54770(11)
N5_14 N 0.11910(18) 0.69959(15) 0.39808(13)
H9_14 H 0.0926 0.6768 0.3732
H10_14 H 0.1860 0.7020 0.4017
C10_13 C 0.9252(2) 0.79805(15) 0.49628(12)
H7_13 H 0.8790 0.8204 0.5175
C11_13 C 0.8899(2) 0.76068(14) 0.45653(13)
H8_13 H 0.8178 0.7584 0.4510
N3_15 N 0.95186(16) 0.72649(10) 0.42438(9)
O1_16 O 0.32520(16) 0.08780(11) 0.30904(9)
O2_16 O 0.47846(15) 0.12892(8) 0.32148(7)
C2_15 C 0.4023(2) 0.01848(15) 0.22195(13)
H1_15 H 0.3301 0.0204 0.2270
C3_16 C 0.4665(2) 0.05194(13) 0.25431(11)
C4_14 C 0.5748(2) 0.04805(15) 0.24628(12)
H2_14 H 0.6210 0.0704 0.2675
C5_14 C 0.6101(2) 0.01068(14) 0.20653(13)
H3_14 H 0.6822 0.0084 0.2010
C6_16 C 0.4198(2) 0.09209(14) 0.29770(11)
C1_15 C 0.4437(2) 0.98132(13) 0.18113(12)
N2_15 N 0.38090(18) 0.94959(15) 0.14808(13)
H4_15 H 0.4074 0.9268 0.1232
H5_15 H 0.3140 0.9520 0.1517
O3_16 O 0.57520(16) 0.83780(11) 0.19096(9)
C7_15 C 0.6937(2) 0.73132(13) 0.31887(12)
C8_15 C 0.6523(2) 0.76848(15) 0.27805(13)
H6_15 H 0.5801 0.7704 0.2730
C9_16 C 0.7165(2) 0.80194(13) 0.24569(11)
C10_14 C 0.8248(2) 0.79805(15) 0.25372(12)
H7_14 H 0.8710 0.8204 0.2325
C11_14 C 0.8601(2) 0.76068(14) 0.29347(13)
H8_14 H 0.9322 0.7584 0.2990
C12_16 C 0.6698(2) 0.84209(14) 0.20230(11)
N3_16 N 0.79814(16) 0.72649(10) 0.32562(9)
N5_15 N 0.63090(18) 0.69959(15) 0.35192(13)
H9_15 H 0.6574 0.6768 0.3768
H10_15 H 0.5640 0.7020 0.3483
H2_15 H 0.1210 0.6796 0.9825
C8_16 C 0.1523(2) 0.98152(15) 0.97195(13)
H6_16 H 0.0801 0.9796 0.9770
C10_15 C 0.3248(2) 0.95195(15) 0.99628(12)
C11_15 C 0.3601(2) 0.98932(14) 0.95653(13)
H8_15 H 0.4322 0.9916 0.9510
C2_16 C 0.8477(2) 0.01848(15) 0.02805(13)
H1_16 H 0.9199 0.0204 0.0230
C4_15 C 0.6752(2) 0.04805(15) 0.00372(12)
C5_15 C 0.6399(2) 0.01068(14) 0.04347(13)
H3_15 H 0.5678 0.0084 0.0490
H7_15 H 0.8790 0.3204 0.0175
C4_16 C 0.0748(2) 0.04805(15) 0.74628(12)
H2_16 H 0.1210 0.0704 0.7675
C5_16 C 0.1101(2) 0.01068(14) 0.70653(13)
H3_16 H 0.1822 0.0084 0.7010
C1_16 C 0.9437(2) 0.98132(13) 0.68113(12)
N2_16 N 0.88090(18) 0.94959(15) 0.64808(13)
H4_16 H 0.9074 0.9268 0.6232
H5_16 H 0.8140 0.9520 0.6517
C7_16 C 0.0563(2) 0.01868(13) 0.31887(12)
N5_16 N 0.11910(18) 0.05041(15) 0.35192(13)
H9_16 H 0.0926 0.0732 0.3768
H10_16 H 0.1860 0.0480 0.3483
C10_16 C 0.9252(2) 0.95195(15) 0.25372(12)
H7_16 H 0.8790 0.9296 0.2325
C11_16 C 0.8899(2) 0.98932(14) 0.29347(13)
H8_16 H 0.8178 0.9916 0.2990
loop_
_geom_bond_atom_site_label_1
_geom_bond_atom_site_label_2
_geom_bond_site_symmetry_1
_geom_bond_site_symmetry_2
Zn1 N1 1_555 1_555
H2 C4 1_555 1_555
C5 C4 1_555 1_555
H3 C5 1_555 1_555
Zn3 N3 1_555 1_555
O3 C12 1_555 1_555
O4 Zn1 1_555 1_555
O5 Zn1 1_555 1_555
C7 C8 1_555 1_555
C8 H6 1_555 1_555
C9 C8 1_555 1_555
C10 C9 1_555 1_555
H7 C10 1_555 1_555
C11 C10 1_555 1_555
H8 C11 1_555 1_555
C12 O4 1_555 1_555
N3 C7 1_555 1_555
N4 Zn1 1_555 1_555
N5 C7 1_555 1_555
H9 N5 1_555 1_555
H10 N5 1_555 1_555
C5 N1 1_555 1_555
C9 C12 1_555 1_555
C11 N3 1_555 1_555
O1 C6 1_555 1_555
O2 C6 1_555 1_555
C1 C2 1_555 1_555
C2 H1 1_555 1_555
C3 C2 1_555 1_555
C6 C3 1_555 1_555
N2 C1 1_555 1_555
H4 N2 1_555 1_555
H5 N2 1_555 1_555
Zn2 O2 1_555 1_555
Zn1_2 N1_2 1_555 1_555
O1_2 C6_2 1_555 1_555
O2_2 C6_2 1_555 1_555
C1_2 C2_2 1_555 1_555
C2_2 H1_2 1_555 1_555
C3_2 C2_2 1_555 1_555
C4_2 C3_2 1_555 1_555
H2_2 C4_2 1_555 1_555
C5_2 C4_2 1_555 1_555
H3_2 C5_2 1_555 1_555
C6_2 C3_2 1_555 1_555
N1_2 C1_2 1_555 1_555
N2_2 C1_2 1_555 1_555
H4_2 N2_2 1_555 1_555
H5_2 N2_2 1_555 1_555
Zn2 O2_2 1_555 1_555
Zn3 N3_2 1_555 1_555
O3_2 C12_2 1_555 1_555
O4_2 Zn1_2 1_555 1_555
O5_2 Zn1_2 1_555 1_555
C7_2 C8_2 1_555 1_555
C8_2 H6_2 1_555 1_555
C9_2 C8_2 1_555 1_555
C10_2 C9_2 1_555 1_555
H7_2 C10_2 1_555 1_555
C11_2 C10_2 1_555 1_555
H8_2 C11_2 1_555 1_555
C12_2 O4_2 1_555 1_555
N3_2 C7_2 1_555 1_555
N4_2 Zn1_2 1_555 1_555
N5_2 C7_2 1_555 1_555
H9_2 N5_2 1_555 1_555
H10_2 N5_2 1_555 1_555
C5_2 N1_2 1_555 1_555
C9_2 C12_2 1_555 1_555
C11_2 N3_2 1_555 1_555
Zn3_2 N3_3 1_555 1_555
N3_3 C7_3 1_555 1_555
N5_3 C7_3 1_555 1_555
H9_3 N5_3 1_555 1_555
H10_3 N5_3 1_555 1_555
Zn1_3 N1_3 1_555 1_555
C5_3 C4_3 1_555 1_555
H3_3 C5_3 1_555 1_555
O3_3 C12_3 1_555 1_555
O4_3 Zn1_3 1_555 1_555
O5_3 Zn1_3 1_555 1_555
C12_3 O4_3 1_555 1_555
N4_3 Zn1_3 1_555 1_555
C5_3 N1_3 1_555 1_555
C9_3 C12_3 1_555 1_555
C1_3 C2_3 1_555 1_555
C2_3 H1_3 1_555 1_555
N2_3 C1_3 1_555 1_555
H4_3 N2_3 1_555 1_555
H5_3 N2_3 1_555 1_555
O1_3 C6_3 1_555 1_555
O2_3 C6_3 1_555 1_555
C6_3 C3_3 1_555 1_555
Zn2_2 O2_3 1_555 1_555
Zn3_2 N3_4 1_555 1_555
N3_4 C7_4 1_555 1_555
N5_4 C7_4 1_555 1_555
H9_4 N5_4 1_555 1_555
H10_4 N5_4 1_555 1_555
Zn1_4 N1_4 1_555 1_555
O1_4 C6_4 1_555 1_555
O2_4 C6_4 1_555 1_555
C1_4 C2_4 1_555 1_555
C2_4 H1_4 1_555 1_555
C3_4 C2_4 1_555 1_555
C4_4 C3_4 1_555 1_555
H2_3 C4_4 1_555 1_555
C5_4 C4_4 1_555 1_555
H3_4 C5_4 1_555 1_555
C6_4 C3_4 1_555 1_555
N1_4 C1_4 1_555 1_555
N2_4 C1_4 1_555 1_555
H4_4 N2_4 1_555 1_555
H5_4 N2_4 1_555 1_555
Zn2_2 O2_4 1_555 1_555
O3_4 C12_4 1_555 1_555
O4_4 Zn1_4 1_555 1_555
O5_4 Zn1_4 1_555 1_555
C8_3 H6_3 1_555 1_555
C9_4 C8_3 1_555 1_555
C10_3 C9_4 1_555 1_555
H7_4 C10_3 1_555 1_555
C11_3 C10_3 1_555 1_555
H8_3 C11_3 1_555 1_555
C12_4 O4_4 1_555 1_555
N4_4 Zn1_4 1_555 1_555
C5_4 N1_4 1_555 1_555
C9_4 C12_4 1_555 1_555
C1_5 C2_5 1_555 1_555
C2_5 H1_5 1_555 1_555
C5_5 C4_5 1_555 1_555
H3_5 C5_5 1_555 1_555
N4_2 C1_5 1_555 1_555
N2_5 C1_5 1_555 1_555
H4_5 N2_5 1_555 1_555
H5_5 N2_5 1_555 1_555
O3_5 C12_5 1_555 1_555
C12_5 O5_2 1_555 1_555
C5_5 N4_2 1_555 1_555
C9_5 C12_5 1_555 1_555
O1_5 C6_5 1_555 1_555
O2_5 C6_5 1_555 1_555
C6_5 C3_5 1_555 1_555
Zn3_2 O2_5 1_555 1_555
Zn2_2 N3_5 1_555 1_555
C7_5 C8_4 1_555 1_555
C8_4 H6_4 1_555 1_555
C11_4 C10_4 1_555 1_555
H8_4 C11_4 1_555 1_555
N3_5 C7_5 1_555 1_555
N5_5 C7_5 1_555 1_555
H9_5 N5_5 1_555 1_555
H10_5 N5_5 1_555 1_555
C11_4 N3_5 1_555 1_555
O1_6 C6_6 1_555 1_555
O2_6 C6_6 1_555 1_555
C1_6 C2_6 1_555 1_555
C2_6 H1_6 1_555 1_555
C3_6 C2_6 1_555 1_555
C4_6 C3_6 1_555 1_555
H2_5 C4_6 1_555 1_555
C5_6 C4_6 1_555 1_555
H3_6 C5_6 1_555 1_555
C6_6 C3_6 1_555 1_555
N4 C1_6 1_555 1_555
N2_6 C1_6 1_555 1_555
H4_6 N2_6 1_555 1_555
H5_6 N2_6 1_555 1_555
Zn3_2 O2_6 1_555 1_555
O3_6 C12_6 1_555 1_555
C7_6 C8_5 1_555 1_555
C8_5 H6_5 1_555 1_555
C9_6 C8_5 1_555 1_555
C12_6 O5 1_555 1_555
N5_6 C7_6 1_555 1_555
H9_6 N5_6 1_555 1_555
H10_6 N5_6 1_555 1_555
C5_6 N4 1_555 1_555
C9_6 C12_6 1_555 1_555
Zn2_2 N3_6 1_555 1_555
H7_6 C10_5 1_555 1_555
C11_5 C10_5 1_555 1_555
H8_5 C11_5 1_555 1_555
C11_5 N3_6 1_555 1_555
Zn2 N3_7 1_555 1_555
N3_7 C7_7 1_555 1_555
N5_7 C7_7 1_555 1_555
H9_7 N5_7 1_555 1_555
H10_7 N5_7 1_555 1_555
O1_7 C6_7 1_555 1_555
O2_7 C6_7 1_555 1_555
C1_7 C2_7 1_555 1_555
C2_7 H1_7 1_555 1_555
C3_7 C2_7 1_555 1_555
C4_7 C3_7 1_555 1_555
H2_6 C4_7 1_555 1_555
C5_7 C4_7 1_555 1_555
H3_7 C5_7 1_555 1_555
C6_7 C3_7 1_555 1_555
N4_4 C1_7 1_555 1_555
N2_7 C1_7 1_555 1_555
H4_7 N2_7 1_555 1_555
H5_7 N2_7 1_555 1_555
Zn3 O2_7 1_555 1_555
O3_7 C12_7 1_555 1_555
C8_6 H6_6 1_555 1_555
C9_7 C8_6 1_555 1_555
C10_6 C9_7 1_555 1_555
H7_7 C10_6 1_555 1_555
C11_6 C10_6 1_555 1_555
H8_6 C11_6 1_555 1_555
C12_7 O5_4 1_555 1_555
C5_7 N4_4 1_555 1_555
C9_7 C12_7 1_555 1_555
O1_8 C6_8 1_555 1_555
O2_8 C6_8 1_555 1_555
C1_8 C2_8 1_555 1_555
C2_8 H1_8 1_555 1_555
C3_8 C2_8 1_555 1_555
C4_8 C3_8 1_555 1_555
H2_7 C4_8 1_555 1_555
C5_8 C4_8 1_555 1_555
H3_8 C5_8 1_555 1_555
C6_8 C3_8 1_555 1_555
N4_3 C1_8 1_555 1_555
N2_8 C1_8 1_555 1_555
H4_8 N2_8 1_555 1_555
H5_8 N2_8 1_555 1_555
Zn3 O2_8 1_555 1_555
O3_8 C12_8 1_555 1_555
C8_7 H6_7 1_555 1_555
C9_8 C8_7 1_555 1_555
C12_8 O5_3 1_555 1_555
C5_8 N4_3 1_555 1_555
C9_8 C12_8 1_555 1_555
Zn2 N3_8 1_555 1_555
Zn1_5 N1_5 1_555 1_555
O1_9 C6_9 1_555 1_555
O2_9 C6_9 1_555 1_555
C1_9 C2_9 1_555 1_555
C2_9 H1_9 1_555 1_555
C3_9 C2_9 1_555 1_555
C4_9 C3_9 1_555 1_555
H2_8 C4_9 1_555 1_555
C5_9 C4_9 1_555 1_555
H3_9 C5_9 1_555 1_555
C6_9 C3_9 1_555 1_555
N1_5 C1_9 1_555 1_555
N2_9 C1_9 1_555 1_555
H4_9 N2_9 1_555 1_555
H5_9 N2_9 1_555 1_555
Zn2_3 O2_9 1_555 1_555
Zn3_3 N3_9 1_555 1_555
O3_9 C12_9 1_555 1_555
O4_5 Zn1_5 1_555 1_555
O5_5 Zn1_5 1_555 1_555
C7_8 C8_8 1_555 1_555
C8_8 H6_8 1_555 1_555
C9_9 C8_8 1_555 1_555
C10_7 C9_9 1_555 1_555
H7_8 C10_7 1_555 1_555
C11_7 C10_7 1_555 1_555
H8_7 C11_7 1_555 1_555
C12_9 O4_5 1_555 1_555
N3_9 C7_8 1_555 1_555
N4_5 Zn1_5 1_555 1_555
N5_8 C7_8 1_555 1_555
H9_8 N5_8 1_555 1_555
H10_8 N5_8 1_555 1_555
C5_9 N1_5 1_555 1_555
C9_9 C12_9 1_555 1_555
C11_7 N3_9 1_555 1_555
Zn1_6 N1_6 1_555 1_555
H2_9 C4_10 1_555 1_555
C5_10 C4_10 1_555 1_555
H3_10 C5_10 1_555 1_555
Zn3_3 N3_10 1_555 1_555
O3_10 C12_10 1_555 1_555
O4_6 Zn1_6 1_555 1_555
O5_6 Zn1_6 1_555 1_555
C7_9 C8_9 1_555 1_555
C8_9 H6_9 1_555 1_555
C9_10 C8_9 1_555 1_555
C10_8 C9_10 1_555 1_555
H7_9 C10_8 1_555 1_555
C11_8 C10_8 1_555 1_555
H8_8 C11_8 1_555 1_555
C12_10 O4_6 1_555 1_555
N3_10 C7_9 1_555 1_555
N4_6 Zn1_6 1_555 1_555
N5_9 C7_9 1_555 1_555
H9_9 N5_9 1_555 1_555
H10_9 N5_9 1_555 1_555
C5_10 N1_6 1_555 1_555
C9_10 C12_10 1_555 1_555
C11_8 N3_10 1_555 1_555
O1_10 C6_10 1_555 1_555
O2_10 C6_10 1_555 1_555
C1_10 C2_10 1_555 1_555
C2_10 H1_10 1_555 1_555
C3_10 C2_10 1_555 1_555
C6_10 C3_10 1_555 1_555
N2_10 C1_10 1_555 1_555
H4_10 N2_10 1_555 1_555
H5_10 N2_10 1_555 1_555
Zn2_3 O2_10 1_555 1_555
O1_11 C6_11 1_555 1_555
O2_11 C6_11 1_555 1_555
C6_11 C3_11 1_555 1_555
Zn2_4 O2_11 1_555 1_555
Zn1_7 N1_7 1_555 1_555
N1_7 C1_11 1_555 1_555
N2_11 C1_11 1_555 1_555
H4_11 N2_11 1_555 1_555
H5_11 N2_11 1_555 1_555
O3_11 C12_11 1_555 1_555
O4_7 Zn1_7 1_555 1_555
O5_7 Zn1_7 1_555 1_555
C12_11 O4_7 1_555 1_555
N4_7 Zn1_7 1_555 1_555
C9_11 C12_11 1_555 1_555
Zn3_4 N3_11 1_555 1_555
C7_10 C8_10 1_555 1_555
C8_10 H6_10 1_555 1_555
C11_9 C10_9 1_555 1_555
H8_9 C11_9 1_555 1_555
N3_11 C7_10 1_555 1_555
N5_10 C7_10 1_555 1_555
H9_10 N5_10 1_555 1_555
H10_10 N5_10 1_555 1_555
C11_9 N3_11 1_555 1_555
Zn1_8 N1_8 1_555 1_555
Zn3_4 N3_12 1_555 1_555
O3_12 C12_12 1_555 1_555
O4_8 Zn1_8 1_555 1_555
O5_8 Zn1_8 1_555 1_555
C7_11 C8_11 1_555 1_555
C8_11 H6_11 1_555 1_555
C9_12 C8_11 1_555 1_555
C10_10 C9_12 1_555 1_555
H7_11 C10_10 1_555 1_555
C11_10 C10_10 1_555 1_555
H8_10 C11_10 1_555 1_555
C12_12 O4_8 1_555 1_555
N3_12 C7_11 1_555 1_555
N4_8 Zn1_8 1_555 1_555
N5_11 C7_11 1_555 1_555
H9_11 N5_11 1_555 1_555
H10_11 N5_11 1_555 1_555
C9_12 C12_12 1_555 1_555
C11_10 N3_12 1_555 1_555
O1_12 C6_12 1_555 1_555
O2_12 C6_12 1_555 1_555
C2_11 H1_11 1_555 1_555
C3_12 C2_11 1_555 1_555
C6_12 C3_12 1_555 1_555
Zn2_4 O2_12 1_555 1_555
C1_12 C2_12 1_555 1_555
C2_12 H1_12 1_555 1_555
C5_11 C4_11 1_555 1_555
H3_11 C5_11 1_555 1_555
N4_6 C1_12 1_555 1_555
N2_12 C1_12 1_555 1_555
H4_12 N2_12 1_555 1_555
H5_12 N2_12 1_555 1_555
O3_13 C12_13 1_555 1_555
C12_13 O5_6 1_555 1_555
C5_11 N4_6 1_555 1_555
C9_13 C12_13 1_555 1_555
O1_13 C6_13 1_555 1_555
O2_13 C6_13 1_555 1_555
C6_13 C3_13 1_555 1_555
Zn3_4 O2_13 1_555 1_555
C7_12 C8_12 1_555 1_555
C8_12 H6_12 1_555 1_555
N5_12 C7_12 1_555 1_555
H9_12 N5_12 1_555 1_555
H10_12 N5_12 1_555 1_555
Zn2_4 N3_13 1_555 1_555
C11_11 C10_11 1_555 1_555
H8_11 C11_11 1_555 1_555
C11_11 N3_13 1_555 1_555
O1_14 C6_14 1_555 1_555
O2_14 C6_14 1_555 1_555
C1_13 C2_13 1_555 1_555
C2_13 H1_13 1_555 1_555
C3_14 C2_13 1_555 1_555
C4_12 C3_14 1_555 1_555
H2_12 C4_12 1_555 1_555
C5_12 C4_12 1_555 1_555
H3_12 C5_12 1_555 1_555
C6_14 C3_14 1_555 1_555
N4_5 C1_13 1_555 1_555
N2_13 C1_13 1_555 1_555
H4_13 N2_13 1_555 1_555
H5_13 N2_13 1_555 1_555
Zn3_4 O2_14 1_555 1_555
Zn2_4 N3_14 1_555 1_555
O3_14 C12_14 1_555 1_555
C7_13 C8_13 1_555 1_555
C8_13 H6_13 1_555 1_555
C9_14 C8_13 1_555 1_555
C10_12 C9_14 1_555 1_555
H7_12 C10_12 1_555 1_555
C11_12 C10_12 1_555 1_555
H8_12 C11_12 1_555 1_555
C12_14 O5_5 1_555 1_555
N3_14 C7_13 1_555 1_555
N5_13 C7_13 1_555 1_555
H9_13 N5_13 1_555 1_555
H10_13 N5_13 1_555 1_555
C5_12 N4_5 1_555 1_555
C9_14 C12_14 1_555 1_555
C11_12 N3_14 1_555 1_555
O1_15 C6_15 1_555 1_555
O2_15 C6_15 1_555 1_555
C2_14 H1_14 1_555 1_555
C3_15 C2_14 1_555 1_555
C4_13 C3_15 1_555 1_555
H2_13 C4_13 1_555 1_555
C5_13 C4_13 1_555 1_555
H3_13 C5_13 1_555 1_555
C6_15 C3_15 1_555 1_555
Zn3_3 O2_15 1_555 1_555
N4_8 C1_14 1_555 1_555
N2_14 C1_14 1_555 1_555
H4_14 N2_14 1_555 1_555
H5_14 N2_14 1_555 1_555
O3_15 C12_15 1_555 1_555
C7_14 C8_14 1_555 1_555
C8_14 H6_14 1_555 1_555
C9_15 C8_14 1_555 1_555
C12_15 O5_8 1_555 1_555
N5_14 C7_14 1_555 1_555
H9_14 N5_14 1_555 1_555
H10_14 N5_14 1_555 1_555
C9_15 C12_15 1_555 1_555
Zn2_3 N3_15 1_555 1_555
H7_13 C10_13 1_555 1_555
C11_13 C10_13 1_555 1_555
H8_13 C11_13 1_555 1_555
C11_13 N3_15 1_555 1_555
O1_16 C6_16 1_555 1_555
O2_16 C6_16 1_555 1_555
C2_15 H1_15 1_555 1_555
C3_16 C2_15 1_555 1_555
C4_14 C3_16 1_555 1_555
H2_14 C4_14 1_555 1_555
C5_14 C4_14 1_555 1_555
H3_14 C5_14 1_555 1_555
C6_16 C3_16 1_555 1_555
Zn3_3 O2_16 1_555 1_555
N4_7 C1_15 1_555 1_555
N2_15 C1_15 1_555 1_555
H4_15 N2_15 1_555 1_555
H5_15 N2_15 1_555 1_555
Zn2_3 N3_16 1_555 1_555
O3_16 C12_16 1_555 1_555
C7_15 C8_15 1_555 1_555
C8_15 H6_15 1_555 1_555
C9_16 C8_15 1_555 1_555
C10_14 C9_16 1_555 1_555
H7_14 C10_14 1_555 1_555
C11_14 C10_14 1_555 1_555
H8_14 C11_14 1_555 1_555
C12_16 O5_7 1_555 1_555
N3_16 C7_15 1_555 1_555
N5_15 C7_15 1_555 1_555
H9_15 N5_15 1_555 1_555
H10_15 N5_15 1_555 1_555
C9_16 C12_16 1_555 1_555
C11_14 N3_16 1_555 1_555
C8_16 H6_16 1_555 1_555
C11_15 C10_15 1_555 1_555
H8_15 C11_15 1_555 1_555
C2_16 H1_16 1_555 1_555
C5_15 C4_15 1_555 1_555
H3_15 C5_15 1_555 1_555
H2_16 C4_16 1_555 1_555
C5_16 C4_16 1_555 1_555
H3_16 C5_16 1_555 1_555
N2_16 C1_16 1_555 1_555
H4_16 N2_16 1_555 1_555
H5_16 N2_16 1_555 1_555
N5_16 C7_16 1_555 1_555
H9_16 N5_16 1_555 1_555
H10_16 N5_16 1_555 1_555
H7_16 C10_16 1_555 1_555
C11_16 C10_16 1_555 1_555
H8_16 C11_16 1_555 1_555

#END
