
###############################################################################
#
# This file contains modified crystal structure data generated from the
# MOF subset of the Cambridge Structural Database (CSD) v543 
# hosted by the Cambridge Crystallographic Data Centre (CCDC).
#
# This work is licensed under the Creative Commons
# Attribution-NonCommercial-ShareAlike 4.0 International License.
# To view a copy of this license, visit
# http://creativecommons.org/licenses/by-nc-sa/4.0/
# or send a letter to
# Creative Commons, PO Box 1866, Mountain View, CA 94042, USA.
#
# CIF created using the CSD Python API on 29 September 2022
# The structure has been converted into the P1 space group
# The structure has a 3D framework
# The original CSD entry SARCAR is in the orthorhombic crystal system
# The framework has been calculated to contain at least 10.0% void space
# The void calculation uses a probe of radius 1.32A, grid spacing 0.4
#
###############################################################################

data_SARCAR
_chemical_formula_moiety         '(C192 H160 N63 O64 Zn8)n'
_symmetry_cell_setting           triclinic
_symmetry_space_group_name_H-M   'P 1'
_symmetry_Int_Tables_number      1
_space_group_name_Hall           'P 1'
loop_
_symmetry_equiv_pos_site_id
_symmetry_equiv_pos_as_xyz
1 x,y,z
_cell_length_a                   12.7743(8)
_cell_length_b                   22.1735(15)
_cell_length_c                   24.5295(17)
_cell_angle_alpha                90
_cell_angle_beta                 90
_cell_angle_gamma                90
_cell_volume                     6948
loop_
_atom_site_label
_atom_site_type_symbol
_atom_site_fract_x
_atom_site_fract_y
_atom_site_fract_z
Zn1 Zn 0.1250 0.334150(16) 0.6250
C2 C 0.1109(2) 0.23946(13) 0.54316(11)
H1 H 0.1828 0.2420 0.5485
C6 C 0.0748(2) 0.20240(12) 0.50307(10)
H3 H 0.1208 0.1802 0.4816
N1 N 0.04751(15) 0.27295(9) 0.57588(8)
Zn3 Zn 0.3750 0.584150(16) 0.3750
O3 O 0.22911(15) 0.37123(7) 0.57177(7)
O4 O 0.02089(15) 0.37123(7) 0.67823(7)
O5 O 0.07625(17) 0.41519(9) 0.56102(8)
C7 C 0.1702(2) 0.40970(11) 0.54915(10)
C8 C 0.3609(2) 0.48946(13) 0.45684(11)
H6 H 0.4328 0.4920 0.4515
C9 C 0.19373(19) 0.51827(11) 0.43058(10)
C10 C 0.1514(2) 0.48157(13) 0.47203(11)
H7 H 0.0793 0.4797 0.4770
C11 C 0.2167(2) 0.44873(11) 0.50490(10)
C12 C 0.3248(2) 0.45240(12) 0.49693(10)
H8 H 0.3708 0.4302 0.5184
N3 N 0.29751(15) 0.52295(9) 0.42412(8)
N4 N 0.20249(15) 0.27295(9) 0.67412(8)
N5 N 0.13013(17) 0.54853(14) 0.39650(10)
H9 H 0.1563 0.5705 0.3710
H10 H 0.0633 0.5459 0.4002
O1 O 0.97911(15) 0.12123(7) 0.42823(7)
O2 O 0.82625(17) 0.16519(9) 0.43898(8)
C1 C 0.9202(2) 0.15970(11) 0.45085(10)
C3 C 0.94373(19) 0.26827(11) 0.56942(10)
C4 C 0.9014(2) 0.23157(13) 0.52797(11)
H2 H 0.8293 0.2297 0.5230
C5 C 0.9667(2) 0.19873(11) 0.49510(10)
N2 N 0.88013(17) 0.29853(14) 0.60350(10)
H4 H 0.9063 0.3205 0.6290
H5 H 0.8133 0.2959 0.5998
Zn2 Zn 0.8750 0.084150(16) 0.3750
Zn1_2 Zn 0.6250 0.334150(16) 0.1250
O1_2 O 0.77089(15) 0.12123(7) 0.32177(7)
O2_2 O 0.92375(17) 0.16519(9) 0.31102(8)
C1_2 C 0.8298(2) 0.15970(11) 0.29915(10)
C2_2 C 0.6391(2) 0.23946(13) 0.20684(11)
H1_2 H 0.5672 0.2420 0.2015
C3_2 C 0.80627(19) 0.26827(11) 0.18058(10)
C4_2 C 0.8486(2) 0.23157(13) 0.22203(11)
H2_2 H 0.9207 0.2297 0.2270
C5_2 C 0.7833(2) 0.19873(11) 0.25490(10)
C6_2 C 0.6752(2) 0.20240(12) 0.24693(10)
H3_2 H 0.6292 0.1802 0.2684
N1_2 N 0.70249(15) 0.27295(9) 0.17412(8)
N2_2 N 0.86987(17) 0.29853(14) 0.14650(10)
H4_2 H 0.8437 0.3205 0.1210
H5_2 H 0.9367 0.2959 0.1502
O3_2 O 0.52089(15) 0.37123(7) 0.17823(7)
O4_2 O 0.72911(15) 0.37123(7) 0.07177(7)
O5_2 O 0.67375(17) 0.41519(9) 0.18898(8)
C7_2 C 0.5798(2) 0.40970(11) 0.20085(10)
C8_2 C 0.3891(2) 0.48946(13) 0.29316(11)
H6_2 H 0.3172 0.4920 0.2985
C9_2 C 0.55627(19) 0.51827(11) 0.31942(10)
C10_2 C 0.5986(2) 0.48157(13) 0.27797(11)
H7_2 H 0.6707 0.4797 0.2730
C11_2 C 0.5333(2) 0.44873(11) 0.24510(10)
C12_2 C 0.4252(2) 0.45240(12) 0.25307(10)
H8_2 H 0.3792 0.4302 0.2316
N3_2 N 0.45249(15) 0.52295(9) 0.32588(8)
N4_2 N 0.54751(15) 0.27295(9) 0.07588(8)
N5_2 N 0.61987(17) 0.54853(14) 0.35350(10)
H9_2 H 0.5937 0.5705 0.3790
H10_2 H 0.6867 0.5459 0.3498
Zn3_2 Zn 0.3750 0.084150(16) 0.8750
C9_3 C 0.19373(19) 0.01827(11) 0.93058(10)
N3_3 N 0.29751(15) 0.02295(9) 0.92412(8)
N5_3 N 0.13013(17) 0.04853(14) 0.89650(10)
H9_3 H 0.1563 0.0705 0.8710
H10_3 H 0.0633 0.0459 0.9002
Zn1_3 Zn 0.1250 0.834150(16) 0.1250
C2_3 C 0.1109(2) 0.73946(13) 0.04316(11)
H1_3 H 0.1828 0.7420 0.0485
C6_3 C 0.0748(2) 0.70240(12) 0.00307(10)
N1_3 N 0.04751(15) 0.77295(9) 0.07588(8)
O3_3 O 0.22911(15) 0.87123(7) 0.07177(7)
O4_3 O 0.02089(15) 0.87123(7) 0.17823(7)
O5_3 O 0.07625(17) 0.91519(9) 0.06102(8)
C7_3 C 0.1702(2) 0.90970(11) 0.04915(10)
C11_3 C 0.2167(2) 0.94873(11) 0.00490(10)
H8_3 H 0.3708 0.9302 0.0184
N4_3 N 0.20249(15) 0.77295(9) 0.17412(8)
C3_3 C 0.94373(19) 0.76827(11) 0.06942(10)
C4_3 C 0.9014(2) 0.73157(13) 0.02797(11)
H2_3 H 0.8293 0.7297 0.0230
N2_3 N 0.88013(17) 0.79853(14) 0.10350(10)
H4_3 H 0.9063 0.8205 0.1290
H5_3 H 0.8133 0.7959 0.0998
O1_3 O 0.97911(15) 0.62123(7) 0.92823(7)
O2_3 O 0.82625(17) 0.66519(9) 0.93898(8)
C1_3 C 0.9202(2) 0.65970(11) 0.95085(10)
C5_3 C 0.9667(2) 0.69873(11) 0.99510(10)
Zn2_2 Zn 0.8750 0.584150(16) 0.8750
C9_4 C 0.55627(19) 0.01827(11) 0.81942(10)
N3_4 N 0.45249(15) 0.02295(9) 0.82588(8)
N5_4 N 0.61987(17) 0.04853(14) 0.85350(10)
H9_4 H 0.5937 0.0705 0.8790
H10_4 H 0.6867 0.0459 0.8498
Zn1_4 Zn 0.6250 0.834150(16) 0.6250
O1_4 O 0.77089(15) 0.62123(7) 0.82177(7)
O2_4 O 0.92375(17) 0.66519(9) 0.81102(8)
C1_4 C 0.8298(2) 0.65970(11) 0.79915(10)
C2_4 C 0.6391(2) 0.73946(13) 0.70684(11)
H1_4 H 0.5672 0.7420 0.7015
C3_4 C 0.80627(19) 0.76827(11) 0.68058(10)
C4_4 C 0.8486(2) 0.73157(13) 0.72203(11)
H2_4 H 0.9207 0.7297 0.7270
C5_4 C 0.7833(2) 0.69873(11) 0.75490(10)
C6_4 C 0.6752(2) 0.70240(12) 0.74693(10)
H3_3 H 0.6292 0.6802 0.7684
N1_4 N 0.70249(15) 0.77295(9) 0.67412(8)
N2_4 N 0.86987(17) 0.79853(14) 0.64650(10)
H4_4 H 0.8437 0.8205 0.6210
H5_4 H 0.9367 0.7959 0.6502
O3_4 O 0.52089(15) 0.87123(7) 0.67823(7)
O4_4 O 0.72911(15) 0.87123(7) 0.57177(7)
O5_4 O 0.67375(17) 0.91519(9) 0.68898(8)
C7_4 C 0.5798(2) 0.90970(11) 0.70085(10)
C8_3 C 0.3891(2) 0.98946(13) 0.79316(11)
H6_3 H 0.3172 0.9920 0.7985
C10_3 C 0.5986(2) 0.98157(13) 0.77797(11)
H7_3 H 0.6707 0.9797 0.7730
C11_4 C 0.5333(2) 0.94873(11) 0.74510(10)
C12_3 C 0.4252(2) 0.95240(12) 0.75307(10)
H8_4 H 0.3792 0.9302 0.7316
N4_4 N 0.54751(15) 0.77295(9) 0.57588(8)
C2_5 C 0.6109(2) 0.23946(13) 0.04316(11)
H1_5 H 0.6828 0.2420 0.0485
C3_5 C 0.44373(19) 0.26827(11) 0.06942(10)
C4_5 C 0.4014(2) 0.23157(13) 0.02797(11)
H2_5 H 0.3293 0.2297 0.0230
C6_5 C 0.5748(2) 0.20240(12) 0.00307(10)
N2_5 N 0.38013(17) 0.29853(14) 0.10350(10)
H4_5 H 0.4063 0.3205 0.1290
H5_5 H 0.3133 0.2959 0.0998
O5_5 O 0.57625(17) 0.41519(9) 0.06102(8)
C7_5 C 0.6702(2) 0.40970(11) 0.04915(10)
C11_5 C 0.7167(2) 0.44873(11) 0.00490(10)
H8_5 H 0.8708 0.4302 0.0184
O1_5 O 0.47911(15) 0.12123(7) 0.92823(7)
O2_5 O 0.32625(17) 0.16519(9) 0.93898(8)
C1_5 C 0.4202(2) 0.15970(11) 0.95085(10)
C5_5 C 0.4667(2) 0.19873(11) 0.99510(10)
H3_4 H 0.6208 0.1802 0.9816
C8_4 C 0.8609(2) 0.48946(13) 0.95684(11)
H6_4 H 0.9328 0.4920 0.9515
C9_5 C 0.69373(19) 0.51827(11) 0.93058(10)
C10_4 C 0.6514(2) 0.48157(13) 0.97203(11)
H7_4 H 0.5793 0.4797 0.9770
C12_4 C 0.8248(2) 0.45240(12) 0.99693(10)
N3_5 N 0.79751(15) 0.52295(9) 0.92412(8)
N5_5 N 0.63013(17) 0.54853(14) 0.89650(10)
H9_5 H 0.6563 0.5705 0.8710
H10_5 H 0.5633 0.5459 0.9002
O1_6 O 0.27089(15) 0.12123(7) 0.82177(7)
O2_6 O 0.42375(17) 0.16519(9) 0.81102(8)
C1_6 C 0.3298(2) 0.15970(11) 0.79915(10)
C2_6 C 0.1391(2) 0.23946(13) 0.70684(11)
H1_6 H 0.0672 0.2420 0.7015
C3_6 C 0.30627(19) 0.26827(11) 0.68058(10)
C4_6 C 0.3486(2) 0.23157(13) 0.72203(11)
H2_6 H 0.4207 0.2297 0.7270
C5_6 C 0.2833(2) 0.19873(11) 0.75490(10)
C6_6 C 0.1752(2) 0.20240(12) 0.74693(10)
H3_5 H 0.1292 0.1802 0.7684
N2_6 N 0.36987(17) 0.29853(14) 0.64650(10)
H4_6 H 0.3437 0.3205 0.6210
H5_6 H 0.4367 0.2959 0.6502
O5_6 O 0.17375(17) 0.41519(9) 0.68898(8)
C7_6 C 0.0798(2) 0.40970(11) 0.70085(10)
C9_6 C 0.05627(19) 0.51827(11) 0.81942(10)
C10_5 C 0.0986(2) 0.48157(13) 0.77797(11)
H7_5 H 0.1707 0.4797 0.7730
C11_6 C 0.0333(2) 0.44873(11) 0.74510(10)
N5_6 N 0.11987(17) 0.54853(14) 0.85350(10)
H9_6 H 0.0937 0.5705 0.8790
H10_6 H 0.1867 0.5459 0.8498
C8_5 C 0.8891(2) 0.48946(13) 0.79316(11)
H6_5 H 0.8172 0.4920 0.7985
C12_5 C 0.9252(2) 0.45240(12) 0.75307(10)
H8_6 H 0.8792 0.4302 0.7316
N3_6 N 0.95249(15) 0.52295(9) 0.82588(8)
C9_7 C 0.69373(19) 0.01827(11) 0.43058(10)
N3_7 N 0.79751(15) 0.02295(9) 0.42412(8)
N5_7 N 0.63013(17) 0.04853(14) 0.39650(10)
H9_7 H 0.6563 0.0705 0.3710
H10_7 H 0.5633 0.0459 0.4002
O1_7 O 0.47911(15) 0.62123(7) 0.42823(7)
O2_7 O 0.32625(17) 0.66519(9) 0.43898(8)
C1_7 C 0.4202(2) 0.65970(11) 0.45085(10)
C2_7 C 0.6109(2) 0.73946(13) 0.54316(11)
H1_7 H 0.6828 0.7420 0.5485
C3_7 C 0.44373(19) 0.76827(11) 0.56942(10)
C4_7 C 0.4014(2) 0.73157(13) 0.52797(11)
H2_7 H 0.3293 0.7297 0.5230
C5_7 C 0.4667(2) 0.69873(11) 0.49510(10)
C6_7 C 0.5748(2) 0.70240(12) 0.50307(10)
H3_6 H 0.6208 0.6802 0.4816
N2_7 N 0.38013(17) 0.79853(14) 0.60350(10)
H4_7 H 0.4063 0.8205 0.6290
H5_7 H 0.3133 0.7959 0.5998
O5_7 O 0.57625(17) 0.91519(9) 0.56102(8)
C7_7 C 0.6702(2) 0.90970(11) 0.54915(10)
C8_6 C 0.8609(2) 0.98946(13) 0.45684(11)
H6_6 H 0.9328 0.9920 0.4515
C10_6 C 0.6514(2) 0.98157(13) 0.47203(11)
H7_6 H 0.5793 0.9797 0.4770
C11_7 C 0.7167(2) 0.94873(11) 0.50490(10)
C12_6 C 0.8248(2) 0.95240(12) 0.49693(10)
H8_7 H 0.8708 0.9302 0.5184
O1_8 O 0.27089(15) 0.62123(7) 0.32177(7)
O2_8 O 0.42375(17) 0.66519(9) 0.31102(8)
C1_8 C 0.3298(2) 0.65970(11) 0.29915(10)
C2_8 C 0.1391(2) 0.73946(13) 0.20684(11)
H1_8 H 0.0672 0.7420 0.2015
C3_8 C 0.30627(19) 0.76827(11) 0.18058(10)
C4_8 C 0.3486(2) 0.73157(13) 0.22203(11)
H2_8 H 0.4207 0.7297 0.2270
C5_8 C 0.2833(2) 0.69873(11) 0.25490(10)
C6_8 C 0.1752(2) 0.70240(12) 0.24693(10)
H3_7 H 0.1292 0.6802 0.2684
N2_8 N 0.36987(17) 0.79853(14) 0.14650(10)
H4_8 H 0.3437 0.8205 0.1210
H5_8 H 0.4367 0.7959 0.1502
O5_8 O 0.17375(17) 0.91519(9) 0.18898(8)
C7_8 C 0.0798(2) 0.90970(11) 0.20085(10)
C10_7 C 0.0986(2) 0.98157(13) 0.27797(11)
H7_7 H 0.1707 0.9797 0.2730
C11_8 C 0.0333(2) 0.94873(11) 0.24510(10)
N3_8 N 0.95249(15) 0.02295(9) 0.32588(8)
Zn1_5 Zn 0.6250 0.415850(16) 0.6250
O1_9 O 0.77089(15) 0.62877(7) 0.42823(7)
O2_9 O 0.92375(17) 0.58481(9) 0.43898(8)
C1_9 C 0.8298(2) 0.59030(11) 0.45085(10)
C2_9 C 0.6391(2) 0.51054(13) 0.54316(11)
H1_9 H 0.5672 0.5080 0.5485
C3_9 C 0.80627(19) 0.48173(11) 0.56942(10)
C4_9 C 0.8486(2) 0.51843(13) 0.52797(11)
H2_9 H 0.9207 0.5203 0.5230
C5_9 C 0.7833(2) 0.55127(11) 0.49510(10)
C6_9 C 0.6752(2) 0.54760(12) 0.50307(10)
H3_8 H 0.6292 0.5698 0.4816
N1_5 N 0.70249(15) 0.47705(9) 0.57588(8)
N2_9 N 0.86987(17) 0.45147(14) 0.60350(10)
H4_9 H 0.8437 0.4295 0.6290
H5_9 H 0.9367 0.4541 0.5998
Zn2_3 Zn 0.8750 0.665850(16) 0.3750
Zn3_3 Zn 0.3750 0.165850(16) 0.3750
O3_5 O 0.52089(15) 0.37877(7) 0.57177(7)
O4_5 O 0.72911(15) 0.37877(7) 0.67823(7)
O5_9 O 0.67375(17) 0.33481(9) 0.56102(8)
C7_9 C 0.5798(2) 0.34030(11) 0.54915(10)
C8_7 C 0.3891(2) 0.26054(13) 0.45684(11)
H6_7 H 0.3172 0.2580 0.4515
C9_8 C 0.55627(19) 0.23173(11) 0.43058(10)
C10_8 C 0.5986(2) 0.26843(13) 0.47203(11)
H7_8 H 0.6707 0.2703 0.4770
C11_9 C 0.5333(2) 0.30127(11) 0.50490(10)
C12_7 C 0.4252(2) 0.29760(12) 0.49693(10)
H8_8 H 0.3792 0.3198 0.5184
N3_9 N 0.45249(15) 0.22705(9) 0.42412(8)
N4_5 N 0.54751(15) 0.47705(9) 0.67412(8)
N5_8 N 0.61987(17) 0.20147(14) 0.39650(10)
H9_8 H 0.5937 0.1795 0.3710
H10_8 H 0.6867 0.2041 0.4002
Zn1_6 Zn 0.1250 0.415850(16) 0.1250
C2_10 C 0.1109(2) 0.51054(13) 0.20684(11)
H1_10 H 0.1828 0.5080 0.2015
C6_10 C 0.0748(2) 0.54760(12) 0.24693(10)
H3_9 H 0.1208 0.5698 0.2684
N1_6 N 0.04751(15) 0.47705(9) 0.17412(8)
O3_6 O 0.22911(15) 0.37877(7) 0.17823(7)
O4_6 O 0.02089(15) 0.37877(7) 0.07177(7)
O5_10 O 0.07625(17) 0.33481(9) 0.18898(8)
C7_10 C 0.1702(2) 0.34030(11) 0.20085(10)
C8_8 C 0.3609(2) 0.26054(13) 0.29316(11)
H6_8 H 0.4328 0.2580 0.2985
C9_9 C 0.19373(19) 0.23173(11) 0.31942(10)
C10_9 C 0.1514(2) 0.26843(13) 0.27797(11)
H7_9 H 0.0793 0.2703 0.2730
C11_10 C 0.2167(2) 0.30127(11) 0.24510(10)
C12_8 C 0.3248(2) 0.29760(12) 0.25307(10)
H8_9 H 0.3708 0.3198 0.2316
N3_10 N 0.29751(15) 0.22705(9) 0.32588(8)
N4_6 N 0.20249(15) 0.47705(9) 0.07588(8)
N5_9 N 0.13013(17) 0.20147(14) 0.35350(10)
H9_9 H 0.1563 0.1795 0.3790
H10_9 H 0.0633 0.2041 0.3498
O1_10 O 0.97911(15) 0.62877(7) 0.32177(7)
O2_10 O 0.82625(17) 0.58481(9) 0.31102(8)
C1_10 C 0.9202(2) 0.59030(11) 0.29915(10)
C3_10 C 0.94373(19) 0.48173(11) 0.18058(10)
C4_10 C 0.9014(2) 0.51843(13) 0.22203(11)
H2_10 H 0.8293 0.5203 0.2270
C5_10 C 0.9667(2) 0.55127(11) 0.25490(10)
N2_10 N 0.88013(17) 0.45147(14) 0.14650(10)
H4_10 H 0.9063 0.4295 0.1210
H5_10 H 0.8133 0.4541 0.1502
O1_11 O 0.77089(15) 0.12877(7) 0.92823(7)
O2_11 O 0.92375(17) 0.08481(9) 0.93898(8)
C1_11 C 0.8298(2) 0.09030(11) 0.95085(10)
C5_11 C 0.7833(2) 0.05127(11) 0.99510(10)
H3_10 H 0.6292 0.0698 0.9816
Zn2_4 Zn 0.8750 0.165850(16) 0.8750
Zn1_7 Zn 0.6250 0.915850(16) 0.1250
C3_11 C 0.80627(19) 0.98173(11) 0.06942(10)
N1_7 N 0.70249(15) 0.97705(9) 0.07588(8)
N2_11 N 0.86987(17) 0.95147(14) 0.10350(10)
H4_11 H 0.8437 0.9295 0.1290
H5_11 H 0.9367 0.9541 0.0998
O3_7 O 0.52089(15) 0.87877(7) 0.07177(7)
O4_7 O 0.72911(15) 0.87877(7) 0.17823(7)
O5_11 O 0.67375(17) 0.83481(9) 0.06102(8)
C7_11 C 0.5798(2) 0.84030(11) 0.04915(10)
C11_11 C 0.5333(2) 0.80127(11) 0.00490(10)
H8_10 H 0.3792 0.8198 0.0184
N4_7 N 0.54751(15) 0.97705(9) 0.17412(8)
Zn3_4 Zn 0.3750 0.665850(16) 0.8750
C8_9 C 0.3891(2) 0.76054(13) 0.95684(11)
H6_9 H 0.3172 0.7580 0.9515
C9_10 C 0.55627(19) 0.73173(11) 0.93058(10)
C10_10 C 0.5986(2) 0.76843(13) 0.97203(11)
H7_10 H 0.6707 0.7703 0.9770
C12_9 C 0.4252(2) 0.79760(12) 0.99693(10)
N3_11 N 0.45249(15) 0.72705(9) 0.92412(8)
N5_10 N 0.61987(17) 0.70147(14) 0.89650(10)
H9_10 H 0.5937 0.6795 0.8710
H10_10 H 0.6867 0.7041 0.9002
Zn1_8 Zn 0.1250 0.915850(16) 0.6250
N1_8 N 0.04751(15) 0.97705(9) 0.67412(8)
O3_8 O 0.22911(15) 0.87877(7) 0.67823(7)
O4_8 O 0.02089(15) 0.87877(7) 0.57177(7)
O5_12 O 0.07625(17) 0.83481(9) 0.68898(8)
C7_12 C 0.1702(2) 0.84030(11) 0.70085(10)
C8_10 C 0.3609(2) 0.76054(13) 0.79316(11)
H6_10 H 0.4328 0.7580 0.7985
C9_11 C 0.19373(19) 0.73173(11) 0.81942(10)
C10_11 C 0.1514(2) 0.76843(13) 0.77797(11)
H7_11 H 0.0793 0.7703 0.7730
C11_12 C 0.2167(2) 0.80127(11) 0.74510(10)
C12_10 C 0.3248(2) 0.79760(12) 0.75307(10)
H8_11 H 0.3708 0.8198 0.7316
N3_12 N 0.29751(15) 0.72705(9) 0.82588(8)
N4_8 N 0.20249(15) 0.97705(9) 0.57588(8)
N5_11 N 0.13013(17) 0.70147(14) 0.85350(10)
H9_11 H 0.1563 0.6795 0.8790
H10_11 H 0.0633 0.7041 0.8498
O1_12 O 0.97911(15) 0.12877(7) 0.82177(7)
O2_12 O 0.82625(17) 0.08481(9) 0.81102(8)
C1_12 C 0.9202(2) 0.09030(11) 0.79915(10)
C4_11 C 0.9014(2) 0.01843(13) 0.72203(11)
H2_11 H 0.8293 0.0203 0.7270
C5_12 C 0.9667(2) 0.05127(11) 0.75490(10)
C2_11 C 0.1391(2) 0.51054(13) 0.04316(11)
H1_11 H 0.0672 0.5080 0.0485
C3_12 C 0.30627(19) 0.48173(11) 0.06942(10)
C4_12 C 0.3486(2) 0.51843(13) 0.02797(11)
H2_12 H 0.4207 0.5203 0.0230
C6_11 C 0.1752(2) 0.54760(12) 0.00307(10)
N2_12 N 0.36987(17) 0.45147(14) 0.10350(10)
H4_12 H 0.3437 0.4295 0.1290
H5_12 H 0.4367 0.4541 0.0998
O5_13 O 0.17375(17) 0.33481(9) 0.06102(8)
C7_13 C 0.0798(2) 0.34030(11) 0.04915(10)
C11_13 C 0.0333(2) 0.30127(11) 0.00490(10)
O1_13 O 0.27089(15) 0.62877(7) 0.92823(7)
O2_13 O 0.42375(17) 0.58481(9) 0.93898(8)
C1_13 C 0.3298(2) 0.59030(11) 0.95085(10)
C5_13 C 0.2833(2) 0.55127(11) 0.99510(10)
H3_11 H 0.1292 0.5698 0.9816
C9_12 C 0.05627(19) 0.23173(11) 0.93058(10)
C10_12 C 0.0986(2) 0.26843(13) 0.97203(11)
H7_12 H 0.1707 0.2703 0.9770
N5_12 N 0.11987(17) 0.20147(14) 0.89650(10)
H9_12 H 0.0937 0.1795 0.8710
H10_12 H 0.1867 0.2041 0.9002
C8_11 C 0.8891(2) 0.26054(13) 0.95684(11)
H6_11 H 0.8172 0.2580 0.9515
C12_11 C 0.9252(2) 0.29760(12) 0.99693(10)
N3_13 N 0.95249(15) 0.22705(9) 0.92412(8)
O1_14 O 0.47911(15) 0.62877(7) 0.82177(7)
O2_14 O 0.32625(17) 0.58481(9) 0.81102(8)
C1_14 C 0.4202(2) 0.59030(11) 0.79915(10)
C2_12 C 0.6109(2) 0.51054(13) 0.70684(11)
H1_12 H 0.6828 0.5080 0.7015
C3_13 C 0.44373(19) 0.48173(11) 0.68058(10)
C4_13 C 0.4014(2) 0.51843(13) 0.72203(11)
H2_13 H 0.3293 0.5203 0.7270
C5_14 C 0.4667(2) 0.55127(11) 0.75490(10)
C6_12 C 0.5748(2) 0.54760(12) 0.74693(10)
H3_12 H 0.6208 0.5698 0.7684
N2_13 N 0.38013(17) 0.45147(14) 0.64650(10)
H4_13 H 0.4063 0.4295 0.6210
H5_13 H 0.3133 0.4541 0.6502
O5_14 O 0.57625(17) 0.33481(9) 0.68898(8)
C7_14 C 0.6702(2) 0.34030(11) 0.70085(10)
C8_12 C 0.8609(2) 0.26054(13) 0.79316(11)
H6_12 H 0.9328 0.2580 0.7985
C9_13 C 0.69373(19) 0.23173(11) 0.81942(10)
C10_13 C 0.6514(2) 0.26843(13) 0.77797(11)
H7_13 H 0.5793 0.2703 0.7730
C11_14 C 0.7167(2) 0.30127(11) 0.74510(10)
C12_12 C 0.8248(2) 0.29760(12) 0.75307(10)
H8_12 H 0.8708 0.3198 0.7316
N3_14 N 0.79751(15) 0.22705(9) 0.82588(8)
N5_13 N 0.63013(17) 0.20147(14) 0.85350(10)
H9_13 H 0.6563 0.1795 0.8790
H10_13 H 0.5633 0.2041 0.8498
O1_15 O 0.27089(15) 0.12877(7) 0.42823(7)
O2_15 O 0.42375(17) 0.08481(9) 0.43898(8)
C1_15 C 0.3298(2) 0.09030(11) 0.45085(10)
C2_13 C 0.1391(2) 0.01054(13) 0.54316(11)
H1_13 H 0.0672 0.0080 0.5485
C4_14 C 0.3486(2) 0.01843(13) 0.52797(11)
H2_14 H 0.4207 0.0203 0.5230
C5_15 C 0.2833(2) 0.05127(11) 0.49510(10)
C6_13 C 0.1752(2) 0.04760(12) 0.50307(10)
H3_13 H 0.1292 0.0698 0.4816
C3_14 C 0.30627(19) 0.98173(11) 0.56942(10)
N2_14 N 0.36987(17) 0.95147(14) 0.60350(10)
H4_14 H 0.3437 0.9295 0.6290
H5_14 H 0.4367 0.9541 0.5998
O5_15 O 0.17375(17) 0.83481(9) 0.56102(8)
C7_15 C 0.0798(2) 0.84030(11) 0.54915(10)
C9_14 C 0.05627(19) 0.73173(11) 0.43058(10)
C10_14 C 0.0986(2) 0.76843(13) 0.47203(11)
H7_14 H 0.1707 0.7703 0.4770
C11_15 C 0.0333(2) 0.80127(11) 0.50490(10)
N5_14 N 0.11987(17) 0.70147(14) 0.39650(10)
H9_14 H 0.0937 0.6795 0.3710
H10_14 H 0.1867 0.7041 0.4002
C8_13 C 0.8891(2) 0.76054(13) 0.45684(11)
H6_13 H 0.8172 0.7580 0.4515
C12_13 C 0.9252(2) 0.79760(12) 0.49693(10)
H8_13 H 0.8792 0.8198 0.5184
N3_15 N 0.95249(15) 0.72705(9) 0.42412(8)
O1_16 O 0.47911(15) 0.12877(7) 0.32177(7)
O2_16 O 0.32625(17) 0.08481(9) 0.31102(8)
C1_16 C 0.4202(2) 0.09030(11) 0.29915(10)
C2_14 C 0.6109(2) 0.01054(13) 0.20684(11)
H1_14 H 0.6828 0.0080 0.2015
C4_15 C 0.4014(2) 0.01843(13) 0.22203(11)
H2_15 H 0.3293 0.0203 0.2270
C5_16 C 0.4667(2) 0.05127(11) 0.25490(10)
C6_14 C 0.5748(2) 0.04760(12) 0.24693(10)
H3_14 H 0.6208 0.0698 0.2684
C3_15 C 0.44373(19) 0.98173(11) 0.18058(10)
N2_15 N 0.38013(17) 0.95147(14) 0.14650(10)
H4_15 H 0.4063 0.9295 0.1210
H5_15 H 0.3133 0.9541 0.1502
O5_16 O 0.57625(17) 0.83481(9) 0.18898(8)
C7_16 C 0.6702(2) 0.84030(11) 0.20085(10)
C8_14 C 0.8609(2) 0.76054(13) 0.29316(11)
H6_14 H 0.9328 0.7580 0.2985
C9_15 C 0.69373(19) 0.73173(11) 0.31942(10)
C10_15 C 0.6514(2) 0.76843(13) 0.27797(11)
H7_15 H 0.5793 0.7703 0.2730
C11_16 C 0.7167(2) 0.80127(11) 0.24510(10)
C12_14 C 0.8248(2) 0.79760(12) 0.25307(10)
H8_14 H 0.8708 0.8198 0.2316
N3_16 N 0.79751(15) 0.72705(9) 0.32588(8)
N5_15 N 0.63013(17) 0.70147(14) 0.35350(10)
H9_15 H 0.6563 0.6795 0.3790
H10_15 H 0.5633 0.7041 0.3498
H3_15 H 0.1208 0.6802 0.9816
C8_15 C 0.3609(2) 0.98946(13) 0.95684(11)
H6_15 H 0.4328 0.9920 0.9515
C10_16 C 0.1514(2) 0.98157(13) 0.97203(11)
H7_16 H 0.0793 0.9797 0.9770
C12_15 C 0.3248(2) 0.95240(12) 0.99693(10)
C2_15 C 0.6391(2) 0.01054(13) 0.04316(11)
H1_15 H 0.5672 0.0080 0.0485
C4_16 C 0.8486(2) 0.01843(13) 0.02797(11)
H2_16 H 0.9207 0.0203 0.0230
C6_15 C 0.6752(2) 0.04760(12) 0.00307(10)
H8_15 H 0.8792 0.3198 0.0184
C2_16 C 0.1109(2) 0.01054(13) 0.70684(11)
H1_16 H 0.1828 0.0080 0.7015
C6_16 C 0.0748(2) 0.04760(12) 0.74693(10)
H3_16 H 0.1208 0.0698 0.7684
C3_16 C 0.94373(19) 0.98173(11) 0.68058(10)
N2_16 N 0.88013(17) 0.95147(14) 0.64650(10)
H4_16 H 0.9063 0.9295 0.6210
H5_16 H 0.8133 0.9541 0.6502
C9_16 C 0.05627(19) 0.01827(11) 0.31942(10)
N5_16 N 0.11987(17) 0.04853(14) 0.35350(10)
H9_16 H 0.0937 0.0705 0.3790
H10_16 H 0.1867 0.0459 0.3498
C8_16 C 0.8891(2) 0.98946(13) 0.29316(11)
H6_16 H 0.8172 0.9920 0.2985
C12_16 C 0.9252(2) 0.95240(12) 0.25307(10)
H8_16 H 0.8792 0.9302 0.2316
loop_
_geom_bond_atom_site_label_1
_geom_bond_atom_site_label_2
_geom_bond_site_symmetry_1
_geom_bond_site_symmetry_2
Zn1 N1 1_555 1_555
C2 H1 1_555 1_555
C6 C2 1_555 1_555
H3 C6 1_555 1_555
N1 C2 1_555 1_555
Zn3 N3 1_555 1_555
O3 Zn1 1_555 1_555
O4 Zn1 1_555 1_555
O5 C7 1_555 1_555
C7 O3 1_555 1_555
C8 H6 1_555 1_555
C9 C10 1_555 1_555
C10 H7 1_555 1_555
C11 C7 1_555 1_555
C12 C8 1_555 1_555
H8 C12 1_555 1_555
N3 C8 1_555 1_555
N4 Zn1 1_555 1_555
N5 C9 1_555 1_555
H9 N5 1_555 1_555
H10 N5 1_555 1_555
C9 N3 1_555 1_555
C10 C11 1_555 1_555
C11 C12 1_555 1_555
O1 C1 1_555 1_555
O2 C1 1_555 1_555
C1 C5 1_555 1_555
C3 C4 1_555 1_555
C4 H2 1_555 1_555
C5 C4 1_555 1_555
N2 C3 1_555 1_555
H4 N2 1_555 1_555
H5 N2 1_555 1_555
Zn2 O1 1_555 1_555
Zn1_2 N1_2 1_555 1_555
O1_2 C1_2 1_555 1_555
O2_2 C1_2 1_555 1_555
C1_2 C5_2 1_555 1_555
C2_2 H1_2 1_555 1_555
C3_2 C4_2 1_555 1_555
C4_2 H2_2 1_555 1_555
C5_2 C4_2 1_555 1_555
C6_2 C2_2 1_555 1_555
H3_2 C6_2 1_555 1_555
N1_2 C2_2 1_555 1_555
N2_2 C3_2 1_555 1_555
H4_2 N2_2 1_555 1_555
H5_2 N2_2 1_555 1_555
Zn2 O1_2 1_555 1_555
Zn3 N3_2 1_555 1_555
O3_2 Zn1_2 1_555 1_555
O4_2 Zn1_2 1_555 1_555
O5_2 C7_2 1_555 1_555
C7_2 O3_2 1_555 1_555
C8_2 H6_2 1_555 1_555
C9_2 C10_2 1_555 1_555
C10_2 H7_2 1_555 1_555
C11_2 C7_2 1_555 1_555
C12_2 C8_2 1_555 1_555
H8_2 C12_2 1_555 1_555
N3_2 C8_2 1_555 1_555
N4_2 Zn1_2 1_555 1_555
N5_2 C9_2 1_555 1_555
H9_2 N5_2 1_555 1_555
H10_2 N5_2 1_555 1_555
C3_2 N1_2 1_555 1_555
C5_2 C6_2 1_555 1_555
C9_2 N3_2 1_555 1_555
C10_2 C11_2 1_555 1_555
C11_2 C12_2 1_555 1_555
Zn3_2 N3_3 1_555 1_555
N5_3 C9_3 1_555 1_555
H9_3 N5_3 1_555 1_555
H10_3 N5_3 1_555 1_555
C9_3 N3_3 1_555 1_555
Zn1_3 N1_3 1_555 1_555
C2_3 H1_3 1_555 1_555
C6_3 C2_3 1_555 1_555
N1_3 C2_3 1_555 1_555
O3_3 Zn1_3 1_555 1_555
O4_3 Zn1_3 1_555 1_555
O5_3 C7_3 1_555 1_555
C7_3 O3_3 1_555 1_555
C11_3 C7_3 1_555 1_555
N4_3 Zn1_3 1_555 1_555
C3_3 C4_3 1_555 1_555
C4_3 H2_3 1_555 1_555
N2_3 C3_3 1_555 1_555
H4_3 N2_3 1_555 1_555
H5_3 N2_3 1_555 1_555
O1_3 C1_3 1_555 1_555
O2_3 C1_3 1_555 1_555
C1_3 C5_3 1_555 1_555
Zn2_2 O1_3 1_555 1_555
Zn3_2 N3_4 1_555 1_555
N5_4 C9_4 1_555 1_555
H9_4 N5_4 1_555 1_555
H10_4 N5_4 1_555 1_555
C9_4 N3_4 1_555 1_555
Zn1_4 N1_4 1_555 1_555
O1_4 C1_4 1_555 1_555
O2_4 C1_4 1_555 1_555
C1_4 C5_4 1_555 1_555
C2_4 H1_4 1_555 1_555
C3_4 C4_4 1_555 1_555
C4_4 H2_4 1_555 1_555
C5_4 C4_4 1_555 1_555
C6_4 C2_4 1_555 1_555
H3_3 C6_4 1_555 1_555
N1_4 C2_4 1_555 1_555
N2_4 C3_4 1_555 1_555
H4_4 N2_4 1_555 1_555
H5_4 N2_4 1_555 1_555
Zn2_2 O1_4 1_555 1_555
O3_4 Zn1_4 1_555 1_555
O4_4 Zn1_4 1_555 1_555
O5_4 C7_4 1_555 1_555
C7_4 O3_4 1_555 1_555
C8_3 H6_3 1_555 1_555
C10_3 H7_3 1_555 1_555
C11_4 C7_4 1_555 1_555
C12_3 C8_3 1_555 1_555
H8_4 C12_3 1_555 1_555
N4_4 Zn1_4 1_555 1_555
C3_4 N1_4 1_555 1_555
C5_4 C6_4 1_555 1_555
C10_3 C11_4 1_555 1_555
C11_4 C12_3 1_555 1_555
C2_5 H1_5 1_555 1_555
C3_5 C4_5 1_555 1_555
C4_5 H2_5 1_555 1_555
C6_5 C2_5 1_555 1_555
N4_2 C2_5 1_555 1_555
N2_5 C3_5 1_555 1_555
H4_5 N2_5 1_555 1_555
H5_5 N2_5 1_555 1_555
O5_5 C7_5 1_555 1_555
C7_5 O4_2 1_555 1_555
C11_5 C7_5 1_555 1_555
C3_5 N4_2 1_555 1_555
O1_5 C1_5 1_555 1_555
O2_5 C1_5 1_555 1_555
C1_5 C5_5 1_555 1_555
Zn3_2 O1_5 1_555 1_555
Zn2_2 N3_5 1_555 1_555
C8_4 H6_4 1_555 1_555
C9_5 C10_4 1_555 1_555
C10_4 H7_4 1_555 1_555
C12_4 C8_4 1_555 1_555
N3_5 C8_4 1_555 1_555
N5_5 C9_5 1_555 1_555
H9_5 N5_5 1_555 1_555
H10_5 N5_5 1_555 1_555
C9_5 N3_5 1_555 1_555
O1_6 C1_6 1_555 1_555
O2_6 C1_6 1_555 1_555
C1_6 C5_6 1_555 1_555
C2_6 H1_6 1_555 1_555
C3_6 C4_6 1_555 1_555
C4_6 H2_6 1_555 1_555
C5_6 C4_6 1_555 1_555
C6_6 C2_6 1_555 1_555
H3_5 C6_6 1_555 1_555
N4 C2_6 1_555 1_555
N2_6 C3_6 1_555 1_555
H4_6 N2_6 1_555 1_555
H5_6 N2_6 1_555 1_555
Zn3_2 O1_6 1_555 1_555
O5_6 C7_6 1_555 1_555
C7_6 O4 1_555 1_555
C9_6 C10_5 1_555 1_555
C10_5 H7_5 1_555 1_555
C11_6 C7_6 1_555 1_555
N5_6 C9_6 1_555 1_555
H9_6 N5_6 1_555 1_555
H10_6 N5_6 1_555 1_555
C3_6 N4 1_555 1_555
C5_6 C6_6 1_555 1_555
C10_5 C11_6 1_555 1_555
Zn2_2 N3_6 1_555 1_555
C8_5 H6_5 1_555 1_555
C12_5 C8_5 1_555 1_555
H8_6 C12_5 1_555 1_555
N3_6 C8_5 1_555 1_555
Zn2 N3_7 1_555 1_555
N5_7 C9_7 1_555 1_555
H9_7 N5_7 1_555 1_555
H10_7 N5_7 1_555 1_555
C9_7 N3_7 1_555 1_555
O1_7 C1_7 1_555 1_555
O2_7 C1_7 1_555 1_555
C1_7 C5_7 1_555 1_555
C2_7 H1_7 1_555 1_555
C3_7 C4_7 1_555 1_555
C4_7 H2_7 1_555 1_555
C5_7 C4_7 1_555 1_555
C6_7 C2_7 1_555 1_555
H3_6 C6_7 1_555 1_555
N4_4 C2_7 1_555 1_555
N2_7 C3_7 1_555 1_555
H4_7 N2_7 1_555 1_555
H5_7 N2_7 1_555 1_555
Zn3 O1_7 1_555 1_555
O5_7 C7_7 1_555 1_555
C7_7 O4_4 1_555 1_555
C8_6 H6_6 1_555 1_555
C10_6 H7_6 1_555 1_555
C11_7 C7_7 1_555 1_555
C12_6 C8_6 1_555 1_555
H8_7 C12_6 1_555 1_555
C3_7 N4_4 1_555 1_555
C5_7 C6_7 1_555 1_555
C10_6 C11_7 1_555 1_555
C11_7 C12_6 1_555 1_555
O1_8 C1_8 1_555 1_555
O2_8 C1_8 1_555 1_555
C1_8 C5_8 1_555 1_555
C2_8 H1_8 1_555 1_555
C3_8 C4_8 1_555 1_555
C4_8 H2_8 1_555 1_555
C5_8 C4_8 1_555 1_555
C6_8 C2_8 1_555 1_555
H3_7 C6_8 1_555 1_555
N4_3 C2_8 1_555 1_555
N2_8 C3_8 1_555 1_555
H4_8 N2_8 1_555 1_555
H5_8 N2_8 1_555 1_555
Zn3 O1_8 1_555 1_555
O5_8 C7_8 1_555 1_555
C7_8 O4_3 1_555 1_555
C10_7 H7_7 1_555 1_555
C11_8 C7_8 1_555 1_555
C3_8 N4_3 1_555 1_555
C5_8 C6_8 1_555 1_555
C10_7 C11_8 1_555 1_555
Zn2 N3_8 1_555 1_555
Zn1_5 N1_5 1_555 1_555
O1_9 C1_9 1_555 1_555
O2_9 C1_9 1_555 1_555
C1_9 C5_9 1_555 1_555
C2_9 H1_9 1_555 1_555
C3_9 C4_9 1_555 1_555
C4_9 H2_9 1_555 1_555
C5_9 C4_9 1_555 1_555
C6_9 C2_9 1_555 1_555
H3_8 C6_9 1_555 1_555
N1_5 C2_9 1_555 1_555
N2_9 C3_9 1_555 1_555
H4_9 N2_9 1_555 1_555
H5_9 N2_9 1_555 1_555
Zn2_3 O1_9 1_555 1_555
Zn3_3 N3_9 1_555 1_555
O3_5 Zn1_5 1_555 1_555
O4_5 Zn1_5 1_555 1_555
O5_9 C7_9 1_555 1_555
C7_9 O3_5 1_555 1_555
C8_7 H6_7 1_555 1_555
C9_8 C10_8 1_555 1_555
C10_8 H7_8 1_555 1_555
C11_9 C7_9 1_555 1_555
C12_7 C8_7 1_555 1_555
H8_8 C12_7 1_555 1_555
N3_9 C8_7 1_555 1_555
N4_5 Zn1_5 1_555 1_555
N5_8 C9_8 1_555 1_555
H9_8 N5_8 1_555 1_555
H10_8 N5_8 1_555 1_555
C3_9 N1_5 1_555 1_555
C5_9 C6_9 1_555 1_555
C9_8 N3_9 1_555 1_555
C10_8 C11_9 1_555 1_555
C11_9 C12_7 1_555 1_555
Zn1_6 N1_6 1_555 1_555
C2_10 H1_10 1_555 1_555
C6_10 C2_10 1_555 1_555
H3_9 C6_10 1_555 1_555
N1_6 C2_10 1_555 1_555
Zn3_3 N3_10 1_555 1_555
O3_6 Zn1_6 1_555 1_555
O4_6 Zn1_6 1_555 1_555
O5_10 C7_10 1_555 1_555
C7_10 O3_6 1_555 1_555
C8_8 H6_8 1_555 1_555
C9_9 C10_9 1_555 1_555
C10_9 H7_9 1_555 1_555
C11_10 C7_10 1_555 1_555
C12_8 C8_8 1_555 1_555
H8_9 C12_8 1_555 1_555
N3_10 C8_8 1_555 1_555
N4_6 Zn1_6 1_555 1_555
N5_9 C9_9 1_555 1_555
H9_9 N5_9 1_555 1_555
H10_9 N5_9 1_555 1_555
C9_9 N3_10 1_555 1_555
C10_9 C11_10 1_555 1_555
C11_10 C12_8 1_555 1_555
O1_10 C1_10 1_555 1_555
O2_10 C1_10 1_555 1_555
C1_10 C5_10 1_555 1_555
C3_10 C4_10 1_555 1_555
C4_10 H2_10 1_555 1_555
C5_10 C4_10 1_555 1_555
N2_10 C3_10 1_555 1_555
H4_10 N2_10 1_555 1_555
H5_10 N2_10 1_555 1_555
Zn2_3 O1_10 1_555 1_555
O1_11 C1_11 1_555 1_555
O2_11 C1_11 1_555 1_555
C1_11 C5_11 1_555 1_555
Zn2_4 O1_11 1_555 1_555
Zn1_7 N1_7 1_555 1_555
N2_11 C3_11 1_555 1_555
H4_11 N2_11 1_555 1_555
H5_11 N2_11 1_555 1_555
O3_7 Zn1_7 1_555 1_555
O4_7 Zn1_7 1_555 1_555
O5_11 C7_11 1_555 1_555
C7_11 O3_7 1_555 1_555
C11_11 C7_11 1_555 1_555
N4_7 Zn1_7 1_555 1_555
C3_11 N1_7 1_555 1_555
Zn3_4 N3_11 1_555 1_555
C8_9 H6_9 1_555 1_555
C9_10 C10_10 1_555 1_555
C10_10 H7_10 1_555 1_555
C12_9 C8_9 1_555 1_555
N3_11 C8_9 1_555 1_555
N5_10 C9_10 1_555 1_555
H9_10 N5_10 1_555 1_555
H10_10 N5_10 1_555 1_555
C9_10 N3_11 1_555 1_555
Zn1_8 N1_8 1_555 1_555
Zn3_4 N3_12 1_555 1_555
O3_8 Zn1_8 1_555 1_555
O4_8 Zn1_8 1_555 1_555
O5_12 C7_12 1_555 1_555
C7_12 O3_8 1_555 1_555
C8_10 H6_10 1_555 1_555
C9_11 C10_11 1_555 1_555
C10_11 H7_11 1_555 1_555
C11_12 C7_12 1_555 1_555
C12_10 C8_10 1_555 1_555
H8_11 C12_10 1_555 1_555
N3_12 C8_10 1_555 1_555
N4_8 Zn1_8 1_555 1_555
N5_11 C9_11 1_555 1_555
H9_11 N5_11 1_555 1_555
H10_11 N5_11 1_555 1_555
C9_11 N3_12 1_555 1_555
C10_11 C11_12 1_555 1_555
C11_12 C12_10 1_555 1_555
O1_12 C1_12 1_555 1_555
O2_12 C1_12 1_555 1_555
C1_12 C5_12 1_555 1_555
C4_11 H2_11 1_555 1_555
C5_12 C4_11 1_555 1_555
Zn2_4 O1_12 1_555 1_555
C2_11 H1_11 1_555 1_555
C3_12 C4_12 1_555 1_555
C4_12 H2_12 1_555 1_555
C6_11 C2_11 1_555 1_555
N4_6 C2_11 1_555 1_555
N2_12 C3_12 1_555 1_555
H4_12 N2_12 1_555 1_555
H5_12 N2_12 1_555 1_555
O5_13 C7_13 1_555 1_555
C7_13 O4_6 1_555 1_555
C11_13 C7_13 1_555 1_555
C3_12 N4_6 1_555 1_555
O1_13 C1_13 1_555 1_555
O2_13 C1_13 1_555 1_555
C1_13 C5_13 1_555 1_555
Zn3_4 O1_13 1_555 1_555
C9_12 C10_12 1_555 1_555
C10_12 H7_12 1_555 1_555
N5_12 C9_12 1_555 1_555
H9_12 N5_12 1_555 1_555
H10_12 N5_12 1_555 1_555
Zn2_4 N3_13 1_555 1_555
C8_11 H6_11 1_555 1_555
C12_11 C8_11 1_555 1_555
N3_13 C8_11 1_555 1_555
O1_14 C1_14 1_555 1_555
O2_14 C1_14 1_555 1_555
C1_14 C5_14 1_555 1_555
C2_12 H1_12 1_555 1_555
C3_13 C4_13 1_555 1_555
C4_13 H2_13 1_555 1_555
C5_14 C4_13 1_555 1_555
C6_12 C2_12 1_555 1_555
H3_12 C6_12 1_555 1_555
N4_5 C2_12 1_555 1_555
N2_13 C3_13 1_555 1_555
H4_13 N2_13 1_555 1_555
H5_13 N2_13 1_555 1_555
Zn3_4 O1_14 1_555 1_555
Zn2_4 N3_14 1_555 1_555
O5_14 C7_14 1_555 1_555
C7_14 O4_5 1_555 1_555
C8_12 H6_12 1_555 1_555
C9_13 C10_13 1_555 1_555
C10_13 H7_13 1_555 1_555
C11_14 C7_14 1_555 1_555
C12_12 C8_12 1_555 1_555
H8_12 C12_12 1_555 1_555
N3_14 C8_12 1_555 1_555
N5_13 C9_13 1_555 1_555
H9_13 N5_13 1_555 1_555
H10_13 N5_13 1_555 1_555
C3_13 N4_5 1_555 1_555
C5_14 C6_12 1_555 1_555
C9_13 N3_14 1_555 1_555
C10_13 C11_14 1_555 1_555
C11_14 C12_12 1_555 1_555
O1_15 C1_15 1_555 1_555
O2_15 C1_15 1_555 1_555
C1_15 C5_15 1_555 1_555
C2_13 H1_13 1_555 1_555
C4_14 H2_14 1_555 1_555
C5_15 C4_14 1_555 1_555
C6_13 C2_13 1_555 1_555
H3_13 C6_13 1_555 1_555
Zn3_3 O1_15 1_555 1_555
C5_15 C6_13 1_555 1_555
N2_14 C3_14 1_555 1_555
H4_14 N2_14 1_555 1_555
H5_14 N2_14 1_555 1_555
O5_15 C7_15 1_555 1_555
C7_15 O4_8 1_555 1_555
C9_14 C10_14 1_555 1_555
C10_14 H7_14 1_555 1_555
C11_15 C7_15 1_555 1_555
N5_14 C9_14 1_555 1_555
H9_14 N5_14 1_555 1_555
H10_14 N5_14 1_555 1_555
C3_14 N4_8 1_555 1_555
C10_14 C11_15 1_555 1_555
Zn2_3 N3_15 1_555 1_555
C8_13 H6_13 1_555 1_555
C12_13 C8_13 1_555 1_555
H8_13 C12_13 1_555 1_555
N3_15 C8_13 1_555 1_555
O1_16 C1_16 1_555 1_555
O2_16 C1_16 1_555 1_555
C1_16 C5_16 1_555 1_555
C2_14 H1_14 1_555 1_555
C4_15 H2_15 1_555 1_555
C5_16 C4_15 1_555 1_555
C6_14 C2_14 1_555 1_555
H3_14 C6_14 1_555 1_555
Zn3_3 O1_16 1_555 1_555
C5_16 C6_14 1_555 1_555
N2_15 C3_15 1_555 1_555
H4_15 N2_15 1_555 1_555
H5_15 N2_15 1_555 1_555
Zn2_3 N3_16 1_555 1_555
O5_16 C7_16 1_555 1_555
C7_16 O4_7 1_555 1_555
C8_14 H6_14 1_555 1_555
C9_15 C10_15 1_555 1_555
C10_15 H7_15 1_555 1_555
C11_16 C7_16 1_555 1_555
C12_14 C8_14 1_555 1_555
H8_14 C12_14 1_555 1_555
N3_16 C8_14 1_555 1_555
N5_15 C9_15 1_555 1_555
H9_15 N5_15 1_555 1_555
H10_15 N5_15 1_555 1_555
C3_15 N4_7 1_555 1_555
C9_15 N3_16 1_555 1_555
C10_15 C11_16 1_555 1_555
C11_16 C12_14 1_555 1_555
C8_15 H6_15 1_555 1_555
C10_16 H7_16 1_555 1_555
C12_15 C8_15 1_555 1_555
C2_15 H1_15 1_555 1_555
C4_16 H2_16 1_555 1_555
C6_15 C2_15 1_555 1_555
C2_16 H1_16 1_555 1_555
C6_16 C2_16 1_555 1_555
H3_16 C6_16 1_555 1_555
N2_16 C3_16 1_555 1_555
H4_16 N2_16 1_555 1_555
H5_16 N2_16 1_555 1_555
N5_16 C9_16 1_555 1_555
H9_16 N5_16 1_555 1_555
H10_16 N5_16 1_555 1_555
C8_16 H6_16 1_555 1_555
C12_16 C8_16 1_555 1_555
H8_16 C12_16 1_555 1_555

#END
