
###############################################################################
#
# This file contains modified crystal structure data generated from the
# MOF subset of the Cambridge Structural Database (CSD) v543 
# hosted by the Cambridge Crystallographic Data Centre (CCDC).
#
# This work is licensed under the Creative Commons
# Attribution-NonCommercial-ShareAlike 4.0 International License.
# To view a copy of this license, visit
# http://creativecommons.org/licenses/by-nc-sa/4.0/
# or send a letter to
# Creative Commons, PO Box 1866, Mountain View, CA 94042, USA.
#
# CIF created using the CSD Python API on 29 September 2022
# The structure has been converted into the P1 space group
# The structure has a 3D framework
# The original CSD entry SARHEA is in the rhombohedral crystal system
# The framework has been calculated to contain at least 10.0% void space
# The void calculation uses a probe of radius 1.32A, grid spacing 0.4
#
###############################################################################

data_SARHEA
_chemical_formula_moiety         '(C72 H18 Fe8 O54)n'
_symmetry_cell_setting           triclinic
_symmetry_space_group_name_H-M   'P 1'
_symmetry_Int_Tables_number      1
_space_group_name_Hall           'P 1'
loop_
_symmetry_equiv_pos_site_id
_symmetry_equiv_pos_as_xyz
1 x,y,z
_cell_length_a                   26.0468(6)
_cell_length_b                   26.0468(6)
_cell_length_c                   6.82816(22)
_cell_angle_alpha                90
_cell_angle_beta                 90
_cell_angle_gamma                120
_cell_volume                     4011.84
loop_
_atom_site_label
_atom_site_type_symbol
_atom_site_fract_x
_atom_site_fract_y
_atom_site_fract_z
_atom_site_U_iso_or_equiv
_atom_site_thermal_displace_type
Fe1 Fe 0.37994(26) 0.34825(28) 0.1455(9) 0.0117 Uiso
O1 O 0.3278(5) 0.2944(4) 0.3505(17) 0.0220 Uiso
O2 O 0.3025(5) 0.2197(5) 0.5667(17) 0.0218 Uiso
O3 O 0.3453(5) 0.2675(4) 0.0072(17) 0.0218 Uiso
C1 C 0.3174(4) 0.2452(4) 0.4163(13) 0.0024 Uiso
C2 C 0.3289(4) 0.20592(34) 0.3004(13) 0.0023 Uiso
C3 C 0.3431(4) 0.2241(4) 0.0906(12) 0.0024 Uiso
C4 C 0.3173(4) 0.1522(4) 0.3584(13) 0.0025 Uiso
H1 H 0.3010(6) 0.1345(6) 0.4962(28) 0.0010 Uiso
Fe3 Fe 0.31842(28) 0.36502(38) 0.4788(9) 0.0117 Uiso
Fe5 Fe 0.30164(38) 0.28673(26) 0.8122(9) 0.0117 Uiso
Fe8 Fe 0.36502(38) 0.04661(26) 0.5212(9) 0.0117 Uiso
O5 O 0.2999(6) 0.3389(5) 0.0172(17) 0.0220 Uiso
O10 O 0.3214(5) 0.0658(4) 0.3261(17) 0.0218 Uiso
O11 O 0.3992(4) 0.4111(6) 0.3405(17) 0.0218 Uiso
C6 C 0.3378(4) 0.12741(34) 0.0329(13) 0.0023 Uiso
C7 C 0.3236(4) 0.1092(4) 0.2427(12) 0.0024 Uiso
O4 O 0.3389(5) 0.0389(4) 0.9828(17) 0.0220 Uiso
O7 O 0.3642(5) 0.1136(5) 0.7666(17) 0.0218 Uiso
O8 O 0.4470(5) 0.4161(7) 0.9000(17) 0.0218 Uiso
C5 C 0.3493(4) 0.0881(4) 0.9170(13) 0.0024 Uiso
C8 C 0.3494(4) 0.1811(4) 0.9749(13) 0.0025 Uiso
H2 H 0.3657(6) 0.1988(6) 0.8371(28) 0.0010 Uiso
Fe2 Fe 0.28673(26) 0.98508(28) 0.1878(9) 0.0117 Uiso
O6 O 0.3667(6) 0.9945(5) 0.3162(17) 0.0220 Uiso
O9 O 0.2197(5) 0.9172(7) 0.4333(17) 0.0218 Uiso
Fe6 Fe 0.34825(28) 0.96831(38) 0.8545(9) 0.0117 Uiso
O12 O 0.2675(4) 0.9222(6) 0.9928(17) 0.0218 Uiso
Fe2_2 Fe 0.01492(28) 0.30164(38) 0.1878(9) 0.0117 Uiso
O6_2 O 0.0055(5) 0.3723(8) 0.3162(17) 0.0220 Uiso
O9_2 O 0.0828(7) 0.3025(9) 0.4333(17) 0.0218 Uiso
Fe6_2 Fe 0.03169(38) 0.37994(47) 0.8545(9) 0.0117 Uiso
O12_2 O 0.0778(6) 0.3453(7) 0.9928(17) 0.0218 Uiso
Fe1_2 Fe 0.65175(28) 0.03169(38) 0.1455(9) 0.0117 Uiso
O1_2 O 0.7056(4) 0.0334(6) 0.3505(17) 0.0220 Uiso
O2_2 O 0.7803(5) 0.0828(7) 0.5667(17) 0.0218 Uiso
O3_2 O 0.7325(4) 0.0778(6) 0.0072(17) 0.0218 Uiso
C1_2 C 0.7548(4) 0.0722(6) 0.4163(13) 0.0024 Uiso
C2_2 C 0.79408(34) 0.12298(52) 0.3004(13) 0.0023 Uiso
C3_2 C 0.7759(4) 0.1190(6) 0.0906(12) 0.0024 Uiso
C4_2 C 0.8478(4) 0.1651(6) 0.3584(13) 0.0025 Uiso
H1_2 H 0.8655(6) 0.1665(8) 0.4962(28) 0.0010 Uiso
Fe5_2 Fe 0.71327(26) 0.01492(46) 0.8122(9) 0.0117 Uiso
Fe8_2 Fe 0.95339(26) 0.31842(46) 0.5212(9) 0.0117 Uiso
O10_2 O 0.9342(4) 0.2555(6) 0.3261(17) 0.0218 Uiso
C6_2 C 0.87259(34) 0.21035(52) 0.0329(13) 0.0023 Uiso
C7_2 C 0.8908(4) 0.2143(6) 0.2427(12) 0.0024 Uiso
O4_2 O 0.9611(4) 0.2999(6) 0.9828(17) 0.0220 Uiso
O7_2 O 0.8864(5) 0.2505(7) 0.7666(17) 0.0218 Uiso
O8_2 O 0.5839(7) 0.0308(9) 0.9000(17) 0.0218 Uiso
C5_2 C 0.9119(4) 0.2611(6) 0.9170(13) 0.0024 Uiso
C8_2 C 0.8189(4) 0.1682(6) 0.9749(13) 0.0025 Uiso
H2_2 H 0.8012(6) 0.1668(8) 0.8371(28) 0.0010 Uiso
Fe3_2 Fe 0.63498(38) 0.95339(47) 0.4788(9) 0.0117 Uiso
O5_2 O 0.6611(5) 0.9611(8) 0.0172(17) 0.0220 Uiso
O11_2 O 0.5889(6) 0.9880(7) 0.3405(17) 0.0218 Uiso
Fe3_3 Fe 0.04661(47) 0.68158(28) 0.4788(9) 0.0117 Uiso
O5_3 O 0.0389(8) 0.7001(6) 0.0172(17) 0.0220 Uiso
O11_3 O 0.0120(7) 0.6008(4) 0.3405(17) 0.0218 Uiso
Fe1_3 Fe 0.96831(38) 0.62006(26) 0.1455(9) 0.0117 Uiso
O1_3 O 0.9666(6) 0.6722(5) 0.3505(17) 0.0220 Uiso
O2_3 O 0.9172(7) 0.6975(5) 0.5667(17) 0.0218 Uiso
O3_3 O 0.9222(6) 0.6547(5) 0.0072(17) 0.0218 Uiso
C1_3 C 0.9278(6) 0.6826(4) 0.4163(13) 0.0024 Uiso
C2_3 C 0.87702(52) 0.6711(4) 0.3004(13) 0.0023 Uiso
C3_3 C 0.8810(6) 0.6569(4) 0.0906(12) 0.0024 Uiso
C4_3 C 0.8349(6) 0.6827(4) 0.3584(13) 0.0025 Uiso
H1_3 H 0.8335(8) 0.6990(6) 0.4962(28) 0.0010 Uiso
Fe2_3 Fe 0.69836(38) 0.71327(26) 0.1878(9) 0.0117 Uiso
Fe5_3 Fe 0.98508(46) 0.69836(38) 0.8122(9) 0.0117 Uiso
Fe8_3 Fe 0.68158(46) 0.63498(38) 0.5212(9) 0.0117 Uiso
O6_3 O 0.6277(8) 0.6333(6) 0.3162(17) 0.0220 Uiso
O9_3 O 0.6975(9) 0.7803(5) 0.4333(17) 0.0218 Uiso
O10_3 O 0.7445(6) 0.6786(5) 0.3261(17) 0.0218 Uiso
C6_3 C 0.78965(52) 0.6622(4) 0.0329(13) 0.0023 Uiso
C7_3 C 0.7857(6) 0.6764(4) 0.2427(12) 0.0024 Uiso
Fe6_3 Fe 0.62006(47) 0.65175(28) 0.8545(9) 0.0117 Uiso
O4_3 O 0.7001(6) 0.6611(5) 0.9828(17) 0.0220 Uiso
O7_3 O 0.7495(7) 0.6358(5) 0.7666(17) 0.0218 Uiso
O8_3 O 0.9692(9) 0.5530(5) 0.9000(17) 0.0218 Uiso
O12_3 O 0.6547(7) 0.7325(4) 0.9928(17) 0.0218 Uiso
C5_3 C 0.7389(6) 0.6507(4) 0.9170(13) 0.0024 Uiso
C8_3 C 0.8318(6) 0.6506(4) 0.9749(13) 0.0025 Uiso
H2_3 H 0.8332(8) 0.6343(6) 0.8371(28) 0.0010 Uiso
O5_4 O 0.6333(6) 0.0055(5) 0.6838(17) 0.0220 Uiso
O2_4 O 0.6358(5) 0.8864(5) 0.2334(17) 0.0218 Uiso
C1_4 C 0.6507(4) 0.9119(4) 0.0830(13) 0.0024 Uiso
C4_4 C 0.6506(4) 0.8189(4) 0.0251(13) 0.0025 Uiso
H1_4 H 0.6343(6) 0.8012(6) 0.1629(28) 0.0010 Uiso
O9_4 O 0.5530(5) 0.5839(7) 0.1000(17) 0.0218 Uiso
O3_4 O 0.6786(5) 0.9342(4) 0.6739(17) 0.0218 Uiso
C2_4 C 0.6622(4) 0.87259(34) 0.9671(13) 0.0023 Uiso
C3_4 C 0.6764(4) 0.8908(4) 0.7573(12) 0.0024 Uiso
O4_4 O 0.6722(5) 0.7056(4) 0.6495(17) 0.0220 Uiso
O12_4 O 0.6008(4) 0.5889(6) 0.6595(17) 0.0218 Uiso
C5_4 C 0.6826(4) 0.7548(4) 0.5837(13) 0.0024 Uiso
C6_4 C 0.6711(4) 0.79408(34) 0.6996(13) 0.0023 Uiso
C7_4 C 0.6569(4) 0.7759(4) 0.9094(12) 0.0024 Uiso
C8_4 C 0.6827(4) 0.8478(4) 0.6416(13) 0.0025 Uiso
H2_4 H 0.6990(6) 0.8655(6) 0.5038(28) 0.0010 Uiso
O12_5 O 0.4111(6) 0.0120(7) 0.6595(17) 0.0218 Uiso
O2_5 O 0.1136(5) 0.7495(7) 0.2334(17) 0.0218 Uiso
C1_5 C 0.0881(4) 0.7389(6) 0.0830(13) 0.0024 Uiso
C4_5 C 0.1811(4) 0.8318(6) 0.0251(13) 0.0025 Uiso
H1_5 H 0.1988(6) 0.8332(8) 0.1629(28) 0.0010 Uiso
O9_5 O 0.4161(7) 0.9692(9) 0.1000(17) 0.0218 Uiso
O3_5 O 0.0658(4) 0.7445(6) 0.6739(17) 0.0218 Uiso
C2_5 C 0.12741(34) 0.78965(52) 0.9671(13) 0.0023 Uiso
C3_5 C 0.1092(4) 0.7857(6) 0.7573(12) 0.0024 Uiso
O4_5 O 0.2944(4) 0.9666(6) 0.6495(17) 0.0220 Uiso
C5_5 C 0.2452(4) 0.9278(6) 0.5837(13) 0.0024 Uiso
C6_5 C 0.20592(34) 0.87702(52) 0.6996(13) 0.0023 Uiso
C7_5 C 0.2241(4) 0.8810(6) 0.9094(12) 0.0024 Uiso
C8_5 C 0.1522(4) 0.8349(6) 0.6416(13) 0.0025 Uiso
H2_5 H 0.1345(6) 0.8335(8) 0.5038(28) 0.0010 Uiso
O5_5 O 0.9945(5) 0.6277(8) 0.6838(17) 0.0220 Uiso
O2_6 O 0.2505(7) 0.3642(5) 0.2334(17) 0.0218 Uiso
C1_6 C 0.2611(6) 0.3493(4) 0.0830(13) 0.0024 Uiso
C4_6 C 0.1682(6) 0.3494(4) 0.0251(13) 0.0025 Uiso
H1_6 H 0.1668(8) 0.3657(6) 0.1629(28) 0.0010 Uiso
O9_6 O 0.0308(9) 0.4470(5) 0.1000(17) 0.0218 Uiso
O3_6 O 0.2555(6) 0.3214(5) 0.6739(17) 0.0218 Uiso
C2_6 C 0.21035(52) 0.3378(4) 0.9671(13) 0.0023 Uiso
C3_6 C 0.2143(6) 0.3236(4) 0.7573(12) 0.0024 Uiso
O4_6 O 0.0334(6) 0.3278(5) 0.6495(17) 0.0220 Uiso
O5_6 O 0.3723(8) 0.3667(6) 0.6838(17) 0.0220 Uiso
C5_6 C 0.0722(6) 0.3174(4) 0.5837(13) 0.0024 Uiso
C6_6 C 0.12298(52) 0.3289(4) 0.6996(13) 0.0023 Uiso
C7_6 C 0.1190(6) 0.3431(4) 0.9094(12) 0.0024 Uiso
C8_6 C 0.1651(6) 0.3173(4) 0.6416(13) 0.0025 Uiso
H2_6 H 0.1665(8) 0.3010(6) 0.5038(28) 0.0010 Uiso
O12_6 O 0.9880(7) 0.3992(4) 0.6595(17) 0.0218 Uiso
C3_7 C 0.0098(4) 0.5574(4) 0.4239(12) 0.0024 Uiso
C5_7 C 0.0159(4) 0.4215(4) 0.2504(13) 0.0024 Uiso
C6_7 C 0.0044(4) 0.46075(34) 0.3663(13) 0.0023 Uiso
C8_7 C 0.0160(4) 0.5145(4) 0.3083(13) 0.0025 Uiso
H2_7 H 0.0323(6) 0.5322(6) 0.1705(28) 0.0010 Uiso
C1_7 C 0.9841(4) 0.5785(4) 0.7496(13) 0.0024 Uiso
C2_7 C 0.9956(4) 0.53925(34) 0.6337(13) 0.0023 Uiso
C4_7 C 0.9840(4) 0.4855(4) 0.6917(13) 0.0025 Uiso
H1_7 H 0.9677(6) 0.4678(6) 0.8295(28) 0.0010 Uiso
C7_7 C 0.9902(4) 0.4426(4) 0.5761(12) 0.0024 Uiso
C1_8 C 0.4215(4) 0.4055(6) 0.7496(13) 0.0024 Uiso
C2_8 C 0.46075(34) 0.45631(52) 0.6337(13) 0.0023 Uiso
C3_8 C 0.4426(4) 0.4523(6) 0.4239(12) 0.0024 Uiso
C4_8 C 0.5145(4) 0.4984(6) 0.6917(13) 0.0025 Uiso
H1_8 H 0.5322(6) 0.4998(8) 0.8295(28) 0.0010 Uiso
C5_8 C 0.5785(4) 0.5945(6) 0.2504(13) 0.0024 Uiso
C6_8 C 0.53925(34) 0.54369(52) 0.3663(13) 0.0023 Uiso
C7_8 C 0.5574(4) 0.5477(6) 0.5761(12) 0.0024 Uiso
C8_8 C 0.4855(4) 0.5016(6) 0.3083(13) 0.0025 Uiso
H2_8 H 0.4678(6) 0.5002(8) 0.1705(28) 0.0010 Uiso
C1_9 C 0.5945(6) 0.0159(4) 0.7496(13) 0.0024 Uiso
C2_9 C 0.54369(52) 0.0044(4) 0.6337(13) 0.0023 Uiso
C4_9 C 0.5016(6) 0.0160(4) 0.6917(13) 0.0025 Uiso
H1_9 H 0.5002(8) 0.0323(6) 0.8295(28) 0.0010 Uiso
C7_9 C 0.4523(6) 0.0098(4) 0.5761(12) 0.0024 Uiso
C3_9 C 0.5477(6) 0.9902(4) 0.4239(12) 0.0024 Uiso
C5_9 C 0.4055(6) 0.9841(4) 0.2504(13) 0.0024 Uiso
C6_9 C 0.45631(52) 0.9956(4) 0.3663(13) 0.0023 Uiso
C8_9 C 0.4984(6) 0.9840(4) 0.3083(13) 0.0025 Uiso
H2_9 H 0.4998(8) 0.9677(6) 0.1705(28) 0.0010 Uiso
loop_
_geom_bond_atom_site_label_1
_geom_bond_atom_site_label_2
_geom_bond_site_symmetry_1
_geom_bond_site_symmetry_2
Fe1 O1 1_555 1_555
O1 C1 1_555 1_555
O2 C1 1_555 1_555
O3 Fe1 1_555 1_555
C1 C2 1_555 1_555
C2 C3 1_555 1_555
C3 O3 1_555 1_555
C4 C2 1_555 1_555
H1 C4 1_555 1_555
Fe3 O1 1_555 1_555
Fe5 O2 1_555 1_555
O5 Fe1 1_555 1_555
O11 Fe1 1_555 1_555
C6 C7 1_555 1_555
C7 C4 1_555 1_555
Fe3 O11 1_555 1_555
Fe8 O10 1_555 1_555
O10 C7 1_555 1_555
Fe8 O7 1_555 1_555
O4 C5 1_555 1_555
O7 C5 1_555 1_555
H2 C8 1_555 1_555
O6 Fe2 1_555 1_555
O9 Fe2 1_555 1_555
Fe6 O12 1_555 1_555
O6_2 Fe2_2 1_555 1_555
O9_2 Fe2_2 1_555 1_555
Fe6_2 O12_2 1_555 1_555
Fe1_2 O1_2 1_555 1_555
O1_2 C1_2 1_555 1_555
O2_2 C1_2 1_555 1_555
O3_2 Fe1_2 1_555 1_555
C1_2 C2_2 1_555 1_555
C2_2 C3_2 1_555 1_555
C3_2 O3_2 1_555 1_555
C4_2 C2_2 1_555 1_555
H1_2 C4_2 1_555 1_555
Fe5_2 O2_2 1_555 1_555
C6_2 C7_2 1_555 1_555
C7_2 C4_2 1_555 1_555
Fe8_2 O10_2 1_555 1_555
O10_2 C7_2 1_555 1_555
Fe8_2 O7_2 1_555 1_555
O4_2 C5_2 1_555 1_555
O7_2 C5_2 1_555 1_555
H2_2 C8_2 1_555 1_555
Fe3_2 O11_2 1_555 1_555
Fe3_3 O11_3 1_555 1_555
Fe1_3 O1_3 1_555 1_555
O1_3 C1_3 1_555 1_555
O2_3 C1_3 1_555 1_555
O3_3 Fe1_3 1_555 1_555
C1_3 C2_3 1_555 1_555
C2_3 C3_3 1_555 1_555
C3_3 O3_3 1_555 1_555
C4_3 C2_3 1_555 1_555
H1_3 C4_3 1_555 1_555
Fe5_3 O2_3 1_555 1_555
Fe8_3 O6_3 1_555 1_555
O6_3 Fe2_3 1_555 1_555
O9_3 Fe2_3 1_555 1_555
O10_3 Fe2_3 1_555 1_555
C6_3 C7_3 1_555 1_555
C7_3 C4_3 1_555 1_555
Fe8_3 O10_3 1_555 1_555
O10_3 C7_3 1_555 1_555
Fe6_3 O4_3 1_555 1_555
Fe8_3 O7_3 1_555 1_555
O4_3 C5_3 1_555 1_555
O7_3 C5_3 1_555 1_555
H2_3 C8_3 1_555 1_555
Fe6_3 O12_3 1_555 1_555
O5_4 Fe5_2 1_555 1_555
O5_2 C1_4 1_555 1_555
O2_4 C1_4 1_555 1_555
H1_4 C4_4 1_555 1_555
Fe3_2 O2_4 1_555 1_555
C2_4 C3_4 1_555 1_555
C3_4 O3_4 1_555 1_555
Fe6_3 O4_4 1_555 1_555
Fe3_2 O3_4 1_555 1_555
Fe8_3 O4_4 1_555 1_555
O4_4 C5_4 1_555 1_555
O9_3 C5_4 1_555 1_555
O12_4 Fe6_3 1_555 1_555
C5_4 C6_4 1_555 1_555
C6_4 C7_4 1_555 1_555
C8_4 C3_4 1_555 1_555
H2_4 C8_4 1_555 1_555
Fe8_3 O12_4 1_555 1_555
O12_3 C7_4 1_555 1_555
C6_4 C8_4 1_555 1_555
Fe8 O12_5 1_555 1_555
O5_3 C1_5 1_555 1_555
O2_5 C1_5 1_555 1_555
H1_5 C4_5 1_555 1_555
Fe3_3 O2_5 1_555 1_555
C2_5 C3_5 1_555 1_555
C3_5 O3_5 1_555 1_555
Fe6 O4_5 1_555 1_555
Fe3_3 O3_5 1_555 1_555
O4_5 C5_5 1_555 1_555
O9 C5_5 1_555 1_555
C5_5 C6_5 1_555 1_555
C6_5 C7_5 1_555 1_555
C8_5 C3_5 1_555 1_555
H2_5 C8_5 1_555 1_555
O12 C7_5 1_555 1_555
C6_5 C8_5 1_555 1_555
O5_5 Fe5_3 1_555 1_555
O5 C1_6 1_555 1_555
O2_6 C1_6 1_555 1_555
H1_6 C4_6 1_555 1_555
Fe3 O2_6 1_555 1_555
O3_6 Fe5 1_555 1_555
C2_6 C3_6 1_555 1_555
C3_6 O3_6 1_555 1_555
Fe6_2 O4_6 1_555 1_555
Fe3 O3_6 1_555 1_555
O4_6 C5_6 1_555 1_555
O5_6 Fe5 1_555 1_555
O9_2 C5_6 1_555 1_555
C5_6 C6_6 1_555 1_555
C6_6 C7_6 1_555 1_555
C8_6 C3_6 1_555 1_555
H2_6 C8_6 1_555 1_555
Fe3 O5_6 1_555 1_555
O12_2 C7_6 1_555 1_555
C6_6 C8_6 1_555 1_555
Fe8_2 O12_6 1_555 1_555
C3_7 O11_3 1_555 1_555
O6_2 C5_7 1_555 1_555
O9_6 C5_7 1_555 1_555
C5_7 C6_7 1_555 1_555
C8_7 C3_7 1_555 1_555
H2_7 C8_7 1_555 1_555
C6_7 C8_7 1_555 1_555
O5_5 C1_7 1_555 1_555
O8_3 C1_7 1_555 1_555
C1_7 C2_7 1_555 1_555
C4_7 C2_7 1_555 1_555
H1_7 C4_7 1_555 1_555
C7_7 C4_7 1_555 1_555
O12_6 C7_7 1_555 1_555
O5_6 C1_8 1_555 1_555
O8 C1_8 1_555 1_555
C1_8 C2_8 1_555 1_555
C2_8 C3_8 1_555 1_555
C3_8 O11 1_555 1_555
C4_8 C2_8 1_555 1_555
H1_8 C4_8 1_555 1_555
O6_3 C5_8 1_555 1_555
O9_4 C5_8 1_555 1_555
C5_8 C6_8 1_555 1_555
C6_8 C7_8 1_555 1_555
C7_8 C4_8 1_555 1_555
C8_8 C3_8 1_555 1_555
H2_8 C8_8 1_555 1_555
O12_4 C7_8 1_555 1_555
C6_8 C8_8 1_555 1_555
O5_4 C1_9 1_555 1_555
O8_2 C1_9 1_555 1_555
C1_9 C2_9 1_555 1_555
C4_9 C2_9 1_555 1_555
H1_9 C4_9 1_555 1_555
C7_9 C4_9 1_555 1_555
O12_5 C7_9 1_555 1_555
C3_9 O11_2 1_555 1_555
O6 C5_9 1_555 1_555
O9_5 C5_9 1_555 1_555
C5_9 C6_9 1_555 1_555
C8_9 C3_9 1_555 1_555
H2_9 C8_9 1_555 1_555
C6_9 C8_9 1_555 1_555

#END
