
###############################################################################
#
# This file contains modified crystal structure data generated from the
# MOF subset of the Cambridge Structural Database (CSD) v543 
# hosted by the Cambridge Crystallographic Data Centre (CCDC).
#
# This work is licensed under the Creative Commons
# Attribution-NonCommercial-ShareAlike 4.0 International License.
# To view a copy of this license, visit
# http://creativecommons.org/licenses/by-nc-sa/4.0/
# or send a letter to
# Creative Commons, PO Box 1866, Mountain View, CA 94042, USA.
#
# CIF created using the CSD Python API on 29 September 2022
# The structure has been converted into the P1 space group
# The structure has a 3D framework
# The original CSD entry SARMEE is in the tetragonal crystal system
# The framework has been calculated to contain at least 10.0% void space
# The void calculation uses a probe of radius 1.32A, grid spacing 0.4
# H atom positions have been added when not included in the experimental data
#
###############################################################################

data_SARMEE
_chemical_formula_moiety         '(C576 H352 Eu32 O220)n'
_symmetry_cell_setting           triclinic
_symmetry_space_group_name_H-M   'P 1'
_symmetry_Int_Tables_number      1
_space_group_name_Hall           'P 1'
loop_
_symmetry_equiv_pos_site_id
_symmetry_equiv_pos_as_xyz
1 x,y,z
_cell_length_a                   30.392(4)
_cell_length_b                   30.392(4)
_cell_length_c                   15.737(4)
_cell_angle_alpha                90
_cell_angle_beta                 90
_cell_angle_gamma                90
_cell_volume                     14535.9
loop_
_atom_site_label
_atom_site_type_symbol
_atom_site_fract_x
_atom_site_fract_y
_atom_site_fract_z
O16 O 0.46743(18) 0.24096(18) 0.0737(4)
O19 O 0.43560(19) 0.3332(2) 0.0185(4)
O22 O 0.52626(18) 0.30931(19) 0.0466(3)
Eu1 Eu 0.476399(12) 0.271040(12) 0.68268(2)
Eu2 Eu 0.472406(12) 0.277864(12) 0.93564(2)
O1 O 0.45406(17) 0.32001(17) 0.8099(4)
O2 O 0.41190(17) 0.31614(18) 0.6972(4)
O3 O 0.25904(18) 0.46743(18) 0.8237(4)
O4 O 0.30308(18) 0.4975(2) 0.9179(5)
O5 O 0.71083(18) 0.10866(18) 0.6998(4)
O6 O 0.6668(2) 0.06440(19) 0.7685(4)
O7 O 0.52454(18) 0.25560(19) 0.8046(4)
O8 O 0.54101(18) 0.23460(18) 0.9325(4)
O9 O 0.4319(2) 0.2314(2) 0.7760(5)
O10 O 0.4520(3) 0.2057(2) 0.8991(4)
O11 O 0.33498(17) 0.03020(17) 0.6692(4)
O12 O 0.30931(19) 0.02626(18) 0.7966(3)
C1 C 0.3911(3) 0.3690(3) 0.7987(5)
C2 C 0.3477(3) 0.3649(3) 0.7784(5)
H1 H 0.3380 0.3401 0.7491
C3 C 0.3176(3) 0.3979(3) 0.8014(5)
H2 H 0.2881 0.3947 0.7867
C4 C 0.3306(3) 0.4346(3) 0.8448(5)
C5 C 0.3758(3) 0.4393(3) 0.8708(6)
C6 C 0.3923(3) 0.4752(3) 0.9195(7)
H3 H 0.3728 0.4970 0.9370
C7 C 0.4348(3) 0.4787(3) 0.9413(9)
H4 H 0.4443 0.5023 0.9743
C8 C 0.4646(3) 0.4471(3) 0.9144(8)
H5 H 0.4942 0.4499 0.9289
C9 C 0.4513(3) 0.4124(3) 0.8675(6)
H6 H 0.4721 0.3920 0.8496
C10 C 0.4068(3) 0.4061(3) 0.8447(6)
C11 C 0.4208(3) 0.3335(3) 0.7667(5)
C12 C 0.2965(3) 0.4686(3) 0.8628(5)
C13 C 0.6473(3) 0.1405(3) 0.7729(6)
C14 C 0.6109(3) 0.1289(3) 0.8202(7)
H7 H 0.6070 0.0996 0.8353
C15 C 0.5799(3) 0.1598(3) 0.8462(6)
H8 H 0.5562 0.1509 0.8794
C16 C 0.5840(3) 0.2029(3) 0.8233(5)
C17 C 0.6196(3) 0.2169(3) 0.7741(6)
C18 C 0.6248(3) 0.2612(3) 0.7480(8)
H9 H 0.6037 0.2820 0.7629
C19 C 0.6601(4) 0.2736(4) 0.7017(9)
H10 H 0.6621 0.3027 0.6836
C20 C 0.6929(3) 0.2449(4) 0.6806(12)
H11 H 0.7178 0.2551 0.6521
C21 C 0.6894(3) 0.2003(3) 0.7017(7)
H12 H 0.7110 0.1806 0.6844
C22 C 0.6529(3) 0.1854(3) 0.7491(6)
C23 C 0.6770(3) 0.1035(3) 0.7459(6)
C24 C 0.5477(3) 0.2335(3) 0.8545(5)
C25 C 0.4111(3) 0.1590(3) 0.8084(6)
C26 C 0.3760(4) 0.1596(3) 0.7554(7)
H13 H 0.3686 0.1864 0.7311
C27 C 0.3500(3) 0.1232(3) 0.7342(7)
H14 H 0.3254 0.1264 0.6997
C28 C 0.3617(3) 0.0829(3) 0.7657(6)
C29 C 0.3998(3) 0.0789(3) 0.8208(6)
C30 C 0.4126(3) 0.0369(4) 0.8521(6)
H15 H 0.3967 0.0120 0.8368
C31 C 0.4477(3) 0.0330(4) 0.9041(8)
H16 H 0.4557 0.0054 0.9245
C32 C 0.4721(3) 0.0701(4) 0.9274(9)
H17 H 0.4957 0.0675 0.9648
C33 C 0.4607(4) 0.1109(3) 0.8937(7)
H18 H 0.4783 0.1350 0.9072
C34 C 0.4240(3) 0.1179(3) 0.8404(6)
C35 C 0.4340(3) 0.2006(3) 0.8292(7)
C36 C 0.3345(3) 0.0440(3) 0.7432(6)
O13 O 0.53125(17) 0.32824(17) 0.6791(4)
O14 O 0.4214(2) 0.2328(2) 0.5896(4)
Eu3 Eu 0.228960(12) 0.523601(12) 0.93268(2)
Eu4 Eu 0.271040(12) 0.023601(12) 0.93268(2)
Eu5 Eu 0.222136(12) 0.472406(12) 0.68564(2)
Eu6 Eu 0.722136(12) 0.027594(12) 0.68564(2)
O15 O 0.53257(18) 0.24096(18) 0.5737(4)
O17 O 0.5025(2) 0.19692(18) 0.6679(5)
O18 O 0.39134(18) 0.28917(18) 0.9498(4)
O20 O 0.53020(17) 0.33498(17) 0.9192(4)
O21 O 0.47374(18) 0.30931(19) 0.5466(3)
H19 H 0.547924 0.328254 0.733364
H20 H 0.551775 0.322846 0.631123
H21 H 0.401947 0.254977 0.562476
H22 H 0.437092 0.215874 0.544939
Eu7 Eu 0.277864(12) 0.972406(12) 0.68564(2)
Eu1_2 Eu 0.023601(12) 0.228960(12) 0.18268(2)
Eu2_2 Eu 0.027594(12) 0.222136(12) 0.43564(2)
O1_2 O 0.04594(17) 0.17999(17) 0.3099(4)
O2_2 O 0.08810(17) 0.18386(18) 0.1972(4)
O3_2 O 0.24096(18) 0.03257(18) 0.3237(4)
O4_2 O 0.19692(18) 0.0025(2) 0.4179(5)
O9_2 O 0.0681(2) 0.2686(2) 0.2760(5)
O10_2 O 0.0480(3) 0.2943(2) 0.3991(4)
O11_2 O 0.16502(17) 0.46980(17) 0.1692(4)
O12_2 O 0.19069(19) 0.47374(18) 0.2966(3)
C1_2 C 0.1089(3) 0.1310(3) 0.2987(5)
C2_2 C 0.1523(3) 0.1351(3) 0.2784(5)
H1_2 H 0.1620 0.1599 0.2491
C3_2 C 0.1824(3) 0.1021(3) 0.3014(5)
H2_2 H 0.2119 0.1053 0.2867
C4_2 C 0.1694(3) 0.0654(3) 0.3448(5)
C5_2 C 0.1242(3) 0.0607(3) 0.3708(6)
C6_2 C 0.1077(3) 0.0248(3) 0.4195(7)
H3_2 H 0.1272 0.0030 0.4370
C7_2 C 0.0652(3) 0.0213(3) 0.4413(9)
C8_2 C 0.0354(3) 0.0529(3) 0.4144(8)
H5_2 H 0.0058 0.0501 0.4289
C9_2 C 0.0487(3) 0.0876(3) 0.3675(6)
H6_2 H 0.0279 0.1080 0.3496
C10_2 C 0.0932(3) 0.0939(3) 0.3447(6)
C11_2 C 0.0792(3) 0.1665(3) 0.2667(5)
C12_2 C 0.2035(3) 0.0314(3) 0.3628(5)
C25_2 C 0.0889(3) 0.3410(3) 0.3084(6)
C26_2 C 0.1240(4) 0.3404(3) 0.2554(7)
H13_2 H 0.1314 0.3136 0.2311
C27_2 C 0.1500(3) 0.3768(3) 0.2342(7)
H14_2 H 0.1746 0.3736 0.1997
C28_2 C 0.1383(3) 0.4171(3) 0.2657(6)
C29_2 C 0.1002(3) 0.4211(3) 0.3208(6)
C30_2 C 0.0874(3) 0.4631(4) 0.3521(6)
H15_2 H 0.1033 0.4880 0.3368
C31_2 C 0.0523(3) 0.4670(4) 0.4041(8)
H16_2 H 0.0443 0.4946 0.4245
C32_2 C 0.0279(3) 0.4299(4) 0.4274(9)
H17_2 H 0.0043 0.4325 0.4648
C33_2 C 0.0393(4) 0.3891(3) 0.3937(7)
H18_2 H 0.0217 0.3650 0.4072
C34_2 C 0.0760(3) 0.3821(3) 0.3404(6)
C35_2 C 0.0660(3) 0.2994(3) 0.3292(7)
C36_2 C 0.1655(3) 0.4560(3) 0.2432(6)
O14_2 O 0.0786(2) 0.2672(2) 0.0896(4)
Eu4_2 Eu 0.228960(12) 0.476399(12) 0.43268(2)
Eu5_2 Eu 0.277864(12) 0.027594(12) 0.18564(2)
Eu7_2 Eu 0.222136(12) 0.527594(12) 0.18564(2)
O16_2 O 0.03257(18) 0.25904(18) 0.5737(4)
O18_2 O 0.10866(18) 0.21083(18) 0.4498(4)
O19_2 O 0.06440(19) 0.1668(2) 0.5185(4)
O21_2 O 0.02626(18) 0.19069(19) 0.0466(3)
H21_2 H 0.0980533 0.245023 0.0624759
H22_2 H 0.0629077 0.284126 0.0449387
H4_2 H 0.0557 0.9977 0.4743
Eu3_2 Eu 0.271040(12) 0.976399(12) 0.43268(2)
O5_2 O 0.78917(18) 0.39134(18) 0.1998(4)
O6_2 O 0.8332(2) 0.43560(19) 0.2685(4)
O7_2 O 0.97546(18) 0.24440(19) 0.3046(4)
O8_2 O 0.95899(18) 0.26540(18) 0.4325(4)
C13_2 C 0.8527(3) 0.3595(3) 0.2729(6)
C14_2 C 0.8891(3) 0.3711(3) 0.3202(7)
H7_2 H 0.8930 0.4004 0.3353
C15_2 C 0.9201(3) 0.3402(3) 0.3462(6)
H8_2 H 0.9438 0.3491 0.3794
C16_2 C 0.9160(3) 0.2971(3) 0.3233(5)
C17_2 C 0.8804(3) 0.2831(3) 0.2741(6)
C18_2 C 0.8752(3) 0.2388(3) 0.2480(8)
H9_2 H 0.8963 0.2180 0.2629
C19_2 C 0.8399(4) 0.2264(4) 0.2017(9)
H10_2 H 0.8379 0.1973 0.1836
C20_2 C 0.8071(3) 0.2551(4) 0.1806(12)
H11_2 H 0.7822 0.2449 0.1521
C21_2 C 0.8106(3) 0.2997(3) 0.2017(7)
H12_2 H 0.7890 0.3194 0.1844
C22_2 C 0.8471(3) 0.3146(3) 0.2491(6)
C23_2 C 0.8230(3) 0.3965(3) 0.2459(6)
C24_2 C 0.9523(3) 0.2665(3) 0.3545(5)
O13_2 O 0.96875(17) 0.17176(17) 0.1791(4)
Eu6_2 Eu 0.777864(12) 0.472406(12) 0.18564(2)
O15_2 O 0.96743(18) 0.25904(18) 0.0737(4)
O17_2 O 0.9975(2) 0.30308(18) 0.1679(5)
O20_2 O 0.96980(17) 0.16502(17) 0.4192(4)
O22_2 O 0.97374(18) 0.19069(19) 0.5466(3)
H19_2 H 0.952076 0.171746 0.233364
H20_2 H 0.948225 0.177154 0.131123
Eu7_3 Eu 0.027594(12) 0.777864(12) 0.93564(2)
O6_3 O 0.93560(19) 0.1668(2) 0.0185(4)
O7_3 O 0.74440(19) 0.02454(18) 0.0546(4)
O8_3 O 0.76540(18) 0.04101(18) 0.1825(4)
C13_3 C 0.8595(3) 0.1473(3) 0.0229(6)
C14_3 C 0.8711(3) 0.1109(3) 0.0702(7)
H7_3 H 0.9004 0.1070 0.0853
C15_3 C 0.8402(3) 0.0799(3) 0.0962(6)
H8_3 H 0.8491 0.0562 0.1294
C16_3 C 0.7971(3) 0.0840(3) 0.0733(5)
C17_3 C 0.7831(3) 0.1196(3) 0.0241(6)
H9_3 H 0.7180 0.1037 0.0129
C24_3 C 0.7665(3) 0.0477(3) 0.1045(5)
O20_3 O 0.66502(17) 0.03020(17) 0.1692(4)
O22_3 O 0.69069(19) 0.02626(18) 0.2966(3)
O5_3 O 0.89134(18) 0.21083(18) 0.9498(4)
C18_3 C 0.7388(3) 0.1248(3) 0.9980(8)
C19_3 C 0.7264(4) 0.1601(4) 0.9517(9)
H10_3 H 0.6973 0.1621 0.9336
C20_3 C 0.7551(4) 0.1929(3) 0.9306(12)
H11_3 H 0.7449 0.2178 0.9021
C21_3 C 0.7997(3) 0.1894(3) 0.9517(7)
H12_3 H 0.8194 0.2110 0.9344
C22_3 C 0.8146(3) 0.1529(3) 0.9991(6)
C23_3 C 0.8965(3) 0.1770(3) 0.9959(6)
O13_3 O 0.67176(17) 0.03125(17) 0.9291(4)
Eu6_3 Eu 0.972406(12) 0.222136(12) 0.93564(2)
O15_3 O 0.75904(18) 0.03257(18) 0.8237(4)
O17_3 O 0.80308(18) 0.0025(2) 0.9179(5)
H19_3 H 0.671746 0.0479245 0.983364
H20_3 H 0.677154 0.0517754 0.881123
Eu2_3 Eu 0.722136(12) 0.972406(12) 0.18564(2)
O1_3 O 0.67999(17) 0.95406(17) 0.0599(4)
O3_3 O 0.53257(18) 0.75904(18) 0.0737(4)
O4_3 O 0.5025(2) 0.80308(18) 0.1679(5)
O9_3 O 0.7686(2) 0.9319(2) 0.0260(5)
O10_3 O 0.7943(2) 0.9520(3) 0.1491(4)
O12_3 O 0.97374(18) 0.80931(19) 0.0466(3)
C1_3 C 0.6310(3) 0.8911(3) 0.0487(5)
C2_3 C 0.6351(3) 0.8477(3) 0.0284(5)
C3_3 C 0.6021(3) 0.8176(3) 0.0514(5)
H2_3 H 0.6053 0.7881 0.0367
C4_3 C 0.5654(3) 0.8306(3) 0.0948(5)
C5_3 C 0.5607(3) 0.8758(3) 0.1208(6)
C6_3 C 0.5248(3) 0.8923(3) 0.1695(7)
H3_3 H 0.5030 0.8728 0.1870
C7_3 C 0.5213(3) 0.9348(3) 0.1913(9)
H4_3 H 0.4977 0.9443 0.2243
C8_3 C 0.5529(3) 0.9646(3) 0.1644(8)
H5_3 H 0.5501 0.9942 0.1789
C9_3 C 0.5876(3) 0.9513(3) 0.1175(6)
H6_3 H 0.6080 0.9721 0.0996
C10_3 C 0.5939(3) 0.9068(3) 0.0947(6)
C11_3 C 0.6665(3) 0.9208(3) 0.0167(5)
C12_3 C 0.5314(3) 0.7965(3) 0.1128(5)
C25_3 C 0.8410(3) 0.9111(3) 0.0584(6)
C26_3 C 0.8404(3) 0.8760(4) 0.0054(7)
C28_3 C 0.9171(3) 0.8617(3) 0.0157(6)
C29_3 C 0.9211(3) 0.8998(3) 0.0708(6)
C30_3 C 0.9631(4) 0.9126(3) 0.1021(6)
H15_3 H 0.9880 0.8967 0.0868
C31_3 C 0.9670(4) 0.9477(3) 0.1541(8)
H16_3 H 0.9946 0.9557 0.1745
C32_3 C 0.9299(4) 0.9721(3) 0.1774(9)
H17_3 H 0.9325 0.9957 0.2148
C33_3 C 0.8891(3) 0.9607(4) 0.1437(7)
H18_3 H 0.8650 0.9783 0.1572
C34_3 C 0.8821(3) 0.9240(3) 0.0904(6)
C35_3 C 0.7994(3) 0.9340(3) 0.0792(7)
Eu3_3 Eu 0.476399(12) 0.728960(12) 0.18268(2)
Eu4_3 Eu 0.976399(12) 0.771040(12) 0.18268(2)
O16_3 O 0.75904(18) 0.96743(18) 0.3237(4)
O18_3 O 0.71083(18) 0.89134(18) 0.1998(4)
O19_3 O 0.6668(2) 0.93560(19) 0.2685(4)
Eu1_3 Eu 0.728960(12) 0.976399(12) 0.93268(2)
O2_3 O 0.68386(18) 0.91190(17) 0.9472(4)
O11_3 O 0.96980(17) 0.83498(17) 0.9192(4)
H1_3 H 0.6599 0.8380 0.9991
H13_3 H 0.8136 0.8686 0.9811
C27_3 C 0.8768(3) 0.8500(3) 0.9842(7)
H14_3 H 0.8736 0.8254 0.9497
C36_3 C 0.9560(3) 0.8345(3) 0.9932(6)
O14_3 O 0.7672(2) 0.9214(2) 0.8396(4)
Eu5_3 Eu 0.527594(12) 0.722136(12) 0.93564(2)
O21_3 O 0.69069(19) 0.97374(18) 0.7966(3)
H21_3 H 0.745023 0.901947 0.812476
H22_3 H 0.784126 0.937092 0.794939
H4_4 H 0.0023 0.5557 0.7243
Eu3_4 Eu 0.023601(12) 0.771040(12) 0.68268(2)
Eu1_4 Eu 0.771040(12) 0.523601(12) 0.43268(2)
Eu2_4 Eu 0.777864(12) 0.527594(12) 0.68564(2)
O1_4 O 0.82001(17) 0.54594(17) 0.5599(4)
O2_4 O 0.81614(18) 0.58810(17) 0.4472(4)
O3_4 O 0.96743(18) 0.74096(18) 0.5737(4)
O4_4 O 0.9975(2) 0.69692(18) 0.6679(5)
O5_4 O 0.60866(18) 0.28917(18) 0.4498(4)
O6_4 O 0.56440(19) 0.3332(2) 0.5185(4)
O7_4 O 0.75560(19) 0.47546(18) 0.5546(4)
O8_4 O 0.73460(18) 0.45899(18) 0.6825(4)
O9_4 O 0.7314(2) 0.5681(2) 0.5260(5)
O10_4 O 0.7057(2) 0.5480(3) 0.6491(4)
O11_4 O 0.53020(17) 0.66502(17) 0.4192(4)
O12_4 O 0.52626(18) 0.69069(19) 0.5466(3)
C1_4 C 0.8690(3) 0.6089(3) 0.5487(5)
C2_4 C 0.8649(3) 0.6523(3) 0.5284(5)
H1_4 H 0.8401 0.6620 0.4991
C3_4 C 0.8979(3) 0.6824(3) 0.5514(5)
H2_4 H 0.8947 0.7119 0.5367
C4_4 C 0.9346(3) 0.6694(3) 0.5948(5)
C5_4 C 0.9393(3) 0.6242(3) 0.6208(6)
C6_4 C 0.9752(3) 0.6077(3) 0.6695(7)
H3_4 H 0.9970 0.6272 0.6870
C7_4 C 0.9787(3) 0.5652(3) 0.6913(9)
C8_4 C 0.9471(3) 0.5354(3) 0.6644(8)
H5_4 H 0.9499 0.5058 0.6789
C9_4 C 0.9124(3) 0.5487(3) 0.6175(6)
H6_4 H 0.8920 0.5279 0.5996
C10_4 C 0.9061(3) 0.5932(3) 0.5947(6)
C11_4 C 0.8335(3) 0.5792(3) 0.5167(5)
C12_4 C 0.9686(3) 0.7035(3) 0.6128(5)
C13_4 C 0.6405(3) 0.3527(3) 0.5229(6)
C14_4 C 0.6289(3) 0.3891(3) 0.5702(7)
H7_4 H 0.5996 0.3930 0.5853
C15_4 C 0.6598(3) 0.4201(3) 0.5962(6)
H8_4 H 0.6509 0.4438 0.6294
C16_4 C 0.7029(3) 0.4160(3) 0.5733(5)
C17_4 C 0.7169(3) 0.3804(3) 0.5241(6)
C18_4 C 0.7612(3) 0.3752(3) 0.4980(8)
H9_4 H 0.7820 0.3963 0.5129
C19_4 C 0.7736(4) 0.3399(4) 0.4517(9)
H10_4 H 0.8027 0.3379 0.4336
C20_4 C 0.7449(4) 0.3071(3) 0.4306(12)
H11_4 H 0.7551 0.2822 0.4021
C21_4 C 0.7003(3) 0.3106(3) 0.4517(7)
H12_4 H 0.6806 0.2890 0.4344
C22_4 C 0.6854(3) 0.3471(3) 0.4991(6)
C23_4 C 0.6035(3) 0.3230(3) 0.4959(6)
C24_4 C 0.7335(3) 0.4523(3) 0.6045(5)
C25_4 C 0.6590(3) 0.5889(3) 0.5584(6)
C26_4 C 0.6596(3) 0.6240(4) 0.5054(7)
H13_4 H 0.6864 0.6314 0.4811
C27_4 C 0.6232(3) 0.6500(3) 0.4842(7)
H14_4 H 0.6264 0.6746 0.4497
C28_4 C 0.5829(3) 0.6383(3) 0.5157(6)
C29_4 C 0.5789(3) 0.6002(3) 0.5708(6)
C30_4 C 0.5369(4) 0.5874(3) 0.6021(6)
H15_4 H 0.5120 0.6033 0.5868
C31_4 C 0.5330(4) 0.5523(3) 0.6541(8)
H16_4 H 0.5054 0.5443 0.6745
C32_4 C 0.5701(4) 0.5279(3) 0.6774(9)
H17_4 H 0.5675 0.5043 0.7148
C33_4 C 0.6109(3) 0.5393(4) 0.6437(7)
H18_4 H 0.6350 0.5217 0.6572
C34_4 C 0.6179(3) 0.5760(3) 0.5904(6)
C35_4 C 0.7006(3) 0.5660(3) 0.5792(7)
C36_4 C 0.5440(3) 0.6655(3) 0.4932(6)
O13_4 O 0.82824(17) 0.46875(17) 0.4291(4)
O14_4 O 0.7328(2) 0.5786(2) 0.3396(4)
Eu4_4 Eu 0.523601(12) 0.728960(12) 0.68268(2)
Eu5_4 Eu 0.972406(12) 0.777864(12) 0.43564(2)
Eu6_4 Eu 0.527594(12) 0.277864(12) 0.43564(2)
Eu7_4 Eu 0.472406(12) 0.722136(12) 0.43564(2)
O15_4 O 0.74096(18) 0.46743(18) 0.3237(4)
O16_4 O 0.74096(18) 0.53257(18) 0.8237(4)
O17_4 O 0.69692(18) 0.4975(2) 0.4179(5)
O18_4 O 0.78917(18) 0.60866(18) 0.6998(4)
O19_4 O 0.8332(2) 0.56440(19) 0.7685(4)
O20_4 O 0.83498(17) 0.46980(17) 0.6692(4)
O21_4 O 0.80931(19) 0.52626(18) 0.2966(3)
O22_4 O 0.80931(19) 0.47374(18) 0.7966(3)
H19_4 H 0.828254 0.452076 0.483364
H20_4 H 0.822846 0.448225 0.381123
H21_4 H 0.754977 0.598053 0.312476
H22_4 H 0.715874 0.562908 0.294939
O1_5 O 0.45406(17) 0.67999(17) 0.3099(4)
O2_5 O 0.41190(17) 0.68386(18) 0.1972(4)
O3_5 O 0.25904(18) 0.53257(18) 0.3237(4)
O4_5 O 0.30308(18) 0.5025(2) 0.4179(5)
O7_5 O 0.52454(18) 0.74440(19) 0.3046(4)
O8_5 O 0.54101(18) 0.76540(18) 0.4325(4)
O9_5 O 0.4319(2) 0.7686(2) 0.2760(5)
O10_5 O 0.4520(3) 0.7943(2) 0.3991(4)
O11_5 O 0.33498(17) 0.96980(17) 0.1692(4)
O12_5 O 0.30931(19) 0.97374(18) 0.2966(3)
C1_5 C 0.3911(3) 0.6310(3) 0.2987(5)
C2_5 C 0.3477(3) 0.6351(3) 0.2784(5)
H1_5 H 0.3380 0.6599 0.2491
C3_5 C 0.3176(3) 0.6021(3) 0.3014(5)
H2_5 H 0.2881 0.6053 0.2867
C4_5 C 0.3306(3) 0.5654(3) 0.3448(5)
C5_5 C 0.3758(3) 0.5607(3) 0.3708(6)
C6_5 C 0.3923(3) 0.5248(3) 0.4195(7)
H3_5 H 0.3728 0.5030 0.4370
C7_5 C 0.4348(3) 0.5213(3) 0.4413(9)
H4_5 H 0.4443 0.4977 0.4743
C8_5 C 0.4646(3) 0.5529(3) 0.4144(8)
H5_5 H 0.4942 0.5501 0.4289
C9_5 C 0.4513(3) 0.5876(3) 0.3675(6)
H6_5 H 0.4721 0.6080 0.3496
C10_5 C 0.4068(3) 0.5939(3) 0.3447(6)
C11_5 C 0.4208(3) 0.6665(3) 0.2667(5)
C12_5 C 0.2965(3) 0.5314(3) 0.3628(5)
C13_5 C 0.6473(3) 0.8595(3) 0.2729(6)
C14_5 C 0.6109(3) 0.8711(3) 0.3202(7)
H7_5 H 0.6070 0.9004 0.3353
C15_5 C 0.5799(3) 0.8402(3) 0.3462(6)
H8_5 H 0.5562 0.8491 0.3794
C16_5 C 0.5840(3) 0.7971(3) 0.3233(5)
C17_5 C 0.6196(3) 0.7831(3) 0.2741(6)
C18_5 C 0.6248(3) 0.7388(3) 0.2480(8)
H9_5 H 0.6037 0.7180 0.2629
C19_5 C 0.6601(4) 0.7264(4) 0.2017(9)
H10_5 H 0.6621 0.6973 0.1836
C20_5 C 0.6929(3) 0.7551(4) 0.1806(12)
H11_5 H 0.7178 0.7449 0.1521
C21_5 C 0.6894(3) 0.7997(3) 0.2017(7)
H12_5 H 0.7110 0.8194 0.1844
C22_5 C 0.6529(3) 0.8146(3) 0.2491(6)
C23_5 C 0.6770(3) 0.8965(3) 0.2459(6)
C24_5 C 0.5477(3) 0.7665(3) 0.3545(5)
C25_5 C 0.4111(3) 0.8410(3) 0.3084(6)
C26_5 C 0.3760(4) 0.8404(3) 0.2554(7)
H13_5 H 0.3686 0.8136 0.2311
C27_5 C 0.3500(3) 0.8768(3) 0.2342(7)
H14_5 H 0.3254 0.8736 0.1997
C28_5 C 0.3617(3) 0.9171(3) 0.2657(6)
C29_5 C 0.3998(3) 0.9211(3) 0.3208(6)
C30_5 C 0.4126(3) 0.9631(4) 0.3521(6)
H15_5 H 0.3967 0.9880 0.3368
C31_5 C 0.4477(3) 0.9670(4) 0.4041(8)
H16_5 H 0.4557 0.9946 0.4245
C32_5 C 0.4721(3) 0.9299(4) 0.4274(9)
H17_5 H 0.4957 0.9325 0.4648
C33_5 C 0.4607(4) 0.8891(3) 0.3937(7)
H18_5 H 0.4783 0.8650 0.4072
C34_5 C 0.4240(3) 0.8821(3) 0.3404(6)
C35_5 C 0.4340(3) 0.7994(3) 0.3292(7)
C36_5 C 0.3345(3) 0.9560(3) 0.2432(6)
O13_5 O 0.53125(17) 0.67176(17) 0.1791(4)
O14_5 O 0.4214(2) 0.7672(2) 0.0896(4)
O16_5 O 0.46743(18) 0.75904(18) 0.5737(4)
O18_5 O 0.39134(18) 0.71083(18) 0.4498(4)
O19_5 O 0.43560(19) 0.6668(2) 0.5185(4)
O21_5 O 0.47374(18) 0.69069(19) 0.0466(3)
H19_5 H 0.547924 0.671746 0.233364
H20_5 H 0.551775 0.677154 0.131123
H21_5 H 0.401947 0.745023 0.0624759
H22_5 H 0.437092 0.784126 0.0449387
H4_6 H 0.0557 0.0023 0.9743
O16_6 O 0.03257(18) 0.74096(18) 0.0737(4)
O19_6 O 0.06440(19) 0.8332(2) 0.0185(4)
O1_6 O 0.04594(17) 0.82001(17) 0.8099(4)
O2_6 O 0.08810(17) 0.81614(18) 0.6972(4)
O3_6 O 0.24096(18) 0.96743(18) 0.8237(4)
O4_6 O 0.19692(18) 0.9975(2) 0.9179(5)
O9_6 O 0.0681(2) 0.7314(2) 0.7760(5)
O10_6 O 0.0480(3) 0.7057(2) 0.8991(4)
O11_6 O 0.16502(17) 0.53020(17) 0.6692(4)
O12_6 O 0.19069(19) 0.52626(18) 0.7966(3)
C1_6 C 0.1089(3) 0.8690(3) 0.7987(5)
C2_6 C 0.1523(3) 0.8649(3) 0.7784(5)
H1_6 H 0.1620 0.8401 0.7491
C3_6 C 0.1824(3) 0.8979(3) 0.8014(5)
H2_6 H 0.2119 0.8947 0.7867
C4_6 C 0.1694(3) 0.9346(3) 0.8448(5)
C5_6 C 0.1242(3) 0.9393(3) 0.8708(6)
C6_6 C 0.1077(3) 0.9752(3) 0.9195(7)
H3_6 H 0.1272 0.9970 0.9370
C7_6 C 0.0652(3) 0.9787(3) 0.9413(9)
C8_6 C 0.0354(3) 0.9471(3) 0.9144(8)
H5_6 H 0.0058 0.9499 0.9289
C9_6 C 0.0487(3) 0.9124(3) 0.8675(6)
H6_6 H 0.0279 0.8920 0.8496
C10_6 C 0.0932(3) 0.9061(3) 0.8447(6)
C11_6 C 0.0792(3) 0.8335(3) 0.7667(5)
C12_6 C 0.2035(3) 0.9686(3) 0.8628(5)
C25_6 C 0.0889(3) 0.6590(3) 0.8084(6)
C26_6 C 0.1240(4) 0.6596(3) 0.7554(7)
H13_6 H 0.1314 0.6864 0.7311
C27_6 C 0.1500(3) 0.6232(3) 0.7342(7)
H14_6 H 0.1746 0.6264 0.6997
C28_6 C 0.1383(3) 0.5829(3) 0.7657(6)
C29_6 C 0.1002(3) 0.5789(3) 0.8208(6)
C30_6 C 0.0874(3) 0.5369(4) 0.8521(6)
H15_6 H 0.1033 0.5120 0.8368
C31_6 C 0.0523(3) 0.5330(4) 0.9041(8)
H16_6 H 0.0443 0.5054 0.9245
C32_6 C 0.0279(3) 0.5701(4) 0.9274(9)
H17_6 H 0.0043 0.5675 0.9648
C33_6 C 0.0393(4) 0.6109(3) 0.8937(7)
H18_6 H 0.0217 0.6350 0.9072
C34_6 C 0.0760(3) 0.6179(3) 0.8404(6)
C35_6 C 0.0660(3) 0.7006(3) 0.8292(7)
C36_6 C 0.1655(3) 0.5440(3) 0.7432(6)
O14_6 O 0.0786(2) 0.7328(2) 0.5896(4)
O18_6 O 0.10866(18) 0.78917(18) 0.9498(4)
O21_6 O 0.02626(18) 0.80931(19) 0.5466(3)
H21_6 H 0.0980533 0.754977 0.562476
H22_6 H 0.0629077 0.715874 0.544939
O7_6 O 0.97546(18) 0.75560(19) 0.8046(4)
O8_6 O 0.95899(18) 0.73460(18) 0.9325(4)
C13_6 C 0.8527(3) 0.6405(3) 0.7729(6)
C14_6 C 0.8891(3) 0.6289(3) 0.8202(7)
H7_6 H 0.8930 0.5996 0.8353
C15_6 C 0.9201(3) 0.6598(3) 0.8462(6)
H8_6 H 0.9438 0.6509 0.8794
C16_6 C 0.9160(3) 0.7029(3) 0.8233(5)
C17_6 C 0.8804(3) 0.7169(3) 0.7741(6)
C18_6 C 0.8752(3) 0.7612(3) 0.7480(8)
H9_6 H 0.8963 0.7820 0.7629
C19_6 C 0.8399(4) 0.7736(4) 0.7017(9)
H10_6 H 0.8379 0.8027 0.6836
C20_6 C 0.8071(3) 0.7449(4) 0.6806(12)
H11_6 H 0.7822 0.7551 0.6521
C21_6 C 0.8106(3) 0.7003(3) 0.7017(7)
H12_6 H 0.7890 0.6806 0.6844
C22_6 C 0.8471(3) 0.6854(3) 0.7491(6)
C23_6 C 0.8230(3) 0.6035(3) 0.7459(6)
C24_6 C 0.9523(3) 0.7335(3) 0.8545(5)
O13_6 O 0.96875(17) 0.82824(17) 0.6791(4)
H19_6 H 0.952076 0.828254 0.733364
H20_6 H 0.948225 0.822846 0.631123
Eu1_5 Eu 0.728960(12) 0.023601(12) 0.43268(2)
O1_7 O 0.67999(17) 0.04594(17) 0.5599(4)
O2_7 O 0.68386(18) 0.08810(17) 0.4472(4)
O9_7 O 0.7686(2) 0.0681(2) 0.5260(5)
O10_7 O 0.7943(2) 0.0480(3) 0.6491(4)
C1_7 C 0.6310(3) 0.1089(3) 0.5487(5)
C2_7 C 0.6351(3) 0.1523(3) 0.5284(5)
H1_7 H 0.6599 0.1620 0.4991
C3_7 C 0.6021(3) 0.1824(3) 0.5514(5)
H2_7 H 0.6053 0.2119 0.5367
C4_7 C 0.5654(3) 0.1694(3) 0.5948(5)
C5_7 C 0.5607(3) 0.1242(3) 0.6208(6)
C6_7 C 0.5248(3) 0.1077(3) 0.6695(7)
H3_7 H 0.5030 0.1272 0.6870
C7_7 C 0.5213(3) 0.0652(3) 0.6913(9)
H4_7 H 0.4977 0.0557 0.7243
C8_7 C 0.5529(3) 0.0354(3) 0.6644(8)
H5_7 H 0.5501 0.0058 0.6789
C9_7 C 0.5876(3) 0.0487(3) 0.6175(6)
H6_7 H 0.6080 0.0279 0.5996
C10_7 C 0.5939(3) 0.0932(3) 0.5947(6)
C11_7 C 0.6665(3) 0.0792(3) 0.5167(5)
C12_7 C 0.5314(3) 0.2035(3) 0.6128(5)
C25_7 C 0.8410(3) 0.0889(3) 0.5584(6)
C26_7 C 0.8404(3) 0.1240(4) 0.5054(7)
H13_7 H 0.8136 0.1314 0.4811
C27_7 C 0.8768(3) 0.1500(3) 0.4842(7)
H14_7 H 0.8736 0.1746 0.4497
C28_7 C 0.9171(3) 0.1383(3) 0.5157(6)
C29_7 C 0.9211(3) 0.1002(3) 0.5708(6)
C30_7 C 0.9631(4) 0.0874(3) 0.6021(6)
H15_7 H 0.9880 0.1033 0.5868
C31_7 C 0.9670(4) 0.0523(3) 0.6541(8)
H16_7 H 0.9946 0.0443 0.6745
C32_7 C 0.9299(4) 0.0279(3) 0.6774(9)
H17_7 H 0.9325 0.0043 0.7148
C33_7 C 0.8891(3) 0.0393(4) 0.6437(7)
H18_7 H 0.8650 0.0217 0.6572
C34_7 C 0.8821(3) 0.0760(3) 0.5904(6)
C35_7 C 0.7994(3) 0.0660(3) 0.5792(7)
C36_7 C 0.9560(3) 0.1655(3) 0.4932(6)
O14_7 O 0.7672(2) 0.0786(2) 0.3396(4)
Eu4_5 Eu 0.976399(12) 0.228960(12) 0.68268(2)
H21_7 H 0.745023 0.0980533 0.312476
H22_7 H 0.784126 0.0629077 0.294939
O5_5 O 0.89134(18) 0.78917(18) 0.4498(4)
O6_5 O 0.93560(19) 0.8332(2) 0.5185(4)
O7_7 O 0.74440(19) 0.97546(18) 0.5546(4)
O8_7 O 0.76540(18) 0.95899(18) 0.6825(4)
C13_7 C 0.8595(3) 0.8527(3) 0.5229(6)
C14_7 C 0.8711(3) 0.8891(3) 0.5702(7)
H7_7 H 0.9004 0.8930 0.5853
C15_7 C 0.8402(3) 0.9201(3) 0.5962(6)
H8_7 H 0.8491 0.9438 0.6294
C16_7 C 0.7971(3) 0.9160(3) 0.5733(5)
C17_7 C 0.7831(3) 0.8804(3) 0.5241(6)
C18_7 C 0.7388(3) 0.8752(3) 0.4980(8)
H9_7 H 0.7180 0.8963 0.5129
C19_7 C 0.7264(4) 0.8399(4) 0.4517(9)
H10_7 H 0.6973 0.8379 0.4336
C20_7 C 0.7551(4) 0.8071(3) 0.4306(12)
H11_7 H 0.7449 0.7822 0.4021
C21_7 C 0.7997(3) 0.8106(3) 0.4517(7)
H12_7 H 0.8194 0.7890 0.4344
C22_7 C 0.8146(3) 0.8471(3) 0.4991(6)
C23_7 C 0.8965(3) 0.8230(3) 0.4959(6)
C24_7 C 0.7665(3) 0.9523(3) 0.6045(5)
O13_7 O 0.67176(17) 0.96875(17) 0.4291(4)
O17_5 O 0.80308(18) 0.9975(2) 0.4179(5)
O20_5 O 0.66502(17) 0.96980(17) 0.6692(4)
H19_7 H 0.671746 0.952076 0.483364
H20_7 H 0.677154 0.948225 0.381123
H4_8 H 0.0023 0.4443 0.2243
O1_8 O 0.82001(17) 0.45406(17) 0.0599(4)
O6_6 O 0.56440(19) 0.6668(2) 0.0185(4)
O7_8 O 0.75560(19) 0.52454(18) 0.0546(4)
O8_8 O 0.73460(18) 0.54101(18) 0.1825(4)
O9_8 O 0.7314(2) 0.4319(2) 0.0260(5)
O10_8 O 0.7057(2) 0.4520(3) 0.1491(4)
C1_8 C 0.8690(3) 0.3911(3) 0.0487(5)
C2_8 C 0.8649(3) 0.3477(3) 0.0284(5)
C3_8 C 0.8979(3) 0.3176(3) 0.0514(5)
H2_8 H 0.8947 0.2881 0.0367
C4_8 C 0.9346(3) 0.3306(3) 0.0948(5)
C5_8 C 0.9393(3) 0.3758(3) 0.1208(6)
C6_8 C 0.9752(3) 0.3923(3) 0.1695(7)
H3_8 H 0.9970 0.3728 0.1870
C7_8 C 0.9787(3) 0.4348(3) 0.1913(9)
C8_8 C 0.9471(3) 0.4646(3) 0.1644(8)
H5_8 H 0.9499 0.4942 0.1789
C9_8 C 0.9124(3) 0.4513(3) 0.1175(6)
H6_8 H 0.8920 0.4721 0.0996
C10_8 C 0.9061(3) 0.4068(3) 0.0947(6)
C11_8 C 0.8335(3) 0.4208(3) 0.0167(5)
C12_8 C 0.9686(3) 0.2965(3) 0.1128(5)
C13_8 C 0.6405(3) 0.6473(3) 0.0229(6)
C14_8 C 0.6289(3) 0.6109(3) 0.0702(7)
H7_8 H 0.5996 0.6070 0.0853
C15_8 C 0.6598(3) 0.5799(3) 0.0962(6)
H8_8 H 0.6509 0.5562 0.1294
C16_8 C 0.7029(3) 0.5840(3) 0.0733(5)
C17_8 C 0.7169(3) 0.6196(3) 0.0241(6)
H9_8 H 0.7820 0.6037 0.0129
C24_8 C 0.7335(3) 0.5477(3) 0.1045(5)
C25_8 C 0.6590(3) 0.4111(3) 0.0584(6)
C26_8 C 0.6596(3) 0.3760(4) 0.0054(7)
C28_8 C 0.5829(3) 0.3617(3) 0.0157(6)
C29_8 C 0.5789(3) 0.3998(3) 0.0708(6)
C30_8 C 0.5369(4) 0.4126(3) 0.1021(6)
H15_8 H 0.5120 0.3967 0.0868
C31_8 C 0.5330(4) 0.4477(3) 0.1541(8)
H16_8 H 0.5054 0.4557 0.1745
C32_8 C 0.5701(4) 0.4721(3) 0.1774(9)
H17_8 H 0.5675 0.4957 0.2148
C33_8 C 0.6109(3) 0.4607(4) 0.1437(7)
H18_8 H 0.6350 0.4783 0.1572
C34_8 C 0.6179(3) 0.4240(3) 0.0904(6)
C35_8 C 0.7006(3) 0.4340(3) 0.0792(7)
Eu4_6 Eu 0.523601(12) 0.271040(12) 0.18268(2)
O20_6 O 0.83498(17) 0.53020(17) 0.1692(4)
Eu1_6 Eu 0.771040(12) 0.476399(12) 0.93268(2)
O2_8 O 0.81614(18) 0.41190(17) 0.9472(4)
O5_6 O 0.60866(18) 0.71083(18) 0.9498(4)
H1_8 H 0.8401 0.3380 0.9991
C18_8 C 0.7612(3) 0.6248(3) 0.9980(8)
C19_8 C 0.7736(4) 0.6601(4) 0.9517(9)
H10_8 H 0.8027 0.6621 0.9336
C20_8 C 0.7449(4) 0.6929(3) 0.9306(12)
H11_8 H 0.7551 0.7178 0.9021
C21_8 C 0.7003(3) 0.6894(3) 0.9517(7)
H12_8 H 0.6806 0.7110 0.9344
C22_8 C 0.6854(3) 0.6529(3) 0.9991(6)
C23_8 C 0.6035(3) 0.6770(3) 0.9959(6)
H13_8 H 0.6864 0.3686 0.9811
C27_8 C 0.6232(3) 0.3500(3) 0.9842(7)
H14_8 H 0.6264 0.3254 0.9497
C36_8 C 0.5440(3) 0.3345(3) 0.9932(6)
O13_8 O 0.82824(17) 0.53125(17) 0.9291(4)
O14_8 O 0.7328(2) 0.4214(2) 0.8396(4)
O17_6 O 0.69692(18) 0.5025(2) 0.9179(5)
H19_8 H 0.828254 0.547924 0.983364
H20_8 H 0.822846 0.551775 0.881123
H21_8 H 0.754977 0.401947 0.812476
H22_8 H 0.715874 0.437092 0.794939
O5_7 O 0.21083(18) 0.60866(18) 0.1998(4)
O6_7 O 0.1668(2) 0.56440(19) 0.2685(4)
O7_9 O 0.02454(18) 0.75560(19) 0.3046(4)
O8_9 O 0.04101(18) 0.73460(18) 0.4325(4)
C13_9 C 0.1473(3) 0.6405(3) 0.2729(6)
C14_9 C 0.1109(3) 0.6289(3) 0.3202(7)
H7_9 H 0.1070 0.5996 0.3353
C15_9 C 0.0799(3) 0.6598(3) 0.3462(6)
H8_9 H 0.0562 0.6509 0.3794
C16_9 C 0.0840(3) 0.7029(3) 0.3233(5)
C17_9 C 0.1196(3) 0.7169(3) 0.2741(6)
C18_9 C 0.1248(3) 0.7612(3) 0.2480(8)
H9_9 H 0.1037 0.7820 0.2629
C19_9 C 0.1601(4) 0.7736(4) 0.2017(9)
H10_9 H 0.1621 0.8027 0.1836
C20_9 C 0.1929(3) 0.7449(4) 0.1806(12)
H11_9 H 0.2178 0.7551 0.1521
C21_9 C 0.1894(3) 0.7003(3) 0.2017(7)
H12_9 H 0.2110 0.6806 0.1844
C22_9 C 0.1529(3) 0.6854(3) 0.2491(6)
C23_9 C 0.1770(3) 0.6035(3) 0.2459(6)
C24_9 C 0.0477(3) 0.7335(3) 0.3545(5)
O13_9 O 0.03125(17) 0.82824(17) 0.1791(4)
O17_7 O 0.0025(2) 0.69692(18) 0.1679(5)
O20_7 O 0.03020(17) 0.83498(17) 0.4192(4)
H19_9 H 0.0479245 0.828254 0.233364
H20_9 H 0.0517754 0.822846 0.131123
H4_9 H 0.9443 0.0023 0.4743
O1_9 O 0.95406(17) 0.82001(17) 0.3099(4)
O2_9 O 0.91190(17) 0.81614(18) 0.1972(4)
O9_9 O 0.9319(2) 0.7314(2) 0.2760(5)
O10_9 O 0.9520(3) 0.7057(2) 0.3991(4)
C1_9 C 0.8911(3) 0.8690(3) 0.2987(5)
C2_9 C 0.8477(3) 0.8649(3) 0.2784(5)
H1_9 H 0.8380 0.8401 0.2491
C3_9 C 0.8176(3) 0.8979(3) 0.3014(5)
H2_9 H 0.7881 0.8947 0.2867
C4_9 C 0.8306(3) 0.9346(3) 0.3448(5)
C5_9 C 0.8758(3) 0.9393(3) 0.3708(6)
C6_9 C 0.8923(3) 0.9752(3) 0.4195(7)
H3_9 H 0.8728 0.9970 0.4370
C7_9 C 0.9348(3) 0.9787(3) 0.4413(9)
C8_9 C 0.9646(3) 0.9471(3) 0.4144(8)
H5_9 H 0.9942 0.9499 0.4289
C9_9 C 0.9513(3) 0.9124(3) 0.3675(6)
H6_9 H 0.9721 0.8920 0.3496
C10_9 C 0.9068(3) 0.9061(3) 0.3447(6)
C11_9 C 0.9208(3) 0.8335(3) 0.2667(5)
C12_9 C 0.7965(3) 0.9686(3) 0.3628(5)
C25_9 C 0.9111(3) 0.6590(3) 0.3084(6)
C26_9 C 0.8760(4) 0.6596(3) 0.2554(7)
H13_9 H 0.8686 0.6864 0.2311
C27_9 C 0.8500(3) 0.6232(3) 0.2342(7)
H14_9 H 0.8254 0.6264 0.1997
C28_9 C 0.8617(3) 0.5829(3) 0.2657(6)
C29_9 C 0.8998(3) 0.5789(3) 0.3208(6)
C30_9 C 0.9126(3) 0.5369(4) 0.3521(6)
H15_9 H 0.8967 0.5120 0.3368
C31_9 C 0.9477(3) 0.5330(4) 0.4041(8)
H16_9 H 0.9557 0.5054 0.4245
C32_9 C 0.9721(3) 0.5701(4) 0.4274(9)
H17_9 H 0.9957 0.5675 0.4648
C33_9 C 0.9607(4) 0.6109(3) 0.3937(7)
H18_9 H 0.9783 0.6350 0.4072
C34_9 C 0.9240(3) 0.6179(3) 0.3404(6)
C35_9 C 0.9340(3) 0.7006(3) 0.3292(7)
C36_9 C 0.8345(3) 0.5440(3) 0.2432(6)
O14_9 O 0.9214(2) 0.7328(2) 0.0896(4)
H21_9 H 0.901947 0.754977 0.0624759
H22_9 H 0.937092 0.715874 0.0449387
O1_10 O 0.54594(17) 0.67999(17) 0.8099(4)
O2_10 O 0.58810(17) 0.68386(18) 0.6972(4)
O5_8 O 0.28917(18) 0.89134(18) 0.6998(4)
O6_8 O 0.3332(2) 0.93560(19) 0.7685(4)
O7_10 O 0.47546(18) 0.74440(19) 0.8046(4)
O8_10 O 0.45899(18) 0.76540(18) 0.9325(4)
O9_10 O 0.5681(2) 0.7686(2) 0.7760(5)
O10_10 O 0.5480(3) 0.7943(2) 0.8991(4)
C1_10 C 0.6089(3) 0.6310(3) 0.7987(5)
C2_10 C 0.6523(3) 0.6351(3) 0.7784(5)
H1_10 H 0.6620 0.6599 0.7491
C3_10 C 0.6824(3) 0.6021(3) 0.8014(5)
H2_10 H 0.7119 0.6053 0.7867
C4_10 C 0.6694(3) 0.5654(3) 0.8448(5)
C5_10 C 0.6242(3) 0.5607(3) 0.8708(6)
C6_10 C 0.6077(3) 0.5248(3) 0.9195(7)
H3_10 H 0.6272 0.5030 0.9370
C7_10 C 0.5652(3) 0.5213(3) 0.9413(9)
H4_10 H 0.5557 0.4977 0.9743
C8_10 C 0.5354(3) 0.5529(3) 0.9144(8)
H5_10 H 0.5058 0.5501 0.9289
C9_10 C 0.5487(3) 0.5876(3) 0.8675(6)
H6_10 H 0.5279 0.6080 0.8496
C10_10 C 0.5932(3) 0.5939(3) 0.8447(6)
C11_10 C 0.5792(3) 0.6665(3) 0.7667(5)
C12_10 C 0.7035(3) 0.5314(3) 0.8628(5)
C13_10 C 0.3527(3) 0.8595(3) 0.7729(6)
C14_10 C 0.3891(3) 0.8711(3) 0.8202(7)
H7_10 H 0.3930 0.9004 0.8353
C15_10 C 0.4201(3) 0.8402(3) 0.8462(6)
H8_10 H 0.4438 0.8491 0.8794
C16_10 C 0.4160(3) 0.7971(3) 0.8233(5)
C17_10 C 0.3804(3) 0.7831(3) 0.7741(6)
C18_10 C 0.3752(3) 0.7388(3) 0.7480(8)
H9_10 H 0.3963 0.7180 0.7629
C19_10 C 0.3399(4) 0.7264(4) 0.7017(9)
H10_10 H 0.3379 0.6973 0.6836
C20_10 C 0.3071(3) 0.7551(4) 0.6806(12)
H11_10 H 0.2822 0.7449 0.6521
C21_10 C 0.3106(3) 0.7997(3) 0.7017(7)
H12_10 H 0.2890 0.8194 0.6844
C22_10 C 0.3471(3) 0.8146(3) 0.7491(6)
C23_10 C 0.3230(3) 0.8965(3) 0.7459(6)
C24_10 C 0.4523(3) 0.7665(3) 0.8545(5)
C25_10 C 0.5889(3) 0.8410(3) 0.8084(6)
C26_10 C 0.6240(4) 0.8404(3) 0.7554(7)
H13_10 H 0.6314 0.8136 0.7311
C27_10 C 0.6500(3) 0.8768(3) 0.7342(7)
H14_10 H 0.6746 0.8736 0.6997
C28_10 C 0.6383(3) 0.9171(3) 0.7657(6)
C29_10 C 0.6002(3) 0.9211(3) 0.8208(6)
C30_10 C 0.5874(3) 0.9631(4) 0.8521(6)
H15_10 H 0.6033 0.9880 0.8368
C31_10 C 0.5523(3) 0.9670(4) 0.9041(8)
H16_10 H 0.5443 0.9946 0.9245
C32_10 C 0.5279(3) 0.9299(4) 0.9274(9)
H17_10 H 0.5043 0.9325 0.9648
C33_10 C 0.5393(4) 0.8891(3) 0.8937(7)
H18_10 H 0.5217 0.8650 0.9072
C34_10 C 0.5760(3) 0.8821(3) 0.8404(6)
C35_10 C 0.5660(3) 0.7994(3) 0.8292(7)
C36_10 C 0.6655(3) 0.9560(3) 0.7432(6)
O13_10 O 0.46875(17) 0.67176(17) 0.6791(4)
O14_10 O 0.5786(2) 0.7672(2) 0.5896(4)
O17_8 O 0.4975(2) 0.80308(18) 0.6679(5)
O20_8 O 0.46980(17) 0.66502(17) 0.9192(4)
H19_10 H 0.452076 0.671746 0.733364
H20_10 H 0.448225 0.677154 0.631123
H21_10 H 0.598053 0.745023 0.562476
H22_10 H 0.562908 0.784126 0.544939
O1_11 O 0.17999(17) 0.45406(17) 0.5599(4)
O2_11 O 0.18386(18) 0.41190(17) 0.4472(4)
O4_7 O 0.0025(2) 0.30308(18) 0.6679(5)
O7_11 O 0.24440(19) 0.52454(18) 0.5546(4)
O8_11 O 0.26540(18) 0.54101(18) 0.6825(4)
O9_11 O 0.2686(2) 0.4319(2) 0.5260(5)
O10_11 O 0.2943(2) 0.4520(3) 0.6491(4)
O11_7 O 0.46980(17) 0.33498(17) 0.4192(4)
C1_11 C 0.1310(3) 0.3911(3) 0.5487(5)
C2_11 C 0.1351(3) 0.3477(3) 0.5284(5)
H1_11 H 0.1599 0.3380 0.4991
C3_11 C 0.1021(3) 0.3176(3) 0.5514(5)
H2_11 H 0.1053 0.2881 0.5367
C4_11 C 0.0654(3) 0.3306(3) 0.5948(5)
C5_11 C 0.0607(3) 0.3758(3) 0.6208(6)
C6_11 C 0.0248(3) 0.3923(3) 0.6695(7)
H3_11 H 0.0030 0.3728 0.6870
C7_11 C 0.0213(3) 0.4348(3) 0.6913(9)
C8_11 C 0.0529(3) 0.4646(3) 0.6644(8)
H5_11 H 0.0501 0.4942 0.6789
C9_11 C 0.0876(3) 0.4513(3) 0.6175(6)
H6_11 H 0.1080 0.4721 0.5996
C10_11 C 0.0939(3) 0.4068(3) 0.5947(6)
C11_11 C 0.1665(3) 0.4208(3) 0.5167(5)
C12_11 C 0.0314(3) 0.2965(3) 0.6128(5)
C13_11 C 0.3595(3) 0.6473(3) 0.5229(6)
C14_11 C 0.3711(3) 0.6109(3) 0.5702(7)
H7_11 H 0.4004 0.6070 0.5853
C15_11 C 0.3402(3) 0.5799(3) 0.5962(6)
H8_11 H 0.3491 0.5562 0.6294
C16_11 C 0.2971(3) 0.5840(3) 0.5733(5)
C17_11 C 0.2831(3) 0.6196(3) 0.5241(6)
C18_11 C 0.2388(3) 0.6248(3) 0.4980(8)
H9_11 H 0.2180 0.6037 0.5129
C19_11 C 0.2264(4) 0.6601(4) 0.4517(9)
H10_11 H 0.1973 0.6621 0.4336
C20_11 C 0.2551(4) 0.6929(3) 0.4306(12)
H11_11 H 0.2449 0.7178 0.4021
C21_11 C 0.2997(3) 0.6894(3) 0.4517(7)
H12_11 H 0.3194 0.7110 0.4344
C22_11 C 0.3146(3) 0.6529(3) 0.4991(6)
C23_11 C 0.3965(3) 0.6770(3) 0.4959(6)
C24_11 C 0.2665(3) 0.5477(3) 0.6045(5)
C25_11 C 0.3410(3) 0.4111(3) 0.5584(6)
C26_11 C 0.3404(3) 0.3760(4) 0.5054(7)
H13_11 H 0.3136 0.3686 0.4811
C27_11 C 0.3768(3) 0.3500(3) 0.4842(7)
H14_11 H 0.3736 0.3254 0.4497
C28_11 C 0.4171(3) 0.3617(3) 0.5157(6)
C29_11 C 0.4211(3) 0.3998(3) 0.5708(6)
C30_11 C 0.4631(4) 0.4126(3) 0.6021(6)
H15_11 H 0.4880 0.3967 0.5868
C31_11 C 0.4670(4) 0.4477(3) 0.6541(8)
H16_11 H 0.4946 0.4557 0.6745
C32_11 C 0.4299(4) 0.4721(3) 0.6774(9)
H17_11 H 0.4325 0.4957 0.7148
C33_11 C 0.3891(3) 0.4607(4) 0.6437(7)
H18_11 H 0.3650 0.4783 0.6572
C34_11 C 0.3821(3) 0.4240(3) 0.5904(6)
C35_11 C 0.2994(3) 0.4340(3) 0.5792(7)
C36_11 C 0.4560(3) 0.3345(3) 0.4932(6)
O13_11 O 0.17176(17) 0.53125(17) 0.4291(4)
O14_11 O 0.2672(2) 0.4214(2) 0.3396(4)
O18_7 O 0.21083(18) 0.39134(18) 0.6998(4)
O19_7 O 0.1668(2) 0.43560(19) 0.7685(4)
H19_11 H 0.171746 0.547924 0.483364
H20_11 H 0.177154 0.551775 0.381123
H21_11 H 0.245023 0.401947 0.312476
H22_11 H 0.284126 0.437092 0.294939
H4_11 H 0.9977 0.4443 0.7243
O1_12 O 0.32001(17) 0.04594(17) 0.0599(4)
O4_8 O 0.4975(2) 0.19692(18) 0.1679(5)
O9_12 O 0.2314(2) 0.0681(2) 0.0260(5)
O10_12 O 0.2057(2) 0.0480(3) 0.1491(4)
C1_12 C 0.3690(3) 0.1089(3) 0.0487(5)
C2_12 C 0.3649(3) 0.1523(3) 0.0284(5)
C3_12 C 0.3979(3) 0.1824(3) 0.0514(5)
H2_12 H 0.3947 0.2119 0.0367
C4_12 C 0.4346(3) 0.1694(3) 0.0948(5)
C5_12 C 0.4393(3) 0.1242(3) 0.1208(6)
C6_12 C 0.4752(3) 0.1077(3) 0.1695(7)
H3_12 H 0.4970 0.1272 0.1870
C7_12 C 0.4787(3) 0.0652(3) 0.1913(9)
H4_12 H 0.5023 0.0557 0.2243
C8_12 C 0.4471(3) 0.0354(3) 0.1644(8)
H5_12 H 0.4499 0.0058 0.1789
C9_12 C 0.4124(3) 0.0487(3) 0.1175(6)
H6_12 H 0.3920 0.0279 0.0996
C10_12 C 0.4061(3) 0.0932(3) 0.0947(6)
C11_12 C 0.3335(3) 0.0792(3) 0.0167(5)
C12_12 C 0.4686(3) 0.2035(3) 0.1128(5)
C25_12 C 0.1590(3) 0.0889(3) 0.0584(6)
C26_12 C 0.1596(3) 0.1240(4) 0.0054(7)
C28_12 C 0.0829(3) 0.1383(3) 0.0157(6)
C29_12 C 0.0789(3) 0.1002(3) 0.0708(6)
C30_12 C 0.0369(4) 0.0874(3) 0.1021(6)
H15_12 H 0.0120 0.1033 0.0868
C31_12 C 0.0330(4) 0.0523(3) 0.1541(8)
H16_12 H 0.0054 0.0443 0.1745
C32_12 C 0.0701(4) 0.0279(3) 0.1774(9)
H17_12 H 0.0675 0.0043 0.2148
C33_12 C 0.1109(3) 0.0393(4) 0.1437(7)
H18_12 H 0.1350 0.0217 0.1572
C34_12 C 0.1179(3) 0.0760(3) 0.0904(6)
C35_12 C 0.2006(3) 0.0660(3) 0.0792(7)
O18_8 O 0.28917(18) 0.10866(18) 0.1998(4)
O19_8 O 0.3332(2) 0.06440(19) 0.2685(4)
O2_12 O 0.31614(18) 0.08810(17) 0.9472(4)
O11_8 O 0.03020(17) 0.16502(17) 0.9192(4)
H1_12 H 0.3401 0.1620 0.9991
H13_12 H 0.1864 0.1314 0.9811
C27_12 C 0.1232(3) 0.1500(3) 0.9842(7)
H14_12 H 0.1264 0.1746 0.9497
C36_12 C 0.0440(3) 0.1655(3) 0.9932(6)
O14_12 O 0.2328(2) 0.0786(2) 0.8396(4)
H21_12 H 0.254977 0.0980533 0.812476
H22_12 H 0.215874 0.0629077 0.794939
O7_12 O 0.25560(19) 0.97546(18) 0.0546(4)
O8_12 O 0.23460(18) 0.95899(18) 0.1825(4)
C13_12 C 0.1405(3) 0.8527(3) 0.0229(6)
C14_12 C 0.1289(3) 0.8891(3) 0.0702(7)
H7_12 H 0.0996 0.8930 0.0853
C15_12 C 0.1598(3) 0.9201(3) 0.0962(6)
H8_12 H 0.1509 0.9438 0.1294
C16_12 C 0.2029(3) 0.9160(3) 0.0733(5)
C17_12 C 0.2169(3) 0.8804(3) 0.0241(6)
H9_12 H 0.2820 0.8963 0.0129
C24_12 C 0.2335(3) 0.9523(3) 0.1045(5)
C18_12 C 0.2612(3) 0.8752(3) 0.9980(8)
C19_12 C 0.2736(4) 0.8399(4) 0.9517(9)
H10_12 H 0.3027 0.8379 0.9336
C20_12 C 0.2449(4) 0.8071(3) 0.9306(12)
H11_12 H 0.2551 0.7822 0.9021
C21_12 C 0.2003(3) 0.8106(3) 0.9517(7)
H12_12 H 0.1806 0.7890 0.9344
C22_12 C 0.1854(3) 0.8471(3) 0.9991(6)
C23_12 C 0.1035(3) 0.8230(3) 0.9959(6)
O13_12 O 0.32824(17) 0.96875(17) 0.9291(4)
H19_12 H 0.328254 0.952076 0.983364
H20_12 H 0.322846 0.948225 0.881123
O7_13 O 0.02454(18) 0.24440(19) 0.8046(4)
O8_13 O 0.04101(18) 0.26540(18) 0.9325(4)
C13_13 C 0.1473(3) 0.3595(3) 0.7729(6)
C14_13 C 0.1109(3) 0.3711(3) 0.8202(7)
H7_13 H 0.1070 0.4004 0.8353
C15_13 C 0.0799(3) 0.3402(3) 0.8462(6)
H8_13 H 0.0562 0.3491 0.8794
C16_13 C 0.0840(3) 0.2971(3) 0.8233(5)
C17_13 C 0.1196(3) 0.2831(3) 0.7741(6)
C18_13 C 0.1248(3) 0.2388(3) 0.7480(8)
H9_13 H 0.1037 0.2180 0.7629
C19_13 C 0.1601(4) 0.2264(4) 0.7017(9)
H10_13 H 0.1621 0.1973 0.6836
C20_13 C 0.1929(3) 0.2551(4) 0.6806(12)
H11_13 H 0.2178 0.2449 0.6521
C21_13 C 0.1894(3) 0.2997(3) 0.7017(7)
H12_13 H 0.2110 0.3194 0.6844
C22_13 C 0.1529(3) 0.3146(3) 0.7491(6)
C23_13 C 0.1770(3) 0.3965(3) 0.7459(6)
C24_13 C 0.0477(3) 0.2665(3) 0.8545(5)
O13_13 O 0.03125(17) 0.17176(17) 0.6791(4)
H19_13 H 0.0479245 0.171746 0.733364
H20_13 H 0.0517754 0.177154 0.631123
O1_13 O 0.95406(17) 0.17999(17) 0.8099(4)
O2_13 O 0.91190(17) 0.18386(18) 0.6972(4)
O9_13 O 0.9319(2) 0.2686(2) 0.7760(5)
O10_13 O 0.9520(3) 0.2943(2) 0.8991(4)
C1_13 C 0.8911(3) 0.1310(3) 0.7987(5)
C2_13 C 0.8477(3) 0.1351(3) 0.7784(5)
H1_13 H 0.8380 0.1599 0.7491
C3_13 C 0.8176(3) 0.1021(3) 0.8014(5)
H2_13 H 0.7881 0.1053 0.7867
C4_13 C 0.8306(3) 0.0654(3) 0.8448(5)
C5_13 C 0.8758(3) 0.0607(3) 0.8708(6)
C6_13 C 0.8923(3) 0.0248(3) 0.9195(7)
H3_13 H 0.8728 0.0030 0.9370
C7_13 C 0.9348(3) 0.0213(3) 0.9413(9)
C8_13 C 0.9646(3) 0.0529(3) 0.9144(8)
H5_13 H 0.9942 0.0501 0.9289
C9_13 C 0.9513(3) 0.0876(3) 0.8675(6)
H6_13 H 0.9721 0.1080 0.8496
C10_13 C 0.9068(3) 0.0939(3) 0.8447(6)
C11_13 C 0.9208(3) 0.1665(3) 0.7667(5)
C12_13 C 0.7965(3) 0.0314(3) 0.8628(5)
C25_13 C 0.9111(3) 0.3410(3) 0.8084(6)
C26_13 C 0.8760(4) 0.3404(3) 0.7554(7)
H13_13 H 0.8686 0.3136 0.7311
C27_13 C 0.8500(3) 0.3768(3) 0.7342(7)
H14_13 H 0.8254 0.3736 0.6997
C28_13 C 0.8617(3) 0.4171(3) 0.7657(6)
C29_13 C 0.8998(3) 0.4211(3) 0.8208(6)
C30_13 C 0.9126(3) 0.4631(4) 0.8521(6)
H15_13 H 0.8967 0.4880 0.8368
C31_13 C 0.9477(3) 0.4670(4) 0.9041(8)
H16_13 H 0.9557 0.4946 0.9245
C32_13 C 0.9721(3) 0.4299(4) 0.9274(9)
H17_13 H 0.9957 0.4325 0.9648
C33_13 C 0.9607(4) 0.3891(3) 0.8937(7)
H18_13 H 0.9783 0.3650 0.9072
C34_13 C 0.9240(3) 0.3821(3) 0.8404(6)
C35_13 C 0.9340(3) 0.2994(3) 0.8292(7)
C36_13 C 0.8345(3) 0.4560(3) 0.7432(6)
O14_13 O 0.9214(2) 0.2672(2) 0.5896(4)
H21_13 H 0.901947 0.245023 0.562476
H22_13 H 0.937092 0.284126 0.544939
H4_13 H 0.9443 0.9977 0.9743
O1_14 O 0.54594(17) 0.32001(17) 0.3099(4)
O2_14 O 0.58810(17) 0.31614(18) 0.1972(4)
O7_14 O 0.47546(18) 0.25560(19) 0.3046(4)
O8_14 O 0.45899(18) 0.23460(18) 0.4325(4)
O9_14 O 0.5681(2) 0.2314(2) 0.2760(5)
O10_14 O 0.5480(3) 0.2057(2) 0.3991(4)
C1_14 C 0.6089(3) 0.3690(3) 0.2987(5)
C2_14 C 0.6523(3) 0.3649(3) 0.2784(5)
H1_14 H 0.6620 0.3401 0.2491
C3_14 C 0.6824(3) 0.3979(3) 0.3014(5)
H2_14 H 0.7119 0.3947 0.2867
C4_14 C 0.6694(3) 0.4346(3) 0.3448(5)
C5_14 C 0.6242(3) 0.4393(3) 0.3708(6)
C6_14 C 0.6077(3) 0.4752(3) 0.4195(7)
H3_14 H 0.6272 0.4970 0.4370
C7_14 C 0.5652(3) 0.4787(3) 0.4413(9)
H4_14 H 0.5557 0.5023 0.4743
C8_14 C 0.5354(3) 0.4471(3) 0.4144(8)
H5_14 H 0.5058 0.4499 0.4289
C9_14 C 0.5487(3) 0.4124(3) 0.3675(6)
H6_14 H 0.5279 0.3920 0.3496
C10_14 C 0.5932(3) 0.4061(3) 0.3447(6)
C11_14 C 0.5792(3) 0.3335(3) 0.2667(5)
C12_14 C 0.7035(3) 0.4686(3) 0.3628(5)
C13_14 C 0.3527(3) 0.1405(3) 0.2729(6)
C14_14 C 0.3891(3) 0.1289(3) 0.3202(7)
H7_14 H 0.3930 0.0996 0.3353
C15_14 C 0.4201(3) 0.1598(3) 0.3462(6)
H8_14 H 0.4438 0.1509 0.3794
C16_14 C 0.4160(3) 0.2029(3) 0.3233(5)
C17_14 C 0.3804(3) 0.2169(3) 0.2741(6)
C18_14 C 0.3752(3) 0.2612(3) 0.2480(8)
H9_14 H 0.3963 0.2820 0.2629
C19_14 C 0.3399(4) 0.2736(4) 0.2017(9)
H10_14 H 0.3379 0.3027 0.1836
C20_14 C 0.3071(3) 0.2449(4) 0.1806(12)
H11_14 H 0.2822 0.2551 0.1521
C21_14 C 0.3106(3) 0.2003(3) 0.2017(7)
H12_14 H 0.2890 0.1806 0.1844
C22_14 C 0.3471(3) 0.1854(3) 0.2491(6)
C23_14 C 0.3230(3) 0.1035(3) 0.2459(6)
C24_14 C 0.4523(3) 0.2335(3) 0.3545(5)
C25_14 C 0.5889(3) 0.1590(3) 0.3084(6)
C26_14 C 0.6240(4) 0.1596(3) 0.2554(7)
H13_14 H 0.6314 0.1864 0.2311
C27_14 C 0.6500(3) 0.1232(3) 0.2342(7)
H14_14 H 0.6746 0.1264 0.1997
C28_14 C 0.6383(3) 0.0829(3) 0.2657(6)
C29_14 C 0.6002(3) 0.0789(3) 0.3208(6)
C30_14 C 0.5874(3) 0.0369(4) 0.3521(6)
H15_14 H 0.6033 0.0120 0.3368
C31_14 C 0.5523(3) 0.0330(4) 0.4041(8)
H16_14 H 0.5443 0.0054 0.4245
C32_14 C 0.5279(3) 0.0701(4) 0.4274(9)
H17_14 H 0.5043 0.0675 0.4648
C33_14 C 0.5393(4) 0.1109(3) 0.3937(7)
H18_14 H 0.5217 0.1350 0.4072
C34_14 C 0.5760(3) 0.1179(3) 0.3404(6)
C35_14 C 0.5660(3) 0.2006(3) 0.3292(7)
C36_14 C 0.6655(3) 0.0440(3) 0.2432(6)
O13_14 O 0.46875(17) 0.32824(17) 0.1791(4)
O14_14 O 0.5786(2) 0.2328(2) 0.0896(4)
H19_14 H 0.452076 0.328254 0.233364
H20_14 H 0.448225 0.322846 0.131123
H21_14 H 0.598053 0.254977 0.0624759
H22_14 H 0.562908 0.215874 0.0449387
O1_15 O 0.17999(17) 0.54594(17) 0.0599(4)
O7_15 O 0.24440(19) 0.47546(18) 0.0546(4)
O8_15 O 0.26540(18) 0.45899(18) 0.1825(4)
O9_15 O 0.2686(2) 0.5681(2) 0.0260(5)
O10_15 O 0.2943(2) 0.5480(3) 0.1491(4)
C1_15 C 0.1310(3) 0.6089(3) 0.0487(5)
C2_15 C 0.1351(3) 0.6523(3) 0.0284(5)
C3_15 C 0.1021(3) 0.6824(3) 0.0514(5)
H2_15 H 0.1053 0.7119 0.0367
C4_15 C 0.0654(3) 0.6694(3) 0.0948(5)
C5_15 C 0.0607(3) 0.6242(3) 0.1208(6)
C6_15 C 0.0248(3) 0.6077(3) 0.1695(7)
H3_15 H 0.0030 0.6272 0.1870
C7_15 C 0.0213(3) 0.5652(3) 0.1913(9)
C8_15 C 0.0529(3) 0.5354(3) 0.1644(8)
H5_15 H 0.0501 0.5058 0.1789
C9_15 C 0.0876(3) 0.5487(3) 0.1175(6)
H6_15 H 0.1080 0.5279 0.0996
C10_15 C 0.0939(3) 0.5932(3) 0.0947(6)
C11_15 C 0.1665(3) 0.5792(3) 0.0167(5)
C12_15 C 0.0314(3) 0.7035(3) 0.1128(5)
C13_15 C 0.3595(3) 0.3527(3) 0.0229(6)
C14_15 C 0.3711(3) 0.3891(3) 0.0702(7)
H7_15 H 0.4004 0.3930 0.0853
C15_15 C 0.3402(3) 0.4201(3) 0.0962(6)
H8_15 H 0.3491 0.4438 0.1294
C16_15 C 0.2971(3) 0.4160(3) 0.0733(5)
C17_15 C 0.2831(3) 0.3804(3) 0.0241(6)
H9_15 H 0.2180 0.3963 0.0129
C24_15 C 0.2665(3) 0.4523(3) 0.1045(5)
C25_15 C 0.3410(3) 0.5889(3) 0.0584(6)
C26_15 C 0.3404(3) 0.6240(4) 0.0054(7)
C28_15 C 0.4171(3) 0.6383(3) 0.0157(6)
C29_15 C 0.4211(3) 0.6002(3) 0.0708(6)
C30_15 C 0.4631(4) 0.5874(3) 0.1021(6)
H15_15 H 0.4880 0.6033 0.0868
C31_15 C 0.4670(4) 0.5523(3) 0.1541(8)
H16_15 H 0.4946 0.5443 0.1745
C32_15 C 0.4299(4) 0.5279(3) 0.1774(9)
H17_15 H 0.4325 0.5043 0.2148
C33_15 C 0.3891(3) 0.5393(4) 0.1437(7)
H18_15 H 0.3650 0.5217 0.1572
C34_15 C 0.3821(3) 0.5760(3) 0.0904(6)
C35_15 C 0.2994(3) 0.5660(3) 0.0792(7)
O2_15 O 0.18386(18) 0.58810(17) 0.9472(4)
H1_15 H 0.1599 0.6620 0.9991
C18_15 C 0.2388(3) 0.3752(3) 0.9980(8)
C19_15 C 0.2264(4) 0.3399(4) 0.9517(9)
H10_15 H 0.1973 0.3379 0.9336
C20_15 C 0.2551(4) 0.3071(3) 0.9306(12)
H11_15 H 0.2449 0.2822 0.9021
C21_15 C 0.2997(3) 0.3106(3) 0.9517(7)
H12_15 H 0.3194 0.2890 0.9344
C22_15 C 0.3146(3) 0.3471(3) 0.9991(6)
C23_15 C 0.3965(3) 0.3230(3) 0.9959(6)
H13_15 H 0.3136 0.6314 0.9811
C27_15 C 0.3768(3) 0.6500(3) 0.9842(7)
H14_15 H 0.3736 0.6746 0.9497
C36_15 C 0.4560(3) 0.6655(3) 0.9932(6)
O13_15 O 0.17176(17) 0.46875(17) 0.9291(4)
O14_15 O 0.2672(2) 0.5786(2) 0.8396(4)
H19_15 H 0.171746 0.452076 0.983364
H20_15 H 0.177154 0.448225 0.881123
H21_15 H 0.245023 0.598053 0.812476
H22_15 H 0.284126 0.562908 0.794939
H4_15 H 0.9977 0.5557 0.2243
O7_16 O 0.25560(19) 0.02454(18) 0.5546(4)
O8_16 O 0.23460(18) 0.04101(18) 0.6825(4)
C13_16 C 0.1405(3) 0.1473(3) 0.5229(6)
C14_16 C 0.1289(3) 0.1109(3) 0.5702(7)
H7_16 H 0.0996 0.1070 0.5853
C15_16 C 0.1598(3) 0.0799(3) 0.5962(6)
H8_16 H 0.1509 0.0562 0.6294
C16_16 C 0.2029(3) 0.0840(3) 0.5733(5)
C17_16 C 0.2169(3) 0.1196(3) 0.5241(6)
C18_16 C 0.2612(3) 0.1248(3) 0.4980(8)
H9_16 H 0.2820 0.1037 0.5129
C19_16 C 0.2736(4) 0.1601(4) 0.4517(9)
H10_16 H 0.3027 0.1621 0.4336
C20_16 C 0.2449(4) 0.1929(3) 0.4306(12)
H11_16 H 0.2551 0.2178 0.4021
C21_16 C 0.2003(3) 0.1894(3) 0.4517(7)
H12_16 H 0.1806 0.2110 0.4344
C22_16 C 0.1854(3) 0.1529(3) 0.4991(6)
C23_16 C 0.1035(3) 0.1770(3) 0.4959(6)
C24_16 C 0.2335(3) 0.0477(3) 0.6045(5)
O13_16 O 0.32824(17) 0.03125(17) 0.4291(4)
H19_16 H 0.328254 0.0479245 0.483364
H20_16 H 0.322846 0.0517754 0.381123
O1_16 O 0.32001(17) 0.95406(17) 0.5599(4)
O2_16 O 0.31614(18) 0.91190(17) 0.4472(4)
O9_16 O 0.2314(2) 0.9319(2) 0.5260(5)
O10_16 O 0.2057(2) 0.9520(3) 0.6491(4)
C1_16 C 0.3690(3) 0.8911(3) 0.5487(5)
C2_16 C 0.3649(3) 0.8477(3) 0.5284(5)
H1_16 H 0.3401 0.8380 0.4991
C3_16 C 0.3979(3) 0.8176(3) 0.5514(5)
H2_16 H 0.3947 0.7881 0.5367
C4_16 C 0.4346(3) 0.8306(3) 0.5948(5)
C5_16 C 0.4393(3) 0.8758(3) 0.6208(6)
C6_16 C 0.4752(3) 0.8923(3) 0.6695(7)
H3_16 H 0.4970 0.8728 0.6870
C7_16 C 0.4787(3) 0.9348(3) 0.6913(9)
H4_16 H 0.5023 0.9443 0.7243
C8_16 C 0.4471(3) 0.9646(3) 0.6644(8)
H5_16 H 0.4499 0.9942 0.6789
C9_16 C 0.4124(3) 0.9513(3) 0.6175(6)
H6_16 H 0.3920 0.9721 0.5996
C10_16 C 0.4061(3) 0.9068(3) 0.5947(6)
C11_16 C 0.3335(3) 0.9208(3) 0.5167(5)
C12_16 C 0.4686(3) 0.7965(3) 0.6128(5)
C25_16 C 0.1590(3) 0.9111(3) 0.5584(6)
C26_16 C 0.1596(3) 0.8760(4) 0.5054(7)
H13_16 H 0.1864 0.8686 0.4811
C27_16 C 0.1232(3) 0.8500(3) 0.4842(7)
H14_16 H 0.1264 0.8254 0.4497
C28_16 C 0.0829(3) 0.8617(3) 0.5157(6)
C29_16 C 0.0789(3) 0.8998(3) 0.5708(6)
C30_16 C 0.0369(4) 0.9126(3) 0.6021(6)
H15_16 H 0.0120 0.8967 0.5868
C31_16 C 0.0330(4) 0.9477(3) 0.6541(8)
H16_16 H 0.0054 0.9557 0.6745
C32_16 C 0.0701(4) 0.9721(3) 0.6774(9)
H17_16 H 0.0675 0.9957 0.7148
C33_16 C 0.1109(3) 0.9607(4) 0.6437(7)
H18_16 H 0.1350 0.9783 0.6572
C34_16 C 0.1179(3) 0.9240(3) 0.5904(6)
C35_16 C 0.2006(3) 0.9340(3) 0.5792(7)
C36_16 C 0.0440(3) 0.8345(3) 0.4932(6)
O14_16 O 0.2328(2) 0.9214(2) 0.3396(4)
H21_16 H 0.254977 0.901947 0.312476
H22_16 H 0.215874 0.937092 0.294939
loop_
_geom_bond_atom_site_label_1
_geom_bond_atom_site_label_2
_geom_bond_site_symmetry_1
_geom_bond_site_symmetry_2
Eu1 O1 1_555 1_555
Eu2 O1 1_555 1_555
O1 C11 1_555 1_555
O2 Eu1 1_555 1_555
O3 C12 1_555 1_555
O4 C12 1_555 1_555
O5 C23 1_555 1_555
O6 C23 1_555 1_555
O7 Eu1 1_555 1_555
O8 Eu2 1_555 1_555
O9 Eu1 1_555 1_555
O10 Eu2 1_555 1_555
O11 C36 1_555 1_555
O12 C36 1_555 1_555
C1 C2 1_555 1_555
C2 H1 1_555 1_555
C3 C2 1_555 1_555
H2 C3 1_555 1_555
C4 C3 1_555 1_555
C5 C4 1_555 1_555
C6 C5 1_555 1_555
H3 C6 1_555 1_555
C7 C6 1_555 1_555
H4 C7 1_555 1_555
C8 C7 1_555 1_555
H5 C8 1_555 1_555
C9 C8 1_555 1_555
H6 C9 1_555 1_555
C10 C1 1_555 1_555
C11 O2 1_555 1_555
C12 C4 1_555 1_555
C13 C14 1_555 1_555
C14 H7 1_555 1_555
C15 C14 1_555 1_555
H8 C15 1_555 1_555
C16 C15 1_555 1_555
C17 C16 1_555 1_555
C18 C17 1_555 1_555
H9 C18 1_555 1_555
C19 C18 1_555 1_555
H10 C19 1_555 1_555
C20 C19 1_555 1_555
H11 C20 1_555 1_555
C21 C20 1_555 1_555
H12 C21 1_555 1_555
C22 C13 1_555 1_555
C23 C13 1_555 1_555
C24 O7 1_555 1_555
C25 C26 1_555 1_555
C26 H13 1_555 1_555
C27 C26 1_555 1_555
H14 C27 1_555 1_555
C28 C27 1_555 1_555
C29 C28 1_555 1_555
C30 C29 1_555 1_555
H15 C30 1_555 1_555
C31 C30 1_555 1_555
H16 C31 1_555 1_555
C32 C31 1_555 1_555
H17 C32 1_555 1_555
C33 C32 1_555 1_555
H18 C33 1_555 1_555
C34 C25 1_555 1_555
C35 O9 1_555 1_555
C36 C28 1_555 1_555
O13 Eu1 1_555 1_555
O14 Eu1 1_555 1_555
Eu3 O3 1_555 1_555
Eu4 O12 1_555 1_555
Eu5 O3 1_555 1_555
Eu6 O5 1_555 1_555
O15 Eu1 1_555 1_555
O17 Eu1 1_555 1_555
O18 Eu2 1_555 1_555
O20 Eu2 1_555 1_555
O21 Eu1 1_555 1_555
Eu2 O7 1_555 1_555
O4 Eu3 1_555 1_555
O6 Eu6 1_555 1_555
O8 C24 1_555 1_555
O10 C35 1_555 1_555
C1 C11 1_555 1_555
C5 C10 1_555 1_555
C9 C10 1_555 1_555
C16 C24 1_555 1_555
C17 C22 1_555 1_555
C21 C22 1_555 1_555
C25 C35 1_555 1_555
C29 C34 1_555 1_555
C33 C34 1_555 1_555
O13 H19 1_555 1_555
O13 H20 1_555 1_555
O14 H21 1_555 1_555
O14 H22 1_555 1_555
Eu1_2 O1_2 1_555 1_555
Eu2_2 O1_2 1_555 1_555
O1_2 C11_2 1_555 1_555
O2_2 Eu1_2 1_555 1_555
O3_2 C12_2 1_555 1_555
O4_2 C12_2 1_555 1_555
O9_2 Eu1_2 1_555 1_555
O10_2 Eu2_2 1_555 1_555
O11_2 C36_2 1_555 1_555
O12_2 C36_2 1_555 1_555
C1_2 C2_2 1_555 1_555
C2_2 H1_2 1_555 1_555
C3_2 C2_2 1_555 1_555
H2_2 C3_2 1_555 1_555
C4_2 C3_2 1_555 1_555
C5_2 C4_2 1_555 1_555
C6_2 C5_2 1_555 1_555
H3_2 C6_2 1_555 1_555
C7_2 C6_2 1_555 1_555
C8_2 C7_2 1_555 1_555
H5_2 C8_2 1_555 1_555
C9_2 C8_2 1_555 1_555
H6_2 C9_2 1_555 1_555
C10_2 C1_2 1_555 1_555
C11_2 O2_2 1_555 1_555
C12_2 C4_2 1_555 1_555
C25_2 C26_2 1_555 1_555
C26_2 H13_2 1_555 1_555
C27_2 C26_2 1_555 1_555
H14_2 C27_2 1_555 1_555
C28_2 C27_2 1_555 1_555
C29_2 C28_2 1_555 1_555
C30_2 C29_2 1_555 1_555
H15_2 C30_2 1_555 1_555
C31_2 C30_2 1_555 1_555
H16_2 C31_2 1_555 1_555
C32_2 C31_2 1_555 1_555
H17_2 C32_2 1_555 1_555
C33_2 C32_2 1_555 1_555
H18_2 C33_2 1_555 1_555
C34_2 C25_2 1_555 1_555
C35_2 O9_2 1_555 1_555
C36_2 C28_2 1_555 1_555
O14_2 Eu1_2 1_555 1_555
Eu4_2 O12_2 1_555 1_555
Eu5_2 O3_2 1_555 1_555
Eu7_2 O11_2 1_555 1_555
O16_2 Eu2_2 1_555 1_555
O18_2 Eu2_2 1_555 1_555
O19_2 Eu2_2 1_555 1_555
O21_2 Eu1_2 1_555 1_555
O10_2 C35_2 1_555 1_555
O12_2 Eu7_2 1_555 1_555
C1_2 C11_2 1_555 1_555
C5_2 C10_2 1_555 1_555
C9_2 C10_2 1_555 1_555
C25_2 C35_2 1_555 1_555
C29_2 C34_2 1_555 1_555
C33_2 C34_2 1_555 1_555
O14_2 H21_2 1_555 1_555
O14_2 H22_2 1_555 1_555
O5_2 C23_2 1_555 1_555
O6_2 C23_2 1_555 1_555
C13_2 C14_2 1_555 1_555
C14_2 H7_2 1_555 1_555
C15_2 C14_2 1_555 1_555
H8_2 C15_2 1_555 1_555
C16_2 C15_2 1_555 1_555
C17_2 C16_2 1_555 1_555
C18_2 C17_2 1_555 1_555
H9_2 C18_2 1_555 1_555
C19_2 C18_2 1_555 1_555
H10_2 C19_2 1_555 1_555
C20_2 C19_2 1_555 1_555
H11_2 C20_2 1_555 1_555
C21_2 C20_2 1_555 1_555
H12_2 C21_2 1_555 1_555
C22_2 C13_2 1_555 1_555
C23_2 C13_2 1_555 1_555
C24_2 O7_2 1_555 1_555
Eu6_2 O5_2 1_555 1_555
O6_2 Eu6_2 1_555 1_555
O8_2 C24_2 1_555 1_555
C16_2 C24_2 1_555 1_555
C17_2 C22_2 1_555 1_555
C21_2 C22_2 1_555 1_555
O13_2 H19_2 1_555 1_555
O13_2 H20_2 1_555 1_555
C13_3 C14_3 1_555 1_555
C14_3 H7_3 1_555 1_555
C15_3 C14_3 1_555 1_555
H8_3 C15_3 1_555 1_555
C16_3 C15_3 1_555 1_555
C17_3 C16_3 1_555 1_555
C24_3 O7_3 1_555 1_555
O8_3 C24_3 1_555 1_555
C16_3 C24_3 1_555 1_555
O5_3 C23_3 1_555 1_555
C19_3 C18_3 1_555 1_555
H10_3 C19_3 1_555 1_555
C20_3 C19_3 1_555 1_555
H11_3 C20_3 1_555 1_555
C21_3 C20_3 1_555 1_555
H12_3 C21_3 1_555 1_555
Eu6_3 O5_3 1_555 1_555
C21_3 C22_3 1_555 1_555
O13_3 H19_3 1_555 1_555
O13_3 H20_3 1_555 1_555
Eu2_3 O1_3 1_555 1_555
O1_3 C11_3 1_555 1_555
O3_3 C12_3 1_555 1_555
O4_3 C12_3 1_555 1_555
O10_3 Eu2_3 1_555 1_555
C1_3 C2_3 1_555 1_555
C3_3 C2_3 1_555 1_555
H2_3 C3_3 1_555 1_555
C4_3 C3_3 1_555 1_555
C5_3 C4_3 1_555 1_555
C6_3 C5_3 1_555 1_555
H3_3 C6_3 1_555 1_555
C7_3 C6_3 1_555 1_555
H4_3 C7_3 1_555 1_555
C8_3 C7_3 1_555 1_555
H5_3 C8_3 1_555 1_555
C9_3 C8_3 1_555 1_555
H6_3 C9_3 1_555 1_555
C10_3 C1_3 1_555 1_555
C12_3 C4_3 1_555 1_555
C25_3 C26_3 1_555 1_555
C29_3 C28_3 1_555 1_555
C30_3 C29_3 1_555 1_555
H15_3 C30_3 1_555 1_555
C31_3 C30_3 1_555 1_555
H16_3 C31_3 1_555 1_555
C32_3 C31_3 1_555 1_555
H17_3 C32_3 1_555 1_555
C33_3 C32_3 1_555 1_555
H18_3 C33_3 1_555 1_555
C34_3 C25_3 1_555 1_555
C35_3 O9_3 1_555 1_555
Eu3_3 O3_3 1_555 1_555
Eu4_3 O12_3 1_555 1_555
O16_3 Eu2_3 1_555 1_555
O18_3 Eu2_3 1_555 1_555
O19_3 Eu2_3 1_555 1_555
O4_3 Eu3_3 1_555 1_555
O10_3 C35_3 1_555 1_555
C1_3 C11_3 1_555 1_555
C5_3 C10_3 1_555 1_555
C9_3 C10_3 1_555 1_555
C25_3 C35_3 1_555 1_555
C29_3 C34_3 1_555 1_555
C33_3 C34_3 1_555 1_555
O2_3 Eu1_3 1_555 1_555
O11_3 C36_3 1_555 1_555
H14_3 C27_3 1_555 1_555
O14_3 Eu1_3 1_555 1_555
O21_3 Eu1_3 1_555 1_555
O14_3 H21_3 1_555 1_555
O14_3 H22_3 1_555 1_555
Eu1_4 O1_4 1_555 1_555
Eu2_4 O1_4 1_555 1_555
O1_4 C11_4 1_555 1_555
O2_4 Eu1_4 1_555 1_555
O3_4 C12_4 1_555 1_555
O4_4 C12_4 1_555 1_555
O5_4 C23_4 1_555 1_555
O6_4 C23_4 1_555 1_555
O7_4 Eu1_4 1_555 1_555
O8_4 Eu2_4 1_555 1_555
O9_4 Eu1_4 1_555 1_555
O10_4 Eu2_4 1_555 1_555
O11_4 C36_4 1_555 1_555
O12_4 C36_4 1_555 1_555
C1_4 C2_4 1_555 1_555
C2_4 H1_4 1_555 1_555
C3_4 C2_4 1_555 1_555
H2_4 C3_4 1_555 1_555
C4_4 C3_4 1_555 1_555
C5_4 C4_4 1_555 1_555
C6_4 C5_4 1_555 1_555
H3_4 C6_4 1_555 1_555
C7_4 C6_4 1_555 1_555
C8_4 C7_4 1_555 1_555
H5_4 C8_4 1_555 1_555
C9_4 C8_4 1_555 1_555
H6_4 C9_4 1_555 1_555
C10_4 C1_4 1_555 1_555
C11_4 O2_4 1_555 1_555
C12_4 C4_4 1_555 1_555
C13_4 C14_4 1_555 1_555
C14_4 H7_4 1_555 1_555
C15_4 C14_4 1_555 1_555
H8_4 C15_4 1_555 1_555
C16_4 C15_4 1_555 1_555
C17_4 C16_4 1_555 1_555
C18_4 C17_4 1_555 1_555
H9_4 C18_4 1_555 1_555
C19_4 C18_4 1_555 1_555
H10_4 C19_4 1_555 1_555
C20_4 C19_4 1_555 1_555
H11_4 C20_4 1_555 1_555
C21_4 C20_4 1_555 1_555
H12_4 C21_4 1_555 1_555
C22_4 C13_4 1_555 1_555
C23_4 C13_4 1_555 1_555
C24_4 O7_4 1_555 1_555
C25_4 C26_4 1_555 1_555
C26_4 H13_4 1_555 1_555
C27_4 C26_4 1_555 1_555
H14_4 C27_4 1_555 1_555
C28_4 C27_4 1_555 1_555
C29_4 C28_4 1_555 1_555
C30_4 C29_4 1_555 1_555
H15_4 C30_4 1_555 1_555
C31_4 C30_4 1_555 1_555
H16_4 C31_4 1_555 1_555
C32_4 C31_4 1_555 1_555
H17_4 C32_4 1_555 1_555
C33_4 C32_4 1_555 1_555
H18_4 C33_4 1_555 1_555
C34_4 C25_4 1_555 1_555
C35_4 O9_4 1_555 1_555
C36_4 C28_4 1_555 1_555
O13_4 Eu1_4 1_555 1_555
O14_4 Eu1_4 1_555 1_555
Eu4_4 O12_4 1_555 1_555
Eu5_4 O3_4 1_555 1_555
Eu6_4 O5_4 1_555 1_555
Eu7_4 O11_4 1_555 1_555
O15_4 Eu1_4 1_555 1_555
O16_4 Eu2_4 1_555 1_555
O17_4 Eu1_4 1_555 1_555
O18_4 Eu2_4 1_555 1_555
O19_4 Eu2_4 1_555 1_555
O20_4 Eu2_4 1_555 1_555
O21_4 Eu1_4 1_555 1_555
O22_4 Eu2_4 1_555 1_555
Eu2_4 O7_4 1_555 1_555
O6_4 Eu6_4 1_555 1_555
O8_4 C24_4 1_555 1_555
O10_4 C35_4 1_555 1_555
O12_4 Eu7_4 1_555 1_555
C1_4 C11_4 1_555 1_555
C5_4 C10_4 1_555 1_555
C9_4 C10_4 1_555 1_555
C16_4 C24_4 1_555 1_555
C17_4 C22_4 1_555 1_555
C21_4 C22_4 1_555 1_555
C25_4 C35_4 1_555 1_555
C29_4 C34_4 1_555 1_555
C33_4 C34_4 1_555 1_555
O13_4 H19_4 1_555 1_555
O13_4 H20_4 1_555 1_555
O14_4 H21_4 1_555 1_555
O14_4 H22_4 1_555 1_555
Eu3_3 O1_5 1_555 1_555
Eu7_4 O1_5 1_555 1_555
O1_5 C11_5 1_555 1_555
O2_5 Eu3_3 1_555 1_555
O3_5 C12_5 1_555 1_555
O4_5 C12_5 1_555 1_555
O18_3 C23_5 1_555 1_555
O19_3 C23_5 1_555 1_555
O7_5 Eu3_3 1_555 1_555
O8_5 Eu7_4 1_555 1_555
O9_5 Eu3_3 1_555 1_555
O10_5 Eu7_4 1_555 1_555
O11_5 C36_5 1_555 1_555
O12_5 C36_5 1_555 1_555
C1_5 C2_5 1_555 1_555
C2_5 H1_5 1_555 1_555
C3_5 C2_5 1_555 1_555
H2_5 C3_5 1_555 1_555
C4_5 C3_5 1_555 1_555
C5_5 C4_5 1_555 1_555
C6_5 C5_5 1_555 1_555
H3_5 C6_5 1_555 1_555
C7_5 C6_5 1_555 1_555
H4_5 C7_5 1_555 1_555
C8_5 C7_5 1_555 1_555
H5_5 C8_5 1_555 1_555
C9_5 C8_5 1_555 1_555
H6_5 C9_5 1_555 1_555
C10_5 C1_5 1_555 1_555
C11_5 O2_5 1_555 1_555
C12_5 C4_5 1_555 1_555
C13_5 C14_5 1_555 1_555
C14_5 H7_5 1_555 1_555
C15_5 C14_5 1_555 1_555
H8_5 C15_5 1_555 1_555
C16_5 C15_5 1_555 1_555
C17_5 C16_5 1_555 1_555
C18_5 C17_5 1_555 1_555
H9_5 C18_5 1_555 1_555
C19_5 C18_5 1_555 1_555
H10_5 C19_5 1_555 1_555
C20_5 C19_5 1_555 1_555
H11_5 C20_5 1_555 1_555
C21_5 C20_5 1_555 1_555
H12_5 C21_5 1_555 1_555
C22_5 C13_5 1_555 1_555
C23_5 C13_5 1_555 1_555
C24_5 O7_5 1_555 1_555
C25_5 C26_5 1_555 1_555
C26_5 H13_5 1_555 1_555
C27_5 C26_5 1_555 1_555
H14_5 C27_5 1_555 1_555
C28_5 C27_5 1_555 1_555
C29_5 C28_5 1_555 1_555
C30_5 C29_5 1_555 1_555
H15_5 C30_5 1_555 1_555
C31_5 C30_5 1_555 1_555
H16_5 C31_5 1_555 1_555
C32_5 C31_5 1_555 1_555
H17_5 C32_5 1_555 1_555
C33_5 C32_5 1_555 1_555
H18_5 C33_5 1_555 1_555
C34_5 C25_5 1_555 1_555
C35_5 O9_5 1_555 1_555
C36_5 C28_5 1_555 1_555
O13_5 Eu3_3 1_555 1_555
O14_5 Eu3_3 1_555 1_555
Eu4_2 O3_5 1_555 1_555
Eu3_2 O12_5 1_555 1_555
Eu7_2 O3_5 1_555 1_555
O16_5 Eu7_4 1_555 1_555
O18_5 Eu7_4 1_555 1_555
O19_5 Eu7_4 1_555 1_555
O21_5 Eu3_3 1_555 1_555
Eu7_4 O7_5 1_555 1_555
O4_5 Eu4_2 1_555 1_555
O8_5 C24_5 1_555 1_555
O10_5 C35_5 1_555 1_555
C1_5 C11_5 1_555 1_555
C5_5 C10_5 1_555 1_555
C9_5 C10_5 1_555 1_555
C16_5 C24_5 1_555 1_555
C17_5 C22_5 1_555 1_555
C21_5 C22_5 1_555 1_555
C25_5 C35_5 1_555 1_555
C29_5 C34_5 1_555 1_555
C33_5 C34_5 1_555 1_555
O13_5 H19_5 1_555 1_555
O13_5 H20_5 1_555 1_555
O14_5 H21_5 1_555 1_555
O14_5 H22_5 1_555 1_555
Eu3_4 O1_6 1_555 1_555
Eu7_3 O1_6 1_555 1_555
O1_6 C11_6 1_555 1_555
O2_6 Eu3_4 1_555 1_555
O3_6 C12_6 1_555 1_555
O4_6 C12_6 1_555 1_555
O9_6 Eu3_4 1_555 1_555
O10_6 Eu7_3 1_555 1_555
O11_6 C36_6 1_555 1_555
O12_6 C36_6 1_555 1_555
C1_6 C2_6 1_555 1_555
C2_6 H1_6 1_555 1_555
C3_6 C2_6 1_555 1_555
H2_6 C3_6 1_555 1_555
C4_6 C3_6 1_555 1_555
C5_6 C4_6 1_555 1_555
C6_6 C5_6 1_555 1_555
H3_6 C6_6 1_555 1_555
C7_6 C6_6 1_555 1_555
C8_6 C7_6 1_555 1_555
H5_6 C8_6 1_555 1_555
C9_6 C8_6 1_555 1_555
H6_6 C9_6 1_555 1_555
C10_6 C1_6 1_555 1_555
C11_6 O2_6 1_555 1_555
C12_6 C4_6 1_555 1_555
C25_6 C26_6 1_555 1_555
C26_6 H13_6 1_555 1_555
C27_6 C26_6 1_555 1_555
H14_6 C27_6 1_555 1_555
C28_6 C27_6 1_555 1_555
C29_6 C28_6 1_555 1_555
C30_6 C29_6 1_555 1_555
H15_6 C30_6 1_555 1_555
C31_6 C30_6 1_555 1_555
H16_6 C31_6 1_555 1_555
C32_6 C31_6 1_555 1_555
H17_6 C32_6 1_555 1_555
C33_6 C32_6 1_555 1_555
H18_6 C33_6 1_555 1_555
C34_6 C25_6 1_555 1_555
C35_6 O9_6 1_555 1_555
C36_6 C28_6 1_555 1_555
O14_6 Eu3_4 1_555 1_555
Eu3 O12_6 1_555 1_555
Eu7 O3_6 1_555 1_555
Eu5 O11_6 1_555 1_555
O18_6 Eu7_3 1_555 1_555
O21_6 Eu3_4 1_555 1_555
O10_6 C35_6 1_555 1_555
O12_6 Eu5 1_555 1_555
C1_6 C11_6 1_555 1_555
C5_6 C10_6 1_555 1_555
C9_6 C10_6 1_555 1_555
C25_6 C35_6 1_555 1_555
C29_6 C34_6 1_555 1_555
C33_6 C34_6 1_555 1_555
O14_6 H21_6 1_555 1_555
O14_6 H22_6 1_555 1_555
O18_4 C23_6 1_555 1_555
O19_4 C23_6 1_555 1_555
C13_6 C14_6 1_555 1_555
C14_6 H7_6 1_555 1_555
C15_6 C14_6 1_555 1_555
H8_6 C15_6 1_555 1_555
C16_6 C15_6 1_555 1_555
C17_6 C16_6 1_555 1_555
C18_6 C17_6 1_555 1_555
H9_6 C18_6 1_555 1_555
C19_6 C18_6 1_555 1_555
H10_6 C19_6 1_555 1_555
C20_6 C19_6 1_555 1_555
H11_6 C20_6 1_555 1_555
C21_6 C20_6 1_555 1_555
H12_6 C21_6 1_555 1_555
C22_6 C13_6 1_555 1_555
C23_6 C13_6 1_555 1_555
C24_6 O7_6 1_555 1_555
O8_6 C24_6 1_555 1_555
C16_6 C24_6 1_555 1_555
C17_6 C22_6 1_555 1_555
C21_6 C22_6 1_555 1_555
O13_6 H19_6 1_555 1_555
O13_6 H20_6 1_555 1_555
Eu1_5 O1_7 1_555 1_555
Eu6 O1_7 1_555 1_555
O1_7 C11_7 1_555 1_555
O2_7 Eu1_5 1_555 1_555
O15 C12_7 1_555 1_555
O17 C12_7 1_555 1_555
O9_7 Eu1_5 1_555 1_555
O10_7 Eu6 1_555 1_555
O20_2 C36_7 1_555 1_555
O22_2 C36_7 1_555 1_555
C1_7 C2_7 1_555 1_555
C2_7 H1_7 1_555 1_555
C3_7 C2_7 1_555 1_555
H2_7 C3_7 1_555 1_555
C4_7 C3_7 1_555 1_555
C5_7 C4_7 1_555 1_555
C6_7 C5_7 1_555 1_555
H3_7 C6_7 1_555 1_555
C7_7 C6_7 1_555 1_555
H4_7 C7_7 1_555 1_555
C8_7 C7_7 1_555 1_555
H5_7 C8_7 1_555 1_555
C9_7 C8_7 1_555 1_555
H6_7 C9_7 1_555 1_555
C10_7 C1_7 1_555 1_555
C11_7 O2_7 1_555 1_555
C12_7 C4_7 1_555 1_555
C25_7 C26_7 1_555 1_555
C26_7 H13_7 1_555 1_555
C27_7 C26_7 1_555 1_555
H14_7 C27_7 1_555 1_555
C28_7 C27_7 1_555 1_555
C29_7 C28_7 1_555 1_555
C30_7 C29_7 1_555 1_555
H15_7 C30_7 1_555 1_555
C31_7 C30_7 1_555 1_555
H16_7 C31_7 1_555 1_555
C32_7 C31_7 1_555 1_555
H17_7 C32_7 1_555 1_555
C33_7 C32_7 1_555 1_555
H18_7 C33_7 1_555 1_555
C34_7 C25_7 1_555 1_555
C35_7 O9_7 1_555 1_555
C36_7 C28_7 1_555 1_555
O14_7 Eu1_5 1_555 1_555
Eu4_5 O22_2 1_555 1_555
Eu6_4 O15 1_555 1_555
O15_3 Eu6 1_555 1_555
O22_3 Eu1_5 1_555 1_555
O10_7 C35_7 1_555 1_555
C1_7 C11_7 1_555 1_555
C5_7 C10_7 1_555 1_555
C9_7 C10_7 1_555 1_555
C25_7 C35_7 1_555 1_555
C29_7 C34_7 1_555 1_555
C33_7 C34_7 1_555 1_555
O14_7 H21_7 1_555 1_555
O14_7 H22_7 1_555 1_555
O5_5 C23_7 1_555 1_555
O6_5 C23_7 1_555 1_555
C13_7 C14_7 1_555 1_555
C14_7 H7_7 1_555 1_555
C15_7 C14_7 1_555 1_555
H8_7 C15_7 1_555 1_555
C16_7 C15_7 1_555 1_555
C17_7 C16_7 1_555 1_555
C18_7 C17_7 1_555 1_555
H9_7 C18_7 1_555 1_555
C19_7 C18_7 1_555 1_555
H10_7 C19_7 1_555 1_555
C20_7 C19_7 1_555 1_555
H11_7 C20_7 1_555 1_555
C21_7 C20_7 1_555 1_555
H12_7 C21_7 1_555 1_555
C22_7 C13_7 1_555 1_555
C23_7 C13_7 1_555 1_555
C24_7 O7_7 1_555 1_555
Eu5_4 O5_5 1_555 1_555
O6_5 Eu5_4 1_555 1_555
O8_7 C24_7 1_555 1_555
C16_7 C24_7 1_555 1_555
C17_7 C22_7 1_555 1_555
C21_7 C22_7 1_555 1_555
O13_7 H19_7 1_555 1_555
O13_7 H20_7 1_555 1_555
Eu6_2 O1_8 1_555 1_555
O1_8 C11_8 1_555 1_555
O15_2 C12_8 1_555 1_555
O17_2 C12_8 1_555 1_555
O8_8 Eu6_2 1_555 1_555
O10_8 Eu6_2 1_555 1_555
C1_8 C2_8 1_555 1_555
C3_8 C2_8 1_555 1_555
H2_8 C3_8 1_555 1_555
C4_8 C3_8 1_555 1_555
C5_8 C4_8 1_555 1_555
C6_8 C5_8 1_555 1_555
H3_8 C6_8 1_555 1_555
C7_8 C6_8 1_555 1_555
C8_8 C7_8 1_555 1_555
H5_8 C8_8 1_555 1_555
C9_8 C8_8 1_555 1_555
H6_8 C9_8 1_555 1_555
C10_8 C1_8 1_555 1_555
C12_8 C4_8 1_555 1_555
C13_8 C14_8 1_555 1_555
C14_8 H7_8 1_555 1_555
C15_8 C14_8 1_555 1_555
H8_8 C15_8 1_555 1_555
C16_8 C15_8 1_555 1_555
C17_8 C16_8 1_555 1_555
C24_8 O7_8 1_555 1_555
C25_8 C26_8 1_555 1_555
C29_8 C28_8 1_555 1_555
C30_8 C29_8 1_555 1_555
H15_8 C30_8 1_555 1_555
C31_8 C30_8 1_555 1_555
H16_8 C31_8 1_555 1_555
C32_8 C31_8 1_555 1_555
H17_8 C32_8 1_555 1_555
C33_8 C32_8 1_555 1_555
H18_8 C33_8 1_555 1_555
C34_8 C25_8 1_555 1_555
C35_8 O9_8 1_555 1_555
Eu4_6 O22 1_555 1_555
O15_4 Eu6_2 1_555 1_555
O20_6 Eu6_2 1_555 1_555
O21_4 Eu6_2 1_555 1_555
Eu6_2 O7_8 1_555 1_555
O8_8 C24_8 1_555 1_555
O10_8 C35_8 1_555 1_555
C1_8 C11_8 1_555 1_555
C5_8 C10_8 1_555 1_555
C9_8 C10_8 1_555 1_555
C16_8 C24_8 1_555 1_555
C25_8 C35_8 1_555 1_555
C29_8 C34_8 1_555 1_555
C33_8 C34_8 1_555 1_555
O2_8 Eu1_6 1_555 1_555
O5_6 C23_8 1_555 1_555
O20 C36_8 1_555 1_555
C19_8 C18_8 1_555 1_555
H10_8 C19_8 1_555 1_555
C20_8 C19_8 1_555 1_555
H11_8 C20_8 1_555 1_555
C21_8 C20_8 1_555 1_555
H12_8 C21_8 1_555 1_555
H14_8 C27_8 1_555 1_555
O13_8 Eu1_6 1_555 1_555
O14_8 Eu1_6 1_555 1_555
Eu5_3 O5_6 1_555 1_555
O16_4 Eu1_6 1_555 1_555
O17_6 Eu1_6 1_555 1_555
O22_4 Eu1_6 1_555 1_555
C21_8 C22_8 1_555 1_555
O13_8 H19_8 1_555 1_555
O13_8 H20_8 1_555 1_555
O14_8 H21_8 1_555 1_555
O14_8 H22_8 1_555 1_555
O5_7 C23_9 1_555 1_555
O6_7 C23_9 1_555 1_555
C13_9 C14_9 1_555 1_555
C14_9 H7_9 1_555 1_555
C15_9 C14_9 1_555 1_555
H8_9 C15_9 1_555 1_555
C16_9 C15_9 1_555 1_555
C17_9 C16_9 1_555 1_555
C18_9 C17_9 1_555 1_555
H9_9 C18_9 1_555 1_555
C19_9 C18_9 1_555 1_555
H10_9 C19_9 1_555 1_555
C20_9 C19_9 1_555 1_555
H11_9 C20_9 1_555 1_555
C21_9 C20_9 1_555 1_555
H12_9 C21_9 1_555 1_555
C22_9 C13_9 1_555 1_555
C23_9 C13_9 1_555 1_555
C24_9 O7_9 1_555 1_555
Eu7_2 O5_7 1_555 1_555
O6_7 Eu7_2 1_555 1_555
O8_9 C24_9 1_555 1_555
C16_9 C24_9 1_555 1_555
C17_9 C22_9 1_555 1_555
C21_9 C22_9 1_555 1_555
O13_9 H19_9 1_555 1_555
O13_9 H20_9 1_555 1_555
Eu4_3 O1_9 1_555 1_555
Eu5_4 O1_9 1_555 1_555
O1_9 C11_9 1_555 1_555
O2_9 Eu4_3 1_555 1_555
O16_3 C12_9 1_555 1_555
O17_5 C12_9 1_555 1_555
O9_9 Eu4_3 1_555 1_555
O10_9 Eu5_4 1_555 1_555
O20_6 C36_9 1_555 1_555
O21_4 C36_9 1_555 1_555
C1_9 C2_9 1_555 1_555
C2_9 H1_9 1_555 1_555
C3_9 C2_9 1_555 1_555
H2_9 C3_9 1_555 1_555
C4_9 C3_9 1_555 1_555
C5_9 C4_9 1_555 1_555
C6_9 C5_9 1_555 1_555
H3_9 C6_9 1_555 1_555
C7_9 C6_9 1_555 1_555
C8_9 C7_9 1_555 1_555
H5_9 C8_9 1_555 1_555
C9_9 C8_9 1_555 1_555
H6_9 C9_9 1_555 1_555
C10_9 C1_9 1_555 1_555
C11_9 O2_9 1_555 1_555
C12_9 C4_9 1_555 1_555
C25_9 C26_9 1_555 1_555
C26_9 H13_9 1_555 1_555
C27_9 C26_9 1_555 1_555
H14_9 C27_9 1_555 1_555
C28_9 C27_9 1_555 1_555
C29_9 C28_9 1_555 1_555
C30_9 C29_9 1_555 1_555
H15_9 C30_9 1_555 1_555
C31_9 C30_9 1_555 1_555
H16_9 C31_9 1_555 1_555
C32_9 C31_9 1_555 1_555
H17_9 C32_9 1_555 1_555
C33_9 C32_9 1_555 1_555
H18_9 C33_9 1_555 1_555
C34_9 C25_9 1_555 1_555
C35_9 O9_9 1_555 1_555
C36_9 C28_9 1_555 1_555
O14_9 Eu4_3 1_555 1_555
O10_9 C35_9 1_555 1_555
C1_9 C11_9 1_555 1_555
C5_9 C10_9 1_555 1_555
C9_9 C10_9 1_555 1_555
C25_9 C35_9 1_555 1_555
C29_9 C34_9 1_555 1_555
C33_9 C34_9 1_555 1_555
O14_9 H21_9 1_555 1_555
O14_9 H22_9 1_555 1_555
Eu4_4 O1_10 1_555 1_555
Eu5_3 O1_10 1_555 1_555
O1_10 C11_10 1_555 1_555
O2_10 Eu4_4 1_555 1_555
O16_4 C12_10 1_555 1_555
O17_6 C12_10 1_555 1_555
O5_8 C23_10 1_555 1_555
O6_8 C23_10 1_555 1_555
O7_10 Eu4_4 1_555 1_555
O8_10 Eu5_3 1_555 1_555
O9_10 Eu4_4 1_555 1_555
O10_10 Eu5_3 1_555 1_555
O20_5 C36_10 1_555 1_555
O21_3 C36_10 1_555 1_555
C1_10 C2_10 1_555 1_555
C2_10 H1_10 1_555 1_555
C3_10 C2_10 1_555 1_555
H2_10 C3_10 1_555 1_555
C4_10 C3_10 1_555 1_555
C5_10 C4_10 1_555 1_555
C6_10 C5_10 1_555 1_555
H3_10 C6_10 1_555 1_555
C7_10 C6_10 1_555 1_555
H4_10 C7_10 1_555 1_555
C8_10 C7_10 1_555 1_555
H5_10 C8_10 1_555 1_555
C9_10 C8_10 1_555 1_555
H6_10 C9_10 1_555 1_555
C10_10 C1_10 1_555 1_555
C11_10 O2_10 1_555 1_555
C12_10 C4_10 1_555 1_555
C13_10 C14_10 1_555 1_555
C14_10 H7_10 1_555 1_555
C15_10 C14_10 1_555 1_555
H8_10 C15_10 1_555 1_555
C16_10 C15_10 1_555 1_555
C17_10 C16_10 1_555 1_555
C18_10 C17_10 1_555 1_555
H9_10 C18_10 1_555 1_555
C19_10 C18_10 1_555 1_555
H10_10 C19_10 1_555 1_555
C20_10 C19_10 1_555 1_555
H11_10 C20_10 1_555 1_555
C21_10 C20_10 1_555 1_555
H12_10 C21_10 1_555 1_555
C22_10 C13_10 1_555 1_555
C23_10 C13_10 1_555 1_555
C24_10 O7_10 1_555 1_555
C25_10 C26_10 1_555 1_555
C26_10 H13_10 1_555 1_555
C27_10 C26_10 1_555 1_555
H14_10 C27_10 1_555 1_555
C28_10 C27_10 1_555 1_555
C29_10 C28_10 1_555 1_555
C30_10 C29_10 1_555 1_555
H15_10 C30_10 1_555 1_555
C31_10 C30_10 1_555 1_555
H16_10 C31_10 1_555 1_555
C32_10 C31_10 1_555 1_555
H17_10 C32_10 1_555 1_555
C33_10 C32_10 1_555 1_555
H18_10 C33_10 1_555 1_555
C34_10 C25_10 1_555 1_555
C35_10 O9_10 1_555 1_555
C36_10 C28_10 1_555 1_555
O13_10 Eu4_4 1_555 1_555
O14_10 Eu4_4 1_555 1_555
Eu7 O5_8 1_555 1_555
O16_5 Eu4_4 1_555 1_555
O17_8 Eu4_4 1_555 1_555
O20_8 Eu5_3 1_555 1_555
Eu5_3 O7_10 1_555 1_555
O6_8 Eu7 1_555 1_555
O8_10 C24_10 1_555 1_555
O10_10 C35_10 1_555 1_555
C1_10 C11_10 1_555 1_555
C5_10 C10_10 1_555 1_555
C9_10 C10_10 1_555 1_555
C16_10 C24_10 1_555 1_555
C17_10 C22_10 1_555 1_555
C21_10 C22_10 1_555 1_555
C25_10 C35_10 1_555 1_555
C29_10 C34_10 1_555 1_555
C33_10 C34_10 1_555 1_555
O13_10 H19_10 1_555 1_555
O13_10 H20_10 1_555 1_555
O14_10 H21_10 1_555 1_555
O14_10 H22_10 1_555 1_555
Eu4_2 O1_11 1_555 1_555
Eu5 O1_11 1_555 1_555
O1_11 C11_11 1_555 1_555
O2_11 Eu4_2 1_555 1_555
O16_2 C12_11 1_555 1_555
O4_7 C12_11 1_555 1_555
O18_5 C23_11 1_555 1_555
O19_5 C23_11 1_555 1_555
O7_11 Eu4_2 1_555 1_555
O8_11 Eu5 1_555 1_555
O9_11 Eu4_2 1_555 1_555
O10_11 Eu5 1_555 1_555
O11_7 C36_11 1_555 1_555
O21 C36_11 1_555 1_555
C1_11 C2_11 1_555 1_555
C2_11 H1_11 1_555 1_555
C3_11 C2_11 1_555 1_555
H2_11 C3_11 1_555 1_555
C4_11 C3_11 1_555 1_555
C5_11 C4_11 1_555 1_555
C6_11 C5_11 1_555 1_555
H3_11 C6_11 1_555 1_555
C7_11 C6_11 1_555 1_555
C8_11 C7_11 1_555 1_555
H5_11 C8_11 1_555 1_555
C9_11 C8_11 1_555 1_555
H6_11 C9_11 1_555 1_555
C10_11 C1_11 1_555 1_555
C11_11 O2_11 1_555 1_555
C12_11 C4_11 1_555 1_555
C13_11 C14_11 1_555 1_555
C14_11 H7_11 1_555 1_555
C15_11 C14_11 1_555 1_555
H8_11 C15_11 1_555 1_555
C16_11 C15_11 1_555 1_555
C17_11 C16_11 1_555 1_555
C18_11 C17_11 1_555 1_555
H9_11 C18_11 1_555 1_555
C19_11 C18_11 1_555 1_555
H10_11 C19_11 1_555 1_555
C20_11 C19_11 1_555 1_555
H11_11 C20_11 1_555 1_555
C21_11 C20_11 1_555 1_555
H12_11 C21_11 1_555 1_555
C22_11 C13_11 1_555 1_555
C23_11 C13_11 1_555 1_555
C24_11 O7_11 1_555 1_555
C25_11 C26_11 1_555 1_555
C26_11 H13_11 1_555 1_555
C27_11 C26_11 1_555 1_555
H14_11 C27_11 1_555 1_555
C28_11 C27_11 1_555 1_555
C29_11 C28_11 1_555 1_555
C30_11 C29_11 1_555 1_555
H15_11 C30_11 1_555 1_555
C31_11 C30_11 1_555 1_555
H16_11 C31_11 1_555 1_555
C32_11 C31_11 1_555 1_555
H17_11 C32_11 1_555 1_555
C33_11 C32_11 1_555 1_555
H18_11 C33_11 1_555 1_555
C34_11 C25_11 1_555 1_555
C35_11 O9_11 1_555 1_555
C36_11 C28_11 1_555 1_555
O13_11 Eu4_2 1_555 1_555
O14_11 Eu4_2 1_555 1_555
Eu6_4 O11_7 1_555 1_555
O18_7 Eu5 1_555 1_555
O19_7 Eu5 1_555 1_555
Eu5 O7_11 1_555 1_555
O8_11 C24_11 1_555 1_555
O10_11 C35_11 1_555 1_555
O21 Eu6_4 1_555 1_555
C1_11 C11_11 1_555 1_555
C5_11 C10_11 1_555 1_555
C9_11 C10_11 1_555 1_555
C16_11 C24_11 1_555 1_555
C17_11 C22_11 1_555 1_555
C21_11 C22_11 1_555 1_555
C25_11 C35_11 1_555 1_555
C29_11 C34_11 1_555 1_555
C33_11 C34_11 1_555 1_555
O13_11 H19_11 1_555 1_555
O13_11 H20_11 1_555 1_555
O14_11 H21_11 1_555 1_555
O14_11 H22_11 1_555 1_555
Eu5_2 O1_12 1_555 1_555
O1_12 C11_12 1_555 1_555
O16 C12_12 1_555 1_555
O4_8 C12_12 1_555 1_555
O10_12 Eu5_2 1_555 1_555
C1_12 C2_12 1_555 1_555
C3_12 C2_12 1_555 1_555
H2_12 C3_12 1_555 1_555
C4_12 C3_12 1_555 1_555
C5_12 C4_12 1_555 1_555
C6_12 C5_12 1_555 1_555
H3_12 C6_12 1_555 1_555
C7_12 C6_12 1_555 1_555
H4_12 C7_12 1_555 1_555
C8_12 C7_12 1_555 1_555
H5_12 C8_12 1_555 1_555
C9_12 C8_12 1_555 1_555
H6_12 C9_12 1_555 1_555
C10_12 C1_12 1_555 1_555
C12_12 C4_12 1_555 1_555
C25_12 C26_12 1_555 1_555
C29_12 C28_12 1_555 1_555
C30_12 C29_12 1_555 1_555
H15_12 C30_12 1_555 1_555
C31_12 C30_12 1_555 1_555
H16_12 C31_12 1_555 1_555
C32_12 C31_12 1_555 1_555
H17_12 C32_12 1_555 1_555
C33_12 C32_12 1_555 1_555
H18_12 C33_12 1_555 1_555
C34_12 C25_12 1_555 1_555
C35_12 O9_12 1_555 1_555
Eu4_6 O16 1_555 1_555
O18_8 Eu5_2 1_555 1_555
O19_8 Eu5_2 1_555 1_555
O4_8 Eu4_6 1_555 1_555
O10_12 C35_12 1_555 1_555
C1_12 C11_12 1_555 1_555
C5_12 C10_12 1_555 1_555
C9_12 C10_12 1_555 1_555
C25_12 C35_12 1_555 1_555
C29_12 C34_12 1_555 1_555
C33_12 C34_12 1_555 1_555
O2_12 Eu4 1_555 1_555
O11_8 C36_12 1_555 1_555
H14_12 C27_12 1_555 1_555
O14_12 Eu4 1_555 1_555
O14_12 H21_12 1_555 1_555
O14_12 H22_12 1_555 1_555
C13_12 C14_12 1_555 1_555
C14_12 H7_12 1_555 1_555
C15_12 C14_12 1_555 1_555
H8_12 C15_12 1_555 1_555
C16_12 C15_12 1_555 1_555
C17_12 C16_12 1_555 1_555
C24_12 O7_12 1_555 1_555
O8_12 C24_12 1_555 1_555
C16_12 C24_12 1_555 1_555
O18_6 C23_12 1_555 1_555
C19_12 C18_12 1_555 1_555
H10_12 C19_12 1_555 1_555
C20_12 C19_12 1_555 1_555
H11_12 C20_12 1_555 1_555
C21_12 C20_12 1_555 1_555
H12_12 C21_12 1_555 1_555
C21_12 C22_12 1_555 1_555
O13_12 H19_12 1_555 1_555
O13_12 H20_12 1_555 1_555
O18_7 C23_13 1_555 1_555
O19_7 C23_13 1_555 1_555
C13_13 C14_13 1_555 1_555
C14_13 H7_13 1_555 1_555
C15_13 C14_13 1_555 1_555
H8_13 C15_13 1_555 1_555
C16_13 C15_13 1_555 1_555
C17_13 C16_13 1_555 1_555
C18_13 C17_13 1_555 1_555
H9_13 C18_13 1_555 1_555
C19_13 C18_13 1_555 1_555
H10_13 C19_13 1_555 1_555
C20_13 C19_13 1_555 1_555
H11_13 C20_13 1_555 1_555
C21_13 C20_13 1_555 1_555
H12_13 C21_13 1_555 1_555
C22_13 C13_13 1_555 1_555
C23_13 C13_13 1_555 1_555
C24_13 O7_13 1_555 1_555
O8_13 C24_13 1_555 1_555
C16_13 C24_13 1_555 1_555
C17_13 C22_13 1_555 1_555
C21_13 C22_13 1_555 1_555
O13_13 H19_13 1_555 1_555
O13_13 H20_13 1_555 1_555
Eu4_5 O1_13 1_555 1_555
Eu6_3 O1_13 1_555 1_555
O1_13 C11_13 1_555 1_555
O2_13 Eu4_5 1_555 1_555
O15_3 C12_13 1_555 1_555
O17_3 C12_13 1_555 1_555
O9_13 Eu4_5 1_555 1_555
O10_13 Eu6_3 1_555 1_555
O20_4 C36_13 1_555 1_555
O22_4 C36_13 1_555 1_555
C1_13 C2_13 1_555 1_555
C2_13 H1_13 1_555 1_555
C3_13 C2_13 1_555 1_555
H2_13 C3_13 1_555 1_555
C4_13 C3_13 1_555 1_555
C5_13 C4_13 1_555 1_555
C6_13 C5_13 1_555 1_555
H3_13 C6_13 1_555 1_555
C7_13 C6_13 1_555 1_555
C8_13 C7_13 1_555 1_555
H5_13 C8_13 1_555 1_555
C9_13 C8_13 1_555 1_555
H6_13 C9_13 1_555 1_555
C10_13 C1_13 1_555 1_555
C11_13 O2_13 1_555 1_555
C12_13 C4_13 1_555 1_555
C25_13 C26_13 1_555 1_555
C26_13 H13_13 1_555 1_555
C27_13 C26_13 1_555 1_555
H14_13 C27_13 1_555 1_555
C28_13 C27_13 1_555 1_555
C29_13 C28_13 1_555 1_555
C30_13 C29_13 1_555 1_555
H15_13 C30_13 1_555 1_555
C31_13 C30_13 1_555 1_555
H16_13 C31_13 1_555 1_555
C32_13 C31_13 1_555 1_555
H17_13 C32_13 1_555 1_555
C33_13 C32_13 1_555 1_555
H18_13 C33_13 1_555 1_555
C34_13 C25_13 1_555 1_555
C35_13 O9_13 1_555 1_555
C36_13 C28_13 1_555 1_555
O14_13 Eu4_5 1_555 1_555
O10_13 C35_13 1_555 1_555
C1_13 C11_13 1_555 1_555
C5_13 C10_13 1_555 1_555
C9_13 C10_13 1_555 1_555
C25_13 C35_13 1_555 1_555
C29_13 C34_13 1_555 1_555
C33_13 C34_13 1_555 1_555
O14_13 H21_13 1_555 1_555
O14_13 H22_13 1_555 1_555
Eu4_6 O1_14 1_555 1_555
Eu6_4 O1_14 1_555 1_555
O1_14 C11_14 1_555 1_555
O2_14 Eu4_6 1_555 1_555
O15_4 C12_14 1_555 1_555
O17_4 C12_14 1_555 1_555
O18_8 C23_14 1_555 1_555
O19_8 C23_14 1_555 1_555
O7_14 Eu4_6 1_555 1_555
O8_14 Eu6_4 1_555 1_555
O9_14 Eu4_6 1_555 1_555
O10_14 Eu6_4 1_555 1_555
O20_3 C36_14 1_555 1_555
O22_3 C36_14 1_555 1_555
C1_14 C2_14 1_555 1_555
C2_14 H1_14 1_555 1_555
C3_14 C2_14 1_555 1_555
H2_14 C3_14 1_555 1_555
C4_14 C3_14 1_555 1_555
C5_14 C4_14 1_555 1_555
C6_14 C5_14 1_555 1_555
H3_14 C6_14 1_555 1_555
C7_14 C6_14 1_555 1_555
H4_14 C7_14 1_555 1_555
C8_14 C7_14 1_555 1_555
H5_14 C8_14 1_555 1_555
C9_14 C8_14 1_555 1_555
H6_14 C9_14 1_555 1_555
C10_14 C1_14 1_555 1_555
C11_14 O2_14 1_555 1_555
C12_14 C4_14 1_555 1_555
C13_14 C14_14 1_555 1_555
C14_14 H7_14 1_555 1_555
C15_14 C14_14 1_555 1_555
H8_14 C15_14 1_555 1_555
C16_14 C15_14 1_555 1_555
C17_14 C16_14 1_555 1_555
C18_14 C17_14 1_555 1_555
H9_14 C18_14 1_555 1_555
C19_14 C18_14 1_555 1_555
H10_14 C19_14 1_555 1_555
C20_14 C19_14 1_555 1_555
H11_14 C20_14 1_555 1_555
C21_14 C20_14 1_555 1_555
H12_14 C21_14 1_555 1_555
C22_14 C13_14 1_555 1_555
C23_14 C13_14 1_555 1_555
C24_14 O7_14 1_555 1_555
C25_14 C26_14 1_555 1_555
C26_14 H13_14 1_555 1_555
C27_14 C26_14 1_555 1_555
H14_14 C27_14 1_555 1_555
C28_14 C27_14 1_555 1_555
C29_14 C28_14 1_555 1_555
C30_14 C29_14 1_555 1_555
H15_14 C30_14 1_555 1_555
C31_14 C30_14 1_555 1_555
H16_14 C31_14 1_555 1_555
C32_14 C31_14 1_555 1_555
H17_14 C32_14 1_555 1_555
C33_14 C32_14 1_555 1_555
H18_14 C33_14 1_555 1_555
C34_14 C25_14 1_555 1_555
C35_14 O9_14 1_555 1_555
C36_14 C28_14 1_555 1_555
O13_14 Eu4_6 1_555 1_555
O14_14 Eu4_6 1_555 1_555
Eu6_4 O7_14 1_555 1_555
O8_14 C24_14 1_555 1_555
O10_14 C35_14 1_555 1_555
C1_14 C11_14 1_555 1_555
C5_14 C10_14 1_555 1_555
C9_14 C10_14 1_555 1_555
C16_14 C24_14 1_555 1_555
C17_14 C22_14 1_555 1_555
C21_14 C22_14 1_555 1_555
C25_14 C35_14 1_555 1_555
C29_14 C34_14 1_555 1_555
C33_14 C34_14 1_555 1_555
O13_14 H19_14 1_555 1_555
O13_14 H20_14 1_555 1_555
O14_14 H21_14 1_555 1_555
O14_14 H22_14 1_555 1_555
Eu7_2 O1_15 1_555 1_555
O1_15 C11_15 1_555 1_555
O16_6 C12_15 1_555 1_555
O17_7 C12_15 1_555 1_555
O8_15 Eu7_2 1_555 1_555
O10_15 Eu7_2 1_555 1_555
C1_15 C2_15 1_555 1_555
C3_15 C2_15 1_555 1_555
H2_15 C3_15 1_555 1_555
C4_15 C3_15 1_555 1_555
C5_15 C4_15 1_555 1_555
C6_15 C5_15 1_555 1_555
H3_15 C6_15 1_555 1_555
C7_15 C6_15 1_555 1_555
C8_15 C7_15 1_555 1_555
H5_15 C8_15 1_555 1_555
C9_15 C8_15 1_555 1_555
H6_15 C9_15 1_555 1_555
C10_15 C1_15 1_555 1_555
C12_15 C4_15 1_555 1_555
C13_15 C14_15 1_555 1_555
C14_15 H7_15 1_555 1_555
C15_15 C14_15 1_555 1_555
H8_15 C15_15 1_555 1_555
C16_15 C15_15 1_555 1_555
C17_15 C16_15 1_555 1_555
C24_15 O7_15 1_555 1_555
C25_15 C26_15 1_555 1_555
C29_15 C28_15 1_555 1_555
C30_15 C29_15 1_555 1_555
H15_15 C30_15 1_555 1_555
C31_15 C30_15 1_555 1_555
H16_15 C31_15 1_555 1_555
C32_15 C31_15 1_555 1_555
H17_15 C32_15 1_555 1_555
C33_15 C32_15 1_555 1_555
H18_15 C33_15 1_555 1_555
C34_15 C25_15 1_555 1_555
C35_15 O9_15 1_555 1_555
Eu7_2 O7_15 1_555 1_555
O8_15 C24_15 1_555 1_555
O10_15 C35_15 1_555 1_555
C1_15 C11_15 1_555 1_555
C5_15 C10_15 1_555 1_555
C9_15 C10_15 1_555 1_555
C16_15 C24_15 1_555 1_555
C25_15 C35_15 1_555 1_555
C29_15 C34_15 1_555 1_555
C33_15 C34_15 1_555 1_555
O2_15 Eu3 1_555 1_555
O18 C23_15 1_555 1_555
O20_8 C36_15 1_555 1_555
C19_15 C18_15 1_555 1_555
H10_15 C19_15 1_555 1_555
C20_15 C19_15 1_555 1_555
H11_15 C20_15 1_555 1_555
C21_15 C20_15 1_555 1_555
H12_15 C21_15 1_555 1_555
H14_15 C27_15 1_555 1_555
O13_15 Eu3 1_555 1_555
O14_15 Eu3 1_555 1_555
C21_15 C22_15 1_555 1_555
O13_15 H19_15 1_555 1_555
O13_15 H20_15 1_555 1_555
O14_15 H21_15 1_555 1_555
O14_15 H22_15 1_555 1_555
O18_2 C23_16 1_555 1_555
O19_2 C23_16 1_555 1_555
C13_16 C14_16 1_555 1_555
C14_16 H7_16 1_555 1_555
C15_16 C14_16 1_555 1_555
H8_16 C15_16 1_555 1_555
C16_16 C15_16 1_555 1_555
C17_16 C16_16 1_555 1_555
C18_16 C17_16 1_555 1_555
H9_16 C18_16 1_555 1_555
C19_16 C18_16 1_555 1_555
H10_16 C19_16 1_555 1_555
C20_16 C19_16 1_555 1_555
H11_16 C20_16 1_555 1_555
C21_16 C20_16 1_555 1_555
H12_16 C21_16 1_555 1_555
C22_16 C13_16 1_555 1_555
C23_16 C13_16 1_555 1_555
C24_16 O7_16 1_555 1_555
O8_16 C24_16 1_555 1_555
C16_16 C24_16 1_555 1_555
C17_16 C22_16 1_555 1_555
C21_16 C22_16 1_555 1_555
O13_16 H19_16 1_555 1_555
O13_16 H20_16 1_555 1_555
Eu3_2 O1_16 1_555 1_555
Eu7 O1_16 1_555 1_555
O1_16 C11_16 1_555 1_555
O2_16 Eu3_2 1_555 1_555
O16_5 C12_16 1_555 1_555
O17_8 C12_16 1_555 1_555
O9_16 Eu3_2 1_555 1_555
O10_16 Eu7 1_555 1_555
O20_7 C36_16 1_555 1_555
O21_6 C36_16 1_555 1_555
C1_16 C2_16 1_555 1_555
C2_16 H1_16 1_555 1_555
C3_16 C2_16 1_555 1_555
H2_16 C3_16 1_555 1_555
C4_16 C3_16 1_555 1_555
C5_16 C4_16 1_555 1_555
C6_16 C5_16 1_555 1_555
H3_16 C6_16 1_555 1_555
C7_16 C6_16 1_555 1_555
H4_16 C7_16 1_555 1_555
C8_16 C7_16 1_555 1_555
H5_16 C8_16 1_555 1_555
C9_16 C8_16 1_555 1_555
H6_16 C9_16 1_555 1_555
C10_16 C1_16 1_555 1_555
C11_16 O2_16 1_555 1_555
C12_16 C4_16 1_555 1_555
C25_16 C26_16 1_555 1_555
C26_16 H13_16 1_555 1_555
C27_16 C26_16 1_555 1_555
H14_16 C27_16 1_555 1_555
C28_16 C27_16 1_555 1_555
C29_16 C28_16 1_555 1_555
C30_16 C29_16 1_555 1_555
H15_16 C30_16 1_555 1_555
C31_16 C30_16 1_555 1_555
H16_16 C31_16 1_555 1_555
C32_16 C31_16 1_555 1_555
H17_16 C32_16 1_555 1_555
C33_16 C32_16 1_555 1_555
H18_16 C33_16 1_555 1_555
C34_16 C25_16 1_555 1_555
C35_16 O9_16 1_555 1_555
C36_16 C28_16 1_555 1_555
O14_16 Eu3_2 1_555 1_555
O10_16 C35_16 1_555 1_555
C1_16 C11_16 1_555 1_555
C5_16 C10_16 1_555 1_555
C9_16 C10_16 1_555 1_555
C25_16 C35_16 1_555 1_555
C29_16 C34_16 1_555 1_555
C33_16 C34_16 1_555 1_555
O14_16 H21_16 1_555 1_555
O14_16 H22_16 1_555 1_555

#END
