
###############################################################################
#
# This file contains modified crystal structure data generated from the
# MOF subset of the Cambridge Structural Database (CSD) v543 
# hosted by the Cambridge Crystallographic Data Centre (CCDC).
#
# This work is licensed under the Creative Commons
# Attribution-NonCommercial-ShareAlike 4.0 International License.
# To view a copy of this license, visit
# http://creativecommons.org/licenses/by-nc-sa/4.0/
# or send a letter to
# Creative Commons, PO Box 1866, Mountain View, CA 94042, USA.
#
# CIF created using the CSD Python API on 29 September 2022
# The structure has been converted into the P1 space group
# The structure has a 3D framework
# The original CSD entry SARMOO is in the monoclinic crystal system
# The framework has been calculated to contain at least 10.0% void space
# The void calculation uses a probe of radius 1.32A, grid spacing 0.4
#
###############################################################################

data_SARMOO
_chemical_formula_moiety         '(C164 H112 Eu7 N3 O58)n'
_symmetry_cell_setting           triclinic
_symmetry_space_group_name_H-M   'P 1'
_symmetry_Int_Tables_number      1
_space_group_name_Hall           'P 1'
loop_
_symmetry_equiv_pos_site_id
_symmetry_equiv_pos_as_xyz
1 x,y,z
_cell_length_a                   14.240(5)
_cell_length_b                   22.191(7)
_cell_length_c                   15.185(5)
_cell_angle_alpha                90
_cell_angle_beta                 102.980(5)
_cell_angle_gamma                90
_cell_volume                     4675.85
loop_
_atom_site_label
_atom_site_type_symbol
_atom_site_fract_x
_atom_site_fract_y
_atom_site_fract_z
Eu6 Eu 0.00156(2) 0.224319(13) 0.935940(19)
Eu10 Eu 0.29775(2) 0.745878(13) 0.165435(19)
O29 O 0.1108(3) 0.74448(18) 0.1996(3)
O32 O 0.2409(3) 0.7634(2) 0.3038(2)
C66 C 0.1515(5) 0.7584(3) 0.2801(4)
C67 C 0.0928(4) 0.7649(3) 0.3504(4)
C68 C 0.0248(4) 0.7234(3) 0.3509(4)
H47 H 0.0115 0.6948 0.3050
C71 C 0.0591(5) 0.8104(3) 0.4873(4)
C72 C 0.1116(5) 0.8113(3) 0.4178(4)
C73 C 0.1771(5) 0.8581(3) 0.4148(4)
H49 H 0.2080 0.8598 0.3670
C74 C 0.1966(6) 0.9016(3) 0.4810(5)
H50 H 0.2416 0.9317 0.4794
C75 C 0.1468(6) 0.8993(3) 0.5510(5)
H51 H 0.1596 0.9284 0.5963
C76 C 0.0811(5) 0.8562(3) 0.5544(4)
H52 H 0.0493 0.8564 0.6016
Eu5 Eu 0.50156(2) 0.275681(13) 0.435940(19)
Eu9 Eu 0.70225(2) 0.254122(13) 0.834565(19)
O16 O 0.9036(3) 0.14222(18) 0.8875(3)
O18 O 0.7463(3) 0.15238(19) 0.8419(3)
N2 N 0.5102(4) 0.1585(2) 0.4637(4)
C42 C 0.8213(5) 0.1220(3) 0.8545(4)
C43 C 0.8143(4) 0.0562(2) 0.8292(4)
C44 C 0.8867(5) 0.0332(3) 0.7939(4)
H35 H 0.9381 0.0576 0.7882
C48 C 0.7370(4) 0.0188(3) 0.8410(4)
C49 C 0.6614(5) 0.0388(3) 0.8819(4)
H37 H 0.6600 0.0789 0.8992
C50 C 0.5923(5) 0.0012(3) 0.8959(4)
H38 H 0.5434 0.0155 0.9219
C78 C 0.4687(6) 0.1214(3) 0.3999(5)
H53 H 0.4422 0.1376 0.3433
C79 C 0.4613(6) 0.0590(3) 0.4105(5)
H54 H 0.4286 0.0354 0.3627
C80 C 0.5032(5) 0.0324(3) 0.4929(4)
C81 C 0.5520(5) 0.0716(3) 0.5591(4)
H55 H 0.5839 0.0565 0.6149
C82 C 0.5533(5) 0.1321(3) 0.5425(5)
H56 H 0.5861 0.1567 0.5888
O11 O 0.4183(3) 0.6959(2) 0.1039(3)
O12 O 0.3775(3) 0.78664(19) 0.0539(3)
C34 C 0.6468(6) 0.6007(3) 0.0510(5)
H23 H 0.6596 0.5716 0.0963
C35 C 0.5811(5) 0.6438(3) 0.0544(4)
H24 H 0.5493 0.6436 0.1016
C36 C 0.4251(4) 0.7391(3) 0.0528(4)
O17 O 0.0964(3) 0.85778(18) 0.1125(3)
O22 O 0.1702(3) 0.73692(17) 0.0308(2)
H44 H 0.3263 0.5536 0.0013
Eu1 Eu 0.49844(2) 0.724319(13) 0.564060(19)
Eu2 Eu 0.79775(2) 0.754122(13) 0.665435(19)
O1 O 0.5964(3) 0.64222(18) 0.6125(3)
O2 O 0.7537(3) 0.65238(19) 0.6581(3)
O3 O 0.6302(3) 0.33425(18) 0.7167(3)
O4 O 0.7536(3) 0.35770(18) 0.8260(3)
O5 O 0.6702(3) 0.76308(17) 0.5308(2)
O6 O 0.5464(3) 0.74689(19) 0.4186(2)
O7 O 0.8855(3) 0.73272(19) 0.1507(2)
O8 O 0.9108(3) 0.8295(2) 0.1609(3)
O9 O 0.6108(3) 0.75552(18) 0.6996(3)
O10 O 0.7409(3) 0.7366(2) 0.8038(2)
O13 O 0.4565(3) 0.64100(17) 0.4611(3)
H1 H 0.4975 0.6144 0.4574
H2 H 0.3923 0.6262 0.4449
O14 O 0.3370(3) 0.74116(19) 0.4721(2)
H3 H 0.3235 0.7723 0.4996
H4 H 0.3157 0.7429 0.4152
O15 O 0.9369(3) 0.70941(18) 0.7592(2)
H5 H 0.9700 0.7231 0.8087
H6 H 0.9622 0.6729 0.7410
N1 N 0.4898(4) 0.8415(2) 0.5363(4)
C1 C 0.6787(5) 0.6220(3) 0.6455(4)
C2 C 0.6857(4) 0.5562(2) 0.6708(4)
C3 C 0.6133(5) 0.5332(3) 0.7061(4)
H7 H 0.5619 0.5576 0.7118
C4 C 0.6160(5) 0.4725(3) 0.7341(4)
H8 H 0.5675 0.4578 0.7602
C5 C 0.6881(5) 0.4353(3) 0.7235(4)
C6 C 0.7629(4) 0.4572(3) 0.6836(4)
C7 C 0.7630(4) 0.5188(3) 0.6590(4)
C8 C 0.8386(5) 0.5388(3) 0.6181(4)
H9 H 0.8400 0.5789 0.6008
C9 C 0.9077(5) 0.5012(3) 0.6041(4)
H10 H 0.9566 0.5155 0.5781
C10 C 0.9063(5) 0.4399(3) 0.6286(4)
H11 H 0.9536 0.4138 0.6178
C11 C 0.8368(5) 0.4192(3) 0.6675(4)
H12 H 0.8373 0.3789 0.6842
C12 C 0.6904(5) 0.3716(3) 0.7569(4)
C13 C 0.6327(5) 0.7624(3) 0.4463(4)
C14 C 0.6915(4) 0.7757(3) 0.3785(4)
C15 C 0.6821(5) 0.7366(3) 0.3069(4)
H13 H 0.6353 0.7066 0.2991
C16 C 0.7417(5) 0.7412(3) 0.2457(4)
H14 H 0.7359 0.7128 0.1997
C17 C 0.8081(5) 0.7861(3) 0.2513(4)
C18 C 0.8141(5) 0.8316(3) 0.3184(4)
C19 C 0.7554(5) 0.8250(3) 0.3841(4)
C20 C 0.7610(5) 0.8711(3) 0.4505(4)
H15 H 0.7211 0.8688 0.4912
C21 C 0.8224(6) 0.9178(3) 0.4559(4)
H16 H 0.8263 0.9464 0.5013
C22 C 0.8805(5) 0.9232(3) 0.3931(5)
H17 H 0.9218 0.9561 0.3965
C23 C 0.8776(5) 0.8814(3) 0.3275(4)
H18 H 0.9181 0.8855 0.2876
C24 C 0.8724(5) 0.7835(3) 0.1838(4)
C25 C 0.6515(5) 0.7416(3) 0.7801(4)
C26 C 0.5928(4) 0.7351(3) 0.8504(4)
C27 C 0.5248(4) 0.7766(3) 0.8509(4)
H19 H 0.5115 0.8052 0.8050
C28 C 0.4726(4) 0.7778(3) 0.9201(4)
H20 H 0.4265 0.8075 0.9201
C29 C 0.4901(4) 0.7351(3) 0.9868(4)
C30 C 0.5591(5) 0.6896(3) 0.9873(4)
C31 C 0.6116(5) 0.6887(3) 0.9178(4)
C32 C 0.6771(5) 0.6419(3) 0.9148(4)
H21 H 0.7080 0.6402 0.8670
C33 C 0.6966(6) 0.5984(3) 0.9810(5)
H22 H 0.7416 0.5683 0.9794
C37 C 0.5313(6) 0.8786(3) 0.6001(5)
H25 H 0.5578 0.8624 0.6567
C38 C 0.5387(6) 0.9410(3) 0.5895(5)
H26 H 0.5714 0.9646 0.6373
C39 C 0.4968(5) 0.9676(3) 0.5071(4)
C40 C 0.4480(5) 0.9284(3) 0.4409(4)
H27 H 0.4161 0.9435 0.3851
C41 C 0.4467(5) 0.8679(3) 0.4575(5)
H28 H 0.4139 0.8433 0.4112
Eu4 Eu 0.99844(2) 0.775681(13) 0.064060(19)
O20 O 0.8698(3) 0.83425(18) 0.7833(3)
O21 O 0.7464(3) 0.85770(18) 0.6740(3)
O23 O 0.8298(3) 0.26308(17) 0.9692(2)
O24 O 0.0464(3) 0.75311(19) 0.9186(2)
O25 O 0.3855(3) 0.76728(19) 0.6507(2)
O27 O 0.4108(3) 0.6705(2) 0.6609(3)
O31 O 0.8892(3) 0.25552(18) 0.8004(3)
O33 O 0.7591(3) 0.2366(2) 0.6962(2)
O34 O 0.9183(3) 0.8041(2) 0.6039(3)
O35 O 0.5817(3) 0.3041(2) 0.8961(3)
O36 O 0.8775(3) 0.71336(19) 0.5539(3)
O37 O 0.6225(3) 0.21336(19) 0.9461(3)
O40 O 0.5631(3) 0.20941(18) 0.7408(2)
H33 H 0.5300 0.2231 0.6913
H34 H 0.5378 0.1729 0.7590
C45 C 0.8840(5) 0.9725(3) 0.7659(4)
H36 H 0.9325 0.9578 0.7398
C46 C 0.8119(5) 0.9353(3) 0.7765(4)
C47 C 0.7371(4) 0.9572(3) 0.8164(4)
C51 C 0.5937(5) 0.9399(3) 0.8714(4)
H39 H 0.5464 0.9138 0.8822
C52 C 0.6632(5) 0.9192(3) 0.8325(4)
H40 H 0.6627 0.8789 0.8158
C53 C 0.8096(5) 0.8716(3) 0.7431(4)
C54 C 0.1327(5) 0.7376(3) 0.9463(4)
C55 C 0.1915(4) 0.7243(3) 0.8785(4)
C56 C 0.1821(5) 0.7634(3) 0.8069(4)
H41 H 0.1353 0.7934 0.7991
C57 C 0.2417(5) 0.7588(3) 0.7457(4)
H42 H 0.2359 0.7872 0.6997
C58 C 0.3081(5) 0.7139(3) 0.7513(4)
C59 C 0.3141(5) 0.6684(3) 0.8184(4)
C60 C 0.2554(5) 0.6750(3) 0.8841(4)
C61 C 0.2610(5) 0.6289(3) 0.9505(4)
H43 H 0.2211 0.6312 0.9912
C62 C 0.3224(6) 0.5822(3) 0.9559(4)
C63 C 0.3805(5) 0.5768(3) 0.8931(5)
H45 H 0.4218 0.5439 0.8965
C64 C 0.3776(5) 0.6186(3) 0.8275(4)
H46 H 0.4181 0.6145 0.7876
C65 C 0.3724(5) 0.7165(3) 0.6838(4)
C69 C 0.9726(4) 0.7222(3) 0.4201(4)
H48 H 0.9265 0.6925 0.4201
C70 C 0.9901(4) 0.7649(3) 0.4868(4)
C77 C 0.9251(4) 0.7609(3) 0.5528(4)
N3 N 0.9898(4) 0.6585(2) 0.0363(4)
O38 O 0.9565(3) 0.85900(17) 0.9611(3)
H29 H 0.9975 0.8856 0.9574
H30 H 0.8923 0.8738 0.9449
O39 O 0.8370(3) 0.75884(19) 0.9721(2)
H31 H 0.8235 0.7277 0.9996
H32 H 0.8157 0.7571 0.9152
O13_2 O 0.0435(3) 0.14100(17) 0.0389(3)
H1_2 H 0.0025 0.1144 0.0426
H2_2 H 0.1077 0.1262 0.0551
O14_2 O 0.1630(3) 0.24116(19) 0.0279(2)
H3_2 H 0.1765 0.2723 0.0004
H4_2 H 0.1843 0.2429 0.0848
C40_2 C 0.0520(5) 0.4284(3) 0.0591(4)
H27_2 H 0.0839 0.4435 0.1149
C41_2 C 0.0533(5) 0.3679(3) 0.0425(5)
H28_2 H 0.0861 0.3433 0.0888
C78_2 C 0.0313(6) 0.6214(3) 0.1001(5)
H53_2 H 0.0578 0.6376 0.1567
C79_2 C 0.0387(6) 0.5590(3) 0.0895(5)
H54_2 H 0.0714 0.5354 0.1373
O11_2 O 0.0817(3) 0.1959(2) 0.3961(3)
O12_2 O 0.1225(3) 0.28664(19) 0.4461(3)
N1_2 N 0.0102(4) 0.3415(2) 0.9637(4)
C28_2 C 0.0274(4) 0.2778(3) 0.5799(4)
H20_2 H 0.0735 0.3075 0.5799
C29_2 C 0.0099(4) 0.2351(3) 0.5132(4)
C36_2 C 0.0749(4) 0.2391(3) 0.4472(4)
C39_2 C 0.0032(5) 0.4676(3) 0.9929(4)
Eu8 Eu 0.20225(2) 0.245878(13) 0.334565(19)
O17_2 O 0.4036(3) 0.35778(18) 0.3875(3)
O22_2 O 0.3298(3) 0.23692(17) 0.4692(2)
O24_2 O 0.4536(3) 0.25311(19) 0.5814(2)
O25_2 O 0.1145(3) 0.26728(19) 0.8493(2)
O26 O 0.6145(3) 0.23272(19) 0.3493(2)
O27_2 O 0.0892(3) 0.1705(2) 0.8391(3)
O28 O 0.5892(3) 0.3295(2) 0.3391(3)
O30 O 0.3892(3) 0.24448(18) 0.3004(3)
O38_2 O 0.5435(3) 0.35900(17) 0.5389(3)
H29_2 H 0.5025 0.3856 0.5426
H30_2 H 0.6077 0.3738 0.5551
O39_2 O 0.6630(3) 0.25884(19) 0.5279(2)
H31_2 H 0.6765 0.2277 0.5004
H32_2 H 0.6843 0.2571 0.5848
C54_2 C 0.3673(5) 0.2376(3) 0.5537(4)
C55_2 C 0.3085(4) 0.2243(3) 0.6215(4)
C56_2 C 0.3179(5) 0.2634(3) 0.6931(4)
H41_2 H 0.3647 0.2934 0.7009
C57_2 C 0.2583(5) 0.2588(3) 0.7543(4)
H42_2 H 0.2641 0.2872 0.8003
C58_2 C 0.1919(5) 0.2139(3) 0.7487(4)
C59_2 C 0.1859(5) 0.1684(3) 0.6816(4)
C60_2 C 0.2446(5) 0.1750(3) 0.6159(4)
C61_2 C 0.2390(5) 0.1289(3) 0.5495(4)
H43_2 H 0.2789 0.1312 0.5088
C62_2 C 0.1776(6) 0.0822(3) 0.5441(4)
H44_2 H 0.1737 0.0536 0.4987
C63_2 C 0.1195(5) 0.0768(3) 0.6069(5)
H45_2 H 0.0782 0.0439 0.6035
C64_2 C 0.1224(5) 0.1186(3) 0.6725(4)
H46_2 H 0.0819 0.1145 0.7124
C65_2 C 0.1276(5) 0.2165(3) 0.8162(4)
O6_2 O 0.9536(3) 0.24689(19) 0.0814(2)
C13_2 C 0.8673(5) 0.2624(3) 0.0537(4)
C14_2 C 0.8085(4) 0.2757(3) 0.1215(4)
C15_2 C 0.8179(5) 0.2366(3) 0.1931(4)
H13_2 H 0.8647 0.2066 0.2009
C16_2 C 0.7583(5) 0.2412(3) 0.2543(4)
H14_2 H 0.7641 0.2128 0.3003
C17_2 C 0.6919(5) 0.2861(3) 0.2487(4)
C18_2 C 0.6859(5) 0.3316(3) 0.1816(4)
C19_2 C 0.7446(5) 0.3250(3) 0.1159(4)
C20_2 C 0.7390(5) 0.3711(3) 0.0495(4)
H15_2 H 0.7789 0.3688 0.0088
C21_2 C 0.6776(6) 0.4178(3) 0.0441(4)
C22_2 C 0.6195(5) 0.4232(3) 0.1069(5)
H17_2 H 0.5782 0.4561 0.1035
C23_2 C 0.6224(5) 0.3814(3) 0.1725(4)
H18_2 H 0.5819 0.3855 0.2124
C24_2 C 0.6276(5) 0.2835(3) 0.3162(4)
O32_2 O 0.2591(3) 0.2634(2) 0.1962(2)
C66_2 C 0.3485(5) 0.2584(3) 0.2199(4)
C67_2 C 0.4072(4) 0.2649(3) 0.1496(4)
C68_2 C 0.4752(4) 0.2234(3) 0.1491(4)
H47_2 H 0.4885 0.1948 0.1950
C69_2 C 0.5274(4) 0.2222(3) 0.0799(4)
H48_2 H 0.5735 0.1925 0.0799
C70_2 C 0.5099(4) 0.2649(3) 0.0132(4)
C71_2 C 0.4409(5) 0.3104(3) 0.0127(4)
C72_2 C 0.3884(5) 0.3113(3) 0.0822(4)
C73_2 C 0.3229(5) 0.3581(3) 0.0852(4)
H49_2 H 0.2920 0.3598 0.1330
C74_2 C 0.3034(6) 0.4016(3) 0.0190(5)
H50_2 H 0.2584 0.4317 0.0206
C80_2 C 0.9968(5) 0.5324(3) 0.0071(4)
H16_2 H 0.6737 0.4464 0.9987
C25_2 C 0.8485(5) 0.2416(3) 0.7199(4)
C26_2 C 0.9072(4) 0.2351(3) 0.6496(4)
C27_2 C 0.9752(4) 0.2766(3) 0.6491(4)
H19_2 H 0.9885 0.3052 0.6950
C30_2 C 0.9409(5) 0.1896(3) 0.5127(4)
C31_2 C 0.8884(5) 0.1887(3) 0.5822(4)
C32_2 C 0.8229(5) 0.1419(3) 0.5852(4)
H21_2 H 0.7920 0.1402 0.6330
C33_2 C 0.8034(6) 0.0984(3) 0.5190(5)
H22_2 H 0.7584 0.0683 0.5206
C34_2 C 0.8532(6) 0.1007(3) 0.4490(5)
H23_2 H 0.8404 0.0716 0.4037
C35_2 C 0.9189(5) 0.1438(3) 0.4456(4)
H24_2 H 0.9507 0.1436 0.3984
C37_2 C 0.9687(6) 0.3786(3) 0.8999(5)
H25_2 H 0.9422 0.3624 0.8433
C38_2 C 0.9613(6) 0.4410(3) 0.9105(5)
H26_2 H 0.9286 0.4646 0.8627
C75_2 C 0.3532(6) 0.3993(3) 0.9490(5)
H51_2 H 0.3404 0.4284 0.9037
C76_2 C 0.4189(5) 0.3562(3) 0.9456(4)
H52_2 H 0.4507 0.3564 0.8984
C77_2 C 0.5749(4) 0.2609(3) 0.9472(4)
C81_2 C 0.9480(5) 0.5716(3) 0.9409(4)
H55_2 H 0.9161 0.5565 0.8851
C82_2 C 0.9467(5) 0.6321(3) 0.9575(5)
H56_2 H 0.9139 0.6567 0.9112
O2_2 O 0.2463(3) 0.34762(19) 0.3419(3)
O3_2 O 0.3698(3) 0.66575(18) 0.2833(3)
O4_2 O 0.2464(3) 0.64230(18) 0.1740(3)
O15_2 O 0.0631(3) 0.29059(18) 0.2408(2)
H5_2 H 0.0300 0.2769 0.1913
H6_2 H 0.0378 0.3271 0.2590
C1_2 C 0.3213(5) 0.3780(3) 0.3545(4)
C2_2 C 0.3143(4) 0.4438(2) 0.3292(4)
C3_2 C 0.3867(5) 0.4668(3) 0.2939(4)
H7_2 H 0.4381 0.4424 0.2882
C4_2 C 0.3840(5) 0.5275(3) 0.2659(4)
H8_2 H 0.4325 0.5422 0.2398
C5_2 C 0.3119(5) 0.5647(3) 0.2765(4)
C6_2 C 0.2371(4) 0.5428(3) 0.3164(4)
C7_2 C 0.2370(4) 0.4812(3) 0.3410(4)
C8_2 C 0.1614(5) 0.4612(3) 0.3819(4)
H9_2 H 0.1600 0.4211 0.3992
C9_2 C 0.0923(5) 0.4988(3) 0.3959(4)
H10_2 H 0.0434 0.4845 0.4219
C10_2 C 0.0937(5) 0.5601(3) 0.3714(4)
H11_2 H 0.0464 0.5862 0.3822
C11_2 C 0.1632(5) 0.5808(3) 0.3325(4)
H12_2 H 0.1627 0.6211 0.3158
C12_2 C 0.3096(5) 0.6284(3) 0.2431(4)
O19 O 0.2537(3) 0.84762(19) 0.1581(3)
O20_2 O 0.1302(3) 0.16575(18) 0.2167(3)
O21_2 O 0.2536(3) 0.14230(18) 0.3260(3)
O40_2 O 0.4369(3) 0.79059(18) 0.2592(2)
H33_2 H 0.4700 0.7769 0.3087
H34_2 H 0.4622 0.8271 0.2410
C45_2 C 0.1160(5) 0.0275(3) 0.2341(4)
H36_2 H 0.0675 0.0422 0.2602
C46_2 C 0.1881(5) 0.0647(3) 0.2235(4)
C47_2 C 0.2629(4) 0.0428(3) 0.1836(4)
C51_2 C 0.4063(5) 0.0601(3) 0.1286(4)
H39_2 H 0.4536 0.0862 0.1178
C52_2 C 0.3368(5) 0.0808(3) 0.1675(4)
H40_2 H 0.3373 0.1211 0.1842
C53_2 C 0.1904(5) 0.1284(3) 0.2569(4)
C42_2 C 0.1787(5) 0.8780(3) 0.1455(4)
C43_2 C 0.1857(4) 0.9438(2) 0.1708(4)
C44_2 C 0.1133(5) 0.9668(3) 0.2061(4)
H35_2 H 0.0619 0.9424 0.2118
C48_2 C 0.2630(4) 0.9812(3) 0.1590(4)
C49_2 C 0.3386(5) 0.9612(3) 0.1181(4)
H37_2 H 0.3400 0.9211 0.1008
C50_2 C 0.4077(5) 0.9988(3) 0.1041(4)
H38_2 H 0.4566 0.9845 0.0781
loop_
_geom_bond_atom_site_label_1
_geom_bond_atom_site_label_2
_geom_bond_site_symmetry_1
_geom_bond_site_symmetry_2
Eu10 O29 1_555 1_555
O32 Eu10 1_555 1_555
C66 O29 1_555 1_555
C67 C66 1_555 1_555
C68 C67 1_555 1_555
H47 C68 1_555 1_555
C72 C67 1_555 1_555
C73 C72 1_555 1_555
H49 C73 1_555 1_555
C74 C73 1_555 1_555
H50 C74 1_555 1_555
C75 C74 1_555 1_555
H51 C75 1_555 1_555
C76 C71 1_555 1_555
H52 C76 1_555 1_555
O32 C66 1_555 1_555
C71 C72 1_555 1_555
C75 C76 1_555 1_555
Eu5 N2 1_555 1_555
Eu9 O18 1_555 1_555
O16 C42 1_555 1_555
O18 C42 1_555 1_555
N2 C78 1_555 1_555
C42 C43 1_555 1_555
C43 C44 1_555 1_555
C44 H35 1_555 1_555
C48 C43 1_555 1_555
C49 C48 1_555 1_555
H37 C49 1_555 1_555
C50 C49 1_555 1_555
H38 C50 1_555 1_555
C78 H53 1_555 1_555
C79 C78 1_555 1_555
H54 C79 1_555 1_555
C81 C80 1_555 1_555
H55 C81 1_555 1_555
C82 N2 1_555 1_555
H56 C82 1_555 1_555
C79 C80 1_555 1_555
C81 C82 1_555 1_555
O11 C36 1_555 1_555
O12 C36 1_555 1_555
H23 C34 1_555 1_555
H24 C35 1_555 1_555
Eu10 O11 1_555 1_555
O12 Eu10 1_555 1_555
C34 C35 1_555 1_555
Eu10 O22 1_555 1_555
Eu1 O1 1_555 1_555
Eu2 O2 1_555 1_555
O1 C1 1_555 1_555
O2 C1 1_555 1_555
O3 C12 1_555 1_555
O4 C12 1_555 1_555
O5 Eu1 1_555 1_555
O6 Eu1 1_555 1_555
O7 C24 1_555 1_555
O8 C24 1_555 1_555
O9 Eu1 1_555 1_555
O10 Eu2 1_555 1_555
O13 Eu1 1_555 1_555
H1 O13 1_555 1_555
H2 O13 1_555 1_555
O14 Eu1 1_555 1_555
H3 O14 1_555 1_555
H4 O14 1_555 1_555
O15 Eu2 1_555 1_555
H5 O15 1_555 1_555
H6 O15 1_555 1_555
N1 Eu1 1_555 1_555
C1 C2 1_555 1_555
C2 C3 1_555 1_555
C3 H7 1_555 1_555
C4 C3 1_555 1_555
H8 C4 1_555 1_555
C5 C4 1_555 1_555
C6 C5 1_555 1_555
C7 C2 1_555 1_555
C8 C7 1_555 1_555
H9 C8 1_555 1_555
C9 C8 1_555 1_555
H10 C9 1_555 1_555
C10 C9 1_555 1_555
H11 C10 1_555 1_555
C11 C6 1_555 1_555
H12 C11 1_555 1_555
C12 C5 1_555 1_555
C13 O5 1_555 1_555
C14 C13 1_555 1_555
C15 C14 1_555 1_555
H13 C15 1_555 1_555
C16 C15 1_555 1_555
H14 C16 1_555 1_555
C17 C16 1_555 1_555
C18 C17 1_555 1_555
C19 C14 1_555 1_555
C20 C19 1_555 1_555
H15 C20 1_555 1_555
C21 C20 1_555 1_555
H16 C21 1_555 1_555
C22 C21 1_555 1_555
H17 C22 1_555 1_555
C23 C18 1_555 1_555
H18 C23 1_555 1_555
C24 C17 1_555 1_555
C25 O9 1_555 1_555
C26 C25 1_555 1_555
C27 C26 1_555 1_555
H19 C27 1_555 1_555
C28 C27 1_555 1_555
H20 C28 1_555 1_555
C29 C28 1_555 1_555
C30 C29 1_555 1_555
C31 C26 1_555 1_555
C32 C31 1_555 1_555
H21 C32 1_555 1_555
C33 C32 1_555 1_555
H22 C33 1_555 1_555
C37 N1 1_555 1_555
H25 C37 1_555 1_555
C38 C37 1_555 1_555
H26 C38 1_555 1_555
C39 C38 1_555 1_555
C40 C39 1_555 1_555
H27 C40 1_555 1_555
C41 N1 1_555 1_555
H28 C41 1_555 1_555
Eu4 O7 1_555 1_555
Eu9 O3 1_555 1_555
O20 Eu2 1_555 1_555
O21 Eu2 1_555 1_555
O23 Eu9 1_555 1_555
O25 Eu1 1_555 1_555
O27 Eu1 1_555 1_555
O31 Eu9 1_555 1_555
O33 Eu9 1_555 1_555
O34 Eu2 1_555 1_555
O35 Eu9 1_555 1_555
O36 Eu2 1_555 1_555
O37 Eu9 1_555 1_555
O40 Eu9 1_555 1_555
H33 O40 1_555 1_555
H34 O40 1_555 1_555
H36 C45 1_555 1_555
C46 C45 1_555 1_555
C47 C46 1_555 1_555
H39 C51 1_555 1_555
C52 C47 1_555 1_555
H40 C52 1_555 1_555
C53 O20 1_555 1_555
C55 C54 1_555 1_555
C56 C55 1_555 1_555
H41 C56 1_555 1_555
C57 C56 1_555 1_555
H42 C57 1_555 1_555
C58 C57 1_555 1_555
C59 C58 1_555 1_555
C60 C55 1_555 1_555
C61 C60 1_555 1_555
H43 C61 1_555 1_555
C62 C61 1_555 1_555
C63 C62 1_555 1_555
H45 C63 1_555 1_555
C64 C59 1_555 1_555
H46 C64 1_555 1_555
C65 O25 1_555 1_555
H48 C69 1_555 1_555
C70 C69 1_555 1_555
C77 O34 1_555 1_555
Eu2 O5 1_555 1_555
Eu2 O9 1_555 1_555
O4 Eu9 1_555 1_555
O6 C13 1_555 1_555
O8 Eu4 1_555 1_555
O10 C25 1_555 1_555
C6 C7 1_555 1_555
C10 C11 1_555 1_555
C18 C19 1_555 1_555
C22 C23 1_555 1_555
C30 C31 1_555 1_555
C40 C41 1_555 1_555
O21 C53 1_555 1_555
O24 C54 1_555 1_555
O27 C65 1_555 1_555
O36 C77 1_555 1_555
C46 C53 1_555 1_555
C51 C52 1_555 1_555
C58 C65 1_555 1_555
C59 C60 1_555 1_555
C63 C64 1_555 1_555
C70 C77 1_555 1_555
N3 Eu4 1_555 1_555
H29 O38 1_555 1_555
H30 O38 1_555 1_555
H31 O39 1_555 1_555
H32 O39 1_555 1_555
H1_2 O13_2 1_555 1_555
H2_2 O13_2 1_555 1_555
H3_2 O14_2 1_555 1_555
H4_2 O14_2 1_555 1_555
H27_2 C40_2 1_555 1_555
H28_2 C41_2 1_555 1_555
C78_2 H53_2 1_555 1_555
C79_2 C78_2 1_555 1_555
H54_2 C79_2 1_555 1_555
C40_2 C41_2 1_555 1_555
O11_2 C36_2 1_555 1_555
O12_2 C36_2 1_555 1_555
N1_2 Eu6 1_555 1_555
H20_2 C28_2 1_555 1_555
C29_2 C28_2 1_555 1_555
C36_2 C29_2 1_555 1_555
Eu5 O17_2 1_555 1_555
Eu8 O11_2 1_555 1_555
O22_2 Eu5 1_555 1_555
O24_2 Eu5 1_555 1_555
O25_2 Eu6 1_555 1_555
O26 Eu5 1_555 1_555
O27_2 Eu6 1_555 1_555
O28 Eu5 1_555 1_555
O30 Eu5 1_555 1_555
O38_2 Eu5 1_555 1_555
H29_2 O38_2 1_555 1_555
H30_2 O38_2 1_555 1_555
O39_2 Eu5 1_555 1_555
H31_2 O39_2 1_555 1_555
H32_2 O39_2 1_555 1_555
C54_2 O22_2 1_555 1_555
C55_2 C54_2 1_555 1_555
C56_2 C55_2 1_555 1_555
H41_2 C56_2 1_555 1_555
C57_2 C56_2 1_555 1_555
H42_2 C57_2 1_555 1_555
C58_2 C57_2 1_555 1_555
C59_2 C58_2 1_555 1_555
C60_2 C55_2 1_555 1_555
C61_2 C60_2 1_555 1_555
H43_2 C61_2 1_555 1_555
C62_2 C61_2 1_555 1_555
H44_2 C62_2 1_555 1_555
C63_2 C62_2 1_555 1_555
H45_2 C63_2 1_555 1_555
C64_2 C59_2 1_555 1_555
H46_2 C64_2 1_555 1_555
C65_2 O25_2 1_555 1_555
O12_2 Eu8 1_555 1_555
Eu8 O22_2 1_555 1_555
Eu8 O30 1_555 1_555
O24_2 C54_2 1_555 1_555
O27_2 C65_2 1_555 1_555
C58_2 C65_2 1_555 1_555
C59_2 C60_2 1_555 1_555
C63_2 C64_2 1_555 1_555
O26 C24_2 1_555 1_555
O28 C24_2 1_555 1_555
C14_2 C13_2 1_555 1_555
C15_2 C14_2 1_555 1_555
H13_2 C15_2 1_555 1_555
C16_2 C15_2 1_555 1_555
H14_2 C16_2 1_555 1_555
C17_2 C16_2 1_555 1_555
C18_2 C17_2 1_555 1_555
C19_2 C14_2 1_555 1_555
C20_2 C19_2 1_555 1_555
H15_2 C20_2 1_555 1_555
C21_2 C20_2 1_555 1_555
C22_2 C21_2 1_555 1_555
H17_2 C22_2 1_555 1_555
C23_2 C18_2 1_555 1_555
H18_2 C23_2 1_555 1_555
C24_2 C17_2 1_555 1_555
O32_2 Eu8 1_555 1_555
C66_2 O30 1_555 1_555
C67_2 C66_2 1_555 1_555
C68_2 C67_2 1_555 1_555
H47_2 C68_2 1_555 1_555
C69_2 C68_2 1_555 1_555
H48_2 C69_2 1_555 1_555
C70_2 C69_2 1_555 1_555
C71_2 C70_2 1_555 1_555
C72_2 C67_2 1_555 1_555
C73_2 C72_2 1_555 1_555
H49_2 C73_2 1_555 1_555
C74_2 C73_2 1_555 1_555
H50_2 C74_2 1_555 1_555
O6_2 C13_2 1_555 1_555
C18_2 C19_2 1_555 1_555
C22_2 C23_2 1_555 1_555
O32_2 C66_2 1_555 1_555
C71_2 C72_2 1_555 1_555
C25_2 O31 1_555 1_555
C26_2 C25_2 1_555 1_555
C27_2 C26_2 1_555 1_555
H19_2 C27_2 1_555 1_555
C31_2 C26_2 1_555 1_555
C32_2 C31_2 1_555 1_555
H21_2 C32_2 1_555 1_555
C33_2 C32_2 1_555 1_555
H22_2 C33_2 1_555 1_555
C34_2 C33_2 1_555 1_555
H23_2 C34_2 1_555 1_555
C35_2 C30_2 1_555 1_555
H24_2 C35_2 1_555 1_555
H25_2 C37_2 1_555 1_555
C38_2 C37_2 1_555 1_555
H26_2 C38_2 1_555 1_555
H51_2 C75_2 1_555 1_555
H52_2 C76_2 1_555 1_555
C77_2 O35 1_555 1_555
H55_2 C81_2 1_555 1_555
H56_2 C82_2 1_555 1_555
O33 C25_2 1_555 1_555
C30_2 C31_2 1_555 1_555
C34_2 C35_2 1_555 1_555
O37 C77_2 1_555 1_555
C75_2 C76_2 1_555 1_555
C81_2 C82_2 1_555 1_555
Eu8 O2_2 1_555 1_555
O17_2 C1_2 1_555 1_555
O2_2 C1_2 1_555 1_555
O3_2 C12_2 1_555 1_555
O4_2 C12_2 1_555 1_555
O15_2 Eu8 1_555 1_555
H5_2 O15_2 1_555 1_555
H6_2 O15_2 1_555 1_555
C1_2 C2_2 1_555 1_555
C2_2 C3_2 1_555 1_555
C3_2 H7_2 1_555 1_555
C4_2 C3_2 1_555 1_555
H8_2 C4_2 1_555 1_555
C5_2 C4_2 1_555 1_555
C6_2 C5_2 1_555 1_555
C7_2 C2_2 1_555 1_555
C8_2 C7_2 1_555 1_555
H9_2 C8_2 1_555 1_555
C9_2 C8_2 1_555 1_555
H10_2 C9_2 1_555 1_555
C10_2 C9_2 1_555 1_555
H11_2 C10_2 1_555 1_555
C11_2 C6_2 1_555 1_555
H12_2 C11_2 1_555 1_555
C12_2 C5_2 1_555 1_555
Eu10 O3_2 1_555 1_555
O19 Eu10 1_555 1_555
O20_2 Eu8 1_555 1_555
O21_2 Eu8 1_555 1_555
O40_2 Eu10 1_555 1_555
H33_2 O40_2 1_555 1_555
H34_2 O40_2 1_555 1_555
H36_2 C45_2 1_555 1_555
C46_2 C45_2 1_555 1_555
C47_2 C46_2 1_555 1_555
H39_2 C51_2 1_555 1_555
C52_2 C47_2 1_555 1_555
H40_2 C52_2 1_555 1_555
C53_2 O20_2 1_555 1_555
O4_2 Eu10 1_555 1_555
C6_2 C7_2 1_555 1_555
C10_2 C11_2 1_555 1_555
O21_2 C53_2 1_555 1_555
C46_2 C53_2 1_555 1_555
C51_2 C52_2 1_555 1_555
O17 C42_2 1_555 1_555
O19 C42_2 1_555 1_555
C42_2 C43_2 1_555 1_555
C43_2 C44_2 1_555 1_555
C44_2 H35_2 1_555 1_555
C48_2 C43_2 1_555 1_555
C49_2 C48_2 1_555 1_555
H37_2 C49_2 1_555 1_555
C50_2 C49_2 1_555 1_555
H38_2 C50_2 1_555 1_555

#END
