
###############################################################################
#
# This file contains modified crystal structure data generated from the
# MOF subset of the Cambridge Structural Database (CSD) v543 
# hosted by the Cambridge Crystallographic Data Centre (CCDC).
#
# This work is licensed under the Creative Commons
# Attribution-NonCommercial-ShareAlike 4.0 International License.
# To view a copy of this license, visit
# http://creativecommons.org/licenses/by-nc-sa/4.0/
# or send a letter to
# Creative Commons, PO Box 1866, Mountain View, CA 94042, USA.
#
# CIF created using the CSD Python API on 29 September 2022
# The structure has been converted into the P1 space group
# The structure has a 3D framework
# The original CSD entry SARMUU is in the monoclinic crystal system
# The framework has been calculated to contain at least 10.0% void space
# The void calculation uses a probe of radius 1.32A, grid spacing 0.4
#
###############################################################################

data_SARMUU
_chemical_formula_moiety         '(C164 H112 N4 O60 Yb8)n'
_symmetry_cell_setting           triclinic
_symmetry_space_group_name_H-M   'P 1'
_symmetry_Int_Tables_number      1
_space_group_name_Hall           'P 1'
loop_
_symmetry_equiv_pos_site_id
_symmetry_equiv_pos_as_xyz
1 x,y,z
_cell_length_a                   14.099(5)
_cell_length_b                   21.938(8)
_cell_length_c                   15.066(6)
_cell_angle_alpha                90
_cell_angle_beta                 103.259(8)
_cell_angle_gamma                90
_cell_volume                     4535.75
loop_
_atom_site_label
_atom_site_type_symbol
_atom_site_fract_x
_atom_site_fract_y
_atom_site_fract_z
C72 C 0.086(2) 0.1423(12) 0.0570(19)
H43 H 0.0571 0.1417 0.1067
C73 C 0.150(2) 0.0982(12) 0.050(2)
H44 H 0.1618 0.0666 0.0924
Yb1 Yb 0.49667(9) 0.27459(5) 0.06641(8)
Yb2 Yb 0.30534(9) 0.25677(5) 0.67392(8)
C1 C 0.304(2) 0.2874(11) 0.2526(18)
C2 C 0.2423(19) 0.2402(11) 0.2456(18)
H1 H 0.2361 0.2110 0.1997
C3 C 0.187(2) 0.2381(12) 0.3133(19)
H2 H 0.1383 0.2089 0.3075
C4 C 0.202(2) 0.2771(11) 0.3872(17)
C5 C 0.265(2) 0.3286(12) 0.3904(19)
C6 C 0.319(2) 0.3334(12) 0.323(2)
C7 C 0.381(2) 0.3844(13) 0.329(2)
H3 H 0.4179 0.3893 0.2852
C8 C 0.389(2) 0.4263(13) 0.396(2)
H4 H 0.4329 0.4582 0.4006
C9 C 0.332(2) 0.4216(12) 0.457(2)
H5 H 0.3359 0.4518 0.5015
C10 C 0.272(2) 0.3751(11) 0.4560(19)
H6 H 0.2335 0.3732 0.4988
C11 C 0.366(2) 0.2826(11) 0.1852(19)
C12 C 0.1464(19) 0.2663(10) 0.4606(17)
C13 C 0.6873(19) 0.5624(10) 0.2183(17)
C14 C 0.611(2) 0.5244(12) 0.233(2)
H7 H 0.5616 0.5390 0.2597
C15 C 0.613(2) 0.4636(12) 0.2054(18)
H8 H 0.5606 0.4386 0.2074
C16 C 0.691(2) 0.4386(11) 0.1751(18)
C17 C 0.7671(18) 0.4770(10) 0.1595(16)
C18 C 0.7658(19) 0.5396(11) 0.1842(17)
C19 C 0.837(2) 0.5780(12) 0.1655(19)
H9 H 0.8352 0.6194 0.1786
C20 C 0.909(2) 0.5559(14) 0.128(2)
H10 H 0.9569 0.5825 0.1189
C21 C 0.913(2) 0.4946(13) 0.103(2)
H11 H 0.9611 0.4806 0.0743
C22 C 0.844(2) 0.4565(12) 0.1224(19)
H12 H 0.8483 0.4151 0.1107
C23 C 0.688(2) 0.6275(11) 0.2534(19)
C24 C 0.684(2) 0.3712(13) 0.150(2)
C25 C 0.488(2) 0.2642(11) 0.4928(18)
C26 C 0.471(2) 0.2203(14) 0.427(2)
H13 H 0.4247 0.1903 0.4294
C27 C 0.518(2) 0.2180(13) 0.355(2)
H14 H 0.5025 0.1887 0.3096
C28 C 0.588(2) 0.2595(12) 0.3544(19)
C29 C 0.615(2) 0.3081(12) 0.4188(19)
C30 C 0.561(2) 0.3109(12) 0.493(2)
C31 C 0.586(2) 0.3577(12) 0.5570(19)
H15 H 0.5571 0.3583 0.6067
C32 C 0.650(2) 0.4018(12) 0.550(2)
H16 H 0.6618 0.4334 0.5924
C33 C 0.696(2) 0.3996(13) 0.481(2)
H17 H 0.7417 0.4296 0.4782
C34 C 0.679(2) 0.3557(12) 0.413(2)
H18 H 0.7093 0.3579 0.3643
C35 C 0.431(2) 0.2606(11) 0.5614(18)
C36 C 0.645(2) 0.2523(12) 0.2818(19)
C39 C 0.494(2) 0.0328(12) 0.008(2)
C40 C 0.539(3) 0.0570(15) 0.087(2)
H21 H 0.5747 0.0323 0.1334
C41 C 0.534(3) 0.1184(14) 0.101(2)
H22 H 0.5615 0.1322 0.1594
N1 N 0.4948(17) 0.1592(9) 0.0435(15)
O1 O 0.4142(14) 0.3298(8) 0.1611(13)
O2 O 0.3775(15) 0.2313(9) 0.1474(14)
O3 O 0.0611(13) 0.2466(7) 0.4364(11)
O4 O 0.1883(13) 0.2703(8) 0.5424(12)
O5 O 0.7515(13) 0.6432(7) 0.3211(12)
O6 O 0.6216(13) 0.6636(7) 0.2099(12)
O7 O 0.7603(14) 0.3409(7) 0.1711(12)
O8 O 0.6004(14) 0.3501(7) 0.1127(12)
O9 O 0.3835(14) 0.2139(8) 0.5682(12)
O10 O 0.4210(14) 0.3062(8) 0.6113(12)
O11 O 0.5966(13) 0.2407(8) 0.1999(12)
O12 O 0.7333(14) 0.2549(9) 0.2986(13)
O15 O 0.4387(13) 0.2126(7) 0.7698(11)
H27 H 0.4326 0.1789 0.7959
H28 H 0.4941 0.2299 0.7790
Yb6 Yb 0.50333(9) 0.72541(5) 0.93359(8)
Yb7 Yb 0.80534(9) 0.24323(5) 0.17392(8)
Yb8 Yb 0.69466(9) 0.74323(5) 0.32608(8)
Yb9 Yb 0.19466(9) 0.75677(5) 0.82608(8)
H33 H 0.8359 0.0482 0.0015
C54 C 0.3127(19) 0.4376(10) 0.7817(17)
C55 C 0.389(2) 0.4756(12) 0.767(2)
H35 H 0.4384 0.4610 0.7403
C56 C 0.387(2) 0.5364(12) 0.7946(18)
H36 H 0.4394 0.5614 0.7926
C57 C 0.309(2) 0.5614(11) 0.8249(18)
C58 C 0.2329(18) 0.5230(10) 0.8405(16)
C59 C 0.2342(19) 0.4604(11) 0.8158(17)
C60 C 0.163(2) 0.4220(12) 0.8345(19)
H37 H 0.1648 0.3806 0.8214
C61 C 0.091(2) 0.4441(14) 0.872(2)
H38 H 0.0431 0.4175 0.8811
C62 C 0.087(2) 0.5054(13) 0.897(2)
H39 H 0.0389 0.5194 0.9257
C63 C 0.156(2) 0.5435(12) 0.8776(19)
H40 H 0.1517 0.5849 0.8893
C64 C 0.312(2) 0.3725(11) 0.7466(19)
C65 C 0.316(2) 0.6288(13) 0.850(2)
C68 C 0.018(2) 0.2820(13) 0.855(2)
H42 H 0.0025 0.3113 0.8096
C69 C 0.088(2) 0.2405(12) 0.8544(19)
C70 C 0.115(2) 0.1919(12) 0.9188(19)
C71 C 0.061(2) 0.1891(12) 0.993(2)
C74 C 0.196(2) 0.1004(13) 0.981(2)
H45 H 0.2417 0.0704 0.9782
C75 C 0.179(2) 0.1443(12) 0.913(2)
H46 H 0.2093 0.1421 0.8643
C77 C 0.145(2) 0.2477(12) 0.7818(19)
O22 O 0.6883(13) 0.2297(8) 0.0424(12)
O23 O 0.2485(13) 0.3568(7) 0.6789(12)
O24 O 0.7485(13) 0.1432(7) 0.1789(12)
O25 O 0.3784(13) 0.3364(7) 0.7901(12)
O26 O 0.8784(13) 0.1636(7) 0.2901(12)
O27 O 0.2397(14) 0.6591(7) 0.8289(12)
O28 O 0.2603(14) 0.1591(7) 0.6711(12)
O29 O 0.3996(14) 0.6499(7) 0.8873(12)
O32 O 0.8835(14) 0.2861(8) 0.0682(12)
O34 O 0.9210(14) 0.1938(8) 0.1113(12)
O35 O 0.0966(13) 0.2593(8) 0.6999(12)
O37 O 0.2333(14) 0.2451(9) 0.7986(13)
O40 O 0.9387(13) 0.2874(7) 0.2698(11)
H55 H 0.9326 0.3211 0.2959
H56 H 0.9941 0.2701 0.2790
C37 C 0.446(3) 0.1308(15) 0.960(2)
H19 H 0.4119 0.1564 0.9148
C38 C 0.444(2) 0.0713(13) 0.940(2)
H20 H 0.4114 0.0565 0.8839
O13 O 0.3438(14) 0.2544(8) 0.9718(12)
H23 H 0.3366 0.2249 0.9342
H24 H 0.2954 0.2766 0.9751
O14 O 0.4573(15) 0.3583(7) 0.9695(12)
H25 H 0.5023 0.3804 0.9576
H26 H 0.3980 0.3668 0.9463
Yb5 Yb 0.99667(9) 0.22541(5) 0.56641(8)
C42 C 0.804(2) 0.2126(11) 0.7526(18)
C43 C 0.7423(19) 0.2598(11) 0.7456(18)
H29 H 0.7361 0.2890 0.6997
C44 C 0.687(2) 0.2619(12) 0.8133(19)
H30 H 0.6383 0.2911 0.8075
C45 C 0.702(2) 0.2229(11) 0.8872(17)
C46 C 0.765(2) 0.1714(12) 0.8904(19)
C47 C 0.819(2) 0.1666(12) 0.823(2)
C48 C 0.881(2) 0.1156(13) 0.829(2)
H31 H 0.9179 0.1107 0.7852
C49 C 0.889(2) 0.0737(13) 0.896(2)
H32 H 0.9329 0.0418 0.9006
C50 C 0.832(2) 0.0784(12) 0.957(2)
C51 C 0.772(2) 0.1249(11) 0.9560(19)
H34 H 0.7335 0.1268 0.9988
C52 C 0.866(2) 0.2174(11) 0.6852(19)
C53 C 0.6464(19) 0.2337(10) 0.9606(17)
O16 O 0.9142(14) 0.1702(8) 0.6611(13)
O18 O 0.8775(15) 0.2687(9) 0.6474(14)
O20 O 0.5611(13) 0.2534(7) 0.9364(11)
C78 C 0.554(3) 0.8692(15) 0.040(2)
H47 H 0.5881 0.8436 0.0852
C79 C 0.556(2) 0.9287(13) 0.060(2)
H48 H 0.5886 0.9435 0.1161
O21 O 0.4389(13) 0.7466(7) 0.0636(11)
O38 O 0.6562(14) 0.7456(8) 0.0282(12)
H51 H 0.6634 0.7751 0.0658
H52 H 0.7046 0.7234 0.0249
O39 O 0.5427(15) 0.6417(7) 0.0305(12)
H53 H 0.4977 0.6196 0.0424
H54 H 0.6020 0.6332 0.0537
C80 C 0.506(2) 0.9672(12) 0.992(2)
C81 C 0.461(3) 0.9430(15) 0.913(2)
H49 H 0.4253 0.9677 0.8666
C82 C 0.466(3) 0.8816(14) 0.899(2)
H50 H 0.4385 0.8678 0.8406
N2 N 0.5052(17) 0.8408(9) 0.9565(15)
O17 O 0.5858(14) 0.6702(8) 0.8389(13)
O19 O 0.6225(15) 0.7687(9) 0.8526(14)
O36 O 0.4034(13) 0.7593(8) 0.8001(12)
C76 C 0.931(2) 0.2394(11) 0.0614(18)
C66 C 0.988(2) 0.2358(11) 0.9928(18)
C67 C 0.971(2) 0.2797(14) 0.927(2)
H41 H 0.9247 0.3097 0.9294
C56_2 C 0.113(2) 0.0364(12) 0.7054(18)
H36_2 H 0.0606 0.0614 0.7074
C57_2 C 0.191(2) 0.0614(11) 0.6751(18)
C58_2 C 0.2671(18) 0.0230(10) 0.6595(16)
C62_2 C 0.413(2) 0.0054(13) 0.603(2)
H39_2 H 0.4611 0.0194 0.5743
C63_2 C 0.344(2) 0.0435(12) 0.6224(19)
H40_2 H 0.3483 0.0849 0.6107
C65_2 C 0.184(2) 0.1288(13) 0.650(2)
O29_2 O 0.1004(14) 0.1499(7) 0.6127(12)
Yb1_2 Yb 0.00333(9) 0.77459(5) 0.43359(8)
C1_2 C 0.196(2) 0.7874(11) 0.2474(18)
C2_2 C 0.2577(19) 0.7402(11) 0.2544(18)
H1_2 H 0.2639 0.7110 0.3003
C3_2 C 0.313(2) 0.7381(12) 0.1867(19)
H2_2 H 0.3617 0.7089 0.1925
C4_2 C 0.298(2) 0.7771(11) 0.1128(17)
C5_2 C 0.235(2) 0.8286(12) 0.1096(19)
C6_2 C 0.181(2) 0.8334(12) 0.177(2)
C7_2 C 0.119(2) 0.8844(13) 0.171(2)
H3_2 H 0.0821 0.8893 0.2148
C8_2 C 0.111(2) 0.9263(13) 0.104(2)
H4_2 H 0.0671 0.9582 0.0994
C9_2 C 0.168(2) 0.9216(12) 0.043(2)
C10_2 C 0.228(2) 0.8751(11) 0.0440(19)
H6_2 H 0.2665 0.8732 0.0012
C11_2 C 0.134(2) 0.7826(11) 0.3148(19)
C12_2 C 0.3536(19) 0.7663(10) 0.0394(17)
C25_2 C 0.012(2) 0.7642(11) 0.0072(18)
C26_2 C 0.029(2) 0.7203(14) 0.073(2)
H13_2 H 0.0753 0.6903 0.0706
C37_2 C 0.054(3) 0.6308(15) 0.540(2)
H19_2 H 0.0881 0.6564 0.5852
C38_2 C 0.056(2) 0.5713(13) 0.560(2)
H20_2 H 0.0886 0.5565 0.6161
C39_2 C 0.006(2) 0.5328(12) 0.492(2)
N1_2 N 0.0052(17) 0.6592(9) 0.4565(15)
O1_2 O 0.0858(14) 0.8298(8) 0.3389(13)
O2_2 O 0.1225(15) 0.7313(9) 0.3526(14)
O13_2 O 0.1562(14) 0.7544(8) 0.5282(12)
H23_2 H 0.1634 0.7249 0.5658
H24_2 H 0.2046 0.7766 0.5249
O14_2 O 0.0427(15) 0.8583(7) 0.5305(12)
H26_2 H 0.1020 0.8668 0.5537
C81_2 C 0.039(3) 0.4430(15) 0.587(2)
H49_2 H 0.0747 0.4677 0.6334
C82_2 C 0.034(3) 0.3816(14) 0.601(2)
H50_2 H 0.0615 0.3678 0.6594
H53_2 H 0.0023 0.1196 0.4576
H5_2 H 0.1641 0.9518 0.9985
C35_2 C 0.069(2) 0.7606(11) 0.9386(18)
O4_2 O 0.3117(13) 0.7703(8) 0.9576(12)
O9_2 O 0.1165(14) 0.7139(8) 0.9318(12)
O10_2 O 0.0790(14) 0.8062(8) 0.8887(12)
O15_2 O 0.0613(13) 0.7126(7) 0.7302(11)
H27_2 H 0.0674 0.6789 0.7041
H28_2 H 0.0059 0.7299 0.7210
C54_2 C 0.1873(19) 0.9376(10) 0.7183(17)
C55_2 C 0.111(2) 0.9756(12) 0.733(2)
H35_2 H 0.0616 0.9610 0.7597
C59_2 C 0.2658(19) 0.9604(11) 0.6842(17)
C60_2 C 0.337(2) 0.9220(12) 0.6655(19)
H37_2 H 0.3352 0.8806 0.6786
C61_2 C 0.409(2) 0.9441(14) 0.628(2)
H38_2 H 0.4569 0.9175 0.6189
C64_2 C 0.188(2) 0.8725(11) 0.7534(19)
C66_2 C 0.512(2) 0.7358(11) 0.5072(18)
C67_2 C 0.529(2) 0.7797(14) 0.573(2)
H41_2 H 0.5753 0.8097 0.5706
C68_2 C 0.482(2) 0.7820(13) 0.645(2)
H42_2 H 0.4975 0.8113 0.6904
C69_2 C 0.412(2) 0.7405(12) 0.6456(19)
C70_2 C 0.385(2) 0.6919(12) 0.5812(19)
C71_2 C 0.439(2) 0.6891(12) 0.507(2)
C72_2 C 0.414(2) 0.6423(12) 0.4430(19)
H43_2 H 0.4429 0.6417 0.3933
C73_2 C 0.350(2) 0.5982(12) 0.450(2)
H44_2 H 0.3382 0.5666 0.4076
C74_2 C 0.304(2) 0.6004(13) 0.519(2)
H45_2 H 0.2583 0.5704 0.5218
C75_2 C 0.321(2) 0.6443(12) 0.587(2)
H46_2 H 0.2907 0.6421 0.6357
C76_2 C 0.569(2) 0.7394(11) 0.4386(18)
C77_2 C 0.355(2) 0.7477(12) 0.7182(19)
O23_2 O 0.2515(13) 0.8568(7) 0.8211(12)
O25_2 O 0.1216(13) 0.8364(7) 0.7099(12)
O31 O 0.6165(14) 0.7861(8) 0.4318(12)
O33 O 0.5790(14) 0.6938(8) 0.3887(12)
O37_2 O 0.2667(14) 0.7451(9) 0.7014(13)
C13_2 C 0.8127(19) 0.0624(10) 0.2817(17)
C14_2 C 0.889(2) 0.0244(12) 0.267(2)
H7_2 H 0.9384 0.0390 0.2403
C18_2 C 0.7342(19) 0.0396(11) 0.3158(17)
C19_2 C 0.663(2) 0.0780(12) 0.3345(19)
H9_2 H 0.6648 0.1194 0.3214
C20_2 C 0.591(2) 0.0559(14) 0.372(2)
H10_2 H 0.5431 0.0825 0.3811
C23_2 C 0.812(2) 0.1275(11) 0.2466(19)
C15_2 C 0.887(2) 0.9636(12) 0.2946(18)
H8_2 H 0.9394 0.9386 0.2926
C16_2 C 0.809(2) 0.9386(11) 0.3249(18)
C17_2 C 0.7329(18) 0.9770(10) 0.3405(16)
C21_2 C 0.587(2) 0.9946(13) 0.397(2)
H11_2 H 0.5389 0.9806 0.4257
C22_2 C 0.656(2) 0.9565(12) 0.3776(19)
H12_2 H 0.6517 0.9151 0.3893
C24_2 C 0.816(2) 0.8712(13) 0.350(2)
C27_2 C 0.982(2) 0.7180(13) 0.145(2)
H14_2 H 0.9975 0.6887 0.1904
C28_2 C 0.912(2) 0.7595(12) 0.1456(19)
C29_2 C 0.885(2) 0.8081(12) 0.0812(19)
C30_2 C 0.939(2) 0.8109(12) 0.007(2)
C33_2 C 0.804(2) 0.8996(13) 0.019(2)
H17_2 H 0.7583 0.9296 0.0218
C34_2 C 0.821(2) 0.8557(12) 0.087(2)
H18_2 H 0.7907 0.8579 0.1357
C36_2 C 0.855(2) 0.7523(12) 0.2182(19)
C40_2 C 0.961(3) 0.5570(15) 0.413(2)
H21_2 H 0.9253 0.5323 0.3666
C41_2 C 0.966(3) 0.6184(14) 0.399(2)
H22_2 H 0.9385 0.6322 0.3406
O7_2 O 0.7397(14) 0.8409(7) 0.3289(12)
O8_2 O 0.8996(14) 0.8501(7) 0.3873(12)
O11_2 O 0.9034(13) 0.7407(8) 0.3001(12)
O12_2 O 0.7667(14) 0.7549(9) 0.2014(13)
H25_2 H 0.9977 0.8804 0.5424
C42_2 C 0.696(2) 0.7126(11) 0.7474(18)
C43_2 C 0.7577(19) 0.7598(11) 0.7544(18)
H29_2 H 0.7639 0.7890 0.8003
C44_2 C 0.813(2) 0.7619(12) 0.6867(19)
H30_2 H 0.8617 0.7911 0.6925
C45_2 C 0.798(2) 0.7229(11) 0.6128(17)
C46_2 C 0.735(2) 0.6714(12) 0.6096(19)
C47_2 C 0.681(2) 0.6666(12) 0.677(2)
C48_2 C 0.619(2) 0.6156(13) 0.671(2)
H31_2 H 0.5821 0.6107 0.7148
C49_2 C 0.611(2) 0.5737(13) 0.604(2)
H32_2 H 0.5671 0.5418 0.5994
C50_2 C 0.668(2) 0.5784(12) 0.543(2)
H33_2 H 0.6641 0.5482 0.4985
C51_2 C 0.728(2) 0.6249(11) 0.5440(19)
H34_2 H 0.7665 0.6268 0.5012
C52_2 C 0.634(2) 0.7174(11) 0.8148(19)
C53_2 C 0.8536(19) 0.7337(10) 0.5394(17)
C78_2 C 0.946(3) 0.3692(15) 0.460(2)
H47_2 H 0.9119 0.3436 0.4148
C79_2 C 0.944(2) 0.4287(13) 0.440(2)
H48_2 H 0.9114 0.4435 0.3839
C80_2 C 0.994(2) 0.4672(12) 0.508(2)
N2_2 N 0.9948(17) 0.3408(9) 0.5435(15)
O20_2 O 0.9389(13) 0.7534(7) 0.5636(11)
O22_2 O 0.8117(13) 0.7297(8) 0.4576(12)
O38_2 O 0.8438(14) 0.2456(8) 0.4718(12)
H51_2 H 0.8366 0.2751 0.4342
H52_2 H 0.7954 0.2234 0.4751
O39_2 O 0.9573(15) 0.1417(7) 0.4695(12)
H54_2 H 0.8980 0.1332 0.4463
O40_2 O 0.5613(13) 0.7874(7) 0.2302(11)
H55_2 H 0.5674 0.8211 0.2041
H56_2 H 0.5059 0.7701 0.2210
C31_2 C 0.914(2) 0.8577(12) 0.9430(19)
H15_2 H 0.9429 0.8583 0.8933
C32_2 C 0.850(2) 0.9018(12) 0.950(2)
H16_2 H 0.8382 0.9334 0.9076
loop_
_geom_bond_atom_site_label_1
_geom_bond_atom_site_label_2
_geom_bond_site_symmetry_1
_geom_bond_site_symmetry_2
H43 C72 1_555 1_555
C73 C72 1_555 1_555
H44 C73 1_555 1_555
Yb1 N1 1_555 1_555
Yb2 O4 1_555 1_555
C1 C2 1_555 1_555
C2 H1 1_555 1_555
C3 C2 1_555 1_555
H2 C3 1_555 1_555
C4 C3 1_555 1_555
C5 C4 1_555 1_555
C6 C1 1_555 1_555
C7 C6 1_555 1_555
H3 C7 1_555 1_555
C8 C7 1_555 1_555
H4 C8 1_555 1_555
C9 C8 1_555 1_555
H5 C9 1_555 1_555
C10 C5 1_555 1_555
H6 C10 1_555 1_555
C11 C1 1_555 1_555
C12 C4 1_555 1_555
C13 C14 1_555 1_555
C14 H7 1_555 1_555
C15 C14 1_555 1_555
H8 C15 1_555 1_555
C16 C15 1_555 1_555
C17 C16 1_555 1_555
C18 C13 1_555 1_555
C19 C18 1_555 1_555
H9 C19 1_555 1_555
C20 C19 1_555 1_555
H10 C20 1_555 1_555
C21 C20 1_555 1_555
H11 C21 1_555 1_555
C22 C17 1_555 1_555
H12 C22 1_555 1_555
C23 C13 1_555 1_555
C24 C16 1_555 1_555
C25 C26 1_555 1_555
C26 H13 1_555 1_555
C27 C26 1_555 1_555
H14 C27 1_555 1_555
C28 C27 1_555 1_555
C29 C28 1_555 1_555
C30 C25 1_555 1_555
C31 C30 1_555 1_555
H15 C31 1_555 1_555
C32 C31 1_555 1_555
H16 C32 1_555 1_555
C33 C32 1_555 1_555
H17 C33 1_555 1_555
C34 C29 1_555 1_555
H18 C34 1_555 1_555
C35 C25 1_555 1_555
C36 C28 1_555 1_555
C40 C39 1_555 1_555
H21 C40 1_555 1_555
C41 C40 1_555 1_555
H22 C41 1_555 1_555
O1 Yb1 1_555 1_555
O2 Yb1 1_555 1_555
O3 C12 1_555 1_555
O4 C12 1_555 1_555
O5 C23 1_555 1_555
O6 C23 1_555 1_555
O7 C24 1_555 1_555
O8 Yb1 1_555 1_555
O9 Yb2 1_555 1_555
O10 Yb2 1_555 1_555
O11 Yb1 1_555 1_555
O12 C36 1_555 1_555
O15 Yb2 1_555 1_555
H27 O15 1_555 1_555
H28 O15 1_555 1_555
Yb6 O29 1_555 1_555
Yb7 O7 1_555 1_555
Yb8 O5 1_555 1_555
Yb9 O27 1_555 1_555
C54 C55 1_555 1_555
C55 H35 1_555 1_555
C56 C55 1_555 1_555
H36 C56 1_555 1_555
C57 C56 1_555 1_555
C58 C57 1_555 1_555
C59 C54 1_555 1_555
C60 C59 1_555 1_555
H37 C60 1_555 1_555
C61 C60 1_555 1_555
H38 C61 1_555 1_555
C62 C61 1_555 1_555
H39 C62 1_555 1_555
C63 C58 1_555 1_555
H40 C63 1_555 1_555
C64 C54 1_555 1_555
C65 C57 1_555 1_555
H42 C68 1_555 1_555
C69 C68 1_555 1_555
C70 C69 1_555 1_555
H45 C74 1_555 1_555
C75 C70 1_555 1_555
H46 C75 1_555 1_555
C77 C69 1_555 1_555
O22 Yb7 1_555 1_555
O23 Yb2 1_555 1_555
O24 Yb7 1_555 1_555
O25 Yb2 1_555 1_555
O26 Yb7 1_555 1_555
O27 C65 1_555 1_555
O28 Yb2 1_555 1_555
O29 C65 1_555 1_555
O32 Yb7 1_555 1_555
O34 Yb7 1_555 1_555
O37 Yb2 1_555 1_555
O40 Yb7 1_555 1_555
H55 O40 1_555 1_555
H56 O40 1_555 1_555
C5 C6 1_555 1_555
C9 C10 1_555 1_555
C11 O1 1_555 1_555
C11 O2 1_555 1_555
C17 C18 1_555 1_555
C21 C22 1_555 1_555
C24 O8 1_555 1_555
C29 C30 1_555 1_555
C33 C34 1_555 1_555
C35 O9 1_555 1_555
C35 O10 1_555 1_555
C36 O11 1_555 1_555
C41 N1 1_555 1_555
O6 Yb8 1_555 1_555
O12 Yb7 1_555 1_555
C58 C59 1_555 1_555
C62 C63 1_555 1_555
C64 O23 1_555 1_555
C64 O25 1_555 1_555
C70 C71 1_555 1_555
C74 C75 1_555 1_555
C77 O35 1_555 1_555
C77 O37 1_555 1_555
C37 H19 1_555 1_555
C38 C37 1_555 1_555
H20 C38 1_555 1_555
H23 O13 1_555 1_555
H24 O13 1_555 1_555
H25 O14 1_555 1_555
H26 O14 1_555 1_555
Yb5 O16 1_555 1_555
C42 C43 1_555 1_555
C43 H29 1_555 1_555
C44 C43 1_555 1_555
H30 C44 1_555 1_555
C45 C44 1_555 1_555
C46 C45 1_555 1_555
C47 C42 1_555 1_555
C48 C47 1_555 1_555
H31 C48 1_555 1_555
C49 C48 1_555 1_555
H32 C49 1_555 1_555
C50 C49 1_555 1_555
C51 C46 1_555 1_555
H34 C51 1_555 1_555
C52 C42 1_555 1_555
C53 C45 1_555 1_555
O16 C52 1_555 1_555
O18 Yb5 1_555 1_555
C46 C47 1_555 1_555
C50 C51 1_555 1_555
C52 O18 1_555 1_555
C53 O20 1_555 1_555
C78 H47 1_555 1_555
C79 C78 1_555 1_555
H48 C79 1_555 1_555
H51 O38 1_555 1_555
H52 O38 1_555 1_555
H53 O39 1_555 1_555
H54 O39 1_555 1_555
Yb6 N2 1_555 1_555
C81 C80 1_555 1_555
H49 C81 1_555 1_555
C82 C81 1_555 1_555
H50 C82 1_555 1_555
O17 Yb6 1_555 1_555
O19 Yb6 1_555 1_555
O36 Yb6 1_555 1_555
C82 N2 1_555 1_555
O32 C76 1_555 1_555
C76 O34 1_555 1_555
C66 C67 1_555 1_555
C67 H41 1_555 1_555
H36_2 C56_2 1_555 1_555
C57_2 C56_2 1_555 1_555
C58_2 C57_2 1_555 1_555
H39_2 C62_2 1_555 1_555
C63_2 C58_2 1_555 1_555
H40_2 C63_2 1_555 1_555
C65_2 C57_2 1_555 1_555
O28 C65_2 1_555 1_555
O29_2 C65_2 1_555 1_555
C62_2 C63_2 1_555 1_555
Yb1_2 N1_2 1_555 1_555
C1_2 C2_2 1_555 1_555
C2_2 H1_2 1_555 1_555
C3_2 C2_2 1_555 1_555
H2_2 C3_2 1_555 1_555
C4_2 C3_2 1_555 1_555
C5_2 C4_2 1_555 1_555
C6_2 C1_2 1_555 1_555
C7_2 C6_2 1_555 1_555
H3_2 C7_2 1_555 1_555
C8_2 C7_2 1_555 1_555
H4_2 C8_2 1_555 1_555
C9_2 C8_2 1_555 1_555
C10_2 C5_2 1_555 1_555
H6_2 C10_2 1_555 1_555
C11_2 C1_2 1_555 1_555
C12_2 C4_2 1_555 1_555
C25_2 C26_2 1_555 1_555
C26_2 H13_2 1_555 1_555
C37_2 H19_2 1_555 1_555
C38_2 C37_2 1_555 1_555
H20_2 C38_2 1_555 1_555
C39_2 C38_2 1_555 1_555
N1_2 C37_2 1_555 1_555
O1_2 Yb1_2 1_555 1_555
O2_2 Yb1_2 1_555 1_555
O21 C12_2 1_555 1_555
O13_2 Yb1_2 1_555 1_555
H23_2 O13_2 1_555 1_555
H24_2 O13_2 1_555 1_555
O14_2 Yb1_2 1_555 1_555
H26_2 O14_2 1_555 1_555
H49_2 C81_2 1_555 1_555
C82_2 C81_2 1_555 1_555
H50_2 C82_2 1_555 1_555
C5_2 C6_2 1_555 1_555
C9_2 C10_2 1_555 1_555
C11_2 O1_2 1_555 1_555
C11_2 O2_2 1_555 1_555
Yb9 O4_2 1_555 1_555
O9_2 Yb9 1_555 1_555
O10_2 Yb9 1_555 1_555
O15_2 Yb9 1_555 1_555
H27_2 O15_2 1_555 1_555
H28_2 O15_2 1_555 1_555
Yb8 O31 1_555 1_555
C54_2 C55_2 1_555 1_555
C55_2 H35_2 1_555 1_555
C59_2 C54_2 1_555 1_555
C60_2 C59_2 1_555 1_555
H37_2 C60_2 1_555 1_555
C61_2 C60_2 1_555 1_555
H38_2 C61_2 1_555 1_555
C64_2 C54_2 1_555 1_555
C66_2 C67_2 1_555 1_555
C67_2 H41_2 1_555 1_555
C68_2 C67_2 1_555 1_555
H42_2 C68_2 1_555 1_555
C69_2 C68_2 1_555 1_555
C70_2 C69_2 1_555 1_555
C71_2 C66_2 1_555 1_555
C72_2 C71_2 1_555 1_555
H43_2 C72_2 1_555 1_555
C73_2 C72_2 1_555 1_555
H44_2 C73_2 1_555 1_555
C74_2 C73_2 1_555 1_555
H45_2 C74_2 1_555 1_555
C75_2 C70_2 1_555 1_555
H46_2 C75_2 1_555 1_555
C76_2 C66_2 1_555 1_555
C77_2 C69_2 1_555 1_555
O23_2 Yb9 1_555 1_555
O25_2 Yb9 1_555 1_555
O31 C76_2 1_555 1_555
O33 Yb8 1_555 1_555
O37_2 Yb9 1_555 1_555
C35_2 O9_2 1_555 1_555
C35_2 O10_2 1_555 1_555
C64_2 O23_2 1_555 1_555
C64_2 O25_2 1_555 1_555
C70_2 C71_2 1_555 1_555
C74_2 C75_2 1_555 1_555
C76_2 O33 1_555 1_555
C77_2 O36 1_555 1_555
C77_2 O37_2 1_555 1_555
C13_2 C14_2 1_555 1_555
C14_2 H7_2 1_555 1_555
C18_2 C13_2 1_555 1_555
C19_2 C18_2 1_555 1_555
H9_2 C19_2 1_555 1_555
C20_2 C19_2 1_555 1_555
H10_2 C20_2 1_555 1_555
C23_2 C13_2 1_555 1_555
O24 C23_2 1_555 1_555
O26 C23_2 1_555 1_555
H8_2 C15_2 1_555 1_555
C16_2 C15_2 1_555 1_555
C17_2 C16_2 1_555 1_555
H11_2 C21_2 1_555 1_555
C22_2 C17_2 1_555 1_555
H12_2 C22_2 1_555 1_555
C24_2 C16_2 1_555 1_555
H14_2 C27_2 1_555 1_555
C28_2 C27_2 1_555 1_555
C29_2 C28_2 1_555 1_555
H17_2 C33_2 1_555 1_555
C34_2 C29_2 1_555 1_555
H18_2 C34_2 1_555 1_555
C36_2 C28_2 1_555 1_555
H21_2 C40_2 1_555 1_555
C41_2 C40_2 1_555 1_555
H22_2 C41_2 1_555 1_555
O7_2 C24_2 1_555 1_555
O12_2 C36_2 1_555 1_555
Yb5 N2_2 1_555 1_555
Yb8 O7_2 1_555 1_555
C42_2 C43_2 1_555 1_555
C43_2 H29_2 1_555 1_555
C44_2 C43_2 1_555 1_555
H30_2 C44_2 1_555 1_555
C45_2 C44_2 1_555 1_555
C46_2 C45_2 1_555 1_555
C47_2 C42_2 1_555 1_555
C48_2 C47_2 1_555 1_555
H31_2 C48_2 1_555 1_555
C49_2 C48_2 1_555 1_555
H32_2 C49_2 1_555 1_555
C50_2 C49_2 1_555 1_555
H33_2 C50_2 1_555 1_555
C51_2 C46_2 1_555 1_555
H34_2 C51_2 1_555 1_555
C52_2 C42_2 1_555 1_555
C53_2 C45_2 1_555 1_555
C78_2 H47_2 1_555 1_555
C79_2 C78_2 1_555 1_555
H48_2 C79_2 1_555 1_555
N2_2 C78_2 1_555 1_555
O17 C52_2 1_555 1_555
O22_2 Yb8 1_555 1_555
O38_2 Yb5 1_555 1_555
H51_2 O38_2 1_555 1_555
H52_2 O38_2 1_555 1_555
O39_2 Yb5 1_555 1_555
H54_2 O39_2 1_555 1_555
O40_2 Yb8 1_555 1_555
H55_2 O40_2 1_555 1_555
H56_2 O40_2 1_555 1_555
C21_2 C22_2 1_555 1_555
C24_2 O8_2 1_555 1_555
C29_2 C30_2 1_555 1_555
C33_2 C34_2 1_555 1_555
C36_2 O11_2 1_555 1_555
O12_2 Yb8 1_555 1_555
C46_2 C47_2 1_555 1_555
C50_2 C51_2 1_555 1_555
C52_2 O19 1_555 1_555
C53_2 O20_2 1_555 1_555
C53_2 O22_2 1_555 1_555
C79_2 C80_2 1_555 1_555
H15_2 C31_2 1_555 1_555
C32_2 C31_2 1_555 1_555
H16_2 C32_2 1_555 1_555

#END
