
###############################################################################
#
# This file contains modified crystal structure data generated from the
# MOF subset of the Cambridge Structural Database (CSD) v543 
# hosted by the Cambridge Crystallographic Data Centre (CCDC).
#
# This work is licensed under the Creative Commons
# Attribution-NonCommercial-ShareAlike 4.0 International License.
# To view a copy of this license, visit
# http://creativecommons.org/licenses/by-nc-sa/4.0/
# or send a letter to
# Creative Commons, PO Box 1866, Mountain View, CA 94042, USA.
#
# CIF created using the CSD Python API on 29 September 2022
# The structure has been converted into the P1 space group
# The structure has a 3D framework
# The original CSD entry SARMII is in the tetragonal crystal system
# The framework has been calculated to contain at least 10.0% void space
# The void calculation uses a probe of radius 1.32A, grid spacing 0.4
# H atom positions have been added when not included in the experimental data
#
###############################################################################

data_SARMII
_chemical_formula_moiety         '(C576 H352 Gd32 O220)n'
_symmetry_cell_setting           triclinic
_symmetry_space_group_name_H-M   'P 1'
_symmetry_Int_Tables_number      1
_space_group_name_Hall           'P 1'
loop_
_symmetry_equiv_pos_site_id
_symmetry_equiv_pos_as_xyz
1 x,y,z
_cell_length_a                   30.408(5)
_cell_length_b                   30.408(5)
_cell_length_c                   15.747(5)
_cell_angle_alpha                90
_cell_angle_beta                 90
_cell_angle_gamma                90
_cell_volume                     14560.4
loop_
_atom_site_label
_atom_site_type_symbol
_atom_site_fract_x
_atom_site_fract_y
_atom_site_fract_z
O16 O 0.46626(17) 0.24021(17) 0.0727(3)
O19 O 0.43601(17) 0.33364(17) 0.0195(3)
O22 O 0.52519(16) 0.30804(17) 0.0469(3)
Gd1 Gd 0.476761(11) 0.269985(11) 0.681706(18)
Gd2 Gd 0.471341(11) 0.277588(10) 0.936843(19)
O1 O 0.45316(15) 0.31794(15) 0.8111(3)
O2 O 0.41399(15) 0.31634(16) 0.6954(3)
O3 O 0.25979(17) 0.46626(17) 0.8227(3)
O4 O 0.30394(16) 0.49583(19) 0.9174(4)
O5 O 0.71001(16) 0.10887(16) 0.7017(4)
O6 O 0.66636(17) 0.06399(17) 0.7695(3)
O7 O 0.52311(16) 0.25523(17) 0.8036(4)
O8 O 0.53832(16) 0.23255(16) 0.9318(4)
O9 O 0.4299(2) 0.22930(18) 0.7657(4)
O10 O 0.4471(2) 0.2085(2) 0.8940(4)
O11 O 0.33354(17) 0.02964(15) 0.6695(4)
O12 O 0.30804(17) 0.02519(16) 0.7969(3)
C1 C 0.3912(2) 0.3678(2) 0.7984(5)
C2 C 0.3482(3) 0.3639(3) 0.7762(5)
H1 H 0.3385 0.3393 0.7464
C3 C 0.3181(3) 0.3975(3) 0.7989(5)
H2 H 0.2887 0.3944 0.7838
C4 C 0.3309(2) 0.4338(2) 0.8419(5)
C5 C 0.3757(3) 0.4387(2) 0.8677(5)
C6 C 0.3920(3) 0.4746(3) 0.9170(6)
H3 H 0.3726 0.4965 0.9342
C7 C 0.4354(2) 0.4777(3) 0.9397(7)
H4 H 0.4450 0.5011 0.9728
C8 C 0.4650(3) 0.4457(3) 0.9128(7)
H5 H 0.4946 0.4485 0.9268
C9 C 0.4516(3) 0.4107(3) 0.8668(6)
H6 H 0.4722 0.3899 0.8497
C10 C 0.4066(3) 0.4049(2) 0.8437(5)
C11 C 0.4208(2) 0.3320(2) 0.7663(4)
C12 C 0.2966(2) 0.4669(2) 0.8624(5)
C13 C 0.6458(2) 0.1403(3) 0.7716(5)
C14 C 0.6097(3) 0.1278(3) 0.8197(6)
H7 H 0.6061 0.0984 0.8344
C15 C 0.5788(3) 0.1586(3) 0.8462(6)
H8 H 0.5557 0.1497 0.8808
C16 C 0.5818(3) 0.2022(3) 0.8222(5)
C17 C 0.6179(3) 0.2164(3) 0.7750(5)
C18 C 0.6227(3) 0.2602(3) 0.7515(7)
H9 H 0.6016 0.2807 0.7677
C19 C 0.6578(3) 0.2733(3) 0.7056(8)
H10 H 0.6597 0.3026 0.6894
C20 C 0.6912(3) 0.2448(4) 0.6813(11)
H11 H 0.7156 0.2550 0.6515
C21 C 0.6874(3) 0.2010(3) 0.7027(7)
H12 H 0.7092 0.1815 0.6856
C22 C 0.6513(3) 0.1850(3) 0.7496(5)
C23 C 0.6761(3) 0.1032(3) 0.7467(5)
C24 C 0.5459(2) 0.2321(2) 0.8541(5)
C25 C 0.4070(3) 0.1589(2) 0.8066(6)
C26 C 0.3709(3) 0.1601(3) 0.7561(6)
H13 H 0.3623 0.1870 0.7336
C27 C 0.3461(3) 0.1232(3) 0.7365(6)
H14 H 0.3209 0.1257 0.7036
C28 C 0.3594(3) 0.0825(3) 0.7665(5)
C29 C 0.3979(3) 0.0793(3) 0.8176(5)
C30 C 0.4116(3) 0.0383(3) 0.8488(6)
H15 H 0.3956 0.0133 0.8348
C31 C 0.4477(3) 0.0342(3) 0.8988(7)
H16 H 0.4567 0.0068 0.9181
C32 C 0.4715(3) 0.0724(3) 0.9211(7)
H17 H 0.4959 0.0702 0.9564
C33 C 0.4586(3) 0.1131(3) 0.8905(6)
H18 H 0.4751 0.1379 0.9044
C34 C 0.4211(3) 0.1178(3) 0.8389(5)
C35 C 0.4299(3) 0.2015(3) 0.8248(6)
C36 C 0.3333(2) 0.0435(2) 0.7436(5)
O13 O 0.53057(15) 0.32738(15) 0.6794(4)
O14 O 0.4234(2) 0.2325(2) 0.5853(4)
Gd3 Gd 0.230015(11) 0.523239(11) 0.931706(18)
Gd4 Gd 0.269985(11) 0.023239(11) 0.931706(18)
Gd5 Gd 0.222412(10) 0.471341(11) 0.686843(19)
Gd6 Gd 0.722412(10) 0.028659(11) 0.686843(19)
O15 O 0.53374(17) 0.24021(17) 0.5727(3)
O17 O 0.50417(19) 0.19606(16) 0.6674(4)
O18 O 0.39113(16) 0.28999(16) 0.9517(4)
O20 O 0.52964(15) 0.33354(17) 0.9195(4)
O21 O 0.47481(16) 0.30804(17) 0.5469(3)
H19 H 0.547219 0.327279 0.733648
H20 H 0.551157 0.322484 0.631372
H21 H 0.404095 0.2548 0.558234
H22 H 0.439723 0.216174 0.540702
Gd7 Gd 0.277588(10) 0.971341(11) 0.686843(19)
Gd1_2 Gd 0.023239(11) 0.230015(11) 0.181706(18)
Gd2_2 Gd 0.028659(11) 0.222412(10) 0.436843(19)
O1_2 O 0.04684(15) 0.18206(15) 0.3111(3)
O2_2 O 0.08601(15) 0.18366(16) 0.1954(3)
O3_2 O 0.24021(17) 0.03374(17) 0.3227(3)
O4_2 O 0.19606(16) 0.00417(19) 0.4174(4)
O9_2 O 0.0701(2) 0.27070(18) 0.2657(4)
O10_2 O 0.0529(2) 0.2915(2) 0.3940(4)
O11_2 O 0.16646(17) 0.47036(15) 0.1695(4)
O12_2 O 0.19196(17) 0.47481(16) 0.2969(3)
C1_2 C 0.1088(2) 0.1322(2) 0.2984(5)
C2_2 C 0.1518(3) 0.1361(3) 0.2762(5)
H1_2 H 0.1615 0.1607 0.2464
C3_2 C 0.1819(3) 0.1025(3) 0.2989(5)
H2_2 H 0.2113 0.1056 0.2838
C4_2 C 0.1691(2) 0.0662(2) 0.3419(5)
C5_2 C 0.1243(3) 0.0613(2) 0.3677(5)
C6_2 C 0.1080(3) 0.0254(3) 0.4170(6)
H3_2 H 0.1274 0.0035 0.4342
C7_2 C 0.0646(2) 0.0223(3) 0.4397(7)
C8_2 C 0.0350(3) 0.0543(3) 0.4128(7)
H5_2 H 0.0054 0.0515 0.4268
C9_2 C 0.0484(3) 0.0893(3) 0.3668(6)
H6_2 H 0.0278 0.1101 0.3497
C10_2 C 0.0934(3) 0.0951(2) 0.3437(5)
C11_2 C 0.0792(2) 0.1680(2) 0.2663(4)
C12_2 C 0.2034(2) 0.0331(2) 0.3624(5)
C25_2 C 0.0930(3) 0.3411(2) 0.3066(6)
C26_2 C 0.1291(3) 0.3399(3) 0.2561(6)
H13_2 H 0.1377 0.3130 0.2336
C27_2 C 0.1539(3) 0.3768(3) 0.2365(6)
H14_2 H 0.1791 0.3743 0.2036
C28_2 C 0.1406(3) 0.4175(3) 0.2665(5)
C29_2 C 0.1021(3) 0.4207(3) 0.3176(5)
C30_2 C 0.0884(3) 0.4617(3) 0.3488(6)
H15_2 H 0.1044 0.4867 0.3348
C31_2 C 0.0523(3) 0.4658(3) 0.3988(7)
H16_2 H 0.0433 0.4932 0.4181
C32_2 C 0.0285(3) 0.4276(3) 0.4211(7)
H17_2 H 0.0041 0.4298 0.4564
C33_2 C 0.0414(3) 0.3869(3) 0.3905(6)
H18_2 H 0.0249 0.3621 0.4044
C34_2 C 0.0789(3) 0.3822(3) 0.3389(5)
C35_2 C 0.0701(3) 0.2985(3) 0.3248(6)
C36_2 C 0.1667(2) 0.4565(2) 0.2436(5)
O14_2 O 0.0766(2) 0.2675(2) 0.0853(4)
Gd4_2 Gd 0.230015(11) 0.476761(11) 0.431706(18)
Gd5_2 Gd 0.277588(10) 0.028659(11) 0.186843(19)
Gd7_2 Gd 0.222412(10) 0.528659(11) 0.186843(19)
O16_2 O 0.03374(17) 0.25979(17) 0.5727(3)
O18_2 O 0.10887(16) 0.21001(16) 0.4517(4)
O19_2 O 0.06399(17) 0.16636(17) 0.5195(3)
O21_2 O 0.02519(16) 0.19196(17) 0.0469(3)
H21_2 H 0.0959048 0.2452 0.0582338
H22_2 H 0.0602765 0.283826 0.0407015
H4_2 H 0.0550 0.9989 0.4728
Gd3_2 Gd 0.269985(11) 0.976761(11) 0.431706(18)
O5_2 O 0.78999(16) 0.39113(16) 0.2017(4)
O6_2 O 0.83364(17) 0.43601(17) 0.2695(3)
O7_2 O 0.97689(16) 0.24477(17) 0.3036(4)
O8_2 O 0.96168(16) 0.26745(16) 0.4318(4)
C13_2 C 0.8542(2) 0.3597(3) 0.2716(5)
C14_2 C 0.8903(3) 0.3722(3) 0.3197(6)
H7_2 H 0.8939 0.4016 0.3344
C15_2 C 0.9212(3) 0.3414(3) 0.3462(6)
H8_2 H 0.9443 0.3503 0.3808
C16_2 C 0.9182(3) 0.2978(3) 0.3222(5)
C17_2 C 0.8821(3) 0.2836(3) 0.2750(5)
C18_2 C 0.8773(3) 0.2398(3) 0.2515(7)
H9_2 H 0.8984 0.2193 0.2677
C19_2 C 0.8422(3) 0.2267(3) 0.2056(8)
H10_2 H 0.8403 0.1974 0.1894
C20_2 C 0.8088(3) 0.2552(4) 0.1813(11)
H11_2 H 0.7844 0.2450 0.1515
C21_2 C 0.8126(3) 0.2990(3) 0.2027(7)
H12_2 H 0.7908 0.3185 0.1856
C22_2 C 0.8487(3) 0.3150(3) 0.2496(5)
C23_2 C 0.8239(3) 0.3968(3) 0.2467(5)
C24_2 C 0.9541(2) 0.2679(2) 0.3541(5)
O13_2 O 0.96943(15) 0.17262(15) 0.1794(4)
Gd6_2 Gd 0.777588(10) 0.471341(11) 0.186843(19)
O15_2 O 0.96626(17) 0.25979(17) 0.0727(3)
O17_2 O 0.99583(19) 0.30394(16) 0.1674(4)
O20_2 O 0.97036(15) 0.16646(17) 0.4195(4)
O22_2 O 0.97481(16) 0.19196(17) 0.5469(3)
H19_2 H 0.952781 0.172721 0.233648
H20_2 H 0.948843 0.177516 0.131372
Gd7_3 Gd 0.028659(11) 0.777588(10) 0.936843(19)
O6_3 O 0.93601(17) 0.16636(17) 0.0195(3)
O7_3 O 0.74477(17) 0.02311(16) 0.0536(4)
O8_3 O 0.76745(16) 0.03832(16) 0.1818(4)
C13_3 C 0.8597(3) 0.1458(2) 0.0216(5)
C14_3 C 0.8722(3) 0.1097(3) 0.0697(6)
H7_3 H 0.9016 0.1061 0.0844
C15_3 C 0.8414(3) 0.0788(3) 0.0962(6)
H8_3 H 0.8503 0.0557 0.1308
C16_3 C 0.7978(3) 0.0818(3) 0.0722(5)
C17_3 C 0.7836(3) 0.1179(3) 0.0250(5)
C18_3 C 0.7398(3) 0.1227(3) 0.0015(7)
H9_3 H 0.7193 0.1016 0.0177
C24_3 C 0.7679(2) 0.0459(2) 0.1041(5)
O20_3 O 0.66646(17) 0.02964(15) 0.1695(4)
O22_3 O 0.69196(17) 0.02519(16) 0.2969(3)
O5_3 O 0.89113(16) 0.21001(16) 0.9517(4)
C19_3 C 0.7267(3) 0.1578(3) 0.9556(8)
H10_3 H 0.6974 0.1597 0.9394
C20_3 C 0.7552(4) 0.1912(3) 0.9313(11)
H11_3 H 0.7450 0.2156 0.9015
C21_3 C 0.7990(3) 0.1874(3) 0.9527(7)
H12_3 H 0.8185 0.2092 0.9356
C22_3 C 0.8150(3) 0.1513(3) 0.9996(5)
C23_3 C 0.8968(3) 0.1761(3) 0.9967(5)
O13_3 O 0.67262(15) 0.03057(15) 0.9294(4)
Gd6_3 Gd 0.971341(11) 0.222412(10) 0.936843(19)
O15_3 O 0.75979(17) 0.03374(17) 0.8227(3)
O17_3 O 0.80394(16) 0.00417(19) 0.9174(4)
H19_3 H 0.672721 0.0472188 0.983648
H20_3 H 0.677516 0.0511573 0.881372
Gd2_3 Gd 0.722412(10) 0.971341(11) 0.186843(19)
O1_3 O 0.68206(15) 0.95316(15) 0.0611(3)
O3_3 O 0.53374(17) 0.75979(17) 0.0727(3)
O4_3 O 0.50417(19) 0.80394(16) 0.1674(4)
O9_3 O 0.77070(18) 0.9299(2) 0.0157(4)
O10_3 O 0.7915(2) 0.9471(2) 0.1440(4)
O12_3 O 0.97481(16) 0.80804(17) 0.0469(3)
C1_3 C 0.6322(2) 0.8912(2) 0.0484(5)
C2_3 C 0.6361(3) 0.8482(3) 0.0262(5)
C3_3 C 0.6025(3) 0.8181(3) 0.0489(5)
H2_3 H 0.6056 0.7887 0.0338
C4_3 C 0.5662(2) 0.8309(2) 0.0919(5)
C5_3 C 0.5613(2) 0.8757(3) 0.1177(5)
C6_3 C 0.5254(3) 0.8920(3) 0.1670(6)
H3_3 H 0.5035 0.8726 0.1842
C7_3 C 0.5223(3) 0.9354(2) 0.1897(7)
H4_3 H 0.4989 0.9450 0.2228
C8_3 C 0.5543(3) 0.9650(3) 0.1628(7)
H5_3 H 0.5515 0.9946 0.1768
C9_3 C 0.5893(3) 0.9516(3) 0.1168(6)
H6_3 H 0.6101 0.9722 0.0997
C10_3 C 0.5951(2) 0.9066(3) 0.0937(5)
C11_3 C 0.6680(2) 0.9208(2) 0.0163(4)
C12_3 C 0.5331(2) 0.7966(2) 0.1124(5)
C25_3 C 0.8411(2) 0.9070(3) 0.0566(6)
C26_3 C 0.8399(3) 0.8709(3) 0.0061(6)
C28_3 C 0.9175(3) 0.8594(3) 0.0165(5)
C29_3 C 0.9207(3) 0.8979(3) 0.0676(5)
C30_3 C 0.9617(3) 0.9116(3) 0.0988(6)
H15_3 H 0.9867 0.8956 0.0848
C31_3 C 0.9658(3) 0.9477(3) 0.1488(7)
H16_3 H 0.9932 0.9567 0.1681
C32_3 C 0.9276(3) 0.9715(3) 0.1711(7)
H17_3 H 0.9298 0.9959 0.2064
C33_3 C 0.8869(3) 0.9586(3) 0.1405(6)
H18_3 H 0.8621 0.9751 0.1544
C34_3 C 0.8822(3) 0.9211(3) 0.0889(5)
C35_3 C 0.7985(3) 0.9299(3) 0.0748(6)
Gd3_3 Gd 0.476761(11) 0.730015(11) 0.181706(18)
Gd4_3 Gd 0.976761(11) 0.769985(11) 0.181706(18)
O16_3 O 0.75979(17) 0.96626(17) 0.3227(3)
O18_3 O 0.71001(16) 0.89113(16) 0.2017(4)
O19_3 O 0.66636(17) 0.93601(17) 0.2695(3)
Gd1_3 Gd 0.730015(11) 0.976761(11) 0.931706(18)
O2_3 O 0.68366(16) 0.91399(15) 0.9454(3)
O11_3 O 0.97036(15) 0.83354(17) 0.9195(4)
H1_3 H 0.6607 0.8385 0.9964
H13_3 H 0.8130 0.8623 0.9836
C27_3 C 0.8768(3) 0.8461(3) 0.9865(6)
H14_3 H 0.8743 0.8209 0.9536
C36_3 C 0.9565(2) 0.8333(2) 0.9936(5)
O14_3 O 0.7675(2) 0.9234(2) 0.8353(4)
Gd5_3 Gd 0.528659(11) 0.722412(10) 0.936843(19)
O21_3 O 0.69196(17) 0.97481(16) 0.7969(3)
H21_3 H 0.7452 0.904095 0.808234
H22_3 H 0.783826 0.939723 0.790702
H4_4 H 0.0011 0.5550 0.7228
Gd3_4 Gd 0.023239(11) 0.769985(11) 0.681706(18)
Gd1_4 Gd 0.769985(11) 0.523239(11) 0.431706(18)
Gd2_4 Gd 0.777588(10) 0.528659(11) 0.686843(19)
O1_4 O 0.81794(15) 0.54684(15) 0.5611(3)
O2_4 O 0.81634(16) 0.58601(15) 0.4454(3)
O3_4 O 0.96626(17) 0.74021(17) 0.5727(3)
O4_4 O 0.99583(19) 0.69606(16) 0.6674(4)
O5_4 O 0.60887(16) 0.28999(16) 0.4517(4)
O6_4 O 0.56399(17) 0.33364(17) 0.5195(3)
O7_4 O 0.75523(17) 0.47689(16) 0.5536(4)
O8_4 O 0.73255(16) 0.46168(16) 0.6818(4)
O9_4 O 0.72930(18) 0.5701(2) 0.5157(4)
O10_4 O 0.7085(2) 0.5529(2) 0.6440(4)
O11_4 O 0.52964(15) 0.66646(17) 0.4195(4)
O12_4 O 0.52519(16) 0.69196(17) 0.5469(3)
C1_4 C 0.8678(2) 0.6088(2) 0.5484(5)
C2_4 C 0.8639(3) 0.6518(3) 0.5262(5)
H1_4 H 0.8393 0.6615 0.4964
C3_4 C 0.8975(3) 0.6819(3) 0.5489(5)
H2_4 H 0.8944 0.7113 0.5338
C4_4 C 0.9338(2) 0.6691(2) 0.5919(5)
C5_4 C 0.9387(2) 0.6243(3) 0.6177(5)
C6_4 C 0.9746(3) 0.6080(3) 0.6670(6)
H3_4 H 0.9965 0.6274 0.6842
C7_4 C 0.9777(3) 0.5646(2) 0.6897(7)
C8_4 C 0.9457(3) 0.5350(3) 0.6628(7)
H5_4 H 0.9485 0.5054 0.6768
C9_4 C 0.9107(3) 0.5484(3) 0.6168(6)
H6_4 H 0.8899 0.5278 0.5997
C10_4 C 0.9049(2) 0.5934(3) 0.5937(5)
C11_4 C 0.8320(2) 0.5792(2) 0.5163(4)
C12_4 C 0.9669(2) 0.7034(2) 0.6124(5)
C13_4 C 0.6403(3) 0.3542(2) 0.5216(5)
C14_4 C 0.6278(3) 0.3903(3) 0.5697(6)
H7_4 H 0.5984 0.3939 0.5844
C15_4 C 0.6586(3) 0.4212(3) 0.5962(6)
H8_4 H 0.6497 0.4443 0.6308
C16_4 C 0.7022(3) 0.4182(3) 0.5722(5)
C17_4 C 0.7164(3) 0.3821(3) 0.5250(5)
C18_4 C 0.7602(3) 0.3773(3) 0.5015(7)
H9_4 H 0.7807 0.3984 0.5177
C19_4 C 0.7733(3) 0.3422(3) 0.4556(8)
H10_4 H 0.8026 0.3403 0.4394
C20_4 C 0.7448(4) 0.3088(3) 0.4313(11)
H11_4 H 0.7550 0.2844 0.4015
C21_4 C 0.7010(3) 0.3126(3) 0.4527(7)
H12_4 H 0.6815 0.2908 0.4356
C22_4 C 0.6850(3) 0.3487(3) 0.4996(5)
C23_4 C 0.6032(3) 0.3239(3) 0.4967(5)
C24_4 C 0.7321(2) 0.4541(2) 0.6041(5)
C25_4 C 0.6589(2) 0.5930(3) 0.5566(6)
C26_4 C 0.6601(3) 0.6291(3) 0.5061(6)
H13_4 H 0.6870 0.6377 0.4836
C27_4 C 0.6232(3) 0.6539(3) 0.4865(6)
H14_4 H 0.6257 0.6791 0.4536
C28_4 C 0.5825(3) 0.6406(3) 0.5165(5)
C29_4 C 0.5793(3) 0.6021(3) 0.5676(5)
C30_4 C 0.5383(3) 0.5884(3) 0.5988(6)
H15_4 H 0.5133 0.6044 0.5848
C31_4 C 0.5342(3) 0.5523(3) 0.6488(7)
H16_4 H 0.5068 0.5433 0.6681
C32_4 C 0.5724(3) 0.5285(3) 0.6711(7)
H17_4 H 0.5702 0.5041 0.7064
C33_4 C 0.6131(3) 0.5414(3) 0.6405(6)
H18_4 H 0.6379 0.5249 0.6544
C34_4 C 0.6178(3) 0.5789(3) 0.5889(5)
C35_4 C 0.7015(3) 0.5701(3) 0.5748(6)
C36_4 C 0.5435(2) 0.6667(2) 0.4936(5)
O13_4 O 0.82738(15) 0.46943(15) 0.4294(4)
O14_4 O 0.7325(2) 0.5766(2) 0.3353(4)
Gd4_4 Gd 0.523239(11) 0.730015(11) 0.681706(18)
Gd5_4 Gd 0.971341(11) 0.777588(10) 0.436843(19)
Gd6_4 Gd 0.528659(11) 0.277588(10) 0.436843(19)
Gd7_4 Gd 0.471341(11) 0.722412(10) 0.436843(19)
O15_4 O 0.74021(17) 0.46626(17) 0.3227(3)
O16_4 O 0.74021(17) 0.53374(17) 0.8227(3)
O17_4 O 0.69606(16) 0.49583(19) 0.4174(4)
O18_4 O 0.78999(16) 0.60887(16) 0.7017(4)
O19_4 O 0.83364(17) 0.56399(17) 0.7695(3)
O20_4 O 0.83354(17) 0.47036(15) 0.6695(4)
O21_4 O 0.80804(17) 0.52519(16) 0.2969(3)
O22_4 O 0.80804(17) 0.47481(16) 0.7969(3)
H19_4 H 0.827279 0.452781 0.483648
H20_4 H 0.822484 0.448843 0.381372
H21_4 H 0.7548 0.595905 0.308234
H22_4 H 0.716174 0.560277 0.290702
O1_5 O 0.45316(15) 0.68206(15) 0.3111(3)
O2_5 O 0.41399(15) 0.68366(16) 0.1954(3)
O3_5 O 0.25979(17) 0.53374(17) 0.3227(3)
O4_5 O 0.30394(16) 0.50417(19) 0.4174(4)
O7_5 O 0.52311(16) 0.74477(17) 0.3036(4)
O8_5 O 0.53832(16) 0.76745(16) 0.4318(4)
O9_5 O 0.4299(2) 0.77070(18) 0.2657(4)
O10_5 O 0.4471(2) 0.7915(2) 0.3940(4)
O11_5 O 0.33354(17) 0.97036(15) 0.1695(4)
O12_5 O 0.30804(17) 0.97481(16) 0.2969(3)
C1_5 C 0.3912(2) 0.6322(2) 0.2984(5)
C2_5 C 0.3482(3) 0.6361(3) 0.2762(5)
H1_5 H 0.3385 0.6607 0.2464
C3_5 C 0.3181(3) 0.6025(3) 0.2989(5)
H2_5 H 0.2887 0.6056 0.2838
C4_5 C 0.3309(2) 0.5662(2) 0.3419(5)
C5_5 C 0.3757(3) 0.5613(2) 0.3677(5)
C6_5 C 0.3920(3) 0.5254(3) 0.4170(6)
H3_5 H 0.3726 0.5035 0.4342
C7_5 C 0.4354(2) 0.5223(3) 0.4397(7)
H4_5 H 0.4450 0.4989 0.4728
C8_5 C 0.4650(3) 0.5543(3) 0.4128(7)
H5_5 H 0.4946 0.5515 0.4268
C9_5 C 0.4516(3) 0.5893(3) 0.3668(6)
H6_5 H 0.4722 0.6101 0.3497
C10_5 C 0.4066(3) 0.5951(2) 0.3437(5)
C11_5 C 0.4208(2) 0.6680(2) 0.2663(4)
C12_5 C 0.2966(2) 0.5331(2) 0.3624(5)
C13_5 C 0.6458(2) 0.8597(3) 0.2716(5)
C14_5 C 0.6097(3) 0.8722(3) 0.3197(6)
H7_5 H 0.6061 0.9016 0.3344
C15_5 C 0.5788(3) 0.8414(3) 0.3462(6)
H8_5 H 0.5557 0.8503 0.3808
C16_5 C 0.5818(3) 0.7978(3) 0.3222(5)
C17_5 C 0.6179(3) 0.7836(3) 0.2750(5)
C18_5 C 0.6227(3) 0.7398(3) 0.2515(7)
H9_5 H 0.6016 0.7193 0.2677
C19_5 C 0.6578(3) 0.7267(3) 0.2056(8)
H10_5 H 0.6597 0.6974 0.1894
C20_5 C 0.6912(3) 0.7552(4) 0.1813(11)
H11_5 H 0.7156 0.7450 0.1515
C21_5 C 0.6874(3) 0.7990(3) 0.2027(7)
H12_5 H 0.7092 0.8185 0.1856
C22_5 C 0.6513(3) 0.8150(3) 0.2496(5)
C23_5 C 0.6761(3) 0.8968(3) 0.2467(5)
C24_5 C 0.5459(2) 0.7679(2) 0.3541(5)
C25_5 C 0.4070(3) 0.8411(2) 0.3066(6)
C26_5 C 0.3709(3) 0.8399(3) 0.2561(6)
H13_5 H 0.3623 0.8130 0.2336
C27_5 C 0.3461(3) 0.8768(3) 0.2365(6)
H14_5 H 0.3209 0.8743 0.2036
C28_5 C 0.3594(3) 0.9175(3) 0.2665(5)
C29_5 C 0.3979(3) 0.9207(3) 0.3176(5)
C30_5 C 0.4116(3) 0.9617(3) 0.3488(6)
H15_5 H 0.3956 0.9867 0.3348
C31_5 C 0.4477(3) 0.9658(3) 0.3988(7)
H16_5 H 0.4567 0.9932 0.4181
C32_5 C 0.4715(3) 0.9276(3) 0.4211(7)
H17_5 H 0.4959 0.9298 0.4564
C33_5 C 0.4586(3) 0.8869(3) 0.3905(6)
H18_5 H 0.4751 0.8621 0.4044
C34_5 C 0.4211(3) 0.8822(3) 0.3389(5)
C35_5 C 0.4299(3) 0.7985(3) 0.3248(6)
C36_5 C 0.3333(2) 0.9565(2) 0.2436(5)
O13_5 O 0.53057(15) 0.67262(15) 0.1794(4)
O14_5 O 0.4234(2) 0.7675(2) 0.0853(4)
O16_5 O 0.46626(17) 0.75979(17) 0.5727(3)
O18_5 O 0.39113(16) 0.71001(16) 0.4517(4)
O19_5 O 0.43601(17) 0.66636(17) 0.5195(3)
O21_5 O 0.47481(16) 0.69196(17) 0.0469(3)
H19_5 H 0.547219 0.672721 0.233648
H20_5 H 0.551157 0.677516 0.131372
H21_5 H 0.404095 0.7452 0.0582338
H22_5 H 0.439723 0.783826 0.0407015
H4_6 H 0.0550 0.0011 0.9728
O16_6 O 0.03374(17) 0.74021(17) 0.0727(3)
O19_6 O 0.06399(17) 0.83364(17) 0.0195(3)
O1_6 O 0.04684(15) 0.81794(15) 0.8111(3)
O2_6 O 0.08601(15) 0.81634(16) 0.6954(3)
O3_6 O 0.24021(17) 0.96626(17) 0.8227(3)
O4_6 O 0.19606(16) 0.99583(19) 0.9174(4)
O9_6 O 0.0701(2) 0.72930(18) 0.7657(4)
O10_6 O 0.0529(2) 0.7085(2) 0.8940(4)
O11_6 O 0.16646(17) 0.52964(15) 0.6695(4)
O12_6 O 0.19196(17) 0.52519(16) 0.7969(3)
C1_6 C 0.1088(2) 0.8678(2) 0.7984(5)
C2_6 C 0.1518(3) 0.8639(3) 0.7762(5)
H1_6 H 0.1615 0.8393 0.7464
C3_6 C 0.1819(3) 0.8975(3) 0.7989(5)
H2_6 H 0.2113 0.8944 0.7838
C4_6 C 0.1691(2) 0.9338(2) 0.8419(5)
C5_6 C 0.1243(3) 0.9387(2) 0.8677(5)
C6_6 C 0.1080(3) 0.9746(3) 0.9170(6)
H3_6 H 0.1274 0.9965 0.9342
C7_6 C 0.0646(2) 0.9777(3) 0.9397(7)
C8_6 C 0.0350(3) 0.9457(3) 0.9128(7)
H5_6 H 0.0054 0.9485 0.9268
C9_6 C 0.0484(3) 0.9107(3) 0.8668(6)
H6_6 H 0.0278 0.8899 0.8497
C10_6 C 0.0934(3) 0.9049(2) 0.8437(5)
C11_6 C 0.0792(2) 0.8320(2) 0.7663(4)
C12_6 C 0.2034(2) 0.9669(2) 0.8624(5)
C25_6 C 0.0930(3) 0.6589(2) 0.8066(6)
C26_6 C 0.1291(3) 0.6601(3) 0.7561(6)
H13_6 H 0.1377 0.6870 0.7336
C27_6 C 0.1539(3) 0.6232(3) 0.7365(6)
H14_6 H 0.1791 0.6257 0.7036
C28_6 C 0.1406(3) 0.5825(3) 0.7665(5)
C29_6 C 0.1021(3) 0.5793(3) 0.8176(5)
C30_6 C 0.0884(3) 0.5383(3) 0.8488(6)
H15_6 H 0.1044 0.5133 0.8348
C31_6 C 0.0523(3) 0.5342(3) 0.8988(7)
H16_6 H 0.0433 0.5068 0.9181
C32_6 C 0.0285(3) 0.5724(3) 0.9211(7)
H17_6 H 0.0041 0.5702 0.9564
C33_6 C 0.0414(3) 0.6131(3) 0.8905(6)
H18_6 H 0.0249 0.6379 0.9044
C34_6 C 0.0789(3) 0.6178(3) 0.8389(5)
C35_6 C 0.0701(3) 0.7015(3) 0.8248(6)
C36_6 C 0.1667(2) 0.5435(2) 0.7436(5)
O14_6 O 0.0766(2) 0.7325(2) 0.5853(4)
O18_6 O 0.10887(16) 0.78999(16) 0.9517(4)
O21_6 O 0.02519(16) 0.80804(17) 0.5469(3)
H21_6 H 0.0959048 0.7548 0.558234
H22_6 H 0.0602765 0.716174 0.540702
O7_6 O 0.97689(16) 0.75523(17) 0.8036(4)
O8_6 O 0.96168(16) 0.73255(16) 0.9318(4)
C13_6 C 0.8542(2) 0.6403(3) 0.7716(5)
C14_6 C 0.8903(3) 0.6278(3) 0.8197(6)
H7_6 H 0.8939 0.5984 0.8344
C15_6 C 0.9212(3) 0.6586(3) 0.8462(6)
H8_6 H 0.9443 0.6497 0.8808
C16_6 C 0.9182(3) 0.7022(3) 0.8222(5)
C17_6 C 0.8821(3) 0.7164(3) 0.7750(5)
C18_6 C 0.8773(3) 0.7602(3) 0.7515(7)
H9_6 H 0.8984 0.7807 0.7677
C19_6 C 0.8422(3) 0.7733(3) 0.7056(8)
H10_6 H 0.8403 0.8026 0.6894
C20_6 C 0.8088(3) 0.7448(4) 0.6813(11)
H11_6 H 0.7844 0.7550 0.6515
C21_6 C 0.8126(3) 0.7010(3) 0.7027(7)
H12_6 H 0.7908 0.6815 0.6856
C22_6 C 0.8487(3) 0.6850(3) 0.7496(5)
C23_6 C 0.8239(3) 0.6032(3) 0.7467(5)
C24_6 C 0.9541(2) 0.7321(2) 0.8541(5)
O13_6 O 0.96943(15) 0.82738(15) 0.6794(4)
H19_6 H 0.952781 0.827279 0.733648
H20_6 H 0.948843 0.822484 0.631372
Gd1_5 Gd 0.730015(11) 0.023239(11) 0.431706(18)
O1_7 O 0.68206(15) 0.04684(15) 0.5611(3)
O2_7 O 0.68366(16) 0.08601(15) 0.4454(3)
O9_7 O 0.77070(18) 0.0701(2) 0.5157(4)
O10_7 O 0.7915(2) 0.0529(2) 0.6440(4)
C1_7 C 0.6322(2) 0.1088(2) 0.5484(5)
C2_7 C 0.6361(3) 0.1518(3) 0.5262(5)
H1_7 H 0.6607 0.1615 0.4964
C3_7 C 0.6025(3) 0.1819(3) 0.5489(5)
H2_7 H 0.6056 0.2113 0.5338
C4_7 C 0.5662(2) 0.1691(2) 0.5919(5)
C5_7 C 0.5613(2) 0.1243(3) 0.6177(5)
C6_7 C 0.5254(3) 0.1080(3) 0.6670(6)
H3_7 H 0.5035 0.1274 0.6842
C7_7 C 0.5223(3) 0.0646(2) 0.6897(7)
H4_7 H 0.4989 0.0550 0.7228
C8_7 C 0.5543(3) 0.0350(3) 0.6628(7)
H5_7 H 0.5515 0.0054 0.6768
C9_7 C 0.5893(3) 0.0484(3) 0.6168(6)
H6_7 H 0.6101 0.0278 0.5997
C10_7 C 0.5951(2) 0.0934(3) 0.5937(5)
C11_7 C 0.6680(2) 0.0792(2) 0.5163(4)
C12_7 C 0.5331(2) 0.2034(2) 0.6124(5)
C25_7 C 0.8411(2) 0.0930(3) 0.5566(6)
C26_7 C 0.8399(3) 0.1291(3) 0.5061(6)
H13_7 H 0.8130 0.1377 0.4836
C27_7 C 0.8768(3) 0.1539(3) 0.4865(6)
H14_7 H 0.8743 0.1791 0.4536
C28_7 C 0.9175(3) 0.1406(3) 0.5165(5)
C29_7 C 0.9207(3) 0.1021(3) 0.5676(5)
C30_7 C 0.9617(3) 0.0884(3) 0.5988(6)
H15_7 H 0.9867 0.1044 0.5848
C31_7 C 0.9658(3) 0.0523(3) 0.6488(7)
H16_7 H 0.9932 0.0433 0.6681
C32_7 C 0.9276(3) 0.0285(3) 0.6711(7)
H17_7 H 0.9298 0.0041 0.7064
C33_7 C 0.8869(3) 0.0414(3) 0.6405(6)
H18_7 H 0.8621 0.0249 0.6544
C34_7 C 0.8822(3) 0.0789(3) 0.5889(5)
C35_7 C 0.7985(3) 0.0701(3) 0.5748(6)
C36_7 C 0.9565(2) 0.1667(2) 0.4936(5)
O14_7 O 0.7675(2) 0.0766(2) 0.3353(4)
Gd4_5 Gd 0.976761(11) 0.230015(11) 0.681706(18)
H21_7 H 0.7452 0.0959048 0.308234
H22_7 H 0.783826 0.0602765 0.290702
O5_5 O 0.89113(16) 0.78999(16) 0.4517(4)
O6_5 O 0.93601(17) 0.83364(17) 0.5195(3)
O7_7 O 0.74477(17) 0.97689(16) 0.5536(4)
O8_7 O 0.76745(16) 0.96168(16) 0.6818(4)
C13_7 C 0.8597(3) 0.8542(2) 0.5216(5)
C14_7 C 0.8722(3) 0.8903(3) 0.5697(6)
H7_7 H 0.9016 0.8939 0.5844
C15_7 C 0.8414(3) 0.9212(3) 0.5962(6)
H8_7 H 0.8503 0.9443 0.6308
C16_7 C 0.7978(3) 0.9182(3) 0.5722(5)
C17_7 C 0.7836(3) 0.8821(3) 0.5250(5)
C18_7 C 0.7398(3) 0.8773(3) 0.5015(7)
H9_7 H 0.7193 0.8984 0.5177
C19_7 C 0.7267(3) 0.8422(3) 0.4556(8)
H10_7 H 0.6974 0.8403 0.4394
C20_7 C 0.7552(4) 0.8088(3) 0.4313(11)
H11_7 H 0.7450 0.7844 0.4015
C21_7 C 0.7990(3) 0.8126(3) 0.4527(7)
H12_7 H 0.8185 0.7908 0.4356
C22_7 C 0.8150(3) 0.8487(3) 0.4996(5)
C23_7 C 0.8968(3) 0.8239(3) 0.4967(5)
C24_7 C 0.7679(2) 0.9541(2) 0.6041(5)
O13_7 O 0.67262(15) 0.96943(15) 0.4294(4)
O17_5 O 0.80394(16) 0.99583(19) 0.4174(4)
O20_5 O 0.66646(17) 0.97036(15) 0.6695(4)
H19_7 H 0.672721 0.952781 0.483648
H20_7 H 0.677516 0.948843 0.381372
H4_8 H 0.0011 0.4450 0.2228
O1_8 O 0.81794(15) 0.45316(15) 0.0611(3)
O6_6 O 0.56399(17) 0.66636(17) 0.0195(3)
O7_8 O 0.75523(17) 0.52311(16) 0.0536(4)
O8_8 O 0.73255(16) 0.53832(16) 0.1818(4)
O9_8 O 0.72930(18) 0.4299(2) 0.0157(4)
O10_8 O 0.7085(2) 0.4471(2) 0.1440(4)
C1_8 C 0.8678(2) 0.3912(2) 0.0484(5)
C2_8 C 0.8639(3) 0.3482(3) 0.0262(5)
C3_8 C 0.8975(3) 0.3181(3) 0.0489(5)
H2_8 H 0.8944 0.2887 0.0338
C4_8 C 0.9338(2) 0.3309(2) 0.0919(5)
C5_8 C 0.9387(2) 0.3757(3) 0.1177(5)
C6_8 C 0.9746(3) 0.3920(3) 0.1670(6)
H3_8 H 0.9965 0.3726 0.1842
C7_8 C 0.9777(3) 0.4354(2) 0.1897(7)
C8_8 C 0.9457(3) 0.4650(3) 0.1628(7)
H5_8 H 0.9485 0.4946 0.1768
C9_8 C 0.9107(3) 0.4516(3) 0.1168(6)
H6_8 H 0.8899 0.4722 0.0997
C10_8 C 0.9049(2) 0.4066(3) 0.0937(5)
C11_8 C 0.8320(2) 0.4208(2) 0.0163(4)
C12_8 C 0.9669(2) 0.2966(2) 0.1124(5)
C13_8 C 0.6403(3) 0.6458(2) 0.0216(5)
C14_8 C 0.6278(3) 0.6097(3) 0.0697(6)
H7_8 H 0.5984 0.6061 0.0844
C15_8 C 0.6586(3) 0.5788(3) 0.0962(6)
H8_8 H 0.6497 0.5557 0.1308
C16_8 C 0.7022(3) 0.5818(3) 0.0722(5)
C17_8 C 0.7164(3) 0.6179(3) 0.0250(5)
C18_8 C 0.7602(3) 0.6227(3) 0.0015(7)
H9_8 H 0.7807 0.6016 0.0177
C24_8 C 0.7321(2) 0.5459(2) 0.1041(5)
C25_8 C 0.6589(2) 0.4070(3) 0.0566(6)
C26_8 C 0.6601(3) 0.3709(3) 0.0061(6)
C28_8 C 0.5825(3) 0.3594(3) 0.0165(5)
C29_8 C 0.5793(3) 0.3979(3) 0.0676(5)
C30_8 C 0.5383(3) 0.4116(3) 0.0988(6)
H15_8 H 0.5133 0.3956 0.0848
C31_8 C 0.5342(3) 0.4477(3) 0.1488(7)
H16_8 H 0.5068 0.4567 0.1681
C32_8 C 0.5724(3) 0.4715(3) 0.1711(7)
H17_8 H 0.5702 0.4959 0.2064
C33_8 C 0.6131(3) 0.4586(3) 0.1405(6)
H18_8 H 0.6379 0.4751 0.1544
C34_8 C 0.6178(3) 0.4211(3) 0.0889(5)
C35_8 C 0.7015(3) 0.4299(3) 0.0748(6)
Gd4_6 Gd 0.523239(11) 0.269985(11) 0.181706(18)
O20_6 O 0.83354(17) 0.52964(15) 0.1695(4)
Gd1_6 Gd 0.769985(11) 0.476761(11) 0.931706(18)
O2_8 O 0.81634(16) 0.41399(15) 0.9454(3)
O5_6 O 0.60887(16) 0.71001(16) 0.9517(4)
H1_8 H 0.8393 0.3385 0.9964
C19_8 C 0.7733(3) 0.6578(3) 0.9556(8)
H10_8 H 0.8026 0.6597 0.9394
C20_8 C 0.7448(4) 0.6912(3) 0.9313(11)
H11_8 H 0.7550 0.7156 0.9015
C21_8 C 0.7010(3) 0.6874(3) 0.9527(7)
H12_8 H 0.6815 0.7092 0.9356
C22_8 C 0.6850(3) 0.6513(3) 0.9996(5)
C23_8 C 0.6032(3) 0.6761(3) 0.9967(5)
H13_8 H 0.6870 0.3623 0.9836
C27_8 C 0.6232(3) 0.3461(3) 0.9865(6)
H14_8 H 0.6257 0.3209 0.9536
C36_8 C 0.5435(2) 0.3333(2) 0.9936(5)
O13_8 O 0.82738(15) 0.53057(15) 0.9294(4)
O14_8 O 0.7325(2) 0.4234(2) 0.8353(4)
O17_6 O 0.69606(16) 0.50417(19) 0.9174(4)
H19_8 H 0.827279 0.547219 0.983648
H20_8 H 0.822484 0.551157 0.881372
H21_8 H 0.7548 0.404095 0.808234
H22_8 H 0.716174 0.439723 0.790702
O5_7 O 0.21001(16) 0.60887(16) 0.2017(4)
O6_7 O 0.16636(17) 0.56399(17) 0.2695(3)
O7_9 O 0.02311(16) 0.75523(17) 0.3036(4)
O8_9 O 0.03832(16) 0.73255(16) 0.4318(4)
C13_9 C 0.1458(2) 0.6403(3) 0.2716(5)
C14_9 C 0.1097(3) 0.6278(3) 0.3197(6)
H7_9 H 0.1061 0.5984 0.3344
C15_9 C 0.0788(3) 0.6586(3) 0.3462(6)
H8_9 H 0.0557 0.6497 0.3808
C16_9 C 0.0818(3) 0.7022(3) 0.3222(5)
C17_9 C 0.1179(3) 0.7164(3) 0.2750(5)
C18_9 C 0.1227(3) 0.7602(3) 0.2515(7)
H9_9 H 0.1016 0.7807 0.2677
C19_9 C 0.1578(3) 0.7733(3) 0.2056(8)
H10_9 H 0.1597 0.8026 0.1894
C20_9 C 0.1912(3) 0.7448(4) 0.1813(11)
H11_9 H 0.2156 0.7550 0.1515
C21_9 C 0.1874(3) 0.7010(3) 0.2027(7)
H12_9 H 0.2092 0.6815 0.1856
C22_9 C 0.1513(3) 0.6850(3) 0.2496(5)
C23_9 C 0.1761(3) 0.6032(3) 0.2467(5)
C24_9 C 0.0459(2) 0.7321(2) 0.3541(5)
O13_9 O 0.03057(15) 0.82738(15) 0.1794(4)
O17_7 O 0.00417(19) 0.69606(16) 0.1674(4)
O20_7 O 0.02964(15) 0.83354(17) 0.4195(4)
H19_9 H 0.0472188 0.827279 0.233648
H20_9 H 0.0511573 0.822484 0.131372
H4_9 H 0.9450 0.0011 0.4728
O1_9 O 0.95316(15) 0.81794(15) 0.3111(3)
O2_9 O 0.91399(15) 0.81634(16) 0.1954(3)
O9_9 O 0.9299(2) 0.72930(18) 0.2657(4)
O10_9 O 0.9471(2) 0.7085(2) 0.3940(4)
C1_9 C 0.8912(2) 0.8678(2) 0.2984(5)
C2_9 C 0.8482(3) 0.8639(3) 0.2762(5)
H1_9 H 0.8385 0.8393 0.2464
C3_9 C 0.8181(3) 0.8975(3) 0.2989(5)
H2_9 H 0.7887 0.8944 0.2838
C4_9 C 0.8309(2) 0.9338(2) 0.3419(5)
C5_9 C 0.8757(3) 0.9387(2) 0.3677(5)
C6_9 C 0.8920(3) 0.9746(3) 0.4170(6)
H3_9 H 0.8726 0.9965 0.4342
C7_9 C 0.9354(2) 0.9777(3) 0.4397(7)
C8_9 C 0.9650(3) 0.9457(3) 0.4128(7)
H5_9 H 0.9946 0.9485 0.4268
C9_9 C 0.9516(3) 0.9107(3) 0.3668(6)
H6_9 H 0.9722 0.8899 0.3497
C10_9 C 0.9066(3) 0.9049(2) 0.3437(5)
C11_9 C 0.9208(2) 0.8320(2) 0.2663(4)
C12_9 C 0.7966(2) 0.9669(2) 0.3624(5)
C25_9 C 0.9070(3) 0.6589(2) 0.3066(6)
C26_9 C 0.8709(3) 0.6601(3) 0.2561(6)
H13_9 H 0.8623 0.6870 0.2336
C27_9 C 0.8461(3) 0.6232(3) 0.2365(6)
H14_9 H 0.8209 0.6257 0.2036
C28_9 C 0.8594(3) 0.5825(3) 0.2665(5)
C29_9 C 0.8979(3) 0.5793(3) 0.3176(5)
C30_9 C 0.9116(3) 0.5383(3) 0.3488(6)
H15_9 H 0.8956 0.5133 0.3348
C31_9 C 0.9477(3) 0.5342(3) 0.3988(7)
H16_9 H 0.9567 0.5068 0.4181
C32_9 C 0.9715(3) 0.5724(3) 0.4211(7)
H17_9 H 0.9959 0.5702 0.4564
C33_9 C 0.9586(3) 0.6131(3) 0.3905(6)
H18_9 H 0.9751 0.6379 0.4044
C34_9 C 0.9211(3) 0.6178(3) 0.3389(5)
C35_9 C 0.9299(3) 0.7015(3) 0.3248(6)
C36_9 C 0.8333(2) 0.5435(2) 0.2436(5)
O14_9 O 0.9234(2) 0.7325(2) 0.0853(4)
H21_9 H 0.904095 0.7548 0.0582338
H22_9 H 0.939723 0.716174 0.0407015
O1_10 O 0.54684(15) 0.68206(15) 0.8111(3)
O2_10 O 0.58601(15) 0.68366(16) 0.6954(3)
O5_8 O 0.28999(16) 0.89113(16) 0.7017(4)
O6_8 O 0.33364(17) 0.93601(17) 0.7695(3)
O7_10 O 0.47689(16) 0.74477(17) 0.8036(4)
O8_10 O 0.46168(16) 0.76745(16) 0.9318(4)
O9_10 O 0.5701(2) 0.77070(18) 0.7657(4)
O10_10 O 0.5529(2) 0.7915(2) 0.8940(4)
C1_10 C 0.6088(2) 0.6322(2) 0.7984(5)
C2_10 C 0.6518(3) 0.6361(3) 0.7762(5)
H1_10 H 0.6615 0.6607 0.7464
C3_10 C 0.6819(3) 0.6025(3) 0.7989(5)
H2_10 H 0.7113 0.6056 0.7838
C4_10 C 0.6691(2) 0.5662(2) 0.8419(5)
C5_10 C 0.6243(3) 0.5613(2) 0.8677(5)
C6_10 C 0.6080(3) 0.5254(3) 0.9170(6)
H3_10 H 0.6274 0.5035 0.9342
C7_10 C 0.5646(2) 0.5223(3) 0.9397(7)
H4_10 H 0.5550 0.4989 0.9728
C8_10 C 0.5350(3) 0.5543(3) 0.9128(7)
H5_10 H 0.5054 0.5515 0.9268
C9_10 C 0.5484(3) 0.5893(3) 0.8668(6)
H6_10 H 0.5278 0.6101 0.8497
C10_10 C 0.5934(3) 0.5951(2) 0.8437(5)
C11_10 C 0.5792(2) 0.6680(2) 0.7663(4)
C12_10 C 0.7034(2) 0.5331(2) 0.8624(5)
C13_10 C 0.3542(2) 0.8597(3) 0.7716(5)
C14_10 C 0.3903(3) 0.8722(3) 0.8197(6)
H7_10 H 0.3939 0.9016 0.8344
C15_10 C 0.4212(3) 0.8414(3) 0.8462(6)
H8_10 H 0.4443 0.8503 0.8808
C16_10 C 0.4182(3) 0.7978(3) 0.8222(5)
C17_10 C 0.3821(3) 0.7836(3) 0.7750(5)
C18_10 C 0.3773(3) 0.7398(3) 0.7515(7)
H9_10 H 0.3984 0.7193 0.7677
C19_10 C 0.3422(3) 0.7267(3) 0.7056(8)
H10_10 H 0.3403 0.6974 0.6894
C20_10 C 0.3088(3) 0.7552(4) 0.6813(11)
H11_10 H 0.2844 0.7450 0.6515
C21_10 C 0.3126(3) 0.7990(3) 0.7027(7)
H12_10 H 0.2908 0.8185 0.6856
C22_10 C 0.3487(3) 0.8150(3) 0.7496(5)
C23_10 C 0.3239(3) 0.8968(3) 0.7467(5)
C24_10 C 0.4541(2) 0.7679(2) 0.8541(5)
C25_10 C 0.5930(3) 0.8411(2) 0.8066(6)
C26_10 C 0.6291(3) 0.8399(3) 0.7561(6)
H13_10 H 0.6377 0.8130 0.7336
C27_10 C 0.6539(3) 0.8768(3) 0.7365(6)
H14_10 H 0.6791 0.8743 0.7036
C28_10 C 0.6406(3) 0.9175(3) 0.7665(5)
C29_10 C 0.6021(3) 0.9207(3) 0.8176(5)
C30_10 C 0.5884(3) 0.9617(3) 0.8488(6)
H15_10 H 0.6044 0.9867 0.8348
C31_10 C 0.5523(3) 0.9658(3) 0.8988(7)
H16_10 H 0.5433 0.9932 0.9181
C32_10 C 0.5285(3) 0.9276(3) 0.9211(7)
H17_10 H 0.5041 0.9298 0.9564
C33_10 C 0.5414(3) 0.8869(3) 0.8905(6)
H18_10 H 0.5249 0.8621 0.9044
C34_10 C 0.5789(3) 0.8822(3) 0.8389(5)
C35_10 C 0.5701(3) 0.7985(3) 0.8248(6)
C36_10 C 0.6667(2) 0.9565(2) 0.7436(5)
O13_10 O 0.46943(15) 0.67262(15) 0.6794(4)
O14_10 O 0.5766(2) 0.7675(2) 0.5853(4)
O17_8 O 0.49583(19) 0.80394(16) 0.6674(4)
O20_8 O 0.47036(15) 0.66646(17) 0.9195(4)
H19_10 H 0.452781 0.672721 0.733648
H20_10 H 0.448843 0.677516 0.631372
H21_10 H 0.595905 0.7452 0.558234
H22_10 H 0.560277 0.783826 0.540702
O1_11 O 0.18206(15) 0.45316(15) 0.5611(3)
O2_11 O 0.18366(16) 0.41399(15) 0.4454(3)
O4_7 O 0.00417(19) 0.30394(16) 0.6674(4)
O7_11 O 0.24477(17) 0.52311(16) 0.5536(4)
O8_11 O 0.26745(16) 0.53832(16) 0.6818(4)
O9_11 O 0.27070(18) 0.4299(2) 0.5157(4)
O10_11 O 0.2915(2) 0.4471(2) 0.6440(4)
O11_7 O 0.47036(15) 0.33354(17) 0.4195(4)
C1_11 C 0.1322(2) 0.3912(2) 0.5484(5)
C2_11 C 0.1361(3) 0.3482(3) 0.5262(5)
H1_11 H 0.1607 0.3385 0.4964
C3_11 C 0.1025(3) 0.3181(3) 0.5489(5)
H2_11 H 0.1056 0.2887 0.5338
C4_11 C 0.0662(2) 0.3309(2) 0.5919(5)
C5_11 C 0.0613(2) 0.3757(3) 0.6177(5)
C6_11 C 0.0254(3) 0.3920(3) 0.6670(6)
H3_11 H 0.0035 0.3726 0.6842
C7_11 C 0.0223(3) 0.4354(2) 0.6897(7)
C8_11 C 0.0543(3) 0.4650(3) 0.6628(7)
H5_11 H 0.0515 0.4946 0.6768
C9_11 C 0.0893(3) 0.4516(3) 0.6168(6)
H6_11 H 0.1101 0.4722 0.5997
C10_11 C 0.0951(2) 0.4066(3) 0.5937(5)
C11_11 C 0.1680(2) 0.4208(2) 0.5163(4)
C12_11 C 0.0331(2) 0.2966(2) 0.6124(5)
C13_11 C 0.3597(3) 0.6458(2) 0.5216(5)
C14_11 C 0.3722(3) 0.6097(3) 0.5697(6)
H7_11 H 0.4016 0.6061 0.5844
C15_11 C 0.3414(3) 0.5788(3) 0.5962(6)
H8_11 H 0.3503 0.5557 0.6308
C16_11 C 0.2978(3) 0.5818(3) 0.5722(5)
C17_11 C 0.2836(3) 0.6179(3) 0.5250(5)
C18_11 C 0.2398(3) 0.6227(3) 0.5015(7)
H9_11 H 0.2193 0.6016 0.5177
C19_11 C 0.2267(3) 0.6578(3) 0.4556(8)
H10_11 H 0.1974 0.6597 0.4394
C20_11 C 0.2552(4) 0.6912(3) 0.4313(11)
H11_11 H 0.2450 0.7156 0.4015
C21_11 C 0.2990(3) 0.6874(3) 0.4527(7)
H12_11 H 0.3185 0.7092 0.4356
C22_11 C 0.3150(3) 0.6513(3) 0.4996(5)
C23_11 C 0.3968(3) 0.6761(3) 0.4967(5)
C24_11 C 0.2679(2) 0.5459(2) 0.6041(5)
C25_11 C 0.3411(2) 0.4070(3) 0.5566(6)
C26_11 C 0.3399(3) 0.3709(3) 0.5061(6)
H13_11 H 0.3130 0.3623 0.4836
C27_11 C 0.3768(3) 0.3461(3) 0.4865(6)
H14_11 H 0.3743 0.3209 0.4536
C28_11 C 0.4175(3) 0.3594(3) 0.5165(5)
C29_11 C 0.4207(3) 0.3979(3) 0.5676(5)
C30_11 C 0.4617(3) 0.4116(3) 0.5988(6)
H15_11 H 0.4867 0.3956 0.5848
C31_11 C 0.4658(3) 0.4477(3) 0.6488(7)
H16_11 H 0.4932 0.4567 0.6681
C32_11 C 0.4276(3) 0.4715(3) 0.6711(7)
H17_11 H 0.4298 0.4959 0.7064
C33_11 C 0.3869(3) 0.4586(3) 0.6405(6)
H18_11 H 0.3621 0.4751 0.6544
C34_11 C 0.3822(3) 0.4211(3) 0.5889(5)
C35_11 C 0.2985(3) 0.4299(3) 0.5748(6)
C36_11 C 0.4565(2) 0.3333(2) 0.4936(5)
O13_11 O 0.17262(15) 0.53057(15) 0.4294(4)
O14_11 O 0.2675(2) 0.4234(2) 0.3353(4)
O18_7 O 0.21001(16) 0.39113(16) 0.7017(4)
O19_7 O 0.16636(17) 0.43601(17) 0.7695(3)
H19_11 H 0.172721 0.547219 0.483648
H20_11 H 0.177516 0.551157 0.381372
H21_11 H 0.2452 0.404095 0.308234
H22_11 H 0.283826 0.439723 0.290702
H4_11 H 0.9989 0.4450 0.7228
O1_12 O 0.31794(15) 0.04684(15) 0.0611(3)
O4_8 O 0.49583(19) 0.19606(16) 0.1674(4)
O9_12 O 0.22930(18) 0.0701(2) 0.0157(4)
O10_12 O 0.2085(2) 0.0529(2) 0.1440(4)
C1_12 C 0.3678(2) 0.1088(2) 0.0484(5)
C2_12 C 0.3639(3) 0.1518(3) 0.0262(5)
C3_12 C 0.3975(3) 0.1819(3) 0.0489(5)
H2_12 H 0.3944 0.2113 0.0338
C4_12 C 0.4338(2) 0.1691(2) 0.0919(5)
C5_12 C 0.4387(2) 0.1243(3) 0.1177(5)
C6_12 C 0.4746(3) 0.1080(3) 0.1670(6)
H3_12 H 0.4965 0.1274 0.1842
C7_12 C 0.4777(3) 0.0646(2) 0.1897(7)
H4_12 H 0.5011 0.0550 0.2228
C8_12 C 0.4457(3) 0.0350(3) 0.1628(7)
H5_12 H 0.4485 0.0054 0.1768
C9_12 C 0.4107(3) 0.0484(3) 0.1168(6)
H6_12 H 0.3899 0.0278 0.0997
C10_12 C 0.4049(2) 0.0934(3) 0.0937(5)
C11_12 C 0.3320(2) 0.0792(2) 0.0163(4)
C12_12 C 0.4669(2) 0.2034(2) 0.1124(5)
C25_12 C 0.1589(2) 0.0930(3) 0.0566(6)
C26_12 C 0.1601(3) 0.1291(3) 0.0061(6)
C28_12 C 0.0825(3) 0.1406(3) 0.0165(5)
C29_12 C 0.0793(3) 0.1021(3) 0.0676(5)
C30_12 C 0.0383(3) 0.0884(3) 0.0988(6)
H15_12 H 0.0133 0.1044 0.0848
C31_12 C 0.0342(3) 0.0523(3) 0.1488(7)
H16_12 H 0.0068 0.0433 0.1681
C32_12 C 0.0724(3) 0.0285(3) 0.1711(7)
H17_12 H 0.0702 0.0041 0.2064
C33_12 C 0.1131(3) 0.0414(3) 0.1405(6)
H18_12 H 0.1379 0.0249 0.1544
C34_12 C 0.1178(3) 0.0789(3) 0.0889(5)
C35_12 C 0.2015(3) 0.0701(3) 0.0748(6)
O18_8 O 0.28999(16) 0.10887(16) 0.2017(4)
O19_8 O 0.33364(17) 0.06399(17) 0.2695(3)
O2_12 O 0.31634(16) 0.08601(15) 0.9454(3)
O11_8 O 0.02964(15) 0.16646(17) 0.9195(4)
H1_12 H 0.3393 0.1615 0.9964
H13_12 H 0.1870 0.1377 0.9836
C27_12 C 0.1232(3) 0.1539(3) 0.9865(6)
H14_12 H 0.1257 0.1791 0.9536
C36_12 C 0.0435(2) 0.1667(2) 0.9936(5)
O14_12 O 0.2325(2) 0.0766(2) 0.8353(4)
H21_12 H 0.2548 0.0959048 0.808234
H22_12 H 0.216174 0.0602765 0.790702
O7_12 O 0.25523(17) 0.97689(16) 0.0536(4)
O8_12 O 0.23255(16) 0.96168(16) 0.1818(4)
C13_12 C 0.1403(3) 0.8542(2) 0.0216(5)
C14_12 C 0.1278(3) 0.8903(3) 0.0697(6)
H7_12 H 0.0984 0.8939 0.0844
C15_12 C 0.1586(3) 0.9212(3) 0.0962(6)
H8_12 H 0.1497 0.9443 0.1308
C16_12 C 0.2022(3) 0.9182(3) 0.0722(5)
C17_12 C 0.2164(3) 0.8821(3) 0.0250(5)
C18_12 C 0.2602(3) 0.8773(3) 0.0015(7)
H9_12 H 0.2807 0.8984 0.0177
C24_12 C 0.2321(2) 0.9541(2) 0.1041(5)
C19_12 C 0.2733(3) 0.8422(3) 0.9556(8)
H10_12 H 0.3026 0.8403 0.9394
C20_12 C 0.2448(4) 0.8088(3) 0.9313(11)
H11_12 H 0.2550 0.7844 0.9015
C21_12 C 0.2010(3) 0.8126(3) 0.9527(7)
H12_12 H 0.1815 0.7908 0.9356
C22_12 C 0.1850(3) 0.8487(3) 0.9996(5)
C23_12 C 0.1032(3) 0.8239(3) 0.9967(5)
O13_12 O 0.32738(15) 0.96943(15) 0.9294(4)
H19_12 H 0.327279 0.952781 0.983648
H20_12 H 0.322484 0.948843 0.881372
O7_13 O 0.02311(16) 0.24477(17) 0.8036(4)
O8_13 O 0.03832(16) 0.26745(16) 0.9318(4)
C13_13 C 0.1458(2) 0.3597(3) 0.7716(5)
C14_13 C 0.1097(3) 0.3722(3) 0.8197(6)
H7_13 H 0.1061 0.4016 0.8344
C15_13 C 0.0788(3) 0.3414(3) 0.8462(6)
H8_13 H 0.0557 0.3503 0.8808
C16_13 C 0.0818(3) 0.2978(3) 0.8222(5)
C17_13 C 0.1179(3) 0.2836(3) 0.7750(5)
C18_13 C 0.1227(3) 0.2398(3) 0.7515(7)
H9_13 H 0.1016 0.2193 0.7677
C19_13 C 0.1578(3) 0.2267(3) 0.7056(8)
H10_13 H 0.1597 0.1974 0.6894
C20_13 C 0.1912(3) 0.2552(4) 0.6813(11)
H11_13 H 0.2156 0.2450 0.6515
C21_13 C 0.1874(3) 0.2990(3) 0.7027(7)
H12_13 H 0.2092 0.3185 0.6856
C22_13 C 0.1513(3) 0.3150(3) 0.7496(5)
C23_13 C 0.1761(3) 0.3968(3) 0.7467(5)
C24_13 C 0.0459(2) 0.2679(2) 0.8541(5)
O13_13 O 0.03057(15) 0.17262(15) 0.6794(4)
H19_13 H 0.0472188 0.172721 0.733648
H20_13 H 0.0511573 0.177516 0.631372
O1_13 O 0.95316(15) 0.18206(15) 0.8111(3)
O2_13 O 0.91399(15) 0.18366(16) 0.6954(3)
O9_13 O 0.9299(2) 0.27070(18) 0.7657(4)
O10_13 O 0.9471(2) 0.2915(2) 0.8940(4)
C1_13 C 0.8912(2) 0.1322(2) 0.7984(5)
C2_13 C 0.8482(3) 0.1361(3) 0.7762(5)
H1_13 H 0.8385 0.1607 0.7464
C3_13 C 0.8181(3) 0.1025(3) 0.7989(5)
H2_13 H 0.7887 0.1056 0.7838
C4_13 C 0.8309(2) 0.0662(2) 0.8419(5)
C5_13 C 0.8757(3) 0.0613(2) 0.8677(5)
C6_13 C 0.8920(3) 0.0254(3) 0.9170(6)
H3_13 H 0.8726 0.0035 0.9342
C7_13 C 0.9354(2) 0.0223(3) 0.9397(7)
C8_13 C 0.9650(3) 0.0543(3) 0.9128(7)
H5_13 H 0.9946 0.0515 0.9268
C9_13 C 0.9516(3) 0.0893(3) 0.8668(6)
H6_13 H 0.9722 0.1101 0.8497
C10_13 C 0.9066(3) 0.0951(2) 0.8437(5)
C11_13 C 0.9208(2) 0.1680(2) 0.7663(4)
C12_13 C 0.7966(2) 0.0331(2) 0.8624(5)
C25_13 C 0.9070(3) 0.3411(2) 0.8066(6)
C26_13 C 0.8709(3) 0.3399(3) 0.7561(6)
H13_13 H 0.8623 0.3130 0.7336
C27_13 C 0.8461(3) 0.3768(3) 0.7365(6)
H14_13 H 0.8209 0.3743 0.7036
C28_13 C 0.8594(3) 0.4175(3) 0.7665(5)
C29_13 C 0.8979(3) 0.4207(3) 0.8176(5)
C30_13 C 0.9116(3) 0.4617(3) 0.8488(6)
H15_13 H 0.8956 0.4867 0.8348
C31_13 C 0.9477(3) 0.4658(3) 0.8988(7)
H16_13 H 0.9567 0.4932 0.9181
C32_13 C 0.9715(3) 0.4276(3) 0.9211(7)
H17_13 H 0.9959 0.4298 0.9564
C33_13 C 0.9586(3) 0.3869(3) 0.8905(6)
H18_13 H 0.9751 0.3621 0.9044
C34_13 C 0.9211(3) 0.3822(3) 0.8389(5)
C35_13 C 0.9299(3) 0.2985(3) 0.8248(6)
C36_13 C 0.8333(2) 0.4565(2) 0.7436(5)
O14_13 O 0.9234(2) 0.2675(2) 0.5853(4)
H21_13 H 0.904095 0.2452 0.558234
H22_13 H 0.939723 0.283826 0.540702
H4_13 H 0.9450 0.9989 0.9728
O1_14 O 0.54684(15) 0.31794(15) 0.3111(3)
O2_14 O 0.58601(15) 0.31634(16) 0.1954(3)
O7_14 O 0.47689(16) 0.25523(17) 0.3036(4)
O8_14 O 0.46168(16) 0.23255(16) 0.4318(4)
O9_14 O 0.5701(2) 0.22930(18) 0.2657(4)
O10_14 O 0.5529(2) 0.2085(2) 0.3940(4)
C1_14 C 0.6088(2) 0.3678(2) 0.2984(5)
C2_14 C 0.6518(3) 0.3639(3) 0.2762(5)
H1_14 H 0.6615 0.3393 0.2464
C3_14 C 0.6819(3) 0.3975(3) 0.2989(5)
H2_14 H 0.7113 0.3944 0.2838
C4_14 C 0.6691(2) 0.4338(2) 0.3419(5)
C5_14 C 0.6243(3) 0.4387(2) 0.3677(5)
C6_14 C 0.6080(3) 0.4746(3) 0.4170(6)
H3_14 H 0.6274 0.4965 0.4342
C7_14 C 0.5646(2) 0.4777(3) 0.4397(7)
H4_14 H 0.5550 0.5011 0.4728
C8_14 C 0.5350(3) 0.4457(3) 0.4128(7)
H5_14 H 0.5054 0.4485 0.4268
C9_14 C 0.5484(3) 0.4107(3) 0.3668(6)
H6_14 H 0.5278 0.3899 0.3497
C10_14 C 0.5934(3) 0.4049(2) 0.3437(5)
C11_14 C 0.5792(2) 0.3320(2) 0.2663(4)
C12_14 C 0.7034(2) 0.4669(2) 0.3624(5)
C13_14 C 0.3542(2) 0.1403(3) 0.2716(5)
C14_14 C 0.3903(3) 0.1278(3) 0.3197(6)
H7_14 H 0.3939 0.0984 0.3344
C15_14 C 0.4212(3) 0.1586(3) 0.3462(6)
H8_14 H 0.4443 0.1497 0.3808
C16_14 C 0.4182(3) 0.2022(3) 0.3222(5)
C17_14 C 0.3821(3) 0.2164(3) 0.2750(5)
C18_14 C 0.3773(3) 0.2602(3) 0.2515(7)
H9_14 H 0.3984 0.2807 0.2677
C19_14 C 0.3422(3) 0.2733(3) 0.2056(8)
H10_14 H 0.3403 0.3026 0.1894
C20_14 C 0.3088(3) 0.2448(4) 0.1813(11)
H11_14 H 0.2844 0.2550 0.1515
C21_14 C 0.3126(3) 0.2010(3) 0.2027(7)
H12_14 H 0.2908 0.1815 0.1856
C22_14 C 0.3487(3) 0.1850(3) 0.2496(5)
C23_14 C 0.3239(3) 0.1032(3) 0.2467(5)
C24_14 C 0.4541(2) 0.2321(2) 0.3541(5)
C25_14 C 0.5930(3) 0.1589(2) 0.3066(6)
C26_14 C 0.6291(3) 0.1601(3) 0.2561(6)
H13_14 H 0.6377 0.1870 0.2336
C27_14 C 0.6539(3) 0.1232(3) 0.2365(6)
H14_14 H 0.6791 0.1257 0.2036
C28_14 C 0.6406(3) 0.0825(3) 0.2665(5)
C29_14 C 0.6021(3) 0.0793(3) 0.3176(5)
C30_14 C 0.5884(3) 0.0383(3) 0.3488(6)
H15_14 H 0.6044 0.0133 0.3348
C31_14 C 0.5523(3) 0.0342(3) 0.3988(7)
H16_14 H 0.5433 0.0068 0.4181
C32_14 C 0.5285(3) 0.0724(3) 0.4211(7)
H17_14 H 0.5041 0.0702 0.4564
C33_14 C 0.5414(3) 0.1131(3) 0.3905(6)
H18_14 H 0.5249 0.1379 0.4044
C34_14 C 0.5789(3) 0.1178(3) 0.3389(5)
C35_14 C 0.5701(3) 0.2015(3) 0.3248(6)
C36_14 C 0.6667(2) 0.0435(2) 0.2436(5)
O13_14 O 0.46943(15) 0.32738(15) 0.1794(4)
O14_14 O 0.5766(2) 0.2325(2) 0.0853(4)
H19_14 H 0.452781 0.327279 0.233648
H20_14 H 0.448843 0.322484 0.131372
H21_14 H 0.595905 0.2548 0.0582338
H22_14 H 0.560277 0.216174 0.0407015
O1_15 O 0.18206(15) 0.54684(15) 0.0611(3)
O7_15 O 0.24477(17) 0.47689(16) 0.0536(4)
O8_15 O 0.26745(16) 0.46168(16) 0.1818(4)
O9_15 O 0.27070(18) 0.5701(2) 0.0157(4)
O10_15 O 0.2915(2) 0.5529(2) 0.1440(4)
C1_15 C 0.1322(2) 0.6088(2) 0.0484(5)
C2_15 C 0.1361(3) 0.6518(3) 0.0262(5)
C3_15 C 0.1025(3) 0.6819(3) 0.0489(5)
H2_15 H 0.1056 0.7113 0.0338
C4_15 C 0.0662(2) 0.6691(2) 0.0919(5)
C5_15 C 0.0613(2) 0.6243(3) 0.1177(5)
C6_15 C 0.0254(3) 0.6080(3) 0.1670(6)
H3_15 H 0.0035 0.6274 0.1842
C7_15 C 0.0223(3) 0.5646(2) 0.1897(7)
C8_15 C 0.0543(3) 0.5350(3) 0.1628(7)
H5_15 H 0.0515 0.5054 0.1768
C9_15 C 0.0893(3) 0.5484(3) 0.1168(6)
H6_15 H 0.1101 0.5278 0.0997
C10_15 C 0.0951(2) 0.5934(3) 0.0937(5)
C11_15 C 0.1680(2) 0.5792(2) 0.0163(4)
C12_15 C 0.0331(2) 0.7034(2) 0.1124(5)
C13_15 C 0.3597(3) 0.3542(2) 0.0216(5)
C14_15 C 0.3722(3) 0.3903(3) 0.0697(6)
H7_15 H 0.4016 0.3939 0.0844
C15_15 C 0.3414(3) 0.4212(3) 0.0962(6)
H8_15 H 0.3503 0.4443 0.1308
C16_15 C 0.2978(3) 0.4182(3) 0.0722(5)
C17_15 C 0.2836(3) 0.3821(3) 0.0250(5)
C18_15 C 0.2398(3) 0.3773(3) 0.0015(7)
H9_15 H 0.2193 0.3984 0.0177
C24_15 C 0.2679(2) 0.4541(2) 0.1041(5)
C25_15 C 0.3411(2) 0.5930(3) 0.0566(6)
C26_15 C 0.3399(3) 0.6291(3) 0.0061(6)
C28_15 C 0.4175(3) 0.6406(3) 0.0165(5)
C29_15 C 0.4207(3) 0.6021(3) 0.0676(5)
C30_15 C 0.4617(3) 0.5884(3) 0.0988(6)
H15_15 H 0.4867 0.6044 0.0848
C31_15 C 0.4658(3) 0.5523(3) 0.1488(7)
H16_15 H 0.4932 0.5433 0.1681
C32_15 C 0.4276(3) 0.5285(3) 0.1711(7)
H17_15 H 0.4298 0.5041 0.2064
C33_15 C 0.3869(3) 0.5414(3) 0.1405(6)
H18_15 H 0.3621 0.5249 0.1544
C34_15 C 0.3822(3) 0.5789(3) 0.0889(5)
C35_15 C 0.2985(3) 0.5701(3) 0.0748(6)
O2_15 O 0.18366(16) 0.58601(15) 0.9454(3)
H1_15 H 0.1607 0.6615 0.9964
C19_15 C 0.2267(3) 0.3422(3) 0.9556(8)
H10_15 H 0.1974 0.3403 0.9394
C20_15 C 0.2552(4) 0.3088(3) 0.9313(11)
H11_15 H 0.2450 0.2844 0.9015
C21_15 C 0.2990(3) 0.3126(3) 0.9527(7)
H12_15 H 0.3185 0.2908 0.9356
C22_15 C 0.3150(3) 0.3487(3) 0.9996(5)
C23_15 C 0.3968(3) 0.3239(3) 0.9967(5)
H13_15 H 0.3130 0.6377 0.9836
C27_15 C 0.3768(3) 0.6539(3) 0.9865(6)
H14_15 H 0.3743 0.6791 0.9536
C36_15 C 0.4565(2) 0.6667(2) 0.9936(5)
O13_15 O 0.17262(15) 0.46943(15) 0.9294(4)
O14_15 O 0.2675(2) 0.5766(2) 0.8353(4)
H19_15 H 0.172721 0.452781 0.983648
H20_15 H 0.177516 0.448843 0.881372
H21_15 H 0.2452 0.595905 0.808234
H22_15 H 0.283826 0.560277 0.790702
H4_15 H 0.9989 0.5550 0.2228
O7_16 O 0.25523(17) 0.02311(16) 0.5536(4)
O8_16 O 0.23255(16) 0.03832(16) 0.6818(4)
C13_16 C 0.1403(3) 0.1458(2) 0.5216(5)
C14_16 C 0.1278(3) 0.1097(3) 0.5697(6)
H7_16 H 0.0984 0.1061 0.5844
C15_16 C 0.1586(3) 0.0788(3) 0.5962(6)
H8_16 H 0.1497 0.0557 0.6308
C16_16 C 0.2022(3) 0.0818(3) 0.5722(5)
C17_16 C 0.2164(3) 0.1179(3) 0.5250(5)
C18_16 C 0.2602(3) 0.1227(3) 0.5015(7)
H9_16 H 0.2807 0.1016 0.5177
C19_16 C 0.2733(3) 0.1578(3) 0.4556(8)
H10_16 H 0.3026 0.1597 0.4394
C20_16 C 0.2448(4) 0.1912(3) 0.4313(11)
H11_16 H 0.2550 0.2156 0.4015
C21_16 C 0.2010(3) 0.1874(3) 0.4527(7)
H12_16 H 0.1815 0.2092 0.4356
C22_16 C 0.1850(3) 0.1513(3) 0.4996(5)
C23_16 C 0.1032(3) 0.1761(3) 0.4967(5)
C24_16 C 0.2321(2) 0.0459(2) 0.6041(5)
O13_16 O 0.32738(15) 0.03057(15) 0.4294(4)
H19_16 H 0.327279 0.0472188 0.483648
H20_16 H 0.322484 0.0511573 0.381372
O1_16 O 0.31794(15) 0.95316(15) 0.5611(3)
O2_16 O 0.31634(16) 0.91399(15) 0.4454(3)
O9_16 O 0.22930(18) 0.9299(2) 0.5157(4)
O10_16 O 0.2085(2) 0.9471(2) 0.6440(4)
C1_16 C 0.3678(2) 0.8912(2) 0.5484(5)
C2_16 C 0.3639(3) 0.8482(3) 0.5262(5)
H1_16 H 0.3393 0.8385 0.4964
C3_16 C 0.3975(3) 0.8181(3) 0.5489(5)
H2_16 H 0.3944 0.7887 0.5338
C4_16 C 0.4338(2) 0.8309(2) 0.5919(5)
C5_16 C 0.4387(2) 0.8757(3) 0.6177(5)
C6_16 C 0.4746(3) 0.8920(3) 0.6670(6)
H3_16 H 0.4965 0.8726 0.6842
C7_16 C 0.4777(3) 0.9354(2) 0.6897(7)
H4_16 H 0.5011 0.9450 0.7228
C8_16 C 0.4457(3) 0.9650(3) 0.6628(7)
H5_16 H 0.4485 0.9946 0.6768
C9_16 C 0.4107(3) 0.9516(3) 0.6168(6)
H6_16 H 0.3899 0.9722 0.5997
C10_16 C 0.4049(2) 0.9066(3) 0.5937(5)
C11_16 C 0.3320(2) 0.9208(2) 0.5163(4)
C12_16 C 0.4669(2) 0.7966(2) 0.6124(5)
C25_16 C 0.1589(2) 0.9070(3) 0.5566(6)
C26_16 C 0.1601(3) 0.8709(3) 0.5061(6)
H13_16 H 0.1870 0.8623 0.4836
C27_16 C 0.1232(3) 0.8461(3) 0.4865(6)
H14_16 H 0.1257 0.8209 0.4536
C28_16 C 0.0825(3) 0.8594(3) 0.5165(5)
C29_16 C 0.0793(3) 0.8979(3) 0.5676(5)
C30_16 C 0.0383(3) 0.9116(3) 0.5988(6)
H15_16 H 0.0133 0.8956 0.5848
C31_16 C 0.0342(3) 0.9477(3) 0.6488(7)
H16_16 H 0.0068 0.9567 0.6681
C32_16 C 0.0724(3) 0.9715(3) 0.6711(7)
H17_16 H 0.0702 0.9959 0.7064
C33_16 C 0.1131(3) 0.9586(3) 0.6405(6)
H18_16 H 0.1379 0.9751 0.6544
C34_16 C 0.1178(3) 0.9211(3) 0.5889(5)
C35_16 C 0.2015(3) 0.9299(3) 0.5748(6)
C36_16 C 0.0435(2) 0.8333(2) 0.4936(5)
O14_16 O 0.2325(2) 0.9234(2) 0.3353(4)
H21_16 H 0.2548 0.904095 0.308234
H22_16 H 0.216174 0.939723 0.290702
loop_
_geom_bond_atom_site_label_1
_geom_bond_atom_site_label_2
_geom_bond_site_symmetry_1
_geom_bond_site_symmetry_2
Gd1 O1 1_555 1_555
Gd2 O1 1_555 1_555
O1 C11 1_555 1_555
O2 Gd1 1_555 1_555
O3 C12 1_555 1_555
O4 C12 1_555 1_555
O5 C23 1_555 1_555
O6 C23 1_555 1_555
O7 Gd1 1_555 1_555
O8 Gd2 1_555 1_555
O9 Gd1 1_555 1_555
O10 Gd2 1_555 1_555
O11 C36 1_555 1_555
O12 C36 1_555 1_555
C1 C2 1_555 1_555
C2 H1 1_555 1_555
C3 C2 1_555 1_555
H2 C3 1_555 1_555
C4 C3 1_555 1_555
C5 C4 1_555 1_555
C6 C5 1_555 1_555
H3 C6 1_555 1_555
C7 C6 1_555 1_555
H4 C7 1_555 1_555
C8 C7 1_555 1_555
H5 C8 1_555 1_555
C9 C8 1_555 1_555
H6 C9 1_555 1_555
C10 C1 1_555 1_555
C11 O2 1_555 1_555
C12 C4 1_555 1_555
C13 C14 1_555 1_555
C14 H7 1_555 1_555
C15 C14 1_555 1_555
H8 C15 1_555 1_555
C16 C15 1_555 1_555
C17 C16 1_555 1_555
C18 C17 1_555 1_555
H9 C18 1_555 1_555
C19 C18 1_555 1_555
H10 C19 1_555 1_555
C20 C19 1_555 1_555
H11 C20 1_555 1_555
C21 C20 1_555 1_555
H12 C21 1_555 1_555
C22 C13 1_555 1_555
C23 C13 1_555 1_555
C24 O7 1_555 1_555
C25 C26 1_555 1_555
C26 H13 1_555 1_555
C27 C26 1_555 1_555
H14 C27 1_555 1_555
C28 C27 1_555 1_555
C29 C28 1_555 1_555
C30 C29 1_555 1_555
H15 C30 1_555 1_555
C31 C30 1_555 1_555
H16 C31 1_555 1_555
C32 C31 1_555 1_555
H17 C32 1_555 1_555
C33 C32 1_555 1_555
H18 C33 1_555 1_555
C34 C25 1_555 1_555
C35 O9 1_555 1_555
C36 C28 1_555 1_555
O13 Gd1 1_555 1_555
O14 Gd1 1_555 1_555
Gd3 O3 1_555 1_555
Gd4 O12 1_555 1_555
Gd5 O3 1_555 1_555
Gd6 O5 1_555 1_555
O15 Gd1 1_555 1_555
O17 Gd1 1_555 1_555
O18 Gd2 1_555 1_555
O20 Gd2 1_555 1_555
O21 Gd1 1_555 1_555
Gd2 O7 1_555 1_555
O4 Gd3 1_555 1_555
O6 Gd6 1_555 1_555
O8 C24 1_555 1_555
O10 C35 1_555 1_555
C1 C11 1_555 1_555
C5 C10 1_555 1_555
C9 C10 1_555 1_555
C16 C24 1_555 1_555
C17 C22 1_555 1_555
C21 C22 1_555 1_555
C25 C35 1_555 1_555
C29 C34 1_555 1_555
C33 C34 1_555 1_555
O13 H19 1_555 1_555
O13 H20 1_555 1_555
O14 H21 1_555 1_555
O14 H22 1_555 1_555
Gd1_2 O1_2 1_555 1_555
Gd2_2 O1_2 1_555 1_555
O1_2 C11_2 1_555 1_555
O2_2 Gd1_2 1_555 1_555
O3_2 C12_2 1_555 1_555
O4_2 C12_2 1_555 1_555
O9_2 Gd1_2 1_555 1_555
O10_2 Gd2_2 1_555 1_555
O11_2 C36_2 1_555 1_555
O12_2 C36_2 1_555 1_555
C1_2 C2_2 1_555 1_555
C2_2 H1_2 1_555 1_555
C3_2 C2_2 1_555 1_555
H2_2 C3_2 1_555 1_555
C4_2 C3_2 1_555 1_555
C5_2 C4_2 1_555 1_555
C6_2 C5_2 1_555 1_555
H3_2 C6_2 1_555 1_555
C7_2 C6_2 1_555 1_555
C8_2 C7_2 1_555 1_555
H5_2 C8_2 1_555 1_555
C9_2 C8_2 1_555 1_555
H6_2 C9_2 1_555 1_555
C10_2 C1_2 1_555 1_555
C11_2 O2_2 1_555 1_555
C12_2 C4_2 1_555 1_555
C25_2 C26_2 1_555 1_555
C26_2 H13_2 1_555 1_555
C27_2 C26_2 1_555 1_555
H14_2 C27_2 1_555 1_555
C28_2 C27_2 1_555 1_555
C29_2 C28_2 1_555 1_555
C30_2 C29_2 1_555 1_555
H15_2 C30_2 1_555 1_555
C31_2 C30_2 1_555 1_555
H16_2 C31_2 1_555 1_555
C32_2 C31_2 1_555 1_555
H17_2 C32_2 1_555 1_555
C33_2 C32_2 1_555 1_555
H18_2 C33_2 1_555 1_555
C34_2 C25_2 1_555 1_555
C35_2 O9_2 1_555 1_555
C36_2 C28_2 1_555 1_555
O14_2 Gd1_2 1_555 1_555
Gd4_2 O12_2 1_555 1_555
Gd5_2 O3_2 1_555 1_555
Gd7_2 O11_2 1_555 1_555
O16_2 Gd2_2 1_555 1_555
O18_2 Gd2_2 1_555 1_555
O19_2 Gd2_2 1_555 1_555
O21_2 Gd1_2 1_555 1_555
O10_2 C35_2 1_555 1_555
O12_2 Gd7_2 1_555 1_555
C1_2 C11_2 1_555 1_555
C5_2 C10_2 1_555 1_555
C9_2 C10_2 1_555 1_555
C25_2 C35_2 1_555 1_555
C29_2 C34_2 1_555 1_555
C33_2 C34_2 1_555 1_555
O14_2 H21_2 1_555 1_555
O14_2 H22_2 1_555 1_555
O5_2 C23_2 1_555 1_555
O6_2 C23_2 1_555 1_555
C13_2 C14_2 1_555 1_555
C14_2 H7_2 1_555 1_555
C15_2 C14_2 1_555 1_555
H8_2 C15_2 1_555 1_555
C16_2 C15_2 1_555 1_555
C17_2 C16_2 1_555 1_555
C18_2 C17_2 1_555 1_555
H9_2 C18_2 1_555 1_555
C19_2 C18_2 1_555 1_555
H10_2 C19_2 1_555 1_555
C20_2 C19_2 1_555 1_555
H11_2 C20_2 1_555 1_555
C21_2 C20_2 1_555 1_555
H12_2 C21_2 1_555 1_555
C22_2 C13_2 1_555 1_555
C23_2 C13_2 1_555 1_555
C24_2 O7_2 1_555 1_555
Gd6_2 O5_2 1_555 1_555
O6_2 Gd6_2 1_555 1_555
O8_2 C24_2 1_555 1_555
C16_2 C24_2 1_555 1_555
C17_2 C22_2 1_555 1_555
C21_2 C22_2 1_555 1_555
O13_2 H19_2 1_555 1_555
O13_2 H20_2 1_555 1_555
C13_3 C14_3 1_555 1_555
C14_3 H7_3 1_555 1_555
C15_3 C14_3 1_555 1_555
H8_3 C15_3 1_555 1_555
C16_3 C15_3 1_555 1_555
C17_3 C16_3 1_555 1_555
C18_3 C17_3 1_555 1_555
H9_3 C18_3 1_555 1_555
C24_3 O7_3 1_555 1_555
O8_3 C24_3 1_555 1_555
C16_3 C24_3 1_555 1_555
O5_3 C23_3 1_555 1_555
H10_3 C19_3 1_555 1_555
C20_3 C19_3 1_555 1_555
H11_3 C20_3 1_555 1_555
C21_3 C20_3 1_555 1_555
H12_3 C21_3 1_555 1_555
Gd6_3 O5_3 1_555 1_555
C21_3 C22_3 1_555 1_555
O13_3 H19_3 1_555 1_555
O13_3 H20_3 1_555 1_555
Gd2_3 O1_3 1_555 1_555
O1_3 C11_3 1_555 1_555
O3_3 C12_3 1_555 1_555
O4_3 C12_3 1_555 1_555
O10_3 Gd2_3 1_555 1_555
C1_3 C2_3 1_555 1_555
C3_3 C2_3 1_555 1_555
H2_3 C3_3 1_555 1_555
C4_3 C3_3 1_555 1_555
C5_3 C4_3 1_555 1_555
C6_3 C5_3 1_555 1_555
H3_3 C6_3 1_555 1_555
C7_3 C6_3 1_555 1_555
H4_3 C7_3 1_555 1_555
C8_3 C7_3 1_555 1_555
H5_3 C8_3 1_555 1_555
C9_3 C8_3 1_555 1_555
H6_3 C9_3 1_555 1_555
C10_3 C1_3 1_555 1_555
C12_3 C4_3 1_555 1_555
C25_3 C26_3 1_555 1_555
C29_3 C28_3 1_555 1_555
C30_3 C29_3 1_555 1_555
H15_3 C30_3 1_555 1_555
C31_3 C30_3 1_555 1_555
H16_3 C31_3 1_555 1_555
C32_3 C31_3 1_555 1_555
H17_3 C32_3 1_555 1_555
C33_3 C32_3 1_555 1_555
H18_3 C33_3 1_555 1_555
C34_3 C25_3 1_555 1_555
C35_3 O9_3 1_555 1_555
Gd3_3 O3_3 1_555 1_555
Gd4_3 O12_3 1_555 1_555
O16_3 Gd2_3 1_555 1_555
O18_3 Gd2_3 1_555 1_555
O19_3 Gd2_3 1_555 1_555
O4_3 Gd3_3 1_555 1_555
O10_3 C35_3 1_555 1_555
C1_3 C11_3 1_555 1_555
C5_3 C10_3 1_555 1_555
C9_3 C10_3 1_555 1_555
C25_3 C35_3 1_555 1_555
C29_3 C34_3 1_555 1_555
C33_3 C34_3 1_555 1_555
O2_3 Gd1_3 1_555 1_555
O11_3 C36_3 1_555 1_555
H14_3 C27_3 1_555 1_555
O14_3 Gd1_3 1_555 1_555
O21_3 Gd1_3 1_555 1_555
O14_3 H21_3 1_555 1_555
O14_3 H22_3 1_555 1_555
Gd1_4 O1_4 1_555 1_555
Gd2_4 O1_4 1_555 1_555
O1_4 C11_4 1_555 1_555
O2_4 Gd1_4 1_555 1_555
O3_4 C12_4 1_555 1_555
O4_4 C12_4 1_555 1_555
O5_4 C23_4 1_555 1_555
O6_4 C23_4 1_555 1_555
O7_4 Gd1_4 1_555 1_555
O8_4 Gd2_4 1_555 1_555
O9_4 Gd1_4 1_555 1_555
O10_4 Gd2_4 1_555 1_555
O11_4 C36_4 1_555 1_555
O12_4 C36_4 1_555 1_555
C1_4 C2_4 1_555 1_555
C2_4 H1_4 1_555 1_555
C3_4 C2_4 1_555 1_555
H2_4 C3_4 1_555 1_555
C4_4 C3_4 1_555 1_555
C5_4 C4_4 1_555 1_555
C6_4 C5_4 1_555 1_555
H3_4 C6_4 1_555 1_555
C7_4 C6_4 1_555 1_555
C8_4 C7_4 1_555 1_555
H5_4 C8_4 1_555 1_555
C9_4 C8_4 1_555 1_555
H6_4 C9_4 1_555 1_555
C10_4 C1_4 1_555 1_555
C11_4 O2_4 1_555 1_555
C12_4 C4_4 1_555 1_555
C13_4 C14_4 1_555 1_555
C14_4 H7_4 1_555 1_555
C15_4 C14_4 1_555 1_555
H8_4 C15_4 1_555 1_555
C16_4 C15_4 1_555 1_555
C17_4 C16_4 1_555 1_555
C18_4 C17_4 1_555 1_555
H9_4 C18_4 1_555 1_555
C19_4 C18_4 1_555 1_555
H10_4 C19_4 1_555 1_555
C20_4 C19_4 1_555 1_555
H11_4 C20_4 1_555 1_555
C21_4 C20_4 1_555 1_555
H12_4 C21_4 1_555 1_555
C22_4 C13_4 1_555 1_555
C23_4 C13_4 1_555 1_555
C24_4 O7_4 1_555 1_555
C25_4 C26_4 1_555 1_555
C26_4 H13_4 1_555 1_555
C27_4 C26_4 1_555 1_555
H14_4 C27_4 1_555 1_555
C28_4 C27_4 1_555 1_555
C29_4 C28_4 1_555 1_555
C30_4 C29_4 1_555 1_555
H15_4 C30_4 1_555 1_555
C31_4 C30_4 1_555 1_555
H16_4 C31_4 1_555 1_555
C32_4 C31_4 1_555 1_555
H17_4 C32_4 1_555 1_555
C33_4 C32_4 1_555 1_555
H18_4 C33_4 1_555 1_555
C34_4 C25_4 1_555 1_555
C35_4 O9_4 1_555 1_555
C36_4 C28_4 1_555 1_555
O13_4 Gd1_4 1_555 1_555
O14_4 Gd1_4 1_555 1_555
Gd4_4 O12_4 1_555 1_555
Gd5_4 O3_4 1_555 1_555
Gd6_4 O5_4 1_555 1_555
Gd7_4 O11_4 1_555 1_555
O15_4 Gd1_4 1_555 1_555
O16_4 Gd2_4 1_555 1_555
O17_4 Gd1_4 1_555 1_555
O18_4 Gd2_4 1_555 1_555
O19_4 Gd2_4 1_555 1_555
O20_4 Gd2_4 1_555 1_555
O21_4 Gd1_4 1_555 1_555
O22_4 Gd2_4 1_555 1_555
Gd2_4 O7_4 1_555 1_555
O6_4 Gd6_4 1_555 1_555
O8_4 C24_4 1_555 1_555
O10_4 C35_4 1_555 1_555
O12_4 Gd7_4 1_555 1_555
C1_4 C11_4 1_555 1_555
C5_4 C10_4 1_555 1_555
C9_4 C10_4 1_555 1_555
C16_4 C24_4 1_555 1_555
C17_4 C22_4 1_555 1_555
C21_4 C22_4 1_555 1_555
C25_4 C35_4 1_555 1_555
C29_4 C34_4 1_555 1_555
C33_4 C34_4 1_555 1_555
O13_4 H19_4 1_555 1_555
O13_4 H20_4 1_555 1_555
O14_4 H21_4 1_555 1_555
O14_4 H22_4 1_555 1_555
Gd3_3 O1_5 1_555 1_555
Gd7_4 O1_5 1_555 1_555
O1_5 C11_5 1_555 1_555
O2_5 Gd3_3 1_555 1_555
O3_5 C12_5 1_555 1_555
O4_5 C12_5 1_555 1_555
O18_3 C23_5 1_555 1_555
O19_3 C23_5 1_555 1_555
O7_5 Gd3_3 1_555 1_555
O8_5 Gd7_4 1_555 1_555
O9_5 Gd3_3 1_555 1_555
O10_5 Gd7_4 1_555 1_555
O11_5 C36_5 1_555 1_555
O12_5 C36_5 1_555 1_555
C1_5 C2_5 1_555 1_555
C2_5 H1_5 1_555 1_555
C3_5 C2_5 1_555 1_555
H2_5 C3_5 1_555 1_555
C4_5 C3_5 1_555 1_555
C5_5 C4_5 1_555 1_555
C6_5 C5_5 1_555 1_555
H3_5 C6_5 1_555 1_555
C7_5 C6_5 1_555 1_555
H4_5 C7_5 1_555 1_555
C8_5 C7_5 1_555 1_555
H5_5 C8_5 1_555 1_555
C9_5 C8_5 1_555 1_555
H6_5 C9_5 1_555 1_555
C10_5 C1_5 1_555 1_555
C11_5 O2_5 1_555 1_555
C12_5 C4_5 1_555 1_555
C13_5 C14_5 1_555 1_555
C14_5 H7_5 1_555 1_555
C15_5 C14_5 1_555 1_555
H8_5 C15_5 1_555 1_555
C16_5 C15_5 1_555 1_555
C17_5 C16_5 1_555 1_555
C18_5 C17_5 1_555 1_555
H9_5 C18_5 1_555 1_555
C19_5 C18_5 1_555 1_555
H10_5 C19_5 1_555 1_555
C20_5 C19_5 1_555 1_555
H11_5 C20_5 1_555 1_555
C21_5 C20_5 1_555 1_555
H12_5 C21_5 1_555 1_555
C22_5 C13_5 1_555 1_555
C23_5 C13_5 1_555 1_555
C24_5 O7_5 1_555 1_555
C25_5 C26_5 1_555 1_555
C26_5 H13_5 1_555 1_555
C27_5 C26_5 1_555 1_555
H14_5 C27_5 1_555 1_555
C28_5 C27_5 1_555 1_555
C29_5 C28_5 1_555 1_555
C30_5 C29_5 1_555 1_555
H15_5 C30_5 1_555 1_555
C31_5 C30_5 1_555 1_555
H16_5 C31_5 1_555 1_555
C32_5 C31_5 1_555 1_555
H17_5 C32_5 1_555 1_555
C33_5 C32_5 1_555 1_555
H18_5 C33_5 1_555 1_555
C34_5 C25_5 1_555 1_555
C35_5 O9_5 1_555 1_555
C36_5 C28_5 1_555 1_555
O13_5 Gd3_3 1_555 1_555
O14_5 Gd3_3 1_555 1_555
Gd4_2 O3_5 1_555 1_555
Gd3_2 O12_5 1_555 1_555
Gd7_2 O3_5 1_555 1_555
O16_5 Gd7_4 1_555 1_555
O18_5 Gd7_4 1_555 1_555
O19_5 Gd7_4 1_555 1_555
O21_5 Gd3_3 1_555 1_555
Gd7_4 O7_5 1_555 1_555
O4_5 Gd4_2 1_555 1_555
O8_5 C24_5 1_555 1_555
O10_5 C35_5 1_555 1_555
C1_5 C11_5 1_555 1_555
C5_5 C10_5 1_555 1_555
C9_5 C10_5 1_555 1_555
C16_5 C24_5 1_555 1_555
C17_5 C22_5 1_555 1_555
C21_5 C22_5 1_555 1_555
C25_5 C35_5 1_555 1_555
C29_5 C34_5 1_555 1_555
C33_5 C34_5 1_555 1_555
O13_5 H19_5 1_555 1_555
O13_5 H20_5 1_555 1_555
O14_5 H21_5 1_555 1_555
O14_5 H22_5 1_555 1_555
Gd3_4 O1_6 1_555 1_555
Gd7_3 O1_6 1_555 1_555
O1_6 C11_6 1_555 1_555
O2_6 Gd3_4 1_555 1_555
O3_6 C12_6 1_555 1_555
O4_6 C12_6 1_555 1_555
O9_6 Gd3_4 1_555 1_555
O10_6 Gd7_3 1_555 1_555
O11_6 C36_6 1_555 1_555
O12_6 C36_6 1_555 1_555
C1_6 C2_6 1_555 1_555
C2_6 H1_6 1_555 1_555
C3_6 C2_6 1_555 1_555
H2_6 C3_6 1_555 1_555
C4_6 C3_6 1_555 1_555
C5_6 C4_6 1_555 1_555
C6_6 C5_6 1_555 1_555
H3_6 C6_6 1_555 1_555
C7_6 C6_6 1_555 1_555
C8_6 C7_6 1_555 1_555
H5_6 C8_6 1_555 1_555
C9_6 C8_6 1_555 1_555
H6_6 C9_6 1_555 1_555
C10_6 C1_6 1_555 1_555
C11_6 O2_6 1_555 1_555
C12_6 C4_6 1_555 1_555
C25_6 C26_6 1_555 1_555
C26_6 H13_6 1_555 1_555
C27_6 C26_6 1_555 1_555
H14_6 C27_6 1_555 1_555
C28_6 C27_6 1_555 1_555
C29_6 C28_6 1_555 1_555
C30_6 C29_6 1_555 1_555
H15_6 C30_6 1_555 1_555
C31_6 C30_6 1_555 1_555
H16_6 C31_6 1_555 1_555
C32_6 C31_6 1_555 1_555
H17_6 C32_6 1_555 1_555
C33_6 C32_6 1_555 1_555
H18_6 C33_6 1_555 1_555
C34_6 C25_6 1_555 1_555
C35_6 O9_6 1_555 1_555
C36_6 C28_6 1_555 1_555
O14_6 Gd3_4 1_555 1_555
Gd3 O12_6 1_555 1_555
Gd7 O3_6 1_555 1_555
Gd5 O11_6 1_555 1_555
O18_6 Gd7_3 1_555 1_555
O21_6 Gd3_4 1_555 1_555
O10_6 C35_6 1_555 1_555
O12_6 Gd5 1_555 1_555
C1_6 C11_6 1_555 1_555
C5_6 C10_6 1_555 1_555
C9_6 C10_6 1_555 1_555
C25_6 C35_6 1_555 1_555
C29_6 C34_6 1_555 1_555
C33_6 C34_6 1_555 1_555
O14_6 H21_6 1_555 1_555
O14_6 H22_6 1_555 1_555
O18_4 C23_6 1_555 1_555
O19_4 C23_6 1_555 1_555
C13_6 C14_6 1_555 1_555
C14_6 H7_6 1_555 1_555
C15_6 C14_6 1_555 1_555
H8_6 C15_6 1_555 1_555
C16_6 C15_6 1_555 1_555
C17_6 C16_6 1_555 1_555
C18_6 C17_6 1_555 1_555
H9_6 C18_6 1_555 1_555
C19_6 C18_6 1_555 1_555
H10_6 C19_6 1_555 1_555
C20_6 C19_6 1_555 1_555
H11_6 C20_6 1_555 1_555
C21_6 C20_6 1_555 1_555
H12_6 C21_6 1_555 1_555
C22_6 C13_6 1_555 1_555
C23_6 C13_6 1_555 1_555
C24_6 O7_6 1_555 1_555
O8_6 C24_6 1_555 1_555
C16_6 C24_6 1_555 1_555
C17_6 C22_6 1_555 1_555
C21_6 C22_6 1_555 1_555
O13_6 H19_6 1_555 1_555
O13_6 H20_6 1_555 1_555
Gd1_5 O1_7 1_555 1_555
Gd6 O1_7 1_555 1_555
O1_7 C11_7 1_555 1_555
O2_7 Gd1_5 1_555 1_555
O15 C12_7 1_555 1_555
O17 C12_7 1_555 1_555
O9_7 Gd1_5 1_555 1_555
O10_7 Gd6 1_555 1_555
O20_2 C36_7 1_555 1_555
O22_2 C36_7 1_555 1_555
C1_7 C2_7 1_555 1_555
C2_7 H1_7 1_555 1_555
C3_7 C2_7 1_555 1_555
H2_7 C3_7 1_555 1_555
C4_7 C3_7 1_555 1_555
C5_7 C4_7 1_555 1_555
C6_7 C5_7 1_555 1_555
H3_7 C6_7 1_555 1_555
C7_7 C6_7 1_555 1_555
H4_7 C7_7 1_555 1_555
C8_7 C7_7 1_555 1_555
H5_7 C8_7 1_555 1_555
C9_7 C8_7 1_555 1_555
H6_7 C9_7 1_555 1_555
C10_7 C1_7 1_555 1_555
C11_7 O2_7 1_555 1_555
C12_7 C4_7 1_555 1_555
C25_7 C26_7 1_555 1_555
C26_7 H13_7 1_555 1_555
C27_7 C26_7 1_555 1_555
H14_7 C27_7 1_555 1_555
C28_7 C27_7 1_555 1_555
C29_7 C28_7 1_555 1_555
C30_7 C29_7 1_555 1_555
H15_7 C30_7 1_555 1_555
C31_7 C30_7 1_555 1_555
H16_7 C31_7 1_555 1_555
C32_7 C31_7 1_555 1_555
H17_7 C32_7 1_555 1_555
C33_7 C32_7 1_555 1_555
H18_7 C33_7 1_555 1_555
C34_7 C25_7 1_555 1_555
C35_7 O9_7 1_555 1_555
C36_7 C28_7 1_555 1_555
O14_7 Gd1_5 1_555 1_555
Gd4_5 O22_2 1_555 1_555
Gd6_4 O15 1_555 1_555
O15_3 Gd6 1_555 1_555
O22_3 Gd1_5 1_555 1_555
O10_7 C35_7 1_555 1_555
C1_7 C11_7 1_555 1_555
C5_7 C10_7 1_555 1_555
C9_7 C10_7 1_555 1_555
C25_7 C35_7 1_555 1_555
C29_7 C34_7 1_555 1_555
C33_7 C34_7 1_555 1_555
O14_7 H21_7 1_555 1_555
O14_7 H22_7 1_555 1_555
O5_5 C23_7 1_555 1_555
O6_5 C23_7 1_555 1_555
C13_7 C14_7 1_555 1_555
C14_7 H7_7 1_555 1_555
C15_7 C14_7 1_555 1_555
H8_7 C15_7 1_555 1_555
C16_7 C15_7 1_555 1_555
C17_7 C16_7 1_555 1_555
C18_7 C17_7 1_555 1_555
H9_7 C18_7 1_555 1_555
C19_7 C18_7 1_555 1_555
H10_7 C19_7 1_555 1_555
C20_7 C19_7 1_555 1_555
H11_7 C20_7 1_555 1_555
C21_7 C20_7 1_555 1_555
H12_7 C21_7 1_555 1_555
C22_7 C13_7 1_555 1_555
C23_7 C13_7 1_555 1_555
C24_7 O7_7 1_555 1_555
Gd5_4 O5_5 1_555 1_555
O6_5 Gd5_4 1_555 1_555
O8_7 C24_7 1_555 1_555
C16_7 C24_7 1_555 1_555
C17_7 C22_7 1_555 1_555
C21_7 C22_7 1_555 1_555
O13_7 H19_7 1_555 1_555
O13_7 H20_7 1_555 1_555
Gd6_2 O1_8 1_555 1_555
O1_8 C11_8 1_555 1_555
O15_2 C12_8 1_555 1_555
O17_2 C12_8 1_555 1_555
O8_8 Gd6_2 1_555 1_555
O10_8 Gd6_2 1_555 1_555
C1_8 C2_8 1_555 1_555
C3_8 C2_8 1_555 1_555
H2_8 C3_8 1_555 1_555
C4_8 C3_8 1_555 1_555
C5_8 C4_8 1_555 1_555
C6_8 C5_8 1_555 1_555
H3_8 C6_8 1_555 1_555
C7_8 C6_8 1_555 1_555
C8_8 C7_8 1_555 1_555
H5_8 C8_8 1_555 1_555
C9_8 C8_8 1_555 1_555
H6_8 C9_8 1_555 1_555
C10_8 C1_8 1_555 1_555
C12_8 C4_8 1_555 1_555
C13_8 C14_8 1_555 1_555
C14_8 H7_8 1_555 1_555
C15_8 C14_8 1_555 1_555
H8_8 C15_8 1_555 1_555
C16_8 C15_8 1_555 1_555
C17_8 C16_8 1_555 1_555
C18_8 C17_8 1_555 1_555
H9_8 C18_8 1_555 1_555
C24_8 O7_8 1_555 1_555
C25_8 C26_8 1_555 1_555
C29_8 C28_8 1_555 1_555
C30_8 C29_8 1_555 1_555
H15_8 C30_8 1_555 1_555
C31_8 C30_8 1_555 1_555
H16_8 C31_8 1_555 1_555
C32_8 C31_8 1_555 1_555
H17_8 C32_8 1_555 1_555
C33_8 C32_8 1_555 1_555
H18_8 C33_8 1_555 1_555
C34_8 C25_8 1_555 1_555
C35_8 O9_8 1_555 1_555
Gd4_6 O22 1_555 1_555
O15_4 Gd6_2 1_555 1_555
O20_6 Gd6_2 1_555 1_555
O21_4 Gd6_2 1_555 1_555
Gd6_2 O7_8 1_555 1_555
O8_8 C24_8 1_555 1_555
O10_8 C35_8 1_555 1_555
C1_8 C11_8 1_555 1_555
C5_8 C10_8 1_555 1_555
C9_8 C10_8 1_555 1_555
C16_8 C24_8 1_555 1_555
C25_8 C35_8 1_555 1_555
C29_8 C34_8 1_555 1_555
C33_8 C34_8 1_555 1_555
O2_8 Gd1_6 1_555 1_555
O5_6 C23_8 1_555 1_555
O20 C36_8 1_555 1_555
H10_8 C19_8 1_555 1_555
C20_8 C19_8 1_555 1_555
H11_8 C20_8 1_555 1_555
C21_8 C20_8 1_555 1_555
H12_8 C21_8 1_555 1_555
H14_8 C27_8 1_555 1_555
O13_8 Gd1_6 1_555 1_555
O14_8 Gd1_6 1_555 1_555
Gd5_3 O5_6 1_555 1_555
O16_4 Gd1_6 1_555 1_555
O17_6 Gd1_6 1_555 1_555
O22_4 Gd1_6 1_555 1_555
C21_8 C22_8 1_555 1_555
O13_8 H19_8 1_555 1_555
O13_8 H20_8 1_555 1_555
O14_8 H21_8 1_555 1_555
O14_8 H22_8 1_555 1_555
O5_7 C23_9 1_555 1_555
O6_7 C23_9 1_555 1_555
C13_9 C14_9 1_555 1_555
C14_9 H7_9 1_555 1_555
C15_9 C14_9 1_555 1_555
H8_9 C15_9 1_555 1_555
C16_9 C15_9 1_555 1_555
C17_9 C16_9 1_555 1_555
C18_9 C17_9 1_555 1_555
H9_9 C18_9 1_555 1_555
C19_9 C18_9 1_555 1_555
H10_9 C19_9 1_555 1_555
C20_9 C19_9 1_555 1_555
H11_9 C20_9 1_555 1_555
C21_9 C20_9 1_555 1_555
H12_9 C21_9 1_555 1_555
C22_9 C13_9 1_555 1_555
C23_9 C13_9 1_555 1_555
C24_9 O7_9 1_555 1_555
Gd7_2 O5_7 1_555 1_555
O6_7 Gd7_2 1_555 1_555
O8_9 C24_9 1_555 1_555
C16_9 C24_9 1_555 1_555
C17_9 C22_9 1_555 1_555
C21_9 C22_9 1_555 1_555
O13_9 H19_9 1_555 1_555
O13_9 H20_9 1_555 1_555
Gd4_3 O1_9 1_555 1_555
Gd5_4 O1_9 1_555 1_555
O1_9 C11_9 1_555 1_555
O2_9 Gd4_3 1_555 1_555
O16_3 C12_9 1_555 1_555
O17_5 C12_9 1_555 1_555
O9_9 Gd4_3 1_555 1_555
O10_9 Gd5_4 1_555 1_555
O20_6 C36_9 1_555 1_555
O21_4 C36_9 1_555 1_555
C1_9 C2_9 1_555 1_555
C2_9 H1_9 1_555 1_555
C3_9 C2_9 1_555 1_555
H2_9 C3_9 1_555 1_555
C4_9 C3_9 1_555 1_555
C5_9 C4_9 1_555 1_555
C6_9 C5_9 1_555 1_555
H3_9 C6_9 1_555 1_555
C7_9 C6_9 1_555 1_555
C8_9 C7_9 1_555 1_555
H5_9 C8_9 1_555 1_555
C9_9 C8_9 1_555 1_555
H6_9 C9_9 1_555 1_555
C10_9 C1_9 1_555 1_555
C11_9 O2_9 1_555 1_555
C12_9 C4_9 1_555 1_555
C25_9 C26_9 1_555 1_555
C26_9 H13_9 1_555 1_555
C27_9 C26_9 1_555 1_555
H14_9 C27_9 1_555 1_555
C28_9 C27_9 1_555 1_555
C29_9 C28_9 1_555 1_555
C30_9 C29_9 1_555 1_555
H15_9 C30_9 1_555 1_555
C31_9 C30_9 1_555 1_555
H16_9 C31_9 1_555 1_555
C32_9 C31_9 1_555 1_555
H17_9 C32_9 1_555 1_555
C33_9 C32_9 1_555 1_555
H18_9 C33_9 1_555 1_555
C34_9 C25_9 1_555 1_555
C35_9 O9_9 1_555 1_555
C36_9 C28_9 1_555 1_555
O14_9 Gd4_3 1_555 1_555
O10_9 C35_9 1_555 1_555
C1_9 C11_9 1_555 1_555
C5_9 C10_9 1_555 1_555
C9_9 C10_9 1_555 1_555
C25_9 C35_9 1_555 1_555
C29_9 C34_9 1_555 1_555
C33_9 C34_9 1_555 1_555
O14_9 H21_9 1_555 1_555
O14_9 H22_9 1_555 1_555
Gd4_4 O1_10 1_555 1_555
Gd5_3 O1_10 1_555 1_555
O1_10 C11_10 1_555 1_555
O2_10 Gd4_4 1_555 1_555
O16_4 C12_10 1_555 1_555
O17_6 C12_10 1_555 1_555
O5_8 C23_10 1_555 1_555
O6_8 C23_10 1_555 1_555
O7_10 Gd4_4 1_555 1_555
O8_10 Gd5_3 1_555 1_555
O9_10 Gd4_4 1_555 1_555
O10_10 Gd5_3 1_555 1_555
O20_5 C36_10 1_555 1_555
O21_3 C36_10 1_555 1_555
C1_10 C2_10 1_555 1_555
C2_10 H1_10 1_555 1_555
C3_10 C2_10 1_555 1_555
H2_10 C3_10 1_555 1_555
C4_10 C3_10 1_555 1_555
C5_10 C4_10 1_555 1_555
C6_10 C5_10 1_555 1_555
H3_10 C6_10 1_555 1_555
C7_10 C6_10 1_555 1_555
H4_10 C7_10 1_555 1_555
C8_10 C7_10 1_555 1_555
H5_10 C8_10 1_555 1_555
C9_10 C8_10 1_555 1_555
H6_10 C9_10 1_555 1_555
C10_10 C1_10 1_555 1_555
C11_10 O2_10 1_555 1_555
C12_10 C4_10 1_555 1_555
C13_10 C14_10 1_555 1_555
C14_10 H7_10 1_555 1_555
C15_10 C14_10 1_555 1_555
H8_10 C15_10 1_555 1_555
C16_10 C15_10 1_555 1_555
C17_10 C16_10 1_555 1_555
C18_10 C17_10 1_555 1_555
H9_10 C18_10 1_555 1_555
C19_10 C18_10 1_555 1_555
H10_10 C19_10 1_555 1_555
C20_10 C19_10 1_555 1_555
H11_10 C20_10 1_555 1_555
C21_10 C20_10 1_555 1_555
H12_10 C21_10 1_555 1_555
C22_10 C13_10 1_555 1_555
C23_10 C13_10 1_555 1_555
C24_10 O7_10 1_555 1_555
C25_10 C26_10 1_555 1_555
C26_10 H13_10 1_555 1_555
C27_10 C26_10 1_555 1_555
H14_10 C27_10 1_555 1_555
C28_10 C27_10 1_555 1_555
C29_10 C28_10 1_555 1_555
C30_10 C29_10 1_555 1_555
H15_10 C30_10 1_555 1_555
C31_10 C30_10 1_555 1_555
H16_10 C31_10 1_555 1_555
C32_10 C31_10 1_555 1_555
H17_10 C32_10 1_555 1_555
C33_10 C32_10 1_555 1_555
H18_10 C33_10 1_555 1_555
C34_10 C25_10 1_555 1_555
C35_10 O9_10 1_555 1_555
C36_10 C28_10 1_555 1_555
O13_10 Gd4_4 1_555 1_555
O14_10 Gd4_4 1_555 1_555
Gd7 O5_8 1_555 1_555
O16_5 Gd4_4 1_555 1_555
O17_8 Gd4_4 1_555 1_555
O20_8 Gd5_3 1_555 1_555
Gd5_3 O7_10 1_555 1_555
O6_8 Gd7 1_555 1_555
O8_10 C24_10 1_555 1_555
O10_10 C35_10 1_555 1_555
C1_10 C11_10 1_555 1_555
C5_10 C10_10 1_555 1_555
C9_10 C10_10 1_555 1_555
C16_10 C24_10 1_555 1_555
C17_10 C22_10 1_555 1_555
C21_10 C22_10 1_555 1_555
C25_10 C35_10 1_555 1_555
C29_10 C34_10 1_555 1_555
C33_10 C34_10 1_555 1_555
O13_10 H19_10 1_555 1_555
O13_10 H20_10 1_555 1_555
O14_10 H21_10 1_555 1_555
O14_10 H22_10 1_555 1_555
Gd4_2 O1_11 1_555 1_555
Gd5 O1_11 1_555 1_555
O1_11 C11_11 1_555 1_555
O2_11 Gd4_2 1_555 1_555
O16_2 C12_11 1_555 1_555
O4_7 C12_11 1_555 1_555
O18_5 C23_11 1_555 1_555
O19_5 C23_11 1_555 1_555
O7_11 Gd4_2 1_555 1_555
O8_11 Gd5 1_555 1_555
O9_11 Gd4_2 1_555 1_555
O10_11 Gd5 1_555 1_555
O11_7 C36_11 1_555 1_555
O21 C36_11 1_555 1_555
C1_11 C2_11 1_555 1_555
C2_11 H1_11 1_555 1_555
C3_11 C2_11 1_555 1_555
H2_11 C3_11 1_555 1_555
C4_11 C3_11 1_555 1_555
C5_11 C4_11 1_555 1_555
C6_11 C5_11 1_555 1_555
H3_11 C6_11 1_555 1_555
C7_11 C6_11 1_555 1_555
C8_11 C7_11 1_555 1_555
H5_11 C8_11 1_555 1_555
C9_11 C8_11 1_555 1_555
H6_11 C9_11 1_555 1_555
C10_11 C1_11 1_555 1_555
C11_11 O2_11 1_555 1_555
C12_11 C4_11 1_555 1_555
C13_11 C14_11 1_555 1_555
C14_11 H7_11 1_555 1_555
C15_11 C14_11 1_555 1_555
H8_11 C15_11 1_555 1_555
C16_11 C15_11 1_555 1_555
C17_11 C16_11 1_555 1_555
C18_11 C17_11 1_555 1_555
H9_11 C18_11 1_555 1_555
C19_11 C18_11 1_555 1_555
H10_11 C19_11 1_555 1_555
C20_11 C19_11 1_555 1_555
H11_11 C20_11 1_555 1_555
C21_11 C20_11 1_555 1_555
H12_11 C21_11 1_555 1_555
C22_11 C13_11 1_555 1_555
C23_11 C13_11 1_555 1_555
C24_11 O7_11 1_555 1_555
C25_11 C26_11 1_555 1_555
C26_11 H13_11 1_555 1_555
C27_11 C26_11 1_555 1_555
H14_11 C27_11 1_555 1_555
C28_11 C27_11 1_555 1_555
C29_11 C28_11 1_555 1_555
C30_11 C29_11 1_555 1_555
H15_11 C30_11 1_555 1_555
C31_11 C30_11 1_555 1_555
H16_11 C31_11 1_555 1_555
C32_11 C31_11 1_555 1_555
H17_11 C32_11 1_555 1_555
C33_11 C32_11 1_555 1_555
H18_11 C33_11 1_555 1_555
C34_11 C25_11 1_555 1_555
C35_11 O9_11 1_555 1_555
C36_11 C28_11 1_555 1_555
O13_11 Gd4_2 1_555 1_555
O14_11 Gd4_2 1_555 1_555
Gd6_4 O11_7 1_555 1_555
O18_7 Gd5 1_555 1_555
O19_7 Gd5 1_555 1_555
Gd5 O7_11 1_555 1_555
O8_11 C24_11 1_555 1_555
O10_11 C35_11 1_555 1_555
O21 Gd6_4 1_555 1_555
C1_11 C11_11 1_555 1_555
C5_11 C10_11 1_555 1_555
C9_11 C10_11 1_555 1_555
C16_11 C24_11 1_555 1_555
C17_11 C22_11 1_555 1_555
C21_11 C22_11 1_555 1_555
C25_11 C35_11 1_555 1_555
C29_11 C34_11 1_555 1_555
C33_11 C34_11 1_555 1_555
O13_11 H19_11 1_555 1_555
O13_11 H20_11 1_555 1_555
O14_11 H21_11 1_555 1_555
O14_11 H22_11 1_555 1_555
Gd5_2 O1_12 1_555 1_555
O1_12 C11_12 1_555 1_555
O16 C12_12 1_555 1_555
O4_8 C12_12 1_555 1_555
O10_12 Gd5_2 1_555 1_555
C1_12 C2_12 1_555 1_555
C3_12 C2_12 1_555 1_555
H2_12 C3_12 1_555 1_555
C4_12 C3_12 1_555 1_555
C5_12 C4_12 1_555 1_555
C6_12 C5_12 1_555 1_555
H3_12 C6_12 1_555 1_555
C7_12 C6_12 1_555 1_555
H4_12 C7_12 1_555 1_555
C8_12 C7_12 1_555 1_555
H5_12 C8_12 1_555 1_555
C9_12 C8_12 1_555 1_555
H6_12 C9_12 1_555 1_555
C10_12 C1_12 1_555 1_555
C12_12 C4_12 1_555 1_555
C25_12 C26_12 1_555 1_555
C29_12 C28_12 1_555 1_555
C30_12 C29_12 1_555 1_555
H15_12 C30_12 1_555 1_555
C31_12 C30_12 1_555 1_555
H16_12 C31_12 1_555 1_555
C32_12 C31_12 1_555 1_555
H17_12 C32_12 1_555 1_555
C33_12 C32_12 1_555 1_555
H18_12 C33_12 1_555 1_555
C34_12 C25_12 1_555 1_555
C35_12 O9_12 1_555 1_555
Gd4_6 O16 1_555 1_555
O18_8 Gd5_2 1_555 1_555
O19_8 Gd5_2 1_555 1_555
O4_8 Gd4_6 1_555 1_555
O10_12 C35_12 1_555 1_555
C1_12 C11_12 1_555 1_555
C5_12 C10_12 1_555 1_555
C9_12 C10_12 1_555 1_555
C25_12 C35_12 1_555 1_555
C29_12 C34_12 1_555 1_555
C33_12 C34_12 1_555 1_555
O2_12 Gd4 1_555 1_555
O11_8 C36_12 1_555 1_555
H14_12 C27_12 1_555 1_555
O14_12 Gd4 1_555 1_555
O14_12 H21_12 1_555 1_555
O14_12 H22_12 1_555 1_555
C13_12 C14_12 1_555 1_555
C14_12 H7_12 1_555 1_555
C15_12 C14_12 1_555 1_555
H8_12 C15_12 1_555 1_555
C16_12 C15_12 1_555 1_555
C17_12 C16_12 1_555 1_555
C18_12 C17_12 1_555 1_555
H9_12 C18_12 1_555 1_555
C24_12 O7_12 1_555 1_555
O8_12 C24_12 1_555 1_555
C16_12 C24_12 1_555 1_555
O18_6 C23_12 1_555 1_555
H10_12 C19_12 1_555 1_555
C20_12 C19_12 1_555 1_555
H11_12 C20_12 1_555 1_555
C21_12 C20_12 1_555 1_555
H12_12 C21_12 1_555 1_555
C21_12 C22_12 1_555 1_555
O13_12 H19_12 1_555 1_555
O13_12 H20_12 1_555 1_555
O18_7 C23_13 1_555 1_555
O19_7 C23_13 1_555 1_555
C13_13 C14_13 1_555 1_555
C14_13 H7_13 1_555 1_555
C15_13 C14_13 1_555 1_555
H8_13 C15_13 1_555 1_555
C16_13 C15_13 1_555 1_555
C17_13 C16_13 1_555 1_555
C18_13 C17_13 1_555 1_555
H9_13 C18_13 1_555 1_555
C19_13 C18_13 1_555 1_555
H10_13 C19_13 1_555 1_555
C20_13 C19_13 1_555 1_555
H11_13 C20_13 1_555 1_555
C21_13 C20_13 1_555 1_555
H12_13 C21_13 1_555 1_555
C22_13 C13_13 1_555 1_555
C23_13 C13_13 1_555 1_555
C24_13 O7_13 1_555 1_555
O8_13 C24_13 1_555 1_555
C16_13 C24_13 1_555 1_555
C17_13 C22_13 1_555 1_555
C21_13 C22_13 1_555 1_555
O13_13 H19_13 1_555 1_555
O13_13 H20_13 1_555 1_555
Gd4_5 O1_13 1_555 1_555
Gd6_3 O1_13 1_555 1_555
O1_13 C11_13 1_555 1_555
O2_13 Gd4_5 1_555 1_555
O15_3 C12_13 1_555 1_555
O17_3 C12_13 1_555 1_555
O9_13 Gd4_5 1_555 1_555
O10_13 Gd6_3 1_555 1_555
O20_4 C36_13 1_555 1_555
O22_4 C36_13 1_555 1_555
C1_13 C2_13 1_555 1_555
C2_13 H1_13 1_555 1_555
C3_13 C2_13 1_555 1_555
H2_13 C3_13 1_555 1_555
C4_13 C3_13 1_555 1_555
C5_13 C4_13 1_555 1_555
C6_13 C5_13 1_555 1_555
H3_13 C6_13 1_555 1_555
C7_13 C6_13 1_555 1_555
C8_13 C7_13 1_555 1_555
H5_13 C8_13 1_555 1_555
C9_13 C8_13 1_555 1_555
H6_13 C9_13 1_555 1_555
C10_13 C1_13 1_555 1_555
C11_13 O2_13 1_555 1_555
C12_13 C4_13 1_555 1_555
C25_13 C26_13 1_555 1_555
C26_13 H13_13 1_555 1_555
C27_13 C26_13 1_555 1_555
H14_13 C27_13 1_555 1_555
C28_13 C27_13 1_555 1_555
C29_13 C28_13 1_555 1_555
C30_13 C29_13 1_555 1_555
H15_13 C30_13 1_555 1_555
C31_13 C30_13 1_555 1_555
H16_13 C31_13 1_555 1_555
C32_13 C31_13 1_555 1_555
H17_13 C32_13 1_555 1_555
C33_13 C32_13 1_555 1_555
H18_13 C33_13 1_555 1_555
C34_13 C25_13 1_555 1_555
C35_13 O9_13 1_555 1_555
C36_13 C28_13 1_555 1_555
O14_13 Gd4_5 1_555 1_555
O10_13 C35_13 1_555 1_555
C1_13 C11_13 1_555 1_555
C5_13 C10_13 1_555 1_555
C9_13 C10_13 1_555 1_555
C25_13 C35_13 1_555 1_555
C29_13 C34_13 1_555 1_555
C33_13 C34_13 1_555 1_555
O14_13 H21_13 1_555 1_555
O14_13 H22_13 1_555 1_555
Gd4_6 O1_14 1_555 1_555
Gd6_4 O1_14 1_555 1_555
O1_14 C11_14 1_555 1_555
O2_14 Gd4_6 1_555 1_555
O15_4 C12_14 1_555 1_555
O17_4 C12_14 1_555 1_555
O18_8 C23_14 1_555 1_555
O19_8 C23_14 1_555 1_555
O7_14 Gd4_6 1_555 1_555
O8_14 Gd6_4 1_555 1_555
O9_14 Gd4_6 1_555 1_555
O10_14 Gd6_4 1_555 1_555
O20_3 C36_14 1_555 1_555
O22_3 C36_14 1_555 1_555
C1_14 C2_14 1_555 1_555
C2_14 H1_14 1_555 1_555
C3_14 C2_14 1_555 1_555
H2_14 C3_14 1_555 1_555
C4_14 C3_14 1_555 1_555
C5_14 C4_14 1_555 1_555
C6_14 C5_14 1_555 1_555
H3_14 C6_14 1_555 1_555
C7_14 C6_14 1_555 1_555
H4_14 C7_14 1_555 1_555
C8_14 C7_14 1_555 1_555
H5_14 C8_14 1_555 1_555
C9_14 C8_14 1_555 1_555
H6_14 C9_14 1_555 1_555
C10_14 C1_14 1_555 1_555
C11_14 O2_14 1_555 1_555
C12_14 C4_14 1_555 1_555
C13_14 C14_14 1_555 1_555
C14_14 H7_14 1_555 1_555
C15_14 C14_14 1_555 1_555
H8_14 C15_14 1_555 1_555
C16_14 C15_14 1_555 1_555
C17_14 C16_14 1_555 1_555
C18_14 C17_14 1_555 1_555
H9_14 C18_14 1_555 1_555
C19_14 C18_14 1_555 1_555
H10_14 C19_14 1_555 1_555
C20_14 C19_14 1_555 1_555
H11_14 C20_14 1_555 1_555
C21_14 C20_14 1_555 1_555
H12_14 C21_14 1_555 1_555
C22_14 C13_14 1_555 1_555
C23_14 C13_14 1_555 1_555
C24_14 O7_14 1_555 1_555
C25_14 C26_14 1_555 1_555
C26_14 H13_14 1_555 1_555
C27_14 C26_14 1_555 1_555
H14_14 C27_14 1_555 1_555
C28_14 C27_14 1_555 1_555
C29_14 C28_14 1_555 1_555
C30_14 C29_14 1_555 1_555
H15_14 C30_14 1_555 1_555
C31_14 C30_14 1_555 1_555
H16_14 C31_14 1_555 1_555
C32_14 C31_14 1_555 1_555
H17_14 C32_14 1_555 1_555
C33_14 C32_14 1_555 1_555
H18_14 C33_14 1_555 1_555
C34_14 C25_14 1_555 1_555
C35_14 O9_14 1_555 1_555
C36_14 C28_14 1_555 1_555
O13_14 Gd4_6 1_555 1_555
O14_14 Gd4_6 1_555 1_555
Gd6_4 O7_14 1_555 1_555
O8_14 C24_14 1_555 1_555
O10_14 C35_14 1_555 1_555
C1_14 C11_14 1_555 1_555
C5_14 C10_14 1_555 1_555
C9_14 C10_14 1_555 1_555
C16_14 C24_14 1_555 1_555
C17_14 C22_14 1_555 1_555
C21_14 C22_14 1_555 1_555
C25_14 C35_14 1_555 1_555
C29_14 C34_14 1_555 1_555
C33_14 C34_14 1_555 1_555
O13_14 H19_14 1_555 1_555
O13_14 H20_14 1_555 1_555
O14_14 H21_14 1_555 1_555
O14_14 H22_14 1_555 1_555
Gd7_2 O1_15 1_555 1_555
O1_15 C11_15 1_555 1_555
O16_6 C12_15 1_555 1_555
O17_7 C12_15 1_555 1_555
O8_15 Gd7_2 1_555 1_555
O10_15 Gd7_2 1_555 1_555
C1_15 C2_15 1_555 1_555
C3_15 C2_15 1_555 1_555
H2_15 C3_15 1_555 1_555
C4_15 C3_15 1_555 1_555
C5_15 C4_15 1_555 1_555
C6_15 C5_15 1_555 1_555
H3_15 C6_15 1_555 1_555
C7_15 C6_15 1_555 1_555
C8_15 C7_15 1_555 1_555
H5_15 C8_15 1_555 1_555
C9_15 C8_15 1_555 1_555
H6_15 C9_15 1_555 1_555
C10_15 C1_15 1_555 1_555
C12_15 C4_15 1_555 1_555
C13_15 C14_15 1_555 1_555
C14_15 H7_15 1_555 1_555
C15_15 C14_15 1_555 1_555
H8_15 C15_15 1_555 1_555
C16_15 C15_15 1_555 1_555
C17_15 C16_15 1_555 1_555
C18_15 C17_15 1_555 1_555
H9_15 C18_15 1_555 1_555
C24_15 O7_15 1_555 1_555
C25_15 C26_15 1_555 1_555
C29_15 C28_15 1_555 1_555
C30_15 C29_15 1_555 1_555
H15_15 C30_15 1_555 1_555
C31_15 C30_15 1_555 1_555
H16_15 C31_15 1_555 1_555
C32_15 C31_15 1_555 1_555
H17_15 C32_15 1_555 1_555
C33_15 C32_15 1_555 1_555
H18_15 C33_15 1_555 1_555
C34_15 C25_15 1_555 1_555
C35_15 O9_15 1_555 1_555
Gd7_2 O7_15 1_555 1_555
O8_15 C24_15 1_555 1_555
O10_15 C35_15 1_555 1_555
C1_15 C11_15 1_555 1_555
C5_15 C10_15 1_555 1_555
C9_15 C10_15 1_555 1_555
C16_15 C24_15 1_555 1_555
C25_15 C35_15 1_555 1_555
C29_15 C34_15 1_555 1_555
C33_15 C34_15 1_555 1_555
O2_15 Gd3 1_555 1_555
O18 C23_15 1_555 1_555
O20_8 C36_15 1_555 1_555
H10_15 C19_15 1_555 1_555
C20_15 C19_15 1_555 1_555
H11_15 C20_15 1_555 1_555
C21_15 C20_15 1_555 1_555
H12_15 C21_15 1_555 1_555
H14_15 C27_15 1_555 1_555
O13_15 Gd3 1_555 1_555
O14_15 Gd3 1_555 1_555
C21_15 C22_15 1_555 1_555
O13_15 H19_15 1_555 1_555
O13_15 H20_15 1_555 1_555
O14_15 H21_15 1_555 1_555
O14_15 H22_15 1_555 1_555
O18_2 C23_16 1_555 1_555
O19_2 C23_16 1_555 1_555
C13_16 C14_16 1_555 1_555
C14_16 H7_16 1_555 1_555
C15_16 C14_16 1_555 1_555
H8_16 C15_16 1_555 1_555
C16_16 C15_16 1_555 1_555
C17_16 C16_16 1_555 1_555
C18_16 C17_16 1_555 1_555
H9_16 C18_16 1_555 1_555
C19_16 C18_16 1_555 1_555
H10_16 C19_16 1_555 1_555
C20_16 C19_16 1_555 1_555
H11_16 C20_16 1_555 1_555
C21_16 C20_16 1_555 1_555
H12_16 C21_16 1_555 1_555
C22_16 C13_16 1_555 1_555
C23_16 C13_16 1_555 1_555
C24_16 O7_16 1_555 1_555
O8_16 C24_16 1_555 1_555
C16_16 C24_16 1_555 1_555
C17_16 C22_16 1_555 1_555
C21_16 C22_16 1_555 1_555
O13_16 H19_16 1_555 1_555
O13_16 H20_16 1_555 1_555
Gd3_2 O1_16 1_555 1_555
Gd7 O1_16 1_555 1_555
O1_16 C11_16 1_555 1_555
O2_16 Gd3_2 1_555 1_555
O16_5 C12_16 1_555 1_555
O17_8 C12_16 1_555 1_555
O9_16 Gd3_2 1_555 1_555
O10_16 Gd7 1_555 1_555
O20_7 C36_16 1_555 1_555
O21_6 C36_16 1_555 1_555
C1_16 C2_16 1_555 1_555
C2_16 H1_16 1_555 1_555
C3_16 C2_16 1_555 1_555
H2_16 C3_16 1_555 1_555
C4_16 C3_16 1_555 1_555
C5_16 C4_16 1_555 1_555
C6_16 C5_16 1_555 1_555
H3_16 C6_16 1_555 1_555
C7_16 C6_16 1_555 1_555
H4_16 C7_16 1_555 1_555
C8_16 C7_16 1_555 1_555
H5_16 C8_16 1_555 1_555
C9_16 C8_16 1_555 1_555
H6_16 C9_16 1_555 1_555
C10_16 C1_16 1_555 1_555
C11_16 O2_16 1_555 1_555
C12_16 C4_16 1_555 1_555
C25_16 C26_16 1_555 1_555
C26_16 H13_16 1_555 1_555
C27_16 C26_16 1_555 1_555
H14_16 C27_16 1_555 1_555
C28_16 C27_16 1_555 1_555
C29_16 C28_16 1_555 1_555
C30_16 C29_16 1_555 1_555
H15_16 C30_16 1_555 1_555
C31_16 C30_16 1_555 1_555
H16_16 C31_16 1_555 1_555
C32_16 C31_16 1_555 1_555
H17_16 C32_16 1_555 1_555
C33_16 C32_16 1_555 1_555
H18_16 C33_16 1_555 1_555
C34_16 C25_16 1_555 1_555
C35_16 O9_16 1_555 1_555
C36_16 C28_16 1_555 1_555
O14_16 Gd3_2 1_555 1_555
O10_16 C35_16 1_555 1_555
C1_16 C11_16 1_555 1_555
C5_16 C10_16 1_555 1_555
C9_16 C10_16 1_555 1_555
C25_16 C35_16 1_555 1_555
C29_16 C34_16 1_555 1_555
C33_16 C34_16 1_555 1_555
O14_16 H21_16 1_555 1_555
O14_16 H22_16 1_555 1_555

#END
