
###############################################################################
#
# This file contains modified crystal structure data generated from the
# MOF subset of the Cambridge Structural Database (CSD) v543 
# hosted by the Cambridge Crystallographic Data Centre (CCDC).
#
# This work is licensed under the Creative Commons
# Attribution-NonCommercial-ShareAlike 4.0 International License.
# To view a copy of this license, visit
# http://creativecommons.org/licenses/by-nc-sa/4.0/
# or send a letter to
# Creative Commons, PO Box 1866, Mountain View, CA 94042, USA.
#
# CIF created using the CSD Python API on 29 September 2022
# The structure has been converted into the P1 space group
# The structure has a 3D framework
# The original CSD entry SARNOQ is in the rhombohedral crystal system
# The framework has been calculated to contain at least 10.0% void space
# The void calculation uses a probe of radius 1.32A, grid spacing 0.4
#
###############################################################################

data_SARNOQ
_chemical_formula_moiety         '(C72 H18 N198 Zn14)n'
_symmetry_cell_setting           triclinic
_symmetry_space_group_name_H-M   'P 1'
_symmetry_Int_Tables_number      1
_space_group_name_Hall           'P 1'
loop_
_symmetry_equiv_pos_site_id
_symmetry_equiv_pos_as_xyz
1 x,y,z
_cell_length_a                   23.8620(19)
_cell_length_b                   23.8620(19)
_cell_length_c                   14.6860(19)
_cell_angle_alpha                90
_cell_angle_beta                 90
_cell_angle_gamma                120
_cell_volume                     7241.82
loop_
_atom_site_label
_atom_site_type_symbol
_atom_site_fract_x
_atom_site_fract_y
_atom_site_fract_z
C1 C 0.21108(18) 0.28892(17) 0.3394(2)
C2 C 0.14977(18) 0.25469(17) 0.3788(2)
C3 C 0.27551(18) 0.32634(17) 0.3784(2)
C4 C 0.12832(17) 0.24325(17) 0.4732(3)
N1 N 0.20409(18) 0.28762(17) 0.2494(2)
N2 N 0.14020(18) 0.25280(17) 0.2375(2)
H1 H 0.1229 0.2443 0.1843
N3 N 0.10561(17) 0.23244(16) 0.3121(2)
N4 N 0.07180(16) 0.23559(15) 0.5010(2)
N5 N 0.0682(2) 0.22310(18) 0.5913(2)
N6 N 0.1204(2) 0.22380(19) 0.6169(2)
N7 N 0.15977(16) 0.23693(15) 0.5439(2)
N8 N 0.32435(16) 0.37688(16) 0.3381(2)
N9 N 0.37507(18) 0.39841(19) 0.3952(3)
N10 N 0.35789(18) 0.36243(19) 0.4671(3)
N11 N 0.29436(15) 0.31598(16) 0.4586(2)
Zn1 Zn 0.24824(2) 0.24606(2) 0.55254(3)
N12 N 0.23559(15) 0.16379(22) 0.4990(2)
N13 N 0.28979(16) 0.28080(23) 0.6714(2)
Zn2 Zn 0.00218(3) 0.24824(2) 0.44746(3)
Zn3 Zn 0.33115(3) 0.41843(2) 0.21921(3)
Zn1_2 Zn 0.75394(2) 0.00218(3) 0.55254(3)
N12_2 N 0.83621(22) 0.07180(27) 0.4990(2)
N13_2 N 0.71920(23) 0.00898(28) 0.6714(2)
C1_2 C 0.71108(17) 0.92216(25) 0.3394(2)
C2_2 C 0.74531(17) 0.89508(25) 0.3788(2)
C3_2 C 0.67366(17) 0.94917(25) 0.3784(2)
C4_2 C 0.75675(17) 0.88507(24) 0.4732(3)
N1_2 N 0.71238(17) 0.91647(25) 0.2494(2)
N2_2 N 0.74720(17) 0.88740(25) 0.2375(2)
H1_2 H 0.7557 0.8786 0.1843
N3_2 N 0.76756(16) 0.87317(23) 0.3121(2)
N4_2 N 0.76441(15) 0.83621(22) 0.5010(2)
N5_2 N 0.77690(18) 0.84510(27) 0.5913(2)
N6_2 N 0.77620(19) 0.89660(28) 0.6169(2)
N7_2 N 0.76307(15) 0.92284(22) 0.5439(2)
N8_2 N 0.62312(16) 0.94747(23) 0.3381(2)
N9_2 N 0.60159(19) 0.97666(26) 0.3952(3)
N10_2 N 0.63757(19) 0.99546(26) 0.4671(3)
N11_2 N 0.68402(16) 0.97838(22) 0.4586(2)
Zn2_2 Zn 0.75176(2) 0.75394(4) 0.44746(3)
Zn3_2 Zn 0.58157(2) 0.91273(4) 0.21921(3)
C1_3 C 0.07784(25) 0.78892(18) 0.3394(2)
C2_3 C 0.10492(25) 0.85023(18) 0.3788(2)
C3_3 C 0.05083(25) 0.72449(18) 0.3784(2)
C4_3 C 0.11493(24) 0.87168(17) 0.4732(3)
N1_3 N 0.08353(25) 0.79591(18) 0.2494(2)
N2_3 N 0.11260(25) 0.85980(18) 0.2375(2)
H1_3 H 0.1214 0.8771 0.1843
N3_3 N 0.12683(23) 0.89439(17) 0.3121(2)
N4_3 N 0.16379(22) 0.92820(16) 0.5010(2)
N5_3 N 0.15490(27) 0.9318(2) 0.5913(2)
N6_3 N 0.10340(28) 0.8796(2) 0.6169(2)
N7_3 N 0.07716(22) 0.84023(16) 0.5439(2)
N8_3 N 0.05253(23) 0.67565(16) 0.3381(2)
N9_3 N 0.02334(26) 0.62493(18) 0.3952(3)
N10_3 N 0.00454(26) 0.64211(18) 0.4671(3)
N11_3 N 0.02162(22) 0.70564(15) 0.4586(2)
Zn2_3 Zn 0.24606(4) 0.99782(3) 0.44746(3)
Zn3_3 Zn 0.08727(4) 0.66885(3) 0.21921(3)
Zn1_3 Zn 0.99782(3) 0.75176(2) 0.55254(3)
N12_3 N 0.92820(27) 0.76441(15) 0.4990(2)
N13_3 N 0.99102(28) 0.71021(16) 0.6714(2)
C1_4 C 0.87775(18) 0.62225(17) 0.6727(2)
C2_4 C 0.81644(18) 0.58802(17) 0.7121(2)
C3_4 C 0.94218(18) 0.65967(17) 0.7117(2)
C4_4 C 0.79499(17) 0.57658(17) 0.8065(3)
N1_4 N 0.87076(18) 0.62095(17) 0.5827(2)
N2_4 N 0.80687(18) 0.58613(17) 0.5708(2)
H1_4 H 0.7896 0.5776 0.5176
N3_4 N 0.77228(17) 0.56577(16) 0.6454(2)
N4_4 N 0.73847(16) 0.56892(15) 0.8343(2)
N5_4 N 0.7349(2) 0.55643(18) 0.9246(2)
N6_4 N 0.7871(2) 0.55713(19) 0.9502(2)
N7_4 N 0.82644(16) 0.57026(15) 0.8772(2)
N11_4 N 0.96103(15) 0.64931(16) 0.7919(2)
Zn1_4 Zn 0.91491(2) 0.57939(2) 0.88587(3)
N12_4 N 0.90226(15) 0.49712(22) 0.8323(2)
Zn2_4 Zn 0.66885(3) 0.58157(2) 0.78079(3)
N13_4 N 0.38586(23) 0.34232(28) 0.0048(2)
C1_5 C 0.37775(17) 0.25549(25) 0.6727(2)
C2_5 C 0.41198(17) 0.22841(25) 0.7121(2)
C3_5 C 0.34033(17) 0.28250(25) 0.7117(2)
C4_5 C 0.42342(17) 0.21840(24) 0.8065(3)
N1_5 N 0.37905(17) 0.24980(25) 0.5827(2)
N2_5 N 0.41387(17) 0.22073(25) 0.5708(2)
H1_5 H 0.4224 0.2119 0.5176
N3_5 N 0.43423(16) 0.20650(23) 0.6454(2)
N4_5 N 0.43108(15) 0.16954(22) 0.8343(2)
N5_5 N 0.44357(18) 0.17843(27) 0.9246(2)
N6_5 N 0.44287(19) 0.22993(28) 0.9502(2)
N7_5 N 0.42974(15) 0.25617(22) 0.8772(2)
N9_4 N 0.26826(19) 0.30999(26) 0.7285(3)
N10_4 N 0.30424(19) 0.32879(26) 0.8004(3)
N11_5 N 0.35069(16) 0.31171(22) 0.7919(2)
Zn1_5 Zn 0.42061(2) 0.33551(3) 0.88587(3)
N12_5 N 0.50288(22) 0.40513(27) 0.8323(2)
Zn2_5 Zn 0.41843(2) 0.08727(4) 0.78079(3)
C1_6 C 0.74451(25) 0.12225(18) 0.6727(2)
C2_6 C 0.77159(25) 0.18356(18) 0.7121(2)
C3_6 C 0.71750(25) 0.05782(18) 0.7117(2)
C4_6 C 0.78160(24) 0.20501(17) 0.8065(3)
N1_6 N 0.75020(25) 0.12924(18) 0.5827(2)
N2_6 N 0.77927(25) 0.19313(18) 0.5708(2)
H1_6 H 0.7881 0.2104 0.5176
N3_6 N 0.79350(23) 0.22772(17) 0.6454(2)
N4_6 N 0.83046(22) 0.26153(16) 0.8343(2)
N5_6 N 0.82157(27) 0.2651(2) 0.9246(2)
N6_6 N 0.77007(28) 0.2129(2) 0.9502(2)
N7_6 N 0.74383(22) 0.17356(16) 0.8772(2)
N11_6 N 0.68829(22) 0.03897(15) 0.7919(2)
Zn1_6 Zn 0.66449(3) 0.08509(2) 0.88587(3)
N12_6 N 0.59487(27) 0.09774(15) 0.8323(2)
Zn2_6 Zn 0.91273(4) 0.33115(3) 0.78079(3)
C1_7 C 0.54441(18) 0.95559(17) 0.0061(2)
C2_7 C 0.48310(18) 0.92136(17) 0.0455(2)
C3_7 C 0.60884(18) 0.99301(17) 0.0451(2)
C4_7 C 0.46165(17) 0.90992(17) 0.1399(3)
N4_7 N 0.40513(16) 0.90226(15) 0.1677(2)
N5_7 N 0.4015(2) 0.88977(18) 0.2580(2)
N6_7 N 0.4537(2) 0.89047(19) 0.2836(2)
N7_7 N 0.49310(16) 0.90360(15) 0.2106(2)
N11_7 N 0.62769(15) 0.98265(16) 0.1253(2)
N12_7 N 0.56892(15) 0.83046(22) 0.1657(2)
Zn2_7 Zn 0.33551(3) 0.91491(2) 0.11413(3)
C1_8 C 0.04441(17) 0.58883(25) 0.0061(2)
C2_8 C 0.07864(17) 0.56175(25) 0.0455(2)
C3_8 C 0.00699(17) 0.61584(25) 0.0451(2)
C4_8 C 0.09008(17) 0.55174(24) 0.1399(3)
N4_8 N 0.09774(15) 0.50288(22) 0.1677(2)
N5_8 N 0.11023(18) 0.51177(27) 0.2580(2)
N6_8 N 0.10953(19) 0.56327(28) 0.2836(2)
N7_8 N 0.09640(15) 0.58951(22) 0.2106(2)
N11_8 N 0.01735(16) 0.64505(22) 0.1253(2)
N12_8 N 0.16954(22) 0.73847(27) 0.1657(2)
Zn2_8 Zn 0.08509(2) 0.42061(4) 0.11413(3)
C1_9 C 0.41117(25) 0.45559(18) 0.0061(2)
C2_9 C 0.43825(25) 0.51690(18) 0.0455(2)
C3_9 C 0.38416(25) 0.39116(18) 0.0451(2)
C4_9 C 0.44826(24) 0.53835(17) 0.1399(3)
N4_9 N 0.49712(22) 0.59487(16) 0.1677(2)
N5_9 N 0.48823(27) 0.5985(2) 0.2580(2)
N6_9 N 0.43673(28) 0.5463(2) 0.2836(2)
N7_9 N 0.41049(22) 0.50690(16) 0.2106(2)
N9_5 N 0.35667(26) 0.29160(18) 0.0619(3)
N10_5 N 0.33787(26) 0.30878(18) 0.1338(3)
N11_9 N 0.35495(22) 0.37231(15) 0.1253(2)
N12_9 N 0.26153(27) 0.43108(15) 0.1657(2)
Zn2_9 Zn 0.57939(4) 0.66449(3) 0.11413(3)
N1_7 N 0.41686(25) 0.46258(18) 0.9161(2)
N2_7 N 0.44593(25) 0.52647(18) 0.9042(2)
H1_7 H 0.4547 0.5438 0.8510
N3_7 N 0.46016(23) 0.56106(17) 0.9788(2)
C1_10 C 0.78892(18) 0.71108(17) 0.6606(2)
C2_10 C 0.85023(18) 0.74531(17) 0.6212(2)
C3_10 C 0.72449(18) 0.67366(17) 0.6216(2)
C4_10 C 0.87168(17) 0.75675(17) 0.5268(3)
N1_8 N 0.79591(18) 0.71238(17) 0.7506(2)
N2_8 N 0.85980(18) 0.74720(17) 0.7625(2)
H1_8 H 0.8771 0.7557 0.8157
N3_8 N 0.89439(17) 0.76756(16) 0.6879(2)
N5_10 N 0.9318(2) 0.77690(18) 0.4087(2)
N6_10 N 0.8796(2) 0.77620(19) 0.3831(2)
N7_10 N 0.84023(16) 0.76307(15) 0.4561(2)
N8_4 N 0.67565(16) 0.62312(16) 0.6619(2)
N9_6 N 0.62493(18) 0.60159(19) 0.6048(3)
N10_6 N 0.64211(18) 0.63757(19) 0.5329(3)
N11_10 N 0.70564(15) 0.68402(16) 0.5414(2)
N13_5 N 0.71021(16) 0.71920(23) 0.3286(2)
C1_11 C 0.28892(17) 0.07784(25) 0.6606(2)
C2_11 C 0.25469(17) 0.10492(25) 0.6212(2)
C3_11 C 0.32634(17) 0.05083(25) 0.6216(2)
C4_11 C 0.24325(17) 0.11493(24) 0.5268(3)
N1_9 N 0.28762(17) 0.08353(25) 0.7506(2)
N2_9 N 0.25280(17) 0.11260(25) 0.7625(2)
H1_9 H 0.2443 0.1214 0.8157
N3_9 N 0.23244(16) 0.12683(23) 0.6879(2)
N5_11 N 0.22310(18) 0.15490(27) 0.4087(2)
N6_11 N 0.22380(19) 0.10340(28) 0.3831(2)
N7_11 N 0.23693(15) 0.07716(22) 0.4561(2)
N8_5 N 0.37688(16) 0.05253(23) 0.6619(2)
N9_7 N 0.39841(19) 0.02334(26) 0.6048(3)
N10_7 N 0.36243(19) 0.00454(26) 0.5329(3)
N11_11 N 0.31598(16) 0.02162(22) 0.5414(2)
N13_6 N 0.28080(23) 0.99102(28) 0.3286(2)
N13_7 N 0.00898(28) 0.28979(16) 0.3286(2)
C1_12 C 0.92216(25) 0.21108(18) 0.6606(2)
C2_12 C 0.89508(25) 0.14977(18) 0.6212(2)
C3_12 C 0.94917(25) 0.27551(18) 0.6216(2)
C4_12 C 0.88507(24) 0.12832(17) 0.5268(3)
N1_10 N 0.91647(25) 0.20409(18) 0.7506(2)
N2_10 N 0.88740(25) 0.14020(18) 0.7625(2)
H1_10 H 0.8786 0.1229 0.8157
N3_10 N 0.87317(23) 0.10561(17) 0.6879(2)
N5_12 N 0.84510(27) 0.0682(2) 0.4087(2)
N6_12 N 0.89660(28) 0.1204(2) 0.3831(2)
N7_12 N 0.92284(22) 0.15977(16) 0.4561(2)
N8_6 N 0.94747(23) 0.32435(16) 0.6619(2)
N9_8 N 0.97666(26) 0.37507(18) 0.6048(3)
N10_8 N 0.99546(26) 0.35789(18) 0.5329(3)
N11_12 N 0.97838(22) 0.29436(15) 0.5414(2)
C1_13 C 0.12225(18) 0.37775(17) 0.3273(2)
C2_13 C 0.18356(18) 0.41198(17) 0.2879(2)
C3_13 C 0.05782(18) 0.34033(17) 0.2883(2)
C4_13 C 0.20501(17) 0.42342(17) 0.1935(3)
N1_11 N 0.12924(18) 0.37905(17) 0.4173(2)
N2_11 N 0.19313(18) 0.41387(17) 0.4292(2)
H1_11 H 0.2104 0.4224 0.4824
N3_11 N 0.22772(17) 0.43423(16) 0.3546(2)
N5_13 N 0.2651(2) 0.44357(18) 0.0754(2)
N6_13 N 0.2129(2) 0.44287(19) 0.0498(2)
N7_13 N 0.17356(16) 0.42974(15) 0.1228(2)
N11_13 N 0.03897(15) 0.35069(16) 0.2081(2)
C1_14 C 0.62225(17) 0.74451(25) 0.3273(2)
C2_14 C 0.58802(17) 0.77159(25) 0.2879(2)
C3_14 C 0.65967(17) 0.71750(25) 0.2883(2)
C4_14 C 0.57658(17) 0.78160(24) 0.1935(3)
N1_12 N 0.62095(17) 0.75020(25) 0.4173(2)
N2_12 N 0.58613(17) 0.77927(25) 0.4292(2)
H1_12 H 0.5776 0.7881 0.4824
N3_12 N 0.56577(16) 0.79350(23) 0.3546(2)
N5_14 N 0.55643(18) 0.82157(27) 0.0754(2)
N6_14 N 0.55713(19) 0.77007(28) 0.0498(2)
N7_14 N 0.57026(15) 0.74383(22) 0.1228(2)
N9_9 N 0.73174(19) 0.69001(26) 0.2715(3)
N10_9 N 0.69576(19) 0.67121(26) 0.1996(3)
N11_14 N 0.64931(16) 0.68829(22) 0.2081(2)
N13_8 N 0.61414(23) 0.65768(28) 0.9952(2)
C1_15 C 0.25549(25) 0.87775(18) 0.3273(2)
C2_15 C 0.22841(25) 0.81644(18) 0.2879(2)
C3_15 C 0.28250(25) 0.94218(18) 0.2883(2)
C4_15 C 0.21840(24) 0.79499(17) 0.1935(3)
N1_13 N 0.24980(25) 0.87076(18) 0.4173(2)
N2_13 N 0.22073(25) 0.80687(18) 0.4292(2)
H1_13 H 0.2119 0.7896 0.4824
N3_13 N 0.20650(23) 0.77228(17) 0.3546(2)
N5_15 N 0.17843(27) 0.7349(2) 0.0754(2)
N6_15 N 0.22993(28) 0.7871(2) 0.0498(2)
N7_15 N 0.25617(22) 0.82644(16) 0.1228(2)
N11_15 N 0.31171(22) 0.96103(15) 0.2081(2)
C1_16 C 0.45559(18) 0.04441(17) 0.9939(2)
C2_16 C 0.51690(18) 0.07864(17) 0.9545(2)
C3_16 C 0.39116(18) 0.00699(17) 0.9549(2)
C4_16 C 0.53835(17) 0.09008(17) 0.8601(3)
N5_16 N 0.5985(2) 0.11023(18) 0.7420(2)
N6_16 N 0.5463(2) 0.10953(19) 0.7164(2)
N7_16 N 0.50690(16) 0.09640(15) 0.7894(2)
N11_16 N 0.37231(15) 0.01735(16) 0.8747(2)
C1_17 C 0.95559(17) 0.41117(25) 0.9939(2)
C2_17 C 0.92136(17) 0.43825(25) 0.9545(2)
C3_17 C 0.99301(17) 0.38416(25) 0.9549(2)
C4_17 C 0.90992(17) 0.44826(24) 0.8601(3)
N5_17 N 0.88977(18) 0.48823(27) 0.7420(2)
N6_17 N 0.89047(19) 0.43673(28) 0.7164(2)
N7_17 N 0.90360(15) 0.41049(22) 0.7894(2)
N11_17 N 0.98265(16) 0.35495(22) 0.8747(2)
N1_14 N 0.58314(25) 0.53742(18) 0.0839(2)
N2_14 N 0.55407(25) 0.47353(18) 0.0958(2)
H1_14 H 0.5453 0.4562 0.1490
N3_14 N 0.53984(23) 0.43894(17) 0.0212(2)
C1_18 C 0.58883(25) 0.54441(18) 0.9939(2)
C2_18 C 0.56175(25) 0.48310(18) 0.9545(2)
C3_18 C 0.61584(25) 0.60884(18) 0.9549(2)
C4_18 C 0.55174(24) 0.46165(17) 0.8601(3)
N5_18 N 0.51177(27) 0.4015(2) 0.7420(2)
N6_18 N 0.56327(28) 0.4537(2) 0.7164(2)
N7_18 N 0.58951(22) 0.49310(16) 0.7894(2)
N9_10 N 0.64333(26) 0.70840(18) 0.9381(3)
N10_10 N 0.66213(26) 0.69122(18) 0.8662(3)
N11_18 N 0.64505(22) 0.62769(15) 0.8747(2)
N9_11 N 0.04174(18) 0.73174(19) 0.7285(3)
N10_11 N 0.02456(18) 0.69576(19) 0.8004(3)
N13_9 N 0.95645(16) 0.61414(23) 0.0048(2)
N9_12 N 0.93492(19) 0.64333(26) 0.0619(3)
N10_12 N 0.97090(19) 0.66213(26) 0.1338(3)
N13_10 N 0.65768(28) 0.04355(16) 0.0048(2)
N9_13 N 0.70840(18) 0.06508(19) 0.0619(3)
N10_13 N 0.69122(18) 0.02910(19) 0.1338(3)
N9_14 N 0.69001(26) 0.95826(18) 0.7285(3)
N10_14 N 0.67121(26) 0.97544(18) 0.8004(3)
N1_15 N 0.53742(18) 0.95429(17) 0.9161(2)
N2_15 N 0.47353(18) 0.91947(17) 0.9042(2)
H1_15 H 0.4562 0.9110 0.8510
N3_15 N 0.43894(17) 0.89911(16) 0.9788(2)
N1_16 N 0.04571(17) 0.58314(25) 0.9161(2)
N2_16 N 0.08053(17) 0.55407(25) 0.9042(2)
H1_16 H 0.0890 0.5453 0.8510
N3_16 N 0.10089(16) 0.53984(23) 0.9788(2)
N13_11 N 0.04355(16) 0.38586(23) 0.9952(2)
N9_15 N 0.06508(19) 0.35667(26) 0.9381(3)
N10_15 N 0.02910(19) 0.33787(26) 0.8662(3)
N9_16 N 0.95826(18) 0.26826(19) 0.2715(3)
N10_16 N 0.97544(18) 0.30424(19) 0.1996(3)
N9_17 N 0.30999(26) 0.04174(18) 0.2715(3)
N10_17 N 0.32879(26) 0.02456(18) 0.1996(3)
N13_12 N 0.34232(28) 0.95645(16) 0.9952(2)
N9_18 N 0.29160(18) 0.93492(19) 0.9381(3)
N10_18 N 0.30878(18) 0.97090(19) 0.8662(3)
N1_17 N 0.46258(18) 0.04571(17) 0.0839(2)
N2_17 N 0.52647(18) 0.08053(17) 0.0958(2)
H1_17 H 0.5438 0.0890 0.1490
N3_17 N 0.56106(17) 0.10089(16) 0.0212(2)
N1_18 N 0.95429(17) 0.41686(25) 0.0839(2)
N2_18 N 0.91947(17) 0.44593(25) 0.0958(2)
H1_18 H 0.9110 0.4547 0.1490
N3_18 N 0.89911(16) 0.46016(23) 0.0212(2)
loop_
_geom_bond_atom_site_label_1
_geom_bond_atom_site_label_2
_geom_bond_site_symmetry_1
_geom_bond_site_symmetry_2
C1 C2 1_555 1_555
C2 C4 1_555 1_555
C3 C1 1_555 1_555
C4 N4 1_555 1_555
N1 C1 1_555 1_555
N2 N1 1_555 1_555
H1 N2 1_555 1_555
N3 C2 1_555 1_555
N4 N5 1_555 1_555
N5 N6 1_555 1_555
N6 N7 1_555 1_555
N7 C4 1_555 1_555
N8 C3 1_555 1_555
N9 N8 1_555 1_555
N10 N9 1_555 1_555
N11 C3 1_555 1_555
Zn1 N7 1_555 1_555
N12 Zn1 1_555 1_555
N13 Zn1 1_555 1_555
Zn2 N4 1_555 1_555
Zn3 N8 1_555 1_555
N2 N3 1_555 1_555
N10 N11 1_555 1_555
N11 Zn1 1_555 1_555
N12_2 Zn1_2 1_555 1_555
N13_2 Zn1_2 1_555 1_555
C1_2 C2_2 1_555 1_555
C2_2 C4_2 1_555 1_555
C3_2 C1_2 1_555 1_555
C4_2 N4_2 1_555 1_555
N1_2 C1_2 1_555 1_555
N2_2 N1_2 1_555 1_555
H1_2 N2_2 1_555 1_555
N3_2 C2_2 1_555 1_555
N4_2 N5_2 1_555 1_555
N5_2 N6_2 1_555 1_555
N6_2 N7_2 1_555 1_555
N7_2 C4_2 1_555 1_555
N8_2 C3_2 1_555 1_555
N9_2 N8_2 1_555 1_555
N10_2 N9_2 1_555 1_555
N11_2 C3_2 1_555 1_555
Zn2_2 N4_2 1_555 1_555
Zn3_2 N8_2 1_555 1_555
N2_2 N3_2 1_555 1_555
N10_2 N11_2 1_555 1_555
C1_3 C2_3 1_555 1_555
C2_3 C4_3 1_555 1_555
C3_3 C1_3 1_555 1_555
C4_3 N4_3 1_555 1_555
N1_3 C1_3 1_555 1_555
N2_3 N1_3 1_555 1_555
H1_3 N2_3 1_555 1_555
N3_3 C2_3 1_555 1_555
N4_3 N5_3 1_555 1_555
N5_3 N6_3 1_555 1_555
N6_3 N7_3 1_555 1_555
N7_3 C4_3 1_555 1_555
N8_3 C3_3 1_555 1_555
N9_3 N8_3 1_555 1_555
N10_3 N9_3 1_555 1_555
N11_3 C3_3 1_555 1_555
Zn2_3 N4_3 1_555 1_555
Zn3_3 N8_3 1_555 1_555
N2_3 N3_3 1_555 1_555
N10_3 N11_3 1_555 1_555
N12_3 Zn1_3 1_555 1_555
N13_3 Zn1_3 1_555 1_555
C1_4 C2_4 1_555 1_555
C2_4 C4_4 1_555 1_555
C3_4 C1_4 1_555 1_555
C4_4 N4_4 1_555 1_555
N1_4 C1_4 1_555 1_555
N2_4 N1_4 1_555 1_555
H1_4 N2_4 1_555 1_555
N3_4 C2_4 1_555 1_555
N4_4 N5_4 1_555 1_555
N5_4 N6_4 1_555 1_555
N6_4 N7_4 1_555 1_555
N7_4 C4_4 1_555 1_555
N13_3 C3_4 1_555 1_555
N11_4 C3_4 1_555 1_555
Zn1_4 N7_4 1_555 1_555
N12_4 Zn1_4 1_555 1_555
Zn2_4 N4_4 1_555 1_555
N2_4 N3_4 1_555 1_555
N11_4 Zn1_4 1_555 1_555
C1_5 C2_5 1_555 1_555
C2_5 C4_5 1_555 1_555
C3_5 C1_5 1_555 1_555
C4_5 N4_5 1_555 1_555
N1_5 C1_5 1_555 1_555
N2_5 N1_5 1_555 1_555
H1_5 N2_5 1_555 1_555
N3_5 C2_5 1_555 1_555
N4_5 N5_5 1_555 1_555
N5_5 N6_5 1_555 1_555
N6_5 N7_5 1_555 1_555
N7_5 C4_5 1_555 1_555
N13 C3_5 1_555 1_555
N9_4 N13 1_555 1_555
N10_4 N9_4 1_555 1_555
N11_5 C3_5 1_555 1_555
Zn1_5 N7_5 1_555 1_555
N12_5 Zn1_5 1_555 1_555
Zn2_5 N4_5 1_555 1_555
N2_5 N3_5 1_555 1_555
N10_4 N11_5 1_555 1_555
N11_5 Zn1_5 1_555 1_555
C1_6 C2_6 1_555 1_555
C2_6 C4_6 1_555 1_555
C3_6 C1_6 1_555 1_555
C4_6 N4_6 1_555 1_555
N1_6 C1_6 1_555 1_555
N2_6 N1_6 1_555 1_555
H1_6 N2_6 1_555 1_555
N3_6 C2_6 1_555 1_555
N4_6 N5_6 1_555 1_555
N5_6 N6_6 1_555 1_555
N6_6 N7_6 1_555 1_555
N7_6 C4_6 1_555 1_555
N13_2 C3_6 1_555 1_555
N11_6 C3_6 1_555 1_555
Zn1_6 N7_6 1_555 1_555
N12_6 Zn1_6 1_555 1_555
Zn2_6 N4_6 1_555 1_555
N2_6 N3_6 1_555 1_555
N11_6 Zn1_6 1_555 1_555
C1_7 C2_7 1_555 1_555
C2_7 C4_7 1_555 1_555
C3_7 C1_7 1_555 1_555
C4_7 N4_7 1_555 1_555
N4_7 N5_7 1_555 1_555
N5_7 N6_7 1_555 1_555
N6_7 N7_7 1_555 1_555
N7_7 C4_7 1_555 1_555
N11_7 C3_7 1_555 1_555
Zn3_2 N7_7 1_555 1_555
N12_7 Zn3_2 1_555 1_555
Zn2_7 N4_7 1_555 1_555
N11_7 Zn3_2 1_555 1_555
C1_8 C2_8 1_555 1_555
C2_8 C4_8 1_555 1_555
C3_8 C1_8 1_555 1_555
C4_8 N4_8 1_555 1_555
N4_8 N5_8 1_555 1_555
N5_8 N6_8 1_555 1_555
N6_8 N7_8 1_555 1_555
N7_8 C4_8 1_555 1_555
N11_8 C3_8 1_555 1_555
Zn3_3 N7_8 1_555 1_555
N12_8 Zn3_3 1_555 1_555
Zn2_8 N4_8 1_555 1_555
N11_8 Zn3_3 1_555 1_555
C1_9 C2_9 1_555 1_555
C2_9 C4_9 1_555 1_555
C3_9 C1_9 1_555 1_555
C4_9 N4_9 1_555 1_555
N4_9 N5_9 1_555 1_555
N5_9 N6_9 1_555 1_555
N6_9 N7_9 1_555 1_555
N7_9 C4_9 1_555 1_555
N13_4 C3_9 1_555 1_555
N9_5 N13_4 1_555 1_555
N10_5 N9_5 1_555 1_555
N11_9 C3_9 1_555 1_555
Zn3 N7_9 1_555 1_555
N12_9 Zn3 1_555 1_555
Zn2_9 N4_9 1_555 1_555
N10_5 N11_9 1_555 1_555
N11_9 Zn3 1_555 1_555
N2_7 N1_7 1_555 1_555
H1_7 N2_7 1_555 1_555
N2_7 N3_7 1_555 1_555
C1_10 C2_10 1_555 1_555
C2_10 C4_10 1_555 1_555
C3_10 C1_10 1_555 1_555
C4_10 N12_3 1_555 1_555
N1_8 C1_10 1_555 1_555
N2_8 N1_8 1_555 1_555
H1_8 N2_8 1_555 1_555
N3_8 C2_10 1_555 1_555
N12_3 N5_10 1_555 1_555
N5_10 N6_10 1_555 1_555
N6_10 N7_10 1_555 1_555
N7_10 C4_10 1_555 1_555
N8_4 C3_10 1_555 1_555
N9_6 N8_4 1_555 1_555
N10_6 N9_6 1_555 1_555
N11_10 C3_10 1_555 1_555
Zn2_2 N7_10 1_555 1_555
N13_5 Zn2_2 1_555 1_555
Zn2_4 N8_4 1_555 1_555
N2_8 N3_8 1_555 1_555
N10_6 N11_10 1_555 1_555
N11_10 Zn2_2 1_555 1_555
C1_11 C2_11 1_555 1_555
C2_11 C4_11 1_555 1_555
C3_11 C1_11 1_555 1_555
C4_11 N12 1_555 1_555
N1_9 C1_11 1_555 1_555
N2_9 N1_9 1_555 1_555
H1_9 N2_9 1_555 1_555
N3_9 C2_11 1_555 1_555
N12 N5_11 1_555 1_555
N5_11 N6_11 1_555 1_555
N6_11 N7_11 1_555 1_555
N7_11 C4_11 1_555 1_555
N8_5 C3_11 1_555 1_555
N9_7 N8_5 1_555 1_555
N10_7 N9_7 1_555 1_555
N11_11 C3_11 1_555 1_555
Zn2_5 N8_5 1_555 1_555
N2_9 N3_9 1_555 1_555
N10_7 N11_11 1_555 1_555
N13_6 Zn2_3 1_555 1_555
N13_7 Zn2 1_555 1_555
C1_12 C2_12 1_555 1_555
C2_12 C4_12 1_555 1_555
C3_12 C1_12 1_555 1_555
C4_12 N12_2 1_555 1_555
N1_10 C1_12 1_555 1_555
N2_10 N1_10 1_555 1_555
H1_10 N2_10 1_555 1_555
N3_10 C2_12 1_555 1_555
N12_2 N5_12 1_555 1_555
N5_12 N6_12 1_555 1_555
N6_12 N7_12 1_555 1_555
N7_12 C4_12 1_555 1_555
N8_6 C3_12 1_555 1_555
N9_8 N8_6 1_555 1_555
N10_8 N9_8 1_555 1_555
N11_12 C3_12 1_555 1_555
Zn2_6 N8_6 1_555 1_555
N2_10 N3_10 1_555 1_555
N10_8 N11_12 1_555 1_555
C1_13 C2_13 1_555 1_555
C2_13 C4_13 1_555 1_555
C3_13 C1_13 1_555 1_555
C4_13 N12_9 1_555 1_555
N1_11 C1_13 1_555 1_555
N2_11 N1_11 1_555 1_555
H1_11 N2_11 1_555 1_555
N3_11 C2_13 1_555 1_555
N12_9 N5_13 1_555 1_555
N5_13 N6_13 1_555 1_555
N6_13 N7_13 1_555 1_555
N7_13 C4_13 1_555 1_555
N13_7 C3_13 1_555 1_555
N11_13 C3_13 1_555 1_555
Zn2_8 N7_13 1_555 1_555
N2_11 N3_11 1_555 1_555
N11_13 Zn2_8 1_555 1_555
C1_14 C2_14 1_555 1_555
C2_14 C4_14 1_555 1_555
C3_14 C1_14 1_555 1_555
C4_14 N12_7 1_555 1_555
N1_12 C1_14 1_555 1_555
N2_12 N1_12 1_555 1_555
H1_12 N2_12 1_555 1_555
N3_12 C2_14 1_555 1_555
N12_7 N5_14 1_555 1_555
N5_14 N6_14 1_555 1_555
N6_14 N7_14 1_555 1_555
N7_14 C4_14 1_555 1_555
N13_5 C3_14 1_555 1_555
N9_9 N13_5 1_555 1_555
N10_9 N9_9 1_555 1_555
N11_14 C3_14 1_555 1_555
Zn2_9 N7_14 1_555 1_555
N2_12 N3_12 1_555 1_555
N10_9 N11_14 1_555 1_555
N11_14 Zn2_9 1_555 1_555
C1_15 C2_15 1_555 1_555
C2_15 C4_15 1_555 1_555
C3_15 C1_15 1_555 1_555
C4_15 N12_8 1_555 1_555
N1_13 C1_15 1_555 1_555
N2_13 N1_13 1_555 1_555
H1_13 N2_13 1_555 1_555
N3_13 C2_15 1_555 1_555
N12_8 N5_15 1_555 1_555
N5_15 N6_15 1_555 1_555
N6_15 N7_15 1_555 1_555
N7_15 C4_15 1_555 1_555
N13_6 C3_15 1_555 1_555
N11_15 C3_15 1_555 1_555
Zn2_7 N7_15 1_555 1_555
N2_13 N3_13 1_555 1_555
N11_15 Zn2_7 1_555 1_555
C1_16 C2_16 1_555 1_555
C2_16 C4_16 1_555 1_555
C3_16 C1_16 1_555 1_555
C4_16 N12_6 1_555 1_555
N12_6 N5_16 1_555 1_555
N5_16 N6_16 1_555 1_555
N6_16 N7_16 1_555 1_555
N7_16 C4_16 1_555 1_555
N11_16 C3_16 1_555 1_555
Zn2_5 N7_16 1_555 1_555
N11_16 Zn2_5 1_555 1_555
C1_17 C2_17 1_555 1_555
C2_17 C4_17 1_555 1_555
C3_17 C1_17 1_555 1_555
C4_17 N12_4 1_555 1_555
N12_4 N5_17 1_555 1_555
N5_17 N6_17 1_555 1_555
N6_17 N7_17 1_555 1_555
N7_17 C4_17 1_555 1_555
N11_17 C3_17 1_555 1_555
Zn2_6 N7_17 1_555 1_555
N11_17 Zn2_6 1_555 1_555
N2_14 N1_14 1_555 1_555
H1_14 N2_14 1_555 1_555
N2_14 N3_14 1_555 1_555
C1_18 C2_18 1_555 1_555
C2_18 C4_18 1_555 1_555
C3_18 C1_18 1_555 1_555
C4_18 N12_5 1_555 1_555
N12_5 N5_18 1_555 1_555
N5_18 N6_18 1_555 1_555
N6_18 N7_18 1_555 1_555
N7_18 C4_18 1_555 1_555
N13_8 C3_18 1_555 1_555
N9_10 N13_8 1_555 1_555
N10_10 N9_10 1_555 1_555
N11_18 C3_18 1_555 1_555
Zn2_4 N7_18 1_555 1_555
N10_10 N11_18 1_555 1_555
N11_18 Zn2_4 1_555 1_555
N10_11 N9_11 1_555 1_555
N9_12 N13_9 1_555 1_555
N10_12 N9_12 1_555 1_555
N9_13 N13_10 1_555 1_555
N10_13 N9_13 1_555 1_555
N10_14 N9_14 1_555 1_555
N2_15 N1_15 1_555 1_555
H1_15 N2_15 1_555 1_555
N2_15 N3_15 1_555 1_555
N2_16 N1_16 1_555 1_555
H1_16 N2_16 1_555 1_555
N2_16 N3_16 1_555 1_555
N9_15 N13_11 1_555 1_555
N10_15 N9_15 1_555 1_555
N10_16 N9_16 1_555 1_555
N10_17 N9_17 1_555 1_555
N9_18 N13_12 1_555 1_555
N10_18 N9_18 1_555 1_555
N2_17 N1_17 1_555 1_555
H1_17 N2_17 1_555 1_555
N2_17 N3_17 1_555 1_555
N2_18 N1_18 1_555 1_555
H1_18 N2_18 1_555 1_555
N2_18 N3_18 1_555 1_555

#END
