
###############################################################################
#
# This file contains modified crystal structure data generated from the
# MOF subset of the Cambridge Structural Database (CSD) v543 
# hosted by the Cambridge Crystallographic Data Centre (CCDC).
#
# This work is licensed under the Creative Commons
# Attribution-NonCommercial-ShareAlike 4.0 International License.
# To view a copy of this license, visit
# http://creativecommons.org/licenses/by-nc-sa/4.0/
# or send a letter to
# Creative Commons, PO Box 1866, Mountain View, CA 94042, USA.
#
# CIF created using the CSD Python API on 29 September 2022
# The structure has been converted into the P1 space group
# The structure has a 3D framework
# The original CSD entry SATBEW is in the orthorhombic crystal system
# The framework has been calculated to contain at least 10.0% void space
# The void calculation uses a probe of radius 1.32A, grid spacing 0.4
#
###############################################################################

data_SATBEW
_chemical_formula_moiety         '(C288 H192 Br16 Cu32 N144 S32 W12)n'
_symmetry_cell_setting           triclinic
_symmetry_space_group_name_H-M   'P 1'
_symmetry_Int_Tables_number      1
_space_group_name_Hall           'P 1'
loop_
_symmetry_equiv_pos_site_id
_symmetry_equiv_pos_as_xyz
1 x,y,z
_cell_length_a                   25.910(5)
_cell_length_b                   32.157(6)
_cell_length_c                   13.697(3)
_cell_angle_alpha                90
_cell_angle_beta                 90
_cell_angle_gamma                90
_cell_volume                     11412.2
loop_
_atom_site_label
_atom_site_type_symbol
_atom_site_fract_x
_atom_site_fract_y
_atom_site_fract_z
C14 C 0.4301(2) 0.1089(2) 0.0307(4)
H10 H 0.4442 0.1343 0.0488
C15 C 0.4395(2) 0.07412(19) 0.0843(4)
C16 C 0.4172(3) 0.0383(2) 0.0562(5)
H11 H 0.4238 0.0140 0.0905
C18 C 0.4723(2) 0.0758(2) 0.1740(4)
N8 N 0.48526(19) 0.11248(16) 0.2095(3)
N9 N 0.4853(2) 0.03860(18) 0.2105(3)
C31 C 0.6009(2) 0.1057(2) 0.5509(4)
H21 H 0.6060 0.1294 0.5886
C32 C 0.5699(2) 0.1089(2) 0.4693(4)
H22 H 0.5558 0.1343 0.4512
C33 C 0.5605(2) 0.07412(19) 0.4157(4)
C34 C 0.5828(3) 0.0383(2) 0.4438(5)
H23 H 0.5762 0.0140 0.4095
C35 C 0.6150(3) 0.0375(2) 0.5218(5)
H24 H 0.6319 0.0129 0.5370
C36 C 0.5277(2) 0.0758(2) 0.3260(4)
Cu7 Cu 0.68286(3) 0.06387(2) 0.67601(5)
N18 N 0.6234(2) 0.07122(15) 0.5782(3)
N20 N 0.51474(19) 0.11248(16) 0.2905(3)
N21 N 0.5147(2) 0.03860(18) 0.2895(3)
C31_2 C 0.8991(2) 0.8943(2) 0.5509(4)
H21_2 H 0.8940 0.8706 0.5886
C32_2 C 0.9301(2) 0.8911(2) 0.4693(4)
H22_2 H 0.9442 0.8657 0.4512
C33_2 C 0.9395(2) 0.92588(19) 0.4157(4)
C34_2 C 0.9172(3) 0.9617(2) 0.4438(5)
H23_2 H 0.9238 0.9860 0.4095
C35_2 C 0.8850(3) 0.9625(2) 0.5218(5)
H24_2 H 0.8681 0.9871 0.5370
C36_2 C 0.9723(2) 0.9242(2) 0.3260(4)
Cu7_2 Cu 0.81714(3) 0.93613(2) 0.67601(5)
N18_2 N 0.8766(2) 0.92878(15) 0.5782(3)
N20_2 N 0.98526(19) 0.88752(16) 0.2905(3)
N21_2 N 0.9853(2) 0.96140(18) 0.2895(3)
S1 S 0.67927(6) 0.00354(4) 0.76416(10)
W1 W 0.7500 -0.0000 0.670956(19)
Br2 Br 0.90485(3) 0.06994(2) 0.57186(5)
C19 C 0.6982(3) 0.15099(18) 0.7343(4)
H13 H 0.7100 0.1532 0.6704
C20 C 0.6977(3) 0.18564(19) 0.7905(4)
H14 H 0.7083 0.2110 0.7646
C21 C 0.6810(3) 0.18324(19) 0.8879(4)
C22 C 0.6655(3) 0.14539(19) 0.9213(4)
H15 H 0.6543 0.1422 0.9853
C23 C 0.6667(2) 0.11170(19) 0.8586(4)
H16 H 0.6560 0.0860 0.8821
C24 C 0.6805(3) 0.22063(19) 0.9512(4)
Cu3 Cu 0.82928(3) 0.05517(2) 0.66932(5)
N10 N 0.68262(18) 0.11430(14) 0.7657(3)
N12 N 0.7003(3) 0.25541(17) 0.9154(3)
N13 N 0.7000(3) 0.28892(16) 0.9710(4)
N17 N 0.82969(19) 0.10637(14) 0.7640(3)
S4 S 0.75502(6) 0.05664(5) 0.57777(9)
Br1 Br 0.59515(3) 0.93006(2) 0.57186(5)
C7 C 0.6794(3) 0.78504(19) 0.9412(4)
C8 C 0.6762(3) 0.82335(17) 0.8794(4)
C9 C 0.6972(2) 0.86052(19) 0.9106(4)
H5 H 0.7135 0.8623 0.9709
C10 C 0.6937(2) 0.89488(17) 0.8510(4)
H6 H 0.7080 0.9198 0.8719
C11 C 0.6497(3) 0.85807(18) 0.7356(4)
H7 H 0.6329 0.8572 0.6756
C12 C 0.6519(3) 0.82240(18) 0.7899(4)
H8 H 0.6371 0.7979 0.7669
Cu1 Cu 0.67072(3) 0.94483(2) 0.66932(5)
N4 N 0.6629(3) 0.74998(17) 0.9033(4)
N5 N 0.6638(3) 0.71599(17) 0.9587(4)
N6 N 0.67031(19) 0.89363(14) 0.7640(3)
S2 S 0.74498(6) 0.94336(5) 0.57777(9)
W1_2 W 0.7500 1.0000 0.670956(19)
N11 N 0.81738(18) 0.88570(14) 0.7657(3)
S3 S 0.82073(6) 0.99646(4) 0.76416(10)
C7_2 C 0.8206(3) 0.21496(19) 0.9412(4)
C8_2 C 0.8238(3) 0.17665(17) 0.8794(4)
C9_2 C 0.8028(2) 0.13948(19) 0.9106(4)
H5_2 H 0.7865 0.1377 0.9709
C10_2 C 0.8063(2) 0.10512(17) 0.8510(4)
H6_2 H 0.7920 0.0802 0.8719
C11_2 C 0.8503(3) 0.14193(18) 0.7356(4)
H7_2 H 0.8671 0.1428 0.6756
C12_2 C 0.8481(3) 0.17760(18) 0.7899(4)
H8_2 H 0.8629 0.2021 0.7669
N4_2 N 0.8371(3) 0.25002(17) 0.9033(4)
N5_2 N 0.8362(3) 0.28401(17) 0.9587(4)
C19_2 C 0.8018(3) 0.84901(18) 0.7343(4)
H13_2 H 0.7900 0.8468 0.6704
C20_2 C 0.8023(3) 0.81436(19) 0.7905(4)
H14_2 H 0.7917 0.7890 0.7646
C21_2 C 0.8190(3) 0.81676(19) 0.8879(4)
C22_2 C 0.8345(3) 0.85461(19) 0.9213(4)
H15_2 H 0.8457 0.8578 0.9853
C23_2 C 0.8333(2) 0.88830(19) 0.8586(4)
H16_2 H 0.8440 0.9140 0.8821
C24_2 C 0.8195(3) 0.77937(19) 0.9512(4)
N12_2 N 0.7997(3) 0.74459(17) 0.9154(3)
N13_2 N 0.8000(3) 0.71108(16) 0.9710(4)
C13 C 0.3991(2) 0.1057(2) 0.9491(4)
H9 H 0.3940 0.1294 0.9114
C17 C 0.3850(3) 0.0375(2) 0.9782(5)
H12 H 0.3681 0.0129 0.9630
Cu2 Cu 0.31714(3) 0.06387(2) 0.82399(5)
N7 N 0.3766(2) 0.07122(15) 0.9218(3)
S1_2 S 0.32073(6) 0.00354(4) 0.73584(10)
W1_3 W 0.2500 -0.0000 0.829044(19)
Br2_2 Br 0.09515(3) 0.06994(2) 0.92814(5)
C19_3 C 0.3018(3) 0.15099(18) 0.7657(4)
H13_3 H 0.2900 0.1532 0.8296
C20_3 C 0.3023(3) 0.18564(19) 0.7095(4)
H14_3 H 0.2917 0.2110 0.7354
C21_3 C 0.3190(3) 0.18324(19) 0.6121(4)
C22_3 C 0.3345(3) 0.14539(19) 0.5787(4)
H15_3 H 0.3457 0.1422 0.5147
C23_3 C 0.3333(2) 0.11170(19) 0.6414(4)
H16_3 H 0.3440 0.0860 0.6179
C24_3 C 0.3195(3) 0.22063(19) 0.5488(4)
C25 C 0.3206(3) 0.28504(19) 0.4412(4)
C26 C 0.3238(3) 0.32335(17) 0.3794(4)
C27 C 0.3028(2) 0.36052(19) 0.4106(4)
H17 H 0.2865 0.3623 0.4709
C28 C 0.3063(2) 0.39488(17) 0.3510(4)
H18 H 0.2920 0.4198 0.3719
C29 C 0.3503(3) 0.35807(18) 0.2356(4)
H19 H 0.3671 0.3572 0.1756
C30 C 0.3481(3) 0.32240(18) 0.2899(4)
H20 H 0.3629 0.2979 0.2669
Cu3_2 Cu 0.17072(3) 0.05517(2) 0.83068(5)
Cu4 Cu 0.32928(3) 0.44483(2) 0.16932(5)
N10_2 N 0.31738(18) 0.11430(14) 0.7343(3)
N12_3 N 0.2997(3) 0.25541(17) 0.5846(3)
N13_3 N 0.3000(3) 0.28892(16) 0.5290(4)
N14 N 0.3371(3) 0.24998(17) 0.4033(4)
N15 N 0.3362(3) 0.21599(17) 0.4587(4)
N16 N 0.32969(19) 0.39363(14) 0.2640(3)
N17_2 N 0.17031(19) 0.10637(14) 0.7360(3)
S4_2 S 0.24498(6) 0.05664(5) 0.92223(9)
Br1_2 Br 0.40485(3) 0.93006(2) 0.92814(5)
C1 C 0.3018(3) 0.65099(18) 0.2343(4)
H1 H 0.2900 0.6532 0.1704
C2 C 0.3023(3) 0.68564(19) 0.2905(4)
H2 H 0.2917 0.7110 0.2646
C3 C 0.3190(3) 0.68324(19) 0.3879(4)
C4 C 0.3345(3) 0.64539(19) 0.4213(4)
H3 H 0.3457 0.6422 0.4853
C5 C 0.3333(2) 0.61170(19) 0.3586(4)
H4 H 0.3440 0.5860 0.3821
C6 C 0.3195(3) 0.72063(19) 0.4512(4)
C7_3 C 0.3206(3) 0.78504(19) 0.5588(4)
C8_3 C 0.3238(3) 0.82335(17) 0.6206(4)
C9_3 C 0.3028(2) 0.86052(19) 0.5894(4)
H5_3 H 0.2865 0.8623 0.5291
C10_3 C 0.3063(2) 0.89488(17) 0.6490(4)
H6_3 H 0.2920 0.9198 0.6281
C11_3 C 0.3503(3) 0.85807(18) 0.7644(4)
H7_3 H 0.3671 0.8572 0.8244
C12_3 C 0.3481(3) 0.82240(18) 0.7101(4)
H8_3 H 0.3629 0.7979 0.7331
Cu1_2 Cu 0.32928(3) 0.94483(2) 0.83068(5)
N1 N 0.31738(18) 0.61430(14) 0.2657(3)
N2 N 0.2997(3) 0.75541(17) 0.4154(3)
N3 N 0.3000(3) 0.78892(16) 0.4710(4)
N4_3 N 0.3371(3) 0.74998(17) 0.5967(4)
N5_3 N 0.3362(3) 0.71599(17) 0.5413(4)
N6_2 N 0.32969(19) 0.89363(14) 0.7360(3)
S2_2 S 0.25502(6) 0.94336(5) 0.92223(9)
W1_4 W 0.2500 1.0000 0.829044(19)
Cu5 Cu 0.18286(3) 0.93613(2) 0.82399(5)
Cu6 Cu 0.31714(3) 0.56387(2) 0.17601(5)
N11_2 N 0.18262(18) 0.88570(14) 0.7343(3)
N19 N 0.1234(2) 0.92878(15) 0.9218(3)
S3_2 S 0.17927(6) 0.99646(4) 0.73584(10)
C1_2 C 0.1982(3) 0.34901(18) 0.2343(4)
H1_2 H 0.2100 0.3468 0.1704
C2_2 C 0.1977(3) 0.31436(19) 0.2905(4)
H2_2 H 0.2083 0.2890 0.2646
C3_2 C 0.1810(3) 0.31676(19) 0.3879(4)
C4_2 C 0.1655(3) 0.35461(19) 0.4213(4)
H3_2 H 0.1543 0.3578 0.4853
C5_2 C 0.1667(2) 0.38830(19) 0.3586(4)
H4_2 H 0.1560 0.4140 0.3821
C6_2 C 0.1805(3) 0.27937(19) 0.4512(4)
C7_4 C 0.1794(3) 0.21496(19) 0.5588(4)
C8_4 C 0.1762(3) 0.17665(17) 0.6206(4)
C9_4 C 0.1972(2) 0.13948(19) 0.5894(4)
H5_4 H 0.2135 0.1377 0.5291
C10_4 C 0.1937(2) 0.10512(17) 0.6490(4)
H6_4 H 0.2080 0.0802 0.6281
C11_4 C 0.1497(3) 0.14193(18) 0.7644(4)
H7_4 H 0.1329 0.1428 0.8244
C12_4 C 0.1519(3) 0.17760(18) 0.7101(4)
H8_4 H 0.1371 0.2021 0.7331
N1_2 N 0.18262(18) 0.38570(14) 0.2657(3)
N2_2 N 0.2003(3) 0.24459(17) 0.4154(3)
N3_2 N 0.2000(3) 0.21108(16) 0.4710(4)
N4_4 N 0.1629(3) 0.25002(17) 0.5967(4)
N5_4 N 0.1638(3) 0.28401(17) 0.5413(4)
Cu6_2 Cu 0.18286(3) 0.43613(2) 0.17601(5)
C13_2 C 0.1009(2) 0.8943(2) 0.9491(4)
H9_2 H 0.1060 0.8706 0.9114
C17_2 C 0.1150(3) 0.9625(2) 0.9782(5)
H12_2 H 0.1319 0.9871 0.9630
C19_4 C 0.1982(3) 0.84901(18) 0.7657(4)
H13_4 H 0.2100 0.8468 0.8296
C20_4 C 0.1977(3) 0.81436(19) 0.7095(4)
H14_4 H 0.2083 0.7890 0.7354
C21_4 C 0.1810(3) 0.81676(19) 0.6121(4)
C22_4 C 0.1655(3) 0.85461(19) 0.5787(4)
H15_4 H 0.1543 0.8578 0.5147
C23_4 C 0.1667(2) 0.88830(19) 0.6414(4)
H16_4 H 0.1560 0.9140 0.6179
C24_4 C 0.1805(3) 0.77937(19) 0.5488(4)
C25_2 C 0.1794(3) 0.71496(19) 0.4412(4)
C26_2 C 0.1762(3) 0.67665(17) 0.3794(4)
C27_2 C 0.1972(2) 0.63948(19) 0.4106(4)
H17_2 H 0.2135 0.6377 0.4709
C28_2 C 0.1937(2) 0.60512(17) 0.3510(4)
H18_2 H 0.2080 0.5802 0.3719
C29_2 C 0.1497(3) 0.64193(18) 0.2356(4)
H19_2 H 0.1329 0.6428 0.1756
C30_2 C 0.1519(3) 0.67760(18) 0.2899(4)
H20_2 H 0.1371 0.7021 0.2669
Cu4_2 Cu 0.17072(3) 0.55517(2) 0.16932(5)
N12_4 N 0.2003(3) 0.74459(17) 0.5846(3)
N13_4 N 0.2000(3) 0.71108(16) 0.5290(4)
N14_2 N 0.1629(3) 0.75002(17) 0.4033(4)
N15_2 N 0.1638(3) 0.78401(17) 0.4587(4)
N16_2 N 0.17031(19) 0.60637(14) 0.2640(3)
Br1_3 Br 0.09515(3) 0.56994(2) 0.07186(5)
C13_3 C 0.1009(2) 0.3943(2) 0.0509(4)
H9_3 H 0.1060 0.3706 0.0886
C17_3 C 0.1150(3) 0.4625(2) 0.0218(5)
H12_3 H 0.1319 0.4871 0.0370
N7_2 N 0.1234(2) 0.42878(15) 0.0782(3)
S1_3 S 0.17927(6) 0.49646(4) 0.26416(10)
S2_3 S 0.24498(6) 0.55664(5) 0.07777(9)
W1_5 W 0.2500 0.5000 0.170956(19)
Br2_3 Br 0.40485(3) 0.43006(2) 0.07186(5)
N19_2 N 0.3766(2) 0.57122(15) 0.0782(3)
S3_3 S 0.32073(6) 0.50354(4) 0.26416(10)
S4_3 S 0.25502(6) 0.44336(5) 0.07777(9)
C13_4 C 0.3991(2) 0.6057(2) 0.0509(4)
H9_4 H 0.3940 0.6294 0.0886
C17_4 C 0.3850(3) 0.5375(2) 0.0218(5)
H12_4 H 0.3681 0.5129 0.0370
C14_2 C 0.0699(2) 0.8911(2) 0.0307(4)
H10_2 H 0.0558 0.8657 0.0488
C15_2 C 0.0605(2) 0.92588(19) 0.0843(4)
C16_2 C 0.0828(3) 0.9617(2) 0.0562(5)
H11_2 H 0.0762 0.9860 0.0905
C18_2 C 0.0277(2) 0.9242(2) 0.1740(4)
N8_2 N 0.01474(19) 0.88752(16) 0.2095(3)
N9_2 N 0.0147(2) 0.96140(18) 0.2105(3)
C25_3 C 0.6794(3) 0.28504(19) 0.0588(4)
C26_3 C 0.6762(3) 0.32335(17) 0.1206(4)
C27_3 C 0.6972(2) 0.36052(19) 0.0894(4)
H17_3 H 0.7135 0.3623 0.0291
C28_3 C 0.6937(2) 0.39488(17) 0.1490(4)
H18_3 H 0.7080 0.4198 0.1281
C29_3 C 0.6497(3) 0.35807(18) 0.2644(4)
H19_3 H 0.6329 0.3572 0.3244
C30_3 C 0.6519(3) 0.32240(18) 0.2101(4)
H20_3 H 0.6371 0.2979 0.2331
Cu4_3 Cu 0.67072(3) 0.44483(2) 0.33068(5)
N14_3 N 0.6629(3) 0.24998(17) 0.0967(4)
N15_3 N 0.6638(3) 0.21599(17) 0.0413(4)
N16_3 N 0.67031(19) 0.39363(14) 0.2360(3)
C1_3 C 0.6982(3) 0.65099(18) 0.2657(4)
H1_3 H 0.7100 0.6532 0.3296
C2_3 C 0.6977(3) 0.68564(19) 0.2095(4)
H2_3 H 0.7083 0.7110 0.2354
C3_3 C 0.6810(3) 0.68324(19) 0.1121(4)
C4_3 C 0.6655(3) 0.64539(19) 0.0787(4)
H3_3 H 0.6543 0.6422 0.0147
C5_3 C 0.6667(2) 0.61170(19) 0.1414(4)
H4_3 H 0.6560 0.5860 0.1179
C6_3 C 0.6805(3) 0.72063(19) 0.0488(4)
N1_3 N 0.68262(18) 0.61430(14) 0.2343(3)
N2_3 N 0.7003(3) 0.75541(17) 0.0846(3)
N3_3 N 0.7000(3) 0.78892(16) 0.0290(4)
Cu6_3 Cu 0.68286(3) 0.56387(2) 0.32399(5)
C1_4 C 0.8018(3) 0.34901(18) 0.2657(4)
H1_4 H 0.7900 0.3468 0.3296
C2_4 C 0.8023(3) 0.31436(19) 0.2095(4)
H2_4 H 0.7917 0.2890 0.2354
C3_4 C 0.8190(3) 0.31676(19) 0.1121(4)
C4_4 C 0.8345(3) 0.35461(19) 0.0787(4)
H3_4 H 0.8457 0.3578 0.0147
C5_4 C 0.8333(2) 0.38830(19) 0.1414(4)
H4_4 H 0.8440 0.4140 0.1179
C6_4 C 0.8195(3) 0.27937(19) 0.0488(4)
N1_4 N 0.81738(18) 0.38570(14) 0.2343(3)
N2_4 N 0.7997(3) 0.24459(17) 0.0846(3)
N3_4 N 0.8000(3) 0.21108(16) 0.0290(4)
Cu6_4 Cu 0.81714(3) 0.43613(2) 0.32399(5)
C25_4 C 0.8206(3) 0.71496(19) 0.0588(4)
C26_4 C 0.8238(3) 0.67665(17) 0.1206(4)
C27_4 C 0.8028(2) 0.63948(19) 0.0894(4)
H17_4 H 0.7865 0.6377 0.0291
C28_4 C 0.8063(2) 0.60512(17) 0.1490(4)
H18_4 H 0.7920 0.5802 0.1281
C29_4 C 0.8503(3) 0.64193(18) 0.2644(4)
H19_4 H 0.8671 0.6428 0.3244
C30_4 C 0.8481(3) 0.67760(18) 0.2101(4)
H20_4 H 0.8629 0.7021 0.2331
Cu4_4 Cu 0.82928(3) 0.55517(2) 0.33068(5)
N14_4 N 0.8371(3) 0.75002(17) 0.0967(4)
N15_4 N 0.8362(3) 0.78401(17) 0.0413(4)
N16_4 N 0.82969(19) 0.60637(14) 0.2360(3)
C31_3 C 0.8991(2) 0.3943(2) 0.4491(4)
H21_3 H 0.8940 0.3706 0.4114
C32_3 C 0.9301(2) 0.3911(2) 0.5307(4)
H22_3 H 0.9442 0.3657 0.5488
C33_3 C 0.9395(2) 0.42588(19) 0.5843(4)
C34_3 C 0.9172(3) 0.4617(2) 0.5562(5)
H23_3 H 0.9238 0.4860 0.5905
C35_3 C 0.8850(3) 0.4625(2) 0.4782(5)
H24_3 H 0.8681 0.4871 0.4630
C36_3 C 0.9723(2) 0.4242(2) 0.6740(4)
N18_3 N 0.8766(2) 0.42878(15) 0.4218(3)
N20_3 N 0.98526(19) 0.38752(16) 0.7095(3)
N21_3 N 0.9853(2) 0.46140(18) 0.7105(3)
C14_3 C 0.4301(2) 0.6089(2) 0.9693(4)
H10_3 H 0.4442 0.6343 0.9512
C15_3 C 0.4395(2) 0.57412(19) 0.9157(4)
C16_3 C 0.4172(3) 0.5383(2) 0.9438(5)
H11_3 H 0.4238 0.5140 0.9095
C18_3 C 0.4723(2) 0.5758(2) 0.8260(4)
N8_3 N 0.48526(19) 0.61248(16) 0.7905(3)
N9_3 N 0.4853(2) 0.53860(18) 0.7895(3)
C31_4 C 0.6009(2) 0.6057(2) 0.4491(4)
H21_4 H 0.6060 0.6294 0.4114
C32_4 C 0.5699(2) 0.6089(2) 0.5307(4)
H22_4 H 0.5558 0.6343 0.5488
C33_4 C 0.5605(2) 0.57412(19) 0.5843(4)
C34_4 C 0.5828(3) 0.5383(2) 0.5562(5)
H23_4 H 0.5762 0.5140 0.5905
C35_4 C 0.6150(3) 0.5375(2) 0.4782(5)
H24_4 H 0.6319 0.5129 0.4630
C36_4 C 0.5277(2) 0.5758(2) 0.6740(4)
N18_4 N 0.6234(2) 0.57122(15) 0.4218(3)
N20_4 N 0.51474(19) 0.61248(16) 0.7095(3)
N21_4 N 0.5147(2) 0.53860(18) 0.7105(3)
Br1_4 Br 0.90485(3) 0.56994(2) 0.42814(5)
S1_4 S 0.82073(6) 0.49646(4) 0.23584(10)
S2_4 S 0.75502(6) 0.55664(5) 0.42223(9)
W1_6 W 0.7500 0.5000 0.329044(19)
Br2_4 Br 0.59515(3) 0.43006(2) 0.42814(5)
S3_4 S 0.67927(6) 0.50354(4) 0.23584(10)
S4_4 S 0.74498(6) 0.44336(5) 0.42223(9)
C31_5 C 0.1009(2) 0.6057(2) 0.5509(4)
H21_5 H 0.1060 0.6294 0.5886
C32_5 C 0.0699(2) 0.6089(2) 0.4693(4)
H22_5 H 0.0558 0.6343 0.4512
C33_5 C 0.0605(2) 0.57412(19) 0.4157(4)
C34_5 C 0.0828(3) 0.5383(2) 0.4438(5)
H23_5 H 0.0762 0.5140 0.4095
C35_5 C 0.1150(3) 0.5375(2) 0.5218(5)
H24_5 H 0.1319 0.5129 0.5370
C36_5 C 0.0277(2) 0.5758(2) 0.3260(4)
Cu7_3 Cu 0.18286(3) 0.56387(2) 0.67601(5)
N18_5 N 0.1234(2) 0.57122(15) 0.5782(3)
N20_5 N 0.01474(19) 0.61248(16) 0.2905(3)
N21_5 N 0.0147(2) 0.53860(18) 0.2895(3)
C14_4 C 0.5699(2) 0.3911(2) 0.0307(4)
H10_4 H 0.5558 0.3657 0.0488
C15_4 C 0.5605(2) 0.42588(19) 0.0843(4)
C16_4 C 0.5828(3) 0.4617(2) 0.0562(5)
H11_4 H 0.5762 0.4860 0.0905
C18_4 C 0.5277(2) 0.4242(2) 0.1740(4)
N8_4 N 0.51474(19) 0.38752(16) 0.2095(3)
N9_4 N 0.5147(2) 0.46140(18) 0.2105(3)
C31_6 C 0.3991(2) 0.3943(2) 0.5509(4)
H21_6 H 0.3940 0.3706 0.5886
C32_6 C 0.4301(2) 0.3911(2) 0.4693(4)
H22_6 H 0.4442 0.3657 0.4512
C33_6 C 0.4395(2) 0.42588(19) 0.4157(4)
C34_6 C 0.4172(3) 0.4617(2) 0.4438(5)
H23_6 H 0.4238 0.4860 0.4095
C35_6 C 0.3850(3) 0.4625(2) 0.5218(5)
H24_6 H 0.3681 0.4871 0.5370
C36_6 C 0.4723(2) 0.4242(2) 0.3260(4)
Cu7_4 Cu 0.31714(3) 0.43613(2) 0.67601(5)
N18_6 N 0.3766(2) 0.42878(15) 0.5782(3)
N20_6 N 0.48526(19) 0.38752(16) 0.2905(3)
N21_6 N 0.4853(2) 0.46140(18) 0.2895(3)
Br1_5 Br 0.09515(3) 0.43006(2) 0.57186(5)
C7_5 C 0.1794(3) 0.28504(19) 0.9412(4)
C8_5 C 0.1762(3) 0.32335(17) 0.8794(4)
C9_5 C 0.1972(2) 0.36052(19) 0.9106(4)
H5_5 H 0.2135 0.3623 0.9709
C10_5 C 0.1937(2) 0.39488(17) 0.8510(4)
H6_5 H 0.2080 0.4198 0.8719
C11_5 C 0.1497(3) 0.35807(18) 0.7356(4)
H7_5 H 0.1329 0.3572 0.6756
C12_5 C 0.1519(3) 0.32240(18) 0.7899(4)
H8_5 H 0.1371 0.2979 0.7669
Cu1_3 Cu 0.17072(3) 0.44483(2) 0.66932(5)
N4_5 N 0.1629(3) 0.24998(17) 0.9033(4)
N5_5 N 0.1638(3) 0.21599(17) 0.9587(4)
N6_3 N 0.17031(19) 0.39363(14) 0.7640(3)
S1_5 S 0.17927(6) 0.50354(4) 0.76416(10)
S2_5 S 0.24498(6) 0.44336(5) 0.57777(9)
W1_7 W 0.2500 0.5000 0.670956(19)
Br2_5 Br 0.40485(3) 0.56994(2) 0.57186(5)
C19_5 C 0.1982(3) 0.65099(18) 0.7343(4)
H13_5 H 0.2100 0.6532 0.6704
C20_5 C 0.1977(3) 0.68564(19) 0.7905(4)
H14_5 H 0.2083 0.7110 0.7646
C21_5 C 0.1810(3) 0.68324(19) 0.8879(4)
C22_5 C 0.1655(3) 0.64539(19) 0.9213(4)
H15_5 H 0.1543 0.6422 0.9853
C23_5 C 0.1667(2) 0.61170(19) 0.8586(4)
H16_5 H 0.1560 0.5860 0.8821
C24_5 C 0.1805(3) 0.72063(19) 0.9512(4)
Cu3_3 Cu 0.32928(3) 0.55517(2) 0.66932(5)
N10_3 N 0.18262(18) 0.61430(14) 0.7657(3)
N11_3 N 0.31738(18) 0.38570(14) 0.7657(3)
N12_5 N 0.2003(3) 0.75541(17) 0.9154(3)
N13_5 N 0.2000(3) 0.78892(16) 0.9710(4)
N17_3 N 0.32969(19) 0.60637(14) 0.7640(3)
S3_5 S 0.32073(6) 0.49646(4) 0.76416(10)
S4_5 S 0.25502(6) 0.55664(5) 0.57777(9)
C7_6 C 0.3206(3) 0.71496(19) 0.9412(4)
C8_6 C 0.3238(3) 0.67665(17) 0.8794(4)
C9_6 C 0.3028(2) 0.63948(19) 0.9106(4)
H5_6 H 0.2865 0.6377 0.9709
C10_6 C 0.3063(2) 0.60512(17) 0.8510(4)
H6_6 H 0.2920 0.5802 0.8719
C11_6 C 0.3503(3) 0.64193(18) 0.7356(4)
H7_6 H 0.3671 0.6428 0.6756
C12_6 C 0.3481(3) 0.67760(18) 0.7899(4)
H8_6 H 0.3629 0.7021 0.7669
N4_6 N 0.3371(3) 0.75002(17) 0.9033(4)
N5_6 N 0.3362(3) 0.78401(17) 0.9587(4)
C19_6 C 0.3018(3) 0.34901(18) 0.7343(4)
H13_6 H 0.2900 0.3468 0.6704
C20_6 C 0.3023(3) 0.31436(19) 0.7905(4)
H14_6 H 0.2917 0.2890 0.7646
C21_6 C 0.3190(3) 0.31676(19) 0.8879(4)
C22_6 C 0.3345(3) 0.35461(19) 0.9213(4)
H15_6 H 0.3457 0.3578 0.9853
C23_6 C 0.3333(2) 0.38830(19) 0.8586(4)
H16_6 H 0.3440 0.4140 0.8821
C24_6 C 0.3195(3) 0.27937(19) 0.9512(4)
N12_6 N 0.2997(3) 0.24459(17) 0.9154(3)
N13_6 N 0.3000(3) 0.21108(16) 0.9710(4)
C14_5 C 0.9301(2) 0.6089(2) 0.0307(4)
H10_5 H 0.9442 0.6343 0.0488
C15_5 C 0.9395(2) 0.57412(19) 0.0843(4)
C16_5 C 0.9172(3) 0.5383(2) 0.0562(5)
H11_5 H 0.9238 0.5140 0.0905
C18_5 C 0.9723(2) 0.5758(2) 0.1740(4)
N8_5 N 0.98526(19) 0.61248(16) 0.2095(3)
N9_5 N 0.9853(2) 0.53860(18) 0.2105(3)
Br1_6 Br 0.90485(3) 0.43006(2) 0.92814(5)
C1_5 C 0.8018(3) 0.15099(18) 0.2343(4)
H1_5 H 0.7900 0.1532 0.1704
C2_5 C 0.8023(3) 0.18564(19) 0.2905(4)
H2_5 H 0.7917 0.2110 0.2646
C3_5 C 0.8190(3) 0.18324(19) 0.3879(4)
C4_5 C 0.8345(3) 0.14539(19) 0.4213(4)
H3_5 H 0.8457 0.1422 0.4853
C5_5 C 0.8333(2) 0.11170(19) 0.3586(4)
H4_5 H 0.8440 0.0860 0.3821
C6_5 C 0.8195(3) 0.22063(19) 0.4512(4)
C7_7 C 0.8206(3) 0.28504(19) 0.5588(4)
C8_7 C 0.8238(3) 0.32335(17) 0.6206(4)
C9_7 C 0.8028(2) 0.36052(19) 0.5894(4)
H5_7 H 0.7865 0.3623 0.5291
C10_7 C 0.8063(2) 0.39488(17) 0.6490(4)
H6_7 H 0.7920 0.4198 0.6281
C11_7 C 0.8503(3) 0.35807(18) 0.7644(4)
H7_7 H 0.8671 0.3572 0.8244
C12_7 C 0.8481(3) 0.32240(18) 0.7101(4)
H8_7 H 0.8629 0.2979 0.7331
C13_5 C 0.8991(2) 0.6057(2) 0.9491(4)
H9_5 H 0.8940 0.6294 0.9114
C17_5 C 0.8850(3) 0.5375(2) 0.9782(5)
H12_5 H 0.8681 0.5129 0.9630
Cu1_4 Cu 0.82928(3) 0.44483(2) 0.83068(5)
Cu2_2 Cu 0.81714(3) 0.56387(2) 0.82399(5)
N1_5 N 0.81738(18) 0.11430(14) 0.2657(3)
N2_5 N 0.7997(3) 0.25541(17) 0.4154(3)
N3_5 N 0.8000(3) 0.28892(16) 0.4710(4)
N4_7 N 0.8371(3) 0.24998(17) 0.5967(4)
N5_7 N 0.8362(3) 0.21599(17) 0.5413(4)
N6_4 N 0.82969(19) 0.39363(14) 0.7360(3)
N7_3 N 0.8766(2) 0.57122(15) 0.9218(3)
S1_6 S 0.82073(6) 0.50354(4) 0.73584(10)
S2_6 S 0.75502(6) 0.44336(5) 0.92223(9)
W1_8 W 0.7500 0.5000 0.829044(19)
Br2_6 Br 0.59515(3) 0.56994(2) 0.92814(5)
C19_7 C 0.8018(3) 0.65099(18) 0.7657(4)
H13_7 H 0.7900 0.6532 0.8296
C20_7 C 0.8023(3) 0.68564(19) 0.7095(4)
H14_7 H 0.7917 0.7110 0.7354
C21_7 C 0.8190(3) 0.68324(19) 0.6121(4)
C22_7 C 0.8345(3) 0.64539(19) 0.5787(4)
H15_7 H 0.8457 0.6422 0.5147
C23_7 C 0.8333(2) 0.61170(19) 0.6414(4)
H16_7 H 0.8440 0.5860 0.6179
C24_7 C 0.8195(3) 0.72063(19) 0.5488(4)
C25_5 C 0.8206(3) 0.78504(19) 0.4412(4)
C26_5 C 0.8238(3) 0.82335(17) 0.3794(4)
C27_5 C 0.8028(2) 0.86052(19) 0.4106(4)
H17_5 H 0.7865 0.8623 0.4709
C28_5 C 0.8063(2) 0.89488(17) 0.3510(4)
H18_5 H 0.7920 0.9198 0.3719
C29_5 C 0.8503(3) 0.85807(18) 0.2356(4)
H19_5 H 0.8671 0.8572 0.1756
C30_5 C 0.8481(3) 0.82240(18) 0.2899(4)
H20_5 H 0.8629 0.7979 0.2669
Cu3_4 Cu 0.67072(3) 0.55517(2) 0.83068(5)
Cu4_5 Cu 0.82928(3) 0.94483(2) 0.16932(5)
Cu5_2 Cu 0.68286(3) 0.43613(2) 0.82399(5)
Cu6_5 Cu 0.81714(3) 0.06387(2) 0.17601(5)
N10_4 N 0.81738(18) 0.61430(14) 0.7343(3)
N11_4 N 0.68262(18) 0.38570(14) 0.7343(3)
N12_7 N 0.7997(3) 0.75541(17) 0.5846(3)
N13_7 N 0.8000(3) 0.78892(16) 0.5290(4)
N14_5 N 0.8371(3) 0.74998(17) 0.4033(4)
N15_5 N 0.8362(3) 0.71599(17) 0.4587(4)
N16_5 N 0.82969(19) 0.89363(14) 0.2640(3)
N17_4 N 0.67031(19) 0.60637(14) 0.7360(3)
N19_3 N 0.6234(2) 0.42878(15) 0.9218(3)
S3_6 S 0.67927(6) 0.49646(4) 0.73584(10)
S4_6 S 0.74498(6) 0.55664(5) 0.92223(9)
C1_6 C 0.6982(3) 0.84901(18) 0.2343(4)
H1_6 H 0.7100 0.8468 0.1704
C2_6 C 0.6977(3) 0.81436(19) 0.2905(4)
H2_6 H 0.7083 0.7890 0.2646
C3_6 C 0.6810(3) 0.81676(19) 0.3879(4)
C4_6 C 0.6655(3) 0.85461(19) 0.4213(4)
H3_6 H 0.6543 0.8578 0.4853
C5_6 C 0.6667(2) 0.88830(19) 0.3586(4)
H4_6 H 0.6560 0.9140 0.3821
C6_6 C 0.6805(3) 0.77937(19) 0.4512(4)
C7_8 C 0.6794(3) 0.71496(19) 0.5588(4)
C8_8 C 0.6762(3) 0.67665(17) 0.6206(4)
C9_8 C 0.6972(2) 0.63948(19) 0.5894(4)
H5_8 H 0.7135 0.6377 0.5291
C10_8 C 0.6937(2) 0.60512(17) 0.6490(4)
H6_8 H 0.7080 0.5802 0.6281
C11_8 C 0.6497(3) 0.64193(18) 0.7644(4)
H7_8 H 0.6329 0.6428 0.8244
C12_8 C 0.6519(3) 0.67760(18) 0.7101(4)
H8_8 H 0.6371 0.7021 0.7331
C13_6 C 0.6009(2) 0.3943(2) 0.9491(4)
H9_6 H 0.6060 0.3706 0.9114
C17_6 C 0.6150(3) 0.4625(2) 0.9782(5)
H12_6 H 0.6319 0.4871 0.9630
N1_6 N 0.68262(18) 0.88570(14) 0.2657(3)
N2_6 N 0.7003(3) 0.74459(17) 0.4154(3)
N3_6 N 0.7000(3) 0.71108(16) 0.4710(4)
N4_8 N 0.6629(3) 0.75002(17) 0.5967(4)
N5_8 N 0.6638(3) 0.78401(17) 0.5413(4)
C19_8 C 0.6982(3) 0.34901(18) 0.7657(4)
H13_8 H 0.7100 0.3468 0.8296
C20_8 C 0.6977(3) 0.31436(19) 0.7095(4)
H14_8 H 0.7083 0.2890 0.7354
C21_8 C 0.6810(3) 0.31676(19) 0.6121(4)
C22_8 C 0.6655(3) 0.35461(19) 0.5787(4)
H15_8 H 0.6543 0.3578 0.5147
C23_8 C 0.6667(2) 0.38830(19) 0.6414(4)
H16_8 H 0.6560 0.4140 0.6179
C24_8 C 0.6805(3) 0.27937(19) 0.5488(4)
C25_6 C 0.6794(3) 0.21496(19) 0.4412(4)
C26_6 C 0.6762(3) 0.17665(17) 0.3794(4)
C27_6 C 0.6972(2) 0.13948(19) 0.4106(4)
H17_6 H 0.7135 0.1377 0.4709
C28_6 C 0.6937(2) 0.10512(17) 0.3510(4)
H18_6 H 0.7080 0.0802 0.3719
C29_6 C 0.6497(3) 0.14193(18) 0.2356(4)
H19_6 H 0.6329 0.1428 0.1756
C30_6 C 0.6519(3) 0.17760(18) 0.2899(4)
H20_6 H 0.6371 0.2021 0.2669
Cu4_6 Cu 0.67072(3) 0.05517(2) 0.16932(5)
Cu6_6 Cu 0.68286(3) 0.93613(2) 0.17601(5)
N12_8 N 0.7003(3) 0.24459(17) 0.5846(3)
N13_8 N 0.7000(3) 0.21108(16) 0.5290(4)
N14_6 N 0.6629(3) 0.25002(17) 0.4033(4)
N15_6 N 0.6638(3) 0.28401(17) 0.4587(4)
N16_6 N 0.67031(19) 0.10637(14) 0.2640(3)
Br1_7 Br 0.59515(3) 0.06994(2) 0.07186(5)
S2_7 S 0.74498(6) 0.05664(5) 0.07777(9)
W1_9 W 0.7500 0.0000 0.170956(19)
N19_4 N 0.8766(2) 0.07122(15) 0.0782(3)
S3_7 S 0.82073(6) 0.00354(4) 0.26416(10)
C13_7 C 0.6009(2) 0.8943(2) 0.0509(4)
H9_7 H 0.6060 0.8706 0.0886
C17_7 C 0.6150(3) 0.9625(2) 0.0218(5)
H12_7 H 0.6319 0.9871 0.0370
N7_4 N 0.6234(2) 0.92878(15) 0.0782(3)
S1_7 S 0.67927(6) 0.99646(4) 0.26416(10)
W1_10 W 0.7500 1.0000 0.170956(19)
Br2_7 Br 0.90485(3) 0.93006(2) 0.07186(5)
S4_7 S 0.75502(6) 0.94336(5) 0.07777(9)
C13_8 C 0.8991(2) 0.1057(2) 0.0509(4)
H9_8 H 0.8940 0.1294 0.0886
C17_8 C 0.8850(3) 0.0375(2) 0.0218(5)
H12_8 H 0.8681 0.0129 0.0370
C1_7 C 0.1982(3) 0.15099(18) 0.2657(4)
H1_7 H 0.2100 0.1532 0.3296
C2_7 C 0.1977(3) 0.18564(19) 0.2095(4)
H2_7 H 0.2083 0.2110 0.2354
C3_7 C 0.1810(3) 0.18324(19) 0.1121(4)
C4_7 C 0.1655(3) 0.14539(19) 0.0787(4)
H3_7 H 0.1543 0.1422 0.0147
C5_7 C 0.1667(2) 0.11170(19) 0.1414(4)
H4_7 H 0.1560 0.0860 0.1179
C6_7 C 0.1805(3) 0.22063(19) 0.0488(4)
N1_7 N 0.18262(18) 0.11430(14) 0.2343(3)
N2_7 N 0.2003(3) 0.25541(17) 0.0846(3)
N3_7 N 0.2000(3) 0.28892(16) 0.0290(4)
C25_7 C 0.1794(3) 0.78504(19) 0.0588(4)
C26_7 C 0.1762(3) 0.82335(17) 0.1206(4)
C27_7 C 0.1972(2) 0.86052(19) 0.0894(4)
H17_7 H 0.2135 0.8623 0.0291
C28_7 C 0.1937(2) 0.89488(17) 0.1490(4)
H18_7 H 0.2080 0.9198 0.1281
C29_7 C 0.1497(3) 0.85807(18) 0.2644(4)
H19_7 H 0.1329 0.8572 0.3244
C30_7 C 0.1519(3) 0.82240(18) 0.2101(4)
H20_7 H 0.1371 0.7979 0.2331
Cu4_7 Cu 0.17072(3) 0.94483(2) 0.33068(5)
Cu6_7 Cu 0.18286(3) 0.06387(2) 0.32399(5)
N14_7 N 0.1629(3) 0.74998(17) 0.0967(4)
N15_7 N 0.1638(3) 0.71599(17) 0.0413(4)
N16_7 N 0.17031(19) 0.89363(14) 0.2360(3)
C1_8 C 0.3018(3) 0.84901(18) 0.2657(4)
H1_8 H 0.2900 0.8468 0.3296
C2_8 C 0.3023(3) 0.81436(19) 0.2095(4)
H2_8 H 0.2917 0.7890 0.2354
C3_8 C 0.3190(3) 0.81676(19) 0.1121(4)
C4_8 C 0.3345(3) 0.85461(19) 0.0787(4)
H3_8 H 0.3457 0.8578 0.0147
C5_8 C 0.3333(2) 0.88830(19) 0.1414(4)
H4_8 H 0.3440 0.9140 0.1179
C6_8 C 0.3195(3) 0.77937(19) 0.0488(4)
N1_8 N 0.31738(18) 0.88570(14) 0.2343(3)
N2_8 N 0.2997(3) 0.74459(17) 0.0846(3)
N3_8 N 0.3000(3) 0.71108(16) 0.0290(4)
C25_8 C 0.3206(3) 0.21496(19) 0.0588(4)
C26_8 C 0.3238(3) 0.17665(17) 0.1206(4)
C27_8 C 0.3028(2) 0.13948(19) 0.0894(4)
H17_8 H 0.2865 0.1377 0.0291
C28_8 C 0.3063(2) 0.10512(17) 0.1490(4)
H18_8 H 0.2920 0.0802 0.1281
C29_8 C 0.3503(3) 0.14193(18) 0.2644(4)
H19_8 H 0.3671 0.1428 0.3244
C30_8 C 0.3481(3) 0.17760(18) 0.2101(4)
H20_8 H 0.3629 0.2021 0.2331
Cu4_8 Cu 0.32928(3) 0.05517(2) 0.33068(5)
Cu6_8 Cu 0.31714(3) 0.93613(2) 0.32399(5)
N14_8 N 0.3371(3) 0.25002(17) 0.0967(4)
N15_8 N 0.3362(3) 0.28401(17) 0.0413(4)
N16_8 N 0.32969(19) 0.10637(14) 0.2360(3)
C14_6 C 0.5699(2) 0.8911(2) 0.9693(4)
H10_6 H 0.5558 0.8657 0.9512
C15_6 C 0.5605(2) 0.92588(19) 0.9157(4)
C16_6 C 0.5828(3) 0.9617(2) 0.9438(5)
H11_6 H 0.5762 0.9860 0.9095
C18_6 C 0.5277(2) 0.9242(2) 0.8260(4)
N8_6 N 0.51474(19) 0.88752(16) 0.7905(3)
N9_6 N 0.5147(2) 0.96140(18) 0.7895(3)
C31_7 C 0.3991(2) 0.8943(2) 0.4491(4)
H21_7 H 0.3940 0.8706 0.4114
C32_7 C 0.4301(2) 0.8911(2) 0.5307(4)
H22_7 H 0.4442 0.8657 0.5488
C33_7 C 0.4395(2) 0.92588(19) 0.5843(4)
C34_7 C 0.4172(3) 0.9617(2) 0.5562(5)
H23_7 H 0.4238 0.9860 0.5905
C35_7 C 0.3850(3) 0.9625(2) 0.4782(5)
H24_7 H 0.3681 0.9871 0.4630
C36_7 C 0.4723(2) 0.9242(2) 0.6740(4)
N18_7 N 0.3766(2) 0.92878(15) 0.4218(3)
N20_7 N 0.48526(19) 0.88752(16) 0.7095(3)
N21_7 N 0.4853(2) 0.96140(18) 0.7105(3)
C31_8 C 0.1009(2) 0.1057(2) 0.4491(4)
H21_8 H 0.1060 0.1294 0.4114
C32_8 C 0.0699(2) 0.1089(2) 0.5307(4)
H22_8 H 0.0558 0.1343 0.5488
C33_8 C 0.0605(2) 0.07412(19) 0.5843(4)
C34_8 C 0.0828(3) 0.0383(2) 0.5562(5)
H23_8 H 0.0762 0.0140 0.5905
C35_8 C 0.1150(3) 0.0375(2) 0.4782(5)
H24_8 H 0.1319 0.0129 0.4630
C36_8 C 0.0277(2) 0.0758(2) 0.6740(4)
N18_8 N 0.1234(2) 0.07122(15) 0.4218(3)
N20_8 N 0.01474(19) 0.11248(16) 0.7095(3)
N21_8 N 0.0147(2) 0.03860(18) 0.7105(3)
Br1_8 Br 0.40485(3) 0.06994(2) 0.42814(5)
S2_8 S 0.25502(6) 0.05664(5) 0.42223(9)
W1_11 W 0.2500 0.0000 0.329044(19)
S3_8 S 0.17927(6) 0.00354(4) 0.23584(10)
S1_8 S 0.32073(6) 0.99646(4) 0.23584(10)
W1_12 W 0.2500 1.0000 0.329044(19)
Br2_8 Br 0.09515(3) 0.93006(2) 0.42814(5)
S4_8 S 0.24498(6) 0.94336(5) 0.42223(9)
C14_7 C 0.9301(2) 0.1089(2) 0.9693(4)
H10_7 H 0.9442 0.1343 0.9512
C15_7 C 0.9395(2) 0.07412(19) 0.9157(4)
C16_7 C 0.9172(3) 0.0383(2) 0.9438(5)
H11_7 H 0.9238 0.0140 0.9095
C18_7 C 0.9723(2) 0.0758(2) 0.8260(4)
N8_7 N 0.98526(19) 0.11248(16) 0.7905(3)
N9_7 N 0.9853(2) 0.03860(18) 0.7895(3)
C14_8 C 0.0699(2) 0.3911(2) 0.9693(4)
H10_8 H 0.0558 0.3657 0.9512
C15_8 C 0.0605(2) 0.42588(19) 0.9157(4)
C16_8 C 0.0828(3) 0.4617(2) 0.9438(5)
H11_8 H 0.0762 0.4860 0.9095
C18_8 C 0.0277(2) 0.4242(2) 0.8260(4)
N8_8 N 0.01474(19) 0.38752(16) 0.7905(3)
N9_8 N 0.0147(2) 0.46140(18) 0.7895(3)
loop_
_geom_bond_atom_site_label_1
_geom_bond_atom_site_label_2
_geom_bond_site_symmetry_1
_geom_bond_site_symmetry_2
H10 C14 1_555 1_555
C15 C14 1_555 1_555
C16 C15 1_555 1_555
H11 C16 1_555 1_555
C18 C15 1_555 1_555
N8 C18 1_555 1_555
N9 C18 1_555 1_555
C31 H21 1_555 1_555
C32 C31 1_555 1_555
H22 C32 1_555 1_555
C33 C32 1_555 1_555
C34 C33 1_555 1_555
H23 C34 1_555 1_555
C35 C34 1_555 1_555
H24 C35 1_555 1_555
C36 C33 1_555 1_555
Cu7 N18 1_555 1_555
N18 C31 1_555 1_555
N20 N8 1_555 1_555
N21 N9 1_555 1_555
C35 N18 1_555 1_555
C36 N20 1_555 1_555
C36 N21 1_555 1_555
C31_2 H21_2 1_555 1_555
C32_2 C31_2 1_555 1_555
H22_2 C32_2 1_555 1_555
C33_2 C32_2 1_555 1_555
C34_2 C33_2 1_555 1_555
H23_2 C34_2 1_555 1_555
C35_2 C34_2 1_555 1_555
H24_2 C35_2 1_555 1_555
C36_2 C33_2 1_555 1_555
Cu7_2 N18_2 1_555 1_555
N18_2 C31_2 1_555 1_555
C35_2 N18_2 1_555 1_555
C36_2 N20_2 1_555 1_555
C36_2 N21_2 1_555 1_555
W1 S1 1_555 1_555
Br2 Cu3 1_555 1_555
C19 H13 1_555 1_555
C20 C19 1_555 1_555
H14 C20 1_555 1_555
C21 C20 1_555 1_555
C22 C21 1_555 1_555
H15 C22 1_555 1_555
C23 C22 1_555 1_555
H16 C23 1_555 1_555
C24 C21 1_555 1_555
Cu3 N17 1_555 1_555
N10 Cu7 1_555 1_555
N12 C24 1_555 1_555
S4 Cu7 1_555 1_555
Cu7 S1 1_555 1_555
W1 S4 1_555 1_555
C19 N10 1_555 1_555
C23 N10 1_555 1_555
Cu3 S4 1_555 1_555
N12 N13 1_555 1_555
Br1 Cu1 1_555 1_555
C7 C8 1_555 1_555
C8 C9 1_555 1_555
C9 H5 1_555 1_555
C10 C9 1_555 1_555
H6 C10 1_555 1_555
C11 H7 1_555 1_555
C12 C8 1_555 1_555
H8 C12 1_555 1_555
Cu1 N6 1_555 1_555
N4 C7 1_555 1_555
N6 C10 1_555 1_555
S2 Cu1 1_555 1_555
Cu7_2 S2 1_555 1_555
N11 Cu7_2 1_555 1_555
S3 W1_2 1_555 1_555
C11 C12 1_555 1_555
C11 N6 1_555 1_555
N4 N5 1_555 1_555
S2 W1_2 1_555 1_555
Cu7_2 S3 1_555 1_555
C7_2 C8_2 1_555 1_555
C8_2 C9_2 1_555 1_555
C9_2 H5_2 1_555 1_555
C10_2 C9_2 1_555 1_555
H6_2 C10_2 1_555 1_555
C11_2 H7_2 1_555 1_555
C12_2 C8_2 1_555 1_555
H8_2 C12_2 1_555 1_555
N4_2 C7_2 1_555 1_555
N17 C10_2 1_555 1_555
C11_2 C12_2 1_555 1_555
C11_2 N17 1_555 1_555
N4_2 N5_2 1_555 1_555
C19_2 H13_2 1_555 1_555
C20_2 C19_2 1_555 1_555
H14_2 C20_2 1_555 1_555
C21_2 C20_2 1_555 1_555
C22_2 C21_2 1_555 1_555
H15_2 C22_2 1_555 1_555
C23_2 C22_2 1_555 1_555
H16_2 C23_2 1_555 1_555
C24_2 C21_2 1_555 1_555
N12_2 C24_2 1_555 1_555
C19_2 N11 1_555 1_555
C23_2 N11 1_555 1_555
N12_2 N13_2 1_555 1_555
C13 H9 1_555 1_555
H12 C17 1_555 1_555
Cu2 N7 1_555 1_555
N7 C13 1_555 1_555
W1_3 S1_2 1_555 1_555
Br2_2 Cu3_2 1_555 1_555
C19_3 H13_3 1_555 1_555
C20_3 C19_3 1_555 1_555
H14_3 C20_3 1_555 1_555
C21_3 C20_3 1_555 1_555
C22_3 C21_3 1_555 1_555
H15_3 C22_3 1_555 1_555
C23_3 C22_3 1_555 1_555
H16_3 C23_3 1_555 1_555
C24_3 C21_3 1_555 1_555
C25 C26 1_555 1_555
C26 C27 1_555 1_555
C27 H17 1_555 1_555
C28 C27 1_555 1_555
H18 C28 1_555 1_555
C29 H19 1_555 1_555
C30 C26 1_555 1_555
H20 C30 1_555 1_555
Cu3_2 N17_2 1_555 1_555
Cu4 N16 1_555 1_555
N10_2 Cu2 1_555 1_555
N12_3 C24_3 1_555 1_555
N13_3 C25 1_555 1_555
N14 C25 1_555 1_555
N15 C24_3 1_555 1_555
N16 C28 1_555 1_555
S4_2 Cu2 1_555 1_555
C17 N7 1_555 1_555
Cu2 S1_2 1_555 1_555
W1_3 S4_2 1_555 1_555
C19_3 N10_2 1_555 1_555
C23_3 N10_2 1_555 1_555
C29 C30 1_555 1_555
C29 N16 1_555 1_555
Cu3_2 S4_2 1_555 1_555
N12_3 N13_3 1_555 1_555
N14 N15 1_555 1_555
Br1_2 Cu1_2 1_555 1_555
C1 H1 1_555 1_555
C2 C1 1_555 1_555
H2 C2 1_555 1_555
C3 C2 1_555 1_555
C4 C3 1_555 1_555
H3 C4 1_555 1_555
C5 C4 1_555 1_555
H4 C5 1_555 1_555
C6 C3 1_555 1_555
C7_3 C8_3 1_555 1_555
C8_3 C9_3 1_555 1_555
C9_3 H5_3 1_555 1_555
C10_3 C9_3 1_555 1_555
H6_3 C10_3 1_555 1_555
C11_3 H7_3 1_555 1_555
C12_3 C8_3 1_555 1_555
H8_3 C12_3 1_555 1_555
Cu1_2 N6_2 1_555 1_555
N1 C1 1_555 1_555
N2 C6 1_555 1_555
N3 C7_3 1_555 1_555
N4_3 C7_3 1_555 1_555
N5_3 C6 1_555 1_555
N6_2 C10_3 1_555 1_555
S2_2 Cu1_2 1_555 1_555
Cu5 S2_2 1_555 1_555
Cu6 N1 1_555 1_555
N11_2 Cu5 1_555 1_555
N19 Cu5 1_555 1_555
S3_2 W1_4 1_555 1_555
C5 N1 1_555 1_555
C11_3 C12_3 1_555 1_555
C11_3 N6_2 1_555 1_555
N2 N3 1_555 1_555
N4_3 N5_3 1_555 1_555
S2_2 W1_4 1_555 1_555
Cu5 S3_2 1_555 1_555
C1_2 H1_2 1_555 1_555
C2_2 C1_2 1_555 1_555
H2_2 C2_2 1_555 1_555
C3_2 C2_2 1_555 1_555
C4_2 C3_2 1_555 1_555
H3_2 C4_2 1_555 1_555
C5_2 C4_2 1_555 1_555
H4_2 C5_2 1_555 1_555
C6_2 C3_2 1_555 1_555
C7_4 C8_4 1_555 1_555
C8_4 C9_4 1_555 1_555
C9_4 H5_4 1_555 1_555
C10_4 C9_4 1_555 1_555
H6_4 C10_4 1_555 1_555
C11_4 H7_4 1_555 1_555
C12_4 C8_4 1_555 1_555
H8_4 C12_4 1_555 1_555
N1_2 C1_2 1_555 1_555
N2_2 C6_2 1_555 1_555
N3_2 C7_4 1_555 1_555
N4_4 C7_4 1_555 1_555
N5_4 C6_2 1_555 1_555
N17_2 C10_4 1_555 1_555
Cu6_2 N1_2 1_555 1_555
C5_2 N1_2 1_555 1_555
C11_4 C12_4 1_555 1_555
C11_4 N17_2 1_555 1_555
N2_2 N3_2 1_555 1_555
N4_4 N5_4 1_555 1_555
C13_2 H9_2 1_555 1_555
H12_2 C17_2 1_555 1_555
N19 C13_2 1_555 1_555
C19_4 H13_4 1_555 1_555
C20_4 C19_4 1_555 1_555
H14_4 C20_4 1_555 1_555
C21_4 C20_4 1_555 1_555
C22_4 C21_4 1_555 1_555
H15_4 C22_4 1_555 1_555
C23_4 C22_4 1_555 1_555
H16_4 C23_4 1_555 1_555
C24_4 C21_4 1_555 1_555
C25_2 C26_2 1_555 1_555
C26_2 C27_2 1_555 1_555
C27_2 H17_2 1_555 1_555
C28_2 C27_2 1_555 1_555
H18_2 C28_2 1_555 1_555
C29_2 H19_2 1_555 1_555
C30_2 C26_2 1_555 1_555
H20_2 C30_2 1_555 1_555
Cu4_2 N16_2 1_555 1_555
N12_4 C24_4 1_555 1_555
N13_4 C25_2 1_555 1_555
N14_2 C25_2 1_555 1_555
N15_2 C24_4 1_555 1_555
N16_2 C28_2 1_555 1_555
C17_2 N19 1_555 1_555
C19_4 N11_2 1_555 1_555
C23_4 N11_2 1_555 1_555
C29_2 C30_2 1_555 1_555
C29_2 N16_2 1_555 1_555
N12_4 N13_4 1_555 1_555
N14_2 N15_2 1_555 1_555
Br1_3 Cu4_2 1_555 1_555
C13_3 H9_3 1_555 1_555
H12_3 C17_3 1_555 1_555
Cu6_2 N7_2 1_555 1_555
N7_2 C13_3 1_555 1_555
S1_3 Cu4_2 1_555 1_555
S2_3 Cu4_2 1_555 1_555
W1_5 S1_3 1_555 1_555
Br2_3 Cu4 1_555 1_555
Cu6 S2_3 1_555 1_555
N19_2 Cu6 1_555 1_555
S3_3 W1_5 1_555 1_555
S4_3 Cu6_2 1_555 1_555
C17_3 N7_2 1_555 1_555
Cu6_2 S1_3 1_555 1_555
S2_3 W1_5 1_555 1_555
W1_5 S4_3 1_555 1_555
Cu4 S3_3 1_555 1_555
Cu4 S4_3 1_555 1_555
Cu6 S3_3 1_555 1_555
C13_4 H9_4 1_555 1_555
H12_4 C17_4 1_555 1_555
N19_2 C13_4 1_555 1_555
C17_4 N19_2 1_555 1_555
H10_2 C14_2 1_555 1_555
C15_2 C14_2 1_555 1_555
C16_2 C15_2 1_555 1_555
H11_2 C16_2 1_555 1_555
C18_2 C15_2 1_555 1_555
N8_2 C18_2 1_555 1_555
N9_2 C18_2 1_555 1_555
C25_3 C26_3 1_555 1_555
C26_3 C27_3 1_555 1_555
C27_3 H17_3 1_555 1_555
C28_3 C27_3 1_555 1_555
H18_3 C28_3 1_555 1_555
C29_3 H19_3 1_555 1_555
C30_3 C26_3 1_555 1_555
H20_3 C30_3 1_555 1_555
Cu4_3 N16_3 1_555 1_555
N14_3 C25_3 1_555 1_555
N16_3 C28_3 1_555 1_555
C29_3 C30_3 1_555 1_555
C29_3 N16_3 1_555 1_555
N14_3 N15_3 1_555 1_555
C1_3 H1_3 1_555 1_555
C2_3 C1_3 1_555 1_555
H2_3 C2_3 1_555 1_555
C3_3 C2_3 1_555 1_555
C4_3 C3_3 1_555 1_555
H3_3 C4_3 1_555 1_555
C5_3 C4_3 1_555 1_555
H4_3 C5_3 1_555 1_555
C6_3 C3_3 1_555 1_555
N1_3 C1_3 1_555 1_555
N2_3 C6_3 1_555 1_555
Cu6_3 N1_3 1_555 1_555
C5_3 N1_3 1_555 1_555
N2_3 N3_3 1_555 1_555
C1_4 H1_4 1_555 1_555
C2_4 C1_4 1_555 1_555
H2_4 C2_4 1_555 1_555
C3_4 C2_4 1_555 1_555
C4_4 C3_4 1_555 1_555
H3_4 C4_4 1_555 1_555
C5_4 C4_4 1_555 1_555
H4_4 C5_4 1_555 1_555
C6_4 C3_4 1_555 1_555
N1_4 C1_4 1_555 1_555
N2_4 C6_4 1_555 1_555
Cu6_4 N1_4 1_555 1_555
C5_4 N1_4 1_555 1_555
N2_4 N3_4 1_555 1_555
C25_4 C26_4 1_555 1_555
C26_4 C27_4 1_555 1_555
C27_4 H17_4 1_555 1_555
C28_4 C27_4 1_555 1_555
H18_4 C28_4 1_555 1_555
C29_4 H19_4 1_555 1_555
C30_4 C26_4 1_555 1_555
H20_4 C30_4 1_555 1_555
Cu4_4 N16_4 1_555 1_555
N14_4 C25_4 1_555 1_555
N16_4 C28_4 1_555 1_555
C29_4 C30_4 1_555 1_555
C29_4 N16_4 1_555 1_555
N14_4 N15_4 1_555 1_555
C31_3 H21_3 1_555 1_555
C32_3 C31_3 1_555 1_555
H22_3 C32_3 1_555 1_555
C33_3 C32_3 1_555 1_555
C34_3 C33_3 1_555 1_555
H23_3 C34_3 1_555 1_555
C35_3 C34_3 1_555 1_555
H24_3 C35_3 1_555 1_555
C36_3 C33_3 1_555 1_555
Cu6_4 N18_3 1_555 1_555
N18_3 C31_3 1_555 1_555
C35_3 N18_3 1_555 1_555
C36_3 N20_3 1_555 1_555
C36_3 N21_3 1_555 1_555
H10_3 C14_3 1_555 1_555
C15_3 C14_3 1_555 1_555
C16_3 C15_3 1_555 1_555
H11_3 C16_3 1_555 1_555
C18_3 C15_3 1_555 1_555
N8_3 C18_3 1_555 1_555
N9_3 C18_3 1_555 1_555
C31_4 H21_4 1_555 1_555
C32_4 C31_4 1_555 1_555
H22_4 C32_4 1_555 1_555
C33_4 C32_4 1_555 1_555
C34_4 C33_4 1_555 1_555
H23_4 C34_4 1_555 1_555
C35_4 C34_4 1_555 1_555
H24_4 C35_4 1_555 1_555
C36_4 C33_4 1_555 1_555
Cu6_3 N18_4 1_555 1_555
N18_4 C31_4 1_555 1_555
N20_4 N8_3 1_555 1_555
N21_4 N9_3 1_555 1_555
C35_4 N18_4 1_555 1_555
C36_4 N20_4 1_555 1_555
C36_4 N21_4 1_555 1_555
Br1_4 Cu4_4 1_555 1_555
S1_4 Cu4_4 1_555 1_555
S2_4 Cu4_4 1_555 1_555
W1_6 S1_4 1_555 1_555
Br2_4 Cu4_3 1_555 1_555
Cu6_3 S2_4 1_555 1_555
S3_4 W1_6 1_555 1_555
S4_4 Cu6_4 1_555 1_555
Cu6_4 S1_4 1_555 1_555
S2_4 W1_6 1_555 1_555
W1_6 S4_4 1_555 1_555
Cu4_3 S3_4 1_555 1_555
Cu4_3 S4_4 1_555 1_555
Cu6_3 S3_4 1_555 1_555
C31_5 H21_5 1_555 1_555
C32_5 C31_5 1_555 1_555
H22_5 C32_5 1_555 1_555
C33_5 C32_5 1_555 1_555
C34_5 C33_5 1_555 1_555
H23_5 C34_5 1_555 1_555
C35_5 C34_5 1_555 1_555
H24_5 C35_5 1_555 1_555
C36_5 C33_5 1_555 1_555
Cu7_3 N18_5 1_555 1_555
N18_5 C31_5 1_555 1_555
C35_5 N18_5 1_555 1_555
C36_5 N20_5 1_555 1_555
C36_5 N21_5 1_555 1_555
H10_4 C14_4 1_555 1_555
C15_4 C14_4 1_555 1_555
C16_4 C15_4 1_555 1_555
H11_4 C16_4 1_555 1_555
C18_4 C15_4 1_555 1_555
N8_4 C18_4 1_555 1_555
N9_4 C18_4 1_555 1_555
C31_6 H21_6 1_555 1_555
C32_6 C31_6 1_555 1_555
H22_6 C32_6 1_555 1_555
C33_6 C32_6 1_555 1_555
C34_6 C33_6 1_555 1_555
H23_6 C34_6 1_555 1_555
C35_6 C34_6 1_555 1_555
H24_6 C35_6 1_555 1_555
C36_6 C33_6 1_555 1_555
Cu7_4 N18_6 1_555 1_555
N18_6 C31_6 1_555 1_555
N20_6 N8_4 1_555 1_555
N21_6 N9_4 1_555 1_555
C35_6 N18_6 1_555 1_555
C36_6 N20_6 1_555 1_555
C36_6 N21_6 1_555 1_555
Br1_5 Cu1_3 1_555 1_555
C7_5 C8_5 1_555 1_555
C8_5 C9_5 1_555 1_555
C9_5 H5_5 1_555 1_555
C10_5 C9_5 1_555 1_555
H6_5 C10_5 1_555 1_555
C11_5 H7_5 1_555 1_555
C12_5 C8_5 1_555 1_555
H8_5 C12_5 1_555 1_555
Cu1_3 N6_3 1_555 1_555
N4_5 C7_5 1_555 1_555
N6_3 C10_5 1_555 1_555
S1_5 Cu1_3 1_555 1_555
S2_5 Cu1_3 1_555 1_555
W1_7 S1_5 1_555 1_555
Br2_5 Cu3_3 1_555 1_555
C19_5 H13_5 1_555 1_555
C20_5 C19_5 1_555 1_555
H14_5 C20_5 1_555 1_555
C21_5 C20_5 1_555 1_555
C22_5 C21_5 1_555 1_555
H15_5 C22_5 1_555 1_555
C23_5 C22_5 1_555 1_555
H16_5 C23_5 1_555 1_555
C24_5 C21_5 1_555 1_555
Cu3_3 N17_3 1_555 1_555
Cu7_4 S2_5 1_555 1_555
N10_3 Cu7_3 1_555 1_555
N11_3 Cu7_4 1_555 1_555
N12_5 C24_5 1_555 1_555
S3_5 W1_7 1_555 1_555
S4_5 Cu7_3 1_555 1_555
C11_5 C12_5 1_555 1_555
C11_5 N6_3 1_555 1_555
Cu7_3 S1_5 1_555 1_555
N4_5 N5_5 1_555 1_555
S2_5 W1_7 1_555 1_555
W1_7 S4_5 1_555 1_555
C19_5 N10_3 1_555 1_555
C23_5 N10_3 1_555 1_555
Cu3_3 S3_5 1_555 1_555
Cu3_3 S4_5 1_555 1_555
Cu7_4 S3_5 1_555 1_555
N12_5 N13_5 1_555 1_555
C7_6 C8_6 1_555 1_555
C8_6 C9_6 1_555 1_555
C9_6 H5_6 1_555 1_555
C10_6 C9_6 1_555 1_555
H6_6 C10_6 1_555 1_555
C11_6 H7_6 1_555 1_555
C12_6 C8_6 1_555 1_555
H8_6 C12_6 1_555 1_555
N4_6 C7_6 1_555 1_555
N17_3 C10_6 1_555 1_555
C19_6 H13_6 1_555 1_555
C20_6 C19_6 1_555 1_555
H14_6 C20_6 1_555 1_555
C21_6 C20_6 1_555 1_555
C22_6 C21_6 1_555 1_555
H15_6 C22_6 1_555 1_555
C23_6 C22_6 1_555 1_555
H16_6 C23_6 1_555 1_555
C24_6 C21_6 1_555 1_555
N12_6 C24_6 1_555 1_555
C11_6 C12_6 1_555 1_555
C11_6 N17_3 1_555 1_555
N4_6 N5_6 1_555 1_555
C19_6 N11_3 1_555 1_555
C23_6 N11_3 1_555 1_555
N12_6 N13_6 1_555 1_555
H10_5 C14_5 1_555 1_555
C15_5 C14_5 1_555 1_555
C16_5 C15_5 1_555 1_555
H11_5 C16_5 1_555 1_555
C18_5 C15_5 1_555 1_555
N8_5 C18_5 1_555 1_555
N9_5 C18_5 1_555 1_555
Br1_6 Cu1_4 1_555 1_555
C1_5 H1_5 1_555 1_555
C2_5 C1_5 1_555 1_555
H2_5 C2_5 1_555 1_555
C3_5 C2_5 1_555 1_555
C4_5 C3_5 1_555 1_555
H3_5 C4_5 1_555 1_555
C5_5 C4_5 1_555 1_555
H4_5 C5_5 1_555 1_555
C6_5 C3_5 1_555 1_555
C7_7 C8_7 1_555 1_555
C8_7 C9_7 1_555 1_555
C9_7 H5_7 1_555 1_555
C10_7 C9_7 1_555 1_555
H6_7 C10_7 1_555 1_555
C11_7 H7_7 1_555 1_555
C12_7 C8_7 1_555 1_555
H8_7 C12_7 1_555 1_555
C13_5 H9_5 1_555 1_555
H12_5 C17_5 1_555 1_555
Cu1_4 N6_4 1_555 1_555
Cu2_2 N7_3 1_555 1_555
N1_5 C1_5 1_555 1_555
N2_5 C6_5 1_555 1_555
N3_5 C7_7 1_555 1_555
N4_7 C7_7 1_555 1_555
N5_7 C6_5 1_555 1_555
N6_4 C10_7 1_555 1_555
N7_3 C13_5 1_555 1_555
S1_6 Cu1_4 1_555 1_555
S2_6 Cu1_4 1_555 1_555
W1_8 S1_6 1_555 1_555
Br2_6 Cu3_4 1_555 1_555
C19_7 H13_7 1_555 1_555
C20_7 C19_7 1_555 1_555
H14_7 C20_7 1_555 1_555
C21_7 C20_7 1_555 1_555
C22_7 C21_7 1_555 1_555
H15_7 C22_7 1_555 1_555
C23_7 C22_7 1_555 1_555
H16_7 C23_7 1_555 1_555
C24_7 C21_7 1_555 1_555
C25_5 C26_5 1_555 1_555
C26_5 C27_5 1_555 1_555
C27_5 H17_5 1_555 1_555
C28_5 C27_5 1_555 1_555
H18_5 C28_5 1_555 1_555
C29_5 H19_5 1_555 1_555
C30_5 C26_5 1_555 1_555
H20_5 C30_5 1_555 1_555
Cu3_4 N17_4 1_555 1_555
Cu4_5 N16_5 1_555 1_555
Cu5_2 S2_6 1_555 1_555
Cu6_5 N1_5 1_555 1_555
N10_4 Cu2_2 1_555 1_555
N11_4 Cu5_2 1_555 1_555
N12_7 C24_7 1_555 1_555
N13_7 C25_5 1_555 1_555
N14_5 C25_5 1_555 1_555
N15_5 C24_7 1_555 1_555
N16_5 C28_5 1_555 1_555
N19_3 Cu5_2 1_555 1_555
S3_6 W1_8 1_555 1_555
S4_6 Cu2_2 1_555 1_555
C5_5 N1_5 1_555 1_555
C11_7 C12_7 1_555 1_555
C11_7 N6_4 1_555 1_555
C17_5 N7_3 1_555 1_555
Cu2_2 S1_6 1_555 1_555
N2_5 N3_5 1_555 1_555
N4_7 N5_7 1_555 1_555
S2_6 W1_8 1_555 1_555
W1_8 S4_6 1_555 1_555
C19_7 N10_4 1_555 1_555
C23_7 N10_4 1_555 1_555
C29_5 C30_5 1_555 1_555
C29_5 N16_5 1_555 1_555
Cu3_4 S3_6 1_555 1_555
Cu3_4 S4_6 1_555 1_555
Cu5_2 S3_6 1_555 1_555
N12_7 N13_7 1_555 1_555
N14_5 N15_5 1_555 1_555
C1_6 H1_6 1_555 1_555
C2_6 C1_6 1_555 1_555
H2_6 C2_6 1_555 1_555
C3_6 C2_6 1_555 1_555
C4_6 C3_6 1_555 1_555
H3_6 C4_6 1_555 1_555
C5_6 C4_6 1_555 1_555
H4_6 C5_6 1_555 1_555
C6_6 C3_6 1_555 1_555
C7_8 C8_8 1_555 1_555
C8_8 C9_8 1_555 1_555
C9_8 H5_8 1_555 1_555
C10_8 C9_8 1_555 1_555
H6_8 C10_8 1_555 1_555
C11_8 H7_8 1_555 1_555
C12_8 C8_8 1_555 1_555
H8_8 C12_8 1_555 1_555
C13_6 H9_6 1_555 1_555
H12_6 C17_6 1_555 1_555
N1_6 C1_6 1_555 1_555
N2_6 C6_6 1_555 1_555
N3_6 C7_8 1_555 1_555
N4_8 C7_8 1_555 1_555
N5_8 C6_6 1_555 1_555
N17_4 C10_8 1_555 1_555
N19_3 C13_6 1_555 1_555
C19_8 H13_8 1_555 1_555
C20_8 C19_8 1_555 1_555
H14_8 C20_8 1_555 1_555
C21_8 C20_8 1_555 1_555
C22_8 C21_8 1_555 1_555
H15_8 C22_8 1_555 1_555
C23_8 C22_8 1_555 1_555
H16_8 C23_8 1_555 1_555
C24_8 C21_8 1_555 1_555
C25_6 C26_6 1_555 1_555
C26_6 C27_6 1_555 1_555
C27_6 H17_6 1_555 1_555
C28_6 C27_6 1_555 1_555
H18_6 C28_6 1_555 1_555
C29_6 H19_6 1_555 1_555
C30_6 C26_6 1_555 1_555
H20_6 C30_6 1_555 1_555
Cu4_6 N16_6 1_555 1_555
Cu6_6 N1_6 1_555 1_555
N12_8 C24_8 1_555 1_555
N13_8 C25_6 1_555 1_555
N14_6 C25_6 1_555 1_555
N15_6 C24_8 1_555 1_555
N16_6 C28_6 1_555 1_555
C5_6 N1_6 1_555 1_555
C11_8 C12_8 1_555 1_555
C11_8 N17_4 1_555 1_555
C17_6 N19_3 1_555 1_555
N2_6 N3_6 1_555 1_555
N4_8 N5_8 1_555 1_555
C19_8 N11_4 1_555 1_555
C23_8 N11_4 1_555 1_555
C29_6 C30_6 1_555 1_555
C29_6 N16_6 1_555 1_555
N12_8 N13_8 1_555 1_555
N14_6 N15_6 1_555 1_555
Br1_7 Cu4_6 1_555 1_555
S2_7 Cu4_6 1_555 1_555
Cu6_5 S2_7 1_555 1_555
N19_4 Cu6_5 1_555 1_555
S3_7 W1_9 1_555 1_555
S2_7 W1_9 1_555 1_555
Cu6_5 S3_7 1_555 1_555
C13_7 H9_7 1_555 1_555
H12_7 C17_7 1_555 1_555
Cu6_6 N7_4 1_555 1_555
N7_4 C13_7 1_555 1_555
W1_10 S1_7 1_555 1_555
Br2_7 Cu4_5 1_555 1_555
S4_7 Cu6_6 1_555 1_555
C17_7 N7_4 1_555 1_555
Cu6_6 S1_7 1_555 1_555
W1_10 S4_7 1_555 1_555
Cu4_5 S4_7 1_555 1_555
C13_8 H9_8 1_555 1_555
H12_8 C17_8 1_555 1_555
N19_4 C13_8 1_555 1_555
C17_8 N19_4 1_555 1_555
C1_7 H1_7 1_555 1_555
C2_7 C1_7 1_555 1_555
H2_7 C2_7 1_555 1_555
C3_7 C2_7 1_555 1_555
C4_7 C3_7 1_555 1_555
H3_7 C4_7 1_555 1_555
C5_7 C4_7 1_555 1_555
H4_7 C5_7 1_555 1_555
C6_7 C3_7 1_555 1_555
N1_7 C1_7 1_555 1_555
N2_7 C6_7 1_555 1_555
C25_7 C26_7 1_555 1_555
C26_7 C27_7 1_555 1_555
C27_7 H17_7 1_555 1_555
C28_7 C27_7 1_555 1_555
H18_7 C28_7 1_555 1_555
C29_7 H19_7 1_555 1_555
C30_7 C26_7 1_555 1_555
H20_7 C30_7 1_555 1_555
Cu4_7 N16_7 1_555 1_555
Cu6_7 N1_7 1_555 1_555
N14_7 C25_7 1_555 1_555
N16_7 C28_7 1_555 1_555
C5_7 N1_7 1_555 1_555
N2_7 N3_7 1_555 1_555
C29_7 C30_7 1_555 1_555
C29_7 N16_7 1_555 1_555
N14_7 N15_7 1_555 1_555
C1_8 H1_8 1_555 1_555
C2_8 C1_8 1_555 1_555
H2_8 C2_8 1_555 1_555
C3_8 C2_8 1_555 1_555
C4_8 C3_8 1_555 1_555
H3_8 C4_8 1_555 1_555
C5_8 C4_8 1_555 1_555
H4_8 C5_8 1_555 1_555
C6_8 C3_8 1_555 1_555
N1_8 C1_8 1_555 1_555
N2_8 C6_8 1_555 1_555
C25_8 C26_8 1_555 1_555
C26_8 C27_8 1_555 1_555
C27_8 H17_8 1_555 1_555
C28_8 C27_8 1_555 1_555
H18_8 C28_8 1_555 1_555
C29_8 H19_8 1_555 1_555
C30_8 C26_8 1_555 1_555
H20_8 C30_8 1_555 1_555
Cu4_8 N16_8 1_555 1_555
Cu6_8 N1_8 1_555 1_555
N14_8 C25_8 1_555 1_555
N16_8 C28_8 1_555 1_555
C5_8 N1_8 1_555 1_555
N2_8 N3_8 1_555 1_555
C29_8 C30_8 1_555 1_555
C29_8 N16_8 1_555 1_555
N14_8 N15_8 1_555 1_555
H10_6 C14_6 1_555 1_555
C15_6 C14_6 1_555 1_555
C16_6 C15_6 1_555 1_555
H11_6 C16_6 1_555 1_555
C18_6 C15_6 1_555 1_555
N8_6 C18_6 1_555 1_555
N9_6 C18_6 1_555 1_555
C31_7 H21_7 1_555 1_555
C32_7 C31_7 1_555 1_555
H22_7 C32_7 1_555 1_555
C33_7 C32_7 1_555 1_555
C34_7 C33_7 1_555 1_555
H23_7 C34_7 1_555 1_555
C35_7 C34_7 1_555 1_555
H24_7 C35_7 1_555 1_555
C36_7 C33_7 1_555 1_555
Cu6_8 N18_7 1_555 1_555
N18_7 C31_7 1_555 1_555
N20_7 N8_6 1_555 1_555
N21_7 N9_6 1_555 1_555
C35_7 N18_7 1_555 1_555
C36_7 N20_7 1_555 1_555
C36_7 N21_7 1_555 1_555
C31_8 H21_8 1_555 1_555
C32_8 C31_8 1_555 1_555
H22_8 C32_8 1_555 1_555
C33_8 C32_8 1_555 1_555
C34_8 C33_8 1_555 1_555
H23_8 C34_8 1_555 1_555
C35_8 C34_8 1_555 1_555
H24_8 C35_8 1_555 1_555
C36_8 C33_8 1_555 1_555
Cu6_7 N18_8 1_555 1_555
N18_8 C31_8 1_555 1_555
C35_8 N18_8 1_555 1_555
C36_8 N20_8 1_555 1_555
C36_8 N21_8 1_555 1_555
Br1_8 Cu4_8 1_555 1_555
S2_8 Cu4_8 1_555 1_555
Cu6_7 S2_8 1_555 1_555
S3_8 W1_11 1_555 1_555
S2_8 W1_11 1_555 1_555
Cu6_7 S3_8 1_555 1_555
W1_12 S1_8 1_555 1_555
Br2_8 Cu4_7 1_555 1_555
S4_8 Cu6_8 1_555 1_555
Cu6_8 S1_8 1_555 1_555
W1_12 S4_8 1_555 1_555
Cu4_7 S4_8 1_555 1_555
H10_7 C14_7 1_555 1_555
C15_7 C14_7 1_555 1_555
C16_7 C15_7 1_555 1_555
H11_7 C16_7 1_555 1_555
C18_7 C15_7 1_555 1_555
N8_7 C18_7 1_555 1_555
N9_7 C18_7 1_555 1_555
H10_8 C14_8 1_555 1_555
C15_8 C14_8 1_555 1_555
C16_8 C15_8 1_555 1_555
H11_8 C16_8 1_555 1_555
C18_8 C15_8 1_555 1_555
N8_8 C18_8 1_555 1_555
N9_8 C18_8 1_555 1_555

#END
