
###############################################################################
#
# This file contains modified crystal structure data generated from the
# MOF subset of the Cambridge Structural Database (CSD) v543 
# hosted by the Cambridge Crystallographic Data Centre (CCDC).
#
# This work is licensed under the Creative Commons
# Attribution-NonCommercial-ShareAlike 4.0 International License.
# To view a copy of this license, visit
# http://creativecommons.org/licenses/by-nc-sa/4.0/
# or send a letter to
# Creative Commons, PO Box 1866, Mountain View, CA 94042, USA.
#
# CIF created using the CSD Python API on 29 September 2022
# The structure has been converted into the P1 space group
# The structure has a 3D framework
# The original CSD entry SATBIA is in the monoclinic crystal system
# The framework has been calculated to contain at least 10.0% void space
# The void calculation uses a probe of radius 1.32A, grid spacing 0.4
# The framework is charged, counterions have been retained in the structure
#
###############################################################################

data_SATBIA
_chemical_formula_moiety         '(C96 H80 Cu10 I8 N32 S6 W1 1-)n'
_symmetry_cell_setting           triclinic
_symmetry_space_group_name_H-M   'P 1'
_symmetry_Int_Tables_number      1
_space_group_name_Hall           'P 1'
loop_
_symmetry_equiv_pos_site_id
_symmetry_equiv_pos_as_xyz
1 x,y,z
_cell_length_a                   12.7204(11)
_cell_length_b                   18.9452(17)
_cell_length_c                   19.4378(18)
_cell_angle_alpha                90
_cell_angle_beta                 101.771(2)
_cell_angle_gamma                90
_cell_volume                     4585.82
loop_
_atom_site_label
_atom_site_type_symbol
_atom_site_fract_x
_atom_site_fract_y
_atom_site_fract_z
C1 C 0.1761(5) 0.5665(4) 0.2888(4)
H1 H 0.2153 0.5420 0.2611
C2 C 0.1054(6) 0.5292(4) 0.3215(4)
H2 H 0.1001 0.4804 0.3164
C3 C 0.0441(5) 0.5635(4) 0.3607(4)
C4 C 0.0592(6) 0.6341(5) 0.3686(4)
H3 H 0.0209 0.6597 0.3962
C5 C 0.1315(6) 0.6681(4) 0.3358(5)
H4 H 0.1407 0.7166 0.3420
N1 N 0.1889(4) 0.6344(3) 0.2957(3)
Cu8 Cu 0.28727(6) 0.68860(4) 0.24364(4)
C37 C 0.1513(6) 0.7532(4) 0.1149(4)
H31 H 0.1757 0.7149 0.0927
C38 C 0.0831(6) 0.7999(4) 0.0751(4)
H32 H 0.0637 0.7936 0.0267
C39 C 0.0433(5) 0.8554(4) 0.1059(4)
C40 C 0.0777(6) 0.8629(4) 0.1767(4)
H33 H 0.0529 0.9002 0.2001
C41 C 0.1492(6) 0.8152(4) 0.2130(4)
H34 H 0.1739 0.8222 0.2609
N15 N 0.1844(4) 0.7599(3) 0.1836(3)
S5 S 0.37579(12) 0.61365(8) 0.18260(9)
S8 S 0.42055(12) 0.74926(8) 0.31865(8)
C13 C 0.8487(6) 0.7532(4) 0.3851(4)
H11 H 0.8243 0.7149 0.4073
C14 C 0.9169(6) 0.7999(4) 0.4249(4)
H12 H 0.9363 0.7936 0.4733
C15 C 0.9567(5) 0.8554(4) 0.3941(4)
C16 C 0.9223(6) 0.8629(4) 0.3233(4)
H13 H 0.9471 0.9002 0.2999
C17 C 0.8508(6) 0.8152(4) 0.2870(4)
H14 H 0.8261 0.8222 0.2391
Cu2 Cu 0.71273(6) 0.68860(4) 0.25636(4)
N5 N 0.8156(4) 0.7599(3) 0.3164(3)
C25 C 0.8239(5) 0.5665(4) 0.2112(4)
H21 H 0.7847 0.5420 0.2389
C26 C 0.8946(6) 0.5292(4) 0.1785(4)
H22 H 0.8999 0.4804 0.1836
C27 C 0.9559(5) 0.5635(4) 0.1393(4)
C28 C 0.9408(6) 0.6341(5) 0.1314(4)
H23 H 0.9791 0.6597 0.1038
C29 C 0.8685(6) 0.6681(4) 0.1642(5)
H24 H 0.8593 0.7166 0.1580
Cu6 Cu 0.53620(6) 0.67242(4) 0.39223(4)
N9 N 0.8111(4) 0.6344(3) 0.2043(3)
S3 S 0.62421(12) 0.61365(8) 0.31740(9)
S7 S 0.57945(12) 0.74926(8) 0.18135(8)
W2 W 0.5000 0.679730(17) 0.2500
Cu6_2 Cu 0.46380(6) 0.67242(4) 0.10777(4)
C32 C 0.7010(5) 0.5131(4) 0.0141(3)
C33 C 0.6409(5) 0.4876(4) 0.0585(4)
H27 H 0.6439 0.4400 0.0703
C34 C 0.5753(5) 0.5327(4) 0.0858(3)
H28 H 0.5345 0.5140 0.1160
C35 C 0.6255(7) 0.6247(4) 0.0279(5)
H29 H 0.6202 0.6723 0.0161
N13 N 0.5668(4) 0.5999(3) 0.0719(3)
C42 C 0.0326(6) 0.0936(4) 0.9331(5)
H35 H 0.0584 0.0576 0.9085
N16 N 0.0636(5) 0.0967(3) 0.9979(4)
C6 C 0.0335(5) 0.4744(4) 0.6081(4)
H5 H 0.0372 0.5233 0.6131
C7 C 0.2235(5) 0.4680(4) 0.5149(4)
H6 H 0.2218 0.4196 0.5071
C8 C 0.2990(5) 0.5131(4) 0.4859(3)
C9 C 0.3591(5) 0.4876(4) 0.4415(4)
H7 H 0.3561 0.4400 0.4297
C10 C 0.4247(5) 0.5327(4) 0.4142(3)
H8 H 0.4655 0.5140 0.3840
C11 C 0.3745(7) 0.6247(4) 0.4721(5)
H9 H 0.3798 0.6723 0.4839
C12 C 0.3074(6) 0.5835(5) 0.5005(5)
H10 H 0.2668 0.6035 0.5302
C20 C 0.7531(5) 0.9918(4) 0.3753(4)
C21 C 0.7180(7) 0.9928(4) 0.3045(4)
C22 C 0.6469(7) 0.9454(4) 0.2719(4)
H18 H 0.6244 0.9484 0.2234
C23 C 0.6409(6) 0.8903(4) 0.3739(4)
H19 H 0.6163 0.8538 0.3983
C24 C 0.7114(6) 0.9381(4) 0.4115(4)
H20 H 0.7311 0.9347 0.4602
Cu3 Cu 0.5000 0.82243(5) 0.2500
I1 I 0.64049(4) 0.72753(3) 0.50499(3)
N2 N 0.0957(5) 0.4451(3) 0.5748(4)
N3 N 0.1619(5) 0.4953(3) 0.5499(3)
N4 N 0.4332(4) 0.5999(3) 0.4281(3)
N8 N 0.6065(4) 0.8933(3) 0.3062(3)
C44 C 0.2469(5) 0.9918(4) 0.1247(4)
C45 C 0.2820(7) 0.9928(4) 0.1955(4)
C46 C 0.3531(7) 0.9454(4) 0.2281(4)
H38 H 0.3756 0.9484 0.2766
C47 C 0.3591(6) 0.8903(4) 0.1261(4)
H39 H 0.3837 0.8538 0.1017
C48 C 0.2886(6) 0.9381(4) 0.0885(4)
H40 H 0.2689 0.9347 0.0398
N18 N 0.3935(4) 0.8933(3) 0.1938(3)
I2 I 0.64049(4) 0.27247(3) 0.00499(3)
C18 C 0.0326(6) 0.9064(4) 0.4331(5)
H15 H 0.0584 0.9424 0.4085
C19 C 0.1679(6) 0.9583(4) 0.5876(5)
H16 H 0.1382 0.9253 0.6135
H17 H 0.2562 0.9728 0.7219
N6 N 0.0636(5) 0.9033(3) 0.4979(4)
N7 N 0.1391(5) 0.9584(3) 0.5229(4)
C30 C 0.0335(5) 0.5256(4) 0.1081(4)
H25 H 0.0372 0.4767 0.1131
C31 C 0.2235(5) 0.5320(4) 0.0149(4)
H26 H 0.2218 0.5804 0.0071
C36 C 0.3074(6) 0.4165(5) 0.0005(5)
H30 H 0.2668 0.3965 0.0302
C43 C 0.8321(6) 0.9583(4) 0.9124(5)
H36 H 0.8618 0.9253 0.8865
H37 H 0.7438 0.9728 0.7781
N11 N 0.0957(5) 0.5549(3) 0.0748(4)
N12 N 0.1619(5) 0.5047(3) 0.0499(3)
N17 N 0.8609(5) 0.9584(3) 0.9771(4)
C6_2 C 0.9665(5) 0.5256(4) 0.3919(4)
H5_2 H 0.9628 0.4767 0.3869
C7_2 C 0.7765(5) 0.5320(4) 0.4851(4)
H6_2 H 0.7782 0.5804 0.4929
C8_2 C 0.7010(5) 0.4869(4) 0.5141(3)
C9_2 C 0.6409(5) 0.5124(4) 0.5585(4)
H7_2 H 0.6439 0.5600 0.5703
C10_2 C 0.5753(5) 0.4673(4) 0.5858(3)
H8_2 H 0.5345 0.4860 0.6160
C11_2 C 0.6255(7) 0.3753(4) 0.5279(5)
H9_2 H 0.6202 0.3277 0.5161
C12_2 C 0.6926(6) 0.4165(5) 0.4995(5)
H10_2 H 0.7332 0.3965 0.4698
C20_2 C 0.2469(5) 0.0082(4) 0.6247(4)
C21_2 C 0.2820(7) 0.0072(4) 0.6955(4)
C22_2 C 0.3531(7) 0.0546(4) 0.7281(4)
H18_2 H 0.3756 0.0516 0.7766
C23_2 C 0.3591(6) 0.1097(4) 0.6261(4)
H19_2 H 0.3837 0.1462 0.6017
C24_2 C 0.2886(6) 0.0619(4) 0.5885(4)
H20_2 H 0.2689 0.0653 0.5398
Cu1 Cu 0.46380(6) 0.32758(4) 0.60777(4)
Cu3_2 Cu 0.5000 0.17757(5) 0.7500
I1_2 I 0.35951(4) 0.27247(3) 0.49501(3)
N2_2 N 0.9043(5) 0.5549(3) 0.4252(4)
N3_2 N 0.8381(5) 0.5047(3) 0.4501(3)
N4_2 N 0.5668(4) 0.4001(3) 0.5719(3)
N8_2 N 0.3935(4) 0.1067(3) 0.6938(3)
S1 S 0.37579(12) 0.38635(8) 0.68260(9)
S2 S 0.57945(12) 0.25074(8) 0.68135(8)
W1 W 0.5000 0.320270(17) 0.7500
C44_2 C 0.7531(5) 0.0082(4) 0.8753(4)
C45_2 C 0.7180(7) 0.0072(4) 0.8045(4)
C46_2 C 0.6469(7) 0.0546(4) 0.7719(4)
H38_2 H 0.6244 0.0516 0.7234
C47_2 C 0.6409(6) 0.1097(4) 0.8739(4)
H39_2 H 0.6163 0.1462 0.8983
C48_2 C 0.7114(6) 0.0619(4) 0.9115(4)
H40_2 H 0.7311 0.0653 0.9602
Cu4 Cu 0.53620(6) 0.32758(4) 0.89223(4)
Cu9 Cu 0.28727(6) 0.31140(4) 0.74364(4)
Cu10 Cu 0.71273(6) 0.31140(4) 0.75636(4)
N14 N 0.4332(4) 0.4001(3) 0.9281(3)
N18_2 N 0.6065(4) 0.1067(3) 0.8062(3)
S4 S 0.62421(12) 0.38635(8) 0.81740(9)
S6 S 0.42055(12) 0.25074(8) 0.81865(8)
C42_2 C 0.9674(6) 0.9064(4) 0.0669(5)
H35_2 H 0.9416 0.9424 0.0915
N16_2 N 0.9364(5) 0.9033(3) 0.0021(4)
C32_2 C 0.2990(5) 0.4869(4) 0.9859(3)
C33_2 C 0.3591(5) 0.5124(4) 0.9415(4)
H27_2 H 0.3561 0.5600 0.9297
C34_2 C 0.4247(5) 0.4673(4) 0.9142(3)
H28_2 H 0.4655 0.4860 0.8840
C35_2 C 0.3745(7) 0.3753(4) 0.9721(5)
H29_2 H 0.3798 0.3277 0.9839
C13_2 C 0.1513(6) 0.2468(4) 0.6149(4)
H11_2 H 0.1757 0.2851 0.5927
C14_2 C 0.0831(6) 0.2001(4) 0.5751(4)
H12_2 H 0.0637 0.2064 0.5267
C15_2 C 0.0433(5) 0.1446(4) 0.6059(4)
C16_2 C 0.0777(6) 0.1371(4) 0.6767(4)
H13_2 H 0.0529 0.0998 0.7001
C17_2 C 0.1492(6) 0.1848(4) 0.7130(4)
H14_2 H 0.1739 0.1778 0.7609
N5_2 N 0.1844(4) 0.2401(3) 0.6836(3)
C25_2 C 0.1761(5) 0.4335(4) 0.7888(4)
H21_2 H 0.2153 0.4580 0.7611
C26_2 C 0.1054(6) 0.4708(4) 0.8215(4)
H22_2 H 0.1001 0.5196 0.8164
C27_2 C 0.0441(5) 0.4365(4) 0.8607(4)
C28_2 C 0.0592(6) 0.3659(5) 0.8686(4)
H23_2 H 0.0209 0.3403 0.8962
C29_2 C 0.1315(6) 0.3319(4) 0.8358(5)
H24_2 H 0.1407 0.2834 0.8420
N9_2 N 0.1889(4) 0.3656(3) 0.7957(3)
C37_2 C 0.8487(6) 0.2468(4) 0.8851(4)
H31_2 H 0.8243 0.2851 0.9073
C38_2 C 0.9169(6) 0.2001(4) 0.9249(4)
H32_2 H 0.9363 0.2064 0.9733
C39_2 C 0.9567(5) 0.1446(4) 0.8941(4)
C40_2 C 0.9223(6) 0.1371(4) 0.8233(4)
H33_2 H 0.9471 0.0998 0.7999
C41_2 C 0.8508(6) 0.1848(4) 0.7870(4)
H34_2 H 0.8261 0.1778 0.7391
N10 N 0.8111(4) 0.3656(3) 0.7043(3)
N15_2 N 0.8156(4) 0.2401(3) 0.8164(3)
C1_2 C 0.8239(5) 0.4335(4) 0.7112(4)
H1_2 H 0.7847 0.4580 0.7389
C2_2 C 0.8946(6) 0.4708(4) 0.6785(4)
H2_2 H 0.8999 0.5196 0.6836
C3_2 C 0.9559(5) 0.4365(4) 0.6393(4)
C4_2 C 0.9408(6) 0.3659(5) 0.6314(4)
H3_2 H 0.9791 0.3403 0.6038
C5_2 C 0.8685(6) 0.3319(4) 0.6642(5)
H4_2 H 0.8593 0.2834 0.6580
C18_2 C 0.9674(6) 0.0936(4) 0.5669(5)
H15_2 H 0.9416 0.0576 0.5915
C19_2 C 0.8321(6) 0.0417(4) 0.4124(5)
H16_2 H 0.8618 0.0747 0.3865
H17_2 H 0.7438 0.0272 0.2781
N6_2 N 0.9364(5) 0.0967(3) 0.5021(4)
N7_2 N 0.8609(5) 0.0416(3) 0.4771(4)
C30_2 C 0.9665(5) 0.4744(4) 0.8919(4)
H25_2 H 0.9628 0.5233 0.8869
C31_2 C 0.7765(5) 0.4680(4) 0.9851(4)
H26_2 H 0.7782 0.4196 0.9929
C36_2 C 0.6926(6) 0.5835(5) 0.9995(5)
H30_2 H 0.7332 0.6035 0.9698
C43_2 C 0.1679(6) 0.0417(4) 0.0876(5)
H36_2 H 0.1382 0.0747 0.1135
H37_2 H 0.2562 0.0272 0.2219
N11_2 N 0.9043(5) 0.4451(3) 0.9252(4)
N12_2 N 0.8381(5) 0.4953(3) 0.9501(3)
N17_2 N 0.1391(5) 0.0416(3) 0.0229(4)
I2_2 I 0.35951(4) 0.72753(3) 0.99501(3)
I3 I 0.0000 0.05027(6) 0.2500
I3_2 I 1.0000 0.05027(6) 0.2500
I3_3 I 0.0000 0.94973(6) 0.7500
I3_4 I 1.0000 0.94973(6) 0.7500
loop_
_geom_bond_atom_site_label_1
_geom_bond_atom_site_label_2
_geom_bond_site_symmetry_1
_geom_bond_site_symmetry_2
C1 H1 1_555 1_555
C2 C1 1_555 1_555
H2 C2 1_555 1_555
C3 C2 1_555 1_555
C4 C3 1_555 1_555
H3 C4 1_555 1_555
C5 C4 1_555 1_555
H4 C5 1_555 1_555
N1 C1 1_555 1_555
Cu8 N1 1_555 1_555
C5 N1 1_555 1_555
C37 H31 1_555 1_555
C38 C37 1_555 1_555
H32 C38 1_555 1_555
C39 C38 1_555 1_555
C40 C39 1_555 1_555
H33 C40 1_555 1_555
C41 C40 1_555 1_555
H34 C41 1_555 1_555
N15 C37 1_555 1_555
S5 Cu8 1_555 1_555
S8 Cu8 1_555 1_555
C41 N15 1_555 1_555
Cu8 N15 1_555 1_555
C13 H11 1_555 1_555
C14 C13 1_555 1_555
H12 C14 1_555 1_555
C15 C14 1_555 1_555
C16 C15 1_555 1_555
H13 C16 1_555 1_555
C17 C16 1_555 1_555
H14 C17 1_555 1_555
Cu2 N5 1_555 1_555
N5 C13 1_555 1_555
C25 H21 1_555 1_555
C26 C25 1_555 1_555
H22 C26 1_555 1_555
C27 C26 1_555 1_555
C28 C27 1_555 1_555
H23 C28 1_555 1_555
C29 C28 1_555 1_555
H24 C29 1_555 1_555
Cu6 S3 1_555 1_555
N9 Cu2 1_555 1_555
S3 Cu2 1_555 1_555
S7 Cu2 1_555 1_555
W2 S3 1_555 1_555
C17 N5 1_555 1_555
C25 N9 1_555 1_555
C29 N9 1_555 1_555
S7 W2 1_555 1_555
Cu6_2 S5 1_555 1_555
W2 S5 1_555 1_555
S8 W2 1_555 1_555
C33 C32 1_555 1_555
H27 C33 1_555 1_555
C34 C33 1_555 1_555
H28 C34 1_555 1_555
C35 H29 1_555 1_555
Cu6_2 N13 1_555 1_555
N13 C34 1_555 1_555
C35 N13 1_555 1_555
H35 C42 1_555 1_555
N16 C42 1_555 1_555
H5 C6 1_555 1_555
C7 H6 1_555 1_555
C8 C7 1_555 1_555
C9 C8 1_555 1_555
H7 C9 1_555 1_555
C10 C9 1_555 1_555
H8 C10 1_555 1_555
C11 H9 1_555 1_555
C12 C8 1_555 1_555
H10 C12 1_555 1_555
C21 C20 1_555 1_555
C22 C21 1_555 1_555
H18 C22 1_555 1_555
C23 H19 1_555 1_555
C24 C20 1_555 1_555
H20 C24 1_555 1_555
Cu6 I1 1_555 1_555
Cu3 N8 1_555 1_555
N2 C6 1_555 1_555
N3 C7 1_555 1_555
N4 C10 1_555 1_555
N8 C22 1_555 1_555
S8 Cu6 1_555 1_555
C45 C44 1_555 1_555
C46 C45 1_555 1_555
H38 C46 1_555 1_555
C47 H39 1_555 1_555
C48 C44 1_555 1_555
H40 C48 1_555 1_555
N18 Cu3 1_555 1_555
S7 Cu3 1_555 1_555
C11 C12 1_555 1_555
C11 N4 1_555 1_555
C23 C24 1_555 1_555
C23 N8 1_555 1_555
Cu6 N4 1_555 1_555
Cu3 S8 1_555 1_555
N2 N3 1_555 1_555
C46 N18 1_555 1_555
C47 C48 1_555 1_555
C47 N18 1_555 1_555
Cu6_2 S7 1_555 1_555
H15 C18 1_555 1_555
C19 H16 1_555 1_555
N6 C18 1_555 1_555
N7 C19 1_555 1_555
H25 C30 1_555 1_555
C31 H26 1_555 1_555
H30 C36 1_555 1_555
C43 H36 1_555 1_555
N11 C30 1_555 1_555
N12 C31 1_555 1_555
N17 C43 1_555 1_555
N6 N7 1_555 1_555
N11 N12 1_555 1_555
H5_2 C6_2 1_555 1_555
C7_2 H6_2 1_555 1_555
C8_2 C7_2 1_555 1_555
C9_2 C8_2 1_555 1_555
H7_2 C9_2 1_555 1_555
C10_2 C9_2 1_555 1_555
H8_2 C10_2 1_555 1_555
C11_2 H9_2 1_555 1_555
C12_2 C8_2 1_555 1_555
H10_2 C12_2 1_555 1_555
C21_2 C20_2 1_555 1_555
C22_2 C21_2 1_555 1_555
H18_2 C22_2 1_555 1_555
C23_2 H19_2 1_555 1_555
C24_2 C20_2 1_555 1_555
H20_2 C24_2 1_555 1_555
Cu1 I1_2 1_555 1_555
Cu3_2 N8_2 1_555 1_555
N2_2 C6_2 1_555 1_555
N3_2 C7_2 1_555 1_555
N4_2 C10_2 1_555 1_555
N8_2 C22_2 1_555 1_555
S1 Cu1 1_555 1_555
S2 Cu1 1_555 1_555
W1 S1 1_555 1_555
C45_2 C44_2 1_555 1_555
C46_2 C45_2 1_555 1_555
H38_2 C46_2 1_555 1_555
C47_2 H39_2 1_555 1_555
C48_2 C44_2 1_555 1_555
H40_2 C48_2 1_555 1_555
Cu9 S1 1_555 1_555
Cu10 S2 1_555 1_555
N14 Cu4 1_555 1_555
N18_2 Cu3_2 1_555 1_555
S4 W1 1_555 1_555
S6 Cu3_2 1_555 1_555
C11_2 C12_2 1_555 1_555
C11_2 N4_2 1_555 1_555
C23_2 C24_2 1_555 1_555
C23_2 N8_2 1_555 1_555
Cu1 N4_2 1_555 1_555
Cu3_2 S2 1_555 1_555
N2_2 N3_2 1_555 1_555
S2 W1 1_555 1_555
W1 S6 1_555 1_555
C46_2 N18_2 1_555 1_555
C47_2 C48_2 1_555 1_555
C47_2 N18_2 1_555 1_555
Cu4 S4 1_555 1_555
Cu4 S6 1_555 1_555
Cu9 S6 1_555 1_555
Cu10 S4 1_555 1_555
H35_2 C42_2 1_555 1_555
N16_2 C42_2 1_555 1_555
C33_2 C32_2 1_555 1_555
H27_2 C33_2 1_555 1_555
C34_2 C33_2 1_555 1_555
H28_2 C34_2 1_555 1_555
C35_2 H29_2 1_555 1_555
N14 C34_2 1_555 1_555
C35_2 N14 1_555 1_555
C13_2 H11_2 1_555 1_555
C14_2 C13_2 1_555 1_555
H12_2 C14_2 1_555 1_555
C15_2 C14_2 1_555 1_555
C16_2 C15_2 1_555 1_555
H13_2 C16_2 1_555 1_555
C17_2 C16_2 1_555 1_555
H14_2 C17_2 1_555 1_555
Cu9 N5_2 1_555 1_555
N5_2 C13_2 1_555 1_555
C25_2 H21_2 1_555 1_555
C26_2 C25_2 1_555 1_555
H22_2 C26_2 1_555 1_555
C27_2 C26_2 1_555 1_555
C28_2 C27_2 1_555 1_555
H23_2 C28_2 1_555 1_555
C29_2 C28_2 1_555 1_555
H24_2 C29_2 1_555 1_555
N9_2 Cu9 1_555 1_555
C17_2 N5_2 1_555 1_555
C25_2 N9_2 1_555 1_555
C29_2 N9_2 1_555 1_555
C37_2 H31_2 1_555 1_555
C38_2 C37_2 1_555 1_555
H32_2 C38_2 1_555 1_555
C39_2 C38_2 1_555 1_555
C40_2 C39_2 1_555 1_555
H33_2 C40_2 1_555 1_555
C41_2 C40_2 1_555 1_555
H34_2 C41_2 1_555 1_555
Cu10 N10 1_555 1_555
N15_2 C37_2 1_555 1_555
C41_2 N15_2 1_555 1_555
Cu10 N15_2 1_555 1_555
C1_2 H1_2 1_555 1_555
C2_2 C1_2 1_555 1_555
H2_2 C2_2 1_555 1_555
C3_2 C2_2 1_555 1_555
C4_2 C3_2 1_555 1_555
H3_2 C4_2 1_555 1_555
C5_2 C4_2 1_555 1_555
H4_2 C5_2 1_555 1_555
N10 C1_2 1_555 1_555
C5_2 N10 1_555 1_555
H15_2 C18_2 1_555 1_555
C19_2 H16_2 1_555 1_555
N6_2 C18_2 1_555 1_555
N7_2 C19_2 1_555 1_555
H25_2 C30_2 1_555 1_555
C31_2 H26_2 1_555 1_555
H30_2 C36_2 1_555 1_555
C43_2 H36_2 1_555 1_555
N11_2 C30_2 1_555 1_555
N12_2 C31_2 1_555 1_555
N17_2 C43_2 1_555 1_555
N6_2 N7_2 1_555 1_555
N11_2 N12_2 1_555 1_555

#END
