
###############################################################################
#
# This file contains modified crystal structure data generated from the
# MOF subset of the Cambridge Structural Database (CSD) v543 
# hosted by the Cambridge Crystallographic Data Centre (CCDC).
#
# This work is licensed under the Creative Commons
# Attribution-NonCommercial-ShareAlike 4.0 International License.
# To view a copy of this license, visit
# http://creativecommons.org/licenses/by-nc-sa/4.0/
# or send a letter to
# Creative Commons, PO Box 1866, Mountain View, CA 94042, USA.
#
# CIF created using the CSD Python API on 29 September 2022
# The structure has been converted into the P1 space group
# The structure has a 3D framework
# The original CSD entry SATCAT is in the orthorhombic crystal system
# The framework has been calculated to contain at least 10.0% void space
# The void calculation uses a probe of radius 1.32A, grid spacing 0.4
#
###############################################################################

data_SATCAT
_chemical_formula_moiety         '(C288 H192 Cu32 I16 N144 S32 W12)n'
_symmetry_cell_setting           triclinic
_symmetry_space_group_name_H-M   'P 1'
_symmetry_Int_Tables_number      1
_space_group_name_Hall           'P 1'
loop_
_symmetry_equiv_pos_site_id
_symmetry_equiv_pos_as_xyz
1 x,y,z
_cell_length_a                   26.589(7)
_cell_length_b                   31.767(8)
_cell_length_c                   13.739(3)
_cell_angle_alpha                90
_cell_angle_beta                 90
_cell_angle_gamma                90
_cell_volume                     11604.7
loop_
_atom_site_label
_atom_site_type_symbol
_atom_site_fract_x
_atom_site_fract_y
_atom_site_fract_z
C14 C 0.5912(3) 0.5428(3) 0.0796(6)
H10 H 0.5871 0.5199 0.1208
C15 C 0.5659(3) 0.5781(3) 0.0950(6)
C16 C 0.5697(3) 0.6132(2) 0.0323(6)
H11 H 0.5504 0.6371 0.0431
C18 C 0.5356(4) 0.5798(3) 0.1778(5)
N8 N 0.5156(3) 0.5432(2) 0.2097(5)
N9 N 0.5161(2) 0.61855(19) 0.2102(4)
C31 C 0.3744(3) 0.5404(2) 0.5023(6)
H21 H 0.3565 0.5159 0.5150
C32 C 0.4088(3) 0.5428(3) 0.4204(6)
H22 H 0.4129 0.5199 0.3792
C33 C 0.4341(3) 0.5781(3) 0.4050(6)
C34 C 0.4303(3) 0.6132(2) 0.4677(6)
H23 H 0.4496 0.6371 0.4569
C35 C 0.3962(3) 0.6111(2) 0.5483(6)
H24 H 0.3928 0.6338 0.5908
C36 C 0.4644(4) 0.5798(3) 0.3222(5)
Cu7 Cu 0.31275(3) 0.56627(3) 0.66965(7)
N18 N 0.3690(2) 0.57577(19) 0.5614(4)
N20 N 0.4844(3) 0.5432(2) 0.2903(5)
N21 N 0.4839(2) 0.61855(19) 0.2898(4)
C31_2 C 0.1256(3) 0.4596(2) 0.5023(6)
H21_2 H 0.1435 0.4841 0.5150
C32_2 C 0.0912(3) 0.4572(3) 0.4204(6)
H22_2 H 0.0871 0.4801 0.3792
C33_2 C 0.0659(3) 0.4219(3) 0.4050(6)
C34_2 C 0.0697(3) 0.3868(2) 0.4677(6)
H23_2 H 0.0504 0.3629 0.4569
C35_2 C 0.1038(3) 0.3889(2) 0.5483(6)
H24_2 H 0.1072 0.3662 0.5908
C36_2 C 0.0356(4) 0.4202(3) 0.3222(5)
Cu7_2 Cu 0.18725(3) 0.43373(3) 0.66965(7)
N18_2 N 0.1310(2) 0.42423(19) 0.5614(4)
N20_2 N 0.0156(3) 0.4568(2) 0.2903(5)
N21_2 N 0.0161(2) 0.38145(19) 0.2898(4)
C1 C 0.3045(3) 0.3972(2) 0.8484(5)
H1 H 0.2913 0.4227 0.8697
C2 C 0.3006(3) 0.3602(2) 0.9059(6)
H2 H 0.2833 0.3606 0.9647
C3 C 0.3223(3) 0.3243(2) 0.8738(6)
C4 C 0.3458(3) 0.3203(2) 0.7853(6)
H3 H 0.3582 0.2944 0.7648
C5 C 0.3508(3) 0.3557(2) 0.7273(6)
H4 H 0.3683 0.3540 0.6689
C6 C 0.3223(3) 0.2874(3) 0.9355(7)
Cu1 Cu 0.32806(4) 0.44530(3) 0.66124(7)
I1 I 0.408984(19) 0.432901(16) 0.56355(3)
N1 N 0.3296(2) 0.39383(16) 0.7564(5)
N2 N 0.3396(2) 0.24994(18) 0.9073(5)
N3 N 0.3342(2) 0.2136(2) 0.9664(5)
S1 S 0.31758(7) 0.50518(6) 0.75454(15)
S2 S 0.25691(6) 0.44246(6) 0.57121(14)
W1 W 0.2500 0.5000 0.66169(3)
C25 C 0.3120(3) 0.7177(3) 0.9467(6)
C26 C 0.3154(2) 0.6847(2) 0.8816(5)
C27 C 0.2983(3) 0.6873(2) 0.7866(6)
H17 H 0.2865 0.7131 0.7644
C28 C 0.2978(3) 0.6542(2) 0.7241(6)
H18 H 0.2857 0.6574 0.6610
C29 C 0.3319(3) 0.6112(3) 0.8524(6)
H19 H 0.3428 0.5852 0.8751
C30 C 0.3316(3) 0.6452(3) 0.9131(5)
H20 H 0.3425 0.6419 0.9771
Cu3 Cu 0.17194(4) 0.55470(3) 0.66124(7)
I2 I 0.091016(19) 0.567099(16) 0.56355(3)
N11 N 0.1704(2) 0.60617(16) 0.7564(5)
N14 N 0.2927(3) 0.7560(2) 0.9138(5)
N15 N 0.2987(3) 0.7919(2) 0.9739(5)
N16 N 0.3156(2) 0.6154(2) 0.7557(5)
N17 N 0.1844(2) 0.3846(2) 0.7557(5)
S3 S 0.18242(7) 0.49482(6) 0.75454(15)
S4 S 0.24309(6) 0.55754(6) 0.57121(14)
C1_2 C 0.1955(3) 0.6028(2) 0.8484(5)
H1_2 H 0.2087 0.5773 0.8697
C2_2 C 0.1994(3) 0.6398(2) 0.9059(6)
H2_2 H 0.2167 0.6394 0.9647
C3_2 C 0.1777(3) 0.6757(2) 0.8738(6)
C4_2 C 0.1542(3) 0.6797(2) 0.7853(6)
H3_2 H 0.1418 0.7056 0.7648
C5_2 C 0.1492(3) 0.6443(2) 0.7273(6)
H4_2 H 0.1317 0.6460 0.6689
C6_2 C 0.1777(3) 0.7126(3) 0.9355(7)
N2_2 N 0.1604(2) 0.75006(18) 0.9073(5)
N3_2 N 0.1658(2) 0.7864(2) 0.9664(5)
C25_2 C 0.1880(3) 0.2823(3) 0.9467(6)
C26_2 C 0.1846(2) 0.3153(2) 0.8816(5)
C27_2 C 0.2017(3) 0.3127(2) 0.7866(6)
H17_2 H 0.2135 0.2869 0.7644
C28_2 C 0.2022(3) 0.3458(2) 0.7241(6)
H18_2 H 0.2143 0.3426 0.6610
C29_2 C 0.1681(3) 0.3888(3) 0.8524(6)
H19_2 H 0.1572 0.4148 0.8751
C30_2 C 0.1684(3) 0.3548(3) 0.9131(5)
H20_2 H 0.1575 0.3581 0.9771
N14_2 N 0.2073(3) 0.2440(2) 0.9138(5)
N15_2 N 0.2013(3) 0.2081(2) 0.9739(5)
C1_3 C 0.6955(3) 0.3972(2) 0.6516(5)
H1_3 H 0.7087 0.4227 0.6303
C2_3 C 0.6994(3) 0.3602(2) 0.5941(6)
H2_3 H 0.7167 0.3606 0.5353
C3_3 C 0.6777(3) 0.3243(2) 0.6262(6)
C4_3 C 0.6542(3) 0.3203(2) 0.7147(6)
H3_3 H 0.6418 0.2944 0.7352
C5_3 C 0.6492(3) 0.3557(2) 0.7727(6)
H4_3 H 0.6317 0.3540 0.8311
C6_3 C 0.6777(3) 0.2874(3) 0.5645(7)
C7 C 0.6880(3) 0.2177(3) 0.4467(6)
C8 C 0.6846(2) 0.1847(2) 0.3816(5)
C9 C 0.7017(3) 0.1873(2) 0.2866(6)
H5 H 0.7135 0.2131 0.2644
C10 C 0.7022(3) 0.1542(2) 0.2241(6)
H6 H 0.7143 0.1574 0.1610
C11 C 0.6681(3) 0.1112(3) 0.3524(6)
H7 H 0.6572 0.0852 0.3751
C12 C 0.6684(3) 0.1452(3) 0.4131(5)
H8 H 0.6575 0.1419 0.4771
C13 C 0.6256(3) 0.5404(2) 0.9977(6)
H9 H 0.6435 0.5159 0.9850
C17 C 0.6038(3) 0.6111(2) 0.9517(6)
H12 H 0.6072 0.6338 0.9092
Cu1_2 Cu 0.67194(4) 0.44530(3) 0.83876(7)
Cu2 Cu 0.68725(3) 0.56627(3) 0.83035(7)
I1_2 I 0.591016(19) 0.432901(16) 0.93645(3)
N1_2 N 0.6704(2) 0.39383(16) 0.7436(5)
N2_3 N 0.6604(2) 0.24994(18) 0.5927(5)
N3_3 N 0.6658(2) 0.2136(2) 0.5336(5)
N4 N 0.7073(3) 0.2560(2) 0.4138(5)
N5 N 0.7013(3) 0.2919(2) 0.4739(5)
N6 N 0.6844(2) 0.1154(2) 0.2557(5)
N7 N 0.6310(2) 0.57577(19) 0.9386(4)
S1_2 S 0.68242(7) 0.50518(6) 0.74546(15)
S2_2 S 0.74309(6) 0.44246(6) 0.92879(14)
W1_2 W 0.7500 0.5000 0.83831(3)
C19 C 0.6955(3) 0.8972(2) 0.3484(5)
H13 H 0.7087 0.9227 0.3697
C20 C 0.6994(3) 0.8602(2) 0.4059(6)
H14 H 0.7167 0.8606 0.4647
C21 C 0.6777(3) 0.8243(2) 0.3738(6)
C22 C 0.6542(3) 0.8203(2) 0.2853(6)
H15 H 0.6418 0.7944 0.2648
C23 C 0.6492(3) 0.8557(2) 0.2273(6)
H16 H 0.6317 0.8540 0.1689
C24 C 0.6777(3) 0.7874(3) 0.4355(7)
C25_3 C 0.6880(3) 0.7177(3) 0.5533(6)
C26_3 C 0.6846(2) 0.6847(2) 0.6184(5)
C27_3 C 0.7017(3) 0.6873(2) 0.7134(6)
H17_3 H 0.7135 0.7131 0.7356
C28_3 C 0.7022(3) 0.6542(2) 0.7759(6)
H18_3 H 0.7143 0.6574 0.8390
C29_3 C 0.6681(3) 0.6112(3) 0.6476(6)
H19_3 H 0.6572 0.5852 0.6249
C30_3 C 0.6684(3) 0.6452(3) 0.5869(5)
H20_3 H 0.6575 0.6419 0.5229
Cu3_2 Cu 0.82806(4) 0.55470(3) 0.83876(7)
Cu4 Cu 0.67194(4) 0.94530(3) 0.16124(7)
Cu5 Cu 0.81275(3) 0.43373(3) 0.83035(7)
Cu6 Cu 0.68725(3) 0.06627(3) 0.16965(7)
I2_2 I 0.908984(19) 0.567099(16) 0.93645(3)
N10 N 0.6704(2) 0.89383(16) 0.2564(5)
N11_2 N 0.8296(2) 0.60617(16) 0.7436(5)
N12 N 0.6604(2) 0.74994(18) 0.4073(5)
N13 N 0.6658(2) 0.7136(2) 0.4664(5)
N14_3 N 0.7073(3) 0.7560(2) 0.5862(5)
N15_3 N 0.7013(3) 0.7919(2) 0.5261(5)
N16_2 N 0.6844(2) 0.6154(2) 0.7443(5)
N17_2 N 0.8156(2) 0.3846(2) 0.7443(5)
N19 N 0.8690(2) 0.42423(19) 0.9386(4)
S3_2 S 0.81758(7) 0.49482(6) 0.74546(15)
S4_2 S 0.75691(6) 0.55754(6) 0.92879(14)
C1_4 C 0.8045(3) 0.6028(2) 0.6516(5)
H1_4 H 0.7913 0.5773 0.6303
C2_4 C 0.8006(3) 0.6398(2) 0.5941(6)
H2_4 H 0.7833 0.6394 0.5353
C3_4 C 0.8223(3) 0.6757(2) 0.6262(6)
C4_4 C 0.8458(3) 0.6797(2) 0.7147(6)
H3_4 H 0.8582 0.7056 0.7352
C5_4 C 0.8508(3) 0.6443(2) 0.7727(6)
H4_4 H 0.8683 0.6460 0.8311
C6_4 C 0.8223(3) 0.7126(3) 0.5645(7)
C7_2 C 0.8120(3) 0.7823(3) 0.4467(6)
C8_2 C 0.8154(2) 0.8153(2) 0.3816(5)
C9_2 C 0.7983(3) 0.8127(2) 0.2866(6)
H5_2 H 0.7865 0.7869 0.2644
C10_2 C 0.7978(3) 0.8458(2) 0.2241(6)
H6_2 H 0.7857 0.8426 0.1610
C11_2 C 0.8319(3) 0.8888(3) 0.3524(6)
H7_2 H 0.8428 0.9148 0.3751
C12_2 C 0.8316(3) 0.8548(3) 0.4131(5)
H8_2 H 0.8425 0.8581 0.4771
C13_2 C 0.8744(3) 0.4596(2) 0.9977(6)
H9_2 H 0.8565 0.4841 0.9850
C17_2 C 0.8962(3) 0.3889(2) 0.9517(6)
H12_2 H 0.8928 0.3662 0.9092
N2_4 N 0.8396(2) 0.75006(18) 0.5927(5)
N3_4 N 0.8342(2) 0.7864(2) 0.5336(5)
N4_2 N 0.7927(3) 0.7440(2) 0.4138(5)
N5_2 N 0.7987(3) 0.7081(2) 0.4739(5)
N6_2 N 0.8156(2) 0.8846(2) 0.2557(5)
C19_2 C 0.8045(3) 0.1028(2) 0.3484(5)
H13_2 H 0.7913 0.0773 0.3697
C20_2 C 0.8006(3) 0.1398(2) 0.4059(6)
H14_2 H 0.7833 0.1394 0.4647
C21_2 C 0.8223(3) 0.1757(2) 0.3738(6)
C22_2 C 0.8458(3) 0.1797(2) 0.2853(6)
H15_2 H 0.8582 0.2056 0.2648
C23_2 C 0.8508(3) 0.1443(2) 0.2273(6)
H16_2 H 0.8683 0.1460 0.1689
C24_2 C 0.8223(3) 0.2126(3) 0.4355(7)
C25_4 C 0.8120(3) 0.2823(3) 0.5533(6)
C26_4 C 0.8154(2) 0.3153(2) 0.6184(5)
C27_4 C 0.7983(3) 0.3127(2) 0.7134(6)
H17_4 H 0.7865 0.2869 0.7356
C28_4 C 0.7978(3) 0.3458(2) 0.7759(6)
H18_4 H 0.7857 0.3426 0.8390
C29_4 C 0.8319(3) 0.3888(3) 0.6476(6)
H19_4 H 0.8428 0.4148 0.6249
C30_4 C 0.8316(3) 0.3548(3) 0.5869(5)
H20_4 H 0.8425 0.3581 0.5229
Cu4_2 Cu 0.82806(4) 0.05470(3) 0.16124(7)
Cu6_2 Cu 0.81275(3) 0.93373(3) 0.16965(7)
N10_2 N 0.8296(2) 0.10617(16) 0.2564(5)
N12_2 N 0.8396(2) 0.25006(18) 0.4073(5)
N13_2 N 0.8342(2) 0.2864(2) 0.4664(5)
N14_4 N 0.7927(3) 0.2440(2) 0.5862(5)
N15_4 N 0.7987(3) 0.2081(2) 0.5261(5)
I1_3 I 0.908984(19) 0.067099(16) 0.06355(3)
S2_3 S 0.75691(6) 0.05754(6) 0.07121(14)
W1_3 W 0.7500 -0.0000 0.16169(3)
N19_2 N 0.6310(2) 0.07577(19) 0.0614(4)
S3_3 S 0.68242(7) 0.00518(6) 0.25454(15)
C13_3 C 0.8744(3) 0.9596(2) 0.0023(6)
H9_3 H 0.8565 0.9841 0.0150
C17_3 C 0.8962(3) 0.8889(2) 0.0483(6)
H12_3 H 0.8928 0.8662 0.0908
N7_2 N 0.8690(2) 0.92423(19) 0.0614(4)
S1_3 S 0.81758(7) 0.99482(6) 0.25454(15)
W1_4 W 0.7500 1.0000 0.16169(3)
I2_3 I 0.591016(19) 0.932901(16) 0.06355(3)
S4_3 S 0.74309(6) 0.94246(6) 0.07121(14)
C13_4 C 0.6256(3) 0.0404(2) 0.0023(6)
H9_4 H 0.6435 0.0159 0.0150
C17_4 C 0.6038(3) 0.1111(2) 0.0483(6)
H12_4 H 0.6072 0.1338 0.0908
C14_2 C 0.9088(3) 0.4572(3) 0.0796(6)
H10_2 H 0.9129 0.4801 0.1208
C15_2 C 0.9341(3) 0.4219(3) 0.0950(6)
C16_2 C 0.9303(3) 0.3868(2) 0.0323(6)
H11_2 H 0.9496 0.3629 0.0431
C18_2 C 0.9644(4) 0.4202(3) 0.1778(5)
N8_2 N 0.9844(3) 0.4568(2) 0.2097(5)
N9_2 N 0.9839(2) 0.38145(19) 0.2102(4)
C7_3 C 0.3120(3) 0.2177(3) 0.0533(6)
C8_3 C 0.3154(2) 0.1847(2) 0.1184(5)
C9_3 C 0.2983(3) 0.1873(2) 0.2134(6)
H5_3 H 0.2865 0.2131 0.2356
C10_3 C 0.2978(3) 0.1542(2) 0.2759(6)
H6_3 H 0.2857 0.1574 0.3390
C11_3 C 0.3319(3) 0.1112(3) 0.1476(6)
H7_3 H 0.3428 0.0852 0.1249
C12_3 C 0.3316(3) 0.1452(3) 0.0869(5)
H8_3 H 0.3425 0.1419 0.0229
N4_3 N 0.2927(3) 0.2560(2) 0.0862(5)
N5_3 N 0.2987(3) 0.2919(2) 0.0261(5)
N6_3 N 0.3156(2) 0.1154(2) 0.2443(5)
C19_3 C 0.3045(3) 0.8972(2) 0.1516(5)
H13_3 H 0.2913 0.9227 0.1303
C20_3 C 0.3006(3) 0.8602(2) 0.0941(6)
H14_3 H 0.2833 0.8606 0.0353
C21_3 C 0.3223(3) 0.8243(2) 0.1262(6)
C22_3 C 0.3458(3) 0.8203(2) 0.2147(6)
H15_3 H 0.3582 0.7944 0.2352
C23_3 C 0.3508(3) 0.8557(2) 0.2727(6)
H16_3 H 0.3683 0.8540 0.3311
C24_3 C 0.3223(3) 0.7874(3) 0.0645(7)
Cu4_3 Cu 0.32806(4) 0.94530(3) 0.33876(7)
Cu6_3 Cu 0.31275(3) 0.06627(3) 0.33035(7)
N10_3 N 0.3296(2) 0.89383(16) 0.2436(5)
N12_3 N 0.3396(2) 0.74994(18) 0.0927(5)
N13_3 N 0.3342(2) 0.7136(2) 0.0336(5)
C7_4 C 0.1880(3) 0.7823(3) 0.0533(6)
C8_4 C 0.1846(2) 0.8153(2) 0.1184(5)
C9_4 C 0.2017(3) 0.8127(2) 0.2134(6)
H5_4 H 0.2135 0.7869 0.2356
C10_4 C 0.2022(3) 0.8458(2) 0.2759(6)
H6_4 H 0.2143 0.8426 0.3390
C11_4 C 0.1681(3) 0.8888(3) 0.1476(6)
H7_4 H 0.1572 0.9148 0.1249
C12_4 C 0.1684(3) 0.8548(3) 0.0869(5)
H8_4 H 0.1575 0.8581 0.0229
N4_4 N 0.2073(3) 0.7440(2) 0.0862(5)
N5_4 N 0.2013(3) 0.7081(2) 0.0261(5)
N6_4 N 0.1844(2) 0.8846(2) 0.2443(5)
C19_4 C 0.1955(3) 0.1028(2) 0.1516(5)
H13_4 H 0.2087 0.0773 0.1303
C20_4 C 0.1994(3) 0.1398(2) 0.0941(6)
H14_4 H 0.2167 0.1394 0.0353
C21_4 C 0.1777(3) 0.1757(2) 0.1262(6)
C22_4 C 0.1542(3) 0.1797(2) 0.2147(6)
H15_4 H 0.1418 0.2056 0.2352
C23_4 C 0.1492(3) 0.1443(2) 0.2727(6)
H16_4 H 0.1317 0.1460 0.3311
C24_4 C 0.1777(3) 0.2126(3) 0.0645(7)
Cu4_4 Cu 0.17194(4) 0.05470(3) 0.33876(7)
Cu6_4 Cu 0.18725(3) 0.93373(3) 0.33035(7)
N10_4 N 0.1704(2) 0.10617(16) 0.2436(5)
N12_4 N 0.1604(2) 0.25006(18) 0.0927(5)
N13_4 N 0.1658(2) 0.2864(2) 0.0336(5)
C31_3 C 0.1256(3) 0.9596(2) 0.4977(6)
H21_3 H 0.1435 0.9841 0.4850
C32_3 C 0.0912(3) 0.9572(3) 0.5796(6)
H22_3 H 0.0871 0.9801 0.6208
C33_3 C 0.0659(3) 0.9219(3) 0.5950(6)
C34_3 C 0.0697(3) 0.8868(2) 0.5323(6)
H23_3 H 0.0504 0.8629 0.5431
C35_3 C 0.1038(3) 0.8889(2) 0.4517(6)
H24_3 H 0.1072 0.8662 0.4092
C36_3 C 0.0356(4) 0.9202(3) 0.6778(5)
N18_3 N 0.1310(2) 0.92423(19) 0.4386(4)
N20_3 N 0.0156(3) 0.9568(2) 0.7097(5)
N21_3 N 0.0161(2) 0.88145(19) 0.7102(4)
C14_3 C 0.5912(3) 0.0428(3) 0.9204(6)
H10_3 H 0.5871 0.0199 0.8792
C15_3 C 0.5659(3) 0.0781(3) 0.9050(6)
C16_3 C 0.5697(3) 0.1132(2) 0.9677(6)
H11_3 H 0.5504 0.1371 0.9569
C18_3 C 0.5356(4) 0.0798(3) 0.8222(5)
N8_3 N 0.5156(3) 0.0432(2) 0.7903(5)
N9_3 N 0.5161(2) 0.11855(19) 0.7898(4)
C31_4 C 0.3744(3) 0.0404(2) 0.4977(6)
H21_4 H 0.3565 0.0159 0.4850
C32_4 C 0.4088(3) 0.0428(3) 0.5796(6)
H22_4 H 0.4129 0.0199 0.6208
C33_4 C 0.4341(3) 0.0781(3) 0.5950(6)
C34_4 C 0.4303(3) 0.1132(2) 0.5323(6)
H23_4 H 0.4496 0.1371 0.5431
C35_4 C 0.3962(3) 0.1111(2) 0.4517(6)
H24_4 H 0.3928 0.1338 0.4092
C36_4 C 0.4644(4) 0.0798(3) 0.6778(5)
N18_4 N 0.3690(2) 0.07577(19) 0.4386(4)
N20_4 N 0.4844(3) 0.0432(2) 0.7097(5)
N21_4 N 0.4839(2) 0.11855(19) 0.7102(4)
I1_4 I 0.091016(19) 0.067099(16) 0.43645(3)
S2_4 S 0.24309(6) 0.05754(6) 0.42879(14)
W1_5 W 0.2500 -0.0000 0.33831(3)
S3_4 S 0.31758(7) 0.00518(6) 0.24546(15)
S1_4 S 0.18242(7) 0.99482(6) 0.24546(15)
W1_6 W 0.2500 1.0000 0.33831(3)
I2_4 I 0.408984(19) 0.932901(16) 0.43645(3)
S4_4 S 0.25691(6) 0.94246(6) 0.42879(14)
C14_4 C 0.0912(3) 0.0428(3) 0.0796(6)
H10_4 H 0.0871 0.0199 0.1208
C15_4 C 0.0659(3) 0.0781(3) 0.0950(6)
C16_4 C 0.0697(3) 0.1132(2) 0.0323(6)
H11_4 H 0.0504 0.1371 0.0431
C18_4 C 0.0356(4) 0.0798(3) 0.1778(5)
N8_4 N 0.0156(3) 0.0432(2) 0.2097(5)
N9_4 N 0.0161(2) 0.11855(19) 0.2102(4)
C13_5 C 0.1256(3) 0.0404(2) 0.9977(6)
H9_5 H 0.1435 0.0159 0.9850
C17_5 C 0.1038(3) 0.1111(2) 0.9517(6)
H12_5 H 0.1072 0.1338 0.9092
Cu2_2 Cu 0.18725(3) 0.06627(3) 0.83035(7)
N7_3 N 0.1310(2) 0.07577(19) 0.9386(4)
S1_5 S 0.18242(7) 0.00518(6) 0.74546(15)
W1_7 W 0.2500 -0.0000 0.83831(3)
C19_5 C 0.1955(3) 0.3972(2) 0.3484(5)
H13_5 H 0.2087 0.4227 0.3697
C20_5 C 0.1994(3) 0.3602(2) 0.4059(6)
H14_5 H 0.2167 0.3606 0.4647
C21_5 C 0.1777(3) 0.3243(2) 0.3738(6)
C22_5 C 0.1542(3) 0.3203(2) 0.2853(6)
H15_5 H 0.1418 0.2944 0.2648
C23_5 C 0.1492(3) 0.3557(2) 0.2273(6)
H16_5 H 0.1317 0.3540 0.1689
C24_5 C 0.1777(3) 0.2874(3) 0.4355(7)
C25_5 C 0.1880(3) 0.2177(3) 0.5533(6)
C26_5 C 0.1846(2) 0.1847(2) 0.6184(5)
C27_5 C 0.2017(3) 0.1873(2) 0.7134(6)
H17_5 H 0.2135 0.2131 0.7356
C28_5 C 0.2022(3) 0.1542(2) 0.7759(6)
H18_5 H 0.2143 0.1574 0.8390
C29_5 C 0.1681(3) 0.1112(3) 0.6476(6)
H19_5 H 0.1572 0.0852 0.6249
C30_5 C 0.1684(3) 0.1452(3) 0.5869(5)
H20_5 H 0.1575 0.1419 0.5229
Cu3_3 Cu 0.32806(4) 0.05470(3) 0.83876(7)
Cu4_5 Cu 0.17194(4) 0.44530(3) 0.16124(7)
I2_5 I 0.408984(19) 0.067099(16) 0.93645(3)
N10_5 N 0.1704(2) 0.39383(16) 0.2564(5)
N11_3 N 0.3296(2) 0.10617(16) 0.7436(5)
N12_5 N 0.1604(2) 0.24994(18) 0.4073(5)
N13_5 N 0.1658(2) 0.2136(2) 0.4664(5)
N14_5 N 0.2073(3) 0.2560(2) 0.5862(5)
N15_5 N 0.2013(3) 0.2919(2) 0.5261(5)
N16_3 N 0.1844(2) 0.1154(2) 0.7443(5)
S4_5 S 0.25691(6) 0.05754(6) 0.92879(14)
C1_5 C 0.1955(3) 0.8972(2) 0.6516(5)
H1_5 H 0.2087 0.9227 0.6303
C2_5 C 0.1994(3) 0.8602(2) 0.5941(6)
H2_5 H 0.2167 0.8606 0.5353
C3_5 C 0.1777(3) 0.8243(2) 0.6262(6)
C4_5 C 0.1542(3) 0.8203(2) 0.7147(6)
H3_5 H 0.1418 0.7944 0.7352
C5_5 C 0.1492(3) 0.8557(2) 0.7727(6)
H4_5 H 0.1317 0.8540 0.8311
C6_5 C 0.1777(3) 0.7874(3) 0.5645(7)
C7_5 C 0.1880(3) 0.7177(3) 0.4467(6)
C8_5 C 0.1846(2) 0.6847(2) 0.3816(5)
C9_5 C 0.2017(3) 0.6873(2) 0.2866(6)
H5_5 H 0.2135 0.7131 0.2644
C10_5 C 0.2022(3) 0.6542(2) 0.2241(6)
H6_5 H 0.2143 0.6574 0.1610
C11_5 C 0.1681(3) 0.6112(3) 0.3524(6)
H7_5 H 0.1572 0.5852 0.3751
C12_5 C 0.1684(3) 0.6452(3) 0.4131(5)
H8_5 H 0.1575 0.6419 0.4771
Cu1_3 Cu 0.17194(4) 0.94530(3) 0.83876(7)
I1_5 I 0.091016(19) 0.932901(16) 0.93645(3)
N1_3 N 0.1704(2) 0.89383(16) 0.7436(5)
N2_5 N 0.1604(2) 0.74994(18) 0.5927(5)
N3_5 N 0.1658(2) 0.7136(2) 0.5336(5)
N4_5 N 0.2073(3) 0.7560(2) 0.4138(5)
N5_5 N 0.2013(3) 0.7919(2) 0.4739(5)
N6_5 N 0.1844(2) 0.6154(2) 0.2557(5)
S2_5 S 0.24309(6) 0.94246(6) 0.92879(14)
W1_8 W 0.2500 1.0000 0.83831(3)
Cu5_2 Cu 0.31275(3) 0.93373(3) 0.83035(7)
Cu6_5 Cu 0.18725(3) 0.56627(3) 0.16965(7)
N17_3 N 0.3156(2) 0.8846(2) 0.7443(5)
N19_3 N 0.3690(2) 0.92423(19) 0.9386(4)
S3_5 S 0.31758(7) 0.99482(6) 0.74546(15)
C1_6 C 0.3045(3) 0.1028(2) 0.6516(5)
H1_6 H 0.2913 0.0773 0.6303
C2_6 C 0.3006(3) 0.1398(2) 0.5941(6)
H2_6 H 0.2833 0.1394 0.5353
C3_6 C 0.3223(3) 0.1757(2) 0.6262(6)
C4_6 C 0.3458(3) 0.1797(2) 0.7147(6)
H3_6 H 0.3582 0.2056 0.7352
C5_6 C 0.3508(3) 0.1443(2) 0.7727(6)
H4_6 H 0.3683 0.1460 0.8311
C6_6 C 0.3223(3) 0.2126(3) 0.5645(7)
C7_6 C 0.3120(3) 0.2823(3) 0.4467(6)
C8_6 C 0.3154(2) 0.3153(2) 0.3816(5)
C9_6 C 0.2983(3) 0.3127(2) 0.2866(6)
H5_6 H 0.2865 0.2869 0.2644
C10_6 C 0.2978(3) 0.3458(2) 0.2241(6)
H6_6 H 0.2857 0.3426 0.1610
C11_6 C 0.3319(3) 0.3888(3) 0.3524(6)
H7_6 H 0.3428 0.4148 0.3751
C12_6 C 0.3316(3) 0.3548(3) 0.4131(5)
H8_6 H 0.3425 0.3581 0.4771
N2_6 N 0.3396(2) 0.25006(18) 0.5927(5)
N3_6 N 0.3342(2) 0.2864(2) 0.5336(5)
N4_6 N 0.2927(3) 0.2440(2) 0.4138(5)
N5_6 N 0.2987(3) 0.2081(2) 0.4739(5)
N6_6 N 0.3156(2) 0.3846(2) 0.2557(5)
Cu6_6 Cu 0.31275(3) 0.43373(3) 0.16965(7)
C13_6 C 0.3744(3) 0.9596(2) 0.9977(6)
H9_6 H 0.3565 0.9841 0.9850
C17_6 C 0.3962(3) 0.8889(2) 0.9517(6)
H12_6 H 0.3928 0.8662 0.9092
C19_6 C 0.3045(3) 0.6028(2) 0.3484(5)
H13_6 H 0.2913 0.5773 0.3697
C20_6 C 0.3006(3) 0.6398(2) 0.4059(6)
H14_6 H 0.2833 0.6394 0.4647
C21_6 C 0.3223(3) 0.6757(2) 0.3738(6)
C22_6 C 0.3458(3) 0.6797(2) 0.2853(6)
H15_6 H 0.3582 0.7056 0.2648
C23_6 C 0.3508(3) 0.6443(2) 0.2273(6)
H16_6 H 0.3683 0.6460 0.1689
C24_6 C 0.3223(3) 0.7126(3) 0.4355(7)
C25_6 C 0.3120(3) 0.7823(3) 0.5533(6)
C26_6 C 0.3154(2) 0.8153(2) 0.6184(5)
C27_6 C 0.2983(3) 0.8127(2) 0.7134(6)
H17_6 H 0.2865 0.7869 0.7356
C28_6 C 0.2978(3) 0.8458(2) 0.7759(6)
H18_6 H 0.2857 0.8426 0.8390
C29_6 C 0.3319(3) 0.8888(3) 0.6476(6)
H19_6 H 0.3428 0.9148 0.6249
C30_6 C 0.3316(3) 0.8548(3) 0.5869(5)
H20_6 H 0.3425 0.8581 0.5229
Cu4_6 Cu 0.32806(4) 0.55470(3) 0.16124(7)
N10_6 N 0.3296(2) 0.60617(16) 0.2564(5)
N12_6 N 0.3396(2) 0.75006(18) 0.4073(5)
N13_6 N 0.3342(2) 0.7864(2) 0.4664(5)
N14_6 N 0.2927(3) 0.7440(2) 0.5862(5)
N15_6 N 0.2987(3) 0.7081(2) 0.5261(5)
C13_7 C 0.3744(3) 0.4596(2) 0.0023(6)
H9_7 H 0.3565 0.4841 0.0150
C17_7 C 0.3962(3) 0.3889(2) 0.0483(6)
H12_7 H 0.3928 0.3662 0.0908
I1_6 I 0.408984(19) 0.567099(16) 0.06355(3)
N7_4 N 0.3690(2) 0.42423(19) 0.0614(4)
S1_6 S 0.31758(7) 0.49482(6) 0.25454(15)
S2_6 S 0.25691(6) 0.55754(6) 0.07121(14)
W1_9 W 0.2500 0.5000 0.16169(3)
I2_6 I 0.091016(19) 0.432901(16) 0.06355(3)
N19_4 N 0.1310(2) 0.57577(19) 0.0614(4)
S3_6 S 0.18242(7) 0.50518(6) 0.25454(15)
S4_6 S 0.24309(6) 0.44246(6) 0.07121(14)
C13_8 C 0.1256(3) 0.5404(2) 0.0023(6)
H9_8 H 0.1435 0.5159 0.0150
C17_8 C 0.1038(3) 0.6111(2) 0.0483(6)
H12_8 H 0.1072 0.6338 0.0908
C31_5 C 0.8744(3) 0.0404(2) 0.5023(6)
H21_5 H 0.8565 0.0159 0.5150
C32_5 C 0.9088(3) 0.0428(3) 0.4204(6)
H22_5 H 0.9129 0.0199 0.3792
C33_5 C 0.9341(3) 0.0781(3) 0.4050(6)
C34_5 C 0.9303(3) 0.1132(2) 0.4677(6)
H23_5 H 0.9496 0.1371 0.4569
C35_5 C 0.8962(3) 0.1111(2) 0.5483(6)
H24_5 H 0.8928 0.1338 0.5908
C36_5 C 0.9644(4) 0.0798(3) 0.3222(5)
Cu7_3 Cu 0.81275(3) 0.06627(3) 0.66965(7)
N18_5 N 0.8690(2) 0.07577(19) 0.5614(4)
N20_5 N 0.9844(3) 0.0432(2) 0.2903(5)
N21_5 N 0.9839(2) 0.11855(19) 0.2898(4)
C14_5 C 0.4088(3) 0.9572(3) 0.0796(6)
H10_5 H 0.4129 0.9801 0.1208
C15_5 C 0.4341(3) 0.9219(3) 0.0950(6)
C16_5 C 0.4303(3) 0.8868(2) 0.0323(6)
H11_5 H 0.4496 0.8629 0.0431
C18_5 C 0.4644(4) 0.9202(3) 0.1778(5)
N8_5 N 0.4844(3) 0.9568(2) 0.2097(5)
N9_5 N 0.4839(2) 0.88145(19) 0.2102(4)
C31_6 C 0.6256(3) 0.9596(2) 0.5023(6)
H21_6 H 0.6435 0.9841 0.5150
C32_6 C 0.5912(3) 0.9572(3) 0.4204(6)
H22_6 H 0.5871 0.9801 0.3792
C33_6 C 0.5659(3) 0.9219(3) 0.4050(6)
C34_6 C 0.5697(3) 0.8868(2) 0.4677(6)
H23_6 H 0.5504 0.8629 0.4569
C35_6 C 0.6038(3) 0.8889(2) 0.5483(6)
H24_6 H 0.6072 0.8662 0.5908
C36_6 C 0.5356(4) 0.9202(3) 0.3222(5)
Cu7_4 Cu 0.68725(3) 0.93373(3) 0.66965(7)
N18_6 N 0.6310(2) 0.92423(19) 0.5614(4)
N20_6 N 0.5156(3) 0.9568(2) 0.2903(5)
N21_6 N 0.5161(2) 0.88145(19) 0.2898(4)
S1_7 S 0.81758(7) 0.00518(6) 0.75454(15)
W1_10 W 0.7500 -0.0000 0.66169(3)
C25_7 C 0.8120(3) 0.2177(3) 0.9467(6)
C26_7 C 0.8154(2) 0.1847(2) 0.8816(5)
C27_7 C 0.7983(3) 0.1873(2) 0.7866(6)
H17_7 H 0.7865 0.2131 0.7644
C28_7 C 0.7978(3) 0.1542(2) 0.7241(6)
H18_7 H 0.7857 0.1574 0.6610
C29_7 C 0.8319(3) 0.1112(3) 0.8524(6)
H19_7 H 0.8428 0.0852 0.8751
C30_7 C 0.8316(3) 0.1452(3) 0.9131(5)
H20_7 H 0.8425 0.1419 0.9771
Cu3_4 Cu 0.67194(4) 0.05470(3) 0.66124(7)
I2_7 I 0.591016(19) 0.067099(16) 0.56355(3)
N11_4 N 0.6704(2) 0.10617(16) 0.7564(5)
N14_7 N 0.7927(3) 0.2560(2) 0.9138(5)
N15_7 N 0.7987(3) 0.2919(2) 0.9739(5)
N16_4 N 0.8156(2) 0.1154(2) 0.7557(5)
S4_7 S 0.74309(6) 0.05754(6) 0.57121(14)
C1_7 C 0.8045(3) 0.8972(2) 0.8484(5)
H1_7 H 0.7913 0.9227 0.8697
C2_7 C 0.8006(3) 0.8602(2) 0.9059(6)
H2_7 H 0.7833 0.8606 0.9647
C3_7 C 0.8223(3) 0.8243(2) 0.8738(6)
C4_7 C 0.8458(3) 0.8203(2) 0.7853(6)
H3_7 H 0.8582 0.7944 0.7648
C5_7 C 0.8508(3) 0.8557(2) 0.7273(6)
H4_7 H 0.8683 0.8540 0.6689
C6_7 C 0.8223(3) 0.7874(3) 0.9355(7)
Cu1_4 Cu 0.82806(4) 0.94530(3) 0.66124(7)
I1_7 I 0.908984(19) 0.932901(16) 0.56355(3)
N1_4 N 0.8296(2) 0.89383(16) 0.7564(5)
N2_7 N 0.8396(2) 0.74994(18) 0.9073(5)
N3_7 N 0.8342(2) 0.7136(2) 0.9664(5)
S2_7 S 0.75691(6) 0.94246(6) 0.57121(14)
W1_11 W 0.7500 1.0000 0.66169(3)
N17_4 N 0.6844(2) 0.8846(2) 0.7557(5)
S3_7 S 0.68242(7) 0.99482(6) 0.75454(15)
C1_8 C 0.6955(3) 0.1028(2) 0.8484(5)
H1_8 H 0.7087 0.0773 0.8697
C2_8 C 0.6994(3) 0.1398(2) 0.9059(6)
H2_8 H 0.7167 0.1394 0.9647
C3_8 C 0.6777(3) 0.1757(2) 0.8738(6)
C4_8 C 0.6542(3) 0.1797(2) 0.7853(6)
H3_8 H 0.6418 0.2056 0.7648
C5_8 C 0.6492(3) 0.1443(2) 0.7273(6)
H4_8 H 0.6317 0.1460 0.6689
C6_8 C 0.6777(3) 0.2126(3) 0.9355(7)
N2_8 N 0.6604(2) 0.25006(18) 0.9073(5)
N3_8 N 0.6658(2) 0.2864(2) 0.9664(5)
C25_8 C 0.6880(3) 0.7823(3) 0.9467(6)
C26_8 C 0.6846(2) 0.8153(2) 0.8816(5)
C27_8 C 0.7017(3) 0.8127(2) 0.7866(6)
H17_8 H 0.7135 0.7869 0.7644
C28_8 C 0.7022(3) 0.8458(2) 0.7241(6)
H18_8 H 0.7143 0.8426 0.6610
C29_8 C 0.6681(3) 0.8888(3) 0.8524(6)
H19_8 H 0.6572 0.9148 0.8751
C30_8 C 0.6684(3) 0.8548(3) 0.9131(5)
H20_8 H 0.6575 0.8581 0.9771
N14_8 N 0.7073(3) 0.7440(2) 0.9138(5)
N15_8 N 0.7013(3) 0.7081(2) 0.9739(5)
C19_7 C 0.8045(3) 0.3972(2) 0.1516(5)
H13_7 H 0.7913 0.4227 0.1303
C20_7 C 0.8006(3) 0.3602(2) 0.0941(6)
H14_7 H 0.7833 0.3606 0.0353
C21_7 C 0.8223(3) 0.3243(2) 0.1262(6)
C22_7 C 0.8458(3) 0.3203(2) 0.2147(6)
H15_7 H 0.8582 0.2944 0.2352
C23_7 C 0.8508(3) 0.3557(2) 0.2727(6)
H16_7 H 0.8683 0.3540 0.3311
C24_7 C 0.8223(3) 0.2874(3) 0.0645(7)
Cu4_7 Cu 0.82806(4) 0.44530(3) 0.33876(7)
N10_7 N 0.8296(2) 0.39383(16) 0.2436(5)
N12_7 N 0.8396(2) 0.24994(18) 0.0927(5)
N13_7 N 0.8342(2) 0.2136(2) 0.0336(5)
C7_7 C 0.8120(3) 0.7177(3) 0.0533(6)
C8_7 C 0.8154(2) 0.6847(2) 0.1184(5)
C9_7 C 0.7983(3) 0.6873(2) 0.2134(6)
H5_7 H 0.7865 0.7131 0.2356
C10_7 C 0.7978(3) 0.6542(2) 0.2759(6)
H6_7 H 0.7857 0.6574 0.3390
C11_7 C 0.8319(3) 0.6112(3) 0.1476(6)
H7_7 H 0.8428 0.5852 0.1249
C12_7 C 0.8316(3) 0.6452(3) 0.0869(5)
H8_7 H 0.8425 0.6419 0.0229
N4_7 N 0.7927(3) 0.7560(2) 0.0862(5)
N5_7 N 0.7987(3) 0.7919(2) 0.0261(5)
N6_7 N 0.8156(2) 0.6154(2) 0.2443(5)
Cu6_7 Cu 0.81275(3) 0.56627(3) 0.33035(7)
C7_8 C 0.6880(3) 0.2823(3) 0.0533(6)
C8_8 C 0.6846(2) 0.3153(2) 0.1184(5)
C9_8 C 0.7017(3) 0.3127(2) 0.2134(6)
H5_8 H 0.7135 0.2869 0.2356
C10_8 C 0.7022(3) 0.3458(2) 0.2759(6)
H6_8 H 0.7143 0.3426 0.3390
C11_8 C 0.6681(3) 0.3888(3) 0.1476(6)
H7_8 H 0.6572 0.4148 0.1249
C12_8 C 0.6684(3) 0.3548(3) 0.0869(5)
H8_8 H 0.6575 0.3581 0.0229
N4_8 N 0.7073(3) 0.2440(2) 0.0862(5)
N5_8 N 0.7013(3) 0.2081(2) 0.0261(5)
N6_8 N 0.6844(2) 0.3846(2) 0.2443(5)
Cu6_8 Cu 0.68725(3) 0.43373(3) 0.33035(7)
C19_8 C 0.6955(3) 0.6028(2) 0.1516(5)
H13_8 H 0.7087 0.5773 0.1303
C20_8 C 0.6994(3) 0.6398(2) 0.0941(6)
H14_8 H 0.7167 0.6394 0.0353
C21_8 C 0.6777(3) 0.6757(2) 0.1262(6)
C22_8 C 0.6542(3) 0.6797(2) 0.2147(6)
H15_8 H 0.6418 0.7056 0.2352
C23_8 C 0.6492(3) 0.6443(2) 0.2727(6)
H16_8 H 0.6317 0.6460 0.3311
C24_8 C 0.6777(3) 0.7126(3) 0.0645(7)
Cu4_8 Cu 0.67194(4) 0.55470(3) 0.33876(7)
N10_8 N 0.6704(2) 0.60617(16) 0.2436(5)
N12_8 N 0.6604(2) 0.75006(18) 0.0927(5)
N13_8 N 0.6658(2) 0.7864(2) 0.0336(5)
C14_6 C 0.4088(3) 0.4572(3) 0.9204(6)
H10_6 H 0.4129 0.4801 0.8792
C15_6 C 0.4341(3) 0.4219(3) 0.9050(6)
C16_6 C 0.4303(3) 0.3868(2) 0.9677(6)
H11_6 H 0.4496 0.3629 0.9569
C18_6 C 0.4644(4) 0.4202(3) 0.8222(5)
N8_6 N 0.4844(3) 0.4568(2) 0.7903(5)
N9_6 N 0.4839(2) 0.38145(19) 0.7898(4)
C31_7 C 0.6256(3) 0.4596(2) 0.4977(6)
H21_7 H 0.6435 0.4841 0.4850
C32_7 C 0.5912(3) 0.4572(3) 0.5796(6)
H22_7 H 0.5871 0.4801 0.6208
C33_7 C 0.5659(3) 0.4219(3) 0.5950(6)
C34_7 C 0.5697(3) 0.3868(2) 0.5323(6)
H23_7 H 0.5504 0.3629 0.5431
C35_7 C 0.6038(3) 0.3889(2) 0.4517(6)
H24_7 H 0.6072 0.3662 0.4092
C36_7 C 0.5356(4) 0.4202(3) 0.6778(5)
N18_7 N 0.6310(2) 0.42423(19) 0.4386(4)
N20_7 N 0.5156(3) 0.4568(2) 0.7097(5)
N21_7 N 0.5161(2) 0.38145(19) 0.7102(4)
C31_8 C 0.8744(3) 0.5404(2) 0.4977(6)
H21_8 H 0.8565 0.5159 0.4850
C32_8 C 0.9088(3) 0.5428(3) 0.5796(6)
H22_8 H 0.9129 0.5199 0.6208
C33_8 C 0.9341(3) 0.5781(3) 0.5950(6)
C34_8 C 0.9303(3) 0.6132(2) 0.5323(6)
H23_8 H 0.9496 0.6371 0.5431
C35_8 C 0.8962(3) 0.6111(2) 0.4517(6)
H24_8 H 0.8928 0.6338 0.4092
C36_8 C 0.9644(4) 0.5798(3) 0.6778(5)
N18_8 N 0.8690(2) 0.57577(19) 0.4386(4)
N20_8 N 0.9844(3) 0.5432(2) 0.7097(5)
N21_8 N 0.9839(2) 0.61855(19) 0.7102(4)
I1_8 I 0.591016(19) 0.567099(16) 0.43645(3)
S1_8 S 0.68242(7) 0.49482(6) 0.24546(15)
S2_8 S 0.74309(6) 0.55754(6) 0.42879(14)
W1_12 W 0.7500 0.5000 0.33831(3)
I2_8 I 0.908984(19) 0.432901(16) 0.43645(3)
S3_8 S 0.81758(7) 0.50518(6) 0.24546(15)
S4_8 S 0.75691(6) 0.44246(6) 0.42879(14)
C14_7 C 0.0912(3) 0.5428(3) 0.9204(6)
H10_7 H 0.0871 0.5199 0.8792
C15_7 C 0.0659(3) 0.5781(3) 0.9050(6)
C16_7 C 0.0697(3) 0.6132(2) 0.9677(6)
H11_7 H 0.0504 0.6371 0.9569
C18_7 C 0.0356(4) 0.5798(3) 0.8222(5)
N8_7 N 0.0156(3) 0.5432(2) 0.7903(5)
N9_7 N 0.0161(2) 0.61855(19) 0.7898(4)
C14_8 C 0.9088(3) 0.9572(3) 0.9204(6)
H10_8 H 0.9129 0.9801 0.8792
C15_8 C 0.9341(3) 0.9219(3) 0.9050(6)
C16_8 C 0.9303(3) 0.8868(2) 0.9677(6)
H11_8 H 0.9496 0.8629 0.9569
C18_8 C 0.9644(4) 0.9202(3) 0.8222(5)
N8_8 N 0.9844(3) 0.9568(2) 0.7903(5)
N9_8 N 0.9839(2) 0.88145(19) 0.7898(4)
loop_
_geom_bond_atom_site_label_1
_geom_bond_atom_site_label_2
_geom_bond_site_symmetry_1
_geom_bond_site_symmetry_2
H10 C14 1_555 1_555
C15 C14 1_555 1_555
C16 C15 1_555 1_555
H11 C16 1_555 1_555
C18 C15 1_555 1_555
N8 C18 1_555 1_555
N9 C18 1_555 1_555
C31 H21 1_555 1_555
C32 C31 1_555 1_555
H22 C32 1_555 1_555
C33 C32 1_555 1_555
C34 C33 1_555 1_555
H23 C34 1_555 1_555
C35 C34 1_555 1_555
H24 C35 1_555 1_555
C36 C33 1_555 1_555
Cu7 N18 1_555 1_555
N18 C31 1_555 1_555
N20 N8 1_555 1_555
N21 N9 1_555 1_555
C35 N18 1_555 1_555
C36 N20 1_555 1_555
C36 N21 1_555 1_555
C31_2 H21_2 1_555 1_555
C32_2 C31_2 1_555 1_555
H22_2 C32_2 1_555 1_555
C33_2 C32_2 1_555 1_555
C34_2 C33_2 1_555 1_555
H23_2 C34_2 1_555 1_555
C35_2 C34_2 1_555 1_555
H24_2 C35_2 1_555 1_555
C36_2 C33_2 1_555 1_555
Cu7_2 N18_2 1_555 1_555
N18_2 C31_2 1_555 1_555
C35_2 N18_2 1_555 1_555
C36_2 N20_2 1_555 1_555
C36_2 N21_2 1_555 1_555
C1 H1 1_555 1_555
C2 C1 1_555 1_555
H2 C2 1_555 1_555
C3 C2 1_555 1_555
C4 C3 1_555 1_555
H3 C4 1_555 1_555
C5 C4 1_555 1_555
H4 C5 1_555 1_555
C6 C3 1_555 1_555
Cu1 I1 1_555 1_555
N1 C1 1_555 1_555
N2 C6 1_555 1_555
S1 Cu1 1_555 1_555
S2 Cu1 1_555 1_555
W1 S1 1_555 1_555
C25 C26 1_555 1_555
C26 C27 1_555 1_555
C27 H17 1_555 1_555
C28 C27 1_555 1_555
H18 C28 1_555 1_555
C29 H19 1_555 1_555
C30 C26 1_555 1_555
H20 C30 1_555 1_555
Cu3 I2 1_555 1_555
Cu7_2 S2 1_555 1_555
N11 Cu3 1_555 1_555
N14 C25 1_555 1_555
N16 Cu7 1_555 1_555
N17 Cu7_2 1_555 1_555
S3 W1 1_555 1_555
S4 Cu7 1_555 1_555
C5 N1 1_555 1_555
Cu1 N1 1_555 1_555
Cu7 S1 1_555 1_555
N2 N3 1_555 1_555
S2 W1 1_555 1_555
W1 S4 1_555 1_555
C28 N16 1_555 1_555
C29 C30 1_555 1_555
C29 N16 1_555 1_555
Cu3 S3 1_555 1_555
Cu3 S4 1_555 1_555
Cu7_2 S3 1_555 1_555
N14 N15 1_555 1_555
C1_2 H1_2 1_555 1_555
C2_2 C1_2 1_555 1_555
H2_2 C2_2 1_555 1_555
C3_2 C2_2 1_555 1_555
C4_2 C3_2 1_555 1_555
H3_2 C4_2 1_555 1_555
C5_2 C4_2 1_555 1_555
H4_2 C5_2 1_555 1_555
C6_2 C3_2 1_555 1_555
N11 C1_2 1_555 1_555
N2_2 C6_2 1_555 1_555
C25_2 C26_2 1_555 1_555
C26_2 C27_2 1_555 1_555
C27_2 H17_2 1_555 1_555
C28_2 C27_2 1_555 1_555
H18_2 C28_2 1_555 1_555
C29_2 H19_2 1_555 1_555
C30_2 C26_2 1_555 1_555
H20_2 C30_2 1_555 1_555
N14_2 C25_2 1_555 1_555
C5_2 N11 1_555 1_555
N2_2 N3_2 1_555 1_555
C28_2 N17 1_555 1_555
C29_2 C30_2 1_555 1_555
C29_2 N17 1_555 1_555
N14_2 N15_2 1_555 1_555
C1_3 H1_3 1_555 1_555
C2_3 C1_3 1_555 1_555
H2_3 C2_3 1_555 1_555
C3_3 C2_3 1_555 1_555
C4_3 C3_3 1_555 1_555
H3_3 C4_3 1_555 1_555
C5_3 C4_3 1_555 1_555
H4_3 C5_3 1_555 1_555
C6_3 C3_3 1_555 1_555
C7 C8 1_555 1_555
C8 C9 1_555 1_555
C9 H5 1_555 1_555
C10 C9 1_555 1_555
H6 C10 1_555 1_555
C11 H7 1_555 1_555
C12 C8 1_555 1_555
H8 C12 1_555 1_555
C13 H9 1_555 1_555
H12 C17 1_555 1_555
Cu1_2 I1_2 1_555 1_555
Cu2 N7 1_555 1_555
N1_2 C1_3 1_555 1_555
N2_3 C6_3 1_555 1_555
N3_3 C7 1_555 1_555
N4 C7 1_555 1_555
N5 C6_3 1_555 1_555
N6 C10 1_555 1_555
N7 C13 1_555 1_555
S1_2 Cu1_2 1_555 1_555
S2_2 Cu1_2 1_555 1_555
W1_2 S1_2 1_555 1_555
C19 H13 1_555 1_555
C20 C19 1_555 1_555
H14 C20 1_555 1_555
C21 C20 1_555 1_555
C22 C21 1_555 1_555
H15 C22 1_555 1_555
C23 C22 1_555 1_555
H16 C23 1_555 1_555
C24 C21 1_555 1_555
C25_3 C26_3 1_555 1_555
C26_3 C27_3 1_555 1_555
C27_3 H17_3 1_555 1_555
C28_3 C27_3 1_555 1_555
H18_3 C28_3 1_555 1_555
C29_3 H19_3 1_555 1_555
C30_3 C26_3 1_555 1_555
H20_3 C30_3 1_555 1_555
Cu3_2 I2_2 1_555 1_555
Cu4 N10 1_555 1_555
Cu5 S2_2 1_555 1_555
Cu6 N6 1_555 1_555
N10 C19 1_555 1_555
N11_2 Cu3_2 1_555 1_555
N12 C24 1_555 1_555
N13 C25_3 1_555 1_555
N14_3 C25_3 1_555 1_555
N15_3 C24 1_555 1_555
N16_2 Cu2 1_555 1_555
N17_2 Cu5 1_555 1_555
N19 Cu5 1_555 1_555
S3_2 W1_2 1_555 1_555
S4_2 Cu2 1_555 1_555
C5_3 N1_2 1_555 1_555
C11 C12 1_555 1_555
C11 N6 1_555 1_555
C17 N7 1_555 1_555
Cu1_2 N1_2 1_555 1_555
Cu2 S1_2 1_555 1_555
N2_3 N3_3 1_555 1_555
N4 N5 1_555 1_555
S2_2 W1_2 1_555 1_555
W1_2 S4_2 1_555 1_555
C23 N10 1_555 1_555
C28_3 N16_2 1_555 1_555
C29_3 C30_3 1_555 1_555
C29_3 N16_2 1_555 1_555
Cu3_2 S3_2 1_555 1_555
Cu3_2 S4_2 1_555 1_555
Cu5 S3_2 1_555 1_555
N12 N13 1_555 1_555
N14_3 N15_3 1_555 1_555
C1_4 H1_4 1_555 1_555
C2_4 C1_4 1_555 1_555
H2_4 C2_4 1_555 1_555
C3_4 C2_4 1_555 1_555
C4_4 C3_4 1_555 1_555
H3_4 C4_4 1_555 1_555
C5_4 C4_4 1_555 1_555
H4_4 C5_4 1_555 1_555
C6_4 C3_4 1_555 1_555
C7_2 C8_2 1_555 1_555
C8_2 C9_2 1_555 1_555
C9_2 H5_2 1_555 1_555
C10_2 C9_2 1_555 1_555
H6_2 C10_2 1_555 1_555
C11_2 H7_2 1_555 1_555
C12_2 C8_2 1_555 1_555
H8_2 C12_2 1_555 1_555
C13_2 H9_2 1_555 1_555
H12_2 C17_2 1_555 1_555
N11_2 C1_4 1_555 1_555
N2_4 C6_4 1_555 1_555
N3_4 C7_2 1_555 1_555
N4_2 C7_2 1_555 1_555
N5_2 C6_4 1_555 1_555
N6_2 C10_2 1_555 1_555
N19 C13_2 1_555 1_555
C19_2 H13_2 1_555 1_555
C20_2 C19_2 1_555 1_555
H14_2 C20_2 1_555 1_555
C21_2 C20_2 1_555 1_555
C22_2 C21_2 1_555 1_555
H15_2 C22_2 1_555 1_555
C23_2 C22_2 1_555 1_555
H16_2 C23_2 1_555 1_555
C24_2 C21_2 1_555 1_555
C25_4 C26_4 1_555 1_555
C26_4 C27_4 1_555 1_555
C27_4 H17_4 1_555 1_555
C28_4 C27_4 1_555 1_555
H18_4 C28_4 1_555 1_555
C29_4 H19_4 1_555 1_555
C30_4 C26_4 1_555 1_555
H20_4 C30_4 1_555 1_555
Cu4_2 N10_2 1_555 1_555
Cu6_2 N6_2 1_555 1_555
N10_2 C19_2 1_555 1_555
N12_2 C24_2 1_555 1_555
N13_2 C25_4 1_555 1_555
N14_4 C25_4 1_555 1_555
N15_4 C24_2 1_555 1_555
C5_4 N11_2 1_555 1_555
C11_2 C12_2 1_555 1_555
C11_2 N6_2 1_555 1_555
C17_2 N19 1_555 1_555
N2_4 N3_4 1_555 1_555
N4_2 N5_2 1_555 1_555
C23_2 N10_2 1_555 1_555
C28_4 N17_2 1_555 1_555
C29_4 C30_4 1_555 1_555
C29_4 N17_2 1_555 1_555
N12_2 N13_2 1_555 1_555
N14_4 N15_4 1_555 1_555
Cu4_2 I1_3 1_555 1_555
S2_3 Cu4_2 1_555 1_555
Cu6 S2_3 1_555 1_555
N19_2 Cu6 1_555 1_555
S3_3 W1_3 1_555 1_555
S2_3 W1_3 1_555 1_555
Cu6 S3_3 1_555 1_555
C13_3 H9_3 1_555 1_555
H12_3 C17_3 1_555 1_555
Cu6_2 N7_2 1_555 1_555
N7_2 C13_3 1_555 1_555
W1_4 S1_3 1_555 1_555
Cu4 I2_3 1_555 1_555
S4_3 Cu6_2 1_555 1_555
C17_3 N7_2 1_555 1_555
Cu6_2 S1_3 1_555 1_555
W1_4 S4_3 1_555 1_555
Cu4 S4_3 1_555 1_555
C13_4 H9_4 1_555 1_555
H12_4 C17_4 1_555 1_555
N19_2 C13_4 1_555 1_555
C17_4 N19_2 1_555 1_555
H10_2 C14_2 1_555 1_555
C15_2 C14_2 1_555 1_555
C16_2 C15_2 1_555 1_555
H11_2 C16_2 1_555 1_555
C18_2 C15_2 1_555 1_555
N8_2 C18_2 1_555 1_555
N9_2 C18_2 1_555 1_555
C7_3 C8_3 1_555 1_555
C8_3 C9_3 1_555 1_555
C9_3 H5_3 1_555 1_555
C10_3 C9_3 1_555 1_555
H6_3 C10_3 1_555 1_555
C11_3 H7_3 1_555 1_555
C12_3 C8_3 1_555 1_555
H8_3 C12_3 1_555 1_555
N4_3 C7_3 1_555 1_555
N6_3 C10_3 1_555 1_555
C19_3 H13_3 1_555 1_555
C20_3 C19_3 1_555 1_555
H14_3 C20_3 1_555 1_555
C21_3 C20_3 1_555 1_555
C22_3 C21_3 1_555 1_555
H15_3 C22_3 1_555 1_555
C23_3 C22_3 1_555 1_555
H16_3 C23_3 1_555 1_555
C24_3 C21_3 1_555 1_555
Cu4_3 N10_3 1_555 1_555
Cu6_3 N6_3 1_555 1_555
N10_3 C19_3 1_555 1_555
N12_3 C24_3 1_555 1_555
C11_3 C12_3 1_555 1_555
C11_3 N6_3 1_555 1_555
N4_3 N5_3 1_555 1_555
C23_3 N10_3 1_555 1_555
N12_3 N13_3 1_555 1_555
C7_4 C8_4 1_555 1_555
C8_4 C9_4 1_555 1_555
C9_4 H5_4 1_555 1_555
C10_4 C9_4 1_555 1_555
H6_4 C10_4 1_555 1_555
C11_4 H7_4 1_555 1_555
C12_4 C8_4 1_555 1_555
H8_4 C12_4 1_555 1_555
N4_4 C7_4 1_555 1_555
N6_4 C10_4 1_555 1_555
C19_4 H13_4 1_555 1_555
C20_4 C19_4 1_555 1_555
H14_4 C20_4 1_555 1_555
C21_4 C20_4 1_555 1_555
C22_4 C21_4 1_555 1_555
H15_4 C22_4 1_555 1_555
C23_4 C22_4 1_555 1_555
H16_4 C23_4 1_555 1_555
C24_4 C21_4 1_555 1_555
Cu4_4 N10_4 1_555 1_555
Cu6_4 N6_4 1_555 1_555
N10_4 C19_4 1_555 1_555
N12_4 C24_4 1_555 1_555
C11_4 C12_4 1_555 1_555
C11_4 N6_4 1_555 1_555
N4_4 N5_4 1_555 1_555
C23_4 N10_4 1_555 1_555
N12_4 N13_4 1_555 1_555
C31_3 H21_3 1_555 1_555
C32_3 C31_3 1_555 1_555
H22_3 C32_3 1_555 1_555
C33_3 C32_3 1_555 1_555
C34_3 C33_3 1_555 1_555
H23_3 C34_3 1_555 1_555
C35_3 C34_3 1_555 1_555
H24_3 C35_3 1_555 1_555
C36_3 C33_3 1_555 1_555
Cu6_4 N18_3 1_555 1_555
N18_3 C31_3 1_555 1_555
C35_3 N18_3 1_555 1_555
C36_3 N20_3 1_555 1_555
C36_3 N21_3 1_555 1_555
H10_3 C14_3 1_555 1_555
C15_3 C14_3 1_555 1_555
C16_3 C15_3 1_555 1_555
H11_3 C16_3 1_555 1_555
C18_3 C15_3 1_555 1_555
N8_3 C18_3 1_555 1_555
N9_3 C18_3 1_555 1_555
C31_4 H21_4 1_555 1_555
C32_4 C31_4 1_555 1_555
H22_4 C32_4 1_555 1_555
C33_4 C32_4 1_555 1_555
C34_4 C33_4 1_555 1_555
H23_4 C34_4 1_555 1_555
C35_4 C34_4 1_555 1_555
H24_4 C35_4 1_555 1_555
C36_4 C33_4 1_555 1_555
Cu6_3 N18_4 1_555 1_555
N18_4 C31_4 1_555 1_555
N20_4 N8_3 1_555 1_555
N21_4 N9_3 1_555 1_555
C35_4 N18_4 1_555 1_555
C36_4 N20_4 1_555 1_555
C36_4 N21_4 1_555 1_555
Cu4_4 I1_4 1_555 1_555
S2_4 Cu4_4 1_555 1_555
Cu6_3 S2_4 1_555 1_555
S3_4 W1_5 1_555 1_555
S2_4 W1_5 1_555 1_555
Cu6_3 S3_4 1_555 1_555
W1_6 S1_4 1_555 1_555
Cu4_3 I2_4 1_555 1_555
S4_4 Cu6_4 1_555 1_555
Cu6_4 S1_4 1_555 1_555
W1_6 S4_4 1_555 1_555
Cu4_3 S4_4 1_555 1_555
H10_4 C14_4 1_555 1_555
C15_4 C14_4 1_555 1_555
C16_4 C15_4 1_555 1_555
H11_4 C16_4 1_555 1_555
C18_4 C15_4 1_555 1_555
N8_4 C18_4 1_555 1_555
N9_4 C18_4 1_555 1_555
C13_5 H9_5 1_555 1_555
H12_5 C17_5 1_555 1_555
Cu2_2 N7_3 1_555 1_555
N7_3 C13_5 1_555 1_555
W1_7 S1_5 1_555 1_555
C19_5 H13_5 1_555 1_555
C20_5 C19_5 1_555 1_555
H14_5 C20_5 1_555 1_555
C21_5 C20_5 1_555 1_555
C22_5 C21_5 1_555 1_555
H15_5 C22_5 1_555 1_555
C23_5 C22_5 1_555 1_555
H16_5 C23_5 1_555 1_555
C24_5 C21_5 1_555 1_555
C25_5 C26_5 1_555 1_555
C26_5 C27_5 1_555 1_555
C27_5 H17_5 1_555 1_555
C28_5 C27_5 1_555 1_555
H18_5 C28_5 1_555 1_555
C29_5 H19_5 1_555 1_555
C30_5 C26_5 1_555 1_555
H20_5 C30_5 1_555 1_555
Cu3_3 I2_5 1_555 1_555
Cu4_5 N10_5 1_555 1_555
N10_5 C19_5 1_555 1_555
N11_3 Cu3_3 1_555 1_555
N12_5 C24_5 1_555 1_555
N13_5 C25_5 1_555 1_555
N14_5 C25_5 1_555 1_555
N15_5 C24_5 1_555 1_555
N16_3 Cu2_2 1_555 1_555
S4_5 Cu2_2 1_555 1_555
C17_5 N7_3 1_555 1_555
Cu2_2 S1_5 1_555 1_555
W1_7 S4_5 1_555 1_555
C23_5 N10_5 1_555 1_555
C28_5 N16_3 1_555 1_555
C29_5 C30_5 1_555 1_555
C29_5 N16_3 1_555 1_555
Cu3_3 S4_5 1_555 1_555
N12_5 N13_5 1_555 1_555
N14_5 N15_5 1_555 1_555
C1_5 H1_5 1_555 1_555
C2_5 C1_5 1_555 1_555
H2_5 C2_5 1_555 1_555
C3_5 C2_5 1_555 1_555
C4_5 C3_5 1_555 1_555
H3_5 C4_5 1_555 1_555
C5_5 C4_5 1_555 1_555
H4_5 C5_5 1_555 1_555
C6_5 C3_5 1_555 1_555
C7_5 C8_5 1_555 1_555
C8_5 C9_5 1_555 1_555
C9_5 H5_5 1_555 1_555
C10_5 C9_5 1_555 1_555
H6_5 C10_5 1_555 1_555
C11_5 H7_5 1_555 1_555
C12_5 C8_5 1_555 1_555
H8_5 C12_5 1_555 1_555
Cu1_3 I1_5 1_555 1_555
N1_3 C1_5 1_555 1_555
N2_5 C6_5 1_555 1_555
N3_5 C7_5 1_555 1_555
N4_5 C7_5 1_555 1_555
N5_5 C6_5 1_555 1_555
N6_5 C10_5 1_555 1_555
S2_5 Cu1_3 1_555 1_555
Cu5_2 S2_5 1_555 1_555
Cu6_5 N6_5 1_555 1_555
N17_3 Cu5_2 1_555 1_555
N19_3 Cu5_2 1_555 1_555
S3_5 W1_8 1_555 1_555
C5_5 N1_3 1_555 1_555
C11_5 C12_5 1_555 1_555
C11_5 N6_5 1_555 1_555
Cu1_3 N1_3 1_555 1_555
N2_5 N3_5 1_555 1_555
N4_5 N5_5 1_555 1_555
S2_5 W1_8 1_555 1_555
Cu5_2 S3_5 1_555 1_555
C1_6 H1_6 1_555 1_555
C2_6 C1_6 1_555 1_555
H2_6 C2_6 1_555 1_555
C3_6 C2_6 1_555 1_555
C4_6 C3_6 1_555 1_555
H3_6 C4_6 1_555 1_555
C5_6 C4_6 1_555 1_555
H4_6 C5_6 1_555 1_555
C6_6 C3_6 1_555 1_555
C7_6 C8_6 1_555 1_555
C8_6 C9_6 1_555 1_555
C9_6 H5_6 1_555 1_555
C10_6 C9_6 1_555 1_555
H6_6 C10_6 1_555 1_555
C11_6 H7_6 1_555 1_555
C12_6 C8_6 1_555 1_555
H8_6 C12_6 1_555 1_555
N11_3 C1_6 1_555 1_555
N2_6 C6_6 1_555 1_555
N3_6 C7_6 1_555 1_555
N4_6 C7_6 1_555 1_555
N5_6 C6_6 1_555 1_555
N6_6 C10_6 1_555 1_555
Cu6_6 N6_6 1_555 1_555
C5_6 N11_3 1_555 1_555
C11_6 C12_6 1_555 1_555
C11_6 N6_6 1_555 1_555
N2_6 N3_6 1_555 1_555
N4_6 N5_6 1_555 1_555
C13_6 H9_6 1_555 1_555
H12_6 C17_6 1_555 1_555
N19_3 C13_6 1_555 1_555
C19_6 H13_6 1_555 1_555
C20_6 C19_6 1_555 1_555
H14_6 C20_6 1_555 1_555
C21_6 C20_6 1_555 1_555
C22_6 C21_6 1_555 1_555
H15_6 C22_6 1_555 1_555
C23_6 C22_6 1_555 1_555
H16_6 C23_6 1_555 1_555
C24_6 C21_6 1_555 1_555
C25_6 C26_6 1_555 1_555
C26_6 C27_6 1_555 1_555
C27_6 H17_6 1_555 1_555
C28_6 C27_6 1_555 1_555
H18_6 C28_6 1_555 1_555
C29_6 H19_6 1_555 1_555
C30_6 C26_6 1_555 1_555
H20_6 C30_6 1_555 1_555
Cu4_6 N10_6 1_555 1_555
N10_6 C19_6 1_555 1_555
N12_6 C24_6 1_555 1_555
N13_6 C25_6 1_555 1_555
N14_6 C25_6 1_555 1_555
N15_6 C24_6 1_555 1_555
C17_6 N19_3 1_555 1_555
C23_6 N10_6 1_555 1_555
C28_6 N17_3 1_555 1_555
C29_6 C30_6 1_555 1_555
C29_6 N17_3 1_555 1_555
N12_6 N13_6 1_555 1_555
N14_6 N15_6 1_555 1_555
C13_7 H9_7 1_555 1_555
H12_7 C17_7 1_555 1_555
Cu4_6 I1_6 1_555 1_555
Cu6_6 N7_4 1_555 1_555
N7_4 C13_7 1_555 1_555
S1_6 Cu4_6 1_555 1_555
S2_6 Cu4_6 1_555 1_555
W1_9 S1_6 1_555 1_555
Cu4_5 I2_6 1_555 1_555
Cu6_5 S2_6 1_555 1_555
N19_4 Cu6_5 1_555 1_555
S3_6 W1_9 1_555 1_555
S4_6 Cu6_6 1_555 1_555
C17_7 N7_4 1_555 1_555
Cu6_6 S1_6 1_555 1_555
S2_6 W1_9 1_555 1_555
W1_9 S4_6 1_555 1_555
Cu4_5 S3_6 1_555 1_555
Cu4_5 S4_6 1_555 1_555
Cu6_5 S3_6 1_555 1_555
C13_8 H9_8 1_555 1_555
H12_8 C17_8 1_555 1_555
N19_4 C13_8 1_555 1_555
C17_8 N19_4 1_555 1_555
C31_5 H21_5 1_555 1_555
C32_5 C31_5 1_555 1_555
H22_5 C32_5 1_555 1_555
C33_5 C32_5 1_555 1_555
C34_5 C33_5 1_555 1_555
H23_5 C34_5 1_555 1_555
C35_5 C34_5 1_555 1_555
H24_5 C35_5 1_555 1_555
C36_5 C33_5 1_555 1_555
Cu7_3 N18_5 1_555 1_555
N18_5 C31_5 1_555 1_555
C35_5 N18_5 1_555 1_555
C36_5 N20_5 1_555 1_555
C36_5 N21_5 1_555 1_555
H10_5 C14_5 1_555 1_555
C15_5 C14_5 1_555 1_555
C16_5 C15_5 1_555 1_555
H11_5 C16_5 1_555 1_555
C18_5 C15_5 1_555 1_555
N8_5 C18_5 1_555 1_555
N9_5 C18_5 1_555 1_555
C31_6 H21_6 1_555 1_555
C32_6 C31_6 1_555 1_555
H22_6 C32_6 1_555 1_555
C33_6 C32_6 1_555 1_555
C34_6 C33_6 1_555 1_555
H23_6 C34_6 1_555 1_555
C35_6 C34_6 1_555 1_555
H24_6 C35_6 1_555 1_555
C36_6 C33_6 1_555 1_555
Cu7_4 N18_6 1_555 1_555
N18_6 C31_6 1_555 1_555
N20_6 N8_5 1_555 1_555
N21_6 N9_5 1_555 1_555
C35_6 N18_6 1_555 1_555
C36_6 N20_6 1_555 1_555
C36_6 N21_6 1_555 1_555
W1_10 S1_7 1_555 1_555
C25_7 C26_7 1_555 1_555
C26_7 C27_7 1_555 1_555
C27_7 H17_7 1_555 1_555
C28_7 C27_7 1_555 1_555
H18_7 C28_7 1_555 1_555
C29_7 H19_7 1_555 1_555
C30_7 C26_7 1_555 1_555
H20_7 C30_7 1_555 1_555
Cu3_4 I2_7 1_555 1_555
N11_4 Cu3_4 1_555 1_555
N14_7 C25_7 1_555 1_555
N16_4 Cu7_3 1_555 1_555
S4_7 Cu7_3 1_555 1_555
Cu7_3 S1_7 1_555 1_555
W1_10 S4_7 1_555 1_555
C28_7 N16_4 1_555 1_555
C29_7 C30_7 1_555 1_555
C29_7 N16_4 1_555 1_555
Cu3_4 S4_7 1_555 1_555
N14_7 N15_7 1_555 1_555
C1_7 H1_7 1_555 1_555
C2_7 C1_7 1_555 1_555
H2_7 C2_7 1_555 1_555
C3_7 C2_7 1_555 1_555
C4_7 C3_7 1_555 1_555
H3_7 C4_7 1_555 1_555
C5_7 C4_7 1_555 1_555
H4_7 C5_7 1_555 1_555
C6_7 C3_7 1_555 1_555
Cu1_4 I1_7 1_555 1_555
N1_4 C1_7 1_555 1_555
N2_7 C6_7 1_555 1_555
S2_7 Cu1_4 1_555 1_555
Cu7_4 S2_7 1_555 1_555
N17_4 Cu7_4 1_555 1_555
S3_7 W1_11 1_555 1_555
C5_7 N1_4 1_555 1_555
Cu1_4 N1_4 1_555 1_555
N2_7 N3_7 1_555 1_555
S2_7 W1_11 1_555 1_555
Cu7_4 S3_7 1_555 1_555
C1_8 H1_8 1_555 1_555
C2_8 C1_8 1_555 1_555
H2_8 C2_8 1_555 1_555
C3_8 C2_8 1_555 1_555
C4_8 C3_8 1_555 1_555
H3_8 C4_8 1_555 1_555
C5_8 C4_8 1_555 1_555
H4_8 C5_8 1_555 1_555
C6_8 C3_8 1_555 1_555
N11_4 C1_8 1_555 1_555
N2_8 C6_8 1_555 1_555
C5_8 N11_4 1_555 1_555
N2_8 N3_8 1_555 1_555
C25_8 C26_8 1_555 1_555
C26_8 C27_8 1_555 1_555
C27_8 H17_8 1_555 1_555
C28_8 C27_8 1_555 1_555
H18_8 C28_8 1_555 1_555
C29_8 H19_8 1_555 1_555
C30_8 C26_8 1_555 1_555
H20_8 C30_8 1_555 1_555
N14_8 C25_8 1_555 1_555
C28_8 N17_4 1_555 1_555
C29_8 C30_8 1_555 1_555
C29_8 N17_4 1_555 1_555
N14_8 N15_8 1_555 1_555
C19_7 H13_7 1_555 1_555
C20_7 C19_7 1_555 1_555
H14_7 C20_7 1_555 1_555
C21_7 C20_7 1_555 1_555
C22_7 C21_7 1_555 1_555
H15_7 C22_7 1_555 1_555
C23_7 C22_7 1_555 1_555
H16_7 C23_7 1_555 1_555
C24_7 C21_7 1_555 1_555
Cu4_7 N10_7 1_555 1_555
N10_7 C19_7 1_555 1_555
N12_7 C24_7 1_555 1_555
C23_7 N10_7 1_555 1_555
N12_7 N13_7 1_555 1_555
C7_7 C8_7 1_555 1_555
C8_7 C9_7 1_555 1_555
C9_7 H5_7 1_555 1_555
C10_7 C9_7 1_555 1_555
H6_7 C10_7 1_555 1_555
C11_7 H7_7 1_555 1_555
C12_7 C8_7 1_555 1_555
H8_7 C12_7 1_555 1_555
N4_7 C7_7 1_555 1_555
N6_7 C10_7 1_555 1_555
Cu6_7 N6_7 1_555 1_555
C11_7 C12_7 1_555 1_555
C11_7 N6_7 1_555 1_555
N4_7 N5_7 1_555 1_555
C7_8 C8_8 1_555 1_555
C8_8 C9_8 1_555 1_555
C9_8 H5_8 1_555 1_555
C10_8 C9_8 1_555 1_555
H6_8 C10_8 1_555 1_555
C11_8 H7_8 1_555 1_555
C12_8 C8_8 1_555 1_555
H8_8 C12_8 1_555 1_555
N4_8 C7_8 1_555 1_555
N6_8 C10_8 1_555 1_555
Cu6_8 N6_8 1_555 1_555
C11_8 C12_8 1_555 1_555
C11_8 N6_8 1_555 1_555
N4_8 N5_8 1_555 1_555
C19_8 H13_8 1_555 1_555
C20_8 C19_8 1_555 1_555
H14_8 C20_8 1_555 1_555
C21_8 C20_8 1_555 1_555
C22_8 C21_8 1_555 1_555
H15_8 C22_8 1_555 1_555
C23_8 C22_8 1_555 1_555
H16_8 C23_8 1_555 1_555
C24_8 C21_8 1_555 1_555
Cu4_8 N10_8 1_555 1_555
N10_8 C19_8 1_555 1_555
N12_8 C24_8 1_555 1_555
C23_8 N10_8 1_555 1_555
N12_8 N13_8 1_555 1_555
H10_6 C14_6 1_555 1_555
C15_6 C14_6 1_555 1_555
C16_6 C15_6 1_555 1_555
H11_6 C16_6 1_555 1_555
C18_6 C15_6 1_555 1_555
N8_6 C18_6 1_555 1_555
N9_6 C18_6 1_555 1_555
C31_7 H21_7 1_555 1_555
C32_7 C31_7 1_555 1_555
H22_7 C32_7 1_555 1_555
C33_7 C32_7 1_555 1_555
C34_7 C33_7 1_555 1_555
H23_7 C34_7 1_555 1_555
C35_7 C34_7 1_555 1_555
H24_7 C35_7 1_555 1_555
C36_7 C33_7 1_555 1_555
Cu6_8 N18_7 1_555 1_555
N18_7 C31_7 1_555 1_555
N20_7 N8_6 1_555 1_555
N21_7 N9_6 1_555 1_555
C35_7 N18_7 1_555 1_555
C36_7 N20_7 1_555 1_555
C36_7 N21_7 1_555 1_555
C31_8 H21_8 1_555 1_555
C32_8 C31_8 1_555 1_555
H22_8 C32_8 1_555 1_555
C33_8 C32_8 1_555 1_555
C34_8 C33_8 1_555 1_555
H23_8 C34_8 1_555 1_555
C35_8 C34_8 1_555 1_555
H24_8 C35_8 1_555 1_555
C36_8 C33_8 1_555 1_555
Cu6_7 N18_8 1_555 1_555
N18_8 C31_8 1_555 1_555
C35_8 N18_8 1_555 1_555
C36_8 N20_8 1_555 1_555
C36_8 N21_8 1_555 1_555
Cu4_8 I1_8 1_555 1_555
S1_8 Cu4_8 1_555 1_555
S2_8 Cu4_8 1_555 1_555
W1_12 S1_8 1_555 1_555
Cu4_7 I2_8 1_555 1_555
Cu6_7 S2_8 1_555 1_555
S3_8 W1_12 1_555 1_555
S4_8 Cu6_8 1_555 1_555
Cu6_8 S1_8 1_555 1_555
S2_8 W1_12 1_555 1_555
W1_12 S4_8 1_555 1_555
Cu4_7 S3_8 1_555 1_555
Cu4_7 S4_8 1_555 1_555
Cu6_7 S3_8 1_555 1_555
H10_7 C14_7 1_555 1_555
C15_7 C14_7 1_555 1_555
C16_7 C15_7 1_555 1_555
H11_7 C16_7 1_555 1_555
C18_7 C15_7 1_555 1_555
N8_7 C18_7 1_555 1_555
N9_7 C18_7 1_555 1_555
H10_8 C14_8 1_555 1_555
C15_8 C14_8 1_555 1_555
C16_8 C15_8 1_555 1_555
H11_8 C16_8 1_555 1_555
C18_8 C15_8 1_555 1_555
N8_8 C18_8 1_555 1_555
N9_8 C18_8 1_555 1_555

#END
