
###############################################################################
#
# This file contains modified crystal structure data generated from the
# MOF subset of the Cambridge Structural Database (CSD) v543 
# hosted by the Cambridge Crystallographic Data Centre (CCDC).
#
# This work is licensed under the Creative Commons
# Attribution-NonCommercial-ShareAlike 4.0 International License.
# To view a copy of this license, visit
# http://creativecommons.org/licenses/by-nc-sa/4.0/
# or send a letter to
# Creative Commons, PO Box 1866, Mountain View, CA 94042, USA.
#
# CIF created using the CSD Python API on 29 September 2022
# The structure has been converted into the P1 space group
# The structure has a 3D framework
# The original CSD entry SATCEX is in the orthorhombic crystal system
# The framework has been calculated to contain at least 10.0% void space
# The void calculation uses a probe of radius 1.32A, grid spacing 0.4
#
###############################################################################

data_SATCEX
_chemical_formula_moiety         '(C288 H192 Cl16 Cu32 N144 S32 W12)n'
_symmetry_cell_setting           triclinic
_symmetry_space_group_name_H-M   'P 1'
_symmetry_Int_Tables_number      1
_space_group_name_Hall           'P 1'
loop_
_symmetry_equiv_pos_site_id
_symmetry_equiv_pos_as_xyz
1 x,y,z
_cell_length_a                   25.115(3)
_cell_length_b                   32.162(3)
_cell_length_c                   13.8294(14)
_cell_angle_alpha                90
_cell_angle_beta                 90
_cell_angle_gamma                90
_cell_volume                     11170.7
loop_
_atom_site_label
_atom_site_type_symbol
_atom_site_fract_x
_atom_site_fract_y
_atom_site_fract_z
C1 C 0.3533(3) 0.3575(2) 0.2375(6)
H1 H 0.3698 0.3565 0.1774
C2 C 0.3522(4) 0.3224(3) 0.2905(6)
H2 H 0.3677 0.2980 0.2680
C3 C 0.3268(3) 0.3238(2) 0.3810(6)
C4 C 0.3055(3) 0.3599(2) 0.4130(5)
H3 H 0.2888 0.3615 0.4728
C5 C 0.3096(3) 0.3944(2) 0.3531(6)
H4 H 0.2957 0.4195 0.3754
C6 C 0.3238(4) 0.2856(3) 0.4419(6)
C7 C 0.3217(4) 0.2202(2) 0.5486(6)
C8 C 0.3222(4) 0.1840(2) 0.6105(6)
C9 C 0.3355(4) 0.1447(3) 0.5747(5)
H5 H 0.3449 0.1415 0.5101
C10 C 0.3345(3) 0.1107(2) 0.6356(6)
H6 H 0.3446 0.0849 0.6114
C11 C 0.3056(4) 0.1502(2) 0.7626(6)
H7 H 0.2940 0.1524 0.8263
C12 C 0.3078(4) 0.1862(3) 0.7062(6)
H8 H 0.2995 0.2118 0.7336
C13 C 0.4025(3) 0.6051(2) 0.0551(6)
H9 H 0.3958 0.6294 0.0897
C17 C 0.3938(4) 0.5358(3) 0.0376(7)
H12 H 0.3805 0.5105 0.0596
Cl1 Cl 0.40279(9) 0.42874(7) 0.07676(15)
Cu1 Cu 0.33088(4) 0.44424(3) 0.17074(7)
Cu2 Cu 0.31974(4) 0.56324(3) 0.18208(7)
N1 N 0.3322(2) 0.39405(19) 0.2657(4)
N2 N 0.3420(4) 0.2497(2) 0.4037(5)
N3 N 0.3394(4) 0.2156(2) 0.4590(6)
N4 N 0.3039(3) 0.2894(2) 0.5301(5)
N5 N 0.3022(4) 0.2545(2) 0.5844(5)
N6 N 0.3192(3) 0.11349(18) 0.7294(4)
N7 N 0.3827(3) 0.5699(2) 0.0873(5)
S1 S 0.32285(8) 0.50249(5) 0.26707(15)
S2 S 0.25336(7) 0.44328(7) 0.08210(14)
W1 W 0.2500 0.5000 0.17453(3)
C19 C 0.3533(3) 0.8575(2) 0.7625(6)
H13 H 0.3698 0.8565 0.8226
C20 C 0.3522(4) 0.8224(3) 0.7095(6)
H14 H 0.3677 0.7980 0.7320
C21 C 0.3268(3) 0.8238(2) 0.6190(6)
C22 C 0.3055(3) 0.8599(2) 0.5870(5)
H15 H 0.2888 0.8615 0.5272
C23 C 0.3096(3) 0.8944(2) 0.6469(6)
H16 H 0.2957 0.9195 0.6246
C24 C 0.3238(4) 0.7856(3) 0.5581(6)
C25 C 0.3217(4) 0.7202(2) 0.4514(6)
C26 C 0.3222(4) 0.6840(2) 0.3895(6)
C27 C 0.3355(4) 0.6447(3) 0.4253(5)
H17 H 0.3449 0.6415 0.4899
C28 C 0.3345(3) 0.6107(2) 0.3644(6)
H18 H 0.3446 0.5849 0.3886
C29 C 0.3056(4) 0.6502(2) 0.2374(6)
H19 H 0.2940 0.6524 0.1737
C30 C 0.3078(4) 0.6862(3) 0.2938(6)
H20 H 0.2995 0.7118 0.2664
Cl2 Cl 0.09721(9) 0.57126(7) 0.07676(15)
Cu3 Cu 0.16912(4) 0.55576(3) 0.17074(7)
Cu4 Cu 0.33088(4) 0.94424(3) 0.82926(7)
Cu5 Cu 0.18026(4) 0.43676(3) 0.18208(7)
Cu6 Cu 0.31974(4) 0.06324(3) 0.81792(7)
N10 N 0.3322(2) 0.89405(19) 0.7343(4)
N11 N 0.1678(2) 0.60595(19) 0.2657(4)
N12 N 0.3420(4) 0.7497(2) 0.5963(5)
N13 N 0.3394(4) 0.7156(2) 0.5410(6)
N14 N 0.3039(3) 0.7894(2) 0.4699(5)
N15 N 0.3022(4) 0.7545(2) 0.4156(5)
N16 N 0.3192(3) 0.61349(18) 0.2706(4)
N17 N 0.1808(3) 0.38651(18) 0.2706(4)
N19 N 0.1173(3) 0.4301(2) 0.0873(5)
S3 S 0.17715(8) 0.49751(5) 0.26707(15)
S4 S 0.24664(7) 0.55672(7) 0.08210(14)
C1_2 C 0.1467(3) 0.6425(2) 0.2375(6)
H1_2 H 0.1302 0.6435 0.1774
C2_2 C 0.1478(4) 0.6776(3) 0.2905(6)
H2_2 H 0.1323 0.7020 0.2680
C3_2 C 0.1732(3) 0.6762(2) 0.3810(6)
C4_2 C 0.1945(3) 0.6401(2) 0.4130(5)
H3_2 H 0.2112 0.6385 0.4728
C5_2 C 0.1904(3) 0.6056(2) 0.3531(6)
H4_2 H 0.2043 0.5805 0.3754
C6_2 C 0.1762(4) 0.7144(3) 0.4419(6)
C7_2 C 0.1783(4) 0.7798(2) 0.5486(6)
C8_2 C 0.1778(4) 0.8160(2) 0.6105(6)
C9_2 C 0.1645(4) 0.8553(3) 0.5747(5)
H5_2 H 0.1551 0.8585 0.5101
C10_2 C 0.1655(3) 0.8893(2) 0.6356(6)
H6_2 H 0.1554 0.9151 0.6114
C11_2 C 0.1944(4) 0.8498(2) 0.7626(6)
H7_2 H 0.2060 0.8476 0.8263
C12_2 C 0.1922(4) 0.8138(3) 0.7062(6)
H8_2 H 0.2005 0.7882 0.7336
C13_2 C 0.0975(3) 0.3949(2) 0.0551(6)
H9_2 H 0.1042 0.3706 0.0897
C17_2 C 0.1062(4) 0.4642(3) 0.0376(7)
H12_2 H 0.1195 0.4895 0.0596
N2_2 N 0.1580(4) 0.7503(2) 0.4037(5)
N3_2 N 0.1606(4) 0.7844(2) 0.4590(6)
N4_2 N 0.1961(3) 0.7106(2) 0.5301(5)
N5_2 N 0.1978(4) 0.7455(2) 0.5844(5)
N6_2 N 0.1808(3) 0.88651(18) 0.7294(4)
C19_2 C 0.1467(3) 0.1425(2) 0.7625(6)
H13_2 H 0.1302 0.1435 0.8226
C20_2 C 0.1478(4) 0.1776(3) 0.7095(6)
H14_2 H 0.1323 0.2020 0.7320
C21_2 C 0.1732(3) 0.1762(2) 0.6190(6)
C22_2 C 0.1945(3) 0.1401(2) 0.5870(5)
H15_2 H 0.2112 0.1385 0.5272
C23_2 C 0.1904(3) 0.1056(2) 0.6469(6)
H16_2 H 0.2043 0.0805 0.6246
C24_2 C 0.1762(4) 0.2144(3) 0.5581(6)
C25_2 C 0.1783(4) 0.2798(2) 0.4514(6)
C26_2 C 0.1778(4) 0.3160(2) 0.3895(6)
C27_2 C 0.1645(4) 0.3553(3) 0.4253(5)
H17_2 H 0.1551 0.3585 0.4899
C28_2 C 0.1655(3) 0.3893(2) 0.3644(6)
H18_2 H 0.1554 0.4151 0.3886
C29_2 C 0.1944(4) 0.3498(2) 0.2374(6)
H19_2 H 0.2060 0.3476 0.1737
C30_2 C 0.1922(4) 0.3138(3) 0.2938(6)
H20_2 H 0.2005 0.2882 0.2664
Cu4_2 Cu 0.16912(4) 0.05576(3) 0.82926(7)
Cu6_2 Cu 0.18026(4) 0.93676(3) 0.81792(7)
N10_2 N 0.1678(2) 0.10595(19) 0.7343(4)
N12_2 N 0.1580(4) 0.2503(2) 0.5963(5)
N13_2 N 0.1606(4) 0.2844(2) 0.5410(6)
N14_2 N 0.1961(3) 0.2106(2) 0.4699(5)
N15_2 N 0.1978(4) 0.2455(2) 0.4156(5)
Cl1_2 Cl 0.09721(9) 0.07126(7) 0.92324(15)
S2_2 S 0.24664(7) 0.05672(7) 0.91790(14)
W1_2 W 0.2500 0.0000 0.82547(3)
N19_2 N 0.3827(3) 0.0699(2) 0.9127(5)
S3_2 S 0.32285(8) 0.00249(5) 0.73293(15)
C13_3 C 0.0975(3) 0.8949(2) 0.9449(6)
H9_3 H 0.1042 0.8706 0.9103
C17_3 C 0.1062(4) 0.9642(3) 0.9624(7)
H12_3 H 0.1195 0.9895 0.9404
N7_2 N 0.1173(3) 0.9301(2) 0.9127(5)
S1_2 S 0.17715(8) 0.99751(5) 0.73293(15)
W1_3 W 0.2500 1.0000 0.82547(3)
Cl2_2 Cl 0.40279(9) 0.92874(7) 0.92324(15)
S4_2 S 0.25336(7) 0.94328(7) 0.91790(14)
C13_4 C 0.4025(3) 0.1051(2) 0.9449(6)
H9_4 H 0.3958 0.1294 0.9103
C17_4 C 0.3938(4) 0.0358(3) 0.9624(7)
H12_4 H 0.3805 0.0105 0.9404
C14 C 0.4325(3) 0.6075(2) 0.9734(6)
H10 H 0.4452 0.6331 0.9525
C15 C 0.4441(3) 0.5724(2) 0.9216(5)
C16 C 0.4241(4) 0.5360(3) 0.9553(7)
H11 H 0.4308 0.5113 0.9226
C18 C 0.4743(3) 0.5731(3) 0.8284(6)
N8 N 0.4869(3) 0.5369(2) 0.7908(5)
N9 N 0.4868(2) 0.6095(2) 0.7918(4)
C31 C 0.5975(3) 0.6051(2) 0.4449(6)
H21 H 0.6042 0.6294 0.4103
C32 C 0.5675(3) 0.6075(2) 0.5266(6)
H22 H 0.5548 0.6331 0.5475
C33 C 0.5559(3) 0.5724(2) 0.5784(5)
C34 C 0.5759(4) 0.5360(3) 0.5447(7)
H23 H 0.5692 0.5113 0.5774
C35 C 0.6062(4) 0.5358(3) 0.4624(7)
H24 H 0.6195 0.5105 0.4404
C36 C 0.5257(3) 0.5731(3) 0.6716(6)
Cu7 Cu 0.68026(4) 0.56324(3) 0.31792(7)
N18 N 0.6173(3) 0.5699(2) 0.4127(5)
N20 N 0.5131(3) 0.5369(2) 0.7092(5)
N21 N 0.5132(2) 0.6095(2) 0.7082(4)
C31_2 C 0.9025(3) 0.3949(2) 0.4449(6)
H21_2 H 0.8958 0.3706 0.4103
C32_2 C 0.9325(3) 0.3925(2) 0.5266(6)
H22_2 H 0.9452 0.3669 0.5475
C33_2 C 0.9441(3) 0.4276(2) 0.5784(5)
C34_2 C 0.9241(4) 0.4640(3) 0.5447(7)
H23_2 H 0.9308 0.4887 0.5774
C35_2 C 0.8938(4) 0.4642(3) 0.4624(7)
H24_2 H 0.8805 0.4895 0.4404
C36_2 C 0.9743(3) 0.4269(3) 0.6716(6)
Cu7_2 Cu 0.81974(4) 0.43676(3) 0.31792(7)
N18_2 N 0.8827(3) 0.4301(2) 0.4127(5)
N20_2 N 0.9869(3) 0.4631(2) 0.7092(5)
N21_2 N 0.9868(2) 0.3905(2) 0.7082(4)
C1_3 C 0.6467(3) 0.3575(2) 0.2625(6)
H1_3 H 0.6302 0.3565 0.3226
C2_3 C 0.6478(4) 0.3224(3) 0.2095(6)
H2_3 H 0.6323 0.2980 0.2320
C3_3 C 0.6732(3) 0.3238(2) 0.1190(6)
C4_3 C 0.6945(3) 0.3599(2) 0.0870(5)
H3_3 H 0.7112 0.3615 0.0272
C5_3 C 0.6904(3) 0.3944(2) 0.1469(6)
H4_3 H 0.7043 0.4195 0.1246
C6_3 C 0.6762(4) 0.2856(3) 0.0581(6)
Cl1_3 Cl 0.59721(9) 0.42874(7) 0.42324(15)
Cu1_2 Cu 0.66912(4) 0.44424(3) 0.32926(7)
N1_2 N 0.6678(2) 0.39405(19) 0.2343(4)
N2_3 N 0.6580(4) 0.2497(2) 0.0963(5)
N3_3 N 0.6606(4) 0.2156(2) 0.0410(6)
S1_3 S 0.67715(8) 0.50249(5) 0.23293(15)
S2_3 S 0.74664(7) 0.44328(7) 0.41790(14)
W1_4 W 0.7500 0.5000 0.32547(3)
C25_3 C 0.6783(4) 0.7202(2) 0.0486(6)
C26_3 C 0.6778(4) 0.6840(2) 0.1105(6)
C27_3 C 0.6645(4) 0.6447(3) 0.0747(5)
H17_3 H 0.6551 0.6415 0.0101
C28_3 C 0.6655(3) 0.6107(2) 0.1356(6)
H18_3 H 0.6554 0.5849 0.1114
C29_3 C 0.6944(4) 0.6502(2) 0.2626(6)
H19_3 H 0.7060 0.6524 0.3263
C30_3 C 0.6922(4) 0.6862(3) 0.2062(6)
H20_3 H 0.7005 0.7118 0.2336
Cl2_3 Cl 0.90279(9) 0.57126(7) 0.42324(15)
Cu3_2 Cu 0.83088(4) 0.55576(3) 0.32926(7)
N11_2 N 0.8322(2) 0.60595(19) 0.2343(4)
N14_3 N 0.6961(3) 0.7894(2) 0.0301(5)
N15_3 N 0.6978(4) 0.7545(2) 0.0844(5)
N16_2 N 0.6808(3) 0.61349(18) 0.2294(4)
N17_2 N 0.8192(3) 0.38651(18) 0.2294(4)
S3_3 S 0.82285(8) 0.49751(5) 0.23293(15)
S4_3 S 0.75336(7) 0.55672(7) 0.41790(14)
C1_4 C 0.8533(3) 0.6425(2) 0.2625(6)
H1_4 H 0.8698 0.6435 0.3226
C2_4 C 0.8522(4) 0.6776(3) 0.2095(6)
H2_4 H 0.8677 0.7020 0.2320
C3_4 C 0.8268(3) 0.6762(2) 0.1190(6)
C4_4 C 0.8055(3) 0.6401(2) 0.0870(5)
H3_4 H 0.7888 0.6385 0.0272
C5_4 C 0.8096(3) 0.6056(2) 0.1469(6)
H4_4 H 0.7957 0.5805 0.1246
C6_4 C 0.8238(4) 0.7144(3) 0.0581(6)
N2_4 N 0.8420(4) 0.7503(2) 0.0963(5)
N3_4 N 0.8394(4) 0.7844(2) 0.0410(6)
C25_4 C 0.8217(4) 0.2798(2) 0.0486(6)
C26_4 C 0.8222(4) 0.3160(2) 0.1105(6)
C27_4 C 0.8355(4) 0.3553(3) 0.0747(5)
H17_4 H 0.8449 0.3585 0.0101
C28_4 C 0.8345(3) 0.3893(2) 0.1356(6)
H18_4 H 0.8446 0.4151 0.1114
C29_4 C 0.8056(4) 0.3498(2) 0.2626(6)
H19_4 H 0.7940 0.3476 0.3263
C30_4 C 0.8078(4) 0.3138(3) 0.2062(6)
H20_4 H 0.7995 0.2882 0.2336
N14_4 N 0.8039(3) 0.2106(2) 0.0301(5)
N15_4 N 0.8022(4) 0.2455(2) 0.0844(5)
C14_2 C 0.0675(3) 0.3925(2) 0.9734(6)
H10_2 H 0.0548 0.3669 0.9525
C15_2 C 0.0559(3) 0.4276(2) 0.9216(5)
C16_2 C 0.0759(4) 0.4640(3) 0.9553(7)
H11_2 H 0.0692 0.4887 0.9226
C18_2 C 0.0257(3) 0.4269(3) 0.8284(6)
N8_2 N 0.0131(3) 0.4631(2) 0.7908(5)
N9_2 N 0.0132(2) 0.3905(2) 0.7918(4)
C7_3 C 0.6783(4) 0.2202(2) 0.9514(6)
C8_3 C 0.6778(4) 0.1840(2) 0.8895(6)
C9_3 C 0.6645(4) 0.1447(3) 0.9253(5)
H5_3 H 0.6551 0.1415 0.9899
C10_3 C 0.6655(3) 0.1107(2) 0.8644(6)
H6_3 H 0.6554 0.0849 0.8886
C11_3 C 0.6944(4) 0.1502(2) 0.7374(6)
H7_3 H 0.7060 0.1524 0.6737
C12_3 C 0.6922(4) 0.1862(3) 0.7938(6)
H8_3 H 0.7005 0.2118 0.7664
N4_3 N 0.6961(3) 0.2894(2) 0.9699(5)
N5_3 N 0.6978(4) 0.2545(2) 0.9156(5)
N6_3 N 0.6808(3) 0.11349(18) 0.7706(4)
C19_3 C 0.6467(3) 0.8575(2) 0.7375(6)
H13_3 H 0.6302 0.8565 0.6774
C20_3 C 0.6478(4) 0.8224(3) 0.7905(6)
H14_3 H 0.6323 0.7980 0.7680
C21_3 C 0.6732(3) 0.8238(2) 0.8810(6)
C22_3 C 0.6945(3) 0.8599(2) 0.9130(5)
H15_3 H 0.7112 0.8615 0.9728
C23_3 C 0.6904(3) 0.8944(2) 0.8531(6)
H16_3 H 0.7043 0.9195 0.8754
C24_3 C 0.6762(4) 0.7856(3) 0.9419(6)
Cu4_3 Cu 0.66912(4) 0.94424(3) 0.67074(7)
Cu6_3 Cu 0.68026(4) 0.06324(3) 0.68208(7)
N10_3 N 0.6678(2) 0.89405(19) 0.7657(4)
N12_3 N 0.6580(4) 0.7497(2) 0.9037(5)
N13_3 N 0.6606(4) 0.7156(2) 0.9590(6)
C7_4 C 0.8217(4) 0.7798(2) 0.9514(6)
C8_4 C 0.8222(4) 0.8160(2) 0.8895(6)
C9_4 C 0.8355(4) 0.8553(3) 0.9253(5)
H5_4 H 0.8449 0.8585 0.9899
C10_4 C 0.8345(3) 0.8893(2) 0.8644(6)
H6_4 H 0.8446 0.9151 0.8886
C11_4 C 0.8056(4) 0.8498(2) 0.7374(6)
H7_4 H 0.7940 0.8476 0.6737
C12_4 C 0.8078(4) 0.8138(3) 0.7938(6)
H8_4 H 0.7995 0.7882 0.7664
N4_4 N 0.8039(3) 0.7106(2) 0.9699(5)
N5_4 N 0.8022(4) 0.7455(2) 0.9156(5)
N6_4 N 0.8192(3) 0.88651(18) 0.7706(4)
C19_4 C 0.8533(3) 0.1425(2) 0.7375(6)
H13_4 H 0.8698 0.1435 0.6774
C20_4 C 0.8522(4) 0.1776(3) 0.7905(6)
H14_4 H 0.8677 0.2020 0.7680
C21_4 C 0.8268(3) 0.1762(2) 0.8810(6)
C22_4 C 0.8055(3) 0.1401(2) 0.9130(5)
H15_4 H 0.7888 0.1385 0.9728
C23_4 C 0.8096(3) 0.1056(2) 0.8531(6)
H16_4 H 0.7957 0.0805 0.8754
C24_4 C 0.8238(4) 0.2144(3) 0.9419(6)
Cu4_4 Cu 0.83088(4) 0.05576(3) 0.67074(7)
Cu6_4 Cu 0.81974(4) 0.93676(3) 0.68208(7)
N10_4 N 0.8322(2) 0.10595(19) 0.7657(4)
N12_4 N 0.8420(4) 0.2503(2) 0.9037(5)
N13_4 N 0.8394(4) 0.2844(2) 0.9590(6)
C31_3 C 0.9025(3) 0.8949(2) 0.5551(6)
H21_3 H 0.8958 0.8706 0.5897
C32_3 C 0.9325(3) 0.8925(2) 0.4734(6)
H22_3 H 0.9452 0.8669 0.4525
C33_3 C 0.9441(3) 0.9276(2) 0.4216(5)
C34_3 C 0.9241(4) 0.9640(3) 0.4553(7)
H23_3 H 0.9308 0.9887 0.4226
C35_3 C 0.8938(4) 0.9642(3) 0.5376(7)
H24_3 H 0.8805 0.9895 0.5596
C36_3 C 0.9743(3) 0.9269(3) 0.3284(6)
N18_3 N 0.8827(3) 0.9301(2) 0.5873(5)
N20_3 N 0.9869(3) 0.9631(2) 0.2908(5)
N21_3 N 0.9868(2) 0.8905(2) 0.2918(4)
C14_3 C 0.4325(3) 0.1075(2) 0.0266(6)
H10_3 H 0.4452 0.1331 0.0475
C15_3 C 0.4441(3) 0.0724(2) 0.0784(5)
C16_3 C 0.4241(4) 0.0360(3) 0.0447(7)
H11_3 H 0.4308 0.0113 0.0774
C18_3 C 0.4743(3) 0.0731(3) 0.1716(6)
N8_3 N 0.4869(3) 0.0369(2) 0.2092(5)
N9_3 N 0.4868(2) 0.1095(2) 0.2082(4)
C31_4 C 0.5975(3) 0.1051(2) 0.5551(6)
H21_4 H 0.6042 0.1294 0.5897
C32_4 C 0.5675(3) 0.1075(2) 0.4734(6)
H22_4 H 0.5548 0.1331 0.4525
C33_4 C 0.5559(3) 0.0724(2) 0.4216(5)
C34_4 C 0.5759(4) 0.0360(3) 0.4553(7)
H23_4 H 0.5692 0.0113 0.4226
C35_4 C 0.6062(4) 0.0358(3) 0.5376(7)
H24_4 H 0.6195 0.0105 0.5596
C36_4 C 0.5257(3) 0.0731(3) 0.3284(6)
N18_4 N 0.6173(3) 0.0699(2) 0.5873(5)
N20_4 N 0.5131(3) 0.0369(2) 0.2908(5)
N21_4 N 0.5132(2) 0.1095(2) 0.2918(4)
Cl1_4 Cl 0.90279(9) 0.07126(7) 0.57676(15)
S2_4 S 0.75336(7) 0.05672(7) 0.58210(14)
W1_5 W 0.7500 0.0000 0.67453(3)
S3_4 S 0.67715(8) 0.00249(5) 0.76707(15)
S1_4 S 0.82285(8) 0.99751(5) 0.76707(15)
W1_6 W 0.7500 1.0000 0.67453(3)
Cl2_4 Cl 0.59721(9) 0.92874(7) 0.57676(15)
S4_4 S 0.74664(7) 0.94328(7) 0.58210(14)
C31_5 C 0.0975(3) 0.1051(2) 0.4449(6)
H21_5 H 0.1042 0.1294 0.4103
C32_5 C 0.0675(3) 0.1075(2) 0.5266(6)
H22_5 H 0.0548 0.1331 0.5475
C33_5 C 0.0559(3) 0.0724(2) 0.5784(5)
C34_5 C 0.0759(4) 0.0360(3) 0.5447(7)
H23_5 H 0.0692 0.0113 0.5774
C35_5 C 0.1062(4) 0.0358(3) 0.4624(7)
H24_5 H 0.1195 0.0105 0.4404
C36_5 C 0.0257(3) 0.0731(3) 0.6716(6)
Cu7_3 Cu 0.18026(4) 0.06324(3) 0.31792(7)
N18_5 N 0.1173(3) 0.0699(2) 0.4127(5)
N20_5 N 0.0131(3) 0.0369(2) 0.7092(5)
N21_5 N 0.0132(2) 0.1095(2) 0.7082(4)
C14_4 C 0.5675(3) 0.8925(2) 0.9734(6)
H10_4 H 0.5548 0.8669 0.9525
C15_4 C 0.5559(3) 0.9276(2) 0.9216(5)
C16_4 C 0.5759(4) 0.9640(3) 0.9553(7)
H11_4 H 0.5692 0.9887 0.9226
C18_4 C 0.5257(3) 0.9269(3) 0.8284(6)
N8_4 N 0.5131(3) 0.9631(2) 0.7908(5)
N9_4 N 0.5132(2) 0.8905(2) 0.7918(4)
C31_6 C 0.4025(3) 0.8949(2) 0.4449(6)
H21_6 H 0.3958 0.8706 0.4103
C32_6 C 0.4325(3) 0.8925(2) 0.5266(6)
H22_6 H 0.4452 0.8669 0.5475
C33_6 C 0.4441(3) 0.9276(2) 0.5784(5)
C34_6 C 0.4241(4) 0.9640(3) 0.5447(7)
H23_6 H 0.4308 0.9887 0.5774
C35_6 C 0.3938(4) 0.9642(3) 0.4624(7)
H24_6 H 0.3805 0.9895 0.4404
C36_6 C 0.4743(3) 0.9269(3) 0.6716(6)
Cu7_4 Cu 0.31974(4) 0.93676(3) 0.31792(7)
N18_6 N 0.3827(3) 0.9301(2) 0.4127(5)
N20_6 N 0.4869(3) 0.9631(2) 0.7092(5)
N21_6 N 0.4868(2) 0.8905(2) 0.7082(4)
S1_5 S 0.17715(8) 0.00249(5) 0.23293(15)
W1_7 W 0.2500 -0.0000 0.32547(3)
C25_5 C 0.1783(4) 0.2202(2) 0.0486(6)
C26_5 C 0.1778(4) 0.1840(2) 0.1105(6)
C27_5 C 0.1645(4) 0.1447(3) 0.0747(5)
H17_5 H 0.1551 0.1415 0.0101
C28_5 C 0.1655(3) 0.1107(2) 0.1356(6)
H18_5 H 0.1554 0.0849 0.1114
C29_5 C 0.1944(4) 0.1502(2) 0.2626(6)
H19_5 H 0.2060 0.1524 0.3263
C30_5 C 0.1922(4) 0.1862(3) 0.2062(6)
H20_5 H 0.2005 0.2118 0.2336
Cl2_5 Cl 0.40279(9) 0.07126(7) 0.42324(15)
Cu3_3 Cu 0.33088(4) 0.05576(3) 0.32926(7)
N11_3 N 0.3322(2) 0.10595(19) 0.2343(4)
N14_5 N 0.1961(3) 0.2894(2) 0.0301(5)
N15_5 N 0.1978(4) 0.2545(2) 0.0844(5)
N16_3 N 0.1808(3) 0.11349(18) 0.2294(4)
S4_5 S 0.25336(7) 0.05672(7) 0.41790(14)
C1_5 C 0.1467(3) 0.8575(2) 0.2625(6)
H1_5 H 0.1302 0.8565 0.3226
C2_5 C 0.1478(4) 0.8224(3) 0.2095(6)
H2_5 H 0.1323 0.7980 0.2320
C3_5 C 0.1732(3) 0.8238(2) 0.1190(6)
C4_5 C 0.1945(3) 0.8599(2) 0.0870(5)
H3_5 H 0.2112 0.8615 0.0272
C5_5 C 0.1904(3) 0.8944(2) 0.1469(6)
H4_5 H 0.2043 0.9195 0.1246
C6_5 C 0.1762(4) 0.7856(3) 0.0581(6)
Cl1_5 Cl 0.09721(9) 0.92874(7) 0.42324(15)
Cu1_3 Cu 0.16912(4) 0.94424(3) 0.32926(7)
N1_3 N 0.1678(2) 0.89405(19) 0.2343(4)
N2_5 N 0.1580(4) 0.7497(2) 0.0963(5)
N3_5 N 0.1606(4) 0.7156(2) 0.0410(6)
S2_5 S 0.24664(7) 0.94328(7) 0.41790(14)
W1_8 W 0.2500 1.0000 0.32547(3)
N17_3 N 0.3192(3) 0.88651(18) 0.2294(4)
S3_5 S 0.32285(8) 0.99751(5) 0.23293(15)
C1_6 C 0.3533(3) 0.1425(2) 0.2625(6)
H1_6 H 0.3698 0.1435 0.3226
C2_6 C 0.3522(4) 0.1776(3) 0.2095(6)
H2_6 H 0.3677 0.2020 0.2320
C3_6 C 0.3268(3) 0.1762(2) 0.1190(6)
C4_6 C 0.3055(3) 0.1401(2) 0.0870(5)
H3_6 H 0.2888 0.1385 0.0272
C5_6 C 0.3096(3) 0.1056(2) 0.1469(6)
H4_6 H 0.2957 0.0805 0.1246
C6_6 C 0.3238(4) 0.2144(3) 0.0581(6)
N2_6 N 0.3420(4) 0.2503(2) 0.0963(5)
N3_6 N 0.3394(4) 0.2844(2) 0.0410(6)
C25_6 C 0.3217(4) 0.7798(2) 0.0486(6)
C26_6 C 0.3222(4) 0.8160(2) 0.1105(6)
C27_6 C 0.3355(4) 0.8553(3) 0.0747(5)
H17_6 H 0.3449 0.8585 0.0101
C28_6 C 0.3345(3) 0.8893(2) 0.1356(6)
H18_6 H 0.3446 0.9151 0.1114
C29_6 C 0.3056(4) 0.8498(2) 0.2626(6)
H19_6 H 0.2940 0.8476 0.3263
C30_6 C 0.3078(4) 0.8138(3) 0.2062(6)
H20_6 H 0.2995 0.7882 0.2336
N14_6 N 0.3039(3) 0.7106(2) 0.0301(5)
N15_6 N 0.3022(4) 0.7455(2) 0.0844(5)
C13_5 C 0.9025(3) 0.1051(2) 0.0551(6)
H9_5 H 0.8958 0.1294 0.0897
C17_5 C 0.8938(4) 0.0358(3) 0.0376(7)
H12_5 H 0.8805 0.0105 0.0596
Cu2_2 Cu 0.81974(4) 0.06324(3) 0.18208(7)
N7_3 N 0.8827(3) 0.0699(2) 0.0873(5)
S1_6 S 0.82285(8) 0.00249(5) 0.26707(15)
W1_9 W 0.7500 -0.0000 0.17453(3)
C19_5 C 0.8533(3) 0.3575(2) 0.7625(6)
H13_5 H 0.8698 0.3565 0.8226
C20_5 C 0.8522(4) 0.3224(3) 0.7095(6)
H14_5 H 0.8677 0.2980 0.7320
C21_5 C 0.8268(3) 0.3238(2) 0.6190(6)
C22_5 C 0.8055(3) 0.3599(2) 0.5870(5)
H15_5 H 0.7888 0.3615 0.5272
C23_5 C 0.8096(3) 0.3944(2) 0.6469(6)
H16_5 H 0.7957 0.4195 0.6246
C24_5 C 0.8238(4) 0.2856(3) 0.5581(6)
C25_7 C 0.8217(4) 0.2202(2) 0.4514(6)
C26_7 C 0.8222(4) 0.1840(2) 0.3895(6)
C27_7 C 0.8355(4) 0.1447(3) 0.4253(5)
H17_7 H 0.8449 0.1415 0.4899
C28_7 C 0.8345(3) 0.1107(2) 0.3644(6)
H18_7 H 0.8446 0.0849 0.3886
C29_7 C 0.8056(4) 0.1502(2) 0.2374(6)
H19_7 H 0.7940 0.1524 0.1737
C30_7 C 0.8078(4) 0.1862(3) 0.2938(6)
H20_7 H 0.7995 0.2118 0.2664
Cl2_6 Cl 0.59721(9) 0.07126(7) 0.07676(15)
Cu3_4 Cu 0.66912(4) 0.05576(3) 0.17074(7)
Cu4_5 Cu 0.83088(4) 0.44424(3) 0.82926(7)
N10_5 N 0.8322(2) 0.39405(19) 0.7343(4)
N11_4 N 0.6678(2) 0.10595(19) 0.2657(4)
N12_5 N 0.8420(4) 0.2497(2) 0.5963(5)
N13_5 N 0.8394(4) 0.2156(2) 0.5410(6)
N14_7 N 0.8039(3) 0.2894(2) 0.4699(5)
N15_7 N 0.8022(4) 0.2545(2) 0.4156(5)
N16_4 N 0.8192(3) 0.11349(18) 0.2706(4)
S4_6 S 0.74664(7) 0.05672(7) 0.08210(14)
C1_7 C 0.8533(3) 0.8575(2) 0.2375(6)
H1_7 H 0.8698 0.8565 0.1774
C2_7 C 0.8522(4) 0.8224(3) 0.2905(6)
H2_7 H 0.8677 0.7980 0.2680
C3_7 C 0.8268(3) 0.8238(2) 0.3810(6)
C4_7 C 0.8055(3) 0.8599(2) 0.4130(5)
H3_7 H 0.7888 0.8615 0.4728
C5_7 C 0.8096(3) 0.8944(2) 0.3531(6)
H4_7 H 0.7957 0.9195 0.3754
C6_7 C 0.8238(4) 0.7856(3) 0.4419(6)
C7_5 C 0.8217(4) 0.7202(2) 0.5486(6)
C8_5 C 0.8222(4) 0.6840(2) 0.6105(6)
C9_5 C 0.8355(4) 0.6447(3) 0.5747(5)
H5_5 H 0.8449 0.6415 0.5101
C10_5 C 0.8345(3) 0.6107(2) 0.6356(6)
H6_5 H 0.8446 0.5849 0.6114
C11_5 C 0.8056(4) 0.6502(2) 0.7626(6)
H7_5 H 0.7940 0.6524 0.8263
C12_5 C 0.8078(4) 0.6862(3) 0.7062(6)
H8_5 H 0.7995 0.7118 0.7336
Cl1_6 Cl 0.90279(9) 0.92874(7) 0.07676(15)
Cu1_4 Cu 0.83088(4) 0.94424(3) 0.17074(7)
N1_4 N 0.8322(2) 0.89405(19) 0.2657(4)
N2_7 N 0.8420(4) 0.7497(2) 0.4037(5)
N3_7 N 0.8394(4) 0.7156(2) 0.4590(6)
N4_5 N 0.8039(3) 0.7894(2) 0.5301(5)
N5_5 N 0.8022(4) 0.7545(2) 0.5844(5)
N6_5 N 0.8192(3) 0.61349(18) 0.7294(4)
S2_6 S 0.75336(7) 0.94328(7) 0.08210(14)
W1_10 W 0.7500 1.0000 0.17453(3)
Cu5_2 Cu 0.68026(4) 0.93676(3) 0.18208(7)
Cu6_5 Cu 0.81974(4) 0.56324(3) 0.81792(7)
N17_4 N 0.6808(3) 0.88651(18) 0.2706(4)
N19_3 N 0.6173(3) 0.9301(2) 0.0873(5)
S3_6 S 0.67715(8) 0.99751(5) 0.26707(15)
C1_8 C 0.6467(3) 0.1425(2) 0.2375(6)
H1_8 H 0.6302 0.1435 0.1774
C2_8 C 0.6478(4) 0.1776(3) 0.2905(6)
H2_8 H 0.6323 0.2020 0.2680
C3_8 C 0.6732(3) 0.1762(2) 0.3810(6)
C4_8 C 0.6945(3) 0.1401(2) 0.4130(5)
H3_8 H 0.7112 0.1385 0.4728
C5_8 C 0.6904(3) 0.1056(2) 0.3531(6)
H4_8 H 0.7043 0.0805 0.3754
C6_8 C 0.6762(4) 0.2144(3) 0.4419(6)
C7_6 C 0.6783(4) 0.2798(2) 0.5486(6)
C8_6 C 0.6778(4) 0.3160(2) 0.6105(6)
C9_6 C 0.6645(4) 0.3553(3) 0.5747(5)
H5_6 H 0.6551 0.3585 0.5101
C10_6 C 0.6655(3) 0.3893(2) 0.6356(6)
H6_6 H 0.6554 0.4151 0.6114
C11_6 C 0.6944(4) 0.3498(2) 0.7626(6)
H7_6 H 0.7060 0.3476 0.8263
C12_6 C 0.6922(4) 0.3138(3) 0.7062(6)
H8_6 H 0.7005 0.2882 0.7336
N2_8 N 0.6580(4) 0.2503(2) 0.4037(5)
N3_8 N 0.6606(4) 0.2844(2) 0.4590(6)
N4_6 N 0.6961(3) 0.2106(2) 0.5301(5)
N5_6 N 0.6978(4) 0.2455(2) 0.5844(5)
N6_6 N 0.6808(3) 0.38651(18) 0.7294(4)
Cu6_6 Cu 0.68026(4) 0.43676(3) 0.81792(7)
C13_6 C 0.5975(3) 0.8949(2) 0.0551(6)
H9_6 H 0.6042 0.8706 0.0897
C17_6 C 0.6062(4) 0.9642(3) 0.0376(7)
H12_6 H 0.6195 0.9895 0.0596
C19_6 C 0.6467(3) 0.6425(2) 0.7625(6)
H13_6 H 0.6302 0.6435 0.8226
C20_6 C 0.6478(4) 0.6776(3) 0.7095(6)
H14_6 H 0.6323 0.7020 0.7320
C21_6 C 0.6732(3) 0.6762(2) 0.6190(6)
C22_6 C 0.6945(3) 0.6401(2) 0.5870(5)
H15_6 H 0.7112 0.6385 0.5272
C23_6 C 0.6904(3) 0.6056(2) 0.6469(6)
H16_6 H 0.7043 0.5805 0.6246
C24_6 C 0.6762(4) 0.7144(3) 0.5581(6)
C25_8 C 0.6783(4) 0.7798(2) 0.4514(6)
C26_8 C 0.6778(4) 0.8160(2) 0.3895(6)
C27_8 C 0.6645(4) 0.8553(3) 0.4253(5)
H17_8 H 0.6551 0.8585 0.4899
C28_8 C 0.6655(3) 0.8893(2) 0.3644(6)
H18_8 H 0.6554 0.9151 0.3886
C29_8 C 0.6944(4) 0.8498(2) 0.2374(6)
H19_8 H 0.7060 0.8476 0.1737
C30_8 C 0.6922(4) 0.8138(3) 0.2938(6)
H20_8 H 0.7005 0.7882 0.2664
Cu4_6 Cu 0.66912(4) 0.55576(3) 0.82926(7)
N10_6 N 0.6678(2) 0.60595(19) 0.7343(4)
N12_6 N 0.6580(4) 0.7503(2) 0.5963(5)
N13_6 N 0.6606(4) 0.7844(2) 0.5410(6)
N14_8 N 0.6961(3) 0.7106(2) 0.4699(5)
N15_8 N 0.6978(4) 0.7455(2) 0.4156(5)
C13_7 C 0.5975(3) 0.3949(2) 0.9449(6)
H9_7 H 0.6042 0.3706 0.9103
C17_7 C 0.6062(4) 0.4642(3) 0.9624(7)
H12_7 H 0.6195 0.4895 0.9404
Cl1_7 Cl 0.59721(9) 0.57126(7) 0.92324(15)
N7_4 N 0.6173(3) 0.4301(2) 0.9127(5)
S1_7 S 0.67715(8) 0.49751(5) 0.73293(15)
S2_7 S 0.74664(7) 0.55672(7) 0.91790(14)
W1_11 W 0.7500 0.5000 0.82547(3)
Cl2_7 Cl 0.90279(9) 0.42874(7) 0.92324(15)
N19_4 N 0.8827(3) 0.5699(2) 0.9127(5)
S3_7 S 0.82285(8) 0.50249(5) 0.73293(15)
S4_7 S 0.75336(7) 0.44328(7) 0.91790(14)
C13_8 C 0.9025(3) 0.6051(2) 0.9449(6)
H9_8 H 0.8958 0.6294 0.9103
C17_8 C 0.8938(4) 0.5358(3) 0.9624(7)
H12_8 H 0.8805 0.5105 0.9404
C14_5 C 0.9325(3) 0.1075(2) 0.9734(6)
H10_5 H 0.9452 0.1331 0.9525
C15_5 C 0.9441(3) 0.0724(2) 0.9216(5)
C16_5 C 0.9241(4) 0.0360(3) 0.9553(7)
H11_5 H 0.9308 0.0113 0.9226
C18_5 C 0.9743(3) 0.0731(3) 0.8284(6)
N8_5 N 0.9869(3) 0.0369(2) 0.7908(5)
N9_5 N 0.9868(2) 0.1095(2) 0.7918(4)
C19_7 C 0.1467(3) 0.3575(2) 0.7375(6)
H13_7 H 0.1302 0.3565 0.6774
C20_7 C 0.1478(4) 0.3224(3) 0.7905(6)
H14_7 H 0.1323 0.2980 0.7680
C21_7 C 0.1732(3) 0.3238(2) 0.8810(6)
C22_7 C 0.1945(3) 0.3599(2) 0.9130(5)
H15_7 H 0.2112 0.3615 0.9728
C23_7 C 0.1904(3) 0.3944(2) 0.8531(6)
H16_7 H 0.2043 0.4195 0.8754
C24_7 C 0.1762(4) 0.2856(3) 0.9419(6)
Cu4_7 Cu 0.16912(4) 0.44424(3) 0.67074(7)
N10_7 N 0.1678(2) 0.39405(19) 0.7657(4)
N12_7 N 0.1580(4) 0.2497(2) 0.9037(5)
N13_7 N 0.1606(4) 0.2156(2) 0.9590(6)
C7_7 C 0.1783(4) 0.7202(2) 0.9514(6)
C8_7 C 0.1778(4) 0.6840(2) 0.8895(6)
C9_7 C 0.1645(4) 0.6447(3) 0.9253(5)
H5_7 H 0.1551 0.6415 0.9899
C10_7 C 0.1655(3) 0.6107(2) 0.8644(6)
H6_7 H 0.1554 0.5849 0.8886
C11_7 C 0.1944(4) 0.6502(2) 0.7374(6)
H7_7 H 0.2060 0.6524 0.6737
C12_7 C 0.1922(4) 0.6862(3) 0.7938(6)
H8_7 H 0.2005 0.7118 0.7664
N4_7 N 0.1961(3) 0.7894(2) 0.9699(5)
N5_7 N 0.1978(4) 0.7545(2) 0.9156(5)
N6_7 N 0.1808(3) 0.61349(18) 0.7706(4)
Cu6_7 Cu 0.18026(4) 0.56324(3) 0.68208(7)
C7_8 C 0.3217(4) 0.2798(2) 0.9514(6)
C8_8 C 0.3222(4) 0.3160(2) 0.8895(6)
C9_8 C 0.3355(4) 0.3553(3) 0.9253(5)
H5_8 H 0.3449 0.3585 0.9899
C10_8 C 0.3345(3) 0.3893(2) 0.8644(6)
H6_8 H 0.3446 0.4151 0.8886
C11_8 C 0.3056(4) 0.3498(2) 0.7374(6)
H7_8 H 0.2940 0.3476 0.6737
C12_8 C 0.3078(4) 0.3138(3) 0.7938(6)
H8_8 H 0.2995 0.2882 0.7664
N4_8 N 0.3039(3) 0.2106(2) 0.9699(5)
N5_8 N 0.3022(4) 0.2455(2) 0.9156(5)
N6_8 N 0.3192(3) 0.38651(18) 0.7706(4)
Cu6_8 Cu 0.31974(4) 0.43676(3) 0.68208(7)
C19_8 C 0.3533(3) 0.6425(2) 0.7375(6)
H13_8 H 0.3698 0.6435 0.6774
C20_8 C 0.3522(4) 0.6776(3) 0.7905(6)
H14_8 H 0.3677 0.7020 0.7680
C21_8 C 0.3268(3) 0.6762(2) 0.8810(6)
C22_8 C 0.3055(3) 0.6401(2) 0.9130(5)
H15_8 H 0.2888 0.6385 0.9728
C23_8 C 0.3096(3) 0.6056(2) 0.8531(6)
H16_8 H 0.2957 0.5805 0.8754
C24_8 C 0.3238(4) 0.7144(3) 0.9419(6)
Cu4_8 Cu 0.33088(4) 0.55576(3) 0.67074(7)
N10_8 N 0.3322(2) 0.60595(19) 0.7657(4)
N12_8 N 0.3420(4) 0.7503(2) 0.9037(5)
N13_8 N 0.3394(4) 0.7844(2) 0.9590(6)
C14_6 C 0.5675(3) 0.3925(2) 0.0266(6)
H10_6 H 0.5548 0.3669 0.0475
C15_6 C 0.5559(3) 0.4276(2) 0.0784(5)
C16_6 C 0.5759(4) 0.4640(3) 0.0447(7)
H11_6 H 0.5692 0.4887 0.0774
C18_6 C 0.5257(3) 0.4269(3) 0.1716(6)
N8_6 N 0.5131(3) 0.4631(2) 0.2092(5)
N9_6 N 0.5132(2) 0.3905(2) 0.2082(4)
C31_7 C 0.4025(3) 0.3949(2) 0.5551(6)
H21_7 H 0.3958 0.3706 0.5897
C32_7 C 0.4325(3) 0.3925(2) 0.4734(6)
H22_7 H 0.4452 0.3669 0.4525
C33_7 C 0.4441(3) 0.4276(2) 0.4216(5)
C34_7 C 0.4241(4) 0.4640(3) 0.4553(7)
H23_7 H 0.4308 0.4887 0.4226
C35_7 C 0.3938(4) 0.4642(3) 0.5376(7)
H24_7 H 0.3805 0.4895 0.5596
C36_7 C 0.4743(3) 0.4269(3) 0.3284(6)
N18_7 N 0.3827(3) 0.4301(2) 0.5873(5)
N20_7 N 0.4869(3) 0.4631(2) 0.2908(5)
N21_7 N 0.4868(2) 0.3905(2) 0.2918(4)
C31_8 C 0.0975(3) 0.6051(2) 0.5551(6)
H21_8 H 0.1042 0.6294 0.5897
C32_8 C 0.0675(3) 0.6075(2) 0.4734(6)
H22_8 H 0.0548 0.6331 0.4525
C33_8 C 0.0559(3) 0.5724(2) 0.4216(5)
C34_8 C 0.0759(4) 0.5360(3) 0.4553(7)
H23_8 H 0.0692 0.5113 0.4226
C35_8 C 0.1062(4) 0.5358(3) 0.5376(7)
H24_8 H 0.1195 0.5105 0.5596
C36_8 C 0.0257(3) 0.5731(3) 0.3284(6)
N18_8 N 0.1173(3) 0.5699(2) 0.5873(5)
N20_8 N 0.0131(3) 0.5369(2) 0.2908(5)
N21_8 N 0.0132(2) 0.6095(2) 0.2918(4)
Cl1_8 Cl 0.40279(9) 0.57126(7) 0.57676(15)
S1_8 S 0.32285(8) 0.49751(5) 0.76707(15)
S2_8 S 0.25336(7) 0.55672(7) 0.58210(14)
W1_12 W 0.2500 0.5000 0.67453(3)
Cl2_8 Cl 0.09721(9) 0.42874(7) 0.57676(15)
S3_8 S 0.17715(8) 0.50249(5) 0.76707(15)
S4_8 S 0.24664(7) 0.44328(7) 0.58210(14)
C14_7 C 0.9325(3) 0.6075(2) 0.0266(6)
H10_7 H 0.9452 0.6331 0.0475
C15_7 C 0.9441(3) 0.5724(2) 0.0784(5)
C16_7 C 0.9241(4) 0.5360(3) 0.0447(7)
H11_7 H 0.9308 0.5113 0.0774
C18_7 C 0.9743(3) 0.5731(3) 0.1716(6)
N8_7 N 0.9869(3) 0.5369(2) 0.2092(5)
N9_7 N 0.9868(2) 0.6095(2) 0.2082(4)
C14_8 C 0.0675(3) 0.8925(2) 0.0266(6)
H10_8 H 0.0548 0.8669 0.0475
C15_8 C 0.0559(3) 0.9276(2) 0.0784(5)
C16_8 C 0.0759(4) 0.9640(3) 0.0447(7)
H11_8 H 0.0692 0.9887 0.0774
C18_8 C 0.0257(3) 0.9269(3) 0.1716(6)
N8_8 N 0.0131(3) 0.9631(2) 0.2092(5)
N9_8 N 0.0132(2) 0.8905(2) 0.2082(4)
loop_
_geom_bond_atom_site_label_1
_geom_bond_atom_site_label_2
_geom_bond_site_symmetry_1
_geom_bond_site_symmetry_2
C1 H1 1_555 1_555
C2 C1 1_555 1_555
H2 C2 1_555 1_555
C3 C2 1_555 1_555
C4 C3 1_555 1_555
H3 C4 1_555 1_555
C5 C4 1_555 1_555
H4 C5 1_555 1_555
C6 C3 1_555 1_555
C7 C8 1_555 1_555
C8 C9 1_555 1_555
C9 H5 1_555 1_555
C10 C9 1_555 1_555
H6 C10 1_555 1_555
C11 H7 1_555 1_555
C12 C8 1_555 1_555
H8 C12 1_555 1_555
C13 H9 1_555 1_555
H12 C17 1_555 1_555
Cl1 Cu1 1_555 1_555
Cu1 N1 1_555 1_555
Cu2 N7 1_555 1_555
N1 C1 1_555 1_555
N2 C6 1_555 1_555
N3 C7 1_555 1_555
N4 C6 1_555 1_555
N5 C7 1_555 1_555
N6 C10 1_555 1_555
N7 C13 1_555 1_555
S1 Cu1 1_555 1_555
S2 Cu1 1_555 1_555
W1 S1 1_555 1_555
C19 H13 1_555 1_555
C20 C19 1_555 1_555
H14 C20 1_555 1_555
C21 C20 1_555 1_555
C22 C21 1_555 1_555
H15 C22 1_555 1_555
C23 C22 1_555 1_555
H16 C23 1_555 1_555
C24 C21 1_555 1_555
C25 C26 1_555 1_555
C26 C27 1_555 1_555
C27 H17 1_555 1_555
C28 C27 1_555 1_555
H18 C28 1_555 1_555
C29 H19 1_555 1_555
C30 C26 1_555 1_555
H20 C30 1_555 1_555
Cl2 Cu3 1_555 1_555
Cu3 N11 1_555 1_555
Cu4 N10 1_555 1_555
Cu5 S2 1_555 1_555
Cu6 N6 1_555 1_555
N10 C19 1_555 1_555
N12 C24 1_555 1_555
N13 C25 1_555 1_555
N14 C24 1_555 1_555
N15 C25 1_555 1_555
N16 Cu2 1_555 1_555
N17 Cu5 1_555 1_555
N19 Cu5 1_555 1_555
S3 W1 1_555 1_555
S4 Cu2 1_555 1_555
C5 N1 1_555 1_555
C11 C12 1_555 1_555
C11 N6 1_555 1_555
C17 N7 1_555 1_555
Cu2 S1 1_555 1_555
N2 N3 1_555 1_555
N4 N5 1_555 1_555
S2 W1 1_555 1_555
W1 S4 1_555 1_555
C23 N10 1_555 1_555
C28 N16 1_555 1_555
C29 C30 1_555 1_555
C29 N16 1_555 1_555
Cu3 S3 1_555 1_555
Cu3 S4 1_555 1_555
Cu5 S3 1_555 1_555
N12 N13 1_555 1_555
N14 N15 1_555 1_555
C1_2 H1_2 1_555 1_555
C2_2 C1_2 1_555 1_555
H2_2 C2_2 1_555 1_555
C3_2 C2_2 1_555 1_555
C4_2 C3_2 1_555 1_555
H3_2 C4_2 1_555 1_555
C5_2 C4_2 1_555 1_555
H4_2 C5_2 1_555 1_555
C6_2 C3_2 1_555 1_555
C7_2 C8_2 1_555 1_555
C8_2 C9_2 1_555 1_555
C9_2 H5_2 1_555 1_555
C10_2 C9_2 1_555 1_555
H6_2 C10_2 1_555 1_555
C11_2 H7_2 1_555 1_555
C12_2 C8_2 1_555 1_555
H8_2 C12_2 1_555 1_555
C13_2 H9_2 1_555 1_555
H12_2 C17_2 1_555 1_555
N11 C1_2 1_555 1_555
N2_2 C6_2 1_555 1_555
N3_2 C7_2 1_555 1_555
N4_2 C6_2 1_555 1_555
N5_2 C7_2 1_555 1_555
N6_2 C10_2 1_555 1_555
N19 C13_2 1_555 1_555
C19_2 H13_2 1_555 1_555
C20_2 C19_2 1_555 1_555
H14_2 C20_2 1_555 1_555
C21_2 C20_2 1_555 1_555
C22_2 C21_2 1_555 1_555
H15_2 C22_2 1_555 1_555
C23_2 C22_2 1_555 1_555
H16_2 C23_2 1_555 1_555
C24_2 C21_2 1_555 1_555
C25_2 C26_2 1_555 1_555
C26_2 C27_2 1_555 1_555
C27_2 H17_2 1_555 1_555
C28_2 C27_2 1_555 1_555
H18_2 C28_2 1_555 1_555
C29_2 H19_2 1_555 1_555
C30_2 C26_2 1_555 1_555
H20_2 C30_2 1_555 1_555
Cu4_2 N10_2 1_555 1_555
Cu6_2 N6_2 1_555 1_555
N10_2 C19_2 1_555 1_555
N12_2 C24_2 1_555 1_555
N13_2 C25_2 1_555 1_555
N14_2 C24_2 1_555 1_555
N15_2 C25_2 1_555 1_555
C5_2 N11 1_555 1_555
C11_2 C12_2 1_555 1_555
C11_2 N6_2 1_555 1_555
C17_2 N19 1_555 1_555
N2_2 N3_2 1_555 1_555
N4_2 N5_2 1_555 1_555
C23_2 N10_2 1_555 1_555
C28_2 N17 1_555 1_555
C29_2 C30_2 1_555 1_555
C29_2 N17 1_555 1_555
N12_2 N13_2 1_555 1_555
N14_2 N15_2 1_555 1_555
Cl1_2 Cu4_2 1_555 1_555
S2_2 Cu4_2 1_555 1_555
Cu6 S2_2 1_555 1_555
N19_2 Cu6 1_555 1_555
S3_2 W1_2 1_555 1_555
S2_2 W1_2 1_555 1_555
Cu6 S3_2 1_555 1_555
C13_3 H9_3 1_555 1_555
H12_3 C17_3 1_555 1_555
Cu6_2 N7_2 1_555 1_555
N7_2 C13_3 1_555 1_555
W1_3 S1_2 1_555 1_555
Cl2_2 Cu4 1_555 1_555
S4_2 Cu6_2 1_555 1_555
C17_3 N7_2 1_555 1_555
Cu6_2 S1_2 1_555 1_555
W1_3 S4_2 1_555 1_555
Cu4 S4_2 1_555 1_555
C13_4 H9_4 1_555 1_555
H12_4 C17_4 1_555 1_555
N19_2 C13_4 1_555 1_555
C17_4 N19_2 1_555 1_555
H10 C14 1_555 1_555
C15 C14 1_555 1_555
C16 C15 1_555 1_555
H11 C16 1_555 1_555
C18 C15 1_555 1_555
N8 C18 1_555 1_555
N9 C18 1_555 1_555
C31 H21 1_555 1_555
C32 C31 1_555 1_555
H22 C32 1_555 1_555
C33 C32 1_555 1_555
C34 C33 1_555 1_555
H23 C34 1_555 1_555
C35 C34 1_555 1_555
H24 C35 1_555 1_555
C36 C33 1_555 1_555
Cu7 N18 1_555 1_555
N18 C31 1_555 1_555
N20 N8 1_555 1_555
N21 N9 1_555 1_555
C35 N18 1_555 1_555
C36 N20 1_555 1_555
C36 N21 1_555 1_555
C31_2 H21_2 1_555 1_555
C32_2 C31_2 1_555 1_555
H22_2 C32_2 1_555 1_555
C33_2 C32_2 1_555 1_555
C34_2 C33_2 1_555 1_555
H23_2 C34_2 1_555 1_555
C35_2 C34_2 1_555 1_555
H24_2 C35_2 1_555 1_555
C36_2 C33_2 1_555 1_555
Cu7_2 N18_2 1_555 1_555
N18_2 C31_2 1_555 1_555
C35_2 N18_2 1_555 1_555
C36_2 N20_2 1_555 1_555
C36_2 N21_2 1_555 1_555
C1_3 H1_3 1_555 1_555
C2_3 C1_3 1_555 1_555
H2_3 C2_3 1_555 1_555
C3_3 C2_3 1_555 1_555
C4_3 C3_3 1_555 1_555
H3_3 C4_3 1_555 1_555
C5_3 C4_3 1_555 1_555
H4_3 C5_3 1_555 1_555
C6_3 C3_3 1_555 1_555
Cl1_3 Cu1_2 1_555 1_555
Cu1_2 N1_2 1_555 1_555
N1_2 C1_3 1_555 1_555
N2_3 C6_3 1_555 1_555
S1_3 Cu1_2 1_555 1_555
S2_3 Cu1_2 1_555 1_555
W1_4 S1_3 1_555 1_555
C25_3 C26_3 1_555 1_555
C26_3 C27_3 1_555 1_555
C27_3 H17_3 1_555 1_555
C28_3 C27_3 1_555 1_555
H18_3 C28_3 1_555 1_555
C29_3 H19_3 1_555 1_555
C30_3 C26_3 1_555 1_555
H20_3 C30_3 1_555 1_555
Cl2_3 Cu3_2 1_555 1_555
Cu3_2 N11_2 1_555 1_555
Cu7_2 S2_3 1_555 1_555
N15_3 C25_3 1_555 1_555
N16_2 Cu7 1_555 1_555
N17_2 Cu7_2 1_555 1_555
S3_3 W1_4 1_555 1_555
S4_3 Cu7 1_555 1_555
C5_3 N1_2 1_555 1_555
Cu7 S1_3 1_555 1_555
N2_3 N3_3 1_555 1_555
S2_3 W1_4 1_555 1_555
W1_4 S4_3 1_555 1_555
C28_3 N16_2 1_555 1_555
C29_3 C30_3 1_555 1_555
C29_3 N16_2 1_555 1_555
Cu3_2 S3_3 1_555 1_555
Cu3_2 S4_3 1_555 1_555
Cu7_2 S3_3 1_555 1_555
N14_3 N15_3 1_555 1_555
C1_4 H1_4 1_555 1_555
C2_4 C1_4 1_555 1_555
H2_4 C2_4 1_555 1_555
C3_4 C2_4 1_555 1_555
C4_4 C3_4 1_555 1_555
H3_4 C4_4 1_555 1_555
C5_4 C4_4 1_555 1_555
H4_4 C5_4 1_555 1_555
C6_4 C3_4 1_555 1_555
N11_2 C1_4 1_555 1_555
N2_4 C6_4 1_555 1_555
C25_4 C26_4 1_555 1_555
C26_4 C27_4 1_555 1_555
C27_4 H17_4 1_555 1_555
C28_4 C27_4 1_555 1_555
H18_4 C28_4 1_555 1_555
C29_4 H19_4 1_555 1_555
C30_4 C26_4 1_555 1_555
H20_4 C30_4 1_555 1_555
N15_4 C25_4 1_555 1_555
C5_4 N11_2 1_555 1_555
N2_4 N3_4 1_555 1_555
C28_4 N17_2 1_555 1_555
C29_4 C30_4 1_555 1_555
C29_4 N17_2 1_555 1_555
N14_4 N15_4 1_555 1_555
H10_2 C14_2 1_555 1_555
C15_2 C14_2 1_555 1_555
C16_2 C15_2 1_555 1_555
H11_2 C16_2 1_555 1_555
C18_2 C15_2 1_555 1_555
N8_2 C18_2 1_555 1_555
N9_2 C18_2 1_555 1_555
C7_3 C8_3 1_555 1_555
C8_3 C9_3 1_555 1_555
C9_3 H5_3 1_555 1_555
C10_3 C9_3 1_555 1_555
H6_3 C10_3 1_555 1_555
C11_3 H7_3 1_555 1_555
C12_3 C8_3 1_555 1_555
H8_3 C12_3 1_555 1_555
N5_3 C7_3 1_555 1_555
N6_3 C10_3 1_555 1_555
C19_3 H13_3 1_555 1_555
C20_3 C19_3 1_555 1_555
H14_3 C20_3 1_555 1_555
C21_3 C20_3 1_555 1_555
C22_3 C21_3 1_555 1_555
H15_3 C22_3 1_555 1_555
C23_3 C22_3 1_555 1_555
H16_3 C23_3 1_555 1_555
C24_3 C21_3 1_555 1_555
Cu4_3 N10_3 1_555 1_555
Cu6_3 N6_3 1_555 1_555
N10_3 C19_3 1_555 1_555
N12_3 C24_3 1_555 1_555
C11_3 C12_3 1_555 1_555
C11_3 N6_3 1_555 1_555
N4_3 N5_3 1_555 1_555
C23_3 N10_3 1_555 1_555
N12_3 N13_3 1_555 1_555
C7_4 C8_4 1_555 1_555
C8_4 C9_4 1_555 1_555
C9_4 H5_4 1_555 1_555
C10_4 C9_4 1_555 1_555
H6_4 C10_4 1_555 1_555
C11_4 H7_4 1_555 1_555
C12_4 C8_4 1_555 1_555
H8_4 C12_4 1_555 1_555
N5_4 C7_4 1_555 1_555
N6_4 C10_4 1_555 1_555
C19_4 H13_4 1_555 1_555
C20_4 C19_4 1_555 1_555
H14_4 C20_4 1_555 1_555
C21_4 C20_4 1_555 1_555
C22_4 C21_4 1_555 1_555
H15_4 C22_4 1_555 1_555
C23_4 C22_4 1_555 1_555
H16_4 C23_4 1_555 1_555
C24_4 C21_4 1_555 1_555
Cu4_4 N10_4 1_555 1_555
Cu6_4 N6_4 1_555 1_555
N10_4 C19_4 1_555 1_555
N12_4 C24_4 1_555 1_555
C11_4 C12_4 1_555 1_555
C11_4 N6_4 1_555 1_555
N4_4 N5_4 1_555 1_555
C23_4 N10_4 1_555 1_555
N12_4 N13_4 1_555 1_555
C31_3 H21_3 1_555 1_555
C32_3 C31_3 1_555 1_555
H22_3 C32_3 1_555 1_555
C33_3 C32_3 1_555 1_555
C34_3 C33_3 1_555 1_555
H23_3 C34_3 1_555 1_555
C35_3 C34_3 1_555 1_555
H24_3 C35_3 1_555 1_555
C36_3 C33_3 1_555 1_555
Cu6_4 N18_3 1_555 1_555
N18_3 C31_3 1_555 1_555
C35_3 N18_3 1_555 1_555
C36_3 N20_3 1_555 1_555
C36_3 N21_3 1_555 1_555
H10_3 C14_3 1_555 1_555
C15_3 C14_3 1_555 1_555
C16_3 C15_3 1_555 1_555
H11_3 C16_3 1_555 1_555
C18_3 C15_3 1_555 1_555
N8_3 C18_3 1_555 1_555
N9_3 C18_3 1_555 1_555
C31_4 H21_4 1_555 1_555
C32_4 C31_4 1_555 1_555
H22_4 C32_4 1_555 1_555
C33_4 C32_4 1_555 1_555
C34_4 C33_4 1_555 1_555
H23_4 C34_4 1_555 1_555
C35_4 C34_4 1_555 1_555
H24_4 C35_4 1_555 1_555
C36_4 C33_4 1_555 1_555
Cu6_3 N18_4 1_555 1_555
N18_4 C31_4 1_555 1_555
N20_4 N8_3 1_555 1_555
N21_4 N9_3 1_555 1_555
C35_4 N18_4 1_555 1_555
C36_4 N20_4 1_555 1_555
C36_4 N21_4 1_555 1_555
Cl1_4 Cu4_4 1_555 1_555
S2_4 Cu4_4 1_555 1_555
Cu6_3 S2_4 1_555 1_555
S3_4 W1_5 1_555 1_555
S2_4 W1_5 1_555 1_555
Cu6_3 S3_4 1_555 1_555
W1_6 S1_4 1_555 1_555
Cl2_4 Cu4_3 1_555 1_555
S4_4 Cu6_4 1_555 1_555
Cu6_4 S1_4 1_555 1_555
W1_6 S4_4 1_555 1_555
Cu4_3 S4_4 1_555 1_555
C31_5 H21_5 1_555 1_555
C32_5 C31_5 1_555 1_555
H22_5 C32_5 1_555 1_555
C33_5 C32_5 1_555 1_555
C34_5 C33_5 1_555 1_555
H23_5 C34_5 1_555 1_555
C35_5 C34_5 1_555 1_555
H24_5 C35_5 1_555 1_555
C36_5 C33_5 1_555 1_555
Cu7_3 N18_5 1_555 1_555
N18_5 C31_5 1_555 1_555
C35_5 N18_5 1_555 1_555
C36_5 N20_5 1_555 1_555
C36_5 N21_5 1_555 1_555
H10_4 C14_4 1_555 1_555
C15_4 C14_4 1_555 1_555
C16_4 C15_4 1_555 1_555
H11_4 C16_4 1_555 1_555
C18_4 C15_4 1_555 1_555
N8_4 C18_4 1_555 1_555
N9_4 C18_4 1_555 1_555
C31_6 H21_6 1_555 1_555
C32_6 C31_6 1_555 1_555
H22_6 C32_6 1_555 1_555
C33_6 C32_6 1_555 1_555
C34_6 C33_6 1_555 1_555
H23_6 C34_6 1_555 1_555
C35_6 C34_6 1_555 1_555
H24_6 C35_6 1_555 1_555
C36_6 C33_6 1_555 1_555
Cu7_4 N18_6 1_555 1_555
N18_6 C31_6 1_555 1_555
N20_6 N8_4 1_555 1_555
N21_6 N9_4 1_555 1_555
C35_6 N18_6 1_555 1_555
C36_6 N20_6 1_555 1_555
C36_6 N21_6 1_555 1_555
W1_7 S1_5 1_555 1_555
C25_5 C26_5 1_555 1_555
C26_5 C27_5 1_555 1_555
C27_5 H17_5 1_555 1_555
C28_5 C27_5 1_555 1_555
H18_5 C28_5 1_555 1_555
C29_5 H19_5 1_555 1_555
C30_5 C26_5 1_555 1_555
H20_5 C30_5 1_555 1_555
Cl2_5 Cu3_3 1_555 1_555
Cu3_3 N11_3 1_555 1_555
N15_5 C25_5 1_555 1_555
N16_3 Cu7_3 1_555 1_555
S4_5 Cu7_3 1_555 1_555
Cu7_3 S1_5 1_555 1_555
W1_7 S4_5 1_555 1_555
C28_5 N16_3 1_555 1_555
C29_5 C30_5 1_555 1_555
C29_5 N16_3 1_555 1_555
Cu3_3 S4_5 1_555 1_555
N14_5 N15_5 1_555 1_555
C1_5 H1_5 1_555 1_555
C2_5 C1_5 1_555 1_555
H2_5 C2_5 1_555 1_555
C3_5 C2_5 1_555 1_555
C4_5 C3_5 1_555 1_555
H3_5 C4_5 1_555 1_555
C5_5 C4_5 1_555 1_555
H4_5 C5_5 1_555 1_555
C6_5 C3_5 1_555 1_555
Cl1_5 Cu1_3 1_555 1_555
Cu1_3 N1_3 1_555 1_555
N1_3 C1_5 1_555 1_555
N2_5 C6_5 1_555 1_555
S2_5 Cu1_3 1_555 1_555
Cu7_4 S2_5 1_555 1_555
N17_3 Cu7_4 1_555 1_555
S3_5 W1_8 1_555 1_555
C5_5 N1_3 1_555 1_555
N2_5 N3_5 1_555 1_555
S2_5 W1_8 1_555 1_555
Cu7_4 S3_5 1_555 1_555
C1_6 H1_6 1_555 1_555
C2_6 C1_6 1_555 1_555
H2_6 C2_6 1_555 1_555
C3_6 C2_6 1_555 1_555
C4_6 C3_6 1_555 1_555
H3_6 C4_6 1_555 1_555
C5_6 C4_6 1_555 1_555
H4_6 C5_6 1_555 1_555
C6_6 C3_6 1_555 1_555
N11_3 C1_6 1_555 1_555
N2_6 C6_6 1_555 1_555
C5_6 N11_3 1_555 1_555
N2_6 N3_6 1_555 1_555
C25_6 C26_6 1_555 1_555
C26_6 C27_6 1_555 1_555
C27_6 H17_6 1_555 1_555
C28_6 C27_6 1_555 1_555
H18_6 C28_6 1_555 1_555
C29_6 H19_6 1_555 1_555
C30_6 C26_6 1_555 1_555
H20_6 C30_6 1_555 1_555
N15_6 C25_6 1_555 1_555
C28_6 N17_3 1_555 1_555
C29_6 C30_6 1_555 1_555
C29_6 N17_3 1_555 1_555
N14_6 N15_6 1_555 1_555
C13_5 H9_5 1_555 1_555
H12_5 C17_5 1_555 1_555
Cu2_2 N7_3 1_555 1_555
N7_3 C13_5 1_555 1_555
W1_9 S1_6 1_555 1_555
C19_5 H13_5 1_555 1_555
C20_5 C19_5 1_555 1_555
H14_5 C20_5 1_555 1_555
C21_5 C20_5 1_555 1_555
C22_5 C21_5 1_555 1_555
H15_5 C22_5 1_555 1_555
C23_5 C22_5 1_555 1_555
H16_5 C23_5 1_555 1_555
C24_5 C21_5 1_555 1_555
C25_7 C26_7 1_555 1_555
C26_7 C27_7 1_555 1_555
C27_7 H17_7 1_555 1_555
C28_7 C27_7 1_555 1_555
H18_7 C28_7 1_555 1_555
C29_7 H19_7 1_555 1_555
C30_7 C26_7 1_555 1_555
H20_7 C30_7 1_555 1_555
Cl2_6 Cu3_4 1_555 1_555
Cu3_4 N11_4 1_555 1_555
Cu4_5 N10_5 1_555 1_555
N10_5 C19_5 1_555 1_555
N12_5 C24_5 1_555 1_555
N13_5 C25_7 1_555 1_555
N14_7 C24_5 1_555 1_555
N15_7 C25_7 1_555 1_555
N16_4 Cu2_2 1_555 1_555
S4_6 Cu2_2 1_555 1_555
C17_5 N7_3 1_555 1_555
Cu2_2 S1_6 1_555 1_555
W1_9 S4_6 1_555 1_555
C23_5 N10_5 1_555 1_555
C28_7 N16_4 1_555 1_555
C29_7 C30_7 1_555 1_555
C29_7 N16_4 1_555 1_555
Cu3_4 S4_6 1_555 1_555
N12_5 N13_5 1_555 1_555
N14_7 N15_7 1_555 1_555
C1_7 H1_7 1_555 1_555
C2_7 C1_7 1_555 1_555
H2_7 C2_7 1_555 1_555
C3_7 C2_7 1_555 1_555
C4_7 C3_7 1_555 1_555
H3_7 C4_7 1_555 1_555
C5_7 C4_7 1_555 1_555
H4_7 C5_7 1_555 1_555
C6_7 C3_7 1_555 1_555
C7_5 C8_5 1_555 1_555
C8_5 C9_5 1_555 1_555
C9_5 H5_5 1_555 1_555
C10_5 C9_5 1_555 1_555
H6_5 C10_5 1_555 1_555
C11_5 H7_5 1_555 1_555
C12_5 C8_5 1_555 1_555
H8_5 C12_5 1_555 1_555
Cl1_6 Cu1_4 1_555 1_555
Cu1_4 N1_4 1_555 1_555
N1_4 C1_7 1_555 1_555
N2_7 C6_7 1_555 1_555
N3_7 C7_5 1_555 1_555
N4_5 C6_7 1_555 1_555
N5_5 C7_5 1_555 1_555
N6_5 C10_5 1_555 1_555
S2_6 Cu1_4 1_555 1_555
Cu5_2 S2_6 1_555 1_555
Cu6_5 N6_5 1_555 1_555
N17_4 Cu5_2 1_555 1_555
N19_3 Cu5_2 1_555 1_555
S3_6 W1_10 1_555 1_555
C5_7 N1_4 1_555 1_555
C11_5 C12_5 1_555 1_555
C11_5 N6_5 1_555 1_555
N2_7 N3_7 1_555 1_555
N4_5 N5_5 1_555 1_555
S2_6 W1_10 1_555 1_555
Cu5_2 S3_6 1_555 1_555
C1_8 H1_8 1_555 1_555
C2_8 C1_8 1_555 1_555
H2_8 C2_8 1_555 1_555
C3_8 C2_8 1_555 1_555
C4_8 C3_8 1_555 1_555
H3_8 C4_8 1_555 1_555
C5_8 C4_8 1_555 1_555
H4_8 C5_8 1_555 1_555
C6_8 C3_8 1_555 1_555
C7_6 C8_6 1_555 1_555
C8_6 C9_6 1_555 1_555
C9_6 H5_6 1_555 1_555
C10_6 C9_6 1_555 1_555
H6_6 C10_6 1_555 1_555
C11_6 H7_6 1_555 1_555
C12_6 C8_6 1_555 1_555
H8_6 C12_6 1_555 1_555
N11_4 C1_8 1_555 1_555
N2_8 C6_8 1_555 1_555
N3_8 C7_6 1_555 1_555
N4_6 C6_8 1_555 1_555
N5_6 C7_6 1_555 1_555
N6_6 C10_6 1_555 1_555
Cu6_6 N6_6 1_555 1_555
C5_8 N11_4 1_555 1_555
C11_6 C12_6 1_555 1_555
C11_6 N6_6 1_555 1_555
N2_8 N3_8 1_555 1_555
N4_6 N5_6 1_555 1_555
C13_6 H9_6 1_555 1_555
H12_6 C17_6 1_555 1_555
N19_3 C13_6 1_555 1_555
C19_6 H13_6 1_555 1_555
C20_6 C19_6 1_555 1_555
H14_6 C20_6 1_555 1_555
C21_6 C20_6 1_555 1_555
C22_6 C21_6 1_555 1_555
H15_6 C22_6 1_555 1_555
C23_6 C22_6 1_555 1_555
H16_6 C23_6 1_555 1_555
C24_6 C21_6 1_555 1_555
C25_8 C26_8 1_555 1_555
C26_8 C27_8 1_555 1_555
C27_8 H17_8 1_555 1_555
C28_8 C27_8 1_555 1_555
H18_8 C28_8 1_555 1_555
C29_8 H19_8 1_555 1_555
C30_8 C26_8 1_555 1_555
H20_8 C30_8 1_555 1_555
Cu4_6 N10_6 1_555 1_555
N10_6 C19_6 1_555 1_555
N12_6 C24_6 1_555 1_555
N13_6 C25_8 1_555 1_555
N14_8 C24_6 1_555 1_555
N15_8 C25_8 1_555 1_555
C17_6 N19_3 1_555 1_555
C23_6 N10_6 1_555 1_555
C28_8 N17_4 1_555 1_555
C29_8 C30_8 1_555 1_555
C29_8 N17_4 1_555 1_555
N12_6 N13_6 1_555 1_555
N14_8 N15_8 1_555 1_555
C13_7 H9_7 1_555 1_555
H12_7 C17_7 1_555 1_555
Cl1_7 Cu4_6 1_555 1_555
Cu6_6 N7_4 1_555 1_555
N7_4 C13_7 1_555 1_555
S1_7 Cu4_6 1_555 1_555
S2_7 Cu4_6 1_555 1_555
W1_11 S1_7 1_555 1_555
Cl2_7 Cu4_5 1_555 1_555
Cu6_5 S2_7 1_555 1_555
N19_4 Cu6_5 1_555 1_555
S3_7 W1_11 1_555 1_555
S4_7 Cu6_6 1_555 1_555
C17_7 N7_4 1_555 1_555
Cu6_6 S1_7 1_555 1_555
S2_7 W1_11 1_555 1_555
W1_11 S4_7 1_555 1_555
Cu4_5 S3_7 1_555 1_555
Cu4_5 S4_7 1_555 1_555
Cu6_5 S3_7 1_555 1_555
C13_8 H9_8 1_555 1_555
H12_8 C17_8 1_555 1_555
N19_4 C13_8 1_555 1_555
C17_8 N19_4 1_555 1_555
H10_5 C14_5 1_555 1_555
C15_5 C14_5 1_555 1_555
C16_5 C15_5 1_555 1_555
H11_5 C16_5 1_555 1_555
C18_5 C15_5 1_555 1_555
N8_5 C18_5 1_555 1_555
N9_5 C18_5 1_555 1_555
C19_7 H13_7 1_555 1_555
C20_7 C19_7 1_555 1_555
H14_7 C20_7 1_555 1_555
C21_7 C20_7 1_555 1_555
C22_7 C21_7 1_555 1_555
H15_7 C22_7 1_555 1_555
C23_7 C22_7 1_555 1_555
H16_7 C23_7 1_555 1_555
C24_7 C21_7 1_555 1_555
Cu4_7 N10_7 1_555 1_555
N10_7 C19_7 1_555 1_555
N12_7 C24_7 1_555 1_555
C23_7 N10_7 1_555 1_555
N12_7 N13_7 1_555 1_555
C7_7 C8_7 1_555 1_555
C8_7 C9_7 1_555 1_555
C9_7 H5_7 1_555 1_555
C10_7 C9_7 1_555 1_555
H6_7 C10_7 1_555 1_555
C11_7 H7_7 1_555 1_555
C12_7 C8_7 1_555 1_555
H8_7 C12_7 1_555 1_555
N5_7 C7_7 1_555 1_555
N6_7 C10_7 1_555 1_555
Cu6_7 N6_7 1_555 1_555
C11_7 C12_7 1_555 1_555
C11_7 N6_7 1_555 1_555
N4_7 N5_7 1_555 1_555
C7_8 C8_8 1_555 1_555
C8_8 C9_8 1_555 1_555
C9_8 H5_8 1_555 1_555
C10_8 C9_8 1_555 1_555
H6_8 C10_8 1_555 1_555
C11_8 H7_8 1_555 1_555
C12_8 C8_8 1_555 1_555
H8_8 C12_8 1_555 1_555
N5_8 C7_8 1_555 1_555
N6_8 C10_8 1_555 1_555
Cu6_8 N6_8 1_555 1_555
C11_8 C12_8 1_555 1_555
C11_8 N6_8 1_555 1_555
N4_8 N5_8 1_555 1_555
C19_8 H13_8 1_555 1_555
C20_8 C19_8 1_555 1_555
H14_8 C20_8 1_555 1_555
C21_8 C20_8 1_555 1_555
C22_8 C21_8 1_555 1_555
H15_8 C22_8 1_555 1_555
C23_8 C22_8 1_555 1_555
H16_8 C23_8 1_555 1_555
C24_8 C21_8 1_555 1_555
Cu4_8 N10_8 1_555 1_555
N10_8 C19_8 1_555 1_555
N12_8 C24_8 1_555 1_555
C23_8 N10_8 1_555 1_555
N12_8 N13_8 1_555 1_555
H10_6 C14_6 1_555 1_555
C15_6 C14_6 1_555 1_555
C16_6 C15_6 1_555 1_555
H11_6 C16_6 1_555 1_555
C18_6 C15_6 1_555 1_555
N8_6 C18_6 1_555 1_555
N9_6 C18_6 1_555 1_555
C31_7 H21_7 1_555 1_555
C32_7 C31_7 1_555 1_555
H22_7 C32_7 1_555 1_555
C33_7 C32_7 1_555 1_555
C34_7 C33_7 1_555 1_555
H23_7 C34_7 1_555 1_555
C35_7 C34_7 1_555 1_555
H24_7 C35_7 1_555 1_555
C36_7 C33_7 1_555 1_555
Cu6_8 N18_7 1_555 1_555
N18_7 C31_7 1_555 1_555
N20_7 N8_6 1_555 1_555
N21_7 N9_6 1_555 1_555
C35_7 N18_7 1_555 1_555
C36_7 N20_7 1_555 1_555
C36_7 N21_7 1_555 1_555
C31_8 H21_8 1_555 1_555
C32_8 C31_8 1_555 1_555
H22_8 C32_8 1_555 1_555
C33_8 C32_8 1_555 1_555
C34_8 C33_8 1_555 1_555
H23_8 C34_8 1_555 1_555
C35_8 C34_8 1_555 1_555
H24_8 C35_8 1_555 1_555
C36_8 C33_8 1_555 1_555
Cu6_7 N18_8 1_555 1_555
N18_8 C31_8 1_555 1_555
C35_8 N18_8 1_555 1_555
C36_8 N20_8 1_555 1_555
C36_8 N21_8 1_555 1_555
Cl1_8 Cu4_8 1_555 1_555
S1_8 Cu4_8 1_555 1_555
S2_8 Cu4_8 1_555 1_555
W1_12 S1_8 1_555 1_555
Cl2_8 Cu4_7 1_555 1_555
Cu6_7 S2_8 1_555 1_555
S3_8 W1_12 1_555 1_555
S4_8 Cu6_8 1_555 1_555
Cu6_8 S1_8 1_555 1_555
S2_8 W1_12 1_555 1_555
W1_12 S4_8 1_555 1_555
Cu4_7 S3_8 1_555 1_555
Cu4_7 S4_8 1_555 1_555
Cu6_7 S3_8 1_555 1_555
H10_7 C14_7 1_555 1_555
C15_7 C14_7 1_555 1_555
C16_7 C15_7 1_555 1_555
H11_7 C16_7 1_555 1_555
C18_7 C15_7 1_555 1_555
N8_7 C18_7 1_555 1_555
N9_7 C18_7 1_555 1_555
H10_8 C14_8 1_555 1_555
C15_8 C14_8 1_555 1_555
C16_8 C15_8 1_555 1_555
H11_8 C16_8 1_555 1_555
C18_8 C15_8 1_555 1_555
N8_8 C18_8 1_555 1_555
N9_8 C18_8 1_555 1_555

#END
