
###############################################################################
#
# This file contains modified crystal structure data generated from the
# MOF subset of the Cambridge Structural Database (CSD) v543 
# hosted by the Cambridge Crystallographic Data Centre (CCDC).
#
# This work is licensed under the Creative Commons
# Attribution-NonCommercial-ShareAlike 4.0 International License.
# To view a copy of this license, visit
# http://creativecommons.org/licenses/by-nc-sa/4.0/
# or send a letter to
# Creative Commons, PO Box 1866, Mountain View, CA 94042, USA.
#
# CIF created using the CSD Python API on 29 September 2022
# The structure has been converted into the P1 space group
# The structure has a 3D framework
# The original CSD entry SATCIB is in the orthorhombic crystal system
# The framework has been calculated to contain at least 10.0% void space
# The void calculation uses a probe of radius 1.32A, grid spacing 0.4
#
###############################################################################

data_SATCIB
_chemical_formula_moiety         '(C288 H192 Cu32 I16 N96 S24 W8)n'
_symmetry_cell_setting           triclinic
_symmetry_space_group_name_H-M   'P 1'
_symmetry_Int_Tables_number      1
_space_group_name_Hall           'P 1'
loop_
_symmetry_equiv_pos_site_id
_symmetry_equiv_pos_as_xyz
1 x,y,z
_cell_length_a                   19.4256(14)
_cell_length_b                   21.1949(15)
_cell_length_c                   26.6468(18)
_cell_angle_alpha                90
_cell_angle_beta                 90
_cell_angle_gamma                90
_cell_volume                     10971.1
loop_
_atom_site_label
_atom_site_type_symbol
_atom_site_fract_x
_atom_site_fract_y
_atom_site_fract_z
C21 C 0.0202(4) 0.5958(4) 0.0769(3)
C32 C 0.0812(4) 0.6369(4) 0.0892(3)
C33 C 0.1176(4) 0.6345(4) 0.1375(3)
H21 H 0.1042 0.6061 0.1623
C34 C 0.1675(4) 0.6717(4) 0.1447(3)
H22 H 0.1901 0.6684 0.1754
C35 C 0.1557(5) 0.7220(4) 0.0712(4)
H23 H 0.1649 0.7567 0.0509
C36 C 0.1033(4) 0.6783(4) 0.0557(3)
H24 H 0.0856 0.6791 0.0233
N9 N 0.0030(3) 0.5965(3) 0.0312(2)
N12 N 0.1914(4) 0.7152(3) 0.1131(2)
Cu5 Cu 0.27309(6) 0.77774(5) 0.12839(4)
C19 C 0.9442(4) 0.5598(4) 0.0221(3)
C20 C 0.9449(5) 0.5223(4) 0.1022(3)
C27 C 0.9115(4) 0.4829(4) 0.1387(3)
C28 C 0.8529(5) 0.4424(4) 0.1247(3)
H17 H 0.8329 0.4457 0.0931
C29 C 0.8296(4) 0.4020(4) 0.1574(3)
H18 H 0.7931 0.3762 0.1480
C30 C 0.9126(5) 0.4347(4) 0.2194(3)
H19 H 0.9299 0.4323 0.2519
C31 C 0.9418(4) 0.4757(4) 0.1868(3)
H20 H 0.9808 0.4985 0.1957
N7 N 0.9175(4) 0.5208(3) 0.0544(2)
N8 N 0.9969(4) 0.5601(3) 0.1149(2)
N11 N 0.8565(4) 0.3953(3) 0.2060(2)
Cu7 Cu 0.81985(6) 0.32651(5) 0.25381(4)
C1 C 0.6726(5) 0.3784(4) 0.6688(3)
C2 C 0.6538(4) 0.3330(4) 0.5969(3)
C3 C 0.5819(4) 0.3117(4) 0.6627(3)
C4 C 0.7147(4) 0.4183(4) 0.7044(3)
C5 C 0.6968(4) 0.4266(4) 0.7532(3)
H1 H 0.6599 0.4048 0.7672
C6 C 0.7346(5) 0.4679(3) 0.7809(3)
H2 H 0.7198 0.4746 0.8137
C7 C 0.8087(5) 0.4953(4) 0.7172(3)
H3 H 0.8447 0.5197 0.7048
C8 C 0.7712(5) 0.4507(4) 0.6824(4)
H4 H 0.7842 0.4449 0.6491
C9 C 0.6623(4) 0.3208(4) 0.5426(3)
C10 C 0.7169(4) 0.3583(4) 0.5203(3)
H5 H 0.7403 0.3883 0.5392
C11 C 0.7340(5) 0.3482(4) 0.4682(3)
H6 H 0.7680 0.3726 0.4530
C12 C 0.6455(4) 0.2700(4) 0.4644(3)
H7 H 0.6158 0.2454 0.4452
C13 C 0.6342(5) 0.2737(4) 0.5156(3)
H8 H 0.6071 0.2435 0.5314
C14 C 0.5232(5) 0.2780(4) 0.6824(3)
C15 C 0.4931(4) 0.2295(4) 0.6571(3)
H9 H 0.5107 0.2170 0.6262
C16 C 0.4356(5) 0.1982(4) 0.6774(3)
H10 H 0.4162 0.1645 0.6601
C17 C 0.4397(4) 0.2586(4) 0.7471(3)
H11 H 0.4237 0.2686 0.7790
C18 C 0.4957(4) 0.2903(4) 0.7314(3)
H12 H 0.5164 0.3200 0.7522
C22 C 0.9222(5) 0.5591(4) 0.9683(3)
C23 C 0.9567(4) 0.5935(4) 0.9301(3)
H13 H 0.9970 0.6154 0.9373
C24 C 0.9309(5) 0.5938(4) 0.8841(3)
H14 H 0.9520 0.6198 0.8606
C25 C 0.8454(4) 0.5227(4) 0.9046(3)
H15 H 0.8079 0.4980 0.8954
C26 C 0.8672(5) 0.5200(4) 0.9547(3)
H16 H 0.8461 0.4934 0.9779
Cu1 Cu 0.82951(5) 0.57419(4) 0.80198(4)
Cu2 Cu 0.72691(6) 0.27774(5) 0.37161(4)
I1 I 0.84871(3) 0.63036(3) 0.60063(2)
N1 N 0.6933(4) 0.3714(3) 0.6235(2)
N2 N 0.5962(4) 0.3001(3) 0.6158(3)
N3 N 0.6170(3) 0.3496(3) 0.6912(3)
N4 N 0.7908(3) 0.5003(3) 0.7665(2)
N5 N 0.6991(3) 0.3012(3) 0.4401(2)
N6 N 0.4069(4) 0.2176(3) 0.7240(2)
N10 N 0.8753(4) 0.5591(3) 0.8683(2)
Cu3 Cu 0.31985(6) 0.17349(5) 0.74619(4)
Cu4 Cu 0.83832(6) 0.66535(5) 0.68398(4)
S1 S 0.89719(12) 0.63725(10) 0.75254(8)
S2 S 0.24317(11) 0.23566(9) 0.78789(7)
S3 S 0.73795(11) 0.63894(10) 0.82376(8)
S4 S 0.64801(12) 0.22610(10) 0.32447(8)
W1 W 0.812936(17) 0.697922(15) 0.777360(11)
Cu6 Cu 0.77309(6) 0.72226(5) 0.87161(4)
Cu8 Cu 0.68015(6) 0.67349(5) 0.75381(4)
N13 N 0.3565(4) 0.1047(3) 0.7940(2)
N14 N 0.8086(4) 0.2152(3) 0.3869(2)
Cu9 Cu 0.16168(6) 0.16535(5) 0.81602(4)
S5 S 0.75683(11) 0.73566(9) 0.71211(7)
S6 S 0.76205(11) 0.36106(10) 0.32376(8)
S7 S 0.26205(11) 0.13894(10) 0.67624(8)
S8 S 0.85199(12) 0.77390(10) 0.82447(8)
W2 W 0.187064(17) 0.197922(15) 0.722640(11)
W3 W 0.687064(17) 0.302078(15) 0.277360(11)
C15_2 C 0.0069(4) 0.7705(4) 0.1571(3)
C16_2 C 0.0644(5) 0.8018(4) 0.1774(3)
H10_2 H 0.0838 0.8355 0.1601
C17_2 C 0.0603(4) 0.7414(4) 0.2471(3)
H11_2 H 0.0763 0.7314 0.2790
C18_2 C 0.0043(4) 0.7097(4) 0.2314(3)
N6_2 N 0.0931(4) 0.7824(3) 0.2240(2)
Cu3_2 Cu 0.18015(6) 0.82651(5) 0.24619(4)
S2_2 S 0.25683(11) 0.76434(9) 0.28789(7)
N13_2 N 0.1435(4) 0.8953(3) 0.2940(2)
Cu9_2 Cu 0.33832(6) 0.83465(5) 0.31602(4)
S7_2 S 0.23795(11) 0.86106(10) 0.17624(8)
W2_2 W 0.312936(17) 0.802078(15) 0.222640(11)
C1_2 C 0.8274(5) 0.6216(4) 0.1688(3)
C2_2 C 0.8462(4) 0.6670(4) 0.0969(3)
C3_2 C 0.9181(4) 0.6883(4) 0.1627(3)
C4_2 C 0.7853(4) 0.5817(4) 0.2044(3)
C5_2 C 0.8032(4) 0.5734(4) 0.2532(3)
H1_2 H 0.8401 0.5952 0.2672
C6_2 C 0.7654(5) 0.5321(3) 0.2809(3)
H2_2 H 0.7802 0.5254 0.3137
C7_2 C 0.6913(5) 0.5047(4) 0.2172(3)
H3_2 H 0.6553 0.4803 0.2048
C8_2 C 0.7288(5) 0.5493(4) 0.1824(4)
H4_2 H 0.7158 0.5551 0.1491
C9_2 C 0.8377(4) 0.6792(4) 0.0426(3)
C10_2 C 0.7831(4) 0.6417(4) 0.0203(3)
H5_2 H 0.7597 0.6117 0.0392
C13_2 C 0.8658(5) 0.7263(4) 0.0156(3)
H8_2 H 0.8929 0.7565 0.0314
C14_2 C 0.9768(5) 0.7220(4) 0.1824(3)
H9_2 H 0.9893 0.7830 0.1262
H12_2 H 0.9836 0.6800 0.2522
C19_2 C 0.5558(4) 0.4402(4) 0.5221(3)
C20_2 C 0.5551(5) 0.4777(4) 0.6022(3)
C21_2 C 0.4798(4) 0.4042(4) 0.5769(3)
C22_2 C 0.5778(5) 0.4409(4) 0.4683(3)
C23_2 C 0.5433(4) 0.4065(4) 0.4301(3)
H13_2 H 0.5030 0.3846 0.4373
C24_2 C 0.5691(5) 0.4062(4) 0.3841(3)
H14_2 H 0.5480 0.3802 0.3606
C25_2 C 0.6546(4) 0.4773(4) 0.4046(3)
H15_2 H 0.6921 0.5020 0.3954
C26_2 C 0.6328(5) 0.4800(4) 0.4547(3)
H16_2 H 0.6539 0.5066 0.4779
C27_2 C 0.5885(4) 0.5171(4) 0.6387(3)
C28_2 C 0.6471(5) 0.5576(4) 0.6247(3)
H17_2 H 0.6671 0.5543 0.5931
C29_2 C 0.6704(4) 0.5980(4) 0.6574(3)
H18_2 H 0.7069 0.6238 0.6480
C30_2 C 0.5874(5) 0.5653(4) 0.7194(3)
H19_2 H 0.5701 0.5677 0.7519
C31_2 C 0.5582(4) 0.5243(4) 0.6868(3)
H20_2 H 0.5192 0.5015 0.6957
C32_2 C 0.4188(4) 0.3631(4) 0.5892(3)
C33_2 C 0.3824(4) 0.3655(4) 0.6375(3)
H21_2 H 0.3958 0.3939 0.6623
C34_2 C 0.3325(4) 0.3283(4) 0.6447(3)
H22_2 H 0.3099 0.3316 0.6754
C35_2 C 0.3443(5) 0.2780(4) 0.5712(4)
H23_2 H 0.3351 0.2433 0.5509
C36_2 C 0.3967(4) 0.3217(4) 0.5557(3)
H24_2 H 0.4144 0.3209 0.5233
Cu1_2 Cu 0.67049(5) 0.42581(4) 0.30198(4)
I1_2 I 0.65129(3) 0.36964(3) 0.10063(2)
N1_2 N 0.8067(4) 0.6286(3) 0.1235(2)
N2_2 N 0.9038(4) 0.6999(3) 0.1158(3)
N3_2 N 0.8830(3) 0.6504(3) 0.1912(3)
N4_2 N 0.7092(3) 0.4997(3) 0.2665(2)
N7_2 N 0.5825(4) 0.4792(3) 0.5544(2)
N8_2 N 0.5031(4) 0.4399(3) 0.6149(2)
N9_2 N 0.4970(3) 0.4035(3) 0.5312(2)
N10_2 N 0.6247(4) 0.4409(3) 0.3683(2)
N11_2 N 0.6435(4) 0.6047(3) 0.7060(2)
N12_2 N 0.3086(4) 0.2848(3) 0.6131(2)
Cu4_2 Cu 0.66168(6) 0.33465(5) 0.18398(4)
S1_2 S 0.60281(12) 0.36275(10) 0.25254(8)
Cu5_2 Cu 0.22691(6) 0.22226(5) 0.62839(4)
S5_2 S 0.74317(11) 0.26434(9) 0.21211(7)
C11_2 C 0.7660(5) 0.6518(4) 0.9682(3)
H6_2 H 0.7320 0.6274 0.9530
C12_2 C 0.8545(4) 0.7300(4) 0.9644(3)
H7_2 H 0.8842 0.7546 0.9452
N5_2 N 0.8009(3) 0.6988(3) 0.9401(2)
N14_2 N 0.6914(4) 0.7848(3) 0.8869(2)
H3_3 H 0.1553 0.0197 0.7952
C19_3 C 0.0558(4) 0.0598(4) 0.4779(3)
C20_3 C 0.0551(5) 0.0223(4) 0.3978(3)
C22_3 C 0.0778(5) 0.0591(4) 0.5317(3)
C23_3 C 0.0433(4) 0.0935(4) 0.5699(3)
H13_3 H 0.0030 0.1154 0.5627
C24_3 C 0.0691(5) 0.0938(4) 0.6159(3)
H14_3 H 0.0480 0.1198 0.6394
C25_3 C 0.1546(4) 0.0227(4) 0.5954(3)
C26_3 C 0.1328(5) 0.0200(4) 0.5453(3)
Cu1_3 Cu 0.17049(5) 0.07419(4) 0.69802(4)
I1_3 I 0.15129(3) 0.13036(3) 0.89937(2)
N4_3 N 0.2092(3) 0.0003(3) 0.7335(2)
N7_3 N 0.0825(4) 0.0208(3) 0.4456(2)
N8_3 N 0.0031(4) 0.0601(3) 0.3851(2)
N10_3 N 0.1247(4) 0.0591(3) 0.6317(2)
S1_3 S 0.10281(12) 0.13725(10) 0.74746(8)
S8_2 S 0.14801(12) 0.27390(10) 0.67553(8)
C11_3 C 0.2660(5) 0.8482(4) 0.0318(3)
H6_3 H 0.2320 0.8726 0.0470
C12_3 C 0.3545(4) 0.7700(4) 0.0356(3)
H7_3 H 0.3842 0.7454 0.0548
N5_3 N 0.3009(3) 0.8012(3) 0.0599(2)
S4_2 S 0.35199(12) 0.72610(10) 0.17553(8)
C1_3 C 0.3274(5) 0.8784(4) 0.8312(3)
C2_3 C 0.3462(4) 0.8330(4) 0.9031(3)
C3_3 C 0.4181(4) 0.8117(4) 0.8373(3)
C4_3 C 0.2853(4) 0.9183(4) 0.7956(3)
C5_3 C 0.3032(4) 0.9266(4) 0.7468(3)
H1_3 H 0.3401 0.9048 0.7328
C6_3 C 0.2654(5) 0.9679(3) 0.7191(3)
H2_3 H 0.2802 0.9746 0.6863
C7_3 C 0.1913(5) 0.9953(4) 0.7828(3)
C8_3 C 0.2288(5) 0.9507(4) 0.8176(4)
H4_3 H 0.2158 0.9449 0.8509
C9_3 C 0.3377(4) 0.8208(4) 0.9574(3)
C10_3 C 0.2831(4) 0.8583(4) 0.9797(3)
H5_3 H 0.2597 0.8883 0.9608
C13_3 C 0.3658(5) 0.7737(4) 0.9844(3)
H8_3 H 0.3929 0.7435 0.9686
C14_3 C 0.4768(5) 0.7780(4) 0.8176(3)
C15_3 C 0.5069(4) 0.7295(4) 0.8429(3)
H9_3 H 0.4893 0.7170 0.8738
C16_3 C 0.5644(5) 0.6982(4) 0.8226(3)
H10_3 H 0.5838 0.6645 0.8399
C17_3 C 0.5603(4) 0.7586(4) 0.7529(3)
H11_3 H 0.5763 0.7686 0.7210
C18_3 C 0.5043(4) 0.7903(4) 0.7686(3)
H12_3 H 0.4836 0.8200 0.7478
H15_3 H 0.1921 0.9980 0.6046
H16_3 H 0.1539 0.9934 0.5221
C27_3 C 0.0885(4) 0.9829(4) 0.3613(3)
C28_3 C 0.1471(5) 0.9424(4) 0.3753(3)
H17_3 H 0.1671 0.9457 0.4069
C29_3 C 0.1704(4) 0.9020(4) 0.3426(3)
H18_3 H 0.2069 0.8762 0.3520
C30_3 C 0.0874(5) 0.9347(4) 0.2806(3)
H19_3 H 0.0701 0.9323 0.2481
C31_3 C 0.0582(4) 0.9757(4) 0.3132(3)
H20_3 H 0.0192 0.9985 0.3043
N1_3 N 0.3067(4) 0.8714(3) 0.8765(2)
N2_3 N 0.4038(4) 0.8001(3) 0.8842(3)
N3_3 N 0.3830(3) 0.8496(3) 0.8088(3)
N6_3 N 0.5931(4) 0.7176(3) 0.7760(2)
C21_3 C 0.9798(4) 0.0958(4) 0.4231(3)
C32_3 C 0.9188(4) 0.1369(4) 0.4108(3)
C33_3 C 0.8824(4) 0.1345(4) 0.3625(3)
H21_3 H 0.8958 0.1061 0.3377
C34_3 C 0.8325(4) 0.1717(4) 0.3553(3)
H22_3 H 0.8099 0.1684 0.3246
C35_3 C 0.8443(5) 0.2220(4) 0.4288(4)
H23_3 H 0.8351 0.2567 0.4491
C36_3 C 0.8967(4) 0.1783(4) 0.4443(3)
H24_3 H 0.9144 0.1791 0.4767
N9_3 N 0.9970(3) 0.0965(3) 0.4688(2)
C1_4 C 0.1726(5) 0.1216(4) 0.3312(3)
C2_4 C 0.1538(4) 0.1670(4) 0.4031(3)
C3_4 C 0.0819(4) 0.1883(4) 0.3373(3)
C4_4 C 0.2147(4) 0.0817(4) 0.2956(3)
C5_4 C 0.1968(4) 0.0734(4) 0.2468(3)
H1_4 H 0.1599 0.0952 0.2328
C6_4 C 0.2346(5) 0.0321(3) 0.2191(3)
H2_4 H 0.2198 0.0254 0.1863
C7_4 C 0.3087(5) 0.0047(4) 0.2828(3)
C8_4 C 0.2712(5) 0.0493(4) 0.3176(4)
H4_4 H 0.2842 0.0551 0.3509
C9_4 C 0.1623(4) 0.1792(4) 0.4574(3)
C10_4 C 0.2169(4) 0.1417(4) 0.4797(3)
H5_4 H 0.2403 0.1117 0.4608
C11_4 C 0.2340(5) 0.1518(4) 0.5318(3)
H6_4 H 0.2680 0.1274 0.5470
C12_4 C 0.1455(4) 0.2300(4) 0.5356(3)
H7_4 H 0.1158 0.2546 0.5548
C13_4 C 0.1342(5) 0.2263(4) 0.4844(3)
H8_4 H 0.1071 0.2565 0.4686
C14_4 C 0.0232(5) 0.2220(4) 0.3176(3)
H9_4 H 0.0107 0.2830 0.3738
H12_4 H 0.0164 0.1800 0.2478
H15_4 H 0.3079 0.0020 0.1046
H16_4 H 0.3461 0.0066 0.0221
N1_4 N 0.1933(4) 0.1286(3) 0.3765(2)
N2_4 N 0.0962(4) 0.1999(3) 0.3842(3)
N3_4 N 0.1170(3) 0.1504(3) 0.3088(3)
N5_4 N 0.1991(3) 0.1988(3) 0.5599(2)
C27_4 C 0.4115(4) 0.0171(4) 0.8613(3)
C28_4 C 0.3529(5) 0.0576(4) 0.8753(3)
H17_4 H 0.3329 0.0543 0.9069
C29_4 C 0.3296(4) 0.0980(4) 0.8426(3)
H18_4 H 0.2931 0.1238 0.8520
C30_4 C 0.4126(5) 0.0653(4) 0.7806(3)
H19_4 H 0.4299 0.0677 0.7481
C31_4 C 0.4418(4) 0.0243(4) 0.8132(3)
H20_4 H 0.4808 0.0015 0.8043
H3_4 H 0.3447 0.9803 0.2952
C22_4 C 0.4222(5) 0.9409(4) 0.0317(3)
C23_4 C 0.4567(4) 0.9065(4) 0.0699(3)
H13_4 H 0.4970 0.8846 0.0627
C24_4 C 0.4309(5) 0.9062(4) 0.1159(3)
H14_4 H 0.4520 0.8802 0.1394
C25_4 C 0.3454(4) 0.9773(4) 0.0954(3)
C26_4 C 0.3672(5) 0.9800(4) 0.0453(3)
Cu1_4 Cu 0.32951(5) 0.92581(4) 0.19802(4)
I1_4 I 0.34871(3) 0.86964(3) 0.39937(2)
N4_4 N 0.2908(3) 0.9997(3) 0.2335(2)
N10_4 N 0.3753(4) 0.9409(3) 0.1317(2)
S1_4 S 0.39719(12) 0.86275(10) 0.24746(8)
C19_4 C 0.4442(4) 0.9402(4) 0.9779(3)
C20_4 C 0.4449(5) 0.9777(4) 0.8978(3)
C21_4 C 0.5202(4) 0.9042(4) 0.9231(3)
C32_4 C 0.5812(4) 0.8631(4) 0.9108(3)
C33_4 C 0.6176(4) 0.8655(4) 0.8625(3)
H21_4 H 0.6042 0.8939 0.8377
C34_4 C 0.6675(4) 0.8283(4) 0.8553(3)
H22_4 H 0.6901 0.8316 0.8246
C35_4 C 0.6557(5) 0.7780(4) 0.9288(4)
H23_4 H 0.6649 0.7433 0.9491
C36_4 C 0.6033(4) 0.8217(4) 0.9443(3)
H24_4 H 0.5856 0.8209 0.9767
N7_4 N 0.4175(4) 0.9792(3) 0.9456(2)
N8_4 N 0.4969(4) 0.9399(3) 0.8851(2)
N9_4 N 0.5030(3) 0.9035(3) 0.9688(2)
C15_4 C 0.9931(4) 0.2705(4) 0.3429(3)
C16_4 C 0.9356(5) 0.3018(4) 0.3226(3)
H10_4 H 0.9162 0.3355 0.3399
C17_4 C 0.9397(4) 0.2414(4) 0.2529(3)
H11_4 H 0.9237 0.2314 0.2210
C18_4 C 0.9957(4) 0.2097(4) 0.2686(3)
N6_4 N 0.9069(4) 0.2824(3) 0.2760(2)
C1_5 C 0.3274(5) 0.6216(4) 0.3312(3)
C2_5 C 0.3462(4) 0.6670(4) 0.4031(3)
C3_5 C 0.4181(4) 0.6883(4) 0.3373(3)
C4_5 C 0.2853(4) 0.5817(4) 0.2956(3)
C5_5 C 0.3032(4) 0.5734(4) 0.2468(3)
H1_5 H 0.3401 0.5952 0.2328
C6_5 C 0.2654(5) 0.5321(3) 0.2191(3)
H2_5 H 0.2802 0.5254 0.1863
C7_5 C 0.1913(5) 0.5047(4) 0.2828(3)
H3_5 H 0.1553 0.4803 0.2952
C8_5 C 0.2288(5) 0.5493(4) 0.3176(4)
H4_5 H 0.2158 0.5551 0.3509
C9_5 C 0.3377(4) 0.6792(4) 0.4574(3)
C10_5 C 0.2831(4) 0.6417(4) 0.4797(3)
H5_5 H 0.2597 0.6117 0.4608
C11_5 C 0.2660(5) 0.6518(4) 0.5318(3)
H6_5 H 0.2320 0.6274 0.5470
C12_5 C 0.3545(4) 0.7300(4) 0.5356(3)
H7_5 H 0.3842 0.7546 0.5548
C13_5 C 0.3658(5) 0.7263(4) 0.4844(3)
H8_5 H 0.3929 0.7565 0.4686
C14_5 C 0.4768(5) 0.7220(4) 0.3176(3)
C15_5 C 0.5069(4) 0.7705(4) 0.3429(3)
H9_5 H 0.4893 0.7830 0.3738
C16_5 C 0.5644(5) 0.8018(4) 0.3226(3)
H10_5 H 0.5838 0.8355 0.3399
C17_5 C 0.5603(4) 0.7414(4) 0.2529(3)
H11_5 H 0.5763 0.7314 0.2210
C18_5 C 0.5043(4) 0.7097(4) 0.2686(3)
H12_5 H 0.4836 0.6800 0.2478
C22_5 C 0.0778(5) 0.4409(4) 0.0317(3)
C23_5 C 0.0433(4) 0.4065(4) 0.0699(3)
H13_5 H 0.0030 0.3846 0.0627
C24_5 C 0.0691(5) 0.4062(4) 0.1159(3)
H14_5 H 0.0480 0.3802 0.1394
C25_5 C 0.1546(4) 0.4773(4) 0.0954(3)
H15_5 H 0.1921 0.5020 0.1046
C26_5 C 0.1328(5) 0.4800(4) 0.0453(3)
H16_5 H 0.1539 0.5066 0.0221
Cu1_5 Cu 0.17049(5) 0.42581(4) 0.19802(4)
Cu2_2 Cu 0.27309(6) 0.72226(5) 0.62839(4)
I1_5 I 0.15129(3) 0.36964(3) 0.39937(2)
N1_5 N 0.3067(4) 0.6286(3) 0.3765(2)
N2_5 N 0.4038(4) 0.6999(3) 0.3842(3)
N3_5 N 0.3830(3) 0.6504(3) 0.3088(3)
N4_5 N 0.2092(3) 0.4997(3) 0.2335(2)
N5_5 N 0.3009(3) 0.6988(3) 0.5599(2)
N6_5 N 0.5931(4) 0.7824(3) 0.2760(2)
N10_5 N 0.1247(4) 0.4409(3) 0.1317(2)
Cu3_3 Cu 0.68015(6) 0.82651(5) 0.25381(4)
Cu4_3 Cu 0.16168(6) 0.33465(5) 0.31602(4)
S1_5 S 0.10281(12) 0.36275(10) 0.24746(8)
S2_3 S 0.75683(11) 0.76434(9) 0.21211(7)
S3_2 S 0.26205(11) 0.36106(10) 0.17624(8)
S4_3 S 0.35199(12) 0.77390(10) 0.67553(8)
W1_2 W 0.187064(17) 0.302078(15) 0.222640(11)
Cu6_2 Cu 0.22691(6) 0.27774(5) 0.12839(4)
Cu8_2 Cu 0.31985(6) 0.32651(5) 0.24619(4)
N13_3 N 0.6435(4) 0.8953(3) 0.2060(2)
N14_3 N 0.1914(4) 0.7848(3) 0.6131(2)
Cu9_3 Cu 0.83832(6) 0.83465(5) 0.18398(4)
S5_3 S 0.24317(11) 0.26434(9) 0.28789(7)
S6_2 S 0.23795(11) 0.63894(10) 0.67624(8)
S7_3 S 0.73795(11) 0.86106(10) 0.32376(8)
S8_3 S 0.14801(12) 0.22610(10) 0.17553(8)
W2_3 W 0.812936(17) 0.802078(15) 0.277360(11)
W3_2 W 0.312936(17) 0.697922(15) 0.722640(11)
C19_5 C 0.0558(4) 0.4402(4) 0.9779(3)
C20_5 C 0.0551(5) 0.4777(4) 0.8978(3)
C27_5 C 0.0885(4) 0.5171(4) 0.8613(3)
C28_5 C 0.1471(5) 0.5576(4) 0.8753(3)
H17_5 H 0.1671 0.5543 0.9069
C29_5 C 0.1704(4) 0.5980(4) 0.8426(3)
H18_5 H 0.2069 0.6238 0.8520
C30_5 C 0.0874(5) 0.5653(4) 0.7806(3)
H19_5 H 0.0701 0.5677 0.7481
C31_5 C 0.0582(4) 0.5243(4) 0.8132(3)
H20_5 H 0.0192 0.5015 0.8043
N7_5 N 0.0825(4) 0.4792(3) 0.9456(2)
N8_5 N 0.0031(4) 0.4399(3) 0.8851(2)
N11_3 N 0.1435(4) 0.6047(3) 0.7940(2)
Cu7_2 Cu 0.18015(6) 0.67349(5) 0.74619(4)
C21_5 C 0.9798(4) 0.4042(4) 0.9231(3)
C32_5 C 0.9188(4) 0.3631(4) 0.9108(3)
C33_5 C 0.8824(4) 0.3655(4) 0.8625(3)
H21_5 H 0.8958 0.3939 0.8377
C34_5 C 0.8325(4) 0.3283(4) 0.8553(3)
H22_5 H 0.8099 0.3316 0.8246
C35_5 C 0.8443(5) 0.2780(4) 0.9288(4)
H23_5 H 0.8351 0.2433 0.9491
C36_5 C 0.8967(4) 0.3217(4) 0.9443(3)
H24_5 H 0.9144 0.3209 0.9767
N9_5 N 0.9970(3) 0.4035(3) 0.9688(2)
N12_3 N 0.8086(4) 0.2848(3) 0.8869(2)
Cu5_3 Cu 0.72691(6) 0.22226(5) 0.87161(4)
C11_6 C 0.2340(5) 0.3482(4) 0.0318(3)
H6_6 H 0.2680 0.3726 0.0470
C12_6 C 0.1455(4) 0.2700(4) 0.0356(3)
H7_6 H 0.1158 0.2454 0.0548
N5_6 N 0.1991(3) 0.3012(3) 0.0599(2)
N14_4 N 0.3086(4) 0.2152(3) 0.1131(2)
C1_6 C 0.1726(5) 0.3784(4) 0.8312(3)
C2_6 C 0.1538(4) 0.3330(4) 0.9031(3)
C3_6 C 0.0819(4) 0.3117(4) 0.8373(3)
C4_6 C 0.2147(4) 0.4183(4) 0.7956(3)
C5_6 C 0.1968(4) 0.4266(4) 0.7468(3)
H1_6 H 0.1599 0.4048 0.7328
C6_6 C 0.2346(5) 0.4679(3) 0.7191(3)
H2_6 H 0.2198 0.4746 0.6863
C7_6 C 0.3087(5) 0.4953(4) 0.7828(3)
H3_6 H 0.3447 0.5197 0.7952
C8_6 C 0.2712(5) 0.4507(4) 0.8176(4)
H4_6 H 0.2842 0.4449 0.8509
C9_6 C 0.1623(4) 0.3208(4) 0.9574(3)
C10_6 C 0.2169(4) 0.3583(4) 0.9797(3)
H5_6 H 0.2403 0.3883 0.9608
C13_6 C 0.1342(5) 0.2737(4) 0.9844(3)
H8_6 H 0.1071 0.2435 0.9686
C14_6 C 0.0232(5) 0.2780(4) 0.8176(3)
H9_6 H 0.0107 0.2170 0.8738
H12_6 H 0.0164 0.3200 0.7478
C19_6 C 0.4442(4) 0.5598(4) 0.4779(3)
C20_6 C 0.4449(5) 0.5223(4) 0.3978(3)
C21_6 C 0.5202(4) 0.5958(4) 0.4231(3)
C22_6 C 0.4222(5) 0.5591(4) 0.5317(3)
C23_6 C 0.4567(4) 0.5935(4) 0.5699(3)
H13_6 H 0.4970 0.6154 0.5627
C24_6 C 0.4309(5) 0.5938(4) 0.6159(3)
H14_6 H 0.4520 0.6198 0.6394
C25_6 C 0.3454(4) 0.5227(4) 0.5954(3)
H15_6 H 0.3079 0.4980 0.6046
C26_6 C 0.3672(5) 0.5200(4) 0.5453(3)
H16_6 H 0.3461 0.4934 0.5221
C27_6 C 0.4115(4) 0.4829(4) 0.3613(3)
C28_6 C 0.3529(5) 0.4424(4) 0.3753(3)
H17_6 H 0.3329 0.4457 0.4069
C29_6 C 0.3296(4) 0.4020(4) 0.3426(3)
H18_6 H 0.2931 0.3762 0.3520
C30_6 C 0.4126(5) 0.4347(4) 0.2806(3)
H19_6 H 0.4299 0.4323 0.2481
C31_6 C 0.4418(4) 0.4757(4) 0.3132(3)
H20_6 H 0.4808 0.4985 0.3043
C32_6 C 0.5812(4) 0.6369(4) 0.4108(3)
C33_6 C 0.6176(4) 0.6345(4) 0.3625(3)
H21_6 H 0.6042 0.6061 0.3377
C34_6 C 0.6675(4) 0.6717(4) 0.3553(3)
H22_6 H 0.6901 0.6684 0.3246
C35_6 C 0.6557(5) 0.7220(4) 0.4288(4)
H23_6 H 0.6649 0.7567 0.4491
C36_6 C 0.6033(4) 0.6783(4) 0.4443(3)
H24_6 H 0.5856 0.6791 0.4767
Cu1_6 Cu 0.32951(5) 0.57419(4) 0.69802(4)
I1_6 I 0.34871(3) 0.63036(3) 0.89937(2)
N1_6 N 0.1933(4) 0.3714(3) 0.8765(2)
N2_6 N 0.0962(4) 0.3001(3) 0.8842(3)
N3_6 N 0.1170(3) 0.3496(3) 0.8088(3)
N4_6 N 0.2908(3) 0.5003(3) 0.7335(2)
N7_6 N 0.4175(4) 0.5208(3) 0.4456(2)
N8_6 N 0.4969(4) 0.5601(3) 0.3851(2)
N9_6 N 0.5030(3) 0.5965(3) 0.4688(2)
N10_6 N 0.3753(4) 0.5591(3) 0.6317(2)
N11_4 N 0.3565(4) 0.3953(3) 0.2940(2)
N12_4 N 0.6914(4) 0.7152(3) 0.3869(2)
Cu4_4 Cu 0.33832(6) 0.66535(5) 0.81602(4)
S1_6 S 0.39719(12) 0.63725(10) 0.74746(8)
Cu5_4 Cu 0.77309(6) 0.77774(5) 0.37161(4)
S5_4 S 0.25683(11) 0.73566(9) 0.78789(7)
C15_6 C 0.9931(4) 0.2295(4) 0.8429(3)
C16_6 C 0.9356(5) 0.1982(4) 0.8226(3)
H10_6 H 0.9162 0.1645 0.8399
C17_6 C 0.9397(4) 0.2586(4) 0.7529(3)
H11_6 H 0.9237 0.2686 0.7210
C18_6 C 0.9957(4) 0.2903(4) 0.7686(3)
N6_6 N 0.9069(4) 0.2176(3) 0.7760(2)
Cu3_4 Cu 0.81985(6) 0.17349(5) 0.75381(4)
S2_4 S 0.74317(11) 0.23566(9) 0.71211(7)
N13_4 N 0.8565(4) 0.1047(3) 0.7060(2)
Cu9_4 Cu 0.66168(6) 0.16535(5) 0.68398(4)
S7_4 S 0.76205(11) 0.13894(10) 0.82376(8)
W2_4 W 0.687064(17) 0.197922(15) 0.777360(11)
C21_7 C 0.0202(4) 0.9042(4) 0.5769(3)
C32_7 C 0.0812(4) 0.8631(4) 0.5892(3)
C33_7 C 0.1176(4) 0.8655(4) 0.6375(3)
H21_7 H 0.1042 0.8939 0.6623
C34_7 C 0.1675(4) 0.8283(4) 0.6447(3)
H22_7 H 0.1901 0.8316 0.6754
C35_7 C 0.1557(5) 0.7780(4) 0.5712(4)
H23_7 H 0.1649 0.7433 0.5509
C36_7 C 0.1033(4) 0.8217(4) 0.5557(3)
H24_7 H 0.0856 0.8209 0.5233
N9_7 N 0.0030(3) 0.9035(3) 0.5312(2)
C1_7 C 0.6726(5) 0.1216(4) 0.1688(3)
C2_7 C 0.6538(4) 0.1670(4) 0.0969(3)
C3_7 C 0.5819(4) 0.1883(4) 0.1627(3)
C4_7 C 0.7147(4) 0.0817(4) 0.2044(3)
C5_7 C 0.6968(4) 0.0734(4) 0.2532(3)
H1_7 H 0.6599 0.0952 0.2672
C6_7 C 0.7346(5) 0.0321(3) 0.2809(3)
H2_7 H 0.7198 0.0254 0.3137
C7_7 C 0.8087(5) 0.0047(4) 0.2172(3)
C8_7 C 0.7712(5) 0.0493(4) 0.1824(4)
H4_7 H 0.7842 0.0551 0.1491
C9_7 C 0.6623(4) 0.1792(4) 0.0426(3)
C10_7 C 0.7169(4) 0.1417(4) 0.0203(3)
H5_7 H 0.7403 0.1117 0.0392
C13_7 C 0.6342(5) 0.2263(4) 0.0156(3)
H8_7 H 0.6071 0.2565 0.0314
C14_7 C 0.5232(5) 0.2220(4) 0.1824(3)
C15_7 C 0.4931(4) 0.2705(4) 0.1571(3)
H9_7 H 0.5107 0.2830 0.1262
C16_7 C 0.4356(5) 0.3018(4) 0.1774(3)
H10_7 H 0.4162 0.3355 0.1601
C17_7 C 0.4397(4) 0.2414(4) 0.2471(3)
H11_7 H 0.4237 0.2314 0.2790
C18_7 C 0.4957(4) 0.2097(4) 0.2314(3)
H12_7 H 0.5164 0.1800 0.2522
H15_7 H 0.8079 0.0020 0.3954
H16_7 H 0.8461 0.0066 0.4779
C27_7 C 0.9115(4) 0.0171(4) 0.6387(3)
C28_7 C 0.8529(5) 0.0576(4) 0.6247(3)
H17_7 H 0.8329 0.0543 0.5931
C29_7 C 0.8296(4) 0.0980(4) 0.6574(3)
H18_7 H 0.7931 0.1238 0.6480
C30_7 C 0.9126(5) 0.0653(4) 0.7194(3)
H19_7 H 0.9299 0.0677 0.7519
C31_7 C 0.9418(4) 0.0243(4) 0.6868(3)
H20_7 H 0.9808 0.0015 0.6957
N1_7 N 0.6933(4) 0.1286(3) 0.1235(2)
N2_7 N 0.5962(4) 0.1999(3) 0.1158(3)
N3_7 N 0.6170(3) 0.1504(3) 0.1912(3)
N6_7 N 0.4069(4) 0.2824(3) 0.2240(2)
C11_7 C 0.7340(5) 0.1518(4) 0.9682(3)
H6_7 H 0.7680 0.1274 0.9530
C12_7 C 0.6455(4) 0.2300(4) 0.9644(3)
H7_7 H 0.6158 0.2546 0.9452
N5_7 N 0.6991(3) 0.1988(3) 0.9401(2)
S4_4 S 0.64801(12) 0.27390(10) 0.82447(8)
H3_7 H 0.8447 0.9803 0.2048
C19_7 C 0.9442(4) 0.9402(4) 0.5221(3)
C20_7 C 0.9449(5) 0.9777(4) 0.6022(3)
C22_7 C 0.9222(5) 0.9409(4) 0.4683(3)
C23_7 C 0.9567(4) 0.9065(4) 0.4301(3)
H13_7 H 0.9970 0.8846 0.4373
C24_7 C 0.9309(5) 0.9062(4) 0.3841(3)
H14_7 H 0.9520 0.8802 0.3606
C25_7 C 0.8454(4) 0.9773(4) 0.4046(3)
C26_7 C 0.8672(5) 0.9800(4) 0.4547(3)
Cu1_7 Cu 0.82951(5) 0.92581(4) 0.30198(4)
I1_7 I 0.84871(3) 0.86964(3) 0.10063(2)
N4_7 N 0.7908(3) 0.9997(3) 0.2665(2)
N7_7 N 0.9175(4) 0.9792(3) 0.5544(2)
N8_7 N 0.9969(4) 0.9399(3) 0.6149(2)
N10_7 N 0.8753(4) 0.9409(3) 0.3683(2)
S1_7 S 0.89719(12) 0.86275(10) 0.25254(8)
S8_4 S 0.85199(12) 0.72610(10) 0.32447(8)
C15_8 C 0.0069(4) 0.7295(4) 0.6571(3)
C16_8 C 0.0644(5) 0.6982(4) 0.6774(3)
H10_8 H 0.0838 0.6645 0.6601
C17_8 C 0.0603(4) 0.7586(4) 0.7471(3)
H11_8 H 0.0763 0.7686 0.7790
C18_8 C 0.0043(4) 0.7903(4) 0.7314(3)
N6_8 N 0.0931(4) 0.7176(3) 0.7240(2)
C19_8 C 0.5558(4) 0.0598(4) 0.0221(3)
C20_8 C 0.5551(5) 0.0223(4) 0.1022(3)
C21_8 C 0.4798(4) 0.0958(4) 0.0769(3)
C32_8 C 0.4188(4) 0.1369(4) 0.0892(3)
C33_8 C 0.3824(4) 0.1345(4) 0.1375(3)
H21_8 H 0.3958 0.1061 0.1623
C34_8 C 0.3325(4) 0.1717(4) 0.1447(3)
H22_8 H 0.3099 0.1684 0.1754
C35_8 C 0.3443(5) 0.2220(4) 0.0712(4)
H23_8 H 0.3351 0.2567 0.0509
C36_8 C 0.3967(4) 0.1783(4) 0.0557(3)
H24_8 H 0.4144 0.1791 0.0233
N7_8 N 0.5825(4) 0.0208(3) 0.0544(2)
N8_8 N 0.5031(4) 0.0601(3) 0.1149(2)
N9_8 N 0.4970(3) 0.0965(3) 0.0312(2)
H3_8 H 0.6553 0.0197 0.7048
C22_8 C 0.5778(5) 0.0591(4) 0.9683(3)
C23_8 C 0.5433(4) 0.0935(4) 0.9301(3)
H13_8 H 0.5030 0.1154 0.9373
C24_8 C 0.5691(5) 0.0938(4) 0.8841(3)
H14_8 H 0.5480 0.1198 0.8606
C25_8 C 0.6546(4) 0.0227(4) 0.9046(3)
C26_8 C 0.6328(5) 0.0200(4) 0.9547(3)
Cu1_8 Cu 0.67049(5) 0.07419(4) 0.80198(4)
I1_8 I 0.65129(3) 0.13036(3) 0.60063(2)
N4_8 N 0.7092(3) 0.0003(3) 0.7665(2)
N10_8 N 0.6247(4) 0.0591(3) 0.8683(2)
S1_8 S 0.60281(12) 0.13725(10) 0.75254(8)
C27_8 C 0.5885(4) 0.9829(4) 0.1387(3)
C28_8 C 0.6471(5) 0.9424(4) 0.1247(3)
H17_8 H 0.6671 0.9457 0.0931
C29_8 C 0.6704(4) 0.9020(4) 0.1574(3)
H18_8 H 0.7069 0.8762 0.1480
C30_8 C 0.5874(5) 0.9347(4) 0.2194(3)
H19_8 H 0.5701 0.9323 0.2519
C31_8 C 0.5582(4) 0.9757(4) 0.1868(3)
H20_8 H 0.5192 0.9985 0.1957
C1_8 C 0.8274(5) 0.8784(4) 0.6688(3)
C2_8 C 0.8462(4) 0.8330(4) 0.5969(3)
C3_8 C 0.9181(4) 0.8117(4) 0.6627(3)
C4_8 C 0.7853(4) 0.9183(4) 0.7044(3)
C5_8 C 0.8032(4) 0.9266(4) 0.7532(3)
H1_8 H 0.8401 0.9048 0.7672
C6_8 C 0.7654(5) 0.9679(3) 0.7809(3)
H2_8 H 0.7802 0.9746 0.8137
C7_8 C 0.6913(5) 0.9953(4) 0.7172(3)
C8_8 C 0.7288(5) 0.9507(4) 0.6824(4)
H4_8 H 0.7158 0.9449 0.6491
C9_8 C 0.8377(4) 0.8208(4) 0.5426(3)
C10_8 C 0.7831(4) 0.8583(4) 0.5203(3)
H5_8 H 0.7597 0.8883 0.5392
C11_8 C 0.7660(5) 0.8482(4) 0.4682(3)
H6_8 H 0.7320 0.8726 0.4530
C12_8 C 0.8545(4) 0.7700(4) 0.4644(3)
H7_8 H 0.8842 0.7454 0.4452
C13_8 C 0.8658(5) 0.7737(4) 0.5156(3)
H8_8 H 0.8929 0.7435 0.5314
C14_8 C 0.9768(5) 0.7780(4) 0.6824(3)
H9_8 H 0.9893 0.7170 0.6262
H12_8 H 0.9836 0.8200 0.7522
H15_8 H 0.6921 0.9980 0.8954
H16_8 H 0.6539 0.9934 0.9779
N1_8 N 0.8067(4) 0.8714(3) 0.6235(2)
N2_8 N 0.9038(4) 0.8001(3) 0.6158(3)
N3_8 N 0.8830(3) 0.8496(3) 0.6912(3)
N5_8 N 0.8009(3) 0.8012(3) 0.4401(2)
I2 I 0.85988(3) 0.95724(3) 0.95304(2)
I2_2 I 0.64012(3) 0.04276(3) 0.45304(2)
I2_3 I 0.14012(3) 0.45724(3) 0.54696(2)
I2_4 I 0.35988(3) 0.54276(3) 0.04696(2)
I2_5 I 0.14012(3) 0.04276(3) 0.04696(2)
I2_6 I 0.35988(3) 0.95724(3) 0.54696(2)
I2_7 I 0.85988(3) 0.54276(3) 0.45304(2)
I2_8 I 0.64012(3) 0.45724(3) 0.95304(2)
loop_
_geom_bond_atom_site_label_1
_geom_bond_atom_site_label_2
_geom_bond_site_symmetry_1
_geom_bond_site_symmetry_2
C21 C32 1_555 1_555
C32 C33 1_555 1_555
C33 H21 1_555 1_555
C34 C33 1_555 1_555
H22 C34 1_555 1_555
C35 H23 1_555 1_555
C36 C32 1_555 1_555
H24 C36 1_555 1_555
N12 C34 1_555 1_555
Cu5 N12 1_555 1_555
C21 N9 1_555 1_555
C35 C36 1_555 1_555
C35 N12 1_555 1_555
C20 C27 1_555 1_555
C27 C28 1_555 1_555
C28 H17 1_555 1_555
C29 C28 1_555 1_555
H18 C29 1_555 1_555
C30 H19 1_555 1_555
C31 C27 1_555 1_555
H20 C31 1_555 1_555
N7 C19 1_555 1_555
N8 C20 1_555 1_555
N11 C29 1_555 1_555
Cu7 N11 1_555 1_555
C20 N7 1_555 1_555
C30 C31 1_555 1_555
C30 N11 1_555 1_555
C1 C4 1_555 1_555
C2 C9 1_555 1_555
C3 C14 1_555 1_555
C4 C5 1_555 1_555
C5 H1 1_555 1_555
C6 C5 1_555 1_555
H2 C6 1_555 1_555
C7 H3 1_555 1_555
C8 C4 1_555 1_555
H4 C8 1_555 1_555
C9 C10 1_555 1_555
C10 H5 1_555 1_555
C11 C10 1_555 1_555
H6 C11 1_555 1_555
C12 H7 1_555 1_555
C13 C9 1_555 1_555
H8 C13 1_555 1_555
C14 C15 1_555 1_555
C15 H9 1_555 1_555
C16 C15 1_555 1_555
H10 C16 1_555 1_555
C17 H11 1_555 1_555
C18 C14 1_555 1_555
H12 C18 1_555 1_555
C22 C23 1_555 1_555
C23 H13 1_555 1_555
C24 C23 1_555 1_555
H14 C24 1_555 1_555
C25 H15 1_555 1_555
C26 C22 1_555 1_555
H16 C26 1_555 1_555
Cu1 N4 1_555 1_555
Cu2 N5 1_555 1_555
I1 Cu4 1_555 1_555
N1 C1 1_555 1_555
N2 C2 1_555 1_555
N3 C1 1_555 1_555
N4 C6 1_555 1_555
N5 C11 1_555 1_555
N6 C16 1_555 1_555
N10 C24 1_555 1_555
Cu3 N6 1_555 1_555
Cu4 S1 1_555 1_555
S1 Cu1 1_555 1_555
S2 Cu3 1_555 1_555
S3 Cu1 1_555 1_555
S4 Cu2 1_555 1_555
W1 S1 1_555 1_555
Cu6 S3 1_555 1_555
Cu8 S3 1_555 1_555
N13 Cu3 1_555 1_555
N14 Cu2 1_555 1_555
Cu9 S2 1_555 1_555
S5 Cu4 1_555 1_555
S6 Cu2 1_555 1_555
S7 Cu3 1_555 1_555
S8 W1 1_555 1_555
W2 S2 1_555 1_555
W3 S4 1_555 1_555
C2 N1 1_555 1_555
C3 N2 1_555 1_555
C3 N3 1_555 1_555
C7 C8 1_555 1_555
C7 N4 1_555 1_555
C12 C13 1_555 1_555
C12 N5 1_555 1_555
C17 C18 1_555 1_555
C17 N6 1_555 1_555
C25 C26 1_555 1_555
C25 N10 1_555 1_555
Cu1 N10 1_555 1_555
S3 W1 1_555 1_555
W1 S5 1_555 1_555
Cu6 S8 1_555 1_555
Cu8 S5 1_555 1_555
S6 W3 1_555 1_555
S7 W2 1_555 1_555
C16_2 C15_2 1_555 1_555
H10_2 C16_2 1_555 1_555
C17_2 H11_2 1_555 1_555
N6_2 C16_2 1_555 1_555
Cu3_2 N6_2 1_555 1_555
S2_2 Cu3_2 1_555 1_555
N13_2 Cu3_2 1_555 1_555
Cu9_2 S2_2 1_555 1_555
S7_2 Cu3_2 1_555 1_555
W2_2 S2_2 1_555 1_555
C17_2 C18_2 1_555 1_555
C17_2 N6_2 1_555 1_555
S7_2 W2_2 1_555 1_555
C1_2 C4_2 1_555 1_555
C2_2 C9_2 1_555 1_555
C3_2 C14_2 1_555 1_555
C4_2 C5_2 1_555 1_555
C5_2 H1_2 1_555 1_555
C6_2 C5_2 1_555 1_555
H2_2 C6_2 1_555 1_555
C7_2 H3_2 1_555 1_555
C8_2 C4_2 1_555 1_555
H4_2 C8_2 1_555 1_555
C9_2 C10_2 1_555 1_555
C10_2 H5_2 1_555 1_555
C13_2 C9_2 1_555 1_555
H8_2 C13_2 1_555 1_555
C19_2 C22_2 1_555 1_555
C20_2 C27_2 1_555 1_555
C21_2 C32_2 1_555 1_555
C22_2 C23_2 1_555 1_555
C23_2 H13_2 1_555 1_555
C24_2 C23_2 1_555 1_555
H14_2 C24_2 1_555 1_555
C25_2 H15_2 1_555 1_555
C26_2 C22_2 1_555 1_555
H16_2 C26_2 1_555 1_555
C27_2 C28_2 1_555 1_555
C28_2 H17_2 1_555 1_555
C29_2 C28_2 1_555 1_555
H18_2 C29_2 1_555 1_555
C30_2 H19_2 1_555 1_555
C31_2 C27_2 1_555 1_555
H20_2 C31_2 1_555 1_555
C32_2 C33_2 1_555 1_555
C33_2 H21_2 1_555 1_555
C34_2 C33_2 1_555 1_555
H22_2 C34_2 1_555 1_555
C35_2 H23_2 1_555 1_555
C36_2 C32_2 1_555 1_555
H24_2 C36_2 1_555 1_555
Cu1_2 N4_2 1_555 1_555
I1_2 Cu4_2 1_555 1_555
N1_2 C1_2 1_555 1_555
N2_2 C2_2 1_555 1_555
N3_2 C1_2 1_555 1_555
N4_2 C6_2 1_555 1_555
N7_2 C19_2 1_555 1_555
N8_2 C20_2 1_555 1_555
N9_2 C19_2 1_555 1_555
N10_2 C24_2 1_555 1_555
N11_2 C29_2 1_555 1_555
N12_2 C34_2 1_555 1_555
Cu4_2 S1_2 1_555 1_555
S1_2 Cu1_2 1_555 1_555
S6 Cu1_2 1_555 1_555
W3 S1_2 1_555 1_555
Cu5_2 N12_2 1_555 1_555
Cu8 N11_2 1_555 1_555
Cu7 S6 1_555 1_555
S5_2 Cu4_2 1_555 1_555
C2_2 N1_2 1_555 1_555
C3_2 N2_2 1_555 1_555
C3_2 N3_2 1_555 1_555
C7_2 C8_2 1_555 1_555
C7_2 N4_2 1_555 1_555
C20_2 N7_2 1_555 1_555
C21_2 N8_2 1_555 1_555
C21_2 N9_2 1_555 1_555
C25_2 C26_2 1_555 1_555
C25_2 N10_2 1_555 1_555
C30_2 C31_2 1_555 1_555
C30_2 N11_2 1_555 1_555
C35_2 C36_2 1_555 1_555
C35_2 N12_2 1_555 1_555
Cu1_2 N10_2 1_555 1_555
W3 S5_2 1_555 1_555
Cu7 S5_2 1_555 1_555
H6_2 C11_2 1_555 1_555
C12_2 H7_2 1_555 1_555
Cu6 N5_2 1_555 1_555
N5_2 C11_2 1_555 1_555
N14_2 Cu6 1_555 1_555
C12_2 N5_2 1_555 1_555
C19_3 C22_3 1_555 1_555
C22_3 C23_3 1_555 1_555
C23_3 H13_3 1_555 1_555
C24_3 C23_3 1_555 1_555
H14_3 C24_3 1_555 1_555
C26_3 C22_3 1_555 1_555
Cu1_3 N4_3 1_555 1_555
I1_3 Cu9 1_555 1_555
N7_3 C19_3 1_555 1_555
N8_3 C20_3 1_555 1_555
N10_3 C24_3 1_555 1_555
Cu9 S1_3 1_555 1_555
S1_3 Cu1_3 1_555 1_555
S7 Cu1_3 1_555 1_555
W2 S1_3 1_555 1_555
Cu5_2 S7 1_555 1_555
S8_2 W2 1_555 1_555
C20_3 N7_3 1_555 1_555
C25_3 C26_3 1_555 1_555
C25_3 N10_3 1_555 1_555
Cu1_3 N10_3 1_555 1_555
Cu5_2 S8_2 1_555 1_555
H6_3 C11_3 1_555 1_555
C12_3 H7_3 1_555 1_555
Cu5 N5_3 1_555 1_555
N5_3 C11_3 1_555 1_555
S4_2 Cu5 1_555 1_555
S7_2 Cu5 1_555 1_555
W2_2 S4_2 1_555 1_555
C12_3 N5_3 1_555 1_555
C1_3 C4_3 1_555 1_555
C2_3 C9_3 1_555 1_555
C3_3 C14_3 1_555 1_555
C4_3 C5_3 1_555 1_555
C5_3 H1_3 1_555 1_555
C6_3 C5_3 1_555 1_555
H2_3 C6_3 1_555 1_555
C8_3 C4_3 1_555 1_555
H4_3 C8_3 1_555 1_555
C9_3 C10_3 1_555 1_555
C10_3 H5_3 1_555 1_555
C13_3 C9_3 1_555 1_555
H8_3 C13_3 1_555 1_555
C14_3 C15_3 1_555 1_555
C15_3 H9_3 1_555 1_555
C16_3 C15_3 1_555 1_555
H10_3 C16_3 1_555 1_555
C17_3 H11_3 1_555 1_555
C18_3 C14_3 1_555 1_555
H12_3 C18_3 1_555 1_555
C27_3 C28_3 1_555 1_555
C28_3 H17_3 1_555 1_555
C29_3 C28_3 1_555 1_555
H18_3 C29_3 1_555 1_555
C30_3 H19_3 1_555 1_555
C31_3 C27_3 1_555 1_555
H20_3 C31_3 1_555 1_555
N1_3 C1_3 1_555 1_555
N2_3 C2_3 1_555 1_555
N3_3 C1_3 1_555 1_555
N6_3 C16_3 1_555 1_555
Cu8 N6_3 1_555 1_555
N13_2 C29_3 1_555 1_555
C2_3 N1_3 1_555 1_555
C3_3 N2_3 1_555 1_555
C3_3 N3_3 1_555 1_555
C7_3 C8_3 1_555 1_555
C17_3 C18_3 1_555 1_555
C17_3 N6_3 1_555 1_555
C30_3 C31_3 1_555 1_555
C30_3 N13_2 1_555 1_555
C21_3 C32_3 1_555 1_555
C32_3 C33_3 1_555 1_555
C33_3 H21_3 1_555 1_555
C34_3 C33_3 1_555 1_555
H22_3 C34_3 1_555 1_555
C35_3 H23_3 1_555 1_555
C36_3 C32_3 1_555 1_555
H24_3 C36_3 1_555 1_555
N14 C34_3 1_555 1_555
C21_3 N9_3 1_555 1_555
C35_3 C36_3 1_555 1_555
C35_3 N14 1_555 1_555
C1_4 C4_4 1_555 1_555
C2_4 C9_4 1_555 1_555
C3_4 C14_4 1_555 1_555
C4_4 C5_4 1_555 1_555
C5_4 H1_4 1_555 1_555
C6_4 C5_4 1_555 1_555
H2_4 C6_4 1_555 1_555
C8_4 C4_4 1_555 1_555
H4_4 C8_4 1_555 1_555
C9_4 C10_4 1_555 1_555
C10_4 H5_4 1_555 1_555
C11_4 C10_4 1_555 1_555
H6_4 C11_4 1_555 1_555
C12_4 H7_4 1_555 1_555
C13_4 C9_4 1_555 1_555
H8_4 C13_4 1_555 1_555
Cu5_2 N5_4 1_555 1_555
N1_4 C1_4 1_555 1_555
N2_4 C2_4 1_555 1_555
N3_4 C1_4 1_555 1_555
N5_4 C11_4 1_555 1_555
C2_4 N1_4 1_555 1_555
C3_4 N2_4 1_555 1_555
C3_4 N3_4 1_555 1_555
C7_4 C8_4 1_555 1_555
C12_4 C13_4 1_555 1_555
C12_4 N5_4 1_555 1_555
C27_4 C28_4 1_555 1_555
C28_4 H17_4 1_555 1_555
C29_4 C28_4 1_555 1_555
H18_4 C29_4 1_555 1_555
C30_4 H19_4 1_555 1_555
C31_4 C27_4 1_555 1_555
H20_4 C31_4 1_555 1_555
N13 C29_4 1_555 1_555
C30_4 C31_4 1_555 1_555
C30_4 N13 1_555 1_555
C22_4 C23_4 1_555 1_555
C23_4 H13_4 1_555 1_555
C24_4 C23_4 1_555 1_555
H14_4 C24_4 1_555 1_555
C26_4 C22_4 1_555 1_555
Cu1_4 N4_4 1_555 1_555
I1_4 Cu9_2 1_555 1_555
N10_4 C24_4 1_555 1_555
Cu9_2 S1_4 1_555 1_555
S1_4 Cu1_4 1_555 1_555
S7_2 Cu1_4 1_555 1_555
W2_2 S1_4 1_555 1_555
C25_4 C26_4 1_555 1_555
C25_4 N10_4 1_555 1_555
Cu1_4 N10_4 1_555 1_555
C21_4 C32_4 1_555 1_555
C32_4 C33_4 1_555 1_555
C33_4 H21_4 1_555 1_555
C34_4 C33_4 1_555 1_555
H22_4 C34_4 1_555 1_555
C35_4 H23_4 1_555 1_555
C36_4 C32_4 1_555 1_555
H24_4 C36_4 1_555 1_555
N7_4 C19_4 1_555 1_555
N8_4 C20_4 1_555 1_555
N9_4 C19_4 1_555 1_555
N14_2 C34_4 1_555 1_555
C20_4 N7_4 1_555 1_555
C21_4 N8_4 1_555 1_555
C21_4 N9_4 1_555 1_555
C35_4 C36_4 1_555 1_555
C35_4 N14_2 1_555 1_555
C16_4 C15_4 1_555 1_555
H10_4 C16_4 1_555 1_555
C17_4 H11_4 1_555 1_555
N6_4 C16_4 1_555 1_555
Cu7 N6_4 1_555 1_555
C17_4 C18_4 1_555 1_555
C17_4 N6_4 1_555 1_555
C1_5 C4_5 1_555 1_555
C2_5 C9_5 1_555 1_555
C3_5 C14_5 1_555 1_555
C4_5 C5_5 1_555 1_555
C5_5 H1_5 1_555 1_555
C6_5 C5_5 1_555 1_555
H2_5 C6_5 1_555 1_555
C7_5 H3_5 1_555 1_555
C8_5 C4_5 1_555 1_555
H4_5 C8_5 1_555 1_555
C9_5 C10_5 1_555 1_555
C10_5 H5_5 1_555 1_555
C11_5 C10_5 1_555 1_555
H6_5 C11_5 1_555 1_555
C12_5 H7_5 1_555 1_555
C13_5 C9_5 1_555 1_555
H8_5 C13_5 1_555 1_555
C14_5 C15_5 1_555 1_555
C15_5 H9_5 1_555 1_555
C16_5 C15_5 1_555 1_555
H10_5 C16_5 1_555 1_555
C17_5 H11_5 1_555 1_555
C18_5 C14_5 1_555 1_555
H12_5 C18_5 1_555 1_555
C22_5 C23_5 1_555 1_555
C23_5 H13_5 1_555 1_555
C24_5 C23_5 1_555 1_555
H14_5 C24_5 1_555 1_555
C25_5 H15_5 1_555 1_555
C26_5 C22_5 1_555 1_555
H16_5 C26_5 1_555 1_555
Cu1_5 N4_5 1_555 1_555
Cu2_2 N5_5 1_555 1_555
I1_5 Cu4_3 1_555 1_555
N1_5 C1_5 1_555 1_555
N2_5 C2_5 1_555 1_555
N3_5 C1_5 1_555 1_555
N4_5 C6_5 1_555 1_555
N5_5 C11_5 1_555 1_555
N6_5 C16_5 1_555 1_555
N10_5 C24_5 1_555 1_555
Cu3_3 N6_5 1_555 1_555
Cu4_3 S1_5 1_555 1_555
S1_5 Cu1_5 1_555 1_555
S2_3 Cu3_3 1_555 1_555
S3_2 Cu1_5 1_555 1_555
S4_3 Cu2_2 1_555 1_555
W1_2 S1_5 1_555 1_555
Cu6_2 S3_2 1_555 1_555
Cu8_2 S3_2 1_555 1_555
N13_3 Cu3_3 1_555 1_555
N14_3 Cu2_2 1_555 1_555
Cu9_3 S2_3 1_555 1_555
S5_3 Cu4_3 1_555 1_555
S6_2 Cu2_2 1_555 1_555
S7_3 Cu3_3 1_555 1_555
S8_3 W1_2 1_555 1_555
W2_3 S2_3 1_555 1_555
W3_2 S4_3 1_555 1_555
C2_5 N1_5 1_555 1_555
C3_5 N2_5 1_555 1_555
C3_5 N3_5 1_555 1_555
C7_5 C8_5 1_555 1_555
C7_5 N4_5 1_555 1_555
C12_5 C13_5 1_555 1_555
C12_5 N5_5 1_555 1_555
C17_5 C18_5 1_555 1_555
C17_5 N6_5 1_555 1_555
C25_5 C26_5 1_555 1_555
C25_5 N10_5 1_555 1_555
Cu1_5 N10_5 1_555 1_555
S3_2 W1_2 1_555 1_555
W1_2 S5_3 1_555 1_555
Cu6_2 S8_3 1_555 1_555
Cu8_2 S5_3 1_555 1_555
S6_2 W3_2 1_555 1_555
S7_3 W2_3 1_555 1_555
C20_5 C27_5 1_555 1_555
C27_5 C28_5 1_555 1_555
C28_5 H17_5 1_555 1_555
C29_5 C28_5 1_555 1_555
H18_5 C29_5 1_555 1_555
C30_5 H19_5 1_555 1_555
C31_5 C27_5 1_555 1_555
H20_5 C31_5 1_555 1_555
N7_5 C19_5 1_555 1_555
N8_5 C20_5 1_555 1_555
N11_3 C29_5 1_555 1_555
Cu7_2 N11_3 1_555 1_555
C20_5 N7_5 1_555 1_555
C30_5 C31_5 1_555 1_555
C30_5 N11_3 1_555 1_555
C21_5 C32_5 1_555 1_555
C32_5 C33_5 1_555 1_555
C33_5 H21_5 1_555 1_555
C34_5 C33_5 1_555 1_555
H22_5 C34_5 1_555 1_555
C35_5 H23_5 1_555 1_555
C36_5 C32_5 1_555 1_555
H24_5 C36_5 1_555 1_555
N12_3 C34_5 1_555 1_555
Cu5_3 N12_3 1_555 1_555
C21_5 N9_5 1_555 1_555
C35_5 C36_5 1_555 1_555
C35_5 N12_3 1_555 1_555
H6_6 C11_6 1_555 1_555
C12_6 H7_6 1_555 1_555
Cu6_2 N5_6 1_555 1_555
N5_6 C11_6 1_555 1_555
N14_4 Cu6_2 1_555 1_555
C12_6 N5_6 1_555 1_555
C1_6 C4_6 1_555 1_555
C2_6 C9_6 1_555 1_555
C3_6 C14_6 1_555 1_555
C4_6 C5_6 1_555 1_555
C5_6 H1_6 1_555 1_555
C6_6 C5_6 1_555 1_555
H2_6 C6_6 1_555 1_555
C7_6 H3_6 1_555 1_555
C8_6 C4_6 1_555 1_555
H4_6 C8_6 1_555 1_555
C9_6 C10_6 1_555 1_555
C10_6 H5_6 1_555 1_555
C13_6 C9_6 1_555 1_555
H8_6 C13_6 1_555 1_555
C19_6 C22_6 1_555 1_555
C20_6 C27_6 1_555 1_555
C21_6 C32_6 1_555 1_555
C22_6 C23_6 1_555 1_555
C23_6 H13_6 1_555 1_555
C24_6 C23_6 1_555 1_555
H14_6 C24_6 1_555 1_555
C25_6 H15_6 1_555 1_555
C26_6 C22_6 1_555 1_555
H16_6 C26_6 1_555 1_555
C27_6 C28_6 1_555 1_555
C28_6 H17_6 1_555 1_555
C29_6 C28_6 1_555 1_555
H18_6 C29_6 1_555 1_555
C30_6 H19_6 1_555 1_555
C31_6 C27_6 1_555 1_555
H20_6 C31_6 1_555 1_555
C32_6 C33_6 1_555 1_555
C33_6 H21_6 1_555 1_555
C34_6 C33_6 1_555 1_555
H22_6 C34_6 1_555 1_555
C35_6 H23_6 1_555 1_555
C36_6 C32_6 1_555 1_555
H24_6 C36_6 1_555 1_555
Cu1_6 N4_6 1_555 1_555
I1_6 Cu4_4 1_555 1_555
N1_6 C1_6 1_555 1_555
N2_6 C2_6 1_555 1_555
N3_6 C1_6 1_555 1_555
N4_6 C6_6 1_555 1_555
N7_6 C19_6 1_555 1_555
N8_6 C20_6 1_555 1_555
N9_6 C19_6 1_555 1_555
N10_6 C24_6 1_555 1_555
N11_4 C29_6 1_555 1_555
N12_4 C34_6 1_555 1_555
Cu4_4 S1_6 1_555 1_555
S1_6 Cu1_6 1_555 1_555
S6_2 Cu1_6 1_555 1_555
W3_2 S1_6 1_555 1_555
Cu5_4 N12_4 1_555 1_555
Cu8_2 N11_4 1_555 1_555
Cu7_2 S6_2 1_555 1_555
S5_4 Cu4_4 1_555 1_555
C2_6 N1_6 1_555 1_555
C3_6 N2_6 1_555 1_555
C3_6 N3_6 1_555 1_555
C7_6 C8_6 1_555 1_555
C7_6 N4_6 1_555 1_555
C20_6 N7_6 1_555 1_555
C21_6 N8_6 1_555 1_555
C21_6 N9_6 1_555 1_555
C25_6 C26_6 1_555 1_555
C25_6 N10_6 1_555 1_555
C30_6 C31_6 1_555 1_555
C30_6 N11_4 1_555 1_555
C35_6 C36_6 1_555 1_555
C35_6 N12_4 1_555 1_555
Cu1_6 N10_6 1_555 1_555
W3_2 S5_4 1_555 1_555
Cu7_2 S5_4 1_555 1_555
C16_6 C15_6 1_555 1_555
H10_6 C16_6 1_555 1_555
C17_6 H11_6 1_555 1_555
N6_6 C16_6 1_555 1_555
Cu3_4 N6_6 1_555 1_555
S2_4 Cu3_4 1_555 1_555
N13_4 Cu3_4 1_555 1_555
Cu9_4 S2_4 1_555 1_555
S7_4 Cu3_4 1_555 1_555
W2_4 S2_4 1_555 1_555
C17_6 C18_6 1_555 1_555
C17_6 N6_6 1_555 1_555
S7_4 W2_4 1_555 1_555
C21_7 C32_7 1_555 1_555
C32_7 C33_7 1_555 1_555
C33_7 H21_7 1_555 1_555
C34_7 C33_7 1_555 1_555
H22_7 C34_7 1_555 1_555
C35_7 H23_7 1_555 1_555
C36_7 C32_7 1_555 1_555
H24_7 C36_7 1_555 1_555
N14_3 C34_7 1_555 1_555
C21_7 N9_7 1_555 1_555
C35_7 C36_7 1_555 1_555
C35_7 N14_3 1_555 1_555
C1_7 C4_7 1_555 1_555
C2_7 C9_7 1_555 1_555
C3_7 C14_7 1_555 1_555
C4_7 C5_7 1_555 1_555
C5_7 H1_7 1_555 1_555
C6_7 C5_7 1_555 1_555
H2_7 C6_7 1_555 1_555
C8_7 C4_7 1_555 1_555
H4_7 C8_7 1_555 1_555
C9_7 C10_7 1_555 1_555
C10_7 H5_7 1_555 1_555
C13_7 C9_7 1_555 1_555
H8_7 C13_7 1_555 1_555
C14_7 C15_7 1_555 1_555
C15_7 H9_7 1_555 1_555
C16_7 C15_7 1_555 1_555
H10_7 C16_7 1_555 1_555
C17_7 H11_7 1_555 1_555
C18_7 C14_7 1_555 1_555
H12_7 C18_7 1_555 1_555
C27_7 C28_7 1_555 1_555
C28_7 H17_7 1_555 1_555
C29_7 C28_7 1_555 1_555
H18_7 C29_7 1_555 1_555
C30_7 H19_7 1_555 1_555
C31_7 C27_7 1_555 1_555
H20_7 C31_7 1_555 1_555
N1_7 C1_7 1_555 1_555
N2_7 C2_7 1_555 1_555
N3_7 C1_7 1_555 1_555
N6_7 C16_7 1_555 1_555
Cu8_2 N6_7 1_555 1_555
N13_4 C29_7 1_555 1_555
C2_7 N1_7 1_555 1_555
C3_7 N2_7 1_555 1_555
C3_7 N3_7 1_555 1_555
C7_7 C8_7 1_555 1_555
C17_7 C18_7 1_555 1_555
C17_7 N6_7 1_555 1_555
C30_7 C31_7 1_555 1_555
C30_7 N13_4 1_555 1_555
H6_7 C11_7 1_555 1_555
C12_7 H7_7 1_555 1_555
Cu5_3 N5_7 1_555 1_555
N5_7 C11_7 1_555 1_555
S4_4 Cu5_3 1_555 1_555
S7_4 Cu5_3 1_555 1_555
W2_4 S4_4 1_555 1_555
C12_7 N5_7 1_555 1_555
C19_7 C22_7 1_555 1_555
C22_7 C23_7 1_555 1_555
C23_7 H13_7 1_555 1_555
C24_7 C23_7 1_555 1_555
H14_7 C24_7 1_555 1_555
C26_7 C22_7 1_555 1_555
Cu1_7 N4_7 1_555 1_555
I1_7 Cu9_3 1_555 1_555
N7_7 C19_7 1_555 1_555
N8_7 C20_7 1_555 1_555
N10_7 C24_7 1_555 1_555
Cu9_3 S1_7 1_555 1_555
S1_7 Cu1_7 1_555 1_555
S7_3 Cu1_7 1_555 1_555
W2_3 S1_7 1_555 1_555
Cu5_4 S7_3 1_555 1_555
S8_4 W2_3 1_555 1_555
C20_7 N7_7 1_555 1_555
C25_7 C26_7 1_555 1_555
C25_7 N10_7 1_555 1_555
Cu1_7 N10_7 1_555 1_555
Cu5_4 S8_4 1_555 1_555
C16_8 C15_8 1_555 1_555
H10_8 C16_8 1_555 1_555
C17_8 H11_8 1_555 1_555
N6_8 C16_8 1_555 1_555
Cu7_2 N6_8 1_555 1_555
C17_8 C18_8 1_555 1_555
C17_8 N6_8 1_555 1_555
C21_8 C32_8 1_555 1_555
C32_8 C33_8 1_555 1_555
C33_8 H21_8 1_555 1_555
C34_8 C33_8 1_555 1_555
H22_8 C34_8 1_555 1_555
C35_8 H23_8 1_555 1_555
C36_8 C32_8 1_555 1_555
H24_8 C36_8 1_555 1_555
N7_8 C19_8 1_555 1_555
N8_8 C20_8 1_555 1_555
N9_8 C19_8 1_555 1_555
N14_4 C34_8 1_555 1_555
C20_8 N7_8 1_555 1_555
C21_8 N8_8 1_555 1_555
C21_8 N9_8 1_555 1_555
C35_8 C36_8 1_555 1_555
C35_8 N14_4 1_555 1_555
C22_8 C23_8 1_555 1_555
C23_8 H13_8 1_555 1_555
C24_8 C23_8 1_555 1_555
H14_8 C24_8 1_555 1_555
C26_8 C22_8 1_555 1_555
Cu1_8 N4_8 1_555 1_555
I1_8 Cu9_4 1_555 1_555
N10_8 C24_8 1_555 1_555
Cu9_4 S1_8 1_555 1_555
S1_8 Cu1_8 1_555 1_555
S7_4 Cu1_8 1_555 1_555
W2_4 S1_8 1_555 1_555
C25_8 C26_8 1_555 1_555
C25_8 N10_8 1_555 1_555
Cu1_8 N10_8 1_555 1_555
C27_8 C28_8 1_555 1_555
C28_8 H17_8 1_555 1_555
C29_8 C28_8 1_555 1_555
H18_8 C29_8 1_555 1_555
C30_8 H19_8 1_555 1_555
C31_8 C27_8 1_555 1_555
H20_8 C31_8 1_555 1_555
N13_3 C29_8 1_555 1_555
C30_8 C31_8 1_555 1_555
C30_8 N13_3 1_555 1_555
C1_8 C4_8 1_555 1_555
C2_8 C9_8 1_555 1_555
C3_8 C14_8 1_555 1_555
C4_8 C5_8 1_555 1_555
C5_8 H1_8 1_555 1_555
C6_8 C5_8 1_555 1_555
H2_8 C6_8 1_555 1_555
C8_8 C4_8 1_555 1_555
H4_8 C8_8 1_555 1_555
C9_8 C10_8 1_555 1_555
C10_8 H5_8 1_555 1_555
C11_8 C10_8 1_555 1_555
H6_8 C11_8 1_555 1_555
C12_8 H7_8 1_555 1_555
C13_8 C9_8 1_555 1_555
H8_8 C13_8 1_555 1_555
Cu5_4 N5_8 1_555 1_555
N1_8 C1_8 1_555 1_555
N2_8 C2_8 1_555 1_555
N3_8 C1_8 1_555 1_555
N5_8 C11_8 1_555 1_555
C2_8 N1_8 1_555 1_555
C3_8 N2_8 1_555 1_555
C3_8 N3_8 1_555 1_555
C7_8 C8_8 1_555 1_555
C12_8 C13_8 1_555 1_555
C12_8 N5_8 1_555 1_555

#END
