
###############################################################################
#
# This file contains modified crystal structure data generated from the
# MOF subset of the Cambridge Structural Database (CSD) v543 
# hosted by the Cambridge Crystallographic Data Centre (CCDC).
#
# This work is licensed under the Creative Commons
# Attribution-NonCommercial-ShareAlike 4.0 International License.
# To view a copy of this license, visit
# http://creativecommons.org/licenses/by-nc-sa/4.0/
# or send a letter to
# Creative Commons, PO Box 1866, Mountain View, CA 94042, USA.
#
# CIF created using the CSD Python API on 29 September 2022
# The structure has been converted into the P1 space group
# The structure has a 3D framework
# The original CSD entry SATNOR01 is in the rhombohedral crystal system
# The framework has been calculated to contain at least 10.0% void space
# The void calculation uses a probe of radius 1.32A, grid spacing 0.4
#
###############################################################################

data_SATNOR01
_chemical_formula_moiety         '(C72 H18 Co12 O54)n'
_symmetry_cell_setting           triclinic
_symmetry_space_group_name_H-M   'P 1'
_symmetry_Int_Tables_number      1
_space_group_name_Hall           'P 1'
loop_
_symmetry_equiv_pos_site_id
_symmetry_equiv_pos_as_xyz
1 x,y,z
_cell_length_a                   25.906(7)
_cell_length_b                   25.906(7)
_cell_length_c                   6.817(4)
_cell_angle_alpha                90
_cell_angle_beta                 90
_cell_angle_gamma                120
_cell_volume                     3962.09
loop_
_atom_site_label
_atom_site_type_symbol
_atom_site_fract_x
_atom_site_fract_y
_atom_site_fract_z
O6 O 0.0367(4) 0.6999(3) 0.0334(9)
Co4 Co 0.04848(7) 0.68642(5) 0.47516(16)
O11 O 0.0588(4) 0.7475(3) 0.6736(7)
O12 O 0.9192(3) 0.6447(3) 0.0069(7)
C1 C 0.9273(4) 0.6809(4) 0.4268(12)
C2 C 0.8793(4) 0.6726(4) 0.2884(12)
C3 C 0.8781(4) 0.6555(4) 0.0899(11)
C4 C 0.8346(4) 0.6834(4) 0.3583(12)
H1 H 0.8363 0.6948 0.4886
Co1 Co 0.98025(5) 0.69540(5) 0.80849(16)
O1 O 0.9274(3) 0.6986(3) 0.5995(8)
O2 O 0.9668(3) 0.6702(3) 0.3667(9)
C6 C 0.7874(4) 0.6607(4) 0.0449(12)
C7 C 0.7886(4) 0.6778(4) 0.2434(11)
Co3 Co 0.97127(5) 0.61818(7) 0.14182(16)
Co6 Co 0.69540(5) 0.71515(7) 0.19151(16)
Co8 Co 0.68642(5) 0.63793(5) 0.52484(16)
O7 O 0.9965(3) 0.6299(4) 0.7000(9)
O10 O 0.7475(3) 0.6886(3) 0.3264(7)
C5 C 0.7394(4) 0.6524(4) 0.9065(12)
C8 C 0.8321(4) 0.6499(4) 0.9750(12)
H2 H 0.8304 0.6385 0.8447
Co7 Co 0.61818(7) 0.64692(5) 0.85818(16)
O4 O 0.7393(3) 0.6347(3) 0.7338(8)
O5 O 0.6999(3) 0.6631(3) 0.9666(9)
O8 O 0.6299(4) 0.6335(3) 0.3000(9)
O9 O 0.6702(3) 0.7034(4) 0.6333(9)
O13 O 0.6078(4) 0.5859(3) 0.6598(7)
O6_2 O 0.3001(3) 0.3369(5) 0.0334(9)
O12_2 O 0.3553(3) 0.2745(4) 0.0069(7)
C1_2 C 0.3191(4) 0.2464(6) 0.4268(12)
C2_2 C 0.3274(4) 0.2067(6) 0.2884(12)
C3_2 C 0.3445(4) 0.2226(6) 0.0899(11)
C4_2 C 0.3166(4) 0.1512(6) 0.3583(12)
H1_2 H 0.3052 0.1415 0.4886
Co1_2 Co 0.30460(5) 0.28485(7) 0.80849(16)
O1_2 O 0.3014(3) 0.2288(4) 0.5995(8)
O2_2 O 0.3298(3) 0.2966(4) 0.3667(9)
C6_2 C 0.3393(4) 0.1266(6) 0.0449(12)
C7_2 C 0.3222(4) 0.1107(6) 0.2434(11)
Co3_2 Co 0.38182(7) 0.35308(9) 0.14182(16)
Co4_2 Co 0.31358(5) 0.36207(9) 0.47516(16)
Co8_2 Co 0.36207(5) 0.04848(7) 0.52484(16)
O7_2 O 0.3701(4) 0.3665(5) 0.7000(9)
O10_2 O 0.3114(3) 0.0588(4) 0.3264(7)
O11_2 O 0.2525(3) 0.3114(5) 0.6736(7)
C5_2 C 0.3476(4) 0.0869(6) 0.9065(12)
C8_2 C 0.3501(4) 0.1821(6) 0.9750(12)
H2_2 H 0.3615 0.1918 0.8447
O4_2 O 0.3653(3) 0.1045(4) 0.7338(8)
O5_2 O 0.3369(3) 0.0367(4) 0.9666(9)
O13_2 O 0.4141(3) 0.0220(5) 0.6598(7)
Co6_2 Co 0.28485(7) 0.98025(9) 0.19151(16)
Co7_2 Co 0.35308(5) 0.97127(9) 0.85818(16)
O8_2 O 0.3665(3) 0.9965(5) 0.3000(9)
O9_2 O 0.2966(4) 0.9668(5) 0.6333(9)
Co6_3 Co 0.01975(9) 0.30460(5) 0.19151(16)
Co7_3 Co 0.02873(9) 0.38182(7) 0.85818(16)
O8_3 O 0.0035(5) 0.3701(4) 0.3000(9)
O9_3 O 0.0332(5) 0.3298(3) 0.6333(9)
O12_3 O 0.7255(4) 0.0808(3) 0.0069(7)
C1_3 C 0.7536(6) 0.0727(4) 0.4268(12)
C2_3 C 0.7933(6) 0.1207(4) 0.2884(12)
C3_3 C 0.7774(6) 0.1219(4) 0.0899(11)
C4_3 C 0.8488(6) 0.1654(4) 0.3583(12)
H1_3 H 0.8585 0.1637 0.4886
Co1_3 Co 0.71515(7) 0.01975(5) 0.80849(16)
O1_3 O 0.7712(4) 0.0726(3) 0.5995(8)
O2_3 O 0.7034(4) 0.0332(3) 0.3667(9)
C6_3 C 0.8734(6) 0.2126(4) 0.0449(12)
C7_3 C 0.8893(6) 0.2114(4) 0.2434(11)
Co3_3 Co 0.64692(9) 0.02873(5) 0.14182(16)
Co8_3 Co 0.95152(7) 0.31358(5) 0.52484(16)
O7_3 O 0.6335(5) 0.0035(3) 0.7000(9)
O10_3 O 0.9412(4) 0.2525(3) 0.3264(7)
C5_3 C 0.9131(6) 0.2606(4) 0.9065(12)
C8_3 C 0.8179(6) 0.1679(4) 0.9750(12)
H2_3 H 0.8082 0.1696 0.8447
O4_3 O 0.8955(4) 0.2607(3) 0.7338(8)
O5_3 O 0.9633(4) 0.3001(3) 0.9666(9)
O13_3 O 0.9780(5) 0.3922(4) 0.6598(7)
O6_3 O 0.6631(5) 0.9633(4) 0.0334(9)
Co4_3 Co 0.63793(9) 0.95152(7) 0.47516(16)
O11_3 O 0.6886(5) 0.9412(4) 0.6736(7)
C1_4 C 0.5940(4) 0.0142(4) 0.7601(12)
C2_4 C 0.5460(4) 0.0059(4) 0.6217(12)
C4_4 C 0.5013(4) 0.0167(4) 0.6916(12)
H1_4 H 0.5030 0.0281 0.8219
O1_4 O 0.5941(3) 0.0319(3) 0.9328(8)
C7_4 C 0.4552(4) 0.0112(4) 0.5768(11)
O12_4 O 0.5859(3) 0.9780(3) 0.3402(7)
C3_4 C 0.5448(4) 0.9888(4) 0.4232(11)
C5_4 C 0.4060(4) 0.9858(4) 0.2399(12)
C6_4 C 0.4540(4) 0.9941(4) 0.3783(12)
C8_4 C 0.4987(4) 0.9833(4) 0.3084(12)
H2_4 H 0.4970 0.9719 0.1781
O4_4 O 0.4059(3) 0.9681(3) 0.0672(8)
O13_4 O 0.2745(4) 0.9192(3) 0.9931(7)
O12_5 O 0.0220(3) 0.6078(4) 0.3402(7)
C3_5 C 0.0112(4) 0.5559(6) 0.4232(11)
C5_5 C 0.0142(4) 0.4203(6) 0.2399(12)
C6_5 C 0.0059(4) 0.4600(6) 0.3783(12)
C8_5 C 0.0167(4) 0.5155(6) 0.3084(12)
H2_5 H 0.0281 0.5252 0.1781
O4_5 O 0.0319(3) 0.4379(4) 0.0672(8)
O13_5 O 0.0808(3) 0.3553(5) 0.9931(7)
C1_5 C 0.9858(4) 0.5797(6) 0.7601(12)
C2_5 C 0.9941(4) 0.5400(6) 0.6217(12)
C4_5 C 0.9833(4) 0.4845(6) 0.6916(12)
H1_5 H 0.9719 0.4748 0.8219
O1_5 O 0.9681(3) 0.5621(4) 0.9328(8)
C7_5 C 0.9888(4) 0.4441(6) 0.5768(11)
O12_6 O 0.3922(4) 0.4141(3) 0.3402(7)
C1_6 C 0.4203(6) 0.4060(4) 0.7601(12)
C2_6 C 0.4600(6) 0.4540(4) 0.6217(12)
C3_6 C 0.4441(6) 0.4552(4) 0.4232(11)
C4_6 C 0.5155(6) 0.4987(4) 0.6916(12)
H1_6 H 0.5252 0.4970 0.8219
O1_6 O 0.4379(4) 0.4059(3) 0.9328(8)
C5_6 C 0.5797(6) 0.5940(4) 0.2399(12)
C6_6 C 0.5400(6) 0.5460(4) 0.3783(12)
C7_6 C 0.5559(6) 0.5448(4) 0.5768(11)
C8_6 C 0.4845(6) 0.5013(4) 0.3084(12)
H2_6 H 0.4748 0.5030 0.1781
O4_6 O 0.5621(4) 0.5941(3) 0.0672(8)
O13_6 O 0.6447(5) 0.7255(4) 0.9931(7)
C1_7 C 0.2606(4) 0.3476(4) 0.0935(12)
C4_7 C 0.1679(4) 0.3501(4) 0.0250(12)
H1_7 H 0.1696 0.3615 0.1553
O1_7 O 0.2607(3) 0.3653(3) 0.2662(8)
C2_7 C 0.2126(4) 0.3393(4) 0.9551(12)
C3_7 C 0.2114(4) 0.3222(4) 0.7566(11)
C5_7 C 0.0727(4) 0.3191(4) 0.5732(12)
C6_7 C 0.1207(4) 0.3274(4) 0.7116(12)
C7_7 C 0.1219(4) 0.3445(4) 0.9101(11)
C8_7 C 0.1654(4) 0.3166(4) 0.6417(12)
H2_7 H 0.1637 0.3052 0.5114
O4_7 O 0.0726(3) 0.3014(3) 0.4005(8)
C1_8 C 0.6524(4) 0.9131(6) 0.0935(12)
C4_8 C 0.6499(4) 0.8179(6) 0.0250(12)
H1_8 H 0.6385 0.8082 0.1553
O1_8 O 0.6347(3) 0.8955(4) 0.2662(8)
C2_8 C 0.6607(4) 0.8734(6) 0.9551(12)
C3_8 C 0.6778(4) 0.8893(6) 0.7566(11)
C5_8 C 0.6809(4) 0.7536(6) 0.5732(12)
C6_8 C 0.6726(4) 0.7933(6) 0.7116(12)
C7_8 C 0.6555(4) 0.7774(6) 0.9101(11)
C8_8 C 0.6834(4) 0.8488(6) 0.6417(12)
H2_8 H 0.6948 0.8585 0.5114
O4_8 O 0.6986(3) 0.7712(4) 0.4005(8)
C1_9 C 0.0869(6) 0.7394(4) 0.0935(12)
C4_9 C 0.1821(6) 0.8321(4) 0.0250(12)
H1_9 H 0.1918 0.8304 0.1553
O1_9 O 0.1045(4) 0.7393(3) 0.2662(8)
C2_9 C 0.1266(6) 0.7874(4) 0.9551(12)
C3_9 C 0.1107(6) 0.7886(4) 0.7566(11)
C5_9 C 0.2464(6) 0.9273(4) 0.5732(12)
C6_9 C 0.2067(6) 0.8793(4) 0.7116(12)
C7_9 C 0.2226(6) 0.8781(4) 0.9101(11)
C8_9 C 0.1512(6) 0.8346(4) 0.6417(12)
H2_9 H 0.1415 0.8363 0.5114
O4_9 O 0.2288(4) 0.9274(3) 0.4005(8)
loop_
_geom_bond_atom_site_label_1
_geom_bond_atom_site_label_2
_geom_bond_site_symmetry_1
_geom_bond_site_symmetry_2
Co4 O11 1_555 1_555
C1 C2 1_555 1_555
C2 C3 1_555 1_555
C3 O12 1_555 1_555
C4 C2 1_555 1_555
H1 C4 1_555 1_555
Co1 O1 1_555 1_555
O1 C1 1_555 1_555
O2 C1 1_555 1_555
O12 Co3 1_555 1_555
C6 C7 1_555 1_555
C7 C4 1_555 1_555
Co3 O2 1_555 1_555
Co8 O10 1_555 1_555
O7 Co1 1_555 1_555
O10 C7 1_555 1_555
Co6 O10 1_555 1_555
H2 C8 1_555 1_555
Co8 O4 1_555 1_555
Co7 O5 1_555 1_555
O4 C5 1_555 1_555
O5 C5 1_555 1_555
O8 Co8 1_555 1_555
O9 Co8 1_555 1_555
O13 Co8 1_555 1_555
Co7 O9 1_555 1_555
Co7 O13 1_555 1_555
C1_2 C2_2 1_555 1_555
C2_2 C3_2 1_555 1_555
C3_2 O12_2 1_555 1_555
C4_2 C2_2 1_555 1_555
H1_2 C4_2 1_555 1_555
Co1_2 O1_2 1_555 1_555
O1_2 C1_2 1_555 1_555
O2_2 C1_2 1_555 1_555
O12_2 Co3_2 1_555 1_555
C6_2 C7_2 1_555 1_555
C7_2 C4_2 1_555 1_555
Co3_2 O2_2 1_555 1_555
Co4_2 O2_2 1_555 1_555
Co8_2 O10_2 1_555 1_555
O7_2 Co1_2 1_555 1_555
O10_2 C7_2 1_555 1_555
O11_2 Co1_2 1_555 1_555
Co4_2 O7_2 1_555 1_555
Co4_2 O11_2 1_555 1_555
H2_2 C8_2 1_555 1_555
Co8_2 O4_2 1_555 1_555
O4_2 C5_2 1_555 1_555
O5_2 C5_2 1_555 1_555
O13_2 Co8_2 1_555 1_555
Co7_2 O9_2 1_555 1_555
Co7_3 O9_3 1_555 1_555
C1_3 C2_3 1_555 1_555
C2_3 C3_3 1_555 1_555
C3_3 O12_3 1_555 1_555
C4_3 C2_3 1_555 1_555
H1_3 C4_3 1_555 1_555
Co1_3 O1_3 1_555 1_555
O1_3 C1_3 1_555 1_555
O2_3 C1_3 1_555 1_555
O12_3 Co3_3 1_555 1_555
C6_3 C7_3 1_555 1_555
C7_3 C4_3 1_555 1_555
Co3_3 O2_3 1_555 1_555
Co8_3 O10_3 1_555 1_555
O7_3 Co1_3 1_555 1_555
O10_3 C7_3 1_555 1_555
H2_3 C8_3 1_555 1_555
Co8_3 O4_3 1_555 1_555
O4_3 C5_3 1_555 1_555
O5_3 C5_3 1_555 1_555
O13_3 Co8_3 1_555 1_555
Co4_3 O11_3 1_555 1_555
C1_4 C2_4 1_555 1_555
C4_4 C2_4 1_555 1_555
H1_4 C4_4 1_555 1_555
O1_4 C1_4 1_555 1_555
O7_3 C1_4 1_555 1_555
C7_4 C4_4 1_555 1_555
O13_2 C7_4 1_555 1_555
C3_4 O12_4 1_555 1_555
O12_4 Co4_3 1_555 1_555
C5_4 C6_4 1_555 1_555
C8_4 C3_4 1_555 1_555
H2_4 C8_4 1_555 1_555
Co6_2 O8_2 1_555 1_555
O4_4 C5_4 1_555 1_555
O8_2 C5_4 1_555 1_555
C6_4 C8_4 1_555 1_555
O13_4 Co7_2 1_555 1_555
C3_5 O12_5 1_555 1_555
O12_5 Co4 1_555 1_555
C5_5 C6_5 1_555 1_555
C8_5 C3_5 1_555 1_555
H2_5 C8_5 1_555 1_555
Co6_3 O8_3 1_555 1_555
O4_5 C5_5 1_555 1_555
O8_3 C5_5 1_555 1_555
C6_5 C8_5 1_555 1_555
O13_5 Co7_3 1_555 1_555
C1_5 C2_5 1_555 1_555
C4_5 C2_5 1_555 1_555
H1_5 C4_5 1_555 1_555
O1_5 C1_5 1_555 1_555
O7 C1_5 1_555 1_555
C7_5 C4_5 1_555 1_555
O13_3 C7_5 1_555 1_555
O6_2 Co3_2 1_555 1_555
O12_6 Co3_2 1_555 1_555
C1_6 C2_6 1_555 1_555
C2_6 C3_6 1_555 1_555
C3_6 O12_6 1_555 1_555
C4_6 C2_6 1_555 1_555
H1_6 C4_6 1_555 1_555
O1_6 C1_6 1_555 1_555
O7_2 C1_6 1_555 1_555
O12_6 Co4_2 1_555 1_555
C5_6 C6_6 1_555 1_555
C6_6 C7_6 1_555 1_555
C7_6 C4_6 1_555 1_555
C8_6 C3_6 1_555 1_555
H2_6 C8_6 1_555 1_555
Co6 O8 1_555 1_555
O4_6 C5_6 1_555 1_555
O8 C5_6 1_555 1_555
O13 C7_6 1_555 1_555
C6_6 C8_6 1_555 1_555
O13_6 Co7 1_555 1_555
H1_7 C4_7 1_555 1_555
Co4_2 O1_7 1_555 1_555
O1_7 C1_7 1_555 1_555
O6_2 C1_7 1_555 1_555
C2_7 C3_7 1_555 1_555
C3_7 O11_2 1_555 1_555
C5_7 C6_7 1_555 1_555
C6_7 C7_7 1_555 1_555
C8_7 C3_7 1_555 1_555
H2_7 C8_7 1_555 1_555
Co6_3 O4_7 1_555 1_555
O4_7 C5_7 1_555 1_555
O9_3 C5_7 1_555 1_555
O13_5 C7_7 1_555 1_555
C6_7 C8_7 1_555 1_555
H1_8 C4_8 1_555 1_555
Co4_3 O1_8 1_555 1_555
O1_8 C1_8 1_555 1_555
O6_3 C1_8 1_555 1_555
C2_8 C3_8 1_555 1_555
C3_8 O11_3 1_555 1_555
C5_8 C6_8 1_555 1_555
C6_8 C7_8 1_555 1_555
C8_8 C3_8 1_555 1_555
H2_8 C8_8 1_555 1_555
Co6 O4_8 1_555 1_555
O4_8 C5_8 1_555 1_555
O9 C5_8 1_555 1_555
O13_6 C7_8 1_555 1_555
C6_8 C8_8 1_555 1_555
H1_9 C4_9 1_555 1_555
Co4 O1_9 1_555 1_555
O1_9 C1_9 1_555 1_555
O6 C1_9 1_555 1_555
C2_9 C3_9 1_555 1_555
C3_9 O11 1_555 1_555
C5_9 C6_9 1_555 1_555
C6_9 C7_9 1_555 1_555
C8_9 C3_9 1_555 1_555
H2_9 C8_9 1_555 1_555
Co6_2 O4_9 1_555 1_555
O4_9 C5_9 1_555 1_555
O9_2 C5_9 1_555 1_555
O13_4 C7_9 1_555 1_555
C6_9 C8_9 1_555 1_555

#END
