
###############################################################################
#
# This file contains modified crystal structure data generated from the
# MOF subset of the Cambridge Structural Database (CSD) v543 
# hosted by the Cambridge Crystallographic Data Centre (CCDC).
#
# This work is licensed under the Creative Commons
# Attribution-NonCommercial-ShareAlike 4.0 International License.
# To view a copy of this license, visit
# http://creativecommons.org/licenses/by-nc-sa/4.0/
# or send a letter to
# Creative Commons, PO Box 1866, Mountain View, CA 94042, USA.
#
# CIF created using the CSD Python API on 29 September 2022
# The structure has been converted into the P1 space group
# The structure has a 3D framework
# The original CSD entry SATYAQ is in the monoclinic crystal system
# The original CSD entry SATYAQ is in a Sohncke space group
# The framework has been calculated to contain at least 10.0% void space
# The void calculation uses a probe of radius 1.32A, grid spacing 0.4
# H atom positions have been added when not included in the experimental data
#
###############################################################################

data_SATYAQ
_chemical_formula_moiety         '(C168 H236 Cs8 O130)n'
_symmetry_cell_setting           triclinic
_symmetry_space_group_name_H-M   'P 1'
_symmetry_Int_Tables_number      1
_space_group_name_Hall           'P 1'
loop_
_symmetry_equiv_pos_site_id
_symmetry_equiv_pos_as_xyz
1 x,y,z
_cell_length_a                   21.981(5)
_cell_length_b                   25.367(5)
_cell_length_c                   15.790(5)
_cell_angle_alpha                90
_cell_angle_beta                 133.554(5)
_cell_angle_gamma                90
_cell_volume                     6380.76
loop_
_atom_site_label
_atom_site_type_symbol
_atom_site_fract_x
_atom_site_fract_y
_atom_site_fract_z
Cs13 Cs 0.0000 0.11618(6) 0.0000
H115 H 0.21729 0.0167819 0.130638
C25 C 0.1142(6) 0.0268(5) 0.8987(10)
H29 H 0.1583 0.0466 0.9703
C26 C 0.0846(7) 0.0584(5) 0.7925(11)
H30 H 0.0647 0.0928 0.7930
C27 C 0.0095(7) 0.0291(7) 0.6785(9)
O21 O 0.0468(4) 0.0175(3) 0.8910(6)
O23 O 0.1523(5) 0.0666(4) 0.8015(8)
Cs7 Cs 0.14231(8) 0.14194(4) 0.63916(9)
Cs13_2 Cs 0.0000 0.11618(6) 1.0000
C12 C 0.1193(7) 0.6434(7) 0.0246(9)
H13 H 0.1488 0.6766 0.0602
H14 H 0.0711 0.6436 0.0159
C13 C 0.2931(6) 0.6786(4) 0.0579(8)
H15 H 0.3083 0.6416 0.0812
C14 C 0.3494(7) 0.7013(5) 0.0434(10)
H16 H 0.4073 0.7010 0.1198
C15 C 0.3222(6) 0.7583(4) 0.0064(8)
C16 C 0.3370(6) 0.7873(5) 0.1023(10)
H18 H 0.3972 0.7884 0.1728
C17 C 0.2890(6) 0.7614(5) 0.1291(8)
H19 H 0.2286 0.7671 0.0634
C18 C 0.3156(7) 0.7828(5) 0.2406(10)
H20 H 0.3047 0.8204 0.2324
H21 H 0.2828 0.7660 0.2533
C19 C 0.3540(6) 0.8816(4) 0.1361(8)
H22 H 0.4102 0.8689 0.2050
C20 C 0.3604(6) 0.9245(5) 0.0730(9)
H23 H 0.3962 0.9535 0.1271
C22 C 0.2319(6) 0.9650(5) 0.0068(8)
H25 H 0.2615 0.9961 0.0567
C23 C 0.2296(6) 0.9235(5) 0.0716(9)
H26 H 0.1969 0.8934 0.0196
C24 C 0.1932(8) 0.9419(5) 0.1206(11)
H27 H 0.1331 0.9466 0.0565
H28 H 0.2021 0.9147 0.1714
O10 O 0.1752(8) 0.6000(7) 0.1023(9)
O11 O 0.3054(4) 0.7068(3) 0.1488(6)
O15 O 0.4015(6) 0.7736(4) 0.3375(7)
O16 O 0.3150(5) 0.9063(3) 0.1711(6)
O17 O 0.3053(4) 0.8401(3) 0.0594(6)
O18 O 0.3985(5) 0.8990(3) 0.0363(7)
O20 O 0.2275(6) 0.9884(4) 0.1825(8)
Cs5 Cs 0.35769(8) 0.64194(4) 0.36084(9)
Cs11 Cs 0.5000 0.61618(6) 0.0000
C8 C 0.0667(6) 0.5753(5) 0.7345(9)
H9 H 0.0986 0.5438 0.7811
C9 C 0.1262(6) 0.6218(5) 0.7887(9)
H10 H 0.0960 0.6533 0.7404
C10 C 0.1608(6) 0.6313(4) 0.9071(9)
H11 H 0.1968 0.6018 0.9588
C11 C 0.0888(6) 0.6394(6) 0.9038(8)
H12 H 0.0562 0.6708 0.8578
H17 H 0.2628 0.7600 0.9337
C21 C 0.2746(6) 0.9452(4) 0.9682(9)
H24 H 0.2411 0.9167 0.9114
H31 H 0.0295 0.9955 0.6748
H33 H 0.0017 0.9516 0.7936
O6 O 0.0348(5) 0.5932(4) 0.8500(6)
O8 O 0.0291(5) 0.5664(4) 0.6160(7)
O9 O 0.1969(5) 0.6116(4) 0.8013(7)
O12 O 0.2093(4) 0.6810(3) 0.9528(6)
O13 O 0.3452(5) 0.6699(4) 0.9671(7)
O14 O 0.3729(5) 0.7819(4) 0.9906(8)
O19 O 0.2818(5) 0.9874(4) 0.9149(7)
O22 O 0.1477(4) 0.9798(3) 0.8996(6)
Cs11_2 Cs 0.5000 0.61618(6) 1.0000
H108 H 0.365244 0.76243 0.929248
H110 H 0.176329 0.604671 0.723257
H112 H 0.362452 0.869287 0.982918
H116 H 0.309723 0.974232 0.889591
Cs13_3 Cs 1.0000 0.11618(6) 0.0000
C28 C 0.9430(6) 0.0186(4) 0.6773(9)
H32 H 0.9196 0.0521 0.6751
C31 C 0.8007(7) 0.0129(5) 0.4926(10)
H36 H 0.8098 0.0510 0.5043
H37 H 0.7173 0.0202 0.3126
O24 O 0.9781(6) 0.0605(4) 0.5801(9)
O25 O 0.8882(5) 0.0261(4) 0.8069(8)
O28 O 0.8300(9) 0.0127(5) 0.3645(9)
Cs9 Cs 0.85769(8) 0.14194(4) 0.36084(9)
Cs13_4 Cs 1.0000 0.11618(6) 1.0000
C70 C 0.0570(6) 0.0186(4) 0.3227(9)
H81 H 0.0804 0.0521 0.3249
C73 C 0.1993(7) 0.0129(5) 0.5074(10)
H85 H 0.1902 0.0510 0.4957
H86 H 0.2827 0.0202 0.6874
O59 O 0.0219(6) 0.0605(4) 0.4199(9)
O60 O 0.1118(5) 0.0261(4) 0.1931(8)
O63 O 0.1700(9) 0.0127(5) 0.6355(9)
C1 C 0.6904(6) 0.6574(5) 0.4015(8)
H1 H 0.6303 0.6497 0.3481
C2 C 0.7301(6) 0.6234(5) 0.3672(8)
H2 H 0.7175 0.5864 0.3681
C3 C 0.8234(6) 0.6287(4) 0.4551(8)
H3 H 0.8386 0.6644 0.4516
C4 C 0.8584(5) 0.6184(4) 0.5790(8)
H4 H 0.8453 0.5823 0.5842
C5 C 0.8184(6) 0.6574(4) 0.6000(8)
H5 H 0.8276 0.6933 0.5881
C6 C 0.8477(9) 0.6530(6) 0.7197(10)
H6 H 0.8352 0.6180 0.7288
H7 H 0.9080 0.6579 0.7798
C7 C 0.9969(7) 0.5843(5) 0.7341(9)
H8 H 0.9622 0.5525 0.7043
C29 C 0.9803(6) 0.9859(5) 0.7918(10)
C30 C 0.9190(7) 0.9793(5) 0.8031(11)
H34 H 0.8721 0.9586 0.7375
H35 H 0.9456 0.9595 0.8738
C32 C 0.7679(9) 0.9992(5) 0.3714(10)
C33 C 0.7426(9) 0.9405(6) 0.3444(10)
H38 H 0.7933 0.9189 0.3984
C34 C 0.6843(7) 0.9278(5) 0.3603(9)
H39 H 0.6309 0.9463 0.3009
C35 C 0.7237(7) 0.9451(6) 0.4816(10)
H40 H 0.7771 0.9261 0.5381
C36 C 0.6706(9) 0.9304(8) 0.5083(12)
H41 H 0.6657 0.8923 0.5065
H42 H 0.6995 0.9421 0.5867
C37 C 0.5871(6) 0.8543(4) 0.2691(8)
H43 H 0.5479 0.8840 0.2309
C38 C 0.5703(6) 0.8187(5) 0.1783(9)
H44 H 0.5130 0.8049 0.1273
C39 C 0.6309(6) 0.7735(4) 0.2364(8)
H45 H 0.6877 0.7870 0.2811
C40 C 0.6292(6) 0.7440(5) 0.3182(9)
H46 H 0.5778 0.7230 0.2740
C41 C 0.6383(7) 0.7815(6) 0.4019(9)
H47 H 0.6950 0.7964 0.4582
C42 C 0.6176(9) 0.7529(6) 0.4655(12)
H48 H 0.6648 0.7306 0.5254
H49 H 0.6124 0.7793 0.5049
O1 O 0.7297(4) 0.6461(3) 0.5171(6)
O2 O 0.7019(4) 0.7109(3) 0.3888(6)
O3 O 0.6909(5) 0.6352(3) 0.2520(6)
O4 O 0.8546(5) 0.5914(4) 0.4260(7)
O5 O 0.8093(8) 0.6900(6) 0.7344(9)
O7 O 0.9473(4) 0.6258(3) 0.6608(6)
O26 O 0.7430(5) 0.9992(4) 0.4984(7)
O27 O 0.8782(5) 0.9876(3) 0.5787(6)
O29 O 0.7048(9) 0.9301(6) 0.2292(9)
O30 O 0.5936(9) 0.9515(9) 0.4331(15)
O31 O 0.5753(4) 0.8233(3) 0.3348(6)
O32 O 0.6706(4) 0.8731(3) 0.3444(6)
O33 O 0.5781(4) 0.8496(3) 0.1098(5)
O34 O 0.6106(6) 0.7361(3) 0.1516(7)
O35 O 0.5455(8) 0.7222(5) 0.3972(13)
Cs1 Cs 0.64231(8) 0.64194(4) 0.63916(9)
O72 O 0.8248(8) 0.6000(7) 0.8977(9)
O74 O 0.6946(4) 0.7068(3) 0.8512(6)
O76 O 0.6548(5) 0.6699(4) 0.0329(7)
O78 O 0.5985(6) 0.7736(4) 0.6625(7)
O80 O 0.4532(4) 0.5175(3) 0.1090(6)
O81 O 0.6523(5) 0.5666(4) 0.8015(8)
O84 O 0.4781(6) 0.5605(4) 0.5801(9)
O86 O 0.5219(6) 0.5605(4) 0.4199(9)
O88 O 0.6118(5) 0.5261(4) 0.1931(8)
O90 O 0.6700(9) 0.5127(5) 0.6355(9)
H109 H 0.830689 0.59881 0.34622
H111 H 0.995213 0.597643 0.567162
H113 H 0.745335 0.937894 0.221976
H114 H 0.563122 0.93901 0.352809
H117 H 0.635718 0.864366 0.161452
C43 C 0.3096(6) 0.6574(5) 0.5985(8)
H50 H 0.3697 0.6497 0.6519
C44 C 0.2699(6) 0.6234(5) 0.6328(8)
H51 H 0.2825 0.5864 0.6319
C45 C 0.1766(6) 0.6287(4) 0.5449(8)
H52 H 0.1614 0.6644 0.5484
C46 C 0.1416(5) 0.6184(4) 0.4210(8)
H53 H 0.1547 0.5823 0.4158
C47 C 0.1816(6) 0.6574(4) 0.4000(8)
H54 H 0.1724 0.6933 0.4119
C48 C 0.1523(9) 0.6530(6) 0.2803(10)
H55 H 0.1648 0.6180 0.2712
H56 H 0.0920 0.6579 0.2202
C49 C 0.0031(7) 0.5843(5) 0.2659(9)
H57 H 0.0378 0.5525 0.2957
C71 C 0.0197(6) 0.9859(5) 0.2082(10)
C72 C 0.0810(7) 0.9793(5) 0.1969(11)
H83 H 0.1279 0.9586 0.2625
H84 H 0.0544 0.9595 0.1262
C74 C 0.2321(9) 0.9992(5) 0.6286(10)
C75 C 0.2574(9) 0.9405(6) 0.6556(10)
H87 H 0.2067 0.9189 0.6016
C76 C 0.3157(7) 0.9278(5) 0.6397(9)
H88 H 0.3691 0.9463 0.6991
C77 C 0.2763(7) 0.9451(6) 0.5184(10)
H89 H 0.2229 0.9261 0.4619
C78 C 0.3294(9) 0.9304(8) 0.4917(12)
H90 H 0.3343 0.8923 0.4935
H91 H 0.3005 0.9421 0.4133
C79 C 0.4129(6) 0.8543(4) 0.7309(8)
H92 H 0.4521 0.8840 0.7691
C80 C 0.4297(6) 0.8187(5) 0.8217(9)
H93 H 0.4870 0.8049 0.8727
C81 C 0.3691(6) 0.7735(4) 0.7636(8)
H94 H 0.3123 0.7870 0.7189
C82 C 0.3708(6) 0.7440(5) 0.6818(9)
H95 H 0.4222 0.7230 0.7260
C83 C 0.3617(7) 0.7815(6) 0.5981(9)
H96 H 0.3050 0.7964 0.5418
C84 C 0.3824(9) 0.7529(6) 0.5345(12)
H97 H 0.3352 0.7306 0.4746
H98 H 0.3876 0.7793 0.4951
O36 O 0.2703(4) 0.6461(3) 0.4829(6)
O37 O 0.2981(4) 0.7109(3) 0.6112(6)
O38 O 0.3091(5) 0.6352(3) 0.7480(6)
O39 O 0.1454(5) 0.5914(4) 0.5740(7)
O40 O 0.1907(8) 0.6900(6) 0.2656(9)
O42 O 0.0527(4) 0.6258(3) 0.3392(6)
O61 O 0.2570(5) 0.9992(4) 0.5016(7)
O62 O 0.1218(5) 0.9876(3) 0.4213(6)
O64 O 0.2952(9) 0.9301(6) 0.7708(9)
O65 O 0.4064(9) 0.9515(9) 0.5669(15)
O66 O 0.4247(4) 0.8233(3) 0.6652(6)
O67 O 0.3294(4) 0.8731(3) 0.6556(6)
O68 O 0.4219(4) 0.8496(3) 0.8902(5)
O69 O 0.3894(6) 0.7361(3) 0.8484(7)
O70 O 0.4545(8) 0.7222(5) 0.6028(13)
O79 O 0.5468(4) 0.5175(3) 0.8910(6)
O82 O 0.3477(5) 0.5666(4) 0.1985(8)
O87 O 0.3882(5) 0.5261(4) 0.8069(8)
O89 O 0.3300(9) 0.5127(5) 0.3645(9)
H99 H 0.00478664 0.597643 0.432838
H101 H 0.254665 0.937894 0.778024
H104 H 0.436878 0.93901 0.647191
H107 H 0.364282 0.864366 0.838548
H118 H 0.169311 0.59881 0.65378
C67 C 0.8858(6) 0.0268(5) 0.1013(10)
H78 H 0.8417 0.0466 0.0297
C68 C 0.9154(7) 0.0584(5) 0.2075(11)
H79 H 0.9353 0.0928 0.2070
C69 C 0.9905(7) 0.0291(7) 0.3215(9)
O56 O 0.9532(4) 0.0175(3) 0.1090(6)
O58 O 0.8477(5) 0.0666(4) 0.1985(8)
H100 H 0.78271 0.0167819 0.869362
C50 C 0.9333(6) 0.5753(5) 0.2655(9)
H58 H 0.9014 0.5438 0.2189
C51 C 0.8738(6) 0.6218(5) 0.2113(9)
H59 H 0.9040 0.6533 0.2596
C52 C 0.8392(6) 0.6313(4) 0.0929(9)
H60 H 0.8032 0.6018 0.0412
C53 C 0.9112(6) 0.6394(6) 0.0962(8)
H61 H 0.9438 0.6708 0.1422
H66 H 0.7372 0.7600 0.0663
C63 C 0.7254(6) 0.9452(4) 0.0318(9)
H73 H 0.7589 0.9167 0.0886
H80 H 0.9705 0.9955 0.3252
H82 H 0.9983 0.9516 0.2064
O41 O 0.9652(5) 0.5932(4) 0.1500(6)
O43 O 0.9709(5) 0.5664(4) 0.3840(7)
O44 O 0.8031(5) 0.6116(4) 0.1987(7)
O47 O 0.7907(4) 0.6810(3) 0.0472(6)
O49 O 0.6271(5) 0.7819(4) 0.0094(8)
O54 O 0.7182(5) 0.9874(4) 0.0851(7)
O57 O 0.8523(4) 0.9798(3) 0.1004(6)
H102 H 0.634756 0.76243 0.0707518
H103 H 0.690277 0.974232 0.110409
H105 H 0.823671 0.604671 0.276743
H106 H 0.637548 0.869287 0.0170817
C54 C 0.8807(7) 0.6434(7) 0.9754(9)
H62 H 0.8512 0.6766 0.9398
H63 H 0.9289 0.6436 0.9841
C55 C 0.7069(6) 0.6786(4) 0.9421(8)
H64 H 0.6917 0.6416 0.9188
C56 C 0.6506(7) 0.7013(5) 0.9566(10)
H65 H 0.5927 0.7010 0.8802
C57 C 0.6778(6) 0.7583(4) 0.9936(8)
C58 C 0.6630(6) 0.7873(5) 0.8977(10)
H67 H 0.6028 0.7884 0.8272
C59 C 0.7110(6) 0.7614(5) 0.8709(8)
H68 H 0.7714 0.7671 0.9366
C60 C 0.6844(7) 0.7828(5) 0.7594(10)
H69 H 0.6953 0.8204 0.7676
H70 H 0.7172 0.7660 0.7467
C61 C 0.6460(6) 0.8816(4) 0.8639(8)
H71 H 0.5898 0.8689 0.7950
C62 C 0.6396(6) 0.9245(5) 0.9270(9)
H72 H 0.6038 0.9535 0.8729
C64 C 0.7681(6) 0.9650(5) 0.9932(8)
H74 H 0.7385 0.9961 0.9433
C65 C 0.7704(6) 0.9235(5) 0.9284(9)
H75 H 0.8031 0.8934 0.9804
C66 C 0.8068(8) 0.9419(5) 0.8794(11)
H76 H 0.8669 0.9466 0.9435
H77 H 0.7979 0.9147 0.8286
O51 O 0.6850(5) 0.9063(3) 0.8289(6)
O52 O 0.6947(4) 0.8401(3) 0.9406(6)
O53 O 0.6015(5) 0.8990(3) 0.9637(7)
O55 O 0.7725(6) 0.9884(4) 0.8175(8)
C12_2 C 0.6193(7) 0.1434(7) 0.0246(9)
H13_2 H 0.6488 0.1766 0.0602
H14_2 H 0.5711 0.1436 0.0159
C13_2 C 0.7931(6) 0.1786(4) 0.0579(8)
H15_2 H 0.8083 0.1416 0.0812
C14_2 C 0.8494(7) 0.2013(5) 0.0434(10)
H16_2 H 0.9073 0.2010 0.1198
C15_2 C 0.8222(6) 0.2583(4) 0.0064(8)
C16_2 C 0.8370(6) 0.2873(5) 0.1023(10)
H18_2 H 0.8972 0.2884 0.1728
C17_2 C 0.7890(6) 0.2614(5) 0.1291(8)
H19_2 H 0.7286 0.2671 0.0634
C18_2 C 0.8156(7) 0.2828(5) 0.2406(10)
H20_2 H 0.8047 0.3204 0.2324
H21_2 H 0.7828 0.2660 0.2533
C19_2 C 0.8540(6) 0.3816(4) 0.1361(8)
H22_2 H 0.9102 0.3689 0.2050
C20_2 C 0.8604(6) 0.4245(5) 0.0730(9)
H23_2 H 0.8962 0.4535 0.1271
C22_2 C 0.7319(6) 0.4650(5) 0.0068(8)
H25_2 H 0.7615 0.4961 0.0567
C23_2 C 0.7296(6) 0.4235(5) 0.0716(9)
H26_2 H 0.6969 0.3934 0.0196
C24_2 C 0.6932(8) 0.4419(5) 0.1206(11)
H27_2 H 0.6331 0.4466 0.0565
H28_2 H 0.7021 0.4147 0.1714
O10_2 O 0.6752(8) 0.1000(7) 0.1023(9)
O11_2 O 0.8054(4) 0.2068(3) 0.1488(6)
O15_2 O 0.9015(6) 0.2736(4) 0.3375(7)
O16_2 O 0.8150(5) 0.4063(3) 0.1711(6)
O17_2 O 0.8053(4) 0.3401(3) 0.0594(6)
O18_2 O 0.8985(5) 0.3990(3) 0.0363(7)
O20_2 O 0.7275(6) 0.4884(4) 0.1825(8)
H115_2 H 0.71729 0.516782 0.130638
C1_2 C 0.1904(6) 0.1574(5) 0.4015(8)
H1_2 H 0.1303 0.1497 0.3481
C2_2 C 0.2301(6) 0.1234(5) 0.3672(8)
H2_2 H 0.2175 0.0864 0.3681
C3_2 C 0.3234(6) 0.1287(4) 0.4551(8)
H3_2 H 0.3386 0.1644 0.4516
C4_2 C 0.3584(5) 0.1184(4) 0.5790(8)
H4_2 H 0.3453 0.0823 0.5842
C5_2 C 0.3184(6) 0.1574(4) 0.6000(8)
H5_2 H 0.3276 0.1933 0.5881
C6_2 C 0.3477(9) 0.1530(6) 0.7197(10)
H6_2 H 0.3352 0.1180 0.7288
H7_2 H 0.4080 0.1579 0.7798
C7_2 C 0.4969(7) 0.0843(5) 0.7341(9)
H8_2 H 0.4622 0.0525 0.7043
C8_2 C 0.5667(6) 0.0753(5) 0.7345(9)
H9_2 H 0.5986 0.0438 0.7811
C9_2 C 0.6262(6) 0.1218(5) 0.7887(9)
H10_2 H 0.5960 0.1533 0.7404
C10_2 C 0.6608(6) 0.1313(4) 0.9071(9)
H11_2 H 0.6968 0.1018 0.9588
C11_2 C 0.5888(6) 0.1394(6) 0.9038(8)
H12_2 H 0.5562 0.1708 0.8578
H17_2 H 0.7628 0.2600 0.9337
C21_2 C 0.7746(6) 0.4452(4) 0.9682(9)
H24_2 H 0.7411 0.4167 0.9114
C25_2 C 0.6142(6) 0.5268(5) 0.8987(10)
H29_2 H 0.6583 0.5466 0.9703
C26_2 C 0.5846(7) 0.5584(5) 0.7925(11)
H30_2 H 0.5647 0.5928 0.7930
C27_2 C 0.5095(7) 0.5291(7) 0.6785(9)
H31_2 H 0.5295 0.4955 0.6748
C28_2 C 0.4430(6) 0.5186(4) 0.6773(9)
H32_2 H 0.4196 0.5521 0.6751
C29_2 C 0.4803(6) 0.4859(5) 0.7918(10)
H33_2 H 0.5017 0.4516 0.7936
C30_2 C 0.4190(7) 0.4793(5) 0.8031(11)
H34_2 H 0.3721 0.4586 0.7375
H35_2 H 0.4456 0.4595 0.8738
C31_2 C 0.3007(7) 0.5129(5) 0.4926(10)
H36_2 H 0.3098 0.5510 0.5043
C32_2 C 0.2679(9) 0.4992(5) 0.3714(10)
H37_2 H 0.2173 0.5202 0.3126
C33_2 C 0.2426(9) 0.4405(6) 0.3444(10)
H38_2 H 0.2933 0.4189 0.3984
C34_2 C 0.1843(7) 0.4278(5) 0.3603(9)
H39_2 H 0.1309 0.4463 0.3009
C35_2 C 0.2237(7) 0.4451(6) 0.4816(10)
H40_2 H 0.2771 0.4261 0.5381
C36_2 C 0.1706(9) 0.4304(8) 0.5083(12)
H41_2 H 0.1657 0.3923 0.5065
H42_2 H 0.1995 0.4421 0.5867
C37_2 C 0.0871(6) 0.3543(4) 0.2691(8)
H43_2 H 0.0479 0.3840 0.2309
C38_2 C 0.0703(6) 0.3187(5) 0.1783(9)
H44_2 H 0.0130 0.3049 0.1273
C39_2 C 0.1309(6) 0.2735(4) 0.2364(8)
H45_2 H 0.1877 0.2870 0.2811
C40_2 C 0.1292(6) 0.2440(5) 0.3182(9)
H46_2 H 0.0778 0.2230 0.2740
C41_2 C 0.1383(7) 0.2815(6) 0.4019(9)
H47_2 H 0.1950 0.2964 0.4582
C42_2 C 0.1176(9) 0.2529(6) 0.4655(12)
H48_2 H 0.1648 0.2306 0.5254
H49_2 H 0.1124 0.2793 0.5049
O1_2 O 0.2297(4) 0.1461(3) 0.5171(6)
O2_2 O 0.2019(4) 0.2109(3) 0.3888(6)
O3_2 O 0.1909(5) 0.1352(3) 0.2520(6)
O4_2 O 0.3546(5) 0.0914(4) 0.4260(7)
O5_2 O 0.3093(8) 0.1900(6) 0.7344(9)
O6_2 O 0.5348(5) 0.0932(4) 0.8500(6)
O7_2 O 0.4473(4) 0.1258(3) 0.6608(6)
O8_2 O 0.5291(5) 0.0664(4) 0.6160(7)
O9_2 O 0.6969(5) 0.1116(4) 0.8013(7)
O12_2 O 0.7093(4) 0.1810(3) 0.9528(6)
O13_2 O 0.8452(5) 0.1699(4) 0.9671(7)
O14_2 O 0.8729(5) 0.2819(4) 0.9906(8)
O19_2 O 0.7818(5) 0.4874(4) 0.9149(7)
O22_2 O 0.6477(4) 0.4798(3) 0.8996(6)
O26_2 O 0.2430(5) 0.4992(4) 0.4984(7)
O27_2 O 0.3782(5) 0.4876(3) 0.5787(6)
O29_2 O 0.2048(9) 0.4301(6) 0.2292(9)
O30_2 O 0.0936(9) 0.4515(9) 0.4331(15)
O31_2 O 0.0753(4) 0.3233(3) 0.3348(6)
O32_2 O 0.1706(4) 0.3731(3) 0.3444(6)
O33_2 O 0.0781(4) 0.3496(3) 0.1098(5)
O34_2 O 0.1106(6) 0.2361(3) 0.1516(7)
O35_2 O 0.0455(8) 0.2222(5) 0.3972(13)
O72_2 O 0.3248(8) 0.1000(7) 0.8977(9)
O74_2 O 0.1946(4) 0.2068(3) 0.8512(6)
O76_2 O 0.1548(5) 0.1699(4) 0.0329(7)
O78_2 O 0.0985(6) 0.2736(4) 0.6625(7)
H108_2 H 0.865244 0.26243 0.929248
H109_2 H 0.330689 0.0988099 0.34622
H110_2 H 0.676329 0.104671 0.723257
H111_2 H 0.495213 0.097643 0.567162
H112_2 H 0.862452 0.369287 0.982918
H113_2 H 0.245335 0.437894 0.221976
H114_2 H 0.0631221 0.43901 0.352809
H116_2 H 0.809723 0.474232 0.889591
H117_2 H 0.135718 0.364366 0.161452
C43_2 C 0.8096(6) 0.1574(5) 0.5985(8)
H50_2 H 0.8697 0.1497 0.6519
C44_2 C 0.7699(6) 0.1234(5) 0.6328(8)
H51_2 H 0.7825 0.0864 0.6319
C45_2 C 0.6766(6) 0.1287(4) 0.5449(8)
H52_2 H 0.6614 0.1644 0.5484
C46_2 C 0.6416(5) 0.1184(4) 0.4210(8)
H53_2 H 0.6547 0.0823 0.4158
C47_2 C 0.6816(6) 0.1574(4) 0.4000(8)
H54_2 H 0.6724 0.1933 0.4119
C48_2 C 0.6523(9) 0.1530(6) 0.2803(10)
H55_2 H 0.6648 0.1180 0.2712
H56_2 H 0.5920 0.1579 0.2202
C49_2 C 0.5031(7) 0.0843(5) 0.2659(9)
H57_2 H 0.5378 0.0525 0.2957
C50_2 C 0.4333(6) 0.0753(5) 0.2655(9)
H58_2 H 0.4014 0.0438 0.2189
C51_2 C 0.3738(6) 0.1218(5) 0.2113(9)
H59_2 H 0.4040 0.1533 0.2596
C52_2 C 0.3392(6) 0.1313(4) 0.0929(9)
H60_2 H 0.3032 0.1018 0.0412
C53_2 C 0.4112(6) 0.1394(6) 0.0962(8)
H61_2 H 0.4438 0.1708 0.1422
H66_2 H 0.2372 0.2600 0.0663
C63_2 C 0.2254(6) 0.4452(4) 0.0318(9)
H73_2 H 0.2589 0.4167 0.0886
C67_2 C 0.3858(6) 0.5268(5) 0.1013(10)
H78_2 H 0.3417 0.5466 0.0297
C68_2 C 0.4154(7) 0.5584(5) 0.2075(11)
H79_2 H 0.4353 0.5928 0.2070
C69_2 C 0.4905(7) 0.5291(7) 0.3215(9)
H80_2 H 0.4705 0.4955 0.3252
C70_2 C 0.5570(6) 0.5186(4) 0.3227(9)
H81_2 H 0.5804 0.5521 0.3249
C71_2 C 0.5197(6) 0.4859(5) 0.2082(10)
H82_2 H 0.4983 0.4516 0.2064
C72_2 C 0.5810(7) 0.4793(5) 0.1969(11)
H83_2 H 0.6279 0.4586 0.2625
H84_2 H 0.5544 0.4595 0.1262
C73_2 C 0.6993(7) 0.5129(5) 0.5074(10)
H85_2 H 0.6902 0.5510 0.4957
C74_2 C 0.7321(9) 0.4992(5) 0.6286(10)
H86_2 H 0.7827 0.5202 0.6874
C75_2 C 0.7574(9) 0.4405(6) 0.6556(10)
H87_2 H 0.7067 0.4189 0.6016
C76_2 C 0.8157(7) 0.4278(5) 0.6397(9)
H88_2 H 0.8691 0.4463 0.6991
C77_2 C 0.7763(7) 0.4451(6) 0.5184(10)
H89_2 H 0.7229 0.4261 0.4619
C78_2 C 0.8294(9) 0.4304(8) 0.4917(12)
H90_2 H 0.8343 0.3923 0.4935
H91_2 H 0.8005 0.4421 0.4133
C79_2 C 0.9129(6) 0.3543(4) 0.7309(8)
H92_2 H 0.9521 0.3840 0.7691
C80_2 C 0.9297(6) 0.3187(5) 0.8217(9)
H93_2 H 0.9870 0.3049 0.8727
C81_2 C 0.8691(6) 0.2735(4) 0.7636(8)
H94_2 H 0.8123 0.2870 0.7189
C82_2 C 0.8708(6) 0.2440(5) 0.6818(9)
H95_2 H 0.9222 0.2230 0.7260
C83_2 C 0.8617(7) 0.2815(6) 0.5981(9)
H96_2 H 0.8050 0.2964 0.5418
C84_2 C 0.8824(9) 0.2529(6) 0.5345(12)
H97_2 H 0.8352 0.2306 0.4746
H98_2 H 0.8876 0.2793 0.4951
O36_2 O 0.7703(4) 0.1461(3) 0.4829(6)
O37_2 O 0.7981(4) 0.2109(3) 0.6112(6)
O38_2 O 0.8091(5) 0.1352(3) 0.7480(6)
O39_2 O 0.6454(5) 0.0914(4) 0.5740(7)
O40_2 O 0.6907(8) 0.1900(6) 0.2656(9)
O41_2 O 0.4652(5) 0.0932(4) 0.1500(6)
O42_2 O 0.5527(4) 0.1258(3) 0.3392(6)
O43_2 O 0.4709(5) 0.0664(4) 0.3840(7)
O44_2 O 0.3031(5) 0.1116(4) 0.1987(7)
O47_2 O 0.2907(4) 0.1810(3) 0.0472(6)
O49_2 O 0.1271(5) 0.2819(4) 0.0094(8)
O54_2 O 0.2182(5) 0.4874(4) 0.0851(7)
O57_2 O 0.3523(4) 0.4798(3) 0.1004(6)
O61_2 O 0.7570(5) 0.4992(4) 0.5016(7)
O62_2 O 0.6218(5) 0.4876(3) 0.4213(6)
O64_2 O 0.7952(9) 0.4301(6) 0.7708(9)
O65_2 O 0.9064(9) 0.4515(9) 0.5669(15)
O66_2 O 0.9247(4) 0.3233(3) 0.6652(6)
O67_2 O 0.8294(4) 0.3731(3) 0.6556(6)
O68_2 O 0.9219(4) 0.3496(3) 0.8902(5)
O69_2 O 0.8894(6) 0.2361(3) 0.8484(7)
O70_2 O 0.9545(8) 0.2222(5) 0.6028(13)
H99_2 H 0.504787 0.097643 0.432838
H101_2 H 0.754665 0.437894 0.778024
H102_2 H 0.134756 0.26243 0.0707518
H103_2 H 0.190277 0.474232 0.110409
H104_2 H 0.936878 0.43901 0.647191
H105_2 H 0.323671 0.104671 0.276743
H106_2 H 0.137548 0.369287 0.0170817
H107_2 H 0.864282 0.364366 0.838548
H118_2 H 0.669311 0.0988099 0.65378
C54_2 C 0.3807(7) 0.1434(7) 0.9754(9)
H62_2 H 0.3512 0.1766 0.9398
H63_2 H 0.4289 0.1436 0.9841
C55_2 C 0.2069(6) 0.1786(4) 0.9421(8)
H64_2 H 0.1917 0.1416 0.9188
C56_2 C 0.1506(7) 0.2013(5) 0.9566(10)
H65_2 H 0.0927 0.2010 0.8802
C57_2 C 0.1778(6) 0.2583(4) 0.9936(8)
C58_2 C 0.1630(6) 0.2873(5) 0.8977(10)
H67_2 H 0.1028 0.2884 0.8272
C59_2 C 0.2110(6) 0.2614(5) 0.8709(8)
H68_2 H 0.2714 0.2671 0.9366
C60_2 C 0.1844(7) 0.2828(5) 0.7594(10)
H69_2 H 0.1953 0.3204 0.7676
H70_2 H 0.2172 0.2660 0.7467
C61_2 C 0.1460(6) 0.3816(4) 0.8639(8)
H71_2 H 0.0898 0.3689 0.7950
C62_2 C 0.1396(6) 0.4245(5) 0.9270(9)
H72_2 H 0.1038 0.4535 0.8729
C64_2 C 0.2681(6) 0.4650(5) 0.9932(8)
H74_2 H 0.2385 0.4961 0.9433
C65_2 C 0.2704(6) 0.4235(5) 0.9284(9)
H75_2 H 0.3031 0.3934 0.9804
C66_2 C 0.3068(8) 0.4419(5) 0.8794(11)
H76_2 H 0.3669 0.4466 0.9435
H77_2 H 0.2979 0.4147 0.8286
O51_2 O 0.1850(5) 0.4063(3) 0.8289(6)
O52_2 O 0.1947(4) 0.3401(3) 0.9406(6)
O53_2 O 0.1015(5) 0.3990(3) 0.9637(7)
O55_2 O 0.2725(6) 0.4884(4) 0.8175(8)
H100_2 H 0.28271 0.516782 0.869362
loop_
_geom_bond_atom_site_label_1
_geom_bond_atom_site_label_2
_geom_bond_site_symmetry_1
_geom_bond_site_symmetry_2
C25 H29 1_555 1_555
C26 C25 1_555 1_555
H30 C26 1_555 1_555
C27 C26 1_555 1_555
O21 C25 1_555 1_555
O23 C26 1_555 1_555
Cs7 O23 1_555 1_555
Cs13_2 O21 1_555 1_555
H13 C12 1_555 1_555
H14 C12 1_555 1_555
C13 H15 1_555 1_555
C14 C13 1_555 1_555
H16 C14 1_555 1_555
C15 C14 1_555 1_555
C16 C15 1_555 1_555
H18 C16 1_555 1_555
C17 C16 1_555 1_555
H19 C17 1_555 1_555
C18 C17 1_555 1_555
H20 C18 1_555 1_555
H21 C18 1_555 1_555
C19 H22 1_555 1_555
C20 C19 1_555 1_555
H23 C20 1_555 1_555
H25 C22 1_555 1_555
C23 C22 1_555 1_555
H26 C23 1_555 1_555
C24 C23 1_555 1_555
H27 C24 1_555 1_555
H28 C24 1_555 1_555
O10 C12 1_555 1_555
O11 C13 1_555 1_555
O15 C18 1_555 1_555
O16 C19 1_555 1_555
O17 C16 1_555 1_555
O18 C20 1_555 1_555
O20 C24 1_555 1_555
Cs5 O10 1_555 1_555
C17 O11 1_555 1_555
C19 O17 1_555 1_555
C23 O16 1_555 1_555
O11 Cs5 1_555 1_555
O15 Cs5 1_555 1_555
H9 C8 1_555 1_555
C9 C8 1_555 1_555
H10 C9 1_555 1_555
C10 C9 1_555 1_555
H11 C10 1_555 1_555
C11 C10 1_555 1_555
H12 C11 1_555 1_555
H24 C21 1_555 1_555
O8 C8 1_555 1_555
O9 C9 1_555 1_555
O12 C10 1_555 1_555
O19 C21 1_555 1_555
Cs11_2 O13 1_555 1_555
C11 O6 1_555 1_555
O14 H108 1_555 1_555
O9 H110 1_555 1_555
O19 H116 1_555 1_555
H32 C28 1_555 1_555
C31 H36 1_555 1_555
Cs9 O24 1_555 1_555
O25 Cs13_4 1_555 1_555
O28 Cs9 1_555 1_555
H81 C70 1_555 1_555
C73 H85 1_555 1_555
Cs7 O59 1_555 1_555
O60 Cs13 1_555 1_555
O63 Cs7 1_555 1_555
C1 H1 1_555 1_555
C2 C1 1_555 1_555
H2 C2 1_555 1_555
C3 C2 1_555 1_555
H3 C3 1_555 1_555
C4 C3 1_555 1_555
H4 C4 1_555 1_555
C5 C4 1_555 1_555
H5 C5 1_555 1_555
C6 C5 1_555 1_555
H6 C6 1_555 1_555
H7 C6 1_555 1_555
C7 H8 1_555 1_555
C30 C29 1_555 1_555
H34 C30 1_555 1_555
H35 C30 1_555 1_555
C33 C32 1_555 1_555
H38 C33 1_555 1_555
C34 C33 1_555 1_555
H39 C34 1_555 1_555
C35 C34 1_555 1_555
H40 C35 1_555 1_555
C36 C35 1_555 1_555
H41 C36 1_555 1_555
H42 C36 1_555 1_555
C37 H43 1_555 1_555
C38 C37 1_555 1_555
H44 C38 1_555 1_555
C39 C38 1_555 1_555
H45 C39 1_555 1_555
C40 C39 1_555 1_555
H46 C40 1_555 1_555
C41 C40 1_555 1_555
H47 C41 1_555 1_555
C42 C41 1_555 1_555
H48 C42 1_555 1_555
H49 C42 1_555 1_555
O1 C1 1_555 1_555
O2 C1 1_555 1_555
O3 C2 1_555 1_555
O4 C3 1_555 1_555
O5 C6 1_555 1_555
O7 C4 1_555 1_555
O29 C33 1_555 1_555
O30 C36 1_555 1_555
O31 C37 1_555 1_555
O32 C34 1_555 1_555
O33 C38 1_555 1_555
O34 C39 1_555 1_555
O35 C42 1_555 1_555
Cs1 O1 1_555 1_555
Cs11 O3 1_555 1_555
O72 Cs1 1_555 1_555
O74 Cs1 1_555 1_555
O76 Cs11 1_555 1_555
O78 Cs1 1_555 1_555
O80 Cs11 1_555 1_555
O81 Cs1 1_555 1_555
O84 Cs1 1_555 1_555
O86 Cs1 1_555 1_555
O88 Cs11 1_555 1_555
O90 Cs1 1_555 1_555
C5 O1 1_555 1_555
C7 O7 1_555 1_555
C35 O26 1_555 1_555
C37 O32 1_555 1_555
C40 O2 1_555 1_555
C41 O31 1_555 1_555
O5 Cs1 1_555 1_555
O34 Cs11 1_555 1_555
O35 Cs1 1_555 1_555
O4 H109 1_555 1_555
O29 H113 1_555 1_555
O30 H114 1_555 1_555
O33 H117 1_555 1_555
C43 H50 1_555 1_555
C44 C43 1_555 1_555
H51 C44 1_555 1_555
C45 C44 1_555 1_555
H52 C45 1_555 1_555
C46 C45 1_555 1_555
H53 C46 1_555 1_555
C47 C46 1_555 1_555
H54 C47 1_555 1_555
C48 C47 1_555 1_555
H55 C48 1_555 1_555
H56 C48 1_555 1_555
C49 H57 1_555 1_555
C72 C71 1_555 1_555
H83 C72 1_555 1_555
H84 C72 1_555 1_555
C75 C74 1_555 1_555
H87 C75 1_555 1_555
C76 C75 1_555 1_555
H88 C76 1_555 1_555
C77 C76 1_555 1_555
H89 C77 1_555 1_555
C78 C77 1_555 1_555
H90 C78 1_555 1_555
H91 C78 1_555 1_555
C79 H92 1_555 1_555
C80 C79 1_555 1_555
H93 C80 1_555 1_555
C81 C80 1_555 1_555
H94 C81 1_555 1_555
C82 C81 1_555 1_555
H95 C82 1_555 1_555
C83 C82 1_555 1_555
H96 C83 1_555 1_555
C84 C83 1_555 1_555
H97 C84 1_555 1_555
H98 C84 1_555 1_555
O36 C43 1_555 1_555
O37 C43 1_555 1_555
O38 Cs11_2 1_555 1_555
O39 C45 1_555 1_555
O40 C48 1_555 1_555
O42 C46 1_555 1_555
O64 C75 1_555 1_555
O65 C78 1_555 1_555
O66 C79 1_555 1_555
O67 C76 1_555 1_555
O68 C80 1_555 1_555
O69 Cs11_2 1_555 1_555
O70 C84 1_555 1_555
Cs5 O36 1_555 1_555
O79 Cs11_2 1_555 1_555
O82 Cs5 1_555 1_555
O84 Cs5 1_555 1_555
O86 Cs5 1_555 1_555
O87 Cs11_2 1_555 1_555
O89 Cs5 1_555 1_555
C44 O38 1_555 1_555
C47 O36 1_555 1_555
C49 O42 1_555 1_555
C77 O61 1_555 1_555
C79 O67 1_555 1_555
C81 O69 1_555 1_555
C82 O37 1_555 1_555
C83 O66 1_555 1_555
O40 Cs5 1_555 1_555
O70 Cs5 1_555 1_555
O64 H101 1_555 1_555
O65 H104 1_555 1_555
O68 H107 1_555 1_555
O39 H118 1_555 1_555
C67 H78 1_555 1_555
C68 C67 1_555 1_555
H79 C68 1_555 1_555
C69 C68 1_555 1_555
O56 C67 1_555 1_555
O58 C68 1_555 1_555
Cs9 O58 1_555 1_555
Cs13_3 O56 1_555 1_555
H58 C50 1_555 1_555
C51 C50 1_555 1_555
H59 C51 1_555 1_555
C52 C51 1_555 1_555
H60 C52 1_555 1_555
C53 C52 1_555 1_555
H61 C53 1_555 1_555
H73 C63 1_555 1_555
O43 C50 1_555 1_555
O44 C51 1_555 1_555
O47 C52 1_555 1_555
O54 C63 1_555 1_555
C53 O41 1_555 1_555
O49 H102 1_555 1_555
O54 H103 1_555 1_555
O44 H105 1_555 1_555
H62 C54 1_555 1_555
H63 C54 1_555 1_555
C55 H64 1_555 1_555
C56 C55 1_555 1_555
H65 C56 1_555 1_555
C57 C56 1_555 1_555
C58 C57 1_555 1_555
H67 C58 1_555 1_555
C59 C58 1_555 1_555
H68 C59 1_555 1_555
C60 C59 1_555 1_555
H69 C60 1_555 1_555
H70 C60 1_555 1_555
C61 H71 1_555 1_555
C62 C61 1_555 1_555
H72 C62 1_555 1_555
H74 C64 1_555 1_555
C65 C64 1_555 1_555
H75 C65 1_555 1_555
C66 C65 1_555 1_555
H76 C66 1_555 1_555
H77 C66 1_555 1_555
O72 C54 1_555 1_555
O74 C55 1_555 1_555
O78 C60 1_555 1_555
O51 C61 1_555 1_555
O52 C58 1_555 1_555
O53 C62 1_555 1_555
O55 C66 1_555 1_555
C59 O74 1_555 1_555
C61 O52 1_555 1_555
C65 O51 1_555 1_555
H13_2 C12_2 1_555 1_555
H14_2 C12_2 1_555 1_555
C13_2 H15_2 1_555 1_555
C14_2 C13_2 1_555 1_555
H16_2 C14_2 1_555 1_555
C15_2 C14_2 1_555 1_555
C16_2 C15_2 1_555 1_555
H18_2 C16_2 1_555 1_555
C17_2 C16_2 1_555 1_555
H19_2 C17_2 1_555 1_555
C18_2 C17_2 1_555 1_555
H20_2 C18_2 1_555 1_555
H21_2 C18_2 1_555 1_555
C19_2 H22_2 1_555 1_555
C20_2 C19_2 1_555 1_555
H23_2 C20_2 1_555 1_555
H25_2 C22_2 1_555 1_555
C23_2 C22_2 1_555 1_555
H26_2 C23_2 1_555 1_555
C24_2 C23_2 1_555 1_555
H27_2 C24_2 1_555 1_555
H28_2 C24_2 1_555 1_555
O10_2 C12_2 1_555 1_555
O11_2 C13_2 1_555 1_555
O15_2 C18_2 1_555 1_555
O16_2 C19_2 1_555 1_555
O17_2 C16_2 1_555 1_555
O18_2 C20_2 1_555 1_555
O20_2 C24_2 1_555 1_555
Cs9 O10_2 1_555 1_555
C17_2 O11_2 1_555 1_555
C19_2 O17_2 1_555 1_555
C23_2 O16_2 1_555 1_555
O11_2 Cs9 1_555 1_555
O15_2 Cs9 1_555 1_555
O20_2 H115_2 1_555 1_555
C1_2 H1_2 1_555 1_555
C2_2 C1_2 1_555 1_555
H2_2 C2_2 1_555 1_555
C3_2 C2_2 1_555 1_555
H3_2 C3_2 1_555 1_555
C4_2 C3_2 1_555 1_555
H4_2 C4_2 1_555 1_555
C5_2 C4_2 1_555 1_555
H5_2 C5_2 1_555 1_555
C6_2 C5_2 1_555 1_555
H6_2 C6_2 1_555 1_555
H7_2 C6_2 1_555 1_555
C7_2 H8_2 1_555 1_555
C8_2 C7_2 1_555 1_555
H9_2 C8_2 1_555 1_555
C9_2 C8_2 1_555 1_555
H10_2 C9_2 1_555 1_555
C10_2 C9_2 1_555 1_555
H11_2 C10_2 1_555 1_555
C11_2 C10_2 1_555 1_555
H12_2 C11_2 1_555 1_555
H24_2 C21_2 1_555 1_555
C25_2 H29_2 1_555 1_555
C26_2 C25_2 1_555 1_555
H30_2 C26_2 1_555 1_555
C27_2 C26_2 1_555 1_555
H31_2 C27_2 1_555 1_555
C28_2 C27_2 1_555 1_555
H32_2 C28_2 1_555 1_555
C29_2 C28_2 1_555 1_555
H33_2 C29_2 1_555 1_555
C30_2 C29_2 1_555 1_555
H34_2 C30_2 1_555 1_555
H35_2 C30_2 1_555 1_555
C31_2 H36_2 1_555 1_555
C32_2 C31_2 1_555 1_555
H37_2 C32_2 1_555 1_555
C33_2 C32_2 1_555 1_555
H38_2 C33_2 1_555 1_555
C34_2 C33_2 1_555 1_555
H39_2 C34_2 1_555 1_555
C35_2 C34_2 1_555 1_555
H40_2 C35_2 1_555 1_555
C36_2 C35_2 1_555 1_555
H41_2 C36_2 1_555 1_555
H42_2 C36_2 1_555 1_555
C37_2 H43_2 1_555 1_555
C38_2 C37_2 1_555 1_555
H44_2 C38_2 1_555 1_555
C39_2 C38_2 1_555 1_555
H45_2 C39_2 1_555 1_555
C40_2 C39_2 1_555 1_555
H46_2 C40_2 1_555 1_555
C41_2 C40_2 1_555 1_555
H47_2 C41_2 1_555 1_555
C42_2 C41_2 1_555 1_555
H48_2 C42_2 1_555 1_555
H49_2 C42_2 1_555 1_555
O1_2 C1_2 1_555 1_555
O2_2 C1_2 1_555 1_555
O3_2 C2_2 1_555 1_555
O4_2 C3_2 1_555 1_555
O5_2 C6_2 1_555 1_555
O6_2 C7_2 1_555 1_555
O7_2 C4_2 1_555 1_555
O8_2 C8_2 1_555 1_555
O9_2 C9_2 1_555 1_555
O12_2 C10_2 1_555 1_555
O19_2 C21_2 1_555 1_555
O79 C25_2 1_555 1_555
O81 C26_2 1_555 1_555
O84 C27_2 1_555 1_555
O87 C30_2 1_555 1_555
O26_2 C31_2 1_555 1_555
O27_2 C28_2 1_555 1_555
O89 C32_2 1_555 1_555
O29_2 C33_2 1_555 1_555
O30_2 C36_2 1_555 1_555
O31_2 C37_2 1_555 1_555
O32_2 C34_2 1_555 1_555
O33_2 C38_2 1_555 1_555
O34_2 C39_2 1_555 1_555
O35_2 C42_2 1_555 1_555
Cs7 O1_2 1_555 1_555
Cs13 O3_2 1_555 1_555
O72_2 Cs7 1_555 1_555
O74_2 Cs7 1_555 1_555
O76_2 Cs13 1_555 1_555
O78_2 Cs7 1_555 1_555
Cs13_4 O13_2 1_555 1_555
C5_2 O1_2 1_555 1_555
C7_2 O7_2 1_555 1_555
C11_2 O6_2 1_555 1_555
C25_2 O22_2 1_555 1_555
C29_2 O79 1_555 1_555
C31_2 O27_2 1_555 1_555
C35_2 O26_2 1_555 1_555
C37_2 O32_2 1_555 1_555
C40_2 O2_2 1_555 1_555
C41_2 O31_2 1_555 1_555
O5_2 Cs7 1_555 1_555
O34_2 Cs13 1_555 1_555
O35_2 Cs7 1_555 1_555
O14_2 H108_2 1_555 1_555
O4_2 H109_2 1_555 1_555
O9_2 H110_2 1_555 1_555
O8_2 H111_2 1_555 1_555
O29_2 H113_2 1_555 1_555
O30_2 H114_2 1_555 1_555
O19_2 H116_2 1_555 1_555
O33_2 H117_2 1_555 1_555
C43_2 H50_2 1_555 1_555
C44_2 C43_2 1_555 1_555
H51_2 C44_2 1_555 1_555
C45_2 C44_2 1_555 1_555
H52_2 C45_2 1_555 1_555
C46_2 C45_2 1_555 1_555
H53_2 C46_2 1_555 1_555
C47_2 C46_2 1_555 1_555
H54_2 C47_2 1_555 1_555
C48_2 C47_2 1_555 1_555
H55_2 C48_2 1_555 1_555
H56_2 C48_2 1_555 1_555
C49_2 H57_2 1_555 1_555
C50_2 C49_2 1_555 1_555
H58_2 C50_2 1_555 1_555
C51_2 C50_2 1_555 1_555
H59_2 C51_2 1_555 1_555
C52_2 C51_2 1_555 1_555
H60_2 C52_2 1_555 1_555
C53_2 C52_2 1_555 1_555
H61_2 C53_2 1_555 1_555
H73_2 C63_2 1_555 1_555
C67_2 H78_2 1_555 1_555
C68_2 C67_2 1_555 1_555
H79_2 C68_2 1_555 1_555
C69_2 C68_2 1_555 1_555
H80_2 C69_2 1_555 1_555
C70_2 C69_2 1_555 1_555
H81_2 C70_2 1_555 1_555
C71_2 C70_2 1_555 1_555
H82_2 C71_2 1_555 1_555
C72_2 C71_2 1_555 1_555
H83_2 C72_2 1_555 1_555
H84_2 C72_2 1_555 1_555
C73_2 H85_2 1_555 1_555
C74_2 C73_2 1_555 1_555
H86_2 C74_2 1_555 1_555
C75_2 C74_2 1_555 1_555
H87_2 C75_2 1_555 1_555
C76_2 C75_2 1_555 1_555
H88_2 C76_2 1_555 1_555
C77_2 C76_2 1_555 1_555
H89_2 C77_2 1_555 1_555
C78_2 C77_2 1_555 1_555
H90_2 C78_2 1_555 1_555
H91_2 C78_2 1_555 1_555
C79_2 H92_2 1_555 1_555
C80_2 C79_2 1_555 1_555
H93_2 C80_2 1_555 1_555
C81_2 C80_2 1_555 1_555
H94_2 C81_2 1_555 1_555
C82_2 C81_2 1_555 1_555
H95_2 C82_2 1_555 1_555
C83_2 C82_2 1_555 1_555
H96_2 C83_2 1_555 1_555
C84_2 C83_2 1_555 1_555
H97_2 C84_2 1_555 1_555
H98_2 C84_2 1_555 1_555
O36_2 C43_2 1_555 1_555
O37_2 C43_2 1_555 1_555
O38_2 Cs13_4 1_555 1_555
O39_2 C45_2 1_555 1_555
O40_2 C48_2 1_555 1_555
O41_2 C49_2 1_555 1_555
O42_2 C46_2 1_555 1_555
O43_2 C50_2 1_555 1_555
O44_2 C51_2 1_555 1_555
O47_2 C52_2 1_555 1_555
O54_2 C63_2 1_555 1_555
O80 C67_2 1_555 1_555
O82 C68_2 1_555 1_555
O86 C69_2 1_555 1_555
O88 C72_2 1_555 1_555
O61_2 C73_2 1_555 1_555
O62_2 C70_2 1_555 1_555
O90 C74_2 1_555 1_555
O64_2 C75_2 1_555 1_555
O65_2 C78_2 1_555 1_555
O66_2 C79_2 1_555 1_555
O67_2 C76_2 1_555 1_555
O68_2 C80_2 1_555 1_555
O69_2 Cs13_4 1_555 1_555
O70_2 C84_2 1_555 1_555
Cs9 O36_2 1_555 1_555
C44_2 O38_2 1_555 1_555
C47_2 O36_2 1_555 1_555
C49_2 O42_2 1_555 1_555
C53_2 O41_2 1_555 1_555
C67_2 O57_2 1_555 1_555
C71_2 O80 1_555 1_555
C73_2 O62_2 1_555 1_555
C77_2 O61_2 1_555 1_555
C79_2 O67_2 1_555 1_555
C81_2 O69_2 1_555 1_555
C82_2 O37_2 1_555 1_555
C83_2 O66_2 1_555 1_555
O40_2 Cs9 1_555 1_555
O70_2 Cs9 1_555 1_555
O43_2 H99_2 1_555 1_555
O64_2 H101_2 1_555 1_555
O49_2 H102_2 1_555 1_555
O54_2 H103_2 1_555 1_555
O65_2 H104_2 1_555 1_555
O44_2 H105_2 1_555 1_555
O68_2 H107_2 1_555 1_555
O39_2 H118_2 1_555 1_555
H62_2 C54_2 1_555 1_555
H63_2 C54_2 1_555 1_555
C55_2 H64_2 1_555 1_555
C56_2 C55_2 1_555 1_555
H65_2 C56_2 1_555 1_555
C57_2 C56_2 1_555 1_555
C58_2 C57_2 1_555 1_555
H67_2 C58_2 1_555 1_555
C59_2 C58_2 1_555 1_555
H68_2 C59_2 1_555 1_555
C60_2 C59_2 1_555 1_555
H69_2 C60_2 1_555 1_555
H70_2 C60_2 1_555 1_555
C61_2 H71_2 1_555 1_555
C62_2 C61_2 1_555 1_555
H72_2 C62_2 1_555 1_555
H74_2 C64_2 1_555 1_555
C65_2 C64_2 1_555 1_555
H75_2 C65_2 1_555 1_555
C66_2 C65_2 1_555 1_555
H76_2 C66_2 1_555 1_555
H77_2 C66_2 1_555 1_555
O72_2 C54_2 1_555 1_555
O74_2 C55_2 1_555 1_555
O78_2 C60_2 1_555 1_555
O51_2 C61_2 1_555 1_555
O52_2 C58_2 1_555 1_555
O53_2 C62_2 1_555 1_555
O55_2 C66_2 1_555 1_555
C59_2 O74_2 1_555 1_555
C61_2 O52_2 1_555 1_555
C65_2 O51_2 1_555 1_555
O55_2 H100_2 1_555 1_555

#END
