
###############################################################################
#
# This file contains modified crystal structure data generated from the
# MOF subset of the Cambridge Structural Database (CSD) v543 
# hosted by the Cambridge Crystallographic Data Centre (CCDC).
#
# This work is licensed under the Creative Commons
# Attribution-NonCommercial-ShareAlike 4.0 International License.
# To view a copy of this license, visit
# http://creativecommons.org/licenses/by-nc-sa/4.0/
# or send a letter to
# Creative Commons, PO Box 1866, Mountain View, CA 94042, USA.
#
# CIF created using the CSD Python API on 29 September 2022
# The structure has been converted into the P1 space group
# The structure has a 3D framework
# The original CSD entry SAVJUY is in the monoclinic crystal system
# The original CSD entry SAVJUY is in a Sohncke space group
# The framework has been calculated to contain at least 10.0% void space
# The void calculation uses a probe of radius 1.32A, grid spacing 0.4
#
###############################################################################

data_SAVJUY
_chemical_formula_moiety         '(C288 H192 Cl48 N96 Zn24)n'
_symmetry_cell_setting           triclinic
_symmetry_space_group_name_H-M   'P 1'
_symmetry_Int_Tables_number      1
_space_group_name_Hall           'P 1'
loop_
_symmetry_equiv_pos_site_id
_symmetry_equiv_pos_as_xyz
1 x,y,z
_cell_length_a                   32.0837(4)
_cell_length_b                   14.45340(10)
_cell_length_c                   31.6753(3)
_cell_angle_alpha                90
_cell_angle_beta                 100.1200(10)
_cell_angle_gamma                90
_cell_volume                     14459.9
loop_
_atom_site_label
_atom_site_type_symbol
_atom_site_fract_x
_atom_site_fract_y
_atom_site_fract_z
Zn6 Zn 0.58516(7) 0.14763(13) 0.84497(6)
Cl11 Cl 0.62697(12) 0.2476(2) 0.82214(11)
Cl12 Cl 0.52696(11) 0.1881(2) 0.86880(10)
N21 N 0.56630(19) 0.0431(4) 0.80169(17)
C69 C 0.5917(3) 0.0290(6) 0.7741(3)
H48 H 0.613917 0.072083 0.773132
N25 N 0.61761(18) 0.0674(4) 0.89511(17)
C4 C 0.6672(2) 0.0688(4) 0.96141(18)
H3 H 0.683986 0.103824 0.983493
C5 C 0.6422(2) 0.1139(4) 0.92689(18)
H4 H 0.642642 0.179551 0.925865
Zn2 Zn 0.70365(4) 0.65747(6) 0.54305(4)
Cl3 Cl 0.76637(9) 0.70367(16) 0.57691(11)
Cl4 Cl 0.67634(12) 0.70127(16) 0.47794(8)
Zn5 Zn 0.37219(3) 0.63670(6) 0.19869(3)
Cl9 Cl 0.38951(7) 0.76385(13) 0.16679(8)
Cl10 Cl 0.34778(7) 0.6254(2) 0.25956(8)
N3 N 0.33077(18) 0.5656(4) 0.15296(19)
N4 N 0.18579(15) 0.3332(3) 0.00216(15)
N5 N 0.23801(16) 0.3327(3) 0.06562(15)
N6 N 0.22141(15) 0.4719(3) 0.02615(14)
C6 C 0.2307(2) 0.0449(5) 0.0720(2)
H5 H 0.248833 0.012502 0.094006
C7 C 0.2336(2) 0.1410(5) 0.0696(2)
H6 H 0.253655 0.173480 0.089888
C8 C 0.20742(19) 0.1886(4) 0.03810(19)
C9 C 0.1790(2) 0.1395(4) 0.0084(2)
C10 C 0.1785(3) 0.0453(5) 0.0127(2)
C11 C 0.3253(3) 0.4748(6) 0.1556(3)
H9 H 0.341297 0.442404 0.179086
C12 C 0.2971(3) 0.4251(5) 0.1257(3)
H10 H 0.294295 0.360038 0.128254
C13 C 0.2731(2) 0.4736(4) 0.09157(19)
C14 C 0.27915(18) 0.5677(4) 0.0892(2)
H11 H 0.263317 0.602687 0.066502
C15 C 0.3083(2) 0.6106(4) 0.1200(2)
H12 H 0.312560 0.675296 0.117607
C17 C 0.21051(18) 0.2908(4) 0.03542(18)
C18 C 0.24221(18) 0.4232(4) 0.05944(19)
N7 N 0.42469(17) 0.5505(4) 0.20617(17)
N8 N 0.6574(2) 0.3310(4) 0.08633(19)
N10 N 0.54353(15) 0.3575(4) 0.17375(16)
N11 N 0.57595(16) 0.2150(4) 0.19677(16)
N12 N 0.51968(15) 0.2729(4) 0.22867(14)
C19 C 0.4539(3) 0.5619(5) 0.1829(2)
H13 H 0.453648 0.617099 0.166597
C20 C 0.4845(3) 0.4986(6) 0.1808(2)
H14 H 0.504965 0.509134 0.162992
C21 C 0.48566(19) 0.4180(4) 0.20496(18)
C22 C 0.4568(2) 0.4075(4) 0.23099(19)
H15 H 0.457063 0.354437 0.248738
C23 C 0.4269(2) 0.4767(5) 0.2309(2)
H16 H 0.406948 0.470641 0.249640
C24 C 0.5283(2) 0.0363(4) 0.30601(19)
H17 H 0.508777 0.027678 0.325025
C25 C 0.52408(19) 0.1118(4) 0.27941(17)
H18 H 0.501791 0.154705 0.280251
C26 C 0.55148(18) 0.1259(4) 0.25186(17)
C27 C 0.5830(2) 0.0616(5) 0.2504(2)
H19 H 0.602146 0.068148 0.230892
C29 C 0.6672(3) 0.2788(7) 0.1216(3)
H21 H 0.694447 0.250960 0.127571
C30 C 0.6404(3) 0.2643(6) 0.1486(3)
H22 H 0.648954 0.226355 0.173120
C31 C 0.6011(2) 0.3026(5) 0.1418(2)
C32 C 0.5901(3) 0.3561(8) 0.1052(3)
H23 H 0.562897 0.384018 0.098557
C33 C 0.6197(3) 0.3677(7) 0.0785(3)
H24 H 0.612181 0.404132 0.053339
C34 C 0.51806(19) 0.3456(4) 0.20215(18)
C35 C 0.5719(2) 0.2914(5) 0.1724(2)
C36 C 0.54872(18) 0.2094(4) 0.22413(17)
N14 N 0.7056(2) 0.5149(4) 0.54158(18)
N16 N 0.68270(17) 0.1793(3) 0.50569(15)
N17 N 0.73711(16) 0.1801(3) 0.56636(16)
N18 N 0.71874(15) 0.0406(3) 0.52893(15)
C39 C 0.66242(19) 0.0398(4) 0.46614(19)
C40 C 0.6362(2) 0.0884(4) 0.4349(2)
H27 H 0.635203 0.154062 0.435574
C41 C 0.6109(3) 0.0386(5) 0.4023(2)
H28 H 0.591752 0.071781 0.381437
C42 C 0.6786(3) 0.4682(4) 0.5108(2)
H29 H 0.658876 0.501738 0.490602
C43 C 0.6795(2) 0.3727(5) 0.5087(2)
H30 H 0.661549 0.340973 0.486323
C44 C 0.70645(18) 0.3242(4) 0.53918(18)
C45 C 0.7337(2) 0.3744(5) 0.5704(2)
H31 H 0.753353 0.343318 0.591697
C46 C 0.7316(2) 0.4680(5) 0.5698(3)
H32 H 0.750200 0.501277 0.591163
C47 C 0.8288(3) 0.0405(5) 0.6515(3)
H33 H 0.846267 0.074499 0.673474
C48 C 0.7995(2) 0.0880(5) 0.6231(2)
H34 H 0.797407 0.153370 0.624841
C49 C 0.7732(2) 0.0396(4) 0.5921(2)
C52 C 0.68928(17) 0.0880(4) 0.50227(18)
C53 C 0.7082(2) 0.2216(4) 0.53685(19)
C54 C 0.74062(19) 0.0886(4) 0.56061(18)
N19 N 0.6619(2) 0.6831(5) 0.5833(2)
N20 N 0.42835(18) 0.4641(4) 0.70252(18)
N22 N 0.54670(16) 0.6573(4) 0.66969(16)
N23 N 0.52362(16) 0.7436(3) 0.72561(14)
N24 N 0.58027(16) 0.7988(4) 0.69399(16)
C55 C 0.6214(3) 0.6514(8) 0.5742(3)
H37 H 0.611722 0.622659 0.547288
C56 C 0.5946(3) 0.6597(7) 0.6021(3)
H38 H 0.567920 0.629613 0.596336
C57 C 0.6054(2) 0.7113(5) 0.6393(2)
C58 C 0.6465(3) 0.7486(6) 0.6477(3)
H39 H 0.655978 0.783752 0.672897
C59 C 0.6728(3) 0.7323(6) 0.6178(3)
H40 H 0.700386 0.758639 0.623065
C60 C 0.4303(2) 0.5389(5) 0.7281(2)
H41 H 0.410062 0.545523 0.746534
C61 C 0.4606(2) 0.6057(4) 0.72825(19)
H42 H 0.461510 0.657300 0.746971
C62 C 0.48980(19) 0.5984(4) 0.70146(18)
C63 C 0.4888(3) 0.5180(5) 0.6764(3)
H43 H 0.509748 0.507786 0.659082
C64 C 0.4571(3) 0.4544(6) 0.6772(3)
H44 H 0.455688 0.401663 0.659120
C65 C 0.5347(2) 0.9832(5) 0.80213(18)
H45 H 0.515542 0.994367 0.821243
C66 C 0.52857(19) 0.9057(4) 0.77614(18)
H46 H 0.505900 0.864114 0.777456
C67 C 0.55633(17) 0.8909(4) 0.74838(17)
C68 C 0.5878(2) 0.9552(5) 0.7466(2)
H47 H 0.606430 0.948303 0.726589
C70 C 0.5757(2) 0.7235(4) 0.6693(2)
C71 C 0.52190(18) 0.6709(4) 0.69915(17)
C72 C 0.55308(18) 0.8058(4) 0.72107(17)
Zn7 Zn 0.70066(4) 0.35627(6) 0.04680(4)
Zn8 Zn 0.37685(3) 0.37676(6) 0.69429(3)
Zn1 Zn 0.20066(4) 0.85627(6) 0.04680(4)
Cl2 Cl 0.26241(8) 0.80942(16) 0.08184(10)
Zn3 Zn 0.57175(3) 0.87493(6) 0.35301(3)
Cl5 Cl 0.51139(8) 0.8527(2) 0.37615(7)
Cl6 Cl 0.60911(9) 0.76157(14) 0.33214(7)
Zn4 Zn 0.87685(3) 0.87676(6) 0.69429(3)
Cl7 Cl 0.85248(7) 0.8825(2) 0.75526(7)
Cl8 Cl 0.89427(7) 0.75154(13) 0.66132(8)
N2 N 0.20222(19) 0.9966(4) 0.04299(19)
N9 N 0.55931(18) 0.9743(4) 0.30579(15)
C28 C 0.5859(2) 0.9866(5) 0.2785(2)
H20 H 0.607813 0.942503 0.278106
N13 N 0.61247(19) 0.9475(3) 0.39902(16)
N15 N 0.83434(17) 0.9488(4) 0.65004(18)
C37 C 0.6387(2) 0.9021(4) 0.42878(18)
H25 H 0.639790 0.836602 0.426583
C38 C 0.6643(2) 0.9438(4) 0.4626(2)
H26 H 0.682817 0.908339 0.483135
C50 C 0.7781(2) 0.9447(4) 0.5893(2)
H35 H 0.760492 0.909865 0.567806
C51 C 0.8096(2) 0.9012(4) 0.6190(2)
H36 H 0.813447 0.836299 0.616994
N26 N 0.1574(2) 0.8310(4) 0.08633(19)
N27 N 0.92835(18) 0.9641(4) 0.70252(18)
Zn3_2 Zn 0.07175(3) 0.37493(6) 0.35301(3)
Cl5_2 Cl 0.01139(8) 0.3527(2) 0.37615(7)
Cl6_2 Cl 0.10911(9) 0.26157(14) 0.33214(7)
Cl7_2 Cl 0.35248(7) 0.3825(2) 0.75526(7)
Cl8_2 Cl 0.39427(7) 0.25154(13) 0.66132(8)
N9_2 N 0.05931(18) 0.4743(4) 0.30579(15)
N10_2 N 0.04353(15) 0.8575(4) 0.17375(16)
N11_2 N 0.07595(16) 0.7150(4) 0.19677(16)
N12_2 N 0.01968(15) 0.7729(4) 0.22867(14)
C24_2 C 0.0283(2) 0.5363(4) 0.30601(19)
H17_2 H 0.008777 0.527678 0.325025
C25_2 C 0.02408(19) 0.6118(4) 0.27941(17)
H18_2 H 0.001791 0.654705 0.280251
C26_2 C 0.05148(18) 0.6259(4) 0.25186(17)
C27_2 C 0.0830(2) 0.5616(5) 0.2504(2)
H19_2 H 0.102146 0.568148 0.230892
C28_2 C 0.0859(2) 0.4866(5) 0.2785(2)
H20_2 H 0.107813 0.442503 0.278106
C29_2 C 0.1672(3) 0.7788(7) 0.1216(3)
H21_2 H 0.194447 0.750960 0.127571
C30_2 C 0.1404(3) 0.7643(6) 0.1486(3)
H22_2 H 0.148954 0.726355 0.173120
C31_2 C 0.1011(2) 0.8026(5) 0.1418(2)
C32_2 C 0.0901(3) 0.8561(8) 0.1052(3)
H23_2 H 0.062897 0.884018 0.098557
C33_2 C 0.1197(3) 0.8677(7) 0.0785(3)
H24_2 H 0.112181 0.904132 0.053339
C34_2 C 0.01806(19) 0.8456(4) 0.20215(18)
C35_2 C 0.0719(2) 0.7914(5) 0.1724(2)
C36_2 C 0.04872(18) 0.7094(4) 0.22413(17)
N13_2 N 0.11247(19) 0.4475(3) 0.39902(16)
N15_2 N 0.33434(17) 0.4488(4) 0.65004(18)
N16_2 N 0.18270(17) 0.6793(3) 0.50569(15)
N17_2 N 0.23711(16) 0.6801(3) 0.56636(16)
N18_2 N 0.21874(15) 0.5406(3) 0.52893(15)
C37_2 C 0.1387(2) 0.4021(4) 0.42878(18)
H25_2 H 0.139790 0.336602 0.426583
C38_2 C 0.1643(2) 0.4438(4) 0.4626(2)
H26_2 H 0.182817 0.408339 0.483135
C39_2 C 0.16242(19) 0.5398(4) 0.46614(19)
C40_2 C 0.1362(2) 0.5884(4) 0.4349(2)
H27_2 H 0.135203 0.654062 0.435574
C41_2 C 0.1109(3) 0.5386(5) 0.4023(2)
H28_2 H 0.091752 0.571781 0.381437
C42_2 C 0.1786(3) 0.9682(4) 0.5108(2)
C43_2 C 0.1795(2) 0.8727(5) 0.5087(2)
H30_2 H 0.161549 0.840973 0.486323
C44_2 C 0.20645(18) 0.8242(4) 0.53918(18)
C45_2 C 0.2337(2) 0.8744(5) 0.5704(2)
H31_2 H 0.253353 0.843318 0.591697
C46_2 C 0.2316(2) 0.9680(5) 0.5698(3)
C47_2 C 0.3288(3) 0.5405(5) 0.6515(3)
H33_2 H 0.346267 0.574499 0.673474
C48_2 C 0.2995(2) 0.5880(5) 0.6231(2)
H34_2 H 0.297407 0.653370 0.624841
C49_2 C 0.2732(2) 0.5396(4) 0.5921(2)
C50_2 C 0.2781(2) 0.4447(4) 0.5893(2)
H35_2 H 0.260492 0.409865 0.567806
C51_2 C 0.3096(2) 0.4012(4) 0.6190(2)
H36_2 H 0.313447 0.336299 0.616994
C52_2 C 0.18928(17) 0.5880(4) 0.50227(18)
C53_2 C 0.2082(2) 0.7216(4) 0.53685(19)
C54_2 C 0.24062(19) 0.5886(4) 0.56061(18)
Cl2_2 Cl 0.76241(8) 0.30942(16) 0.08184(10)
N2_2 N 0.70222(19) 0.4966(4) 0.04299(19)
N4_2 N 0.68579(15) 0.8332(3) 0.00216(15)
N5_2 N 0.73801(16) 0.8327(3) 0.06562(15)
N6_2 N 0.72141(15) 0.9719(3) 0.02615(14)
C6_2 C 0.7307(2) 0.5449(5) 0.0720(2)
H5_2 H 0.748833 0.512502 0.094006
C7_2 C 0.7336(2) 0.6410(5) 0.0696(2)
H6_2 H 0.753655 0.673480 0.089888
C8_2 C 0.70742(19) 0.6886(4) 0.03810(19)
C9_2 C 0.6790(2) 0.6395(4) 0.0084(2)
C10_2 C 0.6785(3) 0.5453(5) 0.0127(2)
C11_2 C 0.8253(3) 0.9748(6) 0.1556(3)
H9_2 H 0.841297 0.942404 0.179086
C12_2 C 0.7971(3) 0.9251(5) 0.1257(3)
H10_2 H 0.794295 0.860038 0.128254
C13_2 C 0.7731(2) 0.9736(4) 0.09157(19)
C17_2 C 0.71051(18) 0.7908(4) 0.03542(18)
C18_2 C 0.74221(18) 0.9232(4) 0.05944(19)
C20_2 C 0.9845(3) 0.9986(6) 0.1808(2)
C21_2 C 0.98566(19) 0.9180(4) 0.20496(18)
C22_2 C 0.9568(2) 0.9075(4) 0.23099(19)
H15_2 H 0.957063 0.854437 0.248738
C23_2 C 0.9269(2) 0.9767(5) 0.2309(2)
H16_2 H 0.906948 0.970641 0.249640
C64_2 C 0.9571(3) 0.9544(6) 0.6772(3)
H44_2 H 0.955688 0.901663 0.659120
N1 N 0.11761(18) 0.5674(4) 0.89511(17)
C1 C 0.1193(3) 0.4750(5) 0.8966(3)
H1 H 0.103271 0.441125 0.873635
C2 C 0.1430(2) 0.4266(5) 0.9296(2)
H2 H 0.142671 0.360902 0.929540
C3 C 0.16756(18) 0.4747(4) 0.96337(18)
C4_2 C 0.1672(2) 0.5688(4) 0.96141(18)
H3_2 H 0.183986 0.603824 0.983493
C5_2 C 0.1422(2) 0.6139(4) 0.92689(18)
H4_2 H 0.142642 0.679551 0.925865
H7 H 0.160570 0.170078 0.985888
H8 H 0.159330 0.011878 0.991872
C16 C 0.19328(18) 0.4222(4) 0.99960(18)
Zn9 Zn 0.08516(7) 0.64763(13) 0.84497(6)
Zn2_2 Zn 0.20365(4) 0.15747(6) 0.54305(4)
Cl3_2 Cl 0.26637(9) 0.20367(16) 0.57691(11)
Cl4_2 Cl 0.17634(12) 0.20127(16) 0.47794(8)
Cl11_2 Cl 0.12697(12) 0.7476(2) 0.82214(11)
Cl12_2 Cl 0.02696(11) 0.6881(2) 0.86880(10)
H14_2 H 0.004965 0.009134 0.162992
N14_2 N 0.2056(2) 0.0149(4) 0.54158(18)
H29_2 H 0.158876 0.001738 0.490602
H32_2 H 0.250200 0.001277 0.591163
N19_2 N 0.1619(2) 0.1831(5) 0.5833(2)
N21_2 N 0.06630(19) 0.5431(4) 0.80169(17)
N22_2 N 0.04670(16) 0.1573(4) 0.66969(16)
N23_2 N 0.02362(16) 0.2436(3) 0.72561(14)
N24_2 N 0.08027(16) 0.2988(4) 0.69399(16)
C55_2 C 0.1214(3) 0.1514(8) 0.5742(3)
H37_2 H 0.111722 0.122659 0.547288
C56_2 C 0.0946(3) 0.1597(7) 0.6021(3)
H38_2 H 0.067920 0.129613 0.596336
C57_2 C 0.1054(2) 0.2113(5) 0.6393(2)
C58_2 C 0.1465(3) 0.2486(6) 0.6477(3)
H39_2 H 0.155978 0.283752 0.672897
C59_2 C 0.1728(3) 0.2323(6) 0.6178(3)
H40_2 H 0.200386 0.258639 0.623065
H43_2 H 0.009748 0.007786 0.659082
C65_2 C 0.0347(2) 0.4832(5) 0.80213(18)
H45_2 H 0.015542 0.494367 0.821243
C66_2 C 0.02857(19) 0.4057(4) 0.77614(18)
H46_2 H 0.005900 0.364114 0.777456
C67_2 C 0.05633(17) 0.3909(4) 0.74838(17)
C68_2 C 0.0878(2) 0.4552(5) 0.7466(2)
H47_2 H 0.106430 0.448303 0.726589
C69_2 C 0.0917(3) 0.5290(6) 0.7741(3)
H48_2 H 0.113917 0.572083 0.773132
C70_2 C 0.0757(2) 0.2235(4) 0.6693(2)
C71_2 C 0.02190(18) 0.1709(4) 0.69915(17)
C72_2 C 0.05308(18) 0.3058(4) 0.72107(17)
Cl1 Cl 0.17596(11) 0.81033(15) 0.98135(8)
Zn6_2 Zn 0.41484(7) 0.14763(13) 0.15503(6)
Cl11_3 Cl 0.37303(12) 0.2476(2) 0.17786(11)
Cl12_3 Cl 0.47304(11) 0.1881(2) 0.13120(10)
N21_3 N 0.43370(19) 0.0431(4) 0.19831(17)
C69_3 C 0.4083(3) 0.0290(6) 0.2259(3)
H48_3 H 0.386083 0.072083 0.226868
N25_2 N 0.38239(18) 0.0674(4) 0.10489(17)
C4_3 C 0.3328(2) 0.0688(4) 0.03859(18)
H3_3 H 0.316014 0.103824 0.016507
C5_3 C 0.3578(2) 0.1139(4) 0.07311(18)
H4_3 H 0.357358 0.179551 0.074135
N1_2 N 0.88239(18) 0.5674(4) 0.10489(17)
C1_2 C 0.8807(3) 0.4750(5) 0.1034(3)
H1_2 H 0.896729 0.441125 0.126365
C2_2 C 0.8570(2) 0.4266(5) 0.0704(2)
H2_2 H 0.857329 0.360902 0.070460
C3_2 C 0.83244(18) 0.4747(4) 0.03663(18)
C4_4 C 0.8328(2) 0.5688(4) 0.03859(18)
H3_4 H 0.816014 0.603824 0.016507
C5_4 C 0.8578(2) 0.6139(4) 0.07311(18)
H4_4 H 0.857358 0.679551 0.074135
H7_2 H 0.839430 0.170078 0.014112
H8_2 H 0.840670 0.011878 0.008128
C16_2 C 0.80672(18) 0.4222(4) 0.00040(18)
Zn9_2 Zn 0.91484(7) 0.64763(13) 0.15503(6)
Zn2_3 Zn 0.79635(4) 0.15747(6) 0.45695(4)
Cl3_3 Cl 0.73363(9) 0.20367(16) 0.42309(11)
Cl4_3 Cl 0.82366(12) 0.20127(16) 0.52206(8)
Cl11_4 Cl 0.87303(12) 0.7476(2) 0.17786(11)
Cl12_4 Cl 0.97304(11) 0.6881(2) 0.13120(10)
H14_3 H 0.995035 0.009134 0.837008
N14_3 N 0.7944(2) 0.0149(4) 0.45842(18)
H29_3 H 0.841124 0.001738 0.509398
H32_3 H 0.749800 0.001277 0.408837
N19_3 N 0.8381(2) 0.1831(5) 0.4167(2)
N21_4 N 0.93370(19) 0.5431(4) 0.19831(17)
N22_3 N 0.95330(16) 0.1573(4) 0.33031(16)
N23_3 N 0.97638(16) 0.2436(3) 0.27439(14)
N24_3 N 0.91973(16) 0.2988(4) 0.30601(16)
C55_3 C 0.8786(3) 0.1514(8) 0.4258(3)
H37_3 H 0.888278 0.122659 0.452712
C56_3 C 0.9054(3) 0.1597(7) 0.3979(3)
H38_3 H 0.932080 0.129613 0.403664
C57_3 C 0.8946(2) 0.2113(5) 0.3607(2)
C58_3 C 0.8535(3) 0.2486(6) 0.3523(3)
H39_3 H 0.844022 0.283752 0.327103
C59_3 C 0.8272(3) 0.2323(6) 0.3822(3)
H40_3 H 0.799614 0.258639 0.376935
H43_3 H 0.990252 0.007786 0.340918
C65_3 C 0.9653(2) 0.4832(5) 0.19787(18)
H45_3 H 0.984458 0.494367 0.178757
C66_3 C 0.97143(19) 0.4057(4) 0.22386(18)
H46_3 H 0.994100 0.364114 0.222544
C67_3 C 0.94367(17) 0.3909(4) 0.25162(17)
C68_3 C 0.9122(2) 0.4552(5) 0.2534(2)
H47_3 H 0.893570 0.448303 0.273411
C69_4 C 0.9083(3) 0.5290(6) 0.2259(3)
H48_4 H 0.886083 0.572083 0.226868
C70_3 C 0.9243(2) 0.2235(4) 0.3307(2)
C71_3 C 0.97810(18) 0.1709(4) 0.30085(17)
C72_3 C 0.94692(18) 0.3058(4) 0.27893(17)
Zn2_4 Zn 0.29635(4) 0.65747(6) 0.45695(4)
Cl3_4 Cl 0.23363(9) 0.70367(16) 0.42309(11)
Cl4_4 Cl 0.32366(12) 0.70127(16) 0.52206(8)
Zn5_2 Zn 0.62781(3) 0.63670(6) 0.80131(3)
Cl9_2 Cl 0.61049(7) 0.76385(13) 0.83321(8)
Cl10_2 Cl 0.65222(7) 0.6254(2) 0.74044(8)
N3_2 N 0.66923(18) 0.5656(4) 0.84704(19)
N4_3 N 0.81421(15) 0.3332(3) 0.99784(15)
N5_3 N 0.76199(16) 0.3327(3) 0.93438(15)
N6_3 N 0.77859(15) 0.4719(3) 0.97385(14)
C6_3 C 0.7693(2) 0.0449(5) 0.9280(2)
H5_3 H 0.751167 0.012502 0.905994
C7_3 C 0.7664(2) 0.1410(5) 0.9304(2)
H6_3 H 0.746345 0.173480 0.910112
C8_3 C 0.79258(19) 0.1886(4) 0.96190(19)
C9_3 C 0.8210(2) 0.1395(4) 0.9916(2)
C10_3 C 0.8215(3) 0.0453(5) 0.9873(2)
C11_3 C 0.6747(3) 0.4748(6) 0.8444(3)
H9_3 H 0.658703 0.442404 0.820914
C12_3 C 0.7029(3) 0.4251(5) 0.8743(3)
H10_3 H 0.705705 0.360038 0.871746
C13_3 C 0.7269(2) 0.4736(4) 0.90843(19)
C14_2 C 0.72085(18) 0.5677(4) 0.9108(2)
H11_2 H 0.736683 0.602687 0.933498
C15_2 C 0.6917(2) 0.6106(4) 0.8800(2)
H12_2 H 0.687440 0.675296 0.882393
C17_3 C 0.78949(18) 0.2908(4) 0.96458(18)
C18_3 C 0.75779(18) 0.4232(4) 0.94056(19)
N7_2 N 0.57531(17) 0.5505(4) 0.79383(17)
N8_2 N 0.3426(2) 0.3310(4) 0.91367(19)
N10_3 N 0.45647(15) 0.3575(4) 0.82625(16)
N11_3 N 0.42405(16) 0.2150(4) 0.80323(16)
N12_3 N 0.48032(15) 0.2729(4) 0.77133(14)
C19_2 C 0.5461(3) 0.5619(5) 0.8171(2)
H13_2 H 0.546352 0.617099 0.833403
C20_3 C 0.5155(3) 0.4986(6) 0.8192(2)
H14_4 H 0.495035 0.509134 0.837008
C21_3 C 0.51434(19) 0.4180(4) 0.79504(18)
C22_3 C 0.5432(2) 0.4075(4) 0.76901(19)
H15_3 H 0.542937 0.354437 0.751262
C23_3 C 0.5731(2) 0.4767(5) 0.7691(2)
H16_3 H 0.593052 0.470641 0.750360
C24_3 C 0.4717(2) 0.0363(4) 0.69399(19)
H17_3 H 0.491223 0.027678 0.674975
C25_3 C 0.47592(19) 0.1118(4) 0.72059(17)
H18_3 H 0.498209 0.154705 0.719749
C26_3 C 0.44852(18) 0.1259(4) 0.74814(17)
C27_3 C 0.4170(2) 0.0616(5) 0.7496(2)
H19_3 H 0.397854 0.068148 0.769108
C29_3 C 0.3328(3) 0.2788(7) 0.8784(3)
H21_3 H 0.305553 0.250960 0.872429
C30_3 C 0.3596(3) 0.2643(6) 0.8514(3)
H22_3 H 0.351046 0.226355 0.826880
C31_3 C 0.3989(2) 0.3026(5) 0.8582(2)
C32_3 C 0.4099(3) 0.3561(8) 0.8948(3)
H23_3 H 0.437103 0.384018 0.901443
C33_3 C 0.3803(3) 0.3677(7) 0.9215(3)
H24_3 H 0.387819 0.404132 0.946661
C34_3 C 0.48194(19) 0.3456(4) 0.79785(18)
C35_3 C 0.4281(2) 0.2914(5) 0.8276(2)
C36_3 C 0.45128(18) 0.2094(4) 0.77587(17)
N14_4 N 0.2944(2) 0.5149(4) 0.45842(18)
N16_3 N 0.31730(17) 0.1793(3) 0.49431(15)
N17_3 N 0.26289(16) 0.1801(3) 0.43364(16)
N18_3 N 0.28126(15) 0.0406(3) 0.47107(15)
C39_3 C 0.33758(19) 0.0398(4) 0.53386(19)
C40_3 C 0.3638(2) 0.0884(4) 0.5651(2)
H27_3 H 0.364797 0.154062 0.564426
C41_3 C 0.3891(3) 0.0386(5) 0.5977(2)
H28_3 H 0.408248 0.071781 0.618563
C42_3 C 0.3214(3) 0.4682(4) 0.4892(2)
H29_4 H 0.341124 0.501738 0.509398
C43_3 C 0.3205(2) 0.3727(5) 0.4913(2)
H30_3 H 0.338451 0.340973 0.513677
C44_3 C 0.29355(18) 0.3242(4) 0.46082(18)
C45_3 C 0.2663(2) 0.3744(5) 0.4296(2)
H31_3 H 0.246647 0.343318 0.408303
C46_3 C 0.2684(2) 0.4680(5) 0.4302(3)
H32_4 H 0.249800 0.501277 0.408837
C47_3 C 0.1712(3) 0.0405(5) 0.3485(3)
H33_3 H 0.153733 0.074499 0.326526
C48_3 C 0.2005(2) 0.0880(5) 0.3769(2)
H34_3 H 0.202593 0.153370 0.375159
C49_3 C 0.2268(2) 0.0396(4) 0.4079(2)
C52_3 C 0.31072(17) 0.0880(4) 0.49773(18)
C53_3 C 0.2918(2) 0.2216(4) 0.46315(19)
C54_3 C 0.25938(19) 0.0886(4) 0.43939(18)
N19_4 N 0.3381(2) 0.6831(5) 0.4167(2)
N20_2 N 0.57165(18) 0.4641(4) 0.29748(18)
N22_4 N 0.45330(16) 0.6573(4) 0.33031(16)
N23_4 N 0.47638(16) 0.7436(3) 0.27439(14)
N24_4 N 0.41973(16) 0.7988(4) 0.30601(16)
C55_4 C 0.3786(3) 0.6514(8) 0.4258(3)
H37_4 H 0.388278 0.622659 0.452712
C56_4 C 0.4054(3) 0.6597(7) 0.3979(3)
H38_4 H 0.432080 0.629613 0.403664
C57_4 C 0.3946(2) 0.7113(5) 0.3607(2)
C58_4 C 0.3535(3) 0.7486(6) 0.3523(3)
H39_4 H 0.344022 0.783752 0.327103
C59_4 C 0.3272(3) 0.7323(6) 0.3822(3)
H40_4 H 0.299614 0.758639 0.376935
C60_2 C 0.5697(2) 0.5389(5) 0.2719(2)
H41_2 H 0.589938 0.545523 0.253466
C61_2 C 0.5394(2) 0.6057(4) 0.27175(19)
H42_2 H 0.538490 0.657300 0.253029
C62_2 C 0.51020(19) 0.5984(4) 0.29854(18)
C63_2 C 0.5112(3) 0.5180(5) 0.3236(3)
H43_4 H 0.490252 0.507786 0.340918
C64_3 C 0.5429(3) 0.4544(6) 0.3228(3)
H44_3 H 0.544312 0.401663 0.340880
C65_4 C 0.4653(2) 0.9832(5) 0.19787(18)
H45_4 H 0.484458 0.994367 0.178757
C66_4 C 0.47143(19) 0.9057(4) 0.22386(18)
H46_4 H 0.494100 0.864114 0.222544
C67_4 C 0.44367(17) 0.8909(4) 0.25162(17)
C68_4 C 0.4122(2) 0.9552(5) 0.2534(2)
H47_4 H 0.393570 0.948303 0.273411
C70_4 C 0.4243(2) 0.7235(4) 0.3307(2)
C71_4 C 0.47810(18) 0.6709(4) 0.30085(17)
C72_4 C 0.44692(18) 0.8058(4) 0.27893(17)
Zn7_2 Zn 0.29934(4) 0.35627(6) 0.95320(4)
Zn8_2 Zn 0.62315(3) 0.37676(6) 0.30571(3)
Zn1_2 Zn 0.79934(4) 0.85627(6) 0.95320(4)
Cl2_3 Cl 0.73759(8) 0.80942(16) 0.91816(10)
Zn3_3 Zn 0.42825(3) 0.87493(6) 0.64699(3)
Cl5_3 Cl 0.48861(8) 0.8527(2) 0.62385(7)
Cl6_3 Cl 0.39089(9) 0.76157(14) 0.66786(7)
Zn4_2 Zn 0.12315(3) 0.87676(6) 0.30571(3)
Cl7_3 Cl 0.14752(7) 0.8825(2) 0.24474(7)
Cl8_3 Cl 0.10573(7) 0.75154(13) 0.33868(8)
N2_3 N 0.79778(19) 0.9966(4) 0.95701(19)
N9_3 N 0.44069(18) 0.9743(4) 0.69421(15)
C28_3 C 0.4141(2) 0.9866(5) 0.7215(2)
H20_3 H 0.392187 0.942503 0.721894
N13_3 N 0.38753(19) 0.9475(3) 0.60098(16)
N15_3 N 0.16566(17) 0.9488(4) 0.34996(18)
C37_3 C 0.3613(2) 0.9021(4) 0.57122(18)
H25_3 H 0.360210 0.836602 0.573417
C38_3 C 0.3357(2) 0.9438(4) 0.5374(2)
H26_3 H 0.317183 0.908339 0.516865
C50_3 C 0.2219(2) 0.9447(4) 0.4107(2)
H35_3 H 0.239508 0.909865 0.432194
C51_3 C 0.1904(2) 0.9012(4) 0.3810(2)
H36_3 H 0.186553 0.836299 0.383006
N26_2 N 0.8426(2) 0.8310(4) 0.91367(19)
N27_2 N 0.07165(18) 0.9641(4) 0.29748(18)
Cl2_4 Cl 0.23759(8) 0.30942(16) 0.91816(10)
N2_4 N 0.29778(19) 0.4966(4) 0.95701(19)
N4_4 N 0.31421(15) 0.8332(3) 0.99784(15)
N5_4 N 0.26199(16) 0.8327(3) 0.93438(15)
N6_4 N 0.27859(15) 0.9719(3) 0.97385(14)
C6_4 C 0.2693(2) 0.5449(5) 0.9280(2)
H5_4 H 0.251167 0.512502 0.905994
C7_4 C 0.2664(2) 0.6410(5) 0.9304(2)
H6_4 H 0.246345 0.673480 0.910112
C8_4 C 0.29258(19) 0.6886(4) 0.96190(19)
C9_4 C 0.3210(2) 0.6395(4) 0.9916(2)
C10_4 C 0.3215(3) 0.5453(5) 0.9873(2)
C11_4 C 0.1747(3) 0.9748(6) 0.8444(3)
H9_4 H 0.158703 0.942404 0.820914
C12_4 C 0.2029(3) 0.9251(5) 0.8743(3)
H10_4 H 0.205705 0.860038 0.871746
C13_4 C 0.2269(2) 0.9736(4) 0.90843(19)
C17_4 C 0.28949(18) 0.7908(4) 0.96458(18)
C18_4 C 0.25779(18) 0.9232(4) 0.94056(19)
C20_4 C 0.0155(3) 0.9986(6) 0.8192(2)
C21_4 C 0.01434(19) 0.9180(4) 0.79504(18)
C22_4 C 0.0432(2) 0.9075(4) 0.76901(19)
H15_4 H 0.042937 0.854437 0.751262
C23_4 C 0.0731(2) 0.9767(5) 0.7691(2)
H16_4 H 0.093052 0.970641 0.750360
C64_4 C 0.0429(3) 0.9544(6) 0.3228(3)
H44_4 H 0.044312 0.901663 0.340880
Zn3_4 Zn 0.92825(3) 0.37493(6) 0.64699(3)
Cl5_4 Cl 0.98861(8) 0.3527(2) 0.62385(7)
Cl6_4 Cl 0.89089(9) 0.26157(14) 0.66786(7)
Cl7_4 Cl 0.64752(7) 0.3825(2) 0.24474(7)
Cl8_4 Cl 0.60573(7) 0.25154(13) 0.33868(8)
N9_4 N 0.94069(18) 0.4743(4) 0.69421(15)
N10_4 N 0.95647(15) 0.8575(4) 0.82625(16)
N11_4 N 0.92405(16) 0.7150(4) 0.80323(16)
N12_4 N 0.98032(15) 0.7729(4) 0.77133(14)
C24_4 C 0.9717(2) 0.5363(4) 0.69399(19)
H17_4 H 0.991223 0.527678 0.674975
C25_4 C 0.97592(19) 0.6118(4) 0.72059(17)
H18_4 H 0.998209 0.654705 0.719749
C26_4 C 0.94852(18) 0.6259(4) 0.74814(17)
C27_4 C 0.9170(2) 0.5616(5) 0.7496(2)
H19_4 H 0.897854 0.568148 0.769108
C28_4 C 0.9141(2) 0.4866(5) 0.7215(2)
H20_4 H 0.892187 0.442503 0.721894
C29_4 C 0.8328(3) 0.7788(7) 0.8784(3)
H21_4 H 0.805553 0.750960 0.872429
C30_4 C 0.8596(3) 0.7643(6) 0.8514(3)
H22_4 H 0.851046 0.726355 0.826880
C31_4 C 0.8989(2) 0.8026(5) 0.8582(2)
C32_4 C 0.9099(3) 0.8561(8) 0.8948(3)
H23_4 H 0.937103 0.884018 0.901443
C33_4 C 0.8803(3) 0.8677(7) 0.9215(3)
H24_4 H 0.887819 0.904132 0.946661
C34_4 C 0.98194(19) 0.8456(4) 0.79785(18)
C35_4 C 0.9281(2) 0.7914(5) 0.8276(2)
C36_4 C 0.95128(18) 0.7094(4) 0.77587(17)
N13_4 N 0.88753(19) 0.4475(3) 0.60098(16)
N15_4 N 0.66566(17) 0.4488(4) 0.34996(18)
N16_4 N 0.81730(17) 0.6793(3) 0.49431(15)
N17_4 N 0.76289(16) 0.6801(3) 0.43364(16)
N18_4 N 0.78126(15) 0.5406(3) 0.47107(15)
C37_4 C 0.8613(2) 0.4021(4) 0.57122(18)
H25_4 H 0.860210 0.336602 0.573417
C38_4 C 0.8357(2) 0.4438(4) 0.5374(2)
H26_4 H 0.817183 0.408339 0.516865
C39_4 C 0.83758(19) 0.5398(4) 0.53386(19)
C40_4 C 0.8638(2) 0.5884(4) 0.5651(2)
H27_4 H 0.864797 0.654062 0.564426
C41_4 C 0.8891(3) 0.5386(5) 0.5977(2)
H28_4 H 0.908248 0.571781 0.618563
C42_4 C 0.8214(3) 0.9682(4) 0.4892(2)
C43_4 C 0.8205(2) 0.8727(5) 0.4913(2)
H30_4 H 0.838451 0.840973 0.513677
C44_4 C 0.79355(18) 0.8242(4) 0.46082(18)
C45_4 C 0.7663(2) 0.8744(5) 0.4296(2)
H31_4 H 0.746647 0.843318 0.408303
C46_4 C 0.7684(2) 0.9680(5) 0.4302(3)
C47_4 C 0.6712(3) 0.5405(5) 0.3485(3)
H33_4 H 0.653733 0.574499 0.326526
C48_4 C 0.7005(2) 0.5880(5) 0.3769(2)
H34_4 H 0.702593 0.653370 0.375159
C49_4 C 0.7268(2) 0.5396(4) 0.4079(2)
C50_4 C 0.7219(2) 0.4447(4) 0.4107(2)
H35_4 H 0.739508 0.409865 0.432194
C51_4 C 0.6904(2) 0.4012(4) 0.3810(2)
H36_4 H 0.686553 0.336299 0.383006
C52_4 C 0.81072(17) 0.5880(4) 0.49773(18)
C53_4 C 0.7918(2) 0.7216(4) 0.46315(19)
C54_4 C 0.75938(19) 0.5886(4) 0.43939(18)
Cl1_2 Cl 0.82404(11) 0.81033(15) 0.01865(8)
Zn5_3 Zn 0.87219(3) 0.13670(6) 0.19869(3)
Cl9_3 Cl 0.88951(7) 0.26385(13) 0.16679(8)
Cl10_3 Cl 0.84778(7) 0.1254(2) 0.25956(8)
N3_3 N 0.83077(18) 0.0656(4) 0.15296(19)
C14_3 C 0.77915(18) 0.0677(4) 0.0892(2)
H11_3 H 0.763317 0.102687 0.066502
C15_3 C 0.8083(2) 0.1106(4) 0.1200(2)
H12_3 H 0.812560 0.175296 0.117607
N7_3 N 0.92469(17) 0.0505(4) 0.20617(17)
C19_3 C 0.9539(3) 0.0619(5) 0.1829(2)
H13_3 H 0.953648 0.117099 0.166597
C60_3 C 0.9303(2) 0.0389(5) 0.7281(2)
H41_3 H 0.910062 0.045523 0.746534
C61_3 C 0.9606(2) 0.1057(4) 0.72825(19)
H42_3 H 0.961510 0.157300 0.746971
C62_3 C 0.98980(19) 0.0984(4) 0.70146(18)
C63_3 C 0.9888(3) 0.0180(5) 0.6764(3)
Cl1_3 Cl 0.67596(11) 0.31033(15) 0.98135(8)
C1_3 C 0.6193(3) 0.9750(5) 0.8966(3)
H1_3 H 0.603271 0.941125 0.873635
C2_3 C 0.6430(2) 0.9266(5) 0.9296(2)
H2_3 H 0.642671 0.860902 0.929540
C3_3 C 0.66756(18) 0.9747(4) 0.96337(18)
H7_3 H 0.660570 0.670078 0.985888
H8_3 H 0.659330 0.511878 0.991872
C16_3 C 0.69328(18) 0.9222(4) 0.99960(18)
Zn5_4 Zn 0.12781(3) 0.13670(6) 0.80131(3)
Cl9_4 Cl 0.11049(7) 0.26385(13) 0.83321(8)
Cl10_4 Cl 0.15222(7) 0.1254(2) 0.74044(8)
N3_4 N 0.16923(18) 0.0656(4) 0.84704(19)
C14_4 C 0.22085(18) 0.0677(4) 0.9108(2)
H11_4 H 0.236683 0.102687 0.933498
C15_4 C 0.1917(2) 0.1106(4) 0.8800(2)
H12_4 H 0.187440 0.175296 0.882393
N7_4 N 0.07531(17) 0.0505(4) 0.79383(17)
C19_4 C 0.0461(3) 0.0619(5) 0.8171(2)
H13_4 H 0.046352 0.117099 0.833403
C60_4 C 0.0697(2) 0.0389(5) 0.2719(2)
H41_4 H 0.089938 0.045523 0.253466
C61_4 C 0.0394(2) 0.1057(4) 0.27175(19)
H42_4 H 0.038490 0.157300 0.253029
C62_4 C 0.01020(19) 0.0984(4) 0.29854(18)
C63_4 C 0.0112(3) 0.0180(5) 0.3236(3)
Cl1_4 Cl 0.32404(11) 0.31033(15) 0.01865(8)
C1_4 C 0.3807(3) 0.9750(5) 0.1034(3)
H1_4 H 0.396729 0.941125 0.126365
C2_4 C 0.3570(2) 0.9266(5) 0.0704(2)
H2_4 H 0.357329 0.860902 0.070460
C3_4 C 0.33244(18) 0.9747(4) 0.03663(18)
H7_4 H 0.339430 0.670078 0.014112
H8_4 H 0.340670 0.511878 0.008128
C16_4 C 0.30672(18) 0.9222(4) 0.00040(18)
loop_
_geom_bond_atom_site_label_1
_geom_bond_atom_site_label_2
_geom_bond_site_symmetry_1
_geom_bond_site_symmetry_2
Zn6 Cl11 1_555 1_555
Cl12 Zn6 1_555 1_555
N21 Zn6 1_555 1_555
C69 N21 1_555 1_555
H48 C69 1_555 1_555
N25 Zn6 1_555 1_555
H3 C4 1_555 1_555
C5 N25 1_555 1_555
H4 C5 1_555 1_555
C4 C5 1_555 1_555
Zn2 Cl3 1_555 1_555
Cl4 Zn2 1_555 1_555
Zn5 Cl9 1_555 1_555
Cl10 Zn5 1_555 1_555
N3 Zn5 1_555 1_555
N5 C17 1_555 1_555
H5 C6 1_555 1_555
C7 C6 1_555 1_555
H6 C7 1_555 1_555
C8 C7 1_555 1_555
C9 C8 1_555 1_555
C11 N3 1_555 1_555
H9 C11 1_555 1_555
C12 C11 1_555 1_555
H10 C12 1_555 1_555
C13 C12 1_555 1_555
C14 C13 1_555 1_555
H11 C14 1_555 1_555
C15 N3 1_555 1_555
H12 C15 1_555 1_555
C17 N4 1_555 1_555
C18 N5 1_555 1_555
N7 Zn5 1_555 1_555
N8 C29 1_555 1_555
N10 C34 1_555 1_555
N11 C35 1_555 1_555
N12 C34 1_555 1_555
C19 N7 1_555 1_555
H13 C19 1_555 1_555
C20 C19 1_555 1_555
H14 C20 1_555 1_555
C21 C20 1_555 1_555
C22 C21 1_555 1_555
H15 C22 1_555 1_555
C23 N7 1_555 1_555
H16 C23 1_555 1_555
H17 C24 1_555 1_555
C25 C24 1_555 1_555
H18 C25 1_555 1_555
C26 C25 1_555 1_555
C27 C26 1_555 1_555
H19 C27 1_555 1_555
C29 H21 1_555 1_555
C30 C29 1_555 1_555
H22 C30 1_555 1_555
C31 C30 1_555 1_555
C32 C31 1_555 1_555
H23 C32 1_555 1_555
C33 N8 1_555 1_555
H24 C33 1_555 1_555
C34 C21 1_555 1_555
C35 N10 1_555 1_555
C36 N11 1_555 1_555
N14 Zn2 1_555 1_555
N16 C52 1_555 1_555
N17 C53 1_555 1_555
N18 C52 1_555 1_555
C40 C39 1_555 1_555
H27 C40 1_555 1_555
H28 C41 1_555 1_555
C42 N14 1_555 1_555
H29 C42 1_555 1_555
C43 C42 1_555 1_555
H30 C43 1_555 1_555
C44 C43 1_555 1_555
C45 C44 1_555 1_555
H31 C45 1_555 1_555
C46 N14 1_555 1_555
H32 C46 1_555 1_555
H33 C47 1_555 1_555
C48 C47 1_555 1_555
H34 C48 1_555 1_555
C49 C48 1_555 1_555
C52 C39 1_555 1_555
C53 N16 1_555 1_555
C54 N17 1_555 1_555
N19 Zn2 1_555 1_555
N20 C60 1_555 1_555
N22 C70 1_555 1_555
N23 C71 1_555 1_555
N24 C70 1_555 1_555
C55 N19 1_555 1_555
H37 C55 1_555 1_555
C56 C55 1_555 1_555
H38 C56 1_555 1_555
C57 C56 1_555 1_555
C58 C57 1_555 1_555
H39 C58 1_555 1_555
C59 N19 1_555 1_555
H40 C59 1_555 1_555
C60 H41 1_555 1_555
C61 C60 1_555 1_555
H42 C61 1_555 1_555
C62 C61 1_555 1_555
C63 C62 1_555 1_555
H43 C63 1_555 1_555
C64 N20 1_555 1_555
H44 C64 1_555 1_555
H45 C65 1_555 1_555
C66 C65 1_555 1_555
H46 C66 1_555 1_555
C67 C66 1_555 1_555
C68 C67 1_555 1_555
H47 C68 1_555 1_555
C70 C57 1_555 1_555
C71 N22 1_555 1_555
C72 N23 1_555 1_555
Zn7 N8 1_555 1_555
Zn8 N20 1_555 1_555
N6 C18 1_555 1_555
C8 C17 1_555 1_555
C9 C10 1_555 1_555
C13 C18 1_555 1_555
C14 C15 1_555 1_555
N12 C36 1_555 1_555
C22 C23 1_555 1_555
C26 C36 1_555 1_555
C31 C35 1_555 1_555
C32 C33 1_555 1_555
N18 C54 1_555 1_555
C40 C41 1_555 1_555
C44 C53 1_555 1_555
C45 C46 1_555 1_555
C49 C54 1_555 1_555
N24 C72 1_555 1_555
C58 C59 1_555 1_555
C62 C71 1_555 1_555
C63 C64 1_555 1_555
C67 C72 1_555 1_555
Cl2 Zn1 1_555 1_555
Zn3 Cl5 1_555 1_555
Cl6 Zn3 1_555 1_555
Zn4 Cl7 1_555 1_555
Cl8 Zn4 1_555 1_555
N2 Zn1 1_555 1_555
N9 Zn3 1_555 1_555
C28 N9 1_555 1_555
H20 C28 1_555 1_555
N13 Zn3 1_555 1_555
N15 Zn4 1_555 1_555
C37 N13 1_555 1_555
H25 C37 1_555 1_555
C38 C37 1_555 1_555
H26 C38 1_555 1_555
H35 C50 1_555 1_555
C51 N15 1_555 1_555
H36 C51 1_555 1_555
N26 Zn1 1_555 1_555
N27 Zn4 1_555 1_555
C50 C51 1_555 1_555
Zn3_2 Cl5_2 1_555 1_555
Cl6_2 Zn3_2 1_555 1_555
Zn8 Cl7_2 1_555 1_555
Cl8_2 Zn8 1_555 1_555
N26 C29_2 1_555 1_555
N9_2 Zn3_2 1_555 1_555
N10_2 C34_2 1_555 1_555
N11_2 C35_2 1_555 1_555
N12_2 C34_2 1_555 1_555
C24_2 N9_2 1_555 1_555
H17_2 C24_2 1_555 1_555
C25_2 C24_2 1_555 1_555
H18_2 C25_2 1_555 1_555
C26_2 C25_2 1_555 1_555
C27_2 C26_2 1_555 1_555
H19_2 C27_2 1_555 1_555
C28_2 N9_2 1_555 1_555
H20_2 C28_2 1_555 1_555
C29_2 H21_2 1_555 1_555
C30_2 C29_2 1_555 1_555
H22_2 C30_2 1_555 1_555
C31_2 C30_2 1_555 1_555
C32_2 C31_2 1_555 1_555
H23_2 C32_2 1_555 1_555
C33_2 N26 1_555 1_555
H24_2 C33_2 1_555 1_555
C35_2 N10_2 1_555 1_555
C36_2 N11_2 1_555 1_555
N13_2 Zn3_2 1_555 1_555
N15_2 Zn8 1_555 1_555
N16_2 C52_2 1_555 1_555
N17_2 C53_2 1_555 1_555
N18_2 C52_2 1_555 1_555
C37_2 N13_2 1_555 1_555
H25_2 C37_2 1_555 1_555
C38_2 C37_2 1_555 1_555
H26_2 C38_2 1_555 1_555
C39_2 C38_2 1_555 1_555
C40_2 C39_2 1_555 1_555
H27_2 C40_2 1_555 1_555
C41_2 N13_2 1_555 1_555
H28_2 C41_2 1_555 1_555
C43_2 C42_2 1_555 1_555
H30_2 C43_2 1_555 1_555
C44_2 C43_2 1_555 1_555
C45_2 C44_2 1_555 1_555
H31_2 C45_2 1_555 1_555
C47_2 N15_2 1_555 1_555
H33_2 C47_2 1_555 1_555
C48_2 C47_2 1_555 1_555
H34_2 C48_2 1_555 1_555
C49_2 C48_2 1_555 1_555
C50_2 C49_2 1_555 1_555
H35_2 C50_2 1_555 1_555
C51_2 N15_2 1_555 1_555
H36_2 C51_2 1_555 1_555
C52_2 C39_2 1_555 1_555
C53_2 N16_2 1_555 1_555
C54_2 N17_2 1_555 1_555
N12_2 C36_2 1_555 1_555
C26_2 C36_2 1_555 1_555
C27_2 C28_2 1_555 1_555
C31_2 C35_2 1_555 1_555
C32_2 C33_2 1_555 1_555
N18_2 C54_2 1_555 1_555
C40_2 C41_2 1_555 1_555
C44_2 C53_2 1_555 1_555
C45_2 C46_2 1_555 1_555
C49_2 C54_2 1_555 1_555
C50_2 C51_2 1_555 1_555
Cl2_2 Zn7 1_555 1_555
N2_2 Zn7 1_555 1_555
N5_2 C17_2 1_555 1_555
C6_2 N2_2 1_555 1_555
H5_2 C6_2 1_555 1_555
C7_2 C6_2 1_555 1_555
H6_2 C7_2 1_555 1_555
C8_2 C7_2 1_555 1_555
C9_2 C8_2 1_555 1_555
C10_2 N2_2 1_555 1_555
H9_2 C11_2 1_555 1_555
C12_2 C11_2 1_555 1_555
H10_2 C12_2 1_555 1_555
C13_2 C12_2 1_555 1_555
C17_2 N4_2 1_555 1_555
C18_2 N5_2 1_555 1_555
C21_2 C20_2 1_555 1_555
C22_2 C21_2 1_555 1_555
H15_2 C22_2 1_555 1_555
H16_2 C23_2 1_555 1_555
C64_2 N27 1_555 1_555
H44_2 C64_2 1_555 1_555
N6_2 C18_2 1_555 1_555
C8_2 C17_2 1_555 1_555
C9_2 C10_2 1_555 1_555
C13_2 C18_2 1_555 1_555
C22_2 C23_2 1_555 1_555
N1 C1 1_555 1_555
C1 H1 1_555 1_555
C2 C1 1_555 1_555
H2 C2 1_555 1_555
C3 C2 1_555 1_555
C4_2 C3 1_555 1_555
H3_2 C4_2 1_555 1_555
C5_2 N1 1_555 1_555
H4_2 C5_2 1_555 1_555
C16 C3 1_555 1_555
Zn9 N1 1_555 1_555
C4_2 C5_2 1_555 1_555
Zn2_2 Cl3_2 1_555 1_555
Cl4_2 Zn2_2 1_555 1_555
Zn9 Cl11_2 1_555 1_555
Cl12_2 Zn9 1_555 1_555
N14_2 Zn2_2 1_555 1_555
N19_2 Zn2_2 1_555 1_555
N21_2 Zn9 1_555 1_555
N22_2 C70_2 1_555 1_555
N23_2 C71_2 1_555 1_555
N24_2 C70_2 1_555 1_555
C55_2 N19_2 1_555 1_555
H37_2 C55_2 1_555 1_555
C56_2 C55_2 1_555 1_555
H38_2 C56_2 1_555 1_555
C57_2 C56_2 1_555 1_555
C58_2 C57_2 1_555 1_555
H39_2 C58_2 1_555 1_555
C59_2 N19_2 1_555 1_555
H40_2 C59_2 1_555 1_555
C65_2 N21_2 1_555 1_555
H45_2 C65_2 1_555 1_555
C66_2 C65_2 1_555 1_555
H46_2 C66_2 1_555 1_555
C67_2 C66_2 1_555 1_555
C68_2 C67_2 1_555 1_555
H47_2 C68_2 1_555 1_555
C69_2 N21_2 1_555 1_555
H48_2 C69_2 1_555 1_555
C70_2 C57_2 1_555 1_555
C71_2 N22_2 1_555 1_555
C72_2 N23_2 1_555 1_555
N24_2 C72_2 1_555 1_555
C58_2 C59_2 1_555 1_555
C67_2 C72_2 1_555 1_555
C68_2 C69_2 1_555 1_555
Zn6_2 Cl11_3 1_555 1_555
Cl12_3 Zn6_2 1_555 1_555
N21_3 Zn6_2 1_555 1_555
C69_3 N21_3 1_555 1_555
H48_3 C69_3 1_555 1_555
N25_2 Zn6_2 1_555 1_555
H3_3 C4_3 1_555 1_555
C5_3 N25_2 1_555 1_555
H4_3 C5_3 1_555 1_555
C4_3 C5_3 1_555 1_555
N1_2 C1_2 1_555 1_555
C1_2 H1_2 1_555 1_555
C2_2 C1_2 1_555 1_555
H2_2 C2_2 1_555 1_555
C3_2 C2_2 1_555 1_555
C4_4 C3_2 1_555 1_555
H3_4 C4_4 1_555 1_555
C5_4 N1_2 1_555 1_555
H4_4 C5_4 1_555 1_555
C16_2 C3_2 1_555 1_555
Zn9_2 N1_2 1_555 1_555
C4_4 C5_4 1_555 1_555
Zn2_3 Cl3_3 1_555 1_555
Cl4_3 Zn2_3 1_555 1_555
Zn9_2 Cl11_4 1_555 1_555
Cl12_4 Zn9_2 1_555 1_555
N14_3 Zn2_3 1_555 1_555
N19_3 Zn2_3 1_555 1_555
N21_4 Zn9_2 1_555 1_555
N22_3 C70_3 1_555 1_555
N23_3 C71_3 1_555 1_555
N24_3 C70_3 1_555 1_555
C55_3 N19_3 1_555 1_555
H37_3 C55_3 1_555 1_555
C56_3 C55_3 1_555 1_555
H38_3 C56_3 1_555 1_555
C57_3 C56_3 1_555 1_555
C58_3 C57_3 1_555 1_555
H39_3 C58_3 1_555 1_555
C59_3 N19_3 1_555 1_555
H40_3 C59_3 1_555 1_555
C65_3 N21_4 1_555 1_555
H45_3 C65_3 1_555 1_555
C66_3 C65_3 1_555 1_555
H46_3 C66_3 1_555 1_555
C67_3 C66_3 1_555 1_555
C68_3 C67_3 1_555 1_555
H47_3 C68_3 1_555 1_555
C69_4 N21_4 1_555 1_555
H48_4 C69_4 1_555 1_555
C70_3 C57_3 1_555 1_555
C71_3 N22_3 1_555 1_555
C72_3 N23_3 1_555 1_555
N24_3 C72_3 1_555 1_555
C58_3 C59_3 1_555 1_555
C67_3 C72_3 1_555 1_555
C68_3 C69_4 1_555 1_555
Zn2_4 Cl3_4 1_555 1_555
Cl4_4 Zn2_4 1_555 1_555
Zn5_2 Cl9_2 1_555 1_555
Cl10_2 Zn5_2 1_555 1_555
N3_2 Zn5_2 1_555 1_555
N5_3 C17_3 1_555 1_555
H5_3 C6_3 1_555 1_555
C7_3 C6_3 1_555 1_555
H6_3 C7_3 1_555 1_555
C8_3 C7_3 1_555 1_555
C9_3 C8_3 1_555 1_555
C11_3 N3_2 1_555 1_555
H9_3 C11_3 1_555 1_555
C12_3 C11_3 1_555 1_555
H10_3 C12_3 1_555 1_555
C13_3 C12_3 1_555 1_555
C14_2 C13_3 1_555 1_555
H11_2 C14_2 1_555 1_555
C15_2 N3_2 1_555 1_555
H12_2 C15_2 1_555 1_555
C17_3 N4_3 1_555 1_555
C18_3 N5_3 1_555 1_555
N7_2 Zn5_2 1_555 1_555
N8_2 C29_3 1_555 1_555
N10_3 C34_3 1_555 1_555
N11_3 C35_3 1_555 1_555
N12_3 C34_3 1_555 1_555
C19_2 N7_2 1_555 1_555
H13_2 C19_2 1_555 1_555
C20_3 C19_2 1_555 1_555
H14_4 C20_3 1_555 1_555
C21_3 C20_3 1_555 1_555
C22_3 C21_3 1_555 1_555
H15_3 C22_3 1_555 1_555
C23_3 N7_2 1_555 1_555
H16_3 C23_3 1_555 1_555
H17_3 C24_3 1_555 1_555
C25_3 C24_3 1_555 1_555
H18_3 C25_3 1_555 1_555
C26_3 C25_3 1_555 1_555
C27_3 C26_3 1_555 1_555
H19_3 C27_3 1_555 1_555
C29_3 H21_3 1_555 1_555
C30_3 C29_3 1_555 1_555
H22_3 C30_3 1_555 1_555
C31_3 C30_3 1_555 1_555
C32_3 C31_3 1_555 1_555
H23_3 C32_3 1_555 1_555
C33_3 N8_2 1_555 1_555
H24_3 C33_3 1_555 1_555
C34_3 C21_3 1_555 1_555
C35_3 N10_3 1_555 1_555
C36_3 N11_3 1_555 1_555
N14_4 Zn2_4 1_555 1_555
N16_3 C52_3 1_555 1_555
N17_3 C53_3 1_555 1_555
N18_3 C52_3 1_555 1_555
C40_3 C39_3 1_555 1_555
H27_3 C40_3 1_555 1_555
H28_3 C41_3 1_555 1_555
C42_3 N14_4 1_555 1_555
H29_4 C42_3 1_555 1_555
C43_3 C42_3 1_555 1_555
H30_3 C43_3 1_555 1_555
C44_3 C43_3 1_555 1_555
C45_3 C44_3 1_555 1_555
H31_3 C45_3 1_555 1_555
C46_3 N14_4 1_555 1_555
H32_4 C46_3 1_555 1_555
H33_3 C47_3 1_555 1_555
C48_3 C47_3 1_555 1_555
H34_3 C48_3 1_555 1_555
C49_3 C48_3 1_555 1_555
C52_3 C39_3 1_555 1_555
C53_3 N16_3 1_555 1_555
C54_3 N17_3 1_555 1_555
N19_4 Zn2_4 1_555 1_555
N20_2 C60_2 1_555 1_555
N22_4 C70_4 1_555 1_555
N23_4 C71_4 1_555 1_555
N24_4 C70_4 1_555 1_555
C55_4 N19_4 1_555 1_555
H37_4 C55_4 1_555 1_555
C56_4 C55_4 1_555 1_555
H38_4 C56_4 1_555 1_555
C57_4 C56_4 1_555 1_555
C58_4 C57_4 1_555 1_555
H39_4 C58_4 1_555 1_555
C59_4 N19_4 1_555 1_555
H40_4 C59_4 1_555 1_555
C60_2 H41_2 1_555 1_555
C61_2 C60_2 1_555 1_555
H42_2 C61_2 1_555 1_555
C62_2 C61_2 1_555 1_555
C63_2 C62_2 1_555 1_555
H43_4 C63_2 1_555 1_555
C64_3 N20_2 1_555 1_555
H44_3 C64_3 1_555 1_555
H45_4 C65_4 1_555 1_555
C66_4 C65_4 1_555 1_555
H46_4 C66_4 1_555 1_555
C67_4 C66_4 1_555 1_555
C68_4 C67_4 1_555 1_555
H47_4 C68_4 1_555 1_555
C70_4 C57_4 1_555 1_555
C71_4 N22_4 1_555 1_555
C72_4 N23_4 1_555 1_555
Zn7_2 N8_2 1_555 1_555
Zn8_2 N20_2 1_555 1_555
N6_3 C18_3 1_555 1_555
C8_3 C17_3 1_555 1_555
C9_3 C10_3 1_555 1_555
C13_3 C18_3 1_555 1_555
C14_2 C15_2 1_555 1_555
N12_3 C36_3 1_555 1_555
C22_3 C23_3 1_555 1_555
C26_3 C36_3 1_555 1_555
C31_3 C35_3 1_555 1_555
C32_3 C33_3 1_555 1_555
N18_3 C54_3 1_555 1_555
C40_3 C41_3 1_555 1_555
C44_3 C53_3 1_555 1_555
C45_3 C46_3 1_555 1_555
C49_3 C54_3 1_555 1_555
N24_4 C72_4 1_555 1_555
C58_4 C59_4 1_555 1_555
C62_2 C71_4 1_555 1_555
C63_2 C64_3 1_555 1_555
C67_4 C72_4 1_555 1_555
Cl2_3 Zn1_2 1_555 1_555
Zn3_3 Cl5_3 1_555 1_555
Cl6_3 Zn3_3 1_555 1_555
Zn4_2 Cl7_3 1_555 1_555
Cl8_3 Zn4_2 1_555 1_555
N2_3 Zn1_2 1_555 1_555
N9_3 Zn3_3 1_555 1_555
C28_3 N9_3 1_555 1_555
H20_3 C28_3 1_555 1_555
N13_3 Zn3_3 1_555 1_555
N15_3 Zn4_2 1_555 1_555
C37_3 N13_3 1_555 1_555
H25_3 C37_3 1_555 1_555
C38_3 C37_3 1_555 1_555
H26_3 C38_3 1_555 1_555
H35_3 C50_3 1_555 1_555
C51_3 N15_3 1_555 1_555
H36_3 C51_3 1_555 1_555
N26_2 Zn1_2 1_555 1_555
N27_2 Zn4_2 1_555 1_555
C50_3 C51_3 1_555 1_555
Cl2_4 Zn7_2 1_555 1_555
N2_4 Zn7_2 1_555 1_555
N5_4 C17_4 1_555 1_555
C6_4 N2_4 1_555 1_555
H5_4 C6_4 1_555 1_555
C7_4 C6_4 1_555 1_555
H6_4 C7_4 1_555 1_555
C8_4 C7_4 1_555 1_555
C9_4 C8_4 1_555 1_555
C10_4 N2_4 1_555 1_555
H9_4 C11_4 1_555 1_555
C12_4 C11_4 1_555 1_555
H10_4 C12_4 1_555 1_555
C13_4 C12_4 1_555 1_555
C17_4 N4_4 1_555 1_555
C18_4 N5_4 1_555 1_555
C21_4 C20_4 1_555 1_555
C22_4 C21_4 1_555 1_555
H15_4 C22_4 1_555 1_555
H16_4 C23_4 1_555 1_555
C64_4 N27_2 1_555 1_555
H44_4 C64_4 1_555 1_555
N6_4 C18_4 1_555 1_555
C8_4 C17_4 1_555 1_555
C9_4 C10_4 1_555 1_555
C13_4 C18_4 1_555 1_555
C22_4 C23_4 1_555 1_555
Zn3_4 Cl5_4 1_555 1_555
Cl6_4 Zn3_4 1_555 1_555
Zn8_2 Cl7_4 1_555 1_555
Cl8_4 Zn8_2 1_555 1_555
N26_2 C29_4 1_555 1_555
N9_4 Zn3_4 1_555 1_555
N10_4 C34_4 1_555 1_555
N11_4 C35_4 1_555 1_555
N12_4 C34_4 1_555 1_555
C24_4 N9_4 1_555 1_555
H17_4 C24_4 1_555 1_555
C25_4 C24_4 1_555 1_555
H18_4 C25_4 1_555 1_555
C26_4 C25_4 1_555 1_555
C27_4 C26_4 1_555 1_555
H19_4 C27_4 1_555 1_555
C28_4 N9_4 1_555 1_555
H20_4 C28_4 1_555 1_555
C29_4 H21_4 1_555 1_555
C30_4 C29_4 1_555 1_555
H22_4 C30_4 1_555 1_555
C31_4 C30_4 1_555 1_555
C32_4 C31_4 1_555 1_555
H23_4 C32_4 1_555 1_555
C33_4 N26_2 1_555 1_555
H24_4 C33_4 1_555 1_555
C35_4 N10_4 1_555 1_555
C36_4 N11_4 1_555 1_555
N13_4 Zn3_4 1_555 1_555
N15_4 Zn8_2 1_555 1_555
N16_4 C52_4 1_555 1_555
N17_4 C53_4 1_555 1_555
N18_4 C52_4 1_555 1_555
C37_4 N13_4 1_555 1_555
H25_4 C37_4 1_555 1_555
C38_4 C37_4 1_555 1_555
H26_4 C38_4 1_555 1_555
C39_4 C38_4 1_555 1_555
C40_4 C39_4 1_555 1_555
H27_4 C40_4 1_555 1_555
C41_4 N13_4 1_555 1_555
H28_4 C41_4 1_555 1_555
C43_4 C42_4 1_555 1_555
H30_4 C43_4 1_555 1_555
C44_4 C43_4 1_555 1_555
C45_4 C44_4 1_555 1_555
H31_4 C45_4 1_555 1_555
C47_4 N15_4 1_555 1_555
H33_4 C47_4 1_555 1_555
C48_4 C47_4 1_555 1_555
H34_4 C48_4 1_555 1_555
C49_4 C48_4 1_555 1_555
C50_4 C49_4 1_555 1_555
H35_4 C50_4 1_555 1_555
C51_4 N15_4 1_555 1_555
H36_4 C51_4 1_555 1_555
C52_4 C39_4 1_555 1_555
C53_4 N16_4 1_555 1_555
C54_4 N17_4 1_555 1_555
N12_4 C36_4 1_555 1_555
C26_4 C36_4 1_555 1_555
C27_4 C28_4 1_555 1_555
C31_4 C35_4 1_555 1_555
C32_4 C33_4 1_555 1_555
N18_4 C54_4 1_555 1_555
C40_4 C41_4 1_555 1_555
C44_4 C53_4 1_555 1_555
C45_4 C46_4 1_555 1_555
C49_4 C54_4 1_555 1_555
C50_4 C51_4 1_555 1_555
Zn5_3 Cl9_3 1_555 1_555
Cl10_3 Zn5_3 1_555 1_555
N3_3 Zn5_3 1_555 1_555
H11_3 C14_3 1_555 1_555
C15_3 N3_3 1_555 1_555
H12_3 C15_3 1_555 1_555
N7_3 Zn5_3 1_555 1_555
C19_3 N7_3 1_555 1_555
H13_3 C19_3 1_555 1_555
C60_3 H41_3 1_555 1_555
C61_3 C60_3 1_555 1_555
H42_3 C61_3 1_555 1_555
C62_3 C61_3 1_555 1_555
C63_3 C62_3 1_555 1_555
C14_3 C15_3 1_555 1_555
C1_3 H1_3 1_555 1_555
C2_3 C1_3 1_555 1_555
H2_3 C2_3 1_555 1_555
C3_3 C2_3 1_555 1_555
C16_3 C3_3 1_555 1_555
Zn5_4 Cl9_4 1_555 1_555
Cl10_4 Zn5_4 1_555 1_555
N3_4 Zn5_4 1_555 1_555
H11_4 C14_4 1_555 1_555
C15_4 N3_4 1_555 1_555
H12_4 C15_4 1_555 1_555
N7_4 Zn5_4 1_555 1_555
C19_4 N7_4 1_555 1_555
H13_4 C19_4 1_555 1_555
C60_4 H41_4 1_555 1_555
C61_4 C60_4 1_555 1_555
H42_4 C61_4 1_555 1_555
C62_4 C61_4 1_555 1_555
C63_4 C62_4 1_555 1_555
C14_4 C15_4 1_555 1_555
C1_4 H1_4 1_555 1_555
C2_4 C1_4 1_555 1_555
H2_4 C2_4 1_555 1_555
C3_4 C2_4 1_555 1_555
C16_4 C3_4 1_555 1_555

#END
