
###############################################################################
#
# This file contains modified crystal structure data generated from the
# MOF subset of the Cambridge Structural Database (CSD) v543 
# hosted by the Cambridge Crystallographic Data Centre (CCDC).
#
# This work is licensed under the Creative Commons
# Attribution-NonCommercial-ShareAlike 4.0 International License.
# To view a copy of this license, visit
# http://creativecommons.org/licenses/by-nc-sa/4.0/
# or send a letter to
# Creative Commons, PO Box 1866, Mountain View, CA 94042, USA.
#
# CIF created using the CSD Python API on 29 September 2022
# The structure has been converted into the P1 space group
# The structure has a 3D framework
# The original CSD entry SAVKUZ is in the monoclinic crystal system
# The original CSD entry SAVKUZ is in a Sohncke space group
# The framework has been calculated to contain at least 10.0% void space
# The void calculation uses a probe of radius 1.32A, grid spacing 0.4
#
###############################################################################

data_SAVKUZ
_chemical_formula_moiety         '(C288 H192 Cl48 N94 Zn24)n'
_symmetry_cell_setting           triclinic
_symmetry_space_group_name_H-M   'P 1'
_symmetry_Int_Tables_number      1
_space_group_name_Hall           'P 1'
loop_
_symmetry_equiv_pos_site_id
_symmetry_equiv_pos_as_xyz
1 x,y,z
_cell_length_a                   32.3740(4)
_cell_length_b                   14.42050(10)
_cell_length_c                   30.9985(3)
_cell_angle_alpha                90
_cell_angle_beta                 99.6730(10)
_cell_angle_gamma                90
_cell_volume                     14265.9
loop_
_atom_site_label
_atom_site_type_symbol
_atom_site_fract_x
_atom_site_fract_y
_atom_site_fract_z
N2 N 0.5604(3) 0.0326(5) 0.3057(3)
N7 N 0.6144(3) 0.0573(5) 0.3998(3)
N8 N 0.8325(3) 0.0527(6) 0.6521(3)
C10 C 0.5858(4) 0.0235(8) 0.2763(4)
H8 H 0.607332 0.068283 0.276171
C19 C 0.6409(4) 0.1017(8) 0.4301(3)
H13 H 0.643582 0.167002 0.427501
C20 C 0.6636(3) 0.0596(6) 0.4635(3)
H14 H 0.681335 0.095565 0.484630
C24 C 0.8064(3) 0.0993(8) 0.6239(4)
H17 H 0.807266 0.165158 0.623870
C25 C 0.7764(3) 0.0511(6) 0.5929(4)
H18 H 0.758748 0.085806 0.571135
Zn2 Zn 0.87639(6) 0.12079(12) 0.69637(7)
Cl3 Cl 0.85486(15) 0.1110(5) 0.75975(17)
Cl4 Cl 0.89063(14) 0.2511(2) 0.66518(18)
Zn4 Zn 0.57646(6) 0.13324(9) 0.35207(5)
Cl7 Cl 0.61230(18) 0.2419(2) 0.32967(17)
Cl8 Cl 0.51916(19) 0.1605(5) 0.37898(12)
N25 N 0.9269(5) 0.0352(8) 0.7026(5)
C12 C 0.9868(5) 0.0131(11) 0.1738(4)
C13 C 0.9878(3) 0.0885(7) 0.2030(3)
C14 C 0.9604(3) 0.0952(7) 0.2306(3)
H11 H 0.960845 0.146501 0.249935
C15 C 0.9308(3) 0.0237(7) 0.2300(4)
H12 H 0.912272 0.025483 0.250718
C42 C 0.9537(9) 0.0318(14) 0.6735(8)
H29 H 0.948398 0.074153 0.649729
N21 N 0.7033(4) 0.5014(5) 0.0425(4)
N22 N 0.7192(2) 0.0276(4) 0.0308(2)
N23 N 0.7376(3) 0.1664(4) 0.0679(2)
N24 N 0.6843(3) 0.1656(4) 0.0060(2)
C62 C 0.7739(3) 0.0274(6) 0.0938(3)
C63 C 0.8001(3) 0.0754(6) 0.1245(3)
H43 H 0.797599 0.140781 0.127055
C64 C 0.8308(4) 0.0263(8) 0.1525(4)
H44 H 0.849006 0.060199 0.174018
C65 C 0.6815(4) 0.4573(7) 0.0118(4)
C66 C 0.6822(4) 0.3608(6) 0.0085(3)
C67 C 0.7064(3) 0.3118(6) 0.0403(4)
C68 C 0.7346(5) 0.3602(7) 0.0681(5)
H47 H 0.755842 0.329241 0.087735
C69 C 0.7323(5) 0.4556(8) 0.0676(7)
H48 H 0.753002 0.489437 0.086586
C70 C 0.6891(2) 0.0751(5) 0.0037(3)
C71 C 0.7421(3) 0.0776(5) 0.0623(3)
C72 C 0.7093(3) 0.2102(6) 0.0379(3)
Zn7 Zn 0.70320(8) 0.64511(11) 0.04262(10)
N1 N 0.6605(4) 0.6706(6) 0.0826(4)
N3 N 0.4276(2) 0.4554(5) 0.2025(2)
N4 N 0.5772(2) 0.7910(5) 0.1929(3)
N5 N 0.5209(2) 0.7335(5) 0.2275(2)
N6 N 0.5470(2) 0.6477(6) 0.1712(3)
N9 N 0.7047(4) 0.4836(6) 0.5361(3)
N10 N 0.7166(3) 0.9617(5) 0.5314(3)
N11 N 0.7368(2) 0.8156(5) 0.5667(3)
N12 N 0.6820(2) 0.8206(4) 0.5068(2)
N13 N 0.6577(6) 0.3159(10) 0.5767(5)
N14 N 0.4269(5) 0.5352(8) 0.7026(5)
N16 N 0.5426(3) 0.3419(6) 0.6686(3)
N17 N 0.5216(2) 0.2565(5) 0.7252(2)
N18 N 0.5760(3) 0.1975(6) 0.6904(2)
C1 C 0.6228(7) 0.6313(16) 0.0733(8)
H1 H 0.617381 0.594531 0.047500
C2 C 0.5892(9) 0.6396(16) 0.0988(9)
H2 H 0.562469 0.611009 0.092404
C3 C 0.6045(4) 0.7016(8) 0.1374(4)
C4 C 0.6391(5) 0.7483(13) 0.1413(5)
H3 H 0.644766 0.793382 0.163894
C5 C 0.6700(7) 0.7342(14) 0.1121(5)
H4 H 0.695165 0.769261 0.114740
C6 C 0.5331(3) 0.9722(7) 0.3071(3)
H5 H 0.514356 0.980229 0.327306
C7 C 0.5285(3) 0.8926(6) 0.2802(3)
H6 H 0.508014 0.847136 0.283602
C8 C 0.5532(3) 0.8815(6) 0.2499(3)
C9 C 0.5825(3) 0.9507(8) 0.2450(4)
H7 H 0.598974 0.948972 0.222397
C11 C 0.4550(4) 0.4422(8) 0.1759(4)
H9 H 0.453990 0.387779 0.158469
C12_2 C 0.4868(5) 0.5131(11) 0.1738(4)
H10 H 0.505884 0.508646 0.153736
C13_2 C 0.4878(3) 0.5885(7) 0.2030(3)
C14_2 C 0.4604(3) 0.5952(7) 0.2306(3)
H11_2 H 0.460845 0.646501 0.249935
C15_2 C 0.4308(3) 0.5237(7) 0.2300(4)
H12_2 H 0.412272 0.525483 0.250718
C16 C 0.5730(3) 0.7171(7) 0.1683(3)
C17 C 0.5507(3) 0.7971(5) 0.2208(3)
C18 C 0.5219(3) 0.6612(7) 0.1997(3)
C21 C 0.6623(3) 0.9651(6) 0.4687(3)
C22 C 0.6382(6) 0.9199(7) 0.4343(5)
H15 H 0.641048 0.854665 0.431525
C23 C 0.6097(6) 0.9672(9) 0.4035(6)
H16 H 0.587446 0.935304 0.385675
C26 C 0.7723(3) 0.9588(6) 0.5934(4)
C27 C 0.8022(6) 0.9088(9) 0.6228(5)
H19 H 0.802061 0.842900 0.623121
C28 C 0.8314(5) 0.9575(7) 0.6507(5)
H20 H 0.851919 0.923983 0.670064
C29 C 0.6724(5) 0.5374(7) 0.5072(3)
H21 H 0.650208 0.507299 0.488374
C30 C 0.6753(4) 0.6306(6) 0.5085(3)
H22 H 0.656076 0.666292 0.488696
C31 C 0.7052(3) 0.6755(5) 0.5374(3)
C32 C 0.7334(4) 0.6208(8) 0.5664(5)
H23 H 0.754875 0.649950 0.586444
C33 C 0.7301(6) 0.5272(8) 0.5659(5)
H24 H 0.747121 0.492478 0.588187
C34 C 0.6895(3) 0.9127(5) 0.5038(3)
C35 C 0.7387(3) 0.9102(6) 0.5633(3)
C36 C 0.7076(3) 0.7788(5) 0.5380(3)
C37 C 0.6675(5) 0.2644(7) 0.6124(4)
H25 H 0.694903 0.238887 0.618184
C38 C 0.6414(5) 0.2454(9) 0.6412(4)
H26 H 0.650098 0.205066 0.665264
C39 C 0.6002(4) 0.2872(8) 0.6349(3)
C40 C 0.5919(5) 0.3420(15) 0.5982(5)
H27 H 0.566435 0.376120 0.592893
C41 C 0.6189(10) 0.3490(19) 0.5693(5)
H28 H 0.609549 0.379301 0.542207
C42_2 C 0.4537(9) 0.5318(14) 0.6735(8)
H29_2 H 0.448398 0.574153 0.649729
C43 C 0.4836(5) 0.4814(9) 0.6742(5)
H30 H 0.504364 0.495903 0.657024
C44 C 0.4878(3) 0.4002(6) 0.7009(4)
C45 C 0.4623(4) 0.3952(7) 0.7300(4)
H31 H 0.464719 0.345960 0.750620
C46 C 0.4322(3) 0.4625(7) 0.7299(4)
H32 H 0.413921 0.457122 0.750673
C47 C 0.5330(3) 0.0176(6) 0.8043(3)
H33 H 0.514933 0.007060 0.825016
C48 C 0.5260(2) 0.0942(6) 0.7777(2)
H34 H 0.503377 0.135304 0.779400
C49 C 0.5534(2) 0.1091(5) 0.7482(2)
C50 C 0.5849(3) 0.0449(7) 0.7468(3)
H35 H 0.604602 0.053922 0.727587
C52 C 0.5714(4) 0.2771(7) 0.6668(3)
C53 C 0.5188(3) 0.3293(6) 0.6983(3)
C54 C 0.5506(2) 0.1918(6) 0.7200(3)
C55 C 0.6150(3) 0.0238(6) 0.9028(3)
H37 H 0.598006 0.057510 0.880144
C56 C 0.6363(3) 0.0745(6) 0.9365(3)
H38 H 0.632216 0.139336 0.939103
C57 C 0.6646(3) 0.0251(5) 0.9671(3)
H45 H 0.663620 0.491201 0.989877
H46 H 0.665937 0.330011 0.984379
Cl1 Cl 0.76397(15) 0.6939(3) 0.0745(2)
Zn3 Zn 0.37843(4) 0.36226(9) 0.19448(4)
Cl5 Cl 0.35590(11) 0.3547(3) 0.25758(12)
Cl6 Cl 0.39610(10) 0.23955(19) 0.15805(11)
Zn5 Zn 0.69845(10) 0.34247(10) 0.53541(7)
Cl9 Cl 0.7601(2) 0.2860(3) 0.5672(2)
Cl10 Cl 0.6675(4) 0.3095(3) 0.46907(18)
N26 N 0.3361(2) 0.4360(5) 0.1508(2)
Zn8 Zn 0.37639(6) 0.62079(12) 0.69637(7)
N21_2 N 0.2033(4) 0.0014(5) 0.0425(4)
Zn7_2 Zn 0.20320(8) 0.14511(11) 0.04262(10)
N1_2 N 0.1605(4) 0.1706(6) 0.0826(4)
N2_2 N 0.0604(3) 0.5326(5) 0.3057(3)
N4_2 N 0.0772(2) 0.2910(5) 0.1929(3)
N5_2 N 0.0209(2) 0.2335(5) 0.2275(2)
N6_2 N 0.0470(2) 0.1477(6) 0.1712(3)
N7_2 N 0.1144(3) 0.5573(5) 0.3998(3)
N8_2 N 0.3325(3) 0.5527(6) 0.6521(3)
N10_2 N 0.2166(3) 0.4617(5) 0.5314(3)
N11_2 N 0.2368(2) 0.3156(5) 0.5667(3)
N12_2 N 0.1820(2) 0.3206(4) 0.5068(2)
C1_2 C 0.1228(7) 0.1313(16) 0.0733(8)
H1_2 H 0.117381 0.094531 0.047500
C2_2 C 0.0892(9) 0.1396(16) 0.0988(9)
H2_2 H 0.062469 0.111009 0.092404
C3_2 C 0.1045(4) 0.2016(8) 0.1374(4)
C4_2 C 0.1391(5) 0.2483(13) 0.1413(5)
H3_2 H 0.144766 0.293382 0.163894
C5_2 C 0.1700(7) 0.2342(14) 0.1121(5)
H4_2 H 0.195165 0.269261 0.114740
C6_2 C 0.0331(3) 0.4722(7) 0.3071(3)
H5_2 H 0.014356 0.480229 0.327306
C7_2 C 0.0285(3) 0.3926(6) 0.2802(3)
H6_2 H 0.008014 0.347136 0.283602
C8_2 C 0.0532(3) 0.3815(6) 0.2499(3)
C9_2 C 0.0825(3) 0.4507(8) 0.2450(4)
H7_2 H 0.098974 0.448972 0.222397
C10_2 C 0.0858(4) 0.5235(8) 0.2763(4)
H8_2 H 0.107332 0.568283 0.276171
H10_2 H 0.005884 0.008646 0.153736
C16_2 C 0.0730(3) 0.2171(7) 0.1683(3)
C17_2 C 0.0507(3) 0.2971(5) 0.2208(3)
C18_2 C 0.0219(3) 0.1612(7) 0.1997(3)
C19_2 C 0.1409(4) 0.6017(8) 0.4301(3)
H13_2 H 0.143582 0.667002 0.427501
C20_2 C 0.1636(3) 0.5596(6) 0.4635(3)
H14_2 H 0.181335 0.595565 0.484630
C21_2 C 0.1623(3) 0.4651(6) 0.4687(3)
C22_2 C 0.1382(6) 0.4199(7) 0.4343(5)
H15_2 H 0.141048 0.354665 0.431525
C23_2 C 0.1097(6) 0.4672(9) 0.4035(6)
H16_2 H 0.087446 0.435304 0.385675
C24_2 C 0.3064(3) 0.5993(8) 0.6239(4)
H17_2 H 0.307266 0.665158 0.623870
C25_2 C 0.2764(3) 0.5511(6) 0.5929(4)
H18_2 H 0.258748 0.585806 0.571135
C26_2 C 0.2723(3) 0.4588(6) 0.5934(4)
C27_2 C 0.3022(6) 0.4088(9) 0.6228(5)
H19_2 H 0.302061 0.342900 0.623121
C28_2 C 0.3314(5) 0.4575(7) 0.6507(5)
H20_2 H 0.351919 0.423983 0.670064
C29_2 C 0.1724(5) 0.0374(7) 0.5072(3)
H21_2 H 0.150208 0.007299 0.488374
C30_2 C 0.1753(4) 0.1306(6) 0.5085(3)
H22_2 H 0.156076 0.166292 0.488696
C31_2 C 0.2052(3) 0.1755(5) 0.5374(3)
C32_2 C 0.2334(4) 0.1208(8) 0.5664(5)
H23_2 H 0.254875 0.149950 0.586444
C33_2 C 0.2301(6) 0.0272(8) 0.5659(5)
C34_2 C 0.1895(3) 0.4127(5) 0.5038(3)
C35_2 C 0.2387(3) 0.4102(6) 0.5633(3)
C36_2 C 0.2076(3) 0.2788(5) 0.5380(3)
Cl1_2 Cl 0.26397(15) 0.1939(3) 0.0745(2)
Cl3_2 Cl 0.35486(15) 0.6110(5) 0.75975(17)
Cl4_2 Cl 0.39063(14) 0.7511(2) 0.66518(18)
Zn4_2 Zn 0.07646(6) 0.63324(9) 0.35207(5)
Cl7_2 Cl 0.11230(18) 0.7419(2) 0.32967(17)
Cl8_2 Cl 0.01916(19) 0.6605(5) 0.37898(12)
N22_2 N 0.2192(2) 0.5276(4) 0.0308(2)
N23_2 N 0.2376(3) 0.6664(4) 0.0679(2)
N24_2 N 0.1843(3) 0.6656(4) 0.0060(2)
C60 C 0.3086(3) 0.3909(6) 0.1205(3)
H41 H 0.311134 0.325389 0.119274
C61 C 0.2781(3) 0.4301(6) 0.0919(3)
H42 H 0.259999 0.394049 0.071077
C62_2 C 0.2739(3) 0.5274(6) 0.0938(3)
C63_2 C 0.3001(3) 0.5754(6) 0.1245(3)
H43_2 H 0.297599 0.640781 0.127055
C64_2 C 0.3308(4) 0.5263(8) 0.1525(4)
H44_2 H 0.349006 0.560199 0.174018
C65_2 C 0.1815(4) 0.9573(7) 0.0118(4)
C66_2 C 0.1822(4) 0.8608(6) 0.0085(3)
C67_2 C 0.2064(3) 0.8118(6) 0.0403(4)
C68_2 C 0.2346(5) 0.8602(7) 0.0681(5)
H47_2 H 0.255842 0.829241 0.087735
C69_2 C 0.2323(5) 0.9556(8) 0.0676(7)
H48_2 H 0.253002 0.989437 0.086586
C70_2 C 0.1891(2) 0.5751(5) 0.0037(3)
C71_2 C 0.2421(3) 0.5776(5) 0.0623(3)
C72_2 C 0.2093(3) 0.7102(6) 0.0379(3)
Cl2 Cl 0.6754(2) 0.6855(3) 0.97713(19)
N20 N 0.8361(2) 0.9360(5) 0.1508(2)
C60_2 C 0.8086(3) 0.8909(6) 0.1205(3)
H41_2 H 0.811134 0.825389 0.119274
C61_2 C 0.7781(3) 0.9301(6) 0.0919(3)
H42_2 H 0.759999 0.894049 0.071077
Zn9 Zn 0.87843(4) 0.86226(9) 0.19448(4)
N3_2 N 0.9276(2) 0.9554(5) 0.2025(2)
C11_2 C 0.9550(4) 0.9422(8) 0.1759(4)
H9_2 H 0.953990 0.887779 0.158469
C43_2 C 0.9836(5) 0.9814(9) 0.6742(5)
C44_2 C 0.9878(3) 0.9002(6) 0.7009(4)
C45_2 C 0.9623(4) 0.8952(7) 0.7300(4)
H31_2 H 0.964719 0.845960 0.750620
C46_2 C 0.9322(3) 0.9625(7) 0.7299(4)
H32_2 H 0.913921 0.957122 0.750673
Cl5_2 Cl 0.85590(11) 0.8547(3) 0.25758(12)
Cl6_2 Cl 0.89610(10) 0.73955(19) 0.15805(11)
N15 N 0.5643(2) 0.9562(5) 0.8023(2)
N19 N 0.6157(2) 0.9303(5) 0.8982(2)
C51 C 0.5875(3) 0.9695(8) 0.7728(3)
H36 H 0.607648 0.923405 0.769237
C58 C 0.6683(3) 0.9303(6) 0.9635(3)
H39 H 0.687781 0.895859 0.983639
C59 C 0.6408(3) 0.8851(5) 0.9274(3)
H40 H 0.641576 0.819375 0.925420
Zn6 Zn 0.57901(4) 0.85502(8) 0.84969(3)
Cl11 Cl 0.62062(12) 0.7520(2) 0.82501(10)
Cl12 Cl 0.52185(11) 0.8169(3) 0.87404(8)
N2_3 N 0.4396(3) 0.0326(5) 0.6943(3)
N7_3 N 0.3856(3) 0.0573(5) 0.6002(3)
N8_3 N 0.1675(3) 0.0527(6) 0.3479(3)
C10_3 C 0.4142(4) 0.0235(8) 0.7237(4)
H8_3 H 0.392668 0.068283 0.723829
C19_3 C 0.3591(4) 0.1017(8) 0.5699(3)
H13_3 H 0.356418 0.167002 0.572499
C20_3 C 0.3364(3) 0.0596(6) 0.5365(3)
H14_3 H 0.318665 0.095565 0.515370
C24_3 C 0.1936(3) 0.0993(8) 0.3761(4)
H17_3 H 0.192734 0.165158 0.376130
C25_3 C 0.2236(3) 0.0511(6) 0.4071(4)
H18_3 H 0.241252 0.085806 0.428865
Zn2_2 Zn 0.12361(6) 0.12079(12) 0.30363(7)
Cl3_3 Cl 0.14514(15) 0.1110(5) 0.24025(17)
Cl4_3 Cl 0.10937(14) 0.2511(2) 0.33482(18)
Zn4_3 Zn 0.42354(6) 0.13324(9) 0.64793(5)
Cl7_3 Cl 0.38770(18) 0.2419(2) 0.67033(17)
Cl8_3 Cl 0.48084(19) 0.1605(5) 0.62102(12)
N25_2 N 0.0731(5) 0.0352(8) 0.2974(5)
C12_3 C 0.0132(5) 0.0131(11) 0.8262(4)
C13_3 C 0.0122(3) 0.0885(7) 0.7970(3)
C14_3 C 0.0396(3) 0.0952(7) 0.7694(3)
H11_3 H 0.039155 0.146501 0.750065
C15_3 C 0.0692(3) 0.0237(7) 0.7700(4)
H12_3 H 0.087728 0.025483 0.749282
C42_3 C 0.0463(9) 0.0318(14) 0.3265(8)
H29_3 H 0.051602 0.074153 0.350271
Cl2_2 Cl 0.3246(2) 0.6855(3) 0.02287(19)
N1_3 N 0.3395(4) 0.6706(6) 0.9174(4)
N3_3 N 0.5724(2) 0.4554(5) 0.7975(2)
N4_3 N 0.4228(2) 0.7910(5) 0.8071(3)
N5_3 N 0.4791(2) 0.7335(5) 0.7725(2)
N6_3 N 0.4530(2) 0.6477(6) 0.8288(3)
N9_2 N 0.2953(4) 0.4836(6) 0.4639(3)
N10_3 N 0.2834(3) 0.9617(5) 0.4686(3)
N11_3 N 0.2632(2) 0.8156(5) 0.4333(3)
N12_3 N 0.3180(2) 0.8206(4) 0.4932(2)
N13_2 N 0.3423(6) 0.3159(10) 0.4233(5)
N14_2 N 0.5731(5) 0.5352(8) 0.2974(5)
N16_2 N 0.4574(3) 0.3419(6) 0.3314(3)
N17_2 N 0.4784(2) 0.2565(5) 0.2748(2)
N18_2 N 0.4240(3) 0.1975(6) 0.3096(2)
C1_3 C 0.3772(7) 0.6313(16) 0.9267(8)
H1_3 H 0.382619 0.594531 0.952500
C2_3 C 0.4108(9) 0.6396(16) 0.9012(9)
H2_3 H 0.437531 0.611009 0.907596
C3_3 C 0.3955(4) 0.7016(8) 0.8626(4)
C4_3 C 0.3609(5) 0.7483(13) 0.8587(5)
H3_3 H 0.355234 0.793382 0.836106
C5_3 C 0.3300(7) 0.7342(14) 0.8879(5)
H4_3 H 0.304835 0.769261 0.885260
C6_3 C 0.4669(3) 0.9722(7) 0.6929(3)
H5_3 H 0.485644 0.980229 0.672694
C7_3 C 0.4715(3) 0.8926(6) 0.7198(3)
H6_3 H 0.491986 0.847136 0.716398
C8_3 C 0.4468(3) 0.8815(6) 0.7501(3)
C9_3 C 0.4175(3) 0.9507(8) 0.7550(4)
H7_3 H 0.401026 0.948972 0.777603
C11_3 C 0.5450(4) 0.4422(8) 0.8241(4)
H9_3 H 0.546010 0.387779 0.841531
C12_4 C 0.5132(5) 0.5131(11) 0.8262(4)
H10_3 H 0.494116 0.508646 0.846264
C13_4 C 0.5122(3) 0.5885(7) 0.7970(3)
C14_4 C 0.5396(3) 0.5952(7) 0.7694(3)
H11_4 H 0.539155 0.646501 0.750065
C15_4 C 0.5692(3) 0.5237(7) 0.7700(4)
H12_4 H 0.587728 0.525483 0.749282
C16_3 C 0.4270(3) 0.7171(7) 0.8317(3)
C17_3 C 0.4493(3) 0.7971(5) 0.7792(3)
C18_3 C 0.4781(3) 0.6612(7) 0.8003(3)
C21_3 C 0.3377(3) 0.9651(6) 0.5313(3)
C22_3 C 0.3618(6) 0.9199(7) 0.5657(5)
H15_3 H 0.358952 0.854665 0.568475
C23_3 C 0.3903(6) 0.9672(9) 0.5965(6)
H16_3 H 0.412554 0.935304 0.614325
C26_3 C 0.2277(3) 0.9588(6) 0.4066(4)
C27_3 C 0.1978(6) 0.9088(9) 0.3772(5)
H19_3 H 0.197939 0.842900 0.376879
C28_3 C 0.1686(5) 0.9575(7) 0.3493(5)
H20_3 H 0.148081 0.923983 0.329936
C29_3 C 0.3276(5) 0.5374(7) 0.4928(3)
H21_3 H 0.349792 0.507299 0.511626
C30_3 C 0.3247(4) 0.6306(6) 0.4915(3)
H22_3 H 0.343924 0.666292 0.511304
C31_3 C 0.2948(3) 0.6755(5) 0.4626(3)
C32_3 C 0.2666(4) 0.6208(8) 0.4336(5)
H23_3 H 0.245125 0.649950 0.413556
C33_3 C 0.2699(6) 0.5272(8) 0.4341(5)
H24_2 H 0.252879 0.492478 0.411813
C34_3 C 0.3105(3) 0.9127(5) 0.4962(3)
C35_3 C 0.2613(3) 0.9102(6) 0.4367(3)
C36_3 C 0.2924(3) 0.7788(5) 0.4620(3)
C37_2 C 0.3325(5) 0.2644(7) 0.3876(4)
H25_2 H 0.305097 0.238887 0.381816
C38_2 C 0.3586(5) 0.2454(9) 0.3588(4)
H26_2 H 0.349902 0.205066 0.334736
C39_2 C 0.3998(4) 0.2872(8) 0.3651(3)
C40_2 C 0.4081(5) 0.3420(15) 0.4018(5)
H27_2 H 0.433565 0.376120 0.407107
C41_2 C 0.3811(10) 0.3490(19) 0.4307(5)
H28_2 H 0.390451 0.379301 0.457793
C42_4 C 0.5463(9) 0.5318(14) 0.3265(8)
H29_4 H 0.551602 0.574153 0.350271
C43_3 C 0.5164(5) 0.4814(9) 0.3258(5)
H30_2 H 0.495636 0.495903 0.342976
C44_3 C 0.5122(3) 0.4002(6) 0.2991(4)
C45_3 C 0.5377(4) 0.3952(7) 0.2700(4)
H31_3 H 0.535281 0.345960 0.249380
C46_3 C 0.5678(3) 0.4625(7) 0.2701(4)
H32_3 H 0.586079 0.457122 0.249327
C47_2 C 0.4670(3) 0.0176(6) 0.1957(3)
H33_2 H 0.485067 0.007060 0.174984
C48_2 C 0.4740(2) 0.0942(6) 0.2223(2)
H34_2 H 0.496623 0.135304 0.220600
C49_2 C 0.4466(2) 0.1091(5) 0.2518(2)
C50_2 C 0.4151(3) 0.0449(7) 0.2532(3)
H35_2 H 0.395398 0.053922 0.272413
C52_2 C 0.4286(4) 0.2771(7) 0.3332(3)
C53_2 C 0.4812(3) 0.3293(6) 0.3017(3)
C54_2 C 0.4494(2) 0.1918(6) 0.2800(3)
C55_2 C 0.3850(3) 0.0238(6) 0.0972(3)
H37_2 H 0.401994 0.057510 0.119856
C56_2 C 0.3637(3) 0.0745(6) 0.0635(3)
H38_2 H 0.367784 0.139336 0.060897
C57_2 C 0.3354(3) 0.0251(5) 0.0329(3)
H45_2 H 0.336380 0.491201 0.010123
H46_2 H 0.334063 0.330011 0.015621
Zn1 Zn 0.29680(8) 0.64511(11) 0.95738(10)
Cl1_3 Cl 0.23603(15) 0.6939(3) 0.9255(2)
Zn3_2 Zn 0.62157(4) 0.36226(9) 0.80552(4)
Cl5_3 Cl 0.64410(11) 0.3547(3) 0.74242(12)
Cl6_3 Cl 0.60390(10) 0.23955(19) 0.84195(11)
Zn5_2 Zn 0.30155(10) 0.34247(10) 0.46459(7)
Cl9_2 Cl 0.2399(2) 0.2860(3) 0.4328(2)
Cl10_2 Cl 0.3325(4) 0.3095(3) 0.53093(18)
N26_2 N 0.6639(2) 0.4360(5) 0.8492(2)
N27 N 0.2967(4) 0.5014(5) 0.9575(4)
Zn8_2 Zn 0.62361(6) 0.62079(12) 0.30363(7)
N22_3 N 0.2808(2) 0.0276(4) 0.9692(2)
N23_3 N 0.2624(3) 0.1664(4) 0.9321(2)
N24_3 N 0.3157(3) 0.1656(4) 0.9940(2)
C62_3 C 0.2261(3) 0.0274(6) 0.9062(3)
C63_3 C 0.1999(3) 0.0754(6) 0.8755(3)
H43_3 H 0.202401 0.140781 0.872945
C64_3 C 0.1692(4) 0.0263(8) 0.8475(4)
H44_3 H 0.150994 0.060199 0.825982
C65_3 C 0.3185(4) 0.4573(7) 0.9882(4)
C66_3 C 0.3178(4) 0.3608(6) 0.9915(3)
C67_3 C 0.2936(3) 0.3118(6) 0.9597(4)
C68_3 C 0.2654(5) 0.3602(7) 0.9319(5)
H47_3 H 0.244158 0.329241 0.912265
C69_3 C 0.2677(5) 0.4556(8) 0.9324(7)
H48_3 H 0.246998 0.489437 0.913414
C70_3 C 0.3109(2) 0.0751(5) 0.9963(3)
C71_3 C 0.2579(3) 0.0776(5) 0.9377(3)
C72_3 C 0.2907(3) 0.2102(6) 0.9621(3)
N1_4 N 0.8395(4) 0.1706(6) 0.9174(4)
N2_4 N 0.9396(3) 0.5326(5) 0.6943(3)
N4_4 N 0.9228(2) 0.2910(5) 0.8071(3)
N5_4 N 0.9791(2) 0.2335(5) 0.7725(2)
N6_4 N 0.9530(2) 0.1477(6) 0.8288(3)
N7_4 N 0.8856(3) 0.5573(5) 0.6002(3)
N8_4 N 0.6675(3) 0.5527(6) 0.3479(3)
N10_4 N 0.7834(3) 0.4617(5) 0.4686(3)
N11_4 N 0.7632(2) 0.3156(5) 0.4333(3)
N12_4 N 0.8180(2) 0.3206(4) 0.4932(2)
C1_4 C 0.8772(7) 0.1313(16) 0.9267(8)
H1_4 H 0.882619 0.094531 0.952500
C2_4 C 0.9108(9) 0.1396(16) 0.9012(9)
H2_4 H 0.937531 0.111009 0.907596
C3_4 C 0.8955(4) 0.2016(8) 0.8626(4)
C4_4 C 0.8609(5) 0.2483(13) 0.8587(5)
H3_4 H 0.855234 0.293382 0.836106
C5_4 C 0.8300(7) 0.2342(14) 0.8879(5)
H4_4 H 0.804835 0.269261 0.885260
C6_4 C 0.9669(3) 0.4722(7) 0.6929(3)
H5_4 H 0.985644 0.480229 0.672694
C7_4 C 0.9715(3) 0.3926(6) 0.7198(3)
H6_4 H 0.991986 0.347136 0.716398
C8_4 C 0.9468(3) 0.3815(6) 0.7501(3)
C9_4 C 0.9175(3) 0.4507(8) 0.7550(4)
H7_4 H 0.901026 0.448972 0.777603
C10_4 C 0.9142(4) 0.5235(8) 0.7237(4)
H8_4 H 0.892668 0.568283 0.723829
H10_4 H 0.994116 0.008646 0.846264
C16_4 C 0.9270(3) 0.2171(7) 0.8317(3)
C17_4 C 0.9493(3) 0.2971(5) 0.7792(3)
C18_4 C 0.9781(3) 0.1612(7) 0.8003(3)
C19_4 C 0.8591(4) 0.6017(8) 0.5699(3)
H13_4 H 0.856418 0.667002 0.572499
C20_4 C 0.8364(3) 0.5596(6) 0.5365(3)
H14_4 H 0.818665 0.595565 0.515370
C21_4 C 0.8377(3) 0.4651(6) 0.5313(3)
C22_4 C 0.8618(6) 0.4199(7) 0.5657(5)
H15_4 H 0.858952 0.354665 0.568475
C23_4 C 0.8903(6) 0.4672(9) 0.5965(6)
H16_4 H 0.912554 0.435304 0.614325
C24_4 C 0.6936(3) 0.5993(8) 0.3761(4)
H17_4 H 0.692734 0.665158 0.376130
C25_4 C 0.7236(3) 0.5511(6) 0.4071(4)
H18_4 H 0.741252 0.585806 0.428865
C26_4 C 0.7277(3) 0.4588(6) 0.4066(4)
C27_4 C 0.6978(6) 0.4088(9) 0.3772(5)
H19_4 H 0.697939 0.342900 0.376879
C28_4 C 0.6686(5) 0.4575(7) 0.3493(5)
H20_4 H 0.648081 0.423983 0.329936
C29_4 C 0.8276(5) 0.0374(7) 0.4928(3)
H21_4 H 0.849792 0.007299 0.511626
C30_4 C 0.8247(4) 0.1306(6) 0.4915(3)
H22_4 H 0.843924 0.166292 0.511304
C31_4 C 0.7948(3) 0.1755(5) 0.4626(3)
C32_4 C 0.7666(4) 0.1208(8) 0.4336(5)
H23_4 H 0.745125 0.149950 0.413556
C33_4 C 0.7699(6) 0.0272(8) 0.4341(5)
C34_4 C 0.8105(3) 0.4127(5) 0.4962(3)
C35_4 C 0.7613(3) 0.4102(6) 0.4367(3)
C36_4 C 0.7924(3) 0.2788(5) 0.4620(3)
Zn1_2 Zn 0.79680(8) 0.14511(11) 0.95738(10)
Cl1_4 Cl 0.73603(15) 0.1939(3) 0.9255(2)
Cl3_4 Cl 0.64514(15) 0.6110(5) 0.24025(17)
Cl4_4 Cl 0.60937(14) 0.7511(2) 0.33482(18)
Zn4_4 Zn 0.92354(6) 0.63324(9) 0.64793(5)
Cl7_4 Cl 0.88770(18) 0.7419(2) 0.67033(17)
Cl8_4 Cl 0.98084(19) 0.6605(5) 0.62102(12)
N27_2 N 0.7967(4) 0.0014(5) 0.9575(4)
N22_4 N 0.7808(2) 0.5276(4) 0.9692(2)
N23_4 N 0.7624(3) 0.6664(4) 0.9321(2)
N24_4 N 0.8157(3) 0.6656(4) 0.9940(2)
C60_3 C 0.6914(3) 0.3909(6) 0.8795(3)
H41_3 H 0.688866 0.325389 0.880726
C61_3 C 0.7219(3) 0.4301(6) 0.9081(3)
H42_3 H 0.740001 0.394049 0.928923
C62_4 C 0.7261(3) 0.5274(6) 0.9062(3)
C63_4 C 0.6999(3) 0.5754(6) 0.8755(3)
H43_4 H 0.702401 0.640781 0.872945
C64_4 C 0.6692(4) 0.5263(8) 0.8475(4)
H44_4 H 0.650994 0.560199 0.825982
C65_4 C 0.8185(4) 0.9573(7) 0.9882(4)
C66_4 C 0.8178(4) 0.8608(6) 0.9915(3)
C67_4 C 0.7936(3) 0.8118(6) 0.9597(4)
C68_4 C 0.7654(5) 0.8602(7) 0.9319(5)
H47_4 H 0.744158 0.829241 0.912265
C69_4 C 0.7677(5) 0.9556(8) 0.9324(7)
H48_4 H 0.746998 0.989437 0.913414
C70_4 C 0.8109(2) 0.5751(5) 0.9963(3)
C71_4 C 0.7579(3) 0.5776(5) 0.9377(3)
C72_4 C 0.7907(3) 0.7102(6) 0.9621(3)
N15_2 N 0.4357(2) 0.9562(5) 0.1977(2)
N19_2 N 0.3843(2) 0.9303(5) 0.1018(2)
C51_2 C 0.4125(3) 0.9695(8) 0.2272(3)
H36_2 H 0.392352 0.923405 0.230763
C58_2 C 0.3317(3) 0.9303(6) 0.0365(3)
H39_2 H 0.312219 0.895859 0.016361
C59_2 C 0.3592(3) 0.8851(5) 0.0726(3)
H40_2 H 0.358424 0.819375 0.074580
Zn6_2 Zn 0.42099(4) 0.85502(8) 0.15031(3)
Cl11_2 Cl 0.37938(12) 0.7520(2) 0.17499(10)
Cl12_2 Cl 0.47815(11) 0.8169(3) 0.12596(8)
N20_2 N 0.1639(2) 0.9360(5) 0.8492(2)
C60_4 C 0.1914(3) 0.8909(6) 0.8795(3)
H41_4 H 0.188866 0.825389 0.880726
C61_4 C 0.2219(3) 0.9301(6) 0.9081(3)
H42_4 H 0.240001 0.894049 0.928923
Zn9_2 Zn 0.12157(4) 0.86226(9) 0.80552(4)
N3_4 N 0.0724(2) 0.9554(5) 0.7975(2)
C11_4 C 0.0450(4) 0.9422(8) 0.8241(4)
H9_4 H 0.046010 0.887779 0.841531
C43_4 C 0.0164(5) 0.9814(9) 0.3258(5)
C44_4 C 0.0122(3) 0.9002(6) 0.2991(4)
C45_4 C 0.0377(4) 0.8952(7) 0.2700(4)
H31_4 H 0.035281 0.845960 0.249380
C46_4 C 0.0678(3) 0.9625(7) 0.2701(4)
H32_4 H 0.086079 0.957122 0.249327
Cl5_4 Cl 0.14410(11) 0.8547(3) 0.74242(12)
Cl6_4 Cl 0.10390(10) 0.73955(19) 0.84195(11)
Cl2_3 Cl 0.1754(2) 0.1855(3) 0.97713(19)
N9_3 N 0.2047(4) 0.9836(6) 0.5361(3)
N13_3 N 0.1577(6) 0.8159(10) 0.5767(5)
N15_3 N 0.0643(2) 0.4562(5) 0.8023(2)
N16_3 N 0.0426(3) 0.8419(6) 0.6686(3)
N17_3 N 0.0216(2) 0.7565(5) 0.7252(2)
N18_3 N 0.0760(3) 0.6975(6) 0.6904(2)
N19_3 N 0.1157(2) 0.4303(5) 0.8982(2)
H24_3 H 0.247121 0.992478 0.588187
C37_3 C 0.1675(5) 0.7644(7) 0.6124(4)
H25_3 H 0.194903 0.738887 0.618184
C38_3 C 0.1414(5) 0.7454(9) 0.6412(4)
H26_3 H 0.150098 0.705066 0.665264
C39_3 C 0.1002(4) 0.7872(8) 0.6349(3)
C40_3 C 0.0919(5) 0.8420(15) 0.5982(5)
H27_3 H 0.066435 0.876120 0.592893
C41_3 C 0.1189(10) 0.8490(19) 0.5693(5)
H28_3 H 0.109549 0.879301 0.542207
H30_3 H 0.004364 0.995903 0.657024
C47_3 C 0.0330(3) 0.5176(6) 0.8043(3)
H33_3 H 0.014933 0.507060 0.825016
C48_3 C 0.0260(2) 0.5942(6) 0.7777(2)
H34_3 H 0.003377 0.635304 0.779400
C49_3 C 0.0534(2) 0.6091(5) 0.7482(2)
C50_3 C 0.0849(3) 0.5449(7) 0.7468(3)
H35_3 H 0.104602 0.553922 0.727587
C51_3 C 0.0875(3) 0.4695(8) 0.7728(3)
H36_3 H 0.107648 0.423405 0.769237
C52_3 C 0.0714(4) 0.7771(7) 0.6668(3)
C53_3 C 0.0188(3) 0.8293(6) 0.6983(3)
C54_3 C 0.0506(2) 0.6918(6) 0.7200(3)
C55_3 C 0.1150(3) 0.5238(6) 0.9028(3)
H37_3 H 0.098006 0.557510 0.880144
C56_3 C 0.1363(3) 0.5745(6) 0.9365(3)
H38_3 H 0.132216 0.639336 0.939103
C57_3 C 0.1646(3) 0.5251(5) 0.9671(3)
C58_3 C 0.1683(3) 0.4303(6) 0.9635(3)
H39_3 H 0.187781 0.395859 0.983639
C59_3 C 0.1408(3) 0.3851(5) 0.9274(3)
H40_3 H 0.141576 0.319375 0.925420
H45_3 H 0.163620 0.991201 0.989877
H46_3 H 0.165937 0.830011 0.984379
Zn5_3 Zn 0.19845(10) 0.84247(10) 0.53541(7)
Cl9_3 Cl 0.2601(2) 0.7860(3) 0.5672(2)
Cl10_3 Cl 0.1675(4) 0.8095(3) 0.46907(18)
Zn6_3 Zn 0.07901(4) 0.35502(8) 0.84969(3)
Cl11_3 Cl 0.12062(12) 0.2520(2) 0.82501(10)
Cl12_3 Cl 0.02185(11) 0.3169(3) 0.87404(8)
Cl2_4 Cl 0.8246(2) 0.1855(3) 0.02287(19)
N9_4 N 0.7953(4) 0.9836(6) 0.4639(3)
N13_4 N 0.8423(6) 0.8159(10) 0.4233(5)
N15_4 N 0.9357(2) 0.4562(5) 0.1977(2)
N16_4 N 0.9574(3) 0.8419(6) 0.3314(3)
N17_4 N 0.9784(2) 0.7565(5) 0.2748(2)
N18_4 N 0.9240(3) 0.6975(6) 0.3096(2)
N19_4 N 0.8843(2) 0.4303(5) 0.1018(2)
H24_4 H 0.752879 0.992478 0.411813
C37_4 C 0.8325(5) 0.7644(7) 0.3876(4)
H25_4 H 0.805097 0.738887 0.381816
C38_4 C 0.8586(5) 0.7454(9) 0.3588(4)
H26_4 H 0.849902 0.705066 0.334736
C39_4 C 0.8998(4) 0.7872(8) 0.3651(3)
C40_4 C 0.9081(5) 0.8420(15) 0.4018(5)
H27_4 H 0.933565 0.876120 0.407107
C41_4 C 0.8811(10) 0.8490(19) 0.4307(5)
H28_4 H 0.890451 0.879301 0.457793
H30_4 H 0.995636 0.995903 0.342976
C47_4 C 0.9670(3) 0.5176(6) 0.1957(3)
H33_4 H 0.985067 0.507060 0.174984
C48_4 C 0.9740(2) 0.5942(6) 0.2223(2)
H34_4 H 0.996623 0.635304 0.220600
C49_4 C 0.9466(2) 0.6091(5) 0.2518(2)
C50_4 C 0.9151(3) 0.5449(7) 0.2532(3)
H35_4 H 0.895398 0.553922 0.272413
C51_4 C 0.9125(3) 0.4695(8) 0.2272(3)
H36_4 H 0.892352 0.423405 0.230763
C52_4 C 0.9286(4) 0.7771(7) 0.3332(3)
C53_4 C 0.9812(3) 0.8293(6) 0.3017(3)
C54_4 C 0.9494(2) 0.6918(6) 0.2800(3)
C55_4 C 0.8850(3) 0.5238(6) 0.0972(3)
H37_4 H 0.901994 0.557510 0.119856
C56_4 C 0.8637(3) 0.5745(6) 0.0635(3)
H38_4 H 0.867784 0.639336 0.060897
C57_4 C 0.8354(3) 0.5251(5) 0.0329(3)
C58_4 C 0.8317(3) 0.4303(6) 0.0365(3)
H39_4 H 0.812219 0.395859 0.016361
C59_4 C 0.8592(3) 0.3851(5) 0.0726(3)
H40_4 H 0.858424 0.319375 0.074580
H45_4 H 0.836380 0.991201 0.010123
H46_4 H 0.834063 0.830011 0.015621
Zn5_4 Zn 0.80155(10) 0.84247(10) 0.46459(7)
Cl9_4 Cl 0.7399(2) 0.7860(3) 0.4328(2)
Cl10_4 Cl 0.8325(4) 0.8095(3) 0.53093(18)
Zn6_4 Zn 0.92099(4) 0.35502(8) 0.15031(3)
Cl11_4 Cl 0.87938(12) 0.2520(2) 0.17499(10)
Cl12_4 Cl 0.97815(11) 0.3169(3) 0.12596(8)
loop_
_geom_bond_atom_site_label_1
_geom_bond_atom_site_label_2
_geom_bond_site_symmetry_1
_geom_bond_site_symmetry_2
N7 C19 1_555 1_555
N8 C24 1_555 1_555
C10 N2 1_555 1_555
H8 C10 1_555 1_555
C19 H13 1_555 1_555
C20 C19 1_555 1_555
H14 C20 1_555 1_555
C24 H17 1_555 1_555
C25 C24 1_555 1_555
H18 C25 1_555 1_555
Zn2 N8 1_555 1_555
Cl3 Zn2 1_555 1_555
Cl4 Zn2 1_555 1_555
Zn4 N2 1_555 1_555
Cl7 Zn4 1_555 1_555
Cl8 Zn4 1_555 1_555
N25 Zn2 1_555 1_555
N7 Zn4 1_555 1_555
N25 C42 1_555 1_555
C13 C12 1_555 1_555
C14 C13 1_555 1_555
H11 C14 1_555 1_555
H12 C15 1_555 1_555
C42 H29 1_555 1_555
C14 C15 1_555 1_555
N21 C65 1_555 1_555
N22 C70 1_555 1_555
N23 C71 1_555 1_555
N24 C70 1_555 1_555
C63 C62 1_555 1_555
H43 C63 1_555 1_555
H44 C64 1_555 1_555
C66 C65 1_555 1_555
C67 C66 1_555 1_555
C68 C67 1_555 1_555
H47 C68 1_555 1_555
C69 N21 1_555 1_555
H48 C69 1_555 1_555
C71 N22 1_555 1_555
C72 N23 1_555 1_555
Zn7 N21 1_555 1_555
N24 C72 1_555 1_555
C62 C71 1_555 1_555
C63 C64 1_555 1_555
C67 C72 1_555 1_555
C68 C69 1_555 1_555
N1 C1 1_555 1_555
N3 C11 1_555 1_555
N4 C16 1_555 1_555
N5 C17 1_555 1_555
N6 C16 1_555 1_555
N9 C29 1_555 1_555
N10 C34 1_555 1_555
N11 C35 1_555 1_555
N12 C34 1_555 1_555
N13 C37 1_555 1_555
N14 C42_2 1_555 1_555
N16 C52 1_555 1_555
N17 C53 1_555 1_555
N18 C52 1_555 1_555
C1 H1 1_555 1_555
C2 C1 1_555 1_555
H2 C2 1_555 1_555
C3 C2 1_555 1_555
C4 C3 1_555 1_555
H3 C4 1_555 1_555
C5 N1 1_555 1_555
H4 C5 1_555 1_555
C6 H5 1_555 1_555
C7 C6 1_555 1_555
H6 C7 1_555 1_555
C8 C7 1_555 1_555
C9 C8 1_555 1_555
H7 C9 1_555 1_555
C11 H9 1_555 1_555
C12_2 C11 1_555 1_555
H10 C12_2 1_555 1_555
C13_2 C12_2 1_555 1_555
C14_2 C13_2 1_555 1_555
H11_2 C14_2 1_555 1_555
C15_2 N3 1_555 1_555
H12_2 C15_2 1_555 1_555
C16 C3 1_555 1_555
C17 N4 1_555 1_555
C18 N5 1_555 1_555
C22 C21 1_555 1_555
H15 C22 1_555 1_555
H16 C23 1_555 1_555
C27 C26 1_555 1_555
H19 C27 1_555 1_555
H20 C28 1_555 1_555
C29 H21 1_555 1_555
C30 C29 1_555 1_555
H22 C30 1_555 1_555
C31 C30 1_555 1_555
C32 C31 1_555 1_555
H23 C32 1_555 1_555
C33 N9 1_555 1_555
H24 C33 1_555 1_555
C34 C21 1_555 1_555
C35 N10 1_555 1_555
C36 N11 1_555 1_555
C37 H25 1_555 1_555
C38 C37 1_555 1_555
H26 C38 1_555 1_555
C39 C38 1_555 1_555
C40 C39 1_555 1_555
H27 C40 1_555 1_555
C41 N13 1_555 1_555
H28 C41 1_555 1_555
C42_2 H29_2 1_555 1_555
C43 C42_2 1_555 1_555
H30 C43 1_555 1_555
C44 C43 1_555 1_555
C45 C44 1_555 1_555
H31 C45 1_555 1_555
C46 N14 1_555 1_555
H32 C46 1_555 1_555
C47 H33 1_555 1_555
C48 C47 1_555 1_555
H34 C48 1_555 1_555
C49 C48 1_555 1_555
C50 C49 1_555 1_555
H35 C50 1_555 1_555
C52 C39 1_555 1_555
C53 N16 1_555 1_555
C54 N17 1_555 1_555
C55 H37 1_555 1_555
C56 C55 1_555 1_555
H38 C56 1_555 1_555
C57 C56 1_555 1_555
Zn7 N1 1_555 1_555
Cl1 Zn7 1_555 1_555
Zn3 N3 1_555 1_555
Cl5 Zn3 1_555 1_555
Cl6 Zn3 1_555 1_555
Zn5 N9 1_555 1_555
Cl9 Zn5 1_555 1_555
Cl10 Zn5 1_555 1_555
N26 Zn3 1_555 1_555
Zn8 N14 1_555 1_555
N6 C18 1_555 1_555
N12 C36 1_555 1_555
N13 Zn5 1_555 1_555
N18 C54 1_555 1_555
C4 C5 1_555 1_555
C8 C17 1_555 1_555
C13_2 C18 1_555 1_555
C14_2 C15_2 1_555 1_555
C22 C23 1_555 1_555
C26 C35 1_555 1_555
C27 C28 1_555 1_555
C31 C36 1_555 1_555
C32 C33 1_555 1_555
C40 C41 1_555 1_555
C44 C53 1_555 1_555
C45 C46 1_555 1_555
C49 C54 1_555 1_555
Zn7_2 N21_2 1_555 1_555
N1_2 C1_2 1_555 1_555
N2_2 C6_2 1_555 1_555
N4_2 C16_2 1_555 1_555
N5_2 C17_2 1_555 1_555
N6_2 C16_2 1_555 1_555
N7_2 C19_2 1_555 1_555
N8_2 C24_2 1_555 1_555
N10_2 C34_2 1_555 1_555
N11_2 C35_2 1_555 1_555
N12_2 C34_2 1_555 1_555
C1_2 H1_2 1_555 1_555
C2_2 C1_2 1_555 1_555
H2_2 C2_2 1_555 1_555
C3_2 C2_2 1_555 1_555
C4_2 C3_2 1_555 1_555
H3_2 C4_2 1_555 1_555
C5_2 N1_2 1_555 1_555
H4_2 C5_2 1_555 1_555
C6_2 H5_2 1_555 1_555
C7_2 C6_2 1_555 1_555
H6_2 C7_2 1_555 1_555
C8_2 C7_2 1_555 1_555
C9_2 C8_2 1_555 1_555
H7_2 C9_2 1_555 1_555
C10_2 N2_2 1_555 1_555
H8_2 C10_2 1_555 1_555
C16_2 C3_2 1_555 1_555
C17_2 N4_2 1_555 1_555
C18_2 N5_2 1_555 1_555
C19_2 H13_2 1_555 1_555
C20_2 C19_2 1_555 1_555
H14_2 C20_2 1_555 1_555
C21_2 C20_2 1_555 1_555
C22_2 C21_2 1_555 1_555
H15_2 C22_2 1_555 1_555
C23_2 N7_2 1_555 1_555
H16_2 C23_2 1_555 1_555
C24_2 H17_2 1_555 1_555
C25_2 C24_2 1_555 1_555
H18_2 C25_2 1_555 1_555
C26_2 C25_2 1_555 1_555
C27_2 C26_2 1_555 1_555
H19_2 C27_2 1_555 1_555
C28_2 N8_2 1_555 1_555
H20_2 C28_2 1_555 1_555
C29_2 H21_2 1_555 1_555
C30_2 C29_2 1_555 1_555
H22_2 C30_2 1_555 1_555
C31_2 C30_2 1_555 1_555
C32_2 C31_2 1_555 1_555
H23_2 C32_2 1_555 1_555
C34_2 C21_2 1_555 1_555
C35_2 N10_2 1_555 1_555
C36_2 N11_2 1_555 1_555
Zn7_2 N1_2 1_555 1_555
Cl1_2 Zn7_2 1_555 1_555
Zn8 N8_2 1_555 1_555
Cl3_2 Zn8 1_555 1_555
Cl4_2 Zn8 1_555 1_555
Zn4_2 N2_2 1_555 1_555
Cl7_2 Zn4_2 1_555 1_555
Cl8_2 Zn4_2 1_555 1_555
N6_2 C18_2 1_555 1_555
N7_2 Zn4_2 1_555 1_555
N12_2 C36_2 1_555 1_555
C4_2 C5_2 1_555 1_555
C8_2 C17_2 1_555 1_555
C9_2 C10_2 1_555 1_555
C22_2 C23_2 1_555 1_555
C26_2 C35_2 1_555 1_555
C27_2 C28_2 1_555 1_555
C31_2 C36_2 1_555 1_555
C32_2 C33_2 1_555 1_555
N26 C60 1_555 1_555
N22_2 C70_2 1_555 1_555
N23_2 C71_2 1_555 1_555
N24_2 C70_2 1_555 1_555
C60 H41 1_555 1_555
C61 C60 1_555 1_555
H42 C61 1_555 1_555
C62_2 C61 1_555 1_555
C63_2 C62_2 1_555 1_555
H43_2 C63_2 1_555 1_555
C64_2 N26 1_555 1_555
H44_2 C64_2 1_555 1_555
C66_2 C65_2 1_555 1_555
C67_2 C66_2 1_555 1_555
C68_2 C67_2 1_555 1_555
H47_2 C68_2 1_555 1_555
H48_2 C69_2 1_555 1_555
C71_2 N22_2 1_555 1_555
C72_2 N23_2 1_555 1_555
N24_2 C72_2 1_555 1_555
C62_2 C71_2 1_555 1_555
C63_2 C64_2 1_555 1_555
C67_2 C72_2 1_555 1_555
C68_2 C69_2 1_555 1_555
N20 C60_2 1_555 1_555
C60_2 H41_2 1_555 1_555
C61_2 C60_2 1_555 1_555
H42_2 C61_2 1_555 1_555
Zn9 N20 1_555 1_555
N3_2 C11_2 1_555 1_555
C11_2 H9_2 1_555 1_555
C44_2 C43_2 1_555 1_555
C45_2 C44_2 1_555 1_555
H31_2 C45_2 1_555 1_555
H32_2 C46_2 1_555 1_555
Zn9 N3_2 1_555 1_555
Cl5_2 Zn9 1_555 1_555
Cl6_2 Zn9 1_555 1_555
C45_2 C46_2 1_555 1_555
C51 N15 1_555 1_555
H36 C51 1_555 1_555
H39 C58 1_555 1_555
C59 N19 1_555 1_555
H40 C59 1_555 1_555
Zn6 N15 1_555 1_555
Cl11 Zn6 1_555 1_555
Cl12 Zn6 1_555 1_555
N19 Zn6 1_555 1_555
C58 C59 1_555 1_555
N7_3 C19_3 1_555 1_555
N8_3 C24_3 1_555 1_555
C10_3 N2_3 1_555 1_555
H8_3 C10_3 1_555 1_555
C19_3 H13_3 1_555 1_555
C20_3 C19_3 1_555 1_555
H14_3 C20_3 1_555 1_555
C24_3 H17_3 1_555 1_555
C25_3 C24_3 1_555 1_555
H18_3 C25_3 1_555 1_555
Zn2_2 N8_3 1_555 1_555
Cl3_3 Zn2_2 1_555 1_555
Cl4_3 Zn2_2 1_555 1_555
Zn4_3 N2_3 1_555 1_555
Cl7_3 Zn4_3 1_555 1_555
Cl8_3 Zn4_3 1_555 1_555
N25_2 Zn2_2 1_555 1_555
N7_3 Zn4_3 1_555 1_555
N25_2 C42_3 1_555 1_555
C13_3 C12_3 1_555 1_555
C14_3 C13_3 1_555 1_555
H11_3 C14_3 1_555 1_555
H12_3 C15_3 1_555 1_555
C42_3 H29_3 1_555 1_555
C14_3 C15_3 1_555 1_555
N1_3 C1_3 1_555 1_555
N3_3 C11_3 1_555 1_555
N4_3 C16_3 1_555 1_555
N5_3 C17_3 1_555 1_555
N6_3 C16_3 1_555 1_555
N9_2 C29_3 1_555 1_555
N10_3 C34_3 1_555 1_555
N11_3 C35_3 1_555 1_555
N12_3 C34_3 1_555 1_555
N13_2 C37_2 1_555 1_555
N14_2 C42_4 1_555 1_555
N16_2 C52_2 1_555 1_555
N17_2 C53_2 1_555 1_555
N18_2 C52_2 1_555 1_555
C1_3 H1_3 1_555 1_555
C2_3 C1_3 1_555 1_555
H2_3 C2_3 1_555 1_555
C3_3 C2_3 1_555 1_555
C4_3 C3_3 1_555 1_555
H3_3 C4_3 1_555 1_555
C5_3 N1_3 1_555 1_555
H4_3 C5_3 1_555 1_555
C6_3 H5_3 1_555 1_555
C7_3 C6_3 1_555 1_555
H6_3 C7_3 1_555 1_555
C8_3 C7_3 1_555 1_555
C9_3 C8_3 1_555 1_555
H7_3 C9_3 1_555 1_555
C11_3 H9_3 1_555 1_555
C12_4 C11_3 1_555 1_555
H10_3 C12_4 1_555 1_555
C13_4 C12_4 1_555 1_555
C14_4 C13_4 1_555 1_555
H11_4 C14_4 1_555 1_555
C15_4 N3_3 1_555 1_555
H12_4 C15_4 1_555 1_555
C16_3 C3_3 1_555 1_555
C17_3 N4_3 1_555 1_555
C18_3 N5_3 1_555 1_555
C22_3 C21_3 1_555 1_555
H15_3 C22_3 1_555 1_555
H16_3 C23_3 1_555 1_555
C27_3 C26_3 1_555 1_555
H19_3 C27_3 1_555 1_555
H20_3 C28_3 1_555 1_555
C29_3 H21_3 1_555 1_555
C30_3 C29_3 1_555 1_555
H22_3 C30_3 1_555 1_555
C31_3 C30_3 1_555 1_555
C32_3 C31_3 1_555 1_555
H23_3 C32_3 1_555 1_555
C33_3 N9_2 1_555 1_555
H24_2 C33_3 1_555 1_555
C34_3 C21_3 1_555 1_555
C35_3 N10_3 1_555 1_555
C36_3 N11_3 1_555 1_555
C37_2 H25_2 1_555 1_555
C38_2 C37_2 1_555 1_555
H26_2 C38_2 1_555 1_555
C39_2 C38_2 1_555 1_555
C40_2 C39_2 1_555 1_555
H27_2 C40_2 1_555 1_555
C41_2 N13_2 1_555 1_555
H28_2 C41_2 1_555 1_555
C42_4 H29_4 1_555 1_555
C43_3 C42_4 1_555 1_555
H30_2 C43_3 1_555 1_555
C44_3 C43_3 1_555 1_555
C45_3 C44_3 1_555 1_555
H31_3 C45_3 1_555 1_555
C46_3 N14_2 1_555 1_555
H32_3 C46_3 1_555 1_555
C47_2 H33_2 1_555 1_555
C48_2 C47_2 1_555 1_555
H34_2 C48_2 1_555 1_555
C49_2 C48_2 1_555 1_555
C50_2 C49_2 1_555 1_555
H35_2 C50_2 1_555 1_555
C52_2 C39_2 1_555 1_555
C53_2 N16_2 1_555 1_555
C54_2 N17_2 1_555 1_555
C55_2 H37_2 1_555 1_555
C56_2 C55_2 1_555 1_555
H38_2 C56_2 1_555 1_555
C57_2 C56_2 1_555 1_555
Zn1 N1_3 1_555 1_555
Cl1_3 Zn1 1_555 1_555
Zn3_2 N3_3 1_555 1_555
Cl5_3 Zn3_2 1_555 1_555
Cl6_3 Zn3_2 1_555 1_555
Zn5_2 N9_2 1_555 1_555
Cl9_2 Zn5_2 1_555 1_555
Cl10_2 Zn5_2 1_555 1_555
N26_2 Zn3_2 1_555 1_555
N27 Zn1 1_555 1_555
Zn8_2 N14_2 1_555 1_555
N6_3 C18_3 1_555 1_555
N12_3 C36_3 1_555 1_555
N13_2 Zn5_2 1_555 1_555
N18_2 C54_2 1_555 1_555
C4_3 C5_3 1_555 1_555
C8_3 C17_3 1_555 1_555
C13_4 C18_3 1_555 1_555
C14_4 C15_4 1_555 1_555
C22_3 C23_3 1_555 1_555
C26_3 C35_3 1_555 1_555
C27_3 C28_3 1_555 1_555
C31_3 C36_3 1_555 1_555
C32_3 C33_3 1_555 1_555
C40_2 C41_2 1_555 1_555
C44_3 C53_2 1_555 1_555
C45_3 C46_3 1_555 1_555
C49_2 C54_2 1_555 1_555
N27 C65_3 1_555 1_555
N22_3 C70_3 1_555 1_555
N23_3 C71_3 1_555 1_555
N24_3 C70_3 1_555 1_555
C63_3 C62_3 1_555 1_555
H43_3 C63_3 1_555 1_555
H44_3 C64_3 1_555 1_555
C66_3 C65_3 1_555 1_555
C67_3 C66_3 1_555 1_555
C68_3 C67_3 1_555 1_555
H47_3 C68_3 1_555 1_555
C69_3 N27 1_555 1_555
H48_3 C69_3 1_555 1_555
C71_3 N22_3 1_555 1_555
C72_3 N23_3 1_555 1_555
N24_3 C72_3 1_555 1_555
C62_3 C71_3 1_555 1_555
C63_3 C64_3 1_555 1_555
C67_3 C72_3 1_555 1_555
C68_3 C69_3 1_555 1_555
N1_4 C1_4 1_555 1_555
N2_4 C6_4 1_555 1_555
N4_4 C16_4 1_555 1_555
N5_4 C17_4 1_555 1_555
N6_4 C16_4 1_555 1_555
N7_4 C19_4 1_555 1_555
N8_4 C24_4 1_555 1_555
N10_4 C34_4 1_555 1_555
N11_4 C35_4 1_555 1_555
N12_4 C34_4 1_555 1_555
C1_4 H1_4 1_555 1_555
C2_4 C1_4 1_555 1_555
H2_4 C2_4 1_555 1_555
C3_4 C2_4 1_555 1_555
C4_4 C3_4 1_555 1_555
H3_4 C4_4 1_555 1_555
C5_4 N1_4 1_555 1_555
H4_4 C5_4 1_555 1_555
C6_4 H5_4 1_555 1_555
C7_4 C6_4 1_555 1_555
H6_4 C7_4 1_555 1_555
C8_4 C7_4 1_555 1_555
C9_4 C8_4 1_555 1_555
H7_4 C9_4 1_555 1_555
C10_4 N2_4 1_555 1_555
H8_4 C10_4 1_555 1_555
C16_4 C3_4 1_555 1_555
C17_4 N4_4 1_555 1_555
C18_4 N5_4 1_555 1_555
C19_4 H13_4 1_555 1_555
C20_4 C19_4 1_555 1_555
H14_4 C20_4 1_555 1_555
C21_4 C20_4 1_555 1_555
C22_4 C21_4 1_555 1_555
H15_4 C22_4 1_555 1_555
C23_4 N7_4 1_555 1_555
H16_4 C23_4 1_555 1_555
C24_4 H17_4 1_555 1_555
C25_4 C24_4 1_555 1_555
H18_4 C25_4 1_555 1_555
C26_4 C25_4 1_555 1_555
C27_4 C26_4 1_555 1_555
H19_4 C27_4 1_555 1_555
C28_4 N8_4 1_555 1_555
H20_4 C28_4 1_555 1_555
C29_4 H21_4 1_555 1_555
C30_4 C29_4 1_555 1_555
H22_4 C30_4 1_555 1_555
C31_4 C30_4 1_555 1_555
C32_4 C31_4 1_555 1_555
H23_4 C32_4 1_555 1_555
C34_4 C21_4 1_555 1_555
C35_4 N10_4 1_555 1_555
C36_4 N11_4 1_555 1_555
Zn1_2 N1_4 1_555 1_555
Cl1_4 Zn1_2 1_555 1_555
Zn8_2 N8_4 1_555 1_555
Cl3_4 Zn8_2 1_555 1_555
Cl4_4 Zn8_2 1_555 1_555
Zn4_4 N2_4 1_555 1_555
Cl7_4 Zn4_4 1_555 1_555
Cl8_4 Zn4_4 1_555 1_555
N27_2 Zn1_2 1_555 1_555
N6_4 C18_4 1_555 1_555
N7_4 Zn4_4 1_555 1_555
N12_4 C36_4 1_555 1_555
C4_4 C5_4 1_555 1_555
C8_4 C17_4 1_555 1_555
C9_4 C10_4 1_555 1_555
C22_4 C23_4 1_555 1_555
C26_4 C35_4 1_555 1_555
C27_4 C28_4 1_555 1_555
C31_4 C36_4 1_555 1_555
C32_4 C33_4 1_555 1_555
N26_2 C60_3 1_555 1_555
N22_4 C70_4 1_555 1_555
N23_4 C71_4 1_555 1_555
N24_4 C70_4 1_555 1_555
C60_3 H41_3 1_555 1_555
C61_3 C60_3 1_555 1_555
H42_3 C61_3 1_555 1_555
C62_4 C61_3 1_555 1_555
C63_4 C62_4 1_555 1_555
H43_4 C63_4 1_555 1_555
C64_4 N26_2 1_555 1_555
H44_4 C64_4 1_555 1_555
C66_4 C65_4 1_555 1_555
C67_4 C66_4 1_555 1_555
C68_4 C67_4 1_555 1_555
H47_4 C68_4 1_555 1_555
H48_4 C69_4 1_555 1_555
C71_4 N22_4 1_555 1_555
C72_4 N23_4 1_555 1_555
N24_4 C72_4 1_555 1_555
C62_4 C71_4 1_555 1_555
C63_4 C64_4 1_555 1_555
C67_4 C72_4 1_555 1_555
C68_4 C69_4 1_555 1_555
C51_2 N15_2 1_555 1_555
H36_2 C51_2 1_555 1_555
H39_2 C58_2 1_555 1_555
C59_2 N19_2 1_555 1_555
H40_2 C59_2 1_555 1_555
Zn6_2 N15_2 1_555 1_555
Cl11_2 Zn6_2 1_555 1_555
Cl12_2 Zn6_2 1_555 1_555
N19_2 Zn6_2 1_555 1_555
C58_2 C59_2 1_555 1_555
N20_2 C60_4 1_555 1_555
C60_4 H41_4 1_555 1_555
C61_4 C60_4 1_555 1_555
H42_4 C61_4 1_555 1_555
Zn9_2 N20_2 1_555 1_555
N3_4 C11_4 1_555 1_555
C11_4 H9_4 1_555 1_555
C44_4 C43_4 1_555 1_555
C45_4 C44_4 1_555 1_555
H31_4 C45_4 1_555 1_555
H32_4 C46_4 1_555 1_555
Zn9_2 N3_4 1_555 1_555
Cl5_4 Zn9_2 1_555 1_555
Cl6_4 Zn9_2 1_555 1_555
C45_4 C46_4 1_555 1_555
N13_3 C37_3 1_555 1_555
N15_3 C47_3 1_555 1_555
N16_3 C52_3 1_555 1_555
N17_3 C53_3 1_555 1_555
N18_3 C52_3 1_555 1_555
N19_3 C55_3 1_555 1_555
C37_3 H25_3 1_555 1_555
C38_3 C37_3 1_555 1_555
H26_3 C38_3 1_555 1_555
C39_3 C38_3 1_555 1_555
C40_3 C39_3 1_555 1_555
H27_3 C40_3 1_555 1_555
C41_3 N13_3 1_555 1_555
H28_3 C41_3 1_555 1_555
C47_3 H33_3 1_555 1_555
C48_3 C47_3 1_555 1_555
H34_3 C48_3 1_555 1_555
C49_3 C48_3 1_555 1_555
C50_3 C49_3 1_555 1_555
H35_3 C50_3 1_555 1_555
C51_3 N15_3 1_555 1_555
H36_3 C51_3 1_555 1_555
C52_3 C39_3 1_555 1_555
C53_3 N16_3 1_555 1_555
C54_3 N17_3 1_555 1_555
C55_3 H37_3 1_555 1_555
C56_3 C55_3 1_555 1_555
H38_3 C56_3 1_555 1_555
C57_3 C56_3 1_555 1_555
C58_3 C57_3 1_555 1_555
H39_3 C58_3 1_555 1_555
C59_3 N19_3 1_555 1_555
H40_3 C59_3 1_555 1_555
Zn5_3 N9_3 1_555 1_555
Cl9_3 Zn5_3 1_555 1_555
Cl10_3 Zn5_3 1_555 1_555
Zn6_3 N15_3 1_555 1_555
Cl11_3 Zn6_3 1_555 1_555
Cl12_3 Zn6_3 1_555 1_555
N13_3 Zn5_3 1_555 1_555
N18_3 C54_3 1_555 1_555
N19_3 Zn6_3 1_555 1_555
C40_3 C41_3 1_555 1_555
C49_3 C54_3 1_555 1_555
C50_3 C51_3 1_555 1_555
C58_3 C59_3 1_555 1_555
N13_4 C37_4 1_555 1_555
N15_4 C47_4 1_555 1_555
N16_4 C52_4 1_555 1_555
N17_4 C53_4 1_555 1_555
N18_4 C52_4 1_555 1_555
N19_4 C55_4 1_555 1_555
C37_4 H25_4 1_555 1_555
C38_4 C37_4 1_555 1_555
H26_4 C38_4 1_555 1_555
C39_4 C38_4 1_555 1_555
C40_4 C39_4 1_555 1_555
H27_4 C40_4 1_555 1_555
C41_4 N13_4 1_555 1_555
H28_4 C41_4 1_555 1_555
C47_4 H33_4 1_555 1_555
C48_4 C47_4 1_555 1_555
H34_4 C48_4 1_555 1_555
C49_4 C48_4 1_555 1_555
C50_4 C49_4 1_555 1_555
H35_4 C50_4 1_555 1_555
C51_4 N15_4 1_555 1_555
H36_4 C51_4 1_555 1_555
C52_4 C39_4 1_555 1_555
C53_4 N16_4 1_555 1_555
C54_4 N17_4 1_555 1_555
C55_4 H37_4 1_555 1_555
C56_4 C55_4 1_555 1_555
H38_4 C56_4 1_555 1_555
C57_4 C56_4 1_555 1_555
C58_4 C57_4 1_555 1_555
H39_4 C58_4 1_555 1_555
C59_4 N19_4 1_555 1_555
H40_4 C59_4 1_555 1_555
Zn5_4 N9_4 1_555 1_555
Cl9_4 Zn5_4 1_555 1_555
Cl10_4 Zn5_4 1_555 1_555
Zn6_4 N15_4 1_555 1_555
Cl11_4 Zn6_4 1_555 1_555
Cl12_4 Zn6_4 1_555 1_555
N13_4 Zn5_4 1_555 1_555
N18_4 C54_4 1_555 1_555
N19_4 Zn6_4 1_555 1_555
C40_4 C41_4 1_555 1_555
C49_4 C54_4 1_555 1_555
C50_4 C51_4 1_555 1_555
C58_4 C59_4 1_555 1_555

#END
