
###############################################################################
#
# This file contains modified crystal structure data generated from the
# MOF subset of the Cambridge Structural Database (CSD) v543 
# hosted by the Cambridge Crystallographic Data Centre (CCDC).
#
# This work is licensed under the Creative Commons
# Attribution-NonCommercial-ShareAlike 4.0 International License.
# To view a copy of this license, visit
# http://creativecommons.org/licenses/by-nc-sa/4.0/
# or send a letter to
# Creative Commons, PO Box 1866, Mountain View, CA 94042, USA.
#
# CIF created using the CSD Python API on 29 September 2022
# The structure has been converted into the P1 space group
# The structure has a 3D framework
# The original CSD entry SAVKEJ is in the monoclinic crystal system
# The original CSD entry SAVKEJ is in a Sohncke space group
# The framework has been calculated to contain at least 10.0% void space
# The void calculation uses a probe of radius 1.32A, grid spacing 0.4
#
###############################################################################

data_SAVKEJ
_chemical_formula_moiety         '(C288 H192 Cl48 N96 Zn24)n'
_symmetry_cell_setting           triclinic
_symmetry_space_group_name_H-M   'P 1'
_symmetry_Int_Tables_number      1
_space_group_name_Hall           'P 1'
loop_
_symmetry_equiv_pos_site_id
_symmetry_equiv_pos_as_xyz
1 x,y,z
_cell_length_a                   32.1475(3)
_cell_length_b                   14.40660(10)
_cell_length_c                   31.2342(2)
_cell_angle_alpha                90
_cell_angle_beta                 99.3160(10)
_cell_angle_gamma                90
_cell_volume                     14274.9
loop_
_atom_site_label
_atom_site_type_symbol
_atom_site_fract_x
_atom_site_fract_y
_atom_site_fract_z
N2 N 0.43903(15) 0.1450(3) 0.19463(14)
C6 C 0.47044(17) 0.0839(4) 0.19349(17)
H5 H 0.490060 0.092835 0.174159
C7 C 0.47373(16) 0.0085(4) 0.22070(16)
C9 C 0.4141(2) 0.0576(5) 0.2515(2)
H7 H 0.394425 0.051577 0.270951
C10 C 0.4132(2) 0.1311(5) 0.2215(2)
H8 H 0.391171 0.175187 0.221133
Zn7 Zn 0.42715(3) 0.24526(5) 0.14646(3)
Cl3 Cl 0.39047(8) 0.35857(12) 0.16786(7)
Cl4 Cl 0.48665(8) 0.2685(2) 0.12143(6)
N21 N 0.38721(16) 0.1710(3) 0.10041(15)
C65 C 0.3891(3) 0.0806(5) 0.0963(2)
H45 H 0.408555 0.048117 0.117137
C66 C 0.3645(2) 0.0272(4) 0.0635(2)
C67 C 0.33839(18) 0.0788(4) 0.03260(19)
C68 C 0.33530(18) 0.1723(4) 0.03650(15)
H47 H 0.315982 0.207280 0.016556
C69 C 0.36136(18) 0.2151(3) 0.07070(19)
H48 H 0.360307 0.280824 0.072571
Zn1 Zn 0.92715(3) 0.74526(5) 0.14646(3)
Cl3_2 Cl 0.89047(8) 0.85857(12) 0.16786(7)
Cl4_2 Cl 0.98665(8) 0.7685(2) 0.12143(6)
N21_2 N 0.88721(16) 0.6710(3) 0.10041(15)
H43 H 0.844789 0.276705 0.010894
H44 H 0.841136 0.117813 0.011523
C65_2 C 0.8891(3) 0.5806(5) 0.0963(2)
H45_2 H 0.908555 0.548117 0.117137
C66_2 C 0.8645(2) 0.5272(4) 0.0635(2)
H46 H 0.865745 0.461384 0.062726
C67_2 C 0.83839(18) 0.5788(4) 0.03260(19)
C68_2 C 0.83530(18) 0.6723(4) 0.03650(15)
H47_2 H 0.815982 0.707280 0.016556
C69_2 C 0.86136(18) 0.7151(3) 0.07070(19)
H48_2 H 0.860307 0.780824 0.072571
Cl10 Cl 0.32804(14) 0.41944(16) 0.02490(10)
N25 N 0.93903(15) 0.6450(3) 0.19463(14)
Zn2 Zn 0.62232(3) 0.47699(6) 0.30793(3)
Zn4 Zn 0.62443(3) 0.73767(6) 0.80527(3)
Cl1 Cl 0.60688(8) 0.86411(12) 0.83866(9)
Cl6 Cl 0.60445(7) 0.35182(12) 0.34186(7)
Cl7 Cl 0.64553(7) 0.4759(2) 0.24583(8)
Cl8 Cl 0.64822(8) 0.7323(2) 0.74260(8)
N1 N 0.57202(18) 0.5698(4) 0.30081(19)
N3 N 0.3407(2) 0.7909(4) 0.4202(2)
N4 N 0.47781(13) 0.8483(3) 0.27367(12)
N5 N 0.42106(14) 0.9047(3) 0.30481(15)
N6 N 0.45378(15) 0.7647(4) 0.33074(15)
N7 N 0.29798(18) 0.6152(3) 0.4608(2)
N8 N 0.39029(16) 0.0463(3) 0.59780(16)
N9 N 0.16488(16) 0.0500(3) 0.35129(18)
N10 N 0.31955(14) 0.2799(3) 0.49285(15)
N11 N 0.28262(13) 0.1396(3) 0.47038(14)
N12 N 0.26314(14) 0.2817(3) 0.43219(15)
N13 N 0.44000(16) 0.0705(3) 0.69260(16)
N14 N 0.57421(17) 0.6484(4) 0.79863(19)
N15 N 0.3395(2) 0.4255(6) 0.9180(2)
N16 N 0.47960(13) 0.3688(3) 0.77234(14)
N17 N 0.45533(16) 0.4526(4) 0.82804(16)
N18 N 0.42246(15) 0.3086(4) 0.80441(16)
N19 N 0.66678(16) 0.6683(3) 0.85103(16)
N20 N 0.7969(2) 0.0988(4) 0.95920(18)
N22 N 0.76295(14) 0.4341(3) 0.93533(14)
N23 N 0.81870(14) 0.4370(3) 0.99307(16)
N24 N 0.78228(13) 0.5749(3) 0.97079(14)
C1 C 0.56799(19) 0.6353(4) 0.2701(2)
H1 H 0.586480 0.635119 0.249264
C2 C 0.53782(16) 0.7022(4) 0.2682(2)
H2 H 0.534419 0.747625 0.245837
C3 C 0.51274(18) 0.7020(4) 0.2993(2)
C4 C 0.5161(2) 0.6328(5) 0.3309(2)
H3 H 0.497909 0.632238 0.352032
C5 C 0.5457(3) 0.5672(7) 0.3308(3)
H4 H 0.548240 0.518794 0.351703
H6 H 0.495509 0.964515 0.219412
C8 C 0.44655(15) 0.9947(4) 0.24963(16)
C11 C 0.3781(3) 0.7556(10) 0.4290(3)
H9 H 0.385591 0.721691 0.455237
C12 C 0.4079(3) 0.7657(8) 0.4013(3)
H10 H 0.435071 0.738471 0.407624
C13 C 0.3949(2) 0.8202(5) 0.36209(19)
C14 C 0.3547(2) 0.8546(6) 0.3541(3)
H11 H 0.345641 0.889754 0.328582
C15 C 0.3273(2) 0.8388(5) 0.3827(2)
H12 H 0.299122 0.861048 0.376563
C16 C 0.47870(17) 0.7767(4) 0.30159(18)
C17 C 0.44922(16) 0.9103(4) 0.27671(16)
C18 C 0.42496(18) 0.8308(4) 0.33173(19)
C19 C 0.3229(3) 0.5735(5) 0.4886(3)
H13 H 0.342941 0.607108 0.508351
C20 C 0.3215(2) 0.4716(4) 0.49079(18)
H14 H 0.338776 0.439553 0.513635
C21 C 0.29583(17) 0.4244(3) 0.46055(17)
C22 C 0.26712(19) 0.4770(3) 0.4305(2)
H15 H 0.246113 0.448059 0.409981
C23 C 0.2713(2) 0.5721(3) 0.4328(2)
H16 H 0.253213 0.608178 0.412201
C24 C 0.3916(2) 0.1384(4) 0.5948(2)
H17 H 0.409368 0.172901 0.616424
C25 C 0.3680(2) 0.1838(4) 0.5612(2)
H18 H 0.371706 0.248825 0.558358
C26 C 0.33898(16) 0.1388(3) 0.53130(17)
C27 C 0.3377(2) 0.0422(3) 0.5357(2)
H19 H 0.319411 0.006584 0.515033
C29 C 0.1687(2) 0.1416(4) 0.3511(2)
H21 H 0.149552 0.176437 0.330896
C30 C 0.1989(2) 0.1879(4) 0.3784(2)
H22 H 0.200948 0.253521 0.376417
C31 C 0.22630(18) 0.1404(3) 0.40898(18)
C32 C 0.22303(17) 0.0442(3) 0.40858(19)
H23 H 0.242700 0.008460 0.427781
C33 C 0.19202(19) 0.0007(4) 0.3810(2)
C34 C 0.29228(16) 0.3212(3) 0.46196(17)
C35 C 0.31323(17) 0.1887(3) 0.49589(17)
C36 C 0.25921(18) 0.1893(3) 0.43918(17)
C37 C 0.47154(18) 0.1335(4) 0.69321(16)
H25 H 0.491336 0.124620 0.674053
C38 C 0.47625(16) 0.2100(4) 0.72042(16)
H26 H 0.499032 0.252040 0.720472
C39 C 0.44653(16) 0.2234(4) 0.74767(17)
C40 C 0.41609(18) 0.1560(4) 0.7488(2)
H27 H 0.397074 0.160922 0.769023
C41 C 0.4133(2) 0.0805(5) 0.7202(3)
H28 H 0.391675 0.035637 0.720647
C42 C 0.56801(19) 0.5822(4) 0.7676(2)
H29 H 0.584370 0.582564 0.744897
C43 C 0.5374(2) 0.5123(4) 0.7688(2)
H30 H 0.534476 0.464984 0.747343
C44 C 0.51274(18) 0.5105(4) 0.79852(18)
C45 C 0.5189(3) 0.5823(7) 0.8289(3)
H31 H 0.501419 0.585913 0.850664
C46 C 0.5501(3) 0.6487(6) 0.8278(3)
H32 H 0.553816 0.695842 0.849312
C47 C 0.3807(4) 0.4513(7) 0.9275(3)
H33 H 0.389804 0.479250 0.954941
C48 C 0.4105(3) 0.4399(7) 0.9001(3)
H34 H 0.438586 0.461123 0.908472
C49 C 0.3982(2) 0.3975(5) 0.8611(2)
C50 C 0.3575(2) 0.3620(6) 0.8529(2)
H35 H 0.348177 0.326392 0.827555
C51 C 0.3302(3) 0.3802(7) 0.8834(3)
H36 H 0.302432 0.355955 0.876992
C52 C 0.44883(17) 0.3055(3) 0.77774(18)
C53 C 0.48123(16) 0.4408(4) 0.79965(17)
C54 C 0.42614(18) 0.3858(5) 0.83011(19)
C55 C 0.6708(2) 0.5756(4) 0.8492(2)
H37 H 0.652411 0.542784 0.827431
C56 C 0.7003(2) 0.5251(4) 0.8772(2)
H38 H 0.701681 0.459317 0.875694
C57 C 0.72737(17) 0.5747(3) 0.90743(17)
C58 C 0.72246(18) 0.6694(4) 0.91152(19)
H39 H 0.738672 0.703744 0.934314
C59 C 0.69247(17) 0.7121(3) 0.88048(19)
H40 H 0.690748 0.777884 0.880944
C60 C 0.7687(2) 0.1462(5) 0.9297(3)
H41 H 0.749928 0.114231 0.908083
C61 C 0.7683(2) 0.2427(5) 0.9322(3)
H42 H 0.748796 0.276192 0.911852
C62 C 0.79382(18) 0.2890(4) 0.96156(19)
C63 C 0.8244(2) 0.2439(4) 0.9912(2)
C64 C 0.8229(3) 0.1507(4) 0.9897(2)
C70 C 0.76002(17) 0.5254(3) 0.93904(18)
C71 C 0.79288(17) 0.3919(3) 0.96303(17)
C72 C 0.81123(16) 0.5274(3) 0.99647(17)
Zn5 Zn 0.29871(6) 0.45685(6) 0.95935(5)
Cl9 Cl 0.23664(9) 0.40728(14) 0.92900(11)
Zn6 Zn 0.29745(6) 0.75875(7) 0.45985(6)
Cl11 Cl 0.23493(9) 0.80660(17) 0.42926(12)
Cl12 Cl 0.32714(12) 0.79632(16) 0.52615(9)
N26 N 0.66488(16) 0.5500(3) 0.35129(18)
N27 N 0.2969(2) 0.5988(4) 0.95920(18)
Zn3 Zn 0.42949(3) 0.97280(5) 0.64489(2)
Cl2 Cl 0.39343(7) 0.85709(12) 0.66571(7)
Cl5 Cl 0.48997(6) 0.95279(15) 0.62023(5)
C28 C 0.3622(2) 0.9989(4) 0.56929(17)
H20 H 0.359483 0.933762 0.572743
H24 H 0.189204 0.935194 0.382506
Zn8 Zn 0.12232(3) 0.97699(6) 0.30793(3)
Zn9 Zn 0.79871(6) 0.95685(6) 0.95935(5)
Zn4_2 Zn 0.12443(3) 0.23767(6) 0.80527(3)
Cl1_2 Cl 0.10688(8) 0.36411(12) 0.83866(9)
Cl8_2 Cl 0.14822(8) 0.2323(2) 0.74260(8)
N1_2 N 0.07202(18) 0.0698(4) 0.30081(19)
N14_2 N 0.07421(17) 0.1484(4) 0.79863(19)
N19_2 N 0.16678(16) 0.1683(3) 0.85103(16)
N24_2 N 0.28228(13) 0.0749(3) 0.97079(14)
C1_2 C 0.06799(19) 0.1353(4) 0.2701(2)
H1_2 H 0.086480 0.135119 0.249264
C2_2 C 0.03782(16) 0.2022(4) 0.2682(2)
H2_2 H 0.034419 0.247625 0.245837
C3_2 C 0.01274(18) 0.2020(4) 0.2993(2)
C4_2 C 0.0161(2) 0.1328(5) 0.3309(2)
C5_2 C 0.0457(3) 0.0672(7) 0.3308(3)
H4_2 H 0.048240 0.018794 0.351703
C42_2 C 0.06801(19) 0.0822(4) 0.7676(2)
H29_2 H 0.084370 0.082564 0.744897
C43_2 C 0.0374(2) 0.0123(4) 0.7688(2)
C44_2 C 0.01274(18) 0.0105(4) 0.79852(18)
C45_2 C 0.0189(3) 0.0823(7) 0.8289(3)
H31_2 H 0.001419 0.085913 0.850664
C46_2 C 0.0501(3) 0.1487(6) 0.8278(3)
H32_2 H 0.053816 0.195842 0.849312
C55_2 C 0.1708(2) 0.0756(4) 0.8492(2)
H37_2 H 0.152411 0.042784 0.827431
C56_2 C 0.2003(2) 0.0251(4) 0.8772(2)
C57_2 C 0.22737(17) 0.0747(3) 0.90743(17)
C58_2 C 0.22246(18) 0.1694(4) 0.91152(19)
H39_2 H 0.238672 0.203744 0.934314
C59_2 C 0.19247(17) 0.2121(3) 0.88048(19)
H40_2 H 0.190748 0.277884 0.880944
C70_2 C 0.26002(17) 0.0254(3) 0.93904(18)
C72_2 C 0.31123(16) 0.0274(3) 0.99647(17)
Cl6_2 Cl 0.10445(7) 0.85182(12) 0.34186(7)
Cl7_2 Cl 0.14553(7) 0.9759(2) 0.24583(8)
N22_2 N 0.26295(14) 0.9341(3) 0.93533(14)
N23_2 N 0.31870(14) 0.9370(3) 0.99307(16)
H30_2 H 0.034476 0.964984 0.747343
H38_2 H 0.201681 0.959317 0.875694
C60_2 C 0.2687(2) 0.6462(5) 0.9297(3)
H41_2 H 0.249928 0.614231 0.908083
C61_2 C 0.2683(2) 0.7427(5) 0.9322(3)
H42_2 H 0.248796 0.776192 0.911852
C62_2 C 0.29382(18) 0.7890(4) 0.96156(19)
C63_2 C 0.3244(2) 0.7439(4) 0.9912(2)
C64_2 C 0.3229(3) 0.6507(4) 0.9897(2)
C71_2 C 0.29288(17) 0.8919(3) 0.96303(17)
N3_2 N 0.8407(2) 0.2909(4) 0.4202(2)
N4_2 N 0.97781(13) 0.3483(3) 0.27367(12)
N5_2 N 0.92106(14) 0.4047(3) 0.30481(15)
N6_2 N 0.95378(15) 0.2647(4) 0.33074(15)
N7_2 N 0.79798(18) 0.1152(3) 0.4608(2)
H3_2 H 0.997909 0.132238 0.352032
C6_2 C 0.97044(17) 0.5839(4) 0.19349(17)
H5_2 H 0.990060 0.592835 0.174159
C7_2 C 0.97373(16) 0.5085(4) 0.22070(16)
H6_2 H 0.995509 0.464515 0.219412
C8_2 C 0.94655(15) 0.4947(4) 0.24963(16)
C9_2 C 0.9141(2) 0.5576(5) 0.2515(2)
H7_2 H 0.894425 0.551577 0.270951
C10_2 C 0.9132(2) 0.6311(5) 0.2215(2)
H8_2 H 0.891171 0.675187 0.221133
C11_2 C 0.8781(3) 0.2556(10) 0.4290(3)
H9_2 H 0.885591 0.221691 0.455237
C12_2 C 0.9079(3) 0.2657(8) 0.4013(3)
H10_2 H 0.935071 0.238471 0.407624
C13_2 C 0.8949(2) 0.3202(5) 0.36209(19)
C14_2 C 0.8547(2) 0.3546(6) 0.3541(3)
H11_2 H 0.845641 0.389754 0.328582
C15_2 C 0.8273(2) 0.3388(5) 0.3827(2)
H12_2 H 0.799122 0.361048 0.376563
C16_2 C 0.97870(17) 0.2767(4) 0.30159(18)
C17_2 C 0.94922(16) 0.4103(4) 0.27671(16)
C18_2 C 0.92496(18) 0.3308(4) 0.33173(19)
C19_2 C 0.8229(3) 0.0735(5) 0.4886(3)
H13_2 H 0.842941 0.107108 0.508351
C23_2 C 0.7713(2) 0.0721(3) 0.4328(2)
H16_2 H 0.753213 0.108178 0.412201
Zn6_2 Zn 0.79745(6) 0.25875(7) 0.45985(6)
Cl11_2 Cl 0.73493(9) 0.30660(17) 0.42926(12)
Cl12_2 Cl 0.82714(12) 0.29632(16) 0.52615(9)
Zn3_2 Zn 0.92949(3) 0.47280(5) 0.64489(2)
Cl2_2 Cl 0.89343(7) 0.35709(12) 0.66571(7)
Cl5_2 Cl 0.98997(6) 0.45279(15) 0.62023(5)
N8_2 N 0.89029(16) 0.5463(3) 0.59780(16)
N10_2 N 0.81955(14) 0.7799(3) 0.49285(15)
N11_2 N 0.78262(13) 0.6396(3) 0.47038(14)
N12_2 N 0.76314(14) 0.7817(3) 0.43219(15)
N13_2 N 0.94000(16) 0.5705(3) 0.69260(16)
N15_2 N 0.8395(2) 0.9255(6) 0.9180(2)
N16_2 N 0.97960(13) 0.8688(3) 0.77234(14)
N17_2 N 0.95533(16) 0.9526(4) 0.82804(16)
N18_2 N 0.92246(15) 0.8086(4) 0.80441(16)
C20_2 C 0.8215(2) 0.9716(4) 0.49079(18)
H14_2 H 0.838776 0.939553 0.513635
C21_2 C 0.79583(17) 0.9244(3) 0.46055(17)
C22_2 C 0.76712(19) 0.9770(3) 0.4305(2)
H15_2 H 0.746113 0.948059 0.409981
C24_2 C 0.8916(2) 0.6384(4) 0.5948(2)
H17_2 H 0.909368 0.672901 0.616424
C25_2 C 0.8680(2) 0.6838(4) 0.5612(2)
H18_2 H 0.871706 0.748825 0.558358
C26_2 C 0.83898(16) 0.6388(3) 0.53130(17)
C27_2 C 0.8377(2) 0.5422(3) 0.5357(2)
H19_2 H 0.819411 0.506584 0.515033
C28_2 C 0.8622(2) 0.4989(4) 0.56929(17)
H20_2 H 0.859483 0.433762 0.572743
C29_2 C 0.6687(2) 0.6416(4) 0.3511(2)
H21_2 H 0.649552 0.676437 0.330896
C30_2 C 0.6989(2) 0.6879(4) 0.3784(2)
H22_2 H 0.700948 0.753521 0.376417
C31_2 C 0.72630(18) 0.6404(3) 0.40898(18)
C32_2 C 0.72303(17) 0.5442(3) 0.40858(19)
H23_2 H 0.742700 0.508460 0.427781
C33_2 C 0.69202(19) 0.5007(4) 0.3810(2)
H24_2 H 0.689204 0.435194 0.382506
C34_2 C 0.79228(16) 0.8212(3) 0.46196(17)
C35_2 C 0.81323(17) 0.6887(3) 0.49589(17)
C36_2 C 0.75921(18) 0.6893(3) 0.43918(17)
C37_2 C 0.97154(18) 0.6335(4) 0.69321(16)
H25_2 H 0.991336 0.624620 0.674053
C38_2 C 0.97625(16) 0.7100(4) 0.72042(16)
H26_2 H 0.999032 0.752040 0.720472
C39_2 C 0.94653(16) 0.7234(4) 0.74767(17)
C40_2 C 0.91609(18) 0.6560(4) 0.7488(2)
H27_2 H 0.897074 0.660922 0.769023
C41_2 C 0.9133(2) 0.5805(5) 0.7202(3)
H28_2 H 0.891675 0.535637 0.720647
C47_2 C 0.8807(4) 0.9513(7) 0.9275(3)
H33_2 H 0.889804 0.979250 0.954941
C48_2 C 0.9105(3) 0.9399(7) 0.9001(3)
H34_2 H 0.938586 0.961123 0.908472
C49_2 C 0.8982(2) 0.8975(5) 0.8611(2)
C50_2 C 0.8575(2) 0.8620(6) 0.8529(2)
H35_2 H 0.848177 0.826392 0.827555
C51_2 C 0.8302(3) 0.8802(7) 0.8834(3)
H36_2 H 0.802432 0.855955 0.876992
C52_2 C 0.94883(17) 0.8055(3) 0.77774(18)
C53_2 C 0.98123(16) 0.9408(4) 0.79965(17)
C54_2 C 0.92614(18) 0.8858(5) 0.83011(19)
Cl9_2 Cl 0.73664(9) 0.90728(14) 0.92900(11)
N2_2 N 0.56097(15) 0.1450(3) 0.80537(14)
C6_3 C 0.52956(17) 0.0839(4) 0.80651(17)
H5_3 H 0.509940 0.092835 0.825841
C7_3 C 0.52627(16) 0.0085(4) 0.77930(16)
C9_3 C 0.5859(2) 0.0576(5) 0.7485(2)
H7_3 H 0.605575 0.051577 0.729049
C10_3 C 0.5868(2) 0.1311(5) 0.7785(2)
H8_3 H 0.608829 0.175187 0.778867
Zn7_2 Zn 0.57285(3) 0.24526(5) 0.85354(3)
Cl3_3 Cl 0.60953(8) 0.35857(12) 0.83214(7)
Cl4_3 Cl 0.51335(8) 0.2685(2) 0.87857(6)
N21_3 N 0.61279(16) 0.1710(3) 0.89959(15)
C65_3 C 0.6109(3) 0.0806(5) 0.9037(2)
H45_3 H 0.591445 0.048117 0.882863
C66_3 C 0.6355(2) 0.0272(4) 0.9365(2)
C67_3 C 0.66161(18) 0.0788(4) 0.96740(19)
C68_3 C 0.66470(18) 0.1723(4) 0.96350(15)
H47_3 H 0.684018 0.207280 0.983444
C69_3 C 0.63864(18) 0.2151(3) 0.92930(19)
H48_3 H 0.639693 0.280824 0.927429
Zn2_2 Zn 0.37768(3) 0.47699(6) 0.69207(3)
Zn4_3 Zn 0.37557(3) 0.73767(6) 0.19473(3)
Cl1_3 Cl 0.39312(8) 0.86411(12) 0.16134(9)
Cl6_3 Cl 0.39555(7) 0.35182(12) 0.65814(7)
Cl7_3 Cl 0.35447(7) 0.4759(2) 0.75417(8)
Cl8_3 Cl 0.35178(8) 0.7323(2) 0.25740(8)
N1_3 N 0.42798(18) 0.5698(4) 0.69919(19)
N3_3 N 0.6593(2) 0.7909(4) 0.5798(2)
N4_3 N 0.52219(13) 0.8483(3) 0.72633(12)
N5_3 N 0.57894(14) 0.9047(3) 0.69519(15)
N6_3 N 0.54622(15) 0.7647(4) 0.66926(15)
N7_3 N 0.70202(18) 0.6152(3) 0.5392(2)
N8_3 N 0.60971(16) 0.0463(3) 0.40220(16)
N9_2 N 0.83512(16) 0.0500(3) 0.64871(18)
N10_3 N 0.68045(14) 0.2799(3) 0.50715(15)
N11_3 N 0.71738(13) 0.1396(3) 0.52962(14)
N12_3 N 0.73686(14) 0.2817(3) 0.56781(15)
N13_3 N 0.56000(16) 0.0705(3) 0.30740(16)
N14_3 N 0.42579(17) 0.6484(4) 0.20137(19)
N15_3 N 0.6605(2) 0.4255(6) 0.0820(2)
N16_3 N 0.52040(13) 0.3688(3) 0.22766(14)
N17_3 N 0.54467(16) 0.4526(4) 0.17196(16)
N18_3 N 0.57754(15) 0.3086(4) 0.19559(16)
N19_3 N 0.33322(16) 0.6683(3) 0.14897(16)
N20_2 N 0.2031(2) 0.0988(4) 0.04080(18)
N22_3 N 0.23705(14) 0.4341(3) 0.06467(14)
N23_3 N 0.18130(14) 0.4370(3) 0.00693(16)
N24_3 N 0.21772(13) 0.5749(3) 0.02921(14)
C1_3 C 0.43201(19) 0.6353(4) 0.7299(2)
H1_3 H 0.413520 0.635119 0.750736
C2_3 C 0.46218(16) 0.7022(4) 0.7318(2)
H2_3 H 0.465581 0.747625 0.754163
C3_3 C 0.48726(18) 0.7020(4) 0.7007(2)
C4_3 C 0.4839(2) 0.6328(5) 0.6691(2)
H3_3 H 0.502091 0.632238 0.647968
C5_3 C 0.4543(3) 0.5672(7) 0.6692(3)
H4_3 H 0.451760 0.518794 0.648297
H6_3 H 0.504491 0.964515 0.780588
C8_3 C 0.55345(15) 0.9947(4) 0.75037(16)
C11_3 C 0.6219(3) 0.7556(10) 0.5710(3)
H9_3 H 0.614409 0.721691 0.544763
C12_3 C 0.5921(3) 0.7657(8) 0.5987(3)
H10_3 H 0.564929 0.738471 0.592376
C13_3 C 0.6051(2) 0.8202(5) 0.63791(19)
C14_3 C 0.6453(2) 0.8546(6) 0.6459(3)
H11_3 H 0.654359 0.889754 0.671418
C15_3 C 0.6727(2) 0.8388(5) 0.6173(2)
H12_3 H 0.700878 0.861048 0.623437
C16_3 C 0.52130(17) 0.7767(4) 0.69841(18)
C17_3 C 0.55078(16) 0.9103(4) 0.72329(16)
C18_3 C 0.57504(18) 0.8308(4) 0.66827(19)
C19_3 C 0.6771(3) 0.5735(5) 0.5114(3)
H13_3 H 0.657059 0.607108 0.491649
C20_3 C 0.6785(2) 0.4716(4) 0.50921(18)
H14_3 H 0.661224 0.439553 0.486365
C21_3 C 0.70417(17) 0.4244(3) 0.53945(17)
C22_3 C 0.73288(19) 0.4770(3) 0.5695(2)
H15_3 H 0.753887 0.448059 0.590019
C23_3 C 0.7287(2) 0.5721(3) 0.5672(2)
H16_3 H 0.746787 0.608178 0.587799
C24_3 C 0.6084(2) 0.1384(4) 0.4052(2)
H17_3 H 0.590632 0.172901 0.383576
C25_3 C 0.6320(2) 0.1838(4) 0.4388(2)
H18_3 H 0.628294 0.248825 0.441642
C26_3 C 0.66102(16) 0.1388(3) 0.46870(17)
C27_3 C 0.6623(2) 0.0422(3) 0.4643(2)
H19_3 H 0.680589 0.006584 0.484967
C29_3 C 0.8313(2) 0.1416(4) 0.6489(2)
H21_3 H 0.850448 0.176437 0.669104
C30_3 C 0.8011(2) 0.1879(4) 0.6216(2)
H22_3 H 0.799052 0.253521 0.623583
C31_3 C 0.77370(18) 0.1404(3) 0.59102(18)
C32_3 C 0.77697(17) 0.0442(3) 0.59142(19)
H23_3 H 0.757300 0.008460 0.572219
C33_3 C 0.80798(19) 0.0007(4) 0.6190(2)
C34_3 C 0.70772(16) 0.3212(3) 0.53804(17)
C35_3 C 0.68677(17) 0.1887(3) 0.50411(17)
C36_3 C 0.74079(18) 0.1893(3) 0.56082(17)
C37_3 C 0.52846(18) 0.1335(4) 0.30679(16)
H25_3 H 0.508664 0.124620 0.325947
C38_3 C 0.52375(16) 0.2100(4) 0.27958(16)
H26_3 H 0.500968 0.252040 0.279528
C39_3 C 0.55347(16) 0.2234(4) 0.25233(17)
C40_3 C 0.58391(18) 0.1560(4) 0.2512(2)
H27_3 H 0.602926 0.160922 0.230977
C41_3 C 0.5867(2) 0.0805(5) 0.2798(3)
H28_3 H 0.608325 0.035637 0.279353
C42_3 C 0.43199(19) 0.5822(4) 0.2324(2)
H29_3 H 0.415630 0.582564 0.255103
C43_3 C 0.4626(2) 0.5123(4) 0.2312(2)
H30_3 H 0.465524 0.464984 0.252657
C44_3 C 0.48726(18) 0.5105(4) 0.20148(18)
C45_3 C 0.4811(3) 0.5823(7) 0.1711(3)
H31_3 H 0.498581 0.585913 0.149336
C46_3 C 0.4499(3) 0.6487(6) 0.1722(3)
H32_3 H 0.446184 0.695842 0.150688
C47_3 C 0.6193(4) 0.4513(7) 0.0725(3)
H33_3 H 0.610196 0.479250 0.045059
C48_3 C 0.5895(3) 0.4399(7) 0.0999(3)
H34_3 H 0.561414 0.461123 0.091528
C49_3 C 0.6018(2) 0.3975(5) 0.1389(2)
C50_3 C 0.6425(2) 0.3620(6) 0.1471(2)
H35_3 H 0.651823 0.326392 0.172445
C51_3 C 0.6698(3) 0.3802(7) 0.1166(3)
H36_3 H 0.697568 0.355955 0.123008
C52_3 C 0.55117(17) 0.3055(3) 0.22226(18)
C53_3 C 0.51877(16) 0.4408(4) 0.20035(17)
C54_3 C 0.57386(18) 0.3858(5) 0.16989(19)
C55_3 C 0.3292(2) 0.5756(4) 0.1508(2)
H37_3 H 0.347589 0.542784 0.172569
C56_3 C 0.2997(2) 0.5251(4) 0.1228(2)
H38_3 H 0.298319 0.459317 0.124306
C57_3 C 0.27263(17) 0.5747(3) 0.09257(17)
C58_3 C 0.27754(18) 0.6694(4) 0.08848(19)
H39_3 H 0.261328 0.703744 0.065686
C59_3 C 0.30753(17) 0.7121(3) 0.11952(19)
H40_3 H 0.309252 0.777884 0.119056
C60_3 C 0.2313(2) 0.1462(5) 0.0703(3)
H41_3 H 0.250072 0.114231 0.091917
C61_3 C 0.2317(2) 0.2427(5) 0.0678(3)
H42_3 H 0.251204 0.276192 0.088148
C62_3 C 0.20618(18) 0.2890(4) 0.03844(19)
C63_3 C 0.1756(2) 0.2439(4) 0.0088(2)
C64_3 C 0.1771(3) 0.1507(4) 0.0103(2)
C70_3 C 0.23998(17) 0.5254(3) 0.06096(18)
C71_3 C 0.20712(17) 0.3919(3) 0.03697(17)
C72_3 C 0.18877(16) 0.5274(3) 0.00353(17)
Zn5_2 Zn 0.70129(6) 0.45685(6) 0.04065(5)
Cl9_3 Cl 0.76336(9) 0.40728(14) 0.07100(11)
Zn6_3 Zn 0.70255(6) 0.75875(7) 0.54015(6)
Cl11_3 Cl 0.76507(9) 0.80660(17) 0.57074(12)
Cl12_3 Cl 0.67286(12) 0.79632(16) 0.47385(9)
N26_2 N 0.33512(16) 0.5500(3) 0.64871(18)
N27_2 N 0.7031(2) 0.5988(4) 0.04080(18)
Zn1_2 Zn 0.07285(3) 0.74526(5) 0.85354(3)
Cl3_4 Cl 0.10953(8) 0.85857(12) 0.83214(7)
Cl4_4 Cl 0.01335(8) 0.7685(2) 0.87857(6)
N21_4 N 0.11279(16) 0.6710(3) 0.89959(15)
H43_2 H 0.155211 0.276705 0.989106
H44_2 H 0.158864 0.117813 0.988477
C65_4 C 0.1109(3) 0.5806(5) 0.9037(2)
H45_4 H 0.091445 0.548117 0.882863
C66_4 C 0.1355(2) 0.5272(4) 0.9365(2)
H46_2 H 0.134255 0.461384 0.937274
C67_4 C 0.16161(18) 0.5788(4) 0.96740(19)
C68_4 C 0.16470(18) 0.6723(4) 0.96350(15)
H47_4 H 0.184018 0.707280 0.983444
C69_4 C 0.13864(18) 0.7151(3) 0.92930(19)
H48_4 H 0.139693 0.780824 0.927429
Cl10_2 Cl 0.67196(14) 0.41944(16) 0.97510(10)
N25_2 N 0.06097(15) 0.6450(3) 0.80537(14)
Zn3_3 Zn 0.57051(3) 0.97280(5) 0.35511(2)
Cl2_3 Cl 0.60657(7) 0.85709(12) 0.33429(7)
Cl5_3 Cl 0.51003(6) 0.95279(15) 0.37977(5)
C28_3 C 0.6378(2) 0.9989(4) 0.43071(17)
H20_3 H 0.640517 0.933762 0.427257
H24_3 H 0.810796 0.935194 0.617494
Zn8_2 Zn 0.87768(3) 0.97699(6) 0.69207(3)
Zn9_2 Zn 0.20129(6) 0.95685(6) 0.04065(5)
N3_4 N 0.1593(2) 0.2909(4) 0.5798(2)
N4_4 N 0.02219(13) 0.3483(3) 0.72633(12)
N5_4 N 0.07894(14) 0.4047(3) 0.69519(15)
N6_4 N 0.04622(15) 0.2647(4) 0.66926(15)
N7_4 N 0.20202(18) 0.1152(3) 0.5392(2)
H3_4 H 0.002091 0.132238 0.647968
C6_4 C 0.02956(17) 0.5839(4) 0.80651(17)
H5_4 H 0.009940 0.592835 0.825841
C7_4 C 0.02627(16) 0.5085(4) 0.77930(16)
H6_4 H 0.004491 0.464515 0.780588
C8_4 C 0.05345(15) 0.4947(4) 0.75037(16)
C9_4 C 0.0859(2) 0.5576(5) 0.7485(2)
H7_4 H 0.105575 0.551577 0.729049
C10_4 C 0.0868(2) 0.6311(5) 0.7785(2)
H8_4 H 0.108829 0.675187 0.778867
C11_4 C 0.1219(3) 0.2556(10) 0.5710(3)
H9_4 H 0.114409 0.221691 0.544763
C12_4 C 0.0921(3) 0.2657(8) 0.5987(3)
H10_4 H 0.064929 0.238471 0.592376
C13_4 C 0.1051(2) 0.3202(5) 0.63791(19)
C14_4 C 0.1453(2) 0.3546(6) 0.6459(3)
H11_4 H 0.154359 0.389754 0.671418
C15_4 C 0.1727(2) 0.3388(5) 0.6173(2)
H12_4 H 0.200878 0.361048 0.623437
C16_4 C 0.02130(17) 0.2767(4) 0.69841(18)
C17_4 C 0.05078(16) 0.4103(4) 0.72329(16)
C18_4 C 0.07504(18) 0.3308(4) 0.66827(19)
C19_4 C 0.1771(3) 0.0735(5) 0.5114(3)
H13_4 H 0.157059 0.107108 0.491649
C23_4 C 0.2287(2) 0.0721(3) 0.5672(2)
H16_4 H 0.246787 0.108178 0.587799
Zn6_4 Zn 0.20255(6) 0.25875(7) 0.54015(6)
Cl11_4 Cl 0.26507(9) 0.30660(17) 0.57074(12)
Cl12_4 Cl 0.17286(12) 0.29632(16) 0.47385(9)
Zn3_4 Zn 0.07051(3) 0.47280(5) 0.35511(2)
Cl2_4 Cl 0.10657(7) 0.35709(12) 0.33429(7)
Cl5_4 Cl 0.01003(6) 0.45279(15) 0.37977(5)
N8_4 N 0.10971(16) 0.5463(3) 0.40220(16)
N10_4 N 0.18045(14) 0.7799(3) 0.50715(15)
N11_4 N 0.21738(13) 0.6396(3) 0.52962(14)
N12_4 N 0.23686(14) 0.7817(3) 0.56781(15)
N13_4 N 0.06000(16) 0.5705(3) 0.30740(16)
N15_4 N 0.1605(2) 0.9255(6) 0.0820(2)
N16_4 N 0.02040(13) 0.8688(3) 0.22766(14)
N17_4 N 0.04467(16) 0.9526(4) 0.17196(16)
N18_4 N 0.07754(15) 0.8086(4) 0.19559(16)
C20_4 C 0.1785(2) 0.9716(4) 0.50921(18)
H14_4 H 0.161224 0.939553 0.486365
C21_4 C 0.20417(17) 0.9244(3) 0.53945(17)
C22_4 C 0.23288(19) 0.9770(3) 0.5695(2)
H15_4 H 0.253887 0.948059 0.590019
C24_4 C 0.1084(2) 0.6384(4) 0.4052(2)
H17_4 H 0.090632 0.672901 0.383576
C25_4 C 0.1320(2) 0.6838(4) 0.4388(2)
H18_4 H 0.128294 0.748825 0.441642
C26_4 C 0.16102(16) 0.6388(3) 0.46870(17)
C27_4 C 0.1623(2) 0.5422(3) 0.4643(2)
H19_4 H 0.180589 0.506584 0.484967
C28_4 C 0.1378(2) 0.4989(4) 0.43071(17)
H20_4 H 0.140517 0.433762 0.427257
C29_4 C 0.3313(2) 0.6416(4) 0.6489(2)
H21_4 H 0.350448 0.676437 0.669104
C30_4 C 0.3011(2) 0.6879(4) 0.6216(2)
H22_4 H 0.299052 0.753521 0.623583
C31_4 C 0.27370(18) 0.6404(3) 0.59102(18)
C32_4 C 0.27697(17) 0.5442(3) 0.59142(19)
H23_4 H 0.257300 0.508460 0.572219
C33_4 C 0.30798(19) 0.5007(4) 0.6190(2)
H24_4 H 0.310796 0.435194 0.617494
C34_4 C 0.20772(16) 0.8212(3) 0.53804(17)
C35_4 C 0.18677(17) 0.6887(3) 0.50411(17)
C36_4 C 0.24079(18) 0.6893(3) 0.56082(17)
C37_4 C 0.02846(18) 0.6335(4) 0.30679(16)
H25_4 H 0.008664 0.624620 0.325947
C38_4 C 0.02375(16) 0.7100(4) 0.27958(16)
H26_4 H 0.000968 0.752040 0.279528
C39_4 C 0.05347(16) 0.7234(4) 0.25233(17)
C40_4 C 0.08391(18) 0.6560(4) 0.2512(2)
H27_4 H 0.102926 0.660922 0.230977
C41_4 C 0.0867(2) 0.5805(5) 0.2798(3)
H28_4 H 0.108325 0.535637 0.279353
C47_4 C 0.1193(4) 0.9513(7) 0.0725(3)
H33_4 H 0.110196 0.979250 0.045059
C48_4 C 0.0895(3) 0.9399(7) 0.0999(3)
H34_4 H 0.061414 0.961123 0.091528
C49_4 C 0.1018(2) 0.8975(5) 0.1389(2)
C50_4 C 0.1425(2) 0.8620(6) 0.1471(2)
H35_4 H 0.151823 0.826392 0.172445
C51_4 C 0.1698(3) 0.8802(7) 0.1166(3)
H36_4 H 0.197568 0.855955 0.123008
C52_4 C 0.05117(17) 0.8055(3) 0.22226(18)
C53_4 C 0.01877(16) 0.9408(4) 0.20035(17)
C54_4 C 0.07386(18) 0.8858(5) 0.16989(19)
Cl9_4 Cl 0.26336(9) 0.90728(14) 0.07100(11)
Zn4_4 Zn 0.87557(3) 0.23767(6) 0.19473(3)
Cl1_4 Cl 0.89312(8) 0.36411(12) 0.16134(9)
Cl8_4 Cl 0.85178(8) 0.2323(2) 0.25740(8)
N1_4 N 0.92798(18) 0.0698(4) 0.69919(19)
N14_4 N 0.92579(17) 0.1484(4) 0.20137(19)
N19_4 N 0.83322(16) 0.1683(3) 0.14897(16)
N24_4 N 0.71772(13) 0.0749(3) 0.02921(14)
C1_4 C 0.93201(19) 0.1353(4) 0.7299(2)
H1_4 H 0.913520 0.135119 0.750736
C2_4 C 0.96218(16) 0.2022(4) 0.7318(2)
H2_4 H 0.965581 0.247625 0.754163
C3_4 C 0.98726(18) 0.2020(4) 0.7007(2)
C4_4 C 0.9839(2) 0.1328(5) 0.6691(2)
C5_4 C 0.9543(3) 0.0672(7) 0.6692(3)
H4_4 H 0.951760 0.018794 0.648297
C42_4 C 0.93199(19) 0.0822(4) 0.2324(2)
H29_4 H 0.915630 0.082564 0.255103
C43_4 C 0.9626(2) 0.0123(4) 0.2312(2)
C44_4 C 0.98726(18) 0.0105(4) 0.20148(18)
C45_4 C 0.9811(3) 0.0823(7) 0.1711(3)
H31_4 H 0.998581 0.085913 0.149336
C46_4 C 0.9499(3) 0.1487(6) 0.1722(3)
H32_4 H 0.946184 0.195842 0.150688
C55_4 C 0.8292(2) 0.0756(4) 0.1508(2)
H37_4 H 0.847589 0.042784 0.172569
C56_4 C 0.7997(2) 0.0251(4) 0.1228(2)
C57_4 C 0.77263(17) 0.0747(3) 0.09257(17)
C58_4 C 0.77754(18) 0.1694(4) 0.08848(19)
H39_4 H 0.761328 0.203744 0.065686
C59_4 C 0.80753(17) 0.2121(3) 0.11952(19)
H40_4 H 0.809252 0.277884 0.119056
C70_4 C 0.73998(17) 0.0254(3) 0.06096(18)
C72_4 C 0.68877(16) 0.0274(3) 0.00353(17)
Cl6_4 Cl 0.89555(7) 0.85182(12) 0.65814(7)
Cl7_4 Cl 0.85447(7) 0.9759(2) 0.75417(8)
N22_4 N 0.73705(14) 0.9341(3) 0.06467(14)
N23_4 N 0.68130(14) 0.9370(3) 0.00693(16)
H30_4 H 0.965524 0.964984 0.252657
H38_4 H 0.798319 0.959317 0.124306
C60_4 C 0.7313(2) 0.6462(5) 0.0703(3)
H41_4 H 0.750072 0.614231 0.091917
C61_4 C 0.7317(2) 0.7427(5) 0.0678(3)
H42_4 H 0.751204 0.776192 0.088148
C62_4 C 0.70618(18) 0.7890(4) 0.03844(19)
C63_4 C 0.6756(2) 0.7439(4) 0.0088(2)
C64_4 C 0.6771(3) 0.6507(4) 0.0103(2)
C71_4 C 0.70712(17) 0.8919(3) 0.03697(17)
H43_3 H 0.344789 0.776705 0.010894
H44_3 H 0.341136 0.617813 0.011523
H46_3 H 0.365745 0.961384 0.062726
Cl10_3 Cl 0.82804(14) 0.91944(16) 0.02490(10)
Cl10_4 Cl 0.17196(14) 0.91944(16) 0.97510(10)
H43_4 H 0.655211 0.776705 0.989106
H44_4 H 0.658864 0.617813 0.988477
H46_4 H 0.634255 0.961384 0.937274
loop_
_geom_bond_atom_site_label_1
_geom_bond_atom_site_label_2
_geom_bond_site_symmetry_1
_geom_bond_site_symmetry_2
N2 C6 1_555 1_555
C6 H5 1_555 1_555
C7 C6 1_555 1_555
H7 C9 1_555 1_555
C10 N2 1_555 1_555
H8 C10 1_555 1_555
Zn7 N2 1_555 1_555
C9 C10 1_555 1_555
Zn7 Cl3 1_555 1_555
Cl4 Zn7 1_555 1_555
N21 Zn7 1_555 1_555
C65 N21 1_555 1_555
H45 C65 1_555 1_555
C66 C65 1_555 1_555
C67 C66 1_555 1_555
C68 C67 1_555 1_555
H47 C68 1_555 1_555
C69 N21 1_555 1_555
H48 C69 1_555 1_555
C68 C69 1_555 1_555
Zn1 Cl3_2 1_555 1_555
Cl4_2 Zn1 1_555 1_555
N21_2 Zn1 1_555 1_555
C65_2 N21_2 1_555 1_555
H45_2 C65_2 1_555 1_555
C66_2 C65_2 1_555 1_555
H46 C66_2 1_555 1_555
C67_2 C66_2 1_555 1_555
C68_2 C67_2 1_555 1_555
H47_2 C68_2 1_555 1_555
C69_2 N21_2 1_555 1_555
H48_2 C69_2 1_555 1_555
N25 Zn1 1_555 1_555
C68_2 C69_2 1_555 1_555
Zn2 Cl6 1_555 1_555
Zn4 Cl1 1_555 1_555
Cl7 Zn2 1_555 1_555
Cl8 Zn4 1_555 1_555
N1 Zn2 1_555 1_555
N3 C11 1_555 1_555
N4 C16 1_555 1_555
N5 C17 1_555 1_555
N6 C16 1_555 1_555
N7 C19 1_555 1_555
N9 C29 1_555 1_555
N10 C34 1_555 1_555
N11 C35 1_555 1_555
N12 C34 1_555 1_555
N14 Zn4 1_555 1_555
N15 C47 1_555 1_555
N16 C52 1_555 1_555
N17 C53 1_555 1_555
N18 C52 1_555 1_555
N19 Zn4 1_555 1_555
N20 C60 1_555 1_555
N22 C70 1_555 1_555
N23 C71 1_555 1_555
N24 C70 1_555 1_555
C1 N1 1_555 1_555
H1 C1 1_555 1_555
C2 C1 1_555 1_555
H2 C2 1_555 1_555
C3 C2 1_555 1_555
C4 C3 1_555 1_555
H3 C4 1_555 1_555
C5 N1 1_555 1_555
H4 C5 1_555 1_555
C11 H9 1_555 1_555
C12 C11 1_555 1_555
H10 C12 1_555 1_555
C13 C12 1_555 1_555
C14 C13 1_555 1_555
H11 C14 1_555 1_555
C15 N3 1_555 1_555
H12 C15 1_555 1_555
C16 C3 1_555 1_555
C17 N4 1_555 1_555
C18 N5 1_555 1_555
C19 H13 1_555 1_555
C20 C19 1_555 1_555
H14 C20 1_555 1_555
C21 C20 1_555 1_555
C22 C21 1_555 1_555
H15 C22 1_555 1_555
C23 N7 1_555 1_555
H16 C23 1_555 1_555
C24 N8 1_555 1_555
H17 C24 1_555 1_555
C25 C24 1_555 1_555
H18 C25 1_555 1_555
C26 C25 1_555 1_555
C27 C26 1_555 1_555
H19 C27 1_555 1_555
C29 H21 1_555 1_555
C30 C29 1_555 1_555
H22 C30 1_555 1_555
C31 C30 1_555 1_555
C32 C31 1_555 1_555
H23 C32 1_555 1_555
C33 N9 1_555 1_555
C34 C21 1_555 1_555
C35 N10 1_555 1_555
C36 N11 1_555 1_555
C37 N13 1_555 1_555
H25 C37 1_555 1_555
C38 C37 1_555 1_555
H26 C38 1_555 1_555
C39 C38 1_555 1_555
C40 C39 1_555 1_555
H27 C40 1_555 1_555
C41 N13 1_555 1_555
H28 C41 1_555 1_555
C42 N14 1_555 1_555
H29 C42 1_555 1_555
C43 C42 1_555 1_555
H30 C43 1_555 1_555
C44 C43 1_555 1_555
C45 C44 1_555 1_555
H31 C45 1_555 1_555
C46 N14 1_555 1_555
H32 C46 1_555 1_555
C47 H33 1_555 1_555
C48 C47 1_555 1_555
H34 C48 1_555 1_555
C49 C48 1_555 1_555
C50 C49 1_555 1_555
H35 C50 1_555 1_555
C51 N15 1_555 1_555
H36 C51 1_555 1_555
C52 C39 1_555 1_555
C53 N16 1_555 1_555
C54 N17 1_555 1_555
C55 N19 1_555 1_555
H37 C55 1_555 1_555
C56 C55 1_555 1_555
H38 C56 1_555 1_555
C57 C56 1_555 1_555
C58 C57 1_555 1_555
H39 C58 1_555 1_555
C59 N19 1_555 1_555
H40 C59 1_555 1_555
C60 H41 1_555 1_555
C61 C60 1_555 1_555
H42 C61 1_555 1_555
C62 C61 1_555 1_555
C63 C62 1_555 1_555
C64 N20 1_555 1_555
C70 C57 1_555 1_555
C71 N22 1_555 1_555
C72 N23 1_555 1_555
Zn5 N15 1_555 1_555
Cl9 Zn5 1_555 1_555
Zn6 N3 1_555 1_555
Cl11 Zn6 1_555 1_555
Cl12 Zn6 1_555 1_555
N26 Zn2 1_555 1_555
N27 Zn5 1_555 1_555
N6 C18 1_555 1_555
N7 Zn6 1_555 1_555
N12 C36 1_555 1_555
N18 C54 1_555 1_555
N24 C72 1_555 1_555
C4 C5 1_555 1_555
C8 C17 1_555 1_555
C13 C18 1_555 1_555
C14 C15 1_555 1_555
C22 C23 1_555 1_555
C26 C35 1_555 1_555
C31 C36 1_555 1_555
C32 C33 1_555 1_555
C40 C41 1_555 1_555
C44 C53 1_555 1_555
C45 C46 1_555 1_555
C49 C54 1_555 1_555
C50 C51 1_555 1_555
C58 C59 1_555 1_555
C62 C71 1_555 1_555
C63 C64 1_555 1_555
Zn3 Cl2 1_555 1_555
Cl5 Zn3 1_555 1_555
H20 C28 1_555 1_555
Zn4_2 Cl1_2 1_555 1_555
Cl8_2 Zn4_2 1_555 1_555
N14_2 Zn4_2 1_555 1_555
N19_2 Zn4_2 1_555 1_555
N24_2 C70_2 1_555 1_555
C1_2 N1_2 1_555 1_555
H1_2 C1_2 1_555 1_555
C2_2 C1_2 1_555 1_555
H2_2 C2_2 1_555 1_555
C3_2 C2_2 1_555 1_555
C4_2 C3_2 1_555 1_555
C5_2 N1_2 1_555 1_555
H4_2 C5_2 1_555 1_555
C42_2 N14_2 1_555 1_555
H29_2 C42_2 1_555 1_555
C43_2 C42_2 1_555 1_555
C44_2 C43_2 1_555 1_555
C45_2 C44_2 1_555 1_555
H31_2 C45_2 1_555 1_555
C46_2 N14_2 1_555 1_555
H32_2 C46_2 1_555 1_555
C55_2 N19_2 1_555 1_555
H37_2 C55_2 1_555 1_555
C56_2 C55_2 1_555 1_555
C57_2 C56_2 1_555 1_555
C58_2 C57_2 1_555 1_555
H39_2 C58_2 1_555 1_555
C59_2 N19_2 1_555 1_555
H40_2 C59_2 1_555 1_555
C70_2 C57_2 1_555 1_555
N24_2 C72_2 1_555 1_555
C4_2 C5_2 1_555 1_555
C45_2 C46_2 1_555 1_555
C58_2 C59_2 1_555 1_555
Zn8 Cl6_2 1_555 1_555
Cl7_2 Zn8 1_555 1_555
N27 C60_2 1_555 1_555
N23_2 C71_2 1_555 1_555
C60_2 H41_2 1_555 1_555
C61_2 C60_2 1_555 1_555
H42_2 C61_2 1_555 1_555
C62_2 C61_2 1_555 1_555
C63_2 C62_2 1_555 1_555
C64_2 N27 1_555 1_555
C71_2 N22_2 1_555 1_555
C62_2 C71_2 1_555 1_555
C63_2 C64_2 1_555 1_555
N25 C6_2 1_555 1_555
N3_2 C11_2 1_555 1_555
N4_2 C16_2 1_555 1_555
N5_2 C17_2 1_555 1_555
N6_2 C16_2 1_555 1_555
N7_2 C19_2 1_555 1_555
C6_2 H5_2 1_555 1_555
C7_2 C6_2 1_555 1_555
H6_2 C7_2 1_555 1_555
C8_2 C7_2 1_555 1_555
C9_2 C8_2 1_555 1_555
H7_2 C9_2 1_555 1_555
C10_2 N25 1_555 1_555
H8_2 C10_2 1_555 1_555
C11_2 H9_2 1_555 1_555
C12_2 C11_2 1_555 1_555
H10_2 C12_2 1_555 1_555
C13_2 C12_2 1_555 1_555
C14_2 C13_2 1_555 1_555
H11_2 C14_2 1_555 1_555
C15_2 N3_2 1_555 1_555
H12_2 C15_2 1_555 1_555
C17_2 N4_2 1_555 1_555
C18_2 N5_2 1_555 1_555
C19_2 H13_2 1_555 1_555
C23_2 N7_2 1_555 1_555
H16_2 C23_2 1_555 1_555
Zn6_2 N3_2 1_555 1_555
Cl11_2 Zn6_2 1_555 1_555
Cl12_2 Zn6_2 1_555 1_555
N6_2 C18_2 1_555 1_555
N7_2 Zn6_2 1_555 1_555
C8_2 C17_2 1_555 1_555
C9_2 C10_2 1_555 1_555
C13_2 C18_2 1_555 1_555
C14_2 C15_2 1_555 1_555
Zn3_2 Cl2_2 1_555 1_555
Cl5_2 Zn3_2 1_555 1_555
N8_2 Zn3_2 1_555 1_555
N26 C29_2 1_555 1_555
N10_2 C34_2 1_555 1_555
N11_2 C35_2 1_555 1_555
N12_2 C34_2 1_555 1_555
N13_2 Zn3_2 1_555 1_555
N15_2 C47_2 1_555 1_555
N16_2 C52_2 1_555 1_555
N17_2 C53_2 1_555 1_555
N18_2 C52_2 1_555 1_555
H14_2 C20_2 1_555 1_555
C21_2 C20_2 1_555 1_555
C22_2 C21_2 1_555 1_555
H15_2 C22_2 1_555 1_555
C24_2 N8_2 1_555 1_555
H17_2 C24_2 1_555 1_555
C25_2 C24_2 1_555 1_555
H18_2 C25_2 1_555 1_555
C26_2 C25_2 1_555 1_555
C27_2 C26_2 1_555 1_555
H19_2 C27_2 1_555 1_555
C28_2 N8_2 1_555 1_555
H20_2 C28_2 1_555 1_555
C29_2 H21_2 1_555 1_555
C30_2 C29_2 1_555 1_555
H22_2 C30_2 1_555 1_555
C31_2 C30_2 1_555 1_555
C32_2 C31_2 1_555 1_555
H23_2 C32_2 1_555 1_555
C33_2 N26 1_555 1_555
H24_2 C33_2 1_555 1_555
C34_2 C21_2 1_555 1_555
C35_2 N10_2 1_555 1_555
C36_2 N11_2 1_555 1_555
C37_2 N13_2 1_555 1_555
H25_2 C37_2 1_555 1_555
C38_2 C37_2 1_555 1_555
H26_2 C38_2 1_555 1_555
C39_2 C38_2 1_555 1_555
C40_2 C39_2 1_555 1_555
H27_2 C40_2 1_555 1_555
C41_2 N13_2 1_555 1_555
H28_2 C41_2 1_555 1_555
C47_2 H33_2 1_555 1_555
C48_2 C47_2 1_555 1_555
H34_2 C48_2 1_555 1_555
C49_2 C48_2 1_555 1_555
C50_2 C49_2 1_555 1_555
H35_2 C50_2 1_555 1_555
C51_2 N15_2 1_555 1_555
H36_2 C51_2 1_555 1_555
C52_2 C39_2 1_555 1_555
C53_2 N16_2 1_555 1_555
C54_2 N17_2 1_555 1_555
Zn9 N15_2 1_555 1_555
Cl9_2 Zn9 1_555 1_555
N12_2 C36_2 1_555 1_555
N18_2 C54_2 1_555 1_555
C26_2 C35_2 1_555 1_555
C27_2 C28_2 1_555 1_555
C31_2 C36_2 1_555 1_555
C32_2 C33_2 1_555 1_555
C40_2 C41_2 1_555 1_555
C49_2 C54_2 1_555 1_555
C50_2 C51_2 1_555 1_555
N2_2 C6_3 1_555 1_555
C6_3 H5_3 1_555 1_555
C7_3 C6_3 1_555 1_555
H7_3 C9_3 1_555 1_555
C10_3 N2_2 1_555 1_555
H8_3 C10_3 1_555 1_555
Zn7_2 N2_2 1_555 1_555
C9_3 C10_3 1_555 1_555
Zn7_2 Cl3_3 1_555 1_555
Cl4_3 Zn7_2 1_555 1_555
N21_3 Zn7_2 1_555 1_555
C65_3 N21_3 1_555 1_555
H45_3 C65_3 1_555 1_555
C66_3 C65_3 1_555 1_555
C67_3 C66_3 1_555 1_555
C68_3 C67_3 1_555 1_555
H47_3 C68_3 1_555 1_555
C69_3 N21_3 1_555 1_555
H48_3 C69_3 1_555 1_555
C68_3 C69_3 1_555 1_555
Zn2_2 Cl6_3 1_555 1_555
Zn4_3 Cl1_3 1_555 1_555
Cl7_3 Zn2_2 1_555 1_555
Cl8_3 Zn4_3 1_555 1_555
N1_3 Zn2_2 1_555 1_555
N3_3 C11_3 1_555 1_555
N4_3 C16_3 1_555 1_555
N5_3 C17_3 1_555 1_555
N6_3 C16_3 1_555 1_555
N7_3 C19_3 1_555 1_555
N9_2 C29_3 1_555 1_555
N10_3 C34_3 1_555 1_555
N11_3 C35_3 1_555 1_555
N12_3 C34_3 1_555 1_555
N14_3 Zn4_3 1_555 1_555
N15_3 C47_3 1_555 1_555
N16_3 C52_3 1_555 1_555
N17_3 C53_3 1_555 1_555
N18_3 C52_3 1_555 1_555
N19_3 Zn4_3 1_555 1_555
N20_2 C60_3 1_555 1_555
N22_3 C70_3 1_555 1_555
N23_3 C71_3 1_555 1_555
N24_3 C70_3 1_555 1_555
C1_3 N1_3 1_555 1_555
H1_3 C1_3 1_555 1_555
C2_3 C1_3 1_555 1_555
H2_3 C2_3 1_555 1_555
C3_3 C2_3 1_555 1_555
C4_3 C3_3 1_555 1_555
H3_3 C4_3 1_555 1_555
C5_3 N1_3 1_555 1_555
H4_3 C5_3 1_555 1_555
C11_3 H9_3 1_555 1_555
C12_3 C11_3 1_555 1_555
H10_3 C12_3 1_555 1_555
C13_3 C12_3 1_555 1_555
C14_3 C13_3 1_555 1_555
H11_3 C14_3 1_555 1_555
C15_3 N3_3 1_555 1_555
H12_3 C15_3 1_555 1_555
C16_3 C3_3 1_555 1_555
C17_3 N4_3 1_555 1_555
C18_3 N5_3 1_555 1_555
C19_3 H13_3 1_555 1_555
C20_3 C19_3 1_555 1_555
H14_3 C20_3 1_555 1_555
C21_3 C20_3 1_555 1_555
C22_3 C21_3 1_555 1_555
H15_3 C22_3 1_555 1_555
C23_3 N7_3 1_555 1_555
H16_3 C23_3 1_555 1_555
C24_3 N8_3 1_555 1_555
H17_3 C24_3 1_555 1_555
C25_3 C24_3 1_555 1_555
H18_3 C25_3 1_555 1_555
C26_3 C25_3 1_555 1_555
C27_3 C26_3 1_555 1_555
H19_3 C27_3 1_555 1_555
C29_3 H21_3 1_555 1_555
C30_3 C29_3 1_555 1_555
H22_3 C30_3 1_555 1_555
C31_3 C30_3 1_555 1_555
C32_3 C31_3 1_555 1_555
H23_3 C32_3 1_555 1_555
C33_3 N9_2 1_555 1_555
C34_3 C21_3 1_555 1_555
C35_3 N10_3 1_555 1_555
C36_3 N11_3 1_555 1_555
C37_3 N13_3 1_555 1_555
H25_3 C37_3 1_555 1_555
C38_3 C37_3 1_555 1_555
H26_3 C38_3 1_555 1_555
C39_3 C38_3 1_555 1_555
C40_3 C39_3 1_555 1_555
H27_3 C40_3 1_555 1_555
C41_3 N13_3 1_555 1_555
H28_3 C41_3 1_555 1_555
C42_3 N14_3 1_555 1_555
H29_3 C42_3 1_555 1_555
C43_3 C42_3 1_555 1_555
H30_3 C43_3 1_555 1_555
C44_3 C43_3 1_555 1_555
C45_3 C44_3 1_555 1_555
H31_3 C45_3 1_555 1_555
C46_3 N14_3 1_555 1_555
H32_3 C46_3 1_555 1_555
C47_3 H33_3 1_555 1_555
C48_3 C47_3 1_555 1_555
H34_3 C48_3 1_555 1_555
C49_3 C48_3 1_555 1_555
C50_3 C49_3 1_555 1_555
H35_3 C50_3 1_555 1_555
C51_3 N15_3 1_555 1_555
H36_3 C51_3 1_555 1_555
C52_3 C39_3 1_555 1_555
C53_3 N16_3 1_555 1_555
C54_3 N17_3 1_555 1_555
C55_3 N19_3 1_555 1_555
H37_3 C55_3 1_555 1_555
C56_3 C55_3 1_555 1_555
H38_3 C56_3 1_555 1_555
C57_3 C56_3 1_555 1_555
C58_3 C57_3 1_555 1_555
H39_3 C58_3 1_555 1_555
C59_3 N19_3 1_555 1_555
H40_3 C59_3 1_555 1_555
C60_3 H41_3 1_555 1_555
C61_3 C60_3 1_555 1_555
H42_3 C61_3 1_555 1_555
C62_3 C61_3 1_555 1_555
C63_3 C62_3 1_555 1_555
C64_3 N20_2 1_555 1_555
C70_3 C57_3 1_555 1_555
C71_3 N22_3 1_555 1_555
C72_3 N23_3 1_555 1_555
Zn5_2 N15_3 1_555 1_555
Cl9_3 Zn5_2 1_555 1_555
Zn6_3 N3_3 1_555 1_555
Cl11_3 Zn6_3 1_555 1_555
Cl12_3 Zn6_3 1_555 1_555
N26_2 Zn2_2 1_555 1_555
N27_2 Zn5_2 1_555 1_555
N6_3 C18_3 1_555 1_555
N7_3 Zn6_3 1_555 1_555
N12_3 C36_3 1_555 1_555
N18_3 C54_3 1_555 1_555
N24_3 C72_3 1_555 1_555
C4_3 C5_3 1_555 1_555
C8_3 C17_3 1_555 1_555
C13_3 C18_3 1_555 1_555
C14_3 C15_3 1_555 1_555
C22_3 C23_3 1_555 1_555
C26_3 C35_3 1_555 1_555
C31_3 C36_3 1_555 1_555
C32_3 C33_3 1_555 1_555
C40_3 C41_3 1_555 1_555
C44_3 C53_3 1_555 1_555
C45_3 C46_3 1_555 1_555
C49_3 C54_3 1_555 1_555
C50_3 C51_3 1_555 1_555
C58_3 C59_3 1_555 1_555
C62_3 C71_3 1_555 1_555
C63_3 C64_3 1_555 1_555
Zn1_2 Cl3_4 1_555 1_555
Cl4_4 Zn1_2 1_555 1_555
N21_4 Zn1_2 1_555 1_555
C65_4 N21_4 1_555 1_555
H45_4 C65_4 1_555 1_555
C66_4 C65_4 1_555 1_555
H46_2 C66_4 1_555 1_555
C67_4 C66_4 1_555 1_555
C68_4 C67_4 1_555 1_555
H47_4 C68_4 1_555 1_555
C69_4 N21_4 1_555 1_555
H48_4 C69_4 1_555 1_555
N25_2 Zn1_2 1_555 1_555
C68_4 C69_4 1_555 1_555
Zn3_3 Cl2_3 1_555 1_555
Cl5_3 Zn3_3 1_555 1_555
H20_3 C28_3 1_555 1_555
N25_2 C6_4 1_555 1_555
N3_4 C11_4 1_555 1_555
N4_4 C16_4 1_555 1_555
N5_4 C17_4 1_555 1_555
N6_4 C16_4 1_555 1_555
N7_4 C19_4 1_555 1_555
C6_4 H5_4 1_555 1_555
C7_4 C6_4 1_555 1_555
H6_4 C7_4 1_555 1_555
C8_4 C7_4 1_555 1_555
C9_4 C8_4 1_555 1_555
H7_4 C9_4 1_555 1_555
C10_4 N25_2 1_555 1_555
H8_4 C10_4 1_555 1_555
C11_4 H9_4 1_555 1_555
C12_4 C11_4 1_555 1_555
H10_4 C12_4 1_555 1_555
C13_4 C12_4 1_555 1_555
C14_4 C13_4 1_555 1_555
H11_4 C14_4 1_555 1_555
C15_4 N3_4 1_555 1_555
H12_4 C15_4 1_555 1_555
C17_4 N4_4 1_555 1_555
C18_4 N5_4 1_555 1_555
C19_4 H13_4 1_555 1_555
C23_4 N7_4 1_555 1_555
H16_4 C23_4 1_555 1_555
Zn6_4 N3_4 1_555 1_555
Cl11_4 Zn6_4 1_555 1_555
Cl12_4 Zn6_4 1_555 1_555
N6_4 C18_4 1_555 1_555
N7_4 Zn6_4 1_555 1_555
C8_4 C17_4 1_555 1_555
C9_4 C10_4 1_555 1_555
C13_4 C18_4 1_555 1_555
C14_4 C15_4 1_555 1_555
Zn3_4 Cl2_4 1_555 1_555
Cl5_4 Zn3_4 1_555 1_555
N8_4 Zn3_4 1_555 1_555
N26_2 C29_4 1_555 1_555
N10_4 C34_4 1_555 1_555
N11_4 C35_4 1_555 1_555
N12_4 C34_4 1_555 1_555
N13_4 Zn3_4 1_555 1_555
N15_4 C47_4 1_555 1_555
N16_4 C52_4 1_555 1_555
N17_4 C53_4 1_555 1_555
N18_4 C52_4 1_555 1_555
H14_4 C20_4 1_555 1_555
C21_4 C20_4 1_555 1_555
C22_4 C21_4 1_555 1_555
H15_4 C22_4 1_555 1_555
C24_4 N8_4 1_555 1_555
H17_4 C24_4 1_555 1_555
C25_4 C24_4 1_555 1_555
H18_4 C25_4 1_555 1_555
C26_4 C25_4 1_555 1_555
C27_4 C26_4 1_555 1_555
H19_4 C27_4 1_555 1_555
C28_4 N8_4 1_555 1_555
H20_4 C28_4 1_555 1_555
C29_4 H21_4 1_555 1_555
C30_4 C29_4 1_555 1_555
H22_4 C30_4 1_555 1_555
C31_4 C30_4 1_555 1_555
C32_4 C31_4 1_555 1_555
H23_4 C32_4 1_555 1_555
C33_4 N26_2 1_555 1_555
H24_4 C33_4 1_555 1_555
C34_4 C21_4 1_555 1_555
C35_4 N10_4 1_555 1_555
C36_4 N11_4 1_555 1_555
C37_4 N13_4 1_555 1_555
H25_4 C37_4 1_555 1_555
C38_4 C37_4 1_555 1_555
H26_4 C38_4 1_555 1_555
C39_4 C38_4 1_555 1_555
C40_4 C39_4 1_555 1_555
H27_4 C40_4 1_555 1_555
C41_4 N13_4 1_555 1_555
H28_4 C41_4 1_555 1_555
C47_4 H33_4 1_555 1_555
C48_4 C47_4 1_555 1_555
H34_4 C48_4 1_555 1_555
C49_4 C48_4 1_555 1_555
C50_4 C49_4 1_555 1_555
H35_4 C50_4 1_555 1_555
C51_4 N15_4 1_555 1_555
H36_4 C51_4 1_555 1_555
C52_4 C39_4 1_555 1_555
C53_4 N16_4 1_555 1_555
C54_4 N17_4 1_555 1_555
Zn9_2 N15_4 1_555 1_555
Cl9_4 Zn9_2 1_555 1_555
N12_4 C36_4 1_555 1_555
N18_4 C54_4 1_555 1_555
C26_4 C35_4 1_555 1_555
C27_4 C28_4 1_555 1_555
C31_4 C36_4 1_555 1_555
C32_4 C33_4 1_555 1_555
C40_4 C41_4 1_555 1_555
C49_4 C54_4 1_555 1_555
C50_4 C51_4 1_555 1_555
Zn4_4 Cl1_4 1_555 1_555
Cl8_4 Zn4_4 1_555 1_555
N14_4 Zn4_4 1_555 1_555
N19_4 Zn4_4 1_555 1_555
N24_4 C70_4 1_555 1_555
C1_4 N1_4 1_555 1_555
H1_4 C1_4 1_555 1_555
C2_4 C1_4 1_555 1_555
H2_4 C2_4 1_555 1_555
C3_4 C2_4 1_555 1_555
C4_4 C3_4 1_555 1_555
C5_4 N1_4 1_555 1_555
H4_4 C5_4 1_555 1_555
C42_4 N14_4 1_555 1_555
H29_4 C42_4 1_555 1_555
C43_4 C42_4 1_555 1_555
C44_4 C43_4 1_555 1_555
C45_4 C44_4 1_555 1_555
H31_4 C45_4 1_555 1_555
C46_4 N14_4 1_555 1_555
H32_4 C46_4 1_555 1_555
C55_4 N19_4 1_555 1_555
H37_4 C55_4 1_555 1_555
C56_4 C55_4 1_555 1_555
C57_4 C56_4 1_555 1_555
C58_4 C57_4 1_555 1_555
H39_4 C58_4 1_555 1_555
C59_4 N19_4 1_555 1_555
H40_4 C59_4 1_555 1_555
C70_4 C57_4 1_555 1_555
N24_4 C72_4 1_555 1_555
C4_4 C5_4 1_555 1_555
C45_4 C46_4 1_555 1_555
C58_4 C59_4 1_555 1_555
Zn8_2 Cl6_4 1_555 1_555
Cl7_4 Zn8_2 1_555 1_555
N27_2 C60_4 1_555 1_555
N23_4 C71_4 1_555 1_555
C60_4 H41_4 1_555 1_555
C61_4 C60_4 1_555 1_555
H42_4 C61_4 1_555 1_555
C62_4 C61_4 1_555 1_555
C63_4 C62_4 1_555 1_555
C64_4 N27_2 1_555 1_555
C71_4 N22_4 1_555 1_555
C62_4 C71_4 1_555 1_555
C63_4 C64_4 1_555 1_555

#END
