
###############################################################################
#
# This file contains modified crystal structure data generated from the
# MOF subset of the Cambridge Structural Database (CSD) v543 
# hosted by the Cambridge Crystallographic Data Centre (CCDC).
#
# This work is licensed under the Creative Commons
# Attribution-NonCommercial-ShareAlike 4.0 International License.
# To view a copy of this license, visit
# http://creativecommons.org/licenses/by-nc-sa/4.0/
# or send a letter to
# Creative Commons, PO Box 1866, Mountain View, CA 94042, USA.
#
# CIF created using the CSD Python API on 29 September 2022
# The structure has been converted into the P1 space group
# The structure has a 3D framework
# The original CSD entry SAVKAF is in the monoclinic crystal system
# The original CSD entry SAVKAF is in a Sohncke space group
# The framework has been calculated to contain at least 10.0% void space
# The void calculation uses a probe of radius 1.32A, grid spacing 0.4
#
###############################################################################

data_SAVKAF
_chemical_formula_moiety         '(C288 H192 Cl48 N96 Zn24)n'
_symmetry_cell_setting           triclinic
_symmetry_space_group_name_H-M   'P 1'
_symmetry_Int_Tables_number      1
_space_group_name_Hall           'P 1'
loop_
_symmetry_equiv_pos_site_id
_symmetry_equiv_pos_as_xyz
1 x,y,z
_cell_length_a                   33.9019(5)
_cell_length_b                   14.44940(10)
_cell_length_c                   29.8606(4)
_cell_angle_alpha                90
_cell_angle_beta                 99.6960(10)
_cell_angle_gamma                90
_cell_volume                     14418.6
loop_
_atom_site_label
_atom_site_type_symbol
_atom_site_fract_x
_atom_site_fract_y
_atom_site_fract_z
H13 H 0.315764 0.037123 0.613972
H24 H 0.137753 0.044932 0.428630
Cl1 Cl 0.40382(17) 0.1129(4) 0.64419(19)
Cl2 Cl 0.36118(17) 0.0246(4) 0.74851(18)
Zn4 Zn 0.07920(7) 0.01181(17) 0.34529(8)
Cl7 Cl 0.11694(16) 0.1086(3) 0.31342(18)
Cl8 Cl 0.03041(17) 0.0597(4) 0.37947(17)
N1 N 0.5591(4) 0.3206(11) 0.8030(5)
N2 N 0.4313(4) 0.9076(11) 0.6975(5)
N3 N 0.6593(6) 0.7011(13) 0.5837(6)
N4 N 0.5202(5) 0.6255(10) 0.7259(5)
N5 N 0.5439(5) 0.7134(10) 0.6691(5)
N6 N 0.5722(5) 0.5645(10) 0.6892(5)
N7 N 0.3392(5) 0.9276(11) 0.6449(5)
N8 N 0.2055(6) 0.3622(10) 0.5412(6)
N9 N 0.1167(5) 0.9354(10) 0.3928(5)
N10 N 0.2404(5) 0.6993(11) 0.5645(5)
N11 N 0.1864(5) 0.6991(9) 0.5031(5)
N12 N 0.2194(5) 0.8406(10) 0.5277(5)
N13 N 0.0585(5) 0.9081(9) 0.2994(5)
N15 N 0.1542(5) 0.5258(9) 0.0823(5)
N16 N 0.0168(4) 0.5987(10) 0.2267(5)
N17 N 0.0431(5) 0.5107(12) 0.1723(5)
N18 N 0.0694(5) 0.6547(10) 0.1906(5)
N19 N 0.2027(6) 0.3639(12) 0.0346(6)
N22 N 0.2448(5) 0.0343(10) 0.0598(5)
N24 N 0.1873(4) 0.0297(12) 0.0025(5)
C1 C 0.5312(5) 0.3834(11) 0.8077(6)
H1 H 0.514316 0.373869 0.829580
C2 C 0.5265(6) 0.4638(10) 0.7805(6)
H2 H 0.507559 0.510159 0.784537
C3 C 0.5504(5) 0.4723(11) 0.7482(6)
C4 C 0.5783(6) 0.4052(14) 0.7416(7)
H3 H 0.594552 0.409464 0.718666
C5 C 0.5802(6) 0.3330(13) 0.7712(7)
H4 H 0.599262 0.286246 0.768095
C6 C 0.4308(6) 0.8299(12) 0.7246(6)
H5 H 0.409849 0.820634 0.741625
C7 C 0.4610(6) 0.7670(12) 0.7265(6)
H6 H 0.461891 0.717459 0.747542
C8 C 0.4887(5) 0.7709(12) 0.7009(6)
C9 C 0.4906(6) 0.8520(15) 0.6741(8)
H7 H 0.511703 0.862104 0.657369
C10 C 0.4595(7) 0.9160(13) 0.6740(7)
H8 H 0.459213 0.969135 0.655166
C11 C 0.6267(11) 0.7411(17) 0.5789(10)
H9 H 0.621816 0.786192 0.555489
C12 C 0.5955(7) 0.7270(13) 0.6048(8)
H10 H 0.572388 0.765190 0.600207
C13 C 0.5995(7) 0.6561(11) 0.6371(7)
C14 C 0.6350(7) 0.6077(18) 0.6404(8)
H11 H 0.639999 0.557028 0.660802
C15 C 0.6637(8) 0.6326(14) 0.6138(8)
H12 H 0.687984 0.598231 0.617617
C16 C 0.5479(5) 0.5600(11) 0.7203(6)
C17 C 0.5205(5) 0.7037(11) 0.6988(5)
C18 C 0.5714(5) 0.6437(11) 0.6666(6)
C19 C 0.3124(6) 0.9721(14) 0.6164(7)
C20 C 0.2793(6) 0.9326(13) 0.5891(7)
H14 H 0.260360 0.969598 0.569995
C21 C 0.2751(6) 0.8393(11) 0.5908(5)
C22 C 0.3043(5) 0.7857(12) 0.6212(6)
H15 H 0.301885 0.720433 0.623518
C23 C 0.3360(6) 0.8337(11) 0.6468(6)
H16 H 0.356044 0.799876 0.666155
C24 C 0.2369(7) 0.4105(18) 0.5658(8)
H17 H 0.257574 0.377843 0.584828
C25 C 0.2386(6) 0.5028(12) 0.5634(6)
H18 H 0.260894 0.533154 0.580885
C26 C 0.2105(6) 0.5558(13) 0.5374(6)
C27 C 0.1783(7) 0.5072(15) 0.5116(7)
H19 H 0.157890 0.540155 0.492370
C28 C 0.1764(8) 0.4160(17) 0.5141(7)
H20 H 0.154203 0.385401 0.496664
C29 C 0.1209(6) 0.8389(13) 0.3920(7)
H21 H 0.107152 0.804229 0.367143
C30 C 0.1447(7) 0.7948(15) 0.4269(7)
H22 H 0.147009 0.729336 0.426138
C31 C 0.1653(6) 0.8426(13) 0.4629(7)
C32 C 0.1628(6) 0.9353(14) 0.4640(7)
H23 H 0.177080 0.969767 0.488569
C33 C 0.1387(7) 0.9792(14) 0.4282(7)
C34 C 0.2426(5) 0.7886(11) 0.5588(6)
C35 C 0.2116(6) 0.6548(13) 0.5350(6)
C36 C 0.1909(6) 0.7909(15) 0.5005(6)
C37 C 0.0767(7) 0.9003(13) 0.2624(7)
H25 H 0.092874 0.949574 0.254811
C38 C 0.0720(6) 0.8212(12) 0.2355(6)
H26 H 0.085932 0.815856 0.210501
C39 C 0.0462(6) 0.7476(13) 0.2452(6)
C40 C 0.0263(5) 0.7636(14) 0.2818(6)
H27 H 0.007177 0.720039 0.288497
C41 C 0.0342(6) 0.8427(13) 0.3088(6)
H28 H 0.021582 0.849421 0.334761
H31 H 0.006703 0.365828 0.157903
C47 C 0.1591(7) 0.5975(13) 0.1144(6)
H33 H 0.182155 0.635862 0.117221
C48 C 0.1318(6) 0.6127(11) 0.1409(6)
H34 H 0.135463 0.662164 0.162179
C49 C 0.0975(6) 0.5556(14) 0.1377(6)
C50 C 0.0931(8) 0.4853(14) 0.1057(7)
H35 H 0.070615 0.445188 0.102885
C51 C 0.1199(5) 0.4740(12) 0.0793(6)
H36 H 0.115262 0.427209 0.056663
C52 C 0.0442(5) 0.6632(10) 0.2191(5)
C53 C 0.0161(5) 0.5255(11) 0.2001(5)
C54 C 0.0672(6) 0.5738(12) 0.1678(6)
C55 C 0.2338(7) 0.3235(12) 0.0605(7)
H37 H 0.252214 0.361734 0.079660
C56 C 0.2407(6) 0.2322(13) 0.0611(6)
H38 H 0.263313 0.204476 0.079382
C57 C 0.2116(6) 0.1810(13) 0.0323(6)
C58 C 0.1803(6) 0.2198(13) 0.0042(6)
C59 C 0.1762(7) 0.3159(14) 0.0066(7)
H42 H 0.309165 0.005775 0.113121
C70 C 0.2152(6) 0.0717(11) 0.0314(5)
Zn1 Zn 0.38432(7) 0.99811(16) 0.68512(8)
Zn2 Zn 0.57435(7) 0.21819(16) 0.85206(8)
Cl3 Cl 0.52154(15) 0.1841(4) 0.88250(16)
Cl4 Cl 0.61284(15) 0.1144(3) 0.82464(18)
Zn3 Zn 0.70102(10) 0.72290(19) 0.54440(11)
Cl5 Cl 0.7586(2) 0.6717(4) 0.5805(3)
Cl6 Cl 0.6736(3) 0.6822(5) 0.4755(3)
Zn6 Zn 0.19193(12) 0.50693(18) 0.03678(12)
Cl11 Cl 0.2488(3) 0.5733(5) 0.0661(3)
N25 N 0.7055(6) 0.8622(10) 0.5412(6)
N27 N 0.6132(5) 0.2951(12) 0.9000(6)
Zn8 Zn 0.20102(10) 0.22290(19) 0.54440(11)
N20 N 0.3390(4) 0.8008(11) 0.1444(5)
N23 N 0.2210(4) 0.8902(10) 0.0296(5)
C60 C 0.3387(6) 0.8927(14) 0.1419(6)
H41 H 0.359813 0.926760 0.159453
C61 C 0.3082(6) 0.9401(14) 0.1144(6)
C62 C 0.2776(6) 0.8955(13) 0.0897(6)
C63 C 0.2779(6) 0.7999(13) 0.0925(6)
H43 H 0.256809 0.765673 0.074988
C64 C 0.3091(6) 0.7516(12) 0.1212(7)
H44 H 0.308608 0.686123 0.123685
C71 C 0.2464(5) 0.9415(11) 0.0592(6)
C72 C 0.1924(5) 0.9373(10) 0.0021(5)
Zn9 Zn 0.38163(7) 0.72153(18) 0.18603(8)
N14 N 0.9289(5) 0.3119(10) 0.2004(5)
C42 C 0.9288(6) 0.3826(13) 0.2280(7)
H29 H 0.909599 0.384723 0.247787
C43 C 0.9569(6) 0.4562(12) 0.2290(6)
H30 H 0.954701 0.509298 0.247160
C44 C 0.9879(5) 0.4504(13) 0.2031(6)
C45 C 0.9870(7) 0.3729(13) 0.1768(7)
C46 C 0.9584(6) 0.3042(16) 0.1764(7)
H32 H 0.959925 0.250213 0.158654
Zn5 Zn 0.88163(7) 0.22153(18) 0.18603(8)
Cl9 Cl 0.90137(19) 0.1116(4) 0.1427(2)
Cl10 Cl 0.85614(18) 0.1868(4) 0.2466(2)
N26 N 0.8390(4) 0.3008(11) 0.1444(5)
N3_2 N 0.1593(6) 0.2011(13) 0.5837(6)
N4_2 N 0.0202(5) 0.1255(10) 0.7259(5)
N5_2 N 0.0439(5) 0.2134(10) 0.6691(5)
N6_2 N 0.0722(5) 0.0645(10) 0.6892(5)
H2_2 H 0.007559 0.010159 0.784537
H7_2 H 0.011703 0.362104 0.657369
C11_2 C 0.1267(11) 0.2411(17) 0.5789(10)
H9_2 H 0.121816 0.286192 0.555489
C12_2 C 0.0955(7) 0.2270(13) 0.6048(8)
H10_2 H 0.072388 0.265190 0.600207
C13_2 C 0.0995(7) 0.1561(11) 0.6371(7)
C14_2 C 0.1350(7) 0.1077(18) 0.6404(8)
H11_2 H 0.139999 0.057028 0.660802
C15_2 C 0.1637(8) 0.1326(14) 0.6138(8)
H12_2 H 0.187984 0.098231 0.617617
C16_2 C 0.0479(5) 0.0600(11) 0.7203(6)
C17_2 C 0.0205(5) 0.2037(11) 0.6988(5)
C18_2 C 0.0714(5) 0.1437(11) 0.6666(6)
Cl5_2 Cl 0.2586(2) 0.1717(4) 0.5805(3)
Cl6_2 Cl 0.1736(3) 0.1822(5) 0.4755(3)
N14_2 N 0.4289(5) 0.8119(10) 0.2004(5)
N19_2 N 0.7027(6) 0.8639(12) 0.0346(6)
N22_2 N 0.7448(5) 0.5343(10) 0.0598(5)
N23_2 N 0.7210(4) 0.3902(10) 0.0296(5)
N24_2 N 0.6873(4) 0.5297(12) 0.0025(5)
C24_2 C 0.7369(7) 0.9105(18) 0.5658(8)
H17_2 H 0.757574 0.877843 0.584828
C28_2 C 0.6764(8) 0.9160(17) 0.5141(7)
H20_2 H 0.654203 0.885401 0.496664
C42_2 C 0.4288(6) 0.8826(13) 0.2280(7)
H29_2 H 0.409599 0.884723 0.247787
C43_2 C 0.4569(6) 0.9562(12) 0.2290(6)
C44_2 C 0.4879(5) 0.9504(13) 0.2031(6)
C45_2 C 0.4870(7) 0.8729(13) 0.1768(7)
H31_2 H 0.506703 0.865828 0.157903
C46_2 C 0.4584(6) 0.8042(16) 0.1764(7)
H32_2 H 0.459925 0.750213 0.158654
C50_2 C 0.5931(8) 0.9853(14) 0.1057(7)
H35_2 H 0.570615 0.945188 0.102885
C51_2 C 0.6199(5) 0.9740(12) 0.0793(6)
H36_2 H 0.615262 0.927209 0.056663
C55_2 C 0.7338(7) 0.8235(12) 0.0605(7)
H37_2 H 0.752214 0.861734 0.079660
C56_2 C 0.7407(6) 0.7322(13) 0.0611(6)
H38_2 H 0.763313 0.704476 0.079382
C57_2 C 0.7116(6) 0.6810(13) 0.0323(6)
C58_2 C 0.6803(6) 0.7198(13) 0.0042(6)
C59_2 C 0.6762(7) 0.8159(14) 0.0066(7)
C60_2 C 0.8387(6) 0.3927(14) 0.1419(6)
H41_2 H 0.859813 0.426760 0.159453
C61_2 C 0.8082(6) 0.4401(14) 0.1144(6)
H42_2 H 0.809165 0.505775 0.113121
C62_2 C 0.7776(6) 0.3955(13) 0.0897(6)
C63_2 C 0.7779(6) 0.2999(13) 0.0925(6)
H43_2 H 0.756809 0.265673 0.074988
C64_2 C 0.8091(6) 0.2516(12) 0.1212(7)
H44_2 H 0.808608 0.186123 0.123685
C70_2 C 0.7152(6) 0.5717(11) 0.0314(5)
C71_2 C 0.7464(5) 0.4415(11) 0.0592(6)
C72_2 C 0.6924(5) 0.4373(10) 0.0021(5)
Cl9_2 Cl 0.40137(19) 0.6116(4) 0.1427(2)
Cl10_2 Cl 0.35614(18) 0.6868(4) 0.2466(2)
H39 H 0.662036 0.683362 0.983901
H40 H 0.654502 0.846322 0.988131
C65 C 0.6361(7) 0.2463(12) 0.9330(7)
H45 H 0.634244 0.180685 0.932794
C66 C 0.6621(6) 0.2890(14) 0.9670(7)
H46 H 0.678337 0.253511 0.989775
C67 C 0.6643(4) 0.3850(11) 0.9674(5)
C68 C 0.6404(6) 0.4355(13) 0.9330(7)
H47 H 0.640937 0.501127 0.931752
C69 C 0.6156(7) 0.3817(13) 0.9006(7)
H48 H 0.599080 0.414178 0.876906
H39_2 H 0.162036 0.183362 0.983901
H40_2 H 0.154502 0.346322 0.988131
H47_2 H 0.140937 0.001127 0.931752
Cl12 Cl 0.1522(4) 0.5303(5) 0.9712(2)
N21 N 0.1132(5) 0.7951(12) 0.9000(6)
C65_2 C 0.1361(7) 0.7463(12) 0.9330(7)
H45_2 H 0.134244 0.680685 0.932794
C66_2 C 0.1621(6) 0.7890(14) 0.9670(7)
H46_2 H 0.178337 0.753511 0.989775
C67_2 C 0.1643(4) 0.8850(11) 0.9674(5)
C68_2 C 0.1404(6) 0.9355(13) 0.9330(7)
C69_2 C 0.1156(7) 0.8817(13) 0.9006(7)
H48_2 H 0.099080 0.914178 0.876906
Zn7 Zn 0.07435(7) 0.71819(16) 0.85206(8)
N1_2 N 0.0591(4) 0.8206(11) 0.8030(5)
C1_2 C 0.0312(5) 0.8834(11) 0.8077(6)
H1_2 H 0.014316 0.873869 0.829580
C2_2 C 0.0265(6) 0.9638(10) 0.7805(6)
C3_2 C 0.0504(5) 0.9723(11) 0.7482(6)
C4_2 C 0.0783(6) 0.9052(14) 0.7416(7)
H3_2 H 0.094552 0.909464 0.718666
C5_2 C 0.0802(6) 0.8330(13) 0.7712(7)
H4_2 H 0.099262 0.786246 0.768095
Cl3_2 Cl 0.02154(15) 0.6841(4) 0.88250(16)
Cl4_2 Cl 0.11284(15) 0.6144(3) 0.82464(18)
N14_3 N 0.0711(5) 0.3119(10) 0.7996(5)
C42_3 C 0.0712(6) 0.3826(13) 0.7720(7)
H29_3 H 0.090401 0.384723 0.752213
C43_3 C 0.0431(6) 0.4562(12) 0.7710(6)
H30_2 H 0.045299 0.509298 0.752840
C44_3 C 0.0121(5) 0.4504(13) 0.7969(6)
C45_3 C 0.0130(7) 0.3729(13) 0.8232(7)
C46_3 C 0.0416(6) 0.3042(16) 0.8236(7)
H32_3 H 0.040075 0.250213 0.841346
Zn5_2 Zn 0.11837(7) 0.22153(18) 0.81397(8)
Cl9_3 Cl 0.09863(19) 0.1116(4) 0.8573(2)
Cl10_3 Cl 0.14386(18) 0.1868(4) 0.7534(2)
N26_2 N 0.1610(4) 0.3008(11) 0.8556(5)
N1_3 N 0.4409(4) 0.3206(11) 0.1970(5)
N2_2 N 0.5687(4) 0.9076(11) 0.3025(5)
N3_3 N 0.3407(6) 0.7011(13) 0.4163(6)
N4_3 N 0.4798(5) 0.6255(10) 0.2741(5)
N5_3 N 0.4561(5) 0.7134(10) 0.3309(5)
N6_3 N 0.4278(5) 0.5645(10) 0.3108(5)
N7_2 N 0.6608(5) 0.9276(11) 0.3551(5)
N8_2 N 0.7945(6) 0.3622(10) 0.4588(6)
N9_2 N 0.8833(5) 0.9354(10) 0.6072(5)
N10_2 N 0.7596(5) 0.6993(11) 0.4355(5)
N11_2 N 0.8136(5) 0.6991(9) 0.4969(5)
N12_2 N 0.7806(5) 0.8406(10) 0.4723(5)
N13_2 N 0.9415(5) 0.9081(9) 0.7006(5)
N15_2 N 0.8458(5) 0.5258(9) 0.9177(5)
N16_2 N 0.9832(4) 0.5987(10) 0.7733(5)
N17_2 N 0.9569(5) 0.5107(12) 0.8277(5)
N18_2 N 0.9306(5) 0.6547(10) 0.8094(5)
N19_3 N 0.7973(6) 0.3639(12) 0.9654(6)
N22_3 N 0.7552(5) 0.0343(10) 0.9402(5)
N24_3 N 0.8127(4) 0.0297(12) 0.9975(5)
C1_3 C 0.4688(5) 0.3834(11) 0.1923(6)
H1_3 H 0.485684 0.373869 0.170420
C2_3 C 0.4735(6) 0.4638(10) 0.2195(6)
H2_3 H 0.492441 0.510159 0.215463
C3_3 C 0.4496(5) 0.4723(11) 0.2518(6)
C4_3 C 0.4217(6) 0.4052(14) 0.2584(7)
H3_3 H 0.405448 0.409464 0.281334
C5_3 C 0.4198(6) 0.3330(13) 0.2288(7)
H4_3 H 0.400738 0.286246 0.231905
C6_2 C 0.5692(6) 0.8299(12) 0.2754(6)
H5_2 H 0.590151 0.820634 0.258375
C7_2 C 0.5390(6) 0.7670(12) 0.2735(6)
H6_2 H 0.538109 0.717459 0.252458
C8_2 C 0.5113(5) 0.7709(12) 0.2991(6)
C9_2 C 0.5094(6) 0.8520(15) 0.3259(8)
H7_3 H 0.488297 0.862104 0.342631
C10_2 C 0.5405(7) 0.9160(13) 0.3260(7)
H8_2 H 0.540787 0.969135 0.344834
C11_3 C 0.3733(11) 0.7411(17) 0.4211(10)
H9_3 H 0.378184 0.786192 0.444511
C12_3 C 0.4045(7) 0.7270(13) 0.3952(8)
H10_3 H 0.427612 0.765190 0.399793
C13_3 C 0.4005(7) 0.6561(11) 0.3629(7)
C14_3 C 0.3650(7) 0.6077(18) 0.3596(8)
H11_3 H 0.360001 0.557028 0.339198
C15_3 C 0.3363(8) 0.6326(14) 0.3862(8)
H12_3 H 0.312016 0.598231 0.382383
C16_3 C 0.4521(5) 0.5600(11) 0.2797(6)
C17_3 C 0.4795(5) 0.7037(11) 0.3012(5)
C18_3 C 0.4286(5) 0.6437(11) 0.3334(6)
C19_2 C 0.6876(6) 0.9721(14) 0.3836(7)
C20_2 C 0.7207(6) 0.9326(13) 0.4109(7)
H14_2 H 0.739640 0.969598 0.430005
C21_2 C 0.7249(6) 0.8393(11) 0.4092(5)
C22_2 C 0.6957(5) 0.7857(12) 0.3788(6)
H15_2 H 0.698115 0.720433 0.376482
C23_2 C 0.6640(6) 0.8337(11) 0.3532(6)
H16_2 H 0.643956 0.799876 0.333845
C24_3 C 0.7631(7) 0.4105(18) 0.4342(8)
H17_3 H 0.742426 0.377843 0.415172
C25_2 C 0.7614(6) 0.5028(12) 0.4366(6)
H18_2 H 0.739106 0.533154 0.419115
C26_2 C 0.7895(6) 0.5558(13) 0.4626(6)
C27_2 C 0.8217(7) 0.5072(15) 0.4884(7)
H19_2 H 0.842110 0.540155 0.507630
C28_3 C 0.8236(8) 0.4160(17) 0.4859(7)
H20_3 H 0.845797 0.385401 0.503336
C29_2 C 0.8791(6) 0.8389(13) 0.6080(7)
H21_2 H 0.892848 0.804229 0.632857
C30_2 C 0.8553(7) 0.7948(15) 0.5731(7)
H22_2 H 0.852991 0.729336 0.573862
C31_2 C 0.8347(6) 0.8426(13) 0.5371(7)
C32_2 C 0.8372(6) 0.9353(14) 0.5360(7)
H23_2 H 0.822920 0.969767 0.511431
C33_2 C 0.8613(7) 0.9792(14) 0.5718(7)
C34_2 C 0.7574(5) 0.7886(11) 0.4412(6)
C35_2 C 0.7884(6) 0.6548(13) 0.4650(6)
C36_2 C 0.8091(6) 0.7909(15) 0.4995(6)
C37_2 C 0.9233(7) 0.9003(13) 0.7376(7)
H25_2 H 0.907126 0.949574 0.745189
C38_2 C 0.9280(6) 0.8212(12) 0.7645(6)
H26_2 H 0.914068 0.815856 0.789499
C39_2 C 0.9538(6) 0.7476(13) 0.7548(6)
C40_2 C 0.9737(5) 0.7636(14) 0.7182(6)
H27_2 H 0.992823 0.720039 0.711503
C41_2 C 0.9658(6) 0.8427(13) 0.6912(6)
H28_2 H 0.978418 0.849421 0.665239
H31_3 H 0.993297 0.365828 0.842097
C47_2 C 0.8409(7) 0.5975(13) 0.8856(6)
H33_2 H 0.817845 0.635862 0.882779
C48_2 C 0.8682(6) 0.6127(11) 0.8591(6)
H34_2 H 0.864537 0.662164 0.837821
C49_2 C 0.9025(6) 0.5556(14) 0.8623(6)
C50_3 C 0.9069(8) 0.4853(14) 0.8943(7)
H35_3 H 0.929385 0.445188 0.897115
C51_3 C 0.8801(5) 0.4740(12) 0.9207(6)
H36_3 H 0.884738 0.427209 0.943337
C52_2 C 0.9558(5) 0.6632(10) 0.7809(5)
C53_2 C 0.9839(5) 0.5255(11) 0.7999(5)
C54_2 C 0.9328(6) 0.5738(12) 0.8322(6)
C55_3 C 0.7662(7) 0.3235(12) 0.9395(7)
H37_3 H 0.747786 0.361734 0.920340
C56_3 C 0.7593(6) 0.2322(13) 0.9389(6)
H38_3 H 0.736687 0.204476 0.920618
C57_3 C 0.7884(6) 0.1810(13) 0.9677(6)
C58_3 C 0.8197(6) 0.2198(13) 0.9958(6)
C59_3 C 0.8238(7) 0.3159(14) 0.9934(7)
H42_3 H 0.690835 0.005775 0.886879
C70_3 C 0.7848(6) 0.0717(11) 0.9686(5)
Zn1_2 Zn 0.61568(7) 0.99811(16) 0.31488(8)
Zn2_2 Zn 0.42565(7) 0.21819(16) 0.14794(8)
Cl3_3 Cl 0.47846(15) 0.1841(4) 0.11750(16)
Cl4_3 Cl 0.38716(15) 0.1144(3) 0.17536(18)
Zn3_2 Zn 0.29898(10) 0.72290(19) 0.45560(11)
Cl5_3 Cl 0.2414(2) 0.6717(4) 0.4195(3)
Cl6_3 Cl 0.3264(3) 0.6822(5) 0.5245(3)
Zn6_2 Zn 0.80807(12) 0.50693(18) 0.96322(12)
Cl11_2 Cl 0.7512(3) 0.5733(5) 0.9339(3)
N25_2 N 0.2945(6) 0.8622(10) 0.4588(6)
N27_2 N 0.3868(5) 0.2951(12) 0.1000(6)
Zn8_2 Zn 0.79898(10) 0.22290(19) 0.45560(11)
N20_2 N 0.6610(4) 0.8008(11) 0.8556(5)
N23_3 N 0.7790(4) 0.8902(10) 0.9704(5)
C60_3 C 0.6613(6) 0.8927(14) 0.8581(6)
H41_3 H 0.640187 0.926760 0.840547
C61_3 C 0.6918(6) 0.9401(14) 0.8856(6)
C62_3 C 0.7224(6) 0.8955(13) 0.9103(6)
C63_3 C 0.7221(6) 0.7999(13) 0.9075(6)
H43_3 H 0.743191 0.765673 0.925012
C64_3 C 0.6909(6) 0.7516(12) 0.8788(7)
H44_3 H 0.691392 0.686123 0.876315
C71_3 C 0.7536(5) 0.9415(11) 0.9408(6)
C72_3 C 0.8076(5) 0.9373(10) 0.9979(5)
Zn9_2 Zn 0.61837(7) 0.72153(18) 0.81397(8)
H39_3 H 0.337964 0.683362 0.016099
H40_3 H 0.345498 0.846322 0.011869
C65_3 C 0.3639(7) 0.2463(12) 0.0670(7)
H45_3 H 0.365756 0.180685 0.067206
C66_3 C 0.3379(6) 0.2890(14) 0.0330(7)
H46_3 H 0.321663 0.253511 0.010225
C67_3 C 0.3357(4) 0.3850(11) 0.0326(5)
C68_3 C 0.3596(6) 0.4355(13) 0.0670(7)
H47_3 H 0.359063 0.501127 0.068248
C69_3 C 0.3844(7) 0.3817(13) 0.0994(7)
H48_3 H 0.400920 0.414178 0.123094
N14_4 N 0.5711(5) 0.8119(10) 0.7996(5)
N19_4 N 0.2973(6) 0.8639(12) 0.9654(6)
N22_4 N 0.2552(5) 0.5343(10) 0.9402(5)
N23_4 N 0.2790(4) 0.3902(10) 0.9704(5)
N24_4 N 0.3127(4) 0.5297(12) 0.9975(5)
C24_4 C 0.2631(7) 0.9105(18) 0.4342(8)
H17_4 H 0.242426 0.877843 0.415172
C28_4 C 0.3236(8) 0.9160(17) 0.4859(7)
H20_4 H 0.345797 0.885401 0.503336
C42_4 C 0.5712(6) 0.8826(13) 0.7720(7)
H29_4 H 0.590401 0.884723 0.752213
C43_4 C 0.5431(6) 0.9562(12) 0.7710(6)
C44_4 C 0.5121(5) 0.9504(13) 0.7969(6)
C45_4 C 0.5130(7) 0.8729(13) 0.8232(7)
H31_4 H 0.493297 0.865828 0.842097
C46_4 C 0.5416(6) 0.8042(16) 0.8236(7)
H32_4 H 0.540075 0.750213 0.841346
C50_4 C 0.4069(8) 0.9853(14) 0.8943(7)
H35_4 H 0.429385 0.945188 0.897115
C51_4 C 0.3801(5) 0.9740(12) 0.9207(6)
H36_4 H 0.384738 0.927209 0.943337
C55_4 C 0.2662(7) 0.8235(12) 0.9395(7)
H37_4 H 0.247786 0.861734 0.920340
C56_4 C 0.2593(6) 0.7322(13) 0.9389(6)
H38_4 H 0.236687 0.704476 0.920618
C57_4 C 0.2884(6) 0.6810(13) 0.9677(6)
C58_4 C 0.3197(6) 0.7198(13) 0.9958(6)
C59_4 C 0.3238(7) 0.8159(14) 0.9934(7)
C60_4 C 0.1613(6) 0.3927(14) 0.8581(6)
H41_4 H 0.140187 0.426760 0.840547
C61_4 C 0.1918(6) 0.4401(14) 0.8856(6)
H42_4 H 0.190835 0.505775 0.886879
C62_4 C 0.2224(6) 0.3955(13) 0.9103(6)
C63_4 C 0.2221(6) 0.2999(13) 0.9075(6)
H43_4 H 0.243191 0.265673 0.925012
C64_4 C 0.1909(6) 0.2516(12) 0.8788(7)
H44_4 H 0.191392 0.186123 0.876315
C70_4 C 0.2848(6) 0.5717(11) 0.9686(5)
C71_4 C 0.2536(5) 0.4415(11) 0.9408(6)
C72_4 C 0.3076(5) 0.4373(10) 0.9979(5)
Cl9_4 Cl 0.59863(19) 0.6116(4) 0.8573(2)
Cl10_4 Cl 0.64386(18) 0.6868(4) 0.7534(2)
N3_4 N 0.8407(6) 0.2011(13) 0.4163(6)
N4_4 N 0.9798(5) 0.1255(10) 0.2741(5)
N5_4 N 0.9561(5) 0.2134(10) 0.3309(5)
N6_4 N 0.9278(5) 0.0645(10) 0.3108(5)
H2_4 H 0.992441 0.010159 0.215463
H7_4 H 0.988297 0.362104 0.342631
C11_4 C 0.8733(11) 0.2411(17) 0.4211(10)
H9_4 H 0.878184 0.286192 0.444511
C12_4 C 0.9045(7) 0.2270(13) 0.3952(8)
H10_4 H 0.927612 0.265190 0.399793
C13_4 C 0.9005(7) 0.1561(11) 0.3629(7)
C14_4 C 0.8650(7) 0.1077(18) 0.3596(8)
H11_4 H 0.860001 0.057028 0.339198
C15_4 C 0.8363(8) 0.1326(14) 0.3862(8)
H12_4 H 0.812016 0.098231 0.382383
C16_4 C 0.9521(5) 0.0600(11) 0.2797(6)
C17_4 C 0.9795(5) 0.2037(11) 0.3012(5)
C18_4 C 0.9286(5) 0.1437(11) 0.3334(6)
Cl5_4 Cl 0.7414(2) 0.1717(4) 0.4195(3)
Cl6_4 Cl 0.8264(3) 0.1822(5) 0.5245(3)
H13_2 H 0.684236 0.037123 0.386028
H24_2 H 0.862247 0.044932 0.571370
Cl1_2 Cl 0.59618(17) 0.1129(4) 0.35581(19)
Cl2_2 Cl 0.63882(17) 0.0246(4) 0.25149(18)
Zn4_2 Zn 0.92080(7) 0.01181(17) 0.65471(8)
Cl7_2 Cl 0.88306(16) 0.1086(3) 0.68658(18)
Cl8_2 Cl 0.96959(17) 0.0597(4) 0.62053(17)
H39_4 H 0.837964 0.183362 0.016099
H40_4 H 0.845498 0.346322 0.011869
H47_4 H 0.859063 0.001127 0.068248
Cl12_2 Cl 0.8478(4) 0.5303(5) 0.0288(2)
N21_2 N 0.8868(5) 0.7951(12) 0.1000(6)
C65_4 C 0.8639(7) 0.7463(12) 0.0670(7)
H45_4 H 0.865756 0.680685 0.067206
C66_4 C 0.8379(6) 0.7890(14) 0.0330(7)
H46_4 H 0.821663 0.753511 0.010225
C67_4 C 0.8357(4) 0.8850(11) 0.0326(5)
C68_4 C 0.8596(6) 0.9355(13) 0.0670(7)
C69_4 C 0.8844(7) 0.8817(13) 0.0994(7)
H48_4 H 0.900920 0.914178 0.123094
Zn7_2 Zn 0.92565(7) 0.71819(16) 0.14794(8)
N1_4 N 0.9409(4) 0.8206(11) 0.1970(5)
C1_4 C 0.9688(5) 0.8834(11) 0.1923(6)
H1_4 H 0.985684 0.873869 0.170420
C2_4 C 0.9735(6) 0.9638(10) 0.2195(6)
C3_4 C 0.9496(5) 0.9723(11) 0.2518(6)
C4_4 C 0.9217(6) 0.9052(14) 0.2584(7)
H3_4 H 0.905448 0.909464 0.281334
C5_4 C 0.9198(6) 0.8330(13) 0.2288(7)
H4_4 H 0.900738 0.786246 0.231905
Cl3_4 Cl 0.97846(15) 0.6841(4) 0.11750(16)
Cl4_4 Cl 0.88716(15) 0.6144(3) 0.17536(18)
N2_3 N 0.9313(4) 0.4076(11) 0.6975(5)
N7_3 N 0.8392(5) 0.4276(11) 0.6449(5)
N9_3 N 0.6167(5) 0.4354(10) 0.3928(5)
N10_3 N 0.7404(5) 0.1993(11) 0.5645(5)
N11_3 N 0.6864(5) 0.1991(9) 0.5031(5)
N12_3 N 0.7194(5) 0.3406(10) 0.5277(5)
N13_3 N 0.5585(5) 0.4081(9) 0.2994(5)
N15_3 N 0.6542(5) 0.0258(9) 0.0823(5)
N16_3 N 0.5168(4) 0.0987(10) 0.2267(5)
N17_3 N 0.5431(5) 0.0107(12) 0.1723(5)
N18_3 N 0.5694(5) 0.1547(10) 0.1906(5)
C6_3 C 0.9308(6) 0.3299(12) 0.7246(6)
H5_3 H 0.909849 0.320634 0.741625
C7_3 C 0.9610(6) 0.2670(12) 0.7265(6)
H6_3 H 0.961891 0.217459 0.747542
C8_3 C 0.9887(5) 0.2709(12) 0.7009(6)
C9_3 C 0.9906(6) 0.3520(15) 0.6741(8)
C10_3 C 0.9595(7) 0.4160(13) 0.6740(7)
H8_3 H 0.959213 0.469135 0.655166
C19_3 C 0.8124(6) 0.4721(14) 0.6164(7)
H13_3 H 0.815764 0.537123 0.613972
C20_3 C 0.7793(6) 0.4326(13) 0.5891(7)
H14_3 H 0.760360 0.469598 0.569995
C21_3 C 0.7751(6) 0.3393(11) 0.5908(5)
C22_3 C 0.8043(5) 0.2857(12) 0.6212(6)
H15_3 H 0.801885 0.220433 0.623518
C23_3 C 0.8360(6) 0.3337(11) 0.6468(6)
H16_3 H 0.856044 0.299876 0.666155
C25_3 C 0.7386(6) 0.0028(12) 0.5634(6)
H18_3 H 0.760894 0.033154 0.580885
C26_3 C 0.7105(6) 0.0558(13) 0.5374(6)
C27_3 C 0.6783(7) 0.0072(15) 0.5116(7)
H19_3 H 0.657890 0.040155 0.492370
C29_3 C 0.6209(6) 0.3389(13) 0.3920(7)
H21_3 H 0.607152 0.304229 0.367143
C30_3 C 0.6447(7) 0.2948(15) 0.4269(7)
H22_3 H 0.647009 0.229336 0.426138
C31_3 C 0.6653(6) 0.3426(13) 0.4629(7)
C32_3 C 0.6628(6) 0.4353(14) 0.4640(7)
H23_3 H 0.677080 0.469767 0.488569
C33_3 C 0.6387(7) 0.4792(14) 0.4282(7)
H24_3 H 0.637753 0.544932 0.428630
C34_3 C 0.7426(5) 0.2886(11) 0.5588(6)
C35_3 C 0.7116(6) 0.1548(13) 0.5350(6)
C36_3 C 0.6909(6) 0.2909(15) 0.5005(6)
C37_3 C 0.5767(7) 0.4003(13) 0.2624(7)
H25_3 H 0.592874 0.449574 0.254811
C38_3 C 0.5720(6) 0.3212(12) 0.2355(6)
H26_3 H 0.585932 0.315856 0.210501
C39_3 C 0.5462(6) 0.2476(13) 0.2452(6)
C40_3 C 0.5263(5) 0.2636(14) 0.2818(6)
H27_3 H 0.507177 0.220039 0.288497
C41_3 C 0.5342(6) 0.3427(13) 0.3088(6)
H28_3 H 0.521582 0.349421 0.334761
H30_3 H 0.454701 0.009298 0.247160
C47_3 C 0.6591(7) 0.0975(13) 0.1144(6)
H33_3 H 0.682155 0.135862 0.117221
C48_3 C 0.6318(6) 0.1127(11) 0.1409(6)
H34_3 H 0.635463 0.162164 0.162179
C49_3 C 0.5975(6) 0.0556(14) 0.1377(6)
C52_3 C 0.5442(5) 0.1632(10) 0.2191(5)
C53_3 C 0.5161(5) 0.0255(11) 0.2001(5)
C54_3 C 0.5672(6) 0.0738(12) 0.1678(6)
Zn1_3 Zn 0.88432(7) 0.49811(16) 0.68512(8)
Cl1_3 Cl 0.90382(17) 0.6129(4) 0.64419(19)
Cl2_3 Cl 0.86118(17) 0.5246(4) 0.74851(18)
Zn4_3 Zn 0.57920(7) 0.51181(17) 0.34529(8)
Cl7_3 Cl 0.61694(16) 0.6086(3) 0.31342(18)
Cl8_3 Cl 0.53041(17) 0.5597(4) 0.37947(17)
Zn6_3 Zn 0.69193(12) 0.00693(18) 0.03678(12)
Cl11_3 Cl 0.7488(3) 0.0733(5) 0.0661(3)
Cl12_3 Cl 0.6522(4) 0.0303(5) 0.9712(2)
Cl12_4 Cl 0.3478(4) 0.0303(5) 0.0288(2)
N2_4 N 0.0687(4) 0.4076(11) 0.3025(5)
N7_4 N 0.1608(5) 0.4276(11) 0.3551(5)
N9_4 N 0.3833(5) 0.4354(10) 0.6072(5)
N10_4 N 0.2596(5) 0.1993(11) 0.4355(5)
N11_4 N 0.3136(5) 0.1991(9) 0.4969(5)
N12_4 N 0.2806(5) 0.3406(10) 0.4723(5)
N13_4 N 0.4415(5) 0.4081(9) 0.7006(5)
N15_4 N 0.3458(5) 0.0258(9) 0.9177(5)
N16_4 N 0.4832(4) 0.0987(10) 0.7733(5)
N17_4 N 0.4569(5) 0.0107(12) 0.8277(5)
N18_4 N 0.4306(5) 0.1547(10) 0.8094(5)
C6_4 C 0.0692(6) 0.3299(12) 0.2754(6)
H5_4 H 0.090151 0.320634 0.258375
C7_4 C 0.0390(6) 0.2670(12) 0.2735(6)
H6_4 H 0.038109 0.217459 0.252458
C8_4 C 0.0113(5) 0.2709(12) 0.2991(6)
C9_4 C 0.0094(6) 0.3520(15) 0.3259(8)
C10_4 C 0.0405(7) 0.4160(13) 0.3260(7)
H8_4 H 0.040787 0.469135 0.344834
C19_4 C 0.1876(6) 0.4721(14) 0.3836(7)
H13_4 H 0.184236 0.537123 0.386028
C20_4 C 0.2207(6) 0.4326(13) 0.4109(7)
H14_4 H 0.239640 0.469598 0.430005
C21_4 C 0.2249(6) 0.3393(11) 0.4092(5)
C22_4 C 0.1957(5) 0.2857(12) 0.3788(6)
H15_4 H 0.198115 0.220433 0.376482
C23_4 C 0.1640(6) 0.3337(11) 0.3532(6)
H16_4 H 0.143956 0.299876 0.333845
C25_4 C 0.2614(6) 0.0028(12) 0.4366(6)
H18_4 H 0.239106 0.033154 0.419115
C26_4 C 0.2895(6) 0.0558(13) 0.4626(6)
C27_4 C 0.3217(7) 0.0072(15) 0.4884(7)
H19_4 H 0.342110 0.040155 0.507630
C29_4 C 0.3791(6) 0.3389(13) 0.6080(7)
H21_4 H 0.392848 0.304229 0.632857
C30_4 C 0.3553(7) 0.2948(15) 0.5731(7)
H22_4 H 0.352991 0.229336 0.573862
C31_4 C 0.3347(6) 0.3426(13) 0.5371(7)
C32_4 C 0.3372(6) 0.4353(14) 0.5360(7)
H23_4 H 0.322920 0.469767 0.511431
C33_4 C 0.3613(7) 0.4792(14) 0.5718(7)
H24_4 H 0.362247 0.544932 0.571370
C34_4 C 0.2574(5) 0.2886(11) 0.4412(6)
C35_4 C 0.2884(6) 0.1548(13) 0.4650(6)
C36_4 C 0.3091(6) 0.2909(15) 0.4995(6)
C37_4 C 0.4233(7) 0.4003(13) 0.7376(7)
H25_4 H 0.407126 0.449574 0.745189
C38_4 C 0.4280(6) 0.3212(12) 0.7645(6)
H26_4 H 0.414068 0.315856 0.789499
C39_4 C 0.4538(6) 0.2476(13) 0.7548(6)
C40_4 C 0.4737(5) 0.2636(14) 0.7182(6)
H27_4 H 0.492823 0.220039 0.711503
C41_4 C 0.4658(6) 0.3427(13) 0.6912(6)
H28_4 H 0.478418 0.349421 0.665239
H30_4 H 0.545299 0.009298 0.752840
C47_4 C 0.3409(7) 0.0975(13) 0.8856(6)
H33_4 H 0.317845 0.135862 0.882779
C48_4 C 0.3682(6) 0.1127(11) 0.8591(6)
H34_4 H 0.364537 0.162164 0.837821
C49_4 C 0.4025(6) 0.0556(14) 0.8623(6)
C52_4 C 0.4558(5) 0.1632(10) 0.7809(5)
C53_4 C 0.4839(5) 0.0255(11) 0.7999(5)
C54_4 C 0.4328(6) 0.0738(12) 0.8322(6)
Zn1_4 Zn 0.11568(7) 0.49811(16) 0.31488(8)
Cl1_4 Cl 0.09618(17) 0.6129(4) 0.35581(19)
Cl2_4 Cl 0.13882(17) 0.5246(4) 0.25149(18)
Zn4_4 Zn 0.42080(7) 0.51181(17) 0.65471(8)
Cl7_4 Cl 0.38306(16) 0.6086(3) 0.68658(18)
Cl8_4 Cl 0.46959(17) 0.5597(4) 0.62053(17)
Zn6_4 Zn 0.30807(12) 0.00693(18) 0.96322(12)
Cl11_4 Cl 0.2512(3) 0.0733(5) 0.9339(3)
loop_
_geom_bond_atom_site_label_1
_geom_bond_atom_site_label_2
_geom_bond_site_symmetry_1
_geom_bond_site_symmetry_2
Cl7 Zn4 1_555 1_555
Cl8 Zn4 1_555 1_555
N1 C1 1_555 1_555
N2 C6 1_555 1_555
N3 C11 1_555 1_555
N4 C16 1_555 1_555
N5 C17 1_555 1_555
N6 C16 1_555 1_555
N7 C19 1_555 1_555
N8 C24 1_555 1_555
N9 C29 1_555 1_555
N10 C34 1_555 1_555
N11 C35 1_555 1_555
N12 C34 1_555 1_555
N13 C37 1_555 1_555
N15 C47 1_555 1_555
N16 C52 1_555 1_555
N17 C53 1_555 1_555
N18 C52 1_555 1_555
N19 C55 1_555 1_555
N22 C70 1_555 1_555
N24 C70 1_555 1_555
C1 H1 1_555 1_555
C2 C1 1_555 1_555
H2 C2 1_555 1_555
C3 C2 1_555 1_555
C4 C3 1_555 1_555
H3 C4 1_555 1_555
C5 N1 1_555 1_555
H4 C5 1_555 1_555
C6 H5 1_555 1_555
C7 C6 1_555 1_555
H6 C7 1_555 1_555
C8 C7 1_555 1_555
C9 C8 1_555 1_555
H7 C9 1_555 1_555
C10 N2 1_555 1_555
H8 C10 1_555 1_555
C11 H9 1_555 1_555
C12 C11 1_555 1_555
H10 C12 1_555 1_555
C13 C12 1_555 1_555
C14 C13 1_555 1_555
H11 C14 1_555 1_555
C15 N3 1_555 1_555
H12 C15 1_555 1_555
C16 C3 1_555 1_555
C17 N4 1_555 1_555
C18 N5 1_555 1_555
C20 C19 1_555 1_555
H14 C20 1_555 1_555
C21 C20 1_555 1_555
C22 C21 1_555 1_555
H15 C22 1_555 1_555
C23 N7 1_555 1_555
H16 C23 1_555 1_555
C24 H17 1_555 1_555
C25 C24 1_555 1_555
H18 C25 1_555 1_555
C26 C25 1_555 1_555
C27 C26 1_555 1_555
H19 C27 1_555 1_555
C28 N8 1_555 1_555
H20 C28 1_555 1_555
C29 H21 1_555 1_555
C30 C29 1_555 1_555
H22 C30 1_555 1_555
C31 C30 1_555 1_555
C32 C31 1_555 1_555
H23 C32 1_555 1_555
C33 N9 1_555 1_555
C34 C21 1_555 1_555
C35 N10 1_555 1_555
C36 N11 1_555 1_555
C37 H25 1_555 1_555
C38 C37 1_555 1_555
H26 C38 1_555 1_555
C39 C38 1_555 1_555
C40 C39 1_555 1_555
H27 C40 1_555 1_555
C41 N13 1_555 1_555
H28 C41 1_555 1_555
C47 H33 1_555 1_555
C48 C47 1_555 1_555
H34 C48 1_555 1_555
C49 C48 1_555 1_555
C50 C49 1_555 1_555
H35 C50 1_555 1_555
C51 N15 1_555 1_555
H36 C51 1_555 1_555
C52 C39 1_555 1_555
C53 N16 1_555 1_555
C54 N17 1_555 1_555
C55 H37 1_555 1_555
C56 C55 1_555 1_555
H38 C56 1_555 1_555
C57 C56 1_555 1_555
C58 C57 1_555 1_555
C59 N19 1_555 1_555
C70 C57 1_555 1_555
Zn1 N2 1_555 1_555
Zn2 N1 1_555 1_555
Cl3 Zn2 1_555 1_555
Cl4 Zn2 1_555 1_555
Zn3 N3 1_555 1_555
Cl5 Zn3 1_555 1_555
Cl6 Zn3 1_555 1_555
Zn6 N15 1_555 1_555
Cl11 Zn6 1_555 1_555
N25 Zn3 1_555 1_555
N27 Zn2 1_555 1_555
Zn8 N8 1_555 1_555
N6 C18 1_555 1_555
N7 Zn1 1_555 1_555
N12 C36 1_555 1_555
N18 C54 1_555 1_555
N19 Zn6 1_555 1_555
C4 C5 1_555 1_555
C8 C17 1_555 1_555
C9 C10 1_555 1_555
C13 C18 1_555 1_555
C14 C15 1_555 1_555
C22 C23 1_555 1_555
C26 C35 1_555 1_555
C27 C28 1_555 1_555
C31 C36 1_555 1_555
C32 C33 1_555 1_555
C40 C41 1_555 1_555
C49 C54 1_555 1_555
C50 C51 1_555 1_555
C58 C59 1_555 1_555
N20 C60 1_555 1_555
N23 C71 1_555 1_555
C60 H41 1_555 1_555
C61 C60 1_555 1_555
C62 C61 1_555 1_555
C63 C62 1_555 1_555
H43 C63 1_555 1_555
C64 N20 1_555 1_555
H44 C64 1_555 1_555
C72 N23 1_555 1_555
Zn9 N20 1_555 1_555
C62 C71 1_555 1_555
C63 C64 1_555 1_555
N14 C42 1_555 1_555
C42 H29 1_555 1_555
C43 C42 1_555 1_555
H30 C43 1_555 1_555
C44 C43 1_555 1_555
C45 C44 1_555 1_555
C46 N14 1_555 1_555
H32 C46 1_555 1_555
Zn5 N14 1_555 1_555
Cl9 Zn5 1_555 1_555
Cl10 Zn5 1_555 1_555
N26 Zn5 1_555 1_555
C45 C46 1_555 1_555
N3_2 C11_2 1_555 1_555
N4_2 C16_2 1_555 1_555
N5_2 C17_2 1_555 1_555
N6_2 C16_2 1_555 1_555
C11_2 H9_2 1_555 1_555
C12_2 C11_2 1_555 1_555
H10_2 C12_2 1_555 1_555
C13_2 C12_2 1_555 1_555
C14_2 C13_2 1_555 1_555
H11_2 C14_2 1_555 1_555
C15_2 N3_2 1_555 1_555
H12_2 C15_2 1_555 1_555
C17_2 N4_2 1_555 1_555
C18_2 N5_2 1_555 1_555
Zn8 N3_2 1_555 1_555
Cl5_2 Zn8 1_555 1_555
Cl6_2 Zn8 1_555 1_555
N6_2 C18_2 1_555 1_555
C13_2 C18_2 1_555 1_555
C14_2 C15_2 1_555 1_555
N25 C24_2 1_555 1_555
N14_2 C42_2 1_555 1_555
N19_2 C55_2 1_555 1_555
N26 C60_2 1_555 1_555
N22_2 C70_2 1_555 1_555
N23_2 C71_2 1_555 1_555
N24_2 C70_2 1_555 1_555
C24_2 H17_2 1_555 1_555
C28_2 N25 1_555 1_555
H20_2 C28_2 1_555 1_555
C42_2 H29_2 1_555 1_555
C43_2 C42_2 1_555 1_555
C44_2 C43_2 1_555 1_555
C45_2 C44_2 1_555 1_555
H31_2 C45_2 1_555 1_555
C46_2 N14_2 1_555 1_555
H32_2 C46_2 1_555 1_555
H35_2 C50_2 1_555 1_555
H36_2 C51_2 1_555 1_555
C55_2 H37_2 1_555 1_555
C56_2 C55_2 1_555 1_555
H38_2 C56_2 1_555 1_555
C57_2 C56_2 1_555 1_555
C58_2 C57_2 1_555 1_555
C59_2 N19_2 1_555 1_555
C60_2 H41_2 1_555 1_555
C61_2 C60_2 1_555 1_555
H42_2 C61_2 1_555 1_555
C62_2 C61_2 1_555 1_555
C63_2 C62_2 1_555 1_555
H43_2 C63_2 1_555 1_555
C64_2 N26 1_555 1_555
H44_2 C64_2 1_555 1_555
C70_2 C57_2 1_555 1_555
C71_2 N22_2 1_555 1_555
C72_2 N23_2 1_555 1_555
Zn9 N14_2 1_555 1_555
Cl9_2 Zn9 1_555 1_555
Cl10_2 Zn9 1_555 1_555
N24_2 C72_2 1_555 1_555
C45_2 C46_2 1_555 1_555
C50_2 C51_2 1_555 1_555
C58_2 C59_2 1_555 1_555
C62_2 C71_2 1_555 1_555
C63_2 C64_2 1_555 1_555
N27 C65 1_555 1_555
C65 H45 1_555 1_555
C66 C65 1_555 1_555
H46 C66 1_555 1_555
C67 C66 1_555 1_555
C68 C67 1_555 1_555
H47 C68 1_555 1_555
C69 N27 1_555 1_555
H48 C69 1_555 1_555
C68 C69 1_555 1_555
N21 C65_2 1_555 1_555
C65_2 H45_2 1_555 1_555
C66_2 C65_2 1_555 1_555
H46_2 C66_2 1_555 1_555
C67_2 C66_2 1_555 1_555
C68_2 C67_2 1_555 1_555
C69_2 N21 1_555 1_555
H48_2 C69_2 1_555 1_555
Zn7 N21 1_555 1_555
C68_2 C69_2 1_555 1_555
N1_2 C1_2 1_555 1_555
C1_2 H1_2 1_555 1_555
C2_2 C1_2 1_555 1_555
C3_2 C2_2 1_555 1_555
C4_2 C3_2 1_555 1_555
H3_2 C4_2 1_555 1_555
C5_2 N1_2 1_555 1_555
H4_2 C5_2 1_555 1_555
Zn7 N1_2 1_555 1_555
Cl3_2 Zn7 1_555 1_555
Cl4_2 Zn7 1_555 1_555
C4_2 C5_2 1_555 1_555
N14_3 C42_3 1_555 1_555
C42_3 H29_3 1_555 1_555
C43_3 C42_3 1_555 1_555
H30_2 C43_3 1_555 1_555
C44_3 C43_3 1_555 1_555
C45_3 C44_3 1_555 1_555
C46_3 N14_3 1_555 1_555
H32_3 C46_3 1_555 1_555
Zn5_2 N14_3 1_555 1_555
Cl9_3 Zn5_2 1_555 1_555
Cl10_3 Zn5_2 1_555 1_555
N26_2 Zn5_2 1_555 1_555
C45_3 C46_3 1_555 1_555
N1_3 C1_3 1_555 1_555
N2_2 C6_2 1_555 1_555
N3_3 C11_3 1_555 1_555
N4_3 C16_3 1_555 1_555
N5_3 C17_3 1_555 1_555
N6_3 C16_3 1_555 1_555
N7_2 C19_2 1_555 1_555
N8_2 C24_3 1_555 1_555
N9_2 C29_2 1_555 1_555
N10_2 C34_2 1_555 1_555
N11_2 C35_2 1_555 1_555
N12_2 C34_2 1_555 1_555
N13_2 C37_2 1_555 1_555
N15_2 C47_2 1_555 1_555
N16_2 C52_2 1_555 1_555
N17_2 C53_2 1_555 1_555
N18_2 C52_2 1_555 1_555
N19_3 C55_3 1_555 1_555
N22_3 C70_3 1_555 1_555
N24_3 C70_3 1_555 1_555
C1_3 H1_3 1_555 1_555
C2_3 C1_3 1_555 1_555
H2_3 C2_3 1_555 1_555
C3_3 C2_3 1_555 1_555
C4_3 C3_3 1_555 1_555
H3_3 C4_3 1_555 1_555
C5_3 N1_3 1_555 1_555
H4_3 C5_3 1_555 1_555
C6_2 H5_2 1_555 1_555
C7_2 C6_2 1_555 1_555
H6_2 C7_2 1_555 1_555
C8_2 C7_2 1_555 1_555
C9_2 C8_2 1_555 1_555
H7_3 C9_2 1_555 1_555
C10_2 N2_2 1_555 1_555
H8_2 C10_2 1_555 1_555
C11_3 H9_3 1_555 1_555
C12_3 C11_3 1_555 1_555
H10_3 C12_3 1_555 1_555
C13_3 C12_3 1_555 1_555
C14_3 C13_3 1_555 1_555
H11_3 C14_3 1_555 1_555
C15_3 N3_3 1_555 1_555
H12_3 C15_3 1_555 1_555
C16_3 C3_3 1_555 1_555
C17_3 N4_3 1_555 1_555
C18_3 N5_3 1_555 1_555
C20_2 C19_2 1_555 1_555
H14_2 C20_2 1_555 1_555
C21_2 C20_2 1_555 1_555
C22_2 C21_2 1_555 1_555
H15_2 C22_2 1_555 1_555
C23_2 N7_2 1_555 1_555
H16_2 C23_2 1_555 1_555
C24_3 H17_3 1_555 1_555
C25_2 C24_3 1_555 1_555
H18_2 C25_2 1_555 1_555
C26_2 C25_2 1_555 1_555
C27_2 C26_2 1_555 1_555
H19_2 C27_2 1_555 1_555
C28_3 N8_2 1_555 1_555
H20_3 C28_3 1_555 1_555
C29_2 H21_2 1_555 1_555
C30_2 C29_2 1_555 1_555
H22_2 C30_2 1_555 1_555
C31_2 C30_2 1_555 1_555
C32_2 C31_2 1_555 1_555
H23_2 C32_2 1_555 1_555
C33_2 N9_2 1_555 1_555
C34_2 C21_2 1_555 1_555
C35_2 N10_2 1_555 1_555
C36_2 N11_2 1_555 1_555
C37_2 H25_2 1_555 1_555
C38_2 C37_2 1_555 1_555
H26_2 C38_2 1_555 1_555
C39_2 C38_2 1_555 1_555
C40_2 C39_2 1_555 1_555
H27_2 C40_2 1_555 1_555
C41_2 N13_2 1_555 1_555
H28_2 C41_2 1_555 1_555
C47_2 H33_2 1_555 1_555
C48_2 C47_2 1_555 1_555
H34_2 C48_2 1_555 1_555
C49_2 C48_2 1_555 1_555
C50_3 C49_2 1_555 1_555
H35_3 C50_3 1_555 1_555
C51_3 N15_2 1_555 1_555
H36_3 C51_3 1_555 1_555
C52_2 C39_2 1_555 1_555
C53_2 N16_2 1_555 1_555
C54_2 N17_2 1_555 1_555
C55_3 H37_3 1_555 1_555
C56_3 C55_3 1_555 1_555
H38_3 C56_3 1_555 1_555
C57_3 C56_3 1_555 1_555
C58_3 C57_3 1_555 1_555
C59_3 N19_3 1_555 1_555
C70_3 C57_3 1_555 1_555
Zn1_2 N2_2 1_555 1_555
Zn2_2 N1_3 1_555 1_555
Cl3_3 Zn2_2 1_555 1_555
Cl4_3 Zn2_2 1_555 1_555
Zn3_2 N3_3 1_555 1_555
Cl5_3 Zn3_2 1_555 1_555
Cl6_3 Zn3_2 1_555 1_555
Zn6_2 N15_2 1_555 1_555
Cl11_2 Zn6_2 1_555 1_555
N25_2 Zn3_2 1_555 1_555
N27_2 Zn2_2 1_555 1_555
Zn8_2 N8_2 1_555 1_555
N6_3 C18_3 1_555 1_555
N7_2 Zn1_2 1_555 1_555
N12_2 C36_2 1_555 1_555
N18_2 C54_2 1_555 1_555
N19_3 Zn6_2 1_555 1_555
C4_3 C5_3 1_555 1_555
C8_2 C17_3 1_555 1_555
C9_2 C10_2 1_555 1_555
C13_3 C18_3 1_555 1_555
C14_3 C15_3 1_555 1_555
C22_2 C23_2 1_555 1_555
C26_2 C35_2 1_555 1_555
C27_2 C28_3 1_555 1_555
C31_2 C36_2 1_555 1_555
C32_2 C33_2 1_555 1_555
C40_2 C41_2 1_555 1_555
C49_2 C54_2 1_555 1_555
C50_3 C51_3 1_555 1_555
C58_3 C59_3 1_555 1_555
N20_2 C60_3 1_555 1_555
N23_3 C71_3 1_555 1_555
C60_3 H41_3 1_555 1_555
C61_3 C60_3 1_555 1_555
C62_3 C61_3 1_555 1_555
C63_3 C62_3 1_555 1_555
H43_3 C63_3 1_555 1_555
C64_3 N20_2 1_555 1_555
H44_3 C64_3 1_555 1_555
C72_3 N23_3 1_555 1_555
Zn9_2 N20_2 1_555 1_555
C62_3 C71_3 1_555 1_555
C63_3 C64_3 1_555 1_555
N27_2 C65_3 1_555 1_555
C65_3 H45_3 1_555 1_555
C66_3 C65_3 1_555 1_555
H46_3 C66_3 1_555 1_555
C67_3 C66_3 1_555 1_555
C68_3 C67_3 1_555 1_555
H47_3 C68_3 1_555 1_555
C69_3 N27_2 1_555 1_555
H48_3 C69_3 1_555 1_555
C68_3 C69_3 1_555 1_555
N25_2 C24_4 1_555 1_555
N14_4 C42_4 1_555 1_555
N19_4 C55_4 1_555 1_555
N26_2 C60_4 1_555 1_555
N22_4 C70_4 1_555 1_555
N23_4 C71_4 1_555 1_555
N24_4 C70_4 1_555 1_555
C24_4 H17_4 1_555 1_555
C28_4 N25_2 1_555 1_555
H20_4 C28_4 1_555 1_555
C42_4 H29_4 1_555 1_555
C43_4 C42_4 1_555 1_555
C44_4 C43_4 1_555 1_555
C45_4 C44_4 1_555 1_555
H31_4 C45_4 1_555 1_555
C46_4 N14_4 1_555 1_555
H32_4 C46_4 1_555 1_555
H35_4 C50_4 1_555 1_555
H36_4 C51_4 1_555 1_555
C55_4 H37_4 1_555 1_555
C56_4 C55_4 1_555 1_555
H38_4 C56_4 1_555 1_555
C57_4 C56_4 1_555 1_555
C58_4 C57_4 1_555 1_555
C59_4 N19_4 1_555 1_555
C60_4 H41_4 1_555 1_555
C61_4 C60_4 1_555 1_555
H42_4 C61_4 1_555 1_555
C62_4 C61_4 1_555 1_555
C63_4 C62_4 1_555 1_555
H43_4 C63_4 1_555 1_555
C64_4 N26_2 1_555 1_555
H44_4 C64_4 1_555 1_555
C70_4 C57_4 1_555 1_555
C71_4 N22_4 1_555 1_555
C72_4 N23_4 1_555 1_555
Zn9_2 N14_4 1_555 1_555
Cl9_4 Zn9_2 1_555 1_555
Cl10_4 Zn9_2 1_555 1_555
N24_4 C72_4 1_555 1_555
C45_4 C46_4 1_555 1_555
C50_4 C51_4 1_555 1_555
C58_4 C59_4 1_555 1_555
C62_4 C71_4 1_555 1_555
C63_4 C64_4 1_555 1_555
N3_4 C11_4 1_555 1_555
N4_4 C16_4 1_555 1_555
N5_4 C17_4 1_555 1_555
N6_4 C16_4 1_555 1_555
C11_4 H9_4 1_555 1_555
C12_4 C11_4 1_555 1_555
H10_4 C12_4 1_555 1_555
C13_4 C12_4 1_555 1_555
C14_4 C13_4 1_555 1_555
H11_4 C14_4 1_555 1_555
C15_4 N3_4 1_555 1_555
H12_4 C15_4 1_555 1_555
C17_4 N4_4 1_555 1_555
C18_4 N5_4 1_555 1_555
Zn8_2 N3_4 1_555 1_555
Cl5_4 Zn8_2 1_555 1_555
Cl6_4 Zn8_2 1_555 1_555
N6_4 C18_4 1_555 1_555
C13_4 C18_4 1_555 1_555
C14_4 C15_4 1_555 1_555
Cl7_2 Zn4_2 1_555 1_555
Cl8_2 Zn4_2 1_555 1_555
N21_2 C65_4 1_555 1_555
C65_4 H45_4 1_555 1_555
C66_4 C65_4 1_555 1_555
H46_4 C66_4 1_555 1_555
C67_4 C66_4 1_555 1_555
C68_4 C67_4 1_555 1_555
C69_4 N21_2 1_555 1_555
H48_4 C69_4 1_555 1_555
Zn7_2 N21_2 1_555 1_555
C68_4 C69_4 1_555 1_555
N1_4 C1_4 1_555 1_555
C1_4 H1_4 1_555 1_555
C2_4 C1_4 1_555 1_555
C3_4 C2_4 1_555 1_555
C4_4 C3_4 1_555 1_555
H3_4 C4_4 1_555 1_555
C5_4 N1_4 1_555 1_555
H4_4 C5_4 1_555 1_555
Zn7_2 N1_4 1_555 1_555
Cl3_4 Zn7_2 1_555 1_555
Cl4_4 Zn7_2 1_555 1_555
C4_4 C5_4 1_555 1_555
N2_3 C6_3 1_555 1_555
N7_3 C19_3 1_555 1_555
N9_3 C29_3 1_555 1_555
N10_3 C34_3 1_555 1_555
N11_3 C35_3 1_555 1_555
N12_3 C34_3 1_555 1_555
N13_3 C37_3 1_555 1_555
N15_3 C47_3 1_555 1_555
N16_3 C52_3 1_555 1_555
N17_3 C53_3 1_555 1_555
N18_3 C52_3 1_555 1_555
C6_3 H5_3 1_555 1_555
C7_3 C6_3 1_555 1_555
H6_3 C7_3 1_555 1_555
C8_3 C7_3 1_555 1_555
C9_3 C8_3 1_555 1_555
C10_3 N2_3 1_555 1_555
H8_3 C10_3 1_555 1_555
C19_3 H13_3 1_555 1_555
C20_3 C19_3 1_555 1_555
H14_3 C20_3 1_555 1_555
C21_3 C20_3 1_555 1_555
C22_3 C21_3 1_555 1_555
H15_3 C22_3 1_555 1_555
C23_3 N7_3 1_555 1_555
H16_3 C23_3 1_555 1_555
H18_3 C25_3 1_555 1_555
C26_3 C25_3 1_555 1_555
C27_3 C26_3 1_555 1_555
H19_3 C27_3 1_555 1_555
C29_3 H21_3 1_555 1_555
C30_3 C29_3 1_555 1_555
H22_3 C30_3 1_555 1_555
C31_3 C30_3 1_555 1_555
C32_3 C31_3 1_555 1_555
H23_3 C32_3 1_555 1_555
C33_3 N9_3 1_555 1_555
H24_3 C33_3 1_555 1_555
C34_3 C21_3 1_555 1_555
C35_3 N10_3 1_555 1_555
C36_3 N11_3 1_555 1_555
C37_3 H25_3 1_555 1_555
C38_3 C37_3 1_555 1_555
H26_3 C38_3 1_555 1_555
C39_3 C38_3 1_555 1_555
C40_3 C39_3 1_555 1_555
H27_3 C40_3 1_555 1_555
C41_3 N13_3 1_555 1_555
H28_3 C41_3 1_555 1_555
C47_3 H33_3 1_555 1_555
C48_3 C47_3 1_555 1_555
H34_3 C48_3 1_555 1_555
C49_3 C48_3 1_555 1_555
C52_3 C39_3 1_555 1_555
C53_3 N16_3 1_555 1_555
C54_3 N17_3 1_555 1_555
Zn1_3 N2_3 1_555 1_555
Cl1_3 Zn1_3 1_555 1_555
Cl2_3 Zn1_3 1_555 1_555
Zn4_3 N9_3 1_555 1_555
Cl7_3 Zn4_3 1_555 1_555
Cl8_3 Zn4_3 1_555 1_555
Zn6_3 N15_3 1_555 1_555
Cl11_3 Zn6_3 1_555 1_555
N7_3 Zn1_3 1_555 1_555
N12_3 C36_3 1_555 1_555
N13_3 Zn4_3 1_555 1_555
N18_3 C54_3 1_555 1_555
C9_3 C10_3 1_555 1_555
C22_3 C23_3 1_555 1_555
C26_3 C35_3 1_555 1_555
C31_3 C36_3 1_555 1_555
C32_3 C33_3 1_555 1_555
C40_3 C41_3 1_555 1_555
C49_3 C54_3 1_555 1_555
N2_4 C6_4 1_555 1_555
N7_4 C19_4 1_555 1_555
N9_4 C29_4 1_555 1_555
N10_4 C34_4 1_555 1_555
N11_4 C35_4 1_555 1_555
N12_4 C34_4 1_555 1_555
N13_4 C37_4 1_555 1_555
N15_4 C47_4 1_555 1_555
N16_4 C52_4 1_555 1_555
N17_4 C53_4 1_555 1_555
N18_4 C52_4 1_555 1_555
C6_4 H5_4 1_555 1_555
C7_4 C6_4 1_555 1_555
H6_4 C7_4 1_555 1_555
C8_4 C7_4 1_555 1_555
C9_4 C8_4 1_555 1_555
C10_4 N2_4 1_555 1_555
H8_4 C10_4 1_555 1_555
C19_4 H13_4 1_555 1_555
C20_4 C19_4 1_555 1_555
H14_4 C20_4 1_555 1_555
C21_4 C20_4 1_555 1_555
C22_4 C21_4 1_555 1_555
H15_4 C22_4 1_555 1_555
C23_4 N7_4 1_555 1_555
H16_4 C23_4 1_555 1_555
H18_4 C25_4 1_555 1_555
C26_4 C25_4 1_555 1_555
C27_4 C26_4 1_555 1_555
H19_4 C27_4 1_555 1_555
C29_4 H21_4 1_555 1_555
C30_4 C29_4 1_555 1_555
H22_4 C30_4 1_555 1_555
C31_4 C30_4 1_555 1_555
C32_4 C31_4 1_555 1_555
H23_4 C32_4 1_555 1_555
C33_4 N9_4 1_555 1_555
H24_4 C33_4 1_555 1_555
C34_4 C21_4 1_555 1_555
C35_4 N10_4 1_555 1_555
C36_4 N11_4 1_555 1_555
C37_4 H25_4 1_555 1_555
C38_4 C37_4 1_555 1_555
H26_4 C38_4 1_555 1_555
C39_4 C38_4 1_555 1_555
C40_4 C39_4 1_555 1_555
H27_4 C40_4 1_555 1_555
C41_4 N13_4 1_555 1_555
H28_4 C41_4 1_555 1_555
C47_4 H33_4 1_555 1_555
C48_4 C47_4 1_555 1_555
H34_4 C48_4 1_555 1_555
C49_4 C48_4 1_555 1_555
C52_4 C39_4 1_555 1_555
C53_4 N16_4 1_555 1_555
C54_4 N17_4 1_555 1_555
Zn1_4 N2_4 1_555 1_555
Cl1_4 Zn1_4 1_555 1_555
Cl2_4 Zn1_4 1_555 1_555
Zn4_4 N9_4 1_555 1_555
Cl7_4 Zn4_4 1_555 1_555
Cl8_4 Zn4_4 1_555 1_555
Zn6_4 N15_4 1_555 1_555
Cl11_4 Zn6_4 1_555 1_555
N7_4 Zn1_4 1_555 1_555
N12_4 C36_4 1_555 1_555
N13_4 Zn4_4 1_555 1_555
N18_4 C54_4 1_555 1_555
C9_4 C10_4 1_555 1_555
C22_4 C23_4 1_555 1_555
C26_4 C35_4 1_555 1_555
C31_4 C36_4 1_555 1_555
C32_4 C33_4 1_555 1_555
C40_4 C41_4 1_555 1_555
C49_4 C54_4 1_555 1_555

#END
