
###############################################################################
#
# This file contains modified crystal structure data generated from the
# MOF subset of the Cambridge Structural Database (CSD) v543 
# hosted by the Cambridge Crystallographic Data Centre (CCDC).
#
# This work is licensed under the Creative Commons
# Attribution-NonCommercial-ShareAlike 4.0 International License.
# To view a copy of this license, visit
# http://creativecommons.org/licenses/by-nc-sa/4.0/
# or send a letter to
# Creative Commons, PO Box 1866, Mountain View, CA 94042, USA.
#
# CIF created using the CSD Python API on 29 September 2022
# The structure has been converted into the P1 space group
# The structure has a 3D framework
# The original CSD entry SAVLEK is in the monoclinic crystal system
# The original CSD entry SAVLEK is in a Sohncke space group
# The framework has been calculated to contain at least 10.0% void space
# The void calculation uses a probe of radius 1.32A, grid spacing 0.4
#
###############################################################################

data_SAVLEK
_chemical_formula_moiety         '(C288 H192 Cl48 N96 Zn24)n'
_symmetry_cell_setting           triclinic
_symmetry_space_group_name_H-M   'P 1'
_symmetry_Int_Tables_number      1
_space_group_name_Hall           'P 1'
loop_
_symmetry_equiv_pos_site_id
_symmetry_equiv_pos_as_xyz
1 x,y,z
_cell_length_a                   32.9343(3)
_cell_length_b                   14.43010(10)
_cell_length_c                   31.3232(2)
_cell_angle_alpha                90
_cell_angle_beta                 100.6810(10)
_cell_angle_gamma                90
_cell_volume                     14628.3
loop_
_atom_site_label
_atom_site_type_symbol
_atom_site_fract_x
_atom_site_fract_y
_atom_site_fract_z
N21 N 0.5631(2) 0.1450(4) 0.80245(19)
C60 C 0.5881(3) 0.1360(6) 0.7749(3)
H41 H 0.608379 0.182450 0.774040
C61 C 0.5861(3) 0.0607(6) 0.7469(3)
H42 H 0.604686 0.055425 0.727131
C63 C 0.5292(2) 0.0064(5) 0.7756(2)
C64 C 0.5323(2) 0.0836(5) 0.8024(2)
H44 H 0.512718 0.093130 0.820742
Zn8 Zn 0.57422(4) 0.24469(7) 0.85083(3)
N1 N 0.6142(2) 0.1705(4) 0.8974(2)
C1 C 0.6141(3) 0.0788(6) 0.8985(3)
H1 H 0.596183 0.046159 0.876207
C2 C 0.6398(3) 0.0274(5) 0.9318(3)
C3 C 0.6672(2) 0.0775(5) 0.9635(2)
C4 C 0.6669(2) 0.1720(5) 0.9615(2)
H3 H 0.684719 0.207240 0.982799
C5 C 0.6400(3) 0.2168(5) 0.9275(2)
H4 H 0.640271 0.282599 0.926033
C16 C 0.6931(2) 0.0266(4) 0.9996(2)
Cl3 Cl 0.51579(10) 0.2650(3) 0.87433(8)
Cl4 Cl 0.61006(10) 0.35873(15) 0.82936(10)
N2 N 0.2025(2) 0.0995(5) 0.0423(2)
N3 N 0.3386(2) 0.6673(4) 0.1452(2)
N4 N 0.18652(19) 0.4347(4) 0.00261(19)
N5 N 0.24142(18) 0.4347(4) 0.06291(18)
N6 N 0.22306(17) 0.5740(4) 0.02470(17)
N7 N 0.4293(2) 0.6492(5) 0.1991(2)
N8 N 0.5577(2) 0.0720(4) 0.3069(2)
N9 N 0.6584(2) 0.4315(5) 0.0851(3)
N10 N 0.52312(17) 0.3698(4) 0.22631(17)
N11 N 0.57800(19) 0.3116(5) 0.1962(2)
N12 N 0.54552(18) 0.4530(5) 0.1691(2)
N13 N 0.6092(2) 0.0472(4) 0.4007(2)
N14 N 0.7028(2) 0.6171(4) 0.5405(2)
N15 N 0.83916(17) 0.0524(4) 0.64374(19)
N16 N 0.68293(18) 0.2806(4) 0.50525(19)
N17 N 0.73969(18) 0.2837(4) 0.56347(19)
N18 N 0.71974(17) 0.1418(4) 0.52625(17)
N19 N 0.6616(2) 0.7894(5) 0.5823(2)
N20 N 0.43173(19) 0.5689(4) 0.6961(2)
N22 N 0.54795(16) 0.7653(4) 0.66706(17)
N23 N 0.52482(17) 0.8455(4) 0.72374(16)
N24 N 0.58095(18) 0.9048(5) 0.69253(19)
C6 C 0.1780(3) 0.1483(5) 0.0128(3)
C7 C 0.1789(3) 0.2429(5) 0.0091(3)
C8 C 0.2085(2) 0.2908(5) 0.0379(2)
C9 C 0.2340(3) 0.2415(6) 0.0692(3)
H7 H 0.254562 0.272468 0.089406
C10 C 0.2297(3) 0.1463(6) 0.0713(3)
H8 H 0.246595 0.113172 0.094084
C11 C 0.3358(3) 0.5735(5) 0.1456(3)
H9 H 0.354827 0.539317 0.166246
C12 C 0.3062(2) 0.5268(5) 0.1170(2)
H10 H 0.305187 0.461049 0.117894
C13 C 0.2778(2) 0.5749(5) 0.0866(2)
C14 C 0.2812(2) 0.6707(5) 0.0863(2)
H11 H 0.262810 0.706675 0.065923
C15 C 0.3120(2) 0.7136(5) 0.1164(2)
H12 H 0.313792 0.779338 0.116164
C17 C 0.2115(2) 0.3941(5) 0.0332(2)
C18 C 0.2446(2) 0.5267(4) 0.0558(2)
C19 C 0.4569(3) 0.6577(7) 0.1730(3)
H13 H 0.456091 0.711020 0.155052
C20 C 0.4859(3) 0.5916(8) 0.1714(3)
H14 H 0.503838 0.596864 0.151027
C21 C 0.4896(2) 0.5141(5) 0.2004(2)
C22 C 0.4642(2) 0.5118(5) 0.2289(2)
H15 H 0.466179 0.463383 0.249695
C23 C 0.4348(2) 0.5811(6) 0.2277(2)
H16 H 0.417489 0.579323 0.248814
C24 C 0.5290(2) 0.1381(5) 0.3062(2)
H17 H 0.510233 0.131903 0.325686
C25 C 0.5248(2) 0.2141(5) 0.2794(2)
H18 H 0.503472 0.258103 0.279823
C26 C 0.5525(2) 0.2243(5) 0.2521(2)
C27 C 0.5825(3) 0.1568(7) 0.2512(3)
H19 H 0.601348 0.160456 0.231611
C28 C 0.5836(3) 0.0829(7) 0.2806(3)
H20 H 0.604748 0.037770 0.281310
C29 C 0.6183(3) 0.4535(8) 0.0726(3)
H21 H 0.609050 0.480132 0.044784
C30 C 0.5902(3) 0.4381(9) 0.0996(3)
H22 H 0.562093 0.455364 0.090553
C31 C 0.6032(2) 0.3975(6) 0.1396(3)
C32 C 0.6437(3) 0.3699(8) 0.1517(3)
H23 H 0.652959 0.338793 0.178439
C33 C 0.6700(3) 0.3884(8) 0.1242(3)
H24 H 0.698034 0.370264 0.132702
C34 C 0.5210(2) 0.4426(6) 0.1984(2)
C35 C 0.5511(2) 0.3091(5) 0.2232(2)
C36 C 0.5742(2) 0.3861(6) 0.1705(2)
C37 C 0.6091(3) 0.1406(6) 0.4054(3)
H25 H 0.589511 0.175103 0.385582
C38 C 0.6344(3) 0.1871(5) 0.4356(3)
H26 H 0.633638 0.252898 0.436001
C39 C 0.6613(2) 0.1406(5) 0.4660(2)
C40 C 0.6633(2) 0.0440(5) 0.4616(2)
H27 H 0.682872 0.008939 0.481217
C41 C 0.6375(2) 0.0015(5) 0.4295(2)
C42 C 0.6763(3) 0.5694(6) 0.5102(3)
H29 H 0.656389 0.602072 0.489994
C43 C 0.6779(3) 0.4734(6) 0.5082(3)
H30 H 0.659129 0.440629 0.486741
C44 C 0.7068(2) 0.4261(4) 0.5377(2)
C45 C 0.7341(3) 0.4753(6) 0.5683(3)
H31 H 0.753871 0.443839 0.589324
C46 C 0.7321(3) 0.5717(5) 0.5679(3)
H32 H 0.752045 0.606023 0.587535
C47 C 0.8364(2) 0.1432(5) 0.6434(2)
H33 H 0.856644 0.176803 0.662942
C48 C 0.8062(2) 0.1934(5) 0.6167(2)
H34 H 0.805304 0.259118 0.617970
C49 C 0.7771(2) 0.1432(5) 0.5879(2)
C50 C 0.7798(2) 0.0472(5) 0.5871(2)
H35 H 0.760297 0.011606 0.567649
C51 C 0.8112(2) 0.0053(5) 0.6150(3)
C52 C 0.6902(2) 0.1903(5) 0.5009(2)
C53 C 0.7103(2) 0.3242(4) 0.5360(2)
C54 C 0.7443(2) 0.1930(4) 0.5577(2)
C55 C 0.6727(3) 0.8275(7) 0.6200(3)
H37 H 0.700752 0.845979 0.628629
C56 C 0.6463(2) 0.8424(7) 0.6481(3)
H38 H 0.656494 0.869969 0.675554
C57 C 0.6054(2) 0.8186(6) 0.6376(2)
C58 C 0.5926(3) 0.7770(7) 0.5970(2)
H39 H 0.564940 0.756568 0.587808
C59 C 0.6223(4) 0.7665(9) 0.5701(3)
H40 H 0.613643 0.741617 0.541830
C62 C 0.5560(2) 0.9932(5) 0.7485(2)
H43 H 0.507952 0.962263 0.776397
C65 C 0.4352(2) 0.6389(5) 0.7258(2)
H45 H 0.417110 0.640926 0.746184
C66 C 0.4645(2) 0.7063(5) 0.7263(2)
H46 H 0.466398 0.755922 0.746554
C67 C 0.4916(2) 0.7020(5) 0.6973(2)
C68 C 0.4888(2) 0.6284(6) 0.6688(3)
H47 H 0.507668 0.622391 0.649437
C69 C 0.4585(3) 0.5651(7) 0.6689(3)
H48 H 0.456153 0.515511 0.648620
C70 C 0.5762(2) 0.8301(5) 0.6666(2)
C71 C 0.5238(2) 0.7760(5) 0.6956(2)
C72 C 0.5539(2) 0.9109(5) 0.7196(2)
Zn1 Zn 0.38192(3) 0.47986(7) 0.68826(3)
Cl1 Cl 0.36018(8) 0.4819(3) 0.75039(9)
Cl2 Cl 0.39812(8) 0.35523(15) 0.65439(9)
Zn4 Zn 0.69938(5) 0.45855(8) 0.04524(5)
Cl7 Cl 0.76052(10) 0.4116(2) 0.07926(17)
Zn5 Zn 0.38022(3) 0.73749(7) 0.19072(3)
Cl9 Cl 0.35781(8) 0.7326(2) 0.25303(8)
Cl10 Cl 0.39703(8) 0.86324(15) 0.15766(9)
Zn6 Zn 0.70193(5) 0.76037(8) 0.54220(5)
Cl11 Cl 0.76331(10) 0.80897(18) 0.57311(13)
Cl12 Cl 0.67116(13) 0.80046(19) 0.47684(9)
N25 N 0.7025(2) 0.5995(5) 0.0423(2)
N26 N 0.33916(17) 0.5524(4) 0.64374(19)
N1_2 N 0.1142(2) 0.6705(4) 0.8974(2)
C1_2 C 0.1141(3) 0.5788(6) 0.8985(3)
H1_2 H 0.096183 0.546159 0.876207
C2_2 C 0.1398(3) 0.5274(5) 0.9318(3)
H2 H 0.138521 0.461674 0.932597
C3_2 C 0.1672(2) 0.5775(5) 0.9635(2)
C4_2 C 0.1669(2) 0.6720(5) 0.9615(2)
H3_2 H 0.184719 0.707240 0.982799
C5_2 C 0.1400(3) 0.7168(5) 0.9275(2)
H4_2 H 0.140271 0.782599 0.926033
H5 H 0.158081 0.115500 0.992490
H6 H 0.159870 0.274551 0.987480
C16_2 C 0.1931(2) 0.5266(4) 0.9996(2)
Zn2 Zn 0.07422(4) 0.74469(7) 0.85083(3)
Cl3_2 Cl 0.01579(10) 0.7650(3) 0.87433(8)
Cl4_2 Cl 0.11006(10) 0.85873(15) 0.82936(10)
Cl8 Cl 0.66947(17) 0.4179(2) 0.97954(12)
N27 N 0.0631(2) 0.6450(4) 0.80245(19)
H28 H 0.639236 0.936106 0.426944
H36 H 0.813413 0.939703 0.614149
Zn3 Zn 0.56821(4) 0.97451(7) 0.35513(4)
Cl5 Cl 0.60321(9) 0.85809(16) 0.33578(10)
Cl6 Cl 0.50931(9) 0.9614(2) 0.37837(8)
Zn7 Zn 0.88192(3) 0.97986(7) 0.68826(3)
Zn9 Zn 0.19938(5) 0.95855(8) 0.04524(5)
N14_2 N 0.2028(2) 0.1171(4) 0.5405(2)
N19_2 N 0.1616(2) 0.2894(5) 0.5823(2)
N22_2 N 0.04795(16) 0.2653(4) 0.66706(17)
N23_2 N 0.02482(17) 0.3455(4) 0.72374(16)
N24_2 N 0.08095(18) 0.4048(5) 0.69253(19)
H14_2 H 0.003838 0.096864 0.151027
C42_2 C 0.1763(3) 0.0694(6) 0.5102(3)
H29_2 H 0.156389 0.102072 0.489994
C46_2 C 0.2321(3) 0.0717(5) 0.5679(3)
H32_2 H 0.252045 0.106023 0.587535
C55_2 C 0.1727(3) 0.3275(7) 0.6200(3)
H37_2 H 0.200752 0.345979 0.628629
C56_2 C 0.1463(2) 0.3424(7) 0.6481(3)
H38_2 H 0.156494 0.369969 0.675554
C57_2 C 0.1054(2) 0.3186(6) 0.6376(2)
C58_2 C 0.0926(3) 0.2770(7) 0.5970(2)
H39_2 H 0.064940 0.256568 0.587808
C59_2 C 0.1223(4) 0.2665(9) 0.5701(3)
H40_2 H 0.113643 0.241617 0.541830
C60_2 C 0.0881(3) 0.6360(6) 0.7749(3)
H41_2 H 0.108379 0.682450 0.774040
C61_2 C 0.0861(3) 0.5607(6) 0.7469(3)
H42_2 H 0.104686 0.555425 0.727131
C62_2 C 0.0560(2) 0.4932(5) 0.7485(2)
C63_2 C 0.0292(2) 0.5064(5) 0.7756(2)
H43_2 H 0.007952 0.462263 0.776397
C64_2 C 0.0323(2) 0.5836(5) 0.8024(2)
H44_2 H 0.012718 0.593130 0.820742
H47_2 H 0.007668 0.122391 0.649437
C70_2 C 0.0762(2) 0.3301(5) 0.6666(2)
C71_2 C 0.0238(2) 0.2760(5) 0.6956(2)
C72_2 C 0.0539(2) 0.4109(5) 0.7196(2)
Zn6_2 Zn 0.20193(5) 0.26037(8) 0.54220(5)
Cl11_2 Cl 0.26331(10) 0.30897(18) 0.57311(13)
Cl12_2 Cl 0.17116(13) 0.30046(19) 0.47684(9)
N8_2 N 0.0577(2) 0.5720(4) 0.3069(2)
N9_2 N 0.1584(2) 0.9315(5) 0.0851(3)
N10_2 N 0.02312(17) 0.8698(4) 0.22631(17)
N11_2 N 0.07800(19) 0.8116(5) 0.1962(2)
N12_2 N 0.04552(18) 0.9530(5) 0.1691(2)
N13_2 N 0.1092(2) 0.5472(4) 0.4007(2)
N16_2 N 0.18293(18) 0.7806(4) 0.50525(19)
N17_2 N 0.23969(18) 0.7837(4) 0.56347(19)
N18_2 N 0.21974(17) 0.6418(4) 0.52625(17)
C24_2 C 0.0290(2) 0.6381(5) 0.3062(2)
H17_2 H 0.010233 0.631903 0.325686
C25_2 C 0.0248(2) 0.7141(5) 0.2794(2)
H18_2 H 0.003472 0.758103 0.279823
C26_2 C 0.0525(2) 0.7243(5) 0.2521(2)
C27_2 C 0.0825(3) 0.6568(7) 0.2512(3)
H19_2 H 0.101348 0.660456 0.231611
C28_2 C 0.0836(3) 0.5829(7) 0.2806(3)
H20_2 H 0.104748 0.537770 0.281310
C29_2 C 0.1183(3) 0.9535(8) 0.0726(3)
H21_2 H 0.109050 0.980132 0.044784
C30_2 C 0.0902(3) 0.9381(9) 0.0996(3)
H22_2 H 0.062093 0.955364 0.090553
C31_2 C 0.1032(2) 0.8975(6) 0.1396(3)
C32_2 C 0.1437(3) 0.8699(8) 0.1517(3)
H23_2 H 0.152959 0.838793 0.178439
C33_2 C 0.1700(3) 0.8884(8) 0.1242(3)
H24_2 H 0.198034 0.870264 0.132702
C34_2 C 0.0210(2) 0.9426(6) 0.1984(2)
C35_2 C 0.0511(2) 0.8091(5) 0.2232(2)
C36_2 C 0.0742(2) 0.8861(6) 0.1705(2)
C37_2 C 0.1091(3) 0.6406(6) 0.4054(3)
H25_2 H 0.089511 0.675103 0.385582
C38_2 C 0.1344(3) 0.6871(5) 0.4356(3)
H26_2 H 0.133638 0.752898 0.436001
C39_2 C 0.1613(2) 0.6406(5) 0.4660(2)
C40_2 C 0.1633(2) 0.5440(5) 0.4616(2)
H27_2 H 0.182872 0.508939 0.481217
C41_2 C 0.1375(2) 0.5015(5) 0.4295(2)
H28_2 H 0.139236 0.436106 0.426944
C43_2 C 0.1779(3) 0.9734(6) 0.5082(3)
H30_2 H 0.159129 0.940629 0.486741
C44_2 C 0.2068(2) 0.9261(4) 0.5377(2)
C45_2 C 0.2341(3) 0.9753(6) 0.5683(3)
H31_2 H 0.253871 0.943839 0.589324
C47_2 C 0.3364(2) 0.6432(5) 0.6434(2)
H33_2 H 0.356644 0.676803 0.662942
C48_2 C 0.3062(2) 0.6934(5) 0.6167(2)
H34_2 H 0.305304 0.759118 0.617970
C49_2 C 0.2771(2) 0.6432(5) 0.5879(2)
C50_2 C 0.2798(2) 0.5472(5) 0.5871(2)
H35_2 H 0.260297 0.511606 0.567649
C51_2 C 0.3112(2) 0.5053(5) 0.6150(3)
H36_2 H 0.313413 0.439703 0.614149
C52_2 C 0.1902(2) 0.6903(5) 0.5009(2)
C53_2 C 0.2103(2) 0.8242(4) 0.5360(2)
C54_2 C 0.2443(2) 0.6930(4) 0.5577(2)
Zn3_2 Zn 0.06821(4) 0.47451(7) 0.35513(4)
Cl5_2 Cl 0.10321(9) 0.35809(16) 0.33578(10)
Cl6_2 Cl 0.00931(9) 0.4614(2) 0.37837(8)
Cl7_2 Cl 0.26052(10) 0.9116(2) 0.07926(17)
N3_2 N 0.8386(2) 0.1673(4) 0.1452(2)
N6_2 N 0.72306(17) 0.0740(4) 0.02470(17)
N7_2 N 0.9293(2) 0.1492(5) 0.1991(2)
N20_2 N 0.93173(19) 0.0689(4) 0.6961(2)
C11_2 C 0.8358(3) 0.0735(5) 0.1456(3)
H9_2 H 0.854827 0.039317 0.166246
C12_2 C 0.8062(2) 0.0268(5) 0.1170(2)
C13_2 C 0.7778(2) 0.0749(5) 0.0866(2)
C14_2 C 0.7812(2) 0.1707(5) 0.0863(2)
H11_2 H 0.762810 0.206675 0.065923
C15_2 C 0.8120(2) 0.2136(5) 0.1164(2)
H12_2 H 0.813792 0.279338 0.116164
C18_2 C 0.7446(2) 0.0267(4) 0.0558(2)
C19_2 C 0.9569(3) 0.1577(7) 0.1730(3)
H13_2 H 0.956091 0.211020 0.155052
C20_2 C 0.9859(3) 0.0916(8) 0.1714(3)
C21_2 C 0.9896(2) 0.0141(5) 0.2004(2)
C22_2 C 0.9642(2) 0.0118(5) 0.2289(2)
C23_2 C 0.9348(2) 0.0811(6) 0.2277(2)
H16_2 H 0.917489 0.079323 0.248814
C65_2 C 0.9352(2) 0.1389(5) 0.7258(2)
H45_2 H 0.917110 0.140926 0.746184
C66_2 C 0.9645(2) 0.2063(5) 0.7263(2)
H46_2 H 0.966398 0.255922 0.746554
C67_2 C 0.9916(2) 0.2020(5) 0.6973(2)
C68_2 C 0.9888(2) 0.1284(6) 0.6688(3)
C69_2 C 0.9585(3) 0.0651(7) 0.6689(3)
H48_2 H 0.956153 0.015511 0.648620
Zn5_2 Zn 0.88022(3) 0.23749(7) 0.19072(3)
Cl9_2 Cl 0.85781(8) 0.2326(2) 0.25303(8)
Cl10_2 Cl 0.89703(8) 0.36324(15) 0.15766(9)
N4_2 N 0.68652(19) 0.9347(4) 0.00261(19)
N5_2 N 0.74142(18) 0.9347(4) 0.06291(18)
C6_2 C 0.6780(3) 0.6483(5) 0.0128(3)
C7_2 C 0.6789(3) 0.7429(5) 0.0091(3)
C8_2 C 0.7085(2) 0.7908(5) 0.0379(2)
C9_2 C 0.7340(3) 0.7415(6) 0.0692(3)
H7_2 H 0.754562 0.772468 0.089406
C10_2 C 0.7297(3) 0.6463(6) 0.0713(3)
H8_2 H 0.746595 0.613172 0.094084
H10_2 H 0.805187 0.961049 0.117894
C17_2 C 0.7115(2) 0.8941(5) 0.0332(2)
H15_2 H 0.966179 0.963383 0.249695
Cl1_2 Cl 0.86018(8) 0.9819(3) 0.75039(9)
Cl2_2 Cl 0.89812(8) 0.85523(15) 0.65439(9)
N21_2 N 0.4369(2) 0.1450(4) 0.19755(19)
C60_3 C 0.4119(3) 0.1360(6) 0.2251(3)
H41_3 H 0.391621 0.182450 0.225960
C61_3 C 0.4139(3) 0.0607(6) 0.2531(3)
H42_3 H 0.395314 0.055425 0.272869
C63_3 C 0.4708(2) 0.0064(5) 0.2244(2)
C64_3 C 0.4677(2) 0.0836(5) 0.1976(2)
H44_3 H 0.487282 0.093130 0.179258
Zn8_2 Zn 0.42578(4) 0.24469(7) 0.14917(3)
N1_3 N 0.3858(2) 0.1705(4) 0.1026(2)
C1_3 C 0.3859(3) 0.0788(6) 0.1015(3)
H1_3 H 0.403817 0.046159 0.123793
C2_3 C 0.3602(3) 0.0274(5) 0.0682(3)
C3_3 C 0.3328(2) 0.0775(5) 0.0365(2)
C4_3 C 0.3331(2) 0.1720(5) 0.0385(2)
H3_3 H 0.315281 0.207240 0.017201
C5_3 C 0.3600(3) 0.2168(5) 0.0725(2)
H4_3 H 0.359729 0.282599 0.073967
C16_3 C 0.3069(2) 0.0266(4) 0.0004(2)
Cl3_3 Cl 0.48421(10) 0.2650(3) 0.12567(8)
Cl4_3 Cl 0.38994(10) 0.35873(15) 0.17064(10)
N1_4 N 0.8858(2) 0.6705(4) 0.1026(2)
C1_4 C 0.8859(3) 0.5788(6) 0.1015(3)
H1_4 H 0.903817 0.546159 0.123793
C2_4 C 0.8602(3) 0.5274(5) 0.0682(3)
H2_2 H 0.861479 0.461674 0.067403
C3_4 C 0.8328(2) 0.5775(5) 0.0365(2)
C4_4 C 0.8331(2) 0.6720(5) 0.0385(2)
H3_4 H 0.815281 0.707240 0.017201
C5_4 C 0.8600(3) 0.7168(5) 0.0725(2)
H4_4 H 0.859729 0.782599 0.073967
H5_2 H 0.841919 0.115500 0.007510
H6_2 H 0.840130 0.274551 0.012520
C16_4 C 0.8069(2) 0.5266(4) 0.0004(2)
Zn2_2 Zn 0.92578(4) 0.74469(7) 0.14917(3)
Cl3_4 Cl 0.98421(10) 0.7650(3) 0.12567(8)
Cl4_4 Cl 0.88994(10) 0.85873(15) 0.17064(10)
Cl8_2 Cl 0.33053(17) 0.4179(2) 0.02046(12)
N27_2 N 0.9369(2) 0.6450(4) 0.19755(19)
N2_2 N 0.7975(2) 0.0995(5) 0.9577(2)
N3_3 N 0.6614(2) 0.6673(4) 0.8548(2)
N4_3 N 0.81348(19) 0.4347(4) 0.99739(19)
N5_3 N 0.75858(18) 0.4347(4) 0.93709(18)
N6_3 N 0.77694(17) 0.5740(4) 0.97530(17)
N7_3 N 0.5707(2) 0.6492(5) 0.8009(2)
N8_3 N 0.4423(2) 0.0720(4) 0.6931(2)
N9_3 N 0.3416(2) 0.4315(5) 0.9149(3)
N10_3 N 0.47688(17) 0.3698(4) 0.77369(17)
N11_3 N 0.42200(19) 0.3116(5) 0.8038(2)
N12_3 N 0.45448(18) 0.4530(5) 0.8309(2)
N13_3 N 0.3908(2) 0.0472(4) 0.5993(2)
N14_3 N 0.2972(2) 0.6171(4) 0.4595(2)
N15_2 N 0.16084(17) 0.0524(4) 0.35626(19)
N16_3 N 0.31707(18) 0.2806(4) 0.49475(19)
N17_3 N 0.26031(18) 0.2837(4) 0.43653(19)
N18_3 N 0.28026(17) 0.1418(4) 0.47375(17)
N19_3 N 0.3384(2) 0.7894(5) 0.4177(2)
N20_3 N 0.56827(19) 0.5689(4) 0.3039(2)
N22_3 N 0.45205(16) 0.7653(4) 0.33294(17)
N23_3 N 0.47518(17) 0.8455(4) 0.27626(16)
N24_3 N 0.41905(18) 0.9048(5) 0.30747(19)
C6_3 C 0.8220(3) 0.1483(5) 0.9872(3)
C7_3 C 0.8211(3) 0.2429(5) 0.9909(3)
C8_3 C 0.7915(2) 0.2908(5) 0.9621(2)
C9_3 C 0.7660(3) 0.2415(6) 0.9308(3)
H7_3 H 0.745438 0.272468 0.910594
C10_3 C 0.7703(3) 0.1463(6) 0.9287(3)
H8_3 H 0.753405 0.113172 0.905916
C11_3 C 0.6642(3) 0.5735(5) 0.8544(3)
H9_3 H 0.645173 0.539317 0.833754
C12_3 C 0.6938(2) 0.5268(5) 0.8830(2)
H10_3 H 0.694813 0.461049 0.882106
C13_3 C 0.7222(2) 0.5749(5) 0.9134(2)
C14_3 C 0.7188(2) 0.6707(5) 0.9137(2)
H11_3 H 0.737190 0.706675 0.934077
C15_3 C 0.6880(2) 0.7136(5) 0.8836(2)
H12_3 H 0.686208 0.779338 0.883836
C17_3 C 0.7885(2) 0.3941(5) 0.9668(2)
C18_3 C 0.7554(2) 0.5267(4) 0.9442(2)
C19_3 C 0.5431(3) 0.6577(7) 0.8270(3)
H13_3 H 0.543909 0.711020 0.844948
C20_3 C 0.5141(3) 0.5916(8) 0.8286(3)
H14_3 H 0.496162 0.596864 0.848973
C21_3 C 0.5104(2) 0.5141(5) 0.7996(2)
C22_3 C 0.5358(2) 0.5118(5) 0.7711(2)
H15_3 H 0.533821 0.463383 0.750305
C23_3 C 0.5652(2) 0.5811(6) 0.7723(2)
H16_3 H 0.582511 0.579323 0.751186
C24_3 C 0.4710(2) 0.1381(5) 0.6938(2)
H17_3 H 0.489767 0.131903 0.674314
C25_3 C 0.4752(2) 0.2141(5) 0.7206(2)
H18_3 H 0.496528 0.258103 0.720177
C26_3 C 0.4475(2) 0.2243(5) 0.7479(2)
C27_3 C 0.4175(3) 0.1568(7) 0.7488(3)
H19_3 H 0.398652 0.160456 0.768389
C28_3 C 0.4164(3) 0.0829(7) 0.7194(3)
H20_3 H 0.395252 0.037770 0.718690
C29_3 C 0.3817(3) 0.4535(8) 0.9274(3)
H21_3 H 0.390950 0.480132 0.955216
C30_3 C 0.4098(3) 0.4381(9) 0.9004(3)
H22_3 H 0.437907 0.455364 0.909447
C31_3 C 0.3968(2) 0.3975(6) 0.8604(3)
C32_3 C 0.3563(3) 0.3699(8) 0.8483(3)
H23_3 H 0.347041 0.338793 0.821561
C33_3 C 0.3300(3) 0.3884(8) 0.8758(3)
H24_3 H 0.301966 0.370264 0.867298
C34_3 C 0.4790(2) 0.4426(6) 0.8016(2)
C35_3 C 0.4489(2) 0.3091(5) 0.7768(2)
C36_3 C 0.4258(2) 0.3861(6) 0.8295(2)
C37_3 C 0.3909(3) 0.1406(6) 0.5946(3)
H25_3 H 0.410489 0.175103 0.614418
C38_3 C 0.3656(3) 0.1871(5) 0.5644(3)
H26_3 H 0.366362 0.252898 0.563999
C39_3 C 0.3387(2) 0.1406(5) 0.5340(2)
C40_3 C 0.3367(2) 0.0440(5) 0.5384(2)
H27_3 H 0.317128 0.008939 0.518783
C41_3 C 0.3625(2) 0.0015(5) 0.5705(2)
C42_3 C 0.3237(3) 0.5694(6) 0.4898(3)
H29_3 H 0.343611 0.602072 0.510006
C43_3 C 0.3221(3) 0.4734(6) 0.4918(3)
H30_3 H 0.340871 0.440629 0.513259
C44_3 C 0.2932(2) 0.4261(4) 0.4623(2)
C45_3 C 0.2659(3) 0.4753(6) 0.4317(3)
H31_3 H 0.246129 0.443839 0.410676
C46_3 C 0.2679(3) 0.5717(5) 0.4321(3)
H32_3 H 0.247955 0.606023 0.412465
C47_3 C 0.1636(2) 0.1432(5) 0.3566(2)
H33_3 H 0.143356 0.176803 0.337058
C48_3 C 0.1938(2) 0.1934(5) 0.3833(2)
H34_3 H 0.194696 0.259118 0.382030
C49_3 C 0.2229(2) 0.1432(5) 0.4121(2)
C50_3 C 0.2202(2) 0.0472(5) 0.4129(2)
H35_3 H 0.239703 0.011606 0.432351
C51_3 C 0.1888(2) 0.0053(5) 0.3850(3)
C52_3 C 0.3098(2) 0.1903(5) 0.4991(2)
C53_3 C 0.2897(2) 0.3242(4) 0.4640(2)
C54_3 C 0.2557(2) 0.1930(4) 0.4423(2)
C55_3 C 0.3273(3) 0.8275(7) 0.3800(3)
H37_3 H 0.299248 0.845979 0.371371
C56_3 C 0.3537(2) 0.8424(7) 0.3519(3)
H38_3 H 0.343506 0.869969 0.324446
C57_3 C 0.3946(2) 0.8186(6) 0.3624(2)
C58_3 C 0.4074(3) 0.7770(7) 0.4030(2)
H39_3 H 0.435060 0.756568 0.412192
C59_3 C 0.3777(4) 0.7665(9) 0.4299(3)
H40_3 H 0.386357 0.741617 0.458170
C62_3 C 0.4440(2) 0.9932(5) 0.2515(2)
H43_3 H 0.492048 0.962263 0.223603
C65_3 C 0.5648(2) 0.6389(5) 0.2742(2)
H45_3 H 0.582890 0.640926 0.253816
C66_3 C 0.5355(2) 0.7063(5) 0.2737(2)
H46_3 H 0.533602 0.755922 0.253446
C67_3 C 0.5084(2) 0.7020(5) 0.3027(2)
C68_3 C 0.5112(2) 0.6284(6) 0.3312(3)
H47_3 H 0.492332 0.622391 0.350563
C69_3 C 0.5415(3) 0.5651(7) 0.3311(3)
H48_3 H 0.543847 0.515511 0.351380
C70_3 C 0.4238(2) 0.8301(5) 0.3334(2)
C71_3 C 0.4762(2) 0.7760(5) 0.3044(2)
C72_3 C 0.4461(2) 0.9109(5) 0.2804(2)
Zn1_2 Zn 0.61808(3) 0.47986(7) 0.31174(3)
Cl1_3 Cl 0.63982(8) 0.4819(3) 0.24961(9)
Cl2_3 Cl 0.60188(8) 0.35523(15) 0.34561(9)
Zn4_2 Zn 0.30062(5) 0.45855(8) 0.95476(5)
Cl7_3 Cl 0.23948(10) 0.4116(2) 0.92074(17)
Zn5_3 Zn 0.61978(3) 0.73749(7) 0.80928(3)
Cl9_3 Cl 0.64219(8) 0.7326(2) 0.74697(8)
Cl10_3 Cl 0.60297(8) 0.86324(15) 0.84234(9)
Zn6_3 Zn 0.29807(5) 0.76037(8) 0.45780(5)
Cl11_3 Cl 0.23669(10) 0.80897(18) 0.42689(13)
Cl12_3 Cl 0.32884(13) 0.80046(19) 0.52316(9)
N25_2 N 0.2975(2) 0.5995(5) 0.9577(2)
N26_2 N 0.66084(17) 0.5524(4) 0.35626(19)
H28_3 H 0.360764 0.936106 0.573056
H36_3 H 0.186587 0.939703 0.385851
Zn3_3 Zn 0.43179(4) 0.97451(7) 0.64487(4)
Cl5_3 Cl 0.39679(9) 0.85809(16) 0.66422(10)
Cl6_3 Cl 0.49069(9) 0.9614(2) 0.62163(8)
Zn7_2 Zn 0.11808(3) 0.97986(7) 0.31174(3)
Zn9_2 Zn 0.80062(5) 0.95855(8) 0.95476(5)
N3_4 N 0.1614(2) 0.1673(4) 0.8548(2)
N6_4 N 0.27694(17) 0.0740(4) 0.97530(17)
N7_4 N 0.0707(2) 0.1492(5) 0.8009(2)
N20_4 N 0.06827(19) 0.0689(4) 0.3039(2)
C11_4 C 0.1642(3) 0.0735(5) 0.8544(3)
H9_4 H 0.145173 0.039317 0.833754
C12_4 C 0.1938(2) 0.0268(5) 0.8830(2)
C13_4 C 0.2222(2) 0.0749(5) 0.9134(2)
C14_4 C 0.2188(2) 0.1707(5) 0.9137(2)
H11_4 H 0.237190 0.206675 0.934077
C15_4 C 0.1880(2) 0.2136(5) 0.8836(2)
H12_4 H 0.186208 0.279338 0.883836
C18_4 C 0.2554(2) 0.0267(4) 0.9442(2)
C19_4 C 0.0431(3) 0.1577(7) 0.8270(3)
H13_4 H 0.043909 0.211020 0.844948
C20_4 C 0.0141(3) 0.0916(8) 0.8286(3)
C21_4 C 0.0104(2) 0.0141(5) 0.7996(2)
C22_4 C 0.0358(2) 0.0118(5) 0.7711(2)
C23_4 C 0.0652(2) 0.0811(6) 0.7723(2)
H16_4 H 0.082511 0.079323 0.751186
C65_4 C 0.0648(2) 0.1389(5) 0.2742(2)
H45_4 H 0.082890 0.140926 0.253816
C66_4 C 0.0355(2) 0.2063(5) 0.2737(2)
H46_4 H 0.033602 0.255922 0.253446
C67_4 C 0.0084(2) 0.2020(5) 0.3027(2)
C68_4 C 0.0112(2) 0.1284(6) 0.3312(3)
C69_4 C 0.0415(3) 0.0651(7) 0.3311(3)
H48_4 H 0.043847 0.015511 0.351380
Zn5_4 Zn 0.11978(3) 0.23749(7) 0.80928(3)
Cl9_4 Cl 0.14219(8) 0.2326(2) 0.74697(8)
Cl10_4 Cl 0.10297(8) 0.36324(15) 0.84234(9)
N4_4 N 0.31348(19) 0.9347(4) 0.99739(19)
N5_4 N 0.25858(18) 0.9347(4) 0.93709(18)
C6_4 C 0.3220(3) 0.6483(5) 0.9872(3)
C7_4 C 0.3211(3) 0.7429(5) 0.9909(3)
C8_4 C 0.2915(2) 0.7908(5) 0.9621(2)
C9_4 C 0.2660(3) 0.7415(6) 0.9308(3)
H7_4 H 0.245438 0.772468 0.910594
C10_4 C 0.2703(3) 0.6463(6) 0.9287(3)
H8_4 H 0.253405 0.613172 0.905916
H10_4 H 0.194813 0.961049 0.882106
C17_4 C 0.2885(2) 0.8941(5) 0.9668(2)
H15_4 H 0.033821 0.963383 0.750305
Cl1_4 Cl 0.13982(8) 0.9819(3) 0.24961(9)
Cl2_4 Cl 0.10188(8) 0.85523(15) 0.34561(9)
N14_4 N 0.7972(2) 0.1171(4) 0.4595(2)
N19_4 N 0.8384(2) 0.2894(5) 0.4177(2)
N22_4 N 0.95205(16) 0.2653(4) 0.33294(17)
N23_4 N 0.97518(17) 0.3455(4) 0.27626(16)
N24_4 N 0.91905(18) 0.4048(5) 0.30747(19)
H14_4 H 0.996162 0.096864 0.848973
C42_4 C 0.8237(3) 0.0694(6) 0.4898(3)
H29_4 H 0.843611 0.102072 0.510006
C46_4 C 0.7679(3) 0.0717(5) 0.4321(3)
H32_4 H 0.747955 0.106023 0.412465
C55_4 C 0.8273(3) 0.3275(7) 0.3800(3)
H37_4 H 0.799248 0.345979 0.371371
C56_4 C 0.8537(2) 0.3424(7) 0.3519(3)
H38_4 H 0.843506 0.369969 0.324446
C57_4 C 0.8946(2) 0.3186(6) 0.3624(2)
C58_4 C 0.9074(3) 0.2770(7) 0.4030(2)
H39_4 H 0.935060 0.256568 0.412192
C59_4 C 0.8777(4) 0.2665(9) 0.4299(3)
H40_4 H 0.886357 0.241617 0.458170
C60_4 C 0.9119(3) 0.6360(6) 0.2251(3)
H41_4 H 0.891621 0.682450 0.225960
C61_4 C 0.9139(3) 0.5607(6) 0.2531(3)
H42_4 H 0.895314 0.555425 0.272869
C62_4 C 0.9440(2) 0.4932(5) 0.2515(2)
C63_4 C 0.9708(2) 0.5064(5) 0.2244(2)
H43_4 H 0.992048 0.462263 0.223603
C64_4 C 0.9677(2) 0.5836(5) 0.1976(2)
H44_4 H 0.987282 0.593130 0.179258
H47_4 H 0.992332 0.122391 0.350563
C70_4 C 0.9238(2) 0.3301(5) 0.3334(2)
C71_4 C 0.9762(2) 0.2760(5) 0.3044(2)
C72_4 C 0.9461(2) 0.4109(5) 0.2804(2)
Zn6_4 Zn 0.79807(5) 0.26037(8) 0.45780(5)
Cl11_4 Cl 0.73669(10) 0.30897(18) 0.42689(13)
Cl12_4 Cl 0.82884(13) 0.30046(19) 0.52316(9)
N8_4 N 0.9423(2) 0.5720(4) 0.6931(2)
N9_4 N 0.8416(2) 0.9315(5) 0.9149(3)
N10_4 N 0.97688(17) 0.8698(4) 0.77369(17)
N11_4 N 0.92200(19) 0.8116(5) 0.8038(2)
N12_4 N 0.95448(18) 0.9530(5) 0.8309(2)
N13_4 N 0.8908(2) 0.5472(4) 0.5993(2)
N16_4 N 0.81707(18) 0.7806(4) 0.49475(19)
N17_4 N 0.76031(18) 0.7837(4) 0.43653(19)
N18_4 N 0.78026(17) 0.6418(4) 0.47375(17)
C24_4 C 0.9710(2) 0.6381(5) 0.6938(2)
H17_4 H 0.989767 0.631903 0.674314
C25_4 C 0.9752(2) 0.7141(5) 0.7206(2)
H18_4 H 0.996528 0.758103 0.720177
C26_4 C 0.9475(2) 0.7243(5) 0.7479(2)
C27_4 C 0.9175(3) 0.6568(7) 0.7488(3)
H19_4 H 0.898652 0.660456 0.768389
C28_4 C 0.9164(3) 0.5829(7) 0.7194(3)
H20_4 H 0.895252 0.537770 0.718690
C29_4 C 0.8817(3) 0.9535(8) 0.9274(3)
H21_4 H 0.890950 0.980132 0.955216
C30_4 C 0.9098(3) 0.9381(9) 0.9004(3)
H22_4 H 0.937907 0.955364 0.909447
C31_4 C 0.8968(2) 0.8975(6) 0.8604(3)
C32_4 C 0.8563(3) 0.8699(8) 0.8483(3)
H23_4 H 0.847041 0.838793 0.821561
C33_4 C 0.8300(3) 0.8884(8) 0.8758(3)
H24_4 H 0.801966 0.870264 0.867298
C34_4 C 0.9790(2) 0.9426(6) 0.8016(2)
C35_4 C 0.9489(2) 0.8091(5) 0.7768(2)
C36_4 C 0.9258(2) 0.8861(6) 0.8295(2)
C37_4 C 0.8909(3) 0.6406(6) 0.5946(3)
H25_4 H 0.910489 0.675103 0.614418
C38_4 C 0.8656(3) 0.6871(5) 0.5644(3)
H26_4 H 0.866362 0.752898 0.563999
C39_4 C 0.8387(2) 0.6406(5) 0.5340(2)
C40_4 C 0.8367(2) 0.5440(5) 0.5384(2)
H27_4 H 0.817128 0.508939 0.518783
C41_4 C 0.8625(2) 0.5015(5) 0.5705(2)
H28_4 H 0.860764 0.436106 0.573056
C43_4 C 0.8221(3) 0.9734(6) 0.4918(3)
H30_4 H 0.840871 0.940629 0.513259
C44_4 C 0.7932(2) 0.9261(4) 0.4623(2)
C45_4 C 0.7659(3) 0.9753(6) 0.4317(3)
H31_4 H 0.746129 0.943839 0.410676
C47_4 C 0.6636(2) 0.6432(5) 0.3566(2)
H33_4 H 0.643356 0.676803 0.337058
C48_4 C 0.6938(2) 0.6934(5) 0.3833(2)
H34_4 H 0.694696 0.759118 0.382030
C49_4 C 0.7229(2) 0.6432(5) 0.4121(2)
C50_4 C 0.7202(2) 0.5472(5) 0.4129(2)
H35_4 H 0.739703 0.511606 0.432351
C51_4 C 0.6888(2) 0.5053(5) 0.3850(3)
H36_4 H 0.686587 0.439703 0.385851
C52_4 C 0.8098(2) 0.6903(5) 0.4991(2)
C53_4 C 0.7897(2) 0.8242(4) 0.4640(2)
C54_4 C 0.7557(2) 0.6930(4) 0.4423(2)
Zn3_4 Zn 0.93179(4) 0.47451(7) 0.64487(4)
Cl5_4 Cl 0.89679(9) 0.35809(16) 0.66422(10)
Cl6_4 Cl 0.99069(9) 0.4614(2) 0.62163(8)
Cl7_4 Cl 0.73948(10) 0.9116(2) 0.92074(17)
Cl8_3 Cl 0.16947(17) 0.9179(2) 0.97954(12)
H2_3 H 0.638521 0.961674 0.932597
H5_3 H 0.658081 0.615500 0.992490
H6_3 H 0.659870 0.774551 0.987480
H2_4 H 0.361479 0.961674 0.067403
H5_4 H 0.341919 0.615500 0.007510
H6_4 H 0.340130 0.774551 0.012520
Cl8_4 Cl 0.83053(17) 0.9179(2) 0.02046(12)
loop_
_geom_bond_atom_site_label_1
_geom_bond_atom_site_label_2
_geom_bond_site_symmetry_1
_geom_bond_site_symmetry_2
N21 C60 1_555 1_555
C60 H41 1_555 1_555
C61 C60 1_555 1_555
H42 C61 1_555 1_555
C64 N21 1_555 1_555
H44 C64 1_555 1_555
Zn8 N21 1_555 1_555
C63 C64 1_555 1_555
N1 C1 1_555 1_555
C1 H1 1_555 1_555
C2 C1 1_555 1_555
C3 C2 1_555 1_555
C4 C3 1_555 1_555
H3 C4 1_555 1_555
C5 N1 1_555 1_555
H4 C5 1_555 1_555
C16 C3 1_555 1_555
Zn8 N1 1_555 1_555
Cl3 Zn8 1_555 1_555
Cl4 Zn8 1_555 1_555
C4 C5 1_555 1_555
N2 C6 1_555 1_555
N3 C11 1_555 1_555
N5 C17 1_555 1_555
N7 C19 1_555 1_555
N8 C24 1_555 1_555
N9 C29 1_555 1_555
N10 C34 1_555 1_555
N11 C35 1_555 1_555
N12 C34 1_555 1_555
N13 C37 1_555 1_555
N14 C42 1_555 1_555
N15 C47 1_555 1_555
N16 C52 1_555 1_555
N17 C53 1_555 1_555
N18 C52 1_555 1_555
N19 C55 1_555 1_555
N20 C65 1_555 1_555
N22 C70 1_555 1_555
N23 C71 1_555 1_555
N24 C70 1_555 1_555
C7 C6 1_555 1_555
C8 C7 1_555 1_555
C9 C8 1_555 1_555
H7 C9 1_555 1_555
C10 N2 1_555 1_555
H8 C10 1_555 1_555
C11 H9 1_555 1_555
C12 C11 1_555 1_555
H10 C12 1_555 1_555
C13 C12 1_555 1_555
C14 C13 1_555 1_555
H11 C14 1_555 1_555
C15 N3 1_555 1_555
H12 C15 1_555 1_555
C17 N4 1_555 1_555
C18 N5 1_555 1_555
C19 H13 1_555 1_555
C20 C19 1_555 1_555
H14 C20 1_555 1_555
C21 C20 1_555 1_555
C22 C21 1_555 1_555
H15 C22 1_555 1_555
C23 N7 1_555 1_555
H16 C23 1_555 1_555
C24 H17 1_555 1_555
C25 C24 1_555 1_555
H18 C25 1_555 1_555
C26 C25 1_555 1_555
C27 C26 1_555 1_555
H19 C27 1_555 1_555
C28 N8 1_555 1_555
H20 C28 1_555 1_555
C29 H21 1_555 1_555
C30 C29 1_555 1_555
H22 C30 1_555 1_555
C31 C30 1_555 1_555
C32 C31 1_555 1_555
H23 C32 1_555 1_555
C33 N9 1_555 1_555
H24 C33 1_555 1_555
C34 C21 1_555 1_555
C35 N10 1_555 1_555
C36 N11 1_555 1_555
C37 H25 1_555 1_555
C38 C37 1_555 1_555
H26 C38 1_555 1_555
C39 C38 1_555 1_555
C40 C39 1_555 1_555
H27 C40 1_555 1_555
C41 N13 1_555 1_555
C42 H29 1_555 1_555
C43 C42 1_555 1_555
H30 C43 1_555 1_555
C44 C43 1_555 1_555
C45 C44 1_555 1_555
H31 C45 1_555 1_555
C46 N14 1_555 1_555
H32 C46 1_555 1_555
C47 H33 1_555 1_555
C48 C47 1_555 1_555
H34 C48 1_555 1_555
C49 C48 1_555 1_555
C50 C49 1_555 1_555
H35 C50 1_555 1_555
C51 N15 1_555 1_555
C52 C39 1_555 1_555
C53 N16 1_555 1_555
C54 N17 1_555 1_555
C55 H37 1_555 1_555
C56 C55 1_555 1_555
H38 C56 1_555 1_555
C57 C56 1_555 1_555
C58 C57 1_555 1_555
H39 C58 1_555 1_555
C59 N19 1_555 1_555
H40 C59 1_555 1_555
C65 H45 1_555 1_555
C66 C65 1_555 1_555
H46 C66 1_555 1_555
C67 C66 1_555 1_555
C68 C67 1_555 1_555
H47 C68 1_555 1_555
C69 N20 1_555 1_555
H48 C69 1_555 1_555
C70 C57 1_555 1_555
C71 N22 1_555 1_555
C72 N23 1_555 1_555
Zn1 N20 1_555 1_555
Cl1 Zn1 1_555 1_555
Cl2 Zn1 1_555 1_555
Zn4 N9 1_555 1_555
Cl7 Zn4 1_555 1_555
Zn5 N3 1_555 1_555
Cl9 Zn5 1_555 1_555
Cl10 Zn5 1_555 1_555
Zn6 N14 1_555 1_555
Cl11 Zn6 1_555 1_555
Cl12 Zn6 1_555 1_555
N25 Zn4 1_555 1_555
N26 Zn1 1_555 1_555
N6 C18 1_555 1_555
N7 Zn5 1_555 1_555
N12 C36 1_555 1_555
N18 C54 1_555 1_555
N19 Zn6 1_555 1_555
N24 C72 1_555 1_555
C8 C17 1_555 1_555
C9 C10 1_555 1_555
C13 C18 1_555 1_555
C14 C15 1_555 1_555
C22 C23 1_555 1_555
C26 C35 1_555 1_555
C27 C28 1_555 1_555
C31 C36 1_555 1_555
C32 C33 1_555 1_555
C40 C41 1_555 1_555
C44 C53 1_555 1_555
C45 C46 1_555 1_555
C49 C54 1_555 1_555
C50 C51 1_555 1_555
C58 C59 1_555 1_555
C62 C72 1_555 1_555
C67 C71 1_555 1_555
C68 C69 1_555 1_555
N1_2 C1_2 1_555 1_555
C1_2 H1_2 1_555 1_555
C2_2 C1_2 1_555 1_555
H2 C2_2 1_555 1_555
C3_2 C2_2 1_555 1_555
C4_2 C3_2 1_555 1_555
H3_2 C4_2 1_555 1_555
C5_2 N1_2 1_555 1_555
H4_2 C5_2 1_555 1_555
C16_2 C3_2 1_555 1_555
Zn2 N1_2 1_555 1_555
Cl3_2 Zn2 1_555 1_555
Cl4_2 Zn2 1_555 1_555
N27 Zn2 1_555 1_555
C4_2 C5_2 1_555 1_555
Cl5 Zn3 1_555 1_555
Cl6 Zn3 1_555 1_555
N14_2 C42_2 1_555 1_555
N19_2 C55_2 1_555 1_555
N27 C60_2 1_555 1_555
N22_2 C70_2 1_555 1_555
N23_2 C71_2 1_555 1_555
N24_2 C70_2 1_555 1_555
C42_2 H29_2 1_555 1_555
C46_2 N14_2 1_555 1_555
H32_2 C46_2 1_555 1_555
C55_2 H37_2 1_555 1_555
C56_2 C55_2 1_555 1_555
H38_2 C56_2 1_555 1_555
C57_2 C56_2 1_555 1_555
C58_2 C57_2 1_555 1_555
H39_2 C58_2 1_555 1_555
C59_2 N19_2 1_555 1_555
H40_2 C59_2 1_555 1_555
C60_2 H41_2 1_555 1_555
C61_2 C60_2 1_555 1_555
H42_2 C61_2 1_555 1_555
C62_2 C61_2 1_555 1_555
C63_2 C62_2 1_555 1_555
H43_2 C63_2 1_555 1_555
C64_2 N27 1_555 1_555
H44_2 C64_2 1_555 1_555
C70_2 C57_2 1_555 1_555
C71_2 N22_2 1_555 1_555
C72_2 N23_2 1_555 1_555
Zn6_2 N14_2 1_555 1_555
Cl11_2 Zn6_2 1_555 1_555
Cl12_2 Zn6_2 1_555 1_555
N19_2 Zn6_2 1_555 1_555
N24_2 C72_2 1_555 1_555
C58_2 C59_2 1_555 1_555
C62_2 C72_2 1_555 1_555
C63_2 C64_2 1_555 1_555
N8_2 C24_2 1_555 1_555
N9_2 C29_2 1_555 1_555
N10_2 C34_2 1_555 1_555
N11_2 C35_2 1_555 1_555
N12_2 C34_2 1_555 1_555
N13_2 C37_2 1_555 1_555
N26 C47_2 1_555 1_555
N16_2 C52_2 1_555 1_555
N17_2 C53_2 1_555 1_555
N18_2 C52_2 1_555 1_555
C24_2 H17_2 1_555 1_555
C25_2 C24_2 1_555 1_555
H18_2 C25_2 1_555 1_555
C26_2 C25_2 1_555 1_555
C27_2 C26_2 1_555 1_555
H19_2 C27_2 1_555 1_555
C28_2 N8_2 1_555 1_555
H20_2 C28_2 1_555 1_555
C29_2 H21_2 1_555 1_555
C30_2 C29_2 1_555 1_555
H22_2 C30_2 1_555 1_555
C31_2 C30_2 1_555 1_555
C32_2 C31_2 1_555 1_555
H23_2 C32_2 1_555 1_555
C33_2 N9_2 1_555 1_555
H24_2 C33_2 1_555 1_555
C35_2 N10_2 1_555 1_555
C36_2 N11_2 1_555 1_555
C37_2 H25_2 1_555 1_555
C38_2 C37_2 1_555 1_555
H26_2 C38_2 1_555 1_555
C39_2 C38_2 1_555 1_555
C40_2 C39_2 1_555 1_555
H27_2 C40_2 1_555 1_555
C41_2 N13_2 1_555 1_555
H28_2 C41_2 1_555 1_555
H30_2 C43_2 1_555 1_555
C44_2 C43_2 1_555 1_555
C45_2 C44_2 1_555 1_555
H31_2 C45_2 1_555 1_555
C47_2 H33_2 1_555 1_555
C48_2 C47_2 1_555 1_555
H34_2 C48_2 1_555 1_555
C49_2 C48_2 1_555 1_555
C50_2 C49_2 1_555 1_555
H35_2 C50_2 1_555 1_555
C51_2 N26 1_555 1_555
H36_2 C51_2 1_555 1_555
C52_2 C39_2 1_555 1_555
C53_2 N16_2 1_555 1_555
C54_2 N17_2 1_555 1_555
Zn3_2 N8_2 1_555 1_555
Cl5_2 Zn3_2 1_555 1_555
Cl6_2 Zn3_2 1_555 1_555
Zn9 N9_2 1_555 1_555
Cl7_2 Zn9 1_555 1_555
N12_2 C36_2 1_555 1_555
N13_2 Zn3_2 1_555 1_555
N18_2 C54_2 1_555 1_555
C26_2 C35_2 1_555 1_555
C27_2 C28_2 1_555 1_555
C31_2 C36_2 1_555 1_555
C32_2 C33_2 1_555 1_555
C40_2 C41_2 1_555 1_555
C44_2 C53_2 1_555 1_555
C49_2 C54_2 1_555 1_555
C50_2 C51_2 1_555 1_555
N3_2 C11_2 1_555 1_555
N7_2 C19_2 1_555 1_555
N20_2 C65_2 1_555 1_555
C11_2 H9_2 1_555 1_555
C12_2 C11_2 1_555 1_555
C13_2 C12_2 1_555 1_555
C14_2 C13_2 1_555 1_555
H11_2 C14_2 1_555 1_555
C15_2 N3_2 1_555 1_555
H12_2 C15_2 1_555 1_555
C19_2 H13_2 1_555 1_555
C20_2 C19_2 1_555 1_555
C21_2 C20_2 1_555 1_555
C22_2 C21_2 1_555 1_555
C23_2 N7_2 1_555 1_555
H16_2 C23_2 1_555 1_555
C65_2 H45_2 1_555 1_555
C66_2 C65_2 1_555 1_555
H46_2 C66_2 1_555 1_555
C67_2 C66_2 1_555 1_555
C68_2 C67_2 1_555 1_555
C69_2 N20_2 1_555 1_555
H48_2 C69_2 1_555 1_555
Zn5_2 N3_2 1_555 1_555
Cl9_2 Zn5_2 1_555 1_555
Cl10_2 Zn5_2 1_555 1_555
N6_2 C18_2 1_555 1_555
N7_2 Zn5_2 1_555 1_555
C13_2 C18_2 1_555 1_555
C14_2 C15_2 1_555 1_555
C22_2 C23_2 1_555 1_555
C68_2 C69_2 1_555 1_555
N25 C6_2 1_555 1_555
N5_2 C17_2 1_555 1_555
C7_2 C6_2 1_555 1_555
C8_2 C7_2 1_555 1_555
C9_2 C8_2 1_555 1_555
H7_2 C9_2 1_555 1_555
C10_2 N25 1_555 1_555
H8_2 C10_2 1_555 1_555
C17_2 N4_2 1_555 1_555
Cl1_2 Zn7 1_555 1_555
Cl2_2 Zn7 1_555 1_555
C8_2 C17_2 1_555 1_555
C9_2 C10_2 1_555 1_555
N21_2 C60_3 1_555 1_555
C60_3 H41_3 1_555 1_555
C61_3 C60_3 1_555 1_555
H42_3 C61_3 1_555 1_555
C64_3 N21_2 1_555 1_555
H44_3 C64_3 1_555 1_555
Zn8_2 N21_2 1_555 1_555
C63_3 C64_3 1_555 1_555
N1_3 C1_3 1_555 1_555
C1_3 H1_3 1_555 1_555
C2_3 C1_3 1_555 1_555
C3_3 C2_3 1_555 1_555
C4_3 C3_3 1_555 1_555
H3_3 C4_3 1_555 1_555
C5_3 N1_3 1_555 1_555
H4_3 C5_3 1_555 1_555
C16_3 C3_3 1_555 1_555
Zn8_2 N1_3 1_555 1_555
Cl3_3 Zn8_2 1_555 1_555
Cl4_3 Zn8_2 1_555 1_555
C4_3 C5_3 1_555 1_555
N1_4 C1_4 1_555 1_555
C1_4 H1_4 1_555 1_555
C2_4 C1_4 1_555 1_555
H2_2 C2_4 1_555 1_555
C3_4 C2_4 1_555 1_555
C4_4 C3_4 1_555 1_555
H3_4 C4_4 1_555 1_555
C5_4 N1_4 1_555 1_555
H4_4 C5_4 1_555 1_555
C16_4 C3_4 1_555 1_555
Zn2_2 N1_4 1_555 1_555
Cl3_4 Zn2_2 1_555 1_555
Cl4_4 Zn2_2 1_555 1_555
N27_2 Zn2_2 1_555 1_555
C4_4 C5_4 1_555 1_555
N2_2 C6_3 1_555 1_555
N3_3 C11_3 1_555 1_555
N5_3 C17_3 1_555 1_555
N7_3 C19_3 1_555 1_555
N8_3 C24_3 1_555 1_555
N9_3 C29_3 1_555 1_555
N10_3 C34_3 1_555 1_555
N11_3 C35_3 1_555 1_555
N12_3 C34_3 1_555 1_555
N13_3 C37_3 1_555 1_555
N14_3 C42_3 1_555 1_555
N15_2 C47_3 1_555 1_555
N16_3 C52_3 1_555 1_555
N17_3 C53_3 1_555 1_555
N18_3 C52_3 1_555 1_555
N19_3 C55_3 1_555 1_555
N20_3 C65_3 1_555 1_555
N22_3 C70_3 1_555 1_555
N23_3 C71_3 1_555 1_555
N24_3 C70_3 1_555 1_555
C7_3 C6_3 1_555 1_555
C8_3 C7_3 1_555 1_555
C9_3 C8_3 1_555 1_555
H7_3 C9_3 1_555 1_555
C10_3 N2_2 1_555 1_555
H8_3 C10_3 1_555 1_555
C11_3 H9_3 1_555 1_555
C12_3 C11_3 1_555 1_555
H10_3 C12_3 1_555 1_555
C13_3 C12_3 1_555 1_555
C14_3 C13_3 1_555 1_555
H11_3 C14_3 1_555 1_555
C15_3 N3_3 1_555 1_555
H12_3 C15_3 1_555 1_555
C17_3 N4_3 1_555 1_555
C18_3 N5_3 1_555 1_555
C19_3 H13_3 1_555 1_555
C20_3 C19_3 1_555 1_555
H14_3 C20_3 1_555 1_555
C21_3 C20_3 1_555 1_555
C22_3 C21_3 1_555 1_555
H15_3 C22_3 1_555 1_555
C23_3 N7_3 1_555 1_555
H16_3 C23_3 1_555 1_555
C24_3 H17_3 1_555 1_555
C25_3 C24_3 1_555 1_555
H18_3 C25_3 1_555 1_555
C26_3 C25_3 1_555 1_555
C27_3 C26_3 1_555 1_555
H19_3 C27_3 1_555 1_555
C28_3 N8_3 1_555 1_555
H20_3 C28_3 1_555 1_555
C29_3 H21_3 1_555 1_555
C30_3 C29_3 1_555 1_555
H22_3 C30_3 1_555 1_555
C31_3 C30_3 1_555 1_555
C32_3 C31_3 1_555 1_555
H23_3 C32_3 1_555 1_555
C33_3 N9_3 1_555 1_555
H24_3 C33_3 1_555 1_555
C34_3 C21_3 1_555 1_555
C35_3 N10_3 1_555 1_555
C36_3 N11_3 1_555 1_555
C37_3 H25_3 1_555 1_555
C38_3 C37_3 1_555 1_555
H26_3 C38_3 1_555 1_555
C39_3 C38_3 1_555 1_555
C40_3 C39_3 1_555 1_555
H27_3 C40_3 1_555 1_555
C41_3 N13_3 1_555 1_555
C42_3 H29_3 1_555 1_555
C43_3 C42_3 1_555 1_555
H30_3 C43_3 1_555 1_555
C44_3 C43_3 1_555 1_555
C45_3 C44_3 1_555 1_555
H31_3 C45_3 1_555 1_555
C46_3 N14_3 1_555 1_555
H32_3 C46_3 1_555 1_555
C47_3 H33_3 1_555 1_555
C48_3 C47_3 1_555 1_555
H34_3 C48_3 1_555 1_555
C49_3 C48_3 1_555 1_555
C50_3 C49_3 1_555 1_555
H35_3 C50_3 1_555 1_555
C51_3 N15_2 1_555 1_555
C52_3 C39_3 1_555 1_555
C53_3 N16_3 1_555 1_555
C54_3 N17_3 1_555 1_555
C55_3 H37_3 1_555 1_555
C56_3 C55_3 1_555 1_555
H38_3 C56_3 1_555 1_555
C57_3 C56_3 1_555 1_555
C58_3 C57_3 1_555 1_555
H39_3 C58_3 1_555 1_555
C59_3 N19_3 1_555 1_555
H40_3 C59_3 1_555 1_555
C65_3 H45_3 1_555 1_555
C66_3 C65_3 1_555 1_555
H46_3 C66_3 1_555 1_555
C67_3 C66_3 1_555 1_555
C68_3 C67_3 1_555 1_555
H47_3 C68_3 1_555 1_555
C69_3 N20_3 1_555 1_555
H48_3 C69_3 1_555 1_555
C70_3 C57_3 1_555 1_555
C71_3 N22_3 1_555 1_555
C72_3 N23_3 1_555 1_555
Zn1_2 N20_3 1_555 1_555
Cl1_3 Zn1_2 1_555 1_555
Cl2_3 Zn1_2 1_555 1_555
Zn4_2 N9_3 1_555 1_555
Cl7_3 Zn4_2 1_555 1_555
Zn5_3 N3_3 1_555 1_555
Cl9_3 Zn5_3 1_555 1_555
Cl10_3 Zn5_3 1_555 1_555
Zn6_3 N14_3 1_555 1_555
Cl11_3 Zn6_3 1_555 1_555
Cl12_3 Zn6_3 1_555 1_555
N25_2 Zn4_2 1_555 1_555
N26_2 Zn1_2 1_555 1_555
N6_3 C18_3 1_555 1_555
N7_3 Zn5_3 1_555 1_555
N12_3 C36_3 1_555 1_555
N18_3 C54_3 1_555 1_555
N19_3 Zn6_3 1_555 1_555
N24_3 C72_3 1_555 1_555
C8_3 C17_3 1_555 1_555
C9_3 C10_3 1_555 1_555
C13_3 C18_3 1_555 1_555
C14_3 C15_3 1_555 1_555
C22_3 C23_3 1_555 1_555
C26_3 C35_3 1_555 1_555
C27_3 C28_3 1_555 1_555
C31_3 C36_3 1_555 1_555
C32_3 C33_3 1_555 1_555
C40_3 C41_3 1_555 1_555
C44_3 C53_3 1_555 1_555
C45_3 C46_3 1_555 1_555
C49_3 C54_3 1_555 1_555
C50_3 C51_3 1_555 1_555
C58_3 C59_3 1_555 1_555
C62_3 C72_3 1_555 1_555
C67_3 C71_3 1_555 1_555
C68_3 C69_3 1_555 1_555
Cl5_3 Zn3_3 1_555 1_555
Cl6_3 Zn3_3 1_555 1_555
N3_4 C11_4 1_555 1_555
N7_4 C19_4 1_555 1_555
N20_4 C65_4 1_555 1_555
C11_4 H9_4 1_555 1_555
C12_4 C11_4 1_555 1_555
C13_4 C12_4 1_555 1_555
C14_4 C13_4 1_555 1_555
H11_4 C14_4 1_555 1_555
C15_4 N3_4 1_555 1_555
H12_4 C15_4 1_555 1_555
C19_4 H13_4 1_555 1_555
C20_4 C19_4 1_555 1_555
C21_4 C20_4 1_555 1_555
C22_4 C21_4 1_555 1_555
C23_4 N7_4 1_555 1_555
H16_4 C23_4 1_555 1_555
C65_4 H45_4 1_555 1_555
C66_4 C65_4 1_555 1_555
H46_4 C66_4 1_555 1_555
C67_4 C66_4 1_555 1_555
C68_4 C67_4 1_555 1_555
C69_4 N20_4 1_555 1_555
H48_4 C69_4 1_555 1_555
Zn5_4 N3_4 1_555 1_555
Cl9_4 Zn5_4 1_555 1_555
Cl10_4 Zn5_4 1_555 1_555
N6_4 C18_4 1_555 1_555
N7_4 Zn5_4 1_555 1_555
C13_4 C18_4 1_555 1_555
C14_4 C15_4 1_555 1_555
C22_4 C23_4 1_555 1_555
C68_4 C69_4 1_555 1_555
N25_2 C6_4 1_555 1_555
N5_4 C17_4 1_555 1_555
C7_4 C6_4 1_555 1_555
C8_4 C7_4 1_555 1_555
C9_4 C8_4 1_555 1_555
H7_4 C9_4 1_555 1_555
C10_4 N25_2 1_555 1_555
H8_4 C10_4 1_555 1_555
C17_4 N4_4 1_555 1_555
Cl1_4 Zn7_2 1_555 1_555
Cl2_4 Zn7_2 1_555 1_555
C8_4 C17_4 1_555 1_555
C9_4 C10_4 1_555 1_555
N14_4 C42_4 1_555 1_555
N19_4 C55_4 1_555 1_555
N27_2 C60_4 1_555 1_555
N22_4 C70_4 1_555 1_555
N23_4 C71_4 1_555 1_555
N24_4 C70_4 1_555 1_555
C42_4 H29_4 1_555 1_555
C46_4 N14_4 1_555 1_555
H32_4 C46_4 1_555 1_555
C55_4 H37_4 1_555 1_555
C56_4 C55_4 1_555 1_555
H38_4 C56_4 1_555 1_555
C57_4 C56_4 1_555 1_555
C58_4 C57_4 1_555 1_555
H39_4 C58_4 1_555 1_555
C59_4 N19_4 1_555 1_555
H40_4 C59_4 1_555 1_555
C60_4 H41_4 1_555 1_555
C61_4 C60_4 1_555 1_555
H42_4 C61_4 1_555 1_555
C62_4 C61_4 1_555 1_555
C63_4 C62_4 1_555 1_555
H43_4 C63_4 1_555 1_555
C64_4 N27_2 1_555 1_555
H44_4 C64_4 1_555 1_555
C70_4 C57_4 1_555 1_555
C71_4 N22_4 1_555 1_555
C72_4 N23_4 1_555 1_555
Zn6_4 N14_4 1_555 1_555
Cl11_4 Zn6_4 1_555 1_555
Cl12_4 Zn6_4 1_555 1_555
N19_4 Zn6_4 1_555 1_555
N24_4 C72_4 1_555 1_555
C58_4 C59_4 1_555 1_555
C62_4 C72_4 1_555 1_555
C63_4 C64_4 1_555 1_555
N8_4 C24_4 1_555 1_555
N9_4 C29_4 1_555 1_555
N10_4 C34_4 1_555 1_555
N11_4 C35_4 1_555 1_555
N12_4 C34_4 1_555 1_555
N13_4 C37_4 1_555 1_555
N26_2 C47_4 1_555 1_555
N16_4 C52_4 1_555 1_555
N17_4 C53_4 1_555 1_555
N18_4 C52_4 1_555 1_555
C24_4 H17_4 1_555 1_555
C25_4 C24_4 1_555 1_555
H18_4 C25_4 1_555 1_555
C26_4 C25_4 1_555 1_555
C27_4 C26_4 1_555 1_555
H19_4 C27_4 1_555 1_555
C28_4 N8_4 1_555 1_555
H20_4 C28_4 1_555 1_555
C29_4 H21_4 1_555 1_555
C30_4 C29_4 1_555 1_555
H22_4 C30_4 1_555 1_555
C31_4 C30_4 1_555 1_555
C32_4 C31_4 1_555 1_555
H23_4 C32_4 1_555 1_555
C33_4 N9_4 1_555 1_555
H24_4 C33_4 1_555 1_555
C35_4 N10_4 1_555 1_555
C36_4 N11_4 1_555 1_555
C37_4 H25_4 1_555 1_555
C38_4 C37_4 1_555 1_555
H26_4 C38_4 1_555 1_555
C39_4 C38_4 1_555 1_555
C40_4 C39_4 1_555 1_555
H27_4 C40_4 1_555 1_555
C41_4 N13_4 1_555 1_555
H28_4 C41_4 1_555 1_555
H30_4 C43_4 1_555 1_555
C44_4 C43_4 1_555 1_555
C45_4 C44_4 1_555 1_555
H31_4 C45_4 1_555 1_555
C47_4 H33_4 1_555 1_555
C48_4 C47_4 1_555 1_555
H34_4 C48_4 1_555 1_555
C49_4 C48_4 1_555 1_555
C50_4 C49_4 1_555 1_555
H35_4 C50_4 1_555 1_555
C51_4 N26_2 1_555 1_555
H36_4 C51_4 1_555 1_555
C52_4 C39_4 1_555 1_555
C53_4 N16_4 1_555 1_555
C54_4 N17_4 1_555 1_555
Zn3_4 N8_4 1_555 1_555
Cl5_4 Zn3_4 1_555 1_555
Cl6_4 Zn3_4 1_555 1_555
Zn9_2 N9_4 1_555 1_555
Cl7_4 Zn9_2 1_555 1_555
N12_4 C36_4 1_555 1_555
N13_4 Zn3_4 1_555 1_555
N18_4 C54_4 1_555 1_555
C26_4 C35_4 1_555 1_555
C27_4 C28_4 1_555 1_555
C31_4 C36_4 1_555 1_555
C32_4 C33_4 1_555 1_555
C40_4 C41_4 1_555 1_555
C44_4 C53_4 1_555 1_555
C49_4 C54_4 1_555 1_555
C50_4 C51_4 1_555 1_555

#END
