
###############################################################################
#
# This file contains modified crystal structure data generated from the
# MOF subset of the Cambridge Structural Database (CSD) v543 
# hosted by the Cambridge Crystallographic Data Centre (CCDC).
#
# This work is licensed under the Creative Commons
# Attribution-NonCommercial-ShareAlike 4.0 International License.
# To view a copy of this license, visit
# http://creativecommons.org/licenses/by-nc-sa/4.0/
# or send a letter to
# Creative Commons, PO Box 1866, Mountain View, CA 94042, USA.
#
# CIF created using the CSD Python API on 29 September 2022
# The structure has been converted into the P1 space group
# The structure has a 3D framework
# The original CSD entry SAVLAG is in the monoclinic crystal system
# The original CSD entry SAVLAG is in a Sohncke space group
# The framework has been calculated to contain at least 10.0% void space
# The void calculation uses a probe of radius 1.32A, grid spacing 0.4
#
###############################################################################

data_SAVLAG
_chemical_formula_moiety         '(C288 H192 Cl48 N96 Zn24)n'
_symmetry_cell_setting           triclinic
_symmetry_space_group_name_H-M   'P 1'
_symmetry_Int_Tables_number      1
_space_group_name_Hall           'P 1'
loop_
_symmetry_equiv_pos_site_id
_symmetry_equiv_pos_as_xyz
1 x,y,z
_cell_length_a                   32.1957(3)
_cell_length_b                   14.48550(10)
_cell_length_c                   31.6250(2)
_cell_angle_alpha                90
_cell_angle_beta                 100.1450(10)
_cell_angle_gamma                90
_cell_volume                     14518.4
loop_
_atom_site_label
_atom_site_type_symbol
_atom_site_fract_x
_atom_site_fract_y
_atom_site_fract_z
N9 N 0.56572(16) 0.0303(3) 0.30033(15)
N13 N 0.61735(16) 0.0542(3) 0.39400(14)
N14 N 0.83248(15) 0.0519(3) 0.65048(15)
C24 C 0.5925(2) 0.0165(5) 0.2732(2)
H17 H 0.614323 0.059889 0.272029
C37 C 0.64192(17) 0.1004(3) 0.42613(15)
H25 H 0.641657 0.165946 0.425341
C38 C 0.66751(16) 0.0570(3) 0.46020(16)
H26 H 0.684923 0.091979 0.481799
C42 C 0.80840(17) 0.0983(4) 0.61848(18)
H29 H 0.811581 0.163321 0.616850
C43 C 0.77912(16) 0.0544(3) 0.58783(17)
H30 H 0.762714 0.089064 0.565387
Zn3 Zn 0.87274(2) 0.12284(5) 0.69688(2)
Cl5 Cl 0.89016(6) 0.25058(10) 0.66578(6)
Cl6 Cl 0.84766(6) 0.11190(15) 0.75720(6)
Zn4 Zn 0.58498(12) 0.13310(11) 0.34398(9)
Cl7 Cl 0.62763(19) 0.2348(2) 0.32174(11)
Cl8 Cl 0.52687(13) 0.17745(19) 0.36631(10)
N27 N 0.92503(14) 0.0381(3) 0.70537(13)
C29 C 0.93056(18) 0.0246(4) 0.22599(18)
H21 H 0.910125 0.030357 0.244138
C30 C 0.96102(17) 0.0942(4) 0.22692(16)
H22 H 0.960852 0.146900 0.244791
C31 C 0.99111(16) 0.0844(3) 0.20132(15)
C32 C 0.9901(2) 0.0038(4) 0.1767(2)
C60 C 0.9546(2) 0.0491(4) 0.68161(17)
H41 H 0.953860 0.103110 0.664442
N3 N 0.70575(15) 0.5029(3) 0.04065(14)
N4 N 0.71830(12) 0.0285(3) 0.02792(12)
N5 N 0.73708(13) 0.1679(3) 0.06550(14)
N6 N 0.68211(14) 0.1677(3) 0.00541(13)
N7 N 0.66366(16) 0.6681(3) 0.08419(15)
N8 N 0.42915(14) 0.4514(3) 0.20097(14)
N10 N 0.54847(13) 0.6424(3) 0.17052(13)
N11 N 0.52480(13) 0.7285(3) 0.22563(12)
N12 N 0.58147(14) 0.7842(3) 0.19465(14)
N15 N 0.70287(14) 0.4860(3) 0.54312(14)
N16 N 0.72123(13) 0.9593(3) 0.52488(12)
N17 N 0.73786(13) 0.8209(3) 0.56461(13)
N18 N 0.68583(13) 0.8207(3) 0.50154(13)
N19 N 0.65848(16) 0.3182(3) 0.58648(15)
N21 N 0.42503(14) 0.5381(3) 0.70537(13)
N22 N 0.57708(14) 0.2047(3) 0.69768(13)
N23 N 0.52101(13) 0.2620(3) 0.72969(12)
N24 N 0.54478(13) 0.3471(3) 0.67426(13)
C8 C 0.77371(17) 0.0275(3) 0.09019(17)
C9 C 0.80122(19) 0.0770(4) 0.1204(2)
H7 H 0.799596 0.142377 0.121710
C10 C 0.8313(2) 0.0284(4) 0.1488(2)
H8 H 0.849722 0.061958 0.170160
C11 C 0.73239(18) 0.4545(4) 0.0696(2)
H9 H 0.750995 0.487300 0.091096
C12 C 0.73417(17) 0.3611(4) 0.06981(18)
H10 H 0.753821 0.329779 0.090917
C13 C 0.70690(15) 0.3108(3) 0.03875(15)
C14 C 0.67978(18) 0.3609(4) 0.00848(17)
C15 C 0.6794(2) 0.4553(4) 0.01044(18)
C16 C 0.68853(16) 0.0767(3) 0.00189(16)
C17 C 0.74142(16) 0.0763(3) 0.05963(16)
C18 C 0.70836(16) 0.2094(3) 0.03697(16)
C19 C 0.6251(2) 0.6327(6) 0.0758(2)
H13 H 0.616838 0.598987 0.049927
C20 C 0.5964(2) 0.6431(5) 0.10323(19)
H14 H 0.569470 0.614479 0.096884
C21 C 0.60734(18) 0.6957(4) 0.14005(17)
C22 C 0.6477(2) 0.7351(5) 0.1482(2)
H15 H 0.656613 0.771976 0.172953
C23 C 0.6738(2) 0.7190(5) 0.1196(2)
H16 H 0.701186 0.745795 0.125215
C25 C 0.5887(2) 0.9383(4) 0.2463(2)
H18 H 0.608125 0.928456 0.227333
C26 C 0.55642(16) 0.8760(3) 0.24780(15)
C27 C 0.52919(17) 0.8915(3) 0.27539(16)
H19 H 0.506914 0.849370 0.276988
C28 C 0.53434(18) 0.9700(4) 0.30129(16)
H20 H 0.515007 0.981083 0.320214
C29_2 C 0.43056(18) 0.5246(4) 0.22599(18)
H21_2 H 0.410125 0.530357 0.244138
C30_2 C 0.46102(17) 0.5942(4) 0.22692(16)
H22_2 H 0.460852 0.646900 0.244791
C31_2 C 0.49111(16) 0.5844(3) 0.20132(15)
C32_2 C 0.4901(2) 0.5038(4) 0.1767(2)
H23 H 0.511072 0.493613 0.159461
C33 C 0.4587(2) 0.4391(4) 0.17738(19)
H24 H 0.458309 0.384747 0.160535
C34 C 0.57800(17) 0.7080(4) 0.16970(16)
C35 C 0.52326(15) 0.6559(3) 0.19889(15)
C36 C 0.55413(16) 0.7911(3) 0.22072(15)
C39 C 0.66707(16) 0.9598(3) 0.46204(16)
C40 C 0.6420(2) 0.9130(4) 0.4285(2)
H27 H 0.641131 0.847396 0.428374
C41 C 0.6186(2) 0.9619(4) 0.3954(2)
H28 H 0.602370 0.928492 0.372424
C44 C 0.77385(16) 0.9608(3) 0.58993(16)
C45 C 0.7986(2) 0.9127(4) 0.62308(18)
H31 H 0.795812 0.847699 0.625430
C46 C 0.8270(2) 0.9596(4) 0.6521(2)
H32 H 0.843725 0.925873 0.674603
C47 C 0.6789(2) 0.5313(4) 0.51155(18)
H33 H 0.660332 0.497044 0.490612
C48 C 0.67974(17) 0.6265(4) 0.50776(16)
H34 H 0.661685 0.656889 0.484996
C49 C 0.70700(15) 0.6760(3) 0.53732(15)
C50 C 0.73280(17) 0.6300(4) 0.57020(17)
H35 H 0.751919 0.662858 0.591185
C51 C 0.72999(18) 0.5335(4) 0.57174(18)
H36 H 0.747950 0.500930 0.593845
C52 C 0.69314(15) 0.9097(3) 0.49818(15)
C53 C 0.74194(16) 0.9106(3) 0.55776(16)
C54 C 0.71029(15) 0.7778(3) 0.53436(14)
C55 C 0.6684(2) 0.2660(5) 0.6214(2)
H37 H 0.695502 0.237803 0.626955
C56 C 0.6415(2) 0.2511(5) 0.6496(2)
H38 H 0.649788 0.212552 0.673987
C57 C 0.60243(17) 0.2919(4) 0.64270(16)
C58 C 0.5918(2) 0.3466(5) 0.60631(19)
H39 H 0.564960 0.375749 0.600185
C59 C 0.6201(2) 0.3581(5) 0.57961(19)
H40 H 0.612449 0.395955 0.554945
C60_2 C 0.4546(2) 0.5491(4) 0.68161(17)
H41_2 H 0.453860 0.603110 0.664442
C61 C 0.4862(2) 0.4869(4) 0.68054(17)
H42 H 0.507028 0.497748 0.663281
C62 C 0.48720(16) 0.4071(3) 0.70528(14)
C63 C 0.45707(16) 0.3961(3) 0.73073(16)
H43 H 0.457227 0.342829 0.748295
C64 C 0.42710(17) 0.4621(4) 0.73050(17)
H44 H 0.406791 0.454551 0.748690
C65 C 0.52773(18) 0.0237(4) 0.80588(16)
H45 H 0.507966 0.013871 0.824468
C66 C 0.52344(17) 0.1012(4) 0.77951(15)
H46 H 0.501049 0.143716 0.779961
C67 C 0.55248(17) 0.1153(4) 0.75251(15)
C68 C 0.58308(19) 0.0494(4) 0.75151(18)
H47 H 0.602434 0.054697 0.732175
C70 C 0.57286(16) 0.2807(4) 0.67319(15)
C71 C 0.54988(16) 0.1993(3) 0.72531(14)
C72 C 0.51999(16) 0.3357(4) 0.70333(15)
Zn2 Zn 0.70124(3) 0.34442(4) 0.54708(2)
Cl3 Cl 0.67723(7) 0.29501(10) 0.48170(5)
Cl4 Cl 0.76272(5) 0.30016(11) 0.58333(7)
Zn5 Zn 0.37732(2) 0.36507(5) 0.19235(2)
Cl9 Cl 0.39445(6) 0.23931(10) 0.15982(6)
Cl10 Cl 0.35233(6) 0.37217(16) 0.25316(6)
Zn6 Zn 0.70457(3) 0.64394(5) 0.04325(3)
Cl11 Cl 0.76706(6) 0.68889(12) 0.07703(8)
N26 N 0.33559(14) 0.4380(3) 0.14753(14)
Zn8 Zn 0.37274(2) 0.62284(5) 0.69688(2)
N3_2 N 0.20575(15) 0.0029(3) 0.04065(14)
N7_2 N 0.16366(16) 0.1681(3) 0.08419(15)
N9_2 N 0.06572(16) 0.5303(3) 0.30033(15)
N10_2 N 0.04847(13) 0.1424(3) 0.17052(13)
N11_2 N 0.02480(13) 0.2285(3) 0.22563(12)
N12_2 N 0.08147(14) 0.2842(3) 0.19465(14)
N13_2 N 0.11735(16) 0.5542(3) 0.39400(14)
N14_2 N 0.33248(15) 0.5519(3) 0.65048(15)
N16_2 N 0.22123(13) 0.4593(3) 0.52488(12)
N17_2 N 0.23786(13) 0.3209(3) 0.56461(13)
N18_2 N 0.18583(13) 0.3207(3) 0.50154(13)
C19_2 C 0.1251(2) 0.1327(6) 0.0758(2)
H13_2 H 0.116838 0.098987 0.049927
C20_2 C 0.0964(2) 0.1431(5) 0.10323(19)
H14_2 H 0.069470 0.114479 0.096884
C21_2 C 0.10734(18) 0.1957(4) 0.14005(17)
C22_2 C 0.1477(2) 0.2351(5) 0.1482(2)
H15_2 H 0.156613 0.271976 0.172953
C23_2 C 0.1738(2) 0.2190(5) 0.1196(2)
H16_2 H 0.201186 0.245795 0.125215
C24_2 C 0.0925(2) 0.5165(5) 0.2732(2)
H17_2 H 0.114323 0.559889 0.272029
C25_2 C 0.0887(2) 0.4383(4) 0.2463(2)
H18_2 H 0.108125 0.428456 0.227333
C26_2 C 0.05642(16) 0.3760(3) 0.24780(15)
C27_2 C 0.02919(17) 0.3915(3) 0.27539(16)
H19_2 H 0.006914 0.349370 0.276988
C28_2 C 0.03434(18) 0.4700(4) 0.30129(16)
H20_2 H 0.015007 0.481083 0.320214
C34_2 C 0.07800(17) 0.2080(4) 0.16970(16)
C35_2 C 0.02326(15) 0.1559(3) 0.19889(15)
C36_2 C 0.05413(16) 0.2911(3) 0.22072(15)
C37_2 C 0.14192(17) 0.6004(3) 0.42613(15)
H25_2 H 0.141657 0.665946 0.425341
C38_2 C 0.16751(16) 0.5570(3) 0.46020(16)
H26_2 H 0.184923 0.591979 0.481799
C39_2 C 0.16707(16) 0.4598(3) 0.46204(16)
C40_2 C 0.1420(2) 0.4130(4) 0.4285(2)
H27_2 H 0.141131 0.347396 0.428374
C41_2 C 0.1186(2) 0.4619(4) 0.3954(2)
H28_2 H 0.102370 0.428492 0.372424
C42_2 C 0.30840(17) 0.5983(4) 0.61848(18)
H29_2 H 0.311581 0.663321 0.616850
C43_2 C 0.27912(16) 0.5544(3) 0.58783(17)
H30_2 H 0.262714 0.589064 0.565387
C44_2 C 0.27385(16) 0.4608(3) 0.58993(16)
C45_2 C 0.2986(2) 0.4127(4) 0.62308(18)
H31_2 H 0.295812 0.347699 0.625430
C46_2 C 0.3270(2) 0.4596(4) 0.6521(2)
H32_2 H 0.343725 0.425873 0.674603
C47_2 C 0.1789(2) 0.0313(4) 0.51155(18)
C48_2 C 0.17974(17) 0.1265(4) 0.50776(16)
H34_2 H 0.161685 0.156889 0.484996
C49_2 C 0.20700(15) 0.1760(3) 0.53732(15)
C50_2 C 0.23280(17) 0.1300(4) 0.57020(17)
H35_2 H 0.251919 0.162858 0.591185
C51_2 C 0.22999(18) 0.0335(4) 0.57174(18)
H36_2 H 0.247950 0.000930 0.593845
C52_2 C 0.19314(15) 0.4097(3) 0.49818(15)
C53_2 C 0.24194(16) 0.4106(3) 0.55776(16)
C54_2 C 0.21029(15) 0.2778(3) 0.53436(14)
Cl5_2 Cl 0.39016(6) 0.75058(10) 0.66578(6)
Cl6_2 Cl 0.34766(6) 0.61190(15) 0.75720(6)
Zn4_2 Zn 0.08498(12) 0.63310(11) 0.34398(9)
Cl7_2 Cl 0.12763(19) 0.7348(2) 0.32174(11)
Cl8_2 Cl 0.02687(13) 0.67745(19) 0.36631(10)
Zn6_2 Zn 0.20457(3) 0.14394(5) 0.04325(3)
Cl11_2 Cl 0.26706(6) 0.18889(12) 0.07703(8)
N4_2 N 0.21830(12) 0.5285(3) 0.02792(12)
N5_2 N 0.23708(13) 0.6679(3) 0.06550(14)
N6_2 N 0.18211(14) 0.6677(3) 0.00541(13)
N15_2 N 0.20287(14) 0.9860(3) 0.54312(14)
N19_2 N 0.15848(16) 0.8182(3) 0.58648(15)
N20 N 0.05877(15) 0.4630(3) 0.80583(13)
N22_2 N 0.07708(14) 0.7047(3) 0.69768(13)
N23_2 N 0.02101(13) 0.7620(3) 0.72969(12)
N24_2 N 0.04478(13) 0.8471(3) 0.67426(13)
C6 C 0.30961(17) 0.3900(4) 0.11719(19)
H5 H 0.312990 0.324972 0.115739
C7 C 0.27841(17) 0.4320(3) 0.08830(17)
H6 H 0.260362 0.396489 0.067423
C8_2 C 0.27371(17) 0.5275(3) 0.09019(17)
C9_2 C 0.30122(19) 0.5770(4) 0.1204(2)
H7_2 H 0.299596 0.642377 0.121710
C10_2 C 0.3313(2) 0.5284(4) 0.1488(2)
H8_2 H 0.349722 0.561958 0.170160
C11_2 C 0.23239(18) 0.9545(4) 0.0696(2)
H9_2 H 0.250995 0.987300 0.091096
C12_2 C 0.23417(17) 0.8611(4) 0.06981(18)
H10_2 H 0.253821 0.829779 0.090917
C13_2 C 0.20690(15) 0.8108(3) 0.03875(15)
C14_2 C 0.17978(18) 0.8609(4) 0.00848(17)
C15_2 C 0.1794(2) 0.9553(4) 0.01044(18)
C16_2 C 0.18853(16) 0.5767(3) 0.00189(16)
C17_2 C 0.24142(16) 0.5763(3) 0.05963(16)
C18_2 C 0.20836(16) 0.7094(3) 0.03697(16)
H23_2 H 0.011072 0.993613 0.159461
H33_2 H 0.160332 0.997044 0.490612
C55_2 C 0.1684(2) 0.7660(5) 0.6214(2)
H37_2 H 0.195502 0.737803 0.626955
C56_2 C 0.1415(2) 0.7511(5) 0.6496(2)
H38_2 H 0.149788 0.712552 0.673987
C57_2 C 0.10243(17) 0.7919(4) 0.64270(16)
C58_2 C 0.0918(2) 0.8466(5) 0.60631(19)
H39_2 H 0.064960 0.875749 0.600185
C59_2 C 0.1201(2) 0.8581(5) 0.57961(19)
H40_2 H 0.112449 0.895955 0.554945
H42_2 H 0.007028 0.997748 0.663281
C65_2 C 0.02773(18) 0.5237(4) 0.80588(16)
H45_2 H 0.007966 0.513871 0.824468
C66_2 C 0.02344(17) 0.6012(4) 0.77951(15)
H46_2 H 0.001049 0.643716 0.779961
C67_2 C 0.05248(17) 0.6153(4) 0.75251(15)
C68_2 C 0.08308(19) 0.5494(4) 0.75151(18)
H47_2 H 0.102434 0.554697 0.732175
C69 C 0.0849(2) 0.4760(4) 0.77909(19)
H48 H 0.106646 0.431739 0.778781
C70_2 C 0.07286(16) 0.7807(4) 0.67319(15)
C71_2 C 0.04988(16) 0.6993(3) 0.72531(14)
C72_2 C 0.01999(16) 0.8357(4) 0.70333(15)
Zn1 Zn 0.07006(3) 0.36348(5) 0.85303(2)
Cl1 Cl 0.10781(8) 0.25046(12) 0.83239(6)
Cl2 Cl 0.01001(7) 0.33862(16) 0.87543(6)
Zn2_2 Zn 0.20124(3) 0.84442(4) 0.54708(2)
Cl3_2 Cl 0.17723(7) 0.79501(10) 0.48170(5)
Cl4_2 Cl 0.26272(5) 0.80016(11) 0.58333(7)
N25 N 0.11045(15) 0.4356(3) 0.89981(14)
C1 C 0.13731(18) 0.3898(4) 0.92880(16)
H1 H 0.138927 0.324625 0.926335
C2 C 0.16308(17) 0.4331(4) 0.96245(17)
H2 H 0.181766 0.397865 0.982882
C3 C 0.16151(16) 0.5272(4) 0.96619(16)
C4 C 0.1341(2) 0.5758(4) 0.9360(2)
H3 H 0.132520 0.641148 0.937437
C5 C 0.1091(2) 0.5277(4) 0.9037(2)
H4 H 0.089866 0.561357 0.883065
H11 H 0.161341 0.829761 0.986270
H12 H 0.160022 0.988431 0.989827
C3_2 C 0.66151(16) 0.0272(4) 0.96619(16)
C4_2 C 0.6341(2) 0.0758(4) 0.9360(2)
H3_2 H 0.632520 0.141148 0.937437
C5_2 C 0.6091(2) 0.0277(4) 0.9037(2)
H4_2 H 0.589866 0.061357 0.883065
H11_2 H 0.661341 0.329761 0.986270
H12_2 H 0.660022 0.488431 0.989827
Cl12 Cl 0.67610(8) 0.69068(12) 0.97846(6)
N2 N 0.83559(14) 0.9380(3) 0.14753(14)
N20_2 N 0.55877(15) 0.9630(3) 0.80583(13)
C6_2 C 0.80961(17) 0.8900(4) 0.11719(19)
H5_2 H 0.812990 0.824972 0.115739
C7_2 C 0.77841(17) 0.9320(3) 0.08830(17)
H6_2 H 0.760362 0.896489 0.067423
C69_2 C 0.5849(2) 0.9760(4) 0.77909(19)
H48_2 H 0.606646 0.931739 0.778781
Zn1_2 Zn 0.57006(3) 0.86348(5) 0.85303(2)
Cl1_2 Cl 0.60781(8) 0.75046(12) 0.83239(6)
Cl2_2 Cl 0.51001(7) 0.83862(16) 0.87543(6)
N25_2 N 0.61045(15) 0.9356(3) 0.89981(14)
Zn9 Zn 0.87732(2) 0.86507(5) 0.19235(2)
C1_2 C 0.63731(18) 0.8898(4) 0.92880(16)
H1_2 H 0.638927 0.824625 0.926335
C2_2 C 0.66308(17) 0.9331(4) 0.96245(17)
H2_2 H 0.681766 0.897865 0.982882
N8_2 N 0.92915(14) 0.9514(3) 0.20097(14)
C33_2 C 0.9587(2) 0.9391(4) 0.17738(19)
H24_2 H 0.958309 0.884747 0.160535
C61_2 C 0.9862(2) 0.9869(4) 0.68054(17)
C62_2 C 0.98720(16) 0.9071(3) 0.70528(14)
C63_2 C 0.95707(16) 0.8961(3) 0.73073(16)
H43_2 H 0.957227 0.842829 0.748295
C64_2 C 0.92710(17) 0.9621(4) 0.73050(17)
H44_2 H 0.906791 0.954551 0.748690
Cl9_2 Cl 0.89445(6) 0.73931(10) 0.15982(6)
Cl10_2 Cl 0.85233(6) 0.87217(16) 0.25316(6)
N9_3 N 0.43428(16) 0.0303(3) 0.69967(15)
N13_3 N 0.38265(16) 0.0542(3) 0.60600(14)
N14_3 N 0.16752(15) 0.0519(3) 0.34952(15)
C24_3 C 0.4075(2) 0.0165(5) 0.7268(2)
H17_3 H 0.385677 0.059889 0.727971
C37_3 C 0.35808(17) 0.1004(3) 0.57387(15)
H25_3 H 0.358343 0.165946 0.574659
C38_3 C 0.33249(16) 0.0570(3) 0.53980(16)
H26_3 H 0.315077 0.091979 0.518201
C42_3 C 0.19160(17) 0.0983(4) 0.38152(18)
H29_3 H 0.188419 0.163321 0.383150
C43_3 C 0.22088(16) 0.0544(3) 0.41217(17)
H30_3 H 0.237286 0.089064 0.434613
Zn3_2 Zn 0.12726(2) 0.12284(5) 0.30312(2)
Cl5_3 Cl 0.10984(6) 0.25058(10) 0.33422(6)
Cl6_3 Cl 0.15234(6) 0.11190(15) 0.24280(6)
Zn4_3 Zn 0.41502(12) 0.13310(11) 0.65602(9)
Cl7_3 Cl 0.37237(19) 0.2348(2) 0.67826(11)
Cl8_3 Cl 0.47313(13) 0.17745(19) 0.63369(10)
N27_2 N 0.07497(14) 0.0381(3) 0.29463(13)
C29_3 C 0.06944(18) 0.0246(4) 0.77401(18)
H21_3 H 0.089875 0.030357 0.755862
C30_3 C 0.03898(17) 0.0942(4) 0.77308(16)
H22_3 H 0.039148 0.146900 0.755209
C31_3 C 0.00889(16) 0.0844(3) 0.79868(15)
C32_3 C 0.0099(2) 0.0038(4) 0.8233(2)
C60_3 C 0.0454(2) 0.0491(4) 0.31839(17)
H41_3 H 0.046140 0.103110 0.335558
C3_3 C 0.33849(16) 0.0272(4) 0.03381(16)
C4_3 C 0.3659(2) 0.0758(4) 0.0640(2)
H3_3 H 0.367480 0.141148 0.062563
C5_3 C 0.3909(2) 0.0277(4) 0.0963(2)
H4_3 H 0.410134 0.061357 0.116935
H11_3 H 0.338659 0.329761 0.013730
H12_3 H 0.339978 0.488431 0.010173
Cl12_2 Cl 0.32390(8) 0.69068(12) 0.02154(6)
N3_3 N 0.29425(15) 0.5029(3) 0.95935(14)
N4_3 N 0.28170(12) 0.0285(3) 0.97208(12)
N5_3 N 0.26292(13) 0.1679(3) 0.93450(14)
N6_3 N 0.31789(14) 0.1677(3) 0.99459(13)
N7_3 N 0.33634(16) 0.6681(3) 0.91581(15)
N8_3 N 0.57085(14) 0.4514(3) 0.79903(14)
N10_3 N 0.45153(13) 0.6424(3) 0.82948(13)
N11_3 N 0.47520(13) 0.7285(3) 0.77437(12)
N12_3 N 0.41853(14) 0.7842(3) 0.80535(14)
N15_3 N 0.29713(14) 0.4860(3) 0.45688(14)
N16_3 N 0.27877(13) 0.9593(3) 0.47512(12)
N17_3 N 0.26214(13) 0.8209(3) 0.43539(13)
N18_3 N 0.31417(13) 0.8207(3) 0.49846(13)
N19_3 N 0.34152(16) 0.3182(3) 0.41352(15)
N21_2 N 0.57497(14) 0.5381(3) 0.29463(13)
N22_3 N 0.42292(14) 0.2047(3) 0.30232(13)
N23_3 N 0.47899(13) 0.2620(3) 0.27031(12)
N24_3 N 0.45522(13) 0.3471(3) 0.32574(13)
C8_3 C 0.22629(17) 0.0275(3) 0.90981(17)
C9_3 C 0.19878(19) 0.0770(4) 0.8796(2)
H7_3 H 0.200404 0.142377 0.878290
C10_3 C 0.1687(2) 0.0284(4) 0.8512(2)
H8_3 H 0.150278 0.061958 0.829840
C11_3 C 0.26761(18) 0.4545(4) 0.9304(2)
H9_3 H 0.249005 0.487300 0.908904
C12_3 C 0.26583(17) 0.3611(4) 0.93019(18)
H10_3 H 0.246179 0.329779 0.909083
C13_3 C 0.29310(15) 0.3108(3) 0.96125(15)
C14_3 C 0.32022(18) 0.3609(4) 0.99152(17)
C15_3 C 0.3206(2) 0.4553(4) 0.98956(18)
C16_3 C 0.31147(16) 0.0767(3) 0.99811(16)
C17_3 C 0.25858(16) 0.0763(3) 0.94037(16)
C18_3 C 0.29164(16) 0.2094(3) 0.96303(16)
C19_3 C 0.3749(2) 0.6327(6) 0.9242(2)
H13_3 H 0.383162 0.598987 0.950073
C20_3 C 0.4036(2) 0.6431(5) 0.89677(19)
H14_3 H 0.430530 0.614479 0.903116
C21_3 C 0.39266(18) 0.6957(4) 0.85995(17)
C22_3 C 0.3523(2) 0.7351(5) 0.8518(2)
H15_3 H 0.343387 0.771976 0.827047
C23_3 C 0.3262(2) 0.7190(5) 0.8804(2)
H16_3 H 0.298814 0.745795 0.874785
C25_3 C 0.4113(2) 0.9383(4) 0.7537(2)
H18_3 H 0.391875 0.928456 0.772667
C26_3 C 0.44358(16) 0.8760(3) 0.75220(15)
C27_3 C 0.47081(17) 0.8915(3) 0.72461(16)
H19_3 H 0.493086 0.849370 0.723012
C28_3 C 0.46566(18) 0.9700(4) 0.69871(16)
H20_3 H 0.484993 0.981083 0.679786
C29_4 C 0.56944(18) 0.5246(4) 0.77401(18)
H21_4 H 0.589875 0.530357 0.755862
C30_4 C 0.53898(17) 0.5942(4) 0.77308(16)
H22_4 H 0.539148 0.646900 0.755209
C31_4 C 0.50889(16) 0.5844(3) 0.79868(15)
C32_4 C 0.5099(2) 0.5038(4) 0.8233(2)
H23_3 H 0.488928 0.493613 0.840539
C33_3 C 0.5413(2) 0.4391(4) 0.82262(19)
H24_3 H 0.541691 0.384747 0.839465
C34_3 C 0.42200(17) 0.7080(4) 0.83030(16)
C35_3 C 0.47674(15) 0.6559(3) 0.80111(15)
C36_3 C 0.44587(16) 0.7911(3) 0.77928(15)
C39_3 C 0.33293(16) 0.9598(3) 0.53796(16)
C40_3 C 0.3580(2) 0.9130(4) 0.5715(2)
H27_3 H 0.358869 0.847396 0.571626
C41_3 C 0.3814(2) 0.9619(4) 0.6046(2)
H28_3 H 0.397630 0.928492 0.627576
C44_3 C 0.22615(16) 0.9608(3) 0.41007(16)
C45_3 C 0.2014(2) 0.9127(4) 0.37692(18)
H31_3 H 0.204188 0.847699 0.374570
C46_3 C 0.1730(2) 0.9596(4) 0.3479(2)
H32_3 H 0.156275 0.925873 0.325397
C47_3 C 0.3211(2) 0.5313(4) 0.48845(18)
H33_3 H 0.339668 0.497044 0.509388
C48_3 C 0.32026(17) 0.6265(4) 0.49224(16)
H34_3 H 0.338315 0.656889 0.515004
C49_3 C 0.29300(15) 0.6760(3) 0.46268(15)
C50_3 C 0.26720(17) 0.6300(4) 0.42980(17)
H35_3 H 0.248081 0.662858 0.408815
C51_3 C 0.27001(18) 0.5335(4) 0.42826(18)
H36_3 H 0.252050 0.500930 0.406155
C52_3 C 0.30686(15) 0.9097(3) 0.50182(15)
C53_3 C 0.25806(16) 0.9106(3) 0.44224(16)
C54_3 C 0.28971(15) 0.7778(3) 0.46564(14)
C55_3 C 0.3316(2) 0.2660(5) 0.3786(2)
H37_3 H 0.304498 0.237803 0.373045
C56_3 C 0.3585(2) 0.2511(5) 0.3504(2)
H38_3 H 0.350212 0.212552 0.326013
C57_3 C 0.39757(17) 0.2919(4) 0.35730(16)
C58_3 C 0.4082(2) 0.3466(5) 0.39369(19)
H39_3 H 0.435040 0.375749 0.399815
C59_3 C 0.3799(2) 0.3581(5) 0.42039(19)
H40_3 H 0.387551 0.395955 0.445055
C60_4 C 0.5454(2) 0.5491(4) 0.31839(17)
H41_4 H 0.546140 0.603110 0.335558
C61_3 C 0.5138(2) 0.4869(4) 0.31946(17)
H42_3 H 0.492972 0.497748 0.336719
C62_3 C 0.51280(16) 0.4071(3) 0.29472(14)
C63_3 C 0.54293(16) 0.3961(3) 0.26927(16)
H43_3 H 0.542773 0.342829 0.251705
C64_3 C 0.57290(17) 0.4621(4) 0.26950(17)
H44_3 H 0.593209 0.454551 0.251310
C65_3 C 0.47227(18) 0.0237(4) 0.19412(16)
H45_3 H 0.492034 0.013871 0.175532
C66_3 C 0.47656(17) 0.1012(4) 0.22049(15)
H46_3 H 0.498951 0.143716 0.220039
C67_3 C 0.44752(17) 0.1153(4) 0.24749(15)
C68_3 C 0.41692(19) 0.0494(4) 0.24849(18)
H47_3 H 0.397566 0.054697 0.267825
C70_3 C 0.42714(16) 0.2807(4) 0.32681(15)
C71_3 C 0.45012(16) 0.1993(3) 0.27469(14)
C72_3 C 0.48001(16) 0.3357(4) 0.29667(15)
Zn2_3 Zn 0.29876(3) 0.34442(4) 0.45292(2)
Cl3_3 Cl 0.32277(7) 0.29501(10) 0.51830(5)
Cl4_3 Cl 0.23728(5) 0.30016(11) 0.41667(7)
Zn5_2 Zn 0.62268(2) 0.36507(5) 0.80765(2)
Cl9_3 Cl 0.60555(6) 0.23931(10) 0.84018(6)
Cl10_3 Cl 0.64767(6) 0.37217(16) 0.74684(6)
Zn6_3 Zn 0.29543(3) 0.64394(5) 0.95675(3)
Cl11_3 Cl 0.23294(6) 0.68889(12) 0.92297(8)
N26_2 N 0.66441(14) 0.4380(3) 0.85247(14)
Zn8_2 Zn 0.62726(2) 0.62284(5) 0.30312(2)
N3_4 N 0.79425(15) 0.0029(3) 0.95935(14)
N7_4 N 0.83634(16) 0.1681(3) 0.91581(15)
N9_4 N 0.93428(16) 0.5303(3) 0.69967(15)
N10_4 N 0.95153(13) 0.1424(3) 0.82948(13)
N11_4 N 0.97520(13) 0.2285(3) 0.77437(12)
N12_4 N 0.91853(14) 0.2842(3) 0.80535(14)
N13_4 N 0.88265(16) 0.5542(3) 0.60600(14)
N14_4 N 0.66752(15) 0.5519(3) 0.34952(15)
N16_4 N 0.77877(13) 0.4593(3) 0.47512(12)
N17_4 N 0.76214(13) 0.3209(3) 0.43539(13)
N18_4 N 0.81417(13) 0.3207(3) 0.49846(13)
C19_4 C 0.8749(2) 0.1327(6) 0.9242(2)
H13_4 H 0.883162 0.098987 0.950073
C20_4 C 0.9036(2) 0.1431(5) 0.89677(19)
H14_4 H 0.930530 0.114479 0.903116
C21_4 C 0.89266(18) 0.1957(4) 0.85995(17)
C22_4 C 0.8523(2) 0.2351(5) 0.8518(2)
H15_4 H 0.843387 0.271976 0.827047
C23_4 C 0.8262(2) 0.2190(5) 0.8804(2)
H16_4 H 0.798814 0.245795 0.874785
C24_4 C 0.9075(2) 0.5165(5) 0.7268(2)
H17_4 H 0.885677 0.559889 0.727971
C25_4 C 0.9113(2) 0.4383(4) 0.7537(2)
H18_4 H 0.891875 0.428456 0.772667
C26_4 C 0.94358(16) 0.3760(3) 0.75220(15)
C27_4 C 0.97081(17) 0.3915(3) 0.72461(16)
H19_4 H 0.993086 0.349370 0.723012
C28_4 C 0.96566(18) 0.4700(4) 0.69871(16)
H20_4 H 0.984993 0.481083 0.679786
C34_4 C 0.92200(17) 0.2080(4) 0.83030(16)
C35_4 C 0.97674(15) 0.1559(3) 0.80111(15)
C36_4 C 0.94587(16) 0.2911(3) 0.77928(15)
C37_4 C 0.85808(17) 0.6004(3) 0.57387(15)
H25_4 H 0.858343 0.665946 0.574659
C38_4 C 0.83249(16) 0.5570(3) 0.53980(16)
H26_4 H 0.815077 0.591979 0.518201
C39_4 C 0.83293(16) 0.4598(3) 0.53796(16)
C40_4 C 0.8580(2) 0.4130(4) 0.5715(2)
H27_4 H 0.858869 0.347396 0.571626
C41_4 C 0.8814(2) 0.4619(4) 0.6046(2)
H28_4 H 0.897630 0.428492 0.627576
C42_4 C 0.69160(17) 0.5983(4) 0.38152(18)
H29_4 H 0.688419 0.663321 0.383150
C43_4 C 0.72088(16) 0.5544(3) 0.41217(17)
H30_4 H 0.737286 0.589064 0.434613
C44_4 C 0.72615(16) 0.4608(3) 0.41007(16)
C45_4 C 0.7014(2) 0.4127(4) 0.37692(18)
H31_4 H 0.704188 0.347699 0.374570
C46_4 C 0.6730(2) 0.4596(4) 0.3479(2)
H32_4 H 0.656275 0.425873 0.325397
C47_4 C 0.8211(2) 0.0313(4) 0.48845(18)
C48_4 C 0.82026(17) 0.1265(4) 0.49224(16)
H34_4 H 0.838315 0.156889 0.515004
C49_4 C 0.79300(15) 0.1760(3) 0.46268(15)
C50_4 C 0.76720(17) 0.1300(4) 0.42980(17)
H35_4 H 0.748081 0.162858 0.408815
C51_4 C 0.77001(18) 0.0335(4) 0.42826(18)
H36_4 H 0.752050 0.000930 0.406155
C52_4 C 0.80686(15) 0.4097(3) 0.50182(15)
C53_4 C 0.75806(16) 0.4106(3) 0.44224(16)
C54_4 C 0.78971(15) 0.2778(3) 0.46564(14)
Cl5_4 Cl 0.60984(6) 0.75058(10) 0.33422(6)
Cl6_4 Cl 0.65234(6) 0.61190(15) 0.24280(6)
Zn4_4 Zn 0.91502(12) 0.63310(11) 0.65602(9)
Cl7_4 Cl 0.87237(19) 0.7348(2) 0.67826(11)
Cl8_4 Cl 0.97313(13) 0.67745(19) 0.63369(10)
Zn6_4 Zn 0.79543(3) 0.14394(5) 0.95675(3)
Cl11_4 Cl 0.73294(6) 0.18889(12) 0.92297(8)
N1 N 0.88955(15) 0.4356(3) 0.10019(14)
C1_3 C 0.86269(18) 0.3898(4) 0.07120(16)
H1_3 H 0.861073 0.324625 0.073665
C2_3 C 0.83692(17) 0.4331(4) 0.03755(17)
H2_3 H 0.818234 0.397865 0.017118
C3_4 C 0.83849(16) 0.5272(4) 0.03381(16)
C4_4 C 0.8659(2) 0.5758(4) 0.0640(2)
H3_4 H 0.867480 0.641148 0.062563
C5_4 C 0.8909(2) 0.5277(4) 0.0963(2)
H4_4 H 0.910134 0.561357 0.116935
H11_4 H 0.838659 0.829761 0.013730
H12_4 H 0.839978 0.988431 0.010173
Zn7 Zn 0.92994(3) 0.36348(5) 0.14697(2)
N4_4 N 0.78170(12) 0.5285(3) 0.97208(12)
N5_4 N 0.76292(13) 0.6679(3) 0.93450(14)
N6_4 N 0.81789(14) 0.6677(3) 0.99459(13)
N15_4 N 0.79713(14) 0.9860(3) 0.45688(14)
N19_4 N 0.84152(16) 0.8182(3) 0.41352(15)
N20_3 N 0.94123(15) 0.4630(3) 0.19417(13)
N22_4 N 0.92292(14) 0.7047(3) 0.30232(13)
N23_4 N 0.97899(13) 0.7620(3) 0.27031(12)
N24_4 N 0.95522(13) 0.8471(3) 0.32574(13)
C6_3 C 0.69039(17) 0.3900(4) 0.88281(19)
H5_3 H 0.687010 0.324972 0.884261
C7_3 C 0.72159(17) 0.4320(3) 0.91170(17)
H6_3 H 0.739638 0.396489 0.932577
C8_4 C 0.72629(17) 0.5275(3) 0.90981(17)
C9_4 C 0.69878(19) 0.5770(4) 0.8796(2)
H7_4 H 0.700404 0.642377 0.878290
C10_4 C 0.6687(2) 0.5284(4) 0.8512(2)
H8_4 H 0.650278 0.561958 0.829840
C11_4 C 0.76761(18) 0.9545(4) 0.9304(2)
H9_4 H 0.749005 0.987300 0.908904
C12_4 C 0.76583(17) 0.8611(4) 0.93019(18)
H10_4 H 0.746179 0.829779 0.909083
C13_4 C 0.79310(15) 0.8108(3) 0.96125(15)
C14_4 C 0.82022(18) 0.8609(4) 0.99152(17)
C15_4 C 0.8206(2) 0.9553(4) 0.98956(18)
C16_4 C 0.81147(16) 0.5767(3) 0.99811(16)
C17_4 C 0.75858(16) 0.5763(3) 0.94037(16)
C18_4 C 0.79164(16) 0.7094(3) 0.96303(16)
H23_4 H 0.988928 0.993613 0.840539
H33_4 H 0.839668 0.997044 0.509388
C55_4 C 0.8316(2) 0.7660(5) 0.3786(2)
H37_4 H 0.804498 0.737803 0.373045
C56_4 C 0.8585(2) 0.7511(5) 0.3504(2)
H38_4 H 0.850212 0.712552 0.326013
C57_4 C 0.89757(17) 0.7919(4) 0.35730(16)
C58_4 C 0.9082(2) 0.8466(5) 0.39369(19)
H39_4 H 0.935040 0.875749 0.399815
C59_4 C 0.8799(2) 0.8581(5) 0.42039(19)
H40_4 H 0.887551 0.895955 0.445055
H42_4 H 0.992972 0.997748 0.336719
C65_4 C 0.97227(18) 0.5237(4) 0.19412(16)
H45_4 H 0.992034 0.513871 0.175532
C66_4 C 0.97656(17) 0.6012(4) 0.22049(15)
H46_4 H 0.998951 0.643716 0.220039
C67_4 C 0.94752(17) 0.6153(4) 0.24749(15)
C68_4 C 0.91692(19) 0.5494(4) 0.24849(18)
H47_4 H 0.897566 0.554697 0.267825
C69_3 C 0.9151(2) 0.4760(4) 0.22091(19)
H48_3 H 0.893354 0.431739 0.221219
C70_4 C 0.92714(16) 0.7807(4) 0.32681(15)
C71_4 C 0.95012(16) 0.6993(3) 0.27469(14)
C72_4 C 0.98001(16) 0.8357(4) 0.29667(15)
Cl1_3 Cl 0.89219(8) 0.25046(12) 0.16761(6)
Cl2_3 Cl 0.98999(7) 0.33862(16) 0.12457(6)
Zn2_4 Zn 0.79876(3) 0.84442(4) 0.45292(2)
Cl3_4 Cl 0.82277(7) 0.79501(10) 0.51830(5)
Cl4_4 Cl 0.73728(5) 0.80016(11) 0.41667(7)
N1_2 N 0.38955(15) 0.9356(3) 0.10019(14)
C1_4 C 0.36269(18) 0.8898(4) 0.07120(16)
H1_4 H 0.361073 0.824625 0.073665
C2_4 C 0.33692(17) 0.9331(4) 0.03755(17)
H2_4 H 0.318234 0.897865 0.017118
Zn7_2 Zn 0.42994(3) 0.86348(5) 0.14697(2)
N2_2 N 0.16441(14) 0.9380(3) 0.85247(14)
N20_4 N 0.44123(15) 0.9630(3) 0.19417(13)
C6_4 C 0.19039(17) 0.8900(4) 0.88281(19)
H5_4 H 0.187010 0.824972 0.884261
C7_4 C 0.22159(17) 0.9320(3) 0.91170(17)
H6_4 H 0.239638 0.896489 0.932577
C69_4 C 0.4151(2) 0.9760(4) 0.22091(19)
H48_4 H 0.393354 0.931739 0.221219
Cl1_4 Cl 0.39219(8) 0.75046(12) 0.16761(6)
Cl2_4 Cl 0.48999(7) 0.83862(16) 0.12457(6)
Zn9_2 Zn 0.12268(2) 0.86507(5) 0.80765(2)
N8_4 N 0.07085(14) 0.9514(3) 0.79903(14)
C33_4 C 0.0413(2) 0.9391(4) 0.82262(19)
H24_4 H 0.041691 0.884747 0.839465
C61_4 C 0.0138(2) 0.9869(4) 0.31946(17)
C62_4 C 0.01280(16) 0.9071(3) 0.29472(14)
C63_4 C 0.04293(16) 0.8961(3) 0.26927(16)
H43_4 H 0.042773 0.842829 0.251705
C64_4 C 0.07290(17) 0.9621(4) 0.26950(17)
H44_4 H 0.093209 0.954551 0.251310
Cl9_4 Cl 0.10555(6) 0.73931(10) 0.84018(6)
Cl10_4 Cl 0.14767(6) 0.87217(16) 0.74684(6)
Cl12_3 Cl 0.17610(8) 0.19068(12) 0.97846(6)
Cl12_4 Cl 0.82390(8) 0.19068(12) 0.02154(6)
loop_
_geom_bond_atom_site_label_1
_geom_bond_atom_site_label_2
_geom_bond_site_symmetry_1
_geom_bond_site_symmetry_2
N9 C24 1_555 1_555
N13 C37 1_555 1_555
N14 C42 1_555 1_555
C24 H17 1_555 1_555
C37 H25 1_555 1_555
C38 C37 1_555 1_555
H26 C38 1_555 1_555
C42 H29 1_555 1_555
C43 C42 1_555 1_555
H30 C43 1_555 1_555
Zn3 N14 1_555 1_555
Cl5 Zn3 1_555 1_555
Cl6 Zn3 1_555 1_555
Zn4 N9 1_555 1_555
Cl7 Zn4 1_555 1_555
Cl8 Zn4 1_555 1_555
N27 Zn3 1_555 1_555
N13 Zn4 1_555 1_555
N27 C60 1_555 1_555
C29 H21 1_555 1_555
C30 C29 1_555 1_555
H22 C30 1_555 1_555
C31 C30 1_555 1_555
C32 C31 1_555 1_555
C60 H41 1_555 1_555
N3 C11 1_555 1_555
N4 C16 1_555 1_555
N5 C17 1_555 1_555
N6 C16 1_555 1_555
N7 C19 1_555 1_555
N8 C29_2 1_555 1_555
N10 C34 1_555 1_555
N11 C35 1_555 1_555
N12 C34 1_555 1_555
N15 C47 1_555 1_555
N16 C52 1_555 1_555
N17 C53 1_555 1_555
N18 C52 1_555 1_555
N19 C55 1_555 1_555
N21 C60_2 1_555 1_555
N22 C70 1_555 1_555
N23 C71 1_555 1_555
N24 C70 1_555 1_555
C9 C8 1_555 1_555
H7 C9 1_555 1_555
H8 C10 1_555 1_555
C11 H9 1_555 1_555
C12 C11 1_555 1_555
H10 C12 1_555 1_555
C13 C12 1_555 1_555
C14 C13 1_555 1_555
C15 N3 1_555 1_555
C17 N4 1_555 1_555
C18 N5 1_555 1_555
C19 H13 1_555 1_555
C20 C19 1_555 1_555
H14 C20 1_555 1_555
C21 C20 1_555 1_555
C22 C21 1_555 1_555
H15 C22 1_555 1_555
C23 N7 1_555 1_555
H16 C23 1_555 1_555
H18 C25 1_555 1_555
C26 C25 1_555 1_555
C27 C26 1_555 1_555
H19 C27 1_555 1_555
H20 C28 1_555 1_555
C29_2 H21_2 1_555 1_555
C30_2 C29_2 1_555 1_555
H22_2 C30_2 1_555 1_555
C31_2 C30_2 1_555 1_555
C32_2 C31_2 1_555 1_555
H23 C32_2 1_555 1_555
C33 N8 1_555 1_555
H24 C33 1_555 1_555
C34 C21 1_555 1_555
C35 N10 1_555 1_555
C36 N11 1_555 1_555
C40 C39 1_555 1_555
H27 C40 1_555 1_555
H28 C41 1_555 1_555
C45 C44 1_555 1_555
H31 C45 1_555 1_555
H32 C46 1_555 1_555
C47 H33 1_555 1_555
C48 C47 1_555 1_555
H34 C48 1_555 1_555
C49 C48 1_555 1_555
C50 C49 1_555 1_555
H35 C50 1_555 1_555
C51 N15 1_555 1_555
H36 C51 1_555 1_555
C52 C39 1_555 1_555
C53 N16 1_555 1_555
C54 N17 1_555 1_555
C55 H37 1_555 1_555
C56 C55 1_555 1_555
H38 C56 1_555 1_555
C57 C56 1_555 1_555
C58 C57 1_555 1_555
H39 C58 1_555 1_555
C59 N19 1_555 1_555
H40 C59 1_555 1_555
C60_2 H41_2 1_555 1_555
C61 C60_2 1_555 1_555
H42 C61 1_555 1_555
C62 C61 1_555 1_555
C63 C62 1_555 1_555
H43 C63 1_555 1_555
C64 N21 1_555 1_555
H44 C64 1_555 1_555
C65 H45 1_555 1_555
C66 C65 1_555 1_555
H46 C66 1_555 1_555
C67 C66 1_555 1_555
C68 C67 1_555 1_555
H47 C68 1_555 1_555
C70 C57 1_555 1_555
C71 N22 1_555 1_555
C72 N23 1_555 1_555
Zn2 N15 1_555 1_555
Cl3 Zn2 1_555 1_555
Cl4 Zn2 1_555 1_555
Zn5 N8 1_555 1_555
Cl9 Zn5 1_555 1_555
Cl10 Zn5 1_555 1_555
Zn6 N3 1_555 1_555
Cl11 Zn6 1_555 1_555
N26 Zn5 1_555 1_555
Zn8 N21 1_555 1_555
N6 C18 1_555 1_555
N7 Zn6 1_555 1_555
N12 C36 1_555 1_555
N18 C54 1_555 1_555
N19 Zn2 1_555 1_555
N24 C72 1_555 1_555
C8 C17 1_555 1_555
C9 C10 1_555 1_555
C13 C18 1_555 1_555
C14 C15 1_555 1_555
C22 C23 1_555 1_555
C26 C36 1_555 1_555
C27 C28 1_555 1_555
C31_2 C35 1_555 1_555
C32_2 C33 1_555 1_555
C40 C41 1_555 1_555
C44 C53 1_555 1_555
C45 C46 1_555 1_555
C49 C54 1_555 1_555
C50 C51 1_555 1_555
C58 C59 1_555 1_555
C62 C72 1_555 1_555
C63 C64 1_555 1_555
C67 C71 1_555 1_555
N7_2 C19_2 1_555 1_555
N9_2 C24_2 1_555 1_555
N10_2 C34_2 1_555 1_555
N11_2 C35_2 1_555 1_555
N12_2 C34_2 1_555 1_555
N13_2 C37_2 1_555 1_555
N14_2 C42_2 1_555 1_555
N16_2 C52_2 1_555 1_555
N17_2 C53_2 1_555 1_555
N18_2 C52_2 1_555 1_555
C19_2 H13_2 1_555 1_555
C20_2 C19_2 1_555 1_555
H14_2 C20_2 1_555 1_555
C21_2 C20_2 1_555 1_555
C22_2 C21_2 1_555 1_555
H15_2 C22_2 1_555 1_555
C23_2 N7_2 1_555 1_555
H16_2 C23_2 1_555 1_555
C24_2 H17_2 1_555 1_555
C25_2 C24_2 1_555 1_555
H18_2 C25_2 1_555 1_555
C26_2 C25_2 1_555 1_555
C27_2 C26_2 1_555 1_555
H19_2 C27_2 1_555 1_555
C28_2 N9_2 1_555 1_555
H20_2 C28_2 1_555 1_555
C34_2 C21_2 1_555 1_555
C35_2 N10_2 1_555 1_555
C36_2 N11_2 1_555 1_555
C37_2 H25_2 1_555 1_555
C38_2 C37_2 1_555 1_555
H26_2 C38_2 1_555 1_555
C39_2 C38_2 1_555 1_555
C40_2 C39_2 1_555 1_555
H27_2 C40_2 1_555 1_555
C41_2 N13_2 1_555 1_555
H28_2 C41_2 1_555 1_555
C42_2 H29_2 1_555 1_555
C43_2 C42_2 1_555 1_555
H30_2 C43_2 1_555 1_555
C44_2 C43_2 1_555 1_555
C45_2 C44_2 1_555 1_555
H31_2 C45_2 1_555 1_555
C46_2 N14_2 1_555 1_555
H32_2 C46_2 1_555 1_555
C48_2 C47_2 1_555 1_555
H34_2 C48_2 1_555 1_555
C49_2 C48_2 1_555 1_555
C50_2 C49_2 1_555 1_555
H35_2 C50_2 1_555 1_555
H36_2 C51_2 1_555 1_555
C52_2 C39_2 1_555 1_555
C53_2 N16_2 1_555 1_555
C54_2 N17_2 1_555 1_555
Zn8 N14_2 1_555 1_555
Cl5_2 Zn8 1_555 1_555
Cl6_2 Zn8 1_555 1_555
Zn4_2 N9_2 1_555 1_555
Cl7_2 Zn4_2 1_555 1_555
Cl8_2 Zn4_2 1_555 1_555
Zn6_2 N3_2 1_555 1_555
Cl11_2 Zn6_2 1_555 1_555
N7_2 Zn6_2 1_555 1_555
N12_2 C36_2 1_555 1_555
N13_2 Zn4_2 1_555 1_555
N18_2 C54_2 1_555 1_555
C22_2 C23_2 1_555 1_555
C26_2 C36_2 1_555 1_555
C27_2 C28_2 1_555 1_555
C40_2 C41_2 1_555 1_555
C44_2 C53_2 1_555 1_555
C45_2 C46_2 1_555 1_555
C49_2 C54_2 1_555 1_555
C50_2 C51_2 1_555 1_555
N26 C6 1_555 1_555
N4_2 C16_2 1_555 1_555
N5_2 C17_2 1_555 1_555
N6_2 C16_2 1_555 1_555
N19_2 C55_2 1_555 1_555
N20 C65_2 1_555 1_555
N22_2 C70_2 1_555 1_555
N23_2 C71_2 1_555 1_555
N24_2 C70_2 1_555 1_555
C6 H5 1_555 1_555
C7 C6 1_555 1_555
H6 C7 1_555 1_555
C8_2 C7 1_555 1_555
C9_2 C8_2 1_555 1_555
H7_2 C9_2 1_555 1_555
C10_2 N26 1_555 1_555
H8_2 C10_2 1_555 1_555
C11_2 H9_2 1_555 1_555
C12_2 C11_2 1_555 1_555
H10_2 C12_2 1_555 1_555
C13_2 C12_2 1_555 1_555
C14_2 C13_2 1_555 1_555
C17_2 N4_2 1_555 1_555
C18_2 N5_2 1_555 1_555
C55_2 H37_2 1_555 1_555
C56_2 C55_2 1_555 1_555
H38_2 C56_2 1_555 1_555
C57_2 C56_2 1_555 1_555
C58_2 C57_2 1_555 1_555
H39_2 C58_2 1_555 1_555
C59_2 N19_2 1_555 1_555
H40_2 C59_2 1_555 1_555
C65_2 H45_2 1_555 1_555
C66_2 C65_2 1_555 1_555
H46_2 C66_2 1_555 1_555
C67_2 C66_2 1_555 1_555
C68_2 C67_2 1_555 1_555
H47_2 C68_2 1_555 1_555
C69 N20 1_555 1_555
H48 C69 1_555 1_555
C70_2 C57_2 1_555 1_555
C71_2 N22_2 1_555 1_555
C72_2 N23_2 1_555 1_555
Zn1 N20 1_555 1_555
Cl1 Zn1 1_555 1_555
Cl2 Zn1 1_555 1_555
Zn2_2 N15_2 1_555 1_555
Cl3_2 Zn2_2 1_555 1_555
Cl4_2 Zn2_2 1_555 1_555
N25 Zn1 1_555 1_555
N6_2 C18_2 1_555 1_555
N19_2 Zn2_2 1_555 1_555
N24_2 C72_2 1_555 1_555
C8_2 C17_2 1_555 1_555
C9_2 C10_2 1_555 1_555
C13_2 C18_2 1_555 1_555
C14_2 C15_2 1_555 1_555
C58_2 C59_2 1_555 1_555
C67_2 C71_2 1_555 1_555
C68_2 C69 1_555 1_555
N25 C1 1_555 1_555
C1 H1 1_555 1_555
C2 C1 1_555 1_555
H2 C2 1_555 1_555
C3 C2 1_555 1_555
C4 C3 1_555 1_555
H3 C4 1_555 1_555
C5 N25 1_555 1_555
H4 C5 1_555 1_555
C4 C5 1_555 1_555
C4_2 C3_2 1_555 1_555
H3_2 C4_2 1_555 1_555
H4_2 C5_2 1_555 1_555
C4_2 C5_2 1_555 1_555
N2 C6_2 1_555 1_555
C6_2 H5_2 1_555 1_555
C7_2 C6_2 1_555 1_555
H6_2 C7_2 1_555 1_555
C69_2 N20_2 1_555 1_555
H48_2 C69_2 1_555 1_555
Zn1_2 N20_2 1_555 1_555
Cl1_2 Zn1_2 1_555 1_555
Cl2_2 Zn1_2 1_555 1_555
N25_2 Zn1_2 1_555 1_555
Zn9 N2 1_555 1_555
N25_2 C1_2 1_555 1_555
C1_2 H1_2 1_555 1_555
C2_2 C1_2 1_555 1_555
H2_2 C2_2 1_555 1_555
C33_2 N8_2 1_555 1_555
H24_2 C33_2 1_555 1_555
C62_2 C61_2 1_555 1_555
C63_2 C62_2 1_555 1_555
H43_2 C63_2 1_555 1_555
H44_2 C64_2 1_555 1_555
Zn9 N8_2 1_555 1_555
Cl9_2 Zn9 1_555 1_555
Cl10_2 Zn9 1_555 1_555
C63_2 C64_2 1_555 1_555
N9_3 C24_3 1_555 1_555
N13_3 C37_3 1_555 1_555
N14_3 C42_3 1_555 1_555
C24_3 H17_3 1_555 1_555
C37_3 H25_3 1_555 1_555
C38_3 C37_3 1_555 1_555
H26_3 C38_3 1_555 1_555
C42_3 H29_3 1_555 1_555
C43_3 C42_3 1_555 1_555
H30_3 C43_3 1_555 1_555
Zn3_2 N14_3 1_555 1_555
Cl5_3 Zn3_2 1_555 1_555
Cl6_3 Zn3_2 1_555 1_555
Zn4_3 N9_3 1_555 1_555
Cl7_3 Zn4_3 1_555 1_555
Cl8_3 Zn4_3 1_555 1_555
N27_2 Zn3_2 1_555 1_555
N13_3 Zn4_3 1_555 1_555
N27_2 C60_3 1_555 1_555
C29_3 H21_3 1_555 1_555
C30_3 C29_3 1_555 1_555
H22_3 C30_3 1_555 1_555
C31_3 C30_3 1_555 1_555
C32_3 C31_3 1_555 1_555
C60_3 H41_3 1_555 1_555
C4_3 C3_3 1_555 1_555
H3_3 C4_3 1_555 1_555
H4_3 C5_3 1_555 1_555
C4_3 C5_3 1_555 1_555
N3_3 C11_3 1_555 1_555
N4_3 C16_3 1_555 1_555
N5_3 C17_3 1_555 1_555
N6_3 C16_3 1_555 1_555
N7_3 C19_3 1_555 1_555
N8_3 C29_4 1_555 1_555
N10_3 C34_3 1_555 1_555
N11_3 C35_3 1_555 1_555
N12_3 C34_3 1_555 1_555
N15_3 C47_3 1_555 1_555
N16_3 C52_3 1_555 1_555
N17_3 C53_3 1_555 1_555
N18_3 C52_3 1_555 1_555
N19_3 C55_3 1_555 1_555
N21_2 C60_4 1_555 1_555
N22_3 C70_3 1_555 1_555
N23_3 C71_3 1_555 1_555
N24_3 C70_3 1_555 1_555
C9_3 C8_3 1_555 1_555
H7_3 C9_3 1_555 1_555
H8_3 C10_3 1_555 1_555
C11_3 H9_3 1_555 1_555
C12_3 C11_3 1_555 1_555
H10_3 C12_3 1_555 1_555
C13_3 C12_3 1_555 1_555
C14_3 C13_3 1_555 1_555
C15_3 N3_3 1_555 1_555
C17_3 N4_3 1_555 1_555
C18_3 N5_3 1_555 1_555
C19_3 H13_3 1_555 1_555
C20_3 C19_3 1_555 1_555
H14_3 C20_3 1_555 1_555
C21_3 C20_3 1_555 1_555
C22_3 C21_3 1_555 1_555
H15_3 C22_3 1_555 1_555
C23_3 N7_3 1_555 1_555
H16_3 C23_3 1_555 1_555
H18_3 C25_3 1_555 1_555
C26_3 C25_3 1_555 1_555
C27_3 C26_3 1_555 1_555
H19_3 C27_3 1_555 1_555
H20_3 C28_3 1_555 1_555
C29_4 H21_4 1_555 1_555
C30_4 C29_4 1_555 1_555
H22_4 C30_4 1_555 1_555
C31_4 C30_4 1_555 1_555
C32_4 C31_4 1_555 1_555
H23_3 C32_4 1_555 1_555
C33_3 N8_3 1_555 1_555
H24_3 C33_3 1_555 1_555
C34_3 C21_3 1_555 1_555
C35_3 N10_3 1_555 1_555
C36_3 N11_3 1_555 1_555
C40_3 C39_3 1_555 1_555
H27_3 C40_3 1_555 1_555
H28_3 C41_3 1_555 1_555
C45_3 C44_3 1_555 1_555
H31_3 C45_3 1_555 1_555
H32_3 C46_3 1_555 1_555
C47_3 H33_3 1_555 1_555
C48_3 C47_3 1_555 1_555
H34_3 C48_3 1_555 1_555
C49_3 C48_3 1_555 1_555
C50_3 C49_3 1_555 1_555
H35_3 C50_3 1_555 1_555
C51_3 N15_3 1_555 1_555
H36_3 C51_3 1_555 1_555
C52_3 C39_3 1_555 1_555
C53_3 N16_3 1_555 1_555
C54_3 N17_3 1_555 1_555
C55_3 H37_3 1_555 1_555
C56_3 C55_3 1_555 1_555
H38_3 C56_3 1_555 1_555
C57_3 C56_3 1_555 1_555
C58_3 C57_3 1_555 1_555
H39_3 C58_3 1_555 1_555
C59_3 N19_3 1_555 1_555
H40_3 C59_3 1_555 1_555
C60_4 H41_4 1_555 1_555
C61_3 C60_4 1_555 1_555
H42_3 C61_3 1_555 1_555
C62_3 C61_3 1_555 1_555
C63_3 C62_3 1_555 1_555
H43_3 C63_3 1_555 1_555
C64_3 N21_2 1_555 1_555
H44_3 C64_3 1_555 1_555
C65_3 H45_3 1_555 1_555
C66_3 C65_3 1_555 1_555
H46_3 C66_3 1_555 1_555
C67_3 C66_3 1_555 1_555
C68_3 C67_3 1_555 1_555
H47_3 C68_3 1_555 1_555
C70_3 C57_3 1_555 1_555
C71_3 N22_3 1_555 1_555
C72_3 N23_3 1_555 1_555
Zn2_3 N15_3 1_555 1_555
Cl3_3 Zn2_3 1_555 1_555
Cl4_3 Zn2_3 1_555 1_555
Zn5_2 N8_3 1_555 1_555
Cl9_3 Zn5_2 1_555 1_555
Cl10_3 Zn5_2 1_555 1_555
Zn6_3 N3_3 1_555 1_555
Cl11_3 Zn6_3 1_555 1_555
N26_2 Zn5_2 1_555 1_555
Zn8_2 N21_2 1_555 1_555
N6_3 C18_3 1_555 1_555
N7_3 Zn6_3 1_555 1_555
N12_3 C36_3 1_555 1_555
N18_3 C54_3 1_555 1_555
N19_3 Zn2_3 1_555 1_555
N24_3 C72_3 1_555 1_555
C8_3 C17_3 1_555 1_555
C9_3 C10_3 1_555 1_555
C13_3 C18_3 1_555 1_555
C14_3 C15_3 1_555 1_555
C22_3 C23_3 1_555 1_555
C26_3 C36_3 1_555 1_555
C27_3 C28_3 1_555 1_555
C31_4 C35_3 1_555 1_555
C32_4 C33_3 1_555 1_555
C40_3 C41_3 1_555 1_555
C44_3 C53_3 1_555 1_555
C45_3 C46_3 1_555 1_555
C49_3 C54_3 1_555 1_555
C50_3 C51_3 1_555 1_555
C58_3 C59_3 1_555 1_555
C62_3 C72_3 1_555 1_555
C63_3 C64_3 1_555 1_555
C67_3 C71_3 1_555 1_555
N7_4 C19_4 1_555 1_555
N9_4 C24_4 1_555 1_555
N10_4 C34_4 1_555 1_555
N11_4 C35_4 1_555 1_555
N12_4 C34_4 1_555 1_555
N13_4 C37_4 1_555 1_555
N14_4 C42_4 1_555 1_555
N16_4 C52_4 1_555 1_555
N17_4 C53_4 1_555 1_555
N18_4 C52_4 1_555 1_555
C19_4 H13_4 1_555 1_555
C20_4 C19_4 1_555 1_555
H14_4 C20_4 1_555 1_555
C21_4 C20_4 1_555 1_555
C22_4 C21_4 1_555 1_555
H15_4 C22_4 1_555 1_555
C23_4 N7_4 1_555 1_555
H16_4 C23_4 1_555 1_555
C24_4 H17_4 1_555 1_555
C25_4 C24_4 1_555 1_555
H18_4 C25_4 1_555 1_555
C26_4 C25_4 1_555 1_555
C27_4 C26_4 1_555 1_555
H19_4 C27_4 1_555 1_555
C28_4 N9_4 1_555 1_555
H20_4 C28_4 1_555 1_555
C34_4 C21_4 1_555 1_555
C35_4 N10_4 1_555 1_555
C36_4 N11_4 1_555 1_555
C37_4 H25_4 1_555 1_555
C38_4 C37_4 1_555 1_555
H26_4 C38_4 1_555 1_555
C39_4 C38_4 1_555 1_555
C40_4 C39_4 1_555 1_555
H27_4 C40_4 1_555 1_555
C41_4 N13_4 1_555 1_555
H28_4 C41_4 1_555 1_555
C42_4 H29_4 1_555 1_555
C43_4 C42_4 1_555 1_555
H30_4 C43_4 1_555 1_555
C44_4 C43_4 1_555 1_555
C45_4 C44_4 1_555 1_555
H31_4 C45_4 1_555 1_555
C46_4 N14_4 1_555 1_555
H32_4 C46_4 1_555 1_555
C48_4 C47_4 1_555 1_555
H34_4 C48_4 1_555 1_555
C49_4 C48_4 1_555 1_555
C50_4 C49_4 1_555 1_555
H35_4 C50_4 1_555 1_555
H36_4 C51_4 1_555 1_555
C52_4 C39_4 1_555 1_555
C53_4 N16_4 1_555 1_555
C54_4 N17_4 1_555 1_555
Zn8_2 N14_4 1_555 1_555
Cl5_4 Zn8_2 1_555 1_555
Cl6_4 Zn8_2 1_555 1_555
Zn4_4 N9_4 1_555 1_555
Cl7_4 Zn4_4 1_555 1_555
Cl8_4 Zn4_4 1_555 1_555
Zn6_4 N3_4 1_555 1_555
Cl11_4 Zn6_4 1_555 1_555
N7_4 Zn6_4 1_555 1_555
N12_4 C36_4 1_555 1_555
N13_4 Zn4_4 1_555 1_555
N18_4 C54_4 1_555 1_555
C22_4 C23_4 1_555 1_555
C26_4 C36_4 1_555 1_555
C27_4 C28_4 1_555 1_555
C40_4 C41_4 1_555 1_555
C44_4 C53_4 1_555 1_555
C45_4 C46_4 1_555 1_555
C49_4 C54_4 1_555 1_555
C50_4 C51_4 1_555 1_555
N1 C1_3 1_555 1_555
C1_3 H1_3 1_555 1_555
C2_3 C1_3 1_555 1_555
H2_3 C2_3 1_555 1_555
C3_4 C2_3 1_555 1_555
C4_4 C3_4 1_555 1_555
H3_4 C4_4 1_555 1_555
C5_4 N1 1_555 1_555
H4_4 C5_4 1_555 1_555
Zn7 N1 1_555 1_555
C4_4 C5_4 1_555 1_555
N26_2 C6_3 1_555 1_555
N4_4 C16_4 1_555 1_555
N5_4 C17_4 1_555 1_555
N6_4 C16_4 1_555 1_555
N19_4 C55_4 1_555 1_555
N20_3 C65_4 1_555 1_555
N22_4 C70_4 1_555 1_555
N23_4 C71_4 1_555 1_555
N24_4 C70_4 1_555 1_555
C6_3 H5_3 1_555 1_555
C7_3 C6_3 1_555 1_555
H6_3 C7_3 1_555 1_555
C8_4 C7_3 1_555 1_555
C9_4 C8_4 1_555 1_555
H7_4 C9_4 1_555 1_555
C10_4 N26_2 1_555 1_555
H8_4 C10_4 1_555 1_555
C11_4 H9_4 1_555 1_555
C12_4 C11_4 1_555 1_555
H10_4 C12_4 1_555 1_555
C13_4 C12_4 1_555 1_555
C14_4 C13_4 1_555 1_555
C17_4 N4_4 1_555 1_555
C18_4 N5_4 1_555 1_555
C55_4 H37_4 1_555 1_555
C56_4 C55_4 1_555 1_555
H38_4 C56_4 1_555 1_555
C57_4 C56_4 1_555 1_555
C58_4 C57_4 1_555 1_555
H39_4 C58_4 1_555 1_555
C59_4 N19_4 1_555 1_555
H40_4 C59_4 1_555 1_555
C65_4 H45_4 1_555 1_555
C66_4 C65_4 1_555 1_555
H46_4 C66_4 1_555 1_555
C67_4 C66_4 1_555 1_555
C68_4 C67_4 1_555 1_555
H47_4 C68_4 1_555 1_555
C69_3 N20_3 1_555 1_555
H48_3 C69_3 1_555 1_555
C70_4 C57_4 1_555 1_555
C71_4 N22_4 1_555 1_555
C72_4 N23_4 1_555 1_555
Zn7 N20_3 1_555 1_555
Cl1_3 Zn7 1_555 1_555
Cl2_3 Zn7 1_555 1_555
Zn2_4 N15_4 1_555 1_555
Cl3_4 Zn2_4 1_555 1_555
Cl4_4 Zn2_4 1_555 1_555
N6_4 C18_4 1_555 1_555
N19_4 Zn2_4 1_555 1_555
N24_4 C72_4 1_555 1_555
C8_4 C17_4 1_555 1_555
C9_4 C10_4 1_555 1_555
C13_4 C18_4 1_555 1_555
C14_4 C15_4 1_555 1_555
C58_4 C59_4 1_555 1_555
C67_4 C71_4 1_555 1_555
C68_4 C69_3 1_555 1_555
N1_2 C1_4 1_555 1_555
C1_4 H1_4 1_555 1_555
C2_4 C1_4 1_555 1_555
H2_4 C2_4 1_555 1_555
Zn7_2 N1_2 1_555 1_555
N2_2 C6_4 1_555 1_555
C6_4 H5_4 1_555 1_555
C7_4 C6_4 1_555 1_555
H6_4 C7_4 1_555 1_555
C69_4 N20_4 1_555 1_555
H48_4 C69_4 1_555 1_555
Zn7_2 N20_4 1_555 1_555
Cl1_4 Zn7_2 1_555 1_555
Cl2_4 Zn7_2 1_555 1_555
Zn9_2 N2_2 1_555 1_555
C33_4 N8_4 1_555 1_555
H24_4 C33_4 1_555 1_555
C62_4 C61_4 1_555 1_555
C63_4 C62_4 1_555 1_555
H43_4 C63_4 1_555 1_555
H44_4 C64_4 1_555 1_555
Zn9_2 N8_4 1_555 1_555
Cl9_4 Zn9_2 1_555 1_555
Cl10_4 Zn9_2 1_555 1_555
C63_4 C64_4 1_555 1_555

#END
